F001
     RDKit          3D

  0  0  0  0  0  0  0  0  0  0999 V3000
M  V30 BEGIN CTAB
M  V30 COUNTS 31 33 0 0 0
M  V30 BEGIN ATOM
M  V30 1 F -26.389000 -7.709000 -11.495000 0
M  V30 2 O -37.159000 -10.191000 -15.037000 0
M  V30 3 O -32.459000 -7.676000 -16.169000 0
M  V30 4 N -31.083000 -7.257000 -15.634000 0
M  V30 5 N -34.767000 -9.258000 -16.790000 0 CHG=1
M  V30 6 N -32.077000 -8.735000 -14.147000 0
M  V30 7 C -35.644000 -10.443000 -16.932000 0
M  V30 8 C -28.702000 -7.927000 -11.577000 0
M  V30 9 C -27.450000 -7.586000 -13.532000 0
M  V30 10 C -29.845000 -7.985000 -12.301000 0
M  V30 11 C -28.583000 -7.629000 -14.259000 0
M  V30 12 C -34.710000 -10.525000 -14.715000 0
M  V30 13 C -27.521000 -7.744000 -12.207000 0
M  V30 14 C -35.984000 -10.893000 -15.501000 0 CFG=1
M  V30 15 C -32.970000 -8.570000 -15.179000 0
M  V30 16 C -30.993000 -7.919000 -14.440000 0
M  V30 17 C -34.360000 -9.163000 -15.355000 0 CFG=1
M  V30 18 C -29.796000 -7.834000 -13.641000 0
M  V30 19 H -37.377600 -10.485500 -14.106700 0
M  V30 20 H -35.263700 -8.432600 -17.058500 0
M  V30 21 H -35.165900 -11.172400 -17.421200 0
M  V30 22 H -36.478200 -10.200500 -17.427400 0
M  V30 23 H -28.732000 -8.019100 -10.581700 0
M  V30 24 H -26.567300 -7.437800 -13.977900 0
M  V30 25 H -30.721400 -8.139000 -11.844600 0
M  V30 26 H -28.543000 -7.511600 -15.251300 0
M  V30 27 H -33.982700 -11.196400 -14.857300 0
M  V30 28 H -34.894200 -10.435400 -13.736200 0
M  V30 29 H -36.136000 -11.881000 -15.474100 0
M  V30 30 H -34.987400 -8.503200 -14.941400 0
M  V30 31 H -33.957300 -9.362400 -17.367400 0
M  V30 END ATOM
M  V30 BEGIN BOND
M  V30 1 1 1 13
M  V30 2 1 2 14
M  V30 3 1 3 4
M  V30 4 1 3 15
M  V30 5 2 4 16
M  V30 6 1 5 7
M  V30 7 1 5 17
M  V30 8 2 6 15
M  V30 9 1 6 16
M  V30 10 1 7 14
M  V30 11 2 8 10
M  V30 12 1 8 13
M  V30 13 1 9 11
M  V30 14 2 9 13
M  V30 15 1 10 18
M  V30 16 2 11 18
M  V30 17 1 12 14
M  V30 18 1 12 17
M  V30 19 1 15 17
M  V30 20 1 16 18
M  V30 21 1 2 19
M  V30 22 1 5 20
M  V30 23 1 7 21
M  V30 24 1 7 22
M  V30 25 1 8 23
M  V30 26 1 9 24
M  V30 27 1 10 25
M  V30 28 1 11 26
M  V30 29 1 12 27
M  V30 30 1 12 28
M  V30 31 1 14 29 CFG=3
M  V30 32 1 17 30 CFG=1
M  V30 33 1 5 31
M  V30 END BOND
M  V30 END CTAB
M  END
>  <Ligand_Instance>  (1) 
001_B_2

>  <Dataset>  (1) 
CF

>  <PDB_ID>  (1) 
None

>  <Chain>  (1) 
B

>  <Resi>  (1) 
2

>  <Num_Resolved_Atoms>  (1) 
18

>  <Num_H_Atoms_ProtBoundConf>  (1) 
13

>  <Pocket>  (1) 
X

>  <Name>  (1) 
(3R,5S)‐5‐[3‐(4‐fluorophenyl)‐1,2,4‐oxadiazol‐5‐yl]pyrrolidin‐3‐ol

>  <Num_Not_Resolved_Atoms>  (1) 
0

>  <ATP_Site>  (1) 
True

>  <Peripheral>  (1) 
True

>  <Standardized_SMILES>  (1) 
[H]O[C@]1([H])C([H])([H])[C@@]([H])(C2=NC(C3=C([H])C([H])=C(F)C([H])=C3[H])=NO2)[N+]([H])([H])C1([H])[H]

>  <2D_Mol_H>  (1) 
<rdkit.Chem.rdchem.Mol object at 0x77059d96aab0>

>  <MW>  (1) 
250.253

>  <HBA>  (1) 
4

>  <HBD>  (1) 
2

>  <LogP>  (1) 
0.2448

>  <NRB>  (1) 
3

>  <TPSA>  (1) 
75.76

>  <Num_Heavy_Atoms>  (1) 
18

>  <Ro5>  (1) 
[True, True, True, True, True, True]

>  <Ro5_Fulfilled>  (1) 
True

>  <Ro3>  (1) 
[True, False, True, True]

>  <Ro3_Fulfilled>  (1) 
True

>  <Fsp3>  (1) 
0.333333

>  <Fsp3_0.42>  (1) 
False

>  <Fsp3_0.45>  (1) 
False

>  <Stereogenic_Carbons>  (1) 
2

>  <C_Atoms>  (1) 
12

>  <FCStereo>  (1) 
0.166667

>  <SPS>  (1) 
422

>  <nSPS>  (1) 
23.444444

>  <PBF>  (1) 
0.576108

>  <PBF_0.6>  (1) 
False

>  <nPBF>  (1) 
0.032006

>  <nPBF_0.016>  (1) 
True

>  <PMI1>  (1) 
357.796547

>  <PMI2>  (1) 
3459.277847

>  <PMI3>  (1) 
3699.400894

>  <NPR1>  (1) 
0.096717

>  <NPR2>  (1) 
0.935091

>  <Sum_NPR>  (1) 
1.031809

>  <Sum_NPR_1.07>  (1) 
False

>  <Sum_NPR_1.2>  (1) 
False

>  <MaxAbsEStateIndex>  (1) 
12.799287

>  <MaxEStateIndex>  (1) 
12.799287

>  <MinAbsEStateIndex>  (1) 
0.015461

>  <MinEStateIndex>  (1) 
-0.32299

>  <qed>  (1) 
0.800487

>  <MolWt>  (1) 
250.253

>  <HeavyAtomMolWt>  (1) 
237.149

>  <ExactMolWt>  (1) 
250.098631

>  <NumValenceElectrons>  (1) 
94

>  <NumRadicalElectrons>  (1) 
0

>  <MaxPartialCharge>  (1) 
0.284787

>  <MinPartialCharge>  (1) 
-0.386989

>  <MaxAbsPartialCharge>  (1) 
0.386989

>  <MinAbsPartialCharge>  (1) 
0.284787

>  <FpDensityMorgan1>  (1) 
1.333333

>  <FpDensityMorgan2>  (1) 
2.111111

>  <FpDensityMorgan3>  (1) 
2.777778

>  <BCUT2D_MWHI>  (1) 
19.142142

>  <BCUT2D_MWLOW>  (1) 
10.169405

>  <BCUT2D_CHGHI>  (1) 
2.318699

>  <BCUT2D_CHGLO>  (1) 
-1.975495

>  <BCUT2D_LOGPHI>  (1) 
2.205953

>  <BCUT2D_LOGPLOW>  (1) 
-2.822694

>  <BCUT2D_MRHI>  (1) 
5.532103

>  <BCUT2D_MRLOW>  (1) 
-0.680379

>  <AvgIpc>  (1) 
2.982762

>  <BalabanJ>  (1) 
1.827384

>  <BertzCT>  (1) 
540.510481

>  <Chi0>  (1) 
12.535169

>  <Chi0n>  (1) 
9.583519

>  <Chi0v>  (1) 
9.583519

>  <Chi1>  (1) 
8.720347

>  <Chi1n>  (1) 
5.831069

>  <Chi1v>  (1) 
5.831069

>  <Chi2n>  (1) 
4.430538

>  <Chi2v>  (1) 
4.430538

>  <Chi3n>  (1) 
3.080041

>  <Chi3v>  (1) 
3.080041

>  <Chi4n>  (1) 
2.110578

>  <Chi4v>  (1) 
2.110578

>  <HallKierAlpha>  (1) 
-1.79

>  <Ipc>  (1) 
25520.514803

>  <Kappa1>  (1) 
11.308931

>  <Kappa2>  (1) 
4.47078

>  <Kappa3>  (1) 
2.118818

>  <LabuteASA>  (1) 
102.637048

>  <PEOE_VSA1>  (1) 
14.946411

>  <PEOE_VSA10>  (1) 
18.465944

>  <PEOE_VSA11>  (1) 
6.041841

>  <PEOE_VSA12>  (1) 
5.824404

>  <PEOE_VSA13>  (1) 
5.890724

>  <PEOE_VSA14>  (1) 
0.0

>  <PEOE_VSA2>  (1) 
0.0

>  <PEOE_VSA3>  (1) 
4.390415

>  <PEOE_VSA4>  (1) 
4.983979

>  <PEOE_VSA5>  (1) 
0.0

>  <PEOE_VSA6>  (1) 
5.156663

>  <PEOE_VSA7>  (1) 
24.265468

>  <PEOE_VSA8>  (1) 
11.984273

>  <PEOE_VSA9>  (1) 
0.0

>  <SMR_VSA1>  (1) 
19.336826

>  <SMR_VSA10>  (1) 
0.0

>  <SMR_VSA2>  (1) 
0.0

>  <SMR_VSA3>  (1) 
10.140642

>  <SMR_VSA4>  (1) 
0.0

>  <SMR_VSA5>  (1) 
18.566629

>  <SMR_VSA6>  (1) 
6.544756

>  <SMR_VSA7>  (1) 
35.973413

>  <SMR_VSA8>  (1) 
0.0

>  <SMR_VSA9>  (1) 
11.387856

>  <SlogP_VSA1>  (1) 
5.316789

>  <SlogP_VSA10>  (1) 
4.390415

>  <SlogP_VSA11>  (1) 
0.0

>  <SlogP_VSA12>  (1) 
0.0

>  <SlogP_VSA2>  (1) 
27.895892

>  <SlogP_VSA3>  (1) 
0.0

>  <SlogP_VSA4>  (1) 
5.817221

>  <SlogP_VSA5>  (1) 
18.353386

>  <SlogP_VSA6>  (1) 
28.788563

>  <SlogP_VSA7>  (1) 
0.0

>  <SlogP_VSA8>  (1) 
11.387856

>  <SlogP_VSA9>  (1) 
0.0

>  <EState_VSA1>  (1) 
0.0

>  <EState_VSA10>  (1) 
9.496942

>  <EState_VSA11>  (1) 
0.0

>  <EState_VSA2>  (1) 
17.963028

>  <EState_VSA3>  (1) 
30.244158

>  <EState_VSA4>  (1) 
0.0

>  <EState_VSA5>  (1) 
12.132734

>  <EState_VSA6>  (1) 
12.132734

>  <EState_VSA7>  (1) 
5.316789

>  <EState_VSA8>  (1) 
10.140642

>  <EState_VSA9>  (1) 
4.523095

>  <VSA_EState1>  (1) 
17.983612

>  <VSA_EState10>  (1) 
0.0

>  <VSA_EState2>  (1) 
4.284024

>  <VSA_EState3>  (1) 
15.306824

>  <VSA_EState4>  (1) 
0.712912

>  <VSA_EState5>  (1) 
0.653131

>  <VSA_EState6>  (1) 
5.947983

>  <VSA_EState7>  (1) 
0.293133

>  <VSA_EState8>  (1) 
0.651715

>  <VSA_EState9>  (1) 
0.0

>  <FractionCSP3>  (1) 
0.333333

>  <HeavyAtomCount>  (1) 
18

>  <NHOHCount>  (1) 
3

>  <NOCount>  (1) 
5

>  <NumAliphaticCarbocycles>  (1) 
0

>  <NumAliphaticHeterocycles>  (1) 
1

>  <NumAliphaticRings>  (1) 
1

>  <NumAromaticCarbocycles>  (1) 
1

>  <NumAromaticHeterocycles>  (1) 
1

>  <NumAromaticRings>  (1) 
2

>  <NumHAcceptors>  (1) 
4

>  <NumHDonors>  (1) 
2

>  <NumHeteroatoms>  (1) 
6

>  <NumRotatableBonds>  (1) 
2

>  <NumSaturatedCarbocycles>  (1) 
0

>  <NumSaturatedHeterocycles>  (1) 
1

>  <NumSaturatedRings>  (1) 
1

>  <RingCount>  (1) 
3

>  <MolLogP>  (1) 
0.2448

>  <MolMR>  (1) 
59.8492

>  <fr_Al_COO>  (1) 
0

>  <fr_Al_OH>  (1) 
1

>  <fr_Al_OH_noTert>  (1) 
1

>  <fr_ArN>  (1) 
0

>  <fr_Ar_COO>  (1) 
0

>  <fr_Ar_N>  (1) 
2

>  <fr_Ar_NH>  (1) 
0

>  <fr_Ar_OH>  (1) 
0

>  <fr_COO>  (1) 
0

>  <fr_COO2>  (1) 
0

>  <fr_C_O>  (1) 
0

>  <fr_C_O_noCOO>  (1) 
0

>  <fr_C_S>  (1) 
0

>  <fr_HOCCN>  (1) 
0

>  <fr_Imine>  (1) 
0

>  <fr_NH0>  (1) 
2

>  <fr_NH1>  (1) 
0

>  <fr_NH2>  (1) 
1

>  <fr_N_O>  (1) 
0

>  <fr_Ndealkylation1>  (1) 
0

>  <fr_Ndealkylation2>  (1) 
0

>  <fr_Nhpyrrole>  (1) 
0

>  <fr_SH>  (1) 
0

>  <fr_aldehyde>  (1) 
0

>  <fr_alkyl_carbamate>  (1) 
0

>  <fr_alkyl_halide>  (1) 
0

>  <fr_allylic_oxid>  (1) 
0

>  <fr_amide>  (1) 
0

>  <fr_amidine>  (1) 
0

>  <fr_aniline>  (1) 
0

>  <fr_aryl_methyl>  (1) 
0

>  <fr_azide>  (1) 
0

>  <fr_azo>  (1) 
0

>  <fr_barbitur>  (1) 
0

>  <fr_benzene>  (1) 
1

>  <fr_benzodiazepine>  (1) 
0

>  <fr_bicyclic>  (1) 
0

>  <fr_diazo>  (1) 
0

>  <fr_dihydropyridine>  (1) 
0

>  <fr_epoxide>  (1) 
0

>  <fr_ester>  (1) 
0

>  <fr_ether>  (1) 
0

>  <fr_furan>  (1) 
0

>  <fr_guanido>  (1) 
0

>  <fr_halogen>  (1) 
1

>  <fr_hdrzine>  (1) 
0

>  <fr_hdrzone>  (1) 
0

>  <fr_imidazole>  (1) 
0

>  <fr_imide>  (1) 
0

>  <fr_isocyan>  (1) 
0

>  <fr_isothiocyan>  (1) 
0

>  <fr_ketone>  (1) 
0

>  <fr_ketone_Topliss>  (1) 
0

>  <fr_lactam>  (1) 
0

>  <fr_lactone>  (1) 
0

>  <fr_methoxy>  (1) 
0

>  <fr_morpholine>  (1) 
0

>  <fr_nitrile>  (1) 
0

>  <fr_nitro>  (1) 
0

>  <fr_nitro_arom>  (1) 
0

>  <fr_nitro_arom_nonortho>  (1) 
0

>  <fr_nitroso>  (1) 
0

>  <fr_oxazole>  (1) 
0

>  <fr_oxime>  (1) 
0

>  <fr_para_hydroxylation>  (1) 
0

>  <fr_phenol>  (1) 
0

>  <fr_phenol_noOrthoHbond>  (1) 
0

>  <fr_phos_acid>  (1) 
0

>  <fr_phos_ester>  (1) 
0

>  <fr_piperdine>  (1) 
0

>  <fr_piperzine>  (1) 
0

>  <fr_priamide>  (1) 
0

>  <fr_prisulfonamd>  (1) 
0

>  <fr_pyridine>  (1) 
0

>  <fr_quatN>  (1) 
1

>  <fr_sulfide>  (1) 
0

>  <fr_sulfonamd>  (1) 
0

>  <fr_sulfone>  (1) 
0

>  <fr_term_acetylene>  (1) 
0

>  <fr_tetrazole>  (1) 
0

>  <fr_thiazole>  (1) 
0

>  <fr_thiocyan>  (1) 
0

>  <fr_thiophene>  (1) 
0

>  <fr_unbrch_alkane>  (1) 
0

>  <fr_urea>  (1) 
0

>  <NP_Likeness>  (1) 
-1.393853

$$$$
F005
     RDKit          3D

  0  0  0  0  0  0  0  0  0  0999 V3000
M  V30 BEGIN CTAB
M  V30 COUNTS 29 31 0 0 0
M  V30 BEGIN ATOM
M  V30 1 O -18.920000 2.195000 -32.380000 0
M  V30 2 O -14.371000 0.577000 -30.486000 0
M  V30 3 N -12.984000 0.875000 -30.078000 0
M  V30 4 N -9.514000 2.914000 -28.681000 0
M  V30 5 N -11.837000 4.259000 -29.590000 0
M  V30 6 N -17.378000 1.285000 -29.986000 0 CHG=1
M  V30 7 N -14.173000 2.783000 -30.255000 0
M  V30 8 C -9.556000 4.319000 -28.720000 0
M  V30 9 C -10.710000 4.907000 -29.184000 0
M  V30 10 C -10.622000 2.276000 -29.071000 0
M  V30 11 C -18.556000 2.199000 -29.959000 0
M  V30 12 C -16.957000 3.190000 -31.386000 0
M  V30 13 C -18.456000 2.992000 -31.253000 0 CFG=1
M  V30 14 C -15.035000 1.794000 -30.578000 0
M  V30 15 C -12.968000 2.226000 -29.954000 0
M  V30 16 C -11.758000 2.851000 -29.535000 0
M  V30 17 C -16.446000 1.779000 -31.050000 0 CFG=1
M  V30 18 H -18.847000 2.731900 -33.220500 0
M  V30 19 H -17.673900 0.353500 -30.197400 0
M  V30 20 H -8.776600 4.869900 -28.421800 0
M  V30 21 H -10.722500 5.906000 -29.227300 0
M  V30 22 H -10.611600 1.277600 -29.014900 0
M  V30 23 H -18.512000 2.808300 -29.167300 0
M  V30 24 H -19.407900 1.676100 -29.930300 0
M  V30 25 H -16.616700 3.868800 -30.735300 0
M  V30 26 H -16.703000 3.461500 -32.314300 0
M  V30 27 H -18.941000 3.864400 -31.191400 0
M  V30 28 H -16.521800 1.194900 -31.858100 0
M  V30 29 H -16.918000 1.295200 -29.098100 0
M  V30 END ATOM
M  V30 BEGIN BOND
M  V30 1 1 1 13
M  V30 2 1 2 3
M  V30 3 1 2 14
M  V30 4 2 3 15
M  V30 5 2 4 8
M  V30 6 1 4 10
M  V30 7 2 5 9
M  V30 8 1 5 16
M  V30 9 1 6 11
M  V30 10 1 6 17
M  V30 11 2 7 14
M  V30 12 1 7 15
M  V30 13 1 8 9
M  V30 14 2 10 16
M  V30 15 1 11 13
M  V30 16 1 12 13
M  V30 17 1 12 17
M  V30 18 1 14 17
M  V30 19 1 15 16
M  V30 20 1 1 18
M  V30 21 1 6 19
M  V30 22 1 8 20
M  V30 23 1 9 21
M  V30 24 1 10 22
M  V30 25 1 11 23
M  V30 26 1 11 24
M  V30 27 1 12 25
M  V30 28 1 12 26
M  V30 29 1 13 27 CFG=1
M  V30 30 1 17 28 CFG=3
M  V30 31 1 6 29
M  V30 END BOND
M  V30 END CTAB
M  END
>  <Ligand_Instance>  (2) 
005_D_3

>  <Dataset>  (2) 
CF

>  <PDB_ID>  (2) 
None

>  <Chain>  (2) 
D

>  <Resi>  (2) 
3

>  <Num_Resolved_Atoms>  (2) 
17

>  <Num_H_Atoms_ProtBoundConf>  (2) 
12

>  <Pocket>  (2) 
A

>  <Name>  (2) 
(3R,5S)‐5‐[3‐(pyrazin‐2‐yl)‐1,2,4‐oxadiazol‐5‐yl]pyrrolidin‐3‐ol

>  <Num_Not_Resolved_Atoms>  (2) 
0

>  <ATP_Site>  (2) 
True

>  <Peripheral>  (2) 
True

>  <Standardized_SMILES>  (2) 
[H]O[C@]1([H])C([H])([H])[C@@]([H])(C2=NC(C3=NC([H])=C([H])N=C3[H])=NO2)[N+]([H])([H])C1([H])[H]

>  <2D_Mol_H>  (2) 
<rdkit.Chem.rdchem.Mol object at 0x77059d96ac70>

>  <MW>  (2) 
234.239

>  <HBA>  (2) 
6

>  <HBD>  (2) 
2

>  <LogP>  (2) 
-1.1043

>  <NRB>  (2) 
3

>  <TPSA>  (2) 
101.54

>  <Num_Heavy_Atoms>  (2) 
17

>  <Ro5>  (2) 
[True, True, True, True, True, True]

>  <Ro5_Fulfilled>  (2) 
True

>  <Ro3>  (2) 
[True, False, True, True]

>  <Ro3_Fulfilled>  (2) 
True

>  <Fsp3>  (2) 
0.4

>  <Fsp3_0.42>  (2) 
False

>  <Fsp3_0.45>  (2) 
False

>  <Stereogenic_Carbons>  (2) 
2

>  <C_Atoms>  (2) 
10

>  <FCStereo>  (2) 
0.2

>  <SPS>  (2) 
409

>  <nSPS>  (2) 
24.058824

>  <PBF>  (2) 
0.628512

>  <PBF_0.6>  (2) 
True

>  <nPBF>  (2) 
0.036971

>  <nPBF_0.016>  (2) 
True

>  <PMI1>  (2) 
343.491589

>  <PMI2>  (2) 
2644.516929

>  <PMI3>  (2) 
2842.400398

>  <NPR1>  (2) 
0.120846

>  <NPR2>  (2) 
0.930382

>  <Sum_NPR>  (2) 
1.051227

>  <Sum_NPR_1.07>  (2) 
False

>  <Sum_NPR_1.2>  (2) 
False

>  <MaxAbsEStateIndex>  (2) 
9.44129

>  <MaxEStateIndex>  (2) 
9.44129

>  <MinAbsEStateIndex>  (2) 
0.044372

>  <MinEStateIndex>  (2) 
-0.299197

>  <qed>  (2) 
0.683271

>  <MolWt>  (2) 
234.239

>  <HeavyAtomMolWt>  (2) 
222.143

>  <ExactMolWt>  (2) 
234.098551

>  <NumValenceElectrons>  (2) 
88

>  <NumRadicalElectrons>  (2) 
0

>  <MaxPartialCharge>  (2) 
0.284836

>  <MinPartialCharge>  (2) 
-0.386989

>  <MaxAbsPartialCharge>  (2) 
0.386989

>  <MinAbsPartialCharge>  (2) 
0.284836

>  <FpDensityMorgan1>  (2) 
1.411765

>  <FpDensityMorgan2>  (2) 
2.352941

>  <FpDensityMorgan3>  (2) 
3.058824

>  <BCUT2D_MWHI>  (2) 
16.470297

>  <BCUT2D_MWLOW>  (2) 
10.184739

>  <BCUT2D_CHGHI>  (2) 
2.320009

>  <BCUT2D_CHGLO>  (2) 
-1.972308

>  <BCUT2D_LOGPHI>  (2) 
2.185579

>  <BCUT2D_LOGPLOW>  (2) 
-2.822695

>  <BCUT2D_MRHI>  (2) 
5.448595

>  <BCUT2D_MRLOW>  (2) 
-0.680379

>  <AvgIpc>  (2) 
2.98278

>  <BalabanJ>  (2) 
1.835741

>  <BertzCT>  (2) 
500.407181

>  <Chi0>  (2) 
11.664926

>  <Chi0n>  (2) 
9.022631

>  <Chi0v>  (2) 
9.022631

>  <Chi1>  (2) 
8.3265

>  <Chi1n>  (2) 
5.440931

>  <Chi1v>  (2) 
5.440931

>  <Chi2n>  (2) 
4.014298

>  <Chi2v>  (2) 
4.014298

>  <Chi3n>  (2) 
2.769894

>  <Chi3v>  (2) 
2.769894

>  <Chi4n>  (2) 
1.912965

>  <Chi4v>  (2) 
1.912965

>  <HallKierAlpha>  (2) 
-1.86

>  <Ipc>  (2) 
18051.785047

>  <Kappa1>  (2) 
10.303934

>  <Kappa2>  (2) 
4.189533

>  <Kappa3>  (2) 
2.017414

>  <LabuteASA>  (2) 
96.910808

>  <PEOE_VSA1>  (2) 
14.946411

>  <PEOE_VSA10>  (2) 
18.342651

>  <PEOE_VSA11>  (2) 
6.041841

>  <PEOE_VSA12>  (2) 
5.824404

>  <PEOE_VSA13>  (2) 
5.890724

>  <PEOE_VSA14>  (2) 
0.0

>  <PEOE_VSA2>  (2) 
4.983979

>  <PEOE_VSA3>  (2) 
4.983979

>  <PEOE_VSA4>  (2) 
4.983979

>  <PEOE_VSA5>  (2) 
0.0

>  <PEOE_VSA6>  (2) 
5.156663

>  <PEOE_VSA7>  (2) 
0.0

>  <PEOE_VSA8>  (2) 
18.814509

>  <PEOE_VSA9>  (2) 
6.196844

>  <SMR_VSA1>  (2) 
14.946411

>  <SMR_VSA10>  (2) 
0.0

>  <SMR_VSA2>  (2) 
0.0

>  <SMR_VSA3>  (2) 
20.108599

>  <SMR_VSA4>  (2) 
0.0

>  <SMR_VSA5>  (2) 
18.566629

>  <SMR_VSA6>  (2) 
6.544756

>  <SMR_VSA7>  (2) 
24.481255

>  <SMR_VSA8>  (2) 
0.0

>  <SMR_VSA9>  (2) 
11.518332

>  <SlogP_VSA1>  (2) 
5.316789

>  <SlogP_VSA10>  (2) 
0.0

>  <SlogP_VSA11>  (2) 
0.0

>  <SlogP_VSA12>  (2) 
0.0

>  <SlogP_VSA2>  (2) 
37.863849

>  <SlogP_VSA3>  (2) 
0.0

>  <SlogP_VSA4>  (2) 
0.0

>  <SlogP_VSA5>  (2) 
18.353386

>  <SlogP_VSA6>  (2) 
23.113626

>  <SlogP_VSA7>  (2) 
0.0

>  <SlogP_VSA8>  (2) 
11.518332

>  <SlogP_VSA9>  (2) 
0.0

>  <EState_VSA1>  (2) 
0.0

>  <EState_VSA10>  (2) 
5.106527

>  <EState_VSA11>  (2) 
0.0

>  <EState_VSA2>  (2) 
12.145807

>  <EState_VSA3>  (2) 
30.374634

>  <EState_VSA4>  (2) 
0.0

>  <EState_VSA5>  (2) 
0.0

>  <EState_VSA6>  (2) 
18.590531

>  <EState_VSA7>  (2) 
5.316789

>  <EState_VSA8>  (2) 
20.108599

>  <EState_VSA9>  (2) 
4.523095

>  <VSA_EState1>  (2) 
5.180057

>  <VSA_EState10>  (2) 
0.0

>  <VSA_EState2>  (2) 
12.319013

>  <VSA_EState3>  (2) 
15.305746

>  <VSA_EState4>  (2) 
0.584301

>  <VSA_EState5>  (2) 
0.963049

>  <VSA_EState6>  (2) 
0.044372

>  <VSA_EState7>  (2) 
5.096

>  <VSA_EState8>  (2) 
0.67413

>  <VSA_EState9>  (2) 
0.0

>  <FractionCSP3>  (2) 
0.4

>  <HeavyAtomCount>  (2) 
17

>  <NHOHCount>  (2) 
3

>  <NOCount>  (2) 
7

>  <NumAliphaticCarbocycles>  (2) 
0

>  <NumAliphaticHeterocycles>  (2) 
1

>  <NumAliphaticRings>  (2) 
1

>  <NumAromaticCarbocycles>  (2) 
0

>  <NumAromaticHeterocycles>  (2) 
2

>  <NumAromaticRings>  (2) 
2

>  <NumHAcceptors>  (2) 
6

>  <NumHDonors>  (2) 
2

>  <NumHeteroatoms>  (2) 
7

>  <NumRotatableBonds>  (2) 
2

>  <NumSaturatedCarbocycles>  (2) 
0

>  <NumSaturatedHeterocycles>  (2) 
1

>  <NumSaturatedRings>  (2) 
1

>  <RingCount>  (2) 
3

>  <MolLogP>  (2) 
-1.1043

>  <MolMR>  (2) 
55.4812

>  <fr_Al_COO>  (2) 
0

>  <fr_Al_OH>  (2) 
1

>  <fr_Al_OH_noTert>  (2) 
1

>  <fr_ArN>  (2) 
0

>  <fr_Ar_COO>  (2) 
0

>  <fr_Ar_N>  (2) 
4

>  <fr_Ar_NH>  (2) 
0

>  <fr_Ar_OH>  (2) 
0

>  <fr_COO>  (2) 
0

>  <fr_COO2>  (2) 
0

>  <fr_C_O>  (2) 
0

>  <fr_C_O_noCOO>  (2) 
0

>  <fr_C_S>  (2) 
0

>  <fr_HOCCN>  (2) 
0

>  <fr_Imine>  (2) 
0

>  <fr_NH0>  (2) 
4

>  <fr_NH1>  (2) 
0

>  <fr_NH2>  (2) 
1

>  <fr_N_O>  (2) 
0

>  <fr_Ndealkylation1>  (2) 
0

>  <fr_Ndealkylation2>  (2) 
0

>  <fr_Nhpyrrole>  (2) 
0

>  <fr_SH>  (2) 
0

>  <fr_aldehyde>  (2) 
0

>  <fr_alkyl_carbamate>  (2) 
0

>  <fr_alkyl_halide>  (2) 
0

>  <fr_allylic_oxid>  (2) 
0

>  <fr_amide>  (2) 
0

>  <fr_amidine>  (2) 
0

>  <fr_aniline>  (2) 
0

>  <fr_aryl_methyl>  (2) 
0

>  <fr_azide>  (2) 
0

>  <fr_azo>  (2) 
0

>  <fr_barbitur>  (2) 
0

>  <fr_benzene>  (2) 
0

>  <fr_benzodiazepine>  (2) 
0

>  <fr_bicyclic>  (2) 
0

>  <fr_diazo>  (2) 
0

>  <fr_dihydropyridine>  (2) 
0

>  <fr_epoxide>  (2) 
0

>  <fr_ester>  (2) 
0

>  <fr_ether>  (2) 
0

>  <fr_furan>  (2) 
0

>  <fr_guanido>  (2) 
0

>  <fr_halogen>  (2) 
0

>  <fr_hdrzine>  (2) 
0

>  <fr_hdrzone>  (2) 
0

>  <fr_imidazole>  (2) 
0

>  <fr_imide>  (2) 
0

>  <fr_isocyan>  (2) 
0

>  <fr_isothiocyan>  (2) 
0

>  <fr_ketone>  (2) 
0

>  <fr_ketone_Topliss>  (2) 
0

>  <fr_lactam>  (2) 
0

>  <fr_lactone>  (2) 
0

>  <fr_methoxy>  (2) 
0

>  <fr_morpholine>  (2) 
0

>  <fr_nitrile>  (2) 
0

>  <fr_nitro>  (2) 
0

>  <fr_nitro_arom>  (2) 
0

>  <fr_nitro_arom_nonortho>  (2) 
0

>  <fr_nitroso>  (2) 
0

>  <fr_oxazole>  (2) 
0

>  <fr_oxime>  (2) 
0

>  <fr_para_hydroxylation>  (2) 
0

>  <fr_phenol>  (2) 
0

>  <fr_phenol_noOrthoHbond>  (2) 
0

>  <fr_phos_acid>  (2) 
0

>  <fr_phos_ester>  (2) 
0

>  <fr_piperdine>  (2) 
0

>  <fr_piperzine>  (2) 
0

>  <fr_priamide>  (2) 
0

>  <fr_prisulfonamd>  (2) 
0

>  <fr_pyridine>  (2) 
0

>  <fr_quatN>  (2) 
1

>  <fr_sulfide>  (2) 
0

>  <fr_sulfonamd>  (2) 
0

>  <fr_sulfone>  (2) 
0

>  <fr_term_acetylene>  (2) 
0

>  <fr_tetrazole>  (2) 
0

>  <fr_thiazole>  (2) 
0

>  <fr_thiocyan>  (2) 
0

>  <fr_thiophene>  (2) 
0

>  <fr_unbrch_alkane>  (2) 
0

>  <fr_urea>  (2) 
0

>  <NP_Likeness>  (2) 
-1.357471

$$$$
F009
     RDKit          3D

  0  0  0  0  0  0  0  0  0  0999 V3000
M  V30 BEGIN CTAB
M  V30 COUNTS 24 25 0 0 0
M  V30 BEGIN ATOM
M  V30 1 O -17.662000 1.616000 -30.615000 0
M  V30 2 O -10.400000 4.134000 -29.440000 0
M  V30 3 N -16.548000 2.703000 -30.583000 0
M  V30 4 N -15.617000 0.649000 -30.143000 0
M  V30 5 C -9.361000 3.517000 -28.627000 0
M  V30 6 C -17.569000 -0.911000 -30.199000 0
M  V30 7 C -12.679000 4.325000 -29.780000 0
M  V30 8 C -11.804000 2.153000 -29.801000 0
M  V30 9 C -13.909000 3.864000 -30.009000 0
M  V30 10 C -13.049000 1.670000 -30.026000 0
M  V30 11 C -16.944000 0.441000 -30.314000 0
M  V30 12 C -11.617000 3.505000 -29.671000 0
M  V30 13 C -15.410000 1.978000 -30.331000 0
M  V30 14 C -14.104000 2.524000 -30.145000 0
M  V30 15 H -8.568100 4.124700 -28.582100 0
M  V30 16 H -9.711000 3.356900 -27.704000 0
M  V30 17 H -9.090500 2.645800 -29.036700 0
M  V30 18 H -16.864800 -1.586200 -29.979500 0
M  V30 19 H -18.257300 -0.899400 -29.473700 0
M  V30 20 H -18.003300 -1.152400 -31.066800 0
M  V30 21 H -12.541100 5.311000 -29.686300 0
M  V30 22 H -11.026600 1.528000 -29.730200 0
M  V30 23 H -14.680300 4.496400 -30.080100 0
M  V30 24 H -13.194500 0.683800 -30.105000 0
M  V30 END ATOM
M  V30 BEGIN BOND
M  V30 1 1 1 3
M  V30 2 1 1 11
M  V30 3 1 2 5
M  V30 4 1 2 12
M  V30 5 2 3 13
M  V30 6 2 4 11
M  V30 7 1 4 13
M  V30 8 1 6 11
M  V30 9 2 7 9
M  V30 10 1 7 12
M  V30 11 1 8 10
M  V30 12 2 8 12
M  V30 13 1 9 14
M  V30 14 2 10 14
M  V30 15 1 13 14
M  V30 16 1 5 15
M  V30 17 1 5 16
M  V30 18 1 5 17
M  V30 19 1 6 18
M  V30 20 1 6 19
M  V30 21 1 6 20
M  V30 22 1 7 21
M  V30 23 1 8 22
M  V30 24 1 9 23
M  V30 25 1 10 24
M  V30 END BOND
M  V30 END CTAB
M  END
>  <Ligand_Instance>  (3) 
009_B_2

>  <Dataset>  (3) 
CF

>  <PDB_ID>  (3) 
None

>  <Chain>  (3) 
B

>  <Resi>  (3) 
2

>  <Num_Resolved_Atoms>  (3) 
14

>  <Num_H_Atoms_ProtBoundConf>  (3) 
10

>  <Pocket>  (3) 
A

>  <Name>  (3) 
(3R,5S)‐5‐[3‐(4‐methoxyphenyl)‐1,2,4‐oxadiazol‐5‐yl]pyrrolidin‐3‐ol

>  <Num_Not_Resolved_Atoms>  (3) 
5

>  <ATP_Site>  (3) 
True

>  <Peripheral>  (3) 
True

>  <Standardized_SMILES>  (3) 
[H]C1=C([H])C(C2=NOC(C([H])([H])[H])=N2)=C([H])C([H])=C1OC([H])([H])[H]

>  <2D_Mol_H>  (3) 
<rdkit.Chem.rdchem.Mol object at 0x77059d96b290>

>  <MW>  (3) 
190.202

>  <HBA>  (3) 
4

>  <HBD>  (3) 
0

>  <LogP>  (3) 
2.05362

>  <NRB>  (3) 
4

>  <TPSA>  (3) 
48.15

>  <Num_Heavy_Atoms>  (3) 
14

>  <Ro5>  (3) 
[True, True, True, True, True, True]

>  <Ro5_Fulfilled>  (3) 
True

>  <Ro3>  (3) 
[True, False, True, True]

>  <Ro3_Fulfilled>  (3) 
True

>  <Fsp3>  (3) 
0.2

>  <Fsp3_0.42>  (3) 
False

>  <Fsp3_0.45>  (3) 
False

>  <Stereogenic_Carbons>  (3) 
0

>  <C_Atoms>  (3) 
10

>  <FCStereo>  (3) 
0.0

>  <SPS>  (3) 
142

>  <nSPS>  (3) 
10.142857

>  <PBF>  (3) 
0.303545

>  <PBF_0.6>  (3) 
False

>  <nPBF>  (3) 
0.021682

>  <nPBF_0.016>  (3) 
True

>  <PMI1>  (3) 
202.27526

>  <PMI2>  (3) 
1683.542315

>  <PMI3>  (3) 
1864.91499

>  <NPR1>  (3) 
0.108464

>  <NPR2>  (3) 
0.902745

>  <Sum_NPR>  (3) 
1.011208

>  <Sum_NPR_1.07>  (3) 
False

>  <Sum_NPR_1.2>  (3) 
False

>  <MaxAbsEStateIndex>  (3) 
5.045998

>  <MaxEStateIndex>  (3) 
5.045998

>  <MinAbsEStateIndex>  (3) 
0.565572

>  <MinEStateIndex>  (3) 
0.565572

>  <qed>  (3) 
0.726724

>  <MolWt>  (3) 
190.202

>  <HeavyAtomMolWt>  (3) 
180.122

>  <ExactMolWt>  (3) 
190.074228

>  <NumValenceElectrons>  (3) 
72

>  <NumRadicalElectrons>  (3) 
0

>  <MaxPartialCharge>  (3) 
0.223338

>  <MinPartialCharge>  (3) 
-0.496768

>  <MaxAbsPartialCharge>  (3) 
0.496768

>  <MinAbsPartialCharge>  (3) 
0.223338

>  <FpDensityMorgan1>  (3) 
1.214286

>  <FpDensityMorgan2>  (3) 
1.928571

>  <FpDensityMorgan3>  (3) 
2.428571

>  <BCUT2D_MWHI>  (3) 
16.469901

>  <BCUT2D_MWLOW>  (3) 
10.18421

>  <BCUT2D_CHGHI>  (3) 
2.041569

>  <BCUT2D_CHGLO>  (3) 
-1.982468

>  <BCUT2D_LOGPHI>  (3) 
2.186685

>  <BCUT2D_LOGPLOW>  (3) 
-1.834452

>  <BCUT2D_MRHI>  (3) 
5.548824

>  <BCUT2D_MRLOW>  (3) 
0.394047

>  <AvgIpc>  (3) 
2.650989

>  <BalabanJ>  (3) 
2.332222

>  <BertzCT>  (3) 
419.941971

>  <Chi0>  (3) 
9.966255

>  <Chi0n>  (3) 
8.020325

>  <Chi0v>  (3) 
8.020325

>  <Chi1>  (3) 
6.792025

>  <Chi1n>  (3) 
4.241258

>  <Chi1v>  (3) 
4.241258

>  <Chi2n>  (3) 
2.865504

>  <Chi2v>  (3) 
2.865504

>  <Chi3n>  (3) 
1.87579

>  <Chi3v>  (3) 
1.87579

>  <Chi4n>  (3) 
1.156595

>  <Chi4v>  (3) 
1.156595

>  <HallKierAlpha>  (3) 
-1.84

>  <Ipc>  (3) 
2661.593394

>  <Kappa1>  (3) 
8.744806

>  <Kappa2>  (3) 
3.493172

>  <Kappa3>  (3) 
1.589306

>  <LabuteASA>  (3) 
81.516908

>  <PEOE_VSA1>  (3) 
9.259958

>  <PEOE_VSA10>  (3) 
5.749512

>  <PEOE_VSA11>  (3) 
0.0

>  <PEOE_VSA12>  (3) 
11.715128

>  <PEOE_VSA13>  (3) 
0.0

>  <PEOE_VSA14>  (3) 
0.0

>  <PEOE_VSA2>  (3) 
0.0

>  <PEOE_VSA3>  (3) 
0.0

>  <PEOE_VSA4>  (3) 
4.983979

>  <PEOE_VSA5>  (3) 
0.0

>  <PEOE_VSA6>  (3) 
5.156663

>  <PEOE_VSA7>  (3) 
24.265468

>  <PEOE_VSA8>  (3) 
12.487189

>  <PEOE_VSA9>  (3) 
7.109798

>  <SMR_VSA1>  (3) 
9.259958

>  <SMR_VSA10>  (3) 
0.0

>  <SMR_VSA2>  (3) 
0.0

>  <SMR_VSA3>  (3) 
10.140642

>  <SMR_VSA4>  (3) 
0.0

>  <SMR_VSA5>  (3) 
6.923737

>  <SMR_VSA6>  (3) 
7.109798

>  <SMR_VSA7>  (3) 
30.156192

>  <SMR_VSA8>  (3) 
0.0

>  <SMR_VSA9>  (3) 
17.137368

>  <SlogP_VSA1>  (3) 
4.736863

>  <SlogP_VSA10>  (3) 
0.0

>  <SlogP_VSA11>  (3) 
5.749512

>  <SlogP_VSA12>  (3) 
0.0

>  <SlogP_VSA2>  (3) 
17.250439

>  <SlogP_VSA3>  (3) 
0.0

>  <SlogP_VSA4>  (3) 
6.923737

>  <SlogP_VSA5>  (3) 
5.890724

>  <SlogP_VSA6>  (3) 
28.788563

>  <SlogP_VSA7>  (3) 
0.0

>  <SlogP_VSA8>  (3) 
11.387856

>  <SlogP_VSA9>  (3) 
0.0

>  <EState_VSA1>  (3) 
0.0

>  <EState_VSA10>  (3) 
0.0

>  <EState_VSA11>  (3) 
0.0

>  <EState_VSA2>  (3) 
0.0

>  <EState_VSA3>  (3) 
11.715128

>  <EState_VSA4>  (3) 
11.312963

>  <EState_VSA5>  (3) 
0.0

>  <EState_VSA6>  (3) 
14.033535

>  <EState_VSA7>  (3) 
24.265468

>  <EState_VSA8>  (3) 
10.140642

>  <EState_VSA9>  (3) 
9.259958

>  <VSA_EState1>  (3) 
9.929108

>  <VSA_EState10>  (3) 
0.0

>  <VSA_EState2>  (3) 
4.117828

>  <VSA_EState3>  (3) 
3.814588

>  <VSA_EState4>  (3) 
0.91912

>  <VSA_EState5>  (3) 
1.981424

>  <VSA_EState6>  (3) 
7.508241

>  <VSA_EState7>  (3) 
0.0

>  <VSA_EState8>  (3) 
1.763912

>  <VSA_EState9>  (3) 
1.632446

>  <FractionCSP3>  (3) 
0.2

>  <HeavyAtomCount>  (3) 
14

>  <NHOHCount>  (3) 
0

>  <NOCount>  (3) 
4

>  <NumAliphaticCarbocycles>  (3) 
0

>  <NumAliphaticHeterocycles>  (3) 
0

>  <NumAliphaticRings>  (3) 
0

>  <NumAromaticCarbocycles>  (3) 
1

>  <NumAromaticHeterocycles>  (3) 
1

>  <NumAromaticRings>  (3) 
2

>  <NumHAcceptors>  (3) 
4

>  <NumHDonors>  (3) 
0

>  <NumHeteroatoms>  (3) 
4

>  <NumRotatableBonds>  (3) 
2

>  <NumSaturatedCarbocycles>  (3) 
0

>  <NumSaturatedHeterocycles>  (3) 
0

>  <NumSaturatedRings>  (3) 
0

>  <RingCount>  (3) 
2

>  <MolLogP>  (3) 
2.05362

>  <MolMR>  (3) 
51.023

>  <fr_Al_COO>  (3) 
0

>  <fr_Al_OH>  (3) 
0

>  <fr_Al_OH_noTert>  (3) 
0

>  <fr_ArN>  (3) 
0

>  <fr_Ar_COO>  (3) 
0

>  <fr_Ar_N>  (3) 
2

>  <fr_Ar_NH>  (3) 
0

>  <fr_Ar_OH>  (3) 
0

>  <fr_COO>  (3) 
0

>  <fr_COO2>  (3) 
0

>  <fr_C_O>  (3) 
0

>  <fr_C_O_noCOO>  (3) 
0

>  <fr_C_S>  (3) 
0

>  <fr_HOCCN>  (3) 
0

>  <fr_Imine>  (3) 
0

>  <fr_NH0>  (3) 
2

>  <fr_NH1>  (3) 
0

>  <fr_NH2>  (3) 
0

>  <fr_N_O>  (3) 
0

>  <fr_Ndealkylation1>  (3) 
0

>  <fr_Ndealkylation2>  (3) 
0

>  <fr_Nhpyrrole>  (3) 
0

>  <fr_SH>  (3) 
0

>  <fr_aldehyde>  (3) 
0

>  <fr_alkyl_carbamate>  (3) 
0

>  <fr_alkyl_halide>  (3) 
0

>  <fr_allylic_oxid>  (3) 
0

>  <fr_amide>  (3) 
0

>  <fr_amidine>  (3) 
0

>  <fr_aniline>  (3) 
0

>  <fr_aryl_methyl>  (3) 
1

>  <fr_azide>  (3) 
0

>  <fr_azo>  (3) 
0

>  <fr_barbitur>  (3) 
0

>  <fr_benzene>  (3) 
1

>  <fr_benzodiazepine>  (3) 
0

>  <fr_bicyclic>  (3) 
0

>  <fr_diazo>  (3) 
0

>  <fr_dihydropyridine>  (3) 
0

>  <fr_epoxide>  (3) 
0

>  <fr_ester>  (3) 
0

>  <fr_ether>  (3) 
1

>  <fr_furan>  (3) 
0

>  <fr_guanido>  (3) 
0

>  <fr_halogen>  (3) 
0

>  <fr_hdrzine>  (3) 
0

>  <fr_hdrzone>  (3) 
0

>  <fr_imidazole>  (3) 
0

>  <fr_imide>  (3) 
0

>  <fr_isocyan>  (3) 
0

>  <fr_isothiocyan>  (3) 
0

>  <fr_ketone>  (3) 
0

>  <fr_ketone_Topliss>  (3) 
0

>  <fr_lactam>  (3) 
0

>  <fr_lactone>  (3) 
0

>  <fr_methoxy>  (3) 
1

>  <fr_morpholine>  (3) 
0

>  <fr_nitrile>  (3) 
0

>  <fr_nitro>  (3) 
0

>  <fr_nitro_arom>  (3) 
0

>  <fr_nitro_arom_nonortho>  (3) 
0

>  <fr_nitroso>  (3) 
0

>  <fr_oxazole>  (3) 
0

>  <fr_oxime>  (3) 
0

>  <fr_para_hydroxylation>  (3) 
0

>  <fr_phenol>  (3) 
0

>  <fr_phenol_noOrthoHbond>  (3) 
0

>  <fr_phos_acid>  (3) 
0

>  <fr_phos_ester>  (3) 
0

>  <fr_piperdine>  (3) 
0

>  <fr_piperzine>  (3) 
0

>  <fr_priamide>  (3) 
0

>  <fr_prisulfonamd>  (3) 
0

>  <fr_pyridine>  (3) 
0

>  <fr_quatN>  (3) 
0

>  <fr_sulfide>  (3) 
0

>  <fr_sulfonamd>  (3) 
0

>  <fr_sulfone>  (3) 
0

>  <fr_term_acetylene>  (3) 
0

>  <fr_tetrazole>  (3) 
0

>  <fr_thiazole>  (3) 
0

>  <fr_thiocyan>  (3) 
0

>  <fr_thiophene>  (3) 
0

>  <fr_unbrch_alkane>  (3) 
0

>  <fr_urea>  (3) 
0

>  <NP_Likeness>  (3) 
-1.808723

$$$$
F012
     RDKit          3D

  0  0  0  0  0  0  0  0  0  0999 V3000
M  V30 BEGIN CTAB
M  V30 COUNTS 34 36 0 0 0
M  V30 BEGIN ATOM
M  V30 1 O -11.632000 6.336000 -19.106000 0
M  V30 2 N -5.581000 3.750000 -19.993000 0
M  V30 3 N -7.149000 2.031000 -20.007000 0
M  V30 4 N -13.143000 6.052000 -19.110000 0
M  V30 5 N -16.918000 2.873000 -20.660000 0
M  V30 6 N -8.735000 5.838000 -19.236000 0 CHG=1
M  V30 7 N -12.066000 4.268000 -20.044000 0
M  V30 8 C -16.854000 4.240000 -20.558000 0
M  V30 9 C -15.797000 2.106000 -20.411000 0
M  V30 10 C -7.323000 5.685000 -19.640000 0
M  V30 11 C -15.729000 4.893000 -20.230000 0
M  V30 12 C -14.601000 2.657000 -20.079000 0
M  V30 13 C -9.248000 3.418000 -19.675000 0
M  V30 14 C -11.095000 5.158000 -19.702000 0
M  V30 15 C -6.911000 4.271000 -19.814000 0
M  V30 16 C -7.780000 3.245000 -19.830000 0
M  V30 17 C -13.258000 4.802000 -19.665000 0
M  V30 18 C -9.632000 4.894000 -19.961000 0 CFG=1
M  V30 19 C -14.505000 4.123000 -19.946000 0
M  V30 20 H -5.439700 2.765800 -20.099900 0
M  V30 21 H -4.798400 4.372300 -20.010400 0
M  V30 22 H -6.154400 1.993900 -20.104300 0
M  V30 23 H -7.686200 1.188100 -20.038000 0
M  V30 24 H -9.026600 6.774300 -19.431800 0
M  V30 25 H -17.681700 4.772300 -20.735800 0
M  V30 26 H -15.868400 1.110800 -20.477400 0
M  V30 27 H -6.745300 6.099400 -18.936800 0
M  V30 28 H -7.187700 6.163800 -20.507400 0
M  V30 29 H -15.721000 5.891700 -20.178800 0
M  V30 30 H -13.799200 2.078900 -19.927300 0
M  V30 31 H -9.514300 3.180000 -18.740900 0
M  V30 32 H -9.723400 2.819600 -20.319900 0
M  V30 33 H -9.480800 5.046400 -20.937700 0
M  V30 34 H -8.810000 5.664000 -18.254100 0
M  V30 END ATOM
M  V30 BEGIN BOND
M  V30 1 1 1 4
M  V30 2 1 1 14
M  V30 3 1 2 15
M  V30 4 1 3 16
M  V30 5 2 4 17
M  V30 6 2 5 8
M  V30 7 1 5 9
M  V30 8 1 6 10
M  V30 9 1 6 18
M  V30 10 2 7 14
M  V30 11 1 7 17
M  V30 12 1 8 11
M  V30 13 2 9 12
M  V30 14 1 10 15
M  V30 15 2 11 19
M  V30 16 1 12 19
M  V30 17 1 13 16
M  V30 18 1 13 18
M  V30 19 1 14 18
M  V30 20 2 15 16
M  V30 21 1 17 19
M  V30 22 1 2 20
M  V30 23 1 2 21
M  V30 24 1 3 22
M  V30 25 1 3 23
M  V30 26 1 6 24
M  V30 27 1 8 25
M  V30 28 1 9 26
M  V30 29 1 10 27
M  V30 30 1 10 28
M  V30 31 1 11 29
M  V30 32 1 12 30
M  V30 33 1 13 31
M  V30 34 1 13 32
M  V30 35 1 18 33 CFG=3
M  V30 36 1 6 34
M  V30 END BOND
M  V30 END CTAB
M  END
>  <Ligand_Instance>  (4) 
012_B_1

>  <Dataset>  (4) 
CF

>  <PDB_ID>  (4) 
None

>  <Chain>  (4) 
B

>  <Resi>  (4) 
1

>  <Num_Resolved_Atoms>  (4) 
19

>  <Num_H_Atoms_ProtBoundConf>  (4) 
15

>  <Pocket>  (4) 
A

>  <Name>  (4) 
4‐{5‐[(6S)‐3H,4H,5H,6H,7H‐imidazo[4,5‐c]pyridin‐6‐yl]‐1,2,4‐oxadiazol‐3‐yl}pyridine

>  <Num_Not_Resolved_Atoms>  (4) 
1

>  <ATP_Site>  (4) 
True

>  <Peripheral>  (4) 
False

>  <Standardized_SMILES>  (4) 
[H]C1=NC([H])=C([H])C(C2=NOC([C@]3([H])C([H])([H])C(N([H])[H])=C(N([H])[H])C([H])([H])[N+]3([H])[H])=N2)=C1[H]

>  <2D_Mol_H>  (4) 
<rdkit.Chem.rdchem.Mol object at 0x77059d96b370>

>  <MW>  (4) 
259.293

>  <HBA>  (4) 
6

>  <HBD>  (4) 
3

>  <LogP>  (4) 
-0.7312

>  <NRB>  (4) 
4

>  <TPSA>  (4) 
120.46

>  <Num_Heavy_Atoms>  (4) 
19

>  <Ro5>  (4) 
[True, True, True, True, True, True]

>  <Ro5_Fulfilled>  (4) 
True

>  <Ro3>  (4) 
[True, False, True, True]

>  <Ro3_Fulfilled>  (4) 
True

>  <Fsp3>  (4) 
0.25

>  <Fsp3_0.42>  (4) 
False

>  <Fsp3_0.45>  (4) 
False

>  <Stereogenic_Carbons>  (4) 
1

>  <C_Atoms>  (4) 
12

>  <FCStereo>  (4) 
0.083333

>  <SPS>  (4) 
374

>  <nSPS>  (4) 
19.684211

>  <PBF>  (4) 
0.356922

>  <PBF_0.6>  (4) 
False

>  <nPBF>  (4) 
0.018785

>  <nPBF_0.016>  (4) 
True

>  <PMI1>  (4) 
499.029393

>  <PMI2>  (4) 
3394.312067

>  <PMI3>  (4) 
3848.130648

>  <NPR1>  (4) 
0.129681

>  <NPR2>  (4) 
0.882068

>  <Sum_NPR>  (4) 
1.011749

>  <Sum_NPR_1.07>  (4) 
False

>  <Sum_NPR_1.2>  (4) 
False

>  <MaxAbsEStateIndex>  (4) 
5.86042

>  <MaxEStateIndex>  (4) 
5.86042

>  <MinAbsEStateIndex>  (4) 
0.037396

>  <MinEStateIndex>  (4) 
0.037396

>  <qed>  (4) 
0.653491

>  <MolWt>  (4) 
259.293

>  <HeavyAtomMolWt>  (4) 
244.173

>  <ExactMolWt>  (4) 
259.130186

>  <NumValenceElectrons>  (4) 
98

>  <NumRadicalElectrons>  (4) 
0

>  <MaxPartialCharge>  (4) 
0.285106

>  <MinPartialCharge>  (4) 
-0.400265

>  <MaxAbsPartialCharge>  (4) 
0.400265

>  <MinAbsPartialCharge>  (4) 
0.285106

>  <FpDensityMorgan1>  (4) 
1.210526

>  <FpDensityMorgan2>  (4) 
2.0

>  <FpDensityMorgan3>  (4) 
2.736842

>  <BCUT2D_MWHI>  (4) 
16.470003

>  <BCUT2D_MWLOW>  (4) 
10.064372

>  <BCUT2D_CHGHI>  (4) 
2.274359

>  <BCUT2D_CHGLO>  (4) 
-2.182647

>  <BCUT2D_LOGPHI>  (4) 
2.202694

>  <BCUT2D_LOGPLOW>  (4) 
-2.872283

>  <BCUT2D_MRHI>  (4) 
5.521056

>  <BCUT2D_MRLOW>  (4) 
-0.694773

>  <AvgIpc>  (4) 
2.925292

>  <BalabanJ>  (4) 
1.830067

>  <BertzCT>  (4) 
605.691986

>  <Chi0>  (4) 
13.242276

>  <Chi0n>  (4) 
10.282905

>  <Chi0v>  (4) 
10.282905

>  <Chi1>  (4) 
9.237183

>  <Chi1n>  (4) 
6.040896

>  <Chi1v>  (4) 
6.040896

>  <Chi2n>  (4) 
4.493031

>  <Chi2v>  (4) 
4.493031

>  <Chi3n>  (4) 
3.172019

>  <Chi3v>  (4) 
3.172019

>  <Chi4n>  (4) 
2.043847

>  <Chi4v>  (4) 
2.043847

>  <HallKierAlpha>  (4) 
-2.41

>  <Ipc>  (4) 
41749.768898

>  <Kappa1>  (4) 
11.667554

>  <Kappa2>  (4) 
4.693751

>  <Kappa3>  (4) 
2.273155

>  <LabuteASA>  (4) 
109.252047

>  <PEOE_VSA1>  (4) 
21.307218

>  <PEOE_VSA10>  (4) 
6.544756

>  <PEOE_VSA11>  (4) 
6.041841

>  <PEOE_VSA12>  (4) 
5.824404

>  <PEOE_VSA13>  (4) 
5.890724

>  <PEOE_VSA14>  (4) 
0.0

>  <PEOE_VSA2>  (4) 
4.983979

>  <PEOE_VSA3>  (4) 
0.0

>  <PEOE_VSA4>  (4) 
4.983979

>  <PEOE_VSA5>  (4) 
0.0

>  <PEOE_VSA6>  (4) 
5.156663

>  <PEOE_VSA7>  (4) 
12.132734

>  <PEOE_VSA8>  (4) 
23.654178

>  <PEOE_VSA9>  (4) 
12.117861

>  <SMR_VSA1>  (4) 
9.839884

>  <SMR_VSA10>  (4) 
0.0

>  <SMR_VSA2>  (4) 
0.0

>  <SMR_VSA3>  (4) 
15.12462

>  <SMR_VSA4>  (4) 
11.467335

>  <SMR_VSA5>  (4) 
12.462662

>  <SMR_VSA6>  (4) 
6.544756

>  <SMR_VSA7>  (4) 
41.811224

>  <SMR_VSA8>  (4) 
0.0

>  <SMR_VSA9>  (4) 
11.387856

>  <SlogP_VSA1>  (4) 
16.784124

>  <SlogP_VSA10>  (4) 
0.0

>  <SlogP_VSA11>  (4) 
0.0

>  <SlogP_VSA12>  (4) 
0.0

>  <SlogP_VSA2>  (4) 
21.669377

>  <SlogP_VSA3>  (4) 
0.0

>  <SlogP_VSA4>  (4) 
0.0

>  <SlogP_VSA5>  (4) 
18.353386

>  <SlogP_VSA6>  (4) 
40.443595

>  <SlogP_VSA7>  (4) 
0.0

>  <SlogP_VSA8>  (4) 
11.387856

>  <SlogP_VSA9>  (4) 
0.0

>  <EState_VSA1>  (4) 
0.0

>  <EState_VSA10>  (4) 
0.0

>  <EState_VSA11>  (4) 
0.0

>  <EState_VSA2>  (4) 
6.041841

>  <EState_VSA3>  (4) 
30.377746

>  <EState_VSA4>  (4) 
11.260491

>  <EState_VSA5>  (4) 
0.0

>  <EState_VSA6>  (4) 
12.393687

>  <EState_VSA7>  (4) 
12.132734

>  <EState_VSA8>  (4) 
20.441409

>  <EState_VSA9>  (4) 
15.99043

>  <VSA_EState1>  (4) 
5.31037

>  <VSA_EState10>  (4) 
0.0

>  <VSA_EState2>  (4) 
8.364824

>  <VSA_EState3>  (4) 
6.034804

>  <VSA_EState4>  (4) 
13.935323

>  <VSA_EState5>  (4) 
1.13348

>  <VSA_EState6>  (4) 
3.714915

>  <VSA_EState7>  (4) 
4.016728

>  <VSA_EState8>  (4) 
0.656221

>  <VSA_EState9>  (4) 
0.0

>  <FractionCSP3>  (4) 
0.25

>  <HeavyAtomCount>  (4) 
19

>  <NHOHCount>  (4) 
6

>  <NOCount>  (4) 
7

>  <NumAliphaticCarbocycles>  (4) 
0

>  <NumAliphaticHeterocycles>  (4) 
1

>  <NumAliphaticRings>  (4) 
1

>  <NumAromaticCarbocycles>  (4) 
0

>  <NumAromaticHeterocycles>  (4) 
2

>  <NumAromaticRings>  (4) 
2

>  <NumHAcceptors>  (4) 
6

>  <NumHDonors>  (4) 
3

>  <NumHeteroatoms>  (4) 
7

>  <NumRotatableBonds>  (4) 
2

>  <NumSaturatedCarbocycles>  (4) 
0

>  <NumSaturatedHeterocycles>  (4) 
0

>  <NumSaturatedRings>  (4) 
0

>  <RingCount>  (4) 
3

>  <MolLogP>  (4) 
-0.7312

>  <MolMR>  (4) 
67.0802

>  <fr_Al_COO>  (4) 
0

>  <fr_Al_OH>  (4) 
0

>  <fr_Al_OH_noTert>  (4) 
0

>  <fr_ArN>  (4) 
0

>  <fr_Ar_COO>  (4) 
0

>  <fr_Ar_N>  (4) 
3

>  <fr_Ar_NH>  (4) 
0

>  <fr_Ar_OH>  (4) 
0

>  <fr_COO>  (4) 
0

>  <fr_COO2>  (4) 
0

>  <fr_C_O>  (4) 
0

>  <fr_C_O_noCOO>  (4) 
0

>  <fr_C_S>  (4) 
0

>  <fr_HOCCN>  (4) 
0

>  <fr_Imine>  (4) 
0

>  <fr_NH0>  (4) 
3

>  <fr_NH1>  (4) 
0

>  <fr_NH2>  (4) 
3

>  <fr_N_O>  (4) 
0

>  <fr_Ndealkylation1>  (4) 
0

>  <fr_Ndealkylation2>  (4) 
0

>  <fr_Nhpyrrole>  (4) 
0

>  <fr_SH>  (4) 
0

>  <fr_aldehyde>  (4) 
0

>  <fr_alkyl_carbamate>  (4) 
0

>  <fr_alkyl_halide>  (4) 
0

>  <fr_allylic_oxid>  (4) 
0

>  <fr_amide>  (4) 
0

>  <fr_amidine>  (4) 
0

>  <fr_aniline>  (4) 
0

>  <fr_aryl_methyl>  (4) 
0

>  <fr_azide>  (4) 
0

>  <fr_azo>  (4) 
0

>  <fr_barbitur>  (4) 
0

>  <fr_benzene>  (4) 
0

>  <fr_benzodiazepine>  (4) 
0

>  <fr_bicyclic>  (4) 
0

>  <fr_diazo>  (4) 
0

>  <fr_dihydropyridine>  (4) 
0

>  <fr_epoxide>  (4) 
0

>  <fr_ester>  (4) 
0

>  <fr_ether>  (4) 
0

>  <fr_furan>  (4) 
0

>  <fr_guanido>  (4) 
0

>  <fr_halogen>  (4) 
0

>  <fr_hdrzine>  (4) 
0

>  <fr_hdrzone>  (4) 
0

>  <fr_imidazole>  (4) 
0

>  <fr_imide>  (4) 
0

>  <fr_isocyan>  (4) 
0

>  <fr_isothiocyan>  (4) 
0

>  <fr_ketone>  (4) 
0

>  <fr_ketone_Topliss>  (4) 
0

>  <fr_lactam>  (4) 
0

>  <fr_lactone>  (4) 
0

>  <fr_methoxy>  (4) 
0

>  <fr_morpholine>  (4) 
0

>  <fr_nitrile>  (4) 
0

>  <fr_nitro>  (4) 
0

>  <fr_nitro_arom>  (4) 
0

>  <fr_nitro_arom_nonortho>  (4) 
0

>  <fr_nitroso>  (4) 
0

>  <fr_oxazole>  (4) 
0

>  <fr_oxime>  (4) 
0

>  <fr_para_hydroxylation>  (4) 
0

>  <fr_phenol>  (4) 
0

>  <fr_phenol_noOrthoHbond>  (4) 
0

>  <fr_phos_acid>  (4) 
0

>  <fr_phos_ester>  (4) 
0

>  <fr_piperdine>  (4) 
0

>  <fr_piperzine>  (4) 
0

>  <fr_priamide>  (4) 
0

>  <fr_prisulfonamd>  (4) 
0

>  <fr_pyridine>  (4) 
1

>  <fr_quatN>  (4) 
1

>  <fr_sulfide>  (4) 
0

>  <fr_sulfonamd>  (4) 
0

>  <fr_sulfone>  (4) 
0

>  <fr_term_acetylene>  (4) 
0

>  <fr_tetrazole>  (4) 
0

>  <fr_thiazole>  (4) 
0

>  <fr_thiocyan>  (4) 
0

>  <fr_thiophene>  (4) 
0

>  <fr_unbrch_alkane>  (4) 
0

>  <fr_urea>  (4) 
0

>  <NP_Likeness>  (4) 
-1.268541

$$$$
F024
     RDKit          3D

  0  0  0  0  0  0  0  0  0  0999 V3000
M  V30 BEGIN CTAB
M  V30 COUNTS 27 28 0 0 0
M  V30 BEGIN ATOM
M  V30 1 O -10.613000 0.795000 -20.858000 0
M  V30 2 N -16.647000 4.205000 -20.602000 0
M  V30 3 N -16.698000 2.885000 -20.951000 0
M  V30 4 C -15.020000 5.748000 -19.470000 0
M  V30 5 C -15.230000 0.891000 -20.974000 0
M  V30 6 C -11.906000 1.121000 -18.851000 0
M  V30 7 C -13.053000 1.819000 -18.615000 0
M  V30 8 C -12.117000 2.711000 -20.596000 0
M  V30 9 C -11.089000 1.792000 -19.925000 0 CFG=2
M  V30 10 C -15.377000 4.380000 -20.020000 0
M  V30 11 C -15.447000 2.330000 -20.616000 0
M  V30 12 C -13.177000 3.046000 -19.493000 0 CFG=1
M  V30 13 C -14.601000 3.250000 -20.021000 0
M  V30 14 H -11.393400 0.328300 -21.274100 0
M  V30 15 H -17.357500 4.896700 -20.731800 0
M  V30 16 H -14.095100 5.723700 -19.090600 0
M  V30 17 H -15.060900 6.424100 -20.205700 0
M  V30 18 H -15.668700 5.997900 -18.751200 0
M  V30 19 H -14.313200 0.611200 -20.689100 0
M  V30 20 H -15.910800 0.325400 -20.508600 0
M  V30 21 H -15.321300 0.776200 -21.963200 0
M  V30 22 H -11.643200 0.280500 -18.377200 0
M  V30 23 H -13.736900 1.550200 -17.936800 0
M  V30 24 H -12.551700 2.243400 -21.365700 0
M  V30 25 H -11.676100 3.547900 -20.920400 0
M  V30 26 H -10.332400 2.315800 -19.533700 0
M  V30 27 H -12.887700 3.855900 -18.982800 0
M  V30 END ATOM
M  V30 BEGIN BOND
M  V30 1 1 1 9
M  V30 2 1 2 3
M  V30 3 1 2 10
M  V30 4 2 3 11
M  V30 5 1 4 10
M  V30 6 1 5 11
M  V30 7 2 6 7
M  V30 8 1 6 9
M  V30 9 1 7 12
M  V30 10 1 8 9
M  V30 11 1 8 12
M  V30 12 2 10 13
M  V30 13 1 11 13
M  V30 14 1 12 13
M  V30 15 1 1 14
M  V30 16 1 2 15
M  V30 17 1 4 16
M  V30 18 1 4 17
M  V30 19 1 4 18
M  V30 20 1 5 19
M  V30 21 1 5 20
M  V30 22 1 5 21
M  V30 23 1 6 22
M  V30 24 1 7 23
M  V30 25 1 8 24
M  V30 26 1 8 25
M  V30 27 1 9 26 CFG=1
M  V30 28 1 12 27 CFG=1
M  V30 END BOND
M  V30 END CTAB
M  END
>  <Ligand_Instance>  (5) 
024_B_1

>  <Dataset>  (5) 
CF

>  <PDB_ID>  (5) 
None

>  <Chain>  (5) 
B

>  <Resi>  (5) 
1

>  <Num_Resolved_Atoms>  (5) 
13

>  <Num_H_Atoms_ProtBoundConf>  (5) 
14

>  <Pocket>  (5) 
A

>  <Name>  (5) 
(1S,4R)‐4‐(3,5‐dimethyl‐1H‐pyrazol‐4‐yl)cyclopent‐2‐en‐1‐ol

>  <Num_Not_Resolved_Atoms>  (5) 
0

>  <ATP_Site>  (5) 
True

>  <Peripheral>  (5) 
False

>  <Standardized_SMILES>  (5) 
[H]O[C@]1([H])C([H])=C([H])[C@]([H])(C2=C(C([H])([H])[H])N([H])N=C2C([H])([H])[H])C1([H])[H]

>  <2D_Mol_H>  (5) 
<rdkit.Chem.rdchem.Mol object at 0x77059d96b450>

>  <MW>  (5) 
178.235

>  <HBA>  (5) 
2

>  <HBD>  (5) 
2

>  <LogP>  (5) 
1.43094

>  <NRB>  (5) 
4

>  <TPSA>  (5) 
48.91

>  <Num_Heavy_Atoms>  (5) 
13

>  <Ro5>  (5) 
[True, True, True, True, True, True]

>  <Ro5_Fulfilled>  (5) 
True

>  <Ro3>  (5) 
[True, True, True, True]

>  <Ro3_Fulfilled>  (5) 
True

>  <Fsp3>  (5) 
0.5

>  <Fsp3_0.42>  (5) 
True

>  <Fsp3_0.45>  (5) 
True

>  <Stereogenic_Carbons>  (5) 
2

>  <C_Atoms>  (5) 
10

>  <FCStereo>  (5) 
0.2

>  <SPS>  (5) 
351

>  <nSPS>  (5) 
27.0

>  <PBF>  (5) 
0.670742

>  <PBF_0.6>  (5) 
True

>  <nPBF>  (5) 
0.051596

>  <nPBF_0.016>  (5) 
True

>  <PMI1>  (5) 
333.608665

>  <PMI2>  (5) 
998.353588

>  <PMI3>  (5) 
1165.138253

>  <NPR1>  (5) 
0.286325

>  <NPR2>  (5) 
0.856854

>  <Sum_NPR>  (5) 
1.14318

>  <Sum_NPR_1.07>  (5) 
True

>  <Sum_NPR_1.2>  (5) 
False

>  <MaxAbsEStateIndex>  (5) 
9.36277

>  <MaxEStateIndex>  (5) 
9.36277

>  <MinAbsEStateIndex>  (5) 
0.278981

>  <MinEStateIndex>  (5) 
-0.278981

>  <qed>  (5) 
0.639013

>  <MolWt>  (5) 
178.235

>  <HeavyAtomMolWt>  (5) 
164.123

>  <ExactMolWt>  (5) 
178.110613

>  <NumValenceElectrons>  (5) 
70

>  <NumRadicalElectrons>  (5) 
0

>  <MaxPartialCharge>  (5) 
0.072952

>  <MinPartialCharge>  (5) 
-0.389014

>  <MaxAbsPartialCharge>  (5) 
0.389014

>  <MinAbsPartialCharge>  (5) 
0.072952

>  <FpDensityMorgan1>  (5) 
1.461538

>  <FpDensityMorgan2>  (5) 
2.230769

>  <FpDensityMorgan3>  (5) 
2.692308

>  <BCUT2D_MWHI>  (5) 
16.265627

>  <BCUT2D_MWLOW>  (5) 
9.964245

>  <BCUT2D_CHGHI>  (5) 
2.221787

>  <BCUT2D_CHGLO>  (5) 
-2.081802

>  <BCUT2D_LOGPHI>  (5) 
2.311354

>  <BCUT2D_LOGPLOW>  (5) 
-2.017629

>  <BCUT2D_MRHI>  (5) 
5.330864

>  <BCUT2D_MRLOW>  (5) 
0.218051

>  <AvgIpc>  (5) 
2.59506

>  <BalabanJ>  (5) 
2.309238

>  <BertzCT>  (5) 
321.193987

>  <Chi0>  (5) 
9.422285

>  <Chi0n>  (5) 
7.910935

>  <Chi0v>  (5) 
7.910935

>  <Chi1>  (5) 
6.181541

>  <Chi1n>  (5) 
4.560584

>  <Chi1v>  (5) 
4.560584

>  <Chi2n>  (5) 
3.642135

>  <Chi2v>  (5) 
3.642135

>  <Chi3n>  (5) 
2.616892

>  <Chi3v>  (5) 
2.616892

>  <Chi4n>  (5) 
1.999672

>  <Chi4v>  (5) 
1.999672

>  <HallKierAlpha>  (5) 
-1.09

>  <Ipc>  (5) 
1383.166936

>  <Kappa1>  (5) 
8.505675

>  <Kappa2>  (5) 
2.996326

>  <Kappa3>  (5) 
1.395831

>  <LabuteASA>  (5) 
77.482059

>  <PEOE_VSA1>  (5) 
5.106527

>  <PEOE_VSA10>  (5) 
0.0

>  <PEOE_VSA11>  (5) 
0.0

>  <PEOE_VSA12>  (5) 
0.0

>  <PEOE_VSA13>  (5) 
0.0

>  <PEOE_VSA14>  (5) 
0.0

>  <PEOE_VSA2>  (5) 
5.098682

>  <PEOE_VSA3>  (5) 
0.0

>  <PEOE_VSA4>  (5) 
5.098682

>  <PEOE_VSA5>  (5) 
0.0

>  <PEOE_VSA6>  (5) 
12.15204

>  <PEOE_VSA7>  (5) 
20.268296

>  <PEOE_VSA8>  (5) 
17.175286

>  <PEOE_VSA9>  (5) 
11.797894

>  <SMR_VSA1>  (5) 
5.106527

>  <SMR_VSA10>  (5) 
0.0

>  <SMR_VSA2>  (5) 
0.0

>  <SMR_VSA3>  (5) 
10.197364

>  <SMR_VSA4>  (5) 
0.0

>  <SMR_VSA5>  (5) 
32.290168

>  <SMR_VSA6>  (5) 
0.0

>  <SMR_VSA7>  (5) 
29.103348

>  <SMR_VSA8>  (5) 
0.0

>  <SMR_VSA9>  (5) 
0.0

>  <SlogP_VSA1>  (5) 
0.0

>  <SlogP_VSA10>  (5) 
0.0

>  <SlogP_VSA11>  (5) 
0.0

>  <SlogP_VSA12>  (5) 
0.0

>  <SlogP_VSA2>  (5) 
21.407857

>  <SlogP_VSA3>  (5) 
0.0

>  <SlogP_VSA4>  (5) 
13.847474

>  <SlogP_VSA5>  (5) 
29.290035

>  <SlogP_VSA6>  (5) 
12.15204

>  <SlogP_VSA7>  (5) 
0.0

>  <SlogP_VSA8>  (5) 
0.0

>  <SlogP_VSA9>  (5) 
0.0

>  <EState_VSA1>  (5) 
0.0

>  <EState_VSA10>  (5) 
5.106527

>  <EState_VSA11>  (5) 
0.0

>  <EState_VSA2>  (5) 
6.103966

>  <EState_VSA3>  (5) 
5.917906

>  <EState_VSA4>  (5) 
17.808678

>  <EState_VSA5>  (5) 
5.563451

>  <EState_VSA6>  (5) 
0.0

>  <EState_VSA7>  (5) 
19.923495

>  <EState_VSA8>  (5) 
16.273384

>  <EState_VSA9>  (5) 
0.0

>  <VSA_EState1>  (5) 
0.0

>  <VSA_EState10>  (5) 
0.0

>  <VSA_EState2>  (5) 
0.0

>  <VSA_EState3>  (5) 
16.471136

>  <VSA_EState4>  (5) 
3.398426

>  <VSA_EState5>  (5) 
0.341435

>  <VSA_EState6>  (5) 
0.0

>  <VSA_EState7>  (5) 
4.436574

>  <VSA_EState8>  (5) 
4.019096

>  <VSA_EState9>  (5) 
0.0

>  <FractionCSP3>  (5) 
0.5

>  <HeavyAtomCount>  (5) 
13

>  <NHOHCount>  (5) 
2

>  <NOCount>  (5) 
3

>  <NumAliphaticCarbocycles>  (5) 
1

>  <NumAliphaticHeterocycles>  (5) 
0

>  <NumAliphaticRings>  (5) 
1

>  <NumAromaticCarbocycles>  (5) 
0

>  <NumAromaticHeterocycles>  (5) 
1

>  <NumAromaticRings>  (5) 
1

>  <NumHAcceptors>  (5) 
2

>  <NumHDonors>  (5) 
2

>  <NumHeteroatoms>  (5) 
3

>  <NumRotatableBonds>  (5) 
1

>  <NumSaturatedCarbocycles>  (5) 
0

>  <NumSaturatedHeterocycles>  (5) 
0

>  <NumSaturatedRings>  (5) 
0

>  <RingCount>  (5) 
2

>  <MolLogP>  (5) 
1.43094

>  <MolMR>  (5) 
50.5665

>  <fr_Al_COO>  (5) 
0

>  <fr_Al_OH>  (5) 
1

>  <fr_Al_OH_noTert>  (5) 
1

>  <fr_ArN>  (5) 
0

>  <fr_Ar_COO>  (5) 
0

>  <fr_Ar_N>  (5) 
2

>  <fr_Ar_NH>  (5) 
1

>  <fr_Ar_OH>  (5) 
0

>  <fr_COO>  (5) 
0

>  <fr_COO2>  (5) 
0

>  <fr_C_O>  (5) 
0

>  <fr_C_O_noCOO>  (5) 
0

>  <fr_C_S>  (5) 
0

>  <fr_HOCCN>  (5) 
0

>  <fr_Imine>  (5) 
0

>  <fr_NH0>  (5) 
1

>  <fr_NH1>  (5) 
1

>  <fr_NH2>  (5) 
0

>  <fr_N_O>  (5) 
0

>  <fr_Ndealkylation1>  (5) 
0

>  <fr_Ndealkylation2>  (5) 
0

>  <fr_Nhpyrrole>  (5) 
1

>  <fr_SH>  (5) 
0

>  <fr_aldehyde>  (5) 
0

>  <fr_alkyl_carbamate>  (5) 
0

>  <fr_alkyl_halide>  (5) 
0

>  <fr_allylic_oxid>  (5) 
1

>  <fr_amide>  (5) 
0

>  <fr_amidine>  (5) 
0

>  <fr_aniline>  (5) 
0

>  <fr_aryl_methyl>  (5) 
2

>  <fr_azide>  (5) 
0

>  <fr_azo>  (5) 
0

>  <fr_barbitur>  (5) 
0

>  <fr_benzene>  (5) 
0

>  <fr_benzodiazepine>  (5) 
0

>  <fr_bicyclic>  (5) 
0

>  <fr_diazo>  (5) 
0

>  <fr_dihydropyridine>  (5) 
0

>  <fr_epoxide>  (5) 
0

>  <fr_ester>  (5) 
0

>  <fr_ether>  (5) 
0

>  <fr_furan>  (5) 
0

>  <fr_guanido>  (5) 
0

>  <fr_halogen>  (5) 
0

>  <fr_hdrzine>  (5) 
0

>  <fr_hdrzone>  (5) 
0

>  <fr_imidazole>  (5) 
0

>  <fr_imide>  (5) 
0

>  <fr_isocyan>  (5) 
0

>  <fr_isothiocyan>  (5) 
0

>  <fr_ketone>  (5) 
0

>  <fr_ketone_Topliss>  (5) 
0

>  <fr_lactam>  (5) 
0

>  <fr_lactone>  (5) 
0

>  <fr_methoxy>  (5) 
0

>  <fr_morpholine>  (5) 
0

>  <fr_nitrile>  (5) 
0

>  <fr_nitro>  (5) 
0

>  <fr_nitro_arom>  (5) 
0

>  <fr_nitro_arom_nonortho>  (5) 
0

>  <fr_nitroso>  (5) 
0

>  <fr_oxazole>  (5) 
0

>  <fr_oxime>  (5) 
0

>  <fr_para_hydroxylation>  (5) 
0

>  <fr_phenol>  (5) 
0

>  <fr_phenol_noOrthoHbond>  (5) 
0

>  <fr_phos_acid>  (5) 
0

>  <fr_phos_ester>  (5) 
0

>  <fr_piperdine>  (5) 
0

>  <fr_piperzine>  (5) 
0

>  <fr_priamide>  (5) 
0

>  <fr_prisulfonamd>  (5) 
0

>  <fr_pyridine>  (5) 
0

>  <fr_quatN>  (5) 
0

>  <fr_sulfide>  (5) 
0

>  <fr_sulfonamd>  (5) 
0

>  <fr_sulfone>  (5) 
0

>  <fr_term_acetylene>  (5) 
0

>  <fr_tetrazole>  (5) 
0

>  <fr_thiazole>  (5) 
0

>  <fr_thiocyan>  (5) 
0

>  <fr_thiophene>  (5) 
0

>  <fr_unbrch_alkane>  (5) 
0

>  <fr_urea>  (5) 
0

>  <NP_Likeness>  (5) 
0.337358

$$$$
F030
     RDKit          3D

  0  0  0  0  0  0  0  0  0  0999 V3000
M  V30 BEGIN CTAB
M  V30 COUNTS 36 38 0 0 0
M  V30 BEGIN ATOM
M  V30 1 O 5.450000 -0.104000 -28.511000 0
M  V30 2 O 1.752000 0.428000 -25.318000 0
M  V30 3 O 2.343000 0.736000 -28.577000 0
M  V30 4 O 3.971000 -0.663000 -26.886000 0
M  V30 5 N -0.633000 1.029000 -28.036000 0 CHG=1
M  V30 6 N 4.373000 -2.143000 -28.472000 0
M  V30 7 C 3.144000 0.727000 -25.116000 0
M  V30 8 C 1.431000 -0.343000 -28.320000 0
M  V30 9 C 6.171000 -4.496000 -31.454000 0
M  V30 10 C 6.737000 -3.276000 -31.135000 0
M  V30 11 C 5.030000 -4.911000 -30.802000 0
M  V30 12 C 6.165000 -2.467000 -30.165000 0
M  V30 13 C 4.447000 -4.112000 -29.831000 0
M  V30 14 C 4.683000 -0.899000 -28.011000 0
M  V30 15 C 3.718000 0.730000 -26.522000 0 CFG=2
M  V30 16 C 2.587000 1.383000 -27.326000 0 CFG=2
M  V30 17 C 1.328000 1.146000 -26.480000 0 CFG=1
M  V30 18 C 0.424000 0.268000 -27.351000 0 CFG=1
M  V30 19 C 5.014000 -2.885000 -29.502000 0
M  V30 20 H -1.264000 1.406900 -27.358500 0
M  V30 21 H -0.220900 1.774400 -28.560000 0
M  V30 22 H 3.596000 -2.591200 -28.029900 0
M  V30 23 H 3.581600 0.025500 -24.553500 0
M  V30 24 H 3.257600 1.620900 -24.682300 0
M  V30 25 H 1.903600 -1.119200 -27.902600 0
M  V30 26 H 0.981800 -0.640200 -29.162600 0
M  V30 27 H 6.587600 -5.075000 -32.154800 0
M  V30 28 H 7.565300 -2.974500 -31.607300 0
M  V30 29 H 4.620200 -5.794000 -31.030800 0
M  V30 30 H 6.578600 -1.584300 -29.941800 0
M  V30 31 H 3.616600 -4.418400 -29.365700 0
M  V30 32 H 4.555800 1.273900 -26.569300 0
M  V30 33 H 2.755100 2.360400 -27.453900 0
M  V30 34 H 0.880800 2.006900 -26.237300 0
M  V30 35 H 0.013200 -0.452400 -26.792200 0
M  V30 36 H -1.132400 0.422800 -28.655000 0
M  V30 END ATOM
M  V30 BEGIN BOND
M  V30 1 2 1 14
M  V30 2 1 2 7
M  V30 3 1 2 17
M  V30 4 1 3 8
M  V30 5 1 3 16
M  V30 6 1 4 14
M  V30 7 1 4 15
M  V30 8 1 5 18
M  V30 9 1 6 14
M  V30 10 1 6 19
M  V30 11 1 7 15
M  V30 12 1 8 18
M  V30 13 2 9 10
M  V30 14 1 9 11
M  V30 15 1 10 12
M  V30 16 2 11 13
M  V30 17 2 12 19
M  V30 18 1 13 19
M  V30 19 1 15 16
M  V30 20 1 16 17
M  V30 21 1 17 18
M  V30 22 1 5 20
M  V30 23 1 5 21
M  V30 24 1 6 22
M  V30 25 1 7 23
M  V30 26 1 7 24
M  V30 27 1 8 25
M  V30 28 1 8 26
M  V30 29 1 9 27
M  V30 30 1 10 28
M  V30 31 1 11 29
M  V30 32 1 12 30
M  V30 33 1 13 31
M  V30 34 1 15 32 CFG=1
M  V30 35 1 16 33 CFG=3
M  V30 36 1 17 34 CFG=1
M  V30 37 1 18 35 CFG=1
M  V30 38 1 5 36
M  V30 END BOND
M  V30 END CTAB
M  END
>  <Ligand_Instance>  (6) 
030_B_2

>  <Dataset>  (6) 
CF

>  <PDB_ID>  (6) 
None

>  <Chain>  (6) 
B

>  <Resi>  (6) 
2

>  <Num_Resolved_Atoms>  (6) 
19

>  <Num_H_Atoms_ProtBoundConf>  (6) 
17

>  <Pocket>  (6) 
G

>  <Name>  (6) 
(3R,3aS,6S,6aR)‐6‐amino‐hexahydrofuro[3,2‐b]furan‐3‐yl N‐phenylcarbamate

>  <Num_Not_Resolved_Atoms>  (6) 
0

>  <ATP_Site>  (6) 
False

>  <Peripheral>  (6) 
True

>  <Standardized_SMILES>  (6) 
[H]C1=C([H])C([H])=C(N([H])C(=O)O[C@]2([H])C([H])([H])O[C@@]3([H])[C@]2([H])OC([H])([H])[C@]3([H])[N+]([H])([H])[H])C([H])=C1[H]

>  <2D_Mol_H>  (6) 
<rdkit.Chem.rdchem.Mol object at 0x77059d96b530>

>  <MW>  (6) 
265.289

>  <HBA>  (6) 
4

>  <HBD>  (6) 
2

>  <LogP>  (6) 
0.0118

>  <NRB>  (6) 
3

>  <TPSA>  (6) 
84.43

>  <Num_Heavy_Atoms>  (6) 
19

>  <Ro5>  (6) 
[True, True, True, True, True, True]

>  <Ro5_Fulfilled>  (6) 
True

>  <Ro3>  (6) 
[True, False, True, True]

>  <Ro3_Fulfilled>  (6) 
True

>  <Fsp3>  (6) 
0.461538

>  <Fsp3_0.42>  (6) 
True

>  <Fsp3_0.45>  (6) 
True

>  <Stereogenic_Carbons>  (6) 
4

>  <C_Atoms>  (6) 
13

>  <FCStereo>  (6) 
0.307692

>  <SPS>  (6) 
625

>  <nSPS>  (6) 
32.894737

>  <PBF>  (6) 
0.797494

>  <PBF_0.6>  (6) 
True

>  <nPBF>  (6) 
0.041973

>  <nPBF_0.016>  (6) 
True

>  <PMI1>  (6) 
593.25668

>  <PMI2>  (6) 
2629.419844

>  <PMI3>  (6) 
2888.717063

>  <NPR1>  (6) 
0.20537

>  <NPR2>  (6) 
0.910238

>  <Sum_NPR>  (6) 
1.115608

>  <Sum_NPR_1.07>  (6) 
True

>  <Sum_NPR_1.2>  (6) 
False

>  <MaxAbsEStateIndex>  (6) 
11.77845

>  <MaxEStateIndex>  (6) 
11.77845

>  <MinAbsEStateIndex>  (6) 
0.060625

>  <MinEStateIndex>  (6) 
-0.489294

>  <qed>  (6) 
0.788728

>  <MolWt>  (6) 
265.289

>  <HeavyAtomMolWt>  (6) 
248.153

>  <ExactMolWt>  (6) 
265.118283

>  <NumValenceElectrons>  (6) 
102

>  <NumRadicalElectrons>  (6) 
0

>  <MaxPartialCharge>  (6) 
0.411574

>  <MinPartialCharge>  (6) 
-0.440633

>  <MaxAbsPartialCharge>  (6) 
0.440633

>  <MinAbsPartialCharge>  (6) 
0.411574

>  <FpDensityMorgan1>  (6) 
1.210526

>  <FpDensityMorgan2>  (6) 
1.947368

>  <FpDensityMorgan3>  (6) 
2.736842

>  <BCUT2D_MWHI>  (6) 
16.634507

>  <BCUT2D_MWLOW>  (6) 
10.096612

>  <BCUT2D_CHGHI>  (6) 
2.496771

>  <BCUT2D_CHGLO>  (6) 
-2.161055

>  <BCUT2D_LOGPHI>  (6) 
2.269815

>  <BCUT2D_LOGPLOW>  (6) 
-2.662887

>  <BCUT2D_MRHI>  (6) 
5.841396

>  <BCUT2D_MRLOW>  (6) 
-0.430488

>  <AvgIpc>  (6) 
2.955287

>  <BalabanJ>  (6) 
1.558265

>  <BertzCT>  (6) 
453.216256

>  <Chi0>  (6) 
13.242276

>  <Chi0n>  (6) 
10.450466

>  <Chi0v>  (6) 
10.450466

>  <Chi1>  (6) 
9.237183

>  <Chi1n>  (6) 
6.328134

>  <Chi1v>  (6) 
6.328134

>  <Chi2n>  (6) 
4.790763

>  <Chi2v>  (6) 
4.790763

>  <Chi3n>  (6) 
3.389142

>  <Chi3v>  (6) 
3.389142

>  <Chi4n>  (6) 
2.450596

>  <Chi4v>  (6) 
2.450596

>  <HallKierAlpha>  (6) 
-1.63

>  <Ipc>  (6) 
39695.412333

>  <Kappa1>  (6) 
12.406176

>  <Kappa2>  (6) 
5.162343

>  <Kappa3>  (6) 
2.555498

>  <LabuteASA>  (6) 
110.366246

>  <PEOE_VSA1>  (6) 
19.944256

>  <PEOE_VSA10>  (6) 
24.856656

>  <PEOE_VSA11>  (6) 
6.103966

>  <PEOE_VSA12>  (6) 
0.0

>  <PEOE_VSA13>  (6) 
0.0

>  <PEOE_VSA14>  (6) 
6.09324

>  <PEOE_VSA2>  (6) 
5.316789

>  <PEOE_VSA3>  (6) 
4.794537

>  <PEOE_VSA4>  (6) 
0.0

>  <PEOE_VSA5>  (6) 
0.0

>  <PEOE_VSA6>  (6) 
18.199101

>  <PEOE_VSA7>  (6) 
12.132734

>  <PEOE_VSA8>  (6) 
5.687386

>  <PEOE_VSA9>  (6) 
6.606882

>  <SMR_VSA1>  (6) 
24.738794

>  <SMR_VSA10>  (6) 
11.780626

>  <SMR_VSA2>  (6) 
0.0

>  <SMR_VSA3>  (6) 
0.0

>  <SMR_VSA4>  (6) 
0.0

>  <SMR_VSA5>  (6) 
24.35374

>  <SMR_VSA6>  (6) 
18.530553

>  <SMR_VSA7>  (6) 
30.331835

>  <SMR_VSA8>  (6) 
0.0

>  <SMR_VSA9>  (6) 
0.0

>  <SlogP_VSA1>  (6) 
11.050456

>  <SlogP_VSA10>  (6) 
10.481923

>  <SlogP_VSA11>  (6) 
0.0

>  <SlogP_VSA12>  (6) 
0.0

>  <SlogP_VSA2>  (6) 
43.660744

>  <SlogP_VSA3>  (6) 
14.210589

>  <SlogP_VSA4>  (6) 
0.0

>  <SlogP_VSA5>  (6) 
0.0

>  <SlogP_VSA6>  (6) 
30.331835

>  <SlogP_VSA7>  (6) 
0.0

>  <SlogP_VSA8>  (6) 
0.0

>  <SlogP_VSA9>  (6) 
0.0

>  <EState_VSA1>  (6) 
6.09324

>  <EState_VSA10>  (6) 
4.794537

>  <EState_VSA11>  (6) 
0.0

>  <EState_VSA2>  (6) 
24.35374

>  <EState_VSA3>  (6) 
18.90115

>  <EState_VSA4>  (6) 
0.0

>  <EState_VSA5>  (6) 
0.0

>  <EState_VSA6>  (6) 
12.132734

>  <EState_VSA7>  (6) 
18.199101

>  <EState_VSA8>  (6) 
11.050456

>  <EState_VSA9>  (6) 
14.210589

>  <VSA_EState1>  (6) 
16.470396

>  <VSA_EState10>  (6) 
0.0

>  <VSA_EState2>  (6) 
11.77845

>  <VSA_EState3>  (6) 
2.672007

>  <VSA_EState4>  (6) 
4.65481

>  <VSA_EState5>  (6) 
0.0

>  <VSA_EState6>  (6) 
9.27659

>  <VSA_EState7>  (6) 
-1.101321

>  <VSA_EState8>  (6) 
0.915735

>  <VSA_EState9>  (6) 
0.0

>  <FractionCSP3>  (6) 
0.461538

>  <HeavyAtomCount>  (6) 
19

>  <NHOHCount>  (6) 
4

>  <NOCount>  (6) 
6

>  <NumAliphaticCarbocycles>  (6) 
0

>  <NumAliphaticHeterocycles>  (6) 
2

>  <NumAliphaticRings>  (6) 
2

>  <NumAromaticCarbocycles>  (6) 
1

>  <NumAromaticHeterocycles>  (6) 
0

>  <NumAromaticRings>  (6) 
1

>  <NumHAcceptors>  (6) 
4

>  <NumHDonors>  (6) 
2

>  <NumHeteroatoms>  (6) 
6

>  <NumRotatableBonds>  (6) 
2

>  <NumSaturatedCarbocycles>  (6) 
0

>  <NumSaturatedHeterocycles>  (6) 
2

>  <NumSaturatedRings>  (6) 
2

>  <RingCount>  (6) 
3

>  <MolLogP>  (6) 
0.0118

>  <MolMR>  (6) 
66.4898

>  <fr_Al_COO>  (6) 
0

>  <fr_Al_OH>  (6) 
0

>  <fr_Al_OH_noTert>  (6) 
0

>  <fr_ArN>  (6) 
0

>  <fr_Ar_COO>  (6) 
0

>  <fr_Ar_N>  (6) 
0

>  <fr_Ar_NH>  (6) 
0

>  <fr_Ar_OH>  (6) 
0

>  <fr_COO>  (6) 
0

>  <fr_COO2>  (6) 
0

>  <fr_C_O>  (6) 
1

>  <fr_C_O_noCOO>  (6) 
1

>  <fr_C_S>  (6) 
0

>  <fr_HOCCN>  (6) 
0

>  <fr_Imine>  (6) 
0

>  <fr_NH0>  (6) 
0

>  <fr_NH1>  (6) 
1

>  <fr_NH2>  (6) 
0

>  <fr_N_O>  (6) 
0

>  <fr_Ndealkylation1>  (6) 
0

>  <fr_Ndealkylation2>  (6) 
0

>  <fr_Nhpyrrole>  (6) 
0

>  <fr_SH>  (6) 
0

>  <fr_aldehyde>  (6) 
0

>  <fr_alkyl_carbamate>  (6) 
0

>  <fr_alkyl_halide>  (6) 
0

>  <fr_allylic_oxid>  (6) 
0

>  <fr_amide>  (6) 
1

>  <fr_amidine>  (6) 
0

>  <fr_aniline>  (6) 
1

>  <fr_aryl_methyl>  (6) 
0

>  <fr_azide>  (6) 
0

>  <fr_azo>  (6) 
0

>  <fr_barbitur>  (6) 
0

>  <fr_benzene>  (6) 
1

>  <fr_benzodiazepine>  (6) 
0

>  <fr_bicyclic>  (6) 
1

>  <fr_diazo>  (6) 
0

>  <fr_dihydropyridine>  (6) 
0

>  <fr_epoxide>  (6) 
0

>  <fr_ester>  (6) 
0

>  <fr_ether>  (6) 
3

>  <fr_furan>  (6) 
0

>  <fr_guanido>  (6) 
0

>  <fr_halogen>  (6) 
0

>  <fr_hdrzine>  (6) 
0

>  <fr_hdrzone>  (6) 
0

>  <fr_imidazole>  (6) 
0

>  <fr_imide>  (6) 
0

>  <fr_isocyan>  (6) 
0

>  <fr_isothiocyan>  (6) 
0

>  <fr_ketone>  (6) 
0

>  <fr_ketone_Topliss>  (6) 
0

>  <fr_lactam>  (6) 
0

>  <fr_lactone>  (6) 
0

>  <fr_methoxy>  (6) 
0

>  <fr_morpholine>  (6) 
0

>  <fr_nitrile>  (6) 
0

>  <fr_nitro>  (6) 
0

>  <fr_nitro_arom>  (6) 
0

>  <fr_nitro_arom_nonortho>  (6) 
0

>  <fr_nitroso>  (6) 
0

>  <fr_oxazole>  (6) 
0

>  <fr_oxime>  (6) 
0

>  <fr_para_hydroxylation>  (6) 
1

>  <fr_phenol>  (6) 
0

>  <fr_phenol_noOrthoHbond>  (6) 
0

>  <fr_phos_acid>  (6) 
0

>  <fr_phos_ester>  (6) 
0

>  <fr_piperdine>  (6) 
0

>  <fr_piperzine>  (6) 
0

>  <fr_priamide>  (6) 
0

>  <fr_prisulfonamd>  (6) 
0

>  <fr_pyridine>  (6) 
0

>  <fr_quatN>  (6) 
1

>  <fr_sulfide>  (6) 
0

>  <fr_sulfonamd>  (6) 
0

>  <fr_sulfone>  (6) 
0

>  <fr_term_acetylene>  (6) 
0

>  <fr_tetrazole>  (6) 
0

>  <fr_thiazole>  (6) 
0

>  <fr_thiocyan>  (6) 
0

>  <fr_thiophene>  (6) 
0

>  <fr_unbrch_alkane>  (6) 
0

>  <fr_urea>  (6) 
0

>  <NP_Likeness>  (6) 
-0.360399

$$$$
F030
     RDKit          3D

  0  0  0  0  0  0  0  0  0  0999 V3000
M  V30 BEGIN CTAB
M  V30 COUNTS 36 38 0 0 0
M  V30 BEGIN ATOM
M  V30 1 O -25.514000 12.739000 -30.218000 0
M  V30 2 O -24.466000 11.867000 -25.588000 0
M  V30 3 O -23.517000 11.159000 -28.607000 0
M  V30 4 O -25.160000 13.249000 -28.034000 0
M  V30 5 N -21.754000 9.583000 -26.656000 0 CHG=1
M  V30 6 N -24.378000 14.629000 -29.556000 0
M  V30 7 C -25.794000 12.075000 -26.076000 0
M  V30 8 C -22.400000 11.653000 -27.847000 0
M  V30 9 C -23.776000 16.789000 -33.100000 0
M  V30 10 C -23.162000 17.166000 -31.926000 0
M  V30 11 C -24.641000 15.714000 -33.108000 0
M  V30 12 C -23.399000 16.466000 -30.753000 0
M  V30 13 C -24.885000 15.002000 -31.945000 0
M  V30 14 C -25.065000 13.473000 -29.362000 0
M  V30 15 C -25.637000 11.946000 -27.582000 0 CFG=2
M  V30 16 C -24.583000 10.835000 -27.706000 0 CFG=2
M  V30 17 C -23.956000 10.744000 -26.312000 0 CFG=1
M  V30 18 C -22.445000 10.875000 -26.535000 0 CFG=1
M  V30 19 C -24.250000 15.366000 -30.761000 0
M  V30 20 H -21.800000 9.097300 -25.783100 0
M  V30 21 H -22.195000 9.034400 -27.366300 0
M  V30 22 H -23.908200 15.003600 -28.756600 0
M  V30 23 H -26.128800 12.983800 -25.827300 0
M  V30 24 H -26.419300 11.380500 -25.720200 0
M  V30 25 H -22.495400 12.634000 -27.678100 0
M  V30 26 H -21.541500 11.479800 -28.329700 0
M  V30 27 H -23.595300 17.293200 -33.944500 0
M  V30 28 H -22.541100 17.949900 -31.919700 0
M  V30 29 H -25.094500 15.447300 -33.958400 0
M  V30 30 H -22.958500 16.751800 -29.902000 0
M  V30 31 H -25.516900 14.227000 -31.956100 0
M  V30 32 H -26.497300 11.692100 -28.024200 0
M  V30 33 H -25.010500 9.967400 -27.959900 0
M  V30 34 H -24.186900 9.881600 -25.861500 0
M  V30 35 H -22.035200 11.416100 -25.800700 0
M  V30 36 H -20.797000 9.738500 -26.900900 0
M  V30 END ATOM
M  V30 BEGIN BOND
M  V30 1 2 1 14
M  V30 2 1 2 7
M  V30 3 1 2 17
M  V30 4 1 3 8
M  V30 5 1 3 16
M  V30 6 1 4 14
M  V30 7 1 4 15
M  V30 8 1 5 18
M  V30 9 1 6 14
M  V30 10 1 6 19
M  V30 11 1 7 15
M  V30 12 1 8 18
M  V30 13 2 9 10
M  V30 14 1 9 11
M  V30 15 1 10 12
M  V30 16 2 11 13
M  V30 17 2 12 19
M  V30 18 1 13 19
M  V30 19 1 15 16
M  V30 20 1 16 17
M  V30 21 1 17 18
M  V30 22 1 5 20
M  V30 23 1 5 21
M  V30 24 1 6 22
M  V30 25 1 7 23
M  V30 26 1 7 24
M  V30 27 1 8 25
M  V30 28 1 8 26
M  V30 29 1 9 27
M  V30 30 1 10 28
M  V30 31 1 11 29
M  V30 32 1 12 30
M  V30 33 1 13 31
M  V30 34 1 15 32 CFG=3
M  V30 35 1 16 33 CFG=3
M  V30 36 1 17 34 CFG=1
M  V30 37 1 18 35 CFG=1
M  V30 38 1 5 36
M  V30 END BOND
M  V30 END CTAB
M  END
>  <Ligand_Instance>  (7) 
030_B_3

>  <Dataset>  (7) 
CF

>  <PDB_ID>  (7) 
None

>  <Chain>  (7) 
B

>  <Resi>  (7) 
3

>  <Num_Resolved_Atoms>  (7) 
19

>  <Num_H_Atoms_ProtBoundConf>  (7) 
17

>  <Pocket>  (7) 
X

>  <Name>  (7) 
(3R,3aS,6S,6aR)‐6‐amino‐hexahydrofuro[3,2‐b]furan‐3‐yl N‐phenylcarbamate

>  <Num_Not_Resolved_Atoms>  (7) 
0

>  <ATP_Site>  (7) 
False

>  <Peripheral>  (7) 
True

>  <Standardized_SMILES>  (7) 
[H]C1=C([H])C([H])=C(N([H])C(=O)O[C@]2([H])C([H])([H])O[C@@]3([H])[C@]2([H])OC([H])([H])[C@]3([H])[N+]([H])([H])[H])C([H])=C1[H]

>  <2D_Mol_H>  (7) 
<rdkit.Chem.rdchem.Mol object at 0x77059d96b610>

>  <MW>  (7) 
265.289

>  <HBA>  (7) 
4

>  <HBD>  (7) 
2

>  <LogP>  (7) 
0.0118

>  <NRB>  (7) 
3

>  <TPSA>  (7) 
84.43

>  <Num_Heavy_Atoms>  (7) 
19

>  <Ro5>  (7) 
[True, True, True, True, True, True]

>  <Ro5_Fulfilled>  (7) 
True

>  <Ro3>  (7) 
[True, False, True, True]

>  <Ro3_Fulfilled>  (7) 
True

>  <Fsp3>  (7) 
0.461538

>  <Fsp3_0.42>  (7) 
True

>  <Fsp3_0.45>  (7) 
True

>  <Stereogenic_Carbons>  (7) 
4

>  <C_Atoms>  (7) 
13

>  <FCStereo>  (7) 
0.307692

>  <SPS>  (7) 
625

>  <nSPS>  (7) 
32.894737

>  <PBF>  (7) 
0.881397

>  <PBF_0.6>  (7) 
True

>  <nPBF>  (7) 
0.046389

>  <nPBF_0.016>  (7) 
True

>  <PMI1>  (7) 
562.592968

>  <PMI2>  (7) 
2809.03498

>  <PMI3>  (7) 
2980.87016

>  <NPR1>  (7) 
0.188734

>  <NPR2>  (7) 
0.942354

>  <Sum_NPR>  (7) 
1.131088

>  <Sum_NPR_1.07>  (7) 
True

>  <Sum_NPR_1.2>  (7) 
False

>  <MaxAbsEStateIndex>  (7) 
11.77845

>  <MaxEStateIndex>  (7) 
11.77845

>  <MinAbsEStateIndex>  (7) 
0.060625

>  <MinEStateIndex>  (7) 
-0.489294

>  <qed>  (7) 
0.788728

>  <MolWt>  (7) 
265.289

>  <HeavyAtomMolWt>  (7) 
248.153

>  <ExactMolWt>  (7) 
265.118283

>  <NumValenceElectrons>  (7) 
102

>  <NumRadicalElectrons>  (7) 
0

>  <MaxPartialCharge>  (7) 
0.411574

>  <MinPartialCharge>  (7) 
-0.440633

>  <MaxAbsPartialCharge>  (7) 
0.440633

>  <MinAbsPartialCharge>  (7) 
0.411574

>  <FpDensityMorgan1>  (7) 
1.210526

>  <FpDensityMorgan2>  (7) 
1.947368

>  <FpDensityMorgan3>  (7) 
2.736842

>  <BCUT2D_MWHI>  (7) 
16.634507

>  <BCUT2D_MWLOW>  (7) 
10.096612

>  <BCUT2D_CHGHI>  (7) 
2.496771

>  <BCUT2D_CHGLO>  (7) 
-2.161055

>  <BCUT2D_LOGPHI>  (7) 
2.269815

>  <BCUT2D_LOGPLOW>  (7) 
-2.662887

>  <BCUT2D_MRHI>  (7) 
5.841396

>  <BCUT2D_MRLOW>  (7) 
-0.430488

>  <AvgIpc>  (7) 
2.955287

>  <BalabanJ>  (7) 
1.558265

>  <BertzCT>  (7) 
453.216256

>  <Chi0>  (7) 
13.242276

>  <Chi0n>  (7) 
10.450466

>  <Chi0v>  (7) 
10.450466

>  <Chi1>  (7) 
9.237183

>  <Chi1n>  (7) 
6.328134

>  <Chi1v>  (7) 
6.328134

>  <Chi2n>  (7) 
4.790763

>  <Chi2v>  (7) 
4.790763

>  <Chi3n>  (7) 
3.389142

>  <Chi3v>  (7) 
3.389142

>  <Chi4n>  (7) 
2.450596

>  <Chi4v>  (7) 
2.450596

>  <HallKierAlpha>  (7) 
-1.63

>  <Ipc>  (7) 
39695.412333

>  <Kappa1>  (7) 
12.406176

>  <Kappa2>  (7) 
5.162343

>  <Kappa3>  (7) 
2.555498

>  <LabuteASA>  (7) 
110.366246

>  <PEOE_VSA1>  (7) 
19.944256

>  <PEOE_VSA10>  (7) 
24.856656

>  <PEOE_VSA11>  (7) 
6.103966

>  <PEOE_VSA12>  (7) 
0.0

>  <PEOE_VSA13>  (7) 
0.0

>  <PEOE_VSA14>  (7) 
6.09324

>  <PEOE_VSA2>  (7) 
5.316789

>  <PEOE_VSA3>  (7) 
4.794537

>  <PEOE_VSA4>  (7) 
0.0

>  <PEOE_VSA5>  (7) 
0.0

>  <PEOE_VSA6>  (7) 
18.199101

>  <PEOE_VSA7>  (7) 
12.132734

>  <PEOE_VSA8>  (7) 
5.687386

>  <PEOE_VSA9>  (7) 
6.606882

>  <SMR_VSA1>  (7) 
24.738794

>  <SMR_VSA10>  (7) 
11.780626

>  <SMR_VSA2>  (7) 
0.0

>  <SMR_VSA3>  (7) 
0.0

>  <SMR_VSA4>  (7) 
0.0

>  <SMR_VSA5>  (7) 
24.35374

>  <SMR_VSA6>  (7) 
18.530553

>  <SMR_VSA7>  (7) 
30.331835

>  <SMR_VSA8>  (7) 
0.0

>  <SMR_VSA9>  (7) 
0.0

>  <SlogP_VSA1>  (7) 
11.050456

>  <SlogP_VSA10>  (7) 
10.481923

>  <SlogP_VSA11>  (7) 
0.0

>  <SlogP_VSA12>  (7) 
0.0

>  <SlogP_VSA2>  (7) 
43.660744

>  <SlogP_VSA3>  (7) 
14.210589

>  <SlogP_VSA4>  (7) 
0.0

>  <SlogP_VSA5>  (7) 
0.0

>  <SlogP_VSA6>  (7) 
30.331835

>  <SlogP_VSA7>  (7) 
0.0

>  <SlogP_VSA8>  (7) 
0.0

>  <SlogP_VSA9>  (7) 
0.0

>  <EState_VSA1>  (7) 
6.09324

>  <EState_VSA10>  (7) 
4.794537

>  <EState_VSA11>  (7) 
0.0

>  <EState_VSA2>  (7) 
24.35374

>  <EState_VSA3>  (7) 
18.90115

>  <EState_VSA4>  (7) 
0.0

>  <EState_VSA5>  (7) 
0.0

>  <EState_VSA6>  (7) 
12.132734

>  <EState_VSA7>  (7) 
18.199101

>  <EState_VSA8>  (7) 
11.050456

>  <EState_VSA9>  (7) 
14.210589

>  <VSA_EState1>  (7) 
16.470396

>  <VSA_EState10>  (7) 
0.0

>  <VSA_EState2>  (7) 
11.77845

>  <VSA_EState3>  (7) 
2.672007

>  <VSA_EState4>  (7) 
4.65481

>  <VSA_EState5>  (7) 
0.0

>  <VSA_EState6>  (7) 
9.27659

>  <VSA_EState7>  (7) 
-1.101321

>  <VSA_EState8>  (7) 
0.915735

>  <VSA_EState9>  (7) 
0.0

>  <FractionCSP3>  (7) 
0.461538

>  <HeavyAtomCount>  (7) 
19

>  <NHOHCount>  (7) 
4

>  <NOCount>  (7) 
6

>  <NumAliphaticCarbocycles>  (7) 
0

>  <NumAliphaticHeterocycles>  (7) 
2

>  <NumAliphaticRings>  (7) 
2

>  <NumAromaticCarbocycles>  (7) 
1

>  <NumAromaticHeterocycles>  (7) 
0

>  <NumAromaticRings>  (7) 
1

>  <NumHAcceptors>  (7) 
4

>  <NumHDonors>  (7) 
2

>  <NumHeteroatoms>  (7) 
6

>  <NumRotatableBonds>  (7) 
2

>  <NumSaturatedCarbocycles>  (7) 
0

>  <NumSaturatedHeterocycles>  (7) 
2

>  <NumSaturatedRings>  (7) 
2

>  <RingCount>  (7) 
3

>  <MolLogP>  (7) 
0.0118

>  <MolMR>  (7) 
66.4898

>  <fr_Al_COO>  (7) 
0

>  <fr_Al_OH>  (7) 
0

>  <fr_Al_OH_noTert>  (7) 
0

>  <fr_ArN>  (7) 
0

>  <fr_Ar_COO>  (7) 
0

>  <fr_Ar_N>  (7) 
0

>  <fr_Ar_NH>  (7) 
0

>  <fr_Ar_OH>  (7) 
0

>  <fr_COO>  (7) 
0

>  <fr_COO2>  (7) 
0

>  <fr_C_O>  (7) 
1

>  <fr_C_O_noCOO>  (7) 
1

>  <fr_C_S>  (7) 
0

>  <fr_HOCCN>  (7) 
0

>  <fr_Imine>  (7) 
0

>  <fr_NH0>  (7) 
0

>  <fr_NH1>  (7) 
1

>  <fr_NH2>  (7) 
0

>  <fr_N_O>  (7) 
0

>  <fr_Ndealkylation1>  (7) 
0

>  <fr_Ndealkylation2>  (7) 
0

>  <fr_Nhpyrrole>  (7) 
0

>  <fr_SH>  (7) 
0

>  <fr_aldehyde>  (7) 
0

>  <fr_alkyl_carbamate>  (7) 
0

>  <fr_alkyl_halide>  (7) 
0

>  <fr_allylic_oxid>  (7) 
0

>  <fr_amide>  (7) 
1

>  <fr_amidine>  (7) 
0

>  <fr_aniline>  (7) 
1

>  <fr_aryl_methyl>  (7) 
0

>  <fr_azide>  (7) 
0

>  <fr_azo>  (7) 
0

>  <fr_barbitur>  (7) 
0

>  <fr_benzene>  (7) 
1

>  <fr_benzodiazepine>  (7) 
0

>  <fr_bicyclic>  (7) 
1

>  <fr_diazo>  (7) 
0

>  <fr_dihydropyridine>  (7) 
0

>  <fr_epoxide>  (7) 
0

>  <fr_ester>  (7) 
0

>  <fr_ether>  (7) 
3

>  <fr_furan>  (7) 
0

>  <fr_guanido>  (7) 
0

>  <fr_halogen>  (7) 
0

>  <fr_hdrzine>  (7) 
0

>  <fr_hdrzone>  (7) 
0

>  <fr_imidazole>  (7) 
0

>  <fr_imide>  (7) 
0

>  <fr_isocyan>  (7) 
0

>  <fr_isothiocyan>  (7) 
0

>  <fr_ketone>  (7) 
0

>  <fr_ketone_Topliss>  (7) 
0

>  <fr_lactam>  (7) 
0

>  <fr_lactone>  (7) 
0

>  <fr_methoxy>  (7) 
0

>  <fr_morpholine>  (7) 
0

>  <fr_nitrile>  (7) 
0

>  <fr_nitro>  (7) 
0

>  <fr_nitro_arom>  (7) 
0

>  <fr_nitro_arom_nonortho>  (7) 
0

>  <fr_nitroso>  (7) 
0

>  <fr_oxazole>  (7) 
0

>  <fr_oxime>  (7) 
0

>  <fr_para_hydroxylation>  (7) 
1

>  <fr_phenol>  (7) 
0

>  <fr_phenol_noOrthoHbond>  (7) 
0

>  <fr_phos_acid>  (7) 
0

>  <fr_phos_ester>  (7) 
0

>  <fr_piperdine>  (7) 
0

>  <fr_piperzine>  (7) 
0

>  <fr_priamide>  (7) 
0

>  <fr_prisulfonamd>  (7) 
0

>  <fr_pyridine>  (7) 
0

>  <fr_quatN>  (7) 
1

>  <fr_sulfide>  (7) 
0

>  <fr_sulfonamd>  (7) 
0

>  <fr_sulfone>  (7) 
0

>  <fr_term_acetylene>  (7) 
0

>  <fr_tetrazole>  (7) 
0

>  <fr_thiazole>  (7) 
0

>  <fr_thiocyan>  (7) 
0

>  <fr_thiophene>  (7) 
0

>  <fr_unbrch_alkane>  (7) 
0

>  <fr_urea>  (7) 
0

>  <NP_Likeness>  (7) 
-0.360399

$$$$
F032
     RDKit          3D

  0  0  0  0  0  0  0  0  0  0999 V3000
M  V30 BEGIN CTAB
M  V30 COUNTS 36 38 0 0 0
M  V30 BEGIN ATOM
M  V30 1 F -16.636000 2.215000 -20.501000 0
M  V30 2 O -12.311000 1.161000 -18.739000 0
M  V30 3 O -7.472000 0.819000 -17.103000 0
M  V30 4 O -8.314000 1.601000 -20.104000 0
M  V30 5 O -10.392000 2.382000 -18.496000 0
M  V30 6 N -5.876000 -0.421000 -20.282000 0 CHG=1
M  V30 7 N -12.268000 3.485000 -18.939000 0
M  V30 8 C -8.642000 1.668000 -16.978000 0
M  V30 9 C -6.927000 1.860000 -19.794000 0
M  V30 10 C -15.122000 5.429000 -20.037000 0
M  V30 11 C -16.035000 4.471000 -20.350000 0
M  V30 12 C -13.891000 5.083000 -19.577000 0
M  V30 13 C -14.494000 2.808000 -19.697000 0
M  V30 14 C -11.723000 2.238000 -18.729000 0
M  V30 15 C -15.711000 3.165000 -20.172000 0
M  V30 16 C -9.662000 1.223000 -18.030000 0 CFG=2
M  V30 17 C -8.748000 0.654000 -19.102000 0 CFG=2
M  V30 18 C -7.516000 0.141000 -18.367000 0 CFG=1
M  V30 19 C -6.346000 0.561000 -19.261000 0 CFG=1
M  V30 20 C -13.558000 3.766000 -19.399000 0
M  V30 21 H -5.515600 -1.232800 -19.822600 0
M  V30 22 H -6.641500 -0.682800 -20.869800 0
M  V30 23 H -11.680800 4.270200 -18.742300 0
M  V30 24 H -8.387400 2.622300 -17.134200 0
M  V30 25 H -9.034300 1.573100 -16.063100 0
M  V30 26 H -6.857300 2.578000 -19.101400 0
M  V30 27 H -6.437200 2.143500 -20.618400 0
M  V30 28 H -15.358100 6.394600 -20.146100 0
M  V30 29 H -16.933800 4.725500 -20.706800 0
M  V30 30 H -13.222200 5.796000 -19.366500 0
M  V30 31 H -14.276400 1.841200 -19.562800 0
M  V30 32 H -10.278900 0.524300 -17.667700 0
M  V30 33 H -9.206000 -0.113100 -19.551200 0
M  V30 34 H -7.547800 -0.851500 -18.248600 0
M  V30 35 H -5.571500 0.787900 -18.670500 0
M  V30 36 H -5.156000 -0.005300 -20.837700 0
M  V30 END ATOM
M  V30 BEGIN BOND
M  V30 1 1 1 15
M  V30 2 2 2 14
M  V30 3 1 3 8
M  V30 4 1 3 18
M  V30 5 1 4 9
M  V30 6 1 4 17
M  V30 7 1 5 14
M  V30 8 1 5 16
M  V30 9 1 6 19
M  V30 10 1 7 14
M  V30 11 1 7 20
M  V30 12 1 8 16
M  V30 13 1 9 19
M  V30 14 2 10 11
M  V30 15 1 10 12
M  V30 16 1 11 15
M  V30 17 2 12 20
M  V30 18 2 13 15
M  V30 19 1 13 20
M  V30 20 1 16 17
M  V30 21 1 17 18
M  V30 22 1 18 19
M  V30 23 1 6 21
M  V30 24 1 6 22
M  V30 25 1 7 23
M  V30 26 1 8 24
M  V30 27 1 8 25
M  V30 28 1 9 26
M  V30 29 1 9 27
M  V30 30 1 10 28
M  V30 31 1 11 29
M  V30 32 1 12 30
M  V30 33 1 13 31
M  V30 34 1 16 32 CFG=1
M  V30 35 1 17 33 CFG=3
M  V30 36 1 18 34 CFG=1
M  V30 37 1 19 35 CFG=1
M  V30 38 1 6 36
M  V30 END BOND
M  V30 END CTAB
M  END
>  <Ligand_Instance>  (8) 
032_B_1

>  <Dataset>  (8) 
CF

>  <PDB_ID>  (8) 
None

>  <Chain>  (8) 
B

>  <Resi>  (8) 
1

>  <Num_Resolved_Atoms>  (8) 
20

>  <Num_H_Atoms_ProtBoundConf>  (8) 
16

>  <Pocket>  (8) 
A

>  <Name>  (8) 
(3R,3aS,6S,6aR)‐6‐amino‐hexahydrofuro[3,2‐b]furan‐3‐yl N‐(3‐fluorophenyl)carbamate

>  <Num_Not_Resolved_Atoms>  (8) 
0

>  <ATP_Site>  (8) 
True

>  <Peripheral>  (8) 
True

>  <Standardized_SMILES>  (8) 
[H]C1=C([H])C(F)=C([H])C(N([H])C(=O)O[C@]2([H])C([H])([H])O[C@@]3([H])[C@]2([H])OC([H])([H])[C@]3([H])[N+]([H])([H])[H])=C1[H]

>  <2D_Mol_H>  (8) 
<rdkit.Chem.rdchem.Mol object at 0x77059d96b6f0>

>  <MW>  (8) 
283.279

>  <HBA>  (8) 
4

>  <HBD>  (8) 
2

>  <LogP>  (8) 
0.1509

>  <NRB>  (8) 
3

>  <TPSA>  (8) 
84.43

>  <Num_Heavy_Atoms>  (8) 
20

>  <Ro5>  (8) 
[True, True, True, True, True, True]

>  <Ro5_Fulfilled>  (8) 
True

>  <Ro3>  (8) 
[True, False, True, True]

>  <Ro3_Fulfilled>  (8) 
True

>  <Fsp3>  (8) 
0.461538

>  <Fsp3_0.42>  (8) 
True

>  <Fsp3_0.45>  (8) 
True

>  <Stereogenic_Carbons>  (8) 
4

>  <C_Atoms>  (8) 
13

>  <FCStereo>  (8) 
0.307692

>  <SPS>  (8) 
638

>  <nSPS>  (8) 
31.9

>  <PBF>  (8) 
0.913333

>  <PBF_0.6>  (8) 
True

>  <nPBF>  (8) 
0.045667

>  <nPBF_0.016>  (8) 
True

>  <PMI1>  (8) 
520.84875

>  <PMI2>  (8) 
4198.594107

>  <PMI3>  (8) 
4236.526979

>  <NPR1>  (8) 
0.122942

>  <NPR2>  (8) 
0.991046

>  <Sum_NPR>  (8) 
1.113989

>  <Sum_NPR_1.07>  (8) 
True

>  <Sum_NPR_1.2>  (8) 
False

>  <MaxAbsEStateIndex>  (8) 
13.002593

>  <MaxEStateIndex>  (8) 
13.002593

>  <MinAbsEStateIndex>  (8) 
0.055445

>  <MinEStateIndex>  (8) 
-0.651887

>  <qed>  (8) 
0.808966

>  <MolWt>  (8) 
283.279

>  <HeavyAtomMolWt>  (8) 
267.151

>  <ExactMolWt>  (8) 
283.108862

>  <NumValenceElectrons>  (8) 
108

>  <NumRadicalElectrons>  (8) 
0

>  <MaxPartialCharge>  (8) 
0.411576

>  <MinPartialCharge>  (8) 
-0.440633

>  <MaxAbsPartialCharge>  (8) 
0.440633

>  <MinAbsPartialCharge>  (8) 
0.411576

>  <FpDensityMorgan1>  (8) 
1.35

>  <FpDensityMorgan2>  (8) 
2.15

>  <FpDensityMorgan3>  (8) 
2.95

>  <BCUT2D_MWHI>  (8) 
19.142146

>  <BCUT2D_MWLOW>  (8) 
10.096604

>  <BCUT2D_CHGHI>  (8) 
2.496872

>  <BCUT2D_CHGLO>  (8) 
-2.16162

>  <BCUT2D_LOGPHI>  (8) 
2.270487

>  <BCUT2D_LOGPLOW>  (8) 
-2.662887

>  <BCUT2D_MRHI>  (8) 
5.841879

>  <BCUT2D_MRLOW>  (8) 
-0.430488

>  <AvgIpc>  (8) 
2.942364

>  <BalabanJ>  (8) 
1.570788

>  <BertzCT>  (8) 
512.899453

>  <Chi0>  (8) 
14.11252

>  <Chi0n>  (8) 
10.75108

>  <Chi0v>  (8) 
10.75108

>  <Chi1>  (8) 
9.63103

>  <Chi1n>  (8) 
6.4278

>  <Chi1v>  (8) 
6.4278

>  <Chi2n>  (8) 
4.935085

>  <Chi2v>  (8) 
4.935085

>  <Chi3n>  (8) 
3.439971

>  <Chi3v>  (8) 
3.439971

>  <Chi4n>  (8) 
2.495345

>  <Chi4v>  (8) 
2.495345

>  <HallKierAlpha>  (8) 
-1.7

>  <Ipc>  (8) 
55107.543562

>  <Kappa1>  (8) 
13.290803

>  <Kappa2>  (8) 
5.354095

>  <Kappa3>  (8) 
2.601195

>  <LabuteASA>  (8) 
114.531782

>  <PEOE_VSA1>  (8) 
19.944256

>  <PEOE_VSA10>  (8) 
30.673876

>  <PEOE_VSA11>  (8) 
6.103966

>  <PEOE_VSA12>  (8) 
0.0

>  <PEOE_VSA13>  (8) 
0.0

>  <PEOE_VSA14>  (8) 
6.09324

>  <PEOE_VSA2>  (8) 
5.316789

>  <PEOE_VSA3>  (8) 
9.184952

>  <PEOE_VSA4>  (8) 
0.0

>  <PEOE_VSA5>  (8) 
0.0

>  <PEOE_VSA6>  (8) 
6.066367

>  <PEOE_VSA7>  (8) 
18.199101

>  <PEOE_VSA8>  (8) 
5.687386

>  <PEOE_VSA9>  (8) 
6.606882

>  <SMR_VSA1>  (8) 
29.129209

>  <SMR_VSA10>  (8) 
11.780626

>  <SMR_VSA2>  (8) 
0.0

>  <SMR_VSA3>  (8) 
0.0

>  <SMR_VSA4>  (8) 
0.0

>  <SMR_VSA5>  (8) 
24.35374

>  <SMR_VSA6>  (8) 
18.530553

>  <SMR_VSA7>  (8) 
30.082689

>  <SMR_VSA8>  (8) 
0.0

>  <SMR_VSA9>  (8) 
0.0

>  <SlogP_VSA1>  (8) 
11.050456

>  <SlogP_VSA10>  (8) 
14.872339

>  <SlogP_VSA11>  (8) 
0.0

>  <SlogP_VSA12>  (8) 
0.0

>  <SlogP_VSA2>  (8) 
43.660744

>  <SlogP_VSA3>  (8) 
14.210589

>  <SlogP_VSA4>  (8) 
5.817221

>  <SlogP_VSA5>  (8) 
0.0

>  <SlogP_VSA6>  (8) 
24.265468

>  <SlogP_VSA7>  (8) 
0.0

>  <SlogP_VSA8>  (8) 
0.0

>  <SlogP_VSA9>  (8) 
0.0

>  <EState_VSA1>  (8) 
18.014427

>  <EState_VSA10>  (8) 
9.184952

>  <EState_VSA11>  (8) 
0.0

>  <EState_VSA2>  (8) 
24.856656

>  <EState_VSA3>  (8) 
12.294268

>  <EState_VSA4>  (8) 
0.0

>  <EState_VSA5>  (8) 
18.199101

>  <EState_VSA6>  (8) 
6.066367

>  <EState_VSA7>  (8) 
0.0

>  <EState_VSA8>  (8) 
11.050456

>  <EState_VSA9>  (8) 
14.210589

>  <VSA_EState1>  (8) 
29.308642

>  <VSA_EState10>  (8) 
0.0

>  <VSA_EState2>  (8) 
11.767302

>  <VSA_EState3>  (8) 
2.47284

>  <VSA_EState4>  (8) 
4.264046

>  <VSA_EState5>  (8) 
-0.424917

>  <VSA_EState6>  (8) 
5.656035

>  <VSA_EState7>  (8) 
-1.500925

>  <VSA_EState8>  (8) 
0.790311

>  <VSA_EState9>  (8) 
0.0

>  <FractionCSP3>  (8) 
0.461538

>  <HeavyAtomCount>  (8) 
20

>  <NHOHCount>  (8) 
4

>  <NOCount>  (8) 
6

>  <NumAliphaticCarbocycles>  (8) 
0

>  <NumAliphaticHeterocycles>  (8) 
2

>  <NumAliphaticRings>  (8) 
2

>  <NumAromaticCarbocycles>  (8) 
1

>  <NumAromaticHeterocycles>  (8) 
0

>  <NumAromaticRings>  (8) 
1

>  <NumHAcceptors>  (8) 
4

>  <NumHDonors>  (8) 
2

>  <NumHeteroatoms>  (8) 
7

>  <NumRotatableBonds>  (8) 
2

>  <NumSaturatedCarbocycles>  (8) 
0

>  <NumSaturatedHeterocycles>  (8) 
2

>  <NumSaturatedRings>  (8) 
2

>  <RingCount>  (8) 
3

>  <MolLogP>  (8) 
0.1509

>  <MolMR>  (8) 
66.4478

>  <fr_Al_COO>  (8) 
0

>  <fr_Al_OH>  (8) 
0

>  <fr_Al_OH_noTert>  (8) 
0

>  <fr_ArN>  (8) 
0

>  <fr_Ar_COO>  (8) 
0

>  <fr_Ar_N>  (8) 
0

>  <fr_Ar_NH>  (8) 
0

>  <fr_Ar_OH>  (8) 
0

>  <fr_COO>  (8) 
0

>  <fr_COO2>  (8) 
0

>  <fr_C_O>  (8) 
1

>  <fr_C_O_noCOO>  (8) 
1

>  <fr_C_S>  (8) 
0

>  <fr_HOCCN>  (8) 
0

>  <fr_Imine>  (8) 
0

>  <fr_NH0>  (8) 
0

>  <fr_NH1>  (8) 
1

>  <fr_NH2>  (8) 
0

>  <fr_N_O>  (8) 
0

>  <fr_Ndealkylation1>  (8) 
0

>  <fr_Ndealkylation2>  (8) 
0

>  <fr_Nhpyrrole>  (8) 
0

>  <fr_SH>  (8) 
0

>  <fr_aldehyde>  (8) 
0

>  <fr_alkyl_carbamate>  (8) 
0

>  <fr_alkyl_halide>  (8) 
0

>  <fr_allylic_oxid>  (8) 
0

>  <fr_amide>  (8) 
1

>  <fr_amidine>  (8) 
0

>  <fr_aniline>  (8) 
1

>  <fr_aryl_methyl>  (8) 
0

>  <fr_azide>  (8) 
0

>  <fr_azo>  (8) 
0

>  <fr_barbitur>  (8) 
0

>  <fr_benzene>  (8) 
1

>  <fr_benzodiazepine>  (8) 
0

>  <fr_bicyclic>  (8) 
1

>  <fr_diazo>  (8) 
0

>  <fr_dihydropyridine>  (8) 
0

>  <fr_epoxide>  (8) 
0

>  <fr_ester>  (8) 
0

>  <fr_ether>  (8) 
3

>  <fr_furan>  (8) 
0

>  <fr_guanido>  (8) 
0

>  <fr_halogen>  (8) 
1

>  <fr_hdrzine>  (8) 
0

>  <fr_hdrzone>  (8) 
0

>  <fr_imidazole>  (8) 
0

>  <fr_imide>  (8) 
0

>  <fr_isocyan>  (8) 
0

>  <fr_isothiocyan>  (8) 
0

>  <fr_ketone>  (8) 
0

>  <fr_ketone_Topliss>  (8) 
0

>  <fr_lactam>  (8) 
0

>  <fr_lactone>  (8) 
0

>  <fr_methoxy>  (8) 
0

>  <fr_morpholine>  (8) 
0

>  <fr_nitrile>  (8) 
0

>  <fr_nitro>  (8) 
0

>  <fr_nitro_arom>  (8) 
0

>  <fr_nitro_arom_nonortho>  (8) 
0

>  <fr_nitroso>  (8) 
0

>  <fr_oxazole>  (8) 
0

>  <fr_oxime>  (8) 
0

>  <fr_para_hydroxylation>  (8) 
0

>  <fr_phenol>  (8) 
0

>  <fr_phenol_noOrthoHbond>  (8) 
0

>  <fr_phos_acid>  (8) 
0

>  <fr_phos_ester>  (8) 
0

>  <fr_piperdine>  (8) 
0

>  <fr_piperzine>  (8) 
0

>  <fr_priamide>  (8) 
0

>  <fr_prisulfonamd>  (8) 
0

>  <fr_pyridine>  (8) 
0

>  <fr_quatN>  (8) 
1

>  <fr_sulfide>  (8) 
0

>  <fr_sulfonamd>  (8) 
0

>  <fr_sulfone>  (8) 
0

>  <fr_term_acetylene>  (8) 
0

>  <fr_tetrazole>  (8) 
0

>  <fr_thiazole>  (8) 
0

>  <fr_thiocyan>  (8) 
0

>  <fr_thiophene>  (8) 
0

>  <fr_unbrch_alkane>  (8) 
0

>  <fr_urea>  (8) 
0

>  <NP_Likeness>  (8) 
-0.871174

$$$$
F032
     RDKit          3D

  0  0  0  0  0  0  0  0  0  0999 V3000
M  V30 BEGIN CTAB
M  V30 COUNTS 36 38 0 0 0
M  V30 BEGIN ATOM
M  V30 1 F -22.372000 17.967000 -32.583000 0
M  V30 2 O -25.470000 12.626000 -30.420000 0
M  V30 3 O -24.388000 11.883000 -25.753000 0
M  V30 4 O -23.452000 11.151000 -28.828000 0
M  V30 5 O -25.226000 13.244000 -28.251000 0
M  V30 6 N -21.678000 9.606000 -26.955000 0 CHG=1
M  V30 7 N -24.336000 14.577000 -29.806000 0
M  V30 8 C -25.734000 12.019000 -26.239000 0
M  V30 9 C -22.396000 11.750000 -28.041000 0
M  V30 10 C -25.051000 15.676000 -33.148000 0
M  V30 11 C -24.143000 16.668000 -33.322000 0
M  V30 12 C -25.082000 15.031000 -31.975000 0
M  V30 13 C -23.313000 16.329000 -31.173000 0
M  V30 14 C -25.051000 13.421000 -29.593000 0
M  V30 15 C -23.263000 16.975000 -32.377000 0
M  V30 16 C -25.599000 11.928000 -27.762000 0 CFG=2
M  V30 17 C -24.502000 10.858000 -27.889000 0 CFG=2
M  V30 18 C -23.869000 10.772000 -26.503000 0 CFG=1
M  V30 19 C -22.364000 10.887000 -26.777000 0 CFG=1
M  V30 20 C -24.210000 15.333000 -30.967000 0
M  V30 21 H -21.694600 9.096600 -26.094600 0
M  V30 22 H -22.141000 9.075800 -27.665300 0
M  V30 23 H -23.835200 14.923400 -29.012700 0
M  V30 24 H -26.120100 12.901300 -25.969900 0
M  V30 25 H -26.312500 11.281700 -25.890200 0
M  V30 26 H -22.610200 12.701400 -27.819600 0
M  V30 27 H -21.521700 11.709000 -28.524700 0
M  V30 28 H -25.685100 15.430900 -33.881400 0
M  V30 29 H -24.136300 17.179500 -34.181200 0
M  V30 30 H -25.760300 14.310100 -31.833000 0
M  V30 31 H -22.685000 16.592300 -30.440700 0
M  V30 32 H -26.452900 11.618200 -28.180300 0
M  V30 33 H -24.919300 9.979000 -28.119600 0
M  V30 34 H -24.089300 9.903300 -26.059400 0
M  V30 35 H -21.928600 11.397900 -26.035800 0
M  V30 36 H -20.729800 9.770600 -27.226700 0
M  V30 END ATOM
M  V30 BEGIN BOND
M  V30 1 1 1 15
M  V30 2 2 2 14
M  V30 3 1 3 8
M  V30 4 1 3 18
M  V30 5 1 4 9
M  V30 6 1 4 17
M  V30 7 1 5 14
M  V30 8 1 5 16
M  V30 9 1 6 19
M  V30 10 1 7 14
M  V30 11 1 7 20
M  V30 12 1 8 16
M  V30 13 1 9 19
M  V30 14 2 10 11
M  V30 15 1 10 12
M  V30 16 1 11 15
M  V30 17 2 12 20
M  V30 18 2 13 15
M  V30 19 1 13 20
M  V30 20 1 16 17
M  V30 21 1 17 18
M  V30 22 1 18 19
M  V30 23 1 6 21
M  V30 24 1 6 22
M  V30 25 1 7 23
M  V30 26 1 8 24
M  V30 27 1 8 25
M  V30 28 1 9 26
M  V30 29 1 9 27
M  V30 30 1 10 28
M  V30 31 1 11 29
M  V30 32 1 12 30
M  V30 33 1 13 31
M  V30 34 1 16 32 CFG=3
M  V30 35 1 17 33 CFG=3
M  V30 36 1 18 34 CFG=1
M  V30 37 1 19 35 CFG=1
M  V30 38 1 6 36
M  V30 END BOND
M  V30 END CTAB
M  END
>  <Ligand_Instance>  (9) 
032_B_2

>  <Dataset>  (9) 
CF

>  <PDB_ID>  (9) 
None

>  <Chain>  (9) 
B

>  <Resi>  (9) 
2

>  <Num_Resolved_Atoms>  (9) 
20

>  <Num_H_Atoms_ProtBoundConf>  (9) 
16

>  <Pocket>  (9) 
X

>  <Name>  (9) 
(3R,3aS,6S,6aR)‐6‐amino‐hexahydrofuro[3,2‐b]furan‐3‐yl N‐(3‐fluorophenyl)carbamate

>  <Num_Not_Resolved_Atoms>  (9) 
0

>  <ATP_Site>  (9) 
True

>  <Peripheral>  (9) 
True

>  <Standardized_SMILES>  (9) 
[H]C1=C([H])C(F)=C([H])C(N([H])C(=O)O[C@]2([H])C([H])([H])O[C@@]3([H])[C@]2([H])OC([H])([H])[C@]3([H])[N+]([H])([H])[H])=C1[H]

>  <2D_Mol_H>  (9) 
<rdkit.Chem.rdchem.Mol object at 0x77059d96b7d0>

>  <MW>  (9) 
283.279

>  <HBA>  (9) 
4

>  <HBD>  (9) 
2

>  <LogP>  (9) 
0.1509

>  <NRB>  (9) 
3

>  <TPSA>  (9) 
84.43

>  <Num_Heavy_Atoms>  (9) 
20

>  <Ro5>  (9) 
[True, True, True, True, True, True]

>  <Ro5_Fulfilled>  (9) 
True

>  <Ro3>  (9) 
[True, False, True, True]

>  <Ro3_Fulfilled>  (9) 
True

>  <Fsp3>  (9) 
0.461538

>  <Fsp3_0.42>  (9) 
True

>  <Fsp3_0.45>  (9) 
True

>  <Stereogenic_Carbons>  (9) 
4

>  <C_Atoms>  (9) 
13

>  <FCStereo>  (9) 
0.307692

>  <SPS>  (9) 
638

>  <nSPS>  (9) 
31.9

>  <PBF>  (9) 
0.841331

>  <PBF_0.6>  (9) 
True

>  <nPBF>  (9) 
0.042067

>  <nPBF_0.016>  (9) 
True

>  <PMI1>  (9) 
645.148875

>  <PMI2>  (9) 
3358.755896

>  <PMI3>  (9) 
3585.858866

>  <NPR1>  (9) 
0.179915

>  <NPR2>  (9) 
0.936667

>  <Sum_NPR>  (9) 
1.116582

>  <Sum_NPR_1.07>  (9) 
True

>  <Sum_NPR_1.2>  (9) 
False

>  <MaxAbsEStateIndex>  (9) 
13.002593

>  <MaxEStateIndex>  (9) 
13.002593

>  <MinAbsEStateIndex>  (9) 
0.055445

>  <MinEStateIndex>  (9) 
-0.651887

>  <qed>  (9) 
0.808966

>  <MolWt>  (9) 
283.279

>  <HeavyAtomMolWt>  (9) 
267.151

>  <ExactMolWt>  (9) 
283.108862

>  <NumValenceElectrons>  (9) 
108

>  <NumRadicalElectrons>  (9) 
0

>  <MaxPartialCharge>  (9) 
0.411576

>  <MinPartialCharge>  (9) 
-0.440633

>  <MaxAbsPartialCharge>  (9) 
0.440633

>  <MinAbsPartialCharge>  (9) 
0.411576

>  <FpDensityMorgan1>  (9) 
1.35

>  <FpDensityMorgan2>  (9) 
2.15

>  <FpDensityMorgan3>  (9) 
2.95

>  <BCUT2D_MWHI>  (9) 
19.142146

>  <BCUT2D_MWLOW>  (9) 
10.096604

>  <BCUT2D_CHGHI>  (9) 
2.496872

>  <BCUT2D_CHGLO>  (9) 
-2.16162

>  <BCUT2D_LOGPHI>  (9) 
2.270487

>  <BCUT2D_LOGPLOW>  (9) 
-2.662887

>  <BCUT2D_MRHI>  (9) 
5.841879

>  <BCUT2D_MRLOW>  (9) 
-0.430488

>  <AvgIpc>  (9) 
2.942364

>  <BalabanJ>  (9) 
1.570788

>  <BertzCT>  (9) 
512.899453

>  <Chi0>  (9) 
14.11252

>  <Chi0n>  (9) 
10.75108

>  <Chi0v>  (9) 
10.75108

>  <Chi1>  (9) 
9.63103

>  <Chi1n>  (9) 
6.4278

>  <Chi1v>  (9) 
6.4278

>  <Chi2n>  (9) 
4.935085

>  <Chi2v>  (9) 
4.935085

>  <Chi3n>  (9) 
3.439971

>  <Chi3v>  (9) 
3.439971

>  <Chi4n>  (9) 
2.495345

>  <Chi4v>  (9) 
2.495345

>  <HallKierAlpha>  (9) 
-1.7

>  <Ipc>  (9) 
55107.543562

>  <Kappa1>  (9) 
13.290803

>  <Kappa2>  (9) 
5.354095

>  <Kappa3>  (9) 
2.601195

>  <LabuteASA>  (9) 
114.531782

>  <PEOE_VSA1>  (9) 
19.944256

>  <PEOE_VSA10>  (9) 
30.673876

>  <PEOE_VSA11>  (9) 
6.103966

>  <PEOE_VSA12>  (9) 
0.0

>  <PEOE_VSA13>  (9) 
0.0

>  <PEOE_VSA14>  (9) 
6.09324

>  <PEOE_VSA2>  (9) 
5.316789

>  <PEOE_VSA3>  (9) 
9.184952

>  <PEOE_VSA4>  (9) 
0.0

>  <PEOE_VSA5>  (9) 
0.0

>  <PEOE_VSA6>  (9) 
6.066367

>  <PEOE_VSA7>  (9) 
18.199101

>  <PEOE_VSA8>  (9) 
5.687386

>  <PEOE_VSA9>  (9) 
6.606882

>  <SMR_VSA1>  (9) 
29.129209

>  <SMR_VSA10>  (9) 
11.780626

>  <SMR_VSA2>  (9) 
0.0

>  <SMR_VSA3>  (9) 
0.0

>  <SMR_VSA4>  (9) 
0.0

>  <SMR_VSA5>  (9) 
24.35374

>  <SMR_VSA6>  (9) 
18.530553

>  <SMR_VSA7>  (9) 
30.082689

>  <SMR_VSA8>  (9) 
0.0

>  <SMR_VSA9>  (9) 
0.0

>  <SlogP_VSA1>  (9) 
11.050456

>  <SlogP_VSA10>  (9) 
14.872339

>  <SlogP_VSA11>  (9) 
0.0

>  <SlogP_VSA12>  (9) 
0.0

>  <SlogP_VSA2>  (9) 
43.660744

>  <SlogP_VSA3>  (9) 
14.210589

>  <SlogP_VSA4>  (9) 
5.817221

>  <SlogP_VSA5>  (9) 
0.0

>  <SlogP_VSA6>  (9) 
24.265468

>  <SlogP_VSA7>  (9) 
0.0

>  <SlogP_VSA8>  (9) 
0.0

>  <SlogP_VSA9>  (9) 
0.0

>  <EState_VSA1>  (9) 
18.014427

>  <EState_VSA10>  (9) 
9.184952

>  <EState_VSA11>  (9) 
0.0

>  <EState_VSA2>  (9) 
24.856656

>  <EState_VSA3>  (9) 
12.294268

>  <EState_VSA4>  (9) 
0.0

>  <EState_VSA5>  (9) 
18.199101

>  <EState_VSA6>  (9) 
6.066367

>  <EState_VSA7>  (9) 
0.0

>  <EState_VSA8>  (9) 
11.050456

>  <EState_VSA9>  (9) 
14.210589

>  <VSA_EState1>  (9) 
29.308642

>  <VSA_EState10>  (9) 
0.0

>  <VSA_EState2>  (9) 
11.767302

>  <VSA_EState3>  (9) 
2.47284

>  <VSA_EState4>  (9) 
4.264046

>  <VSA_EState5>  (9) 
-0.424917

>  <VSA_EState6>  (9) 
5.656035

>  <VSA_EState7>  (9) 
-1.500925

>  <VSA_EState8>  (9) 
0.790311

>  <VSA_EState9>  (9) 
0.0

>  <FractionCSP3>  (9) 
0.461538

>  <HeavyAtomCount>  (9) 
20

>  <NHOHCount>  (9) 
4

>  <NOCount>  (9) 
6

>  <NumAliphaticCarbocycles>  (9) 
0

>  <NumAliphaticHeterocycles>  (9) 
2

>  <NumAliphaticRings>  (9) 
2

>  <NumAromaticCarbocycles>  (9) 
1

>  <NumAromaticHeterocycles>  (9) 
0

>  <NumAromaticRings>  (9) 
1

>  <NumHAcceptors>  (9) 
4

>  <NumHDonors>  (9) 
2

>  <NumHeteroatoms>  (9) 
7

>  <NumRotatableBonds>  (9) 
2

>  <NumSaturatedCarbocycles>  (9) 
0

>  <NumSaturatedHeterocycles>  (9) 
2

>  <NumSaturatedRings>  (9) 
2

>  <RingCount>  (9) 
3

>  <MolLogP>  (9) 
0.1509

>  <MolMR>  (9) 
66.4478

>  <fr_Al_COO>  (9) 
0

>  <fr_Al_OH>  (9) 
0

>  <fr_Al_OH_noTert>  (9) 
0

>  <fr_ArN>  (9) 
0

>  <fr_Ar_COO>  (9) 
0

>  <fr_Ar_N>  (9) 
0

>  <fr_Ar_NH>  (9) 
0

>  <fr_Ar_OH>  (9) 
0

>  <fr_COO>  (9) 
0

>  <fr_COO2>  (9) 
0

>  <fr_C_O>  (9) 
1

>  <fr_C_O_noCOO>  (9) 
1

>  <fr_C_S>  (9) 
0

>  <fr_HOCCN>  (9) 
0

>  <fr_Imine>  (9) 
0

>  <fr_NH0>  (9) 
0

>  <fr_NH1>  (9) 
1

>  <fr_NH2>  (9) 
0

>  <fr_N_O>  (9) 
0

>  <fr_Ndealkylation1>  (9) 
0

>  <fr_Ndealkylation2>  (9) 
0

>  <fr_Nhpyrrole>  (9) 
0

>  <fr_SH>  (9) 
0

>  <fr_aldehyde>  (9) 
0

>  <fr_alkyl_carbamate>  (9) 
0

>  <fr_alkyl_halide>  (9) 
0

>  <fr_allylic_oxid>  (9) 
0

>  <fr_amide>  (9) 
1

>  <fr_amidine>  (9) 
0

>  <fr_aniline>  (9) 
1

>  <fr_aryl_methyl>  (9) 
0

>  <fr_azide>  (9) 
0

>  <fr_azo>  (9) 
0

>  <fr_barbitur>  (9) 
0

>  <fr_benzene>  (9) 
1

>  <fr_benzodiazepine>  (9) 
0

>  <fr_bicyclic>  (9) 
1

>  <fr_diazo>  (9) 
0

>  <fr_dihydropyridine>  (9) 
0

>  <fr_epoxide>  (9) 
0

>  <fr_ester>  (9) 
0

>  <fr_ether>  (9) 
3

>  <fr_furan>  (9) 
0

>  <fr_guanido>  (9) 
0

>  <fr_halogen>  (9) 
1

>  <fr_hdrzine>  (9) 
0

>  <fr_hdrzone>  (9) 
0

>  <fr_imidazole>  (9) 
0

>  <fr_imide>  (9) 
0

>  <fr_isocyan>  (9) 
0

>  <fr_isothiocyan>  (9) 
0

>  <fr_ketone>  (9) 
0

>  <fr_ketone_Topliss>  (9) 
0

>  <fr_lactam>  (9) 
0

>  <fr_lactone>  (9) 
0

>  <fr_methoxy>  (9) 
0

>  <fr_morpholine>  (9) 
0

>  <fr_nitrile>  (9) 
0

>  <fr_nitro>  (9) 
0

>  <fr_nitro_arom>  (9) 
0

>  <fr_nitro_arom_nonortho>  (9) 
0

>  <fr_nitroso>  (9) 
0

>  <fr_oxazole>  (9) 
0

>  <fr_oxime>  (9) 
0

>  <fr_para_hydroxylation>  (9) 
0

>  <fr_phenol>  (9) 
0

>  <fr_phenol_noOrthoHbond>  (9) 
0

>  <fr_phos_acid>  (9) 
0

>  <fr_phos_ester>  (9) 
0

>  <fr_piperdine>  (9) 
0

>  <fr_piperzine>  (9) 
0

>  <fr_priamide>  (9) 
0

>  <fr_prisulfonamd>  (9) 
0

>  <fr_pyridine>  (9) 
0

>  <fr_quatN>  (9) 
1

>  <fr_sulfide>  (9) 
0

>  <fr_sulfonamd>  (9) 
0

>  <fr_sulfone>  (9) 
0

>  <fr_term_acetylene>  (9) 
0

>  <fr_tetrazole>  (9) 
0

>  <fr_thiazole>  (9) 
0

>  <fr_thiocyan>  (9) 
0

>  <fr_thiophene>  (9) 
0

>  <fr_unbrch_alkane>  (9) 
0

>  <fr_urea>  (9) 
0

>  <NP_Likeness>  (9) 
-0.871174

$$$$
F055
     RDKit          3D

  0  0  0  0  0  0  0  0  0  0999 V3000
M  V30 BEGIN CTAB
M  V30 COUNTS 42 44 0 0 0
M  V30 BEGIN ATOM
M  V30 1 O -16.584000 2.486000 -20.609000 0
M  V30 2 O -10.086000 3.894000 -21.044000 0
M  V30 3 O -9.145000 2.578000 -16.799000 0
M  V30 4 O -9.334000 1.024000 -18.462000 0
M  V30 5 N -7.619000 2.335000 -21.121000 0 CHG=1
M  V30 6 N -14.753000 3.427000 -19.633000 0
M  V30 7 N -12.022000 3.201000 -18.824000 0 CHG=1
M  V30 8 C -16.468000 4.901000 -20.641000 0
M  V30 9 C -7.849000 2.440000 -17.385000 0
M  V30 10 C -14.006000 4.619000 -19.203000 0
M  V30 11 C -14.208000 2.101000 -19.277000 0
M  V30 12 C -12.479000 4.498000 -19.359000 0
M  V30 13 C -12.679000 2.049000 -19.495000 0
M  V30 14 C -10.073000 1.988000 -17.723000 0 CFG=2
M  V30 15 C -15.963000 3.514000 -20.294000 0
M  V30 16 C -9.835000 2.852000 -20.081000 0 CFG=1
M  V30 17 C -8.083000 1.730000 -18.704000 0 CFG=2
M  V30 18 C -8.305000 2.735000 -19.854000 0 CFG=1
M  V30 19 C -10.544000 3.081000 -18.709000 0 CFG=1
M  V30 20 H -10.559600 3.508800 -21.836100 0
M  V30 21 H -6.634800 2.263800 -20.959000 0
M  V30 22 H -7.971500 1.450300 -21.425900 0
M  V30 23 H -15.824200 5.585400 -20.298800 0
M  V30 24 H -16.549700 4.987200 -21.633900 0
M  V30 25 H -17.363100 5.045100 -20.219100 0
M  V30 26 H -7.253300 1.895600 -16.794500 0
M  V30 27 H -7.436100 3.337700 -17.538400 0
M  V30 28 H -14.210300 4.786000 -18.238400 0
M  V30 29 H -14.316200 5.397200 -19.749000 0
M  V30 30 H -14.642900 1.405300 -19.848700 0
M  V30 31 H -14.407000 1.914000 -18.315000 0
M  V30 32 H -12.238400 4.560700 -20.327600 0
M  V30 33 H -12.034400 5.239400 -18.856400 0
M  V30 34 H -12.320300 1.196900 -19.113700 0
M  V30 35 H -12.484300 2.083500 -20.475300 0
M  V30 36 H -10.845800 1.568700 -17.246500 0
M  V30 37 H -10.162200 1.987400 -20.462400 0
M  V30 38 H -7.339800 1.094400 -18.913200 0
M  V30 39 H -7.955300 3.627700 -19.569800 0
M  V30 40 H -10.210100 3.954000 -18.353500 0
M  V30 41 H -7.791900 3.023400 -21.825400 0
M  V30 42 H -12.357400 3.177200 -17.882200 0
M  V30 END ATOM
M  V30 BEGIN BOND
M  V30 1 2 1 15
M  V30 2 1 2 16
M  V30 3 1 3 9
M  V30 4 1 3 14
M  V30 5 1 4 14
M  V30 6 1 4 17
M  V30 7 1 5 18
M  V30 8 1 6 10
M  V30 9 1 6 11
M  V30 10 1 6 15
M  V30 11 1 7 12
M  V30 12 1 7 13
M  V30 13 1 7 19
M  V30 14 1 8 15
M  V30 15 1 9 17
M  V30 16 1 10 12
M  V30 17 1 11 13
M  V30 18 1 14 19
M  V30 19 1 16 18
M  V30 20 1 16 19
M  V30 21 1 17 18
M  V30 22 1 2 20
M  V30 23 1 5 21
M  V30 24 1 5 22
M  V30 25 1 8 23
M  V30 26 1 8 24
M  V30 27 1 8 25
M  V30 28 1 9 26
M  V30 29 1 9 27
M  V30 30 1 10 28
M  V30 31 1 10 29
M  V30 32 1 11 30
M  V30 33 1 11 31
M  V30 34 1 12 32
M  V30 35 1 12 33
M  V30 36 1 13 34
M  V30 37 1 13 35
M  V30 38 1 14 36 CFG=1
M  V30 39 1 16 37 CFG=3
M  V30 40 1 17 38 CFG=3
M  V30 41 1 18 39 CFG=1
M  V30 42 1 19 40 CFG=1
M  V30 43 1 5 41
M  V30 44 1 7 42
M  V30 END BOND
M  V30 END CTAB
M  END
>  <Ligand_Instance>  (10) 
055_B_1

>  <Dataset>  (10) 
CF

>  <PDB_ID>  (10) 
None

>  <Chain>  (10) 
B

>  <Resi>  (10) 
1

>  <Num_Resolved_Atoms>  (10) 
19

>  <Num_H_Atoms_ProtBoundConf>  (10) 
23

>  <Pocket>  (10) 
A

>  <Name>  (10) 
1‐{4‐[(1S,2S,3S,4R,5R)‐2‐amino‐3‐hydroxy‐6,8‐dioxabicyclo[3.2.1]octan‐4‐yl]piperazin‐1‐yl}ethan‐1‐one

>  <Num_Not_Resolved_Atoms>  (10) 
0

>  <ATP_Site>  (10) 
True

>  <Peripheral>  (10) 
True

>  <Standardized_SMILES>  (10) 
[H]O[C@@]1([H])[C@]([H])([N+]([H])([H])[H])[C@]2([H])O[C@@]([H])(OC2([H])[H])[C@]1([H])[N+]1([H])C([H])([H])C([H])([H])N(C(=O)C([H])([H])[H])C([H])([H])C1([H])[H]

>  <2D_Mol_H>  (10) 
<rdkit.Chem.rdchem.Mol object at 0x77059d96b8b0>

>  <MW>  (10) 
273.333

>  <HBA>  (10) 
4

>  <HBD>  (10) 
3

>  <LogP>  (10) 
-4.1715

>  <NRB>  (10) 
4

>  <TPSA>  (10) 
91.08

>  <Num_Heavy_Atoms>  (10) 
19

>  <Ro5>  (10) 
[True, True, True, True, True, True]

>  <Ro5_Fulfilled>  (10) 
True

>  <Ro3>  (10) 
[True, False, True, True]

>  <Ro3_Fulfilled>  (10) 
True

>  <Fsp3>  (10) 
0.916667

>  <Fsp3_0.42>  (10) 
True

>  <Fsp3_0.45>  (10) 
True

>  <Stereogenic_Carbons>  (10) 
5

>  <C_Atoms>  (10) 
12

>  <FCStereo>  (10) 
0.416667

>  <SPS>  (10) 
827

>  <nSPS>  (10) 
43.526316

>  <PBF>  (10) 
0.899222

>  <PBF_0.6>  (10) 
True

>  <nPBF>  (10) 
0.047327

>  <nPBF_0.016>  (10) 
True

>  <PMI1>  (10) 
581.780458

>  <PMI2>  (10) 
2772.951705

>  <PMI3>  (10) 
2940.223649

>  <NPR1>  (10) 
0.197869

>  <NPR2>  (10) 
0.943109

>  <Sum_NPR>  (10) 
1.140979

>  <Sum_NPR_1.07>  (10) 
True

>  <Sum_NPR_1.2>  (10) 
False

>  <MaxAbsEStateIndex>  (10) 
11.333213

>  <MaxEStateIndex>  (10) 
11.333213

>  <MinAbsEStateIndex>  (10) 
0.074853

>  <MinEStateIndex>  (10) 
-0.495252

>  <qed>  (10) 
0.452028

>  <MolWt>  (10) 
273.333

>  <HeavyAtomMolWt>  (10) 
250.149

>  <ExactMolWt>  (10) 
273.167759

>  <NumValenceElectrons>  (10) 
108

>  <NumRadicalElectrons>  (10) 
0

>  <MaxPartialCharge>  (10) 
0.219356

>  <MinPartialCharge>  (10) 
-0.380906

>  <MaxAbsPartialCharge>  (10) 
0.380906

>  <MinAbsPartialCharge>  (10) 
0.219356

>  <FpDensityMorgan1>  (10) 
1.421053

>  <FpDensityMorgan2>  (10) 
2.105263

>  <FpDensityMorgan3>  (10) 
2.736842

>  <BCUT2D_MWHI>  (10) 
16.730728

>  <BCUT2D_MWLOW>  (10) 
9.950858

>  <BCUT2D_CHGHI>  (10) 
2.552081

>  <BCUT2D_CHGLO>  (10) 
-2.414882

>  <BCUT2D_LOGPHI>  (10) 
2.245896

>  <BCUT2D_LOGPLOW>  (10) 
-3.212004

>  <BCUT2D_MRHI>  (10) 
5.727128

>  <BCUT2D_MRLOW>  (10) 
-0.941488

>  <AvgIpc>  (10) 
2.832225

>  <BalabanJ>  (10) 
1.669651

>  <BertzCT>  (10) 
358.883658

>  <Chi0>  (10) 
13.56855

>  <Chi0n>  (10) 
11.248564

>  <Chi0v>  (10) 
11.248564

>  <Chi1>  (10) 
9.075387

>  <Chi1n>  (10) 
6.959779

>  <Chi1v>  (10) 
6.959779

>  <Chi2n>  (10) 
5.720803

>  <Chi2v>  (10) 
5.720803

>  <Chi3n>  (10) 
4.633442

>  <Chi3v>  (10) 
4.633442

>  <Chi4n>  (10) 
3.376683

>  <Chi4v>  (10) 
3.376683

>  <HallKierAlpha>  (10) 
-0.73

>  <Ipc>  (10) 
32332.684745

>  <Kappa1>  (10) 
13.262205

>  <Kappa2>  (10) 
4.989334

>  <Kappa3>  (10) 
2.253751

>  <LabuteASA>  (10) 
111.778525

>  <PEOE_VSA1>  (10) 
30.11374

>  <PEOE_VSA10>  (10) 
12.145807

>  <PEOE_VSA11>  (10) 
12.145807

>  <PEOE_VSA12>  (10) 
12.197206

>  <PEOE_VSA13>  (10) 
0.0

>  <PEOE_VSA14>  (10) 
0.0

>  <PEOE_VSA2>  (10) 
4.794537

>  <PEOE_VSA3>  (10) 
0.0

>  <PEOE_VSA4>  (10) 
0.0

>  <PEOE_VSA5>  (10) 
0.0

>  <PEOE_VSA6>  (10) 
0.0

>  <PEOE_VSA7>  (10) 
0.0

>  <PEOE_VSA8>  (10) 
6.923737

>  <PEOE_VSA9>  (10) 
32.785908

>  <SMR_VSA1>  (10) 
30.008368

>  <SMR_VSA10>  (10) 
5.90718

>  <SMR_VSA2>  (10) 
0.0

>  <SMR_VSA3>  (10) 
4.89991

>  <SMR_VSA4>  (10) 
0.0

>  <SMR_VSA5>  (10) 
37.505378

>  <SMR_VSA6>  (10) 
32.785908

>  <SMR_VSA7>  (10) 
0.0

>  <SMR_VSA8>  (10) 
0.0

>  <SMR_VSA9>  (10) 
0.0

>  <SlogP_VSA1>  (10) 
10.633577

>  <SlogP_VSA10>  (10) 
0.0

>  <SlogP_VSA11>  (10) 
0.0

>  <SlogP_VSA12>  (10) 
0.0

>  <SlogP_VSA2>  (10) 
79.281166

>  <SlogP_VSA3>  (10) 
14.268263

>  <SlogP_VSA4>  (10) 
0.0

>  <SlogP_VSA5>  (10) 
6.923737

>  <SlogP_VSA6>  (10) 
0.0

>  <SlogP_VSA7>  (10) 
0.0

>  <SlogP_VSA8>  (10) 
0.0

>  <SlogP_VSA9>  (10) 
0.0

>  <EState_VSA1>  (10) 
6.103966

>  <EState_VSA10>  (10) 
9.901065

>  <EState_VSA11>  (10) 
0.0

>  <EState_VSA2>  (10) 
30.384855

>  <EState_VSA3>  (10) 
6.606882

>  <EState_VSA4>  (10) 
26.179026

>  <EState_VSA5>  (10) 
4.89991

>  <EState_VSA6>  (10) 
6.923737

>  <EState_VSA7>  (10) 
4.89991

>  <EState_VSA8>  (10) 
5.733667

>  <EState_VSA9>  (10) 
9.473726

>  <VSA_EState1>  (10) 
11.408208

>  <VSA_EState10>  (10) 
0.0

>  <VSA_EState2>  (10) 
14.433695

>  <VSA_EState3>  (10) 
10.421748

>  <VSA_EState4>  (10) 
4.012847

>  <VSA_EState5>  (10) 
0.117322

>  <VSA_EState6>  (10) 
-0.224588

>  <VSA_EState7>  (10) 
-0.89244

>  <VSA_EState8>  (10) 
5.223208

>  <VSA_EState9>  (10) 
0.0

>  <FractionCSP3>  (10) 
0.916667

>  <HeavyAtomCount>  (10) 
19

>  <NHOHCount>  (10) 
5

>  <NOCount>  (10) 
7

>  <NumAliphaticCarbocycles>  (10) 
0

>  <NumAliphaticHeterocycles>  (10) 
3

>  <NumAliphaticRings>  (10) 
3

>  <NumAromaticCarbocycles>  (10) 
0

>  <NumAromaticHeterocycles>  (10) 
0

>  <NumAromaticRings>  (10) 
0

>  <NumHAcceptors>  (10) 
4

>  <NumHDonors>  (10) 
3

>  <NumHeteroatoms>  (10) 
7

>  <NumRotatableBonds>  (10) 
1

>  <NumSaturatedCarbocycles>  (10) 
0

>  <NumSaturatedHeterocycles>  (10) 
3

>  <NumSaturatedRings>  (10) 
3

>  <RingCount>  (10) 
3

>  <MolLogP>  (10) 
-4.1715

>  <MolMR>  (10) 
64.0346

>  <fr_Al_COO>  (10) 
0

>  <fr_Al_OH>  (10) 
1

>  <fr_Al_OH_noTert>  (10) 
1

>  <fr_ArN>  (10) 
0

>  <fr_Ar_COO>  (10) 
0

>  <fr_Ar_N>  (10) 
0

>  <fr_Ar_NH>  (10) 
0

>  <fr_Ar_OH>  (10) 
0

>  <fr_COO>  (10) 
0

>  <fr_COO2>  (10) 
0

>  <fr_C_O>  (10) 
1

>  <fr_C_O_noCOO>  (10) 
1

>  <fr_C_S>  (10) 
0

>  <fr_HOCCN>  (10) 
0

>  <fr_Imine>  (10) 
0

>  <fr_NH0>  (10) 
1

>  <fr_NH1>  (10) 
1

>  <fr_NH2>  (10) 
0

>  <fr_N_O>  (10) 
0

>  <fr_Ndealkylation1>  (10) 
0

>  <fr_Ndealkylation2>  (10) 
0

>  <fr_Nhpyrrole>  (10) 
0

>  <fr_SH>  (10) 
0

>  <fr_aldehyde>  (10) 
0

>  <fr_alkyl_carbamate>  (10) 
0

>  <fr_alkyl_halide>  (10) 
0

>  <fr_allylic_oxid>  (10) 
0

>  <fr_amide>  (10) 
1

>  <fr_amidine>  (10) 
0

>  <fr_aniline>  (10) 
0

>  <fr_aryl_methyl>  (10) 
0

>  <fr_azide>  (10) 
0

>  <fr_azo>  (10) 
0

>  <fr_barbitur>  (10) 
0

>  <fr_benzene>  (10) 
0

>  <fr_benzodiazepine>  (10) 
0

>  <fr_bicyclic>  (10) 
2

>  <fr_diazo>  (10) 
0

>  <fr_dihydropyridine>  (10) 
0

>  <fr_epoxide>  (10) 
0

>  <fr_ester>  (10) 
0

>  <fr_ether>  (10) 
2

>  <fr_furan>  (10) 
0

>  <fr_guanido>  (10) 
0

>  <fr_halogen>  (10) 
0

>  <fr_hdrzine>  (10) 
0

>  <fr_hdrzone>  (10) 
0

>  <fr_imidazole>  (10) 
0

>  <fr_imide>  (10) 
0

>  <fr_isocyan>  (10) 
0

>  <fr_isothiocyan>  (10) 
0

>  <fr_ketone>  (10) 
0

>  <fr_ketone_Topliss>  (10) 
0

>  <fr_lactam>  (10) 
0

>  <fr_lactone>  (10) 
0

>  <fr_methoxy>  (10) 
0

>  <fr_morpholine>  (10) 
0

>  <fr_nitrile>  (10) 
0

>  <fr_nitro>  (10) 
0

>  <fr_nitro_arom>  (10) 
0

>  <fr_nitro_arom_nonortho>  (10) 
0

>  <fr_nitroso>  (10) 
0

>  <fr_oxazole>  (10) 
0

>  <fr_oxime>  (10) 
0

>  <fr_para_hydroxylation>  (10) 
0

>  <fr_phenol>  (10) 
0

>  <fr_phenol_noOrthoHbond>  (10) 
0

>  <fr_phos_acid>  (10) 
0

>  <fr_phos_ester>  (10) 
0

>  <fr_piperdine>  (10) 
0

>  <fr_piperzine>  (10) 
1

>  <fr_priamide>  (10) 
0

>  <fr_prisulfonamd>  (10) 
0

>  <fr_pyridine>  (10) 
0

>  <fr_quatN>  (10) 
2

>  <fr_sulfide>  (10) 
0

>  <fr_sulfonamd>  (10) 
0

>  <fr_sulfone>  (10) 
0

>  <fr_term_acetylene>  (10) 
0

>  <fr_tetrazole>  (10) 
0

>  <fr_thiazole>  (10) 
0

>  <fr_thiocyan>  (10) 
0

>  <fr_thiophene>  (10) 
0

>  <fr_unbrch_alkane>  (10) 
0

>  <fr_urea>  (10) 
0

>  <NP_Likeness>  (10) 
0.401717

$$$$
F055
     RDKit          3D

  0  0  0  0  0  0  0  0  0  0999 V3000
M  V30 BEGIN CTAB
M  V30 COUNTS 42 44 0 0 0
M  V30 BEGIN ATOM
M  V30 1 O -0.295000 -9.697000 -3.788000 0
M  V30 2 O -8.231000 -10.506000 -4.416000 0
M  V30 3 O -8.524000 -11.485000 -1.739000 0
M  V30 4 O -7.262000 -9.774000 -0.792000 0
M  V30 5 N -6.875000 -7.625000 -2.569000 0 CHG=1
M  V30 6 N -2.223000 -9.948000 -2.548000 0
M  V30 7 N -5.047000 -10.385000 -2.602000 0 CHG=1
M  V30 8 C -0.058000 -10.342000 -1.492000 0
M  V30 9 C -9.354000 -10.341000 -1.561000 0
M  V30 10 C -2.909000 -10.227000 -1.269000 0
M  V30 11 C -3.053000 -9.591000 -3.693000 0
M  V30 12 C -4.323000 -10.848000 -1.396000 0
M  V30 13 C -4.227000 -10.571000 -3.813000 0
M  V30 14 C -7.191000 -11.061000 -1.420000 0 CFG=2
M  V30 15 C -0.849000 -9.968000 -2.718000 0
M  V30 16 C -7.214000 -9.853000 -3.634000 0 CFG=1
M  V30 17 C -8.387000 -9.180000 -1.452000 0 CFG=2
M  V30 18 C -7.874000 -8.692000 -2.820000 0 CFG=1
M  V30 19 C -6.435000 -10.881000 -2.753000 0 CFG=1
M  V30 20 H -8.632900 -11.251500 -3.884400 0
M  V30 21 H -7.338600 -6.740700 -2.513200 0
M  V30 22 H -6.401200 -7.807900 -1.707600 0
M  V30 23 H -0.684300 -10.523600 -0.733800 0
M  V30 24 H 0.482700 -11.161600 -1.681400 0
M  V30 25 H 0.552700 -9.589100 -1.246800 0
M  V30 26 H -9.898500 -10.426400 -0.726600 0
M  V30 27 H -9.962600 -10.221000 -2.345400 0
M  V30 28 H -2.994300 -9.364600 -0.769900 0
M  V30 29 H -2.339600 -10.860400 -0.745100 0
M  V30 30 H -2.502200 -9.629900 -4.526700 0
M  V30 31 H -3.406500 -8.663700 -3.569900 0
M  V30 32 H -4.232200 -11.842900 -1.440200 0
M  V30 33 H -4.855800 -10.597400 -0.587700 0
M  V30 34 H -4.765700 -10.367500 -4.630500 0
M  V30 35 H -3.889600 -11.511100 -3.861600 0
M  V30 36 H -6.731600 -11.725700 -0.830900 0
M  V30 37 H -6.560200 -9.442900 -4.269900 0
M  V30 38 H -8.773200 -8.429500 -0.915700 0
M  V30 39 H -8.637400 -8.313600 -3.343500 0
M  V30 40 H -6.411700 -11.759700 -3.229900 0
M  V30 41 H -6.211500 -7.606900 -3.317000 0
M  V30 42 H -5.132700 -9.394700 -2.492600 0
M  V30 END ATOM
M  V30 BEGIN BOND
M  V30 1 2 1 15
M  V30 2 1 2 16
M  V30 3 1 3 9
M  V30 4 1 3 14
M  V30 5 1 4 14
M  V30 6 1 4 17
M  V30 7 1 5 18
M  V30 8 1 6 10
M  V30 9 1 6 11
M  V30 10 1 6 15
M  V30 11 1 7 12
M  V30 12 1 7 13
M  V30 13 1 7 19
M  V30 14 1 8 15
M  V30 15 1 9 17
M  V30 16 1 10 12
M  V30 17 1 11 13
M  V30 18 1 14 19
M  V30 19 1 16 18
M  V30 20 1 16 19
M  V30 21 1 17 18
M  V30 22 1 2 20
M  V30 23 1 5 21
M  V30 24 1 5 22
M  V30 25 1 8 23
M  V30 26 1 8 24
M  V30 27 1 8 25
M  V30 28 1 9 26
M  V30 29 1 9 27
M  V30 30 1 10 28
M  V30 31 1 10 29
M  V30 32 1 11 30
M  V30 33 1 11 31
M  V30 34 1 12 32
M  V30 35 1 12 33
M  V30 36 1 13 34
M  V30 37 1 13 35
M  V30 38 1 14 36 CFG=1
M  V30 39 1 16 37 CFG=3
M  V30 40 1 17 38 CFG=1
M  V30 41 1 18 39 CFG=3
M  V30 42 1 19 40 CFG=3
M  V30 43 1 5 41
M  V30 44 1 7 42
M  V30 END BOND
M  V30 END CTAB
M  END
>  <Ligand_Instance>  (11) 
055_B_2

>  <Dataset>  (11) 
CF

>  <PDB_ID>  (11) 
None

>  <Chain>  (11) 
B

>  <Resi>  (11) 
2

>  <Num_Resolved_Atoms>  (11) 
19

>  <Num_H_Atoms_ProtBoundConf>  (11) 
23

>  <Pocket>  (11) 
X

>  <Name>  (11) 
1‐{4‐[(1S,2S,3S,4R,5R)‐2‐amino‐3‐hydroxy‐6,8‐dioxabicyclo[3.2.1]octan‐4‐yl]piperazin‐1‐yl}ethan‐1‐one

>  <Num_Not_Resolved_Atoms>  (11) 
0

>  <ATP_Site>  (11) 
True

>  <Peripheral>  (11) 
True

>  <Standardized_SMILES>  (11) 
[H]O[C@@]1([H])[C@]([H])([N+]([H])([H])[H])[C@]2([H])O[C@@]([H])(OC2([H])[H])[C@]1([H])[N+]1([H])C([H])([H])C([H])([H])N(C(=O)C([H])([H])[H])C([H])([H])C1([H])[H]

>  <2D_Mol_H>  (11) 
<rdkit.Chem.rdchem.Mol object at 0x77059d96b990>

>  <MW>  (11) 
273.333

>  <HBA>  (11) 
4

>  <HBD>  (11) 
3

>  <LogP>  (11) 
-4.1715

>  <NRB>  (11) 
4

>  <TPSA>  (11) 
91.08

>  <Num_Heavy_Atoms>  (11) 
19

>  <Ro5>  (11) 
[True, True, True, True, True, True]

>  <Ro5_Fulfilled>  (11) 
True

>  <Ro3>  (11) 
[True, False, True, True]

>  <Ro3_Fulfilled>  (11) 
True

>  <Fsp3>  (11) 
0.916667

>  <Fsp3_0.42>  (11) 
True

>  <Fsp3_0.45>  (11) 
True

>  <Stereogenic_Carbons>  (11) 
5

>  <C_Atoms>  (11) 
12

>  <FCStereo>  (11) 
0.416667

>  <SPS>  (11) 
827

>  <nSPS>  (11) 
43.526316

>  <PBF>  (11) 
0.918609

>  <PBF_0.6>  (11) 
True

>  <nPBF>  (11) 
0.048348

>  <nPBF_0.016>  (11) 
True

>  <PMI1>  (11) 
556.159111

>  <PMI2>  (11) 
2589.040393

>  <PMI3>  (11) 
2697.03265

>  <NPR1>  (11) 
0.206211

>  <NPR2>  (11) 
0.959959

>  <Sum_NPR>  (11) 
1.16617

>  <Sum_NPR_1.07>  (11) 
True

>  <Sum_NPR_1.2>  (11) 
False

>  <MaxAbsEStateIndex>  (11) 
11.333213

>  <MaxEStateIndex>  (11) 
11.333213

>  <MinAbsEStateIndex>  (11) 
0.074853

>  <MinEStateIndex>  (11) 
-0.495252

>  <qed>  (11) 
0.452028

>  <MolWt>  (11) 
273.333

>  <HeavyAtomMolWt>  (11) 
250.149

>  <ExactMolWt>  (11) 
273.167759

>  <NumValenceElectrons>  (11) 
108

>  <NumRadicalElectrons>  (11) 
0

>  <MaxPartialCharge>  (11) 
0.219356

>  <MinPartialCharge>  (11) 
-0.380906

>  <MaxAbsPartialCharge>  (11) 
0.380906

>  <MinAbsPartialCharge>  (11) 
0.219356

>  <FpDensityMorgan1>  (11) 
1.421053

>  <FpDensityMorgan2>  (11) 
2.105263

>  <FpDensityMorgan3>  (11) 
2.736842

>  <BCUT2D_MWHI>  (11) 
16.730728

>  <BCUT2D_MWLOW>  (11) 
9.950858

>  <BCUT2D_CHGHI>  (11) 
2.552081

>  <BCUT2D_CHGLO>  (11) 
-2.414882

>  <BCUT2D_LOGPHI>  (11) 
2.245896

>  <BCUT2D_LOGPLOW>  (11) 
-3.212004

>  <BCUT2D_MRHI>  (11) 
5.727128

>  <BCUT2D_MRLOW>  (11) 
-0.941488

>  <AvgIpc>  (11) 
2.832225

>  <BalabanJ>  (11) 
1.669651

>  <BertzCT>  (11) 
358.883658

>  <Chi0>  (11) 
13.56855

>  <Chi0n>  (11) 
11.248564

>  <Chi0v>  (11) 
11.248564

>  <Chi1>  (11) 
9.075387

>  <Chi1n>  (11) 
6.959779

>  <Chi1v>  (11) 
6.959779

>  <Chi2n>  (11) 
5.720803

>  <Chi2v>  (11) 
5.720803

>  <Chi3n>  (11) 
4.633442

>  <Chi3v>  (11) 
4.633442

>  <Chi4n>  (11) 
3.376683

>  <Chi4v>  (11) 
3.376683

>  <HallKierAlpha>  (11) 
-0.73

>  <Ipc>  (11) 
32332.684745

>  <Kappa1>  (11) 
13.262205

>  <Kappa2>  (11) 
4.989334

>  <Kappa3>  (11) 
2.253751

>  <LabuteASA>  (11) 
111.778525

>  <PEOE_VSA1>  (11) 
30.11374

>  <PEOE_VSA10>  (11) 
12.145807

>  <PEOE_VSA11>  (11) 
12.145807

>  <PEOE_VSA12>  (11) 
12.197206

>  <PEOE_VSA13>  (11) 
0.0

>  <PEOE_VSA14>  (11) 
0.0

>  <PEOE_VSA2>  (11) 
4.794537

>  <PEOE_VSA3>  (11) 
0.0

>  <PEOE_VSA4>  (11) 
0.0

>  <PEOE_VSA5>  (11) 
0.0

>  <PEOE_VSA6>  (11) 
0.0

>  <PEOE_VSA7>  (11) 
0.0

>  <PEOE_VSA8>  (11) 
6.923737

>  <PEOE_VSA9>  (11) 
32.785908

>  <SMR_VSA1>  (11) 
30.008368

>  <SMR_VSA10>  (11) 
5.90718

>  <SMR_VSA2>  (11) 
0.0

>  <SMR_VSA3>  (11) 
4.89991

>  <SMR_VSA4>  (11) 
0.0

>  <SMR_VSA5>  (11) 
37.505378

>  <SMR_VSA6>  (11) 
32.785908

>  <SMR_VSA7>  (11) 
0.0

>  <SMR_VSA8>  (11) 
0.0

>  <SMR_VSA9>  (11) 
0.0

>  <SlogP_VSA1>  (11) 
10.633577

>  <SlogP_VSA10>  (11) 
0.0

>  <SlogP_VSA11>  (11) 
0.0

>  <SlogP_VSA12>  (11) 
0.0

>  <SlogP_VSA2>  (11) 
79.281166

>  <SlogP_VSA3>  (11) 
14.268263

>  <SlogP_VSA4>  (11) 
0.0

>  <SlogP_VSA5>  (11) 
6.923737

>  <SlogP_VSA6>  (11) 
0.0

>  <SlogP_VSA7>  (11) 
0.0

>  <SlogP_VSA8>  (11) 
0.0

>  <SlogP_VSA9>  (11) 
0.0

>  <EState_VSA1>  (11) 
6.103966

>  <EState_VSA10>  (11) 
9.901065

>  <EState_VSA11>  (11) 
0.0

>  <EState_VSA2>  (11) 
30.384855

>  <EState_VSA3>  (11) 
6.606882

>  <EState_VSA4>  (11) 
26.179026

>  <EState_VSA5>  (11) 
4.89991

>  <EState_VSA6>  (11) 
6.923737

>  <EState_VSA7>  (11) 
4.89991

>  <EState_VSA8>  (11) 
5.733667

>  <EState_VSA9>  (11) 
9.473726

>  <VSA_EState1>  (11) 
11.408208

>  <VSA_EState10>  (11) 
0.0

>  <VSA_EState2>  (11) 
14.433695

>  <VSA_EState3>  (11) 
10.421748

>  <VSA_EState4>  (11) 
4.012847

>  <VSA_EState5>  (11) 
0.117322

>  <VSA_EState6>  (11) 
-0.224588

>  <VSA_EState7>  (11) 
-0.89244

>  <VSA_EState8>  (11) 
5.223208

>  <VSA_EState9>  (11) 
0.0

>  <FractionCSP3>  (11) 
0.916667

>  <HeavyAtomCount>  (11) 
19

>  <NHOHCount>  (11) 
5

>  <NOCount>  (11) 
7

>  <NumAliphaticCarbocycles>  (11) 
0

>  <NumAliphaticHeterocycles>  (11) 
3

>  <NumAliphaticRings>  (11) 
3

>  <NumAromaticCarbocycles>  (11) 
0

>  <NumAromaticHeterocycles>  (11) 
0

>  <NumAromaticRings>  (11) 
0

>  <NumHAcceptors>  (11) 
4

>  <NumHDonors>  (11) 
3

>  <NumHeteroatoms>  (11) 
7

>  <NumRotatableBonds>  (11) 
1

>  <NumSaturatedCarbocycles>  (11) 
0

>  <NumSaturatedHeterocycles>  (11) 
3

>  <NumSaturatedRings>  (11) 
3

>  <RingCount>  (11) 
3

>  <MolLogP>  (11) 
-4.1715

>  <MolMR>  (11) 
64.0346

>  <fr_Al_COO>  (11) 
0

>  <fr_Al_OH>  (11) 
1

>  <fr_Al_OH_noTert>  (11) 
1

>  <fr_ArN>  (11) 
0

>  <fr_Ar_COO>  (11) 
0

>  <fr_Ar_N>  (11) 
0

>  <fr_Ar_NH>  (11) 
0

>  <fr_Ar_OH>  (11) 
0

>  <fr_COO>  (11) 
0

>  <fr_COO2>  (11) 
0

>  <fr_C_O>  (11) 
1

>  <fr_C_O_noCOO>  (11) 
1

>  <fr_C_S>  (11) 
0

>  <fr_HOCCN>  (11) 
0

>  <fr_Imine>  (11) 
0

>  <fr_NH0>  (11) 
1

>  <fr_NH1>  (11) 
1

>  <fr_NH2>  (11) 
0

>  <fr_N_O>  (11) 
0

>  <fr_Ndealkylation1>  (11) 
0

>  <fr_Ndealkylation2>  (11) 
0

>  <fr_Nhpyrrole>  (11) 
0

>  <fr_SH>  (11) 
0

>  <fr_aldehyde>  (11) 
0

>  <fr_alkyl_carbamate>  (11) 
0

>  <fr_alkyl_halide>  (11) 
0

>  <fr_allylic_oxid>  (11) 
0

>  <fr_amide>  (11) 
1

>  <fr_amidine>  (11) 
0

>  <fr_aniline>  (11) 
0

>  <fr_aryl_methyl>  (11) 
0

>  <fr_azide>  (11) 
0

>  <fr_azo>  (11) 
0

>  <fr_barbitur>  (11) 
0

>  <fr_benzene>  (11) 
0

>  <fr_benzodiazepine>  (11) 
0

>  <fr_bicyclic>  (11) 
2

>  <fr_diazo>  (11) 
0

>  <fr_dihydropyridine>  (11) 
0

>  <fr_epoxide>  (11) 
0

>  <fr_ester>  (11) 
0

>  <fr_ether>  (11) 
2

>  <fr_furan>  (11) 
0

>  <fr_guanido>  (11) 
0

>  <fr_halogen>  (11) 
0

>  <fr_hdrzine>  (11) 
0

>  <fr_hdrzone>  (11) 
0

>  <fr_imidazole>  (11) 
0

>  <fr_imide>  (11) 
0

>  <fr_isocyan>  (11) 
0

>  <fr_isothiocyan>  (11) 
0

>  <fr_ketone>  (11) 
0

>  <fr_ketone_Topliss>  (11) 
0

>  <fr_lactam>  (11) 
0

>  <fr_lactone>  (11) 
0

>  <fr_methoxy>  (11) 
0

>  <fr_morpholine>  (11) 
0

>  <fr_nitrile>  (11) 
0

>  <fr_nitro>  (11) 
0

>  <fr_nitro_arom>  (11) 
0

>  <fr_nitro_arom_nonortho>  (11) 
0

>  <fr_nitroso>  (11) 
0

>  <fr_oxazole>  (11) 
0

>  <fr_oxime>  (11) 
0

>  <fr_para_hydroxylation>  (11) 
0

>  <fr_phenol>  (11) 
0

>  <fr_phenol_noOrthoHbond>  (11) 
0

>  <fr_phos_acid>  (11) 
0

>  <fr_phos_ester>  (11) 
0

>  <fr_piperdine>  (11) 
0

>  <fr_piperzine>  (11) 
1

>  <fr_priamide>  (11) 
0

>  <fr_prisulfonamd>  (11) 
0

>  <fr_pyridine>  (11) 
0

>  <fr_quatN>  (11) 
2

>  <fr_sulfide>  (11) 
0

>  <fr_sulfonamd>  (11) 
0

>  <fr_sulfone>  (11) 
0

>  <fr_term_acetylene>  (11) 
0

>  <fr_tetrazole>  (11) 
0

>  <fr_thiazole>  (11) 
0

>  <fr_thiocyan>  (11) 
0

>  <fr_thiophene>  (11) 
0

>  <fr_unbrch_alkane>  (11) 
0

>  <fr_urea>  (11) 
0

>  <NP_Likeness>  (11) 
0.401717

$$$$
F058
     RDKit          3D

  0  0  0  0  0  0  0  0  0  0999 V3000
M  V30 BEGIN CTAB
M  V30 COUNTS 36 38 0 0 0
M  V30 BEGIN ATOM
M  V30 1 O 8.257000 25.422000 -45.033000 0
M  V30 2 O 2.212000 25.460000 -46.675000 0
M  V30 3 O 8.621000 24.558000 -47.724000 0
M  V30 4 O 7.269000 26.141000 -48.685000 0
M  V30 5 N 6.727000 28.299000 -47.002000 0 CHG=1
M  V30 6 N 5.101000 25.476000 -46.818000 0 CHG=1
M  V30 7 C 2.827000 24.986000 -47.894000 0
M  V30 8 C 3.035000 26.002000 -45.635000 0
M  V30 9 C 9.375000 25.751000 -47.886000 0
M  V30 10 C 4.361000 24.872000 -47.947000 0
M  V30 11 C 4.416000 25.348000 -45.528000 0
M  V30 12 C 7.263000 24.864000 -48.049000 0 CFG=2
M  V30 13 C 7.228000 26.078000 -45.829000 0 CFG=1
M  V30 14 C 8.327000 26.832000 -47.992000 0 CFG=2
M  V30 15 C 7.776000 27.296000 -46.645000 0 CFG=1
M  V30 16 C 6.499000 25.025000 -46.713000 0 CFG=1
M  V30 17 H 7.854000 24.654600 -44.534400 0
M  V30 18 H 7.140400 29.207800 -47.059000 0
M  V30 19 H 6.324300 28.060000 -47.885600 0
M  V30 20 H 2.552000 25.610100 -48.625300 0
M  V30 21 H 2.456900 24.075100 -48.076400 0
M  V30 22 H 2.560900 25.879800 -44.763100 0
M  V30 23 H 3.162200 26.978100 -45.811300 0
M  V30 24 H 9.930000 25.710900 -48.716900 0
M  V30 25 H 9.968200 25.906900 -47.096200 0
M  V30 26 H 4.593600 23.899900 -47.978800 0
M  V30 27 H 4.670900 25.316600 -48.787400 0
M  V30 28 H 4.950200 25.805300 -44.817000 0
M  V30 29 H 4.312700 24.380600 -45.296900 0
M  V30 30 H 6.852300 24.161200 -48.629900 0
M  V30 31 H 6.550400 26.438700 -45.188000 0
M  V30 32 H 8.662400 27.606100 -48.528900 0
M  V30 33 H 8.502600 27.745100 -46.125100 0
M  V30 34 H 6.512300 24.147300 -46.234000 0
M  V30 35 H 6.014500 28.300300 -46.300300 0
M  V30 36 H 5.142700 26.456400 -47.010400 0
M  V30 END ATOM
M  V30 BEGIN BOND
M  V30 1 1 1 13
M  V30 2 1 2 7
M  V30 3 1 2 8
M  V30 4 1 3 9
M  V30 5 1 3 12
M  V30 6 1 4 12
M  V30 7 1 4 14
M  V30 8 1 5 15
M  V30 9 1 6 10
M  V30 10 1 6 11
M  V30 11 1 6 16
M  V30 12 1 7 10
M  V30 13 1 8 11
M  V30 14 1 9 14
M  V30 15 1 12 16
M  V30 16 1 13 15
M  V30 17 1 13 16
M  V30 18 1 14 15
M  V30 19 1 1 17
M  V30 20 1 5 18
M  V30 21 1 5 19
M  V30 22 1 7 20
M  V30 23 1 7 21
M  V30 24 1 8 22
M  V30 25 1 8 23
M  V30 26 1 9 24
M  V30 27 1 9 25
M  V30 28 1 10 26
M  V30 29 1 10 27
M  V30 30 1 11 28
M  V30 31 1 11 29
M  V30 32 1 12 30 CFG=3
M  V30 33 1 13 31 CFG=1
M  V30 34 1 14 32 CFG=3
M  V30 35 1 15 33 CFG=1
M  V30 36 1 16 34 CFG=1
M  V30 37 1 5 35
M  V30 38 1 6 36
M  V30 END BOND
M  V30 END CTAB
M  END
>  <Ligand_Instance>  (12) 
058_A_603

>  <Dataset>  (12) 
CF

>  <PDB_ID>  (12) 
None

>  <Chain>  (12) 
A

>  <Resi>  (12) 
603

>  <Num_Resolved_Atoms>  (12) 
16

>  <Num_H_Atoms_ProtBoundConf>  (12) 
20

>  <Pocket>  (12) 
X

>  <Name>  (12) 
(1S,2S,3S,4R,5R)‐2‐amino‐4‐(morpholin‐4‐yl)‐6,8‐dioxabicyclo[3.2.1]octan‐3‐ol

>  <Num_Not_Resolved_Atoms>  (12) 
0

>  <ATP_Site>  (12) 
False

>  <Peripheral>  (12) 
True

>  <Standardized_SMILES>  (12) 
[H]O[C@@]1([H])[C@]([H])([N+]([H])([H])[H])[C@]2([H])O[C@@]([H])(OC2([H])[H])[C@]1([H])[N+]1([H])C([H])([H])C([H])([H])OC([H])([H])C1([H])[H]

>  <2D_Mol_H>  (12) 
<rdkit.Chem.rdchem.Mol object at 0x77059d96ba70>

>  <MW>  (12) 
232.28

>  <HBA>  (12) 
4

>  <HBD>  (12) 
3

>  <LogP>  (12) 
-4.0034

>  <NRB>  (12) 
3

>  <TPSA>  (12) 
80.0

>  <Num_Heavy_Atoms>  (12) 
16

>  <Ro5>  (12) 
[True, True, True, True, True, True]

>  <Ro5_Fulfilled>  (12) 
True

>  <Ro3>  (12) 
[True, False, True, True]

>  <Ro3_Fulfilled>  (12) 
True

>  <Fsp3>  (12) 
1.0

>  <Fsp3_0.42>  (12) 
True

>  <Fsp3_0.45>  (12) 
True

>  <Stereogenic_Carbons>  (12) 
5

>  <C_Atoms>  (12) 
10

>  <FCStereo>  (12) 
0.5

>  <SPS>  (12) 
792

>  <nSPS>  (12) 
49.5

>  <PBF>  (12) 
0.96526

>  <PBF_0.6>  (12) 
True

>  <nPBF>  (12) 
0.060329

>  <nPBF_0.016>  (12) 
True

>  <PMI1>  (12) 
506.323818

>  <PMI2>  (12) 
1373.263845

>  <PMI3>  (12) 
1438.080559

>  <NPR1>  (12) 
0.352083

>  <NPR2>  (12) 
0.954928

>  <Sum_NPR>  (12) 
1.307011

>  <Sum_NPR_1.07>  (12) 
True

>  <Sum_NPR_1.2>  (12) 
True

>  <MaxAbsEStateIndex>  (12) 
10.286391

>  <MaxEStateIndex>  (12) 
10.286391

>  <MinAbsEStateIndex>  (12) 
0.00912

>  <MinEStateIndex>  (12) 
-0.431157

>  <qed>  (12) 
0.430336

>  <MolWt>  (12) 
232.28

>  <HeavyAtomMolWt>  (12) 
212.12

>  <ExactMolWt>  (12) 
232.14121

>  <NumValenceElectrons>  (12) 
92

>  <NumRadicalElectrons>  (12) 
0

>  <MaxPartialCharge>  (12) 
0.213669

>  <MinPartialCharge>  (12) 
-0.380906

>  <MaxAbsPartialCharge>  (12) 
0.380906

>  <MinAbsPartialCharge>  (12) 
0.213669

>  <FpDensityMorgan1>  (12) 
1.25

>  <FpDensityMorgan2>  (12) 
2.0

>  <FpDensityMorgan3>  (12) 
2.75

>  <BCUT2D_MWHI>  (12) 
16.730844

>  <BCUT2D_MWLOW>  (12) 
9.95382

>  <BCUT2D_CHGHI>  (12) 
2.549752

>  <BCUT2D_CHGLO>  (12) 
-2.393408

>  <BCUT2D_LOGPHI>  (12) 
2.244897

>  <BCUT2D_LOGPLOW>  (12) 
-3.206523

>  <BCUT2D_MRHI>  (12) 
4.918874

>  <BCUT2D_MRLOW>  (12) 
-0.944934

>  <AvgIpc>  (12) 
2.743224

>  <BalabanJ>  (12) 
1.760378

>  <BertzCT>  (12) 
259.203584

>  <Chi0>  (12) 
11.120956

>  <Chi0n>  (12) 
9.30135

>  <Chi0v>  (12) 
9.30135

>  <Chi1>  (12) 
7.770857

>  <Chi1n>  (12) 
5.976943

>  <Chi1v>  (12) 
5.976943

>  <Chi2n>  (12) 
4.82711

>  <Chi2v>  (12) 
4.82711

>  <Chi3n>  (12) 
3.917473

>  <Chi3v>  (12) 
3.917473

>  <Chi4n>  (12) 
2.901443

>  <Chi4v>  (12) 
2.901443

>  <HallKierAlpha>  (12) 
-0.24

>  <Ipc>  (12) 
9162.368958

>  <Kappa1>  (12) 
10.885365

>  <Kappa2>  (12) 
4.211449

>  <Kappa3>  (12) 
1.65794

>  <LabuteASA>  (12) 
94.24083

>  <PEOE_VSA1>  (12) 
29.950693

>  <PEOE_VSA10>  (12) 
25.23532

>  <PEOE_VSA11>  (12) 
12.145807

>  <PEOE_VSA12>  (12) 
6.290027

>  <PEOE_VSA13>  (12) 
0.0

>  <PEOE_VSA14>  (12) 
0.0

>  <PEOE_VSA2>  (12) 
0.0

>  <PEOE_VSA3>  (12) 
0.0

>  <PEOE_VSA4>  (12) 
0.0

>  <PEOE_VSA5>  (12) 
0.0

>  <PEOE_VSA6>  (12) 
0.0

>  <PEOE_VSA7>  (12) 
0.0

>  <PEOE_VSA8>  (12) 
0.0

>  <PEOE_VSA9>  (12) 
19.820646

>  <SMR_VSA1>  (12) 
29.950693

>  <SMR_VSA10>  (12) 
0.0

>  <SMR_VSA2>  (12) 
0.0

>  <SMR_VSA3>  (12) 
0.0

>  <SMR_VSA4>  (12) 
0.0

>  <SMR_VSA5>  (12) 
30.581641

>  <SMR_VSA6>  (12) 
32.910159

>  <SMR_VSA7>  (12) 
0.0

>  <SMR_VSA8>  (12) 
0.0

>  <SMR_VSA9>  (12) 
0.0

>  <SlogP_VSA1>  (12) 
10.633577

>  <SlogP_VSA10>  (12) 
0.0

>  <SlogP_VSA11>  (12) 
0.0

>  <SlogP_VSA12>  (12) 
0.0

>  <SlogP_VSA2>  (12) 
68.598327

>  <SlogP_VSA3>  (12) 
14.210589

>  <SlogP_VSA4>  (12) 
0.0

>  <SlogP_VSA5>  (12) 
0.0

>  <SlogP_VSA6>  (12) 
0.0

>  <SlogP_VSA7>  (12) 
0.0

>  <SlogP_VSA8>  (12) 
0.0

>  <SlogP_VSA9>  (12) 
0.0

>  <EState_VSA1>  (12) 
6.103966

>  <EState_VSA10>  (12) 
5.106527

>  <EState_VSA11>  (12) 
0.0

>  <EState_VSA2>  (12) 
24.477675

>  <EState_VSA3>  (12) 
6.606882

>  <EState_VSA4>  (12) 
26.303277

>  <EState_VSA5>  (12) 
4.89991

>  <EState_VSA6>  (12) 
0.0

>  <EState_VSA7>  (12) 
0.0

>  <EState_VSA8>  (12) 
5.733667

>  <EState_VSA9>  (12) 
14.210589

>  <VSA_EState1>  (12) 
16.671253

>  <VSA_EState10>  (12) 
0.0

>  <VSA_EState2>  (12) 
1.317361

>  <VSA_EState3>  (12) 
10.286391

>  <VSA_EState4>  (12) 
4.002949

>  <VSA_EState5>  (12) 
0.0

>  <VSA_EState6>  (12) 
-0.093292

>  <VSA_EState7>  (12) 
-0.72024

>  <VSA_EState8>  (12) 
3.868912

>  <VSA_EState9>  (12) 
0.0

>  <FractionCSP3>  (12) 
1.0

>  <HeavyAtomCount>  (12) 
16

>  <NHOHCount>  (12) 
5

>  <NOCount>  (12) 
6

>  <NumAliphaticCarbocycles>  (12) 
0

>  <NumAliphaticHeterocycles>  (12) 
3

>  <NumAliphaticRings>  (12) 
3

>  <NumAromaticCarbocycles>  (12) 
0

>  <NumAromaticHeterocycles>  (12) 
0

>  <NumAromaticRings>  (12) 
0

>  <NumHAcceptors>  (12) 
4

>  <NumHDonors>  (12) 
3

>  <NumHeteroatoms>  (12) 
6

>  <NumRotatableBonds>  (12) 
1

>  <NumSaturatedCarbocycles>  (12) 
0

>  <NumSaturatedHeterocycles>  (12) 
3

>  <NumSaturatedRings>  (12) 
3

>  <RingCount>  (12) 
3

>  <MolLogP>  (12) 
-4.0034

>  <MolMR>  (12) 
52.5996

>  <fr_Al_COO>  (12) 
0

>  <fr_Al_OH>  (12) 
1

>  <fr_Al_OH_noTert>  (12) 
1

>  <fr_ArN>  (12) 
0

>  <fr_Ar_COO>  (12) 
0

>  <fr_Ar_N>  (12) 
0

>  <fr_Ar_NH>  (12) 
0

>  <fr_Ar_OH>  (12) 
0

>  <fr_COO>  (12) 
0

>  <fr_COO2>  (12) 
0

>  <fr_C_O>  (12) 
0

>  <fr_C_O_noCOO>  (12) 
0

>  <fr_C_S>  (12) 
0

>  <fr_HOCCN>  (12) 
0

>  <fr_Imine>  (12) 
0

>  <fr_NH0>  (12) 
0

>  <fr_NH1>  (12) 
1

>  <fr_NH2>  (12) 
0

>  <fr_N_O>  (12) 
0

>  <fr_Ndealkylation1>  (12) 
0

>  <fr_Ndealkylation2>  (12) 
0

>  <fr_Nhpyrrole>  (12) 
0

>  <fr_SH>  (12) 
0

>  <fr_aldehyde>  (12) 
0

>  <fr_alkyl_carbamate>  (12) 
0

>  <fr_alkyl_halide>  (12) 
0

>  <fr_allylic_oxid>  (12) 
0

>  <fr_amide>  (12) 
0

>  <fr_amidine>  (12) 
0

>  <fr_aniline>  (12) 
0

>  <fr_aryl_methyl>  (12) 
0

>  <fr_azide>  (12) 
0

>  <fr_azo>  (12) 
0

>  <fr_barbitur>  (12) 
0

>  <fr_benzene>  (12) 
0

>  <fr_benzodiazepine>  (12) 
0

>  <fr_bicyclic>  (12) 
2

>  <fr_diazo>  (12) 
0

>  <fr_dihydropyridine>  (12) 
0

>  <fr_epoxide>  (12) 
0

>  <fr_ester>  (12) 
0

>  <fr_ether>  (12) 
3

>  <fr_furan>  (12) 
0

>  <fr_guanido>  (12) 
0

>  <fr_halogen>  (12) 
0

>  <fr_hdrzine>  (12) 
0

>  <fr_hdrzone>  (12) 
0

>  <fr_imidazole>  (12) 
0

>  <fr_imide>  (12) 
0

>  <fr_isocyan>  (12) 
0

>  <fr_isothiocyan>  (12) 
0

>  <fr_ketone>  (12) 
0

>  <fr_ketone_Topliss>  (12) 
0

>  <fr_lactam>  (12) 
0

>  <fr_lactone>  (12) 
0

>  <fr_methoxy>  (12) 
0

>  <fr_morpholine>  (12) 
1

>  <fr_nitrile>  (12) 
0

>  <fr_nitro>  (12) 
0

>  <fr_nitro_arom>  (12) 
0

>  <fr_nitro_arom_nonortho>  (12) 
0

>  <fr_nitroso>  (12) 
0

>  <fr_oxazole>  (12) 
0

>  <fr_oxime>  (12) 
0

>  <fr_para_hydroxylation>  (12) 
0

>  <fr_phenol>  (12) 
0

>  <fr_phenol_noOrthoHbond>  (12) 
0

>  <fr_phos_acid>  (12) 
0

>  <fr_phos_ester>  (12) 
0

>  <fr_piperdine>  (12) 
0

>  <fr_piperzine>  (12) 
0

>  <fr_priamide>  (12) 
0

>  <fr_prisulfonamd>  (12) 
0

>  <fr_pyridine>  (12) 
0

>  <fr_quatN>  (12) 
2

>  <fr_sulfide>  (12) 
0

>  <fr_sulfonamd>  (12) 
0

>  <fr_sulfone>  (12) 
0

>  <fr_term_acetylene>  (12) 
0

>  <fr_tetrazole>  (12) 
0

>  <fr_thiazole>  (12) 
0

>  <fr_thiocyan>  (12) 
0

>  <fr_thiophene>  (12) 
0

>  <fr_unbrch_alkane>  (12) 
0

>  <fr_urea>  (12) 
0

>  <NP_Likeness>  (12) 
0.681572

$$$$
F070
     RDKit          3D

  0  0  0  0  0  0  0  0  0  0999 V3000
M  V30 BEGIN CTAB
M  V30 COUNTS 34 36 0 0 0
M  V30 BEGIN ATOM
M  V30 1 O 11.381000 22.841000 -13.297000 0
M  V30 2 O 5.079000 22.753000 -14.350000 0
M  V30 3 N 4.381000 21.569000 -16.170000 0
M  V30 4 N 5.669000 21.471000 -16.140000 0
M  V30 5 N 0.949000 23.558000 -16.240000 0 CHG=1
M  V30 6 C 11.735000 22.408000 -11.990000 0
M  V30 7 C 2.134000 24.439000 -16.196000 0
M  V30 8 C 1.414000 22.318000 -15.560000 0
M  V30 9 C 2.576000 24.284000 -14.762000 0
M  V30 10 C 9.794000 22.296000 -14.935000 0
M  V30 11 C 8.987000 22.925000 -12.835000 0
M  V30 12 C 8.532000 22.126000 -15.381000 0
M  V30 13 C 7.715000 22.751000 -13.272000 0
M  V30 14 C 4.001000 22.339000 -15.098000 0
M  V30 15 C 6.104000 22.171000 -15.023000 0
M  V30 16 C 10.045000 22.702000 -13.660000 0
M  V30 17 C 2.619000 22.754000 -14.709000 0 CFG=2
M  V30 18 C 7.473000 22.346000 -14.564000 0
M  V30 19 H 0.679100 23.368500 -17.184100 0
M  V30 20 H 12.713100 22.556000 -11.843300 0
M  V30 21 H 11.214000 22.928800 -11.313800 0
M  V30 22 H 11.527000 21.434600 -11.893600 0
M  V30 23 H 1.891500 25.386900 -16.402400 0
M  V30 24 H 2.841900 24.130100 -16.831200 0
M  V30 25 H 1.689600 21.631200 -16.232600 0
M  V30 26 H 0.691000 21.944200 -14.979000 0
M  V30 27 H 1.912300 24.665800 -14.118800 0
M  V30 28 H 3.473500 24.693100 -14.597000 0
M  V30 29 H 10.560100 22.120300 -15.553200 0
M  V30 30 H 9.149200 23.221200 -11.893700 0
M  V30 31 H 8.376200 21.834500 -16.324800 0
M  V30 32 H 6.948800 22.918100 -12.651500 0
M  V30 33 H 2.458000 22.466900 -13.764700 0
M  V30 34 H 0.180100 23.968000 -15.749400 0
M  V30 END ATOM
M  V30 BEGIN BOND
M  V30 1 1 1 6
M  V30 2 1 1 16
M  V30 3 1 2 14
M  V30 4 1 2 15
M  V30 5 1 3 4
M  V30 6 2 3 14
M  V30 7 2 4 15
M  V30 8 1 5 7
M  V30 9 1 5 8
M  V30 10 1 7 9
M  V30 11 1 8 17
M  V30 12 1 9 17
M  V30 13 2 10 12
M  V30 14 1 10 16
M  V30 15 1 11 13
M  V30 16 2 11 16
M  V30 17 1 12 18
M  V30 18 2 13 18
M  V30 19 1 14 17
M  V30 20 1 15 18
M  V30 21 1 5 19
M  V30 22 1 6 20
M  V30 23 1 6 21
M  V30 24 1 6 22
M  V30 25 1 7 23
M  V30 26 1 7 24
M  V30 27 1 8 25
M  V30 28 1 8 26
M  V30 29 1 9 27
M  V30 30 1 9 28
M  V30 31 1 10 29
M  V30 32 1 11 30
M  V30 33 1 12 31
M  V30 34 1 13 32
M  V30 35 1 17 33 CFG=1
M  V30 36 1 5 34
M  V30 END BOND
M  V30 END CTAB
M  END
>  <Ligand_Instance>  (13) 
070_A_1602

>  <Dataset>  (13) 
CF

>  <PDB_ID>  (13) 
None

>  <Chain>  (13) 
A

>  <Resi>  (13) 
1602

>  <Num_Resolved_Atoms>  (13) 
18

>  <Num_H_Atoms_ProtBoundConf>  (13) 
16

>  <Pocket>  (13) 
X

>  <Name>  (13) 
2‐(4‐methoxyphenyl)‐5‐[(3S)‐pyrrolidin‐3‐yl]‐1,3,4‐oxadiazole

>  <Num_Not_Resolved_Atoms>  (13) 
0

>  <ATP_Site>  (13) 
True

>  <Peripheral>  (13) 
True

>  <Standardized_SMILES>  (13) 
[H]C1=C([H])C(C2=NN=C([C@@]3([H])C([H])([H])C([H])([H])[N+]([H])([H])C3([H])[H])O2)=C([H])C([H])=C1OC([H])([H])[H]

>  <2D_Mol_H>  (13) 
<rdkit.Chem.rdchem.Mol object at 0x77059d96bb50>

>  <MW>  (13) 
246.29

>  <HBA>  (13) 
4

>  <HBD>  (13) 
1

>  <LogP>  (13) 
0.7959

>  <NRB>  (13) 
4

>  <TPSA>  (13) 
64.76

>  <Num_Heavy_Atoms>  (13) 
18

>  <Ro5>  (13) 
[True, True, True, True, True, True]

>  <Ro5_Fulfilled>  (13) 
True

>  <Ro3>  (13) 
[True, False, True, True]

>  <Ro3_Fulfilled>  (13) 
True

>  <Fsp3>  (13) 
0.384615

>  <Fsp3_0.42>  (13) 
False

>  <Fsp3_0.45>  (13) 
False

>  <Stereogenic_Carbons>  (13) 
1

>  <C_Atoms>  (13) 
13

>  <FCStereo>  (13) 
0.076923

>  <SPS>  (13) 
343

>  <nSPS>  (13) 
19.055556

>  <PBF>  (13) 
0.654985

>  <PBF_0.6>  (13) 
True

>  <nPBF>  (13) 
0.036388

>  <nPBF_0.016>  (13) 
True

>  <PMI1>  (13) 
316.627479

>  <PMI2>  (13) 
3282.560792

>  <PMI3>  (13) 
3418.570259

>  <NPR1>  (13) 
0.09262

>  <NPR2>  (13) 
0.960215

>  <Sum_NPR>  (13) 
1.052834

>  <Sum_NPR_1.07>  (13) 
False

>  <Sum_NPR_1.2>  (13) 
False

>  <MaxAbsEStateIndex>  (13) 
5.744086

>  <MaxEStateIndex>  (13) 
5.744086

>  <MinAbsEStateIndex>  (13) 
0.406943

>  <MinEStateIndex>  (13) 
0.406943

>  <qed>  (13) 
0.86951

>  <MolWt>  (13) 
246.29

>  <HeavyAtomMolWt>  (13) 
230.162

>  <ExactMolWt>  (13) 
246.123703

>  <NumValenceElectrons>  (13) 
94

>  <NumRadicalElectrons>  (13) 
0

>  <MaxPartialCharge>  (13) 
0.247258

>  <MinPartialCharge>  (13) 
-0.496768

>  <MaxAbsPartialCharge>  (13) 
0.496768

>  <MinAbsPartialCharge>  (13) 
0.247258

>  <FpDensityMorgan1>  (13) 
1.277778

>  <FpDensityMorgan2>  (13) 
2.111111

>  <FpDensityMorgan3>  (13) 
2.777778

>  <BCUT2D_MWHI>  (13) 
16.465362

>  <BCUT2D_MWLOW>  (13) 
10.116688

>  <BCUT2D_CHGHI>  (13) 
2.252362

>  <BCUT2D_CHGLO>  (13) 
-1.996533

>  <BCUT2D_LOGPHI>  (13) 
2.245213

>  <BCUT2D_LOGPLOW>  (13) 
-2.806771

>  <BCUT2D_MRHI>  (13) 
5.534828

>  <BCUT2D_MRLOW>  (13) 
-0.636309

>  <AvgIpc>  (13) 
3.092001

>  <BalabanJ>  (13) 
1.824765

>  <BertzCT>  (13) 
515.287556

>  <Chi0>  (13) 
12.372033

>  <Chi0n>  (13) 
10.296346

>  <Chi0v>  (13) 
10.296346

>  <Chi1>  (13) 
8.864505

>  <Chi1n>  (13) 
6.16087

>  <Chi1v>  (13) 
6.16087

>  <Chi2n>  (13) 
4.472605

>  <Chi2v>  (13) 
4.472605

>  <Chi3n>  (13) 
3.297275

>  <Chi3v>  (13) 
3.297275

>  <Chi4n>  (13) 
2.23002

>  <Chi4v>  (13) 
2.23002

>  <HallKierAlpha>  (13) 
-1.88

>  <Ipc>  (13) 
32317.589761

>  <Kappa1>  (13) 
11.224118

>  <Kappa2>  (13) 
4.777293

>  <Kappa3>  (13) 
2.087778

>  <LabuteASA>  (13) 
105.172863

>  <PEOE_VSA1>  (13) 
14.470802

>  <PEOE_VSA10>  (13) 
5.749512

>  <PEOE_VSA11>  (13) 
0.0

>  <PEOE_VSA12>  (13) 
11.781448

>  <PEOE_VSA13>  (13) 
0.0

>  <PEOE_VSA14>  (13) 
0.0

>  <PEOE_VSA2>  (13) 
0.0

>  <PEOE_VSA3>  (13) 
0.0

>  <PEOE_VSA4>  (13) 
0.0

>  <PEOE_VSA5>  (13) 
10.197364

>  <PEOE_VSA6>  (13) 
0.0

>  <PEOE_VSA7>  (13) 
24.265468

>  <PEOE_VSA8>  (13) 
11.984273

>  <PEOE_VSA9>  (13) 
26.117216

>  <SMR_VSA1>  (13) 
14.470802

>  <SMR_VSA10>  (13) 
0.0

>  <SMR_VSA2>  (13) 
0.0

>  <SMR_VSA3>  (13) 
10.197364

>  <SMR_VSA4>  (13) 
0.0

>  <SMR_VSA5>  (13) 
12.338728

>  <SMR_VSA6>  (13) 
20.19931

>  <SMR_VSA7>  (13) 
30.156192

>  <SMR_VSA8>  (13) 
0.0

>  <SMR_VSA9>  (13) 
17.203687

>  <SlogP_VSA1>  (13) 
10.053652

>  <SlogP_VSA10>  (13) 
0.0

>  <SlogP_VSA11>  (13) 
5.749512

>  <SlogP_VSA12>  (13) 
0.0

>  <SlogP_VSA2>  (13) 
30.396674

>  <SlogP_VSA3>  (13) 
0.0

>  <SlogP_VSA4>  (13) 
0.0

>  <SlogP_VSA5>  (13) 
18.229452

>  <SlogP_VSA6>  (13) 
28.682619

>  <SlogP_VSA7>  (13) 
0.0

>  <SlogP_VSA8>  (13) 
11.454175

>  <SlogP_VSA9>  (13) 
0.0

>  <EState_VSA1>  (13) 
0.0

>  <EState_VSA10>  (13) 
0.0

>  <EState_VSA11>  (13) 
0.0

>  <EState_VSA2>  (13) 
0.0

>  <EState_VSA3>  (13) 
11.80863

>  <EState_VSA4>  (13) 
36.714022

>  <EState_VSA5>  (13) 
0.0

>  <EState_VSA6>  (13) 
7.109798

>  <EState_VSA7>  (13) 
24.265468

>  <EState_VSA8>  (13) 
15.514152

>  <EState_VSA9>  (13) 
9.154014

>  <VSA_EState1>  (13) 
10.864849

>  <VSA_EState10>  (13) 
0.0

>  <VSA_EState2>  (13) 
0.0

>  <VSA_EState3>  (13) 
10.544071

>  <VSA_EState4>  (13) 
0.927339

>  <VSA_EState5>  (13) 
2.57176

>  <VSA_EState6>  (13) 
7.637803

>  <VSA_EState7>  (13) 
1.115323

>  <VSA_EState8>  (13) 
2.189645

>  <VSA_EState9>  (13) 
1.649209

>  <FractionCSP3>  (13) 
0.384615

>  <HeavyAtomCount>  (13) 
18

>  <NHOHCount>  (13) 
2

>  <NOCount>  (13) 
5

>  <NumAliphaticCarbocycles>  (13) 
0

>  <NumAliphaticHeterocycles>  (13) 
1

>  <NumAliphaticRings>  (13) 
1

>  <NumAromaticCarbocycles>  (13) 
1

>  <NumAromaticHeterocycles>  (13) 
1

>  <NumAromaticRings>  (13) 
2

>  <NumHAcceptors>  (13) 
4

>  <NumHDonors>  (13) 
1

>  <NumHeteroatoms>  (13) 
5

>  <NumRotatableBonds>  (13) 
3

>  <NumSaturatedCarbocycles>  (13) 
0

>  <NumSaturatedHeterocycles>  (13) 
1

>  <NumSaturatedRings>  (13) 
1

>  <RingCount>  (13) 
3

>  <MolLogP>  (13) 
0.7959

>  <MolMR>  (13) 
65.3034

>  <fr_Al_COO>  (13) 
0

>  <fr_Al_OH>  (13) 
0

>  <fr_Al_OH_noTert>  (13) 
0

>  <fr_ArN>  (13) 
0

>  <fr_Ar_COO>  (13) 
0

>  <fr_Ar_N>  (13) 
2

>  <fr_Ar_NH>  (13) 
0

>  <fr_Ar_OH>  (13) 
0

>  <fr_COO>  (13) 
0

>  <fr_COO2>  (13) 
0

>  <fr_C_O>  (13) 
0

>  <fr_C_O_noCOO>  (13) 
0

>  <fr_C_S>  (13) 
0

>  <fr_HOCCN>  (13) 
0

>  <fr_Imine>  (13) 
0

>  <fr_NH0>  (13) 
2

>  <fr_NH1>  (13) 
0

>  <fr_NH2>  (13) 
1

>  <fr_N_O>  (13) 
0

>  <fr_Ndealkylation1>  (13) 
0

>  <fr_Ndealkylation2>  (13) 
0

>  <fr_Nhpyrrole>  (13) 
0

>  <fr_SH>  (13) 
0

>  <fr_aldehyde>  (13) 
0

>  <fr_alkyl_carbamate>  (13) 
0

>  <fr_alkyl_halide>  (13) 
0

>  <fr_allylic_oxid>  (13) 
0

>  <fr_amide>  (13) 
0

>  <fr_amidine>  (13) 
0

>  <fr_aniline>  (13) 
0

>  <fr_aryl_methyl>  (13) 
0

>  <fr_azide>  (13) 
0

>  <fr_azo>  (13) 
0

>  <fr_barbitur>  (13) 
0

>  <fr_benzene>  (13) 
1

>  <fr_benzodiazepine>  (13) 
0

>  <fr_bicyclic>  (13) 
0

>  <fr_diazo>  (13) 
0

>  <fr_dihydropyridine>  (13) 
0

>  <fr_epoxide>  (13) 
0

>  <fr_ester>  (13) 
0

>  <fr_ether>  (13) 
1

>  <fr_furan>  (13) 
0

>  <fr_guanido>  (13) 
0

>  <fr_halogen>  (13) 
0

>  <fr_hdrzine>  (13) 
0

>  <fr_hdrzone>  (13) 
0

>  <fr_imidazole>  (13) 
0

>  <fr_imide>  (13) 
0

>  <fr_isocyan>  (13) 
0

>  <fr_isothiocyan>  (13) 
0

>  <fr_ketone>  (13) 
0

>  <fr_ketone_Topliss>  (13) 
0

>  <fr_lactam>  (13) 
0

>  <fr_lactone>  (13) 
0

>  <fr_methoxy>  (13) 
1

>  <fr_morpholine>  (13) 
0

>  <fr_nitrile>  (13) 
0

>  <fr_nitro>  (13) 
0

>  <fr_nitro_arom>  (13) 
0

>  <fr_nitro_arom_nonortho>  (13) 
0

>  <fr_nitroso>  (13) 
0

>  <fr_oxazole>  (13) 
0

>  <fr_oxime>  (13) 
0

>  <fr_para_hydroxylation>  (13) 
0

>  <fr_phenol>  (13) 
0

>  <fr_phenol_noOrthoHbond>  (13) 
0

>  <fr_phos_acid>  (13) 
0

>  <fr_phos_ester>  (13) 
0

>  <fr_piperdine>  (13) 
0

>  <fr_piperzine>  (13) 
0

>  <fr_priamide>  (13) 
0

>  <fr_prisulfonamd>  (13) 
0

>  <fr_pyridine>  (13) 
0

>  <fr_quatN>  (13) 
1

>  <fr_sulfide>  (13) 
0

>  <fr_sulfonamd>  (13) 
0

>  <fr_sulfone>  (13) 
0

>  <fr_term_acetylene>  (13) 
0

>  <fr_tetrazole>  (13) 
0

>  <fr_thiazole>  (13) 
0

>  <fr_thiocyan>  (13) 
0

>  <fr_thiophene>  (13) 
0

>  <fr_unbrch_alkane>  (13) 
0

>  <fr_urea>  (13) 
0

>  <NP_Likeness>  (13) 
-0.979693

$$$$
F070
     RDKit          3D

  0  0  0  0  0  0  0  0  0  0999 V3000
M  V30 BEGIN CTAB
M  V30 COUNTS 34 36 0 0 0
M  V30 BEGIN ATOM
M  V30 1 O -17.104000 3.686000 -20.824000 0
M  V30 2 O -10.841000 3.392000 -19.070000 0
M  V30 3 N -10.125000 1.327000 -18.497000 0
M  V30 4 N -11.374000 1.250000 -18.769000 0
M  V30 5 N -6.721000 1.914000 -19.793000 0 CHG=1
M  V30 6 C -17.243000 5.011000 -21.317000 0
M  V30 7 C -6.731000 1.222000 -18.499000 0
M  V30 8 C -7.491000 3.169000 -19.687000 0
M  V30 9 C -7.486000 2.163000 -17.555000 0
M  V30 10 C -14.890000 4.339000 -20.053000 0
M  V30 11 C -15.350000 2.076000 -20.139000 0
M  V30 12 C -13.598000 4.061000 -19.678000 0
M  V30 13 C -14.102000 1.804000 -19.671000 0
M  V30 14 C -9.759000 2.626000 -18.652000 0
M  V30 15 C -11.845000 2.489000 -19.076000 0
M  V30 16 C -15.796000 3.364000 -20.363000 0
M  V30 17 C -8.341000 3.093000 -18.425000 0 CFG=2
M  V30 18 C -13.204000 2.789000 -19.473000 0
M  V30 19 H -7.135400 1.326600 -20.488100 0
M  V30 20 H -18.184900 5.157000 -21.619400 0
M  V30 21 H -17.021400 5.661800 -20.590800 0
M  V30 22 H -16.620600 5.146900 -22.087800 0
M  V30 23 H -5.797600 1.071300 -18.173300 0
M  V30 24 H -7.204000 0.344000 -18.573100 0
M  V30 25 H -8.080700 3.274300 -20.487800 0
M  V30 26 H -6.865700 3.947200 -19.628900 0
M  V30 27 H -6.837000 2.699700 -17.015800 0
M  V30 28 H -8.072100 1.634000 -16.941200 0
M  V30 29 H -15.179700 5.294900 -20.101200 0
M  V30 30 H -15.968800 1.313600 -20.328300 0
M  V30 31 H -12.944900 4.808500 -19.556200 0
M  V30 32 H -13.846900 0.858000 -19.470700 0
M  V30 33 H -8.365400 3.997700 -17.999600 0
M  V30 34 H -5.777900 2.122600 -20.052000 0
M  V30 END ATOM
M  V30 BEGIN BOND
M  V30 1 1 1 6
M  V30 2 1 1 16
M  V30 3 1 2 14
M  V30 4 1 2 15
M  V30 5 1 3 4
M  V30 6 2 3 14
M  V30 7 2 4 15
M  V30 8 1 5 7
M  V30 9 1 5 8
M  V30 10 1 7 9
M  V30 11 1 8 17
M  V30 12 1 9 17
M  V30 13 2 10 12
M  V30 14 1 10 16
M  V30 15 1 11 13
M  V30 16 2 11 16
M  V30 17 1 12 18
M  V30 18 2 13 18
M  V30 19 1 14 17
M  V30 20 1 15 18
M  V30 21 1 5 19
M  V30 22 1 6 20
M  V30 23 1 6 21
M  V30 24 1 6 22
M  V30 25 1 7 23
M  V30 26 1 7 24
M  V30 27 1 8 25
M  V30 28 1 8 26
M  V30 29 1 9 27
M  V30 30 1 9 28
M  V30 31 1 10 29
M  V30 32 1 11 30
M  V30 33 1 12 31
M  V30 34 1 13 32
M  V30 35 1 17 33 CFG=1
M  V30 36 1 5 34
M  V30 END BOND
M  V30 END CTAB
M  END
>  <Ligand_Instance>  (14) 
070_A_1605

>  <Dataset>  (14) 
CF

>  <PDB_ID>  (14) 
None

>  <Chain>  (14) 
A

>  <Resi>  (14) 
1605

>  <Num_Resolved_Atoms>  (14) 
18

>  <Num_H_Atoms_ProtBoundConf>  (14) 
16

>  <Pocket>  (14) 
A

>  <Name>  (14) 
2‐(4‐methoxyphenyl)‐5‐[(3S)‐pyrrolidin‐3‐yl]‐1,3,4‐oxadiazole

>  <Num_Not_Resolved_Atoms>  (14) 
0

>  <ATP_Site>  (14) 
True

>  <Peripheral>  (14) 
True

>  <Standardized_SMILES>  (14) 
[H]C1=C([H])C(C2=NN=C([C@@]3([H])C([H])([H])C([H])([H])[N+]([H])([H])C3([H])[H])O2)=C([H])C([H])=C1OC([H])([H])[H]

>  <2D_Mol_H>  (14) 
<rdkit.Chem.rdchem.Mol object at 0x77059d96bc30>

>  <MW>  (14) 
246.29

>  <HBA>  (14) 
4

>  <HBD>  (14) 
1

>  <LogP>  (14) 
0.7959

>  <NRB>  (14) 
4

>  <TPSA>  (14) 
64.76

>  <Num_Heavy_Atoms>  (14) 
18

>  <Ro5>  (14) 
[True, True, True, True, True, True]

>  <Ro5_Fulfilled>  (14) 
True

>  <Ro3>  (14) 
[True, False, True, True]

>  <Ro3_Fulfilled>  (14) 
True

>  <Fsp3>  (14) 
0.384615

>  <Fsp3_0.42>  (14) 
False

>  <Fsp3_0.45>  (14) 
False

>  <Stereogenic_Carbons>  (14) 
1

>  <C_Atoms>  (14) 
13

>  <FCStereo>  (14) 
0.076923

>  <SPS>  (14) 
343

>  <nSPS>  (14) 
19.055556

>  <PBF>  (14) 
0.655628

>  <PBF_0.6>  (14) 
True

>  <nPBF>  (14) 
0.036424

>  <nPBF_0.016>  (14) 
True

>  <PMI1>  (14) 
304.491462

>  <PMI2>  (14) 
3402.317339

>  <PMI3>  (14) 
3546.306884

>  <NPR1>  (14) 
0.085862

>  <NPR2>  (14) 
0.959397

>  <Sum_NPR>  (14) 
1.045259

>  <Sum_NPR_1.07>  (14) 
False

>  <Sum_NPR_1.2>  (14) 
False

>  <MaxAbsEStateIndex>  (14) 
5.744086

>  <MaxEStateIndex>  (14) 
5.744086

>  <MinAbsEStateIndex>  (14) 
0.406943

>  <MinEStateIndex>  (14) 
0.406943

>  <qed>  (14) 
0.86951

>  <MolWt>  (14) 
246.29

>  <HeavyAtomMolWt>  (14) 
230.162

>  <ExactMolWt>  (14) 
246.123703

>  <NumValenceElectrons>  (14) 
94

>  <NumRadicalElectrons>  (14) 
0

>  <MaxPartialCharge>  (14) 
0.247258

>  <MinPartialCharge>  (14) 
-0.496768

>  <MaxAbsPartialCharge>  (14) 
0.496768

>  <MinAbsPartialCharge>  (14) 
0.247258

>  <FpDensityMorgan1>  (14) 
1.277778

>  <FpDensityMorgan2>  (14) 
2.111111

>  <FpDensityMorgan3>  (14) 
2.777778

>  <BCUT2D_MWHI>  (14) 
16.465362

>  <BCUT2D_MWLOW>  (14) 
10.116688

>  <BCUT2D_CHGHI>  (14) 
2.252362

>  <BCUT2D_CHGLO>  (14) 
-1.996533

>  <BCUT2D_LOGPHI>  (14) 
2.245213

>  <BCUT2D_LOGPLOW>  (14) 
-2.806771

>  <BCUT2D_MRHI>  (14) 
5.534828

>  <BCUT2D_MRLOW>  (14) 
-0.636309

>  <AvgIpc>  (14) 
3.092001

>  <BalabanJ>  (14) 
1.824765

>  <BertzCT>  (14) 
515.287556

>  <Chi0>  (14) 
12.372033

>  <Chi0n>  (14) 
10.296346

>  <Chi0v>  (14) 
10.296346

>  <Chi1>  (14) 
8.864505

>  <Chi1n>  (14) 
6.16087

>  <Chi1v>  (14) 
6.16087

>  <Chi2n>  (14) 
4.472605

>  <Chi2v>  (14) 
4.472605

>  <Chi3n>  (14) 
3.297275

>  <Chi3v>  (14) 
3.297275

>  <Chi4n>  (14) 
2.23002

>  <Chi4v>  (14) 
2.23002

>  <HallKierAlpha>  (14) 
-1.88

>  <Ipc>  (14) 
32317.589761

>  <Kappa1>  (14) 
11.224118

>  <Kappa2>  (14) 
4.777293

>  <Kappa3>  (14) 
2.087778

>  <LabuteASA>  (14) 
105.172863

>  <PEOE_VSA1>  (14) 
14.470802

>  <PEOE_VSA10>  (14) 
5.749512

>  <PEOE_VSA11>  (14) 
0.0

>  <PEOE_VSA12>  (14) 
11.781448

>  <PEOE_VSA13>  (14) 
0.0

>  <PEOE_VSA14>  (14) 
0.0

>  <PEOE_VSA2>  (14) 
0.0

>  <PEOE_VSA3>  (14) 
0.0

>  <PEOE_VSA4>  (14) 
0.0

>  <PEOE_VSA5>  (14) 
10.197364

>  <PEOE_VSA6>  (14) 
0.0

>  <PEOE_VSA7>  (14) 
24.265468

>  <PEOE_VSA8>  (14) 
11.984273

>  <PEOE_VSA9>  (14) 
26.117216

>  <SMR_VSA1>  (14) 
14.470802

>  <SMR_VSA10>  (14) 
0.0

>  <SMR_VSA2>  (14) 
0.0

>  <SMR_VSA3>  (14) 
10.197364

>  <SMR_VSA4>  (14) 
0.0

>  <SMR_VSA5>  (14) 
12.338728

>  <SMR_VSA6>  (14) 
20.19931

>  <SMR_VSA7>  (14) 
30.156192

>  <SMR_VSA8>  (14) 
0.0

>  <SMR_VSA9>  (14) 
17.203687

>  <SlogP_VSA1>  (14) 
10.053652

>  <SlogP_VSA10>  (14) 
0.0

>  <SlogP_VSA11>  (14) 
5.749512

>  <SlogP_VSA12>  (14) 
0.0

>  <SlogP_VSA2>  (14) 
30.396674

>  <SlogP_VSA3>  (14) 
0.0

>  <SlogP_VSA4>  (14) 
0.0

>  <SlogP_VSA5>  (14) 
18.229452

>  <SlogP_VSA6>  (14) 
28.682619

>  <SlogP_VSA7>  (14) 
0.0

>  <SlogP_VSA8>  (14) 
11.454175

>  <SlogP_VSA9>  (14) 
0.0

>  <EState_VSA1>  (14) 
0.0

>  <EState_VSA10>  (14) 
0.0

>  <EState_VSA11>  (14) 
0.0

>  <EState_VSA2>  (14) 
0.0

>  <EState_VSA3>  (14) 
11.80863

>  <EState_VSA4>  (14) 
36.714022

>  <EState_VSA5>  (14) 
0.0

>  <EState_VSA6>  (14) 
7.109798

>  <EState_VSA7>  (14) 
24.265468

>  <EState_VSA8>  (14) 
15.514152

>  <EState_VSA9>  (14) 
9.154014

>  <VSA_EState1>  (14) 
10.864849

>  <VSA_EState10>  (14) 
0.0

>  <VSA_EState2>  (14) 
0.0

>  <VSA_EState3>  (14) 
10.544071

>  <VSA_EState4>  (14) 
0.927339

>  <VSA_EState5>  (14) 
2.57176

>  <VSA_EState6>  (14) 
7.637803

>  <VSA_EState7>  (14) 
1.115323

>  <VSA_EState8>  (14) 
2.189645

>  <VSA_EState9>  (14) 
1.649209

>  <FractionCSP3>  (14) 
0.384615

>  <HeavyAtomCount>  (14) 
18

>  <NHOHCount>  (14) 
2

>  <NOCount>  (14) 
5

>  <NumAliphaticCarbocycles>  (14) 
0

>  <NumAliphaticHeterocycles>  (14) 
1

>  <NumAliphaticRings>  (14) 
1

>  <NumAromaticCarbocycles>  (14) 
1

>  <NumAromaticHeterocycles>  (14) 
1

>  <NumAromaticRings>  (14) 
2

>  <NumHAcceptors>  (14) 
4

>  <NumHDonors>  (14) 
1

>  <NumHeteroatoms>  (14) 
5

>  <NumRotatableBonds>  (14) 
3

>  <NumSaturatedCarbocycles>  (14) 
0

>  <NumSaturatedHeterocycles>  (14) 
1

>  <NumSaturatedRings>  (14) 
1

>  <RingCount>  (14) 
3

>  <MolLogP>  (14) 
0.7959

>  <MolMR>  (14) 
65.3034

>  <fr_Al_COO>  (14) 
0

>  <fr_Al_OH>  (14) 
0

>  <fr_Al_OH_noTert>  (14) 
0

>  <fr_ArN>  (14) 
0

>  <fr_Ar_COO>  (14) 
0

>  <fr_Ar_N>  (14) 
2

>  <fr_Ar_NH>  (14) 
0

>  <fr_Ar_OH>  (14) 
0

>  <fr_COO>  (14) 
0

>  <fr_COO2>  (14) 
0

>  <fr_C_O>  (14) 
0

>  <fr_C_O_noCOO>  (14) 
0

>  <fr_C_S>  (14) 
0

>  <fr_HOCCN>  (14) 
0

>  <fr_Imine>  (14) 
0

>  <fr_NH0>  (14) 
2

>  <fr_NH1>  (14) 
0

>  <fr_NH2>  (14) 
1

>  <fr_N_O>  (14) 
0

>  <fr_Ndealkylation1>  (14) 
0

>  <fr_Ndealkylation2>  (14) 
0

>  <fr_Nhpyrrole>  (14) 
0

>  <fr_SH>  (14) 
0

>  <fr_aldehyde>  (14) 
0

>  <fr_alkyl_carbamate>  (14) 
0

>  <fr_alkyl_halide>  (14) 
0

>  <fr_allylic_oxid>  (14) 
0

>  <fr_amide>  (14) 
0

>  <fr_amidine>  (14) 
0

>  <fr_aniline>  (14) 
0

>  <fr_aryl_methyl>  (14) 
0

>  <fr_azide>  (14) 
0

>  <fr_azo>  (14) 
0

>  <fr_barbitur>  (14) 
0

>  <fr_benzene>  (14) 
1

>  <fr_benzodiazepine>  (14) 
0

>  <fr_bicyclic>  (14) 
0

>  <fr_diazo>  (14) 
0

>  <fr_dihydropyridine>  (14) 
0

>  <fr_epoxide>  (14) 
0

>  <fr_ester>  (14) 
0

>  <fr_ether>  (14) 
1

>  <fr_furan>  (14) 
0

>  <fr_guanido>  (14) 
0

>  <fr_halogen>  (14) 
0

>  <fr_hdrzine>  (14) 
0

>  <fr_hdrzone>  (14) 
0

>  <fr_imidazole>  (14) 
0

>  <fr_imide>  (14) 
0

>  <fr_isocyan>  (14) 
0

>  <fr_isothiocyan>  (14) 
0

>  <fr_ketone>  (14) 
0

>  <fr_ketone_Topliss>  (14) 
0

>  <fr_lactam>  (14) 
0

>  <fr_lactone>  (14) 
0

>  <fr_methoxy>  (14) 
1

>  <fr_morpholine>  (14) 
0

>  <fr_nitrile>  (14) 
0

>  <fr_nitro>  (14) 
0

>  <fr_nitro_arom>  (14) 
0

>  <fr_nitro_arom_nonortho>  (14) 
0

>  <fr_nitroso>  (14) 
0

>  <fr_oxazole>  (14) 
0

>  <fr_oxime>  (14) 
0

>  <fr_para_hydroxylation>  (14) 
0

>  <fr_phenol>  (14) 
0

>  <fr_phenol_noOrthoHbond>  (14) 
0

>  <fr_phos_acid>  (14) 
0

>  <fr_phos_ester>  (14) 
0

>  <fr_piperdine>  (14) 
0

>  <fr_piperzine>  (14) 
0

>  <fr_priamide>  (14) 
0

>  <fr_prisulfonamd>  (14) 
0

>  <fr_pyridine>  (14) 
0

>  <fr_quatN>  (14) 
1

>  <fr_sulfide>  (14) 
0

>  <fr_sulfonamd>  (14) 
0

>  <fr_sulfone>  (14) 
0

>  <fr_term_acetylene>  (14) 
0

>  <fr_tetrazole>  (14) 
0

>  <fr_thiazole>  (14) 
0

>  <fr_thiocyan>  (14) 
0

>  <fr_thiophene>  (14) 
0

>  <fr_unbrch_alkane>  (14) 
0

>  <fr_urea>  (14) 
0

>  <NP_Likeness>  (14) 
-0.979693

$$$$
F073
     RDKit          3D

  0  0  0  0  0  0  0  0  0  0999 V3000
M  V30 BEGIN CTAB
M  V30 COUNTS 30 32 0 0 0
M  V30 BEGIN ATOM
M  V30 1 Cl -17.236000 4.441000 -20.536000 0
M  V30 2 O -10.803000 3.449000 -18.862000 0
M  V30 3 N -7.272000 2.775000 -20.283000 0 CHG=1
M  V30 4 N -10.095000 1.469000 -18.221000 0
M  V30 5 N -11.469000 1.384000 -18.469000 0
M  V30 6 C -6.754000 1.821000 -19.257000 0
M  V30 7 C -7.872000 3.955000 -19.579000 0
M  V30 8 C -7.279000 2.359000 -17.945000 0
M  V30 9 C -15.440000 2.540000 -19.898000 0
M  V30 10 C -14.687000 4.823000 -19.764000 0
M  V30 11 C -14.191000 2.106000 -19.490000 0
M  V30 12 C -13.439000 4.381000 -19.358000 0
M  V30 13 C -15.674000 3.896000 -20.031000 0
M  V30 14 C -9.749000 2.682000 -18.460000 0
M  V30 15 C -11.842000 2.560000 -18.839000 0
M  V30 16 C -8.416000 3.320000 -18.339000 0 CFG=2
M  V30 17 C -13.174000 3.020000 -19.218000 0
M  V30 18 H -7.969600 2.324500 -20.840100 0
M  V30 19 H -5.754100 1.807400 -19.259200 0
M  V30 20 H -7.100300 0.898100 -19.425000 0
M  V30 21 H -8.598600 4.374100 -20.123400 0
M  V30 22 H -7.178600 4.642400 -19.363000 0
M  V30 23 H -6.559500 2.848200 -17.452000 0
M  V30 24 H -7.628100 1.615800 -17.374200 0
M  V30 25 H -16.165200 1.880100 -20.094400 0
M  V30 26 H -14.870700 5.801000 -19.862400 0
M  V30 27 H -14.016100 1.126600 -19.389200 0
M  V30 28 H -12.718900 5.046800 -19.162800 0
M  V30 29 H -8.477500 4.027000 -17.634400 0
M  V30 30 H -6.521500 3.078700 -20.870000 0
M  V30 END ATOM
M  V30 BEGIN BOND
M  V30 1 1 1 13
M  V30 2 1 2 14
M  V30 3 1 2 15
M  V30 4 1 3 6
M  V30 5 1 3 7
M  V30 6 1 4 5
M  V30 7 2 4 14
M  V30 8 2 5 15
M  V30 9 1 6 8
M  V30 10 1 7 16
M  V30 11 1 8 16
M  V30 12 2 9 11
M  V30 13 1 9 13
M  V30 14 1 10 12
M  V30 15 2 10 13
M  V30 16 1 11 17
M  V30 17 2 12 17
M  V30 18 1 14 16
M  V30 19 1 15 17
M  V30 20 1 3 18
M  V30 21 1 6 19
M  V30 22 1 6 20
M  V30 23 1 7 21
M  V30 24 1 7 22
M  V30 25 1 8 23
M  V30 26 1 8 24
M  V30 27 1 9 25
M  V30 28 1 10 26
M  V30 29 1 11 27
M  V30 30 1 12 28
M  V30 31 1 16 29 CFG=1
M  V30 32 1 3 30
M  V30 END BOND
M  V30 END CTAB
M  END
>  <Ligand_Instance>  (15) 
073_B_6

>  <Dataset>  (15) 
CF

>  <PDB_ID>  (15) 
None

>  <Chain>  (15) 
B

>  <Resi>  (15) 
6

>  <Num_Resolved_Atoms>  (15) 
17

>  <Num_H_Atoms_ProtBoundConf>  (15) 
13

>  <Pocket>  (15) 
A

>  <Name>  (15) 
2‐(4‐chlorophenyl)‐5‐[(3S)‐pyrrolidin‐3‐yl]‐1,3,4‐oxadiazole

>  <Num_Not_Resolved_Atoms>  (15) 
0

>  <ATP_Site>  (15) 
True

>  <Peripheral>  (15) 
True

>  <Standardized_SMILES>  (15) 
[H]C1=C([H])C(C2=NN=C([C@@]3([H])C([H])([H])C([H])([H])[N+]([H])([H])C3([H])[H])O2)=C([H])C([H])=C1Cl

>  <2D_Mol_H>  (15) 
<rdkit.Chem.rdchem.Mol object at 0x77059d96bd10>

>  <MW>  (15) 
250.709

>  <HBA>  (15) 
3

>  <HBD>  (15) 
1

>  <LogP>  (15) 
1.4407

>  <NRB>  (15) 
2

>  <TPSA>  (15) 
55.53

>  <Num_Heavy_Atoms>  (15) 
17

>  <Ro5>  (15) 
[True, True, True, True, True, True]

>  <Ro5_Fulfilled>  (15) 
True

>  <Ro3>  (15) 
[True, True, True, True]

>  <Ro3_Fulfilled>  (15) 
True

>  <Fsp3>  (15) 
0.333333

>  <Fsp3_0.42>  (15) 
False

>  <Fsp3_0.45>  (15) 
False

>  <Stereogenic_Carbons>  (15) 
1

>  <C_Atoms>  (15) 
12

>  <FCStereo>  (15) 
0.083333

>  <SPS>  (15) 
335

>  <nSPS>  (15) 
19.705882

>  <PBF>  (15) 
0.693386

>  <PBF_0.6>  (15) 
True

>  <nPBF>  (15) 
0.040787

>  <nPBF_0.016>  (15) 
True

>  <PMI1>  (15) 
324.66037

>  <PMI2>  (15) 
3332.111982

>  <PMI3>  (15) 
3488.942563

>  <NPR1>  (15) 
0.093054

>  <NPR2>  (15) 
0.955049

>  <Sum_NPR>  (15) 
1.048103

>  <Sum_NPR_1.07>  (15) 
False

>  <Sum_NPR_1.2>  (15) 
False

>  <MaxAbsEStateIndex>  (15) 
5.837171

>  <MaxEStateIndex>  (15) 
5.837171

>  <MinAbsEStateIndex>  (15) 
0.406065

>  <MinEStateIndex>  (15) 
0.406065

>  <qed>  (15) 
0.87763

>  <MolWt>  (15) 
250.709

>  <HeavyAtomMolWt>  (15) 
237.605

>  <ExactMolWt>  (15) 
250.074166

>  <NumValenceElectrons>  (15) 
88

>  <NumRadicalElectrons>  (15) 
0

>  <MaxPartialCharge>  (15) 
0.247255

>  <MinPartialCharge>  (15) 
-0.420158

>  <MaxAbsPartialCharge>  (15) 
0.420158

>  <MinAbsPartialCharge>  (15) 
0.247255

>  <FpDensityMorgan1>  (15) 
1.235294

>  <FpDensityMorgan2>  (15) 
2.058824

>  <FpDensityMorgan3>  (15) 
2.764706

>  <BCUT2D_MWHI>  (15) 
35.495691

>  <BCUT2D_MWLOW>  (15) 
10.116823

>  <BCUT2D_CHGHI>  (15) 
2.252064

>  <BCUT2D_CHGLO>  (15) 
-1.973483

>  <BCUT2D_LOGPHI>  (15) 
2.240458

>  <BCUT2D_LOGPLOW>  (15) 
-2.806771

>  <BCUT2D_MRHI>  (15) 
6.301529

>  <BCUT2D_MRLOW>  (15) 
-0.636309

>  <AvgIpc>  (15) 
3.004675

>  <BalabanJ>  (15) 
1.861125

>  <BertzCT>  (15) 
502.724222

>  <Chi0>  (15) 
11.664926

>  <Chi0n>  (15) 
9.266062

>  <Chi0v>  (15) 
10.021991

>  <Chi1>  (15) 
8.3265

>  <Chi1n>  (15) 
5.73748

>  <Chi1v>  (15) 
6.115444

>  <Chi2n>  (15) 
4.250996

>  <Chi2v>  (15) 
4.687432

>  <Chi3n>  (15) 
3.051478

>  <Chi3v>  (15) 
3.303455

>  <Chi4n>  (15) 
2.08889

>  <Chi4v>  (15) 
2.214879

>  <HallKierAlpha>  (15) 
-1.39

>  <Ipc>  (15) 
18442.695851

>  <Kappa1>  (15) 
10.744461

>  <Kappa2>  (15) 
4.468309

>  <Kappa3>  (15) 
2.184635

>  <LabuteASA>  (15) 
103.997642

>  <PEOE_VSA1>  (15) 
9.73394

>  <PEOE_VSA10>  (15) 
0.0

>  <PEOE_VSA11>  (15) 
0.0

>  <PEOE_VSA12>  (15) 
11.781448

>  <PEOE_VSA13>  (15) 
0.0

>  <PEOE_VSA14>  (15) 
0.0

>  <PEOE_VSA2>  (15) 
0.0

>  <PEOE_VSA3>  (15) 
0.0

>  <PEOE_VSA4>  (15) 
0.0

>  <PEOE_VSA5>  (15) 
10.197364

>  <PEOE_VSA6>  (15) 
11.60094

>  <PEOE_VSA7>  (15) 
24.265468

>  <PEOE_VSA8>  (15) 
17.006906

>  <PEOE_VSA9>  (15) 
19.007419

>  <SMR_VSA1>  (15) 
9.73394

>  <SMR_VSA10>  (15) 
11.60094

>  <SMR_VSA2>  (15) 
0.0

>  <SMR_VSA3>  (15) 
10.197364

>  <SMR_VSA4>  (15) 
0.0

>  <SMR_VSA5>  (15) 
12.338728

>  <SMR_VSA6>  (15) 
13.089513

>  <SMR_VSA7>  (15) 
35.178826

>  <SMR_VSA8>  (15) 
0.0

>  <SMR_VSA9>  (15) 
11.454175

>  <SlogP_VSA1>  (15) 
5.316789

>  <SlogP_VSA10>  (15) 
0.0

>  <SlogP_VSA11>  (15) 
0.0

>  <SlogP_VSA12>  (15) 
11.60094

>  <SlogP_VSA2>  (15) 
23.286876

>  <SlogP_VSA3>  (15) 
0.0

>  <SlogP_VSA4>  (15) 
0.0

>  <SlogP_VSA5>  (15) 
18.229452

>  <SlogP_VSA6>  (15) 
28.682619

>  <SlogP_VSA7>  (15) 
5.022633

>  <SlogP_VSA8>  (15) 
11.454175

>  <SlogP_VSA9>  (15) 
0.0

>  <EState_VSA1>  (15) 
0.0

>  <EState_VSA10>  (15) 
0.0

>  <EState_VSA11>  (15) 
0.0

>  <EState_VSA2>  (15) 
0.0

>  <EState_VSA3>  (15) 
16.831263

>  <EState_VSA4>  (15) 
30.96451

>  <EState_VSA5>  (15) 
0.0

>  <EState_VSA6>  (15) 
0.0

>  <EState_VSA7>  (15) 
24.265468

>  <EState_VSA8>  (15) 
15.514152

>  <EState_VSA9>  (15) 
16.018091

>  <VSA_EState1>  (15) 
5.708176

>  <VSA_EState10>  (15) 
5.837171

>  <VSA_EState2>  (15) 
0.0

>  <VSA_EState3>  (15) 
11.196327

>  <VSA_EState4>  (15) 
0.912154

>  <VSA_EState5>  (15) 
1.732238

>  <VSA_EState6>  (15) 
7.425612

>  <VSA_EState7>  (15) 
1.113344

>  <VSA_EState8>  (15) 
2.186087

>  <VSA_EState9>  (15) 
0.0

>  <FractionCSP3>  (15) 
0.333333

>  <HeavyAtomCount>  (15) 
17

>  <NHOHCount>  (15) 
2

>  <NOCount>  (15) 
4

>  <NumAliphaticCarbocycles>  (15) 
0

>  <NumAliphaticHeterocycles>  (15) 
1

>  <NumAliphaticRings>  (15) 
1

>  <NumAromaticCarbocycles>  (15) 
1

>  <NumAromaticHeterocycles>  (15) 
1

>  <NumAromaticRings>  (15) 
2

>  <NumHAcceptors>  (15) 
3

>  <NumHDonors>  (15) 
1

>  <NumHeteroatoms>  (15) 
5

>  <NumRotatableBonds>  (15) 
2

>  <NumSaturatedCarbocycles>  (15) 
0

>  <NumSaturatedHeterocycles>  (15) 
1

>  <NumSaturatedRings>  (15) 
1

>  <RingCount>  (15) 
3

>  <MolLogP>  (15) 
1.4407

>  <MolMR>  (15) 
63.7614

>  <fr_Al_COO>  (15) 
0

>  <fr_Al_OH>  (15) 
0

>  <fr_Al_OH_noTert>  (15) 
0

>  <fr_ArN>  (15) 
0

>  <fr_Ar_COO>  (15) 
0

>  <fr_Ar_N>  (15) 
2

>  <fr_Ar_NH>  (15) 
0

>  <fr_Ar_OH>  (15) 
0

>  <fr_COO>  (15) 
0

>  <fr_COO2>  (15) 
0

>  <fr_C_O>  (15) 
0

>  <fr_C_O_noCOO>  (15) 
0

>  <fr_C_S>  (15) 
0

>  <fr_HOCCN>  (15) 
0

>  <fr_Imine>  (15) 
0

>  <fr_NH0>  (15) 
2

>  <fr_NH1>  (15) 
0

>  <fr_NH2>  (15) 
1

>  <fr_N_O>  (15) 
0

>  <fr_Ndealkylation1>  (15) 
0

>  <fr_Ndealkylation2>  (15) 
0

>  <fr_Nhpyrrole>  (15) 
0

>  <fr_SH>  (15) 
0

>  <fr_aldehyde>  (15) 
0

>  <fr_alkyl_carbamate>  (15) 
0

>  <fr_alkyl_halide>  (15) 
0

>  <fr_allylic_oxid>  (15) 
0

>  <fr_amide>  (15) 
0

>  <fr_amidine>  (15) 
0

>  <fr_aniline>  (15) 
0

>  <fr_aryl_methyl>  (15) 
0

>  <fr_azide>  (15) 
0

>  <fr_azo>  (15) 
0

>  <fr_barbitur>  (15) 
0

>  <fr_benzene>  (15) 
1

>  <fr_benzodiazepine>  (15) 
0

>  <fr_bicyclic>  (15) 
0

>  <fr_diazo>  (15) 
0

>  <fr_dihydropyridine>  (15) 
0

>  <fr_epoxide>  (15) 
0

>  <fr_ester>  (15) 
0

>  <fr_ether>  (15) 
0

>  <fr_furan>  (15) 
0

>  <fr_guanido>  (15) 
0

>  <fr_halogen>  (15) 
1

>  <fr_hdrzine>  (15) 
0

>  <fr_hdrzone>  (15) 
0

>  <fr_imidazole>  (15) 
0

>  <fr_imide>  (15) 
0

>  <fr_isocyan>  (15) 
0

>  <fr_isothiocyan>  (15) 
0

>  <fr_ketone>  (15) 
0

>  <fr_ketone_Topliss>  (15) 
0

>  <fr_lactam>  (15) 
0

>  <fr_lactone>  (15) 
0

>  <fr_methoxy>  (15) 
0

>  <fr_morpholine>  (15) 
0

>  <fr_nitrile>  (15) 
0

>  <fr_nitro>  (15) 
0

>  <fr_nitro_arom>  (15) 
0

>  <fr_nitro_arom_nonortho>  (15) 
0

>  <fr_nitroso>  (15) 
0

>  <fr_oxazole>  (15) 
0

>  <fr_oxime>  (15) 
0

>  <fr_para_hydroxylation>  (15) 
0

>  <fr_phenol>  (15) 
0

>  <fr_phenol_noOrthoHbond>  (15) 
0

>  <fr_phos_acid>  (15) 
0

>  <fr_phos_ester>  (15) 
0

>  <fr_piperdine>  (15) 
0

>  <fr_piperzine>  (15) 
0

>  <fr_priamide>  (15) 
0

>  <fr_prisulfonamd>  (15) 
0

>  <fr_pyridine>  (15) 
0

>  <fr_quatN>  (15) 
1

>  <fr_sulfide>  (15) 
0

>  <fr_sulfonamd>  (15) 
0

>  <fr_sulfone>  (15) 
0

>  <fr_term_acetylene>  (15) 
0

>  <fr_tetrazole>  (15) 
0

>  <fr_thiazole>  (15) 
0

>  <fr_thiocyan>  (15) 
0

>  <fr_thiophene>  (15) 
0

>  <fr_unbrch_alkane>  (15) 
0

>  <fr_urea>  (15) 
0

>  <NP_Likeness>  (15) 
-1.349466

$$$$
F073
     RDKit          3D

  0  0  0  0  0  0  0  0  0  0999 V3000
M  V30 BEGIN CTAB
M  V30 COUNTS 30 32 0 0 0
M  V30 BEGIN ATOM
M  V30 1 Cl -16.133000 17.892000 -37.062000 0
M  V30 2 O -22.199000 18.654000 -39.932000 0
M  V30 3 N -25.694000 17.164000 -39.508000 0 CHG=1
M  V30 4 N -22.512000 20.251000 -41.413000 0
M  V30 5 N -21.180000 20.298000 -40.995000 0
M  V30 6 C -25.078000 16.457000 -40.667000 0
M  V30 7 C -25.159000 18.563000 -39.470000 0
M  V30 8 C -24.769000 17.563000 -41.647000 0
M  V30 9 C -18.688000 17.519000 -37.855000 0
M  V30 10 C -17.546000 19.419000 -38.778000 0
M  V30 11 C -19.827000 17.860000 -38.563000 0
M  V30 12 C -18.688000 19.754000 -39.484000 0
M  V30 13 C -17.561000 18.305000 -37.972000 0
M  V30 14 C -23.071000 19.287000 -40.775000 0
M  V30 15 C -21.038000 19.350000 -40.133000 0
M  V30 16 C -24.484000 18.838000 -40.819000 0 CFG=2
M  V30 17 C -19.840000 18.980000 -39.384000 0
M  V30 18 H -25.459800 16.689500 -38.659500 0
M  V30 19 H -25.718500 15.799400 -41.063500 0
M  V30 20 H -24.241900 15.983000 -40.390700 0
M  V30 21 H -24.492100 18.653100 -38.730300 0
M  V30 22 H -25.907200 19.210400 -39.324800 0
M  V30 23 H -25.551200 17.714200 -42.251400 0
M  V30 24 H -23.966900 17.322700 -42.193700 0
M  V30 25 H -18.682200 16.711600 -37.265100 0
M  V30 26 H -16.721100 19.979300 -38.852900 0
M  V30 27 H -20.648100 17.294900 -38.482700 0
M  V30 28 H -18.685300 20.562000 -40.073100 0
M  V30 29 H -25.002500 19.576800 -41.249500 0
M  V30 30 H -26.688100 17.185200 -39.614600 0
M  V30 END ATOM
M  V30 BEGIN BOND
M  V30 1 1 1 13
M  V30 2 1 2 14
M  V30 3 1 2 15
M  V30 4 1 3 6
M  V30 5 1 3 7
M  V30 6 1 4 5
M  V30 7 2 4 14
M  V30 8 2 5 15
M  V30 9 1 6 8
M  V30 10 1 7 16
M  V30 11 1 8 16
M  V30 12 2 9 11
M  V30 13 1 9 13
M  V30 14 1 10 12
M  V30 15 2 10 13
M  V30 16 1 11 17
M  V30 17 2 12 17
M  V30 18 1 14 16
M  V30 19 1 15 17
M  V30 20 1 3 18
M  V30 21 1 6 19
M  V30 22 1 6 20
M  V30 23 1 7 21
M  V30 24 1 7 22
M  V30 25 1 8 23
M  V30 26 1 8 24
M  V30 27 1 9 25
M  V30 28 1 10 26
M  V30 29 1 11 27
M  V30 30 1 12 28
M  V30 31 1 16 29 CFG=3
M  V30 32 1 3 30
M  V30 END BOND
M  V30 END CTAB
M  END
>  <Ligand_Instance>  (16) 
073_B_7

>  <Dataset>  (16) 
CF

>  <PDB_ID>  (16) 
None

>  <Chain>  (16) 
B

>  <Resi>  (16) 
7

>  <Num_Resolved_Atoms>  (16) 
17

>  <Num_H_Atoms_ProtBoundConf>  (16) 
13

>  <Pocket>  (16) 
X

>  <Name>  (16) 
2‐(4‐chlorophenyl)‐5‐[(3S)‐pyrrolidin‐3‐yl]‐1,3,4‐oxadiazole

>  <Num_Not_Resolved_Atoms>  (16) 
0

>  <ATP_Site>  (16) 
True

>  <Peripheral>  (16) 
True

>  <Standardized_SMILES>  (16) 
[H]C1=C([H])C(C2=NN=C([C@@]3([H])C([H])([H])C([H])([H])[N+]([H])([H])C3([H])[H])O2)=C([H])C([H])=C1Cl

>  <2D_Mol_H>  (16) 
<rdkit.Chem.rdchem.Mol object at 0x77059d96bdf0>

>  <MW>  (16) 
250.709

>  <HBA>  (16) 
3

>  <HBD>  (16) 
1

>  <LogP>  (16) 
1.4407

>  <NRB>  (16) 
2

>  <TPSA>  (16) 
55.53

>  <Num_Heavy_Atoms>  (16) 
17

>  <Ro5>  (16) 
[True, True, True, True, True, True]

>  <Ro5_Fulfilled>  (16) 
True

>  <Ro3>  (16) 
[True, True, True, True]

>  <Ro3_Fulfilled>  (16) 
True

>  <Fsp3>  (16) 
0.333333

>  <Fsp3_0.42>  (16) 
False

>  <Fsp3_0.45>  (16) 
False

>  <Stereogenic_Carbons>  (16) 
1

>  <C_Atoms>  (16) 
12

>  <FCStereo>  (16) 
0.083333

>  <SPS>  (16) 
335

>  <nSPS>  (16) 
19.705882

>  <PBF>  (16) 
0.539937

>  <PBF_0.6>  (16) 
False

>  <nPBF>  (16) 
0.031761

>  <nPBF_0.016>  (16) 
True

>  <PMI1>  (16) 
468.603998

>  <PMI2>  (16) 
3026.715745

>  <PMI3>  (16) 
3365.113055

>  <NPR1>  (16) 
0.139254

>  <NPR2>  (16) 
0.89944

>  <Sum_NPR>  (16) 
1.038693

>  <Sum_NPR_1.07>  (16) 
False

>  <Sum_NPR_1.2>  (16) 
False

>  <MaxAbsEStateIndex>  (16) 
5.837171

>  <MaxEStateIndex>  (16) 
5.837171

>  <MinAbsEStateIndex>  (16) 
0.406065

>  <MinEStateIndex>  (16) 
0.406065

>  <qed>  (16) 
0.87763

>  <MolWt>  (16) 
250.709

>  <HeavyAtomMolWt>  (16) 
237.605

>  <ExactMolWt>  (16) 
250.074166

>  <NumValenceElectrons>  (16) 
88

>  <NumRadicalElectrons>  (16) 
0

>  <MaxPartialCharge>  (16) 
0.247255

>  <MinPartialCharge>  (16) 
-0.420158

>  <MaxAbsPartialCharge>  (16) 
0.420158

>  <MinAbsPartialCharge>  (16) 
0.247255

>  <FpDensityMorgan1>  (16) 
1.235294

>  <FpDensityMorgan2>  (16) 
2.058824

>  <FpDensityMorgan3>  (16) 
2.764706

>  <BCUT2D_MWHI>  (16) 
35.495691

>  <BCUT2D_MWLOW>  (16) 
10.116823

>  <BCUT2D_CHGHI>  (16) 
2.252064

>  <BCUT2D_CHGLO>  (16) 
-1.973483

>  <BCUT2D_LOGPHI>  (16) 
2.240458

>  <BCUT2D_LOGPLOW>  (16) 
-2.806771

>  <BCUT2D_MRHI>  (16) 
6.301529

>  <BCUT2D_MRLOW>  (16) 
-0.636309

>  <AvgIpc>  (16) 
3.004675

>  <BalabanJ>  (16) 
1.861125

>  <BertzCT>  (16) 
502.724222

>  <Chi0>  (16) 
11.664926

>  <Chi0n>  (16) 
9.266062

>  <Chi0v>  (16) 
10.021991

>  <Chi1>  (16) 
8.3265

>  <Chi1n>  (16) 
5.73748

>  <Chi1v>  (16) 
6.115444

>  <Chi2n>  (16) 
4.250996

>  <Chi2v>  (16) 
4.687432

>  <Chi3n>  (16) 
3.051478

>  <Chi3v>  (16) 
3.303455

>  <Chi4n>  (16) 
2.08889

>  <Chi4v>  (16) 
2.214879

>  <HallKierAlpha>  (16) 
-1.39

>  <Ipc>  (16) 
18442.695851

>  <Kappa1>  (16) 
10.744461

>  <Kappa2>  (16) 
4.468309

>  <Kappa3>  (16) 
2.184635

>  <LabuteASA>  (16) 
103.997642

>  <PEOE_VSA1>  (16) 
9.73394

>  <PEOE_VSA10>  (16) 
0.0

>  <PEOE_VSA11>  (16) 
0.0

>  <PEOE_VSA12>  (16) 
11.781448

>  <PEOE_VSA13>  (16) 
0.0

>  <PEOE_VSA14>  (16) 
0.0

>  <PEOE_VSA2>  (16) 
0.0

>  <PEOE_VSA3>  (16) 
0.0

>  <PEOE_VSA4>  (16) 
0.0

>  <PEOE_VSA5>  (16) 
10.197364

>  <PEOE_VSA6>  (16) 
11.60094

>  <PEOE_VSA7>  (16) 
24.265468

>  <PEOE_VSA8>  (16) 
17.006906

>  <PEOE_VSA9>  (16) 
19.007419

>  <SMR_VSA1>  (16) 
9.73394

>  <SMR_VSA10>  (16) 
11.60094

>  <SMR_VSA2>  (16) 
0.0

>  <SMR_VSA3>  (16) 
10.197364

>  <SMR_VSA4>  (16) 
0.0

>  <SMR_VSA5>  (16) 
12.338728

>  <SMR_VSA6>  (16) 
13.089513

>  <SMR_VSA7>  (16) 
35.178826

>  <SMR_VSA8>  (16) 
0.0

>  <SMR_VSA9>  (16) 
11.454175

>  <SlogP_VSA1>  (16) 
5.316789

>  <SlogP_VSA10>  (16) 
0.0

>  <SlogP_VSA11>  (16) 
0.0

>  <SlogP_VSA12>  (16) 
11.60094

>  <SlogP_VSA2>  (16) 
23.286876

>  <SlogP_VSA3>  (16) 
0.0

>  <SlogP_VSA4>  (16) 
0.0

>  <SlogP_VSA5>  (16) 
18.229452

>  <SlogP_VSA6>  (16) 
28.682619

>  <SlogP_VSA7>  (16) 
5.022633

>  <SlogP_VSA8>  (16) 
11.454175

>  <SlogP_VSA9>  (16) 
0.0

>  <EState_VSA1>  (16) 
0.0

>  <EState_VSA10>  (16) 
0.0

>  <EState_VSA11>  (16) 
0.0

>  <EState_VSA2>  (16) 
0.0

>  <EState_VSA3>  (16) 
16.831263

>  <EState_VSA4>  (16) 
30.96451

>  <EState_VSA5>  (16) 
0.0

>  <EState_VSA6>  (16) 
0.0

>  <EState_VSA7>  (16) 
24.265468

>  <EState_VSA8>  (16) 
15.514152

>  <EState_VSA9>  (16) 
16.018091

>  <VSA_EState1>  (16) 
5.708176

>  <VSA_EState10>  (16) 
5.837171

>  <VSA_EState2>  (16) 
0.0

>  <VSA_EState3>  (16) 
11.196327

>  <VSA_EState4>  (16) 
0.912154

>  <VSA_EState5>  (16) 
1.732238

>  <VSA_EState6>  (16) 
7.425612

>  <VSA_EState7>  (16) 
1.113344

>  <VSA_EState8>  (16) 
2.186087

>  <VSA_EState9>  (16) 
0.0

>  <FractionCSP3>  (16) 
0.333333

>  <HeavyAtomCount>  (16) 
17

>  <NHOHCount>  (16) 
2

>  <NOCount>  (16) 
4

>  <NumAliphaticCarbocycles>  (16) 
0

>  <NumAliphaticHeterocycles>  (16) 
1

>  <NumAliphaticRings>  (16) 
1

>  <NumAromaticCarbocycles>  (16) 
1

>  <NumAromaticHeterocycles>  (16) 
1

>  <NumAromaticRings>  (16) 
2

>  <NumHAcceptors>  (16) 
3

>  <NumHDonors>  (16) 
1

>  <NumHeteroatoms>  (16) 
5

>  <NumRotatableBonds>  (16) 
2

>  <NumSaturatedCarbocycles>  (16) 
0

>  <NumSaturatedHeterocycles>  (16) 
1

>  <NumSaturatedRings>  (16) 
1

>  <RingCount>  (16) 
3

>  <MolLogP>  (16) 
1.4407

>  <MolMR>  (16) 
63.7614

>  <fr_Al_COO>  (16) 
0

>  <fr_Al_OH>  (16) 
0

>  <fr_Al_OH_noTert>  (16) 
0

>  <fr_ArN>  (16) 
0

>  <fr_Ar_COO>  (16) 
0

>  <fr_Ar_N>  (16) 
2

>  <fr_Ar_NH>  (16) 
0

>  <fr_Ar_OH>  (16) 
0

>  <fr_COO>  (16) 
0

>  <fr_COO2>  (16) 
0

>  <fr_C_O>  (16) 
0

>  <fr_C_O_noCOO>  (16) 
0

>  <fr_C_S>  (16) 
0

>  <fr_HOCCN>  (16) 
0

>  <fr_Imine>  (16) 
0

>  <fr_NH0>  (16) 
2

>  <fr_NH1>  (16) 
0

>  <fr_NH2>  (16) 
1

>  <fr_N_O>  (16) 
0

>  <fr_Ndealkylation1>  (16) 
0

>  <fr_Ndealkylation2>  (16) 
0

>  <fr_Nhpyrrole>  (16) 
0

>  <fr_SH>  (16) 
0

>  <fr_aldehyde>  (16) 
0

>  <fr_alkyl_carbamate>  (16) 
0

>  <fr_alkyl_halide>  (16) 
0

>  <fr_allylic_oxid>  (16) 
0

>  <fr_amide>  (16) 
0

>  <fr_amidine>  (16) 
0

>  <fr_aniline>  (16) 
0

>  <fr_aryl_methyl>  (16) 
0

>  <fr_azide>  (16) 
0

>  <fr_azo>  (16) 
0

>  <fr_barbitur>  (16) 
0

>  <fr_benzene>  (16) 
1

>  <fr_benzodiazepine>  (16) 
0

>  <fr_bicyclic>  (16) 
0

>  <fr_diazo>  (16) 
0

>  <fr_dihydropyridine>  (16) 
0

>  <fr_epoxide>  (16) 
0

>  <fr_ester>  (16) 
0

>  <fr_ether>  (16) 
0

>  <fr_furan>  (16) 
0

>  <fr_guanido>  (16) 
0

>  <fr_halogen>  (16) 
1

>  <fr_hdrzine>  (16) 
0

>  <fr_hdrzone>  (16) 
0

>  <fr_imidazole>  (16) 
0

>  <fr_imide>  (16) 
0

>  <fr_isocyan>  (16) 
0

>  <fr_isothiocyan>  (16) 
0

>  <fr_ketone>  (16) 
0

>  <fr_ketone_Topliss>  (16) 
0

>  <fr_lactam>  (16) 
0

>  <fr_lactone>  (16) 
0

>  <fr_methoxy>  (16) 
0

>  <fr_morpholine>  (16) 
0

>  <fr_nitrile>  (16) 
0

>  <fr_nitro>  (16) 
0

>  <fr_nitro_arom>  (16) 
0

>  <fr_nitro_arom_nonortho>  (16) 
0

>  <fr_nitroso>  (16) 
0

>  <fr_oxazole>  (16) 
0

>  <fr_oxime>  (16) 
0

>  <fr_para_hydroxylation>  (16) 
0

>  <fr_phenol>  (16) 
0

>  <fr_phenol_noOrthoHbond>  (16) 
0

>  <fr_phos_acid>  (16) 
0

>  <fr_phos_ester>  (16) 
0

>  <fr_piperdine>  (16) 
0

>  <fr_piperzine>  (16) 
0

>  <fr_priamide>  (16) 
0

>  <fr_prisulfonamd>  (16) 
0

>  <fr_pyridine>  (16) 
0

>  <fr_quatN>  (16) 
1

>  <fr_sulfide>  (16) 
0

>  <fr_sulfonamd>  (16) 
0

>  <fr_sulfone>  (16) 
0

>  <fr_term_acetylene>  (16) 
0

>  <fr_tetrazole>  (16) 
0

>  <fr_thiazole>  (16) 
0

>  <fr_thiocyan>  (16) 
0

>  <fr_thiophene>  (16) 
0

>  <fr_unbrch_alkane>  (16) 
0

>  <fr_urea>  (16) 
0

>  <NP_Likeness>  (16) 
-1.349466

$$$$
F073
     RDKit          3D

  0  0  0  0  0  0  0  0  0  0999 V3000
M  V30 BEGIN CTAB
M  V30 COUNTS 30 32 0 0 0
M  V30 BEGIN ATOM
M  V30 1 Cl 0.583000 26.711000 -11.443000 0
M  V30 2 O -5.541000 28.447000 -13.656000 0
M  V30 3 N -7.989000 29.241000 -11.858000 0 CHG=1
M  V30 4 N -5.872000 28.917000 -15.780000 0
M  V30 5 N -4.525000 28.578000 -15.609000 0
M  V30 6 C -8.219000 27.813000 -12.235000 0
M  V30 7 C -7.998000 30.077000 -13.102000 0
M  V30 8 C -8.601000 27.870000 -13.697000 0
M  V30 9 C -0.781000 27.527000 -13.624000 0
M  V30 10 C -2.054000 27.263000 -11.603000 0
M  V30 11 C -1.935000 27.889000 -14.298000 0
M  V30 12 C -3.203000 27.626000 -12.283000 0
M  V30 13 C -0.856000 27.218000 -12.284000 0
M  V30 14 C -6.425000 28.829000 -14.623000 0
M  V30 15 C -4.374000 28.312000 -14.357000 0
M  V30 16 C -7.828000 29.090000 -14.226000 0 CFG=2
M  V30 17 C -3.158000 27.943000 -13.638000 0
M  V30 18 H -7.104400 29.329400 -11.400200 0
M  V30 19 H -8.958800 27.417600 -11.690600 0
M  V30 20 H -7.386300 27.274200 -12.107100 0
M  V30 21 H -7.243400 30.733100 -13.091500 0
M  V30 22 H -8.864900 30.567400 -13.191200 0
M  V30 23 H -9.587000 27.998500 -13.803600 0
M  V30 24 H -8.320200 27.036100 -14.172100 0
M  V30 25 H 0.095500 27.490400 -14.103900 0
M  V30 26 H -2.092000 27.036100 -10.629800 0
M  V30 27 H -1.888500 28.114400 -15.271200 0
M  V30 28 H -4.075600 27.661100 -11.795800 0
M  V30 29 H -8.315400 29.443100 -15.024600 0
M  V30 30 H -8.715000 29.547100 -11.242200 0
M  V30 END ATOM
M  V30 BEGIN BOND
M  V30 1 1 1 13
M  V30 2 1 2 14
M  V30 3 1 2 15
M  V30 4 1 3 6
M  V30 5 1 3 7
M  V30 6 1 4 5
M  V30 7 2 4 14
M  V30 8 2 5 15
M  V30 9 1 6 8
M  V30 10 1 7 16
M  V30 11 1 8 16
M  V30 12 2 9 11
M  V30 13 1 9 13
M  V30 14 1 10 12
M  V30 15 2 10 13
M  V30 16 1 11 17
M  V30 17 2 12 17
M  V30 18 1 14 16
M  V30 19 1 15 17
M  V30 20 1 3 18
M  V30 21 1 6 19
M  V30 22 1 6 20
M  V30 23 1 7 21
M  V30 24 1 7 22
M  V30 25 1 8 23
M  V30 26 1 8 24
M  V30 27 1 9 25
M  V30 28 1 10 26
M  V30 29 1 11 27
M  V30 30 1 12 28
M  V30 31 1 16 29 CFG=3
M  V30 32 1 3 30
M  V30 END BOND
M  V30 END CTAB
M  END
>  <Ligand_Instance>  (17) 
073_B_8

>  <Dataset>  (17) 
CF

>  <PDB_ID>  (17) 
None

>  <Chain>  (17) 
B

>  <Resi>  (17) 
8

>  <Num_Resolved_Atoms>  (17) 
17

>  <Num_H_Atoms_ProtBoundConf>  (17) 
13

>  <Pocket>  (17) 
X

>  <Name>  (17) 
2‐(4‐chlorophenyl)‐5‐[(3S)‐pyrrolidin‐3‐yl]‐1,3,4‐oxadiazole

>  <Num_Not_Resolved_Atoms>  (17) 
0

>  <ATP_Site>  (17) 
True

>  <Peripheral>  (17) 
True

>  <Standardized_SMILES>  (17) 
[H]C1=C([H])C(C2=NN=C([C@@]3([H])C([H])([H])C([H])([H])[N+]([H])([H])C3([H])[H])O2)=C([H])C([H])=C1Cl

>  <2D_Mol_H>  (17) 
<rdkit.Chem.rdchem.Mol object at 0x77059d96bed0>

>  <MW>  (17) 
250.709

>  <HBA>  (17) 
3

>  <HBD>  (17) 
1

>  <LogP>  (17) 
1.4407

>  <NRB>  (17) 
2

>  <TPSA>  (17) 
55.53

>  <Num_Heavy_Atoms>  (17) 
17

>  <Ro5>  (17) 
[True, True, True, True, True, True]

>  <Ro5_Fulfilled>  (17) 
True

>  <Ro3>  (17) 
[True, True, True, True]

>  <Ro3_Fulfilled>  (17) 
True

>  <Fsp3>  (17) 
0.333333

>  <Fsp3_0.42>  (17) 
False

>  <Fsp3_0.45>  (17) 
False

>  <Stereogenic_Carbons>  (17) 
1

>  <C_Atoms>  (17) 
12

>  <FCStereo>  (17) 
0.083333

>  <SPS>  (17) 
335

>  <nSPS>  (17) 
19.705882

>  <PBF>  (17) 
0.522187

>  <PBF_0.6>  (17) 
False

>  <nPBF>  (17) 
0.030717

>  <nPBF_0.016>  (17) 
True

>  <PMI1>  (17) 
479.390203

>  <PMI2>  (17) 
2779.162489

>  <PMI3>  (17) 
3129.226983

>  <NPR1>  (17) 
0.153198

>  <NPR2>  (17) 
0.888131

>  <Sum_NPR>  (17) 
1.041328

>  <Sum_NPR_1.07>  (17) 
False

>  <Sum_NPR_1.2>  (17) 
False

>  <MaxAbsEStateIndex>  (17) 
5.837171

>  <MaxEStateIndex>  (17) 
5.837171

>  <MinAbsEStateIndex>  (17) 
0.406065

>  <MinEStateIndex>  (17) 
0.406065

>  <qed>  (17) 
0.87763

>  <MolWt>  (17) 
250.709

>  <HeavyAtomMolWt>  (17) 
237.605

>  <ExactMolWt>  (17) 
250.074166

>  <NumValenceElectrons>  (17) 
88

>  <NumRadicalElectrons>  (17) 
0

>  <MaxPartialCharge>  (17) 
0.247255

>  <MinPartialCharge>  (17) 
-0.420158

>  <MaxAbsPartialCharge>  (17) 
0.420158

>  <MinAbsPartialCharge>  (17) 
0.247255

>  <FpDensityMorgan1>  (17) 
1.235294

>  <FpDensityMorgan2>  (17) 
2.058824

>  <FpDensityMorgan3>  (17) 
2.764706

>  <BCUT2D_MWHI>  (17) 
35.495691

>  <BCUT2D_MWLOW>  (17) 
10.116823

>  <BCUT2D_CHGHI>  (17) 
2.252064

>  <BCUT2D_CHGLO>  (17) 
-1.973483

>  <BCUT2D_LOGPHI>  (17) 
2.240458

>  <BCUT2D_LOGPLOW>  (17) 
-2.806771

>  <BCUT2D_MRHI>  (17) 
6.301529

>  <BCUT2D_MRLOW>  (17) 
-0.636309

>  <AvgIpc>  (17) 
3.004675

>  <BalabanJ>  (17) 
1.861125

>  <BertzCT>  (17) 
502.724222

>  <Chi0>  (17) 
11.664926

>  <Chi0n>  (17) 
9.266062

>  <Chi0v>  (17) 
10.021991

>  <Chi1>  (17) 
8.3265

>  <Chi1n>  (17) 
5.73748

>  <Chi1v>  (17) 
6.115444

>  <Chi2n>  (17) 
4.250996

>  <Chi2v>  (17) 
4.687432

>  <Chi3n>  (17) 
3.051478

>  <Chi3v>  (17) 
3.303455

>  <Chi4n>  (17) 
2.08889

>  <Chi4v>  (17) 
2.214879

>  <HallKierAlpha>  (17) 
-1.39

>  <Ipc>  (17) 
18442.695851

>  <Kappa1>  (17) 
10.744461

>  <Kappa2>  (17) 
4.468309

>  <Kappa3>  (17) 
2.184635

>  <LabuteASA>  (17) 
103.997642

>  <PEOE_VSA1>  (17) 
9.73394

>  <PEOE_VSA10>  (17) 
0.0

>  <PEOE_VSA11>  (17) 
0.0

>  <PEOE_VSA12>  (17) 
11.781448

>  <PEOE_VSA13>  (17) 
0.0

>  <PEOE_VSA14>  (17) 
0.0

>  <PEOE_VSA2>  (17) 
0.0

>  <PEOE_VSA3>  (17) 
0.0

>  <PEOE_VSA4>  (17) 
0.0

>  <PEOE_VSA5>  (17) 
10.197364

>  <PEOE_VSA6>  (17) 
11.60094

>  <PEOE_VSA7>  (17) 
24.265468

>  <PEOE_VSA8>  (17) 
17.006906

>  <PEOE_VSA9>  (17) 
19.007419

>  <SMR_VSA1>  (17) 
9.73394

>  <SMR_VSA10>  (17) 
11.60094

>  <SMR_VSA2>  (17) 
0.0

>  <SMR_VSA3>  (17) 
10.197364

>  <SMR_VSA4>  (17) 
0.0

>  <SMR_VSA5>  (17) 
12.338728

>  <SMR_VSA6>  (17) 
13.089513

>  <SMR_VSA7>  (17) 
35.178826

>  <SMR_VSA8>  (17) 
0.0

>  <SMR_VSA9>  (17) 
11.454175

>  <SlogP_VSA1>  (17) 
5.316789

>  <SlogP_VSA10>  (17) 
0.0

>  <SlogP_VSA11>  (17) 
0.0

>  <SlogP_VSA12>  (17) 
11.60094

>  <SlogP_VSA2>  (17) 
23.286876

>  <SlogP_VSA3>  (17) 
0.0

>  <SlogP_VSA4>  (17) 
0.0

>  <SlogP_VSA5>  (17) 
18.229452

>  <SlogP_VSA6>  (17) 
28.682619

>  <SlogP_VSA7>  (17) 
5.022633

>  <SlogP_VSA8>  (17) 
11.454175

>  <SlogP_VSA9>  (17) 
0.0

>  <EState_VSA1>  (17) 
0.0

>  <EState_VSA10>  (17) 
0.0

>  <EState_VSA11>  (17) 
0.0

>  <EState_VSA2>  (17) 
0.0

>  <EState_VSA3>  (17) 
16.831263

>  <EState_VSA4>  (17) 
30.96451

>  <EState_VSA5>  (17) 
0.0

>  <EState_VSA6>  (17) 
0.0

>  <EState_VSA7>  (17) 
24.265468

>  <EState_VSA8>  (17) 
15.514152

>  <EState_VSA9>  (17) 
16.018091

>  <VSA_EState1>  (17) 
5.708176

>  <VSA_EState10>  (17) 
5.837171

>  <VSA_EState2>  (17) 
0.0

>  <VSA_EState3>  (17) 
11.196327

>  <VSA_EState4>  (17) 
0.912154

>  <VSA_EState5>  (17) 
1.732238

>  <VSA_EState6>  (17) 
7.425612

>  <VSA_EState7>  (17) 
1.113344

>  <VSA_EState8>  (17) 
2.186087

>  <VSA_EState9>  (17) 
0.0

>  <FractionCSP3>  (17) 
0.333333

>  <HeavyAtomCount>  (17) 
17

>  <NHOHCount>  (17) 
2

>  <NOCount>  (17) 
4

>  <NumAliphaticCarbocycles>  (17) 
0

>  <NumAliphaticHeterocycles>  (17) 
1

>  <NumAliphaticRings>  (17) 
1

>  <NumAromaticCarbocycles>  (17) 
1

>  <NumAromaticHeterocycles>  (17) 
1

>  <NumAromaticRings>  (17) 
2

>  <NumHAcceptors>  (17) 
3

>  <NumHDonors>  (17) 
1

>  <NumHeteroatoms>  (17) 
5

>  <NumRotatableBonds>  (17) 
2

>  <NumSaturatedCarbocycles>  (17) 
0

>  <NumSaturatedHeterocycles>  (17) 
1

>  <NumSaturatedRings>  (17) 
1

>  <RingCount>  (17) 
3

>  <MolLogP>  (17) 
1.4407

>  <MolMR>  (17) 
63.7614

>  <fr_Al_COO>  (17) 
0

>  <fr_Al_OH>  (17) 
0

>  <fr_Al_OH_noTert>  (17) 
0

>  <fr_ArN>  (17) 
0

>  <fr_Ar_COO>  (17) 
0

>  <fr_Ar_N>  (17) 
2

>  <fr_Ar_NH>  (17) 
0

>  <fr_Ar_OH>  (17) 
0

>  <fr_COO>  (17) 
0

>  <fr_COO2>  (17) 
0

>  <fr_C_O>  (17) 
0

>  <fr_C_O_noCOO>  (17) 
0

>  <fr_C_S>  (17) 
0

>  <fr_HOCCN>  (17) 
0

>  <fr_Imine>  (17) 
0

>  <fr_NH0>  (17) 
2

>  <fr_NH1>  (17) 
0

>  <fr_NH2>  (17) 
1

>  <fr_N_O>  (17) 
0

>  <fr_Ndealkylation1>  (17) 
0

>  <fr_Ndealkylation2>  (17) 
0

>  <fr_Nhpyrrole>  (17) 
0

>  <fr_SH>  (17) 
0

>  <fr_aldehyde>  (17) 
0

>  <fr_alkyl_carbamate>  (17) 
0

>  <fr_alkyl_halide>  (17) 
0

>  <fr_allylic_oxid>  (17) 
0

>  <fr_amide>  (17) 
0

>  <fr_amidine>  (17) 
0

>  <fr_aniline>  (17) 
0

>  <fr_aryl_methyl>  (17) 
0

>  <fr_azide>  (17) 
0

>  <fr_azo>  (17) 
0

>  <fr_barbitur>  (17) 
0

>  <fr_benzene>  (17) 
1

>  <fr_benzodiazepine>  (17) 
0

>  <fr_bicyclic>  (17) 
0

>  <fr_diazo>  (17) 
0

>  <fr_dihydropyridine>  (17) 
0

>  <fr_epoxide>  (17) 
0

>  <fr_ester>  (17) 
0

>  <fr_ether>  (17) 
0

>  <fr_furan>  (17) 
0

>  <fr_guanido>  (17) 
0

>  <fr_halogen>  (17) 
1

>  <fr_hdrzine>  (17) 
0

>  <fr_hdrzone>  (17) 
0

>  <fr_imidazole>  (17) 
0

>  <fr_imide>  (17) 
0

>  <fr_isocyan>  (17) 
0

>  <fr_isothiocyan>  (17) 
0

>  <fr_ketone>  (17) 
0

>  <fr_ketone_Topliss>  (17) 
0

>  <fr_lactam>  (17) 
0

>  <fr_lactone>  (17) 
0

>  <fr_methoxy>  (17) 
0

>  <fr_morpholine>  (17) 
0

>  <fr_nitrile>  (17) 
0

>  <fr_nitro>  (17) 
0

>  <fr_nitro_arom>  (17) 
0

>  <fr_nitro_arom_nonortho>  (17) 
0

>  <fr_nitroso>  (17) 
0

>  <fr_oxazole>  (17) 
0

>  <fr_oxime>  (17) 
0

>  <fr_para_hydroxylation>  (17) 
0

>  <fr_phenol>  (17) 
0

>  <fr_phenol_noOrthoHbond>  (17) 
0

>  <fr_phos_acid>  (17) 
0

>  <fr_phos_ester>  (17) 
0

>  <fr_piperdine>  (17) 
0

>  <fr_piperzine>  (17) 
0

>  <fr_priamide>  (17) 
0

>  <fr_prisulfonamd>  (17) 
0

>  <fr_pyridine>  (17) 
0

>  <fr_quatN>  (17) 
1

>  <fr_sulfide>  (17) 
0

>  <fr_sulfonamd>  (17) 
0

>  <fr_sulfone>  (17) 
0

>  <fr_term_acetylene>  (17) 
0

>  <fr_tetrazole>  (17) 
0

>  <fr_thiazole>  (17) 
0

>  <fr_thiocyan>  (17) 
0

>  <fr_thiophene>  (17) 
0

>  <fr_unbrch_alkane>  (17) 
0

>  <fr_urea>  (17) 
0

>  <NP_Likeness>  (17) 
-1.349466

$$$$
F074
     RDKit          3D

  0  0  0  0  0  0  0  0  0  0999 V3000
M  V30 BEGIN CTAB
M  V30 COUNTS 29 31 0 0 0
M  V30 BEGIN ATOM
M  V30 1 O -14.297000 3.622000 -29.456000 0
M  V30 2 N -14.667000 5.801000 -30.056000 0
M  V30 3 N -13.414000 5.654000 -29.935000 0
M  V30 4 N -9.375000 2.677000 -28.539000 0
M  V30 5 N -18.279000 3.076000 -28.516000 0 CHG=1
M  V30 6 C -10.443000 1.841000 -28.805000 0
M  V30 7 C -9.517000 4.043000 -28.636000 0
M  V30 8 C -18.196000 2.428000 -29.841000 0
M  V30 9 C -17.086000 3.920000 -28.358000 0
M  V30 10 C -16.992000 3.013000 -30.565000 0
M  V30 11 C -11.664000 2.300000 -29.162000 0
M  V30 12 C -10.700000 4.604000 -28.978000 0
M  V30 13 C -15.207000 4.582000 -29.787000 0
M  V30 14 C -13.173000 4.338000 -29.591000 0
M  V30 15 C -16.654000 4.274000 -29.788000 0 CFG=2
M  V30 16 C -11.868000 3.756000 -29.283000 0
M  V30 17 H -18.302500 2.380900 -27.797400 0
M  V30 18 H -10.306900 0.853100 -28.730200 0
M  V30 19 H -8.730600 4.632100 -28.450100 0
M  V30 20 H -19.029400 2.610600 -30.362700 0
M  V30 21 H -18.081200 1.440700 -29.731100 0
M  V30 22 H -16.360900 3.418200 -27.886300 0
M  V30 23 H -17.307600 4.748100 -27.843100 0
M  V30 24 H -17.222600 3.233400 -31.512800 0
M  V30 25 H -16.224600 2.372000 -30.549000 0
M  V30 26 H -12.414800 1.664100 -29.340700 0
M  V30 27 H -10.783000 5.599500 -29.024300 0
M  V30 28 H -17.179600 5.051800 -30.132600 0
M  V30 29 H -19.104100 3.638500 -28.462700 0
M  V30 END ATOM
M  V30 BEGIN BOND
M  V30 1 1 1 13
M  V30 2 1 1 14
M  V30 3 1 2 3
M  V30 4 2 2 13
M  V30 5 2 3 14
M  V30 6 2 4 6
M  V30 7 1 4 7
M  V30 8 1 5 8
M  V30 9 1 5 9
M  V30 10 1 6 11
M  V30 11 2 7 12
M  V30 12 1 8 10
M  V30 13 1 9 15
M  V30 14 1 10 15
M  V30 15 2 11 16
M  V30 16 1 12 16
M  V30 17 1 13 15
M  V30 18 1 14 16
M  V30 19 1 5 17
M  V30 20 1 6 18
M  V30 21 1 7 19
M  V30 22 1 8 20
M  V30 23 1 8 21
M  V30 24 1 9 22
M  V30 25 1 9 23
M  V30 26 1 10 24
M  V30 27 1 10 25
M  V30 28 1 11 26
M  V30 29 1 12 27
M  V30 30 1 15 28 CFG=3
M  V30 31 1 5 29
M  V30 END BOND
M  V30 END CTAB
M  END
>  <Ligand_Instance>  (18) 
074_B_7

>  <Dataset>  (18) 
CF

>  <PDB_ID>  (18) 
None

>  <Chain>  (18) 
B

>  <Resi>  (18) 
7

>  <Num_Resolved_Atoms>  (18) 
16

>  <Num_H_Atoms_ProtBoundConf>  (18) 
13

>  <Pocket>  (18) 
A

>  <Name>  (18) 
 4‐{5‐[(3S)‐pyrrolidin‐3‐yl]‐1,3,4‐oxadiazol‐2‐yl}pyridine

>  <Num_Not_Resolved_Atoms>  (18) 
0

>  <ATP_Site>  (18) 
True

>  <Peripheral>  (18) 
True

>  <Standardized_SMILES>  (18) 
[H]C1=NC([H])=C([H])C(C2=NN=C([C@@]3([H])C([H])([H])C([H])([H])[N+]([H])([H])C3([H])[H])O2)=C1[H]

>  <2D_Mol_H>  (18) 
<rdkit.Chem.rdchem.Mol object at 0x77059d9d8040>

>  <MW>  (18) 
217.252

>  <HBA>  (18) 
4

>  <HBD>  (18) 
1

>  <LogP>  (18) 
0.1823

>  <NRB>  (18) 
2

>  <TPSA>  (18) 
68.42

>  <Num_Heavy_Atoms>  (18) 
16

>  <Ro5>  (18) 
[True, True, True, True, True, True]

>  <Ro5_Fulfilled>  (18) 
True

>  <Ro3>  (18) 
[True, False, True, True]

>  <Ro3_Fulfilled>  (18) 
True

>  <Fsp3>  (18) 
0.363636

>  <Fsp3_0.42>  (18) 
False

>  <Fsp3_0.45>  (18) 
False

>  <Stereogenic_Carbons>  (18) 
1

>  <C_Atoms>  (18) 
11

>  <FCStereo>  (18) 
0.090909

>  <SPS>  (18) 
322

>  <nSPS>  (18) 
20.125

>  <PBF>  (18) 
0.664956

>  <PBF_0.6>  (18) 
True

>  <nPBF>  (18) 
0.04156

>  <nPBF_0.016>  (18) 
True

>  <PMI1>  (18) 
370.978738

>  <PMI2>  (18) 
2026.581167

>  <PMI3>  (18) 
2248.542612

>  <NPR1>  (18) 
0.164986

>  <NPR2>  (18) 
0.901287

>  <Sum_NPR>  (18) 
1.066273

>  <Sum_NPR_1.07>  (18) 
False

>  <Sum_NPR_1.2>  (18) 
False

>  <MaxAbsEStateIndex>  (18) 
5.683611

>  <MaxEStateIndex>  (18) 
5.683611

>  <MinAbsEStateIndex>  (18) 
0.419525

>  <MinEStateIndex>  (18) 
0.419525

>  <qed>  (18) 
0.778904

>  <MolWt>  (18) 
217.252

>  <HeavyAtomMolWt>  (18) 
204.148

>  <ExactMolWt>  (18) 
217.108387

>  <NumValenceElectrons>  (18) 
82

>  <NumRadicalElectrons>  (18) 
0

>  <MaxPartialCharge>  (18) 
0.247366

>  <MinPartialCharge>  (18) 
-0.420156

>  <MaxAbsPartialCharge>  (18) 
0.420156

>  <MinAbsPartialCharge>  (18) 
0.247366

>  <FpDensityMorgan1>  (18) 
1.25

>  <FpDensityMorgan2>  (18) 
2.125

>  <FpDensityMorgan3>  (18) 
2.875

>  <BCUT2D_MWHI>  (18) 
16.363997

>  <BCUT2D_MWLOW>  (18) 
10.117176

>  <BCUT2D_CHGHI>  (18) 
2.251736

>  <BCUT2D_CHGLO>  (18) 
-1.966902

>  <BCUT2D_LOGPHI>  (18) 
2.224091

>  <BCUT2D_LOGPLOW>  (18) 
-2.806771

>  <BCUT2D_MRHI>  (18) 
5.50238

>  <BCUT2D_MRLOW>  (18) 
-0.636309

>  <AvgIpc>  (18) 
3.010179

>  <BalabanJ>  (18) 
1.874039

>  <BertzCT>  (18) 
461.846619

>  <Chi0>  (18) 
10.794682

>  <Chi0n>  (18) 
8.835311

>  <Chi0v>  (18) 
8.835311

>  <Chi1>  (18) 
7.932653

>  <Chi1n>  (18) 
5.487545

>  <Chi1v>  (18) 
5.487545

>  <Chi2n>  (18) 
3.979992

>  <Chi2v>  (18) 
3.979992

>  <Chi3n>  (18) 
2.887577

>  <Chi3v>  (18) 
2.887577

>  <Chi4n>  (18) 
1.990916

>  <Chi4v>  (18) 
1.990916

>  <HallKierAlpha>  (18) 
-1.75

>  <Ipc>  (18) 
13076.216434

>  <Kappa1>  (18) 
9.474142

>  <Kappa2>  (18) 
4.016317

>  <Kappa3>  (18) 
1.6943

>  <LabuteASA>  (18) 
92.914024

>  <PEOE_VSA1>  (18) 
9.73394

>  <PEOE_VSA10>  (18) 
0.0

>  <PEOE_VSA11>  (18) 
0.0

>  <PEOE_VSA12>  (18) 
11.781448

>  <PEOE_VSA13>  (18) 
0.0

>  <PEOE_VSA14>  (18) 
0.0

>  <PEOE_VSA2>  (18) 
4.983979

>  <PEOE_VSA3>  (18) 
0.0

>  <PEOE_VSA4>  (18) 
0.0

>  <PEOE_VSA5>  (18) 
10.197364

>  <PEOE_VSA6>  (18) 
0.0

>  <PEOE_VSA7>  (18) 
12.132734

>  <PEOE_VSA8>  (18) 
24.37796

>  <PEOE_VSA9>  (18) 
19.007419

>  <SMR_VSA1>  (18) 
9.73394

>  <SMR_VSA10>  (18) 
0.0

>  <SMR_VSA2>  (18) 
0.0

>  <SMR_VSA3>  (18) 
15.181342

>  <SMR_VSA4>  (18) 
0.0

>  <SMR_VSA5>  (18) 
12.338728

>  <SMR_VSA6>  (18) 
13.089513

>  <SMR_VSA7>  (18) 
30.417145

>  <SMR_VSA8>  (18) 
0.0

>  <SMR_VSA9>  (18) 
11.454175

>  <SlogP_VSA1>  (18) 
5.316789

>  <SlogP_VSA10>  (18) 
0.0

>  <SlogP_VSA11>  (18) 
0.0

>  <SlogP_VSA12>  (18) 
0.0

>  <SlogP_VSA2>  (18) 
28.270855

>  <SlogP_VSA3>  (18) 
0.0

>  <SlogP_VSA4>  (18) 
0.0

>  <SlogP_VSA5>  (18) 
18.229452

>  <SlogP_VSA6>  (18) 
28.943572

>  <SlogP_VSA7>  (18) 
0.0

>  <SlogP_VSA8>  (18) 
11.454175

>  <SlogP_VSA9>  (18) 
0.0

>  <EState_VSA1>  (18) 
0.0

>  <EState_VSA10>  (18) 
0.0

>  <EState_VSA11>  (18) 
0.0

>  <EState_VSA2>  (18) 
0.0

>  <EState_VSA3>  (18) 
11.80863

>  <EState_VSA4>  (18) 
30.96451

>  <EState_VSA5>  (18) 
0.0

>  <EState_VSA6>  (18) 
12.393687

>  <EState_VSA7>  (18) 
12.132734

>  <EState_VSA8>  (18) 
20.498131

>  <EState_VSA9>  (18) 
4.417151

>  <VSA_EState1>  (18) 
5.683611

>  <VSA_EState10>  (18) 
0.0

>  <VSA_EState2>  (18) 
3.96029

>  <VSA_EState3>  (18) 
10.468932

>  <VSA_EState4>  (18) 
0.926599

>  <VSA_EState5>  (18) 
1.77125

>  <VSA_EState6>  (18) 
3.746164

>  <VSA_EState7>  (18) 
4.572505

>  <VSA_EState8>  (18) 
2.203984

>  <VSA_EState9>  (18) 
0.0

>  <FractionCSP3>  (18) 
0.363636

>  <HeavyAtomCount>  (18) 
16

>  <NHOHCount>  (18) 
2

>  <NOCount>  (18) 
5

>  <NumAliphaticCarbocycles>  (18) 
0

>  <NumAliphaticHeterocycles>  (18) 
1

>  <NumAliphaticRings>  (18) 
1

>  <NumAromaticCarbocycles>  (18) 
0

>  <NumAromaticHeterocycles>  (18) 
2

>  <NumAromaticRings>  (18) 
2

>  <NumHAcceptors>  (18) 
4

>  <NumHDonors>  (18) 
1

>  <NumHeteroatoms>  (18) 
5

>  <NumRotatableBonds>  (18) 
2

>  <NumSaturatedCarbocycles>  (18) 
0

>  <NumSaturatedHeterocycles>  (18) 
1

>  <NumSaturatedRings>  (18) 
1

>  <RingCount>  (18) 
3

>  <MolLogP>  (18) 
0.1823

>  <MolMR>  (18) 
56.5464

>  <fr_Al_COO>  (18) 
0

>  <fr_Al_OH>  (18) 
0

>  <fr_Al_OH_noTert>  (18) 
0

>  <fr_ArN>  (18) 
0

>  <fr_Ar_COO>  (18) 
0

>  <fr_Ar_N>  (18) 
3

>  <fr_Ar_NH>  (18) 
0

>  <fr_Ar_OH>  (18) 
0

>  <fr_COO>  (18) 
0

>  <fr_COO2>  (18) 
0

>  <fr_C_O>  (18) 
0

>  <fr_C_O_noCOO>  (18) 
0

>  <fr_C_S>  (18) 
0

>  <fr_HOCCN>  (18) 
0

>  <fr_Imine>  (18) 
0

>  <fr_NH0>  (18) 
3

>  <fr_NH1>  (18) 
0

>  <fr_NH2>  (18) 
1

>  <fr_N_O>  (18) 
0

>  <fr_Ndealkylation1>  (18) 
0

>  <fr_Ndealkylation2>  (18) 
0

>  <fr_Nhpyrrole>  (18) 
0

>  <fr_SH>  (18) 
0

>  <fr_aldehyde>  (18) 
0

>  <fr_alkyl_carbamate>  (18) 
0

>  <fr_alkyl_halide>  (18) 
0

>  <fr_allylic_oxid>  (18) 
0

>  <fr_amide>  (18) 
0

>  <fr_amidine>  (18) 
0

>  <fr_aniline>  (18) 
0

>  <fr_aryl_methyl>  (18) 
0

>  <fr_azide>  (18) 
0

>  <fr_azo>  (18) 
0

>  <fr_barbitur>  (18) 
0

>  <fr_benzene>  (18) 
0

>  <fr_benzodiazepine>  (18) 
0

>  <fr_bicyclic>  (18) 
0

>  <fr_diazo>  (18) 
0

>  <fr_dihydropyridine>  (18) 
0

>  <fr_epoxide>  (18) 
0

>  <fr_ester>  (18) 
0

>  <fr_ether>  (18) 
0

>  <fr_furan>  (18) 
0

>  <fr_guanido>  (18) 
0

>  <fr_halogen>  (18) 
0

>  <fr_hdrzine>  (18) 
0

>  <fr_hdrzone>  (18) 
0

>  <fr_imidazole>  (18) 
0

>  <fr_imide>  (18) 
0

>  <fr_isocyan>  (18) 
0

>  <fr_isothiocyan>  (18) 
0

>  <fr_ketone>  (18) 
0

>  <fr_ketone_Topliss>  (18) 
0

>  <fr_lactam>  (18) 
0

>  <fr_lactone>  (18) 
0

>  <fr_methoxy>  (18) 
0

>  <fr_morpholine>  (18) 
0

>  <fr_nitrile>  (18) 
0

>  <fr_nitro>  (18) 
0

>  <fr_nitro_arom>  (18) 
0

>  <fr_nitro_arom_nonortho>  (18) 
0

>  <fr_nitroso>  (18) 
0

>  <fr_oxazole>  (18) 
0

>  <fr_oxime>  (18) 
0

>  <fr_para_hydroxylation>  (18) 
0

>  <fr_phenol>  (18) 
0

>  <fr_phenol_noOrthoHbond>  (18) 
0

>  <fr_phos_acid>  (18) 
0

>  <fr_phos_ester>  (18) 
0

>  <fr_piperdine>  (18) 
0

>  <fr_piperzine>  (18) 
0

>  <fr_priamide>  (18) 
0

>  <fr_prisulfonamd>  (18) 
0

>  <fr_pyridine>  (18) 
1

>  <fr_quatN>  (18) 
1

>  <fr_sulfide>  (18) 
0

>  <fr_sulfonamd>  (18) 
0

>  <fr_sulfone>  (18) 
0

>  <fr_term_acetylene>  (18) 
0

>  <fr_tetrazole>  (18) 
0

>  <fr_thiazole>  (18) 
0

>  <fr_thiocyan>  (18) 
0

>  <fr_thiophene>  (18) 
0

>  <fr_unbrch_alkane>  (18) 
0

>  <fr_urea>  (18) 
0

>  <NP_Likeness>  (18) 
-1.237831

$$$$
F074
     RDKit          3D

  0  0  0  0  0  0  0  0  0  0999 V3000
M  V30 BEGIN CTAB
M  V30 COUNTS 29 31 0 0 0
M  V30 BEGIN ATOM
M  V30 1 O -29.757000 20.049000 -34.657000 0
M  V30 2 N -28.235000 18.395000 -35.036000 0
M  V30 3 N -27.563000 19.427000 -34.756000 0
M  V30 4 N -27.575000 24.371000 -33.288000 0
M  V30 5 N -31.631000 16.215000 -36.681000 0 CHG=1
M  V30 6 C -26.675000 23.367000 -33.027000 0
M  V30 7 C -28.745000 24.122000 -33.969000 0
M  V30 8 C -32.313000 17.472000 -37.011000 0
M  V30 9 C -30.331000 16.617000 -36.136000 0
M  V30 10 C -31.937000 18.425000 -35.886000 0
M  V30 11 C -26.893000 22.094000 -33.425000 0
M  V30 12 C -29.082000 22.894000 -34.388000 0
M  V30 13 C -29.566000 18.738000 -34.988000 0
M  V30 14 C -28.466000 20.436000 -34.544000 0
M  V30 15 C -30.697000 17.796000 -35.235000 0 CFG=2
M  V30 16 C -28.140000 21.786000 -34.148000 0
M  V30 17 H -31.510000 15.655600 -37.501000 0
M  V30 18 H -25.835400 23.583800 -32.528900 0
M  V30 19 H -29.365100 24.883500 -34.157700 0
M  V30 20 H -33.303400 17.337700 -37.042700 0
M  V30 21 H -31.996100 17.824100 -37.891700 0
M  V30 22 H -29.706200 16.899400 -36.863900 0
M  V30 23 H -29.915600 15.875500 -35.609200 0
M  V30 24 H -32.682600 18.499600 -35.223800 0
M  V30 25 H -31.722200 19.331500 -36.249600 0
M  V30 26 H -26.223000 21.376800 -33.233200 0
M  V30 27 H -29.952700 22.733300 -34.852800 0
M  V30 28 H -30.977400 17.423400 -34.350400 0
M  V30 29 H -32.153000 15.700600 -36.000600 0
M  V30 END ATOM
M  V30 BEGIN BOND
M  V30 1 1 1 13
M  V30 2 1 1 14
M  V30 3 1 2 3
M  V30 4 2 2 13
M  V30 5 2 3 14
M  V30 6 2 4 6
M  V30 7 1 4 7
M  V30 8 1 5 8
M  V30 9 1 5 9
M  V30 10 1 6 11
M  V30 11 2 7 12
M  V30 12 1 8 10
M  V30 13 1 9 15
M  V30 14 1 10 15
M  V30 15 2 11 16
M  V30 16 1 12 16
M  V30 17 1 13 15
M  V30 18 1 14 16
M  V30 19 1 5 17
M  V30 20 1 6 18
M  V30 21 1 7 19
M  V30 22 1 8 20
M  V30 23 1 8 21
M  V30 24 1 9 22
M  V30 25 1 9 23
M  V30 26 1 10 24
M  V30 27 1 10 25
M  V30 28 1 11 26
M  V30 29 1 12 27
M  V30 30 1 15 28 CFG=1
M  V30 31 1 5 29
M  V30 END BOND
M  V30 END CTAB
M  END
>  <Ligand_Instance>  (19) 
074_B_8

>  <Dataset>  (19) 
CF

>  <PDB_ID>  (19) 
None

>  <Chain>  (19) 
B

>  <Resi>  (19) 
8

>  <Num_Resolved_Atoms>  (19) 
16

>  <Num_H_Atoms_ProtBoundConf>  (19) 
13

>  <Pocket>  (19) 
X

>  <Name>  (19) 
 4‐{5‐[(3S)‐pyrrolidin‐3‐yl]‐1,3,4‐oxadiazol‐2‐yl}pyridine

>  <Num_Not_Resolved_Atoms>  (19) 
0

>  <ATP_Site>  (19) 
True

>  <Peripheral>  (19) 
True

>  <Standardized_SMILES>  (19) 
[H]C1=NC([H])=C([H])C(C2=NN=C([C@@]3([H])C([H])([H])C([H])([H])[N+]([H])([H])C3([H])[H])O2)=C1[H]

>  <2D_Mol_H>  (19) 
<rdkit.Chem.rdchem.Mol object at 0x77059d9d8120>

>  <MW>  (19) 
217.252

>  <HBA>  (19) 
4

>  <HBD>  (19) 
1

>  <LogP>  (19) 
0.1823

>  <NRB>  (19) 
2

>  <TPSA>  (19) 
68.42

>  <Num_Heavy_Atoms>  (19) 
16

>  <Ro5>  (19) 
[True, True, True, True, True, True]

>  <Ro5_Fulfilled>  (19) 
True

>  <Ro3>  (19) 
[True, False, True, True]

>  <Ro3_Fulfilled>  (19) 
True

>  <Fsp3>  (19) 
0.363636

>  <Fsp3_0.42>  (19) 
False

>  <Fsp3_0.45>  (19) 
False

>  <Stereogenic_Carbons>  (19) 
1

>  <C_Atoms>  (19) 
11

>  <FCStereo>  (19) 
0.090909

>  <SPS>  (19) 
322

>  <nSPS>  (19) 
20.125

>  <PBF>  (19) 
0.394753

>  <PBF_0.6>  (19) 
False

>  <nPBF>  (19) 
0.024672

>  <nPBF_0.016>  (19) 
True

>  <PMI1>  (19) 
288.718077

>  <PMI2>  (19) 
2194.452878

>  <PMI3>  (19) 
2437.653883

>  <NPR1>  (19) 
0.118441

>  <NPR2>  (19) 
0.900232

>  <Sum_NPR>  (19) 
1.018672

>  <Sum_NPR_1.07>  (19) 
False

>  <Sum_NPR_1.2>  (19) 
False

>  <MaxAbsEStateIndex>  (19) 
5.683611

>  <MaxEStateIndex>  (19) 
5.683611

>  <MinAbsEStateIndex>  (19) 
0.419525

>  <MinEStateIndex>  (19) 
0.419525

>  <qed>  (19) 
0.778904

>  <MolWt>  (19) 
217.252

>  <HeavyAtomMolWt>  (19) 
204.148

>  <ExactMolWt>  (19) 
217.108387

>  <NumValenceElectrons>  (19) 
82

>  <NumRadicalElectrons>  (19) 
0

>  <MaxPartialCharge>  (19) 
0.247366

>  <MinPartialCharge>  (19) 
-0.420156

>  <MaxAbsPartialCharge>  (19) 
0.420156

>  <MinAbsPartialCharge>  (19) 
0.247366

>  <FpDensityMorgan1>  (19) 
1.25

>  <FpDensityMorgan2>  (19) 
2.125

>  <FpDensityMorgan3>  (19) 
2.875

>  <BCUT2D_MWHI>  (19) 
16.363997

>  <BCUT2D_MWLOW>  (19) 
10.117176

>  <BCUT2D_CHGHI>  (19) 
2.251736

>  <BCUT2D_CHGLO>  (19) 
-1.966902

>  <BCUT2D_LOGPHI>  (19) 
2.224091

>  <BCUT2D_LOGPLOW>  (19) 
-2.806771

>  <BCUT2D_MRHI>  (19) 
5.50238

>  <BCUT2D_MRLOW>  (19) 
-0.636309

>  <AvgIpc>  (19) 
3.010179

>  <BalabanJ>  (19) 
1.874039

>  <BertzCT>  (19) 
461.846619

>  <Chi0>  (19) 
10.794682

>  <Chi0n>  (19) 
8.835311

>  <Chi0v>  (19) 
8.835311

>  <Chi1>  (19) 
7.932653

>  <Chi1n>  (19) 
5.487545

>  <Chi1v>  (19) 
5.487545

>  <Chi2n>  (19) 
3.979992

>  <Chi2v>  (19) 
3.979992

>  <Chi3n>  (19) 
2.887577

>  <Chi3v>  (19) 
2.887577

>  <Chi4n>  (19) 
1.990916

>  <Chi4v>  (19) 
1.990916

>  <HallKierAlpha>  (19) 
-1.75

>  <Ipc>  (19) 
13076.216434

>  <Kappa1>  (19) 
9.474142

>  <Kappa2>  (19) 
4.016317

>  <Kappa3>  (19) 
1.6943

>  <LabuteASA>  (19) 
92.914024

>  <PEOE_VSA1>  (19) 
9.73394

>  <PEOE_VSA10>  (19) 
0.0

>  <PEOE_VSA11>  (19) 
0.0

>  <PEOE_VSA12>  (19) 
11.781448

>  <PEOE_VSA13>  (19) 
0.0

>  <PEOE_VSA14>  (19) 
0.0

>  <PEOE_VSA2>  (19) 
4.983979

>  <PEOE_VSA3>  (19) 
0.0

>  <PEOE_VSA4>  (19) 
0.0

>  <PEOE_VSA5>  (19) 
10.197364

>  <PEOE_VSA6>  (19) 
0.0

>  <PEOE_VSA7>  (19) 
12.132734

>  <PEOE_VSA8>  (19) 
24.37796

>  <PEOE_VSA9>  (19) 
19.007419

>  <SMR_VSA1>  (19) 
9.73394

>  <SMR_VSA10>  (19) 
0.0

>  <SMR_VSA2>  (19) 
0.0

>  <SMR_VSA3>  (19) 
15.181342

>  <SMR_VSA4>  (19) 
0.0

>  <SMR_VSA5>  (19) 
12.338728

>  <SMR_VSA6>  (19) 
13.089513

>  <SMR_VSA7>  (19) 
30.417145

>  <SMR_VSA8>  (19) 
0.0

>  <SMR_VSA9>  (19) 
11.454175

>  <SlogP_VSA1>  (19) 
5.316789

>  <SlogP_VSA10>  (19) 
0.0

>  <SlogP_VSA11>  (19) 
0.0

>  <SlogP_VSA12>  (19) 
0.0

>  <SlogP_VSA2>  (19) 
28.270855

>  <SlogP_VSA3>  (19) 
0.0

>  <SlogP_VSA4>  (19) 
0.0

>  <SlogP_VSA5>  (19) 
18.229452

>  <SlogP_VSA6>  (19) 
28.943572

>  <SlogP_VSA7>  (19) 
0.0

>  <SlogP_VSA8>  (19) 
11.454175

>  <SlogP_VSA9>  (19) 
0.0

>  <EState_VSA1>  (19) 
0.0

>  <EState_VSA10>  (19) 
0.0

>  <EState_VSA11>  (19) 
0.0

>  <EState_VSA2>  (19) 
0.0

>  <EState_VSA3>  (19) 
11.80863

>  <EState_VSA4>  (19) 
30.96451

>  <EState_VSA5>  (19) 
0.0

>  <EState_VSA6>  (19) 
12.393687

>  <EState_VSA7>  (19) 
12.132734

>  <EState_VSA8>  (19) 
20.498131

>  <EState_VSA9>  (19) 
4.417151

>  <VSA_EState1>  (19) 
5.683611

>  <VSA_EState10>  (19) 
0.0

>  <VSA_EState2>  (19) 
3.96029

>  <VSA_EState3>  (19) 
10.468932

>  <VSA_EState4>  (19) 
0.926599

>  <VSA_EState5>  (19) 
1.77125

>  <VSA_EState6>  (19) 
3.746164

>  <VSA_EState7>  (19) 
4.572505

>  <VSA_EState8>  (19) 
2.203984

>  <VSA_EState9>  (19) 
0.0

>  <FractionCSP3>  (19) 
0.363636

>  <HeavyAtomCount>  (19) 
16

>  <NHOHCount>  (19) 
2

>  <NOCount>  (19) 
5

>  <NumAliphaticCarbocycles>  (19) 
0

>  <NumAliphaticHeterocycles>  (19) 
1

>  <NumAliphaticRings>  (19) 
1

>  <NumAromaticCarbocycles>  (19) 
0

>  <NumAromaticHeterocycles>  (19) 
2

>  <NumAromaticRings>  (19) 
2

>  <NumHAcceptors>  (19) 
4

>  <NumHDonors>  (19) 
1

>  <NumHeteroatoms>  (19) 
5

>  <NumRotatableBonds>  (19) 
2

>  <NumSaturatedCarbocycles>  (19) 
0

>  <NumSaturatedHeterocycles>  (19) 
1

>  <NumSaturatedRings>  (19) 
1

>  <RingCount>  (19) 
3

>  <MolLogP>  (19) 
0.1823

>  <MolMR>  (19) 
56.5464

>  <fr_Al_COO>  (19) 
0

>  <fr_Al_OH>  (19) 
0

>  <fr_Al_OH_noTert>  (19) 
0

>  <fr_ArN>  (19) 
0

>  <fr_Ar_COO>  (19) 
0

>  <fr_Ar_N>  (19) 
3

>  <fr_Ar_NH>  (19) 
0

>  <fr_Ar_OH>  (19) 
0

>  <fr_COO>  (19) 
0

>  <fr_COO2>  (19) 
0

>  <fr_C_O>  (19) 
0

>  <fr_C_O_noCOO>  (19) 
0

>  <fr_C_S>  (19) 
0

>  <fr_HOCCN>  (19) 
0

>  <fr_Imine>  (19) 
0

>  <fr_NH0>  (19) 
3

>  <fr_NH1>  (19) 
0

>  <fr_NH2>  (19) 
1

>  <fr_N_O>  (19) 
0

>  <fr_Ndealkylation1>  (19) 
0

>  <fr_Ndealkylation2>  (19) 
0

>  <fr_Nhpyrrole>  (19) 
0

>  <fr_SH>  (19) 
0

>  <fr_aldehyde>  (19) 
0

>  <fr_alkyl_carbamate>  (19) 
0

>  <fr_alkyl_halide>  (19) 
0

>  <fr_allylic_oxid>  (19) 
0

>  <fr_amide>  (19) 
0

>  <fr_amidine>  (19) 
0

>  <fr_aniline>  (19) 
0

>  <fr_aryl_methyl>  (19) 
0

>  <fr_azide>  (19) 
0

>  <fr_azo>  (19) 
0

>  <fr_barbitur>  (19) 
0

>  <fr_benzene>  (19) 
0

>  <fr_benzodiazepine>  (19) 
0

>  <fr_bicyclic>  (19) 
0

>  <fr_diazo>  (19) 
0

>  <fr_dihydropyridine>  (19) 
0

>  <fr_epoxide>  (19) 
0

>  <fr_ester>  (19) 
0

>  <fr_ether>  (19) 
0

>  <fr_furan>  (19) 
0

>  <fr_guanido>  (19) 
0

>  <fr_halogen>  (19) 
0

>  <fr_hdrzine>  (19) 
0

>  <fr_hdrzone>  (19) 
0

>  <fr_imidazole>  (19) 
0

>  <fr_imide>  (19) 
0

>  <fr_isocyan>  (19) 
0

>  <fr_isothiocyan>  (19) 
0

>  <fr_ketone>  (19) 
0

>  <fr_ketone_Topliss>  (19) 
0

>  <fr_lactam>  (19) 
0

>  <fr_lactone>  (19) 
0

>  <fr_methoxy>  (19) 
0

>  <fr_morpholine>  (19) 
0

>  <fr_nitrile>  (19) 
0

>  <fr_nitro>  (19) 
0

>  <fr_nitro_arom>  (19) 
0

>  <fr_nitro_arom_nonortho>  (19) 
0

>  <fr_nitroso>  (19) 
0

>  <fr_oxazole>  (19) 
0

>  <fr_oxime>  (19) 
0

>  <fr_para_hydroxylation>  (19) 
0

>  <fr_phenol>  (19) 
0

>  <fr_phenol_noOrthoHbond>  (19) 
0

>  <fr_phos_acid>  (19) 
0

>  <fr_phos_ester>  (19) 
0

>  <fr_piperdine>  (19) 
0

>  <fr_piperzine>  (19) 
0

>  <fr_priamide>  (19) 
0

>  <fr_prisulfonamd>  (19) 
0

>  <fr_pyridine>  (19) 
1

>  <fr_quatN>  (19) 
1

>  <fr_sulfide>  (19) 
0

>  <fr_sulfonamd>  (19) 
0

>  <fr_sulfone>  (19) 
0

>  <fr_term_acetylene>  (19) 
0

>  <fr_tetrazole>  (19) 
0

>  <fr_thiazole>  (19) 
0

>  <fr_thiocyan>  (19) 
0

>  <fr_thiophene>  (19) 
0

>  <fr_unbrch_alkane>  (19) 
0

>  <fr_urea>  (19) 
0

>  <NP_Likeness>  (19) 
-1.237831

$$$$
F102
     RDKit          3D

  0  0  0  0  0  0  0  0  0  0999 V3000
M  V30 BEGIN CTAB
M  V30 COUNTS 36 39 0 0 0
M  V30 BEGIN ATOM
M  V30 1 O -14.046000 0.853000 -18.429000 0
M  V30 2 O -8.940000 2.598000 -17.059000 0
M  V30 3 N -16.797000 2.997000 -20.681000 0
M  V30 4 N -15.400000 4.909000 -20.099000 0
M  V30 5 N -9.058000 4.472000 -18.455000 0
M  V30 6 N -12.288000 1.945000 -19.204000 0
M  V30 7 C -16.579000 4.375000 -20.619000 0
M  V30 8 C -15.807000 2.208000 -20.179000 0
M  V30 9 C -14.431000 4.046000 -19.628000 0
M  V30 10 C -11.486000 0.916000 -18.537000 0
M  V30 11 C -11.465000 2.904000 -19.981000 0
M  V30 12 C -7.345000 5.052000 -14.825000 0
M  V30 13 C -7.415000 6.135000 -15.649000 0
M  V30 14 C -10.156000 0.939000 -19.203000 0
M  V30 15 C -7.815000 3.848000 -15.235000 0
M  V30 16 C -7.968000 6.023000 -16.891000 0
M  V30 17 C -13.630000 1.784000 -19.125000 0
M  V30 18 C -9.371000 3.152000 -18.413000 0
M  V30 19 C -8.373000 3.750000 -16.463000 0
M  V30 20 C -8.456000 4.826000 -17.266000 0
M  V30 21 C -14.633000 2.700000 -19.712000 0
M  V30 22 C -10.035000 2.423000 -19.535000 0 CFG=2
M  V30 23 H -17.287000 4.995400 -20.956400 0
M  V30 24 H -15.952800 1.219000 -20.153600 0
M  V30 25 H -13.587600 4.405000 -19.228400 0
M  V30 26 H -11.913200 0.018300 -18.644500 0
M  V30 27 H -11.391200 1.125600 -17.563800 0
M  V30 28 H -11.641700 3.851400 -19.714100 0
M  V30 29 H -11.603500 2.804000 -20.966300 0
M  V30 30 H -6.945000 5.145600 -13.913300 0
M  V30 31 H -7.058800 7.017300 -15.341400 0
M  V30 32 H -10.146900 0.374400 -20.028300 0
M  V30 33 H -9.429000 0.638600 -18.585600 0
M  V30 34 H -7.750200 3.046900 -14.640000 0
M  V30 35 H -8.009700 6.809800 -17.506800 0
M  V30 36 H -9.436000 2.499300 -20.332100 0
M  V30 END ATOM
M  V30 BEGIN BOND
M  V30 1 2 1 17
M  V30 2 1 2 18
M  V30 3 1 2 19
M  V30 4 2 3 7
M  V30 5 1 3 8
M  V30 6 1 4 7
M  V30 7 2 4 9
M  V30 8 2 5 18
M  V30 9 1 5 20
M  V30 10 1 6 10
M  V30 11 1 6 11
M  V30 12 1 6 17
M  V30 13 2 8 21
M  V30 14 1 9 21
M  V30 15 1 10 14
M  V30 16 1 11 22
M  V30 17 2 12 13
M  V30 18 1 12 15
M  V30 19 1 13 16
M  V30 20 1 14 22
M  V30 21 2 15 19
M  V30 22 2 16 20
M  V30 23 1 17 21
M  V30 24 1 18 22
M  V30 25 1 19 20
M  V30 26 1 7 23
M  V30 27 1 8 24
M  V30 28 1 9 25
M  V30 29 1 10 26
M  V30 30 1 10 27
M  V30 31 1 11 28
M  V30 32 1 11 29
M  V30 33 1 12 30
M  V30 34 1 13 31
M  V30 35 1 14 32
M  V30 36 1 14 33
M  V30 37 1 15 34
M  V30 38 1 16 35
M  V30 39 1 22 36 CFG=3
M  V30 END BOND
M  V30 END CTAB
M  END
>  <Ligand_Instance>  (20) 
102_B_1

>  <Dataset>  (20) 
CF

>  <PDB_ID>  (20) 
None

>  <Chain>  (20) 
B

>  <Resi>  (20) 
1

>  <Num_Resolved_Atoms>  (20) 
22

>  <Num_H_Atoms_ProtBoundConf>  (20) 
14

>  <Pocket>  (20) 
A

>  <Name>  (20) 
2‐[(3S)‐1‐(pyrimidine‐5‐carbonyl)pyrrolidin‐3‐yl]‐1,3‐benzoxazole

>  <Num_Not_Resolved_Atoms>  (20) 
0

>  <ATP_Site>  (20) 
True

>  <Peripheral>  (20) 
False

>  <Standardized_SMILES>  (20) 
[H]C1=NC([H])=C(C(=O)N2C([H])([H])C([H])([H])[C@]([H])(C3=NC4=C([H])C([H])=C([H])C([H])=C4O3)C2([H])[H])C([H])=N1

>  <2D_Mol_H>  (20) 
<rdkit.Chem.rdchem.Mol object at 0x77059d9d8200>

>  <MW>  (20) 
294.314

>  <HBA>  (20) 
5

>  <HBD>  (20) 
0

>  <LogP>  (20) 
2.2475

>  <NRB>  (20) 
2

>  <TPSA>  (20) 
72.12

>  <Num_Heavy_Atoms>  (20) 
22

>  <Ro5>  (20) 
[True, True, True, True, True, True]

>  <Ro5_Fulfilled>  (20) 
True

>  <Ro3>  (20) 
[True, False, True, True]

>  <Ro3_Fulfilled>  (20) 
True

>  <Fsp3>  (20) 
0.25

>  <Fsp3_0.42>  (20) 
False

>  <Fsp3_0.45>  (20) 
False

>  <Stereogenic_Carbons>  (20) 
1

>  <C_Atoms>  (20) 
16

>  <FCStereo>  (20) 
0.0625

>  <SPS>  (20) 
396

>  <nSPS>  (20) 
18.0

>  <PBF>  (20) 
0.819876

>  <PBF_0.6>  (20) 
True

>  <nPBF>  (20) 
0.037267

>  <nPBF_0.016>  (20) 
True

>  <PMI1>  (20) 
822.13906

>  <PMI2>  (20) 
3875.882646

>  <PMI3>  (20) 
4299.411666

>  <NPR1>  (20) 
0.191221

>  <NPR2>  (20) 
0.901491

>  <Sum_NPR>  (20) 
1.092713

>  <Sum_NPR_1.07>  (20) 
True

>  <Sum_NPR_1.2>  (20) 
False

>  <MaxAbsEStateIndex>  (20) 
12.39087

>  <MaxEStateIndex>  (20) 
12.39087

>  <MinAbsEStateIndex>  (20) 
0.042397

>  <MinEStateIndex>  (20) 
-0.042397

>  <qed>  (20) 
0.724538

>  <MolWt>  (20) 
294.314

>  <HeavyAtomMolWt>  (20) 
280.202

>  <ExactMolWt>  (20) 
294.111676

>  <NumValenceElectrons>  (20) 
110

>  <NumRadicalElectrons>  (20) 
0

>  <MaxPartialCharge>  (20) 
0.256513

>  <MinPartialCharge>  (20) 
-0.440325

>  <MaxAbsPartialCharge>  (20) 
0.440325

>  <MinAbsPartialCharge>  (20) 
0.256513

>  <FpDensityMorgan1>  (20) 
1.227273

>  <FpDensityMorgan2>  (20) 
2.045455

>  <FpDensityMorgan3>  (20) 
2.863636

>  <BCUT2D_MWHI>  (20) 
16.348708

>  <BCUT2D_MWLOW>  (20) 
10.11394

>  <BCUT2D_CHGHI>  (20) 
2.307572

>  <BCUT2D_CHGLO>  (20) 
-2.147036

>  <BCUT2D_LOGPHI>  (20) 
2.29301

>  <BCUT2D_LOGPLOW>  (20) 
-2.281985

>  <BCUT2D_MRHI>  (20) 
5.93364

>  <BCUT2D_MRLOW>  (20) 
0.078883

>  <AvgIpc>  (20) 
3.211608

>  <BalabanJ>  (20) 
1.533987

>  <BertzCT>  (20) 
782.138575

>  <Chi0>  (20) 
14.940947

>  <Chi0n>  (20) 
11.845473

>  <Chi0v>  (20) 
11.845473

>  <Chi1>  (20) 
10.809663

>  <Chi1n>  (20) 
7.208316

>  <Chi1v>  (20) 
7.208316

>  <Chi2n>  (20) 
5.383748

>  <Chi2v>  (20) 
5.383748

>  <Chi3n>  (20) 
3.942659

>  <Chi3v>  (20) 
3.942659

>  <Chi4n>  (20) 
2.803061

>  <Chi4v>  (20) 
2.803061

>  <HallKierAlpha>  (20) 
-2.76

>  <Ipc>  (20) 
283096.811985

>  <Kappa1>  (20) 
12.941516

>  <Kappa2>  (20) 
5.21566

>  <Kappa3>  (20) 
2.221591

>  <LabuteASA>  (20) 
126.36367

>  <PEOE_VSA1>  (20) 
9.317061

>  <PEOE_VSA10>  (20) 
11.844021

>  <PEOE_VSA11>  (20) 
11.473744

>  <PEOE_VSA12>  (20) 
0.0

>  <PEOE_VSA13>  (20) 
5.90718

>  <PEOE_VSA14>  (20) 
0.0

>  <PEOE_VSA2>  (20) 
4.794537

>  <PEOE_VSA3>  (20) 
14.951936

>  <PEOE_VSA4>  (20) 
0.0

>  <PEOE_VSA5>  (20) 
0.0

>  <PEOE_VSA6>  (20) 
12.132734

>  <PEOE_VSA7>  (20) 
18.553556

>  <PEOE_VSA8>  (20) 
25.4832

>  <PEOE_VSA9>  (20) 
11.481358

>  <SMR_VSA1>  (20) 
9.211688

>  <SMR_VSA10>  (20) 
17.006901

>  <SMR_VSA2>  (20) 
0.0

>  <SMR_VSA3>  (20) 
19.851845

>  <SMR_VSA4>  (20) 
0.0

>  <SMR_VSA5>  (20) 
12.338728

>  <SMR_VSA6>  (20) 
13.089513

>  <SMR_VSA7>  (20) 
54.440651

>  <SMR_VSA8>  (20) 
0.0

>  <SMR_VSA9>  (20) 
0.0

>  <SlogP_VSA1>  (20) 
0.0

>  <SlogP_VSA10>  (20) 
0.0

>  <SlogP_VSA11>  (20) 
0.0

>  <SlogP_VSA12>  (20) 
0.0

>  <SlogP_VSA2>  (20) 
38.848538

>  <SlogP_VSA3>  (20) 
0.0

>  <SlogP_VSA4>  (20) 
0.0

>  <SlogP_VSA5>  (20) 
28.58744

>  <SlogP_VSA6>  (20) 
47.403626

>  <SlogP_VSA7>  (20) 
0.0

>  <SlogP_VSA8>  (20) 
11.099721

>  <SlogP_VSA9>  (20) 
0.0

>  <EState_VSA1>  (20) 
0.0

>  <EState_VSA10>  (20) 
4.794537

>  <EState_VSA11>  (20) 
0.0

>  <EState_VSA2>  (20) 
11.825086

>  <EState_VSA3>  (20) 
24.543688

>  <EState_VSA4>  (20) 
17.520542

>  <EState_VSA5>  (20) 
6.32732

>  <EState_VSA6>  (20) 
17.293597

>  <EState_VSA7>  (20) 
24.265468

>  <EState_VSA8>  (20) 
14.951936

>  <EState_VSA9>  (20) 
4.417151

>  <VSA_EState1>  (20) 
5.811966

>  <VSA_EState10>  (20) 
0.0

>  <VSA_EState2>  (20) 
26.513958

>  <VSA_EState3>  (20) 
0.0

>  <VSA_EState4>  (20) 
2.164988

>  <VSA_EState5>  (20) 
0.806485

>  <VSA_EState6>  (20) 
7.706564

>  <VSA_EState7>  (20) 
5.359462

>  <VSA_EState8>  (20) 
1.303243

>  <VSA_EState9>  (20) 
0.0

>  <FractionCSP3>  (20) 
0.25

>  <HeavyAtomCount>  (20) 
22

>  <NHOHCount>  (20) 
0

>  <NOCount>  (20) 
6

>  <NumAliphaticCarbocycles>  (20) 
0

>  <NumAliphaticHeterocycles>  (20) 
1

>  <NumAliphaticRings>  (20) 
1

>  <NumAromaticCarbocycles>  (20) 
1

>  <NumAromaticHeterocycles>  (20) 
2

>  <NumAromaticRings>  (20) 
3

>  <NumHAcceptors>  (20) 
5

>  <NumHDonors>  (20) 
0

>  <NumHeteroatoms>  (20) 
6

>  <NumRotatableBonds>  (20) 
2

>  <NumSaturatedCarbocycles>  (20) 
0

>  <NumSaturatedHeterocycles>  (20) 
1

>  <NumSaturatedRings>  (20) 
1

>  <RingCount>  (20) 
4

>  <MolLogP>  (20) 
2.2475

>  <MolMR>  (20) 
79.3025

>  <fr_Al_COO>  (20) 
0

>  <fr_Al_OH>  (20) 
0

>  <fr_Al_OH_noTert>  (20) 
0

>  <fr_ArN>  (20) 
0

>  <fr_Ar_COO>  (20) 
0

>  <fr_Ar_N>  (20) 
3

>  <fr_Ar_NH>  (20) 
0

>  <fr_Ar_OH>  (20) 
0

>  <fr_COO>  (20) 
0

>  <fr_COO2>  (20) 
0

>  <fr_C_O>  (20) 
1

>  <fr_C_O_noCOO>  (20) 
1

>  <fr_C_S>  (20) 
0

>  <fr_HOCCN>  (20) 
0

>  <fr_Imine>  (20) 
0

>  <fr_NH0>  (20) 
4

>  <fr_NH1>  (20) 
0

>  <fr_NH2>  (20) 
0

>  <fr_N_O>  (20) 
0

>  <fr_Ndealkylation1>  (20) 
0

>  <fr_Ndealkylation2>  (20) 
1

>  <fr_Nhpyrrole>  (20) 
0

>  <fr_SH>  (20) 
0

>  <fr_aldehyde>  (20) 
0

>  <fr_alkyl_carbamate>  (20) 
0

>  <fr_alkyl_halide>  (20) 
0

>  <fr_allylic_oxid>  (20) 
0

>  <fr_amide>  (20) 
1

>  <fr_amidine>  (20) 
0

>  <fr_aniline>  (20) 
0

>  <fr_aryl_methyl>  (20) 
0

>  <fr_azide>  (20) 
0

>  <fr_azo>  (20) 
0

>  <fr_barbitur>  (20) 
0

>  <fr_benzene>  (20) 
1

>  <fr_benzodiazepine>  (20) 
0

>  <fr_bicyclic>  (20) 
1

>  <fr_diazo>  (20) 
0

>  <fr_dihydropyridine>  (20) 
0

>  <fr_epoxide>  (20) 
0

>  <fr_ester>  (20) 
0

>  <fr_ether>  (20) 
0

>  <fr_furan>  (20) 
0

>  <fr_guanido>  (20) 
0

>  <fr_halogen>  (20) 
0

>  <fr_hdrzine>  (20) 
0

>  <fr_hdrzone>  (20) 
0

>  <fr_imidazole>  (20) 
0

>  <fr_imide>  (20) 
0

>  <fr_isocyan>  (20) 
0

>  <fr_isothiocyan>  (20) 
0

>  <fr_ketone>  (20) 
0

>  <fr_ketone_Topliss>  (20) 
0

>  <fr_lactam>  (20) 
0

>  <fr_lactone>  (20) 
0

>  <fr_methoxy>  (20) 
0

>  <fr_morpholine>  (20) 
0

>  <fr_nitrile>  (20) 
0

>  <fr_nitro>  (20) 
0

>  <fr_nitro_arom>  (20) 
0

>  <fr_nitro_arom_nonortho>  (20) 
0

>  <fr_nitroso>  (20) 
0

>  <fr_oxazole>  (20) 
1

>  <fr_oxime>  (20) 
0

>  <fr_para_hydroxylation>  (20) 
2

>  <fr_phenol>  (20) 
0

>  <fr_phenol_noOrthoHbond>  (20) 
0

>  <fr_phos_acid>  (20) 
0

>  <fr_phos_ester>  (20) 
0

>  <fr_piperdine>  (20) 
0

>  <fr_piperzine>  (20) 
0

>  <fr_priamide>  (20) 
0

>  <fr_prisulfonamd>  (20) 
0

>  <fr_pyridine>  (20) 
0

>  <fr_quatN>  (20) 
0

>  <fr_sulfide>  (20) 
0

>  <fr_sulfonamd>  (20) 
0

>  <fr_sulfone>  (20) 
0

>  <fr_term_acetylene>  (20) 
0

>  <fr_tetrazole>  (20) 
0

>  <fr_thiazole>  (20) 
0

>  <fr_thiocyan>  (20) 
0

>  <fr_thiophene>  (20) 
0

>  <fr_unbrch_alkane>  (20) 
0

>  <fr_urea>  (20) 
0

>  <NP_Likeness>  (20) 
-1.776949

$$$$
F134
     RDKit          3D

  0  0  0  0  0  0  0  0  0  0999 V3000
M  V30 BEGIN CTAB
M  V30 COUNTS 28 30 0 0 0
M  V30 BEGIN ATOM
M  V30 1 N -8.017000 3.364000 -20.757000 0 CHG=1
M  V30 2 N -12.175000 2.447000 -19.586000 0
M  V30 3 N -12.397000 4.703000 -19.582000 0
M  V30 4 C -7.743000 3.278000 -19.311000 0
M  V30 5 C -15.860000 2.539000 -19.943000 0
M  V30 6 C -15.968000 3.944000 -19.963000 0
M  V30 7 C -9.482000 3.522000 -20.881000 0
M  V30 8 C -9.077000 3.006000 -18.635000 0
M  V30 9 C -14.632000 1.926000 -19.794000 0
M  V30 10 C -14.866000 4.750000 -19.842000 0
M  V30 11 C -11.455000 3.635000 -19.485000 0
M  V30 12 C -13.528000 2.743000 -19.690000 0
M  V30 13 C -13.682000 4.106000 -19.700000 0
M  V30 14 C -9.995000 3.864000 -19.452000 0 CFG=2
M  V30 15 H -7.716500 2.529300 -21.218600 0
M  V30 16 H -11.780800 1.528000 -19.584000 0
M  V30 17 H -7.357400 4.139500 -18.980500 0
M  V30 18 H -7.102700 2.532900 -19.124300 0
M  V30 19 H -16.683100 1.979100 -20.037900 0
M  V30 20 H -16.870000 4.362800 -20.068000 0
M  V30 21 H -9.897500 2.672400 -21.205900 0
M  V30 22 H -9.699600 4.263500 -21.515700 0
M  V30 23 H -9.066800 3.289300 -17.676000 0
M  V30 24 H -9.328100 2.039900 -18.694500 0
M  V30 25 H -14.547500 0.930100 -19.762900 0
M  V30 26 H -14.931300 5.747700 -19.857500 0
M  V30 27 H -9.813500 4.827400 -19.254900 0
M  V30 28 H -7.546900 4.152200 -21.154200 0
M  V30 END ATOM
M  V30 BEGIN BOND
M  V30 1 1 1 4
M  V30 2 1 1 7
M  V30 3 1 2 11
M  V30 4 1 2 12
M  V30 5 2 3 11
M  V30 6 1 3 13
M  V30 7 1 4 8
M  V30 8 2 5 6
M  V30 9 1 5 9
M  V30 10 1 6 10
M  V30 11 1 7 14
M  V30 12 1 8 14
M  V30 13 2 9 12
M  V30 14 2 10 13
M  V30 15 1 11 14
M  V30 16 1 12 13
M  V30 17 1 1 15
M  V30 18 1 2 16
M  V30 19 1 4 17
M  V30 20 1 4 18
M  V30 21 1 5 19
M  V30 22 1 6 20
M  V30 23 1 7 21
M  V30 24 1 7 22
M  V30 25 1 8 23
M  V30 26 1 8 24
M  V30 27 1 9 25
M  V30 28 1 10 26
M  V30 29 1 14 27 CFG=1
M  V30 30 1 1 28
M  V30 END BOND
M  V30 END CTAB
M  END
>  <Ligand_Instance>  (21) 
134_B_6

>  <Dataset>  (21) 
CF

>  <PDB_ID>  (21) 
None

>  <Chain>  (21) 
B

>  <Resi>  (21) 
6

>  <Num_Resolved_Atoms>  (21) 
14

>  <Num_H_Atoms_ProtBoundConf>  (21) 
14

>  <Pocket>  (21) 
A

>  <Name>  (21) 
2‐[(3S)‐pyrrolidin‐3‐yl]‐1H‐1,3‐benzodiazole

>  <Num_Not_Resolved_Atoms>  (21) 
0

>  <ATP_Site>  (21) 
True

>  <Peripheral>  (21) 
True

>  <Standardized_SMILES>  (21) 
[H]C1=C([H])C([H])=C2C(=C1[H])N=C([C@@]1([H])C([H])([H])C([H])([H])[N+]([H])([H])C1([H])[H])N2[H]

>  <2D_Mol_H>  (21) 
<rdkit.Chem.rdchem.Mol object at 0x77059d9d82e0>

>  <MW>  (21) 
188.254

>  <HBA>  (21) 
1

>  <HBD>  (21) 
2

>  <LogP>  (21) 
0.6136

>  <NRB>  (21) 
1

>  <TPSA>  (21) 
45.29

>  <Num_Heavy_Atoms>  (21) 
14

>  <Ro5>  (21) 
[True, True, True, True, True, True]

>  <Ro5_Fulfilled>  (21) 
True

>  <Ro3>  (21) 
[True, True, True, True]

>  <Ro3_Fulfilled>  (21) 
True

>  <Fsp3>  (21) 
0.363636

>  <Fsp3_0.42>  (21) 
False

>  <Fsp3_0.45>  (21) 
False

>  <Stereogenic_Carbons>  (21) 
1

>  <C_Atoms>  (21) 
11

>  <FCStereo>  (21) 
0.090909

>  <SPS>  (21) 
306

>  <nSPS>  (21) 
21.857143

>  <PBF>  (21) 
0.637015

>  <PBF_0.6>  (21) 
True

>  <nPBF>  (21) 
0.045501

>  <nPBF_0.016>  (21) 
True

>  <PMI1>  (21) 
206.61654

>  <PMI2>  (21) 
1526.980019

>  <PMI3>  (21) 
1600.545381

>  <NPR1>  (21) 
0.129091

>  <NPR2>  (21) 
0.954037

>  <Sum_NPR>  (21) 
1.083129

>  <Sum_NPR_1.07>  (21) 
True

>  <Sum_NPR_1.2>  (21) 
False

>  <MaxAbsEStateIndex>  (21) 
4.619167

>  <MaxEStateIndex>  (21) 
4.619167

>  <MinAbsEStateIndex>  (21) 
0.627222

>  <MinEStateIndex>  (21) 
0.627222

>  <qed>  (21) 
0.67653

>  <MolWt>  (21) 
188.254

>  <HeavyAtomMolWt>  (21) 
174.142

>  <ExactMolWt>  (21) 
188.118224

>  <NumValenceElectrons>  (21) 
72

>  <NumRadicalElectrons>  (21) 
0

>  <MaxPartialCharge>  (21) 
0.115769

>  <MinPartialCharge>  (21) 
-0.34562

>  <MaxAbsPartialCharge>  (21) 
0.34562

>  <MinAbsPartialCharge>  (21) 
0.115769

>  <FpDensityMorgan1>  (21) 
1.357143

>  <FpDensityMorgan2>  (21) 
2.285714

>  <FpDensityMorgan3>  (21) 
3.071429

>  <BCUT2D_MWHI>  (21) 
14.973377

>  <BCUT2D_MWLOW>  (21) 
10.105569

>  <BCUT2D_CHGHI>  (21) 
2.222437

>  <BCUT2D_CHGLO>  (21) 
-1.982921

>  <BCUT2D_LOGPHI>  (21) 
2.194562

>  <BCUT2D_LOGPLOW>  (21) 
-2.806873

>  <BCUT2D_MRHI>  (21) 
5.743221

>  <BCUT2D_MRLOW>  (21) 
-0.636231

>  <AvgIpc>  (21) 
2.86207

>  <BalabanJ>  (21) 
2.047396

>  <BertzCT>  (21) 
407.484299

>  <Chi0>  (21) 
9.380469

>  <Chi0n>  (21) 
8.032636

>  <Chi0v>  (21) 
8.032636

>  <Chi1>  (21) 
6.932653

>  <Chi1n>  (21) 
5.196232

>  <Chi1v>  (21) 
5.196232

>  <Chi2n>  (21) 
3.937844

>  <Chi2v>  (21) 
3.937844

>  <Chi3n>  (21) 
2.964828

>  <Chi3v>  (21) 
2.964828

>  <Chi4n>  (21) 
2.170153

>  <Chi4v>  (21) 
2.170153

>  <HallKierAlpha>  (21) 
-1.35

>  <Ipc>  (21) 
4544.967134

>  <Kappa1>  (21) 
7.999579

>  <Kappa2>  (21) 
3.098739

>  <Kappa3>  (21) 
1.208245

>  <LabuteASA>  (21) 
82.545676

>  <PEOE_VSA1>  (21) 
10.300767

>  <PEOE_VSA10>  (21) 
5.824404

>  <PEOE_VSA11>  (21) 
0.0

>  <PEOE_VSA12>  (21) 
0.0

>  <PEOE_VSA13>  (21) 
0.0

>  <PEOE_VSA14>  (21) 
0.0

>  <PEOE_VSA2>  (21) 
0.0

>  <PEOE_VSA3>  (21) 
4.983979

>  <PEOE_VSA4>  (21) 
0.0

>  <PEOE_VSA5>  (21) 
0.0

>  <PEOE_VSA6>  (21) 
12.132734

>  <PEOE_VSA7>  (21) 
12.132734

>  <PEOE_VSA8>  (21) 
6.420822

>  <PEOE_VSA9>  (21) 
30.04082

>  <SMR_VSA1>  (21) 
5.316789

>  <SMR_VSA10>  (21) 
11.033401

>  <SMR_VSA2>  (21) 
0.0

>  <SMR_VSA3>  (21) 
9.967957

>  <SMR_VSA4>  (21) 
0.0

>  <SMR_VSA5>  (21) 
12.338728

>  <SMR_VSA6>  (21) 
13.089513

>  <SMR_VSA7>  (21) 
30.089873

>  <SMR_VSA8>  (21) 
0.0

>  <SMR_VSA9>  (21) 
0.0

>  <SlogP_VSA1>  (21) 
5.316789

>  <SlogP_VSA10>  (21) 
0.0

>  <SlogP_VSA11>  (21) 
0.0

>  <SlogP_VSA12>  (21) 
0.0

>  <SlogP_VSA2>  (21) 
23.05747

>  <SlogP_VSA3>  (21) 
0.0

>  <SlogP_VSA4>  (21) 
0.0

>  <SlogP_VSA5>  (21) 
18.163132

>  <SlogP_VSA6>  (21) 
24.265468

>  <SlogP_VSA7>  (21) 
0.0

>  <SlogP_VSA8>  (21) 
11.033401

>  <SlogP_VSA9>  (21) 
0.0

>  <EState_VSA1>  (21) 
0.0

>  <EState_VSA10>  (21) 
0.0

>  <EState_VSA11>  (21) 
0.0

>  <EState_VSA2>  (21) 
0.0

>  <EState_VSA3>  (21) 
5.917906

>  <EState_VSA4>  (21) 
11.033401

>  <EState_VSA5>  (21) 
25.334739

>  <EState_VSA6>  (21) 
0.0

>  <EState_VSA7>  (21) 
12.132734

>  <EState_VSA8>  (21) 
27.41748

>  <EState_VSA9>  (21) 
0.0

>  <VSA_EState1>  (21) 
0.0

>  <VSA_EState10>  (21) 
0.0

>  <VSA_EState2>  (21) 
8.025556

>  <VSA_EState3>  (21) 
2.358981

>  <VSA_EState4>  (21) 
2.253519

>  <VSA_EState5>  (21) 
1.793843

>  <VSA_EState6>  (21) 
8.233424

>  <VSA_EState7>  (21) 
1.249823

>  <VSA_EState8>  (21) 
2.418188

>  <VSA_EState9>  (21) 
0.0

>  <FractionCSP3>  (21) 
0.363636

>  <HeavyAtomCount>  (21) 
14

>  <NHOHCount>  (21) 
3

>  <NOCount>  (21) 
3

>  <NumAliphaticCarbocycles>  (21) 
0

>  <NumAliphaticHeterocycles>  (21) 
1

>  <NumAliphaticRings>  (21) 
1

>  <NumAromaticCarbocycles>  (21) 
1

>  <NumAromaticHeterocycles>  (21) 
1

>  <NumAromaticRings>  (21) 
2

>  <NumHAcceptors>  (21) 
1

>  <NumHDonors>  (21) 
2

>  <NumHeteroatoms>  (21) 
3

>  <NumRotatableBonds>  (21) 
1

>  <NumSaturatedCarbocycles>  (21) 
0

>  <NumSaturatedHeterocycles>  (21) 
1

>  <NumSaturatedRings>  (21) 
1

>  <RingCount>  (21) 
3

>  <MolLogP>  (21) 
0.6136

>  <MolMR>  (21) 
55.1111

>  <fr_Al_COO>  (21) 
0

>  <fr_Al_OH>  (21) 
0

>  <fr_Al_OH_noTert>  (21) 
0

>  <fr_ArN>  (21) 
0

>  <fr_Ar_COO>  (21) 
0

>  <fr_Ar_N>  (21) 
2

>  <fr_Ar_NH>  (21) 
1

>  <fr_Ar_OH>  (21) 
0

>  <fr_COO>  (21) 
0

>  <fr_COO2>  (21) 
0

>  <fr_C_O>  (21) 
0

>  <fr_C_O_noCOO>  (21) 
0

>  <fr_C_S>  (21) 
0

>  <fr_HOCCN>  (21) 
0

>  <fr_Imine>  (21) 
0

>  <fr_NH0>  (21) 
1

>  <fr_NH1>  (21) 
1

>  <fr_NH2>  (21) 
1

>  <fr_N_O>  (21) 
0

>  <fr_Ndealkylation1>  (21) 
0

>  <fr_Ndealkylation2>  (21) 
0

>  <fr_Nhpyrrole>  (21) 
1

>  <fr_SH>  (21) 
0

>  <fr_aldehyde>  (21) 
0

>  <fr_alkyl_carbamate>  (21) 
0

>  <fr_alkyl_halide>  (21) 
0

>  <fr_allylic_oxid>  (21) 
0

>  <fr_amide>  (21) 
0

>  <fr_amidine>  (21) 
0

>  <fr_aniline>  (21) 
0

>  <fr_aryl_methyl>  (21) 
0

>  <fr_azide>  (21) 
0

>  <fr_azo>  (21) 
0

>  <fr_barbitur>  (21) 
0

>  <fr_benzene>  (21) 
1

>  <fr_benzodiazepine>  (21) 
0

>  <fr_bicyclic>  (21) 
1

>  <fr_diazo>  (21) 
0

>  <fr_dihydropyridine>  (21) 
0

>  <fr_epoxide>  (21) 
0

>  <fr_ester>  (21) 
0

>  <fr_ether>  (21) 
0

>  <fr_furan>  (21) 
0

>  <fr_guanido>  (21) 
0

>  <fr_halogen>  (21) 
0

>  <fr_hdrzine>  (21) 
0

>  <fr_hdrzone>  (21) 
0

>  <fr_imidazole>  (21) 
1

>  <fr_imide>  (21) 
0

>  <fr_isocyan>  (21) 
0

>  <fr_isothiocyan>  (21) 
0

>  <fr_ketone>  (21) 
0

>  <fr_ketone_Topliss>  (21) 
0

>  <fr_lactam>  (21) 
0

>  <fr_lactone>  (21) 
0

>  <fr_methoxy>  (21) 
0

>  <fr_morpholine>  (21) 
0

>  <fr_nitrile>  (21) 
0

>  <fr_nitro>  (21) 
0

>  <fr_nitro_arom>  (21) 
0

>  <fr_nitro_arom_nonortho>  (21) 
0

>  <fr_nitroso>  (21) 
0

>  <fr_oxazole>  (21) 
0

>  <fr_oxime>  (21) 
0

>  <fr_para_hydroxylation>  (21) 
2

>  <fr_phenol>  (21) 
0

>  <fr_phenol_noOrthoHbond>  (21) 
0

>  <fr_phos_acid>  (21) 
0

>  <fr_phos_ester>  (21) 
0

>  <fr_piperdine>  (21) 
0

>  <fr_piperzine>  (21) 
0

>  <fr_priamide>  (21) 
0

>  <fr_prisulfonamd>  (21) 
0

>  <fr_pyridine>  (21) 
0

>  <fr_quatN>  (21) 
1

>  <fr_sulfide>  (21) 
0

>  <fr_sulfonamd>  (21) 
0

>  <fr_sulfone>  (21) 
0

>  <fr_term_acetylene>  (21) 
0

>  <fr_tetrazole>  (21) 
0

>  <fr_thiazole>  (21) 
0

>  <fr_thiocyan>  (21) 
0

>  <fr_thiophene>  (21) 
0

>  <fr_unbrch_alkane>  (21) 
0

>  <fr_urea>  (21) 
0

>  <NP_Likeness>  (21) 
-1.086621

$$$$
F134
     RDKit          3D

  0  0  0  0  0  0  0  0  0  0999 V3000
M  V30 BEGIN CTAB
M  V30 COUNTS 28 30 0 0 0
M  V30 BEGIN ATOM
M  V30 1 N -22.002000 4.174000 0.004000 0 CHG=1
M  V30 2 N -19.235000 2.611000 -2.908000 0
M  V30 3 N -20.922000 2.950000 -4.439000 0
M  V30 4 C -22.302000 2.739000 0.225000 0
M  V30 5 C -17.207000 2.296000 -5.965000 0
M  V30 6 C -18.198000 2.490000 -6.878000 0
M  V30 7 C -21.311000 4.363000 -1.277000 0
M  V30 8 C -21.693000 1.983000 -0.938000 0
M  V30 9 C -17.461000 2.316000 -4.615000 0
M  V30 10 C -19.490000 2.728000 -6.494000 0
M  V30 11 C -20.584000 2.853000 -3.052000 0
M  V30 12 C -18.733000 2.539000 -4.209000 0
M  V30 13 C -19.714000 2.754000 -5.153000 0
M  V30 14 C -21.615000 3.058000 -2.023000 0 CFG=2
M  V30 15 H -21.418300 4.506100 0.745000 0
M  V30 16 H -23.291000 2.593600 0.250600 0
M  V30 17 H -21.897400 2.430900 1.086100 0
M  V30 18 H -16.273000 2.135300 -6.284200 0
M  V30 19 H -17.976700 2.457800 -7.852700 0
M  V30 20 H -20.327100 4.479700 -1.141700 0
M  V30 21 H -21.675700 5.153000 -1.769900 0
M  V30 22 H -22.278400 1.223700 -1.222300 0
M  V30 23 H -20.784300 1.635100 -0.707300 0
M  V30 24 H -16.727300 2.170000 -3.951300 0
M  V30 25 H -20.223400 2.873700 -7.158100 0
M  V30 26 H -22.507300 3.137300 -2.467400 0
M  V30 27 H -22.857500 4.691700 -0.004000 0
M  V30 28 H -21.827900 3.121500 -4.826200 0
M  V30 END ATOM
M  V30 BEGIN BOND
M  V30 1 1 1 4
M  V30 2 1 1 7
M  V30 3 2 2 11
M  V30 4 1 2 12
M  V30 5 1 3 11
M  V30 6 1 3 13
M  V30 7 1 4 8
M  V30 8 2 5 6
M  V30 9 1 5 9
M  V30 10 1 6 10
M  V30 11 1 7 14
M  V30 12 1 8 14
M  V30 13 2 9 12
M  V30 14 2 10 13
M  V30 15 1 11 14
M  V30 16 1 12 13
M  V30 17 1 1 15
M  V30 18 1 1 27
M  V30 19 1 4 16
M  V30 20 1 4 17
M  V30 21 1 5 18
M  V30 22 1 6 19
M  V30 23 1 7 20
M  V30 24 1 7 21
M  V30 25 1 8 22
M  V30 26 1 8 23
M  V30 27 1 9 24
M  V30 28 1 10 25
M  V30 29 1 14 26 CFG=3
M  V30 30 1 3 28
M  V30 END BOND
M  V30 END CTAB
M  END
>  <Ligand_Instance>  (22) 
134_B_7

>  <Dataset>  (22) 
CF

>  <PDB_ID>  (22) 
None

>  <Chain>  (22) 
B

>  <Resi>  (22) 
7

>  <Num_Resolved_Atoms>  (22) 
14

>  <Num_H_Atoms_ProtBoundConf>  (22) 
14

>  <Pocket>  (22) 
F

>  <Name>  (22) 
2‐[(3S)‐pyrrolidin‐3‐yl]‐1H‐1,3‐benzodiazole

>  <Num_Not_Resolved_Atoms>  (22) 
0

>  <ATP_Site>  (22) 
True

>  <Peripheral>  (22) 
True

>  <Standardized_SMILES>  (22) 
[H]C1=C([H])C([H])=C2C(=C1[H])N=C([C@@]1([H])C([H])([H])C([H])([H])[N+]([H])([H])C1([H])[H])N2[H]

>  <2D_Mol_H>  (22) 
<rdkit.Chem.rdchem.Mol object at 0x77059d9d83c0>

>  <MW>  (22) 
188.254

>  <HBA>  (22) 
1

>  <HBD>  (22) 
2

>  <LogP>  (22) 
0.6136

>  <NRB>  (22) 
1

>  <TPSA>  (22) 
45.29

>  <Num_Heavy_Atoms>  (22) 
14

>  <Ro5>  (22) 
[True, True, True, True, True, True]

>  <Ro5_Fulfilled>  (22) 
True

>  <Ro3>  (22) 
[True, True, True, True]

>  <Ro3_Fulfilled>  (22) 
True

>  <Fsp3>  (22) 
0.363636

>  <Fsp3_0.42>  (22) 
False

>  <Fsp3_0.45>  (22) 
False

>  <Stereogenic_Carbons>  (22) 
1

>  <C_Atoms>  (22) 
11

>  <FCStereo>  (22) 
0.090909

>  <SPS>  (22) 
306

>  <nSPS>  (22) 
21.857143

>  <PBF>  (22) 
0.595423

>  <PBF_0.6>  (22) 
False

>  <nPBF>  (22) 
0.04253

>  <nPBF_0.016>  (22) 
True

>  <PMI1>  (22) 
207.664048

>  <PMI2>  (22) 
1504.70487

>  <PMI3>  (22) 
1577.996311

>  <NPR1>  (22) 
0.1316

>  <NPR2>  (22) 
0.953554

>  <Sum_NPR>  (22) 
1.085154

>  <Sum_NPR_1.07>  (22) 
True

>  <Sum_NPR_1.2>  (22) 
False

>  <MaxAbsEStateIndex>  (22) 
4.619167

>  <MaxEStateIndex>  (22) 
4.619167

>  <MinAbsEStateIndex>  (22) 
0.627222

>  <MinEStateIndex>  (22) 
0.627222

>  <qed>  (22) 
0.67653

>  <MolWt>  (22) 
188.254

>  <HeavyAtomMolWt>  (22) 
174.142

>  <ExactMolWt>  (22) 
188.118224

>  <NumValenceElectrons>  (22) 
72

>  <NumRadicalElectrons>  (22) 
0

>  <MaxPartialCharge>  (22) 
0.115769

>  <MinPartialCharge>  (22) 
-0.34562

>  <MaxAbsPartialCharge>  (22) 
0.34562

>  <MinAbsPartialCharge>  (22) 
0.115769

>  <FpDensityMorgan1>  (22) 
1.357143

>  <FpDensityMorgan2>  (22) 
2.285714

>  <FpDensityMorgan3>  (22) 
3.071429

>  <BCUT2D_MWHI>  (22) 
14.973377

>  <BCUT2D_MWLOW>  (22) 
10.105569

>  <BCUT2D_CHGHI>  (22) 
2.222437

>  <BCUT2D_CHGLO>  (22) 
-1.982921

>  <BCUT2D_LOGPHI>  (22) 
2.194562

>  <BCUT2D_LOGPLOW>  (22) 
-2.806873

>  <BCUT2D_MRHI>  (22) 
5.743221

>  <BCUT2D_MRLOW>  (22) 
-0.636231

>  <AvgIpc>  (22) 
2.86207

>  <BalabanJ>  (22) 
2.047396

>  <BertzCT>  (22) 
407.484299

>  <Chi0>  (22) 
9.380469

>  <Chi0n>  (22) 
8.032636

>  <Chi0v>  (22) 
8.032636

>  <Chi1>  (22) 
6.932653

>  <Chi1n>  (22) 
5.196232

>  <Chi1v>  (22) 
5.196232

>  <Chi2n>  (22) 
3.937844

>  <Chi2v>  (22) 
3.937844

>  <Chi3n>  (22) 
2.964828

>  <Chi3v>  (22) 
2.964828

>  <Chi4n>  (22) 
2.170153

>  <Chi4v>  (22) 
2.170153

>  <HallKierAlpha>  (22) 
-1.35

>  <Ipc>  (22) 
4544.967134

>  <Kappa1>  (22) 
7.999579

>  <Kappa2>  (22) 
3.098739

>  <Kappa3>  (22) 
1.208245

>  <LabuteASA>  (22) 
82.545676

>  <PEOE_VSA1>  (22) 
10.300767

>  <PEOE_VSA10>  (22) 
5.824404

>  <PEOE_VSA11>  (22) 
0.0

>  <PEOE_VSA12>  (22) 
0.0

>  <PEOE_VSA13>  (22) 
0.0

>  <PEOE_VSA14>  (22) 
0.0

>  <PEOE_VSA2>  (22) 
0.0

>  <PEOE_VSA3>  (22) 
4.983979

>  <PEOE_VSA4>  (22) 
0.0

>  <PEOE_VSA5>  (22) 
0.0

>  <PEOE_VSA6>  (22) 
12.132734

>  <PEOE_VSA7>  (22) 
12.132734

>  <PEOE_VSA8>  (22) 
6.420822

>  <PEOE_VSA9>  (22) 
30.04082

>  <SMR_VSA1>  (22) 
5.316789

>  <SMR_VSA10>  (22) 
11.033401

>  <SMR_VSA2>  (22) 
0.0

>  <SMR_VSA3>  (22) 
9.967957

>  <SMR_VSA4>  (22) 
0.0

>  <SMR_VSA5>  (22) 
12.338728

>  <SMR_VSA6>  (22) 
13.089513

>  <SMR_VSA7>  (22) 
30.089873

>  <SMR_VSA8>  (22) 
0.0

>  <SMR_VSA9>  (22) 
0.0

>  <SlogP_VSA1>  (22) 
5.316789

>  <SlogP_VSA10>  (22) 
0.0

>  <SlogP_VSA11>  (22) 
0.0

>  <SlogP_VSA12>  (22) 
0.0

>  <SlogP_VSA2>  (22) 
23.05747

>  <SlogP_VSA3>  (22) 
0.0

>  <SlogP_VSA4>  (22) 
0.0

>  <SlogP_VSA5>  (22) 
18.163132

>  <SlogP_VSA6>  (22) 
24.265468

>  <SlogP_VSA7>  (22) 
0.0

>  <SlogP_VSA8>  (22) 
11.033401

>  <SlogP_VSA9>  (22) 
0.0

>  <EState_VSA1>  (22) 
0.0

>  <EState_VSA10>  (22) 
0.0

>  <EState_VSA11>  (22) 
0.0

>  <EState_VSA2>  (22) 
0.0

>  <EState_VSA3>  (22) 
5.917906

>  <EState_VSA4>  (22) 
11.033401

>  <EState_VSA5>  (22) 
25.334739

>  <EState_VSA6>  (22) 
0.0

>  <EState_VSA7>  (22) 
12.132734

>  <EState_VSA8>  (22) 
27.41748

>  <EState_VSA9>  (22) 
0.0

>  <VSA_EState1>  (22) 
0.0

>  <VSA_EState10>  (22) 
0.0

>  <VSA_EState2>  (22) 
8.025556

>  <VSA_EState3>  (22) 
2.358981

>  <VSA_EState4>  (22) 
2.253519

>  <VSA_EState5>  (22) 
1.793843

>  <VSA_EState6>  (22) 
8.233424

>  <VSA_EState7>  (22) 
1.249823

>  <VSA_EState8>  (22) 
2.418188

>  <VSA_EState9>  (22) 
0.0

>  <FractionCSP3>  (22) 
0.363636

>  <HeavyAtomCount>  (22) 
14

>  <NHOHCount>  (22) 
3

>  <NOCount>  (22) 
3

>  <NumAliphaticCarbocycles>  (22) 
0

>  <NumAliphaticHeterocycles>  (22) 
1

>  <NumAliphaticRings>  (22) 
1

>  <NumAromaticCarbocycles>  (22) 
1

>  <NumAromaticHeterocycles>  (22) 
1

>  <NumAromaticRings>  (22) 
2

>  <NumHAcceptors>  (22) 
1

>  <NumHDonors>  (22) 
2

>  <NumHeteroatoms>  (22) 
3

>  <NumRotatableBonds>  (22) 
1

>  <NumSaturatedCarbocycles>  (22) 
0

>  <NumSaturatedHeterocycles>  (22) 
1

>  <NumSaturatedRings>  (22) 
1

>  <RingCount>  (22) 
3

>  <MolLogP>  (22) 
0.6136

>  <MolMR>  (22) 
55.1111

>  <fr_Al_COO>  (22) 
0

>  <fr_Al_OH>  (22) 
0

>  <fr_Al_OH_noTert>  (22) 
0

>  <fr_ArN>  (22) 
0

>  <fr_Ar_COO>  (22) 
0

>  <fr_Ar_N>  (22) 
2

>  <fr_Ar_NH>  (22) 
1

>  <fr_Ar_OH>  (22) 
0

>  <fr_COO>  (22) 
0

>  <fr_COO2>  (22) 
0

>  <fr_C_O>  (22) 
0

>  <fr_C_O_noCOO>  (22) 
0

>  <fr_C_S>  (22) 
0

>  <fr_HOCCN>  (22) 
0

>  <fr_Imine>  (22) 
0

>  <fr_NH0>  (22) 
1

>  <fr_NH1>  (22) 
1

>  <fr_NH2>  (22) 
1

>  <fr_N_O>  (22) 
0

>  <fr_Ndealkylation1>  (22) 
0

>  <fr_Ndealkylation2>  (22) 
0

>  <fr_Nhpyrrole>  (22) 
1

>  <fr_SH>  (22) 
0

>  <fr_aldehyde>  (22) 
0

>  <fr_alkyl_carbamate>  (22) 
0

>  <fr_alkyl_halide>  (22) 
0

>  <fr_allylic_oxid>  (22) 
0

>  <fr_amide>  (22) 
0

>  <fr_amidine>  (22) 
0

>  <fr_aniline>  (22) 
0

>  <fr_aryl_methyl>  (22) 
0

>  <fr_azide>  (22) 
0

>  <fr_azo>  (22) 
0

>  <fr_barbitur>  (22) 
0

>  <fr_benzene>  (22) 
1

>  <fr_benzodiazepine>  (22) 
0

>  <fr_bicyclic>  (22) 
1

>  <fr_diazo>  (22) 
0

>  <fr_dihydropyridine>  (22) 
0

>  <fr_epoxide>  (22) 
0

>  <fr_ester>  (22) 
0

>  <fr_ether>  (22) 
0

>  <fr_furan>  (22) 
0

>  <fr_guanido>  (22) 
0

>  <fr_halogen>  (22) 
0

>  <fr_hdrzine>  (22) 
0

>  <fr_hdrzone>  (22) 
0

>  <fr_imidazole>  (22) 
1

>  <fr_imide>  (22) 
0

>  <fr_isocyan>  (22) 
0

>  <fr_isothiocyan>  (22) 
0

>  <fr_ketone>  (22) 
0

>  <fr_ketone_Topliss>  (22) 
0

>  <fr_lactam>  (22) 
0

>  <fr_lactone>  (22) 
0

>  <fr_methoxy>  (22) 
0

>  <fr_morpholine>  (22) 
0

>  <fr_nitrile>  (22) 
0

>  <fr_nitro>  (22) 
0

>  <fr_nitro_arom>  (22) 
0

>  <fr_nitro_arom_nonortho>  (22) 
0

>  <fr_nitroso>  (22) 
0

>  <fr_oxazole>  (22) 
0

>  <fr_oxime>  (22) 
0

>  <fr_para_hydroxylation>  (22) 
2

>  <fr_phenol>  (22) 
0

>  <fr_phenol_noOrthoHbond>  (22) 
0

>  <fr_phos_acid>  (22) 
0

>  <fr_phos_ester>  (22) 
0

>  <fr_piperdine>  (22) 
0

>  <fr_piperzine>  (22) 
0

>  <fr_priamide>  (22) 
0

>  <fr_prisulfonamd>  (22) 
0

>  <fr_pyridine>  (22) 
0

>  <fr_quatN>  (22) 
1

>  <fr_sulfide>  (22) 
0

>  <fr_sulfonamd>  (22) 
0

>  <fr_sulfone>  (22) 
0

>  <fr_term_acetylene>  (22) 
0

>  <fr_tetrazole>  (22) 
0

>  <fr_thiazole>  (22) 
0

>  <fr_thiocyan>  (22) 
0

>  <fr_thiophene>  (22) 
0

>  <fr_unbrch_alkane>  (22) 
0

>  <fr_urea>  (22) 
0

>  <NP_Likeness>  (22) 
-1.086621

$$$$
F134
     RDKit          3D

  0  0  0  0  0  0  0  0  0  0999 V3000
M  V30 BEGIN CTAB
M  V30 COUNTS 28 30 0 0 0
M  V30 BEGIN ATOM
M  V30 1 N -6.332000 6.598000 6.368000 0 CHG=1
M  V30 2 N -8.921000 3.137000 6.205000 0
M  V30 3 N -9.972000 4.035000 4.406000 0
M  V30 4 C -7.338000 6.956000 7.391000 0
M  V30 5 C -11.038000 0.196000 5.400000 0
M  V30 6 C -11.658000 0.715000 4.286000 0
M  V30 7 C -6.787000 5.280000 5.860000 0
M  V30 8 C -8.639000 6.320000 6.878000 0
M  V30 9 C -10.103000 0.927000 6.120000 0
M  V30 10 C -11.355000 1.993000 3.879000 0
M  V30 11 C -8.996000 4.272000 5.425000 0
M  V30 12 C -9.813000 2.195000 5.691000 0
M  V30 13 C -10.448000 2.699000 4.591000 0
M  V30 14 C -8.258000 5.539000 5.605000 0 CFG=2
M  V30 15 H -5.421400 6.526600 6.775100 0
M  V30 16 H -8.329500 3.010900 7.001400 0
M  V30 17 H -7.432900 7.948900 7.463100 0
M  V30 18 H -7.086700 6.579600 8.282700 0
M  V30 19 H -11.266800 -0.730700 5.698000 0
M  V30 20 H -12.322600 0.167700 3.777400 0
M  V30 21 H -6.656600 4.561400 6.543100 0
M  V30 22 H -6.309700 5.029700 5.017700 0
M  V30 23 H -9.310700 7.028800 6.662600 0
M  V30 24 H -9.017300 5.700200 7.565600 0
M  V30 25 H -9.655400 0.540100 6.926200 0
M  V30 26 H -11.795600 2.391300 3.074500 0
M  V30 27 H -8.370200 6.119800 4.798700 0
M  V30 28 H -6.316300 7.275800 5.632900 0
M  V30 END ATOM
M  V30 BEGIN BOND
M  V30 1 1 1 4
M  V30 2 1 1 7
M  V30 3 1 2 11
M  V30 4 1 2 12
M  V30 5 2 3 11
M  V30 6 1 3 13
M  V30 7 1 4 8
M  V30 8 2 5 6
M  V30 9 1 5 9
M  V30 10 1 6 10
M  V30 11 1 7 14
M  V30 12 1 8 14
M  V30 13 2 9 12
M  V30 14 2 10 13
M  V30 15 1 11 14
M  V30 16 1 12 13
M  V30 17 1 1 15
M  V30 18 1 2 16
M  V30 19 1 4 17
M  V30 20 1 4 18
M  V30 21 1 5 19
M  V30 22 1 6 20
M  V30 23 1 7 21
M  V30 24 1 7 22
M  V30 25 1 8 23
M  V30 26 1 8 24
M  V30 27 1 9 25
M  V30 28 1 10 26
M  V30 29 1 14 27 CFG=3
M  V30 30 1 1 28
M  V30 END BOND
M  V30 END CTAB
M  END
>  <Ligand_Instance>  (23) 
134_B_8

>  <Dataset>  (23) 
CF

>  <PDB_ID>  (23) 
None

>  <Chain>  (23) 
B

>  <Resi>  (23) 
8

>  <Num_Resolved_Atoms>  (23) 
14

>  <Num_H_Atoms_ProtBoundConf>  (23) 
14

>  <Pocket>  (23) 
X

>  <Name>  (23) 
2‐[(3S)‐pyrrolidin‐3‐yl]‐1H‐1,3‐benzodiazole

>  <Num_Not_Resolved_Atoms>  (23) 
0

>  <ATP_Site>  (23) 
True

>  <Peripheral>  (23) 
True

>  <Standardized_SMILES>  (23) 
[H]C1=C([H])C([H])=C2C(=C1[H])N=C([C@@]1([H])C([H])([H])C([H])([H])[N+]([H])([H])C1([H])[H])N2[H]

>  <2D_Mol_H>  (23) 
<rdkit.Chem.rdchem.Mol object at 0x77059d9d84a0>

>  <MW>  (23) 
188.254

>  <HBA>  (23) 
1

>  <HBD>  (23) 
2

>  <LogP>  (23) 
0.6136

>  <NRB>  (23) 
1

>  <TPSA>  (23) 
45.29

>  <Num_Heavy_Atoms>  (23) 
14

>  <Ro5>  (23) 
[True, True, True, True, True, True]

>  <Ro5_Fulfilled>  (23) 
True

>  <Ro3>  (23) 
[True, True, True, True]

>  <Ro3_Fulfilled>  (23) 
True

>  <Fsp3>  (23) 
0.363636

>  <Fsp3_0.42>  (23) 
False

>  <Fsp3_0.45>  (23) 
False

>  <Stereogenic_Carbons>  (23) 
1

>  <C_Atoms>  (23) 
11

>  <FCStereo>  (23) 
0.090909

>  <SPS>  (23) 
306

>  <nSPS>  (23) 
21.857143

>  <PBF>  (23) 
0.574855

>  <PBF_0.6>  (23) 
False

>  <nPBF>  (23) 
0.041061

>  <nPBF_0.016>  (23) 
True

>  <PMI1>  (23) 
204.258524

>  <PMI2>  (23) 
1521.299933

>  <PMI3>  (23) 
1601.084888

>  <NPR1>  (23) 
0.127575

>  <NPR2>  (23) 
0.950168

>  <Sum_NPR>  (23) 
1.077743

>  <Sum_NPR_1.07>  (23) 
True

>  <Sum_NPR_1.2>  (23) 
False

>  <MaxAbsEStateIndex>  (23) 
4.619167

>  <MaxEStateIndex>  (23) 
4.619167

>  <MinAbsEStateIndex>  (23) 
0.627222

>  <MinEStateIndex>  (23) 
0.627222

>  <qed>  (23) 
0.67653

>  <MolWt>  (23) 
188.254

>  <HeavyAtomMolWt>  (23) 
174.142

>  <ExactMolWt>  (23) 
188.118224

>  <NumValenceElectrons>  (23) 
72

>  <NumRadicalElectrons>  (23) 
0

>  <MaxPartialCharge>  (23) 
0.115769

>  <MinPartialCharge>  (23) 
-0.34562

>  <MaxAbsPartialCharge>  (23) 
0.34562

>  <MinAbsPartialCharge>  (23) 
0.115769

>  <FpDensityMorgan1>  (23) 
1.357143

>  <FpDensityMorgan2>  (23) 
2.285714

>  <FpDensityMorgan3>  (23) 
3.071429

>  <BCUT2D_MWHI>  (23) 
14.973377

>  <BCUT2D_MWLOW>  (23) 
10.105569

>  <BCUT2D_CHGHI>  (23) 
2.222437

>  <BCUT2D_CHGLO>  (23) 
-1.982921

>  <BCUT2D_LOGPHI>  (23) 
2.194562

>  <BCUT2D_LOGPLOW>  (23) 
-2.806873

>  <BCUT2D_MRHI>  (23) 
5.743221

>  <BCUT2D_MRLOW>  (23) 
-0.636231

>  <AvgIpc>  (23) 
2.86207

>  <BalabanJ>  (23) 
2.047396

>  <BertzCT>  (23) 
407.484299

>  <Chi0>  (23) 
9.380469

>  <Chi0n>  (23) 
8.032636

>  <Chi0v>  (23) 
8.032636

>  <Chi1>  (23) 
6.932653

>  <Chi1n>  (23) 
5.196232

>  <Chi1v>  (23) 
5.196232

>  <Chi2n>  (23) 
3.937844

>  <Chi2v>  (23) 
3.937844

>  <Chi3n>  (23) 
2.964828

>  <Chi3v>  (23) 
2.964828

>  <Chi4n>  (23) 
2.170153

>  <Chi4v>  (23) 
2.170153

>  <HallKierAlpha>  (23) 
-1.35

>  <Ipc>  (23) 
4544.967134

>  <Kappa1>  (23) 
7.999579

>  <Kappa2>  (23) 
3.098739

>  <Kappa3>  (23) 
1.208245

>  <LabuteASA>  (23) 
82.545676

>  <PEOE_VSA1>  (23) 
10.300767

>  <PEOE_VSA10>  (23) 
5.824404

>  <PEOE_VSA11>  (23) 
0.0

>  <PEOE_VSA12>  (23) 
0.0

>  <PEOE_VSA13>  (23) 
0.0

>  <PEOE_VSA14>  (23) 
0.0

>  <PEOE_VSA2>  (23) 
0.0

>  <PEOE_VSA3>  (23) 
4.983979

>  <PEOE_VSA4>  (23) 
0.0

>  <PEOE_VSA5>  (23) 
0.0

>  <PEOE_VSA6>  (23) 
12.132734

>  <PEOE_VSA7>  (23) 
12.132734

>  <PEOE_VSA8>  (23) 
6.420822

>  <PEOE_VSA9>  (23) 
30.04082

>  <SMR_VSA1>  (23) 
5.316789

>  <SMR_VSA10>  (23) 
11.033401

>  <SMR_VSA2>  (23) 
0.0

>  <SMR_VSA3>  (23) 
9.967957

>  <SMR_VSA4>  (23) 
0.0

>  <SMR_VSA5>  (23) 
12.338728

>  <SMR_VSA6>  (23) 
13.089513

>  <SMR_VSA7>  (23) 
30.089873

>  <SMR_VSA8>  (23) 
0.0

>  <SMR_VSA9>  (23) 
0.0

>  <SlogP_VSA1>  (23) 
5.316789

>  <SlogP_VSA10>  (23) 
0.0

>  <SlogP_VSA11>  (23) 
0.0

>  <SlogP_VSA12>  (23) 
0.0

>  <SlogP_VSA2>  (23) 
23.05747

>  <SlogP_VSA3>  (23) 
0.0

>  <SlogP_VSA4>  (23) 
0.0

>  <SlogP_VSA5>  (23) 
18.163132

>  <SlogP_VSA6>  (23) 
24.265468

>  <SlogP_VSA7>  (23) 
0.0

>  <SlogP_VSA8>  (23) 
11.033401

>  <SlogP_VSA9>  (23) 
0.0

>  <EState_VSA1>  (23) 
0.0

>  <EState_VSA10>  (23) 
0.0

>  <EState_VSA11>  (23) 
0.0

>  <EState_VSA2>  (23) 
0.0

>  <EState_VSA3>  (23) 
5.917906

>  <EState_VSA4>  (23) 
11.033401

>  <EState_VSA5>  (23) 
25.334739

>  <EState_VSA6>  (23) 
0.0

>  <EState_VSA7>  (23) 
12.132734

>  <EState_VSA8>  (23) 
27.41748

>  <EState_VSA9>  (23) 
0.0

>  <VSA_EState1>  (23) 
0.0

>  <VSA_EState10>  (23) 
0.0

>  <VSA_EState2>  (23) 
8.025556

>  <VSA_EState3>  (23) 
2.358981

>  <VSA_EState4>  (23) 
2.253519

>  <VSA_EState5>  (23) 
1.793843

>  <VSA_EState6>  (23) 
8.233424

>  <VSA_EState7>  (23) 
1.249823

>  <VSA_EState8>  (23) 
2.418188

>  <VSA_EState9>  (23) 
0.0

>  <FractionCSP3>  (23) 
0.363636

>  <HeavyAtomCount>  (23) 
14

>  <NHOHCount>  (23) 
3

>  <NOCount>  (23) 
3

>  <NumAliphaticCarbocycles>  (23) 
0

>  <NumAliphaticHeterocycles>  (23) 
1

>  <NumAliphaticRings>  (23) 
1

>  <NumAromaticCarbocycles>  (23) 
1

>  <NumAromaticHeterocycles>  (23) 
1

>  <NumAromaticRings>  (23) 
2

>  <NumHAcceptors>  (23) 
1

>  <NumHDonors>  (23) 
2

>  <NumHeteroatoms>  (23) 
3

>  <NumRotatableBonds>  (23) 
1

>  <NumSaturatedCarbocycles>  (23) 
0

>  <NumSaturatedHeterocycles>  (23) 
1

>  <NumSaturatedRings>  (23) 
1

>  <RingCount>  (23) 
3

>  <MolLogP>  (23) 
0.6136

>  <MolMR>  (23) 
55.1111

>  <fr_Al_COO>  (23) 
0

>  <fr_Al_OH>  (23) 
0

>  <fr_Al_OH_noTert>  (23) 
0

>  <fr_ArN>  (23) 
0

>  <fr_Ar_COO>  (23) 
0

>  <fr_Ar_N>  (23) 
2

>  <fr_Ar_NH>  (23) 
1

>  <fr_Ar_OH>  (23) 
0

>  <fr_COO>  (23) 
0

>  <fr_COO2>  (23) 
0

>  <fr_C_O>  (23) 
0

>  <fr_C_O_noCOO>  (23) 
0

>  <fr_C_S>  (23) 
0

>  <fr_HOCCN>  (23) 
0

>  <fr_Imine>  (23) 
0

>  <fr_NH0>  (23) 
1

>  <fr_NH1>  (23) 
1

>  <fr_NH2>  (23) 
1

>  <fr_N_O>  (23) 
0

>  <fr_Ndealkylation1>  (23) 
0

>  <fr_Ndealkylation2>  (23) 
0

>  <fr_Nhpyrrole>  (23) 
1

>  <fr_SH>  (23) 
0

>  <fr_aldehyde>  (23) 
0

>  <fr_alkyl_carbamate>  (23) 
0

>  <fr_alkyl_halide>  (23) 
0

>  <fr_allylic_oxid>  (23) 
0

>  <fr_amide>  (23) 
0

>  <fr_amidine>  (23) 
0

>  <fr_aniline>  (23) 
0

>  <fr_aryl_methyl>  (23) 
0

>  <fr_azide>  (23) 
0

>  <fr_azo>  (23) 
0

>  <fr_barbitur>  (23) 
0

>  <fr_benzene>  (23) 
1

>  <fr_benzodiazepine>  (23) 
0

>  <fr_bicyclic>  (23) 
1

>  <fr_diazo>  (23) 
0

>  <fr_dihydropyridine>  (23) 
0

>  <fr_epoxide>  (23) 
0

>  <fr_ester>  (23) 
0

>  <fr_ether>  (23) 
0

>  <fr_furan>  (23) 
0

>  <fr_guanido>  (23) 
0

>  <fr_halogen>  (23) 
0

>  <fr_hdrzine>  (23) 
0

>  <fr_hdrzone>  (23) 
0

>  <fr_imidazole>  (23) 
1

>  <fr_imide>  (23) 
0

>  <fr_isocyan>  (23) 
0

>  <fr_isothiocyan>  (23) 
0

>  <fr_ketone>  (23) 
0

>  <fr_ketone_Topliss>  (23) 
0

>  <fr_lactam>  (23) 
0

>  <fr_lactone>  (23) 
0

>  <fr_methoxy>  (23) 
0

>  <fr_morpholine>  (23) 
0

>  <fr_nitrile>  (23) 
0

>  <fr_nitro>  (23) 
0

>  <fr_nitro_arom>  (23) 
0

>  <fr_nitro_arom_nonortho>  (23) 
0

>  <fr_nitroso>  (23) 
0

>  <fr_oxazole>  (23) 
0

>  <fr_oxime>  (23) 
0

>  <fr_para_hydroxylation>  (23) 
2

>  <fr_phenol>  (23) 
0

>  <fr_phenol_noOrthoHbond>  (23) 
0

>  <fr_phos_acid>  (23) 
0

>  <fr_phos_ester>  (23) 
0

>  <fr_piperdine>  (23) 
0

>  <fr_piperzine>  (23) 
0

>  <fr_priamide>  (23) 
0

>  <fr_prisulfonamd>  (23) 
0

>  <fr_pyridine>  (23) 
0

>  <fr_quatN>  (23) 
1

>  <fr_sulfide>  (23) 
0

>  <fr_sulfonamd>  (23) 
0

>  <fr_sulfone>  (23) 
0

>  <fr_term_acetylene>  (23) 
0

>  <fr_tetrazole>  (23) 
0

>  <fr_thiazole>  (23) 
0

>  <fr_thiocyan>  (23) 
0

>  <fr_thiophene>  (23) 
0

>  <fr_unbrch_alkane>  (23) 
0

>  <fr_urea>  (23) 
0

>  <NP_Likeness>  (23) 
-1.086621

$$$$
F134
     RDKit          3D

  0  0  0  0  0  0  0  0  0  0999 V3000
M  V30 BEGIN CTAB
M  V30 COUNTS 27 29 0 0 0
M  V30 BEGIN ATOM
M  V30 1 N -21.108000 9.176000 -26.976000 0
M  V30 2 N -24.041000 11.150000 -29.489000 0
M  V30 3 N -23.045000 12.842000 -28.265000 0
M  V30 4 C -22.065000 8.376000 -27.773000 0
M  V30 5 C -24.615000 13.835000 -31.881000 0
M  V30 6 C -24.043000 14.848000 -31.187000 0
M  V30 7 C -21.554000 10.558000 -26.966000 0
M  V30 8 C -23.398000 9.008000 -27.506000 0
M  V30 9 C -24.657000 12.576000 -31.378000 0
M  V30 10 C -23.447000 14.619000 -29.982000 0
M  V30 11 C -23.387000 11.430000 -28.301000 0
M  V30 12 C -24.112000 12.346000 -30.184000 0
M  V30 13 C -23.531000 13.360000 -29.494000 0
M  V30 14 C -23.066000 10.480000 -27.206000 0 CFG=2
M  V30 15 H -24.391900 10.261900 -29.785800 0
M  V30 16 H -22.060800 7.421200 -27.475800 0
M  V30 17 H -21.840300 8.423100 -28.746300 0
M  V30 18 H -25.013200 14.018600 -32.779700 0
M  V30 19 H -24.058000 15.774600 -31.562700 0
M  V30 20 H -21.107600 11.078000 -27.694200 0
M  V30 21 H -21.358500 10.985400 -26.083300 0
M  V30 22 H -23.843300 8.577900 -26.720700 0
M  V30 23 H -23.991900 8.934800 -28.307200 0
M  V30 24 H -25.088400 11.835200 -31.892900 0
M  V30 25 H -22.972000 15.344800 -29.484400 0
M  V30 26 H -23.545500 10.762200 -26.375100 0
M  V30 27 H -21.074400 8.826200 -26.039800 0
M  V30 END ATOM
M  V30 BEGIN BOND
M  V30 1 1 1 4
M  V30 2 1 1 7
M  V30 3 1 2 11
M  V30 4 1 2 12
M  V30 5 2 3 11
M  V30 6 1 3 13
M  V30 7 1 4 8
M  V30 8 2 5 6
M  V30 9 1 5 9
M  V30 10 1 6 10
M  V30 11 1 7 14
M  V30 12 1 8 14
M  V30 13 2 9 12
M  V30 14 2 10 13
M  V30 15 1 11 14
M  V30 16 1 12 13
M  V30 17 1 1 27
M  V30 18 1 2 15
M  V30 19 1 4 16
M  V30 20 1 4 17
M  V30 21 1 5 18
M  V30 22 1 6 19
M  V30 23 1 7 20
M  V30 24 1 7 21
M  V30 25 1 8 22
M  V30 26 1 8 23
M  V30 27 1 9 24
M  V30 28 1 10 25
M  V30 29 1 14 26 CFG=1
M  V30 END BOND
M  V30 END CTAB
M  END
>  <Ligand_Instance>  (24) 
134_B_9

>  <Dataset>  (24) 
CF

>  <PDB_ID>  (24) 
None

>  <Chain>  (24) 
B

>  <Resi>  (24) 
9

>  <Num_Resolved_Atoms>  (24) 
14

>  <Num_H_Atoms_ProtBoundConf>  (24) 
13

>  <Pocket>  (24) 
X

>  <Name>  (24) 
2‐[(3S)‐pyrrolidin‐3‐yl]‐1H‐1,3‐benzodiazole

>  <Num_Not_Resolved_Atoms>  (24) 
0

>  <ATP_Site>  (24) 
True

>  <Peripheral>  (24) 
True

>  <Standardized_SMILES>  (24) 
[H]C1=C([H])C([H])=C2C(=C1[H])N=C([C@]1([H])C([H])([H])N([H])C([H])([H])C1([H])[H])N2[H]

>  <2D_Mol_H>  (24) 
<rdkit.Chem.rdchem.Mol object at 0x77059d9d8580>

>  <MW>  (24) 
187.246

>  <HBA>  (24) 
2

>  <HBD>  (24) 
2

>  <LogP>  (24) 
1.6398

>  <NRB>  (24) 
1

>  <TPSA>  (24) 
40.71

>  <Num_Heavy_Atoms>  (24) 
14

>  <Ro5>  (24) 
[True, True, True, True, True, True]

>  <Ro5_Fulfilled>  (24) 
True

>  <Ro3>  (24) 
[True, True, True, True]

>  <Ro3_Fulfilled>  (24) 
True

>  <Fsp3>  (24) 
0.363636

>  <Fsp3_0.42>  (24) 
False

>  <Fsp3_0.45>  (24) 
False

>  <Stereogenic_Carbons>  (24) 
1

>  <C_Atoms>  (24) 
11

>  <FCStereo>  (24) 
0.090909

>  <SPS>  (24) 
306

>  <nSPS>  (24) 
21.857143

>  <PBF>  (24) 
0.509241

>  <PBF_0.6>  (24) 
False

>  <nPBF>  (24) 
0.036374

>  <nPBF_0.016>  (24) 
True

>  <PMI1>  (24) 
231.50021

>  <PMI2>  (24) 
1342.909952

>  <PMI3>  (24) 
1481.862762

>  <NPR1>  (24) 
0.156222

>  <NPR2>  (24) 
0.906231

>  <Sum_NPR>  (24) 
1.062453

>  <Sum_NPR_1.07>  (24) 
False

>  <Sum_NPR_1.2>  (24) 
False

>  <MaxAbsEStateIndex>  (24) 
4.599167

>  <MaxEStateIndex>  (24) 
4.599167

>  <MinAbsEStateIndex>  (24) 
0.571667

>  <MinEStateIndex>  (24) 
0.571667

>  <qed>  (24) 
0.712185

>  <MolWt>  (24) 
187.246

>  <HeavyAtomMolWt>  (24) 
174.142

>  <ExactMolWt>  (24) 
187.110947

>  <NumValenceElectrons>  (24) 
72

>  <NumRadicalElectrons>  (24) 
0

>  <MaxPartialCharge>  (24) 
0.111188

>  <MinPartialCharge>  (24) 
-0.341702

>  <MaxAbsPartialCharge>  (24) 
0.341702

>  <MinAbsPartialCharge>  (24) 
0.111188

>  <FpDensityMorgan1>  (24) 
1.285714

>  <FpDensityMorgan2>  (24) 
2.214286

>  <FpDensityMorgan3>  (24) 
3.0

>  <BCUT2D_MWHI>  (24) 
14.973377

>  <BCUT2D_MWLOW>  (24) 
10.105569

>  <BCUT2D_CHGHI>  (24) 
2.1892

>  <BCUT2D_CHGLO>  (24) 
-2.011794

>  <BCUT2D_LOGPHI>  (24) 
2.215294

>  <BCUT2D_LOGPLOW>  (24) 
-2.081802

>  <BCUT2D_MRHI>  (24) 
5.743412

>  <BCUT2D_MRLOW>  (24) 
0.717279

>  <AvgIpc>  (24) 
2.86207

>  <BalabanJ>  (24) 
2.047396

>  <BertzCT>  (24) 
407.484299

>  <Chi0>  (24) 
9.380469

>  <Chi0n>  (24) 
7.955285

>  <Chi0v>  (24) 
7.955285

>  <Chi1>  (24) 
6.932653

>  <Chi1n>  (24) 
5.086842

>  <Chi1v>  (24) 
5.086842

>  <Chi2n>  (24) 
3.828916

>  <Chi2v>  (24) 
3.828916

>  <Chi3n>  (24) 
2.854704

>  <Chi3v>  (24) 
2.854704

>  <Chi4n>  (24) 
2.053923

>  <Chi4v>  (24) 
2.053923

>  <HallKierAlpha>  (24) 
-1.35

>  <Ipc>  (24) 
4544.967134

>  <Kappa1>  (24) 
7.999579

>  <Kappa2>  (24) 
3.098739

>  <Kappa3>  (24) 
1.208245

>  <LabuteASA>  (24) 
82.545676

>  <PEOE_VSA1>  (24) 
10.300767

>  <PEOE_VSA10>  (24) 
5.824404

>  <PEOE_VSA11>  (24) 
0.0

>  <PEOE_VSA12>  (24) 
0.0

>  <PEOE_VSA13>  (24) 
0.0

>  <PEOE_VSA14>  (24) 
0.0

>  <PEOE_VSA2>  (24) 
0.0

>  <PEOE_VSA3>  (24) 
4.983979

>  <PEOE_VSA4>  (24) 
0.0

>  <PEOE_VSA5>  (24) 
0.0

>  <PEOE_VSA6>  (24) 
12.132734

>  <PEOE_VSA7>  (24) 
25.098312

>  <PEOE_VSA8>  (24) 
12.462662

>  <PEOE_VSA9>  (24) 
11.033401

>  <SMR_VSA1>  (24) 
0.0

>  <SMR_VSA10>  (24) 
11.033401

>  <SMR_VSA2>  (24) 
0.0

>  <SMR_VSA3>  (24) 
15.284746

>  <SMR_VSA4>  (24) 
0.0

>  <SMR_VSA5>  (24) 
12.338728

>  <SMR_VSA6>  (24) 
13.089513

>  <SMR_VSA7>  (24) 
30.089873

>  <SMR_VSA8>  (24) 
0.0

>  <SMR_VSA9>  (24) 
0.0

>  <SlogP_VSA1>  (24) 
5.316789

>  <SlogP_VSA10>  (24) 
0.0

>  <SlogP_VSA11>  (24) 
0.0

>  <SlogP_VSA12>  (24) 
0.0

>  <SlogP_VSA2>  (24) 
23.05747

>  <SlogP_VSA3>  (24) 
0.0

>  <SlogP_VSA4>  (24) 
0.0

>  <SlogP_VSA5>  (24) 
18.163132

>  <SlogP_VSA6>  (24) 
24.265468

>  <SlogP_VSA7>  (24) 
0.0

>  <SlogP_VSA8>  (24) 
11.033401

>  <SlogP_VSA9>  (24) 
0.0

>  <EState_VSA1>  (24) 
0.0

>  <EState_VSA10>  (24) 
0.0

>  <EState_VSA11>  (24) 
0.0

>  <EState_VSA2>  (24) 
0.0

>  <EState_VSA3>  (24) 
5.917906

>  <EState_VSA4>  (24) 
29.947319

>  <EState_VSA5>  (24) 
6.420822

>  <EState_VSA6>  (24) 
0.0

>  <EState_VSA7>  (24) 
12.132734

>  <EState_VSA8>  (24) 
27.41748

>  <EState_VSA9>  (24) 
0.0

>  <VSA_EState1>  (24) 
0.0

>  <VSA_EState10>  (24) 
0.0

>  <VSA_EState2>  (24) 
7.985556

>  <VSA_EState3>  (24) 
3.355154

>  <VSA_EState4>  (24) 
2.225741

>  <VSA_EState5>  (24) 
1.707037

>  <VSA_EState6>  (24) 
8.19739

>  <VSA_EState7>  (24) 
1.194268

>  <VSA_EState8>  (24) 
2.168188

>  <VSA_EState9>  (24) 
0.0

>  <FractionCSP3>  (24) 
0.363636

>  <HeavyAtomCount>  (24) 
14

>  <NHOHCount>  (24) 
2

>  <NOCount>  (24) 
3

>  <NumAliphaticCarbocycles>  (24) 
0

>  <NumAliphaticHeterocycles>  (24) 
1

>  <NumAliphaticRings>  (24) 
1

>  <NumAromaticCarbocycles>  (24) 
1

>  <NumAromaticHeterocycles>  (24) 
1

>  <NumAromaticRings>  (24) 
2

>  <NumHAcceptors>  (24) 
2

>  <NumHDonors>  (24) 
2

>  <NumHeteroatoms>  (24) 
3

>  <NumRotatableBonds>  (24) 
1

>  <NumSaturatedCarbocycles>  (24) 
0

>  <NumSaturatedHeterocycles>  (24) 
1

>  <NumSaturatedRings>  (24) 
1

>  <RingCount>  (24) 
3

>  <MolLogP>  (24) 
1.6398

>  <MolMR>  (24) 
56.3214

>  <fr_Al_COO>  (24) 
0

>  <fr_Al_OH>  (24) 
0

>  <fr_Al_OH_noTert>  (24) 
0

>  <fr_ArN>  (24) 
0

>  <fr_Ar_COO>  (24) 
0

>  <fr_Ar_N>  (24) 
2

>  <fr_Ar_NH>  (24) 
1

>  <fr_Ar_OH>  (24) 
0

>  <fr_COO>  (24) 
0

>  <fr_COO2>  (24) 
0

>  <fr_C_O>  (24) 
0

>  <fr_C_O_noCOO>  (24) 
0

>  <fr_C_S>  (24) 
0

>  <fr_HOCCN>  (24) 
0

>  <fr_Imine>  (24) 
0

>  <fr_NH0>  (24) 
1

>  <fr_NH1>  (24) 
2

>  <fr_NH2>  (24) 
0

>  <fr_N_O>  (24) 
0

>  <fr_Ndealkylation1>  (24) 
0

>  <fr_Ndealkylation2>  (24) 
0

>  <fr_Nhpyrrole>  (24) 
1

>  <fr_SH>  (24) 
0

>  <fr_aldehyde>  (24) 
0

>  <fr_alkyl_carbamate>  (24) 
0

>  <fr_alkyl_halide>  (24) 
0

>  <fr_allylic_oxid>  (24) 
0

>  <fr_amide>  (24) 
0

>  <fr_amidine>  (24) 
0

>  <fr_aniline>  (24) 
0

>  <fr_aryl_methyl>  (24) 
0

>  <fr_azide>  (24) 
0

>  <fr_azo>  (24) 
0

>  <fr_barbitur>  (24) 
0

>  <fr_benzene>  (24) 
1

>  <fr_benzodiazepine>  (24) 
0

>  <fr_bicyclic>  (24) 
1

>  <fr_diazo>  (24) 
0

>  <fr_dihydropyridine>  (24) 
0

>  <fr_epoxide>  (24) 
0

>  <fr_ester>  (24) 
0

>  <fr_ether>  (24) 
0

>  <fr_furan>  (24) 
0

>  <fr_guanido>  (24) 
0

>  <fr_halogen>  (24) 
0

>  <fr_hdrzine>  (24) 
0

>  <fr_hdrzone>  (24) 
0

>  <fr_imidazole>  (24) 
1

>  <fr_imide>  (24) 
0

>  <fr_isocyan>  (24) 
0

>  <fr_isothiocyan>  (24) 
0

>  <fr_ketone>  (24) 
0

>  <fr_ketone_Topliss>  (24) 
0

>  <fr_lactam>  (24) 
0

>  <fr_lactone>  (24) 
0

>  <fr_methoxy>  (24) 
0

>  <fr_morpholine>  (24) 
0

>  <fr_nitrile>  (24) 
0

>  <fr_nitro>  (24) 
0

>  <fr_nitro_arom>  (24) 
0

>  <fr_nitro_arom_nonortho>  (24) 
0

>  <fr_nitroso>  (24) 
0

>  <fr_oxazole>  (24) 
0

>  <fr_oxime>  (24) 
0

>  <fr_para_hydroxylation>  (24) 
2

>  <fr_phenol>  (24) 
0

>  <fr_phenol_noOrthoHbond>  (24) 
0

>  <fr_phos_acid>  (24) 
0

>  <fr_phos_ester>  (24) 
0

>  <fr_piperdine>  (24) 
0

>  <fr_piperzine>  (24) 
0

>  <fr_priamide>  (24) 
0

>  <fr_prisulfonamd>  (24) 
0

>  <fr_pyridine>  (24) 
0

>  <fr_quatN>  (24) 
0

>  <fr_sulfide>  (24) 
0

>  <fr_sulfonamd>  (24) 
0

>  <fr_sulfone>  (24) 
0

>  <fr_term_acetylene>  (24) 
0

>  <fr_tetrazole>  (24) 
0

>  <fr_thiazole>  (24) 
0

>  <fr_thiocyan>  (24) 
0

>  <fr_thiophene>  (24) 
0

>  <fr_unbrch_alkane>  (24) 
0

>  <fr_urea>  (24) 
0

>  <NP_Likeness>  (24) 
-0.982865

$$$$
F138
     RDKit          3D

  0  0  0  0  0  0  0  0  0  0999 V3000
M  V30 BEGIN CTAB
M  V30 COUNTS 34 36 0 0 0
M  V30 BEGIN ATOM
M  V30 1 O -16.855000 2.998000 -20.164000 0
M  V30 2 O -15.932000 5.082000 -19.992000 0
M  V30 3 N -7.174000 4.651000 -20.042000 0 CHG=1
M  V30 4 N -10.737000 2.038000 -18.731000 0
M  V30 5 N -11.050000 4.300000 -19.045000 0
M  V30 6 C -17.138000 5.669000 -20.443000 0
M  V30 7 C -7.541000 3.331000 -20.551000 0
M  V30 8 C -8.223000 4.965000 -19.070000 0
M  V30 9 C -7.786000 2.588000 -19.253000 0
M  V30 10 C -13.108000 1.429000 -19.055000 0
M  V30 11 C -14.339000 1.920000 -19.331000 0
M  V30 12 C -13.476000 4.150000 -19.439000 0
M  V30 13 C -15.902000 3.727000 -19.888000 0
M  V30 14 C -10.109000 3.336000 -18.763000 0
M  V30 15 C -12.099000 2.307000 -18.986000 0
M  V30 16 C -12.263000 3.640000 -19.173000 0
M  V30 17 C -8.665000 3.601000 -18.523000 0 CFG=2
M  V30 18 C -14.527000 3.274000 -19.522000 0
M  V30 19 H -7.161400 5.325100 -20.780600 0
M  V30 20 H -17.033000 6.662900 -20.476100 0
M  V30 21 H -17.354200 5.326100 -21.357100 0
M  V30 22 H -17.879100 5.432800 -19.814500 0
M  V30 23 H -6.796900 2.918800 -21.076800 0
M  V30 24 H -8.366000 3.369700 -21.114800 0
M  V30 25 H -8.987700 5.431800 -19.514300 0
M  V30 26 H -7.862900 5.540100 -18.335400 0
M  V30 27 H -6.933900 2.413700 -18.759600 0
M  V30 28 H -8.265500 1.723900 -19.405800 0
M  V30 29 H -12.958200 0.451200 -18.908700 0
M  V30 30 H -15.118300 1.296800 -19.397000 0
M  V30 31 H -13.607900 5.132300 -19.571600 0
M  V30 32 H -8.477200 3.558900 -17.541700 0
M  V30 33 H -6.277400 4.624100 -19.600000 0
M  V30 34 H -10.306200 1.150800 -18.566000 0
M  V30 END ATOM
M  V30 BEGIN BOND
M  V30 1 2 1 13
M  V30 2 1 2 6
M  V30 3 1 2 13
M  V30 4 1 3 7
M  V30 5 1 3 8
M  V30 6 1 4 14
M  V30 7 1 4 15
M  V30 8 2 5 14
M  V30 9 1 5 16
M  V30 10 1 7 9
M  V30 11 1 8 17
M  V30 12 1 9 17
M  V30 13 1 10 11
M  V30 14 2 10 15
M  V30 15 2 11 18
M  V30 16 2 12 16
M  V30 17 1 12 18
M  V30 18 1 13 18
M  V30 19 1 14 17
M  V30 20 1 15 16
M  V30 21 1 3 19
M  V30 22 1 4 34
M  V30 23 1 6 20
M  V30 24 1 6 21
M  V30 25 1 6 22
M  V30 26 1 7 23
M  V30 27 1 7 24
M  V30 28 1 8 25
M  V30 29 1 8 26
M  V30 30 1 9 27
M  V30 31 1 9 28
M  V30 32 1 10 29
M  V30 33 1 11 30
M  V30 34 1 12 31
M  V30 35 1 17 32 CFG=1
M  V30 36 1 3 33
M  V30 END BOND
M  V30 END CTAB
M  END
>  <Ligand_Instance>  (25) 
138_B_1

>  <Dataset>  (25) 
CF

>  <PDB_ID>  (25) 
None

>  <Chain>  (25) 
B

>  <Resi>  (25) 
1

>  <Num_Resolved_Atoms>  (25) 
18

>  <Num_H_Atoms_ProtBoundConf>  (25) 
16

>  <Pocket>  (25) 
A

>  <Name>  (25) 
methyl 2‐[(3S)‐pyrrolidin‐3‐yl]‐1H‐1,3‐benzodiazole‐5‐carboxylate

>  <Num_Not_Resolved_Atoms>  (25) 
0

>  <ATP_Site>  (25) 
True

>  <Peripheral>  (25) 
True

>  <Standardized_SMILES>  (25) 
[H]C1=C2N=C([C@@]3([H])C([H])([H])C([H])([H])[N+]([H])([H])C3([H])[H])N([H])C2=C([H])C([H])=C1C(=O)OC([H])([H])[H]

>  <2D_Mol_H>  (25) 
<rdkit.Chem.rdchem.Mol object at 0x77059d9d8660>

>  <MW>  (25) 
246.29

>  <HBA>  (25) 
3

>  <HBD>  (25) 
2

>  <LogP>  (25) 
0.4002

>  <NRB>  (25) 
3

>  <TPSA>  (25) 
71.59

>  <Num_Heavy_Atoms>  (25) 
18

>  <Ro5>  (25) 
[True, True, True, True, True, True]

>  <Ro5_Fulfilled>  (25) 
True

>  <Ro3>  (25) 
[True, True, True, True]

>  <Ro3_Fulfilled>  (25) 
True

>  <Fsp3>  (25) 
0.384615

>  <Fsp3_0.42>  (25) 
False

>  <Fsp3_0.45>  (25) 
False

>  <Stereogenic_Carbons>  (25) 
1

>  <C_Atoms>  (25) 
13

>  <FCStereo>  (25) 
0.076923

>  <SPS>  (25) 
347

>  <nSPS>  (25) 
19.277778

>  <PBF>  (25) 
0.544811

>  <PBF_0.6>  (25) 
False

>  <nPBF>  (25) 
0.030267

>  <nPBF_0.016>  (25) 
True

>  <PMI1>  (25) 
440.260405

>  <PMI2>  (25) 
2833.942742

>  <PMI3>  (25) 
3136.668377

>  <NPR1>  (25) 
0.140359

>  <NPR2>  (25) 
0.903488

>  <Sum_NPR>  (25) 
1.043847

>  <Sum_NPR_1.07>  (25) 
False

>  <Sum_NPR_1.2>  (25) 
False

>  <MaxAbsEStateIndex>  (25) 
11.454932

>  <MaxEStateIndex>  (25) 
11.454932

>  <MinAbsEStateIndex>  (25) 
0.323472

>  <MinEStateIndex>  (25) 
-0.323472

>  <qed>  (25) 
0.753415

>  <MolWt>  (25) 
246.29

>  <HeavyAtomMolWt>  (25) 
230.162

>  <ExactMolWt>  (25) 
246.123703

>  <NumValenceElectrons>  (25) 
94

>  <NumRadicalElectrons>  (25) 
0

>  <MaxPartialCharge>  (25) 
0.337424

>  <MinPartialCharge>  (25) 
-0.465417

>  <MaxAbsPartialCharge>  (25) 
0.465417

>  <MinAbsPartialCharge>  (25) 
0.337424

>  <FpDensityMorgan1>  (25) 
1.555556

>  <FpDensityMorgan2>  (25) 
2.444444

>  <FpDensityMorgan3>  (25) 
3.166667

>  <BCUT2D_MWHI>  (25) 
16.523281

>  <BCUT2D_MWLOW>  (25) 
10.105516

>  <BCUT2D_CHGHI>  (25) 
2.228301

>  <BCUT2D_CHGLO>  (25) 
-1.982953

>  <BCUT2D_LOGPHI>  (25) 
2.211

>  <BCUT2D_LOGPLOW>  (25) 
-2.806873

>  <BCUT2D_MRHI>  (25) 
5.93058

>  <BCUT2D_MRLOW>  (25) 
-0.636231

>  <AvgIpc>  (25) 
3.044362

>  <BalabanJ>  (25) 
1.98175

>  <BertzCT>  (25) 
584.933924

>  <Chi0>  (25) 
12.535169

>  <Chi0n>  (25) 
10.271782

>  <Chi0v>  (25) 
10.271782

>  <Chi1>  (25) 
8.775188

>  <Chi1n>  (25) 
6.173412

>  <Chi1v>  (25) 
6.173412

>  <Chi2n>  (25) 
4.644205

>  <Chi2v>  (25) 
4.644205

>  <Chi3n>  (25) 
3.479608

>  <Chi3v>  (25) 
3.479608

>  <Chi4n>  (25) 
2.467987

>  <Chi4v>  (25) 
2.467987

>  <HallKierAlpha>  (25) 
-1.88

>  <Ipc>  (25) 
27904.621983

>  <Kappa1>  (25) 
11.224118

>  <Kappa2>  (25) 
4.4185

>  <Kappa3>  (25) 
1.862974

>  <LabuteASA>  (25) 
104.550627

>  <PEOE_VSA1>  (25) 
15.03763

>  <PEOE_VSA10>  (25) 
5.824404

>  <PEOE_VSA11>  (25) 
0.0

>  <PEOE_VSA12>  (25) 
0.0

>  <PEOE_VSA13>  (25) 
0.0

>  <PEOE_VSA14>  (25) 
5.969305

>  <PEOE_VSA2>  (25) 
0.0

>  <PEOE_VSA3>  (25) 
9.778516

>  <PEOE_VSA4>  (25) 
0.0

>  <PEOE_VSA5>  (25) 
0.0

>  <PEOE_VSA6>  (25) 
0.0

>  <PEOE_VSA7>  (25) 
18.199101

>  <PEOE_VSA8>  (25) 
6.420822

>  <PEOE_VSA9>  (25) 
42.714069

>  <SMR_VSA1>  (25) 
14.848189

>  <SMR_VSA10>  (25) 
17.002707

>  <SMR_VSA2>  (25) 
0.0

>  <SMR_VSA3>  (25) 
9.967957

>  <SMR_VSA4>  (25) 
0.0

>  <SMR_VSA5>  (25) 
12.338728

>  <SMR_VSA6>  (25) 
20.19931

>  <SMR_VSA7>  (25) 
29.586957

>  <SMR_VSA8>  (25) 
0.0

>  <SMR_VSA9>  (25) 
0.0

>  <SlogP_VSA1>  (25) 
5.316789

>  <SlogP_VSA10>  (25) 
0.0

>  <SlogP_VSA11>  (25) 
0.0

>  <SlogP_VSA12>  (25) 
0.0

>  <SlogP_VSA2>  (25) 
36.136573

>  <SlogP_VSA3>  (25) 
4.736863

>  <SlogP_VSA4>  (25) 
0.0

>  <SlogP_VSA5>  (25) 
28.521121

>  <SlogP_VSA6>  (25) 
18.199101

>  <SlogP_VSA7>  (25) 
0.0

>  <SlogP_VSA8>  (25) 
11.033401

>  <SlogP_VSA9>  (25) 
0.0

>  <EState_VSA1>  (25) 
0.0

>  <EState_VSA10>  (25) 
4.794537

>  <EState_VSA11>  (25) 
0.0

>  <EState_VSA2>  (25) 
5.969305

>  <EState_VSA3>  (25) 
11.481358

>  <EState_VSA4>  (25) 
36.36814

>  <EState_VSA5>  (25) 
7.109798

>  <EState_VSA6>  (25) 
12.132734

>  <EState_VSA7>  (25) 
6.066367

>  <EState_VSA8>  (25) 
15.284746

>  <EState_VSA9>  (25) 
4.736863

>  <VSA_EState1>  (25) 
4.709856

>  <VSA_EState10>  (25) 
0.0

>  <VSA_EState2>  (25) 
19.382111

>  <VSA_EState3>  (25) 
2.303305

>  <VSA_EState4>  (25) 
2.352211

>  <VSA_EState5>  (25) 
1.204067

>  <VSA_EState6>  (25) 
5.424092

>  <VSA_EState7>  (25) 
1.156429

>  <VSA_EState8>  (25) 
2.248813

>  <VSA_EState9>  (25) 
1.385783

>  <FractionCSP3>  (25) 
0.384615

>  <HeavyAtomCount>  (25) 
18

>  <NHOHCount>  (25) 
3

>  <NOCount>  (25) 
5

>  <NumAliphaticCarbocycles>  (25) 
0

>  <NumAliphaticHeterocycles>  (25) 
1

>  <NumAliphaticRings>  (25) 
1

>  <NumAromaticCarbocycles>  (25) 
1

>  <NumAromaticHeterocycles>  (25) 
1

>  <NumAromaticRings>  (25) 
2

>  <NumHAcceptors>  (25) 
3

>  <NumHDonors>  (25) 
2

>  <NumHeteroatoms>  (25) 
5

>  <NumRotatableBonds>  (25) 
2

>  <NumSaturatedCarbocycles>  (25) 
0

>  <NumSaturatedHeterocycles>  (25) 
1

>  <NumSaturatedRings>  (25) 
1

>  <RingCount>  (25) 
3

>  <MolLogP>  (25) 
0.4002

>  <MolMR>  (25) 
66.4506

>  <fr_Al_COO>  (25) 
0

>  <fr_Al_OH>  (25) 
0

>  <fr_Al_OH_noTert>  (25) 
0

>  <fr_ArN>  (25) 
0

>  <fr_Ar_COO>  (25) 
0

>  <fr_Ar_N>  (25) 
2

>  <fr_Ar_NH>  (25) 
1

>  <fr_Ar_OH>  (25) 
0

>  <fr_COO>  (25) 
0

>  <fr_COO2>  (25) 
0

>  <fr_C_O>  (25) 
1

>  <fr_C_O_noCOO>  (25) 
1

>  <fr_C_S>  (25) 
0

>  <fr_HOCCN>  (25) 
0

>  <fr_Imine>  (25) 
0

>  <fr_NH0>  (25) 
1

>  <fr_NH1>  (25) 
1

>  <fr_NH2>  (25) 
1

>  <fr_N_O>  (25) 
0

>  <fr_Ndealkylation1>  (25) 
0

>  <fr_Ndealkylation2>  (25) 
0

>  <fr_Nhpyrrole>  (25) 
1

>  <fr_SH>  (25) 
0

>  <fr_aldehyde>  (25) 
0

>  <fr_alkyl_carbamate>  (25) 
0

>  <fr_alkyl_halide>  (25) 
0

>  <fr_allylic_oxid>  (25) 
0

>  <fr_amide>  (25) 
0

>  <fr_amidine>  (25) 
0

>  <fr_aniline>  (25) 
0

>  <fr_aryl_methyl>  (25) 
0

>  <fr_azide>  (25) 
0

>  <fr_azo>  (25) 
0

>  <fr_barbitur>  (25) 
0

>  <fr_benzene>  (25) 
1

>  <fr_benzodiazepine>  (25) 
0

>  <fr_bicyclic>  (25) 
1

>  <fr_diazo>  (25) 
0

>  <fr_dihydropyridine>  (25) 
0

>  <fr_epoxide>  (25) 
0

>  <fr_ester>  (25) 
1

>  <fr_ether>  (25) 
1

>  <fr_furan>  (25) 
0

>  <fr_guanido>  (25) 
0

>  <fr_halogen>  (25) 
0

>  <fr_hdrzine>  (25) 
0

>  <fr_hdrzone>  (25) 
0

>  <fr_imidazole>  (25) 
1

>  <fr_imide>  (25) 
0

>  <fr_isocyan>  (25) 
0

>  <fr_isothiocyan>  (25) 
0

>  <fr_ketone>  (25) 
0

>  <fr_ketone_Topliss>  (25) 
0

>  <fr_lactam>  (25) 
0

>  <fr_lactone>  (25) 
0

>  <fr_methoxy>  (25) 
1

>  <fr_morpholine>  (25) 
0

>  <fr_nitrile>  (25) 
0

>  <fr_nitro>  (25) 
0

>  <fr_nitro_arom>  (25) 
0

>  <fr_nitro_arom_nonortho>  (25) 
0

>  <fr_nitroso>  (25) 
0

>  <fr_oxazole>  (25) 
0

>  <fr_oxime>  (25) 
0

>  <fr_para_hydroxylation>  (25) 
0

>  <fr_phenol>  (25) 
0

>  <fr_phenol_noOrthoHbond>  (25) 
0

>  <fr_phos_acid>  (25) 
0

>  <fr_phos_ester>  (25) 
0

>  <fr_piperdine>  (25) 
0

>  <fr_piperzine>  (25) 
0

>  <fr_priamide>  (25) 
0

>  <fr_prisulfonamd>  (25) 
0

>  <fr_pyridine>  (25) 
0

>  <fr_quatN>  (25) 
1

>  <fr_sulfide>  (25) 
0

>  <fr_sulfonamd>  (25) 
0

>  <fr_sulfone>  (25) 
0

>  <fr_term_acetylene>  (25) 
0

>  <fr_tetrazole>  (25) 
0

>  <fr_thiazole>  (25) 
0

>  <fr_thiocyan>  (25) 
0

>  <fr_thiophene>  (25) 
0

>  <fr_unbrch_alkane>  (25) 
0

>  <fr_urea>  (25) 
0

>  <NP_Likeness>  (25) 
-1.053219

$$$$
F145
     RDKit          3D

  0  0  0  0  0  0  0  0  0  0999 V3000
M  V30 BEGIN CTAB
M  V30 COUNTS 30 32 0 0 0
M  V30 BEGIN ATOM
M  V30 1 Cl -10.032000 2.137000 -28.599000 0
M  V30 2 S -12.506000 3.571000 -29.288000 0
M  V30 3 O -19.775000 5.476000 -29.163000 0
M  V30 4 N -18.213000 5.457000 -31.721000 0 CHG=1
M  V30 5 N -15.617000 7.356000 -30.462000 0
M  V30 6 N -15.168000 5.185000 -29.887000 0
M  V30 7 C -20.464000 5.571000 -30.448000 0
M  V30 8 C -18.360000 5.259000 -29.191000 0
M  V30 9 C -19.665000 5.707000 -31.777000 0
M  V30 10 C -14.226000 7.206000 -30.214000 0
M  V30 11 C -10.390000 4.916000 -28.987000 0
M  V30 12 C -11.384000 5.798000 -29.325000 0
M  V30 13 C -10.833000 3.630000 -28.942000 0
M  V30 14 C -12.638000 5.289000 -29.540000 0
M  V30 15 C -16.194000 6.078000 -30.253000 0
M  V30 16 C -17.691000 5.935000 -30.412000 0 CFG=1
M  V30 17 C -13.951000 5.904000 -29.887000 0
M  V30 18 H -17.758800 5.949500 -32.463400 0
M  V30 19 H -21.061300 6.371100 -30.392000 0
M  V30 20 H -21.020700 4.744800 -30.534100 0
M  V30 21 H -18.185500 4.275200 -29.231400 0
M  V30 22 H -17.959700 5.634500 -28.355100 0
M  V30 23 H -20.056500 5.059200 -32.430600 0
M  V30 24 H -19.796600 6.639800 -32.112600 0
M  V30 25 H -13.549400 7.940200 -30.269700 0
M  V30 26 H -9.446700 5.187000 -28.795300 0
M  V30 27 H -11.200500 6.777200 -29.411500 0
M  V30 28 H -18.019700 6.878200 -30.362700 0
M  V30 29 H -18.037400 4.477000 -31.814700 0
M  V30 30 H -15.280400 4.216100 -29.666700 0
M  V30 END ATOM
M  V30 BEGIN BOND
M  V30 1 1 1 13
M  V30 2 1 2 13
M  V30 3 1 2 14
M  V30 4 1 3 7
M  V30 5 1 3 8
M  V30 6 1 4 9
M  V30 7 1 4 16
M  V30 8 1 5 10
M  V30 9 2 5 15
M  V30 10 1 6 15
M  V30 11 1 6 17
M  V30 12 1 7 9
M  V30 13 1 8 16
M  V30 14 2 10 17
M  V30 15 1 11 12
M  V30 16 2 11 13
M  V30 17 2 12 14
M  V30 18 1 14 17
M  V30 19 1 15 16
M  V30 20 1 4 18
M  V30 21 1 6 30
M  V30 22 1 7 19
M  V30 23 1 7 20
M  V30 24 1 8 21
M  V30 25 1 8 22
M  V30 26 1 9 23
M  V30 27 1 9 24
M  V30 28 1 10 25
M  V30 29 1 11 26
M  V30 30 1 12 27
M  V30 31 1 16 28 CFG=1
M  V30 32 1 4 29
M  V30 END BOND
M  V30 END CTAB
M  END
>  <Ligand_Instance>  (26) 
145_B_5

>  <Dataset>  (26) 
CF

>  <PDB_ID>  (26) 
None

>  <Chain>  (26) 
B

>  <Resi>  (26) 
5

>  <Num_Resolved_Atoms>  (26) 
17

>  <Num_H_Atoms_ProtBoundConf>  (26) 
13

>  <Pocket>  (26) 
A

>  <Name>  (26) 
(3R)‐3‐[4‐(5‐chlorothiophen‐2‐yl)‐1H‐imidazol‐2‐yl]morpholine

>  <Num_Not_Resolved_Atoms>  (26) 
0

>  <ATP_Site>  (26) 
True

>  <Peripheral>  (26) 
True

>  <Standardized_SMILES>  (26) 
[H]C1=C(C2=C([H])C([H])=C(Cl)S2)N([H])C([C@]2([H])C([H])([H])OC([H])([H])C([H])([H])[N+]2([H])[H])=N1

>  <2D_Mol_H>  (26) 
<rdkit.Chem.rdchem.Mol object at 0x77059d96a960>

>  <MW>  (26) 
270.765

>  <HBA>  (26) 
3

>  <HBD>  (26) 
2

>  <LogP>  (26) 
1.4263

>  <NRB>  (26) 
2

>  <TPSA>  (26) 
54.52

>  <Num_Heavy_Atoms>  (26) 
17

>  <Ro5>  (26) 
[True, True, True, True, True, True]

>  <Ro5_Fulfilled>  (26) 
True

>  <Ro3>  (26) 
[True, True, True, True]

>  <Ro3_Fulfilled>  (26) 
True

>  <Fsp3>  (26) 
0.363636

>  <Fsp3_0.42>  (26) 
False

>  <Fsp3_0.45>  (26) 
False

>  <Stereogenic_Carbons>  (26) 
1

>  <C_Atoms>  (26) 
11

>  <FCStereo>  (26) 
0.090909

>  <SPS>  (26) 
351

>  <nSPS>  (26) 
20.647059

>  <PBF>  (26) 
0.626717

>  <PBF_0.6>  (26) 
True

>  <nPBF>  (26) 
0.036866

>  <nPBF_0.016>  (26) 
True

>  <PMI1>  (26) 
481.809568

>  <PMI2>  (26) 
3801.228975

>  <PMI3>  (26) 
4078.747473

>  <NPR1>  (26) 
0.118127

>  <NPR2>  (26) 
0.93196

>  <Sum_NPR>  (26) 
1.050087

>  <Sum_NPR_1.07>  (26) 
False

>  <Sum_NPR_1.2>  (26) 
False

>  <MaxAbsEStateIndex>  (26) 
5.923837

>  <MaxEStateIndex>  (26) 
5.923837

>  <MinAbsEStateIndex>  (26) 
0.285124

>  <MinEStateIndex>  (26) 
0.285124

>  <qed>  (26) 
0.867375

>  <MolWt>  (26) 
270.765

>  <HeavyAtomMolWt>  (26) 
257.661

>  <ExactMolWt>  (26) 
270.046237

>  <NumValenceElectrons>  (26) 
90

>  <NumRadicalElectrons>  (26) 
0

>  <MaxPartialCharge>  (26) 
0.167964

>  <MinPartialCharge>  (26) 
-0.368901

>  <MaxAbsPartialCharge>  (26) 
0.368901

>  <MinAbsPartialCharge>  (26) 
0.167964

>  <FpDensityMorgan1>  (26) 
1.529412

>  <FpDensityMorgan2>  (26) 
2.470588

>  <FpDensityMorgan3>  (26) 
3.176471

>  <BCUT2D_MWHI>  (26) 
35.496017

>  <BCUT2D_MWLOW>  (26) 
10.24806

>  <BCUT2D_CHGHI>  (26) 
2.218085

>  <BCUT2D_CHGLO>  (26) 
-2.179051

>  <BCUT2D_LOGPHI>  (26) 
2.295943

>  <BCUT2D_LOGPLOW>  (26) 
-2.886169

>  <BCUT2D_MRHI>  (26) 
7.188484

>  <BCUT2D_MRLOW>  (26) 
-0.712322

>  <AvgIpc>  (26) 
2.98278

>  <BalabanJ>  (26) 
1.818531

>  <BertzCT>  (26) 
504.294546

>  <Chi0>  (26) 
11.664926

>  <Chi0n>  (26) 
9.149746

>  <Chi0v>  (26) 
10.722172

>  <Chi1>  (26) 
8.3265

>  <Chi1n>  (26) 
5.54425

>  <Chi1v>  (26) 
6.738711

>  <Chi2n>  (26) 
3.991658

>  <Chi2v>  (26) 
5.706742

>  <Chi3n>  (26) 
2.796135

>  <Chi3v>  (26) 
4.060573

>  <Chi4n>  (26) 
1.930787

>  <Chi4v>  (26) 
2.939083

>  <HallKierAlpha>  (26) 
-0.88

>  <Ipc>  (26) 
18051.785047

>  <Kappa1>  (26) 
11.224118

>  <Kappa2>  (26) 
4.777293

>  <Kappa3>  (26) 
2.372678

>  <LabuteASA>  (26) 
107.97828

>  <PEOE_VSA1>  (26) 
15.03763

>  <PEOE_VSA10>  (26) 
6.606882

>  <PEOE_VSA11>  (26) 
11.866245

>  <PEOE_VSA12>  (26) 
0.0

>  <PEOE_VSA13>  (26) 
0.0

>  <PEOE_VSA14>  (26) 
0.0

>  <PEOE_VSA2>  (26) 
0.0

>  <PEOE_VSA3>  (26) 
4.983979

>  <PEOE_VSA4>  (26) 
0.0

>  <PEOE_VSA5>  (26) 
11.336786

>  <PEOE_VSA6>  (26) 
11.60094

>  <PEOE_VSA7>  (26) 
12.132734

>  <PEOE_VSA8>  (26) 
0.0

>  <PEOE_VSA9>  (26) 
34.255886

>  <SMR_VSA1>  (26) 
10.053652

>  <SMR_VSA10>  (26) 
22.937726

>  <SMR_VSA2>  (26) 
0.0

>  <SMR_VSA3>  (26) 
9.967957

>  <SMR_VSA4>  (26) 
0.0

>  <SMR_VSA5>  (26) 
6.041841

>  <SMR_VSA6>  (26) 
19.75852

>  <SMR_VSA7>  (26) 
28.490311

>  <SMR_VSA8>  (26) 
0.0

>  <SMR_VSA9>  (26) 
10.571075

>  <SlogP_VSA1>  (26) 
5.316789

>  <SlogP_VSA10>  (26) 
0.0

>  <SlogP_VSA11>  (26) 
0.0

>  <SlogP_VSA12>  (26) 
22.937726

>  <SlogP_VSA2>  (26) 
29.726477

>  <SlogP_VSA3>  (26) 
4.736863

>  <SlogP_VSA4>  (26) 
0.0

>  <SlogP_VSA5>  (26) 
11.866245

>  <SlogP_VSA6>  (26) 
18.329578

>  <SlogP_VSA7>  (26) 
4.336329

>  <SlogP_VSA8>  (26) 
10.571075

>  <SlogP_VSA9>  (26) 
0.0

>  <EState_VSA1>  (26) 
0.0

>  <EState_VSA10>  (26) 
0.0

>  <EState_VSA11>  (26) 
0.0

>  <EState_VSA2>  (26) 
6.041841

>  <EState_VSA3>  (26) 
0.0

>  <EState_VSA4>  (26) 
40.490329

>  <EState_VSA5>  (26) 
0.0

>  <EState_VSA6>  (26) 
11.336786

>  <EState_VSA7>  (26) 
18.329578

>  <EState_VSA8>  (26) 
15.284746

>  <EState_VSA9>  (26) 
16.337803

>  <VSA_EState1>  (26) 
6.240928

>  <VSA_EState10>  (26) 
7.477388

>  <VSA_EState2>  (26) 
8.880375

>  <VSA_EState3>  (26) 
2.257454

>  <VSA_EState4>  (26) 
1.023957

>  <VSA_EState5>  (26) 
0.976132

>  <VSA_EState6>  (26) 
4.191168

>  <VSA_EState7>  (26) 
1.861053

>  <VSA_EState8>  (26) 
2.53599

>  <VSA_EState9>  (26) 
0.0

>  <FractionCSP3>  (26) 
0.363636

>  <HeavyAtomCount>  (26) 
17

>  <NHOHCount>  (26) 
3

>  <NOCount>  (26) 
4

>  <NumAliphaticCarbocycles>  (26) 
0

>  <NumAliphaticHeterocycles>  (26) 
1

>  <NumAliphaticRings>  (26) 
1

>  <NumAromaticCarbocycles>  (26) 
0

>  <NumAromaticHeterocycles>  (26) 
2

>  <NumAromaticRings>  (26) 
2

>  <NumHAcceptors>  (26) 
3

>  <NumHDonors>  (26) 
2

>  <NumHeteroatoms>  (26) 
6

>  <NumRotatableBonds>  (26) 
2

>  <NumSaturatedCarbocycles>  (26) 
0

>  <NumSaturatedHeterocycles>  (26) 
1

>  <NumSaturatedRings>  (26) 
1

>  <RingCount>  (26) 
3

>  <MolLogP>  (26) 
1.4263

>  <MolMR>  (26) 
67.2631

>  <fr_Al_COO>  (26) 
0

>  <fr_Al_OH>  (26) 
0

>  <fr_Al_OH_noTert>  (26) 
0

>  <fr_ArN>  (26) 
0

>  <fr_Ar_COO>  (26) 
0

>  <fr_Ar_N>  (26) 
2

>  <fr_Ar_NH>  (26) 
1

>  <fr_Ar_OH>  (26) 
0

>  <fr_COO>  (26) 
0

>  <fr_COO2>  (26) 
0

>  <fr_C_O>  (26) 
0

>  <fr_C_O_noCOO>  (26) 
0

>  <fr_C_S>  (26) 
0

>  <fr_HOCCN>  (26) 
0

>  <fr_Imine>  (26) 
0

>  <fr_NH0>  (26) 
1

>  <fr_NH1>  (26) 
1

>  <fr_NH2>  (26) 
1

>  <fr_N_O>  (26) 
0

>  <fr_Ndealkylation1>  (26) 
0

>  <fr_Ndealkylation2>  (26) 
0

>  <fr_Nhpyrrole>  (26) 
1

>  <fr_SH>  (26) 
0

>  <fr_aldehyde>  (26) 
0

>  <fr_alkyl_carbamate>  (26) 
0

>  <fr_alkyl_halide>  (26) 
0

>  <fr_allylic_oxid>  (26) 
0

>  <fr_amide>  (26) 
0

>  <fr_amidine>  (26) 
0

>  <fr_aniline>  (26) 
0

>  <fr_aryl_methyl>  (26) 
0

>  <fr_azide>  (26) 
0

>  <fr_azo>  (26) 
0

>  <fr_barbitur>  (26) 
0

>  <fr_benzene>  (26) 
0

>  <fr_benzodiazepine>  (26) 
0

>  <fr_bicyclic>  (26) 
0

>  <fr_diazo>  (26) 
0

>  <fr_dihydropyridine>  (26) 
0

>  <fr_epoxide>  (26) 
0

>  <fr_ester>  (26) 
0

>  <fr_ether>  (26) 
1

>  <fr_furan>  (26) 
0

>  <fr_guanido>  (26) 
0

>  <fr_halogen>  (26) 
1

>  <fr_hdrzine>  (26) 
0

>  <fr_hdrzone>  (26) 
0

>  <fr_imidazole>  (26) 
1

>  <fr_imide>  (26) 
0

>  <fr_isocyan>  (26) 
0

>  <fr_isothiocyan>  (26) 
0

>  <fr_ketone>  (26) 
0

>  <fr_ketone_Topliss>  (26) 
0

>  <fr_lactam>  (26) 
0

>  <fr_lactone>  (26) 
0

>  <fr_methoxy>  (26) 
0

>  <fr_morpholine>  (26) 
1

>  <fr_nitrile>  (26) 
0

>  <fr_nitro>  (26) 
0

>  <fr_nitro_arom>  (26) 
0

>  <fr_nitro_arom_nonortho>  (26) 
0

>  <fr_nitroso>  (26) 
0

>  <fr_oxazole>  (26) 
0

>  <fr_oxime>  (26) 
0

>  <fr_para_hydroxylation>  (26) 
0

>  <fr_phenol>  (26) 
0

>  <fr_phenol_noOrthoHbond>  (26) 
0

>  <fr_phos_acid>  (26) 
0

>  <fr_phos_ester>  (26) 
0

>  <fr_piperdine>  (26) 
0

>  <fr_piperzine>  (26) 
0

>  <fr_priamide>  (26) 
0

>  <fr_prisulfonamd>  (26) 
0

>  <fr_pyridine>  (26) 
0

>  <fr_quatN>  (26) 
1

>  <fr_sulfide>  (26) 
0

>  <fr_sulfonamd>  (26) 
0

>  <fr_sulfone>  (26) 
0

>  <fr_term_acetylene>  (26) 
0

>  <fr_tetrazole>  (26) 
0

>  <fr_thiazole>  (26) 
0

>  <fr_thiocyan>  (26) 
0

>  <fr_thiophene>  (26) 
1

>  <fr_unbrch_alkane>  (26) 
0

>  <fr_urea>  (26) 
0

>  <NP_Likeness>  (26) 
-1.171177

$$$$
F145
     RDKit          3D

  0  0  0  0  0  0  0  0  0  0999 V3000
M  V30 BEGIN CTAB
M  V30 COUNTS 30 32 0 0 0
M  V30 BEGIN ATOM
M  V30 1 Cl -9.803000 17.989000 -11.874000 0
M  V30 2 S -7.008000 17.613000 -10.897000 0
M  V30 3 O 0.199000 16.155000 -8.238000 0
M  V30 4 N -0.656000 18.215000 -9.686000 0 CHG=1
M  V30 5 N -3.249000 18.969000 -7.952000 0
M  V30 6 N -4.162000 17.797000 -9.692000 0
M  V30 7 C 0.578000 16.068000 -9.627000 0
M  V30 8 C -1.191000 16.442000 -8.017000 0
M  V30 9 C 0.309000 17.373000 -10.402000 0
M  V30 10 C -4.611000 19.357000 -8.118000 0
M  V30 11 C -8.554000 19.474000 -10.011000 0
M  V30 12 C -7.393000 19.626000 -9.359000 0
M  V30 13 C -8.517000 18.440000 -10.863000 0
M  V30 14 C -6.450000 18.737000 -9.672000 0
M  V30 15 C -2.998000 17.979000 -8.955000 0
M  V30 16 C -1.710000 17.281000 -9.211000 0 CFG=1
M  V30 17 C -5.117000 18.654000 -9.144000 0
M  V30 18 H -1.046100 18.901200 -10.299900 0
M  V30 19 H 0.057200 15.329200 -10.054700 0
M  V30 20 H 1.554900 15.860800 -9.679300 0
M  V30 21 H -1.298700 16.959300 -7.168000 0
M  V30 22 H -1.706900 15.587600 -7.954400 0
M  V30 23 H 1.167500 17.874900 -10.506900 0
M  V30 24 H -0.058200 17.148500 -11.304600 0
M  V30 25 H -5.102100 20.032600 -7.568100 0
M  V30 26 H -9.352100 20.061600 -9.877800 0
M  V30 27 H -7.245000 20.352200 -8.687700 0
M  V30 28 H -1.878400 16.638300 -9.958400 0
M  V30 29 H -0.216900 18.671300 -8.912000 0
M  V30 30 H -2.601800 19.317100 -7.273900 0
M  V30 END ATOM
M  V30 BEGIN BOND
M  V30 1 1 1 13
M  V30 2 1 2 13
M  V30 3 1 2 14
M  V30 4 1 3 7
M  V30 5 1 3 8
M  V30 6 1 4 9
M  V30 7 1 4 16
M  V30 8 1 5 10
M  V30 9 1 5 15
M  V30 10 2 6 15
M  V30 11 1 6 17
M  V30 12 1 7 9
M  V30 13 1 8 16
M  V30 14 2 10 17
M  V30 15 1 11 12
M  V30 16 2 11 13
M  V30 17 2 12 14
M  V30 18 1 14 17
M  V30 19 1 15 16
M  V30 20 1 4 18
M  V30 21 1 5 30
M  V30 22 1 7 19
M  V30 23 1 7 20
M  V30 24 1 8 21
M  V30 25 1 8 22
M  V30 26 1 9 23
M  V30 27 1 9 24
M  V30 28 1 10 25
M  V30 29 1 11 26
M  V30 30 1 12 27
M  V30 31 1 16 28 CFG=3
M  V30 32 1 4 29
M  V30 END BOND
M  V30 END CTAB
M  END
>  <Ligand_Instance>  (27) 
145_B_6

>  <Dataset>  (27) 
CF

>  <PDB_ID>  (27) 
None

>  <Chain>  (27) 
B

>  <Resi>  (27) 
6

>  <Num_Resolved_Atoms>  (27) 
17

>  <Num_H_Atoms_ProtBoundConf>  (27) 
13

>  <Pocket>  (27) 
X

>  <Name>  (27) 
(3R)‐3‐[4‐(5‐chlorothiophen‐2‐yl)‐1H‐imidazol‐2‐yl]morpholine

>  <Num_Not_Resolved_Atoms>  (27) 
0

>  <ATP_Site>  (27) 
True

>  <Peripheral>  (27) 
True

>  <Standardized_SMILES>  (27) 
[H]C1=C(Cl)SC(C2=C([H])N([H])C([C@]3([H])C([H])([H])OC([H])([H])C([H])([H])[N+]3([H])[H])=N2)=C1[H]

>  <2D_Mol_H>  (27) 
<rdkit.Chem.rdchem.Mol object at 0x77059d96aa40>

>  <MW>  (27) 
270.765

>  <HBA>  (27) 
3

>  <HBD>  (27) 
2

>  <LogP>  (27) 
1.4263

>  <NRB>  (27) 
2

>  <TPSA>  (27) 
54.52

>  <Num_Heavy_Atoms>  (27) 
17

>  <Ro5>  (27) 
[True, True, True, True, True, True]

>  <Ro5_Fulfilled>  (27) 
True

>  <Ro3>  (27) 
[True, True, True, True]

>  <Ro3_Fulfilled>  (27) 
True

>  <Fsp3>  (27) 
0.363636

>  <Fsp3_0.42>  (27) 
False

>  <Fsp3_0.45>  (27) 
False

>  <Stereogenic_Carbons>  (27) 
1

>  <C_Atoms>  (27) 
11

>  <FCStereo>  (27) 
0.090909

>  <SPS>  (27) 
351

>  <nSPS>  (27) 
20.647059

>  <PBF>  (27) 
0.645656

>  <PBF_0.6>  (27) 
True

>  <nPBF>  (27) 
0.03798

>  <nPBF_0.016>  (27) 
True

>  <PMI1>  (27) 
438.007333

>  <PMI2>  (27) 
3725.316868

>  <PMI3>  (27) 
3969.491679

>  <NPR1>  (27) 
0.110343

>  <NPR2>  (27) 
0.938487

>  <Sum_NPR>  (27) 
1.048831

>  <Sum_NPR_1.07>  (27) 
False

>  <Sum_NPR_1.2>  (27) 
False

>  <MaxAbsEStateIndex>  (27) 
5.920153

>  <MaxEStateIndex>  (27) 
5.920153

>  <MinAbsEStateIndex>  (27) 
0.285124

>  <MinEStateIndex>  (27) 
0.285124

>  <qed>  (27) 
0.867375

>  <MolWt>  (27) 
270.765

>  <HeavyAtomMolWt>  (27) 
257.661

>  <ExactMolWt>  (27) 
270.046237

>  <NumValenceElectrons>  (27) 
90

>  <NumRadicalElectrons>  (27) 
0

>  <MaxPartialCharge>  (27) 
0.167969

>  <MinPartialCharge>  (27) 
-0.368901

>  <MaxAbsPartialCharge>  (27) 
0.368901

>  <MinAbsPartialCharge>  (27) 
0.167969

>  <FpDensityMorgan1>  (27) 
1.529412

>  <FpDensityMorgan2>  (27) 
2.470588

>  <FpDensityMorgan3>  (27) 
3.176471

>  <BCUT2D_MWHI>  (27) 
35.496017

>  <BCUT2D_MWLOW>  (27) 
10.24806

>  <BCUT2D_CHGHI>  (27) 
2.219583

>  <BCUT2D_CHGLO>  (27) 
-2.178378

>  <BCUT2D_LOGPHI>  (27) 
2.295943

>  <BCUT2D_LOGPLOW>  (27) 
-2.886169

>  <BCUT2D_MRHI>  (27) 
7.188484

>  <BCUT2D_MRLOW>  (27) 
-0.712322

>  <AvgIpc>  (27) 
2.98278

>  <BalabanJ>  (27) 
1.818531

>  <BertzCT>  (27) 
504.294546

>  <Chi0>  (27) 
11.664926

>  <Chi0n>  (27) 
9.149746

>  <Chi0v>  (27) 
10.722172

>  <Chi1>  (27) 
8.3265

>  <Chi1n>  (27) 
5.548333

>  <Chi1v>  (27) 
6.742794

>  <Chi2n>  (27) 
3.980503

>  <Chi2v>  (27) 
5.695587

>  <Chi3n>  (27) 
2.785328

>  <Chi3v>  (27) 
4.038991

>  <Chi4n>  (27) 
1.926214

>  <Chi4v>  (27) 
2.929957

>  <HallKierAlpha>  (27) 
-0.88

>  <Ipc>  (27) 
18051.785047

>  <Kappa1>  (27) 
11.224118

>  <Kappa2>  (27) 
4.777293

>  <Kappa3>  (27) 
2.372678

>  <LabuteASA>  (27) 
107.97828

>  <PEOE_VSA1>  (27) 
15.03763

>  <PEOE_VSA10>  (27) 
6.606882

>  <PEOE_VSA11>  (27) 
11.866245

>  <PEOE_VSA12>  (27) 
0.0

>  <PEOE_VSA13>  (27) 
0.0

>  <PEOE_VSA14>  (27) 
0.0

>  <PEOE_VSA2>  (27) 
0.0

>  <PEOE_VSA3>  (27) 
4.983979

>  <PEOE_VSA4>  (27) 
0.0

>  <PEOE_VSA5>  (27) 
11.336786

>  <PEOE_VSA6>  (27) 
11.60094

>  <PEOE_VSA7>  (27) 
12.132734

>  <PEOE_VSA8>  (27) 
6.196844

>  <PEOE_VSA9>  (27) 
28.059043

>  <SMR_VSA1>  (27) 
10.053652

>  <SMR_VSA10>  (27) 
22.937726

>  <SMR_VSA2>  (27) 
0.0

>  <SMR_VSA3>  (27) 
9.967957

>  <SMR_VSA4>  (27) 
0.0

>  <SMR_VSA5>  (27) 
6.041841

>  <SMR_VSA6>  (27) 
19.75852

>  <SMR_VSA7>  (27) 
28.490311

>  <SMR_VSA8>  (27) 
0.0

>  <SMR_VSA9>  (27) 
10.571075

>  <SlogP_VSA1>  (27) 
5.316789

>  <SlogP_VSA10>  (27) 
0.0

>  <SlogP_VSA11>  (27) 
0.0

>  <SlogP_VSA12>  (27) 
22.937726

>  <SlogP_VSA2>  (27) 
29.726477

>  <SlogP_VSA3>  (27) 
4.736863

>  <SlogP_VSA4>  (27) 
0.0

>  <SlogP_VSA5>  (27) 
11.866245

>  <SlogP_VSA6>  (27) 
18.329578

>  <SlogP_VSA7>  (27) 
4.336329

>  <SlogP_VSA8>  (27) 
10.571075

>  <SlogP_VSA9>  (27) 
0.0

>  <EState_VSA1>  (27) 
0.0

>  <EState_VSA10>  (27) 
0.0

>  <EState_VSA11>  (27) 
0.0

>  <EState_VSA2>  (27) 
6.041841

>  <EState_VSA3>  (27) 
0.0

>  <EState_VSA4>  (27) 
40.490329

>  <EState_VSA5>  (27) 
0.0

>  <EState_VSA6>  (27) 
11.336786

>  <EState_VSA7>  (27) 
18.329578

>  <EState_VSA8>  (27) 
15.284746

>  <EState_VSA9>  (27) 
16.337803

>  <VSA_EState1>  (27) 
6.234817

>  <VSA_EState10>  (27) 
7.462453

>  <VSA_EState2>  (27) 
8.918782

>  <VSA_EState3>  (27) 
2.257454

>  <VSA_EState4>  (27) 
0.954512

>  <VSA_EState5>  (27) 
0.976132

>  <VSA_EState6>  (27) 
4.173806

>  <VSA_EState7>  (27) 
1.930497

>  <VSA_EState8>  (27) 
2.53599

>  <VSA_EState9>  (27) 
0.0

>  <FractionCSP3>  (27) 
0.363636

>  <HeavyAtomCount>  (27) 
17

>  <NHOHCount>  (27) 
3

>  <NOCount>  (27) 
4

>  <NumAliphaticCarbocycles>  (27) 
0

>  <NumAliphaticHeterocycles>  (27) 
1

>  <NumAliphaticRings>  (27) 
1

>  <NumAromaticCarbocycles>  (27) 
0

>  <NumAromaticHeterocycles>  (27) 
2

>  <NumAromaticRings>  (27) 
2

>  <NumHAcceptors>  (27) 
3

>  <NumHDonors>  (27) 
2

>  <NumHeteroatoms>  (27) 
6

>  <NumRotatableBonds>  (27) 
2

>  <NumSaturatedCarbocycles>  (27) 
0

>  <NumSaturatedHeterocycles>  (27) 
1

>  <NumSaturatedRings>  (27) 
1

>  <RingCount>  (27) 
3

>  <MolLogP>  (27) 
1.4263

>  <MolMR>  (27) 
67.2631

>  <fr_Al_COO>  (27) 
0

>  <fr_Al_OH>  (27) 
0

>  <fr_Al_OH_noTert>  (27) 
0

>  <fr_ArN>  (27) 
0

>  <fr_Ar_COO>  (27) 
0

>  <fr_Ar_N>  (27) 
2

>  <fr_Ar_NH>  (27) 
1

>  <fr_Ar_OH>  (27) 
0

>  <fr_COO>  (27) 
0

>  <fr_COO2>  (27) 
0

>  <fr_C_O>  (27) 
0

>  <fr_C_O_noCOO>  (27) 
0

>  <fr_C_S>  (27) 
0

>  <fr_HOCCN>  (27) 
0

>  <fr_Imine>  (27) 
0

>  <fr_NH0>  (27) 
1

>  <fr_NH1>  (27) 
1

>  <fr_NH2>  (27) 
1

>  <fr_N_O>  (27) 
0

>  <fr_Ndealkylation1>  (27) 
0

>  <fr_Ndealkylation2>  (27) 
0

>  <fr_Nhpyrrole>  (27) 
1

>  <fr_SH>  (27) 
0

>  <fr_aldehyde>  (27) 
0

>  <fr_alkyl_carbamate>  (27) 
0

>  <fr_alkyl_halide>  (27) 
0

>  <fr_allylic_oxid>  (27) 
0

>  <fr_amide>  (27) 
0

>  <fr_amidine>  (27) 
0

>  <fr_aniline>  (27) 
0

>  <fr_aryl_methyl>  (27) 
0

>  <fr_azide>  (27) 
0

>  <fr_azo>  (27) 
0

>  <fr_barbitur>  (27) 
0

>  <fr_benzene>  (27) 
0

>  <fr_benzodiazepine>  (27) 
0

>  <fr_bicyclic>  (27) 
0

>  <fr_diazo>  (27) 
0

>  <fr_dihydropyridine>  (27) 
0

>  <fr_epoxide>  (27) 
0

>  <fr_ester>  (27) 
0

>  <fr_ether>  (27) 
1

>  <fr_furan>  (27) 
0

>  <fr_guanido>  (27) 
0

>  <fr_halogen>  (27) 
1

>  <fr_hdrzine>  (27) 
0

>  <fr_hdrzone>  (27) 
0

>  <fr_imidazole>  (27) 
1

>  <fr_imide>  (27) 
0

>  <fr_isocyan>  (27) 
0

>  <fr_isothiocyan>  (27) 
0

>  <fr_ketone>  (27) 
0

>  <fr_ketone_Topliss>  (27) 
0

>  <fr_lactam>  (27) 
0

>  <fr_lactone>  (27) 
0

>  <fr_methoxy>  (27) 
0

>  <fr_morpholine>  (27) 
1

>  <fr_nitrile>  (27) 
0

>  <fr_nitro>  (27) 
0

>  <fr_nitro_arom>  (27) 
0

>  <fr_nitro_arom_nonortho>  (27) 
0

>  <fr_nitroso>  (27) 
0

>  <fr_oxazole>  (27) 
0

>  <fr_oxime>  (27) 
0

>  <fr_para_hydroxylation>  (27) 
0

>  <fr_phenol>  (27) 
0

>  <fr_phenol_noOrthoHbond>  (27) 
0

>  <fr_phos_acid>  (27) 
0

>  <fr_phos_ester>  (27) 
0

>  <fr_piperdine>  (27) 
0

>  <fr_piperzine>  (27) 
0

>  <fr_priamide>  (27) 
0

>  <fr_prisulfonamd>  (27) 
0

>  <fr_pyridine>  (27) 
0

>  <fr_quatN>  (27) 
1

>  <fr_sulfide>  (27) 
0

>  <fr_sulfonamd>  (27) 
0

>  <fr_sulfone>  (27) 
0

>  <fr_term_acetylene>  (27) 
0

>  <fr_tetrazole>  (27) 
0

>  <fr_thiazole>  (27) 
0

>  <fr_thiocyan>  (27) 
0

>  <fr_thiophene>  (27) 
1

>  <fr_unbrch_alkane>  (27) 
0

>  <fr_urea>  (27) 
0

>  <NP_Likeness>  (27) 
-1.284483

$$$$
F168
     RDKit          3D

  0  0  0  0  0  0  0  0  0  0999 V3000
M  V30 BEGIN CTAB
M  V30 COUNTS 42 44 0 0 0
M  V30 BEGIN ATOM
M  V30 1 O 0.053000 15.652000 -9.436000 0
M  V30 2 O -5.568000 19.557000 -8.708000 0
M  V30 3 O -0.312000 18.624000 -7.881000 0
M  V30 4 N 2.953000 17.490000 -7.780000 0 CHG=1
M  V30 5 N -4.124000 19.363000 -8.277000 0
M  V30 6 C 1.739000 17.667000 -6.973000 0
M  V30 7 C -9.354000 17.846000 -11.574000 0
M  V30 8 C -9.206000 18.878000 -10.703000 0
M  V30 9 C -8.308000 17.022000 -11.785000 0
M  V30 10 C 0.609000 17.744000 -10.430000 0
M  V30 11 C -0.593000 18.689000 -10.334000 0
M  V30 12 C -8.037000 19.083000 -10.052000 0
M  V30 13 C -7.133000 17.219000 -11.148000 0
M  V30 14 C -2.354000 17.703000 -8.808000 0
M  V30 15 C -4.653000 17.704000 -9.742000 0
M  V30 16 C 0.849000 16.827000 -9.221000 0 CFG=1
M  V30 17 C -1.244000 18.757000 -8.954000 0 CFG=1
M  V30 18 C 0.486000 17.427000 -7.845000 0 CFG=2
M  V30 19 C -5.748000 18.446000 -9.616000 0
M  V30 20 C -3.720000 18.247000 -8.967000 0
M  V30 21 C -6.998000 18.246000 -10.276000 0
M  V30 22 H 0.338600 15.206600 -10.284500 0
M  V30 23 H 3.679000 18.078000 -7.423400 0
M  V30 24 H 3.246000 16.534900 -7.736400 0
M  V30 25 H 1.716000 18.598100 -6.609100 0
M  V30 26 H 1.746100 17.013400 -6.216200 0
M  V30 27 H -10.221700 17.700400 -12.049300 0
M  V30 28 H -9.974200 19.497100 -10.539900 0
M  V30 29 H -8.403000 16.255800 -12.420600 0
M  V30 30 H 1.428000 18.303900 -10.555600 0
M  V30 31 H 0.476500 17.162300 -11.232600 0
M  V30 32 H -1.283400 18.382100 -10.989100 0
M  V30 33 H -0.286300 19.608700 -10.579200 0
M  V30 34 H -7.942400 19.845500 -9.411900 0
M  V30 35 H -6.362200 16.605700 -11.320700 0
M  V30 36 H -2.281900 17.293400 -7.898600 0
M  V30 37 H -2.212700 16.998200 -9.503200 0
M  V30 38 H -4.550200 16.889500 -10.313000 0
M  V30 39 H 1.813000 16.561300 -9.208700 0
M  V30 40 H -1.672200 19.656700 -8.868900 0
M  V30 41 H -0.060600 16.736800 -7.370800 0
M  V30 42 H 2.760700 17.736600 -8.729900 0
M  V30 END ATOM
M  V30 BEGIN BOND
M  V30 1 1 1 16
M  V30 2 1 2 5
M  V30 3 1 2 19
M  V30 4 1 3 17
M  V30 5 1 3 18
M  V30 6 1 4 6
M  V30 7 2 5 20
M  V30 8 1 6 18
M  V30 9 2 7 8
M  V30 10 1 7 9
M  V30 11 1 8 12
M  V30 12 2 9 13
M  V30 13 1 10 11
M  V30 14 1 10 16
M  V30 15 1 11 17
M  V30 16 2 12 21
M  V30 17 1 13 21
M  V30 18 1 14 17
M  V30 19 1 14 20
M  V30 20 2 15 19
M  V30 21 1 15 20
M  V30 22 1 16 18
M  V30 23 1 19 21
M  V30 24 1 1 22
M  V30 25 1 4 23
M  V30 26 1 4 24
M  V30 27 1 6 25
M  V30 28 1 6 26
M  V30 29 1 7 27
M  V30 30 1 8 28
M  V30 31 1 9 29
M  V30 32 1 10 30
M  V30 33 1 10 31
M  V30 34 1 11 32
M  V30 35 1 11 33
M  V30 36 1 12 34
M  V30 37 1 13 35
M  V30 38 1 14 36
M  V30 39 1 14 37
M  V30 40 1 15 38
M  V30 41 1 16 39 CFG=1
M  V30 42 1 17 40 CFG=1
M  V30 43 1 18 41 CFG=1
M  V30 44 1 4 42
M  V30 END BOND
M  V30 END CTAB
M  END
>  <Ligand_Instance>  (28) 
168_B_4

>  <Dataset>  (28) 
CF

>  <PDB_ID>  (28) 
None

>  <Chain>  (28) 
B

>  <Resi>  (28) 
4

>  <Num_Resolved_Atoms>  (28) 
21

>  <Num_H_Atoms_ProtBoundConf>  (28) 
21

>  <Pocket>  (28) 
X

>  <Name>  (28) 
(2R,3S,6S)‐2‐(aminomethyl)‐6‐[(5‐phenyl‐1,2‐oxazol‐3‐yl)methyl]oxan‐3‐ol

>  <Num_Not_Resolved_Atoms>  (28) 
0

>  <ATP_Site>  (28) 
True

>  <Peripheral>  (28) 
True

>  <Standardized_SMILES>  (28) 
[H]O[C@@]1([H])C([H])([H])C([H])([H])[C@@]([H])(C([H])([H])C2=NOC(C3=C([H])C([H])=C([H])C([H])=C3[H])=C2[H])O[C@]1([H])C([H])([H])[N+]([H])([H])[H]

>  <2D_Mol_H>  (28) 
<rdkit.Chem.rdchem.Mol object at 0x77059d9d8740>

>  <MW>  (28) 
289.355

>  <HBA>  (28) 
4

>  <HBD>  (28) 
2

>  <LogP>  (28) 
1.0345

>  <NRB>  (28) 
6

>  <TPSA>  (28) 
83.13

>  <Num_Heavy_Atoms>  (28) 
21

>  <Ro5>  (28) 
[True, True, True, True, True, True]

>  <Ro5_Fulfilled>  (28) 
True

>  <Ro3>  (28) 
[True, False, True, True]

>  <Ro3_Fulfilled>  (28) 
True

>  <Fsp3>  (28) 
0.4375

>  <Fsp3_0.42>  (28) 
True

>  <Fsp3_0.45>  (28) 
False

>  <Stereogenic_Carbons>  (28) 
3

>  <C_Atoms>  (28) 
16

>  <FCStereo>  (28) 
0.1875

>  <SPS>  (28) 
544

>  <nSPS>  (28) 
25.904762

>  <PBF>  (28) 
0.682764

>  <PBF_0.6>  (28) 
True

>  <nPBF>  (28) 
0.032513

>  <nPBF_0.016>  (28) 
True

>  <PMI1>  (28) 
501.623671

>  <PMI2>  (28) 
4671.204601

>  <PMI3>  (28) 
4931.962082

>  <NPR1>  (28) 
0.101709

>  <NPR2>  (28) 
0.947129

>  <Sum_NPR>  (28) 
1.048838

>  <Sum_NPR_1.07>  (28) 
False

>  <Sum_NPR_1.2>  (28) 
False

>  <MaxAbsEStateIndex>  (28) 
9.806448

>  <MaxEStateIndex>  (28) 
9.806448

>  <MinAbsEStateIndex>  (28) 
0.077661

>  <MinEStateIndex>  (28) 
-0.392649

>  <qed>  (28) 
0.880496

>  <MolWt>  (28) 
289.355

>  <HeavyAtomMolWt>  (28) 
268.187

>  <ExactMolWt>  (28) 
289.154669

>  <NumValenceElectrons>  (28) 
112

>  <NumRadicalElectrons>  (28) 
0

>  <MaxPartialCharge>  (28) 
0.166616

>  <MinPartialCharge>  (28) 
-0.390177

>  <MaxAbsPartialCharge>  (28) 
0.390177

>  <MinAbsPartialCharge>  (28) 
0.166616

>  <FpDensityMorgan1>  (28) 
1.238095

>  <FpDensityMorgan2>  (28) 
2.047619

>  <FpDensityMorgan3>  (28) 
2.809524

>  <BCUT2D_MWHI>  (28) 
16.514082

>  <BCUT2D_MWLOW>  (28) 
9.979357

>  <BCUT2D_CHGHI>  (28) 
2.302648

>  <BCUT2D_CHGLO>  (28) 
-2.312696

>  <BCUT2D_LOGPHI>  (28) 
2.242187

>  <BCUT2D_LOGPLOW>  (28) 
-2.604998

>  <BCUT2D_MRHI>  (28) 
5.563728

>  <BCUT2D_MRLOW>  (28) 
-0.396025

>  <AvgIpc>  (28) 
2.98453

>  <BalabanJ>  (28) 
1.650037

>  <BertzCT>  (28) 
569.910883

>  <Chi0>  (28) 
14.65649

>  <Chi0n>  (28) 
11.94261

>  <Chi0v>  (28) 
11.94261

>  <Chi1>  (28) 
10.258351

>  <Chi1n>  (28) 
7.397822

>  <Chi1v>  (28) 
7.397822

>  <Chi2n>  (28) 
5.482566

>  <Chi2v>  (28) 
5.482566

>  <Chi3n>  (28) 
3.919396

>  <Chi3v>  (28) 
3.919396

>  <Chi4n>  (28) 
2.73882

>  <Chi4v>  (28) 
2.73882

>  <HallKierAlpha>  (28) 
-1.69

>  <Ipc>  (28) 
111633.376912

>  <Kappa1>  (28) 
14.255815

>  <Kappa2>  (28) 
6.386322

>  <Kappa3>  (28) 
3.31873

>  <LabuteASA>  (28) 
123.250264

>  <PEOE_VSA1>  (28) 
20.100153

>  <PEOE_VSA10>  (28) 
12.648723

>  <PEOE_VSA11>  (28) 
5.760247

>  <PEOE_VSA12>  (28) 
0.0

>  <PEOE_VSA13>  (28) 
0.0

>  <PEOE_VSA14>  (28) 
0.0

>  <PEOE_VSA2>  (28) 
0.0

>  <PEOE_VSA3>  (28) 
0.0

>  <PEOE_VSA4>  (28) 
0.0

>  <PEOE_VSA5>  (28) 
0.0

>  <PEOE_VSA6>  (28) 
35.488499

>  <PEOE_VSA7>  (28) 
12.841643

>  <PEOE_VSA8>  (28) 
18.05064

>  <PEOE_VSA9>  (28) 
17.901861

>  <SMR_VSA1>  (28) 
20.100153

>  <SMR_VSA10>  (28) 
0.0

>  <SMR_VSA2>  (28) 
0.0

>  <SMR_VSA3>  (28) 
5.156663

>  <SMR_VSA4>  (28) 
0.0

>  <SMR_VSA5>  (28) 
37.574364

>  <SMR_VSA6>  (28) 
6.544756

>  <SMR_VSA7>  (28) 
42.09213

>  <SMR_VSA8>  (28) 
0.0

>  <SMR_VSA9>  (28) 
11.323699

>  <SlogP_VSA1>  (28) 
5.733667

>  <SlogP_VSA10>  (28) 
0.0

>  <SlogP_VSA11>  (28) 
0.0

>  <SlogP_VSA12>  (28) 
0.0

>  <SlogP_VSA2>  (28) 
35.119846

>  <SlogP_VSA3>  (28) 
11.157685

>  <SlogP_VSA4>  (28) 
0.0

>  <SlogP_VSA5>  (28) 
18.535571

>  <SlogP_VSA6>  (28) 
40.921297

>  <SlogP_VSA7>  (28) 
0.0

>  <SlogP_VSA8>  (28) 
11.323699

>  <SlogP_VSA9>  (28) 
0.0

>  <EState_VSA1>  (28) 
6.103966

>  <EState_VSA10>  (28) 
5.106527

>  <EState_VSA11>  (28) 
0.0

>  <EState_VSA2>  (28) 
12.207933

>  <EState_VSA3>  (28) 
12.965578

>  <EState_VSA4>  (28) 
29.85927

>  <EState_VSA5>  (28) 
0.0

>  <EState_VSA6>  (28) 
0.0

>  <EState_VSA7>  (28) 
36.398202

>  <EState_VSA8>  (28) 
10.890331

>  <EState_VSA9>  (28) 
9.259958

>  <VSA_EState1>  (28) 
11.27182

>  <VSA_EState10>  (28) 
0.0

>  <VSA_EState2>  (28) 
0.0

>  <VSA_EState3>  (28) 
13.929884

>  <VSA_EState4>  (28) 
5.733232

>  <VSA_EState5>  (28) 
0.773289

>  <VSA_EState6>  (28) 
11.875903

>  <VSA_EState7>  (28) 
1.826836

>  <VSA_EState8>  (28) 
0.589035

>  <VSA_EState9>  (28) 
0.0

>  <FractionCSP3>  (28) 
0.4375

>  <HeavyAtomCount>  (28) 
21

>  <NHOHCount>  (28) 
4

>  <NOCount>  (28) 
5

>  <NumAliphaticCarbocycles>  (28) 
0

>  <NumAliphaticHeterocycles>  (28) 
1

>  <NumAliphaticRings>  (28) 
1

>  <NumAromaticCarbocycles>  (28) 
1

>  <NumAromaticHeterocycles>  (28) 
1

>  <NumAromaticRings>  (28) 
2

>  <NumHAcceptors>  (28) 
4

>  <NumHDonors>  (28) 
2

>  <NumHeteroatoms>  (28) 
5

>  <NumRotatableBonds>  (28) 
4

>  <NumSaturatedCarbocycles>  (28) 
0

>  <NumSaturatedHeterocycles>  (28) 
1

>  <NumSaturatedRings>  (28) 
1

>  <RingCount>  (28) 
3

>  <MolLogP>  (28) 
1.0345

>  <MolMR>  (28) 
77.2999

>  <fr_Al_COO>  (28) 
0

>  <fr_Al_OH>  (28) 
1

>  <fr_Al_OH_noTert>  (28) 
1

>  <fr_ArN>  (28) 
0

>  <fr_Ar_COO>  (28) 
0

>  <fr_Ar_N>  (28) 
1

>  <fr_Ar_NH>  (28) 
0

>  <fr_Ar_OH>  (28) 
0

>  <fr_COO>  (28) 
0

>  <fr_COO2>  (28) 
0

>  <fr_C_O>  (28) 
0

>  <fr_C_O_noCOO>  (28) 
0

>  <fr_C_S>  (28) 
0

>  <fr_HOCCN>  (28) 
0

>  <fr_Imine>  (28) 
0

>  <fr_NH0>  (28) 
1

>  <fr_NH1>  (28) 
0

>  <fr_NH2>  (28) 
0

>  <fr_N_O>  (28) 
0

>  <fr_Ndealkylation1>  (28) 
0

>  <fr_Ndealkylation2>  (28) 
0

>  <fr_Nhpyrrole>  (28) 
0

>  <fr_SH>  (28) 
0

>  <fr_aldehyde>  (28) 
0

>  <fr_alkyl_carbamate>  (28) 
0

>  <fr_alkyl_halide>  (28) 
0

>  <fr_allylic_oxid>  (28) 
0

>  <fr_amide>  (28) 
0

>  <fr_amidine>  (28) 
0

>  <fr_aniline>  (28) 
0

>  <fr_aryl_methyl>  (28) 
0

>  <fr_azide>  (28) 
0

>  <fr_azo>  (28) 
0

>  <fr_barbitur>  (28) 
0

>  <fr_benzene>  (28) 
1

>  <fr_benzodiazepine>  (28) 
0

>  <fr_bicyclic>  (28) 
0

>  <fr_diazo>  (28) 
0

>  <fr_dihydropyridine>  (28) 
0

>  <fr_epoxide>  (28) 
0

>  <fr_ester>  (28) 
0

>  <fr_ether>  (28) 
1

>  <fr_furan>  (28) 
0

>  <fr_guanido>  (28) 
0

>  <fr_halogen>  (28) 
0

>  <fr_hdrzine>  (28) 
0

>  <fr_hdrzone>  (28) 
0

>  <fr_imidazole>  (28) 
0

>  <fr_imide>  (28) 
0

>  <fr_isocyan>  (28) 
0

>  <fr_isothiocyan>  (28) 
0

>  <fr_ketone>  (28) 
0

>  <fr_ketone_Topliss>  (28) 
0

>  <fr_lactam>  (28) 
0

>  <fr_lactone>  (28) 
0

>  <fr_methoxy>  (28) 
0

>  <fr_morpholine>  (28) 
0

>  <fr_nitrile>  (28) 
0

>  <fr_nitro>  (28) 
0

>  <fr_nitro_arom>  (28) 
0

>  <fr_nitro_arom_nonortho>  (28) 
0

>  <fr_nitroso>  (28) 
0

>  <fr_oxazole>  (28) 
0

>  <fr_oxime>  (28) 
0

>  <fr_para_hydroxylation>  (28) 
0

>  <fr_phenol>  (28) 
0

>  <fr_phenol_noOrthoHbond>  (28) 
0

>  <fr_phos_acid>  (28) 
0

>  <fr_phos_ester>  (28) 
0

>  <fr_piperdine>  (28) 
0

>  <fr_piperzine>  (28) 
0

>  <fr_priamide>  (28) 
0

>  <fr_prisulfonamd>  (28) 
0

>  <fr_pyridine>  (28) 
0

>  <fr_quatN>  (28) 
1

>  <fr_sulfide>  (28) 
0

>  <fr_sulfonamd>  (28) 
0

>  <fr_sulfone>  (28) 
0

>  <fr_term_acetylene>  (28) 
0

>  <fr_tetrazole>  (28) 
0

>  <fr_thiazole>  (28) 
0

>  <fr_thiocyan>  (28) 
0

>  <fr_thiophene>  (28) 
0

>  <fr_unbrch_alkane>  (28) 
0

>  <fr_urea>  (28) 
0

>  <NP_Likeness>  (28) 
-0.013788

$$$$
F184
     RDKit          3D

  0  0  0  0  0  0  0  0  0  0999 V3000
M  V30 BEGIN CTAB
M  V30 COUNTS 38 39 0 0 0
M  V30 BEGIN ATOM
M  V30 1 O -6.658000 4.464000 -20.417000 0
M  V30 2 O -8.714000 6.118000 -15.275000 0
M  V30 3 O -6.983000 4.970000 -14.363000 0
M  V30 4 O -13.626000 2.017000 -19.498000 0
M  V30 5 O -6.728000 2.638000 -17.776000 0
M  V30 6 N -8.406000 4.326000 -17.578000 0
M  V30 7 N -9.770000 3.700000 -19.992000 0 CHG=1
M  V30 8 C -7.100000 5.907000 -13.277000 0
M  V30 9 C -7.421000 3.316000 -20.811000 0
M  V30 10 C -12.524000 1.263000 -18.981000 0
M  V30 11 C -13.546000 3.422000 -19.250000 0
M  V30 12 C -6.677000 3.407000 -16.474000 0
M  V30 13 C -11.128000 1.773000 -19.329000 0
M  V30 14 C -12.207000 4.034000 -19.661000 0
M  V30 15 C -7.851000 5.246000 -15.330000 0
M  V30 16 C -7.903000 3.337000 -18.377000 0
M  V30 17 C -10.953000 3.291000 -19.192000 0
M  V30 18 C -8.464000 3.032000 -19.715000 0 CFG=1
M  V30 19 C -7.642000 4.332000 -16.448000 0
M  V30 20 H -6.760600 5.184000 -21.103300 0
M  V30 21 H -9.638100 4.680400 -19.845800 0
M  V30 22 H -6.436900 5.676400 -12.564900 0
M  V30 23 H -6.920000 6.831300 -13.613400 0
M  V30 24 H -8.024400 5.864300 -12.898100 0
M  V30 25 H -6.815800 2.526800 -20.915000 0
M  V30 26 H -7.883100 3.498300 -21.678900 0
M  V30 27 H -12.602900 0.329900 -19.331800 0
M  V30 28 H -12.604000 1.252300 -17.984300 0
M  V30 29 H -13.679900 3.579600 -18.271600 0
M  V30 30 H -14.273700 3.876800 -19.763500 0
M  V30 31 H -6.017400 3.246700 -15.739700 0
M  V30 32 H -10.930100 1.519900 -20.276000 0
M  V30 33 H -10.471700 1.326700 -18.720600 0
M  V30 34 H -12.168700 4.961900 -19.290100 0
M  V30 35 H -12.183000 4.073100 -20.659900 0
M  V30 36 H -10.786100 3.512200 -18.231100 0
M  V30 37 H -8.637300 2.047300 -19.734200 0
M  V30 38 H -9.990200 3.533000 -20.953000 0
M  V30 END ATOM
M  V30 BEGIN BOND
M  V30 1 1 1 9
M  V30 2 2 2 15
M  V30 3 1 3 8
M  V30 4 1 3 15
M  V30 5 1 4 10
M  V30 6 1 4 11
M  V30 7 1 5 12
M  V30 8 1 5 16
M  V30 9 2 6 16
M  V30 10 1 6 19
M  V30 11 1 7 17
M  V30 12 1 7 18
M  V30 13 1 9 18
M  V30 14 1 10 13
M  V30 15 1 11 14
M  V30 16 2 12 19
M  V30 17 1 13 17
M  V30 18 1 14 17
M  V30 19 1 15 19
M  V30 20 1 16 18
M  V30 21 1 1 20
M  V30 22 1 7 21
M  V30 23 1 8 22
M  V30 24 1 8 23
M  V30 25 1 8 24
M  V30 26 1 9 25
M  V30 27 1 9 26
M  V30 28 1 10 27
M  V30 29 1 10 28
M  V30 30 1 11 29
M  V30 31 1 11 30
M  V30 32 1 12 31
M  V30 33 1 13 32
M  V30 34 1 13 33
M  V30 35 1 14 34
M  V30 36 1 14 35
M  V30 37 1 17 36
M  V30 38 1 18 37 CFG=1
M  V30 39 1 7 38
M  V30 END BOND
M  V30 END CTAB
M  END
>  <Ligand_Instance>  (29) 
184_A_401

>  <Dataset>  (29) 
CF

>  <PDB_ID>  (29) 
None

>  <Chain>  (29) 
A

>  <Resi>  (29) 
401

>  <Num_Resolved_Atoms>  (29) 
19

>  <Num_H_Atoms_ProtBoundConf>  (29) 
19

>  <Pocket>  (29) 
A

>  <Name>  (29) 
methyl 2‐[(1S)‐2‐hydroxy‐1‐[(oxan‐4‐yl)amino]ethyl]‐1,3‐oxazole‐4‐carboxylate

>  <Num_Not_Resolved_Atoms>  (29) 
0

>  <ATP_Site>  (29) 
True

>  <Peripheral>  (29) 
False

>  <Standardized_SMILES>  (29) 
[H]OC([H])([H])[C@@]([H])(C1=NC(C(=O)OC([H])([H])[H])=C([H])O1)[N+]([H])([H])C1([H])C([H])([H])C([H])([H])OC([H])([H])C1([H])[H]

>  <2D_Mol_H>  (29) 
<rdkit.Chem.rdchem.Mol object at 0x77059d9d8820>

>  <MW>  (29) 
271.293

>  <HBA>  (29) 
6

>  <HBD>  (29) 
2

>  <LogP>  (29) 
-0.763

>  <NRB>  (29) 
7

>  <TPSA>  (29) 
98.4

>  <Num_Heavy_Atoms>  (29) 
19

>  <Ro5>  (29) 
[True, True, True, True, True, True]

>  <Ro5_Fulfilled>  (29) 
True

>  <Ro3>  (29) 
[True, False, True, True]

>  <Ro3_Fulfilled>  (29) 
True

>  <Fsp3>  (29) 
0.666667

>  <Fsp3_0.42>  (29) 
True

>  <Fsp3_0.45>  (29) 
True

>  <Stereogenic_Carbons>  (29) 
1

>  <C_Atoms>  (29) 
12

>  <FCStereo>  (29) 
0.083333

>  <SPS>  (29) 
346

>  <nSPS>  (29) 
18.210526

>  <PBF>  (29) 
0.951647

>  <PBF_0.6>  (29) 
True

>  <nPBF>  (29) 
0.050087

>  <nPBF_0.016>  (29) 
True

>  <PMI1>  (29) 
1034.193273

>  <PMI2>  (29) 
2508.499977

>  <PMI3>  (29) 
3105.438386

>  <NPR1>  (29) 
0.333026

>  <NPR2>  (29) 
0.807776

>  <Sum_NPR>  (29) 
1.140803

>  <Sum_NPR_1.07>  (29) 
True

>  <Sum_NPR_1.2>  (29) 
False

>  <MaxAbsEStateIndex>  (29) 
11.293736

>  <MaxEStateIndex>  (29) 
11.293736

>  <MinAbsEStateIndex>  (29) 
0.098727

>  <MinEStateIndex>  (29) 
-0.543744

>  <qed>  (29) 
0.682848

>  <MolWt>  (29) 
271.293

>  <HeavyAtomMolWt>  (29) 
252.141

>  <ExactMolWt>  (29) 
271.128848

>  <NumValenceElectrons>  (29) 
106

>  <NumRadicalElectrons>  (29) 
0

>  <MaxPartialCharge>  (29) 
0.35954

>  <MinPartialCharge>  (29) 
-0.464203

>  <MaxAbsPartialCharge>  (29) 
0.464203

>  <MinAbsPartialCharge>  (29) 
0.35954

>  <FpDensityMorgan1>  (29) 
1.631579

>  <FpDensityMorgan2>  (29) 
2.368421

>  <FpDensityMorgan3>  (29) 
3.0

>  <BCUT2D_MWHI>  (29) 
16.525312

>  <BCUT2D_MWLOW>  (29) 
10.08417

>  <BCUT2D_CHGHI>  (29) 
2.268629

>  <BCUT2D_CHGLO>  (29) 
-2.226715

>  <BCUT2D_LOGPHI>  (29) 
2.110352

>  <BCUT2D_LOGPLOW>  (29) 
-2.917433

>  <BCUT2D_MRHI>  (29) 
5.861136

>  <BCUT2D_MRLOW>  (29) 
-0.734148

>  <AvgIpc>  (29) 
2.943395

>  <BalabanJ>  (29) 
1.996287

>  <BertzCT>  (29) 
414.007171

>  <Chi0>  (29) 
13.664926

>  <Chi0n>  (29) 
10.872355

>  <Chi0v>  (29) 
10.872355

>  <Chi1>  (29) 
9.240713

>  <Chi1n>  (29) 
6.315876

>  <Chi1v>  (29) 
6.315876

>  <Chi2n>  (29) 
4.493885

>  <Chi2v>  (29) 
4.493885

>  <Chi3n>  (29) 
3.200806

>  <Chi3v>  (29) 
3.200806

>  <Chi4n>  (29) 
2.114308

>  <Chi4v>  (29) 
2.114308

>  <HallKierAlpha>  (29) 
-1.44

>  <Ipc>  (29) 
32153.64561

>  <Kappa1>  (29) 
13.979423

>  <Kappa2>  (29) 
6.646956

>  <Kappa3>  (29) 
3.524594

>  <LabuteASA>  (29) 
110.456737

>  <PEOE_VSA1>  (29) 
24.314193

>  <PEOE_VSA10>  (29) 
12.870045

>  <PEOE_VSA11>  (29) 
11.735769

>  <PEOE_VSA12>  (29) 
0.0

>  <PEOE_VSA13>  (29) 
5.890724

>  <PEOE_VSA14>  (29) 
5.969305

>  <PEOE_VSA2>  (29) 
0.0

>  <PEOE_VSA3>  (29) 
9.778516

>  <PEOE_VSA4>  (29) 
0.0

>  <PEOE_VSA5>  (29) 
0.0

>  <PEOE_VSA6>  (29) 
0.0

>  <PEOE_VSA7>  (29) 
0.0

>  <PEOE_VSA8>  (29) 
12.841643

>  <PEOE_VSA9>  (29) 
26.365402

>  <SMR_VSA1>  (29) 
29.10873

>  <SMR_VSA10>  (29) 
5.969305

>  <SMR_VSA2>  (29) 
0.0

>  <SMR_VSA3>  (29) 
4.983979

>  <SMR_VSA4>  (29) 
0.0

>  <SMR_VSA5>  (29) 
24.925325

>  <SMR_VSA6>  (29) 
26.930443

>  <SMR_VSA7>  (29) 
17.847815

>  <SMR_VSA8>  (29) 
0.0

>  <SMR_VSA9>  (29) 
0.0

>  <SlogP_VSA1>  (29) 
5.316789

>  <SlogP_VSA10>  (29) 
0.0

>  <SlogP_VSA11>  (29) 
0.0

>  <SlogP_VSA12>  (29) 
0.0

>  <SlogP_VSA2>  (29) 
49.032095

>  <SlogP_VSA3>  (29) 
9.473726

>  <SlogP_VSA4>  (29) 
0.0

>  <SlogP_VSA5>  (29) 
35.262673

>  <SlogP_VSA6>  (29) 
10.680314

>  <SlogP_VSA7>  (29) 
0.0

>  <SlogP_VSA8>  (29) 
0.0

>  <SlogP_VSA9>  (29) 
0.0

>  <EState_VSA1>  (29) 
5.969305

>  <EState_VSA10>  (29) 
9.901065

>  <EState_VSA11>  (29) 
0.0

>  <EState_VSA2>  (29) 
18.342651

>  <EState_VSA3>  (29) 
11.932565

>  <EState_VSA4>  (29) 
26.055407

>  <EState_VSA5>  (29) 
13.372961

>  <EState_VSA6>  (29) 
0.0

>  <EState_VSA7>  (29) 
5.316789

>  <EState_VSA8>  (29) 
9.720841

>  <EState_VSA9>  (29) 
9.154014

>  <VSA_EState1>  (29) 
15.098018

>  <VSA_EState10>  (29) 
0.0

>  <VSA_EState2>  (29) 
15.347704

>  <VSA_EState3>  (29) 
11.459718

>  <VSA_EState4>  (29) 
0.1216

>  <VSA_EState5>  (29) 
-0.201715

>  <VSA_EState6>  (29) 
0.070262

>  <VSA_EState7>  (29) 
3.114864

>  <VSA_EState8>  (29) 
1.37014

>  <VSA_EState9>  (29) 
1.286076

>  <FractionCSP3>  (29) 
0.666667

>  <HeavyAtomCount>  (29) 
19

>  <NHOHCount>  (29) 
3

>  <NOCount>  (29) 
7

>  <NumAliphaticCarbocycles>  (29) 
0

>  <NumAliphaticHeterocycles>  (29) 
1

>  <NumAliphaticRings>  (29) 
1

>  <NumAromaticCarbocycles>  (29) 
0

>  <NumAromaticHeterocycles>  (29) 
1

>  <NumAromaticRings>  (29) 
1

>  <NumHAcceptors>  (29) 
6

>  <NumHDonors>  (29) 
2

>  <NumHeteroatoms>  (29) 
7

>  <NumRotatableBonds>  (29) 
5

>  <NumSaturatedCarbocycles>  (29) 
0

>  <NumSaturatedHeterocycles>  (29) 
1

>  <NumSaturatedRings>  (29) 
1

>  <RingCount>  (29) 
2

>  <MolLogP>  (29) 
-0.763

>  <MolMR>  (29) 
63.4357

>  <fr_Al_COO>  (29) 
0

>  <fr_Al_OH>  (29) 
1

>  <fr_Al_OH_noTert>  (29) 
1

>  <fr_ArN>  (29) 
0

>  <fr_Ar_COO>  (29) 
0

>  <fr_Ar_N>  (29) 
1

>  <fr_Ar_NH>  (29) 
0

>  <fr_Ar_OH>  (29) 
0

>  <fr_COO>  (29) 
0

>  <fr_COO2>  (29) 
0

>  <fr_C_O>  (29) 
1

>  <fr_C_O_noCOO>  (29) 
1

>  <fr_C_S>  (29) 
0

>  <fr_HOCCN>  (29) 
0

>  <fr_Imine>  (29) 
0

>  <fr_NH0>  (29) 
1

>  <fr_NH1>  (29) 
0

>  <fr_NH2>  (29) 
1

>  <fr_N_O>  (29) 
0

>  <fr_Ndealkylation1>  (29) 
0

>  <fr_Ndealkylation2>  (29) 
0

>  <fr_Nhpyrrole>  (29) 
0

>  <fr_SH>  (29) 
0

>  <fr_aldehyde>  (29) 
0

>  <fr_alkyl_carbamate>  (29) 
0

>  <fr_alkyl_halide>  (29) 
0

>  <fr_allylic_oxid>  (29) 
0

>  <fr_amide>  (29) 
0

>  <fr_amidine>  (29) 
0

>  <fr_aniline>  (29) 
0

>  <fr_aryl_methyl>  (29) 
0

>  <fr_azide>  (29) 
0

>  <fr_azo>  (29) 
0

>  <fr_barbitur>  (29) 
0

>  <fr_benzene>  (29) 
0

>  <fr_benzodiazepine>  (29) 
0

>  <fr_bicyclic>  (29) 
0

>  <fr_diazo>  (29) 
0

>  <fr_dihydropyridine>  (29) 
0

>  <fr_epoxide>  (29) 
0

>  <fr_ester>  (29) 
1

>  <fr_ether>  (29) 
2

>  <fr_furan>  (29) 
0

>  <fr_guanido>  (29) 
0

>  <fr_halogen>  (29) 
0

>  <fr_hdrzine>  (29) 
0

>  <fr_hdrzone>  (29) 
0

>  <fr_imidazole>  (29) 
0

>  <fr_imide>  (29) 
0

>  <fr_isocyan>  (29) 
0

>  <fr_isothiocyan>  (29) 
0

>  <fr_ketone>  (29) 
0

>  <fr_ketone_Topliss>  (29) 
0

>  <fr_lactam>  (29) 
0

>  <fr_lactone>  (29) 
0

>  <fr_methoxy>  (29) 
1

>  <fr_morpholine>  (29) 
0

>  <fr_nitrile>  (29) 
0

>  <fr_nitro>  (29) 
0

>  <fr_nitro_arom>  (29) 
0

>  <fr_nitro_arom_nonortho>  (29) 
0

>  <fr_nitroso>  (29) 
0

>  <fr_oxazole>  (29) 
1

>  <fr_oxime>  (29) 
0

>  <fr_para_hydroxylation>  (29) 
0

>  <fr_phenol>  (29) 
0

>  <fr_phenol_noOrthoHbond>  (29) 
0

>  <fr_phos_acid>  (29) 
0

>  <fr_phos_ester>  (29) 
0

>  <fr_piperdine>  (29) 
0

>  <fr_piperzine>  (29) 
0

>  <fr_priamide>  (29) 
0

>  <fr_prisulfonamd>  (29) 
0

>  <fr_pyridine>  (29) 
0

>  <fr_quatN>  (29) 
1

>  <fr_sulfide>  (29) 
0

>  <fr_sulfonamd>  (29) 
0

>  <fr_sulfone>  (29) 
0

>  <fr_term_acetylene>  (29) 
0

>  <fr_tetrazole>  (29) 
0

>  <fr_thiazole>  (29) 
0

>  <fr_thiocyan>  (29) 
0

>  <fr_thiophene>  (29) 
0

>  <fr_unbrch_alkane>  (29) 
0

>  <fr_urea>  (29) 
0

>  <NP_Likeness>  (29) 
-0.141111

$$$$
F186
     RDKit          3D

  0  0  0  0  0  0  0  0  0  0999 V3000
M  V30 BEGIN CTAB
M  V30 COUNTS 37 37 0 0 0
M  V30 BEGIN ATOM
M  V30 1 O -8.665000 0.372000 -18.641000 0
M  V30 2 O -16.247000 2.669000 -20.293000 0
M  V30 3 O -9.228000 2.344000 -16.158000 0
M  V30 4 O -14.825000 4.386000 -19.929000 0
M  V30 5 O -12.863000 0.541000 -18.944000 0
M  V30 6 N -9.949000 2.715000 -18.252000 0
M  V30 7 N -12.833000 2.746000 -19.130000 0
M  V30 8 C -15.844000 5.289000 -20.401000 0
M  V30 9 C -8.737000 5.349000 -18.045000 0
M  V30 10 C -6.983000 3.609000 -18.086000 0
M  V30 11 C -7.688000 4.597000 -15.926000 0
M  V30 12 C -10.003000 0.428000 -19.092000 0
M  V30 13 C -14.106000 0.898000 -19.406000 0
M  V30 14 C -15.168000 3.098000 -19.946000 0
M  V30 15 C -9.157000 2.985000 -17.196000 0
M  V30 16 C -12.128000 1.679000 -18.799000 0
M  V30 17 C -14.064000 2.243000 -19.497000 0
M  V30 18 C -10.736000 1.476000 -18.276000 0 CFG=2
M  V30 19 C -8.166000 4.147000 -17.309000 0
M  V30 20 H -8.589400 -0.299900 -17.904200 0
M  V30 21 H -10.000600 3.356700 -19.017200 0
M  V30 22 H -15.504500 6.228500 -20.354300 0
M  V30 23 H -16.075500 5.064900 -21.347700 0
M  V30 24 H -16.659100 5.200300 -19.828600 0
M  V30 25 H -9.519300 5.710000 -17.537300 0
M  V30 26 H -8.034800 6.056700 -18.122700 0
M  V30 27 H -9.032400 5.070800 -18.959000 0
M  V30 28 H -6.602000 2.817800 -17.607700 0
M  V30 29 H -7.281700 3.334000 -18.999900 0
M  V30 30 H -6.284000 4.319900 -18.163600 0
M  V30 31 H -7.310100 3.813500 -15.432700 0
M  V30 32 H -6.982300 5.297900 -16.029000 0
M  V30 33 H -8.459400 4.973500 -15.412900 0
M  V30 34 H -10.439300 -0.463200 -18.968300 0
M  V30 35 H -10.023500 0.677700 -20.060100 0
M  V30 36 H -14.872400 0.294500 -19.626100 0
M  V30 37 H -10.807000 1.139400 -17.337000 0
M  V30 END ATOM
M  V30 BEGIN BOND
M  V30 1 1 1 12
M  V30 2 2 2 14
M  V30 3 2 3 15
M  V30 4 1 4 8
M  V30 5 1 4 14
M  V30 6 1 5 13
M  V30 7 1 5 16
M  V30 8 1 6 15
M  V30 9 1 6 18
M  V30 10 2 7 16
M  V30 11 1 7 17
M  V30 12 1 9 19
M  V30 13 1 10 19
M  V30 14 1 11 19
M  V30 15 1 12 18
M  V30 16 2 13 17
M  V30 17 1 14 17
M  V30 18 1 19 15
M  V30 19 1 16 18
M  V30 20 1 1 20
M  V30 21 1 6 21
M  V30 22 1 8 22
M  V30 23 1 8 23
M  V30 24 1 8 24
M  V30 25 1 9 25
M  V30 26 1 9 26
M  V30 27 1 9 27
M  V30 28 1 10 28
M  V30 29 1 10 29
M  V30 30 1 10 30
M  V30 31 1 11 31
M  V30 32 1 11 32
M  V30 33 1 11 33
M  V30 34 1 12 34
M  V30 35 1 12 35
M  V30 36 1 13 36
M  V30 37 1 18 37 CFG=1
M  V30 END BOND
M  V30 END CTAB
M  END
>  <Ligand_Instance>  (30) 
186_A_402

>  <Dataset>  (30) 
CF

>  <PDB_ID>  (30) 
None

>  <Chain>  (30) 
A

>  <Resi>  (30) 
402

>  <Num_Resolved_Atoms>  (30) 
19

>  <Num_H_Atoms_ProtBoundConf>  (30) 
18

>  <Pocket>  (30) 
A

>  <Name>  (30) 
methyl 2‐[(1R)‐1‐(2,2‐dimethylpropanamido)‐2‐hydroxyethyl]‐1,3‐oxazole‐4‐carboxylate

>  <Num_Not_Resolved_Atoms>  (30) 
0

>  <ATP_Site>  (30) 
True

>  <Peripheral>  (30) 
False

>  <Standardized_SMILES>  (30) 
[H]OC([H])([H])[C@]([H])(C1=NC(C(=O)OC([H])([H])[H])=C([H])O1)N([H])C(=O)C(C([H])([H])[H])(C([H])([H])[H])C([H])([H])[H]

>  <2D_Mol_H>  (30) 
<rdkit.Chem.rdchem.Mol object at 0x77059d9d8900>

>  <MW>  (30) 
270.285

>  <HBA>  (30) 
6

>  <HBD>  (30) 
2

>  <LogP>  (30) 
0.6569

>  <NRB>  (30) 
6

>  <TPSA>  (30) 
101.66

>  <Num_Heavy_Atoms>  (30) 
19

>  <Ro5>  (30) 
[True, True, True, True, True, True]

>  <Ro5_Fulfilled>  (30) 
True

>  <Ro3>  (30) 
[True, False, True, True]

>  <Ro3_Fulfilled>  (30) 
True

>  <Fsp3>  (30) 
0.583333

>  <Fsp3_0.42>  (30) 
True

>  <Fsp3_0.45>  (30) 
True

>  <Stereogenic_Carbons>  (30) 
1

>  <C_Atoms>  (30) 
12

>  <FCStereo>  (30) 
0.083333

>  <SPS>  (30) 
245

>  <nSPS>  (30) 
12.894737

>  <PBF>  (30) 
0.694898

>  <PBF_0.6>  (30) 
True

>  <nPBF>  (30) 
0.036574

>  <nPBF_0.016>  (30) 
True

>  <PMI1>  (30) 
811.832489

>  <PMI2>  (30) 
2803.961701

>  <PMI3>  (30) 
3373.586712

>  <NPR1>  (30) 
0.240644

>  <NPR2>  (30) 
0.831152

>  <Sum_NPR>  (30) 
1.071795

>  <Sum_NPR_1.07>  (30) 
True

>  <Sum_NPR_1.2>  (30) 
False

>  <MaxAbsEStateIndex>  (30) 
11.820761

>  <MaxEStateIndex>  (30) 
11.820761

>  <MinAbsEStateIndex>  (30) 
0.013002

>  <MinEStateIndex>  (30) 
-0.800805

>  <qed>  (30) 
0.779082

>  <MolWt>  (30) 
270.285

>  <HeavyAtomMolWt>  (30) 
252.141

>  <ExactMolWt>  (30) 
270.121572

>  <NumValenceElectrons>  (30) 
106

>  <NumRadicalElectrons>  (30) 
0

>  <MaxPartialCharge>  (30) 
0.359537

>  <MinPartialCharge>  (30) 
-0.464203

>  <MaxAbsPartialCharge>  (30) 
0.464203

>  <MinAbsPartialCharge>  (30) 
0.359537

>  <FpDensityMorgan1>  (30) 
1.526316

>  <FpDensityMorgan2>  (30) 
2.157895

>  <FpDensityMorgan3>  (30) 
2.631579

>  <BCUT2D_MWHI>  (30) 
16.525152

>  <BCUT2D_MWLOW>  (30) 
9.950717

>  <BCUT2D_CHGHI>  (30) 
2.269308

>  <BCUT2D_CHGLO>  (30) 
-2.20717

>  <BCUT2D_LOGPHI>  (30) 
2.176111

>  <BCUT2D_LOGPLOW>  (30) 
-2.384546

>  <BCUT2D_MRHI>  (30) 
5.863053

>  <BCUT2D_MRLOW>  (30) 
-0.129373

>  <AvgIpc>  (30) 
2.82256

>  <BalabanJ>  (30) 
2.834838

>  <BertzCT>  (30) 
460.929954

>  <Chi0>  (30) 
14.629392

>  <Chi0n>  (30) 
11.389228

>  <Chi0v>  (30) 
11.389228

>  <Chi1>  (30) 
8.790242

>  <Chi1n>  (30) 
5.748162

>  <Chi1v>  (30) 
5.748162

>  <Chi2n>  (30) 
5.021187

>  <Chi2v>  (30) 
5.021187

>  <Chi3n>  (30) 
2.383661

>  <Chi3v>  (30) 
2.383661

>  <Chi4n>  (30) 
1.206211

>  <Chi4v>  (30) 
1.206211

>  <HallKierAlpha>  (30) 
-1.89

>  <Ipc>  (30) 
14194.655359

>  <Kappa1>  (30) 
15.168445

>  <Kappa2>  (30) 
5.833525

>  <Kappa3>  (30) 
3.784994

>  <LabuteASA>  (30) 
110.510545

>  <PEOE_VSA1>  (30) 
19.57733

>  <PEOE_VSA10>  (30) 
12.305004

>  <PEOE_VSA11>  (30) 
5.693928

>  <PEOE_VSA12>  (30) 
11.797904

>  <PEOE_VSA13>  (30) 
0.0

>  <PEOE_VSA14>  (30) 
5.969305

>  <PEOE_VSA2>  (30) 
4.794537

>  <PEOE_VSA3>  (30) 
9.778516

>  <PEOE_VSA4>  (30) 
0.0

>  <PEOE_VSA5>  (30) 
0.0

>  <PEOE_VSA6>  (30) 
20.771212

>  <PEOE_VSA7>  (30) 
0.0

>  <PEOE_VSA8>  (30) 
5.41499

>  <PEOE_VSA9>  (30) 
13.71668

>  <SMR_VSA1>  (30) 
23.849616

>  <SMR_VSA10>  (30) 
11.876485

>  <SMR_VSA2>  (30) 
0.0

>  <SMR_VSA3>  (30) 
10.300767

>  <SMR_VSA4>  (30) 
5.41499

>  <SMR_VSA5>  (30) 
26.813052

>  <SMR_VSA6>  (30) 
13.71668

>  <SMR_VSA7>  (30) 
17.847815

>  <SMR_VSA8>  (30) 
0.0

>  <SMR_VSA9>  (30) 
0.0

>  <SlogP_VSA1>  (30) 
5.316789

>  <SlogP_VSA10>  (30) 
0.0

>  <SlogP_VSA11>  (30) 
0.0

>  <SlogP_VSA12>  (30) 
0.0

>  <SlogP_VSA2>  (30) 
35.68367

>  <SlogP_VSA3>  (30) 
9.5314

>  <SlogP_VSA4>  (30) 
5.41499

>  <SlogP_VSA5>  (30) 
43.192242

>  <SlogP_VSA6>  (30) 
10.680314

>  <SlogP_VSA7>  (30) 
0.0

>  <SlogP_VSA8>  (30) 
0.0

>  <SlogP_VSA9>  (30) 
0.0

>  <EState_VSA1>  (30) 
17.426137

>  <EState_VSA10>  (30) 
14.695602

>  <EState_VSA11>  (30) 
0.0

>  <EState_VSA2>  (30) 
24.098714

>  <EState_VSA3>  (30) 
0.0

>  <EState_VSA4>  (30) 
6.263163

>  <EState_VSA5>  (30) 
7.109798

>  <EState_VSA6>  (30) 
20.771212

>  <EState_VSA7>  (30) 
0.0

>  <EState_VSA8>  (30) 
15.03763

>  <EState_VSA9>  (30) 
4.417151

>  <VSA_EState1>  (30) 
9.554574

>  <VSA_EState10>  (30) 
0.0

>  <VSA_EState2>  (30) 
26.916707

>  <VSA_EState3>  (30) 
11.864129

>  <VSA_EState4>  (30) 
-0.618963

>  <VSA_EState5>  (30) 
-0.848421

>  <VSA_EState6>  (30) 
-0.800805

>  <VSA_EState7>  (30) 
1.118126

>  <VSA_EState8>  (30) 
4.840851

>  <VSA_EState9>  (30) 
1.223801

>  <FractionCSP3>  (30) 
0.583333

>  <HeavyAtomCount>  (30) 
19

>  <NHOHCount>  (30) 
2

>  <NOCount>  (30) 
7

>  <NumAliphaticCarbocycles>  (30) 
0

>  <NumAliphaticHeterocycles>  (30) 
0

>  <NumAliphaticRings>  (30) 
0

>  <NumAromaticCarbocycles>  (30) 
0

>  <NumAromaticHeterocycles>  (30) 
1

>  <NumAromaticRings>  (30) 
1

>  <NumHAcceptors>  (30) 
6

>  <NumHDonors>  (30) 
2

>  <NumHeteroatoms>  (30) 
7

>  <NumRotatableBonds>  (30) 
4

>  <NumSaturatedCarbocycles>  (30) 
0

>  <NumSaturatedHeterocycles>  (30) 
0

>  <NumSaturatedRings>  (30) 
0

>  <RingCount>  (30) 
1

>  <MolLogP>  (30) 
0.6569

>  <MolMR>  (30) 
65.267

>  <fr_Al_COO>  (30) 
0

>  <fr_Al_OH>  (30) 
1

>  <fr_Al_OH_noTert>  (30) 
1

>  <fr_ArN>  (30) 
0

>  <fr_Ar_COO>  (30) 
0

>  <fr_Ar_N>  (30) 
1

>  <fr_Ar_NH>  (30) 
0

>  <fr_Ar_OH>  (30) 
0

>  <fr_COO>  (30) 
0

>  <fr_COO2>  (30) 
0

>  <fr_C_O>  (30) 
2

>  <fr_C_O_noCOO>  (30) 
2

>  <fr_C_S>  (30) 
0

>  <fr_HOCCN>  (30) 
0

>  <fr_Imine>  (30) 
0

>  <fr_NH0>  (30) 
1

>  <fr_NH1>  (30) 
1

>  <fr_NH2>  (30) 
0

>  <fr_N_O>  (30) 
0

>  <fr_Ndealkylation1>  (30) 
0

>  <fr_Ndealkylation2>  (30) 
0

>  <fr_Nhpyrrole>  (30) 
0

>  <fr_SH>  (30) 
0

>  <fr_aldehyde>  (30) 
0

>  <fr_alkyl_carbamate>  (30) 
0

>  <fr_alkyl_halide>  (30) 
0

>  <fr_allylic_oxid>  (30) 
0

>  <fr_amide>  (30) 
1

>  <fr_amidine>  (30) 
0

>  <fr_aniline>  (30) 
0

>  <fr_aryl_methyl>  (30) 
0

>  <fr_azide>  (30) 
0

>  <fr_azo>  (30) 
0

>  <fr_barbitur>  (30) 
0

>  <fr_benzene>  (30) 
0

>  <fr_benzodiazepine>  (30) 
0

>  <fr_bicyclic>  (30) 
0

>  <fr_diazo>  (30) 
0

>  <fr_dihydropyridine>  (30) 
0

>  <fr_epoxide>  (30) 
0

>  <fr_ester>  (30) 
1

>  <fr_ether>  (30) 
1

>  <fr_furan>  (30) 
0

>  <fr_guanido>  (30) 
0

>  <fr_halogen>  (30) 
0

>  <fr_hdrzine>  (30) 
0

>  <fr_hdrzone>  (30) 
0

>  <fr_imidazole>  (30) 
0

>  <fr_imide>  (30) 
0

>  <fr_isocyan>  (30) 
0

>  <fr_isothiocyan>  (30) 
0

>  <fr_ketone>  (30) 
0

>  <fr_ketone_Topliss>  (30) 
0

>  <fr_lactam>  (30) 
0

>  <fr_lactone>  (30) 
0

>  <fr_methoxy>  (30) 
1

>  <fr_morpholine>  (30) 
0

>  <fr_nitrile>  (30) 
0

>  <fr_nitro>  (30) 
0

>  <fr_nitro_arom>  (30) 
0

>  <fr_nitro_arom_nonortho>  (30) 
0

>  <fr_nitroso>  (30) 
0

>  <fr_oxazole>  (30) 
1

>  <fr_oxime>  (30) 
0

>  <fr_para_hydroxylation>  (30) 
0

>  <fr_phenol>  (30) 
0

>  <fr_phenol_noOrthoHbond>  (30) 
0

>  <fr_phos_acid>  (30) 
0

>  <fr_phos_ester>  (30) 
0

>  <fr_piperdine>  (30) 
0

>  <fr_piperzine>  (30) 
0

>  <fr_priamide>  (30) 
0

>  <fr_prisulfonamd>  (30) 
0

>  <fr_pyridine>  (30) 
0

>  <fr_quatN>  (30) 
0

>  <fr_sulfide>  (30) 
0

>  <fr_sulfonamd>  (30) 
0

>  <fr_sulfone>  (30) 
0

>  <fr_term_acetylene>  (30) 
0

>  <fr_tetrazole>  (30) 
0

>  <fr_thiazole>  (30) 
0

>  <fr_thiocyan>  (30) 
0

>  <fr_thiophene>  (30) 
0

>  <fr_unbrch_alkane>  (30) 
0

>  <fr_urea>  (30) 
0

>  <NP_Likeness>  (30) 
-0.425306

$$$$
F188
     RDKit          3D

  0  0  0  0  0  0  0  0  0  0999 V3000
M  V30 BEGIN CTAB
M  V30 COUNTS 37 38 0 0 0
M  V30 BEGIN ATOM
M  V30 1 Cl -16.381000 17.950000 -36.520000 0
M  V30 2 O -18.462000 15.343000 -41.141000 0
M  V30 3 O -17.025000 16.531000 -42.394000 0 CHG=-1
M  V30 4 O -22.060000 19.636000 -40.686000 0
M  V30 5 N -22.518000 17.446000 -40.179000 0
M  V30 6 N -20.510000 17.097000 -42.304000 0 CFG=1 CHG=1
M  V30 7 C -23.860000 17.659000 -39.688000 0
M  V30 8 C -21.210000 17.961000 -43.298000 0
M  V30 9 C -20.340000 18.091000 -44.543000 0
M  V30 10 C -18.622000 17.060000 -37.746000 0
M  V30 11 C -17.327000 18.612000 -38.882000 0
M  V30 12 C -18.979000 17.579000 -44.075000 0
M  V30 13 C -19.525000 17.012000 -38.761000 0
M  V30 14 C -18.218000 18.562000 -39.870000 0
M  V30 15 C -18.148000 16.165000 -42.184000 0
M  V30 16 C -21.678000 18.464000 -40.641000 0
M  V30 17 C -17.532000 17.855000 -37.794000 0
M  V30 18 C -19.345000 16.529000 -43.025000 0 CFG=1
M  V30 19 C -20.244000 18.009000 -41.146000 0 CFG=1
M  V30 20 C -19.327000 17.787000 -39.878000 0
M  V30 21 H -22.167000 16.509700 -40.189100 0
M  V30 22 H -24.258400 16.783000 -39.416100 0
M  V30 23 H -23.832700 18.272200 -38.898500 0
M  V30 24 H -24.417800 18.069200 -40.409600 0
M  V30 25 H -21.367600 18.866100 -42.903200 0
M  V30 26 H -22.086600 17.547100 -43.543400 0
M  V30 27 H -20.281200 19.043700 -44.841200 0
M  V30 28 H -20.696700 17.529400 -45.289600 0
M  V30 29 H -18.769700 16.488700 -36.938700 0
M  V30 30 H -16.522000 19.201400 -38.949700 0
M  V30 31 H -18.437500 18.316500 -43.671500 0
M  V30 32 H -18.470700 17.167900 -44.831700 0
M  V30 33 H -20.326500 16.417700 -38.695200 0
M  V30 34 H -18.054900 19.142200 -40.668000 0
M  V30 35 H -19.648900 15.705300 -43.503800 0
M  V30 36 H -19.868200 18.832200 -41.571500 0
M  V30 37 H -21.118400 16.357700 -42.015400 0
M  V30 END ATOM
M  V30 BEGIN BOND
M  V30 1 1 1 17
M  V30 2 2 2 15
M  V30 3 1 3 15
M  V30 4 2 4 16
M  V30 5 1 5 7
M  V30 6 1 5 16
M  V30 7 1 6 8
M  V30 8 1 6 18
M  V30 9 1 6 19
M  V30 10 1 8 9
M  V30 11 1 9 12
M  V30 12 2 10 13
M  V30 13 1 10 17
M  V30 14 1 11 14
M  V30 15 2 11 17
M  V30 16 1 12 18
M  V30 17 1 13 20
M  V30 18 2 14 20
M  V30 19 1 15 18
M  V30 20 1 16 19
M  V30 21 1 19 20
M  V30 22 1 19 36 CFG=3
M  V30 23 1 5 21
M  V30 24 1 7 22
M  V30 25 1 7 23
M  V30 26 1 7 24
M  V30 27 1 8 25
M  V30 28 1 8 26
M  V30 29 1 9 27
M  V30 30 1 9 28
M  V30 31 1 10 29
M  V30 32 1 11 30
M  V30 33 1 12 31
M  V30 34 1 12 32
M  V30 35 1 13 33
M  V30 36 1 14 34
M  V30 37 1 18 35 CFG=3
M  V30 38 1 6 37 CFG=1
M  V30 END BOND
M  V30 END CTAB
M  END
>  <Ligand_Instance>  (31) 
188_A_401

>  <Dataset>  (31) 
CF

>  <PDB_ID>  (31) 
None

>  <Chain>  (31) 
A

>  <Resi>  (31) 
401

>  <Num_Resolved_Atoms>  (31) 
20

>  <Num_H_Atoms_ProtBoundConf>  (31) 
17

>  <Pocket>  (31) 
X

>  <Name>  (31) 
(2S)‐1‐[(R)‐(4‐chlorophenyl)(methylcarbamoyl)methyl]pyrrolidine‐2‐carboxylic acid

>  <Num_Not_Resolved_Atoms>  (31) 
0

>  <ATP_Site>  (31) 
False

>  <Peripheral>  (31) 
True

>  <Standardized_SMILES>  (31) 
[H]C1=C([H])C([C@]([H])(C(=O)N([H])C([H])([H])[H])[N@@+]2([H])C([H])([H])C([H])([H])C([H])([H])[C@@]2([H])C(=O)[O-])=C([H])C([H])=C1Cl

>  <2D_Mol_H>  (31) 
<rdkit.Chem.rdchem.Mol object at 0x77059d9d89e0>

>  <MW>  (31) 
296.754

>  <HBA>  (31) 
3

>  <HBD>  (31) 
2

>  <LogP>  (31) 
-1.0757

>  <NRB>  (31) 
5

>  <TPSA>  (31) 
73.67

>  <Num_Heavy_Atoms>  (31) 
20

>  <Ro5>  (31) 
[True, True, True, True, True, True]

>  <Ro5_Fulfilled>  (31) 
True

>  <Ro3>  (31) 
[True, True, True, True]

>  <Ro3_Fulfilled>  (31) 
True

>  <Fsp3>  (31) 
0.428571

>  <Fsp3_0.42>  (31) 
True

>  <Fsp3_0.45>  (31) 
False

>  <Stereogenic_Carbons>  (31) 
2

>  <C_Atoms>  (31) 
14

>  <FCStereo>  (31) 
0.142857

>  <SPS>  (31) 
466

>  <nSPS>  (31) 
23.3

>  <PBF>  (31) 
0.849744

>  <PBF_0.6>  (31) 
True

>  <nPBF>  (31) 
0.042487

>  <nPBF_0.016>  (31) 
True

>  <PMI1>  (31) 
1177.950369

>  <PMI2>  (31) 
2253.254537

>  <PMI3>  (31) 
2967.90829

>  <NPR1>  (31) 
0.396896

>  <NPR2>  (31) 
0.759206

>  <Sum_NPR>  (31) 
1.156102

>  <Sum_NPR_1.07>  (31) 
True

>  <Sum_NPR_1.2>  (31) 
False

>  <MaxAbsEStateIndex>  (31) 
12.17426

>  <MaxEStateIndex>  (31) 
12.17426

>  <MinAbsEStateIndex>  (31) 
0.198637

>  <MinEStateIndex>  (31) 
-1.096883

>  <qed>  (31) 
0.742585

>  <MolWt>  (31) 
296.754

>  <HeavyAtomMolWt>  (31) 
279.618

>  <ExactMolWt>  (31) 
296.09277

>  <NumValenceElectrons>  (31) 
108

>  <NumRadicalElectrons>  (31) 
0

>  <MaxPartialCharge>  (31) 
0.282453

>  <MinPartialCharge>  (31) 
-0.543895

>  <MaxAbsPartialCharge>  (31) 
0.543895

>  <MinAbsPartialCharge>  (31) 
0.282453

>  <FpDensityMorgan1>  (31) 
1.4

>  <FpDensityMorgan2>  (31) 
2.05

>  <FpDensityMorgan3>  (31) 
2.6

>  <BCUT2D_MWHI>  (31) 
35.495691

>  <BCUT2D_MWLOW>  (31) 
10.031646

>  <BCUT2D_CHGHI>  (31) 
2.396524

>  <BCUT2D_CHGLO>  (31) 
-2.291122

>  <BCUT2D_LOGPHI>  (31) 
2.166788

>  <BCUT2D_LOGPLOW>  (31) 
-3.16052

>  <BCUT2D_MRHI>  (31) 
6.301009

>  <BCUT2D_MRLOW>  (31) 
-0.927141

>  <AvgIpc>  (31) 
2.899699

>  <BalabanJ>  (31) 
2.346314

>  <BertzCT>  (31) 
503.645409

>  <Chi0>  (31) 
14.698306

>  <Chi0n>  (31) 
11.188131

>  <Chi0v>  (31) 
11.94406

>  <Chi1>  (31) 
9.540913

>  <Chi1n>  (31) 
6.577899

>  <Chi1v>  (31) 
6.955864

>  <Chi2n>  (31) 
4.93758

>  <Chi2v>  (31) 
5.374015

>  <Chi3n>  (31) 
3.773071

>  <Chi3v>  (31) 
4.025047

>  <Chi4n>  (31) 
2.818088

>  <Chi4v>  (31) 
2.944077

>  <HallKierAlpha>  (31) 
-1.59

>  <Ipc>  (31) 
39969.453918

>  <Kappa1>  (31) 
14.811542

>  <Kappa2>  (31) 
6.240191

>  <Kappa3>  (31) 
2.939493

>  <LabuteASA>  (31) 
122.075349

>  <PEOE_VSA1>  (31) 
20.117763

>  <PEOE_VSA10>  (31) 
6.041841

>  <PEOE_VSA11>  (31) 
6.041841

>  <PEOE_VSA12>  (31) 
0.0

>  <PEOE_VSA13>  (31) 
5.90718

>  <PEOE_VSA14>  (31) 
0.0

>  <PEOE_VSA2>  (31) 
4.794537

>  <PEOE_VSA3>  (31) 
0.0

>  <PEOE_VSA4>  (31) 
0.0

>  <PEOE_VSA5>  (31) 
0.0

>  <PEOE_VSA6>  (31) 
23.733674

>  <PEOE_VSA7>  (31) 
12.132734

>  <PEOE_VSA8>  (31) 
30.4754

>  <PEOE_VSA9>  (31) 
12.514062

>  <SMR_VSA1>  (31) 
19.595511

>  <SMR_VSA10>  (31) 
23.477425

>  <SMR_VSA2>  (31) 
0.0

>  <SMR_VSA3>  (31) 
5.316789

>  <SMR_VSA4>  (31) 
0.0

>  <SMR_VSA5>  (31) 
24.925325

>  <SMR_VSA6>  (31) 
13.592428

>  <SMR_VSA7>  (31) 
34.851553

>  <SMR_VSA8>  (31) 
0.0

>  <SMR_VSA9>  (31) 
0.0

>  <SlogP_VSA1>  (31) 
15.323226

>  <SlogP_VSA10>  (31) 
0.0

>  <SlogP_VSA11>  (31) 
0.0

>  <SlogP_VSA12>  (31) 
11.60094

>  <SlogP_VSA2>  (31) 
31.510754

>  <SlogP_VSA3>  (31) 
9.589074

>  <SlogP_VSA4>  (31) 
0.0

>  <SlogP_VSA5>  (31) 
24.446936

>  <SlogP_VSA6>  (31) 
24.265468

>  <SlogP_VSA7>  (31) 
5.022633

>  <SlogP_VSA8>  (31) 
0.0

>  <SlogP_VSA9>  (31) 
0.0

>  <EState_VSA1>  (31) 
18.052987

>  <EState_VSA10>  (31) 
14.695602

>  <EState_VSA11>  (31) 
0.0

>  <EState_VSA2>  (31) 
5.90718

>  <EState_VSA3>  (31) 
17.988211

>  <EState_VSA4>  (31) 
16.884183

>  <EState_VSA5>  (31) 
0.0

>  <EState_VSA6>  (31) 
31.31314

>  <EState_VSA7>  (31) 
0.0

>  <EState_VSA8>  (31) 
5.316789

>  <EState_VSA9>  (31) 
11.60094

>  <VSA_EState1>  (31) 
0.0

>  <VSA_EState10>  (31) 
5.85713

>  <VSA_EState2>  (31) 
24.130696

>  <VSA_EState3>  (31) 
14.417287

>  <VSA_EState4>  (31) 
0.761019

>  <VSA_EState5>  (31) 
-1.295519

>  <VSA_EState6>  (31) 
5.738553

>  <VSA_EState7>  (31) 
1.313308

>  <VSA_EState8>  (31) 
0.638254

>  <VSA_EState9>  (31) 
1.550384

>  <FractionCSP3>  (31) 
0.428571

>  <HeavyAtomCount>  (31) 
20

>  <NHOHCount>  (31) 
2

>  <NOCount>  (31) 
5

>  <NumAliphaticCarbocycles>  (31) 
0

>  <NumAliphaticHeterocycles>  (31) 
1

>  <NumAliphaticRings>  (31) 
1

>  <NumAromaticCarbocycles>  (31) 
1

>  <NumAromaticHeterocycles>  (31) 
0

>  <NumAromaticRings>  (31) 
1

>  <NumHAcceptors>  (31) 
3

>  <NumHDonors>  (31) 
2

>  <NumHeteroatoms>  (31) 
6

>  <NumRotatableBonds>  (31) 
4

>  <NumSaturatedCarbocycles>  (31) 
0

>  <NumSaturatedHeterocycles>  (31) 
1

>  <NumSaturatedRings>  (31) 
1

>  <RingCount>  (31) 
2

>  <MolLogP>  (31) 
-1.0757

>  <MolMR>  (31) 
72.1184

>  <fr_Al_COO>  (31) 
1

>  <fr_Al_OH>  (31) 
0

>  <fr_Al_OH_noTert>  (31) 
0

>  <fr_ArN>  (31) 
0

>  <fr_Ar_COO>  (31) 
0

>  <fr_Ar_N>  (31) 
0

>  <fr_Ar_NH>  (31) 
0

>  <fr_Ar_OH>  (31) 
0

>  <fr_COO>  (31) 
1

>  <fr_COO2>  (31) 
1

>  <fr_C_O>  (31) 
2

>  <fr_C_O_noCOO>  (31) 
2

>  <fr_C_S>  (31) 
0

>  <fr_HOCCN>  (31) 
0

>  <fr_Imine>  (31) 
0

>  <fr_NH0>  (31) 
0

>  <fr_NH1>  (31) 
2

>  <fr_NH2>  (31) 
0

>  <fr_N_O>  (31) 
0

>  <fr_Ndealkylation1>  (31) 
1

>  <fr_Ndealkylation2>  (31) 
1

>  <fr_Nhpyrrole>  (31) 
0

>  <fr_SH>  (31) 
0

>  <fr_aldehyde>  (31) 
0

>  <fr_alkyl_carbamate>  (31) 
0

>  <fr_alkyl_halide>  (31) 
0

>  <fr_allylic_oxid>  (31) 
0

>  <fr_amide>  (31) 
1

>  <fr_amidine>  (31) 
0

>  <fr_aniline>  (31) 
0

>  <fr_aryl_methyl>  (31) 
0

>  <fr_azide>  (31) 
0

>  <fr_azo>  (31) 
0

>  <fr_barbitur>  (31) 
0

>  <fr_benzene>  (31) 
1

>  <fr_benzodiazepine>  (31) 
0

>  <fr_bicyclic>  (31) 
0

>  <fr_diazo>  (31) 
0

>  <fr_dihydropyridine>  (31) 
0

>  <fr_epoxide>  (31) 
0

>  <fr_ester>  (31) 
0

>  <fr_ether>  (31) 
0

>  <fr_furan>  (31) 
0

>  <fr_guanido>  (31) 
0

>  <fr_halogen>  (31) 
1

>  <fr_hdrzine>  (31) 
0

>  <fr_hdrzone>  (31) 
0

>  <fr_imidazole>  (31) 
0

>  <fr_imide>  (31) 
0

>  <fr_isocyan>  (31) 
0

>  <fr_isothiocyan>  (31) 
0

>  <fr_ketone>  (31) 
0

>  <fr_ketone_Topliss>  (31) 
0

>  <fr_lactam>  (31) 
0

>  <fr_lactone>  (31) 
0

>  <fr_methoxy>  (31) 
0

>  <fr_morpholine>  (31) 
0

>  <fr_nitrile>  (31) 
0

>  <fr_nitro>  (31) 
0

>  <fr_nitro_arom>  (31) 
0

>  <fr_nitro_arom_nonortho>  (31) 
0

>  <fr_nitroso>  (31) 
0

>  <fr_oxazole>  (31) 
0

>  <fr_oxime>  (31) 
0

>  <fr_para_hydroxylation>  (31) 
0

>  <fr_phenol>  (31) 
0

>  <fr_phenol_noOrthoHbond>  (31) 
0

>  <fr_phos_acid>  (31) 
0

>  <fr_phos_ester>  (31) 
0

>  <fr_piperdine>  (31) 
0

>  <fr_piperzine>  (31) 
0

>  <fr_priamide>  (31) 
0

>  <fr_prisulfonamd>  (31) 
0

>  <fr_pyridine>  (31) 
0

>  <fr_quatN>  (31) 
1

>  <fr_sulfide>  (31) 
0

>  <fr_sulfonamd>  (31) 
0

>  <fr_sulfone>  (31) 
0

>  <fr_term_acetylene>  (31) 
0

>  <fr_tetrazole>  (31) 
0

>  <fr_thiazole>  (31) 
0

>  <fr_thiocyan>  (31) 
0

>  <fr_thiophene>  (31) 
0

>  <fr_unbrch_alkane>  (31) 
0

>  <fr_urea>  (31) 
0

>  <NP_Likeness>  (31) 
-0.491267

$$$$
F188
     RDKit          3D

  0  0  0  0  0  0  0  0  0  0999 V3000
M  V30 BEGIN CTAB
M  V30 COUNTS 37 38 0 0 0
M  V30 BEGIN ATOM
M  V30 1 Cl -7.332000 7.054000 -13.092000 0
M  V30 2 O -7.615000 -0.348000 -18.679000 0
M  V30 3 O -6.188000 0.290000 -17.083000 0 CHG=-1
M  V30 4 O -9.266000 2.292000 -17.796000 0
M  V30 5 N -9.942000 4.266000 -18.769000 0
M  V30 6 N -6.403000 2.994000 -18.202000 0 CFG=2 CHG=1
M  V30 7 C -9.747000 5.610000 -19.251000 0
M  V30 8 C -5.068000 3.558000 -18.482000 0
M  V30 9 C -4.632000 2.944000 -19.810000 0
M  V30 10 C -7.352000 4.718000 -14.430000 0
M  V30 11 C -7.421000 6.719000 -15.637000 0
M  V30 12 C -5.427000 1.662000 -19.974000 0
M  V30 13 C -7.409000 3.999000 -15.555000 0
M  V30 14 C -7.460000 6.019000 -16.764000 0
M  V30 15 C -6.746000 0.536000 -18.140000 0
M  V30 16 C -8.981000 3.419000 -18.205000 0
M  V30 17 C -7.371000 6.061000 -14.483000 0
M  V30 18 C -6.614000 1.775000 -19.016000 0 CFG=1
M  V30 19 C -7.516000 3.983000 -18.091000 0 CFG=1
M  V30 20 C -7.461000 4.673000 -16.741000 0
M  V30 21 H -10.868200 3.897000 -18.846200 0
M  V30 22 H -10.613100 5.968000 -19.599800 0
M  V30 23 H -9.424300 6.189100 -18.502300 0
M  V30 24 H -9.068200 5.605600 -19.985300 0
M  V30 25 H -4.425900 3.311500 -17.756100 0
M  V30 26 H -5.118900 4.553800 -18.558000 0
M  V30 27 H -3.652500 2.743200 -19.792700 0
M  V30 28 H -4.830200 3.572000 -20.562500 0
M  V30 29 H -7.295000 4.255200 -13.545400 0
M  V30 30 H -7.429000 7.718800 -15.655600 0
M  V30 31 H -4.863200 0.871000 -19.736500 0
M  V30 32 H -5.748800 1.571100 -20.916400 0
M  V30 33 H -7.413400 2.999400 -15.528900 0
M  V30 34 H -7.489000 6.497600 -17.641500 0
M  V30 35 H -7.452000 1.884000 -19.550600 0
M  V30 36 H -7.391200 4.675500 -18.801600 0
M  V30 37 H -6.314400 2.639000 -17.271300 0
M  V30 END ATOM
M  V30 BEGIN BOND
M  V30 1 1 1 17
M  V30 2 2 2 15
M  V30 3 1 3 15
M  V30 4 2 4 16
M  V30 5 1 5 7
M  V30 6 1 5 16
M  V30 7 1 6 8
M  V30 8 1 6 18
M  V30 9 1 6 19
M  V30 10 1 8 9
M  V30 11 1 9 12
M  V30 12 2 10 13
M  V30 13 1 10 17
M  V30 14 1 11 14
M  V30 15 2 11 17
M  V30 16 1 12 18
M  V30 17 1 13 20
M  V30 18 2 14 20
M  V30 19 1 15 18
M  V30 20 1 16 19
M  V30 21 1 19 20
M  V30 22 1 19 36 CFG=3
M  V30 23 1 5 21
M  V30 24 1 7 22
M  V30 25 1 7 23
M  V30 26 1 7 24
M  V30 27 1 8 25
M  V30 28 1 8 26
M  V30 29 1 9 27
M  V30 30 1 9 28
M  V30 31 1 10 29
M  V30 32 1 11 30
M  V30 33 1 12 31
M  V30 34 1 12 32
M  V30 35 1 13 33
M  V30 36 1 14 34
M  V30 37 1 18 35 CFG=3
M  V30 38 1 6 37 CFG=1
M  V30 END BOND
M  V30 END CTAB
M  END
>  <Ligand_Instance>  (32) 
188_A_501

>  <Dataset>  (32) 
CF

>  <PDB_ID>  (32) 
None

>  <Chain>  (32) 
A

>  <Resi>  (32) 
501

>  <Num_Resolved_Atoms>  (32) 
20

>  <Num_H_Atoms_ProtBoundConf>  (32) 
17

>  <Pocket>  (32) 
X

>  <Name>  (32) 
(2S)‐1‐[(R)‐(4‐chlorophenyl)(methylcarbamoyl)methyl]pyrrolidine‐2‐carboxylic acid

>  <Num_Not_Resolved_Atoms>  (32) 
0

>  <ATP_Site>  (32) 
False

>  <Peripheral>  (32) 
True

>  <Standardized_SMILES>  (32) 
[H]C1=C([H])C([C@]([H])(C(=O)N([H])C([H])([H])[H])[N@+]2([H])C([H])([H])C([H])([H])C([H])([H])[C@@]2([H])C(=O)[O-])=C([H])C([H])=C1Cl

>  <2D_Mol_H>  (32) 
<rdkit.Chem.rdchem.Mol object at 0x77059d9d8ac0>

>  <MW>  (32) 
296.754

>  <HBA>  (32) 
3

>  <HBD>  (32) 
2

>  <LogP>  (32) 
-1.0757

>  <NRB>  (32) 
5

>  <TPSA>  (32) 
73.67

>  <Num_Heavy_Atoms>  (32) 
20

>  <Ro5>  (32) 
[True, True, True, True, True, True]

>  <Ro5_Fulfilled>  (32) 
True

>  <Ro3>  (32) 
[True, True, True, True]

>  <Ro3_Fulfilled>  (32) 
True

>  <Fsp3>  (32) 
0.428571

>  <Fsp3_0.42>  (32) 
True

>  <Fsp3_0.45>  (32) 
False

>  <Stereogenic_Carbons>  (32) 
2

>  <C_Atoms>  (32) 
14

>  <FCStereo>  (32) 
0.142857

>  <SPS>  (32) 
466

>  <nSPS>  (32) 
23.3

>  <PBF>  (32) 
1.089429

>  <PBF_0.6>  (32) 
True

>  <nPBF>  (32) 
0.054471

>  <nPBF_0.016>  (32) 
True

>  <PMI1>  (32) 
1033.498193

>  <PMI2>  (32) 
2761.380009

>  <PMI3>  (32) 
2981.458142

>  <NPR1>  (32) 
0.346642

>  <NPR2>  (32) 
0.926184

>  <Sum_NPR>  (32) 
1.272826

>  <Sum_NPR_1.07>  (32) 
True

>  <Sum_NPR_1.2>  (32) 
True

>  <MaxAbsEStateIndex>  (32) 
12.17426

>  <MaxEStateIndex>  (32) 
12.17426

>  <MinAbsEStateIndex>  (32) 
0.198637

>  <MinEStateIndex>  (32) 
-1.096883

>  <qed>  (32) 
0.742585

>  <MolWt>  (32) 
296.754

>  <HeavyAtomMolWt>  (32) 
279.618

>  <ExactMolWt>  (32) 
296.09277

>  <NumValenceElectrons>  (32) 
108

>  <NumRadicalElectrons>  (32) 
0

>  <MaxPartialCharge>  (32) 
0.282453

>  <MinPartialCharge>  (32) 
-0.543895

>  <MaxAbsPartialCharge>  (32) 
0.543895

>  <MinAbsPartialCharge>  (32) 
0.282453

>  <FpDensityMorgan1>  (32) 
1.4

>  <FpDensityMorgan2>  (32) 
2.05

>  <FpDensityMorgan3>  (32) 
2.6

>  <BCUT2D_MWHI>  (32) 
35.495691

>  <BCUT2D_MWLOW>  (32) 
10.031646

>  <BCUT2D_CHGHI>  (32) 
2.396524

>  <BCUT2D_CHGLO>  (32) 
-2.291122

>  <BCUT2D_LOGPHI>  (32) 
2.166788

>  <BCUT2D_LOGPLOW>  (32) 
-3.16052

>  <BCUT2D_MRHI>  (32) 
6.301009

>  <BCUT2D_MRLOW>  (32) 
-0.927141

>  <AvgIpc>  (32) 
2.899699

>  <BalabanJ>  (32) 
2.346314

>  <BertzCT>  (32) 
503.645409

>  <Chi0>  (32) 
14.698306

>  <Chi0n>  (32) 
11.188131

>  <Chi0v>  (32) 
11.94406

>  <Chi1>  (32) 
9.540913

>  <Chi1n>  (32) 
6.577899

>  <Chi1v>  (32) 
6.955864

>  <Chi2n>  (32) 
4.93758

>  <Chi2v>  (32) 
5.374015

>  <Chi3n>  (32) 
3.773071

>  <Chi3v>  (32) 
4.025047

>  <Chi4n>  (32) 
2.818088

>  <Chi4v>  (32) 
2.944077

>  <HallKierAlpha>  (32) 
-1.59

>  <Ipc>  (32) 
39969.453918

>  <Kappa1>  (32) 
14.811542

>  <Kappa2>  (32) 
6.240191

>  <Kappa3>  (32) 
2.939493

>  <LabuteASA>  (32) 
122.075349

>  <PEOE_VSA1>  (32) 
20.117763

>  <PEOE_VSA10>  (32) 
6.041841

>  <PEOE_VSA11>  (32) 
6.041841

>  <PEOE_VSA12>  (32) 
0.0

>  <PEOE_VSA13>  (32) 
5.90718

>  <PEOE_VSA14>  (32) 
0.0

>  <PEOE_VSA2>  (32) 
4.794537

>  <PEOE_VSA3>  (32) 
0.0

>  <PEOE_VSA4>  (32) 
0.0

>  <PEOE_VSA5>  (32) 
0.0

>  <PEOE_VSA6>  (32) 
23.733674

>  <PEOE_VSA7>  (32) 
12.132734

>  <PEOE_VSA8>  (32) 
30.4754

>  <PEOE_VSA9>  (32) 
12.514062

>  <SMR_VSA1>  (32) 
19.595511

>  <SMR_VSA10>  (32) 
23.477425

>  <SMR_VSA2>  (32) 
0.0

>  <SMR_VSA3>  (32) 
5.316789

>  <SMR_VSA4>  (32) 
0.0

>  <SMR_VSA5>  (32) 
24.925325

>  <SMR_VSA6>  (32) 
13.592428

>  <SMR_VSA7>  (32) 
34.851553

>  <SMR_VSA8>  (32) 
0.0

>  <SMR_VSA9>  (32) 
0.0

>  <SlogP_VSA1>  (32) 
15.323226

>  <SlogP_VSA10>  (32) 
0.0

>  <SlogP_VSA11>  (32) 
0.0

>  <SlogP_VSA12>  (32) 
11.60094

>  <SlogP_VSA2>  (32) 
31.510754

>  <SlogP_VSA3>  (32) 
9.589074

>  <SlogP_VSA4>  (32) 
0.0

>  <SlogP_VSA5>  (32) 
24.446936

>  <SlogP_VSA6>  (32) 
24.265468

>  <SlogP_VSA7>  (32) 
5.022633

>  <SlogP_VSA8>  (32) 
0.0

>  <SlogP_VSA9>  (32) 
0.0

>  <EState_VSA1>  (32) 
18.052987

>  <EState_VSA10>  (32) 
14.695602

>  <EState_VSA11>  (32) 
0.0

>  <EState_VSA2>  (32) 
5.90718

>  <EState_VSA3>  (32) 
17.988211

>  <EState_VSA4>  (32) 
16.884183

>  <EState_VSA5>  (32) 
0.0

>  <EState_VSA6>  (32) 
31.31314

>  <EState_VSA7>  (32) 
0.0

>  <EState_VSA8>  (32) 
5.316789

>  <EState_VSA9>  (32) 
11.60094

>  <VSA_EState1>  (32) 
0.0

>  <VSA_EState10>  (32) 
5.85713

>  <VSA_EState2>  (32) 
24.130696

>  <VSA_EState3>  (32) 
14.417287

>  <VSA_EState4>  (32) 
0.761019

>  <VSA_EState5>  (32) 
-1.295519

>  <VSA_EState6>  (32) 
5.738553

>  <VSA_EState7>  (32) 
1.313308

>  <VSA_EState8>  (32) 
0.638254

>  <VSA_EState9>  (32) 
1.550384

>  <FractionCSP3>  (32) 
0.428571

>  <HeavyAtomCount>  (32) 
20

>  <NHOHCount>  (32) 
2

>  <NOCount>  (32) 
5

>  <NumAliphaticCarbocycles>  (32) 
0

>  <NumAliphaticHeterocycles>  (32) 
1

>  <NumAliphaticRings>  (32) 
1

>  <NumAromaticCarbocycles>  (32) 
1

>  <NumAromaticHeterocycles>  (32) 
0

>  <NumAromaticRings>  (32) 
1

>  <NumHAcceptors>  (32) 
3

>  <NumHDonors>  (32) 
2

>  <NumHeteroatoms>  (32) 
6

>  <NumRotatableBonds>  (32) 
4

>  <NumSaturatedCarbocycles>  (32) 
0

>  <NumSaturatedHeterocycles>  (32) 
1

>  <NumSaturatedRings>  (32) 
1

>  <RingCount>  (32) 
2

>  <MolLogP>  (32) 
-1.0757

>  <MolMR>  (32) 
72.1184

>  <fr_Al_COO>  (32) 
1

>  <fr_Al_OH>  (32) 
0

>  <fr_Al_OH_noTert>  (32) 
0

>  <fr_ArN>  (32) 
0

>  <fr_Ar_COO>  (32) 
0

>  <fr_Ar_N>  (32) 
0

>  <fr_Ar_NH>  (32) 
0

>  <fr_Ar_OH>  (32) 
0

>  <fr_COO>  (32) 
1

>  <fr_COO2>  (32) 
1

>  <fr_C_O>  (32) 
2

>  <fr_C_O_noCOO>  (32) 
2

>  <fr_C_S>  (32) 
0

>  <fr_HOCCN>  (32) 
0

>  <fr_Imine>  (32) 
0

>  <fr_NH0>  (32) 
0

>  <fr_NH1>  (32) 
2

>  <fr_NH2>  (32) 
0

>  <fr_N_O>  (32) 
0

>  <fr_Ndealkylation1>  (32) 
1

>  <fr_Ndealkylation2>  (32) 
1

>  <fr_Nhpyrrole>  (32) 
0

>  <fr_SH>  (32) 
0

>  <fr_aldehyde>  (32) 
0

>  <fr_alkyl_carbamate>  (32) 
0

>  <fr_alkyl_halide>  (32) 
0

>  <fr_allylic_oxid>  (32) 
0

>  <fr_amide>  (32) 
1

>  <fr_amidine>  (32) 
0

>  <fr_aniline>  (32) 
0

>  <fr_aryl_methyl>  (32) 
0

>  <fr_azide>  (32) 
0

>  <fr_azo>  (32) 
0

>  <fr_barbitur>  (32) 
0

>  <fr_benzene>  (32) 
1

>  <fr_benzodiazepine>  (32) 
0

>  <fr_bicyclic>  (32) 
0

>  <fr_diazo>  (32) 
0

>  <fr_dihydropyridine>  (32) 
0

>  <fr_epoxide>  (32) 
0

>  <fr_ester>  (32) 
0

>  <fr_ether>  (32) 
0

>  <fr_furan>  (32) 
0

>  <fr_guanido>  (32) 
0

>  <fr_halogen>  (32) 
1

>  <fr_hdrzine>  (32) 
0

>  <fr_hdrzone>  (32) 
0

>  <fr_imidazole>  (32) 
0

>  <fr_imide>  (32) 
0

>  <fr_isocyan>  (32) 
0

>  <fr_isothiocyan>  (32) 
0

>  <fr_ketone>  (32) 
0

>  <fr_ketone_Topliss>  (32) 
0

>  <fr_lactam>  (32) 
0

>  <fr_lactone>  (32) 
0

>  <fr_methoxy>  (32) 
0

>  <fr_morpholine>  (32) 
0

>  <fr_nitrile>  (32) 
0

>  <fr_nitro>  (32) 
0

>  <fr_nitro_arom>  (32) 
0

>  <fr_nitro_arom_nonortho>  (32) 
0

>  <fr_nitroso>  (32) 
0

>  <fr_oxazole>  (32) 
0

>  <fr_oxime>  (32) 
0

>  <fr_para_hydroxylation>  (32) 
0

>  <fr_phenol>  (32) 
0

>  <fr_phenol_noOrthoHbond>  (32) 
0

>  <fr_phos_acid>  (32) 
0

>  <fr_phos_ester>  (32) 
0

>  <fr_piperdine>  (32) 
0

>  <fr_piperzine>  (32) 
0

>  <fr_priamide>  (32) 
0

>  <fr_prisulfonamd>  (32) 
0

>  <fr_pyridine>  (32) 
0

>  <fr_quatN>  (32) 
1

>  <fr_sulfide>  (32) 
0

>  <fr_sulfonamd>  (32) 
0

>  <fr_sulfone>  (32) 
0

>  <fr_term_acetylene>  (32) 
0

>  <fr_tetrazole>  (32) 
0

>  <fr_thiazole>  (32) 
0

>  <fr_thiocyan>  (32) 
0

>  <fr_thiophene>  (32) 
0

>  <fr_unbrch_alkane>  (32) 
0

>  <fr_urea>  (32) 
0

>  <NP_Likeness>  (32) 
-0.491267

$$$$
F189
     RDKit          3D

  0  0  0  0  0  0  0  0  0  0999 V3000
M  V30 BEGIN CTAB
M  V30 COUNTS 36 37 0 0 0
M  V30 BEGIN ATOM
M  V30 1 S -19.058000 -0.989000 0.729000 0
M  V30 2 O -17.831000 -0.384000 0.274000 0
M  V30 3 O -20.304000 -0.287000 0.551000 0
M  V30 4 O -19.876000 -3.651000 -2.702000 0
M  V30 5 O -23.098000 -2.819000 -0.024000 0
M  V30 6 O -20.601000 -5.156000 -0.252000 0
M  V30 7 N -19.410000 -2.346000 -0.182000 0
M  V30 8 C -18.616000 -2.944000 6.370000 0
M  V30 9 C -21.054000 -4.427000 -2.570000 0
M  V30 10 C -20.469000 -4.318000 0.904000 0
M  V30 11 C -17.721000 -1.907000 2.887000 0
M  V30 12 C -20.021000 -1.647000 3.176000 0
M  V30 13 C -17.616000 -2.350000 4.166000 0
M  V30 14 C -19.923000 -2.113000 4.438000 0
M  V30 15 C -18.927000 -1.562000 2.383000 0
M  V30 16 C -21.798000 -3.030000 -0.612000 0 CFG=2
M  V30 17 C -21.545000 -4.449000 -1.130000 0 CFG=2
M  V30 18 C -20.658000 -2.902000 0.401000 0 CFG=2
M  V30 19 C -18.719000 -2.464000 4.950000 0
M  V30 20 H -19.618800 -3.281000 -1.809300 0
M  V30 21 H -23.806100 -3.006000 -0.704900 0
M  V30 22 H -18.667100 -3.012400 -0.118000 0
M  V30 23 H -19.526600 -2.961100 6.783000 0
M  V30 24 H -18.226700 -3.865000 6.383100 0
M  V30 25 H -18.026200 -2.325300 6.889000 0
M  V30 26 H -20.861200 -5.363600 -2.862500 0
M  V30 27 H -21.767800 -4.036500 -3.151300 0
M  V30 28 H -19.562500 -4.425800 1.312100 0
M  V30 29 H -21.168700 -4.544500 1.581600 0
M  V30 30 H -16.903400 -1.835600 2.315700 0
M  V30 31 H -20.911600 -1.361100 2.822200 0
M  V30 32 H -16.718800 -2.594400 4.533900 0
M  V30 33 H -20.745500 -2.200000 5.000000 0
M  V30 34 H -21.658400 -2.374900 -1.354500 0
M  V30 35 H -22.413900 -4.943500 -1.108900 0
M  V30 36 H -20.954800 -2.320600 1.158600 0
M  V30 END ATOM
M  V30 BEGIN BOND
M  V30 1 2 1 2
M  V30 2 2 1 3
M  V30 3 1 1 7
M  V30 4 1 1 15
M  V30 5 1 4 9
M  V30 6 1 5 16
M  V30 7 1 6 10
M  V30 8 1 6 17
M  V30 9 1 7 18
M  V30 10 1 8 19
M  V30 11 1 9 17
M  V30 12 1 10 18
M  V30 13 2 11 13
M  V30 14 1 11 15
M  V30 15 1 12 14
M  V30 16 2 12 15
M  V30 17 1 13 19
M  V30 18 2 14 19
M  V30 19 1 16 17
M  V30 20 1 16 18
M  V30 21 1 4 20
M  V30 22 1 5 21
M  V30 23 1 7 22
M  V30 24 1 8 23
M  V30 25 1 8 24
M  V30 26 1 8 25
M  V30 27 1 9 26
M  V30 28 1 9 27
M  V30 29 1 10 28
M  V30 30 1 10 29
M  V30 31 1 11 30
M  V30 32 1 12 31
M  V30 33 1 13 32
M  V30 34 1 14 33
M  V30 35 1 16 34 CFG=3
M  V30 36 1 17 35 CFG=3
M  V30 37 1 18 36 CFG=1
M  V30 END BOND
M  V30 END CTAB
M  END
>  <Ligand_Instance>  (33) 
189_A_401

>  <Dataset>  (33) 
CF

>  <PDB_ID>  (33) 
None

>  <Chain>  (33) 
A

>  <Resi>  (33) 
401

>  <Num_Resolved_Atoms>  (33) 
19

>  <Num_H_Atoms_ProtBoundConf>  (33) 
17

>  <Pocket>  (33) 
E

>  <Name>  (33) 
N‐[(3R,4S,5R)‐4‐hydroxy‐5‐(hydroxymethyl)oxolan‐3‐yl]‐4‐methylbenzene‐1‐sulfonamide

>  <Num_Not_Resolved_Atoms>  (33) 
0

>  <ATP_Site>  (33) 
False

>  <Peripheral>  (33) 
True

>  <Standardized_SMILES>  (33) 
[H]OC([H])([H])[C@@]1([H])OC([H])([H])[C@@]([H])(N([H])S(=O)(=O)C2=C([H])C([H])=C(C([H])([H])[H])C([H])=C2[H])[C@]1([H])O[H]

>  <2D_Mol_H>  (33) 
<rdkit.Chem.rdchem.Mol object at 0x77059d9d8ba0>

>  <MW>  (33) 
287.337

>  <HBA>  (33) 
5

>  <HBD>  (33) 
3

>  <LogP>  (33) 
-0.60608

>  <NRB>  (33) 
7

>  <TPSA>  (33) 
95.86

>  <Num_Heavy_Atoms>  (33) 
19

>  <Ro5>  (33) 
[True, True, True, True, True, True]

>  <Ro5_Fulfilled>  (33) 
True

>  <Ro3>  (33) 
[True, False, True, True]

>  <Ro3_Fulfilled>  (33) 
True

>  <Fsp3>  (33) 
0.5

>  <Fsp3_0.42>  (33) 
True

>  <Fsp3_0.45>  (33) 
True

>  <Stereogenic_Carbons>  (33) 
3

>  <C_Atoms>  (33) 
12

>  <FCStereo>  (33) 
0.25

>  <SPS>  (33) 
525

>  <nSPS>  (33) 
27.631579

>  <PBF>  (33) 
0.938176

>  <PBF_0.6>  (33) 
True

>  <nPBF>  (33) 
0.049378

>  <nPBF_0.016>  (33) 
True

>  <PMI1>  (33) 
849.078409

>  <PMI2>  (33) 
2222.537587

>  <PMI3>  (33) 
2511.186066

>  <NPR1>  (33) 
0.338118

>  <NPR2>  (33) 
0.885055

>  <Sum_NPR>  (33) 
1.223173

>  <Sum_NPR_1.07>  (33) 
True

>  <Sum_NPR_1.2>  (33) 
True

>  <MaxAbsEStateIndex>  (33) 
12.099726

>  <MaxEStateIndex>  (33) 
12.099726

>  <MinAbsEStateIndex>  (33) 
0.039171

>  <MinEStateIndex>  (33) 
-3.696658

>  <qed>  (33) 
0.686669

>  <MolWt>  (33) 
287.337

>  <HeavyAtomMolWt>  (33) 
270.201

>  <ExactMolWt>  (33) 
287.082744

>  <NumValenceElectrons>  (33) 
106

>  <NumRadicalElectrons>  (33) 
0

>  <MaxPartialCharge>  (33) 
0.240487

>  <MinPartialCharge>  (33) 
-0.39357

>  <MaxAbsPartialCharge>  (33) 
0.39357

>  <MinAbsPartialCharge>  (33) 
0.240487

>  <FpDensityMorgan1>  (33) 
1.368421

>  <FpDensityMorgan2>  (33) 
2.0

>  <FpDensityMorgan3>  (33) 
2.526316

>  <BCUT2D_MWHI>  (33) 
32.233272

>  <BCUT2D_MWLOW>  (33) 
10.131554

>  <BCUT2D_CHGHI>  (33) 
2.37426

>  <BCUT2D_CHGLO>  (33) 
-2.16841

>  <BCUT2D_LOGPHI>  (33) 
2.171308

>  <BCUT2D_LOGPLOW>  (33) 
-2.443926

>  <BCUT2D_MRHI>  (33) 
7.891338

>  <BCUT2D_MRLOW>  (33) 
0.003111

>  <AvgIpc>  (33) 
2.7032

>  <BalabanJ>  (33) 
2.119022

>  <BertzCT>  (33) 
527.555654

>  <Chi0>  (33) 
14.043606

>  <Chi0n>  (33) 
10.483086

>  <Chi0v>  (33) 
11.299582

>  <Chi1>  (33) 
8.936689

>  <Chi1n>  (33) 
5.933591

>  <Chi1v>  (33) 
7.416755

>  <Chi2n>  (33) 
4.585785

>  <Chi2v>  (33) 
6.299766

>  <Chi3n>  (33) 
3.100784

>  <Chi3v>  (33) 
4.606603

>  <Chi4n>  (33) 
1.932732

>  <Chi4v>  (33) 
3.169238

>  <HallKierAlpha>  (33) 
-0.99

>  <Ipc>  (33) 
19938.803481

>  <Kappa1>  (33) 
14.419762

>  <Kappa2>  (33) 
5.557261

>  <Kappa3>  (33) 
3.126666

>  <LabuteASA>  (33) 
111.627875

>  <PEOE_VSA1>  (33) 
14.949918

>  <PEOE_VSA10>  (33) 
12.207933

>  <PEOE_VSA11>  (33) 
0.0

>  <PEOE_VSA12>  (33) 
10.023291

>  <PEOE_VSA13>  (33) 
0.0

>  <PEOE_VSA14>  (33) 
0.0

>  <PEOE_VSA2>  (33) 
0.0

>  <PEOE_VSA3>  (33) 
13.139892

>  <PEOE_VSA4>  (33) 
0.0

>  <PEOE_VSA5>  (33) 
0.0

>  <PEOE_VSA6>  (33) 
17.696186

>  <PEOE_VSA7>  (33) 
19.056471

>  <PEOE_VSA8>  (33) 
0.0

>  <PEOE_VSA9>  (33) 
24.151088

>  <SMR_VSA1>  (33) 
23.367715

>  <SMR_VSA10>  (33) 
10.023291

>  <SMR_VSA2>  (33) 
0.0

>  <SMR_VSA3>  (33) 
4.722095

>  <SMR_VSA4>  (33) 
0.0

>  <SMR_VSA5>  (33) 
30.068994

>  <SMR_VSA6>  (33) 
13.213764

>  <SMR_VSA7>  (33) 
29.82892

>  <SMR_VSA8>  (33) 
0.0

>  <SMR_VSA9>  (33) 
0.0

>  <SlogP_VSA1>  (33) 
4.722095

>  <SlogP_VSA10>  (33) 
0.0

>  <SlogP_VSA11>  (33) 
0.0

>  <SlogP_VSA12>  (33) 
0.0

>  <SlogP_VSA2>  (33) 
50.094389

>  <SlogP_VSA3>  (33) 
14.760154

>  <SlogP_VSA4>  (33) 
6.923737

>  <SlogP_VSA5>  (33) 
5.563451

>  <SlogP_VSA6>  (33) 
29.160952

>  <SlogP_VSA7>  (33) 
0.0

>  <SlogP_VSA8>  (33) 
0.0

>  <SlogP_VSA9>  (33) 
0.0

>  <EState_VSA1>  (33) 
28.273065

>  <EState_VSA10>  (33) 
13.524324

>  <EState_VSA11>  (33) 
0.0

>  <EState_VSA2>  (33) 
18.109247

>  <EState_VSA3>  (33) 
0.0

>  <EState_VSA4>  (33) 
5.563451

>  <EState_VSA5>  (33) 
12.132734

>  <EState_VSA6>  (33) 
12.132734

>  <EState_VSA7>  (33) 
6.923737

>  <EState_VSA8>  (33) 
4.722095

>  <EState_VSA9>  (33) 
9.84339

>  <VSA_EState1>  (33) 
31.691499

>  <VSA_EState10>  (33) 
0.0

>  <VSA_EState2>  (33) 
0.136804

>  <VSA_EState3>  (33) 
18.728995

>  <VSA_EState4>  (33) 
0.961601

>  <VSA_EState5>  (33) 
0.0

>  <VSA_EState6>  (33) 
5.662025

>  <VSA_EState7>  (33) 
-1.795425

>  <VSA_EState8>  (33) 
1.561159

>  <VSA_EState9>  (33) 
-3.696658

>  <FractionCSP3>  (33) 
0.5

>  <HeavyAtomCount>  (33) 
19

>  <NHOHCount>  (33) 
3

>  <NOCount>  (33) 
6

>  <NumAliphaticCarbocycles>  (33) 
0

>  <NumAliphaticHeterocycles>  (33) 
1

>  <NumAliphaticRings>  (33) 
1

>  <NumAromaticCarbocycles>  (33) 
1

>  <NumAromaticHeterocycles>  (33) 
0

>  <NumAromaticRings>  (33) 
1

>  <NumHAcceptors>  (33) 
5

>  <NumHDonors>  (33) 
3

>  <NumHeteroatoms>  (33) 
7

>  <NumRotatableBonds>  (33) 
4

>  <NumSaturatedCarbocycles>  (33) 
0

>  <NumSaturatedHeterocycles>  (33) 
1

>  <NumSaturatedRings>  (33) 
1

>  <RingCount>  (33) 
2

>  <MolLogP>  (33) 
-0.60608

>  <MolMR>  (33) 
68.1211

>  <fr_Al_COO>  (33) 
0

>  <fr_Al_OH>  (33) 
2

>  <fr_Al_OH_noTert>  (33) 
2

>  <fr_ArN>  (33) 
0

>  <fr_Ar_COO>  (33) 
0

>  <fr_Ar_N>  (33) 
0

>  <fr_Ar_NH>  (33) 
0

>  <fr_Ar_OH>  (33) 
0

>  <fr_COO>  (33) 
0

>  <fr_COO2>  (33) 
0

>  <fr_C_O>  (33) 
0

>  <fr_C_O_noCOO>  (33) 
0

>  <fr_C_S>  (33) 
0

>  <fr_HOCCN>  (33) 
0

>  <fr_Imine>  (33) 
0

>  <fr_NH0>  (33) 
0

>  <fr_NH1>  (33) 
1

>  <fr_NH2>  (33) 
0

>  <fr_N_O>  (33) 
0

>  <fr_Ndealkylation1>  (33) 
0

>  <fr_Ndealkylation2>  (33) 
0

>  <fr_Nhpyrrole>  (33) 
0

>  <fr_SH>  (33) 
0

>  <fr_aldehyde>  (33) 
0

>  <fr_alkyl_carbamate>  (33) 
0

>  <fr_alkyl_halide>  (33) 
0

>  <fr_allylic_oxid>  (33) 
0

>  <fr_amide>  (33) 
0

>  <fr_amidine>  (33) 
0

>  <fr_aniline>  (33) 
0

>  <fr_aryl_methyl>  (33) 
1

>  <fr_azide>  (33) 
0

>  <fr_azo>  (33) 
0

>  <fr_barbitur>  (33) 
0

>  <fr_benzene>  (33) 
1

>  <fr_benzodiazepine>  (33) 
0

>  <fr_bicyclic>  (33) 
0

>  <fr_diazo>  (33) 
0

>  <fr_dihydropyridine>  (33) 
0

>  <fr_epoxide>  (33) 
0

>  <fr_ester>  (33) 
0

>  <fr_ether>  (33) 
1

>  <fr_furan>  (33) 
0

>  <fr_guanido>  (33) 
0

>  <fr_halogen>  (33) 
0

>  <fr_hdrzine>  (33) 
0

>  <fr_hdrzone>  (33) 
0

>  <fr_imidazole>  (33) 
0

>  <fr_imide>  (33) 
0

>  <fr_isocyan>  (33) 
0

>  <fr_isothiocyan>  (33) 
0

>  <fr_ketone>  (33) 
0

>  <fr_ketone_Topliss>  (33) 
0

>  <fr_lactam>  (33) 
0

>  <fr_lactone>  (33) 
0

>  <fr_methoxy>  (33) 
0

>  <fr_morpholine>  (33) 
0

>  <fr_nitrile>  (33) 
0

>  <fr_nitro>  (33) 
0

>  <fr_nitro_arom>  (33) 
0

>  <fr_nitro_arom_nonortho>  (33) 
0

>  <fr_nitroso>  (33) 
0

>  <fr_oxazole>  (33) 
0

>  <fr_oxime>  (33) 
0

>  <fr_para_hydroxylation>  (33) 
0

>  <fr_phenol>  (33) 
0

>  <fr_phenol_noOrthoHbond>  (33) 
0

>  <fr_phos_acid>  (33) 
0

>  <fr_phos_ester>  (33) 
0

>  <fr_piperdine>  (33) 
0

>  <fr_piperzine>  (33) 
0

>  <fr_priamide>  (33) 
0

>  <fr_prisulfonamd>  (33) 
0

>  <fr_pyridine>  (33) 
0

>  <fr_quatN>  (33) 
0

>  <fr_sulfide>  (33) 
0

>  <fr_sulfonamd>  (33) 
1

>  <fr_sulfone>  (33) 
0

>  <fr_term_acetylene>  (33) 
0

>  <fr_tetrazole>  (33) 
0

>  <fr_thiazole>  (33) 
0

>  <fr_thiocyan>  (33) 
0

>  <fr_thiophene>  (33) 
0

>  <fr_unbrch_alkane>  (33) 
0

>  <fr_urea>  (33) 
0

>  <NP_Likeness>  (33) 
-0.264733

$$$$
F203
     RDKit          3D

  0  0  0  0  0  0  0  0  0  0999 V3000
M  V30 BEGIN CTAB
M  V30 COUNTS 34 35 0 0 0
M  V30 BEGIN ATOM
M  V30 1 F -16.532000 2.105000 -20.364000 0
M  V30 2 O -11.652000 5.959000 -19.436000 0
M  V30 3 O -7.360000 6.810000 -16.801000 0
M  V30 4 O -8.758000 3.631000 -16.411000 0
M  V30 5 N -5.677000 3.656000 -16.650000 0 CHG=1
M  V30 6 N -10.598000 4.034000 -18.851000 0
M  V30 7 C -7.824000 3.904000 -15.353000 0
M  V30 8 C -9.282000 4.666000 -18.649000 0
M  V30 9 C -15.357000 4.126000 -20.036000 0
M  V30 10 C -14.281000 2.026000 -19.833000 0
M  V30 11 C -14.169000 4.773000 -19.757000 0
M  V30 12 C -13.099000 2.664000 -19.560000 0
M  V30 13 C -15.386000 2.765000 -20.078000 0
M  V30 14 C -11.722000 4.758000 -19.249000 0
M  V30 15 C -7.368000 5.431000 -17.143000 0 CFG=2
M  V30 16 C -8.783000 4.854000 -17.214000 0 CFG=2
M  V30 17 C -6.669000 4.570000 -16.077000 0 CFG=2
M  V30 18 C -13.027000 4.037000 -19.518000 0
M  V30 19 H -6.927700 7.333100 -17.535500 0
M  V30 20 H -4.959500 4.184600 -17.103600 0
M  V30 21 H -5.273400 3.102800 -15.921300 0
M  V30 22 H -10.688500 3.050100 -18.697100 0
M  V30 23 H -7.528900 3.058700 -14.907600 0
M  V30 24 H -8.222600 4.518100 -14.671800 0
M  V30 25 H -9.320100 5.571900 -19.070800 0
M  V30 26 H -8.606700 4.104100 -19.126600 0
M  V30 27 H -16.189700 4.653000 -20.205900 0
M  V30 28 H -14.325300 1.027100 -19.850700 0
M  V30 29 H -14.136800 5.772100 -19.728300 0
M  V30 30 H -12.275800 2.122700 -19.388600 0
M  V30 31 H -6.912500 5.304200 -18.024100 0
M  V30 32 H -9.397100 5.500900 -16.761900 0
M  V30 33 H -6.203300 5.179100 -15.435000 0
M  V30 34 H -6.121300 3.056900 -17.316100 0
M  V30 END ATOM
M  V30 BEGIN BOND
M  V30 1 1 1 13
M  V30 2 2 2 14
M  V30 3 1 3 15
M  V30 4 1 4 7
M  V30 5 1 4 16
M  V30 6 1 5 17
M  V30 7 1 6 8
M  V30 8 1 6 14
M  V30 9 1 7 17
M  V30 10 1 8 16
M  V30 11 2 9 11
M  V30 12 1 9 13
M  V30 13 1 10 12
M  V30 14 2 10 13
M  V30 15 1 11 18
M  V30 16 2 12 18
M  V30 17 1 14 18
M  V30 18 1 15 16
M  V30 19 1 15 17
M  V30 20 1 3 19
M  V30 21 1 5 20
M  V30 22 1 5 21
M  V30 23 1 6 22
M  V30 24 1 7 23
M  V30 25 1 7 24
M  V30 26 1 8 25
M  V30 27 1 8 26
M  V30 28 1 9 27
M  V30 29 1 10 28
M  V30 30 1 11 29
M  V30 31 1 12 30
M  V30 32 1 15 31 CFG=3
M  V30 33 1 16 32 CFG=1
M  V30 34 1 17 33 CFG=1
M  V30 35 1 5 34
M  V30 END BOND
M  V30 END CTAB
M  END
>  <Ligand_Instance>  (34) 
203_B_1

>  <Dataset>  (34) 
CF

>  <PDB_ID>  (34) 
None

>  <Chain>  (34) 
B

>  <Resi>  (34) 
1

>  <Num_Resolved_Atoms>  (34) 
18

>  <Num_H_Atoms_ProtBoundConf>  (34) 
16

>  <Pocket>  (34) 
A

>  <Name>  (34) 
N‐{[(2R,3S,4R)‐4‐amino‐3‐hydroxyoxolan‐2‐yl]methyl}‐4‐fluorobenzamide

>  <Num_Not_Resolved_Atoms>  (34) 
0

>  <ATP_Site>  (34) 
True

>  <Peripheral>  (34) 
False

>  <Standardized_SMILES>  (34) 
[H]O[C@]1([H])[C@@]([H])(C([H])([H])N([H])C(=O)C2=C([H])C([H])=C(F)C([H])=C2[H])OC([H])([H])[C@@]1([H])[N+]([H])([H])[H]

>  <2D_Mol_H>  (34) 
<rdkit.Chem.rdchem.Mol object at 0x77059d9d8c80>

>  <MW>  (34) 
255.269

>  <HBA>  (34) 
3

>  <HBD>  (34) 
3

>  <LogP>  (34) 
-1.0743

>  <NRB>  (34) 
5

>  <TPSA>  (34) 
86.2

>  <Num_Heavy_Atoms>  (34) 
18

>  <Ro5>  (34) 
[True, True, True, True, True, True]

>  <Ro5_Fulfilled>  (34) 
True

>  <Ro3>  (34) 
[True, True, True, True]

>  <Ro3_Fulfilled>  (34) 
True

>  <Fsp3>  (34) 
0.416667

>  <Fsp3_0.42>  (34) 
False

>  <Fsp3_0.45>  (34) 
False

>  <Stereogenic_Carbons>  (34) 
3

>  <C_Atoms>  (34) 
12

>  <FCStereo>  (34) 
0.25

>  <SPS>  (34) 
489

>  <nSPS>  (34) 
27.166667

>  <PBF>  (34) 
0.681335

>  <PBF_0.6>  (34) 
True

>  <nPBF>  (34) 
0.037852

>  <nPBF_0.016>  (34) 
True

>  <PMI1>  (34) 
418.347661

>  <PMI2>  (34) 
3689.359066

>  <PMI3>  (34) 
3939.182563

>  <NPR1>  (34) 
0.106202

>  <NPR2>  (34) 
0.93658

>  <Sum_NPR>  (34) 
1.042782

>  <Sum_NPR_1.07>  (34) 
False

>  <Sum_NPR_1.2>  (34) 
False

>  <MaxAbsEStateIndex>  (34) 
12.684179

>  <MaxEStateIndex>  (34) 
12.684179

>  <MinAbsEStateIndex>  (34) 
0.168775

>  <MinEStateIndex>  (34) 
-0.668039

>  <qed>  (34) 
0.642291

>  <MolWt>  (34) 
255.269

>  <HeavyAtomMolWt>  (34) 
239.141

>  <ExactMolWt>  (34) 
255.113947

>  <NumValenceElectrons>  (34) 
98

>  <NumRadicalElectrons>  (34) 
0

>  <MaxPartialCharge>  (34) 
0.250874

>  <MinPartialCharge>  (34) 
-0.384007

>  <MaxAbsPartialCharge>  (34) 
0.384007

>  <MinAbsPartialCharge>  (34) 
0.250874

>  <FpDensityMorgan1>  (34) 
1.5

>  <FpDensityMorgan2>  (34) 
2.166667

>  <FpDensityMorgan3>  (34) 
2.722222

>  <BCUT2D_MWHI>  (34) 
19.142142

>  <BCUT2D_MWLOW>  (34) 
10.110611

>  <BCUT2D_CHGHI>  (34) 
2.356647

>  <BCUT2D_CHGLO>  (34) 
-2.141126

>  <BCUT2D_LOGPHI>  (34) 
2.105513

>  <BCUT2D_LOGPLOW>  (34) 
-2.666808

>  <BCUT2D_MRHI>  (34) 
5.936124

>  <BCUT2D_MRLOW>  (34) 
-0.429813

>  <AvgIpc>  (34) 
2.679462

>  <BalabanJ>  (34) 
1.868504

>  <BertzCT>  (34) 
423.835629

>  <Chi0>  (34) 
13.120956

>  <Chi0n>  (34) 
9.804447

>  <Chi0v>  (34) 
9.804447

>  <Chi1>  (34) 
8.575387

>  <Chi1n>  (34) 
5.742015

>  <Chi1v>  (34) 
5.742015

>  <Chi2n>  (34) 
4.339375

>  <Chi2v>  (34) 
4.339375

>  <Chi3n>  (34) 
2.958493

>  <Chi3v>  (34) 
2.958493

>  <Chi4n>  (34) 
1.824219

>  <Chi4v>  (34) 
1.824219

>  <HallKierAlpha>  (34) 
-1.5

>  <Ipc>  (34) 
14511.964019

>  <Kappa1>  (34) 
12.944082

>  <Kappa2>  (34) 
5.429196

>  <Kappa3>  (34) 
2.840769

>  <LabuteASA>  (34) 
103.739814

>  <PEOE_VSA1>  (34) 
20.893846

>  <PEOE_VSA10>  (34) 
30.673876

>  <PEOE_VSA11>  (34) 
0.0

>  <PEOE_VSA12>  (34) 
0.0

>  <PEOE_VSA13>  (34) 
5.90718

>  <PEOE_VSA14>  (34) 
0.0

>  <PEOE_VSA2>  (34) 
4.794537

>  <PEOE_VSA3>  (34) 
4.390415

>  <PEOE_VSA4>  (34) 
0.0

>  <PEOE_VSA5>  (34) 
0.0

>  <PEOE_VSA6>  (34) 
0.0

>  <PEOE_VSA7>  (34) 
24.265468

>  <PEOE_VSA8>  (34) 
12.108208

>  <PEOE_VSA9>  (34) 
0.0

>  <SMR_VSA1>  (34) 
24.76201

>  <SMR_VSA10>  (34) 
5.90718

>  <SMR_VSA2>  (34) 
0.0

>  <SMR_VSA3>  (34) 
5.316789

>  <SMR_VSA4>  (34) 
0.0

>  <SMR_VSA5>  (34) 
18.249774

>  <SMR_VSA6>  (34) 
13.151638

>  <SMR_VSA7>  (34) 
35.646141

>  <SMR_VSA8>  (34) 
0.0

>  <SMR_VSA9>  (34) 
0.0

>  <SlogP_VSA1>  (34) 
11.050456

>  <SlogP_VSA10>  (34) 
4.390415

>  <SlogP_VSA11>  (34) 
0.0

>  <SlogP_VSA12>  (34) 
0.0

>  <SlogP_VSA2>  (34) 
42.415119

>  <SlogP_VSA3>  (34) 
4.736863

>  <SlogP_VSA4>  (34) 
5.817221

>  <SlogP_VSA5>  (34) 
10.357989

>  <SlogP_VSA6>  (34) 
24.265468

>  <SlogP_VSA7>  (34) 
0.0

>  <SlogP_VSA8>  (34) 
0.0

>  <SlogP_VSA9>  (34) 
0.0

>  <EState_VSA1>  (34) 
12.207933

>  <EState_VSA10>  (34) 
14.29148

>  <EState_VSA11>  (34) 
0.0

>  <EState_VSA2>  (34) 
24.310998

>  <EState_VSA3>  (34) 
12.170333

>  <EState_VSA4>  (34) 
0.0

>  <EState_VSA5>  (34) 
24.265468

>  <EState_VSA6>  (34) 
0.0

>  <EState_VSA7>  (34) 
0.0

>  <EState_VSA8>  (34) 
11.050456

>  <EState_VSA9>  (34) 
4.736863

>  <VSA_EState1>  (34) 
17.97982

>  <VSA_EState10>  (34) 
0.0

>  <VSA_EState2>  (34) 
11.714512

>  <VSA_EState3>  (34) 
12.326074

>  <VSA_EState4>  (34) 
4.104783

>  <VSA_EState5>  (34) 
-0.708972

>  <VSA_EState6>  (34) 
5.086393

>  <VSA_EState7>  (34) 
-1.101467

>  <VSA_EState8>  (34) 
0.598858

>  <VSA_EState9>  (34) 
0.0

>  <FractionCSP3>  (34) 
0.416667

>  <HeavyAtomCount>  (34) 
18

>  <NHOHCount>  (34) 
5

>  <NOCount>  (34) 
5

>  <NumAliphaticCarbocycles>  (34) 
0

>  <NumAliphaticHeterocycles>  (34) 
1

>  <NumAliphaticRings>  (34) 
1

>  <NumAromaticCarbocycles>  (34) 
1

>  <NumAromaticHeterocycles>  (34) 
0

>  <NumAromaticRings>  (34) 
1

>  <NumHAcceptors>  (34) 
3

>  <NumHDonors>  (34) 
3

>  <NumHeteroatoms>  (34) 
6

>  <NumRotatableBonds>  (34) 
3

>  <NumSaturatedCarbocycles>  (34) 
0

>  <NumSaturatedHeterocycles>  (34) 
1

>  <NumSaturatedRings>  (34) 
1

>  <RingCount>  (34) 
2

>  <MolLogP>  (34) 
-1.0743

>  <MolMR>  (34) 
61.1561

>  <fr_Al_COO>  (34) 
0

>  <fr_Al_OH>  (34) 
1

>  <fr_Al_OH_noTert>  (34) 
1

>  <fr_ArN>  (34) 
0

>  <fr_Ar_COO>  (34) 
0

>  <fr_Ar_N>  (34) 
0

>  <fr_Ar_NH>  (34) 
0

>  <fr_Ar_OH>  (34) 
0

>  <fr_COO>  (34) 
0

>  <fr_COO2>  (34) 
0

>  <fr_C_O>  (34) 
1

>  <fr_C_O_noCOO>  (34) 
1

>  <fr_C_S>  (34) 
0

>  <fr_HOCCN>  (34) 
0

>  <fr_Imine>  (34) 
0

>  <fr_NH0>  (34) 
0

>  <fr_NH1>  (34) 
1

>  <fr_NH2>  (34) 
0

>  <fr_N_O>  (34) 
0

>  <fr_Ndealkylation1>  (34) 
0

>  <fr_Ndealkylation2>  (34) 
0

>  <fr_Nhpyrrole>  (34) 
0

>  <fr_SH>  (34) 
0

>  <fr_aldehyde>  (34) 
0

>  <fr_alkyl_carbamate>  (34) 
0

>  <fr_alkyl_halide>  (34) 
0

>  <fr_allylic_oxid>  (34) 
0

>  <fr_amide>  (34) 
1

>  <fr_amidine>  (34) 
0

>  <fr_aniline>  (34) 
0

>  <fr_aryl_methyl>  (34) 
0

>  <fr_azide>  (34) 
0

>  <fr_azo>  (34) 
0

>  <fr_barbitur>  (34) 
0

>  <fr_benzene>  (34) 
1

>  <fr_benzodiazepine>  (34) 
0

>  <fr_bicyclic>  (34) 
0

>  <fr_diazo>  (34) 
0

>  <fr_dihydropyridine>  (34) 
0

>  <fr_epoxide>  (34) 
0

>  <fr_ester>  (34) 
0

>  <fr_ether>  (34) 
1

>  <fr_furan>  (34) 
0

>  <fr_guanido>  (34) 
0

>  <fr_halogen>  (34) 
1

>  <fr_hdrzine>  (34) 
0

>  <fr_hdrzone>  (34) 
0

>  <fr_imidazole>  (34) 
0

>  <fr_imide>  (34) 
0

>  <fr_isocyan>  (34) 
0

>  <fr_isothiocyan>  (34) 
0

>  <fr_ketone>  (34) 
0

>  <fr_ketone_Topliss>  (34) 
0

>  <fr_lactam>  (34) 
0

>  <fr_lactone>  (34) 
0

>  <fr_methoxy>  (34) 
0

>  <fr_morpholine>  (34) 
0

>  <fr_nitrile>  (34) 
0

>  <fr_nitro>  (34) 
0

>  <fr_nitro_arom>  (34) 
0

>  <fr_nitro_arom_nonortho>  (34) 
0

>  <fr_nitroso>  (34) 
0

>  <fr_oxazole>  (34) 
0

>  <fr_oxime>  (34) 
0

>  <fr_para_hydroxylation>  (34) 
0

>  <fr_phenol>  (34) 
0

>  <fr_phenol_noOrthoHbond>  (34) 
0

>  <fr_phos_acid>  (34) 
0

>  <fr_phos_ester>  (34) 
0

>  <fr_piperdine>  (34) 
0

>  <fr_piperzine>  (34) 
0

>  <fr_priamide>  (34) 
0

>  <fr_prisulfonamd>  (34) 
0

>  <fr_pyridine>  (34) 
0

>  <fr_quatN>  (34) 
1

>  <fr_sulfide>  (34) 
0

>  <fr_sulfonamd>  (34) 
0

>  <fr_sulfone>  (34) 
0

>  <fr_term_acetylene>  (34) 
0

>  <fr_tetrazole>  (34) 
0

>  <fr_thiazole>  (34) 
0

>  <fr_thiocyan>  (34) 
0

>  <fr_thiophene>  (34) 
0

>  <fr_unbrch_alkane>  (34) 
0

>  <fr_urea>  (34) 
0

>  <NP_Likeness>  (34) 
-0.434845

$$$$
F225
     RDKit          3D

  0  0  0  0  0  0  0  0  0  0999 V3000
M  V30 BEGIN CTAB
M  V30 COUNTS 36 37 0 0 0
M  V30 BEGIN ATOM
M  V30 1 O -14.303000 5.600000 -29.644000 0
M  V30 2 O -17.841000 6.087000 -34.266000 0
M  V30 3 O -17.377000 3.674000 -32.347000 0
M  V30 4 N -19.758000 5.107000 -31.281000 0 CHG=1
M  V30 5 N -15.773000 3.871000 -29.940000 0
M  V30 6 N -13.546000 3.421000 -29.489000 0
M  V30 7 C -18.140000 3.844000 -33.550000 0
M  V30 8 C -16.970000 4.723000 -30.160000 0
M  V30 9 C -9.474000 3.697000 -28.514000 0
M  V30 10 C -10.185000 4.833000 -28.860000 0
M  V30 11 C -10.102000 2.477000 -28.536000 0
M  V30 12 C -11.528000 4.767000 -29.188000 0
M  V30 13 C -11.427000 2.406000 -28.874000 0
M  V30 14 C -14.509000 4.384000 -29.664000 0
M  V30 15 C -18.698000 5.236000 -33.484000 0 CFG=1
M  V30 16 C -17.252000 4.966000 -31.649000 0 CFG=2
M  V30 17 C -18.596000 5.606000 -31.995000 0 CFG=2
M  V30 18 C -12.178000 3.540000 -29.192000 0
M  V30 19 H -18.377900 6.838100 -34.650300 0
M  V30 20 H -19.685200 5.351000 -30.314000 0
M  V30 21 H -20.586100 5.514300 -31.666100 0
M  V30 22 H -13.871800 2.480900 -29.589400 0
M  V30 23 H -18.880500 3.173100 -33.590900 0
M  V30 24 H -17.552600 3.741600 -34.352800 0
M  V30 25 H -16.822200 5.605400 -29.713300 0
M  V30 26 H -17.764100 4.272000 -29.752500 0
M  V30 27 H -8.511700 3.764600 -28.250500 0
M  V30 28 H -9.719600 5.718000 -28.873200 0
M  V30 29 H -9.595500 1.645700 -28.306800 0
M  V30 30 H -12.028800 5.600500 -29.421400 0
M  V30 31 H -11.872600 1.511000 -28.893900 0
M  V30 32 H -19.643700 5.269000 -33.807400 0
M  V30 33 H -16.508400 5.499100 -32.052600 0
M  V30 34 H -18.535700 6.599100 -31.894600 0
M  V30 35 H -19.802800 4.112100 -31.371300 0
M  V30 36 H -15.051500 6.237000 -29.828200 0
M  V30 END ATOM
M  V30 BEGIN BOND
M  V30 1 1 1 14
M  V30 2 1 2 15
M  V30 3 1 3 7
M  V30 4 1 3 16
M  V30 5 1 4 17
M  V30 6 1 5 8
M  V30 7 2 5 14
M  V30 8 1 6 14
M  V30 9 1 6 18
M  V30 10 1 7 15
M  V30 11 1 8 16
M  V30 12 2 9 10
M  V30 13 1 9 11
M  V30 14 1 10 12
M  V30 15 2 11 13
M  V30 16 2 12 18
M  V30 17 1 13 18
M  V30 18 1 15 17
M  V30 19 1 16 17
M  V30 20 1 2 19
M  V30 21 1 4 20
M  V30 22 1 4 21
M  V30 23 1 1 36
M  V30 24 1 6 22
M  V30 25 1 7 23
M  V30 26 1 7 24
M  V30 27 1 8 25
M  V30 28 1 8 26
M  V30 29 1 9 27
M  V30 30 1 10 28
M  V30 31 1 11 29
M  V30 32 1 12 30
M  V30 33 1 13 31
M  V30 34 1 15 32 CFG=3
M  V30 35 1 16 33 CFG=3
M  V30 36 1 17 34 CFG=3
M  V30 37 1 4 35
M  V30 END BOND
M  V30 END CTAB
M  END
>  <Ligand_Instance>  (35) 
225_L_401

>  <Dataset>  (35) 
CF

>  <PDB_ID>  (35) 
None

>  <Chain>  (35) 
L

>  <Resi>  (35) 
401

>  <Num_Resolved_Atoms>  (35) 
18

>  <Num_H_Atoms_ProtBoundConf>  (35) 
18

>  <Pocket>  (35) 
A

>  <Name>  (35) 
3‐{[(2R,3R,4R)‐3‐amino‐4‐hydroxyoxolan‐2‐yl]methyl}‐1‐phenylurea

>  <Num_Not_Resolved_Atoms>  (35) 
0

>  <ATP_Site>  (35) 
True

>  <Peripheral>  (35) 
True

>  <Standardized_SMILES>  (35) 
[H]O/C(=N\C([H])([H])[C@@]1([H])OC([H])([H])[C@]([H])(O[H])[C@@]1([H])[N+]([H])([H])[H])N([H])C1=C([H])C([H])=C([H])C([H])=C1[H]

>  <2D_Mol_H>  (35) 
<rdkit.Chem.rdchem.Mol object at 0x77059d9d8d60>

>  <MW>  (35) 
252.294

>  <HBA>  (35) 
4

>  <HBD>  (35) 
4

>  <LogP>  (35) 
-0.6173

>  <NRB>  (35) 
5

>  <TPSA>  (35) 
101.72

>  <Num_Heavy_Atoms>  (35) 
18

>  <Ro5>  (35) 
[True, True, True, True, True, True]

>  <Ro5_Fulfilled>  (35) 
True

>  <Ro3>  (35) 
[True, False, False, True]

>  <Ro3_Fulfilled>  (35) 
False

>  <Fsp3>  (35) 
0.416667

>  <Fsp3_0.42>  (35) 
False

>  <Fsp3_0.45>  (35) 
False

>  <Stereogenic_Carbons>  (35) 
3

>  <C_Atoms>  (35) 
12

>  <FCStereo>  (35) 
0.25

>  <SPS>  (35) 
510

>  <nSPS>  (35) 
28.333333

>  <PBF>  (35) 
0.853794

>  <PBF_0.6>  (35) 
True

>  <nPBF>  (35) 
0.047433

>  <nPBF_0.016>  (35) 
True

>  <PMI1>  (35) 
418.384721

>  <PMI2>  (35) 
3668.056691

>  <PMI3>  (35) 
3690.573028

>  <NPR1>  (35) 
0.113366

>  <NPR2>  (35) 
0.993899

>  <Sum_NPR>  (35) 
1.107265

>  <Sum_NPR_1.07>  (35) 
True

>  <Sum_NPR_1.2>  (35) 
False

>  <MaxAbsEStateIndex>  (35) 
9.615534

>  <MaxEStateIndex>  (35) 
9.615534

>  <MinAbsEStateIndex>  (35) 
0.168158

>  <MinEStateIndex>  (35) 
-0.546828

>  <qed>  (35) 
0.425238

>  <MolWt>  (35) 
252.294

>  <HeavyAtomMolWt>  (35) 
234.15

>  <ExactMolWt>  (35) 
252.134268

>  <NumValenceElectrons>  (35) 
98

>  <NumRadicalElectrons>  (35) 
0

>  <MaxPartialCharge>  (35) 
0.286259

>  <MinPartialCharge>  (35) 
-0.480614

>  <MaxAbsPartialCharge>  (35) 
0.480614

>  <MinAbsPartialCharge>  (35) 
0.286259

>  <FpDensityMorgan1>  (35) 
1.444444

>  <FpDensityMorgan2>  (35) 
2.166667

>  <FpDensityMorgan3>  (35) 
2.777778

>  <BCUT2D_MWHI>  (35) 
16.511555

>  <BCUT2D_MWLOW>  (35) 
10.113829

>  <BCUT2D_CHGHI>  (35) 
2.357582

>  <BCUT2D_CHGLO>  (35) 
-2.102818

>  <BCUT2D_LOGPHI>  (35) 
2.110347

>  <BCUT2D_LOGPLOW>  (35) 
-2.690764

>  <BCUT2D_MRHI>  (35) 
5.866696

>  <BCUT2D_MRLOW>  (35) 
-0.438443

>  <AvgIpc>  (35) 
2.68777

>  <BalabanJ>  (35) 
1.859741

>  <BertzCT>  (35) 
410.288479

>  <Chi0>  (35) 
12.957819

>  <Chi0n>  (35) 
9.990012

>  <Chi0v>  (35) 
9.990012

>  <Chi1>  (35) 
8.664704

>  <Chi1n>  (35) 
5.848113

>  <Chi1v>  (35) 
5.848113

>  <Chi2n>  (35) 
4.258308

>  <Chi2v>  (35) 
4.258308

>  <Chi3n>  (35) 
2.903758

>  <Chi3v>  (35) 
2.903758

>  <Chi4n>  (35) 
1.771808

>  <Chi4v>  (35) 
1.771808

>  <HallKierAlpha>  (35) 
-1.63

>  <Ipc>  (35) 
15933.101944

>  <Kappa1>  (35) 
12.817307

>  <Kappa2>  (35) 
5.811256

>  <Kappa3>  (35) 
3.191545

>  <LabuteASA>  (35) 
105.102313

>  <PEOE_VSA1>  (35) 
26.000374

>  <PEOE_VSA10>  (35) 
18.249774

>  <PEOE_VSA11>  (35) 
0.0

>  <PEOE_VSA12>  (35) 
0.0

>  <PEOE_VSA13>  (35) 
6.02168

>  <PEOE_VSA14>  (35) 
0.0

>  <PEOE_VSA2>  (35) 
0.0

>  <PEOE_VSA3>  (35) 
4.992405

>  <PEOE_VSA4>  (35) 
0.0

>  <PEOE_VSA5>  (35) 
0.0

>  <PEOE_VSA6>  (35) 
18.199101

>  <PEOE_VSA7>  (35) 
12.132734

>  <PEOE_VSA8>  (35) 
5.687386

>  <PEOE_VSA9>  (35) 
13.151638

>  <SMR_VSA1>  (35) 
20.683585

>  <SMR_VSA10>  (35) 
11.709066

>  <SMR_VSA2>  (35) 
0.0

>  <SMR_VSA3>  (35) 
0.0

>  <SMR_VSA4>  (35) 
4.992405

>  <SMR_VSA5>  (35) 
18.249774

>  <SMR_VSA6>  (35) 
18.468427

>  <SMR_VSA7>  (35) 
30.331835

>  <SMR_VSA8>  (35) 
0.0

>  <SMR_VSA9>  (35) 
0.0

>  <SlogP_VSA1>  (35) 
11.050456

>  <SlogP_VSA10>  (35) 
5.687386

>  <SlogP_VSA11>  (35) 
0.0

>  <SlogP_VSA12>  (35) 
0.0

>  <SlogP_VSA2>  (35) 
47.636147

>  <SlogP_VSA3>  (35) 
4.736863

>  <SlogP_VSA4>  (35) 
0.0

>  <SlogP_VSA5>  (35) 
0.0

>  <SlogP_VSA6>  (35) 
35.32424

>  <SlogP_VSA7>  (35) 
0.0

>  <SlogP_VSA8>  (35) 
0.0

>  <SlogP_VSA9>  (35) 
0.0

>  <EState_VSA1>  (35) 
6.103966

>  <EState_VSA10>  (35) 
10.213055

>  <EState_VSA11>  (35) 
0.0

>  <EState_VSA2>  (35) 
31.319126

>  <EState_VSA3>  (35) 
0.0

>  <EState_VSA4>  (35) 
5.687386

>  <EState_VSA5>  (35) 
0.0

>  <EState_VSA6>  (35) 
0.0

>  <EState_VSA7>  (35) 
30.331835

>  <EState_VSA8>  (35) 
16.042861

>  <EState_VSA9>  (35) 
4.736863

>  <VSA_EState1>  (35) 
5.319614

>  <VSA_EState10>  (35) 
0.0

>  <VSA_EState2>  (35) 
3.971288

>  <VSA_EState3>  (35) 
21.828939

>  <VSA_EState4>  (35) 
4.57698

>  <VSA_EState5>  (35) 
0.0

>  <VSA_EState6>  (35) 
8.879904

>  <VSA_EState7>  (35) 
-0.797085

>  <VSA_EState8>  (35) 
0.553693

>  <VSA_EState9>  (35) 
0.0

>  <FractionCSP3>  (35) 
0.416667

>  <HeavyAtomCount>  (35) 
18

>  <NHOHCount>  (35) 
6

>  <NOCount>  (35) 
6

>  <NumAliphaticCarbocycles>  (35) 
0

>  <NumAliphaticHeterocycles>  (35) 
1

>  <NumAliphaticRings>  (35) 
1

>  <NumAromaticCarbocycles>  (35) 
1

>  <NumAromaticHeterocycles>  (35) 
0

>  <NumAromaticRings>  (35) 
1

>  <NumHAcceptors>  (35) 
3

>  <NumHDonors>  (35) 
4

>  <NumHeteroatoms>  (35) 
6

>  <NumRotatableBonds>  (35) 
3

>  <NumSaturatedCarbocycles>  (35) 
0

>  <NumSaturatedHeterocycles>  (35) 
1

>  <NumSaturatedRings>  (35) 
1

>  <RingCount>  (35) 
2

>  <MolLogP>  (35) 
-0.6173

>  <MolMR>  (35) 
67.4184

>  <fr_Al_COO>  (35) 
0

>  <fr_Al_OH>  (35) 
2

>  <fr_Al_OH_noTert>  (35) 
2

>  <fr_ArN>  (35) 
0

>  <fr_Ar_COO>  (35) 
0

>  <fr_Ar_N>  (35) 
0

>  <fr_Ar_NH>  (35) 
0

>  <fr_Ar_OH>  (35) 
0

>  <fr_COO>  (35) 
0

>  <fr_COO2>  (35) 
0

>  <fr_C_O>  (35) 
0

>  <fr_C_O_noCOO>  (35) 
0

>  <fr_C_S>  (35) 
0

>  <fr_HOCCN>  (35) 
0

>  <fr_Imine>  (35) 
1

>  <fr_NH0>  (35) 
1

>  <fr_NH1>  (35) 
1

>  <fr_NH2>  (35) 
0

>  <fr_N_O>  (35) 
0

>  <fr_Ndealkylation1>  (35) 
0

>  <fr_Ndealkylation2>  (35) 
0

>  <fr_Nhpyrrole>  (35) 
0

>  <fr_SH>  (35) 
0

>  <fr_aldehyde>  (35) 
0

>  <fr_alkyl_carbamate>  (35) 
0

>  <fr_alkyl_halide>  (35) 
0

>  <fr_allylic_oxid>  (35) 
0

>  <fr_amide>  (35) 
0

>  <fr_amidine>  (35) 
1

>  <fr_aniline>  (35) 
1

>  <fr_aryl_methyl>  (35) 
0

>  <fr_azide>  (35) 
0

>  <fr_azo>  (35) 
0

>  <fr_barbitur>  (35) 
0

>  <fr_benzene>  (35) 
1

>  <fr_benzodiazepine>  (35) 
0

>  <fr_bicyclic>  (35) 
0

>  <fr_diazo>  (35) 
0

>  <fr_dihydropyridine>  (35) 
0

>  <fr_epoxide>  (35) 
0

>  <fr_ester>  (35) 
0

>  <fr_ether>  (35) 
1

>  <fr_furan>  (35) 
0

>  <fr_guanido>  (35) 
0

>  <fr_halogen>  (35) 
0

>  <fr_hdrzine>  (35) 
0

>  <fr_hdrzone>  (35) 
0

>  <fr_imidazole>  (35) 
0

>  <fr_imide>  (35) 
0

>  <fr_isocyan>  (35) 
0

>  <fr_isothiocyan>  (35) 
0

>  <fr_ketone>  (35) 
0

>  <fr_ketone_Topliss>  (35) 
0

>  <fr_lactam>  (35) 
0

>  <fr_lactone>  (35) 
0

>  <fr_methoxy>  (35) 
0

>  <fr_morpholine>  (35) 
0

>  <fr_nitrile>  (35) 
0

>  <fr_nitro>  (35) 
0

>  <fr_nitro_arom>  (35) 
0

>  <fr_nitro_arom_nonortho>  (35) 
0

>  <fr_nitroso>  (35) 
0

>  <fr_oxazole>  (35) 
0

>  <fr_oxime>  (35) 
0

>  <fr_para_hydroxylation>  (35) 
1

>  <fr_phenol>  (35) 
0

>  <fr_phenol_noOrthoHbond>  (35) 
0

>  <fr_phos_acid>  (35) 
0

>  <fr_phos_ester>  (35) 
0

>  <fr_piperdine>  (35) 
0

>  <fr_piperzine>  (35) 
0

>  <fr_priamide>  (35) 
0

>  <fr_prisulfonamd>  (35) 
0

>  <fr_pyridine>  (35) 
0

>  <fr_quatN>  (35) 
1

>  <fr_sulfide>  (35) 
0

>  <fr_sulfonamd>  (35) 
0

>  <fr_sulfone>  (35) 
0

>  <fr_term_acetylene>  (35) 
0

>  <fr_tetrazole>  (35) 
0

>  <fr_thiazole>  (35) 
0

>  <fr_thiocyan>  (35) 
0

>  <fr_thiophene>  (35) 
0

>  <fr_unbrch_alkane>  (35) 
0

>  <fr_urea>  (35) 
0

>  <NP_Likeness>  (35) 
0.236155

$$$$
F225
     RDKit          3D

  0  0  0  0  0  0  0  0  0  0999 V3000
M  V30 BEGIN CTAB
M  V30 COUNTS 36 37 0 0 0
M  V30 BEGIN ATOM
M  V30 1 O -8.369000 -4.192000 -5.553000 0
M  V30 2 O -5.699000 -6.653000 -9.937000 0
M  V30 3 O -5.261000 -7.263000 -6.713000 0
M  V30 4 N -8.029000 -6.218000 -7.157000 0 CHG=1
M  V30 5 N -6.138000 -3.790000 -5.567000 0
M  V30 6 N -7.553000 -1.992000 -5.506000 0
M  V30 7 C -5.548000 -8.010000 -7.922000 0
M  V30 8 C -5.720000 -5.213000 -5.568000 0
M  V30 9 C -10.907000 0.476000 -5.251000 0
M  V30 10 C -11.023000 -0.870000 -5.198000 0
M  V30 11 C -9.658000 1.001000 -5.388000 0
M  V30 12 C -9.908000 -1.663000 -5.303000 0
M  V30 13 C -8.554000 0.211000 -5.463000 0
M  V30 14 C -7.450000 -3.388000 -5.522000 0
M  V30 15 C -6.421000 -7.123000 -8.789000 0 CFG=1
M  V30 16 C -5.541000 -5.867000 -6.953000 0 CFG=2
M  V30 17 C -6.776000 -5.963000 -7.856000 0 CFG=2
M  V30 18 C -8.651000 -1.143000 -5.442000 0
M  V30 19 H -5.011400 -7.330300 -10.198600 0
M  V30 20 H -8.237900 -5.447100 -6.555300 0
M  V30 21 H -8.765900 -6.329700 -7.823700 0
M  V30 22 H -5.427600 -3.087100 -5.600800 0
M  V30 23 H -6.673500 -1.518100 -5.548500 0
M  V30 24 H -6.032300 -8.855600 -7.697300 0
M  V30 25 H -4.698000 -8.229800 -8.400700 0
M  V30 26 H -6.412900 -5.735200 -5.070900 0
M  V30 27 H -4.846200 -5.275000 -5.085700 0
M  V30 28 H -11.711800 1.066500 -5.191600 0
M  V30 29 H -11.923700 -1.288700 -5.082000 0
M  V30 30 H -9.549900 1.994000 -5.434700 0
M  V30 31 H -10.018700 -2.656500 -5.276900 0
M  V30 32 H -7.651700 0.636100 -5.535100 0
M  V30 33 H -7.246800 -7.611700 -9.070400 0
M  V30 34 H -4.782500 -5.439200 -7.444700 0
M  V30 35 H -6.860800 -5.122300 -8.390900 0
M  V30 36 H -7.943000 -7.052200 -6.612300 0
M  V30 END ATOM
M  V30 BEGIN BOND
M  V30 1 2 1 14
M  V30 2 1 2 15
M  V30 3 1 3 7
M  V30 4 1 3 16
M  V30 5 1 4 17
M  V30 6 1 5 8
M  V30 7 1 5 14
M  V30 8 1 6 14
M  V30 9 1 6 18
M  V30 10 1 7 15
M  V30 11 1 8 16
M  V30 12 2 9 10
M  V30 13 1 9 11
M  V30 14 1 10 12
M  V30 15 2 11 13
M  V30 16 2 12 18
M  V30 17 1 13 18
M  V30 18 1 15 17
M  V30 19 1 16 17
M  V30 20 1 2 19
M  V30 21 1 4 20
M  V30 22 1 4 21
M  V30 23 1 5 22
M  V30 24 1 6 23
M  V30 25 1 7 24
M  V30 26 1 7 25
M  V30 27 1 8 26
M  V30 28 1 8 27
M  V30 29 1 9 28
M  V30 30 1 10 29
M  V30 31 1 11 30
M  V30 32 1 12 31
M  V30 33 1 13 32
M  V30 34 1 15 33 CFG=3
M  V30 35 1 16 34 CFG=3
M  V30 36 1 17 35 CFG=3
M  V30 37 1 4 36
M  V30 END BOND
M  V30 END CTAB
M  END
>  <Ligand_Instance>  (36) 
225_L_501

>  <Dataset>  (36) 
CF

>  <PDB_ID>  (36) 
None

>  <Chain>  (36) 
L

>  <Resi>  (36) 
501

>  <Num_Resolved_Atoms>  (36) 
18

>  <Num_H_Atoms_ProtBoundConf>  (36) 
18

>  <Pocket>  (36) 
X

>  <Name>  (36) 
3‐{[(2R,3R,4R)‐3‐amino‐4‐hydroxyoxolan‐2‐yl]methyl}‐1‐phenylurea

>  <Num_Not_Resolved_Atoms>  (36) 
0

>  <ATP_Site>  (36) 
True

>  <Peripheral>  (36) 
True

>  <Standardized_SMILES>  (36) 
[H]O[C@@]1([H])C([H])([H])O[C@]([H])(C([H])([H])N([H])C(=O)N([H])C2=C([H])C([H])=C([H])C([H])=C2[H])[C@]1([H])[N+]([H])([H])[H]

>  <2D_Mol_H>  (36) 
<rdkit.Chem.rdchem.Mol object at 0x77059d9d8e40>

>  <MW>  (36) 
252.294

>  <HBA>  (36) 
3

>  <HBD>  (36) 
4

>  <LogP>  (36) 
-0.8217

>  <NRB>  (36) 
5

>  <TPSA>  (36) 
98.23

>  <Num_Heavy_Atoms>  (36) 
18

>  <Ro5>  (36) 
[True, True, True, True, True, True]

>  <Ro5_Fulfilled>  (36) 
True

>  <Ro3>  (36) 
[True, True, False, True]

>  <Ro3_Fulfilled>  (36) 
True

>  <Fsp3>  (36) 
0.416667

>  <Fsp3_0.42>  (36) 
False

>  <Fsp3_0.45>  (36) 
False

>  <Stereogenic_Carbons>  (36) 
3

>  <C_Atoms>  (36) 
12

>  <FCStereo>  (36) 
0.25

>  <SPS>  (36) 
484

>  <nSPS>  (36) 
26.888889

>  <PBF>  (36) 
0.757881

>  <PBF_0.6>  (36) 
True

>  <nPBF>  (36) 
0.042105

>  <nPBF_0.016>  (36) 
True

>  <PMI1>  (36) 
438.234729

>  <PMI2>  (36) 
3152.84015

>  <PMI3>  (36) 
3252.519777

>  <NPR1>  (36) 
0.134737

>  <NPR2>  (36) 
0.969353

>  <Sum_NPR>  (36) 
1.10409

>  <Sum_NPR_1.07>  (36) 
True

>  <Sum_NPR_1.2>  (36) 
False

>  <MaxAbsEStateIndex>  (36) 
11.59668

>  <MaxEStateIndex>  (36) 
11.59668

>  <MinAbsEStateIndex>  (36) 
0.206458

>  <MinEStateIndex>  (36) 
-0.547237

>  <qed>  (36) 
0.565341

>  <MolWt>  (36) 
252.294

>  <HeavyAtomMolWt>  (36) 
234.15

>  <ExactMolWt>  (36) 
252.134268

>  <NumValenceElectrons>  (36) 
98

>  <NumRadicalElectrons>  (36) 
0

>  <MaxPartialCharge>  (36) 
0.318829

>  <MinPartialCharge>  (36) 
-0.384376

>  <MaxAbsPartialCharge>  (36) 
0.384376

>  <MinAbsPartialCharge>  (36) 
0.318829

>  <FpDensityMorgan1>  (36) 
1.444444

>  <FpDensityMorgan2>  (36) 
2.166667

>  <FpDensityMorgan3>  (36) 
2.777778

>  <BCUT2D_MWHI>  (36) 
16.511587

>  <BCUT2D_MWLOW>  (36) 
10.1111

>  <BCUT2D_CHGHI>  (36) 
2.359385

>  <BCUT2D_CHGLO>  (36) 
-2.138818

>  <BCUT2D_LOGPHI>  (36) 
2.097146

>  <BCUT2D_LOGPLOW>  (36) 
-2.698798

>  <BCUT2D_MRHI>  (36) 
5.886201

>  <BCUT2D_MRLOW>  (36) 
-0.438642

>  <AvgIpc>  (36) 
2.68777

>  <BalabanJ>  (36) 
1.755149

>  <BertzCT>  (36) 
398.813926

>  <Chi0>  (36) 
12.957819

>  <Chi0n>  (36) 
10.003833

>  <Chi0v>  (36) 
10.003833

>  <Chi1>  (36) 
8.664704

>  <Chi1n>  (36) 
5.892349

>  <Chi1v>  (36) 
5.892349

>  <Chi2n>  (36) 
4.304038

>  <Chi2v>  (36) 
4.304038

>  <Chi3n>  (36) 
2.94829

>  <Chi3v>  (36) 
2.94829

>  <Chi4n>  (36) 
1.81752

>  <Chi4v>  (36) 
1.81752

>  <HallKierAlpha>  (36) 
-1.63

>  <Ipc>  (36) 
15933.101944

>  <Kappa1>  (36) 
12.817307

>  <Kappa2>  (36) 
5.811256

>  <Kappa3>  (36) 
3.191545

>  <LabuteASA>  (36) 
105.124141

>  <PEOE_VSA1>  (36) 
26.210635

>  <PEOE_VSA10>  (36) 
18.249774

>  <PEOE_VSA11>  (36) 
0.0

>  <PEOE_VSA12>  (36) 
0.0

>  <PEOE_VSA13>  (36) 
0.0

>  <PEOE_VSA14>  (36) 
6.031115

>  <PEOE_VSA2>  (36) 
0.0

>  <PEOE_VSA3>  (36) 
4.794537

>  <PEOE_VSA4>  (36) 
0.0

>  <PEOE_VSA5>  (36) 
0.0

>  <PEOE_VSA6>  (36) 
18.199101

>  <PEOE_VSA7>  (36) 
12.132734

>  <PEOE_VSA8>  (36) 
5.687386

>  <PEOE_VSA9>  (36) 
13.151638

>  <SMR_VSA1>  (36) 
20.371595

>  <SMR_VSA10>  (36) 
11.718501

>  <SMR_VSA2>  (36) 
0.0

>  <SMR_VSA3>  (36) 
5.316789

>  <SMR_VSA4>  (36) 
0.0

>  <SMR_VSA5>  (36) 
18.249774

>  <SMR_VSA6>  (36) 
18.468427

>  <SMR_VSA7>  (36) 
30.331835

>  <SMR_VSA8>  (36) 
0.0

>  <SMR_VSA9>  (36) 
0.0

>  <SlogP_VSA1>  (36) 
16.367245

>  <SlogP_VSA10>  (36) 
10.481923

>  <SlogP_VSA11>  (36) 
0.0

>  <SlogP_VSA12>  (36) 
0.0

>  <SlogP_VSA2>  (36) 
42.539054

>  <SlogP_VSA3>  (36) 
4.736863

>  <SlogP_VSA4>  (36) 
0.0

>  <SlogP_VSA5>  (36) 
0.0

>  <SlogP_VSA6>  (36) 
30.331835

>  <SlogP_VSA7>  (36) 
0.0

>  <SlogP_VSA8>  (36) 
0.0

>  <SlogP_VSA9>  (36) 
0.0

>  <EState_VSA1>  (36) 
6.103966

>  <EState_VSA10>  (36) 
9.901065

>  <EState_VSA11>  (36) 
0.0

>  <EState_VSA2>  (36) 
24.783804

>  <EState_VSA3>  (36) 
6.544756

>  <EState_VSA4>  (36) 
5.687386

>  <EState_VSA5>  (36) 
0.0

>  <EState_VSA6>  (36) 
12.132734

>  <EState_VSA7>  (36) 
18.199101

>  <EState_VSA8>  (36) 
16.367245

>  <EState_VSA9>  (36) 
4.736863

>  <VSA_EState1>  (36) 
5.323086

>  <VSA_EState10>  (36) 
0.0

>  <VSA_EState2>  (36) 
11.59668

>  <VSA_EState3>  (36) 
14.854003

>  <VSA_EState4>  (36) 
4.545322

>  <VSA_EState5>  (36) 
0.0

>  <VSA_EState6>  (36) 
8.680394

>  <VSA_EState7>  (36) 
-0.781937

>  <VSA_EState8>  (36) 
0.615785

>  <VSA_EState9>  (36) 
0.0

>  <FractionCSP3>  (36) 
0.416667

>  <HeavyAtomCount>  (36) 
18

>  <NHOHCount>  (36) 
6

>  <NOCount>  (36) 
6

>  <NumAliphaticCarbocycles>  (36) 
0

>  <NumAliphaticHeterocycles>  (36) 
1

>  <NumAliphaticRings>  (36) 
1

>  <NumAromaticCarbocycles>  (36) 
1

>  <NumAromaticHeterocycles>  (36) 
0

>  <NumAromaticRings>  (36) 
1

>  <NumHAcceptors>  (36) 
3

>  <NumHDonors>  (36) 
4

>  <NumHeteroatoms>  (36) 
6

>  <NumRotatableBonds>  (36) 
3

>  <NumSaturatedCarbocycles>  (36) 
0

>  <NumSaturatedHeterocycles>  (36) 
1

>  <NumSaturatedRings>  (36) 
1

>  <RingCount>  (36) 
2

>  <MolLogP>  (36) 
-0.8217

>  <MolMR>  (36) 
65.8863

>  <fr_Al_COO>  (36) 
0

>  <fr_Al_OH>  (36) 
1

>  <fr_Al_OH_noTert>  (36) 
1

>  <fr_ArN>  (36) 
0

>  <fr_Ar_COO>  (36) 
0

>  <fr_Ar_N>  (36) 
0

>  <fr_Ar_NH>  (36) 
0

>  <fr_Ar_OH>  (36) 
0

>  <fr_COO>  (36) 
0

>  <fr_COO2>  (36) 
0

>  <fr_C_O>  (36) 
1

>  <fr_C_O_noCOO>  (36) 
1

>  <fr_C_S>  (36) 
0

>  <fr_HOCCN>  (36) 
0

>  <fr_Imine>  (36) 
0

>  <fr_NH0>  (36) 
0

>  <fr_NH1>  (36) 
2

>  <fr_NH2>  (36) 
0

>  <fr_N_O>  (36) 
0

>  <fr_Ndealkylation1>  (36) 
0

>  <fr_Ndealkylation2>  (36) 
0

>  <fr_Nhpyrrole>  (36) 
0

>  <fr_SH>  (36) 
0

>  <fr_aldehyde>  (36) 
0

>  <fr_alkyl_carbamate>  (36) 
0

>  <fr_alkyl_halide>  (36) 
0

>  <fr_allylic_oxid>  (36) 
0

>  <fr_amide>  (36) 
2

>  <fr_amidine>  (36) 
0

>  <fr_aniline>  (36) 
1

>  <fr_aryl_methyl>  (36) 
0

>  <fr_azide>  (36) 
0

>  <fr_azo>  (36) 
0

>  <fr_barbitur>  (36) 
0

>  <fr_benzene>  (36) 
1

>  <fr_benzodiazepine>  (36) 
0

>  <fr_bicyclic>  (36) 
0

>  <fr_diazo>  (36) 
0

>  <fr_dihydropyridine>  (36) 
0

>  <fr_epoxide>  (36) 
0

>  <fr_ester>  (36) 
0

>  <fr_ether>  (36) 
1

>  <fr_furan>  (36) 
0

>  <fr_guanido>  (36) 
0

>  <fr_halogen>  (36) 
0

>  <fr_hdrzine>  (36) 
0

>  <fr_hdrzone>  (36) 
0

>  <fr_imidazole>  (36) 
0

>  <fr_imide>  (36) 
0

>  <fr_isocyan>  (36) 
0

>  <fr_isothiocyan>  (36) 
0

>  <fr_ketone>  (36) 
0

>  <fr_ketone_Topliss>  (36) 
0

>  <fr_lactam>  (36) 
0

>  <fr_lactone>  (36) 
0

>  <fr_methoxy>  (36) 
0

>  <fr_morpholine>  (36) 
0

>  <fr_nitrile>  (36) 
0

>  <fr_nitro>  (36) 
0

>  <fr_nitro_arom>  (36) 
0

>  <fr_nitro_arom_nonortho>  (36) 
0

>  <fr_nitroso>  (36) 
0

>  <fr_oxazole>  (36) 
0

>  <fr_oxime>  (36) 
0

>  <fr_para_hydroxylation>  (36) 
1

>  <fr_phenol>  (36) 
0

>  <fr_phenol_noOrthoHbond>  (36) 
0

>  <fr_phos_acid>  (36) 
0

>  <fr_phos_ester>  (36) 
0

>  <fr_piperdine>  (36) 
0

>  <fr_piperzine>  (36) 
0

>  <fr_priamide>  (36) 
0

>  <fr_prisulfonamd>  (36) 
0

>  <fr_pyridine>  (36) 
0

>  <fr_quatN>  (36) 
1

>  <fr_sulfide>  (36) 
0

>  <fr_sulfonamd>  (36) 
0

>  <fr_sulfone>  (36) 
0

>  <fr_term_acetylene>  (36) 
0

>  <fr_tetrazole>  (36) 
0

>  <fr_thiazole>  (36) 
0

>  <fr_thiocyan>  (36) 
0

>  <fr_thiophene>  (36) 
0

>  <fr_unbrch_alkane>  (36) 
0

>  <fr_urea>  (36) 
1

>  <NP_Likeness>  (36) 
-0.509854

$$$$
F236
     RDKit          3D

  0  0  0  0  0  0  0  0  0  0999 V3000
M  V30 BEGIN CTAB
M  V30 COUNTS 36 37 0 0 0
M  V30 BEGIN ATOM
M  V30 1 S -5.710000 7.127000 -13.252000 0
M  V30 2 O -4.464000 6.787000 -12.533000 0
M  V30 3 O -6.919000 7.382000 -12.482000 0
M  V30 4 O -5.689000 0.125000 -16.942000 0
M  V30 5 O -7.084000 2.789000 -16.831000 0
M  V30 6 N -6.794000 0.508000 -19.650000 0 CHG=1
M  V30 7 C -5.408000 8.516000 -14.296000 0
M  V30 8 C -5.634000 -0.878000 -17.929000 0
M  V30 9 C -5.167000 1.385000 -17.338000 0
M  V30 10 C -6.768000 -0.768000 -18.942000 0
M  V30 11 C -7.262000 1.575000 -18.802000 0
M  V30 12 C -7.242000 5.187000 -14.231000 0
M  V30 13 C -5.175000 5.464000 -15.348000 0
M  V30 14 C -7.556000 4.186000 -15.052000 0
M  V30 15 C -5.506000 4.448000 -16.200000 0
M  V30 16 C -6.060000 5.826000 -14.365000 0
M  V30 17 C -6.266000 2.321000 -17.891000 0 CFG=1
M  V30 18 C -6.709000 3.812000 -16.021000 0
M  V30 19 H -7.403500 0.429200 -20.438900 0
M  V30 20 H -6.246600 8.752900 -14.786600 0
M  V30 21 H -5.116200 9.294000 -13.739600 0
M  V30 22 H -4.689900 8.288700 -14.953800 0
M  V30 23 H -5.689800 -1.770600 -17.481700 0
M  V30 24 H -4.762900 -0.802200 -18.414200 0
M  V30 25 H -4.478900 1.240100 -18.049000 0
M  V30 26 H -4.740700 1.821000 -16.545500 0
M  V30 27 H -6.664200 -1.501000 -19.614300 0
M  V30 28 H -7.636300 -0.879600 -18.458600 0
M  V30 29 H -7.963800 1.184900 -18.205900 0
M  V30 30 H -7.676500 2.260400 -19.400700 0
M  V30 31 H -7.882100 5.465400 -13.514900 0
M  V30 32 H -4.298900 5.937300 -15.440200 0
M  V30 33 H -8.429200 3.710600 -14.944600 0
M  V30 34 H -4.886700 4.174600 -16.936000 0
M  V30 35 H -5.855100 3.090400 -18.380100 0
M  V30 36 H -5.869300 0.724200 -19.963500 0
M  V30 END ATOM
M  V30 BEGIN BOND
M  V30 1 2 1 2
M  V30 2 2 1 3
M  V30 3 1 1 7
M  V30 4 1 1 16
M  V30 5 1 4 8
M  V30 6 1 4 9
M  V30 7 1 5 17
M  V30 8 1 5 18
M  V30 9 1 6 10
M  V30 10 1 6 11
M  V30 11 1 8 10
M  V30 12 1 9 17
M  V30 13 1 11 17
M  V30 14 2 12 14
M  V30 15 1 12 16
M  V30 16 1 13 15
M  V30 17 2 13 16
M  V30 18 1 14 18
M  V30 19 2 15 18
M  V30 20 1 6 19
M  V30 21 1 7 20
M  V30 22 1 7 21
M  V30 23 1 7 22
M  V30 24 1 8 23
M  V30 25 1 8 24
M  V30 26 1 9 25
M  V30 27 1 9 26
M  V30 28 1 10 27
M  V30 29 1 10 28
M  V30 30 1 11 29
M  V30 31 1 11 30
M  V30 32 1 12 31
M  V30 33 1 13 32
M  V30 34 1 14 33
M  V30 35 1 15 34
M  V30 36 1 17 35 CFG=3
M  V30 37 1 6 36
M  V30 END BOND
M  V30 END CTAB
M  END
>  <Ligand_Instance>  (37) 
236_L_401

>  <Dataset>  (37) 
CF

>  <PDB_ID>  (37) 
None

>  <Chain>  (37) 
L

>  <Resi>  (37) 
401

>  <Num_Resolved_Atoms>  (37) 
18

>  <Num_H_Atoms_ProtBoundConf>  (37) 
18

>  <Pocket>  (37) 
X

>  <Name>  (37) 
(6R)‐6‐(4‐methanesulfonylphenoxy)‐1,4‐oxazepane

>  <Num_Not_Resolved_Atoms>  (37) 
0

>  <ATP_Site>  (37) 
False

>  <Peripheral>  (37) 
True

>  <Standardized_SMILES>  (37) 
[H]C1=C([H])C(S(=O)(=O)C([H])([H])[H])=C([H])C([H])=C1O[C@@]1([H])C([H])([H])OC([H])([H])C([H])([H])[N+]([H])([H])C1([H])[H]

>  <2D_Mol_H>  (37) 
<rdkit.Chem.rdchem.Mol object at 0x77059d9d8f20>

>  <MW>  (37) 
272.346

>  <HBA>  (37) 
4

>  <HBD>  (37) 
1

>  <LogP>  (37) 
-0.5689

>  <NRB>  (37) 
4

>  <TPSA>  (37) 
69.21

>  <Num_Heavy_Atoms>  (37) 
18

>  <Ro5>  (37) 
[True, True, True, True, True, True]

>  <Ro5_Fulfilled>  (37) 
True

>  <Ro3>  (37) 
[True, False, True, True]

>  <Ro3_Fulfilled>  (37) 
True

>  <Fsp3>  (37) 
0.5

>  <Fsp3_0.42>  (37) 
True

>  <Fsp3_0.45>  (37) 
True

>  <Stereogenic_Carbons>  (37) 
1

>  <C_Atoms>  (37) 
12

>  <FCStereo>  (37) 
0.083333

>  <SPS>  (37) 
383

>  <nSPS>  (37) 
21.277778

>  <PBF>  (37) 
0.83616

>  <PBF_0.6>  (37) 
True

>  <nPBF>  (37) 
0.046453

>  <nPBF_0.016>  (37) 
True

>  <PMI1>  (37) 
375.73407

>  <PMI2>  (37) 
3737.275576

>  <PMI3>  (37) 
3787.533366

>  <NPR1>  (37) 
0.099203

>  <NPR2>  (37) 
0.986731

>  <Sum_NPR>  (37) 
1.085934

>  <Sum_NPR_1.07>  (37) 
True

>  <Sum_NPR_1.2>  (37) 
False

>  <MaxAbsEStateIndex>  (37) 
11.313811

>  <MaxEStateIndex>  (37) 
11.313811

>  <MinAbsEStateIndex>  (37) 
0.010726

>  <MinEStateIndex>  (37) 
-3.144917

>  <qed>  (37) 
0.799972

>  <MolWt>  (37) 
272.346

>  <HeavyAtomMolWt>  (37) 
254.202

>  <ExactMolWt>  (37) 
272.095105

>  <NumValenceElectrons>  (37) 
100

>  <NumRadicalElectrons>  (37) 
0

>  <MaxPartialCharge>  (37) 
0.175022

>  <MinPartialCharge>  (37) 
-0.482104

>  <MaxAbsPartialCharge>  (37) 
0.482104

>  <MinAbsPartialCharge>  (37) 
0.175022

>  <FpDensityMorgan1>  (37) 
1.333333

>  <FpDensityMorgan2>  (37) 
2.055556

>  <FpDensityMorgan3>  (37) 
2.722222

>  <BCUT2D_MWHI>  (37) 
32.227746

>  <BCUT2D_MWLOW>  (37) 
10.298774

>  <BCUT2D_CHGHI>  (37) 
2.162765

>  <BCUT2D_CHGLO>  (37) 
-2.144538

>  <BCUT2D_LOGPHI>  (37) 
2.165564

>  <BCUT2D_LOGPLOW>  (37) 
-2.863784

>  <BCUT2D_MRHI>  (37) 
7.903031

>  <BCUT2D_MRLOW>  (37) 
-0.656133

>  <AvgIpc>  (37) 
2.571107

>  <BalabanJ>  (37) 
2.011738

>  <BertzCT>  (37) 
475.303804

>  <Chi0>  (37) 
13.010225

>  <Chi0n>  (37) 
10.33377

>  <Chi0v>  (37) 
11.150267

>  <Chi1>  (37) 
8.554661

>  <Chi1n>  (37) 
5.917243

>  <Chi1v>  (37) 
7.808654

>  <Chi2n>  (37) 
4.371397

>  <Chi2v>  (37) 
6.387133

>  <Chi3n>  (37) 
2.754249

>  <Chi3v>  (37) 
3.882719

>  <Chi4n>  (37) 
1.793219

>  <Chi4v>  (37) 
2.42369

>  <HallKierAlpha>  (37) 
-1.11

>  <Ipc>  (37) 
12824.680512

>  <Kappa1>  (37) 
13.324679

>  <Kappa2>  (37) 
5.686742

>  <Kappa3>  (37) 
3.693194

>  <LabuteASA>  (37) 
107.017576

>  <PEOE_VSA1>  (37) 
14.790515

>  <PEOE_VSA10>  (37) 
12.294268

>  <PEOE_VSA11>  (37) 
15.94122

>  <PEOE_VSA12>  (37) 
0.0

>  <PEOE_VSA13>  (37) 
0.0

>  <PEOE_VSA14>  (37) 
0.0

>  <PEOE_VSA2>  (37) 
0.0

>  <PEOE_VSA3>  (37) 
8.417797

>  <PEOE_VSA4>  (37) 
0.0

>  <PEOE_VSA5>  (37) 
0.0

>  <PEOE_VSA6>  (37) 
0.0

>  <PEOE_VSA7>  (37) 
24.265468

>  <PEOE_VSA8>  (37) 
6.255769

>  <PEOE_VSA9>  (37) 
24.654004

>  <SMR_VSA1>  (37) 
23.208311

>  <SMR_VSA10>  (37) 
9.837253

>  <SMR_VSA2>  (37) 
0.0

>  <SMR_VSA3>  (37) 
0.0

>  <SMR_VSA4>  (37) 
0.0

>  <SMR_VSA5>  (37) 
10.99945

>  <SMR_VSA6>  (37) 
32.559046

>  <SMR_VSA7>  (37) 
24.265468

>  <SMR_VSA8>  (37) 
0.0

>  <SMR_VSA9>  (37) 
5.749512

>  <SlogP_VSA1>  (37) 
10.053652

>  <SlogP_VSA10>  (37) 
0.0

>  <SlogP_VSA11>  (37) 
5.749512

>  <SlogP_VSA12>  (37) 
0.0

>  <SlogP_VSA2>  (37) 
47.080809

>  <SlogP_VSA3>  (37) 
14.574116

>  <SlogP_VSA4>  (37) 
0.0

>  <SlogP_VSA5>  (37) 
0.0

>  <SlogP_VSA6>  (37) 
29.160952

>  <SlogP_VSA7>  (37) 
0.0

>  <SlogP_VSA8>  (37) 
0.0

>  <SlogP_VSA9>  (37) 
0.0

>  <EState_VSA1>  (37) 
9.837253

>  <EState_VSA10>  (37) 
8.417797

>  <EState_VSA11>  (37) 
0.0

>  <EState_VSA2>  (37) 
6.103966

>  <EState_VSA3>  (37) 
17.251877

>  <EState_VSA4>  (37) 
19.696395

>  <EState_VSA5>  (37) 
6.255769

>  <EState_VSA6>  (37) 
24.265468

>  <EState_VSA7>  (37) 
0.0

>  <EState_VSA8>  (37) 
5.316789

>  <EState_VSA9>  (37) 
9.473726

>  <VSA_EState1>  (37) 
33.784641

>  <VSA_EState10>  (37) 
0.0

>  <VSA_EState2>  (37) 
0.304193

>  <VSA_EState3>  (37) 
2.155296

>  <VSA_EState4>  (37) 
0.0

>  <VSA_EState5>  (37) 
0.6725

>  <VSA_EState6>  (37) 
6.486536

>  <VSA_EState7>  (37) 
1.202159

>  <VSA_EState8>  (37) 
3.122925

>  <VSA_EState9>  (37) 
-3.144917

>  <FractionCSP3>  (37) 
0.5

>  <HeavyAtomCount>  (37) 
18

>  <NHOHCount>  (37) 
2

>  <NOCount>  (37) 
5

>  <NumAliphaticCarbocycles>  (37) 
0

>  <NumAliphaticHeterocycles>  (37) 
1

>  <NumAliphaticRings>  (37) 
1

>  <NumAromaticCarbocycles>  (37) 
1

>  <NumAromaticHeterocycles>  (37) 
0

>  <NumAromaticRings>  (37) 
1

>  <NumHAcceptors>  (37) 
4

>  <NumHDonors>  (37) 
1

>  <NumHeteroatoms>  (37) 
6

>  <NumRotatableBonds>  (37) 
3

>  <NumSaturatedCarbocycles>  (37) 
0

>  <NumSaturatedHeterocycles>  (37) 
1

>  <NumSaturatedRings>  (37) 
1

>  <RingCount>  (37) 
2

>  <MolLogP>  (37) 
-0.5689

>  <MolMR>  (37) 
66.4462

>  <fr_Al_COO>  (37) 
0

>  <fr_Al_OH>  (37) 
0

>  <fr_Al_OH_noTert>  (37) 
0

>  <fr_ArN>  (37) 
0

>  <fr_Ar_COO>  (37) 
0

>  <fr_Ar_N>  (37) 
0

>  <fr_Ar_NH>  (37) 
0

>  <fr_Ar_OH>  (37) 
0

>  <fr_COO>  (37) 
0

>  <fr_COO2>  (37) 
0

>  <fr_C_O>  (37) 
0

>  <fr_C_O_noCOO>  (37) 
0

>  <fr_C_S>  (37) 
0

>  <fr_HOCCN>  (37) 
0

>  <fr_Imine>  (37) 
0

>  <fr_NH0>  (37) 
0

>  <fr_NH1>  (37) 
0

>  <fr_NH2>  (37) 
1

>  <fr_N_O>  (37) 
0

>  <fr_Ndealkylation1>  (37) 
0

>  <fr_Ndealkylation2>  (37) 
0

>  <fr_Nhpyrrole>  (37) 
0

>  <fr_SH>  (37) 
0

>  <fr_aldehyde>  (37) 
0

>  <fr_alkyl_carbamate>  (37) 
0

>  <fr_alkyl_halide>  (37) 
0

>  <fr_allylic_oxid>  (37) 
0

>  <fr_amide>  (37) 
0

>  <fr_amidine>  (37) 
0

>  <fr_aniline>  (37) 
0

>  <fr_aryl_methyl>  (37) 
0

>  <fr_azide>  (37) 
0

>  <fr_azo>  (37) 
0

>  <fr_barbitur>  (37) 
0

>  <fr_benzene>  (37) 
1

>  <fr_benzodiazepine>  (37) 
0

>  <fr_bicyclic>  (37) 
0

>  <fr_diazo>  (37) 
0

>  <fr_dihydropyridine>  (37) 
0

>  <fr_epoxide>  (37) 
0

>  <fr_ester>  (37) 
0

>  <fr_ether>  (37) 
2

>  <fr_furan>  (37) 
0

>  <fr_guanido>  (37) 
0

>  <fr_halogen>  (37) 
0

>  <fr_hdrzine>  (37) 
0

>  <fr_hdrzone>  (37) 
0

>  <fr_imidazole>  (37) 
0

>  <fr_imide>  (37) 
0

>  <fr_isocyan>  (37) 
0

>  <fr_isothiocyan>  (37) 
0

>  <fr_ketone>  (37) 
0

>  <fr_ketone_Topliss>  (37) 
0

>  <fr_lactam>  (37) 
0

>  <fr_lactone>  (37) 
0

>  <fr_methoxy>  (37) 
0

>  <fr_morpholine>  (37) 
0

>  <fr_nitrile>  (37) 
0

>  <fr_nitro>  (37) 
0

>  <fr_nitro_arom>  (37) 
0

>  <fr_nitro_arom_nonortho>  (37) 
0

>  <fr_nitroso>  (37) 
0

>  <fr_oxazole>  (37) 
0

>  <fr_oxime>  (37) 
0

>  <fr_para_hydroxylation>  (37) 
0

>  <fr_phenol>  (37) 
0

>  <fr_phenol_noOrthoHbond>  (37) 
0

>  <fr_phos_acid>  (37) 
0

>  <fr_phos_ester>  (37) 
0

>  <fr_piperdine>  (37) 
0

>  <fr_piperzine>  (37) 
0

>  <fr_priamide>  (37) 
0

>  <fr_prisulfonamd>  (37) 
0

>  <fr_pyridine>  (37) 
0

>  <fr_quatN>  (37) 
1

>  <fr_sulfide>  (37) 
0

>  <fr_sulfonamd>  (37) 
0

>  <fr_sulfone>  (37) 
1

>  <fr_term_acetylene>  (37) 
0

>  <fr_tetrazole>  (37) 
0

>  <fr_thiazole>  (37) 
0

>  <fr_thiocyan>  (37) 
0

>  <fr_thiophene>  (37) 
0

>  <fr_unbrch_alkane>  (37) 
0

>  <fr_urea>  (37) 
0

>  <NP_Likeness>  (37) 
-0.667268

$$$$
F248
     RDKit          3D

  0  0  0  0  0  0  0  0  0  0999 V3000
M  V30 BEGIN CTAB
M  V30 COUNTS 32 34 0 0 0
M  V30 BEGIN ATOM
M  V30 1 O -4.417000 3.161000 -21.099000 0
M  V30 2 O -10.780000 5.476000 -18.881000 0
M  V30 3 O -4.621000 5.295000 -20.296000 0
M  V30 4 N -9.188000 4.363000 -20.101000 0
M  V30 5 N -6.405000 3.957000 -20.184000 0
M  V30 6 C -5.776000 6.119000 -20.105000 0
M  V30 7 C -8.645000 3.182000 -20.811000 0
M  V30 8 C -7.256000 2.792000 -20.294000 0
M  V30 9 C -12.982000 1.124000 -19.092000 0
M  V30 10 C -13.425000 2.243000 -19.707000 0
M  V30 11 C -11.727000 1.074000 -18.607000 0
M  V30 12 C -8.303000 5.546000 -20.120000 0
M  V30 13 C -12.620000 3.328000 -19.824000 0
M  V30 14 C -10.923000 2.153000 -18.718000 0
M  V30 15 C -5.085000 4.040000 -20.580000 0
M  V30 16 C -10.421000 4.445000 -19.434000 0
M  V30 17 C -6.873000 5.193000 -19.618000 0 CFG=1
M  V30 18 C -11.356000 3.274000 -19.348000 0
M  V30 19 H -6.042100 6.549800 -20.967300 0
M  V30 20 H -5.589600 6.826000 -19.422800 0
M  V30 21 H -8.579200 3.393300 -21.786200 0
M  V30 22 H -9.267500 2.410700 -20.678300 0
M  V30 23 H -7.348400 2.366900 -19.393600 0
M  V30 24 H -6.840400 2.140800 -20.929000 0
M  V30 25 H -13.586500 0.333000 -18.997200 0
M  V30 26 H -14.353000 2.271000 -20.078400 0
M  V30 27 H -11.391800 0.241200 -18.166400 0
M  V30 28 H -8.690800 6.252100 -19.527500 0
M  V30 29 H -8.243000 5.892500 -21.056100 0
M  V30 30 H -12.959000 4.162000 -20.259300 0
M  V30 31 H -10.000600 2.125700 -18.332700 0
M  V30 32 H -6.861600 5.140700 -18.619400 0
M  V30 END ATOM
M  V30 BEGIN BOND
M  V30 1 2 1 15
M  V30 2 2 2 16
M  V30 3 1 3 6
M  V30 4 1 3 15
M  V30 5 1 4 7
M  V30 6 1 4 12
M  V30 7 1 4 16
M  V30 8 1 5 8
M  V30 9 1 5 15
M  V30 10 1 5 17
M  V30 11 1 6 17
M  V30 12 1 7 8
M  V30 13 2 9 10
M  V30 14 1 9 11
M  V30 15 1 10 13
M  V30 16 2 11 14
M  V30 17 1 12 17
M  V30 18 2 13 18
M  V30 19 1 14 18
M  V30 20 1 16 18
M  V30 21 1 6 19
M  V30 22 1 6 20
M  V30 23 1 7 21
M  V30 24 1 7 22
M  V30 25 1 8 23
M  V30 26 1 8 24
M  V30 27 1 9 25
M  V30 28 1 10 26
M  V30 29 1 11 27
M  V30 30 1 12 28
M  V30 31 1 12 29
M  V30 32 1 13 30
M  V30 33 1 14 31
M  V30 34 1 17 32 CFG=1
M  V30 END BOND
M  V30 END CTAB
M  END
>  <Ligand_Instance>  (38) 
248_B_1

>  <Dataset>  (38) 
CF

>  <PDB_ID>  (38) 
None

>  <Chain>  (38) 
B

>  <Resi>  (38) 
1

>  <Num_Resolved_Atoms>  (38) 
18

>  <Num_H_Atoms_ProtBoundConf>  (38) 
14

>  <Pocket>  (38) 
A

>  <Name>  (38) 
(8aR)‐7‐benzoyl‐hexahydro‐1H‐[1,3]oxazolo[3,4‐a]pyrazin‐3‐one

>  <Num_Not_Resolved_Atoms>  (38) 
0

>  <ATP_Site>  (38) 
True

>  <Peripheral>  (38) 
True

>  <Standardized_SMILES>  (38) 
[H]C1=C([H])C([H])=C(C(=O)N2C([H])([H])C([H])([H])N3C(=O)OC([H])([H])[C@@]3([H])C2([H])[H])C([H])=C1[H]

>  <2D_Mol_H>  (38) 
<rdkit.Chem.rdchem.Mol object at 0x77059d9d9000>

>  <MW>  (38) 
246.266

>  <HBA>  (38) 
3

>  <HBD>  (38) 
0

>  <LogP>  (38) 
0.9632

>  <NRB>  (38) 
1

>  <TPSA>  (38) 
49.85

>  <Num_Heavy_Atoms>  (38) 
18

>  <Ro5>  (38) 
[True, True, True, True, True, True]

>  <Ro5_Fulfilled>  (38) 
True

>  <Ro3>  (38) 
[True, True, True, True]

>  <Ro3_Fulfilled>  (38) 
True

>  <Fsp3>  (38) 
0.384615

>  <Fsp3_0.42>  (38) 
False

>  <Fsp3_0.45>  (38) 
False

>  <Stereogenic_Carbons>  (38) 
1

>  <C_Atoms>  (38) 
13

>  <FCStereo>  (38) 
0.076923

>  <SPS>  (38) 
408

>  <nSPS>  (38) 
22.666667

>  <PBF>  (38) 
0.647792

>  <PBF_0.6>  (38) 
True

>  <nPBF>  (38) 
0.035988

>  <nPBF_0.016>  (38) 
True

>  <PMI1>  (38) 
439.115469

>  <PMI2>  (38) 
2406.305619

>  <PMI3>  (38) 
2714.101169

>  <NPR1>  (38) 
0.16179

>  <NPR2>  (38) 
0.886594

>  <Sum_NPR>  (38) 
1.048384

>  <Sum_NPR_1.07>  (38) 
False

>  <Sum_NPR_1.2>  (38) 
False

>  <MaxAbsEStateIndex>  (38) 
12.251476

>  <MaxEStateIndex>  (38) 
12.251476

>  <MinAbsEStateIndex>  (38) 
0.012882

>  <MinEStateIndex>  (38) 
-0.257583

>  <qed>  (38) 
0.741362

>  <MolWt>  (38) 
246.266

>  <HeavyAtomMolWt>  (38) 
232.154

>  <ExactMolWt>  (38) 
246.100442

>  <NumValenceElectrons>  (38) 
94

>  <NumRadicalElectrons>  (38) 
0

>  <MaxPartialCharge>  (38) 
0.40983

>  <MinPartialCharge>  (38) 
-0.447133

>  <MaxAbsPartialCharge>  (38) 
0.447133

>  <MinAbsPartialCharge>  (38) 
0.40983

>  <FpDensityMorgan1>  (38) 
1.222222

>  <FpDensityMorgan2>  (38) 
2.0

>  <FpDensityMorgan3>  (38) 
2.777778

>  <BCUT2D_MWHI>  (38) 
16.564618

>  <BCUT2D_MWLOW>  (38) 
10.123226

>  <BCUT2D_CHGHI>  (38) 
2.382133

>  <BCUT2D_CHGLO>  (38) 
-2.349005

>  <BCUT2D_LOGPHI>  (38) 
2.187042

>  <BCUT2D_LOGPLOW>  (38) 
-2.532526

>  <BCUT2D_MRHI>  (38) 
5.939729

>  <BCUT2D_MRLOW>  (38) 
0.06167

>  <AvgIpc>  (38) 
2.799843

>  <BalabanJ>  (38) 
1.719613

>  <BertzCT>  (38) 
474.384518

>  <Chi0>  (38) 
12.535169

>  <Chi0n>  (38) 
9.911701

>  <Chi0v>  (38) 
9.911701

>  <Chi1>  (38) 
8.75402

>  <Chi1n>  (38) 
6.032324

>  <Chi1v>  (38) 
6.032324

>  <Chi2n>  (38) 
4.541323

>  <Chi2v>  (38) 
4.541323

>  <Chi3n>  (38) 
3.424386

>  <Chi3v>  (38) 
3.424386

>  <Chi4n>  (38) 
2.436453

>  <Chi4v>  (38) 
2.436453

>  <HallKierAlpha>  (38) 
-2.04

>  <Ipc>  (38) 
24627.42026

>  <Kappa1>  (38) 
11.073462

>  <Kappa2>  (38) 
4.326065

>  <Kappa3>  (38) 
1.813243

>  <LabuteASA>  (38) 
104.930592

>  <PEOE_VSA1>  (38) 
9.636773

>  <PEOE_VSA10>  (38) 
6.606882

>  <PEOE_VSA11>  (38) 
0.0

>  <PEOE_VSA12>  (38) 
0.0

>  <PEOE_VSA13>  (38) 
5.90718

>  <PEOE_VSA14>  (38) 
6.09324

>  <PEOE_VSA2>  (38) 
9.694447

>  <PEOE_VSA3>  (38) 
4.794537

>  <PEOE_VSA4>  (38) 
0.0

>  <PEOE_VSA5>  (38) 
0.0

>  <PEOE_VSA6>  (38) 
18.199101

>  <PEOE_VSA7>  (38) 
12.132734

>  <PEOE_VSA8>  (38) 
25.197721

>  <PEOE_VSA9>  (38) 
6.041841

>  <SMR_VSA1>  (38) 
14.325937

>  <SMR_VSA10>  (38) 
12.00042

>  <SMR_VSA2>  (38) 
0.0

>  <SMR_VSA3>  (38) 
9.799819

>  <SMR_VSA4>  (38) 
0.0

>  <SMR_VSA5>  (38) 
6.041841

>  <SMR_VSA6>  (38) 
26.241151

>  <SMR_VSA7>  (38) 
35.895287

>  <SMR_VSA8>  (38) 
0.0

>  <SMR_VSA9>  (38) 
0.0

>  <SlogP_VSA1>  (38) 
0.0

>  <SlogP_VSA10>  (38) 
4.794537

>  <SlogP_VSA11>  (38) 
0.0

>  <SlogP_VSA12>  (38) 
0.0

>  <SlogP_VSA2>  (38) 
54.083231

>  <SlogP_VSA3>  (38) 
4.736863

>  <SlogP_VSA4>  (38) 
0.0

>  <SlogP_VSA5>  (38) 
10.357989

>  <SlogP_VSA6>  (38) 
30.331835

>  <SlogP_VSA7>  (38) 
0.0

>  <SlogP_VSA8>  (38) 
0.0

>  <SlogP_VSA9>  (38) 
0.0

>  <EState_VSA1>  (38) 
0.0

>  <EState_VSA10>  (38) 
9.589074

>  <EState_VSA11>  (38) 
0.0

>  <EState_VSA2>  (38) 
18.042261

>  <EState_VSA3>  (38) 
31.804603

>  <EState_VSA4>  (38) 
0.0

>  <EState_VSA5>  (38) 
0.0

>  <EState_VSA6>  (38) 
9.799819

>  <EState_VSA7>  (38) 
30.331835

>  <EState_VSA8>  (38) 
0.0

>  <EState_VSA9>  (38) 
4.736863

>  <VSA_EState1>  (38) 
4.982676

>  <VSA_EState10>  (38) 
0.0

>  <VSA_EState2>  (38) 
27.100052

>  <VSA_EState3>  (38) 
0.0

>  <VSA_EState4>  (38) 
0.690918

>  <VSA_EState5>  (38) 
0.022777

>  <VSA_EState6>  (38) 
9.226763

>  <VSA_EState7>  (38) 
-0.257583

>  <VSA_EState8>  (38) 
2.06773

>  <VSA_EState9>  (38) 
0.0

>  <FractionCSP3>  (38) 
0.384615

>  <HeavyAtomCount>  (38) 
18

>  <NHOHCount>  (38) 
0

>  <NOCount>  (38) 
5

>  <NumAliphaticCarbocycles>  (38) 
0

>  <NumAliphaticHeterocycles>  (38) 
2

>  <NumAliphaticRings>  (38) 
2

>  <NumAromaticCarbocycles>  (38) 
1

>  <NumAromaticHeterocycles>  (38) 
0

>  <NumAromaticRings>  (38) 
1

>  <NumHAcceptors>  (38) 
3

>  <NumHDonors>  (38) 
0

>  <NumHeteroatoms>  (38) 
5

>  <NumRotatableBonds>  (38) 
1

>  <NumSaturatedCarbocycles>  (38) 
0

>  <NumSaturatedHeterocycles>  (38) 
2

>  <NumSaturatedRings>  (38) 
2

>  <RingCount>  (38) 
3

>  <MolLogP>  (38) 
0.9632

>  <MolMR>  (38) 
64.1875

>  <fr_Al_COO>  (38) 
0

>  <fr_Al_OH>  (38) 
0

>  <fr_Al_OH_noTert>  (38) 
0

>  <fr_ArN>  (38) 
0

>  <fr_Ar_COO>  (38) 
0

>  <fr_Ar_N>  (38) 
0

>  <fr_Ar_NH>  (38) 
0

>  <fr_Ar_OH>  (38) 
0

>  <fr_COO>  (38) 
0

>  <fr_COO2>  (38) 
0

>  <fr_C_O>  (38) 
2

>  <fr_C_O_noCOO>  (38) 
2

>  <fr_C_S>  (38) 
0

>  <fr_HOCCN>  (38) 
0

>  <fr_Imine>  (38) 
0

>  <fr_NH0>  (38) 
2

>  <fr_NH1>  (38) 
0

>  <fr_NH2>  (38) 
0

>  <fr_N_O>  (38) 
0

>  <fr_Ndealkylation1>  (38) 
0

>  <fr_Ndealkylation2>  (38) 
0

>  <fr_Nhpyrrole>  (38) 
0

>  <fr_SH>  (38) 
0

>  <fr_aldehyde>  (38) 
0

>  <fr_alkyl_carbamate>  (38) 
0

>  <fr_alkyl_halide>  (38) 
0

>  <fr_allylic_oxid>  (38) 
0

>  <fr_amide>  (38) 
2

>  <fr_amidine>  (38) 
0

>  <fr_aniline>  (38) 
0

>  <fr_aryl_methyl>  (38) 
0

>  <fr_azide>  (38) 
0

>  <fr_azo>  (38) 
0

>  <fr_barbitur>  (38) 
0

>  <fr_benzene>  (38) 
1

>  <fr_benzodiazepine>  (38) 
0

>  <fr_bicyclic>  (38) 
1

>  <fr_diazo>  (38) 
0

>  <fr_dihydropyridine>  (38) 
0

>  <fr_epoxide>  (38) 
0

>  <fr_ester>  (38) 
0

>  <fr_ether>  (38) 
1

>  <fr_furan>  (38) 
0

>  <fr_guanido>  (38) 
0

>  <fr_halogen>  (38) 
0

>  <fr_hdrzine>  (38) 
0

>  <fr_hdrzone>  (38) 
0

>  <fr_imidazole>  (38) 
0

>  <fr_imide>  (38) 
0

>  <fr_isocyan>  (38) 
0

>  <fr_isothiocyan>  (38) 
0

>  <fr_ketone>  (38) 
0

>  <fr_ketone_Topliss>  (38) 
0

>  <fr_lactam>  (38) 
0

>  <fr_lactone>  (38) 
1

>  <fr_methoxy>  (38) 
0

>  <fr_morpholine>  (38) 
0

>  <fr_nitrile>  (38) 
0

>  <fr_nitro>  (38) 
0

>  <fr_nitro_arom>  (38) 
0

>  <fr_nitro_arom_nonortho>  (38) 
0

>  <fr_nitroso>  (38) 
0

>  <fr_oxazole>  (38) 
0

>  <fr_oxime>  (38) 
0

>  <fr_para_hydroxylation>  (38) 
0

>  <fr_phenol>  (38) 
0

>  <fr_phenol_noOrthoHbond>  (38) 
0

>  <fr_phos_acid>  (38) 
0

>  <fr_phos_ester>  (38) 
0

>  <fr_piperdine>  (38) 
0

>  <fr_piperzine>  (38) 
1

>  <fr_priamide>  (38) 
0

>  <fr_prisulfonamd>  (38) 
0

>  <fr_pyridine>  (38) 
0

>  <fr_quatN>  (38) 
0

>  <fr_sulfide>  (38) 
0

>  <fr_sulfonamd>  (38) 
0

>  <fr_sulfone>  (38) 
0

>  <fr_term_acetylene>  (38) 
0

>  <fr_tetrazole>  (38) 
0

>  <fr_thiazole>  (38) 
0

>  <fr_thiocyan>  (38) 
0

>  <fr_thiophene>  (38) 
0

>  <fr_unbrch_alkane>  (38) 
0

>  <fr_urea>  (38) 
0

>  <NP_Likeness>  (38) 
-1.19303

$$$$
F264
     RDKit          3D

  0  0  0  0  0  0  0  0  0  0999 V3000
M  V30 BEGIN CTAB
M  V30 COUNTS 38 40 0 0 0
M  V30 BEGIN ATOM
M  V30 1 F -8.578000 2.176000 -40.921000 0
M  V30 2 O -4.330000 -1.466000 -45.010000 0
M  V30 3 O -6.331000 1.955000 -48.571000 0
M  V30 4 N -5.973000 -2.217000 -46.415000 0
M  V30 5 N -5.247000 -0.060000 -46.528000 0
M  V30 6 N -8.680000 2.128000 -45.750000 0
M  V30 7 N -6.383000 2.429000 -45.858000 0
M  V30 8 C -6.722000 -4.490000 -46.715000 0
M  V30 9 C -5.926000 -3.559000 -45.853000 0
M  V30 10 C -7.686000 2.221000 -48.109000 0
M  V30 11 C -5.331000 2.809000 -47.978000 0
M  V30 12 C -4.418000 1.092000 -46.180000 0
M  V30 13 C -6.658000 2.412000 -42.197000 0
M  V30 14 C -6.024000 2.464000 -43.384000 0
M  V30 15 C -8.787000 2.141000 -43.257000 0
M  V30 16 C -5.116000 -1.273000 -45.925000 0
M  V30 17 C -8.018000 2.246000 -42.165000 0
M  V30 18 C -7.640000 2.225000 -46.620000 0
M  V30 19 C -8.145000 2.184000 -44.452000 0
M  V30 20 C -5.069000 2.482000 -46.480000 0 CFG=2
M  V30 21 C -6.787000 2.342000 -44.472000 0
M  V30 22 H -6.618900 -1.991000 -47.144200 0
M  V30 23 H -5.940700 0.047600 -47.240200 0
M  V30 24 H -6.689500 -5.411800 -46.328600 0
M  V30 25 H -7.671400 -4.178300 -46.754200 0
M  V30 26 H -6.336600 -4.501500 -47.637700 0
M  V30 27 H -6.311500 -3.547600 -44.930300 0
M  V30 28 H -4.976700 -3.870800 -45.813800 0
M  V30 29 H -8.306500 1.506500 -48.432300 0
M  V30 30 H -7.996500 3.109800 -48.446200 0
M  V30 31 H -5.638800 3.757800 -48.048600 0
M  V30 32 H -4.475400 2.697600 -48.483500 0
M  V30 33 H -3.565000 1.029500 -46.698200 0
M  V30 34 H -4.217600 1.046900 -45.201300 0
M  V30 35 H -6.140300 2.493900 -41.345400 0
M  V30 36 H -5.033600 2.587500 -43.446800 0
M  V30 37 H -9.779600 2.036700 -43.195000 0
M  V30 38 H -4.524400 3.209800 -46.063100 0
M  V30 END ATOM
M  V30 BEGIN BOND
M  V30 1 1 1 17
M  V30 2 2 2 16
M  V30 3 1 3 10
M  V30 4 1 3 11
M  V30 5 1 4 9
M  V30 6 1 4 16
M  V30 7 1 5 12
M  V30 8 1 5 16
M  V30 9 2 6 18
M  V30 10 1 6 19
M  V30 11 1 7 18
M  V30 12 1 7 20
M  V30 13 1 7 21
M  V30 14 1 8 9
M  V30 15 1 10 18
M  V30 16 1 11 20
M  V30 17 1 12 20
M  V30 18 1 13 14
M  V30 19 2 13 17
M  V30 20 2 14 21
M  V30 21 1 15 17
M  V30 22 2 15 19
M  V30 23 1 19 21
M  V30 24 1 4 22
M  V30 25 1 5 23
M  V30 26 1 8 24
M  V30 27 1 8 25
M  V30 28 1 8 26
M  V30 29 1 9 27
M  V30 30 1 9 28
M  V30 31 1 10 29
M  V30 32 1 10 30
M  V30 33 1 11 31
M  V30 34 1 11 32
M  V30 35 1 12 33
M  V30 36 1 12 34
M  V30 37 1 13 35
M  V30 38 1 14 36
M  V30 39 1 15 37
M  V30 40 1 20 38 CFG=1
M  V30 END BOND
M  V30 END CTAB
M  END
>  <Ligand_Instance>  (39) 
264_B_3

>  <Dataset>  (39) 
CF

>  <PDB_ID>  (39) 
None

>  <Chain>  (39) 
B

>  <Resi>  (39) 
3

>  <Num_Resolved_Atoms>  (39) 
21

>  <Num_H_Atoms_ProtBoundConf>  (39) 
17

>  <Pocket>  (39) 
F

>  <Name>  (39) 
3‐ethyl‐1‐{[(13S)‐5‐fluoro‐11-oxa-1.8-diazatricyclo[7.4.0.0]trideca-2,4,6,8-tetraen-13-yl]methyl}urea

>  <Num_Not_Resolved_Atoms>  (39) 
0

>  <ATP_Site>  (39) 
True

>  <Peripheral>  (39) 
True

>  <Standardized_SMILES>  (39) 
[H]C1=C(F)C([H])=C2N=C3N(C2=C1[H])[C@@]([H])(C([H])([H])N([H])C(=O)N([H])C([H])([H])C([H])([H])[H])C([H])([H])OC3([H])[H]

>  <2D_Mol_H>  (39) 
<rdkit.Chem.rdchem.Mol object at 0x77059d9d90e0>

>  <MW>  (39) 
292.314

>  <HBA>  (39) 
4

>  <HBD>  (39) 
2

>  <LogP>  (39) 
1.5658

>  <NRB>  (39) 
4

>  <TPSA>  (39) 
68.18

>  <Num_Heavy_Atoms>  (39) 
21

>  <Ro5>  (39) 
[True, True, True, True, True, True]

>  <Ro5_Fulfilled>  (39) 
True

>  <Ro3>  (39) 
[True, False, True, True]

>  <Ro3_Fulfilled>  (39) 
True

>  <Fsp3>  (39) 
0.428571

>  <Fsp3_0.42>  (39) 
True

>  <Fsp3_0.45>  (39) 
False

>  <Stereogenic_Carbons>  (39) 
1

>  <C_Atoms>  (39) 
14

>  <FCStereo>  (39) 
0.071429

>  <SPS>  (39) 
368

>  <nSPS>  (39) 
17.52381

>  <PBF>  (39) 
1.156546

>  <PBF_0.6>  (39) 
True

>  <nPBF>  (39) 
0.055074

>  <nPBF_0.016>  (39) 
True

>  <PMI1>  (39) 
1438.68636

>  <PMI2>  (39) 
2213.334016

>  <PMI3>  (39) 
2872.040184

>  <NPR1>  (39) 
0.500928

>  <NPR2>  (39) 
0.770649

>  <Sum_NPR>  (39) 
1.271577

>  <Sum_NPR_1.07>  (39) 
True

>  <Sum_NPR_1.2>  (39) 
True

>  <MaxAbsEStateIndex>  (39) 
13.291166

>  <MaxEStateIndex>  (39) 
13.291166

>  <MinAbsEStateIndex>  (39) 
0.049243

>  <MinEStateIndex>  (39) 
-0.309385

>  <qed>  (39) 
0.901943

>  <MolWt>  (39) 
292.314

>  <HeavyAtomMolWt>  (39) 
275.178

>  <ExactMolWt>  (39) 
292.133554

>  <NumValenceElectrons>  (39) 
112

>  <NumRadicalElectrons>  (39) 
0

>  <MaxPartialCharge>  (39) 
0.314354

>  <MinPartialCharge>  (39) 
-0.371305

>  <MaxAbsPartialCharge>  (39) 
0.371305

>  <MinAbsPartialCharge>  (39) 
0.314354

>  <FpDensityMorgan1>  (39) 
1.52381

>  <FpDensityMorgan2>  (39) 
2.380952

>  <FpDensityMorgan3>  (39) 
3.190476

>  <BCUT2D_MWHI>  (39) 
19.142145

>  <BCUT2D_MWLOW>  (39) 
10.210009

>  <BCUT2D_CHGHI>  (39) 
2.24013

>  <BCUT2D_CHGLO>  (39) 
-2.259383

>  <BCUT2D_LOGPHI>  (39) 
2.25561

>  <BCUT2D_LOGPLOW>  (39) 
-2.404202

>  <BCUT2D_MRHI>  (39) 
5.764394

>  <BCUT2D_MRLOW>  (39) 
0.057206

>  <AvgIpc>  (39) 
2.827515

>  <BalabanJ>  (39) 
1.863021

>  <BertzCT>  (39) 
670.282914

>  <Chi0>  (39) 
14.819626

>  <Chi0n>  (39) 
11.726716

>  <Chi0v>  (39) 
11.726716

>  <Chi1>  (39) 
10.185872

>  <Chi1n>  (39) 
6.94538

>  <Chi1v>  (39) 
6.94538

>  <Chi2n>  (39) 
4.940377

>  <Chi2v>  (39) 
4.940377

>  <Chi3n>  (39) 
3.46671

>  <Chi3v>  (39) 
3.46671

>  <Chi4n>  (39) 
2.575624

>  <Chi4v>  (39) 
2.575624

>  <HallKierAlpha>  (39) 
-2.15

>  <Ipc>  (39) 
88368.336532

>  <Kappa1>  (39) 
13.815789

>  <Kappa2>  (39) 
5.687866

>  <Kappa3>  (39) 
2.687278

>  <LabuteASA>  (39) 
120.840938

>  <PEOE_VSA1>  (39) 
19.93754

>  <PEOE_VSA10>  (39) 
18.248507

>  <PEOE_VSA11>  (39) 
0.0

>  <PEOE_VSA12>  (39) 
0.0

>  <PEOE_VSA13>  (39) 
0.0

>  <PEOE_VSA14>  (39) 
6.031115

>  <PEOE_VSA2>  (39) 
0.0

>  <PEOE_VSA3>  (39) 
14.168931

>  <PEOE_VSA4>  (39) 
0.0

>  <PEOE_VSA5>  (39) 
0.0

>  <PEOE_VSA6>  (39) 
0.0

>  <PEOE_VSA7>  (39) 
19.056471

>  <PEOE_VSA8>  (39) 
19.15588

>  <PEOE_VSA9>  (39) 
23.682124

>  <SMR_VSA1>  (39) 
13.921815

>  <SMR_VSA10>  (39) 
17.064516

>  <SMR_VSA2>  (39) 
0.0

>  <SMR_VSA3>  (39) 
20.184655

>  <SMR_VSA4>  (39) 
0.0

>  <SMR_VSA5>  (39) 
19.57246

>  <SMR_VSA6>  (39) 
19.696395

>  <SMR_VSA7>  (39) 
29.840727

>  <SMR_VSA8>  (39) 
0.0

>  <SMR_VSA9>  (39) 
0.0

>  <SlogP_VSA1>  (39) 
10.633577

>  <SlogP_VSA10>  (39) 
9.184952

>  <SlogP_VSA11>  (39) 
0.0

>  <SlogP_VSA12>  (39) 
0.0

>  <SlogP_VSA2>  (39) 
35.278587

>  <SlogP_VSA3>  (39) 
11.343745

>  <SlogP_VSA4>  (39) 
5.817221

>  <SlogP_VSA5>  (39) 
18.789983

>  <SlogP_VSA6>  (39) 
18.199101

>  <SlogP_VSA7>  (39) 
0.0

>  <SlogP_VSA8>  (39) 
11.033401

>  <SlogP_VSA9>  (39) 
0.0

>  <EState_VSA1>  (39) 
0.0

>  <EState_VSA10>  (39) 
9.184952

>  <EState_VSA11>  (39) 
0.0

>  <EState_VSA2>  (39) 
17.890176

>  <EState_VSA3>  (39) 
31.819977

>  <EState_VSA4>  (39) 
11.341105

>  <EState_VSA5>  (39) 
12.132734

>  <EState_VSA6>  (39) 
6.066367

>  <EState_VSA7>  (39) 
11.490837

>  <EState_VSA8>  (39) 
15.617556

>  <EState_VSA9>  (39) 
4.736863

>  <VSA_EState1>  (39) 
20.821352

>  <VSA_EState10>  (39) 
0.0

>  <VSA_EState2>  (39) 
15.904088

>  <VSA_EState3>  (39) 
5.489531

>  <VSA_EState4>  (39) 
1.468435

>  <VSA_EState5>  (39) 
0.444827

>  <VSA_EState6>  (39) 
4.28573

>  <VSA_EState7>  (39) 
0.0

>  <VSA_EState8>  (39) 
3.752703

>  <VSA_EState9>  (39) 
0.0

>  <FractionCSP3>  (39) 
0.428571

>  <HeavyAtomCount>  (39) 
21

>  <NHOHCount>  (39) 
2

>  <NOCount>  (39) 
6

>  <NumAliphaticCarbocycles>  (39) 
0

>  <NumAliphaticHeterocycles>  (39) 
1

>  <NumAliphaticRings>  (39) 
1

>  <NumAromaticCarbocycles>  (39) 
1

>  <NumAromaticHeterocycles>  (39) 
1

>  <NumAromaticRings>  (39) 
2

>  <NumHAcceptors>  (39) 
4

>  <NumHDonors>  (39) 
2

>  <NumHeteroatoms>  (39) 
7

>  <NumRotatableBonds>  (39) 
3

>  <NumSaturatedCarbocycles>  (39) 
0

>  <NumSaturatedHeterocycles>  (39) 
0

>  <NumSaturatedRings>  (39) 
0

>  <RingCount>  (39) 
3

>  <MolLogP>  (39) 
1.5658

>  <MolMR>  (39) 
75.4594

>  <fr_Al_COO>  (39) 
0

>  <fr_Al_OH>  (39) 
0

>  <fr_Al_OH_noTert>  (39) 
0

>  <fr_ArN>  (39) 
0

>  <fr_Ar_COO>  (39) 
0

>  <fr_Ar_N>  (39) 
2

>  <fr_Ar_NH>  (39) 
0

>  <fr_Ar_OH>  (39) 
0

>  <fr_COO>  (39) 
0

>  <fr_COO2>  (39) 
0

>  <fr_C_O>  (39) 
1

>  <fr_C_O_noCOO>  (39) 
1

>  <fr_C_S>  (39) 
0

>  <fr_HOCCN>  (39) 
0

>  <fr_Imine>  (39) 
0

>  <fr_NH0>  (39) 
2

>  <fr_NH1>  (39) 
2

>  <fr_NH2>  (39) 
0

>  <fr_N_O>  (39) 
0

>  <fr_Ndealkylation1>  (39) 
0

>  <fr_Ndealkylation2>  (39) 
0

>  <fr_Nhpyrrole>  (39) 
0

>  <fr_SH>  (39) 
0

>  <fr_aldehyde>  (39) 
0

>  <fr_alkyl_carbamate>  (39) 
0

>  <fr_alkyl_halide>  (39) 
0

>  <fr_allylic_oxid>  (39) 
0

>  <fr_amide>  (39) 
2

>  <fr_amidine>  (39) 
0

>  <fr_aniline>  (39) 
0

>  <fr_aryl_methyl>  (39) 
0

>  <fr_azide>  (39) 
0

>  <fr_azo>  (39) 
0

>  <fr_barbitur>  (39) 
0

>  <fr_benzene>  (39) 
1

>  <fr_benzodiazepine>  (39) 
0

>  <fr_bicyclic>  (39) 
3

>  <fr_diazo>  (39) 
0

>  <fr_dihydropyridine>  (39) 
0

>  <fr_epoxide>  (39) 
0

>  <fr_ester>  (39) 
0

>  <fr_ether>  (39) 
1

>  <fr_furan>  (39) 
0

>  <fr_guanido>  (39) 
0

>  <fr_halogen>  (39) 
1

>  <fr_hdrzine>  (39) 
0

>  <fr_hdrzone>  (39) 
0

>  <fr_imidazole>  (39) 
1

>  <fr_imide>  (39) 
0

>  <fr_isocyan>  (39) 
0

>  <fr_isothiocyan>  (39) 
0

>  <fr_ketone>  (39) 
0

>  <fr_ketone_Topliss>  (39) 
0

>  <fr_lactam>  (39) 
0

>  <fr_lactone>  (39) 
0

>  <fr_methoxy>  (39) 
0

>  <fr_morpholine>  (39) 
0

>  <fr_nitrile>  (39) 
0

>  <fr_nitro>  (39) 
0

>  <fr_nitro_arom>  (39) 
0

>  <fr_nitro_arom_nonortho>  (39) 
0

>  <fr_nitroso>  (39) 
0

>  <fr_oxazole>  (39) 
0

>  <fr_oxime>  (39) 
0

>  <fr_para_hydroxylation>  (39) 
0

>  <fr_phenol>  (39) 
0

>  <fr_phenol_noOrthoHbond>  (39) 
0

>  <fr_phos_acid>  (39) 
0

>  <fr_phos_ester>  (39) 
0

>  <fr_piperdine>  (39) 
0

>  <fr_piperzine>  (39) 
0

>  <fr_priamide>  (39) 
0

>  <fr_prisulfonamd>  (39) 
0

>  <fr_pyridine>  (39) 
0

>  <fr_quatN>  (39) 
0

>  <fr_sulfide>  (39) 
0

>  <fr_sulfonamd>  (39) 
0

>  <fr_sulfone>  (39) 
0

>  <fr_term_acetylene>  (39) 
0

>  <fr_tetrazole>  (39) 
0

>  <fr_thiazole>  (39) 
0

>  <fr_thiocyan>  (39) 
0

>  <fr_thiophene>  (39) 
0

>  <fr_unbrch_alkane>  (39) 
0

>  <fr_urea>  (39) 
1

>  <NP_Likeness>  (39) 
-1.821692

$$$$
F274
     RDKit          3D

  0  0  0  0  0  0  0  0  0  0999 V3000
M  V30 BEGIN CTAB
M  V30 COUNTS 36 37 0 0 0
M  V30 BEGIN ATOM
M  V30 1 O -9.406000 6.508000 -18.083000 0
M  V30 2 N -7.450000 1.406000 -19.484000 0 CHG=1
M  V30 3 N -11.876000 2.902000 -19.317000 0
M  V30 4 N -9.807000 4.018000 -19.455000 0
M  V30 5 C -10.342000 4.795000 -20.562000 0
M  V30 6 C -14.156000 1.929000 -19.342000 0
M  V30 7 C -8.418000 5.976000 -18.976000 0
M  V30 8 C -7.579000 2.497000 -20.454000 0
M  V30 9 C -8.442000 1.345000 -18.382000 0
M  V30 10 C -7.340000 3.871000 -19.845000 0
M  V30 11 C -12.098000 0.692000 -18.639000 0
M  V30 12 C -10.763000 0.644000 -18.463000 0
M  V30 13 C -10.501000 2.814000 -19.107000 0
M  V30 14 C -12.682000 1.811000 -19.099000 0
M  V30 15 C -8.496000 4.455000 -19.015000 0 CFG=2
M  V30 16 C -9.907000 1.679000 -18.652000 0
M  V30 17 H -9.340600 7.505800 -18.069700 0
M  V30 18 H -6.544200 1.481900 -19.067200 0
M  V30 19 H -9.774000 5.605400 -20.705700 0
M  V30 20 H -10.342200 4.236800 -21.391700 0
M  V30 21 H -11.277600 5.077100 -20.349800 0
M  V30 22 H -14.598300 1.055400 -19.138900 0
M  V30 23 H -14.535500 2.640300 -18.750300 0
M  V30 24 H -14.317800 2.170000 -20.298900 0
M  V30 25 H -7.509100 6.250800 -18.662300 0
M  V30 26 H -8.576700 6.337100 -19.894900 0
M  V30 27 H -8.502800 2.475000 -20.836300 0
M  V30 28 H -6.912200 2.352900 -21.185100 0
M  V30 29 H -8.127300 1.978700 -17.675300 0
M  V30 30 H -8.420100 0.410900 -18.025700 0
M  V30 31 H -7.149000 4.507200 -20.592500 0
M  V30 32 H -6.539100 3.806000 -19.249700 0
M  V30 33 H -12.656900 -0.109400 -18.426100 0
M  V30 34 H -10.370600 -0.227400 -18.168500 0
M  V30 35 H -8.377500 4.130400 -18.076600 0
M  V30 36 H -7.512700 0.546200 -19.990800 0
M  V30 END ATOM
M  V30 BEGIN BOND
M  V30 1 1 1 7
M  V30 2 1 2 8
M  V30 3 1 2 9
M  V30 4 2 3 13
M  V30 5 1 3 14
M  V30 6 1 4 5
M  V30 7 1 4 13
M  V30 8 1 4 15
M  V30 9 1 6 14
M  V30 10 1 7 15
M  V30 11 1 8 10
M  V30 12 1 9 16
M  V30 13 1 10 15
M  V30 14 1 11 12
M  V30 15 2 11 14
M  V30 16 2 12 16
M  V30 17 1 13 16
M  V30 18 1 1 17
M  V30 19 1 2 18
M  V30 20 1 5 19
M  V30 21 1 5 20
M  V30 22 1 5 21
M  V30 23 1 6 22
M  V30 24 1 6 23
M  V30 25 1 6 24
M  V30 26 1 7 25
M  V30 27 1 7 26
M  V30 28 1 8 27
M  V30 29 1 8 28
M  V30 30 1 9 29
M  V30 31 1 9 30
M  V30 32 1 10 31
M  V30 33 1 10 32
M  V30 34 1 11 33
M  V30 35 1 12 34
M  V30 36 1 15 35 CFG=1
M  V30 37 1 2 36
M  V30 END BOND
M  V30 END CTAB
M  END
>  <Ligand_Instance>  (40) 
274_A_401

>  <Dataset>  (40) 
CF

>  <PDB_ID>  (40) 
None

>  <Chain>  (40) 
A

>  <Resi>  (40) 
401

>  <Num_Resolved_Atoms>  (40) 
16

>  <Num_H_Atoms_ProtBoundConf>  (40) 
20

>  <Pocket>  (40) 
A

>  <Name>  (40) 
[(2S)‐1,9‐dimethyl‐1H,2H,3H,4H,5H,6H‐pyrido[2,3‐b][1,5]diazocin‐2‐yl]methanol

>  <Num_Not_Resolved_Atoms>  (40) 
0

>  <ATP_Site>  (40) 
True

>  <Peripheral>  (40) 
True

>  <Standardized_SMILES>  (40) 
[H]OC([H])([H])[C@@]1([H])N(C([H])([H])[H])C2=NC(C([H])([H])[H])=C([H])C([H])=C2C([H])([H])[N+]([H])([H])C([H])([H])C1([H])[H]

>  <2D_Mol_H>  (40) 
<rdkit.Chem.rdchem.Mol object at 0x77059d9d91c0>

>  <MW>  (40) 
222.312

>  <HBA>  (40) 
3

>  <HBD>  (40) 
2

>  <LogP>  (40) 
-0.34578

>  <NRB>  (40) 
4

>  <TPSA>  (40) 
52.97

>  <Num_Heavy_Atoms>  (40) 
16

>  <Ro5>  (40) 
[True, True, True, True, True, True]

>  <Ro5_Fulfilled>  (40) 
True

>  <Ro3>  (40) 
[True, True, True, True]

>  <Ro3_Fulfilled>  (40) 
True

>  <Fsp3>  (40) 
0.583333

>  <Fsp3_0.42>  (40) 
True

>  <Fsp3_0.45>  (40) 
True

>  <Stereogenic_Carbons>  (40) 
1

>  <C_Atoms>  (40) 
12

>  <FCStereo>  (40) 
0.083333

>  <SPS>  (40) 
339

>  <nSPS>  (40) 
21.1875

>  <PBF>  (40) 
0.775098

>  <PBF_0.6>  (40) 
True

>  <nPBF>  (40) 
0.048444

>  <nPBF_0.016>  (40) 
True

>  <PMI1>  (40) 
685.566616

>  <PMI2>  (40) 
1179.172376

>  <PMI3>  (40) 
1631.67727

>  <NPR1>  (40) 
0.420161

>  <NPR2>  (40) 
0.722675

>  <Sum_NPR>  (40) 
1.142836

>  <Sum_NPR_1.07>  (40) 
True

>  <Sum_NPR_1.2>  (40) 
False

>  <MaxAbsEStateIndex>  (40) 
9.389821

>  <MaxEStateIndex>  (40) 
9.389821

>  <MinAbsEStateIndex>  (40) 
0.184815

>  <MinEStateIndex>  (40) 
0.184815

>  <qed>  (40) 
0.682981

>  <MolWt>  (40) 
222.312

>  <HeavyAtomMolWt>  (40) 
202.152

>  <ExactMolWt>  (40) 
222.160089

>  <NumValenceElectrons>  (40) 
88

>  <NumRadicalElectrons>  (40) 
0

>  <MaxPartialCharge>  (40) 
0.137291

>  <MinPartialCharge>  (40) 
-0.394232

>  <MaxAbsPartialCharge>  (40) 
0.394232

>  <MinAbsPartialCharge>  (40) 
0.137291

>  <FpDensityMorgan1>  (40) 
1.5625

>  <FpDensityMorgan2>  (40) 
2.375

>  <FpDensityMorgan3>  (40) 
3.125

>  <BCUT2D_MWHI>  (40) 
16.252666

>  <BCUT2D_MWLOW>  (40) 
10.098746

>  <BCUT2D_CHGHI>  (40) 
2.213544

>  <BCUT2D_CHGLO>  (40) 
-2.302547

>  <BCUT2D_LOGPHI>  (40) 
2.200961

>  <BCUT2D_LOGPLOW>  (40) 
-2.832387

>  <BCUT2D_MRHI>  (40) 
5.474611

>  <BCUT2D_MRLOW>  (40) 
-0.67097

>  <AvgIpc>  (40) 
2.277645

>  <BalabanJ>  (40) 
2.372771

>  <BertzCT>  (40) 
367.281547

>  <Chi0>  (40) 
11.543606

>  <Chi0n>  (40) 
9.979469

>  <Chi0v>  (40) 
9.979469

>  <Chi1>  (40) 
7.719545

>  <Chi1n>  (40) 
5.839691

>  <Chi1v>  (40) 
5.839691

>  <Chi2n>  (40) 
4.452816

>  <Chi2v>  (40) 
4.452816

>  <Chi3n>  (40) 
3.256013

>  <Chi3v>  (40) 
3.256013

>  <Chi4n>  (40) 
2.184708

>  <Chi4v>  (40) 
2.184708

>  <HallKierAlpha>  (40) 
-1.13

>  <Ipc>  (40) 
4851.383692

>  <Kappa1>  (40) 
11.358214

>  <Kappa2>  (40) 
4.803259

>  <Kappa3>  (40) 
2.175637

>  <LabuteASA>  (40) 
96.303744

>  <PEOE_VSA1>  (40) 
15.323226

>  <PEOE_VSA10>  (40) 
12.362619

>  <PEOE_VSA11>  (40) 
0.0

>  <PEOE_VSA12>  (40) 
0.0

>  <PEOE_VSA13>  (40) 
0.0

>  <PEOE_VSA14>  (40) 
0.0

>  <PEOE_VSA2>  (40) 
0.0

>  <PEOE_VSA3>  (40) 
4.983979

>  <PEOE_VSA4>  (40) 
0.0

>  <PEOE_VSA5>  (40) 
0.0

>  <PEOE_VSA6>  (40) 
0.0

>  <PEOE_VSA7>  (40) 
19.056471

>  <PEOE_VSA8>  (40) 
24.725873

>  <PEOE_VSA9>  (40) 
19.193479

>  <SMR_VSA1>  (40) 
10.423316

>  <SMR_VSA10>  (40) 
5.817863

>  <SMR_VSA2>  (40) 
0.0

>  <SMR_VSA3>  (40) 
4.983979

>  <SMR_VSA4>  (40) 
0.0

>  <SMR_VSA5>  (40) 
25.931156

>  <SMR_VSA6>  (40) 
25.09922

>  <SMR_VSA7>  (40) 
23.390114

>  <SMR_VSA8>  (40) 
0.0

>  <SMR_VSA9>  (40) 
0.0

>  <SlogP_VSA1>  (40) 
10.216698

>  <SlogP_VSA10>  (40) 
5.817863

>  <SlogP_VSA11>  (40) 
0.0

>  <SlogP_VSA12>  (40) 
0.0

>  <SlogP_VSA2>  (40) 
36.331657

>  <SlogP_VSA3>  (40) 
6.544756

>  <SlogP_VSA4>  (40) 
6.923737

>  <SlogP_VSA5>  (40) 
17.678201

>  <SlogP_VSA6>  (40) 
12.132734

>  <SlogP_VSA7>  (40) 
0.0

>  <SlogP_VSA8>  (40) 
0.0

>  <SlogP_VSA9>  (40) 
0.0

>  <EState_VSA1>  (40) 
0.0

>  <EState_VSA10>  (40) 
5.106527

>  <EState_VSA11>  (40) 
0.0

>  <EState_VSA2>  (40) 
12.648723

>  <EState_VSA3>  (40) 
0.0

>  <EState_VSA4>  (40) 
31.022125

>  <EState_VSA5>  (40) 
5.563451

>  <EState_VSA6>  (40) 
0.0

>  <EState_VSA7>  (40) 
13.971409

>  <EState_VSA8>  (40) 
27.333411

>  <EState_VSA9>  (40) 
0.0

>  <VSA_EState1>  (40) 
0.0

>  <VSA_EState10>  (40) 
0.0

>  <VSA_EState2>  (40) 
6.709769

>  <VSA_EState3>  (40) 
11.673062

>  <VSA_EState4>  (40) 
2.286216

>  <VSA_EState5>  (40) 
1.023148

>  <VSA_EState6>  (40) 
4.379748

>  <VSA_EState7>  (40) 
1.002046

>  <VSA_EState8>  (40) 
4.234067

>  <VSA_EState9>  (40) 
2.025278

>  <FractionCSP3>  (40) 
0.583333

>  <HeavyAtomCount>  (40) 
16

>  <NHOHCount>  (40) 
3

>  <NOCount>  (40) 
4

>  <NumAliphaticCarbocycles>  (40) 
0

>  <NumAliphaticHeterocycles>  (40) 
1

>  <NumAliphaticRings>  (40) 
1

>  <NumAromaticCarbocycles>  (40) 
0

>  <NumAromaticHeterocycles>  (40) 
1

>  <NumAromaticRings>  (40) 
1

>  <NumHAcceptors>  (40) 
3

>  <NumHDonors>  (40) 
2

>  <NumHeteroatoms>  (40) 
4

>  <NumRotatableBonds>  (40) 
1

>  <NumSaturatedCarbocycles>  (40) 
0

>  <NumSaturatedHeterocycles>  (40) 
0

>  <NumSaturatedRings>  (40) 
0

>  <RingCount>  (40) 
2

>  <MolLogP>  (40) 
-0.34578

>  <MolMR>  (40) 
63.3642

>  <fr_Al_COO>  (40) 
0

>  <fr_Al_OH>  (40) 
1

>  <fr_Al_OH_noTert>  (40) 
1

>  <fr_ArN>  (40) 
0

>  <fr_Ar_COO>  (40) 
0

>  <fr_Ar_N>  (40) 
1

>  <fr_Ar_NH>  (40) 
0

>  <fr_Ar_OH>  (40) 
0

>  <fr_COO>  (40) 
0

>  <fr_COO2>  (40) 
0

>  <fr_C_O>  (40) 
0

>  <fr_C_O_noCOO>  (40) 
0

>  <fr_C_S>  (40) 
0

>  <fr_HOCCN>  (40) 
0

>  <fr_Imine>  (40) 
0

>  <fr_NH0>  (40) 
2

>  <fr_NH1>  (40) 
0

>  <fr_NH2>  (40) 
1

>  <fr_N_O>  (40) 
0

>  <fr_Ndealkylation1>  (40) 
1

>  <fr_Ndealkylation2>  (40) 
0

>  <fr_Nhpyrrole>  (40) 
0

>  <fr_SH>  (40) 
0

>  <fr_aldehyde>  (40) 
0

>  <fr_alkyl_carbamate>  (40) 
0

>  <fr_alkyl_halide>  (40) 
0

>  <fr_allylic_oxid>  (40) 
0

>  <fr_amide>  (40) 
0

>  <fr_amidine>  (40) 
0

>  <fr_aniline>  (40) 
1

>  <fr_aryl_methyl>  (40) 
1

>  <fr_azide>  (40) 
0

>  <fr_azo>  (40) 
0

>  <fr_barbitur>  (40) 
0

>  <fr_benzene>  (40) 
0

>  <fr_benzodiazepine>  (40) 
0

>  <fr_bicyclic>  (40) 
1

>  <fr_diazo>  (40) 
0

>  <fr_dihydropyridine>  (40) 
0

>  <fr_epoxide>  (40) 
0

>  <fr_ester>  (40) 
0

>  <fr_ether>  (40) 
0

>  <fr_furan>  (40) 
0

>  <fr_guanido>  (40) 
0

>  <fr_halogen>  (40) 
0

>  <fr_hdrzine>  (40) 
0

>  <fr_hdrzone>  (40) 
0

>  <fr_imidazole>  (40) 
0

>  <fr_imide>  (40) 
0

>  <fr_isocyan>  (40) 
0

>  <fr_isothiocyan>  (40) 
0

>  <fr_ketone>  (40) 
0

>  <fr_ketone_Topliss>  (40) 
0

>  <fr_lactam>  (40) 
0

>  <fr_lactone>  (40) 
0

>  <fr_methoxy>  (40) 
0

>  <fr_morpholine>  (40) 
0

>  <fr_nitrile>  (40) 
0

>  <fr_nitro>  (40) 
0

>  <fr_nitro_arom>  (40) 
0

>  <fr_nitro_arom_nonortho>  (40) 
0

>  <fr_nitroso>  (40) 
0

>  <fr_oxazole>  (40) 
0

>  <fr_oxime>  (40) 
0

>  <fr_para_hydroxylation>  (40) 
0

>  <fr_phenol>  (40) 
0

>  <fr_phenol_noOrthoHbond>  (40) 
0

>  <fr_phos_acid>  (40) 
0

>  <fr_phos_ester>  (40) 
0

>  <fr_piperdine>  (40) 
0

>  <fr_piperzine>  (40) 
0

>  <fr_priamide>  (40) 
0

>  <fr_prisulfonamd>  (40) 
0

>  <fr_pyridine>  (40) 
1

>  <fr_quatN>  (40) 
1

>  <fr_sulfide>  (40) 
0

>  <fr_sulfonamd>  (40) 
0

>  <fr_sulfone>  (40) 
0

>  <fr_term_acetylene>  (40) 
0

>  <fr_tetrazole>  (40) 
0

>  <fr_thiazole>  (40) 
0

>  <fr_thiocyan>  (40) 
0

>  <fr_thiophene>  (40) 
0

>  <fr_unbrch_alkane>  (40) 
0

>  <fr_urea>  (40) 
0

>  <NP_Likeness>  (40) 
-0.276887

$$$$
F274
     RDKit          3D

  0  0  0  0  0  0  0  0  0  0999 V3000
M  V30 BEGIN CTAB
M  V30 COUNTS 36 37 0 0 0
M  V30 BEGIN ATOM
M  V30 1 O -17.924000 17.444000 -39.698000 0
M  V30 2 N -23.138000 18.464000 -41.298000 0 CHG=1
M  V30 3 N -19.510000 17.015000 -43.700000 0
M  V30 4 N -20.028000 16.832000 -41.415000 0
M  V30 5 C -19.642000 15.398000 -41.474000 0
M  V30 6 C -18.737000 16.928000 -46.046000 0
M  V30 7 C -19.175000 17.158000 -39.088000 0
M  V30 8 C -22.753000 17.202000 -40.670000 0
M  V30 9 C -22.103000 19.277000 -41.943000 0
M  V30 10 C -21.688000 17.392000 -39.581000 0
M  V30 11 C -20.461000 18.550000 -45.207000 0
M  V30 12 C -21.213000 19.025000 -44.191000 0
M  V30 13 C -20.272000 17.531000 -42.667000 0
M  V30 14 C -19.604000 17.534000 -44.976000 0
M  V30 15 C -20.257000 17.488000 -40.119000 0 CFG=2
M  V30 16 C -21.148000 18.567000 -42.893000 0
M  V30 17 H -17.185500 17.241200 -39.055000 0
M  V30 18 H -23.556000 19.030200 -40.587600 0
M  V30 19 H -19.507400 15.050600 -40.546000 0
M  V30 20 H -20.366800 14.875900 -41.923500 0
M  V30 21 H -18.792100 15.302600 -41.992200 0
M  V30 22 H -18.904100 17.394800 -46.914500 0
M  V30 23 H -17.775000 17.029500 -45.792700 0
M  V30 24 H -18.955700 15.956900 -46.142000 0
M  V30 25 H -19.295800 17.720900 -38.270400 0
M  V30 26 H -19.222300 16.191200 -38.837000 0
M  V30 27 H -22.388300 16.591500 -41.373000 0
M  V30 28 H -23.564300 16.788000 -40.257200 0
M  V30 29 H -21.552600 19.692400 -41.218700 0
M  V30 30 H -22.565700 19.994800 -42.463200 0
M  V30 31 H -21.736800 16.614200 -38.954300 0
M  V30 32 H -21.894000 18.234500 -39.083300 0
M  V30 33 H -20.538600 18.947300 -46.121400 0
M  V30 34 H -21.861000 19.758900 -44.394400 0
M  V30 35 H -20.129000 18.461500 -40.308700 0
M  V30 36 H -23.820100 18.248400 -41.996700 0
M  V30 END ATOM
M  V30 BEGIN BOND
M  V30 1 1 1 7
M  V30 2 1 2 8
M  V30 3 1 2 9
M  V30 4 2 3 13
M  V30 5 1 3 14
M  V30 6 1 4 5
M  V30 7 1 4 13
M  V30 8 1 4 15
M  V30 9 1 6 14
M  V30 10 1 7 15
M  V30 11 1 8 10
M  V30 12 1 9 16
M  V30 13 1 10 15
M  V30 14 1 11 12
M  V30 15 2 11 14
M  V30 16 2 12 16
M  V30 17 1 13 16
M  V30 18 1 1 17
M  V30 19 1 2 18
M  V30 20 1 5 19
M  V30 21 1 5 20
M  V30 22 1 5 21
M  V30 23 1 6 22
M  V30 24 1 6 23
M  V30 25 1 6 24
M  V30 26 1 7 25
M  V30 27 1 7 26
M  V30 28 1 8 27
M  V30 29 1 8 28
M  V30 30 1 9 29
M  V30 31 1 9 30
M  V30 32 1 10 31
M  V30 33 1 10 32
M  V30 34 1 11 33
M  V30 35 1 12 34
M  V30 36 1 15 35 CFG=3
M  V30 37 1 2 36
M  V30 END BOND
M  V30 END CTAB
M  END
>  <Ligand_Instance>  (41) 
274_A_501

>  <Dataset>  (41) 
CF

>  <PDB_ID>  (41) 
None

>  <Chain>  (41) 
A

>  <Resi>  (41) 
501

>  <Num_Resolved_Atoms>  (41) 
16

>  <Num_H_Atoms_ProtBoundConf>  (41) 
20

>  <Pocket>  (41) 
X

>  <Name>  (41) 
[(2S)‐1,9‐dimethyl‐1H,2H,3H,4H,5H,6H‐pyrido[2,3‐b][1,5]diazocin‐2‐yl]methanol

>  <Num_Not_Resolved_Atoms>  (41) 
0

>  <ATP_Site>  (41) 
True

>  <Peripheral>  (41) 
True

>  <Standardized_SMILES>  (41) 
[H]OC([H])([H])[C@@]1([H])N(C([H])([H])[H])C2=NC(C([H])([H])[H])=C([H])C([H])=C2C([H])([H])[N+]([H])([H])C([H])([H])C1([H])[H]

>  <2D_Mol_H>  (41) 
<rdkit.Chem.rdchem.Mol object at 0x77059d9d92a0>

>  <MW>  (41) 
222.312

>  <HBA>  (41) 
3

>  <HBD>  (41) 
2

>  <LogP>  (41) 
-0.34578

>  <NRB>  (41) 
4

>  <TPSA>  (41) 
52.97

>  <Num_Heavy_Atoms>  (41) 
16

>  <Ro5>  (41) 
[True, True, True, True, True, True]

>  <Ro5_Fulfilled>  (41) 
True

>  <Ro3>  (41) 
[True, True, True, True]

>  <Ro3_Fulfilled>  (41) 
True

>  <Fsp3>  (41) 
0.583333

>  <Fsp3_0.42>  (41) 
True

>  <Fsp3_0.45>  (41) 
True

>  <Stereogenic_Carbons>  (41) 
1

>  <C_Atoms>  (41) 
12

>  <FCStereo>  (41) 
0.083333

>  <SPS>  (41) 
339

>  <nSPS>  (41) 
21.1875

>  <PBF>  (41) 
0.815012

>  <PBF_0.6>  (41) 
True

>  <nPBF>  (41) 
0.050938

>  <nPBF_0.016>  (41) 
True

>  <PMI1>  (41) 
696.3446

>  <PMI2>  (41) 
1162.642198

>  <PMI3>  (41) 
1596.717682

>  <NPR1>  (41) 
0.43611

>  <NPR2>  (41) 
0.728145

>  <Sum_NPR>  (41) 
1.164255

>  <Sum_NPR_1.07>  (41) 
True

>  <Sum_NPR_1.2>  (41) 
False

>  <MaxAbsEStateIndex>  (41) 
9.389821

>  <MaxEStateIndex>  (41) 
9.389821

>  <MinAbsEStateIndex>  (41) 
0.184815

>  <MinEStateIndex>  (41) 
0.184815

>  <qed>  (41) 
0.682981

>  <MolWt>  (41) 
222.312

>  <HeavyAtomMolWt>  (41) 
202.152

>  <ExactMolWt>  (41) 
222.160089

>  <NumValenceElectrons>  (41) 
88

>  <NumRadicalElectrons>  (41) 
0

>  <MaxPartialCharge>  (41) 
0.137291

>  <MinPartialCharge>  (41) 
-0.394232

>  <MaxAbsPartialCharge>  (41) 
0.394232

>  <MinAbsPartialCharge>  (41) 
0.137291

>  <FpDensityMorgan1>  (41) 
1.5625

>  <FpDensityMorgan2>  (41) 
2.375

>  <FpDensityMorgan3>  (41) 
3.125

>  <BCUT2D_MWHI>  (41) 
16.252666

>  <BCUT2D_MWLOW>  (41) 
10.098746

>  <BCUT2D_CHGHI>  (41) 
2.213544

>  <BCUT2D_CHGLO>  (41) 
-2.302547

>  <BCUT2D_LOGPHI>  (41) 
2.200961

>  <BCUT2D_LOGPLOW>  (41) 
-2.832387

>  <BCUT2D_MRHI>  (41) 
5.474611

>  <BCUT2D_MRLOW>  (41) 
-0.67097

>  <AvgIpc>  (41) 
2.277645

>  <BalabanJ>  (41) 
2.372771

>  <BertzCT>  (41) 
367.281547

>  <Chi0>  (41) 
11.543606

>  <Chi0n>  (41) 
9.979469

>  <Chi0v>  (41) 
9.979469

>  <Chi1>  (41) 
7.719545

>  <Chi1n>  (41) 
5.839691

>  <Chi1v>  (41) 
5.839691

>  <Chi2n>  (41) 
4.452816

>  <Chi2v>  (41) 
4.452816

>  <Chi3n>  (41) 
3.256013

>  <Chi3v>  (41) 
3.256013

>  <Chi4n>  (41) 
2.184708

>  <Chi4v>  (41) 
2.184708

>  <HallKierAlpha>  (41) 
-1.13

>  <Ipc>  (41) 
4851.383692

>  <Kappa1>  (41) 
11.358214

>  <Kappa2>  (41) 
4.803259

>  <Kappa3>  (41) 
2.175637

>  <LabuteASA>  (41) 
96.303744

>  <PEOE_VSA1>  (41) 
15.323226

>  <PEOE_VSA10>  (41) 
12.362619

>  <PEOE_VSA11>  (41) 
0.0

>  <PEOE_VSA12>  (41) 
0.0

>  <PEOE_VSA13>  (41) 
0.0

>  <PEOE_VSA14>  (41) 
0.0

>  <PEOE_VSA2>  (41) 
0.0

>  <PEOE_VSA3>  (41) 
4.983979

>  <PEOE_VSA4>  (41) 
0.0

>  <PEOE_VSA5>  (41) 
0.0

>  <PEOE_VSA6>  (41) 
0.0

>  <PEOE_VSA7>  (41) 
19.056471

>  <PEOE_VSA8>  (41) 
24.725873

>  <PEOE_VSA9>  (41) 
19.193479

>  <SMR_VSA1>  (41) 
10.423316

>  <SMR_VSA10>  (41) 
5.817863

>  <SMR_VSA2>  (41) 
0.0

>  <SMR_VSA3>  (41) 
4.983979

>  <SMR_VSA4>  (41) 
0.0

>  <SMR_VSA5>  (41) 
25.931156

>  <SMR_VSA6>  (41) 
25.09922

>  <SMR_VSA7>  (41) 
23.390114

>  <SMR_VSA8>  (41) 
0.0

>  <SMR_VSA9>  (41) 
0.0

>  <SlogP_VSA1>  (41) 
10.216698

>  <SlogP_VSA10>  (41) 
5.817863

>  <SlogP_VSA11>  (41) 
0.0

>  <SlogP_VSA12>  (41) 
0.0

>  <SlogP_VSA2>  (41) 
36.331657

>  <SlogP_VSA3>  (41) 
6.544756

>  <SlogP_VSA4>  (41) 
6.923737

>  <SlogP_VSA5>  (41) 
17.678201

>  <SlogP_VSA6>  (41) 
12.132734

>  <SlogP_VSA7>  (41) 
0.0

>  <SlogP_VSA8>  (41) 
0.0

>  <SlogP_VSA9>  (41) 
0.0

>  <EState_VSA1>  (41) 
0.0

>  <EState_VSA10>  (41) 
5.106527

>  <EState_VSA11>  (41) 
0.0

>  <EState_VSA2>  (41) 
12.648723

>  <EState_VSA3>  (41) 
0.0

>  <EState_VSA4>  (41) 
31.022125

>  <EState_VSA5>  (41) 
5.563451

>  <EState_VSA6>  (41) 
0.0

>  <EState_VSA7>  (41) 
13.971409

>  <EState_VSA8>  (41) 
27.333411

>  <EState_VSA9>  (41) 
0.0

>  <VSA_EState1>  (41) 
0.0

>  <VSA_EState10>  (41) 
0.0

>  <VSA_EState2>  (41) 
6.709769

>  <VSA_EState3>  (41) 
11.673062

>  <VSA_EState4>  (41) 
2.286216

>  <VSA_EState5>  (41) 
1.023148

>  <VSA_EState6>  (41) 
4.379748

>  <VSA_EState7>  (41) 
1.002046

>  <VSA_EState8>  (41) 
4.234067

>  <VSA_EState9>  (41) 
2.025278

>  <FractionCSP3>  (41) 
0.583333

>  <HeavyAtomCount>  (41) 
16

>  <NHOHCount>  (41) 
3

>  <NOCount>  (41) 
4

>  <NumAliphaticCarbocycles>  (41) 
0

>  <NumAliphaticHeterocycles>  (41) 
1

>  <NumAliphaticRings>  (41) 
1

>  <NumAromaticCarbocycles>  (41) 
0

>  <NumAromaticHeterocycles>  (41) 
1

>  <NumAromaticRings>  (41) 
1

>  <NumHAcceptors>  (41) 
3

>  <NumHDonors>  (41) 
2

>  <NumHeteroatoms>  (41) 
4

>  <NumRotatableBonds>  (41) 
1

>  <NumSaturatedCarbocycles>  (41) 
0

>  <NumSaturatedHeterocycles>  (41) 
0

>  <NumSaturatedRings>  (41) 
0

>  <RingCount>  (41) 
2

>  <MolLogP>  (41) 
-0.34578

>  <MolMR>  (41) 
63.3642

>  <fr_Al_COO>  (41) 
0

>  <fr_Al_OH>  (41) 
1

>  <fr_Al_OH_noTert>  (41) 
1

>  <fr_ArN>  (41) 
0

>  <fr_Ar_COO>  (41) 
0

>  <fr_Ar_N>  (41) 
1

>  <fr_Ar_NH>  (41) 
0

>  <fr_Ar_OH>  (41) 
0

>  <fr_COO>  (41) 
0

>  <fr_COO2>  (41) 
0

>  <fr_C_O>  (41) 
0

>  <fr_C_O_noCOO>  (41) 
0

>  <fr_C_S>  (41) 
0

>  <fr_HOCCN>  (41) 
0

>  <fr_Imine>  (41) 
0

>  <fr_NH0>  (41) 
2

>  <fr_NH1>  (41) 
0

>  <fr_NH2>  (41) 
1

>  <fr_N_O>  (41) 
0

>  <fr_Ndealkylation1>  (41) 
1

>  <fr_Ndealkylation2>  (41) 
0

>  <fr_Nhpyrrole>  (41) 
0

>  <fr_SH>  (41) 
0

>  <fr_aldehyde>  (41) 
0

>  <fr_alkyl_carbamate>  (41) 
0

>  <fr_alkyl_halide>  (41) 
0

>  <fr_allylic_oxid>  (41) 
0

>  <fr_amide>  (41) 
0

>  <fr_amidine>  (41) 
0

>  <fr_aniline>  (41) 
1

>  <fr_aryl_methyl>  (41) 
1

>  <fr_azide>  (41) 
0

>  <fr_azo>  (41) 
0

>  <fr_barbitur>  (41) 
0

>  <fr_benzene>  (41) 
0

>  <fr_benzodiazepine>  (41) 
0

>  <fr_bicyclic>  (41) 
1

>  <fr_diazo>  (41) 
0

>  <fr_dihydropyridine>  (41) 
0

>  <fr_epoxide>  (41) 
0

>  <fr_ester>  (41) 
0

>  <fr_ether>  (41) 
0

>  <fr_furan>  (41) 
0

>  <fr_guanido>  (41) 
0

>  <fr_halogen>  (41) 
0

>  <fr_hdrzine>  (41) 
0

>  <fr_hdrzone>  (41) 
0

>  <fr_imidazole>  (41) 
0

>  <fr_imide>  (41) 
0

>  <fr_isocyan>  (41) 
0

>  <fr_isothiocyan>  (41) 
0

>  <fr_ketone>  (41) 
0

>  <fr_ketone_Topliss>  (41) 
0

>  <fr_lactam>  (41) 
0

>  <fr_lactone>  (41) 
0

>  <fr_methoxy>  (41) 
0

>  <fr_morpholine>  (41) 
0

>  <fr_nitrile>  (41) 
0

>  <fr_nitro>  (41) 
0

>  <fr_nitro_arom>  (41) 
0

>  <fr_nitro_arom_nonortho>  (41) 
0

>  <fr_nitroso>  (41) 
0

>  <fr_oxazole>  (41) 
0

>  <fr_oxime>  (41) 
0

>  <fr_para_hydroxylation>  (41) 
0

>  <fr_phenol>  (41) 
0

>  <fr_phenol_noOrthoHbond>  (41) 
0

>  <fr_phos_acid>  (41) 
0

>  <fr_phos_ester>  (41) 
0

>  <fr_piperdine>  (41) 
0

>  <fr_piperzine>  (41) 
0

>  <fr_priamide>  (41) 
0

>  <fr_prisulfonamd>  (41) 
0

>  <fr_pyridine>  (41) 
1

>  <fr_quatN>  (41) 
1

>  <fr_sulfide>  (41) 
0

>  <fr_sulfonamd>  (41) 
0

>  <fr_sulfone>  (41) 
0

>  <fr_term_acetylene>  (41) 
0

>  <fr_tetrazole>  (41) 
0

>  <fr_thiazole>  (41) 
0

>  <fr_thiocyan>  (41) 
0

>  <fr_thiophene>  (41) 
0

>  <fr_unbrch_alkane>  (41) 
0

>  <fr_urea>  (41) 
0

>  <NP_Likeness>  (41) 
-0.276887

$$$$
F274
     RDKit          3D

  0  0  0  0  0  0  0  0  0  0999 V3000
M  V30 BEGIN CTAB
M  V30 COUNTS 36 37 0 0 0
M  V30 BEGIN ATOM
M  V30 1 O -4.539000 5.689000 4.859000 0
M  V30 2 N -9.043000 7.365000 6.819000 0 CHG=1
M  V30 3 N -9.207000 3.002000 5.053000 0
M  V30 4 N -7.555000 4.579000 5.405000 0
M  V30 5 C -6.702000 3.461000 5.788000 0
M  V30 6 C -10.693000 1.093000 4.607000 0
M  V30 7 C -5.746000 5.809000 4.116000 0
M  V30 8 C -7.841000 6.698000 7.306000 0
M  V30 9 C -10.057000 6.656000 6.046000 0
M  V30 10 C -6.718000 6.797000 6.296000 0
M  V30 11 C -11.494000 3.371000 5.232000 0
M  V30 12 C -11.255000 4.658000 5.553000 0
M  V30 13 C -8.976000 4.330000 5.385000 0
M  V30 14 C -10.491000 2.528000 4.976000 0
M  V30 15 C -6.940000 5.876000 5.094000 0 CFG=2
M  V30 16 C -10.004000 5.188000 5.647000 0
M  V30 17 H -3.763100 5.645300 4.229700 0
M  V30 18 H -8.730800 8.121900 6.244900 0
M  V30 19 H -5.744700 3.749300 5.766200 0
M  V30 20 H -6.939100 3.162200 6.712400 0
M  V30 21 H -6.836900 2.704400 5.148200 0
M  V30 22 H -11.671600 0.887900 4.589300 0
M  V30 23 H -10.300300 0.922800 3.703200 0
M  V30 24 H -10.242100 0.508700 5.281700 0
M  V30 25 H -5.849500 5.016000 3.515700 0
M  V30 26 H -5.717900 6.642900 3.564800 0
M  V30 27 H -8.046900 5.733700 7.472500 0
M  V30 28 H -7.551200 7.129300 8.160400 0
M  V30 29 H -10.133000 7.160300 5.185800 0
M  V30 30 H -10.904300 6.756900 6.567500 0
M  V30 31 H -5.859900 6.543100 6.742300 0
M  V30 32 H -6.658500 7.741100 5.971900 0
M  V30 33 H -12.437300 3.042500 5.184900 0
M  V30 34 H -12.037200 5.255000 5.731500 0
M  V30 35 H -7.646500 6.348000 4.566600 0
M  V30 36 H -9.508600 7.728600 7.625800 0
M  V30 END ATOM
M  V30 BEGIN BOND
M  V30 1 1 1 7
M  V30 2 1 2 8
M  V30 3 1 2 9
M  V30 4 2 3 13
M  V30 5 1 3 14
M  V30 6 1 4 5
M  V30 7 1 4 13
M  V30 8 1 4 15
M  V30 9 1 6 14
M  V30 10 1 7 15
M  V30 11 1 8 10
M  V30 12 1 9 16
M  V30 13 1 10 15
M  V30 14 1 11 12
M  V30 15 2 11 14
M  V30 16 2 12 16
M  V30 17 1 13 16
M  V30 18 1 1 17
M  V30 19 1 2 18
M  V30 20 1 5 19
M  V30 21 1 5 20
M  V30 22 1 5 21
M  V30 23 1 6 22
M  V30 24 1 6 23
M  V30 25 1 6 24
M  V30 26 1 7 25
M  V30 27 1 7 26
M  V30 28 1 8 27
M  V30 29 1 8 28
M  V30 30 1 9 29
M  V30 31 1 9 30
M  V30 32 1 10 31
M  V30 33 1 10 32
M  V30 34 1 11 33
M  V30 35 1 12 34
M  V30 36 1 15 35 CFG=3
M  V30 37 1 2 36
M  V30 END BOND
M  V30 END CTAB
M  END
>  <Ligand_Instance>  (42) 
274_A_601

>  <Dataset>  (42) 
CF

>  <PDB_ID>  (42) 
None

>  <Chain>  (42) 
A

>  <Resi>  (42) 
601

>  <Num_Resolved_Atoms>  (42) 
16

>  <Num_H_Atoms_ProtBoundConf>  (42) 
20

>  <Pocket>  (42) 
X

>  <Name>  (42) 
[(2S)‐1,9‐dimethyl‐1H,2H,3H,4H,5H,6H‐pyrido[2,3‐b][1,5]diazocin‐2‐yl]methanol

>  <Num_Not_Resolved_Atoms>  (42) 
0

>  <ATP_Site>  (42) 
True

>  <Peripheral>  (42) 
True

>  <Standardized_SMILES>  (42) 
[H]OC([H])([H])[C@@]1([H])N(C([H])([H])[H])C2=NC(C([H])([H])[H])=C([H])C([H])=C2C([H])([H])[N+]([H])([H])C([H])([H])C1([H])[H]

>  <2D_Mol_H>  (42) 
<rdkit.Chem.rdchem.Mol object at 0x77059d9d9380>

>  <MW>  (42) 
222.312

>  <HBA>  (42) 
3

>  <HBD>  (42) 
2

>  <LogP>  (42) 
-0.34578

>  <NRB>  (42) 
4

>  <TPSA>  (42) 
52.97

>  <Num_Heavy_Atoms>  (42) 
16

>  <Ro5>  (42) 
[True, True, True, True, True, True]

>  <Ro5_Fulfilled>  (42) 
True

>  <Ro3>  (42) 
[True, True, True, True]

>  <Ro3_Fulfilled>  (42) 
True

>  <Fsp3>  (42) 
0.583333

>  <Fsp3_0.42>  (42) 
True

>  <Fsp3_0.45>  (42) 
True

>  <Stereogenic_Carbons>  (42) 
1

>  <C_Atoms>  (42) 
12

>  <FCStereo>  (42) 
0.083333

>  <SPS>  (42) 
339

>  <nSPS>  (42) 
21.1875

>  <PBF>  (42) 
0.706541

>  <PBF_0.6>  (42) 
True

>  <nPBF>  (42) 
0.044159

>  <nPBF_0.016>  (42) 
True

>  <PMI1>  (42) 
622.456648

>  <PMI2>  (42) 
1276.159485

>  <PMI3>  (42) 
1737.947262

>  <NPR1>  (42) 
0.358156

>  <NPR2>  (42) 
0.734291

>  <Sum_NPR>  (42) 
1.092447

>  <Sum_NPR_1.07>  (42) 
True

>  <Sum_NPR_1.2>  (42) 
False

>  <MaxAbsEStateIndex>  (42) 
9.389821

>  <MaxEStateIndex>  (42) 
9.389821

>  <MinAbsEStateIndex>  (42) 
0.184815

>  <MinEStateIndex>  (42) 
0.184815

>  <qed>  (42) 
0.682981

>  <MolWt>  (42) 
222.312

>  <HeavyAtomMolWt>  (42) 
202.152

>  <ExactMolWt>  (42) 
222.160089

>  <NumValenceElectrons>  (42) 
88

>  <NumRadicalElectrons>  (42) 
0

>  <MaxPartialCharge>  (42) 
0.137291

>  <MinPartialCharge>  (42) 
-0.394232

>  <MaxAbsPartialCharge>  (42) 
0.394232

>  <MinAbsPartialCharge>  (42) 
0.137291

>  <FpDensityMorgan1>  (42) 
1.5625

>  <FpDensityMorgan2>  (42) 
2.375

>  <FpDensityMorgan3>  (42) 
3.125

>  <BCUT2D_MWHI>  (42) 
16.252666

>  <BCUT2D_MWLOW>  (42) 
10.098746

>  <BCUT2D_CHGHI>  (42) 
2.213544

>  <BCUT2D_CHGLO>  (42) 
-2.302547

>  <BCUT2D_LOGPHI>  (42) 
2.200961

>  <BCUT2D_LOGPLOW>  (42) 
-2.832387

>  <BCUT2D_MRHI>  (42) 
5.474611

>  <BCUT2D_MRLOW>  (42) 
-0.67097

>  <AvgIpc>  (42) 
2.277645

>  <BalabanJ>  (42) 
2.372771

>  <BertzCT>  (42) 
367.281547

>  <Chi0>  (42) 
11.543606

>  <Chi0n>  (42) 
9.979469

>  <Chi0v>  (42) 
9.979469

>  <Chi1>  (42) 
7.719545

>  <Chi1n>  (42) 
5.839691

>  <Chi1v>  (42) 
5.839691

>  <Chi2n>  (42) 
4.452816

>  <Chi2v>  (42) 
4.452816

>  <Chi3n>  (42) 
3.256013

>  <Chi3v>  (42) 
3.256013

>  <Chi4n>  (42) 
2.184708

>  <Chi4v>  (42) 
2.184708

>  <HallKierAlpha>  (42) 
-1.13

>  <Ipc>  (42) 
4851.383692

>  <Kappa1>  (42) 
11.358214

>  <Kappa2>  (42) 
4.803259

>  <Kappa3>  (42) 
2.175637

>  <LabuteASA>  (42) 
96.303744

>  <PEOE_VSA1>  (42) 
15.323226

>  <PEOE_VSA10>  (42) 
12.362619

>  <PEOE_VSA11>  (42) 
0.0

>  <PEOE_VSA12>  (42) 
0.0

>  <PEOE_VSA13>  (42) 
0.0

>  <PEOE_VSA14>  (42) 
0.0

>  <PEOE_VSA2>  (42) 
0.0

>  <PEOE_VSA3>  (42) 
4.983979

>  <PEOE_VSA4>  (42) 
0.0

>  <PEOE_VSA5>  (42) 
0.0

>  <PEOE_VSA6>  (42) 
0.0

>  <PEOE_VSA7>  (42) 
19.056471

>  <PEOE_VSA8>  (42) 
24.725873

>  <PEOE_VSA9>  (42) 
19.193479

>  <SMR_VSA1>  (42) 
10.423316

>  <SMR_VSA10>  (42) 
5.817863

>  <SMR_VSA2>  (42) 
0.0

>  <SMR_VSA3>  (42) 
4.983979

>  <SMR_VSA4>  (42) 
0.0

>  <SMR_VSA5>  (42) 
25.931156

>  <SMR_VSA6>  (42) 
25.09922

>  <SMR_VSA7>  (42) 
23.390114

>  <SMR_VSA8>  (42) 
0.0

>  <SMR_VSA9>  (42) 
0.0

>  <SlogP_VSA1>  (42) 
10.216698

>  <SlogP_VSA10>  (42) 
5.817863

>  <SlogP_VSA11>  (42) 
0.0

>  <SlogP_VSA12>  (42) 
0.0

>  <SlogP_VSA2>  (42) 
36.331657

>  <SlogP_VSA3>  (42) 
6.544756

>  <SlogP_VSA4>  (42) 
6.923737

>  <SlogP_VSA5>  (42) 
17.678201

>  <SlogP_VSA6>  (42) 
12.132734

>  <SlogP_VSA7>  (42) 
0.0

>  <SlogP_VSA8>  (42) 
0.0

>  <SlogP_VSA9>  (42) 
0.0

>  <EState_VSA1>  (42) 
0.0

>  <EState_VSA10>  (42) 
5.106527

>  <EState_VSA11>  (42) 
0.0

>  <EState_VSA2>  (42) 
12.648723

>  <EState_VSA3>  (42) 
0.0

>  <EState_VSA4>  (42) 
31.022125

>  <EState_VSA5>  (42) 
5.563451

>  <EState_VSA6>  (42) 
0.0

>  <EState_VSA7>  (42) 
13.971409

>  <EState_VSA8>  (42) 
27.333411

>  <EState_VSA9>  (42) 
0.0

>  <VSA_EState1>  (42) 
0.0

>  <VSA_EState10>  (42) 
0.0

>  <VSA_EState2>  (42) 
6.709769

>  <VSA_EState3>  (42) 
11.673062

>  <VSA_EState4>  (42) 
2.286216

>  <VSA_EState5>  (42) 
1.023148

>  <VSA_EState6>  (42) 
4.379748

>  <VSA_EState7>  (42) 
1.002046

>  <VSA_EState8>  (42) 
4.234067

>  <VSA_EState9>  (42) 
2.025278

>  <FractionCSP3>  (42) 
0.583333

>  <HeavyAtomCount>  (42) 
16

>  <NHOHCount>  (42) 
3

>  <NOCount>  (42) 
4

>  <NumAliphaticCarbocycles>  (42) 
0

>  <NumAliphaticHeterocycles>  (42) 
1

>  <NumAliphaticRings>  (42) 
1

>  <NumAromaticCarbocycles>  (42) 
0

>  <NumAromaticHeterocycles>  (42) 
1

>  <NumAromaticRings>  (42) 
1

>  <NumHAcceptors>  (42) 
3

>  <NumHDonors>  (42) 
2

>  <NumHeteroatoms>  (42) 
4

>  <NumRotatableBonds>  (42) 
1

>  <NumSaturatedCarbocycles>  (42) 
0

>  <NumSaturatedHeterocycles>  (42) 
0

>  <NumSaturatedRings>  (42) 
0

>  <RingCount>  (42) 
2

>  <MolLogP>  (42) 
-0.34578

>  <MolMR>  (42) 
63.3642

>  <fr_Al_COO>  (42) 
0

>  <fr_Al_OH>  (42) 
1

>  <fr_Al_OH_noTert>  (42) 
1

>  <fr_ArN>  (42) 
0

>  <fr_Ar_COO>  (42) 
0

>  <fr_Ar_N>  (42) 
1

>  <fr_Ar_NH>  (42) 
0

>  <fr_Ar_OH>  (42) 
0

>  <fr_COO>  (42) 
0

>  <fr_COO2>  (42) 
0

>  <fr_C_O>  (42) 
0

>  <fr_C_O_noCOO>  (42) 
0

>  <fr_C_S>  (42) 
0

>  <fr_HOCCN>  (42) 
0

>  <fr_Imine>  (42) 
0

>  <fr_NH0>  (42) 
2

>  <fr_NH1>  (42) 
0

>  <fr_NH2>  (42) 
1

>  <fr_N_O>  (42) 
0

>  <fr_Ndealkylation1>  (42) 
1

>  <fr_Ndealkylation2>  (42) 
0

>  <fr_Nhpyrrole>  (42) 
0

>  <fr_SH>  (42) 
0

>  <fr_aldehyde>  (42) 
0

>  <fr_alkyl_carbamate>  (42) 
0

>  <fr_alkyl_halide>  (42) 
0

>  <fr_allylic_oxid>  (42) 
0

>  <fr_amide>  (42) 
0

>  <fr_amidine>  (42) 
0

>  <fr_aniline>  (42) 
1

>  <fr_aryl_methyl>  (42) 
1

>  <fr_azide>  (42) 
0

>  <fr_azo>  (42) 
0

>  <fr_barbitur>  (42) 
0

>  <fr_benzene>  (42) 
0

>  <fr_benzodiazepine>  (42) 
0

>  <fr_bicyclic>  (42) 
1

>  <fr_diazo>  (42) 
0

>  <fr_dihydropyridine>  (42) 
0

>  <fr_epoxide>  (42) 
0

>  <fr_ester>  (42) 
0

>  <fr_ether>  (42) 
0

>  <fr_furan>  (42) 
0

>  <fr_guanido>  (42) 
0

>  <fr_halogen>  (42) 
0

>  <fr_hdrzine>  (42) 
0

>  <fr_hdrzone>  (42) 
0

>  <fr_imidazole>  (42) 
0

>  <fr_imide>  (42) 
0

>  <fr_isocyan>  (42) 
0

>  <fr_isothiocyan>  (42) 
0

>  <fr_ketone>  (42) 
0

>  <fr_ketone_Topliss>  (42) 
0

>  <fr_lactam>  (42) 
0

>  <fr_lactone>  (42) 
0

>  <fr_methoxy>  (42) 
0

>  <fr_morpholine>  (42) 
0

>  <fr_nitrile>  (42) 
0

>  <fr_nitro>  (42) 
0

>  <fr_nitro_arom>  (42) 
0

>  <fr_nitro_arom_nonortho>  (42) 
0

>  <fr_nitroso>  (42) 
0

>  <fr_oxazole>  (42) 
0

>  <fr_oxime>  (42) 
0

>  <fr_para_hydroxylation>  (42) 
0

>  <fr_phenol>  (42) 
0

>  <fr_phenol_noOrthoHbond>  (42) 
0

>  <fr_phos_acid>  (42) 
0

>  <fr_phos_ester>  (42) 
0

>  <fr_piperdine>  (42) 
0

>  <fr_piperzine>  (42) 
0

>  <fr_priamide>  (42) 
0

>  <fr_prisulfonamd>  (42) 
0

>  <fr_pyridine>  (42) 
1

>  <fr_quatN>  (42) 
1

>  <fr_sulfide>  (42) 
0

>  <fr_sulfonamd>  (42) 
0

>  <fr_sulfone>  (42) 
0

>  <fr_term_acetylene>  (42) 
0

>  <fr_tetrazole>  (42) 
0

>  <fr_thiazole>  (42) 
0

>  <fr_thiocyan>  (42) 
0

>  <fr_thiophene>  (42) 
0

>  <fr_unbrch_alkane>  (42) 
0

>  <fr_urea>  (42) 
0

>  <NP_Likeness>  (42) 
-0.276887

$$$$
F274
     RDKit          3D

  0  0  0  0  0  0  0  0  0  0999 V3000
M  V30 BEGIN CTAB
M  V30 COUNTS 36 37 0 0 0
M  V30 BEGIN ATOM
M  V30 1 O 3.186000 21.411000 -15.238000 0
M  V30 2 N 0.543000 24.679000 -16.971000 0 CHG=1
M  V30 3 N -0.084000 24.950000 -12.368000 0
M  V30 4 N 0.247000 22.976000 -13.527000 0
M  V30 5 C -0.204000 22.289000 -12.323000 0
M  V30 6 C -0.317000 26.807000 -10.796000 0
M  V30 7 C 2.508000 21.964000 -14.105000 0
M  V30 8 C 1.546000 23.754000 -16.460000 0
M  V30 9 C -0.666000 24.771000 -16.164000 0
M  V30 10 C 0.922000 22.450000 -15.991000 0
M  V30 11 C -0.784000 27.016000 -13.239000 0
M  V30 12 C -0.836000 26.442000 -14.454000 0
M  V30 13 C -0.135000 24.377000 -13.627000 0
M  V30 14 C -0.408000 26.274000 -12.187000 0
M  V30 15 C 1.022000 22.167000 -14.488000 0 CFG=2
M  V30 16 C -0.530000 25.128000 -14.697000 0
M  V30 17 H 4.150400 21.270800 -15.013600 0
M  V30 18 H 0.282800 24.380500 -17.889300 0
M  V30 19 H 0.105400 21.338300 -12.346000 0
M  V30 20 H 0.176000 22.743800 -11.517600 0
M  V30 21 H -1.202800 22.313500 -12.279500 0
M  V30 22 H -0.574900 27.773200 -10.791700 0
M  V30 23 H -0.936100 26.294100 -10.201300 0
M  V30 24 H 0.621000 26.710900 -10.462900 0
M  V30 25 H 2.918100 22.842400 -13.859700 0
M  V30 26 H 2.575700 21.336300 -13.329500 0
M  V30 27 H 2.019100 24.182100 -15.690000 0
M  V30 28 H 2.203700 23.555500 -17.186600 0
M  V30 29 H -1.120600 23.881500 -16.210600 0
M  V30 30 H -1.249400 25.466000 -16.584200 0
M  V30 31 H 1.374800 21.701300 -16.475200 0
M  V30 32 H -0.047300 22.467700 -16.236300 0
M  V30 33 H -1.021800 27.980200 -13.121800 0
M  V30 34 H -1.115400 27.009200 -15.228800 0
M  V30 35 H 0.628900 21.252200 -14.395000 0
M  V30 36 H 0.954700 25.589000 -17.020500 0
M  V30 END ATOM
M  V30 BEGIN BOND
M  V30 1 1 1 7
M  V30 2 1 2 8
M  V30 3 1 2 9
M  V30 4 2 3 13
M  V30 5 1 3 14
M  V30 6 1 4 5
M  V30 7 1 4 13
M  V30 8 1 4 15
M  V30 9 1 6 14
M  V30 10 1 7 15
M  V30 11 1 8 10
M  V30 12 1 9 16
M  V30 13 1 10 15
M  V30 14 1 11 12
M  V30 15 2 11 14
M  V30 16 2 12 16
M  V30 17 1 13 16
M  V30 18 1 1 17
M  V30 19 1 2 18
M  V30 20 1 5 19
M  V30 21 1 5 20
M  V30 22 1 5 21
M  V30 23 1 6 22
M  V30 24 1 6 23
M  V30 25 1 6 24
M  V30 26 1 7 25
M  V30 27 1 7 26
M  V30 28 1 8 27
M  V30 29 1 8 28
M  V30 30 1 9 29
M  V30 31 1 9 30
M  V30 32 1 10 31
M  V30 33 1 10 32
M  V30 34 1 11 33
M  V30 35 1 12 34
M  V30 36 1 15 35 CFG=3
M  V30 37 1 2 36
M  V30 END BOND
M  V30 END CTAB
M  END
>  <Ligand_Instance>  (43) 
274_A_701

>  <Dataset>  (43) 
CF

>  <PDB_ID>  (43) 
None

>  <Chain>  (43) 
A

>  <Resi>  (43) 
701

>  <Num_Resolved_Atoms>  (43) 
16

>  <Num_H_Atoms_ProtBoundConf>  (43) 
20

>  <Pocket>  (43) 
X

>  <Name>  (43) 
[(2S)‐1,9‐dimethyl‐1H,2H,3H,4H,5H,6H‐pyrido[2,3‐b][1,5]diazocin‐2‐yl]methanol

>  <Num_Not_Resolved_Atoms>  (43) 
0

>  <ATP_Site>  (43) 
True

>  <Peripheral>  (43) 
True

>  <Standardized_SMILES>  (43) 
[H]OC([H])([H])[C@@]1([H])N(C([H])([H])[H])C2=NC(C([H])([H])[H])=C([H])C([H])=C2C([H])([H])[N+]([H])([H])C([H])([H])C1([H])[H]

>  <2D_Mol_H>  (43) 
<rdkit.Chem.rdchem.Mol object at 0x77059d9d9460>

>  <MW>  (43) 
222.312

>  <HBA>  (43) 
3

>  <HBD>  (43) 
2

>  <LogP>  (43) 
-0.34578

>  <NRB>  (43) 
4

>  <TPSA>  (43) 
52.97

>  <Num_Heavy_Atoms>  (43) 
16

>  <Ro5>  (43) 
[True, True, True, True, True, True]

>  <Ro5_Fulfilled>  (43) 
True

>  <Ro3>  (43) 
[True, True, True, True]

>  <Ro3_Fulfilled>  (43) 
True

>  <Fsp3>  (43) 
0.583333

>  <Fsp3_0.42>  (43) 
True

>  <Fsp3_0.45>  (43) 
True

>  <Stereogenic_Carbons>  (43) 
1

>  <C_Atoms>  (43) 
12

>  <FCStereo>  (43) 
0.083333

>  <SPS>  (43) 
339

>  <nSPS>  (43) 
21.1875

>  <PBF>  (43) 
0.82392

>  <PBF_0.6>  (43) 
True

>  <nPBF>  (43) 
0.051495

>  <nPBF_0.016>  (43) 
True

>  <PMI1>  (43) 
624.696479

>  <PMI2>  (43) 
1263.833543

>  <PMI3>  (43) 
1658.465604

>  <NPR1>  (43) 
0.376671

>  <NPR2>  (43) 
0.76205

>  <Sum_NPR>  (43) 
1.138721

>  <Sum_NPR_1.07>  (43) 
True

>  <Sum_NPR_1.2>  (43) 
False

>  <MaxAbsEStateIndex>  (43) 
9.389821

>  <MaxEStateIndex>  (43) 
9.389821

>  <MinAbsEStateIndex>  (43) 
0.184815

>  <MinEStateIndex>  (43) 
0.184815

>  <qed>  (43) 
0.682981

>  <MolWt>  (43) 
222.312

>  <HeavyAtomMolWt>  (43) 
202.152

>  <ExactMolWt>  (43) 
222.160089

>  <NumValenceElectrons>  (43) 
88

>  <NumRadicalElectrons>  (43) 
0

>  <MaxPartialCharge>  (43) 
0.137291

>  <MinPartialCharge>  (43) 
-0.394232

>  <MaxAbsPartialCharge>  (43) 
0.394232

>  <MinAbsPartialCharge>  (43) 
0.137291

>  <FpDensityMorgan1>  (43) 
1.5625

>  <FpDensityMorgan2>  (43) 
2.375

>  <FpDensityMorgan3>  (43) 
3.125

>  <BCUT2D_MWHI>  (43) 
16.252666

>  <BCUT2D_MWLOW>  (43) 
10.098746

>  <BCUT2D_CHGHI>  (43) 
2.213544

>  <BCUT2D_CHGLO>  (43) 
-2.302547

>  <BCUT2D_LOGPHI>  (43) 
2.200961

>  <BCUT2D_LOGPLOW>  (43) 
-2.832387

>  <BCUT2D_MRHI>  (43) 
5.474611

>  <BCUT2D_MRLOW>  (43) 
-0.67097

>  <AvgIpc>  (43) 
2.277645

>  <BalabanJ>  (43) 
2.372771

>  <BertzCT>  (43) 
367.281547

>  <Chi0>  (43) 
11.543606

>  <Chi0n>  (43) 
9.979469

>  <Chi0v>  (43) 
9.979469

>  <Chi1>  (43) 
7.719545

>  <Chi1n>  (43) 
5.839691

>  <Chi1v>  (43) 
5.839691

>  <Chi2n>  (43) 
4.452816

>  <Chi2v>  (43) 
4.452816

>  <Chi3n>  (43) 
3.256013

>  <Chi3v>  (43) 
3.256013

>  <Chi4n>  (43) 
2.184708

>  <Chi4v>  (43) 
2.184708

>  <HallKierAlpha>  (43) 
-1.13

>  <Ipc>  (43) 
4851.383692

>  <Kappa1>  (43) 
11.358214

>  <Kappa2>  (43) 
4.803259

>  <Kappa3>  (43) 
2.175637

>  <LabuteASA>  (43) 
96.303744

>  <PEOE_VSA1>  (43) 
15.323226

>  <PEOE_VSA10>  (43) 
12.362619

>  <PEOE_VSA11>  (43) 
0.0

>  <PEOE_VSA12>  (43) 
0.0

>  <PEOE_VSA13>  (43) 
0.0

>  <PEOE_VSA14>  (43) 
0.0

>  <PEOE_VSA2>  (43) 
0.0

>  <PEOE_VSA3>  (43) 
4.983979

>  <PEOE_VSA4>  (43) 
0.0

>  <PEOE_VSA5>  (43) 
0.0

>  <PEOE_VSA6>  (43) 
0.0

>  <PEOE_VSA7>  (43) 
19.056471

>  <PEOE_VSA8>  (43) 
24.725873

>  <PEOE_VSA9>  (43) 
19.193479

>  <SMR_VSA1>  (43) 
10.423316

>  <SMR_VSA10>  (43) 
5.817863

>  <SMR_VSA2>  (43) 
0.0

>  <SMR_VSA3>  (43) 
4.983979

>  <SMR_VSA4>  (43) 
0.0

>  <SMR_VSA5>  (43) 
25.931156

>  <SMR_VSA6>  (43) 
25.09922

>  <SMR_VSA7>  (43) 
23.390114

>  <SMR_VSA8>  (43) 
0.0

>  <SMR_VSA9>  (43) 
0.0

>  <SlogP_VSA1>  (43) 
10.216698

>  <SlogP_VSA10>  (43) 
5.817863

>  <SlogP_VSA11>  (43) 
0.0

>  <SlogP_VSA12>  (43) 
0.0

>  <SlogP_VSA2>  (43) 
36.331657

>  <SlogP_VSA3>  (43) 
6.544756

>  <SlogP_VSA4>  (43) 
6.923737

>  <SlogP_VSA5>  (43) 
17.678201

>  <SlogP_VSA6>  (43) 
12.132734

>  <SlogP_VSA7>  (43) 
0.0

>  <SlogP_VSA8>  (43) 
0.0

>  <SlogP_VSA9>  (43) 
0.0

>  <EState_VSA1>  (43) 
0.0

>  <EState_VSA10>  (43) 
5.106527

>  <EState_VSA11>  (43) 
0.0

>  <EState_VSA2>  (43) 
12.648723

>  <EState_VSA3>  (43) 
0.0

>  <EState_VSA4>  (43) 
31.022125

>  <EState_VSA5>  (43) 
5.563451

>  <EState_VSA6>  (43) 
0.0

>  <EState_VSA7>  (43) 
13.971409

>  <EState_VSA8>  (43) 
27.333411

>  <EState_VSA9>  (43) 
0.0

>  <VSA_EState1>  (43) 
0.0

>  <VSA_EState10>  (43) 
0.0

>  <VSA_EState2>  (43) 
6.709769

>  <VSA_EState3>  (43) 
11.673062

>  <VSA_EState4>  (43) 
2.286216

>  <VSA_EState5>  (43) 
1.023148

>  <VSA_EState6>  (43) 
4.379748

>  <VSA_EState7>  (43) 
1.002046

>  <VSA_EState8>  (43) 
4.234067

>  <VSA_EState9>  (43) 
2.025278

>  <FractionCSP3>  (43) 
0.583333

>  <HeavyAtomCount>  (43) 
16

>  <NHOHCount>  (43) 
3

>  <NOCount>  (43) 
4

>  <NumAliphaticCarbocycles>  (43) 
0

>  <NumAliphaticHeterocycles>  (43) 
1

>  <NumAliphaticRings>  (43) 
1

>  <NumAromaticCarbocycles>  (43) 
0

>  <NumAromaticHeterocycles>  (43) 
1

>  <NumAromaticRings>  (43) 
1

>  <NumHAcceptors>  (43) 
3

>  <NumHDonors>  (43) 
2

>  <NumHeteroatoms>  (43) 
4

>  <NumRotatableBonds>  (43) 
1

>  <NumSaturatedCarbocycles>  (43) 
0

>  <NumSaturatedHeterocycles>  (43) 
0

>  <NumSaturatedRings>  (43) 
0

>  <RingCount>  (43) 
2

>  <MolLogP>  (43) 
-0.34578

>  <MolMR>  (43) 
63.3642

>  <fr_Al_COO>  (43) 
0

>  <fr_Al_OH>  (43) 
1

>  <fr_Al_OH_noTert>  (43) 
1

>  <fr_ArN>  (43) 
0

>  <fr_Ar_COO>  (43) 
0

>  <fr_Ar_N>  (43) 
1

>  <fr_Ar_NH>  (43) 
0

>  <fr_Ar_OH>  (43) 
0

>  <fr_COO>  (43) 
0

>  <fr_COO2>  (43) 
0

>  <fr_C_O>  (43) 
0

>  <fr_C_O_noCOO>  (43) 
0

>  <fr_C_S>  (43) 
0

>  <fr_HOCCN>  (43) 
0

>  <fr_Imine>  (43) 
0

>  <fr_NH0>  (43) 
2

>  <fr_NH1>  (43) 
0

>  <fr_NH2>  (43) 
1

>  <fr_N_O>  (43) 
0

>  <fr_Ndealkylation1>  (43) 
1

>  <fr_Ndealkylation2>  (43) 
0

>  <fr_Nhpyrrole>  (43) 
0

>  <fr_SH>  (43) 
0

>  <fr_aldehyde>  (43) 
0

>  <fr_alkyl_carbamate>  (43) 
0

>  <fr_alkyl_halide>  (43) 
0

>  <fr_allylic_oxid>  (43) 
0

>  <fr_amide>  (43) 
0

>  <fr_amidine>  (43) 
0

>  <fr_aniline>  (43) 
1

>  <fr_aryl_methyl>  (43) 
1

>  <fr_azide>  (43) 
0

>  <fr_azo>  (43) 
0

>  <fr_barbitur>  (43) 
0

>  <fr_benzene>  (43) 
0

>  <fr_benzodiazepine>  (43) 
0

>  <fr_bicyclic>  (43) 
1

>  <fr_diazo>  (43) 
0

>  <fr_dihydropyridine>  (43) 
0

>  <fr_epoxide>  (43) 
0

>  <fr_ester>  (43) 
0

>  <fr_ether>  (43) 
0

>  <fr_furan>  (43) 
0

>  <fr_guanido>  (43) 
0

>  <fr_halogen>  (43) 
0

>  <fr_hdrzine>  (43) 
0

>  <fr_hdrzone>  (43) 
0

>  <fr_imidazole>  (43) 
0

>  <fr_imide>  (43) 
0

>  <fr_isocyan>  (43) 
0

>  <fr_isothiocyan>  (43) 
0

>  <fr_ketone>  (43) 
0

>  <fr_ketone_Topliss>  (43) 
0

>  <fr_lactam>  (43) 
0

>  <fr_lactone>  (43) 
0

>  <fr_methoxy>  (43) 
0

>  <fr_morpholine>  (43) 
0

>  <fr_nitrile>  (43) 
0

>  <fr_nitro>  (43) 
0

>  <fr_nitro_arom>  (43) 
0

>  <fr_nitro_arom_nonortho>  (43) 
0

>  <fr_nitroso>  (43) 
0

>  <fr_oxazole>  (43) 
0

>  <fr_oxime>  (43) 
0

>  <fr_para_hydroxylation>  (43) 
0

>  <fr_phenol>  (43) 
0

>  <fr_phenol_noOrthoHbond>  (43) 
0

>  <fr_phos_acid>  (43) 
0

>  <fr_phos_ester>  (43) 
0

>  <fr_piperdine>  (43) 
0

>  <fr_piperzine>  (43) 
0

>  <fr_priamide>  (43) 
0

>  <fr_prisulfonamd>  (43) 
0

>  <fr_pyridine>  (43) 
1

>  <fr_quatN>  (43) 
1

>  <fr_sulfide>  (43) 
0

>  <fr_sulfonamd>  (43) 
0

>  <fr_sulfone>  (43) 
0

>  <fr_term_acetylene>  (43) 
0

>  <fr_tetrazole>  (43) 
0

>  <fr_thiazole>  (43) 
0

>  <fr_thiocyan>  (43) 
0

>  <fr_thiophene>  (43) 
0

>  <fr_unbrch_alkane>  (43) 
0

>  <fr_urea>  (43) 
0

>  <NP_Likeness>  (43) 
-0.276887

$$$$
F283
     RDKit          3D

  0  0  0  0  0  0  0  0  0  0999 V3000
M  V30 BEGIN CTAB
M  V30 COUNTS 39 40 0 0 0
M  V30 BEGIN ATOM
M  V30 1 S 4.238000 22.481000 -10.535000 0
M  V30 2 O 3.043000 21.495000 -14.815000 0
M  V30 3 N 0.680000 23.625000 -16.248000 0 CHG=1
M  V30 4 N 2.560000 23.808000 -11.944000 0
M  V30 5 N 3.909000 25.179000 -8.708000 0 CFG=1 CHG=1
M  V30 6 C 5.098000 25.799000 -9.305000 0
M  V30 7 C 1.668000 24.362000 -6.315000 0
M  V30 8 C 3.875000 21.883000 -12.140000 0
M  V30 9 C 0.413000 22.310000 -15.626000 0
M  V30 10 C 2.142000 23.914000 -16.295000 0
M  V30 11 C 3.426000 25.956000 -7.551000 0
M  V30 12 C 2.853000 24.906000 -9.696000 0
M  V30 13 C 2.464000 25.095000 -6.845000 0
M  V30 14 C 0.879000 22.396000 -14.159000 0
M  V30 15 C 2.785000 23.917000 -14.889000 0
M  V30 16 C 3.151000 23.840000 -10.734000 0
M  V30 17 C 2.962000 22.699000 -12.711000 0
M  V30 18 C 2.412000 22.605000 -14.110000 0
M  V30 19 H 4.036200 21.609500 -14.795900 0
M  V30 20 H 0.224100 24.336800 -15.713800 0
M  V30 21 H 5.402800 25.252500 -10.085000 0
M  V30 22 H 4.872800 26.723300 -9.613200 0
M  V30 23 H 5.828400 25.843600 -8.623500 0
M  V30 24 H 1.007400 23.753700 -5.875100 0
M  V30 25 H 4.277000 21.071500 -12.564100 0
M  V30 26 H 0.921400 21.594700 -16.105500 0
M  V30 27 H -0.565200 22.105700 -15.663300 0
M  V30 28 H 2.279000 24.812000 -16.713200 0
M  V30 29 H 2.590200 23.214900 -16.852100 0
M  V30 30 H 2.977500 26.794500 -7.860400 0
M  V30 31 H 4.189000 26.189000 -6.948000 0
M  V30 32 H 2.665500 25.759100 -10.182800 0
M  V30 33 H 2.035600 24.621400 -9.195200 0
M  V30 34 H 0.643900 21.547300 -13.685200 0
M  V30 35 H 0.424100 23.165200 -13.710300 0
M  V30 36 H 2.452900 24.709200 -14.377100 0
M  V30 37 H 3.779100 23.973000 -14.982000 0
M  V30 38 H 0.317800 23.624200 -17.180100 0
M  V30 39 H 4.200600 24.291300 -8.351800 0
M  V30 END ATOM
M  V30 BEGIN BOND
M  V30 1 1 1 8
M  V30 2 1 1 16
M  V30 3 1 18 2
M  V30 4 1 3 9
M  V30 5 1 3 10
M  V30 6 2 4 16
M  V30 7 1 4 17
M  V30 8 1 5 6
M  V30 9 1 5 11
M  V30 10 1 5 12
M  V30 11 3 7 13
M  V30 12 2 8 17
M  V30 13 1 9 14
M  V30 14 1 10 15
M  V30 15 1 11 13
M  V30 16 1 12 16
M  V30 17 1 14 18
M  V30 18 1 15 18
M  V30 19 1 17 18
M  V30 20 1 2 19
M  V30 21 1 3 20
M  V30 22 1 6 21
M  V30 23 1 6 22
M  V30 24 1 6 23
M  V30 25 1 7 24
M  V30 26 1 8 25
M  V30 27 1 9 26
M  V30 28 1 9 27
M  V30 29 1 10 28
M  V30 30 1 10 29
M  V30 31 1 11 30
M  V30 32 1 11 31
M  V30 33 1 12 32
M  V30 34 1 12 33
M  V30 35 1 14 34
M  V30 36 1 14 35
M  V30 37 1 15 36
M  V30 38 1 15 37
M  V30 39 1 3 38
M  V30 40 1 5 39 CFG=1
M  V30 END BOND
M  V30 END CTAB
M  END
>  <Ligand_Instance>  (44) 
283_B_1

>  <Dataset>  (44) 
CF

>  <PDB_ID>  (44) 
None

>  <Chain>  (44) 
B

>  <Resi>  (44) 
1

>  <Num_Resolved_Atoms>  (44) 
18

>  <Num_H_Atoms_ProtBoundConf>  (44) 
21

>  <Pocket>  (44) 
X

>  <Name>  (44) 
4‐(2‐{[methyl(prop‐2‐yn‐1‐yl)amino]methyl}‐1,3‐thiazol‐4‐yl)piperidin‐4‐ol

>  <Num_Not_Resolved_Atoms>  (44) 
0

>  <ATP_Site>  (44) 
False

>  <Peripheral>  (44) 
True

>  <Standardized_SMILES>  (44) 
[H]C#CC([H])([H])[N@+]([H])(C([H])([H])[H])C([H])([H])C1=NC(C2(O[H])C([H])([H])C([H])([H])[N+]([H])([H])C([H])([H])C2([H])[H])=C([H])S1

>  <2D_Mol_H>  (44) 
<rdkit.Chem.rdchem.Mol object at 0x77059d9d9540>

>  <MW>  (44) 
267.398

>  <HBA>  (44) 
3

>  <HBD>  (44) 
3

>  <LogP>  (44) 
-1.6642

>  <NRB>  (44) 
6

>  <TPSA>  (44) 
54.17

>  <Num_Heavy_Atoms>  (44) 
18

>  <Ro5>  (44) 
[True, True, True, True, True, True]

>  <Ro5_Fulfilled>  (44) 
True

>  <Ro3>  (44) 
[True, True, True, True]

>  <Ro3_Fulfilled>  (44) 
True

>  <Fsp3>  (44) 
0.615385

>  <Fsp3_0.42>  (44) 
True

>  <Fsp3_0.45>  (44) 
True

>  <Stereogenic_Carbons>  (44) 
0

>  <C_Atoms>  (44) 
13

>  <FCStereo>  (44) 
0.0

>  <SPS>  (44) 
365

>  <nSPS>  (44) 
20.277778

>  <PBF>  (44) 
0.91038

>  <PBF_0.6>  (44) 
True

>  <nPBF>  (44) 
0.050577

>  <nPBF_0.016>  (44) 
True

>  <PMI1>  (44) 
626.583288

>  <PMI2>  (44) 
3139.218745

>  <PMI3>  (44) 
3241.306759

>  <NPR1>  (44) 
0.193312

>  <NPR2>  (44) 
0.968504

>  <Sum_NPR>  (44) 
1.161816

>  <Sum_NPR_1.07>  (44) 
True

>  <Sum_NPR_1.2>  (44) 
False

>  <MaxAbsEStateIndex>  (44) 
10.578439

>  <MaxEStateIndex>  (44) 
10.578439

>  <MinAbsEStateIndex>  (44) 
0.702521

>  <MinEStateIndex>  (44) 
-0.704839

>  <qed>  (44) 
0.571866

>  <MolWt>  (44) 
267.398

>  <HeavyAtomMolWt>  (44) 
246.23

>  <ExactMolWt>  (44) 
267.139436

>  <NumValenceElectrons>  (44) 
98

>  <NumRadicalElectrons>  (44) 
0

>  <MaxPartialCharge>  (44) 
0.14753

>  <MinPartialCharge>  (44) 
-0.383048

>  <MaxAbsPartialCharge>  (44) 
0.383048

>  <MinAbsPartialCharge>  (44) 
0.14753

>  <FpDensityMorgan1>  (44) 
1.611111

>  <FpDensityMorgan2>  (44) 
2.333333

>  <FpDensityMorgan3>  (44) 
3.0

>  <BCUT2D_MWHI>  (44) 
32.133481

>  <BCUT2D_MWLOW>  (44) 
9.897243

>  <BCUT2D_CHGHI>  (44) 
2.350106

>  <BCUT2D_CHGLO>  (44) 
-2.283113

>  <BCUT2D_LOGPHI>  (44) 
2.292087

>  <BCUT2D_LOGPLOW>  (44) 
-3.069889

>  <BCUT2D_MRHI>  (44) 
7.091884

>  <BCUT2D_MRLOW>  (44) 
-0.885704

>  <AvgIpc>  (44) 
2.792763

>  <BalabanJ>  (44) 
2.031648

>  <BertzCT>  (44) 
431.689911

>  <Chi0>  (44) 
13.010225

>  <Chi0n>  (44) 
10.777367

>  <Chi0v>  (44) 
11.593864

>  <Chi1>  (44) 
8.637977

>  <Chi1n>  (44) 
6.375814

>  <Chi1v>  (44) 
7.255467

>  <Chi2n>  (44) 
5.038879

>  <Chi2v>  (44) 
5.981533

>  <Chi3n>  (44) 
3.409458

>  <Chi3v>  (44) 
4.25827

>  <Chi4n>  (44) 
2.307876

>  <Chi4v>  (44) 
3.308406

>  <HallKierAlpha>  (44) 
-0.93

>  <Ipc>  (44) 
15896.40626

>  <Kappa1>  (44) 
13.500473

>  <Kappa2>  (44) 
5.806758

>  <Kappa3>  (44) 
3.09043

>  <LabuteASA>  (44) 
112.038159

>  <PEOE_VSA1>  (44) 
15.323226

>  <PEOE_VSA10>  (44) 
23.698187

>  <PEOE_VSA11>  (44) 
0.0

>  <PEOE_VSA12>  (44) 
0.0

>  <PEOE_VSA13>  (44) 
0.0

>  <PEOE_VSA14>  (44) 
0.0

>  <PEOE_VSA2>  (44) 
0.0

>  <PEOE_VSA3>  (44) 
4.983979

>  <PEOE_VSA4>  (44) 
0.0

>  <PEOE_VSA5>  (44) 
17.760136

>  <PEOE_VSA6>  (44) 
0.0

>  <PEOE_VSA7>  (44) 
5.920434

>  <PEOE_VSA8>  (44) 
18.221706

>  <PEOE_VSA9>  (44) 
25.831113

>  <SMR_VSA1>  (44) 
15.323226

>  <SMR_VSA10>  (44) 
11.336786

>  <SMR_VSA2>  (44) 
0.0

>  <SMR_VSA3>  (44) 
4.983979

>  <SMR_VSA4>  (44) 
0.0

>  <SMR_VSA5>  (44) 
24.98745

>  <SMR_VSA6>  (44) 
26.681941

>  <SMR_VSA7>  (44) 
16.081614

>  <SMR_VSA8>  (44) 
0.0

>  <SMR_VSA9>  (44) 
12.343784

>  <SlogP_VSA1>  (44) 
10.216698

>  <SlogP_VSA10>  (44) 
0.0

>  <SlogP_VSA11>  (44) 
0.0

>  <SlogP_VSA12>  (44) 
11.336786

>  <SlogP_VSA2>  (44) 
36.772447

>  <SlogP_VSA3>  (44) 
12.145807

>  <SlogP_VSA4>  (44) 
12.343784

>  <SlogP_VSA5>  (44) 
23.543195

>  <SlogP_VSA6>  (44) 
5.380063

>  <SlogP_VSA7>  (44) 
0.0

>  <SlogP_VSA8>  (44) 
0.0

>  <SlogP_VSA9>  (44) 
0.0

>  <EState_VSA1>  (44) 
5.601051

>  <EState_VSA10>  (44) 
5.106527

>  <EState_VSA11>  (44) 
0.0

>  <EState_VSA2>  (44) 
0.0

>  <EState_VSA3>  (44) 
6.544756

>  <EState_VSA4>  (44) 
43.177464

>  <EState_VSA5>  (44) 
4.89991

>  <EState_VSA6>  (44) 
11.336786

>  <EState_VSA7>  (44) 
5.380063

>  <EState_VSA8>  (44) 
23.268873

>  <EState_VSA9>  (44) 
6.42335

>  <VSA_EState1>  (44) 
0.0

>  <VSA_EState10>  (44) 
1.625182

>  <VSA_EState2>  (44) 
5.845302

>  <VSA_EState3>  (44) 
15.881099

>  <VSA_EState4>  (44) 
0.146187

>  <VSA_EState5>  (44) 
2.651661

>  <VSA_EState6>  (44) 
0.0

>  <VSA_EState7>  (44) 
6.884655

>  <VSA_EState8>  (44) 
3.488517

>  <VSA_EState9>  (44) 
2.060731

>  <FractionCSP3>  (44) 
0.615385

>  <HeavyAtomCount>  (44) 
18

>  <NHOHCount>  (44) 
4

>  <NOCount>  (44) 
4

>  <NumAliphaticCarbocycles>  (44) 
0

>  <NumAliphaticHeterocycles>  (44) 
1

>  <NumAliphaticRings>  (44) 
1

>  <NumAromaticCarbocycles>  (44) 
0

>  <NumAromaticHeterocycles>  (44) 
1

>  <NumAromaticRings>  (44) 
1

>  <NumHAcceptors>  (44) 
3

>  <NumHDonors>  (44) 
3

>  <NumHeteroatoms>  (44) 
5

>  <NumRotatableBonds>  (44) 
4

>  <NumSaturatedCarbocycles>  (44) 
0

>  <NumSaturatedHeterocycles>  (44) 
1

>  <NumSaturatedRings>  (44) 
1

>  <RingCount>  (44) 
2

>  <MolLogP>  (44) 
-1.6642

>  <MolMR>  (44) 
71.1949

>  <fr_Al_COO>  (44) 
0

>  <fr_Al_OH>  (44) 
1

>  <fr_Al_OH_noTert>  (44) 
0

>  <fr_ArN>  (44) 
0

>  <fr_Ar_COO>  (44) 
0

>  <fr_Ar_N>  (44) 
1

>  <fr_Ar_NH>  (44) 
0

>  <fr_Ar_OH>  (44) 
0

>  <fr_COO>  (44) 
0

>  <fr_COO2>  (44) 
0

>  <fr_C_O>  (44) 
0

>  <fr_C_O_noCOO>  (44) 
0

>  <fr_C_S>  (44) 
0

>  <fr_HOCCN>  (44) 
0

>  <fr_Imine>  (44) 
0

>  <fr_NH0>  (44) 
1

>  <fr_NH1>  (44) 
1

>  <fr_NH2>  (44) 
1

>  <fr_N_O>  (44) 
0

>  <fr_Ndealkylation1>  (44) 
0

>  <fr_Ndealkylation2>  (44) 
0

>  <fr_Nhpyrrole>  (44) 
0

>  <fr_SH>  (44) 
0

>  <fr_aldehyde>  (44) 
0

>  <fr_alkyl_carbamate>  (44) 
0

>  <fr_alkyl_halide>  (44) 
0

>  <fr_allylic_oxid>  (44) 
0

>  <fr_amide>  (44) 
0

>  <fr_amidine>  (44) 
0

>  <fr_aniline>  (44) 
0

>  <fr_aryl_methyl>  (44) 
0

>  <fr_azide>  (44) 
0

>  <fr_azo>  (44) 
0

>  <fr_barbitur>  (44) 
0

>  <fr_benzene>  (44) 
0

>  <fr_benzodiazepine>  (44) 
0

>  <fr_bicyclic>  (44) 
0

>  <fr_diazo>  (44) 
0

>  <fr_dihydropyridine>  (44) 
0

>  <fr_epoxide>  (44) 
0

>  <fr_ester>  (44) 
0

>  <fr_ether>  (44) 
0

>  <fr_furan>  (44) 
0

>  <fr_guanido>  (44) 
0

>  <fr_halogen>  (44) 
0

>  <fr_hdrzine>  (44) 
0

>  <fr_hdrzone>  (44) 
0

>  <fr_imidazole>  (44) 
0

>  <fr_imide>  (44) 
0

>  <fr_isocyan>  (44) 
0

>  <fr_isothiocyan>  (44) 
0

>  <fr_ketone>  (44) 
0

>  <fr_ketone_Topliss>  (44) 
0

>  <fr_lactam>  (44) 
0

>  <fr_lactone>  (44) 
0

>  <fr_methoxy>  (44) 
0

>  <fr_morpholine>  (44) 
0

>  <fr_nitrile>  (44) 
0

>  <fr_nitro>  (44) 
0

>  <fr_nitro_arom>  (44) 
0

>  <fr_nitro_arom_nonortho>  (44) 
0

>  <fr_nitroso>  (44) 
0

>  <fr_oxazole>  (44) 
0

>  <fr_oxime>  (44) 
0

>  <fr_para_hydroxylation>  (44) 
0

>  <fr_phenol>  (44) 
0

>  <fr_phenol_noOrthoHbond>  (44) 
0

>  <fr_phos_acid>  (44) 
0

>  <fr_phos_ester>  (44) 
0

>  <fr_piperdine>  (44) 
1

>  <fr_piperzine>  (44) 
0

>  <fr_priamide>  (44) 
0

>  <fr_prisulfonamd>  (44) 
0

>  <fr_pyridine>  (44) 
0

>  <fr_quatN>  (44) 
2

>  <fr_sulfide>  (44) 
0

>  <fr_sulfonamd>  (44) 
0

>  <fr_sulfone>  (44) 
0

>  <fr_term_acetylene>  (44) 
1

>  <fr_tetrazole>  (44) 
0

>  <fr_thiazole>  (44) 
1

>  <fr_thiocyan>  (44) 
0

>  <fr_thiophene>  (44) 
0

>  <fr_unbrch_alkane>  (44) 
0

>  <fr_urea>  (44) 
0

>  <NP_Likeness>  (44) 
-0.413672

$$$$
F283
     RDKit          3D

  0  0  0  0  0  0  0  0  0  0999 V3000
M  V30 BEGIN CTAB
M  V30 COUNTS 39 40 0 0 0
M  V30 BEGIN ATOM
M  V30 1 S 6.247000 -1.188000 -28.085000 0
M  V30 2 O 2.074000 -0.843000 -25.969000 0
M  V30 3 N 0.065000 1.763000 -26.966000 0 CHG=1
M  V30 4 N 3.711000 -1.501000 -28.714000 0
M  V30 5 N 6.128000 -4.083000 -29.954000 0 CFG=2 CHG=1
M  V30 6 C 7.563000 -3.808000 -30.049000 0
M  V30 7 C 3.241000 -5.239000 -31.683000 0
M  V30 8 C 4.990000 -0.320000 -27.217000 0
M  V30 9 C 1.234000 1.989000 -26.103000 0
M  V30 10 C -0.011000 0.482000 -27.708000 0
M  V30 11 C 5.792000 -5.195000 -30.852000 0
M  V30 12 C 5.258000 -2.897000 -30.189000 0
M  V30 13 C 4.389000 -5.218000 -31.307000 0
M  V30 14 C 2.560000 1.424000 -26.618000 0
M  V30 15 C 1.304000 -0.148000 -28.172000 0
M  V30 16 C 4.987000 -1.914000 -29.064000 0
M  V30 17 C 3.742000 -0.590000 -27.667000 0
M  V30 18 C 2.431000 -0.033000 -27.125000 0
M  V30 19 H 1.978800 -1.798500 -26.248100 0
M  V30 20 H 0.046300 2.500100 -27.641500 0
M  V30 21 H 7.798400 -3.051100 -29.439300 0
M  V30 22 H 8.077000 -4.623200 -29.782100 0
M  V30 23 H 7.793600 -3.561900 -30.990400 0
M  V30 24 H 2.290800 -5.256400 -31.994200 0
M  V30 25 H 5.177900 0.311300 -26.464600 0
M  V30 26 H 1.045700 1.569400 -25.215000 0
M  V30 27 H 1.344800 2.976200 -25.988500 0
M  V30 28 H -0.570100 0.640500 -28.521800 0
M  V30 29 H -0.467000 -0.180900 -27.114200 0
M  V30 30 H 5.977100 -6.051400 -30.370000 0
M  V30 31 H 6.379900 -5.132600 -31.658500 0
M  V30 32 H 4.369400 -3.246200 -30.486400 0
M  V30 33 H 5.676900 -2.375500 -30.932300 0
M  V30 34 H 3.227800 1.446000 -25.874000 0
M  V30 35 H 2.881300 1.997800 -27.371400 0
M  V30 36 H 1.599300 0.311600 -29.009600 0
M  V30 37 H 1.143500 -1.116600 -28.362100 0
M  V30 38 H -0.748300 1.820700 -26.387100 0
M  V30 39 H 5.950800 -4.396100 -29.020900 0
M  V30 END ATOM
M  V30 BEGIN BOND
M  V30 1 1 1 8
M  V30 2 1 1 16
M  V30 3 1 18 2
M  V30 4 1 3 9
M  V30 5 1 3 10
M  V30 6 2 4 16
M  V30 7 1 4 17
M  V30 8 1 5 6
M  V30 9 1 5 11
M  V30 10 1 5 12
M  V30 11 3 7 13
M  V30 12 2 8 17
M  V30 13 1 9 14
M  V30 14 1 10 15
M  V30 15 1 11 13
M  V30 16 1 12 16
M  V30 17 1 14 18
M  V30 18 1 15 18
M  V30 19 1 17 18
M  V30 20 1 2 19
M  V30 21 1 3 20
M  V30 22 1 6 21
M  V30 23 1 6 22
M  V30 24 1 6 23
M  V30 25 1 7 24
M  V30 26 1 8 25
M  V30 27 1 9 26
M  V30 28 1 9 27
M  V30 29 1 10 28
M  V30 30 1 10 29
M  V30 31 1 11 30
M  V30 32 1 11 31
M  V30 33 1 12 32
M  V30 34 1 12 33
M  V30 35 1 14 34
M  V30 36 1 14 35
M  V30 37 1 15 36
M  V30 38 1 15 37
M  V30 39 1 3 38
M  V30 40 1 5 39 CFG=1
M  V30 END BOND
M  V30 END CTAB
M  END
>  <Ligand_Instance>  (45) 
283_B_2

>  <Dataset>  (45) 
CF

>  <PDB_ID>  (45) 
None

>  <Chain>  (45) 
B

>  <Resi>  (45) 
2

>  <Num_Resolved_Atoms>  (45) 
18

>  <Num_H_Atoms_ProtBoundConf>  (45) 
21

>  <Pocket>  (45) 
G

>  <Name>  (45) 
4‐(2‐{[methyl(prop‐2‐yn‐1‐yl)amino]methyl}‐1,3‐thiazol‐4‐yl)piperidin‐4‐ol

>  <Num_Not_Resolved_Atoms>  (45) 
0

>  <ATP_Site>  (45) 
False

>  <Peripheral>  (45) 
True

>  <Standardized_SMILES>  (45) 
[H]C#CC([H])([H])[N@@+]([H])(C([H])([H])[H])C([H])([H])C1=NC(C2(O[H])C([H])([H])C([H])([H])[N+]([H])([H])C([H])([H])C2([H])[H])=C([H])S1

>  <2D_Mol_H>  (45) 
<rdkit.Chem.rdchem.Mol object at 0x77059d9d9620>

>  <MW>  (45) 
267.398

>  <HBA>  (45) 
3

>  <HBD>  (45) 
3

>  <LogP>  (45) 
-1.6642

>  <NRB>  (45) 
6

>  <TPSA>  (45) 
54.17

>  <Num_Heavy_Atoms>  (45) 
18

>  <Ro5>  (45) 
[True, True, True, True, True, True]

>  <Ro5_Fulfilled>  (45) 
True

>  <Ro3>  (45) 
[True, True, True, True]

>  <Ro3_Fulfilled>  (45) 
True

>  <Fsp3>  (45) 
0.615385

>  <Fsp3_0.42>  (45) 
True

>  <Fsp3_0.45>  (45) 
True

>  <Stereogenic_Carbons>  (45) 
0

>  <C_Atoms>  (45) 
13

>  <FCStereo>  (45) 
0.0

>  <SPS>  (45) 
365

>  <nSPS>  (45) 
20.277778

>  <PBF>  (45) 
0.561799

>  <PBF_0.6>  (45) 
False

>  <nPBF>  (45) 
0.031211

>  <nPBF_0.016>  (45) 
True

>  <PMI1>  (45) 
694.237584

>  <PMI2>  (45) 
2888.852324

>  <PMI3>  (45) 
3418.183205

>  <NPR1>  (45) 
0.203101

>  <NPR2>  (45) 
0.845143

>  <Sum_NPR>  (45) 
1.048244

>  <Sum_NPR_1.07>  (45) 
False

>  <Sum_NPR_1.2>  (45) 
False

>  <MaxAbsEStateIndex>  (45) 
10.578439

>  <MaxEStateIndex>  (45) 
10.578439

>  <MinAbsEStateIndex>  (45) 
0.702521

>  <MinEStateIndex>  (45) 
-0.704839

>  <qed>  (45) 
0.571866

>  <MolWt>  (45) 
267.398

>  <HeavyAtomMolWt>  (45) 
246.23

>  <ExactMolWt>  (45) 
267.139436

>  <NumValenceElectrons>  (45) 
98

>  <NumRadicalElectrons>  (45) 
0

>  <MaxPartialCharge>  (45) 
0.14753

>  <MinPartialCharge>  (45) 
-0.383048

>  <MaxAbsPartialCharge>  (45) 
0.383048

>  <MinAbsPartialCharge>  (45) 
0.14753

>  <FpDensityMorgan1>  (45) 
1.611111

>  <FpDensityMorgan2>  (45) 
2.333333

>  <FpDensityMorgan3>  (45) 
3.0

>  <BCUT2D_MWHI>  (45) 
32.133481

>  <BCUT2D_MWLOW>  (45) 
9.897243

>  <BCUT2D_CHGHI>  (45) 
2.350106

>  <BCUT2D_CHGLO>  (45) 
-2.283113

>  <BCUT2D_LOGPHI>  (45) 
2.292087

>  <BCUT2D_LOGPLOW>  (45) 
-3.069889

>  <BCUT2D_MRHI>  (45) 
7.091884

>  <BCUT2D_MRLOW>  (45) 
-0.885704

>  <AvgIpc>  (45) 
2.792763

>  <BalabanJ>  (45) 
2.031648

>  <BertzCT>  (45) 
431.689911

>  <Chi0>  (45) 
13.010225

>  <Chi0n>  (45) 
10.777367

>  <Chi0v>  (45) 
11.593864

>  <Chi1>  (45) 
8.637977

>  <Chi1n>  (45) 
6.375814

>  <Chi1v>  (45) 
7.255467

>  <Chi2n>  (45) 
5.038879

>  <Chi2v>  (45) 
5.981533

>  <Chi3n>  (45) 
3.409458

>  <Chi3v>  (45) 
4.25827

>  <Chi4n>  (45) 
2.307876

>  <Chi4v>  (45) 
3.308406

>  <HallKierAlpha>  (45) 
-0.93

>  <Ipc>  (45) 
15896.40626

>  <Kappa1>  (45) 
13.500473

>  <Kappa2>  (45) 
5.806758

>  <Kappa3>  (45) 
3.09043

>  <LabuteASA>  (45) 
112.038159

>  <PEOE_VSA1>  (45) 
15.323226

>  <PEOE_VSA10>  (45) 
23.698187

>  <PEOE_VSA11>  (45) 
0.0

>  <PEOE_VSA12>  (45) 
0.0

>  <PEOE_VSA13>  (45) 
0.0

>  <PEOE_VSA14>  (45) 
0.0

>  <PEOE_VSA2>  (45) 
0.0

>  <PEOE_VSA3>  (45) 
4.983979

>  <PEOE_VSA4>  (45) 
0.0

>  <PEOE_VSA5>  (45) 
17.760136

>  <PEOE_VSA6>  (45) 
0.0

>  <PEOE_VSA7>  (45) 
5.920434

>  <PEOE_VSA8>  (45) 
18.221706

>  <PEOE_VSA9>  (45) 
25.831113

>  <SMR_VSA1>  (45) 
15.323226

>  <SMR_VSA10>  (45) 
11.336786

>  <SMR_VSA2>  (45) 
0.0

>  <SMR_VSA3>  (45) 
4.983979

>  <SMR_VSA4>  (45) 
0.0

>  <SMR_VSA5>  (45) 
24.98745

>  <SMR_VSA6>  (45) 
26.681941

>  <SMR_VSA7>  (45) 
16.081614

>  <SMR_VSA8>  (45) 
0.0

>  <SMR_VSA9>  (45) 
12.343784

>  <SlogP_VSA1>  (45) 
10.216698

>  <SlogP_VSA10>  (45) 
0.0

>  <SlogP_VSA11>  (45) 
0.0

>  <SlogP_VSA12>  (45) 
11.336786

>  <SlogP_VSA2>  (45) 
36.772447

>  <SlogP_VSA3>  (45) 
12.145807

>  <SlogP_VSA4>  (45) 
12.343784

>  <SlogP_VSA5>  (45) 
23.543195

>  <SlogP_VSA6>  (45) 
5.380063

>  <SlogP_VSA7>  (45) 
0.0

>  <SlogP_VSA8>  (45) 
0.0

>  <SlogP_VSA9>  (45) 
0.0

>  <EState_VSA1>  (45) 
5.601051

>  <EState_VSA10>  (45) 
5.106527

>  <EState_VSA11>  (45) 
0.0

>  <EState_VSA2>  (45) 
0.0

>  <EState_VSA3>  (45) 
6.544756

>  <EState_VSA4>  (45) 
43.177464

>  <EState_VSA5>  (45) 
4.89991

>  <EState_VSA6>  (45) 
11.336786

>  <EState_VSA7>  (45) 
5.380063

>  <EState_VSA8>  (45) 
23.268873

>  <EState_VSA9>  (45) 
6.42335

>  <VSA_EState1>  (45) 
0.0

>  <VSA_EState10>  (45) 
1.625182

>  <VSA_EState2>  (45) 
5.845302

>  <VSA_EState3>  (45) 
15.881099

>  <VSA_EState4>  (45) 
0.146187

>  <VSA_EState5>  (45) 
2.651661

>  <VSA_EState6>  (45) 
0.0

>  <VSA_EState7>  (45) 
6.884655

>  <VSA_EState8>  (45) 
3.488517

>  <VSA_EState9>  (45) 
2.060731

>  <FractionCSP3>  (45) 
0.615385

>  <HeavyAtomCount>  (45) 
18

>  <NHOHCount>  (45) 
4

>  <NOCount>  (45) 
4

>  <NumAliphaticCarbocycles>  (45) 
0

>  <NumAliphaticHeterocycles>  (45) 
1

>  <NumAliphaticRings>  (45) 
1

>  <NumAromaticCarbocycles>  (45) 
0

>  <NumAromaticHeterocycles>  (45) 
1

>  <NumAromaticRings>  (45) 
1

>  <NumHAcceptors>  (45) 
3

>  <NumHDonors>  (45) 
3

>  <NumHeteroatoms>  (45) 
5

>  <NumRotatableBonds>  (45) 
4

>  <NumSaturatedCarbocycles>  (45) 
0

>  <NumSaturatedHeterocycles>  (45) 
1

>  <NumSaturatedRings>  (45) 
1

>  <RingCount>  (45) 
2

>  <MolLogP>  (45) 
-1.6642

>  <MolMR>  (45) 
71.1949

>  <fr_Al_COO>  (45) 
0

>  <fr_Al_OH>  (45) 
1

>  <fr_Al_OH_noTert>  (45) 
0

>  <fr_ArN>  (45) 
0

>  <fr_Ar_COO>  (45) 
0

>  <fr_Ar_N>  (45) 
1

>  <fr_Ar_NH>  (45) 
0

>  <fr_Ar_OH>  (45) 
0

>  <fr_COO>  (45) 
0

>  <fr_COO2>  (45) 
0

>  <fr_C_O>  (45) 
0

>  <fr_C_O_noCOO>  (45) 
0

>  <fr_C_S>  (45) 
0

>  <fr_HOCCN>  (45) 
0

>  <fr_Imine>  (45) 
0

>  <fr_NH0>  (45) 
1

>  <fr_NH1>  (45) 
1

>  <fr_NH2>  (45) 
1

>  <fr_N_O>  (45) 
0

>  <fr_Ndealkylation1>  (45) 
0

>  <fr_Ndealkylation2>  (45) 
0

>  <fr_Nhpyrrole>  (45) 
0

>  <fr_SH>  (45) 
0

>  <fr_aldehyde>  (45) 
0

>  <fr_alkyl_carbamate>  (45) 
0

>  <fr_alkyl_halide>  (45) 
0

>  <fr_allylic_oxid>  (45) 
0

>  <fr_amide>  (45) 
0

>  <fr_amidine>  (45) 
0

>  <fr_aniline>  (45) 
0

>  <fr_aryl_methyl>  (45) 
0

>  <fr_azide>  (45) 
0

>  <fr_azo>  (45) 
0

>  <fr_barbitur>  (45) 
0

>  <fr_benzene>  (45) 
0

>  <fr_benzodiazepine>  (45) 
0

>  <fr_bicyclic>  (45) 
0

>  <fr_diazo>  (45) 
0

>  <fr_dihydropyridine>  (45) 
0

>  <fr_epoxide>  (45) 
0

>  <fr_ester>  (45) 
0

>  <fr_ether>  (45) 
0

>  <fr_furan>  (45) 
0

>  <fr_guanido>  (45) 
0

>  <fr_halogen>  (45) 
0

>  <fr_hdrzine>  (45) 
0

>  <fr_hdrzone>  (45) 
0

>  <fr_imidazole>  (45) 
0

>  <fr_imide>  (45) 
0

>  <fr_isocyan>  (45) 
0

>  <fr_isothiocyan>  (45) 
0

>  <fr_ketone>  (45) 
0

>  <fr_ketone_Topliss>  (45) 
0

>  <fr_lactam>  (45) 
0

>  <fr_lactone>  (45) 
0

>  <fr_methoxy>  (45) 
0

>  <fr_morpholine>  (45) 
0

>  <fr_nitrile>  (45) 
0

>  <fr_nitro>  (45) 
0

>  <fr_nitro_arom>  (45) 
0

>  <fr_nitro_arom_nonortho>  (45) 
0

>  <fr_nitroso>  (45) 
0

>  <fr_oxazole>  (45) 
0

>  <fr_oxime>  (45) 
0

>  <fr_para_hydroxylation>  (45) 
0

>  <fr_phenol>  (45) 
0

>  <fr_phenol_noOrthoHbond>  (45) 
0

>  <fr_phos_acid>  (45) 
0

>  <fr_phos_ester>  (45) 
0

>  <fr_piperdine>  (45) 
1

>  <fr_piperzine>  (45) 
0

>  <fr_priamide>  (45) 
0

>  <fr_prisulfonamd>  (45) 
0

>  <fr_pyridine>  (45) 
0

>  <fr_quatN>  (45) 
2

>  <fr_sulfide>  (45) 
0

>  <fr_sulfonamd>  (45) 
0

>  <fr_sulfone>  (45) 
0

>  <fr_term_acetylene>  (45) 
1

>  <fr_tetrazole>  (45) 
0

>  <fr_thiazole>  (45) 
1

>  <fr_thiocyan>  (45) 
0

>  <fr_thiophene>  (45) 
0

>  <fr_unbrch_alkane>  (45) 
0

>  <fr_urea>  (45) 
0

>  <NP_Likeness>  (45) 
-0.413672

$$$$
F294
     RDKit          3D

  0  0  0  0  0  0  0  0  0  0999 V3000
M  V30 BEGIN CTAB
M  V30 COUNTS 42 44 0 0 0
M  V30 BEGIN ATOM
M  V30 1 S -30.389000 22.201000 -38.589000 0
M  V30 2 O -32.619000 24.942000 -41.502000 0
M  V30 3 O -29.102000 21.400000 -34.377000 0
M  V30 4 N -26.826000 23.518000 -32.966000 0 CHG=1
M  V30 5 N -28.659000 23.489000 -37.214000 0
M  V30 6 N -29.874000 24.733000 -40.453000 0 CFG=1 CHG=1
M  V30 7 C -30.065000 21.654000 -36.959000 0
M  V30 8 C -28.276000 23.722000 -32.850000 0
M  V30 9 C -26.549000 22.174000 -33.514000 0
M  V30 10 C -29.411000 25.676000 -41.490000 0
M  V30 11 C -28.837000 24.506000 -39.453000 0
M  V30 12 C -30.992000 25.423000 -39.804000 0
M  V30 13 C -30.695000 26.282000 -42.048000 0
M  V30 14 C -28.950000 23.686000 -34.236000 0
M  V30 15 C -27.054000 22.149000 -34.950000 0
M  V30 16 C -29.226000 23.486000 -38.418000 0
M  V30 17 C -31.756000 25.969000 -40.997000 0 CFG=1
M  V30 18 C -29.119000 22.442000 -36.421000 0
M  V30 19 C -28.475000 22.553000 -35.116000 0
M  V30 20 H -33.127700 25.291200 -42.289000 0
M  V30 21 H -30.094800 21.518100 -34.355600 0
M  V30 22 H -26.406300 23.600400 -32.062100 0
M  V30 23 H -30.510000 20.883000 -36.503500 0
M  V30 24 H -28.448500 24.610700 -32.425200 0
M  V30 25 H -28.663600 22.998600 -32.278700 0
M  V30 26 H -27.024900 21.480500 -32.973100 0
M  V30 27 H -25.565500 21.994200 -33.495300 0
M  V30 28 H -28.905800 25.194800 -42.206400 0
M  V30 29 H -28.829300 26.384500 -41.090400 0
M  V30 30 H -28.646500 25.371800 -38.990300 0
M  V30 31 H -28.010900 24.187900 -39.918200 0
M  V30 32 H -30.669400 26.160000 -39.210100 0
M  V30 33 H -31.552500 24.787900 -39.272600 0
M  V30 34 H -30.931600 25.862600 -42.924400 0
M  V30 35 H -30.596500 27.270000 -42.167000 0
M  V30 36 H -28.757900 24.549400 -34.702500 0
M  V30 37 H -29.936700 23.590600 -34.104400 0
M  V30 38 H -26.952000 21.217800 -35.299900 0
M  V30 39 H -26.488000 22.771800 -35.490100 0
M  V30 40 H -32.274000 26.788200 -40.750800 0
M  V30 41 H -26.441600 24.210600 -33.576400 0
M  V30 42 H -30.173400 23.870500 -40.860900 0
M  V30 END ATOM
M  V30 BEGIN BOND
M  V30 1 1 1 7
M  V30 2 1 1 16
M  V30 3 1 2 17
M  V30 4 1 19 3
M  V30 5 1 4 8
M  V30 6 1 4 9
M  V30 7 2 5 16
M  V30 8 1 5 18
M  V30 9 1 6 10
M  V30 10 1 6 11
M  V30 11 1 6 12
M  V30 12 2 7 18
M  V30 13 1 8 14
M  V30 14 1 9 15
M  V30 15 1 10 13
M  V30 16 1 11 16
M  V30 17 1 12 17
M  V30 18 1 13 17
M  V30 19 1 14 19
M  V30 20 1 15 19
M  V30 21 1 18 19
M  V30 22 1 2 20
M  V30 23 1 3 21
M  V30 24 1 4 22
M  V30 25 1 7 23
M  V30 26 1 8 24
M  V30 27 1 8 25
M  V30 28 1 9 26
M  V30 29 1 9 27
M  V30 30 1 10 28
M  V30 31 1 10 29
M  V30 32 1 11 30
M  V30 33 1 11 31
M  V30 34 1 12 32
M  V30 35 1 12 33
M  V30 36 1 13 34
M  V30 37 1 13 35
M  V30 38 1 14 36
M  V30 39 1 14 37
M  V30 40 1 15 38
M  V30 41 1 15 39
M  V30 42 1 17 40 CFG=1
M  V30 43 1 4 41
M  V30 44 1 6 42 CFG=3
M  V30 END BOND
M  V30 END CTAB
M  END
>  <Ligand_Instance>  (46) 
294_L_401

>  <Dataset>  (46) 
CF

>  <PDB_ID>  (46) 
None

>  <Chain>  (46) 
L

>  <Resi>  (46) 
401

>  <Num_Resolved_Atoms>  (46) 
19

>  <Num_H_Atoms_ProtBoundConf>  (46) 
23

>  <Pocket>  (46) 
X

>  <Name>  (46) 
4‐(2‐{[(3R)‐3‐hydroxypyrrolidin‐1‐yl]methyl}‐1,3‐thiazol‐4‐yl)piperidin‐4‐ol

>  <Num_Not_Resolved_Atoms>  (46) 
0

>  <ATP_Site>  (46) 
False

>  <Peripheral>  (46) 
True

>  <Standardized_SMILES>  (46) 
[H]OC1(C2=C([H])SC(C([H])([H])[N@+]3([H])C([H])([H])C([H])([H])[C@@]([H])(O[H])C3([H])[H])=N2)C([H])([H])C([H])([H])[N+]([H])([H])C([H])([H])C1([H])[H]

>  <2D_Mol_H>  (46) 
<rdkit.Chem.rdchem.Mol object at 0x77059d9d9700>

>  <MW>  (46) 
285.413

>  <HBA>  (46) 
4

>  <HBD>  (46) 
4

>  <LogP>  (46) 
-2.1626

>  <NRB>  (46) 
5

>  <TPSA>  (46) 
74.4

>  <Num_Heavy_Atoms>  (46) 
19

>  <Ro5>  (46) 
[True, True, True, True, True, True]

>  <Ro5_Fulfilled>  (46) 
True

>  <Ro3>  (46) 
[True, False, False, True]

>  <Ro3_Fulfilled>  (46) 
False

>  <Fsp3>  (46) 
0.769231

>  <Fsp3_0.42>  (46) 
True

>  <Fsp3_0.45>  (46) 
True

>  <Stereogenic_Carbons>  (46) 
1

>  <C_Atoms>  (46) 
13

>  <FCStereo>  (46) 
0.076923

>  <SPS>  (46) 
582

>  <nSPS>  (46) 
30.631579

>  <PBF>  (46) 
0.971823

>  <PBF_0.6>  (46) 
True

>  <nPBF>  (46) 
0.051149

>  <nPBF_0.016>  (46) 
True

>  <PMI1>  (46) 
576.226185

>  <PMI2>  (46) 
3620.157536

>  <PMI3>  (46) 
3794.26856

>  <NPR1>  (46) 
0.151868

>  <NPR2>  (46) 
0.954112

>  <Sum_NPR>  (46) 
1.10598

>  <Sum_NPR_1.07>  (46) 
True

>  <Sum_NPR_1.2>  (46) 
False

>  <MaxAbsEStateIndex>  (46) 
10.636211

>  <MaxEStateIndex>  (46) 
10.636211

>  <MinAbsEStateIndex>  (46) 
0.145835

>  <MinEStateIndex>  (46) 
-0.705003

>  <qed>  (46) 
0.510961

>  <MolWt>  (46) 
285.413

>  <HeavyAtomMolWt>  (46) 
262.229

>  <ExactMolWt>  (46) 
285.150001

>  <NumValenceElectrons>  (46) 
106

>  <NumRadicalElectrons>  (46) 
0

>  <MaxPartialCharge>  (46) 
0.14751

>  <MinPartialCharge>  (46) 
-0.387019

>  <MaxAbsPartialCharge>  (46) 
0.387019

>  <MinAbsPartialCharge>  (46) 
0.14751

>  <FpDensityMorgan1>  (46) 
1.473684

>  <FpDensityMorgan2>  (46) 
2.263158

>  <FpDensityMorgan3>  (46) 
2.947368

>  <BCUT2D_MWHI>  (46) 
32.133481

>  <BCUT2D_MWLOW>  (46) 
9.897241

>  <BCUT2D_CHGHI>  (46) 
2.354822

>  <BCUT2D_CHGLO>  (46) 
-2.2832

>  <BCUT2D_LOGPHI>  (46) 
2.292954

>  <BCUT2D_LOGPLOW>  (46) 
-3.086386

>  <BCUT2D_MRHI>  (46) 
7.091888

>  <BCUT2D_MRLOW>  (46) 
-0.902284

>  <AvgIpc>  (46) 
3.006835

>  <BalabanJ>  (46) 
1.653211

>  <BertzCT>  (46) 
431.277749

>  <Chi0>  (46) 
13.294682

>  <Chi0n>  (46) 
11.138794

>  <Chi0v>  (46) 
11.955291

>  <Chi1>  (46) 
9.155615

>  <Chi1n>  (46) 
7.161834

>  <Chi1v>  (46) 
8.041487

>  <Chi2n>  (46) 
5.847494

>  <Chi2v>  (46) 
6.790148

>  <Chi3n>  (46) 
4.309257

>  <Chi3v>  (46) 
5.158069

>  <Chi4n>  (46) 
3.095493

>  <Chi4v>  (46) 
4.053747

>  <HallKierAlpha>  (46) 
-0.53

>  <Ipc>  (46) 
38138.690531

>  <Kappa1>  (46) 
13.452934

>  <Kappa2>  (46) 
5.456571

>  <Kappa3>  (46) 
2.977873

>  <LabuteASA>  (46) 
116.827337

>  <PEOE_VSA1>  (46) 
20.429753

>  <PEOE_VSA10>  (46) 
29.802154

>  <PEOE_VSA11>  (46) 
0.0

>  <PEOE_VSA12>  (46) 
0.0

>  <PEOE_VSA13>  (46) 
0.0

>  <PEOE_VSA14>  (46) 
0.0

>  <PEOE_VSA2>  (46) 
0.0

>  <PEOE_VSA3>  (46) 
4.983979

>  <PEOE_VSA4>  (46) 
0.0

>  <PEOE_VSA5>  (46) 
11.336786

>  <PEOE_VSA6>  (46) 
0.0

>  <PEOE_VSA7>  (46) 
0.0

>  <PEOE_VSA8>  (46) 
24.642528

>  <PEOE_VSA9>  (46) 
25.328197

>  <SMR_VSA1>  (46) 
20.429753

>  <SMR_VSA10>  (46) 
11.336786

>  <SMR_VSA2>  (46) 
0.0

>  <SMR_VSA3>  (46) 
4.983979

>  <SMR_VSA4>  (46) 
0.0

>  <SMR_VSA5>  (46) 
37.512238

>  <SMR_VSA6>  (46) 
26.179026

>  <SMR_VSA7>  (46) 
16.081614

>  <SMR_VSA8>  (46) 
0.0

>  <SMR_VSA9>  (46) 
0.0

>  <SlogP_VSA1>  (46) 
10.216698

>  <SlogP_VSA10>  (46) 
0.0

>  <SlogP_VSA11>  (46) 
0.0

>  <SlogP_VSA12>  (46) 
11.336786

>  <SlogP_VSA2>  (46) 
47.480025

>  <SlogP_VSA3>  (46) 
12.145807

>  <SlogP_VSA4>  (46) 
0.0

>  <SlogP_VSA5>  (46) 
29.964017

>  <SlogP_VSA6>  (46) 
5.380063

>  <SlogP_VSA7>  (46) 
0.0

>  <SlogP_VSA8>  (46) 
0.0

>  <SlogP_VSA9>  (46) 
0.0

>  <EState_VSA1>  (46) 
5.601051

>  <EState_VSA10>  (46) 
10.213055

>  <EState_VSA11>  (46) 
0.0

>  <EState_VSA2>  (46) 
6.103966

>  <EState_VSA3>  (46) 
0.0

>  <EState_VSA4>  (46) 
62.687799

>  <EState_VSA5>  (46) 
4.89991

>  <EState_VSA6>  (46) 
11.336786

>  <EState_VSA7>  (46) 
5.380063

>  <EState_VSA8>  (46) 
10.300767

>  <EState_VSA9>  (46) 
0.0

>  <VSA_EState1>  (46) 
0.0

>  <VSA_EState10>  (46) 
1.646032

>  <VSA_EState2>  (46) 
6.046708

>  <VSA_EState3>  (46) 
25.535823

>  <VSA_EState4>  (46) 
0.155872

>  <VSA_EState5>  (46) 
0.0

>  <VSA_EState6>  (46) 
0.0

>  <VSA_EState7>  (46) 
2.344498

>  <VSA_EState8>  (46) 
4.687734

>  <VSA_EState9>  (46) 
0.0

>  <FractionCSP3>  (46) 
0.769231

>  <HeavyAtomCount>  (46) 
19

>  <NHOHCount>  (46) 
5

>  <NOCount>  (46) 
5

>  <NumAliphaticCarbocycles>  (46) 
0

>  <NumAliphaticHeterocycles>  (46) 
2

>  <NumAliphaticRings>  (46) 
2

>  <NumAromaticCarbocycles>  (46) 
0

>  <NumAromaticHeterocycles>  (46) 
1

>  <NumAromaticRings>  (46) 
1

>  <NumHAcceptors>  (46) 
4

>  <NumHDonors>  (46) 
4

>  <NumHeteroatoms>  (46) 
6

>  <NumRotatableBonds>  (46) 
3

>  <NumSaturatedCarbocycles>  (46) 
0

>  <NumSaturatedHeterocycles>  (46) 
2

>  <NumSaturatedRings>  (46) 
2

>  <RingCount>  (46) 
3

>  <MolLogP>  (46) 
-2.1626

>  <MolMR>  (46) 
71.9287

>  <fr_Al_COO>  (46) 
0

>  <fr_Al_OH>  (46) 
2

>  <fr_Al_OH_noTert>  (46) 
1

>  <fr_ArN>  (46) 
0

>  <fr_Ar_COO>  (46) 
0

>  <fr_Ar_N>  (46) 
1

>  <fr_Ar_NH>  (46) 
0

>  <fr_Ar_OH>  (46) 
0

>  <fr_COO>  (46) 
0

>  <fr_COO2>  (46) 
0

>  <fr_C_O>  (46) 
0

>  <fr_C_O_noCOO>  (46) 
0

>  <fr_C_S>  (46) 
0

>  <fr_HOCCN>  (46) 
0

>  <fr_Imine>  (46) 
0

>  <fr_NH0>  (46) 
1

>  <fr_NH1>  (46) 
1

>  <fr_NH2>  (46) 
1

>  <fr_N_O>  (46) 
0

>  <fr_Ndealkylation1>  (46) 
0

>  <fr_Ndealkylation2>  (46) 
1

>  <fr_Nhpyrrole>  (46) 
0

>  <fr_SH>  (46) 
0

>  <fr_aldehyde>  (46) 
0

>  <fr_alkyl_carbamate>  (46) 
0

>  <fr_alkyl_halide>  (46) 
0

>  <fr_allylic_oxid>  (46) 
0

>  <fr_amide>  (46) 
0

>  <fr_amidine>  (46) 
0

>  <fr_aniline>  (46) 
0

>  <fr_aryl_methyl>  (46) 
0

>  <fr_azide>  (46) 
0

>  <fr_azo>  (46) 
0

>  <fr_barbitur>  (46) 
0

>  <fr_benzene>  (46) 
0

>  <fr_benzodiazepine>  (46) 
0

>  <fr_bicyclic>  (46) 
0

>  <fr_diazo>  (46) 
0

>  <fr_dihydropyridine>  (46) 
0

>  <fr_epoxide>  (46) 
0

>  <fr_ester>  (46) 
0

>  <fr_ether>  (46) 
0

>  <fr_furan>  (46) 
0

>  <fr_guanido>  (46) 
0

>  <fr_halogen>  (46) 
0

>  <fr_hdrzine>  (46) 
0

>  <fr_hdrzone>  (46) 
0

>  <fr_imidazole>  (46) 
0

>  <fr_imide>  (46) 
0

>  <fr_isocyan>  (46) 
0

>  <fr_isothiocyan>  (46) 
0

>  <fr_ketone>  (46) 
0

>  <fr_ketone_Topliss>  (46) 
0

>  <fr_lactam>  (46) 
0

>  <fr_lactone>  (46) 
0

>  <fr_methoxy>  (46) 
0

>  <fr_morpholine>  (46) 
0

>  <fr_nitrile>  (46) 
0

>  <fr_nitro>  (46) 
0

>  <fr_nitro_arom>  (46) 
0

>  <fr_nitro_arom_nonortho>  (46) 
0

>  <fr_nitroso>  (46) 
0

>  <fr_oxazole>  (46) 
0

>  <fr_oxime>  (46) 
0

>  <fr_para_hydroxylation>  (46) 
0

>  <fr_phenol>  (46) 
0

>  <fr_phenol_noOrthoHbond>  (46) 
0

>  <fr_phos_acid>  (46) 
0

>  <fr_phos_ester>  (46) 
0

>  <fr_piperdine>  (46) 
1

>  <fr_piperzine>  (46) 
0

>  <fr_priamide>  (46) 
0

>  <fr_prisulfonamd>  (46) 
0

>  <fr_pyridine>  (46) 
0

>  <fr_quatN>  (46) 
2

>  <fr_sulfide>  (46) 
0

>  <fr_sulfonamd>  (46) 
0

>  <fr_sulfone>  (46) 
0

>  <fr_term_acetylene>  (46) 
0

>  <fr_tetrazole>  (46) 
0

>  <fr_thiazole>  (46) 
1

>  <fr_thiocyan>  (46) 
0

>  <fr_thiophene>  (46) 
0

>  <fr_unbrch_alkane>  (46) 
0

>  <fr_urea>  (46) 
0

>  <NP_Likeness>  (46) 
-0.082879

$$$$
F296
     RDKit          3D

  0  0  0  0  0  0  0  0  0  0999 V3000
M  V30 BEGIN CTAB
M  V30 COUNTS 31 33 0 0 0
M  V30 BEGIN ATOM
M  V30 1 F -16.677000 2.472000 -19.978000 0
M  V30 2 O -12.251000 6.453000 -18.107000 0
M  V30 3 O -12.229000 2.555000 -18.611000 0
M  V30 4 N -8.807000 2.600000 -19.826000 0 CHG=1
M  V30 5 N -10.887000 5.042000 -19.132000 0
M  V30 6 C -9.714000 5.824000 -18.706000 0
M  V30 7 C -9.877000 2.022000 -18.993000 0
M  V30 8 C -9.403000 3.657000 -20.701000 0
M  V30 9 C -15.633000 4.572000 -19.712000 0
M  V30 10 C -14.498000 5.305000 -19.436000 0
M  V30 11 C -14.455000 2.530000 -19.286000 0
M  V30 12 C -15.582000 3.196000 -19.645000 0
M  V30 13 C -12.130000 5.443000 -18.766000 0
M  V30 14 C -11.114000 2.662000 -19.412000 0 CFG=2
M  V30 15 C -13.346000 3.263000 -19.001000 0
M  V30 16 C -10.614000 3.884000 -19.915000 0 CFG=1
M  V30 17 C -13.341000 4.631000 -19.120000 0
M  V30 18 H -8.397400 1.884900 -20.392500 0
M  V30 19 H -8.881900 5.395100 -19.057600 0
M  V30 20 H -9.786100 6.754900 -19.064000 0
M  V30 21 H -9.677500 5.852900 -17.707100 0
M  V30 22 H -9.701500 2.208100 -18.026300 0
M  V30 23 H -9.932400 1.034100 -19.137600 0
M  V30 24 H -9.602700 3.322400 -21.622000 0
M  V30 25 H -8.827700 4.472800 -20.760200 0
M  V30 26 H -16.484900 5.034200 -19.958400 0
M  V30 27 H -14.515500 6.304400 -19.464900 0
M  V30 28 H -14.440900 1.531500 -19.232800 0
M  V30 29 H -11.369900 2.157600 -20.236700 0
M  V30 30 H -11.265600 4.032900 -20.658800 0
M  V30 31 H -8.104700 3.004100 -19.239900 0
M  V30 END ATOM
M  V30 BEGIN BOND
M  V30 1 1 1 12
M  V30 2 2 2 13
M  V30 3 1 3 14
M  V30 4 1 3 15
M  V30 5 1 4 7
M  V30 6 1 4 8
M  V30 7 1 5 6
M  V30 8 1 5 13
M  V30 9 1 5 16
M  V30 10 1 7 14
M  V30 11 1 8 16
M  V30 12 1 9 10
M  V30 13 2 9 12
M  V30 14 2 10 17
M  V30 15 1 11 12
M  V30 16 2 11 15
M  V30 17 1 13 17
M  V30 18 1 14 16
M  V30 19 1 15 17
M  V30 20 1 4 18
M  V30 21 1 6 19
M  V30 22 1 6 20
M  V30 23 1 6 21
M  V30 24 1 7 22
M  V30 25 1 7 23
M  V30 26 1 8 24
M  V30 27 1 8 25
M  V30 28 1 9 26
M  V30 29 1 10 27
M  V30 30 1 11 28
M  V30 31 1 14 29 CFG=3
M  V30 32 1 16 30 CFG=3
M  V30 33 1 4 31
M  V30 END BOND
M  V30 END CTAB
M  END
>  <Ligand_Instance>  (47) 
296_B_1

>  <Dataset>  (47) 
CF

>  <PDB_ID>  (47) 
None

>  <Chain>  (47) 
B

>  <Resi>  (47) 
1

>  <Num_Resolved_Atoms>  (47) 
17

>  <Num_H_Atoms_ProtBoundConf>  (47) 
14

>  <Pocket>  (47) 
A

>  <Name>  (47) 
(3S,7R)‐13‐fluoro‐8‐methyl‐2‐oxa‐5,8‐diazatricyclo[8.4.0.0]tetradeca‐1(10),11,13‐trien‐9‐one

>  <Num_Not_Resolved_Atoms>  (47) 
0

>  <ATP_Site>  (47) 
True

>  <Peripheral>  (47) 
False

>  <Standardized_SMILES>  (47) 
[H]C1=C(F)C([H])=C2O[C@]3([H])C([H])([H])[N+]([H])([H])C([H])([H])[C@]3([H])N(C([H])([H])[H])C(=O)C2=C1[H]

>  <2D_Mol_H>  (47) 
<rdkit.Chem.rdchem.Mol object at 0x77059d9d97e0>

>  <MW>  (47) 
237.254

>  <HBA>  (47) 
2

>  <HBD>  (47) 
1

>  <LogP>  (47) 
-0.3957

>  <NRB>  (47) 
1

>  <TPSA>  (47) 
46.15

>  <Num_Heavy_Atoms>  (47) 
17

>  <Ro5>  (47) 
[True, True, True, True, True, True]

>  <Ro5_Fulfilled>  (47) 
True

>  <Ro3>  (47) 
[True, True, True, True]

>  <Ro3_Fulfilled>  (47) 
True

>  <Fsp3>  (47) 
0.416667

>  <Fsp3_0.42>  (47) 
False

>  <Fsp3_0.45>  (47) 
False

>  <Stereogenic_Carbons>  (47) 
2

>  <C_Atoms>  (47) 
12

>  <FCStereo>  (47) 
0.166667

>  <SPS>  (47) 
462

>  <nSPS>  (47) 
27.176471

>  <PBF>  (47) 
0.635243

>  <PBF_0.6>  (47) 
True

>  <nPBF>  (47) 
0.037367

>  <nPBF_0.016>  (47) 
True

>  <PMI1>  (47) 
562.8467

>  <PMI2>  (47) 
1471.356625

>  <PMI3>  (47) 
1871.004757

>  <NPR1>  (47) 
0.300826

>  <NPR2>  (47) 
0.786399

>  <Sum_NPR>  (47) 
1.087225

>  <Sum_NPR_1.07>  (47) 
True

>  <Sum_NPR_1.2>  (47) 
False

>  <MaxAbsEStateIndex>  (47) 
13.182572

>  <MaxEStateIndex>  (47) 
13.182572

>  <MinAbsEStateIndex>  (47) 
0.049074

>  <MinEStateIndex>  (47) 
-0.375343

>  <qed>  (47) 
0.667396

>  <MolWt>  (47) 
237.254

>  <HeavyAtomMolWt>  (47) 
223.142

>  <ExactMolWt>  (47) 
237.103382

>  <NumValenceElectrons>  (47) 
90

>  <NumRadicalElectrons>  (47) 
0

>  <MaxPartialCharge>  (47) 
0.257454

>  <MinPartialCharge>  (47) 
-0.48116

>  <MaxAbsPartialCharge>  (47) 
0.48116

>  <MinAbsPartialCharge>  (47) 
0.257454

>  <FpDensityMorgan1>  (47) 
1.470588

>  <FpDensityMorgan2>  (47) 
2.294118

>  <FpDensityMorgan3>  (47) 
3.117647

>  <BCUT2D_MWHI>  (47) 
19.142145

>  <BCUT2D_MWLOW>  (47) 
10.134138

>  <BCUT2D_CHGHI>  (47) 
2.409626

>  <BCUT2D_CHGLO>  (47) 
-2.220453

>  <BCUT2D_LOGPHI>  (47) 
2.276741

>  <BCUT2D_LOGPLOW>  (47) 
-2.822574

>  <BCUT2D_MRHI>  (47) 
5.969792

>  <BCUT2D_MRLOW>  (47) 
-0.638937

>  <AvgIpc>  (47) 
2.720672

>  <BalabanJ>  (47) 
2.07954

>  <BertzCT>  (47) 
477.573475

>  <Chi0>  (47) 
11.991199

>  <Chi0n>  (47) 
9.51999

>  <Chi0v>  (47) 
9.51999

>  <Chi1>  (47) 
8.164704

>  <Chi1n>  (47) 
5.716312

>  <Chi1v>  (47) 
5.716312

>  <Chi2n>  (47) 
4.540269

>  <Chi2v>  (47) 
4.540269

>  <Chi3n>  (47) 
3.506515

>  <Chi3v>  (47) 
3.506515

>  <Chi4n>  (47) 
2.548332

>  <Chi4v>  (47) 
2.548332

>  <HallKierAlpha>  (47) 
-1.62

>  <Ipc>  (47) 
12259.345971

>  <Kappa1>  (47) 
10.528695

>  <Kappa2>  (47) 
3.699317

>  <Kappa3>  (47) 
1.577326

>  <LabuteASA>  (47) 
98.359692

>  <PEOE_VSA1>  (47) 
14.953561

>  <PEOE_VSA10>  (47) 
30.698086

>  <PEOE_VSA11>  (47) 
6.103966

>  <PEOE_VSA12>  (47) 
0.0

>  <PEOE_VSA13>  (47) 
5.90718

>  <PEOE_VSA14>  (47) 
0.0

>  <PEOE_VSA2>  (47) 
4.794537

>  <PEOE_VSA3>  (47) 
4.390415

>  <PEOE_VSA4>  (47) 
0.0

>  <PEOE_VSA5>  (47) 
0.0

>  <PEOE_VSA6>  (47) 
0.0

>  <PEOE_VSA7>  (47) 
12.132734

>  <PEOE_VSA8>  (47) 
13.114039

>  <PEOE_VSA9>  (47) 
5.563451

>  <SMR_VSA1>  (47) 
19.238604

>  <SMR_VSA10>  (47) 
5.90718

>  <SMR_VSA2>  (47) 
0.0

>  <SMR_VSA3>  (47) 
4.89991

>  <SMR_VSA4>  (47) 
0.0

>  <SMR_VSA5>  (47) 
12.145807

>  <SMR_VSA6>  (47) 
20.137185

>  <SMR_VSA7>  (47) 
29.579774

>  <SMR_VSA8>  (47) 
0.0

>  <SMR_VSA9>  (47) 
5.749512

>  <SlogP_VSA1>  (47) 
10.053652

>  <SlogP_VSA10>  (47) 
4.390415

>  <SlogP_VSA11>  (47) 
5.749512

>  <SlogP_VSA12>  (47) 
0.0

>  <SlogP_VSA2>  (47) 
43.090081

>  <SlogP_VSA3>  (47) 
0.0

>  <SlogP_VSA4>  (47) 
5.817221

>  <SlogP_VSA5>  (47) 
10.357989

>  <SlogP_VSA6>  (47) 
18.199101

>  <SlogP_VSA7>  (47) 
0.0

>  <SlogP_VSA8>  (47) 
0.0

>  <SlogP_VSA9>  (47) 
0.0

>  <EState_VSA1>  (47) 
0.0

>  <EState_VSA10>  (47) 
9.184952

>  <EState_VSA11>  (47) 
0.0

>  <EState_VSA2>  (47) 
23.870208

>  <EState_VSA3>  (47) 
11.312963

>  <EState_VSA4>  (47) 
13.089513

>  <EState_VSA5>  (47) 
18.199101

>  <EState_VSA6>  (47) 
11.947582

>  <EState_VSA7>  (47) 
0.0

>  <EState_VSA8>  (47) 
5.316789

>  <EState_VSA9>  (47) 
4.736863

>  <VSA_EState1>  (47) 
18.951322

>  <VSA_EState10>  (47) 
0.0

>  <VSA_EState2>  (47) 
13.90631

>  <VSA_EState3>  (47) 
2.114488

>  <VSA_EState4>  (47) 
0.4475

>  <VSA_EState5>  (47) 
-0.104556

>  <VSA_EState6>  (47) 
4.148104

>  <VSA_EState7>  (47) 
-0.049074

>  <VSA_EState8>  (47) 
1.640493

>  <VSA_EState9>  (47) 
1.778747

>  <FractionCSP3>  (47) 
0.416667

>  <HeavyAtomCount>  (47) 
17

>  <NHOHCount>  (47) 
2

>  <NOCount>  (47) 
4

>  <NumAliphaticCarbocycles>  (47) 
0

>  <NumAliphaticHeterocycles>  (47) 
2

>  <NumAliphaticRings>  (47) 
2

>  <NumAromaticCarbocycles>  (47) 
1

>  <NumAromaticHeterocycles>  (47) 
0

>  <NumAromaticRings>  (47) 
1

>  <NumHAcceptors>  (47) 
2

>  <NumHDonors>  (47) 
1

>  <NumHeteroatoms>  (47) 
5

>  <NumRotatableBonds>  (47) 
0

>  <NumSaturatedCarbocycles>  (47) 
0

>  <NumSaturatedHeterocycles>  (47) 
1

>  <NumSaturatedRings>  (47) 
1

>  <RingCount>  (47) 
3

>  <MolLogP>  (47) 
-0.3957

>  <MolMR>  (47) 
58.3569

>  <fr_Al_COO>  (47) 
0

>  <fr_Al_OH>  (47) 
0

>  <fr_Al_OH_noTert>  (47) 
0

>  <fr_ArN>  (47) 
0

>  <fr_Ar_COO>  (47) 
0

>  <fr_Ar_N>  (47) 
0

>  <fr_Ar_NH>  (47) 
0

>  <fr_Ar_OH>  (47) 
0

>  <fr_COO>  (47) 
0

>  <fr_COO2>  (47) 
0

>  <fr_C_O>  (47) 
1

>  <fr_C_O_noCOO>  (47) 
1

>  <fr_C_S>  (47) 
0

>  <fr_HOCCN>  (47) 
0

>  <fr_Imine>  (47) 
0

>  <fr_NH0>  (47) 
1

>  <fr_NH1>  (47) 
0

>  <fr_NH2>  (47) 
1

>  <fr_N_O>  (47) 
0

>  <fr_Ndealkylation1>  (47) 
1

>  <fr_Ndealkylation2>  (47) 
0

>  <fr_Nhpyrrole>  (47) 
0

>  <fr_SH>  (47) 
0

>  <fr_aldehyde>  (47) 
0

>  <fr_alkyl_carbamate>  (47) 
0

>  <fr_alkyl_halide>  (47) 
0

>  <fr_allylic_oxid>  (47) 
0

>  <fr_amide>  (47) 
1

>  <fr_amidine>  (47) 
0

>  <fr_aniline>  (47) 
0

>  <fr_aryl_methyl>  (47) 
0

>  <fr_azide>  (47) 
0

>  <fr_azo>  (47) 
0

>  <fr_barbitur>  (47) 
0

>  <fr_benzene>  (47) 
1

>  <fr_benzodiazepine>  (47) 
0

>  <fr_bicyclic>  (47) 
2

>  <fr_diazo>  (47) 
0

>  <fr_dihydropyridine>  (47) 
0

>  <fr_epoxide>  (47) 
0

>  <fr_ester>  (47) 
0

>  <fr_ether>  (47) 
1

>  <fr_furan>  (47) 
0

>  <fr_guanido>  (47) 
0

>  <fr_halogen>  (47) 
1

>  <fr_hdrzine>  (47) 
0

>  <fr_hdrzone>  (47) 
0

>  <fr_imidazole>  (47) 
0

>  <fr_imide>  (47) 
0

>  <fr_isocyan>  (47) 
0

>  <fr_isothiocyan>  (47) 
0

>  <fr_ketone>  (47) 
0

>  <fr_ketone_Topliss>  (47) 
0

>  <fr_lactam>  (47) 
0

>  <fr_lactone>  (47) 
0

>  <fr_methoxy>  (47) 
0

>  <fr_morpholine>  (47) 
0

>  <fr_nitrile>  (47) 
0

>  <fr_nitro>  (47) 
0

>  <fr_nitro_arom>  (47) 
0

>  <fr_nitro_arom_nonortho>  (47) 
0

>  <fr_nitroso>  (47) 
0

>  <fr_oxazole>  (47) 
0

>  <fr_oxime>  (47) 
0

>  <fr_para_hydroxylation>  (47) 
0

>  <fr_phenol>  (47) 
0

>  <fr_phenol_noOrthoHbond>  (47) 
0

>  <fr_phos_acid>  (47) 
0

>  <fr_phos_ester>  (47) 
0

>  <fr_piperdine>  (47) 
0

>  <fr_piperzine>  (47) 
0

>  <fr_priamide>  (47) 
0

>  <fr_prisulfonamd>  (47) 
0

>  <fr_pyridine>  (47) 
0

>  <fr_quatN>  (47) 
1

>  <fr_sulfide>  (47) 
0

>  <fr_sulfonamd>  (47) 
0

>  <fr_sulfone>  (47) 
0

>  <fr_term_acetylene>  (47) 
0

>  <fr_tetrazole>  (47) 
0

>  <fr_thiazole>  (47) 
0

>  <fr_thiocyan>  (47) 
0

>  <fr_thiophene>  (47) 
0

>  <fr_unbrch_alkane>  (47) 
0

>  <fr_urea>  (47) 
0

>  <NP_Likeness>  (47) 
-0.027432

$$$$
F299
     RDKit          3D

  0  0  0  0  0  0  0  0  0  0999 V3000
M  V30 BEGIN CTAB
M  V30 COUNTS 28 30 0 0 0
M  V30 BEGIN ATOM
M  V30 1 S -29.921000 21.804000 -36.655000 0
M  V30 2 O -29.411000 20.636000 -37.349000 0
M  V30 3 O -31.354000 21.972000 -36.486000 0
M  V30 4 O -28.737000 24.315000 -35.397000 0
M  V30 5 N -29.311000 21.719000 -35.081000 0
M  V30 6 N -27.909000 22.622000 -32.654000 0 CHG=1
M  V30 7 N -28.288000 25.367000 -37.432000 0
M  V30 8 C -28.307000 25.402000 -38.808000 0
M  V30 9 C -27.617000 23.891000 -33.331000 0
M  V30 10 C -27.405000 21.576000 -33.545000 0
M  V30 11 C -28.801000 24.374000 -39.517000 0
M  V30 12 C -29.318000 23.227000 -38.801000 0
M  V30 13 C -29.293000 23.207000 -37.451000 0
M  V30 14 C -28.785000 24.256000 -36.767000 0
M  V30 15 C -27.649000 23.575000 -34.838000 0 CFG=1
M  V30 16 C -27.875000 22.051000 -34.921000 0 CFG=2
M  V30 17 H -29.447800 20.785300 -34.750000 0
M  V30 18 H -28.894000 22.518400 -32.516100 0
M  V30 19 H -27.948100 26.203700 -39.286100 0
M  V30 20 H -26.714300 24.228900 -33.064500 0
M  V30 21 H -28.309700 24.575300 -33.103300 0
M  V30 22 H -27.800100 20.686300 -33.316300 0
M  V30 23 H -26.407500 21.518000 -33.504900 0
M  V30 24 H -28.811500 24.400300 -40.516600 0
M  V30 25 H -29.693500 22.449800 -39.305900 0
M  V30 26 H -26.785400 23.830200 -35.272800 0
M  V30 27 H -27.326300 21.643400 -35.650900 0
M  V30 28 H -27.442700 22.582400 -31.770300 0
M  V30 END ATOM
M  V30 BEGIN BOND
M  V30 1 2 1 2
M  V30 2 2 1 3
M  V30 3 1 1 5
M  V30 4 1 1 13
M  V30 5 1 4 14
M  V30 6 1 4 15
M  V30 7 1 5 16
M  V30 8 1 6 9
M  V30 9 1 6 10
M  V30 10 1 7 8
M  V30 11 2 7 14
M  V30 12 2 8 11
M  V30 13 1 9 15
M  V30 14 1 10 16
M  V30 15 1 11 12
M  V30 16 2 12 13
M  V30 17 1 13 14
M  V30 18 1 15 16
M  V30 19 1 5 17
M  V30 20 1 6 18
M  V30 21 1 8 19
M  V30 22 1 9 20
M  V30 23 1 9 21
M  V30 24 1 10 22
M  V30 25 1 10 23
M  V30 26 1 11 24
M  V30 27 1 12 25
M  V30 28 1 15 26 CFG=3
M  V30 29 1 16 27 CFG=3
M  V30 30 1 6 28
M  V30 END BOND
M  V30 END CTAB
M  END
>  <Ligand_Instance>  (48) 
299_B_5

>  <Dataset>  (48) 
CF

>  <PDB_ID>  (48) 
None

>  <Chain>  (48) 
B

>  <Resi>  (48) 
5

>  <Num_Resolved_Atoms>  (48) 
16

>  <Num_H_Atoms_ProtBoundConf>  (48) 
12

>  <Pocket>  (48) 
X

>  <Name>  (48) 
(3S,7R)‐2‐oxa‐9lambda6‐thia‐5,8,14‐triazatricyclo[8.4.0.0]tetradeca‐1(10),11,13‐triene‐9,9‐dione

>  <Num_Not_Resolved_Atoms>  (48) 
0

>  <ATP_Site>  (48) 
True

>  <Peripheral>  (48) 
True

>  <Standardized_SMILES>  (48) 
[H]C1=C([H])C([H])=C2C(=N1)O[C@@]1([H])C([H])([H])[N+]([H])([H])C([H])([H])[C@@]1([H])N([H])S2(=O)=O

>  <2D_Mol_H>  (48) 
<rdkit.Chem.rdchem.Mol object at 0x77059d9d98c0>

>  <MW>  (48) 
242.28

>  <HBA>  (48) 
4

>  <HBD>  (48) 
2

>  <LogP>  (48) 
-1.9335

>  <NRB>  (48) 
0

>  <TPSA>  (48) 
84.9

>  <Num_Heavy_Atoms>  (48) 
16

>  <Ro5>  (48) 
[True, True, True, True, True, True]

>  <Ro5_Fulfilled>  (48) 
True

>  <Ro3>  (48) 
[True, False, True, True]

>  <Ro3_Fulfilled>  (48) 
True

>  <Fsp3>  (48) 
0.444444

>  <Fsp3_0.42>  (48) 
True

>  <Fsp3_0.45>  (48) 
False

>  <Stereogenic_Carbons>  (48) 
2

>  <C_Atoms>  (48) 
9

>  <FCStereo>  (48) 
0.222222

>  <SPS>  (48) 
496

>  <nSPS>  (48) 
31.0

>  <PBF>  (48) 
0.61273

>  <PBF_0.6>  (48) 
True

>  <nPBF>  (48) 
0.038296

>  <nPBF_0.016>  (48) 
True

>  <PMI1>  (48) 
633.165453

>  <PMI2>  (48) 
1120.180409

>  <PMI3>  (48) 
1543.937313

>  <NPR1>  (48) 
0.410098

>  <NPR2>  (48) 
0.725535

>  <Sum_NPR>  (48) 
1.135633

>  <Sum_NPR_1.07>  (48) 
True

>  <Sum_NPR_1.2>  (48) 
False

>  <MaxAbsEStateIndex>  (48) 
11.990648

>  <MaxEStateIndex>  (48) 
11.990648

>  <MinAbsEStateIndex>  (48) 
0.129074

>  <MinEStateIndex>  (48) 
-3.490208

>  <qed>  (48) 
0.554481

>  <MolWt>  (48) 
242.28

>  <HeavyAtomMolWt>  (48) 
230.184

>  <ExactMolWt>  (48) 
242.059389

>  <NumValenceElectrons>  (48) 
86

>  <NumRadicalElectrons>  (48) 
0

>  <MaxPartialCharge>  (48) 
0.246039

>  <MinPartialCharge>  (48) 
-0.465396

>  <MaxAbsPartialCharge>  (48) 
0.465396

>  <MinAbsPartialCharge>  (48) 
0.246039

>  <FpDensityMorgan1>  (48) 
1.5

>  <FpDensityMorgan2>  (48) 
2.375

>  <FpDensityMorgan3>  (48) 
3.25

>  <BCUT2D_MWHI>  (48) 
32.233272

>  <BCUT2D_MWLOW>  (48) 
10.217801

>  <BCUT2D_CHGHI>  (48) 
2.402728

>  <BCUT2D_CHGLO>  (48) 
-2.115792

>  <BCUT2D_LOGPHI>  (48) 
2.25189

>  <BCUT2D_LOGPLOW>  (48) 
-2.822574

>  <BCUT2D_MRHI>  (48) 
7.892422

>  <BCUT2D_MRLOW>  (48) 
-0.63829

>  <AvgIpc>  (48) 
2.614998

>  <BalabanJ>  (48) 
2.125498

>  <BertzCT>  (48) 
516.485425

>  <Chi0>  (48) 
11.173362

>  <Chi0n>  (48) 
8.458522

>  <Chi0v>  (48) 
9.275019

>  <Chi1>  (48) 
7.666633

>  <Chi1n>  (48) 
5.123557

>  <Chi1v>  (48) 
6.60672

>  <Chi2n>  (48) 
3.950854

>  <Chi2v>  (48) 
5.633256

>  <Chi3n>  (48) 
2.863646

>  <Chi3v>  (48) 
4.36643

>  <Chi4n>  (48) 
2.085591

>  <Chi4v>  (48) 
3.447557

>  <HallKierAlpha>  (48) 
-1.18

>  <Ipc>  (48) 
7138.945059

>  <Kappa1>  (48) 
10.00489

>  <Kappa2>  (48) 
3.406996

>  <Kappa3>  (48) 
1.477289

>  <LabuteASA>  (48) 
93.073203

>  <PEOE_VSA1>  (48) 
10.053652

>  <PEOE_VSA10>  (48) 
17.482081

>  <PEOE_VSA11>  (48) 
6.103966

>  <PEOE_VSA12>  (48) 
15.903279

>  <PEOE_VSA13>  (48) 
0.0

>  <PEOE_VSA14>  (48) 
0.0

>  <PEOE_VSA2>  (48) 
0.0

>  <PEOE_VSA3>  (48) 
13.401776

>  <PEOE_VSA4>  (48) 
4.722095

>  <PEOE_VSA5>  (48) 
0.0

>  <PEOE_VSA6>  (48) 
0.0

>  <PEOE_VSA7>  (48) 
12.132734

>  <PEOE_VSA8>  (48) 
6.196844

>  <PEOE_VSA9>  (48) 
6.544756

>  <SMR_VSA1>  (48) 
18.471449

>  <SMR_VSA10>  (48) 
10.023291

>  <SMR_VSA2>  (48) 
0.0

>  <SMR_VSA3>  (48) 
9.706073

>  <SMR_VSA4>  (48) 
0.0

>  <SMR_VSA5>  (48) 
17.041291

>  <SMR_VSA6>  (48) 
13.089513

>  <SMR_VSA7>  (48) 
18.329578

>  <SMR_VSA8>  (48) 
0.0

>  <SMR_VSA9>  (48) 
5.879988

>  <SlogP_VSA1>  (48) 
14.775746

>  <SlogP_VSA10>  (48) 
0.0

>  <SlogP_VSA11>  (48) 
5.879988

>  <SlogP_VSA12>  (48) 
0.0

>  <SlogP_VSA2>  (48) 
38.637096

>  <SlogP_VSA3>  (48) 
10.023291

>  <SlogP_VSA4>  (48) 
0.0

>  <SlogP_VSA5>  (48) 
0.0

>  <SlogP_VSA6>  (48) 
23.225061

>  <SlogP_VSA7>  (48) 
0.0

>  <SlogP_VSA8>  (48) 
0.0

>  <SlogP_VSA9>  (48) 
0.0

>  <EState_VSA1>  (48) 
10.023291

>  <EState_VSA10>  (48) 
8.417797

>  <EState_VSA11>  (48) 
0.0

>  <EState_VSA2>  (48) 
22.921279

>  <EState_VSA3>  (48) 
6.544756

>  <EState_VSA4>  (48) 
6.544756

>  <EState_VSA5>  (48) 
12.263211

>  <EState_VSA6>  (48) 
6.066367

>  <EState_VSA7>  (48) 
5.316789

>  <EState_VSA8>  (48) 
9.706073

>  <EState_VSA9>  (48) 
4.736863

>  <VSA_EState1>  (48) 
32.263032

>  <VSA_EState10>  (48) 
0.0

>  <VSA_EState2>  (48) 
4.109097

>  <VSA_EState3>  (48) 
2.033519

>  <VSA_EState4>  (48) 
0.0

>  <VSA_EState5>  (48) 
0.206296

>  <VSA_EState6>  (48) 
2.933857

>  <VSA_EState7>  (48) 
1.401662

>  <VSA_EState8>  (48) 
1.459411

>  <VSA_EState9>  (48) 
-3.490208

>  <FractionCSP3>  (48) 
0.444444

>  <HeavyAtomCount>  (48) 
16

>  <NHOHCount>  (48) 
3

>  <NOCount>  (48) 
6

>  <NumAliphaticCarbocycles>  (48) 
0

>  <NumAliphaticHeterocycles>  (48) 
2

>  <NumAliphaticRings>  (48) 
2

>  <NumAromaticCarbocycles>  (48) 
0

>  <NumAromaticHeterocycles>  (48) 
1

>  <NumAromaticRings>  (48) 
1

>  <NumHAcceptors>  (48) 
4

>  <NumHDonors>  (48) 
2

>  <NumHeteroatoms>  (48) 
7

>  <NumRotatableBonds>  (48) 
0

>  <NumSaturatedCarbocycles>  (48) 
0

>  <NumSaturatedHeterocycles>  (48) 
1

>  <NumSaturatedRings>  (48) 
1

>  <RingCount>  (48) 
3

>  <MolLogP>  (48) 
-1.9335

>  <MolMR>  (48) 
54.4219

>  <fr_Al_COO>  (48) 
0

>  <fr_Al_OH>  (48) 
0

>  <fr_Al_OH_noTert>  (48) 
0

>  <fr_ArN>  (48) 
0

>  <fr_Ar_COO>  (48) 
0

>  <fr_Ar_N>  (48) 
1

>  <fr_Ar_NH>  (48) 
0

>  <fr_Ar_OH>  (48) 
0

>  <fr_COO>  (48) 
0

>  <fr_COO2>  (48) 
0

>  <fr_C_O>  (48) 
0

>  <fr_C_O_noCOO>  (48) 
0

>  <fr_C_S>  (48) 
0

>  <fr_HOCCN>  (48) 
0

>  <fr_Imine>  (48) 
0

>  <fr_NH0>  (48) 
1

>  <fr_NH1>  (48) 
1

>  <fr_NH2>  (48) 
1

>  <fr_N_O>  (48) 
0

>  <fr_Ndealkylation1>  (48) 
0

>  <fr_Ndealkylation2>  (48) 
0

>  <fr_Nhpyrrole>  (48) 
0

>  <fr_SH>  (48) 
0

>  <fr_aldehyde>  (48) 
0

>  <fr_alkyl_carbamate>  (48) 
0

>  <fr_alkyl_halide>  (48) 
0

>  <fr_allylic_oxid>  (48) 
0

>  <fr_amide>  (48) 
0

>  <fr_amidine>  (48) 
0

>  <fr_aniline>  (48) 
0

>  <fr_aryl_methyl>  (48) 
0

>  <fr_azide>  (48) 
0

>  <fr_azo>  (48) 
0

>  <fr_barbitur>  (48) 
0

>  <fr_benzene>  (48) 
0

>  <fr_benzodiazepine>  (48) 
0

>  <fr_bicyclic>  (48) 
2

>  <fr_diazo>  (48) 
0

>  <fr_dihydropyridine>  (48) 
0

>  <fr_epoxide>  (48) 
0

>  <fr_ester>  (48) 
0

>  <fr_ether>  (48) 
1

>  <fr_furan>  (48) 
0

>  <fr_guanido>  (48) 
0

>  <fr_halogen>  (48) 
0

>  <fr_hdrzine>  (48) 
0

>  <fr_hdrzone>  (48) 
0

>  <fr_imidazole>  (48) 
0

>  <fr_imide>  (48) 
0

>  <fr_isocyan>  (48) 
0

>  <fr_isothiocyan>  (48) 
0

>  <fr_ketone>  (48) 
0

>  <fr_ketone_Topliss>  (48) 
0

>  <fr_lactam>  (48) 
0

>  <fr_lactone>  (48) 
0

>  <fr_methoxy>  (48) 
0

>  <fr_morpholine>  (48) 
0

>  <fr_nitrile>  (48) 
0

>  <fr_nitro>  (48) 
0

>  <fr_nitro_arom>  (48) 
0

>  <fr_nitro_arom_nonortho>  (48) 
0

>  <fr_nitroso>  (48) 
0

>  <fr_oxazole>  (48) 
0

>  <fr_oxime>  (48) 
0

>  <fr_para_hydroxylation>  (48) 
0

>  <fr_phenol>  (48) 
0

>  <fr_phenol_noOrthoHbond>  (48) 
0

>  <fr_phos_acid>  (48) 
0

>  <fr_phos_ester>  (48) 
0

>  <fr_piperdine>  (48) 
0

>  <fr_piperzine>  (48) 
0

>  <fr_priamide>  (48) 
0

>  <fr_prisulfonamd>  (48) 
0

>  <fr_pyridine>  (48) 
1

>  <fr_quatN>  (48) 
1

>  <fr_sulfide>  (48) 
0

>  <fr_sulfonamd>  (48) 
1

>  <fr_sulfone>  (48) 
0

>  <fr_term_acetylene>  (48) 
0

>  <fr_tetrazole>  (48) 
0

>  <fr_thiazole>  (48) 
0

>  <fr_thiocyan>  (48) 
0

>  <fr_thiophene>  (48) 
0

>  <fr_unbrch_alkane>  (48) 
0

>  <fr_urea>  (48) 
0

>  <NP_Likeness>  (48) 
-0.697796

$$$$
F299
     RDKit          3D

  0  0  0  0  0  0  0  0  0  0999 V3000
M  V30 BEGIN CTAB
M  V30 COUNTS 28 30 0 0 0
M  V30 BEGIN ATOM
M  V30 1 S -1.347000 4.014000 -19.201000 0
M  V30 2 O -0.225000 3.477000 -19.952000 0
M  V30 3 O -2.219000 3.101000 -18.496000 0
M  V30 4 O -1.363000 7.031000 -19.507000 0
M  V30 5 N -2.233000 4.709000 -20.463000 0
M  V30 6 N -3.090000 7.454000 -21.787000 0 CHG=1
M  V30 7 N -0.290000 7.463000 -17.489000 0
M  V30 8 C 0.303000 7.051000 -16.317000 0
M  V30 9 C -3.168000 8.115000 -20.478000 0
M  V30 10 C -3.810000 6.199000 -21.554000 0
M  V30 11 C 0.399000 5.747000 -16.022000 0
M  V30 12 C -0.139000 4.790000 -16.968000 0
M  V30 13 C -0.724000 5.208000 -18.111000 0
M  V30 14 C -0.804000 6.525000 -18.370000 0
M  V30 15 C -2.778000 6.992000 -19.516000 0 CFG=1
M  V30 16 C -3.290000 5.708000 -20.204000 0 CFG=2
M  V30 17 H -2.671800 3.953400 -20.949400 0
M  V30 18 H -2.140300 7.282200 -22.048800 0
M  V30 19 H 0.665600 7.731000 -15.679700 0
M  V30 20 H -4.094400 8.443300 -20.293600 0
M  V30 21 H -2.525900 8.879400 -20.420400 0
M  V30 22 H -3.606900 5.535500 -22.274100 0
M  V30 23 H -4.796500 6.358600 -21.516500 0
M  V30 24 H 0.830000 5.442900 -15.172500 0
M  V30 25 H -0.076400 3.811300 -16.772600 0
M  V30 26 H -3.168800 7.117900 -18.604200 0
M  V30 27 H -4.032200 5.300100 -19.672200 0
M  V30 28 H -3.537200 8.000800 -22.494900 0
M  V30 END ATOM
M  V30 BEGIN BOND
M  V30 1 2 1 2
M  V30 2 2 1 3
M  V30 3 1 1 5
M  V30 4 1 1 13
M  V30 5 1 4 14
M  V30 6 1 4 15
M  V30 7 1 5 16
M  V30 8 1 6 9
M  V30 9 1 6 10
M  V30 10 1 7 8
M  V30 11 2 7 14
M  V30 12 2 8 11
M  V30 13 1 9 15
M  V30 14 1 10 16
M  V30 15 1 11 12
M  V30 16 2 12 13
M  V30 17 1 13 14
M  V30 18 1 15 16
M  V30 19 1 5 17
M  V30 20 1 6 18
M  V30 21 1 8 19
M  V30 22 1 9 20
M  V30 23 1 9 21
M  V30 24 1 10 22
M  V30 25 1 10 23
M  V30 26 1 11 24
M  V30 27 1 12 25
M  V30 28 1 15 26 CFG=1
M  V30 29 1 16 27 CFG=1
M  V30 30 1 6 28
M  V30 END BOND
M  V30 END CTAB
M  END
>  <Ligand_Instance>  (49) 
299_B_6

>  <Dataset>  (49) 
CF

>  <PDB_ID>  (49) 
None

>  <Chain>  (49) 
B

>  <Resi>  (49) 
6

>  <Num_Resolved_Atoms>  (49) 
16

>  <Num_H_Atoms_ProtBoundConf>  (49) 
12

>  <Pocket>  (49) 
X

>  <Name>  (49) 
(3S,7R)‐2‐oxa‐9lambda6‐thia‐5,8,14‐triazatricyclo[8.4.0.0]tetradeca‐1(10),11,13‐triene‐9,9‐dione

>  <Num_Not_Resolved_Atoms>  (49) 
0

>  <ATP_Site>  (49) 
True

>  <Peripheral>  (49) 
True

>  <Standardized_SMILES>  (49) 
[H]C1=C([H])C([H])=C2C(=N1)O[C@@]1([H])C([H])([H])[N+]([H])([H])C([H])([H])[C@@]1([H])N([H])S2(=O)=O

>  <2D_Mol_H>  (49) 
<rdkit.Chem.rdchem.Mol object at 0x77059d9d99a0>

>  <MW>  (49) 
242.28

>  <HBA>  (49) 
4

>  <HBD>  (49) 
2

>  <LogP>  (49) 
-1.9335

>  <NRB>  (49) 
0

>  <TPSA>  (49) 
84.9

>  <Num_Heavy_Atoms>  (49) 
16

>  <Ro5>  (49) 
[True, True, True, True, True, True]

>  <Ro5_Fulfilled>  (49) 
True

>  <Ro3>  (49) 
[True, False, True, True]

>  <Ro3_Fulfilled>  (49) 
True

>  <Fsp3>  (49) 
0.444444

>  <Fsp3_0.42>  (49) 
True

>  <Fsp3_0.45>  (49) 
False

>  <Stereogenic_Carbons>  (49) 
2

>  <C_Atoms>  (49) 
9

>  <FCStereo>  (49) 
0.222222

>  <SPS>  (49) 
496

>  <nSPS>  (49) 
31.0

>  <PBF>  (49) 
0.554192

>  <PBF_0.6>  (49) 
False

>  <nPBF>  (49) 
0.034637

>  <nPBF_0.016>  (49) 
True

>  <PMI1>  (49) 
644.459328

>  <PMI2>  (49) 
1095.871603

>  <PMI3>  (49) 
1570.828774

>  <NPR1>  (49) 
0.410267

>  <NPR2>  (49) 
0.697639

>  <Sum_NPR>  (49) 
1.107906

>  <Sum_NPR_1.07>  (49) 
True

>  <Sum_NPR_1.2>  (49) 
False

>  <MaxAbsEStateIndex>  (49) 
11.990648

>  <MaxEStateIndex>  (49) 
11.990648

>  <MinAbsEStateIndex>  (49) 
0.129074

>  <MinEStateIndex>  (49) 
-3.490208

>  <qed>  (49) 
0.554481

>  <MolWt>  (49) 
242.28

>  <HeavyAtomMolWt>  (49) 
230.184

>  <ExactMolWt>  (49) 
242.059389

>  <NumValenceElectrons>  (49) 
86

>  <NumRadicalElectrons>  (49) 
0

>  <MaxPartialCharge>  (49) 
0.246039

>  <MinPartialCharge>  (49) 
-0.465396

>  <MaxAbsPartialCharge>  (49) 
0.465396

>  <MinAbsPartialCharge>  (49) 
0.246039

>  <FpDensityMorgan1>  (49) 
1.5

>  <FpDensityMorgan2>  (49) 
2.375

>  <FpDensityMorgan3>  (49) 
3.25

>  <BCUT2D_MWHI>  (49) 
32.233272

>  <BCUT2D_MWLOW>  (49) 
10.217801

>  <BCUT2D_CHGHI>  (49) 
2.402728

>  <BCUT2D_CHGLO>  (49) 
-2.115792

>  <BCUT2D_LOGPHI>  (49) 
2.25189

>  <BCUT2D_LOGPLOW>  (49) 
-2.822574

>  <BCUT2D_MRHI>  (49) 
7.892422

>  <BCUT2D_MRLOW>  (49) 
-0.63829

>  <AvgIpc>  (49) 
2.614998

>  <BalabanJ>  (49) 
2.125498

>  <BertzCT>  (49) 
516.485425

>  <Chi0>  (49) 
11.173362

>  <Chi0n>  (49) 
8.458522

>  <Chi0v>  (49) 
9.275019

>  <Chi1>  (49) 
7.666633

>  <Chi1n>  (49) 
5.123557

>  <Chi1v>  (49) 
6.60672

>  <Chi2n>  (49) 
3.950854

>  <Chi2v>  (49) 
5.633256

>  <Chi3n>  (49) 
2.863646

>  <Chi3v>  (49) 
4.36643

>  <Chi4n>  (49) 
2.085591

>  <Chi4v>  (49) 
3.447557

>  <HallKierAlpha>  (49) 
-1.18

>  <Ipc>  (49) 
7138.945059

>  <Kappa1>  (49) 
10.00489

>  <Kappa2>  (49) 
3.406996

>  <Kappa3>  (49) 
1.477289

>  <LabuteASA>  (49) 
93.073203

>  <PEOE_VSA1>  (49) 
10.053652

>  <PEOE_VSA10>  (49) 
17.482081

>  <PEOE_VSA11>  (49) 
6.103966

>  <PEOE_VSA12>  (49) 
15.903279

>  <PEOE_VSA13>  (49) 
0.0

>  <PEOE_VSA14>  (49) 
0.0

>  <PEOE_VSA2>  (49) 
0.0

>  <PEOE_VSA3>  (49) 
13.401776

>  <PEOE_VSA4>  (49) 
4.722095

>  <PEOE_VSA5>  (49) 
0.0

>  <PEOE_VSA6>  (49) 
0.0

>  <PEOE_VSA7>  (49) 
12.132734

>  <PEOE_VSA8>  (49) 
6.196844

>  <PEOE_VSA9>  (49) 
6.544756

>  <SMR_VSA1>  (49) 
18.471449

>  <SMR_VSA10>  (49) 
10.023291

>  <SMR_VSA2>  (49) 
0.0

>  <SMR_VSA3>  (49) 
9.706073

>  <SMR_VSA4>  (49) 
0.0

>  <SMR_VSA5>  (49) 
17.041291

>  <SMR_VSA6>  (49) 
13.089513

>  <SMR_VSA7>  (49) 
18.329578

>  <SMR_VSA8>  (49) 
0.0

>  <SMR_VSA9>  (49) 
5.879988

>  <SlogP_VSA1>  (49) 
14.775746

>  <SlogP_VSA10>  (49) 
0.0

>  <SlogP_VSA11>  (49) 
5.879988

>  <SlogP_VSA12>  (49) 
0.0

>  <SlogP_VSA2>  (49) 
38.637096

>  <SlogP_VSA3>  (49) 
10.023291

>  <SlogP_VSA4>  (49) 
0.0

>  <SlogP_VSA5>  (49) 
0.0

>  <SlogP_VSA6>  (49) 
23.225061

>  <SlogP_VSA7>  (49) 
0.0

>  <SlogP_VSA8>  (49) 
0.0

>  <SlogP_VSA9>  (49) 
0.0

>  <EState_VSA1>  (49) 
10.023291

>  <EState_VSA10>  (49) 
8.417797

>  <EState_VSA11>  (49) 
0.0

>  <EState_VSA2>  (49) 
22.921279

>  <EState_VSA3>  (49) 
6.544756

>  <EState_VSA4>  (49) 
6.544756

>  <EState_VSA5>  (49) 
12.263211

>  <EState_VSA6>  (49) 
6.066367

>  <EState_VSA7>  (49) 
5.316789

>  <EState_VSA8>  (49) 
9.706073

>  <EState_VSA9>  (49) 
4.736863

>  <VSA_EState1>  (49) 
32.263032

>  <VSA_EState10>  (49) 
0.0

>  <VSA_EState2>  (49) 
4.109097

>  <VSA_EState3>  (49) 
2.033519

>  <VSA_EState4>  (49) 
0.0

>  <VSA_EState5>  (49) 
0.206296

>  <VSA_EState6>  (49) 
2.933857

>  <VSA_EState7>  (49) 
1.401662

>  <VSA_EState8>  (49) 
1.459411

>  <VSA_EState9>  (49) 
-3.490208

>  <FractionCSP3>  (49) 
0.444444

>  <HeavyAtomCount>  (49) 
16

>  <NHOHCount>  (49) 
3

>  <NOCount>  (49) 
6

>  <NumAliphaticCarbocycles>  (49) 
0

>  <NumAliphaticHeterocycles>  (49) 
2

>  <NumAliphaticRings>  (49) 
2

>  <NumAromaticCarbocycles>  (49) 
0

>  <NumAromaticHeterocycles>  (49) 
1

>  <NumAromaticRings>  (49) 
1

>  <NumHAcceptors>  (49) 
4

>  <NumHDonors>  (49) 
2

>  <NumHeteroatoms>  (49) 
7

>  <NumRotatableBonds>  (49) 
0

>  <NumSaturatedCarbocycles>  (49) 
0

>  <NumSaturatedHeterocycles>  (49) 
1

>  <NumSaturatedRings>  (49) 
1

>  <RingCount>  (49) 
3

>  <MolLogP>  (49) 
-1.9335

>  <MolMR>  (49) 
54.4219

>  <fr_Al_COO>  (49) 
0

>  <fr_Al_OH>  (49) 
0

>  <fr_Al_OH_noTert>  (49) 
0

>  <fr_ArN>  (49) 
0

>  <fr_Ar_COO>  (49) 
0

>  <fr_Ar_N>  (49) 
1

>  <fr_Ar_NH>  (49) 
0

>  <fr_Ar_OH>  (49) 
0

>  <fr_COO>  (49) 
0

>  <fr_COO2>  (49) 
0

>  <fr_C_O>  (49) 
0

>  <fr_C_O_noCOO>  (49) 
0

>  <fr_C_S>  (49) 
0

>  <fr_HOCCN>  (49) 
0

>  <fr_Imine>  (49) 
0

>  <fr_NH0>  (49) 
1

>  <fr_NH1>  (49) 
1

>  <fr_NH2>  (49) 
1

>  <fr_N_O>  (49) 
0

>  <fr_Ndealkylation1>  (49) 
0

>  <fr_Ndealkylation2>  (49) 
0

>  <fr_Nhpyrrole>  (49) 
0

>  <fr_SH>  (49) 
0

>  <fr_aldehyde>  (49) 
0

>  <fr_alkyl_carbamate>  (49) 
0

>  <fr_alkyl_halide>  (49) 
0

>  <fr_allylic_oxid>  (49) 
0

>  <fr_amide>  (49) 
0

>  <fr_amidine>  (49) 
0

>  <fr_aniline>  (49) 
0

>  <fr_aryl_methyl>  (49) 
0

>  <fr_azide>  (49) 
0

>  <fr_azo>  (49) 
0

>  <fr_barbitur>  (49) 
0

>  <fr_benzene>  (49) 
0

>  <fr_benzodiazepine>  (49) 
0

>  <fr_bicyclic>  (49) 
2

>  <fr_diazo>  (49) 
0

>  <fr_dihydropyridine>  (49) 
0

>  <fr_epoxide>  (49) 
0

>  <fr_ester>  (49) 
0

>  <fr_ether>  (49) 
1

>  <fr_furan>  (49) 
0

>  <fr_guanido>  (49) 
0

>  <fr_halogen>  (49) 
0

>  <fr_hdrzine>  (49) 
0

>  <fr_hdrzone>  (49) 
0

>  <fr_imidazole>  (49) 
0

>  <fr_imide>  (49) 
0

>  <fr_isocyan>  (49) 
0

>  <fr_isothiocyan>  (49) 
0

>  <fr_ketone>  (49) 
0

>  <fr_ketone_Topliss>  (49) 
0

>  <fr_lactam>  (49) 
0

>  <fr_lactone>  (49) 
0

>  <fr_methoxy>  (49) 
0

>  <fr_morpholine>  (49) 
0

>  <fr_nitrile>  (49) 
0

>  <fr_nitro>  (49) 
0

>  <fr_nitro_arom>  (49) 
0

>  <fr_nitro_arom_nonortho>  (49) 
0

>  <fr_nitroso>  (49) 
0

>  <fr_oxazole>  (49) 
0

>  <fr_oxime>  (49) 
0

>  <fr_para_hydroxylation>  (49) 
0

>  <fr_phenol>  (49) 
0

>  <fr_phenol_noOrthoHbond>  (49) 
0

>  <fr_phos_acid>  (49) 
0

>  <fr_phos_ester>  (49) 
0

>  <fr_piperdine>  (49) 
0

>  <fr_piperzine>  (49) 
0

>  <fr_priamide>  (49) 
0

>  <fr_prisulfonamd>  (49) 
0

>  <fr_pyridine>  (49) 
1

>  <fr_quatN>  (49) 
1

>  <fr_sulfide>  (49) 
0

>  <fr_sulfonamd>  (49) 
1

>  <fr_sulfone>  (49) 
0

>  <fr_term_acetylene>  (49) 
0

>  <fr_tetrazole>  (49) 
0

>  <fr_thiazole>  (49) 
0

>  <fr_thiocyan>  (49) 
0

>  <fr_thiophene>  (49) 
0

>  <fr_unbrch_alkane>  (49) 
0

>  <fr_urea>  (49) 
0

>  <NP_Likeness>  (49) 
-0.697796

$$$$
F299
     RDKit          3D

  0  0  0  0  0  0  0  0  0  0999 V3000
M  V30 BEGIN CTAB
M  V30 COUNTS 28 30 0 0 0
M  V30 BEGIN ATOM
M  V30 1 S -15.156000 1.682000 -29.684000 0
M  V30 2 O -14.599000 0.397000 -29.287000 0
M  V30 3 O -15.776000 1.793000 -30.999000 0
M  V30 4 O -15.522000 4.748000 -29.511000 0
M  V30 5 N -16.382000 1.977000 -28.568000 0
M  V30 6 N -18.029000 4.871000 -29.972000 0 CHG=1
M  V30 7 N -13.247000 5.176000 -29.327000 0
M  V30 8 C -11.935000 4.777000 -29.262000 0
M  V30 9 C -17.549000 5.473000 -28.717000 0
M  V30 10 C -18.067000 3.429000 -29.675000 0
M  V30 11 C -11.600000 3.480000 -29.330000 0
M  V30 12 C -12.659000 2.503000 -29.460000 0
M  V30 13 C -13.946000 2.911000 -29.515000 0
M  V30 14 C -14.250000 4.228000 -29.441000 0
M  V30 15 C -16.376000 4.556000 -28.383000 0 CFG=1
M  V30 16 C -17.166000 3.237000 -28.456000 0 CFG=2
M  V30 17 H -17.059100 1.257700 -28.723300 0
M  V30 18 H -17.398600 5.063800 -30.724000 0
M  V30 19 H -11.216500 5.465400 -29.162200 0
M  V30 20 H -18.250600 5.445800 -28.004900 0
M  V30 21 H -17.249400 6.417200 -28.853800 0
M  V30 22 H -17.720200 2.903300 -30.451800 0
M  V30 23 H -19.001500 3.139800 -29.467400 0
M  V30 24 H -10.642100 3.195400 -29.291800 0
M  V30 25 H -12.439200 1.528700 -29.509000 0
M  V30 26 H -15.945200 4.735500 -27.498600 0
M  V30 27 H -17.746400 3.173900 -27.644100 0
M  V30 28 H -18.940000 5.211200 -30.205200 0
M  V30 END ATOM
M  V30 BEGIN BOND
M  V30 1 2 1 2
M  V30 2 2 1 3
M  V30 3 1 1 5
M  V30 4 1 1 13
M  V30 5 1 4 14
M  V30 6 1 4 15
M  V30 7 1 5 16
M  V30 8 1 6 9
M  V30 9 1 6 10
M  V30 10 1 7 8
M  V30 11 2 7 14
M  V30 12 2 8 11
M  V30 13 1 9 15
M  V30 14 1 10 16
M  V30 15 1 11 12
M  V30 16 2 12 13
M  V30 17 1 13 14
M  V30 18 1 15 16
M  V30 19 1 5 17
M  V30 20 1 6 18
M  V30 21 1 8 19
M  V30 22 1 9 20
M  V30 23 1 9 21
M  V30 24 1 10 22
M  V30 25 1 10 23
M  V30 26 1 11 24
M  V30 27 1 12 25
M  V30 28 1 15 26 CFG=1
M  V30 29 1 16 27 CFG=1
M  V30 30 1 6 28
M  V30 END BOND
M  V30 END CTAB
M  END
>  <Ligand_Instance>  (50) 
299_B_7

>  <Dataset>  (50) 
CF

>  <PDB_ID>  (50) 
None

>  <Chain>  (50) 
B

>  <Resi>  (50) 
7

>  <Num_Resolved_Atoms>  (50) 
16

>  <Num_H_Atoms_ProtBoundConf>  (50) 
12

>  <Pocket>  (50) 
A

>  <Name>  (50) 
(3S,7R)‐2‐oxa‐9lambda6‐thia‐5,8,14‐triazatricyclo[8.4.0.0]tetradeca‐1(10),11,13‐triene‐9,9‐dione

>  <Num_Not_Resolved_Atoms>  (50) 
0

>  <ATP_Site>  (50) 
True

>  <Peripheral>  (50) 
True

>  <Standardized_SMILES>  (50) 
[H]C1=C([H])C([H])=C2C(=N1)O[C@@]1([H])C([H])([H])[N+]([H])([H])C([H])([H])[C@@]1([H])N([H])S2(=O)=O

>  <2D_Mol_H>  (50) 
<rdkit.Chem.rdchem.Mol object at 0x77059d9d9a80>

>  <MW>  (50) 
242.28

>  <HBA>  (50) 
4

>  <HBD>  (50) 
2

>  <LogP>  (50) 
-1.9335

>  <NRB>  (50) 
0

>  <TPSA>  (50) 
84.9

>  <Num_Heavy_Atoms>  (50) 
16

>  <Ro5>  (50) 
[True, True, True, True, True, True]

>  <Ro5_Fulfilled>  (50) 
True

>  <Ro3>  (50) 
[True, False, True, True]

>  <Ro3_Fulfilled>  (50) 
True

>  <Fsp3>  (50) 
0.444444

>  <Fsp3_0.42>  (50) 
True

>  <Fsp3_0.45>  (50) 
False

>  <Stereogenic_Carbons>  (50) 
2

>  <C_Atoms>  (50) 
9

>  <FCStereo>  (50) 
0.222222

>  <SPS>  (50) 
496

>  <nSPS>  (50) 
31.0

>  <PBF>  (50) 
0.594437

>  <PBF_0.6>  (50) 
False

>  <nPBF>  (50) 
0.037152

>  <nPBF_0.016>  (50) 
True

>  <PMI1>  (50) 
644.491003

>  <PMI2>  (50) 
1031.649524

>  <PMI3>  (50) 
1487.890873

>  <NPR1>  (50) 
0.433157

>  <NPR2>  (50) 
0.693364

>  <Sum_NPR>  (50) 
1.126521

>  <Sum_NPR_1.07>  (50) 
True

>  <Sum_NPR_1.2>  (50) 
False

>  <MaxAbsEStateIndex>  (50) 
11.990648

>  <MaxEStateIndex>  (50) 
11.990648

>  <MinAbsEStateIndex>  (50) 
0.129074

>  <MinEStateIndex>  (50) 
-3.490208

>  <qed>  (50) 
0.554481

>  <MolWt>  (50) 
242.28

>  <HeavyAtomMolWt>  (50) 
230.184

>  <ExactMolWt>  (50) 
242.059389

>  <NumValenceElectrons>  (50) 
86

>  <NumRadicalElectrons>  (50) 
0

>  <MaxPartialCharge>  (50) 
0.246039

>  <MinPartialCharge>  (50) 
-0.465396

>  <MaxAbsPartialCharge>  (50) 
0.465396

>  <MinAbsPartialCharge>  (50) 
0.246039

>  <FpDensityMorgan1>  (50) 
1.5

>  <FpDensityMorgan2>  (50) 
2.375

>  <FpDensityMorgan3>  (50) 
3.25

>  <BCUT2D_MWHI>  (50) 
32.233272

>  <BCUT2D_MWLOW>  (50) 
10.217801

>  <BCUT2D_CHGHI>  (50) 
2.402728

>  <BCUT2D_CHGLO>  (50) 
-2.115792

>  <BCUT2D_LOGPHI>  (50) 
2.25189

>  <BCUT2D_LOGPLOW>  (50) 
-2.822574

>  <BCUT2D_MRHI>  (50) 
7.892422

>  <BCUT2D_MRLOW>  (50) 
-0.63829

>  <AvgIpc>  (50) 
2.614998

>  <BalabanJ>  (50) 
2.125498

>  <BertzCT>  (50) 
516.485425

>  <Chi0>  (50) 
11.173362

>  <Chi0n>  (50) 
8.458522

>  <Chi0v>  (50) 
9.275019

>  <Chi1>  (50) 
7.666633

>  <Chi1n>  (50) 
5.123557

>  <Chi1v>  (50) 
6.60672

>  <Chi2n>  (50) 
3.950854

>  <Chi2v>  (50) 
5.633256

>  <Chi3n>  (50) 
2.863646

>  <Chi3v>  (50) 
4.36643

>  <Chi4n>  (50) 
2.085591

>  <Chi4v>  (50) 
3.447557

>  <HallKierAlpha>  (50) 
-1.18

>  <Ipc>  (50) 
7138.945059

>  <Kappa1>  (50) 
10.00489

>  <Kappa2>  (50) 
3.406996

>  <Kappa3>  (50) 
1.477289

>  <LabuteASA>  (50) 
93.073203

>  <PEOE_VSA1>  (50) 
10.053652

>  <PEOE_VSA10>  (50) 
17.482081

>  <PEOE_VSA11>  (50) 
6.103966

>  <PEOE_VSA12>  (50) 
15.903279

>  <PEOE_VSA13>  (50) 
0.0

>  <PEOE_VSA14>  (50) 
0.0

>  <PEOE_VSA2>  (50) 
0.0

>  <PEOE_VSA3>  (50) 
13.401776

>  <PEOE_VSA4>  (50) 
4.722095

>  <PEOE_VSA5>  (50) 
0.0

>  <PEOE_VSA6>  (50) 
0.0

>  <PEOE_VSA7>  (50) 
12.132734

>  <PEOE_VSA8>  (50) 
6.196844

>  <PEOE_VSA9>  (50) 
6.544756

>  <SMR_VSA1>  (50) 
18.471449

>  <SMR_VSA10>  (50) 
10.023291

>  <SMR_VSA2>  (50) 
0.0

>  <SMR_VSA3>  (50) 
9.706073

>  <SMR_VSA4>  (50) 
0.0

>  <SMR_VSA5>  (50) 
17.041291

>  <SMR_VSA6>  (50) 
13.089513

>  <SMR_VSA7>  (50) 
18.329578

>  <SMR_VSA8>  (50) 
0.0

>  <SMR_VSA9>  (50) 
5.879988

>  <SlogP_VSA1>  (50) 
14.775746

>  <SlogP_VSA10>  (50) 
0.0

>  <SlogP_VSA11>  (50) 
5.879988

>  <SlogP_VSA12>  (50) 
0.0

>  <SlogP_VSA2>  (50) 
38.637096

>  <SlogP_VSA3>  (50) 
10.023291

>  <SlogP_VSA4>  (50) 
0.0

>  <SlogP_VSA5>  (50) 
0.0

>  <SlogP_VSA6>  (50) 
23.225061

>  <SlogP_VSA7>  (50) 
0.0

>  <SlogP_VSA8>  (50) 
0.0

>  <SlogP_VSA9>  (50) 
0.0

>  <EState_VSA1>  (50) 
10.023291

>  <EState_VSA10>  (50) 
8.417797

>  <EState_VSA11>  (50) 
0.0

>  <EState_VSA2>  (50) 
22.921279

>  <EState_VSA3>  (50) 
6.544756

>  <EState_VSA4>  (50) 
6.544756

>  <EState_VSA5>  (50) 
12.263211

>  <EState_VSA6>  (50) 
6.066367

>  <EState_VSA7>  (50) 
5.316789

>  <EState_VSA8>  (50) 
9.706073

>  <EState_VSA9>  (50) 
4.736863

>  <VSA_EState1>  (50) 
32.263032

>  <VSA_EState10>  (50) 
0.0

>  <VSA_EState2>  (50) 
4.109097

>  <VSA_EState3>  (50) 
2.033519

>  <VSA_EState4>  (50) 
0.0

>  <VSA_EState5>  (50) 
0.206296

>  <VSA_EState6>  (50) 
2.933857

>  <VSA_EState7>  (50) 
1.401662

>  <VSA_EState8>  (50) 
1.459411

>  <VSA_EState9>  (50) 
-3.490208

>  <FractionCSP3>  (50) 
0.444444

>  <HeavyAtomCount>  (50) 
16

>  <NHOHCount>  (50) 
3

>  <NOCount>  (50) 
6

>  <NumAliphaticCarbocycles>  (50) 
0

>  <NumAliphaticHeterocycles>  (50) 
2

>  <NumAliphaticRings>  (50) 
2

>  <NumAromaticCarbocycles>  (50) 
0

>  <NumAromaticHeterocycles>  (50) 
1

>  <NumAromaticRings>  (50) 
1

>  <NumHAcceptors>  (50) 
4

>  <NumHDonors>  (50) 
2

>  <NumHeteroatoms>  (50) 
7

>  <NumRotatableBonds>  (50) 
0

>  <NumSaturatedCarbocycles>  (50) 
0

>  <NumSaturatedHeterocycles>  (50) 
1

>  <NumSaturatedRings>  (50) 
1

>  <RingCount>  (50) 
3

>  <MolLogP>  (50) 
-1.9335

>  <MolMR>  (50) 
54.4219

>  <fr_Al_COO>  (50) 
0

>  <fr_Al_OH>  (50) 
0

>  <fr_Al_OH_noTert>  (50) 
0

>  <fr_ArN>  (50) 
0

>  <fr_Ar_COO>  (50) 
0

>  <fr_Ar_N>  (50) 
1

>  <fr_Ar_NH>  (50) 
0

>  <fr_Ar_OH>  (50) 
0

>  <fr_COO>  (50) 
0

>  <fr_COO2>  (50) 
0

>  <fr_C_O>  (50) 
0

>  <fr_C_O_noCOO>  (50) 
0

>  <fr_C_S>  (50) 
0

>  <fr_HOCCN>  (50) 
0

>  <fr_Imine>  (50) 
0

>  <fr_NH0>  (50) 
1

>  <fr_NH1>  (50) 
1

>  <fr_NH2>  (50) 
1

>  <fr_N_O>  (50) 
0

>  <fr_Ndealkylation1>  (50) 
0

>  <fr_Ndealkylation2>  (50) 
0

>  <fr_Nhpyrrole>  (50) 
0

>  <fr_SH>  (50) 
0

>  <fr_aldehyde>  (50) 
0

>  <fr_alkyl_carbamate>  (50) 
0

>  <fr_alkyl_halide>  (50) 
0

>  <fr_allylic_oxid>  (50) 
0

>  <fr_amide>  (50) 
0

>  <fr_amidine>  (50) 
0

>  <fr_aniline>  (50) 
0

>  <fr_aryl_methyl>  (50) 
0

>  <fr_azide>  (50) 
0

>  <fr_azo>  (50) 
0

>  <fr_barbitur>  (50) 
0

>  <fr_benzene>  (50) 
0

>  <fr_benzodiazepine>  (50) 
0

>  <fr_bicyclic>  (50) 
2

>  <fr_diazo>  (50) 
0

>  <fr_dihydropyridine>  (50) 
0

>  <fr_epoxide>  (50) 
0

>  <fr_ester>  (50) 
0

>  <fr_ether>  (50) 
1

>  <fr_furan>  (50) 
0

>  <fr_guanido>  (50) 
0

>  <fr_halogen>  (50) 
0

>  <fr_hdrzine>  (50) 
0

>  <fr_hdrzone>  (50) 
0

>  <fr_imidazole>  (50) 
0

>  <fr_imide>  (50) 
0

>  <fr_isocyan>  (50) 
0

>  <fr_isothiocyan>  (50) 
0

>  <fr_ketone>  (50) 
0

>  <fr_ketone_Topliss>  (50) 
0

>  <fr_lactam>  (50) 
0

>  <fr_lactone>  (50) 
0

>  <fr_methoxy>  (50) 
0

>  <fr_morpholine>  (50) 
0

>  <fr_nitrile>  (50) 
0

>  <fr_nitro>  (50) 
0

>  <fr_nitro_arom>  (50) 
0

>  <fr_nitro_arom_nonortho>  (50) 
0

>  <fr_nitroso>  (50) 
0

>  <fr_oxazole>  (50) 
0

>  <fr_oxime>  (50) 
0

>  <fr_para_hydroxylation>  (50) 
0

>  <fr_phenol>  (50) 
0

>  <fr_phenol_noOrthoHbond>  (50) 
0

>  <fr_phos_acid>  (50) 
0

>  <fr_phos_ester>  (50) 
0

>  <fr_piperdine>  (50) 
0

>  <fr_piperzine>  (50) 
0

>  <fr_priamide>  (50) 
0

>  <fr_prisulfonamd>  (50) 
0

>  <fr_pyridine>  (50) 
1

>  <fr_quatN>  (50) 
1

>  <fr_sulfide>  (50) 
0

>  <fr_sulfonamd>  (50) 
1

>  <fr_sulfone>  (50) 
0

>  <fr_term_acetylene>  (50) 
0

>  <fr_tetrazole>  (50) 
0

>  <fr_thiazole>  (50) 
0

>  <fr_thiocyan>  (50) 
0

>  <fr_thiophene>  (50) 
0

>  <fr_unbrch_alkane>  (50) 
0

>  <fr_urea>  (50) 
0

>  <NP_Likeness>  (50) 
-0.697796

$$$$
F299
     RDKit          3D

  0  0  0  0  0  0  0  0  0  0999 V3000
M  V30 BEGIN CTAB
M  V30 COUNTS 28 30 0 0 0
M  V30 BEGIN ATOM
M  V30 1 S 1.730000 -3.099000 -23.091000 0
M  V30 2 O 1.500000 -2.744000 -21.698000 0
M  V30 3 O 0.854000 -4.034000 -23.749000 0
M  V30 4 O 3.962000 -0.901000 -23.907000 0
M  V30 5 N 3.252000 -3.820000 -23.117000 0
M  V30 6 N 5.600000 -1.244000 -21.918000 0 CHG=1
M  V30 7 N 2.391000 0.306000 -25.089000 0
M  V30 8 C 1.132000 0.591000 -25.563000 0
M  V30 9 C 6.085000 -1.512000 -23.289000 0
M  V30 10 C 4.569000 -2.262000 -21.636000 0
M  V30 11 C 0.101000 -0.206000 -25.284000 0
M  V30 12 C 0.375000 -1.375000 -24.477000 0
M  V30 13 C 1.617000 -1.645000 -24.018000 0
M  V30 14 C 2.647000 -0.832000 -24.333000 0
M  V30 15 C 4.824000 -2.030000 -23.981000 0 CFG=1
M  V30 16 C 4.530000 -3.091000 -22.914000 0 CFG=2
M  V30 17 H 3.329100 -4.253600 -24.014800 0
M  V30 18 H 5.204900 -0.327000 -21.863700 0
M  V30 19 H 0.988300 1.406300 -26.123900 0
M  V30 20 H 6.808500 -2.202300 -23.289400 0
M  V30 21 H 6.420800 -0.676900 -23.724700 0
M  V30 22 H 3.682500 -1.834000 -21.460200 0
M  V30 23 H 4.828200 -2.825800 -20.851800 0
M  V30 24 H -0.820200 -0.005100 -25.617300 0
M  V30 25 H -0.373600 -1.999100 -24.253200 0
M  V30 26 H 4.967900 -2.389500 -24.903000 0
M  V30 27 H 5.281200 -3.750900 -22.896300 0
M  V30 28 H 6.351900 -1.322300 -21.263400 0
M  V30 END ATOM
M  V30 BEGIN BOND
M  V30 1 2 1 2
M  V30 2 2 1 3
M  V30 3 1 1 5
M  V30 4 1 1 13
M  V30 5 1 4 14
M  V30 6 1 4 15
M  V30 7 1 5 16
M  V30 8 1 6 9
M  V30 9 1 6 10
M  V30 10 1 7 8
M  V30 11 2 7 14
M  V30 12 2 8 11
M  V30 13 1 9 15
M  V30 14 1 10 16
M  V30 15 1 11 12
M  V30 16 2 12 13
M  V30 17 1 13 14
M  V30 18 1 15 16
M  V30 19 1 5 17
M  V30 20 1 6 18
M  V30 21 1 8 19
M  V30 22 1 9 20
M  V30 23 1 9 21
M  V30 24 1 10 22
M  V30 25 1 10 23
M  V30 26 1 11 24
M  V30 27 1 12 25
M  V30 28 1 15 26 CFG=3
M  V30 29 1 16 27 CFG=1
M  V30 30 1 6 28
M  V30 END BOND
M  V30 END CTAB
M  END
>  <Ligand_Instance>  (51) 
299_B_8

>  <Dataset>  (51) 
CF

>  <PDB_ID>  (51) 
None

>  <Chain>  (51) 
B

>  <Resi>  (51) 
8

>  <Num_Resolved_Atoms>  (51) 
16

>  <Num_H_Atoms_ProtBoundConf>  (51) 
12

>  <Pocket>  (51) 
X

>  <Name>  (51) 
(3S,7R)‐2‐oxa‐9lambda6‐thia‐5,8,14‐triazatricyclo[8.4.0.0]tetradeca‐1(10),11,13‐triene‐9,9‐dione

>  <Num_Not_Resolved_Atoms>  (51) 
0

>  <ATP_Site>  (51) 
True

>  <Peripheral>  (51) 
True

>  <Standardized_SMILES>  (51) 
[H]C1=C([H])C([H])=C2C(=N1)O[C@@]1([H])C([H])([H])[N+]([H])([H])C([H])([H])[C@@]1([H])N([H])S2(=O)=O

>  <2D_Mol_H>  (51) 
<rdkit.Chem.rdchem.Mol object at 0x77059d9d9b60>

>  <MW>  (51) 
242.28

>  <HBA>  (51) 
4

>  <HBD>  (51) 
2

>  <LogP>  (51) 
-1.9335

>  <NRB>  (51) 
0

>  <TPSA>  (51) 
84.9

>  <Num_Heavy_Atoms>  (51) 
16

>  <Ro5>  (51) 
[True, True, True, True, True, True]

>  <Ro5_Fulfilled>  (51) 
True

>  <Ro3>  (51) 
[True, False, True, True]

>  <Ro3_Fulfilled>  (51) 
True

>  <Fsp3>  (51) 
0.444444

>  <Fsp3_0.42>  (51) 
True

>  <Fsp3_0.45>  (51) 
False

>  <Stereogenic_Carbons>  (51) 
2

>  <C_Atoms>  (51) 
9

>  <FCStereo>  (51) 
0.222222

>  <SPS>  (51) 
496

>  <nSPS>  (51) 
31.0

>  <PBF>  (51) 
0.703006

>  <PBF_0.6>  (51) 
True

>  <nPBF>  (51) 
0.043938

>  <nPBF_0.016>  (51) 
True

>  <PMI1>  (51) 
656.324889

>  <PMI2>  (51) 
1039.23871

>  <PMI3>  (51) 
1483.769089

>  <NPR1>  (51) 
0.442336

>  <NPR2>  (51) 
0.700405

>  <Sum_NPR>  (51) 
1.142741

>  <Sum_NPR_1.07>  (51) 
True

>  <Sum_NPR_1.2>  (51) 
False

>  <MaxAbsEStateIndex>  (51) 
11.990648

>  <MaxEStateIndex>  (51) 
11.990648

>  <MinAbsEStateIndex>  (51) 
0.129074

>  <MinEStateIndex>  (51) 
-3.490208

>  <qed>  (51) 
0.554481

>  <MolWt>  (51) 
242.28

>  <HeavyAtomMolWt>  (51) 
230.184

>  <ExactMolWt>  (51) 
242.059389

>  <NumValenceElectrons>  (51) 
86

>  <NumRadicalElectrons>  (51) 
0

>  <MaxPartialCharge>  (51) 
0.246039

>  <MinPartialCharge>  (51) 
-0.465396

>  <MaxAbsPartialCharge>  (51) 
0.465396

>  <MinAbsPartialCharge>  (51) 
0.246039

>  <FpDensityMorgan1>  (51) 
1.5

>  <FpDensityMorgan2>  (51) 
2.375

>  <FpDensityMorgan3>  (51) 
3.25

>  <BCUT2D_MWHI>  (51) 
32.233272

>  <BCUT2D_MWLOW>  (51) 
10.217801

>  <BCUT2D_CHGHI>  (51) 
2.402728

>  <BCUT2D_CHGLO>  (51) 
-2.115792

>  <BCUT2D_LOGPHI>  (51) 
2.25189

>  <BCUT2D_LOGPLOW>  (51) 
-2.822574

>  <BCUT2D_MRHI>  (51) 
7.892422

>  <BCUT2D_MRLOW>  (51) 
-0.63829

>  <AvgIpc>  (51) 
2.614998

>  <BalabanJ>  (51) 
2.125498

>  <BertzCT>  (51) 
516.485425

>  <Chi0>  (51) 
11.173362

>  <Chi0n>  (51) 
8.458522

>  <Chi0v>  (51) 
9.275019

>  <Chi1>  (51) 
7.666633

>  <Chi1n>  (51) 
5.123557

>  <Chi1v>  (51) 
6.60672

>  <Chi2n>  (51) 
3.950854

>  <Chi2v>  (51) 
5.633256

>  <Chi3n>  (51) 
2.863646

>  <Chi3v>  (51) 
4.36643

>  <Chi4n>  (51) 
2.085591

>  <Chi4v>  (51) 
3.447557

>  <HallKierAlpha>  (51) 
-1.18

>  <Ipc>  (51) 
7138.945059

>  <Kappa1>  (51) 
10.00489

>  <Kappa2>  (51) 
3.406996

>  <Kappa3>  (51) 
1.477289

>  <LabuteASA>  (51) 
93.073203

>  <PEOE_VSA1>  (51) 
10.053652

>  <PEOE_VSA10>  (51) 
17.482081

>  <PEOE_VSA11>  (51) 
6.103966

>  <PEOE_VSA12>  (51) 
15.903279

>  <PEOE_VSA13>  (51) 
0.0

>  <PEOE_VSA14>  (51) 
0.0

>  <PEOE_VSA2>  (51) 
0.0

>  <PEOE_VSA3>  (51) 
13.401776

>  <PEOE_VSA4>  (51) 
4.722095

>  <PEOE_VSA5>  (51) 
0.0

>  <PEOE_VSA6>  (51) 
0.0

>  <PEOE_VSA7>  (51) 
12.132734

>  <PEOE_VSA8>  (51) 
6.196844

>  <PEOE_VSA9>  (51) 
6.544756

>  <SMR_VSA1>  (51) 
18.471449

>  <SMR_VSA10>  (51) 
10.023291

>  <SMR_VSA2>  (51) 
0.0

>  <SMR_VSA3>  (51) 
9.706073

>  <SMR_VSA4>  (51) 
0.0

>  <SMR_VSA5>  (51) 
17.041291

>  <SMR_VSA6>  (51) 
13.089513

>  <SMR_VSA7>  (51) 
18.329578

>  <SMR_VSA8>  (51) 
0.0

>  <SMR_VSA9>  (51) 
5.879988

>  <SlogP_VSA1>  (51) 
14.775746

>  <SlogP_VSA10>  (51) 
0.0

>  <SlogP_VSA11>  (51) 
5.879988

>  <SlogP_VSA12>  (51) 
0.0

>  <SlogP_VSA2>  (51) 
38.637096

>  <SlogP_VSA3>  (51) 
10.023291

>  <SlogP_VSA4>  (51) 
0.0

>  <SlogP_VSA5>  (51) 
0.0

>  <SlogP_VSA6>  (51) 
23.225061

>  <SlogP_VSA7>  (51) 
0.0

>  <SlogP_VSA8>  (51) 
0.0

>  <SlogP_VSA9>  (51) 
0.0

>  <EState_VSA1>  (51) 
10.023291

>  <EState_VSA10>  (51) 
8.417797

>  <EState_VSA11>  (51) 
0.0

>  <EState_VSA2>  (51) 
22.921279

>  <EState_VSA3>  (51) 
6.544756

>  <EState_VSA4>  (51) 
6.544756

>  <EState_VSA5>  (51) 
12.263211

>  <EState_VSA6>  (51) 
6.066367

>  <EState_VSA7>  (51) 
5.316789

>  <EState_VSA8>  (51) 
9.706073

>  <EState_VSA9>  (51) 
4.736863

>  <VSA_EState1>  (51) 
32.263032

>  <VSA_EState10>  (51) 
0.0

>  <VSA_EState2>  (51) 
4.109097

>  <VSA_EState3>  (51) 
2.033519

>  <VSA_EState4>  (51) 
0.0

>  <VSA_EState5>  (51) 
0.206296

>  <VSA_EState6>  (51) 
2.933857

>  <VSA_EState7>  (51) 
1.401662

>  <VSA_EState8>  (51) 
1.459411

>  <VSA_EState9>  (51) 
-3.490208

>  <FractionCSP3>  (51) 
0.444444

>  <HeavyAtomCount>  (51) 
16

>  <NHOHCount>  (51) 
3

>  <NOCount>  (51) 
6

>  <NumAliphaticCarbocycles>  (51) 
0

>  <NumAliphaticHeterocycles>  (51) 
2

>  <NumAliphaticRings>  (51) 
2

>  <NumAromaticCarbocycles>  (51) 
0

>  <NumAromaticHeterocycles>  (51) 
1

>  <NumAromaticRings>  (51) 
1

>  <NumHAcceptors>  (51) 
4

>  <NumHDonors>  (51) 
2

>  <NumHeteroatoms>  (51) 
7

>  <NumRotatableBonds>  (51) 
0

>  <NumSaturatedCarbocycles>  (51) 
0

>  <NumSaturatedHeterocycles>  (51) 
1

>  <NumSaturatedRings>  (51) 
1

>  <RingCount>  (51) 
3

>  <MolLogP>  (51) 
-1.9335

>  <MolMR>  (51) 
54.4219

>  <fr_Al_COO>  (51) 
0

>  <fr_Al_OH>  (51) 
0

>  <fr_Al_OH_noTert>  (51) 
0

>  <fr_ArN>  (51) 
0

>  <fr_Ar_COO>  (51) 
0

>  <fr_Ar_N>  (51) 
1

>  <fr_Ar_NH>  (51) 
0

>  <fr_Ar_OH>  (51) 
0

>  <fr_COO>  (51) 
0

>  <fr_COO2>  (51) 
0

>  <fr_C_O>  (51) 
0

>  <fr_C_O_noCOO>  (51) 
0

>  <fr_C_S>  (51) 
0

>  <fr_HOCCN>  (51) 
0

>  <fr_Imine>  (51) 
0

>  <fr_NH0>  (51) 
1

>  <fr_NH1>  (51) 
1

>  <fr_NH2>  (51) 
1

>  <fr_N_O>  (51) 
0

>  <fr_Ndealkylation1>  (51) 
0

>  <fr_Ndealkylation2>  (51) 
0

>  <fr_Nhpyrrole>  (51) 
0

>  <fr_SH>  (51) 
0

>  <fr_aldehyde>  (51) 
0

>  <fr_alkyl_carbamate>  (51) 
0

>  <fr_alkyl_halide>  (51) 
0

>  <fr_allylic_oxid>  (51) 
0

>  <fr_amide>  (51) 
0

>  <fr_amidine>  (51) 
0

>  <fr_aniline>  (51) 
0

>  <fr_aryl_methyl>  (51) 
0

>  <fr_azide>  (51) 
0

>  <fr_azo>  (51) 
0

>  <fr_barbitur>  (51) 
0

>  <fr_benzene>  (51) 
0

>  <fr_benzodiazepine>  (51) 
0

>  <fr_bicyclic>  (51) 
2

>  <fr_diazo>  (51) 
0

>  <fr_dihydropyridine>  (51) 
0

>  <fr_epoxide>  (51) 
0

>  <fr_ester>  (51) 
0

>  <fr_ether>  (51) 
1

>  <fr_furan>  (51) 
0

>  <fr_guanido>  (51) 
0

>  <fr_halogen>  (51) 
0

>  <fr_hdrzine>  (51) 
0

>  <fr_hdrzone>  (51) 
0

>  <fr_imidazole>  (51) 
0

>  <fr_imide>  (51) 
0

>  <fr_isocyan>  (51) 
0

>  <fr_isothiocyan>  (51) 
0

>  <fr_ketone>  (51) 
0

>  <fr_ketone_Topliss>  (51) 
0

>  <fr_lactam>  (51) 
0

>  <fr_lactone>  (51) 
0

>  <fr_methoxy>  (51) 
0

>  <fr_morpholine>  (51) 
0

>  <fr_nitrile>  (51) 
0

>  <fr_nitro>  (51) 
0

>  <fr_nitro_arom>  (51) 
0

>  <fr_nitro_arom_nonortho>  (51) 
0

>  <fr_nitroso>  (51) 
0

>  <fr_oxazole>  (51) 
0

>  <fr_oxime>  (51) 
0

>  <fr_para_hydroxylation>  (51) 
0

>  <fr_phenol>  (51) 
0

>  <fr_phenol_noOrthoHbond>  (51) 
0

>  <fr_phos_acid>  (51) 
0

>  <fr_phos_ester>  (51) 
0

>  <fr_piperdine>  (51) 
0

>  <fr_piperzine>  (51) 
0

>  <fr_priamide>  (51) 
0

>  <fr_prisulfonamd>  (51) 
0

>  <fr_pyridine>  (51) 
1

>  <fr_quatN>  (51) 
1

>  <fr_sulfide>  (51) 
0

>  <fr_sulfonamd>  (51) 
1

>  <fr_sulfone>  (51) 
0

>  <fr_term_acetylene>  (51) 
0

>  <fr_tetrazole>  (51) 
0

>  <fr_thiazole>  (51) 
0

>  <fr_thiocyan>  (51) 
0

>  <fr_thiophene>  (51) 
0

>  <fr_unbrch_alkane>  (51) 
0

>  <fr_urea>  (51) 
0

>  <NP_Likeness>  (51) 
-0.697796

$$$$
F304
     RDKit          3D

  0  0  0  0  0  0  0  0  0  0999 V3000
M  V30 BEGIN CTAB
M  V30 COUNTS 31 32 0 0 0
M  V30 BEGIN ATOM
M  V30 1 O -12.365000 -11.136000 -31.627000 0
M  V30 2 O -11.605000 -9.181000 -30.682000 0 CHG=-1
M  V30 3 O -12.649000 -11.894000 -34.154000 0
M  V30 4 O -11.262000 -7.972000 -32.948000 0
M  V30 5 O -12.314000 -7.462000 -40.640000 0
M  V30 6 N -11.313000 -7.506000 -34.326000 0
M  V30 7 C -13.566000 -7.331000 -41.258000 0
M  V30 8 C -14.721000 -10.625000 -34.168000 0
M  V30 9 C -11.152000 -7.625000 -38.596000 0
M  V30 10 C -13.441000 -8.024000 -38.512000 0
M  V30 11 C -11.083000 -7.838000 -37.258000 0
M  V30 12 C -13.365000 -8.264000 -37.157000 0
M  V30 13 C -12.006000 -9.812000 -31.655000 0
M  V30 14 C -13.257000 -10.688000 -34.632000 0 CFG=1
M  V30 15 C -12.335000 -7.696000 -39.248000 0
M  V30 16 C -12.009000 -9.182000 -32.975000 0
M  V30 17 C -12.040000 -8.444000 -35.030000 0
M  V30 18 C -12.184000 -8.168000 -36.483000 0
M  V30 19 C -12.443000 -9.490000 -34.230000 0
M  V30 20 H -12.239300 -11.727900 -33.257000 0
M  V30 21 H -13.439300 -7.168900 -42.236600 0
M  V30 22 H -14.093000 -8.170300 -41.124600 0
M  V30 23 H -14.058400 -6.560400 -40.853500 0
M  V30 24 H -15.141100 -9.782000 -34.503800 0
M  V30 25 H -15.219500 -11.412900 -34.529600 0
M  V30 26 H -14.754900 -10.639200 -33.168700 0
M  V30 27 H -10.318500 -7.413000 -39.106200 0
M  V30 28 H -14.327700 -8.091300 -38.969400 0
M  V30 29 H -10.193800 -7.752700 -36.808500 0
M  V30 30 H -14.194300 -8.514000 -36.657300 0
M  V30 31 H -13.259700 -10.728200 -35.631200 0
M  V30 END ATOM
M  V30 BEGIN BOND
M  V30 1 2 1 13
M  V30 2 1 2 13
M  V30 3 1 3 14
M  V30 4 1 4 6
M  V30 5 1 4 16
M  V30 6 1 5 7
M  V30 7 1 5 15
M  V30 8 2 6 17
M  V30 9 1 8 14
M  V30 10 2 9 11
M  V30 11 1 9 15
M  V30 12 1 10 12
M  V30 13 2 10 15
M  V30 14 1 11 18
M  V30 15 2 12 18
M  V30 16 1 13 16
M  V30 17 1 14 19
M  V30 18 2 16 19
M  V30 19 1 17 18
M  V30 20 1 17 19
M  V30 21 1 14 31 CFG=3
M  V30 22 1 3 20
M  V30 23 1 7 21
M  V30 24 1 7 22
M  V30 25 1 7 23
M  V30 26 1 8 24
M  V30 27 1 8 25
M  V30 28 1 8 26
M  V30 29 1 9 27
M  V30 30 1 10 28
M  V30 31 1 11 29
M  V30 32 1 12 30
M  V30 END BOND
M  V30 END CTAB
M  END
>  <Ligand_Instance>  (52) 
304_B_2

>  <Dataset>  (52) 
CF

>  <PDB_ID>  (52) 
None

>  <Chain>  (52) 
B

>  <Resi>  (52) 
2

>  <Num_Resolved_Atoms>  (52) 
19

>  <Num_H_Atoms_ProtBoundConf>  (52) 
12

>  <Pocket>  (52) 
X

>  <Name>  (52) 
4‐[(1S)‐1‐hydroxyethyl]‐3‐(4‐methoxyphenyl)‐1,2‐oxazole‐5‐carboxylic acid

>  <Num_Not_Resolved_Atoms>  (52) 
0

>  <ATP_Site>  (52) 
True

>  <Peripheral>  (52) 
True

>  <Standardized_SMILES>  (52) 
[H]O[C@]([H])(C1=C(C(=O)[O-])ON=C1C1=C([H])C([H])=C(OC([H])([H])[H])C([H])=C1[H])C([H])([H])[H]

>  <2D_Mol_H>  (52) 
<rdkit.Chem.rdchem.Mol object at 0x77059d9d9c40>

>  <MW>  (52) 
262.241

>  <HBA>  (52) 
6

>  <HBD>  (52) 
1

>  <LogP>  (52) 
0.767

>  <NRB>  (52) 
7

>  <TPSA>  (52) 
95.62

>  <Num_Heavy_Atoms>  (52) 
19

>  <Ro5>  (52) 
[True, True, True, True, True, True]

>  <Ro5_Fulfilled>  (52) 
True

>  <Ro3>  (52) 
[True, False, True, True]

>  <Ro3_Fulfilled>  (52) 
True

>  <Fsp3>  (52) 
0.230769

>  <Fsp3_0.42>  (52) 
False

>  <Fsp3_0.45>  (52) 
False

>  <Stereogenic_Carbons>  (52) 
1

>  <C_Atoms>  (52) 
13

>  <FCStereo>  (52) 
0.076923

>  <SPS>  (52) 
231

>  <nSPS>  (52) 
12.157895

>  <PBF>  (52) 
0.613775

>  <PBF_0.6>  (52) 
True

>  <nPBF>  (52) 
0.032304

>  <nPBF_0.016>  (52) 
True

>  <PMI1>  (52) 
537.246506

>  <PMI2>  (52) 
2854.987691

>  <PMI3>  (52) 
3192.230622

>  <NPR1>  (52) 
0.168298

>  <NPR2>  (52) 
0.894355

>  <Sum_NPR>  (52) 
1.062653

>  <Sum_NPR_1.07>  (52) 
False

>  <Sum_NPR_1.2>  (52) 
False

>  <MaxAbsEStateIndex>  (52) 
10.895322

>  <MaxEStateIndex>  (52) 
10.895322

>  <MinAbsEStateIndex>  (52) 
0.102006

>  <MinEStateIndex>  (52) 
-1.510961

>  <qed>  (52) 
0.87374

>  <MolWt>  (52) 
262.241

>  <HeavyAtomMolWt>  (52) 
250.145

>  <ExactMolWt>  (52) 
262.072096

>  <NumValenceElectrons>  (52) 
100

>  <NumRadicalElectrons>  (52) 
0

>  <MaxPartialCharge>  (52) 
0.188222

>  <MinPartialCharge>  (52) 
-0.541447

>  <MaxAbsPartialCharge>  (52) 
0.541447

>  <MinAbsPartialCharge>  (52) 
0.188222

>  <FpDensityMorgan1>  (52) 
1.421053

>  <FpDensityMorgan2>  (52) 
2.052632

>  <FpDensityMorgan3>  (52) 
2.526316

>  <BCUT2D_MWHI>  (52) 
16.484094

>  <BCUT2D_MWLOW>  (52) 
10.021284

>  <BCUT2D_CHGHI>  (52) 
2.215627

>  <BCUT2D_CHGLO>  (52) 
-2.073281

>  <BCUT2D_LOGPHI>  (52) 
2.306632

>  <BCUT2D_LOGPLOW>  (52) 
-2.229851

>  <BCUT2D_MRHI>  (52) 
5.866825

>  <BCUT2D_MRLOW>  (52) 
-0.257051

>  <AvgIpc>  (52) 
2.834813

>  <BalabanJ>  (52) 
2.517116

>  <BertzCT>  (52) 
585.581087

>  <Chi0>  (52) 
13.991199

>  <Chi0n>  (52) 
10.414172

>  <Chi0v>  (52) 
10.414172

>  <Chi1>  (52) 
9.040913

>  <Chi1n>  (52) 
5.576517

>  <Chi1v>  (52) 
5.576517

>  <Chi2n>  (52) 
3.965913

>  <Chi2v>  (52) 
3.965913

>  <Chi3n>  (52) 
2.694589

>  <Chi3v>  (52) 
2.694589

>  <Chi4n>  (52) 
1.789075

>  <Chi4v>  (52) 
1.789075

>  <HallKierAlpha>  (52) 
-2.34

>  <Ipc>  (52) 
23925.825467

>  <Kappa1>  (52) 
13.100176

>  <Kappa2>  (52) 
5.111477

>  <Kappa3>  (52) 
2.432406

>  <LabuteASA>  (52) 
108.777134

>  <PEOE_VSA1>  (52) 
24.26755

>  <PEOE_VSA10>  (52) 
17.412745

>  <PEOE_VSA11>  (52) 
5.760247

>  <PEOE_VSA12>  (52) 
0.0

>  <PEOE_VSA13>  (52) 
0.0

>  <PEOE_VSA14>  (52) 
0.0

>  <PEOE_VSA2>  (52) 
0.0

>  <PEOE_VSA3>  (52) 
0.0

>  <PEOE_VSA4>  (52) 
0.0

>  <PEOE_VSA5>  (52) 
0.0

>  <PEOE_VSA6>  (52) 
5.156663

>  <PEOE_VSA7>  (52) 
31.189205

>  <PEOE_VSA8>  (52) 
5.563451

>  <PEOE_VSA9>  (52) 
18.777215

>  <SMR_VSA1>  (52) 
24.26755

>  <SMR_VSA10>  (52) 
5.969305

>  <SMR_VSA2>  (52) 
0.0

>  <SMR_VSA3>  (52) 
5.156663

>  <SMR_VSA4>  (52) 
0.0

>  <SMR_VSA5>  (52) 
13.027704

>  <SMR_VSA6>  (52) 
7.109798

>  <SMR_VSA7>  (52) 
35.589167

>  <SMR_VSA8>  (52) 
0.0

>  <SMR_VSA9>  (52) 
17.006891

>  <SlogP_VSA1>  (52) 
9.84339

>  <SlogP_VSA10>  (52) 
0.0

>  <SlogP_VSA11>  (52) 
5.749512

>  <SlogP_VSA12>  (52) 
0.0

>  <SlogP_VSA2>  (52) 
23.342293

>  <SlogP_VSA3>  (52) 
0.0

>  <SlogP_VSA4>  (52) 
0.0

>  <SlogP_VSA5>  (52) 
29.14594

>  <SlogP_VSA6>  (52) 
28.788563

>  <SlogP_VSA7>  (52) 
0.0

>  <SlogP_VSA8>  (52) 
11.257379

>  <SlogP_VSA9>  (52) 
0.0

>  <EState_VSA1>  (52) 
17.833519

>  <EState_VSA10>  (52) 
15.007592

>  <EState_VSA11>  (52) 
0.0

>  <EState_VSA2>  (52) 
11.257379

>  <EState_VSA3>  (52) 
11.312963

>  <EState_VSA4>  (52) 
0.0

>  <EState_VSA5>  (52) 
6.923737

>  <EState_VSA6>  (52) 
31.375266

>  <EState_VSA7>  (52) 
0.0

>  <EState_VSA8>  (52) 
5.156663

>  <EState_VSA9>  (52) 
9.259958

>  <VSA_EState1>  (52) 
9.755044

>  <VSA_EState10>  (52) 
0.0

>  <VSA_EState2>  (52) 
10.895322

>  <VSA_EState3>  (52) 
24.252488

>  <VSA_EState4>  (52) 
0.995342

>  <VSA_EState5>  (52) 
-1.310235

>  <VSA_EState6>  (52) 
6.797918

>  <VSA_EState7>  (52) 
-1.031248

>  <VSA_EState8>  (52) 
1.436505

>  <VSA_EState9>  (52) 
1.542198

>  <FractionCSP3>  (52) 
0.230769

>  <HeavyAtomCount>  (52) 
19

>  <NHOHCount>  (52) 
1

>  <NOCount>  (52) 
6

>  <NumAliphaticCarbocycles>  (52) 
0

>  <NumAliphaticHeterocycles>  (52) 
0

>  <NumAliphaticRings>  (52) 
0

>  <NumAromaticCarbocycles>  (52) 
1

>  <NumAromaticHeterocycles>  (52) 
1

>  <NumAromaticRings>  (52) 
2

>  <NumHAcceptors>  (52) 
6

>  <NumHDonors>  (52) 
1

>  <NumHeteroatoms>  (52) 
6

>  <NumRotatableBonds>  (52) 
4

>  <NumSaturatedCarbocycles>  (52) 
0

>  <NumSaturatedHeterocycles>  (52) 
0

>  <NumSaturatedRings>  (52) 
0

>  <RingCount>  (52) 
2

>  <MolLogP>  (52) 
0.767

>  <MolMR>  (52) 
63.4553

>  <fr_Al_COO>  (52) 
0

>  <fr_Al_OH>  (52) 
1

>  <fr_Al_OH_noTert>  (52) 
1

>  <fr_ArN>  (52) 
0

>  <fr_Ar_COO>  (52) 
1

>  <fr_Ar_N>  (52) 
1

>  <fr_Ar_NH>  (52) 
0

>  <fr_Ar_OH>  (52) 
0

>  <fr_COO>  (52) 
1

>  <fr_COO2>  (52) 
1

>  <fr_C_O>  (52) 
1

>  <fr_C_O_noCOO>  (52) 
1

>  <fr_C_S>  (52) 
0

>  <fr_HOCCN>  (52) 
0

>  <fr_Imine>  (52) 
0

>  <fr_NH0>  (52) 
1

>  <fr_NH1>  (52) 
0

>  <fr_NH2>  (52) 
0

>  <fr_N_O>  (52) 
0

>  <fr_Ndealkylation1>  (52) 
0

>  <fr_Ndealkylation2>  (52) 
0

>  <fr_Nhpyrrole>  (52) 
0

>  <fr_SH>  (52) 
0

>  <fr_aldehyde>  (52) 
0

>  <fr_alkyl_carbamate>  (52) 
0

>  <fr_alkyl_halide>  (52) 
0

>  <fr_allylic_oxid>  (52) 
0

>  <fr_amide>  (52) 
0

>  <fr_amidine>  (52) 
0

>  <fr_aniline>  (52) 
0

>  <fr_aryl_methyl>  (52) 
0

>  <fr_azide>  (52) 
0

>  <fr_azo>  (52) 
0

>  <fr_barbitur>  (52) 
0

>  <fr_benzene>  (52) 
1

>  <fr_benzodiazepine>  (52) 
0

>  <fr_bicyclic>  (52) 
0

>  <fr_diazo>  (52) 
0

>  <fr_dihydropyridine>  (52) 
0

>  <fr_epoxide>  (52) 
0

>  <fr_ester>  (52) 
0

>  <fr_ether>  (52) 
1

>  <fr_furan>  (52) 
0

>  <fr_guanido>  (52) 
0

>  <fr_halogen>  (52) 
0

>  <fr_hdrzine>  (52) 
0

>  <fr_hdrzone>  (52) 
0

>  <fr_imidazole>  (52) 
0

>  <fr_imide>  (52) 
0

>  <fr_isocyan>  (52) 
0

>  <fr_isothiocyan>  (52) 
0

>  <fr_ketone>  (52) 
0

>  <fr_ketone_Topliss>  (52) 
0

>  <fr_lactam>  (52) 
0

>  <fr_lactone>  (52) 
0

>  <fr_methoxy>  (52) 
1

>  <fr_morpholine>  (52) 
0

>  <fr_nitrile>  (52) 
0

>  <fr_nitro>  (52) 
0

>  <fr_nitro_arom>  (52) 
0

>  <fr_nitro_arom_nonortho>  (52) 
0

>  <fr_nitroso>  (52) 
0

>  <fr_oxazole>  (52) 
0

>  <fr_oxime>  (52) 
0

>  <fr_para_hydroxylation>  (52) 
0

>  <fr_phenol>  (52) 
0

>  <fr_phenol_noOrthoHbond>  (52) 
0

>  <fr_phos_acid>  (52) 
0

>  <fr_phos_ester>  (52) 
0

>  <fr_piperdine>  (52) 
0

>  <fr_piperzine>  (52) 
0

>  <fr_priamide>  (52) 
0

>  <fr_prisulfonamd>  (52) 
0

>  <fr_pyridine>  (52) 
0

>  <fr_quatN>  (52) 
0

>  <fr_sulfide>  (52) 
0

>  <fr_sulfonamd>  (52) 
0

>  <fr_sulfone>  (52) 
0

>  <fr_term_acetylene>  (52) 
0

>  <fr_tetrazole>  (52) 
0

>  <fr_thiazole>  (52) 
0

>  <fr_thiocyan>  (52) 
0

>  <fr_thiophene>  (52) 
0

>  <fr_unbrch_alkane>  (52) 
0

>  <fr_urea>  (52) 
0

>  <NP_Likeness>  (52) 
-0.5372

$$$$
F304
     RDKit          3D

  0  0  0  0  0  0  0  0  0  0999 V3000
M  V30 BEGIN CTAB
M  V30 COUNTS 31 32 0 0 0
M  V30 BEGIN ATOM
M  V30 1 O -26.408000 19.258000 -42.265000 0
M  V30 2 O -25.506000 19.219000 -44.294000 0 CHG=-1
M  V30 3 O -25.600000 18.573000 -39.943000 0
M  V30 4 O -22.919000 19.697000 -43.123000 0
M  V30 5 O -18.100000 17.208000 -37.779000 0
M  V30 6 N -21.777000 19.425000 -42.262000 0
M  V30 7 C -16.851000 17.893000 -37.573000 0
M  V30 8 C -24.997000 16.397000 -40.799000 0
M  V30 9 C -19.025000 18.703000 -39.372000 0
M  V30 10 C -20.302000 16.885000 -38.716000 0
M  V30 11 C -20.037000 19.084000 -40.198000 0
M  V30 12 C -21.306000 17.236000 -39.535000 0
M  V30 13 C -25.344000 19.188000 -43.079000 0
M  V30 14 C -24.491000 17.742000 -40.268000 0 CFG=1
M  V30 15 C -19.145000 17.600000 -38.612000 0
M  V30 16 C -24.022000 19.086000 -42.404000 0
M  V30 17 C -22.275000 18.735000 -41.184000 0
M  V30 18 C -21.202000 18.372000 -40.265000 0
M  V30 19 C -23.610000 18.479000 -41.250000 0
M  V30 20 H -26.153600 18.725400 -40.761700 0
M  V30 21 H -16.293200 17.380100 -36.920500 0
M  V30 22 H -16.363500 17.966200 -38.443100 0
M  V30 23 H -17.028500 18.808600 -37.212300 0
M  V30 24 H -24.217200 15.814000 -41.027000 0
M  V30 25 H -25.553700 15.950300 -40.098600 0
M  V30 26 H -25.550400 16.548800 -41.618000 0
M  V30 27 H -18.186700 19.246600 -39.329800 0
M  V30 28 H -20.407000 16.062500 -38.157100 0
M  V30 29 H -19.926500 19.899400 -40.766200 0
M  V30 30 H -22.123200 16.664000 -39.605500 0
M  V30 31 H -23.965000 17.575500 -39.434000 0
M  V30 END ATOM
M  V30 BEGIN BOND
M  V30 1 2 1 13
M  V30 2 1 2 13
M  V30 3 1 3 14
M  V30 4 1 4 6
M  V30 5 1 4 16
M  V30 6 1 5 7
M  V30 7 1 5 15
M  V30 8 2 6 17
M  V30 9 1 8 14
M  V30 10 2 9 11
M  V30 11 1 9 15
M  V30 12 1 10 12
M  V30 13 2 10 15
M  V30 14 1 11 18
M  V30 15 2 12 18
M  V30 16 1 13 16
M  V30 17 1 14 19
M  V30 18 2 16 19
M  V30 19 1 17 18
M  V30 20 1 17 19
M  V30 21 1 14 31 CFG=1
M  V30 22 1 3 20
M  V30 23 1 7 21
M  V30 24 1 7 22
M  V30 25 1 7 23
M  V30 26 1 8 24
M  V30 27 1 8 25
M  V30 28 1 8 26
M  V30 29 1 9 27
M  V30 30 1 10 28
M  V30 31 1 11 29
M  V30 32 1 12 30
M  V30 END BOND
M  V30 END CTAB
M  END
>  <Ligand_Instance>  (53) 
304_B_5

>  <Dataset>  (53) 
CF

>  <PDB_ID>  (53) 
None

>  <Chain>  (53) 
B

>  <Resi>  (53) 
5

>  <Num_Resolved_Atoms>  (53) 
19

>  <Num_H_Atoms_ProtBoundConf>  (53) 
12

>  <Pocket>  (53) 
X

>  <Name>  (53) 
4‐[(1S)‐1‐hydroxyethyl]‐3‐(4‐methoxyphenyl)‐1,2‐oxazole‐5‐carboxylic acid

>  <Num_Not_Resolved_Atoms>  (53) 
0

>  <ATP_Site>  (53) 
True

>  <Peripheral>  (53) 
True

>  <Standardized_SMILES>  (53) 
[H]O[C@]([H])(C1=C(C(=O)[O-])ON=C1C1=C([H])C([H])=C(OC([H])([H])[H])C([H])=C1[H])C([H])([H])[H]

>  <2D_Mol_H>  (53) 
<rdkit.Chem.rdchem.Mol object at 0x77059d9d9d20>

>  <MW>  (53) 
262.241

>  <HBA>  (53) 
6

>  <HBD>  (53) 
1

>  <LogP>  (53) 
0.767

>  <NRB>  (53) 
7

>  <TPSA>  (53) 
95.62

>  <Num_Heavy_Atoms>  (53) 
19

>  <Ro5>  (53) 
[True, True, True, True, True, True]

>  <Ro5_Fulfilled>  (53) 
True

>  <Ro3>  (53) 
[True, False, True, True]

>  <Ro3_Fulfilled>  (53) 
True

>  <Fsp3>  (53) 
0.230769

>  <Fsp3_0.42>  (53) 
False

>  <Fsp3_0.45>  (53) 
False

>  <Stereogenic_Carbons>  (53) 
1

>  <C_Atoms>  (53) 
13

>  <FCStereo>  (53) 
0.076923

>  <SPS>  (53) 
231

>  <nSPS>  (53) 
12.157895

>  <PBF>  (53) 
0.470384

>  <PBF_0.6>  (53) 
False

>  <nPBF>  (53) 
0.024757

>  <nPBF_0.016>  (53) 
True

>  <PMI1>  (53) 
509.037721

>  <PMI2>  (53) 
2872.353267

>  <PMI3>  (53) 
3228.352723

>  <NPR1>  (53) 
0.157677

>  <NPR2>  (53) 
0.889727

>  <Sum_NPR>  (53) 
1.047404

>  <Sum_NPR_1.07>  (53) 
False

>  <Sum_NPR_1.2>  (53) 
False

>  <MaxAbsEStateIndex>  (53) 
10.895322

>  <MaxEStateIndex>  (53) 
10.895322

>  <MinAbsEStateIndex>  (53) 
0.102006

>  <MinEStateIndex>  (53) 
-1.510961

>  <qed>  (53) 
0.87374

>  <MolWt>  (53) 
262.241

>  <HeavyAtomMolWt>  (53) 
250.145

>  <ExactMolWt>  (53) 
262.072096

>  <NumValenceElectrons>  (53) 
100

>  <NumRadicalElectrons>  (53) 
0

>  <MaxPartialCharge>  (53) 
0.188222

>  <MinPartialCharge>  (53) 
-0.541447

>  <MaxAbsPartialCharge>  (53) 
0.541447

>  <MinAbsPartialCharge>  (53) 
0.188222

>  <FpDensityMorgan1>  (53) 
1.421053

>  <FpDensityMorgan2>  (53) 
2.052632

>  <FpDensityMorgan3>  (53) 
2.526316

>  <BCUT2D_MWHI>  (53) 
16.484094

>  <BCUT2D_MWLOW>  (53) 
10.021284

>  <BCUT2D_CHGHI>  (53) 
2.215627

>  <BCUT2D_CHGLO>  (53) 
-2.073281

>  <BCUT2D_LOGPHI>  (53) 
2.306632

>  <BCUT2D_LOGPLOW>  (53) 
-2.229851

>  <BCUT2D_MRHI>  (53) 
5.866825

>  <BCUT2D_MRLOW>  (53) 
-0.257051

>  <AvgIpc>  (53) 
2.834813

>  <BalabanJ>  (53) 
2.517116

>  <BertzCT>  (53) 
585.581087

>  <Chi0>  (53) 
13.991199

>  <Chi0n>  (53) 
10.414172

>  <Chi0v>  (53) 
10.414172

>  <Chi1>  (53) 
9.040913

>  <Chi1n>  (53) 
5.576517

>  <Chi1v>  (53) 
5.576517

>  <Chi2n>  (53) 
3.965913

>  <Chi2v>  (53) 
3.965913

>  <Chi3n>  (53) 
2.694589

>  <Chi3v>  (53) 
2.694589

>  <Chi4n>  (53) 
1.789075

>  <Chi4v>  (53) 
1.789075

>  <HallKierAlpha>  (53) 
-2.34

>  <Ipc>  (53) 
23925.825467

>  <Kappa1>  (53) 
13.100176

>  <Kappa2>  (53) 
5.111477

>  <Kappa3>  (53) 
2.432406

>  <LabuteASA>  (53) 
108.777134

>  <PEOE_VSA1>  (53) 
24.26755

>  <PEOE_VSA10>  (53) 
17.412745

>  <PEOE_VSA11>  (53) 
5.760247

>  <PEOE_VSA12>  (53) 
0.0

>  <PEOE_VSA13>  (53) 
0.0

>  <PEOE_VSA14>  (53) 
0.0

>  <PEOE_VSA2>  (53) 
0.0

>  <PEOE_VSA3>  (53) 
0.0

>  <PEOE_VSA4>  (53) 
0.0

>  <PEOE_VSA5>  (53) 
0.0

>  <PEOE_VSA6>  (53) 
5.156663

>  <PEOE_VSA7>  (53) 
31.189205

>  <PEOE_VSA8>  (53) 
5.563451

>  <PEOE_VSA9>  (53) 
18.777215

>  <SMR_VSA1>  (53) 
24.26755

>  <SMR_VSA10>  (53) 
5.969305

>  <SMR_VSA2>  (53) 
0.0

>  <SMR_VSA3>  (53) 
5.156663

>  <SMR_VSA4>  (53) 
0.0

>  <SMR_VSA5>  (53) 
13.027704

>  <SMR_VSA6>  (53) 
7.109798

>  <SMR_VSA7>  (53) 
35.589167

>  <SMR_VSA8>  (53) 
0.0

>  <SMR_VSA9>  (53) 
17.006891

>  <SlogP_VSA1>  (53) 
9.84339

>  <SlogP_VSA10>  (53) 
0.0

>  <SlogP_VSA11>  (53) 
5.749512

>  <SlogP_VSA12>  (53) 
0.0

>  <SlogP_VSA2>  (53) 
23.342293

>  <SlogP_VSA3>  (53) 
0.0

>  <SlogP_VSA4>  (53) 
0.0

>  <SlogP_VSA5>  (53) 
29.14594

>  <SlogP_VSA6>  (53) 
28.788563

>  <SlogP_VSA7>  (53) 
0.0

>  <SlogP_VSA8>  (53) 
11.257379

>  <SlogP_VSA9>  (53) 
0.0

>  <EState_VSA1>  (53) 
17.833519

>  <EState_VSA10>  (53) 
15.007592

>  <EState_VSA11>  (53) 
0.0

>  <EState_VSA2>  (53) 
11.257379

>  <EState_VSA3>  (53) 
11.312963

>  <EState_VSA4>  (53) 
0.0

>  <EState_VSA5>  (53) 
6.923737

>  <EState_VSA6>  (53) 
31.375266

>  <EState_VSA7>  (53) 
0.0

>  <EState_VSA8>  (53) 
5.156663

>  <EState_VSA9>  (53) 
9.259958

>  <VSA_EState1>  (53) 
9.755044

>  <VSA_EState10>  (53) 
0.0

>  <VSA_EState2>  (53) 
10.895322

>  <VSA_EState3>  (53) 
24.252488

>  <VSA_EState4>  (53) 
0.995342

>  <VSA_EState5>  (53) 
-1.310235

>  <VSA_EState6>  (53) 
6.797918

>  <VSA_EState7>  (53) 
-1.031248

>  <VSA_EState8>  (53) 
1.436505

>  <VSA_EState9>  (53) 
1.542198

>  <FractionCSP3>  (53) 
0.230769

>  <HeavyAtomCount>  (53) 
19

>  <NHOHCount>  (53) 
1

>  <NOCount>  (53) 
6

>  <NumAliphaticCarbocycles>  (53) 
0

>  <NumAliphaticHeterocycles>  (53) 
0

>  <NumAliphaticRings>  (53) 
0

>  <NumAromaticCarbocycles>  (53) 
1

>  <NumAromaticHeterocycles>  (53) 
1

>  <NumAromaticRings>  (53) 
2

>  <NumHAcceptors>  (53) 
6

>  <NumHDonors>  (53) 
1

>  <NumHeteroatoms>  (53) 
6

>  <NumRotatableBonds>  (53) 
4

>  <NumSaturatedCarbocycles>  (53) 
0

>  <NumSaturatedHeterocycles>  (53) 
0

>  <NumSaturatedRings>  (53) 
0

>  <RingCount>  (53) 
2

>  <MolLogP>  (53) 
0.767

>  <MolMR>  (53) 
63.4553

>  <fr_Al_COO>  (53) 
0

>  <fr_Al_OH>  (53) 
1

>  <fr_Al_OH_noTert>  (53) 
1

>  <fr_ArN>  (53) 
0

>  <fr_Ar_COO>  (53) 
1

>  <fr_Ar_N>  (53) 
1

>  <fr_Ar_NH>  (53) 
0

>  <fr_Ar_OH>  (53) 
0

>  <fr_COO>  (53) 
1

>  <fr_COO2>  (53) 
1

>  <fr_C_O>  (53) 
1

>  <fr_C_O_noCOO>  (53) 
1

>  <fr_C_S>  (53) 
0

>  <fr_HOCCN>  (53) 
0

>  <fr_Imine>  (53) 
0

>  <fr_NH0>  (53) 
1

>  <fr_NH1>  (53) 
0

>  <fr_NH2>  (53) 
0

>  <fr_N_O>  (53) 
0

>  <fr_Ndealkylation1>  (53) 
0

>  <fr_Ndealkylation2>  (53) 
0

>  <fr_Nhpyrrole>  (53) 
0

>  <fr_SH>  (53) 
0

>  <fr_aldehyde>  (53) 
0

>  <fr_alkyl_carbamate>  (53) 
0

>  <fr_alkyl_halide>  (53) 
0

>  <fr_allylic_oxid>  (53) 
0

>  <fr_amide>  (53) 
0

>  <fr_amidine>  (53) 
0

>  <fr_aniline>  (53) 
0

>  <fr_aryl_methyl>  (53) 
0

>  <fr_azide>  (53) 
0

>  <fr_azo>  (53) 
0

>  <fr_barbitur>  (53) 
0

>  <fr_benzene>  (53) 
1

>  <fr_benzodiazepine>  (53) 
0

>  <fr_bicyclic>  (53) 
0

>  <fr_diazo>  (53) 
0

>  <fr_dihydropyridine>  (53) 
0

>  <fr_epoxide>  (53) 
0

>  <fr_ester>  (53) 
0

>  <fr_ether>  (53) 
1

>  <fr_furan>  (53) 
0

>  <fr_guanido>  (53) 
0

>  <fr_halogen>  (53) 
0

>  <fr_hdrzine>  (53) 
0

>  <fr_hdrzone>  (53) 
0

>  <fr_imidazole>  (53) 
0

>  <fr_imide>  (53) 
0

>  <fr_isocyan>  (53) 
0

>  <fr_isothiocyan>  (53) 
0

>  <fr_ketone>  (53) 
0

>  <fr_ketone_Topliss>  (53) 
0

>  <fr_lactam>  (53) 
0

>  <fr_lactone>  (53) 
0

>  <fr_methoxy>  (53) 
1

>  <fr_morpholine>  (53) 
0

>  <fr_nitrile>  (53) 
0

>  <fr_nitro>  (53) 
0

>  <fr_nitro_arom>  (53) 
0

>  <fr_nitro_arom_nonortho>  (53) 
0

>  <fr_nitroso>  (53) 
0

>  <fr_oxazole>  (53) 
0

>  <fr_oxime>  (53) 
0

>  <fr_para_hydroxylation>  (53) 
0

>  <fr_phenol>  (53) 
0

>  <fr_phenol_noOrthoHbond>  (53) 
0

>  <fr_phos_acid>  (53) 
0

>  <fr_phos_ester>  (53) 
0

>  <fr_piperdine>  (53) 
0

>  <fr_piperzine>  (53) 
0

>  <fr_priamide>  (53) 
0

>  <fr_prisulfonamd>  (53) 
0

>  <fr_pyridine>  (53) 
0

>  <fr_quatN>  (53) 
0

>  <fr_sulfide>  (53) 
0

>  <fr_sulfonamd>  (53) 
0

>  <fr_sulfone>  (53) 
0

>  <fr_term_acetylene>  (53) 
0

>  <fr_tetrazole>  (53) 
0

>  <fr_thiazole>  (53) 
0

>  <fr_thiocyan>  (53) 
0

>  <fr_thiophene>  (53) 
0

>  <fr_unbrch_alkane>  (53) 
0

>  <fr_urea>  (53) 
0

>  <NP_Likeness>  (53) 
-0.5372

$$$$
F310
     RDKit          3D

  0  0  0  0  0  0  0  0  0  0999 V3000
M  V30 BEGIN CTAB
M  V30 COUNTS 43 44 0 0 0
M  V30 BEGIN ATOM
M  V30 1 O -19.541000 8.015000 -35.816000 0
M  V30 2 O -14.054000 5.868000 -30.127000 0
M  V30 3 O -19.071000 3.568000 -30.050000 0
M  V30 4 O -17.294000 5.410000 -32.737000 0
M  V30 5 N -15.719000 4.346000 -30.193000 0
M  V30 6 N -13.497000 3.652000 -29.909000 0
M  V30 7 C -18.825000 6.813000 -35.596000 0
M  V30 8 C -9.406000 3.677000 -28.830000 0
M  V30 9 C -10.092000 2.501000 -28.986000 0
M  V30 10 C -10.058000 4.863000 -29.105000 0
M  V30 11 C -16.673000 5.460000 -30.401000 0
M  V30 12 C -18.993000 6.360000 -34.155000 0
M  V30 13 C -18.936000 3.842000 -33.822000 0
M  V30 14 C -11.438000 2.493000 -29.365000 0
M  V30 15 C -11.388000 4.852000 -29.487000 0
M  V30 16 C -19.523000 3.593000 -32.437000 0
M  V30 17 C -14.385000 4.707000 -30.056000 0
M  V30 18 C -18.123000 5.123000 -33.886000 0 CFG=2
M  V30 19 C -18.474000 3.810000 -31.332000 0 CFG=1
M  V30 20 C -17.815000 5.196000 -31.406000 0 CFG=2
M  V30 21 C -12.111000 3.677000 -29.638000 0
M  V30 22 H -19.081200 8.552200 -36.523100 0
M  V30 23 H -18.375200 3.228700 -29.417000 0
M  V30 24 H -16.017300 3.392300 -30.153600 0
M  V30 25 H -13.896100 2.740600 -30.009500 0
M  V30 26 H -17.854800 6.967200 -35.783100 0
M  V30 27 H -19.173900 6.103600 -36.208300 0
M  V30 28 H -8.454100 3.676400 -28.523700 0
M  V30 29 H -9.621700 1.633100 -28.826000 0
M  V30 30 H -9.568100 5.731300 -29.027900 0
M  V30 31 H -16.154200 6.249700 -30.728300 0
M  V30 32 H -17.087600 5.676600 -29.517100 0
M  V30 33 H -19.952500 6.131900 -33.989700 0
M  V30 34 H -18.715600 7.099300 -33.541400 0
M  V30 35 H -19.685100 3.904000 -34.481600 0
M  V30 36 H -18.343200 3.073300 -34.062200 0
M  V30 37 H -11.923300 1.621900 -29.440600 0
M  V30 38 H -11.845600 5.724000 -29.660900 0
M  V30 39 H -19.854900 2.650900 -32.389400 0
M  V30 40 H -20.285500 4.222900 -32.289300 0
M  V30 41 H -17.506300 5.031600 -34.667900 0
M  V30 42 H -17.754600 3.127700 -31.462200 0
M  V30 43 H -18.526400 5.879900 -31.244400 0
M  V30 END ATOM
M  V30 BEGIN BOND
M  V30 1 1 1 7
M  V30 2 2 2 17
M  V30 3 1 3 19
M  V30 4 1 4 18
M  V30 5 1 4 20
M  V30 6 1 5 11
M  V30 7 1 5 17
M  V30 8 1 6 17
M  V30 9 1 6 21
M  V30 10 1 7 12
M  V30 11 2 8 9
M  V30 12 1 8 10
M  V30 13 1 9 14
M  V30 14 2 10 15
M  V30 15 1 11 20
M  V30 16 1 12 18
M  V30 17 1 13 16
M  V30 18 1 13 18
M  V30 19 2 14 21
M  V30 20 1 15 21
M  V30 21 1 16 19
M  V30 22 1 19 20
M  V30 23 1 1 22
M  V30 24 1 3 23
M  V30 25 1 5 24
M  V30 26 1 6 25
M  V30 27 1 7 26
M  V30 28 1 7 27
M  V30 29 1 8 28
M  V30 30 1 9 29
M  V30 31 1 10 30
M  V30 32 1 11 31
M  V30 33 1 11 32
M  V30 34 1 12 33
M  V30 35 1 12 34
M  V30 36 1 13 35
M  V30 37 1 13 36
M  V30 38 1 14 37
M  V30 39 1 15 38
M  V30 40 1 16 39
M  V30 41 1 16 40
M  V30 42 1 18 41 CFG=3
M  V30 43 1 19 42 CFG=3
M  V30 44 1 20 43 CFG=1
M  V30 END BOND
M  V30 END CTAB
M  END
>  <Ligand_Instance>  (54) 
310_B_1

>  <Dataset>  (54) 
CF

>  <PDB_ID>  (54) 
None

>  <Chain>  (54) 
B

>  <Resi>  (54) 
1

>  <Num_Resolved_Atoms>  (54) 
21

>  <Num_H_Atoms_ProtBoundConf>  (54) 
22

>  <Pocket>  (54) 
A

>  <Name>  (54) 
3‐{[(2R,3S,6S)‐3‐hydroxy‐6‐(2‐hydroxyethyl)oxan‐2‐yl]methyl}‐1‐phenylurea

>  <Num_Not_Resolved_Atoms>  (54) 
0

>  <ATP_Site>  (54) 
True

>  <Peripheral>  (54) 
False

>  <Standardized_SMILES>  (54) 
[H]OC([H])([H])C([H])([H])[C@@]1([H])O[C@]([H])(C([H])([H])N([H])C(=O)N([H])C2=C([H])C([H])=C([H])C([H])=C2[H])[C@@]([H])(O[H])C([H])([H])C1([H])[H]

>  <2D_Mol_H>  (54) 
<rdkit.Chem.rdchem.Mol object at 0x77059d9d9e00>

>  <MW>  (54) 
294.351

>  <HBA>  (54) 
4

>  <HBD>  (54) 
4

>  <LogP>  (54) 
1.099

>  <NRB>  (54) 
7

>  <TPSA>  (54) 
90.82

>  <Num_Heavy_Atoms>  (54) 
21

>  <Ro5>  (54) 
[True, True, True, True, True, True]

>  <Ro5_Fulfilled>  (54) 
True

>  <Ro3>  (54) 
[True, False, False, True]

>  <Ro3_Fulfilled>  (54) 
False

>  <Fsp3>  (54) 
0.533333

>  <Fsp3_0.42>  (54) 
True

>  <Fsp3_0.45>  (54) 
True

>  <Stereogenic_Carbons>  (54) 
3

>  <C_Atoms>  (54) 
15

>  <FCStereo>  (54) 
0.2

>  <SPS>  (54) 
532

>  <nSPS>  (54) 
25.333333

>  <PBF>  (54) 
0.886035

>  <PBF_0.6>  (54) 
True

>  <nPBF>  (54) 
0.042192

>  <nPBF_0.016>  (54) 
True

>  <PMI1>  (54) 
848.949911

>  <PMI2>  (54) 
4883.941628

>  <PMI3>  (54) 
5323.897373

>  <NPR1>  (54) 
0.15946

>  <NPR2>  (54) 
0.917362

>  <Sum_NPR>  (54) 
1.076822

>  <Sum_NPR_1.07>  (54) 
True

>  <Sum_NPR_1.2>  (54) 
False

>  <MaxAbsEStateIndex>  (54) 
11.769607

>  <MaxEStateIndex>  (54) 
11.769607

>  <MinAbsEStateIndex>  (54) 
0.053348

>  <MinEStateIndex>  (54) 
-0.586141

>  <qed>  (54) 
0.654313

>  <MolWt>  (54) 
294.351

>  <HeavyAtomMolWt>  (54) 
272.175

>  <ExactMolWt>  (54) 
294.157957

>  <NumValenceElectrons>  (54) 
116

>  <NumRadicalElectrons>  (54) 
0

>  <MaxPartialCharge>  (54) 
0.318827

>  <MinPartialCharge>  (54) 
-0.396275

>  <MaxAbsPartialCharge>  (54) 
0.396275

>  <MinAbsPartialCharge>  (54) 
0.318827

>  <FpDensityMorgan1>  (54) 
1.285714

>  <FpDensityMorgan2>  (54) 
2.047619

>  <FpDensityMorgan3>  (54) 
2.761905

>  <BCUT2D_MWHI>  (54) 
16.51422

>  <BCUT2D_MWLOW>  (54) 
9.991911

>  <BCUT2D_CHGHI>  (54) 
2.292405

>  <BCUT2D_CHGLO>  (54) 
-2.334182

>  <BCUT2D_LOGPHI>  (54) 
2.208698

>  <BCUT2D_LOGPLOW>  (54) 
-2.466564

>  <BCUT2D_MRHI>  (54) 
5.886194

>  <BCUT2D_MRLOW>  (54) 
-0.118463

>  <AvgIpc>  (54) 
2.489279

>  <BalabanJ>  (54) 
1.766037

>  <BertzCT>  (54) 
440.559575

>  <Chi0>  (54) 
15.07914

>  <Chi0n>  (54) 
11.86526

>  <Chi0v>  (54) 
11.86526

>  <Chi1>  (54) 
10.185872

>  <Chi1n>  (54) 
7.230519

>  <Chi1v>  (54) 
7.230519

>  <Chi2n>  (54) 
5.154573

>  <Chi2v>  (54) 
5.154573

>  <Chi3n>  (54) 
3.527346

>  <Chi3v>  (54) 
3.527346

>  <Chi4n>  (54) 
2.379059

>  <Chi4v>  (54) 
2.379059

>  <HallKierAlpha>  (54) 
-1.63

>  <Ipc>  (54) 
61076.94649

>  <Kappa1>  (54) 
15.753094

>  <Kappa2>  (54) 
7.970554

>  <Kappa3>  (54) 
5.002389

>  <LabuteASA>  (54) 
123.67331

>  <PEOE_VSA1>  (54) 
25.583495

>  <PEOE_VSA10>  (54) 
6.103966

>  <PEOE_VSA11>  (54) 
0.0

>  <PEOE_VSA12>  (54) 
0.0

>  <PEOE_VSA13>  (54) 
0.0

>  <PEOE_VSA14>  (54) 
6.031115

>  <PEOE_VSA2>  (54) 
0.0

>  <PEOE_VSA3>  (54) 
4.794537

>  <PEOE_VSA4>  (54) 
0.0

>  <PEOE_VSA5>  (54) 
0.0

>  <PEOE_VSA6>  (54) 
18.199101

>  <PEOE_VSA7>  (54) 
31.395199

>  <PEOE_VSA8>  (54) 
18.839025

>  <PEOE_VSA9>  (54) 
12.207933

>  <SMR_VSA1>  (54) 
19.744455

>  <SMR_VSA10>  (54) 
11.718501

>  <SMR_VSA2>  (54) 
0.0

>  <SMR_VSA3>  (54) 
5.316789

>  <SMR_VSA4>  (54) 
0.0

>  <SMR_VSA5>  (54) 
37.574364

>  <SMR_VSA6>  (54) 
18.468427

>  <SMR_VSA7>  (54) 
30.331835

>  <SMR_VSA8>  (54) 
0.0

>  <SMR_VSA9>  (54) 
0.0

>  <SlogP_VSA1>  (54) 
10.633577

>  <SlogP_VSA10>  (54) 
10.481923

>  <SlogP_VSA11>  (54) 
0.0

>  <SlogP_VSA12>  (54) 
0.0

>  <SlogP_VSA2>  (54) 
47.707707

>  <SlogP_VSA3>  (54) 
4.736863

>  <SlogP_VSA4>  (54) 
0.0

>  <SlogP_VSA5>  (54) 
19.262465

>  <SlogP_VSA6>  (54) 
30.331835

>  <SlogP_VSA7>  (54) 
0.0

>  <SlogP_VSA8>  (54) 
0.0

>  <SlogP_VSA9>  (54) 
0.0

>  <EState_VSA1>  (54) 
12.207933

>  <EState_VSA10>  (54) 
9.901065

>  <EState_VSA11>  (54) 
0.0

>  <EState_VSA2>  (54) 
25.286719

>  <EState_VSA3>  (54) 
18.52903

>  <EState_VSA4>  (54) 
6.420822

>  <EState_VSA5>  (54) 
0.0

>  <EState_VSA6>  (54) 
12.132734

>  <EState_VSA7>  (54) 
18.199101

>  <EState_VSA8>  (54) 
10.633577

>  <EState_VSA9>  (54) 
9.84339

>  <VSA_EState1>  (54) 
5.687207

>  <VSA_EState10>  (54) 
0.0

>  <VSA_EState2>  (54) 
11.769607

>  <VSA_EState3>  (54) 
24.230878

>  <VSA_EState4>  (54) 
0.70673

>  <VSA_EState5>  (54) 
0.0

>  <VSA_EState6>  (54) 
8.801229

>  <VSA_EState7>  (54) 
0.834939

>  <VSA_EState8>  (54) 
0.302744

>  <VSA_EState9>  (54) 
0.0

>  <FractionCSP3>  (54) 
0.533333

>  <HeavyAtomCount>  (54) 
21

>  <NHOHCount>  (54) 
4

>  <NOCount>  (54) 
6

>  <NumAliphaticCarbocycles>  (54) 
0

>  <NumAliphaticHeterocycles>  (54) 
1

>  <NumAliphaticRings>  (54) 
1

>  <NumAromaticCarbocycles>  (54) 
1

>  <NumAromaticHeterocycles>  (54) 
0

>  <NumAromaticRings>  (54) 
1

>  <NumHAcceptors>  (54) 
4

>  <NumHDonors>  (54) 
4

>  <NumHeteroatoms>  (54) 
6

>  <NumRotatableBonds>  (54) 
5

>  <NumSaturatedCarbocycles>  (54) 
0

>  <NumSaturatedHeterocycles>  (54) 
1

>  <NumSaturatedRings>  (54) 
1

>  <RingCount>  (54) 
2

>  <MolLogP>  (54) 
1.099

>  <MolMR>  (54) 
79.068

>  <fr_Al_COO>  (54) 
0

>  <fr_Al_OH>  (54) 
2

>  <fr_Al_OH_noTert>  (54) 
2

>  <fr_ArN>  (54) 
0

>  <fr_Ar_COO>  (54) 
0

>  <fr_Ar_N>  (54) 
0

>  <fr_Ar_NH>  (54) 
0

>  <fr_Ar_OH>  (54) 
0

>  <fr_COO>  (54) 
0

>  <fr_COO2>  (54) 
0

>  <fr_C_O>  (54) 
1

>  <fr_C_O_noCOO>  (54) 
1

>  <fr_C_S>  (54) 
0

>  <fr_HOCCN>  (54) 
0

>  <fr_Imine>  (54) 
0

>  <fr_NH0>  (54) 
0

>  <fr_NH1>  (54) 
2

>  <fr_NH2>  (54) 
0

>  <fr_N_O>  (54) 
0

>  <fr_Ndealkylation1>  (54) 
0

>  <fr_Ndealkylation2>  (54) 
0

>  <fr_Nhpyrrole>  (54) 
0

>  <fr_SH>  (54) 
0

>  <fr_aldehyde>  (54) 
0

>  <fr_alkyl_carbamate>  (54) 
0

>  <fr_alkyl_halide>  (54) 
0

>  <fr_allylic_oxid>  (54) 
0

>  <fr_amide>  (54) 
2

>  <fr_amidine>  (54) 
0

>  <fr_aniline>  (54) 
1

>  <fr_aryl_methyl>  (54) 
0

>  <fr_azide>  (54) 
0

>  <fr_azo>  (54) 
0

>  <fr_barbitur>  (54) 
0

>  <fr_benzene>  (54) 
1

>  <fr_benzodiazepine>  (54) 
0

>  <fr_bicyclic>  (54) 
0

>  <fr_diazo>  (54) 
0

>  <fr_dihydropyridine>  (54) 
0

>  <fr_epoxide>  (54) 
0

>  <fr_ester>  (54) 
0

>  <fr_ether>  (54) 
1

>  <fr_furan>  (54) 
0

>  <fr_guanido>  (54) 
0

>  <fr_halogen>  (54) 
0

>  <fr_hdrzine>  (54) 
0

>  <fr_hdrzone>  (54) 
0

>  <fr_imidazole>  (54) 
0

>  <fr_imide>  (54) 
0

>  <fr_isocyan>  (54) 
0

>  <fr_isothiocyan>  (54) 
0

>  <fr_ketone>  (54) 
0

>  <fr_ketone_Topliss>  (54) 
0

>  <fr_lactam>  (54) 
0

>  <fr_lactone>  (54) 
0

>  <fr_methoxy>  (54) 
0

>  <fr_morpholine>  (54) 
0

>  <fr_nitrile>  (54) 
0

>  <fr_nitro>  (54) 
0

>  <fr_nitro_arom>  (54) 
0

>  <fr_nitro_arom_nonortho>  (54) 
0

>  <fr_nitroso>  (54) 
0

>  <fr_oxazole>  (54) 
0

>  <fr_oxime>  (54) 
0

>  <fr_para_hydroxylation>  (54) 
1

>  <fr_phenol>  (54) 
0

>  <fr_phenol_noOrthoHbond>  (54) 
0

>  <fr_phos_acid>  (54) 
0

>  <fr_phos_ester>  (54) 
0

>  <fr_piperdine>  (54) 
0

>  <fr_piperzine>  (54) 
0

>  <fr_priamide>  (54) 
0

>  <fr_prisulfonamd>  (54) 
0

>  <fr_pyridine>  (54) 
0

>  <fr_quatN>  (54) 
0

>  <fr_sulfide>  (54) 
0

>  <fr_sulfonamd>  (54) 
0

>  <fr_sulfone>  (54) 
0

>  <fr_term_acetylene>  (54) 
0

>  <fr_tetrazole>  (54) 
0

>  <fr_thiazole>  (54) 
0

>  <fr_thiocyan>  (54) 
0

>  <fr_thiophene>  (54) 
0

>  <fr_unbrch_alkane>  (54) 
0

>  <fr_urea>  (54) 
1

>  <NP_Likeness>  (54) 
0.293805

$$$$
F312
     RDKit          3D

  0  0  0  0  0  0  0  0  0  0999 V3000
M  V30 BEGIN CTAB
M  V30 COUNTS 34 35 0 0 0
M  V30 BEGIN ATOM
M  V30 1 O -14.868000 1.676000 -28.382000 0
M  V30 2 O -9.351000 2.829000 -28.559000 0
M  V30 3 O -15.437000 4.267000 -30.619000 0
M  V30 4 N -17.350000 4.088000 -27.971000 0 CHG=1
M  V30 5 N -12.049000 3.854000 -28.990000 0 CHG=1
M  V30 6 C -9.630000 4.216000 -28.302000 0
M  V30 7 C -10.485000 1.958000 -28.719000 0
M  V30 8 C -16.720000 3.679000 -30.341000 0
M  V30 9 C -10.898000 4.781000 -28.971000 0
M  V30 10 C -11.664000 2.528000 -29.521000 0
M  V30 11 C -13.229000 4.470000 -29.627000 0
M  V30 12 C -15.159000 3.064000 -28.607000 0 CFG=1
M  V30 13 C -14.433000 3.528000 -29.874000 0 CFG=1
M  V30 14 C -16.664000 3.176000 -28.896000 0 CFG=1
M  V30 15 H -15.641800 1.244000 -27.918700 0
M  V30 16 H -17.291400 3.725600 -27.040800 0
M  V30 17 H -16.915100 4.987800 -28.006200 0
M  V30 18 H -8.848900 4.750800 -28.624400 0
M  V30 19 H -9.727600 4.331100 -27.313500 0
M  V30 20 H -10.820800 1.722400 -27.807000 0
M  V30 21 H -10.171400 1.129600 -29.183100 0
M  V30 22 H -16.893500 2.917400 -30.965400 0
M  V30 23 H -17.442500 4.363200 -30.440900 0
M  V30 24 H -11.170300 5.606200 -28.476200 0
M  V30 25 H -10.672800 5.018000 -29.916000 0
M  V30 26 H -11.396900 2.621100 -30.480200 0
M  V30 27 H -12.443200 1.905100 -29.450900 0
M  V30 28 H -12.942300 4.839100 -30.511100 0
M  V30 29 H -13.539800 5.216800 -29.039000 0
M  V30 30 H -14.900000 3.620400 -27.817500 0
M  V30 31 H -14.136700 2.733200 -30.403600 0
M  V30 32 H -17.082400 2.269300 -28.842000 0
M  V30 33 H -18.310600 4.171500 -28.236300 0
M  V30 34 H -12.298700 3.705500 -28.033100 0
M  V30 END ATOM
M  V30 BEGIN BOND
M  V30 1 1 1 12
M  V30 2 1 2 6
M  V30 3 1 2 7
M  V30 4 1 3 8
M  V30 5 1 3 13
M  V30 6 1 4 14
M  V30 7 1 5 9
M  V30 8 1 5 10
M  V30 9 1 5 11
M  V30 10 1 6 9
M  V30 11 1 7 10
M  V30 12 1 8 14
M  V30 13 1 11 13
M  V30 14 1 12 13
M  V30 15 1 12 14
M  V30 16 1 1 15
M  V30 17 1 4 16
M  V30 18 1 4 17
M  V30 19 1 6 18
M  V30 20 1 6 19
M  V30 21 1 7 20
M  V30 22 1 7 21
M  V30 23 1 8 22
M  V30 24 1 8 23
M  V30 25 1 9 24
M  V30 26 1 9 25
M  V30 27 1 10 26
M  V30 28 1 10 27
M  V30 29 1 11 28
M  V30 30 1 11 29
M  V30 31 1 12 30 CFG=1
M  V30 32 1 13 31 CFG=3
M  V30 33 1 14 32 CFG=3
M  V30 34 1 4 33
M  V30 35 1 5 34
M  V30 END BOND
M  V30 END CTAB
M  END
>  <Ligand_Instance>  (55) 
312_A_401

>  <Dataset>  (55) 
CF

>  <PDB_ID>  (55) 
None

>  <Chain>  (55) 
A

>  <Resi>  (55) 
401

>  <Num_Resolved_Atoms>  (55) 
14

>  <Num_H_Atoms_ProtBoundConf>  (55) 
20

>  <Pocket>  (55) 
A

>  <Name>  (55) 
(2S,3R,4S)‐4‐amino‐2‐[(morpholin‐4‐yl)methyl]oxolan‐3‐ol

>  <Num_Not_Resolved_Atoms>  (55) 
0

>  <ATP_Site>  (55) 
True

>  <Peripheral>  (55) 
False

>  <Standardized_SMILES>  (55) 
[H]O[C@@]1([H])[C@]([H])(C([H])([H])[N+]2([H])C([H])([H])C([H])([H])OC([H])([H])C2([H])[H])OC([H])([H])[C@]1([H])[N+]([H])([H])[H]

>  <2D_Mol_H>  (55) 
<rdkit.Chem.rdchem.Mol object at 0x77059d9d9ee0>

>  <MW>  (55) 
204.27

>  <HBA>  (55) 
3

>  <HBD>  (55) 
3

>  <LogP>  (55) 
-3.7283

>  <NRB>  (55) 
4

>  <TPSA>  (55) 
70.77

>  <Num_Heavy_Atoms>  (55) 
14

>  <Ro5>  (55) 
[True, True, True, True, True, True]

>  <Ro5_Fulfilled>  (55) 
True

>  <Ro3>  (55) 
[True, True, True, True]

>  <Ro3_Fulfilled>  (55) 
True

>  <Fsp3>  (55) 
1.0

>  <Fsp3_0.42>  (55) 
True

>  <Fsp3_0.45>  (55) 
True

>  <Stereogenic_Carbons>  (55) 
3

>  <C_Atoms>  (55) 
9

>  <FCStereo>  (55) 
0.333333

>  <SPS>  (55) 
564

>  <nSPS>  (55) 
40.285714

>  <PBF>  (55) 
0.847279

>  <PBF_0.6>  (55) 
True

>  <nPBF>  (55) 
0.06052

>  <nPBF_0.016>  (55) 
True

>  <PMI1>  (55) 
325.78856

>  <PMI2>  (55) 
1597.326864

>  <PMI3>  (55) 
1692.215396

>  <NPR1>  (55) 
0.192522

>  <NPR2>  (55) 
0.943926

>  <Sum_NPR>  (55) 
1.136448

>  <Sum_NPR_1.07>  (55) 
True

>  <Sum_NPR_1.2>  (55) 
False

>  <MaxAbsEStateIndex>  (55) 
9.756023

>  <MaxEStateIndex>  (55) 
9.756023

>  <MinAbsEStateIndex>  (55) 
0.022593

>  <MinEStateIndex>  (55) 
-0.38394

>  <qed>  (55) 
0.43299

>  <MolWt>  (55) 
204.27

>  <HeavyAtomMolWt>  (55) 
184.11

>  <ExactMolWt>  (55) 
204.146295

>  <NumValenceElectrons>  (55) 
82

>  <NumRadicalElectrons>  (55) 
0

>  <MaxPartialCharge>  (55) 
0.139355

>  <MinPartialCharge>  (55) 
-0.38383

>  <MaxAbsPartialCharge>  (55) 
0.38383

>  <MinAbsPartialCharge>  (55) 
0.139355

>  <FpDensityMorgan1>  (55) 
1.357143

>  <FpDensityMorgan2>  (55) 
2.071429

>  <FpDensityMorgan3>  (55) 
2.642857

>  <BCUT2D_MWHI>  (55) 
16.513701

>  <BCUT2D_MWLOW>  (55) 
10.107684

>  <BCUT2D_CHGHI>  (55) 
2.383653

>  <BCUT2D_CHGLO>  (55) 
-2.261465

>  <BCUT2D_LOGPHI>  (55) 
2.089873

>  <BCUT2D_LOGPLOW>  (55) 
-3.148903

>  <BCUT2D_MRHI>  (55) 
4.809901

>  <BCUT2D_MRLOW>  (55) 
-0.910799

>  <AvgIpc>  (55) 
2.515471

>  <BalabanJ>  (55) 
1.786344

>  <BertzCT>  (55) 
184.89588

>  <Chi0>  (55) 
9.966255

>  <Chi0n>  (55) 
8.445508

>  <Chi0v>  (55) 
8.445508

>  <Chi1>  (55) 
6.770857

>  <Chi1n>  (55) 
5.311998

>  <Chi1v>  (55) 
5.311998

>  <Chi2n>  (55) 
4.188954

>  <Chi2v>  (55) 
4.188954

>  <Chi3n>  (55) 
3.078045

>  <Chi3v>  (55) 
3.078045

>  <Chi4n>  (55) 
2.076321

>  <Chi4v>  (55) 
2.076321

>  <HallKierAlpha>  (55) 
-0.2

>  <Ipc>  (55) 
2434.975513

>  <Kappa1>  (55) 
10.322279

>  <Kappa2>  (55) 
4.546148

>  <Kappa3>  (55) 
2.237825

>  <LabuteASA>  (55) 
83.768174

>  <PEOE_VSA1>  (55) 
25.213831

>  <PEOE_VSA10>  (55) 
44.490925

>  <PEOE_VSA11>  (55) 
0.0

>  <PEOE_VSA12>  (55) 
0.0

>  <PEOE_VSA13>  (55) 
0.0

>  <PEOE_VSA14>  (55) 
0.0

>  <PEOE_VSA2>  (55) 
0.0

>  <PEOE_VSA3>  (55) 
0.0

>  <PEOE_VSA4>  (55) 
0.0

>  <PEOE_VSA5>  (55) 
0.0

>  <PEOE_VSA6>  (55) 
0.0

>  <PEOE_VSA7>  (55) 
0.0

>  <PEOE_VSA8>  (55) 
0.0

>  <PEOE_VSA9>  (55) 
13.213764

>  <SMR_VSA1>  (55) 
25.213831

>  <SMR_VSA10>  (55) 
0.0

>  <SMR_VSA2>  (55) 
0.0

>  <SMR_VSA3>  (55) 
0.0

>  <SMR_VSA4>  (55) 
0.0

>  <SMR_VSA5>  (55) 
18.249774

>  <SMR_VSA6>  (55) 
39.454915

>  <SMR_VSA7>  (55) 
0.0

>  <SMR_VSA8>  (55) 
0.0

>  <SMR_VSA9>  (55) 
0.0

>  <SlogP_VSA1>  (55) 
10.633577

>  <SlogP_VSA10>  (55) 
0.0

>  <SlogP_VSA11>  (55) 
0.0

>  <SlogP_VSA12>  (55) 
0.0

>  <SlogP_VSA2>  (55) 
62.811216

>  <SlogP_VSA3>  (55) 
9.473726

>  <SlogP_VSA4>  (55) 
0.0

>  <SlogP_VSA5>  (55) 
0.0

>  <SlogP_VSA6>  (55) 
0.0

>  <SlogP_VSA7>  (55) 
0.0

>  <SlogP_VSA8>  (55) 
0.0

>  <SlogP_VSA9>  (55) 
0.0

>  <EState_VSA1>  (55) 
0.0

>  <EState_VSA10>  (55) 
5.106527

>  <EState_VSA11>  (55) 
0.0

>  <EState_VSA2>  (55) 
18.249774

>  <EState_VSA3>  (55) 
6.606882

>  <EState_VSA4>  (55) 
32.848033

>  <EState_VSA5>  (55) 
4.89991

>  <EState_VSA6>  (55) 
0.0

>  <EState_VSA7>  (55) 
0.0

>  <EState_VSA8>  (55) 
5.733667

>  <EState_VSA9>  (55) 
9.473726

>  <VSA_EState1>  (55) 
10.78171

>  <VSA_EState10>  (55) 
0.0

>  <VSA_EState2>  (55) 
1.467037

>  <VSA_EState3>  (55) 
9.756023

>  <VSA_EState4>  (55) 
3.852899

>  <VSA_EState5>  (55) 
0.0

>  <VSA_EState6>  (55) 
0.042075

>  <VSA_EState7>  (55) 
-0.406533

>  <VSA_EState8>  (55) 
5.173456

>  <VSA_EState9>  (55) 
0.0

>  <FractionCSP3>  (55) 
1.0

>  <HeavyAtomCount>  (55) 
14

>  <NHOHCount>  (55) 
5

>  <NOCount>  (55) 
5

>  <NumAliphaticCarbocycles>  (55) 
0

>  <NumAliphaticHeterocycles>  (55) 
2

>  <NumAliphaticRings>  (55) 
2

>  <NumAromaticCarbocycles>  (55) 
0

>  <NumAromaticHeterocycles>  (55) 
0

>  <NumAromaticRings>  (55) 
0

>  <NumHAcceptors>  (55) 
3

>  <NumHDonors>  (55) 
3

>  <NumHeteroatoms>  (55) 
5

>  <NumRotatableBonds>  (55) 
2

>  <NumSaturatedCarbocycles>  (55) 
0

>  <NumSaturatedHeterocycles>  (55) 
2

>  <NumSaturatedRings>  (55) 
2

>  <RingCount>  (55) 
2

>  <MolLogP>  (55) 
-3.7283

>  <MolMR>  (55) 
48.8056

>  <fr_Al_COO>  (55) 
0

>  <fr_Al_OH>  (55) 
1

>  <fr_Al_OH_noTert>  (55) 
1

>  <fr_ArN>  (55) 
0

>  <fr_Ar_COO>  (55) 
0

>  <fr_Ar_N>  (55) 
0

>  <fr_Ar_NH>  (55) 
0

>  <fr_Ar_OH>  (55) 
0

>  <fr_COO>  (55) 
0

>  <fr_COO2>  (55) 
0

>  <fr_C_O>  (55) 
0

>  <fr_C_O_noCOO>  (55) 
0

>  <fr_C_S>  (55) 
0

>  <fr_HOCCN>  (55) 
0

>  <fr_Imine>  (55) 
0

>  <fr_NH0>  (55) 
0

>  <fr_NH1>  (55) 
1

>  <fr_NH2>  (55) 
0

>  <fr_N_O>  (55) 
0

>  <fr_Ndealkylation1>  (55) 
0

>  <fr_Ndealkylation2>  (55) 
0

>  <fr_Nhpyrrole>  (55) 
0

>  <fr_SH>  (55) 
0

>  <fr_aldehyde>  (55) 
0

>  <fr_alkyl_carbamate>  (55) 
0

>  <fr_alkyl_halide>  (55) 
0

>  <fr_allylic_oxid>  (55) 
0

>  <fr_amide>  (55) 
0

>  <fr_amidine>  (55) 
0

>  <fr_aniline>  (55) 
0

>  <fr_aryl_methyl>  (55) 
0

>  <fr_azide>  (55) 
0

>  <fr_azo>  (55) 
0

>  <fr_barbitur>  (55) 
0

>  <fr_benzene>  (55) 
0

>  <fr_benzodiazepine>  (55) 
0

>  <fr_bicyclic>  (55) 
0

>  <fr_diazo>  (55) 
0

>  <fr_dihydropyridine>  (55) 
0

>  <fr_epoxide>  (55) 
0

>  <fr_ester>  (55) 
0

>  <fr_ether>  (55) 
2

>  <fr_furan>  (55) 
0

>  <fr_guanido>  (55) 
0

>  <fr_halogen>  (55) 
0

>  <fr_hdrzine>  (55) 
0

>  <fr_hdrzone>  (55) 
0

>  <fr_imidazole>  (55) 
0

>  <fr_imide>  (55) 
0

>  <fr_isocyan>  (55) 
0

>  <fr_isothiocyan>  (55) 
0

>  <fr_ketone>  (55) 
0

>  <fr_ketone_Topliss>  (55) 
0

>  <fr_lactam>  (55) 
0

>  <fr_lactone>  (55) 
0

>  <fr_methoxy>  (55) 
0

>  <fr_morpholine>  (55) 
1

>  <fr_nitrile>  (55) 
0

>  <fr_nitro>  (55) 
0

>  <fr_nitro_arom>  (55) 
0

>  <fr_nitro_arom_nonortho>  (55) 
0

>  <fr_nitroso>  (55) 
0

>  <fr_oxazole>  (55) 
0

>  <fr_oxime>  (55) 
0

>  <fr_para_hydroxylation>  (55) 
0

>  <fr_phenol>  (55) 
0

>  <fr_phenol_noOrthoHbond>  (55) 
0

>  <fr_phos_acid>  (55) 
0

>  <fr_phos_ester>  (55) 
0

>  <fr_piperdine>  (55) 
0

>  <fr_piperzine>  (55) 
0

>  <fr_priamide>  (55) 
0

>  <fr_prisulfonamd>  (55) 
0

>  <fr_pyridine>  (55) 
0

>  <fr_quatN>  (55) 
2

>  <fr_sulfide>  (55) 
0

>  <fr_sulfonamd>  (55) 
0

>  <fr_sulfone>  (55) 
0

>  <fr_term_acetylene>  (55) 
0

>  <fr_tetrazole>  (55) 
0

>  <fr_thiazole>  (55) 
0

>  <fr_thiocyan>  (55) 
0

>  <fr_thiophene>  (55) 
0

>  <fr_unbrch_alkane>  (55) 
0

>  <fr_urea>  (55) 
0

>  <NP_Likeness>  (55) 
0.583377

$$$$
F313
     RDKit          3D

  0  0  0  0  0  0  0  0  0  0999 V3000
M  V30 BEGIN CTAB
M  V30 COUNTS 35 35 0 0 0
M  V30 BEGIN ATOM
M  V30 1 O -2.369000 9.028000 -16.971000 0
M  V30 2 O -4.099000 11.989000 -17.829000 0
M  V30 3 N -3.648000 8.832000 -19.687000 0 CHG=1
M  V30 4 N -3.526000 12.705000 -14.710000 0 CHG=1
M  V30 5 C -5.578000 14.134000 -15.232000 0
M  V30 6 C -3.164000 13.692000 -12.464000 0
M  V30 7 C -3.976000 11.314000 -19.106000 0
M  V30 8 C -4.074000 13.932000 -15.371000 0
M  V30 9 C -3.921000 12.651000 -13.282000 0
M  V30 10 C -3.943000 11.465000 -15.410000 0
M  V30 11 C -3.563000 9.819000 -17.242000 0 CFG=1
M  V30 12 C -3.380000 11.268000 -16.835000 0 CFG=1
M  V30 13 C -4.093000 9.843000 -18.704000 0 CFG=2
M  V30 14 H -1.559600 9.610800 -17.043100 0
M  V30 15 H -3.775800 7.916700 -19.305000 0
M  V30 16 H -4.186800 8.921800 -20.524700 0
M  V30 17 H -5.846500 14.974100 -15.703300 0
M  V30 18 H -6.057700 13.356200 -15.638000 0
M  V30 19 H -5.816800 14.204300 -14.263500 0
M  V30 20 H -3.448000 13.634800 -11.506900 0
M  V30 21 H -2.181400 13.518500 -12.531100 0
M  V30 22 H -3.366200 14.605300 -12.817700 0
M  V30 23 H -3.092200 11.504200 -19.533400 0
M  V30 24 H -4.711600 11.579500 -19.729200 0
M  V30 25 H -3.858800 13.879200 -16.346100 0
M  V30 26 H -3.617900 14.727200 -14.971600 0
M  V30 27 H -3.717800 11.740900 -12.921000 0
M  V30 28 H -4.902500 12.827600 -13.207600 0
M  V30 29 H -4.941000 11.470800 -15.473700 0
M  V30 30 H -3.648900 10.687000 -14.854900 0
M  V30 31 H -4.295400 9.446200 -16.672300 0
M  V30 32 H -2.411300 11.515000 -16.861400 0
M  V30 33 H -5.076700 9.687000 -18.614600 0
M  V30 34 H -2.680400 8.973700 -19.896200 0
M  V30 35 H -2.528100 12.756900 -14.749100 0
M  V30 END ATOM
M  V30 BEGIN BOND
M  V30 1 1 1 11
M  V30 2 1 2 7
M  V30 3 1 2 12
M  V30 4 1 3 13
M  V30 5 1 4 8
M  V30 6 1 4 9
M  V30 7 1 4 10
M  V30 8 1 5 8
M  V30 9 1 6 9
M  V30 10 1 7 13
M  V30 11 1 10 12
M  V30 12 1 11 12
M  V30 13 1 11 13
M  V30 14 1 1 14
M  V30 15 1 3 15
M  V30 16 1 3 16
M  V30 17 1 5 17
M  V30 18 1 5 18
M  V30 19 1 5 19
M  V30 20 1 6 20
M  V30 21 1 6 21
M  V30 22 1 6 22
M  V30 23 1 7 23
M  V30 24 1 7 24
M  V30 25 1 8 25
M  V30 26 1 8 26
M  V30 27 1 9 27
M  V30 28 1 9 28
M  V30 29 1 10 29
M  V30 30 1 10 30
M  V30 31 1 11 31 CFG=1
M  V30 32 1 12 32 CFG=1
M  V30 33 1 13 33 CFG=1
M  V30 34 1 3 34
M  V30 35 1 4 35
M  V30 END BOND
M  V30 END CTAB
M  END
>  <Ligand_Instance>  (56) 
313_A_401

>  <Dataset>  (56) 
CF

>  <PDB_ID>  (56) 
None

>  <Chain>  (56) 
A

>  <Resi>  (56) 
401

>  <Num_Resolved_Atoms>  (56) 
13

>  <Num_H_Atoms_ProtBoundConf>  (56) 
22

>  <Pocket>  (56) 
X

>  <Name>  (56) 
(2S,3R)‐4‐amino‐2‐[(diethylamino)methyl]oxolan‐3‐ol

>  <Num_Not_Resolved_Atoms>  (56) 
0

>  <ATP_Site>  (56) 
False

>  <Peripheral>  (56) 
True

>  <Standardized_SMILES>  (56) 
[H]O[C@@]1([H])[C@]([H])(C([H])([H])[N+]([H])(C([H])([H])C([H])([H])[H])C([H])([H])C([H])([H])[H])OC([H])([H])[C@@]1([H])[N+]([H])([H])[H]

>  <2D_Mol_H>  (56) 
<rdkit.Chem.rdchem.Mol object at 0x77059d9d9fc0>

>  <MW>  (56) 
190.287

>  <HBA>  (56) 
2

>  <HBD>  (56) 
3

>  <LogP>  (56) 
-2.7187

>  <NRB>  (56) 
8

>  <TPSA>  (56) 
61.54

>  <Num_Heavy_Atoms>  (56) 
13

>  <Ro5>  (56) 
[True, True, True, True, True, True]

>  <Ro5_Fulfilled>  (56) 
True

>  <Ro3>  (56) 
[True, True, True, True]

>  <Ro3_Fulfilled>  (56) 
True

>  <Fsp3>  (56) 
1.0

>  <Fsp3_0.42>  (56) 
True

>  <Fsp3_0.45>  (56) 
True

>  <Stereogenic_Carbons>  (56) 
3

>  <C_Atoms>  (56) 
9

>  <FCStereo>  (56) 
0.333333

>  <SPS>  (56) 
447

>  <nSPS>  (56) 
34.384615

>  <PBF>  (56) 
0.740269

>  <PBF_0.6>  (56) 
True

>  <nPBF>  (56) 
0.056944

>  <nPBF_0.016>  (56) 
True

>  <PMI1>  (56) 
314.27385

>  <PMI2>  (56) 
1357.376934

>  <PMI3>  (56) 
1569.390708

>  <NPR1>  (56) 
0.200252

>  <NPR2>  (56) 
0.864907

>  <Sum_NPR>  (56) 
1.065159

>  <Sum_NPR_1.07>  (56) 
False

>  <Sum_NPR_1.2>  (56) 
False

>  <MaxAbsEStateIndex>  (56) 
9.696552

>  <MaxEStateIndex>  (56) 
9.696552

>  <MinAbsEStateIndex>  (56) 
0.002407

>  <MinEStateIndex>  (56) 
-0.3675

>  <qed>  (56) 
0.45101

>  <MolWt>  (56) 
190.287

>  <HeavyAtomMolWt>  (56) 
168.111

>  <ExactMolWt>  (56) 
190.167031

>  <NumValenceElectrons>  (56) 
78

>  <NumRadicalElectrons>  (56) 
0

>  <MaxPartialCharge>  (56) 
0.139354

>  <MinPartialCharge>  (56) 
-0.38383

>  <MaxAbsPartialCharge>  (56) 
0.38383

>  <MinAbsPartialCharge>  (56) 
0.139354

>  <FpDensityMorgan1>  (56) 
1.461538

>  <FpDensityMorgan2>  (56) 
2.076923

>  <FpDensityMorgan3>  (56) 
2.461538

>  <BCUT2D_MWHI>  (56) 
16.512721

>  <BCUT2D_MWLOW>  (56) 
10.110164

>  <BCUT2D_CHGHI>  (56) 
2.376708

>  <BCUT2D_CHGLO>  (56) 
-2.203078

>  <BCUT2D_LOGPHI>  (56) 
2.088031

>  <BCUT2D_LOGPLOW>  (56) 
-3.123074

>  <BCUT2D_MRHI>  (56) 
4.808117

>  <BCUT2D_MRLOW>  (56) 
-0.899369

>  <AvgIpc>  (56) 
2.448911

>  <BalabanJ>  (56) 
2.359416

>  <BertzCT>  (56) 
150.550128

>  <Chi0>  (56) 
9.844935

>  <Chi0n>  (56) 
8.623047

>  <Chi0v>  (56) 
8.623047

>  <Chi1>  (56) 
6.185071

>  <Chi1n>  (56) 
5.148862

>  <Chi1v>  (56) 
5.148862

>  <Chi2n>  (56) 
3.783688

>  <Chi2v>  (56) 
3.783688

>  <Chi3n>  (56) 
2.878139

>  <Chi3v>  (56) 
2.878139

>  <Chi4n>  (56) 
1.750797

>  <Chi4v>  (56) 
1.750797

>  <HallKierAlpha>  (56) 
-0.16

>  <Ipc>  (56) 
999.155823

>  <Kappa1>  (56) 
10.917882

>  <Kappa2>  (56) 
4.905984

>  <Kappa3>  (56) 
2.639651

>  <LabuteASA>  (56) 
79.66046

>  <PEOE_VSA1>  (56) 
20.476968

>  <PEOE_VSA10>  (56) 
31.401412

>  <PEOE_VSA11>  (56) 
0.0

>  <PEOE_VSA12>  (56) 
0.0

>  <PEOE_VSA13>  (56) 
0.0

>  <PEOE_VSA14>  (56) 
0.0

>  <PEOE_VSA2>  (56) 
0.0

>  <PEOE_VSA3>  (56) 
0.0

>  <PEOE_VSA4>  (56) 
0.0

>  <PEOE_VSA5>  (56) 
0.0

>  <PEOE_VSA6>  (56) 
0.0

>  <PEOE_VSA7>  (56) 
13.847474

>  <PEOE_VSA8>  (56) 
0.0

>  <PEOE_VSA9>  (56) 
13.089513

>  <SMR_VSA1>  (56) 
20.476968

>  <SMR_VSA10>  (56) 
0.0

>  <SMR_VSA2>  (56) 
0.0

>  <SMR_VSA3>  (56) 
0.0

>  <SMR_VSA4>  (56) 
0.0

>  <SMR_VSA5>  (56) 
32.097248

>  <SMR_VSA6>  (56) 
26.241151

>  <SMR_VSA7>  (56) 
0.0

>  <SMR_VSA8>  (56) 
0.0

>  <SMR_VSA9>  (56) 
0.0

>  <SlogP_VSA1>  (56) 
10.633577

>  <SlogP_VSA10>  (56) 
0.0

>  <SlogP_VSA11>  (56) 
0.0

>  <SlogP_VSA12>  (56) 
0.0

>  <SlogP_VSA2>  (56) 
49.597452

>  <SlogP_VSA3>  (56) 
4.736863

>  <SlogP_VSA4>  (56) 
0.0

>  <SlogP_VSA5>  (56) 
13.847474

>  <SlogP_VSA6>  (56) 
0.0

>  <SlogP_VSA7>  (56) 
0.0

>  <SlogP_VSA8>  (56) 
0.0

>  <SlogP_VSA9>  (56) 
0.0

>  <EState_VSA1>  (56) 
0.0

>  <EState_VSA10>  (56) 
5.106527

>  <EState_VSA11>  (56) 
0.0

>  <EState_VSA2>  (56) 
18.249774

>  <EState_VSA3>  (56) 
6.606882

>  <EState_VSA4>  (56) 
19.634269

>  <EState_VSA5>  (56) 
4.89991

>  <EState_VSA6>  (56) 
0.0

>  <EState_VSA7>  (56) 
0.0

>  <EState_VSA8>  (56) 
19.581142

>  <EState_VSA9>  (56) 
4.736863

>  <VSA_EState1>  (56) 
5.478287

>  <VSA_EState10>  (56) 
0.0

>  <VSA_EState2>  (56) 
1.470509

>  <VSA_EState3>  (56) 
9.696552

>  <VSA_EState4>  (56) 
3.843447

>  <VSA_EState5>  (56) 
0.0

>  <VSA_EState6>  (56) 
0.055521

>  <VSA_EState7>  (56) 
-0.369907

>  <VSA_EState8>  (56) 
7.992258

>  <VSA_EState9>  (56) 
0.0

>  <FractionCSP3>  (56) 
1.0

>  <HeavyAtomCount>  (56) 
13

>  <NHOHCount>  (56) 
5

>  <NOCount>  (56) 
4

>  <NumAliphaticCarbocycles>  (56) 
0

>  <NumAliphaticHeterocycles>  (56) 
1

>  <NumAliphaticRings>  (56) 
1

>  <NumAromaticCarbocycles>  (56) 
0

>  <NumAromaticHeterocycles>  (56) 
0

>  <NumAromaticRings>  (56) 
0

>  <NumHAcceptors>  (56) 
2

>  <NumHDonors>  (56) 
3

>  <NumHeteroatoms>  (56) 
4

>  <NumRotatableBonds>  (56) 
4

>  <NumSaturatedCarbocycles>  (56) 
0

>  <NumSaturatedHeterocycles>  (56) 
1

>  <NumSaturatedRings>  (56) 
1

>  <RingCount>  (56) 
1

>  <MolLogP>  (56) 
-2.7187

>  <MolMR>  (56) 
49.3346

>  <fr_Al_COO>  (56) 
0

>  <fr_Al_OH>  (56) 
1

>  <fr_Al_OH_noTert>  (56) 
1

>  <fr_ArN>  (56) 
0

>  <fr_Ar_COO>  (56) 
0

>  <fr_Ar_N>  (56) 
0

>  <fr_Ar_NH>  (56) 
0

>  <fr_Ar_OH>  (56) 
0

>  <fr_COO>  (56) 
0

>  <fr_COO2>  (56) 
0

>  <fr_C_O>  (56) 
0

>  <fr_C_O_noCOO>  (56) 
0

>  <fr_C_S>  (56) 
0

>  <fr_HOCCN>  (56) 
0

>  <fr_Imine>  (56) 
0

>  <fr_NH0>  (56) 
0

>  <fr_NH1>  (56) 
1

>  <fr_NH2>  (56) 
0

>  <fr_N_O>  (56) 
0

>  <fr_Ndealkylation1>  (56) 
1

>  <fr_Ndealkylation2>  (56) 
0

>  <fr_Nhpyrrole>  (56) 
0

>  <fr_SH>  (56) 
0

>  <fr_aldehyde>  (56) 
0

>  <fr_alkyl_carbamate>  (56) 
0

>  <fr_alkyl_halide>  (56) 
0

>  <fr_allylic_oxid>  (56) 
0

>  <fr_amide>  (56) 
0

>  <fr_amidine>  (56) 
0

>  <fr_aniline>  (56) 
0

>  <fr_aryl_methyl>  (56) 
0

>  <fr_azide>  (56) 
0

>  <fr_azo>  (56) 
0

>  <fr_barbitur>  (56) 
0

>  <fr_benzene>  (56) 
0

>  <fr_benzodiazepine>  (56) 
0

>  <fr_bicyclic>  (56) 
0

>  <fr_diazo>  (56) 
0

>  <fr_dihydropyridine>  (56) 
0

>  <fr_epoxide>  (56) 
0

>  <fr_ester>  (56) 
0

>  <fr_ether>  (56) 
1

>  <fr_furan>  (56) 
0

>  <fr_guanido>  (56) 
0

>  <fr_halogen>  (56) 
0

>  <fr_hdrzine>  (56) 
0

>  <fr_hdrzone>  (56) 
0

>  <fr_imidazole>  (56) 
0

>  <fr_imide>  (56) 
0

>  <fr_isocyan>  (56) 
0

>  <fr_isothiocyan>  (56) 
0

>  <fr_ketone>  (56) 
0

>  <fr_ketone_Topliss>  (56) 
0

>  <fr_lactam>  (56) 
0

>  <fr_lactone>  (56) 
0

>  <fr_methoxy>  (56) 
0

>  <fr_morpholine>  (56) 
0

>  <fr_nitrile>  (56) 
0

>  <fr_nitro>  (56) 
0

>  <fr_nitro_arom>  (56) 
0

>  <fr_nitro_arom_nonortho>  (56) 
0

>  <fr_nitroso>  (56) 
0

>  <fr_oxazole>  (56) 
0

>  <fr_oxime>  (56) 
0

>  <fr_para_hydroxylation>  (56) 
0

>  <fr_phenol>  (56) 
0

>  <fr_phenol_noOrthoHbond>  (56) 
0

>  <fr_phos_acid>  (56) 
0

>  <fr_phos_ester>  (56) 
0

>  <fr_piperdine>  (56) 
0

>  <fr_piperzine>  (56) 
0

>  <fr_priamide>  (56) 
0

>  <fr_prisulfonamd>  (56) 
0

>  <fr_pyridine>  (56) 
0

>  <fr_quatN>  (56) 
2

>  <fr_sulfide>  (56) 
0

>  <fr_sulfonamd>  (56) 
0

>  <fr_sulfone>  (56) 
0

>  <fr_term_acetylene>  (56) 
0

>  <fr_tetrazole>  (56) 
0

>  <fr_thiazole>  (56) 
0

>  <fr_thiocyan>  (56) 
0

>  <fr_thiophene>  (56) 
0

>  <fr_unbrch_alkane>  (56) 
0

>  <fr_urea>  (56) 
0

>  <NP_Likeness>  (56) 
0.880745

$$$$
F322
     RDKit          3D

  0  0  0  0  0  0  0  0  0  0999 V3000
M  V30 BEGIN CTAB
M  V30 COUNTS 42 43 0 0 0
M  V30 BEGIN ATOM
M  V30 1 O -2.031000 9.528000 -16.842000 0
M  V30 2 O -4.417000 11.933000 -17.733000 0
M  V30 3 N -3.862000 8.935000 -19.571000 0 CHG=1
M  V30 4 N -3.722000 12.827000 -14.640000 0 CFG=1 CHG=1
M  V30 5 C -4.653000 13.819000 -15.207000 0
M  V30 6 C -4.169000 11.375000 -19.088000 0
M  V30 7 C -4.031000 12.550000 -13.202000 0
M  V30 8 C -3.793000 11.503000 -15.324000 0
M  V30 9 C -3.993000 12.836000 -8.085000 0
M  V30 10 C -5.022000 13.445000 -8.706000 0
M  V30 11 C -2.867000 12.509000 -8.779000 0
M  V30 12 C -3.577000 13.696000 -12.272000 0
M  V30 13 C -4.878000 13.704000 -10.052000 0
M  V30 14 C -2.728000 12.792000 -10.101000 0
M  V30 15 C -3.308000 9.989000 -17.314000 0 CFG=1
M  V30 16 C -3.385000 11.436000 -16.833000 0 CFG=1
M  V30 17 C -3.308000 10.112000 -18.875000 0 CFG=1
M  V30 18 C -3.748000 13.392000 -10.769000 0
M  V30 19 H -2.000600 9.594000 -15.844600 0
M  V30 20 H -3.274300 8.142900 -19.405900 0
M  V30 21 H -4.781200 8.745700 -19.225800 0
M  V30 22 H -4.422000 13.982900 -16.166100 0
M  V30 23 H -5.588800 13.472000 -15.144100 0
M  V30 24 H -4.579900 14.675200 -14.695500 0
M  V30 25 H -3.678900 12.038700 -19.653000 0
M  V30 26 H -5.033900 11.135900 -19.529200 0
M  V30 27 H -3.562600 11.709800 -12.928800 0
M  V30 28 H -5.018600 12.428200 -13.103300 0
M  V30 29 H -4.738100 11.183200 -15.256500 0
M  V30 30 H -3.193000 10.877500 -14.825200 0
M  V30 31 H -4.056000 12.623000 -7.110000 0
M  V30 32 H -5.853800 13.698000 -8.211900 0
M  V30 33 H -2.120100 12.046700 -8.301100 0
M  V30 34 H -4.114800 14.510100 -12.491000 0
M  V30 35 H -2.609600 13.878500 -12.447500 0
M  V30 36 H -5.637000 14.142800 -10.533000 0
M  V30 37 H -1.880800 12.560200 -10.579000 0
M  V30 38 H -4.065600 9.431800 -16.974000 0
M  V30 39 H -2.518200 11.909700 -16.988900 0
M  V30 40 H -2.377000 10.283600 -19.197100 0
M  V30 41 H -3.906000 9.118600 -20.553000 0
M  V30 42 H -2.788800 13.179600 -14.710000 0
M  V30 END ATOM
M  V30 BEGIN BOND
M  V30 1 1 1 15
M  V30 2 1 2 6
M  V30 3 1 2 16
M  V30 4 1 3 17
M  V30 5 1 4 5
M  V30 6 1 4 7
M  V30 7 1 4 8
M  V30 8 1 6 17
M  V30 9 1 7 12
M  V30 10 1 8 16
M  V30 11 2 9 10
M  V30 12 1 9 11
M  V30 13 1 10 13
M  V30 14 2 11 14
M  V30 15 1 12 18
M  V30 16 2 13 18
M  V30 17 1 14 18
M  V30 18 1 15 16
M  V30 19 1 15 17
M  V30 20 1 1 19
M  V30 21 1 3 20
M  V30 22 1 3 21
M  V30 23 1 5 22
M  V30 24 1 5 23
M  V30 25 1 5 24
M  V30 26 1 6 25
M  V30 27 1 6 26
M  V30 28 1 7 27
M  V30 29 1 7 28
M  V30 30 1 8 29
M  V30 31 1 8 30
M  V30 32 1 9 31
M  V30 33 1 10 32
M  V30 34 1 11 33
M  V30 35 1 12 34
M  V30 36 1 12 35
M  V30 37 1 13 36
M  V30 38 1 14 37
M  V30 39 1 15 38 CFG=3
M  V30 40 1 16 39 CFG=1
M  V30 41 1 17 40 CFG=3
M  V30 42 1 3 41
M  V30 43 1 4 42 CFG=1
M  V30 END BOND
M  V30 END CTAB
M  END
>  <Ligand_Instance>  (57) 
322_A_501

>  <Dataset>  (57) 
CF

>  <PDB_ID>  (57) 
None

>  <Chain>  (57) 
A

>  <Resi>  (57) 
501

>  <Num_Resolved_Atoms>  (57) 
18

>  <Num_H_Atoms_ProtBoundConf>  (57) 
24

>  <Pocket>  (57) 
X

>  <Name>  (57) 
(2S,3R,4S)‐4‐amino‐2‐{[methyl(2‐phenylethyl)amino]methyl}oxolan‐3‐ol

>  <Num_Not_Resolved_Atoms>  (57) 
0

>  <ATP_Site>  (57) 
False

>  <Peripheral>  (57) 
True

>  <Standardized_SMILES>  (57) 
[H]O[C@@]1([H])[C@]([H])(C([H])([H])[N@@+]([H])(C([H])([H])[H])C([H])([H])C([H])([H])C2=C([H])C([H])=C([H])C([H])=C2[H])OC([H])([H])[C@]1([H])[N+]([H])([H])[H]

>  <2D_Mol_H>  (57) 
<rdkit.Chem.rdchem.Mol object at 0x77059d9da0a0>

>  <MW>  (57) 
252.358

>  <HBA>  (57) 
2

>  <HBD>  (57) 
3

>  <LogP>  (57) 
-1.886

>  <NRB>  (57) 
8

>  <TPSA>  (57) 
61.54

>  <Num_Heavy_Atoms>  (57) 
18

>  <Ro5>  (57) 
[True, True, True, True, True, True]

>  <Ro5_Fulfilled>  (57) 
True

>  <Ro3>  (57) 
[True, True, True, True]

>  <Ro3_Fulfilled>  (57) 
True

>  <Fsp3>  (57) 
0.571429

>  <Fsp3_0.42>  (57) 
True

>  <Fsp3_0.45>  (57) 
True

>  <Stereogenic_Carbons>  (57) 
3

>  <C_Atoms>  (57) 
14

>  <FCStereo>  (57) 
0.214286

>  <SPS>  (57) 
529

>  <nSPS>  (57) 
29.388889

>  <PBF>  (57) 
0.730646

>  <PBF_0.6>  (57) 
True

>  <nPBF>  (57) 
0.040591

>  <nPBF_0.016>  (57) 
True

>  <PMI1>  (57) 
422.297246

>  <PMI2>  (57) 
4063.662175

>  <PMI3>  (57) 
4305.552459

>  <NPR1>  (57) 
0.098082

>  <NPR2>  (57) 
0.943819

>  <Sum_NPR>  (57) 
1.041901

>  <Sum_NPR_1.07>  (57) 
False

>  <Sum_NPR_1.2>  (57) 
False

>  <MaxAbsEStateIndex>  (57) 
9.890766

>  <MaxEStateIndex>  (57) 
9.890766

>  <MinAbsEStateIndex>  (57) 
0.024929

>  <MinEStateIndex>  (57) 
-0.405856

>  <qed>  (57) 
0.573972

>  <MolWt>  (57) 
252.358

>  <HeavyAtomMolWt>  (57) 
228.166

>  <ExactMolWt>  (57) 
252.182681

>  <NumValenceElectrons>  (57) 
100

>  <NumRadicalElectrons>  (57) 
0

>  <MaxPartialCharge>  (57) 
0.139354

>  <MinPartialCharge>  (57) 
-0.38383

>  <MaxAbsPartialCharge>  (57) 
0.38383

>  <MinAbsPartialCharge>  (57) 
0.139354

>  <FpDensityMorgan1>  (57) 
1.388889

>  <FpDensityMorgan2>  (57) 
2.111111

>  <FpDensityMorgan3>  (57) 
2.722222

>  <BCUT2D_MWHI>  (57) 
16.512713

>  <BCUT2D_MWLOW>  (57) 
10.099599

>  <BCUT2D_CHGHI>  (57) 
2.375368

>  <BCUT2D_CHGLO>  (57) 
-2.193561

>  <BCUT2D_LOGPHI>  (57) 
2.089697

>  <BCUT2D_LOGPLOW>  (57) 
-3.102884

>  <BCUT2D_MRHI>  (57) 
5.1395

>  <BCUT2D_MRLOW>  (57) 
-0.882542

>  <AvgIpc>  (57) 
2.696035

>  <BalabanJ>  (57) 
1.73944

>  <BertzCT>  (57) 
358.071441

>  <Chi0>  (57) 
12.957819

>  <Chi0n>  (57) 
11.009798

>  <Chi0v>  (57) 
11.009798

>  <Chi1>  (57) 
8.664704

>  <Chi1n>  (57) 
6.645332

>  <Chi1v>  (57) 
6.645332

>  <Chi2n>  (57) 
5.269287

>  <Chi2v>  (57) 
5.269287

>  <Chi3n>  (57) 
3.621202

>  <Chi3v>  (57) 
3.621202

>  <Chi4n>  (57) 
2.375513

>  <Chi4v>  (57) 
2.375513

>  <HallKierAlpha>  (57) 
-0.94

>  <Ipc>  (57) 
16068.370901

>  <Kappa1>  (57) 
13.490704

>  <Kappa2>  (57) 
6.292225

>  <Kappa3>  (57) 
3.525367

>  <LabuteASA>  (57) 
108.352612

>  <PEOE_VSA1>  (57) 
20.476968

>  <PEOE_VSA10>  (57) 
31.401412

>  <PEOE_VSA11>  (57) 
0.0

>  <PEOE_VSA12>  (57) 
0.0

>  <PEOE_VSA13>  (57) 
0.0

>  <PEOE_VSA14>  (57) 
0.0

>  <PEOE_VSA2>  (57) 
0.0

>  <PEOE_VSA3>  (57) 
0.0

>  <PEOE_VSA4>  (57) 
0.0

>  <PEOE_VSA5>  (57) 
0.0

>  <PEOE_VSA6>  (57) 
30.331835

>  <PEOE_VSA7>  (57) 
5.563451

>  <PEOE_VSA8>  (57) 
6.420822

>  <PEOE_VSA9>  (57) 
13.592428

>  <SMR_VSA1>  (57) 
20.476968

>  <SMR_VSA10>  (57) 
0.0

>  <SMR_VSA2>  (57) 
0.0

>  <SMR_VSA3>  (57) 
0.0

>  <SMR_VSA4>  (57) 
0.0

>  <SMR_VSA5>  (57) 
24.670595

>  <SMR_VSA6>  (57) 
26.744067

>  <SMR_VSA7>  (57) 
35.895287

>  <SMR_VSA8>  (57) 
0.0

>  <SMR_VSA9>  (57) 
0.0

>  <SlogP_VSA1>  (57) 
10.633577

>  <SlogP_VSA10>  (57) 
0.0

>  <SlogP_VSA11>  (57) 
0.0

>  <SlogP_VSA12>  (57) 
0.0

>  <SlogP_VSA2>  (57) 
50.100368

>  <SlogP_VSA3>  (57) 
11.157685

>  <SlogP_VSA4>  (57) 
0.0

>  <SlogP_VSA5>  (57) 
5.563451

>  <SlogP_VSA6>  (57) 
30.331835

>  <SlogP_VSA7>  (57) 
0.0

>  <SlogP_VSA8>  (57) 
0.0

>  <SlogP_VSA9>  (57) 
0.0

>  <EState_VSA1>  (57) 
6.103966

>  <EState_VSA10>  (57) 
5.106527

>  <EState_VSA11>  (57) 
0.0

>  <EState_VSA2>  (57) 
12.145807

>  <EState_VSA3>  (57) 
6.606882

>  <EState_VSA4>  (57) 
19.510334

>  <EState_VSA5>  (57) 
10.463361

>  <EState_VSA6>  (57) 
0.0

>  <EState_VSA7>  (57) 
6.066367

>  <EState_VSA8>  (57) 
37.046808

>  <EState_VSA9>  (57) 
4.736863

>  <VSA_EState1>  (57) 
5.566836

>  <VSA_EState10>  (57) 
0.0

>  <VSA_EState2>  (57) 
1.386114

>  <VSA_EState3>  (57) 
9.890766

>  <VSA_EState4>  (57) 
5.246266

>  <VSA_EState5>  (57) 
0.0

>  <VSA_EState6>  (57) 
10.512298

>  <VSA_EState7>  (57) 
0.600441

>  <VSA_EState8>  (57) 
2.482363

>  <VSA_EState9>  (57) 
2.148249

>  <FractionCSP3>  (57) 
0.571429

>  <HeavyAtomCount>  (57) 
18

>  <NHOHCount>  (57) 
5

>  <NOCount>  (57) 
4

>  <NumAliphaticCarbocycles>  (57) 
0

>  <NumAliphaticHeterocycles>  (57) 
1

>  <NumAliphaticRings>  (57) 
1

>  <NumAromaticCarbocycles>  (57) 
1

>  <NumAromaticHeterocycles>  (57) 
0

>  <NumAromaticRings>  (57) 
1

>  <NumHAcceptors>  (57) 
2

>  <NumHDonors>  (57) 
3

>  <NumHeteroatoms>  (57) 
4

>  <NumRotatableBonds>  (57) 
5

>  <NumSaturatedCarbocycles>  (57) 
0

>  <NumSaturatedHeterocycles>  (57) 
1

>  <NumSaturatedRings>  (57) 
1

>  <RingCount>  (57) 
2

>  <MolLogP>  (57) 
-1.886

>  <MolMR>  (57) 
69.1896

>  <fr_Al_COO>  (57) 
0

>  <fr_Al_OH>  (57) 
1

>  <fr_Al_OH_noTert>  (57) 
1

>  <fr_ArN>  (57) 
0

>  <fr_Ar_COO>  (57) 
0

>  <fr_Ar_N>  (57) 
0

>  <fr_Ar_NH>  (57) 
0

>  <fr_Ar_OH>  (57) 
0

>  <fr_COO>  (57) 
0

>  <fr_COO2>  (57) 
0

>  <fr_C_O>  (57) 
0

>  <fr_C_O_noCOO>  (57) 
0

>  <fr_C_S>  (57) 
0

>  <fr_HOCCN>  (57) 
0

>  <fr_Imine>  (57) 
0

>  <fr_NH0>  (57) 
0

>  <fr_NH1>  (57) 
1

>  <fr_NH2>  (57) 
0

>  <fr_N_O>  (57) 
0

>  <fr_Ndealkylation1>  (57) 
1

>  <fr_Ndealkylation2>  (57) 
0

>  <fr_Nhpyrrole>  (57) 
0

>  <fr_SH>  (57) 
0

>  <fr_aldehyde>  (57) 
0

>  <fr_alkyl_carbamate>  (57) 
0

>  <fr_alkyl_halide>  (57) 
0

>  <fr_allylic_oxid>  (57) 
0

>  <fr_amide>  (57) 
0

>  <fr_amidine>  (57) 
0

>  <fr_aniline>  (57) 
0

>  <fr_aryl_methyl>  (57) 
0

>  <fr_azide>  (57) 
0

>  <fr_azo>  (57) 
0

>  <fr_barbitur>  (57) 
0

>  <fr_benzene>  (57) 
1

>  <fr_benzodiazepine>  (57) 
0

>  <fr_bicyclic>  (57) 
0

>  <fr_diazo>  (57) 
0

>  <fr_dihydropyridine>  (57) 
0

>  <fr_epoxide>  (57) 
0

>  <fr_ester>  (57) 
0

>  <fr_ether>  (57) 
1

>  <fr_furan>  (57) 
0

>  <fr_guanido>  (57) 
0

>  <fr_halogen>  (57) 
0

>  <fr_hdrzine>  (57) 
0

>  <fr_hdrzone>  (57) 
0

>  <fr_imidazole>  (57) 
0

>  <fr_imide>  (57) 
0

>  <fr_isocyan>  (57) 
0

>  <fr_isothiocyan>  (57) 
0

>  <fr_ketone>  (57) 
0

>  <fr_ketone_Topliss>  (57) 
0

>  <fr_lactam>  (57) 
0

>  <fr_lactone>  (57) 
0

>  <fr_methoxy>  (57) 
0

>  <fr_morpholine>  (57) 
0

>  <fr_nitrile>  (57) 
0

>  <fr_nitro>  (57) 
0

>  <fr_nitro_arom>  (57) 
0

>  <fr_nitro_arom_nonortho>  (57) 
0

>  <fr_nitroso>  (57) 
0

>  <fr_oxazole>  (57) 
0

>  <fr_oxime>  (57) 
0

>  <fr_para_hydroxylation>  (57) 
0

>  <fr_phenol>  (57) 
0

>  <fr_phenol_noOrthoHbond>  (57) 
0

>  <fr_phos_acid>  (57) 
0

>  <fr_phos_ester>  (57) 
0

>  <fr_piperdine>  (57) 
0

>  <fr_piperzine>  (57) 
0

>  <fr_priamide>  (57) 
0

>  <fr_prisulfonamd>  (57) 
0

>  <fr_pyridine>  (57) 
0

>  <fr_quatN>  (57) 
2

>  <fr_sulfide>  (57) 
0

>  <fr_sulfonamd>  (57) 
0

>  <fr_sulfone>  (57) 
0

>  <fr_term_acetylene>  (57) 
0

>  <fr_tetrazole>  (57) 
0

>  <fr_thiazole>  (57) 
0

>  <fr_thiocyan>  (57) 
0

>  <fr_thiophene>  (57) 
0

>  <fr_unbrch_alkane>  (57) 
0

>  <fr_urea>  (57) 
0

>  <NP_Likeness>  (57) 
0.562235

$$$$
