0RW
     RDKit          3D

  0  0  0  0  0  0  0  0  0  0999 V3000
M  V30 BEGIN CTAB
M  V30 COUNTS 18 19 0 0 0
M  V30 BEGIN ATOM
M  V30 1 N 2.856000 9.936000 3.768000 0
M  V30 2 N 2.910000 9.900000 2.426000 0
M  V30 3 C 4.384000 10.042000 5.769000 0
M  V30 4 C 6.194000 9.959000 0.616000 0
M  V30 5 C 6.980000 10.008000 1.776000 0
M  V30 6 C 4.798000 9.918000 0.715000 0
M  V30 7 C 6.372000 10.021000 3.046000 0
M  V30 8 C 4.084000 9.989000 4.289000 0
M  V30 9 C 4.206000 9.930000 1.954000 0
M  V30 10 C 4.998000 9.982000 3.154000 0
M  V30 11 H 2.103200 9.856400 1.836800 0
M  V30 12 H 5.373800 10.076400 5.907500 0
M  V30 13 H 3.963400 10.858100 6.165300 0
M  V30 14 H 4.013300 9.226600 6.213700 0
M  V30 15 H 6.631100 9.953300 -0.283400 0
M  V30 16 H 7.976900 10.033800 1.701100 0
M  V30 17 H 4.235700 9.880200 -0.111100 0
M  V30 18 H 6.937100 10.058500 3.870200 0
M  V30 END ATOM
M  V30 BEGIN BOND
M  V30 1 1 1 2
M  V30 2 2 1 8
M  V30 3 1 2 9
M  V30 4 1 3 8
M  V30 5 2 4 5
M  V30 6 1 4 6
M  V30 7 1 5 7
M  V30 8 2 6 9
M  V30 9 2 7 10
M  V30 10 1 8 10
M  V30 11 1 9 10
M  V30 12 1 2 11
M  V30 13 1 3 12
M  V30 14 1 3 13
M  V30 15 1 3 14
M  V30 16 1 4 15
M  V30 17 1 5 16
M  V30 18 1 6 17
M  V30 19 1 7 18
M  V30 END BOND
M  V30 END CTAB
M  END
>  <Ligand_Instance>  (1) 
4YXR_0RW_A_401

>  <Dataset>  (1) 
PDB

>  <PDB_ID>  (1) 
4YXR

>  <Chain>  (1) 
A

>  <Resi>  (1) 
401

>  <Num_Resolved_Atoms>  (1) 
10

>  <Num_H_Atoms_ProtBoundConf>  (1) 
8

>  <Pocket>  (1) 
A

>  <Name>  (1) 
3-methyl-2H-indazole

>  <Num_Not_Resolved_Atoms>  (1) 
0

>  <ATP_Site>  (1) 
True

>  <Peripheral>  (1) 
False

>  <Standardized_SMILES>  (1) 
[H]C1=C([H])C([H])=C2C(=C1[H])C(C([H])([H])[H])=NN2[H]

>  <2D_Mol_H>  (1) 
<rdkit.Chem.rdchem.Mol object at 0x77059d9da180>

>  <MW>  (1) 
132.166

>  <HBA>  (1) 
1

>  <HBD>  (1) 
1

>  <LogP>  (1) 
1.87132

>  <NRB>  (1) 
1

>  <TPSA>  (1) 
28.68

>  <Num_Heavy_Atoms>  (1) 
10

>  <Ro5>  (1) 
[True, True, True, True, True, True]

>  <Ro5_Fulfilled>  (1) 
True

>  <Ro3>  (1) 
[True, True, True, True]

>  <Ro3_Fulfilled>  (1) 
True

>  <Fsp3>  (1) 
0.125

>  <Fsp3_0.42>  (1) 
False

>  <Fsp3_0.45>  (1) 
False

>  <Stereogenic_Carbons>  (1) 
0

>  <C_Atoms>  (1) 
8

>  <FCStereo>  (1) 
0.0

>  <SPS>  (1) 
105

>  <nSPS>  (1) 
10.5

>  <PBF>  (1) 
0.094313

>  <PBF_0.6>  (1) 
False

>  <nPBF>  (1) 
0.009431

>  <nPBF_0.016>  (1) 
False

>  <PMI1>  (1) 
185.349885

>  <PMI2>  (1) 
405.542203

>  <PMI3>  (1) 
588.201175

>  <NPR1>  (1) 
0.315113

>  <NPR2>  (1) 
0.689462

>  <Sum_NPR>  (1) 
1.004575

>  <Sum_NPR_1.07>  (1) 
False

>  <Sum_NPR_1.2>  (1) 
False

>  <MaxAbsEStateIndex>  (1) 
4.070741

>  <MaxEStateIndex>  (1) 
4.070741

>  <MinAbsEStateIndex>  (1) 
1.06537

>  <MinEStateIndex>  (1) 
1.06537

>  <qed>  (1) 
0.582039

>  <MolWt>  (1) 
132.166

>  <HeavyAtomMolWt>  (1) 
124.102

>  <ExactMolWt>  (1) 
132.068748

>  <NumValenceElectrons>  (1) 
50

>  <NumRadicalElectrons>  (1) 
0

>  <MaxPartialCharge>  (1) 
0.066945

>  <MinPartialCharge>  (1) 
-0.277564

>  <MaxAbsPartialCharge>  (1) 
0.277564

>  <MinAbsPartialCharge>  (1) 
0.066945

>  <FpDensityMorgan1>  (1) 
1.3

>  <FpDensityMorgan2>  (1) 
2.1

>  <FpDensityMorgan3>  (1) 
2.9

>  <BCUT2D_MWHI>  (1) 
15.109128

>  <BCUT2D_MWLOW>  (1) 
10.205736

>  <BCUT2D_CHGHI>  (1) 
1.956765

>  <BCUT2D_CHGLO>  (1) 
-1.841131

>  <BCUT2D_LOGPHI>  (1) 
2.122136

>  <BCUT2D_LOGPLOW>  (1) 
-1.670321

>  <BCUT2D_MRHI>  (1) 
5.801623

>  <BCUT2D_MRLOW>  (1) 
1.067923

>  <AvgIpc>  (1) 
2.340585

>  <BalabanJ>  (1) 
2.931346

>  <BertzCT>  (1) 
348.785078

>  <Chi0>  (1) 
6.974691

>  <Chi0n>  (1) 
5.756615

>  <Chi0v>  (1) 
5.756615

>  <Chi1>  (1) 
4.87701

>  <Chi1n>  (1) 
3.274564

>  <Chi1v>  (1) 
3.274564

>  <Chi2n>  (1) 
2.354601

>  <Chi2v>  (1) 
2.354601

>  <Chi3n>  (1) 
1.660913

>  <Chi3v>  (1) 
1.660913

>  <Chi4n>  (1) 
1.100413

>  <Chi4v>  (1) 
1.100413

>  <HallKierAlpha>  (1) 
-1.31

>  <Ipc>  (1) 
367.471828

>  <Kappa1>  (1) 
5.472993

>  <Kappa2>  (1) 
1.836419

>  <Kappa3>  (1) 
0.620058

>  <LabuteASA>  (1) 
58.875272

>  <PEOE_VSA1>  (1) 
0.0

>  <PEOE_VSA10>  (1) 
0.0

>  <PEOE_VSA11>  (1) 
0.0

>  <PEOE_VSA12>  (1) 
0.0

>  <PEOE_VSA13>  (1) 
0.0

>  <PEOE_VSA14>  (1) 
0.0

>  <PEOE_VSA2>  (1) 
5.098682

>  <PEOE_VSA3>  (1) 
0.0

>  <PEOE_VSA4>  (1) 
5.098682

>  <PEOE_VSA5>  (1) 
0.0

>  <PEOE_VSA6>  (1) 
18.199101

>  <PEOE_VSA7>  (1) 
12.990104

>  <PEOE_VSA8>  (1) 
5.386224

>  <PEOE_VSA9>  (1) 
11.210629

>  <SMR_VSA1>  (1) 
0.0

>  <SMR_VSA10>  (1) 
10.902925

>  <SMR_VSA2>  (1) 
0.0

>  <SMR_VSA3>  (1) 
10.197364

>  <SMR_VSA4>  (1) 
0.0

>  <SMR_VSA5>  (1) 
6.923737

>  <SMR_VSA6>  (1) 
0.0

>  <SMR_VSA7>  (1) 
29.959396

>  <SMR_VSA8>  (1) 
0.0

>  <SMR_VSA9>  (1) 
0.0

>  <SlogP_VSA1>  (1) 
0.0

>  <SlogP_VSA10>  (1) 
0.0

>  <SlogP_VSA11>  (1) 
0.0

>  <SlogP_VSA12>  (1) 
0.0

>  <SlogP_VSA2>  (1) 
10.197364

>  <SlogP_VSA3>  (1) 
0.0

>  <SlogP_VSA4>  (1) 
6.923737

>  <SlogP_VSA5>  (1) 
5.693928

>  <SlogP_VSA6>  (1) 
24.265468

>  <SlogP_VSA7>  (1) 
0.0

>  <SlogP_VSA8>  (1) 
10.902925

>  <SlogP_VSA9>  (1) 
0.0

>  <EState_VSA1>  (1) 
0.0

>  <EState_VSA10>  (1) 
0.0

>  <EState_VSA11>  (1) 
0.0

>  <EState_VSA2>  (1) 
0.0

>  <EState_VSA3>  (1) 
0.0

>  <EState_VSA4>  (1) 
11.210629

>  <EState_VSA5>  (1) 
5.386224

>  <EState_VSA6>  (1) 
0.0

>  <EState_VSA7>  (1) 
25.122838

>  <EState_VSA8>  (1) 
16.263731

>  <EState_VSA9>  (1) 
0.0

>  <VSA_EState1>  (1) 
0.0

>  <VSA_EState10>  (1) 
0.0

>  <VSA_EState2>  (1) 
0.0

>  <VSA_EState3>  (1) 
8.219213

>  <VSA_EState4>  (1) 
2.176481

>  <VSA_EState5>  (1) 
0.0

>  <VSA_EState6>  (1) 
8.105463

>  <VSA_EState7>  (1) 
0.0

>  <VSA_EState8>  (1) 
1.998843

>  <VSA_EState9>  (1) 
0.0

>  <FractionCSP3>  (1) 
0.125

>  <HeavyAtomCount>  (1) 
10

>  <NHOHCount>  (1) 
1

>  <NOCount>  (1) 
2

>  <NumAliphaticCarbocycles>  (1) 
0

>  <NumAliphaticHeterocycles>  (1) 
0

>  <NumAliphaticRings>  (1) 
0

>  <NumAromaticCarbocycles>  (1) 
1

>  <NumAromaticHeterocycles>  (1) 
1

>  <NumAromaticRings>  (1) 
2

>  <NumHAcceptors>  (1) 
1

>  <NumHDonors>  (1) 
1

>  <NumHeteroatoms>  (1) 
2

>  <NumRotatableBonds>  (1) 
0

>  <NumSaturatedCarbocycles>  (1) 
0

>  <NumSaturatedHeterocycles>  (1) 
0

>  <NumSaturatedRings>  (1) 
0

>  <RingCount>  (1) 
2

>  <MolLogP>  (1) 
1.87132

>  <MolMR>  (1) 
40.8307

>  <fr_Al_COO>  (1) 
0

>  <fr_Al_OH>  (1) 
0

>  <fr_Al_OH_noTert>  (1) 
0

>  <fr_ArN>  (1) 
0

>  <fr_Ar_COO>  (1) 
0

>  <fr_Ar_N>  (1) 
2

>  <fr_Ar_NH>  (1) 
1

>  <fr_Ar_OH>  (1) 
0

>  <fr_COO>  (1) 
0

>  <fr_COO2>  (1) 
0

>  <fr_C_O>  (1) 
0

>  <fr_C_O_noCOO>  (1) 
0

>  <fr_C_S>  (1) 
0

>  <fr_HOCCN>  (1) 
0

>  <fr_Imine>  (1) 
0

>  <fr_NH0>  (1) 
1

>  <fr_NH1>  (1) 
1

>  <fr_NH2>  (1) 
0

>  <fr_N_O>  (1) 
0

>  <fr_Ndealkylation1>  (1) 
0

>  <fr_Ndealkylation2>  (1) 
0

>  <fr_Nhpyrrole>  (1) 
1

>  <fr_SH>  (1) 
0

>  <fr_aldehyde>  (1) 
0

>  <fr_alkyl_carbamate>  (1) 
0

>  <fr_alkyl_halide>  (1) 
0

>  <fr_allylic_oxid>  (1) 
0

>  <fr_amide>  (1) 
0

>  <fr_amidine>  (1) 
0

>  <fr_aniline>  (1) 
0

>  <fr_aryl_methyl>  (1) 
1

>  <fr_azide>  (1) 
0

>  <fr_azo>  (1) 
0

>  <fr_barbitur>  (1) 
0

>  <fr_benzene>  (1) 
1

>  <fr_benzodiazepine>  (1) 
0

>  <fr_bicyclic>  (1) 
1

>  <fr_diazo>  (1) 
0

>  <fr_dihydropyridine>  (1) 
0

>  <fr_epoxide>  (1) 
0

>  <fr_ester>  (1) 
0

>  <fr_ether>  (1) 
0

>  <fr_furan>  (1) 
0

>  <fr_guanido>  (1) 
0

>  <fr_halogen>  (1) 
0

>  <fr_hdrzine>  (1) 
0

>  <fr_hdrzone>  (1) 
0

>  <fr_imidazole>  (1) 
0

>  <fr_imide>  (1) 
0

>  <fr_isocyan>  (1) 
0

>  <fr_isothiocyan>  (1) 
0

>  <fr_ketone>  (1) 
0

>  <fr_ketone_Topliss>  (1) 
0

>  <fr_lactam>  (1) 
0

>  <fr_lactone>  (1) 
0

>  <fr_methoxy>  (1) 
0

>  <fr_morpholine>  (1) 
0

>  <fr_nitrile>  (1) 
0

>  <fr_nitro>  (1) 
0

>  <fr_nitro_arom>  (1) 
0

>  <fr_nitro_arom_nonortho>  (1) 
0

>  <fr_nitroso>  (1) 
0

>  <fr_oxazole>  (1) 
0

>  <fr_oxime>  (1) 
0

>  <fr_para_hydroxylation>  (1) 
1

>  <fr_phenol>  (1) 
0

>  <fr_phenol_noOrthoHbond>  (1) 
0

>  <fr_phos_acid>  (1) 
0

>  <fr_phos_ester>  (1) 
0

>  <fr_piperdine>  (1) 
0

>  <fr_piperzine>  (1) 
0

>  <fr_priamide>  (1) 
0

>  <fr_prisulfonamd>  (1) 
0

>  <fr_pyridine>  (1) 
0

>  <fr_quatN>  (1) 
0

>  <fr_sulfide>  (1) 
0

>  <fr_sulfonamd>  (1) 
0

>  <fr_sulfone>  (1) 
0

>  <fr_term_acetylene>  (1) 
0

>  <fr_tetrazole>  (1) 
0

>  <fr_thiazole>  (1) 
0

>  <fr_thiocyan>  (1) 
0

>  <fr_thiophene>  (1) 
0

>  <fr_unbrch_alkane>  (1) 
0

>  <fr_urea>  (1) 
0

>  <NP_Likeness>  (1) 
-1.430583

$$$$
152
     RDKit          3D

  0  0  0  0  0  0  0  0  0  0999 V3000
M  V30 BEGIN CTAB
M  V30 COUNTS 26 25 0 0 0
M  V30 BEGIN ATOM
M  V30 1 O 1.953000 -1.497000 -30.715000 0
M  V30 2 O 1.067000 0.449000 -30.186000 0 CHG=-1
M  V30 3 O 4.160000 -2.326000 -29.357000 0
M  V30 4 N 6.404000 -0.668000 -30.919000 0 CHG=1
M  V30 5 C 6.789000 -2.108000 -30.783000 0
M  V30 6 C 7.214000 0.154000 -29.970000 0
M  V30 7 C 6.721000 -0.238000 -32.308000 0
M  V30 8 C 4.914000 -0.480000 -30.697000 0
M  V30 9 C 3.048000 -0.200000 -29.039000 0
M  V30 10 C 1.948000 -0.432000 -30.071000 0
M  V30 11 C 4.372000 -0.912000 -29.304000 0 CFG=1
M  V30 12 H 3.228000 -2.511900 -29.668200 0
M  V30 13 H 6.247500 -2.659200 -31.417800 0
M  V30 14 H 7.760600 -2.214600 -30.994200 0
M  V30 15 H 6.616100 -2.412200 -29.846200 0
M  V30 16 H 6.957600 1.116400 -30.060000 0
M  V30 17 H 7.041000 -0.150900 -29.033500 0
M  V30 18 H 8.185500 0.046700 -30.181400 0
M  V30 19 H 6.472100 0.723500 -32.424300 0
M  V30 20 H 7.700100 -0.351600 -32.476900 0
M  V30 21 H 6.203900 -0.796900 -32.956200 0
M  V30 22 H 4.431500 -1.013300 -31.391800 0
M  V30 23 H 4.706700 0.490700 -30.818300 0
M  V30 24 H 2.705900 -0.509500 -28.151800 0
M  V30 25 H 3.230600 0.782500 -29.001500 0
M  V30 26 H 5.034900 -0.687700 -28.589700 0
M  V30 END ATOM
M  V30 BEGIN BOND
M  V30 1 2 1 10
M  V30 2 1 2 10
M  V30 3 1 3 11
M  V30 4 1 4 5
M  V30 5 1 4 6
M  V30 6 1 4 7
M  V30 7 1 4 8
M  V30 8 1 8 11
M  V30 9 1 9 10
M  V30 10 1 9 11
M  V30 11 1 11 26 CFG=1
M  V30 12 1 3 12
M  V30 13 1 5 13
M  V30 14 1 5 14
M  V30 15 1 5 15
M  V30 16 1 6 16
M  V30 17 1 6 17
M  V30 18 1 6 18
M  V30 19 1 7 19
M  V30 20 1 7 20
M  V30 21 1 7 21
M  V30 22 1 8 22
M  V30 23 1 8 23
M  V30 24 1 9 24
M  V30 25 1 9 25
M  V30 END BOND
M  V30 END CTAB
M  END
>  <Ligand_Instance>  (2) 
5N3N_152_A_403

>  <Dataset>  (2) 
PDB

>  <PDB_ID>  (2) 
5N3N

>  <Chain>  (2) 
A

>  <Resi>  (2) 
403

>  <Num_Resolved_Atoms>  (2) 
11

>  <Num_H_Atoms_ProtBoundConf>  (2) 
15

>  <Pocket>  (2) 
X

>  <Name>  (2) 
CARNITINE

>  <Num_Not_Resolved_Atoms>  (2) 
0

>  <ATP_Site>  (2) 
False

>  <Peripheral>  (2) 
True

>  <Standardized_SMILES>  (2) 
[H]O[C@]([H])(C([H])([H])C(=O)[O-])C([H])([H])[N+](C([H])([H])[H])(C([H])([H])[H])C([H])([H])[H]

>  <2D_Mol_H>  (2) 
<rdkit.Chem.rdchem.Mol object at 0x77059d9da260>

>  <MW>  (2) 
161.201

>  <HBA>  (2) 
3

>  <HBD>  (2) 
1

>  <LogP>  (2) 
-1.8065

>  <NRB>  (2) 
8

>  <TPSA>  (2) 
60.36

>  <Num_Heavy_Atoms>  (2) 
11

>  <Ro5>  (2) 
[True, True, True, True, True, True]

>  <Ro5_Fulfilled>  (2) 
True

>  <Ro3>  (2) 
[True, True, True, True]

>  <Ro3_Fulfilled>  (2) 
True

>  <Fsp3>  (2) 
0.857143

>  <Fsp3_0.42>  (2) 
True

>  <Fsp3_0.45>  (2) 
True

>  <Stereogenic_Carbons>  (2) 
1

>  <C_Atoms>  (2) 
7

>  <FCStereo>  (2) 
0.142857

>  <SPS>  (2) 
160

>  <nSPS>  (2) 
14.545455

>  <PBF>  (2) 
0.915261

>  <PBF_0.6>  (2) 
True

>  <nPBF>  (2) 
0.083206

>  <nPBF_0.016>  (2) 
True

>  <PMI1>  (2) 
250.172153

>  <PMI2>  (2) 
859.385071

>  <PMI3>  (2) 
899.105696

>  <NPR1>  (2) 
0.278246

>  <NPR2>  (2) 
0.955822

>  <Sum_NPR>  (2) 
1.234068

>  <Sum_NPR_1.07>  (2) 
True

>  <Sum_NPR_1.2>  (2) 
True

>  <MaxAbsEStateIndex>  (2) 
10.017511

>  <MaxEStateIndex>  (2) 
10.017511

>  <MinAbsEStateIndex>  (2) 
0.282222

>  <MinEStateIndex>  (2) 
-1.202824

>  <qed>  (2) 
0.494486

>  <MolWt>  (2) 
161.201

>  <HeavyAtomMolWt>  (2) 
146.081

>  <ExactMolWt>  (2) 
161.105193

>  <NumValenceElectrons>  (2) 
66

>  <NumRadicalElectrons>  (2) 
0

>  <MaxPartialCharge>  (2) 
0.108046

>  <MinPartialCharge>  (2) 
-0.550064

>  <MaxAbsPartialCharge>  (2) 
0.550064

>  <MinAbsPartialCharge>  (2) 
0.108046

>  <FpDensityMorgan1>  (2) 
1.545455

>  <FpDensityMorgan2>  (2) 
2.0

>  <FpDensityMorgan3>  (2) 
2.272727

>  <BCUT2D_MWHI>  (2) 
16.368572

>  <BCUT2D_MWLOW>  (2) 
10.214394

>  <BCUT2D_CHGHI>  (2) 
2.143201

>  <BCUT2D_CHGLO>  (2) 
-2.262512

>  <BCUT2D_LOGPHI>  (2) 
1.972156

>  <BCUT2D_LOGPLOW>  (2) 
-2.428755

>  <BCUT2D_MRHI>  (2) 
5.642884

>  <BCUT2D_MRLOW>  (2) 
-0.873101

>  <AvgIpc>  (2) 
1.534524

>  <BalabanJ>  (2) 
3.694259

>  <BertzCT>  (2) 
139.111337

>  <Chi0>  (2) 
9.068914

>  <Chi0n>  (2) 
7.202488

>  <Chi0v>  (2) 
7.202488

>  <Chi1>  (2) 
4.810349

>  <Chi1n>  (2) 
3.494366

>  <Chi1v>  (2) 
3.494366

>  <Chi2n>  (2) 
3.702854

>  <Chi2v>  (2) 
3.702854

>  <Chi3n>  (2) 
1.160763

>  <Chi3v>  (2) 
1.160763

>  <Chi4n>  (2) 
0.889184

>  <Chi4v>  (2) 
0.889184

>  <HallKierAlpha>  (2) 
-0.61

>  <Ipc>  (2) 
108.95123

>  <Kappa1>  (2) 
10.39

>  <Kappa2>  (2) 
3.68662

>  <Kappa3>  (2) 
7.285017

>  <LabuteASA>  (2) 
66.648698

>  <PEOE_VSA1>  (2) 
19.490623

>  <PEOE_VSA10>  (2) 
12.648723

>  <PEOE_VSA11>  (2) 
0.0

>  <PEOE_VSA12>  (2) 
0.0

>  <PEOE_VSA13>  (2) 
0.0

>  <PEOE_VSA14>  (2) 
0.0

>  <PEOE_VSA2>  (2) 
0.0

>  <PEOE_VSA3>  (2) 
0.0

>  <PEOE_VSA4>  (2) 
0.0

>  <PEOE_VSA5>  (2) 
0.0

>  <PEOE_VSA6>  (2) 
0.0

>  <PEOE_VSA7>  (2) 
0.0

>  <PEOE_VSA8>  (2) 
12.390127

>  <PEOE_VSA9>  (2) 
21.143016

>  <SMR_VSA1>  (2) 
19.490623

>  <SMR_VSA10>  (2) 
5.969305

>  <SMR_VSA2>  (2) 
0.0

>  <SMR_VSA3>  (2) 
0.0

>  <SMR_VSA4>  (2) 
0.0

>  <SMR_VSA5>  (2) 
12.524788

>  <SMR_VSA6>  (2) 
27.687772

>  <SMR_VSA7>  (2) 
0.0

>  <SMR_VSA8>  (2) 
0.0

>  <SMR_VSA9>  (2) 
0.0

>  <SlogP_VSA1>  (2) 
5.106527

>  <SlogP_VSA10>  (2) 
0.0

>  <SlogP_VSA11>  (2) 
0.0

>  <SlogP_VSA12>  (2) 
0.0

>  <SlogP_VSA2>  (2) 
49.350602

>  <SlogP_VSA3>  (2) 
4.794537

>  <SlogP_VSA4>  (2) 
0.0

>  <SlogP_VSA5>  (2) 
6.420822

>  <SlogP_VSA6>  (2) 
0.0

>  <SlogP_VSA7>  (2) 
0.0

>  <SlogP_VSA8>  (2) 
0.0

>  <SlogP_VSA9>  (2) 
0.0

>  <EState_VSA1>  (2) 
12.073272

>  <EState_VSA10>  (2) 
9.901065

>  <EState_VSA11>  (2) 
0.0

>  <EState_VSA2>  (2) 
6.420822

>  <EState_VSA3>  (2) 
11.027787

>  <EState_VSA4>  (2) 
0.0

>  <EState_VSA5>  (2) 
0.0

>  <EState_VSA6>  (2) 
0.0

>  <EState_VSA7>  (2) 
21.143016

>  <EState_VSA8>  (2) 
0.0

>  <EState_VSA9>  (2) 
5.106527

>  <VSA_EState1>  (2) 
0.550046

>  <VSA_EState10>  (2) 
0.0

>  <VSA_EState2>  (2) 
10.017511

>  <VSA_EState3>  (2) 
19.136261

>  <VSA_EState4>  (2) 
0.0

>  <VSA_EState5>  (2) 
-1.202824

>  <VSA_EState6>  (2) 
0.0

>  <VSA_EState7>  (2) 
-1.087778

>  <VSA_EState8>  (2) 
0.424583

>  <VSA_EState9>  (2) 
5.6622

>  <FractionCSP3>  (2) 
0.857143

>  <HeavyAtomCount>  (2) 
11

>  <NHOHCount>  (2) 
1

>  <NOCount>  (2) 
4

>  <NumAliphaticCarbocycles>  (2) 
0

>  <NumAliphaticHeterocycles>  (2) 
0

>  <NumAliphaticRings>  (2) 
0

>  <NumAromaticCarbocycles>  (2) 
0

>  <NumAromaticHeterocycles>  (2) 
0

>  <NumAromaticRings>  (2) 
0

>  <NumHAcceptors>  (2) 
3

>  <NumHDonors>  (2) 
1

>  <NumHeteroatoms>  (2) 
4

>  <NumRotatableBonds>  (2) 
4

>  <NumSaturatedCarbocycles>  (2) 
0

>  <NumSaturatedHeterocycles>  (2) 
0

>  <NumSaturatedRings>  (2) 
0

>  <RingCount>  (2) 
0

>  <MolLogP>  (2) 
-1.8065

>  <MolMR>  (2) 
38.5302

>  <fr_Al_COO>  (2) 
1

>  <fr_Al_OH>  (2) 
1

>  <fr_Al_OH_noTert>  (2) 
1

>  <fr_ArN>  (2) 
0

>  <fr_Ar_COO>  (2) 
0

>  <fr_Ar_N>  (2) 
0

>  <fr_Ar_NH>  (2) 
0

>  <fr_Ar_OH>  (2) 
0

>  <fr_COO>  (2) 
1

>  <fr_COO2>  (2) 
1

>  <fr_C_O>  (2) 
1

>  <fr_C_O_noCOO>  (2) 
1

>  <fr_C_S>  (2) 
0

>  <fr_HOCCN>  (2) 
0

>  <fr_Imine>  (2) 
0

>  <fr_NH0>  (2) 
1

>  <fr_NH1>  (2) 
0

>  <fr_NH2>  (2) 
0

>  <fr_N_O>  (2) 
0

>  <fr_Ndealkylation1>  (2) 
1

>  <fr_Ndealkylation2>  (2) 
0

>  <fr_Nhpyrrole>  (2) 
0

>  <fr_SH>  (2) 
0

>  <fr_aldehyde>  (2) 
0

>  <fr_alkyl_carbamate>  (2) 
0

>  <fr_alkyl_halide>  (2) 
0

>  <fr_allylic_oxid>  (2) 
0

>  <fr_amide>  (2) 
0

>  <fr_amidine>  (2) 
0

>  <fr_aniline>  (2) 
0

>  <fr_aryl_methyl>  (2) 
0

>  <fr_azide>  (2) 
0

>  <fr_azo>  (2) 
0

>  <fr_barbitur>  (2) 
0

>  <fr_benzene>  (2) 
0

>  <fr_benzodiazepine>  (2) 
0

>  <fr_bicyclic>  (2) 
0

>  <fr_diazo>  (2) 
0

>  <fr_dihydropyridine>  (2) 
0

>  <fr_epoxide>  (2) 
0

>  <fr_ester>  (2) 
0

>  <fr_ether>  (2) 
0

>  <fr_furan>  (2) 
0

>  <fr_guanido>  (2) 
0

>  <fr_halogen>  (2) 
0

>  <fr_hdrzine>  (2) 
0

>  <fr_hdrzone>  (2) 
0

>  <fr_imidazole>  (2) 
0

>  <fr_imide>  (2) 
0

>  <fr_isocyan>  (2) 
0

>  <fr_isothiocyan>  (2) 
0

>  <fr_ketone>  (2) 
0

>  <fr_ketone_Topliss>  (2) 
0

>  <fr_lactam>  (2) 
0

>  <fr_lactone>  (2) 
0

>  <fr_methoxy>  (2) 
0

>  <fr_morpholine>  (2) 
0

>  <fr_nitrile>  (2) 
0

>  <fr_nitro>  (2) 
0

>  <fr_nitro_arom>  (2) 
0

>  <fr_nitro_arom_nonortho>  (2) 
0

>  <fr_nitroso>  (2) 
0

>  <fr_oxazole>  (2) 
0

>  <fr_oxime>  (2) 
0

>  <fr_para_hydroxylation>  (2) 
0

>  <fr_phenol>  (2) 
0

>  <fr_phenol_noOrthoHbond>  (2) 
0

>  <fr_phos_acid>  (2) 
0

>  <fr_phos_ester>  (2) 
0

>  <fr_piperdine>  (2) 
0

>  <fr_piperzine>  (2) 
0

>  <fr_priamide>  (2) 
0

>  <fr_prisulfonamd>  (2) 
0

>  <fr_pyridine>  (2) 
0

>  <fr_quatN>  (2) 
1

>  <fr_sulfide>  (2) 
0

>  <fr_sulfonamd>  (2) 
0

>  <fr_sulfone>  (2) 
0

>  <fr_term_acetylene>  (2) 
0

>  <fr_tetrazole>  (2) 
0

>  <fr_thiazole>  (2) 
0

>  <fr_thiocyan>  (2) 
0

>  <fr_thiophene>  (2) 
0

>  <fr_unbrch_alkane>  (2) 
0

>  <fr_urea>  (2) 
0

>  <NP_Likeness>  (2) 
0.613942

$$$$
15I
     RDKit          3D

  0  0  0  0  0  0  0  0  0  0999 V3000
M  V30 BEGIN CTAB
M  V30 COUNTS 41 44 0 0 0
M  V30 BEGIN ATOM
M  V30 1 N -25.210000 -7.122000 -2.720000 0 CHG=1
M  V30 2 N -33.393000 -9.859000 -4.245000 0
M  V30 3 N -33.448000 -9.869000 -1.813000 0
M  V30 4 N -31.206000 -10.135000 -5.211000 0
M  V30 5 N -31.257000 -10.029000 -1.378000 0
M  V30 6 N -29.299000 -10.313000 -3.950000 0
M  V30 7 C -32.533000 -9.990000 -5.258000 0
M  V30 8 C -32.476000 -9.969000 -0.878000 0
M  V30 9 C -24.018000 -7.984000 -2.752000 0
M  V30 10 C -28.466000 -10.368000 -2.745000 0
M  V30 11 C -28.481000 -10.219000 -5.166000 0
M  V30 12 C -26.203000 -7.371000 -3.820000 0
M  V30 13 C -24.461000 -9.489000 -2.783000 0
M  V30 14 C -27.648000 -9.087000 -2.650000 0
M  V30 15 C -27.539000 -9.024000 -5.158000 0
M  V30 16 C -25.495000 -9.802000 -3.869000 0
M  V30 17 C -32.820000 -9.890000 -3.026000 0
M  V30 18 C -30.705000 -10.129000 -3.954000 0
M  V30 19 C -31.465000 -10.004000 -2.750000 0
M  V30 20 C -26.718000 -8.859000 -3.862000 0
M  V30 21 H -24.907100 -6.171200 -2.784800 0
M  V30 22 H -32.935800 -9.978000 -6.173200 0
M  V30 23 H -32.664500 -9.995100 0.103700 0
M  V30 24 H -23.463600 -7.816500 -1.936800 0
M  V30 25 H -23.479700 -7.778100 -3.569200 0
M  V30 26 H -27.851600 -11.155200 -2.797600 0
M  V30 27 H -29.049500 -10.454000 -1.937500 0
M  V30 28 H -29.090600 -10.139000 -5.954700 0
M  V30 29 H -27.936400 -11.053500 -5.249000 0
M  V30 30 H -25.768000 -7.159900 -4.695300 0
M  V30 31 H -26.987700 -6.766300 -3.683400 0
M  V30 32 H -24.856300 -9.720500 -1.894100 0
M  V30 33 H -23.651600 -10.053500 -2.945100 0
M  V30 34 H -27.086400 -9.130600 -1.823800 0
M  V30 35 H -28.278000 -8.313200 -2.584400 0
M  V30 36 H -28.084700 -8.196300 -5.288500 0
M  V30 37 H -26.900200 -9.125800 -5.920600 0
M  V30 38 H -25.819100 -10.738400 -3.734200 0
M  V30 39 H -25.047000 -9.729400 -4.760100 0
M  V30 40 H -25.673300 -7.265400 -1.845500 0
M  V30 41 H -34.431600 -9.794400 -1.648900 0
M  V30 END ATOM
M  V30 BEGIN BOND
M  V30 1 1 1 9
M  V30 2 1 1 12
M  V30 3 2 2 7
M  V30 4 1 2 17
M  V30 5 1 3 8
M  V30 6 1 3 17
M  V30 7 1 4 7
M  V30 8 2 4 18
M  V30 9 2 5 8
M  V30 10 1 5 19
M  V30 11 1 6 10
M  V30 12 1 6 11
M  V30 13 1 6 18
M  V30 14 1 9 13
M  V30 15 1 10 14
M  V30 16 1 11 15
M  V30 17 1 20 12
M  V30 18 1 13 16
M  V30 19 1 14 20
M  V30 20 1 15 20
M  V30 21 1 16 20
M  V30 22 2 17 19
M  V30 23 1 18 19
M  V30 24 1 1 21
M  V30 25 1 3 41
M  V30 26 1 7 22
M  V30 27 1 8 23
M  V30 28 1 9 24
M  V30 29 1 9 25
M  V30 30 1 10 26
M  V30 31 1 10 27
M  V30 32 1 11 28
M  V30 33 1 11 29
M  V30 34 1 12 30
M  V30 35 1 12 31
M  V30 36 1 13 32
M  V30 37 1 13 33
M  V30 38 1 14 34
M  V30 39 1 14 35
M  V30 40 1 15 36
M  V30 41 1 15 37
M  V30 42 1 16 38
M  V30 43 1 16 39
M  V30 44 1 1 40
M  V30 END BOND
M  V30 END CTAB
M  END
>  <Ligand_Instance>  (3) 
3ZO2_15I_A_1351

>  <Dataset>  (3) 
PDB

>  <PDB_ID>  (3) 
3ZO2

>  <Chain>  (3) 
A

>  <Resi>  (3) 
1351

>  <Num_Resolved_Atoms>  (3) 
20

>  <Num_H_Atoms_ProtBoundConf>  (3) 
21

>  <Pocket>  (3) 
A

>  <Name>  (3) 
6-(2,9-Diazaspiro[5.5]undecan-9-yl)-9H-purine

>  <Num_Not_Resolved_Atoms>  (3) 
0

>  <ATP_Site>  (3) 
True

>  <Peripheral>  (3) 
False

>  <Standardized_SMILES>  (3) 
[H]C1=NC2=C(N=C([H])N2[H])C(N2C([H])([H])C([H])([H])C3(C([H])([H])C2([H])[H])C([H])([H])C([H])([H])C([H])([H])[N+]([H])([H])C3([H])[H])=N1

>  <2D_Mol_H>  (3) 
<rdkit.Chem.rdchem.Mol object at 0x77059d9da340>

>  <MW>  (3) 
273.364

>  <HBA>  (3) 
4

>  <HBD>  (3) 
2

>  <LogP>  (3) 
0.2967

>  <NRB>  (3) 
1

>  <TPSA>  (3) 
74.31

>  <Num_Heavy_Atoms>  (3) 
20

>  <Ro5>  (3) 
[True, True, True, True, True, True]

>  <Ro5_Fulfilled>  (3) 
True

>  <Ro3>  (3) 
[True, False, True, True]

>  <Ro3_Fulfilled>  (3) 
True

>  <Fsp3>  (3) 
0.642857

>  <Fsp3_0.42>  (3) 
True

>  <Fsp3_0.45>  (3) 
True

>  <Stereogenic_Carbons>  (3) 
0

>  <C_Atoms>  (3) 
14

>  <FCStereo>  (3) 
0.0

>  <SPS>  (3) 
450

>  <nSPS>  (3) 
22.5

>  <PBF>  (3) 
0.826277

>  <PBF_0.6>  (3) 
True

>  <nPBF>  (3) 
0.041314

>  <nPBF_0.016>  (3) 
True

>  <PMI1>  (3) 
610.672777

>  <PMI2>  (3) 
2885.655305

>  <PMI3>  (3) 
3184.518933

>  <NPR1>  (3) 
0.191763

>  <NPR2>  (3) 
0.906151

>  <Sum_NPR>  (3) 
1.097914

>  <Sum_NPR_1.07>  (3) 
True

>  <Sum_NPR_1.2>  (3) 
False

>  <MaxAbsEStateIndex>  (3) 
4.460843

>  <MaxEStateIndex>  (3) 
4.460843

>  <MinAbsEStateIndex>  (3) 
0.575864

>  <MinEStateIndex>  (3) 
0.575864

>  <qed>  (3) 
0.783339

>  <MolWt>  (3) 
273.364

>  <HeavyAtomMolWt>  (3) 
252.196

>  <ExactMolWt>  (3) 
273.182221

>  <NumValenceElectrons>  (3) 
106

>  <NumRadicalElectrons>  (3) 
0

>  <MaxPartialCharge>  (3) 
0.16229

>  <MinPartialCharge>  (3) 
-0.35461

>  <MaxAbsPartialCharge>  (3) 
0.35461

>  <MinAbsPartialCharge>  (3) 
0.16229

>  <FpDensityMorgan1>  (3) 
1.15

>  <FpDensityMorgan2>  (3) 
2.05

>  <FpDensityMorgan3>  (3) 
2.85

>  <BCUT2D_MWHI>  (3) 
15.217492

>  <BCUT2D_MWLOW>  (3) 
9.729212

>  <BCUT2D_CHGHI>  (3) 
2.380047

>  <BCUT2D_CHGLO>  (3) 
-2.424713

>  <BCUT2D_LOGPHI>  (3) 
2.370237

>  <BCUT2D_LOGPLOW>  (3) 
-2.889209

>  <BCUT2D_MRHI>  (3) 
5.821693

>  <BCUT2D_MRLOW>  (3) 
-0.676555

>  <AvgIpc>  (3) 
2.974442

>  <BalabanJ>  (3) 
1.55189

>  <BertzCT>  (3) 
590.484865

>  <Chi0>  (3) 
13.416003

>  <Chi0n>  (3) 
11.677759

>  <Chi0v>  (3) 
11.677759

>  <Chi1>  (3) 
9.863703

>  <Chi1n>  (3) 
7.570865

>  <Chi1v>  (3) 
7.570865

>  <Chi2n>  (3) 
6.169102

>  <Chi2v>  (3) 
6.169102

>  <Chi3n>  (3) 
5.014221

>  <Chi3v>  (3) 
5.014221

>  <Chi4n>  (3) 
3.762065

>  <Chi4v>  (3) 
3.762065

>  <HallKierAlpha>  (3) 
-1.69

>  <Ipc>  (3) 
99322.572112

>  <Kappa1>  (3) 
12.081353

>  <Kappa2>  (3) 
4.697198

>  <Kappa3>  (3) 
1.947156

>  <LabuteASA>  (3) 
117.563685

>  <PEOE_VSA1>  (3) 
15.200677

>  <PEOE_VSA10>  (3) 
11.844021

>  <PEOE_VSA11>  (3) 
11.46504

>  <PEOE_VSA12>  (3) 
0.0

>  <PEOE_VSA13>  (3) 
0.0

>  <PEOE_VSA14>  (3) 
0.0

>  <PEOE_VSA2>  (3) 
0.0

>  <PEOE_VSA3>  (3) 
14.951936

>  <PEOE_VSA4>  (3) 
0.0

>  <PEOE_VSA5>  (3) 
0.0

>  <PEOE_VSA6>  (3) 
0.0

>  <PEOE_VSA7>  (3) 
25.683286

>  <PEOE_VSA8>  (3) 
18.504503

>  <PEOE_VSA9>  (3) 
19.416833

>  <SMR_VSA1>  (3) 
5.316789

>  <SMR_VSA10>  (3) 
16.981741

>  <SMR_VSA2>  (3) 
0.0

>  <SMR_VSA3>  (3) 
19.935914

>  <SMR_VSA4>  (3) 
5.41499

>  <SMR_VSA5>  (3) 
25.683286

>  <SMR_VSA6>  (3) 
31.078935

>  <SMR_VSA7>  (3) 
12.65464

>  <SMR_VSA8>  (3) 
0.0

>  <SMR_VSA9>  (3) 
0.0

>  <SlogP_VSA1>  (3) 
10.216698

>  <SlogP_VSA10>  (3) 
5.817863

>  <SlogP_VSA11>  (3) 
0.0

>  <SlogP_VSA12>  (3) 
0.0

>  <SlogP_VSA2>  (3) 
46.11494

>  <SlogP_VSA3>  (3) 
0.0

>  <SlogP_VSA4>  (3) 
5.41499

>  <SlogP_VSA5>  (3) 
25.683286

>  <SlogP_VSA6>  (3) 
12.65464

>  <SlogP_VSA7>  (3) 
0.0

>  <SlogP_VSA8>  (3) 
11.163878

>  <SlogP_VSA9>  (3) 
0.0

>  <EState_VSA1>  (3) 
0.0

>  <EState_VSA10>  (3) 
0.0

>  <EState_VSA11>  (3) 
0.0

>  <EState_VSA2>  (3) 
0.0

>  <EState_VSA3>  (3) 
5.41499

>  <EState_VSA4>  (3) 
30.071254

>  <EState_VSA5>  (3) 
38.772799

>  <EState_VSA6>  (3) 
12.65464

>  <EState_VSA7>  (3) 
0.0

>  <EState_VSA8>  (3) 
30.152612

>  <EState_VSA9>  (3) 
0.0

>  <VSA_EState1>  (3) 
0.0

>  <VSA_EState10>  (3) 
0.0

>  <VSA_EState2>  (3) 
18.491199

>  <VSA_EState3>  (3) 
2.495794

>  <VSA_EState4>  (3) 
2.311922

>  <VSA_EState5>  (3) 
0.991564

>  <VSA_EState6>  (3) 
0.0

>  <VSA_EState7>  (3) 
8.660589

>  <VSA_EState8>  (3) 
4.798931

>  <VSA_EState9>  (3) 
0.0

>  <FractionCSP3>  (3) 
0.642857

>  <HeavyAtomCount>  (3) 
20

>  <NHOHCount>  (3) 
3

>  <NOCount>  (3) 
6

>  <NumAliphaticCarbocycles>  (3) 
0

>  <NumAliphaticHeterocycles>  (3) 
2

>  <NumAliphaticRings>  (3) 
2

>  <NumAromaticCarbocycles>  (3) 
0

>  <NumAromaticHeterocycles>  (3) 
2

>  <NumAromaticRings>  (3) 
2

>  <NumHAcceptors>  (3) 
4

>  <NumHDonors>  (3) 
2

>  <NumHeteroatoms>  (3) 
6

>  <NumRotatableBonds>  (3) 
1

>  <NumSaturatedCarbocycles>  (3) 
0

>  <NumSaturatedHeterocycles>  (3) 
2

>  <NumSaturatedRings>  (3) 
2

>  <RingCount>  (3) 
4

>  <MolLogP>  (3) 
0.2967

>  <MolMR>  (3) 
76.4571

>  <fr_Al_COO>  (3) 
0

>  <fr_Al_OH>  (3) 
0

>  <fr_Al_OH_noTert>  (3) 
0

>  <fr_ArN>  (3) 
0

>  <fr_Ar_COO>  (3) 
0

>  <fr_Ar_N>  (3) 
4

>  <fr_Ar_NH>  (3) 
1

>  <fr_Ar_OH>  (3) 
0

>  <fr_COO>  (3) 
0

>  <fr_COO2>  (3) 
0

>  <fr_C_O>  (3) 
0

>  <fr_C_O_noCOO>  (3) 
0

>  <fr_C_S>  (3) 
0

>  <fr_HOCCN>  (3) 
0

>  <fr_Imine>  (3) 
0

>  <fr_NH0>  (3) 
4

>  <fr_NH1>  (3) 
1

>  <fr_NH2>  (3) 
1

>  <fr_N_O>  (3) 
0

>  <fr_Ndealkylation1>  (3) 
0

>  <fr_Ndealkylation2>  (3) 
0

>  <fr_Nhpyrrole>  (3) 
1

>  <fr_SH>  (3) 
0

>  <fr_aldehyde>  (3) 
0

>  <fr_alkyl_carbamate>  (3) 
0

>  <fr_alkyl_halide>  (3) 
0

>  <fr_allylic_oxid>  (3) 
0

>  <fr_amide>  (3) 
0

>  <fr_amidine>  (3) 
0

>  <fr_aniline>  (3) 
1

>  <fr_aryl_methyl>  (3) 
0

>  <fr_azide>  (3) 
0

>  <fr_azo>  (3) 
0

>  <fr_barbitur>  (3) 
0

>  <fr_benzene>  (3) 
0

>  <fr_benzodiazepine>  (3) 
0

>  <fr_bicyclic>  (3) 
1

>  <fr_diazo>  (3) 
0

>  <fr_dihydropyridine>  (3) 
0

>  <fr_epoxide>  (3) 
0

>  <fr_ester>  (3) 
0

>  <fr_ether>  (3) 
0

>  <fr_furan>  (3) 
0

>  <fr_guanido>  (3) 
0

>  <fr_halogen>  (3) 
0

>  <fr_hdrzine>  (3) 
0

>  <fr_hdrzone>  (3) 
0

>  <fr_imidazole>  (3) 
1

>  <fr_imide>  (3) 
0

>  <fr_isocyan>  (3) 
0

>  <fr_isothiocyan>  (3) 
0

>  <fr_ketone>  (3) 
0

>  <fr_ketone_Topliss>  (3) 
0

>  <fr_lactam>  (3) 
0

>  <fr_lactone>  (3) 
0

>  <fr_methoxy>  (3) 
0

>  <fr_morpholine>  (3) 
0

>  <fr_nitrile>  (3) 
0

>  <fr_nitro>  (3) 
0

>  <fr_nitro_arom>  (3) 
0

>  <fr_nitro_arom_nonortho>  (3) 
0

>  <fr_nitroso>  (3) 
0

>  <fr_oxazole>  (3) 
0

>  <fr_oxime>  (3) 
0

>  <fr_para_hydroxylation>  (3) 
0

>  <fr_phenol>  (3) 
0

>  <fr_phenol_noOrthoHbond>  (3) 
0

>  <fr_phos_acid>  (3) 
0

>  <fr_phos_ester>  (3) 
0

>  <fr_piperdine>  (3) 
2

>  <fr_piperzine>  (3) 
0

>  <fr_priamide>  (3) 
0

>  <fr_prisulfonamd>  (3) 
0

>  <fr_pyridine>  (3) 
0

>  <fr_quatN>  (3) 
1

>  <fr_sulfide>  (3) 
0

>  <fr_sulfonamd>  (3) 
0

>  <fr_sulfone>  (3) 
0

>  <fr_term_acetylene>  (3) 
0

>  <fr_tetrazole>  (3) 
0

>  <fr_thiazole>  (3) 
0

>  <fr_thiocyan>  (3) 
0

>  <fr_thiophene>  (3) 
0

>  <fr_unbrch_alkane>  (3) 
0

>  <fr_urea>  (3) 
0

>  <NP_Likeness>  (3) 
-0.715747

$$$$
1LQ
     RDKit          3D

  0  0  0  0  0  0  0  0  0  0999 V3000
M  V30 BEGIN CTAB
M  V30 COUNTS 18 19 0 0 0
M  V30 BEGIN ATOM
M  V30 1 N -17.564000 -24.044000 23.343000 0
M  V30 2 N -17.280000 -26.329000 23.559000 0
M  V30 3 N -15.841000 -27.303000 25.204000 0
M  V30 4 C -16.702000 -27.347000 24.201000 0
M  V30 5 C -14.094000 -24.677000 27.037000 0
M  V30 6 C -14.625000 -23.526000 26.472000 0
M  V30 7 C -14.515000 -25.915000 26.635000 0
M  V30 8 C -15.573000 -23.608000 25.495000 0
M  V30 9 C -16.972000 -25.081000 23.957000 0
M  V30 10 C -15.493000 -26.042000 25.620000 0
M  V30 11 C -16.031000 -24.867000 25.034000 0
M  V30 12 H -17.349500 -23.108300 23.623100 0
M  V30 13 H -18.219400 -24.207400 22.605600 0
M  V30 14 H -16.952500 -28.261100 23.882200 0
M  V30 15 H -13.394400 -24.600400 27.747400 0
M  V30 16 H -14.310100 -22.629500 26.783700 0
M  V30 17 H -14.129900 -26.734000 27.060300 0
M  V30 18 H -15.949100 -22.770100 25.099500 0
M  V30 END ATOM
M  V30 BEGIN BOND
M  V30 1 1 1 9
M  V30 2 2 2 4
M  V30 3 1 2 9
M  V30 4 1 3 4
M  V30 5 2 3 10
M  V30 6 1 5 6
M  V30 7 2 5 7
M  V30 8 2 6 8
M  V30 9 1 7 10
M  V30 10 1 8 11
M  V30 11 2 9 11
M  V30 12 1 10 11
M  V30 13 1 1 12
M  V30 14 1 1 13
M  V30 15 1 4 14
M  V30 16 1 5 15
M  V30 17 1 6 16
M  V30 18 1 7 17
M  V30 19 1 8 18
M  V30 END BOND
M  V30 END CTAB
M  END
>  <Ligand_Instance>  (4) 
6Y0B_1LQ_A_401

>  <Dataset>  (4) 
PDB

>  <PDB_ID>  (4) 
6Y0B

>  <Chain>  (4) 
A

>  <Resi>  (4) 
401

>  <Num_Resolved_Atoms>  (4) 
11

>  <Num_H_Atoms_ProtBoundConf>  (4) 
7

>  <Pocket>  (4) 
A

>  <Name>  (4) 
quinazolin-4-amine

>  <Num_Not_Resolved_Atoms>  (4) 
0

>  <ATP_Site>  (4) 
True

>  <Peripheral>  (4) 
False

>  <Standardized_SMILES>  (4) 
[H]C1=NC2=C([H])C([H])=C([H])C([H])=C2C(N([H])[H])=N1

>  <2D_Mol_H>  (4) 
<rdkit.Chem.rdchem.Mol object at 0x77059d9da420>

>  <MW>  (4) 
145.165

>  <HBA>  (4) 
3

>  <HBD>  (4) 
1

>  <LogP>  (4) 
1.212

>  <NRB>  (4) 
1

>  <TPSA>  (4) 
51.8

>  <Num_Heavy_Atoms>  (4) 
11

>  <Ro5>  (4) 
[True, True, True, True, True, True]

>  <Ro5_Fulfilled>  (4) 
True

>  <Ro3>  (4) 
[True, True, True, True]

>  <Ro3_Fulfilled>  (4) 
True

>  <Fsp3>  (4) 
0.0

>  <Fsp3_0.42>  (4) 
False

>  <Fsp3_0.45>  (4) 
False

>  <Stereogenic_Carbons>  (4) 
0

>  <C_Atoms>  (4) 
8

>  <FCStereo>  (4) 
0.0

>  <SPS>  (4) 
112

>  <nSPS>  (4) 
10.181818

>  <PBF>  (4) 
0.027879

>  <PBF_0.6>  (4) 
False

>  <nPBF>  (4) 
0.002534

>  <nPBF_0.016>  (4) 
False

>  <PMI1>  (4) 
245.369034

>  <PMI2>  (4) 
439.878705

>  <PMI3>  (4) 
685.025532

>  <NPR1>  (4) 
0.35819

>  <NPR2>  (4) 
0.642135

>  <Sum_NPR>  (4) 
1.000324

>  <Sum_NPR_1.07>  (4) 
False

>  <Sum_NPR_1.2>  (4) 
False

>  <MaxAbsEStateIndex>  (4) 
5.605093

>  <MaxEStateIndex>  (4) 
5.605093

>  <MinAbsEStateIndex>  (4) 
0.537593

>  <MinEStateIndex>  (4) 
0.537593

>  <qed>  (4) 
0.605817

>  <MolWt>  (4) 
145.165

>  <HeavyAtomMolWt>  (4) 
138.109

>  <ExactMolWt>  (4) 
145.063997

>  <NumValenceElectrons>  (4) 
54

>  <NumRadicalElectrons>  (4) 
0

>  <MaxPartialCharge>  (4) 
0.134188

>  <MinPartialCharge>  (4) 
-0.383082

>  <MaxAbsPartialCharge>  (4) 
0.383082

>  <MinAbsPartialCharge>  (4) 
0.134188

>  <FpDensityMorgan1>  (4) 
1.090909

>  <FpDensityMorgan2>  (4) 
1.909091

>  <FpDensityMorgan3>  (4) 
2.727273

>  <BCUT2D_MWHI>  (4) 
14.901151

>  <BCUT2D_MWLOW>  (4) 
10.219802

>  <BCUT2D_CHGHI>  (4) 
1.950864

>  <BCUT2D_CHGLO>  (4) 
-1.963213

>  <BCUT2D_LOGPHI>  (4) 
2.137

>  <BCUT2D_LOGPLOW>  (4) 
-1.914153

>  <BCUT2D_MRHI>  (4) 
5.867731

>  <BCUT2D_MRLOW>  (4) 
1.229597

>  <AvgIpc>  (4) 
2.05595

>  <BalabanJ>  (4) 
2.913161

>  <BertzCT>  (4) 
378.498884

>  <Chi0>  (4) 
7.681798

>  <Chi0n>  (4) 
5.858529

>  <Chi0v>  (4) 
5.858529

>  <Chi1>  (4) 
5.37701

>  <Chi1n>  (4) 
3.329637

>  <Chi1v>  (4) 
3.329637

>  <Chi2n>  (4) 
2.276058

>  <Chi2v>  (4) 
2.276058

>  <Chi3n>  (4) 
1.573645

>  <Chi3v>  (4) 
1.573645

>  <Chi4n>  (4) 
1.025626

>  <Chi4v>  (4) 
1.025626

>  <HallKierAlpha>  (4) 
-1.64

>  <Ipc>  (4) 
505.763735

>  <Kappa1>  (4) 
6.094932

>  <Kappa2>  (4) 
2.196105

>  <Kappa3>  (4) 
0.902215

>  <LabuteASA>  (4) 
63.892254

>  <PEOE_VSA1>  (4) 
5.733667

>  <PEOE_VSA10>  (4) 
12.145183

>  <PEOE_VSA11>  (4) 
0.0

>  <PEOE_VSA12>  (4) 
0.0

>  <PEOE_VSA13>  (4) 
0.0

>  <PEOE_VSA14>  (4) 
0.0

>  <PEOE_VSA2>  (4) 
0.0

>  <PEOE_VSA3>  (4) 
9.967957

>  <PEOE_VSA4>  (4) 
0.0

>  <PEOE_VSA5>  (4) 
0.0

>  <PEOE_VSA6>  (4) 
12.132734

>  <PEOE_VSA7>  (4) 
12.132734

>  <PEOE_VSA8>  (4) 
5.386224

>  <PEOE_VSA9>  (4) 
5.516701

>  <SMR_VSA1>  (4) 
0.0

>  <SMR_VSA10>  (4) 
16.720788

>  <SMR_VSA2>  (4) 
0.0

>  <SMR_VSA3>  (4) 
9.967957

>  <SMR_VSA4>  (4) 
0.0

>  <SMR_VSA5>  (4) 
0.0

>  <SMR_VSA6>  (4) 
5.733667

>  <SMR_VSA7>  (4) 
30.592788

>  <SMR_VSA8>  (4) 
0.0

>  <SMR_VSA9>  (4) 
0.0

>  <SlogP_VSA1>  (4) 
5.733667

>  <SlogP_VSA10>  (4) 
5.817863

>  <SlogP_VSA11>  (4) 
0.0

>  <SlogP_VSA12>  (4) 
0.0

>  <SlogP_VSA2>  (4) 
9.967957

>  <SlogP_VSA3>  (4) 
0.0

>  <SlogP_VSA4>  (4) 
0.0

>  <SlogP_VSA5>  (4) 
0.0

>  <SlogP_VSA6>  (4) 
30.592788

>  <SlogP_VSA7>  (4) 
0.0

>  <SlogP_VSA8>  (4) 
10.902925

>  <SlogP_VSA9>  (4) 
0.0

>  <EState_VSA1>  (4) 
0.0

>  <EState_VSA10>  (4) 
0.0

>  <EState_VSA11>  (4) 
0.0

>  <EState_VSA2>  (4) 
0.0

>  <EState_VSA3>  (4) 
5.817863

>  <EState_VSA4>  (4) 
10.902925

>  <EState_VSA5>  (4) 
6.32732

>  <EState_VSA6>  (4) 
0.0

>  <EState_VSA7>  (4) 
24.265468

>  <EState_VSA8>  (4) 
9.967957

>  <EState_VSA9>  (4) 
5.733667

>  <VSA_EState1>  (4) 
0.0

>  <VSA_EState10>  (4) 
0.0

>  <VSA_EState2>  (4) 
7.924907

>  <VSA_EState3>  (4) 
0.912037

>  <VSA_EState4>  (4) 
6.493981

>  <VSA_EState5>  (4) 
0.537593

>  <VSA_EState6>  (4) 
7.661574

>  <VSA_EState7>  (4) 
1.469907

>  <VSA_EState8>  (4) 
0.0

>  <VSA_EState9>  (4) 
0.0

>  <FractionCSP3>  (4) 
0.0

>  <HeavyAtomCount>  (4) 
11

>  <NHOHCount>  (4) 
2

>  <NOCount>  (4) 
3

>  <NumAliphaticCarbocycles>  (4) 
0

>  <NumAliphaticHeterocycles>  (4) 
0

>  <NumAliphaticRings>  (4) 
0

>  <NumAromaticCarbocycles>  (4) 
1

>  <NumAromaticHeterocycles>  (4) 
1

>  <NumAromaticRings>  (4) 
2

>  <NumHAcceptors>  (4) 
3

>  <NumHDonors>  (4) 
1

>  <NumHeteroatoms>  (4) 
3

>  <NumRotatableBonds>  (4) 
0

>  <NumSaturatedCarbocycles>  (4) 
0

>  <NumSaturatedHeterocycles>  (4) 
0

>  <NumSaturatedRings>  (4) 
0

>  <RingCount>  (4) 
2

>  <MolLogP>  (4) 
1.212

>  <MolMR>  (4) 
43.9504

>  <fr_Al_COO>  (4) 
0

>  <fr_Al_OH>  (4) 
0

>  <fr_Al_OH_noTert>  (4) 
0

>  <fr_ArN>  (4) 
1

>  <fr_Ar_COO>  (4) 
0

>  <fr_Ar_N>  (4) 
2

>  <fr_Ar_NH>  (4) 
0

>  <fr_Ar_OH>  (4) 
0

>  <fr_COO>  (4) 
0

>  <fr_COO2>  (4) 
0

>  <fr_C_O>  (4) 
0

>  <fr_C_O_noCOO>  (4) 
0

>  <fr_C_S>  (4) 
0

>  <fr_HOCCN>  (4) 
0

>  <fr_Imine>  (4) 
0

>  <fr_NH0>  (4) 
2

>  <fr_NH1>  (4) 
0

>  <fr_NH2>  (4) 
1

>  <fr_N_O>  (4) 
0

>  <fr_Ndealkylation1>  (4) 
0

>  <fr_Ndealkylation2>  (4) 
0

>  <fr_Nhpyrrole>  (4) 
0

>  <fr_SH>  (4) 
0

>  <fr_aldehyde>  (4) 
0

>  <fr_alkyl_carbamate>  (4) 
0

>  <fr_alkyl_halide>  (4) 
0

>  <fr_allylic_oxid>  (4) 
0

>  <fr_amide>  (4) 
0

>  <fr_amidine>  (4) 
0

>  <fr_aniline>  (4) 
1

>  <fr_aryl_methyl>  (4) 
0

>  <fr_azide>  (4) 
0

>  <fr_azo>  (4) 
0

>  <fr_barbitur>  (4) 
0

>  <fr_benzene>  (4) 
1

>  <fr_benzodiazepine>  (4) 
0

>  <fr_bicyclic>  (4) 
1

>  <fr_diazo>  (4) 
0

>  <fr_dihydropyridine>  (4) 
0

>  <fr_epoxide>  (4) 
0

>  <fr_ester>  (4) 
0

>  <fr_ether>  (4) 
0

>  <fr_furan>  (4) 
0

>  <fr_guanido>  (4) 
0

>  <fr_halogen>  (4) 
0

>  <fr_hdrzine>  (4) 
0

>  <fr_hdrzone>  (4) 
0

>  <fr_imidazole>  (4) 
0

>  <fr_imide>  (4) 
0

>  <fr_isocyan>  (4) 
0

>  <fr_isothiocyan>  (4) 
0

>  <fr_ketone>  (4) 
0

>  <fr_ketone_Topliss>  (4) 
0

>  <fr_lactam>  (4) 
0

>  <fr_lactone>  (4) 
0

>  <fr_methoxy>  (4) 
0

>  <fr_morpholine>  (4) 
0

>  <fr_nitrile>  (4) 
0

>  <fr_nitro>  (4) 
0

>  <fr_nitro_arom>  (4) 
0

>  <fr_nitro_arom_nonortho>  (4) 
0

>  <fr_nitroso>  (4) 
0

>  <fr_oxazole>  (4) 
0

>  <fr_oxime>  (4) 
0

>  <fr_para_hydroxylation>  (4) 
1

>  <fr_phenol>  (4) 
0

>  <fr_phenol_noOrthoHbond>  (4) 
0

>  <fr_phos_acid>  (4) 
0

>  <fr_phos_ester>  (4) 
0

>  <fr_piperdine>  (4) 
0

>  <fr_piperzine>  (4) 
0

>  <fr_priamide>  (4) 
0

>  <fr_prisulfonamd>  (4) 
0

>  <fr_pyridine>  (4) 
0

>  <fr_quatN>  (4) 
0

>  <fr_sulfide>  (4) 
0

>  <fr_sulfonamd>  (4) 
0

>  <fr_sulfone>  (4) 
0

>  <fr_term_acetylene>  (4) 
0

>  <fr_tetrazole>  (4) 
0

>  <fr_thiazole>  (4) 
0

>  <fr_thiocyan>  (4) 
0

>  <fr_thiophene>  (4) 
0

>  <fr_unbrch_alkane>  (4) 
0

>  <fr_urea>  (4) 
0

>  <NP_Likeness>  (4) 
-0.797907

$$$$
1SB
     RDKit          3D

  0  0  0  0  0  0  0  0  0  0999 V3000
M  V30 BEGIN CTAB
M  V30 COUNTS 37 38 0 0 0
M  V30 BEGIN ATOM
M  V30 1 O -8.664000 -8.040000 20.992000 0
M  V30 2 O -8.751000 -15.748000 16.537000 0
M  V30 3 O -5.532000 -2.884000 21.978000 0
M  V30 4 N -8.806000 -9.651000 18.750000 0
M  V30 5 N -8.817000 -8.250000 18.813000 0
M  V30 6 C -6.645000 -2.174000 22.603000 0
M  V30 7 C -8.945000 -10.121000 17.562000 0
M  V30 8 C -4.826000 -5.493000 19.666000 0
M  V30 9 C -8.877000 -13.957000 18.141000 0
M  V30 10 C -8.789000 -13.464000 15.854000 0
M  V30 11 C -4.643000 -4.486000 20.551000 0
M  V30 12 C -6.103000 -5.926000 19.479000 0
M  V30 13 C -8.960000 -12.575000 18.475000 0
M  V30 14 C -8.845000 -12.096000 16.164000 0
M  V30 15 C -8.503000 -5.955000 19.825000 0
M  V30 16 C -7.048000 -4.326000 20.992000 0
M  V30 17 C -8.661000 -7.485000 19.901000 0
M  V30 18 C -8.807000 -14.425000 16.859000 0
M  V30 19 C -5.735000 -3.922000 21.152000 0
M  V30 20 C -8.924000 -11.627000 17.470000 0
M  V30 21 C -7.195000 -5.383000 20.112000 0
M  V30 22 H -8.760000 -16.439300 17.259500 0
M  V30 23 H -8.957100 -7.768000 17.948100 0
M  V30 24 H -6.289500 -1.437700 23.178800 0
M  V30 25 H -7.234200 -1.787400 21.893500 0
M  V30 26 H -7.173300 -2.810800 23.164600 0
M  V30 27 H -9.058300 -9.534000 16.760400 0
M  V30 28 H -4.058100 -5.900600 19.171800 0
M  V30 29 H -8.869500 -14.622800 18.887100 0
M  V30 30 H -8.735400 -13.751300 14.897700 0
M  V30 31 H -3.722200 -4.158500 20.762900 0
M  V30 32 H -6.255200 -6.683400 18.844000 0
M  V30 33 H -9.043800 -12.292400 19.430600 0
M  V30 34 H -8.827400 -11.432800 15.415700 0
M  V30 35 H -9.149700 -5.557500 20.476000 0
M  V30 36 H -8.750900 -5.677100 18.896900 0
M  V30 37 H -7.816200 -3.895900 21.466300 0
M  V30 END ATOM
M  V30 BEGIN BOND
M  V30 1 2 1 17
M  V30 2 1 2 18
M  V30 3 1 3 6
M  V30 4 1 3 19
M  V30 5 1 4 5
M  V30 6 2 4 7
M  V30 7 1 5 17
M  V30 8 1 7 20
M  V30 9 2 8 11
M  V30 10 1 8 12
M  V30 11 2 9 13
M  V30 12 1 9 18
M  V30 13 1 10 14
M  V30 14 2 10 18
M  V30 15 1 11 19
M  V30 16 2 12 21
M  V30 17 1 13 20
M  V30 18 2 14 20
M  V30 19 1 15 17
M  V30 20 1 15 21
M  V30 21 2 16 19
M  V30 22 1 16 21
M  V30 23 1 2 22
M  V30 24 1 5 23
M  V30 25 1 6 24
M  V30 26 1 6 25
M  V30 27 1 6 26
M  V30 28 1 7 27
M  V30 29 1 8 28
M  V30 30 1 9 29
M  V30 31 1 10 30
M  V30 32 1 11 31
M  V30 33 1 12 32
M  V30 34 1 13 33
M  V30 35 1 14 34
M  V30 36 1 15 35
M  V30 37 1 15 36
M  V30 38 1 16 37
M  V30 END BOND
M  V30 END CTAB
M  END
>  <Ligand_Instance>  (5) 
3OVV_1SB_A_2001

>  <Dataset>  (5) 
PDB

>  <PDB_ID>  (5) 
3OVV

>  <Chain>  (5) 
A

>  <Resi>  (5) 
2001

>  <Num_Resolved_Atoms>  (5) 
21

>  <Num_H_Atoms_ProtBoundConf>  (5) 
16

>  <Pocket>  (5) 
A

>  <Name>  (5) 
N'-[(1E)-(4-hydroxyphenyl)methylidene]-2-(3-methoxyphenyl)acetohydrazide

>  <Num_Not_Resolved_Atoms>  (5) 
0

>  <ATP_Site>  (5) 
True

>  <Peripheral>  (5) 
False

>  <Standardized_SMILES>  (5) 
[H]OC1=C([H])C([H])=C(/C([H])=N/N([H])C(=O)C([H])([H])C2=C([H])C([H])=C([H])C(OC([H])([H])[H])=C2[H])C([H])=C1[H]

>  <2D_Mol_H>  (5) 
<rdkit.Chem.rdchem.Mol object at 0x77059d9da500>

>  <MW>  (5) 
284.315

>  <HBA>  (5) 
4

>  <HBD>  (5) 
2

>  <LogP>  (5) 
2.0936

>  <NRB>  (5) 
7

>  <TPSA>  (5) 
70.92

>  <Num_Heavy_Atoms>  (5) 
21

>  <Ro5>  (5) 
[True, True, True, True, True, True]

>  <Ro5_Fulfilled>  (5) 
True

>  <Ro3>  (5) 
[True, False, True, True]

>  <Ro3_Fulfilled>  (5) 
True

>  <Fsp3>  (5) 
0.125

>  <Fsp3_0.42>  (5) 
False

>  <Fsp3_0.45>  (5) 
False

>  <Stereogenic_Carbons>  (5) 
0

>  <C_Atoms>  (5) 
16

>  <FCStereo>  (5) 
0.0

>  <SPS>  (5) 
221

>  <nSPS>  (5) 
10.52381

>  <PBF>  (5) 
0.834614

>  <PBF_0.6>  (5) 
True

>  <nPBF>  (5) 
0.039744

>  <nPBF_0.016>  (5) 
True

>  <PMI1>  (5) 
449.525706

>  <PMI2>  (5) 
6221.695618

>  <PMI3>  (5) 
6361.051472

>  <NPR1>  (5) 
0.070668

>  <NPR2>  (5) 
0.978092

>  <Sum_NPR>  (5) 
1.048761

>  <Sum_NPR_1.07>  (5) 
False

>  <Sum_NPR_1.2>  (5) 
False

>  <MaxAbsEStateIndex>  (5) 
11.750733

>  <MaxEStateIndex>  (5) 
11.750733

>  <MinAbsEStateIndex>  (5) 
0.189084

>  <MinEStateIndex>  (5) 
-0.209925

>  <qed>  (5) 
0.652149

>  <MolWt>  (5) 
284.315

>  <HeavyAtomMolWt>  (5) 
268.187

>  <ExactMolWt>  (5) 
284.116092

>  <NumValenceElectrons>  (5) 
108

>  <NumRadicalElectrons>  (5) 
0

>  <MaxPartialCharge>  (5) 
0.243984

>  <MinPartialCharge>  (5) 
-0.507966

>  <MaxAbsPartialCharge>  (5) 
0.507966

>  <MinAbsPartialCharge>  (5) 
0.243984

>  <FpDensityMorgan1>  (5) 
1.285714

>  <FpDensityMorgan2>  (5) 
2.047619

>  <FpDensityMorgan3>  (5) 
2.761905

>  <BCUT2D_MWHI>  (5) 
16.465321

>  <BCUT2D_MWLOW>  (5) 
10.132069

>  <BCUT2D_CHGHI>  (5) 
2.02605

>  <BCUT2D_CHGLO>  (5) 
-2.031672

>  <BCUT2D_LOGPHI>  (5) 
2.124186

>  <BCUT2D_LOGPLOW>  (5) 
-2.192562

>  <BCUT2D_MRHI>  (5) 
5.829293

>  <BCUT2D_MRLOW>  (5) 
-0.119914

>  <AvgIpc>  (5) 
2.492639

>  <BalabanJ>  (5) 
1.87813

>  <BertzCT>  (5) 
636.225278

>  <Chi0>  (5) 
15.07914

>  <Chi0n>  (5) 
11.614183

>  <Chi0v>  (5) 
11.614183

>  <Chi1>  (5) 
10.169035

>  <Chi1n>  (5) 
6.410425

>  <Chi1v>  (5) 
6.410425

>  <Chi2n>  (5) 
4.413017

>  <Chi2v>  (5) 
4.413017

>  <Chi3n>  (5) 
2.79479

>  <Chi3v>  (5) 
2.79479

>  <Chi4n>  (5) 
1.746541

>  <Chi4v>  (5) 
1.746541

>  <HallKierAlpha>  (5) 
-2.82

>  <Ipc>  (5) 
60351.764301

>  <Kappa1>  (5) 
14.586228

>  <Kappa2>  (5) 
7.093633

>  <Kappa3>  (5) 
4.649392

>  <LabuteASA>  (5) 
122.432888

>  <PEOE_VSA1>  (5) 
9.84339

>  <PEOE_VSA10>  (5) 
11.499024

>  <PEOE_VSA11>  (5) 
0.0

>  <PEOE_VSA12>  (5) 
5.90718

>  <PEOE_VSA13>  (5) 
0.0

>  <PEOE_VSA14>  (5) 
0.0

>  <PEOE_VSA2>  (5) 
4.794537

>  <PEOE_VSA3>  (5) 
5.425791

>  <PEOE_VSA4>  (5) 
5.101408

>  <PEOE_VSA5>  (5) 
0.0

>  <PEOE_VSA6>  (5) 
12.132734

>  <PEOE_VSA7>  (5) 
47.525105

>  <PEOE_VSA8>  (5) 
0.0

>  <PEOE_VSA9>  (5) 
19.74522

>  <SMR_VSA1>  (5) 
14.637928

>  <SMR_VSA10>  (5) 
12.12178

>  <SMR_VSA2>  (5) 
0.0

>  <SMR_VSA3>  (5) 
5.425791

>  <SMR_VSA4>  (5) 
5.101408

>  <SMR_VSA5>  (5) 
6.420822

>  <SMR_VSA6>  (5) 
7.109798

>  <SMR_VSA7>  (5) 
59.65784

>  <SMR_VSA8>  (5) 
0.0

>  <SMR_VSA9>  (5) 
11.499024

>  <SlogP_VSA1>  (5) 
10.162654

>  <SlogP_VSA10>  (5) 
0.0

>  <SlogP_VSA11>  (5) 
11.499024

>  <SlogP_VSA12>  (5) 
0.0

>  <SlogP_VSA2>  (5) 
24.338105

>  <SlogP_VSA3>  (5) 
11.215359

>  <SlogP_VSA4>  (5) 
0.0

>  <SlogP_VSA5>  (5) 
11.126903

>  <SlogP_VSA6>  (5) 
53.632344

>  <SlogP_VSA7>  (5) 
0.0

>  <SlogP_VSA8>  (5) 
0.0

>  <SlogP_VSA9>  (5) 
0.0

>  <EState_VSA1>  (5) 
0.0

>  <EState_VSA10>  (5) 
4.794537

>  <EState_VSA11>  (5) 
0.0

>  <EState_VSA2>  (5) 
18.077513

>  <EState_VSA3>  (5) 
5.749512

>  <EState_VSA4>  (5) 
11.126903

>  <EState_VSA5>  (5) 
6.214601

>  <EState_VSA6>  (5) 
31.375266

>  <EState_VSA7>  (5) 
24.265468

>  <EState_VSA8>  (5) 
10.527199

>  <EState_VSA9>  (5) 
9.84339

>  <VSA_EState1>  (5) 
5.10329

>  <VSA_EState10>  (5) 
0.0

>  <VSA_EState2>  (5) 
11.750733

>  <VSA_EState3>  (5) 
13.02522

>  <VSA_EState4>  (5) 
4.098876

>  <VSA_EState5>  (5) 
0.694802

>  <VSA_EState6>  (5) 
13.832866

>  <VSA_EState7>  (5) 
1.74309

>  <VSA_EState8>  (5) 
0.0

>  <VSA_EState9>  (5) 
1.584457

>  <FractionCSP3>  (5) 
0.125

>  <HeavyAtomCount>  (5) 
21

>  <NHOHCount>  (5) 
2

>  <NOCount>  (5) 
5

>  <NumAliphaticCarbocycles>  (5) 
0

>  <NumAliphaticHeterocycles>  (5) 
0

>  <NumAliphaticRings>  (5) 
0

>  <NumAromaticCarbocycles>  (5) 
2

>  <NumAromaticHeterocycles>  (5) 
0

>  <NumAromaticRings>  (5) 
2

>  <NumHAcceptors>  (5) 
4

>  <NumHDonors>  (5) 
2

>  <NumHeteroatoms>  (5) 
5

>  <NumRotatableBonds>  (5) 
5

>  <NumSaturatedCarbocycles>  (5) 
0

>  <NumSaturatedHeterocycles>  (5) 
0

>  <NumSaturatedRings>  (5) 
0

>  <RingCount>  (5) 
2

>  <MolLogP>  (5) 
2.0936

>  <MolMR>  (5) 
80.5415

>  <fr_Al_COO>  (5) 
0

>  <fr_Al_OH>  (5) 
0

>  <fr_Al_OH_noTert>  (5) 
0

>  <fr_ArN>  (5) 
0

>  <fr_Ar_COO>  (5) 
0

>  <fr_Ar_N>  (5) 
0

>  <fr_Ar_NH>  (5) 
0

>  <fr_Ar_OH>  (5) 
1

>  <fr_COO>  (5) 
0

>  <fr_COO2>  (5) 
0

>  <fr_C_O>  (5) 
1

>  <fr_C_O_noCOO>  (5) 
1

>  <fr_C_S>  (5) 
0

>  <fr_HOCCN>  (5) 
0

>  <fr_Imine>  (5) 
0

>  <fr_NH0>  (5) 
1

>  <fr_NH1>  (5) 
1

>  <fr_NH2>  (5) 
0

>  <fr_N_O>  (5) 
0

>  <fr_Ndealkylation1>  (5) 
0

>  <fr_Ndealkylation2>  (5) 
0

>  <fr_Nhpyrrole>  (5) 
0

>  <fr_SH>  (5) 
0

>  <fr_aldehyde>  (5) 
0

>  <fr_alkyl_carbamate>  (5) 
0

>  <fr_alkyl_halide>  (5) 
0

>  <fr_allylic_oxid>  (5) 
0

>  <fr_amide>  (5) 
1

>  <fr_amidine>  (5) 
0

>  <fr_aniline>  (5) 
0

>  <fr_aryl_methyl>  (5) 
0

>  <fr_azide>  (5) 
0

>  <fr_azo>  (5) 
0

>  <fr_barbitur>  (5) 
0

>  <fr_benzene>  (5) 
2

>  <fr_benzodiazepine>  (5) 
0

>  <fr_bicyclic>  (5) 
0

>  <fr_diazo>  (5) 
0

>  <fr_dihydropyridine>  (5) 
0

>  <fr_epoxide>  (5) 
0

>  <fr_ester>  (5) 
0

>  <fr_ether>  (5) 
1

>  <fr_furan>  (5) 
0

>  <fr_guanido>  (5) 
0

>  <fr_halogen>  (5) 
0

>  <fr_hdrzine>  (5) 
0

>  <fr_hdrzone>  (5) 
1

>  <fr_imidazole>  (5) 
0

>  <fr_imide>  (5) 
0

>  <fr_isocyan>  (5) 
0

>  <fr_isothiocyan>  (5) 
0

>  <fr_ketone>  (5) 
0

>  <fr_ketone_Topliss>  (5) 
0

>  <fr_lactam>  (5) 
0

>  <fr_lactone>  (5) 
0

>  <fr_methoxy>  (5) 
1

>  <fr_morpholine>  (5) 
0

>  <fr_nitrile>  (5) 
0

>  <fr_nitro>  (5) 
0

>  <fr_nitro_arom>  (5) 
0

>  <fr_nitro_arom_nonortho>  (5) 
0

>  <fr_nitroso>  (5) 
0

>  <fr_oxazole>  (5) 
0

>  <fr_oxime>  (5) 
0

>  <fr_para_hydroxylation>  (5) 
0

>  <fr_phenol>  (5) 
1

>  <fr_phenol_noOrthoHbond>  (5) 
1

>  <fr_phos_acid>  (5) 
0

>  <fr_phos_ester>  (5) 
0

>  <fr_piperdine>  (5) 
0

>  <fr_piperzine>  (5) 
0

>  <fr_priamide>  (5) 
0

>  <fr_prisulfonamd>  (5) 
0

>  <fr_pyridine>  (5) 
0

>  <fr_quatN>  (5) 
0

>  <fr_sulfide>  (5) 
0

>  <fr_sulfonamd>  (5) 
0

>  <fr_sulfone>  (5) 
0

>  <fr_term_acetylene>  (5) 
0

>  <fr_tetrazole>  (5) 
0

>  <fr_thiazole>  (5) 
0

>  <fr_thiocyan>  (5) 
0

>  <fr_thiophene>  (5) 
0

>  <fr_unbrch_alkane>  (5) 
0

>  <fr_urea>  (5) 
0

>  <NP_Likeness>  (5) 
-1.182484

$$$$
1SQ
     RDKit          3D

  0  0  0  0  0  0  0  0  0  0999 V3000
M  V30 BEGIN CTAB
M  V30 COUNTS 19 20 0 0 0
M  V30 BEGIN ATOM
M  V30 1 N -24.060000 23.385000 -17.530000 0
M  V30 2 N -26.360000 23.581000 -17.303000 0
M  V30 3 C -27.476000 24.127000 -16.765000 0
M  V30 4 C -24.727000 26.977000 -14.016000 0
M  V30 5 C -23.585000 26.414000 -14.569000 0
M  V30 6 C -27.387000 25.143000 -15.863000 0
M  V30 7 C -25.969000 26.609000 -14.457000 0
M  V30 8 C -23.681000 25.467000 -15.551000 0
M  V30 9 C -25.100000 23.981000 -16.986000 0
M  V30 10 C -26.114000 25.620000 -15.462000 0
M  V30 11 C -24.945000 25.032000 -16.026000 0
M  V30 12 H -23.134300 23.681400 -17.294900 0
M  V30 13 H -24.195600 22.635800 -18.178400 0
M  V30 14 H -28.375000 23.780500 -17.032900 0
M  V30 15 H -24.641200 27.657800 -13.288600 0
M  V30 16 H -22.683800 26.703500 -14.246400 0
M  V30 17 H -28.217500 25.551600 -15.484500 0
M  V30 18 H -26.781700 27.041700 -14.066700 0
M  V30 19 H -22.847400 25.075100 -15.940200 0
M  V30 END ATOM
M  V30 BEGIN BOND
M  V30 1 1 1 9
M  V30 2 2 2 3
M  V30 3 1 2 9
M  V30 4 1 3 6
M  V30 5 1 4 5
M  V30 6 2 4 7
M  V30 7 2 5 8
M  V30 8 2 6 10
M  V30 9 1 7 10
M  V30 10 1 8 11
M  V30 11 2 9 11
M  V30 12 1 10 11
M  V30 13 1 1 12
M  V30 14 1 1 13
M  V30 15 1 3 14
M  V30 16 1 4 15
M  V30 17 1 5 16
M  V30 18 1 6 17
M  V30 19 1 7 18
M  V30 20 1 8 19
M  V30 END BOND
M  V30 END CTAB
M  END
>  <Ligand_Instance>  (6) 
7AXW_1SQ_A_401

>  <Dataset>  (6) 
PDB

>  <PDB_ID>  (6) 
7AXW

>  <Chain>  (6) 
A

>  <Resi>  (6) 
401

>  <Num_Resolved_Atoms>  (6) 
11

>  <Num_H_Atoms_ProtBoundConf>  (6) 
8

>  <Pocket>  (6) 
A

>  <Name>  (6) 
ISOQUINOLIN-1-AMINE

>  <Num_Not_Resolved_Atoms>  (6) 
0

>  <ATP_Site>  (6) 
True

>  <Peripheral>  (6) 
False

>  <Standardized_SMILES>  (6) 
[H]C1=C([H])C2=C([H])C([H])=C([H])C([H])=C2C(N([H])[H])=N1

>  <2D_Mol_H>  (6) 
<rdkit.Chem.rdchem.Mol object at 0x77059d9da5e0>

>  <MW>  (6) 
144.177

>  <HBA>  (6) 
2

>  <HBD>  (6) 
1

>  <LogP>  (6) 
1.817

>  <NRB>  (6) 
1

>  <TPSA>  (6) 
38.91

>  <Num_Heavy_Atoms>  (6) 
11

>  <Ro5>  (6) 
[True, True, True, True, True, True]

>  <Ro5_Fulfilled>  (6) 
True

>  <Ro3>  (6) 
[True, True, True, True]

>  <Ro3_Fulfilled>  (6) 
True

>  <Fsp3>  (6) 
0.0

>  <Fsp3_0.42>  (6) 
False

>  <Fsp3_0.45>  (6) 
False

>  <Stereogenic_Carbons>  (6) 
0

>  <C_Atoms>  (6) 
9

>  <FCStereo>  (6) 
0.0

>  <SPS>  (6) 
112

>  <nSPS>  (6) 
10.181818

>  <PBF>  (6) 
0.040747

>  <PBF_0.6>  (6) 
False

>  <nPBF>  (6) 
0.003704

>  <nPBF_0.016>  (6) 
False

>  <PMI1>  (6) 
249.846669

>  <PMI2>  (6) 
442.523501

>  <PMI3>  (6) 
691.993243

>  <NPR1>  (6) 
0.361054

>  <NPR2>  (6) 
0.639491

>  <Sum_NPR>  (6) 
1.000545

>  <Sum_NPR_1.07>  (6) 
False

>  <Sum_NPR_1.2>  (6) 
False

>  <MaxAbsEStateIndex>  (6) 
5.645093

>  <MaxEStateIndex>  (6) 
5.645093

>  <MinAbsEStateIndex>  (6) 
0.600093

>  <MinEStateIndex>  (6) 
0.600093

>  <qed>  (6) 
0.612085

>  <MolWt>  (6) 
144.177

>  <HeavyAtomMolWt>  (6) 
136.113

>  <ExactMolWt>  (6) 
144.068748

>  <NumValenceElectrons>  (6) 
54

>  <NumRadicalElectrons>  (6) 
0

>  <MaxPartialCharge>  (6) 
0.130712

>  <MinPartialCharge>  (6) 
-0.383186

>  <MaxAbsPartialCharge>  (6) 
0.383186

>  <MinAbsPartialCharge>  (6) 
0.130712

>  <FpDensityMorgan1>  (6) 
1.090909

>  <FpDensityMorgan2>  (6) 
1.909091

>  <FpDensityMorgan3>  (6) 
2.727273

>  <BCUT2D_MWHI>  (6) 
14.814548

>  <BCUT2D_MWLOW>  (6) 
10.154542

>  <BCUT2D_CHGHI>  (6) 
1.936312

>  <BCUT2D_CHGLO>  (6) 
-1.973274

>  <BCUT2D_LOGPHI>  (6) 
2.162052

>  <BCUT2D_LOGPLOW>  (6) 
-1.889825

>  <BCUT2D_MRHI>  (6) 
5.899059

>  <BCUT2D_MRLOW>  (6) 
1.369076

>  <AvgIpc>  (6) 
2.05595

>  <BalabanJ>  (6) 
2.913161

>  <BertzCT>  (6) 
376.724446

>  <Chi0>  (6) 
7.681798

>  <Chi0n>  (6) 
5.988665

>  <Chi0v>  (6) 
5.988665

>  <Chi1>  (6) 
5.37701

>  <Chi1n>  (6) 
3.46984

>  <Chi1v>  (6) 
3.46984

>  <Chi2n>  (6) 
2.417328

>  <Chi2v>  (6) 
2.417328

>  <Chi3n>  (6) 
1.704459

>  <Chi3v>  (6) 
1.704459

>  <Chi4n>  (6) 
1.143019

>  <Chi4v>  (6) 
1.143019

>  <HallKierAlpha>  (6) 
-1.57

>  <Ipc>  (6) 
505.763735

>  <Kappa1>  (6) 
6.160248

>  <Kappa2>  (6) 
2.234974

>  <Kappa3>  (6) 
0.923217

>  <LabuteASA>  (6) 
64.672606

>  <PEOE_VSA1>  (6) 
5.733667

>  <PEOE_VSA10>  (6) 
5.817863

>  <PEOE_VSA11>  (6) 
0.0

>  <PEOE_VSA12>  (6) 
0.0

>  <PEOE_VSA13>  (6) 
0.0

>  <PEOE_VSA14>  (6) 
0.0

>  <PEOE_VSA2>  (6) 
0.0

>  <PEOE_VSA3>  (6) 
4.983979

>  <PEOE_VSA4>  (6) 
0.0

>  <PEOE_VSA5>  (6) 
0.0

>  <PEOE_VSA6>  (6) 
24.265468

>  <PEOE_VSA7>  (6) 
11.452591

>  <PEOE_VSA8>  (6) 
11.583068

>  <PEOE_VSA9>  (6) 
0.0

>  <SMR_VSA1>  (6) 
0.0

>  <SMR_VSA10>  (6) 
16.590311

>  <SMR_VSA2>  (6) 
0.0

>  <SMR_VSA3>  (6) 
4.983979

>  <SMR_VSA4>  (6) 
0.0

>  <SMR_VSA5>  (6) 
0.0

>  <SMR_VSA6>  (6) 
5.733667

>  <SMR_VSA7>  (6) 
36.528679

>  <SMR_VSA8>  (6) 
0.0

>  <SMR_VSA9>  (6) 
0.0

>  <SlogP_VSA1>  (6) 
5.733667

>  <SlogP_VSA10>  (6) 
5.817863

>  <SlogP_VSA11>  (6) 
0.0

>  <SlogP_VSA12>  (6) 
0.0

>  <SlogP_VSA2>  (6) 
4.983979

>  <SlogP_VSA3>  (6) 
0.0

>  <SlogP_VSA4>  (6) 
0.0

>  <SlogP_VSA5>  (6) 
0.0

>  <SlogP_VSA6>  (6) 
36.528679

>  <SlogP_VSA7>  (6) 
0.0

>  <SlogP_VSA8>  (6) 
10.772448

>  <SlogP_VSA9>  (6) 
0.0

>  <EState_VSA1>  (6) 
0.0

>  <EState_VSA10>  (6) 
0.0

>  <EState_VSA11>  (6) 
0.0

>  <EState_VSA2>  (6) 
0.0

>  <EState_VSA3>  (6) 
5.817863

>  <EState_VSA4>  (6) 
10.772448

>  <EState_VSA5>  (6) 
0.0

>  <EState_VSA6>  (6) 
6.196844

>  <EState_VSA7>  (6) 
30.331835

>  <EState_VSA8>  (6) 
4.983979

>  <EState_VSA9>  (6) 
5.733667

>  <VSA_EState1>  (6) 
0.0

>  <VSA_EState10>  (6) 
0.0

>  <VSA_EState2>  (6) 
3.985093

>  <VSA_EState3>  (6) 
2.162037

>  <VSA_EState4>  (6) 
5.645093

>  <VSA_EState5>  (6) 
0.600093

>  <VSA_EState6>  (6) 
9.887778

>  <VSA_EState7>  (6) 
1.719907

>  <VSA_EState8>  (6) 
0.0

>  <VSA_EState9>  (6) 
0.0

>  <FractionCSP3>  (6) 
0.0

>  <HeavyAtomCount>  (6) 
11

>  <NHOHCount>  (6) 
2

>  <NOCount>  (6) 
2

>  <NumAliphaticCarbocycles>  (6) 
0

>  <NumAliphaticHeterocycles>  (6) 
0

>  <NumAliphaticRings>  (6) 
0

>  <NumAromaticCarbocycles>  (6) 
1

>  <NumAromaticHeterocycles>  (6) 
1

>  <NumAromaticRings>  (6) 
2

>  <NumHAcceptors>  (6) 
2

>  <NumHDonors>  (6) 
1

>  <NumHeteroatoms>  (6) 
2

>  <NumRotatableBonds>  (6) 
0

>  <NumSaturatedCarbocycles>  (6) 
0

>  <NumSaturatedHeterocycles>  (6) 
0

>  <NumSaturatedRings>  (6) 
0

>  <RingCount>  (6) 
2

>  <MolLogP>  (6) 
1.817

>  <MolMR>  (6) 
46.1554

>  <fr_Al_COO>  (6) 
0

>  <fr_Al_OH>  (6) 
0

>  <fr_Al_OH_noTert>  (6) 
0

>  <fr_ArN>  (6) 
1

>  <fr_Ar_COO>  (6) 
0

>  <fr_Ar_N>  (6) 
1

>  <fr_Ar_NH>  (6) 
0

>  <fr_Ar_OH>  (6) 
0

>  <fr_COO>  (6) 
0

>  <fr_COO2>  (6) 
0

>  <fr_C_O>  (6) 
0

>  <fr_C_O_noCOO>  (6) 
0

>  <fr_C_S>  (6) 
0

>  <fr_HOCCN>  (6) 
0

>  <fr_Imine>  (6) 
0

>  <fr_NH0>  (6) 
1

>  <fr_NH1>  (6) 
0

>  <fr_NH2>  (6) 
1

>  <fr_N_O>  (6) 
0

>  <fr_Ndealkylation1>  (6) 
0

>  <fr_Ndealkylation2>  (6) 
0

>  <fr_Nhpyrrole>  (6) 
0

>  <fr_SH>  (6) 
0

>  <fr_aldehyde>  (6) 
0

>  <fr_alkyl_carbamate>  (6) 
0

>  <fr_alkyl_halide>  (6) 
0

>  <fr_allylic_oxid>  (6) 
0

>  <fr_amide>  (6) 
0

>  <fr_amidine>  (6) 
0

>  <fr_aniline>  (6) 
1

>  <fr_aryl_methyl>  (6) 
0

>  <fr_azide>  (6) 
0

>  <fr_azo>  (6) 
0

>  <fr_barbitur>  (6) 
0

>  <fr_benzene>  (6) 
1

>  <fr_benzodiazepine>  (6) 
0

>  <fr_bicyclic>  (6) 
1

>  <fr_diazo>  (6) 
0

>  <fr_dihydropyridine>  (6) 
0

>  <fr_epoxide>  (6) 
0

>  <fr_ester>  (6) 
0

>  <fr_ether>  (6) 
0

>  <fr_furan>  (6) 
0

>  <fr_guanido>  (6) 
0

>  <fr_halogen>  (6) 
0

>  <fr_hdrzine>  (6) 
0

>  <fr_hdrzone>  (6) 
0

>  <fr_imidazole>  (6) 
0

>  <fr_imide>  (6) 
0

>  <fr_isocyan>  (6) 
0

>  <fr_isothiocyan>  (6) 
0

>  <fr_ketone>  (6) 
0

>  <fr_ketone_Topliss>  (6) 
0

>  <fr_lactam>  (6) 
0

>  <fr_lactone>  (6) 
0

>  <fr_methoxy>  (6) 
0

>  <fr_morpholine>  (6) 
0

>  <fr_nitrile>  (6) 
0

>  <fr_nitro>  (6) 
0

>  <fr_nitro_arom>  (6) 
0

>  <fr_nitro_arom_nonortho>  (6) 
0

>  <fr_nitroso>  (6) 
0

>  <fr_oxazole>  (6) 
0

>  <fr_oxime>  (6) 
0

>  <fr_para_hydroxylation>  (6) 
0

>  <fr_phenol>  (6) 
0

>  <fr_phenol_noOrthoHbond>  (6) 
0

>  <fr_phos_acid>  (6) 
0

>  <fr_phos_ester>  (6) 
0

>  <fr_piperdine>  (6) 
0

>  <fr_piperzine>  (6) 
0

>  <fr_priamide>  (6) 
0

>  <fr_prisulfonamd>  (6) 
0

>  <fr_pyridine>  (6) 
1

>  <fr_quatN>  (6) 
0

>  <fr_sulfide>  (6) 
0

>  <fr_sulfonamd>  (6) 
0

>  <fr_sulfone>  (6) 
0

>  <fr_term_acetylene>  (6) 
0

>  <fr_tetrazole>  (6) 
0

>  <fr_thiazole>  (6) 
0

>  <fr_thiocyan>  (6) 
0

>  <fr_thiophene>  (6) 
0

>  <fr_unbrch_alkane>  (6) 
0

>  <fr_urea>  (6) 
0

>  <NP_Likeness>  (6) 
-0.310668

$$$$
2PY
     RDKit          3D

  0  0  0  0  0  0  0  0  0  0999 V3000
M  V30 BEGIN CTAB
M  V30 COUNTS 51 55 0 0 0
M  V30 BEGIN ATOM
M  V30 1 O 11.675000 8.855000 1.463000 0
M  V30 2 N 13.581000 7.008000 1.544000 0 CHG=1
M  V30 3 N 3.325000 10.201000 4.858000 0
M  V30 4 N 9.506000 10.530000 -0.905000 0
M  V30 5 N 2.958000 10.102000 3.576000 0
M  V30 6 N 15.580000 10.448000 -0.133000 0
M  V30 7 C 11.804000 8.220000 2.723000 0
M  V30 8 C 13.449000 13.544000 0.279000 0
M  V30 9 C 12.819000 13.179000 1.508000 0
M  V30 10 C 4.667000 10.238000 4.968000 0
M  V30 11 C 10.565000 9.971000 -0.286000 0
M  V30 12 C 8.292000 10.548000 -0.280000 0
M  V30 13 C 15.543000 9.432000 0.788000 0
M  V30 14 C 14.400000 12.669000 -0.340000 0
M  V30 15 C 13.129000 11.937000 2.131000 0
M  V30 16 C 4.210000 9.971000 1.351000 0
M  V30 17 C 5.526000 9.960000 0.810000 0
M  V30 18 C 9.197000 9.424000 1.644000 0
M  V30 19 C 14.305000 8.888000 3.022000 0
M  V30 20 C 6.486000 10.142000 3.059000 0
M  V30 21 C 10.473000 9.398000 0.997000 0
M  V30 22 C 13.277000 7.743000 2.797000 0 CFG=2
M  V30 23 C 4.027000 10.065000 2.723000 0
M  V30 24 C 14.704000 11.449000 0.272000 0
M  V30 25 C 5.180000 10.154000 3.606000 0
M  V30 26 C 8.073000 10.008000 1.006000 0
M  V30 27 C 14.651000 9.749000 1.801000 0
M  V30 28 C 6.695000 10.044000 1.639000 0
M  V30 29 C 14.102000 11.045000 1.489000 0
M  V30 30 H 14.528300 6.688600 1.566400 0
M  V30 31 H 12.966600 6.223500 1.460300 0
M  V30 32 H 2.005800 10.059600 3.273600 0
M  V30 33 H 16.143600 10.465800 -0.958800 0
M  V30 34 H 11.180600 7.440700 2.787200 0
M  V30 35 H 11.608000 8.865300 3.461300 0
M  V30 36 H 13.224500 14.417500 -0.153000 0
M  V30 37 H 12.158000 13.798000 1.932200 0
M  V30 38 H 5.201300 10.308600 5.810400 0
M  V30 39 H 11.448100 9.962900 -0.755000 0
M  V30 40 H 7.518600 10.964900 -0.757500 0
M  V30 41 H 16.078900 8.589300 0.736500 0
M  V30 42 H 14.841000 12.927700 -1.199400 0
M  V30 43 H 12.691200 11.676700 2.991600 0
M  V30 44 H 3.418200 9.911100 0.743200 0
M  V30 45 H 5.640400 9.891400 -0.181100 0
M  V30 46 H 9.096700 9.026100 2.555900 0
M  V30 47 H 15.153400 8.473700 3.351500 0
M  V30 48 H 13.934800 9.494300 3.725800 0
M  V30 49 H 7.275700 10.202600 3.669500 0
M  V30 50 H 13.356700 7.101100 3.559600 0
M  V30 51 H 13.452900 7.616700 0.761000 0
M  V30 END ATOM
M  V30 BEGIN BOND
M  V30 1 1 1 7
M  V30 2 1 1 21
M  V30 3 1 2 22
M  V30 4 1 3 5
M  V30 5 2 3 10
M  V30 6 2 4 11
M  V30 7 1 4 12
M  V30 8 1 5 23
M  V30 9 1 6 13
M  V30 10 1 6 24
M  V30 11 1 7 22
M  V30 12 2 8 9
M  V30 13 1 8 14
M  V30 14 1 9 15
M  V30 15 1 10 25
M  V30 16 1 11 21
M  V30 17 2 12 26
M  V30 18 2 13 27
M  V30 19 2 14 24
M  V30 20 2 15 29
M  V30 21 1 16 17
M  V30 22 2 16 23
M  V30 23 2 17 28
M  V30 24 2 18 21
M  V30 25 1 18 26
M  V30 26 1 19 22
M  V30 27 1 19 27
M  V30 28 2 20 25
M  V30 29 1 20 28
M  V30 30 1 23 25
M  V30 31 1 24 29
M  V30 32 1 26 28
M  V30 33 1 27 29
M  V30 34 1 2 30
M  V30 35 1 2 31
M  V30 36 1 5 32
M  V30 37 1 6 33
M  V30 38 1 7 34
M  V30 39 1 7 35
M  V30 40 1 8 36
M  V30 41 1 9 37
M  V30 42 1 10 38
M  V30 43 1 11 39
M  V30 44 1 12 40
M  V30 45 1 13 41
M  V30 46 1 14 42
M  V30 47 1 15 43
M  V30 48 1 16 44
M  V30 49 1 17 45
M  V30 50 1 18 46
M  V30 51 1 19 47
M  V30 52 1 19 48
M  V30 53 1 20 49
M  V30 54 1 22 50 CFG=1
M  V30 55 1 2 51
M  V30 END BOND
M  V30 END CTAB
M  END
>  <Ligand_Instance>  (7) 
2OH0_2PY_E_351

>  <Dataset>  (7) 
PDB

>  <PDB_ID>  (7) 
2OH0

>  <Chain>  (7) 
E

>  <Resi>  (7) 
351

>  <Num_Resolved_Atoms>  (7) 
29

>  <Num_H_Atoms_ProtBoundConf>  (7) 
22

>  <Pocket>  (7) 
A

>  <Name>  (7) 
(2S)-1-{[5-(1H-INDAZOL-5-YL)PYRIDIN-3-YL]OXY}-3-[(7AS)-7AH-INDOL-3-YL]PROPAN-2-AMINE

>  <Num_Not_Resolved_Atoms>  (7) 
0

>  <ATP_Site>  (7) 
True

>  <Peripheral>  (7) 
False

>  <Standardized_SMILES>  (7) 
[H]C1=NC([H])=C(C2=C([H])C([H])=C3C(=C2[H])C([H])=NN3[H])C([H])=C1OC([H])([H])[C@]([H])(C([H])([H])C1=C([H])N([H])C2=C([H])C([H])=C([H])C([H])=C21)[N+]([H])([H])[H]

>  <2D_Mol_H>  (7) 
<rdkit.Chem.rdchem.Mol object at 0x77059d9da6c0>

>  <MW>  (7) 
384.463

>  <HBA>  (7) 
3

>  <HBD>  (7) 
3

>  <LogP>  (7) 
3.3382

>  <NRB>  (7) 
7

>  <TPSA>  (7) 
94.23

>  <Num_Heavy_Atoms>  (7) 
29

>  <Ro5>  (7) 
[True, True, True, True, True, True]

>  <Ro5_Fulfilled>  (7) 
True

>  <Ro3>  (7) 
[False, True, True, False]

>  <Ro3_Fulfilled>  (7) 
False

>  <Fsp3>  (7) 
0.130435

>  <Fsp3_0.42>  (7) 
False

>  <Fsp3_0.45>  (7) 
False

>  <Stereogenic_Carbons>  (7) 
1

>  <C_Atoms>  (7) 
23

>  <FCStereo>  (7) 
0.043478

>  <SPS>  (7) 
361

>  <nSPS>  (7) 
12.448276

>  <PBF>  (7) 
1.130387

>  <PBF_0.6>  (7) 
True

>  <nPBF>  (7) 
0.038979

>  <nPBF_0.016>  (7) 
True

>  <PMI1>  (7) 
1480.898497

>  <PMI2>  (7) 
7258.526473

>  <PMI3>  (7) 
7705.311432

>  <NPR1>  (7) 
0.192192

>  <NPR2>  (7) 
0.942016

>  <Sum_NPR>  (7) 
1.134208

>  <Sum_NPR_1.07>  (7) 
True

>  <Sum_NPR_1.2>  (7) 
False

>  <MaxAbsEStateIndex>  (7) 
6.009541

>  <MaxEStateIndex>  (7) 
6.009541

>  <MinAbsEStateIndex>  (7) 
0.139021

>  <MinEStateIndex>  (7) 
0.139021

>  <qed>  (7) 
0.419021

>  <MolWt>  (7) 
384.463

>  <HeavyAtomMolWt>  (7) 
362.287

>  <ExactMolWt>  (7) 
384.181887

>  <NumValenceElectrons>  (7) 
144

>  <NumRadicalElectrons>  (7) 
0

>  <MaxPartialCharge>  (7) 
0.140113

>  <MinPartialCharge>  (7) 
-0.485747

>  <MaxAbsPartialCharge>  (7) 
0.485747

>  <MinAbsPartialCharge>  (7) 
0.140113

>  <FpDensityMorgan1>  (7) 
0.965517

>  <FpDensityMorgan2>  (7) 
1.896552

>  <FpDensityMorgan3>  (7) 
2.862069

>  <BCUT2D_MWHI>  (7) 
16.478402

>  <BCUT2D_MWLOW>  (7) 
10.056707

>  <BCUT2D_CHGHI>  (7) 
2.126628

>  <BCUT2D_CHGLO>  (7) 
-2.111435

>  <BCUT2D_LOGPHI>  (7) 
2.255652

>  <BCUT2D_LOGPLOW>  (7) 
-2.641605

>  <BCUT2D_MRHI>  (7) 
5.840077

>  <BCUT2D_MRLOW>  (7) 
-0.422665

>  <AvgIpc>  (7) 
3.390447

>  <BalabanJ>  (7) 
1.273792

>  <BertzCT>  (7) 
1272.501214

>  <Chi0>  (7) 
19.631181

>  <Chi0n>  (7) 
15.929549

>  <Chi0v>  (7) 
15.929549

>  <Chi1>  (7) 
14.259153

>  <Chi1n>  (7) 
9.655411

>  <Chi1v>  (7) 
9.655411

>  <Chi2n>  (7) 
7.322001

>  <Chi2v>  (7) 
7.322001

>  <Chi3n>  (7) 
5.155904

>  <Chi3v>  (7) 
5.155904

>  <Chi4n>  (7) 
3.662414

>  <Chi4v>  (7) 
3.662414

>  <HallKierAlpha>  (7) 
-3.64

>  <Ipc>  (7) 
10394608.161931

>  <Kappa1>  (7) 
17.457888

>  <Kappa2>  (7) 
7.408172

>  <Kappa3>  (7) 
3.575941

>  <LabuteASA>  (7) 
167.283253

>  <PEOE_VSA1>  (7) 
15.454509

>  <PEOE_VSA10>  (7) 
18.398235

>  <PEOE_VSA11>  (7) 
0.0

>  <PEOE_VSA12>  (7) 
0.0

>  <PEOE_VSA13>  (7) 
0.0

>  <PEOE_VSA14>  (7) 
0.0

>  <PEOE_VSA2>  (7) 
10.08266

>  <PEOE_VSA3>  (7) 
0.0

>  <PEOE_VSA4>  (7) 
5.098682

>  <PEOE_VSA5>  (7) 
0.0

>  <PEOE_VSA6>  (7) 
24.265468

>  <PEOE_VSA7>  (7) 
35.392371

>  <PEOE_VSA8>  (7) 
40.667109

>  <PEOE_VSA9>  (7) 
17.910388

>  <SMR_VSA1>  (7) 
10.47053

>  <SMR_VSA10>  (7) 
21.80585

>  <SMR_VSA2>  (7) 
0.0

>  <SMR_VSA3>  (7) 
20.165321

>  <SMR_VSA4>  (7) 
0.0

>  <SMR_VSA5>  (7) 
12.462662

>  <SMR_VSA6>  (7) 
6.606882

>  <SMR_VSA7>  (7) 
78.881762

>  <SMR_VSA8>  (7) 
0.0

>  <SMR_VSA9>  (7) 
16.876415

>  <SlogP_VSA1>  (7) 
10.47053

>  <SlogP_VSA10>  (7) 
0.0

>  <SlogP_VSA11>  (7) 
5.749512

>  <SlogP_VSA12>  (7) 
0.0

>  <SlogP_VSA2>  (7) 
32.814043

>  <SlogP_VSA3>  (7) 
6.420822

>  <SlogP_VSA4>  (7) 
0.0

>  <SlogP_VSA5>  (7) 
5.563451

>  <SlogP_VSA6>  (7) 
73.318311

>  <SlogP_VSA7>  (7) 
0.0

>  <SlogP_VSA8>  (7) 
32.932753

>  <SlogP_VSA9>  (7) 
0.0

>  <EState_VSA1>  (7) 
0.0

>  <EState_VSA10>  (7) 
0.0

>  <EState_VSA11>  (7) 
0.0

>  <EState_VSA2>  (7) 
6.041841

>  <EState_VSA3>  (7) 
6.606882

>  <EState_VSA4>  (7) 
39.716862

>  <EState_VSA5>  (7) 
10.949676

>  <EState_VSA6>  (7) 
6.196844

>  <EState_VSA7>  (7) 
30.592788

>  <EState_VSA8>  (7) 
62.427667

>  <EState_VSA9>  (7) 
4.736863

>  <VSA_EState1>  (7) 
6.009541

>  <VSA_EState10>  (7) 
0.0

>  <VSA_EState2>  (7) 
7.667836

>  <VSA_EState3>  (7) 
9.373124

>  <VSA_EState4>  (7) 
9.81793

>  <VSA_EState5>  (7) 
0.752192

>  <VSA_EState6>  (7) 
16.669627

>  <VSA_EState7>  (7) 
8.343275

>  <VSA_EState8>  (7) 
0.533141

>  <VSA_EState9>  (7) 
0.0

>  <FractionCSP3>  (7) 
0.130435

>  <HeavyAtomCount>  (7) 
29

>  <NHOHCount>  (7) 
5

>  <NOCount>  (7) 
6

>  <NumAliphaticCarbocycles>  (7) 
0

>  <NumAliphaticHeterocycles>  (7) 
0

>  <NumAliphaticRings>  (7) 
0

>  <NumAromaticCarbocycles>  (7) 
2

>  <NumAromaticHeterocycles>  (7) 
3

>  <NumAromaticRings>  (7) 
5

>  <NumHAcceptors>  (7) 
3

>  <NumHDonors>  (7) 
3

>  <NumHeteroatoms>  (7) 
6

>  <NumRotatableBonds>  (7) 
6

>  <NumSaturatedCarbocycles>  (7) 
0

>  <NumSaturatedHeterocycles>  (7) 
0

>  <NumSaturatedRings>  (7) 
0

>  <RingCount>  (7) 
5

>  <MolLogP>  (7) 
3.3382

>  <MolMR>  (7) 
113.4985

>  <fr_Al_COO>  (7) 
0

>  <fr_Al_OH>  (7) 
0

>  <fr_Al_OH_noTert>  (7) 
0

>  <fr_ArN>  (7) 
0

>  <fr_Ar_COO>  (7) 
0

>  <fr_Ar_N>  (7) 
4

>  <fr_Ar_NH>  (7) 
2

>  <fr_Ar_OH>  (7) 
0

>  <fr_COO>  (7) 
0

>  <fr_COO2>  (7) 
0

>  <fr_C_O>  (7) 
0

>  <fr_C_O_noCOO>  (7) 
0

>  <fr_C_S>  (7) 
0

>  <fr_HOCCN>  (7) 
0

>  <fr_Imine>  (7) 
0

>  <fr_NH0>  (7) 
2

>  <fr_NH1>  (7) 
2

>  <fr_NH2>  (7) 
0

>  <fr_N_O>  (7) 
0

>  <fr_Ndealkylation1>  (7) 
0

>  <fr_Ndealkylation2>  (7) 
0

>  <fr_Nhpyrrole>  (7) 
2

>  <fr_SH>  (7) 
0

>  <fr_aldehyde>  (7) 
0

>  <fr_alkyl_carbamate>  (7) 
0

>  <fr_alkyl_halide>  (7) 
0

>  <fr_allylic_oxid>  (7) 
0

>  <fr_amide>  (7) 
0

>  <fr_amidine>  (7) 
0

>  <fr_aniline>  (7) 
0

>  <fr_aryl_methyl>  (7) 
0

>  <fr_azide>  (7) 
0

>  <fr_azo>  (7) 
0

>  <fr_barbitur>  (7) 
0

>  <fr_benzene>  (7) 
2

>  <fr_benzodiazepine>  (7) 
0

>  <fr_bicyclic>  (7) 
2

>  <fr_diazo>  (7) 
0

>  <fr_dihydropyridine>  (7) 
0

>  <fr_epoxide>  (7) 
0

>  <fr_ester>  (7) 
0

>  <fr_ether>  (7) 
1

>  <fr_furan>  (7) 
0

>  <fr_guanido>  (7) 
0

>  <fr_halogen>  (7) 
0

>  <fr_hdrzine>  (7) 
0

>  <fr_hdrzone>  (7) 
0

>  <fr_imidazole>  (7) 
0

>  <fr_imide>  (7) 
0

>  <fr_isocyan>  (7) 
0

>  <fr_isothiocyan>  (7) 
0

>  <fr_ketone>  (7) 
0

>  <fr_ketone_Topliss>  (7) 
0

>  <fr_lactam>  (7) 
0

>  <fr_lactone>  (7) 
0

>  <fr_methoxy>  (7) 
0

>  <fr_morpholine>  (7) 
0

>  <fr_nitrile>  (7) 
0

>  <fr_nitro>  (7) 
0

>  <fr_nitro_arom>  (7) 
0

>  <fr_nitro_arom_nonortho>  (7) 
0

>  <fr_nitroso>  (7) 
0

>  <fr_oxazole>  (7) 
0

>  <fr_oxime>  (7) 
0

>  <fr_para_hydroxylation>  (7) 
1

>  <fr_phenol>  (7) 
0

>  <fr_phenol_noOrthoHbond>  (7) 
0

>  <fr_phos_acid>  (7) 
0

>  <fr_phos_ester>  (7) 
0

>  <fr_piperdine>  (7) 
0

>  <fr_piperzine>  (7) 
0

>  <fr_priamide>  (7) 
0

>  <fr_prisulfonamd>  (7) 
0

>  <fr_pyridine>  (7) 
1

>  <fr_quatN>  (7) 
1

>  <fr_sulfide>  (7) 
0

>  <fr_sulfonamd>  (7) 
0

>  <fr_sulfone>  (7) 
0

>  <fr_term_acetylene>  (7) 
0

>  <fr_tetrazole>  (7) 
0

>  <fr_thiazole>  (7) 
0

>  <fr_thiocyan>  (7) 
0

>  <fr_thiophene>  (7) 
0

>  <fr_unbrch_alkane>  (7) 
0

>  <fr_urea>  (7) 
0

>  <NP_Likeness>  (7) 
-0.900702

$$$$
2SB
     RDKit          3D

  0  0  0  0  0  0  0  0  0  0999 V3000
M  V30 BEGIN CTAB
M  V30 COUNTS 36 37 0 0 0
M  V30 BEGIN ATOM
M  V30 1 Br 32.395000 -9.942000 5.723000 0
M  V30 2 O 25.956000 -9.374000 -0.510000 0
M  V30 3 O 34.040000 -9.968000 3.213000 0
M  V30 4 N 23.449000 -8.586000 0.512000 0 CHG=1
M  V30 5 N 27.847000 -9.729000 1.328000 0
M  V30 6 N 26.545000 -9.799000 1.647000 0
M  V30 7 C 28.540000 -9.963000 2.369000 0
M  V30 8 C 22.749000 -13.439000 -0.510000 0
M  V30 9 C 22.748000 -12.309000 -1.312000 0
M  V30 10 C 23.199000 -13.353000 0.795000 0
M  V30 11 C 32.246000 -9.980000 1.547000 0
M  V30 12 C 23.210000 -11.096000 -0.816000 0
M  V30 13 C 23.656000 -12.144000 1.295000 0
M  V30 14 C 30.863000 -9.975000 1.305000 0
M  V30 15 C 30.464000 -9.944000 3.690000 0
M  V30 16 C 25.590000 -9.603000 0.638000 0
M  V30 17 C 31.808000 -9.951000 3.898000 0
M  V30 18 C 32.707000 -9.967000 2.868000 0
M  V30 19 C 24.160000 -9.715000 1.033000 0 CFG=2
M  V30 20 C 30.009000 -9.958000 2.407000 0
M  V30 21 C 23.658000 -11.012000 0.486000 0
M  V30 22 H 34.741000 -9.978500 2.499900 0
M  V30 23 H 22.485400 -8.650300 0.771400 0
M  V30 24 H 23.839400 -7.744700 0.885900 0
M  V30 25 H 26.260800 -9.987500 2.587000 0
M  V30 26 H 28.052200 -10.163800 3.218500 0
M  V30 27 H 22.425800 -14.312900 -0.873200 0
M  V30 28 H 22.413100 -12.366800 -2.252500 0
M  V30 29 H 23.194600 -14.164800 1.378900 0
M  V30 30 H 32.893300 -9.992700 0.784900 0
M  V30 31 H 23.217700 -10.285500 -1.401700 0
M  V30 32 H 23.984500 -12.085200 2.237700 0
M  V30 33 H 30.502100 -9.983400 0.372400 0
M  V30 34 H 29.826100 -9.929000 4.460000 0
M  V30 35 H 24.088700 -9.723300 2.030400 0
M  V30 36 H 23.525800 -8.574800 -0.485000 0
M  V30 END ATOM
M  V30 BEGIN BOND
M  V30 1 1 1 17
M  V30 2 2 2 16
M  V30 3 1 3 18
M  V30 4 1 4 19
M  V30 5 1 5 6
M  V30 6 2 5 7
M  V30 7 1 6 16
M  V30 8 1 7 20
M  V30 9 2 8 9
M  V30 10 1 8 10
M  V30 11 1 9 12
M  V30 12 2 10 13
M  V30 13 2 11 14
M  V30 14 1 11 18
M  V30 15 2 12 21
M  V30 16 1 13 21
M  V30 17 1 14 20
M  V30 18 1 15 17
M  V30 19 2 15 20
M  V30 20 1 16 19
M  V30 21 2 17 18
M  V30 22 1 19 21
M  V30 23 1 3 22
M  V30 24 1 4 23
M  V30 25 1 4 24
M  V30 26 1 6 25
M  V30 27 1 7 26
M  V30 28 1 8 27
M  V30 29 1 9 28
M  V30 30 1 10 29
M  V30 31 1 11 30
M  V30 32 1 12 31
M  V30 33 1 13 32
M  V30 34 1 14 33
M  V30 35 1 15 34
M  V30 36 1 19 35 CFG=1
M  V30 37 1 4 36
M  V30 END BOND
M  V30 END CTAB
M  END
>  <Ligand_Instance>  (8) 
3OWP_2SB_A_2001

>  <Dataset>  (8) 
PDB

>  <PDB_ID>  (8) 
3OWP

>  <Chain>  (8) 
A

>  <Resi>  (8) 
2001

>  <Num_Resolved_Atoms>  (8) 
21

>  <Num_H_Atoms_ProtBoundConf>  (8) 
15

>  <Pocket>  (8) 
A

>  <Name>  (8) 
(2S)-2-amino-N'-[(1E)-(3-bromo-4-hydroxyphenyl)methylidene]-2-phenylethanehydrazide

>  <Num_Not_Resolved_Atoms>  (8) 
0

>  <ATP_Site>  (8) 
True

>  <Peripheral>  (8) 
False

>  <Standardized_SMILES>  (8) 
[H]OC1=C([H])C([H])=C(/C([H])=N/N([H])C(=O)[C@]([H])(C2=C([H])C([H])=C([H])C([H])=C2[H])[N+]([H])([H])[H])C([H])=C1Br

>  <2D_Mol_H>  (8) 
<rdkit.Chem.rdchem.Mol object at 0x77059d9da7a0>

>  <MW>  (8) 
349.208

>  <HBA>  (8) 
3

>  <HBD>  (8) 
3

>  <LogP>  (8) 
1.588

>  <NRB>  (8) 
6

>  <TPSA>  (8) 
89.33

>  <Num_Heavy_Atoms>  (8) 
21

>  <Ro5>  (8) 
[True, True, True, True, True, True]

>  <Ro5_Fulfilled>  (8) 
True

>  <Ro3>  (8) 
[False, True, True, True]

>  <Ro3_Fulfilled>  (8) 
True

>  <Fsp3>  (8) 
0.066667

>  <Fsp3_0.42>  (8) 
False

>  <Fsp3_0.45>  (8) 
False

>  <Stereogenic_Carbons>  (8) 
1

>  <C_Atoms>  (8) 
15

>  <FCStereo>  (8) 
0.066667

>  <SPS>  (8) 
258

>  <nSPS>  (8) 
12.285714

>  <PBF>  (8) 
1.016144

>  <PBF_0.6>  (8) 
True

>  <nPBF>  (8) 
0.048388

>  <nPBF_0.016>  (8) 
True

>  <PMI1>  (8) 
833.957883

>  <PMI2>  (8) 
7330.789609

>  <PMI3>  (8) 
7474.678515

>  <NPR1>  (8) 
0.111571

>  <NPR2>  (8) 
0.98075

>  <Sum_NPR>  (8) 
1.092321

>  <Sum_NPR_1.07>  (8) 
True

>  <Sum_NPR_1.2>  (8) 
False

>  <MaxAbsEStateIndex>  (8) 
11.918116

>  <MaxEStateIndex>  (8) 
11.918116

>  <MinAbsEStateIndex>  (8) 
0.151005

>  <MinEStateIndex>  (8) 
-0.518607

>  <qed>  (8) 
0.578052

>  <MolWt>  (8) 
349.208

>  <HeavyAtomMolWt>  (8) 
334.088

>  <ExactMolWt>  (8) 
348.034215

>  <NumValenceElectrons>  (8) 
108

>  <NumRadicalElectrons>  (8) 
0

>  <MaxPartialCharge>  (8) 
0.302519

>  <MinPartialCharge>  (8) 
-0.506775

>  <MaxAbsPartialCharge>  (8) 
0.506775

>  <MinAbsPartialCharge>  (8) 
0.302519

>  <FpDensityMorgan1>  (8) 
1.285714

>  <FpDensityMorgan2>  (8) 
2.0

>  <FpDensityMorgan3>  (8) 
2.666667

>  <BCUT2D_MWHI>  (8) 
79.918731

>  <BCUT2D_MWLOW>  (8) 
10.084763

>  <BCUT2D_CHGHI>  (8) 
2.178032

>  <BCUT2D_CHGLO>  (8) 
-2.059854

>  <BCUT2D_LOGPHI>  (8) 
2.22934

>  <BCUT2D_LOGPLOW>  (8) 
-2.591497

>  <BCUT2D_MRHI>  (8) 
9.103462

>  <BCUT2D_MRLOW>  (8) 
-0.409347

>  <AvgIpc>  (8) 
2.505458

>  <BalabanJ>  (8) 
1.970139

>  <BertzCT>  (8) 
659.223235

>  <Chi0>  (8) 
15.242276

>  <Chi0n>  (8) 
11.161249

>  <Chi0v>  (8) 
12.747246

>  <Chi1>  (8) 
10.075387

>  <Chi1n>  (8) 
6.27151

>  <Chi1v>  (8) 
7.064508

>  <Chi2n>  (8) 
4.408371

>  <Chi2v>  (8) 
5.262708

>  <Chi3n>  (8) 
2.878533

>  <Chi3v>  (8) 
3.51369

>  <Chi4n>  (8) 
1.688522

>  <Chi4v>  (8) 
2.085021

>  <HallKierAlpha>  (8) 
-2.18

>  <Ipc>  (8) 
57535.329908

>  <Kappa1>  (8) 
15.21345

>  <Kappa2>  (8) 
7.008775

>  <Kappa3>  (8) 
4.140411

>  <LabuteASA>  (8) 
130.161839

>  <PEOE_VSA1>  (8) 
10.840195

>  <PEOE_VSA10>  (8) 
5.749512

>  <PEOE_VSA11>  (8) 
6.041841

>  <PEOE_VSA12>  (8) 
0.0

>  <PEOE_VSA13>  (8) 
0.0

>  <PEOE_VSA14>  (8) 
5.90718

>  <PEOE_VSA2>  (8) 
4.794537

>  <PEOE_VSA3>  (8) 
5.425791

>  <PEOE_VSA4>  (8) 
5.101408

>  <PEOE_VSA5>  (8) 
0.0

>  <PEOE_VSA6>  (8) 
30.331835

>  <PEOE_VSA7>  (8) 
39.692497

>  <PEOE_VSA8>  (8) 
5.563451

>  <PEOE_VSA9>  (8) 
10.68732

>  <SMR_VSA1>  (8) 
15.634732

>  <SMR_VSA10>  (8) 
28.051724

>  <SMR_VSA2>  (8) 
0.0

>  <SMR_VSA3>  (8) 
5.425791

>  <SMR_VSA4>  (8) 
5.101408

>  <SMR_VSA5>  (8) 
6.041841

>  <SMR_VSA6>  (8) 
0.0

>  <SMR_VSA7>  (8) 
64.130559

>  <SMR_VSA8>  (8) 
0.0

>  <SMR_VSA9>  (8) 
5.749512

>  <SlogP_VSA1>  (8) 
11.159459

>  <SlogP_VSA10>  (8) 
0.0

>  <SlogP_VSA11>  (8) 
5.749512

>  <SlogP_VSA12>  (8) 
15.929944

>  <SlogP_VSA2>  (8) 
17.228308

>  <SlogP_VSA3>  (8) 
4.794537

>  <SlogP_VSA4>  (8) 
0.0

>  <SlogP_VSA5>  (8) 
17.168744

>  <SlogP_VSA6>  (8) 
58.105064

>  <SlogP_VSA7>  (8) 
0.0

>  <SlogP_VSA8>  (8) 
0.0

>  <SlogP_VSA9>  (8) 
0.0

>  <EState_VSA1>  (8) 
6.041841

>  <EState_VSA10>  (8) 
9.901065

>  <EState_VSA11>  (8) 
0.0

>  <EState_VSA2>  (8) 
11.656692

>  <EState_VSA3>  (8) 
4.47272

>  <EState_VSA4>  (8) 
11.126903

>  <EState_VSA5>  (8) 
6.214601

>  <EState_VSA6>  (8) 
18.199101

>  <EState_VSA7>  (8) 
30.331835

>  <EState_VSA8>  (8) 
32.19081

>  <EState_VSA9>  (8) 
0.0

>  <VSA_EState1>  (8) 
0.566756

>  <VSA_EState10>  (8) 
3.211685

>  <VSA_EState2>  (8) 
11.918116

>  <VSA_EState3>  (8) 
13.278696

>  <VSA_EState4>  (8) 
7.868114

>  <VSA_EState5>  (8) 
-0.13113

>  <VSA_EState6>  (8) 
13.704615

>  <VSA_EState7>  (8) 
1.499815

>  <VSA_EState8>  (8) 
0.0

>  <VSA_EState9>  (8) 
0.0

>  <FractionCSP3>  (8) 
0.066667

>  <HeavyAtomCount>  (8) 
21

>  <NHOHCount>  (8) 
5

>  <NOCount>  (8) 
5

>  <NumAliphaticCarbocycles>  (8) 
0

>  <NumAliphaticHeterocycles>  (8) 
0

>  <NumAliphaticRings>  (8) 
0

>  <NumAromaticCarbocycles>  (8) 
2

>  <NumAromaticHeterocycles>  (8) 
0

>  <NumAromaticRings>  (8) 
2

>  <NumHAcceptors>  (8) 
3

>  <NumHDonors>  (8) 
3

>  <NumHeteroatoms>  (8) 
6

>  <NumRotatableBonds>  (8) 
4

>  <NumSaturatedCarbocycles>  (8) 
0

>  <NumSaturatedHeterocycles>  (8) 
0

>  <NumSaturatedRings>  (8) 
0

>  <RingCount>  (8) 
2

>  <MolLogP>  (8) 
1.588

>  <MolMR>  (8) 
83.6146

>  <fr_Al_COO>  (8) 
0

>  <fr_Al_OH>  (8) 
0

>  <fr_Al_OH_noTert>  (8) 
0

>  <fr_ArN>  (8) 
0

>  <fr_Ar_COO>  (8) 
0

>  <fr_Ar_N>  (8) 
0

>  <fr_Ar_NH>  (8) 
0

>  <fr_Ar_OH>  (8) 
1

>  <fr_COO>  (8) 
0

>  <fr_COO2>  (8) 
0

>  <fr_C_O>  (8) 
1

>  <fr_C_O_noCOO>  (8) 
1

>  <fr_C_S>  (8) 
0

>  <fr_HOCCN>  (8) 
0

>  <fr_Imine>  (8) 
0

>  <fr_NH0>  (8) 
1

>  <fr_NH1>  (8) 
1

>  <fr_NH2>  (8) 
0

>  <fr_N_O>  (8) 
0

>  <fr_Ndealkylation1>  (8) 
0

>  <fr_Ndealkylation2>  (8) 
0

>  <fr_Nhpyrrole>  (8) 
0

>  <fr_SH>  (8) 
0

>  <fr_aldehyde>  (8) 
0

>  <fr_alkyl_carbamate>  (8) 
0

>  <fr_alkyl_halide>  (8) 
0

>  <fr_allylic_oxid>  (8) 
0

>  <fr_amide>  (8) 
1

>  <fr_amidine>  (8) 
0

>  <fr_aniline>  (8) 
0

>  <fr_aryl_methyl>  (8) 
0

>  <fr_azide>  (8) 
0

>  <fr_azo>  (8) 
0

>  <fr_barbitur>  (8) 
0

>  <fr_benzene>  (8) 
2

>  <fr_benzodiazepine>  (8) 
0

>  <fr_bicyclic>  (8) 
0

>  <fr_diazo>  (8) 
0

>  <fr_dihydropyridine>  (8) 
0

>  <fr_epoxide>  (8) 
0

>  <fr_ester>  (8) 
0

>  <fr_ether>  (8) 
0

>  <fr_furan>  (8) 
0

>  <fr_guanido>  (8) 
0

>  <fr_halogen>  (8) 
1

>  <fr_hdrzine>  (8) 
0

>  <fr_hdrzone>  (8) 
1

>  <fr_imidazole>  (8) 
0

>  <fr_imide>  (8) 
0

>  <fr_isocyan>  (8) 
0

>  <fr_isothiocyan>  (8) 
0

>  <fr_ketone>  (8) 
0

>  <fr_ketone_Topliss>  (8) 
0

>  <fr_lactam>  (8) 
0

>  <fr_lactone>  (8) 
0

>  <fr_methoxy>  (8) 
0

>  <fr_morpholine>  (8) 
0

>  <fr_nitrile>  (8) 
0

>  <fr_nitro>  (8) 
0

>  <fr_nitro_arom>  (8) 
0

>  <fr_nitro_arom_nonortho>  (8) 
0

>  <fr_nitroso>  (8) 
0

>  <fr_oxazole>  (8) 
0

>  <fr_oxime>  (8) 
0

>  <fr_para_hydroxylation>  (8) 
0

>  <fr_phenol>  (8) 
1

>  <fr_phenol_noOrthoHbond>  (8) 
1

>  <fr_phos_acid>  (8) 
0

>  <fr_phos_ester>  (8) 
0

>  <fr_piperdine>  (8) 
0

>  <fr_piperzine>  (8) 
0

>  <fr_priamide>  (8) 
0

>  <fr_prisulfonamd>  (8) 
0

>  <fr_pyridine>  (8) 
0

>  <fr_quatN>  (8) 
1

>  <fr_sulfide>  (8) 
0

>  <fr_sulfonamd>  (8) 
0

>  <fr_sulfone>  (8) 
0

>  <fr_term_acetylene>  (8) 
0

>  <fr_tetrazole>  (8) 
0

>  <fr_thiazole>  (8) 
0

>  <fr_thiocyan>  (8) 
0

>  <fr_thiophene>  (8) 
0

>  <fr_unbrch_alkane>  (8) 
0

>  <fr_urea>  (8) 
0

>  <NP_Likeness>  (8) 
-0.735688

$$$$
35R
     RDKit          3D

  0  0  0  0  0  0  0  0  0  0999 V3000
M  V30 BEGIN CTAB
M  V30 COUNTS 52 56 0 0 0
M  V30 BEGIN ATOM
M  V30 1 O -28.711000 10.487000 1.841000 0
M  V30 2 O -27.329000 6.824000 13.508000 0
M  V30 3 N -32.822000 10.078000 2.919000 0
M  V30 4 N -32.962000 10.018000 4.245000 0
M  V30 5 N -26.969000 10.205000 3.337000 0
M  V30 6 N -29.368000 10.078000 4.012000 0
M  V30 7 N -32.271000 9.817000 7.317000 0
M  V30 8 N -30.181000 10.103000 6.759000 0
M  V30 9 N -28.443000 9.136000 12.361000 0 CHG=1
M  V30 10 C -27.194000 8.048000 14.150000 0
M  V30 11 C -28.490000 6.766000 12.755000 0
M  V30 12 C -31.547000 10.114000 2.591000 0
M  V30 13 C -27.337000 9.240000 13.190000 0
M  V30 14 C -28.508000 7.907000 11.731000 0
M  V30 15 C -28.411000 10.091000 11.515000 0
M  V30 16 C -26.774000 11.064000 5.735000 0
M  V30 17 C -25.371000 10.813000 5.179000 0
M  V30 18 C -31.895000 9.741000 9.862000 0
M  V30 19 C -30.897000 9.816000 10.844000 0
M  V30 20 C -29.208000 10.112000 9.111000 0
M  V30 21 C -28.380000 10.269000 2.962000 0
M  V30 22 C -31.426000 9.970000 6.306000 0
M  V30 23 C -26.543000 9.944000 4.715000 0
M  V30 24 C -30.812000 10.089000 3.791000 0
M  V30 25 C -31.542000 9.849000 8.476000 0
M  V30 26 C -30.223000 10.035000 8.116000 0
M  V30 27 C -31.782000 10.013000 4.817000 0
M  V30 28 C -29.549000 9.993000 10.462000 0
M  V30 29 H -33.579200 10.093500 2.266000 0
M  V30 30 H -26.273200 10.343400 2.632300 0
M  V30 31 H -29.038000 9.929800 4.944300 0
M  V30 32 H -33.261500 9.699500 7.245800 0
M  V30 33 H -26.290500 8.087500 14.576800 0
M  V30 34 H -27.899300 8.118800 14.855400 0
M  V30 35 H -29.281700 6.851300 13.359900 0
M  V30 36 H -28.530100 5.889600 12.275100 0
M  V30 37 H -31.172100 10.151900 1.664700 0
M  V30 38 H -27.421400 10.076800 13.730900 0
M  V30 39 H -26.516000 9.291900 12.621500 0
M  V30 40 H -27.722700 7.810600 11.119500 0
M  V30 41 H -29.353100 7.856100 11.198800 0
M  V30 42 H -27.531600 10.068600 11.039500 0
M  V30 43 H -28.502500 10.957300 12.006000 0
M  V30 44 H -27.277400 11.886200 5.469400 0
M  V30 45 H -26.982400 10.838400 6.686700 0
M  V30 46 H -24.662400 10.423700 5.767500 0
M  V30 47 H -24.957400 11.471500 4.550200 0
M  V30 48 H -32.850600 9.612500 10.127300 0
M  V30 49 H -31.138900 9.744400 11.811600 0
M  V30 50 H -28.254100 10.250700 8.844800 0
M  V30 51 H -26.581300 9.000200 5.043300 0
M  V30 52 H -29.264200 9.243100 12.921500 0
M  V30 END ATOM
M  V30 BEGIN BOND
M  V30 1 2 1 21
M  V30 2 1 2 10
M  V30 3 1 2 11
M  V30 4 1 3 4
M  V30 5 1 3 12
M  V30 6 2 4 27
M  V30 7 1 5 21
M  V30 8 1 5 23
M  V30 9 1 6 21
M  V30 10 1 6 24
M  V30 11 1 7 22
M  V30 12 1 7 25
M  V30 13 2 8 22
M  V30 14 1 8 26
M  V30 15 1 9 13
M  V30 16 1 9 14
M  V30 17 1 9 15
M  V30 18 1 10 13
M  V30 19 1 11 14
M  V30 20 2 12 24
M  V30 21 1 15 28
M  V30 22 1 16 17
M  V30 23 1 16 23
M  V30 24 1 17 23
M  V30 25 1 18 19
M  V30 26 2 18 25
M  V30 27 2 19 28
M  V30 28 2 20 26
M  V30 29 1 20 28
M  V30 30 1 22 27
M  V30 31 1 24 27
M  V30 32 1 25 26
M  V30 33 1 3 29
M  V30 34 1 5 30
M  V30 35 1 6 31
M  V30 36 1 7 32
M  V30 37 1 10 33
M  V30 38 1 10 34
M  V30 39 1 11 35
M  V30 40 1 11 36
M  V30 41 1 12 37
M  V30 42 1 13 38
M  V30 43 1 13 39
M  V30 44 1 14 40
M  V30 45 1 14 41
M  V30 46 1 15 42
M  V30 47 1 15 43
M  V30 48 1 16 44
M  V30 49 1 16 45
M  V30 50 1 17 46
M  V30 51 1 17 47
M  V30 52 1 18 48
M  V30 53 1 19 49
M  V30 54 1 20 50
M  V30 55 1 23 51
M  V30 56 1 9 52
M  V30 END BOND
M  V30 END CTAB
M  END
>  <Ligand_Instance>  (9) 
5N23_35R_A_401

>  <Dataset>  (9) 
PDB

>  <PDB_ID>  (9) 
5N23

>  <Chain>  (9) 
A

>  <Resi>  (9) 
401

>  <Num_Resolved_Atoms>  (9) 
28

>  <Num_H_Atoms_ProtBoundConf>  (9) 
24

>  <Pocket>  (9) 
A

>  <Name>  (9) 
1-cyclopropyl-3-{3-[5-(morpholin-4-ylmethyl)-1H-benzimidazol-2-yl]-1H-pyrazol-4-yl}urea

>  <Num_Not_Resolved_Atoms>  (9) 
0

>  <ATP_Site>  (9) 
True

>  <Peripheral>  (9) 
False

>  <Standardized_SMILES>  (9) 
[H]C1=C2N=C(C3=NN([H])C([H])=C3N([H])C(=O)N([H])C3([H])C([H])([H])C3([H])[H])N([H])C2=C([H])C([H])=C1C([H])([H])[N+]1([H])C([H])([H])C([H])([H])OC([H])([H])C1([H])[H]

>  <2D_Mol_H>  (9) 
<rdkit.Chem.rdchem.Mol object at 0x77059d9da880>

>  <MW>  (9) 
382.448

>  <HBA>  (9) 
4

>  <HBD>  (9) 
5

>  <LogP>  (9) 
0.652

>  <NRB>  (9) 
5

>  <TPSA>  (9) 
112.16

>  <Num_Heavy_Atoms>  (9) 
28

>  <Ro5>  (9) 
[True, True, True, True, True, True]

>  <Ro5_Fulfilled>  (9) 
True

>  <Ro3>  (9) 
[False, False, False, True]

>  <Ro3_Fulfilled>  (9) 
False

>  <Fsp3>  (9) 
0.421053

>  <Fsp3_0.42>  (9) 
True

>  <Fsp3_0.45>  (9) 
False

>  <Stereogenic_Carbons>  (9) 
0

>  <C_Atoms>  (9) 
19

>  <FCStereo>  (9) 
0.0

>  <SPS>  (9) 
496

>  <nSPS>  (9) 
17.714286

>  <PBF>  (9) 
0.740165

>  <PBF_0.6>  (9) 
True

>  <nPBF>  (9) 
0.026434

>  <nPBF_0.016>  (9) 
True

>  <PMI1>  (9) 
1756.029938

>  <PMI2>  (9) 
6336.351557

>  <PMI3>  (9) 
7660.411116

>  <NPR1>  (9) 
0.229234

>  <NPR2>  (9) 
0.827156

>  <Sum_NPR>  (9) 
1.05639

>  <Sum_NPR_1.07>  (9) 
False

>  <Sum_NPR_1.2>  (9) 
False

>  <MaxAbsEStateIndex>  (9) 
12.04461

>  <MaxEStateIndex>  (9) 
12.04461

>  <MinAbsEStateIndex>  (9) 
0.21108

>  <MinEStateIndex>  (9) 
-0.21108

>  <qed>  (9) 
0.446029

>  <MolWt>  (9) 
382.448

>  <HeavyAtomMolWt>  (9) 
358.256

>  <ExactMolWt>  (9) 
382.198599

>  <NumValenceElectrons>  (9) 
146

>  <NumRadicalElectrons>  (9) 
0

>  <MaxPartialCharge>  (9) 
0.319061

>  <MinPartialCharge>  (9) 
-0.369752

>  <MaxAbsPartialCharge>  (9) 
0.369752

>  <MinAbsPartialCharge>  (9) 
0.319061

>  <FpDensityMorgan1>  (9) 
1.285714

>  <FpDensityMorgan2>  (9) 
2.142857

>  <FpDensityMorgan3>  (9) 
2.964286

>  <BCUT2D_MWHI>  (9) 
16.477485

>  <BCUT2D_MWLOW>  (9) 
10.156401

>  <BCUT2D_CHGHI>  (9) 
2.239543

>  <BCUT2D_CHGLO>  (9) 
-2.231698

>  <BCUT2D_LOGPHI>  (9) 
2.259012

>  <BCUT2D_LOGPLOW>  (9) 
-3.12357

>  <BCUT2D_MRHI>  (9) 
5.932954

>  <BCUT2D_MRLOW>  (9) 
-0.921055

>  <AvgIpc>  (9) 
3.222409

>  <BalabanJ>  (9) 
1.345663

>  <BertzCT>  (9) 
985.251837

>  <Chi0>  (9) 
18.924074

>  <Chi0n>  (9) 
15.547423

>  <Chi0v>  (9) 
15.547423

>  <Chi1>  (9) 
13.742316

>  <Chi1n>  (9) 
9.760671

>  <Chi1v>  (9) 
9.760671

>  <Chi2n>  (9) 
7.496318

>  <Chi2v>  (9) 
7.496318

>  <Chi3n>  (9) 
5.226932

>  <Chi3v>  (9) 
5.226932

>  <Chi4n>  (9) 
3.536243

>  <Chi4v>  (9) 
3.536243

>  <HallKierAlpha>  (9) 
-2.91

>  <Ipc>  (9) 
5368998.12176

>  <Kappa1>  (9) 
17.206273

>  <Kappa2>  (9) 
7.249813

>  <Kappa3>  (9) 
3.712529

>  <LabuteASA>  (9) 
161.403674

>  <PEOE_VSA1>  (9) 
25.254328

>  <PEOE_VSA10>  (9) 
19.634269

>  <PEOE_VSA11>  (9) 
11.518332

>  <PEOE_VSA12>  (9) 
0.0

>  <PEOE_VSA13>  (9) 
0.0

>  <PEOE_VSA14>  (9) 
6.031115

>  <PEOE_VSA2>  (9) 
5.098682

>  <PEOE_VSA3>  (9) 
9.778516

>  <PEOE_VSA4>  (9) 
5.098682

>  <PEOE_VSA5>  (9) 
0.0

>  <PEOE_VSA6>  (9) 
6.066367

>  <PEOE_VSA7>  (9) 
24.974377

>  <PEOE_VSA8>  (9) 
17.802136

>  <PEOE_VSA9>  (9) 
29.934552

>  <SMR_VSA1>  (9) 
14.43131

>  <SMR_VSA10>  (9) 
22.751902

>  <SMR_VSA2>  (9) 
0.0

>  <SMR_VSA3>  (9) 
25.482109

>  <SMR_VSA4>  (9) 
0.0

>  <SMR_VSA5>  (9) 
25.42824

>  <SMR_VSA6>  (9) 
31.620065

>  <SMR_VSA7>  (9) 
29.959396

>  <SMR_VSA8>  (9) 
0.0

>  <SMR_VSA9>  (9) 
11.518332

>  <SlogP_VSA1>  (9) 
15.533487

>  <SlogP_VSA10>  (9) 
10.481923

>  <SlogP_VSA11>  (9) 
0.0

>  <SlogP_VSA12>  (9) 
0.0

>  <SlogP_VSA2>  (9) 
58.541553

>  <SlogP_VSA3>  (9) 
11.281619

>  <SlogP_VSA4>  (9) 
0.0

>  <SlogP_VSA5>  (9) 
18.405095

>  <SlogP_VSA6>  (9) 
24.395945

>  <SlogP_VSA7>  (9) 
0.0

>  <SlogP_VSA8>  (9) 
22.551734

>  <SlogP_VSA9>  (9) 
0.0

>  <EState_VSA1>  (9) 
0.0

>  <EState_VSA10>  (9) 
4.794537

>  <EState_VSA11>  (9) 
0.0

>  <EState_VSA2>  (9) 
6.031115

>  <EState_VSA3>  (9) 
23.24756

>  <EState_VSA4>  (9) 
56.723078

>  <EState_VSA5>  (9) 
10.463361

>  <EState_VSA6>  (9) 
6.196844

>  <EState_VSA7>  (9) 
0.0

>  <EState_VSA8>  (9) 
44.014021

>  <EState_VSA9>  (9) 
9.720841

>  <VSA_EState1>  (9) 
5.433014

>  <VSA_EState10>  (9) 
0.0

>  <VSA_EState2>  (9) 
21.583999

>  <VSA_EState3>  (9) 
12.841023

>  <VSA_EState4>  (9) 
4.312945

>  <VSA_EState5>  (9) 
0.633186

>  <VSA_EState6>  (9) 
6.405498

>  <VSA_EState7>  (9) 
3.759613

>  <VSA_EState8>  (9) 
4.69739

>  <VSA_EState9>  (9) 
0.0

>  <FractionCSP3>  (9) 
0.421053

>  <HeavyAtomCount>  (9) 
28

>  <NHOHCount>  (9) 
5

>  <NOCount>  (9) 
9

>  <NumAliphaticCarbocycles>  (9) 
1

>  <NumAliphaticHeterocycles>  (9) 
1

>  <NumAliphaticRings>  (9) 
2

>  <NumAromaticCarbocycles>  (9) 
1

>  <NumAromaticHeterocycles>  (9) 
2

>  <NumAromaticRings>  (9) 
3

>  <NumHAcceptors>  (9) 
4

>  <NumHDonors>  (9) 
5

>  <NumHeteroatoms>  (9) 
9

>  <NumRotatableBonds>  (9) 
5

>  <NumSaturatedCarbocycles>  (9) 
1

>  <NumSaturatedHeterocycles>  (9) 
1

>  <NumSaturatedRings>  (9) 
2

>  <RingCount>  (9) 
5

>  <MolLogP>  (9) 
0.652

>  <MolMR>  (9) 
104.0715

>  <fr_Al_COO>  (9) 
0

>  <fr_Al_OH>  (9) 
0

>  <fr_Al_OH_noTert>  (9) 
0

>  <fr_ArN>  (9) 
0

>  <fr_Ar_COO>  (9) 
0

>  <fr_Ar_N>  (9) 
4

>  <fr_Ar_NH>  (9) 
2

>  <fr_Ar_OH>  (9) 
0

>  <fr_COO>  (9) 
0

>  <fr_COO2>  (9) 
0

>  <fr_C_O>  (9) 
1

>  <fr_C_O_noCOO>  (9) 
1

>  <fr_C_S>  (9) 
0

>  <fr_HOCCN>  (9) 
0

>  <fr_Imine>  (9) 
0

>  <fr_NH0>  (9) 
2

>  <fr_NH1>  (9) 
5

>  <fr_NH2>  (9) 
0

>  <fr_N_O>  (9) 
0

>  <fr_Ndealkylation1>  (9) 
0

>  <fr_Ndealkylation2>  (9) 
0

>  <fr_Nhpyrrole>  (9) 
2

>  <fr_SH>  (9) 
0

>  <fr_aldehyde>  (9) 
0

>  <fr_alkyl_carbamate>  (9) 
0

>  <fr_alkyl_halide>  (9) 
0

>  <fr_allylic_oxid>  (9) 
0

>  <fr_amide>  (9) 
2

>  <fr_amidine>  (9) 
0

>  <fr_aniline>  (9) 
1

>  <fr_aryl_methyl>  (9) 
0

>  <fr_azide>  (9) 
0

>  <fr_azo>  (9) 
0

>  <fr_barbitur>  (9) 
0

>  <fr_benzene>  (9) 
1

>  <fr_benzodiazepine>  (9) 
0

>  <fr_bicyclic>  (9) 
1

>  <fr_diazo>  (9) 
0

>  <fr_dihydropyridine>  (9) 
0

>  <fr_epoxide>  (9) 
0

>  <fr_ester>  (9) 
0

>  <fr_ether>  (9) 
1

>  <fr_furan>  (9) 
0

>  <fr_guanido>  (9) 
0

>  <fr_halogen>  (9) 
0

>  <fr_hdrzine>  (9) 
0

>  <fr_hdrzone>  (9) 
0

>  <fr_imidazole>  (9) 
1

>  <fr_imide>  (9) 
0

>  <fr_isocyan>  (9) 
0

>  <fr_isothiocyan>  (9) 
0

>  <fr_ketone>  (9) 
0

>  <fr_ketone_Topliss>  (9) 
0

>  <fr_lactam>  (9) 
0

>  <fr_lactone>  (9) 
0

>  <fr_methoxy>  (9) 
0

>  <fr_morpholine>  (9) 
1

>  <fr_nitrile>  (9) 
0

>  <fr_nitro>  (9) 
0

>  <fr_nitro_arom>  (9) 
0

>  <fr_nitro_arom_nonortho>  (9) 
0

>  <fr_nitroso>  (9) 
0

>  <fr_oxazole>  (9) 
0

>  <fr_oxime>  (9) 
0

>  <fr_para_hydroxylation>  (9) 
0

>  <fr_phenol>  (9) 
0

>  <fr_phenol_noOrthoHbond>  (9) 
0

>  <fr_phos_acid>  (9) 
0

>  <fr_phos_ester>  (9) 
0

>  <fr_piperdine>  (9) 
0

>  <fr_piperzine>  (9) 
0

>  <fr_priamide>  (9) 
0

>  <fr_prisulfonamd>  (9) 
0

>  <fr_pyridine>  (9) 
0

>  <fr_quatN>  (9) 
1

>  <fr_sulfide>  (9) 
0

>  <fr_sulfonamd>  (9) 
0

>  <fr_sulfone>  (9) 
0

>  <fr_term_acetylene>  (9) 
0

>  <fr_tetrazole>  (9) 
0

>  <fr_thiazole>  (9) 
0

>  <fr_thiocyan>  (9) 
0

>  <fr_thiophene>  (9) 
0

>  <fr_unbrch_alkane>  (9) 
0

>  <fr_urea>  (9) 
1

>  <NP_Likeness>  (9) 
-1.524556

$$$$
3AB
     RDKit          3D

  0  0  0  0  0  0  0  0  0  0999 V3000
M  V30 BEGIN CTAB
M  V30 COUNTS 18 18 0 0 0
M  V30 BEGIN ATOM
M  V30 1 O -9.237000 2.280000 -28.367000 0
M  V30 2 N -9.477000 4.540000 -28.464000 0
M  V30 3 N -14.390000 5.111000 -29.642000 0
M  V30 4 C -13.084000 1.690000 -29.980000 0
M  V30 5 C -13.950000 2.770000 -30.023000 0
M  V30 6 C -11.779000 1.863000 -29.546000 0
M  V30 7 C -12.199000 4.204000 -29.211000 0
M  V30 8 C -9.925000 3.295000 -28.632000 0
M  V30 9 C -13.522000 4.035000 -29.629000 0
M  V30 10 C -11.330000 3.119000 -29.163000 0
M  V30 11 H -10.064100 5.317400 -28.689900 0
M  V30 12 H -8.554100 4.696100 -28.112100 0
M  V30 13 H -14.070500 6.014600 -29.356700 0
M  V30 14 H -15.337300 4.985700 -29.936700 0
M  V30 15 H -13.400500 0.784400 -30.262400 0
M  V30 16 H -14.889700 2.640300 -30.339400 0
M  V30 17 H -11.158600 1.079600 -29.508700 0
M  V30 18 H -11.874800 5.111700 -28.944500 0
M  V30 END ATOM
M  V30 BEGIN BOND
M  V30 1 2 1 8
M  V30 2 1 2 8
M  V30 3 1 3 9
M  V30 4 2 4 5
M  V30 5 1 4 6
M  V30 6 1 5 9
M  V30 7 2 6 10
M  V30 8 2 7 9
M  V30 9 1 7 10
M  V30 10 1 8 10
M  V30 11 1 2 11
M  V30 12 1 2 12
M  V30 13 1 3 13
M  V30 14 1 3 14
M  V30 15 1 4 15
M  V30 16 1 5 16
M  V30 17 1 6 17
M  V30 18 1 7 18
M  V30 END BOND
M  V30 END CTAB
M  END
>  <Ligand_Instance>  (10) 
5N3Q_3AB_A_402

>  <Dataset>  (10) 
PDB

>  <PDB_ID>  (10) 
5N3Q

>  <Chain>  (10) 
A

>  <Resi>  (10) 
402

>  <Num_Resolved_Atoms>  (10) 
10

>  <Num_H_Atoms_ProtBoundConf>  (10) 
8

>  <Pocket>  (10) 
A

>  <Name>  (10) 
3-aminobenzamide

>  <Num_Not_Resolved_Atoms>  (10) 
0

>  <ATP_Site>  (10) 
True

>  <Peripheral>  (10) 
True

>  <Standardized_SMILES>  (10) 
[H]C1=C([H])C(N([H])[H])=C([H])C(C(=O)N([H])[H])=C1[H]

>  <2D_Mol_H>  (10) 
<rdkit.Chem.rdchem.Mol object at 0x77059d9da960>

>  <MW>  (10) 
136.154

>  <HBA>  (10) 
2

>  <HBD>  (10) 
2

>  <LogP>  (10) 
0.3677

>  <NRB>  (10) 
2

>  <TPSA>  (10) 
69.11

>  <Num_Heavy_Atoms>  (10) 
10

>  <Ro5>  (10) 
[True, True, True, True, True, True]

>  <Ro5_Fulfilled>  (10) 
True

>  <Ro3>  (10) 
[True, True, True, True]

>  <Ro3_Fulfilled>  (10) 
True

>  <Fsp3>  (10) 
0.0

>  <Fsp3_0.42>  (10) 
False

>  <Fsp3_0.45>  (10) 
False

>  <Stereogenic_Carbons>  (10) 
0

>  <C_Atoms>  (10) 
7

>  <FCStereo>  (10) 
0.0

>  <SPS>  (10) 
92

>  <nSPS>  (10) 
9.2

>  <PBF>  (10) 
0.074184

>  <PBF_0.6>  (10) 
False

>  <nPBF>  (10) 
0.007418

>  <nPBF_0.016>  (10) 
False

>  <PMI1>  (10) 
192.187591

>  <PMI2>  (10) 
525.79835

>  <PMI3>  (10) 
714.838096

>  <NPR1>  (10) 
0.268855

>  <NPR2>  (10) 
0.735549

>  <Sum_NPR>  (10) 
1.004404

>  <Sum_NPR_1.07>  (10) 
False

>  <Sum_NPR_1.2>  (10) 
False

>  <MaxAbsEStateIndex>  (10) 
10.519815

>  <MaxEStateIndex>  (10) 
10.519815

>  <MinAbsEStateIndex>  (10) 
0.444444

>  <MinEStateIndex>  (10) 
-0.451574

>  <qed>  (10) 
0.547342

>  <MolWt>  (10) 
136.154

>  <HeavyAtomMolWt>  (10) 
128.09

>  <ExactMolWt>  (10) 
136.063663

>  <NumValenceElectrons>  (10) 
52

>  <NumRadicalElectrons>  (10) 
0

>  <MaxPartialCharge>  (10) 
0.248273

>  <MinPartialCharge>  (10) 
-0.398709

>  <MaxAbsPartialCharge>  (10) 
0.398709

>  <MinAbsPartialCharge>  (10) 
0.248273

>  <FpDensityMorgan1>  (10) 
1.4

>  <FpDensityMorgan2>  (10) 
2.1

>  <FpDensityMorgan3>  (10) 
2.5

>  <BCUT2D_MWHI>  (10) 
16.146266

>  <BCUT2D_MWLOW>  (10) 
10.1766

>  <BCUT2D_CHGHI>  (10) 
1.96704

>  <BCUT2D_CHGLO>  (10) 
-1.942641

>  <BCUT2D_LOGPHI>  (10) 
2.040165

>  <BCUT2D_LOGPLOW>  (10) 
-2.102398

>  <BCUT2D_MRHI>  (10) 
5.930391

>  <BCUT2D_MRLOW>  (10) 
0.10001

>  <AvgIpc>  (10) 
1.875714

>  <BalabanJ>  (10) 
3.069899

>  <BertzCT>  (10) 
257.537949

>  <Chi0>  (10) 
7.560478

>  <Chi0n>  (10) 
5.37235

>  <Chi0v>  (10) 
5.37235

>  <Chi1>  (10) 
4.698377

>  <Chi1n>  (10) 
2.852842

>  <Chi1v>  (10) 
2.852842

>  <Chi2n>  (10) 
1.989714

>  <Chi2v>  (10) 
1.989714

>  <Chi3n>  (10) 
1.171145

>  <Chi3v>  (10) 
1.171145

>  <Chi4n>  (10) 
0.691938

>  <Chi4v>  (10) 
0.691938

>  <HallKierAlpha>  (10) 
-1.51

>  <Ipc>  (10) 
178.192787

>  <Kappa1>  (10) 
6.607786

>  <Kappa2>  (10) 
2.389633

>  <Kappa3>  (10) 
1.253905

>  <LabuteASA>  (10) 
58.637649

>  <PEOE_VSA1>  (10) 
11.467335

>  <PEOE_VSA10>  (10) 
0.0

>  <PEOE_VSA11>  (10) 
0.0

>  <PEOE_VSA12>  (10) 
5.90718

>  <PEOE_VSA13>  (10) 
0.0

>  <PEOE_VSA14>  (10) 
0.0

>  <PEOE_VSA2>  (10) 
4.794537

>  <PEOE_VSA3>  (10) 
0.0

>  <PEOE_VSA4>  (10) 
0.0

>  <PEOE_VSA5>  (10) 
0.0

>  <PEOE_VSA6>  (10) 
6.066367

>  <PEOE_VSA7>  (10) 
18.199101

>  <PEOE_VSA8>  (10) 
11.250838

>  <PEOE_VSA9>  (10) 
0.0

>  <SMR_VSA1>  (10) 
4.794537

>  <SMR_VSA10>  (10) 
11.594566

>  <SMR_VSA2>  (10) 
0.0

>  <SMR_VSA3>  (10) 
0.0

>  <SMR_VSA4>  (10) 
5.733667

>  <SMR_VSA5>  (10) 
0.0

>  <SMR_VSA6>  (10) 
5.733667

>  <SMR_VSA7>  (10) 
29.82892

>  <SMR_VSA8>  (10) 
0.0

>  <SMR_VSA9>  (10) 
0.0

>  <SlogP_VSA1>  (10) 
11.467335

>  <SlogP_VSA10>  (10) 
5.687386

>  <SlogP_VSA11>  (10) 
0.0

>  <SlogP_VSA12>  (10) 
0.0

>  <SlogP_VSA2>  (10) 
5.90718

>  <SlogP_VSA3>  (10) 
0.0

>  <SlogP_VSA4>  (10) 
0.0

>  <SlogP_VSA5>  (10) 
10.357989

>  <SlogP_VSA6>  (10) 
24.265468

>  <SlogP_VSA7>  (10) 
0.0

>  <SlogP_VSA8>  (10) 
0.0

>  <SlogP_VSA9>  (10) 
0.0

>  <EState_VSA1>  (10) 
5.90718

>  <EState_VSA10>  (10) 
4.794537

>  <EState_VSA11>  (10) 
0.0

>  <EState_VSA2>  (10) 
0.0

>  <EState_VSA3>  (10) 
11.250838

>  <EState_VSA4>  (10) 
0.0

>  <EState_VSA5>  (10) 
0.0

>  <EState_VSA6>  (10) 
24.265468

>  <EState_VSA7>  (10) 
0.0

>  <EState_VSA8>  (10) 
0.0

>  <EState_VSA9>  (10) 
11.467335

>  <VSA_EState1>  (10) 
0.0

>  <VSA_EState10>  (10) 
0.0

>  <VSA_EState2>  (10) 
10.519815

>  <VSA_EState3>  (10) 
0.0

>  <VSA_EState4>  (10) 
11.373333

>  <VSA_EState5>  (10) 
-0.451574

>  <VSA_EState6>  (10) 
6.558426

>  <VSA_EState7>  (10) 
0.0

>  <VSA_EState8>  (10) 
0.0

>  <VSA_EState9>  (10) 
0.0

>  <FractionCSP3>  (10) 
0.0

>  <HeavyAtomCount>  (10) 
10

>  <NHOHCount>  (10) 
4

>  <NOCount>  (10) 
3

>  <NumAliphaticCarbocycles>  (10) 
0

>  <NumAliphaticHeterocycles>  (10) 
0

>  <NumAliphaticRings>  (10) 
0

>  <NumAromaticCarbocycles>  (10) 
1

>  <NumAromaticHeterocycles>  (10) 
0

>  <NumAromaticRings>  (10) 
1

>  <NumHAcceptors>  (10) 
2

>  <NumHDonors>  (10) 
2

>  <NumHeteroatoms>  (10) 
3

>  <NumRotatableBonds>  (10) 
1

>  <NumSaturatedCarbocycles>  (10) 
0

>  <NumSaturatedHeterocycles>  (10) 
0

>  <NumSaturatedRings>  (10) 
0

>  <RingCount>  (10) 
1

>  <MolLogP>  (10) 
0.3677

>  <MolMR>  (10) 
39.3723

>  <fr_Al_COO>  (10) 
0

>  <fr_Al_OH>  (10) 
0

>  <fr_Al_OH_noTert>  (10) 
0

>  <fr_ArN>  (10) 
1

>  <fr_Ar_COO>  (10) 
0

>  <fr_Ar_N>  (10) 
0

>  <fr_Ar_NH>  (10) 
0

>  <fr_Ar_OH>  (10) 
0

>  <fr_COO>  (10) 
0

>  <fr_COO2>  (10) 
0

>  <fr_C_O>  (10) 
1

>  <fr_C_O_noCOO>  (10) 
1

>  <fr_C_S>  (10) 
0

>  <fr_HOCCN>  (10) 
0

>  <fr_Imine>  (10) 
0

>  <fr_NH0>  (10) 
0

>  <fr_NH1>  (10) 
0

>  <fr_NH2>  (10) 
2

>  <fr_N_O>  (10) 
0

>  <fr_Ndealkylation1>  (10) 
0

>  <fr_Ndealkylation2>  (10) 
0

>  <fr_Nhpyrrole>  (10) 
0

>  <fr_SH>  (10) 
0

>  <fr_aldehyde>  (10) 
0

>  <fr_alkyl_carbamate>  (10) 
0

>  <fr_alkyl_halide>  (10) 
0

>  <fr_allylic_oxid>  (10) 
0

>  <fr_amide>  (10) 
1

>  <fr_amidine>  (10) 
0

>  <fr_aniline>  (10) 
1

>  <fr_aryl_methyl>  (10) 
0

>  <fr_azide>  (10) 
0

>  <fr_azo>  (10) 
0

>  <fr_barbitur>  (10) 
0

>  <fr_benzene>  (10) 
1

>  <fr_benzodiazepine>  (10) 
0

>  <fr_bicyclic>  (10) 
0

>  <fr_diazo>  (10) 
0

>  <fr_dihydropyridine>  (10) 
0

>  <fr_epoxide>  (10) 
0

>  <fr_ester>  (10) 
0

>  <fr_ether>  (10) 
0

>  <fr_furan>  (10) 
0

>  <fr_guanido>  (10) 
0

>  <fr_halogen>  (10) 
0

>  <fr_hdrzine>  (10) 
0

>  <fr_hdrzone>  (10) 
0

>  <fr_imidazole>  (10) 
0

>  <fr_imide>  (10) 
0

>  <fr_isocyan>  (10) 
0

>  <fr_isothiocyan>  (10) 
0

>  <fr_ketone>  (10) 
0

>  <fr_ketone_Topliss>  (10) 
0

>  <fr_lactam>  (10) 
0

>  <fr_lactone>  (10) 
0

>  <fr_methoxy>  (10) 
0

>  <fr_morpholine>  (10) 
0

>  <fr_nitrile>  (10) 
0

>  <fr_nitro>  (10) 
0

>  <fr_nitro_arom>  (10) 
0

>  <fr_nitro_arom_nonortho>  (10) 
0

>  <fr_nitroso>  (10) 
0

>  <fr_oxazole>  (10) 
0

>  <fr_oxime>  (10) 
0

>  <fr_para_hydroxylation>  (10) 
0

>  <fr_phenol>  (10) 
0

>  <fr_phenol_noOrthoHbond>  (10) 
0

>  <fr_phos_acid>  (10) 
0

>  <fr_phos_ester>  (10) 
0

>  <fr_piperdine>  (10) 
0

>  <fr_piperzine>  (10) 
0

>  <fr_priamide>  (10) 
1

>  <fr_prisulfonamd>  (10) 
0

>  <fr_pyridine>  (10) 
0

>  <fr_quatN>  (10) 
0

>  <fr_sulfide>  (10) 
0

>  <fr_sulfonamd>  (10) 
0

>  <fr_sulfone>  (10) 
0

>  <fr_term_acetylene>  (10) 
0

>  <fr_tetrazole>  (10) 
0

>  <fr_thiazole>  (10) 
0

>  <fr_thiocyan>  (10) 
0

>  <fr_thiophene>  (10) 
0

>  <fr_unbrch_alkane>  (10) 
0

>  <fr_urea>  (10) 
0

>  <NP_Likeness>  (10) 
-1.068861

$$$$
3AB
     RDKit          3D

  0  0  0  0  0  0  0  0  0  0999 V3000
M  V30 BEGIN CTAB
M  V30 COUNTS 18 18 0 0 0
M  V30 BEGIN ATOM
M  V30 1 O -10.610000 1.126000 -44.955000 0
M  V30 2 N -9.730000 2.286000 -46.678000 0
M  V30 3 N -4.843000 2.667000 -45.122000 0
M  V30 4 C -7.387000 2.306000 -42.480000 0
M  V30 5 C -6.158000 2.456000 -43.098000 0
M  V30 6 C -8.530000 2.117000 -43.236000 0
M  V30 7 C -7.218000 2.235000 -45.245000 0
M  V30 8 C -9.684000 1.793000 -45.446000 0
M  V30 9 C -6.061000 2.437000 -44.493000 0
M  V30 10 C -8.453000 2.065000 -44.623000 0
M  V30 11 H -8.961000 2.817700 -47.032800 0
M  V30 12 H -10.533600 2.125600 -47.251100 0
M  V30 13 H -4.784900 2.651100 -46.120200 0
M  V30 14 H -4.024900 2.848400 -44.576300 0
M  V30 15 H -7.449200 2.334400 -41.482300 0
M  V30 16 H -5.334600 2.578700 -42.544000 0
M  V30 17 H -9.415700 2.017300 -42.782600 0
M  V30 18 H -7.160500 2.211900 -46.243100 0
M  V30 END ATOM
M  V30 BEGIN BOND
M  V30 1 2 1 8
M  V30 2 1 2 8
M  V30 3 1 3 9
M  V30 4 2 4 5
M  V30 5 1 4 6
M  V30 6 1 5 9
M  V30 7 2 6 10
M  V30 8 2 7 9
M  V30 9 1 7 10
M  V30 10 1 8 10
M  V30 11 1 2 11
M  V30 12 1 2 12
M  V30 13 1 3 13
M  V30 14 1 3 14
M  V30 15 1 4 15
M  V30 16 1 5 16
M  V30 17 1 6 17
M  V30 18 1 7 18
M  V30 END BOND
M  V30 END CTAB
M  END
>  <Ligand_Instance>  (11) 
5N3Q_3AB_A_403

>  <Dataset>  (11) 
PDB

>  <PDB_ID>  (11) 
5N3Q

>  <Chain>  (11) 
A

>  <Resi>  (11) 
403

>  <Num_Resolved_Atoms>  (11) 
10

>  <Num_H_Atoms_ProtBoundConf>  (11) 
8

>  <Pocket>  (11) 
F

>  <Name>  (11) 
3-aminobenzamide

>  <Num_Not_Resolved_Atoms>  (11) 
0

>  <ATP_Site>  (11) 
True

>  <Peripheral>  (11) 
True

>  <Standardized_SMILES>  (11) 
[H]C1=C([H])C(N([H])[H])=C([H])C(C(=O)N([H])[H])=C1[H]

>  <2D_Mol_H>  (11) 
<rdkit.Chem.rdchem.Mol object at 0x77059d9daa40>

>  <MW>  (11) 
136.154

>  <HBA>  (11) 
2

>  <HBD>  (11) 
2

>  <LogP>  (11) 
0.3677

>  <NRB>  (11) 
2

>  <TPSA>  (11) 
69.11

>  <Num_Heavy_Atoms>  (11) 
10

>  <Ro5>  (11) 
[True, True, True, True, True, True]

>  <Ro5_Fulfilled>  (11) 
True

>  <Ro3>  (11) 
[True, True, True, True]

>  <Ro3_Fulfilled>  (11) 
True

>  <Fsp3>  (11) 
0.0

>  <Fsp3_0.42>  (11) 
False

>  <Fsp3_0.45>  (11) 
False

>  <Stereogenic_Carbons>  (11) 
0

>  <C_Atoms>  (11) 
7

>  <FCStereo>  (11) 
0.0

>  <SPS>  (11) 
92

>  <nSPS>  (11) 
9.2

>  <PBF>  (11) 
0.179074

>  <PBF_0.6>  (11) 
False

>  <nPBF>  (11) 
0.017907

>  <nPBF_0.016>  (11) 
True

>  <PMI1>  (11) 
192.284489

>  <PMI2>  (11) 
531.322892

>  <PMI3>  (11) 
708.059675

>  <NPR1>  (11) 
0.271565

>  <NPR2>  (11) 
0.750393

>  <Sum_NPR>  (11) 
1.021958

>  <Sum_NPR_1.07>  (11) 
False

>  <Sum_NPR_1.2>  (11) 
False

>  <MaxAbsEStateIndex>  (11) 
10.519815

>  <MaxEStateIndex>  (11) 
10.519815

>  <MinAbsEStateIndex>  (11) 
0.444444

>  <MinEStateIndex>  (11) 
-0.451574

>  <qed>  (11) 
0.547342

>  <MolWt>  (11) 
136.154

>  <HeavyAtomMolWt>  (11) 
128.09

>  <ExactMolWt>  (11) 
136.063663

>  <NumValenceElectrons>  (11) 
52

>  <NumRadicalElectrons>  (11) 
0

>  <MaxPartialCharge>  (11) 
0.248273

>  <MinPartialCharge>  (11) 
-0.398709

>  <MaxAbsPartialCharge>  (11) 
0.398709

>  <MinAbsPartialCharge>  (11) 
0.248273

>  <FpDensityMorgan1>  (11) 
1.4

>  <FpDensityMorgan2>  (11) 
2.1

>  <FpDensityMorgan3>  (11) 
2.5

>  <BCUT2D_MWHI>  (11) 
16.146266

>  <BCUT2D_MWLOW>  (11) 
10.1766

>  <BCUT2D_CHGHI>  (11) 
1.96704

>  <BCUT2D_CHGLO>  (11) 
-1.942641

>  <BCUT2D_LOGPHI>  (11) 
2.040165

>  <BCUT2D_LOGPLOW>  (11) 
-2.102398

>  <BCUT2D_MRHI>  (11) 
5.930391

>  <BCUT2D_MRLOW>  (11) 
0.10001

>  <AvgIpc>  (11) 
1.875714

>  <BalabanJ>  (11) 
3.069899

>  <BertzCT>  (11) 
257.537949

>  <Chi0>  (11) 
7.560478

>  <Chi0n>  (11) 
5.37235

>  <Chi0v>  (11) 
5.37235

>  <Chi1>  (11) 
4.698377

>  <Chi1n>  (11) 
2.852842

>  <Chi1v>  (11) 
2.852842

>  <Chi2n>  (11) 
1.989714

>  <Chi2v>  (11) 
1.989714

>  <Chi3n>  (11) 
1.171145

>  <Chi3v>  (11) 
1.171145

>  <Chi4n>  (11) 
0.691938

>  <Chi4v>  (11) 
0.691938

>  <HallKierAlpha>  (11) 
-1.51

>  <Ipc>  (11) 
178.192787

>  <Kappa1>  (11) 
6.607786

>  <Kappa2>  (11) 
2.389633

>  <Kappa3>  (11) 
1.253905

>  <LabuteASA>  (11) 
58.637649

>  <PEOE_VSA1>  (11) 
11.467335

>  <PEOE_VSA10>  (11) 
0.0

>  <PEOE_VSA11>  (11) 
0.0

>  <PEOE_VSA12>  (11) 
5.90718

>  <PEOE_VSA13>  (11) 
0.0

>  <PEOE_VSA14>  (11) 
0.0

>  <PEOE_VSA2>  (11) 
4.794537

>  <PEOE_VSA3>  (11) 
0.0

>  <PEOE_VSA4>  (11) 
0.0

>  <PEOE_VSA5>  (11) 
0.0

>  <PEOE_VSA6>  (11) 
6.066367

>  <PEOE_VSA7>  (11) 
18.199101

>  <PEOE_VSA8>  (11) 
11.250838

>  <PEOE_VSA9>  (11) 
0.0

>  <SMR_VSA1>  (11) 
4.794537

>  <SMR_VSA10>  (11) 
11.594566

>  <SMR_VSA2>  (11) 
0.0

>  <SMR_VSA3>  (11) 
0.0

>  <SMR_VSA4>  (11) 
5.733667

>  <SMR_VSA5>  (11) 
0.0

>  <SMR_VSA6>  (11) 
5.733667

>  <SMR_VSA7>  (11) 
29.82892

>  <SMR_VSA8>  (11) 
0.0

>  <SMR_VSA9>  (11) 
0.0

>  <SlogP_VSA1>  (11) 
11.467335

>  <SlogP_VSA10>  (11) 
5.687386

>  <SlogP_VSA11>  (11) 
0.0

>  <SlogP_VSA12>  (11) 
0.0

>  <SlogP_VSA2>  (11) 
5.90718

>  <SlogP_VSA3>  (11) 
0.0

>  <SlogP_VSA4>  (11) 
0.0

>  <SlogP_VSA5>  (11) 
10.357989

>  <SlogP_VSA6>  (11) 
24.265468

>  <SlogP_VSA7>  (11) 
0.0

>  <SlogP_VSA8>  (11) 
0.0

>  <SlogP_VSA9>  (11) 
0.0

>  <EState_VSA1>  (11) 
5.90718

>  <EState_VSA10>  (11) 
4.794537

>  <EState_VSA11>  (11) 
0.0

>  <EState_VSA2>  (11) 
0.0

>  <EState_VSA3>  (11) 
11.250838

>  <EState_VSA4>  (11) 
0.0

>  <EState_VSA5>  (11) 
0.0

>  <EState_VSA6>  (11) 
24.265468

>  <EState_VSA7>  (11) 
0.0

>  <EState_VSA8>  (11) 
0.0

>  <EState_VSA9>  (11) 
11.467335

>  <VSA_EState1>  (11) 
0.0

>  <VSA_EState10>  (11) 
0.0

>  <VSA_EState2>  (11) 
10.519815

>  <VSA_EState3>  (11) 
0.0

>  <VSA_EState4>  (11) 
11.373333

>  <VSA_EState5>  (11) 
-0.451574

>  <VSA_EState6>  (11) 
6.558426

>  <VSA_EState7>  (11) 
0.0

>  <VSA_EState8>  (11) 
0.0

>  <VSA_EState9>  (11) 
0.0

>  <FractionCSP3>  (11) 
0.0

>  <HeavyAtomCount>  (11) 
10

>  <NHOHCount>  (11) 
4

>  <NOCount>  (11) 
3

>  <NumAliphaticCarbocycles>  (11) 
0

>  <NumAliphaticHeterocycles>  (11) 
0

>  <NumAliphaticRings>  (11) 
0

>  <NumAromaticCarbocycles>  (11) 
1

>  <NumAromaticHeterocycles>  (11) 
0

>  <NumAromaticRings>  (11) 
1

>  <NumHAcceptors>  (11) 
2

>  <NumHDonors>  (11) 
2

>  <NumHeteroatoms>  (11) 
3

>  <NumRotatableBonds>  (11) 
1

>  <NumSaturatedCarbocycles>  (11) 
0

>  <NumSaturatedHeterocycles>  (11) 
0

>  <NumSaturatedRings>  (11) 
0

>  <RingCount>  (11) 
1

>  <MolLogP>  (11) 
0.3677

>  <MolMR>  (11) 
39.3723

>  <fr_Al_COO>  (11) 
0

>  <fr_Al_OH>  (11) 
0

>  <fr_Al_OH_noTert>  (11) 
0

>  <fr_ArN>  (11) 
1

>  <fr_Ar_COO>  (11) 
0

>  <fr_Ar_N>  (11) 
0

>  <fr_Ar_NH>  (11) 
0

>  <fr_Ar_OH>  (11) 
0

>  <fr_COO>  (11) 
0

>  <fr_COO2>  (11) 
0

>  <fr_C_O>  (11) 
1

>  <fr_C_O_noCOO>  (11) 
1

>  <fr_C_S>  (11) 
0

>  <fr_HOCCN>  (11) 
0

>  <fr_Imine>  (11) 
0

>  <fr_NH0>  (11) 
0

>  <fr_NH1>  (11) 
0

>  <fr_NH2>  (11) 
2

>  <fr_N_O>  (11) 
0

>  <fr_Ndealkylation1>  (11) 
0

>  <fr_Ndealkylation2>  (11) 
0

>  <fr_Nhpyrrole>  (11) 
0

>  <fr_SH>  (11) 
0

>  <fr_aldehyde>  (11) 
0

>  <fr_alkyl_carbamate>  (11) 
0

>  <fr_alkyl_halide>  (11) 
0

>  <fr_allylic_oxid>  (11) 
0

>  <fr_amide>  (11) 
1

>  <fr_amidine>  (11) 
0

>  <fr_aniline>  (11) 
1

>  <fr_aryl_methyl>  (11) 
0

>  <fr_azide>  (11) 
0

>  <fr_azo>  (11) 
0

>  <fr_barbitur>  (11) 
0

>  <fr_benzene>  (11) 
1

>  <fr_benzodiazepine>  (11) 
0

>  <fr_bicyclic>  (11) 
0

>  <fr_diazo>  (11) 
0

>  <fr_dihydropyridine>  (11) 
0

>  <fr_epoxide>  (11) 
0

>  <fr_ester>  (11) 
0

>  <fr_ether>  (11) 
0

>  <fr_furan>  (11) 
0

>  <fr_guanido>  (11) 
0

>  <fr_halogen>  (11) 
0

>  <fr_hdrzine>  (11) 
0

>  <fr_hdrzone>  (11) 
0

>  <fr_imidazole>  (11) 
0

>  <fr_imide>  (11) 
0

>  <fr_isocyan>  (11) 
0

>  <fr_isothiocyan>  (11) 
0

>  <fr_ketone>  (11) 
0

>  <fr_ketone_Topliss>  (11) 
0

>  <fr_lactam>  (11) 
0

>  <fr_lactone>  (11) 
0

>  <fr_methoxy>  (11) 
0

>  <fr_morpholine>  (11) 
0

>  <fr_nitrile>  (11) 
0

>  <fr_nitro>  (11) 
0

>  <fr_nitro_arom>  (11) 
0

>  <fr_nitro_arom_nonortho>  (11) 
0

>  <fr_nitroso>  (11) 
0

>  <fr_oxazole>  (11) 
0

>  <fr_oxime>  (11) 
0

>  <fr_para_hydroxylation>  (11) 
0

>  <fr_phenol>  (11) 
0

>  <fr_phenol_noOrthoHbond>  (11) 
0

>  <fr_phos_acid>  (11) 
0

>  <fr_phos_ester>  (11) 
0

>  <fr_piperdine>  (11) 
0

>  <fr_piperzine>  (11) 
0

>  <fr_priamide>  (11) 
1

>  <fr_prisulfonamd>  (11) 
0

>  <fr_pyridine>  (11) 
0

>  <fr_quatN>  (11) 
0

>  <fr_sulfide>  (11) 
0

>  <fr_sulfonamd>  (11) 
0

>  <fr_sulfone>  (11) 
0

>  <fr_term_acetylene>  (11) 
0

>  <fr_tetrazole>  (11) 
0

>  <fr_thiazole>  (11) 
0

>  <fr_thiocyan>  (11) 
0

>  <fr_thiophene>  (11) 
0

>  <fr_unbrch_alkane>  (11) 
0

>  <fr_urea>  (11) 
0

>  <NP_Likeness>  (11) 
-1.068861

$$$$
3AE
     RDKit          3D

  0  0  0  0  0  0  0  0  0  0999 V3000
M  V30 BEGIN CTAB
M  V30 COUNTS 18 18 0 0 0
M  V30 BEGIN ATOM
M  V30 1 F 10.439000 1.448000 17.311000 0
M  V30 2 F 9.881000 1.242000 19.316000 0
M  V30 3 F 9.685000 3.133000 18.364000 0
M  V30 4 O 16.174000 4.551000 20.182000 0
M  V30 5 O 16.610000 2.384000 20.471000 0
M  V30 6 C 14.073000 1.673000 19.539000 0
M  V30 7 C 13.541000 4.010000 19.525000 0
M  V30 8 C 12.785000 1.380000 19.133000 0
M  V30 9 C 12.250000 3.711000 19.128000 0
M  V30 10 C 15.864000 3.284000 20.130000 0
M  V30 11 C 14.472000 2.991000 19.719000 0
M  V30 12 C 11.859000 2.393000 18.914000 0
M  V30 13 C 10.473000 2.061000 18.480000 0
M  V30 14 H 14.722400 0.930700 19.704400 0
M  V30 15 H 13.807700 4.962300 19.673600 0
M  V30 16 H 12.515800 0.426900 18.995000 0
M  V30 17 H 11.590400 4.450400 18.993300 0
M  V30 18 H 17.072800 4.832500 20.518200 0
M  V30 END ATOM
M  V30 BEGIN BOND
M  V30 1 1 13 1
M  V30 2 1 2 13
M  V30 3 1 3 13
M  V30 4 1 4 10
M  V30 5 2 5 10
M  V30 6 2 6 8
M  V30 7 1 6 11
M  V30 8 1 7 9
M  V30 9 2 7 11
M  V30 10 1 8 12
M  V30 11 2 9 12
M  V30 12 1 10 11
M  V30 13 1 12 13
M  V30 14 1 9 17
M  V30 15 1 6 14
M  V30 16 1 7 15
M  V30 17 1 8 16
M  V30 18 1 4 18
M  V30 END BOND
M  V30 END CTAB
M  END
>  <Ligand_Instance>  (12) 
6SPM_3AE_A_401

>  <Dataset>  (12) 
PDB

>  <PDB_ID>  (12) 
6SPM

>  <Chain>  (12) 
A

>  <Resi>  (12) 
401

>  <Num_Resolved_Atoms>  (12) 
13

>  <Num_H_Atoms_ProtBoundConf>  (12) 
5

>  <Pocket>  (12) 
A

>  <Name>  (12) 
4-(trifluoromethyl)benzoic acid

>  <Num_Not_Resolved_Atoms>  (12) 
0

>  <ATP_Site>  (12) 
True

>  <Peripheral>  (12) 
False

>  <Standardized_SMILES>  (12) 
[H]OC(=O)C1=C([H])C([H])=C(C(F)(F)F)C([H])=C1[H]

>  <2D_Mol_H>  (12) 
<rdkit.Chem.rdchem.Mol object at 0x77059d9dab20>

>  <MW>  (12) 
190.12

>  <HBA>  (12) 
2

>  <HBD>  (12) 
1

>  <LogP>  (12) 
2.4036

>  <NRB>  (12) 
1

>  <TPSA>  (12) 
37.3

>  <Num_Heavy_Atoms>  (12) 
13

>  <Ro5>  (12) 
[True, True, True, True, True, True]

>  <Ro5_Fulfilled>  (12) 
True

>  <Ro3>  (12) 
[True, True, True, True]

>  <Ro3_Fulfilled>  (12) 
True

>  <Fsp3>  (12) 
0.125

>  <Fsp3_0.42>  (12) 
False

>  <Fsp3_0.45>  (12) 
False

>  <Stereogenic_Carbons>  (12) 
0

>  <C_Atoms>  (12) 
8

>  <FCStereo>  (12) 
0.0

>  <SPS>  (12) 
147

>  <nSPS>  (12) 
11.307692

>  <PBF>  (12) 
0.15

>  <PBF_0.6>  (12) 
False

>  <nPBF>  (12) 
0.011538

>  <nPBF_0.016>  (12) 
False

>  <PMI1>  (12) 
212.161703

>  <PMI2>  (12) 
1348.520151

>  <PMI3>  (12) 
1476.638488

>  <NPR1>  (12) 
0.143679

>  <NPR2>  (12) 
0.913236

>  <Sum_NPR>  (12) 
1.056915

>  <Sum_NPR_1.07>  (12) 
False

>  <Sum_NPR_1.2>  (12) 
False

>  <MaxAbsEStateIndex>  (12) 
11.973256

>  <MaxEStateIndex>  (12) 
11.973256

>  <MinAbsEStateIndex>  (12) 
0.159259

>  <MinEStateIndex>  (12) 
-4.41961

>  <qed>  (12) 
0.737706

>  <MolWt>  (12) 
190.12

>  <HeavyAtomMolWt>  (12) 
185.08

>  <ExactMolWt>  (12) 
190.024164

>  <NumValenceElectrons>  (12) 
70

>  <NumRadicalElectrons>  (12) 
0

>  <MaxPartialCharge>  (12) 
0.41591

>  <MinPartialCharge>  (12) 
-0.477639

>  <MaxAbsPartialCharge>  (12) 
0.477639

>  <MinAbsPartialCharge>  (12) 
0.41591

>  <FpDensityMorgan1>  (12) 
1.153846

>  <FpDensityMorgan2>  (12) 
1.615385

>  <FpDensityMorgan3>  (12) 
1.923077

>  <BCUT2D_MWHI>  (12) 
19.41317

>  <BCUT2D_MWLOW>  (12) 
10.129826

>  <BCUT2D_CHGHI>  (12) 
2.295922

>  <BCUT2D_CHGLO>  (12) 
-2.049932

>  <BCUT2D_LOGPHI>  (12) 
2.284355

>  <BCUT2D_LOGPLOW>  (12) 
-2.051094

>  <BCUT2D_MRHI>  (12) 
5.870261

>  <BCUT2D_MRLOW>  (12) 
-0.137148

>  <AvgIpc>  (12) 
2.028259

>  <BalabanJ>  (12) 
3.008741

>  <BertzCT>  (12) 
313.156178

>  <Chi0>  (12) 
10.060478

>  <Chi0n>  (12) 
6.298756

>  <Chi0v>  (12) 
6.298756

>  <Chi1>  (12) 
5.909702

>  <Chi1n>  (12) 
3.316045

>  <Chi1v>  (12) 
3.316045

>  <Chi2n>  (12) 
2.380262

>  <Chi2v>  (12) 
2.380262

>  <Chi3n>  (12) 
1.459178

>  <Chi3v>  (12) 
1.459178

>  <Chi4n>  (12) 
0.801787

>  <Chi4v>  (12) 
0.801787

>  <HallKierAlpha>  (12) 
-1.52

>  <Ipc>  (12) 
608.477849

>  <Kappa1>  (12) 
9.567108

>  <Kappa2>  (12) 
3.082443

>  <Kappa3>  (12) 
2.206729

>  <LabuteASA>  (12) 
71.613649

>  <PEOE_VSA1>  (12) 
5.106527

>  <PEOE_VSA10>  (12) 
0.0

>  <PEOE_VSA11>  (12) 
0.0

>  <PEOE_VSA12>  (12) 
0.0

>  <PEOE_VSA13>  (12) 
0.0

>  <PEOE_VSA14>  (12) 
12.145604

>  <PEOE_VSA2>  (12) 
0.0

>  <PEOE_VSA3>  (12) 
4.794537

>  <PEOE_VSA4>  (12) 
13.171245

>  <PEOE_VSA5>  (12) 
0.0

>  <PEOE_VSA6>  (12) 
0.0

>  <PEOE_VSA7>  (12) 
24.265468

>  <PEOE_VSA8>  (12) 
0.0

>  <PEOE_VSA9>  (12) 
11.126903

>  <SMR_VSA1>  (12) 
23.07231

>  <SMR_VSA10>  (12) 
5.969305

>  <SMR_VSA2>  (12) 
0.0

>  <SMR_VSA3>  (12) 
0.0

>  <SMR_VSA4>  (12) 
0.0

>  <SMR_VSA5>  (12) 
6.176299

>  <SMR_VSA6>  (12) 
0.0

>  <SMR_VSA7>  (12) 
35.392371

>  <SMR_VSA8>  (12) 
0.0

>  <SMR_VSA9>  (12) 
0.0

>  <SlogP_VSA1>  (12) 
0.0

>  <SlogP_VSA10>  (12) 
13.171245

>  <SlogP_VSA11>  (12) 
0.0

>  <SlogP_VSA12>  (12) 
0.0

>  <SlogP_VSA2>  (12) 
11.075833

>  <SlogP_VSA3>  (12) 
6.176299

>  <SlogP_VSA4>  (12) 
0.0

>  <SlogP_VSA5>  (12) 
15.92144

>  <SlogP_VSA6>  (12) 
24.265468

>  <SlogP_VSA7>  (12) 
0.0

>  <SlogP_VSA8>  (12) 
0.0

>  <SlogP_VSA9>  (12) 
0.0

>  <EState_VSA1>  (12) 
17.709055

>  <EState_VSA10>  (12) 
17.965782

>  <EState_VSA11>  (12) 
0.0

>  <EState_VSA2>  (12) 
5.563451

>  <EState_VSA3>  (12) 
0.0

>  <EState_VSA4>  (12) 
24.265468

>  <EState_VSA5>  (12) 
0.0

>  <EState_VSA6>  (12) 
0.0

>  <EState_VSA7>  (12) 
0.0

>  <EState_VSA8>  (12) 
0.0

>  <EState_VSA9>  (12) 
5.106527

>  <VSA_EState1>  (12) 
35.919769

>  <VSA_EState10>  (12) 
0.0

>  <VSA_EState2>  (12) 
10.280657

>  <VSA_EState3>  (12) 
8.397263

>  <VSA_EState4>  (12) 
-1.008796

>  <VSA_EState5>  (12) 
-1.241922

>  <VSA_EState6>  (12) 
3.322639

>  <VSA_EState7>  (12) 
-4.41961

>  <VSA_EState8>  (12) 
0.0

>  <VSA_EState9>  (12) 
0.0

>  <FractionCSP3>  (12) 
0.125

>  <HeavyAtomCount>  (12) 
13

>  <NHOHCount>  (12) 
1

>  <NOCount>  (12) 
2

>  <NumAliphaticCarbocycles>  (12) 
0

>  <NumAliphaticHeterocycles>  (12) 
0

>  <NumAliphaticRings>  (12) 
0

>  <NumAromaticCarbocycles>  (12) 
1

>  <NumAromaticHeterocycles>  (12) 
0

>  <NumAromaticRings>  (12) 
1

>  <NumHAcceptors>  (12) 
1

>  <NumHDonors>  (12) 
1

>  <NumHeteroatoms>  (12) 
5

>  <NumRotatableBonds>  (12) 
1

>  <NumSaturatedCarbocycles>  (12) 
0

>  <NumSaturatedHeterocycles>  (12) 
0

>  <NumSaturatedRings>  (12) 
0

>  <RingCount>  (12) 
1

>  <MolLogP>  (12) 
2.4036

>  <MolMR>  (12) 
38.4033

>  <fr_Al_COO>  (12) 
0

>  <fr_Al_OH>  (12) 
0

>  <fr_Al_OH_noTert>  (12) 
0

>  <fr_ArN>  (12) 
0

>  <fr_Ar_COO>  (12) 
1

>  <fr_Ar_N>  (12) 
0

>  <fr_Ar_NH>  (12) 
0

>  <fr_Ar_OH>  (12) 
0

>  <fr_COO>  (12) 
1

>  <fr_COO2>  (12) 
1

>  <fr_C_O>  (12) 
1

>  <fr_C_O_noCOO>  (12) 
0

>  <fr_C_S>  (12) 
0

>  <fr_HOCCN>  (12) 
0

>  <fr_Imine>  (12) 
0

>  <fr_NH0>  (12) 
0

>  <fr_NH1>  (12) 
0

>  <fr_NH2>  (12) 
0

>  <fr_N_O>  (12) 
0

>  <fr_Ndealkylation1>  (12) 
0

>  <fr_Ndealkylation2>  (12) 
0

>  <fr_Nhpyrrole>  (12) 
0

>  <fr_SH>  (12) 
0

>  <fr_aldehyde>  (12) 
0

>  <fr_alkyl_carbamate>  (12) 
0

>  <fr_alkyl_halide>  (12) 
3

>  <fr_allylic_oxid>  (12) 
0

>  <fr_amide>  (12) 
0

>  <fr_amidine>  (12) 
0

>  <fr_aniline>  (12) 
0

>  <fr_aryl_methyl>  (12) 
0

>  <fr_azide>  (12) 
0

>  <fr_azo>  (12) 
0

>  <fr_barbitur>  (12) 
0

>  <fr_benzene>  (12) 
1

>  <fr_benzodiazepine>  (12) 
0

>  <fr_bicyclic>  (12) 
0

>  <fr_diazo>  (12) 
0

>  <fr_dihydropyridine>  (12) 
0

>  <fr_epoxide>  (12) 
0

>  <fr_ester>  (12) 
0

>  <fr_ether>  (12) 
0

>  <fr_furan>  (12) 
0

>  <fr_guanido>  (12) 
0

>  <fr_halogen>  (12) 
3

>  <fr_hdrzine>  (12) 
0

>  <fr_hdrzone>  (12) 
0

>  <fr_imidazole>  (12) 
0

>  <fr_imide>  (12) 
0

>  <fr_isocyan>  (12) 
0

>  <fr_isothiocyan>  (12) 
0

>  <fr_ketone>  (12) 
0

>  <fr_ketone_Topliss>  (12) 
0

>  <fr_lactam>  (12) 
0

>  <fr_lactone>  (12) 
0

>  <fr_methoxy>  (12) 
0

>  <fr_morpholine>  (12) 
0

>  <fr_nitrile>  (12) 
0

>  <fr_nitro>  (12) 
0

>  <fr_nitro_arom>  (12) 
0

>  <fr_nitro_arom_nonortho>  (12) 
0

>  <fr_nitroso>  (12) 
0

>  <fr_oxazole>  (12) 
0

>  <fr_oxime>  (12) 
0

>  <fr_para_hydroxylation>  (12) 
0

>  <fr_phenol>  (12) 
0

>  <fr_phenol_noOrthoHbond>  (12) 
0

>  <fr_phos_acid>  (12) 
0

>  <fr_phos_ester>  (12) 
0

>  <fr_piperdine>  (12) 
0

>  <fr_piperzine>  (12) 
0

>  <fr_priamide>  (12) 
0

>  <fr_prisulfonamd>  (12) 
0

>  <fr_pyridine>  (12) 
0

>  <fr_quatN>  (12) 
0

>  <fr_sulfide>  (12) 
0

>  <fr_sulfonamd>  (12) 
0

>  <fr_sulfone>  (12) 
0

>  <fr_term_acetylene>  (12) 
0

>  <fr_tetrazole>  (12) 
0

>  <fr_thiazole>  (12) 
0

>  <fr_thiocyan>  (12) 
0

>  <fr_thiophene>  (12) 
0

>  <fr_unbrch_alkane>  (12) 
0

>  <fr_urea>  (12) 
0

>  <NP_Likeness>  (12) 
-0.83681

$$$$
3SB
     RDKit          3D

  0  0  0  0  0  0  0  0  0  0999 V3000
M  V30 BEGIN CTAB
M  V30 COUNTS 40 41 0 0 0
M  V30 BEGIN ATOM
M  V30 1 O 26.968000 -8.936000 -0.222000 0
M  V30 2 O 35.148000 -9.831000 3.469000 0
M  V30 3 O 31.254000 -9.682000 0.689000 0
M  V30 4 N 24.381000 -8.321000 0.473000 0 CHG=1
M  V30 5 N 28.793000 -9.510000 1.876000 0
M  V30 6 N 27.417000 -9.610000 1.959000 0
M  V30 7 C 30.611000 -10.067000 5.513000 0
M  V30 8 C 29.478000 -9.889000 2.959000 0
M  V30 9 C 23.720000 -13.128000 -0.795000 0
M  V30 10 C 23.711000 -11.936000 -1.521000 0
M  V30 11 C 24.154000 -13.133000 0.522000 0
M  V30 12 C 24.134000 -10.752000 -0.913000 0
M  V30 13 C 24.572000 -11.953000 1.134000 0
M  V30 14 C 33.194000 -9.746000 2.091000 0
M  V30 15 C 32.951000 -9.941000 4.481000 0
M  V30 16 C 26.516000 -9.302000 0.859000 0
M  V30 17 C 33.765000 -9.842000 3.356000 0
M  V30 18 C 31.805000 -9.759000 1.948000 0
M  V30 19 C 25.019000 -9.460000 1.057000 0 CFG=2
M  V30 20 C 31.555000 -9.959000 4.328000 0
M  V30 21 C 24.558000 -10.755000 0.412000 0
M  V30 22 C 30.989000 -9.862000 3.059000 0
M  V30 23 H 35.716000 -9.755000 2.649500 0
M  V30 24 H 30.260400 -9.690600 0.576700 0
M  V30 25 H 23.390700 -8.397900 0.588700 0
M  V30 26 H 24.705700 -7.489500 0.923700 0
M  V30 27 H 27.017800 -9.911400 2.824900 0
M  V30 28 H 29.665500 -10.062700 5.187400 0
M  V30 29 H 30.790100 -10.918800 6.005300 0
M  V30 30 H 30.755900 -9.290600 6.126400 0
M  V30 31 H 28.961000 -10.210300 3.752400 0
M  V30 32 H 23.413700 -13.977700 -1.224200 0
M  V30 33 H 23.403000 -11.929800 -2.472400 0
M  V30 34 H 24.167100 -13.990300 1.036700 0
M  V30 35 H 24.132100 -9.897700 -1.432700 0
M  V30 36 H 24.880600 -11.962600 2.085100 0
M  V30 37 H 33.778700 -9.667600 1.283500 0
M  V30 38 H 33.357800 -9.999000 5.392700 0
M  V30 39 H 24.815800 -9.487300 2.035800 0
M  V30 40 H 24.600500 -8.279300 -0.501700 0
M  V30 END ATOM
M  V30 BEGIN BOND
M  V30 1 2 1 16
M  V30 2 1 2 17
M  V30 3 1 3 18
M  V30 4 1 4 19
M  V30 5 1 5 6
M  V30 6 2 5 8
M  V30 7 1 6 16
M  V30 8 1 7 20
M  V30 9 1 8 22
M  V30 10 2 9 10
M  V30 11 1 9 11
M  V30 12 1 10 12
M  V30 13 2 11 13
M  V30 14 2 12 21
M  V30 15 1 13 21
M  V30 16 2 14 17
M  V30 17 1 14 18
M  V30 18 1 15 17
M  V30 19 2 15 20
M  V30 20 1 16 19
M  V30 21 2 18 22
M  V30 22 1 19 21
M  V30 23 1 20 22
M  V30 24 1 2 23
M  V30 25 1 3 24
M  V30 26 1 4 25
M  V30 27 1 4 26
M  V30 28 1 6 27
M  V30 29 1 7 28
M  V30 30 1 7 29
M  V30 31 1 7 30
M  V30 32 1 8 31
M  V30 33 1 9 32
M  V30 34 1 10 33
M  V30 35 1 11 34
M  V30 36 1 12 35
M  V30 37 1 13 36
M  V30 38 1 14 37
M  V30 39 1 15 38
M  V30 40 1 19 39 CFG=1
M  V30 41 1 4 40
M  V30 END BOND
M  V30 END CTAB
M  END
>  <Ligand_Instance>  (13) 
3OXT_3SB_A_2001

>  <Dataset>  (13) 
PDB

>  <PDB_ID>  (13) 
3OXT

>  <Chain>  (13) 
A

>  <Resi>  (13) 
2001

>  <Num_Resolved_Atoms>  (13) 
22

>  <Num_H_Atoms_ProtBoundConf>  (13) 
18

>  <Pocket>  (13) 
A

>  <Name>  (13) 
(2S)-2-amino-N'-[(1E)-(2,4-dihydroxy-6-methylphenyl)methylidene]-2-phenylethanehydrazide

>  <Num_Not_Resolved_Atoms>  (13) 
0

>  <ATP_Site>  (13) 
True

>  <Peripheral>  (13) 
False

>  <Standardized_SMILES>  (13) 
[H]OC1=C([H])C(O[H])=C(/C([H])=N/N([H])C(=O)[C@]([H])(C2=C([H])C([H])=C([H])C([H])=C2[H])[N+]([H])([H])[H])C(C([H])([H])[H])=C1[H]

>  <2D_Mol_H>  (13) 
<rdkit.Chem.rdchem.Mol object at 0x77059d9dac00>

>  <MW>  (13) 
300.338

>  <HBA>  (13) 
4

>  <HBD>  (13) 
4

>  <LogP>  (13) 
0.83952

>  <NRB>  (13) 
8

>  <TPSA>  (13) 
109.56

>  <Num_Heavy_Atoms>  (13) 
22

>  <Ro5>  (13) 
[True, True, True, True, True, True]

>  <Ro5_Fulfilled>  (13) 
True

>  <Ro3>  (13) 
[False, False, False, True]

>  <Ro3_Fulfilled>  (13) 
False

>  <Fsp3>  (13) 
0.125

>  <Fsp3_0.42>  (13) 
False

>  <Fsp3_0.45>  (13) 
False

>  <Stereogenic_Carbons>  (13) 
1

>  <C_Atoms>  (13) 
16

>  <FCStereo>  (13) 
0.0625

>  <SPS>  (13) 
270

>  <nSPS>  (13) 
12.272727

>  <PBF>  (13) 
0.986732

>  <PBF_0.6>  (13) 
True

>  <nPBF>  (13) 
0.044851

>  <nPBF_0.016>  (13) 
True

>  <PMI1>  (13) 
764.170933

>  <PMI2>  (13) 
5290.060941

>  <PMI3>  (13) 
5322.836153

>  <NPR1>  (13) 
0.143565

>  <NPR2>  (13) 
0.993843

>  <Sum_NPR>  (13) 
1.137407

>  <Sum_NPR_1.07>  (13) 
True

>  <Sum_NPR_1.2>  (13) 
False

>  <MaxAbsEStateIndex>  (13) 
11.967794

>  <MaxEStateIndex>  (13) 
11.967794

>  <MinAbsEStateIndex>  (13) 
0.029551

>  <MinEStateIndex>  (13) 
-0.576054

>  <qed>  (13) 
0.495856

>  <MolWt>  (13) 
300.338

>  <HeavyAtomMolWt>  (13) 
282.194

>  <ExactMolWt>  (13) 
300.134268

>  <NumValenceElectrons>  (13) 
114

>  <NumRadicalElectrons>  (13) 
0

>  <MaxPartialCharge>  (13) 
0.302519

>  <MinPartialCharge>  (13) 
-0.507812

>  <MaxAbsPartialCharge>  (13) 
0.507812

>  <MinAbsPartialCharge>  (13) 
0.302519

>  <FpDensityMorgan1>  (13) 
1.272727

>  <FpDensityMorgan2>  (13) 
1.954545

>  <FpDensityMorgan3>  (13) 
2.590909

>  <BCUT2D_MWHI>  (13) 
16.266835

>  <BCUT2D_MWLOW>  (13) 
10.08228

>  <BCUT2D_CHGHI>  (13) 
2.180417

>  <BCUT2D_CHGLO>  (13) 
-2.070748

>  <BCUT2D_LOGPHI>  (13) 
2.244888

>  <BCUT2D_LOGPLOW>  (13) 
-2.591506

>  <BCUT2D_MRHI>  (13) 
5.876439

>  <BCUT2D_MRLOW>  (13) 
-0.409347

>  <AvgIpc>  (13) 
2.493746

>  <BalabanJ>  (13) 
2.052255

>  <BertzCT>  (13) 
676.032261

>  <Chi0>  (13) 
16.11252

>  <Chi0n>  (13) 
12.153148

>  <Chi0v>  (13) 
12.153148

>  <Chi1>  (13) 
10.486071

>  <Chi1n>  (13) 
6.722801

>  <Chi1v>  (13) 
6.722801

>  <Chi2n>  (13) 
4.892991

>  <Chi2v>  (13) 
4.892991

>  <Chi3n>  (13) 
3.236608

>  <Chi3v>  (13) 
3.236608

>  <Chi4n>  (13) 
2.00412

>  <Chi4v>  (13) 
2.00412

>  <HallKierAlpha>  (13) 
-2.86

>  <Ipc>  (13) 
80737.512781

>  <Kappa1>  (13) 
15.527358

>  <Kappa2>  (13) 
6.729933

>  <Kappa3>  (13) 
3.615883

>  <LabuteASA>  (13) 
127.453467

>  <PEOE_VSA1>  (13) 
15.946722

>  <PEOE_VSA10>  (13) 
11.499024

>  <PEOE_VSA11>  (13) 
6.041841

>  <PEOE_VSA12>  (13) 
0.0

>  <PEOE_VSA13>  (13) 
0.0

>  <PEOE_VSA14>  (13) 
5.90718

>  <PEOE_VSA2>  (13) 
4.794537

>  <PEOE_VSA3>  (13) 
5.425791

>  <PEOE_VSA4>  (13) 
5.101408

>  <PEOE_VSA5>  (13) 
0.0

>  <PEOE_VSA6>  (13) 
30.331835

>  <PEOE_VSA7>  (13) 
18.553556

>  <PEOE_VSA8>  (13) 
17.19327

>  <PEOE_VSA9>  (13) 
6.214601

>  <SMR_VSA1>  (13) 
20.741259

>  <SMR_VSA10>  (13) 
12.12178

>  <SMR_VSA2>  (13) 
0.0

>  <SMR_VSA3>  (13) 
5.425791

>  <SMR_VSA4>  (13) 
5.101408

>  <SMR_VSA5>  (13) 
12.965578

>  <SMR_VSA6>  (13) 
0.0

>  <SMR_VSA7>  (13) 
59.154924

>  <SMR_VSA8>  (13) 
0.0

>  <SMR_VSA9>  (13) 
11.499024

>  <SlogP_VSA1>  (13) 
11.159459

>  <SlogP_VSA10>  (13) 
0.0

>  <SlogP_VSA11>  (13) 
11.499024

>  <SlogP_VSA12>  (13) 
0.0

>  <SlogP_VSA2>  (13) 
22.334835

>  <SlogP_VSA3>  (13) 
4.794537

>  <SlogP_VSA4>  (13) 
6.923737

>  <SlogP_VSA5>  (13) 
22.732195

>  <SlogP_VSA6>  (13) 
47.565977

>  <SlogP_VSA7>  (13) 
0.0

>  <SlogP_VSA8>  (13) 
0.0

>  <SlogP_VSA9>  (13) 
0.0

>  <EState_VSA1>  (13) 
6.041841

>  <EState_VSA10>  (13) 
15.007592

>  <EState_VSA11>  (13) 
0.0

>  <EState_VSA2>  (13) 
17.406203

>  <EState_VSA3>  (13) 
11.126903

>  <EState_VSA4>  (13) 
5.563451

>  <EState_VSA5>  (13) 
18.347335

>  <EState_VSA6>  (13) 
6.923737

>  <EState_VSA7>  (13) 
30.331835

>  <EState_VSA8>  (13) 
16.260866

>  <EState_VSA9>  (13) 
0.0

>  <VSA_EState1>  (13) 
0.0

>  <VSA_EState10>  (13) 
0.0

>  <VSA_EState2>  (13) 
11.967794

>  <VSA_EState3>  (13) 
22.929893

>  <VSA_EState4>  (13) 
8.068012

>  <VSA_EState5>  (13) 
-0.485011

>  <VSA_EState6>  (13) 
11.300578

>  <VSA_EState7>  (13) 
1.333056

>  <VSA_EState8>  (13) 
1.719012

>  <VSA_EState9>  (13) 
0.0

>  <FractionCSP3>  (13) 
0.125

>  <HeavyAtomCount>  (13) 
22

>  <NHOHCount>  (13) 
6

>  <NOCount>  (13) 
6

>  <NumAliphaticCarbocycles>  (13) 
0

>  <NumAliphaticHeterocycles>  (13) 
0

>  <NumAliphaticRings>  (13) 
0

>  <NumAromaticCarbocycles>  (13) 
2

>  <NumAromaticHeterocycles>  (13) 
0

>  <NumAromaticRings>  (13) 
2

>  <NumHAcceptors>  (13) 
4

>  <NumHDonors>  (13) 
4

>  <NumHeteroatoms>  (13) 
6

>  <NumRotatableBonds>  (13) 
4

>  <NumSaturatedCarbocycles>  (13) 
0

>  <NumSaturatedHeterocycles>  (13) 
0

>  <NumSaturatedRings>  (13) 
0

>  <RingCount>  (13) 
2

>  <MolLogP>  (13) 
0.83952

>  <MolMR>  (13) 
82.3164

>  <fr_Al_COO>  (13) 
0

>  <fr_Al_OH>  (13) 
0

>  <fr_Al_OH_noTert>  (13) 
0

>  <fr_ArN>  (13) 
0

>  <fr_Ar_COO>  (13) 
0

>  <fr_Ar_N>  (13) 
0

>  <fr_Ar_NH>  (13) 
0

>  <fr_Ar_OH>  (13) 
2

>  <fr_COO>  (13) 
0

>  <fr_COO2>  (13) 
0

>  <fr_C_O>  (13) 
1

>  <fr_C_O_noCOO>  (13) 
1

>  <fr_C_S>  (13) 
0

>  <fr_HOCCN>  (13) 
0

>  <fr_Imine>  (13) 
0

>  <fr_NH0>  (13) 
1

>  <fr_NH1>  (13) 
1

>  <fr_NH2>  (13) 
0

>  <fr_N_O>  (13) 
0

>  <fr_Ndealkylation1>  (13) 
0

>  <fr_Ndealkylation2>  (13) 
0

>  <fr_Nhpyrrole>  (13) 
0

>  <fr_SH>  (13) 
0

>  <fr_aldehyde>  (13) 
0

>  <fr_alkyl_carbamate>  (13) 
0

>  <fr_alkyl_halide>  (13) 
0

>  <fr_allylic_oxid>  (13) 
0

>  <fr_amide>  (13) 
1

>  <fr_amidine>  (13) 
0

>  <fr_aniline>  (13) 
0

>  <fr_aryl_methyl>  (13) 
1

>  <fr_azide>  (13) 
0

>  <fr_azo>  (13) 
0

>  <fr_barbitur>  (13) 
0

>  <fr_benzene>  (13) 
2

>  <fr_benzodiazepine>  (13) 
0

>  <fr_bicyclic>  (13) 
0

>  <fr_diazo>  (13) 
0

>  <fr_dihydropyridine>  (13) 
0

>  <fr_epoxide>  (13) 
0

>  <fr_ester>  (13) 
0

>  <fr_ether>  (13) 
0

>  <fr_furan>  (13) 
0

>  <fr_guanido>  (13) 
0

>  <fr_halogen>  (13) 
0

>  <fr_hdrzine>  (13) 
0

>  <fr_hdrzone>  (13) 
1

>  <fr_imidazole>  (13) 
0

>  <fr_imide>  (13) 
0

>  <fr_isocyan>  (13) 
0

>  <fr_isothiocyan>  (13) 
0

>  <fr_ketone>  (13) 
0

>  <fr_ketone_Topliss>  (13) 
0

>  <fr_lactam>  (13) 
0

>  <fr_lactone>  (13) 
0

>  <fr_methoxy>  (13) 
0

>  <fr_morpholine>  (13) 
0

>  <fr_nitrile>  (13) 
0

>  <fr_nitro>  (13) 
0

>  <fr_nitro_arom>  (13) 
0

>  <fr_nitro_arom_nonortho>  (13) 
0

>  <fr_nitroso>  (13) 
0

>  <fr_oxazole>  (13) 
0

>  <fr_oxime>  (13) 
0

>  <fr_para_hydroxylation>  (13) 
0

>  <fr_phenol>  (13) 
2

>  <fr_phenol_noOrthoHbond>  (13) 
2

>  <fr_phos_acid>  (13) 
0

>  <fr_phos_ester>  (13) 
0

>  <fr_piperdine>  (13) 
0

>  <fr_piperzine>  (13) 
0

>  <fr_priamide>  (13) 
0

>  <fr_prisulfonamd>  (13) 
0

>  <fr_pyridine>  (13) 
0

>  <fr_quatN>  (13) 
1

>  <fr_sulfide>  (13) 
0

>  <fr_sulfonamd>  (13) 
0

>  <fr_sulfone>  (13) 
0

>  <fr_term_acetylene>  (13) 
0

>  <fr_tetrazole>  (13) 
0

>  <fr_thiazole>  (13) 
0

>  <fr_thiocyan>  (13) 
0

>  <fr_thiophene>  (13) 
0

>  <fr_unbrch_alkane>  (13) 
0

>  <fr_urea>  (13) 
0

>  <NP_Likeness>  (13) 
-0.329096

$$$$
463
     RDKit          3D

  0  0  0  0  0  0  0  0  0  0999 V3000
M  V30 BEGIN CTAB
M  V30 COUNTS 25 25 0 0 0
M  V30 BEGIN ATOM
M  V30 1 O -15.757000 24.963000 -24.400000 0
M  V30 2 N -8.836000 24.116000 -26.249000 0 CHG=1
M  V30 3 N -14.173000 23.589000 -25.240000 0
M  V30 4 C -16.033000 22.607000 -24.066000 0
M  V30 5 C -9.799000 24.570000 -27.283000 0
M  V30 6 C -12.720000 26.807000 -26.374000 0
M  V30 7 C -13.624000 25.894000 -25.859000 0
M  V30 8 C -11.473000 26.385000 -26.799000 0
M  V30 9 C -12.005000 24.146000 -26.160000 0
M  V30 10 C -15.324000 23.829000 -24.581000 0
M  V30 11 C -13.265000 24.554000 -25.748000 0
M  V30 12 C -11.104000 25.049000 -26.710000 0
M  V30 13 H -8.249900 23.401100 -26.630300 0
M  V30 14 H -8.272300 24.888400 -25.956400 0
M  V30 15 H -13.933500 22.629200 -25.386500 0
M  V30 16 H -15.516000 21.789700 -24.320300 0
M  V30 17 H -16.105900 22.658900 -23.070000 0
M  V30 18 H -16.948600 22.559800 -24.465300 0
M  V30 19 H -9.984900 23.806100 -27.901000 0
M  V30 20 H -9.383100 25.320600 -27.796500 0
M  V30 21 H -12.968800 27.773400 -26.439000 0
M  V30 22 H -14.531700 26.196200 -25.567800 0
M  V30 23 H -10.828700 27.050800 -27.175300 0
M  V30 24 H -11.741000 23.186700 -26.059500 0
M  V30 25 H -9.337000 23.752600 -25.463500 0
M  V30 END ATOM
M  V30 BEGIN BOND
M  V30 1 2 1 10
M  V30 2 1 2 5
M  V30 3 1 3 10
M  V30 4 1 3 11
M  V30 5 1 4 10
M  V30 6 1 5 12
M  V30 7 2 6 7
M  V30 8 1 6 8
M  V30 9 1 7 11
M  V30 10 2 8 12
M  V30 11 2 9 11
M  V30 12 1 9 12
M  V30 13 1 2 13
M  V30 14 1 2 14
M  V30 15 1 3 15
M  V30 16 1 4 16
M  V30 17 1 4 17
M  V30 18 1 4 18
M  V30 19 1 5 19
M  V30 20 1 5 20
M  V30 21 1 6 21
M  V30 22 1 7 22
M  V30 23 1 8 23
M  V30 24 1 9 24
M  V30 25 1 2 25
M  V30 END BOND
M  V30 END CTAB
M  END
>  <Ligand_Instance>  (14) 
5N3F_463_A_403

>  <Dataset>  (14) 
PDB

>  <PDB_ID>  (14) 
5N3F

>  <Chain>  (14) 
A

>  <Resi>  (14) 
403

>  <Num_Resolved_Atoms>  (14) 
12

>  <Num_H_Atoms_ProtBoundConf>  (14) 
13

>  <Pocket>  (14) 
A

>  <Name>  (14) 
N-[3-(aminomethyl)phenyl]acetamide

>  <Num_Not_Resolved_Atoms>  (14) 
0

>  <ATP_Site>  (14) 
True

>  <Peripheral>  (14) 
True

>  <Standardized_SMILES>  (14) 
[H]C1=C([H])C(C([H])([H])[N+]([H])([H])[H])=C([H])C(N([H])C(=O)C([H])([H])[H])=C1[H]

>  <2D_Mol_H>  (14) 
<rdkit.Chem.rdchem.Mol object at 0x77059d9dace0>

>  <MW>  (14) 
165.216

>  <HBA>  (14) 
1

>  <HBD>  (14) 
2

>  <LogP>  (14) 
0.3869

>  <NRB>  (14) 
4

>  <TPSA>  (14) 
56.74

>  <Num_Heavy_Atoms>  (14) 
12

>  <Ro5>  (14) 
[True, True, True, True, True, True]

>  <Ro5_Fulfilled>  (14) 
True

>  <Ro3>  (14) 
[True, True, True, True]

>  <Ro3_Fulfilled>  (14) 
True

>  <Fsp3>  (14) 
0.222222

>  <Fsp3_0.42>  (14) 
False

>  <Fsp3_0.45>  (14) 
False

>  <Stereogenic_Carbons>  (14) 
0

>  <C_Atoms>  (14) 
9

>  <FCStereo>  (14) 
0.0

>  <SPS>  (14) 
114

>  <nSPS>  (14) 
9.5

>  <PBF>  (14) 
0.413463

>  <PBF_0.6>  (14) 
False

>  <nPBF>  (14) 
0.034455

>  <nPBF_0.016>  (14) 
True

>  <PMI1>  (14) 
249.883988

>  <PMI2>  (14) 
1069.525049

>  <PMI3>  (14) 
1278.137131

>  <NPR1>  (14) 
0.195506

>  <NPR2>  (14) 
0.836784

>  <Sum_NPR>  (14) 
1.032291

>  <Sum_NPR_1.07>  (14) 
False

>  <Sum_NPR_1.2>  (14) 
False

>  <MaxAbsEStateIndex>  (14) 
10.686045

>  <MaxEStateIndex>  (14) 
10.686045

>  <MinAbsEStateIndex>  (14) 
0.045174

>  <MinEStateIndex>  (14) 
-0.045174

>  <qed>  (14) 
0.653914

>  <MolWt>  (14) 
165.216

>  <HeavyAtomMolWt>  (14) 
152.112

>  <ExactMolWt>  (14) 
165.102239

>  <NumValenceElectrons>  (14) 
64

>  <NumRadicalElectrons>  (14) 
0

>  <MaxPartialCharge>  (14) 
0.220748

>  <MinPartialCharge>  (14) 
-0.353807

>  <MaxAbsPartialCharge>  (14) 
0.353807

>  <MinAbsPartialCharge>  (14) 
0.220748

>  <FpDensityMorgan1>  (14) 
1.583333

>  <FpDensityMorgan2>  (14) 
2.333333

>  <FpDensityMorgan3>  (14) 
2.916667

>  <BCUT2D_MWHI>  (14) 
16.148144

>  <BCUT2D_MWLOW>  (14) 
10.177035

>  <BCUT2D_CHGHI>  (14) 
1.957878

>  <BCUT2D_CHGLO>  (14) 
-2.015361

>  <BCUT2D_LOGPHI>  (14) 
2.085038

>  <BCUT2D_LOGPLOW>  (14) 
-2.469692

>  <BCUT2D_MRHI>  (14) 
5.881386

>  <BCUT2D_MRLOW>  (14) 
-0.385962

>  <AvgIpc>  (14) 
2.03486

>  <BalabanJ>  (14) 
2.790011

>  <BertzCT>  (14) 
283.611954

>  <Chi0>  (14) 
8.974691

>  <Chi0n>  (14) 
7.131863

>  <Chi0v>  (14) 
7.131863

>  <Chi1>  (14) 
5.719545

>  <Chi1n>  (14) 
3.879045

>  <Chi1v>  (14) 
3.879045

>  <Chi2n>  (14) 
2.631564

>  <Chi2v>  (14) 
2.631564

>  <Chi3n>  (14) 
1.536026

>  <Chi3v>  (14) 
1.536026

>  <Chi4n>  (14) 
1.007855

>  <Chi4v>  (14) 
1.007855

>  <HallKierAlpha>  (14) 
-1.35

>  <Ipc>  (14) 
506.680044

>  <Kappa1>  (14) 
8.743897

>  <Kappa2>  (14) 
3.875201

>  <Kappa3>  (14) 
2.358651

>  <LabuteASA>  (14) 
71.577504

>  <PEOE_VSA1>  (14) 
11.050456

>  <PEOE_VSA10>  (14) 
0.0

>  <PEOE_VSA11>  (14) 
0.0

>  <PEOE_VSA12>  (14) 
5.90718

>  <PEOE_VSA13>  (14) 
0.0

>  <PEOE_VSA14>  (14) 
0.0

>  <PEOE_VSA2>  (14) 
4.794537

>  <PEOE_VSA3>  (14) 
0.0

>  <PEOE_VSA4>  (14) 
0.0

>  <PEOE_VSA5>  (14) 
0.0

>  <PEOE_VSA6>  (14) 
12.132734

>  <PEOE_VSA7>  (14) 
12.132734

>  <PEOE_VSA8>  (14) 
18.174575

>  <PEOE_VSA9>  (14) 
6.544756

>  <SMR_VSA1>  (14) 
10.528205

>  <SMR_VSA10>  (14) 
11.594566

>  <SMR_VSA2>  (14) 
0.0

>  <SMR_VSA3>  (14) 
0.0

>  <SMR_VSA4>  (14) 
0.0

>  <SMR_VSA5>  (14) 
13.468494

>  <SMR_VSA6>  (14) 
5.316789

>  <SMR_VSA7>  (14) 
29.82892

>  <SMR_VSA8>  (14) 
0.0

>  <SMR_VSA9>  (14) 
0.0

>  <SlogP_VSA1>  (14) 
11.050456

>  <SlogP_VSA10>  (14) 
5.687386

>  <SlogP_VSA11>  (14) 
0.0

>  <SlogP_VSA12>  (14) 
0.0

>  <SlogP_VSA2>  (14) 
5.90718

>  <SlogP_VSA3>  (14) 
11.339294

>  <SlogP_VSA4>  (14) 
0.0

>  <SlogP_VSA5>  (14) 
12.487189

>  <SlogP_VSA6>  (14) 
24.265468

>  <SlogP_VSA7>  (14) 
0.0

>  <SlogP_VSA8>  (14) 
0.0

>  <SlogP_VSA9>  (14) 
0.0

>  <EState_VSA1>  (14) 
0.0

>  <EState_VSA10>  (14) 
4.794537

>  <EState_VSA11>  (14) 
0.0

>  <EState_VSA2>  (14) 
5.90718

>  <EState_VSA3>  (14) 
0.0

>  <EState_VSA4>  (14) 
17.795594

>  <EState_VSA5>  (14) 
6.923737

>  <EState_VSA6>  (14) 
0.0

>  <EState_VSA7>  (14) 
24.265468

>  <EState_VSA8>  (14) 
11.050456

>  <EState_VSA9>  (14) 
0.0

>  <VSA_EState1>  (14) 
0.0

>  <VSA_EState10>  (14) 
0.0

>  <VSA_EState2>  (14) 
10.686045

>  <VSA_EState3>  (14) 
2.712778

>  <VSA_EState4>  (14) 
5.726354

>  <VSA_EState5>  (14) 
-0.045174

>  <VSA_EState6>  (14) 
7.679626

>  <VSA_EState7>  (14) 
0.0

>  <VSA_EState8>  (14) 
2.240371

>  <VSA_EState9>  (14) 
0.0

>  <FractionCSP3>  (14) 
0.222222

>  <HeavyAtomCount>  (14) 
12

>  <NHOHCount>  (14) 
4

>  <NOCount>  (14) 
3

>  <NumAliphaticCarbocycles>  (14) 
0

>  <NumAliphaticHeterocycles>  (14) 
0

>  <NumAliphaticRings>  (14) 
0

>  <NumAromaticCarbocycles>  (14) 
1

>  <NumAromaticHeterocycles>  (14) 
0

>  <NumAromaticRings>  (14) 
1

>  <NumHAcceptors>  (14) 
1

>  <NumHDonors>  (14) 
2

>  <NumHeteroatoms>  (14) 
3

>  <NumRotatableBonds>  (14) 
2

>  <NumSaturatedCarbocycles>  (14) 
0

>  <NumSaturatedHeterocycles>  (14) 
0

>  <NumSaturatedRings>  (14) 
0

>  <RingCount>  (14) 
1

>  <MolLogP>  (14) 
0.3869

>  <MolMR>  (14) 
47.3378

>  <fr_Al_COO>  (14) 
0

>  <fr_Al_OH>  (14) 
0

>  <fr_Al_OH_noTert>  (14) 
0

>  <fr_ArN>  (14) 
0

>  <fr_Ar_COO>  (14) 
0

>  <fr_Ar_N>  (14) 
0

>  <fr_Ar_NH>  (14) 
0

>  <fr_Ar_OH>  (14) 
0

>  <fr_COO>  (14) 
0

>  <fr_COO2>  (14) 
0

>  <fr_C_O>  (14) 
1

>  <fr_C_O_noCOO>  (14) 
1

>  <fr_C_S>  (14) 
0

>  <fr_HOCCN>  (14) 
0

>  <fr_Imine>  (14) 
0

>  <fr_NH0>  (14) 
0

>  <fr_NH1>  (14) 
1

>  <fr_NH2>  (14) 
0

>  <fr_N_O>  (14) 
0

>  <fr_Ndealkylation1>  (14) 
0

>  <fr_Ndealkylation2>  (14) 
0

>  <fr_Nhpyrrole>  (14) 
0

>  <fr_SH>  (14) 
0

>  <fr_aldehyde>  (14) 
0

>  <fr_alkyl_carbamate>  (14) 
0

>  <fr_alkyl_halide>  (14) 
0

>  <fr_allylic_oxid>  (14) 
0

>  <fr_amide>  (14) 
1

>  <fr_amidine>  (14) 
0

>  <fr_aniline>  (14) 
1

>  <fr_aryl_methyl>  (14) 
0

>  <fr_azide>  (14) 
0

>  <fr_azo>  (14) 
0

>  <fr_barbitur>  (14) 
0

>  <fr_benzene>  (14) 
1

>  <fr_benzodiazepine>  (14) 
0

>  <fr_bicyclic>  (14) 
0

>  <fr_diazo>  (14) 
0

>  <fr_dihydropyridine>  (14) 
0

>  <fr_epoxide>  (14) 
0

>  <fr_ester>  (14) 
0

>  <fr_ether>  (14) 
0

>  <fr_furan>  (14) 
0

>  <fr_guanido>  (14) 
0

>  <fr_halogen>  (14) 
0

>  <fr_hdrzine>  (14) 
0

>  <fr_hdrzone>  (14) 
0

>  <fr_imidazole>  (14) 
0

>  <fr_imide>  (14) 
0

>  <fr_isocyan>  (14) 
0

>  <fr_isothiocyan>  (14) 
0

>  <fr_ketone>  (14) 
0

>  <fr_ketone_Topliss>  (14) 
0

>  <fr_lactam>  (14) 
0

>  <fr_lactone>  (14) 
0

>  <fr_methoxy>  (14) 
0

>  <fr_morpholine>  (14) 
0

>  <fr_nitrile>  (14) 
0

>  <fr_nitro>  (14) 
0

>  <fr_nitro_arom>  (14) 
0

>  <fr_nitro_arom_nonortho>  (14) 
0

>  <fr_nitroso>  (14) 
0

>  <fr_oxazole>  (14) 
0

>  <fr_oxime>  (14) 
0

>  <fr_para_hydroxylation>  (14) 
0

>  <fr_phenol>  (14) 
0

>  <fr_phenol_noOrthoHbond>  (14) 
0

>  <fr_phos_acid>  (14) 
0

>  <fr_phos_ester>  (14) 
0

>  <fr_piperdine>  (14) 
0

>  <fr_piperzine>  (14) 
0

>  <fr_priamide>  (14) 
0

>  <fr_prisulfonamd>  (14) 
0

>  <fr_pyridine>  (14) 
0

>  <fr_quatN>  (14) 
1

>  <fr_sulfide>  (14) 
0

>  <fr_sulfonamd>  (14) 
0

>  <fr_sulfone>  (14) 
0

>  <fr_term_acetylene>  (14) 
0

>  <fr_tetrazole>  (14) 
0

>  <fr_thiazole>  (14) 
0

>  <fr_thiocyan>  (14) 
0

>  <fr_thiophene>  (14) 
0

>  <fr_unbrch_alkane>  (14) 
0

>  <fr_urea>  (14) 
0

>  <NP_Likeness>  (14) 
-1.230034

$$$$
463
     RDKit          3D

  0  0  0  0  0  0  0  0  0  0999 V3000
M  V30 BEGIN CTAB
M  V30 COUNTS 25 25 0 0 0
M  V30 BEGIN ATOM
M  V30 1 O -18.670000 3.740000 3.207000 0
M  V30 2 N -12.654000 4.085000 7.207000 0 CHG=1
M  V30 3 N -17.597000 3.144000 5.148000 0
M  V30 4 C -20.020000 3.193000 5.100000 0
M  V30 5 C -12.739000 2.884000 6.326000 0
M  V30 6 C -14.631000 2.501000 3.069000 0
M  V30 7 C -15.941000 2.737000 3.449000 0
M  V30 8 C -13.602000 2.585000 3.992000 0
M  V30 9 C -15.182000 3.171000 5.690000 0
M  V30 10 C -18.714000 3.383000 4.385000 0
M  V30 11 C -16.226000 3.066000 4.771000 0
M  V30 12 C -13.859000 2.912000 5.319000 0
M  V30 13 H -13.206100 3.936300 8.027400 0
M  V30 14 H -11.701500 4.239000 7.469600 0
M  V30 15 H -17.774600 3.002500 6.121900 0
M  V30 16 H -19.845700 2.903400 6.041100 0
M  V30 17 H -20.525900 4.055600 5.104900 0
M  V30 18 H -20.558500 2.493400 4.630300 0
M  V30 19 H -12.864900 2.080500 6.907900 0
M  V30 20 H -11.875700 2.802800 5.827800 0
M  V30 21 H -14.425700 2.267500 2.118600 0
M  V30 22 H -16.678800 2.671400 2.777100 0
M  V30 23 H -12.661900 2.408200 3.700500 0
M  V30 24 H -15.383700 3.436700 6.632700 0
M  V30 25 H -12.997500 4.884700 6.714500 0
M  V30 END ATOM
M  V30 BEGIN BOND
M  V30 1 2 1 10
M  V30 2 1 2 5
M  V30 3 1 3 10
M  V30 4 1 3 11
M  V30 5 1 4 10
M  V30 6 1 5 12
M  V30 7 2 6 7
M  V30 8 1 6 8
M  V30 9 1 7 11
M  V30 10 2 8 12
M  V30 11 2 9 11
M  V30 12 1 9 12
M  V30 13 1 2 13
M  V30 14 1 2 14
M  V30 15 1 3 15
M  V30 16 1 4 16
M  V30 17 1 4 17
M  V30 18 1 4 18
M  V30 19 1 5 19
M  V30 20 1 5 20
M  V30 21 1 6 21
M  V30 22 1 7 22
M  V30 23 1 8 23
M  V30 24 1 9 24
M  V30 25 1 2 25
M  V30 END BOND
M  V30 END CTAB
M  END
>  <Ligand_Instance>  (15) 
5N3F_463_A_404

>  <Dataset>  (15) 
PDB

>  <PDB_ID>  (15) 
5N3F

>  <Chain>  (15) 
A

>  <Resi>  (15) 
404

>  <Num_Resolved_Atoms>  (15) 
12

>  <Num_H_Atoms_ProtBoundConf>  (15) 
13

>  <Pocket>  (15) 
X

>  <Name>  (15) 
N-[3-(aminomethyl)phenyl]acetamide

>  <Num_Not_Resolved_Atoms>  (15) 
0

>  <ATP_Site>  (15) 
True

>  <Peripheral>  (15) 
True

>  <Standardized_SMILES>  (15) 
[H]C1=C([H])C(C([H])([H])[N+]([H])([H])[H])=C([H])C(N([H])C(=O)C([H])([H])[H])=C1[H]

>  <2D_Mol_H>  (15) 
<rdkit.Chem.rdchem.Mol object at 0x77059d9dadc0>

>  <MW>  (15) 
165.216

>  <HBA>  (15) 
1

>  <HBD>  (15) 
2

>  <LogP>  (15) 
0.3869

>  <NRB>  (15) 
4

>  <TPSA>  (15) 
56.74

>  <Num_Heavy_Atoms>  (15) 
12

>  <Ro5>  (15) 
[True, True, True, True, True, True]

>  <Ro5_Fulfilled>  (15) 
True

>  <Ro3>  (15) 
[True, True, True, True]

>  <Ro3_Fulfilled>  (15) 
True

>  <Fsp3>  (15) 
0.222222

>  <Fsp3_0.42>  (15) 
False

>  <Fsp3_0.45>  (15) 
False

>  <Stereogenic_Carbons>  (15) 
0

>  <C_Atoms>  (15) 
9

>  <FCStereo>  (15) 
0.0

>  <SPS>  (15) 
114

>  <nSPS>  (15) 
9.5

>  <PBF>  (15) 
0.387278

>  <PBF_0.6>  (15) 
False

>  <nPBF>  (15) 
0.032273

>  <nPBF_0.016>  (15) 
True

>  <PMI1>  (15) 
255.220681

>  <PMI2>  (15) 
1094.184894

>  <PMI3>  (15) 
1298.428053

>  <NPR1>  (15) 
0.196561

>  <NPR2>  (15) 
0.8427

>  <Sum_NPR>  (15) 
1.039261

>  <Sum_NPR_1.07>  (15) 
False

>  <Sum_NPR_1.2>  (15) 
False

>  <MaxAbsEStateIndex>  (15) 
10.686045

>  <MaxEStateIndex>  (15) 
10.686045

>  <MinAbsEStateIndex>  (15) 
0.045174

>  <MinEStateIndex>  (15) 
-0.045174

>  <qed>  (15) 
0.653914

>  <MolWt>  (15) 
165.216

>  <HeavyAtomMolWt>  (15) 
152.112

>  <ExactMolWt>  (15) 
165.102239

>  <NumValenceElectrons>  (15) 
64

>  <NumRadicalElectrons>  (15) 
0

>  <MaxPartialCharge>  (15) 
0.220748

>  <MinPartialCharge>  (15) 
-0.353807

>  <MaxAbsPartialCharge>  (15) 
0.353807

>  <MinAbsPartialCharge>  (15) 
0.220748

>  <FpDensityMorgan1>  (15) 
1.583333

>  <FpDensityMorgan2>  (15) 
2.333333

>  <FpDensityMorgan3>  (15) 
2.916667

>  <BCUT2D_MWHI>  (15) 
16.148144

>  <BCUT2D_MWLOW>  (15) 
10.177035

>  <BCUT2D_CHGHI>  (15) 
1.957878

>  <BCUT2D_CHGLO>  (15) 
-2.015361

>  <BCUT2D_LOGPHI>  (15) 
2.085038

>  <BCUT2D_LOGPLOW>  (15) 
-2.469692

>  <BCUT2D_MRHI>  (15) 
5.881386

>  <BCUT2D_MRLOW>  (15) 
-0.385962

>  <AvgIpc>  (15) 
2.03486

>  <BalabanJ>  (15) 
2.790011

>  <BertzCT>  (15) 
283.611954

>  <Chi0>  (15) 
8.974691

>  <Chi0n>  (15) 
7.131863

>  <Chi0v>  (15) 
7.131863

>  <Chi1>  (15) 
5.719545

>  <Chi1n>  (15) 
3.879045

>  <Chi1v>  (15) 
3.879045

>  <Chi2n>  (15) 
2.631564

>  <Chi2v>  (15) 
2.631564

>  <Chi3n>  (15) 
1.536026

>  <Chi3v>  (15) 
1.536026

>  <Chi4n>  (15) 
1.007855

>  <Chi4v>  (15) 
1.007855

>  <HallKierAlpha>  (15) 
-1.35

>  <Ipc>  (15) 
506.680044

>  <Kappa1>  (15) 
8.743897

>  <Kappa2>  (15) 
3.875201

>  <Kappa3>  (15) 
2.358651

>  <LabuteASA>  (15) 
71.577504

>  <PEOE_VSA1>  (15) 
11.050456

>  <PEOE_VSA10>  (15) 
0.0

>  <PEOE_VSA11>  (15) 
0.0

>  <PEOE_VSA12>  (15) 
5.90718

>  <PEOE_VSA13>  (15) 
0.0

>  <PEOE_VSA14>  (15) 
0.0

>  <PEOE_VSA2>  (15) 
4.794537

>  <PEOE_VSA3>  (15) 
0.0

>  <PEOE_VSA4>  (15) 
0.0

>  <PEOE_VSA5>  (15) 
0.0

>  <PEOE_VSA6>  (15) 
12.132734

>  <PEOE_VSA7>  (15) 
12.132734

>  <PEOE_VSA8>  (15) 
18.174575

>  <PEOE_VSA9>  (15) 
6.544756

>  <SMR_VSA1>  (15) 
10.528205

>  <SMR_VSA10>  (15) 
11.594566

>  <SMR_VSA2>  (15) 
0.0

>  <SMR_VSA3>  (15) 
0.0

>  <SMR_VSA4>  (15) 
0.0

>  <SMR_VSA5>  (15) 
13.468494

>  <SMR_VSA6>  (15) 
5.316789

>  <SMR_VSA7>  (15) 
29.82892

>  <SMR_VSA8>  (15) 
0.0

>  <SMR_VSA9>  (15) 
0.0

>  <SlogP_VSA1>  (15) 
11.050456

>  <SlogP_VSA10>  (15) 
5.687386

>  <SlogP_VSA11>  (15) 
0.0

>  <SlogP_VSA12>  (15) 
0.0

>  <SlogP_VSA2>  (15) 
5.90718

>  <SlogP_VSA3>  (15) 
11.339294

>  <SlogP_VSA4>  (15) 
0.0

>  <SlogP_VSA5>  (15) 
12.487189

>  <SlogP_VSA6>  (15) 
24.265468

>  <SlogP_VSA7>  (15) 
0.0

>  <SlogP_VSA8>  (15) 
0.0

>  <SlogP_VSA9>  (15) 
0.0

>  <EState_VSA1>  (15) 
0.0

>  <EState_VSA10>  (15) 
4.794537

>  <EState_VSA11>  (15) 
0.0

>  <EState_VSA2>  (15) 
5.90718

>  <EState_VSA3>  (15) 
0.0

>  <EState_VSA4>  (15) 
17.795594

>  <EState_VSA5>  (15) 
6.923737

>  <EState_VSA6>  (15) 
0.0

>  <EState_VSA7>  (15) 
24.265468

>  <EState_VSA8>  (15) 
11.050456

>  <EState_VSA9>  (15) 
0.0

>  <VSA_EState1>  (15) 
0.0

>  <VSA_EState10>  (15) 
0.0

>  <VSA_EState2>  (15) 
10.686045

>  <VSA_EState3>  (15) 
2.712778

>  <VSA_EState4>  (15) 
5.726354

>  <VSA_EState5>  (15) 
-0.045174

>  <VSA_EState6>  (15) 
7.679626

>  <VSA_EState7>  (15) 
0.0

>  <VSA_EState8>  (15) 
2.240371

>  <VSA_EState9>  (15) 
0.0

>  <FractionCSP3>  (15) 
0.222222

>  <HeavyAtomCount>  (15) 
12

>  <NHOHCount>  (15) 
4

>  <NOCount>  (15) 
3

>  <NumAliphaticCarbocycles>  (15) 
0

>  <NumAliphaticHeterocycles>  (15) 
0

>  <NumAliphaticRings>  (15) 
0

>  <NumAromaticCarbocycles>  (15) 
1

>  <NumAromaticHeterocycles>  (15) 
0

>  <NumAromaticRings>  (15) 
1

>  <NumHAcceptors>  (15) 
1

>  <NumHDonors>  (15) 
2

>  <NumHeteroatoms>  (15) 
3

>  <NumRotatableBonds>  (15) 
2

>  <NumSaturatedCarbocycles>  (15) 
0

>  <NumSaturatedHeterocycles>  (15) 
0

>  <NumSaturatedRings>  (15) 
0

>  <RingCount>  (15) 
1

>  <MolLogP>  (15) 
0.3869

>  <MolMR>  (15) 
47.3378

>  <fr_Al_COO>  (15) 
0

>  <fr_Al_OH>  (15) 
0

>  <fr_Al_OH_noTert>  (15) 
0

>  <fr_ArN>  (15) 
0

>  <fr_Ar_COO>  (15) 
0

>  <fr_Ar_N>  (15) 
0

>  <fr_Ar_NH>  (15) 
0

>  <fr_Ar_OH>  (15) 
0

>  <fr_COO>  (15) 
0

>  <fr_COO2>  (15) 
0

>  <fr_C_O>  (15) 
1

>  <fr_C_O_noCOO>  (15) 
1

>  <fr_C_S>  (15) 
0

>  <fr_HOCCN>  (15) 
0

>  <fr_Imine>  (15) 
0

>  <fr_NH0>  (15) 
0

>  <fr_NH1>  (15) 
1

>  <fr_NH2>  (15) 
0

>  <fr_N_O>  (15) 
0

>  <fr_Ndealkylation1>  (15) 
0

>  <fr_Ndealkylation2>  (15) 
0

>  <fr_Nhpyrrole>  (15) 
0

>  <fr_SH>  (15) 
0

>  <fr_aldehyde>  (15) 
0

>  <fr_alkyl_carbamate>  (15) 
0

>  <fr_alkyl_halide>  (15) 
0

>  <fr_allylic_oxid>  (15) 
0

>  <fr_amide>  (15) 
1

>  <fr_amidine>  (15) 
0

>  <fr_aniline>  (15) 
1

>  <fr_aryl_methyl>  (15) 
0

>  <fr_azide>  (15) 
0

>  <fr_azo>  (15) 
0

>  <fr_barbitur>  (15) 
0

>  <fr_benzene>  (15) 
1

>  <fr_benzodiazepine>  (15) 
0

>  <fr_bicyclic>  (15) 
0

>  <fr_diazo>  (15) 
0

>  <fr_dihydropyridine>  (15) 
0

>  <fr_epoxide>  (15) 
0

>  <fr_ester>  (15) 
0

>  <fr_ether>  (15) 
0

>  <fr_furan>  (15) 
0

>  <fr_guanido>  (15) 
0

>  <fr_halogen>  (15) 
0

>  <fr_hdrzine>  (15) 
0

>  <fr_hdrzone>  (15) 
0

>  <fr_imidazole>  (15) 
0

>  <fr_imide>  (15) 
0

>  <fr_isocyan>  (15) 
0

>  <fr_isothiocyan>  (15) 
0

>  <fr_ketone>  (15) 
0

>  <fr_ketone_Topliss>  (15) 
0

>  <fr_lactam>  (15) 
0

>  <fr_lactone>  (15) 
0

>  <fr_methoxy>  (15) 
0

>  <fr_morpholine>  (15) 
0

>  <fr_nitrile>  (15) 
0

>  <fr_nitro>  (15) 
0

>  <fr_nitro_arom>  (15) 
0

>  <fr_nitro_arom_nonortho>  (15) 
0

>  <fr_nitroso>  (15) 
0

>  <fr_oxazole>  (15) 
0

>  <fr_oxime>  (15) 
0

>  <fr_para_hydroxylation>  (15) 
0

>  <fr_phenol>  (15) 
0

>  <fr_phenol_noOrthoHbond>  (15) 
0

>  <fr_phos_acid>  (15) 
0

>  <fr_phos_ester>  (15) 
0

>  <fr_piperdine>  (15) 
0

>  <fr_piperzine>  (15) 
0

>  <fr_priamide>  (15) 
0

>  <fr_prisulfonamd>  (15) 
0

>  <fr_pyridine>  (15) 
0

>  <fr_quatN>  (15) 
1

>  <fr_sulfide>  (15) 
0

>  <fr_sulfonamd>  (15) 
0

>  <fr_sulfone>  (15) 
0

>  <fr_term_acetylene>  (15) 
0

>  <fr_tetrazole>  (15) 
0

>  <fr_thiazole>  (15) 
0

>  <fr_thiocyan>  (15) 
0

>  <fr_thiophene>  (15) 
0

>  <fr_unbrch_alkane>  (15) 
0

>  <fr_urea>  (15) 
0

>  <NP_Likeness>  (15) 
-1.230034

$$$$
46L
     RDKit          3D

  0  0  0  0  0  0  0  0  0  0999 V3000
M  V30 BEGIN CTAB
M  V30 COUNTS 22 22 0 0 0
M  V30 BEGIN ATOM
M  V30 1 O -17.148000 26.607000 -22.858000 0
M  V30 2 O -16.977000 24.386000 -22.737000 0
M  V30 3 N -13.895000 24.387000 -25.518000 0
M  V30 4 N -12.365000 25.499000 -26.866000 0
M  V30 5 C -11.556000 24.294000 -26.924000 0
M  V30 6 C -11.704000 26.720000 -27.303000 0
M  V30 7 C -14.905000 24.401000 -24.641000 0
M  V30 8 C -14.057000 26.787000 -25.653000 0
M  V30 9 C -15.093000 26.764000 -24.742000 0
M  V30 10 C -16.639000 25.514000 -23.194000 0
M  V30 11 C -13.481000 25.568000 -26.000000 0
M  V30 12 C -15.533000 25.560000 -24.212000 0
M  V30 13 H -12.095600 23.514600 -26.605700 0
M  V30 14 H -11.263400 24.134000 -27.866800 0
M  V30 15 H -10.752100 24.403800 -26.339500 0
M  V30 16 H -12.339000 27.488700 -27.226200 0
M  V30 17 H -10.903800 26.890000 -26.727900 0
M  V30 18 H -11.415100 26.620200 -28.255100 0
M  V30 19 H -15.224700 23.527200 -24.274600 0
M  V30 20 H -13.732400 27.646100 -26.048700 0
M  V30 21 H -15.528800 27.619500 -24.462400 0
M  V30 22 H -17.703200 24.321000 -22.052600 0
M  V30 END ATOM
M  V30 BEGIN BOND
M  V30 1 2 1 10
M  V30 2 1 2 10
M  V30 3 2 3 7
M  V30 4 1 3 11
M  V30 5 1 4 5
M  V30 6 1 4 6
M  V30 7 1 4 11
M  V30 8 1 7 12
M  V30 9 1 8 9
M  V30 10 2 8 11
M  V30 11 2 9 12
M  V30 12 1 10 12
M  V30 13 1 9 21
M  V30 14 1 5 13
M  V30 15 1 5 14
M  V30 16 1 5 15
M  V30 17 1 6 16
M  V30 18 1 6 17
M  V30 19 1 6 18
M  V30 20 1 7 19
M  V30 21 1 8 20
M  V30 22 1 2 22
M  V30 END BOND
M  V30 END CTAB
M  END
>  <Ligand_Instance>  (16) 
5N3E_46L_A_401

>  <Dataset>  (16) 
PDB

>  <PDB_ID>  (16) 
5N3E

>  <Chain>  (16) 
A

>  <Resi>  (16) 
401

>  <Num_Resolved_Atoms>  (16) 
12

>  <Num_H_Atoms_ProtBoundConf>  (16) 
10

>  <Pocket>  (16) 
A

>  <Name>  (16) 
6-(dimethylamino)pyridine-3-carboxylic acid

>  <Num_Not_Resolved_Atoms>  (16) 
0

>  <ATP_Site>  (16) 
True

>  <Peripheral>  (16) 
False

>  <Standardized_SMILES>  (16) 
[H]OC(=O)C1=C([H])N=C(N(C([H])([H])[H])C([H])([H])[H])C([H])=C1[H]

>  <2D_Mol_H>  (16) 
<rdkit.Chem.rdchem.Mol object at 0x77059d9daea0>

>  <MW>  (16) 
166.18

>  <HBA>  (16) 
4

>  <HBD>  (16) 
1

>  <LogP>  (16) 
0.8458

>  <NRB>  (16) 
4

>  <TPSA>  (16) 
53.43

>  <Num_Heavy_Atoms>  (16) 
12

>  <Ro5>  (16) 
[True, True, True, True, True, True]

>  <Ro5_Fulfilled>  (16) 
True

>  <Ro3>  (16) 
[True, False, True, True]

>  <Ro3_Fulfilled>  (16) 
True

>  <Fsp3>  (16) 
0.25

>  <Fsp3_0.42>  (16) 
False

>  <Fsp3_0.45>  (16) 
False

>  <Stereogenic_Carbons>  (16) 
0

>  <C_Atoms>  (16) 
8

>  <FCStereo>  (16) 
0.0

>  <SPS>  (16) 
114

>  <nSPS>  (16) 
9.5

>  <PBF>  (16) 
0.238726

>  <PBF_0.6>  (16) 
False

>  <nPBF>  (16) 
0.019894

>  <nPBF_0.016>  (16) 
True

>  <PMI1>  (16) 
181.489751

>  <PMI2>  (16) 
1058.207656

>  <PMI3>  (16) 
1229.858169

>  <NPR1>  (16) 
0.14757

>  <NPR2>  (16) 
0.860431

>  <Sum_NPR>  (16) 
1.008

>  <Sum_NPR_1.07>  (16) 
False

>  <Sum_NPR_1.2>  (16) 
False

>  <MaxAbsEStateIndex>  (16) 
10.428476

>  <MaxEStateIndex>  (16) 
10.428476

>  <MinAbsEStateIndex>  (16) 
0.208889

>  <MinEStateIndex>  (16) 
-0.951105

>  <qed>  (16) 
0.70709

>  <MolWt>  (16) 
166.18

>  <HeavyAtomMolWt>  (16) 
156.1

>  <ExactMolWt>  (16) 
166.074228

>  <NumValenceElectrons>  (16) 
64

>  <NumRadicalElectrons>  (16) 
0

>  <MaxPartialCharge>  (16) 
0.336761

>  <MinPartialCharge>  (16) 
-0.477599

>  <MaxAbsPartialCharge>  (16) 
0.477599

>  <MinAbsPartialCharge>  (16) 
0.336761

>  <FpDensityMorgan1>  (16) 
1.5

>  <FpDensityMorgan2>  (16) 
2.166667

>  <FpDensityMorgan3>  (16) 
2.5

>  <BCUT2D_MWHI>  (16) 
16.365589

>  <BCUT2D_MWLOW>  (16) 
10.267922

>  <BCUT2D_CHGHI>  (16) 
2.022673

>  <BCUT2D_CHGLO>  (16) 
-2.094

>  <BCUT2D_LOGPHI>  (16) 
2.065539

>  <BCUT2D_LOGPLOW>  (16) 
-2.104182

>  <BCUT2D_MRHI>  (16) 
5.868487

>  <BCUT2D_MRLOW>  (16) 
0.069623

>  <AvgIpc>  (16) 
2.042911

>  <BalabanJ>  (16) 
2.929146

>  <BertzCT>  (16) 
279.614264

>  <Chi0>  (16) 
9.137828

>  <Chi0n>  (16) 
6.98194

>  <Chi0v>  (16) 
6.98194

>  <Chi1>  (16) 
5.609061

>  <Chi1n>  (16) 
3.476929

>  <Chi1v>  (16) 
3.476929

>  <Chi2n>  (16) 
2.604653

>  <Chi2v>  (16) 
2.604653

>  <Chi3n>  (16) 
1.453018

>  <Chi3v>  (16) 
1.453018

>  <Chi4n>  (16) 
0.777109

>  <Chi4v>  (16) 
0.777109

>  <HallKierAlpha>  (16) 
-1.58

>  <Ipc>  (16) 
473.955341

>  <Kappa1>  (16) 
8.515969

>  <Kappa2>  (16) 
3.211771

>  <Kappa3>  (16) 
1.719387

>  <LabuteASA>  (16) 
70.461467

>  <PEOE_VSA1>  (16) 
10.006437

>  <PEOE_VSA10>  (16) 
5.817863

>  <PEOE_VSA11>  (16) 
0.0

>  <PEOE_VSA12>  (16) 
0.0

>  <PEOE_VSA13>  (16) 
0.0

>  <PEOE_VSA14>  (16) 
5.969305

>  <PEOE_VSA2>  (16) 
0.0

>  <PEOE_VSA3>  (16) 
9.778516

>  <PEOE_VSA4>  (16) 
0.0

>  <PEOE_VSA5>  (16) 
0.0

>  <PEOE_VSA6>  (16) 
0.0

>  <PEOE_VSA7>  (16) 
12.132734

>  <PEOE_VSA8>  (16) 
20.292188

>  <PEOE_VSA9>  (16) 
5.563451

>  <SMR_VSA1>  (16) 
9.901065

>  <SMR_VSA10>  (16) 
11.787168

>  <SMR_VSA2>  (16) 
0.0

>  <SMR_VSA3>  (16) 
4.983979

>  <SMR_VSA4>  (16) 
0.0

>  <SMR_VSA5>  (16) 
0.0

>  <SMR_VSA6>  (16) 
18.995254

>  <SMR_VSA7>  (16) 
23.893029

>  <SMR_VSA8>  (16) 
0.0

>  <SMR_VSA9>  (16) 
0.0

>  <SlogP_VSA1>  (16) 
4.89991

>  <SlogP_VSA10>  (16) 
5.817863

>  <SlogP_VSA11>  (16) 
0.0

>  <SlogP_VSA12>  (16) 
0.0

>  <SlogP_VSA2>  (16) 
30.155155

>  <SlogP_VSA3>  (16) 
0.0

>  <SlogP_VSA4>  (16) 
0.0

>  <SlogP_VSA5>  (16) 
10.357989

>  <SlogP_VSA6>  (16) 
18.329578

>  <SlogP_VSA7>  (16) 
0.0

>  <SlogP_VSA8>  (16) 
0.0

>  <SlogP_VSA9>  (16) 
0.0

>  <EState_VSA1>  (16) 
5.969305

>  <EState_VSA10>  (16) 
4.794537

>  <EState_VSA11>  (16) 
0.0

>  <EState_VSA2>  (16) 
5.563451

>  <EState_VSA3>  (16) 
0.0

>  <EState_VSA4>  (16) 
5.817863

>  <EState_VSA5>  (16) 
12.263211

>  <EState_VSA6>  (16) 
6.066367

>  <EState_VSA7>  (16) 
18.995254

>  <EState_VSA8>  (16) 
4.983979

>  <EState_VSA9>  (16) 
5.106527

>  <VSA_EState1>  (16) 
0.0

>  <VSA_EState10>  (16) 
0.0

>  <VSA_EState2>  (16) 
16.184154

>  <VSA_EState3>  (16) 
8.560707

>  <VSA_EState4>  (16) 
0.208889

>  <VSA_EState5>  (16) 
-0.201105

>  <VSA_EState6>  (16) 
3.2025

>  <VSA_EState7>  (16) 
1.344907

>  <VSA_EState8>  (16) 
0.0

>  <VSA_EState9>  (16) 
3.699948

>  <FractionCSP3>  (16) 
0.25

>  <HeavyAtomCount>  (16) 
12

>  <NHOHCount>  (16) 
1

>  <NOCount>  (16) 
4

>  <NumAliphaticCarbocycles>  (16) 
0

>  <NumAliphaticHeterocycles>  (16) 
0

>  <NumAliphaticRings>  (16) 
0

>  <NumAromaticCarbocycles>  (16) 
0

>  <NumAromaticHeterocycles>  (16) 
1

>  <NumAromaticRings>  (16) 
1

>  <NumHAcceptors>  (16) 
3

>  <NumHDonors>  (16) 
1

>  <NumHeteroatoms>  (16) 
4

>  <NumRotatableBonds>  (16) 
2

>  <NumSaturatedCarbocycles>  (16) 
0

>  <NumSaturatedHeterocycles>  (16) 
0

>  <NumSaturatedRings>  (16) 
0

>  <RingCount>  (16) 
1

>  <MolLogP>  (16) 
0.8458

>  <MolMR>  (16) 
45.5233

>  <fr_Al_COO>  (16) 
0

>  <fr_Al_OH>  (16) 
0

>  <fr_Al_OH_noTert>  (16) 
0

>  <fr_ArN>  (16) 
0

>  <fr_Ar_COO>  (16) 
1

>  <fr_Ar_N>  (16) 
1

>  <fr_Ar_NH>  (16) 
0

>  <fr_Ar_OH>  (16) 
0

>  <fr_COO>  (16) 
1

>  <fr_COO2>  (16) 
1

>  <fr_C_O>  (16) 
1

>  <fr_C_O_noCOO>  (16) 
0

>  <fr_C_S>  (16) 
0

>  <fr_HOCCN>  (16) 
0

>  <fr_Imine>  (16) 
0

>  <fr_NH0>  (16) 
2

>  <fr_NH1>  (16) 
0

>  <fr_NH2>  (16) 
0

>  <fr_N_O>  (16) 
0

>  <fr_Ndealkylation1>  (16) 
0

>  <fr_Ndealkylation2>  (16) 
0

>  <fr_Nhpyrrole>  (16) 
0

>  <fr_SH>  (16) 
0

>  <fr_aldehyde>  (16) 
0

>  <fr_alkyl_carbamate>  (16) 
0

>  <fr_alkyl_halide>  (16) 
0

>  <fr_allylic_oxid>  (16) 
0

>  <fr_amide>  (16) 
0

>  <fr_amidine>  (16) 
0

>  <fr_aniline>  (16) 
1

>  <fr_aryl_methyl>  (16) 
0

>  <fr_azide>  (16) 
0

>  <fr_azo>  (16) 
0

>  <fr_barbitur>  (16) 
0

>  <fr_benzene>  (16) 
0

>  <fr_benzodiazepine>  (16) 
0

>  <fr_bicyclic>  (16) 
0

>  <fr_diazo>  (16) 
0

>  <fr_dihydropyridine>  (16) 
0

>  <fr_epoxide>  (16) 
0

>  <fr_ester>  (16) 
0

>  <fr_ether>  (16) 
0

>  <fr_furan>  (16) 
0

>  <fr_guanido>  (16) 
0

>  <fr_halogen>  (16) 
0

>  <fr_hdrzine>  (16) 
0

>  <fr_hdrzone>  (16) 
0

>  <fr_imidazole>  (16) 
0

>  <fr_imide>  (16) 
0

>  <fr_isocyan>  (16) 
0

>  <fr_isothiocyan>  (16) 
0

>  <fr_ketone>  (16) 
0

>  <fr_ketone_Topliss>  (16) 
0

>  <fr_lactam>  (16) 
0

>  <fr_lactone>  (16) 
0

>  <fr_methoxy>  (16) 
0

>  <fr_morpholine>  (16) 
0

>  <fr_nitrile>  (16) 
0

>  <fr_nitro>  (16) 
0

>  <fr_nitro_arom>  (16) 
0

>  <fr_nitro_arom_nonortho>  (16) 
0

>  <fr_nitroso>  (16) 
0

>  <fr_oxazole>  (16) 
0

>  <fr_oxime>  (16) 
0

>  <fr_para_hydroxylation>  (16) 
0

>  <fr_phenol>  (16) 
0

>  <fr_phenol_noOrthoHbond>  (16) 
0

>  <fr_phos_acid>  (16) 
0

>  <fr_phos_ester>  (16) 
0

>  <fr_piperdine>  (16) 
0

>  <fr_piperzine>  (16) 
0

>  <fr_priamide>  (16) 
0

>  <fr_prisulfonamd>  (16) 
0

>  <fr_pyridine>  (16) 
1

>  <fr_quatN>  (16) 
0

>  <fr_sulfide>  (16) 
0

>  <fr_sulfonamd>  (16) 
0

>  <fr_sulfone>  (16) 
0

>  <fr_term_acetylene>  (16) 
0

>  <fr_tetrazole>  (16) 
0

>  <fr_thiazole>  (16) 
0

>  <fr_thiocyan>  (16) 
0

>  <fr_thiophene>  (16) 
0

>  <fr_unbrch_alkane>  (16) 
0

>  <fr_urea>  (16) 
0

>  <NP_Likeness>  (16) 
-1.482032

$$$$
46P
     RDKit          3D

  0  0  0  0  0  0  0  0  0  0999 V3000
M  V30 BEGIN CTAB
M  V30 COUNTS 19 19 0 0 0
M  V30 BEGIN ATOM
M  V30 1 S -10.470000 25.447000 -25.636000 0
M  V30 2 N -8.727000 23.581000 -26.488000 0
M  V30 3 N -14.359000 25.599000 -25.067000 0 CHG=1
M  V30 4 N -13.217000 27.292000 -25.950000 0
M  V30 5 N -11.007000 23.249000 -26.890000 0
M  V30 6 C -12.328000 28.019000 -26.854000 0
M  V30 7 C -12.211000 23.881000 -26.667000 0
M  V30 8 C -10.009000 23.953000 -26.408000 0
M  V30 9 C -13.229000 25.958000 -25.661000 0
M  V30 10 C -12.129000 25.080000 -26.006000 0
M  V30 11 H -8.483100 22.720300 -26.934800 0
M  V30 12 H -8.012300 24.163500 -26.101000 0
M  V30 13 H -14.502200 24.646300 -24.798900 0
M  V30 14 H -15.067900 26.281000 -24.887200 0
M  V30 15 H -12.570700 28.989100 -26.851500 0
M  V30 16 H -11.381800 27.911300 -26.549000 0
M  V30 17 H -12.423200 27.654000 -27.780100 0
M  V30 18 H -13.082800 23.493000 -26.965900 0
M  V30 19 H -13.906900 27.844200 -25.481900 0
M  V30 END ATOM
M  V30 BEGIN BOND
M  V30 1 1 1 8
M  V30 2 1 1 10
M  V30 3 1 2 8
M  V30 4 2 3 9
M  V30 5 1 4 6
M  V30 6 1 4 9
M  V30 7 1 5 7
M  V30 8 2 5 8
M  V30 9 2 7 10
M  V30 10 1 9 10
M  V30 11 1 2 11
M  V30 12 1 2 12
M  V30 13 1 3 13
M  V30 14 1 3 14
M  V30 15 1 6 15
M  V30 16 1 6 16
M  V30 17 1 6 17
M  V30 18 1 7 18
M  V30 19 1 4 19
M  V30 END BOND
M  V30 END CTAB
M  END
>  <Ligand_Instance>  (17) 
5N3A_46P_A_404

>  <Dataset>  (17) 
PDB

>  <PDB_ID>  (17) 
5N3A

>  <Chain>  (17) 
A

>  <Resi>  (17) 
404

>  <Num_Resolved_Atoms>  (17) 
10

>  <Num_H_Atoms_ProtBoundConf>  (17) 
9

>  <Pocket>  (17) 
A

>  <Name>  (17) 
4-methyl-5-(1-methyl-1H-imidazol-2-yl)-1,3-thiazol-2-amine

>  <Num_Not_Resolved_Atoms>  (17) 
3

>  <ATP_Site>  (17) 
True

>  <Peripheral>  (17) 
False

>  <Standardized_SMILES>  (17) 
[H]C1=C(C(N([H])C([H])([H])[H])=[N+]([H])[H])SC(N([H])[H])=N1

>  <2D_Mol_H>  (17) 
<rdkit.Chem.rdchem.Mol object at 0x77059d9daf80>

>  <MW>  (17) 
157.222

>  <HBA>  (17) 
3

>  <HBD>  (17) 
3

>  <LogP>  (17) 
-1.5496

>  <NRB>  (17) 
3

>  <TPSA>  (17) 
76.53

>  <Num_Heavy_Atoms>  (17) 
10

>  <Ro5>  (17) 
[True, True, True, True, True, True]

>  <Ro5_Fulfilled>  (17) 
True

>  <Ro3>  (17) 
[True, True, True, True]

>  <Ro3_Fulfilled>  (17) 
True

>  <Fsp3>  (17) 
0.2

>  <Fsp3_0.42>  (17) 
False

>  <Fsp3_0.45>  (17) 
False

>  <Stereogenic_Carbons>  (17) 
0

>  <C_Atoms>  (17) 
5

>  <FCStereo>  (17) 
0.0

>  <SPS>  (17) 
93

>  <nSPS>  (17) 
9.3

>  <PBF>  (17) 
0.520217

>  <PBF_0.6>  (17) 
False

>  <nPBF>  (17) 
0.052022

>  <nPBF_0.016>  (17) 
True

>  <PMI1>  (17) 
220.979333

>  <PMI2>  (17) 
658.366265

>  <PMI3>  (17) 
787.201704

>  <NPR1>  (17) 
0.280715

>  <NPR2>  (17) 
0.836337

>  <Sum_NPR>  (17) 
1.117052

>  <Sum_NPR_1.07>  (17) 
True

>  <Sum_NPR_1.2>  (17) 
False

>  <MaxAbsEStateIndex>  (17) 
5.528009

>  <MaxEStateIndex>  (17) 
5.528009

>  <MinAbsEStateIndex>  (17) 
0.53537

>  <MinEStateIndex>  (17) 
0.53537

>  <qed>  (17) 
0.341057

>  <MolWt>  (17) 
157.222

>  <HeavyAtomMolWt>  (17) 
148.15

>  <ExactMolWt>  (17) 
157.054244

>  <NumValenceElectrons>  (17) 
54

>  <NumRadicalElectrons>  (17) 
0

>  <MaxPartialCharge>  (17) 
0.284062

>  <MinPartialCharge>  (17) 
-0.375097

>  <MaxAbsPartialCharge>  (17) 
0.375097

>  <MinAbsPartialCharge>  (17) 
0.284062

>  <FpDensityMorgan1>  (17) 
1.9

>  <FpDensityMorgan2>  (17) 
2.6

>  <FpDensityMorgan3>  (17) 
3.0

>  <BCUT2D_MWHI>  (17) 
32.133576

>  <BCUT2D_MWLOW>  (17) 
10.49484

>  <BCUT2D_CHGHI>  (17) 
2.066631

>  <BCUT2D_CHGLO>  (17) 
-1.858606

>  <BCUT2D_LOGPHI>  (17) 
2.117358

>  <BCUT2D_LOGPLOW>  (17) 
-2.470452

>  <BCUT2D_MRHI>  (17) 
7.167723

>  <BCUT2D_MRLOW>  (17) 
-0.115917

>  <AvgIpc>  (17) 
2.33905

>  <BalabanJ>  (17) 
2.845595

>  <BertzCT>  (17) 
241.550919

>  <Chi0>  (17) 
7.560478

>  <Chi0n>  (17) 
5.587513

>  <Chi0v>  (17) 
6.404009

>  <Chi1>  (17) 
4.736382

>  <Chi1n>  (17) 
2.756079

>  <Chi1v>  (17) 
3.572576

>  <Chi2n>  (17) 
1.726425

>  <Chi2v>  (17) 
2.788652

>  <Chi3n>  (17) 
1.058366

>  <Chi3v>  (17) 
1.918149

>  <Chi4n>  (17) 
0.53533

>  <Chi4v>  (17) 
1.183483

>  <HallKierAlpha>  (17) 
-1.1

>  <Ipc>  (17) 
243.261184

>  <Kappa1>  (17) 
7.01236

>  <Kappa2>  (17) 
2.65602

>  <Kappa3>  (17) 
1.24315

>  <LabuteASA>  (17) 
62.596402

>  <PEOE_VSA1>  (17) 
5.733667

>  <PEOE_VSA10>  (17) 
4.877147

>  <PEOE_VSA11>  (17) 
5.131558

>  <PEOE_VSA12>  (17) 
0.0

>  <PEOE_VSA13>  (17) 
5.83562

>  <PEOE_VSA14>  (17) 
0.0

>  <PEOE_VSA2>  (17) 
10.726072

>  <PEOE_VSA3>  (17) 
4.983979

>  <PEOE_VSA4>  (17) 
0.0

>  <PEOE_VSA5>  (17) 
0.0

>  <PEOE_VSA6>  (17) 
11.336786

>  <PEOE_VSA7>  (17) 
0.0

>  <PEOE_VSA8>  (17) 
0.0

>  <PEOE_VSA9>  (17) 
13.244516

>  <SMR_VSA1>  (17) 
5.409284

>  <SMR_VSA10>  (17) 
22.303964

>  <SMR_VSA2>  (17) 
0.0

>  <SMR_VSA3>  (17) 
10.300767

>  <SMR_VSA4>  (17) 
0.0

>  <SMR_VSA5>  (17) 
0.0

>  <SMR_VSA6>  (17) 
12.781339

>  <SMR_VSA7>  (17) 
11.073991

>  <SMR_VSA8>  (17) 
0.0

>  <SMR_VSA9>  (17) 
0.0

>  <SlogP_VSA1>  (17) 
16.45974

>  <SlogP_VSA10>  (17) 
5.131558

>  <SlogP_VSA11>  (17) 
0.0

>  <SlogP_VSA12>  (17) 
11.336786

>  <SlogP_VSA2>  (17) 
17.86727

>  <SlogP_VSA3>  (17) 
0.0

>  <SlogP_VSA4>  (17) 
0.0

>  <SlogP_VSA5>  (17) 
4.877147

>  <SlogP_VSA6>  (17) 
6.196844

>  <SlogP_VSA7>  (17) 
0.0

>  <SlogP_VSA8>  (17) 
0.0

>  <SlogP_VSA9>  (17) 
0.0

>  <EState_VSA1>  (17) 
0.0

>  <EState_VSA10>  (17) 
0.0

>  <EState_VSA11>  (17) 
0.0

>  <EState_VSA2>  (17) 
0.0

>  <EState_VSA3>  (17) 
10.967178

>  <EState_VSA4>  (17) 
4.877147

>  <EState_VSA5>  (17) 
11.336786

>  <EState_VSA6>  (17) 
13.244516

>  <EState_VSA7>  (17) 
0.0

>  <EState_VSA8>  (17) 
10.300767

>  <EState_VSA9>  (17) 
11.142951

>  <VSA_EState1>  (17) 
0.0

>  <VSA_EState10>  (17) 
1.362546

>  <VSA_EState2>  (17) 
4.716111

>  <VSA_EState3>  (17) 
8.867222

>  <VSA_EState4>  (17) 
5.381835

>  <VSA_EState5>  (17) 
0.605741

>  <VSA_EState6>  (17) 
0.0

>  <VSA_EState7>  (17) 
1.644676

>  <VSA_EState8>  (17) 
0.0

>  <VSA_EState9>  (17) 
1.755202

>  <FractionCSP3>  (17) 
0.2

>  <HeavyAtomCount>  (17) 
10

>  <NHOHCount>  (17) 
5

>  <NOCount>  (17) 
4

>  <NumAliphaticCarbocycles>  (17) 
0

>  <NumAliphaticHeterocycles>  (17) 
0

>  <NumAliphaticRings>  (17) 
0

>  <NumAromaticCarbocycles>  (17) 
0

>  <NumAromaticHeterocycles>  (17) 
1

>  <NumAromaticRings>  (17) 
1

>  <NumHAcceptors>  (17) 
3

>  <NumHDonors>  (17) 
3

>  <NumHeteroatoms>  (17) 
5

>  <NumRotatableBonds>  (17) 
1

>  <NumSaturatedCarbocycles>  (17) 
0

>  <NumSaturatedHeterocycles>  (17) 
0

>  <NumSaturatedRings>  (17) 
0

>  <RingCount>  (17) 
1

>  <MolLogP>  (17) 
-1.5496

>  <MolMR>  (17) 
41.6205

>  <fr_Al_COO>  (17) 
0

>  <fr_Al_OH>  (17) 
0

>  <fr_Al_OH_noTert>  (17) 
0

>  <fr_ArN>  (17) 
1

>  <fr_Ar_COO>  (17) 
0

>  <fr_Ar_N>  (17) 
1

>  <fr_Ar_NH>  (17) 
0

>  <fr_Ar_OH>  (17) 
0

>  <fr_COO>  (17) 
0

>  <fr_COO2>  (17) 
0

>  <fr_C_O>  (17) 
0

>  <fr_C_O_noCOO>  (17) 
0

>  <fr_C_S>  (17) 
0

>  <fr_HOCCN>  (17) 
0

>  <fr_Imine>  (17) 
0

>  <fr_NH0>  (17) 
1

>  <fr_NH1>  (17) 
1

>  <fr_NH2>  (17) 
2

>  <fr_N_O>  (17) 
0

>  <fr_Ndealkylation1>  (17) 
0

>  <fr_Ndealkylation2>  (17) 
0

>  <fr_Nhpyrrole>  (17) 
0

>  <fr_SH>  (17) 
0

>  <fr_aldehyde>  (17) 
0

>  <fr_alkyl_carbamate>  (17) 
0

>  <fr_alkyl_halide>  (17) 
0

>  <fr_allylic_oxid>  (17) 
0

>  <fr_amide>  (17) 
0

>  <fr_amidine>  (17) 
1

>  <fr_aniline>  (17) 
1

>  <fr_aryl_methyl>  (17) 
0

>  <fr_azide>  (17) 
0

>  <fr_azo>  (17) 
0

>  <fr_barbitur>  (17) 
0

>  <fr_benzene>  (17) 
0

>  <fr_benzodiazepine>  (17) 
0

>  <fr_bicyclic>  (17) 
0

>  <fr_diazo>  (17) 
0

>  <fr_dihydropyridine>  (17) 
0

>  <fr_epoxide>  (17) 
0

>  <fr_ester>  (17) 
0

>  <fr_ether>  (17) 
0

>  <fr_furan>  (17) 
0

>  <fr_guanido>  (17) 
0

>  <fr_halogen>  (17) 
0

>  <fr_hdrzine>  (17) 
0

>  <fr_hdrzone>  (17) 
0

>  <fr_imidazole>  (17) 
0

>  <fr_imide>  (17) 
0

>  <fr_isocyan>  (17) 
0

>  <fr_isothiocyan>  (17) 
0

>  <fr_ketone>  (17) 
0

>  <fr_ketone_Topliss>  (17) 
0

>  <fr_lactam>  (17) 
0

>  <fr_lactone>  (17) 
0

>  <fr_methoxy>  (17) 
0

>  <fr_morpholine>  (17) 
0

>  <fr_nitrile>  (17) 
0

>  <fr_nitro>  (17) 
0

>  <fr_nitro_arom>  (17) 
0

>  <fr_nitro_arom_nonortho>  (17) 
0

>  <fr_nitroso>  (17) 
0

>  <fr_oxazole>  (17) 
0

>  <fr_oxime>  (17) 
0

>  <fr_para_hydroxylation>  (17) 
0

>  <fr_phenol>  (17) 
0

>  <fr_phenol_noOrthoHbond>  (17) 
0

>  <fr_phos_acid>  (17) 
0

>  <fr_phos_ester>  (17) 
0

>  <fr_piperdine>  (17) 
0

>  <fr_piperzine>  (17) 
0

>  <fr_priamide>  (17) 
0

>  <fr_prisulfonamd>  (17) 
0

>  <fr_pyridine>  (17) 
0

>  <fr_quatN>  (17) 
0

>  <fr_sulfide>  (17) 
0

>  <fr_sulfonamd>  (17) 
0

>  <fr_sulfone>  (17) 
0

>  <fr_term_acetylene>  (17) 
0

>  <fr_tetrazole>  (17) 
0

>  <fr_thiazole>  (17) 
1

>  <fr_thiocyan>  (17) 
0

>  <fr_thiophene>  (17) 
0

>  <fr_unbrch_alkane>  (17) 
0

>  <fr_urea>  (17) 
0

>  <NP_Likeness>  (17) 
-1.038351

$$$$
47V
     RDKit          3D

  0  0  0  0  0  0  0  0  0  0999 V3000
M  V30 BEGIN CTAB
M  V30 COUNTS 28 29 0 0 0
M  V30 BEGIN ATOM
M  V30 1 O -28.625000 -1.722000 4.901000 0
M  V30 2 O -25.895000 1.398000 4.880000 0
M  V30 3 N -31.360000 -4.387000 8.352000 0
M  V30 4 N -28.388000 -1.684000 7.152000 0
M  V30 5 C -25.008000 2.692000 6.734000 0
M  V30 6 C -26.995000 0.040000 3.203000 0
M  V30 7 C -30.586000 -3.753000 9.239000 0
M  V30 8 C -31.149000 -4.115000 7.062000 0
M  V30 9 C -29.573000 -2.880000 8.892000 0
M  V30 10 C -30.193000 -3.226000 6.611000 0
M  V30 11 C -26.593000 0.629000 6.841000 0
M  V30 12 C -28.111000 -1.265000 5.909000 0
M  V30 13 C -25.842000 1.565000 6.245000 0
M  V30 14 C -26.720000 0.329000 4.634000 0
M  V30 15 C -29.378000 -2.607000 7.549000 0
M  V30 16 C -27.171000 -0.181000 5.809000 0
M  V30 17 H -27.826900 -1.296700 7.883600 0
M  V30 18 H -25.040100 2.721400 7.733100 0
M  V30 19 H -24.062800 2.561700 6.434500 0
M  V30 20 H -25.359400 3.551900 6.363700 0
M  V30 21 H -27.601800 -0.751800 3.133500 0
M  V30 22 H -27.433000 0.833700 2.780800 0
M  V30 23 H -26.135300 -0.156400 2.731400 0
M  V30 24 H -30.750100 -3.920700 10.211100 0
M  V30 25 H -31.715800 -4.581900 6.383200 0
M  V30 26 H -28.996800 -2.457200 9.591400 0
M  V30 27 H -30.090700 -3.033400 5.635100 0
M  V30 28 H -26.726000 0.516100 7.825700 0
M  V30 END ATOM
M  V30 BEGIN BOND
M  V30 1 2 1 12
M  V30 2 1 2 13
M  V30 3 1 2 14
M  V30 4 2 3 7
M  V30 5 1 3 8
M  V30 6 1 4 12
M  V30 7 1 4 15
M  V30 8 1 5 13
M  V30 9 1 6 14
M  V30 10 1 7 9
M  V30 11 2 8 10
M  V30 12 2 9 15
M  V30 13 1 10 15
M  V30 14 2 11 13
M  V30 15 1 11 16
M  V30 16 1 12 16
M  V30 17 2 14 16
M  V30 18 1 4 17
M  V30 19 1 5 18
M  V30 20 1 5 19
M  V30 21 1 5 20
M  V30 22 1 6 21
M  V30 23 1 6 22
M  V30 24 1 6 23
M  V30 25 1 7 24
M  V30 26 1 8 25
M  V30 27 1 9 26
M  V30 28 1 10 27
M  V30 29 1 11 28
M  V30 END BOND
M  V30 END CTAB
M  END
>  <Ligand_Instance>  (18) 
5N1L_47V_A_401

>  <Dataset>  (18) 
PDB

>  <PDB_ID>  (18) 
5N1L

>  <Chain>  (18) 
A

>  <Resi>  (18) 
401

>  <Num_Resolved_Atoms>  (18) 
16

>  <Num_H_Atoms_ProtBoundConf>  (18) 
12

>  <Pocket>  (18) 
A

>  <Name>  (18) 
2,5-dimethyl-N-(pyridin-4-yl)furan-3-carboxamide

>  <Num_Not_Resolved_Atoms>  (18) 
0

>  <ATP_Site>  (18) 
True

>  <Peripheral>  (18) 
False

>  <Standardized_SMILES>  (18) 
[H]C1=NC([H])=C([H])C(N([H])C(=O)C2=C(C([H])([H])[H])OC(C([H])([H])[H])=C2[H])=C1[H]

>  <2D_Mol_H>  (18) 
<rdkit.Chem.rdchem.Mol object at 0x77059d9db060>

>  <MW>  (18) 
216.24

>  <HBA>  (18) 
3

>  <HBD>  (18) 
1

>  <LogP>  (18) 
2.54374

>  <NRB>  (18) 
4

>  <TPSA>  (18) 
55.13

>  <Num_Heavy_Atoms>  (18) 
16

>  <Ro5>  (18) 
[True, True, True, True, True, True]

>  <Ro5_Fulfilled>  (18) 
True

>  <Ro3>  (18) 
[True, True, True, True]

>  <Ro3_Fulfilled>  (18) 
True

>  <Fsp3>  (18) 
0.166667

>  <Fsp3_0.42>  (18) 
False

>  <Fsp3_0.45>  (18) 
False

>  <Stereogenic_Carbons>  (18) 
0

>  <C_Atoms>  (18) 
12

>  <FCStereo>  (18) 
0.0

>  <SPS>  (18) 
162

>  <nSPS>  (18) 
10.125

>  <PBF>  (18) 
0.234626

>  <PBF_0.6>  (18) 
False

>  <nPBF>  (18) 
0.014664

>  <nPBF_0.016>  (18) 
False

>  <PMI1>  (18) 
356.559738

>  <PMI2>  (18) 
2050.507605

>  <PMI3>  (18) 
2394.367791

>  <NPR1>  (18) 
0.148916

>  <NPR2>  (18) 
0.856388

>  <Sum_NPR>  (18) 
1.005304

>  <Sum_NPR_1.07>  (18) 
False

>  <Sum_NPR_1.2>  (18) 
False

>  <MaxAbsEStateIndex>  (18) 
11.856725

>  <MaxEStateIndex>  (18) 
11.856725

>  <MinAbsEStateIndex>  (18) 
0.166157

>  <MinEStateIndex>  (18) 
-0.166157

>  <qed>  (18) 
0.838789

>  <MolWt>  (18) 
216.24

>  <HeavyAtomMolWt>  (18) 
204.144

>  <ExactMolWt>  (18) 
216.089878

>  <NumValenceElectrons>  (18) 
82

>  <NumRadicalElectrons>  (18) 
0

>  <MaxPartialCharge>  (18) 
0.258711

>  <MinPartialCharge>  (18) 
-0.465826

>  <MaxAbsPartialCharge>  (18) 
0.465826

>  <MinAbsPartialCharge>  (18) 
0.258711

>  <FpDensityMorgan1>  (18) 
1.3125

>  <FpDensityMorgan2>  (18) 
2.0

>  <FpDensityMorgan3>  (18) 
2.5625

>  <BCUT2D_MWHI>  (18) 
16.341979

>  <BCUT2D_MWLOW>  (18) 
10.203264

>  <BCUT2D_CHGHI>  (18) 
2.126236

>  <BCUT2D_CHGLO>  (18) 
-2.022205

>  <BCUT2D_LOGPHI>  (18) 
2.15154

>  <BCUT2D_LOGPLOW>  (18) 
-2.114497

>  <BCUT2D_MRHI>  (18) 
6.044799

>  <BCUT2D_MRLOW>  (18) 
0.10207

>  <AvgIpc>  (18) 
2.59189

>  <BalabanJ>  (18) 
2.180494

>  <BertzCT>  (18) 
502.992242

>  <Chi0>  (18) 
11.543606

>  <Chi0n>  (18) 
9.150462

>  <Chi0v>  (18) 
9.150462

>  <Chi1>  (18) 
7.664704

>  <Chi1n>  (18) 
4.950137

>  <Chi1v>  (18) 
4.950137

>  <Chi2n>  (18) 
3.516924

>  <Chi2v>  (18) 
3.516924

>  <Chi3n>  (18) 
2.22379

>  <Chi3v>  (18) 
2.22379

>  <Chi4n>  (18) 
1.489921

>  <Chi4v>  (18) 
1.489921

>  <HallKierAlpha>  (18) 
-2.1

>  <Ipc>  (18) 
5722.892821

>  <Kappa1>  (18) 
10.418896

>  <Kappa2>  (18) 
4.182068

>  <Kappa3>  (18) 
2.107659

>  <LabuteASA>  (18) 
93.308685

>  <PEOE_VSA1>  (18) 
9.73394

>  <PEOE_VSA10>  (18) 
11.520495

>  <PEOE_VSA11>  (18) 
0.0

>  <PEOE_VSA12>  (18) 
0.0

>  <PEOE_VSA13>  (18) 
5.90718

>  <PEOE_VSA14>  (18) 
0.0

>  <PEOE_VSA2>  (18) 
9.778516

>  <PEOE_VSA3>  (18) 
0.0

>  <PEOE_VSA4>  (18) 
0.0

>  <PEOE_VSA5>  (18) 
0.0

>  <PEOE_VSA6>  (18) 
0.0

>  <PEOE_VSA7>  (18) 
32.046576

>  <PEOE_VSA8>  (18) 
18.081073

>  <PEOE_VSA9>  (18) 
5.563451

>  <SMR_VSA1>  (18) 
9.211688

>  <SMR_VSA10>  (18) 
11.594566

>  <SMR_VSA2>  (18) 
0.0

>  <SMR_VSA3>  (18) 
4.983979

>  <SMR_VSA4>  (18) 
0.0

>  <SMR_VSA5>  (18) 
13.847474

>  <SMR_VSA6>  (18) 
5.316789

>  <SMR_VSA7>  (18) 
47.676735

>  <SMR_VSA8>  (18) 
0.0

>  <SMR_VSA9>  (18) 
0.0

>  <SlogP_VSA1>  (18) 
5.316789

>  <SlogP_VSA10>  (18) 
5.687386

>  <SlogP_VSA11>  (18) 
0.0

>  <SlogP_VSA12>  (18) 
0.0

>  <SlogP_VSA2>  (18) 
10.891158

>  <SlogP_VSA3>  (18) 
0.0

>  <SlogP_VSA4>  (18) 
13.847474

>  <SlogP_VSA5>  (18) 
21.878484

>  <SlogP_VSA6>  (18) 
35.009939

>  <SlogP_VSA7>  (18) 
0.0

>  <SlogP_VSA8>  (18) 
0.0

>  <SlogP_VSA9>  (18) 
0.0

>  <EState_VSA1>  (18) 
0.0

>  <EState_VSA10>  (18) 
4.794537

>  <EState_VSA11>  (18) 
0.0

>  <EState_VSA2>  (18) 
5.90718

>  <EState_VSA3>  (18) 
11.323699

>  <EState_VSA4>  (18) 
11.447634

>  <EState_VSA5>  (18) 
0.0

>  <EState_VSA6>  (18) 
37.516526

>  <EState_VSA7>  (18) 
6.923737

>  <EState_VSA8>  (18) 
10.300767

>  <EState_VSA9>  (18) 
4.417151

>  <VSA_EState1>  (18) 
5.300152

>  <VSA_EState10>  (18) 
0.0

>  <VSA_EState2>  (18) 
15.733988

>  <VSA_EState3>  (18) 
2.773426

>  <VSA_EState4>  (18) 
1.284783

>  <VSA_EState5>  (18) 
1.196282

>  <VSA_EState6>  (18) 
5.200599

>  <VSA_EState7>  (18) 
3.256129

>  <VSA_EState8>  (18) 
3.587976

>  <VSA_EState9>  (18) 
0.0

>  <FractionCSP3>  (18) 
0.166667

>  <HeavyAtomCount>  (18) 
16

>  <NHOHCount>  (18) 
1

>  <NOCount>  (18) 
4

>  <NumAliphaticCarbocycles>  (18) 
0

>  <NumAliphaticHeterocycles>  (18) 
0

>  <NumAliphaticRings>  (18) 
0

>  <NumAromaticCarbocycles>  (18) 
0

>  <NumAromaticHeterocycles>  (18) 
2

>  <NumAromaticRings>  (18) 
2

>  <NumHAcceptors>  (18) 
3

>  <NumHDonors>  (18) 
1

>  <NumHeteroatoms>  (18) 
4

>  <NumRotatableBonds>  (18) 
2

>  <NumSaturatedCarbocycles>  (18) 
0

>  <NumSaturatedHeterocycles>  (18) 
0

>  <NumSaturatedRings>  (18) 
0

>  <RingCount>  (18) 
2

>  <MolLogP>  (18) 
2.54374

>  <MolMR>  (18) 
60.3722

>  <fr_Al_COO>  (18) 
0

>  <fr_Al_OH>  (18) 
0

>  <fr_Al_OH_noTert>  (18) 
0

>  <fr_ArN>  (18) 
0

>  <fr_Ar_COO>  (18) 
0

>  <fr_Ar_N>  (18) 
1

>  <fr_Ar_NH>  (18) 
0

>  <fr_Ar_OH>  (18) 
0

>  <fr_COO>  (18) 
0

>  <fr_COO2>  (18) 
0

>  <fr_C_O>  (18) 
1

>  <fr_C_O_noCOO>  (18) 
1

>  <fr_C_S>  (18) 
0

>  <fr_HOCCN>  (18) 
0

>  <fr_Imine>  (18) 
0

>  <fr_NH0>  (18) 
1

>  <fr_NH1>  (18) 
1

>  <fr_NH2>  (18) 
0

>  <fr_N_O>  (18) 
0

>  <fr_Ndealkylation1>  (18) 
0

>  <fr_Ndealkylation2>  (18) 
0

>  <fr_Nhpyrrole>  (18) 
0

>  <fr_SH>  (18) 
0

>  <fr_aldehyde>  (18) 
0

>  <fr_alkyl_carbamate>  (18) 
0

>  <fr_alkyl_halide>  (18) 
0

>  <fr_allylic_oxid>  (18) 
0

>  <fr_amide>  (18) 
1

>  <fr_amidine>  (18) 
0

>  <fr_aniline>  (18) 
1

>  <fr_aryl_methyl>  (18) 
2

>  <fr_azide>  (18) 
0

>  <fr_azo>  (18) 
0

>  <fr_barbitur>  (18) 
0

>  <fr_benzene>  (18) 
0

>  <fr_benzodiazepine>  (18) 
0

>  <fr_bicyclic>  (18) 
0

>  <fr_diazo>  (18) 
0

>  <fr_dihydropyridine>  (18) 
0

>  <fr_epoxide>  (18) 
0

>  <fr_ester>  (18) 
0

>  <fr_ether>  (18) 
0

>  <fr_furan>  (18) 
1

>  <fr_guanido>  (18) 
0

>  <fr_halogen>  (18) 
0

>  <fr_hdrzine>  (18) 
0

>  <fr_hdrzone>  (18) 
0

>  <fr_imidazole>  (18) 
0

>  <fr_imide>  (18) 
0

>  <fr_isocyan>  (18) 
0

>  <fr_isothiocyan>  (18) 
0

>  <fr_ketone>  (18) 
0

>  <fr_ketone_Topliss>  (18) 
0

>  <fr_lactam>  (18) 
0

>  <fr_lactone>  (18) 
0

>  <fr_methoxy>  (18) 
0

>  <fr_morpholine>  (18) 
0

>  <fr_nitrile>  (18) 
0

>  <fr_nitro>  (18) 
0

>  <fr_nitro_arom>  (18) 
0

>  <fr_nitro_arom_nonortho>  (18) 
0

>  <fr_nitroso>  (18) 
0

>  <fr_oxazole>  (18) 
0

>  <fr_oxime>  (18) 
0

>  <fr_para_hydroxylation>  (18) 
0

>  <fr_phenol>  (18) 
0

>  <fr_phenol_noOrthoHbond>  (18) 
0

>  <fr_phos_acid>  (18) 
0

>  <fr_phos_ester>  (18) 
0

>  <fr_piperdine>  (18) 
0

>  <fr_piperzine>  (18) 
0

>  <fr_priamide>  (18) 
0

>  <fr_prisulfonamd>  (18) 
0

>  <fr_pyridine>  (18) 
1

>  <fr_quatN>  (18) 
0

>  <fr_sulfide>  (18) 
0

>  <fr_sulfonamd>  (18) 
0

>  <fr_sulfone>  (18) 
0

>  <fr_term_acetylene>  (18) 
0

>  <fr_tetrazole>  (18) 
0

>  <fr_thiazole>  (18) 
0

>  <fr_thiocyan>  (18) 
0

>  <fr_thiophene>  (18) 
0

>  <fr_unbrch_alkane>  (18) 
0

>  <fr_urea>  (18) 
0

>  <NP_Likeness>  (18) 
-1.832874

$$$$
489
     RDKit          3D

  0  0  0  0  0  0  0  0  0  0999 V3000
M  V30 BEGIN CTAB
M  V30 COUNTS 22 22 0 0 0
M  V30 BEGIN ATOM
M  V30 1 F 74.427000 98.211000 23.463000 0
M  V30 2 O 69.714000 96.139000 27.119000 0
M  V30 3 N 67.346000 96.837000 25.941000 0 CHG=1
M  V30 4 C 68.613000 97.240000 25.381000 0
M  V30 5 C 72.748000 99.064000 24.855000 0
M  V30 6 C 72.881000 96.716000 24.403000 0
M  V30 7 C 71.591000 98.849000 25.578000 0
M  V30 8 C 71.728000 96.517000 25.141000 0
M  V30 9 C 73.350000 97.992000 24.277000 0
M  V30 10 C 69.727000 97.363000 26.410000 0 CFG=2
M  V30 11 C 71.053000 97.575000 25.721000 0
M  V30 12 H 69.395100 95.407800 26.515900 0
M  V30 13 H 66.663700 96.776600 25.212500 0
M  V30 14 H 67.444600 95.944000 26.380200 0
M  V30 15 H 68.493600 98.128400 24.937700 0
M  V30 16 H 68.886700 96.561400 24.699400 0
M  V30 17 H 73.131600 99.982500 24.759700 0
M  V30 18 H 73.356900 95.948000 23.974500 0
M  V30 19 H 71.130700 99.625900 26.007600 0
M  V30 20 H 71.375400 95.588500 25.257400 0
M  V30 21 H 69.537700 98.122600 27.032200 0
M  V30 22 H 67.051500 97.511000 26.618500 0
M  V30 END ATOM
M  V30 BEGIN BOND
M  V30 1 1 1 9
M  V30 2 1 2 10
M  V30 3 1 3 4
M  V30 4 1 4 10
M  V30 5 2 5 7
M  V30 6 1 5 9
M  V30 7 1 6 8
M  V30 8 2 6 9
M  V30 9 1 7 11
M  V30 10 2 8 11
M  V30 11 1 10 11
M  V30 12 1 2 12
M  V30 13 1 3 13
M  V30 14 1 3 14
M  V30 15 1 4 15
M  V30 16 1 4 16
M  V30 17 1 5 17
M  V30 18 1 6 18
M  V30 19 1 7 19
M  V30 20 1 8 20
M  V30 21 1 10 21 CFG=1
M  V30 22 1 3 22
M  V30 END BOND
M  V30 END CTAB
M  END
>  <Ligand_Instance>  (19) 
5N1K_489_A_401

>  <Dataset>  (19) 
PDB

>  <PDB_ID>  (19) 
5N1K

>  <Chain>  (19) 
A

>  <Resi>  (19) 
401

>  <Num_Resolved_Atoms>  (19) 
11

>  <Num_H_Atoms_ProtBoundConf>  (19) 
11

>  <Pocket>  (19) 
A

>  <Name>  (19) 
(1S)-2-amino-1-(4-fluorophenyl)ethanol

>  <Num_Not_Resolved_Atoms>  (19) 
0

>  <ATP_Site>  (19) 
True

>  <Peripheral>  (19) 
True

>  <Standardized_SMILES>  (19) 
[H]O[C@@]([H])(C1=C([H])C([H])=C(F)C([H])=C1[H])C([H])([H])[N+]([H])([H])[H]

>  <2D_Mol_H>  (19) 
<rdkit.Chem.rdchem.Mol object at 0x77059d9db140>

>  <MW>  (19) 
156.18

>  <HBA>  (19) 
1

>  <HBD>  (19) 
2

>  <LogP>  (19) 
0.101

>  <NRB>  (19) 
4

>  <TPSA>  (19) 
47.87

>  <Num_Heavy_Atoms>  (19) 
11

>  <Ro5>  (19) 
[True, True, True, True, True, True]

>  <Ro5_Fulfilled>  (19) 
True

>  <Ro3>  (19) 
[True, True, True, True]

>  <Ro3_Fulfilled>  (19) 
True

>  <Fsp3>  (19) 
0.25

>  <Fsp3_0.42>  (19) 
False

>  <Fsp3_0.45>  (19) 
False

>  <Stereogenic_Carbons>  (19) 
1

>  <C_Atoms>  (19) 
8

>  <FCStereo>  (19) 
0.125

>  <SPS>  (19) 
143

>  <nSPS>  (19) 
13.0

>  <PBF>  (19) 
0.563144

>  <PBF_0.6>  (19) 
False

>  <nPBF>  (19) 
0.051195

>  <nPBF_0.016>  (19) 
True

>  <PMI1>  (19) 
165.427272

>  <PMI2>  (19) 
966.966458

>  <PMI3>  (19) 
1011.901875

>  <NPR1>  (19) 
0.163482

>  <NPR2>  (19) 
0.955593

>  <Sum_NPR>  (19) 
1.119075

>  <Sum_NPR_1.07>  (19) 
True

>  <Sum_NPR_1.2>  (19) 
False

>  <MaxAbsEStateIndex>  (19) 
12.35678

>  <MaxEStateIndex>  (19) 
12.35678

>  <MinAbsEStateIndex>  (19) 
0.287026

>  <MinEStateIndex>  (19) 
-0.573519

>  <qed>  (19) 
0.626522

>  <MolWt>  (19) 
156.18

>  <HeavyAtomMolWt>  (19) 
145.092

>  <ExactMolWt>  (19) 
156.081919

>  <NumValenceElectrons>  (19) 
60

>  <NumRadicalElectrons>  (19) 
0

>  <MaxPartialCharge>  (19) 
0.127634

>  <MinPartialCharge>  (19) 
-0.382496

>  <MaxAbsPartialCharge>  (19) 
0.382496

>  <MinAbsPartialCharge>  (19) 
0.127634

>  <FpDensityMorgan1>  (19) 
1.363636

>  <FpDensityMorgan2>  (19) 
1.909091

>  <FpDensityMorgan3>  (19) 
2.363636

>  <BCUT2D_MWHI>  (19) 
19.142139

>  <BCUT2D_MWLOW>  (19) 
10.112208

>  <BCUT2D_CHGHI>  (19) 
2.048621

>  <BCUT2D_CHGLO>  (19) 
-2.037901

>  <BCUT2D_LOGPHI>  (19) 
2.101536

>  <BCUT2D_LOGPLOW>  (19) 
-2.524409

>  <BCUT2D_MRHI>  (19) 
5.176722

>  <BCUT2D_MRLOW>  (19) 
-0.384658

>  <AvgIpc>  (19) 
2.045606

>  <BalabanJ>  (19) 
2.805745

>  <BertzCT>  (19) 
222.038597

>  <Chi0>  (19) 
8.267585

>  <Chi0n>  (19) 
6.126143

>  <Chi0v>  (19) 
6.126143

>  <Chi1>  (19) 
5.236382

>  <Chi1n>  (19) 
3.465472

>  <Chi1v>  (19) 
3.465472

>  <Chi2n>  (19) 
2.356024

>  <Chi2v>  (19) 
2.356024

>  <Chi3n>  (19) 
1.528216

>  <Chi3v>  (19) 
1.528216

>  <Chi4n>  (19) 
0.851596

>  <Chi4v>  (19) 
0.851596

>  <HallKierAlpha>  (19) 
-0.93

>  <Ipc>  (19) 
335.47939

>  <Kappa1>  (19) 
8.169305

>  <Kappa2>  (19) 
3.457826

>  <Kappa3>  (19) 
1.996272

>  <LabuteASA>  (19) 
64.460947

>  <PEOE_VSA1>  (19) 
10.840195

>  <PEOE_VSA10>  (19) 
18.465944

>  <PEOE_VSA11>  (19) 
0.0

>  <PEOE_VSA12>  (19) 
0.0

>  <PEOE_VSA13>  (19) 
0.0

>  <PEOE_VSA14>  (19) 
0.0

>  <PEOE_VSA2>  (19) 
0.0

>  <PEOE_VSA3>  (19) 
4.390415

>  <PEOE_VSA4>  (19) 
0.0

>  <PEOE_VSA5>  (19) 
0.0

>  <PEOE_VSA6>  (19) 
12.132734

>  <PEOE_VSA7>  (19) 
17.696186

>  <PEOE_VSA8>  (19) 
0.0

>  <PEOE_VSA9>  (19) 
0.0

>  <SMR_VSA1>  (19) 
15.23061

>  <SMR_VSA10>  (19) 
0.0

>  <SMR_VSA2>  (19) 
0.0

>  <SMR_VSA3>  (19) 
0.0

>  <SMR_VSA4>  (19) 
0.0

>  <SMR_VSA5>  (19) 
6.103966

>  <SMR_VSA6>  (19) 
6.544756

>  <SMR_VSA7>  (19) 
35.646141

>  <SMR_VSA8>  (19) 
0.0

>  <SMR_VSA9>  (19) 
0.0

>  <SlogP_VSA1>  (19) 
5.733667

>  <SlogP_VSA10>  (19) 
4.390415

>  <SlogP_VSA11>  (19) 
0.0

>  <SlogP_VSA12>  (19) 
0.0

>  <SlogP_VSA2>  (19) 
11.651284

>  <SlogP_VSA3>  (19) 
0.0

>  <SlogP_VSA4>  (19) 
5.817221

>  <SlogP_VSA5>  (19) 
11.667418

>  <SlogP_VSA6>  (19) 
24.265468

>  <SlogP_VSA7>  (19) 
0.0

>  <SlogP_VSA8>  (19) 
0.0

>  <SlogP_VSA9>  (19) 
0.0

>  <EState_VSA1>  (19) 
6.103966

>  <EState_VSA10>  (19) 
9.496942

>  <EState_VSA11>  (19) 
0.0

>  <EState_VSA2>  (19) 
5.817221

>  <EState_VSA3>  (19) 
12.108208

>  <EState_VSA4>  (19) 
0.0

>  <EState_VSA5>  (19) 
12.132734

>  <EState_VSA6>  (19) 
12.132734

>  <EState_VSA7>  (19) 
0.0

>  <EState_VSA8>  (19) 
5.733667

>  <EState_VSA9>  (19) 
0.0

>  <VSA_EState1>  (19) 
12.35678

>  <VSA_EState10>  (19) 
0.0

>  <VSA_EState2>  (19) 
0.0

>  <VSA_EState3>  (19) 
9.235202

>  <VSA_EState4>  (19) 
4.25029

>  <VSA_EState5>  (19) 
-0.287026

>  <VSA_EState6>  (19) 
5.776574

>  <VSA_EState7>  (19) 
-0.573519

>  <VSA_EState8>  (19) 
0.408365

>  <VSA_EState9>  (19) 
0.0

>  <FractionCSP3>  (19) 
0.25

>  <HeavyAtomCount>  (19) 
11

>  <NHOHCount>  (19) 
4

>  <NOCount>  (19) 
2

>  <NumAliphaticCarbocycles>  (19) 
0

>  <NumAliphaticHeterocycles>  (19) 
0

>  <NumAliphaticRings>  (19) 
0

>  <NumAromaticCarbocycles>  (19) 
1

>  <NumAromaticHeterocycles>  (19) 
0

>  <NumAromaticRings>  (19) 
1

>  <NumHAcceptors>  (19) 
1

>  <NumHDonors>  (19) 
2

>  <NumHeteroatoms>  (19) 
3

>  <NumRotatableBonds>  (19) 
2

>  <NumSaturatedCarbocycles>  (19) 
0

>  <NumSaturatedHeterocycles>  (19) 
0

>  <NumSaturatedRings>  (19) 
0

>  <RingCount>  (19) 
1

>  <MolLogP>  (19) 
0.101

>  <MolMR>  (19) 
39.1149

>  <fr_Al_COO>  (19) 
0

>  <fr_Al_OH>  (19) 
1

>  <fr_Al_OH_noTert>  (19) 
1

>  <fr_ArN>  (19) 
0

>  <fr_Ar_COO>  (19) 
0

>  <fr_Ar_N>  (19) 
0

>  <fr_Ar_NH>  (19) 
0

>  <fr_Ar_OH>  (19) 
0

>  <fr_COO>  (19) 
0

>  <fr_COO2>  (19) 
0

>  <fr_C_O>  (19) 
0

>  <fr_C_O_noCOO>  (19) 
0

>  <fr_C_S>  (19) 
0

>  <fr_HOCCN>  (19) 
0

>  <fr_Imine>  (19) 
0

>  <fr_NH0>  (19) 
0

>  <fr_NH1>  (19) 
0

>  <fr_NH2>  (19) 
0

>  <fr_N_O>  (19) 
0

>  <fr_Ndealkylation1>  (19) 
0

>  <fr_Ndealkylation2>  (19) 
0

>  <fr_Nhpyrrole>  (19) 
0

>  <fr_SH>  (19) 
0

>  <fr_aldehyde>  (19) 
0

>  <fr_alkyl_carbamate>  (19) 
0

>  <fr_alkyl_halide>  (19) 
0

>  <fr_allylic_oxid>  (19) 
0

>  <fr_amide>  (19) 
0

>  <fr_amidine>  (19) 
0

>  <fr_aniline>  (19) 
0

>  <fr_aryl_methyl>  (19) 
0

>  <fr_azide>  (19) 
0

>  <fr_azo>  (19) 
0

>  <fr_barbitur>  (19) 
0

>  <fr_benzene>  (19) 
1

>  <fr_benzodiazepine>  (19) 
0

>  <fr_bicyclic>  (19) 
0

>  <fr_diazo>  (19) 
0

>  <fr_dihydropyridine>  (19) 
0

>  <fr_epoxide>  (19) 
0

>  <fr_ester>  (19) 
0

>  <fr_ether>  (19) 
0

>  <fr_furan>  (19) 
0

>  <fr_guanido>  (19) 
0

>  <fr_halogen>  (19) 
1

>  <fr_hdrzine>  (19) 
0

>  <fr_hdrzone>  (19) 
0

>  <fr_imidazole>  (19) 
0

>  <fr_imide>  (19) 
0

>  <fr_isocyan>  (19) 
0

>  <fr_isothiocyan>  (19) 
0

>  <fr_ketone>  (19) 
0

>  <fr_ketone_Topliss>  (19) 
0

>  <fr_lactam>  (19) 
0

>  <fr_lactone>  (19) 
0

>  <fr_methoxy>  (19) 
0

>  <fr_morpholine>  (19) 
0

>  <fr_nitrile>  (19) 
0

>  <fr_nitro>  (19) 
0

>  <fr_nitro_arom>  (19) 
0

>  <fr_nitro_arom_nonortho>  (19) 
0

>  <fr_nitroso>  (19) 
0

>  <fr_oxazole>  (19) 
0

>  <fr_oxime>  (19) 
0

>  <fr_para_hydroxylation>  (19) 
0

>  <fr_phenol>  (19) 
0

>  <fr_phenol_noOrthoHbond>  (19) 
0

>  <fr_phos_acid>  (19) 
0

>  <fr_phos_ester>  (19) 
0

>  <fr_piperdine>  (19) 
0

>  <fr_piperzine>  (19) 
0

>  <fr_priamide>  (19) 
0

>  <fr_prisulfonamd>  (19) 
0

>  <fr_pyridine>  (19) 
0

>  <fr_quatN>  (19) 
1

>  <fr_sulfide>  (19) 
0

>  <fr_sulfonamd>  (19) 
0

>  <fr_sulfone>  (19) 
0

>  <fr_term_acetylene>  (19) 
0

>  <fr_tetrazole>  (19) 
0

>  <fr_thiazole>  (19) 
0

>  <fr_thiocyan>  (19) 
0

>  <fr_thiophene>  (19) 
0

>  <fr_unbrch_alkane>  (19) 
0

>  <fr_urea>  (19) 
0

>  <NP_Likeness>  (19) 
-0.743339

$$$$
495
     RDKit          3D

  0  0  0  0  0  0  0  0  0  0999 V3000
M  V30 BEGIN CTAB
M  V30 COUNTS 17 18 0 0 0
M  V30 BEGIN ATOM
M  V30 1 Cl 6.080000 10.013000 0.143000 0
M  V30 2 O 2.967000 9.958000 4.899000 0
M  V30 3 N 3.832000 9.946000 1.548000 0
M  V30 4 N 3.111000 9.924000 2.623000 0
M  V30 5 C 7.881000 10.104000 4.118000 0
M  V30 6 C 7.132000 10.096000 5.290000 0
M  V30 7 C 7.235000 10.072000 2.883000 0
M  V30 8 C 5.732000 10.050000 5.229000 0
M  V30 9 C 5.178000 9.992000 1.596000 0
M  V30 10 C 3.690000 9.969000 3.896000 0
M  V30 11 C 5.839000 10.026000 2.821000 0
M  V30 12 C 5.086000 10.013000 3.994000 0
M  V30 13 H 2.115600 9.873600 2.541600 0
M  V30 14 H 8.879700 10.132600 4.161100 0
M  V30 15 H 7.592600 10.123100 6.177200 0
M  V30 16 H 7.771600 10.082000 2.039200 0
M  V30 17 H 5.195700 10.043700 6.073000 0
M  V30 END ATOM
M  V30 BEGIN BOND
M  V30 1 1 1 9
M  V30 2 2 2 10
M  V30 3 1 3 4
M  V30 4 2 3 9
M  V30 5 1 4 10
M  V30 6 2 5 6
M  V30 7 1 5 7
M  V30 8 1 6 8
M  V30 9 2 7 11
M  V30 10 2 8 12
M  V30 11 1 9 11
M  V30 12 1 10 12
M  V30 13 1 11 12
M  V30 14 1 4 13
M  V30 15 1 5 14
M  V30 16 1 6 15
M  V30 17 1 7 16
M  V30 18 1 8 17
M  V30 END BOND
M  V30 END CTAB
M  END
>  <Ligand_Instance>  (20) 
5BX6_495_A_401

>  <Dataset>  (20) 
PDB

>  <PDB_ID>  (20) 
5BX6

>  <Chain>  (20) 
A

>  <Resi>  (20) 
401

>  <Num_Resolved_Atoms>  (20) 
12

>  <Num_H_Atoms_ProtBoundConf>  (20) 
5

>  <Pocket>  (20) 
A

>  <Name>  (20) 
4-chlorophthalazin-1(2H)-one

>  <Num_Not_Resolved_Atoms>  (20) 
0

>  <ATP_Site>  (20) 
True

>  <Peripheral>  (20) 
False

>  <Standardized_SMILES>  (20) 
[H]C1=C([H])C([H])=C2C(Cl)=NN([H])C(=O)C2=C1[H]

>  <2D_Mol_H>  (20) 
<rdkit.Chem.rdchem.Mol object at 0x77059d9db220>

>  <MW>  (20) 
180.594

>  <HBA>  (20) 
2

>  <HBD>  (20) 
1

>  <LogP>  (20) 
1.5765

>  <NRB>  (20) 
0

>  <TPSA>  (20) 
45.75

>  <Num_Heavy_Atoms>  (20) 
12

>  <Ro5>  (20) 
[True, True, True, True, True, True]

>  <Ro5_Fulfilled>  (20) 
True

>  <Ro3>  (20) 
[True, True, True, True]

>  <Ro3_Fulfilled>  (20) 
True

>  <Fsp3>  (20) 
0.0

>  <Fsp3_0.42>  (20) 
False

>  <Fsp3_0.45>  (20) 
False

>  <Stereogenic_Carbons>  (20) 
0

>  <C_Atoms>  (20) 
8

>  <FCStereo>  (20) 
0.0

>  <SPS>  (20) 
125

>  <nSPS>  (20) 
10.416667

>  <PBF>  (20) 
0.00503

>  <PBF_0.6>  (20) 
False

>  <nPBF>  (20) 
0.000419

>  <nPBF_0.016>  (20) 
False

>  <PMI1>  (20) 
440.069859

>  <PMI2>  (20) 
585.384903

>  <PMI3>  (20) 
1025.446625

>  <NPR1>  (20) 
0.429149

>  <NPR2>  (20) 
0.570858

>  <Sum_NPR>  (20) 
1.000008

>  <Sum_NPR_1.07>  (20) 
False

>  <Sum_NPR_1.2>  (20) 
False

>  <MaxAbsEStateIndex>  (20) 
11.154228

>  <MaxEStateIndex>  (20) 
11.154228

>  <MinAbsEStateIndex>  (20) 
0.212963

>  <MinEStateIndex>  (20) 
-0.212963

>  <qed>  (20) 
0.669193

>  <MolWt>  (20) 
180.594

>  <HeavyAtomMolWt>  (20) 
175.554

>  <ExactMolWt>  (20) 
180.00904

>  <NumValenceElectrons>  (20) 
60

>  <NumRadicalElectrons>  (20) 
0

>  <MaxPartialCharge>  (20) 
0.271634

>  <MinPartialCharge>  (20) 
-0.267336

>  <MaxAbsPartialCharge>  (20) 
0.271634

>  <MinAbsPartialCharge>  (20) 
0.267336

>  <FpDensityMorgan1>  (20) 
1.25

>  <FpDensityMorgan2>  (20) 
1.916667

>  <FpDensityMorgan3>  (20) 
2.583333

>  <BCUT2D_MWHI>  (20) 
35.495696

>  <BCUT2D_MWLOW>  (20) 
10.188594

>  <BCUT2D_CHGHI>  (20) 
2.007469

>  <BCUT2D_CHGLO>  (20) 
-1.95107

>  <BCUT2D_LOGPHI>  (20) 
2.152857

>  <BCUT2D_LOGPLOW>  (20) 
-2.072566

>  <BCUT2D_MRHI>  (20) 
6.335474

>  <BCUT2D_MRLOW>  (20) 
1.011346

>  <AvgIpc>  (20) 
2.122552

>  <BalabanJ>  (20) 
3.048407

>  <BertzCT>  (20) 
477.686709

>  <Chi0>  (20) 
8.552042

>  <Chi0n>  (20) 
6.042827

>  <Chi0v>  (20) 
6.798756

>  <Chi1>  (20) 
5.787694

>  <Chi1n>  (20) 
3.41767

>  <Chi1v>  (20) 
3.795635

>  <Chi2n>  (20) 
2.389125

>  <Chi2v>  (20) 
2.747138

>  <Chi3n>  (20) 
1.649549

>  <Chi3v>  (20) 
1.937664

>  <Chi4n>  (20) 
1.081314

>  <Chi4v>  (20) 
1.288366

>  <HallKierAlpha>  (20) 
-1.35

>  <Ipc>  (20) 
768.36393

>  <Kappa1>  (20) 
7.307223

>  <Kappa2>  (20) 
2.60454

>  <Kappa3>  (20) 
0.98674

>  <LabuteASA>  (20) 
72.985606

>  <PEOE_VSA1>  (20) 
0.0

>  <PEOE_VSA10>  (20) 
0.0

>  <PEOE_VSA11>  (20) 
5.15311

>  <PEOE_VSA12>  (20) 
0.0

>  <PEOE_VSA13>  (20) 
5.559267

>  <PEOE_VSA14>  (20) 
0.0

>  <PEOE_VSA2>  (20) 
4.794537

>  <PEOE_VSA3>  (20) 
5.098682

>  <PEOE_VSA4>  (20) 
5.098682

>  <PEOE_VSA5>  (20) 
0.0

>  <PEOE_VSA6>  (20) 
29.800041

>  <PEOE_VSA7>  (20) 
6.066367

>  <PEOE_VSA8>  (20) 
5.386224

>  <PEOE_VSA9>  (20) 
5.386224

>  <SMR_VSA1>  (20) 
0.0

>  <SMR_VSA10>  (20) 
22.373388

>  <SMR_VSA2>  (20) 
0.0

>  <SMR_VSA3>  (20) 
10.197364

>  <SMR_VSA4>  (20) 
0.0

>  <SMR_VSA5>  (20) 
0.0

>  <SMR_VSA6>  (20) 
0.0

>  <SMR_VSA7>  (20) 
39.772382

>  <SMR_VSA8>  (20) 
0.0

>  <SMR_VSA9>  (20) 
0.0

>  <SlogP_VSA1>  (20) 
5.559267

>  <SlogP_VSA10>  (20) 
0.0

>  <SlogP_VSA11>  (20) 
0.0

>  <SlogP_VSA12>  (20) 
11.60094

>  <SlogP_VSA2>  (20) 
10.197364

>  <SlogP_VSA3>  (20) 
0.0

>  <SlogP_VSA4>  (20) 
0.0

>  <SlogP_VSA5>  (20) 
0.0

>  <SlogP_VSA6>  (20) 
29.060005

>  <SlogP_VSA7>  (20) 
5.15311

>  <SlogP_VSA8>  (20) 
10.772448

>  <SlogP_VSA9>  (20) 
0.0

>  <EState_VSA1>  (20) 
0.0

>  <EState_VSA10>  (20) 
4.794537

>  <EState_VSA11>  (20) 
0.0

>  <EState_VSA2>  (20) 
5.559267

>  <EState_VSA3>  (20) 
15.925558

>  <EState_VSA4>  (20) 
0.0

>  <EState_VSA5>  (20) 
0.0

>  <EState_VSA6>  (20) 
18.199101

>  <EState_VSA7>  (20) 
6.066367

>  <EState_VSA8>  (20) 
10.197364

>  <EState_VSA9>  (20) 
11.60094

>  <VSA_EState1>  (20) 
0.0

>  <VSA_EState10>  (20) 
5.747762

>  <VSA_EState2>  (20) 
11.154228

>  <VSA_EState3>  (20) 
7.514475

>  <VSA_EState4>  (20) 
-0.212963

>  <VSA_EState5>  (20) 
0.0

>  <VSA_EState6>  (20) 
7.074275

>  <VSA_EState7>  (20) 
0.0

>  <VSA_EState8>  (20) 
0.0

>  <VSA_EState9>  (20) 
0.0

>  <FractionCSP3>  (20) 
0.0

>  <HeavyAtomCount>  (20) 
12

>  <NHOHCount>  (20) 
1

>  <NOCount>  (20) 
3

>  <NumAliphaticCarbocycles>  (20) 
0

>  <NumAliphaticHeterocycles>  (20) 
0

>  <NumAliphaticRings>  (20) 
0

>  <NumAromaticCarbocycles>  (20) 
1

>  <NumAromaticHeterocycles>  (20) 
1

>  <NumAromaticRings>  (20) 
2

>  <NumHAcceptors>  (20) 
2

>  <NumHDonors>  (20) 
1

>  <NumHeteroatoms>  (20) 
4

>  <NumRotatableBonds>  (20) 
0

>  <NumSaturatedCarbocycles>  (20) 
0

>  <NumSaturatedHeterocycles>  (20) 
0

>  <NumSaturatedRings>  (20) 
0

>  <RingCount>  (20) 
2

>  <MolLogP>  (20) 
1.5765

>  <MolMR>  (20) 
47.3737

>  <fr_Al_COO>  (20) 
0

>  <fr_Al_OH>  (20) 
0

>  <fr_Al_OH_noTert>  (20) 
0

>  <fr_ArN>  (20) 
0

>  <fr_Ar_COO>  (20) 
0

>  <fr_Ar_N>  (20) 
2

>  <fr_Ar_NH>  (20) 
1

>  <fr_Ar_OH>  (20) 
0

>  <fr_COO>  (20) 
0

>  <fr_COO2>  (20) 
0

>  <fr_C_O>  (20) 
0

>  <fr_C_O_noCOO>  (20) 
0

>  <fr_C_S>  (20) 
0

>  <fr_HOCCN>  (20) 
0

>  <fr_Imine>  (20) 
0

>  <fr_NH0>  (20) 
1

>  <fr_NH1>  (20) 
1

>  <fr_NH2>  (20) 
0

>  <fr_N_O>  (20) 
0

>  <fr_Ndealkylation1>  (20) 
0

>  <fr_Ndealkylation2>  (20) 
0

>  <fr_Nhpyrrole>  (20) 
1

>  <fr_SH>  (20) 
0

>  <fr_aldehyde>  (20) 
0

>  <fr_alkyl_carbamate>  (20) 
0

>  <fr_alkyl_halide>  (20) 
0

>  <fr_allylic_oxid>  (20) 
0

>  <fr_amide>  (20) 
0

>  <fr_amidine>  (20) 
0

>  <fr_aniline>  (20) 
0

>  <fr_aryl_methyl>  (20) 
0

>  <fr_azide>  (20) 
0

>  <fr_azo>  (20) 
0

>  <fr_barbitur>  (20) 
0

>  <fr_benzene>  (20) 
1

>  <fr_benzodiazepine>  (20) 
0

>  <fr_bicyclic>  (20) 
1

>  <fr_diazo>  (20) 
0

>  <fr_dihydropyridine>  (20) 
0

>  <fr_epoxide>  (20) 
0

>  <fr_ester>  (20) 
0

>  <fr_ether>  (20) 
0

>  <fr_furan>  (20) 
0

>  <fr_guanido>  (20) 
0

>  <fr_halogen>  (20) 
1

>  <fr_hdrzine>  (20) 
0

>  <fr_hdrzone>  (20) 
0

>  <fr_imidazole>  (20) 
0

>  <fr_imide>  (20) 
0

>  <fr_isocyan>  (20) 
0

>  <fr_isothiocyan>  (20) 
0

>  <fr_ketone>  (20) 
0

>  <fr_ketone_Topliss>  (20) 
0

>  <fr_lactam>  (20) 
0

>  <fr_lactone>  (20) 
0

>  <fr_methoxy>  (20) 
0

>  <fr_morpholine>  (20) 
0

>  <fr_nitrile>  (20) 
0

>  <fr_nitro>  (20) 
0

>  <fr_nitro_arom>  (20) 
0

>  <fr_nitro_arom_nonortho>  (20) 
0

>  <fr_nitroso>  (20) 
0

>  <fr_oxazole>  (20) 
0

>  <fr_oxime>  (20) 
0

>  <fr_para_hydroxylation>  (20) 
0

>  <fr_phenol>  (20) 
0

>  <fr_phenol_noOrthoHbond>  (20) 
0

>  <fr_phos_acid>  (20) 
0

>  <fr_phos_ester>  (20) 
0

>  <fr_piperdine>  (20) 
0

>  <fr_piperzine>  (20) 
0

>  <fr_priamide>  (20) 
0

>  <fr_prisulfonamd>  (20) 
0

>  <fr_pyridine>  (20) 
0

>  <fr_quatN>  (20) 
0

>  <fr_sulfide>  (20) 
0

>  <fr_sulfonamd>  (20) 
0

>  <fr_sulfone>  (20) 
0

>  <fr_term_acetylene>  (20) 
0

>  <fr_tetrazole>  (20) 
0

>  <fr_thiazole>  (20) 
0

>  <fr_thiocyan>  (20) 
0

>  <fr_thiophene>  (20) 
0

>  <fr_unbrch_alkane>  (20) 
0

>  <fr_urea>  (20) 
0

>  <NP_Likeness>  (20) 
-1.431004

$$$$
4L7
     RDKit          3D

  0  0  0  0  0  0  0  0  0  0999 V3000
M  V30 BEGIN CTAB
M  V30 COUNTS 39 42 0 0 0
M  V30 BEGIN ATOM
M  V30 1 Br -22.121000 14.358000 -0.752000 0
M  V30 2 S -23.676000 13.083000 1.638000 0
M  V30 3 O -32.922000 10.139000 4.657000 0
M  V30 4 O -25.392000 11.659000 3.640000 0
M  V30 5 N -25.051000 7.252000 3.122000 0 CHG=1
M  V30 6 N -32.798000 9.823000 2.412000 0
M  V30 7 N -30.769000 9.392000 1.276000 0
M  V30 8 C -32.073000 9.541000 1.302000 0
M  V30 9 C -24.495000 8.513000 2.666000 0
M  V30 10 C -26.359000 7.568000 3.716000 0
M  V30 11 C -23.197000 11.690000 -0.475000 0
M  V30 12 C -23.965000 10.859000 0.378000 0
M  V30 13 C -28.691000 9.858000 4.873000 0
M  V30 14 C -30.059000 10.059000 4.864000 0
M  V30 15 C -28.714000 9.389000 2.520000 0
M  V30 16 C -22.982000 12.905000 0.066000 0
M  V30 17 C -24.321000 11.467000 1.564000 0
M  V30 18 C -32.239000 9.997000 3.647000 0
M  V30 19 C -25.136000 10.965000 2.672000 0
M  V30 20 C -30.099000 9.571000 2.496000 0
M  V30 21 C -28.007000 9.503000 3.715000 0
M  V30 22 C -30.776000 9.889000 3.679000 0
M  V30 23 C -25.644000 9.538000 2.584000 0 CFG=2
M  V30 24 C -26.548000 9.097000 3.779000 0 CFG=2
M  V30 25 H -24.451400 6.836400 3.806000 0
M  V30 26 H -33.790400 9.907900 2.323000 0
M  V30 27 H -32.568000 9.438900 0.439100 0
M  V30 28 H -24.080600 8.394700 1.763600 0
M  V30 29 H -23.801400 8.831600 3.312100 0
M  V30 30 H -26.404000 7.189500 4.640500 0
M  V30 31 H -27.083700 7.166700 3.155900 0
M  V30 32 H -22.855400 11.408200 -1.371600 0
M  V30 33 H -24.223900 9.922200 0.142900 0
M  V30 34 H -28.184100 9.969900 5.727700 0
M  V30 35 H -30.532700 10.325200 5.703500 0
M  V30 36 H -28.226700 9.175400 1.673300 0
M  V30 37 H -26.141600 9.413400 1.725600 0
M  V30 38 H -26.151700 9.439400 4.630900 0
M  V30 39 H -25.163200 6.624300 2.351600 0
M  V30 END ATOM
M  V30 BEGIN BOND
M  V30 1 1 1 16
M  V30 2 1 2 16
M  V30 3 1 2 17
M  V30 4 2 3 18
M  V30 5 2 4 19
M  V30 6 1 5 9
M  V30 7 1 5 10
M  V30 8 1 6 8
M  V30 9 1 6 18
M  V30 10 2 7 8
M  V30 11 1 7 20
M  V30 12 1 9 23
M  V30 13 1 10 24
M  V30 14 1 11 12
M  V30 15 2 11 16
M  V30 16 2 12 17
M  V30 17 1 13 14
M  V30 18 2 13 21
M  V30 19 2 14 22
M  V30 20 2 15 20
M  V30 21 1 15 21
M  V30 22 1 17 19
M  V30 23 1 18 22
M  V30 24 1 19 23
M  V30 25 1 20 22
M  V30 26 1 21 24
M  V30 27 1 23 24
M  V30 28 1 5 25
M  V30 29 1 6 26
M  V30 30 1 8 27
M  V30 31 1 9 28
M  V30 32 1 9 29
M  V30 33 1 10 30
M  V30 34 1 10 31
M  V30 35 1 11 32
M  V30 36 1 12 33
M  V30 37 1 13 34
M  V30 38 1 14 35
M  V30 39 1 15 36
M  V30 40 1 23 37 CFG=3
M  V30 41 1 24 38 CFG=1
M  V30 42 1 5 39
M  V30 END BOND
M  V30 END CTAB
M  END
>  <Ligand_Instance>  (21) 
4UJA_4L7_A_1351

>  <Dataset>  (21) 
PDB

>  <PDB_ID>  (21) 
4UJA

>  <Chain>  (21) 
A

>  <Resi>  (21) 
1351

>  <Num_Resolved_Atoms>  (21) 
24

>  <Num_H_Atoms_ProtBoundConf>  (21) 
15

>  <Pocket>  (21) 
A

>  <Name>  (21) 
7-{(3S,4R)-4-[(5-bromothiophen-2-yl)carbonyl]pyrrolidin-3-yl}quinazolin-4(3H)-one

>  <Num_Not_Resolved_Atoms>  (21) 
0

>  <ATP_Site>  (21) 
True

>  <Peripheral>  (21) 
False

>  <Standardized_SMILES>  (21) 
[H]C1=NC2=C([H])C([C@@]3([H])C([H])([H])[N+]([H])([H])C([H])([H])[C@]3([H])C(=O)C3=C([H])C([H])=C(Br)S3)=C([H])C([H])=C2C(=O)N1[H]

>  <2D_Mol_H>  (21) 
<rdkit.Chem.rdchem.Mol object at 0x77059d9db300>

>  <MW>  (21) 
405.297

>  <HBA>  (21) 
4

>  <HBD>  (21) 
2

>  <LogP>  (21) 
1.9068

>  <NRB>  (21) 
3

>  <TPSA>  (21) 
79.43

>  <Num_Heavy_Atoms>  (21) 
24

>  <Ro5>  (21) 
[True, True, True, True, True, True]

>  <Ro5_Fulfilled>  (21) 
True

>  <Ro3>  (21) 
[False, False, True, True]

>  <Ro3_Fulfilled>  (21) 
False

>  <Fsp3>  (21) 
0.235294

>  <Fsp3_0.42>  (21) 
False

>  <Fsp3_0.45>  (21) 
False

>  <Stereogenic_Carbons>  (21) 
2

>  <C_Atoms>  (21) 
17

>  <FCStereo>  (21) 
0.117647

>  <SPS>  (21) 
493

>  <nSPS>  (21) 
20.541667

>  <PBF>  (21) 
1.069766

>  <PBF_0.6>  (21) 
True

>  <nPBF>  (21) 
0.044574

>  <nPBF_0.016>  (21) 
True

>  <PMI1>  (21) 
1527.601436

>  <PMI2>  (21) 
7566.326076

>  <PMI3>  (21) 
8292.586005

>  <NPR1>  (21) 
0.184213

>  <NPR2>  (21) 
0.912421

>  <Sum_NPR>  (21) 
1.096633

>  <Sum_NPR_1.07>  (21) 
True

>  <Sum_NPR_1.2>  (21) 
False

>  <MaxAbsEStateIndex>  (21) 
12.860679

>  <MaxEStateIndex>  (21) 
12.860679

>  <MinAbsEStateIndex>  (21) 
0.046299

>  <MinEStateIndex>  (21) 
-0.138336

>  <qed>  (21) 
0.653805

>  <MolWt>  (21) 
405.297

>  <HeavyAtomMolWt>  (21) 
390.177

>  <ExactMolWt>  (21) 
404.006286

>  <NumValenceElectrons>  (21) 
122

>  <NumRadicalElectrons>  (21) 
0

>  <MaxPartialCharge>  (21) 
0.258052

>  <MinPartialCharge>  (21) 
-0.345088

>  <MaxAbsPartialCharge>  (21) 
0.345088

>  <MinAbsPartialCharge>  (21) 
0.258052

>  <FpDensityMorgan1>  (21) 
1.291667

>  <FpDensityMorgan2>  (21) 
2.166667

>  <FpDensityMorgan3>  (21) 
2.958333

>  <BCUT2D_MWHI>  (21) 
79.918732

>  <BCUT2D_MWLOW>  (21) 
9.850575

>  <BCUT2D_CHGHI>  (21) 
2.378505

>  <BCUT2D_CHGLO>  (21) 
-2.146417

>  <BCUT2D_LOGPHI>  (21) 
2.3198

>  <BCUT2D_LOGPLOW>  (21) 
-2.813041

>  <BCUT2D_MRHI>  (21) 
9.108492

>  <BCUT2D_MRLOW>  (21) 
-0.637599

>  <AvgIpc>  (21) 
3.229225

>  <BalabanJ>  (21) 
1.696821

>  <BertzCT>  (21) 
981.12615

>  <Chi0>  (21) 
16.681434

>  <Chi0n>  (21) 
12.660289

>  <Chi0v>  (21) 
15.062782

>  <Chi1>  (21) 
11.63103

>  <Chi1n>  (21) 
7.718354

>  <Chi1v>  (21) 
9.327849

>  <Chi2n>  (21) 
5.949322

>  <Chi2v>  (21) 
8.412336

>  <Chi3n>  (21) 
4.573572

>  <Chi3v>  (21) 
6.211781

>  <Chi4n>  (21) 
3.387793

>  <Chi4v>  (21) 
4.77735

>  <HallKierAlpha>  (21) 
-1.83

>  <Ipc>  (21) 
588845.892381

>  <Kappa1>  (21) 
15.683427

>  <Kappa2>  (21) 
6.233723

>  <Kappa3>  (21) 
2.723381

>  <LabuteASA>  (21) 
149.809154

>  <PEOE_VSA1>  (21) 
10.300767

>  <PEOE_VSA10>  (21) 
0.0

>  <PEOE_VSA11>  (21) 
5.783245

>  <PEOE_VSA12>  (21) 
0.0

>  <PEOE_VSA13>  (21) 
5.559267

>  <PEOE_VSA14>  (21) 
0.0

>  <PEOE_VSA2>  (21) 
9.589074

>  <PEOE_VSA3>  (21) 
4.983979

>  <PEOE_VSA4>  (21) 
0.0

>  <PEOE_VSA5>  (21) 
11.336786

>  <PEOE_VSA6>  (21) 
6.066367

>  <PEOE_VSA7>  (21) 
45.758864

>  <PEOE_VSA8>  (21) 
5.917906

>  <PEOE_VSA9>  (21) 
44.901226

>  <SMR_VSA1>  (21) 
10.111326

>  <SMR_VSA10>  (21) 
43.9529

>  <SMR_VSA2>  (21) 
0.0

>  <SMR_VSA3>  (21) 
9.967957

>  <SMR_VSA4>  (21) 
5.917906

>  <SMR_VSA5>  (21) 
5.917906

>  <SMR_VSA6>  (21) 
13.089513

>  <SMR_VSA7>  (21) 
61.239973

>  <SMR_VSA8>  (21) 
0.0

>  <SMR_VSA9>  (21) 
0.0

>  <SlogP_VSA1>  (21) 
10.876055

>  <SlogP_VSA10>  (21) 
0.0

>  <SlogP_VSA11>  (21) 
0.0

>  <SlogP_VSA12>  (21) 
27.26673

>  <SlogP_VSA2>  (21) 
28.840715

>  <SlogP_VSA3>  (21) 
0.0

>  <SlogP_VSA4>  (21) 
5.917906

>  <SlogP_VSA5>  (21) 
21.153042

>  <SlogP_VSA6>  (21) 
45.240108

>  <SlogP_VSA7>  (21) 
0.0

>  <SlogP_VSA8>  (21) 
10.902925

>  <SlogP_VSA9>  (21) 
0.0

>  <EState_VSA1>  (21) 
0.0

>  <EState_VSA10>  (21) 
9.589074

>  <EState_VSA11>  (21) 
0.0

>  <EState_VSA2>  (21) 
23.178324

>  <EState_VSA3>  (21) 
10.902925

>  <EState_VSA4>  (21) 
27.316527

>  <EState_VSA5>  (21) 
17.664106

>  <EState_VSA6>  (21) 
6.066367

>  <EState_VSA7>  (21) 
24.265468

>  <EState_VSA8>  (21) 
31.21469

>  <EState_VSA9>  (21) 
0.0

>  <VSA_EState1>  (21) 
0.97084

>  <VSA_EState10>  (21) 
4.900497

>  <VSA_EState2>  (21) 
32.301695

>  <VSA_EState3>  (21) 
2.762943

>  <VSA_EState4>  (21) 
1.608459

>  <VSA_EState5>  (21) 
0.293773

>  <VSA_EState6>  (21) 
9.496578

>  <VSA_EState7>  (21) 
1.41769

>  <VSA_EState8>  (21) 
1.664193

>  <VSA_EState9>  (21) 
0.0

>  <FractionCSP3>  (21) 
0.235294

>  <HeavyAtomCount>  (21) 
24

>  <NHOHCount>  (21) 
3

>  <NOCount>  (21) 
5

>  <NumAliphaticCarbocycles>  (21) 
0

>  <NumAliphaticHeterocycles>  (21) 
1

>  <NumAliphaticRings>  (21) 
1

>  <NumAromaticCarbocycles>  (21) 
1

>  <NumAromaticHeterocycles>  (21) 
2

>  <NumAromaticRings>  (21) 
3

>  <NumHAcceptors>  (21) 
4

>  <NumHDonors>  (21) 
2

>  <NumHeteroatoms>  (21) 
7

>  <NumRotatableBonds>  (21) 
3

>  <NumSaturatedCarbocycles>  (21) 
0

>  <NumSaturatedHeterocycles>  (21) 
1

>  <NumSaturatedRings>  (21) 
1

>  <RingCount>  (21) 
4

>  <MolLogP>  (21) 
1.9068

>  <MolMR>  (21) 
96.6036

>  <fr_Al_COO>  (21) 
0

>  <fr_Al_OH>  (21) 
0

>  <fr_Al_OH_noTert>  (21) 
0

>  <fr_ArN>  (21) 
0

>  <fr_Ar_COO>  (21) 
0

>  <fr_Ar_N>  (21) 
2

>  <fr_Ar_NH>  (21) 
1

>  <fr_Ar_OH>  (21) 
0

>  <fr_COO>  (21) 
0

>  <fr_COO2>  (21) 
0

>  <fr_C_O>  (21) 
1

>  <fr_C_O_noCOO>  (21) 
1

>  <fr_C_S>  (21) 
0

>  <fr_HOCCN>  (21) 
0

>  <fr_Imine>  (21) 
0

>  <fr_NH0>  (21) 
1

>  <fr_NH1>  (21) 
1

>  <fr_NH2>  (21) 
1

>  <fr_N_O>  (21) 
0

>  <fr_Ndealkylation1>  (21) 
0

>  <fr_Ndealkylation2>  (21) 
0

>  <fr_Nhpyrrole>  (21) 
1

>  <fr_SH>  (21) 
0

>  <fr_aldehyde>  (21) 
0

>  <fr_alkyl_carbamate>  (21) 
0

>  <fr_alkyl_halide>  (21) 
0

>  <fr_allylic_oxid>  (21) 
0

>  <fr_amide>  (21) 
0

>  <fr_amidine>  (21) 
0

>  <fr_aniline>  (21) 
0

>  <fr_aryl_methyl>  (21) 
0

>  <fr_azide>  (21) 
0

>  <fr_azo>  (21) 
0

>  <fr_barbitur>  (21) 
0

>  <fr_benzene>  (21) 
1

>  <fr_benzodiazepine>  (21) 
0

>  <fr_bicyclic>  (21) 
1

>  <fr_diazo>  (21) 
0

>  <fr_dihydropyridine>  (21) 
0

>  <fr_epoxide>  (21) 
0

>  <fr_ester>  (21) 
0

>  <fr_ether>  (21) 
0

>  <fr_furan>  (21) 
0

>  <fr_guanido>  (21) 
0

>  <fr_halogen>  (21) 
1

>  <fr_hdrzine>  (21) 
0

>  <fr_hdrzone>  (21) 
0

>  <fr_imidazole>  (21) 
0

>  <fr_imide>  (21) 
0

>  <fr_isocyan>  (21) 
0

>  <fr_isothiocyan>  (21) 
0

>  <fr_ketone>  (21) 
1

>  <fr_ketone_Topliss>  (21) 
1

>  <fr_lactam>  (21) 
0

>  <fr_lactone>  (21) 
0

>  <fr_methoxy>  (21) 
0

>  <fr_morpholine>  (21) 
0

>  <fr_nitrile>  (21) 
0

>  <fr_nitro>  (21) 
0

>  <fr_nitro_arom>  (21) 
0

>  <fr_nitro_arom_nonortho>  (21) 
0

>  <fr_nitroso>  (21) 
0

>  <fr_oxazole>  (21) 
0

>  <fr_oxime>  (21) 
0

>  <fr_para_hydroxylation>  (21) 
0

>  <fr_phenol>  (21) 
0

>  <fr_phenol_noOrthoHbond>  (21) 
0

>  <fr_phos_acid>  (21) 
0

>  <fr_phos_ester>  (21) 
0

>  <fr_piperdine>  (21) 
0

>  <fr_piperzine>  (21) 
0

>  <fr_priamide>  (21) 
0

>  <fr_prisulfonamd>  (21) 
0

>  <fr_pyridine>  (21) 
0

>  <fr_quatN>  (21) 
1

>  <fr_sulfide>  (21) 
0

>  <fr_sulfonamd>  (21) 
0

>  <fr_sulfone>  (21) 
0

>  <fr_term_acetylene>  (21) 
0

>  <fr_tetrazole>  (21) 
0

>  <fr_thiazole>  (21) 
0

>  <fr_thiocyan>  (21) 
0

>  <fr_thiophene>  (21) 
1

>  <fr_unbrch_alkane>  (21) 
0

>  <fr_urea>  (21) 
0

>  <NP_Likeness>  (21) 
-0.501467

$$$$
4L7
     RDKit          3D

  0  0  0  0  0  0  0  0  0  0999 V3000
M  V30 BEGIN CTAB
M  V30 COUNTS 39 42 0 0 0
M  V30 BEGIN ATOM
M  V30 1 Br -17.660000 -14.430000 3.081000 0
M  V30 2 S -15.877000 -13.415000 5.441000 0
M  V30 3 O -6.264000 -11.062000 8.561000 0
M  V30 4 O -13.975000 -12.168000 7.432000 0
M  V30 5 N -13.933000 -7.784000 6.871000 0 CHG=1
M  V30 6 N -6.299000 -10.778000 6.288000 0
M  V30 7 N -8.320000 -10.381000 5.086000 0
M  V30 8 C -6.999000 -10.567000 5.148000 0
M  V30 9 C -14.541000 -8.999000 6.304000 0
M  V30 10 C -12.591000 -8.141000 7.284000 0
M  V30 11 C -16.008000 -12.071000 3.250000 0
M  V30 12 C -15.113000 -11.374000 4.082000 0
M  V30 13 C -10.510000 -10.597000 8.637000 0
M  V30 14 C -9.142000 -10.800000 8.684000 0
M  V30 15 C -10.398000 -10.214000 6.272000 0
M  V30 16 C -16.486000 -13.181000 3.838000 0
M  V30 17 C -14.926000 -11.954000 5.304000 0
M  V30 18 C -6.916000 -10.861000 7.538000 0
M  V30 19 C -14.123000 -11.486000 6.435000 0
M  V30 20 C -9.017000 -10.431000 6.301000 0
M  V30 21 C -11.143000 -10.242000 7.451000 0
M  V30 22 C -8.381000 -10.691000 7.523000 0
M  V30 23 C -13.478000 -10.114000 6.305000 0 CFG=2
M  V30 24 C -12.551000 -9.683000 7.480000 0 CFG=2
M  V30 25 H -14.463100 -7.469000 7.658200 0
M  V30 26 H -5.305500 -10.877900 6.232700 0
M  V30 27 H -6.488500 -10.549100 4.288300 0
M  V30 28 H -14.843900 -8.820800 5.367800 0
M  V30 29 H -15.324000 -9.277100 6.860400 0
M  V30 30 H -12.365900 -7.682500 8.143700 0
M  V30 31 H -11.934600 -7.870100 6.579900 0
M  V30 32 H -16.259300 -11.775000 2.328400 0
M  V30 33 H -14.655000 -10.529800 3.803600 0
M  V30 34 H -11.052400 -10.707500 9.469900 0
M  V30 35 H -8.699700 -11.025100 9.552200 0
M  V30 36 H -10.854700 -10.037500 5.400100 0
M  V30 37 H -12.961700 -10.074800 5.449500 0
M  V30 38 H -12.984700 -9.919100 8.349600 0
M  V30 39 H -13.899900 -7.061300 6.180700 0
M  V30 END ATOM
M  V30 BEGIN BOND
M  V30 1 1 1 16
M  V30 2 1 2 16
M  V30 3 1 2 17
M  V30 4 2 3 18
M  V30 5 2 4 19
M  V30 6 1 5 9
M  V30 7 1 5 10
M  V30 8 1 6 8
M  V30 9 1 6 18
M  V30 10 2 7 8
M  V30 11 1 7 20
M  V30 12 1 9 23
M  V30 13 1 10 24
M  V30 14 1 11 12
M  V30 15 2 11 16
M  V30 16 2 12 17
M  V30 17 1 13 14
M  V30 18 2 13 21
M  V30 19 2 14 22
M  V30 20 2 15 20
M  V30 21 1 15 21
M  V30 22 1 17 19
M  V30 23 1 18 22
M  V30 24 1 19 23
M  V30 25 1 20 22
M  V30 26 1 21 24
M  V30 27 1 23 24
M  V30 28 1 5 25
M  V30 29 1 6 26
M  V30 30 1 8 27
M  V30 31 1 9 28
M  V30 32 1 9 29
M  V30 33 1 10 30
M  V30 34 1 10 31
M  V30 35 1 11 32
M  V30 36 1 12 33
M  V30 37 1 13 34
M  V30 38 1 14 35
M  V30 39 1 15 36
M  V30 40 1 23 37 CFG=3
M  V30 41 1 24 38 CFG=1
M  V30 42 1 5 39
M  V30 END BOND
M  V30 END CTAB
M  END
>  <Ligand_Instance>  (22) 
4Z83_4L7_E_401

>  <Dataset>  (22) 
PDB

>  <PDB_ID>  (22) 
4Z83

>  <Chain>  (22) 
E

>  <Resi>  (22) 
401

>  <Num_Resolved_Atoms>  (22) 
24

>  <Num_H_Atoms_ProtBoundConf>  (22) 
15

>  <Pocket>  (22) 
A

>  <Name>  (22) 
7-{(3S,4R)-4-[(5-bromothiophen-2-yl)carbonyl]pyrrolidin-3-yl}quinazolin-4(3H)-one

>  <Num_Not_Resolved_Atoms>  (22) 
0

>  <ATP_Site>  (22) 
True

>  <Peripheral>  (22) 
True

>  <Standardized_SMILES>  (22) 
[H]C1=NC2=C([H])C([C@@]3([H])C([H])([H])[N+]([H])([H])C([H])([H])[C@]3([H])C(=O)C3=C([H])C([H])=C(Br)S3)=C([H])C([H])=C2C(=O)N1[H]

>  <2D_Mol_H>  (22) 
<rdkit.Chem.rdchem.Mol object at 0x77059d9db3e0>

>  <MW>  (22) 
405.297

>  <HBA>  (22) 
4

>  <HBD>  (22) 
2

>  <LogP>  (22) 
1.9068

>  <NRB>  (22) 
3

>  <TPSA>  (22) 
79.43

>  <Num_Heavy_Atoms>  (22) 
24

>  <Ro5>  (22) 
[True, True, True, True, True, True]

>  <Ro5_Fulfilled>  (22) 
True

>  <Ro3>  (22) 
[False, False, True, True]

>  <Ro3_Fulfilled>  (22) 
False

>  <Fsp3>  (22) 
0.235294

>  <Fsp3_0.42>  (22) 
False

>  <Fsp3_0.45>  (22) 
False

>  <Stereogenic_Carbons>  (22) 
2

>  <C_Atoms>  (22) 
17

>  <FCStereo>  (22) 
0.117647

>  <SPS>  (22) 
493

>  <nSPS>  (22) 
20.541667

>  <PBF>  (22) 
1.067319

>  <PBF_0.6>  (22) 
True

>  <nPBF>  (22) 
0.044472

>  <nPBF_0.016>  (22) 
True

>  <PMI1>  (22) 
1416.910072

>  <PMI2>  (22) 
7850.972353

>  <PMI3>  (22) 
8464.949774

>  <NPR1>  (22) 
0.167386

>  <NPR2>  (22) 
0.927468

>  <Sum_NPR>  (22) 
1.094854

>  <Sum_NPR_1.07>  (22) 
True

>  <Sum_NPR_1.2>  (22) 
False

>  <MaxAbsEStateIndex>  (22) 
12.860679

>  <MaxEStateIndex>  (22) 
12.860679

>  <MinAbsEStateIndex>  (22) 
0.046299

>  <MinEStateIndex>  (22) 
-0.138336

>  <qed>  (22) 
0.653805

>  <MolWt>  (22) 
405.297

>  <HeavyAtomMolWt>  (22) 
390.177

>  <ExactMolWt>  (22) 
404.006286

>  <NumValenceElectrons>  (22) 
122

>  <NumRadicalElectrons>  (22) 
0

>  <MaxPartialCharge>  (22) 
0.258052

>  <MinPartialCharge>  (22) 
-0.345088

>  <MaxAbsPartialCharge>  (22) 
0.345088

>  <MinAbsPartialCharge>  (22) 
0.258052

>  <FpDensityMorgan1>  (22) 
1.291667

>  <FpDensityMorgan2>  (22) 
2.166667

>  <FpDensityMorgan3>  (22) 
2.958333

>  <BCUT2D_MWHI>  (22) 
79.918732

>  <BCUT2D_MWLOW>  (22) 
9.850575

>  <BCUT2D_CHGHI>  (22) 
2.378505

>  <BCUT2D_CHGLO>  (22) 
-2.146417

>  <BCUT2D_LOGPHI>  (22) 
2.3198

>  <BCUT2D_LOGPLOW>  (22) 
-2.813041

>  <BCUT2D_MRHI>  (22) 
9.108492

>  <BCUT2D_MRLOW>  (22) 
-0.637599

>  <AvgIpc>  (22) 
3.229225

>  <BalabanJ>  (22) 
1.696821

>  <BertzCT>  (22) 
981.12615

>  <Chi0>  (22) 
16.681434

>  <Chi0n>  (22) 
12.660289

>  <Chi0v>  (22) 
15.062782

>  <Chi1>  (22) 
11.63103

>  <Chi1n>  (22) 
7.718354

>  <Chi1v>  (22) 
9.327849

>  <Chi2n>  (22) 
5.949322

>  <Chi2v>  (22) 
8.412336

>  <Chi3n>  (22) 
4.573572

>  <Chi3v>  (22) 
6.211781

>  <Chi4n>  (22) 
3.387793

>  <Chi4v>  (22) 
4.77735

>  <HallKierAlpha>  (22) 
-1.83

>  <Ipc>  (22) 
588845.892381

>  <Kappa1>  (22) 
15.683427

>  <Kappa2>  (22) 
6.233723

>  <Kappa3>  (22) 
2.723381

>  <LabuteASA>  (22) 
149.809154

>  <PEOE_VSA1>  (22) 
10.300767

>  <PEOE_VSA10>  (22) 
0.0

>  <PEOE_VSA11>  (22) 
5.783245

>  <PEOE_VSA12>  (22) 
0.0

>  <PEOE_VSA13>  (22) 
5.559267

>  <PEOE_VSA14>  (22) 
0.0

>  <PEOE_VSA2>  (22) 
9.589074

>  <PEOE_VSA3>  (22) 
4.983979

>  <PEOE_VSA4>  (22) 
0.0

>  <PEOE_VSA5>  (22) 
11.336786

>  <PEOE_VSA6>  (22) 
6.066367

>  <PEOE_VSA7>  (22) 
45.758864

>  <PEOE_VSA8>  (22) 
5.917906

>  <PEOE_VSA9>  (22) 
44.901226

>  <SMR_VSA1>  (22) 
10.111326

>  <SMR_VSA10>  (22) 
43.9529

>  <SMR_VSA2>  (22) 
0.0

>  <SMR_VSA3>  (22) 
9.967957

>  <SMR_VSA4>  (22) 
5.917906

>  <SMR_VSA5>  (22) 
5.917906

>  <SMR_VSA6>  (22) 
13.089513

>  <SMR_VSA7>  (22) 
61.239973

>  <SMR_VSA8>  (22) 
0.0

>  <SMR_VSA9>  (22) 
0.0

>  <SlogP_VSA1>  (22) 
10.876055

>  <SlogP_VSA10>  (22) 
0.0

>  <SlogP_VSA11>  (22) 
0.0

>  <SlogP_VSA12>  (22) 
27.26673

>  <SlogP_VSA2>  (22) 
28.840715

>  <SlogP_VSA3>  (22) 
0.0

>  <SlogP_VSA4>  (22) 
5.917906

>  <SlogP_VSA5>  (22) 
21.153042

>  <SlogP_VSA6>  (22) 
45.240108

>  <SlogP_VSA7>  (22) 
0.0

>  <SlogP_VSA8>  (22) 
10.902925

>  <SlogP_VSA9>  (22) 
0.0

>  <EState_VSA1>  (22) 
0.0

>  <EState_VSA10>  (22) 
9.589074

>  <EState_VSA11>  (22) 
0.0

>  <EState_VSA2>  (22) 
23.178324

>  <EState_VSA3>  (22) 
10.902925

>  <EState_VSA4>  (22) 
27.316527

>  <EState_VSA5>  (22) 
17.664106

>  <EState_VSA6>  (22) 
6.066367

>  <EState_VSA7>  (22) 
24.265468

>  <EState_VSA8>  (22) 
31.21469

>  <EState_VSA9>  (22) 
0.0

>  <VSA_EState1>  (22) 
0.97084

>  <VSA_EState10>  (22) 
4.900497

>  <VSA_EState2>  (22) 
32.301695

>  <VSA_EState3>  (22) 
2.762943

>  <VSA_EState4>  (22) 
1.608459

>  <VSA_EState5>  (22) 
0.293773

>  <VSA_EState6>  (22) 
9.496578

>  <VSA_EState7>  (22) 
1.41769

>  <VSA_EState8>  (22) 
1.664193

>  <VSA_EState9>  (22) 
0.0

>  <FractionCSP3>  (22) 
0.235294

>  <HeavyAtomCount>  (22) 
24

>  <NHOHCount>  (22) 
3

>  <NOCount>  (22) 
5

>  <NumAliphaticCarbocycles>  (22) 
0

>  <NumAliphaticHeterocycles>  (22) 
1

>  <NumAliphaticRings>  (22) 
1

>  <NumAromaticCarbocycles>  (22) 
1

>  <NumAromaticHeterocycles>  (22) 
2

>  <NumAromaticRings>  (22) 
3

>  <NumHAcceptors>  (22) 
4

>  <NumHDonors>  (22) 
2

>  <NumHeteroatoms>  (22) 
7

>  <NumRotatableBonds>  (22) 
3

>  <NumSaturatedCarbocycles>  (22) 
0

>  <NumSaturatedHeterocycles>  (22) 
1

>  <NumSaturatedRings>  (22) 
1

>  <RingCount>  (22) 
4

>  <MolLogP>  (22) 
1.9068

>  <MolMR>  (22) 
96.6036

>  <fr_Al_COO>  (22) 
0

>  <fr_Al_OH>  (22) 
0

>  <fr_Al_OH_noTert>  (22) 
0

>  <fr_ArN>  (22) 
0

>  <fr_Ar_COO>  (22) 
0

>  <fr_Ar_N>  (22) 
2

>  <fr_Ar_NH>  (22) 
1

>  <fr_Ar_OH>  (22) 
0

>  <fr_COO>  (22) 
0

>  <fr_COO2>  (22) 
0

>  <fr_C_O>  (22) 
1

>  <fr_C_O_noCOO>  (22) 
1

>  <fr_C_S>  (22) 
0

>  <fr_HOCCN>  (22) 
0

>  <fr_Imine>  (22) 
0

>  <fr_NH0>  (22) 
1

>  <fr_NH1>  (22) 
1

>  <fr_NH2>  (22) 
1

>  <fr_N_O>  (22) 
0

>  <fr_Ndealkylation1>  (22) 
0

>  <fr_Ndealkylation2>  (22) 
0

>  <fr_Nhpyrrole>  (22) 
1

>  <fr_SH>  (22) 
0

>  <fr_aldehyde>  (22) 
0

>  <fr_alkyl_carbamate>  (22) 
0

>  <fr_alkyl_halide>  (22) 
0

>  <fr_allylic_oxid>  (22) 
0

>  <fr_amide>  (22) 
0

>  <fr_amidine>  (22) 
0

>  <fr_aniline>  (22) 
0

>  <fr_aryl_methyl>  (22) 
0

>  <fr_azide>  (22) 
0

>  <fr_azo>  (22) 
0

>  <fr_barbitur>  (22) 
0

>  <fr_benzene>  (22) 
1

>  <fr_benzodiazepine>  (22) 
0

>  <fr_bicyclic>  (22) 
1

>  <fr_diazo>  (22) 
0

>  <fr_dihydropyridine>  (22) 
0

>  <fr_epoxide>  (22) 
0

>  <fr_ester>  (22) 
0

>  <fr_ether>  (22) 
0

>  <fr_furan>  (22) 
0

>  <fr_guanido>  (22) 
0

>  <fr_halogen>  (22) 
1

>  <fr_hdrzine>  (22) 
0

>  <fr_hdrzone>  (22) 
0

>  <fr_imidazole>  (22) 
0

>  <fr_imide>  (22) 
0

>  <fr_isocyan>  (22) 
0

>  <fr_isothiocyan>  (22) 
0

>  <fr_ketone>  (22) 
1

>  <fr_ketone_Topliss>  (22) 
1

>  <fr_lactam>  (22) 
0

>  <fr_lactone>  (22) 
0

>  <fr_methoxy>  (22) 
0

>  <fr_morpholine>  (22) 
0

>  <fr_nitrile>  (22) 
0

>  <fr_nitro>  (22) 
0

>  <fr_nitro_arom>  (22) 
0

>  <fr_nitro_arom_nonortho>  (22) 
0

>  <fr_nitroso>  (22) 
0

>  <fr_oxazole>  (22) 
0

>  <fr_oxime>  (22) 
0

>  <fr_para_hydroxylation>  (22) 
0

>  <fr_phenol>  (22) 
0

>  <fr_phenol_noOrthoHbond>  (22) 
0

>  <fr_phos_acid>  (22) 
0

>  <fr_phos_ester>  (22) 
0

>  <fr_piperdine>  (22) 
0

>  <fr_piperzine>  (22) 
0

>  <fr_priamide>  (22) 
0

>  <fr_prisulfonamd>  (22) 
0

>  <fr_pyridine>  (22) 
0

>  <fr_quatN>  (22) 
1

>  <fr_sulfide>  (22) 
0

>  <fr_sulfonamd>  (22) 
0

>  <fr_sulfone>  (22) 
0

>  <fr_term_acetylene>  (22) 
0

>  <fr_tetrazole>  (22) 
0

>  <fr_thiazole>  (22) 
0

>  <fr_thiocyan>  (22) 
0

>  <fr_thiophene>  (22) 
1

>  <fr_unbrch_alkane>  (22) 
0

>  <fr_urea>  (22) 
0

>  <NP_Likeness>  (22) 
-0.501467

$$$$
4NB
     RDKit          3D

  0  0  0  0  0  0  0  0  0  0999 V3000
M  V30 BEGIN CTAB
M  V30 COUNTS 16 16 0 0 0
M  V30 BEGIN ATOM
M  V30 1 O -11.071000 1.603000 -29.422000 0
M  V30 2 O -9.493000 2.652000 -28.375000 0 CHG=-1
M  V30 3 O -12.974000 8.542000 -29.026000 0
M  V30 4 O -14.592000 7.523000 -30.163000 0 CHG=-1
M  V30 5 N -10.580000 2.627000 -28.965000 0 CHG=1
M  V30 6 C -12.614000 3.849000 -29.638000 0
M  V30 7 C -10.685000 5.079000 -28.858000 0
M  V30 8 C -13.308000 5.034000 -29.786000 0
M  V30 9 C -11.392000 6.256000 -29.017000 0
M  V30 10 C -13.477000 7.542000 -29.578000 0
M  V30 11 C -11.308000 3.894000 -29.173000 0
M  V30 12 C -12.707000 6.250000 -29.480000 0
M  V30 13 H -13.045100 2.974900 -29.861900 0
M  V30 14 H -9.743200 5.088800 -28.522000 0
M  V30 15 H -14.251700 5.017300 -30.116400 0
M  V30 16 H -10.952700 7.126800 -28.796100 0
M  V30 END ATOM
M  V30 BEGIN BOND
M  V30 1 2 1 5
M  V30 2 1 2 5
M  V30 3 2 3 10
M  V30 4 1 4 10
M  V30 5 1 5 11
M  V30 6 2 6 8
M  V30 7 1 6 11
M  V30 8 1 7 9
M  V30 9 2 7 11
M  V30 10 1 8 12
M  V30 11 2 9 12
M  V30 12 1 10 12
M  V30 13 1 9 16
M  V30 14 1 6 13
M  V30 15 1 7 14
M  V30 16 1 8 15
M  V30 END BOND
M  V30 END CTAB
M  END
>  <Ligand_Instance>  (23) 
5N3J_4NB_A_402

>  <Dataset>  (23) 
PDB

>  <PDB_ID>  (23) 
5N3J

>  <Chain>  (23) 
A

>  <Resi>  (23) 
402

>  <Num_Resolved_Atoms>  (23) 
12

>  <Num_H_Atoms_ProtBoundConf>  (23) 
4

>  <Pocket>  (23) 
A

>  <Name>  (23) 
4-NITROBENZOIC ACID

>  <Num_Not_Resolved_Atoms>  (23) 
0

>  <ATP_Site>  (23) 
True

>  <Peripheral>  (23) 
False

>  <Standardized_SMILES>  (23) 
[H]C1=C([H])C([N+](=O)[O-])=C([H])C([H])=C1C(=O)[O-]

>  <2D_Mol_H>  (23) 
<rdkit.Chem.rdchem.Mol object at 0x77059d9db4c0>

>  <MW>  (23) 
166.112

>  <HBA>  (23) 
4

>  <HBD>  (23) 
0

>  <LogP>  (23) 
-0.0417

>  <NRB>  (23) 
2

>  <TPSA>  (23) 
83.27

>  <Num_Heavy_Atoms>  (23) 
12

>  <Ro5>  (23) 
[True, True, True, True, True, True]

>  <Ro5_Fulfilled>  (23) 
True

>  <Ro3>  (23) 
[True, False, True, True]

>  <Ro3_Fulfilled>  (23) 
True

>  <Fsp3>  (23) 
0.0

>  <Fsp3_0.42>  (23) 
False

>  <Fsp3_0.45>  (23) 
False

>  <Stereogenic_Carbons>  (23) 
0

>  <C_Atoms>  (23) 
7

>  <FCStereo>  (23) 
0.0

>  <SPS>  (23) 
112

>  <nSPS>  (23) 
9.333333

>  <PBF>  (23) 
0.077971

>  <PBF_0.6>  (23) 
False

>  <nPBF>  (23) 
0.006498

>  <nPBF_0.016>  (23) 
False

>  <PMI1>  (23) 
164.217997

>  <PMI2>  (23) 
1051.679161

>  <PMI3>  (23) 
1212.329151

>  <NPR1>  (23) 
0.135457

>  <NPR2>  (23) 
0.867486

>  <Sum_NPR>  (23) 
1.002943

>  <Sum_NPR_1.07>  (23) 
False

>  <Sum_NPR_1.2>  (23) 
False

>  <MaxAbsEStateIndex>  (23) 
10.201115

>  <MaxEStateIndex>  (23) 
10.201115

>  <MinAbsEStateIndex>  (23) 
0.068889

>  <MinEStateIndex>  (23) 
-1.342687

>  <qed>  (23) 
0.455374

>  <MolWt>  (23) 
166.112

>  <HeavyAtomMolWt>  (23) 
162.08

>  <ExactMolWt>  (23) 
166.014581

>  <NumValenceElectrons>  (23) 
62

>  <NumRadicalElectrons>  (23) 
0

>  <MaxPartialCharge>  (23) 
0.268967

>  <MinPartialCharge>  (23) 
-0.544815

>  <MaxAbsPartialCharge>  (23) 
0.544815

>  <MinAbsPartialCharge>  (23) 
0.268967

>  <FpDensityMorgan1>  (23) 
1.25

>  <FpDensityMorgan2>  (23) 
1.75

>  <FpDensityMorgan3>  (23) 
2.083333

>  <BCUT2D_MWHI>  (23) 
16.628248

>  <BCUT2D_MWLOW>  (23) 
10.189548

>  <BCUT2D_CHGHI>  (23) 
2.026624

>  <BCUT2D_CHGLO>  (23) 
-1.989074

>  <BCUT2D_LOGPHI>  (23) 
2.10295

>  <BCUT2D_LOGPLOW>  (23) 
-2.214263

>  <BCUT2D_MRHI>  (23) 
5.854293

>  <BCUT2D_MRLOW>  (23) 
-0.384444

>  <AvgIpc>  (23) 
2.042911

>  <BalabanJ>  (23) 
3.00615

>  <BertzCT>  (23) 
283.68319

>  <Chi0>  (23) 
9.137828

>  <Chi0n>  (23) 
5.889608

>  <Chi0v>  (23) 
5.889608

>  <Chi1>  (23) 
5.609061

>  <Chi1n>  (23) 
3.068371

>  <Chi1v>  (23) 
3.068371

>  <Chi2n>  (23) 
2.091441

>  <Chi2v>  (23) 
2.091441

>  <Chi3n>  (23) 
1.313825

>  <Chi3v>  (23) 
1.313825

>  <Chi4n>  (23) 
0.719229

>  <Chi4v>  (23) 
0.719229

>  <HallKierAlpha>  (23) 
-1.91

>  <Ipc>  (23) 
473.955341

>  <Kappa1>  (23) 
8.189108

>  <Kappa2>  (23) 
2.99667

>  <Kappa3>  (23) 
1.570829

>  <LabuteASA>  (23) 
67.405077

>  <PEOE_VSA1>  (23) 
9.901065

>  <PEOE_VSA10>  (23) 
0.0

>  <PEOE_VSA11>  (23) 
0.0

>  <PEOE_VSA12>  (23) 
0.0

>  <PEOE_VSA13>  (23) 
5.687386

>  <PEOE_VSA14>  (23) 
0.0

>  <PEOE_VSA2>  (23) 
10.114318

>  <PEOE_VSA3>  (23) 
0.0

>  <PEOE_VSA4>  (23) 
0.0

>  <PEOE_VSA5>  (23) 
0.0

>  <PEOE_VSA6>  (23) 
0.0

>  <PEOE_VSA7>  (23) 
17.696186

>  <PEOE_VSA8>  (23) 
12.132734

>  <PEOE_VSA9>  (23) 
10.892616

>  <SMR_VSA1>  (23) 
14.824376

>  <SMR_VSA10>  (23) 
11.656692

>  <SMR_VSA2>  (23) 
0.0

>  <SMR_VSA3>  (23) 
0.0

>  <SMR_VSA4>  (23) 
0.0

>  <SMR_VSA5>  (23) 
0.0

>  <SMR_VSA6>  (23) 
0.0

>  <SMR_VSA7>  (23) 
39.943238

>  <SMR_VSA8>  (23) 
0.0

>  <SMR_VSA9>  (23) 
0.0

>  <SlogP_VSA1>  (23) 
5.106527

>  <SlogP_VSA10>  (23) 
5.687386

>  <SlogP_VSA11>  (23) 
0.0

>  <SlogP_VSA12>  (23) 
0.0

>  <SlogP_VSA2>  (23) 
10.892616

>  <SlogP_VSA3>  (23) 
0.0

>  <SlogP_VSA4>  (23) 
10.114318

>  <SlogP_VSA5>  (23) 
10.357989

>  <SlogP_VSA6>  (23) 
24.265468

>  <SlogP_VSA7>  (23) 
0.0

>  <SlogP_VSA8>  (23) 
0.0

>  <SlogP_VSA9>  (23) 
0.0

>  <EState_VSA1>  (23) 
10.892616

>  <EState_VSA10>  (23) 
20.015383

>  <EState_VSA11>  (23) 
0.0

>  <EState_VSA2>  (23) 
11.250838

>  <EState_VSA3>  (23) 
0.0

>  <EState_VSA4>  (23) 
24.265468

>  <EState_VSA5>  (23) 
0.0

>  <EState_VSA6>  (23) 
0.0

>  <EState_VSA7>  (23) 
0.0

>  <EState_VSA8>  (23) 
0.0

>  <EState_VSA9>  (23) 
0.0

>  <VSA_EState1>  (23) 
0.0

>  <VSA_EState10>  (23) 
0.0

>  <VSA_EState2>  (23) 
19.727543

>  <VSA_EState3>  (23) 
20.325699

>  <VSA_EState4>  (23) 
-0.207778

>  <VSA_EState5>  (23) 
-1.342687

>  <VSA_EState6>  (23) 
4.497222

>  <VSA_EState7>  (23) 
0.0

>  <VSA_EState8>  (23) 
0.0

>  <VSA_EState9>  (23) 
0.0

>  <FractionCSP3>  (23) 
0.0

>  <HeavyAtomCount>  (23) 
12

>  <NHOHCount>  (23) 
0

>  <NOCount>  (23) 
5

>  <NumAliphaticCarbocycles>  (23) 
0

>  <NumAliphaticHeterocycles>  (23) 
0

>  <NumAliphaticRings>  (23) 
0

>  <NumAromaticCarbocycles>  (23) 
1

>  <NumAromaticHeterocycles>  (23) 
0

>  <NumAromaticRings>  (23) 
1

>  <NumHAcceptors>  (23) 
4

>  <NumHDonors>  (23) 
0

>  <NumHeteroatoms>  (23) 
5

>  <NumRotatableBonds>  (23) 
2

>  <NumSaturatedCarbocycles>  (23) 
0

>  <NumSaturatedHeterocycles>  (23) 
0

>  <NumSaturatedRings>  (23) 
0

>  <RingCount>  (23) 
1

>  <MolLogP>  (23) 
-0.0417

>  <MolMR>  (23) 
37.4269

>  <fr_Al_COO>  (23) 
0

>  <fr_Al_OH>  (23) 
0

>  <fr_Al_OH_noTert>  (23) 
0

>  <fr_ArN>  (23) 
0

>  <fr_Ar_COO>  (23) 
1

>  <fr_Ar_N>  (23) 
0

>  <fr_Ar_NH>  (23) 
0

>  <fr_Ar_OH>  (23) 
0

>  <fr_COO>  (23) 
1

>  <fr_COO2>  (23) 
1

>  <fr_C_O>  (23) 
1

>  <fr_C_O_noCOO>  (23) 
1

>  <fr_C_S>  (23) 
0

>  <fr_HOCCN>  (23) 
0

>  <fr_Imine>  (23) 
0

>  <fr_NH0>  (23) 
1

>  <fr_NH1>  (23) 
0

>  <fr_NH2>  (23) 
0

>  <fr_N_O>  (23) 
0

>  <fr_Ndealkylation1>  (23) 
0

>  <fr_Ndealkylation2>  (23) 
0

>  <fr_Nhpyrrole>  (23) 
0

>  <fr_SH>  (23) 
0

>  <fr_aldehyde>  (23) 
0

>  <fr_alkyl_carbamate>  (23) 
0

>  <fr_alkyl_halide>  (23) 
0

>  <fr_allylic_oxid>  (23) 
0

>  <fr_amide>  (23) 
0

>  <fr_amidine>  (23) 
0

>  <fr_aniline>  (23) 
0

>  <fr_aryl_methyl>  (23) 
0

>  <fr_azide>  (23) 
0

>  <fr_azo>  (23) 
0

>  <fr_barbitur>  (23) 
0

>  <fr_benzene>  (23) 
1

>  <fr_benzodiazepine>  (23) 
0

>  <fr_bicyclic>  (23) 
0

>  <fr_diazo>  (23) 
0

>  <fr_dihydropyridine>  (23) 
0

>  <fr_epoxide>  (23) 
0

>  <fr_ester>  (23) 
0

>  <fr_ether>  (23) 
0

>  <fr_furan>  (23) 
0

>  <fr_guanido>  (23) 
0

>  <fr_halogen>  (23) 
0

>  <fr_hdrzine>  (23) 
0

>  <fr_hdrzone>  (23) 
0

>  <fr_imidazole>  (23) 
0

>  <fr_imide>  (23) 
0

>  <fr_isocyan>  (23) 
0

>  <fr_isothiocyan>  (23) 
0

>  <fr_ketone>  (23) 
0

>  <fr_ketone_Topliss>  (23) 
0

>  <fr_lactam>  (23) 
0

>  <fr_lactone>  (23) 
0

>  <fr_methoxy>  (23) 
0

>  <fr_morpholine>  (23) 
0

>  <fr_nitrile>  (23) 
0

>  <fr_nitro>  (23) 
1

>  <fr_nitro_arom>  (23) 
1

>  <fr_nitro_arom_nonortho>  (23) 
1

>  <fr_nitroso>  (23) 
0

>  <fr_oxazole>  (23) 
0

>  <fr_oxime>  (23) 
0

>  <fr_para_hydroxylation>  (23) 
0

>  <fr_phenol>  (23) 
0

>  <fr_phenol_noOrthoHbond>  (23) 
0

>  <fr_phos_acid>  (23) 
0

>  <fr_phos_ester>  (23) 
0

>  <fr_piperdine>  (23) 
0

>  <fr_piperzine>  (23) 
0

>  <fr_priamide>  (23) 
0

>  <fr_prisulfonamd>  (23) 
0

>  <fr_pyridine>  (23) 
0

>  <fr_quatN>  (23) 
0

>  <fr_sulfide>  (23) 
0

>  <fr_sulfonamd>  (23) 
0

>  <fr_sulfone>  (23) 
0

>  <fr_term_acetylene>  (23) 
0

>  <fr_tetrazole>  (23) 
0

>  <fr_thiazole>  (23) 
0

>  <fr_thiocyan>  (23) 
0

>  <fr_thiophene>  (23) 
0

>  <fr_unbrch_alkane>  (23) 
0

>  <fr_urea>  (23) 
0

>  <NP_Likeness>  (23) 
-1.146165

$$$$
4PY
     RDKit          3D

  0  0  0  0  0  0  0  0  0  0999 V3000
M  V30 BEGIN CTAB
M  V30 COUNTS 50 54 0 0 0
M  V30 BEGIN ATOM
M  V30 1 O 12.009000 9.858000 1.894000 0
M  V30 2 N 14.005000 8.354000 3.333000 0 CHG=1
M  V30 3 N 3.367000 10.098000 4.298000 0
M  V30 4 N 9.847000 10.297000 -1.069000 0
M  V30 5 N 3.104000 9.974000 2.980000 0
M  V30 6 N 5.892000 9.936000 0.503000 0
M  V30 7 N 15.617000 10.596000 -0.011000 0
M  V30 8 C 11.952000 9.693000 3.318000 0
M  V30 9 C 13.633000 13.702000 -1.008000 0
M  V30 10 C 13.065000 13.955000 0.275000 0
M  V30 11 C 4.675000 10.194000 4.524000 0
M  V30 12 C 10.942000 10.160000 -0.271000 0
M  V30 13 C 8.594000 10.267000 -0.515000 0
M  V30 14 C 4.581000 9.891000 0.880000 0
M  V30 15 C 15.574000 10.131000 1.272000 0
M  V30 16 C 14.505000 12.590000 -1.197000 0
M  V30 17 C 13.374000 13.089000 1.365000 0
M  V30 18 C 9.522000 9.956000 1.696000 0
M  V30 19 C 14.398000 10.790000 3.536000 0
M  V30 20 C 6.643000 10.166000 2.797000 0
M  V30 21 C 10.835000 9.987000 1.130000 0
M  V30 22 C 13.415000 9.598000 3.841000 0 CFG=2
M  V30 23 C 4.250000 9.980000 2.219000 0
M  V30 24 C 6.962000 10.070000 1.411000 0
M  V30 25 C 14.810000 11.740000 -0.128000 0
M  V30 26 C 5.309000 10.123000 3.208000 0
M  V30 27 C 8.366000 10.099000 0.869000 0
M  V30 28 C 14.729000 10.964000 2.051000 0
M  V30 29 C 14.238000 11.993000 1.171000 0
M  V30 30 H 14.947100 8.274500 3.658900 0
M  V30 31 H 13.471900 7.574000 3.660900 0
M  V30 32 H 2.182800 9.887800 2.600600 0
M  V30 33 H 16.143400 10.184400 -0.755000 0
M  V30 34 H 11.454100 8.855800 3.544400 0
M  V30 35 H 11.491700 10.477400 3.733800 0
M  V30 36 H 13.419500 14.305300 -1.776400 0
M  V30 37 H 12.453700 14.734900 0.409700 0
M  V30 38 H 5.129500 10.293900 5.409100 0
M  V30 39 H 11.850700 10.182300 -0.688000 0
M  V30 40 H 7.803600 10.368900 -1.119000 0
M  V30 41 H 3.863200 9.794100 0.190600 0
M  V30 42 H 16.062700 9.327100 1.610800 0
M  V30 43 H 14.901000 12.416400 -2.098700 0
M  V30 44 H 12.977500 13.259600 2.267000 0
M  V30 45 H 9.411800 9.832800 2.682200 0
M  V30 46 H 15.251600 10.627500 4.030900 0
M  V30 47 H 13.977700 11.635600 3.865100 0
M  V30 48 H 7.372900 10.263900 3.473600 0
M  V30 49 H 13.363400 9.510600 4.835800 0
M  V30 50 H 13.998000 8.365800 2.333100 0
M  V30 END ATOM
M  V30 BEGIN BOND
M  V30 1 1 1 8
M  V30 2 1 1 21
M  V30 3 1 2 22
M  V30 4 1 3 5
M  V30 5 2 3 11
M  V30 6 2 4 12
M  V30 7 1 4 13
M  V30 8 1 5 23
M  V30 9 1 6 14
M  V30 10 2 6 24
M  V30 11 1 7 15
M  V30 12 1 7 25
M  V30 13 1 8 22
M  V30 14 2 9 10
M  V30 15 1 9 16
M  V30 16 1 10 17
M  V30 17 1 11 26
M  V30 18 1 12 21
M  V30 19 2 13 27
M  V30 20 2 14 23
M  V30 21 2 15 28
M  V30 22 2 16 25
M  V30 23 2 17 29
M  V30 24 2 18 21
M  V30 25 1 18 27
M  V30 26 1 19 22
M  V30 27 1 19 28
M  V30 28 1 20 24
M  V30 29 2 20 26
M  V30 30 1 23 26
M  V30 31 1 24 27
M  V30 32 1 25 29
M  V30 33 1 28 29
M  V30 34 1 2 30
M  V30 35 1 2 31
M  V30 36 1 5 32
M  V30 37 1 7 33
M  V30 38 1 8 34
M  V30 39 1 8 35
M  V30 40 1 9 36
M  V30 41 1 10 37
M  V30 42 1 11 38
M  V30 43 1 12 39
M  V30 44 1 13 40
M  V30 45 1 14 41
M  V30 46 1 15 42
M  V30 47 1 16 43
M  V30 48 1 17 44
M  V30 49 1 18 45
M  V30 50 1 19 46
M  V30 51 1 19 47
M  V30 52 1 20 48
M  V30 53 1 22 49 CFG=1
M  V30 54 1 2 50
M  V30 END BOND
M  V30 END CTAB
M  END
>  <Ligand_Instance>  (24) 
2OJF_4PY_E_1000

>  <Dataset>  (24) 
PDB

>  <PDB_ID>  (24) 
2OJF

>  <Chain>  (24) 
E

>  <Resi>  (24) 
1000

>  <Num_Resolved_Atoms>  (24) 
29

>  <Num_H_Atoms_ProtBoundConf>  (24) 
21

>  <Pocket>  (24) 
A

>  <Name>  (24) 
(2S)-1-(6H-INDOL-3-YL)-3-{[5-(7H-PYRAZOLO[3,4-C]PYRIDIN-5-YL)PYRIDIN-3-YL]OXY}PROPAN-2-AMINE

>  <Num_Not_Resolved_Atoms>  (24) 
0

>  <ATP_Site>  (24) 
True

>  <Peripheral>  (24) 
False

>  <Standardized_SMILES>  (24) 
[H]C1=NC([H])=C(C2=NC([H])=C3C(=C2[H])C([H])=NN3[H])C([H])=C1OC([H])([H])[C@]([H])(C([H])([H])C1=C([H])N([H])C2=C([H])C([H])=C([H])C([H])=C21)[N+]([H])([H])[H]

>  <2D_Mol_H>  (24) 
<rdkit.Chem.rdchem.Mol object at 0x77059d9db5a0>

>  <MW>  (24) 
385.451

>  <HBA>  (24) 
4

>  <HBD>  (24) 
3

>  <LogP>  (24) 
2.7332

>  <NRB>  (24) 
7

>  <TPSA>  (24) 
107.12

>  <Num_Heavy_Atoms>  (24) 
29

>  <Ro5>  (24) 
[True, True, True, True, True, True]

>  <Ro5_Fulfilled>  (24) 
True

>  <Ro3>  (24) 
[False, False, True, True]

>  <Ro3_Fulfilled>  (24) 
False

>  <Fsp3>  (24) 
0.136364

>  <Fsp3_0.42>  (24) 
False

>  <Fsp3_0.45>  (24) 
False

>  <Stereogenic_Carbons>  (24) 
1

>  <C_Atoms>  (24) 
22

>  <FCStereo>  (24) 
0.045455

>  <SPS>  (24) 
361

>  <nSPS>  (24) 
12.448276

>  <PBF>  (24) 
1.015697

>  <PBF_0.6>  (24) 
True

>  <nPBF>  (24) 
0.035024

>  <nPBF_0.016>  (24) 
True

>  <PMI1>  (24) 
1491.691408

>  <PMI2>  (24) 
7096.656826

>  <PMI3>  (24) 
7799.314818

>  <NPR1>  (24) 
0.191259

>  <NPR2>  (24) 
0.909908

>  <Sum_NPR>  (24) 
1.101167

>  <Sum_NPR_1.07>  (24) 
True

>  <Sum_NPR_1.2>  (24) 
False

>  <MaxAbsEStateIndex>  (24) 
5.981764

>  <MaxEStateIndex>  (24) 
5.981764

>  <MinAbsEStateIndex>  (24) 
0.123396

>  <MinEStateIndex>  (24) 
0.123396

>  <qed>  (24) 
0.417631

>  <MolWt>  (24) 
385.451

>  <HeavyAtomMolWt>  (24) 
364.283

>  <ExactMolWt>  (24) 
385.177136

>  <NumValenceElectrons>  (24) 
144

>  <NumRadicalElectrons>  (24) 
0

>  <MaxPartialCharge>  (24) 
0.140113

>  <MinPartialCharge>  (24) 
-0.485746

>  <MaxAbsPartialCharge>  (24) 
0.485746

>  <MinAbsPartialCharge>  (24) 
0.140113

>  <FpDensityMorgan1>  (24) 
1.034483

>  <FpDensityMorgan2>  (24) 
1.965517

>  <FpDensityMorgan3>  (24) 
2.931034

>  <BCUT2D_MWHI>  (24) 
16.478406

>  <BCUT2D_MWLOW>  (24) 
10.063481

>  <BCUT2D_CHGHI>  (24) 
2.128346

>  <BCUT2D_CHGLO>  (24) 
-2.109254

>  <BCUT2D_LOGPHI>  (24) 
2.236408

>  <BCUT2D_LOGPLOW>  (24) 
-2.641605

>  <BCUT2D_MRHI>  (24) 
5.82914

>  <BCUT2D_MRLOW>  (24) 
-0.422665

>  <AvgIpc>  (24) 
3.390447

>  <BalabanJ>  (24) 
1.273792

>  <BertzCT>  (24) 
1274.535509

>  <Chi0>  (24) 
19.631181

>  <Chi0n>  (24) 
15.799413

>  <Chi0v>  (24) 
15.799413

>  <Chi1>  (24) 
14.259153

>  <Chi1n>  (24) 
9.515208

>  <Chi1v>  (24) 
9.515208

>  <Chi2n>  (24) 
7.176766

>  <Chi2v>  (24) 
7.176766

>  <Chi3n>  (24) 
5.00273

>  <Chi3v>  (24) 
5.00273

>  <Chi4n>  (24) 
3.522741

>  <Chi4v>  (24) 
3.522741

>  <HallKierAlpha>  (24) 
-3.71

>  <Ipc>  (24) 
10394608.161931

>  <Kappa1>  (24) 
17.392624

>  <Kappa2>  (24) 
7.367008

>  <Kappa3>  (24) 
3.55189

>  <LabuteASA>  (24) 
166.502901

>  <PEOE_VSA1>  (24) 
15.454509

>  <PEOE_VSA10>  (24) 
18.398235

>  <PEOE_VSA11>  (24) 
0.0

>  <PEOE_VSA12>  (24) 
0.0

>  <PEOE_VSA13>  (24) 
0.0

>  <PEOE_VSA14>  (24) 
0.0

>  <PEOE_VSA2>  (24) 
15.066639

>  <PEOE_VSA3>  (24) 
0.0

>  <PEOE_VSA4>  (24) 
5.098682

>  <PEOE_VSA5>  (24) 
0.0

>  <PEOE_VSA6>  (24) 
18.199101

>  <PEOE_VSA7>  (24) 
23.762553

>  <PEOE_VSA8>  (24) 
40.667109

>  <PEOE_VSA9>  (24) 
29.801159

>  <SMR_VSA1>  (24) 
10.47053

>  <SMR_VSA10>  (24) 
21.80585

>  <SMR_VSA2>  (24) 
0.0

>  <SMR_VSA3>  (24) 
25.149299

>  <SMR_VSA4>  (24) 
0.0

>  <SMR_VSA5>  (24) 
12.462662

>  <SMR_VSA6>  (24) 
6.606882

>  <SMR_VSA7>  (24) 
72.945872

>  <SMR_VSA8>  (24) 
0.0

>  <SMR_VSA9>  (24) 
17.006891

>  <SlogP_VSA1>  (24) 
10.47053

>  <SlogP_VSA10>  (24) 
0.0

>  <SlogP_VSA11>  (24) 
5.749512

>  <SlogP_VSA12>  (24) 
0.0

>  <SlogP_VSA2>  (24) 
37.798022

>  <SlogP_VSA3>  (24) 
6.420822

>  <SlogP_VSA4>  (24) 
0.0

>  <SlogP_VSA5>  (24) 
5.563451

>  <SlogP_VSA6>  (24) 
67.38242

>  <SlogP_VSA7>  (24) 
0.0

>  <SlogP_VSA8>  (24) 
33.063229

>  <SlogP_VSA9>  (24) 
0.0

>  <EState_VSA1>  (24) 
0.0

>  <EState_VSA10>  (24) 
0.0

>  <EState_VSA11>  (24) 
0.0

>  <EState_VSA2>  (24) 
6.041841

>  <EState_VSA3>  (24) 
12.356394

>  <EState_VSA4>  (24) 
34.097827

>  <EState_VSA5>  (24) 
10.949676

>  <EState_VSA6>  (24) 
24.787374

>  <EState_VSA7>  (24) 
18.199101

>  <EState_VSA8>  (24) 
55.278911

>  <EState_VSA9>  (24) 
4.736863

>  <VSA_EState1>  (24) 
5.981764

>  <VSA_EState10>  (24) 
0.0

>  <VSA_EState2>  (24) 
12.10284

>  <VSA_EState3>  (24) 
9.19986

>  <VSA_EState4>  (24) 
9.316418

>  <VSA_EState5>  (24) 
0.712192

>  <VSA_EState6>  (24) 
12.372293

>  <VSA_EState7>  (24) 
9.968568

>  <VSA_EState8>  (24) 
0.512733

>  <VSA_EState9>  (24) 
0.0

>  <FractionCSP3>  (24) 
0.136364

>  <HeavyAtomCount>  (24) 
29

>  <NHOHCount>  (24) 
5

>  <NOCount>  (24) 
7

>  <NumAliphaticCarbocycles>  (24) 
0

>  <NumAliphaticHeterocycles>  (24) 
0

>  <NumAliphaticRings>  (24) 
0

>  <NumAromaticCarbocycles>  (24) 
1

>  <NumAromaticHeterocycles>  (24) 
4

>  <NumAromaticRings>  (24) 
5

>  <NumHAcceptors>  (24) 
4

>  <NumHDonors>  (24) 
3

>  <NumHeteroatoms>  (24) 
7

>  <NumRotatableBonds>  (24) 
6

>  <NumSaturatedCarbocycles>  (24) 
0

>  <NumSaturatedHeterocycles>  (24) 
0

>  <NumSaturatedRings>  (24) 
0

>  <RingCount>  (24) 
5

>  <MolLogP>  (24) 
2.7332

>  <MolMR>  (24) 
111.2935

>  <fr_Al_COO>  (24) 
0

>  <fr_Al_OH>  (24) 
0

>  <fr_Al_OH_noTert>  (24) 
0

>  <fr_ArN>  (24) 
0

>  <fr_Ar_COO>  (24) 
0

>  <fr_Ar_N>  (24) 
5

>  <fr_Ar_NH>  (24) 
2

>  <fr_Ar_OH>  (24) 
0

>  <fr_COO>  (24) 
0

>  <fr_COO2>  (24) 
0

>  <fr_C_O>  (24) 
0

>  <fr_C_O_noCOO>  (24) 
0

>  <fr_C_S>  (24) 
0

>  <fr_HOCCN>  (24) 
0

>  <fr_Imine>  (24) 
0

>  <fr_NH0>  (24) 
3

>  <fr_NH1>  (24) 
2

>  <fr_NH2>  (24) 
0

>  <fr_N_O>  (24) 
0

>  <fr_Ndealkylation1>  (24) 
0

>  <fr_Ndealkylation2>  (24) 
0

>  <fr_Nhpyrrole>  (24) 
2

>  <fr_SH>  (24) 
0

>  <fr_aldehyde>  (24) 
0

>  <fr_alkyl_carbamate>  (24) 
0

>  <fr_alkyl_halide>  (24) 
0

>  <fr_allylic_oxid>  (24) 
0

>  <fr_amide>  (24) 
0

>  <fr_amidine>  (24) 
0

>  <fr_aniline>  (24) 
0

>  <fr_aryl_methyl>  (24) 
0

>  <fr_azide>  (24) 
0

>  <fr_azo>  (24) 
0

>  <fr_barbitur>  (24) 
0

>  <fr_benzene>  (24) 
1

>  <fr_benzodiazepine>  (24) 
0

>  <fr_bicyclic>  (24) 
2

>  <fr_diazo>  (24) 
0

>  <fr_dihydropyridine>  (24) 
0

>  <fr_epoxide>  (24) 
0

>  <fr_ester>  (24) 
0

>  <fr_ether>  (24) 
1

>  <fr_furan>  (24) 
0

>  <fr_guanido>  (24) 
0

>  <fr_halogen>  (24) 
0

>  <fr_hdrzine>  (24) 
0

>  <fr_hdrzone>  (24) 
0

>  <fr_imidazole>  (24) 
0

>  <fr_imide>  (24) 
0

>  <fr_isocyan>  (24) 
0

>  <fr_isothiocyan>  (24) 
0

>  <fr_ketone>  (24) 
0

>  <fr_ketone_Topliss>  (24) 
0

>  <fr_lactam>  (24) 
0

>  <fr_lactone>  (24) 
0

>  <fr_methoxy>  (24) 
0

>  <fr_morpholine>  (24) 
0

>  <fr_nitrile>  (24) 
0

>  <fr_nitro>  (24) 
0

>  <fr_nitro_arom>  (24) 
0

>  <fr_nitro_arom_nonortho>  (24) 
0

>  <fr_nitroso>  (24) 
0

>  <fr_oxazole>  (24) 
0

>  <fr_oxime>  (24) 
0

>  <fr_para_hydroxylation>  (24) 
1

>  <fr_phenol>  (24) 
0

>  <fr_phenol_noOrthoHbond>  (24) 
0

>  <fr_phos_acid>  (24) 
0

>  <fr_phos_ester>  (24) 
0

>  <fr_piperdine>  (24) 
0

>  <fr_piperzine>  (24) 
0

>  <fr_priamide>  (24) 
0

>  <fr_prisulfonamd>  (24) 
0

>  <fr_pyridine>  (24) 
2

>  <fr_quatN>  (24) 
1

>  <fr_sulfide>  (24) 
0

>  <fr_sulfonamd>  (24) 
0

>  <fr_sulfone>  (24) 
0

>  <fr_term_acetylene>  (24) 
0

>  <fr_tetrazole>  (24) 
0

>  <fr_thiazole>  (24) 
0

>  <fr_thiocyan>  (24) 
0

>  <fr_thiophene>  (24) 
0

>  <fr_unbrch_alkane>  (24) 
0

>  <fr_urea>  (24) 
0

>  <NP_Likeness>  (24) 
-0.942594

$$$$
4SB
     RDKit          3D

  0  0  0  0  0  0  0  0  0  0999 V3000
M  V30 BEGIN CTAB
M  V30 COUNTS 42 43 0 0 0
M  V30 BEGIN ATOM
M  V30 1 Br 31.843000 10.062000 -5.586000 0
M  V30 2 O 25.681000 10.210000 1.061000 0
M  V30 3 O 33.518000 10.141000 -3.108000 0
M  V30 4 N 22.373000 7.438000 -0.873000 0 CHG=1
M  V30 5 N 27.320000 10.126000 -0.941000 0
M  V30 6 N 25.884000 10.173000 -1.052000 0
M  V30 7 C 21.936000 8.742000 -1.275000 0
M  V30 8 C 27.948000 10.115000 -2.097000 0
M  V30 9 C 22.363000 14.300000 0.602000 0
M  V30 10 C 23.116000 13.953000 -0.504000 0
M  V30 11 C 21.976000 13.277000 1.556000 0
M  V30 12 C 23.151000 9.677000 -1.462000 0
M  V30 13 C 23.542000 12.561000 -0.725000 0
M  V30 14 C 22.384000 11.951000 1.337000 0
M  V30 15 C 31.656000 10.168000 -1.403000 0
M  V30 16 C 30.331000 10.167000 -1.151000 0
M  V30 17 C 29.937000 10.095000 -3.534000 0
M  V30 18 C 25.158000 10.208000 0.062000 0
M  V30 19 C 31.280000 10.107000 -3.777000 0
M  V30 20 C 32.138000 10.134000 -2.783000 0
M  V30 21 C 29.462000 10.126000 -2.215000 0
M  V30 22 C 23.202000 11.610000 0.152000 0
M  V30 23 C 23.630000 10.249000 -0.080000 0 CFG=1
M  V30 24 H 34.203000 10.170100 -2.380000 0
M  V30 25 H 21.578800 6.841900 -0.755100 0
M  V30 26 H 22.974500 7.056900 -1.575100 0
M  V30 27 H 25.442000 10.179200 -1.949000 0
M  V30 28 H 21.333400 9.119800 -0.572000 0
M  V30 29 H 21.437200 8.671600 -2.138900 0
M  V30 30 H 27.403800 10.098700 -2.935800 0
M  V30 31 H 22.086500 15.250500 0.744000 0
M  V30 32 H 23.375400 14.658000 -1.164000 0
M  V30 33 H 21.426800 13.512800 2.357700 0
M  V30 34 H 22.892100 10.436000 -2.059300 0
M  V30 35 H 23.899200 9.162900 -1.881500 0
M  V30 36 H 24.085600 12.326500 -1.530900 0
M  V30 37 H 22.120900 11.235200 1.983800 0
M  V30 38 H 32.308900 10.192000 -0.645900 0
M  V30 39 H 29.988800 10.195400 -0.211800 0
M  V30 40 H 29.291400 10.064100 -4.297000 0
M  V30 41 H 23.239100 9.677000 0.641200 0
M  V30 42 H 22.870700 7.505100 -0.008300 0
M  V30 END ATOM
M  V30 BEGIN BOND
M  V30 1 1 1 19
M  V30 2 2 2 18
M  V30 3 1 3 20
M  V30 4 1 4 7
M  V30 5 1 5 6
M  V30 6 2 5 8
M  V30 7 1 6 18
M  V30 8 1 7 12
M  V30 9 1 8 21
M  V30 10 2 9 10
M  V30 11 1 9 11
M  V30 12 1 10 13
M  V30 13 2 11 14
M  V30 14 1 12 23
M  V30 15 2 13 22
M  V30 16 1 14 22
M  V30 17 2 15 16
M  V30 18 1 15 20
M  V30 19 1 16 21
M  V30 20 1 17 19
M  V30 21 2 17 21
M  V30 22 1 18 23
M  V30 23 2 19 20
M  V30 24 1 22 23
M  V30 25 1 3 24
M  V30 26 1 4 25
M  V30 27 1 4 26
M  V30 28 1 6 27
M  V30 29 1 7 28
M  V30 30 1 7 29
M  V30 31 1 8 30
M  V30 32 1 9 31
M  V30 33 1 10 32
M  V30 34 1 11 33
M  V30 35 1 12 34
M  V30 36 1 12 35
M  V30 37 1 13 36
M  V30 38 1 14 37
M  V30 39 1 15 38
M  V30 40 1 16 39
M  V30 41 1 17 40
M  V30 42 1 23 41 CFG=1
M  V30 43 1 4 42
M  V30 END BOND
M  V30 END CTAB
M  END
>  <Ligand_Instance>  (25) 
3P0M_4SB_A_351

>  <Dataset>  (25) 
PDB

>  <PDB_ID>  (25) 
3P0M

>  <Chain>  (25) 
A

>  <Resi>  (25) 
351

>  <Num_Resolved_Atoms>  (25) 
23

>  <Num_H_Atoms_ProtBoundConf>  (25) 
19

>  <Pocket>  (25) 
A

>  <Name>  (25) 
(2R)-4-amino-N'-[(1E)-(3-bromo-4-hydroxyphenyl)methylidene]-2-phenylbutanehydrazide

>  <Num_Not_Resolved_Atoms>  (25) 
0

>  <ATP_Site>  (25) 
True

>  <Peripheral>  (25) 
False

>  <Standardized_SMILES>  (25) 
[H]OC1=C([H])C([H])=C(/C([H])=N/N([H])C(=O)[C@@]([H])(C2=C([H])C([H])=C([H])C([H])=C2[H])C([H])([H])C([H])([H])[N+]([H])([H])[H])C([H])=C1Br

>  <2D_Mol_H>  (25) 
<rdkit.Chem.rdchem.Mol object at 0x77059d9db680>

>  <MW>  (25) 
377.262

>  <HBA>  (25) 
3

>  <HBD>  (25) 
3

>  <LogP>  (25) 
2.0206

>  <NRB>  (25) 
8

>  <TPSA>  (25) 
89.33

>  <Num_Heavy_Atoms>  (25) 
23

>  <Ro5>  (25) 
[True, True, True, True, True, True]

>  <Ro5_Fulfilled>  (25) 
True

>  <Ro3>  (25) 
[False, True, True, True]

>  <Ro3_Fulfilled>  (25) 
True

>  <Fsp3>  (25) 
0.176471

>  <Fsp3_0.42>  (25) 
False

>  <Fsp3_0.45>  (25) 
False

>  <Stereogenic_Carbons>  (25) 
1

>  <C_Atoms>  (25) 
17

>  <FCStereo>  (25) 
0.058824

>  <SPS>  (25) 
282

>  <nSPS>  (25) 
12.26087

>  <PBF>  (25) 
0.963683

>  <PBF_0.6>  (25) 
True

>  <nPBF>  (25) 
0.041899

>  <nPBF_0.016>  (25) 
True

>  <PMI1>  (25) 
1274.921636

>  <PMI2>  (25) 
8303.10258

>  <PMI3>  (25) 
8573.677894

>  <NPR1>  (25) 
0.148702

>  <NPR2>  (25) 
0.968441

>  <Sum_NPR>  (25) 
1.117143

>  <Sum_NPR_1.07>  (25) 
True

>  <Sum_NPR_1.2>  (25) 
False

>  <MaxAbsEStateIndex>  (25) 
12.342977

>  <MaxEStateIndex>  (25) 
12.342977

>  <MinAbsEStateIndex>  (25) 
0.158123

>  <MinEStateIndex>  (25) 
-0.266293

>  <qed>  (25) 
0.531233

>  <MolWt>  (25) 
377.262

>  <HeavyAtomMolWt>  (25) 
358.11

>  <ExactMolWt>  (25) 
376.065515

>  <NumValenceElectrons>  (25) 
120

>  <NumRadicalElectrons>  (25) 
0

>  <MaxPartialCharge>  (25) 
0.24733

>  <MinPartialCharge>  (25) 
-0.506775

>  <MaxAbsPartialCharge>  (25) 
0.506775

>  <MinAbsPartialCharge>  (25) 
0.24733

>  <FpDensityMorgan1>  (25) 
1.304348

>  <FpDensityMorgan2>  (25) 
2.043478

>  <FpDensityMorgan3>  (25) 
2.695652

>  <BCUT2D_MWHI>  (25) 
79.918731

>  <BCUT2D_MWLOW>  (25) 
9.950275

>  <BCUT2D_CHGHI>  (25) 
2.194139

>  <BCUT2D_CHGLO>  (25) 
-2.130711

>  <BCUT2D_LOGPHI>  (25) 
2.232042

>  <BCUT2D_LOGPLOW>  (25) 
-2.509118

>  <BCUT2D_MRHI>  (25) 
9.103463

>  <BCUT2D_MRLOW>  (25) 
-0.368327

>  <AvgIpc>  (25) 
2.562915

>  <BalabanJ>  (25) 
2.036594

>  <BertzCT>  (25) 
689.492765

>  <Chi0>  (25) 
16.65649

>  <Chi0n>  (25) 
12.575463

>  <Chi0v>  (25) 
14.16146

>  <Chi1>  (25) 
11.113392

>  <Chi1n>  (25) 
7.27151

>  <Chi1v>  (25) 
8.064508

>  <Chi2n>  (25) 
5.0506

>  <Chi2v>  (25) 
5.904937

>  <Chi3n>  (25) 
3.371332

>  <Chi3v>  (25) 
4.006489

>  <Chi4n>  (25) 
2.190407

>  <Chi4v>  (25) 
2.586906

>  <HallKierAlpha>  (25) 
-2.18

>  <Ipc>  (25) 
155394.690784

>  <Kappa1>  (25) 
17.178235

>  <Kappa2>  (25) 
8.451911

>  <Kappa3>  (25) 
4.905326

>  <LabuteASA>  (25) 
142.891723

>  <PEOE_VSA1>  (25) 
10.840195

>  <PEOE_VSA10>  (25) 
5.749512

>  <PEOE_VSA11>  (25) 
0.0

>  <PEOE_VSA12>  (25) 
5.90718

>  <PEOE_VSA13>  (25) 
0.0

>  <PEOE_VSA14>  (25) 
0.0

>  <PEOE_VSA2>  (25) 
4.794537

>  <PEOE_VSA3>  (25) 
5.425791

>  <PEOE_VSA4>  (25) 
5.101408

>  <PEOE_VSA5>  (25) 
0.0

>  <PEOE_VSA6>  (25) 
30.331835

>  <PEOE_VSA7>  (25) 
45.255948

>  <PEOE_VSA8>  (25) 
6.420822

>  <PEOE_VSA9>  (25) 
23.149983

>  <SMR_VSA1>  (25) 
15.634732

>  <SMR_VSA10>  (25) 
28.051724

>  <SMR_VSA2>  (25) 
0.0

>  <SMR_VSA3>  (25) 
5.425791

>  <SMR_VSA4>  (25) 
5.101408

>  <SMR_VSA5>  (25) 
12.338728

>  <SMR_VSA6>  (25) 
6.544756

>  <SMR_VSA7>  (25) 
64.130559

>  <SMR_VSA8>  (25) 
0.0

>  <SMR_VSA9>  (25) 
5.749512

>  <SlogP_VSA1>  (25) 
11.159459

>  <SlogP_VSA10>  (25) 
0.0

>  <SlogP_VSA11>  (25) 
5.749512

>  <SlogP_VSA12>  (25) 
15.929944

>  <SlogP_VSA2>  (25) 
23.773064

>  <SlogP_VSA3>  (25) 
4.794537

>  <SlogP_VSA4>  (25) 
0.0

>  <SlogP_VSA5>  (25) 
23.465631

>  <SlogP_VSA6>  (25) 
58.105064

>  <SlogP_VSA7>  (25) 
0.0

>  <SlogP_VSA8>  (25) 
0.0

>  <SlogP_VSA9>  (25) 
0.0

>  <EState_VSA1>  (25) 
0.0

>  <EState_VSA10>  (25) 
9.901065

>  <EState_VSA11>  (25) 
0.0

>  <EState_VSA2>  (25) 
17.574598

>  <EState_VSA3>  (25) 
17.438298

>  <EState_VSA4>  (25) 
11.126903

>  <EState_VSA5>  (25) 
6.214601

>  <EState_VSA6>  (25) 
18.199101

>  <EState_VSA7>  (25) 
30.331835

>  <EState_VSA8>  (25) 
32.19081

>  <EState_VSA9>  (25) 
0.0

>  <VSA_EState1>  (25) 
0.575922

>  <VSA_EState10>  (25) 
3.23528

>  <VSA_EState2>  (25) 
12.342977

>  <VSA_EState3>  (25) 
13.441761

>  <VSA_EState4>  (25) 
8.127293

>  <VSA_EState5>  (25) 
-0.266555

>  <VSA_EState6>  (25) 
14.592849

>  <VSA_EState7>  (25) 
2.198882

>  <VSA_EState8>  (25) 
0.668258

>  <VSA_EState9>  (25) 
0.0

>  <FractionCSP3>  (25) 
0.176471

>  <HeavyAtomCount>  (25) 
23

>  <NHOHCount>  (25) 
5

>  <NOCount>  (25) 
5

>  <NumAliphaticCarbocycles>  (25) 
0

>  <NumAliphaticHeterocycles>  (25) 
0

>  <NumAliphaticRings>  (25) 
0

>  <NumAromaticCarbocycles>  (25) 
2

>  <NumAromaticHeterocycles>  (25) 
0

>  <NumAromaticRings>  (25) 
2

>  <NumHAcceptors>  (25) 
3

>  <NumHDonors>  (25) 
3

>  <NumHeteroatoms>  (25) 
6

>  <NumRotatableBonds>  (25) 
6

>  <NumSaturatedCarbocycles>  (25) 
0

>  <NumSaturatedHeterocycles>  (25) 
0

>  <NumSaturatedRings>  (25) 
0

>  <RingCount>  (25) 
2

>  <MolLogP>  (25) 
2.0206

>  <MolMR>  (25) 
93.0986

>  <fr_Al_COO>  (25) 
0

>  <fr_Al_OH>  (25) 
0

>  <fr_Al_OH_noTert>  (25) 
0

>  <fr_ArN>  (25) 
0

>  <fr_Ar_COO>  (25) 
0

>  <fr_Ar_N>  (25) 
0

>  <fr_Ar_NH>  (25) 
0

>  <fr_Ar_OH>  (25) 
1

>  <fr_COO>  (25) 
0

>  <fr_COO2>  (25) 
0

>  <fr_C_O>  (25) 
1

>  <fr_C_O_noCOO>  (25) 
1

>  <fr_C_S>  (25) 
0

>  <fr_HOCCN>  (25) 
0

>  <fr_Imine>  (25) 
0

>  <fr_NH0>  (25) 
1

>  <fr_NH1>  (25) 
1

>  <fr_NH2>  (25) 
0

>  <fr_N_O>  (25) 
0

>  <fr_Ndealkylation1>  (25) 
0

>  <fr_Ndealkylation2>  (25) 
0

>  <fr_Nhpyrrole>  (25) 
0

>  <fr_SH>  (25) 
0

>  <fr_aldehyde>  (25) 
0

>  <fr_alkyl_carbamate>  (25) 
0

>  <fr_alkyl_halide>  (25) 
0

>  <fr_allylic_oxid>  (25) 
0

>  <fr_amide>  (25) 
1

>  <fr_amidine>  (25) 
0

>  <fr_aniline>  (25) 
0

>  <fr_aryl_methyl>  (25) 
0

>  <fr_azide>  (25) 
0

>  <fr_azo>  (25) 
0

>  <fr_barbitur>  (25) 
0

>  <fr_benzene>  (25) 
2

>  <fr_benzodiazepine>  (25) 
0

>  <fr_bicyclic>  (25) 
0

>  <fr_diazo>  (25) 
0

>  <fr_dihydropyridine>  (25) 
0

>  <fr_epoxide>  (25) 
0

>  <fr_ester>  (25) 
0

>  <fr_ether>  (25) 
0

>  <fr_furan>  (25) 
0

>  <fr_guanido>  (25) 
0

>  <fr_halogen>  (25) 
1

>  <fr_hdrzine>  (25) 
0

>  <fr_hdrzone>  (25) 
1

>  <fr_imidazole>  (25) 
0

>  <fr_imide>  (25) 
0

>  <fr_isocyan>  (25) 
0

>  <fr_isothiocyan>  (25) 
0

>  <fr_ketone>  (25) 
0

>  <fr_ketone_Topliss>  (25) 
0

>  <fr_lactam>  (25) 
0

>  <fr_lactone>  (25) 
0

>  <fr_methoxy>  (25) 
0

>  <fr_morpholine>  (25) 
0

>  <fr_nitrile>  (25) 
0

>  <fr_nitro>  (25) 
0

>  <fr_nitro_arom>  (25) 
0

>  <fr_nitro_arom_nonortho>  (25) 
0

>  <fr_nitroso>  (25) 
0

>  <fr_oxazole>  (25) 
0

>  <fr_oxime>  (25) 
0

>  <fr_para_hydroxylation>  (25) 
0

>  <fr_phenol>  (25) 
1

>  <fr_phenol_noOrthoHbond>  (25) 
1

>  <fr_phos_acid>  (25) 
0

>  <fr_phos_ester>  (25) 
0

>  <fr_piperdine>  (25) 
0

>  <fr_piperzine>  (25) 
0

>  <fr_priamide>  (25) 
0

>  <fr_prisulfonamd>  (25) 
0

>  <fr_pyridine>  (25) 
0

>  <fr_quatN>  (25) 
1

>  <fr_sulfide>  (25) 
0

>  <fr_sulfonamd>  (25) 
0

>  <fr_sulfone>  (25) 
0

>  <fr_term_acetylene>  (25) 
0

>  <fr_tetrazole>  (25) 
0

>  <fr_thiazole>  (25) 
0

>  <fr_thiocyan>  (25) 
0

>  <fr_thiophene>  (25) 
0

>  <fr_unbrch_alkane>  (25) 
0

>  <fr_urea>  (25) 
0

>  <NP_Likeness>  (25) 
-0.674107

$$$$
4W1
     RDKit          3D

  0  0  0  0  0  0  0  0  0  0999 V3000
M  V30 BEGIN CTAB
M  V30 COUNTS 19 20 0 0 0
M  V30 BEGIN ATOM
M  V30 1 S -29.858000 9.888000 1.492000 0
M  V30 2 O -27.914000 8.587000 5.415000 0
M  V30 3 C -28.615000 9.918000 2.605000 0
M  V30 4 C -28.337000 9.921000 5.098000 0
M  V30 5 C -33.290000 9.788000 3.546000 0
M  V30 6 C -32.735000 9.808000 4.828000 0
M  V30 7 C -32.438000 9.811000 2.442000 0
M  V30 8 C -31.343000 9.845000 4.945000 0
M  V30 9 C -31.110000 9.851000 2.621000 0
M  V30 10 C -29.191000 9.902000 3.819000 0
M  V30 11 C -30.548000 9.867000 3.858000 0
M  V30 12 H -27.031900 8.619800 5.885000 0
M  V30 13 H -27.635000 9.943000 2.407600 0
M  V30 14 H -27.534000 10.499100 4.953300 0
M  V30 15 H -28.879100 10.286800 5.854600 0
M  V30 16 H -34.281800 9.757700 3.422000 0
M  V30 17 H -33.318300 9.796200 5.640200 0
M  V30 18 H -32.817700 9.797700 1.517000 0
M  V30 19 H -30.928400 9.855400 5.854900 0
M  V30 END ATOM
M  V30 BEGIN BOND
M  V30 1 1 1 3
M  V30 2 1 1 9
M  V30 3 1 2 4
M  V30 4 2 3 10
M  V30 5 1 4 10
M  V30 6 2 5 6
M  V30 7 1 5 7
M  V30 8 1 6 8
M  V30 9 2 7 9
M  V30 10 2 8 11
M  V30 11 1 9 11
M  V30 12 1 10 11
M  V30 13 1 2 12
M  V30 14 1 3 13
M  V30 15 1 4 14
M  V30 16 1 4 15
M  V30 17 1 5 16
M  V30 18 1 6 17
M  V30 19 1 7 18
M  V30 20 1 8 19
M  V30 END BOND
M  V30 END CTAB
M  END
>  <Ligand_Instance>  (26) 
5BX7_4W1_A_401

>  <Dataset>  (26) 
PDB

>  <PDB_ID>  (26) 
5BX7

>  <Chain>  (26) 
A

>  <Resi>  (26) 
401

>  <Num_Resolved_Atoms>  (26) 
11

>  <Num_H_Atoms_ProtBoundConf>  (26) 
8

>  <Pocket>  (26) 
A

>  <Name>  (26) 
1-benzothiophen-3-ylmethanol

>  <Num_Not_Resolved_Atoms>  (26) 
0

>  <ATP_Site>  (26) 
True

>  <Peripheral>  (26) 
False

>  <Standardized_SMILES>  (26) 
[H]OC([H])([H])C1=C([H])SC2=C([H])C([H])=C([H])C([H])=C21

>  <2D_Mol_H>  (26) 
<rdkit.Chem.rdchem.Mol object at 0x77059d9db760>

>  <MW>  (26) 
164.229

>  <HBA>  (26) 
2

>  <HBD>  (26) 
1

>  <LogP>  (26) 
2.3936

>  <NRB>  (26) 
2

>  <TPSA>  (26) 
20.23

>  <Num_Heavy_Atoms>  (26) 
11

>  <Ro5>  (26) 
[True, True, True, True, True, True]

>  <Ro5_Fulfilled>  (26) 
True

>  <Ro3>  (26) 
[True, True, True, True]

>  <Ro3_Fulfilled>  (26) 
True

>  <Fsp3>  (26) 
0.111111

>  <Fsp3_0.42>  (26) 
False

>  <Fsp3_0.45>  (26) 
False

>  <Stereogenic_Carbons>  (26) 
0

>  <C_Atoms>  (26) 
9

>  <FCStereo>  (26) 
0.0

>  <SPS>  (26) 
117

>  <nSPS>  (26) 
10.636364

>  <PBF>  (26) 
0.274648

>  <PBF_0.6>  (26) 
False

>  <nPBF>  (26) 
0.024968

>  <nPBF_0.016>  (26) 
True

>  <PMI1>  (26) 
334.384095

>  <PMI2>  (26) 
545.388894

>  <PMI3>  (26) 
843.807872

>  <NPR1>  (26) 
0.39628

>  <NPR2>  (26) 
0.646343

>  <Sum_NPR>  (26) 
1.042622

>  <Sum_NPR_1.07>  (26) 
False

>  <Sum_NPR_1.2>  (26) 
False

>  <MaxAbsEStateIndex>  (26) 
8.93117

>  <MaxEStateIndex>  (26) 
8.93117

>  <MinAbsEStateIndex>  (26) 
0.14287

>  <MinEStateIndex>  (26) 
0.14287

>  <qed>  (26) 
0.685783

>  <MolWt>  (26) 
164.229

>  <HeavyAtomMolWt>  (26) 
156.165

>  <ExactMolWt>  (26) 
164.029586

>  <NumValenceElectrons>  (26) 
56

>  <NumRadicalElectrons>  (26) 
0

>  <MaxPartialCharge>  (26) 
0.069555

>  <MinPartialCharge>  (26) 
-0.391627

>  <MaxAbsPartialCharge>  (26) 
0.391627

>  <MinAbsPartialCharge>  (26) 
0.069555

>  <FpDensityMorgan1>  (26) 
1.272727

>  <FpDensityMorgan2>  (26) 
2.090909

>  <FpDensityMorgan3>  (26) 
2.909091

>  <BCUT2D_MWHI>  (26) 
32.133445

>  <BCUT2D_MWLOW>  (26) 
10.173694

>  <BCUT2D_CHGHI>  (26) 
1.991322

>  <BCUT2D_CHGLO>  (26) 
-1.900779

>  <BCUT2D_LOGPHI>  (26) 
2.245157

>  <BCUT2D_LOGPLOW>  (26) 
-1.763143

>  <BCUT2D_MRHI>  (26) 
7.169109

>  <BCUT2D_MRLOW>  (26) 
0.283545

>  <AvgIpc>  (26) 
2.467091

>  <BalabanJ>  (26) 
2.760005

>  <BertzCT>  (26) 
364.355169

>  <Chi0>  (26) 
7.681798

>  <Chi0n>  (26) 
5.94932

>  <Chi0v>  (26) 
6.765817

>  <Chi1>  (26) 
5.415015

>  <Chi1n>  (26) 
3.475633

>  <Chi1v>  (26) 
4.355286

>  <Chi2n>  (26) 
2.415214

>  <Chi2v>  (26) 
3.326445

>  <Chi3n>  (26) 
1.731509

>  <Chi3v>  (26) 
2.743808

>  <Chi4n>  (26) 
1.155231

>  <Chi4v>  (26) 
2.109197

>  <HallKierAlpha>  (26) 
-0.86

>  <Ipc>  (26) 
656.246275

>  <Kappa1>  (26) 
6.825901

>  <Kappa2>  (26) 
2.642064

>  <Kappa3>  (26) 
1.042636

>  <LabuteASA>  (26) 
68.912607

>  <PEOE_VSA1>  (26) 
5.106527

>  <PEOE_VSA10>  (26) 
0.0

>  <PEOE_VSA11>  (26) 
0.0

>  <PEOE_VSA12>  (26) 
0.0

>  <PEOE_VSA13>  (26) 
0.0

>  <PEOE_VSA14>  (26) 
0.0

>  <PEOE_VSA2>  (26) 
0.0

>  <PEOE_VSA3>  (26) 
0.0

>  <PEOE_VSA4>  (26) 
0.0

>  <PEOE_VSA5>  (26) 
11.336786

>  <PEOE_VSA6>  (26) 
18.199101

>  <PEOE_VSA7>  (26) 
22.396106

>  <PEOE_VSA8>  (26) 
4.69992

>  <PEOE_VSA9>  (26) 
6.606882

>  <SMR_VSA1>  (26) 
5.106527

>  <SMR_VSA10>  (26) 
21.42293

>  <SMR_VSA2>  (26) 
0.0

>  <SMR_VSA3>  (26) 
0.0

>  <SMR_VSA4>  (26) 
0.0

>  <SMR_VSA5>  (26) 
6.606882

>  <SMR_VSA6>  (26) 
0.0

>  <SMR_VSA7>  (26) 
35.208983

>  <SMR_VSA8>  (26) 
0.0

>  <SMR_VSA9>  (26) 
0.0

>  <SlogP_VSA1>  (26) 
0.0

>  <SlogP_VSA10>  (26) 
0.0

>  <SlogP_VSA11>  (26) 
0.0

>  <SlogP_VSA12>  (26) 
11.336786

>  <SlogP_VSA2>  (26) 
5.106527

>  <SlogP_VSA3>  (26) 
6.606882

>  <SlogP_VSA4>  (26) 
0.0

>  <SlogP_VSA5>  (26) 
5.563451

>  <SlogP_VSA6>  (26) 
29.645531

>  <SlogP_VSA7>  (26) 
0.0

>  <SlogP_VSA8>  (26) 
10.086144

>  <SlogP_VSA9>  (26) 
0.0

>  <EState_VSA1>  (26) 
0.0

>  <EState_VSA10>  (26) 
0.0

>  <EState_VSA11>  (26) 
0.0

>  <EState_VSA2>  (26) 
6.606882

>  <EState_VSA3>  (26) 
0.0

>  <EState_VSA4>  (26) 
5.563451

>  <EState_VSA5>  (26) 
10.086144

>  <EState_VSA6>  (26) 
11.336786

>  <EState_VSA7>  (26) 
23.579164

>  <EState_VSA8>  (26) 
6.066367

>  <EState_VSA9>  (26) 
5.106527

>  <VSA_EState1>  (26) 
1.246806

>  <VSA_EState10>  (26) 
1.678519

>  <VSA_EState2>  (26) 
0.0

>  <VSA_EState3>  (26) 
12.116355

>  <VSA_EState4>  (26) 
1.032963

>  <VSA_EState5>  (26) 
0.0

>  <VSA_EState6>  (26) 
8.115821

>  <VSA_EState7>  (26) 
0.0

>  <VSA_EState8>  (26) 
0.14287

>  <VSA_EState9>  (26) 
0.0

>  <FractionCSP3>  (26) 
0.111111

>  <HeavyAtomCount>  (26) 
11

>  <NHOHCount>  (26) 
1

>  <NOCount>  (26) 
1

>  <NumAliphaticCarbocycles>  (26) 
0

>  <NumAliphaticHeterocycles>  (26) 
0

>  <NumAliphaticRings>  (26) 
0

>  <NumAromaticCarbocycles>  (26) 
1

>  <NumAromaticHeterocycles>  (26) 
1

>  <NumAromaticRings>  (26) 
2

>  <NumHAcceptors>  (26) 
2

>  <NumHDonors>  (26) 
1

>  <NumHeteroatoms>  (26) 
2

>  <NumRotatableBonds>  (26) 
1

>  <NumSaturatedCarbocycles>  (26) 
0

>  <NumSaturatedHeterocycles>  (26) 
0

>  <NumSaturatedRings>  (26) 
0

>  <RingCount>  (26) 
2

>  <MolLogP>  (26) 
2.3936

>  <MolMR>  (26) 
47.7478

>  <fr_Al_COO>  (26) 
0

>  <fr_Al_OH>  (26) 
1

>  <fr_Al_OH_noTert>  (26) 
1

>  <fr_ArN>  (26) 
0

>  <fr_Ar_COO>  (26) 
0

>  <fr_Ar_N>  (26) 
0

>  <fr_Ar_NH>  (26) 
0

>  <fr_Ar_OH>  (26) 
0

>  <fr_COO>  (26) 
0

>  <fr_COO2>  (26) 
0

>  <fr_C_O>  (26) 
0

>  <fr_C_O_noCOO>  (26) 
0

>  <fr_C_S>  (26) 
0

>  <fr_HOCCN>  (26) 
0

>  <fr_Imine>  (26) 
0

>  <fr_NH0>  (26) 
0

>  <fr_NH1>  (26) 
0

>  <fr_NH2>  (26) 
0

>  <fr_N_O>  (26) 
0

>  <fr_Ndealkylation1>  (26) 
0

>  <fr_Ndealkylation2>  (26) 
0

>  <fr_Nhpyrrole>  (26) 
0

>  <fr_SH>  (26) 
0

>  <fr_aldehyde>  (26) 
0

>  <fr_alkyl_carbamate>  (26) 
0

>  <fr_alkyl_halide>  (26) 
0

>  <fr_allylic_oxid>  (26) 
0

>  <fr_amide>  (26) 
0

>  <fr_amidine>  (26) 
0

>  <fr_aniline>  (26) 
0

>  <fr_aryl_methyl>  (26) 
0

>  <fr_azide>  (26) 
0

>  <fr_azo>  (26) 
0

>  <fr_barbitur>  (26) 
0

>  <fr_benzene>  (26) 
1

>  <fr_benzodiazepine>  (26) 
0

>  <fr_bicyclic>  (26) 
1

>  <fr_diazo>  (26) 
0

>  <fr_dihydropyridine>  (26) 
0

>  <fr_epoxide>  (26) 
0

>  <fr_ester>  (26) 
0

>  <fr_ether>  (26) 
0

>  <fr_furan>  (26) 
0

>  <fr_guanido>  (26) 
0

>  <fr_halogen>  (26) 
0

>  <fr_hdrzine>  (26) 
0

>  <fr_hdrzone>  (26) 
0

>  <fr_imidazole>  (26) 
0

>  <fr_imide>  (26) 
0

>  <fr_isocyan>  (26) 
0

>  <fr_isothiocyan>  (26) 
0

>  <fr_ketone>  (26) 
0

>  <fr_ketone_Topliss>  (26) 
0

>  <fr_lactam>  (26) 
0

>  <fr_lactone>  (26) 
0

>  <fr_methoxy>  (26) 
0

>  <fr_morpholine>  (26) 
0

>  <fr_nitrile>  (26) 
0

>  <fr_nitro>  (26) 
0

>  <fr_nitro_arom>  (26) 
0

>  <fr_nitro_arom_nonortho>  (26) 
0

>  <fr_nitroso>  (26) 
0

>  <fr_oxazole>  (26) 
0

>  <fr_oxime>  (26) 
0

>  <fr_para_hydroxylation>  (26) 
0

>  <fr_phenol>  (26) 
0

>  <fr_phenol_noOrthoHbond>  (26) 
0

>  <fr_phos_acid>  (26) 
0

>  <fr_phos_ester>  (26) 
0

>  <fr_piperdine>  (26) 
0

>  <fr_piperzine>  (26) 
0

>  <fr_priamide>  (26) 
0

>  <fr_prisulfonamd>  (26) 
0

>  <fr_pyridine>  (26) 
0

>  <fr_quatN>  (26) 
0

>  <fr_sulfide>  (26) 
0

>  <fr_sulfonamd>  (26) 
0

>  <fr_sulfone>  (26) 
0

>  <fr_term_acetylene>  (26) 
0

>  <fr_tetrazole>  (26) 
0

>  <fr_thiazole>  (26) 
0

>  <fr_thiocyan>  (26) 
0

>  <fr_thiophene>  (26) 
1

>  <fr_unbrch_alkane>  (26) 
0

>  <fr_urea>  (26) 
0

>  <NP_Likeness>  (26) 
-1.027109

$$$$
504
     RDKit          3D

  0  0  0  0  0  0  0  0  0  0999 V3000
M  V30 BEGIN CTAB
M  V30 COUNTS 64 68 0 0 0
M  V30 BEGIN ATOM
M  V30 1 S 28.086000 10.339000 1.123000 0
M  V30 2 O 25.156000 10.649000 1.016000 0
M  V30 3 O 20.526000 13.550000 1.677000 0
M  V30 4 N 20.833000 6.869000 3.728000 0 CHG=1
M  V30 5 N 33.189000 10.512000 -4.440000 0
M  V30 6 N 33.271000 10.347000 -1.960000 0
M  V30 7 N 26.251000 10.634000 -0.955000 0
M  V30 8 N 28.595000 10.575000 -1.303000 0
M  V30 9 C 29.758000 10.317000 0.582000 0
M  V30 10 C 20.241000 12.451000 2.531000 0
M  V30 11 C 21.202000 8.004000 4.599000 0
M  V30 12 C 20.535000 7.230000 2.322000 0
M  V30 13 C 32.396000 10.631000 -5.499000 0
M  V30 14 C 32.319000 10.349000 -0.975000 0
M  V30 15 C 18.959000 11.750000 2.099000 0
M  V30 16 C 31.000000 10.727000 -5.359000 0
M  V30 17 C 23.462000 14.681000 -0.092000 0
M  V30 18 C 20.210000 9.175000 4.537000 0
M  V30 19 C 19.510000 8.357000 2.206000 0
M  V30 20 C 22.309000 14.702000 0.667000 0
M  V30 21 C 18.716000 10.578000 3.061000 0
M  V30 22 C 23.930000 13.485000 -0.621000 0
M  V30 23 C 30.414000 10.700000 -4.085000 0
M  V30 24 C 23.816000 10.972000 -0.886000 0
M  V30 25 C 22.144000 12.299000 0.433000 0
M  V30 26 C 27.566000 10.487000 -0.505000 0
M  V30 27 C 25.136000 10.722000 -0.196000 0
M  V30 28 C 21.668000 13.505000 0.953000 0
M  V30 29 C 32.686000 10.468000 -3.193000 0
M  V30 30 C 29.801000 10.502000 -0.751000 0
M  V30 31 C 19.880000 9.567000 3.080000 0
M  V30 32 C 23.279000 12.285000 -0.357000 0
M  V30 33 C 31.084000 10.496000 -1.510000 0
M  V30 34 C 31.276000 10.567000 -2.970000 0
M  V30 35 H 20.020900 6.432200 4.115000 0
M  V30 36 H 34.255200 10.268200 -1.801300 0
M  V30 37 H 26.121000 10.678900 -1.945500 0
M  V30 38 H 30.554300 10.187200 1.172800 0
M  V30 39 H 20.133600 12.783000 3.468100 0
M  V30 40 H 20.999500 11.800500 2.492700 0
M  V30 41 H 22.102400 8.337300 4.319300 0
M  V30 42 H 21.246100 7.676800 5.542900 0
M  V30 43 H 20.176600 6.422400 1.853600 0
M  V30 44 H 21.383200 7.522500 1.880400 0
M  V30 45 H 32.799600 10.652700 -6.413700 0
M  V30 46 H 32.509500 10.255100 0.002200 0
M  V30 47 H 19.056900 11.408000 1.164400 0
M  V30 48 H 18.191200 12.389300 2.141300 0
M  V30 49 H 30.422900 10.814900 -6.170900 0
M  V30 50 H 23.962200 15.530200 -0.261600 0
M  V30 51 H 20.610800 9.964300 5.002200 0
M  V30 52 H 19.364800 8.908700 5.000400 0
M  V30 53 H 18.617000 8.011700 2.494600 0
M  V30 54 H 19.461000 8.651500 1.251600 0
M  V30 55 H 21.940900 15.567800 1.006000 0
M  V30 56 H 17.883500 10.101000 2.779100 0
M  V30 57 H 18.594900 10.942700 3.984200 0
M  V30 58 H 24.745800 13.487000 -1.199300 0
M  V30 59 H 29.423400 10.772100 -3.968600 0
M  V30 60 H 23.175800 10.231800 -0.680400 0
M  V30 61 H 23.951600 11.030400 -1.875000 0
M  V30 62 H 21.663500 11.444900 0.632200 0
M  V30 63 H 20.685300 10.007200 2.682800 0
M  V30 64 H 21.592800 6.218800 3.727000 0
M  V30 END ATOM
M  V30 BEGIN BOND
M  V30 1 1 1 9
M  V30 2 1 1 26
M  V30 3 2 2 27
M  V30 4 1 3 10
M  V30 5 1 3 28
M  V30 6 1 4 11
M  V30 7 1 4 12
M  V30 8 2 5 13
M  V30 9 1 5 29
M  V30 10 1 6 14
M  V30 11 1 6 29
M  V30 12 1 7 26
M  V30 13 1 7 27
M  V30 14 2 8 26
M  V30 15 1 8 30
M  V30 16 2 9 30
M  V30 17 1 10 15
M  V30 18 1 11 18
M  V30 19 1 12 19
M  V30 20 1 13 16
M  V30 21 2 14 33
M  V30 22 1 15 21
M  V30 23 2 16 23
M  V30 24 2 17 20
M  V30 25 1 17 22
M  V30 26 1 18 31
M  V30 27 1 19 31
M  V30 28 1 20 28
M  V30 29 1 21 31
M  V30 30 2 22 32
M  V30 31 1 23 34
M  V30 32 1 24 27
M  V30 33 1 24 32
M  V30 34 2 25 28
M  V30 35 1 25 32
M  V30 36 2 29 34
M  V30 37 1 30 33
M  V30 38 1 33 34
M  V30 39 1 4 35
M  V30 40 1 6 36
M  V30 41 1 7 37
M  V30 42 1 9 38
M  V30 43 1 10 39
M  V30 44 1 10 40
M  V30 45 1 11 41
M  V30 46 1 11 42
M  V30 47 1 12 43
M  V30 48 1 12 44
M  V30 49 1 13 45
M  V30 50 1 14 46
M  V30 51 1 15 47
M  V30 52 1 15 48
M  V30 53 1 16 49
M  V30 54 1 17 50
M  V30 55 1 18 51
M  V30 56 1 18 52
M  V30 57 1 19 53
M  V30 58 1 19 54
M  V30 59 1 20 55
M  V30 60 1 21 56
M  V30 61 1 21 57
M  V30 62 1 22 58
M  V30 63 1 23 59
M  V30 64 1 24 60
M  V30 65 1 24 61
M  V30 66 1 25 62
M  V30 67 1 31 63
M  V30 68 1 4 64
M  V30 END BOND
M  V30 END CTAB
M  END
>  <Ligand_Instance>  (27) 
5UZK_504_A_401

>  <Dataset>  (27) 
PDB

>  <PDB_ID>  (27) 
5UZK

>  <Chain>  (27) 
A

>  <Resi>  (27) 
401

>  <Num_Resolved_Atoms>  (27) 
34

>  <Num_H_Atoms_ProtBoundConf>  (27) 
30

>  <Pocket>  (27) 
A

>  <Name>  (27) 
2-{3-[3-(piperidin-4-yl)propoxy]phenyl}-N-[4-(1H-pyrrolo[2,3-b]pyridin-3-yl)-1,3-thiazol-2-yl]acetamide

>  <Num_Not_Resolved_Atoms>  (27) 
0

>  <ATP_Site>  (27) 
True

>  <Peripheral>  (27) 
False

>  <Standardized_SMILES>  (27) 
[H]C1=C([H])C([H])=C2C(=N1)N([H])C([H])=C2C1=C([H])SC(N([H])C(=O)C([H])([H])C2=C([H])C([H])=C([H])C(OC([H])([H])C([H])([H])C([H])([H])C3([H])C([H])([H])C([H])([H])[N+]([H])([H])C([H])([H])C3([H])[H])=C2[H])=N1

>  <2D_Mol_H>  (27) 
<rdkit.Chem.rdchem.Mol object at 0x77059d9db840>

>  <MW>  (27) 
476.626

>  <HBA>  (27) 
5

>  <HBD>  (27) 
3

>  <LogP>  (27) 
4.0

>  <NRB>  (27) 
9

>  <TPSA>  (27) 
96.51

>  <Num_Heavy_Atoms>  (27) 
34

>  <Ro5>  (27) 
[True, True, True, True, True, True]

>  <Ro5_Fulfilled>  (27) 
True

>  <Ro3>  (27) 
[False, False, True, False]

>  <Ro3_Fulfilled>  (27) 
False

>  <Fsp3>  (27) 
0.346154

>  <Fsp3_0.42>  (27) 
False

>  <Fsp3_0.45>  (27) 
False

>  <Stereogenic_Carbons>  (27) 
0

>  <C_Atoms>  (27) 
26

>  <FCStereo>  (27) 
0.0

>  <SPS>  (27) 
488

>  <nSPS>  (27) 
14.352941

>  <PBF>  (27) 
1.121804

>  <PBF_0.6>  (27) 
True

>  <nPBF>  (27) 
0.032994

>  <nPBF_0.016>  (27) 
True

>  <PMI1>  (27) 
2388.238095

>  <PMI2>  (27) 
13804.834376

>  <PMI3>  (27) 
15029.633386

>  <NPR1>  (27) 
0.158902

>  <NPR2>  (27) 
0.918508

>  <Sum_NPR>  (27) 
1.07741

>  <Sum_NPR_1.07>  (27) 
True

>  <Sum_NPR_1.2>  (27) 
False

>  <MaxAbsEStateIndex>  (27) 
12.632732

>  <MaxEStateIndex>  (27) 
12.632732

>  <MinAbsEStateIndex>  (27) 
0.090049

>  <MinEStateIndex>  (27) 
-0.090049

>  <qed>  (27) 
0.318235

>  <MolWt>  (27) 
476.626

>  <HeavyAtomMolWt>  (27) 
446.386

>  <ExactMolWt>  (27) 
476.211473

>  <NumValenceElectrons>  (27) 
176

>  <NumRadicalElectrons>  (27) 
0

>  <MaxPartialCharge>  (27) 
0.230077

>  <MinPartialCharge>  (27) 
-0.493591

>  <MaxAbsPartialCharge>  (27) 
0.493591

>  <MinAbsPartialCharge>  (27) 
0.230077

>  <FpDensityMorgan1>  (27) 
1.235294

>  <FpDensityMorgan2>  (27) 
2.147059

>  <FpDensityMorgan3>  (27) 
3.058824

>  <BCUT2D_MWHI>  (27) 
32.133491

>  <BCUT2D_MWLOW>  (27) 
9.933577

>  <BCUT2D_CHGHI>  (27) 
2.150411

>  <BCUT2D_CHGLO>  (27) 
-2.195678

>  <BCUT2D_LOGPHI>  (27) 
2.299531

>  <BCUT2D_LOGPLOW>  (27) 
-2.85843

>  <BCUT2D_MRHI>  (27) 
7.137709

>  <BCUT2D_MRLOW>  (27) 
-0.664464

>  <AvgIpc>  (27) 
3.493798

>  <BalabanJ>  (27) 
1.122914

>  <BertzCT>  (27) 
1244.718368

>  <Chi0>  (27) 
23.166715

>  <Chi0n>  (27) 
19.126879

>  <Chi0v>  (27) 
19.943376

>  <Chi1>  (27) 
16.742316

>  <Chi1n>  (27) 
11.956852

>  <Chi1v>  (27) 
12.836505

>  <Chi2n>  (27) 
8.812267

>  <Chi2v>  (27) 
9.67037

>  <Chi3n>  (27) 
6.324243

>  <Chi3v>  (27) 
7.081964

>  <Chi4n>  (27) 
4.563295

>  <Chi4v>  (27) 
5.290041

>  <HallKierAlpha>  (27) 
-3.23

>  <Ipc>  (27) 
116223196.553656

>  <Kappa1>  (27) 
22.556711

>  <Kappa2>  (27) 
10.798118

>  <Kappa3>  (27) 
5.631024

>  <LabuteASA>  (27) 
202.534457

>  <PEOE_VSA1>  (27) 
20.354419

>  <PEOE_VSA10>  (27) 
11.396689

>  <PEOE_VSA11>  (27) 
5.131558

>  <PEOE_VSA12>  (27) 
5.90718

>  <PEOE_VSA13>  (27) 
0.0

>  <PEOE_VSA14>  (27) 
0.0

>  <PEOE_VSA2>  (27) 
4.794537

>  <PEOE_VSA3>  (27) 
9.967957

>  <PEOE_VSA4>  (27) 
0.0

>  <PEOE_VSA5>  (27) 
11.336786

>  <PEOE_VSA6>  (27) 
12.132734

>  <PEOE_VSA7>  (27) 
61.430112

>  <PEOE_VSA8>  (27) 
28.723426

>  <PEOE_VSA9>  (27) 
31.811144

>  <SMR_VSA1>  (27) 
14.848189

>  <SMR_VSA10>  (27) 
33.408926

>  <SMR_VSA2>  (27) 
0.0

>  <SMR_VSA3>  (27) 
14.951936

>  <SMR_VSA4>  (27) 
5.917906

>  <SMR_VSA5>  (27) 
32.104108

>  <SMR_VSA6>  (27) 
25.013183

>  <SMR_VSA7>  (27) 
59.735404

>  <SMR_VSA8>  (27) 
0.0

>  <SMR_VSA9>  (27) 
17.006891

>  <SlogP_VSA1>  (27) 
15.37044

>  <SlogP_VSA10>  (27) 
5.131558

>  <SlogP_VSA11>  (27) 
5.749512

>  <SlogP_VSA12>  (27) 
11.336786

>  <SlogP_VSA2>  (27) 
40.55551

>  <SlogP_VSA3>  (27) 
11.215359

>  <SlogP_VSA4>  (27) 
5.917906

>  <SlogP_VSA5>  (27) 
31.246738

>  <SlogP_VSA6>  (27) 
54.171952

>  <SlogP_VSA7>  (27) 
0.0

>  <SlogP_VSA8>  (27) 
22.290781

>  <SlogP_VSA9>  (27) 
0.0

>  <EState_VSA1>  (27) 
0.0

>  <EState_VSA10>  (27) 
4.794537

>  <EState_VSA11>  (27) 
0.0

>  <EState_VSA2>  (27) 
12.328001

>  <EState_VSA3>  (27) 
5.131558

>  <EState_VSA4>  (27) 
52.549354

>  <EState_VSA5>  (27) 
43.688764

>  <EState_VSA6>  (27) 
6.196844

>  <EState_VSA7>  (27) 
47.975109

>  <EState_VSA8>  (27) 
25.585513

>  <EState_VSA9>  (27) 
4.736863

>  <VSA_EState1>  (27) 
5.959515

>  <VSA_EState10>  (27) 
1.419583

>  <VSA_EState2>  (27) 
24.7177

>  <VSA_EState3>  (27) 
8.886684

>  <VSA_EState4>  (27) 
3.551803

>  <VSA_EState5>  (27) 
1.585319

>  <VSA_EState6>  (27) 
11.734048

>  <VSA_EState7>  (27) 
8.897329

>  <VSA_EState8>  (27) 
3.24802

>  <VSA_EState9>  (27) 
0.0

>  <FractionCSP3>  (27) 
0.346154

>  <HeavyAtomCount>  (27) 
34

>  <NHOHCount>  (27) 
4

>  <NOCount>  (27) 
7

>  <NumAliphaticCarbocycles>  (27) 
0

>  <NumAliphaticHeterocycles>  (27) 
1

>  <NumAliphaticRings>  (27) 
1

>  <NumAromaticCarbocycles>  (27) 
1

>  <NumAromaticHeterocycles>  (27) 
3

>  <NumAromaticRings>  (27) 
4

>  <NumHAcceptors>  (27) 
5

>  <NumHDonors>  (27) 
3

>  <NumHeteroatoms>  (27) 
8

>  <NumRotatableBonds>  (27) 
9

>  <NumSaturatedCarbocycles>  (27) 
0

>  <NumSaturatedHeterocycles>  (27) 
1

>  <NumSaturatedRings>  (27) 
1

>  <RingCount>  (27) 
5

>  <MolLogP>  (27) 
4.0

>  <MolMR>  (27) 
135.0898

>  <fr_Al_COO>  (27) 
0

>  <fr_Al_OH>  (27) 
0

>  <fr_Al_OH_noTert>  (27) 
0

>  <fr_ArN>  (27) 
0

>  <fr_Ar_COO>  (27) 
0

>  <fr_Ar_N>  (27) 
3

>  <fr_Ar_NH>  (27) 
1

>  <fr_Ar_OH>  (27) 
0

>  <fr_COO>  (27) 
0

>  <fr_COO2>  (27) 
0

>  <fr_C_O>  (27) 
1

>  <fr_C_O_noCOO>  (27) 
1

>  <fr_C_S>  (27) 
0

>  <fr_HOCCN>  (27) 
0

>  <fr_Imine>  (27) 
0

>  <fr_NH0>  (27) 
2

>  <fr_NH1>  (27) 
2

>  <fr_NH2>  (27) 
1

>  <fr_N_O>  (27) 
0

>  <fr_Ndealkylation1>  (27) 
0

>  <fr_Ndealkylation2>  (27) 
0

>  <fr_Nhpyrrole>  (27) 
1

>  <fr_SH>  (27) 
0

>  <fr_aldehyde>  (27) 
0

>  <fr_alkyl_carbamate>  (27) 
0

>  <fr_alkyl_halide>  (27) 
0

>  <fr_allylic_oxid>  (27) 
0

>  <fr_amide>  (27) 
1

>  <fr_amidine>  (27) 
0

>  <fr_aniline>  (27) 
1

>  <fr_aryl_methyl>  (27) 
0

>  <fr_azide>  (27) 
0

>  <fr_azo>  (27) 
0

>  <fr_barbitur>  (27) 
0

>  <fr_benzene>  (27) 
1

>  <fr_benzodiazepine>  (27) 
0

>  <fr_bicyclic>  (27) 
1

>  <fr_diazo>  (27) 
0

>  <fr_dihydropyridine>  (27) 
0

>  <fr_epoxide>  (27) 
0

>  <fr_ester>  (27) 
0

>  <fr_ether>  (27) 
1

>  <fr_furan>  (27) 
0

>  <fr_guanido>  (27) 
0

>  <fr_halogen>  (27) 
0

>  <fr_hdrzine>  (27) 
0

>  <fr_hdrzone>  (27) 
0

>  <fr_imidazole>  (27) 
0

>  <fr_imide>  (27) 
0

>  <fr_isocyan>  (27) 
0

>  <fr_isothiocyan>  (27) 
0

>  <fr_ketone>  (27) 
0

>  <fr_ketone_Topliss>  (27) 
0

>  <fr_lactam>  (27) 
0

>  <fr_lactone>  (27) 
0

>  <fr_methoxy>  (27) 
0

>  <fr_morpholine>  (27) 
0

>  <fr_nitrile>  (27) 
0

>  <fr_nitro>  (27) 
0

>  <fr_nitro_arom>  (27) 
0

>  <fr_nitro_arom_nonortho>  (27) 
0

>  <fr_nitroso>  (27) 
0

>  <fr_oxazole>  (27) 
0

>  <fr_oxime>  (27) 
0

>  <fr_para_hydroxylation>  (27) 
0

>  <fr_phenol>  (27) 
0

>  <fr_phenol_noOrthoHbond>  (27) 
0

>  <fr_phos_acid>  (27) 
0

>  <fr_phos_ester>  (27) 
0

>  <fr_piperdine>  (27) 
1

>  <fr_piperzine>  (27) 
0

>  <fr_priamide>  (27) 
0

>  <fr_prisulfonamd>  (27) 
0

>  <fr_pyridine>  (27) 
1

>  <fr_quatN>  (27) 
1

>  <fr_sulfide>  (27) 
0

>  <fr_sulfonamd>  (27) 
0

>  <fr_sulfone>  (27) 
0

>  <fr_term_acetylene>  (27) 
0

>  <fr_tetrazole>  (27) 
0

>  <fr_thiazole>  (27) 
1

>  <fr_thiocyan>  (27) 
0

>  <fr_thiophene>  (27) 
0

>  <fr_unbrch_alkane>  (27) 
0

>  <fr_urea>  (27) 
0

>  <NP_Likeness>  (27) 
-1.384147

$$$$
5AO
     RDKit          3D

  0  0  0  0  0  0  0  0  0  0999 V3000
M  V30 BEGIN CTAB
M  V30 COUNTS 20 21 0 0 0
M  V30 BEGIN ATOM
M  V30 1 O -20.955000 33.377000 -29.240000 0
M  V30 2 N -22.330000 27.494000 -29.874000 0
M  V30 3 N -18.997000 33.141000 -28.206000 0
M  V30 4 C -19.883000 33.958000 -28.648000 0
M  V30 5 C -23.722000 30.728000 -30.936000 0
M  V30 6 C -19.512000 31.904000 -28.532000 0
M  V30 7 C -23.588000 29.365000 -30.743000 0
M  V30 8 C -22.778000 31.600000 -30.428000 0
M  V30 9 C -21.528000 29.739000 -29.560000 0
M  V30 10 C -22.484000 28.851000 -30.052000 0
M  V30 11 C -20.697000 32.030000 -29.154000 0
M  V30 12 C -21.673000 31.112000 -29.736000 0
M  V30 13 H -21.536200 27.141600 -29.378300 0
M  V30 14 H -23.012000 26.861100 -30.240500 0
M  V30 15 H -19.789200 34.949900 -28.561900 0
M  V30 16 H -24.505400 31.084000 -31.445400 0
M  V30 17 H -19.064800 31.032000 -28.332800 0
M  V30 18 H -24.284500 28.742200 -31.099500 0
M  V30 19 H -22.889000 32.585300 -30.558000 0
M  V30 20 H -20.728500 29.385000 -29.074800 0
M  V30 END ATOM
M  V30 BEGIN BOND
M  V30 1 1 1 4
M  V30 2 1 1 11
M  V30 3 1 2 10
M  V30 4 2 3 4
M  V30 5 1 3 6
M  V30 6 2 5 7
M  V30 7 1 5 8
M  V30 8 2 6 11
M  V30 9 1 7 10
M  V30 10 2 8 12
M  V30 11 2 9 10
M  V30 12 1 9 12
M  V30 13 1 11 12
M  V30 14 1 2 13
M  V30 15 1 2 14
M  V30 16 1 4 15
M  V30 17 1 5 16
M  V30 18 1 6 17
M  V30 19 1 7 18
M  V30 20 1 8 19
M  V30 21 1 9 20
M  V30 END BOND
M  V30 END CTAB
M  END
>  <Ligand_Instance>  (28) 
5N3O_5AO_A_403

>  <Dataset>  (28) 
PDB

>  <PDB_ID>  (28) 
5N3O

>  <Chain>  (28) 
A

>  <Resi>  (28) 
403

>  <Num_Resolved_Atoms>  (28) 
12

>  <Num_H_Atoms_ProtBoundConf>  (28) 
8

>  <Pocket>  (28) 
X

>  <Name>  (28) 
3-(1,3-oxazol-5-yl)aniline

>  <Num_Not_Resolved_Atoms>  (28) 
0

>  <ATP_Site>  (28) 
True

>  <Peripheral>  (28) 
True

>  <Standardized_SMILES>  (28) 
[H]C1=NC([H])=C(C2=C([H])C(N([H])[H])=C([H])C([H])=C2[H])O1

>  <2D_Mol_H>  (28) 
<rdkit.Chem.rdchem.Mol object at 0x77059d9db920>

>  <MW>  (28) 
160.176

>  <HBA>  (28) 
3

>  <HBD>  (28) 
1

>  <LogP>  (28) 
1.9238

>  <NRB>  (28) 
2

>  <TPSA>  (28) 
52.05

>  <Num_Heavy_Atoms>  (28) 
12

>  <Ro5>  (28) 
[True, True, True, True, True, True]

>  <Ro5_Fulfilled>  (28) 
True

>  <Ro3>  (28) 
[True, True, True, True]

>  <Ro3_Fulfilled>  (28) 
True

>  <Fsp3>  (28) 
0.0

>  <Fsp3_0.42>  (28) 
False

>  <Fsp3_0.45>  (28) 
False

>  <Stereogenic_Carbons>  (28) 
0

>  <C_Atoms>  (28) 
9

>  <FCStereo>  (28) 
0.0

>  <SPS>  (28) 
120

>  <nSPS>  (28) 
10.0

>  <PBF>  (28) 
0.056586

>  <PBF_0.6>  (28) 
False

>  <nPBF>  (28) 
0.004715

>  <nPBF_0.016>  (28) 
False

>  <PMI1>  (28) 
199.011205

>  <PMI2>  (28) 
902.801825

>  <PMI3>  (28) 
1100.817941

>  <NPR1>  (28) 
0.180785

>  <NPR2>  (28) 
0.820119

>  <Sum_NPR>  (28) 
1.000904

>  <Sum_NPR_1.07>  (28) 
False

>  <Sum_NPR_1.2>  (28) 
False

>  <MaxAbsEStateIndex>  (28) 
5.602613

>  <MaxEStateIndex>  (28) 
5.602613

>  <MinAbsEStateIndex>  (28) 
0.725833

>  <MinEStateIndex>  (28) 
0.725833

>  <qed>  (28) 
0.648202

>  <MolWt>  (28) 
160.176

>  <HeavyAtomMolWt>  (28) 
152.112

>  <ExactMolWt>  (28) 
160.063663

>  <NumValenceElectrons>  (28) 
60

>  <NumRadicalElectrons>  (28) 
0

>  <MaxPartialCharge>  (28) 
0.180889

>  <MinPartialCharge>  (28) 
-0.44352

>  <MaxAbsPartialCharge>  (28) 
0.44352

>  <MinAbsPartialCharge>  (28) 
0.180889

>  <FpDensityMorgan1>  (28) 
1.333333

>  <FpDensityMorgan2>  (28) 
2.25

>  <FpDensityMorgan3>  (28) 
2.916667

>  <BCUT2D_MWHI>  (28) 
16.340598

>  <BCUT2D_MWLOW>  (28) 
10.153035

>  <BCUT2D_CHGHI>  (28) 
1.990739

>  <BCUT2D_CHGLO>  (28) 
-1.956548

>  <BCUT2D_LOGPHI>  (28) 
2.19486

>  <BCUT2D_LOGPLOW>  (28) 
-1.830812

>  <BCUT2D_MRHI>  (28) 
5.610575

>  <BCUT2D_MRLOW>  (28) 
0.571774

>  <AvgIpc>  (28) 
2.557102

>  <BalabanJ>  (28) 
2.480542

>  <BertzCT>  (28) 
367.777378

>  <Chi0>  (28) 
8.388905

>  <Chi0n>  (28) 
6.396914

>  <Chi0v>  (28) 
6.396914

>  <Chi1>  (28) 
5.860173

>  <Chi1n>  (28) 
3.604942

>  <Chi1v>  (28) 
3.604942

>  <Chi2n>  (28) 
2.491145

>  <Chi2v>  (28) 
2.491145

>  <Chi3n>  (28) 
1.603465

>  <Chi3v>  (28) 
1.603465

>  <Chi4n>  (28) 
1.05028

>  <Chi4v>  (28) 
1.05028

>  <HallKierAlpha>  (28) 
-1.77

>  <Ipc>  (28) 
1071.425836

>  <Kappa1>  (28) 
6.91066

>  <Kappa2>  (28) 
2.695266

>  <Kappa3>  (28) 
1.16337

>  <LabuteASA>  (28) 
69.842365

>  <PEOE_VSA1>  (28) 
10.150818

>  <PEOE_VSA10>  (28) 
0.0

>  <PEOE_VSA11>  (28) 
12.153887

>  <PEOE_VSA12>  (28) 
0.0

>  <PEOE_VSA13>  (28) 
0.0

>  <PEOE_VSA14>  (28) 
0.0

>  <PEOE_VSA2>  (28) 
0.0

>  <PEOE_VSA3>  (28) 
4.983979

>  <PEOE_VSA4>  (28) 
0.0

>  <PEOE_VSA5>  (28) 
0.0

>  <PEOE_VSA6>  (28) 
12.132734

>  <PEOE_VSA7>  (28) 
12.132734

>  <PEOE_VSA8>  (28) 
11.250838

>  <PEOE_VSA9>  (28) 
6.196844

>  <SMR_VSA1>  (28) 
4.417151

>  <SMR_VSA10>  (28) 
5.687386

>  <SMR_VSA2>  (28) 
0.0

>  <SMR_VSA3>  (28) 
4.983979

>  <SMR_VSA4>  (28) 
0.0

>  <SMR_VSA5>  (28) 
0.0

>  <SMR_VSA6>  (28) 
5.733667

>  <SMR_VSA7>  (28) 
36.855951

>  <SMR_VSA8>  (28) 
0.0

>  <SMR_VSA9>  (28) 
11.323699

>  <SlogP_VSA1>  (28) 
5.733667

>  <SlogP_VSA10>  (28) 
5.687386

>  <SlogP_VSA11>  (28) 
0.0

>  <SlogP_VSA12>  (28) 
0.0

>  <SlogP_VSA2>  (28) 
4.983979

>  <SlogP_VSA3>  (28) 
0.0

>  <SlogP_VSA4>  (28) 
0.0

>  <SlogP_VSA5>  (28) 
0.0

>  <SlogP_VSA6>  (28) 
41.273102

>  <SlogP_VSA7>  (28) 
0.0

>  <SlogP_VSA8>  (28) 
11.323699

>  <SlogP_VSA9>  (28) 
0.0

>  <EState_VSA1>  (28) 
0.0

>  <EState_VSA10>  (28) 
0.0

>  <EState_VSA11>  (28) 
0.0

>  <EState_VSA2>  (28) 
0.0

>  <EState_VSA3>  (28) 
0.0

>  <EState_VSA4>  (28) 
17.011085

>  <EState_VSA5>  (28) 
6.393639

>  <EState_VSA6>  (28) 
6.196844

>  <EState_VSA7>  (28) 
24.265468

>  <EState_VSA8>  (28) 
4.983979

>  <EState_VSA9>  (28) 
10.150818

>  <VSA_EState1>  (28) 
5.10787

>  <VSA_EState10>  (28) 
0.0

>  <VSA_EState2>  (28) 
3.820741

>  <VSA_EState3>  (28) 
0.0

>  <VSA_EState4>  (28) 
7.279836

>  <VSA_EState5>  (28) 
0.738241

>  <VSA_EState6>  (28) 
7.490518

>  <VSA_EState7>  (28) 
3.062795

>  <VSA_EState8>  (28) 
0.0

>  <VSA_EState9>  (28) 
0.0

>  <FractionCSP3>  (28) 
0.0

>  <HeavyAtomCount>  (28) 
12

>  <NHOHCount>  (28) 
2

>  <NOCount>  (28) 
3

>  <NumAliphaticCarbocycles>  (28) 
0

>  <NumAliphaticHeterocycles>  (28) 
0

>  <NumAliphaticRings>  (28) 
0

>  <NumAromaticCarbocycles>  (28) 
1

>  <NumAromaticHeterocycles>  (28) 
1

>  <NumAromaticRings>  (28) 
2

>  <NumHAcceptors>  (28) 
3

>  <NumHDonors>  (28) 
1

>  <NumHeteroatoms>  (28) 
3

>  <NumRotatableBonds>  (28) 
1

>  <NumSaturatedCarbocycles>  (28) 
0

>  <NumSaturatedHeterocycles>  (28) 
0

>  <NumSaturatedRings>  (28) 
0

>  <RingCount>  (28) 
2

>  <MolLogP>  (28) 
1.9238

>  <MolMR>  (28) 
46.3514

>  <fr_Al_COO>  (28) 
0

>  <fr_Al_OH>  (28) 
0

>  <fr_Al_OH_noTert>  (28) 
0

>  <fr_ArN>  (28) 
1

>  <fr_Ar_COO>  (28) 
0

>  <fr_Ar_N>  (28) 
1

>  <fr_Ar_NH>  (28) 
0

>  <fr_Ar_OH>  (28) 
0

>  <fr_COO>  (28) 
0

>  <fr_COO2>  (28) 
0

>  <fr_C_O>  (28) 
0

>  <fr_C_O_noCOO>  (28) 
0

>  <fr_C_S>  (28) 
0

>  <fr_HOCCN>  (28) 
0

>  <fr_Imine>  (28) 
0

>  <fr_NH0>  (28) 
1

>  <fr_NH1>  (28) 
0

>  <fr_NH2>  (28) 
1

>  <fr_N_O>  (28) 
0

>  <fr_Ndealkylation1>  (28) 
0

>  <fr_Ndealkylation2>  (28) 
0

>  <fr_Nhpyrrole>  (28) 
0

>  <fr_SH>  (28) 
0

>  <fr_aldehyde>  (28) 
0

>  <fr_alkyl_carbamate>  (28) 
0

>  <fr_alkyl_halide>  (28) 
0

>  <fr_allylic_oxid>  (28) 
0

>  <fr_amide>  (28) 
0

>  <fr_amidine>  (28) 
0

>  <fr_aniline>  (28) 
1

>  <fr_aryl_methyl>  (28) 
0

>  <fr_azide>  (28) 
0

>  <fr_azo>  (28) 
0

>  <fr_barbitur>  (28) 
0

>  <fr_benzene>  (28) 
1

>  <fr_benzodiazepine>  (28) 
0

>  <fr_bicyclic>  (28) 
0

>  <fr_diazo>  (28) 
0

>  <fr_dihydropyridine>  (28) 
0

>  <fr_epoxide>  (28) 
0

>  <fr_ester>  (28) 
0

>  <fr_ether>  (28) 
0

>  <fr_furan>  (28) 
0

>  <fr_guanido>  (28) 
0

>  <fr_halogen>  (28) 
0

>  <fr_hdrzine>  (28) 
0

>  <fr_hdrzone>  (28) 
0

>  <fr_imidazole>  (28) 
0

>  <fr_imide>  (28) 
0

>  <fr_isocyan>  (28) 
0

>  <fr_isothiocyan>  (28) 
0

>  <fr_ketone>  (28) 
0

>  <fr_ketone_Topliss>  (28) 
0

>  <fr_lactam>  (28) 
0

>  <fr_lactone>  (28) 
0

>  <fr_methoxy>  (28) 
0

>  <fr_morpholine>  (28) 
0

>  <fr_nitrile>  (28) 
0

>  <fr_nitro>  (28) 
0

>  <fr_nitro_arom>  (28) 
0

>  <fr_nitro_arom_nonortho>  (28) 
0

>  <fr_nitroso>  (28) 
0

>  <fr_oxazole>  (28) 
1

>  <fr_oxime>  (28) 
0

>  <fr_para_hydroxylation>  (28) 
0

>  <fr_phenol>  (28) 
0

>  <fr_phenol_noOrthoHbond>  (28) 
0

>  <fr_phos_acid>  (28) 
0

>  <fr_phos_ester>  (28) 
0

>  <fr_piperdine>  (28) 
0

>  <fr_piperzine>  (28) 
0

>  <fr_priamide>  (28) 
0

>  <fr_prisulfonamd>  (28) 
0

>  <fr_pyridine>  (28) 
0

>  <fr_quatN>  (28) 
0

>  <fr_sulfide>  (28) 
0

>  <fr_sulfonamd>  (28) 
0

>  <fr_sulfone>  (28) 
0

>  <fr_term_acetylene>  (28) 
0

>  <fr_tetrazole>  (28) 
0

>  <fr_thiazole>  (28) 
0

>  <fr_thiocyan>  (28) 
0

>  <fr_thiophene>  (28) 
0

>  <fr_unbrch_alkane>  (28) 
0

>  <fr_urea>  (28) 
0

>  <NP_Likeness>  (28) 
-0.998874

$$$$
5AO
     RDKit          3D

  0  0  0  0  0  0  0  0  0  0999 V3000
M  V30 BEGIN CTAB
M  V30 COUNTS 20 21 0 0 0
M  V30 BEGIN ATOM
M  V30 1 O -10.463000 4.021000 -28.664000 0
M  V30 2 N -15.370000 4.858000 -29.295000 0
M  V30 3 N -8.893000 2.550000 -28.119000 0
M  V30 4 C -9.202000 3.787000 -28.235000 0
M  V30 5 C -14.283000 1.426000 -30.034000 0
M  V30 6 C -10.040000 1.892000 -28.518000 0
M  V30 7 C -15.084000 2.547000 -29.934000 0
M  V30 8 C -12.942000 1.496000 -29.699000 0
M  V30 9 C -13.193000 3.829000 -29.195000 0
M  V30 10 C -14.552000 3.759000 -29.492000 0
M  V30 11 C -10.995000 2.773000 -28.859000 0
M  V30 12 C -12.382000 2.703000 -29.296000 0
M  V30 13 H -14.978900 5.722000 -28.978000 0
M  V30 14 H -16.352100 4.788000 -29.469600 0
M  V30 15 H -8.559800 4.524100 -28.024400 0
M  V30 16 H -14.673400 0.561100 -30.349500 0
M  V30 17 H -10.144900 0.898000 -28.548700 0
M  V30 18 H -16.051600 2.489600 -30.180000 0
M  V30 19 H -12.373400 0.674800 -29.747000 0
M  V30 20 H -12.795100 4.699600 -28.905500 0
M  V30 END ATOM
M  V30 BEGIN BOND
M  V30 1 1 1 4
M  V30 2 1 1 11
M  V30 3 1 2 10
M  V30 4 2 3 4
M  V30 5 1 3 6
M  V30 6 2 5 7
M  V30 7 1 5 8
M  V30 8 2 6 11
M  V30 9 1 7 10
M  V30 10 2 8 12
M  V30 11 2 9 10
M  V30 12 1 9 12
M  V30 13 1 11 12
M  V30 14 1 2 13
M  V30 15 1 2 14
M  V30 16 1 4 15
M  V30 17 1 5 16
M  V30 18 1 6 17
M  V30 19 1 7 18
M  V30 20 1 8 19
M  V30 21 1 9 20
M  V30 END BOND
M  V30 END CTAB
M  END
>  <Ligand_Instance>  (29) 
5N3O_5AO_A_404

>  <Dataset>  (29) 
PDB

>  <PDB_ID>  (29) 
5N3O

>  <Chain>  (29) 
A

>  <Resi>  (29) 
404

>  <Num_Resolved_Atoms>  (29) 
12

>  <Num_H_Atoms_ProtBoundConf>  (29) 
8

>  <Pocket>  (29) 
A

>  <Name>  (29) 
3-(1,3-oxazol-5-yl)aniline

>  <Num_Not_Resolved_Atoms>  (29) 
0

>  <ATP_Site>  (29) 
True

>  <Peripheral>  (29) 
True

>  <Standardized_SMILES>  (29) 
[H]C1=NC([H])=C(C2=C([H])C(N([H])[H])=C([H])C([H])=C2[H])O1

>  <2D_Mol_H>  (29) 
<rdkit.Chem.rdchem.Mol object at 0x77059d9dba00>

>  <MW>  (29) 
160.176

>  <HBA>  (29) 
3

>  <HBD>  (29) 
1

>  <LogP>  (29) 
1.9238

>  <NRB>  (29) 
2

>  <TPSA>  (29) 
52.05

>  <Num_Heavy_Atoms>  (29) 
12

>  <Ro5>  (29) 
[True, True, True, True, True, True]

>  <Ro5_Fulfilled>  (29) 
True

>  <Ro3>  (29) 
[True, True, True, True]

>  <Ro3_Fulfilled>  (29) 
True

>  <Fsp3>  (29) 
0.0

>  <Fsp3_0.42>  (29) 
False

>  <Fsp3_0.45>  (29) 
False

>  <Stereogenic_Carbons>  (29) 
0

>  <C_Atoms>  (29) 
9

>  <FCStereo>  (29) 
0.0

>  <SPS>  (29) 
120

>  <nSPS>  (29) 
10.0

>  <PBF>  (29) 
0.139439

>  <PBF_0.6>  (29) 
False

>  <nPBF>  (29) 
0.01162

>  <nPBF_0.016>  (29) 
False

>  <PMI1>  (29) 
208.208035

>  <PMI2>  (29) 
878.91552

>  <PMI3>  (29) 
1080.280452

>  <NPR1>  (29) 
0.192735

>  <NPR2>  (29) 
0.813599

>  <Sum_NPR>  (29) 
1.006335

>  <Sum_NPR_1.07>  (29) 
False

>  <Sum_NPR_1.2>  (29) 
False

>  <MaxAbsEStateIndex>  (29) 
5.602613

>  <MaxEStateIndex>  (29) 
5.602613

>  <MinAbsEStateIndex>  (29) 
0.725833

>  <MinEStateIndex>  (29) 
0.725833

>  <qed>  (29) 
0.648202

>  <MolWt>  (29) 
160.176

>  <HeavyAtomMolWt>  (29) 
152.112

>  <ExactMolWt>  (29) 
160.063663

>  <NumValenceElectrons>  (29) 
60

>  <NumRadicalElectrons>  (29) 
0

>  <MaxPartialCharge>  (29) 
0.180889

>  <MinPartialCharge>  (29) 
-0.44352

>  <MaxAbsPartialCharge>  (29) 
0.44352

>  <MinAbsPartialCharge>  (29) 
0.180889

>  <FpDensityMorgan1>  (29) 
1.333333

>  <FpDensityMorgan2>  (29) 
2.25

>  <FpDensityMorgan3>  (29) 
2.916667

>  <BCUT2D_MWHI>  (29) 
16.340598

>  <BCUT2D_MWLOW>  (29) 
10.153035

>  <BCUT2D_CHGHI>  (29) 
1.990739

>  <BCUT2D_CHGLO>  (29) 
-1.956548

>  <BCUT2D_LOGPHI>  (29) 
2.19486

>  <BCUT2D_LOGPLOW>  (29) 
-1.830812

>  <BCUT2D_MRHI>  (29) 
5.610575

>  <BCUT2D_MRLOW>  (29) 
0.571774

>  <AvgIpc>  (29) 
2.557102

>  <BalabanJ>  (29) 
2.480542

>  <BertzCT>  (29) 
367.777378

>  <Chi0>  (29) 
8.388905

>  <Chi0n>  (29) 
6.396914

>  <Chi0v>  (29) 
6.396914

>  <Chi1>  (29) 
5.860173

>  <Chi1n>  (29) 
3.604942

>  <Chi1v>  (29) 
3.604942

>  <Chi2n>  (29) 
2.491145

>  <Chi2v>  (29) 
2.491145

>  <Chi3n>  (29) 
1.603465

>  <Chi3v>  (29) 
1.603465

>  <Chi4n>  (29) 
1.05028

>  <Chi4v>  (29) 
1.05028

>  <HallKierAlpha>  (29) 
-1.77

>  <Ipc>  (29) 
1071.425836

>  <Kappa1>  (29) 
6.91066

>  <Kappa2>  (29) 
2.695266

>  <Kappa3>  (29) 
1.16337

>  <LabuteASA>  (29) 
69.842365

>  <PEOE_VSA1>  (29) 
10.150818

>  <PEOE_VSA10>  (29) 
0.0

>  <PEOE_VSA11>  (29) 
12.153887

>  <PEOE_VSA12>  (29) 
0.0

>  <PEOE_VSA13>  (29) 
0.0

>  <PEOE_VSA14>  (29) 
0.0

>  <PEOE_VSA2>  (29) 
0.0

>  <PEOE_VSA3>  (29) 
4.983979

>  <PEOE_VSA4>  (29) 
0.0

>  <PEOE_VSA5>  (29) 
0.0

>  <PEOE_VSA6>  (29) 
12.132734

>  <PEOE_VSA7>  (29) 
12.132734

>  <PEOE_VSA8>  (29) 
11.250838

>  <PEOE_VSA9>  (29) 
6.196844

>  <SMR_VSA1>  (29) 
4.417151

>  <SMR_VSA10>  (29) 
5.687386

>  <SMR_VSA2>  (29) 
0.0

>  <SMR_VSA3>  (29) 
4.983979

>  <SMR_VSA4>  (29) 
0.0

>  <SMR_VSA5>  (29) 
0.0

>  <SMR_VSA6>  (29) 
5.733667

>  <SMR_VSA7>  (29) 
36.855951

>  <SMR_VSA8>  (29) 
0.0

>  <SMR_VSA9>  (29) 
11.323699

>  <SlogP_VSA1>  (29) 
5.733667

>  <SlogP_VSA10>  (29) 
5.687386

>  <SlogP_VSA11>  (29) 
0.0

>  <SlogP_VSA12>  (29) 
0.0

>  <SlogP_VSA2>  (29) 
4.983979

>  <SlogP_VSA3>  (29) 
0.0

>  <SlogP_VSA4>  (29) 
0.0

>  <SlogP_VSA5>  (29) 
0.0

>  <SlogP_VSA6>  (29) 
41.273102

>  <SlogP_VSA7>  (29) 
0.0

>  <SlogP_VSA8>  (29) 
11.323699

>  <SlogP_VSA9>  (29) 
0.0

>  <EState_VSA1>  (29) 
0.0

>  <EState_VSA10>  (29) 
0.0

>  <EState_VSA11>  (29) 
0.0

>  <EState_VSA2>  (29) 
0.0

>  <EState_VSA3>  (29) 
0.0

>  <EState_VSA4>  (29) 
17.011085

>  <EState_VSA5>  (29) 
6.393639

>  <EState_VSA6>  (29) 
6.196844

>  <EState_VSA7>  (29) 
24.265468

>  <EState_VSA8>  (29) 
4.983979

>  <EState_VSA9>  (29) 
10.150818

>  <VSA_EState1>  (29) 
5.10787

>  <VSA_EState10>  (29) 
0.0

>  <VSA_EState2>  (29) 
3.820741

>  <VSA_EState3>  (29) 
0.0

>  <VSA_EState4>  (29) 
7.279836

>  <VSA_EState5>  (29) 
0.738241

>  <VSA_EState6>  (29) 
7.490518

>  <VSA_EState7>  (29) 
3.062795

>  <VSA_EState8>  (29) 
0.0

>  <VSA_EState9>  (29) 
0.0

>  <FractionCSP3>  (29) 
0.0

>  <HeavyAtomCount>  (29) 
12

>  <NHOHCount>  (29) 
2

>  <NOCount>  (29) 
3

>  <NumAliphaticCarbocycles>  (29) 
0

>  <NumAliphaticHeterocycles>  (29) 
0

>  <NumAliphaticRings>  (29) 
0

>  <NumAromaticCarbocycles>  (29) 
1

>  <NumAromaticHeterocycles>  (29) 
1

>  <NumAromaticRings>  (29) 
2

>  <NumHAcceptors>  (29) 
3

>  <NumHDonors>  (29) 
1

>  <NumHeteroatoms>  (29) 
3

>  <NumRotatableBonds>  (29) 
1

>  <NumSaturatedCarbocycles>  (29) 
0

>  <NumSaturatedHeterocycles>  (29) 
0

>  <NumSaturatedRings>  (29) 
0

>  <RingCount>  (29) 
2

>  <MolLogP>  (29) 
1.9238

>  <MolMR>  (29) 
46.3514

>  <fr_Al_COO>  (29) 
0

>  <fr_Al_OH>  (29) 
0

>  <fr_Al_OH_noTert>  (29) 
0

>  <fr_ArN>  (29) 
1

>  <fr_Ar_COO>  (29) 
0

>  <fr_Ar_N>  (29) 
1

>  <fr_Ar_NH>  (29) 
0

>  <fr_Ar_OH>  (29) 
0

>  <fr_COO>  (29) 
0

>  <fr_COO2>  (29) 
0

>  <fr_C_O>  (29) 
0

>  <fr_C_O_noCOO>  (29) 
0

>  <fr_C_S>  (29) 
0

>  <fr_HOCCN>  (29) 
0

>  <fr_Imine>  (29) 
0

>  <fr_NH0>  (29) 
1

>  <fr_NH1>  (29) 
0

>  <fr_NH2>  (29) 
1

>  <fr_N_O>  (29) 
0

>  <fr_Ndealkylation1>  (29) 
0

>  <fr_Ndealkylation2>  (29) 
0

>  <fr_Nhpyrrole>  (29) 
0

>  <fr_SH>  (29) 
0

>  <fr_aldehyde>  (29) 
0

>  <fr_alkyl_carbamate>  (29) 
0

>  <fr_alkyl_halide>  (29) 
0

>  <fr_allylic_oxid>  (29) 
0

>  <fr_amide>  (29) 
0

>  <fr_amidine>  (29) 
0

>  <fr_aniline>  (29) 
1

>  <fr_aryl_methyl>  (29) 
0

>  <fr_azide>  (29) 
0

>  <fr_azo>  (29) 
0

>  <fr_barbitur>  (29) 
0

>  <fr_benzene>  (29) 
1

>  <fr_benzodiazepine>  (29) 
0

>  <fr_bicyclic>  (29) 
0

>  <fr_diazo>  (29) 
0

>  <fr_dihydropyridine>  (29) 
0

>  <fr_epoxide>  (29) 
0

>  <fr_ester>  (29) 
0

>  <fr_ether>  (29) 
0

>  <fr_furan>  (29) 
0

>  <fr_guanido>  (29) 
0

>  <fr_halogen>  (29) 
0

>  <fr_hdrzine>  (29) 
0

>  <fr_hdrzone>  (29) 
0

>  <fr_imidazole>  (29) 
0

>  <fr_imide>  (29) 
0

>  <fr_isocyan>  (29) 
0

>  <fr_isothiocyan>  (29) 
0

>  <fr_ketone>  (29) 
0

>  <fr_ketone_Topliss>  (29) 
0

>  <fr_lactam>  (29) 
0

>  <fr_lactone>  (29) 
0

>  <fr_methoxy>  (29) 
0

>  <fr_morpholine>  (29) 
0

>  <fr_nitrile>  (29) 
0

>  <fr_nitro>  (29) 
0

>  <fr_nitro_arom>  (29) 
0

>  <fr_nitro_arom_nonortho>  (29) 
0

>  <fr_nitroso>  (29) 
0

>  <fr_oxazole>  (29) 
1

>  <fr_oxime>  (29) 
0

>  <fr_para_hydroxylation>  (29) 
0

>  <fr_phenol>  (29) 
0

>  <fr_phenol_noOrthoHbond>  (29) 
0

>  <fr_phos_acid>  (29) 
0

>  <fr_phos_ester>  (29) 
0

>  <fr_piperdine>  (29) 
0

>  <fr_piperzine>  (29) 
0

>  <fr_priamide>  (29) 
0

>  <fr_prisulfonamd>  (29) 
0

>  <fr_pyridine>  (29) 
0

>  <fr_quatN>  (29) 
0

>  <fr_sulfide>  (29) 
0

>  <fr_sulfonamd>  (29) 
0

>  <fr_sulfone>  (29) 
0

>  <fr_term_acetylene>  (29) 
0

>  <fr_tetrazole>  (29) 
0

>  <fr_thiazole>  (29) 
0

>  <fr_thiocyan>  (29) 
0

>  <fr_thiophene>  (29) 
0

>  <fr_unbrch_alkane>  (29) 
0

>  <fr_urea>  (29) 
0

>  <NP_Likeness>  (29) 
-0.998874

$$$$
5AO
     RDKit          3D

  0  0  0  0  0  0  0  0  0  0999 V3000
M  V30 BEGIN CTAB
M  V30 COUNTS 20 21 0 0 0
M  V30 BEGIN ATOM
M  V30 1 O -16.854000 30.634000 -24.787000 0
M  V30 2 N -15.070000 30.163000 -29.518000 0
M  V30 3 N -18.222000 29.853000 -23.212000 0
M  V30 4 C -17.269000 30.666000 -23.495000 0
M  V30 5 C -18.076000 28.168000 -28.784000 0
M  V30 6 C -18.471000 29.221000 -24.413000 0
M  V30 7 C -17.045000 28.764000 -29.485000 0
M  V30 8 C -18.279000 28.471000 -27.450000 0
M  V30 9 C -16.415000 29.988000 -27.512000 0
M  V30 10 C -16.184000 29.664000 -28.851000 0
M  V30 11 C -17.654000 29.688000 -25.378000 0
M  V30 12 C -17.456000 29.390000 -26.803000 0
M  V30 13 H -14.458500 30.806600 -29.057800 0
M  V30 14 H -14.880700 29.878100 -30.457700 0
M  V30 15 H -16.863300 31.276600 -22.814900 0
M  V30 16 H -18.677900 27.514800 -29.243300 0
M  V30 17 H -19.163600 28.512600 -24.549000 0
M  V30 18 H -16.914000 28.549800 -30.453000 0
M  V30 19 H -19.020900 28.027800 -26.946900 0
M  V30 20 H -15.827000 30.656500 -27.056700 0
M  V30 END ATOM
M  V30 BEGIN BOND
M  V30 1 1 1 4
M  V30 2 1 1 11
M  V30 3 1 2 10
M  V30 4 2 3 4
M  V30 5 1 3 6
M  V30 6 2 5 7
M  V30 7 1 5 8
M  V30 8 2 6 11
M  V30 9 1 7 10
M  V30 10 2 8 12
M  V30 11 2 9 10
M  V30 12 1 9 12
M  V30 13 1 11 12
M  V30 14 1 2 13
M  V30 15 1 2 14
M  V30 16 1 4 15
M  V30 17 1 5 16
M  V30 18 1 6 17
M  V30 19 1 7 18
M  V30 20 1 8 19
M  V30 21 1 9 20
M  V30 END BOND
M  V30 END CTAB
M  END
>  <Ligand_Instance>  (30) 
5N3O_5AO_A_405

>  <Dataset>  (30) 
PDB

>  <PDB_ID>  (30) 
5N3O

>  <Chain>  (30) 
A

>  <Resi>  (30) 
405

>  <Num_Resolved_Atoms>  (30) 
12

>  <Num_H_Atoms_ProtBoundConf>  (30) 
8

>  <Pocket>  (30) 
K

>  <Name>  (30) 
3-(1,3-oxazol-5-yl)aniline

>  <Num_Not_Resolved_Atoms>  (30) 
0

>  <ATP_Site>  (30) 
True

>  <Peripheral>  (30) 
True

>  <Standardized_SMILES>  (30) 
[H]C1=NC([H])=C(C2=C([H])C(N([H])[H])=C([H])C([H])=C2[H])O1

>  <2D_Mol_H>  (30) 
<rdkit.Chem.rdchem.Mol object at 0x77059d9dbae0>

>  <MW>  (30) 
160.176

>  <HBA>  (30) 
3

>  <HBD>  (30) 
1

>  <LogP>  (30) 
1.9238

>  <NRB>  (30) 
2

>  <TPSA>  (30) 
52.05

>  <Num_Heavy_Atoms>  (30) 
12

>  <Ro5>  (30) 
[True, True, True, True, True, True]

>  <Ro5_Fulfilled>  (30) 
True

>  <Ro3>  (30) 
[True, True, True, True]

>  <Ro3_Fulfilled>  (30) 
True

>  <Fsp3>  (30) 
0.0

>  <Fsp3_0.42>  (30) 
False

>  <Fsp3_0.45>  (30) 
False

>  <Stereogenic_Carbons>  (30) 
0

>  <C_Atoms>  (30) 
9

>  <FCStereo>  (30) 
0.0

>  <SPS>  (30) 
120

>  <nSPS>  (30) 
10.0

>  <PBF>  (30) 
0.067812

>  <PBF_0.6>  (30) 
False

>  <nPBF>  (30) 
0.005651

>  <nPBF_0.016>  (30) 
False

>  <PMI1>  (30) 
206.736121

>  <PMI2>  (30) 
890.8441

>  <PMI3>  (30) 
1096.247647

>  <NPR1>  (30) 
0.188585

>  <NPR2>  (30) 
0.81263

>  <Sum_NPR>  (30) 
1.001216

>  <Sum_NPR_1.07>  (30) 
False

>  <Sum_NPR_1.2>  (30) 
False

>  <MaxAbsEStateIndex>  (30) 
5.602613

>  <MaxEStateIndex>  (30) 
5.602613

>  <MinAbsEStateIndex>  (30) 
0.725833

>  <MinEStateIndex>  (30) 
0.725833

>  <qed>  (30) 
0.648202

>  <MolWt>  (30) 
160.176

>  <HeavyAtomMolWt>  (30) 
152.112

>  <ExactMolWt>  (30) 
160.063663

>  <NumValenceElectrons>  (30) 
60

>  <NumRadicalElectrons>  (30) 
0

>  <MaxPartialCharge>  (30) 
0.180889

>  <MinPartialCharge>  (30) 
-0.44352

>  <MaxAbsPartialCharge>  (30) 
0.44352

>  <MinAbsPartialCharge>  (30) 
0.180889

>  <FpDensityMorgan1>  (30) 
1.333333

>  <FpDensityMorgan2>  (30) 
2.25

>  <FpDensityMorgan3>  (30) 
2.916667

>  <BCUT2D_MWHI>  (30) 
16.340598

>  <BCUT2D_MWLOW>  (30) 
10.153035

>  <BCUT2D_CHGHI>  (30) 
1.990739

>  <BCUT2D_CHGLO>  (30) 
-1.956548

>  <BCUT2D_LOGPHI>  (30) 
2.19486

>  <BCUT2D_LOGPLOW>  (30) 
-1.830812

>  <BCUT2D_MRHI>  (30) 
5.610575

>  <BCUT2D_MRLOW>  (30) 
0.571774

>  <AvgIpc>  (30) 
2.557102

>  <BalabanJ>  (30) 
2.480542

>  <BertzCT>  (30) 
367.777378

>  <Chi0>  (30) 
8.388905

>  <Chi0n>  (30) 
6.396914

>  <Chi0v>  (30) 
6.396914

>  <Chi1>  (30) 
5.860173

>  <Chi1n>  (30) 
3.604942

>  <Chi1v>  (30) 
3.604942

>  <Chi2n>  (30) 
2.491145

>  <Chi2v>  (30) 
2.491145

>  <Chi3n>  (30) 
1.603465

>  <Chi3v>  (30) 
1.603465

>  <Chi4n>  (30) 
1.05028

>  <Chi4v>  (30) 
1.05028

>  <HallKierAlpha>  (30) 
-1.77

>  <Ipc>  (30) 
1071.425836

>  <Kappa1>  (30) 
6.91066

>  <Kappa2>  (30) 
2.695266

>  <Kappa3>  (30) 
1.16337

>  <LabuteASA>  (30) 
69.842365

>  <PEOE_VSA1>  (30) 
10.150818

>  <PEOE_VSA10>  (30) 
0.0

>  <PEOE_VSA11>  (30) 
12.153887

>  <PEOE_VSA12>  (30) 
0.0

>  <PEOE_VSA13>  (30) 
0.0

>  <PEOE_VSA14>  (30) 
0.0

>  <PEOE_VSA2>  (30) 
0.0

>  <PEOE_VSA3>  (30) 
4.983979

>  <PEOE_VSA4>  (30) 
0.0

>  <PEOE_VSA5>  (30) 
0.0

>  <PEOE_VSA6>  (30) 
12.132734

>  <PEOE_VSA7>  (30) 
12.132734

>  <PEOE_VSA8>  (30) 
11.250838

>  <PEOE_VSA9>  (30) 
6.196844

>  <SMR_VSA1>  (30) 
4.417151

>  <SMR_VSA10>  (30) 
5.687386

>  <SMR_VSA2>  (30) 
0.0

>  <SMR_VSA3>  (30) 
4.983979

>  <SMR_VSA4>  (30) 
0.0

>  <SMR_VSA5>  (30) 
0.0

>  <SMR_VSA6>  (30) 
5.733667

>  <SMR_VSA7>  (30) 
36.855951

>  <SMR_VSA8>  (30) 
0.0

>  <SMR_VSA9>  (30) 
11.323699

>  <SlogP_VSA1>  (30) 
5.733667

>  <SlogP_VSA10>  (30) 
5.687386

>  <SlogP_VSA11>  (30) 
0.0

>  <SlogP_VSA12>  (30) 
0.0

>  <SlogP_VSA2>  (30) 
4.983979

>  <SlogP_VSA3>  (30) 
0.0

>  <SlogP_VSA4>  (30) 
0.0

>  <SlogP_VSA5>  (30) 
0.0

>  <SlogP_VSA6>  (30) 
41.273102

>  <SlogP_VSA7>  (30) 
0.0

>  <SlogP_VSA8>  (30) 
11.323699

>  <SlogP_VSA9>  (30) 
0.0

>  <EState_VSA1>  (30) 
0.0

>  <EState_VSA10>  (30) 
0.0

>  <EState_VSA11>  (30) 
0.0

>  <EState_VSA2>  (30) 
0.0

>  <EState_VSA3>  (30) 
0.0

>  <EState_VSA4>  (30) 
17.011085

>  <EState_VSA5>  (30) 
6.393639

>  <EState_VSA6>  (30) 
6.196844

>  <EState_VSA7>  (30) 
24.265468

>  <EState_VSA8>  (30) 
4.983979

>  <EState_VSA9>  (30) 
10.150818

>  <VSA_EState1>  (30) 
5.10787

>  <VSA_EState10>  (30) 
0.0

>  <VSA_EState2>  (30) 
3.820741

>  <VSA_EState3>  (30) 
0.0

>  <VSA_EState4>  (30) 
7.279836

>  <VSA_EState5>  (30) 
0.738241

>  <VSA_EState6>  (30) 
7.490518

>  <VSA_EState7>  (30) 
3.062795

>  <VSA_EState8>  (30) 
0.0

>  <VSA_EState9>  (30) 
0.0

>  <FractionCSP3>  (30) 
0.0

>  <HeavyAtomCount>  (30) 
12

>  <NHOHCount>  (30) 
2

>  <NOCount>  (30) 
3

>  <NumAliphaticCarbocycles>  (30) 
0

>  <NumAliphaticHeterocycles>  (30) 
0

>  <NumAliphaticRings>  (30) 
0

>  <NumAromaticCarbocycles>  (30) 
1

>  <NumAromaticHeterocycles>  (30) 
1

>  <NumAromaticRings>  (30) 
2

>  <NumHAcceptors>  (30) 
3

>  <NumHDonors>  (30) 
1

>  <NumHeteroatoms>  (30) 
3

>  <NumRotatableBonds>  (30) 
1

>  <NumSaturatedCarbocycles>  (30) 
0

>  <NumSaturatedHeterocycles>  (30) 
0

>  <NumSaturatedRings>  (30) 
0

>  <RingCount>  (30) 
2

>  <MolLogP>  (30) 
1.9238

>  <MolMR>  (30) 
46.3514

>  <fr_Al_COO>  (30) 
0

>  <fr_Al_OH>  (30) 
0

>  <fr_Al_OH_noTert>  (30) 
0

>  <fr_ArN>  (30) 
1

>  <fr_Ar_COO>  (30) 
0

>  <fr_Ar_N>  (30) 
1

>  <fr_Ar_NH>  (30) 
0

>  <fr_Ar_OH>  (30) 
0

>  <fr_COO>  (30) 
0

>  <fr_COO2>  (30) 
0

>  <fr_C_O>  (30) 
0

>  <fr_C_O_noCOO>  (30) 
0

>  <fr_C_S>  (30) 
0

>  <fr_HOCCN>  (30) 
0

>  <fr_Imine>  (30) 
0

>  <fr_NH0>  (30) 
1

>  <fr_NH1>  (30) 
0

>  <fr_NH2>  (30) 
1

>  <fr_N_O>  (30) 
0

>  <fr_Ndealkylation1>  (30) 
0

>  <fr_Ndealkylation2>  (30) 
0

>  <fr_Nhpyrrole>  (30) 
0

>  <fr_SH>  (30) 
0

>  <fr_aldehyde>  (30) 
0

>  <fr_alkyl_carbamate>  (30) 
0

>  <fr_alkyl_halide>  (30) 
0

>  <fr_allylic_oxid>  (30) 
0

>  <fr_amide>  (30) 
0

>  <fr_amidine>  (30) 
0

>  <fr_aniline>  (30) 
1

>  <fr_aryl_methyl>  (30) 
0

>  <fr_azide>  (30) 
0

>  <fr_azo>  (30) 
0

>  <fr_barbitur>  (30) 
0

>  <fr_benzene>  (30) 
1

>  <fr_benzodiazepine>  (30) 
0

>  <fr_bicyclic>  (30) 
0

>  <fr_diazo>  (30) 
0

>  <fr_dihydropyridine>  (30) 
0

>  <fr_epoxide>  (30) 
0

>  <fr_ester>  (30) 
0

>  <fr_ether>  (30) 
0

>  <fr_furan>  (30) 
0

>  <fr_guanido>  (30) 
0

>  <fr_halogen>  (30) 
0

>  <fr_hdrzine>  (30) 
0

>  <fr_hdrzone>  (30) 
0

>  <fr_imidazole>  (30) 
0

>  <fr_imide>  (30) 
0

>  <fr_isocyan>  (30) 
0

>  <fr_isothiocyan>  (30) 
0

>  <fr_ketone>  (30) 
0

>  <fr_ketone_Topliss>  (30) 
0

>  <fr_lactam>  (30) 
0

>  <fr_lactone>  (30) 
0

>  <fr_methoxy>  (30) 
0

>  <fr_morpholine>  (30) 
0

>  <fr_nitrile>  (30) 
0

>  <fr_nitro>  (30) 
0

>  <fr_nitro_arom>  (30) 
0

>  <fr_nitro_arom_nonortho>  (30) 
0

>  <fr_nitroso>  (30) 
0

>  <fr_oxazole>  (30) 
1

>  <fr_oxime>  (30) 
0

>  <fr_para_hydroxylation>  (30) 
0

>  <fr_phenol>  (30) 
0

>  <fr_phenol_noOrthoHbond>  (30) 
0

>  <fr_phos_acid>  (30) 
0

>  <fr_phos_ester>  (30) 
0

>  <fr_piperdine>  (30) 
0

>  <fr_piperzine>  (30) 
0

>  <fr_priamide>  (30) 
0

>  <fr_prisulfonamd>  (30) 
0

>  <fr_pyridine>  (30) 
0

>  <fr_quatN>  (30) 
0

>  <fr_sulfide>  (30) 
0

>  <fr_sulfonamd>  (30) 
0

>  <fr_sulfone>  (30) 
0

>  <fr_term_acetylene>  (30) 
0

>  <fr_tetrazole>  (30) 
0

>  <fr_thiazole>  (30) 
0

>  <fr_thiocyan>  (30) 
0

>  <fr_thiophene>  (30) 
0

>  <fr_unbrch_alkane>  (30) 
0

>  <fr_urea>  (30) 
0

>  <NP_Likeness>  (30) 
-0.998874

$$$$
5H1
     RDKit          3D

  0  0  0  0  0  0  0  0  0  0999 V3000
M  V30 BEGIN CTAB
M  V30 COUNTS 17 18 0 0 0
M  V30 BEGIN ATOM
M  V30 1 O -8.827000 3.141000 -28.347000 0
M  V30 2 N -13.987000 3.643000 -30.113000 0
M  V30 3 C -14.318000 2.322000 -30.267000 0
M  V30 4 C -10.589000 4.626000 -28.975000 0
M  V30 5 C -13.265000 1.540000 -29.931000 0
M  V30 6 C -11.887000 4.829000 -29.423000 0
M  V30 7 C -10.894000 2.230000 -29.099000 0
M  V30 8 C -10.096000 3.332000 -28.812000 0
M  V30 9 C -12.683000 3.725000 -29.683000 0
M  V30 10 C -12.198000 2.413000 -29.541000 0
M  V30 11 H -8.252500 3.928500 -28.123800 0
M  V30 12 H -14.593500 4.419300 -30.284900 0
M  V30 13 H -15.205800 1.985500 -30.581000 0
M  V30 14 H -10.005100 5.411000 -28.768300 0
M  V30 15 H -13.237200 0.540600 -29.951200 0
M  V30 16 H -12.241100 5.754800 -29.555600 0
M  V30 17 H -10.529100 1.305700 -28.987200 0
M  V30 END ATOM
M  V30 BEGIN BOND
M  V30 1 1 1 8
M  V30 2 1 2 3
M  V30 3 1 2 9
M  V30 4 2 3 5
M  V30 5 1 4 6
M  V30 6 2 4 8
M  V30 7 1 5 10
M  V30 8 2 6 9
M  V30 9 1 7 8
M  V30 10 2 7 10
M  V30 11 1 9 10
M  V30 12 1 1 11
M  V30 13 1 2 12
M  V30 14 1 3 13
M  V30 15 1 4 14
M  V30 16 1 5 15
M  V30 17 1 6 16
M  V30 18 1 7 17
M  V30 END BOND
M  V30 END CTAB
M  END
>  <Ligand_Instance>  (31) 
5N3P_5H1_A_403

>  <Dataset>  (31) 
PDB

>  <PDB_ID>  (31) 
5N3P

>  <Chain>  (31) 
A

>  <Resi>  (31) 
403

>  <Num_Resolved_Atoms>  (31) 
10

>  <Num_H_Atoms_ProtBoundConf>  (31) 
7

>  <Pocket>  (31) 
A

>  <Name>  (31) 
1H-indol-5-ol

>  <Num_Not_Resolved_Atoms>  (31) 
0

>  <ATP_Site>  (31) 
True

>  <Peripheral>  (31) 
False

>  <Standardized_SMILES>  (31) 
[H]OC1=C([H])C([H])=C2C(=C1[H])C([H])=C([H])N2[H]

>  <2D_Mol_H>  (31) 
<rdkit.Chem.rdchem.Mol object at 0x77059d9dbbc0>

>  <MW>  (31) 
133.15

>  <HBA>  (31) 
1

>  <HBD>  (31) 
2

>  <LogP>  (31) 
1.8735

>  <NRB>  (31) 
1

>  <TPSA>  (31) 
36.02

>  <Num_Heavy_Atoms>  (31) 
10

>  <Ro5>  (31) 
[True, True, True, True, True, True]

>  <Ro5_Fulfilled>  (31) 
True

>  <Ro3>  (31) 
[True, True, True, True]

>  <Ro3_Fulfilled>  (31) 
True

>  <Fsp3>  (31) 
0.0

>  <Fsp3_0.42>  (31) 
False

>  <Fsp3_0.45>  (31) 
False

>  <Stereogenic_Carbons>  (31) 
0

>  <C_Atoms>  (31) 
8

>  <FCStereo>  (31) 
0.0

>  <SPS>  (31) 
104

>  <nSPS>  (31) 
10.4

>  <PBF>  (31) 
0.017535

>  <PBF_0.6>  (31) 
False

>  <nPBF>  (31) 
0.001753

>  <nPBF_0.016>  (31) 
False

>  <PMI1>  (31) 
138.735276

>  <PMI2>  (31) 
484.799613

>  <PMI3>  (31) 
623.465389

>  <NPR1>  (31) 
0.222523

>  <NPR2>  (31) 
0.777589

>  <Sum_NPR>  (31) 
1.000111

>  <Sum_NPR_1.07>  (31) 
False

>  <Sum_NPR_1.2>  (31) 
False

>  <MaxAbsEStateIndex>  (31) 
9.034722

>  <MaxEStateIndex>  (31) 
9.034722

>  <MinAbsEStateIndex>  (31) 
0.31213

>  <MinEStateIndex>  (31) 
0.31213

>  <qed>  (31) 
0.565083

>  <MolWt>  (31) 
133.15

>  <HeavyAtomMolWt>  (31) 
126.094

>  <ExactMolWt>  (31) 
133.052764

>  <NumValenceElectrons>  (31) 
50

>  <NumRadicalElectrons>  (31) 
0

>  <MaxPartialCharge>  (31) 
0.115828

>  <MinPartialCharge>  (31) 
-0.507942

>  <MaxAbsPartialCharge>  (31) 
0.507942

>  <MinAbsPartialCharge>  (31) 
0.115828

>  <FpDensityMorgan1>  (31) 
1.2

>  <FpDensityMorgan2>  (31) 
2.1

>  <FpDensityMorgan3>  (31) 
3.0

>  <BCUT2D_MWHI>  (31) 
16.254665

>  <BCUT2D_MWLOW>  (31) 
10.233272

>  <BCUT2D_CHGHI>  (31) 
1.921513

>  <BCUT2D_CHGLO>  (31) 
-1.892284

>  <BCUT2D_LOGPHI>  (31) 
2.169892

>  <BCUT2D_LOGPLOW>  (31) 
-1.650677

>  <BCUT2D_MRHI>  (31) 
5.800245

>  <BCUT2D_MRLOW>  (31) 
0.475952

>  <AvgIpc>  (31) 
2.333876

>  <BalabanJ>  (31) 
2.860782

>  <BertzCT>  (31) 
350.785078

>  <Chi0>  (31) 
6.974691

>  <Chi0n>  (31) 
5.333965

>  <Chi0v>  (31) 
5.333965

>  <Chi1>  (31) 
4.860173

>  <Chi1n>  (31) 
3.122324

>  <Chi1v>  (31) 
3.122324

>  <Chi2n>  (31) 
2.249224

>  <Chi2v>  (31) 
2.249224

>  <Chi3n>  (31) 
1.536877

>  <Chi3v>  (31) 
1.536877

>  <Chi4n>  (31) 
1.040687

>  <Chi4v>  (31) 
1.040687

>  <HallKierAlpha>  (31) 
-1.44

>  <Ipc>  (31) 
357.083

>  <Kappa1>  (31) 
5.353053

>  <Kappa2>  (31) 
1.769335

>  <Kappa3>  (31) 
0.657664

>  <LabuteASA>  (31) 
58.116462

>  <PEOE_VSA1>  (31) 
10.090506

>  <PEOE_VSA10>  (31) 
5.749512

>  <PEOE_VSA11>  (31) 
0.0

>  <PEOE_VSA12>  (31) 
0.0

>  <PEOE_VSA13>  (31) 
0.0

>  <PEOE_VSA14>  (31) 
0.0

>  <PEOE_VSA2>  (31) 
0.0

>  <PEOE_VSA3>  (31) 
0.0

>  <PEOE_VSA4>  (31) 
0.0

>  <PEOE_VSA5>  (31) 
0.0

>  <PEOE_VSA6>  (31) 
0.0

>  <PEOE_VSA7>  (31) 
24.265468

>  <PEOE_VSA8>  (31) 
17.099769

>  <PEOE_VSA9>  (31) 
0.0

>  <SMR_VSA1>  (31) 
5.106527

>  <SMR_VSA10>  (31) 
10.902925

>  <SMR_VSA2>  (31) 
0.0

>  <SMR_VSA3>  (31) 
4.983979

>  <SMR_VSA4>  (31) 
0.0

>  <SMR_VSA5>  (31) 
0.0

>  <SMR_VSA6>  (31) 
0.0

>  <SMR_VSA7>  (31) 
30.462312

>  <SMR_VSA8>  (31) 
0.0

>  <SMR_VSA9>  (31) 
5.749512

>  <SlogP_VSA1>  (31) 
0.0

>  <SlogP_VSA10>  (31) 
0.0

>  <SlogP_VSA11>  (31) 
5.749512

>  <SlogP_VSA12>  (31) 
0.0

>  <SlogP_VSA2>  (31) 
10.090506

>  <SlogP_VSA3>  (31) 
0.0

>  <SlogP_VSA4>  (31) 
0.0

>  <SlogP_VSA5>  (31) 
0.0

>  <SlogP_VSA6>  (31) 
30.462312

>  <SlogP_VSA7>  (31) 
0.0

>  <SlogP_VSA8>  (31) 
10.902925

>  <SlogP_VSA9>  (31) 
0.0

>  <EState_VSA1>  (31) 
0.0

>  <EState_VSA10>  (31) 
0.0

>  <EState_VSA11>  (31) 
0.0

>  <EState_VSA2>  (31) 
0.0

>  <EState_VSA3>  (31) 
5.749512

>  <EState_VSA4>  (31) 
10.902925

>  <EState_VSA5>  (31) 
0.0

>  <EState_VSA6>  (31) 
12.132734

>  <EState_VSA7>  (31) 
18.329578

>  <EState_VSA8>  (31) 
4.983979

>  <EState_VSA9>  (31) 
5.106527

>  <VSA_EState1>  (31) 
0.0

>  <VSA_EState10>  (31) 
0.0

>  <VSA_EState2>  (31) 
3.035648

>  <VSA_EState3>  (31) 
10.076389

>  <VSA_EState4>  (31) 
1.053519

>  <VSA_EState5>  (31) 
0.31213

>  <VSA_EState6>  (31) 
7.171019

>  <VSA_EState7>  (31) 
1.851296

>  <VSA_EState8>  (31) 
0.0

>  <VSA_EState9>  (31) 
0.0

>  <FractionCSP3>  (31) 
0.0

>  <HeavyAtomCount>  (31) 
10

>  <NHOHCount>  (31) 
2

>  <NOCount>  (31) 
2

>  <NumAliphaticCarbocycles>  (31) 
0

>  <NumAliphaticHeterocycles>  (31) 
0

>  <NumAliphaticRings>  (31) 
0

>  <NumAromaticCarbocycles>  (31) 
1

>  <NumAromaticHeterocycles>  (31) 
1

>  <NumAromaticRings>  (31) 
2

>  <NumHAcceptors>  (31) 
1

>  <NumHDonors>  (31) 
2

>  <NumHeteroatoms>  (31) 
2

>  <NumRotatableBonds>  (31) 
0

>  <NumSaturatedCarbocycles>  (31) 
0

>  <NumSaturatedHeterocycles>  (31) 
0

>  <NumSaturatedRings>  (31) 
0

>  <RingCount>  (31) 
2

>  <MolLogP>  (31) 
1.8735

>  <MolMR>  (31) 
39.9635

>  <fr_Al_COO>  (31) 
0

>  <fr_Al_OH>  (31) 
0

>  <fr_Al_OH_noTert>  (31) 
0

>  <fr_ArN>  (31) 
0

>  <fr_Ar_COO>  (31) 
0

>  <fr_Ar_N>  (31) 
1

>  <fr_Ar_NH>  (31) 
1

>  <fr_Ar_OH>  (31) 
1

>  <fr_COO>  (31) 
0

>  <fr_COO2>  (31) 
0

>  <fr_C_O>  (31) 
0

>  <fr_C_O_noCOO>  (31) 
0

>  <fr_C_S>  (31) 
0

>  <fr_HOCCN>  (31) 
0

>  <fr_Imine>  (31) 
0

>  <fr_NH0>  (31) 
0

>  <fr_NH1>  (31) 
1

>  <fr_NH2>  (31) 
0

>  <fr_N_O>  (31) 
0

>  <fr_Ndealkylation1>  (31) 
0

>  <fr_Ndealkylation2>  (31) 
0

>  <fr_Nhpyrrole>  (31) 
1

>  <fr_SH>  (31) 
0

>  <fr_aldehyde>  (31) 
0

>  <fr_alkyl_carbamate>  (31) 
0

>  <fr_alkyl_halide>  (31) 
0

>  <fr_allylic_oxid>  (31) 
0

>  <fr_amide>  (31) 
0

>  <fr_amidine>  (31) 
0

>  <fr_aniline>  (31) 
0

>  <fr_aryl_methyl>  (31) 
0

>  <fr_azide>  (31) 
0

>  <fr_azo>  (31) 
0

>  <fr_barbitur>  (31) 
0

>  <fr_benzene>  (31) 
1

>  <fr_benzodiazepine>  (31) 
0

>  <fr_bicyclic>  (31) 
1

>  <fr_diazo>  (31) 
0

>  <fr_dihydropyridine>  (31) 
0

>  <fr_epoxide>  (31) 
0

>  <fr_ester>  (31) 
0

>  <fr_ether>  (31) 
0

>  <fr_furan>  (31) 
0

>  <fr_guanido>  (31) 
0

>  <fr_halogen>  (31) 
0

>  <fr_hdrzine>  (31) 
0

>  <fr_hdrzone>  (31) 
0

>  <fr_imidazole>  (31) 
0

>  <fr_imide>  (31) 
0

>  <fr_isocyan>  (31) 
0

>  <fr_isothiocyan>  (31) 
0

>  <fr_ketone>  (31) 
0

>  <fr_ketone_Topliss>  (31) 
0

>  <fr_lactam>  (31) 
0

>  <fr_lactone>  (31) 
0

>  <fr_methoxy>  (31) 
0

>  <fr_morpholine>  (31) 
0

>  <fr_nitrile>  (31) 
0

>  <fr_nitro>  (31) 
0

>  <fr_nitro_arom>  (31) 
0

>  <fr_nitro_arom_nonortho>  (31) 
0

>  <fr_nitroso>  (31) 
0

>  <fr_oxazole>  (31) 
0

>  <fr_oxime>  (31) 
0

>  <fr_para_hydroxylation>  (31) 
0

>  <fr_phenol>  (31) 
1

>  <fr_phenol_noOrthoHbond>  (31) 
1

>  <fr_phos_acid>  (31) 
0

>  <fr_phos_ester>  (31) 
0

>  <fr_piperdine>  (31) 
0

>  <fr_piperzine>  (31) 
0

>  <fr_priamide>  (31) 
0

>  <fr_prisulfonamd>  (31) 
0

>  <fr_pyridine>  (31) 
0

>  <fr_quatN>  (31) 
0

>  <fr_sulfide>  (31) 
0

>  <fr_sulfonamd>  (31) 
0

>  <fr_sulfone>  (31) 
0

>  <fr_term_acetylene>  (31) 
0

>  <fr_tetrazole>  (31) 
0

>  <fr_thiazole>  (31) 
0

>  <fr_thiocyan>  (31) 
0

>  <fr_thiophene>  (31) 
0

>  <fr_unbrch_alkane>  (31) 
0

>  <fr_urea>  (31) 
0

>  <NP_Likeness>  (31) 
0.405951

$$$$
6J9
     RDKit          3D

  0  0  0  0  0  0  0  0  0  0999 V3000
M  V30 BEGIN CTAB
M  V30 COUNTS 29 31 0 0 0
M  V30 BEGIN ATOM
M  V30 1 N 12.561000 -34.504000 79.084000 0 CHG=1
M  V30 2 N 9.297000 -30.555000 83.622000 0
M  V30 3 N 9.752000 -31.739000 81.618000 0
M  V30 4 N 11.267000 -30.306000 85.146000 0
M  V30 5 N 11.899000 -32.653000 81.031000 0
M  V30 6 C 8.909000 -31.069000 82.435000 0
M  V30 7 C 12.228000 -34.971000 80.449000 0
M  V30 8 C 11.772000 -33.309000 78.712000 0
M  V30 9 C 12.571000 -30.712000 85.068000 0
M  V30 10 C 12.574000 -33.882000 81.469000 0
M  V30 11 C 12.083000 -32.149000 79.664000 0
M  V30 12 C 12.828000 -31.402000 83.890000 0
M  V30 13 C 10.581000 -30.689000 84.053000 0
M  V30 14 C 11.064000 -31.947000 81.923000 0
M  V30 15 C 11.568000 -31.401000 83.223000 0
M  V30 16 H 12.366000 -35.237600 78.433000 0
M  V30 17 H 10.876400 -29.794200 85.911100 0
M  V30 18 H 7.958500 -30.948900 82.148500 0
M  V30 19 H 12.752800 -35.797100 80.654500 0
M  V30 20 H 11.250500 -35.175600 80.500600 0
M  V30 21 H 10.797600 -33.527300 78.765300 0
M  V30 22 H 12.002600 -33.039400 77.777000 0
M  V30 23 H 13.256600 -30.533600 85.773800 0
M  V30 24 H 12.249900 -34.146700 82.377200 0
M  V30 25 H 13.563400 -33.739200 81.496600 0
M  V30 26 H 13.026200 -31.842600 79.535200 0
M  V30 27 H 11.458600 -31.387000 79.492100 0
M  V30 28 H 13.690900 -31.803600 83.583100 0
M  V30 29 H 13.533800 -34.275400 79.047100 0
M  V30 END ATOM
M  V30 BEGIN BOND
M  V30 1 1 1 7
M  V30 2 1 1 8
M  V30 3 2 2 6
M  V30 4 1 2 13
M  V30 5 1 3 6
M  V30 6 2 3 14
M  V30 7 1 4 9
M  V30 8 1 4 13
M  V30 9 1 5 10
M  V30 10 1 5 11
M  V30 11 1 5 14
M  V30 12 1 7 10
M  V30 13 1 8 11
M  V30 14 2 9 12
M  V30 15 1 12 15
M  V30 16 2 13 15
M  V30 17 1 14 15
M  V30 18 1 1 16
M  V30 19 1 4 17
M  V30 20 1 6 18
M  V30 21 1 7 19
M  V30 22 1 7 20
M  V30 23 1 8 21
M  V30 24 1 8 22
M  V30 25 1 9 23
M  V30 26 1 10 24
M  V30 27 1 10 25
M  V30 28 1 11 26
M  V30 29 1 11 27
M  V30 30 1 12 28
M  V30 31 1 1 29
M  V30 END BOND
M  V30 END CTAB
M  END
>  <Ligand_Instance>  (32) 
5IZJ_6J9_A_414

>  <Dataset>  (32) 
PDB

>  <PDB_ID>  (32) 
5IZJ

>  <Chain>  (32) 
A

>  <Resi>  (32) 
414

>  <Num_Resolved_Atoms>  (32) 
15

>  <Num_H_Atoms_ProtBoundConf>  (32) 
14

>  <Pocket>  (32) 
X

>  <Name>  (32) 
4-(piperazin-1-yl)-7H-pyrrolo[2,3-d]pyrimidine

>  <Num_Not_Resolved_Atoms>  (32) 
0

>  <ATP_Site>  (32) 
False

>  <Peripheral>  (32) 
True

>  <Standardized_SMILES>  (32) 
[H]C1=NC2=C(C(N3C([H])([H])C([H])([H])[N+]([H])([H])C([H])([H])C3([H])[H])=N1)C([H])=C([H])N2[H]

>  <2D_Mol_H>  (32) 
<rdkit.Chem.rdchem.Mol object at 0x77059d9dbca0>

>  <MW>  (32) 
204.257

>  <HBA>  (32) 
3

>  <HBD>  (32) 
2

>  <LogP>  (32) 
-0.6587

>  <NRB>  (32) 
1

>  <TPSA>  (32) 
61.42

>  <Num_Heavy_Atoms>  (32) 
15

>  <Ro5>  (32) 
[True, True, True, True, True, True]

>  <Ro5_Fulfilled>  (32) 
True

>  <Ro3>  (32) 
[True, True, True, True]

>  <Ro3_Fulfilled>  (32) 
True

>  <Fsp3>  (32) 
0.4

>  <Fsp3_0.42>  (32) 
False

>  <Fsp3_0.45>  (32) 
False

>  <Stereogenic_Carbons>  (32) 
0

>  <C_Atoms>  (32) 
10

>  <FCStereo>  (32) 
0.0

>  <SPS>  (32) 
258

>  <nSPS>  (32) 
17.2

>  <PBF>  (32) 
0.670807

>  <PBF_0.6>  (32) 
True

>  <nPBF>  (32) 
0.04472

>  <nPBF_0.016>  (32) 
True

>  <PMI1>  (32) 
387.726257

>  <PMI2>  (32) 
1317.675629

>  <PMI3>  (32) 
1555.013698

>  <NPR1>  (32) 
0.249339

>  <NPR2>  (32) 
0.847372

>  <Sum_NPR>  (32) 
1.096712

>  <Sum_NPR_1.07>  (32) 
True

>  <Sum_NPR_1.2>  (32) 
False

>  <MaxAbsEStateIndex>  (32) 
4.383704

>  <MaxEStateIndex>  (32) 
4.383704

>  <MinAbsEStateIndex>  (32) 
0.925512

>  <MinEStateIndex>  (32) 
0.925512

>  <qed>  (32) 
0.648106

>  <MolWt>  (32) 
204.257

>  <HeavyAtomMolWt>  (32) 
190.145

>  <ExactMolWt>  (32) 
204.124372

>  <NumValenceElectrons>  (32) 
78

>  <NumRadicalElectrons>  (32) 
0

>  <MaxPartialCharge>  (32) 
0.142344

>  <MinPartialCharge>  (32) 
-0.345986

>  <MaxAbsPartialCharge>  (32) 
0.345986

>  <MinAbsPartialCharge>  (32) 
0.142344

>  <FpDensityMorgan1>  (32) 
1.266667

>  <FpDensityMorgan2>  (32) 
2.133333

>  <FpDensityMorgan3>  (32) 
3.0

>  <BCUT2D_MWHI>  (32) 
15.235688

>  <BCUT2D_MWLOW>  (32) 
10.277533

>  <BCUT2D_CHGHI>  (32) 
2.161617

>  <BCUT2D_CHGLO>  (32) 
-2.258953

>  <BCUT2D_LOGPHI>  (32) 
2.207434

>  <BCUT2D_LOGPLOW>  (32) 
-2.894459

>  <BCUT2D_MRHI>  (32) 
5.867192

>  <BCUT2D_MRLOW>  (32) 
-0.655218

>  <AvgIpc>  (32) 
2.776181

>  <BalabanJ>  (32) 
2.045727

>  <BertzCT>  (32) 
457.535617

>  <Chi0>  (32) 
10.087576

>  <Chi0n>  (32) 
8.479469

>  <Chi0v>  (32) 
8.479469

>  <Chi1>  (32) 
7.44949

>  <Chi1n>  (32) 
5.296854

>  <Chi1v>  (32) 
5.296854

>  <Chi2n>  (32) 
3.790302

>  <Chi2v>  (32) 
3.790302

>  <Chi3n>  (32) 
2.838746

>  <Chi3v>  (32) 
2.838746

>  <Chi4n>  (32) 
2.072886

>  <Chi4v>  (32) 
2.072886

>  <HallKierAlpha>  (32) 
-1.62

>  <Ipc>  (32) 
7140.336991

>  <Kappa1>  (32) 
8.669314

>  <Kappa2>  (32) 
3.507436

>  <Kappa3>  (32) 
1.445239

>  <LabuteASA>  (32) 
87.525157

>  <PEOE_VSA1>  (32) 
15.200677

>  <PEOE_VSA10>  (32) 
17.79236

>  <PEOE_VSA11>  (32) 
0.0

>  <PEOE_VSA12>  (32) 
0.0

>  <PEOE_VSA13>  (32) 
0.0

>  <PEOE_VSA14>  (32) 
0.0

>  <PEOE_VSA2>  (32) 
0.0

>  <PEOE_VSA3>  (32) 
9.967957

>  <PEOE_VSA4>  (32) 
0.0

>  <PEOE_VSA5>  (32) 
0.0

>  <PEOE_VSA6>  (32) 
0.0

>  <PEOE_VSA7>  (32) 
6.066367

>  <PEOE_VSA8>  (32) 
6.196844

>  <PEOE_VSA9>  (32) 
31.56525

>  <SMR_VSA1>  (32) 
5.316789

>  <SMR_VSA10>  (32) 
16.851264

>  <SMR_VSA2>  (32) 
0.0

>  <SMR_VSA3>  (32) 
14.951936

>  <SMR_VSA4>  (32) 
0.0

>  <SMR_VSA5>  (32) 
0.0

>  <SMR_VSA6>  (32) 
31.078935

>  <SMR_VSA7>  (32) 
18.590531

>  <SMR_VSA8>  (32) 
0.0

>  <SMR_VSA9>  (32) 
0.0

>  <SlogP_VSA1>  (32) 
10.216698

>  <SlogP_VSA10>  (32) 
5.817863

>  <SlogP_VSA11>  (32) 
0.0

>  <SlogP_VSA12>  (32) 
0.0

>  <SlogP_VSA2>  (32) 
41.130961

>  <SlogP_VSA3>  (32) 
0.0

>  <SlogP_VSA4>  (32) 
0.0

>  <SlogP_VSA5>  (32) 
0.0

>  <SlogP_VSA6>  (32) 
18.590531

>  <SlogP_VSA7>  (32) 
0.0

>  <SlogP_VSA8>  (32) 
11.033401

>  <SlogP_VSA9>  (32) 
0.0

>  <EState_VSA1>  (32) 
0.0

>  <EState_VSA10>  (32) 
0.0

>  <EState_VSA11>  (32) 
0.0

>  <EState_VSA2>  (32) 
0.0

>  <EState_VSA3>  (32) 
0.0

>  <EState_VSA4>  (32) 
43.03029

>  <EState_VSA5>  (32) 
0.0

>  <EState_VSA6>  (32) 
6.32732

>  <EState_VSA7>  (32) 
12.263211

>  <EState_VSA8>  (32) 
25.168634

>  <EState_VSA9>  (32) 
0.0

>  <VSA_EState1>  (32) 
0.0

>  <VSA_EState10>  (32) 
0.0

>  <VSA_EState2>  (32) 
14.023904

>  <VSA_EState3>  (32) 
3.463736

>  <VSA_EState4>  (32) 
0.925512

>  <VSA_EState5>  (32) 
1.064213

>  <VSA_EState6>  (32) 
2.04463

>  <VSA_EState7>  (32) 
3.547029

>  <VSA_EState8>  (32) 
4.430977

>  <VSA_EState9>  (32) 
0.0

>  <FractionCSP3>  (32) 
0.4

>  <HeavyAtomCount>  (32) 
15

>  <NHOHCount>  (32) 
3

>  <NOCount>  (32) 
5

>  <NumAliphaticCarbocycles>  (32) 
0

>  <NumAliphaticHeterocycles>  (32) 
1

>  <NumAliphaticRings>  (32) 
1

>  <NumAromaticCarbocycles>  (32) 
0

>  <NumAromaticHeterocycles>  (32) 
2

>  <NumAromaticRings>  (32) 
2

>  <NumHAcceptors>  (32) 
3

>  <NumHDonors>  (32) 
2

>  <NumHeteroatoms>  (32) 
5

>  <NumRotatableBonds>  (32) 
1

>  <NumSaturatedCarbocycles>  (32) 
0

>  <NumSaturatedHeterocycles>  (32) 
1

>  <NumSaturatedRings>  (32) 
1

>  <RingCount>  (32) 
3

>  <MolLogP>  (32) 
-0.6587

>  <MolMR>  (32) 
57.7611

>  <fr_Al_COO>  (32) 
0

>  <fr_Al_OH>  (32) 
0

>  <fr_Al_OH_noTert>  (32) 
0

>  <fr_ArN>  (32) 
0

>  <fr_Ar_COO>  (32) 
0

>  <fr_Ar_N>  (32) 
3

>  <fr_Ar_NH>  (32) 
1

>  <fr_Ar_OH>  (32) 
0

>  <fr_COO>  (32) 
0

>  <fr_COO2>  (32) 
0

>  <fr_C_O>  (32) 
0

>  <fr_C_O_noCOO>  (32) 
0

>  <fr_C_S>  (32) 
0

>  <fr_HOCCN>  (32) 
0

>  <fr_Imine>  (32) 
0

>  <fr_NH0>  (32) 
3

>  <fr_NH1>  (32) 
1

>  <fr_NH2>  (32) 
1

>  <fr_N_O>  (32) 
0

>  <fr_Ndealkylation1>  (32) 
0

>  <fr_Ndealkylation2>  (32) 
0

>  <fr_Nhpyrrole>  (32) 
1

>  <fr_SH>  (32) 
0

>  <fr_aldehyde>  (32) 
0

>  <fr_alkyl_carbamate>  (32) 
0

>  <fr_alkyl_halide>  (32) 
0

>  <fr_allylic_oxid>  (32) 
0

>  <fr_amide>  (32) 
0

>  <fr_amidine>  (32) 
0

>  <fr_aniline>  (32) 
1

>  <fr_aryl_methyl>  (32) 
0

>  <fr_azide>  (32) 
0

>  <fr_azo>  (32) 
0

>  <fr_barbitur>  (32) 
0

>  <fr_benzene>  (32) 
0

>  <fr_benzodiazepine>  (32) 
0

>  <fr_bicyclic>  (32) 
1

>  <fr_diazo>  (32) 
0

>  <fr_dihydropyridine>  (32) 
0

>  <fr_epoxide>  (32) 
0

>  <fr_ester>  (32) 
0

>  <fr_ether>  (32) 
0

>  <fr_furan>  (32) 
0

>  <fr_guanido>  (32) 
0

>  <fr_halogen>  (32) 
0

>  <fr_hdrzine>  (32) 
0

>  <fr_hdrzone>  (32) 
0

>  <fr_imidazole>  (32) 
0

>  <fr_imide>  (32) 
0

>  <fr_isocyan>  (32) 
0

>  <fr_isothiocyan>  (32) 
0

>  <fr_ketone>  (32) 
0

>  <fr_ketone_Topliss>  (32) 
0

>  <fr_lactam>  (32) 
0

>  <fr_lactone>  (32) 
0

>  <fr_methoxy>  (32) 
0

>  <fr_morpholine>  (32) 
0

>  <fr_nitrile>  (32) 
0

>  <fr_nitro>  (32) 
0

>  <fr_nitro_arom>  (32) 
0

>  <fr_nitro_arom_nonortho>  (32) 
0

>  <fr_nitroso>  (32) 
0

>  <fr_oxazole>  (32) 
0

>  <fr_oxime>  (32) 
0

>  <fr_para_hydroxylation>  (32) 
0

>  <fr_phenol>  (32) 
0

>  <fr_phenol_noOrthoHbond>  (32) 
0

>  <fr_phos_acid>  (32) 
0

>  <fr_phos_ester>  (32) 
0

>  <fr_piperdine>  (32) 
0

>  <fr_piperzine>  (32) 
1

>  <fr_priamide>  (32) 
0

>  <fr_prisulfonamd>  (32) 
0

>  <fr_pyridine>  (32) 
0

>  <fr_quatN>  (32) 
1

>  <fr_sulfide>  (32) 
0

>  <fr_sulfonamd>  (32) 
0

>  <fr_sulfone>  (32) 
0

>  <fr_term_acetylene>  (32) 
0

>  <fr_tetrazole>  (32) 
0

>  <fr_thiazole>  (32) 
0

>  <fr_thiocyan>  (32) 
0

>  <fr_thiophene>  (32) 
0

>  <fr_unbrch_alkane>  (32) 
0

>  <fr_urea>  (32) 
0

>  <NP_Likeness>  (32) 
-1.094575

$$$$
6J9
     RDKit          3D

  0  0  0  0  0  0  0  0  0  0999 V3000
M  V30 BEGIN CTAB
M  V30 COUNTS 29 31 0 0 0
M  V30 BEGIN ATOM
M  V30 1 N 15.880000 37.299000 113.394000 0 CHG=1
M  V30 2 N 11.694000 33.245000 109.606000 0
M  V30 3 N 11.943000 34.542000 111.577000 0
M  V30 4 N 13.686000 33.278000 108.090000 0
M  V30 5 N 13.907000 35.808000 112.132000 0
M  V30 6 C 11.223000 33.722000 110.778000 0
M  V30 7 C 15.534000 37.588000 111.987000 0
M  V30 8 C 15.812000 35.849000 113.669000 0
M  V30 9 C 14.904000 33.895000 108.160000 0
M  V30 10 C 14.074000 37.211000 111.730000 0
M  V30 11 C 14.403000 35.296000 113.419000 0
M  V30 12 C 15.042000 34.653000 109.319000 0
M  V30 13 C 12.941000 33.573000 109.171000 0
M  V30 14 C 13.206000 34.947000 111.266000 0
M  V30 15 C 13.795000 34.460000 109.982000 0
M  V30 16 H 15.237200 37.776000 113.993400 0
M  V30 17 H 13.389500 32.688500 107.338700 0
M  V30 18 H 10.303000 33.457900 111.067500 0
M  V30 19 H 16.126600 37.055700 111.382400 0
M  V30 20 H 15.662800 38.563000 111.806100 0
M  V30 21 H 16.060000 35.687200 114.624200 0
M  V30 22 H 16.458400 35.374100 113.071700 0
M  V30 23 H 15.613200 33.811400 107.459900 0
M  V30 24 H 13.469400 37.796000 112.270600 0
M  V30 25 H 13.859300 37.316500 110.759000 0
M  V30 26 H 14.435200 34.296900 113.392100 0
M  V30 27 H 13.792400 35.590100 114.154300 0
M  V30 28 H 15.825300 35.199900 109.614700 0
M  V30 29 H 16.808400 37.623100 113.575600 0
M  V30 END ATOM
M  V30 BEGIN BOND
M  V30 1 1 1 7
M  V30 2 1 1 8
M  V30 3 2 2 6
M  V30 4 1 2 13
M  V30 5 1 3 6
M  V30 6 2 3 14
M  V30 7 1 4 9
M  V30 8 1 4 13
M  V30 9 1 5 10
M  V30 10 1 5 11
M  V30 11 1 5 14
M  V30 12 1 7 10
M  V30 13 1 8 11
M  V30 14 2 9 12
M  V30 15 1 12 15
M  V30 16 2 13 15
M  V30 17 1 14 15
M  V30 18 1 1 16
M  V30 19 1 4 17
M  V30 20 1 6 18
M  V30 21 1 7 19
M  V30 22 1 7 20
M  V30 23 1 8 21
M  V30 24 1 8 22
M  V30 25 1 9 23
M  V30 26 1 10 24
M  V30 27 1 10 25
M  V30 28 1 11 26
M  V30 29 1 11 27
M  V30 30 1 12 28
M  V30 31 1 1 29
M  V30 END BOND
M  V30 END CTAB
M  END
>  <Ligand_Instance>  (33) 
5IZJ_6J9_B_413

>  <Dataset>  (33) 
PDB

>  <PDB_ID>  (33) 
5IZJ

>  <Chain>  (33) 
B

>  <Resi>  (33) 
413

>  <Num_Resolved_Atoms>  (33) 
15

>  <Num_H_Atoms_ProtBoundConf>  (33) 
14

>  <Pocket>  (33) 
X

>  <Name>  (33) 
4-(piperazin-1-yl)-7H-pyrrolo[2,3-d]pyrimidine

>  <Num_Not_Resolved_Atoms>  (33) 
0

>  <ATP_Site>  (33) 
False

>  <Peripheral>  (33) 
True

>  <Standardized_SMILES>  (33) 
[H]C1=NC2=C(C(N3C([H])([H])C([H])([H])[N+]([H])([H])C([H])([H])C3([H])[H])=N1)C([H])=C([H])N2[H]

>  <2D_Mol_H>  (33) 
<rdkit.Chem.rdchem.Mol object at 0x77059d9dbd80>

>  <MW>  (33) 
204.257

>  <HBA>  (33) 
3

>  <HBD>  (33) 
2

>  <LogP>  (33) 
-0.6587

>  <NRB>  (33) 
1

>  <TPSA>  (33) 
61.42

>  <Num_Heavy_Atoms>  (33) 
15

>  <Ro5>  (33) 
[True, True, True, True, True, True]

>  <Ro5_Fulfilled>  (33) 
True

>  <Ro3>  (33) 
[True, True, True, True]

>  <Ro3_Fulfilled>  (33) 
True

>  <Fsp3>  (33) 
0.4

>  <Fsp3_0.42>  (33) 
False

>  <Fsp3_0.45>  (33) 
False

>  <Stereogenic_Carbons>  (33) 
0

>  <C_Atoms>  (33) 
10

>  <FCStereo>  (33) 
0.0

>  <SPS>  (33) 
258

>  <nSPS>  (33) 
17.2

>  <PBF>  (33) 
0.714245

>  <PBF_0.6>  (33) 
True

>  <nPBF>  (33) 
0.047616

>  <nPBF_0.016>  (33) 
True

>  <PMI1>  (33) 
431.554289

>  <PMI2>  (33) 
1219.81642

>  <PMI3>  (33) 
1474.647928

>  <NPR1>  (33) 
0.292649

>  <NPR2>  (33) 
0.827192

>  <Sum_NPR>  (33) 
1.119841

>  <Sum_NPR_1.07>  (33) 
True

>  <Sum_NPR_1.2>  (33) 
False

>  <MaxAbsEStateIndex>  (33) 
4.383704

>  <MaxEStateIndex>  (33) 
4.383704

>  <MinAbsEStateIndex>  (33) 
0.925512

>  <MinEStateIndex>  (33) 
0.925512

>  <qed>  (33) 
0.648106

>  <MolWt>  (33) 
204.257

>  <HeavyAtomMolWt>  (33) 
190.145

>  <ExactMolWt>  (33) 
204.124372

>  <NumValenceElectrons>  (33) 
78

>  <NumRadicalElectrons>  (33) 
0

>  <MaxPartialCharge>  (33) 
0.142344

>  <MinPartialCharge>  (33) 
-0.345986

>  <MaxAbsPartialCharge>  (33) 
0.345986

>  <MinAbsPartialCharge>  (33) 
0.142344

>  <FpDensityMorgan1>  (33) 
1.266667

>  <FpDensityMorgan2>  (33) 
2.133333

>  <FpDensityMorgan3>  (33) 
3.0

>  <BCUT2D_MWHI>  (33) 
15.235688

>  <BCUT2D_MWLOW>  (33) 
10.277533

>  <BCUT2D_CHGHI>  (33) 
2.161617

>  <BCUT2D_CHGLO>  (33) 
-2.258953

>  <BCUT2D_LOGPHI>  (33) 
2.207434

>  <BCUT2D_LOGPLOW>  (33) 
-2.894459

>  <BCUT2D_MRHI>  (33) 
5.867192

>  <BCUT2D_MRLOW>  (33) 
-0.655218

>  <AvgIpc>  (33) 
2.776181

>  <BalabanJ>  (33) 
2.045727

>  <BertzCT>  (33) 
457.535617

>  <Chi0>  (33) 
10.087576

>  <Chi0n>  (33) 
8.479469

>  <Chi0v>  (33) 
8.479469

>  <Chi1>  (33) 
7.44949

>  <Chi1n>  (33) 
5.296854

>  <Chi1v>  (33) 
5.296854

>  <Chi2n>  (33) 
3.790302

>  <Chi2v>  (33) 
3.790302

>  <Chi3n>  (33) 
2.838746

>  <Chi3v>  (33) 
2.838746

>  <Chi4n>  (33) 
2.072886

>  <Chi4v>  (33) 
2.072886

>  <HallKierAlpha>  (33) 
-1.62

>  <Ipc>  (33) 
7140.336991

>  <Kappa1>  (33) 
8.669314

>  <Kappa2>  (33) 
3.507436

>  <Kappa3>  (33) 
1.445239

>  <LabuteASA>  (33) 
87.525157

>  <PEOE_VSA1>  (33) 
15.200677

>  <PEOE_VSA10>  (33) 
17.79236

>  <PEOE_VSA11>  (33) 
0.0

>  <PEOE_VSA12>  (33) 
0.0

>  <PEOE_VSA13>  (33) 
0.0

>  <PEOE_VSA14>  (33) 
0.0

>  <PEOE_VSA2>  (33) 
0.0

>  <PEOE_VSA3>  (33) 
9.967957

>  <PEOE_VSA4>  (33) 
0.0

>  <PEOE_VSA5>  (33) 
0.0

>  <PEOE_VSA6>  (33) 
0.0

>  <PEOE_VSA7>  (33) 
6.066367

>  <PEOE_VSA8>  (33) 
6.196844

>  <PEOE_VSA9>  (33) 
31.56525

>  <SMR_VSA1>  (33) 
5.316789

>  <SMR_VSA10>  (33) 
16.851264

>  <SMR_VSA2>  (33) 
0.0

>  <SMR_VSA3>  (33) 
14.951936

>  <SMR_VSA4>  (33) 
0.0

>  <SMR_VSA5>  (33) 
0.0

>  <SMR_VSA6>  (33) 
31.078935

>  <SMR_VSA7>  (33) 
18.590531

>  <SMR_VSA8>  (33) 
0.0

>  <SMR_VSA9>  (33) 
0.0

>  <SlogP_VSA1>  (33) 
10.216698

>  <SlogP_VSA10>  (33) 
5.817863

>  <SlogP_VSA11>  (33) 
0.0

>  <SlogP_VSA12>  (33) 
0.0

>  <SlogP_VSA2>  (33) 
41.130961

>  <SlogP_VSA3>  (33) 
0.0

>  <SlogP_VSA4>  (33) 
0.0

>  <SlogP_VSA5>  (33) 
0.0

>  <SlogP_VSA6>  (33) 
18.590531

>  <SlogP_VSA7>  (33) 
0.0

>  <SlogP_VSA8>  (33) 
11.033401

>  <SlogP_VSA9>  (33) 
0.0

>  <EState_VSA1>  (33) 
0.0

>  <EState_VSA10>  (33) 
0.0

>  <EState_VSA11>  (33) 
0.0

>  <EState_VSA2>  (33) 
0.0

>  <EState_VSA3>  (33) 
0.0

>  <EState_VSA4>  (33) 
43.03029

>  <EState_VSA5>  (33) 
0.0

>  <EState_VSA6>  (33) 
6.32732

>  <EState_VSA7>  (33) 
12.263211

>  <EState_VSA8>  (33) 
25.168634

>  <EState_VSA9>  (33) 
0.0

>  <VSA_EState1>  (33) 
0.0

>  <VSA_EState10>  (33) 
0.0

>  <VSA_EState2>  (33) 
14.023904

>  <VSA_EState3>  (33) 
3.463736

>  <VSA_EState4>  (33) 
0.925512

>  <VSA_EState5>  (33) 
1.064213

>  <VSA_EState6>  (33) 
2.04463

>  <VSA_EState7>  (33) 
3.547029

>  <VSA_EState8>  (33) 
4.430977

>  <VSA_EState9>  (33) 
0.0

>  <FractionCSP3>  (33) 
0.4

>  <HeavyAtomCount>  (33) 
15

>  <NHOHCount>  (33) 
3

>  <NOCount>  (33) 
5

>  <NumAliphaticCarbocycles>  (33) 
0

>  <NumAliphaticHeterocycles>  (33) 
1

>  <NumAliphaticRings>  (33) 
1

>  <NumAromaticCarbocycles>  (33) 
0

>  <NumAromaticHeterocycles>  (33) 
2

>  <NumAromaticRings>  (33) 
2

>  <NumHAcceptors>  (33) 
3

>  <NumHDonors>  (33) 
2

>  <NumHeteroatoms>  (33) 
5

>  <NumRotatableBonds>  (33) 
1

>  <NumSaturatedCarbocycles>  (33) 
0

>  <NumSaturatedHeterocycles>  (33) 
1

>  <NumSaturatedRings>  (33) 
1

>  <RingCount>  (33) 
3

>  <MolLogP>  (33) 
-0.6587

>  <MolMR>  (33) 
57.7611

>  <fr_Al_COO>  (33) 
0

>  <fr_Al_OH>  (33) 
0

>  <fr_Al_OH_noTert>  (33) 
0

>  <fr_ArN>  (33) 
0

>  <fr_Ar_COO>  (33) 
0

>  <fr_Ar_N>  (33) 
3

>  <fr_Ar_NH>  (33) 
1

>  <fr_Ar_OH>  (33) 
0

>  <fr_COO>  (33) 
0

>  <fr_COO2>  (33) 
0

>  <fr_C_O>  (33) 
0

>  <fr_C_O_noCOO>  (33) 
0

>  <fr_C_S>  (33) 
0

>  <fr_HOCCN>  (33) 
0

>  <fr_Imine>  (33) 
0

>  <fr_NH0>  (33) 
3

>  <fr_NH1>  (33) 
1

>  <fr_NH2>  (33) 
1

>  <fr_N_O>  (33) 
0

>  <fr_Ndealkylation1>  (33) 
0

>  <fr_Ndealkylation2>  (33) 
0

>  <fr_Nhpyrrole>  (33) 
1

>  <fr_SH>  (33) 
0

>  <fr_aldehyde>  (33) 
0

>  <fr_alkyl_carbamate>  (33) 
0

>  <fr_alkyl_halide>  (33) 
0

>  <fr_allylic_oxid>  (33) 
0

>  <fr_amide>  (33) 
0

>  <fr_amidine>  (33) 
0

>  <fr_aniline>  (33) 
1

>  <fr_aryl_methyl>  (33) 
0

>  <fr_azide>  (33) 
0

>  <fr_azo>  (33) 
0

>  <fr_barbitur>  (33) 
0

>  <fr_benzene>  (33) 
0

>  <fr_benzodiazepine>  (33) 
0

>  <fr_bicyclic>  (33) 
1

>  <fr_diazo>  (33) 
0

>  <fr_dihydropyridine>  (33) 
0

>  <fr_epoxide>  (33) 
0

>  <fr_ester>  (33) 
0

>  <fr_ether>  (33) 
0

>  <fr_furan>  (33) 
0

>  <fr_guanido>  (33) 
0

>  <fr_halogen>  (33) 
0

>  <fr_hdrzine>  (33) 
0

>  <fr_hdrzone>  (33) 
0

>  <fr_imidazole>  (33) 
0

>  <fr_imide>  (33) 
0

>  <fr_isocyan>  (33) 
0

>  <fr_isothiocyan>  (33) 
0

>  <fr_ketone>  (33) 
0

>  <fr_ketone_Topliss>  (33) 
0

>  <fr_lactam>  (33) 
0

>  <fr_lactone>  (33) 
0

>  <fr_methoxy>  (33) 
0

>  <fr_morpholine>  (33) 
0

>  <fr_nitrile>  (33) 
0

>  <fr_nitro>  (33) 
0

>  <fr_nitro_arom>  (33) 
0

>  <fr_nitro_arom_nonortho>  (33) 
0

>  <fr_nitroso>  (33) 
0

>  <fr_oxazole>  (33) 
0

>  <fr_oxime>  (33) 
0

>  <fr_para_hydroxylation>  (33) 
0

>  <fr_phenol>  (33) 
0

>  <fr_phenol_noOrthoHbond>  (33) 
0

>  <fr_phos_acid>  (33) 
0

>  <fr_phos_ester>  (33) 
0

>  <fr_piperdine>  (33) 
0

>  <fr_piperzine>  (33) 
1

>  <fr_priamide>  (33) 
0

>  <fr_prisulfonamd>  (33) 
0

>  <fr_pyridine>  (33) 
0

>  <fr_quatN>  (33) 
1

>  <fr_sulfide>  (33) 
0

>  <fr_sulfonamd>  (33) 
0

>  <fr_sulfone>  (33) 
0

>  <fr_term_acetylene>  (33) 
0

>  <fr_tetrazole>  (33) 
0

>  <fr_thiazole>  (33) 
0

>  <fr_thiocyan>  (33) 
0

>  <fr_thiophene>  (33) 
0

>  <fr_unbrch_alkane>  (33) 
0

>  <fr_urea>  (33) 
0

>  <NP_Likeness>  (33) 
-1.094575

$$$$
6J9
     RDKit          3D

  0  0  0  0  0  0  0  0  0  0999 V3000
M  V30 BEGIN CTAB
M  V30 COUNTS 29 31 0 0 0
M  V30 BEGIN ATOM
M  V30 1 N -3.842000 23.043000 -5.206000 0 CHG=1
M  V30 2 N -8.983000 26.469000 -7.591000 0
M  V30 3 N -7.190000 24.944000 -7.285000 0
M  V30 4 N -9.447000 27.952000 -5.614000 0
M  V30 5 N -5.881000 24.775000 -5.266000 0
M  V30 6 C -8.183000 25.476000 -8.037000 0
M  V30 7 C -4.869000 22.804000 -4.183000 0
M  V30 8 C -3.416000 24.454000 -5.159000 0
M  V30 9 C -8.875000 28.076000 -4.374000 0
M  V30 10 C -6.167000 23.511000 -4.576000 0
M  V30 11 C -4.586000 25.449000 -5.163000 0
M  V30 12 C -7.837000 27.165000 -4.256000 0
M  V30 13 C -8.830000 26.987000 -6.341000 0
M  V30 14 C -6.915000 25.362000 -6.024000 0
M  V30 15 C -7.767000 26.452000 -5.474000 0
M  V30 16 H -4.218500 22.839000 -6.109600 0
M  V30 17 H -10.217200 28.500500 -5.939500 0
M  V30 18 H -8.329900 25.119300 -8.959600 0
M  V30 19 H -4.550800 23.159000 -3.304000 0
M  V30 20 H -5.036900 21.821300 -4.104600 0
M  V30 21 H -2.841800 24.637800 -5.956800 0
M  V30 22 H -2.883000 24.595900 -4.324900 0
M  V30 23 H -9.161500 28.721900 -3.666400 0
M  V30 24 H -6.693300 22.916800 -5.184200 0
M  V30 25 H -6.700300 23.700400 -3.751500 0
M  V30 26 H -4.563600 25.976600 -4.313800 0
M  V30 27 H -4.481200 26.067000 -5.942200 0
M  V30 28 H -7.247900 27.036400 -3.458200 0
M  V30 29 H -3.054600 22.451700 -5.031700 0
M  V30 END ATOM
M  V30 BEGIN BOND
M  V30 1 1 1 7
M  V30 2 1 1 8
M  V30 3 2 2 6
M  V30 4 1 2 13
M  V30 5 1 3 6
M  V30 6 2 3 14
M  V30 7 1 4 9
M  V30 8 1 4 13
M  V30 9 1 5 10
M  V30 10 1 5 11
M  V30 11 1 5 14
M  V30 12 1 7 10
M  V30 13 1 8 11
M  V30 14 2 9 12
M  V30 15 1 12 15
M  V30 16 2 13 15
M  V30 17 1 14 15
M  V30 18 1 1 16
M  V30 19 1 4 17
M  V30 20 1 6 18
M  V30 21 1 7 19
M  V30 22 1 7 20
M  V30 23 1 8 21
M  V30 24 1 8 22
M  V30 25 1 9 23
M  V30 26 1 10 24
M  V30 27 1 10 25
M  V30 28 1 11 26
M  V30 29 1 11 27
M  V30 30 1 12 28
M  V30 31 1 1 29
M  V30 END BOND
M  V30 END CTAB
M  END
>  <Ligand_Instance>  (34) 
5J5X_6J9_A_404

>  <Dataset>  (34) 
PDB

>  <PDB_ID>  (34) 
5J5X

>  <Chain>  (34) 
A

>  <Resi>  (34) 
404

>  <Num_Resolved_Atoms>  (34) 
15

>  <Num_H_Atoms_ProtBoundConf>  (34) 
14

>  <Pocket>  (34) 
X

>  <Name>  (34) 
4-(piperazin-1-yl)-7H-pyrrolo[2,3-d]pyrimidine

>  <Num_Not_Resolved_Atoms>  (34) 
0

>  <ATP_Site>  (34) 
False

>  <Peripheral>  (34) 
True

>  <Standardized_SMILES>  (34) 
[H]C1=NC2=C(C(N3C([H])([H])C([H])([H])[N+]([H])([H])C([H])([H])C3([H])[H])=N1)C([H])=C([H])N2[H]

>  <2D_Mol_H>  (34) 
<rdkit.Chem.rdchem.Mol object at 0x77059d9dbe60>

>  <MW>  (34) 
204.257

>  <HBA>  (34) 
3

>  <HBD>  (34) 
2

>  <LogP>  (34) 
-0.6587

>  <NRB>  (34) 
1

>  <TPSA>  (34) 
61.42

>  <Num_Heavy_Atoms>  (34) 
15

>  <Ro5>  (34) 
[True, True, True, True, True, True]

>  <Ro5_Fulfilled>  (34) 
True

>  <Ro3>  (34) 
[True, True, True, True]

>  <Ro3_Fulfilled>  (34) 
True

>  <Fsp3>  (34) 
0.4

>  <Fsp3_0.42>  (34) 
False

>  <Fsp3_0.45>  (34) 
False

>  <Stereogenic_Carbons>  (34) 
0

>  <C_Atoms>  (34) 
10

>  <FCStereo>  (34) 
0.0

>  <SPS>  (34) 
258

>  <nSPS>  (34) 
17.2

>  <PBF>  (34) 
0.676927

>  <PBF_0.6>  (34) 
True

>  <nPBF>  (34) 
0.045128

>  <nPBF_0.016>  (34) 
True

>  <PMI1>  (34) 
388.015221

>  <PMI2>  (34) 
1353.094622

>  <PMI3>  (34) 
1547.279248

>  <NPR1>  (34) 
0.250773

>  <NPR2>  (34) 
0.874499

>  <Sum_NPR>  (34) 
1.125272

>  <Sum_NPR_1.07>  (34) 
True

>  <Sum_NPR_1.2>  (34) 
False

>  <MaxAbsEStateIndex>  (34) 
4.383704

>  <MaxEStateIndex>  (34) 
4.383704

>  <MinAbsEStateIndex>  (34) 
0.925512

>  <MinEStateIndex>  (34) 
0.925512

>  <qed>  (34) 
0.648106

>  <MolWt>  (34) 
204.257

>  <HeavyAtomMolWt>  (34) 
190.145

>  <ExactMolWt>  (34) 
204.124372

>  <NumValenceElectrons>  (34) 
78

>  <NumRadicalElectrons>  (34) 
0

>  <MaxPartialCharge>  (34) 
0.142344

>  <MinPartialCharge>  (34) 
-0.345986

>  <MaxAbsPartialCharge>  (34) 
0.345986

>  <MinAbsPartialCharge>  (34) 
0.142344

>  <FpDensityMorgan1>  (34) 
1.266667

>  <FpDensityMorgan2>  (34) 
2.133333

>  <FpDensityMorgan3>  (34) 
3.0

>  <BCUT2D_MWHI>  (34) 
15.235688

>  <BCUT2D_MWLOW>  (34) 
10.277533

>  <BCUT2D_CHGHI>  (34) 
2.161617

>  <BCUT2D_CHGLO>  (34) 
-2.258953

>  <BCUT2D_LOGPHI>  (34) 
2.207434

>  <BCUT2D_LOGPLOW>  (34) 
-2.894459

>  <BCUT2D_MRHI>  (34) 
5.867192

>  <BCUT2D_MRLOW>  (34) 
-0.655218

>  <AvgIpc>  (34) 
2.776181

>  <BalabanJ>  (34) 
2.045727

>  <BertzCT>  (34) 
457.535617

>  <Chi0>  (34) 
10.087576

>  <Chi0n>  (34) 
8.479469

>  <Chi0v>  (34) 
8.479469

>  <Chi1>  (34) 
7.44949

>  <Chi1n>  (34) 
5.296854

>  <Chi1v>  (34) 
5.296854

>  <Chi2n>  (34) 
3.790302

>  <Chi2v>  (34) 
3.790302

>  <Chi3n>  (34) 
2.838746

>  <Chi3v>  (34) 
2.838746

>  <Chi4n>  (34) 
2.072886

>  <Chi4v>  (34) 
2.072886

>  <HallKierAlpha>  (34) 
-1.62

>  <Ipc>  (34) 
7140.336991

>  <Kappa1>  (34) 
8.669314

>  <Kappa2>  (34) 
3.507436

>  <Kappa3>  (34) 
1.445239

>  <LabuteASA>  (34) 
87.525157

>  <PEOE_VSA1>  (34) 
15.200677

>  <PEOE_VSA10>  (34) 
17.79236

>  <PEOE_VSA11>  (34) 
0.0

>  <PEOE_VSA12>  (34) 
0.0

>  <PEOE_VSA13>  (34) 
0.0

>  <PEOE_VSA14>  (34) 
0.0

>  <PEOE_VSA2>  (34) 
0.0

>  <PEOE_VSA3>  (34) 
9.967957

>  <PEOE_VSA4>  (34) 
0.0

>  <PEOE_VSA5>  (34) 
0.0

>  <PEOE_VSA6>  (34) 
0.0

>  <PEOE_VSA7>  (34) 
6.066367

>  <PEOE_VSA8>  (34) 
6.196844

>  <PEOE_VSA9>  (34) 
31.56525

>  <SMR_VSA1>  (34) 
5.316789

>  <SMR_VSA10>  (34) 
16.851264

>  <SMR_VSA2>  (34) 
0.0

>  <SMR_VSA3>  (34) 
14.951936

>  <SMR_VSA4>  (34) 
0.0

>  <SMR_VSA5>  (34) 
0.0

>  <SMR_VSA6>  (34) 
31.078935

>  <SMR_VSA7>  (34) 
18.590531

>  <SMR_VSA8>  (34) 
0.0

>  <SMR_VSA9>  (34) 
0.0

>  <SlogP_VSA1>  (34) 
10.216698

>  <SlogP_VSA10>  (34) 
5.817863

>  <SlogP_VSA11>  (34) 
0.0

>  <SlogP_VSA12>  (34) 
0.0

>  <SlogP_VSA2>  (34) 
41.130961

>  <SlogP_VSA3>  (34) 
0.0

>  <SlogP_VSA4>  (34) 
0.0

>  <SlogP_VSA5>  (34) 
0.0

>  <SlogP_VSA6>  (34) 
18.590531

>  <SlogP_VSA7>  (34) 
0.0

>  <SlogP_VSA8>  (34) 
11.033401

>  <SlogP_VSA9>  (34) 
0.0

>  <EState_VSA1>  (34) 
0.0

>  <EState_VSA10>  (34) 
0.0

>  <EState_VSA11>  (34) 
0.0

>  <EState_VSA2>  (34) 
0.0

>  <EState_VSA3>  (34) 
0.0

>  <EState_VSA4>  (34) 
43.03029

>  <EState_VSA5>  (34) 
0.0

>  <EState_VSA6>  (34) 
6.32732

>  <EState_VSA7>  (34) 
12.263211

>  <EState_VSA8>  (34) 
25.168634

>  <EState_VSA9>  (34) 
0.0

>  <VSA_EState1>  (34) 
0.0

>  <VSA_EState10>  (34) 
0.0

>  <VSA_EState2>  (34) 
14.023904

>  <VSA_EState3>  (34) 
3.463736

>  <VSA_EState4>  (34) 
0.925512

>  <VSA_EState5>  (34) 
1.064213

>  <VSA_EState6>  (34) 
2.04463

>  <VSA_EState7>  (34) 
3.547029

>  <VSA_EState8>  (34) 
4.430977

>  <VSA_EState9>  (34) 
0.0

>  <FractionCSP3>  (34) 
0.4

>  <HeavyAtomCount>  (34) 
15

>  <NHOHCount>  (34) 
3

>  <NOCount>  (34) 
5

>  <NumAliphaticCarbocycles>  (34) 
0

>  <NumAliphaticHeterocycles>  (34) 
1

>  <NumAliphaticRings>  (34) 
1

>  <NumAromaticCarbocycles>  (34) 
0

>  <NumAromaticHeterocycles>  (34) 
2

>  <NumAromaticRings>  (34) 
2

>  <NumHAcceptors>  (34) 
3

>  <NumHDonors>  (34) 
2

>  <NumHeteroatoms>  (34) 
5

>  <NumRotatableBonds>  (34) 
1

>  <NumSaturatedCarbocycles>  (34) 
0

>  <NumSaturatedHeterocycles>  (34) 
1

>  <NumSaturatedRings>  (34) 
1

>  <RingCount>  (34) 
3

>  <MolLogP>  (34) 
-0.6587

>  <MolMR>  (34) 
57.7611

>  <fr_Al_COO>  (34) 
0

>  <fr_Al_OH>  (34) 
0

>  <fr_Al_OH_noTert>  (34) 
0

>  <fr_ArN>  (34) 
0

>  <fr_Ar_COO>  (34) 
0

>  <fr_Ar_N>  (34) 
3

>  <fr_Ar_NH>  (34) 
1

>  <fr_Ar_OH>  (34) 
0

>  <fr_COO>  (34) 
0

>  <fr_COO2>  (34) 
0

>  <fr_C_O>  (34) 
0

>  <fr_C_O_noCOO>  (34) 
0

>  <fr_C_S>  (34) 
0

>  <fr_HOCCN>  (34) 
0

>  <fr_Imine>  (34) 
0

>  <fr_NH0>  (34) 
3

>  <fr_NH1>  (34) 
1

>  <fr_NH2>  (34) 
1

>  <fr_N_O>  (34) 
0

>  <fr_Ndealkylation1>  (34) 
0

>  <fr_Ndealkylation2>  (34) 
0

>  <fr_Nhpyrrole>  (34) 
1

>  <fr_SH>  (34) 
0

>  <fr_aldehyde>  (34) 
0

>  <fr_alkyl_carbamate>  (34) 
0

>  <fr_alkyl_halide>  (34) 
0

>  <fr_allylic_oxid>  (34) 
0

>  <fr_amide>  (34) 
0

>  <fr_amidine>  (34) 
0

>  <fr_aniline>  (34) 
1

>  <fr_aryl_methyl>  (34) 
0

>  <fr_azide>  (34) 
0

>  <fr_azo>  (34) 
0

>  <fr_barbitur>  (34) 
0

>  <fr_benzene>  (34) 
0

>  <fr_benzodiazepine>  (34) 
0

>  <fr_bicyclic>  (34) 
1

>  <fr_diazo>  (34) 
0

>  <fr_dihydropyridine>  (34) 
0

>  <fr_epoxide>  (34) 
0

>  <fr_ester>  (34) 
0

>  <fr_ether>  (34) 
0

>  <fr_furan>  (34) 
0

>  <fr_guanido>  (34) 
0

>  <fr_halogen>  (34) 
0

>  <fr_hdrzine>  (34) 
0

>  <fr_hdrzone>  (34) 
0

>  <fr_imidazole>  (34) 
0

>  <fr_imide>  (34) 
0

>  <fr_isocyan>  (34) 
0

>  <fr_isothiocyan>  (34) 
0

>  <fr_ketone>  (34) 
0

>  <fr_ketone_Topliss>  (34) 
0

>  <fr_lactam>  (34) 
0

>  <fr_lactone>  (34) 
0

>  <fr_methoxy>  (34) 
0

>  <fr_morpholine>  (34) 
0

>  <fr_nitrile>  (34) 
0

>  <fr_nitro>  (34) 
0

>  <fr_nitro_arom>  (34) 
0

>  <fr_nitro_arom_nonortho>  (34) 
0

>  <fr_nitroso>  (34) 
0

>  <fr_oxazole>  (34) 
0

>  <fr_oxime>  (34) 
0

>  <fr_para_hydroxylation>  (34) 
0

>  <fr_phenol>  (34) 
0

>  <fr_phenol_noOrthoHbond>  (34) 
0

>  <fr_phos_acid>  (34) 
0

>  <fr_phos_ester>  (34) 
0

>  <fr_piperdine>  (34) 
0

>  <fr_piperzine>  (34) 
1

>  <fr_priamide>  (34) 
0

>  <fr_prisulfonamd>  (34) 
0

>  <fr_pyridine>  (34) 
0

>  <fr_quatN>  (34) 
1

>  <fr_sulfide>  (34) 
0

>  <fr_sulfonamd>  (34) 
0

>  <fr_sulfone>  (34) 
0

>  <fr_term_acetylene>  (34) 
0

>  <fr_tetrazole>  (34) 
0

>  <fr_thiazole>  (34) 
0

>  <fr_thiocyan>  (34) 
0

>  <fr_thiophene>  (34) 
0

>  <fr_unbrch_alkane>  (34) 
0

>  <fr_urea>  (34) 
0

>  <NP_Likeness>  (34) 
-1.094575

$$$$
6TV
     RDKit          3D

  0  0  0  0  0  0  0  0  0  0999 V3000
M  V30 BEGIN CTAB
M  V30 COUNTS 40 41 0 0 0
M  V30 BEGIN ATOM
M  V30 1 S 13.064000 -24.023000 -27.911000 0
M  V30 2 O 12.602000 -25.199000 -27.229000 0
M  V30 3 O 13.812000 -24.154000 -29.126000 0
M  V30 4 N 11.745000 -23.157000 -28.242000 0
M  V30 5 N 8.780000 -22.783000 -28.620000 0 CHG=1
M  V30 6 N 16.736000 -24.740000 -23.997000 0
M  V30 7 C 5.618000 -21.550000 -30.364000 0
M  V30 8 C 10.776000 -22.897000 -27.169000 0
M  V30 9 C 9.626000 -22.045000 -27.638000 0
M  V30 10 C 7.615000 -21.961000 -29.061000 0
M  V30 11 C 16.032000 -25.526000 -24.825000 0
M  V30 12 C 16.570000 -23.435000 -24.102000 0
M  V30 13 C 6.654000 -22.577000 -29.945000 0
M  V30 14 C 14.649000 -20.877000 -26.019000 0
M  V30 15 C 15.150000 -25.062000 -25.753000 0
M  V30 16 C 13.899000 -21.693000 -26.850000 0
M  V30 17 C 15.527000 -21.413000 -25.122000 0
M  V30 18 C 14.034000 -23.056000 -26.787000 0
M  V30 19 C 15.692000 -22.815000 -25.024000 0
M  V30 20 C 14.946000 -23.670000 -25.873000 0
M  V30 21 H 12.055100 -22.267900 -28.578600 0
M  V30 22 H 8.443100 -23.622300 -28.193200 0
M  V30 23 H 4.953100 -21.977900 -30.976200 0
M  V30 24 H 5.148100 -21.200600 -29.553300 0
M  V30 25 H 6.070200 -20.794800 -30.838500 0
M  V30 26 H 11.242400 -22.425400 -26.420700 0
M  V30 27 H 10.417000 -23.770500 -26.840200 0
M  V30 28 H 9.065500 -21.789800 -26.850200 0
M  V30 29 H 9.986400 -21.219400 -28.072200 0
M  V30 30 H 7.978200 -21.155700 -29.529600 0
M  V30 31 H 7.123400 -21.674700 -28.238600 0
M  V30 32 H 16.163100 -26.515000 -24.756500 0
M  V30 33 H 17.098500 -22.845800 -23.490900 0
M  V30 34 H 7.123500 -22.926300 -30.755900 0
M  V30 35 H 6.201400 -23.332100 -29.470700 0
M  V30 36 H 14.546000 -19.884000 -26.077000 0
M  V30 37 H 14.653000 -25.699100 -26.342100 0
M  V30 38 H 13.256100 -21.286100 -27.498900 0
M  V30 39 H 16.058800 -20.809100 -24.528300 0
M  V30 40 H 9.335500 -23.014900 -29.418500 0
M  V30 END ATOM
M  V30 BEGIN BOND
M  V30 1 2 1 2
M  V30 2 2 1 3
M  V30 3 1 1 4
M  V30 4 1 1 18
M  V30 5 1 4 8
M  V30 6 1 5 9
M  V30 7 1 5 10
M  V30 8 2 6 11
M  V30 9 1 6 12
M  V30 10 1 7 13
M  V30 11 1 8 9
M  V30 12 1 10 13
M  V30 13 1 11 15
M  V30 14 2 12 19
M  V30 15 1 14 16
M  V30 16 2 14 17
M  V30 17 2 15 20
M  V30 18 2 16 18
M  V30 19 1 17 19
M  V30 20 1 18 20
M  V30 21 1 19 20
M  V30 22 1 4 21
M  V30 23 1 5 22
M  V30 24 1 7 23
M  V30 25 1 7 24
M  V30 26 1 7 25
M  V30 27 1 8 26
M  V30 28 1 8 27
M  V30 29 1 9 28
M  V30 30 1 9 29
M  V30 31 1 10 30
M  V30 32 1 10 31
M  V30 33 1 11 32
M  V30 34 1 12 33
M  V30 35 1 13 34
M  V30 36 1 13 35
M  V30 37 1 14 36
M  V30 38 1 15 37
M  V30 39 1 16 38
M  V30 40 1 17 39
M  V30 41 1 5 40
M  V30 END BOND
M  V30 END CTAB
M  END
>  <Ligand_Instance>  (35) 
5LCQ_6TV_A_401

>  <Dataset>  (35) 
PDB

>  <PDB_ID>  (35) 
5LCQ

>  <Chain>  (35) 
A

>  <Resi>  (35) 
401

>  <Num_Resolved_Atoms>  (35) 
20

>  <Num_H_Atoms_ProtBoundConf>  (35) 
20

>  <Pocket>  (35) 
A

>  <Name>  (35) 
~{N}-[2-(propylamino)ethyl]isoquinoline-5-sulfonamide

>  <Num_Not_Resolved_Atoms>  (35) 
0

>  <ATP_Site>  (35) 
True

>  <Peripheral>  (35) 
False

>  <Standardized_SMILES>  (35) 
[H]C1=NC([H])=C2C([H])=C([H])C([H])=C(S(=O)(=O)N([H])C([H])([H])C([H])([H])[N+]([H])([H])C([H])([H])C([H])([H])C([H])([H])[H])C2=C1[H]

>  <2D_Mol_H>  (35) 
<rdkit.Chem.rdchem.Mol object at 0x77059d9dbf40>

>  <MW>  (35) 
294.4

>  <HBA>  (35) 
3

>  <HBD>  (35) 
2

>  <LogP>  (35) 
0.4865

>  <NRB>  (35) 
8

>  <TPSA>  (35) 
75.67

>  <Num_Heavy_Atoms>  (35) 
20

>  <Ro5>  (35) 
[True, True, True, True, True, True]

>  <Ro5_Fulfilled>  (35) 
True

>  <Ro3>  (35) 
[True, True, True, True]

>  <Ro3_Fulfilled>  (35) 
True

>  <Fsp3>  (35) 
0.357143

>  <Fsp3_0.42>  (35) 
False

>  <Fsp3_0.45>  (35) 
False

>  <Stereogenic_Carbons>  (35) 
0

>  <C_Atoms>  (35) 
14

>  <FCStereo>  (35) 
0.0

>  <SPS>  (35) 
237

>  <nSPS>  (35) 
11.85

>  <PBF>  (35) 
0.622852

>  <PBF_0.6>  (35) 
True

>  <nPBF>  (35) 
0.031143

>  <nPBF_0.016>  (35) 
True

>  <PMI1>  (35) 
616.357581

>  <PMI2>  (35) 
4157.957085

>  <PMI3>  (35) 
4431.04555

>  <NPR1>  (35) 
0.1391

>  <NPR2>  (35) 
0.938369

>  <Sum_NPR>  (35) 
1.077469

>  <Sum_NPR_1.07>  (35) 
True

>  <Sum_NPR_1.2>  (35) 
False

>  <MaxAbsEStateIndex>  (35) 
12.333442

>  <MaxEStateIndex>  (35) 
12.333442

>  <MinAbsEStateIndex>  (35) 
0.312863

>  <MinEStateIndex>  (35) 
-3.471841

>  <qed>  (35) 
0.72965

>  <MolWt>  (35) 
294.4

>  <HeavyAtomMolWt>  (35) 
274.24

>  <ExactMolWt>  (35) 
294.127074

>  <NumValenceElectrons>  (35) 
108

>  <NumRadicalElectrons>  (35) 
0

>  <MaxPartialCharge>  (35) 
0.240888

>  <MinPartialCharge>  (35) 
-0.345177

>  <MaxAbsPartialCharge>  (35) 
0.345177

>  <MinAbsPartialCharge>  (35) 
0.240888

>  <FpDensityMorgan1>  (35) 
1.25

>  <FpDensityMorgan2>  (35) 
2.1

>  <FpDensityMorgan3>  (35) 
2.9

>  <BCUT2D_MWHI>  (35) 
32.233271

>  <BCUT2D_MWLOW>  (35) 
10.168345

>  <BCUT2D_CHGHI>  (35) 
2.160755

>  <BCUT2D_CHGLO>  (35) 
-2.08476

>  <BCUT2D_LOGPHI>  (35) 
2.209221

>  <BCUT2D_LOGPLOW>  (35) 
-2.852126

>  <BCUT2D_MRHI>  (35) 
7.893356

>  <BCUT2D_MRLOW>  (35) 
-0.652241

>  <AvgIpc>  (35) 
2.461221

>  <BalabanJ>  (35) 
2.153688

>  <BertzCT>  (35) 
665.678281

>  <Chi0>  (35) 
14.424439

>  <Chi0n>  (35) 
11.541837

>  <Chi0v>  (35) 
12.358334

>  <Chi1>  (35) 
9.648995

>  <Chi1n>  (35) 
6.789837

>  <Chi1v>  (35) 
8.273

>  <Chi2n>  (35) 
4.616759

>  <Chi2v>  (35) 
6.352135

>  <Chi3n>  (35) 
3.063594

>  <Chi3v>  (35) 
4.582783

>  <Chi4n>  (35) 
2.04873

>  <Chi4v>  (35) 
3.323939

>  <HallKierAlpha>  (35) 
-1.5

>  <Ipc>  (35) 
35727.090436

>  <Kappa1>  (35) 
14.899737

>  <Kappa2>  (35) 
6.784443

>  <Kappa3>  (35) 
3.532301

>  <LabuteASA>  (35) 
119.017926

>  <PEOE_VSA1>  (35) 
5.316789

>  <PEOE_VSA10>  (35) 
0.0

>  <PEOE_VSA11>  (35) 
0.0

>  <PEOE_VSA12>  (35) 
10.023291

>  <PEOE_VSA13>  (35) 
0.0

>  <PEOE_VSA14>  (35) 
0.0

>  <PEOE_VSA2>  (35) 
4.983979

>  <PEOE_VSA3>  (35) 
13.139892

>  <PEOE_VSA4>  (35) 
0.0

>  <PEOE_VSA5>  (35) 
0.0

>  <PEOE_VSA6>  (35) 
19.056471

>  <PEOE_VSA7>  (35) 
18.553556

>  <PEOE_VSA8>  (35) 
23.166136

>  <PEOE_VSA9>  (35) 
24.529753

>  <SMR_VSA1>  (35) 
13.734586

>  <SMR_VSA10>  (35) 
20.79574

>  <SMR_VSA2>  (35) 
0.0

>  <SMR_VSA3>  (35) 
9.706073

>  <SMR_VSA4>  (35) 
0.0

>  <SMR_VSA5>  (35) 
18.240042

>  <SMR_VSA6>  (35) 
19.634269

>  <SMR_VSA7>  (35) 
36.659155

>  <SMR_VSA8>  (35) 
0.0

>  <SMR_VSA9>  (35) 
0.0

>  <SlogP_VSA1>  (35) 
10.038883

>  <SlogP_VSA10>  (35) 
0.0

>  <SlogP_VSA11>  (35) 
0.0

>  <SlogP_VSA12>  (35) 
0.0

>  <SlogP_VSA2>  (35) 
33.036045

>  <SlogP_VSA3>  (35) 
10.023291

>  <SlogP_VSA4>  (35) 
0.0

>  <SlogP_VSA5>  (35) 
13.344559

>  <SlogP_VSA6>  (35) 
41.554639

>  <SlogP_VSA7>  (35) 
0.0

>  <SlogP_VSA8>  (35) 
10.772448

>  <SlogP_VSA9>  (35) 
0.0

>  <EState_VSA1>  (35) 
10.023291

>  <EState_VSA10>  (35) 
8.417797

>  <EState_VSA11>  (35) 
0.0

>  <EState_VSA2>  (35) 
0.0

>  <EState_VSA3>  (35) 
16.826464

>  <EState_VSA4>  (35) 
24.896559

>  <EState_VSA5>  (35) 
0.0

>  <EState_VSA6>  (35) 
30.592788

>  <EState_VSA7>  (35) 
6.066367

>  <EState_VSA8>  (35) 
21.946599

>  <EState_VSA9>  (35) 
0.0

>  <VSA_EState1>  (35) 
27.313781

>  <VSA_EState10>  (35) 
0.0

>  <VSA_EState2>  (35) 
4.324562

>  <VSA_EState3>  (35) 
3.634889

>  <VSA_EState4>  (35) 
0.0

>  <VSA_EState5>  (35) 
0.0

>  <VSA_EState6>  (35) 
6.950092

>  <VSA_EState7>  (35) 
4.36392

>  <VSA_EState8>  (35) 
4.301264

>  <VSA_EState9>  (35) 
-3.471841

>  <FractionCSP3>  (35) 
0.357143

>  <HeavyAtomCount>  (35) 
20

>  <NHOHCount>  (35) 
3

>  <NOCount>  (35) 
5

>  <NumAliphaticCarbocycles>  (35) 
0

>  <NumAliphaticHeterocycles>  (35) 
0

>  <NumAliphaticRings>  (35) 
0

>  <NumAromaticCarbocycles>  (35) 
1

>  <NumAromaticHeterocycles>  (35) 
1

>  <NumAromaticRings>  (35) 
2

>  <NumHAcceptors>  (35) 
3

>  <NumHDonors>  (35) 
2

>  <NumHeteroatoms>  (35) 
6

>  <NumRotatableBonds>  (35) 
7

>  <NumSaturatedCarbocycles>  (35) 
0

>  <NumSaturatedHeterocycles>  (35) 
0

>  <NumSaturatedRings>  (35) 
0

>  <RingCount>  (35) 
2

>  <MolLogP>  (35) 
0.4865

>  <MolMR>  (35) 
78.8819

>  <fr_Al_COO>  (35) 
0

>  <fr_Al_OH>  (35) 
0

>  <fr_Al_OH_noTert>  (35) 
0

>  <fr_ArN>  (35) 
0

>  <fr_Ar_COO>  (35) 
0

>  <fr_Ar_N>  (35) 
1

>  <fr_Ar_NH>  (35) 
0

>  <fr_Ar_OH>  (35) 
0

>  <fr_COO>  (35) 
0

>  <fr_COO2>  (35) 
0

>  <fr_C_O>  (35) 
0

>  <fr_C_O_noCOO>  (35) 
0

>  <fr_C_S>  (35) 
0

>  <fr_HOCCN>  (35) 
0

>  <fr_Imine>  (35) 
0

>  <fr_NH0>  (35) 
1

>  <fr_NH1>  (35) 
1

>  <fr_NH2>  (35) 
1

>  <fr_N_O>  (35) 
0

>  <fr_Ndealkylation1>  (35) 
0

>  <fr_Ndealkylation2>  (35) 
0

>  <fr_Nhpyrrole>  (35) 
0

>  <fr_SH>  (35) 
0

>  <fr_aldehyde>  (35) 
0

>  <fr_alkyl_carbamate>  (35) 
0

>  <fr_alkyl_halide>  (35) 
0

>  <fr_allylic_oxid>  (35) 
0

>  <fr_amide>  (35) 
0

>  <fr_amidine>  (35) 
0

>  <fr_aniline>  (35) 
0

>  <fr_aryl_methyl>  (35) 
0

>  <fr_azide>  (35) 
0

>  <fr_azo>  (35) 
0

>  <fr_barbitur>  (35) 
0

>  <fr_benzene>  (35) 
1

>  <fr_benzodiazepine>  (35) 
0

>  <fr_bicyclic>  (35) 
1

>  <fr_diazo>  (35) 
0

>  <fr_dihydropyridine>  (35) 
0

>  <fr_epoxide>  (35) 
0

>  <fr_ester>  (35) 
0

>  <fr_ether>  (35) 
0

>  <fr_furan>  (35) 
0

>  <fr_guanido>  (35) 
0

>  <fr_halogen>  (35) 
0

>  <fr_hdrzine>  (35) 
0

>  <fr_hdrzone>  (35) 
0

>  <fr_imidazole>  (35) 
0

>  <fr_imide>  (35) 
0

>  <fr_isocyan>  (35) 
0

>  <fr_isothiocyan>  (35) 
0

>  <fr_ketone>  (35) 
0

>  <fr_ketone_Topliss>  (35) 
0

>  <fr_lactam>  (35) 
0

>  <fr_lactone>  (35) 
0

>  <fr_methoxy>  (35) 
0

>  <fr_morpholine>  (35) 
0

>  <fr_nitrile>  (35) 
0

>  <fr_nitro>  (35) 
0

>  <fr_nitro_arom>  (35) 
0

>  <fr_nitro_arom_nonortho>  (35) 
0

>  <fr_nitroso>  (35) 
0

>  <fr_oxazole>  (35) 
0

>  <fr_oxime>  (35) 
0

>  <fr_para_hydroxylation>  (35) 
0

>  <fr_phenol>  (35) 
0

>  <fr_phenol_noOrthoHbond>  (35) 
0

>  <fr_phos_acid>  (35) 
0

>  <fr_phos_ester>  (35) 
0

>  <fr_piperdine>  (35) 
0

>  <fr_piperzine>  (35) 
0

>  <fr_priamide>  (35) 
0

>  <fr_prisulfonamd>  (35) 
0

>  <fr_pyridine>  (35) 
1

>  <fr_quatN>  (35) 
1

>  <fr_sulfide>  (35) 
0

>  <fr_sulfonamd>  (35) 
1

>  <fr_sulfone>  (35) 
0

>  <fr_term_acetylene>  (35) 
0

>  <fr_tetrazole>  (35) 
0

>  <fr_thiazole>  (35) 
0

>  <fr_thiocyan>  (35) 
0

>  <fr_thiophene>  (35) 
0

>  <fr_unbrch_alkane>  (35) 
0

>  <fr_urea>  (35) 
0

>  <NP_Likeness>  (35) 
-1.266721

$$$$
6TV
     RDKit          3D

  0  0  0  0  0  0  0  0  0  0999 V3000
M  V30 BEGIN CTAB
M  V30 COUNTS 40 41 0 0 0
M  V30 BEGIN ATOM
M  V30 1 S -12.808000 -25.998000 26.920000 0
M  V30 2 O -13.412000 -27.244000 27.274000 0
M  V30 3 O -12.393000 -25.108000 27.962000 0
M  V30 4 N -11.481000 -26.327000 26.057000 0
M  V30 5 N -8.712000 -25.690000 27.274000 0 CHG=1
M  V30 6 N -16.638000 -26.742000 23.101000 0
M  V30 7 C -5.517000 -25.212000 29.458000 0
M  V30 8 C -10.545000 -25.277000 25.618000 0
M  V30 9 C -9.668000 -24.704000 26.706000 0
M  V30 10 C -7.629000 -25.052000 28.093000 0
M  V30 11 C -15.866000 -27.535000 23.869000 0
M  V30 12 C -16.522000 -25.432000 23.266000 0
M  V30 13 C -6.657000 -25.962000 28.769000 0
M  V30 14 C -14.692000 -22.880000 25.281000 0
M  V30 15 C -14.974000 -27.076000 24.796000 0
M  V30 16 C -13.864000 -23.693000 26.035000 0
M  V30 17 C -15.556000 -23.417000 24.375000 0
M  V30 18 C -13.920000 -25.054000 25.906000 0
M  V30 19 C -15.644000 -24.822000 24.197000 0
M  V30 20 C -14.826000 -25.680000 24.987000 0
M  V30 21 H -10.943600 -26.967000 26.606100 0
M  V30 22 H -8.287700 -26.192700 26.520900 0
M  V30 23 H -4.900000 -25.868700 29.891600 0
M  V30 24 H -5.012000 -24.677500 28.780300 0
M  V30 25 H -5.893200 -24.599100 30.152900 0
M  V30 26 H -11.080500 -24.529000 25.225800 0
M  V30 27 H -9.950800 -25.666300 24.914200 0
M  V30 28 H -9.146700 -23.940900 26.324000 0
M  V30 29 H -10.255100 -24.370500 27.443600 0
M  V30 30 H -8.072000 -24.504500 28.803000 0
M  V30 31 H -7.107300 -24.452100 27.486400 0
M  V30 32 H -15.951600 -28.524500 23.752800 0
M  V30 33 H -17.089700 -24.836300 22.697800 0
M  V30 34 H -7.147200 -26.498000 29.456300 0
M  V30 35 H -6.266000 -26.576400 28.083700 0
M  V30 36 H -14.655700 -21.888100 25.402500 0
M  V30 37 H -14.430400 -27.719400 25.334900 0
M  V30 38 H -13.219200 -23.282300 26.679600 0
M  V30 39 H -16.135900 -22.813100 23.828200 0
M  V30 40 H -9.218600 -26.326200 27.855900 0
M  V30 END ATOM
M  V30 BEGIN BOND
M  V30 1 2 1 2
M  V30 2 2 1 3
M  V30 3 1 1 4
M  V30 4 1 1 18
M  V30 5 1 4 8
M  V30 6 1 5 9
M  V30 7 1 5 10
M  V30 8 2 6 11
M  V30 9 1 6 12
M  V30 10 1 7 13
M  V30 11 1 8 9
M  V30 12 1 10 13
M  V30 13 1 11 15
M  V30 14 2 12 19
M  V30 15 1 14 16
M  V30 16 2 14 17
M  V30 17 2 15 20
M  V30 18 2 16 18
M  V30 19 1 17 19
M  V30 20 1 18 20
M  V30 21 1 19 20
M  V30 22 1 4 21
M  V30 23 1 5 22
M  V30 24 1 7 23
M  V30 25 1 7 24
M  V30 26 1 7 25
M  V30 27 1 8 26
M  V30 28 1 8 27
M  V30 29 1 9 28
M  V30 30 1 9 29
M  V30 31 1 10 30
M  V30 32 1 10 31
M  V30 33 1 11 32
M  V30 34 1 12 33
M  V30 35 1 13 34
M  V30 36 1 13 35
M  V30 37 1 14 36
M  V30 38 1 15 37
M  V30 39 1 16 38
M  V30 40 1 17 39
M  V30 41 1 5 40
M  V30 END BOND
M  V30 END CTAB
M  END
>  <Ligand_Instance>  (36) 
6YQI_6TV_A_401

>  <Dataset>  (36) 
PDB

>  <PDB_ID>  (36) 
6YQI

>  <Chain>  (36) 
A

>  <Resi>  (36) 
401

>  <Num_Resolved_Atoms>  (36) 
20

>  <Num_H_Atoms_ProtBoundConf>  (36) 
20

>  <Pocket>  (36) 
A

>  <Name>  (36) 
~{N}-[2-(propylamino)ethyl]isoquinoline-5-sulfonamide

>  <Num_Not_Resolved_Atoms>  (36) 
0

>  <ATP_Site>  (36) 
True

>  <Peripheral>  (36) 
False

>  <Standardized_SMILES>  (36) 
[H]C1=NC([H])=C2C([H])=C([H])C([H])=C(S(=O)(=O)N([H])C([H])([H])C([H])([H])[N+]([H])([H])C([H])([H])C([H])([H])C([H])([H])[H])C2=C1[H]

>  <2D_Mol_H>  (36) 
<rdkit.Chem.rdchem.Mol object at 0x77059d9e40b0>

>  <MW>  (36) 
294.4

>  <HBA>  (36) 
3

>  <HBD>  (36) 
2

>  <LogP>  (36) 
0.4865

>  <NRB>  (36) 
8

>  <TPSA>  (36) 
75.67

>  <Num_Heavy_Atoms>  (36) 
20

>  <Ro5>  (36) 
[True, True, True, True, True, True]

>  <Ro5_Fulfilled>  (36) 
True

>  <Ro3>  (36) 
[True, True, True, True]

>  <Ro3_Fulfilled>  (36) 
True

>  <Fsp3>  (36) 
0.357143

>  <Fsp3_0.42>  (36) 
False

>  <Fsp3_0.45>  (36) 
False

>  <Stereogenic_Carbons>  (36) 
0

>  <C_Atoms>  (36) 
14

>  <FCStereo>  (36) 
0.0

>  <SPS>  (36) 
237

>  <nSPS>  (36) 
11.85

>  <PBF>  (36) 
0.642633

>  <PBF_0.6>  (36) 
True

>  <nPBF>  (36) 
0.032132

>  <nPBF_0.016>  (36) 
True

>  <PMI1>  (36) 
603.626131

>  <PMI2>  (36) 
3979.183385

>  <PMI3>  (36) 
4215.066941

>  <NPR1>  (36) 
0.143207

>  <NPR2>  (36) 
0.944038

>  <Sum_NPR>  (36) 
1.087245

>  <Sum_NPR_1.07>  (36) 
True

>  <Sum_NPR_1.2>  (36) 
False

>  <MaxAbsEStateIndex>  (36) 
12.333442

>  <MaxEStateIndex>  (36) 
12.333442

>  <MinAbsEStateIndex>  (36) 
0.312863

>  <MinEStateIndex>  (36) 
-3.471841

>  <qed>  (36) 
0.72965

>  <MolWt>  (36) 
294.4

>  <HeavyAtomMolWt>  (36) 
274.24

>  <ExactMolWt>  (36) 
294.127074

>  <NumValenceElectrons>  (36) 
108

>  <NumRadicalElectrons>  (36) 
0

>  <MaxPartialCharge>  (36) 
0.240888

>  <MinPartialCharge>  (36) 
-0.345177

>  <MaxAbsPartialCharge>  (36) 
0.345177

>  <MinAbsPartialCharge>  (36) 
0.240888

>  <FpDensityMorgan1>  (36) 
1.25

>  <FpDensityMorgan2>  (36) 
2.1

>  <FpDensityMorgan3>  (36) 
2.9

>  <BCUT2D_MWHI>  (36) 
32.233271

>  <BCUT2D_MWLOW>  (36) 
10.168345

>  <BCUT2D_CHGHI>  (36) 
2.160755

>  <BCUT2D_CHGLO>  (36) 
-2.08476

>  <BCUT2D_LOGPHI>  (36) 
2.209221

>  <BCUT2D_LOGPLOW>  (36) 
-2.852126

>  <BCUT2D_MRHI>  (36) 
7.893356

>  <BCUT2D_MRLOW>  (36) 
-0.652241

>  <AvgIpc>  (36) 
2.461221

>  <BalabanJ>  (36) 
2.153688

>  <BertzCT>  (36) 
665.678281

>  <Chi0>  (36) 
14.424439

>  <Chi0n>  (36) 
11.541837

>  <Chi0v>  (36) 
12.358334

>  <Chi1>  (36) 
9.648995

>  <Chi1n>  (36) 
6.789837

>  <Chi1v>  (36) 
8.273

>  <Chi2n>  (36) 
4.616759

>  <Chi2v>  (36) 
6.352135

>  <Chi3n>  (36) 
3.063594

>  <Chi3v>  (36) 
4.582783

>  <Chi4n>  (36) 
2.04873

>  <Chi4v>  (36) 
3.323939

>  <HallKierAlpha>  (36) 
-1.5

>  <Ipc>  (36) 
35727.090436

>  <Kappa1>  (36) 
14.899737

>  <Kappa2>  (36) 
6.784443

>  <Kappa3>  (36) 
3.532301

>  <LabuteASA>  (36) 
119.017926

>  <PEOE_VSA1>  (36) 
5.316789

>  <PEOE_VSA10>  (36) 
0.0

>  <PEOE_VSA11>  (36) 
0.0

>  <PEOE_VSA12>  (36) 
10.023291

>  <PEOE_VSA13>  (36) 
0.0

>  <PEOE_VSA14>  (36) 
0.0

>  <PEOE_VSA2>  (36) 
4.983979

>  <PEOE_VSA3>  (36) 
13.139892

>  <PEOE_VSA4>  (36) 
0.0

>  <PEOE_VSA5>  (36) 
0.0

>  <PEOE_VSA6>  (36) 
19.056471

>  <PEOE_VSA7>  (36) 
18.553556

>  <PEOE_VSA8>  (36) 
23.166136

>  <PEOE_VSA9>  (36) 
24.529753

>  <SMR_VSA1>  (36) 
13.734586

>  <SMR_VSA10>  (36) 
20.79574

>  <SMR_VSA2>  (36) 
0.0

>  <SMR_VSA3>  (36) 
9.706073

>  <SMR_VSA4>  (36) 
0.0

>  <SMR_VSA5>  (36) 
18.240042

>  <SMR_VSA6>  (36) 
19.634269

>  <SMR_VSA7>  (36) 
36.659155

>  <SMR_VSA8>  (36) 
0.0

>  <SMR_VSA9>  (36) 
0.0

>  <SlogP_VSA1>  (36) 
10.038883

>  <SlogP_VSA10>  (36) 
0.0

>  <SlogP_VSA11>  (36) 
0.0

>  <SlogP_VSA12>  (36) 
0.0

>  <SlogP_VSA2>  (36) 
33.036045

>  <SlogP_VSA3>  (36) 
10.023291

>  <SlogP_VSA4>  (36) 
0.0

>  <SlogP_VSA5>  (36) 
13.344559

>  <SlogP_VSA6>  (36) 
41.554639

>  <SlogP_VSA7>  (36) 
0.0

>  <SlogP_VSA8>  (36) 
10.772448

>  <SlogP_VSA9>  (36) 
0.0

>  <EState_VSA1>  (36) 
10.023291

>  <EState_VSA10>  (36) 
8.417797

>  <EState_VSA11>  (36) 
0.0

>  <EState_VSA2>  (36) 
0.0

>  <EState_VSA3>  (36) 
16.826464

>  <EState_VSA4>  (36) 
24.896559

>  <EState_VSA5>  (36) 
0.0

>  <EState_VSA6>  (36) 
30.592788

>  <EState_VSA7>  (36) 
6.066367

>  <EState_VSA8>  (36) 
21.946599

>  <EState_VSA9>  (36) 
0.0

>  <VSA_EState1>  (36) 
27.313781

>  <VSA_EState10>  (36) 
0.0

>  <VSA_EState2>  (36) 
4.324562

>  <VSA_EState3>  (36) 
3.634889

>  <VSA_EState4>  (36) 
0.0

>  <VSA_EState5>  (36) 
0.0

>  <VSA_EState6>  (36) 
6.950092

>  <VSA_EState7>  (36) 
4.36392

>  <VSA_EState8>  (36) 
4.301264

>  <VSA_EState9>  (36) 
-3.471841

>  <FractionCSP3>  (36) 
0.357143

>  <HeavyAtomCount>  (36) 
20

>  <NHOHCount>  (36) 
3

>  <NOCount>  (36) 
5

>  <NumAliphaticCarbocycles>  (36) 
0

>  <NumAliphaticHeterocycles>  (36) 
0

>  <NumAliphaticRings>  (36) 
0

>  <NumAromaticCarbocycles>  (36) 
1

>  <NumAromaticHeterocycles>  (36) 
1

>  <NumAromaticRings>  (36) 
2

>  <NumHAcceptors>  (36) 
3

>  <NumHDonors>  (36) 
2

>  <NumHeteroatoms>  (36) 
6

>  <NumRotatableBonds>  (36) 
7

>  <NumSaturatedCarbocycles>  (36) 
0

>  <NumSaturatedHeterocycles>  (36) 
0

>  <NumSaturatedRings>  (36) 
0

>  <RingCount>  (36) 
2

>  <MolLogP>  (36) 
0.4865

>  <MolMR>  (36) 
78.8819

>  <fr_Al_COO>  (36) 
0

>  <fr_Al_OH>  (36) 
0

>  <fr_Al_OH_noTert>  (36) 
0

>  <fr_ArN>  (36) 
0

>  <fr_Ar_COO>  (36) 
0

>  <fr_Ar_N>  (36) 
1

>  <fr_Ar_NH>  (36) 
0

>  <fr_Ar_OH>  (36) 
0

>  <fr_COO>  (36) 
0

>  <fr_COO2>  (36) 
0

>  <fr_C_O>  (36) 
0

>  <fr_C_O_noCOO>  (36) 
0

>  <fr_C_S>  (36) 
0

>  <fr_HOCCN>  (36) 
0

>  <fr_Imine>  (36) 
0

>  <fr_NH0>  (36) 
1

>  <fr_NH1>  (36) 
1

>  <fr_NH2>  (36) 
1

>  <fr_N_O>  (36) 
0

>  <fr_Ndealkylation1>  (36) 
0

>  <fr_Ndealkylation2>  (36) 
0

>  <fr_Nhpyrrole>  (36) 
0

>  <fr_SH>  (36) 
0

>  <fr_aldehyde>  (36) 
0

>  <fr_alkyl_carbamate>  (36) 
0

>  <fr_alkyl_halide>  (36) 
0

>  <fr_allylic_oxid>  (36) 
0

>  <fr_amide>  (36) 
0

>  <fr_amidine>  (36) 
0

>  <fr_aniline>  (36) 
0

>  <fr_aryl_methyl>  (36) 
0

>  <fr_azide>  (36) 
0

>  <fr_azo>  (36) 
0

>  <fr_barbitur>  (36) 
0

>  <fr_benzene>  (36) 
1

>  <fr_benzodiazepine>  (36) 
0

>  <fr_bicyclic>  (36) 
1

>  <fr_diazo>  (36) 
0

>  <fr_dihydropyridine>  (36) 
0

>  <fr_epoxide>  (36) 
0

>  <fr_ester>  (36) 
0

>  <fr_ether>  (36) 
0

>  <fr_furan>  (36) 
0

>  <fr_guanido>  (36) 
0

>  <fr_halogen>  (36) 
0

>  <fr_hdrzine>  (36) 
0

>  <fr_hdrzone>  (36) 
0

>  <fr_imidazole>  (36) 
0

>  <fr_imide>  (36) 
0

>  <fr_isocyan>  (36) 
0

>  <fr_isothiocyan>  (36) 
0

>  <fr_ketone>  (36) 
0

>  <fr_ketone_Topliss>  (36) 
0

>  <fr_lactam>  (36) 
0

>  <fr_lactone>  (36) 
0

>  <fr_methoxy>  (36) 
0

>  <fr_morpholine>  (36) 
0

>  <fr_nitrile>  (36) 
0

>  <fr_nitro>  (36) 
0

>  <fr_nitro_arom>  (36) 
0

>  <fr_nitro_arom_nonortho>  (36) 
0

>  <fr_nitroso>  (36) 
0

>  <fr_oxazole>  (36) 
0

>  <fr_oxime>  (36) 
0

>  <fr_para_hydroxylation>  (36) 
0

>  <fr_phenol>  (36) 
0

>  <fr_phenol_noOrthoHbond>  (36) 
0

>  <fr_phos_acid>  (36) 
0

>  <fr_phos_ester>  (36) 
0

>  <fr_piperdine>  (36) 
0

>  <fr_piperzine>  (36) 
0

>  <fr_priamide>  (36) 
0

>  <fr_prisulfonamd>  (36) 
0

>  <fr_pyridine>  (36) 
1

>  <fr_quatN>  (36) 
1

>  <fr_sulfide>  (36) 
0

>  <fr_sulfonamd>  (36) 
1

>  <fr_sulfone>  (36) 
0

>  <fr_term_acetylene>  (36) 
0

>  <fr_tetrazole>  (36) 
0

>  <fr_thiazole>  (36) 
0

>  <fr_thiocyan>  (36) 
0

>  <fr_thiophene>  (36) 
0

>  <fr_unbrch_alkane>  (36) 
0

>  <fr_urea>  (36) 
0

>  <NP_Likeness>  (36) 
-1.266721

$$$$
6TX
     RDKit          3D

  0  0  0  0  0  0  0  0  0  0999 V3000
M  V30 BEGIN CTAB
M  V30 COUNTS 40 41 0 0 0
M  V30 BEGIN ATOM
M  V30 1 S -13.848000 -25.066000 27.474000 0
M  V30 2 O -13.058000 -25.854000 26.587000 0
M  V30 3 O -14.602000 -25.700000 28.509000 0
M  V30 4 N -9.586000 -22.768000 26.769000 0 CHG=1
M  V30 5 N -17.475000 -26.037000 23.596000 0
M  V30 6 N -12.849000 -23.995000 28.191000 0
M  V30 7 C -12.636000 -22.967000 31.818000 0
M  V30 8 C -10.556000 -23.762000 27.283000 0
M  V30 9 C -16.716000 -26.773000 24.421000 0
M  V30 10 C -17.441000 -24.718000 23.739000 0
M  V30 11 C -11.951000 -23.181000 27.342000 0
M  V30 12 C -13.242000 -23.405000 29.488000 0
M  V30 13 C -12.176000 -23.618000 30.530000 0
M  V30 14 C -15.807000 -22.037000 25.757000 0
M  V30 15 C -15.899000 -26.249000 25.377000 0
M  V30 16 C -14.973000 -22.800000 26.560000 0
M  V30 17 C -16.627000 -22.632000 24.845000 0
M  V30 18 C -14.977000 -24.164000 26.463000 0
M  V30 19 C -16.647000 -24.043000 24.697000 0
M  V30 20 C -15.827000 -24.841000 25.533000 0
M  V30 21 H -8.673700 -23.176600 26.740100 0
M  V30 22 H -9.854200 -22.485900 25.847900 0
M  V30 23 H -11.940300 -23.097500 32.524400 0
M  V30 24 H -12.776600 -21.988800 31.665300 0
M  V30 25 H -13.494700 -23.384900 32.114600 0
M  V30 26 H -10.279900 -24.042700 28.202200 0
M  V30 27 H -10.559100 -24.558300 26.678200 0
M  V30 28 H -16.751900 -27.768100 24.328800 0
M  V30 29 H -18.012400 -24.166100 23.131600 0
M  V30 30 H -11.900800 -22.255700 27.717900 0
M  V30 31 H -12.326100 -23.144600 26.415700 0
M  V30 32 H -14.090700 -23.834000 29.797500 0
M  V30 33 H -13.389200 -22.423200 29.368200 0
M  V30 34 H -12.036900 -24.597400 30.676600 0
M  V30 35 H -11.318800 -23.201200 30.227400 0
M  V30 36 H -15.806900 -21.041100 25.847700 0
M  V30 37 H -15.355800 -26.850700 25.962600 0
M  V30 38 H -14.364900 -22.350100 27.214000 0
M  V30 39 H -17.221800 -22.067000 24.273200 0
M  V30 40 H -9.575000 -21.970300 27.372000 0
M  V30 END ATOM
M  V30 BEGIN BOND
M  V30 1 2 1 2
M  V30 2 2 1 3
M  V30 3 1 1 6
M  V30 4 1 1 18
M  V30 5 1 4 8
M  V30 6 2 5 9
M  V30 7 1 5 10
M  V30 8 1 6 11
M  V30 9 1 6 12
M  V30 10 1 7 13
M  V30 11 1 8 11
M  V30 12 1 9 15
M  V30 13 2 10 19
M  V30 14 1 12 13
M  V30 15 1 14 16
M  V30 16 2 14 17
M  V30 17 2 15 20
M  V30 18 2 16 18
M  V30 19 1 17 19
M  V30 20 1 18 20
M  V30 21 1 19 20
M  V30 22 1 4 21
M  V30 23 1 4 22
M  V30 24 1 7 23
M  V30 25 1 7 24
M  V30 26 1 7 25
M  V30 27 1 8 26
M  V30 28 1 8 27
M  V30 29 1 9 28
M  V30 30 1 10 29
M  V30 31 1 11 30
M  V30 32 1 11 31
M  V30 33 1 12 32
M  V30 34 1 12 33
M  V30 35 1 13 34
M  V30 36 1 13 35
M  V30 37 1 14 36
M  V30 38 1 15 37
M  V30 39 1 16 38
M  V30 40 1 17 39
M  V30 41 1 4 40
M  V30 END BOND
M  V30 END CTAB
M  END
>  <Ligand_Instance>  (37) 
5LCR_6TX_A_401

>  <Dataset>  (37) 
PDB

>  <PDB_ID>  (37) 
5LCR

>  <Chain>  (37) 
A

>  <Resi>  (37) 
401

>  <Num_Resolved_Atoms>  (37) 
20

>  <Num_H_Atoms_ProtBoundConf>  (37) 
20

>  <Pocket>  (37) 
A

>  <Name>  (37) 
2-[isoquinolin-5-ylsulfonyl(propyl)amino]ethylazanium

>  <Num_Not_Resolved_Atoms>  (37) 
0

>  <ATP_Site>  (37) 
True

>  <Peripheral>  (37) 
False

>  <Standardized_SMILES>  (37) 
[H]C1=NC([H])=C2C([H])=C([H])C([H])=C(S(=O)(=O)N(C([H])([H])C([H])([H])C([H])([H])[H])C([H])([H])C([H])([H])[N+]([H])([H])[H])C2=C1[H]

>  <2D_Mol_H>  (37) 
<rdkit.Chem.rdchem.Mol object at 0x77059d9e4190>

>  <MW>  (37) 
294.4

>  <HBA>  (37) 
3

>  <HBD>  (37) 
1

>  <LogP>  (37) 
0.8774

>  <NRB>  (37) 
8

>  <TPSA>  (37) 
77.91

>  <Num_Heavy_Atoms>  (37) 
20

>  <Ro5>  (37) 
[True, True, True, True, True, True]

>  <Ro5_Fulfilled>  (37) 
True

>  <Ro3>  (37) 
[True, True, True, True]

>  <Ro3_Fulfilled>  (37) 
True

>  <Fsp3>  (37) 
0.357143

>  <Fsp3_0.42>  (37) 
False

>  <Fsp3_0.45>  (37) 
False

>  <Stereogenic_Carbons>  (37) 
0

>  <C_Atoms>  (37) 
14

>  <FCStereo>  (37) 
0.0

>  <SPS>  (37) 
243

>  <nSPS>  (37) 
12.15

>  <PBF>  (37) 
1.068786

>  <PBF_0.6>  (37) 
True

>  <nPBF>  (37) 
0.053439

>  <nPBF_0.016>  (37) 
True

>  <PMI1>  (37) 
910.816825

>  <PMI2>  (37) 
2770.946324

>  <PMI3>  (37) 
2837.546919

>  <NPR1>  (37) 
0.320987

>  <NPR2>  (37) 
0.976529

>  <Sum_NPR>  (37) 
1.297516

>  <Sum_NPR_1.07>  (37) 
True

>  <Sum_NPR_1.2>  (37) 
True

>  <MaxAbsEStateIndex>  (37) 
12.803947

>  <MaxEStateIndex>  (37) 
12.803947

>  <MinAbsEStateIndex>  (37) 
0.346574

>  <MinEStateIndex>  (37) 
-3.486412

>  <qed>  (37) 
0.858693

>  <MolWt>  (37) 
294.4

>  <HeavyAtomMolWt>  (37) 
274.24

>  <ExactMolWt>  (37) 
294.127074

>  <NumValenceElectrons>  (37) 
108

>  <NumRadicalElectrons>  (37) 
0

>  <MaxPartialCharge>  (37) 
0.243393

>  <MinPartialCharge>  (37) 
-0.356467

>  <MaxAbsPartialCharge>  (37) 
0.356467

>  <MinAbsPartialCharge>  (37) 
0.243393

>  <FpDensityMorgan1>  (37) 
1.25

>  <FpDensityMorgan2>  (37) 
2.05

>  <FpDensityMorgan3>  (37) 
2.75

>  <BCUT2D_MWHI>  (37) 
32.233427

>  <BCUT2D_MWLOW>  (37) 
10.168307

>  <BCUT2D_CHGHI>  (37) 
2.248395

>  <BCUT2D_CHGLO>  (37) 
-2.205334

>  <BCUT2D_LOGPHI>  (37) 
2.245243

>  <BCUT2D_LOGPLOW>  (37) 
-2.552775

>  <BCUT2D_MRHI>  (37) 
7.889635

>  <BCUT2D_MRLOW>  (37) 
-0.36689

>  <AvgIpc>  (37) 
2.460858

>  <BalabanJ>  (37) 
2.555317

>  <BertzCT>  (37) 
674.383424

>  <Chi0>  (37) 
14.587576

>  <Chi0n>  (37) 
11.618808

>  <Chi0v>  (37) 
12.435304

>  <Chi1>  (37) 
9.60772

>  <Chi1n>  (37) 
6.730692

>  <Chi1v>  (37) 
8.170756

>  <Chi2n>  (37) 
4.610599

>  <Chi2v>  (37) 
6.516956

>  <Chi3n>  (37) 
3.139083

>  <Chi3v>  (37) 
5.095876

>  <Chi4n>  (37) 
2.23477

>  <Chi4v>  (37) 
4.019667

>  <HallKierAlpha>  (37) 
-1.5

>  <Ipc>  (37) 
34048.426157

>  <Kappa1>  (37) 
14.899737

>  <Kappa2>  (37) 
6.3

>  <Kappa3>  (37) 
2.818933

>  <LabuteASA>  (37) 
119.017926

>  <PEOE_VSA1>  (37) 
5.733667

>  <PEOE_VSA10>  (37) 
0.0

>  <PEOE_VSA11>  (37) 
0.0

>  <PEOE_VSA12>  (37) 
10.023291

>  <PEOE_VSA13>  (37) 
0.0

>  <PEOE_VSA14>  (37) 
0.0

>  <PEOE_VSA2>  (37) 
4.983979

>  <PEOE_VSA3>  (37) 
8.417797

>  <PEOE_VSA4>  (37) 
4.305216

>  <PEOE_VSA5>  (37) 
0.0

>  <PEOE_VSA6>  (37) 
19.056471

>  <PEOE_VSA7>  (37) 
18.553556

>  <PEOE_VSA8>  (37) 
29.710892

>  <PEOE_VSA9>  (37) 
17.984996

>  <SMR_VSA1>  (37) 
14.151464

>  <SMR_VSA10>  (37) 
20.79574

>  <SMR_VSA2>  (37) 
0.0

>  <SMR_VSA3>  (37) 
9.289195

>  <SMR_VSA4>  (37) 
0.0

>  <SMR_VSA5>  (37) 
18.240042

>  <SMR_VSA6>  (37) 
19.634269

>  <SMR_VSA7>  (37) 
36.659155

>  <SMR_VSA8>  (37) 
0.0

>  <SMR_VSA9>  (37) 
0.0

>  <SlogP_VSA1>  (37) 
5.733667

>  <SlogP_VSA10>  (37) 
0.0

>  <SlogP_VSA11>  (37) 
0.0

>  <SlogP_VSA12>  (37) 
0.0

>  <SlogP_VSA2>  (37) 
37.341261

>  <SlogP_VSA3>  (37) 
10.023291

>  <SlogP_VSA4>  (37) 
0.0

>  <SlogP_VSA5>  (37) 
13.344559

>  <SlogP_VSA6>  (37) 
41.554639

>  <SlogP_VSA7>  (37) 
0.0

>  <SlogP_VSA8>  (37) 
10.772448

>  <SlogP_VSA9>  (37) 
0.0

>  <EState_VSA1>  (37) 
10.023291

>  <EState_VSA10>  (37) 
8.417797

>  <EState_VSA11>  (37) 
0.0

>  <EState_VSA2>  (37) 
0.0

>  <EState_VSA3>  (37) 
29.915977

>  <EState_VSA4>  (37) 
11.807046

>  <EState_VSA5>  (37) 
4.305216

>  <EState_VSA6>  (37) 
30.592788

>  <EState_VSA7>  (37) 
12.990104

>  <EState_VSA8>  (37) 
10.717646

>  <EState_VSA9>  (37) 
0.0

>  <VSA_EState1>  (37) 
27.117024

>  <VSA_EState10>  (37) 
0.0

>  <VSA_EState2>  (37) 
4.381703

>  <VSA_EState3>  (37) 
1.548437

>  <VSA_EState4>  (37) 
3.761129

>  <VSA_EState5>  (37) 
0.0

>  <VSA_EState6>  (37) 
7.025855

>  <VSA_EState7>  (37) 
4.081679

>  <VSA_EState8>  (37) 
3.487252

>  <VSA_EState9>  (37) 
-3.486412

>  <FractionCSP3>  (37) 
0.357143

>  <HeavyAtomCount>  (37) 
20

>  <NHOHCount>  (37) 
3

>  <NOCount>  (37) 
5

>  <NumAliphaticCarbocycles>  (37) 
0

>  <NumAliphaticHeterocycles>  (37) 
0

>  <NumAliphaticRings>  (37) 
0

>  <NumAromaticCarbocycles>  (37) 
1

>  <NumAromaticHeterocycles>  (37) 
1

>  <NumAromaticRings>  (37) 
2

>  <NumHAcceptors>  (37) 
3

>  <NumHDonors>  (37) 
1

>  <NumHeteroatoms>  (37) 
6

>  <NumRotatableBonds>  (37) 
6

>  <NumSaturatedCarbocycles>  (37) 
0

>  <NumSaturatedHeterocycles>  (37) 
0

>  <NumSaturatedRings>  (37) 
0

>  <RingCount>  (37) 
2

>  <MolLogP>  (37) 
0.8774

>  <MolMR>  (37) 
78.5479

>  <fr_Al_COO>  (37) 
0

>  <fr_Al_OH>  (37) 
0

>  <fr_Al_OH_noTert>  (37) 
0

>  <fr_ArN>  (37) 
0

>  <fr_Ar_COO>  (37) 
0

>  <fr_Ar_N>  (37) 
1

>  <fr_Ar_NH>  (37) 
0

>  <fr_Ar_OH>  (37) 
0

>  <fr_COO>  (37) 
0

>  <fr_COO2>  (37) 
0

>  <fr_C_O>  (37) 
0

>  <fr_C_O_noCOO>  (37) 
0

>  <fr_C_S>  (37) 
0

>  <fr_HOCCN>  (37) 
0

>  <fr_Imine>  (37) 
0

>  <fr_NH0>  (37) 
2

>  <fr_NH1>  (37) 
0

>  <fr_NH2>  (37) 
0

>  <fr_N_O>  (37) 
0

>  <fr_Ndealkylation1>  (37) 
0

>  <fr_Ndealkylation2>  (37) 
0

>  <fr_Nhpyrrole>  (37) 
0

>  <fr_SH>  (37) 
0

>  <fr_aldehyde>  (37) 
0

>  <fr_alkyl_carbamate>  (37) 
0

>  <fr_alkyl_halide>  (37) 
0

>  <fr_allylic_oxid>  (37) 
0

>  <fr_amide>  (37) 
0

>  <fr_amidine>  (37) 
0

>  <fr_aniline>  (37) 
0

>  <fr_aryl_methyl>  (37) 
0

>  <fr_azide>  (37) 
0

>  <fr_azo>  (37) 
0

>  <fr_barbitur>  (37) 
0

>  <fr_benzene>  (37) 
1

>  <fr_benzodiazepine>  (37) 
0

>  <fr_bicyclic>  (37) 
1

>  <fr_diazo>  (37) 
0

>  <fr_dihydropyridine>  (37) 
0

>  <fr_epoxide>  (37) 
0

>  <fr_ester>  (37) 
0

>  <fr_ether>  (37) 
0

>  <fr_furan>  (37) 
0

>  <fr_guanido>  (37) 
0

>  <fr_halogen>  (37) 
0

>  <fr_hdrzine>  (37) 
0

>  <fr_hdrzone>  (37) 
0

>  <fr_imidazole>  (37) 
0

>  <fr_imide>  (37) 
0

>  <fr_isocyan>  (37) 
0

>  <fr_isothiocyan>  (37) 
0

>  <fr_ketone>  (37) 
0

>  <fr_ketone_Topliss>  (37) 
0

>  <fr_lactam>  (37) 
0

>  <fr_lactone>  (37) 
0

>  <fr_methoxy>  (37) 
0

>  <fr_morpholine>  (37) 
0

>  <fr_nitrile>  (37) 
0

>  <fr_nitro>  (37) 
0

>  <fr_nitro_arom>  (37) 
0

>  <fr_nitro_arom_nonortho>  (37) 
0

>  <fr_nitroso>  (37) 
0

>  <fr_oxazole>  (37) 
0

>  <fr_oxime>  (37) 
0

>  <fr_para_hydroxylation>  (37) 
0

>  <fr_phenol>  (37) 
0

>  <fr_phenol_noOrthoHbond>  (37) 
0

>  <fr_phos_acid>  (37) 
0

>  <fr_phos_ester>  (37) 
0

>  <fr_piperdine>  (37) 
0

>  <fr_piperzine>  (37) 
0

>  <fr_priamide>  (37) 
0

>  <fr_prisulfonamd>  (37) 
0

>  <fr_pyridine>  (37) 
1

>  <fr_quatN>  (37) 
1

>  <fr_sulfide>  (37) 
0

>  <fr_sulfonamd>  (37) 
1

>  <fr_sulfone>  (37) 
0

>  <fr_term_acetylene>  (37) 
0

>  <fr_tetrazole>  (37) 
0

>  <fr_thiazole>  (37) 
0

>  <fr_thiocyan>  (37) 
0

>  <fr_thiophene>  (37) 
0

>  <fr_unbrch_alkane>  (37) 
0

>  <fr_urea>  (37) 
0

>  <NP_Likeness>  (37) 
-1.566217

$$$$
6TX
     RDKit          3D

  0  0  0  0  0  0  0  0  0  0999 V3000
M  V30 BEGIN CTAB
M  V30 COUNTS 40 41 0 0 0
M  V30 BEGIN ATOM
M  V30 1 S -12.728000 -25.793000 26.797000 0
M  V30 2 O -13.408000 -26.366000 27.915000 0
M  V30 3 O -12.033000 -26.639000 25.877000 0
M  V30 4 N -9.022000 -25.971000 26.818000 0 CHG=1
M  V30 5 N -16.788000 -26.663000 23.270000 0
M  V30 6 N -11.624000 -24.746000 27.401000 0
M  V30 7 C -11.339000 -23.691000 31.077000 0
M  V30 8 C -9.210000 -24.498000 26.825000 0
M  V30 9 C -16.010000 -27.423000 24.058000 0
M  V30 10 C -16.652000 -25.339000 23.366000 0
M  V30 11 C -10.639000 -24.124000 26.486000 0
M  V30 12 C -11.942000 -24.011000 28.646000 0
M  V30 13 C -11.109000 -24.512000 29.817000 0
M  V30 14 C -14.734000 -22.728000 25.223000 0
M  V30 15 C -15.080000 -26.930000 24.928000 0
M  V30 16 C -13.885000 -23.521000 25.981000 0
M  V30 17 C -15.638000 -23.288000 24.371000 0
M  V30 18 C -13.947000 -24.884000 25.889000 0
M  V30 19 C -15.742000 -24.695000 24.246000 0
M  V30 20 C -14.905000 -25.527000 25.039000 0
M  V30 21 H -8.330600 -26.215600 26.138200 0
M  V30 22 H -8.721500 -26.273000 27.722700 0
M  V30 23 H -10.774300 -24.053200 31.818600 0
M  V30 24 H -11.090600 -22.737900 30.903800 0
M  V30 25 H -12.303300 -23.742200 31.336800 0
M  V30 26 H -8.597000 -24.088100 26.149600 0
M  V30 27 H -8.987900 -24.145500 27.734100 0
M  V30 28 H -16.119000 -28.415600 24.004100 0
M  V30 29 H -17.226200 -24.764800 22.782400 0
M  V30 30 H -10.732000 -23.130000 26.543400 0
M  V30 31 H -10.835500 -24.423800 25.552500 0
M  V30 32 H -12.910900 -24.136500 28.859100 0
M  V30 33 H -11.754700 -23.038700 28.506300 0
M  V30 34 H -11.354100 -25.463500 30.003100 0
M  V30 35 H -10.141400 -24.459200 29.570100 0
M  V30 36 H -14.681900 -21.732600 25.302900 0
M  V30 37 H -14.527300 -27.552700 25.481900 0
M  V30 38 H -13.224100 -23.093700 26.598000 0
M  V30 39 H -16.235300 -22.698400 23.827300 0
M  V30 40 H -9.887400 -26.416400 26.588400 0
M  V30 END ATOM
M  V30 BEGIN BOND
M  V30 1 2 1 2
M  V30 2 2 1 3
M  V30 3 1 1 6
M  V30 4 1 1 18
M  V30 5 1 4 8
M  V30 6 2 5 9
M  V30 7 1 5 10
M  V30 8 1 6 11
M  V30 9 1 6 12
M  V30 10 1 7 13
M  V30 11 1 8 11
M  V30 12 1 9 15
M  V30 13 2 10 19
M  V30 14 1 12 13
M  V30 15 1 14 16
M  V30 16 2 14 17
M  V30 17 2 15 20
M  V30 18 2 16 18
M  V30 19 1 17 19
M  V30 20 1 18 20
M  V30 21 1 19 20
M  V30 22 1 4 21
M  V30 23 1 4 22
M  V30 24 1 7 23
M  V30 25 1 7 24
M  V30 26 1 7 25
M  V30 27 1 8 26
M  V30 28 1 8 27
M  V30 29 1 9 28
M  V30 30 1 10 29
M  V30 31 1 11 30
M  V30 32 1 11 31
M  V30 33 1 12 32
M  V30 34 1 12 33
M  V30 35 1 13 34
M  V30 36 1 13 35
M  V30 37 1 14 36
M  V30 38 1 15 37
M  V30 39 1 16 38
M  V30 40 1 17 39
M  V30 41 1 4 40
M  V30 END BOND
M  V30 END CTAB
M  END
>  <Ligand_Instance>  (38) 
6YQJ_6TX_A_401

>  <Dataset>  (38) 
PDB

>  <PDB_ID>  (38) 
6YQJ

>  <Chain>  (38) 
A

>  <Resi>  (38) 
401

>  <Num_Resolved_Atoms>  (38) 
20

>  <Num_H_Atoms_ProtBoundConf>  (38) 
20

>  <Pocket>  (38) 
A

>  <Name>  (38) 
2-[isoquinolin-5-ylsulfonyl(propyl)amino]ethylazanium

>  <Num_Not_Resolved_Atoms>  (38) 
0

>  <ATP_Site>  (38) 
True

>  <Peripheral>  (38) 
False

>  <Standardized_SMILES>  (38) 
[H]C1=NC([H])=C2C([H])=C([H])C([H])=C(S(=O)(=O)N(C([H])([H])C([H])([H])C([H])([H])[H])C([H])([H])C([H])([H])[N+]([H])([H])[H])C2=C1[H]

>  <2D_Mol_H>  (38) 
<rdkit.Chem.rdchem.Mol object at 0x77059d9e4270>

>  <MW>  (38) 
294.4

>  <HBA>  (38) 
3

>  <HBD>  (38) 
1

>  <LogP>  (38) 
0.8774

>  <NRB>  (38) 
8

>  <TPSA>  (38) 
77.91

>  <Num_Heavy_Atoms>  (38) 
20

>  <Ro5>  (38) 
[True, True, True, True, True, True]

>  <Ro5_Fulfilled>  (38) 
True

>  <Ro3>  (38) 
[True, True, True, True]

>  <Ro3_Fulfilled>  (38) 
True

>  <Fsp3>  (38) 
0.357143

>  <Fsp3_0.42>  (38) 
False

>  <Fsp3_0.45>  (38) 
False

>  <Stereogenic_Carbons>  (38) 
0

>  <C_Atoms>  (38) 
14

>  <FCStereo>  (38) 
0.0

>  <SPS>  (38) 
243

>  <nSPS>  (38) 
12.15

>  <PBF>  (38) 
1.103942

>  <PBF_0.6>  (38) 
True

>  <nPBF>  (38) 
0.055197

>  <nPBF_0.016>  (38) 
True

>  <PMI1>  (38) 
838.451048

>  <PMI2>  (38) 
2691.609169

>  <PMI3>  (38) 
2866.041671

>  <NPR1>  (38) 
0.292547

>  <NPR2>  (38) 
0.939138

>  <Sum_NPR>  (38) 
1.231685

>  <Sum_NPR_1.07>  (38) 
True

>  <Sum_NPR_1.2>  (38) 
True

>  <MaxAbsEStateIndex>  (38) 
12.803947

>  <MaxEStateIndex>  (38) 
12.803947

>  <MinAbsEStateIndex>  (38) 
0.346574

>  <MinEStateIndex>  (38) 
-3.486412

>  <qed>  (38) 
0.858693

>  <MolWt>  (38) 
294.4

>  <HeavyAtomMolWt>  (38) 
274.24

>  <ExactMolWt>  (38) 
294.127074

>  <NumValenceElectrons>  (38) 
108

>  <NumRadicalElectrons>  (38) 
0

>  <MaxPartialCharge>  (38) 
0.243393

>  <MinPartialCharge>  (38) 
-0.356467

>  <MaxAbsPartialCharge>  (38) 
0.356467

>  <MinAbsPartialCharge>  (38) 
0.243393

>  <FpDensityMorgan1>  (38) 
1.25

>  <FpDensityMorgan2>  (38) 
2.05

>  <FpDensityMorgan3>  (38) 
2.75

>  <BCUT2D_MWHI>  (38) 
32.233427

>  <BCUT2D_MWLOW>  (38) 
10.168307

>  <BCUT2D_CHGHI>  (38) 
2.248395

>  <BCUT2D_CHGLO>  (38) 
-2.205334

>  <BCUT2D_LOGPHI>  (38) 
2.245243

>  <BCUT2D_LOGPLOW>  (38) 
-2.552775

>  <BCUT2D_MRHI>  (38) 
7.889635

>  <BCUT2D_MRLOW>  (38) 
-0.36689

>  <AvgIpc>  (38) 
2.460858

>  <BalabanJ>  (38) 
2.555317

>  <BertzCT>  (38) 
674.383424

>  <Chi0>  (38) 
14.587576

>  <Chi0n>  (38) 
11.618808

>  <Chi0v>  (38) 
12.435304

>  <Chi1>  (38) 
9.60772

>  <Chi1n>  (38) 
6.730692

>  <Chi1v>  (38) 
8.170756

>  <Chi2n>  (38) 
4.610599

>  <Chi2v>  (38) 
6.516956

>  <Chi3n>  (38) 
3.139083

>  <Chi3v>  (38) 
5.095876

>  <Chi4n>  (38) 
2.23477

>  <Chi4v>  (38) 
4.019667

>  <HallKierAlpha>  (38) 
-1.5

>  <Ipc>  (38) 
34048.426157

>  <Kappa1>  (38) 
14.899737

>  <Kappa2>  (38) 
6.3

>  <Kappa3>  (38) 
2.818933

>  <LabuteASA>  (38) 
119.017926

>  <PEOE_VSA1>  (38) 
5.733667

>  <PEOE_VSA10>  (38) 
0.0

>  <PEOE_VSA11>  (38) 
0.0

>  <PEOE_VSA12>  (38) 
10.023291

>  <PEOE_VSA13>  (38) 
0.0

>  <PEOE_VSA14>  (38) 
0.0

>  <PEOE_VSA2>  (38) 
4.983979

>  <PEOE_VSA3>  (38) 
8.417797

>  <PEOE_VSA4>  (38) 
4.305216

>  <PEOE_VSA5>  (38) 
0.0

>  <PEOE_VSA6>  (38) 
19.056471

>  <PEOE_VSA7>  (38) 
18.553556

>  <PEOE_VSA8>  (38) 
29.710892

>  <PEOE_VSA9>  (38) 
17.984996

>  <SMR_VSA1>  (38) 
14.151464

>  <SMR_VSA10>  (38) 
20.79574

>  <SMR_VSA2>  (38) 
0.0

>  <SMR_VSA3>  (38) 
9.289195

>  <SMR_VSA4>  (38) 
0.0

>  <SMR_VSA5>  (38) 
18.240042

>  <SMR_VSA6>  (38) 
19.634269

>  <SMR_VSA7>  (38) 
36.659155

>  <SMR_VSA8>  (38) 
0.0

>  <SMR_VSA9>  (38) 
0.0

>  <SlogP_VSA1>  (38) 
5.733667

>  <SlogP_VSA10>  (38) 
0.0

>  <SlogP_VSA11>  (38) 
0.0

>  <SlogP_VSA12>  (38) 
0.0

>  <SlogP_VSA2>  (38) 
37.341261

>  <SlogP_VSA3>  (38) 
10.023291

>  <SlogP_VSA4>  (38) 
0.0

>  <SlogP_VSA5>  (38) 
13.344559

>  <SlogP_VSA6>  (38) 
41.554639

>  <SlogP_VSA7>  (38) 
0.0

>  <SlogP_VSA8>  (38) 
10.772448

>  <SlogP_VSA9>  (38) 
0.0

>  <EState_VSA1>  (38) 
10.023291

>  <EState_VSA10>  (38) 
8.417797

>  <EState_VSA11>  (38) 
0.0

>  <EState_VSA2>  (38) 
0.0

>  <EState_VSA3>  (38) 
29.915977

>  <EState_VSA4>  (38) 
11.807046

>  <EState_VSA5>  (38) 
4.305216

>  <EState_VSA6>  (38) 
30.592788

>  <EState_VSA7>  (38) 
12.990104

>  <EState_VSA8>  (38) 
10.717646

>  <EState_VSA9>  (38) 
0.0

>  <VSA_EState1>  (38) 
27.117024

>  <VSA_EState10>  (38) 
0.0

>  <VSA_EState2>  (38) 
4.381703

>  <VSA_EState3>  (38) 
1.548437

>  <VSA_EState4>  (38) 
3.761129

>  <VSA_EState5>  (38) 
0.0

>  <VSA_EState6>  (38) 
7.025855

>  <VSA_EState7>  (38) 
4.081679

>  <VSA_EState8>  (38) 
3.487252

>  <VSA_EState9>  (38) 
-3.486412

>  <FractionCSP3>  (38) 
0.357143

>  <HeavyAtomCount>  (38) 
20

>  <NHOHCount>  (38) 
3

>  <NOCount>  (38) 
5

>  <NumAliphaticCarbocycles>  (38) 
0

>  <NumAliphaticHeterocycles>  (38) 
0

>  <NumAliphaticRings>  (38) 
0

>  <NumAromaticCarbocycles>  (38) 
1

>  <NumAromaticHeterocycles>  (38) 
1

>  <NumAromaticRings>  (38) 
2

>  <NumHAcceptors>  (38) 
3

>  <NumHDonors>  (38) 
1

>  <NumHeteroatoms>  (38) 
6

>  <NumRotatableBonds>  (38) 
6

>  <NumSaturatedCarbocycles>  (38) 
0

>  <NumSaturatedHeterocycles>  (38) 
0

>  <NumSaturatedRings>  (38) 
0

>  <RingCount>  (38) 
2

>  <MolLogP>  (38) 
0.8774

>  <MolMR>  (38) 
78.5479

>  <fr_Al_COO>  (38) 
0

>  <fr_Al_OH>  (38) 
0

>  <fr_Al_OH_noTert>  (38) 
0

>  <fr_ArN>  (38) 
0

>  <fr_Ar_COO>  (38) 
0

>  <fr_Ar_N>  (38) 
1

>  <fr_Ar_NH>  (38) 
0

>  <fr_Ar_OH>  (38) 
0

>  <fr_COO>  (38) 
0

>  <fr_COO2>  (38) 
0

>  <fr_C_O>  (38) 
0

>  <fr_C_O_noCOO>  (38) 
0

>  <fr_C_S>  (38) 
0

>  <fr_HOCCN>  (38) 
0

>  <fr_Imine>  (38) 
0

>  <fr_NH0>  (38) 
2

>  <fr_NH1>  (38) 
0

>  <fr_NH2>  (38) 
0

>  <fr_N_O>  (38) 
0

>  <fr_Ndealkylation1>  (38) 
0

>  <fr_Ndealkylation2>  (38) 
0

>  <fr_Nhpyrrole>  (38) 
0

>  <fr_SH>  (38) 
0

>  <fr_aldehyde>  (38) 
0

>  <fr_alkyl_carbamate>  (38) 
0

>  <fr_alkyl_halide>  (38) 
0

>  <fr_allylic_oxid>  (38) 
0

>  <fr_amide>  (38) 
0

>  <fr_amidine>  (38) 
0

>  <fr_aniline>  (38) 
0

>  <fr_aryl_methyl>  (38) 
0

>  <fr_azide>  (38) 
0

>  <fr_azo>  (38) 
0

>  <fr_barbitur>  (38) 
0

>  <fr_benzene>  (38) 
1

>  <fr_benzodiazepine>  (38) 
0

>  <fr_bicyclic>  (38) 
1

>  <fr_diazo>  (38) 
0

>  <fr_dihydropyridine>  (38) 
0

>  <fr_epoxide>  (38) 
0

>  <fr_ester>  (38) 
0

>  <fr_ether>  (38) 
0

>  <fr_furan>  (38) 
0

>  <fr_guanido>  (38) 
0

>  <fr_halogen>  (38) 
0

>  <fr_hdrzine>  (38) 
0

>  <fr_hdrzone>  (38) 
0

>  <fr_imidazole>  (38) 
0

>  <fr_imide>  (38) 
0

>  <fr_isocyan>  (38) 
0

>  <fr_isothiocyan>  (38) 
0

>  <fr_ketone>  (38) 
0

>  <fr_ketone_Topliss>  (38) 
0

>  <fr_lactam>  (38) 
0

>  <fr_lactone>  (38) 
0

>  <fr_methoxy>  (38) 
0

>  <fr_morpholine>  (38) 
0

>  <fr_nitrile>  (38) 
0

>  <fr_nitro>  (38) 
0

>  <fr_nitro_arom>  (38) 
0

>  <fr_nitro_arom_nonortho>  (38) 
0

>  <fr_nitroso>  (38) 
0

>  <fr_oxazole>  (38) 
0

>  <fr_oxime>  (38) 
0

>  <fr_para_hydroxylation>  (38) 
0

>  <fr_phenol>  (38) 
0

>  <fr_phenol_noOrthoHbond>  (38) 
0

>  <fr_phos_acid>  (38) 
0

>  <fr_phos_ester>  (38) 
0

>  <fr_piperdine>  (38) 
0

>  <fr_piperzine>  (38) 
0

>  <fr_priamide>  (38) 
0

>  <fr_prisulfonamd>  (38) 
0

>  <fr_pyridine>  (38) 
1

>  <fr_quatN>  (38) 
1

>  <fr_sulfide>  (38) 
0

>  <fr_sulfonamd>  (38) 
1

>  <fr_sulfone>  (38) 
0

>  <fr_term_acetylene>  (38) 
0

>  <fr_tetrazole>  (38) 
0

>  <fr_thiazole>  (38) 
0

>  <fr_thiocyan>  (38) 
0

>  <fr_thiophene>  (38) 
0

>  <fr_unbrch_alkane>  (38) 
0

>  <fr_urea>  (38) 
0

>  <NP_Likeness>  (38) 
-1.566217

$$$$
6TY
     RDKit          3D

  0  0  0  0  0  0  0  0  0  0999 V3000
M  V30 BEGIN CTAB
M  V30 COUNTS 38 40 0 0 0
M  V30 BEGIN ATOM
M  V30 1 S -13.909000 25.243000 -27.607000 0
M  V30 2 O -13.399000 26.351000 -26.864000 0
M  V30 3 O -14.498000 25.446000 -28.890000 0
M  V30 4 N -10.673000 22.276000 -28.022000 0 CHG=1
M  V30 5 N -17.575000 26.419000 -23.809000 0
M  V30 6 N -12.654000 24.213000 -27.787000 0
M  V30 7 C -10.431000 25.061000 -27.027000 0
M  V30 8 C -11.817000 22.261000 -28.965000 0
M  V30 9 C -16.818000 27.112000 -24.677000 0
M  V30 10 C -11.093000 22.671000 -26.678000 0
M  V30 11 C -17.551000 25.091000 -23.897000 0
M  V30 12 C -12.355000 23.655000 -29.120000 0
M  V30 13 C -15.918000 22.312000 -25.791000 0
M  V30 14 C -16.007000 26.539000 -25.618000 0
M  V30 15 C -15.098000 23.038000 -26.643000 0
M  V30 16 C -16.741000 22.953000 -24.904000 0
M  V30 17 C -15.097000 24.406000 -26.607000 0
M  V30 18 C -11.582000 24.104000 -26.747000 0 CFG=2
M  V30 19 C -16.767000 24.369000 -24.831000 0
M  V30 20 C -15.945000 25.128000 -25.711000 0
M  V30 21 H -9.987700 22.925000 -28.352400 0
M  V30 22 H -9.735000 24.962500 -26.315700 0
M  V30 23 H -10.029700 24.848100 -27.917800 0
M  V30 24 H -10.772500 26.000900 -27.031300 0
M  V30 25 H -12.535500 21.664000 -28.608200 0
M  V30 26 H -11.511700 21.920500 -29.854300 0
M  V30 27 H -16.849700 28.110500 -24.632000 0
M  V30 28 H -10.319900 22.605500 -26.047100 0
M  V30 29 H -11.831400 22.074500 -26.363400 0
M  V30 30 H -18.122700 24.569500 -23.263600 0
M  V30 31 H -11.673700 24.227200 -29.576600 0
M  V30 32 H -13.191400 23.631400 -29.667600 0
M  V30 33 H -15.907800 21.312600 -25.825000 0
M  V30 34 H -15.464100 27.110600 -26.233200 0
M  V30 35 H -14.503400 22.558000 -27.288100 0
M  V30 36 H -17.330700 22.416300 -24.300500 0
M  V30 37 H -11.979500 24.342600 -25.860900 0
M  V30 38 H -10.272800 21.360400 -27.981700 0
M  V30 END ATOM
M  V30 BEGIN BOND
M  V30 1 2 1 2
M  V30 2 2 1 3
M  V30 3 1 1 6
M  V30 4 1 1 17
M  V30 5 1 4 8
M  V30 6 1 4 10
M  V30 7 2 5 9
M  V30 8 1 5 11
M  V30 9 1 6 12
M  V30 10 1 6 18
M  V30 11 1 7 18
M  V30 12 1 8 12
M  V30 13 1 9 14
M  V30 14 1 10 18
M  V30 15 2 11 19
M  V30 16 1 13 15
M  V30 17 2 13 16
M  V30 18 2 14 20
M  V30 19 2 15 17
M  V30 20 1 16 19
M  V30 21 1 17 20
M  V30 22 1 19 20
M  V30 23 1 4 21
M  V30 24 1 7 22
M  V30 25 1 7 23
M  V30 26 1 7 24
M  V30 27 1 8 25
M  V30 28 1 8 26
M  V30 29 1 9 27
M  V30 30 1 10 28
M  V30 31 1 10 29
M  V30 32 1 11 30
M  V30 33 1 12 31
M  V30 34 1 12 32
M  V30 35 1 13 33
M  V30 36 1 14 34
M  V30 37 1 15 35
M  V30 38 1 16 36
M  V30 39 1 18 37 CFG=1
M  V30 40 1 4 38
M  V30 END BOND
M  V30 END CTAB
M  END
>  <Ligand_Instance>  (39) 
5LCT_6TY_A_401

>  <Dataset>  (39) 
PDB

>  <PDB_ID>  (39) 
5LCT

>  <Chain>  (39) 
A

>  <Resi>  (39) 
401

>  <Num_Resolved_Atoms>  (39) 
20

>  <Num_H_Atoms_ProtBoundConf>  (39) 
18

>  <Pocket>  (39) 
A

>  <Name>  (39) 
5-[(2~{R})-2-methylpiperazin-1-yl]sulfonylisoquinoline

>  <Num_Not_Resolved_Atoms>  (39) 
0

>  <ATP_Site>  (39) 
True

>  <Peripheral>  (39) 
False

>  <Standardized_SMILES>  (39) 
[H]C1=NC([H])=C2C([H])=C([H])C([H])=C(S(=O)(=O)N3C([H])([H])C([H])([H])[N+]([H])([H])C([H])([H])[C@@]3([H])C([H])([H])[H])C2=C1[H]

>  <2D_Mol_H>  (39) 
<rdkit.Chem.rdchem.Mol object at 0x77059d9e4350>

>  <MW>  (39) 
292.384

>  <HBA>  (39) 
3

>  <HBD>  (39) 
1

>  <LogP>  (39) 
0.191

>  <NRB>  (39) 
3

>  <TPSA>  (39) 
66.88

>  <Num_Heavy_Atoms>  (39) 
20

>  <Ro5>  (39) 
[True, True, True, True, True, True]

>  <Ro5_Fulfilled>  (39) 
True

>  <Ro3>  (39) 
[True, True, True, True]

>  <Ro3_Fulfilled>  (39) 
True

>  <Fsp3>  (39) 
0.357143

>  <Fsp3_0.42>  (39) 
False

>  <Fsp3_0.45>  (39) 
False

>  <Stereogenic_Carbons>  (39) 
1

>  <C_Atoms>  (39) 
14

>  <FCStereo>  (39) 
0.071429

>  <SPS>  (39) 
423

>  <nSPS>  (39) 
21.15

>  <PBF>  (39) 
0.87499

>  <PBF_0.6>  (39) 
True

>  <nPBF>  (39) 
0.04375

>  <nPBF_0.016>  (39) 
True

>  <PMI1>  (39) 
755.998038

>  <PMI2>  (39) 
2387.283584

>  <PMI3>  (39) 
2652.941559

>  <NPR1>  (39) 
0.284966

>  <NPR2>  (39) 
0.899863

>  <Sum_NPR>  (39) 
1.184829

>  <Sum_NPR_1.07>  (39) 
True

>  <Sum_NPR_1.2>  (39) 
False

>  <MaxAbsEStateIndex>  (39) 
12.903253

>  <MaxEStateIndex>  (39) 
12.903253

>  <MinAbsEStateIndex>  (39) 
0.019299

>  <MinEStateIndex>  (39) 
-3.452269

>  <qed>  (39) 
0.859119

>  <MolWt>  (39) 
292.384

>  <HeavyAtomMolWt>  (39) 
274.24

>  <ExactMolWt>  (39) 
292.111424

>  <NumValenceElectrons>  (39) 
106

>  <NumRadicalElectrons>  (39) 
0

>  <MaxPartialCharge>  (39) 
0.243846

>  <MinPartialCharge>  (39) 
-0.343838

>  <MaxAbsPartialCharge>  (39) 
0.343838

>  <MinAbsPartialCharge>  (39) 
0.243846

>  <FpDensityMorgan1>  (39) 
1.35

>  <FpDensityMorgan2>  (39) 
2.2

>  <FpDensityMorgan3>  (39) 
3.0

>  <BCUT2D_MWHI>  (39) 
32.233428

>  <BCUT2D_MWLOW>  (39) 
10.168204

>  <BCUT2D_CHGHI>  (39) 
2.33008

>  <BCUT2D_CHGLO>  (39) 
-2.3047

>  <BCUT2D_LOGPHI>  (39) 
2.257115

>  <BCUT2D_LOGPLOW>  (39) 
-2.910992

>  <BCUT2D_MRHI>  (39) 
7.889883

>  <BCUT2D_MRLOW>  (39) 
-0.665891

>  <AvgIpc>  (39) 
2.466246

>  <BalabanJ>  (39) 
2.137974

>  <BertzCT>  (39) 
724.781365

>  <Chi0>  (39) 
14.164926

>  <Chi0n>  (39) 
11.359295

>  <Chi0v>  (39) 
12.175791

>  <Chi1>  (39) 
9.60419

>  <Chi1n>  (39) 
6.767652

>  <Chi1v>  (39) 
8.207715

>  <Chi2n>  (39) 
5.13079

>  <Chi2v>  (39) 
6.989766

>  <Chi3n>  (39) 
3.780379

>  <Chi3v>  (39) 
5.852112

>  <Chi4n>  (39) 
2.716705

>  <Chi4v>  (39) 
4.589316

>  <HallKierAlpha>  (39) 
-1.5

>  <Ipc>  (39) 
45916.573653

>  <Kappa1>  (39) 
13.481559

>  <Kappa2>  (39) 
5.121607

>  <Kappa3>  (39) 
2.194671

>  <LabuteASA>  (39) 
118.222067

>  <PEOE_VSA1>  (39) 
5.316789

>  <PEOE_VSA10>  (39) 
0.0

>  <PEOE_VSA11>  (39) 
0.0

>  <PEOE_VSA12>  (39) 
10.023291

>  <PEOE_VSA13>  (39) 
0.0

>  <PEOE_VSA14>  (39) 
0.0

>  <PEOE_VSA2>  (39) 
4.983979

>  <PEOE_VSA3>  (39) 
8.417797

>  <PEOE_VSA4>  (39) 
4.305216

>  <PEOE_VSA5>  (39) 
0.0

>  <PEOE_VSA6>  (39) 
12.132734

>  <PEOE_VSA7>  (39) 
19.056471

>  <PEOE_VSA8>  (39) 
23.166136

>  <PEOE_VSA9>  (39) 
30.571594

>  <SMR_VSA1>  (39) 
13.734586

>  <SMR_VSA10>  (39) 
20.79574

>  <SMR_VSA2>  (39) 
0.0

>  <SMR_VSA3>  (39) 
9.289195

>  <SMR_VSA4>  (39) 
0.0

>  <SMR_VSA5>  (39) 
17.861062

>  <SMR_VSA6>  (39) 
19.634269

>  <SMR_VSA7>  (39) 
36.659155

>  <SMR_VSA8>  (39) 
0.0

>  <SMR_VSA9>  (39) 
0.0

>  <SlogP_VSA1>  (39) 
5.316789

>  <SlogP_VSA10>  (39) 
0.0

>  <SlogP_VSA11>  (39) 
0.0

>  <SlogP_VSA12>  (39) 
0.0

>  <SlogP_VSA2>  (39) 
43.383102

>  <SlogP_VSA3>  (39) 
10.023291

>  <SlogP_VSA4>  (39) 
0.0

>  <SlogP_VSA5>  (39) 
6.923737

>  <SlogP_VSA6>  (39) 
41.554639

>  <SlogP_VSA7>  (39) 
0.0

>  <SlogP_VSA8>  (39) 
10.772448

>  <SlogP_VSA9>  (39) 
0.0

>  <EState_VSA1>  (39) 
10.023291

>  <EState_VSA10>  (39) 
8.417797

>  <EState_VSA11>  (39) 
0.0

>  <EState_VSA2>  (39) 
6.041841

>  <EState_VSA3>  (39) 
11.44024

>  <EState_VSA4>  (39) 
23.861961

>  <EState_VSA5>  (39) 
0.0

>  <EState_VSA6>  (39) 
34.898004

>  <EState_VSA7>  (39) 
12.990104

>  <EState_VSA8>  (39) 
10.300767

>  <EState_VSA9>  (39) 
0.0

>  <VSA_EState1>  (39) 
27.419802

>  <VSA_EState10>  (39) 
0.0

>  <VSA_EState2>  (39) 
4.430773

>  <VSA_EState3>  (39) 
3.748171

>  <VSA_EState4>  (39) 
0.0

>  <VSA_EState5>  (39) 
0.0

>  <VSA_EState6>  (39) 
7.128485

>  <VSA_EState7>  (39) 
3.329888

>  <VSA_EState8>  (39) 
4.145149

>  <VSA_EState9>  (39) 
-3.452269

>  <FractionCSP3>  (39) 
0.357143

>  <HeavyAtomCount>  (39) 
20

>  <NHOHCount>  (39) 
2

>  <NOCount>  (39) 
5

>  <NumAliphaticCarbocycles>  (39) 
0

>  <NumAliphaticHeterocycles>  (39) 
1

>  <NumAliphaticRings>  (39) 
1

>  <NumAromaticCarbocycles>  (39) 
1

>  <NumAromaticHeterocycles>  (39) 
1

>  <NumAromaticRings>  (39) 
2

>  <NumHAcceptors>  (39) 
3

>  <NumHDonors>  (39) 
1

>  <NumHeteroatoms>  (39) 
6

>  <NumRotatableBonds>  (39) 
2

>  <NumSaturatedCarbocycles>  (39) 
0

>  <NumSaturatedHeterocycles>  (39) 
1

>  <NumSaturatedRings>  (39) 
1

>  <RingCount>  (39) 
3

>  <MolLogP>  (39) 
0.191

>  <MolMR>  (39) 
76.7562

>  <fr_Al_COO>  (39) 
0

>  <fr_Al_OH>  (39) 
0

>  <fr_Al_OH_noTert>  (39) 
0

>  <fr_ArN>  (39) 
0

>  <fr_Ar_COO>  (39) 
0

>  <fr_Ar_N>  (39) 
1

>  <fr_Ar_NH>  (39) 
0

>  <fr_Ar_OH>  (39) 
0

>  <fr_COO>  (39) 
0

>  <fr_COO2>  (39) 
0

>  <fr_C_O>  (39) 
0

>  <fr_C_O_noCOO>  (39) 
0

>  <fr_C_S>  (39) 
0

>  <fr_HOCCN>  (39) 
0

>  <fr_Imine>  (39) 
0

>  <fr_NH0>  (39) 
2

>  <fr_NH1>  (39) 
0

>  <fr_NH2>  (39) 
1

>  <fr_N_O>  (39) 
0

>  <fr_Ndealkylation1>  (39) 
0

>  <fr_Ndealkylation2>  (39) 
0

>  <fr_Nhpyrrole>  (39) 
0

>  <fr_SH>  (39) 
0

>  <fr_aldehyde>  (39) 
0

>  <fr_alkyl_carbamate>  (39) 
0

>  <fr_alkyl_halide>  (39) 
0

>  <fr_allylic_oxid>  (39) 
0

>  <fr_amide>  (39) 
0

>  <fr_amidine>  (39) 
0

>  <fr_aniline>  (39) 
0

>  <fr_aryl_methyl>  (39) 
0

>  <fr_azide>  (39) 
0

>  <fr_azo>  (39) 
0

>  <fr_barbitur>  (39) 
0

>  <fr_benzene>  (39) 
1

>  <fr_benzodiazepine>  (39) 
0

>  <fr_bicyclic>  (39) 
1

>  <fr_diazo>  (39) 
0

>  <fr_dihydropyridine>  (39) 
0

>  <fr_epoxide>  (39) 
0

>  <fr_ester>  (39) 
0

>  <fr_ether>  (39) 
0

>  <fr_furan>  (39) 
0

>  <fr_guanido>  (39) 
0

>  <fr_halogen>  (39) 
0

>  <fr_hdrzine>  (39) 
0

>  <fr_hdrzone>  (39) 
0

>  <fr_imidazole>  (39) 
0

>  <fr_imide>  (39) 
0

>  <fr_isocyan>  (39) 
0

>  <fr_isothiocyan>  (39) 
0

>  <fr_ketone>  (39) 
0

>  <fr_ketone_Topliss>  (39) 
0

>  <fr_lactam>  (39) 
0

>  <fr_lactone>  (39) 
0

>  <fr_methoxy>  (39) 
0

>  <fr_morpholine>  (39) 
0

>  <fr_nitrile>  (39) 
0

>  <fr_nitro>  (39) 
0

>  <fr_nitro_arom>  (39) 
0

>  <fr_nitro_arom_nonortho>  (39) 
0

>  <fr_nitroso>  (39) 
0

>  <fr_oxazole>  (39) 
0

>  <fr_oxime>  (39) 
0

>  <fr_para_hydroxylation>  (39) 
0

>  <fr_phenol>  (39) 
0

>  <fr_phenol_noOrthoHbond>  (39) 
0

>  <fr_phos_acid>  (39) 
0

>  <fr_phos_ester>  (39) 
0

>  <fr_piperdine>  (39) 
0

>  <fr_piperzine>  (39) 
1

>  <fr_priamide>  (39) 
0

>  <fr_prisulfonamd>  (39) 
0

>  <fr_pyridine>  (39) 
1

>  <fr_quatN>  (39) 
1

>  <fr_sulfide>  (39) 
0

>  <fr_sulfonamd>  (39) 
1

>  <fr_sulfone>  (39) 
0

>  <fr_term_acetylene>  (39) 
0

>  <fr_tetrazole>  (39) 
0

>  <fr_thiazole>  (39) 
0

>  <fr_thiocyan>  (39) 
0

>  <fr_thiophene>  (39) 
0

>  <fr_unbrch_alkane>  (39) 
0

>  <fr_urea>  (39) 
0

>  <NP_Likeness>  (39) 
-1.165265

$$$$
7CB
     RDKit          3D

  0  0  0  0  0  0  0  0  0  0999 V3000
M  V30 BEGIN CTAB
M  V30 COUNTS 22 23 0 0 0
M  V30 BEGIN ATOM
M  V30 1 S -27.683000 9.933000 4.482000 0
M  V30 2 O -27.953000 10.828000 5.570000 0
M  V30 3 O -26.478000 10.132000 3.720000 0
M  V30 4 N -27.638000 8.439000 5.082000 0
M  V30 5 N -33.118000 9.851000 4.489000 0
M  V30 6 C -32.148000 9.863000 5.414000 0
M  V30 7 C -32.754000 9.888000 3.209000 0
M  V30 8 C -29.722000 10.068000 1.046000 0
M  V30 9 C -30.813000 9.912000 5.126000 0
M  V30 10 C -28.721000 10.065000 2.001000 0
M  V30 11 C -31.033000 10.004000 1.405000 0
M  V30 12 C -29.035000 10.010000 3.334000 0
M  V30 13 C -31.407000 9.953000 2.770000 0
M  V30 14 C -30.397000 9.961000 3.772000 0
M  V30 15 H -27.450900 7.789400 4.345100 0
M  V30 16 H -26.916100 8.378200 5.771300 0
M  V30 17 H -32.418500 9.834300 6.376300 0
M  V30 18 H -33.473800 9.868800 2.515100 0
M  V30 19 H -29.478500 10.117900 0.077400 0
M  V30 20 H -30.136800 9.913300 5.862700 0
M  V30 21 H -27.762900 10.103200 1.717100 0
M  V30 22 H -31.739700 9.992900 0.697600 0
M  V30 END ATOM
M  V30 BEGIN BOND
M  V30 1 2 1 2
M  V30 2 2 1 3
M  V30 3 1 1 4
M  V30 4 1 1 12
M  V30 5 2 5 6
M  V30 6 1 5 7
M  V30 7 1 6 9
M  V30 8 2 7 13
M  V30 9 1 8 10
M  V30 10 2 8 11
M  V30 11 2 9 14
M  V30 12 2 10 12
M  V30 13 1 11 13
M  V30 14 1 12 14
M  V30 15 1 13 14
M  V30 16 1 4 15
M  V30 17 1 4 16
M  V30 18 1 6 17
M  V30 19 1 7 18
M  V30 20 1 8 19
M  V30 21 1 9 20
M  V30 22 1 10 21
M  V30 23 1 11 22
M  V30 END BOND
M  V30 END CTAB
M  END
>  <Ligand_Instance>  (40) 
5M0C_7CB_A_401

>  <Dataset>  (40) 
PDB

>  <PDB_ID>  (40) 
5M0C

>  <Chain>  (40) 
A

>  <Resi>  (40) 
401

>  <Num_Resolved_Atoms>  (40) 
14

>  <Num_H_Atoms_ProtBoundConf>  (40) 
8

>  <Pocket>  (40) 
A

>  <Name>  (40) 
isoquinoline-5-sulfonamide

>  <Num_Not_Resolved_Atoms>  (40) 
0

>  <ATP_Site>  (40) 
True

>  <Peripheral>  (40) 
False

>  <Standardized_SMILES>  (40) 
[H]C1=NC([H])=C2C([H])=C([H])C([H])=C(S(=O)(=O)N([H])[H])C2=C1[H]

>  <2D_Mol_H>  (40) 
<rdkit.Chem.rdchem.Mol object at 0x77059d9e4430>

>  <MW>  (40) 
208.242

>  <HBA>  (40) 
3

>  <HBD>  (40) 
1

>  <LogP>  (40) 
0.8822

>  <NRB>  (40) 
2

>  <TPSA>  (40) 
73.05

>  <Num_Heavy_Atoms>  (40) 
14

>  <Ro5>  (40) 
[True, True, True, True, True, True]

>  <Ro5_Fulfilled>  (40) 
True

>  <Ro3>  (40) 
[True, True, True, True]

>  <Ro3_Fulfilled>  (40) 
True

>  <Fsp3>  (40) 
0.0

>  <Fsp3_0.42>  (40) 
False

>  <Fsp3_0.45>  (40) 
False

>  <Stereogenic_Carbons>  (40) 
0

>  <C_Atoms>  (40) 
9

>  <FCStereo>  (40) 
0.0

>  <SPS>  (40) 
165

>  <nSPS>  (40) 
11.785714

>  <PBF>  (40) 
0.409976

>  <PBF_0.6>  (40) 
False

>  <nPBF>  (40) 
0.029284

>  <nPBF_0.016>  (40) 
True

>  <PMI1>  (40) 
446.27039

>  <PMI2>  (40) 
956.005437

>  <PMI3>  (40) 
1299.373035

>  <NPR1>  (40) 
0.343451

>  <NPR2>  (40) 
0.735744

>  <Sum_NPR>  (40) 
1.079194

>  <Sum_NPR_1.07>  (40) 
True

>  <Sum_NPR_1.2>  (40) 
False

>  <MaxAbsEStateIndex>  (40) 
11.204225

>  <MaxEStateIndex>  (40) 
11.204225

>  <MinAbsEStateIndex>  (40) 
0.136481

>  <MinEStateIndex>  (40) 
-3.657199

>  <qed>  (40) 
0.755682

>  <MolWt>  (40) 
208.242

>  <HeavyAtomMolWt>  (40) 
200.178

>  <ExactMolWt>  (40) 
208.030648

>  <NumValenceElectrons>  (40) 
72

>  <NumRadicalElectrons>  (40) 
0

>  <MaxPartialCharge>  (40) 
0.238167

>  <MinPartialCharge>  (40) 
-0.264064

>  <MaxAbsPartialCharge>  (40) 
0.264064

>  <MinAbsPartialCharge>  (40) 
0.238167

>  <FpDensityMorgan1>  (40) 
1.214286

>  <FpDensityMorgan2>  (40) 
2.0

>  <FpDensityMorgan3>  (40) 
2.714286

>  <BCUT2D_MWHI>  (40) 
32.233116

>  <BCUT2D_MWLOW>  (40) 
10.168363

>  <BCUT2D_CHGHI>  (40) 
2.104082

>  <BCUT2D_CHGLO>  (40) 
-2.019932

>  <BCUT2D_LOGPHI>  (40) 
2.197427

>  <BCUT2D_LOGPLOW>  (40) 
-2.119335

>  <BCUT2D_MRHI>  (40) 
7.889897

>  <BCUT2D_MRLOW>  (40) 
0.598416

>  <AvgIpc>  (40) 
2.153976

>  <BalabanJ>  (40) 
2.916803

>  <BertzCT>  (40) 
572.886578

>  <Chi0>  (40) 
10.181798

>  <Chi0n>  (40) 
7.21341

>  <Chi0v>  (40) 
8.029907

>  <Chi1>  (40) 
6.588335

>  <Chi1n>  (40) 
3.944258

>  <Chi1v>  (40) 
5.490578

>  <Chi2n>  (40) 
2.897969

>  <Chi2v>  (40) 
4.427814

>  <Chi3n>  (40) 
1.947261

>  <Chi3v>  (40) 
2.916308

>  <Chi4n>  (40) 
1.340933

>  <Chi4v>  (40) 
2.101597

>  <HallKierAlpha>  (40) 
-1.46

>  <Ipc>  (40) 
1628.40582

>  <Kappa1>  (40) 
9.109024

>  <Kappa2>  (40) 
3.038688

>  <Kappa3>  (40) 
1.470603

>  <LabuteASA>  (40) 
81.433382

>  <PEOE_VSA1>  (40) 
0.0

>  <PEOE_VSA10>  (40) 
0.0

>  <PEOE_VSA11>  (40) 
0.0

>  <PEOE_VSA12>  (40) 
10.023291

>  <PEOE_VSA13>  (40) 
0.0

>  <PEOE_VSA14>  (40) 
0.0

>  <PEOE_VSA2>  (40) 
4.983979

>  <PEOE_VSA3>  (40) 
13.556771

>  <PEOE_VSA4>  (40) 
0.0

>  <PEOE_VSA5>  (40) 
0.0

>  <PEOE_VSA6>  (40) 
12.132734

>  <PEOE_VSA7>  (40) 
12.132734

>  <PEOE_VSA8>  (40) 
23.166136

>  <PEOE_VSA9>  (40) 
4.895483

>  <SMR_VSA1>  (40) 
8.417797

>  <SMR_VSA10>  (40) 
20.79574

>  <SMR_VSA2>  (40) 
0.0

>  <SMR_VSA3>  (40) 
4.983979

>  <SMR_VSA4>  (40) 
5.138974

>  <SMR_VSA5>  (40) 
4.895483

>  <SMR_VSA6>  (40) 
0.0

>  <SMR_VSA7>  (40) 
36.659155

>  <SMR_VSA8>  (40) 
0.0

>  <SMR_VSA9>  (40) 
0.0

>  <SlogP_VSA1>  (40) 
5.138974

>  <SlogP_VSA10>  (40) 
0.0

>  <SlogP_VSA11>  (40) 
0.0

>  <SlogP_VSA12>  (40) 
0.0

>  <SlogP_VSA2>  (40) 
13.401776

>  <SlogP_VSA3>  (40) 
10.023291

>  <SlogP_VSA4>  (40) 
0.0

>  <SlogP_VSA5>  (40) 
0.0

>  <SlogP_VSA6>  (40) 
41.554639

>  <SlogP_VSA7>  (40) 
0.0

>  <SlogP_VSA8>  (40) 
10.772448

>  <SlogP_VSA9>  (40) 
0.0

>  <EState_VSA1>  (40) 
10.023291

>  <EState_VSA10>  (40) 
8.417797

>  <EState_VSA11>  (40) 
0.0

>  <EState_VSA2>  (40) 
4.895483

>  <EState_VSA3>  (40) 
5.386224

>  <EState_VSA4>  (40) 
5.386224

>  <EState_VSA5>  (40) 
12.263211

>  <EState_VSA6>  (40) 
24.395945

>  <EState_VSA7>  (40) 
0.0

>  <EState_VSA8>  (40) 
4.983979

>  <EState_VSA9>  (40) 
5.138974

>  <VSA_EState1>  (40) 
22.40845

>  <VSA_EState10>  (40) 
0.0

>  <VSA_EState2>  (40) 
4.036882

>  <VSA_EState3>  (40) 
6.439505

>  <VSA_EState4>  (40) 
0.0

>  <VSA_EState5>  (40) 
0.0

>  <VSA_EState6>  (40) 
6.54912

>  <VSA_EState7>  (40) 
3.139907

>  <VSA_EState8>  (40) 
0.0

>  <VSA_EState9>  (40) 
-3.657199

>  <FractionCSP3>  (40) 
0.0

>  <HeavyAtomCount>  (40) 
14

>  <NHOHCount>  (40) 
2

>  <NOCount>  (40) 
4

>  <NumAliphaticCarbocycles>  (40) 
0

>  <NumAliphaticHeterocycles>  (40) 
0

>  <NumAliphaticRings>  (40) 
0

>  <NumAromaticCarbocycles>  (40) 
1

>  <NumAromaticHeterocycles>  (40) 
1

>  <NumAromaticRings>  (40) 
2

>  <NumHAcceptors>  (40) 
3

>  <NumHDonors>  (40) 
1

>  <NumHeteroatoms>  (40) 
5

>  <NumRotatableBonds>  (40) 
1

>  <NumSaturatedCarbocycles>  (40) 
0

>  <NumSaturatedHeterocycles>  (40) 
0

>  <NumSaturatedRings>  (40) 
0

>  <RingCount>  (40) 
2

>  <MolLogP>  (40) 
0.8822

>  <MolMR>  (40) 
53.1162

>  <fr_Al_COO>  (40) 
0

>  <fr_Al_OH>  (40) 
0

>  <fr_Al_OH_noTert>  (40) 
0

>  <fr_ArN>  (40) 
0

>  <fr_Ar_COO>  (40) 
0

>  <fr_Ar_N>  (40) 
1

>  <fr_Ar_NH>  (40) 
0

>  <fr_Ar_OH>  (40) 
0

>  <fr_COO>  (40) 
0

>  <fr_COO2>  (40) 
0

>  <fr_C_O>  (40) 
0

>  <fr_C_O_noCOO>  (40) 
0

>  <fr_C_S>  (40) 
0

>  <fr_HOCCN>  (40) 
0

>  <fr_Imine>  (40) 
0

>  <fr_NH0>  (40) 
1

>  <fr_NH1>  (40) 
0

>  <fr_NH2>  (40) 
1

>  <fr_N_O>  (40) 
0

>  <fr_Ndealkylation1>  (40) 
0

>  <fr_Ndealkylation2>  (40) 
0

>  <fr_Nhpyrrole>  (40) 
0

>  <fr_SH>  (40) 
0

>  <fr_aldehyde>  (40) 
0

>  <fr_alkyl_carbamate>  (40) 
0

>  <fr_alkyl_halide>  (40) 
0

>  <fr_allylic_oxid>  (40) 
0

>  <fr_amide>  (40) 
0

>  <fr_amidine>  (40) 
0

>  <fr_aniline>  (40) 
0

>  <fr_aryl_methyl>  (40) 
0

>  <fr_azide>  (40) 
0

>  <fr_azo>  (40) 
0

>  <fr_barbitur>  (40) 
0

>  <fr_benzene>  (40) 
1

>  <fr_benzodiazepine>  (40) 
0

>  <fr_bicyclic>  (40) 
1

>  <fr_diazo>  (40) 
0

>  <fr_dihydropyridine>  (40) 
0

>  <fr_epoxide>  (40) 
0

>  <fr_ester>  (40) 
0

>  <fr_ether>  (40) 
0

>  <fr_furan>  (40) 
0

>  <fr_guanido>  (40) 
0

>  <fr_halogen>  (40) 
0

>  <fr_hdrzine>  (40) 
0

>  <fr_hdrzone>  (40) 
0

>  <fr_imidazole>  (40) 
0

>  <fr_imide>  (40) 
0

>  <fr_isocyan>  (40) 
0

>  <fr_isothiocyan>  (40) 
0

>  <fr_ketone>  (40) 
0

>  <fr_ketone_Topliss>  (40) 
0

>  <fr_lactam>  (40) 
0

>  <fr_lactone>  (40) 
0

>  <fr_methoxy>  (40) 
0

>  <fr_morpholine>  (40) 
0

>  <fr_nitrile>  (40) 
0

>  <fr_nitro>  (40) 
0

>  <fr_nitro_arom>  (40) 
0

>  <fr_nitro_arom_nonortho>  (40) 
0

>  <fr_nitroso>  (40) 
0

>  <fr_oxazole>  (40) 
0

>  <fr_oxime>  (40) 
0

>  <fr_para_hydroxylation>  (40) 
0

>  <fr_phenol>  (40) 
0

>  <fr_phenol_noOrthoHbond>  (40) 
0

>  <fr_phos_acid>  (40) 
0

>  <fr_phos_ester>  (40) 
0

>  <fr_piperdine>  (40) 
0

>  <fr_piperzine>  (40) 
0

>  <fr_priamide>  (40) 
0

>  <fr_prisulfonamd>  (40) 
0

>  <fr_pyridine>  (40) 
1

>  <fr_quatN>  (40) 
0

>  <fr_sulfide>  (40) 
0

>  <fr_sulfonamd>  (40) 
1

>  <fr_sulfone>  (40) 
0

>  <fr_term_acetylene>  (40) 
0

>  <fr_tetrazole>  (40) 
0

>  <fr_thiazole>  (40) 
0

>  <fr_thiocyan>  (40) 
0

>  <fr_thiophene>  (40) 
0

>  <fr_unbrch_alkane>  (40) 
0

>  <fr_urea>  (40) 
0

>  <NP_Likeness>  (40) 
-1.460013

$$$$
7CT
     RDKit          3D

  0  0  0  0  0  0  0  0  0  0999 V3000
M  V30 BEGIN CTAB
M  V30 COUNTS 25 26 0 0 0
M  V30 BEGIN ATOM
M  V30 1 S 13.838000 -27.486000 -20.204000 0
M  V30 2 O 14.566000 -28.669000 -20.516000 0
M  V30 3 O 13.275000 -26.703000 -21.257000 0
M  V30 4 N 12.634000 -27.948000 -19.239000 0
M  V30 5 N 17.373000 -27.700000 -16.079000 0
M  V30 6 C 11.623000 -26.970000 -18.856000 0
M  V30 7 C 16.719000 -28.592000 -16.845000 0
M  V30 8 C 17.200000 -26.411000 -16.356000 0
M  V30 9 C 15.400000 -24.131000 -18.695000 0
M  V30 10 C 15.899000 -28.256000 -17.880000 0
M  V30 11 C 14.691000 -25.050000 -19.454000 0
M  V30 12 C 16.214000 -24.543000 -17.681000 0
M  V30 13 C 14.828000 -26.393000 -19.220000 0
M  V30 14 C 16.377000 -25.924000 -17.400000 0
M  V30 15 C 15.690000 -26.885000 -18.191000 0
M  V30 16 H 12.158200 -28.696300 -19.701200 0
M  V30 17 H 10.947800 -27.404500 -18.259900 0
M  V30 18 H 12.059000 -26.212900 -18.369400 0
M  V30 19 H 11.168700 -26.621700 -19.675900 0
M  V30 20 H 16.842600 -29.563300 -16.641800 0
M  V30 21 H 17.682500 -25.742300 -15.790300 0
M  V30 22 H 15.313400 -23.154700 -18.893500 0
M  V30 23 H 15.447600 -28.968800 -18.416800 0
M  V30 24 H 14.076700 -24.730900 -20.175700 0
M  V30 25 H 16.700700 -23.864900 -17.130200 0
M  V30 END ATOM
M  V30 BEGIN BOND
M  V30 1 2 1 2
M  V30 2 2 1 3
M  V30 3 1 1 4
M  V30 4 1 1 13
M  V30 5 1 4 6
M  V30 6 2 5 7
M  V30 7 1 5 8
M  V30 8 1 7 10
M  V30 9 2 8 14
M  V30 10 1 9 11
M  V30 11 2 9 12
M  V30 12 2 10 15
M  V30 13 2 11 13
M  V30 14 1 12 14
M  V30 15 1 13 15
M  V30 16 1 14 15
M  V30 17 1 4 16
M  V30 18 1 6 17
M  V30 19 1 6 18
M  V30 20 1 6 19
M  V30 21 1 7 20
M  V30 22 1 8 21
M  V30 23 1 9 22
M  V30 24 1 10 23
M  V30 25 1 11 24
M  V30 26 1 12 25
M  V30 END BOND
M  V30 END CTAB
M  END
>  <Ligand_Instance>  (41) 
5M0L_7CT_A_401

>  <Dataset>  (41) 
PDB

>  <PDB_ID>  (41) 
5M0L

>  <Chain>  (41) 
A

>  <Resi>  (41) 
401

>  <Num_Resolved_Atoms>  (41) 
15

>  <Num_H_Atoms_ProtBoundConf>  (41) 
10

>  <Pocket>  (41) 
A

>  <Name>  (41) 
~{N}-methylisoquinoline-5-sulfonamide

>  <Num_Not_Resolved_Atoms>  (41) 
0

>  <ATP_Site>  (41) 
True

>  <Peripheral>  (41) 
True

>  <Standardized_SMILES>  (41) 
[H]C1=NC([H])=C2C([H])=C([H])C([H])=C(S(=O)(=O)N([H])C([H])([H])[H])C2=C1[H]

>  <2D_Mol_H>  (41) 
<rdkit.Chem.rdchem.Mol object at 0x77059d9e4510>

>  <MW>  (41) 
222.269

>  <HBA>  (41) 
3

>  <HBD>  (41) 
1

>  <LogP>  (41) 
1.1429

>  <NRB>  (41) 
3

>  <TPSA>  (41) 
59.06

>  <Num_Heavy_Atoms>  (41) 
15

>  <Ro5>  (41) 
[True, True, True, True, True, True]

>  <Ro5_Fulfilled>  (41) 
True

>  <Ro3>  (41) 
[True, True, True, True]

>  <Ro3_Fulfilled>  (41) 
True

>  <Fsp3>  (41) 
0.1

>  <Fsp3_0.42>  (41) 
False

>  <Fsp3_0.45>  (41) 
False

>  <Stereogenic_Carbons>  (41) 
0

>  <C_Atoms>  (41) 
10

>  <FCStereo>  (41) 
0.0

>  <SPS>  (41) 
177

>  <nSPS>  (41) 
11.8

>  <PBF>  (41) 
0.684024

>  <PBF_0.6>  (41) 
True

>  <nPBF>  (41) 
0.045602

>  <nPBF_0.016>  (41) 
True

>  <PMI1>  (41) 
526.850531

>  <PMI2>  (41) 
1121.270371

>  <PMI3>  (41) 
1387.647287

>  <NPR1>  (41) 
0.379672

>  <NPR2>  (41) 
0.808037

>  <Sum_NPR>  (41) 
1.187709

>  <Sum_NPR_1.07>  (41) 
True

>  <Sum_NPR_1.2>  (41) 
False

>  <MaxAbsEStateIndex>  (41) 
11.683392

>  <MaxEStateIndex>  (41) 
11.683392

>  <MinAbsEStateIndex>  (41) 
0.282315

>  <MinEStateIndex>  (41) 
-3.402569

>  <qed>  (41) 
0.828609

>  <MolWt>  (41) 
222.269

>  <HeavyAtomMolWt>  (41) 
212.189

>  <ExactMolWt>  (41) 
222.046299

>  <NumValenceElectrons>  (41) 
78

>  <NumRadicalElectrons>  (41) 
0

>  <MaxPartialCharge>  (41) 
0.240429

>  <MinPartialCharge>  (41) 
-0.264064

>  <MaxAbsPartialCharge>  (41) 
0.264064

>  <MinAbsPartialCharge>  (41) 
0.240429

>  <FpDensityMorgan1>  (41) 
1.266667

>  <FpDensityMorgan2>  (41) 
2.066667

>  <FpDensityMorgan3>  (41) 
2.8

>  <BCUT2D_MWHI>  (41) 
32.23327

>  <BCUT2D_MWLOW>  (41) 
10.168353

>  <BCUT2D_CHGHI>  (41) 
2.135682

>  <BCUT2D_CHGLO>  (41) 
-2.052244

>  <BCUT2D_LOGPHI>  (41) 
2.206868

>  <BCUT2D_LOGPLOW>  (41) 
-2.182712

>  <BCUT2D_MRHI>  (41) 
7.893087

>  <BCUT2D_MRLOW>  (41) 
0.588932

>  <AvgIpc>  (41) 
2.280673

>  <BalabanJ>  (41) 
2.83096

>  <BertzCT>  (41) 
587.898807

>  <Chi0>  (41) 
10.888905

>  <Chi0n>  (41) 
8.13606

>  <Chi0v>  (41) 
8.952557

>  <Chi1>  (41) 
7.148995

>  <Chi1n>  (41) 
4.41268

>  <Chi1v>  (41) 
5.895843

>  <Chi2n>  (41) 
3.060521

>  <Chi2v>  (41) 
4.915469

>  <Chi3n>  (41) 
2.198979

>  <Chi3v>  (41) 
3.671463

>  <Chi4n>  (41) 
1.437121

>  <Chi4v>  (41) 
2.390162

>  <HallKierAlpha>  (41) 
-1.46

>  <Ipc>  (41) 
3060.662649

>  <Kappa1>  (41) 
10.071286

>  <Kappa2>  (41) 
3.599298

>  <Kappa3>  (41) 
1.710294

>  <LabuteASA>  (41) 
88.008296

>  <PEOE_VSA1>  (41) 
0.0

>  <PEOE_VSA10>  (41) 
0.0

>  <PEOE_VSA11>  (41) 
0.0

>  <PEOE_VSA12>  (41) 
10.023291

>  <PEOE_VSA13>  (41) 
0.0

>  <PEOE_VSA14>  (41) 
0.0

>  <PEOE_VSA2>  (41) 
4.983979

>  <PEOE_VSA3>  (41) 
13.139892

>  <PEOE_VSA4>  (41) 
0.0

>  <PEOE_VSA5>  (41) 
0.0

>  <PEOE_VSA6>  (41) 
12.132734

>  <PEOE_VSA7>  (41) 
19.180406

>  <PEOE_VSA8>  (41) 
23.166136

>  <PEOE_VSA9>  (41) 
4.895483

>  <SMR_VSA1>  (41) 
8.417797

>  <SMR_VSA10>  (41) 
20.79574

>  <SMR_VSA2>  (41) 
0.0

>  <SMR_VSA3>  (41) 
9.706073

>  <SMR_VSA4>  (41) 
0.0

>  <SMR_VSA5>  (41) 
4.895483

>  <SMR_VSA6>  (41) 
7.047672

>  <SMR_VSA7>  (41) 
36.659155

>  <SMR_VSA8>  (41) 
0.0

>  <SMR_VSA9>  (41) 
0.0

>  <SlogP_VSA1>  (41) 
4.722095

>  <SlogP_VSA10>  (41) 
0.0

>  <SlogP_VSA11>  (41) 
0.0

>  <SlogP_VSA12>  (41) 
0.0

>  <SlogP_VSA2>  (41) 
20.449447

>  <SlogP_VSA3>  (41) 
10.023291

>  <SlogP_VSA4>  (41) 
0.0

>  <SlogP_VSA5>  (41) 
0.0

>  <SlogP_VSA6>  (41) 
41.554639

>  <SlogP_VSA7>  (41) 
0.0

>  <SlogP_VSA8>  (41) 
10.772448

>  <SlogP_VSA9>  (41) 
0.0

>  <EState_VSA1>  (41) 
10.023291

>  <EState_VSA10>  (41) 
8.417797

>  <EState_VSA11>  (41) 
0.0

>  <EState_VSA2>  (41) 
4.895483

>  <EState_VSA3>  (41) 
5.386224

>  <EState_VSA4>  (41) 
5.386224

>  <EState_VSA5>  (41) 
7.047672

>  <EState_VSA6>  (41) 
30.592788

>  <EState_VSA7>  (41) 
6.066367

>  <EState_VSA8>  (41) 
9.706073

>  <EState_VSA9>  (41) 
0.0

>  <VSA_EState1>  (41) 
25.668339

>  <VSA_EState10>  (41) 
0.0

>  <VSA_EState2>  (41) 
4.228953

>  <VSA_EState3>  (41) 
1.495995

>  <VSA_EState4>  (41) 
0.0

>  <VSA_EState5>  (41) 
0.0

>  <VSA_EState6>  (41) 
6.804537

>  <VSA_EState7>  (41) 
3.223241

>  <VSA_EState8>  (41) 
0.0

>  <VSA_EState9>  (41) 
-2.004398

>  <FractionCSP3>  (41) 
0.1

>  <HeavyAtomCount>  (41) 
15

>  <NHOHCount>  (41) 
1

>  <NOCount>  (41) 
4

>  <NumAliphaticCarbocycles>  (41) 
0

>  <NumAliphaticHeterocycles>  (41) 
0

>  <NumAliphaticRings>  (41) 
0

>  <NumAromaticCarbocycles>  (41) 
1

>  <NumAromaticHeterocycles>  (41) 
1

>  <NumAromaticRings>  (41) 
2

>  <NumHAcceptors>  (41) 
3

>  <NumHDonors>  (41) 
1

>  <NumHeteroatoms>  (41) 
5

>  <NumRotatableBonds>  (41) 
2

>  <NumSaturatedCarbocycles>  (41) 
0

>  <NumSaturatedHeterocycles>  (41) 
0

>  <NumSaturatedRings>  (41) 
0

>  <RingCount>  (41) 
2

>  <MolLogP>  (41) 
1.1429

>  <MolMR>  (41) 
57.9885

>  <fr_Al_COO>  (41) 
0

>  <fr_Al_OH>  (41) 
0

>  <fr_Al_OH_noTert>  (41) 
0

>  <fr_ArN>  (41) 
0

>  <fr_Ar_COO>  (41) 
0

>  <fr_Ar_N>  (41) 
1

>  <fr_Ar_NH>  (41) 
0

>  <fr_Ar_OH>  (41) 
0

>  <fr_COO>  (41) 
0

>  <fr_COO2>  (41) 
0

>  <fr_C_O>  (41) 
0

>  <fr_C_O_noCOO>  (41) 
0

>  <fr_C_S>  (41) 
0

>  <fr_HOCCN>  (41) 
0

>  <fr_Imine>  (41) 
0

>  <fr_NH0>  (41) 
1

>  <fr_NH1>  (41) 
1

>  <fr_NH2>  (41) 
0

>  <fr_N_O>  (41) 
0

>  <fr_Ndealkylation1>  (41) 
0

>  <fr_Ndealkylation2>  (41) 
0

>  <fr_Nhpyrrole>  (41) 
0

>  <fr_SH>  (41) 
0

>  <fr_aldehyde>  (41) 
0

>  <fr_alkyl_carbamate>  (41) 
0

>  <fr_alkyl_halide>  (41) 
0

>  <fr_allylic_oxid>  (41) 
0

>  <fr_amide>  (41) 
0

>  <fr_amidine>  (41) 
0

>  <fr_aniline>  (41) 
0

>  <fr_aryl_methyl>  (41) 
0

>  <fr_azide>  (41) 
0

>  <fr_azo>  (41) 
0

>  <fr_barbitur>  (41) 
0

>  <fr_benzene>  (41) 
1

>  <fr_benzodiazepine>  (41) 
0

>  <fr_bicyclic>  (41) 
1

>  <fr_diazo>  (41) 
0

>  <fr_dihydropyridine>  (41) 
0

>  <fr_epoxide>  (41) 
0

>  <fr_ester>  (41) 
0

>  <fr_ether>  (41) 
0

>  <fr_furan>  (41) 
0

>  <fr_guanido>  (41) 
0

>  <fr_halogen>  (41) 
0

>  <fr_hdrzine>  (41) 
0

>  <fr_hdrzone>  (41) 
0

>  <fr_imidazole>  (41) 
0

>  <fr_imide>  (41) 
0

>  <fr_isocyan>  (41) 
0

>  <fr_isothiocyan>  (41) 
0

>  <fr_ketone>  (41) 
0

>  <fr_ketone_Topliss>  (41) 
0

>  <fr_lactam>  (41) 
0

>  <fr_lactone>  (41) 
0

>  <fr_methoxy>  (41) 
0

>  <fr_morpholine>  (41) 
0

>  <fr_nitrile>  (41) 
0

>  <fr_nitro>  (41) 
0

>  <fr_nitro_arom>  (41) 
0

>  <fr_nitro_arom_nonortho>  (41) 
0

>  <fr_nitroso>  (41) 
0

>  <fr_oxazole>  (41) 
0

>  <fr_oxime>  (41) 
0

>  <fr_para_hydroxylation>  (41) 
0

>  <fr_phenol>  (41) 
0

>  <fr_phenol_noOrthoHbond>  (41) 
0

>  <fr_phos_acid>  (41) 
0

>  <fr_phos_ester>  (41) 
0

>  <fr_piperdine>  (41) 
0

>  <fr_piperzine>  (41) 
0

>  <fr_priamide>  (41) 
0

>  <fr_prisulfonamd>  (41) 
0

>  <fr_pyridine>  (41) 
1

>  <fr_quatN>  (41) 
0

>  <fr_sulfide>  (41) 
0

>  <fr_sulfonamd>  (41) 
1

>  <fr_sulfone>  (41) 
0

>  <fr_term_acetylene>  (41) 
0

>  <fr_tetrazole>  (41) 
0

>  <fr_thiazole>  (41) 
0

>  <fr_thiocyan>  (41) 
0

>  <fr_thiophene>  (41) 
0

>  <fr_unbrch_alkane>  (41) 
0

>  <fr_urea>  (41) 
0

>  <NP_Likeness>  (41) 
-1.6448

$$$$
7CT
     RDKit          3D

  0  0  0  0  0  0  0  0  0  0999 V3000
M  V30 BEGIN CTAB
M  V30 COUNTS 25 26 0 0 0
M  V30 BEGIN ATOM
M  V30 1 S 10.661000 -14.763000 4.892000 0
M  V30 2 O 10.382000 -16.054000 5.452000 0
M  V30 3 O 12.016000 -14.383000 4.641000 0
M  V30 4 N 10.031000 -13.665000 5.894000 0
M  V30 5 N 5.586000 -15.292000 3.087000 0
M  V30 6 C 10.036000 -12.268000 5.481000 0
M  V30 7 C 6.249000 -15.573000 4.219000 0
M  V30 8 C 6.289000 -14.808000 2.068000 0
M  V30 9 C 9.761000 -13.833000 1.116000 0
M  V30 10 C 7.587000 -15.381000 4.391000 0
M  V30 11 C 10.430000 -14.098000 2.298000 0
M  V30 12 C 8.419000 -14.058000 1.012000 0
M  V30 13 C 9.754000 -14.595000 3.386000 0
M  V30 14 C 7.682000 -14.576000 2.106000 0
M  V30 15 C 8.356000 -14.866000 3.320000 0
M  V30 16 H 10.540300 -13.721400 6.752700 0
M  V30 17 H 9.617300 -11.707600 6.195600 0
M  V30 18 H 10.978100 -11.968000 5.331300 0
M  V30 19 H 9.516000 -12.169400 4.632600 0
M  V30 20 H 5.727700 -15.947400 4.985800 0
M  V30 21 H 5.801300 -14.594700 1.221500 0
M  V30 22 H 10.265400 -13.473400 0.331000 0
M  V30 23 H 8.021000 -15.601600 5.264500 0
M  V30 24 H 11.413200 -13.926400 2.360800 0
M  V30 25 H 7.949600 -13.854700 0.152700 0
M  V30 END ATOM
M  V30 BEGIN BOND
M  V30 1 2 1 2
M  V30 2 2 1 3
M  V30 3 1 1 4
M  V30 4 1 1 13
M  V30 5 1 4 6
M  V30 6 2 5 7
M  V30 7 1 5 8
M  V30 8 1 7 10
M  V30 9 2 8 14
M  V30 10 1 9 11
M  V30 11 2 9 12
M  V30 12 2 10 15
M  V30 13 2 11 13
M  V30 14 1 12 14
M  V30 15 1 13 15
M  V30 16 1 14 15
M  V30 17 1 4 16
M  V30 18 1 6 17
M  V30 19 1 6 18
M  V30 20 1 6 19
M  V30 21 1 7 20
M  V30 22 1 8 21
M  V30 23 1 9 22
M  V30 24 1 10 23
M  V30 25 1 11 24
M  V30 26 1 12 25
M  V30 END BOND
M  V30 END CTAB
M  END
>  <Ligand_Instance>  (42) 
5M0L_7CT_A_402

>  <Dataset>  (42) 
PDB

>  <PDB_ID>  (42) 
5M0L

>  <Chain>  (42) 
A

>  <Resi>  (42) 
402

>  <Num_Resolved_Atoms>  (42) 
15

>  <Num_H_Atoms_ProtBoundConf>  (42) 
10

>  <Pocket>  (42) 
X

>  <Name>  (42) 
~{N}-methylisoquinoline-5-sulfonamide

>  <Num_Not_Resolved_Atoms>  (42) 
0

>  <ATP_Site>  (42) 
True

>  <Peripheral>  (42) 
True

>  <Standardized_SMILES>  (42) 
[H]C1=NC([H])=C2C([H])=C([H])C([H])=C(S(=O)(=O)N([H])C([H])([H])[H])C2=C1[H]

>  <2D_Mol_H>  (42) 
<rdkit.Chem.rdchem.Mol object at 0x77059d9e45f0>

>  <MW>  (42) 
222.269

>  <HBA>  (42) 
3

>  <HBD>  (42) 
1

>  <LogP>  (42) 
1.1429

>  <NRB>  (42) 
3

>  <TPSA>  (42) 
59.06

>  <Num_Heavy_Atoms>  (42) 
15

>  <Ro5>  (42) 
[True, True, True, True, True, True]

>  <Ro5_Fulfilled>  (42) 
True

>  <Ro3>  (42) 
[True, True, True, True]

>  <Ro3_Fulfilled>  (42) 
True

>  <Fsp3>  (42) 
0.1

>  <Fsp3_0.42>  (42) 
False

>  <Fsp3_0.45>  (42) 
False

>  <Stereogenic_Carbons>  (42) 
0

>  <C_Atoms>  (42) 
10

>  <FCStereo>  (42) 
0.0

>  <SPS>  (42) 
177

>  <nSPS>  (42) 
11.8

>  <PBF>  (42) 
0.724291

>  <PBF_0.6>  (42) 
True

>  <nPBF>  (42) 
0.048286

>  <nPBF_0.016>  (42) 
True

>  <PMI1>  (42) 
536.13746

>  <PMI2>  (42) 
1085.326037

>  <PMI3>  (42) 
1341.458876

>  <NPR1>  (42) 
0.399667

>  <NPR2>  (42) 
0.809064

>  <Sum_NPR>  (42) 
1.208731

>  <Sum_NPR_1.07>  (42) 
True

>  <Sum_NPR_1.2>  (42) 
True

>  <MaxAbsEStateIndex>  (42) 
11.683392

>  <MaxEStateIndex>  (42) 
11.683392

>  <MinAbsEStateIndex>  (42) 
0.282315

>  <MinEStateIndex>  (42) 
-3.402569

>  <qed>  (42) 
0.828609

>  <MolWt>  (42) 
222.269

>  <HeavyAtomMolWt>  (42) 
212.189

>  <ExactMolWt>  (42) 
222.046299

>  <NumValenceElectrons>  (42) 
78

>  <NumRadicalElectrons>  (42) 
0

>  <MaxPartialCharge>  (42) 
0.240429

>  <MinPartialCharge>  (42) 
-0.264064

>  <MaxAbsPartialCharge>  (42) 
0.264064

>  <MinAbsPartialCharge>  (42) 
0.240429

>  <FpDensityMorgan1>  (42) 
1.266667

>  <FpDensityMorgan2>  (42) 
2.066667

>  <FpDensityMorgan3>  (42) 
2.8

>  <BCUT2D_MWHI>  (42) 
32.23327

>  <BCUT2D_MWLOW>  (42) 
10.168353

>  <BCUT2D_CHGHI>  (42) 
2.135682

>  <BCUT2D_CHGLO>  (42) 
-2.052244

>  <BCUT2D_LOGPHI>  (42) 
2.206868

>  <BCUT2D_LOGPLOW>  (42) 
-2.182712

>  <BCUT2D_MRHI>  (42) 
7.893087

>  <BCUT2D_MRLOW>  (42) 
0.588932

>  <AvgIpc>  (42) 
2.280673

>  <BalabanJ>  (42) 
2.83096

>  <BertzCT>  (42) 
587.898807

>  <Chi0>  (42) 
10.888905

>  <Chi0n>  (42) 
8.13606

>  <Chi0v>  (42) 
8.952557

>  <Chi1>  (42) 
7.148995

>  <Chi1n>  (42) 
4.41268

>  <Chi1v>  (42) 
5.895843

>  <Chi2n>  (42) 
3.060521

>  <Chi2v>  (42) 
4.915469

>  <Chi3n>  (42) 
2.198979

>  <Chi3v>  (42) 
3.671463

>  <Chi4n>  (42) 
1.437121

>  <Chi4v>  (42) 
2.390162

>  <HallKierAlpha>  (42) 
-1.46

>  <Ipc>  (42) 
3060.662649

>  <Kappa1>  (42) 
10.071286

>  <Kappa2>  (42) 
3.599298

>  <Kappa3>  (42) 
1.710294

>  <LabuteASA>  (42) 
88.008296

>  <PEOE_VSA1>  (42) 
0.0

>  <PEOE_VSA10>  (42) 
0.0

>  <PEOE_VSA11>  (42) 
0.0

>  <PEOE_VSA12>  (42) 
10.023291

>  <PEOE_VSA13>  (42) 
0.0

>  <PEOE_VSA14>  (42) 
0.0

>  <PEOE_VSA2>  (42) 
4.983979

>  <PEOE_VSA3>  (42) 
13.139892

>  <PEOE_VSA4>  (42) 
0.0

>  <PEOE_VSA5>  (42) 
0.0

>  <PEOE_VSA6>  (42) 
12.132734

>  <PEOE_VSA7>  (42) 
19.180406

>  <PEOE_VSA8>  (42) 
23.166136

>  <PEOE_VSA9>  (42) 
4.895483

>  <SMR_VSA1>  (42) 
8.417797

>  <SMR_VSA10>  (42) 
20.79574

>  <SMR_VSA2>  (42) 
0.0

>  <SMR_VSA3>  (42) 
9.706073

>  <SMR_VSA4>  (42) 
0.0

>  <SMR_VSA5>  (42) 
4.895483

>  <SMR_VSA6>  (42) 
7.047672

>  <SMR_VSA7>  (42) 
36.659155

>  <SMR_VSA8>  (42) 
0.0

>  <SMR_VSA9>  (42) 
0.0

>  <SlogP_VSA1>  (42) 
4.722095

>  <SlogP_VSA10>  (42) 
0.0

>  <SlogP_VSA11>  (42) 
0.0

>  <SlogP_VSA12>  (42) 
0.0

>  <SlogP_VSA2>  (42) 
20.449447

>  <SlogP_VSA3>  (42) 
10.023291

>  <SlogP_VSA4>  (42) 
0.0

>  <SlogP_VSA5>  (42) 
0.0

>  <SlogP_VSA6>  (42) 
41.554639

>  <SlogP_VSA7>  (42) 
0.0

>  <SlogP_VSA8>  (42) 
10.772448

>  <SlogP_VSA9>  (42) 
0.0

>  <EState_VSA1>  (42) 
10.023291

>  <EState_VSA10>  (42) 
8.417797

>  <EState_VSA11>  (42) 
0.0

>  <EState_VSA2>  (42) 
4.895483

>  <EState_VSA3>  (42) 
5.386224

>  <EState_VSA4>  (42) 
5.386224

>  <EState_VSA5>  (42) 
7.047672

>  <EState_VSA6>  (42) 
30.592788

>  <EState_VSA7>  (42) 
6.066367

>  <EState_VSA8>  (42) 
9.706073

>  <EState_VSA9>  (42) 
0.0

>  <VSA_EState1>  (42) 
25.668339

>  <VSA_EState10>  (42) 
0.0

>  <VSA_EState2>  (42) 
4.228953

>  <VSA_EState3>  (42) 
1.495995

>  <VSA_EState4>  (42) 
0.0

>  <VSA_EState5>  (42) 
0.0

>  <VSA_EState6>  (42) 
6.804537

>  <VSA_EState7>  (42) 
3.223241

>  <VSA_EState8>  (42) 
0.0

>  <VSA_EState9>  (42) 
-2.004398

>  <FractionCSP3>  (42) 
0.1

>  <HeavyAtomCount>  (42) 
15

>  <NHOHCount>  (42) 
1

>  <NOCount>  (42) 
4

>  <NumAliphaticCarbocycles>  (42) 
0

>  <NumAliphaticHeterocycles>  (42) 
0

>  <NumAliphaticRings>  (42) 
0

>  <NumAromaticCarbocycles>  (42) 
1

>  <NumAromaticHeterocycles>  (42) 
1

>  <NumAromaticRings>  (42) 
2

>  <NumHAcceptors>  (42) 
3

>  <NumHDonors>  (42) 
1

>  <NumHeteroatoms>  (42) 
5

>  <NumRotatableBonds>  (42) 
2

>  <NumSaturatedCarbocycles>  (42) 
0

>  <NumSaturatedHeterocycles>  (42) 
0

>  <NumSaturatedRings>  (42) 
0

>  <RingCount>  (42) 
2

>  <MolLogP>  (42) 
1.1429

>  <MolMR>  (42) 
57.9885

>  <fr_Al_COO>  (42) 
0

>  <fr_Al_OH>  (42) 
0

>  <fr_Al_OH_noTert>  (42) 
0

>  <fr_ArN>  (42) 
0

>  <fr_Ar_COO>  (42) 
0

>  <fr_Ar_N>  (42) 
1

>  <fr_Ar_NH>  (42) 
0

>  <fr_Ar_OH>  (42) 
0

>  <fr_COO>  (42) 
0

>  <fr_COO2>  (42) 
0

>  <fr_C_O>  (42) 
0

>  <fr_C_O_noCOO>  (42) 
0

>  <fr_C_S>  (42) 
0

>  <fr_HOCCN>  (42) 
0

>  <fr_Imine>  (42) 
0

>  <fr_NH0>  (42) 
1

>  <fr_NH1>  (42) 
1

>  <fr_NH2>  (42) 
0

>  <fr_N_O>  (42) 
0

>  <fr_Ndealkylation1>  (42) 
0

>  <fr_Ndealkylation2>  (42) 
0

>  <fr_Nhpyrrole>  (42) 
0

>  <fr_SH>  (42) 
0

>  <fr_aldehyde>  (42) 
0

>  <fr_alkyl_carbamate>  (42) 
0

>  <fr_alkyl_halide>  (42) 
0

>  <fr_allylic_oxid>  (42) 
0

>  <fr_amide>  (42) 
0

>  <fr_amidine>  (42) 
0

>  <fr_aniline>  (42) 
0

>  <fr_aryl_methyl>  (42) 
0

>  <fr_azide>  (42) 
0

>  <fr_azo>  (42) 
0

>  <fr_barbitur>  (42) 
0

>  <fr_benzene>  (42) 
1

>  <fr_benzodiazepine>  (42) 
0

>  <fr_bicyclic>  (42) 
1

>  <fr_diazo>  (42) 
0

>  <fr_dihydropyridine>  (42) 
0

>  <fr_epoxide>  (42) 
0

>  <fr_ester>  (42) 
0

>  <fr_ether>  (42) 
0

>  <fr_furan>  (42) 
0

>  <fr_guanido>  (42) 
0

>  <fr_halogen>  (42) 
0

>  <fr_hdrzine>  (42) 
0

>  <fr_hdrzone>  (42) 
0

>  <fr_imidazole>  (42) 
0

>  <fr_imide>  (42) 
0

>  <fr_isocyan>  (42) 
0

>  <fr_isothiocyan>  (42) 
0

>  <fr_ketone>  (42) 
0

>  <fr_ketone_Topliss>  (42) 
0

>  <fr_lactam>  (42) 
0

>  <fr_lactone>  (42) 
0

>  <fr_methoxy>  (42) 
0

>  <fr_morpholine>  (42) 
0

>  <fr_nitrile>  (42) 
0

>  <fr_nitro>  (42) 
0

>  <fr_nitro_arom>  (42) 
0

>  <fr_nitro_arom_nonortho>  (42) 
0

>  <fr_nitroso>  (42) 
0

>  <fr_oxazole>  (42) 
0

>  <fr_oxime>  (42) 
0

>  <fr_para_hydroxylation>  (42) 
0

>  <fr_phenol>  (42) 
0

>  <fr_phenol_noOrthoHbond>  (42) 
0

>  <fr_phos_acid>  (42) 
0

>  <fr_phos_ester>  (42) 
0

>  <fr_piperdine>  (42) 
0

>  <fr_piperzine>  (42) 
0

>  <fr_priamide>  (42) 
0

>  <fr_prisulfonamd>  (42) 
0

>  <fr_pyridine>  (42) 
1

>  <fr_quatN>  (42) 
0

>  <fr_sulfide>  (42) 
0

>  <fr_sulfonamd>  (42) 
1

>  <fr_sulfone>  (42) 
0

>  <fr_term_acetylene>  (42) 
0

>  <fr_tetrazole>  (42) 
0

>  <fr_thiazole>  (42) 
0

>  <fr_thiocyan>  (42) 
0

>  <fr_thiophene>  (42) 
0

>  <fr_unbrch_alkane>  (42) 
0

>  <fr_urea>  (42) 
0

>  <NP_Likeness>  (42) 
-1.6448

$$$$
7CT
     RDKit          3D

  0  0  0  0  0  0  0  0  0  0999 V3000
M  V30 BEGIN CTAB
M  V30 COUNTS 25 26 0 0 0
M  V30 BEGIN ATOM
M  V30 1 S -12.864000 -26.403000 27.053000 0
M  V30 2 O -13.575000 -27.550000 27.526000 0
M  V30 3 O -12.252000 -25.515000 27.995000 0
M  V30 4 N -11.700000 -26.939000 26.071000 0
M  V30 5 N -16.634000 -27.079000 23.205000 0
M  V30 6 C -10.638000 -26.025000 25.650000 0
M  V30 7 C -15.907000 -27.878000 24.006000 0
M  V30 8 C -16.502000 -25.770000 23.365000 0
M  V30 9 C -14.628000 -23.237000 25.365000 0
M  V30 10 C -15.032000 -27.428000 24.946000 0
M  V30 11 C -13.832000 -24.063000 26.141000 0
M  V30 12 C -15.508000 -23.762000 24.462000 0
M  V30 13 C -13.941000 -25.426000 26.039000 0
M  V30 14 C -15.634000 -25.166000 24.305000 0
M  V30 15 C -14.855000 -26.031000 25.119000 0
M  V30 16 H -11.257100 -27.705800 26.535600 0
M  V30 17 H -10.001500 -26.508000 25.048700 0
M  V30 18 H -11.039000 -25.251800 25.158800 0
M  V30 19 H -10.147600 -25.690500 26.454800 0
M  V30 20 H -16.016500 -28.866800 23.904300 0
M  V30 21 H -17.051600 -25.170200 22.783500 0
M  V30 22 H -14.557600 -22.244700 25.467000 0
M  V30 23 H -14.518800 -28.075600 25.509300 0
M  V30 24 H -13.174100 -23.663200 26.779200 0
M  V30 25 H -16.069600 -23.149800 23.905400 0
M  V30 END ATOM
M  V30 BEGIN BOND
M  V30 1 2 1 2
M  V30 2 2 1 3
M  V30 3 1 1 4
M  V30 4 1 1 13
M  V30 5 1 4 6
M  V30 6 2 5 7
M  V30 7 1 5 8
M  V30 8 1 7 10
M  V30 9 2 8 14
M  V30 10 1 9 11
M  V30 11 2 9 12
M  V30 12 2 10 15
M  V30 13 2 11 13
M  V30 14 1 12 14
M  V30 15 1 13 15
M  V30 16 1 14 15
M  V30 17 1 4 16
M  V30 18 1 6 17
M  V30 19 1 6 18
M  V30 20 1 6 19
M  V30 21 1 7 20
M  V30 22 1 8 21
M  V30 23 1 9 22
M  V30 24 1 10 23
M  V30 25 1 11 24
M  V30 26 1 12 25
M  V30 END BOND
M  V30 END CTAB
M  END
>  <Ligand_Instance>  (43) 
6YNC_7CT_A_401

>  <Dataset>  (43) 
PDB

>  <PDB_ID>  (43) 
6YNC

>  <Chain>  (43) 
A

>  <Resi>  (43) 
401

>  <Num_Resolved_Atoms>  (43) 
15

>  <Num_H_Atoms_ProtBoundConf>  (43) 
10

>  <Pocket>  (43) 
A

>  <Name>  (43) 
~{N}-methylisoquinoline-5-sulfonamide

>  <Num_Not_Resolved_Atoms>  (43) 
0

>  <ATP_Site>  (43) 
True

>  <Peripheral>  (43) 
False

>  <Standardized_SMILES>  (43) 
[H]C1=NC([H])=C2C([H])=C([H])C([H])=C(S(=O)(=O)N([H])C([H])([H])[H])C2=C1[H]

>  <2D_Mol_H>  (43) 
<rdkit.Chem.rdchem.Mol object at 0x77059d9e46d0>

>  <MW>  (43) 
222.269

>  <HBA>  (43) 
3

>  <HBD>  (43) 
1

>  <LogP>  (43) 
1.1429

>  <NRB>  (43) 
3

>  <TPSA>  (43) 
59.06

>  <Num_Heavy_Atoms>  (43) 
15

>  <Ro5>  (43) 
[True, True, True, True, True, True]

>  <Ro5_Fulfilled>  (43) 
True

>  <Ro3>  (43) 
[True, True, True, True]

>  <Ro3_Fulfilled>  (43) 
True

>  <Fsp3>  (43) 
0.1

>  <Fsp3_0.42>  (43) 
False

>  <Fsp3_0.45>  (43) 
False

>  <Stereogenic_Carbons>  (43) 
0

>  <C_Atoms>  (43) 
10

>  <FCStereo>  (43) 
0.0

>  <SPS>  (43) 
177

>  <nSPS>  (43) 
11.8

>  <PBF>  (43) 
0.664232

>  <PBF_0.6>  (43) 
True

>  <nPBF>  (43) 
0.044282

>  <nPBF_0.016>  (43) 
True

>  <PMI1>  (43) 
525.261776

>  <PMI2>  (43) 
1133.113712

>  <PMI3>  (43) 
1400.295488

>  <NPR1>  (43) 
0.375108

>  <NPR2>  (43) 
0.809196

>  <Sum_NPR>  (43) 
1.184304

>  <Sum_NPR_1.07>  (43) 
True

>  <Sum_NPR_1.2>  (43) 
False

>  <MaxAbsEStateIndex>  (43) 
11.683392

>  <MaxEStateIndex>  (43) 
11.683392

>  <MinAbsEStateIndex>  (43) 
0.282315

>  <MinEStateIndex>  (43) 
-3.402569

>  <qed>  (43) 
0.828609

>  <MolWt>  (43) 
222.269

>  <HeavyAtomMolWt>  (43) 
212.189

>  <ExactMolWt>  (43) 
222.046299

>  <NumValenceElectrons>  (43) 
78

>  <NumRadicalElectrons>  (43) 
0

>  <MaxPartialCharge>  (43) 
0.240429

>  <MinPartialCharge>  (43) 
-0.264064

>  <MaxAbsPartialCharge>  (43) 
0.264064

>  <MinAbsPartialCharge>  (43) 
0.240429

>  <FpDensityMorgan1>  (43) 
1.266667

>  <FpDensityMorgan2>  (43) 
2.066667

>  <FpDensityMorgan3>  (43) 
2.8

>  <BCUT2D_MWHI>  (43) 
32.23327

>  <BCUT2D_MWLOW>  (43) 
10.168353

>  <BCUT2D_CHGHI>  (43) 
2.135682

>  <BCUT2D_CHGLO>  (43) 
-2.052244

>  <BCUT2D_LOGPHI>  (43) 
2.206868

>  <BCUT2D_LOGPLOW>  (43) 
-2.182712

>  <BCUT2D_MRHI>  (43) 
7.893087

>  <BCUT2D_MRLOW>  (43) 
0.588932

>  <AvgIpc>  (43) 
2.280673

>  <BalabanJ>  (43) 
2.83096

>  <BertzCT>  (43) 
587.898807

>  <Chi0>  (43) 
10.888905

>  <Chi0n>  (43) 
8.13606

>  <Chi0v>  (43) 
8.952557

>  <Chi1>  (43) 
7.148995

>  <Chi1n>  (43) 
4.41268

>  <Chi1v>  (43) 
5.895843

>  <Chi2n>  (43) 
3.060521

>  <Chi2v>  (43) 
4.915469

>  <Chi3n>  (43) 
2.198979

>  <Chi3v>  (43) 
3.671463

>  <Chi4n>  (43) 
1.437121

>  <Chi4v>  (43) 
2.390162

>  <HallKierAlpha>  (43) 
-1.46

>  <Ipc>  (43) 
3060.662649

>  <Kappa1>  (43) 
10.071286

>  <Kappa2>  (43) 
3.599298

>  <Kappa3>  (43) 
1.710294

>  <LabuteASA>  (43) 
88.008296

>  <PEOE_VSA1>  (43) 
0.0

>  <PEOE_VSA10>  (43) 
0.0

>  <PEOE_VSA11>  (43) 
0.0

>  <PEOE_VSA12>  (43) 
10.023291

>  <PEOE_VSA13>  (43) 
0.0

>  <PEOE_VSA14>  (43) 
0.0

>  <PEOE_VSA2>  (43) 
4.983979

>  <PEOE_VSA3>  (43) 
13.139892

>  <PEOE_VSA4>  (43) 
0.0

>  <PEOE_VSA5>  (43) 
0.0

>  <PEOE_VSA6>  (43) 
12.132734

>  <PEOE_VSA7>  (43) 
19.180406

>  <PEOE_VSA8>  (43) 
23.166136

>  <PEOE_VSA9>  (43) 
4.895483

>  <SMR_VSA1>  (43) 
8.417797

>  <SMR_VSA10>  (43) 
20.79574

>  <SMR_VSA2>  (43) 
0.0

>  <SMR_VSA3>  (43) 
9.706073

>  <SMR_VSA4>  (43) 
0.0

>  <SMR_VSA5>  (43) 
4.895483

>  <SMR_VSA6>  (43) 
7.047672

>  <SMR_VSA7>  (43) 
36.659155

>  <SMR_VSA8>  (43) 
0.0

>  <SMR_VSA9>  (43) 
0.0

>  <SlogP_VSA1>  (43) 
4.722095

>  <SlogP_VSA10>  (43) 
0.0

>  <SlogP_VSA11>  (43) 
0.0

>  <SlogP_VSA12>  (43) 
0.0

>  <SlogP_VSA2>  (43) 
20.449447

>  <SlogP_VSA3>  (43) 
10.023291

>  <SlogP_VSA4>  (43) 
0.0

>  <SlogP_VSA5>  (43) 
0.0

>  <SlogP_VSA6>  (43) 
41.554639

>  <SlogP_VSA7>  (43) 
0.0

>  <SlogP_VSA8>  (43) 
10.772448

>  <SlogP_VSA9>  (43) 
0.0

>  <EState_VSA1>  (43) 
10.023291

>  <EState_VSA10>  (43) 
8.417797

>  <EState_VSA11>  (43) 
0.0

>  <EState_VSA2>  (43) 
4.895483

>  <EState_VSA3>  (43) 
5.386224

>  <EState_VSA4>  (43) 
5.386224

>  <EState_VSA5>  (43) 
7.047672

>  <EState_VSA6>  (43) 
30.592788

>  <EState_VSA7>  (43) 
6.066367

>  <EState_VSA8>  (43) 
9.706073

>  <EState_VSA9>  (43) 
0.0

>  <VSA_EState1>  (43) 
25.668339

>  <VSA_EState10>  (43) 
0.0

>  <VSA_EState2>  (43) 
4.228953

>  <VSA_EState3>  (43) 
1.495995

>  <VSA_EState4>  (43) 
0.0

>  <VSA_EState5>  (43) 
0.0

>  <VSA_EState6>  (43) 
6.804537

>  <VSA_EState7>  (43) 
3.223241

>  <VSA_EState8>  (43) 
0.0

>  <VSA_EState9>  (43) 
-2.004398

>  <FractionCSP3>  (43) 
0.1

>  <HeavyAtomCount>  (43) 
15

>  <NHOHCount>  (43) 
1

>  <NOCount>  (43) 
4

>  <NumAliphaticCarbocycles>  (43) 
0

>  <NumAliphaticHeterocycles>  (43) 
0

>  <NumAliphaticRings>  (43) 
0

>  <NumAromaticCarbocycles>  (43) 
1

>  <NumAromaticHeterocycles>  (43) 
1

>  <NumAromaticRings>  (43) 
2

>  <NumHAcceptors>  (43) 
3

>  <NumHDonors>  (43) 
1

>  <NumHeteroatoms>  (43) 
5

>  <NumRotatableBonds>  (43) 
2

>  <NumSaturatedCarbocycles>  (43) 
0

>  <NumSaturatedHeterocycles>  (43) 
0

>  <NumSaturatedRings>  (43) 
0

>  <RingCount>  (43) 
2

>  <MolLogP>  (43) 
1.1429

>  <MolMR>  (43) 
57.9885

>  <fr_Al_COO>  (43) 
0

>  <fr_Al_OH>  (43) 
0

>  <fr_Al_OH_noTert>  (43) 
0

>  <fr_ArN>  (43) 
0

>  <fr_Ar_COO>  (43) 
0

>  <fr_Ar_N>  (43) 
1

>  <fr_Ar_NH>  (43) 
0

>  <fr_Ar_OH>  (43) 
0

>  <fr_COO>  (43) 
0

>  <fr_COO2>  (43) 
0

>  <fr_C_O>  (43) 
0

>  <fr_C_O_noCOO>  (43) 
0

>  <fr_C_S>  (43) 
0

>  <fr_HOCCN>  (43) 
0

>  <fr_Imine>  (43) 
0

>  <fr_NH0>  (43) 
1

>  <fr_NH1>  (43) 
1

>  <fr_NH2>  (43) 
0

>  <fr_N_O>  (43) 
0

>  <fr_Ndealkylation1>  (43) 
0

>  <fr_Ndealkylation2>  (43) 
0

>  <fr_Nhpyrrole>  (43) 
0

>  <fr_SH>  (43) 
0

>  <fr_aldehyde>  (43) 
0

>  <fr_alkyl_carbamate>  (43) 
0

>  <fr_alkyl_halide>  (43) 
0

>  <fr_allylic_oxid>  (43) 
0

>  <fr_amide>  (43) 
0

>  <fr_amidine>  (43) 
0

>  <fr_aniline>  (43) 
0

>  <fr_aryl_methyl>  (43) 
0

>  <fr_azide>  (43) 
0

>  <fr_azo>  (43) 
0

>  <fr_barbitur>  (43) 
0

>  <fr_benzene>  (43) 
1

>  <fr_benzodiazepine>  (43) 
0

>  <fr_bicyclic>  (43) 
1

>  <fr_diazo>  (43) 
0

>  <fr_dihydropyridine>  (43) 
0

>  <fr_epoxide>  (43) 
0

>  <fr_ester>  (43) 
0

>  <fr_ether>  (43) 
0

>  <fr_furan>  (43) 
0

>  <fr_guanido>  (43) 
0

>  <fr_halogen>  (43) 
0

>  <fr_hdrzine>  (43) 
0

>  <fr_hdrzone>  (43) 
0

>  <fr_imidazole>  (43) 
0

>  <fr_imide>  (43) 
0

>  <fr_isocyan>  (43) 
0

>  <fr_isothiocyan>  (43) 
0

>  <fr_ketone>  (43) 
0

>  <fr_ketone_Topliss>  (43) 
0

>  <fr_lactam>  (43) 
0

>  <fr_lactone>  (43) 
0

>  <fr_methoxy>  (43) 
0

>  <fr_morpholine>  (43) 
0

>  <fr_nitrile>  (43) 
0

>  <fr_nitro>  (43) 
0

>  <fr_nitro_arom>  (43) 
0

>  <fr_nitro_arom_nonortho>  (43) 
0

>  <fr_nitroso>  (43) 
0

>  <fr_oxazole>  (43) 
0

>  <fr_oxime>  (43) 
0

>  <fr_para_hydroxylation>  (43) 
0

>  <fr_phenol>  (43) 
0

>  <fr_phenol_noOrthoHbond>  (43) 
0

>  <fr_phos_acid>  (43) 
0

>  <fr_phos_ester>  (43) 
0

>  <fr_piperdine>  (43) 
0

>  <fr_piperzine>  (43) 
0

>  <fr_priamide>  (43) 
0

>  <fr_prisulfonamd>  (43) 
0

>  <fr_pyridine>  (43) 
1

>  <fr_quatN>  (43) 
0

>  <fr_sulfide>  (43) 
0

>  <fr_sulfonamd>  (43) 
1

>  <fr_sulfone>  (43) 
0

>  <fr_term_acetylene>  (43) 
0

>  <fr_tetrazole>  (43) 
0

>  <fr_thiazole>  (43) 
0

>  <fr_thiocyan>  (43) 
0

>  <fr_thiophene>  (43) 
0

>  <fr_unbrch_alkane>  (43) 
0

>  <fr_urea>  (43) 
0

>  <NP_Likeness>  (43) 
-1.6448

$$$$
7K7
     RDKit          3D

  0  0  0  0  0  0  0  0  0  0999 V3000
M  V30 BEGIN CTAB
M  V30 COUNTS 41 43 0 0 0
M  V30 BEGIN ATOM
M  V30 1 S -13.790000 24.981000 -27.494000 0
M  V30 2 O -13.145000 26.015000 -26.746000 0
M  V30 3 O -14.431000 25.291000 -28.729000 0
M  V30 4 N -9.980000 23.730000 -29.053000 0 CHG=1
M  V30 5 N -17.424000 26.393000 -23.739000 0
M  V30 6 N -12.646000 23.840000 -27.799000 0
M  V30 7 C -13.247000 21.808000 -29.103000 0
M  V30 8 C -9.466000 23.679000 -27.651000 0
M  V30 9 C -16.666000 27.039000 -24.641000 0
M  V30 10 C -11.013000 22.719000 -29.415000 0
M  V30 11 C -17.415000 25.068000 -23.769000 0
M  V30 12 C -11.770000 23.420000 -26.688000 0
M  V30 13 C -10.472000 24.196000 -26.644000 0
M  V30 14 C -15.857000 22.191000 -25.560000 0
M  V30 15 C -15.875000 26.419000 -25.559000 0
M  V30 16 C -15.010000 22.862000 -26.427000 0
M  V30 17 C -16.654000 22.881000 -24.694000 0
M  V30 18 C -14.979000 24.229000 -26.442000 0
M  V30 19 C -12.491000 23.125000 -29.091000 0 CFG=2
M  V30 20 C -16.648000 24.298000 -24.672000 0
M  V30 21 C -15.822000 25.005000 -25.588000 0
M  V30 22 H -9.201400 23.603500 -29.667700 0
M  V30 23 H -13.118500 21.357900 -29.986700 0
M  V30 24 H -12.899600 21.217600 -28.374500 0
M  V30 25 H -14.220800 21.981300 -28.955700 0
M  V30 26 H -8.638300 24.237100 -27.592600 0
M  V30 27 H -9.244900 22.730300 -27.425000 0
M  V30 28 H -16.684100 28.038800 -24.637700 0
M  V30 29 H -10.808100 21.876300 -28.917200 0
M  V30 30 H -10.947900 22.549500 -30.398400 0
M  V30 31 H -17.988300 24.581600 -23.109700 0
M  V30 32 H -11.558700 22.448600 -26.796600 0
M  V30 33 H -12.256600 23.560900 -25.825800 0
M  V30 34 H -10.663700 25.156900 -26.843700 0
M  V30 35 H -10.080200 24.117700 -25.727300 0
M  V30 36 H -15.884400 21.191400 -25.569000 0
M  V30 37 H -15.336300 26.957600 -26.206900 0
M  V30 38 H -14.418400 22.344100 -27.044900 0
M  V30 39 H -17.250300 22.380300 -24.066500 0
M  V30 40 H -12.837700 23.705700 -29.827600 0
M  V30 41 H -10.376400 24.636300 -29.199300 0
M  V30 END ATOM
M  V30 BEGIN BOND
M  V30 1 2 1 2
M  V30 2 2 1 3
M  V30 3 1 1 6
M  V30 4 1 1 18
M  V30 5 1 4 8
M  V30 6 1 4 10
M  V30 7 2 5 9
M  V30 8 1 5 11
M  V30 9 1 6 12
M  V30 10 1 6 19
M  V30 11 1 7 19
M  V30 12 1 8 13
M  V30 13 1 9 15
M  V30 14 1 10 19
M  V30 15 2 11 20
M  V30 16 1 12 13
M  V30 17 1 14 16
M  V30 18 2 14 17
M  V30 19 2 15 21
M  V30 20 2 16 18
M  V30 21 1 17 20
M  V30 22 1 18 21
M  V30 23 1 20 21
M  V30 24 1 4 22
M  V30 25 1 7 23
M  V30 26 1 7 24
M  V30 27 1 7 25
M  V30 28 1 8 26
M  V30 29 1 8 27
M  V30 30 1 9 28
M  V30 31 1 10 29
M  V30 32 1 10 30
M  V30 33 1 11 31
M  V30 34 1 12 32
M  V30 35 1 12 33
M  V30 36 1 13 34
M  V30 37 1 13 35
M  V30 38 1 14 36
M  V30 39 1 15 37
M  V30 40 1 16 38
M  V30 41 1 17 39
M  V30 42 1 19 40 CFG=3
M  V30 43 1 4 41
M  V30 END BOND
M  V30 END CTAB
M  END
>  <Ligand_Instance>  (44) 
5M71_7K7_A_401

>  <Dataset>  (44) 
PDB

>  <PDB_ID>  (44) 
5M71

>  <Chain>  (44) 
A

>  <Resi>  (44) 
401

>  <Num_Resolved_Atoms>  (44) 
21

>  <Num_H_Atoms_ProtBoundConf>  (44) 
20

>  <Pocket>  (44) 
A

>  <Name>  (44) 
5-[[(2~{R})-2-methyl-1,4-diazepan-4-ium-1-yl]sulfonyl]isoquinoline

>  <Num_Not_Resolved_Atoms>  (44) 
0

>  <ATP_Site>  (44) 
True

>  <Peripheral>  (44) 
False

>  <Standardized_SMILES>  (44) 
[H]C1=NC([H])=C2C([H])=C([H])C([H])=C(S(=O)(=O)N3C([H])([H])C([H])([H])C([H])([H])[N+]([H])([H])C([H])([H])[C@@]3([H])C([H])([H])[H])C2=C1[H]

>  <2D_Mol_H>  (44) 
<rdkit.Chem.rdchem.Mol object at 0x77059d9e47b0>

>  <MW>  (44) 
306.411

>  <HBA>  (44) 
3

>  <HBD>  (44) 
1

>  <LogP>  (44) 
0.5811

>  <NRB>  (44) 
3

>  <TPSA>  (44) 
66.88

>  <Num_Heavy_Atoms>  (44) 
21

>  <Ro5>  (44) 
[True, True, True, True, True, True]

>  <Ro5_Fulfilled>  (44) 
True

>  <Ro3>  (44) 
[False, True, True, True]

>  <Ro3_Fulfilled>  (44) 
True

>  <Fsp3>  (44) 
0.4

>  <Fsp3_0.42>  (44) 
False

>  <Fsp3_0.45>  (44) 
False

>  <Stereogenic_Carbons>  (44) 
1

>  <C_Atoms>  (44) 
15

>  <FCStereo>  (44) 
0.066667

>  <SPS>  (44) 
447

>  <nSPS>  (44) 
21.285714

>  <PBF>  (44) 
0.943608

>  <PBF_0.6>  (44) 
True

>  <nPBF>  (44) 
0.044934

>  <nPBF_0.016>  (44) 
True

>  <PMI1>  (44) 
768.77835

>  <PMI2>  (44) 
2804.656745

>  <PMI3>  (44) 
3040.49221

>  <NPR1>  (44) 
0.252847

>  <NPR2>  (44) 
0.922435

>  <Sum_NPR>  (44) 
1.175282

>  <Sum_NPR_1.07>  (44) 
True

>  <Sum_NPR_1.2>  (44) 
False

>  <MaxAbsEStateIndex>  (44) 
13.056031

>  <MaxEStateIndex>  (44) 
13.056031

>  <MinAbsEStateIndex>  (44) 
0.008883

>  <MinEStateIndex>  (44) 
-3.475602

>  <qed>  (44) 
0.882456

>  <MolWt>  (44) 
306.411

>  <HeavyAtomMolWt>  (44) 
286.251

>  <ExactMolWt>  (44) 
306.127074

>  <NumValenceElectrons>  (44) 
112

>  <NumRadicalElectrons>  (44) 
0

>  <MaxPartialCharge>  (44) 
0.243643

>  <MinPartialCharge>  (44) 
-0.344891

>  <MaxAbsPartialCharge>  (44) 
0.344891

>  <MinAbsPartialCharge>  (44) 
0.243643

>  <FpDensityMorgan1>  (44) 
1.333333

>  <FpDensityMorgan2>  (44) 
2.190476

>  <FpDensityMorgan3>  (44) 
3.047619

>  <BCUT2D_MWHI>  (44) 
32.233428

>  <BCUT2D_MWLOW>  (44) 
10.168262

>  <BCUT2D_CHGHI>  (44) 
2.317314

>  <BCUT2D_CHGLO>  (44) 
-2.248381

>  <BCUT2D_LOGPHI>  (44) 
2.260173

>  <BCUT2D_LOGPLOW>  (44) 
-2.855536

>  <BCUT2D_MRHI>  (44) 
7.889867

>  <BCUT2D_MRLOW>  (44) 
-0.654222

>  <AvgIpc>  (44) 
2.712915

>  <BalabanJ>  (44) 
2.113525

>  <BertzCT>  (44) 
740.17207

>  <Chi0>  (44) 
14.872033

>  <Chi0n>  (44) 
12.066401

>  <Chi0v>  (44) 
12.882898

>  <Chi1>  (44) 
10.10419

>  <Chi1n>  (44) 
7.267652

>  <Chi1v>  (44) 
8.707715

>  <Chi2n>  (44) 
5.484343

>  <Chi2v>  (44) 
7.343319

>  <Chi3n>  (44) 
4.013517

>  <Chi3v>  (44) 
6.08525

>  <Chi4n>  (44) 
2.889639

>  <Chi4v>  (44) 
4.78594

>  <HallKierAlpha>  (44) 
-1.5

>  <Ipc>  (44) 
79634.902196

>  <Kappa1>  (44) 
14.437804

>  <Kappa2>  (44) 
5.709877

>  <Kappa3>  (44) 
2.661712

>  <LabuteASA>  (44) 
124.587009

>  <PEOE_VSA1>  (44) 
5.316789

>  <PEOE_VSA10>  (44) 
0.0

>  <PEOE_VSA11>  (44) 
0.0

>  <PEOE_VSA12>  (44) 
10.023291

>  <PEOE_VSA13>  (44) 
0.0

>  <PEOE_VSA14>  (44) 
0.0

>  <PEOE_VSA2>  (44) 
4.983979

>  <PEOE_VSA3>  (44) 
8.417797

>  <PEOE_VSA4>  (44) 
4.305216

>  <PEOE_VSA5>  (44) 
0.0

>  <PEOE_VSA6>  (44) 
12.132734

>  <PEOE_VSA7>  (44) 
19.056471

>  <PEOE_VSA8>  (44) 
36.131714

>  <PEOE_VSA9>  (44) 
24.026837

>  <SMR_VSA1>  (44) 
13.734586

>  <SMR_VSA10>  (44) 
20.79574

>  <SMR_VSA2>  (44) 
0.0

>  <SMR_VSA3>  (44) 
9.289195

>  <SMR_VSA4>  (44) 
0.0

>  <SMR_VSA5>  (44) 
24.281883

>  <SMR_VSA6>  (44) 
19.634269

>  <SMR_VSA7>  (44) 
36.659155

>  <SMR_VSA8>  (44) 
0.0

>  <SMR_VSA9>  (44) 
0.0

>  <SlogP_VSA1>  (44) 
5.316789

>  <SlogP_VSA10>  (44) 
0.0

>  <SlogP_VSA11>  (44) 
0.0

>  <SlogP_VSA12>  (44) 
0.0

>  <SlogP_VSA2>  (44) 
43.383102

>  <SlogP_VSA3>  (44) 
10.023291

>  <SlogP_VSA4>  (44) 
0.0

>  <SlogP_VSA5>  (44) 
13.344559

>  <SlogP_VSA6>  (44) 
41.554639

>  <SlogP_VSA7>  (44) 
0.0

>  <SlogP_VSA8>  (44) 
10.772448

>  <SlogP_VSA9>  (44) 
0.0

>  <EState_VSA1>  (44) 
10.023291

>  <EState_VSA10>  (44) 
8.417797

>  <EState_VSA11>  (44) 
0.0

>  <EState_VSA2>  (44) 
6.041841

>  <EState_VSA3>  (44) 
11.44024

>  <EState_VSA4>  (44) 
30.282783

>  <EState_VSA5>  (44) 
0.0

>  <EState_VSA6>  (44) 
34.898004

>  <EState_VSA7>  (44) 
12.990104

>  <EState_VSA8>  (44) 
10.300767

>  <EState_VSA9>  (44) 
0.0

>  <VSA_EState1>  (44) 
27.756607

>  <VSA_EState10>  (44) 
0.0

>  <VSA_EState2>  (44) 
4.450403

>  <VSA_EState3>  (44) 
3.785427

>  <VSA_EState4>  (44) 
0.0

>  <VSA_EState5>  (44) 
0.0

>  <VSA_EState6>  (44) 
7.150071

>  <VSA_EState7>  (44) 
4.227046

>  <VSA_EState8>  (44) 
4.356048

>  <VSA_EState9>  (44) 
-3.475602

>  <FractionCSP3>  (44) 
0.4

>  <HeavyAtomCount>  (44) 
21

>  <NHOHCount>  (44) 
2

>  <NOCount>  (44) 
5

>  <NumAliphaticCarbocycles>  (44) 
0

>  <NumAliphaticHeterocycles>  (44) 
1

>  <NumAliphaticRings>  (44) 
1

>  <NumAromaticCarbocycles>  (44) 
1

>  <NumAromaticHeterocycles>  (44) 
1

>  <NumAromaticRings>  (44) 
2

>  <NumHAcceptors>  (44) 
3

>  <NumHDonors>  (44) 
1

>  <NumHeteroatoms>  (44) 
6

>  <NumRotatableBonds>  (44) 
2

>  <NumSaturatedCarbocycles>  (44) 
0

>  <NumSaturatedHeterocycles>  (44) 
1

>  <NumSaturatedRings>  (44) 
1

>  <RingCount>  (44) 
3

>  <MolLogP>  (44) 
0.5811

>  <MolMR>  (44) 
81.3732

>  <fr_Al_COO>  (44) 
0

>  <fr_Al_OH>  (44) 
0

>  <fr_Al_OH_noTert>  (44) 
0

>  <fr_ArN>  (44) 
0

>  <fr_Ar_COO>  (44) 
0

>  <fr_Ar_N>  (44) 
1

>  <fr_Ar_NH>  (44) 
0

>  <fr_Ar_OH>  (44) 
0

>  <fr_COO>  (44) 
0

>  <fr_COO2>  (44) 
0

>  <fr_C_O>  (44) 
0

>  <fr_C_O_noCOO>  (44) 
0

>  <fr_C_S>  (44) 
0

>  <fr_HOCCN>  (44) 
0

>  <fr_Imine>  (44) 
0

>  <fr_NH0>  (44) 
2

>  <fr_NH1>  (44) 
0

>  <fr_NH2>  (44) 
1

>  <fr_N_O>  (44) 
0

>  <fr_Ndealkylation1>  (44) 
0

>  <fr_Ndealkylation2>  (44) 
0

>  <fr_Nhpyrrole>  (44) 
0

>  <fr_SH>  (44) 
0

>  <fr_aldehyde>  (44) 
0

>  <fr_alkyl_carbamate>  (44) 
0

>  <fr_alkyl_halide>  (44) 
0

>  <fr_allylic_oxid>  (44) 
0

>  <fr_amide>  (44) 
0

>  <fr_amidine>  (44) 
0

>  <fr_aniline>  (44) 
0

>  <fr_aryl_methyl>  (44) 
0

>  <fr_azide>  (44) 
0

>  <fr_azo>  (44) 
0

>  <fr_barbitur>  (44) 
0

>  <fr_benzene>  (44) 
1

>  <fr_benzodiazepine>  (44) 
0

>  <fr_bicyclic>  (44) 
1

>  <fr_diazo>  (44) 
0

>  <fr_dihydropyridine>  (44) 
0

>  <fr_epoxide>  (44) 
0

>  <fr_ester>  (44) 
0

>  <fr_ether>  (44) 
0

>  <fr_furan>  (44) 
0

>  <fr_guanido>  (44) 
0

>  <fr_halogen>  (44) 
0

>  <fr_hdrzine>  (44) 
0

>  <fr_hdrzone>  (44) 
0

>  <fr_imidazole>  (44) 
0

>  <fr_imide>  (44) 
0

>  <fr_isocyan>  (44) 
0

>  <fr_isothiocyan>  (44) 
0

>  <fr_ketone>  (44) 
0

>  <fr_ketone_Topliss>  (44) 
0

>  <fr_lactam>  (44) 
0

>  <fr_lactone>  (44) 
0

>  <fr_methoxy>  (44) 
0

>  <fr_morpholine>  (44) 
0

>  <fr_nitrile>  (44) 
0

>  <fr_nitro>  (44) 
0

>  <fr_nitro_arom>  (44) 
0

>  <fr_nitro_arom_nonortho>  (44) 
0

>  <fr_nitroso>  (44) 
0

>  <fr_oxazole>  (44) 
0

>  <fr_oxime>  (44) 
0

>  <fr_para_hydroxylation>  (44) 
0

>  <fr_phenol>  (44) 
0

>  <fr_phenol_noOrthoHbond>  (44) 
0

>  <fr_phos_acid>  (44) 
0

>  <fr_phos_ester>  (44) 
0

>  <fr_piperdine>  (44) 
0

>  <fr_piperzine>  (44) 
0

>  <fr_priamide>  (44) 
0

>  <fr_prisulfonamd>  (44) 
0

>  <fr_pyridine>  (44) 
1

>  <fr_quatN>  (44) 
1

>  <fr_sulfide>  (44) 
0

>  <fr_sulfonamd>  (44) 
1

>  <fr_sulfone>  (44) 
0

>  <fr_term_acetylene>  (44) 
0

>  <fr_tetrazole>  (44) 
0

>  <fr_thiazole>  (44) 
0

>  <fr_thiocyan>  (44) 
0

>  <fr_thiophene>  (44) 
0

>  <fr_unbrch_alkane>  (44) 
0

>  <fr_urea>  (44) 
0

>  <NP_Likeness>  (44) 
-1.234159

$$$$
7KB
     RDKit          3D

  0  0  0  0  0  0  0  0  0  0999 V3000
M  V30 BEGIN CTAB
M  V30 COUNTS 41 43 0 0 0
M  V30 BEGIN ATOM
M  V30 1 S -13.737000 24.562000 -27.395000 0
M  V30 2 O -14.142000 24.939000 -28.714000 0
M  V30 3 O -13.111000 25.529000 -26.549000 0
M  V30 4 N -9.744000 22.422000 -27.078000 0 CHG=1
M  V30 5 N -17.523000 26.038000 -23.718000 0
M  V30 6 N -12.655000 23.352000 -27.574000 0
M  V30 7 C -15.660000 26.992000 -26.831000 0
M  V30 8 C -10.628000 23.192000 -26.155000 0
M  V30 9 C -10.067000 22.602000 -28.524000 0
M  V30 10 C -16.885000 26.704000 -24.684000 0
M  V30 11 C -17.474000 24.724000 -23.750000 0
M  V30 12 C -12.066000 22.786000 -26.344000 0
M  V30 13 C -12.607000 22.564000 -28.820000 0
M  V30 14 C -11.300000 21.802000 -28.973000 0
M  V30 15 C -16.019000 21.858000 -25.609000 0
M  V30 16 C -15.188000 22.518000 -26.502000 0
M  V30 17 C -16.758000 22.560000 -24.711000 0
M  V30 18 C -15.107000 23.884000 -26.502000 0
M  V30 19 C -16.156000 26.116000 -25.710000 0
M  V30 20 C -16.745000 23.976000 -24.707000 0
M  V30 21 C -15.945000 24.695000 -25.654000 0
M  V30 22 H -9.828600 21.450600 -26.856000 0
M  V30 23 H -15.155700 26.435200 -27.491000 0
M  V30 24 H -16.438700 27.424400 -27.285700 0
M  V30 25 H -15.056400 27.697900 -26.460300 0
M  V30 26 H -10.533600 24.168800 -26.347000 0
M  V30 27 H -10.355800 23.010100 -25.210100 0
M  V30 28 H -9.280500 22.303900 -29.064900 0
M  V30 29 H -10.239100 23.572500 -28.692800 0
M  V30 30 H -16.936000 27.702600 -24.667500 0
M  V30 31 H -17.984700 24.220100 -23.053300 0
M  V30 32 H -12.113800 21.788400 -26.394900 0
M  V30 33 H -12.595600 23.105400 -25.558200 0
M  V30 34 H -12.709700 23.185000 -29.597000 0
M  V30 35 H -13.362300 21.908600 -28.815000 0
M  V30 36 H -11.353600 20.968300 -28.423400 0
M  V30 37 H -11.186100 21.559400 -29.936400 0
M  V30 38 H -16.074500 20.859700 -25.626300 0
M  V30 39 H -14.642300 21.990000 -27.152700 0
M  V30 40 H -17.318900 22.070100 -24.043600 0
M  V30 41 H -8.800400 22.717300 -26.928000 0
M  V30 END ATOM
M  V30 BEGIN BOND
M  V30 1 2 1 2
M  V30 2 2 1 3
M  V30 3 1 1 6
M  V30 4 1 1 18
M  V30 5 1 4 8
M  V30 6 1 4 9
M  V30 7 2 5 10
M  V30 8 1 5 11
M  V30 9 1 6 12
M  V30 10 1 6 13
M  V30 11 1 7 19
M  V30 12 1 8 12
M  V30 13 1 9 14
M  V30 14 1 10 19
M  V30 15 2 11 20
M  V30 16 1 13 14
M  V30 17 1 15 16
M  V30 18 2 15 17
M  V30 19 2 16 18
M  V30 20 1 17 20
M  V30 21 1 18 21
M  V30 22 2 19 21
M  V30 23 1 20 21
M  V30 24 1 4 22
M  V30 25 1 7 23
M  V30 26 1 7 24
M  V30 27 1 7 25
M  V30 28 1 8 26
M  V30 29 1 8 27
M  V30 30 1 9 28
M  V30 31 1 9 29
M  V30 32 1 10 30
M  V30 33 1 11 31
M  V30 34 1 12 32
M  V30 35 1 12 33
M  V30 36 1 13 34
M  V30 37 1 13 35
M  V30 38 1 14 36
M  V30 39 1 14 37
M  V30 40 1 15 38
M  V30 41 1 16 39
M  V30 42 1 17 40
M  V30 43 1 4 41
M  V30 END BOND
M  V30 END CTAB
M  END
>  <Ligand_Instance>  (45) 
5M6Y_7KB_A_401

>  <Dataset>  (45) 
PDB

>  <PDB_ID>  (45) 
5M6Y

>  <Chain>  (45) 
A

>  <Resi>  (45) 
401

>  <Num_Resolved_Atoms>  (45) 
21

>  <Num_H_Atoms_ProtBoundConf>  (45) 
20

>  <Pocket>  (45) 
A

>  <Name>  (45) 
5-(1,4-diazepan-1-ylsulfonyl)-4-methyl-isoquinoline

>  <Num_Not_Resolved_Atoms>  (45) 
0

>  <ATP_Site>  (45) 
True

>  <Peripheral>  (45) 
False

>  <Standardized_SMILES>  (45) 
[H]C1=NC([H])=C2C([H])=C([H])C([H])=C(S(=O)(=O)N3C([H])([H])C([H])([H])C([H])([H])[N+]([H])([H])C([H])([H])C3([H])[H])C2=C1C([H])([H])[H]

>  <2D_Mol_H>  (45) 
<rdkit.Chem.rdchem.Mol object at 0x77059d9e4890>

>  <MW>  (45) 
306.411

>  <HBA>  (45) 
3

>  <HBD>  (45) 
1

>  <LogP>  (45) 
0.50102

>  <NRB>  (45) 
3

>  <TPSA>  (45) 
66.88

>  <Num_Heavy_Atoms>  (45) 
21

>  <Ro5>  (45) 
[True, True, True, True, True, True]

>  <Ro5_Fulfilled>  (45) 
True

>  <Ro3>  (45) 
[False, True, True, True]

>  <Ro3_Fulfilled>  (45) 
True

>  <Fsp3>  (45) 
0.4

>  <Fsp3_0.42>  (45) 
False

>  <Fsp3_0.45>  (45) 
False

>  <Stereogenic_Carbons>  (45) 
0

>  <C_Atoms>  (45) 
15

>  <FCStereo>  (45) 
0.0

>  <SPS>  (45) 
373

>  <nSPS>  (45) 
17.761905

>  <PBF>  (45) 
0.946111

>  <PBF_0.6>  (45) 
True

>  <nPBF>  (45) 
0.045053

>  <nPBF_0.016>  (45) 
True

>  <PMI1>  (45) 
797.142158

>  <PMI2>  (45) 
2720.816474

>  <PMI3>  (45) 
2982.496374

>  <NPR1>  (45) 
0.267273

>  <NPR2>  (45) 
0.912261

>  <Sum_NPR>  (45) 
1.179535

>  <Sum_NPR_1.07>  (45) 
True

>  <Sum_NPR_1.2>  (45) 
False

>  <MaxAbsEStateIndex>  (45) 
12.997836

>  <MaxEStateIndex>  (45) 
12.997836

>  <MinAbsEStateIndex>  (45) 
0.404444

>  <MinEStateIndex>  (45) 
-3.448912

>  <qed>  (45) 
0.878489

>  <MolWt>  (45) 
306.411

>  <HeavyAtomMolWt>  (45) 
286.251

>  <ExactMolWt>  (45) 
306.127074

>  <NumValenceElectrons>  (45) 
112

>  <NumRadicalElectrons>  (45) 
0

>  <MaxPartialCharge>  (45) 
0.243407

>  <MinPartialCharge>  (45) 
-0.345118

>  <MaxAbsPartialCharge>  (45) 
0.345118

>  <MinAbsPartialCharge>  (45) 
0.243407

>  <FpDensityMorgan1>  (45) 
1.190476

>  <FpDensityMorgan2>  (45) 
2.047619

>  <FpDensityMorgan3>  (45) 
2.904762

>  <BCUT2D_MWHI>  (45) 
32.233427

>  <BCUT2D_MWLOW>  (45) 
10.102646

>  <BCUT2D_CHGHI>  (45) 
2.275231

>  <BCUT2D_CHGLO>  (45) 
-2.199057

>  <BCUT2D_LOGPHI>  (45) 
2.27385

>  <BCUT2D_LOGPLOW>  (45) 
-2.843702

>  <BCUT2D_MRHI>  (45) 
7.889685

>  <BCUT2D_MRLOW>  (45) 
-0.650697

>  <AvgIpc>  (45) 
2.763908

>  <BalabanJ>  (45) 
2.143612

>  <BertzCT>  (45) 
745.352823

>  <Chi0>  (45) 
14.872033

>  <Chi0n>  (45) 
12.118808

>  <Chi0v>  (45) 
12.935304

>  <Chi1>  (45) 
10.10419

>  <Chi1n>  (45) 
7.256749

>  <Chi1v>  (45) 
8.696812

>  <Chi2n>  (45) 
5.434323

>  <Chi2v>  (45) 
7.34068

>  <Chi3n>  (45) 
3.950813

>  <Chi3v>  (45) 
5.891818

>  <Chi4n>  (45) 
2.86941

>  <Chi4v>  (45) 
4.650135

>  <HallKierAlpha>  (45) 
-1.5

>  <Ipc>  (45) 
81153.852418

>  <Kappa1>  (45) 
14.437804

>  <Kappa2>  (45) 
5.709877

>  <Kappa3>  (45) 
2.661712

>  <LabuteASA>  (45) 
124.587009

>  <PEOE_VSA1>  (45) 
5.316789

>  <PEOE_VSA10>  (45) 
0.0

>  <PEOE_VSA11>  (45) 
0.0

>  <PEOE_VSA12>  (45) 
10.023291

>  <PEOE_VSA13>  (45) 
0.0

>  <PEOE_VSA14>  (45) 
0.0

>  <PEOE_VSA2>  (45) 
4.983979

>  <PEOE_VSA3>  (45) 
8.417797

>  <PEOE_VSA4>  (45) 
4.305216

>  <PEOE_VSA5>  (45) 
0.0

>  <PEOE_VSA6>  (45) 
12.132734

>  <PEOE_VSA7>  (45) 
18.553556

>  <PEOE_VSA8>  (45) 
36.131714

>  <PEOE_VSA9>  (45) 
24.529753

>  <SMR_VSA1>  (45) 
13.734586

>  <SMR_VSA10>  (45) 
20.79574

>  <SMR_VSA2>  (45) 
0.0

>  <SMR_VSA3>  (45) 
9.289195

>  <SMR_VSA4>  (45) 
0.0

>  <SMR_VSA5>  (45) 
18.240042

>  <SMR_VSA6>  (45) 
26.179026

>  <SMR_VSA7>  (45) 
36.15624

>  <SMR_VSA8>  (45) 
0.0

>  <SMR_VSA9>  (45) 
0.0

>  <SlogP_VSA1>  (45) 
5.316789

>  <SlogP_VSA10>  (45) 
0.0

>  <SlogP_VSA11>  (45) 
0.0

>  <SlogP_VSA12>  (45) 
0.0

>  <SlogP_VSA2>  (45) 
43.886017

>  <SlogP_VSA3>  (45) 
10.023291

>  <SlogP_VSA4>  (45) 
6.923737

>  <SlogP_VSA5>  (45) 
11.984273

>  <SlogP_VSA6>  (45) 
35.488272

>  <SlogP_VSA7>  (45) 
0.0

>  <SlogP_VSA8>  (45) 
10.772448

>  <SlogP_VSA9>  (45) 
0.0

>  <EState_VSA1>  (45) 
10.023291

>  <EState_VSA10>  (45) 
8.417797

>  <EState_VSA11>  (45) 
0.0

>  <EState_VSA2>  (45) 
0.0

>  <EState_VSA3>  (45) 
17.984996

>  <EState_VSA4>  (45) 
35.846234

>  <EState_VSA5>  (45) 
0.0

>  <EState_VSA6>  (45) 
28.831637

>  <EState_VSA7>  (45) 
12.990104

>  <EState_VSA8>  (45) 
10.300767

>  <EState_VSA9>  (45) 
0.0

>  <VSA_EState1>  (45) 
27.611885

>  <VSA_EState10>  (45) 
0.0

>  <VSA_EState2>  (45) 
4.55411

>  <VSA_EState3>  (45) 
3.839382

>  <VSA_EState4>  (45) 
0.896351

>  <VSA_EState5>  (45) 
0.0

>  <VSA_EState6>  (45) 
5.406858

>  <VSA_EState7>  (45) 
4.332984

>  <VSA_EState8>  (45) 
4.890675

>  <VSA_EState9>  (45) 
-3.448912

>  <FractionCSP3>  (45) 
0.4

>  <HeavyAtomCount>  (45) 
21

>  <NHOHCount>  (45) 
2

>  <NOCount>  (45) 
5

>  <NumAliphaticCarbocycles>  (45) 
0

>  <NumAliphaticHeterocycles>  (45) 
1

>  <NumAliphaticRings>  (45) 
1

>  <NumAromaticCarbocycles>  (45) 
1

>  <NumAromaticHeterocycles>  (45) 
1

>  <NumAromaticRings>  (45) 
2

>  <NumHAcceptors>  (45) 
3

>  <NumHDonors>  (45) 
1

>  <NumHeteroatoms>  (45) 
6

>  <NumRotatableBonds>  (45) 
2

>  <NumSaturatedCarbocycles>  (45) 
0

>  <NumSaturatedHeterocycles>  (45) 
1

>  <NumSaturatedRings>  (45) 
1

>  <RingCount>  (45) 
3

>  <MolLogP>  (45) 
0.50102

>  <MolMR>  (45) 
81.5152

>  <fr_Al_COO>  (45) 
0

>  <fr_Al_OH>  (45) 
0

>  <fr_Al_OH_noTert>  (45) 
0

>  <fr_ArN>  (45) 
0

>  <fr_Ar_COO>  (45) 
0

>  <fr_Ar_N>  (45) 
1

>  <fr_Ar_NH>  (45) 
0

>  <fr_Ar_OH>  (45) 
0

>  <fr_COO>  (45) 
0

>  <fr_COO2>  (45) 
0

>  <fr_C_O>  (45) 
0

>  <fr_C_O_noCOO>  (45) 
0

>  <fr_C_S>  (45) 
0

>  <fr_HOCCN>  (45) 
0

>  <fr_Imine>  (45) 
0

>  <fr_NH0>  (45) 
2

>  <fr_NH1>  (45) 
0

>  <fr_NH2>  (45) 
1

>  <fr_N_O>  (45) 
0

>  <fr_Ndealkylation1>  (45) 
0

>  <fr_Ndealkylation2>  (45) 
0

>  <fr_Nhpyrrole>  (45) 
0

>  <fr_SH>  (45) 
0

>  <fr_aldehyde>  (45) 
0

>  <fr_alkyl_carbamate>  (45) 
0

>  <fr_alkyl_halide>  (45) 
0

>  <fr_allylic_oxid>  (45) 
0

>  <fr_amide>  (45) 
0

>  <fr_amidine>  (45) 
0

>  <fr_aniline>  (45) 
0

>  <fr_aryl_methyl>  (45) 
1

>  <fr_azide>  (45) 
0

>  <fr_azo>  (45) 
0

>  <fr_barbitur>  (45) 
0

>  <fr_benzene>  (45) 
1

>  <fr_benzodiazepine>  (45) 
0

>  <fr_bicyclic>  (45) 
1

>  <fr_diazo>  (45) 
0

>  <fr_dihydropyridine>  (45) 
0

>  <fr_epoxide>  (45) 
0

>  <fr_ester>  (45) 
0

>  <fr_ether>  (45) 
0

>  <fr_furan>  (45) 
0

>  <fr_guanido>  (45) 
0

>  <fr_halogen>  (45) 
0

>  <fr_hdrzine>  (45) 
0

>  <fr_hdrzone>  (45) 
0

>  <fr_imidazole>  (45) 
0

>  <fr_imide>  (45) 
0

>  <fr_isocyan>  (45) 
0

>  <fr_isothiocyan>  (45) 
0

>  <fr_ketone>  (45) 
0

>  <fr_ketone_Topliss>  (45) 
0

>  <fr_lactam>  (45) 
0

>  <fr_lactone>  (45) 
0

>  <fr_methoxy>  (45) 
0

>  <fr_morpholine>  (45) 
0

>  <fr_nitrile>  (45) 
0

>  <fr_nitro>  (45) 
0

>  <fr_nitro_arom>  (45) 
0

>  <fr_nitro_arom_nonortho>  (45) 
0

>  <fr_nitroso>  (45) 
0

>  <fr_oxazole>  (45) 
0

>  <fr_oxime>  (45) 
0

>  <fr_para_hydroxylation>  (45) 
0

>  <fr_phenol>  (45) 
0

>  <fr_phenol_noOrthoHbond>  (45) 
0

>  <fr_phos_acid>  (45) 
0

>  <fr_phos_ester>  (45) 
0

>  <fr_piperdine>  (45) 
0

>  <fr_piperzine>  (45) 
0

>  <fr_priamide>  (45) 
0

>  <fr_prisulfonamd>  (45) 
0

>  <fr_pyridine>  (45) 
1

>  <fr_quatN>  (45) 
1

>  <fr_sulfide>  (45) 
0

>  <fr_sulfonamd>  (45) 
1

>  <fr_sulfone>  (45) 
0

>  <fr_term_acetylene>  (45) 
0

>  <fr_tetrazole>  (45) 
0

>  <fr_thiazole>  (45) 
0

>  <fr_thiocyan>  (45) 
0

>  <fr_thiophene>  (45) 
0

>  <fr_unbrch_alkane>  (45) 
0

>  <fr_urea>  (45) 
0

>  <NP_Likeness>  (45) 
-1.285221

$$$$
7KB
     RDKit          3D

  0  0  0  0  0  0  0  0  0  0999 V3000
M  V30 BEGIN CTAB
M  V30 COUNTS 41 43 0 0 0
M  V30 BEGIN ATOM
M  V30 1 S -13.363000 26.145000 -26.979000 0
M  V30 2 O -13.815000 26.534000 -28.280000 0
M  V30 3 O -12.804000 27.117000 -26.090000 0
M  V30 4 N -9.196000 24.441000 -26.675000 0 CHG=1
M  V30 5 N -17.188000 27.053000 -23.185000 0
M  V30 6 N -12.216000 25.000000 -27.195000 0
M  V30 7 C -15.498000 28.313000 -26.290000 0
M  V30 8 C -10.202000 25.039000 -25.751000 0
M  V30 9 C -9.485000 24.805000 -28.095000 0
M  V30 10 C -16.564000 27.820000 -24.080000 0
M  V30 11 C -17.077000 25.748000 -23.322000 0
M  V30 12 C -11.565000 24.429000 -26.001000 0
M  V30 13 C -11.961000 24.395000 -28.519000 0
M  V30 14 C -10.546000 23.860000 -28.667000 0
M  V30 15 C -15.348000 23.136000 -25.321000 0
M  V30 16 C -14.567000 23.916000 -26.159000 0
M  V30 17 C -16.182000 23.711000 -24.414000 0
M  V30 18 C -14.634000 25.280000 -26.099000 0
M  V30 19 C -15.870000 27.355000 -25.186000 0
M  V30 20 C -16.297000 25.116000 -24.328000 0
M  V30 21 C -15.553000 25.952000 -25.221000 0
M  V30 22 H -9.218600 23.445600 -26.582100 0
M  V30 23 H -15.005000 27.820100 -27.006900 0
M  V30 24 H -16.328000 28.717600 -26.674000 0
M  V30 25 H -14.914400 29.036400 -25.921000 0
M  V30 26 H -10.247800 26.025900 -25.905800 0
M  V30 27 H -9.928900 24.862200 -24.805400 0
M  V30 28 H -8.646600 24.728400 -28.634600 0
M  V30 29 H -9.822100 25.745600 -28.134600 0
M  V30 30 H -16.599700 28.809800 -23.942100 0
M  V30 31 H -17.572500 25.165200 -22.677900 0
M  V30 32 H -11.458400 23.443300 -26.131800 0
M  V30 33 H -12.145500 24.598700 -25.204600 0
M  V30 34 H -12.113600 25.090200 -29.221400 0
M  V30 35 H -12.602500 23.639700 -28.652700 0
M  V30 36 H -10.484700 22.984600 -28.187400 0
M  V30 37 H -10.358000 23.721300 -29.639300 0
M  V30 38 H -15.297600 22.139300 -25.384100 0
M  V30 39 H -13.949800 23.477700 -26.812500 0
M  V30 40 H -16.720000 23.132500 -23.800900 0
M  V30 41 H -8.286900 24.778100 -26.430200 0
M  V30 END ATOM
M  V30 BEGIN BOND
M  V30 1 2 1 2
M  V30 2 2 1 3
M  V30 3 1 1 6
M  V30 4 1 1 18
M  V30 5 1 4 8
M  V30 6 1 4 9
M  V30 7 2 5 10
M  V30 8 1 5 11
M  V30 9 1 6 12
M  V30 10 1 6 13
M  V30 11 1 7 19
M  V30 12 1 8 12
M  V30 13 1 9 14
M  V30 14 1 10 19
M  V30 15 2 11 20
M  V30 16 1 13 14
M  V30 17 1 15 16
M  V30 18 2 15 17
M  V30 19 2 16 18
M  V30 20 1 17 20
M  V30 21 1 18 21
M  V30 22 2 19 21
M  V30 23 1 20 21
M  V30 24 1 4 22
M  V30 25 1 7 23
M  V30 26 1 7 24
M  V30 27 1 7 25
M  V30 28 1 8 26
M  V30 29 1 8 27
M  V30 30 1 9 28
M  V30 31 1 9 29
M  V30 32 1 10 30
M  V30 33 1 11 31
M  V30 34 1 12 32
M  V30 35 1 12 33
M  V30 36 1 13 34
M  V30 37 1 13 35
M  V30 38 1 14 36
M  V30 39 1 14 37
M  V30 40 1 15 38
M  V30 41 1 16 39
M  V30 42 1 17 40
M  V30 43 1 4 41
M  V30 END BOND
M  V30 END CTAB
M  END
>  <Ligand_Instance>  (46) 
6YQK_7KB_A_401

>  <Dataset>  (46) 
PDB

>  <PDB_ID>  (46) 
6YQK

>  <Chain>  (46) 
A

>  <Resi>  (46) 
401

>  <Num_Resolved_Atoms>  (46) 
21

>  <Num_H_Atoms_ProtBoundConf>  (46) 
20

>  <Pocket>  (46) 
A

>  <Name>  (46) 
5-(1,4-diazepan-1-ylsulfonyl)-4-methyl-isoquinoline

>  <Num_Not_Resolved_Atoms>  (46) 
0

>  <ATP_Site>  (46) 
True

>  <Peripheral>  (46) 
False

>  <Standardized_SMILES>  (46) 
[H]C1=NC([H])=C2C([H])=C([H])C([H])=C(S(=O)(=O)N3C([H])([H])C([H])([H])C([H])([H])[N+]([H])([H])C([H])([H])C3([H])[H])C2=C1C([H])([H])[H]

>  <2D_Mol_H>  (46) 
<rdkit.Chem.rdchem.Mol object at 0x77059d9e4970>

>  <MW>  (46) 
306.411

>  <HBA>  (46) 
3

>  <HBD>  (46) 
1

>  <LogP>  (46) 
0.50102

>  <NRB>  (46) 
3

>  <TPSA>  (46) 
66.88

>  <Num_Heavy_Atoms>  (46) 
21

>  <Ro5>  (46) 
[True, True, True, True, True, True]

>  <Ro5_Fulfilled>  (46) 
True

>  <Ro3>  (46) 
[False, True, True, True]

>  <Ro3_Fulfilled>  (46) 
True

>  <Fsp3>  (46) 
0.4

>  <Fsp3_0.42>  (46) 
False

>  <Fsp3_0.45>  (46) 
False

>  <Stereogenic_Carbons>  (46) 
0

>  <C_Atoms>  (46) 
15

>  <FCStereo>  (46) 
0.0

>  <SPS>  (46) 
373

>  <nSPS>  (46) 
17.761905

>  <PBF>  (46) 
0.951165

>  <PBF_0.6>  (46) 
True

>  <nPBF>  (46) 
0.045294

>  <nPBF_0.016>  (46) 
True

>  <PMI1>  (46) 
800.35394

>  <PMI2>  (46) 
2691.847834

>  <PMI3>  (46) 
2948.88939

>  <NPR1>  (46) 
0.271409

>  <NPR2>  (46) 
0.912834

>  <Sum_NPR>  (46) 
1.184243

>  <Sum_NPR_1.07>  (46) 
True

>  <Sum_NPR_1.2>  (46) 
False

>  <MaxAbsEStateIndex>  (46) 
12.997836

>  <MaxEStateIndex>  (46) 
12.997836

>  <MinAbsEStateIndex>  (46) 
0.404444

>  <MinEStateIndex>  (46) 
-3.448912

>  <qed>  (46) 
0.878489

>  <MolWt>  (46) 
306.411

>  <HeavyAtomMolWt>  (46) 
286.251

>  <ExactMolWt>  (46) 
306.127074

>  <NumValenceElectrons>  (46) 
112

>  <NumRadicalElectrons>  (46) 
0

>  <MaxPartialCharge>  (46) 
0.243407

>  <MinPartialCharge>  (46) 
-0.345118

>  <MaxAbsPartialCharge>  (46) 
0.345118

>  <MinAbsPartialCharge>  (46) 
0.243407

>  <FpDensityMorgan1>  (46) 
1.190476

>  <FpDensityMorgan2>  (46) 
2.047619

>  <FpDensityMorgan3>  (46) 
2.904762

>  <BCUT2D_MWHI>  (46) 
32.233427

>  <BCUT2D_MWLOW>  (46) 
10.102646

>  <BCUT2D_CHGHI>  (46) 
2.275231

>  <BCUT2D_CHGLO>  (46) 
-2.199057

>  <BCUT2D_LOGPHI>  (46) 
2.27385

>  <BCUT2D_LOGPLOW>  (46) 
-2.843702

>  <BCUT2D_MRHI>  (46) 
7.889685

>  <BCUT2D_MRLOW>  (46) 
-0.650697

>  <AvgIpc>  (46) 
2.763908

>  <BalabanJ>  (46) 
2.143612

>  <BertzCT>  (46) 
745.352823

>  <Chi0>  (46) 
14.872033

>  <Chi0n>  (46) 
12.118808

>  <Chi0v>  (46) 
12.935304

>  <Chi1>  (46) 
10.10419

>  <Chi1n>  (46) 
7.256749

>  <Chi1v>  (46) 
8.696812

>  <Chi2n>  (46) 
5.434323

>  <Chi2v>  (46) 
7.34068

>  <Chi3n>  (46) 
3.950813

>  <Chi3v>  (46) 
5.891818

>  <Chi4n>  (46) 
2.86941

>  <Chi4v>  (46) 
4.650135

>  <HallKierAlpha>  (46) 
-1.5

>  <Ipc>  (46) 
81153.852418

>  <Kappa1>  (46) 
14.437804

>  <Kappa2>  (46) 
5.709877

>  <Kappa3>  (46) 
2.661712

>  <LabuteASA>  (46) 
124.587009

>  <PEOE_VSA1>  (46) 
5.316789

>  <PEOE_VSA10>  (46) 
0.0

>  <PEOE_VSA11>  (46) 
0.0

>  <PEOE_VSA12>  (46) 
10.023291

>  <PEOE_VSA13>  (46) 
0.0

>  <PEOE_VSA14>  (46) 
0.0

>  <PEOE_VSA2>  (46) 
4.983979

>  <PEOE_VSA3>  (46) 
8.417797

>  <PEOE_VSA4>  (46) 
4.305216

>  <PEOE_VSA5>  (46) 
0.0

>  <PEOE_VSA6>  (46) 
12.132734

>  <PEOE_VSA7>  (46) 
18.553556

>  <PEOE_VSA8>  (46) 
36.131714

>  <PEOE_VSA9>  (46) 
24.529753

>  <SMR_VSA1>  (46) 
13.734586

>  <SMR_VSA10>  (46) 
20.79574

>  <SMR_VSA2>  (46) 
0.0

>  <SMR_VSA3>  (46) 
9.289195

>  <SMR_VSA4>  (46) 
0.0

>  <SMR_VSA5>  (46) 
18.240042

>  <SMR_VSA6>  (46) 
26.179026

>  <SMR_VSA7>  (46) 
36.15624

>  <SMR_VSA8>  (46) 
0.0

>  <SMR_VSA9>  (46) 
0.0

>  <SlogP_VSA1>  (46) 
5.316789

>  <SlogP_VSA10>  (46) 
0.0

>  <SlogP_VSA11>  (46) 
0.0

>  <SlogP_VSA12>  (46) 
0.0

>  <SlogP_VSA2>  (46) 
43.886017

>  <SlogP_VSA3>  (46) 
10.023291

>  <SlogP_VSA4>  (46) 
6.923737

>  <SlogP_VSA5>  (46) 
11.984273

>  <SlogP_VSA6>  (46) 
35.488272

>  <SlogP_VSA7>  (46) 
0.0

>  <SlogP_VSA8>  (46) 
10.772448

>  <SlogP_VSA9>  (46) 
0.0

>  <EState_VSA1>  (46) 
10.023291

>  <EState_VSA10>  (46) 
8.417797

>  <EState_VSA11>  (46) 
0.0

>  <EState_VSA2>  (46) 
0.0

>  <EState_VSA3>  (46) 
17.984996

>  <EState_VSA4>  (46) 
35.846234

>  <EState_VSA5>  (46) 
0.0

>  <EState_VSA6>  (46) 
28.831637

>  <EState_VSA7>  (46) 
12.990104

>  <EState_VSA8>  (46) 
10.300767

>  <EState_VSA9>  (46) 
0.0

>  <VSA_EState1>  (46) 
27.611885

>  <VSA_EState10>  (46) 
0.0

>  <VSA_EState2>  (46) 
4.55411

>  <VSA_EState3>  (46) 
3.839382

>  <VSA_EState4>  (46) 
0.896351

>  <VSA_EState5>  (46) 
0.0

>  <VSA_EState6>  (46) 
5.406858

>  <VSA_EState7>  (46) 
4.332984

>  <VSA_EState8>  (46) 
4.890675

>  <VSA_EState9>  (46) 
-3.448912

>  <FractionCSP3>  (46) 
0.4

>  <HeavyAtomCount>  (46) 
21

>  <NHOHCount>  (46) 
2

>  <NOCount>  (46) 
5

>  <NumAliphaticCarbocycles>  (46) 
0

>  <NumAliphaticHeterocycles>  (46) 
1

>  <NumAliphaticRings>  (46) 
1

>  <NumAromaticCarbocycles>  (46) 
1

>  <NumAromaticHeterocycles>  (46) 
1

>  <NumAromaticRings>  (46) 
2

>  <NumHAcceptors>  (46) 
3

>  <NumHDonors>  (46) 
1

>  <NumHeteroatoms>  (46) 
6

>  <NumRotatableBonds>  (46) 
2

>  <NumSaturatedCarbocycles>  (46) 
0

>  <NumSaturatedHeterocycles>  (46) 
1

>  <NumSaturatedRings>  (46) 
1

>  <RingCount>  (46) 
3

>  <MolLogP>  (46) 
0.50102

>  <MolMR>  (46) 
81.5152

>  <fr_Al_COO>  (46) 
0

>  <fr_Al_OH>  (46) 
0

>  <fr_Al_OH_noTert>  (46) 
0

>  <fr_ArN>  (46) 
0

>  <fr_Ar_COO>  (46) 
0

>  <fr_Ar_N>  (46) 
1

>  <fr_Ar_NH>  (46) 
0

>  <fr_Ar_OH>  (46) 
0

>  <fr_COO>  (46) 
0

>  <fr_COO2>  (46) 
0

>  <fr_C_O>  (46) 
0

>  <fr_C_O_noCOO>  (46) 
0

>  <fr_C_S>  (46) 
0

>  <fr_HOCCN>  (46) 
0

>  <fr_Imine>  (46) 
0

>  <fr_NH0>  (46) 
2

>  <fr_NH1>  (46) 
0

>  <fr_NH2>  (46) 
1

>  <fr_N_O>  (46) 
0

>  <fr_Ndealkylation1>  (46) 
0

>  <fr_Ndealkylation2>  (46) 
0

>  <fr_Nhpyrrole>  (46) 
0

>  <fr_SH>  (46) 
0

>  <fr_aldehyde>  (46) 
0

>  <fr_alkyl_carbamate>  (46) 
0

>  <fr_alkyl_halide>  (46) 
0

>  <fr_allylic_oxid>  (46) 
0

>  <fr_amide>  (46) 
0

>  <fr_amidine>  (46) 
0

>  <fr_aniline>  (46) 
0

>  <fr_aryl_methyl>  (46) 
1

>  <fr_azide>  (46) 
0

>  <fr_azo>  (46) 
0

>  <fr_barbitur>  (46) 
0

>  <fr_benzene>  (46) 
1

>  <fr_benzodiazepine>  (46) 
0

>  <fr_bicyclic>  (46) 
1

>  <fr_diazo>  (46) 
0

>  <fr_dihydropyridine>  (46) 
0

>  <fr_epoxide>  (46) 
0

>  <fr_ester>  (46) 
0

>  <fr_ether>  (46) 
0

>  <fr_furan>  (46) 
0

>  <fr_guanido>  (46) 
0

>  <fr_halogen>  (46) 
0

>  <fr_hdrzine>  (46) 
0

>  <fr_hdrzone>  (46) 
0

>  <fr_imidazole>  (46) 
0

>  <fr_imide>  (46) 
0

>  <fr_isocyan>  (46) 
0

>  <fr_isothiocyan>  (46) 
0

>  <fr_ketone>  (46) 
0

>  <fr_ketone_Topliss>  (46) 
0

>  <fr_lactam>  (46) 
0

>  <fr_lactone>  (46) 
0

>  <fr_methoxy>  (46) 
0

>  <fr_morpholine>  (46) 
0

>  <fr_nitrile>  (46) 
0

>  <fr_nitro>  (46) 
0

>  <fr_nitro_arom>  (46) 
0

>  <fr_nitro_arom_nonortho>  (46) 
0

>  <fr_nitroso>  (46) 
0

>  <fr_oxazole>  (46) 
0

>  <fr_oxime>  (46) 
0

>  <fr_para_hydroxylation>  (46) 
0

>  <fr_phenol>  (46) 
0

>  <fr_phenol_noOrthoHbond>  (46) 
0

>  <fr_phos_acid>  (46) 
0

>  <fr_phos_ester>  (46) 
0

>  <fr_piperdine>  (46) 
0

>  <fr_piperzine>  (46) 
0

>  <fr_priamide>  (46) 
0

>  <fr_prisulfonamd>  (46) 
0

>  <fr_pyridine>  (46) 
1

>  <fr_quatN>  (46) 
1

>  <fr_sulfide>  (46) 
0

>  <fr_sulfonamd>  (46) 
1

>  <fr_sulfone>  (46) 
0

>  <fr_term_acetylene>  (46) 
0

>  <fr_tetrazole>  (46) 
0

>  <fr_thiazole>  (46) 
0

>  <fr_thiocyan>  (46) 
0

>  <fr_thiophene>  (46) 
0

>  <fr_unbrch_alkane>  (46) 
0

>  <fr_urea>  (46) 
0

>  <NP_Likeness>  (46) 
-1.285221

$$$$
7N9
     RDKit          3D

  0  0  0  0  0  0  0  0  0  0999 V3000
M  V30 BEGIN CTAB
M  V30 COUNTS 22 22 0 0 0
M  V30 BEGIN ATOM
M  V30 1 Cl -16.686000 24.917000 -22.885000 0
M  V30 2 O -12.555000 26.132000 -26.849000 0
M  V30 3 N -11.460000 23.782000 -25.650000 0 CHG=1
M  V30 4 C -12.335000 27.468000 -27.292000 0
M  V30 5 C -12.838000 23.516000 -26.144000 0
M  V30 6 C -15.401000 26.602000 -24.565000 0
M  V30 7 C -14.407000 26.911000 -25.479000 0
M  V30 8 C -14.794000 24.283000 -24.705000 0
M  V30 9 C -15.565000 25.292000 -24.175000 0
M  V30 10 C -13.589000 25.909000 -25.981000 0
M  V30 11 C -13.771000 24.578000 -25.605000 0
M  V30 12 H -11.320300 23.308000 -24.780600 0
M  V30 13 H -10.795900 23.451200 -26.320500 0
M  V30 14 H -11.554800 27.487700 -27.917200 0
M  V30 15 H -13.150400 27.800600 -27.765900 0
M  V30 16 H -12.145500 28.053600 -26.503900 0
M  V30 17 H -13.138400 22.615500 -25.829600 0
M  V30 18 H -12.845700 23.539600 -27.143700 0
M  V30 19 H -15.990500 27.319600 -24.194100 0
M  V30 20 H -14.278900 27.856900 -25.777200 0
M  V30 21 H -14.968300 23.333700 -24.443400 0
M  V30 22 H -11.337700 24.765500 -25.516900 0
M  V30 END ATOM
M  V30 BEGIN BOND
M  V30 1 1 1 9
M  V30 2 1 2 4
M  V30 3 1 2 10
M  V30 4 1 3 5
M  V30 5 1 5 11
M  V30 6 2 6 7
M  V30 7 1 6 9
M  V30 8 1 7 10
M  V30 9 2 8 9
M  V30 10 1 8 11
M  V30 11 2 10 11
M  V30 12 1 3 12
M  V30 13 1 3 13
M  V30 14 1 4 14
M  V30 15 1 4 15
M  V30 16 1 4 16
M  V30 17 1 5 17
M  V30 18 1 5 18
M  V30 19 1 6 19
M  V30 20 1 7 20
M  V30 21 1 8 21
M  V30 22 1 3 22
M  V30 END BOND
M  V30 END CTAB
M  END
>  <Ligand_Instance>  (47) 
5MHI_7N9_A_402

>  <Dataset>  (47) 
PDB

>  <PDB_ID>  (47) 
5MHI

>  <Chain>  (47) 
A

>  <Resi>  (47) 
402

>  <Num_Resolved_Atoms>  (47) 
11

>  <Num_H_Atoms_ProtBoundConf>  (47) 
11

>  <Pocket>  (47) 
A

>  <Name>  (47) 
(5-chloranyl-2-methoxy-phenyl)methylazanium

>  <Num_Not_Resolved_Atoms>  (47) 
0

>  <ATP_Site>  (47) 
True

>  <Peripheral>  (47) 
True

>  <Standardized_SMILES>  (47) 
[H]C1=C([H])C(OC([H])([H])[H])=C(C([H])([H])[N+]([H])([H])[H])C([H])=C1Cl

>  <2D_Mol_H>  (47) 
<rdkit.Chem.rdchem.Mol object at 0x77059d9e4a50>

>  <MW>  (47) 
172.635

>  <HBA>  (47) 
1

>  <HBD>  (47) 
1

>  <LogP>  (47) 
1.0905

>  <NRB>  (47) 
4

>  <TPSA>  (47) 
36.87

>  <Num_Heavy_Atoms>  (47) 
11

>  <Ro5>  (47) 
[True, True, True, True, True, True]

>  <Ro5_Fulfilled>  (47) 
True

>  <Ro3>  (47) 
[True, True, True, True]

>  <Ro3_Fulfilled>  (47) 
True

>  <Fsp3>  (47) 
0.25

>  <Fsp3_0.42>  (47) 
False

>  <Fsp3_0.45>  (47) 
False

>  <Stereogenic_Carbons>  (47) 
0

>  <C_Atoms>  (47) 
8

>  <FCStereo>  (47) 
0.0

>  <SPS>  (47) 
107

>  <nSPS>  (47) 
9.727273

>  <PBF>  (47) 
0.47767

>  <PBF_0.6>  (47) 
False

>  <nPBF>  (47) 
0.043425

>  <nPBF_0.016>  (47) 
True

>  <PMI1>  (47) 
309.93196

>  <PMI2>  (47) 
864.725588

>  <PMI3>  (47) 
1130.055517

>  <NPR1>  (47) 
0.274263

>  <NPR2>  (47) 
0.765206

>  <Sum_NPR>  (47) 
1.039469

>  <Sum_NPR_1.07>  (47) 
False

>  <Sum_NPR_1.2>  (47) 
False

>  <MaxAbsEStateIndex>  (47) 
5.769226

>  <MaxEStateIndex>  (47) 
5.769226

>  <MinAbsEStateIndex>  (47) 
0.698148

>  <MinEStateIndex>  (47) 
0.698148

>  <qed>  (47) 
0.712708

>  <MolWt>  (47) 
172.635

>  <HeavyAtomMolWt>  (47) 
161.547

>  <ExactMolWt>  (47) 
172.052368

>  <NumValenceElectrons>  (47) 
60

>  <NumRadicalElectrons>  (47) 
0

>  <MaxPartialCharge>  (47) 
0.127298

>  <MinPartialCharge>  (47) 
-0.496241

>  <MaxAbsPartialCharge>  (47) 
0.496241

>  <MinAbsPartialCharge>  (47) 
0.127298

>  <FpDensityMorgan1>  (47) 
1.545455

>  <FpDensityMorgan2>  (47) 
2.272727

>  <FpDensityMorgan3>  (47) 
2.818182

>  <BCUT2D_MWHI>  (47) 
35.495691

>  <BCUT2D_MWLOW>  (47) 
10.18059

>  <BCUT2D_CHGHI>  (47) 
2.013718

>  <BCUT2D_CHGLO>  (47) 
-2.034737

>  <BCUT2D_LOGPHI>  (47) 
2.206485

>  <BCUT2D_LOGPLOW>  (47) 
-2.47097

>  <BCUT2D_MRHI>  (47) 
6.302091

>  <BCUT2D_MRLOW>  (47) 
-0.386131

>  <AvgIpc>  (47) 
2.041531

>  <BalabanJ>  (47) 
3.057989

>  <BertzCT>  (47) 
249.847416

>  <Chi0>  (47) 
8.267585

>  <Chi0n>  (47) 
6.432477

>  <Chi0v>  (47) 
7.188406

>  <Chi1>  (47) 
5.274387

>  <Chi1n>  (47) 
3.392942

>  <Chi1v>  (47) 
3.770906

>  <Chi2n>  (47) 
2.206169

>  <Chi2v>  (47) 
2.642605

>  <Chi3n>  (47) 
1.511786

>  <Chi3v>  (47) 
1.746883

>  <Chi4n>  (47) 
0.942527

>  <Chi4v>  (47) 
1.137227

>  <HallKierAlpha>  (47) 
-0.73

>  <Ipc>  (47) 
336.852662

>  <Kappa1>  (47) 
8.367371

>  <Kappa2>  (47) 
3.600385

>  <Kappa3>  (47) 
1.850859

>  <LabuteASA>  (47) 
70.91799

>  <PEOE_VSA1>  (47) 
10.47053

>  <PEOE_VSA10>  (47) 
12.294268

>  <PEOE_VSA11>  (47) 
0.0

>  <PEOE_VSA12>  (47) 
0.0

>  <PEOE_VSA13>  (47) 
0.0

>  <PEOE_VSA14>  (47) 
0.0

>  <PEOE_VSA2>  (47) 
0.0

>  <PEOE_VSA3>  (47) 
0.0

>  <PEOE_VSA4>  (47) 
0.0

>  <PEOE_VSA5>  (47) 
0.0

>  <PEOE_VSA6>  (47) 
11.60094

>  <PEOE_VSA7>  (47) 
18.199101

>  <PEOE_VSA8>  (47) 
10.586085

>  <PEOE_VSA9>  (47) 
7.109798

>  <SMR_VSA1>  (47) 
10.47053

>  <SMR_VSA10>  (47) 
11.60094

>  <SMR_VSA2>  (47) 
0.0

>  <SMR_VSA3>  (47) 
0.0

>  <SMR_VSA4>  (47) 
0.0

>  <SMR_VSA5>  (47) 
6.544756

>  <SMR_VSA6>  (47) 
7.109798

>  <SMR_VSA7>  (47) 
28.785186

>  <SMR_VSA8>  (47) 
0.0

>  <SMR_VSA9>  (47) 
5.749512

>  <SlogP_VSA1>  (47) 
10.47053

>  <SlogP_VSA10>  (47) 
0.0

>  <SlogP_VSA11>  (47) 
5.749512

>  <SlogP_VSA12>  (47) 
11.60094

>  <SlogP_VSA2>  (47) 
7.109798

>  <SlogP_VSA3>  (47) 
6.544756

>  <SlogP_VSA4>  (47) 
0.0

>  <SlogP_VSA5>  (47) 
5.563451

>  <SlogP_VSA6>  (47) 
18.199101

>  <SlogP_VSA7>  (47) 
5.022633

>  <SlogP_VSA8>  (47) 
0.0

>  <SlogP_VSA9>  (47) 
0.0

>  <EState_VSA1>  (47) 
0.0

>  <EState_VSA10>  (47) 
0.0

>  <EState_VSA11>  (47) 
0.0

>  <EState_VSA2>  (47) 
0.0

>  <EState_VSA3>  (47) 
6.544756

>  <EState_VSA4>  (47) 
16.335597

>  <EState_VSA5>  (47) 
0.0

>  <EState_VSA6>  (47) 
13.176165

>  <EState_VSA7>  (47) 
12.132734

>  <EState_VSA8>  (47) 
5.733667

>  <EState_VSA9>  (47) 
16.337803

>  <VSA_EState1>  (47) 
5.092562

>  <VSA_EState10>  (47) 
5.769226

>  <VSA_EState2>  (47) 
0.0

>  <VSA_EState3>  (47) 
0.726343

>  <VSA_EState4>  (47) 
4.808673

>  <VSA_EState5>  (47) 
0.851296

>  <VSA_EState6>  (47) 
5.523596

>  <VSA_EState7>  (47) 
0.0

>  <VSA_EState8>  (47) 
0.698148

>  <VSA_EState9>  (47) 
1.641268

>  <FractionCSP3>  (47) 
0.25

>  <HeavyAtomCount>  (47) 
11

>  <NHOHCount>  (47) 
3

>  <NOCount>  (47) 
2

>  <NumAliphaticCarbocycles>  (47) 
0

>  <NumAliphaticHeterocycles>  (47) 
0

>  <NumAliphaticRings>  (47) 
0

>  <NumAromaticCarbocycles>  (47) 
1

>  <NumAromaticHeterocycles>  (47) 
0

>  <NumAromaticRings>  (47) 
1

>  <NumHAcceptors>  (47) 
1

>  <NumHDonors>  (47) 
1

>  <NumHeteroatoms>  (47) 
3

>  <NumRotatableBonds>  (47) 
2

>  <NumSaturatedCarbocycles>  (47) 
0

>  <NumSaturatedHeterocycles>  (47) 
0

>  <NumSaturatedRings>  (47) 
0

>  <RingCount>  (47) 
1

>  <MolLogP>  (47) 
1.0905

>  <MolMR>  (47) 
44.5961

>  <fr_Al_COO>  (47) 
0

>  <fr_Al_OH>  (47) 
0

>  <fr_Al_OH_noTert>  (47) 
0

>  <fr_ArN>  (47) 
0

>  <fr_Ar_COO>  (47) 
0

>  <fr_Ar_N>  (47) 
0

>  <fr_Ar_NH>  (47) 
0

>  <fr_Ar_OH>  (47) 
0

>  <fr_COO>  (47) 
0

>  <fr_COO2>  (47) 
0

>  <fr_C_O>  (47) 
0

>  <fr_C_O_noCOO>  (47) 
0

>  <fr_C_S>  (47) 
0

>  <fr_HOCCN>  (47) 
0

>  <fr_Imine>  (47) 
0

>  <fr_NH0>  (47) 
0

>  <fr_NH1>  (47) 
0

>  <fr_NH2>  (47) 
0

>  <fr_N_O>  (47) 
0

>  <fr_Ndealkylation1>  (47) 
0

>  <fr_Ndealkylation2>  (47) 
0

>  <fr_Nhpyrrole>  (47) 
0

>  <fr_SH>  (47) 
0

>  <fr_aldehyde>  (47) 
0

>  <fr_alkyl_carbamate>  (47) 
0

>  <fr_alkyl_halide>  (47) 
0

>  <fr_allylic_oxid>  (47) 
0

>  <fr_amide>  (47) 
0

>  <fr_amidine>  (47) 
0

>  <fr_aniline>  (47) 
0

>  <fr_aryl_methyl>  (47) 
0

>  <fr_azide>  (47) 
0

>  <fr_azo>  (47) 
0

>  <fr_barbitur>  (47) 
0

>  <fr_benzene>  (47) 
1

>  <fr_benzodiazepine>  (47) 
0

>  <fr_bicyclic>  (47) 
0

>  <fr_diazo>  (47) 
0

>  <fr_dihydropyridine>  (47) 
0

>  <fr_epoxide>  (47) 
0

>  <fr_ester>  (47) 
0

>  <fr_ether>  (47) 
1

>  <fr_furan>  (47) 
0

>  <fr_guanido>  (47) 
0

>  <fr_halogen>  (47) 
1

>  <fr_hdrzine>  (47) 
0

>  <fr_hdrzone>  (47) 
0

>  <fr_imidazole>  (47) 
0

>  <fr_imide>  (47) 
0

>  <fr_isocyan>  (47) 
0

>  <fr_isothiocyan>  (47) 
0

>  <fr_ketone>  (47) 
0

>  <fr_ketone_Topliss>  (47) 
0

>  <fr_lactam>  (47) 
0

>  <fr_lactone>  (47) 
0

>  <fr_methoxy>  (47) 
1

>  <fr_morpholine>  (47) 
0

>  <fr_nitrile>  (47) 
0

>  <fr_nitro>  (47) 
0

>  <fr_nitro_arom>  (47) 
0

>  <fr_nitro_arom_nonortho>  (47) 
0

>  <fr_nitroso>  (47) 
0

>  <fr_oxazole>  (47) 
0

>  <fr_oxime>  (47) 
0

>  <fr_para_hydroxylation>  (47) 
0

>  <fr_phenol>  (47) 
0

>  <fr_phenol_noOrthoHbond>  (47) 
0

>  <fr_phos_acid>  (47) 
0

>  <fr_phos_ester>  (47) 
0

>  <fr_piperdine>  (47) 
0

>  <fr_piperzine>  (47) 
0

>  <fr_priamide>  (47) 
0

>  <fr_prisulfonamd>  (47) 
0

>  <fr_pyridine>  (47) 
0

>  <fr_quatN>  (47) 
1

>  <fr_sulfide>  (47) 
0

>  <fr_sulfonamd>  (47) 
0

>  <fr_sulfone>  (47) 
0

>  <fr_term_acetylene>  (47) 
0

>  <fr_tetrazole>  (47) 
0

>  <fr_thiazole>  (47) 
0

>  <fr_thiocyan>  (47) 
0

>  <fr_thiophene>  (47) 
0

>  <fr_unbrch_alkane>  (47) 
0

>  <fr_urea>  (47) 
0

>  <NP_Likeness>  (47) 
-0.899239

$$$$
7QF
     RDKit          3D

  0  0  0  0  0  0  0  0  0  0999 V3000
M  V30 BEGIN CTAB
M  V30 COUNTS 39 41 0 0 0
M  V30 BEGIN ATOM
M  V30 1 O 10.108000 -23.128000 -30.670000 0
M  V30 2 N 17.365000 -26.696000 -23.699000 0
M  V30 3 N 17.547000 -23.084000 -23.738000 0
M  V30 4 N 9.721000 -22.158000 -27.927000 0 CHG=1
M  V30 5 C 8.825000 -22.833000 -30.091000 0
M  V30 6 C 16.920000 -25.824000 -24.261000 0
M  V30 7 C 8.834000 -23.103000 -28.610000 0
M  V30 8 C 12.388000 -26.085000 -28.937000 0
M  V30 9 C 10.630000 -21.556000 -28.906000 0
M  V30 10 C 11.614000 -25.077000 -29.487000 0
M  V30 11 C 13.403000 -25.772000 -28.047000 0
M  V30 12 C 15.937000 -22.436000 -25.444000 0
M  V30 13 C 14.983000 -22.768000 -26.390000 0
M  V30 14 C 15.370000 -25.094000 -25.988000 0
M  V30 15 C 12.830000 -23.449000 -28.222000 0
M  V30 16 C 11.169000 -22.603000 -29.861000 0 CFG=1
M  V30 17 C 16.613000 -23.419000 -24.713000 0
M  V30 18 C 16.301000 -24.766000 -25.008000 0
M  V30 19 C 11.850000 -23.749000 -29.156000 0
M  V30 20 C 13.631000 -24.450000 -27.668000 0
M  V30 21 C 14.675000 -24.100000 -26.675000 0
M  V30 22 H 18.017800 -23.804000 -23.228200 0
M  V30 23 H 17.747600 -22.123100 -23.546900 0
M  V30 24 H 10.251800 -22.641100 -27.230700 0
M  V30 25 H 8.129700 -23.406000 -30.524800 0
M  V30 26 H 8.608100 -21.869500 -30.247600 0
M  V30 27 H 7.906100 -23.003300 -28.250700 0
M  V30 28 H 9.156400 -24.035400 -28.446500 0
M  V30 29 H 12.214500 -27.038800 -29.182100 0
M  V30 30 H 11.394600 -21.128900 -28.423200 0
M  V30 31 H 10.135300 -20.861000 -29.427700 0
M  V30 32 H 10.880400 -25.306800 -30.126600 0
M  V30 33 H 13.976900 -26.500800 -27.673400 0
M  V30 34 H 16.147800 -21.472400 -25.279300 0
M  V30 35 H 14.504400 -22.039100 -26.879500 0
M  V30 36 H 15.197000 -26.055300 -26.202500 0
M  V30 37 H 12.965600 -22.499200 -27.940100 0
M  V30 38 H 11.835700 -22.164500 -30.463700 0
M  V30 39 H 9.175300 -21.441400 -27.492500 0
M  V30 END ATOM
M  V30 BEGIN BOND
M  V30 1 1 1 5
M  V30 2 1 1 16
M  V30 3 3 2 6
M  V30 4 1 3 17
M  V30 5 1 4 7
M  V30 6 1 4 9
M  V30 7 1 5 7
M  V30 8 1 6 18
M  V30 9 2 8 10
M  V30 10 1 8 11
M  V30 11 1 9 16
M  V30 12 1 10 19
M  V30 13 2 11 20
M  V30 14 2 12 13
M  V30 15 1 12 17
M  V30 16 1 13 21
M  V30 17 1 14 18
M  V30 18 2 14 21
M  V30 19 2 15 19
M  V30 20 1 15 20
M  V30 21 1 16 19
M  V30 22 2 17 18
M  V30 23 1 20 21
M  V30 24 1 3 22
M  V30 25 1 3 23
M  V30 26 1 4 24
M  V30 27 1 5 25
M  V30 28 1 5 26
M  V30 29 1 7 27
M  V30 30 1 7 28
M  V30 31 1 8 29
M  V30 32 1 9 30
M  V30 33 1 9 31
M  V30 34 1 10 32
M  V30 35 1 11 33
M  V30 36 1 12 34
M  V30 37 1 13 35
M  V30 38 1 14 36
M  V30 39 1 15 37
M  V30 40 1 16 38 CFG=3
M  V30 41 1 4 39
M  V30 END BOND
M  V30 END CTAB
M  END
>  <Ligand_Instance>  (48) 
7PIE_7QF_A_401

>  <Dataset>  (48) 
PDB

>  <PDB_ID>  (48) 
7PIE

>  <Chain>  (48) 
A

>  <Resi>  (48) 
401

>  <Num_Resolved_Atoms>  (48) 
21

>  <Num_H_Atoms_ProtBoundConf>  (48) 
18

>  <Pocket>  (48) 
A

>  <Name>  (48) 
2-azanyl-5-[3-[(2R)-morpholin-2-yl]phenyl]benzenecarbonitrile

>  <Num_Not_Resolved_Atoms>  (48) 
0

>  <ATP_Site>  (48) 
True

>  <Peripheral>  (48) 
False

>  <Standardized_SMILES>  (48) 
[H]C1=C([H])C([C@@]2([H])OC([H])([H])C([H])([H])[N+]([H])([H])C2([H])[H])=C([H])C(C2=C([H])C([H])=C(N([H])[H])C(C#N)=C2[H])=C1[H]

>  <2D_Mol_H>  (48) 
<rdkit.Chem.rdchem.Mol object at 0x77059d9e4b30>

>  <MW>  (48) 
280.351

>  <HBA>  (48) 
3

>  <HBD>  (48) 
2

>  <LogP>  (48) 
1.44218

>  <NRB>  (48) 
3

>  <TPSA>  (48) 
75.65

>  <Num_Heavy_Atoms>  (48) 
21

>  <Ro5>  (48) 
[True, True, True, True, True, True]

>  <Ro5_Fulfilled>  (48) 
True

>  <Ro3>  (48) 
[True, True, True, True]

>  <Ro3_Fulfilled>  (48) 
True

>  <Fsp3>  (48) 
0.235294

>  <Fsp3_0.42>  (48) 
False

>  <Fsp3_0.45>  (48) 
False

>  <Stereogenic_Carbons>  (48) 
1

>  <C_Atoms>  (48) 
17

>  <FCStereo>  (48) 
0.058824

>  <SPS>  (48) 
381

>  <nSPS>  (48) 
18.142857

>  <PBF>  (48) 
0.647184

>  <PBF_0.6>  (48) 
True

>  <nPBF>  (48) 
0.030818

>  <nPBF_0.016>  (48) 
True

>  <PMI1>  (48) 
633.782492

>  <PMI2>  (48) 
3730.411969

>  <PMI3>  (48) 
4103.000517

>  <NPR1>  (48) 
0.154468

>  <NPR2>  (48) 
0.909191

>  <Sum_NPR>  (48) 
1.063659

>  <Sum_NPR_1.07>  (48) 
False

>  <Sum_NPR_1.2>  (48) 
False

>  <MaxAbsEStateIndex>  (48) 
9.094097

>  <MaxEStateIndex>  (48) 
9.094097

>  <MinAbsEStateIndex>  (48) 
0.141592

>  <MinEStateIndex>  (48) 
0.141592

>  <qed>  (48) 
0.817356

>  <MolWt>  (48) 
280.351

>  <HeavyAtomMolWt>  (48) 
262.207

>  <ExactMolWt>  (48) 
280.144439

>  <NumValenceElectrons>  (48) 
106

>  <NumRadicalElectrons>  (48) 
0

>  <MaxPartialCharge>  (48) 
0.131497

>  <MinPartialCharge>  (48) 
-0.397657

>  <MaxAbsPartialCharge>  (48) 
0.397657

>  <MinAbsPartialCharge>  (48) 
0.131497

>  <FpDensityMorgan1>  (48) 
1.190476

>  <FpDensityMorgan2>  (48) 
2.047619

>  <FpDensityMorgan3>  (48) 
2.809524

>  <BCUT2D_MWHI>  (48) 
16.489739

>  <BCUT2D_MWLOW>  (48) 
9.981944

>  <BCUT2D_CHGHI>  (48) 
2.182511

>  <BCUT2D_CHGLO>  (48) 
-2.214054

>  <BCUT2D_LOGPHI>  (48) 
2.266725

>  <BCUT2D_LOGPLOW>  (48) 
-2.877308

>  <BCUT2D_MRHI>  (48) 
5.699731

>  <BCUT2D_MRLOW>  (48) 
-0.678099

>  <AvgIpc>  (48) 
2.561012

>  <BalabanJ>  (48) 
1.938652

>  <BertzCT>  (48) 
684.674843

>  <Chi0>  (48) 
14.65649

>  <Chi0n>  (48) 
11.750285

>  <Chi0v>  (48) 
11.750285

>  <Chi1>  (48) 
10.275188

>  <Chi1n>  (48) 
7.10948

>  <Chi1v>  (48) 
7.10948

>  <Chi2n>  (48) 
5.211781

>  <Chi2v>  (48) 
5.211781

>  <Chi3n>  (48) 
3.787245

>  <Chi3v>  (48) 
3.787245

>  <Chi4n>  (48) 
2.614382

>  <Chi4v>  (48) 
2.614382

>  <HallKierAlpha>  (48) 
-2.35

>  <Ipc>  (48) 
95658.9208

>  <Kappa1>  (48) 
13.624737

>  <Kappa2>  (48) 
5.961066

>  <Kappa3>  (48) 
2.893839

>  <LabuteASA>  (48) 
123.703255

>  <PEOE_VSA1>  (48) 
15.787319

>  <PEOE_VSA10>  (48) 
18.717944

>  <PEOE_VSA11>  (48) 
0.0

>  <PEOE_VSA12>  (48) 
0.0

>  <PEOE_VSA13>  (48) 
0.0

>  <PEOE_VSA14>  (48) 
0.0

>  <PEOE_VSA2>  (48) 
0.0

>  <PEOE_VSA3>  (48) 
0.0

>  <PEOE_VSA4>  (48) 
5.261892

>  <PEOE_VSA5>  (48) 
0.0

>  <PEOE_VSA6>  (48) 
24.265468

>  <PEOE_VSA7>  (48) 
34.889456

>  <PEOE_VSA8>  (48) 
5.687386

>  <PEOE_VSA9>  (48) 
18.71509

>  <SMR_VSA1>  (48) 
10.053652

>  <SMR_VSA10>  (48) 
5.687386

>  <SMR_VSA2>  (48) 
5.261892

>  <SMR_VSA3>  (48) 
0.0

>  <SMR_VSA4>  (48) 
0.0

>  <SMR_VSA5>  (48) 
6.103966

>  <SMR_VSA6>  (48) 
25.430062

>  <SMR_VSA7>  (48) 
53.591472

>  <SMR_VSA8>  (48) 
0.0

>  <SMR_VSA9>  (48) 
17.196124

>  <SlogP_VSA1>  (48) 
11.050456

>  <SlogP_VSA10>  (48) 
5.687386

>  <SlogP_VSA11>  (48) 
0.0

>  <SlogP_VSA12>  (48) 
0.0

>  <SlogP_VSA2>  (48) 
19.696395

>  <SlogP_VSA3>  (48) 
4.736863

>  <SlogP_VSA4>  (48) 
11.331113

>  <SlogP_VSA5>  (48) 
17.230869

>  <SlogP_VSA6>  (48) 
42.464569

>  <SlogP_VSA7>  (48) 
0.0

>  <SlogP_VSA8>  (48) 
11.126903

>  <SlogP_VSA9>  (48) 
0.0

>  <EState_VSA1>  (48) 
0.0

>  <EState_VSA10>  (48) 
0.0

>  <EState_VSA11>  (48) 
0.0

>  <EState_VSA2>  (48) 
6.103966

>  <EState_VSA3>  (48) 
11.250838

>  <EState_VSA4>  (48) 
30.823298

>  <EState_VSA5>  (48) 
5.563451

>  <EState_VSA6>  (48) 
6.066367

>  <EState_VSA7>  (48) 
24.265468

>  <EState_VSA8>  (48) 
23.518744

>  <EState_VSA9>  (48) 
15.732422

>  <VSA_EState1>  (48) 
5.815278

>  <VSA_EState10>  (48) 
0.0

>  <VSA_EState2>  (48) 
0.0

>  <VSA_EState3>  (48) 
11.369734

>  <VSA_EState4>  (48) 
10.071845

>  <VSA_EState5>  (48) 
0.0

>  <VSA_EState6>  (48) 
16.000695

>  <VSA_EState7>  (48) 
0.141592

>  <VSA_EState8>  (48) 
2.767524

>  <VSA_EState9>  (48) 
0.0

>  <FractionCSP3>  (48) 
0.235294

>  <HeavyAtomCount>  (48) 
21

>  <NHOHCount>  (48) 
4

>  <NOCount>  (48) 
4

>  <NumAliphaticCarbocycles>  (48) 
0

>  <NumAliphaticHeterocycles>  (48) 
1

>  <NumAliphaticRings>  (48) 
1

>  <NumAromaticCarbocycles>  (48) 
2

>  <NumAromaticHeterocycles>  (48) 
0

>  <NumAromaticRings>  (48) 
2

>  <NumHAcceptors>  (48) 
3

>  <NumHDonors>  (48) 
2

>  <NumHeteroatoms>  (48) 
4

>  <NumRotatableBonds>  (48) 
2

>  <NumSaturatedCarbocycles>  (48) 
0

>  <NumSaturatedHeterocycles>  (48) 
1

>  <NumSaturatedRings>  (48) 
1

>  <RingCount>  (48) 
3

>  <MolLogP>  (48) 
1.44218

>  <MolMR>  (48) 
81.3578

>  <fr_Al_COO>  (48) 
0

>  <fr_Al_OH>  (48) 
0

>  <fr_Al_OH_noTert>  (48) 
0

>  <fr_ArN>  (48) 
1

>  <fr_Ar_COO>  (48) 
0

>  <fr_Ar_N>  (48) 
0

>  <fr_Ar_NH>  (48) 
0

>  <fr_Ar_OH>  (48) 
0

>  <fr_COO>  (48) 
0

>  <fr_COO2>  (48) 
0

>  <fr_C_O>  (48) 
0

>  <fr_C_O_noCOO>  (48) 
0

>  <fr_C_S>  (48) 
0

>  <fr_HOCCN>  (48) 
0

>  <fr_Imine>  (48) 
0

>  <fr_NH0>  (48) 
1

>  <fr_NH1>  (48) 
0

>  <fr_NH2>  (48) 
2

>  <fr_N_O>  (48) 
0

>  <fr_Ndealkylation1>  (48) 
0

>  <fr_Ndealkylation2>  (48) 
0

>  <fr_Nhpyrrole>  (48) 
0

>  <fr_SH>  (48) 
0

>  <fr_aldehyde>  (48) 
0

>  <fr_alkyl_carbamate>  (48) 
0

>  <fr_alkyl_halide>  (48) 
0

>  <fr_allylic_oxid>  (48) 
0

>  <fr_amide>  (48) 
0

>  <fr_amidine>  (48) 
0

>  <fr_aniline>  (48) 
1

>  <fr_aryl_methyl>  (48) 
0

>  <fr_azide>  (48) 
0

>  <fr_azo>  (48) 
0

>  <fr_barbitur>  (48) 
0

>  <fr_benzene>  (48) 
2

>  <fr_benzodiazepine>  (48) 
0

>  <fr_bicyclic>  (48) 
0

>  <fr_diazo>  (48) 
0

>  <fr_dihydropyridine>  (48) 
0

>  <fr_epoxide>  (48) 
0

>  <fr_ester>  (48) 
0

>  <fr_ether>  (48) 
1

>  <fr_furan>  (48) 
0

>  <fr_guanido>  (48) 
0

>  <fr_halogen>  (48) 
0

>  <fr_hdrzine>  (48) 
0

>  <fr_hdrzone>  (48) 
0

>  <fr_imidazole>  (48) 
0

>  <fr_imide>  (48) 
0

>  <fr_isocyan>  (48) 
0

>  <fr_isothiocyan>  (48) 
0

>  <fr_ketone>  (48) 
0

>  <fr_ketone_Topliss>  (48) 
0

>  <fr_lactam>  (48) 
0

>  <fr_lactone>  (48) 
0

>  <fr_methoxy>  (48) 
0

>  <fr_morpholine>  (48) 
1

>  <fr_nitrile>  (48) 
1

>  <fr_nitro>  (48) 
0

>  <fr_nitro_arom>  (48) 
0

>  <fr_nitro_arom_nonortho>  (48) 
0

>  <fr_nitroso>  (48) 
0

>  <fr_oxazole>  (48) 
0

>  <fr_oxime>  (48) 
0

>  <fr_para_hydroxylation>  (48) 
0

>  <fr_phenol>  (48) 
0

>  <fr_phenol_noOrthoHbond>  (48) 
0

>  <fr_phos_acid>  (48) 
0

>  <fr_phos_ester>  (48) 
0

>  <fr_piperdine>  (48) 
0

>  <fr_piperzine>  (48) 
0

>  <fr_priamide>  (48) 
0

>  <fr_prisulfonamd>  (48) 
0

>  <fr_pyridine>  (48) 
0

>  <fr_quatN>  (48) 
1

>  <fr_sulfide>  (48) 
0

>  <fr_sulfonamd>  (48) 
0

>  <fr_sulfone>  (48) 
0

>  <fr_term_acetylene>  (48) 
0

>  <fr_tetrazole>  (48) 
0

>  <fr_thiazole>  (48) 
0

>  <fr_thiocyan>  (48) 
0

>  <fr_thiophene>  (48) 
0

>  <fr_unbrch_alkane>  (48) 
0

>  <fr_urea>  (48) 
0

>  <NP_Likeness>  (48) 
-0.509778

$$$$
7QI
     RDKit          3D

  0  0  0  0  0  0  0  0  0  0999 V3000
M  V30 BEGIN CTAB
M  V30 COUNTS 39 41 0 0 0
M  V30 BEGIN ATOM
M  V30 1 O 9.301000 -22.217000 -30.232000 0
M  V30 2 N 17.381000 -26.867000 -23.702000 0
M  V30 3 N 17.208000 -23.267000 -23.879000 0
M  V30 4 N 9.374000 -24.220000 -28.241000 0 CHG=1
M  V30 5 C 8.168000 -23.046000 -29.989000 0
M  V30 6 C 10.510000 -22.913000 -29.922000 0
M  V30 7 C 16.861000 -26.063000 -24.308000 0
M  V30 8 C 8.122000 -23.528000 -28.569000 0
M  V30 9 C 13.054000 -26.855000 -29.534000 0
M  V30 10 C 11.857000 -26.210000 -29.789000 0
M  V30 11 C 13.939000 -26.333000 -28.607000 0
M  V30 12 C 15.602000 -22.827000 -25.656000 0
M  V30 13 C 14.721000 -23.283000 -26.623000 0
M  V30 14 C 15.309000 -25.545000 -26.111000 0
M  V30 15 C 12.436000 -24.505000 -28.204000 0
M  V30 16 C 16.356000 -23.716000 -24.875000 0
M  V30 17 C 10.230000 -24.321000 -29.440000 0 CFG=1
M  V30 18 C 16.183000 -25.097000 -25.123000 0
M  V30 19 C 11.538000 -25.031000 -29.134000 0
M  V30 20 C 13.638000 -25.158000 -27.918000 0
M  V30 21 C 14.558000 -24.648000 -26.867000 0
M  V30 22 H 17.733600 -23.923000 -23.337400 0
M  V30 23 H 17.297300 -22.286900 -23.701700 0
M  V30 24 H 9.165600 -25.138700 -27.905600 0
M  V30 25 H 8.210300 -23.838000 -30.598100 0
M  V30 26 H 7.337500 -22.522600 -30.179900 0
M  V30 27 H 10.997400 -22.414700 -29.205000 0
M  V30 28 H 11.079300 -22.957500 -30.742900 0
M  V30 29 H 8.003700 -22.746600 -27.956300 0
M  V30 30 H 7.354200 -24.158800 -28.456700 0
M  V30 31 H 13.279900 -27.699200 -30.020000 0
M  V30 32 H 11.216400 -26.597800 -30.451700 0
M  V30 33 H 14.803500 -26.803100 -28.429200 0
M  V30 34 H 15.702800 -21.842700 -25.511400 0
M  V30 35 H 14.192200 -22.622500 -27.156000 0
M  V30 36 H 15.219300 -26.526500 -26.280200 0
M  V30 37 H 12.216300 -23.649100 -27.735900 0
M  V30 38 H 9.741000 -24.823000 -30.153400 0
M  V30 39 H 9.858300 -23.708100 -27.531500 0
M  V30 END ATOM
M  V30 BEGIN BOND
M  V30 1 1 1 5
M  V30 2 1 1 6
M  V30 3 3 2 7
M  V30 4 1 3 16
M  V30 5 1 4 8
M  V30 6 1 4 17
M  V30 7 1 5 8
M  V30 8 1 6 17
M  V30 9 1 7 18
M  V30 10 2 9 10
M  V30 11 1 9 11
M  V30 12 1 10 19
M  V30 13 2 11 20
M  V30 14 2 12 13
M  V30 15 1 12 16
M  V30 16 1 13 21
M  V30 17 1 14 18
M  V30 18 2 14 21
M  V30 19 2 15 19
M  V30 20 1 15 20
M  V30 21 2 16 18
M  V30 22 1 17 19
M  V30 23 1 20 21
M  V30 24 1 3 22
M  V30 25 1 3 23
M  V30 26 1 4 24
M  V30 27 1 5 25
M  V30 28 1 5 26
M  V30 29 1 6 27
M  V30 30 1 6 28
M  V30 31 1 8 29
M  V30 32 1 8 30
M  V30 33 1 9 31
M  V30 34 1 10 32
M  V30 35 1 11 33
M  V30 36 1 12 34
M  V30 37 1 13 35
M  V30 38 1 14 36
M  V30 39 1 15 37
M  V30 40 1 17 38 CFG=3
M  V30 41 1 4 39
M  V30 END BOND
M  V30 END CTAB
M  END
>  <Ligand_Instance>  (49) 
7PID_7QI_A_401

>  <Dataset>  (49) 
PDB

>  <PDB_ID>  (49) 
7PID

>  <Chain>  (49) 
A

>  <Resi>  (49) 
401

>  <Num_Resolved_Atoms>  (49) 
21

>  <Num_H_Atoms_ProtBoundConf>  (49) 
18

>  <Pocket>  (49) 
A

>  <Name>  (49) 
2-azanyl-5-[3-[(3R)-morpholin-3-yl]phenyl]benzenecarbonitrile

>  <Num_Not_Resolved_Atoms>  (49) 
0

>  <ATP_Site>  (49) 
True

>  <Peripheral>  (49) 
False

>  <Standardized_SMILES>  (49) 
[H]C1=C([H])C([C@]2([H])C([H])([H])OC([H])([H])C([H])([H])[N+]2([H])[H])=C([H])C(C2=C([H])C([H])=C(N([H])[H])C(C#N)=C2[H])=C1[H]

>  <2D_Mol_H>  (49) 
<rdkit.Chem.rdchem.Mol object at 0x77059d9e4c10>

>  <MW>  (49) 
280.351

>  <HBA>  (49) 
3

>  <HBD>  (49) 
2

>  <LogP>  (49) 
1.44218

>  <NRB>  (49) 
3

>  <TPSA>  (49) 
75.65

>  <Num_Heavy_Atoms>  (49) 
21

>  <Ro5>  (49) 
[True, True, True, True, True, True]

>  <Ro5_Fulfilled>  (49) 
True

>  <Ro3>  (49) 
[True, True, True, True]

>  <Ro3_Fulfilled>  (49) 
True

>  <Fsp3>  (49) 
0.235294

>  <Fsp3_0.42>  (49) 
False

>  <Fsp3_0.45>  (49) 
False

>  <Stereogenic_Carbons>  (49) 
1

>  <C_Atoms>  (49) 
17

>  <FCStereo>  (49) 
0.058824

>  <SPS>  (49) 
381

>  <nSPS>  (49) 
18.142857

>  <PBF>  (49) 
0.710112

>  <PBF_0.6>  (49) 
True

>  <nPBF>  (49) 
0.033815

>  <nPBF_0.016>  (49) 
True

>  <PMI1>  (49) 
723.558416

>  <PMI2>  (49) 
3910.174477

>  <PMI3>  (49) 
4304.676346

>  <NPR1>  (49) 
0.168087

>  <NPR2>  (49) 
0.908355

>  <Sum_NPR>  (49) 
1.076442

>  <Sum_NPR_1.07>  (49) 
True

>  <Sum_NPR_1.2>  (49) 
False

>  <MaxAbsEStateIndex>  (49) 
9.0967

>  <MaxEStateIndex>  (49) 
9.0967

>  <MinAbsEStateIndex>  (49) 
0.349925

>  <MinEStateIndex>  (49) 
0.349925

>  <qed>  (49) 
0.817356

>  <MolWt>  (49) 
280.351

>  <HeavyAtomMolWt>  (49) 
262.207

>  <ExactMolWt>  (49) 
280.144439

>  <NumValenceElectrons>  (49) 
106

>  <NumRadicalElectrons>  (49) 
0

>  <MaxPartialCharge>  (49) 
0.135275

>  <MinPartialCharge>  (49) 
-0.397657

>  <MaxAbsPartialCharge>  (49) 
0.397657

>  <MinAbsPartialCharge>  (49) 
0.135275

>  <FpDensityMorgan1>  (49) 
1.190476

>  <FpDensityMorgan2>  (49) 
2.047619

>  <FpDensityMorgan3>  (49) 
2.809524

>  <BCUT2D_MWHI>  (49) 
16.477763

>  <BCUT2D_MWLOW>  (49) 
9.975889

>  <BCUT2D_CHGHI>  (49) 
2.187835

>  <BCUT2D_CHGLO>  (49) 
-2.209274

>  <BCUT2D_LOGPHI>  (49) 
2.253817

>  <BCUT2D_LOGPLOW>  (49) 
-2.884408

>  <BCUT2D_MRHI>  (49) 
5.69959

>  <BCUT2D_MRLOW>  (49) 
-0.711291

>  <AvgIpc>  (49) 
2.561012

>  <BalabanJ>  (49) 
1.938652

>  <BertzCT>  (49) 
684.674843

>  <Chi0>  (49) 
14.65649

>  <Chi0n>  (49) 
11.750285

>  <Chi0v>  (49) 
11.750285

>  <Chi1>  (49) 
10.275188

>  <Chi1n>  (49) 
7.087538

>  <Chi1v>  (49) 
7.087538

>  <Chi2n>  (49) 
5.245081

>  <Chi2v>  (49) 
5.245081

>  <Chi3n>  (49) 
3.832641

>  <Chi3v>  (49) 
3.832641

>  <Chi4n>  (49) 
2.644746

>  <Chi4v>  (49) 
2.644746

>  <HallKierAlpha>  (49) 
-2.35

>  <Ipc>  (49) 
95658.9208

>  <Kappa1>  (49) 
13.624737

>  <Kappa2>  (49) 
5.961066

>  <Kappa3>  (49) 
2.893839

>  <LabuteASA>  (49) 
123.703255

>  <PEOE_VSA1>  (49) 
15.787319

>  <PEOE_VSA10>  (49) 
18.717944

>  <PEOE_VSA11>  (49) 
0.0

>  <PEOE_VSA12>  (49) 
0.0

>  <PEOE_VSA13>  (49) 
0.0

>  <PEOE_VSA14>  (49) 
0.0

>  <PEOE_VSA2>  (49) 
0.0

>  <PEOE_VSA3>  (49) 
0.0

>  <PEOE_VSA4>  (49) 
5.261892

>  <PEOE_VSA5>  (49) 
0.0

>  <PEOE_VSA6>  (49) 
24.265468

>  <PEOE_VSA7>  (49) 
29.326004

>  <PEOE_VSA8>  (49) 
11.250838

>  <PEOE_VSA9>  (49) 
18.71509

>  <SMR_VSA1>  (49) 
10.053652

>  <SMR_VSA10>  (49) 
5.687386

>  <SMR_VSA2>  (49) 
5.261892

>  <SMR_VSA3>  (49) 
0.0

>  <SMR_VSA4>  (49) 
0.0

>  <SMR_VSA5>  (49) 
6.041841

>  <SMR_VSA6>  (49) 
25.492188

>  <SMR_VSA7>  (49) 
53.591472

>  <SMR_VSA8>  (49) 
0.0

>  <SMR_VSA9>  (49) 
17.196124

>  <SlogP_VSA1>  (49) 
11.050456

>  <SlogP_VSA10>  (49) 
5.687386

>  <SlogP_VSA11>  (49) 
0.0

>  <SlogP_VSA12>  (49) 
0.0

>  <SlogP_VSA2>  (49) 
19.75852

>  <SlogP_VSA3>  (49) 
4.736863

>  <SlogP_VSA4>  (49) 
11.331113

>  <SlogP_VSA5>  (49) 
17.168744

>  <SlogP_VSA6>  (49) 
42.464569

>  <SlogP_VSA7>  (49) 
0.0

>  <SlogP_VSA8>  (49) 
11.126903

>  <SlogP_VSA9>  (49) 
0.0

>  <EState_VSA1>  (49) 
0.0

>  <EState_VSA10>  (49) 
0.0

>  <EState_VSA11>  (49) 
0.0

>  <EState_VSA2>  (49) 
0.0

>  <EState_VSA3>  (49) 
17.292679

>  <EState_VSA4>  (49) 
30.885423

>  <EState_VSA5>  (49) 
5.563451

>  <EState_VSA6>  (49) 
6.066367

>  <EState_VSA7>  (49) 
12.132734

>  <EState_VSA8>  (49) 
35.651478

>  <EState_VSA9>  (49) 
15.732422

>  <VSA_EState1>  (49) 
5.543483

>  <VSA_EState10>  (49) 
0.0

>  <VSA_EState2>  (49) 
0.0

>  <VSA_EState3>  (49) 
11.408509

>  <VSA_EState4>  (49) 
10.18519

>  <VSA_EState5>  (49) 
0.0

>  <VSA_EState6>  (49) 
16.470294

>  <VSA_EState7>  (49) 
0.0

>  <VSA_EState8>  (49) 
2.559191

>  <VSA_EState9>  (49) 
0.0

>  <FractionCSP3>  (49) 
0.235294

>  <HeavyAtomCount>  (49) 
21

>  <NHOHCount>  (49) 
4

>  <NOCount>  (49) 
4

>  <NumAliphaticCarbocycles>  (49) 
0

>  <NumAliphaticHeterocycles>  (49) 
1

>  <NumAliphaticRings>  (49) 
1

>  <NumAromaticCarbocycles>  (49) 
2

>  <NumAromaticHeterocycles>  (49) 
0

>  <NumAromaticRings>  (49) 
2

>  <NumHAcceptors>  (49) 
3

>  <NumHDonors>  (49) 
2

>  <NumHeteroatoms>  (49) 
4

>  <NumRotatableBonds>  (49) 
2

>  <NumSaturatedCarbocycles>  (49) 
0

>  <NumSaturatedHeterocycles>  (49) 
1

>  <NumSaturatedRings>  (49) 
1

>  <RingCount>  (49) 
3

>  <MolLogP>  (49) 
1.44218

>  <MolMR>  (49) 
81.3578

>  <fr_Al_COO>  (49) 
0

>  <fr_Al_OH>  (49) 
0

>  <fr_Al_OH_noTert>  (49) 
0

>  <fr_ArN>  (49) 
1

>  <fr_Ar_COO>  (49) 
0

>  <fr_Ar_N>  (49) 
0

>  <fr_Ar_NH>  (49) 
0

>  <fr_Ar_OH>  (49) 
0

>  <fr_COO>  (49) 
0

>  <fr_COO2>  (49) 
0

>  <fr_C_O>  (49) 
0

>  <fr_C_O_noCOO>  (49) 
0

>  <fr_C_S>  (49) 
0

>  <fr_HOCCN>  (49) 
0

>  <fr_Imine>  (49) 
0

>  <fr_NH0>  (49) 
1

>  <fr_NH1>  (49) 
0

>  <fr_NH2>  (49) 
2

>  <fr_N_O>  (49) 
0

>  <fr_Ndealkylation1>  (49) 
0

>  <fr_Ndealkylation2>  (49) 
0

>  <fr_Nhpyrrole>  (49) 
0

>  <fr_SH>  (49) 
0

>  <fr_aldehyde>  (49) 
0

>  <fr_alkyl_carbamate>  (49) 
0

>  <fr_alkyl_halide>  (49) 
0

>  <fr_allylic_oxid>  (49) 
0

>  <fr_amide>  (49) 
0

>  <fr_amidine>  (49) 
0

>  <fr_aniline>  (49) 
1

>  <fr_aryl_methyl>  (49) 
0

>  <fr_azide>  (49) 
0

>  <fr_azo>  (49) 
0

>  <fr_barbitur>  (49) 
0

>  <fr_benzene>  (49) 
2

>  <fr_benzodiazepine>  (49) 
0

>  <fr_bicyclic>  (49) 
0

>  <fr_diazo>  (49) 
0

>  <fr_dihydropyridine>  (49) 
0

>  <fr_epoxide>  (49) 
0

>  <fr_ester>  (49) 
0

>  <fr_ether>  (49) 
1

>  <fr_furan>  (49) 
0

>  <fr_guanido>  (49) 
0

>  <fr_halogen>  (49) 
0

>  <fr_hdrzine>  (49) 
0

>  <fr_hdrzone>  (49) 
0

>  <fr_imidazole>  (49) 
0

>  <fr_imide>  (49) 
0

>  <fr_isocyan>  (49) 
0

>  <fr_isothiocyan>  (49) 
0

>  <fr_ketone>  (49) 
0

>  <fr_ketone_Topliss>  (49) 
0

>  <fr_lactam>  (49) 
0

>  <fr_lactone>  (49) 
0

>  <fr_methoxy>  (49) 
0

>  <fr_morpholine>  (49) 
1

>  <fr_nitrile>  (49) 
1

>  <fr_nitro>  (49) 
0

>  <fr_nitro_arom>  (49) 
0

>  <fr_nitro_arom_nonortho>  (49) 
0

>  <fr_nitroso>  (49) 
0

>  <fr_oxazole>  (49) 
0

>  <fr_oxime>  (49) 
0

>  <fr_para_hydroxylation>  (49) 
0

>  <fr_phenol>  (49) 
0

>  <fr_phenol_noOrthoHbond>  (49) 
0

>  <fr_phos_acid>  (49) 
0

>  <fr_phos_ester>  (49) 
0

>  <fr_piperdine>  (49) 
0

>  <fr_piperzine>  (49) 
0

>  <fr_priamide>  (49) 
0

>  <fr_prisulfonamd>  (49) 
0

>  <fr_pyridine>  (49) 
0

>  <fr_quatN>  (49) 
1

>  <fr_sulfide>  (49) 
0

>  <fr_sulfonamd>  (49) 
0

>  <fr_sulfone>  (49) 
0

>  <fr_term_acetylene>  (49) 
0

>  <fr_tetrazole>  (49) 
0

>  <fr_thiazole>  (49) 
0

>  <fr_thiocyan>  (49) 
0

>  <fr_thiophene>  (49) 
0

>  <fr_unbrch_alkane>  (49) 
0

>  <fr_urea>  (49) 
0

>  <NP_Likeness>  (49) 
-0.516991

$$$$
7QL
     RDKit          3D

  0  0  0  0  0  0  0  0  0  0999 V3000
M  V30 BEGIN CTAB
M  V30 COUNTS 45 47 0 0 0
M  V30 BEGIN ATOM
M  V30 1 O -12.278000 21.154000 -31.587000 0
M  V30 2 N -17.504000 26.527000 -23.588000 0
M  V30 3 N -9.496000 22.508000 -27.505000 0 CHG=1
M  V30 4 N -17.642000 22.936000 -23.706000 0
M  V30 5 C -11.913000 22.517000 -31.850000 0
M  V30 6 C -12.540000 20.948000 -30.197000 0
M  V30 7 C -17.011000 25.675000 -24.162000 0
M  V30 8 C -12.351000 26.044000 -28.676000 0
M  V30 9 C -9.442000 22.865000 -28.918000 0
M  V30 10 C -13.353000 25.688000 -27.792000 0
M  V30 11 C -11.574000 25.070000 -29.276000 0
M  V30 12 C -15.994000 22.307000 -25.380000 0
M  V30 13 C -14.995000 22.644000 -26.281000 0
M  V30 14 C -15.369000 24.969000 -25.840000 0
M  V30 15 C -12.793000 23.372000 -28.100000 0
M  V30 16 C -10.657000 22.918000 -31.100000 0
M  V30 17 C -11.324000 21.244000 -29.341000 0
M  V30 18 C -16.689000 23.286000 -24.658000 0
M  V30 19 C -16.354000 24.634000 -24.907000 0
M  V30 20 C -13.598000 24.348000 -27.493000 0
M  V30 21 C -14.667000 23.978000 -26.532000 0
M  V30 22 C -11.772000 23.727000 -28.984000 0
M  V30 23 C -10.819000 22.679000 -29.585000 0
M  V30 24 H -8.593400 22.636300 -27.094000 0
M  V30 25 H -10.160600 23.092000 -27.038800 0
M  V30 26 H -18.128400 23.648300 -23.200100 0
M  V30 27 H -17.840300 21.972200 -23.527900 0
M  V30 28 H -12.663800 23.113700 -31.566600 0
M  V30 29 H -11.752900 22.625800 -32.831100 0
M  V30 30 H -12.809600 19.995300 -30.056800 0
M  V30 31 H -13.287100 21.550600 -29.916300 0
M  V30 32 H -12.187700 27.008800 -28.882100 0
M  V30 33 H -8.773700 22.280500 -29.378100 0
M  V30 34 H -9.163200 23.821500 -29.003600 0
M  V30 35 H -13.908500 26.399800 -27.362100 0
M  V30 36 H -10.862500 25.335500 -29.926600 0
M  V30 37 H -16.223400 21.343400 -25.242600 0
M  V30 38 H -14.500500 21.918500 -26.759700 0
M  V30 39 H -15.163400 25.931800 -26.015100 0
M  V30 40 H -12.953200 22.406200 -27.896100 0
M  V30 41 H -10.475700 23.888200 -31.260600 0
M  V30 42 H -9.887600 22.375000 -31.436400 0
M  V30 43 H -10.596600 20.597100 -29.570000 0
M  V30 44 H -11.569200 21.142300 -28.376900 0
M  V30 45 H -9.771000 21.551000 -27.413300 0
M  V30 END ATOM
M  V30 BEGIN BOND
M  V30 1 1 1 5
M  V30 2 1 1 6
M  V30 3 3 2 7
M  V30 4 1 3 9
M  V30 5 1 4 18
M  V30 6 1 5 16
M  V30 7 1 6 17
M  V30 8 1 7 19
M  V30 9 2 8 10
M  V30 10 1 8 11
M  V30 11 1 9 23
M  V30 12 1 10 20
M  V30 13 2 11 22
M  V30 14 2 12 13
M  V30 15 1 12 18
M  V30 16 1 13 21
M  V30 17 1 14 19
M  V30 18 2 14 21
M  V30 19 2 15 20
M  V30 20 1 15 22
M  V30 21 1 16 23
M  V30 22 1 17 23
M  V30 23 2 18 19
M  V30 24 1 20 21
M  V30 25 1 23 22
M  V30 26 1 3 24
M  V30 27 1 3 25
M  V30 28 1 4 26
M  V30 29 1 4 27
M  V30 30 1 5 28
M  V30 31 1 5 29
M  V30 32 1 6 30
M  V30 33 1 6 31
M  V30 34 1 8 32
M  V30 35 1 9 33
M  V30 36 1 9 34
M  V30 37 1 10 35
M  V30 38 1 11 36
M  V30 39 1 12 37
M  V30 40 1 13 38
M  V30 41 1 14 39
M  V30 42 1 15 40
M  V30 43 1 16 41
M  V30 44 1 16 42
M  V30 45 1 17 43
M  V30 46 1 17 44
M  V30 47 1 3 45
M  V30 END BOND
M  V30 END CTAB
M  END
>  <Ligand_Instance>  (50) 
7PIF_7QL_A_401

>  <Dataset>  (50) 
PDB

>  <PDB_ID>  (50) 
7PIF

>  <Chain>  (50) 
A

>  <Resi>  (50) 
401

>  <Num_Resolved_Atoms>  (50) 
23

>  <Num_H_Atoms_ProtBoundConf>  (50) 
22

>  <Pocket>  (50) 
A

>  <Name>  (50) 
5-[3-[4-(aminomethyl)oxan-4-yl]phenyl]-2-azanyl-benzenecarbonitrile

>  <Num_Not_Resolved_Atoms>  (50) 
0

>  <ATP_Site>  (50) 
True

>  <Peripheral>  (50) 
False

>  <Standardized_SMILES>  (50) 
[H]C1=C([H])C(C2(C([H])([H])[N+]([H])([H])[H])C([H])([H])C([H])([H])OC([H])([H])C2([H])[H])=C([H])C(C2=C([H])C([H])=C(N([H])[H])C(C#N)=C2[H])=C1[H]

>  <2D_Mol_H>  (50) 
<rdkit.Chem.rdchem.Mol object at 0x77059d9e4cf0>

>  <MW>  (50) 
308.405

>  <HBA>  (50) 
3

>  <HBD>  (50) 
2

>  <LogP>  (50) 
2.09758

>  <NRB>  (50) 
5

>  <TPSA>  (50) 
86.68

>  <Num_Heavy_Atoms>  (50) 
23

>  <Ro5>  (50) 
[True, True, True, True, True, True]

>  <Ro5_Fulfilled>  (50) 
True

>  <Ro3>  (50) 
[False, True, True, True]

>  <Ro3_Fulfilled>  (50) 
True

>  <Fsp3>  (50) 
0.315789

>  <Fsp3_0.42>  (50) 
False

>  <Fsp3_0.45>  (50) 
False

>  <Stereogenic_Carbons>  (50) 
0

>  <C_Atoms>  (50) 
19

>  <FCStereo>  (50) 
0.0

>  <SPS>  (50) 
384

>  <nSPS>  (50) 
16.695652

>  <PBF>  (50) 
0.859228

>  <PBF_0.6>  (50) 
True

>  <nPBF>  (50) 
0.037358

>  <nPBF_0.016>  (50) 
True

>  <PMI1>  (50) 
947.521813

>  <PMI2>  (50) 
4099.200158

>  <PMI3>  (50) 
4394.21754

>  <NPR1>  (50) 
0.215629

>  <NPR2>  (50) 
0.932862

>  <Sum_NPR>  (50) 
1.148492

>  <Sum_NPR_1.07>  (50) 
True

>  <Sum_NPR_1.2>  (50) 
False

>  <MaxAbsEStateIndex>  (50) 
9.175163

>  <MaxEStateIndex>  (50) 
9.175163

>  <MinAbsEStateIndex>  (50) 
0.097348

>  <MinEStateIndex>  (50) 
0.097348

>  <qed>  (50) 
0.851267

>  <MolWt>  (50) 
308.405

>  <HeavyAtomMolWt>  (50) 
286.229

>  <ExactMolWt>  (50) 
308.175739

>  <NumValenceElectrons>  (50) 
118

>  <NumRadicalElectrons>  (50) 
0

>  <MaxPartialCharge>  (50) 
0.101314

>  <MinPartialCharge>  (50) 
-0.397657

>  <MaxAbsPartialCharge>  (50) 
0.397657

>  <MinAbsPartialCharge>  (50) 
0.101314

>  <FpDensityMorgan1>  (50) 
1.130435

>  <FpDensityMorgan2>  (50) 
1.869565

>  <FpDensityMorgan3>  (50) 
2.565217

>  <BCUT2D_MWHI>  (50) 
16.474539

>  <BCUT2D_MWLOW>  (50) 
9.734635

>  <BCUT2D_CHGHI>  (50) 
2.347897

>  <BCUT2D_CHGLO>  (50) 
-2.346686

>  <BCUT2D_LOGPHI>  (50) 
2.353317

>  <BCUT2D_LOGPLOW>  (50) 
-2.60904

>  <BCUT2D_MRHI>  (50) 
5.70202

>  <BCUT2D_MRLOW>  (50) 
-0.385987

>  <AvgIpc>  (50) 
2.62555

>  <BalabanJ>  (50) 
2.013751

>  <BertzCT>  (50) 
742.520212

>  <Chi0>  (50) 
16.286246

>  <Chi0n>  (50) 
13.216905

>  <Chi0v>  (50) 
13.216905

>  <Chi1>  (50) 
11.1818

>  <Chi1n>  (50) 
7.959693

>  <Chi1v>  (50) 
7.959693

>  <Chi2n>  (50) 
6.13734

>  <Chi2v>  (50) 
6.13734

>  <Chi3n>  (50) 
4.910482

>  <Chi3v>  (50) 
4.910482

>  <Chi4n>  (50) 
3.30645

>  <Chi4v>  (50) 
3.30645

>  <HallKierAlpha>  (50) 
-2.35

>  <Ipc>  (50) 
229998.209767

>  <Kappa1>  (50) 
15.542066

>  <Kappa2>  (50) 
6.411415

>  <Kappa3>  (50) 
2.93745

>  <LabuteASA>  (50) 
136.223167

>  <PEOE_VSA1>  (50) 
16.204198

>  <PEOE_VSA10>  (50) 
6.069221

>  <PEOE_VSA11>  (50) 
0.0

>  <PEOE_VSA12>  (50) 
0.0

>  <PEOE_VSA13>  (50) 
0.0

>  <PEOE_VSA14>  (50) 
0.0

>  <PEOE_VSA2>  (50) 
0.0

>  <PEOE_VSA3>  (50) 
0.0

>  <PEOE_VSA4>  (50) 
5.261892

>  <PEOE_VSA5>  (50) 
0.0

>  <PEOE_VSA6>  (50) 
30.331835

>  <PEOE_VSA7>  (50) 
41.664732

>  <PEOE_VSA8>  (50) 
24.316141

>  <PEOE_VSA9>  (50) 
12.108208

>  <SMR_VSA1>  (50) 
10.47053

>  <SMR_VSA10>  (50) 
5.687386

>  <SMR_VSA2>  (50) 
5.261892

>  <SMR_VSA3>  (50) 
0.0

>  <SMR_VSA4>  (50) 
0.0

>  <SMR_VSA5>  (50) 
18.256634

>  <SMR_VSA6>  (50) 
25.492188

>  <SMR_VSA7>  (50) 
53.591472

>  <SMR_VSA8>  (50) 
0.0

>  <SMR_VSA9>  (50) 
17.196124

>  <SlogP_VSA1>  (50) 
11.467335

>  <SlogP_VSA10>  (50) 
5.687386

>  <SlogP_VSA11>  (50) 
0.0

>  <SlogP_VSA12>  (50) 
0.0

>  <SlogP_VSA2>  (50) 
19.75852

>  <SlogP_VSA3>  (50) 
10.151853

>  <SlogP_VSA4>  (50) 
11.331113

>  <SlogP_VSA5>  (50) 
23.968546

>  <SlogP_VSA6>  (50) 
42.464569

>  <SlogP_VSA7>  (50) 
0.0

>  <SlogP_VSA8>  (50) 
11.126903

>  <SlogP_VSA9>  (50) 
0.0

>  <EState_VSA1>  (50) 
0.0

>  <EState_VSA10>  (50) 
5.261892

>  <EState_VSA11>  (50) 
0.0

>  <EState_VSA2>  (50) 
5.41499

>  <EState_VSA3>  (50) 
11.250838

>  <EState_VSA4>  (50) 
43.727067

>  <EState_VSA5>  (50) 
5.563451

>  <EState_VSA6>  (50) 
6.066367

>  <EState_VSA7>  (50) 
12.132734

>  <EState_VSA8>  (50) 
36.068357

>  <EState_VSA9>  (50) 
10.47053

>  <VSA_EState1>  (50) 
5.528689

>  <VSA_EState10>  (50) 
0.0

>  <VSA_EState2>  (50) 
0.0

>  <VSA_EState3>  (50) 
9.175163

>  <VSA_EState4>  (50) 
14.579002

>  <VSA_EState5>  (50) 
0.0

>  <VSA_EState6>  (50) 
16.340492

>  <VSA_EState7>  (50) 
2.010192

>  <VSA_EState8>  (50) 
2.449796

>  <VSA_EState9>  (50) 
0.0

>  <FractionCSP3>  (50) 
0.315789

>  <HeavyAtomCount>  (50) 
23

>  <NHOHCount>  (50) 
5

>  <NOCount>  (50) 
4

>  <NumAliphaticCarbocycles>  (50) 
0

>  <NumAliphaticHeterocycles>  (50) 
1

>  <NumAliphaticRings>  (50) 
1

>  <NumAromaticCarbocycles>  (50) 
2

>  <NumAromaticHeterocycles>  (50) 
0

>  <NumAromaticRings>  (50) 
2

>  <NumHAcceptors>  (50) 
3

>  <NumHDonors>  (50) 
2

>  <NumHeteroatoms>  (50) 
4

>  <NumRotatableBonds>  (50) 
3

>  <NumSaturatedCarbocycles>  (50) 
0

>  <NumSaturatedHeterocycles>  (50) 
1

>  <NumSaturatedRings>  (50) 
1

>  <RingCount>  (50) 
3

>  <MolLogP>  (50) 
2.09758

>  <MolMR>  (50) 
90.4915

>  <fr_Al_COO>  (50) 
0

>  <fr_Al_OH>  (50) 
0

>  <fr_Al_OH_noTert>  (50) 
0

>  <fr_ArN>  (50) 
1

>  <fr_Ar_COO>  (50) 
0

>  <fr_Ar_N>  (50) 
0

>  <fr_Ar_NH>  (50) 
0

>  <fr_Ar_OH>  (50) 
0

>  <fr_COO>  (50) 
0

>  <fr_COO2>  (50) 
0

>  <fr_C_O>  (50) 
0

>  <fr_C_O_noCOO>  (50) 
0

>  <fr_C_S>  (50) 
0

>  <fr_HOCCN>  (50) 
0

>  <fr_Imine>  (50) 
0

>  <fr_NH0>  (50) 
1

>  <fr_NH1>  (50) 
0

>  <fr_NH2>  (50) 
1

>  <fr_N_O>  (50) 
0

>  <fr_Ndealkylation1>  (50) 
0

>  <fr_Ndealkylation2>  (50) 
0

>  <fr_Nhpyrrole>  (50) 
0

>  <fr_SH>  (50) 
0

>  <fr_aldehyde>  (50) 
0

>  <fr_alkyl_carbamate>  (50) 
0

>  <fr_alkyl_halide>  (50) 
0

>  <fr_allylic_oxid>  (50) 
0

>  <fr_amide>  (50) 
0

>  <fr_amidine>  (50) 
0

>  <fr_aniline>  (50) 
1

>  <fr_aryl_methyl>  (50) 
0

>  <fr_azide>  (50) 
0

>  <fr_azo>  (50) 
0

>  <fr_barbitur>  (50) 
0

>  <fr_benzene>  (50) 
2

>  <fr_benzodiazepine>  (50) 
0

>  <fr_bicyclic>  (50) 
0

>  <fr_diazo>  (50) 
0

>  <fr_dihydropyridine>  (50) 
0

>  <fr_epoxide>  (50) 
0

>  <fr_ester>  (50) 
0

>  <fr_ether>  (50) 
1

>  <fr_furan>  (50) 
0

>  <fr_guanido>  (50) 
0

>  <fr_halogen>  (50) 
0

>  <fr_hdrzine>  (50) 
0

>  <fr_hdrzone>  (50) 
0

>  <fr_imidazole>  (50) 
0

>  <fr_imide>  (50) 
0

>  <fr_isocyan>  (50) 
0

>  <fr_isothiocyan>  (50) 
0

>  <fr_ketone>  (50) 
0

>  <fr_ketone_Topliss>  (50) 
0

>  <fr_lactam>  (50) 
0

>  <fr_lactone>  (50) 
0

>  <fr_methoxy>  (50) 
0

>  <fr_morpholine>  (50) 
0

>  <fr_nitrile>  (50) 
1

>  <fr_nitro>  (50) 
0

>  <fr_nitro_arom>  (50) 
0

>  <fr_nitro_arom_nonortho>  (50) 
0

>  <fr_nitroso>  (50) 
0

>  <fr_oxazole>  (50) 
0

>  <fr_oxime>  (50) 
0

>  <fr_para_hydroxylation>  (50) 
0

>  <fr_phenol>  (50) 
0

>  <fr_phenol_noOrthoHbond>  (50) 
0

>  <fr_phos_acid>  (50) 
0

>  <fr_phos_ester>  (50) 
0

>  <fr_piperdine>  (50) 
0

>  <fr_piperzine>  (50) 
0

>  <fr_priamide>  (50) 
0

>  <fr_prisulfonamd>  (50) 
0

>  <fr_pyridine>  (50) 
0

>  <fr_quatN>  (50) 
1

>  <fr_sulfide>  (50) 
0

>  <fr_sulfonamd>  (50) 
0

>  <fr_sulfone>  (50) 
0

>  <fr_term_acetylene>  (50) 
0

>  <fr_tetrazole>  (50) 
0

>  <fr_thiazole>  (50) 
0

>  <fr_thiocyan>  (50) 
0

>  <fr_thiophene>  (50) 
0

>  <fr_unbrch_alkane>  (50) 
0

>  <fr_urea>  (50) 
0

>  <NP_Likeness>  (50) 
-0.614165

$$$$
7QR
     RDKit          3D

  0  0  0  0  0  0  0  0  0  0999 V3000
M  V30 BEGIN CTAB
M  V30 COUNTS 32 33 0 0 0
M  V30 BEGIN ATOM
M  V30 1 Cl 14.848000 -24.471000 -26.991000 0
M  V30 2 N 17.202000 -24.687000 -24.346000 0
M  V30 3 N 17.377000 -21.181000 -24.073000 0
M  V30 4 N 10.589000 -20.242000 -27.591000 0 CHG=1
M  V30 5 C 16.711000 -23.787000 -24.847000 0
M  V30 6 C 9.864000 -20.291000 -28.864000 0
M  V30 7 C 10.287000 -21.567000 -29.657000 0
M  V30 8 C 12.044000 -20.145000 -27.826000 0
M  V30 9 C 11.804000 -21.558000 -29.899000 0
M  V30 10 C 15.815000 -20.302000 -25.743000 0
M  V30 11 C 14.902000 -20.519000 -26.760000 0
M  V30 12 C 13.625000 -22.056000 -28.294000 0
M  V30 13 C 16.446000 -21.373000 -25.087000 0
M  V30 14 C 15.197000 -22.866000 -26.524000 0
M  V30 15 C 12.548000 -21.338000 -28.612000 0
M  V30 16 C 14.575000 -21.807000 -27.185000 0
M  V30 17 C 16.116000 -22.671000 -25.506000 0
M  V30 18 H 17.804200 -21.969500 -23.630600 0
M  V30 19 H 17.619700 -20.254300 -23.785900 0
M  V30 20 H 10.394800 -21.073000 -27.069800 0
M  V30 21 H 10.081300 -19.476900 -29.402600 0
M  V30 22 H 8.880400 -20.320300 -28.686100 0
M  V30 23 H 9.811600 -21.582700 -30.536700 0
M  V30 24 H 10.040700 -22.380700 -29.130400 0
M  V30 25 H 12.515900 -20.110800 -26.945000 0
M  V30 26 H 12.237200 -19.309400 -28.340200 0
M  V30 27 H 12.029800 -20.822700 -30.538100 0
M  V30 28 H 12.078800 -22.436100 -30.290600 0
M  V30 29 H 16.030100 -19.364500 -25.469400 0
M  V30 30 H 14.466300 -19.734100 -27.200700 0
M  V30 31 H 13.812900 -22.852400 -28.868800 0
M  V30 32 H 10.286000 -19.443700 -27.070600 0
M  V30 END ATOM
M  V30 BEGIN BOND
M  V30 1 1 1 14
M  V30 2 3 2 5
M  V30 3 1 3 13
M  V30 4 1 4 6
M  V30 5 1 4 8
M  V30 6 1 5 17
M  V30 7 1 6 7
M  V30 8 1 7 9
M  V30 9 1 8 15
M  V30 10 1 9 15
M  V30 11 2 10 11
M  V30 12 1 10 13
M  V30 13 1 11 16
M  V30 14 2 12 15
M  V30 15 1 12 16
M  V30 16 2 13 17
M  V30 17 2 14 16
M  V30 18 1 14 17
M  V30 19 1 3 18
M  V30 20 1 3 19
M  V30 21 1 4 20
M  V30 22 1 6 21
M  V30 23 1 6 22
M  V30 24 1 7 23
M  V30 25 1 7 24
M  V30 26 1 8 25
M  V30 27 1 8 26
M  V30 28 1 9 27
M  V30 29 1 9 28
M  V30 30 1 10 29
M  V30 31 1 11 30
M  V30 32 1 12 31
M  V30 33 1 4 32
M  V30 END BOND
M  V30 END CTAB
M  END
>  <Ligand_Instance>  (51) 
7PIG_7QR_A_401

>  <Dataset>  (51) 
PDB

>  <PDB_ID>  (51) 
7PIG

>  <Chain>  (51) 
A

>  <Resi>  (51) 
401

>  <Num_Resolved_Atoms>  (51) 
17

>  <Num_H_Atoms_ProtBoundConf>  (51) 
15

>  <Pocket>  (51) 
A

>  <Name>  (51) 
6-azanyl-2-chloranyl-3-[(Z)-piperidin-3-ylidenemethyl]benzenecarbonitrile

>  <Num_Not_Resolved_Atoms>  (51) 
0

>  <ATP_Site>  (51) 
True

>  <Peripheral>  (51) 
False

>  <Standardized_SMILES>  (51) 
[H]C1=C([H])C(N([H])[H])=C(C#N)C(Cl)=C1/C([H])=C1/C([H])([H])C([H])([H])C([H])([H])[N+]([H])([H])C1([H])[H]

>  <2D_Mol_H>  (51) 
<rdkit.Chem.rdchem.Mol object at 0x77059d9e4dd0>

>  <MW>  (51) 
248.737

>  <HBA>  (51) 
2

>  <HBD>  (51) 
2

>  <LogP>  (51) 
1.53448

>  <NRB>  (51) 
2

>  <TPSA>  (51) 
66.42

>  <Num_Heavy_Atoms>  (51) 
17

>  <Ro5>  (51) 
[True, True, True, True, True, True]

>  <Ro5_Fulfilled>  (51) 
True

>  <Ro3>  (51) 
[True, True, True, True]

>  <Ro3_Fulfilled>  (51) 
True

>  <Fsp3>  (51) 
0.307692

>  <Fsp3_0.42>  (51) 
False

>  <Fsp3_0.45>  (51) 
False

>  <Stereogenic_Carbons>  (51) 
0

>  <C_Atoms>  (51) 
13

>  <FCStereo>  (51) 
0.0

>  <SPS>  (51) 
306

>  <nSPS>  (51) 
18.0

>  <PBF>  (51) 
0.674427

>  <PBF_0.6>  (51) 
True

>  <nPBF>  (51) 
0.039672

>  <nPBF_0.016>  (51) 
True

>  <PMI1>  (51) 
576.852024

>  <PMI2>  (51) 
2292.221663

>  <PMI3>  (51) 
2694.704357

>  <NPR1>  (51) 
0.214069

>  <NPR2>  (51) 
0.850639

>  <Sum_NPR>  (51) 
1.064708

>  <Sum_NPR_1.07>  (51) 
False

>  <Sum_NPR_1.2>  (51) 
False

>  <MaxAbsEStateIndex>  (51) 
8.988258

>  <MaxEStateIndex>  (51) 
8.988258

>  <MinAbsEStateIndex>  (51) 
0.375746

>  <MinEStateIndex>  (51) 
0.375746

>  <qed>  (51) 
0.740626

>  <MolWt>  (51) 
248.737

>  <HeavyAtomMolWt>  (51) 
233.617

>  <ExactMolWt>  (51) 
248.094902

>  <NumValenceElectrons>  (51) 
88

>  <NumRadicalElectrons>  (51) 
0

>  <MaxPartialCharge>  (51) 
0.102901

>  <MinPartialCharge>  (51) 
-0.397613

>  <MaxAbsPartialCharge>  (51) 
0.397613

>  <MinAbsPartialCharge>  (51) 
0.102901

>  <FpDensityMorgan1>  (51) 
1.470588

>  <FpDensityMorgan2>  (51) 
2.294118

>  <FpDensityMorgan3>  (51) 
2.941176

>  <BCUT2D_MWHI>  (51) 
35.495692

>  <BCUT2D_MWLOW>  (51) 
10.014579

>  <BCUT2D_CHGHI>  (51) 
2.112482

>  <BCUT2D_CHGLO>  (51) 
-2.127472

>  <BCUT2D_LOGPHI>  (51) 
2.275

>  <BCUT2D_LOGPLOW>  (51) 
-2.855577

>  <BCUT2D_MRHI>  (51) 
6.332357

>  <BCUT2D_MRLOW>  (51) 
-0.652637

>  <AvgIpc>  (51) 
2.348678

>  <BalabanJ>  (51) 
2.365188

>  <BertzCT>  (51) 
492.121418

>  <Chi0>  (51) 
12.250712

>  <Chi0n>  (51) 
9.540357

>  <Chi0v>  (51) 
10.296285

>  <Chi1>  (51) 
8.219545

>  <Chi1n>  (51) 
5.712901

>  <Chi1v>  (51) 
6.090866

>  <Chi2n>  (51) 
4.232416

>  <Chi2v>  (51) 
4.610381

>  <Chi3n>  (51) 
2.988158

>  <Chi3v>  (51) 
3.395358

>  <Chi4n>  (51) 
2.046209

>  <Chi4v>  (51) 
2.315124

>  <HallKierAlpha>  (51) 
-1.5

>  <Ipc>  (51) 
8765.266513

>  <Kappa1>  (51) 
11.970156

>  <Kappa2>  (51) 
5.22

>  <Kappa3>  (51) 
2.603419

>  <LabuteASA>  (51) 
105.876163

>  <PEOE_VSA1>  (51) 
11.050456

>  <PEOE_VSA10>  (51) 
6.069221

>  <PEOE_VSA11>  (51) 
0.0

>  <PEOE_VSA12>  (51) 
0.0

>  <PEOE_VSA13>  (51) 
0.0

>  <PEOE_VSA14>  (51) 
0.0

>  <PEOE_VSA2>  (51) 
0.0

>  <PEOE_VSA3>  (51) 
0.0

>  <PEOE_VSA4>  (51) 
5.261892

>  <PEOE_VSA5>  (51) 
0.0

>  <PEOE_VSA6>  (51) 
17.667307

>  <PEOE_VSA7>  (51) 
29.699765

>  <PEOE_VSA8>  (51) 
6.420822

>  <PEOE_VSA9>  (51) 
29.362984

>  <SMR_VSA1>  (51) 
5.316789

>  <SMR_VSA10>  (51) 
23.364346

>  <SMR_VSA2>  (51) 
5.261892

>  <SMR_VSA3>  (51) 
0.0

>  <SMR_VSA4>  (51) 
0.0

>  <SMR_VSA5>  (51) 
12.841643

>  <SMR_VSA6>  (51) 
18.82318

>  <SMR_VSA7>  (51) 
33.855375

>  <SMR_VSA8>  (51) 
0.0

>  <SMR_VSA9>  (51) 
6.069221

>  <SlogP_VSA1>  (51) 
11.050456

>  <SlogP_VSA10>  (51) 
5.687386

>  <SlogP_VSA11>  (51) 
0.0

>  <SlogP_VSA12>  (51) 
11.60094

>  <SlogP_VSA2>  (51) 
13.089513

>  <SlogP_VSA3>  (51) 
0.0

>  <SlogP_VSA4>  (51) 
11.331113

>  <SlogP_VSA5>  (51) 
23.968546

>  <SlogP_VSA6>  (51) 
17.705839

>  <SlogP_VSA7>  (51) 
5.022633

>  <SlogP_VSA8>  (51) 
6.07602

>  <SlogP_VSA9>  (51) 
0.0

>  <EState_VSA1>  (51) 
0.0

>  <EState_VSA10>  (51) 
0.0

>  <EState_VSA11>  (51) 
0.0

>  <EState_VSA2>  (51) 
0.0

>  <EState_VSA3>  (51) 
16.273471

>  <EState_VSA4>  (51) 
18.52903

>  <EState_VSA5>  (51) 
18.538683

>  <EState_VSA6>  (51) 
6.066367

>  <EState_VSA7>  (51) 
12.135588

>  <EState_VSA8>  (51) 
11.392809

>  <EState_VSA9>  (51) 
22.596499

>  <VSA_EState1>  (51) 
0.0

>  <VSA_EState10>  (51) 
6.176137

>  <VSA_EState2>  (51) 
0.0

>  <VSA_EState3>  (51) 
11.735228

>  <VSA_EState4>  (51) 
8.774392

>  <VSA_EState5>  (51) 
0.0

>  <VSA_EState6>  (51) 
5.661718

>  <VSA_EState7>  (51) 
4.389779

>  <VSA_EState8>  (51) 
2.20719

>  <VSA_EState9>  (51) 
0.0

>  <FractionCSP3>  (51) 
0.307692

>  <HeavyAtomCount>  (51) 
17

>  <NHOHCount>  (51) 
4

>  <NOCount>  (51) 
3

>  <NumAliphaticCarbocycles>  (51) 
0

>  <NumAliphaticHeterocycles>  (51) 
1

>  <NumAliphaticRings>  (51) 
1

>  <NumAromaticCarbocycles>  (51) 
1

>  <NumAromaticHeterocycles>  (51) 
0

>  <NumAromaticRings>  (51) 
1

>  <NumHAcceptors>  (51) 
2

>  <NumHDonors>  (51) 
2

>  <NumHeteroatoms>  (51) 
4

>  <NumRotatableBonds>  (51) 
1

>  <NumSaturatedCarbocycles>  (51) 
0

>  <NumSaturatedHeterocycles>  (51) 
1

>  <NumSaturatedRings>  (51) 
1

>  <RingCount>  (51) 
2

>  <MolLogP>  (51) 
1.53448

>  <MolMR>  (51) 
69.4498

>  <fr_Al_COO>  (51) 
0

>  <fr_Al_OH>  (51) 
0

>  <fr_Al_OH_noTert>  (51) 
0

>  <fr_ArN>  (51) 
1

>  <fr_Ar_COO>  (51) 
0

>  <fr_Ar_N>  (51) 
0

>  <fr_Ar_NH>  (51) 
0

>  <fr_Ar_OH>  (51) 
0

>  <fr_COO>  (51) 
0

>  <fr_COO2>  (51) 
0

>  <fr_C_O>  (51) 
0

>  <fr_C_O_noCOO>  (51) 
0

>  <fr_C_S>  (51) 
0

>  <fr_HOCCN>  (51) 
0

>  <fr_Imine>  (51) 
0

>  <fr_NH0>  (51) 
1

>  <fr_NH1>  (51) 
0

>  <fr_NH2>  (51) 
2

>  <fr_N_O>  (51) 
0

>  <fr_Ndealkylation1>  (51) 
0

>  <fr_Ndealkylation2>  (51) 
0

>  <fr_Nhpyrrole>  (51) 
0

>  <fr_SH>  (51) 
0

>  <fr_aldehyde>  (51) 
0

>  <fr_alkyl_carbamate>  (51) 
0

>  <fr_alkyl_halide>  (51) 
0

>  <fr_allylic_oxid>  (51) 
0

>  <fr_amide>  (51) 
0

>  <fr_amidine>  (51) 
0

>  <fr_aniline>  (51) 
1

>  <fr_aryl_methyl>  (51) 
0

>  <fr_azide>  (51) 
0

>  <fr_azo>  (51) 
0

>  <fr_barbitur>  (51) 
0

>  <fr_benzene>  (51) 
1

>  <fr_benzodiazepine>  (51) 
0

>  <fr_bicyclic>  (51) 
0

>  <fr_diazo>  (51) 
0

>  <fr_dihydropyridine>  (51) 
0

>  <fr_epoxide>  (51) 
0

>  <fr_ester>  (51) 
0

>  <fr_ether>  (51) 
0

>  <fr_furan>  (51) 
0

>  <fr_guanido>  (51) 
0

>  <fr_halogen>  (51) 
1

>  <fr_hdrzine>  (51) 
0

>  <fr_hdrzone>  (51) 
0

>  <fr_imidazole>  (51) 
0

>  <fr_imide>  (51) 
0

>  <fr_isocyan>  (51) 
0

>  <fr_isothiocyan>  (51) 
0

>  <fr_ketone>  (51) 
0

>  <fr_ketone_Topliss>  (51) 
0

>  <fr_lactam>  (51) 
0

>  <fr_lactone>  (51) 
0

>  <fr_methoxy>  (51) 
0

>  <fr_morpholine>  (51) 
0

>  <fr_nitrile>  (51) 
1

>  <fr_nitro>  (51) 
0

>  <fr_nitro_arom>  (51) 
0

>  <fr_nitro_arom_nonortho>  (51) 
0

>  <fr_nitroso>  (51) 
0

>  <fr_oxazole>  (51) 
0

>  <fr_oxime>  (51) 
0

>  <fr_para_hydroxylation>  (51) 
0

>  <fr_phenol>  (51) 
0

>  <fr_phenol_noOrthoHbond>  (51) 
0

>  <fr_phos_acid>  (51) 
0

>  <fr_phos_ester>  (51) 
0

>  <fr_piperdine>  (51) 
1

>  <fr_piperzine>  (51) 
0

>  <fr_priamide>  (51) 
0

>  <fr_prisulfonamd>  (51) 
0

>  <fr_pyridine>  (51) 
0

>  <fr_quatN>  (51) 
1

>  <fr_sulfide>  (51) 
0

>  <fr_sulfonamd>  (51) 
0

>  <fr_sulfone>  (51) 
0

>  <fr_term_acetylene>  (51) 
0

>  <fr_tetrazole>  (51) 
0

>  <fr_thiazole>  (51) 
0

>  <fr_thiocyan>  (51) 
0

>  <fr_thiophene>  (51) 
0

>  <fr_unbrch_alkane>  (51) 
0

>  <fr_urea>  (51) 
0

>  <NP_Likeness>  (51) 
-0.641955

$$$$
7QW
     RDKit          3D

  0  0  0  0  0  0  0  0  0  0999 V3000
M  V30 BEGIN CTAB
M  V30 COUNTS 47 50 0 0 0
M  V30 BEGIN ATOM
M  V30 1 O 17.566000 -26.690000 -23.709000 0
M  V30 2 N 7.895000 -20.223000 -28.623000 0 CHG=1
M  V30 3 N 17.453000 -24.444000 -23.529000 0
M  V30 4 N 10.115000 -22.660000 -29.457000 0 CFG=2 CHG=1
M  V30 5 C 16.906000 -23.291000 -23.980000 0
M  V30 6 C 8.942000 -23.534000 -29.330000 0
M  V30 7 C 9.582000 -21.377000 -29.929000 0
M  V30 8 C 11.152000 -23.222000 -30.337000 0
M  V30 9 C 11.263000 -26.856000 -29.312000 0
M  V30 10 C 15.958000 -23.228000 -24.964000 0
M  V30 11 C 7.827000 -22.643000 -28.829000 0
M  V30 12 C 10.959000 -25.711000 -30.026000 0
M  V30 13 C 12.284000 -26.836000 -28.377000 0
M  V30 14 C 14.741000 -26.835000 -26.770000 0
M  V30 15 C 15.700000 -26.847000 -25.805000 0
M  V30 16 C 12.707000 -24.538000 -28.895000 0
M  V30 17 C 14.524000 -24.458000 -26.580000 0
M  V30 18 C 17.068000 -25.580000 -24.109000 0
M  V30 19 C 8.101000 -21.329000 -29.556000 0 CFG=1
M  V30 20 C 11.657000 -24.534000 -29.802000 0
M  V30 21 C 13.024000 -25.673000 -28.157000 0
M  V30 22 C 14.121000 -25.648000 -27.164000 0
M  V30 23 C 15.527000 -24.428000 -25.582000 0
M  V30 24 C 16.117000 -25.653000 -25.170000 0
M  V30 25 H 6.970400 -19.859300 -28.736100 0
M  V30 26 H 8.011700 -20.551500 -27.685700 0
M  V30 27 H 18.122700 -24.443200 -22.786400 0
M  V30 28 H 17.213700 -22.433000 -23.568800 0
M  V30 29 H 9.122700 -24.268800 -28.676300 0
M  V30 30 H 8.702400 -23.928500 -30.217100 0
M  V30 31 H 9.686500 -21.308200 -30.921100 0
M  V30 32 H 10.069300 -20.622500 -29.489400 0
M  V30 33 H 11.914500 -22.577800 -30.397300 0
M  V30 34 H 10.765200 -23.366900 -31.247700 0
M  V30 35 H 10.746000 -27.697100 -29.470900 0
M  V30 36 H 15.574600 -22.347600 -25.243200 0
M  V30 37 H 7.877200 -22.524500 -27.837300 0
M  V30 38 H 6.931000 -23.012300 -29.075600 0
M  V30 39 H 10.229500 -25.732200 -30.709700 0
M  V30 40 H 12.493300 -27.662500 -27.854400 0
M  V30 41 H 14.474700 -27.694500 -27.206200 0
M  V30 42 H 16.118000 -27.715800 -25.539500 0
M  V30 43 H 13.247700 -23.706200 -28.769300 0
M  V30 44 H 14.096800 -23.601600 -26.870000 0
M  V30 45 H 7.523800 -21.234000 -30.367000 0
M  V30 46 H 8.562000 -19.501500 -28.808800 0
M  V30 47 H 10.509500 -22.524500 -28.548200 0
M  V30 END ATOM
M  V30 BEGIN BOND
M  V30 1 2 1 18
M  V30 2 1 2 19
M  V30 3 1 3 5
M  V30 4 1 3 18
M  V30 5 1 4 6
M  V30 6 1 4 7
M  V30 7 1 4 8
M  V30 8 2 5 10
M  V30 9 1 6 11
M  V30 10 1 7 19
M  V30 11 1 8 20
M  V30 12 2 9 12
M  V30 13 1 9 13
M  V30 14 1 10 23
M  V30 15 1 11 19
M  V30 16 1 12 20
M  V30 17 2 13 21
M  V30 18 1 14 15
M  V30 19 2 14 22
M  V30 20 2 15 24
M  V30 21 2 16 20
M  V30 22 1 16 21
M  V30 23 1 17 22
M  V30 24 2 17 23
M  V30 25 1 18 24
M  V30 26 1 21 22
M  V30 27 1 23 24
M  V30 28 1 2 25
M  V30 29 1 2 26
M  V30 30 1 3 27
M  V30 31 1 5 28
M  V30 32 1 6 29
M  V30 33 1 6 30
M  V30 34 1 7 31
M  V30 35 1 7 32
M  V30 36 1 8 33
M  V30 37 1 8 34
M  V30 38 1 9 35
M  V30 39 1 10 36
M  V30 40 1 11 37
M  V30 41 1 11 38
M  V30 42 1 12 39
M  V30 43 1 13 40
M  V30 44 1 14 41
M  V30 45 1 15 42
M  V30 46 1 16 43
M  V30 47 1 17 44
M  V30 48 1 19 45 CFG=3
M  V30 49 1 2 46
M  V30 50 1 4 47 CFG=1
M  V30 END BOND
M  V30 END CTAB
M  END
>  <Ligand_Instance>  (52) 
7PIH_7QW_A_401

>  <Dataset>  (52) 
PDB

>  <PDB_ID>  (52) 
7PIH

>  <Chain>  (52) 
A

>  <Resi>  (52) 
401

>  <Num_Resolved_Atoms>  (52) 
24

>  <Num_H_Atoms_ProtBoundConf>  (52) 
23

>  <Pocket>  (52) 
A

>  <Name>  (52) 
6-[3-[[(3~{R})-3-azanylpyrrolidin-1-yl]methyl]phenyl]-4~{H}-isoquinolin-1-one

>  <Num_Not_Resolved_Atoms>  (52) 
0

>  <ATP_Site>  (52) 
True

>  <Peripheral>  (52) 
False

>  <Standardized_SMILES>  (52) 
[H]C1=C([H])C(C([H])([H])[N@+]2([H])C([H])([H])C([H])([H])[C@@]([H])([N+]([H])([H])[H])C2([H])[H])=C([H])C(C2=C([H])C([H])=C3C(=O)N([H])C([H])=C([H])C3=C2[H])=C1[H]

>  <2D_Mol_H>  (52) 
<rdkit.Chem.rdchem.Mol object at 0x77059d9e4eb0>

>  <MW>  (52) 
321.424

>  <HBA>  (52) 
1

>  <HBD>  (52) 
3

>  <LogP>  (52) 
0.5942

>  <NRB>  (52) 
4

>  <TPSA>  (52) 
64.94

>  <Num_Heavy_Atoms>  (52) 
24

>  <Ro5>  (52) 
[True, True, True, True, True, True]

>  <Ro5_Fulfilled>  (52) 
True

>  <Ro3>  (52) 
[False, True, True, True]

>  <Ro3_Fulfilled>  (52) 
True

>  <Fsp3>  (52) 
0.25

>  <Fsp3_0.42>  (52) 
False

>  <Fsp3_0.45>  (52) 
False

>  <Stereogenic_Carbons>  (52) 
1

>  <C_Atoms>  (52) 
20

>  <FCStereo>  (52) 
0.05

>  <SPS>  (52) 
493

>  <nSPS>  (52) 
20.541667

>  <PBF>  (52) 
0.708046

>  <PBF_0.6>  (52) 
True

>  <nPBF>  (52) 
0.029502

>  <nPBF_0.016>  (52) 
True

>  <PMI1>  (52) 
1069.161594

>  <PMI2>  (52) 
5338.980092

>  <PMI3>  (52) 
6110.179347

>  <NPR1>  (52) 
0.17498

>  <NPR2>  (52) 
0.873785

>  <Sum_NPR>  (52) 
1.048765

>  <Sum_NPR_1.07>  (52) 
False

>  <Sum_NPR_1.2>  (52) 
False

>  <MaxAbsEStateIndex>  (52) 
11.837022

>  <MaxEStateIndex>  (52) 
11.837022

>  <MinAbsEStateIndex>  (52) 
0.034108

>  <MinEStateIndex>  (52) 
-0.034108

>  <qed>  (52) 
0.649596

>  <MolWt>  (52) 
321.424

>  <HeavyAtomMolWt>  (52) 
298.24

>  <ExactMolWt>  (52) 
321.183015

>  <NumValenceElectrons>  (52) 
122

>  <NumRadicalElectrons>  (52) 
0

>  <MaxPartialCharge>  (52) 
0.255304

>  <MinPartialCharge>  (52) 
-0.350271

>  <MaxAbsPartialCharge>  (52) 
0.350271

>  <MinAbsPartialCharge>  (52) 
0.255304

>  <FpDensityMorgan1>  (52) 
1.125

>  <FpDensityMorgan2>  (52) 
2.0

>  <FpDensityMorgan3>  (52) 
2.833333

>  <BCUT2D_MWHI>  (52) 
16.137917

>  <BCUT2D_MWLOW>  (52) 
10.000805

>  <BCUT2D_CHGHI>  (52) 
2.250079

>  <BCUT2D_CHGLO>  (52) 
-2.12548

>  <BCUT2D_LOGPHI>  (52) 
2.233228

>  <BCUT2D_LOGPLOW>  (52) 
-3.093709

>  <BCUT2D_MRHI>  (52) 
5.860189

>  <BCUT2D_MRLOW>  (52) 
-0.905298

>  <AvgIpc>  (52) 
2.998007

>  <BalabanJ>  (52) 
1.642192

>  <BertzCT>  (52) 
931.315321

>  <Chi0>  (52) 
16.518297

>  <Chi0n>  (52) 
13.717285

>  <Chi0v>  (52) 
13.717285

>  <Chi1>  (52) 
11.686673

>  <Chi1n>  (52) 
8.563167

>  <Chi1v>  (52) 
8.563167

>  <Chi2n>  (52) 
6.844804

>  <Chi2v>  (52) 
6.844804

>  <Chi3n>  (52) 
4.971441

>  <Chi3v>  (52) 
4.971441

>  <Chi4n>  (52) 
3.702554

>  <Chi4v>  (52) 
3.702554

>  <HallKierAlpha>  (52) 
-2.43

>  <Ipc>  (52) 
550344.178215

>  <Kappa1>  (52) 
15.11849

>  <Kappa2>  (52) 
6.226561

>  <Kappa3>  (52) 
2.982279

>  <LabuteASA>  (52) 
140.469936

>  <PEOE_VSA1>  (52) 
15.617556

>  <PEOE_VSA10>  (52) 
19.131354

>  <PEOE_VSA11>  (52) 
0.0

>  <PEOE_VSA12>  (52) 
0.0

>  <PEOE_VSA13>  (52) 
5.559267

>  <PEOE_VSA14>  (52) 
0.0

>  <PEOE_VSA2>  (52) 
4.794537

>  <PEOE_VSA3>  (52) 
0.0

>  <PEOE_VSA4>  (52) 
0.0

>  <PEOE_VSA5>  (52) 
0.0

>  <PEOE_VSA6>  (52) 
24.265468

>  <PEOE_VSA7>  (52) 
40.778595

>  <PEOE_VSA8>  (52) 
17.146519

>  <PEOE_VSA9>  (52) 
12.965578

>  <SMR_VSA1>  (52) 
10.633577

>  <SMR_VSA10>  (52) 
10.772448

>  <SMR_VSA2>  (52) 
0.0

>  <SMR_VSA3>  (52) 
4.983979

>  <SMR_VSA4>  (52) 
0.0

>  <SMR_VSA5>  (52) 
19.007419

>  <SMR_VSA6>  (52) 
13.089513

>  <SMR_VSA7>  (52) 
70.645036

>  <SMR_VSA8>  (52) 
0.0

>  <SMR_VSA9>  (52) 
11.126903

>  <SlogP_VSA1>  (52) 
16.192844

>  <SlogP_VSA10>  (52) 
0.0

>  <SlogP_VSA11>  (52) 
0.0

>  <SlogP_VSA12>  (52) 
0.0

>  <SlogP_VSA2>  (52) 
24.115332

>  <SlogP_VSA3>  (52) 
6.544756

>  <SlogP_VSA4>  (52) 
0.0

>  <SlogP_VSA5>  (52) 
11.984273

>  <SlogP_VSA6>  (52) 
59.522317

>  <SlogP_VSA7>  (52) 
0.0

>  <SlogP_VSA8>  (52) 
21.899351

>  <SlogP_VSA9>  (52) 
0.0

>  <EState_VSA1>  (52) 
0.0

>  <EState_VSA10>  (52) 
4.794537

>  <EState_VSA11>  (52) 
0.0

>  <EState_VSA2>  (52) 
5.559267

>  <EState_VSA3>  (52) 
6.041841

>  <EState_VSA4>  (52) 
22.880656

>  <EState_VSA5>  (52) 
30.637237

>  <EState_VSA6>  (52) 
11.096753

>  <EState_VSA7>  (52) 
18.199101

>  <EState_VSA8>  (52) 
41.049481

>  <EState_VSA9>  (52) 
0.0

>  <VSA_EState1>  (52) 
0.0

>  <VSA_EState10>  (52) 
0.0

>  <VSA_EState2>  (52) 
16.182526

>  <VSA_EState3>  (52) 
1.714929

>  <VSA_EState4>  (52) 
7.872961

>  <VSA_EState5>  (52) 
0.0

>  <VSA_EState6>  (52) 
17.342397

>  <VSA_EState7>  (52) 
2.935565

>  <VSA_EState8>  (52) 
3.451621

>  <VSA_EState9>  (52) 
0.0

>  <FractionCSP3>  (52) 
0.25

>  <HeavyAtomCount>  (52) 
24

>  <NHOHCount>  (52) 
5

>  <NOCount>  (52) 
4

>  <NumAliphaticCarbocycles>  (52) 
0

>  <NumAliphaticHeterocycles>  (52) 
1

>  <NumAliphaticRings>  (52) 
1

>  <NumAromaticCarbocycles>  (52) 
2

>  <NumAromaticHeterocycles>  (52) 
1

>  <NumAromaticRings>  (52) 
3

>  <NumHAcceptors>  (52) 
1

>  <NumHDonors>  (52) 
3

>  <NumHeteroatoms>  (52) 
4

>  <NumRotatableBonds>  (52) 
3

>  <NumSaturatedCarbocycles>  (52) 
0

>  <NumSaturatedHeterocycles>  (52) 
1

>  <NumSaturatedRings>  (52) 
1

>  <RingCount>  (52) 
4

>  <MolLogP>  (52) 
0.5942

>  <MolMR>  (52) 
95.6985

>  <fr_Al_COO>  (52) 
0

>  <fr_Al_OH>  (52) 
0

>  <fr_Al_OH_noTert>  (52) 
0

>  <fr_ArN>  (52) 
0

>  <fr_Ar_COO>  (52) 
0

>  <fr_Ar_N>  (52) 
1

>  <fr_Ar_NH>  (52) 
1

>  <fr_Ar_OH>  (52) 
0

>  <fr_COO>  (52) 
0

>  <fr_COO2>  (52) 
0

>  <fr_C_O>  (52) 
0

>  <fr_C_O_noCOO>  (52) 
0

>  <fr_C_S>  (52) 
0

>  <fr_HOCCN>  (52) 
0

>  <fr_Imine>  (52) 
0

>  <fr_NH0>  (52) 
0

>  <fr_NH1>  (52) 
2

>  <fr_NH2>  (52) 
0

>  <fr_N_O>  (52) 
0

>  <fr_Ndealkylation1>  (52) 
0

>  <fr_Ndealkylation2>  (52) 
1

>  <fr_Nhpyrrole>  (52) 
1

>  <fr_SH>  (52) 
0

>  <fr_aldehyde>  (52) 
0

>  <fr_alkyl_carbamate>  (52) 
0

>  <fr_alkyl_halide>  (52) 
0

>  <fr_allylic_oxid>  (52) 
0

>  <fr_amide>  (52) 
0

>  <fr_amidine>  (52) 
0

>  <fr_aniline>  (52) 
0

>  <fr_aryl_methyl>  (52) 
0

>  <fr_azide>  (52) 
0

>  <fr_azo>  (52) 
0

>  <fr_barbitur>  (52) 
0

>  <fr_benzene>  (52) 
2

>  <fr_benzodiazepine>  (52) 
0

>  <fr_bicyclic>  (52) 
1

>  <fr_diazo>  (52) 
0

>  <fr_dihydropyridine>  (52) 
0

>  <fr_epoxide>  (52) 
0

>  <fr_ester>  (52) 
0

>  <fr_ether>  (52) 
0

>  <fr_furan>  (52) 
0

>  <fr_guanido>  (52) 
0

>  <fr_halogen>  (52) 
0

>  <fr_hdrzine>  (52) 
0

>  <fr_hdrzone>  (52) 
0

>  <fr_imidazole>  (52) 
0

>  <fr_imide>  (52) 
0

>  <fr_isocyan>  (52) 
0

>  <fr_isothiocyan>  (52) 
0

>  <fr_ketone>  (52) 
0

>  <fr_ketone_Topliss>  (52) 
0

>  <fr_lactam>  (52) 
0

>  <fr_lactone>  (52) 
0

>  <fr_methoxy>  (52) 
0

>  <fr_morpholine>  (52) 
0

>  <fr_nitrile>  (52) 
0

>  <fr_nitro>  (52) 
0

>  <fr_nitro_arom>  (52) 
0

>  <fr_nitro_arom_nonortho>  (52) 
0

>  <fr_nitroso>  (52) 
0

>  <fr_oxazole>  (52) 
0

>  <fr_oxime>  (52) 
0

>  <fr_para_hydroxylation>  (52) 
0

>  <fr_phenol>  (52) 
0

>  <fr_phenol_noOrthoHbond>  (52) 
0

>  <fr_phos_acid>  (52) 
0

>  <fr_phos_ester>  (52) 
0

>  <fr_piperdine>  (52) 
0

>  <fr_piperzine>  (52) 
0

>  <fr_priamide>  (52) 
0

>  <fr_prisulfonamd>  (52) 
0

>  <fr_pyridine>  (52) 
1

>  <fr_quatN>  (52) 
2

>  <fr_sulfide>  (52) 
0

>  <fr_sulfonamd>  (52) 
0

>  <fr_sulfone>  (52) 
0

>  <fr_term_acetylene>  (52) 
0

>  <fr_tetrazole>  (52) 
0

>  <fr_thiazole>  (52) 
0

>  <fr_thiocyan>  (52) 
0

>  <fr_thiophene>  (52) 
0

>  <fr_unbrch_alkane>  (52) 
0

>  <fr_urea>  (52) 
0

>  <NP_Likeness>  (52) 
-0.111636

$$$$
7W8
     RDKit          3D

  0  0  0  0  0  0  0  0  0  0999 V3000
M  V30 BEGIN CTAB
M  V30 COUNTS 32 34 0 0 0
M  V30 BEGIN ATOM
M  V30 1 F -5.067000 9.173000 -8.935000 0
M  V30 2 N -12.711000 9.505000 -6.985000 0
M  V30 3 N -12.274000 13.393000 -7.186000 0
M  V30 4 N -9.867000 13.309000 -7.488000 0
M  V30 5 C -2.499000 13.824000 -7.077000 0
M  V30 6 C -11.959000 10.353000 -7.082000 0
M  V30 7 C -3.101000 10.382000 -8.563000 0
M  V30 8 C -2.466000 11.521000 -8.098000 0
M  V30 9 C -7.386000 9.992000 -7.529000 0
M  V30 10 C -8.758000 9.911000 -7.351000 0
M  V30 11 C -7.502000 12.395000 -7.705000 0
M  V30 12 C -4.560000 12.395000 -7.354000 0
M  V30 13 C -11.104000 12.719000 -7.286000 0
M  V30 14 C -4.466000 10.286000 -8.430000 0
M  V30 15 C -8.888000 12.305000 -7.532000 0
M  V30 16 C -3.182000 12.545000 -7.499000 0
M  V30 17 C -6.736000 11.219000 -7.700000 0
M  V30 18 C -10.936000 11.346000 -7.193000 0
M  V30 19 C -5.246000 11.274000 -7.828000 0
M  V30 20 C -9.529000 11.067000 -7.350000 0
M  V30 21 H -13.127900 12.893500 -7.039700 0
M  V30 22 H -12.284300 14.390300 -7.258400 0
M  V30 23 H -9.699300 14.289900 -7.586400 0
M  V30 24 H -3.170600 14.440800 -6.666500 0
M  V30 25 H -1.785200 13.615800 -6.408300 0
M  V30 26 H -2.088900 14.262400 -7.876700 0
M  V30 27 H -2.577000 9.643500 -8.987300 0
M  V30 28 H -1.474500 11.606100 -8.196000 0
M  V30 29 H -6.845900 9.150400 -7.535400 0
M  V30 30 H -9.193500 9.019900 -7.223200 0
M  V30 31 H -7.063600 13.285000 -7.830400 0
M  V30 32 H -5.077000 13.116600 -6.893500 0
M  V30 END ATOM
M  V30 BEGIN BOND
M  V30 1 1 1 14
M  V30 2 3 2 6
M  V30 3 1 3 13
M  V30 4 1 4 13
M  V30 5 1 4 15
M  V30 6 1 5 16
M  V30 7 1 6 18
M  V30 8 2 7 8
M  V30 9 1 7 14
M  V30 10 1 8 16
M  V30 11 1 9 10
M  V30 12 2 9 17
M  V30 13 2 10 20
M  V30 14 2 11 15
M  V30 15 1 11 17
M  V30 16 2 12 16
M  V30 17 1 12 19
M  V30 18 2 13 18
M  V30 19 2 14 19
M  V30 20 1 15 20
M  V30 21 1 17 19
M  V30 22 1 18 20
M  V30 23 1 3 21
M  V30 24 1 3 22
M  V30 25 1 4 23
M  V30 26 1 5 24
M  V30 27 1 5 25
M  V30 28 1 5 26
M  V30 29 1 7 27
M  V30 30 1 8 28
M  V30 31 1 9 29
M  V30 32 1 10 30
M  V30 33 1 11 31
M  V30 34 1 12 32
M  V30 END BOND
M  V30 END CTAB
M  END
>  <Ligand_Instance>  (53) 
7PNS_7W8_A_402

>  <Dataset>  (53) 
PDB

>  <PDB_ID>  (53) 
7PNS

>  <Chain>  (53) 
A

>  <Resi>  (53) 
402

>  <Num_Resolved_Atoms>  (53) 
20

>  <Num_H_Atoms_ProtBoundConf>  (53) 
12

>  <Pocket>  (53) 
A

>  <Name>  (53) 
2-azanyl-6-[5-[(dimethylamino)methyl]-2-fluoranyl-phenyl]-1H-indole-3-carbonitrile

>  <Num_Not_Resolved_Atoms>  (53) 
3

>  <ATP_Site>  (53) 
True

>  <Peripheral>  (53) 
False

>  <Standardized_SMILES>  (53) 
[H]C1=C(F)C(C2=C([H])C([H])=C3C(C#N)=C(N([H])[H])N([H])C3=C2[H])=C([H])C(C([H])([H])[H])=C1[H]

>  <2D_Mol_H>  (53) 
<rdkit.Chem.rdchem.Mol object at 0x77059d9e4f90>

>  <MW>  (53) 
265.291

>  <HBA>  (53) 
2

>  <HBD>  (53) 
2

>  <LogP>  (53) 
3.7363

>  <NRB>  (53) 
3

>  <TPSA>  (53) 
65.6

>  <Num_Heavy_Atoms>  (53) 
20

>  <Ro5>  (53) 
[True, True, True, True, True, True]

>  <Ro5_Fulfilled>  (53) 
True

>  <Ro3>  (53) 
[True, True, True, False]

>  <Ro3_Fulfilled>  (53) 
True

>  <Fsp3>  (53) 
0.0625

>  <Fsp3_0.42>  (53) 
False

>  <Fsp3_0.45>  (53) 
False

>  <Stereogenic_Carbons>  (53) 
0

>  <C_Atoms>  (53) 
16

>  <FCStereo>  (53) 
0.0

>  <SPS>  (53) 
213

>  <nSPS>  (53) 
10.65

>  <PBF>  (53) 
0.397927

>  <PBF_0.6>  (53) 
False

>  <nPBF>  (53) 
0.019896

>  <nPBF_0.016>  (53) 
True

>  <PMI1>  (53) 
603.25472

>  <PMI2>  (53) 
3134.89232

>  <PMI3>  (53) 
3663.689633

>  <NPR1>  (53) 
0.164658

>  <NPR2>  (53) 
0.855665

>  <Sum_NPR>  (53) 
1.020323

>  <Sum_NPR_1.07>  (53) 
False

>  <Sum_NPR_1.2>  (53) 
False

>  <MaxAbsEStateIndex>  (53) 
13.918827

>  <MaxEStateIndex>  (53) 
13.918827

>  <MinAbsEStateIndex>  (53) 
0.268533

>  <MinEStateIndex>  (53) 
-0.268533

>  <qed>  (53) 
0.703558

>  <MolWt>  (53) 
265.291

>  <HeavyAtomMolWt>  (53) 
253.195

>  <ExactMolWt>  (53) 
265.101526

>  <NumValenceElectrons>  (53) 
98

>  <NumRadicalElectrons>  (53) 
0

>  <MaxPartialCharge>  (53) 
0.130545

>  <MinPartialCharge>  (53) 
-0.384135

>  <MaxAbsPartialCharge>  (53) 
0.384135

>  <MinAbsPartialCharge>  (53) 
0.130545

>  <FpDensityMorgan1>  (53) 
1.2

>  <FpDensityMorgan2>  (53) 
2.0

>  <FpDensityMorgan3>  (53) 
2.75

>  <BCUT2D_MWHI>  (53) 
19.14219

>  <BCUT2D_MWLOW>  (53) 
10.00911

>  <BCUT2D_CHGHI>  (53) 
2.110219

>  <BCUT2D_CHGLO>  (53) 
-2.048921

>  <BCUT2D_LOGPHI>  (53) 
2.298771

>  <BCUT2D_LOGPLOW>  (53) 
-1.85685

>  <BCUT2D_MRHI>  (53) 
5.933339

>  <BCUT2D_MRLOW>  (53) 
0.630711

>  <AvgIpc>  (53) 
2.752134

>  <BalabanJ>  (53) 
2.238627

>  <BertzCT>  (53) 
856.019868

>  <Chi0>  (53) 
14.275656

>  <Chi0n>  (53) 
10.86663

>  <Chi0v>  (53) 
10.86663

>  <Chi1>  (53) 
9.596555

>  <Chi1n>  (53) 
6.177332

>  <Chi1v>  (53) 
6.177332

>  <Chi2n>  (53) 
4.769142

>  <Chi2v>  (53) 
4.769142

>  <Chi3n>  (53) 
3.372252

>  <Chi3v>  (53) 
3.372252

>  <Chi4n>  (53) 
2.366668

>  <Chi4v>  (53) 
2.366668

>  <HallKierAlpha>  (53) 
-2.8

>  <Ipc>  (53) 
48921.940812

>  <Kappa1>  (53) 
12.244922

>  <Kappa2>  (53) 
4.389717

>  <Kappa3>  (53) 
1.805618

>  <LabuteASA>  (53) 
115.007212

>  <PEOE_VSA1>  (53) 
10.717646

>  <PEOE_VSA10>  (53) 
23.267756

>  <PEOE_VSA11>  (53) 
0.0

>  <PEOE_VSA12>  (53) 
0.0

>  <PEOE_VSA13>  (53) 
0.0

>  <PEOE_VSA14>  (53) 
0.0

>  <PEOE_VSA2>  (53) 
0.0

>  <PEOE_VSA3>  (53) 
4.390415

>  <PEOE_VSA4>  (53) 
5.261892

>  <PEOE_VSA5>  (53) 
0.0

>  <PEOE_VSA6>  (53) 
23.762553

>  <PEOE_VSA7>  (53) 
30.68629

>  <PEOE_VSA8>  (53) 
16.466376

>  <PEOE_VSA9>  (53) 
0.0

>  <SMR_VSA1>  (53) 
4.390415

>  <SMR_VSA10>  (53) 
16.720788

>  <SMR_VSA2>  (53) 
5.261892

>  <SMR_VSA3>  (53) 
4.983979

>  <SMR_VSA4>  (53) 
0.0

>  <SMR_VSA5>  (53) 
6.923737

>  <SMR_VSA6>  (53) 
5.733667

>  <SMR_VSA7>  (53) 
53.342326

>  <SMR_VSA8>  (53) 
0.0

>  <SMR_VSA9>  (53) 
17.196124

>  <SlogP_VSA1>  (53) 
5.733667

>  <SlogP_VSA10>  (53) 
10.208278

>  <SlogP_VSA11>  (53) 
0.0

>  <SlogP_VSA12>  (53) 
0.0

>  <SlogP_VSA2>  (53) 
4.983979

>  <SlogP_VSA3>  (53) 
0.0

>  <SlogP_VSA4>  (53) 
24.072071

>  <SlogP_VSA5>  (53) 
11.126903

>  <SlogP_VSA6>  (53) 
36.398202

>  <SlogP_VSA7>  (53) 
0.0

>  <SlogP_VSA8>  (53) 
22.029828

>  <SlogP_VSA9>  (53) 
0.0

>  <EState_VSA1>  (53) 
0.0

>  <EState_VSA10>  (53) 
4.390415

>  <EState_VSA11>  (53) 
0.0

>  <EState_VSA2>  (53) 
5.817221

>  <EState_VSA3>  (53) 
16.944766

>  <EState_VSA4>  (53) 
22.029828

>  <EState_VSA5>  (53) 
6.066367

>  <EState_VSA6>  (53) 
24.265468

>  <EState_VSA7>  (53) 
12.990104

>  <EState_VSA8>  (53) 
11.0532

>  <EState_VSA9>  (53) 
10.995559

>  <VSA_EState1>  (53) 
13.918827

>  <VSA_EState10>  (53) 
0.0

>  <VSA_EState2>  (53) 
2.955035

>  <VSA_EState3>  (53) 
9.813854

>  <VSA_EState4>  (53) 
9.200739

>  <VSA_EState5>  (53) 
0.068842

>  <VSA_EState6>  (53) 
12.457499

>  <VSA_EState7>  (53) 
0.0

>  <VSA_EState8>  (53) 
1.918538

>  <VSA_EState9>  (53) 
0.0

>  <FractionCSP3>  (53) 
0.0625

>  <HeavyAtomCount>  (53) 
20

>  <NHOHCount>  (53) 
3

>  <NOCount>  (53) 
3

>  <NumAliphaticCarbocycles>  (53) 
0

>  <NumAliphaticHeterocycles>  (53) 
0

>  <NumAliphaticRings>  (53) 
0

>  <NumAromaticCarbocycles>  (53) 
2

>  <NumAromaticHeterocycles>  (53) 
1

>  <NumAromaticRings>  (53) 
3

>  <NumHAcceptors>  (53) 
2

>  <NumHDonors>  (53) 
2

>  <NumHeteroatoms>  (53) 
4

>  <NumRotatableBonds>  (53) 
1

>  <NumSaturatedCarbocycles>  (53) 
0

>  <NumSaturatedHeterocycles>  (53) 
0

>  <NumSaturatedRings>  (53) 
0

>  <RingCount>  (53) 
3

>  <MolLogP>  (53) 
3.7363

>  <MolMR>  (53) 
77.5571

>  <fr_Al_COO>  (53) 
0

>  <fr_Al_OH>  (53) 
0

>  <fr_Al_OH_noTert>  (53) 
0

>  <fr_ArN>  (53) 
1

>  <fr_Ar_COO>  (53) 
0

>  <fr_Ar_N>  (53) 
1

>  <fr_Ar_NH>  (53) 
1

>  <fr_Ar_OH>  (53) 
0

>  <fr_COO>  (53) 
0

>  <fr_COO2>  (53) 
0

>  <fr_C_O>  (53) 
0

>  <fr_C_O_noCOO>  (53) 
0

>  <fr_C_S>  (53) 
0

>  <fr_HOCCN>  (53) 
0

>  <fr_Imine>  (53) 
0

>  <fr_NH0>  (53) 
1

>  <fr_NH1>  (53) 
1

>  <fr_NH2>  (53) 
1

>  <fr_N_O>  (53) 
0

>  <fr_Ndealkylation1>  (53) 
0

>  <fr_Ndealkylation2>  (53) 
0

>  <fr_Nhpyrrole>  (53) 
1

>  <fr_SH>  (53) 
0

>  <fr_aldehyde>  (53) 
0

>  <fr_alkyl_carbamate>  (53) 
0

>  <fr_alkyl_halide>  (53) 
0

>  <fr_allylic_oxid>  (53) 
0

>  <fr_amide>  (53) 
0

>  <fr_amidine>  (53) 
0

>  <fr_aniline>  (53) 
1

>  <fr_aryl_methyl>  (53) 
1

>  <fr_azide>  (53) 
0

>  <fr_azo>  (53) 
0

>  <fr_barbitur>  (53) 
0

>  <fr_benzene>  (53) 
2

>  <fr_benzodiazepine>  (53) 
0

>  <fr_bicyclic>  (53) 
1

>  <fr_diazo>  (53) 
0

>  <fr_dihydropyridine>  (53) 
0

>  <fr_epoxide>  (53) 
0

>  <fr_ester>  (53) 
0

>  <fr_ether>  (53) 
0

>  <fr_furan>  (53) 
0

>  <fr_guanido>  (53) 
0

>  <fr_halogen>  (53) 
1

>  <fr_hdrzine>  (53) 
0

>  <fr_hdrzone>  (53) 
0

>  <fr_imidazole>  (53) 
0

>  <fr_imide>  (53) 
0

>  <fr_isocyan>  (53) 
0

>  <fr_isothiocyan>  (53) 
0

>  <fr_ketone>  (53) 
0

>  <fr_ketone_Topliss>  (53) 
0

>  <fr_lactam>  (53) 
0

>  <fr_lactone>  (53) 
0

>  <fr_methoxy>  (53) 
0

>  <fr_morpholine>  (53) 
0

>  <fr_nitrile>  (53) 
1

>  <fr_nitro>  (53) 
0

>  <fr_nitro_arom>  (53) 
0

>  <fr_nitro_arom_nonortho>  (53) 
0

>  <fr_nitroso>  (53) 
0

>  <fr_oxazole>  (53) 
0

>  <fr_oxime>  (53) 
0

>  <fr_para_hydroxylation>  (53) 
0

>  <fr_phenol>  (53) 
0

>  <fr_phenol_noOrthoHbond>  (53) 
0

>  <fr_phos_acid>  (53) 
0

>  <fr_phos_ester>  (53) 
0

>  <fr_piperdine>  (53) 
0

>  <fr_piperzine>  (53) 
0

>  <fr_priamide>  (53) 
0

>  <fr_prisulfonamd>  (53) 
0

>  <fr_pyridine>  (53) 
0

>  <fr_quatN>  (53) 
0

>  <fr_sulfide>  (53) 
0

>  <fr_sulfonamd>  (53) 
0

>  <fr_sulfone>  (53) 
0

>  <fr_term_acetylene>  (53) 
0

>  <fr_tetrazole>  (53) 
0

>  <fr_thiazole>  (53) 
0

>  <fr_thiocyan>  (53) 
0

>  <fr_thiophene>  (53) 
0

>  <fr_unbrch_alkane>  (53) 
0

>  <fr_urea>  (53) 
0

>  <NP_Likeness>  (53) 
-1.019338

$$$$
8BQ
     RDKit          3D

  0  0  0  0  0  0  0  0  0  0999 V3000
M  V30 BEGIN CTAB
M  V30 COUNTS 39 42 0 0 0
M  V30 BEGIN ATOM
M  V30 1 F -23.342000 10.837000 -1.707000 0
M  V30 2 O -32.977000 10.260000 4.596000 0
M  V30 3 O -25.476000 11.632000 3.778000 0
M  V30 4 N -25.099000 7.353000 3.161000 0
M  V30 5 N -32.943000 9.973000 2.337000 0
M  V30 6 N -30.774000 9.507000 1.197000 0
M  V30 7 C -32.200000 9.710000 1.132000 0
M  V30 8 C -23.169000 13.488000 0.689000 0
M  V30 9 C -24.498000 8.417000 2.692000 0
M  V30 10 C -26.511000 7.813000 3.733000 0
M  V30 11 C -22.988000 12.742000 -0.511000 0
M  V30 12 C -23.872000 12.905000 1.750000 0
M  V30 13 C -28.763000 9.711000 4.961000 0
M  V30 14 C -30.119000 9.898000 4.909000 0
M  V30 15 C -24.218000 10.919000 0.474000 0
M  V30 16 C -28.709000 9.385000 2.546000 0
M  V30 17 C -23.494000 11.522000 -0.612000 0
M  V30 18 C -32.314000 10.041000 3.580000 0
M  V30 19 C -25.170000 10.969000 2.757000 0
M  V30 20 C -30.116000 9.577000 2.490000 0
M  V30 21 C -24.388000 11.622000 1.627000 0
M  V30 22 C -28.053000 9.439000 3.746000 0
M  V30 23 C -30.815000 9.834000 3.654000 0
M  V30 24 C -25.639000 9.517000 2.579000 0 CFG=2
M  V30 25 C -26.509000 9.180000 3.748000 0 CFG=2
M  V30 26 H -33.932000 10.109900 2.281400 0
M  V30 27 H -32.672200 9.668200 0.251500 0
M  V30 28 H -22.799700 14.413600 0.772200 0
M  V30 29 H -23.531300 8.516000 2.456200 0
M  V30 30 H -26.638000 7.459400 4.659700 0
M  V30 31 H -27.246200 7.476900 3.144300 0
M  V30 32 H -22.480000 13.138500 -1.275600 0
M  V30 33 H -24.003100 13.414900 2.600200 0
M  V30 34 H -28.276100 9.763400 5.832900 0
M  V30 35 H -30.627800 10.080300 5.750300 0
M  V30 36 H -24.591500 9.995800 0.383500 0
M  V30 37 H -28.196300 9.209800 1.705500 0
M  V30 38 H -26.144600 9.413000 1.722500 0
M  V30 39 H -26.100100 9.518400 4.595500 0
M  V30 END ATOM
M  V30 BEGIN BOND
M  V30 1 1 1 17
M  V30 2 2 2 18
M  V30 3 2 3 19
M  V30 4 2 4 9
M  V30 5 1 4 10
M  V30 6 1 5 7
M  V30 7 1 5 18
M  V30 8 2 6 7
M  V30 9 1 6 20
M  V30 10 2 8 11
M  V30 11 1 8 12
M  V30 12 1 9 24
M  V30 13 1 10 25
M  V30 14 1 11 17
M  V30 15 2 12 21
M  V30 16 1 13 14
M  V30 17 2 13 22
M  V30 18 2 14 23
M  V30 19 2 15 17
M  V30 20 1 15 21
M  V30 21 2 16 20
M  V30 22 1 16 22
M  V30 23 1 18 23
M  V30 24 1 19 21
M  V30 25 1 19 24
M  V30 26 1 20 23
M  V30 27 1 22 25
M  V30 28 1 24 25
M  V30 29 1 5 26
M  V30 30 1 7 27
M  V30 31 1 8 28
M  V30 32 1 9 29
M  V30 33 1 10 30
M  V30 34 1 10 31
M  V30 35 1 11 32
M  V30 36 1 12 33
M  V30 37 1 13 34
M  V30 38 1 14 35
M  V30 39 1 15 36
M  V30 40 1 16 37
M  V30 41 1 24 38 CFG=3
M  V30 42 1 25 39 CFG=1
M  V30 END BOND
M  V30 END CTAB
M  END
>  <Ligand_Instance>  (54) 
4UJB_8BQ_A_1351

>  <Dataset>  (54) 
PDB

>  <PDB_ID>  (54) 
4UJB

>  <Chain>  (54) 
A

>  <Resi>  (54) 
1351

>  <Num_Resolved_Atoms>  (54) 
25

>  <Num_H_Atoms_ProtBoundConf>  (54) 
14

>  <Pocket>  (54) 
A

>  <Name>  (54) 
7-[(3S,4R)-4-(3-fluorophenyl)carbonylpyrrolidin-3-yl]-3H-quinazolin-4-one

>  <Num_Not_Resolved_Atoms>  (54) 
0

>  <ATP_Site>  (54) 
True

>  <Peripheral>  (54) 
False

>  <Standardized_SMILES>  (54) 
[H]C1=NC2=C([H])C([C@@]3([H])C([H])([H])N=C([H])[C@]3([H])C(=O)C3=C([H])C([H])=C([H])C(F)=C3[H])=C([H])C([H])=C2C(=O)N1[H]

>  <2D_Mol_H>  (54) 
<rdkit.Chem.rdchem.Mol object at 0x77059d9e5070>

>  <MW>  (54) 
335.338

>  <HBA>  (54) 
4

>  <HBD>  (54) 
1

>  <LogP>  (54) 
2.7293

>  <NRB>  (54) 
3

>  <TPSA>  (54) 
75.18

>  <Num_Heavy_Atoms>  (54) 
25

>  <Ro5>  (54) 
[True, True, True, True, True, True]

>  <Ro5_Fulfilled>  (54) 
True

>  <Ro3>  (54) 
[False, False, True, True]

>  <Ro3_Fulfilled>  (54) 
False

>  <Fsp3>  (54) 
0.157895

>  <Fsp3_0.42>  (54) 
False

>  <Fsp3_0.45>  (54) 
False

>  <Stereogenic_Carbons>  (54) 
2

>  <C_Atoms>  (54) 
19

>  <FCStereo>  (54) 
0.105263

>  <SPS>  (54) 
485

>  <nSPS>  (54) 
19.4

>  <PBF>  (54) 
1.090742

>  <PBF_0.6>  (54) 
True

>  <nPBF>  (54) 
0.04363

>  <nPBF_0.016>  (54) 
True

>  <PMI1>  (54) 
1305.964663

>  <PMI2>  (54) 
4829.206905

>  <PMI3>  (54) 
5220.038063

>  <NPR1>  (54) 
0.250183

>  <NPR2>  (54) 
0.925129

>  <Sum_NPR>  (54) 
1.175312

>  <Sum_NPR_1.07>  (54) 
True

>  <Sum_NPR_1.2>  (54) 
False

>  <MaxAbsEStateIndex>  (54) 
13.420201

>  <MaxEStateIndex>  (54) 
13.420201

>  <MinAbsEStateIndex>  (54) 
0.151616

>  <MinEStateIndex>  (54) 
-0.457179

>  <qed>  (54) 
0.74792

>  <MolWt>  (54) 
335.338

>  <HeavyAtomMolWt>  (54) 
321.226

>  <ExactMolWt>  (54) 
335.107005

>  <NumValenceElectrons>  (54) 
124

>  <NumRadicalElectrons>  (54) 
0

>  <MaxPartialCharge>  (54) 
0.258052

>  <MinPartialCharge>  (54) 
-0.312614

>  <MaxAbsPartialCharge>  (54) 
0.312614

>  <MinAbsPartialCharge>  (54) 
0.258052

>  <FpDensityMorgan1>  (54) 
1.2

>  <FpDensityMorgan2>  (54) 
2.08

>  <FpDensityMorgan3>  (54) 
2.92

>  <BCUT2D_MWHI>  (54) 
19.142145

>  <BCUT2D_MWLOW>  (54) 
9.832111

>  <BCUT2D_CHGHI>  (54) 
2.32151

>  <BCUT2D_CHGLO>  (54) 
-2.174742

>  <BCUT2D_LOGPHI>  (54) 
2.316074

>  <BCUT2D_LOGPLOW>  (54) 
-2.216696

>  <BCUT2D_MRHI>  (54) 
6.072533

>  <BCUT2D_MRLOW>  (54) 
0.094729

>  <AvgIpc>  (54) 
3.105067

>  <BalabanJ>  (54) 
1.70377

>  <BertzCT>  (54) 
1057.718603

>  <Chi0>  (54) 
17.388541

>  <Chi0n>  (54) 
13.146848

>  <Chi0v>  (54) 
13.146848

>  <Chi1>  (54) 
12.13103

>  <Chi1n>  (54) 
7.903804

>  <Chi1v>  (54) 
7.903804

>  <Chi2n>  (54) 
6.029341

>  <Chi2v>  (54) 
6.029341

>  <Chi3n>  (54) 
4.507339

>  <Chi3v>  (54) 
4.507339

>  <Chi4n>  (54) 
3.219122

>  <Chi4v>  (54) 
3.219122

>  <HallKierAlpha>  (54) 
-3.15

>  <Ipc>  (54) 
901050.141588

>  <Kappa1>  (54) 
15.381928

>  <Kappa2>  (54) 
6.049954

>  <Kappa3>  (54) 
2.755696

>  <LabuteASA>  (54) 
141.812239

>  <PEOE_VSA1>  (54) 
4.983979

>  <PEOE_VSA10>  (54) 
5.817221

>  <PEOE_VSA11>  (54) 
5.783245

>  <PEOE_VSA12>  (54) 
0.0

>  <PEOE_VSA13>  (54) 
5.559267

>  <PEOE_VSA14>  (54) 
0.0

>  <PEOE_VSA2>  (54) 
14.581479

>  <PEOE_VSA3>  (54) 
9.374394

>  <PEOE_VSA4>  (54) 
0.0

>  <PEOE_VSA5>  (54) 
0.0

>  <PEOE_VSA6>  (54) 
18.199101

>  <PEOE_VSA7>  (54) 
29.82892

>  <PEOE_VSA8>  (54) 
24.240715

>  <PEOE_VSA9>  (54) 
23.148151

>  <SMR_VSA1>  (54) 
9.184952

>  <SMR_VSA10>  (54) 
22.90077

>  <SMR_VSA2>  (54) 
0.0

>  <SMR_VSA3>  (54) 
9.967957

>  <SMR_VSA4>  (54) 
10.910311

>  <SMR_VSA5>  (54) 
5.917906

>  <SMR_VSA6>  (54) 
6.544756

>  <SMR_VSA7>  (54) 
76.089817

>  <SMR_VSA8>  (54) 
0.0

>  <SMR_VSA9>  (54) 
0.0

>  <SlogP_VSA1>  (54) 
5.559267

>  <SlogP_VSA10>  (54) 
4.390415

>  <SlogP_VSA11>  (54) 
0.0

>  <SlogP_VSA12>  (54) 
0.0

>  <SlogP_VSA2>  (54) 
28.510559

>  <SlogP_VSA3>  (54) 
0.0

>  <SlogP_VSA4>  (54) 
11.735127

>  <SlogP_VSA5>  (54) 
21.839346

>  <SlogP_VSA6>  (54) 
58.578831

>  <SlogP_VSA7>  (54) 
0.0

>  <SlogP_VSA8>  (54) 
10.902925

>  <SlogP_VSA9>  (54) 
0.0

>  <EState_VSA1>  (54) 
11.735127

>  <EState_VSA10>  (54) 
13.979489

>  <EState_VSA11>  (54) 
0.0

>  <EState_VSA2>  (54) 
17.260418

>  <EState_VSA3>  (54) 
23.011133

>  <EState_VSA4>  (54) 
5.563451

>  <EState_VSA5>  (54) 
24.526421

>  <EState_VSA6>  (54) 
18.347335

>  <EState_VSA7>  (54) 
12.132734

>  <EState_VSA8>  (54) 
14.960362

>  <EState_VSA9>  (54) 
0.0

>  <VSA_EState1>  (54) 
13.420201

>  <VSA_EState10>  (54) 
0.0

>  <VSA_EState2>  (54) 
35.543219

>  <VSA_EState3>  (54) 
0.498308

>  <VSA_EState4>  (54) 
1.590996

>  <VSA_EState5>  (54) 
-1.209553

>  <VSA_EState6>  (54) 
11.029127

>  <VSA_EState7>  (54) 
2.988398

>  <VSA_EState8>  (54) 
0.472639

>  <VSA_EState9>  (54) 
0.0

>  <FractionCSP3>  (54) 
0.157895

>  <HeavyAtomCount>  (54) 
25

>  <NHOHCount>  (54) 
1

>  <NOCount>  (54) 
5

>  <NumAliphaticCarbocycles>  (54) 
0

>  <NumAliphaticHeterocycles>  (54) 
1

>  <NumAliphaticRings>  (54) 
1

>  <NumAromaticCarbocycles>  (54) 
2

>  <NumAromaticHeterocycles>  (54) 
1

>  <NumAromaticRings>  (54) 
3

>  <NumHAcceptors>  (54) 
4

>  <NumHDonors>  (54) 
1

>  <NumHeteroatoms>  (54) 
6

>  <NumRotatableBonds>  (54) 
3

>  <NumSaturatedCarbocycles>  (54) 
0

>  <NumSaturatedHeterocycles>  (54) 
0

>  <NumSaturatedRings>  (54) 
0

>  <RingCount>  (54) 
4

>  <MolLogP>  (54) 
2.7293

>  <MolMR>  (54) 
92.6842

>  <fr_Al_COO>  (54) 
0

>  <fr_Al_OH>  (54) 
0

>  <fr_Al_OH_noTert>  (54) 
0

>  <fr_ArN>  (54) 
0

>  <fr_Ar_COO>  (54) 
0

>  <fr_Ar_N>  (54) 
2

>  <fr_Ar_NH>  (54) 
1

>  <fr_Ar_OH>  (54) 
0

>  <fr_COO>  (54) 
0

>  <fr_COO2>  (54) 
0

>  <fr_C_O>  (54) 
1

>  <fr_C_O_noCOO>  (54) 
1

>  <fr_C_S>  (54) 
0

>  <fr_HOCCN>  (54) 
0

>  <fr_Imine>  (54) 
1

>  <fr_NH0>  (54) 
2

>  <fr_NH1>  (54) 
1

>  <fr_NH2>  (54) 
0

>  <fr_N_O>  (54) 
0

>  <fr_Ndealkylation1>  (54) 
0

>  <fr_Ndealkylation2>  (54) 
0

>  <fr_Nhpyrrole>  (54) 
1

>  <fr_SH>  (54) 
0

>  <fr_aldehyde>  (54) 
0

>  <fr_alkyl_carbamate>  (54) 
0

>  <fr_alkyl_halide>  (54) 
0

>  <fr_allylic_oxid>  (54) 
0

>  <fr_amide>  (54) 
0

>  <fr_amidine>  (54) 
0

>  <fr_aniline>  (54) 
0

>  <fr_aryl_methyl>  (54) 
0

>  <fr_azide>  (54) 
0

>  <fr_azo>  (54) 
0

>  <fr_barbitur>  (54) 
0

>  <fr_benzene>  (54) 
2

>  <fr_benzodiazepine>  (54) 
0

>  <fr_bicyclic>  (54) 
1

>  <fr_diazo>  (54) 
0

>  <fr_dihydropyridine>  (54) 
0

>  <fr_epoxide>  (54) 
0

>  <fr_ester>  (54) 
0

>  <fr_ether>  (54) 
0

>  <fr_furan>  (54) 
0

>  <fr_guanido>  (54) 
0

>  <fr_halogen>  (54) 
1

>  <fr_hdrzine>  (54) 
0

>  <fr_hdrzone>  (54) 
0

>  <fr_imidazole>  (54) 
0

>  <fr_imide>  (54) 
0

>  <fr_isocyan>  (54) 
0

>  <fr_isothiocyan>  (54) 
0

>  <fr_ketone>  (54) 
1

>  <fr_ketone_Topliss>  (54) 
1

>  <fr_lactam>  (54) 
0

>  <fr_lactone>  (54) 
0

>  <fr_methoxy>  (54) 
0

>  <fr_morpholine>  (54) 
0

>  <fr_nitrile>  (54) 
0

>  <fr_nitro>  (54) 
0

>  <fr_nitro_arom>  (54) 
0

>  <fr_nitro_arom_nonortho>  (54) 
0

>  <fr_nitroso>  (54) 
0

>  <fr_oxazole>  (54) 
0

>  <fr_oxime>  (54) 
0

>  <fr_para_hydroxylation>  (54) 
0

>  <fr_phenol>  (54) 
0

>  <fr_phenol_noOrthoHbond>  (54) 
0

>  <fr_phos_acid>  (54) 
0

>  <fr_phos_ester>  (54) 
0

>  <fr_piperdine>  (54) 
0

>  <fr_piperzine>  (54) 
0

>  <fr_priamide>  (54) 
0

>  <fr_prisulfonamd>  (54) 
0

>  <fr_pyridine>  (54) 
0

>  <fr_quatN>  (54) 
0

>  <fr_sulfide>  (54) 
0

>  <fr_sulfonamd>  (54) 
0

>  <fr_sulfone>  (54) 
0

>  <fr_term_acetylene>  (54) 
0

>  <fr_tetrazole>  (54) 
0

>  <fr_thiazole>  (54) 
0

>  <fr_thiocyan>  (54) 
0

>  <fr_thiophene>  (54) 
0

>  <fr_unbrch_alkane>  (54) 
0

>  <fr_urea>  (54) 
0

>  <NP_Likeness>  (54) 
-0.585524

$$$$
8ET
     RDKit          3D

  0  0  0  0  0  0  0  0  0  0999 V3000
M  V30 BEGIN CTAB
M  V30 COUNTS 30 32 0 0 0
M  V30 BEGIN ATOM
M  V30 1 O -12.877000 7.093000 -30.724000 0
M  V30 2 N -16.969000 7.367000 -31.276000 0
M  V30 3 N -9.697000 1.714000 -28.518000 0
M  V30 4 N -13.062000 5.051000 -29.685000 0
M  V30 5 C -17.701000 6.260000 -31.101000 0
M  V30 6 C -10.554000 0.763000 -28.850000 0
M  V30 7 C -15.671000 7.301000 -30.968000 0
M  V30 8 C -17.179000 5.073000 -30.632000 0
M  V30 9 C -11.819000 0.991000 -29.377000 0
M  V30 10 C -9.550000 5.322000 -28.560000 0
M  V30 11 C -9.199000 4.024000 -28.374000 0
M  V30 12 C -10.801000 5.675000 -29.034000 0
M  V30 13 C -15.833000 5.024000 -30.335000 0
M  V30 14 C -12.233000 2.271000 -29.555000 0
M  V30 15 C -13.563000 6.149000 -30.316000 0
M  V30 16 C -10.093000 3.000000 -28.713000 0
M  V30 17 C -11.722000 4.715000 -29.336000 0
M  V30 18 C -15.045000 6.152000 -30.508000 0
M  V30 19 C -11.375000 3.334000 -29.221000 0
M  V30 20 H -13.745900 4.369700 -29.424100 0
M  V30 21 H -18.675700 6.295700 -31.321600 0
M  V30 22 H -10.271700 -0.186400 -28.712100 0
M  V30 23 H -15.118700 8.127700 -31.075300 0
M  V30 24 H -17.761000 4.268900 -30.510400 0
M  V30 25 H -12.414100 0.225300 -29.620900 0
M  V30 26 H -8.887800 6.041100 -28.349200 0
M  V30 27 H -8.301600 3.798500 -27.994700 0
M  V30 28 H -11.031600 6.640400 -29.156000 0
M  V30 29 H -15.425800 4.176200 -29.995300 0
M  V30 30 H -13.144300 2.457600 -29.922100 0
M  V30 END ATOM
M  V30 BEGIN BOND
M  V30 1 2 1 15
M  V30 2 2 2 5
M  V30 3 1 2 7
M  V30 4 2 3 6
M  V30 5 1 3 16
M  V30 6 1 4 15
M  V30 7 1 4 17
M  V30 8 1 5 8
M  V30 9 1 6 9
M  V30 10 2 7 18
M  V30 11 2 8 13
M  V30 12 2 9 14
M  V30 13 1 10 11
M  V30 14 2 10 12
M  V30 15 2 11 16
M  V30 16 1 12 17
M  V30 17 1 13 18
M  V30 18 1 14 19
M  V30 19 1 15 18
M  V30 20 1 16 19
M  V30 21 2 17 19
M  V30 22 1 4 20
M  V30 23 1 5 21
M  V30 24 1 6 22
M  V30 25 1 7 23
M  V30 26 1 8 24
M  V30 27 1 9 25
M  V30 28 1 10 26
M  V30 29 1 11 27
M  V30 30 1 12 28
M  V30 31 1 13 29
M  V30 32 1 14 30
M  V30 END BOND
M  V30 END CTAB
M  END
>  <Ligand_Instance>  (55) 
5N1F_8ET_A_403

>  <Dataset>  (55) 
PDB

>  <PDB_ID>  (55) 
5N1F

>  <Chain>  (55) 
A

>  <Resi>  (55) 
403

>  <Num_Resolved_Atoms>  (55) 
19

>  <Num_H_Atoms_ProtBoundConf>  (55) 
11

>  <Pocket>  (55) 
A

>  <Name>  (55) 
~{N}-quinolin-5-ylpyridine-3-carboxamide

>  <Num_Not_Resolved_Atoms>  (55) 
0

>  <ATP_Site>  (55) 
True

>  <Peripheral>  (55) 
False

>  <Standardized_SMILES>  (55) 
[H]C1=NC([H])=C(C(=O)N([H])C2=C([H])C([H])=C([H])C3=NC([H])=C([H])C([H])=C32)C([H])=C1[H]

>  <2D_Mol_H>  (55) 
<rdkit.Chem.rdchem.Mol object at 0x77059d9e5150>

>  <MW>  (55) 
249.273

>  <HBA>  (55) 
3

>  <HBD>  (55) 
1

>  <LogP>  (55) 
2.8821

>  <NRB>  (55) 
2

>  <TPSA>  (55) 
54.88

>  <Num_Heavy_Atoms>  (55) 
19

>  <Ro5>  (55) 
[True, True, True, True, True, True]

>  <Ro5_Fulfilled>  (55) 
True

>  <Ro3>  (55) 
[True, True, True, True]

>  <Ro3_Fulfilled>  (55) 
True

>  <Fsp3>  (55) 
0.0

>  <Fsp3_0.42>  (55) 
False

>  <Fsp3_0.45>  (55) 
False

>  <Stereogenic_Carbons>  (55) 
0

>  <C_Atoms>  (55) 
15

>  <FCStereo>  (55) 
0.0

>  <SPS>  (55) 
196

>  <nSPS>  (55) 
10.315789

>  <PBF>  (55) 
0.240951

>  <PBF_0.6>  (55) 
False

>  <nPBF>  (55) 
0.012682

>  <nPBF_0.016>  (55) 
False

>  <PMI1>  (55) 
563.472339

>  <PMI2>  (55) 
2550.671731

>  <PMI3>  (55) 
3078.347893

>  <NPR1>  (55) 
0.183044

>  <NPR2>  (55) 
0.828585

>  <Sum_NPR>  (55) 
1.011628

>  <Sum_NPR_1.07>  (55) 
False

>  <Sum_NPR_1.2>  (55) 
False

>  <MaxAbsEStateIndex>  (55) 
12.086247

>  <MaxEStateIndex>  (55) 
12.086247

>  <MinAbsEStateIndex>  (55) 
0.176432

>  <MinEStateIndex>  (55) 
-0.176432

>  <qed>  (55) 
0.759365

>  <MolWt>  (55) 
249.273

>  <HeavyAtomMolWt>  (55) 
238.185

>  <ExactMolWt>  (55) 
249.090212

>  <NumValenceElectrons>  (55) 
92

>  <NumRadicalElectrons>  (55) 
0

>  <MaxPartialCharge>  (55) 
0.256743

>  <MinPartialCharge>  (55) 
-0.321306

>  <MaxAbsPartialCharge>  (55) 
0.321306

>  <MinAbsPartialCharge>  (55) 
0.256743

>  <FpDensityMorgan1>  (55) 
1.0

>  <FpDensityMorgan2>  (55) 
1.894737

>  <FpDensityMorgan3>  (55) 
2.736842

>  <BCUT2D_MWHI>  (55) 
16.149185

>  <BCUT2D_MWLOW>  (55) 
10.145504

>  <BCUT2D_CHGHI>  (55) 
2.075431

>  <BCUT2D_CHGLO>  (55) 
-2.074045

>  <BCUT2D_LOGPHI>  (55) 
2.212152

>  <BCUT2D_LOGPLOW>  (55) 
-2.117863

>  <BCUT2D_MRHI>  (55) 
6.07959

>  <BCUT2D_MRLOW>  (55) 
0.102189

>  <AvgIpc>  (55) 
2.484001

>  <BalabanJ>  (55) 
1.959876

>  <BertzCT>  (55) 
720.302025

>  <Chi0>  (55) 
13.07914

>  <Chi0n>  (55) 
10.076178

>  <Chi0v>  (55) 
10.076178

>  <Chi1>  (55) 
9.343337

>  <Chi1n>  (55) 
5.895703

>  <Chi1v>  (55) 
5.895703

>  <Chi2n>  (55) 
4.071486

>  <Chi2v>  (55) 
4.071486

>  <Chi3n>  (55) 
2.817615

>  <Chi3v>  (55) 
2.817615

>  <Chi4n>  (55) 
1.903902

>  <Chi4v>  (55) 
1.903902

>  <HallKierAlpha>  (55) 
-2.75

>  <Ipc>  (55) 
37776.683251

>  <Kappa1>  (55) 
11.346641

>  <Kappa2>  (55) 
4.857097

>  <Kappa3>  (55) 
2.282341

>  <LabuteASA>  (55) 
109.685784

>  <PEOE_VSA1>  (55) 
5.316789

>  <PEOE_VSA10>  (55) 
0.0

>  <PEOE_VSA11>  (55) 
0.0

>  <PEOE_VSA12>  (55) 
0.0

>  <PEOE_VSA13>  (55) 
5.90718

>  <PEOE_VSA14>  (55) 
0.0

>  <PEOE_VSA2>  (55) 
14.762494

>  <PEOE_VSA3>  (55) 
0.0

>  <PEOE_VSA4>  (55) 
0.0

>  <PEOE_VSA5>  (55) 
0.0

>  <PEOE_VSA6>  (55) 
6.066367

>  <PEOE_VSA7>  (55) 
36.398202

>  <PEOE_VSA8>  (55) 
23.976755

>  <PEOE_VSA9>  (55) 
16.767538

>  <SMR_VSA1>  (55) 
4.794537

>  <SMR_VSA10>  (55) 
22.497491

>  <SMR_VSA2>  (55) 
0.0

>  <SMR_VSA3>  (55) 
9.967957

>  <SMR_VSA4>  (55) 
0.0

>  <SMR_VSA5>  (55) 
0.0

>  <SMR_VSA6>  (55) 
5.316789

>  <SMR_VSA7>  (55) 
66.618552

>  <SMR_VSA8>  (55) 
0.0

>  <SMR_VSA9>  (55) 
0.0

>  <SlogP_VSA1>  (55) 
5.316789

>  <SlogP_VSA10>  (55) 
5.687386

>  <SlogP_VSA11>  (55) 
0.0

>  <SlogP_VSA12>  (55) 
0.0

>  <SlogP_VSA2>  (55) 
15.875137

>  <SlogP_VSA3>  (55) 
0.0

>  <SlogP_VSA4>  (55) 
0.0

>  <SlogP_VSA5>  (55) 
10.357989

>  <SlogP_VSA6>  (55) 
61.0551

>  <SlogP_VSA7>  (55) 
0.0

>  <SlogP_VSA8>  (55) 
10.902925

>  <SlogP_VSA9>  (55) 
0.0

>  <EState_VSA1>  (55) 
0.0

>  <EState_VSA10>  (55) 
4.794537

>  <EState_VSA11>  (55) 
0.0

>  <EState_VSA2>  (55) 
5.90718

>  <EState_VSA3>  (55) 
5.563451

>  <EState_VSA4>  (55) 
16.590311

>  <EState_VSA5>  (55) 
0.0

>  <EState_VSA6>  (55) 
30.723265

>  <EState_VSA7>  (55) 
30.331835

>  <EState_VSA8>  (55) 
15.284746

>  <EState_VSA9>  (55) 
0.0

>  <VSA_EState1>  (55) 
0.0

>  <VSA_EState10>  (55) 
0.0

>  <VSA_EState2>  (55) 
20.281018

>  <VSA_EState3>  (55) 
3.80101

>  <VSA_EState4>  (55) 
2.133642

>  <VSA_EState5>  (55) 
-0.176432

>  <VSA_EState6>  (55) 
12.88499

>  <VSA_EState7>  (55) 
4.909107

>  <VSA_EState8>  (55) 
0.0

>  <VSA_EState9>  (55) 
0.0

>  <FractionCSP3>  (55) 
0.0

>  <HeavyAtomCount>  (55) 
19

>  <NHOHCount>  (55) 
1

>  <NOCount>  (55) 
4

>  <NumAliphaticCarbocycles>  (55) 
0

>  <NumAliphaticHeterocycles>  (55) 
0

>  <NumAliphaticRings>  (55) 
0

>  <NumAromaticCarbocycles>  (55) 
1

>  <NumAromaticHeterocycles>  (55) 
2

>  <NumAromaticRings>  (55) 
3

>  <NumHAcceptors>  (55) 
3

>  <NumHDonors>  (55) 
1

>  <NumHeteroatoms>  (55) 
4

>  <NumRotatableBonds>  (55) 
2

>  <NumSaturatedCarbocycles>  (55) 
0

>  <NumSaturatedHeterocycles>  (55) 
0

>  <NumSaturatedRings>  (55) 
0

>  <RingCount>  (55) 
3

>  <MolLogP>  (55) 
2.8821

>  <MolMR>  (55) 
73.9332

>  <fr_Al_COO>  (55) 
0

>  <fr_Al_OH>  (55) 
0

>  <fr_Al_OH_noTert>  (55) 
0

>  <fr_ArN>  (55) 
0

>  <fr_Ar_COO>  (55) 
0

>  <fr_Ar_N>  (55) 
2

>  <fr_Ar_NH>  (55) 
0

>  <fr_Ar_OH>  (55) 
0

>  <fr_COO>  (55) 
0

>  <fr_COO2>  (55) 
0

>  <fr_C_O>  (55) 
1

>  <fr_C_O_noCOO>  (55) 
1

>  <fr_C_S>  (55) 
0

>  <fr_HOCCN>  (55) 
0

>  <fr_Imine>  (55) 
0

>  <fr_NH0>  (55) 
2

>  <fr_NH1>  (55) 
1

>  <fr_NH2>  (55) 
0

>  <fr_N_O>  (55) 
0

>  <fr_Ndealkylation1>  (55) 
0

>  <fr_Ndealkylation2>  (55) 
0

>  <fr_Nhpyrrole>  (55) 
0

>  <fr_SH>  (55) 
0

>  <fr_aldehyde>  (55) 
0

>  <fr_alkyl_carbamate>  (55) 
0

>  <fr_alkyl_halide>  (55) 
0

>  <fr_allylic_oxid>  (55) 
0

>  <fr_amide>  (55) 
1

>  <fr_amidine>  (55) 
0

>  <fr_aniline>  (55) 
1

>  <fr_aryl_methyl>  (55) 
0

>  <fr_azide>  (55) 
0

>  <fr_azo>  (55) 
0

>  <fr_barbitur>  (55) 
0

>  <fr_benzene>  (55) 
1

>  <fr_benzodiazepine>  (55) 
0

>  <fr_bicyclic>  (55) 
1

>  <fr_diazo>  (55) 
0

>  <fr_dihydropyridine>  (55) 
0

>  <fr_epoxide>  (55) 
0

>  <fr_ester>  (55) 
0

>  <fr_ether>  (55) 
0

>  <fr_furan>  (55) 
0

>  <fr_guanido>  (55) 
0

>  <fr_halogen>  (55) 
0

>  <fr_hdrzine>  (55) 
0

>  <fr_hdrzone>  (55) 
0

>  <fr_imidazole>  (55) 
0

>  <fr_imide>  (55) 
0

>  <fr_isocyan>  (55) 
0

>  <fr_isothiocyan>  (55) 
0

>  <fr_ketone>  (55) 
0

>  <fr_ketone_Topliss>  (55) 
0

>  <fr_lactam>  (55) 
0

>  <fr_lactone>  (55) 
0

>  <fr_methoxy>  (55) 
0

>  <fr_morpholine>  (55) 
0

>  <fr_nitrile>  (55) 
0

>  <fr_nitro>  (55) 
0

>  <fr_nitro_arom>  (55) 
0

>  <fr_nitro_arom_nonortho>  (55) 
0

>  <fr_nitroso>  (55) 
0

>  <fr_oxazole>  (55) 
0

>  <fr_oxime>  (55) 
0

>  <fr_para_hydroxylation>  (55) 
0

>  <fr_phenol>  (55) 
0

>  <fr_phenol_noOrthoHbond>  (55) 
0

>  <fr_phos_acid>  (55) 
0

>  <fr_phos_ester>  (55) 
0

>  <fr_piperdine>  (55) 
0

>  <fr_piperzine>  (55) 
0

>  <fr_priamide>  (55) 
0

>  <fr_prisulfonamd>  (55) 
0

>  <fr_pyridine>  (55) 
2

>  <fr_quatN>  (55) 
0

>  <fr_sulfide>  (55) 
0

>  <fr_sulfonamd>  (55) 
0

>  <fr_sulfone>  (55) 
0

>  <fr_term_acetylene>  (55) 
0

>  <fr_tetrazole>  (55) 
0

>  <fr_thiazole>  (55) 
0

>  <fr_thiocyan>  (55) 
0

>  <fr_thiophene>  (55) 
0

>  <fr_unbrch_alkane>  (55) 
0

>  <fr_urea>  (55) 
0

>  <NP_Likeness>  (55) 
-1.62378

$$$$
8FZ
     RDKit          3D

  0  0  0  0  0  0  0  0  0  0999 V3000
M  V30 BEGIN CTAB
M  V30 COUNTS 25 26 0 0 0
M  V30 BEGIN ATOM
M  V30 1 O 13.232000 99.106000 26.097000 0
M  V30 2 O 15.121000 100.423000 26.107000 0
M  V30 3 N 11.138000 96.651000 26.767000 0 CHG=1
M  V30 4 N 17.365000 99.595000 23.383000 0
M  V30 5 C 11.036000 98.030000 26.277000 0
M  V30 6 C 17.386000 98.255000 23.491000 0
M  V30 7 C 16.671000 97.560000 24.441000 0
M  V30 8 C 16.605000 100.264000 24.246000 0
M  V30 9 C 15.878000 98.269000 25.319000 0
M  V30 10 C 13.516000 100.171000 28.009000 0
M  V30 11 C 12.275000 99.492000 28.057000 0
M  V30 12 C 14.045000 99.919000 26.776000 0
M  V30 13 C 12.122000 98.877000 26.880000 0
M  V30 14 C 15.859000 99.630000 25.230000 0
M  V30 15 H 10.593400 96.552000 27.599800 0
M  V30 16 H 10.795700 96.022800 26.068300 0
M  V30 17 H 10.144700 98.405700 26.530900 0
M  V30 18 H 11.128200 98.034400 25.281300 0
M  V30 19 H 17.949900 97.736200 22.848400 0
M  V30 20 H 16.725600 96.562900 24.493100 0
M  V30 21 H 16.569800 101.261400 24.183400 0
M  V30 22 H 15.328200 97.794900 26.006800 0
M  V30 23 H 13.924200 100.725300 28.734300 0
M  V30 24 H 11.634700 99.475500 28.825000 0
M  V30 25 H 12.094400 96.438200 26.966900 0
M  V30 END ATOM
M  V30 BEGIN BOND
M  V30 1 1 1 12
M  V30 2 1 1 13
M  V30 3 1 2 12
M  V30 4 1 2 14
M  V30 5 1 3 5
M  V30 6 2 4 6
M  V30 7 1 4 8
M  V30 8 1 5 13
M  V30 9 1 6 7
M  V30 10 2 7 9
M  V30 11 2 8 14
M  V30 12 1 9 14
M  V30 13 1 10 11
M  V30 14 2 10 12
M  V30 15 2 11 13
M  V30 16 1 3 15
M  V30 17 1 3 16
M  V30 18 1 5 17
M  V30 19 1 5 18
M  V30 20 1 6 19
M  V30 21 1 7 20
M  V30 22 1 8 21
M  V30 23 1 9 22
M  V30 24 1 10 23
M  V30 25 1 11 24
M  V30 26 1 3 25
M  V30 END BOND
M  V30 END CTAB
M  END
>  <Ligand_Instance>  (56) 
5N1D_8FZ_A_403

>  <Dataset>  (56) 
PDB

>  <PDB_ID>  (56) 
5N1D

>  <Chain>  (56) 
A

>  <Resi>  (56) 
403

>  <Num_Resolved_Atoms>  (56) 
14

>  <Num_H_Atoms_ProtBoundConf>  (56) 
11

>  <Pocket>  (56) 
A

>  <Name>  (56) 
(5-pyridin-3-yloxyfuran-2-yl)methanamine

>  <Num_Not_Resolved_Atoms>  (56) 
0

>  <ATP_Site>  (56) 
True

>  <Peripheral>  (56) 
False

>  <Standardized_SMILES>  (56) 
[H]C1=NC([H])=C(OC2=C([H])C([H])=C(C([H])([H])[N+]([H])([H])[H])O2)C([H])=C1[H]

>  <2D_Mol_H>  (56) 
<rdkit.Chem.rdchem.Mol object at 0x77059d9e5230>

>  <MW>  (56) 
191.21

>  <HBA>  (56) 
3

>  <HBD>  (56) 
1

>  <LogP>  (56) 
1.2088

>  <NRB>  (56) 
4

>  <TPSA>  (56) 
62.9

>  <Num_Heavy_Atoms>  (56) 
14

>  <Ro5>  (56) 
[True, True, True, True, True, True]

>  <Ro5_Fulfilled>  (56) 
True

>  <Ro3>  (56) 
[True, True, True, True]

>  <Ro3_Fulfilled>  (56) 
True

>  <Fsp3>  (56) 
0.1

>  <Fsp3_0.42>  (56) 
False

>  <Fsp3_0.45>  (56) 
False

>  <Stereogenic_Carbons>  (56) 
0

>  <C_Atoms>  (56) 
10

>  <FCStereo>  (56) 
0.0

>  <SPS>  (56) 
141

>  <nSPS>  (56) 
10.071429

>  <PBF>  (56) 
0.628499

>  <PBF_0.6>  (56) 
True

>  <nPBF>  (56) 
0.044893

>  <nPBF_0.016>  (56) 
True

>  <PMI1>  (56) 
350.139205

>  <PMI2>  (56) 
1305.803907

>  <PMI3>  (56) 
1545.802655

>  <NPR1>  (56) 
0.22651

>  <NPR2>  (56) 
0.844742

>  <Sum_NPR>  (56) 
1.071251

>  <Sum_NPR_1.07>  (56) 
True

>  <Sum_NPR_1.2>  (56) 
False

>  <MaxAbsEStateIndex>  (56) 
5.403889

>  <MaxEStateIndex>  (56) 
5.403889

>  <MinAbsEStateIndex>  (56) 
0.46912

>  <MinEStateIndex>  (56) 
0.46912

>  <qed>  (56) 
0.792613

>  <MolWt>  (56) 
191.21

>  <HeavyAtomMolWt>  (56) 
180.122

>  <ExactMolWt>  (56) 
191.081504

>  <NumValenceElectrons>  (56) 
72

>  <NumRadicalElectrons>  (56) 
0

>  <MaxPartialCharge>  (56) 
0.289795

>  <MinPartialCharge>  (56) 
-0.424409

>  <MaxAbsPartialCharge>  (56) 
0.424409

>  <MinAbsPartialCharge>  (56) 
0.289795

>  <FpDensityMorgan1>  (56) 
1.357143

>  <FpDensityMorgan2>  (56) 
2.285714

>  <FpDensityMorgan3>  (56) 
2.928571

>  <BCUT2D_MWHI>  (56) 
16.587314

>  <BCUT2D_MWLOW>  (56) 
10.442886

>  <BCUT2D_CHGHI>  (56) 
2.027703

>  <BCUT2D_CHGLO>  (56) 
-1.987255

>  <BCUT2D_LOGPHI>  (56) 
2.215793

>  <BCUT2D_LOGPLOW>  (56) 
-2.467901

>  <BCUT2D_MRHI>  (56) 
5.221467

>  <BCUT2D_MRLOW>  (56) 
-0.389727

>  <AvgIpc>  (56) 
2.671409

>  <BalabanJ>  (56) 
2.111416

>  <BertzCT>  (56) 
397.514067

>  <Chi0>  (56) 
9.803119

>  <Chi0n>  (56) 
7.642025

>  <Chi0v>  (56) 
7.642025

>  <Chi1>  (56) 
6.881341

>  <Chi1n>  (56) 
4.341148

>  <Chi1v>  (56) 
4.341148

>  <Chi2n>  (56) 
2.761533

>  <Chi2v>  (56) 
2.761533

>  <Chi3n>  (56) 
1.736238

>  <Chi3v>  (56) 
1.736238

>  <Chi4n>  (56) 
1.071072

>  <Chi4v>  (56) 
1.071072

>  <HallKierAlpha>  (56) 
-1.81

>  <Ipc>  (56) 
2959.921102

>  <Kappa1>  (56) 
8.773528

>  <Kappa2>  (56) 
3.932119

>  <Kappa3>  (56) 
1.916652

>  <LabuteASA>  (56) 
81.320853

>  <PEOE_VSA1>  (56) 
14.887681

>  <PEOE_VSA10>  (56) 
12.294268

>  <PEOE_VSA11>  (56) 
5.760247

>  <PEOE_VSA12>  (56) 
0.0

>  <PEOE_VSA13>  (56) 
5.946308

>  <PEOE_VSA14>  (56) 
0.0

>  <PEOE_VSA2>  (56) 
4.983979

>  <PEOE_VSA3>  (56) 
0.0

>  <PEOE_VSA4>  (56) 
0.0

>  <PEOE_VSA5>  (56) 
0.0

>  <PEOE_VSA6>  (56) 
0.0

>  <PEOE_VSA7>  (56) 
18.199101

>  <PEOE_VSA8>  (56) 
12.263211

>  <PEOE_VSA9>  (56) 
6.196844

>  <SMR_VSA1>  (56) 
14.887681

>  <SMR_VSA10>  (56) 
0.0

>  <SMR_VSA2>  (56) 
0.0

>  <SMR_VSA3>  (56) 
4.983979

>  <SMR_VSA4>  (56) 
0.0

>  <SMR_VSA5>  (56) 
6.544756

>  <SMR_VSA6>  (56) 
0.0

>  <SMR_VSA7>  (56) 
42.419403

>  <SMR_VSA8>  (56) 
0.0

>  <SMR_VSA9>  (56) 
11.69582

>  <SlogP_VSA1>  (56) 
10.47053

>  <SlogP_VSA10>  (56) 
0.0

>  <SlogP_VSA11>  (56) 
11.69582

>  <SlogP_VSA12>  (56) 
0.0

>  <SlogP_VSA2>  (56) 
4.983979

>  <SlogP_VSA3>  (56) 
6.544756

>  <SlogP_VSA4>  (56) 
0.0

>  <SlogP_VSA5>  (56) 
5.760247

>  <SlogP_VSA6>  (56) 
41.076306

>  <SlogP_VSA7>  (56) 
0.0

>  <SlogP_VSA8>  (56) 
0.0

>  <SlogP_VSA9>  (56) 
0.0

>  <EState_VSA1>  (56) 
0.0

>  <EState_VSA10>  (56) 
0.0

>  <EState_VSA11>  (56) 
0.0

>  <EState_VSA2>  (56) 
0.0

>  <EState_VSA3>  (56) 
18.240576

>  <EState_VSA4>  (56) 
5.760247

>  <EState_VSA5>  (56) 
0.0

>  <EState_VSA6>  (56) 
24.526421

>  <EState_VSA7>  (56) 
12.132734

>  <EState_VSA8>  (56) 
10.717646

>  <EState_VSA9>  (56) 
9.154014

>  <VSA_EState1>  (56) 
10.728112

>  <VSA_EState10>  (56) 
0.0

>  <VSA_EState2>  (56) 
3.928788

>  <VSA_EState3>  (56) 
0.0

>  <VSA_EState4>  (56) 
3.714649

>  <VSA_EState5>  (56) 
1.942595

>  <VSA_EState6>  (56) 
7.242227

>  <VSA_EState7>  (56) 
3.3222

>  <VSA_EState8>  (56) 
0.621428

>  <VSA_EState9>  (56) 
0.0

>  <FractionCSP3>  (56) 
0.1

>  <HeavyAtomCount>  (56) 
14

>  <NHOHCount>  (56) 
3

>  <NOCount>  (56) 
4

>  <NumAliphaticCarbocycles>  (56) 
0

>  <NumAliphaticHeterocycles>  (56) 
0

>  <NumAliphaticRings>  (56) 
0

>  <NumAromaticCarbocycles>  (56) 
0

>  <NumAromaticHeterocycles>  (56) 
2

>  <NumAromaticRings>  (56) 
2

>  <NumHAcceptors>  (56) 
3

>  <NumHDonors>  (56) 
1

>  <NumHeteroatoms>  (56) 
4

>  <NumRotatableBonds>  (56) 
3

>  <NumSaturatedCarbocycles>  (56) 
0

>  <NumSaturatedHeterocycles>  (56) 
0

>  <NumSaturatedRings>  (56) 
0

>  <RingCount>  (56) 
2

>  <MolLogP>  (56) 
1.2088

>  <MolMR>  (56) 
49.6111

>  <fr_Al_COO>  (56) 
0

>  <fr_Al_OH>  (56) 
0

>  <fr_Al_OH_noTert>  (56) 
0

>  <fr_ArN>  (56) 
0

>  <fr_Ar_COO>  (56) 
0

>  <fr_Ar_N>  (56) 
1

>  <fr_Ar_NH>  (56) 
0

>  <fr_Ar_OH>  (56) 
0

>  <fr_COO>  (56) 
0

>  <fr_COO2>  (56) 
0

>  <fr_C_O>  (56) 
0

>  <fr_C_O_noCOO>  (56) 
0

>  <fr_C_S>  (56) 
0

>  <fr_HOCCN>  (56) 
0

>  <fr_Imine>  (56) 
0

>  <fr_NH0>  (56) 
1

>  <fr_NH1>  (56) 
0

>  <fr_NH2>  (56) 
0

>  <fr_N_O>  (56) 
0

>  <fr_Ndealkylation1>  (56) 
0

>  <fr_Ndealkylation2>  (56) 
0

>  <fr_Nhpyrrole>  (56) 
0

>  <fr_SH>  (56) 
0

>  <fr_aldehyde>  (56) 
0

>  <fr_alkyl_carbamate>  (56) 
0

>  <fr_alkyl_halide>  (56) 
0

>  <fr_allylic_oxid>  (56) 
0

>  <fr_amide>  (56) 
0

>  <fr_amidine>  (56) 
0

>  <fr_aniline>  (56) 
0

>  <fr_aryl_methyl>  (56) 
0

>  <fr_azide>  (56) 
0

>  <fr_azo>  (56) 
0

>  <fr_barbitur>  (56) 
0

>  <fr_benzene>  (56) 
0

>  <fr_benzodiazepine>  (56) 
0

>  <fr_bicyclic>  (56) 
0

>  <fr_diazo>  (56) 
0

>  <fr_dihydropyridine>  (56) 
0

>  <fr_epoxide>  (56) 
0

>  <fr_ester>  (56) 
0

>  <fr_ether>  (56) 
1

>  <fr_furan>  (56) 
1

>  <fr_guanido>  (56) 
0

>  <fr_halogen>  (56) 
0

>  <fr_hdrzine>  (56) 
0

>  <fr_hdrzone>  (56) 
0

>  <fr_imidazole>  (56) 
0

>  <fr_imide>  (56) 
0

>  <fr_isocyan>  (56) 
0

>  <fr_isothiocyan>  (56) 
0

>  <fr_ketone>  (56) 
0

>  <fr_ketone_Topliss>  (56) 
0

>  <fr_lactam>  (56) 
0

>  <fr_lactone>  (56) 
0

>  <fr_methoxy>  (56) 
0

>  <fr_morpholine>  (56) 
0

>  <fr_nitrile>  (56) 
0

>  <fr_nitro>  (56) 
0

>  <fr_nitro_arom>  (56) 
0

>  <fr_nitro_arom_nonortho>  (56) 
0

>  <fr_nitroso>  (56) 
0

>  <fr_oxazole>  (56) 
0

>  <fr_oxime>  (56) 
0

>  <fr_para_hydroxylation>  (56) 
0

>  <fr_phenol>  (56) 
0

>  <fr_phenol_noOrthoHbond>  (56) 
0

>  <fr_phos_acid>  (56) 
0

>  <fr_phos_ester>  (56) 
0

>  <fr_piperdine>  (56) 
0

>  <fr_piperzine>  (56) 
0

>  <fr_priamide>  (56) 
0

>  <fr_prisulfonamd>  (56) 
0

>  <fr_pyridine>  (56) 
1

>  <fr_quatN>  (56) 
1

>  <fr_sulfide>  (56) 
0

>  <fr_sulfonamd>  (56) 
0

>  <fr_sulfone>  (56) 
0

>  <fr_term_acetylene>  (56) 
0

>  <fr_tetrazole>  (56) 
0

>  <fr_thiazole>  (56) 
0

>  <fr_thiocyan>  (56) 
0

>  <fr_thiophene>  (56) 
0

>  <fr_unbrch_alkane>  (56) 
0

>  <fr_urea>  (56) 
0

>  <NP_Likeness>  (56) 
-0.724893

$$$$
8G2
     RDKit          3D

  0  0  0  0  0  0  0  0  0  0999 V3000
M  V30 BEGIN CTAB
M  V30 COUNTS 24 24 0 0 0
M  V30 BEGIN ATOM
M  V30 1 O -9.771000 2.342000 -28.673000 0
M  V30 2 O -10.635000 4.406000 -28.770000 0
M  V30 3 N -16.477000 0.225000 -29.730000 0 CHG=1
M  V30 4 C -9.402000 4.933000 -28.238000 0
M  V30 5 C -15.960000 1.342000 -30.562000 0
M  V30 6 C -14.316000 3.136000 -29.934000 0
M  V30 7 C -13.575000 0.875000 -29.923000 0
M  V30 8 C -13.056000 3.555000 -29.546000 0
M  V30 9 C -12.313000 1.285000 -29.534000 0
M  V30 10 C -10.697000 3.083000 -28.904000 0
M  V30 11 C -14.592000 1.793000 -30.130000 0
M  V30 12 C -12.037000 2.632000 -29.339000 0
M  V30 13 H -16.984500 0.595900 -28.952300 0
M  V30 14 H -17.083500 -0.348100 -30.281100 0
M  V30 15 H -9.463000 5.929400 -28.179700 0
M  V30 16 H -9.243900 4.554800 -27.325900 0
M  V30 17 H -8.644300 4.680100 -28.839600 0
M  V30 18 H -16.590600 2.114800 -30.489800 0
M  V30 19 H -15.912400 1.038300 -31.513600 0
M  V30 20 H -15.038400 3.812900 -30.075100 0
M  V30 21 H -13.756500 -0.099200 -30.057000 0
M  V30 22 H -12.876600 4.529800 -29.413300 0
M  V30 23 H -11.593000 0.605800 -29.391900 0
M  V30 24 H -15.711000 -0.324600 -29.396600 0
M  V30 END ATOM
M  V30 BEGIN BOND
M  V30 1 2 1 10
M  V30 2 1 2 4
M  V30 3 1 2 10
M  V30 4 1 3 5
M  V30 5 1 5 11
M  V30 6 2 6 8
M  V30 7 1 6 11
M  V30 8 1 7 9
M  V30 9 2 7 11
M  V30 10 1 8 12
M  V30 11 2 9 12
M  V30 12 1 10 12
M  V30 13 1 3 13
M  V30 14 1 3 14
M  V30 15 1 4 15
M  V30 16 1 4 16
M  V30 17 1 4 17
M  V30 18 1 5 18
M  V30 19 1 5 19
M  V30 20 1 6 20
M  V30 21 1 7 21
M  V30 22 1 8 22
M  V30 23 1 9 23
M  V30 24 1 3 24
M  V30 END BOND
M  V30 END CTAB
M  END
>  <Ligand_Instance>  (57) 
5N1H_8G2_A_403

>  <Dataset>  (57) 
PDB

>  <PDB_ID>  (57) 
5N1H

>  <Chain>  (57) 
A

>  <Resi>  (57) 
403

>  <Num_Resolved_Atoms>  (57) 
12

>  <Num_H_Atoms_ProtBoundConf>  (57) 
12

>  <Pocket>  (57) 
A

>  <Name>  (57) 
(4-methoxycarbonylphenyl)methylazanium

>  <Num_Not_Resolved_Atoms>  (57) 
0

>  <ATP_Site>  (57) 
True

>  <Peripheral>  (57) 
False

>  <Standardized_SMILES>  (57) 
[H]C1=C([H])C(C([H])([H])[N+]([H])([H])[H])=C([H])C([H])=C1C(=O)OC([H])([H])[H]

>  <2D_Mol_H>  (57) 
<rdkit.Chem.rdchem.Mol object at 0x77059d9e5310>

>  <MW>  (57) 
166.2

>  <HBA>  (57) 
2

>  <HBD>  (57) 
1

>  <LogP>  (57) 
0.2151

>  <NRB>  (57) 
4

>  <TPSA>  (57) 
53.94

>  <Num_Heavy_Atoms>  (57) 
12

>  <Ro5>  (57) 
[True, True, True, True, True, True]

>  <Ro5_Fulfilled>  (57) 
True

>  <Ro3>  (57) 
[True, True, True, True]

>  <Ro3_Fulfilled>  (57) 
True

>  <Fsp3>  (57) 
0.222222

>  <Fsp3_0.42>  (57) 
False

>  <Fsp3_0.45>  (57) 
False

>  <Stereogenic_Carbons>  (57) 
0

>  <C_Atoms>  (57) 
9

>  <FCStereo>  (57) 
0.0

>  <SPS>  (57) 
114

>  <nSPS>  (57) 
9.5

>  <PBF>  (57) 
0.385846

>  <PBF_0.6>  (57) 
False

>  <nPBF>  (57) 
0.032154

>  <nPBF_0.016>  (57) 
True

>  <PMI1>  (57) 
163.951305

>  <PMI2>  (57) 
1210.872413

>  <PMI3>  (57) 
1341.37744

>  <NPR1>  (57) 
0.122226

>  <NPR2>  (57) 
0.902708

>  <Sum_NPR>  (57) 
1.024934

>  <Sum_NPR_1.07>  (57) 
False

>  <Sum_NPR_1.2>  (57) 
False

>  <MaxAbsEStateIndex>  (57) 
10.975208

>  <MaxEStateIndex>  (57) 
10.975208

>  <MinAbsEStateIndex>  (57) 
0.300359

>  <MinEStateIndex>  (57) 
-0.300359

>  <qed>  (57) 
0.638615

>  <MolWt>  (57) 
166.2

>  <HeavyAtomMolWt>  (57) 
154.104

>  <ExactMolWt>  (57) 
166.086255

>  <NumValenceElectrons>  (57) 
64

>  <NumRadicalElectrons>  (57) 
0

>  <MaxPartialCharge>  (57) 
0.337342

>  <MinPartialCharge>  (57) 
-0.465418

>  <MaxAbsPartialCharge>  (57) 
0.465418

>  <MinAbsPartialCharge>  (57) 
0.337342

>  <FpDensityMorgan1>  (57) 
1.416667

>  <FpDensityMorgan2>  (57) 
2.0

>  <FpDensityMorgan3>  (57) 
2.416667

>  <BCUT2D_MWHI>  (57) 
16.52326

>  <BCUT2D_MWLOW>  (57) 
10.134891

>  <BCUT2D_CHGHI>  (57) 
2.027939

>  <BCUT2D_CHGLO>  (57) 
-1.982506

>  <BCUT2D_LOGPHI>  (57) 
2.035294

>  <BCUT2D_LOGPLOW>  (57) 
-2.469515

>  <BCUT2D_MRHI>  (57) 
5.887235

>  <BCUT2D_MRLOW>  (57) 
-0.385971

>  <AvgIpc>  (57) 
2.167053

>  <BalabanJ>  (57) 
2.843524

>  <BertzCT>  (57) 
266.361954

>  <Chi0>  (57) 
8.974691

>  <Chi0n>  (57) 
7.040111

>  <Chi0v>  (57) 
7.040111

>  <Chi1>  (57) 
5.774387

>  <Chi1n>  (57) 
3.741417

>  <Chi1v>  (57) 
3.741417

>  <Chi2n>  (57) 
2.438505

>  <Chi2v>  (57) 
2.438505

>  <Chi3n>  (57) 
1.663709

>  <Chi3v>  (57) 
1.663709

>  <Chi4n>  (57) 
0.925346

>  <Chi4v>  (57) 
0.925346

>  <HallKierAlpha>  (57) 
-1.35

>  <Ipc>  (57) 
606.774939

>  <Kappa1>  (57) 
8.743897

>  <Kappa2>  (57) 
3.875201

>  <Kappa3>  (57) 
1.826041

>  <LabuteASA>  (57) 
71.141187

>  <PEOE_VSA1>  (57) 
10.47053

>  <PEOE_VSA10>  (57) 
0.0

>  <PEOE_VSA11>  (57) 
0.0

>  <PEOE_VSA12>  (57) 
0.0

>  <PEOE_VSA13>  (57) 
0.0

>  <PEOE_VSA14>  (57) 
5.969305

>  <PEOE_VSA2>  (57) 
0.0

>  <PEOE_VSA3>  (57) 
4.794537

>  <PEOE_VSA4>  (57) 
0.0

>  <PEOE_VSA5>  (57) 
0.0

>  <PEOE_VSA6>  (57) 
12.132734

>  <PEOE_VSA7>  (57) 
12.132734

>  <PEOE_VSA8>  (57) 
5.563451

>  <PEOE_VSA9>  (57) 
19.218005

>  <SMR_VSA1>  (57) 
15.265068

>  <SMR_VSA10>  (57) 
5.969305

>  <SMR_VSA2>  (57) 
0.0

>  <SMR_VSA3>  (57) 
0.0

>  <SMR_VSA4>  (57) 
0.0

>  <SMR_VSA5>  (57) 
6.544756

>  <SMR_VSA6>  (57) 
7.109798

>  <SMR_VSA7>  (57) 
35.392371

>  <SMR_VSA8>  (57) 
0.0

>  <SMR_VSA9>  (57) 
0.0

>  <SlogP_VSA1>  (57) 
5.733667

>  <SlogP_VSA10>  (57) 
0.0

>  <SlogP_VSA11>  (57) 
0.0

>  <SlogP_VSA12>  (57) 
0.0

>  <SlogP_VSA2>  (57) 
13.079103

>  <SlogP_VSA3>  (57) 
11.281619

>  <SlogP_VSA4>  (57) 
0.0

>  <SlogP_VSA5>  (57) 
15.92144

>  <SlogP_VSA6>  (57) 
24.265468

>  <SlogP_VSA7>  (57) 
0.0

>  <SlogP_VSA8>  (57) 
0.0

>  <SlogP_VSA9>  (57) 
0.0

>  <EState_VSA1>  (57) 
0.0

>  <EState_VSA10>  (57) 
4.794537

>  <EState_VSA11>  (57) 
0.0

>  <EState_VSA2>  (57) 
5.969305

>  <EState_VSA3>  (57) 
5.563451

>  <EState_VSA4>  (57) 
12.108208

>  <EState_VSA5>  (57) 
7.109798

>  <EState_VSA6>  (57) 
12.132734

>  <EState_VSA7>  (57) 
12.132734

>  <EState_VSA8>  (57) 
10.47053

>  <EState_VSA9>  (57) 
0.0

>  <VSA_EState1>  (57) 
4.555203

>  <VSA_EState10>  (57) 
0.0

>  <VSA_EState2>  (57) 
10.975208

>  <VSA_EState3>  (57) 
0.0

>  <VSA_EState4>  (57) 
5.426423

>  <VSA_EState5>  (57) 
-0.300359

>  <VSA_EState6>  (57) 
7.233333

>  <VSA_EState7>  (57) 
0.0

>  <VSA_EState8>  (57) 
0.737552

>  <VSA_EState9>  (57) 
1.37264

>  <FractionCSP3>  (57) 
0.222222

>  <HeavyAtomCount>  (57) 
12

>  <NHOHCount>  (57) 
3

>  <NOCount>  (57) 
3

>  <NumAliphaticCarbocycles>  (57) 
0

>  <NumAliphaticHeterocycles>  (57) 
0

>  <NumAliphaticRings>  (57) 
0

>  <NumAromaticCarbocycles>  (57) 
1

>  <NumAromaticHeterocycles>  (57) 
0

>  <NumAromaticRings>  (57) 
1

>  <NumHAcceptors>  (57) 
2

>  <NumHDonors>  (57) 
1

>  <NumHeteroatoms>  (57) 
3

>  <NumRotatableBonds>  (57) 
2

>  <NumSaturatedCarbocycles>  (57) 
0

>  <NumSaturatedHeterocycles>  (57) 
0

>  <NumSaturatedRings>  (57) 
0

>  <RingCount>  (57) 
1

>  <MolLogP>  (57) 
0.2151

>  <MolMR>  (57) 
44.3736

>  <fr_Al_COO>  (57) 
0

>  <fr_Al_OH>  (57) 
0

>  <fr_Al_OH_noTert>  (57) 
0

>  <fr_ArN>  (57) 
0

>  <fr_Ar_COO>  (57) 
0

>  <fr_Ar_N>  (57) 
0

>  <fr_Ar_NH>  (57) 
0

>  <fr_Ar_OH>  (57) 
0

>  <fr_COO>  (57) 
0

>  <fr_COO2>  (57) 
0

>  <fr_C_O>  (57) 
1

>  <fr_C_O_noCOO>  (57) 
1

>  <fr_C_S>  (57) 
0

>  <fr_HOCCN>  (57) 
0

>  <fr_Imine>  (57) 
0

>  <fr_NH0>  (57) 
0

>  <fr_NH1>  (57) 
0

>  <fr_NH2>  (57) 
0

>  <fr_N_O>  (57) 
0

>  <fr_Ndealkylation1>  (57) 
0

>  <fr_Ndealkylation2>  (57) 
0

>  <fr_Nhpyrrole>  (57) 
0

>  <fr_SH>  (57) 
0

>  <fr_aldehyde>  (57) 
0

>  <fr_alkyl_carbamate>  (57) 
0

>  <fr_alkyl_halide>  (57) 
0

>  <fr_allylic_oxid>  (57) 
0

>  <fr_amide>  (57) 
0

>  <fr_amidine>  (57) 
0

>  <fr_aniline>  (57) 
0

>  <fr_aryl_methyl>  (57) 
0

>  <fr_azide>  (57) 
0

>  <fr_azo>  (57) 
0

>  <fr_barbitur>  (57) 
0

>  <fr_benzene>  (57) 
1

>  <fr_benzodiazepine>  (57) 
0

>  <fr_bicyclic>  (57) 
0

>  <fr_diazo>  (57) 
0

>  <fr_dihydropyridine>  (57) 
0

>  <fr_epoxide>  (57) 
0

>  <fr_ester>  (57) 
1

>  <fr_ether>  (57) 
1

>  <fr_furan>  (57) 
0

>  <fr_guanido>  (57) 
0

>  <fr_halogen>  (57) 
0

>  <fr_hdrzine>  (57) 
0

>  <fr_hdrzone>  (57) 
0

>  <fr_imidazole>  (57) 
0

>  <fr_imide>  (57) 
0

>  <fr_isocyan>  (57) 
0

>  <fr_isothiocyan>  (57) 
0

>  <fr_ketone>  (57) 
0

>  <fr_ketone_Topliss>  (57) 
0

>  <fr_lactam>  (57) 
0

>  <fr_lactone>  (57) 
0

>  <fr_methoxy>  (57) 
1

>  <fr_morpholine>  (57) 
0

>  <fr_nitrile>  (57) 
0

>  <fr_nitro>  (57) 
0

>  <fr_nitro_arom>  (57) 
0

>  <fr_nitro_arom_nonortho>  (57) 
0

>  <fr_nitroso>  (57) 
0

>  <fr_oxazole>  (57) 
0

>  <fr_oxime>  (57) 
0

>  <fr_para_hydroxylation>  (57) 
0

>  <fr_phenol>  (57) 
0

>  <fr_phenol_noOrthoHbond>  (57) 
0

>  <fr_phos_acid>  (57) 
0

>  <fr_phos_ester>  (57) 
0

>  <fr_piperdine>  (57) 
0

>  <fr_piperzine>  (57) 
0

>  <fr_priamide>  (57) 
0

>  <fr_prisulfonamd>  (57) 
0

>  <fr_pyridine>  (57) 
0

>  <fr_quatN>  (57) 
1

>  <fr_sulfide>  (57) 
0

>  <fr_sulfonamd>  (57) 
0

>  <fr_sulfone>  (57) 
0

>  <fr_term_acetylene>  (57) 
0

>  <fr_tetrazole>  (57) 
0

>  <fr_thiazole>  (57) 
0

>  <fr_thiocyan>  (57) 
0

>  <fr_thiophene>  (57) 
0

>  <fr_unbrch_alkane>  (57) 
0

>  <fr_urea>  (57) 
0

>  <NP_Likeness>  (57) 
-0.266043

$$$$
8G5
     RDKit          3D

  0  0  0  0  0  0  0  0  0  0999 V3000
M  V30 BEGIN CTAB
M  V30 COUNTS 33 35 0 0 0
M  V30 BEGIN ATOM
M  V30 1 S 22.491000 19.551000 41.414000 0
M  V30 2 O 17.259000 16.049000 42.148000 0
M  V30 3 O 17.493000 17.280000 40.293000 0
M  V30 4 N 21.343000 19.408000 43.834000 0
M  V30 5 N 20.444000 18.135000 42.086000 0
M  V30 6 C 21.763000 18.529000 40.233000 0
M  V30 7 C 16.867000 18.661000 37.161000 0
M  V30 8 C 17.225000 19.460000 38.407000 0
M  V30 9 C 16.834000 17.184000 37.460000 0
M  V30 10 C 18.550000 19.000000 38.994000 0
M  V30 11 C 18.172000 16.715000 38.025000 0
M  V30 12 C 19.207000 15.788000 40.697000 0
M  V30 13 C 21.307000 18.997000 42.563000 0
M  V30 14 C 17.884000 16.293000 41.136000 0
M  V30 15 C 20.704000 17.869000 40.749000 0
M  V30 16 C 19.742000 17.016000 40.042000 0 CFG=2
M  V30 17 C 18.551000 17.507000 39.270000 0
M  V30 18 H 20.656800 19.082300 44.484400 0
M  V30 19 H 22.056100 20.041300 44.134700 0
M  V30 20 H 22.082600 18.436800 39.289900 0
M  V30 21 H 17.550200 18.836300 36.452200 0
M  V30 22 H 15.966700 18.949200 36.834800 0
M  V30 23 H 16.505500 19.337800 39.090700 0
M  V30 24 H 17.294000 20.427800 38.165100 0
M  V30 25 H 16.640700 16.683000 36.616400 0
M  V30 26 H 16.113500 17.001000 38.128900 0
M  V30 27 H 18.712200 19.488600 39.851300 0
M  V30 28 H 19.282400 19.210800 38.346500 0
M  V30 29 H 18.881000 16.839200 37.330800 0
M  V30 30 H 18.104300 15.746000 38.262700 0
M  V30 31 H 19.120000 15.029600 40.051000 0
M  V30 32 H 19.772100 15.503100 41.471300 0
M  V30 33 H 20.309500 16.628300 39.315600 0
M  V30 END ATOM
M  V30 BEGIN BOND
M  V30 1 1 1 6
M  V30 2 1 1 13
M  V30 3 2 2 14
M  V30 4 1 3 14
M  V30 5 1 17 3
M  V30 6 1 4 13
M  V30 7 2 5 13
M  V30 8 1 5 15
M  V30 9 2 6 15
M  V30 10 1 7 8
M  V30 11 1 7 9
M  V30 12 1 8 10
M  V30 13 1 9 11
M  V30 14 1 10 17
M  V30 15 1 11 17
M  V30 16 1 12 14
M  V30 17 1 12 16
M  V30 18 1 15 16
M  V30 19 1 16 17
M  V30 20 1 4 18
M  V30 21 1 4 19
M  V30 22 1 6 20
M  V30 23 1 7 21
M  V30 24 1 7 22
M  V30 25 1 8 23
M  V30 26 1 8 24
M  V30 27 1 9 25
M  V30 28 1 9 26
M  V30 29 1 10 27
M  V30 30 1 10 28
M  V30 31 1 11 29
M  V30 32 1 11 30
M  V30 33 1 12 31
M  V30 34 1 12 32
M  V30 35 1 16 33 CFG=3
M  V30 END BOND
M  V30 END CTAB
M  END
>  <Ligand_Instance>  (58) 
5N1G_8G5_A_403

>  <Dataset>  (58) 
PDB

>  <PDB_ID>  (58) 
5N1G

>  <Chain>  (58) 
A

>  <Resi>  (58) 
403

>  <Num_Resolved_Atoms>  (58) 
17

>  <Num_H_Atoms_ProtBoundConf>  (58) 
16

>  <Pocket>  (58) 
X

>  <Name>  (58) 
(4R)-4-(2-amino-1,3-thiazol-4-yl)-1-oxaspiro[4.5]decan-2-one

>  <Num_Not_Resolved_Atoms>  (58) 
0

>  <ATP_Site>  (58) 
False

>  <Peripheral>  (58) 
True

>  <Standardized_SMILES>  (58) 
[H]C1=C([C@@]2([H])C([H])([H])C(=O)OC23C([H])([H])C([H])([H])C([H])([H])C([H])([H])C3([H])[H])N=C(N([H])[H])S1

>  <2D_Mol_H>  (58) 
<rdkit.Chem.rdchem.Mol object at 0x77059d9e53f0>

>  <MW>  (58) 
252.339

>  <HBA>  (58) 
5

>  <HBD>  (58) 
1

>  <LogP>  (58) 
2.4587

>  <NRB>  (58) 
2

>  <TPSA>  (58) 
65.21

>  <Num_Heavy_Atoms>  (58) 
17

>  <Ro5>  (58) 
[True, True, True, True, True, True]

>  <Ro5_Fulfilled>  (58) 
True

>  <Ro3>  (58) 
[True, False, True, True]

>  <Ro3_Fulfilled>  (58) 
True

>  <Fsp3>  (58) 
0.666667

>  <Fsp3_0.42>  (58) 
True

>  <Fsp3_0.45>  (58) 
True

>  <Stereogenic_Carbons>  (58) 
1

>  <C_Atoms>  (58) 
12

>  <FCStereo>  (58) 
0.083333

>  <SPS>  (58) 
464

>  <nSPS>  (58) 
27.294118

>  <PBF>  (58) 
0.906892

>  <PBF_0.6>  (58) 
True

>  <nPBF>  (58) 
0.053347

>  <nPBF_0.016>  (58) 
True

>  <PMI1>  (58) 
681.100892

>  <PMI2>  (58) 
1742.831579

>  <PMI3>  (58) 
2058.149149

>  <NPR1>  (58) 
0.330929

>  <NPR2>  (58) 
0.846796

>  <Sum_NPR>  (58) 
1.177724

>  <Sum_NPR_1.07>  (58) 
True

>  <Sum_NPR_1.2>  (58) 
False

>  <MaxAbsEStateIndex>  (58) 
11.62917

>  <MaxEStateIndex>  (58) 
11.62917

>  <MinAbsEStateIndex>  (58) 
0.080119

>  <MinEStateIndex>  (58) 
-0.281898

>  <qed>  (58) 
0.779658

>  <MolWt>  (58) 
252.339

>  <HeavyAtomMolWt>  (58) 
236.211

>  <ExactMolWt>  (58) 
252.093249

>  <NumValenceElectrons>  (58) 
92

>  <NumRadicalElectrons>  (58) 
0

>  <MaxPartialCharge>  (58) 
0.306696

>  <MinPartialCharge>  (58) 
-0.458308

>  <MaxAbsPartialCharge>  (58) 
0.458308

>  <MinAbsPartialCharge>  (58) 
0.306696

>  <FpDensityMorgan1>  (58) 
1.411765

>  <FpDensityMorgan2>  (58) 
2.176471

>  <FpDensityMorgan3>  (58) 
2.823529

>  <BCUT2D_MWHI>  (58) 
32.13349

>  <BCUT2D_MWLOW>  (58) 
9.745613

>  <BCUT2D_CHGHI>  (58) 
2.504236

>  <BCUT2D_CHGLO>  (58) 
-2.356385

>  <BCUT2D_LOGPHI>  (58) 
2.487279

>  <BCUT2D_LOGPLOW>  (58) 
-2.362207

>  <BCUT2D_MRHI>  (58) 
7.130851

>  <BCUT2D_MRLOW>  (58) 
-0.150775

>  <AvgIpc>  (58) 
2.846868

>  <BalabanJ>  (58) 
1.930567

>  <BertzCT>  (58) 
437.468958

>  <Chi0>  (58) 
11.880469

>  <Chi0n>  (58) 
9.64665

>  <Chi0v>  (58) 
10.463147

>  <Chi1>  (58) 
8.195107

>  <Chi1n>  (58) 
6.123021

>  <Chi1v>  (58) 
7.002674

>  <Chi2n>  (58) 
4.966824

>  <Chi2v>  (58) 
5.856505

>  <Chi3n>  (58) 
3.919585

>  <Chi3v>  (58) 
4.611707

>  <Chi4n>  (58) 
3.127763

>  <Chi4v>  (58) 
3.74434

>  <HallKierAlpha>  (58) 
-1.1

>  <Ipc>  (58) 
13573.866611

>  <Kappa1>  (58) 
11.017006

>  <Kappa2>  (58) 
3.978426

>  <Kappa3>  (58) 
1.821013

>  <LabuteASA>  (58) 
104.179189

>  <PEOE_VSA1>  (58) 
10.47053

>  <PEOE_VSA10>  (58) 
5.601051

>  <PEOE_VSA11>  (58) 
5.131558

>  <PEOE_VSA12>  (58) 
0.0

>  <PEOE_VSA13>  (58) 
0.0

>  <PEOE_VSA14>  (58) 
5.969305

>  <PEOE_VSA2>  (58) 
4.794537

>  <PEOE_VSA3>  (58) 
4.983979

>  <PEOE_VSA4>  (58) 
0.0

>  <PEOE_VSA5>  (58) 
11.336786

>  <PEOE_VSA6>  (58) 
6.420822

>  <PEOE_VSA7>  (58) 
25.683286

>  <PEOE_VSA8>  (58) 
5.380063

>  <PEOE_VSA9>  (58) 
18.032656

>  <SMR_VSA1>  (58) 
9.5314

>  <SMR_VSA10>  (58) 
22.43765

>  <SMR_VSA2>  (58) 
0.0

>  <SMR_VSA3>  (58) 
4.983979

>  <SMR_VSA4>  (58) 
0.0

>  <SMR_VSA5>  (58) 
50.043887

>  <SMR_VSA6>  (58) 
5.733667

>  <SMR_VSA7>  (58) 
11.073991

>  <SMR_VSA8>  (58) 
0.0

>  <SMR_VSA9>  (58) 
0.0

>  <SlogP_VSA1>  (58) 
5.733667

>  <SlogP_VSA10>  (58) 
5.131558

>  <SlogP_VSA11>  (58) 
0.0

>  <SlogP_VSA12>  (58) 
11.336786

>  <SlogP_VSA2>  (58) 
16.554335

>  <SlogP_VSA3>  (58) 
9.5314

>  <SlogP_VSA4>  (58) 
0.0

>  <SlogP_VSA5>  (58) 
50.136764

>  <SlogP_VSA6>  (58) 
5.380063

>  <SlogP_VSA7>  (58) 
0.0

>  <SlogP_VSA8>  (58) 
0.0

>  <SlogP_VSA9>  (58) 
0.0

>  <EState_VSA1>  (58) 
0.0

>  <EState_VSA10>  (58) 
4.794537

>  <EState_VSA11>  (58) 
0.0

>  <EState_VSA2>  (58) 
17.488262

>  <EState_VSA3>  (58) 
11.55238

>  <EState_VSA4>  (58) 
31.377214

>  <EState_VSA5>  (58) 
17.757608

>  <EState_VSA6>  (58) 
0.0

>  <EState_VSA7>  (58) 
5.380063

>  <EState_VSA8>  (58) 
4.983979

>  <EState_VSA9>  (58) 
10.47053

>  <VSA_EState1>  (58) 
5.650953

>  <VSA_EState10>  (58) 
1.439622

>  <VSA_EState2>  (58) 
15.969944

>  <VSA_EState3>  (58) 
2.544911

>  <VSA_EState4>  (58) 
6.343274

>  <VSA_EState5>  (58) 
0.034557

>  <VSA_EState6>  (58) 
0.0

>  <VSA_EState7>  (58) 
5.933406

>  <VSA_EState8>  (58) 
0.0

>  <VSA_EState9>  (58) 
0.0

>  <FractionCSP3>  (58) 
0.666667

>  <HeavyAtomCount>  (58) 
17

>  <NHOHCount>  (58) 
2

>  <NOCount>  (58) 
4

>  <NumAliphaticCarbocycles>  (58) 
1

>  <NumAliphaticHeterocycles>  (58) 
1

>  <NumAliphaticRings>  (58) 
2

>  <NumAromaticCarbocycles>  (58) 
0

>  <NumAromaticHeterocycles>  (58) 
1

>  <NumAromaticRings>  (58) 
1

>  <NumHAcceptors>  (58) 
5

>  <NumHDonors>  (58) 
1

>  <NumHeteroatoms>  (58) 
5

>  <NumRotatableBonds>  (58) 
1

>  <NumSaturatedCarbocycles>  (58) 
1

>  <NumSaturatedHeterocycles>  (58) 
1

>  <NumSaturatedRings>  (58) 
2

>  <RingCount>  (58) 
3

>  <MolLogP>  (58) 
2.4587

>  <MolMR>  (58) 
65.7924

>  <fr_Al_COO>  (58) 
0

>  <fr_Al_OH>  (58) 
0

>  <fr_Al_OH_noTert>  (58) 
0

>  <fr_ArN>  (58) 
1

>  <fr_Ar_COO>  (58) 
0

>  <fr_Ar_N>  (58) 
1

>  <fr_Ar_NH>  (58) 
0

>  <fr_Ar_OH>  (58) 
0

>  <fr_COO>  (58) 
0

>  <fr_COO2>  (58) 
0

>  <fr_C_O>  (58) 
1

>  <fr_C_O_noCOO>  (58) 
1

>  <fr_C_S>  (58) 
0

>  <fr_HOCCN>  (58) 
0

>  <fr_Imine>  (58) 
0

>  <fr_NH0>  (58) 
1

>  <fr_NH1>  (58) 
0

>  <fr_NH2>  (58) 
1

>  <fr_N_O>  (58) 
0

>  <fr_Ndealkylation1>  (58) 
0

>  <fr_Ndealkylation2>  (58) 
0

>  <fr_Nhpyrrole>  (58) 
0

>  <fr_SH>  (58) 
0

>  <fr_aldehyde>  (58) 
0

>  <fr_alkyl_carbamate>  (58) 
0

>  <fr_alkyl_halide>  (58) 
0

>  <fr_allylic_oxid>  (58) 
0

>  <fr_amide>  (58) 
0

>  <fr_amidine>  (58) 
0

>  <fr_aniline>  (58) 
1

>  <fr_aryl_methyl>  (58) 
0

>  <fr_azide>  (58) 
0

>  <fr_azo>  (58) 
0

>  <fr_barbitur>  (58) 
0

>  <fr_benzene>  (58) 
0

>  <fr_benzodiazepine>  (58) 
0

>  <fr_bicyclic>  (58) 
0

>  <fr_diazo>  (58) 
0

>  <fr_dihydropyridine>  (58) 
0

>  <fr_epoxide>  (58) 
0

>  <fr_ester>  (58) 
1

>  <fr_ether>  (58) 
1

>  <fr_furan>  (58) 
0

>  <fr_guanido>  (58) 
0

>  <fr_halogen>  (58) 
0

>  <fr_hdrzine>  (58) 
0

>  <fr_hdrzone>  (58) 
0

>  <fr_imidazole>  (58) 
0

>  <fr_imide>  (58) 
0

>  <fr_isocyan>  (58) 
0

>  <fr_isothiocyan>  (58) 
0

>  <fr_ketone>  (58) 
0

>  <fr_ketone_Topliss>  (58) 
0

>  <fr_lactam>  (58) 
0

>  <fr_lactone>  (58) 
0

>  <fr_methoxy>  (58) 
0

>  <fr_morpholine>  (58) 
0

>  <fr_nitrile>  (58) 
0

>  <fr_nitro>  (58) 
0

>  <fr_nitro_arom>  (58) 
0

>  <fr_nitro_arom_nonortho>  (58) 
0

>  <fr_nitroso>  (58) 
0

>  <fr_oxazole>  (58) 
0

>  <fr_oxime>  (58) 
0

>  <fr_para_hydroxylation>  (58) 
0

>  <fr_phenol>  (58) 
0

>  <fr_phenol_noOrthoHbond>  (58) 
0

>  <fr_phos_acid>  (58) 
0

>  <fr_phos_ester>  (58) 
0

>  <fr_piperdine>  (58) 
0

>  <fr_piperzine>  (58) 
0

>  <fr_priamide>  (58) 
0

>  <fr_prisulfonamd>  (58) 
0

>  <fr_pyridine>  (58) 
0

>  <fr_quatN>  (58) 
0

>  <fr_sulfide>  (58) 
0

>  <fr_sulfonamd>  (58) 
0

>  <fr_sulfone>  (58) 
0

>  <fr_term_acetylene>  (58) 
0

>  <fr_tetrazole>  (58) 
0

>  <fr_thiazole>  (58) 
1

>  <fr_thiocyan>  (58) 
0

>  <fr_thiophene>  (58) 
0

>  <fr_unbrch_alkane>  (58) 
0

>  <fr_urea>  (58) 
0

>  <NP_Likeness>  (58) 
0.273806

$$$$
8G8
     RDKit          3D

  0  0  0  0  0  0  0  0  0  0999 V3000
M  V30 BEGIN CTAB
M  V30 COUNTS 16 17 0 0 0
M  V30 BEGIN ATOM
M  V30 1 Cl -4.662000 36.810000 -15.034000 0
M  V30 2 N -6.136000 38.763000 -14.219000 0
M  V30 3 N -6.278000 40.326000 -10.782000 0
M  V30 4 N -4.616000 37.780000 -12.656000 0
M  V30 5 N -4.631000 38.830000 -10.475000 0
M  V30 6 C -3.512000 38.102000 -9.840000 0
M  V30 7 C -5.402000 39.828000 -9.945000 0
M  V30 8 C -6.559000 39.587000 -13.253000 0
M  V30 9 C -5.201000 37.919000 -13.828000 0
M  V30 10 C -5.071000 38.663000 -11.769000 0
M  V30 11 C -6.074000 39.609000 -11.958000 0
M  V30 12 H -3.146000 37.428000 -10.481700 0
M  V30 13 H -2.792200 38.749600 -9.590100 0
M  V30 14 H -3.840900 37.635900 -9.018700 0
M  V30 15 H -5.305500 40.148700 -9.002800 0
M  V30 16 H -7.282000 40.237400 -13.485700 0
M  V30 END ATOM
M  V30 BEGIN BOND
M  V30 1 1 1 9
M  V30 2 2 2 8
M  V30 3 1 2 9
M  V30 4 2 3 7
M  V30 5 1 3 11
M  V30 6 2 4 9
M  V30 7 1 4 10
M  V30 8 1 5 6
M  V30 9 1 5 7
M  V30 10 1 5 10
M  V30 11 1 8 11
M  V30 12 2 10 11
M  V30 13 1 6 12
M  V30 14 1 6 13
M  V30 15 1 6 14
M  V30 16 1 7 15
M  V30 17 1 8 16
M  V30 END BOND
M  V30 END CTAB
M  END
>  <Ligand_Instance>  (59) 
5N1N_8G8_A_402

>  <Dataset>  (59) 
PDB

>  <PDB_ID>  (59) 
5N1N

>  <Chain>  (59) 
A

>  <Resi>  (59) 
402

>  <Num_Resolved_Atoms>  (59) 
11

>  <Num_H_Atoms_ProtBoundConf>  (59) 
5

>  <Pocket>  (59) 
X

>  <Name>  (59) 
2-chloranyl-9-methyl-purine

>  <Num_Not_Resolved_Atoms>  (59) 
0

>  <ATP_Site>  (59) 
False

>  <Peripheral>  (59) 
True

>  <Standardized_SMILES>  (59) 
[H]C1=NC(Cl)=NC2=C1N=C([H])N2C([H])([H])[H]

>  <2D_Mol_H>  (59) 
<rdkit.Chem.rdchem.Mol object at 0x77059d9e54d0>

>  <MW>  (59) 
168.587

>  <HBA>  (59) 
4

>  <HBD>  (59) 
0

>  <LogP>  (59) 
1.0167

>  <NRB>  (59) 
1

>  <TPSA>  (59) 
43.6

>  <Num_Heavy_Atoms>  (59) 
11

>  <Ro5>  (59) 
[True, True, True, True, True, True]

>  <Ro5_Fulfilled>  (59) 
True

>  <Ro3>  (59) 
[True, False, True, True]

>  <Ro3_Fulfilled>  (59) 
True

>  <Fsp3>  (59) 
0.166667

>  <Fsp3_0.42>  (59) 
False

>  <Fsp3_0.45>  (59) 
False

>  <Stereogenic_Carbons>  (59) 
0

>  <C_Atoms>  (59) 
6

>  <FCStereo>  (59) 
0.0

>  <SPS>  (59) 
118

>  <nSPS>  (59) 
10.727273

>  <PBF>  (59) 
0.133762

>  <PBF_0.6>  (59) 
False

>  <nPBF>  (59) 
0.01216

>  <nPBF_0.016>  (59) 
False

>  <PMI1>  (59) 
240.115365

>  <PMI2>  (59) 
721.627686

>  <PMI3>  (59) 
958.660483

>  <NPR1>  (59) 
0.25047

>  <NPR2>  (59) 
0.752746

>  <Sum_NPR>  (59) 
1.003215

>  <Sum_NPR_1.07>  (59) 
False

>  <Sum_NPR_1.2>  (59) 
False

>  <MaxAbsEStateIndex>  (59) 
5.584228

>  <MaxEStateIndex>  (59) 
5.584228

>  <MinAbsEStateIndex>  (59) 
0.251019

>  <MinEStateIndex>  (59) 
0.251019

>  <qed>  (59) 
0.551941

>  <MolWt>  (59) 
168.587

>  <HeavyAtomMolWt>  (59) 
163.547

>  <ExactMolWt>  (59) 
168.020274

>  <NumValenceElectrons>  (59) 
56

>  <NumRadicalElectrons>  (59) 
0

>  <MaxPartialCharge>  (59) 
0.223946

>  <MinPartialCharge>  (59) 
-0.3183

>  <MaxAbsPartialCharge>  (59) 
0.3183

>  <MinAbsPartialCharge>  (59) 
0.223946

>  <FpDensityMorgan1>  (59) 
1.454545

>  <FpDensityMorgan2>  (59) 
2.272727

>  <FpDensityMorgan3>  (59) 
3.090909

>  <BCUT2D_MWHI>  (59) 
35.495701

>  <BCUT2D_MWLOW>  (59) 
10.556672

>  <BCUT2D_CHGHI>  (59) 
2.004339

>  <BCUT2D_CHGLO>  (59) 
-1.909215

>  <BCUT2D_LOGPHI>  (59) 
2.085585

>  <BCUT2D_LOGPLOW>  (59) 
-1.885078

>  <BCUT2D_MRHI>  (59) 
6.280278

>  <BCUT2D_MRLOW>  (59) 
0.927901

>  <AvgIpc>  (59) 
2.331244

>  <BalabanJ>  (59) 
2.873086

>  <BertzCT>  (59) 
394.381655

>  <Chi0>  (59) 
7.844935

>  <Chi0n>  (59) 
5.821519

>  <Chi0v>  (59) 
6.577448

>  <Chi1>  (59) 
5.270857

>  <Chi1n>  (59) 
3.067502

>  <Chi1v>  (59) 
3.445466

>  <Chi2n>  (59) 
2.203355

>  <Chi2v>  (59) 
2.541417

>  <Chi3n>  (59) 
1.424737

>  <Chi3v>  (59) 
1.606842

>  <Chi4n>  (59) 
0.899784

>  <Chi4v>  (59) 
1.028633

>  <HallKierAlpha>  (59) 
-1.16

>  <Ipc>  (59) 
515.204904

>  <Kappa1>  (59) 
6.543966

>  <Kappa2>  (59) 
2.165579

>  <Kappa3>  (59) 
0.95229

>  <LabuteASA>  (59) 
67.859352

>  <PEOE_VSA1>  (59) 
4.5671

>  <PEOE_VSA10>  (59) 
5.516701

>  <PEOE_VSA11>  (59) 
5.647177

>  <PEOE_VSA12>  (59) 
5.283586

>  <PEOE_VSA13>  (59) 
0.0

>  <PEOE_VSA14>  (59) 
0.0

>  <PEOE_VSA2>  (59) 
0.0

>  <PEOE_VSA3>  (59) 
9.967957

>  <PEOE_VSA4>  (59) 
4.983979

>  <PEOE_VSA5>  (59) 
0.0

>  <PEOE_VSA6>  (59) 
0.0

>  <PEOE_VSA7>  (59) 
11.60094

>  <PEOE_VSA8>  (59) 
7.047672

>  <PEOE_VSA9>  (59) 
12.524164

>  <SMR_VSA1>  (59) 
0.0

>  <SMR_VSA10>  (59) 
22.764818

>  <SMR_VSA2>  (59) 
0.0

>  <SMR_VSA3>  (59) 
19.519035

>  <SMR_VSA4>  (59) 
7.047672

>  <SMR_VSA5>  (59) 
0.0

>  <SMR_VSA6>  (59) 
0.0

>  <SMR_VSA7>  (59) 
17.80775

>  <SMR_VSA8>  (59) 
0.0

>  <SMR_VSA9>  (59) 
0.0

>  <SlogP_VSA1>  (59) 
0.0

>  <SlogP_VSA10>  (59) 
0.0

>  <SlogP_VSA11>  (59) 
0.0

>  <SlogP_VSA12>  (59) 
11.60094

>  <SlogP_VSA2>  (59) 
19.519035

>  <SlogP_VSA3>  (59) 
7.047672

>  <SlogP_VSA4>  (59) 
0.0

>  <SlogP_VSA5>  (59) 
0.0

>  <SlogP_VSA6>  (59) 
12.524164

>  <SlogP_VSA7>  (59) 
5.283586

>  <SlogP_VSA8>  (59) 
11.163878

>  <SlogP_VSA9>  (59) 
0.0

>  <EState_VSA1>  (59) 
0.0

>  <EState_VSA10>  (59) 
0.0

>  <EState_VSA11>  (59) 
0.0

>  <EState_VSA2>  (59) 
5.283586

>  <EState_VSA3>  (59) 
0.0

>  <EState_VSA4>  (59) 
11.163878

>  <EState_VSA5>  (59) 
0.0

>  <EState_VSA6>  (59) 
17.091263

>  <EState_VSA7>  (59) 
7.047672

>  <EState_VSA8>  (59) 
14.951936

>  <EState_VSA9>  (59) 
11.60094

>  <VSA_EState1>  (59) 
1.794537

>  <VSA_EState10>  (59) 
5.584228

>  <VSA_EState2>  (59) 
11.827778

>  <VSA_EState3>  (59) 
0.251019

>  <VSA_EState4>  (59) 
1.515648

>  <VSA_EState5>  (59) 
0.0

>  <VSA_EState6>  (59) 
0.0

>  <VSA_EState7>  (59) 
3.278117

>  <VSA_EState8>  (59) 
0.0

>  <VSA_EState9>  (59) 
1.859784

>  <FractionCSP3>  (59) 
0.166667

>  <HeavyAtomCount>  (59) 
11

>  <NHOHCount>  (59) 
0

>  <NOCount>  (59) 
4

>  <NumAliphaticCarbocycles>  (59) 
0

>  <NumAliphaticHeterocycles>  (59) 
0

>  <NumAliphaticRings>  (59) 
0

>  <NumAromaticCarbocycles>  (59) 
0

>  <NumAromaticHeterocycles>  (59) 
2

>  <NumAromaticRings>  (59) 
2

>  <NumHAcceptors>  (59) 
4

>  <NumHDonors>  (59) 
0

>  <NumHeteroatoms>  (59) 
5

>  <NumRotatableBonds>  (59) 
0

>  <NumSaturatedCarbocycles>  (59) 
0

>  <NumSaturatedHeterocycles>  (59) 
0

>  <NumSaturatedRings>  (59) 
0

>  <RingCount>  (59) 
2

>  <MolLogP>  (59) 
1.0167

>  <MolMR>  (59) 
41.314

>  <fr_Al_COO>  (59) 
0

>  <fr_Al_OH>  (59) 
0

>  <fr_Al_OH_noTert>  (59) 
0

>  <fr_ArN>  (59) 
0

>  <fr_Ar_COO>  (59) 
0

>  <fr_Ar_N>  (59) 
4

>  <fr_Ar_NH>  (59) 
0

>  <fr_Ar_OH>  (59) 
0

>  <fr_COO>  (59) 
0

>  <fr_COO2>  (59) 
0

>  <fr_C_O>  (59) 
0

>  <fr_C_O_noCOO>  (59) 
0

>  <fr_C_S>  (59) 
0

>  <fr_HOCCN>  (59) 
0

>  <fr_Imine>  (59) 
0

>  <fr_NH0>  (59) 
4

>  <fr_NH1>  (59) 
0

>  <fr_NH2>  (59) 
0

>  <fr_N_O>  (59) 
0

>  <fr_Ndealkylation1>  (59) 
0

>  <fr_Ndealkylation2>  (59) 
0

>  <fr_Nhpyrrole>  (59) 
0

>  <fr_SH>  (59) 
0

>  <fr_aldehyde>  (59) 
0

>  <fr_alkyl_carbamate>  (59) 
0

>  <fr_alkyl_halide>  (59) 
0

>  <fr_allylic_oxid>  (59) 
0

>  <fr_amide>  (59) 
0

>  <fr_amidine>  (59) 
0

>  <fr_aniline>  (59) 
0

>  <fr_aryl_methyl>  (59) 
1

>  <fr_azide>  (59) 
0

>  <fr_azo>  (59) 
0

>  <fr_barbitur>  (59) 
0

>  <fr_benzene>  (59) 
0

>  <fr_benzodiazepine>  (59) 
0

>  <fr_bicyclic>  (59) 
1

>  <fr_diazo>  (59) 
0

>  <fr_dihydropyridine>  (59) 
0

>  <fr_epoxide>  (59) 
0

>  <fr_ester>  (59) 
0

>  <fr_ether>  (59) 
0

>  <fr_furan>  (59) 
0

>  <fr_guanido>  (59) 
0

>  <fr_halogen>  (59) 
1

>  <fr_hdrzine>  (59) 
0

>  <fr_hdrzone>  (59) 
0

>  <fr_imidazole>  (59) 
1

>  <fr_imide>  (59) 
0

>  <fr_isocyan>  (59) 
0

>  <fr_isothiocyan>  (59) 
0

>  <fr_ketone>  (59) 
0

>  <fr_ketone_Topliss>  (59) 
0

>  <fr_lactam>  (59) 
0

>  <fr_lactone>  (59) 
0

>  <fr_methoxy>  (59) 
0

>  <fr_morpholine>  (59) 
0

>  <fr_nitrile>  (59) 
0

>  <fr_nitro>  (59) 
0

>  <fr_nitro_arom>  (59) 
0

>  <fr_nitro_arom_nonortho>  (59) 
0

>  <fr_nitroso>  (59) 
0

>  <fr_oxazole>  (59) 
0

>  <fr_oxime>  (59) 
0

>  <fr_para_hydroxylation>  (59) 
0

>  <fr_phenol>  (59) 
0

>  <fr_phenol_noOrthoHbond>  (59) 
0

>  <fr_phos_acid>  (59) 
0

>  <fr_phos_ester>  (59) 
0

>  <fr_piperdine>  (59) 
0

>  <fr_piperzine>  (59) 
0

>  <fr_priamide>  (59) 
0

>  <fr_prisulfonamd>  (59) 
0

>  <fr_pyridine>  (59) 
0

>  <fr_quatN>  (59) 
0

>  <fr_sulfide>  (59) 
0

>  <fr_sulfonamd>  (59) 
0

>  <fr_sulfone>  (59) 
0

>  <fr_term_acetylene>  (59) 
0

>  <fr_tetrazole>  (59) 
0

>  <fr_thiazole>  (59) 
0

>  <fr_thiocyan>  (59) 
0

>  <fr_thiophene>  (59) 
0

>  <fr_unbrch_alkane>  (59) 
0

>  <fr_urea>  (59) 
0

>  <NP_Likeness>  (59) 
-1.12318

$$$$
8GB
     RDKit          3D

  0  0  0  0  0  0  0  0  0  0999 V3000
M  V30 BEGIN CTAB
M  V30 COUNTS 21 21 0 0 0
M  V30 BEGIN ATOM
M  V30 1 Cl -10.935000 26.956000 -25.908000 0
M  V30 2 Cl -13.338000 22.032000 -26.108000 0
M  V30 3 O -16.527000 26.511000 -22.923000 0
M  V30 4 O -14.843000 27.490000 -24.515000 0
M  V30 5 C -16.738000 24.189000 -22.501000 0
M  V30 6 C -12.666000 27.172000 -26.342000 0
M  V30 7 C -13.112000 24.736000 -26.152000 0
M  V30 8 C -14.793000 23.835000 -24.682000 0
M  V30 9 C -13.780000 23.659000 -25.607000 0
M  V30 10 C -16.147000 25.361000 -23.204000 0
M  V30 11 C -14.501000 26.227000 -24.883000 0
M  V30 12 C -13.473000 26.036000 -25.808000 0
M  V30 13 C -15.141000 25.128000 -24.285000 0
M  V30 14 H -15.578100 27.636200 -23.853000 0
M  V30 15 H -16.321500 23.348100 -22.846700 0
M  V30 16 H -16.565300 24.267300 -21.519200 0
M  V30 17 H -17.724100 24.164400 -22.665000 0
M  V30 18 H -12.756200 27.202900 -27.337400 0
M  V30 19 H -13.001000 28.028900 -25.950200 0
M  V30 20 H -12.364200 24.582100 -26.797800 0
M  V30 21 H -15.271700 23.044000 -24.301100 0
M  V30 END ATOM
M  V30 BEGIN BOND
M  V30 1 1 1 6
M  V30 2 1 2 9
M  V30 3 2 3 10
M  V30 4 1 4 11
M  V30 5 1 5 10
M  V30 6 1 6 12
M  V30 7 2 7 9
M  V30 8 1 7 12
M  V30 9 1 8 9
M  V30 10 2 8 13
M  V30 11 1 10 13
M  V30 12 2 11 12
M  V30 13 1 11 13
M  V30 14 1 4 14
M  V30 15 1 5 15
M  V30 16 1 5 16
M  V30 17 1 5 17
M  V30 18 1 6 18
M  V30 19 1 6 19
M  V30 20 1 7 20
M  V30 21 1 8 21
M  V30 END BOND
M  V30 END CTAB
M  END
>  <Ligand_Instance>  (60) 
5N1O_8GB_A_402

>  <Dataset>  (60) 
PDB

>  <PDB_ID>  (60) 
5N1O

>  <Chain>  (60) 
A

>  <Resi>  (60) 
402

>  <Num_Resolved_Atoms>  (60) 
13

>  <Num_H_Atoms_ProtBoundConf>  (60) 
8

>  <Pocket>  (60) 
A

>  <Name>  (60) 
1-[5-chloranyl-3-(chloromethyl)-2-oxidanyl-phenyl]ethanone

>  <Num_Not_Resolved_Atoms>  (60) 
0

>  <ATP_Site>  (60) 
True

>  <Peripheral>  (60) 
False

>  <Standardized_SMILES>  (60) 
[H]OC1=C(C([H])([H])Cl)C([H])=C(Cl)C([H])=C1C(=O)C([H])([H])[H]

>  <2D_Mol_H>  (60) 
<rdkit.Chem.rdchem.Mol object at 0x77059d9e55b0>

>  <MW>  (60) 
219.067

>  <HBA>  (60) 
2

>  <HBD>  (60) 
1

>  <LogP>  (60) 
2.987

>  <NRB>  (60) 
4

>  <TPSA>  (60) 
37.3

>  <Num_Heavy_Atoms>  (60) 
13

>  <Ro5>  (60) 
[True, True, True, True, True, True]

>  <Ro5_Fulfilled>  (60) 
True

>  <Ro3>  (60) 
[True, True, True, True]

>  <Ro3_Fulfilled>  (60) 
True

>  <Fsp3>  (60) 
0.222222

>  <Fsp3_0.42>  (60) 
False

>  <Fsp3_0.45>  (60) 
False

>  <Stereogenic_Carbons>  (60) 
0

>  <C_Atoms>  (60) 
9

>  <FCStereo>  (60) 
0.0

>  <SPS>  (60) 
131

>  <nSPS>  (60) 
10.076923

>  <PBF>  (60) 
0.273371

>  <PBF_0.6>  (60) 
False

>  <nPBF>  (60) 
0.021029

>  <nPBF_0.016>  (60) 
True

>  <PMI1>  (60) 
787.723465

>  <PMI2>  (60) 
1047.811102

>  <PMI3>  (60) 
1747.834893

>  <NPR1>  (60) 
0.450685

>  <NPR2>  (60) 
0.599491

>  <Sum_NPR>  (60) 
1.050176

>  <Sum_NPR_1.07>  (60) 
False

>  <Sum_NPR_1.2>  (60) 
False

>  <MaxAbsEStateIndex>  (60) 
11.024852

>  <MaxEStateIndex>  (60) 
11.024852

>  <MinAbsEStateIndex>  (60) 
0.076944

>  <MinEStateIndex>  (60) 
-0.230216

>  <qed>  (60) 
0.612701

>  <MolWt>  (60) 
219.067

>  <HeavyAtomMolWt>  (60) 
211.003

>  <ExactMolWt>  (60) 
217.990135

>  <NumValenceElectrons>  (60) 
70

>  <NumRadicalElectrons>  (60) 
0

>  <MaxPartialCharge>  (60) 
0.163079

>  <MinPartialCharge>  (60) 
-0.506859

>  <MaxAbsPartialCharge>  (60) 
0.506859

>  <MinAbsPartialCharge>  (60) 
0.163079

>  <FpDensityMorgan1>  (60) 
1.538462

>  <FpDensityMorgan2>  (60) 
2.153846

>  <FpDensityMorgan3>  (60) 
2.615385

>  <BCUT2D_MWHI>  (60) 
35.49677

>  <BCUT2D_MWLOW>  (60) 
10.07235

>  <BCUT2D_CHGHI>  (60) 
2.112151

>  <BCUT2D_CHGLO>  (60) 
-2.053191

>  <BCUT2D_LOGPHI>  (60) 
2.280281

>  <BCUT2D_LOGPLOW>  (60) 
-1.948897

>  <BCUT2D_MRHI>  (60) 
6.30935

>  <BCUT2D_MRLOW>  (60) 
0.101033

>  <AvgIpc>  (60) 
2.075817

>  <BalabanJ>  (60) 
3.351866

>  <BertzCT>  (60) 
347.713093

>  <Chi0>  (60) 
10.008072

>  <Chi0n>  (60) 
6.973198

>  <Chi0v>  (60) 
8.485056

>  <Chi1>  (60) 
6.057749

>  <Chi1n>  (60) 
3.642228

>  <Chi1v>  (60) 
4.554715

>  <Chi2n>  (60) 
2.650897

>  <Chi2v>  (60) 
3.354594

>  <Chi3n>  (60) 
1.676889

>  <Chi3v>  (60) 
2.183041

>  <Chi4n>  (60) 
1.025929

>  <Chi4v>  (60) 
1.470473

>  <HallKierAlpha>  (60) 
-0.73

>  <Ipc>  (60) 
701.626169

>  <Kappa1>  (60) 
10.3515

>  <Kappa2>  (60) 
3.985475

>  <Kappa3>  (60) 
2.140664

>  <LabuteASA>  (60) 
86.088518

>  <PEOE_VSA1>  (60) 
5.106527

>  <PEOE_VSA10>  (60) 
5.749512

>  <PEOE_VSA11>  (60) 
5.783245

>  <PEOE_VSA12>  (60) 
0.0

>  <PEOE_VSA13>  (60) 
0.0

>  <PEOE_VSA14>  (60) 
0.0

>  <PEOE_VSA2>  (60) 
4.794537

>  <PEOE_VSA3>  (60) 
0.0

>  <PEOE_VSA4>  (60) 
0.0

>  <PEOE_VSA5>  (60) 
11.60094

>  <PEOE_VSA6>  (60) 
11.60094

>  <PEOE_VSA7>  (60) 
19.056471

>  <PEOE_VSA8>  (60) 
10.586085

>  <PEOE_VSA9>  (60) 
11.443455

>  <SMR_VSA1>  (60) 
9.901065

>  <SMR_VSA10>  (60) 
28.985125

>  <SMR_VSA2>  (60) 
0.0

>  <SMR_VSA3>  (60) 
0.0

>  <SMR_VSA4>  (60) 
0.0

>  <SMR_VSA5>  (60) 
12.803741

>  <SMR_VSA6>  (60) 
0.0

>  <SMR_VSA7>  (60) 
28.28227

>  <SMR_VSA8>  (60) 
0.0

>  <SMR_VSA9>  (60) 
5.749512

>  <SlogP_VSA1>  (60) 
0.0

>  <SlogP_VSA10>  (60) 
0.0

>  <SlogP_VSA11>  (60) 
5.749512

>  <SlogP_VSA12>  (60) 
23.20188

>  <SlogP_VSA2>  (60) 
10.889772

>  <SlogP_VSA3>  (60) 
5.880003

>  <SlogP_VSA4>  (60) 
0.0

>  <SlogP_VSA5>  (60) 
22.845177

>  <SlogP_VSA6>  (60) 
12.132734

>  <SlogP_VSA7>  (60) 
5.022633

>  <SlogP_VSA8>  (60) 
0.0

>  <SlogP_VSA9>  (60) 
0.0

>  <EState_VSA1>  (60) 
0.0

>  <EState_VSA10>  (60) 
9.901065

>  <EState_VSA11>  (60) 
0.0

>  <EState_VSA2>  (60) 
22.976212

>  <EState_VSA3>  (60) 
10.586085

>  <EState_VSA4>  (60) 
0.0

>  <EState_VSA5>  (60) 
19.056471

>  <EState_VSA6>  (60) 
0.0

>  <EState_VSA7>  (60) 
0.0

>  <EState_VSA8>  (60) 
0.0

>  <EState_VSA9>  (60) 
23.20188

>  <VSA_EState1>  (60) 
0.0

>  <VSA_EState10>  (60) 
11.273726

>  <VSA_EState2>  (60) 
11.024852

>  <VSA_EState3>  (60) 
9.921265

>  <VSA_EState4>  (60) 
0.682886

>  <VSA_EState5>  (60) 
-0.17554

>  <VSA_EState6>  (60) 
2.963889

>  <VSA_EState7>  (60) 
0.0

>  <VSA_EState8>  (60) 
1.364478

>  <VSA_EState9>  (60) 
0.0

>  <FractionCSP3>  (60) 
0.222222

>  <HeavyAtomCount>  (60) 
13

>  <NHOHCount>  (60) 
1

>  <NOCount>  (60) 
2

>  <NumAliphaticCarbocycles>  (60) 
0

>  <NumAliphaticHeterocycles>  (60) 
0

>  <NumAliphaticRings>  (60) 
0

>  <NumAromaticCarbocycles>  (60) 
1

>  <NumAromaticHeterocycles>  (60) 
0

>  <NumAromaticRings>  (60) 
1

>  <NumHAcceptors>  (60) 
2

>  <NumHDonors>  (60) 
1

>  <NumHeteroatoms>  (60) 
4

>  <NumRotatableBonds>  (60) 
2

>  <NumSaturatedCarbocycles>  (60) 
0

>  <NumSaturatedHeterocycles>  (60) 
0

>  <NumSaturatedRings>  (60) 
0

>  <RingCount>  (60) 
1

>  <MolLogP>  (60) 
2.987

>  <MolMR>  (60) 
52.6783

>  <fr_Al_COO>  (60) 
0

>  <fr_Al_OH>  (60) 
0

>  <fr_Al_OH_noTert>  (60) 
0

>  <fr_ArN>  (60) 
0

>  <fr_Ar_COO>  (60) 
0

>  <fr_Ar_N>  (60) 
0

>  <fr_Ar_NH>  (60) 
0

>  <fr_Ar_OH>  (60) 
1

>  <fr_COO>  (60) 
0

>  <fr_COO2>  (60) 
0

>  <fr_C_O>  (60) 
1

>  <fr_C_O_noCOO>  (60) 
1

>  <fr_C_S>  (60) 
0

>  <fr_HOCCN>  (60) 
0

>  <fr_Imine>  (60) 
0

>  <fr_NH0>  (60) 
0

>  <fr_NH1>  (60) 
0

>  <fr_NH2>  (60) 
0

>  <fr_N_O>  (60) 
0

>  <fr_Ndealkylation1>  (60) 
0

>  <fr_Ndealkylation2>  (60) 
0

>  <fr_Nhpyrrole>  (60) 
0

>  <fr_SH>  (60) 
0

>  <fr_aldehyde>  (60) 
0

>  <fr_alkyl_carbamate>  (60) 
0

>  <fr_alkyl_halide>  (60) 
1

>  <fr_allylic_oxid>  (60) 
0

>  <fr_amide>  (60) 
0

>  <fr_amidine>  (60) 
0

>  <fr_aniline>  (60) 
0

>  <fr_aryl_methyl>  (60) 
0

>  <fr_azide>  (60) 
0

>  <fr_azo>  (60) 
0

>  <fr_barbitur>  (60) 
0

>  <fr_benzene>  (60) 
1

>  <fr_benzodiazepine>  (60) 
0

>  <fr_bicyclic>  (60) 
0

>  <fr_diazo>  (60) 
0

>  <fr_dihydropyridine>  (60) 
0

>  <fr_epoxide>  (60) 
0

>  <fr_ester>  (60) 
0

>  <fr_ether>  (60) 
0

>  <fr_furan>  (60) 
0

>  <fr_guanido>  (60) 
0

>  <fr_halogen>  (60) 
2

>  <fr_hdrzine>  (60) 
0

>  <fr_hdrzone>  (60) 
0

>  <fr_imidazole>  (60) 
0

>  <fr_imide>  (60) 
0

>  <fr_isocyan>  (60) 
0

>  <fr_isothiocyan>  (60) 
0

>  <fr_ketone>  (60) 
1

>  <fr_ketone_Topliss>  (60) 
1

>  <fr_lactam>  (60) 
0

>  <fr_lactone>  (60) 
0

>  <fr_methoxy>  (60) 
0

>  <fr_morpholine>  (60) 
0

>  <fr_nitrile>  (60) 
0

>  <fr_nitro>  (60) 
0

>  <fr_nitro_arom>  (60) 
0

>  <fr_nitro_arom_nonortho>  (60) 
0

>  <fr_nitroso>  (60) 
0

>  <fr_oxazole>  (60) 
0

>  <fr_oxime>  (60) 
0

>  <fr_para_hydroxylation>  (60) 
0

>  <fr_phenol>  (60) 
1

>  <fr_phenol_noOrthoHbond>  (60) 
1

>  <fr_phos_acid>  (60) 
0

>  <fr_phos_ester>  (60) 
0

>  <fr_piperdine>  (60) 
0

>  <fr_piperzine>  (60) 
0

>  <fr_priamide>  (60) 
0

>  <fr_prisulfonamd>  (60) 
0

>  <fr_pyridine>  (60) 
0

>  <fr_quatN>  (60) 
0

>  <fr_sulfide>  (60) 
0

>  <fr_sulfonamd>  (60) 
0

>  <fr_sulfone>  (60) 
0

>  <fr_term_acetylene>  (60) 
0

>  <fr_tetrazole>  (60) 
0

>  <fr_thiazole>  (60) 
0

>  <fr_thiocyan>  (60) 
0

>  <fr_thiophene>  (60) 
0

>  <fr_unbrch_alkane>  (60) 
0

>  <fr_urea>  (60) 
0

>  <NP_Likeness>  (60) 
-0.402667

$$$$
8JT
     RDKit          3D

  0  0  0  0  0  0  0  0  0  0999 V3000
M  V30 BEGIN CTAB
M  V30 COUNTS 34 36 0 0 0
M  V30 BEGIN ATOM
M  V30 1 O -12.231000 20.359000 -31.999000 0
M  V30 2 O -12.925000 22.536000 -32.340000 0
M  V30 3 N -10.231000 24.528000 -27.549000 0 CHG=1
M  V30 4 C -13.047000 21.195000 -32.814000 0
M  V30 5 C -9.794000 24.413000 -28.974000 0
M  V30 6 C -12.750000 27.019000 -26.796000 0
M  V30 7 C -12.217000 26.488000 -25.601000 0
M  V30 8 C -10.533000 20.916000 -30.267000 0
M  V30 9 C -12.037000 26.268000 -27.898000 0
M  V30 10 C -12.065000 24.997000 -25.878000 0
M  V30 11 C -10.002000 21.962000 -29.528000 0
M  V30 12 C -11.441000 23.531000 -30.635000 0
M  V30 13 C -11.508000 21.218000 -31.197000 0
M  V30 14 C -11.955000 22.495000 -31.366000 0
M  V30 15 C -11.681000 24.890000 -27.351000 0
M  V30 16 C -10.442000 23.271000 -29.705000 0
M  V30 17 H -9.673300 25.232400 -27.110000 0
M  V30 18 H -14.000600 20.900000 -32.753500 0
M  V30 19 H -12.741600 21.142900 -33.764800 0
M  V30 20 H -8.803100 24.279900 -28.992200 0
M  V30 21 H -10.024800 25.263700 -29.446200 0
M  V30 22 H -12.564900 27.999600 -26.860000 0
M  V30 23 H -13.736500 26.862200 -26.842900 0
M  V30 24 H -12.842000 26.643100 -24.836000 0
M  V30 25 H -11.329800 26.901300 -25.395700 0
M  V30 26 H -10.220800 19.975700 -30.131300 0
M  V30 27 H -11.205500 26.756500 -28.162400 0
M  V30 28 H -12.636700 26.176100 -28.692900 0
M  V30 29 H -12.927300 24.520500 -25.706600 0
M  V30 30 H -11.347800 24.606200 -25.301100 0
M  V30 31 H -9.288200 21.772300 -28.853900 0
M  V30 32 H -11.779600 24.462400 -30.768200 0
M  V30 33 H -12.256100 24.201300 -27.792500 0
M  V30 34 H -10.067900 23.647900 -27.103200 0
M  V30 END ATOM
M  V30 BEGIN BOND
M  V30 1 1 1 4
M  V30 2 1 1 13
M  V30 3 1 2 4
M  V30 4 1 2 14
M  V30 5 1 3 5
M  V30 6 1 3 15
M  V30 7 1 5 16
M  V30 8 1 6 7
M  V30 9 1 6 9
M  V30 10 1 7 10
M  V30 11 1 8 11
M  V30 12 2 8 13
M  V30 13 1 9 15
M  V30 14 1 10 15
M  V30 15 2 11 16
M  V30 16 2 12 14
M  V30 17 1 12 16
M  V30 18 1 13 14
M  V30 19 1 3 17
M  V30 20 1 4 18
M  V30 21 1 4 19
M  V30 22 1 5 20
M  V30 23 1 5 21
M  V30 24 1 6 22
M  V30 25 1 6 23
M  V30 26 1 7 24
M  V30 27 1 7 25
M  V30 28 1 8 26
M  V30 29 1 9 27
M  V30 30 1 9 28
M  V30 31 1 10 29
M  V30 32 1 10 30
M  V30 33 1 11 31
M  V30 34 1 12 32
M  V30 35 1 15 33
M  V30 36 1 3 34
M  V30 END BOND
M  V30 END CTAB
M  END
>  <Ligand_Instance>  (61) 
5N37_8JT_A_402

>  <Dataset>  (61) 
PDB

>  <PDB_ID>  (61) 
5N37

>  <Chain>  (61) 
A

>  <Resi>  (61) 
402

>  <Num_Resolved_Atoms>  (61) 
16

>  <Num_H_Atoms_ProtBoundConf>  (61) 
18

>  <Pocket>  (61) 
A

>  <Name>  (61) 
1,3-benzodioxol-5-ylmethyl(cyclopentyl)azanium

>  <Num_Not_Resolved_Atoms>  (61) 
0

>  <ATP_Site>  (61) 
True

>  <Peripheral>  (61) 
True

>  <Standardized_SMILES>  (61) 
[H]C1=C([H])C(C([H])([H])[N+]([H])([H])C2([H])C([H])([H])C([H])([H])C([H])([H])C2([H])[H])=C([H])C2=C1OC([H])([H])O2

>  <2D_Mol_H>  (61) 
<rdkit.Chem.rdchem.Mol object at 0x77059d9e5690>

>  <MW>  (61) 
220.292

>  <HBA>  (61) 
2

>  <HBD>  (61) 
1

>  <LogP>  (61) 
1.4213

>  <NRB>  (61) 
3

>  <TPSA>  (61) 
35.07

>  <Num_Heavy_Atoms>  (61) 
16

>  <Ro5>  (61) 
[True, True, True, True, True, True]

>  <Ro5_Fulfilled>  (61) 
True

>  <Ro3>  (61) 
[True, True, True, True]

>  <Ro3_Fulfilled>  (61) 
True

>  <Fsp3>  (61) 
0.538462

>  <Fsp3_0.42>  (61) 
True

>  <Fsp3_0.45>  (61) 
True

>  <Stereogenic_Carbons>  (61) 
0

>  <C_Atoms>  (61) 
13

>  <FCStereo>  (61) 
0.0

>  <SPS>  (61) 
308

>  <nSPS>  (61) 
19.25

>  <PBF>  (61) 
0.801691

>  <PBF_0.6>  (61) 
True

>  <nPBF>  (61) 
0.050106

>  <nPBF_0.016>  (61) 
True

>  <PMI1>  (61) 
418.191557

>  <PMI2>  (61) 
2061.703863

>  <PMI3>  (61) 
2256.913078

>  <NPR1>  (61) 
0.185294

>  <NPR2>  (61) 
0.913506

>  <Sum_NPR>  (61) 
1.0988

>  <Sum_NPR_1.07>  (61) 
True

>  <Sum_NPR_1.2>  (61) 
False

>  <MaxAbsEStateIndex>  (61) 
5.374804

>  <MaxEStateIndex>  (61) 
5.374804

>  <MinAbsEStateIndex>  (61) 
0.366196

>  <MinEStateIndex>  (61) 
0.366196

>  <qed>  (61) 
0.835816

>  <MolWt>  (61) 
220.292

>  <HeavyAtomMolWt>  (61) 
202.148

>  <ExactMolWt>  (61) 
220.133205

>  <NumValenceElectrons>  (61) 
86

>  <NumRadicalElectrons>  (61) 
0

>  <MaxPartialCharge>  (61) 
0.2308

>  <MinPartialCharge>  (61) 
-0.453595

>  <MaxAbsPartialCharge>  (61) 
0.453595

>  <MinAbsPartialCharge>  (61) 
0.2308

>  <FpDensityMorgan1>  (61) 
1.125

>  <FpDensityMorgan2>  (61) 
1.9375

>  <FpDensityMorgan3>  (61) 
2.8125

>  <BCUT2D_MWHI>  (61) 
16.696686

>  <BCUT2D_MWLOW>  (61) 
10.15064

>  <BCUT2D_CHGHI>  (61) 
2.182417

>  <BCUT2D_CHGLO>  (61) 
-2.081289

>  <BCUT2D_LOGPHI>  (61) 
2.31722

>  <BCUT2D_LOGPLOW>  (61) 
-2.874418

>  <BCUT2D_MRHI>  (61) 
5.436913

>  <BCUT2D_MRLOW>  (61) 
-0.70272

>  <AvgIpc>  (61) 
2.965804

>  <BalabanJ>  (61) 
1.613398

>  <BertzCT>  (61) 
372.195385

>  <Chi0>  (61) 
10.794682

>  <Chi0n>  (61) 
9.445889

>  <Chi0v>  (61) 
9.445889

>  <Chi1>  (61) 
7.915816

>  <Chi1n>  (61) 
6.135264

>  <Chi1v>  (61) 
6.135264

>  <Chi2n>  (61) 
4.671977

>  <Chi2v>  (61) 
4.671977

>  <Chi3n>  (61) 
3.523697

>  <Chi3v>  (61) 
3.523697

>  <Chi4n>  (61) 
2.563762

>  <Chi4v>  (61) 
2.563762

>  <HallKierAlpha>  (61) 
-1.22

>  <Ipc>  (61) 
12079.718684

>  <Kappa1>  (61) 
9.967562

>  <Kappa2>  (61) 
4.33714

>  <Kappa3>  (61) 
1.999733

>  <LabuteASA>  (61) 
95.751288

>  <PEOE_VSA1>  (61) 
14.790515

>  <PEOE_VSA10>  (61) 
6.544756

>  <PEOE_VSA11>  (61) 
11.499024

>  <PEOE_VSA12>  (61) 
6.792942

>  <PEOE_VSA13>  (61) 
0.0

>  <PEOE_VSA14>  (61) 
0.0

>  <PEOE_VSA2>  (61) 
0.0

>  <PEOE_VSA3>  (61) 
0.0

>  <PEOE_VSA4>  (61) 
0.0

>  <PEOE_VSA5>  (61) 
0.0

>  <PEOE_VSA6>  (61) 
0.0

>  <PEOE_VSA7>  (61) 
43.882388

>  <PEOE_VSA8>  (61) 
5.563451

>  <PEOE_VSA9>  (61) 
6.041841

>  <SMR_VSA1>  (61) 
14.790515

>  <SMR_VSA10>  (61) 
0.0

>  <SMR_VSA2>  (61) 
0.0

>  <SMR_VSA3>  (61) 
0.0

>  <SMR_VSA4>  (61) 
0.0

>  <SMR_VSA5>  (61) 
38.269884

>  <SMR_VSA6>  (61) 
6.792942

>  <SMR_VSA7>  (61) 
23.762553

>  <SMR_VSA8>  (61) 
0.0

>  <SMR_VSA9>  (61) 
11.499024

>  <SlogP_VSA1>  (61) 
14.790515

>  <SlogP_VSA10>  (61) 
0.0

>  <SlogP_VSA11>  (61) 
11.499024

>  <SlogP_VSA12>  (61) 
0.0

>  <SlogP_VSA2>  (61) 
12.834783

>  <SlogP_VSA3>  (61) 
6.544756

>  <SlogP_VSA4>  (61) 
0.0

>  <SlogP_VSA5>  (61) 
31.246738

>  <SlogP_VSA6>  (61) 
18.199101

>  <SlogP_VSA7>  (61) 
0.0

>  <SlogP_VSA8>  (61) 
0.0

>  <SlogP_VSA9>  (61) 
0.0

>  <EState_VSA1>  (61) 
0.0

>  <EState_VSA10>  (61) 
0.0

>  <EState_VSA11>  (61) 
0.0

>  <EState_VSA2>  (61) 
0.0

>  <EState_VSA3>  (61) 
6.792942

>  <EState_VSA4>  (61) 
24.085621

>  <EState_VSA5>  (61) 
31.246738

>  <EState_VSA6>  (61) 
0.0

>  <EState_VSA7>  (61) 
6.066367

>  <EState_VSA8>  (61) 
17.449523

>  <EState_VSA9>  (61) 
9.473726

>  <VSA_EState1>  (61) 
10.673746

>  <VSA_EState10>  (61) 
0.0

>  <VSA_EState2>  (61) 
0.0

>  <VSA_EState3>  (61) 
2.462833

>  <VSA_EState4>  (61) 
1.329769

>  <VSA_EState5>  (61) 
1.779573

>  <VSA_EState6>  (61) 
7.095204

>  <VSA_EState7>  (61) 
5.569162

>  <VSA_EState8>  (61) 
1.423048

>  <VSA_EState9>  (61) 
0.0

>  <FractionCSP3>  (61) 
0.538462

>  <HeavyAtomCount>  (61) 
16

>  <NHOHCount>  (61) 
2

>  <NOCount>  (61) 
3

>  <NumAliphaticCarbocycles>  (61) 
1

>  <NumAliphaticHeterocycles>  (61) 
1

>  <NumAliphaticRings>  (61) 
2

>  <NumAromaticCarbocycles>  (61) 
1

>  <NumAromaticHeterocycles>  (61) 
0

>  <NumAromaticRings>  (61) 
1

>  <NumHAcceptors>  (61) 
2

>  <NumHDonors>  (61) 
1

>  <NumHeteroatoms>  (61) 
3

>  <NumRotatableBonds>  (61) 
3

>  <NumSaturatedCarbocycles>  (61) 
1

>  <NumSaturatedHeterocycles>  (61) 
0

>  <NumSaturatedRings>  (61) 
1

>  <RingCount>  (61) 
3

>  <MolLogP>  (61) 
1.4213

>  <MolMR>  (61) 
60.4504

>  <fr_Al_COO>  (61) 
0

>  <fr_Al_OH>  (61) 
0

>  <fr_Al_OH_noTert>  (61) 
0

>  <fr_ArN>  (61) 
0

>  <fr_Ar_COO>  (61) 
0

>  <fr_Ar_N>  (61) 
0

>  <fr_Ar_NH>  (61) 
0

>  <fr_Ar_OH>  (61) 
0

>  <fr_COO>  (61) 
0

>  <fr_COO2>  (61) 
0

>  <fr_C_O>  (61) 
0

>  <fr_C_O_noCOO>  (61) 
0

>  <fr_C_S>  (61) 
0

>  <fr_HOCCN>  (61) 
0

>  <fr_Imine>  (61) 
0

>  <fr_NH0>  (61) 
0

>  <fr_NH1>  (61) 
0

>  <fr_NH2>  (61) 
1

>  <fr_N_O>  (61) 
0

>  <fr_Ndealkylation1>  (61) 
0

>  <fr_Ndealkylation2>  (61) 
0

>  <fr_Nhpyrrole>  (61) 
0

>  <fr_SH>  (61) 
0

>  <fr_aldehyde>  (61) 
0

>  <fr_alkyl_carbamate>  (61) 
0

>  <fr_alkyl_halide>  (61) 
0

>  <fr_allylic_oxid>  (61) 
0

>  <fr_amide>  (61) 
0

>  <fr_amidine>  (61) 
0

>  <fr_aniline>  (61) 
0

>  <fr_aryl_methyl>  (61) 
0

>  <fr_azide>  (61) 
0

>  <fr_azo>  (61) 
0

>  <fr_barbitur>  (61) 
0

>  <fr_benzene>  (61) 
1

>  <fr_benzodiazepine>  (61) 
0

>  <fr_bicyclic>  (61) 
1

>  <fr_diazo>  (61) 
0

>  <fr_dihydropyridine>  (61) 
0

>  <fr_epoxide>  (61) 
0

>  <fr_ester>  (61) 
0

>  <fr_ether>  (61) 
2

>  <fr_furan>  (61) 
0

>  <fr_guanido>  (61) 
0

>  <fr_halogen>  (61) 
0

>  <fr_hdrzine>  (61) 
0

>  <fr_hdrzone>  (61) 
0

>  <fr_imidazole>  (61) 
0

>  <fr_imide>  (61) 
0

>  <fr_isocyan>  (61) 
0

>  <fr_isothiocyan>  (61) 
0

>  <fr_ketone>  (61) 
0

>  <fr_ketone_Topliss>  (61) 
0

>  <fr_lactam>  (61) 
0

>  <fr_lactone>  (61) 
0

>  <fr_methoxy>  (61) 
0

>  <fr_morpholine>  (61) 
0

>  <fr_nitrile>  (61) 
0

>  <fr_nitro>  (61) 
0

>  <fr_nitro_arom>  (61) 
0

>  <fr_nitro_arom_nonortho>  (61) 
0

>  <fr_nitroso>  (61) 
0

>  <fr_oxazole>  (61) 
0

>  <fr_oxime>  (61) 
0

>  <fr_para_hydroxylation>  (61) 
0

>  <fr_phenol>  (61) 
0

>  <fr_phenol_noOrthoHbond>  (61) 
0

>  <fr_phos_acid>  (61) 
0

>  <fr_phos_ester>  (61) 
0

>  <fr_piperdine>  (61) 
0

>  <fr_piperzine>  (61) 
0

>  <fr_priamide>  (61) 
0

>  <fr_prisulfonamd>  (61) 
0

>  <fr_pyridine>  (61) 
0

>  <fr_quatN>  (61) 
1

>  <fr_sulfide>  (61) 
0

>  <fr_sulfonamd>  (61) 
0

>  <fr_sulfone>  (61) 
0

>  <fr_term_acetylene>  (61) 
0

>  <fr_tetrazole>  (61) 
0

>  <fr_thiazole>  (61) 
0

>  <fr_thiocyan>  (61) 
0

>  <fr_thiophene>  (61) 
0

>  <fr_unbrch_alkane>  (61) 
0

>  <fr_urea>  (61) 
0

>  <NP_Likeness>  (61) 
0.065472

$$$$
8JW
     RDKit          3D

  0  0  0  0  0  0  0  0  0  0999 V3000
M  V30 BEGIN CTAB
M  V30 COUNTS 17 17 0 0 0
M  V30 BEGIN ATOM
M  V30 1 F -14.852000 21.313000 -24.598000 0
M  V30 2 F -13.347000 22.451000 -25.524000 0
M  V30 3 F -15.166000 22.194000 -26.536000 0
M  V30 4 O -16.630000 26.991000 -23.004000 0
M  V30 5 N -14.836000 27.288000 -25.029000 0
M  V30 6 N -16.519000 24.710000 -23.105000 0
M  V30 7 C -16.041000 23.575000 -23.665000 0
M  V30 8 C -14.692000 24.879000 -25.182000 0
M  V30 9 C -16.154000 25.991000 -23.529000 0
M  V30 10 C -15.180000 26.037000 -24.634000 0
M  V30 11 C -15.157000 23.611000 -24.680000 0
M  V30 12 C -14.634000 22.393000 -25.338000 0
M  V30 13 H -15.238500 28.083700 -24.576300 0
M  V30 14 H -14.179900 27.414700 -25.772900 0
M  V30 15 H -17.167400 24.628300 -22.348100 0
M  V30 16 H -16.351000 22.690000 -23.317500 0
M  V30 17 H -14.020500 24.914000 -25.922200 0
M  V30 END ATOM
M  V30 BEGIN BOND
M  V30 1 1 12 1
M  V30 2 1 2 12
M  V30 3 1 3 12
M  V30 4 2 4 9
M  V30 5 1 5 10
M  V30 6 1 6 7
M  V30 7 1 6 9
M  V30 8 2 7 11
M  V30 9 2 8 10
M  V30 10 1 8 11
M  V30 11 1 9 10
M  V30 12 1 11 12
M  V30 13 1 5 13
M  V30 14 1 5 14
M  V30 15 1 6 15
M  V30 16 1 7 16
M  V30 17 1 8 17
M  V30 END BOND
M  V30 END CTAB
M  END
>  <Ligand_Instance>  (62) 
5N33_8JW_A_401

>  <Dataset>  (62) 
PDB

>  <PDB_ID>  (62) 
5N33

>  <Chain>  (62) 
A

>  <Resi>  (62) 
401

>  <Num_Resolved_Atoms>  (62) 
12

>  <Num_H_Atoms_ProtBoundConf>  (62) 
5

>  <Pocket>  (62) 
A

>  <Name>  (62) 
3-azanyl-5-(trifluoromethyl)-1~{H}-pyridin-2-one

>  <Num_Not_Resolved_Atoms>  (62) 
0

>  <ATP_Site>  (62) 
True

>  <Peripheral>  (62) 
False

>  <Standardized_SMILES>  (62) 
[H]C1=C(N([H])[H])C(=O)N([H])C([H])=C1C(F)(F)F

>  <2D_Mol_H>  (62) 
<rdkit.Chem.rdchem.Mol object at 0x77059d9e5770>

>  <MW>  (62) 
178.113

>  <HBA>  (62) 
2

>  <HBD>  (62) 
2

>  <LogP>  (62) 
0.9759

>  <NRB>  (62) 
1

>  <TPSA>  (62) 
58.88

>  <Num_Heavy_Atoms>  (62) 
12

>  <Ro5>  (62) 
[True, True, True, True, True, True]

>  <Ro5_Fulfilled>  (62) 
True

>  <Ro3>  (62) 
[True, True, True, True]

>  <Ro3_Fulfilled>  (62) 
True

>  <Fsp3>  (62) 
0.166667

>  <Fsp3_0.42>  (62) 
False

>  <Fsp3_0.45>  (62) 
False

>  <Stereogenic_Carbons>  (62) 
0

>  <C_Atoms>  (62) 
6

>  <FCStereo>  (62) 
0.0

>  <SPS>  (62) 
139

>  <nSPS>  (62) 
11.583333

>  <PBF>  (62) 
0.14942

>  <PBF_0.6>  (62) 
False

>  <nPBF>  (62) 
0.012452

>  <nPBF_0.016>  (62) 
False

>  <PMI1>  (62) 
248.860431

>  <PMI2>  (62) 
876.540022

>  <PMI3>  (62) 
1040.408784

>  <NPR1>  (62) 
0.239195

>  <NPR2>  (62) 
0.842496

>  <Sum_NPR>  (62) 
1.081691

>  <Sum_NPR_1.07>  (62) 
True

>  <Sum_NPR_1.2>  (62) 
False

>  <MaxAbsEStateIndex>  (62) 
11.921982

>  <MaxEStateIndex>  (62) 
11.921982

>  <MinAbsEStateIndex>  (62) 
0.439977

>  <MinEStateIndex>  (62) 
-4.473889

>  <qed>  (62) 
0.621521

>  <MolWt>  (62) 
178.113

>  <HeavyAtomMolWt>  (62) 
173.073

>  <ExactMolWt>  (62) 
178.035397

>  <NumValenceElectrons>  (62) 
66

>  <NumRadicalElectrons>  (62) 
0

>  <MaxPartialCharge>  (62) 
0.417385

>  <MinPartialCharge>  (62) 
-0.394255

>  <MaxAbsPartialCharge>  (62) 
0.417385

>  <MinAbsPartialCharge>  (62) 
0.394255

>  <FpDensityMorgan1>  (62) 
1.416667

>  <FpDensityMorgan2>  (62) 
2.0

>  <FpDensityMorgan3>  (62) 
2.416667

>  <BCUT2D_MWHI>  (62) 
19.413171

>  <BCUT2D_MWLOW>  (62) 
10.242538

>  <BCUT2D_CHGHI>  (62) 
2.304843

>  <BCUT2D_CHGLO>  (62) 
-2.047994

>  <BCUT2D_LOGPHI>  (62) 
2.279207

>  <BCUT2D_LOGPLOW>  (62) 
-2.148507

>  <BCUT2D_MRHI>  (62) 
5.3749

>  <BCUT2D_MRLOW>  (62) 
-0.137344

>  <AvgIpc>  (62) 
1.922545

>  <BalabanJ>  (62) 
3.228414

>  <BertzCT>  (62) 
341.381814

>  <Chi0>  (62) 
9.353371

>  <Chi0n>  (62) 
5.774193

>  <Chi0v>  (62) 
5.774193

>  <Chi1>  (62) 
5.409702

>  <Chi1n>  (62) 
2.964447

>  <Chi1v>  (62) 
2.964447

>  <Chi2n>  (62) 
2.17058

>  <Chi2v>  (62) 
2.17058

>  <Chi3n>  (62) 
1.259285

>  <Chi3v>  (62) 
1.259285

>  <Chi4n>  (62) 
0.665039

>  <Chi4v>  (62) 
0.665039

>  <HallKierAlpha>  (62) 
-1.46

>  <Ipc>  (62) 
347.980734

>  <Kappa1>  (62) 
8.634877

>  <Kappa2>  (62) 
2.543274

>  <Kappa3>  (62) 
1.578125

>  <LabuteASA>  (62) 
65.014012

>  <PEOE_VSA1>  (62) 
10.717646

>  <PEOE_VSA10>  (62) 
0.0

>  <PEOE_VSA11>  (62) 
0.0

>  <PEOE_VSA12>  (62) 
0.0

>  <PEOE_VSA13>  (62) 
5.559267

>  <PEOE_VSA14>  (62) 
6.176299

>  <PEOE_VSA2>  (62) 
4.794537

>  <PEOE_VSA3>  (62) 
0.0

>  <PEOE_VSA4>  (62) 
13.171245

>  <PEOE_VSA5>  (62) 
0.0

>  <PEOE_VSA6>  (62) 
0.0

>  <PEOE_VSA7>  (62) 
6.066367

>  <PEOE_VSA8>  (62) 
6.196844

>  <PEOE_VSA9>  (62) 
11.250838

>  <SMR_VSA1>  (62) 
13.171245

>  <SMR_VSA10>  (62) 
5.687386

>  <SMR_VSA2>  (62) 
0.0

>  <SMR_VSA3>  (62) 
4.983979

>  <SMR_VSA4>  (62) 
0.0

>  <SMR_VSA5>  (62) 
6.176299

>  <SMR_VSA6>  (62) 
5.733667

>  <SMR_VSA7>  (62) 
28.180466

>  <SMR_VSA8>  (62) 
0.0

>  <SMR_VSA9>  (62) 
0.0

>  <SlogP_VSA1>  (62) 
11.292934

>  <SlogP_VSA10>  (62) 
18.858631

>  <SlogP_VSA11>  (62) 
0.0

>  <SlogP_VSA12>  (62) 
0.0

>  <SlogP_VSA2>  (62) 
4.983979

>  <SlogP_VSA3>  (62) 
6.176299

>  <SlogP_VSA4>  (62) 
0.0

>  <SlogP_VSA5>  (62) 
5.563451

>  <SlogP_VSA6>  (62) 
17.057748

>  <SlogP_VSA7>  (62) 
0.0

>  <SlogP_VSA8>  (62) 
0.0

>  <SlogP_VSA9>  (62) 
0.0

>  <EState_VSA1>  (62) 
22.986403

>  <EState_VSA10>  (62) 
17.965782

>  <EState_VSA11>  (62) 
0.0

>  <EState_VSA2>  (62) 
0.0

>  <EState_VSA3>  (62) 
12.263211

>  <EState_VSA4>  (62) 
0.0

>  <EState_VSA5>  (62) 
0.0

>  <EState_VSA6>  (62) 
0.0

>  <EState_VSA7>  (62) 
4.983979

>  <EState_VSA8>  (62) 
0.0

>  <EState_VSA9>  (62) 
5.733667

>  <VSA_EState1>  (62) 
35.765947

>  <VSA_EState10>  (62) 
0.0

>  <VSA_EState2>  (62) 
12.424401

>  <VSA_EState3>  (62) 
0.0

>  <VSA_EState4>  (62) 
2.85544

>  <VSA_EState5>  (62) 
0.0

>  <VSA_EState6>  (62) 
0.596065

>  <VSA_EState7>  (62) 
-3.891852

>  <VSA_EState8>  (62) 
0.0

>  <VSA_EState9>  (62) 
0.0

>  <FractionCSP3>  (62) 
0.166667

>  <HeavyAtomCount>  (62) 
12

>  <NHOHCount>  (62) 
3

>  <NOCount>  (62) 
3

>  <NumAliphaticCarbocycles>  (62) 
0

>  <NumAliphaticHeterocycles>  (62) 
0

>  <NumAliphaticRings>  (62) 
0

>  <NumAromaticCarbocycles>  (62) 
0

>  <NumAromaticHeterocycles>  (62) 
1

>  <NumAromaticRings>  (62) 
1

>  <NumHAcceptors>  (62) 
2

>  <NumHDonors>  (62) 
2

>  <NumHeteroatoms>  (62) 
6

>  <NumRotatableBonds>  (62) 
0

>  <NumSaturatedCarbocycles>  (62) 
0

>  <NumSaturatedHeterocycles>  (62) 
0

>  <NumSaturatedRings>  (62) 
0

>  <RingCount>  (62) 
1

>  <MolLogP>  (62) 
0.9759

>  <MolMR>  (62) 
36.4771

>  <fr_Al_COO>  (62) 
0

>  <fr_Al_OH>  (62) 
0

>  <fr_Al_OH_noTert>  (62) 
0

>  <fr_ArN>  (62) 
1

>  <fr_Ar_COO>  (62) 
0

>  <fr_Ar_N>  (62) 
1

>  <fr_Ar_NH>  (62) 
1

>  <fr_Ar_OH>  (62) 
0

>  <fr_COO>  (62) 
0

>  <fr_COO2>  (62) 
0

>  <fr_C_O>  (62) 
0

>  <fr_C_O_noCOO>  (62) 
0

>  <fr_C_S>  (62) 
0

>  <fr_HOCCN>  (62) 
0

>  <fr_Imine>  (62) 
0

>  <fr_NH0>  (62) 
0

>  <fr_NH1>  (62) 
1

>  <fr_NH2>  (62) 
1

>  <fr_N_O>  (62) 
0

>  <fr_Ndealkylation1>  (62) 
0

>  <fr_Ndealkylation2>  (62) 
0

>  <fr_Nhpyrrole>  (62) 
1

>  <fr_SH>  (62) 
0

>  <fr_aldehyde>  (62) 
0

>  <fr_alkyl_carbamate>  (62) 
0

>  <fr_alkyl_halide>  (62) 
3

>  <fr_allylic_oxid>  (62) 
0

>  <fr_amide>  (62) 
0

>  <fr_amidine>  (62) 
0

>  <fr_aniline>  (62) 
1

>  <fr_aryl_methyl>  (62) 
0

>  <fr_azide>  (62) 
0

>  <fr_azo>  (62) 
0

>  <fr_barbitur>  (62) 
0

>  <fr_benzene>  (62) 
0

>  <fr_benzodiazepine>  (62) 
0

>  <fr_bicyclic>  (62) 
0

>  <fr_diazo>  (62) 
0

>  <fr_dihydropyridine>  (62) 
0

>  <fr_epoxide>  (62) 
0

>  <fr_ester>  (62) 
0

>  <fr_ether>  (62) 
0

>  <fr_furan>  (62) 
0

>  <fr_guanido>  (62) 
0

>  <fr_halogen>  (62) 
3

>  <fr_hdrzine>  (62) 
0

>  <fr_hdrzone>  (62) 
0

>  <fr_imidazole>  (62) 
0

>  <fr_imide>  (62) 
0

>  <fr_isocyan>  (62) 
0

>  <fr_isothiocyan>  (62) 
0

>  <fr_ketone>  (62) 
0

>  <fr_ketone_Topliss>  (62) 
0

>  <fr_lactam>  (62) 
0

>  <fr_lactone>  (62) 
0

>  <fr_methoxy>  (62) 
0

>  <fr_morpholine>  (62) 
0

>  <fr_nitrile>  (62) 
0

>  <fr_nitro>  (62) 
0

>  <fr_nitro_arom>  (62) 
0

>  <fr_nitro_arom_nonortho>  (62) 
0

>  <fr_nitroso>  (62) 
0

>  <fr_oxazole>  (62) 
0

>  <fr_oxime>  (62) 
0

>  <fr_para_hydroxylation>  (62) 
0

>  <fr_phenol>  (62) 
0

>  <fr_phenol_noOrthoHbond>  (62) 
0

>  <fr_phos_acid>  (62) 
0

>  <fr_phos_ester>  (62) 
0

>  <fr_piperdine>  (62) 
0

>  <fr_piperzine>  (62) 
0

>  <fr_priamide>  (62) 
0

>  <fr_prisulfonamd>  (62) 
0

>  <fr_pyridine>  (62) 
1

>  <fr_quatN>  (62) 
0

>  <fr_sulfide>  (62) 
0

>  <fr_sulfonamd>  (62) 
0

>  <fr_sulfone>  (62) 
0

>  <fr_term_acetylene>  (62) 
0

>  <fr_tetrazole>  (62) 
0

>  <fr_thiazole>  (62) 
0

>  <fr_thiocyan>  (62) 
0

>  <fr_thiophene>  (62) 
0

>  <fr_unbrch_alkane>  (62) 
0

>  <fr_urea>  (62) 
0

>  <NP_Likeness>  (62) 
-1.030858

$$$$
8K2
     RDKit          3D

  0  0  0  0  0  0  0  0  0  0999 V3000
M  V30 BEGIN CTAB
M  V30 COUNTS 14 14 0 0 0
M  V30 BEGIN ATOM
M  V30 1 Cl 32.001000 18.020000 -15.527000 0
M  V30 2 S 30.877000 20.685000 -16.149000 0
M  V30 3 S 31.599000 23.728000 -16.462000 0
M  V30 4 O 30.478000 23.809000 -17.344000 0
M  V30 5 O 31.699000 24.572000 -15.316000 0
M  V30 6 N 32.926000 23.880000 -17.328000 0
M  V30 7 C 33.304000 20.425000 -15.331000 0
M  V30 8 C 33.112000 21.779000 -15.554000 0
M  V30 9 C 32.186000 19.716000 -15.616000 0
M  V30 10 C 31.871000 22.071000 -16.006000 0
M  V30 11 H 33.640300 24.304700 -16.771700 0
M  V30 12 H 33.231800 22.977300 -17.630600 0
M  V30 13 H 34.158400 20.023000 -15.001900 0
M  V30 14 H 33.818300 22.469300 -15.396900 0
M  V30 END ATOM
M  V30 BEGIN BOND
M  V30 1 1 1 9
M  V30 2 1 2 9
M  V30 3 1 2 10
M  V30 4 2 3 4
M  V30 5 2 3 5
M  V30 6 1 3 6
M  V30 7 1 3 10
M  V30 8 1 7 8
M  V30 9 2 7 9
M  V30 10 2 8 10
M  V30 11 1 6 11
M  V30 12 1 6 12
M  V30 13 1 7 13
M  V30 14 1 8 14
M  V30 END BOND
M  V30 END CTAB
M  END
>  <Ligand_Instance>  (63) 
5N3T_8K2_A_401

>  <Dataset>  (63) 
PDB

>  <PDB_ID>  (63) 
5N3T

>  <Chain>  (63) 
A

>  <Resi>  (63) 
401

>  <Num_Resolved_Atoms>  (63) 
10

>  <Num_H_Atoms_ProtBoundConf>  (63) 
4

>  <Pocket>  (63) 
F

>  <Name>  (63) 
5-chloranylthiophene-2-sulfonamide

>  <Num_Not_Resolved_Atoms>  (63) 
0

>  <ATP_Site>  (63) 
False

>  <Peripheral>  (63) 
True

>  <Standardized_SMILES>  (63) 
[H]C1=C(Cl)SC(S(=O)(=O)N([H])[H])=C1[H]

>  <2D_Mol_H>  (63) 
<rdkit.Chem.rdchem.Mol object at 0x77059d9e5850>

>  <MW>  (63) 
197.668

>  <HBA>  (63) 
3

>  <HBD>  (63) 
1

>  <LogP>  (63) 
1.0489

>  <NRB>  (63) 
2

>  <TPSA>  (63) 
60.16

>  <Num_Heavy_Atoms>  (63) 
10

>  <Ro5>  (63) 
[True, True, True, True, True, True]

>  <Ro5_Fulfilled>  (63) 
True

>  <Ro3>  (63) 
[True, True, True, True]

>  <Ro3_Fulfilled>  (63) 
True

>  <Fsp3>  (63) 
0.0

>  <Fsp3_0.42>  (63) 
False

>  <Fsp3_0.45>  (63) 
False

>  <Stereogenic_Carbons>  (63) 
0

>  <C_Atoms>  (63) 
4

>  <FCStereo>  (63) 
0.0

>  <SPS>  (63) 
118

>  <nSPS>  (63) 
11.8

>  <PBF>  (63) 
0.456601

>  <PBF_0.6>  (63) 
False

>  <nPBF>  (63) 
0.04566

>  <nPBF_0.016>  (63) 
True

>  <PMI1>  (63) 
196.44852

>  <PMI2>  (63) 
1076.696142

>  <PMI3>  (63) 
1173.432754

>  <NPR1>  (63) 
0.167414

>  <NPR2>  (63) 
0.917561

>  <Sum_NPR>  (63) 
1.084975

>  <Sum_NPR_1.07>  (63) 
True

>  <Sum_NPR_1.2>  (63) 
False

>  <MaxAbsEStateIndex>  (63) 
10.575756

>  <MaxEStateIndex>  (63) 
10.575756

>  <MinAbsEStateIndex>  (63) 
0.094907

>  <MinEStateIndex>  (63) 
-3.547917

>  <qed>  (63) 
0.731784

>  <MolWt>  (63) 
197.668

>  <HeavyAtomMolWt>  (63) 
193.636

>  <ExactMolWt>  (63) 
196.937198

>  <NumValenceElectrons>  (63) 
56

>  <NumRadicalElectrons>  (63) 
0

>  <MaxPartialCharge>  (63) 
0.247081

>  <MinPartialCharge>  (63) 
-0.223929

>  <MaxAbsPartialCharge>  (63) 
0.247081

>  <MinAbsPartialCharge>  (63) 
0.223929

>  <FpDensityMorgan1>  (63) 
1.5

>  <FpDensityMorgan2>  (63) 
2.1

>  <FpDensityMorgan3>  (63) 
2.3

>  <BCUT2D_MWHI>  (63) 
35.496017

>  <BCUT2D_MWLOW>  (63) 
10.678114

>  <BCUT2D_CHGHI>  (63) 
2.087385

>  <BCUT2D_CHGLO>  (63) 
-1.863598

>  <BCUT2D_LOGPHI>  (63) 
2.234341

>  <BCUT2D_LOGPLOW>  (63) 
-2.092544

>  <BCUT2D_MRHI>  (63) 
7.909032

>  <BCUT2D_MRLOW>  (63) 
0.59955

>  <AvgIpc>  (63) 
2.112988

>  <BalabanJ>  (63) 
3.20683

>  <BertzCT>  (63) 
328.78172

>  <Chi0>  (63) 
7.776021

>  <Chi0n>  (63) 
4.743008

>  <Chi0v>  (63) 
7.131931

>  <Chi1>  (63) 
4.499019

>  <Chi1n>  (63) 
2.281074

>  <Chi1v>  (63) 
5.021854

>  <Chi2n>  (63) 
1.603552

>  <Chi2v>  (63) 
5.106899

>  <Chi3n>  (63) 
0.828966

>  <Chi3v>  (63) 
3.498608

>  <Chi4n>  (63) 
0.450614

>  <Chi4v>  (63) 
2.356236

>  <HallKierAlpha>  (63) 
-0.1

>  <Ipc>  (63) 
166.926055

>  <Kappa1>  (63) 
8.00101

>  <Kappa2>  (63) 
2.50191

>  <Kappa3>  (63) 
1.694153

>  <LabuteASA>  (63) 
67.475699

>  <PEOE_VSA1>  (63) 
0.0

>  <PEOE_VSA10>  (63) 
4.209179

>  <PEOE_VSA11>  (63) 
0.0

>  <PEOE_VSA12>  (63) 
10.023291

>  <PEOE_VSA13>  (63) 
0.0

>  <PEOE_VSA14>  (63) 
0.0

>  <PEOE_VSA2>  (63) 
0.0

>  <PEOE_VSA3>  (63) 
13.556771

>  <PEOE_VSA4>  (63) 
0.0

>  <PEOE_VSA5>  (63) 
11.336786

>  <PEOE_VSA6>  (63) 
11.60094

>  <PEOE_VSA7>  (63) 
12.132734

>  <PEOE_VSA8>  (63) 
0.0

>  <PEOE_VSA9>  (63) 
4.336329

>  <SMR_VSA1>  (63) 
8.417797

>  <SMR_VSA10>  (63) 
32.961017

>  <SMR_VSA2>  (63) 
0.0

>  <SMR_VSA3>  (63) 
0.0

>  <SMR_VSA4>  (63) 
5.138974

>  <SMR_VSA5>  (63) 
4.209179

>  <SMR_VSA6>  (63) 
0.0

>  <SMR_VSA7>  (63) 
16.469063

>  <SMR_VSA8>  (63) 
0.0

>  <SMR_VSA9>  (63) 
0.0

>  <SlogP_VSA1>  (63) 
5.138974

>  <SlogP_VSA10>  (63) 
0.0

>  <SlogP_VSA11>  (63) 
0.0

>  <SlogP_VSA12>  (63) 
22.937726

>  <SlogP_VSA2>  (63) 
8.417797

>  <SlogP_VSA3>  (63) 
10.023291

>  <SlogP_VSA4>  (63) 
0.0

>  <SlogP_VSA5>  (63) 
0.0

>  <SlogP_VSA6>  (63) 
16.341913

>  <SlogP_VSA7>  (63) 
4.336329

>  <SlogP_VSA8>  (63) 
0.0

>  <SlogP_VSA9>  (63) 
0.0

>  <EState_VSA1>  (63) 
10.023291

>  <EState_VSA10>  (63) 
8.417797

>  <EState_VSA11>  (63) 
0.0

>  <EState_VSA2>  (63) 
4.209179

>  <EState_VSA3>  (63) 
4.336329

>  <EState_VSA4>  (63) 
11.336786

>  <EState_VSA5>  (63) 
12.132734

>  <EState_VSA6>  (63) 
0.0

>  <EState_VSA7>  (63) 
0.0

>  <EState_VSA8>  (63) 
0.0

>  <EState_VSA9>  (63) 
16.739914

>  <VSA_EState1>  (63) 
21.666813

>  <VSA_EState10>  (63) 
6.412114

>  <VSA_EState2>  (63) 
0.0

>  <VSA_EState3>  (63) 
4.79409

>  <VSA_EState4>  (63) 
0.0

>  <VSA_EState5>  (63) 
0.0

>  <VSA_EState6>  (63) 
2.869344

>  <VSA_EState7>  (63) 
0.0

>  <VSA_EState8>  (63) 
0.0

>  <VSA_EState9>  (63) 
-3.547917

>  <FractionCSP3>  (63) 
0.0

>  <HeavyAtomCount>  (63) 
10

>  <NHOHCount>  (63) 
2

>  <NOCount>  (63) 
3

>  <NumAliphaticCarbocycles>  (63) 
0

>  <NumAliphaticHeterocycles>  (63) 
0

>  <NumAliphaticRings>  (63) 
0

>  <NumAromaticCarbocycles>  (63) 
0

>  <NumAromaticHeterocycles>  (63) 
1

>  <NumAromaticRings>  (63) 
1

>  <NumHAcceptors>  (63) 
3

>  <NumHDonors>  (63) 
1

>  <NumHeteroatoms>  (63) 
6

>  <NumRotatableBonds>  (63) 
1

>  <NumSaturatedCarbocycles>  (63) 
0

>  <NumSaturatedHeterocycles>  (63) 
0

>  <NumSaturatedRings>  (63) 
0

>  <RingCount>  (63) 
1

>  <MolLogP>  (63) 
1.0489

>  <MolMR>  (63) 
40.7022

>  <fr_Al_COO>  (63) 
0

>  <fr_Al_OH>  (63) 
0

>  <fr_Al_OH_noTert>  (63) 
0

>  <fr_ArN>  (63) 
0

>  <fr_Ar_COO>  (63) 
0

>  <fr_Ar_N>  (63) 
0

>  <fr_Ar_NH>  (63) 
0

>  <fr_Ar_OH>  (63) 
0

>  <fr_COO>  (63) 
0

>  <fr_COO2>  (63) 
0

>  <fr_C_O>  (63) 
0

>  <fr_C_O_noCOO>  (63) 
0

>  <fr_C_S>  (63) 
0

>  <fr_HOCCN>  (63) 
0

>  <fr_Imine>  (63) 
0

>  <fr_NH0>  (63) 
0

>  <fr_NH1>  (63) 
0

>  <fr_NH2>  (63) 
1

>  <fr_N_O>  (63) 
0

>  <fr_Ndealkylation1>  (63) 
0

>  <fr_Ndealkylation2>  (63) 
0

>  <fr_Nhpyrrole>  (63) 
0

>  <fr_SH>  (63) 
0

>  <fr_aldehyde>  (63) 
0

>  <fr_alkyl_carbamate>  (63) 
0

>  <fr_alkyl_halide>  (63) 
0

>  <fr_allylic_oxid>  (63) 
0

>  <fr_amide>  (63) 
0

>  <fr_amidine>  (63) 
0

>  <fr_aniline>  (63) 
0

>  <fr_aryl_methyl>  (63) 
0

>  <fr_azide>  (63) 
0

>  <fr_azo>  (63) 
0

>  <fr_barbitur>  (63) 
0

>  <fr_benzene>  (63) 
0

>  <fr_benzodiazepine>  (63) 
0

>  <fr_bicyclic>  (63) 
0

>  <fr_diazo>  (63) 
0

>  <fr_dihydropyridine>  (63) 
0

>  <fr_epoxide>  (63) 
0

>  <fr_ester>  (63) 
0

>  <fr_ether>  (63) 
0

>  <fr_furan>  (63) 
0

>  <fr_guanido>  (63) 
0

>  <fr_halogen>  (63) 
1

>  <fr_hdrzine>  (63) 
0

>  <fr_hdrzone>  (63) 
0

>  <fr_imidazole>  (63) 
0

>  <fr_imide>  (63) 
0

>  <fr_isocyan>  (63) 
0

>  <fr_isothiocyan>  (63) 
0

>  <fr_ketone>  (63) 
0

>  <fr_ketone_Topliss>  (63) 
0

>  <fr_lactam>  (63) 
0

>  <fr_lactone>  (63) 
0

>  <fr_methoxy>  (63) 
0

>  <fr_morpholine>  (63) 
0

>  <fr_nitrile>  (63) 
0

>  <fr_nitro>  (63) 
0

>  <fr_nitro_arom>  (63) 
0

>  <fr_nitro_arom_nonortho>  (63) 
0

>  <fr_nitroso>  (63) 
0

>  <fr_oxazole>  (63) 
0

>  <fr_oxime>  (63) 
0

>  <fr_para_hydroxylation>  (63) 
0

>  <fr_phenol>  (63) 
0

>  <fr_phenol_noOrthoHbond>  (63) 
0

>  <fr_phos_acid>  (63) 
0

>  <fr_phos_ester>  (63) 
0

>  <fr_piperdine>  (63) 
0

>  <fr_piperzine>  (63) 
0

>  <fr_priamide>  (63) 
0

>  <fr_prisulfonamd>  (63) 
0

>  <fr_pyridine>  (63) 
0

>  <fr_quatN>  (63) 
0

>  <fr_sulfide>  (63) 
0

>  <fr_sulfonamd>  (63) 
1

>  <fr_sulfone>  (63) 
0

>  <fr_term_acetylene>  (63) 
0

>  <fr_tetrazole>  (63) 
0

>  <fr_thiazole>  (63) 
0

>  <fr_thiocyan>  (63) 
0

>  <fr_thiophene>  (63) 
1

>  <fr_unbrch_alkane>  (63) 
0

>  <fr_urea>  (63) 
0

>  <NP_Likeness>  (63) 
-2.773418

$$$$
8K2
     RDKit          3D

  0  0  0  0  0  0  0  0  0  0999 V3000
M  V30 BEGIN CTAB
M  V30 COUNTS 14 14 0 0 0
M  V30 BEGIN ATOM
M  V30 1 Cl 27.001000 -18.899000 -18.830000 0
M  V30 2 S 26.841000 -19.598000 -15.947000 0
M  V30 3 S 28.329000 -19.989000 -13.305000 0
M  V30 4 O 29.490000 -19.351000 -12.776000 0
M  V30 5 O 27.039000 -19.732000 -12.748000 0
M  V30 6 N 28.583000 -21.557000 -13.304000 0
M  V30 7 C 29.107000 -19.116000 -17.078000 0
M  V30 8 C 29.384000 -19.358000 -15.728000 0
M  V30 9 C 27.779000 -19.200000 -17.334000 0
M  V30 10 C 28.261000 -19.632000 -15.007000 0
M  V30 11 H 27.712600 -22.035600 -13.188600 0
M  V30 12 H 28.999700 -21.827700 -14.171800 0
M  V30 13 H 29.801300 -18.907400 -17.766800 0
M  V30 14 H 30.303700 -19.332700 -15.336100 0
M  V30 END ATOM
M  V30 BEGIN BOND
M  V30 1 1 1 9
M  V30 2 1 2 9
M  V30 3 1 2 10
M  V30 4 2 3 4
M  V30 5 2 3 5
M  V30 6 1 3 6
M  V30 7 1 3 10
M  V30 8 1 7 8
M  V30 9 2 7 9
M  V30 10 2 8 10
M  V30 11 1 6 11
M  V30 12 1 6 12
M  V30 13 1 7 13
M  V30 14 1 8 14
M  V30 END BOND
M  V30 END CTAB
M  END
>  <Ligand_Instance>  (64) 
5N3T_8K2_A_402

>  <Dataset>  (64) 
PDB

>  <PDB_ID>  (64) 
5N3T

>  <Chain>  (64) 
A

>  <Resi>  (64) 
402

>  <Num_Resolved_Atoms>  (64) 
10

>  <Num_H_Atoms_ProtBoundConf>  (64) 
4

>  <Pocket>  (64) 
X

>  <Name>  (64) 
5-chloranylthiophene-2-sulfonamide

>  <Num_Not_Resolved_Atoms>  (64) 
0

>  <ATP_Site>  (64) 
False

>  <Peripheral>  (64) 
True

>  <Standardized_SMILES>  (64) 
[H]C1=C(Cl)SC(S(=O)(=O)N([H])[H])=C1[H]

>  <2D_Mol_H>  (64) 
<rdkit.Chem.rdchem.Mol object at 0x77059d9e5930>

>  <MW>  (64) 
197.668

>  <HBA>  (64) 
3

>  <HBD>  (64) 
1

>  <LogP>  (64) 
1.0489

>  <NRB>  (64) 
2

>  <TPSA>  (64) 
60.16

>  <Num_Heavy_Atoms>  (64) 
10

>  <Ro5>  (64) 
[True, True, True, True, True, True]

>  <Ro5_Fulfilled>  (64) 
True

>  <Ro3>  (64) 
[True, True, True, True]

>  <Ro3_Fulfilled>  (64) 
True

>  <Fsp3>  (64) 
0.0

>  <Fsp3_0.42>  (64) 
False

>  <Fsp3_0.45>  (64) 
False

>  <Stereogenic_Carbons>  (64) 
0

>  <C_Atoms>  (64) 
4

>  <FCStereo>  (64) 
0.0

>  <SPS>  (64) 
118

>  <nSPS>  (64) 
11.8

>  <PBF>  (64) 
0.563216

>  <PBF_0.6>  (64) 
False

>  <nPBF>  (64) 
0.056322

>  <nPBF_0.016>  (64) 
True

>  <PMI1>  (64) 
198.906128

>  <PMI2>  (64) 
1076.994417

>  <PMI3>  (64) 
1174.22167

>  <NPR1>  (64) 
0.169394

>  <NPR2>  (64) 
0.917199

>  <Sum_NPR>  (64) 
1.086593

>  <Sum_NPR_1.07>  (64) 
True

>  <Sum_NPR_1.2>  (64) 
False

>  <MaxAbsEStateIndex>  (64) 
10.575756

>  <MaxEStateIndex>  (64) 
10.575756

>  <MinAbsEStateIndex>  (64) 
0.094907

>  <MinEStateIndex>  (64) 
-3.547917

>  <qed>  (64) 
0.731784

>  <MolWt>  (64) 
197.668

>  <HeavyAtomMolWt>  (64) 
193.636

>  <ExactMolWt>  (64) 
196.937198

>  <NumValenceElectrons>  (64) 
56

>  <NumRadicalElectrons>  (64) 
0

>  <MaxPartialCharge>  (64) 
0.247081

>  <MinPartialCharge>  (64) 
-0.223929

>  <MaxAbsPartialCharge>  (64) 
0.247081

>  <MinAbsPartialCharge>  (64) 
0.223929

>  <FpDensityMorgan1>  (64) 
1.5

>  <FpDensityMorgan2>  (64) 
2.1

>  <FpDensityMorgan3>  (64) 
2.3

>  <BCUT2D_MWHI>  (64) 
35.496017

>  <BCUT2D_MWLOW>  (64) 
10.678114

>  <BCUT2D_CHGHI>  (64) 
2.087385

>  <BCUT2D_CHGLO>  (64) 
-1.863598

>  <BCUT2D_LOGPHI>  (64) 
2.234341

>  <BCUT2D_LOGPLOW>  (64) 
-2.092544

>  <BCUT2D_MRHI>  (64) 
7.909032

>  <BCUT2D_MRLOW>  (64) 
0.59955

>  <AvgIpc>  (64) 
2.112988

>  <BalabanJ>  (64) 
3.20683

>  <BertzCT>  (64) 
328.78172

>  <Chi0>  (64) 
7.776021

>  <Chi0n>  (64) 
4.743008

>  <Chi0v>  (64) 
7.131931

>  <Chi1>  (64) 
4.499019

>  <Chi1n>  (64) 
2.281074

>  <Chi1v>  (64) 
5.021854

>  <Chi2n>  (64) 
1.603552

>  <Chi2v>  (64) 
5.106899

>  <Chi3n>  (64) 
0.828966

>  <Chi3v>  (64) 
3.498608

>  <Chi4n>  (64) 
0.450614

>  <Chi4v>  (64) 
2.356236

>  <HallKierAlpha>  (64) 
-0.1

>  <Ipc>  (64) 
166.926055

>  <Kappa1>  (64) 
8.00101

>  <Kappa2>  (64) 
2.50191

>  <Kappa3>  (64) 
1.694153

>  <LabuteASA>  (64) 
67.475699

>  <PEOE_VSA1>  (64) 
0.0

>  <PEOE_VSA10>  (64) 
4.209179

>  <PEOE_VSA11>  (64) 
0.0

>  <PEOE_VSA12>  (64) 
10.023291

>  <PEOE_VSA13>  (64) 
0.0

>  <PEOE_VSA14>  (64) 
0.0

>  <PEOE_VSA2>  (64) 
0.0

>  <PEOE_VSA3>  (64) 
13.556771

>  <PEOE_VSA4>  (64) 
0.0

>  <PEOE_VSA5>  (64) 
11.336786

>  <PEOE_VSA6>  (64) 
11.60094

>  <PEOE_VSA7>  (64) 
12.132734

>  <PEOE_VSA8>  (64) 
0.0

>  <PEOE_VSA9>  (64) 
4.336329

>  <SMR_VSA1>  (64) 
8.417797

>  <SMR_VSA10>  (64) 
32.961017

>  <SMR_VSA2>  (64) 
0.0

>  <SMR_VSA3>  (64) 
0.0

>  <SMR_VSA4>  (64) 
5.138974

>  <SMR_VSA5>  (64) 
4.209179

>  <SMR_VSA6>  (64) 
0.0

>  <SMR_VSA7>  (64) 
16.469063

>  <SMR_VSA8>  (64) 
0.0

>  <SMR_VSA9>  (64) 
0.0

>  <SlogP_VSA1>  (64) 
5.138974

>  <SlogP_VSA10>  (64) 
0.0

>  <SlogP_VSA11>  (64) 
0.0

>  <SlogP_VSA12>  (64) 
22.937726

>  <SlogP_VSA2>  (64) 
8.417797

>  <SlogP_VSA3>  (64) 
10.023291

>  <SlogP_VSA4>  (64) 
0.0

>  <SlogP_VSA5>  (64) 
0.0

>  <SlogP_VSA6>  (64) 
16.341913

>  <SlogP_VSA7>  (64) 
4.336329

>  <SlogP_VSA8>  (64) 
0.0

>  <SlogP_VSA9>  (64) 
0.0

>  <EState_VSA1>  (64) 
10.023291

>  <EState_VSA10>  (64) 
8.417797

>  <EState_VSA11>  (64) 
0.0

>  <EState_VSA2>  (64) 
4.209179

>  <EState_VSA3>  (64) 
4.336329

>  <EState_VSA4>  (64) 
11.336786

>  <EState_VSA5>  (64) 
12.132734

>  <EState_VSA6>  (64) 
0.0

>  <EState_VSA7>  (64) 
0.0

>  <EState_VSA8>  (64) 
0.0

>  <EState_VSA9>  (64) 
16.739914

>  <VSA_EState1>  (64) 
21.666813

>  <VSA_EState10>  (64) 
6.412114

>  <VSA_EState2>  (64) 
0.0

>  <VSA_EState3>  (64) 
4.79409

>  <VSA_EState4>  (64) 
0.0

>  <VSA_EState5>  (64) 
0.0

>  <VSA_EState6>  (64) 
2.869344

>  <VSA_EState7>  (64) 
0.0

>  <VSA_EState8>  (64) 
0.0

>  <VSA_EState9>  (64) 
-3.547917

>  <FractionCSP3>  (64) 
0.0

>  <HeavyAtomCount>  (64) 
10

>  <NHOHCount>  (64) 
2

>  <NOCount>  (64) 
3

>  <NumAliphaticCarbocycles>  (64) 
0

>  <NumAliphaticHeterocycles>  (64) 
0

>  <NumAliphaticRings>  (64) 
0

>  <NumAromaticCarbocycles>  (64) 
0

>  <NumAromaticHeterocycles>  (64) 
1

>  <NumAromaticRings>  (64) 
1

>  <NumHAcceptors>  (64) 
3

>  <NumHDonors>  (64) 
1

>  <NumHeteroatoms>  (64) 
6

>  <NumRotatableBonds>  (64) 
1

>  <NumSaturatedCarbocycles>  (64) 
0

>  <NumSaturatedHeterocycles>  (64) 
0

>  <NumSaturatedRings>  (64) 
0

>  <RingCount>  (64) 
1

>  <MolLogP>  (64) 
1.0489

>  <MolMR>  (64) 
40.7022

>  <fr_Al_COO>  (64) 
0

>  <fr_Al_OH>  (64) 
0

>  <fr_Al_OH_noTert>  (64) 
0

>  <fr_ArN>  (64) 
0

>  <fr_Ar_COO>  (64) 
0

>  <fr_Ar_N>  (64) 
0

>  <fr_Ar_NH>  (64) 
0

>  <fr_Ar_OH>  (64) 
0

>  <fr_COO>  (64) 
0

>  <fr_COO2>  (64) 
0

>  <fr_C_O>  (64) 
0

>  <fr_C_O_noCOO>  (64) 
0

>  <fr_C_S>  (64) 
0

>  <fr_HOCCN>  (64) 
0

>  <fr_Imine>  (64) 
0

>  <fr_NH0>  (64) 
0

>  <fr_NH1>  (64) 
0

>  <fr_NH2>  (64) 
1

>  <fr_N_O>  (64) 
0

>  <fr_Ndealkylation1>  (64) 
0

>  <fr_Ndealkylation2>  (64) 
0

>  <fr_Nhpyrrole>  (64) 
0

>  <fr_SH>  (64) 
0

>  <fr_aldehyde>  (64) 
0

>  <fr_alkyl_carbamate>  (64) 
0

>  <fr_alkyl_halide>  (64) 
0

>  <fr_allylic_oxid>  (64) 
0

>  <fr_amide>  (64) 
0

>  <fr_amidine>  (64) 
0

>  <fr_aniline>  (64) 
0

>  <fr_aryl_methyl>  (64) 
0

>  <fr_azide>  (64) 
0

>  <fr_azo>  (64) 
0

>  <fr_barbitur>  (64) 
0

>  <fr_benzene>  (64) 
0

>  <fr_benzodiazepine>  (64) 
0

>  <fr_bicyclic>  (64) 
0

>  <fr_diazo>  (64) 
0

>  <fr_dihydropyridine>  (64) 
0

>  <fr_epoxide>  (64) 
0

>  <fr_ester>  (64) 
0

>  <fr_ether>  (64) 
0

>  <fr_furan>  (64) 
0

>  <fr_guanido>  (64) 
0

>  <fr_halogen>  (64) 
1

>  <fr_hdrzine>  (64) 
0

>  <fr_hdrzone>  (64) 
0

>  <fr_imidazole>  (64) 
0

>  <fr_imide>  (64) 
0

>  <fr_isocyan>  (64) 
0

>  <fr_isothiocyan>  (64) 
0

>  <fr_ketone>  (64) 
0

>  <fr_ketone_Topliss>  (64) 
0

>  <fr_lactam>  (64) 
0

>  <fr_lactone>  (64) 
0

>  <fr_methoxy>  (64) 
0

>  <fr_morpholine>  (64) 
0

>  <fr_nitrile>  (64) 
0

>  <fr_nitro>  (64) 
0

>  <fr_nitro_arom>  (64) 
0

>  <fr_nitro_arom_nonortho>  (64) 
0

>  <fr_nitroso>  (64) 
0

>  <fr_oxazole>  (64) 
0

>  <fr_oxime>  (64) 
0

>  <fr_para_hydroxylation>  (64) 
0

>  <fr_phenol>  (64) 
0

>  <fr_phenol_noOrthoHbond>  (64) 
0

>  <fr_phos_acid>  (64) 
0

>  <fr_phos_ester>  (64) 
0

>  <fr_piperdine>  (64) 
0

>  <fr_piperzine>  (64) 
0

>  <fr_priamide>  (64) 
0

>  <fr_prisulfonamd>  (64) 
0

>  <fr_pyridine>  (64) 
0

>  <fr_quatN>  (64) 
0

>  <fr_sulfide>  (64) 
0

>  <fr_sulfonamd>  (64) 
1

>  <fr_sulfone>  (64) 
0

>  <fr_term_acetylene>  (64) 
0

>  <fr_tetrazole>  (64) 
0

>  <fr_thiazole>  (64) 
0

>  <fr_thiocyan>  (64) 
0

>  <fr_thiophene>  (64) 
1

>  <fr_unbrch_alkane>  (64) 
0

>  <fr_urea>  (64) 
0

>  <NP_Likeness>  (64) 
-2.773418

$$$$
8K5
     RDKit          3D

  0  0  0  0  0  0  0  0  0  0999 V3000
M  V30 BEGIN CTAB
M  V30 COUNTS 21 21 0 0 0
M  V30 BEGIN ATOM
M  V30 1 Cl -16.716000 24.785000 -22.801000 0
M  V30 2 S -11.736000 25.195000 -27.631000 0
M  V30 3 N -9.802000 25.504000 -25.853000 0
M  V30 4 N -10.062000 23.393000 -26.677000 0
M  V30 5 C -12.537000 26.572000 -26.743000 0
M  V30 6 C -15.386000 26.643000 -24.240000 0
M  V30 7 C -14.812000 24.355000 -24.667000 0
M  V30 8 C -14.414000 27.046000 -25.140000 0
M  V30 9 C -13.842000 24.773000 -25.562000 0
M  V30 10 C -10.421000 24.650000 -26.632000 0
M  V30 11 C -15.563000 25.299000 -24.007000 0
M  V30 12 C -13.624000 26.121000 -25.804000 0
M  V30 13 H -9.045100 25.196900 -25.276100 0
M  V30 14 H -10.086800 26.462400 -25.835800 0
M  V30 15 H -9.307300 23.067800 -26.107200 0
M  V30 16 H -12.936700 27.194300 -27.416100 0
M  V30 17 H -11.840600 27.056400 -26.213500 0
M  V30 18 H -15.950800 27.318900 -23.766500 0
M  V30 19 H -14.964300 23.380400 -24.502800 0
M  V30 20 H -14.279700 28.021600 -25.313900 0
M  V30 21 H -13.289400 24.091600 -26.041900 0
M  V30 END ATOM
M  V30 BEGIN BOND
M  V30 1 1 1 11
M  V30 2 1 2 5
M  V30 3 1 2 10
M  V30 4 1 3 10
M  V30 5 2 4 10
M  V30 6 1 5 12
M  V30 7 2 6 8
M  V30 8 1 6 11
M  V30 9 1 7 9
M  V30 10 2 7 11
M  V30 11 1 8 12
M  V30 12 2 9 12
M  V30 13 1 3 13
M  V30 14 1 3 14
M  V30 15 1 4 15
M  V30 16 1 5 16
M  V30 17 1 5 17
M  V30 18 1 6 18
M  V30 19 1 7 19
M  V30 20 1 8 20
M  V30 21 1 9 21
M  V30 END BOND
M  V30 END CTAB
M  END
>  <Ligand_Instance>  (65) 
5N32_8K5_A_401

>  <Dataset>  (65) 
PDB

>  <PDB_ID>  (65) 
5N32

>  <Chain>  (65) 
A

>  <Resi>  (65) 
401

>  <Num_Resolved_Atoms>  (65) 
12

>  <Num_H_Atoms_ProtBoundConf>  (65) 
9

>  <Pocket>  (65) 
A

>  <Name>  (65) 
[azanyl-[(4-chlorophenyl)methylsulfanyl]methylidene]azanium

>  <Num_Not_Resolved_Atoms>  (65) 
0

>  <ATP_Site>  (65) 
True

>  <Peripheral>  (65) 
True

>  <Standardized_SMILES>  (65) 
[H]/N=C(/SC([H])([H])C1=C([H])C([H])=C(Cl)C([H])=C1[H])N([H])[H]

>  <2D_Mol_H>  (65) 
<rdkit.Chem.rdchem.Mol object at 0x77059d9e5a10>

>  <MW>  (65) 
200.694

>  <HBA>  (65) 
2

>  <HBD>  (65) 
2

>  <LogP>  (65) 
2.46667

>  <NRB>  (65) 
2

>  <TPSA>  (65) 
49.87

>  <Num_Heavy_Atoms>  (65) 
12

>  <Ro5>  (65) 
[True, True, True, True, True, True]

>  <Ro5_Fulfilled>  (65) 
True

>  <Ro3>  (65) 
[True, True, True, True]

>  <Ro3_Fulfilled>  (65) 
True

>  <Fsp3>  (65) 
0.125

>  <Fsp3_0.42>  (65) 
False

>  <Fsp3_0.45>  (65) 
False

>  <Stereogenic_Carbons>  (65) 
0

>  <C_Atoms>  (65) 
8

>  <FCStereo>  (65) 
0.0

>  <SPS>  (65) 
153

>  <nSPS>  (65) 
12.75

>  <PBF>  (65) 
0.632034

>  <PBF_0.6>  (65) 
True

>  <nPBF>  (65) 
0.052669

>  <nPBF_0.016>  (65) 
True

>  <PMI1>  (65) 
299.501166

>  <PMI2>  (65) 
1639.048354

>  <PMI3>  (65) 
1767.499744

>  <NPR1>  (65) 
0.169449

>  <NPR2>  (65) 
0.927326

>  <Sum_NPR>  (65) 
1.096775

>  <Sum_NPR_1.07>  (65) 
True

>  <Sum_NPR_1.2>  (65) 
False

>  <MaxAbsEStateIndex>  (65) 
6.62962

>  <MaxEStateIndex>  (65) 
6.62962

>  <MinAbsEStateIndex>  (65) 
0.273102

>  <MinEStateIndex>  (65) 
0.273102

>  <qed>  (65) 
0.569381

>  <MolWt>  (65) 
200.694

>  <HeavyAtomMolWt>  (65) 
191.622

>  <ExactMolWt>  (65) 
200.017497

>  <NumValenceElectrons>  (65) 
64

>  <NumRadicalElectrons>  (65) 
0

>  <MaxPartialCharge>  (65) 
0.189944

>  <MinPartialCharge>  (65) 
-0.378707

>  <MaxAbsPartialCharge>  (65) 
0.378707

>  <MinAbsPartialCharge>  (65) 
0.189944

>  <FpDensityMorgan1>  (65) 
1.583333

>  <FpDensityMorgan2>  (65) 
2.25

>  <FpDensityMorgan3>  (65) 
2.833333

>  <BCUT2D_MWHI>  (65) 
35.495691

>  <BCUT2D_MWLOW>  (65) 
0.931263

>  <BCUT2D_CHGHI>  (65) 
1.952071

>  <BCUT2D_CHGLO>  (65) 
-1.996087

>  <BCUT2D_LOGPHI>  (65) 
2.145201

>  <BCUT2D_LOGPLOW>  (65) 
-2.053645

>  <BCUT2D_MRHI>  (65) 
8.125292

>  <BCUT2D_MRLOW>  (65) 
0.244224

>  <AvgIpc>  (65) 
2.163527

>  <BalabanJ>  (65) 
2.505806

>  <BertzCT>  (65) 
299.517266

>  <Chi0>  (65) 
9.681798

>  <Chi0n>  (65) 
7.327284

>  <Chi0v>  (65) 
7.89971

>  <Chi1>  (65) 
6.219545

>  <Chi1n>  (65) 
3.816198

>  <Chi1v>  (65) 
4.732547

>  <Chi2n>  (65) 
2.253379

>  <Chi2v>  (65) 
3.685441

>  <Chi3n>  (65) 
1.299976

>  <Chi3v>  (65) 
2.325389

>  <Chi4n>  (65) 
0.737906

>  <Chi4v>  (65) 
1.370894

>  <HallKierAlpha>  (65) 
-0.67

>  <Ipc>  (65) 
908.681253

>  <Kappa1>  (65) 
7.952513

>  <Kappa2>  (65) 
4.378963

>  <Kappa3>  (65) 
3.152675

>  <LabuteASA>  (65) 
82.075932

>  <PEOE_VSA1>  (65) 
5.733667

>  <PEOE_VSA10>  (65) 
0.0

>  <PEOE_VSA11>  (65) 
6.579494

>  <PEOE_VSA12>  (65) 
0.0

>  <PEOE_VSA13>  (65) 
0.0

>  <PEOE_VSA14>  (65) 
0.0

>  <PEOE_VSA2>  (65) 
5.402308

>  <PEOE_VSA3>  (65) 
0.0

>  <PEOE_VSA4>  (65) 
0.0

>  <PEOE_VSA5>  (65) 
0.0

>  <PEOE_VSA6>  (65) 
35.495559

>  <PEOE_VSA7>  (65) 
17.696186

>  <PEOE_VSA8>  (65) 
10.775487

>  <PEOE_VSA9>  (65) 
0.0

>  <SMR_VSA1>  (65) 
1.411842

>  <SMR_VSA10>  (65) 
28.530477

>  <SMR_VSA2>  (65) 
5.402308

>  <SMR_VSA3>  (65) 
0.0

>  <SMR_VSA4>  (65) 
5.733667

>  <SMR_VSA5>  (65) 
5.752854

>  <SMR_VSA6>  (65) 
0.0

>  <SMR_VSA7>  (65) 
34.851553

>  <SMR_VSA8>  (65) 
0.0

>  <SMR_VSA9>  (65) 
0.0

>  <SlogP_VSA1>  (65) 
5.733667

>  <SlogP_VSA10>  (65) 
0.0

>  <SlogP_VSA11>  (65) 
0.0

>  <SlogP_VSA12>  (65) 
23.362825

>  <SlogP_VSA2>  (65) 
5.167652

>  <SlogP_VSA3>  (65) 
5.752854

>  <SlogP_VSA4>  (65) 
5.402308

>  <SlogP_VSA5>  (65) 
5.563451

>  <SlogP_VSA6>  (65) 
24.265468

>  <SlogP_VSA7>  (65) 
6.434475

>  <SlogP_VSA8>  (65) 
0.0

>  <SlogP_VSA9>  (65) 
0.0

>  <EState_VSA1>  (65) 
0.0

>  <EState_VSA10>  (65) 
0.0

>  <EState_VSA11>  (65) 
0.0

>  <EState_VSA2>  (65) 
5.167652

>  <EState_VSA3>  (65) 
5.752854

>  <EState_VSA4>  (65) 
10.586085

>  <EState_VSA5>  (65) 
11.761885

>  <EState_VSA6>  (65) 
0.0

>  <EState_VSA7>  (65) 
24.265468

>  <EState_VSA8>  (65) 
5.402308

>  <EState_VSA9>  (65) 
18.746449

>  <VSA_EState1>  (65) 
6.62962

>  <VSA_EState10>  (65) 
7.048978

>  <VSA_EState2>  (65) 
0.0

>  <VSA_EState3>  (65) 
4.093933

>  <VSA_EState4>  (65) 
6.462136

>  <VSA_EState5>  (65) 
0.713673

>  <VSA_EState6>  (65) 
7.496105

>  <VSA_EState7>  (65) 
0.0

>  <VSA_EState8>  (65) 
0.0

>  <VSA_EState9>  (65) 
0.0

>  <FractionCSP3>  (65) 
0.125

>  <HeavyAtomCount>  (65) 
12

>  <NHOHCount>  (65) 
3

>  <NOCount>  (65) 
2

>  <NumAliphaticCarbocycles>  (65) 
0

>  <NumAliphaticHeterocycles>  (65) 
0

>  <NumAliphaticRings>  (65) 
0

>  <NumAromaticCarbocycles>  (65) 
1

>  <NumAromaticHeterocycles>  (65) 
0

>  <NumAromaticRings>  (65) 
1

>  <NumHAcceptors>  (65) 
2

>  <NumHDonors>  (65) 
2

>  <NumHeteroatoms>  (65) 
4

>  <NumRotatableBonds>  (65) 
2

>  <NumSaturatedCarbocycles>  (65) 
0

>  <NumSaturatedHeterocycles>  (65) 
0

>  <NumSaturatedRings>  (65) 
0

>  <RingCount>  (65) 
1

>  <MolLogP>  (65) 
2.46667

>  <MolMR>  (65) 
54.6611

>  <fr_Al_COO>  (65) 
0

>  <fr_Al_OH>  (65) 
0

>  <fr_Al_OH_noTert>  (65) 
0

>  <fr_ArN>  (65) 
0

>  <fr_Ar_COO>  (65) 
0

>  <fr_Ar_N>  (65) 
0

>  <fr_Ar_NH>  (65) 
0

>  <fr_Ar_OH>  (65) 
0

>  <fr_COO>  (65) 
0

>  <fr_COO2>  (65) 
0

>  <fr_C_O>  (65) 
0

>  <fr_C_O_noCOO>  (65) 
0

>  <fr_C_S>  (65) 
0

>  <fr_HOCCN>  (65) 
0

>  <fr_Imine>  (65) 
0

>  <fr_NH0>  (65) 
0

>  <fr_NH1>  (65) 
1

>  <fr_NH2>  (65) 
1

>  <fr_N_O>  (65) 
0

>  <fr_Ndealkylation1>  (65) 
0

>  <fr_Ndealkylation2>  (65) 
0

>  <fr_Nhpyrrole>  (65) 
0

>  <fr_SH>  (65) 
0

>  <fr_aldehyde>  (65) 
0

>  <fr_alkyl_carbamate>  (65) 
0

>  <fr_alkyl_halide>  (65) 
0

>  <fr_allylic_oxid>  (65) 
0

>  <fr_amide>  (65) 
0

>  <fr_amidine>  (65) 
1

>  <fr_aniline>  (65) 
0

>  <fr_aryl_methyl>  (65) 
0

>  <fr_azide>  (65) 
0

>  <fr_azo>  (65) 
0

>  <fr_barbitur>  (65) 
0

>  <fr_benzene>  (65) 
1

>  <fr_benzodiazepine>  (65) 
0

>  <fr_bicyclic>  (65) 
0

>  <fr_diazo>  (65) 
0

>  <fr_dihydropyridine>  (65) 
0

>  <fr_epoxide>  (65) 
0

>  <fr_ester>  (65) 
0

>  <fr_ether>  (65) 
0

>  <fr_furan>  (65) 
0

>  <fr_guanido>  (65) 
0

>  <fr_halogen>  (65) 
1

>  <fr_hdrzine>  (65) 
0

>  <fr_hdrzone>  (65) 
0

>  <fr_imidazole>  (65) 
0

>  <fr_imide>  (65) 
0

>  <fr_isocyan>  (65) 
0

>  <fr_isothiocyan>  (65) 
0

>  <fr_ketone>  (65) 
0

>  <fr_ketone_Topliss>  (65) 
0

>  <fr_lactam>  (65) 
0

>  <fr_lactone>  (65) 
0

>  <fr_methoxy>  (65) 
0

>  <fr_morpholine>  (65) 
0

>  <fr_nitrile>  (65) 
0

>  <fr_nitro>  (65) 
0

>  <fr_nitro_arom>  (65) 
0

>  <fr_nitro_arom_nonortho>  (65) 
0

>  <fr_nitroso>  (65) 
0

>  <fr_oxazole>  (65) 
0

>  <fr_oxime>  (65) 
0

>  <fr_para_hydroxylation>  (65) 
0

>  <fr_phenol>  (65) 
0

>  <fr_phenol_noOrthoHbond>  (65) 
0

>  <fr_phos_acid>  (65) 
0

>  <fr_phos_ester>  (65) 
0

>  <fr_piperdine>  (65) 
0

>  <fr_piperzine>  (65) 
0

>  <fr_priamide>  (65) 
0

>  <fr_prisulfonamd>  (65) 
0

>  <fr_pyridine>  (65) 
0

>  <fr_quatN>  (65) 
0

>  <fr_sulfide>  (65) 
1

>  <fr_sulfonamd>  (65) 
0

>  <fr_sulfone>  (65) 
0

>  <fr_term_acetylene>  (65) 
0

>  <fr_tetrazole>  (65) 
0

>  <fr_thiazole>  (65) 
0

>  <fr_thiocyan>  (65) 
0

>  <fr_thiophene>  (65) 
0

>  <fr_unbrch_alkane>  (65) 
0

>  <fr_urea>  (65) 
0

>  <NP_Likeness>  (65) 
-1.178662

$$$$
8K5
     RDKit          3D

  0  0  0  0  0  0  0  0  0  0999 V3000
M  V30 BEGIN CTAB
M  V30 COUNTS 21 21 0 0 0
M  V30 BEGIN ATOM
M  V30 1 Cl -4.608000 2.801000 -41.910000 0
M  V30 2 S -4.928000 4.158000 -35.079000 0
M  V30 3 N -3.300000 5.916000 -33.984000 0
M  V30 4 N -3.568000 6.108000 -36.242000 0
M  V30 5 C -6.204000 4.451000 -36.347000 0
M  V30 6 C -6.373000 3.645000 -40.047000 0
M  V30 7 C -4.158000 3.159000 -39.270000 0
M  V30 8 C -6.732000 4.022000 -38.766000 0
M  V30 9 C -4.532000 3.536000 -37.993000 0
M  V30 10 C -3.839000 5.512000 -35.104000 0
M  V30 11 C -5.084000 3.226000 -40.286000 0
M  V30 12 C -5.817000 3.983000 -37.725000 0
M  V30 13 H -2.671600 6.693900 -33.983600 0
M  V30 14 H -2.942000 6.887500 -36.261500 0
M  V30 15 H -6.386600 5.433300 -36.388300 0
M  V30 16 H -7.036000 3.968500 -36.073200 0
M  V30 17 H -7.041300 3.676400 -40.790200 0
M  V30 18 H -3.227300 2.842000 -39.452700 0
M  V30 19 H -7.667200 4.327900 -38.587400 0
M  V30 20 H -3.864300 3.485400 -37.250200 0
M  V30 21 H -3.987600 5.782400 -37.089300 0
M  V30 END ATOM
M  V30 BEGIN BOND
M  V30 1 1 1 11
M  V30 2 1 2 5
M  V30 3 1 2 10
M  V30 4 2 3 10
M  V30 5 1 4 10
M  V30 6 1 5 12
M  V30 7 2 6 8
M  V30 8 1 6 11
M  V30 9 1 7 9
M  V30 10 2 7 11
M  V30 11 1 8 12
M  V30 12 2 9 12
M  V30 13 1 9 20
M  V30 14 1 3 13
M  V30 15 1 4 14
M  V30 16 1 5 15
M  V30 17 1 5 16
M  V30 18 1 6 17
M  V30 19 1 7 18
M  V30 20 1 8 19
M  V30 21 1 4 21
M  V30 END BOND
M  V30 END CTAB
M  END
>  <Ligand_Instance>  (66) 
5N32_8K5_A_402

>  <Dataset>  (66) 
PDB

>  <PDB_ID>  (66) 
5N32

>  <Chain>  (66) 
A

>  <Resi>  (66) 
402

>  <Num_Resolved_Atoms>  (66) 
12

>  <Num_H_Atoms_ProtBoundConf>  (66) 
9

>  <Pocket>  (66) 
X

>  <Name>  (66) 
[azanyl-[(4-chlorophenyl)methylsulfanyl]methylidene]azanium

>  <Num_Not_Resolved_Atoms>  (66) 
0

>  <ATP_Site>  (66) 
True

>  <Peripheral>  (66) 
True

>  <Standardized_SMILES>  (66) 
[H]/N=C(/SC([H])([H])C1=C([H])C([H])=C(Cl)C([H])=C1[H])N([H])[H]

>  <2D_Mol_H>  (66) 
<rdkit.Chem.rdchem.Mol object at 0x77059d9e5af0>

>  <MW>  (66) 
200.694

>  <HBA>  (66) 
2

>  <HBD>  (66) 
2

>  <LogP>  (66) 
2.46667

>  <NRB>  (66) 
2

>  <TPSA>  (66) 
49.87

>  <Num_Heavy_Atoms>  (66) 
12

>  <Ro5>  (66) 
[True, True, True, True, True, True]

>  <Ro5_Fulfilled>  (66) 
True

>  <Ro3>  (66) 
[True, True, True, True]

>  <Ro3_Fulfilled>  (66) 
True

>  <Fsp3>  (66) 
0.125

>  <Fsp3_0.42>  (66) 
False

>  <Fsp3_0.45>  (66) 
False

>  <Stereogenic_Carbons>  (66) 
0

>  <C_Atoms>  (66) 
8

>  <FCStereo>  (66) 
0.0

>  <SPS>  (66) 
153

>  <nSPS>  (66) 
12.75

>  <PBF>  (66) 
0.616879

>  <PBF_0.6>  (66) 
True

>  <nPBF>  (66) 
0.051407

>  <nPBF_0.016>  (66) 
True

>  <PMI1>  (66) 
267.46638

>  <PMI2>  (66) 
1640.911129

>  <PMI3>  (66) 
1780.827827

>  <NPR1>  (66) 
0.150192

>  <NPR2>  (66) 
0.921432

>  <Sum_NPR>  (66) 
1.071624

>  <Sum_NPR_1.07>  (66) 
True

>  <Sum_NPR_1.2>  (66) 
False

>  <MaxAbsEStateIndex>  (66) 
6.62962

>  <MaxEStateIndex>  (66) 
6.62962

>  <MinAbsEStateIndex>  (66) 
0.273102

>  <MinEStateIndex>  (66) 
0.273102

>  <qed>  (66) 
0.569381

>  <MolWt>  (66) 
200.694

>  <HeavyAtomMolWt>  (66) 
191.622

>  <ExactMolWt>  (66) 
200.017497

>  <NumValenceElectrons>  (66) 
64

>  <NumRadicalElectrons>  (66) 
0

>  <MaxPartialCharge>  (66) 
0.189944

>  <MinPartialCharge>  (66) 
-0.378707

>  <MaxAbsPartialCharge>  (66) 
0.378707

>  <MinAbsPartialCharge>  (66) 
0.189944

>  <FpDensityMorgan1>  (66) 
1.583333

>  <FpDensityMorgan2>  (66) 
2.25

>  <FpDensityMorgan3>  (66) 
2.833333

>  <BCUT2D_MWHI>  (66) 
35.495691

>  <BCUT2D_MWLOW>  (66) 
0.931263

>  <BCUT2D_CHGHI>  (66) 
1.952071

>  <BCUT2D_CHGLO>  (66) 
-1.996087

>  <BCUT2D_LOGPHI>  (66) 
2.145201

>  <BCUT2D_LOGPLOW>  (66) 
-2.053645

>  <BCUT2D_MRHI>  (66) 
8.125292

>  <BCUT2D_MRLOW>  (66) 
0.244224

>  <AvgIpc>  (66) 
2.163527

>  <BalabanJ>  (66) 
2.505806

>  <BertzCT>  (66) 
299.517266

>  <Chi0>  (66) 
9.681798

>  <Chi0n>  (66) 
7.327284

>  <Chi0v>  (66) 
7.89971

>  <Chi1>  (66) 
6.219545

>  <Chi1n>  (66) 
3.816198

>  <Chi1v>  (66) 
4.732547

>  <Chi2n>  (66) 
2.253379

>  <Chi2v>  (66) 
3.685441

>  <Chi3n>  (66) 
1.299976

>  <Chi3v>  (66) 
2.325389

>  <Chi4n>  (66) 
0.737906

>  <Chi4v>  (66) 
1.370894

>  <HallKierAlpha>  (66) 
-0.67

>  <Ipc>  (66) 
908.681253

>  <Kappa1>  (66) 
7.952513

>  <Kappa2>  (66) 
4.378963

>  <Kappa3>  (66) 
3.152675

>  <LabuteASA>  (66) 
82.075932

>  <PEOE_VSA1>  (66) 
5.733667

>  <PEOE_VSA10>  (66) 
0.0

>  <PEOE_VSA11>  (66) 
6.579494

>  <PEOE_VSA12>  (66) 
0.0

>  <PEOE_VSA13>  (66) 
0.0

>  <PEOE_VSA14>  (66) 
0.0

>  <PEOE_VSA2>  (66) 
5.402308

>  <PEOE_VSA3>  (66) 
0.0

>  <PEOE_VSA4>  (66) 
0.0

>  <PEOE_VSA5>  (66) 
0.0

>  <PEOE_VSA6>  (66) 
35.495559

>  <PEOE_VSA7>  (66) 
17.696186

>  <PEOE_VSA8>  (66) 
10.775487

>  <PEOE_VSA9>  (66) 
0.0

>  <SMR_VSA1>  (66) 
1.411842

>  <SMR_VSA10>  (66) 
28.530477

>  <SMR_VSA2>  (66) 
5.402308

>  <SMR_VSA3>  (66) 
0.0

>  <SMR_VSA4>  (66) 
5.733667

>  <SMR_VSA5>  (66) 
5.752854

>  <SMR_VSA6>  (66) 
0.0

>  <SMR_VSA7>  (66) 
34.851553

>  <SMR_VSA8>  (66) 
0.0

>  <SMR_VSA9>  (66) 
0.0

>  <SlogP_VSA1>  (66) 
5.733667

>  <SlogP_VSA10>  (66) 
0.0

>  <SlogP_VSA11>  (66) 
0.0

>  <SlogP_VSA12>  (66) 
23.362825

>  <SlogP_VSA2>  (66) 
5.167652

>  <SlogP_VSA3>  (66) 
5.752854

>  <SlogP_VSA4>  (66) 
5.402308

>  <SlogP_VSA5>  (66) 
5.563451

>  <SlogP_VSA6>  (66) 
24.265468

>  <SlogP_VSA7>  (66) 
6.434475

>  <SlogP_VSA8>  (66) 
0.0

>  <SlogP_VSA9>  (66) 
0.0

>  <EState_VSA1>  (66) 
0.0

>  <EState_VSA10>  (66) 
0.0

>  <EState_VSA11>  (66) 
0.0

>  <EState_VSA2>  (66) 
5.167652

>  <EState_VSA3>  (66) 
5.752854

>  <EState_VSA4>  (66) 
10.586085

>  <EState_VSA5>  (66) 
11.761885

>  <EState_VSA6>  (66) 
0.0

>  <EState_VSA7>  (66) 
24.265468

>  <EState_VSA8>  (66) 
5.402308

>  <EState_VSA9>  (66) 
18.746449

>  <VSA_EState1>  (66) 
6.62962

>  <VSA_EState10>  (66) 
7.048978

>  <VSA_EState2>  (66) 
0.0

>  <VSA_EState3>  (66) 
4.093933

>  <VSA_EState4>  (66) 
6.462136

>  <VSA_EState5>  (66) 
0.713673

>  <VSA_EState6>  (66) 
7.496105

>  <VSA_EState7>  (66) 
0.0

>  <VSA_EState8>  (66) 
0.0

>  <VSA_EState9>  (66) 
0.0

>  <FractionCSP3>  (66) 
0.125

>  <HeavyAtomCount>  (66) 
12

>  <NHOHCount>  (66) 
3

>  <NOCount>  (66) 
2

>  <NumAliphaticCarbocycles>  (66) 
0

>  <NumAliphaticHeterocycles>  (66) 
0

>  <NumAliphaticRings>  (66) 
0

>  <NumAromaticCarbocycles>  (66) 
1

>  <NumAromaticHeterocycles>  (66) 
0

>  <NumAromaticRings>  (66) 
1

>  <NumHAcceptors>  (66) 
2

>  <NumHDonors>  (66) 
2

>  <NumHeteroatoms>  (66) 
4

>  <NumRotatableBonds>  (66) 
2

>  <NumSaturatedCarbocycles>  (66) 
0

>  <NumSaturatedHeterocycles>  (66) 
0

>  <NumSaturatedRings>  (66) 
0

>  <RingCount>  (66) 
1

>  <MolLogP>  (66) 
2.46667

>  <MolMR>  (66) 
54.6611

>  <fr_Al_COO>  (66) 
0

>  <fr_Al_OH>  (66) 
0

>  <fr_Al_OH_noTert>  (66) 
0

>  <fr_ArN>  (66) 
0

>  <fr_Ar_COO>  (66) 
0

>  <fr_Ar_N>  (66) 
0

>  <fr_Ar_NH>  (66) 
0

>  <fr_Ar_OH>  (66) 
0

>  <fr_COO>  (66) 
0

>  <fr_COO2>  (66) 
0

>  <fr_C_O>  (66) 
0

>  <fr_C_O_noCOO>  (66) 
0

>  <fr_C_S>  (66) 
0

>  <fr_HOCCN>  (66) 
0

>  <fr_Imine>  (66) 
0

>  <fr_NH0>  (66) 
0

>  <fr_NH1>  (66) 
1

>  <fr_NH2>  (66) 
1

>  <fr_N_O>  (66) 
0

>  <fr_Ndealkylation1>  (66) 
0

>  <fr_Ndealkylation2>  (66) 
0

>  <fr_Nhpyrrole>  (66) 
0

>  <fr_SH>  (66) 
0

>  <fr_aldehyde>  (66) 
0

>  <fr_alkyl_carbamate>  (66) 
0

>  <fr_alkyl_halide>  (66) 
0

>  <fr_allylic_oxid>  (66) 
0

>  <fr_amide>  (66) 
0

>  <fr_amidine>  (66) 
1

>  <fr_aniline>  (66) 
0

>  <fr_aryl_methyl>  (66) 
0

>  <fr_azide>  (66) 
0

>  <fr_azo>  (66) 
0

>  <fr_barbitur>  (66) 
0

>  <fr_benzene>  (66) 
1

>  <fr_benzodiazepine>  (66) 
0

>  <fr_bicyclic>  (66) 
0

>  <fr_diazo>  (66) 
0

>  <fr_dihydropyridine>  (66) 
0

>  <fr_epoxide>  (66) 
0

>  <fr_ester>  (66) 
0

>  <fr_ether>  (66) 
0

>  <fr_furan>  (66) 
0

>  <fr_guanido>  (66) 
0

>  <fr_halogen>  (66) 
1

>  <fr_hdrzine>  (66) 
0

>  <fr_hdrzone>  (66) 
0

>  <fr_imidazole>  (66) 
0

>  <fr_imide>  (66) 
0

>  <fr_isocyan>  (66) 
0

>  <fr_isothiocyan>  (66) 
0

>  <fr_ketone>  (66) 
0

>  <fr_ketone_Topliss>  (66) 
0

>  <fr_lactam>  (66) 
0

>  <fr_lactone>  (66) 
0

>  <fr_methoxy>  (66) 
0

>  <fr_morpholine>  (66) 
0

>  <fr_nitrile>  (66) 
0

>  <fr_nitro>  (66) 
0

>  <fr_nitro_arom>  (66) 
0

>  <fr_nitro_arom_nonortho>  (66) 
0

>  <fr_nitroso>  (66) 
0

>  <fr_oxazole>  (66) 
0

>  <fr_oxime>  (66) 
0

>  <fr_para_hydroxylation>  (66) 
0

>  <fr_phenol>  (66) 
0

>  <fr_phenol_noOrthoHbond>  (66) 
0

>  <fr_phos_acid>  (66) 
0

>  <fr_phos_ester>  (66) 
0

>  <fr_piperdine>  (66) 
0

>  <fr_piperzine>  (66) 
0

>  <fr_priamide>  (66) 
0

>  <fr_prisulfonamd>  (66) 
0

>  <fr_pyridine>  (66) 
0

>  <fr_quatN>  (66) 
0

>  <fr_sulfide>  (66) 
1

>  <fr_sulfonamd>  (66) 
0

>  <fr_sulfone>  (66) 
0

>  <fr_term_acetylene>  (66) 
0

>  <fr_tetrazole>  (66) 
0

>  <fr_thiazole>  (66) 
0

>  <fr_thiocyan>  (66) 
0

>  <fr_thiophene>  (66) 
0

>  <fr_unbrch_alkane>  (66) 
0

>  <fr_urea>  (66) 
0

>  <NP_Likeness>  (66) 
-1.178662

$$$$
8KB
     RDKit          3D

  0  0  0  0  0  0  0  0  0  0999 V3000
M  V30 BEGIN CTAB
M  V30 COUNTS 20 20 0 0 0
M  V30 BEGIN ATOM
M  V30 1 O -20.168000 10.106000 -31.515000 0
M  V30 2 O -23.331000 9.203000 -32.010000 0
M  V30 3 N -21.713000 8.909000 -29.486000 0 CHG=1
M  V30 4 C -22.825000 7.978000 -31.494000 0
M  V30 5 C -22.380000 10.183000 -32.427000 0
M  V30 6 C -22.719000 7.984000 -29.990000 0
M  V30 7 C -21.848000 10.312000 -29.876000 0
M  V30 8 C -21.465000 10.684000 -31.335000 0 CFG=1
M  V30 9 H -19.554800 10.432500 -30.795700 0
M  V30 10 H -20.821600 8.590500 -29.808300 0
M  V30 11 H -21.915700 7.819300 -31.878800 0
M  V30 12 H -23.437400 7.236900 -31.769200 0
M  V30 13 H -22.881400 10.965600 -32.795800 0
M  V30 14 H -21.814000 9.780600 -33.146600 0
M  V30 15 H -23.607000 8.243500 -29.610400 0
M  V30 16 H -22.482800 7.061400 -29.685000 0
M  V30 17 H -21.267200 10.850900 -29.265900 0
M  V30 18 H -22.804400 10.571000 -29.740800 0
M  V30 19 H -21.389300 11.678600 -31.406600 0
M  V30 20 H -21.739900 8.869400 -28.487100 0
M  V30 END ATOM
M  V30 BEGIN BOND
M  V30 1 1 1 8
M  V30 2 1 2 4
M  V30 3 1 2 5
M  V30 4 1 3 6
M  V30 5 1 3 7
M  V30 6 1 4 6
M  V30 7 1 5 8
M  V30 8 1 7 8
M  V30 9 1 1 9
M  V30 10 1 3 10
M  V30 11 1 4 11
M  V30 12 1 4 12
M  V30 13 1 5 13
M  V30 14 1 5 14
M  V30 15 1 6 15
M  V30 16 1 6 16
M  V30 17 1 7 17
M  V30 18 1 7 18
M  V30 19 1 8 19 CFG=1
M  V30 20 1 3 20
M  V30 END BOND
M  V30 END CTAB
M  END
>  <Ligand_Instance>  (67) 
5N3G_8KB_A_401

>  <Dataset>  (67) 
PDB

>  <PDB_ID>  (67) 
5N3G

>  <Chain>  (67) 
A

>  <Resi>  (67) 
401

>  <Num_Resolved_Atoms>  (67) 
8

>  <Num_H_Atoms_ProtBoundConf>  (67) 
12

>  <Pocket>  (67) 
B

>  <Name>  (67) 
(6~{R})-1,4-oxazepan-6-ol

>  <Num_Not_Resolved_Atoms>  (67) 
0

>  <ATP_Site>  (67) 
False

>  <Peripheral>  (67) 
True

>  <Standardized_SMILES>  (67) 
[H]O[C@@]1([H])C([H])([H])OC([H])([H])C([H])([H])[N+]([H])([H])C1([H])[H]

>  <2D_Mol_H>  (67) 
<rdkit.Chem.rdchem.Mol object at 0x77059d9e5bd0>

>  <MW>  (67) 
118.156

>  <HBA>  (67) 
2

>  <HBD>  (67) 
2

>  <LogP>  (67) 
-2.0591

>  <NRB>  (67) 
1

>  <TPSA>  (67) 
46.07

>  <Num_Heavy_Atoms>  (67) 
8

>  <Ro5>  (67) 
[True, True, True, True, True, True]

>  <Ro5_Fulfilled>  (67) 
True

>  <Ro3>  (67) 
[True, True, True, True]

>  <Ro3_Fulfilled>  (67) 
True

>  <Fsp3>  (67) 
1.0

>  <Fsp3_0.42>  (67) 
True

>  <Fsp3_0.45>  (67) 
True

>  <Stereogenic_Carbons>  (67) 
1

>  <C_Atoms>  (67) 
5

>  <FCStereo>  (67) 
0.2

>  <SPS>  (67) 
255

>  <nSPS>  (67) 
31.875

>  <PBF>  (67) 
0.661945

>  <PBF_0.6>  (67) 
True

>  <nPBF>  (67) 
0.082743

>  <nPBF_0.016>  (67) 
True

>  <PMI1>  (67) 
189.221839

>  <PMI2>  (67) 
232.427636

>  <PMI3>  (67) 
332.606613

>  <NPR1>  (67) 
0.568906

>  <NPR2>  (67) 
0.698806

>  <Sum_NPR>  (67) 
1.267712

>  <Sum_NPR_1.07>  (67) 
True

>  <Sum_NPR_1.2>  (67) 
True

>  <MaxAbsEStateIndex>  (67) 
8.932917

>  <MaxEStateIndex>  (67) 
8.932917

>  <MinAbsEStateIndex>  (67) 
0.252315

>  <MinEStateIndex>  (67) 
-0.252315

>  <qed>  (67) 
0.384056

>  <MolWt>  (67) 
118.156

>  <HeavyAtomMolWt>  (67) 
106.06

>  <ExactMolWt>  (67) 
118.086255

>  <NumValenceElectrons>  (67) 
48

>  <NumRadicalElectrons>  (67) 
0

>  <MaxPartialCharge>  (67) 
0.12593

>  <MinPartialCharge>  (67) 
-0.384815

>  <MaxAbsPartialCharge>  (67) 
0.384815

>  <MinAbsPartialCharge>  (67) 
0.12593

>  <FpDensityMorgan1>  (67) 
1.625

>  <FpDensityMorgan2>  (67) 
2.5

>  <FpDensityMorgan3>  (67) 
3.375

>  <BCUT2D_MWHI>  (67) 
16.487347

>  <BCUT2D_MWLOW>  (67) 
10.377861

>  <BCUT2D_CHGHI>  (67) 
2.086955

>  <BCUT2D_CHGLO>  (67) 
-1.997295

>  <BCUT2D_LOGPHI>  (67) 
1.816217

>  <BCUT2D_LOGPLOW>  (67) 
-2.860342

>  <BCUT2D_MRHI>  (67) 
4.497547

>  <BCUT2D_MRLOW>  (67) 
-0.656812

>  <AvgIpc>  (67) 
1.940878

>  <BalabanJ>  (67) 
2.165964

>  <BertzCT>  (67) 
59.44901

>  <Chi0>  (67) 
5.819991

>  <Chi0n>  (67) 
4.83859

>  <Chi0v>  (67) 
4.83859

>  <Chi1>  (67) 
3.893847

>  <Chi1n>  (67) 
2.968542

>  <Chi1v>  (67) 
2.968542

>  <Chi2n>  (67) 
2.041791

>  <Chi2v>  (67) 
2.041791

>  <Chi3n>  (67) 
1.215293

>  <Chi3v>  (67) 
1.215293

>  <Chi4n>  (67) 
0.764317

>  <Chi4v>  (67) 
0.764317

>  <HallKierAlpha>  (67) 
-0.12

>  <Ipc>  (67) 
85.398652

>  <Kappa1>  (67) 
6.006904

>  <Kappa2>  (67) 
3.016596

>  <Kappa3>  (67) 
1.775788

>  <LabuteASA>  (67) 
48.650829

>  <PEOE_VSA1>  (67) 
15.160179

>  <PEOE_VSA10>  (67) 
12.648723

>  <PEOE_VSA11>  (67) 
0.0

>  <PEOE_VSA12>  (67) 
0.0

>  <PEOE_VSA13>  (67) 
0.0

>  <PEOE_VSA14>  (67) 
0.0

>  <PEOE_VSA2>  (67) 
0.0

>  <PEOE_VSA3>  (67) 
0.0

>  <PEOE_VSA4>  (67) 
0.0

>  <PEOE_VSA5>  (67) 
0.0

>  <PEOE_VSA6>  (67) 
0.0

>  <PEOE_VSA7>  (67) 
0.0

>  <PEOE_VSA8>  (67) 
0.0

>  <PEOE_VSA9>  (67) 
19.75852

>  <SMR_VSA1>  (67) 
15.160179

>  <SMR_VSA10>  (67) 
0.0

>  <SMR_VSA2>  (67) 
0.0

>  <SMR_VSA3>  (67) 
0.0

>  <SMR_VSA4>  (67) 
0.0

>  <SMR_VSA5>  (67) 
6.103966

>  <SMR_VSA6>  (67) 
26.303277

>  <SMR_VSA7>  (67) 
0.0

>  <SMR_VSA8>  (67) 
0.0

>  <SMR_VSA9>  (67) 
0.0

>  <SlogP_VSA1>  (67) 
5.316789

>  <SlogP_VSA10>  (67) 
0.0

>  <SlogP_VSA11>  (67) 
0.0

>  <SlogP_VSA12>  (67) 
0.0

>  <SlogP_VSA2>  (67) 
37.513771

>  <SlogP_VSA3>  (67) 
4.736863

>  <SlogP_VSA4>  (67) 
0.0

>  <SlogP_VSA5>  (67) 
0.0

>  <SlogP_VSA6>  (67) 
0.0

>  <SlogP_VSA7>  (67) 
0.0

>  <SlogP_VSA8>  (67) 
0.0

>  <SlogP_VSA9>  (67) 
0.0

>  <EState_VSA1>  (67) 
0.0

>  <EState_VSA10>  (67) 
0.0

>  <EState_VSA11>  (67) 
0.0

>  <EState_VSA2>  (67) 
6.103966

>  <EState_VSA3>  (67) 
6.606882

>  <EState_VSA4>  (67) 
19.696395

>  <EState_VSA5>  (67) 
0.0

>  <EState_VSA6>  (67) 
0.0

>  <EState_VSA7>  (67) 
0.0

>  <EState_VSA8>  (67) 
5.316789

>  <EState_VSA9>  (67) 
9.84339

>  <VSA_EState1>  (67) 
5.025463

>  <VSA_EState10>  (67) 
0.0

>  <VSA_EState2>  (67) 
0.0

>  <VSA_EState3>  (67) 
11.000046

>  <VSA_EState4>  (67) 
0.0

>  <VSA_EState5>  (67) 
0.0

>  <VSA_EState6>  (67) 
0.0

>  <VSA_EState7>  (67) 
-0.252315

>  <VSA_EState8>  (67) 
3.060139

>  <VSA_EState9>  (67) 
0.0

>  <FractionCSP3>  (67) 
1.0

>  <HeavyAtomCount>  (67) 
8

>  <NHOHCount>  (67) 
3

>  <NOCount>  (67) 
3

>  <NumAliphaticCarbocycles>  (67) 
0

>  <NumAliphaticHeterocycles>  (67) 
1

>  <NumAliphaticRings>  (67) 
1

>  <NumAromaticCarbocycles>  (67) 
0

>  <NumAromaticHeterocycles>  (67) 
0

>  <NumAromaticRings>  (67) 
0

>  <NumHAcceptors>  (67) 
2

>  <NumHDonors>  (67) 
2

>  <NumHeteroatoms>  (67) 
3

>  <NumRotatableBonds>  (67) 
0

>  <NumSaturatedCarbocycles>  (67) 
0

>  <NumSaturatedHeterocycles>  (67) 
1

>  <NumSaturatedRings>  (67) 
1

>  <RingCount>  (67) 
1

>  <MolLogP>  (67) 
-2.0591

>  <MolMR>  (67) 
28.4852

>  <fr_Al_COO>  (67) 
0

>  <fr_Al_OH>  (67) 
1

>  <fr_Al_OH_noTert>  (67) 
1

>  <fr_ArN>  (67) 
0

>  <fr_Ar_COO>  (67) 
0

>  <fr_Ar_N>  (67) 
0

>  <fr_Ar_NH>  (67) 
0

>  <fr_Ar_OH>  (67) 
0

>  <fr_COO>  (67) 
0

>  <fr_COO2>  (67) 
0

>  <fr_C_O>  (67) 
0

>  <fr_C_O_noCOO>  (67) 
0

>  <fr_C_S>  (67) 
0

>  <fr_HOCCN>  (67) 
0

>  <fr_Imine>  (67) 
0

>  <fr_NH0>  (67) 
0

>  <fr_NH1>  (67) 
0

>  <fr_NH2>  (67) 
1

>  <fr_N_O>  (67) 
0

>  <fr_Ndealkylation1>  (67) 
0

>  <fr_Ndealkylation2>  (67) 
0

>  <fr_Nhpyrrole>  (67) 
0

>  <fr_SH>  (67) 
0

>  <fr_aldehyde>  (67) 
0

>  <fr_alkyl_carbamate>  (67) 
0

>  <fr_alkyl_halide>  (67) 
0

>  <fr_allylic_oxid>  (67) 
0

>  <fr_amide>  (67) 
0

>  <fr_amidine>  (67) 
0

>  <fr_aniline>  (67) 
0

>  <fr_aryl_methyl>  (67) 
0

>  <fr_azide>  (67) 
0

>  <fr_azo>  (67) 
0

>  <fr_barbitur>  (67) 
0

>  <fr_benzene>  (67) 
0

>  <fr_benzodiazepine>  (67) 
0

>  <fr_bicyclic>  (67) 
0

>  <fr_diazo>  (67) 
0

>  <fr_dihydropyridine>  (67) 
0

>  <fr_epoxide>  (67) 
0

>  <fr_ester>  (67) 
0

>  <fr_ether>  (67) 
1

>  <fr_furan>  (67) 
0

>  <fr_guanido>  (67) 
0

>  <fr_halogen>  (67) 
0

>  <fr_hdrzine>  (67) 
0

>  <fr_hdrzone>  (67) 
0

>  <fr_imidazole>  (67) 
0

>  <fr_imide>  (67) 
0

>  <fr_isocyan>  (67) 
0

>  <fr_isothiocyan>  (67) 
0

>  <fr_ketone>  (67) 
0

>  <fr_ketone_Topliss>  (67) 
0

>  <fr_lactam>  (67) 
0

>  <fr_lactone>  (67) 
0

>  <fr_methoxy>  (67) 
0

>  <fr_morpholine>  (67) 
0

>  <fr_nitrile>  (67) 
0

>  <fr_nitro>  (67) 
0

>  <fr_nitro_arom>  (67) 
0

>  <fr_nitro_arom_nonortho>  (67) 
0

>  <fr_nitroso>  (67) 
0

>  <fr_oxazole>  (67) 
0

>  <fr_oxime>  (67) 
0

>  <fr_para_hydroxylation>  (67) 
0

>  <fr_phenol>  (67) 
0

>  <fr_phenol_noOrthoHbond>  (67) 
0

>  <fr_phos_acid>  (67) 
0

>  <fr_phos_ester>  (67) 
0

>  <fr_piperdine>  (67) 
0

>  <fr_piperzine>  (67) 
0

>  <fr_priamide>  (67) 
0

>  <fr_prisulfonamd>  (67) 
0

>  <fr_pyridine>  (67) 
0

>  <fr_quatN>  (67) 
1

>  <fr_sulfide>  (67) 
0

>  <fr_sulfonamd>  (67) 
0

>  <fr_sulfone>  (67) 
0

>  <fr_term_acetylene>  (67) 
0

>  <fr_tetrazole>  (67) 
0

>  <fr_thiazole>  (67) 
0

>  <fr_thiocyan>  (67) 
0

>  <fr_thiophene>  (67) 
0

>  <fr_unbrch_alkane>  (67) 
0

>  <fr_urea>  (67) 
0

>  <NP_Likeness>  (67) 
0.506486

$$$$
8KB
     RDKit          3D

  0  0  0  0  0  0  0  0  0  0999 V3000
M  V30 BEGIN CTAB
M  V30 COUNTS 20 20 0 0 0
M  V30 BEGIN ATOM
M  V30 1 O -26.821000 24.660000 -34.892000 0
M  V30 2 O -27.665000 21.922000 -35.401000 0
M  V30 3 N -26.270000 22.786000 -32.996000 0 CHG=1
M  V30 4 C -27.547000 21.038000 -34.292000 0
M  V30 5 C -28.535000 23.038000 -35.224000 0
M  V30 6 C -26.371000 21.367000 -33.405000 0
M  V30 7 C -27.521000 23.539000 -32.926000 0
M  V30 8 C -27.988000 24.094000 -34.290000 0 CFG=1
M  V30 9 H -26.442400 25.362400 -34.289300 0
M  V30 10 H -25.673900 23.248900 -33.652000 0
M  V30 11 H -27.436400 20.105800 -34.636700 0
M  V30 12 H -28.383800 21.094900 -33.747500 0
M  V30 13 H -29.402000 22.706400 -34.852200 0
M  V30 14 H -28.694400 23.458600 -36.117100 0
M  V30 15 H -26.442100 20.810400 -32.577300 0
M  V30 16 H -25.534700 21.126400 -33.897600 0
M  V30 17 H -27.392300 24.307800 -32.299500 0
M  V30 18 H -28.233900 22.934700 -32.570100 0
M  V30 19 H -28.674300 24.807200 -34.147500 0
M  V30 20 H -25.850100 22.810800 -32.088800 0
M  V30 END ATOM
M  V30 BEGIN BOND
M  V30 1 1 1 8
M  V30 2 1 2 4
M  V30 3 1 2 5
M  V30 4 1 3 6
M  V30 5 1 3 7
M  V30 6 1 4 6
M  V30 7 1 5 8
M  V30 8 1 7 8
M  V30 9 1 1 9
M  V30 10 1 3 10
M  V30 11 1 4 11
M  V30 12 1 4 12
M  V30 13 1 5 13
M  V30 14 1 5 14
M  V30 15 1 6 15
M  V30 16 1 6 16
M  V30 17 1 7 17
M  V30 18 1 7 18
M  V30 19 1 8 19 CFG=1
M  V30 20 1 3 20
M  V30 END BOND
M  V30 END CTAB
M  END
>  <Ligand_Instance>  (68) 
5N3G_8KB_A_402

>  <Dataset>  (68) 
PDB

>  <PDB_ID>  (68) 
5N3G

>  <Chain>  (68) 
A

>  <Resi>  (68) 
402

>  <Num_Resolved_Atoms>  (68) 
8

>  <Num_H_Atoms_ProtBoundConf>  (68) 
12

>  <Pocket>  (68) 
X

>  <Name>  (68) 
(6~{R})-1,4-oxazepan-6-ol

>  <Num_Not_Resolved_Atoms>  (68) 
0

>  <ATP_Site>  (68) 
False

>  <Peripheral>  (68) 
True

>  <Standardized_SMILES>  (68) 
[H]O[C@@]1([H])C([H])([H])OC([H])([H])C([H])([H])[N+]([H])([H])C1([H])[H]

>  <2D_Mol_H>  (68) 
<rdkit.Chem.rdchem.Mol object at 0x77059d9e5cb0>

>  <MW>  (68) 
118.156

>  <HBA>  (68) 
2

>  <HBD>  (68) 
2

>  <LogP>  (68) 
-2.0591

>  <NRB>  (68) 
1

>  <TPSA>  (68) 
46.07

>  <Num_Heavy_Atoms>  (68) 
8

>  <Ro5>  (68) 
[True, True, True, True, True, True]

>  <Ro5_Fulfilled>  (68) 
True

>  <Ro3>  (68) 
[True, True, True, True]

>  <Ro3_Fulfilled>  (68) 
True

>  <Fsp3>  (68) 
1.0

>  <Fsp3_0.42>  (68) 
True

>  <Fsp3_0.45>  (68) 
True

>  <Stereogenic_Carbons>  (68) 
1

>  <C_Atoms>  (68) 
5

>  <FCStereo>  (68) 
0.2

>  <SPS>  (68) 
255

>  <nSPS>  (68) 
31.875

>  <PBF>  (68) 
0.659117

>  <PBF_0.6>  (68) 
True

>  <nPBF>  (68) 
0.08239

>  <nPBF_0.016>  (68) 
True

>  <PMI1>  (68) 
180.915378

>  <PMI2>  (68) 
233.448819

>  <PMI3>  (68) 
331.626049

>  <NPR1>  (68) 
0.54554

>  <NPR2>  (68) 
0.703952

>  <Sum_NPR>  (68) 
1.249492

>  <Sum_NPR_1.07>  (68) 
True

>  <Sum_NPR_1.2>  (68) 
True

>  <MaxAbsEStateIndex>  (68) 
8.932917

>  <MaxEStateIndex>  (68) 
8.932917

>  <MinAbsEStateIndex>  (68) 
0.252315

>  <MinEStateIndex>  (68) 
-0.252315

>  <qed>  (68) 
0.384056

>  <MolWt>  (68) 
118.156

>  <HeavyAtomMolWt>  (68) 
106.06

>  <ExactMolWt>  (68) 
118.086255

>  <NumValenceElectrons>  (68) 
48

>  <NumRadicalElectrons>  (68) 
0

>  <MaxPartialCharge>  (68) 
0.12593

>  <MinPartialCharge>  (68) 
-0.384815

>  <MaxAbsPartialCharge>  (68) 
0.384815

>  <MinAbsPartialCharge>  (68) 
0.12593

>  <FpDensityMorgan1>  (68) 
1.625

>  <FpDensityMorgan2>  (68) 
2.5

>  <FpDensityMorgan3>  (68) 
3.375

>  <BCUT2D_MWHI>  (68) 
16.487347

>  <BCUT2D_MWLOW>  (68) 
10.377861

>  <BCUT2D_CHGHI>  (68) 
2.086955

>  <BCUT2D_CHGLO>  (68) 
-1.997295

>  <BCUT2D_LOGPHI>  (68) 
1.816217

>  <BCUT2D_LOGPLOW>  (68) 
-2.860342

>  <BCUT2D_MRHI>  (68) 
4.497547

>  <BCUT2D_MRLOW>  (68) 
-0.656812

>  <AvgIpc>  (68) 
1.940878

>  <BalabanJ>  (68) 
2.165964

>  <BertzCT>  (68) 
59.44901

>  <Chi0>  (68) 
5.819991

>  <Chi0n>  (68) 
4.83859

>  <Chi0v>  (68) 
4.83859

>  <Chi1>  (68) 
3.893847

>  <Chi1n>  (68) 
2.968542

>  <Chi1v>  (68) 
2.968542

>  <Chi2n>  (68) 
2.041791

>  <Chi2v>  (68) 
2.041791

>  <Chi3n>  (68) 
1.215293

>  <Chi3v>  (68) 
1.215293

>  <Chi4n>  (68) 
0.764317

>  <Chi4v>  (68) 
0.764317

>  <HallKierAlpha>  (68) 
-0.12

>  <Ipc>  (68) 
85.398652

>  <Kappa1>  (68) 
6.006904

>  <Kappa2>  (68) 
3.016596

>  <Kappa3>  (68) 
1.775788

>  <LabuteASA>  (68) 
48.650829

>  <PEOE_VSA1>  (68) 
15.160179

>  <PEOE_VSA10>  (68) 
12.648723

>  <PEOE_VSA11>  (68) 
0.0

>  <PEOE_VSA12>  (68) 
0.0

>  <PEOE_VSA13>  (68) 
0.0

>  <PEOE_VSA14>  (68) 
0.0

>  <PEOE_VSA2>  (68) 
0.0

>  <PEOE_VSA3>  (68) 
0.0

>  <PEOE_VSA4>  (68) 
0.0

>  <PEOE_VSA5>  (68) 
0.0

>  <PEOE_VSA6>  (68) 
0.0

>  <PEOE_VSA7>  (68) 
0.0

>  <PEOE_VSA8>  (68) 
0.0

>  <PEOE_VSA9>  (68) 
19.75852

>  <SMR_VSA1>  (68) 
15.160179

>  <SMR_VSA10>  (68) 
0.0

>  <SMR_VSA2>  (68) 
0.0

>  <SMR_VSA3>  (68) 
0.0

>  <SMR_VSA4>  (68) 
0.0

>  <SMR_VSA5>  (68) 
6.103966

>  <SMR_VSA6>  (68) 
26.303277

>  <SMR_VSA7>  (68) 
0.0

>  <SMR_VSA8>  (68) 
0.0

>  <SMR_VSA9>  (68) 
0.0

>  <SlogP_VSA1>  (68) 
5.316789

>  <SlogP_VSA10>  (68) 
0.0

>  <SlogP_VSA11>  (68) 
0.0

>  <SlogP_VSA12>  (68) 
0.0

>  <SlogP_VSA2>  (68) 
37.513771

>  <SlogP_VSA3>  (68) 
4.736863

>  <SlogP_VSA4>  (68) 
0.0

>  <SlogP_VSA5>  (68) 
0.0

>  <SlogP_VSA6>  (68) 
0.0

>  <SlogP_VSA7>  (68) 
0.0

>  <SlogP_VSA8>  (68) 
0.0

>  <SlogP_VSA9>  (68) 
0.0

>  <EState_VSA1>  (68) 
0.0

>  <EState_VSA10>  (68) 
0.0

>  <EState_VSA11>  (68) 
0.0

>  <EState_VSA2>  (68) 
6.103966

>  <EState_VSA3>  (68) 
6.606882

>  <EState_VSA4>  (68) 
19.696395

>  <EState_VSA5>  (68) 
0.0

>  <EState_VSA6>  (68) 
0.0

>  <EState_VSA7>  (68) 
0.0

>  <EState_VSA8>  (68) 
5.316789

>  <EState_VSA9>  (68) 
9.84339

>  <VSA_EState1>  (68) 
5.025463

>  <VSA_EState10>  (68) 
0.0

>  <VSA_EState2>  (68) 
0.0

>  <VSA_EState3>  (68) 
11.000046

>  <VSA_EState4>  (68) 
0.0

>  <VSA_EState5>  (68) 
0.0

>  <VSA_EState6>  (68) 
0.0

>  <VSA_EState7>  (68) 
-0.252315

>  <VSA_EState8>  (68) 
3.060139

>  <VSA_EState9>  (68) 
0.0

>  <FractionCSP3>  (68) 
1.0

>  <HeavyAtomCount>  (68) 
8

>  <NHOHCount>  (68) 
3

>  <NOCount>  (68) 
3

>  <NumAliphaticCarbocycles>  (68) 
0

>  <NumAliphaticHeterocycles>  (68) 
1

>  <NumAliphaticRings>  (68) 
1

>  <NumAromaticCarbocycles>  (68) 
0

>  <NumAromaticHeterocycles>  (68) 
0

>  <NumAromaticRings>  (68) 
0

>  <NumHAcceptors>  (68) 
2

>  <NumHDonors>  (68) 
2

>  <NumHeteroatoms>  (68) 
3

>  <NumRotatableBonds>  (68) 
0

>  <NumSaturatedCarbocycles>  (68) 
0

>  <NumSaturatedHeterocycles>  (68) 
1

>  <NumSaturatedRings>  (68) 
1

>  <RingCount>  (68) 
1

>  <MolLogP>  (68) 
-2.0591

>  <MolMR>  (68) 
28.4852

>  <fr_Al_COO>  (68) 
0

>  <fr_Al_OH>  (68) 
1

>  <fr_Al_OH_noTert>  (68) 
1

>  <fr_ArN>  (68) 
0

>  <fr_Ar_COO>  (68) 
0

>  <fr_Ar_N>  (68) 
0

>  <fr_Ar_NH>  (68) 
0

>  <fr_Ar_OH>  (68) 
0

>  <fr_COO>  (68) 
0

>  <fr_COO2>  (68) 
0

>  <fr_C_O>  (68) 
0

>  <fr_C_O_noCOO>  (68) 
0

>  <fr_C_S>  (68) 
0

>  <fr_HOCCN>  (68) 
0

>  <fr_Imine>  (68) 
0

>  <fr_NH0>  (68) 
0

>  <fr_NH1>  (68) 
0

>  <fr_NH2>  (68) 
1

>  <fr_N_O>  (68) 
0

>  <fr_Ndealkylation1>  (68) 
0

>  <fr_Ndealkylation2>  (68) 
0

>  <fr_Nhpyrrole>  (68) 
0

>  <fr_SH>  (68) 
0

>  <fr_aldehyde>  (68) 
0

>  <fr_alkyl_carbamate>  (68) 
0

>  <fr_alkyl_halide>  (68) 
0

>  <fr_allylic_oxid>  (68) 
0

>  <fr_amide>  (68) 
0

>  <fr_amidine>  (68) 
0

>  <fr_aniline>  (68) 
0

>  <fr_aryl_methyl>  (68) 
0

>  <fr_azide>  (68) 
0

>  <fr_azo>  (68) 
0

>  <fr_barbitur>  (68) 
0

>  <fr_benzene>  (68) 
0

>  <fr_benzodiazepine>  (68) 
0

>  <fr_bicyclic>  (68) 
0

>  <fr_diazo>  (68) 
0

>  <fr_dihydropyridine>  (68) 
0

>  <fr_epoxide>  (68) 
0

>  <fr_ester>  (68) 
0

>  <fr_ether>  (68) 
1

>  <fr_furan>  (68) 
0

>  <fr_guanido>  (68) 
0

>  <fr_halogen>  (68) 
0

>  <fr_hdrzine>  (68) 
0

>  <fr_hdrzone>  (68) 
0

>  <fr_imidazole>  (68) 
0

>  <fr_imide>  (68) 
0

>  <fr_isocyan>  (68) 
0

>  <fr_isothiocyan>  (68) 
0

>  <fr_ketone>  (68) 
0

>  <fr_ketone_Topliss>  (68) 
0

>  <fr_lactam>  (68) 
0

>  <fr_lactone>  (68) 
0

>  <fr_methoxy>  (68) 
0

>  <fr_morpholine>  (68) 
0

>  <fr_nitrile>  (68) 
0

>  <fr_nitro>  (68) 
0

>  <fr_nitro_arom>  (68) 
0

>  <fr_nitro_arom_nonortho>  (68) 
0

>  <fr_nitroso>  (68) 
0

>  <fr_oxazole>  (68) 
0

>  <fr_oxime>  (68) 
0

>  <fr_para_hydroxylation>  (68) 
0

>  <fr_phenol>  (68) 
0

>  <fr_phenol_noOrthoHbond>  (68) 
0

>  <fr_phos_acid>  (68) 
0

>  <fr_phos_ester>  (68) 
0

>  <fr_piperdine>  (68) 
0

>  <fr_piperzine>  (68) 
0

>  <fr_priamide>  (68) 
0

>  <fr_prisulfonamd>  (68) 
0

>  <fr_pyridine>  (68) 
0

>  <fr_quatN>  (68) 
1

>  <fr_sulfide>  (68) 
0

>  <fr_sulfonamd>  (68) 
0

>  <fr_sulfone>  (68) 
0

>  <fr_term_acetylene>  (68) 
0

>  <fr_tetrazole>  (68) 
0

>  <fr_thiazole>  (68) 
0

>  <fr_thiocyan>  (68) 
0

>  <fr_thiophene>  (68) 
0

>  <fr_unbrch_alkane>  (68) 
0

>  <fr_urea>  (68) 
0

>  <NP_Likeness>  (68) 
0.506486

$$$$
8LZ
     RDKit          3D

  0  0  0  0  0  0  0  0  0  0999 V3000
M  V30 BEGIN CTAB
M  V30 COUNTS 31 33 0 0 0
M  V30 BEGIN ATOM
M  V30 1 O -16.153000 25.456000 -23.846000 0
M  V30 2 O -14.594000 23.141000 -24.533000 0
M  V30 3 N -10.225000 25.820000 -26.090000 0 CHG=1
M  V30 4 C -16.345000 24.212000 -23.123000 0
M  V30 5 C -15.928000 23.040000 -23.976000 0
M  V30 6 C -9.300000 24.798000 -26.695000 0
M  V30 7 C -9.733000 24.703000 -28.152000 0
M  V30 8 C -14.697000 26.766000 -25.185000 0
M  V30 9 C -11.221000 25.002000 -28.150000 0
M  V30 10 C -13.533000 26.898000 -25.929000 0
M  V30 11 C -13.085000 24.551000 -25.695000 0
M  V30 12 C -15.059000 25.521000 -24.683000 0
M  V30 13 C -14.260000 24.401000 -24.968000 0
M  V30 14 C -11.444000 25.984000 -26.990000 0 CFG=1
M  V30 15 C -12.708000 25.805000 -26.181000 0
M  V30 16 H -9.749000 26.695600 -26.008100 0
M  V30 17 H -17.310600 24.116800 -22.881200 0
M  V30 18 H -15.792500 24.226300 -22.289600 0
M  V30 19 H -15.968800 22.214700 -23.412800 0
M  V30 20 H -16.576400 22.959300 -24.733000 0
M  V30 21 H -9.402600 23.914500 -26.237900 0
M  V30 22 H -8.348800 25.099400 -26.628300 0
M  V30 23 H -9.561000 23.784900 -28.509000 0
M  V30 24 H -9.242000 25.374100 -28.707500 0
M  V30 25 H -15.273700 27.564100 -25.010400 0
M  V30 26 H -11.745300 24.163300 -28.002900 0
M  V30 27 H -11.494500 25.418300 -29.017100 0
M  V30 28 H -13.281800 27.795600 -26.291200 0
M  V30 29 H -12.505400 23.755400 -25.871400 0
M  V30 30 H -11.437700 26.913000 -27.360100 0
M  V30 31 H -10.516500 25.513100 -25.184000 0
M  V30 END ATOM
M  V30 BEGIN BOND
M  V30 1 1 1 4
M  V30 2 1 1 12
M  V30 3 1 2 5
M  V30 4 1 2 13
M  V30 5 1 3 6
M  V30 6 1 3 14
M  V30 7 1 4 5
M  V30 8 1 6 7
M  V30 9 1 7 9
M  V30 10 1 8 10
M  V30 11 2 8 12
M  V30 12 1 9 14
M  V30 13 2 10 15
M  V30 14 2 11 13
M  V30 15 1 11 15
M  V30 16 1 12 13
M  V30 17 1 14 15
M  V30 18 1 3 16
M  V30 19 1 4 17
M  V30 20 1 4 18
M  V30 21 1 5 19
M  V30 22 1 5 20
M  V30 23 1 6 21
M  V30 24 1 6 22
M  V30 25 1 7 23
M  V30 26 1 7 24
M  V30 27 1 8 25
M  V30 28 1 9 26
M  V30 29 1 9 27
M  V30 30 1 10 28
M  V30 31 1 11 29
M  V30 32 1 14 30 CFG=3
M  V30 33 1 3 31
M  V30 END BOND
M  V30 END CTAB
M  END
>  <Ligand_Instance>  (69) 
5N39_8LZ_A_401

>  <Dataset>  (69) 
PDB

>  <PDB_ID>  (69) 
5N39

>  <Chain>  (69) 
A

>  <Resi>  (69) 
401

>  <Num_Resolved_Atoms>  (69) 
15

>  <Num_H_Atoms_ProtBoundConf>  (69) 
16

>  <Pocket>  (69) 
A

>  <Name>  (69) 
(2~{S})-2-(2,3-dihydro-1,4-benzodioxin-6-yl)pyrrolidin-1-ium

>  <Num_Not_Resolved_Atoms>  (69) 
0

>  <ATP_Site>  (69) 
True

>  <Peripheral>  (69) 
False

>  <Standardized_SMILES>  (69) 
[H]C1=C([H])C([C@]2([H])C([H])([H])C([H])([H])C([H])([H])[N+]2([H])[H])=C([H])C2=C1OC([H])([H])C([H])([H])O2

>  <2D_Mol_H>  (69) 
<rdkit.Chem.rdchem.Mol object at 0x77059d9e5d90>

>  <MW>  (69) 
206.265

>  <HBA>  (69) 
2

>  <HBD>  (69) 
1

>  <LogP>  (69) 
0.8561

>  <NRB>  (69) 
1

>  <TPSA>  (69) 
35.07

>  <Num_Heavy_Atoms>  (69) 
15

>  <Ro5>  (69) 
[True, True, True, True, True, True]

>  <Ro5_Fulfilled>  (69) 
True

>  <Ro3>  (69) 
[True, True, True, True]

>  <Ro3_Fulfilled>  (69) 
True

>  <Fsp3>  (69) 
0.5

>  <Fsp3_0.42>  (69) 
True

>  <Fsp3_0.45>  (69) 
True

>  <Stereogenic_Carbons>  (69) 
1

>  <C_Atoms>  (69) 
12

>  <FCStereo>  (69) 
0.083333

>  <SPS>  (69) 
362

>  <nSPS>  (69) 
24.133333

>  <PBF>  (69) 
0.659803

>  <PBF_0.6>  (69) 
True

>  <nPBF>  (69) 
0.043987

>  <nPBF_0.016>  (69) 
True

>  <PMI1>  (69) 
332.905108

>  <PMI2>  (69) 
1617.746615

>  <PMI3>  (69) 
1797.747215

>  <NPR1>  (69) 
0.185179

>  <NPR2>  (69) 
0.899874

>  <Sum_NPR>  (69) 
1.085053

>  <Sum_NPR_1.07>  (69) 
True

>  <Sum_NPR_1.2>  (69) 
False

>  <MaxAbsEStateIndex>  (69) 
5.584781

>  <MaxEStateIndex>  (69) 
5.584781

>  <MinAbsEStateIndex>  (69) 
0.625765

>  <MinEStateIndex>  (69) 
0.625765

>  <qed>  (69) 
0.739208

>  <MolWt>  (69) 
206.265

>  <HeavyAtomMolWt>  (69) 
190.137

>  <ExactMolWt>  (69) 
206.117555

>  <NumValenceElectrons>  (69) 
80

>  <NumRadicalElectrons>  (69) 
0

>  <MaxPartialCharge>  (69) 
0.161365

>  <MinPartialCharge>  (69) 
-0.486147

>  <MaxAbsPartialCharge>  (69) 
0.486147

>  <MinAbsPartialCharge>  (69) 
0.161365

>  <FpDensityMorgan1>  (69) 
1.133333

>  <FpDensityMorgan2>  (69) 
2.0

>  <FpDensityMorgan3>  (69) 
2.8

>  <BCUT2D_MWHI>  (69) 
16.562563

>  <BCUT2D_MWLOW>  (69) 
10.047217

>  <BCUT2D_CHGHI>  (69) 
2.22027

>  <BCUT2D_CHGLO>  (69) 
-2.191711

>  <BCUT2D_LOGPHI>  (69) 
2.32595

>  <BCUT2D_LOGPLOW>  (69) 
-2.81342

>  <BCUT2D_MRHI>  (69) 
5.438943

>  <BCUT2D_MRLOW>  (69) 
-0.675828

>  <AvgIpc>  (69) 
2.817875

>  <BalabanJ>  (69) 
1.893269

>  <BertzCT>  (69) 
358.639794

>  <Chi0>  (69) 
10.087576

>  <Chi0n>  (69) 
8.738782

>  <Chi0v>  (69) 
8.738782

>  <Chi1>  (69) 
7.432653

>  <Chi1n>  (69) 
5.662137

>  <Chi1v>  (69) 
5.662137

>  <Chi2n>  (69) 
4.176195

>  <Chi2v>  (69) 
4.176195

>  <Chi3n>  (69) 
3.164821

>  <Chi3v>  (69) 
3.164821

>  <Chi4n>  (69) 
2.367982

>  <Chi4v>  (69) 
2.367982

>  <HallKierAlpha>  (69) 
-1.22

>  <Ipc>  (69) 
7199.670495

>  <Kappa1>  (69) 
9.038512

>  <Kappa2>  (69) 
3.738571

>  <Kappa3>  (69) 
1.67463

>  <LabuteASA>  (69) 
89.386346

>  <PEOE_VSA1>  (69) 
14.790515

>  <PEOE_VSA10>  (69) 
19.255605

>  <PEOE_VSA11>  (69) 
11.499024

>  <PEOE_VSA12>  (69) 
0.0

>  <PEOE_VSA13>  (69) 
0.0

>  <PEOE_VSA14>  (69) 
0.0

>  <PEOE_VSA2>  (69) 
0.0

>  <PEOE_VSA3>  (69) 
0.0

>  <PEOE_VSA4>  (69) 
0.0

>  <PEOE_VSA5>  (69) 
0.0

>  <PEOE_VSA6>  (69) 
0.0

>  <PEOE_VSA7>  (69) 
18.199101

>  <PEOE_VSA8>  (69) 
18.405095

>  <PEOE_VSA9>  (69) 
6.544756

>  <SMR_VSA1>  (69) 
14.790515

>  <SMR_VSA10>  (69) 
0.0

>  <SMR_VSA2>  (69) 
0.0

>  <SMR_VSA3>  (69) 
0.0

>  <SMR_VSA4>  (69) 
0.0

>  <SMR_VSA5>  (69) 
18.883484

>  <SMR_VSA6>  (69) 
19.75852

>  <SMR_VSA7>  (69) 
23.762553

>  <SMR_VSA8>  (69) 
0.0

>  <SMR_VSA9>  (69) 
11.499024

>  <SlogP_VSA1>  (69) 
14.790515

>  <SlogP_VSA10>  (69) 
0.0

>  <SlogP_VSA11>  (69) 
11.499024

>  <SlogP_VSA12>  (69) 
0.0

>  <SlogP_VSA2>  (69) 
19.75852

>  <SlogP_VSA3>  (69) 
0.0

>  <SlogP_VSA4>  (69) 
0.0

>  <SlogP_VSA5>  (69) 
24.446936

>  <SlogP_VSA6>  (69) 
18.199101

>  <SlogP_VSA7>  (69) 
0.0

>  <SlogP_VSA8>  (69) 
0.0

>  <SlogP_VSA9>  (69) 
0.0

>  <EState_VSA1>  (69) 
0.0

>  <EState_VSA10>  (69) 
0.0

>  <EState_VSA11>  (69) 
0.0

>  <EState_VSA2>  (69) 
0.0

>  <EState_VSA3>  (69) 
19.255605

>  <EState_VSA4>  (69) 
11.499024

>  <EState_VSA5>  (69) 
24.949851

>  <EState_VSA6>  (69) 
0.0

>  <EState_VSA7>  (69) 
6.066367

>  <EState_VSA8>  (69) 
17.449523

>  <EState_VSA9>  (69) 
9.473726

>  <VSA_EState1>  (69) 
11.090654

>  <VSA_EState10>  (69) 
0.0

>  <VSA_EState2>  (69) 
0.0

>  <VSA_EState3>  (69) 
2.408145

>  <VSA_EState4>  (69) 
1.371991

>  <VSA_EState5>  (69) 
1.807451

>  <VSA_EState6>  (69) 
6.969978

>  <VSA_EState7>  (69) 
2.595985

>  <VSA_EState8>  (69) 
2.58913

>  <VSA_EState9>  (69) 
0.0

>  <FractionCSP3>  (69) 
0.5

>  <HeavyAtomCount>  (69) 
15

>  <NHOHCount>  (69) 
2

>  <NOCount>  (69) 
3

>  <NumAliphaticCarbocycles>  (69) 
0

>  <NumAliphaticHeterocycles>  (69) 
2

>  <NumAliphaticRings>  (69) 
2

>  <NumAromaticCarbocycles>  (69) 
1

>  <NumAromaticHeterocycles>  (69) 
0

>  <NumAromaticRings>  (69) 
1

>  <NumHAcceptors>  (69) 
2

>  <NumHDonors>  (69) 
1

>  <NumHeteroatoms>  (69) 
3

>  <NumRotatableBonds>  (69) 
1

>  <NumSaturatedCarbocycles>  (69) 
0

>  <NumSaturatedHeterocycles>  (69) 
1

>  <NumSaturatedRings>  (69) 
1

>  <RingCount>  (69) 
3

>  <MolLogP>  (69) 
0.8561

>  <MolMR>  (69) 
56.1994

>  <fr_Al_COO>  (69) 
0

>  <fr_Al_OH>  (69) 
0

>  <fr_Al_OH_noTert>  (69) 
0

>  <fr_ArN>  (69) 
0

>  <fr_Ar_COO>  (69) 
0

>  <fr_Ar_N>  (69) 
0

>  <fr_Ar_NH>  (69) 
0

>  <fr_Ar_OH>  (69) 
0

>  <fr_COO>  (69) 
0

>  <fr_COO2>  (69) 
0

>  <fr_C_O>  (69) 
0

>  <fr_C_O_noCOO>  (69) 
0

>  <fr_C_S>  (69) 
0

>  <fr_HOCCN>  (69) 
0

>  <fr_Imine>  (69) 
0

>  <fr_NH0>  (69) 
0

>  <fr_NH1>  (69) 
0

>  <fr_NH2>  (69) 
1

>  <fr_N_O>  (69) 
0

>  <fr_Ndealkylation1>  (69) 
0

>  <fr_Ndealkylation2>  (69) 
0

>  <fr_Nhpyrrole>  (69) 
0

>  <fr_SH>  (69) 
0

>  <fr_aldehyde>  (69) 
0

>  <fr_alkyl_carbamate>  (69) 
0

>  <fr_alkyl_halide>  (69) 
0

>  <fr_allylic_oxid>  (69) 
0

>  <fr_amide>  (69) 
0

>  <fr_amidine>  (69) 
0

>  <fr_aniline>  (69) 
0

>  <fr_aryl_methyl>  (69) 
0

>  <fr_azide>  (69) 
0

>  <fr_azo>  (69) 
0

>  <fr_barbitur>  (69) 
0

>  <fr_benzene>  (69) 
1

>  <fr_benzodiazepine>  (69) 
0

>  <fr_bicyclic>  (69) 
1

>  <fr_diazo>  (69) 
0

>  <fr_dihydropyridine>  (69) 
0

>  <fr_epoxide>  (69) 
0

>  <fr_ester>  (69) 
0

>  <fr_ether>  (69) 
2

>  <fr_furan>  (69) 
0

>  <fr_guanido>  (69) 
0

>  <fr_halogen>  (69) 
0

>  <fr_hdrzine>  (69) 
0

>  <fr_hdrzone>  (69) 
0

>  <fr_imidazole>  (69) 
0

>  <fr_imide>  (69) 
0

>  <fr_isocyan>  (69) 
0

>  <fr_isothiocyan>  (69) 
0

>  <fr_ketone>  (69) 
0

>  <fr_ketone_Topliss>  (69) 
0

>  <fr_lactam>  (69) 
0

>  <fr_lactone>  (69) 
0

>  <fr_methoxy>  (69) 
0

>  <fr_morpholine>  (69) 
0

>  <fr_nitrile>  (69) 
0

>  <fr_nitro>  (69) 
0

>  <fr_nitro_arom>  (69) 
0

>  <fr_nitro_arom_nonortho>  (69) 
0

>  <fr_nitroso>  (69) 
0

>  <fr_oxazole>  (69) 
0

>  <fr_oxime>  (69) 
0

>  <fr_para_hydroxylation>  (69) 
0

>  <fr_phenol>  (69) 
0

>  <fr_phenol_noOrthoHbond>  (69) 
0

>  <fr_phos_acid>  (69) 
0

>  <fr_phos_ester>  (69) 
0

>  <fr_piperdine>  (69) 
0

>  <fr_piperzine>  (69) 
0

>  <fr_priamide>  (69) 
0

>  <fr_prisulfonamd>  (69) 
0

>  <fr_pyridine>  (69) 
0

>  <fr_quatN>  (69) 
1

>  <fr_sulfide>  (69) 
0

>  <fr_sulfonamd>  (69) 
0

>  <fr_sulfone>  (69) 
0

>  <fr_term_acetylene>  (69) 
0

>  <fr_tetrazole>  (69) 
0

>  <fr_thiazole>  (69) 
0

>  <fr_thiocyan>  (69) 
0

>  <fr_thiophene>  (69) 
0

>  <fr_unbrch_alkane>  (69) 
0

>  <fr_urea>  (69) 
0

>  <NP_Likeness>  (69) 
-0.134281

$$$$
8M2
     RDKit          3D

  0  0  0  0  0  0  0  0  0  0999 V3000
M  V30 BEGIN CTAB
M  V30 COUNTS 15 15 0 0 0
M  V30 BEGIN ATOM
M  V30 1 S -14.127000 27.348000 -26.141000 0
M  V30 2 N -10.422000 24.164000 -26.379000 0 CHG=1
M  V30 3 N -12.442000 23.109000 -26.436000 0
M  V30 4 C -12.554000 27.782000 -26.697000 0
M  V30 5 C -13.691000 25.708000 -26.003000 0
M  V30 6 C -11.745000 26.701000 -26.760000 0
M  V30 7 C -11.733000 24.209000 -26.388000 0
M  V30 8 C -12.389000 25.484000 -26.367000 0
M  V30 9 H -9.892800 25.011700 -26.342100 0
M  V30 10 H -9.951800 23.282000 -26.409000 0
M  V30 11 H -13.440800 23.157800 -26.442300 0
M  V30 12 H -12.276500 28.711300 -26.940800 0
M  V30 13 H -14.313900 24.990200 -25.691900 0
M  V30 14 H -10.789800 26.746700 -27.052600 0
M  V30 15 H -11.984600 22.220300 -26.466400 0
M  V30 END ATOM
M  V30 BEGIN BOND
M  V30 1 1 1 4
M  V30 2 1 1 5
M  V30 3 2 2 7
M  V30 4 1 3 7
M  V30 5 2 4 6
M  V30 6 2 5 8
M  V30 7 1 6 8
M  V30 8 1 7 8
M  V30 9 1 2 9
M  V30 10 1 2 10
M  V30 11 1 3 11
M  V30 12 1 4 12
M  V30 13 1 5 13
M  V30 14 1 6 14
M  V30 15 1 3 15
M  V30 END BOND
M  V30 END CTAB
M  END
>  <Ligand_Instance>  (70) 
5N3C_8M2_A_401

>  <Dataset>  (70) 
PDB

>  <PDB_ID>  (70) 
5N3C

>  <Chain>  (70) 
A

>  <Resi>  (70) 
401

>  <Num_Resolved_Atoms>  (70) 
8

>  <Num_H_Atoms_ProtBoundConf>  (70) 
7

>  <Pocket>  (70) 
A

>  <Name>  (70) 
[azanyl(thiophen-3-yl)methylidene]azanium

>  <Num_Not_Resolved_Atoms>  (70) 
0

>  <ATP_Site>  (70) 
True

>  <Peripheral>  (70) 
False

>  <Standardized_SMILES>  (70) 
[H]C1=C([H])C(C(N([H])[H])=[N+]([H])[H])=C([H])S1

>  <2D_Mol_H>  (70) 
<rdkit.Chem.rdchem.Mol object at 0x77059d9e5e70>

>  <MW>  (70) 
127.192

>  <HBA>  (70) 
1

>  <HBD>  (70) 
2

>  <LogP>  (70) 
-0.7875

>  <NRB>  (70) 
1

>  <TPSA>  (70) 
51.61

>  <Num_Heavy_Atoms>  (70) 
8

>  <Ro5>  (70) 
[True, True, True, True, True, True]

>  <Ro5_Fulfilled>  (70) 
True

>  <Ro3>  (70) 
[True, True, True, True]

>  <Ro3_Fulfilled>  (70) 
True

>  <Fsp3>  (70) 
0.0

>  <Fsp3_0.42>  (70) 
False

>  <Fsp3_0.45>  (70) 
False

>  <Stereogenic_Carbons>  (70) 
0

>  <C_Atoms>  (70) 
5

>  <FCStereo>  (70) 
0.0

>  <SPS>  (70) 
72

>  <nSPS>  (70) 
9.0

>  <PBF>  (70) 
0.219125

>  <PBF_0.6>  (70) 
False

>  <nPBF>  (70) 
0.027391

>  <nPBF_0.016>  (70) 
True

>  <PMI1>  (70) 
116.371099

>  <PMI2>  (70) 
432.203961

>  <PMI3>  (70) 
541.434703

>  <NPR1>  (70) 
0.214931

>  <NPR2>  (70) 
0.798257

>  <Sum_NPR>  (70) 
1.013188

>  <Sum_NPR_1.07>  (70) 
False

>  <Sum_NPR_1.2>  (70) 
False

>  <MaxAbsEStateIndex>  (70) 
5.259259

>  <MaxEStateIndex>  (70) 
5.259259

>  <MinAbsEStateIndex>  (70) 
0.394676

>  <MinEStateIndex>  (70) 
0.394676

>  <qed>  (70) 
0.376892

>  <MolWt>  (70) 
127.192

>  <HeavyAtomMolWt>  (70) 
120.136

>  <ExactMolWt>  (70) 
127.032446

>  <NumValenceElectrons>  (70) 
42

>  <NumRadicalElectrons>  (70) 
0

>  <MaxPartialCharge>  (70) 
0.271029

>  <MinPartialCharge>  (70) 
-0.287014

>  <MaxAbsPartialCharge>  (70) 
0.287014

>  <MinAbsPartialCharge>  (70) 
0.271029

>  <FpDensityMorgan1>  (70) 
1.75

>  <FpDensityMorgan2>  (70) 
2.5

>  <FpDensityMorgan3>  (70) 
2.75

>  <BCUT2D_MWHI>  (70) 
32.133386

>  <BCUT2D_MWLOW>  (70) 
10.322212

>  <BCUT2D_CHGHI>  (70) 
1.971565

>  <BCUT2D_CHGLO>  (70) 
-1.776241

>  <BCUT2D_LOGPHI>  (70) 
2.016666

>  <BCUT2D_LOGPLOW>  (70) 
-2.453905

>  <BCUT2D_MRHI>  (70) 
7.076797

>  <BCUT2D_MRLOW>  (70) 
-0.113704

>  <AvgIpc>  (70) 
2.115968

>  <BalabanJ>  (70) 
2.928375

>  <BertzCT>  (70) 
178.318557

>  <Chi0>  (70) 
5.983128

>  <Chi0n>  (70) 
4.295

>  <Chi0v>  (70) 
5.111496

>  <Chi1>  (70) 
3.80453

>  <Chi1n>  (70) 
2.209438

>  <Chi1v>  (70) 
3.152247

>  <Chi2n>  (70) 
1.467367

>  <Chi2v>  (70) 
2.2474

>  <Chi3n>  (70) 
0.854509

>  <Chi3v>  (70) 
1.537743

>  <Chi4n>  (70) 
0.428726

>  <Chi4v>  (70) 
1.093729

>  <HallKierAlpha>  (70) 
-0.83

>  <Ipc>  (70) 
93.102593

>  <Kappa1>  (70) 
5.30947

>  <Kappa2>  (70) 
1.961226

>  <Kappa3>  (70) 
0.869202

>  <LabuteASA>  (70) 
51.46195

>  <PEOE_VSA1>  (70) 
0.0

>  <PEOE_VSA10>  (70) 
0.0

>  <PEOE_VSA11>  (70) 
0.0

>  <PEOE_VSA12>  (70) 
0.0

>  <PEOE_VSA13>  (70) 
5.83562

>  <PEOE_VSA14>  (70) 
0.0

>  <PEOE_VSA2>  (70) 
11.142951

>  <PEOE_VSA3>  (70) 
0.0

>  <PEOE_VSA4>  (70) 
11.336786

>  <PEOE_VSA5>  (70) 
0.0

>  <PEOE_VSA6>  (70) 
0.0

>  <PEOE_VSA7>  (70) 
11.44643

>  <PEOE_VSA8>  (70) 
5.380063

>  <PEOE_VSA9>  (70) 
5.563451

>  <SMR_VSA1>  (70) 
5.409284

>  <SMR_VSA10>  (70) 
17.172406

>  <SMR_VSA2>  (70) 
0.0

>  <SMR_VSA3>  (70) 
0.0

>  <SMR_VSA4>  (70) 
5.733667

>  <SMR_VSA5>  (70) 
0.0

>  <SMR_VSA6>  (70) 
0.0

>  <SMR_VSA7>  (70) 
22.389944

>  <SMR_VSA8>  (70) 
0.0

>  <SMR_VSA9>  (70) 
0.0

>  <SlogP_VSA1>  (70) 
11.142951

>  <SlogP_VSA10>  (70) 
0.0

>  <SlogP_VSA11>  (70) 
0.0

>  <SlogP_VSA12>  (70) 
11.336786

>  <SlogP_VSA2>  (70) 
5.83562

>  <SlogP_VSA3>  (70) 
0.0

>  <SlogP_VSA4>  (70) 
0.0

>  <SlogP_VSA5>  (70) 
5.563451

>  <SlogP_VSA6>  (70) 
16.826493

>  <SlogP_VSA7>  (70) 
0.0

>  <SlogP_VSA8>  (70) 
0.0

>  <SlogP_VSA9>  (70) 
0.0

>  <EState_VSA1>  (70) 
0.0

>  <EState_VSA10>  (70) 
0.0

>  <EState_VSA11>  (70) 
0.0

>  <EState_VSA2>  (70) 
0.0

>  <EState_VSA3>  (70) 
5.83562

>  <EState_VSA4>  (70) 
5.563451

>  <EState_VSA5>  (70) 
0.0

>  <EState_VSA6>  (70) 
11.336786

>  <EState_VSA7>  (70) 
16.826493

>  <EState_VSA8>  (70) 
0.0

>  <EState_VSA9>  (70) 
11.142951

>  <VSA_EState1>  (70) 
0.0

>  <VSA_EState10>  (70) 
1.587083

>  <VSA_EState2>  (70) 
0.0

>  <VSA_EState3>  (70) 
9.110833

>  <VSA_EState4>  (70) 
6.185185

>  <VSA_EState5>  (70) 
0.394676

>  <VSA_EState6>  (70) 
1.888889

>  <VSA_EState7>  (70) 
0.0

>  <VSA_EState8>  (70) 
0.0

>  <VSA_EState9>  (70) 
0.0

>  <FractionCSP3>  (70) 
0.0

>  <HeavyAtomCount>  (70) 
8

>  <NHOHCount>  (70) 
4

>  <NOCount>  (70) 
2

>  <NumAliphaticCarbocycles>  (70) 
0

>  <NumAliphaticHeterocycles>  (70) 
0

>  <NumAliphaticRings>  (70) 
0

>  <NumAromaticCarbocycles>  (70) 
0

>  <NumAromaticHeterocycles>  (70) 
1

>  <NumAromaticRings>  (70) 
1

>  <NumHAcceptors>  (70) 
1

>  <NumHDonors>  (70) 
2

>  <NumHeteroatoms>  (70) 
3

>  <NumRotatableBonds>  (70) 
1

>  <NumSaturatedCarbocycles>  (70) 
0

>  <NumSaturatedHeterocycles>  (70) 
0

>  <NumSaturatedRings>  (70) 
0

>  <RingCount>  (70) 
1

>  <MolLogP>  (70) 
-0.7875

>  <MolMR>  (70) 
34.5408

>  <fr_Al_COO>  (70) 
0

>  <fr_Al_OH>  (70) 
0

>  <fr_Al_OH_noTert>  (70) 
0

>  <fr_ArN>  (70) 
0

>  <fr_Ar_COO>  (70) 
0

>  <fr_Ar_N>  (70) 
0

>  <fr_Ar_NH>  (70) 
0

>  <fr_Ar_OH>  (70) 
0

>  <fr_COO>  (70) 
0

>  <fr_COO2>  (70) 
0

>  <fr_C_O>  (70) 
0

>  <fr_C_O_noCOO>  (70) 
0

>  <fr_C_S>  (70) 
0

>  <fr_HOCCN>  (70) 
0

>  <fr_Imine>  (70) 
0

>  <fr_NH0>  (70) 
0

>  <fr_NH1>  (70) 
0

>  <fr_NH2>  (70) 
2

>  <fr_N_O>  (70) 
0

>  <fr_Ndealkylation1>  (70) 
0

>  <fr_Ndealkylation2>  (70) 
0

>  <fr_Nhpyrrole>  (70) 
0

>  <fr_SH>  (70) 
0

>  <fr_aldehyde>  (70) 
0

>  <fr_alkyl_carbamate>  (70) 
0

>  <fr_alkyl_halide>  (70) 
0

>  <fr_allylic_oxid>  (70) 
0

>  <fr_amide>  (70) 
0

>  <fr_amidine>  (70) 
1

>  <fr_aniline>  (70) 
0

>  <fr_aryl_methyl>  (70) 
0

>  <fr_azide>  (70) 
0

>  <fr_azo>  (70) 
0

>  <fr_barbitur>  (70) 
0

>  <fr_benzene>  (70) 
0

>  <fr_benzodiazepine>  (70) 
0

>  <fr_bicyclic>  (70) 
0

>  <fr_diazo>  (70) 
0

>  <fr_dihydropyridine>  (70) 
0

>  <fr_epoxide>  (70) 
0

>  <fr_ester>  (70) 
0

>  <fr_ether>  (70) 
0

>  <fr_furan>  (70) 
0

>  <fr_guanido>  (70) 
0

>  <fr_halogen>  (70) 
0

>  <fr_hdrzine>  (70) 
0

>  <fr_hdrzone>  (70) 
0

>  <fr_imidazole>  (70) 
0

>  <fr_imide>  (70) 
0

>  <fr_isocyan>  (70) 
0

>  <fr_isothiocyan>  (70) 
0

>  <fr_ketone>  (70) 
0

>  <fr_ketone_Topliss>  (70) 
0

>  <fr_lactam>  (70) 
0

>  <fr_lactone>  (70) 
0

>  <fr_methoxy>  (70) 
0

>  <fr_morpholine>  (70) 
0

>  <fr_nitrile>  (70) 
0

>  <fr_nitro>  (70) 
0

>  <fr_nitro_arom>  (70) 
0

>  <fr_nitro_arom_nonortho>  (70) 
0

>  <fr_nitroso>  (70) 
0

>  <fr_oxazole>  (70) 
0

>  <fr_oxime>  (70) 
0

>  <fr_para_hydroxylation>  (70) 
0

>  <fr_phenol>  (70) 
0

>  <fr_phenol_noOrthoHbond>  (70) 
0

>  <fr_phos_acid>  (70) 
0

>  <fr_phos_ester>  (70) 
0

>  <fr_piperdine>  (70) 
0

>  <fr_piperzine>  (70) 
0

>  <fr_priamide>  (70) 
0

>  <fr_prisulfonamd>  (70) 
0

>  <fr_pyridine>  (70) 
0

>  <fr_quatN>  (70) 
0

>  <fr_sulfide>  (70) 
0

>  <fr_sulfonamd>  (70) 
0

>  <fr_sulfone>  (70) 
0

>  <fr_term_acetylene>  (70) 
0

>  <fr_tetrazole>  (70) 
0

>  <fr_thiazole>  (70) 
0

>  <fr_thiocyan>  (70) 
0

>  <fr_thiophene>  (70) 
1

>  <fr_unbrch_alkane>  (70) 
0

>  <fr_urea>  (70) 
0

>  <NP_Likeness>  (70) 
-2.318577

$$$$
8NE
     RDKit          3D

  0  0  0  0  0  0  0  0  0  0999 V3000
M  V30 BEGIN CTAB
M  V30 COUNTS 20 20 0 0 0
M  V30 BEGIN ATOM
M  V30 1 F -11.702000 25.420000 -27.760000 0
M  V30 2 F -12.014000 27.500000 -27.564000 0
M  V30 3 F -10.882000 26.477000 -26.084000 0
M  V30 4 N -16.588000 24.322000 -22.815000 0
M  V30 5 N -16.960000 26.559000 -22.781000 0
M  V30 6 C -15.069000 26.985000 -24.837000 0
M  V30 7 C -14.617000 24.636000 -24.842000 0
M  V30 8 C -14.004000 27.190000 -25.693000 0
M  V30 9 C -13.550000 24.847000 -25.694000 0
M  V30 10 C -16.354000 25.519000 -23.294000 0
M  V30 11 C -15.370000 25.708000 -24.374000 0
M  V30 12 C -13.212000 26.129000 -26.108000 0
M  V30 13 C -11.961000 26.378000 -26.879000 0
M  V30 14 H -16.124800 23.527200 -23.207100 0
M  V30 15 H -17.229800 24.203300 -22.057300 0
M  V30 16 H -15.628600 27.761600 -24.547600 0
M  V30 17 H -14.849800 23.705400 -24.559500 0
M  V30 18 H -13.801600 28.114000 -26.017300 0
M  V30 19 H -13.014200 24.066700 -26.016700 0
M  V30 20 H -16.781400 27.472500 -23.146600 0
M  V30 END ATOM
M  V30 BEGIN BOND
M  V30 1 1 13 1
M  V30 2 1 2 13
M  V30 3 1 3 13
M  V30 4 1 4 10
M  V30 5 2 5 10
M  V30 6 2 6 8
M  V30 7 1 6 11
M  V30 8 1 7 9
M  V30 9 2 7 11
M  V30 10 1 8 12
M  V30 11 2 9 12
M  V30 12 1 10 11
M  V30 13 1 12 13
M  V30 14 1 4 14
M  V30 15 1 4 15
M  V30 16 1 5 20
M  V30 17 1 6 16
M  V30 18 1 7 17
M  V30 19 1 8 18
M  V30 20 1 9 19
M  V30 END BOND
M  V30 END CTAB
M  END
>  <Ligand_Instance>  (71) 
5N3D_8NE_A_401

>  <Dataset>  (71) 
PDB

>  <PDB_ID>  (71) 
5N3D

>  <Chain>  (71) 
A

>  <Resi>  (71) 
401

>  <Num_Resolved_Atoms>  (71) 
13

>  <Num_H_Atoms_ProtBoundConf>  (71) 
7

>  <Pocket>  (71) 
A

>  <Name>  (71) 
[azanyl-[4-(trifluoromethyl)phenyl]methylidene]azanium

>  <Num_Not_Resolved_Atoms>  (71) 
0

>  <ATP_Site>  (71) 
True

>  <Peripheral>  (71) 
False

>  <Standardized_SMILES>  (71) 
[H]/N=C(\C1=C([H])C([H])=C(C(F)(F)F)C([H])=C1[H])N([H])[H]

>  <2D_Mol_H>  (71) 
<rdkit.Chem.rdchem.Mol object at 0x77059d9e5f50>

>  <MW>  (71) 
188.152

>  <HBA>  (71) 
1

>  <HBD>  (71) 
2

>  <LogP>  (71) 
1.98947

>  <NRB>  (71) 
1

>  <TPSA>  (71) 
49.87

>  <Num_Heavy_Atoms>  (71) 
13

>  <Ro5>  (71) 
[True, True, True, True, True, True]

>  <Ro5_Fulfilled>  (71) 
True

>  <Ro3>  (71) 
[True, True, True, True]

>  <Ro3_Fulfilled>  (71) 
True

>  <Fsp3>  (71) 
0.125

>  <Fsp3_0.42>  (71) 
False

>  <Fsp3_0.45>  (71) 
False

>  <Stereogenic_Carbons>  (71) 
0

>  <C_Atoms>  (71) 
8

>  <FCStereo>  (71) 
0.0

>  <SPS>  (71) 
183

>  <nSPS>  (71) 
14.076923

>  <PBF>  (71) 
0.229603

>  <PBF_0.6>  (71) 
False

>  <nPBF>  (71) 
0.017662

>  <nPBF_0.016>  (71) 
True

>  <PMI1>  (71) 
220.6268

>  <PMI2>  (71) 
1316.461718

>  <PMI3>  (71) 
1442.509396

>  <NPR1>  (71) 
0.152947

>  <NPR2>  (71) 
0.912619

>  <Sum_NPR>  (71) 
1.065566

>  <Sum_NPR_1.07>  (71) 
False

>  <Sum_NPR_1.2>  (71) 
False

>  <MaxAbsEStateIndex>  (71) 
12.104043

>  <MaxEStateIndex>  (71) 
12.104043

>  <MinAbsEStateIndex>  (71) 
0.112292

>  <MinEStateIndex>  (71) 
-4.355755

>  <qed>  (71) 
0.51349

>  <MolWt>  (71) 
188.152

>  <HeavyAtomMolWt>  (71) 
181.096

>  <ExactMolWt>  (71) 
188.056133

>  <NumValenceElectrons>  (71) 
70

>  <NumRadicalElectrons>  (71) 
0

>  <MaxPartialCharge>  (71) 
0.41591

>  <MinPartialCharge>  (71) 
-0.383682

>  <MaxAbsPartialCharge>  (71) 
0.41591

>  <MinAbsPartialCharge>  (71) 
0.383682

>  <FpDensityMorgan1>  (71) 
1.307692

>  <FpDensityMorgan2>  (71) 
1.846154

>  <FpDensityMorgan3>  (71) 
2.230769

>  <BCUT2D_MWHI>  (71) 
19.413169

>  <BCUT2D_MWLOW>  (71) 
0.931261

>  <BCUT2D_CHGHI>  (71) 
2.294302

>  <BCUT2D_CHGLO>  (71) 
-2.063647

>  <BCUT2D_LOGPHI>  (71) 
2.284305

>  <BCUT2D_LOGPLOW>  (71) 
-2.132098

>  <BCUT2D_MRHI>  (71) 
5.947928

>  <BCUT2D_MRLOW>  (71) 
-0.137131

>  <AvgIpc>  (71) 
2.154137

>  <BalabanJ>  (71) 
3.010942

>  <BertzCT>  (71) 
342.599179

>  <Chi0>  (71) 
10.767585

>  <Chi0n>  (71) 
7.467858

>  <Chi0v>  (71) 
6.467858

>  <Chi1>  (71) 
6.447707

>  <Chi1n>  (71) 
3.847809

>  <Chi1v>  (71) 
3.400596

>  <Chi2n>  (71) 
2.46035

>  <Chi2v>  (71) 
2.46035

>  <Chi3n>  (71) 
1.507993

>  <Chi3v>  (71) 
1.507993

>  <Chi4n>  (71) 
0.829971

>  <Chi4v>  (71) 
0.829971

>  <HallKierAlpha>  (71) 
-1.52

>  <Ipc>  (71) 
1102.91795

>  <Kappa1>  (71) 
8.095344

>  <Kappa2>  (71) 
3.082443

>  <Kappa3>  (71) 
2.206729

>  <LabuteASA>  (71) 
74.146162

>  <PEOE_VSA1>  (71) 
5.733667

>  <PEOE_VSA10>  (71) 
5.83562

>  <PEOE_VSA11>  (71) 
1.411842

>  <PEOE_VSA12>  (71) 
0.0

>  <PEOE_VSA13>  (71) 
0.0

>  <PEOE_VSA14>  (71) 
6.176299

>  <PEOE_VSA2>  (71) 
5.402308

>  <PEOE_VSA3>  (71) 
0.0

>  <PEOE_VSA4>  (71) 
13.171245

>  <PEOE_VSA5>  (71) 
0.0

>  <PEOE_VSA6>  (71) 
12.132734

>  <PEOE_VSA7>  (71) 
12.132734

>  <PEOE_VSA8>  (71) 
5.563451

>  <PEOE_VSA9>  (71) 
5.563451

>  <SMR_VSA1>  (71) 
14.583087

>  <SMR_VSA10>  (71) 
5.83562

>  <SMR_VSA2>  (71) 
5.402308

>  <SMR_VSA3>  (71) 
0.0

>  <SMR_VSA4>  (71) 
5.733667

>  <SMR_VSA5>  (71) 
6.176299

>  <SMR_VSA6>  (71) 
0.0

>  <SMR_VSA7>  (71) 
35.392371

>  <SMR_VSA8>  (71) 
0.0

>  <SMR_VSA9>  (71) 
0.0

>  <SlogP_VSA1>  (71) 
5.733667

>  <SlogP_VSA10>  (71) 
13.171245

>  <SlogP_VSA11>  (71) 
0.0

>  <SlogP_VSA12>  (71) 
0.0

>  <SlogP_VSA2>  (71) 
5.83562

>  <SlogP_VSA3>  (71) 
6.176299

>  <SlogP_VSA4>  (71) 
5.402308

>  <SlogP_VSA5>  (71) 
11.126903

>  <SlogP_VSA6>  (71) 
24.265468

>  <SlogP_VSA7>  (71) 
1.411842

>  <SlogP_VSA8>  (71) 
0.0

>  <SlogP_VSA9>  (71) 
0.0

>  <EState_VSA1>  (71) 
11.73975

>  <EState_VSA10>  (71) 
13.171245

>  <EState_VSA11>  (71) 
0.0

>  <EState_VSA2>  (71) 
5.83562

>  <EState_VSA3>  (71) 
5.563451

>  <EState_VSA4>  (71) 
12.132734

>  <EState_VSA5>  (71) 
12.132734

>  <EState_VSA6>  (71) 
0.0

>  <EState_VSA7>  (71) 
0.0

>  <EState_VSA8>  (71) 
5.402308

>  <EState_VSA9>  (71) 
7.14551

>  <VSA_EState1>  (71) 
42.87551

>  <VSA_EState10>  (71) 
0.0

>  <VSA_EState2>  (71) 
0.0

>  <VSA_EState3>  (71) 
2.913747

>  <VSA_EState4>  (71) 
4.782817

>  <VSA_EState5>  (71) 
-0.112292

>  <VSA_EState6>  (71) 
4.145972

>  <VSA_EState7>  (71) 
-4.355755

>  <VSA_EState8>  (71) 
0.0

>  <VSA_EState9>  (71) 
0.0

>  <FractionCSP3>  (71) 
0.125

>  <HeavyAtomCount>  (71) 
13

>  <NHOHCount>  (71) 
3

>  <NOCount>  (71) 
2

>  <NumAliphaticCarbocycles>  (71) 
0

>  <NumAliphaticHeterocycles>  (71) 
0

>  <NumAliphaticRings>  (71) 
0

>  <NumAromaticCarbocycles>  (71) 
1

>  <NumAromaticHeterocycles>  (71) 
0

>  <NumAromaticRings>  (71) 
1

>  <NumHAcceptors>  (71) 
1

>  <NumHDonors>  (71) 
2

>  <NumHeteroatoms>  (71) 
5

>  <NumRotatableBonds>  (71) 
1

>  <NumSaturatedCarbocycles>  (71) 
0

>  <NumSaturatedHeterocycles>  (71) 
0

>  <NumSaturatedRings>  (71) 
0

>  <RingCount>  (71) 
1

>  <MolLogP>  (71) 
1.98947

>  <MolMR>  (71) 
42.4601

>  <fr_Al_COO>  (71) 
0

>  <fr_Al_OH>  (71) 
0

>  <fr_Al_OH_noTert>  (71) 
0

>  <fr_ArN>  (71) 
1

>  <fr_Ar_COO>  (71) 
0

>  <fr_Ar_N>  (71) 
0

>  <fr_Ar_NH>  (71) 
0

>  <fr_Ar_OH>  (71) 
0

>  <fr_COO>  (71) 
0

>  <fr_COO2>  (71) 
0

>  <fr_C_O>  (71) 
0

>  <fr_C_O_noCOO>  (71) 
0

>  <fr_C_S>  (71) 
0

>  <fr_HOCCN>  (71) 
0

>  <fr_Imine>  (71) 
0

>  <fr_NH0>  (71) 
0

>  <fr_NH1>  (71) 
1

>  <fr_NH2>  (71) 
1

>  <fr_N_O>  (71) 
0

>  <fr_Ndealkylation1>  (71) 
0

>  <fr_Ndealkylation2>  (71) 
0

>  <fr_Nhpyrrole>  (71) 
0

>  <fr_SH>  (71) 
0

>  <fr_aldehyde>  (71) 
0

>  <fr_alkyl_carbamate>  (71) 
0

>  <fr_alkyl_halide>  (71) 
3

>  <fr_allylic_oxid>  (71) 
0

>  <fr_amide>  (71) 
0

>  <fr_amidine>  (71) 
1

>  <fr_aniline>  (71) 
0

>  <fr_aryl_methyl>  (71) 
0

>  <fr_azide>  (71) 
0

>  <fr_azo>  (71) 
0

>  <fr_barbitur>  (71) 
0

>  <fr_benzene>  (71) 
1

>  <fr_benzodiazepine>  (71) 
0

>  <fr_bicyclic>  (71) 
0

>  <fr_diazo>  (71) 
0

>  <fr_dihydropyridine>  (71) 
0

>  <fr_epoxide>  (71) 
0

>  <fr_ester>  (71) 
0

>  <fr_ether>  (71) 
0

>  <fr_furan>  (71) 
0

>  <fr_guanido>  (71) 
0

>  <fr_halogen>  (71) 
3

>  <fr_hdrzine>  (71) 
0

>  <fr_hdrzone>  (71) 
0

>  <fr_imidazole>  (71) 
0

>  <fr_imide>  (71) 
0

>  <fr_isocyan>  (71) 
0

>  <fr_isothiocyan>  (71) 
0

>  <fr_ketone>  (71) 
0

>  <fr_ketone_Topliss>  (71) 
0

>  <fr_lactam>  (71) 
0

>  <fr_lactone>  (71) 
0

>  <fr_methoxy>  (71) 
0

>  <fr_morpholine>  (71) 
0

>  <fr_nitrile>  (71) 
0

>  <fr_nitro>  (71) 
0

>  <fr_nitro_arom>  (71) 
0

>  <fr_nitro_arom_nonortho>  (71) 
0

>  <fr_nitroso>  (71) 
0

>  <fr_oxazole>  (71) 
0

>  <fr_oxime>  (71) 
0

>  <fr_para_hydroxylation>  (71) 
0

>  <fr_phenol>  (71) 
0

>  <fr_phenol_noOrthoHbond>  (71) 
0

>  <fr_phos_acid>  (71) 
0

>  <fr_phos_ester>  (71) 
0

>  <fr_piperdine>  (71) 
0

>  <fr_piperzine>  (71) 
0

>  <fr_priamide>  (71) 
0

>  <fr_prisulfonamd>  (71) 
0

>  <fr_pyridine>  (71) 
0

>  <fr_quatN>  (71) 
0

>  <fr_sulfide>  (71) 
0

>  <fr_sulfonamd>  (71) 
0

>  <fr_sulfone>  (71) 
0

>  <fr_term_acetylene>  (71) 
0

>  <fr_tetrazole>  (71) 
0

>  <fr_thiazole>  (71) 
0

>  <fr_thiocyan>  (71) 
0

>  <fr_thiophene>  (71) 
0

>  <fr_unbrch_alkane>  (71) 
0

>  <fr_urea>  (71) 
0

>  <NP_Likeness>  (71) 
-0.804157

$$$$
8PQ
     RDKit          3D

  0  0  0  0  0  0  0  0  0  0999 V3000
M  V30 BEGIN CTAB
M  V30 COUNTS 15 15 0 0 0
M  V30 BEGIN ATOM
M  V30 1 Br 132.905000 27.677000 23.653000 0
M  V30 2 N 130.650000 24.957000 25.459000 0
M  V30 3 N 131.465000 24.107000 24.737000 0
M  V30 4 C 130.284000 27.356000 25.999000 0
M  V30 5 C 133.280000 24.398000 23.077000 0
M  V30 6 C 132.025000 26.240000 24.415000 0
M  V30 7 C 130.987000 26.242000 25.290000 0
M  V30 8 C 132.303000 24.918000 24.085000 0
M  V30 9 H 129.896600 24.648900 26.039900 0
M  V30 10 H 130.690200 28.229900 25.731900 0
M  V30 11 H 129.315000 27.349400 25.751900 0
M  V30 12 H 130.376900 27.233400 26.987100 0
M  V30 13 H 133.811800 25.158800 22.704900 0
M  V30 14 H 133.896000 23.744200 23.516300 0
M  V30 15 H 132.784900 23.943700 22.336400 0
M  V30 END ATOM
M  V30 BEGIN BOND
M  V30 1 1 1 6
M  V30 2 1 2 3
M  V30 3 1 2 7
M  V30 4 2 3 8
M  V30 5 1 4 7
M  V30 6 1 5 8
M  V30 7 2 6 7
M  V30 8 1 6 8
M  V30 9 1 2 9
M  V30 10 1 4 10
M  V30 11 1 4 11
M  V30 12 1 4 12
M  V30 13 1 5 13
M  V30 14 1 5 14
M  V30 15 1 5 15
M  V30 END BOND
M  V30 END CTAB
M  END
>  <Ligand_Instance>  (72) 
5N7U_8PQ_A_402

>  <Dataset>  (72) 
PDB

>  <PDB_ID>  (72) 
5N7U

>  <Chain>  (72) 
A

>  <Resi>  (72) 
402

>  <Num_Resolved_Atoms>  (72) 
8

>  <Num_H_Atoms_ProtBoundConf>  (72) 
7

>  <Pocket>  (72) 
A

>  <Name>  (72) 
4-bromanyl-3,5-dimethyl-1~{H}-pyrazole

>  <Num_Not_Resolved_Atoms>  (72) 
0

>  <ATP_Site>  (72) 
True

>  <Peripheral>  (72) 
False

>  <Standardized_SMILES>  (72) 
[H]N1N=C(C([H])([H])[H])C(Br)=C1C([H])([H])[H]

>  <2D_Mol_H>  (72) 
<rdkit.Chem.rdchem.Mol object at 0x77059d9e6030>

>  <MW>  (72) 
175.029

>  <HBA>  (72) 
1

>  <HBD>  (72) 
1

>  <LogP>  (72) 
1.78904

>  <NRB>  (72) 
2

>  <TPSA>  (72) 
28.68

>  <Num_Heavy_Atoms>  (72) 
8

>  <Ro5>  (72) 
[True, True, True, True, True, True]

>  <Ro5_Fulfilled>  (72) 
True

>  <Ro3>  (72) 
[True, True, True, True]

>  <Ro3_Fulfilled>  (72) 
True

>  <Fsp3>  (72) 
0.4

>  <Fsp3_0.42>  (72) 
False

>  <Fsp3_0.45>  (72) 
False

>  <Stereogenic_Carbons>  (72) 
0

>  <C_Atoms>  (72) 
5

>  <FCStereo>  (72) 
0.0

>  <SPS>  (72) 
79

>  <nSPS>  (72) 
9.875

>  <PBF>  (72) 
0.237824

>  <PBF_0.6>  (72) 
False

>  <nPBF>  (72) 
0.029728

>  <nPBF_0.016>  (72) 
True

>  <PMI1>  (72) 
254.725397

>  <PMI2>  (72) 
412.74765

>  <PMI3>  (72) 
661.916422

>  <NPR1>  (72) 
0.38483

>  <NPR2>  (72) 
0.623565

>  <Sum_NPR>  (72) 
1.008395

>  <Sum_NPR_1.07>  (72) 
False

>  <Sum_NPR_1.2>  (72) 
False

>  <MaxAbsEStateIndex>  (72) 
3.943866

>  <MaxEStateIndex>  (72) 
3.943866

>  <MinAbsEStateIndex>  (72) 
1.016204

>  <MinEStateIndex>  (72) 
1.016204

>  <qed>  (72) 
0.639154

>  <MolWt>  (72) 
175.029

>  <HeavyAtomMolWt>  (72) 
167.973

>  <ExactMolWt>  (72) 
173.97926

>  <NumValenceElectrons>  (72) 
44

>  <NumRadicalElectrons>  (72) 
0

>  <MaxPartialCharge>  (72) 
0.073556

>  <MinPartialCharge>  (72) 
-0.281418

>  <MaxAbsPartialCharge>  (72) 
0.281418

>  <MinAbsPartialCharge>  (72) 
0.073556

>  <FpDensityMorgan1>  (72) 
1.5

>  <FpDensityMorgan2>  (72) 
2.125

>  <FpDensityMorgan3>  (72) 
2.25

>  <BCUT2D_MWHI>  (72) 
79.918731

>  <BCUT2D_MWLOW>  (72) 
10.403264

>  <BCUT2D_CHGHI>  (72) 
1.981513

>  <BCUT2D_CHGLO>  (72) 
-1.805846

>  <BCUT2D_LOGPHI>  (72) 
2.15276

>  <BCUT2D_LOGPLOW>  (72) 
-1.675411

>  <BCUT2D_MRHI>  (72) 
9.103408

>  <BCUT2D_MRLOW>  (72) 
1.016392

>  <AvgIpc>  (72) 
1.984343

>  <BalabanJ>  (72) 
3.194946

>  <BertzCT>  (72) 
172.808782

>  <Chi0>  (72) 
6.146264

>  <Chi0n>  (72) 
4.825178

>  <Chi0v>  (72) 
6.411175

>  <Chi1>  (72) 
3.715214

>  <Chi1n>  (72) 
2.386196

>  <Chi1v>  (72) 
3.179194

>  <Chi2n>  (72) 
1.747999

>  <Chi2v>  (72) 
2.540998

>  <Chi3n>  (72) 
1.038199

>  <Chi3v>  (72) 
2.206767

>  <Chi4n>  (72) 
0.537217

>  <Chi4v>  (72) 
0.714537

>  <HallKierAlpha>  (72) 
-0.31

>  <Ipc>  (72) 
75.405052

>  <Kappa1>  (72) 
5.820039

>  <Kappa2>  (72) 
1.895375

>  <Kappa3>  (72) 
0.777203

>  <LabuteASA>  (72) 
56.426097

>  <PEOE_VSA1>  (72) 
0.0

>  <PEOE_VSA10>  (72) 
0.0

>  <PEOE_VSA11>  (72) 
0.0

>  <PEOE_VSA12>  (72) 
0.0

>  <PEOE_VSA13>  (72) 
0.0

>  <PEOE_VSA14>  (72) 
0.0

>  <PEOE_VSA2>  (72) 
5.098682

>  <PEOE_VSA3>  (72) 
0.0

>  <PEOE_VSA4>  (72) 
5.098682

>  <PEOE_VSA5>  (72) 
0.0

>  <PEOE_VSA6>  (72) 
0.0

>  <PEOE_VSA7>  (72) 
29.777418

>  <PEOE_VSA8>  (72) 
5.693928

>  <PEOE_VSA9>  (72) 
10.166648

>  <SMR_VSA1>  (72) 
0.0

>  <SMR_VSA10>  (72) 
15.929944

>  <SMR_VSA2>  (72) 
0.0

>  <SMR_VSA3>  (72) 
10.197364

>  <SMR_VSA4>  (72) 
0.0

>  <SMR_VSA5>  (72) 
13.847474

>  <SMR_VSA6>  (72) 
0.0

>  <SMR_VSA7>  (72) 
15.860576

>  <SMR_VSA8>  (72) 
0.0

>  <SMR_VSA9>  (72) 
0.0

>  <SlogP_VSA1>  (72) 
0.0

>  <SlogP_VSA10>  (72) 
0.0

>  <SlogP_VSA11>  (72) 
0.0

>  <SlogP_VSA12>  (72) 
15.929944

>  <SlogP_VSA2>  (72) 
10.197364

>  <SlogP_VSA3>  (72) 
0.0

>  <SlogP_VSA4>  (72) 
13.847474

>  <SlogP_VSA5>  (72) 
11.387856

>  <SlogP_VSA6>  (72) 
4.47272

>  <SlogP_VSA7>  (72) 
0.0

>  <SlogP_VSA8>  (72) 
0.0

>  <SlogP_VSA9>  (72) 
0.0

>  <EState_VSA1>  (72) 
0.0

>  <EState_VSA10>  (72) 
0.0

>  <EState_VSA11>  (72) 
0.0

>  <EState_VSA2>  (72) 
0.0

>  <EState_VSA3>  (72) 
0.0

>  <EState_VSA4>  (72) 
15.860576

>  <EState_VSA5>  (72) 
0.0

>  <EState_VSA6>  (72) 
0.0

>  <EState_VSA7>  (72) 
13.847474

>  <EState_VSA8>  (72) 
26.127308

>  <EState_VSA9>  (72) 
0.0

>  <VSA_EState1>  (72) 
1.081019

>  <VSA_EState10>  (72) 
3.355324

>  <VSA_EState2>  (72) 
0.0

>  <VSA_EState3>  (72) 
6.783565

>  <VSA_EState4>  (72) 
2.101852

>  <VSA_EState5>  (72) 
0.0

>  <VSA_EState6>  (72) 
0.0

>  <VSA_EState7>  (72) 
0.0

>  <VSA_EState8>  (72) 
3.928241

>  <VSA_EState9>  (72) 
0.0

>  <FractionCSP3>  (72) 
0.4

>  <HeavyAtomCount>  (72) 
8

>  <NHOHCount>  (72) 
1

>  <NOCount>  (72) 
2

>  <NumAliphaticCarbocycles>  (72) 
0

>  <NumAliphaticHeterocycles>  (72) 
0

>  <NumAliphaticRings>  (72) 
0

>  <NumAromaticCarbocycles>  (72) 
0

>  <NumAromaticHeterocycles>  (72) 
1

>  <NumAromaticRings>  (72) 
1

>  <NumHAcceptors>  (72) 
1

>  <NumHDonors>  (72) 
1

>  <NumHeteroatoms>  (72) 
3

>  <NumRotatableBonds>  (72) 
0

>  <NumSaturatedCarbocycles>  (72) 
0

>  <NumSaturatedHeterocycles>  (72) 
0

>  <NumSaturatedRings>  (72) 
0

>  <RingCount>  (72) 
1

>  <MolLogP>  (72) 
1.78904

>  <MolMR>  (72) 
35.7617

>  <fr_Al_COO>  (72) 
0

>  <fr_Al_OH>  (72) 
0

>  <fr_Al_OH_noTert>  (72) 
0

>  <fr_ArN>  (72) 
0

>  <fr_Ar_COO>  (72) 
0

>  <fr_Ar_N>  (72) 
2

>  <fr_Ar_NH>  (72) 
1

>  <fr_Ar_OH>  (72) 
0

>  <fr_COO>  (72) 
0

>  <fr_COO2>  (72) 
0

>  <fr_C_O>  (72) 
0

>  <fr_C_O_noCOO>  (72) 
0

>  <fr_C_S>  (72) 
0

>  <fr_HOCCN>  (72) 
0

>  <fr_Imine>  (72) 
0

>  <fr_NH0>  (72) 
1

>  <fr_NH1>  (72) 
1

>  <fr_NH2>  (72) 
0

>  <fr_N_O>  (72) 
0

>  <fr_Ndealkylation1>  (72) 
0

>  <fr_Ndealkylation2>  (72) 
0

>  <fr_Nhpyrrole>  (72) 
1

>  <fr_SH>  (72) 
0

>  <fr_aldehyde>  (72) 
0

>  <fr_alkyl_carbamate>  (72) 
0

>  <fr_alkyl_halide>  (72) 
0

>  <fr_allylic_oxid>  (72) 
0

>  <fr_amide>  (72) 
0

>  <fr_amidine>  (72) 
0

>  <fr_aniline>  (72) 
0

>  <fr_aryl_methyl>  (72) 
2

>  <fr_azide>  (72) 
0

>  <fr_azo>  (72) 
0

>  <fr_barbitur>  (72) 
0

>  <fr_benzene>  (72) 
0

>  <fr_benzodiazepine>  (72) 
0

>  <fr_bicyclic>  (72) 
0

>  <fr_diazo>  (72) 
0

>  <fr_dihydropyridine>  (72) 
0

>  <fr_epoxide>  (72) 
0

>  <fr_ester>  (72) 
0

>  <fr_ether>  (72) 
0

>  <fr_furan>  (72) 
0

>  <fr_guanido>  (72) 
0

>  <fr_halogen>  (72) 
1

>  <fr_hdrzine>  (72) 
0

>  <fr_hdrzone>  (72) 
0

>  <fr_imidazole>  (72) 
0

>  <fr_imide>  (72) 
0

>  <fr_isocyan>  (72) 
0

>  <fr_isothiocyan>  (72) 
0

>  <fr_ketone>  (72) 
0

>  <fr_ketone_Topliss>  (72) 
0

>  <fr_lactam>  (72) 
0

>  <fr_lactone>  (72) 
0

>  <fr_methoxy>  (72) 
0

>  <fr_morpholine>  (72) 
0

>  <fr_nitrile>  (72) 
0

>  <fr_nitro>  (72) 
0

>  <fr_nitro_arom>  (72) 
0

>  <fr_nitro_arom_nonortho>  (72) 
0

>  <fr_nitroso>  (72) 
0

>  <fr_oxazole>  (72) 
0

>  <fr_oxime>  (72) 
0

>  <fr_para_hydroxylation>  (72) 
0

>  <fr_phenol>  (72) 
0

>  <fr_phenol_noOrthoHbond>  (72) 
0

>  <fr_phos_acid>  (72) 
0

>  <fr_phos_ester>  (72) 
0

>  <fr_piperdine>  (72) 
0

>  <fr_piperzine>  (72) 
0

>  <fr_priamide>  (72) 
0

>  <fr_prisulfonamd>  (72) 
0

>  <fr_pyridine>  (72) 
0

>  <fr_quatN>  (72) 
0

>  <fr_sulfide>  (72) 
0

>  <fr_sulfonamd>  (72) 
0

>  <fr_sulfone>  (72) 
0

>  <fr_term_acetylene>  (72) 
0

>  <fr_tetrazole>  (72) 
0

>  <fr_thiazole>  (72) 
0

>  <fr_thiocyan>  (72) 
0

>  <fr_thiophene>  (72) 
0

>  <fr_unbrch_alkane>  (72) 
0

>  <fr_urea>  (72) 
0

>  <NP_Likeness>  (72) 
-1.886826

$$$$
9CY
     RDKit          3D

  0  0  0  0  0  0  0  0  0  0999 V3000
M  V30 BEGIN CTAB
M  V30 COUNTS 45 47 0 0 0
M  V30 BEGIN ATOM
M  V30 1 O -24.059000 7.925000 0.965000 0
M  V30 2 O -26.079000 9.991000 -1.117000 0
M  V30 3 N -33.767000 9.965000 4.110000 0
M  V30 4 N -25.008000 10.447000 0.904000 0
M  V30 5 C -23.111000 8.965000 1.116000 0
M  V30 6 C -33.647000 9.885000 2.760000 0
M  V30 7 C -32.639000 10.138000 4.829000 0
M  V30 8 C -22.912000 15.055000 -1.141000 0
M  V30 9 C -23.699000 14.861000 -0.023000 0
M  V30 10 C -22.107000 14.020000 -1.591000 0
M  V30 11 C -32.431000 9.952000 2.085000 0
M  V30 12 C -31.366000 10.256000 4.226000 0
M  V30 13 C -23.654000 13.671000 0.678000 0
M  V30 14 C -22.090000 12.812000 -0.929000 0
M  V30 15 C -28.586000 10.628000 0.134000 0
M  V30 16 C -27.552000 9.782000 2.147000 0
M  V30 17 C -29.825000 10.636000 0.808000 0
M  V30 18 C -28.763000 9.789000 2.810000 0
M  V30 19 C -22.693000 11.419000 0.994000 0
M  V30 20 C -26.139000 10.154000 0.101000 0
M  V30 21 C -23.603000 10.281000 0.459000 0 CFG=2
M  V30 22 C -22.839000 12.632000 0.215000 0
M  V30 23 C -27.455000 10.203000 0.814000 0
M  V30 24 C -31.259000 10.151000 2.831000 0
M  V30 25 C -29.925000 10.212000 2.138000 0
M  V30 26 H -23.875200 7.426900 0.117600 0
M  V30 27 H -25.167900 10.787700 1.830500 0
M  V30 28 H -22.252500 8.687500 0.684800 0
M  V30 29 H -22.957500 9.126000 2.091000 0
M  V30 30 H -34.480300 9.771400 2.219000 0
M  V30 31 H -32.705800 10.184500 5.825700 0
M  V30 32 H -22.922700 15.932400 -1.620700 0
M  V30 33 H -24.309500 15.591300 0.283400 0
M  V30 34 H -21.535300 14.151000 -2.400900 0
M  V30 35 H -32.393600 9.860300 1.089900 0
M  V30 36 H -30.552500 10.412200 4.786200 0
M  V30 37 H -24.198700 13.553400 1.508300 0
M  V30 38 H -21.531000 12.060800 -1.280200 0
M  V30 39 H -28.524300 10.924200 -0.819100 0
M  V30 40 H -26.730800 9.471500 2.625800 0
M  V30 41 H -30.644500 10.949400 0.328200 0
M  V30 42 H -28.814300 9.494600 3.764300 0
M  V30 43 H -21.740000 11.119100 0.951500 0
M  V30 44 H -22.939600 11.612000 1.943700 0
M  V30 45 H -23.550200 10.222300 -0.537900 0
M  V30 END ATOM
M  V30 BEGIN BOND
M  V30 1 1 1 5
M  V30 2 2 2 20
M  V30 3 2 3 6
M  V30 4 1 3 7
M  V30 5 1 4 20
M  V30 6 1 4 21
M  V30 7 1 5 21
M  V30 8 1 6 11
M  V30 9 2 7 12
M  V30 10 2 8 9
M  V30 11 1 8 10
M  V30 12 1 9 13
M  V30 13 2 10 14
M  V30 14 2 11 24
M  V30 15 1 12 24
M  V30 16 2 13 22
M  V30 17 1 14 22
M  V30 18 2 15 17
M  V30 19 1 15 23
M  V30 20 1 16 18
M  V30 21 2 16 23
M  V30 22 1 17 25
M  V30 23 2 18 25
M  V30 24 1 19 21
M  V30 25 1 19 22
M  V30 26 1 20 23
M  V30 27 1 24 25
M  V30 28 1 1 26
M  V30 29 1 4 27
M  V30 30 1 5 28
M  V30 31 1 5 29
M  V30 32 1 6 30
M  V30 33 1 7 31
M  V30 34 1 8 32
M  V30 35 1 9 33
M  V30 36 1 10 34
M  V30 37 1 11 35
M  V30 38 1 12 36
M  V30 39 1 13 37
M  V30 40 1 14 38
M  V30 41 1 15 39
M  V30 42 1 16 40
M  V30 43 1 17 41
M  V30 44 1 18 42
M  V30 45 1 19 43
M  V30 46 1 19 44
M  V30 47 1 21 45 CFG=3
M  V30 END BOND
M  V30 END CTAB
M  END
>  <Ligand_Instance>  (73) 
5VHB_9CY_A_401

>  <Dataset>  (73) 
PDB

>  <PDB_ID>  (73) 
5VHB

>  <Chain>  (73) 
A

>  <Resi>  (73) 
401

>  <Num_Resolved_Atoms>  (73) 
25

>  <Num_H_Atoms_ProtBoundConf>  (73) 
20

>  <Pocket>  (73) 
A

>  <Name>  (73) 
N-[(2S)-1-hydroxy-3-phenylpropan-2-yl]-4-(pyridin-4-yl)benzamide

>  <Num_Not_Resolved_Atoms>  (73) 
0

>  <ATP_Site>  (73) 
True

>  <Peripheral>  (73) 
False

>  <Standardized_SMILES>  (73) 
[H]OC([H])([H])[C@@]([H])(N([H])C(=O)C1=C([H])C([H])=C(C2=C([H])C([H])=NC([H])=C2[H])C([H])=C1[H])C([H])([H])C1=C([H])C([H])=C([H])C([H])=C1[H]

>  <2D_Mol_H>  (73) 
<rdkit.Chem.rdchem.Mol object at 0x77059d9e6110>

>  <MW>  (73) 
332.403

>  <HBA>  (73) 
3

>  <HBD>  (73) 
2

>  <LogP>  (73) 
3.082

>  <NRB>  (73) 
7

>  <TPSA>  (73) 
62.22

>  <Num_Heavy_Atoms>  (73) 
25

>  <Ro5>  (73) 
[True, True, True, True, True, True]

>  <Ro5_Fulfilled>  (73) 
True

>  <Ro3>  (73) 
[False, True, True, False]

>  <Ro3_Fulfilled>  (73) 
False

>  <Fsp3>  (73) 
0.142857

>  <Fsp3_0.42>  (73) 
False

>  <Fsp3_0.45>  (73) 
False

>  <Stereogenic_Carbons>  (73) 
1

>  <C_Atoms>  (73) 
21

>  <FCStereo>  (73) 
0.047619

>  <SPS>  (73) 
293

>  <nSPS>  (73) 
11.72

>  <PBF>  (73) 
0.993955

>  <PBF_0.6>  (73) 
True

>  <nPBF>  (73) 
0.039758

>  <nPBF_0.016>  (73) 
True

>  <PMI1>  (73) 
1135.879443

>  <PMI2>  (73) 
6226.810613

>  <PMI3>  (73) 
6737.268985

>  <NPR1>  (73) 
0.168596

>  <NPR2>  (73) 
0.924234

>  <Sum_NPR>  (73) 
1.09283

>  <Sum_NPR_1.07>  (73) 
True

>  <Sum_NPR_1.2>  (73) 
False

>  <MaxAbsEStateIndex>  (73) 
12.419777

>  <MaxEStateIndex>  (73) 
12.419777

>  <MinAbsEStateIndex>  (73) 
0.101455

>  <MinEStateIndex>  (73) 
-0.310394

>  <qed>  (73) 
0.729068

>  <MolWt>  (73) 
332.403

>  <HeavyAtomMolWt>  (73) 
312.243

>  <ExactMolWt>  (73) 
332.152478

>  <NumValenceElectrons>  (73) 
126

>  <NumRadicalElectrons>  (73) 
0

>  <MaxPartialCharge>  (73) 
0.251085

>  <MinPartialCharge>  (73) 
-0.39423

>  <MaxAbsPartialCharge>  (73) 
0.39423

>  <MinAbsPartialCharge>  (73) 
0.251085

>  <FpDensityMorgan1>  (73) 
0.92

>  <FpDensityMorgan2>  (73) 
1.56

>  <FpDensityMorgan3>  (73) 
2.2

>  <BCUT2D_MWHI>  (73) 
16.252828

>  <BCUT2D_MWLOW>  (73) 
10.036379

>  <BCUT2D_CHGHI>  (73) 
2.133969

>  <BCUT2D_CHGLO>  (73) 
-2.163319

>  <BCUT2D_LOGPHI>  (73) 
2.183165

>  <BCUT2D_LOGPLOW>  (73) 
-2.385989

>  <BCUT2D_MRHI>  (73) 
5.944576

>  <BCUT2D_MRLOW>  (73) 
0.091627

>  <AvgIpc>  (73) 
2.687437

>  <BalabanJ>  (73) 
1.656516

>  <BertzCT>  (73) 
802.31931

>  <Chi0>  (73) 
17.484917

>  <Chi0n>  (73) 
13.799793

>  <Chi0v>  (73) 
13.799793

>  <Chi1>  (73) 
12.258351

>  <Chi1n>  (73) 
8.221543

>  <Chi1v>  (73) 
8.221543

>  <Chi2n>  (73) 
5.855921

>  <Chi2v>  (73) 
5.855921

>  <Chi3n>  (73) 
4.041274

>  <Chi3v>  (73) 
4.041274

>  <Chi4n>  (73) 
2.686981

>  <Chi4v>  (73) 
2.686981

>  <HallKierAlpha>  (73) 
-2.98

>  <Ipc>  (73) 
696411.760187

>  <Kappa1>  (73) 
16.863073

>  <Kappa2>  (73) 
8.217093

>  <Kappa3>  (73) 
4.519209

>  <LabuteASA>  (73) 
146.730626

>  <PEOE_VSA1>  (73) 
10.423316

>  <PEOE_VSA10>  (73) 
0.0

>  <PEOE_VSA11>  (73) 
0.0

>  <PEOE_VSA12>  (73) 
0.0

>  <PEOE_VSA13>  (73) 
5.90718

>  <PEOE_VSA14>  (73) 
0.0

>  <PEOE_VSA2>  (73) 
9.778516

>  <PEOE_VSA3>  (73) 
0.0

>  <PEOE_VSA4>  (73) 
0.0

>  <PEOE_VSA5>  (73) 
0.0

>  <PEOE_VSA6>  (73) 
42.464569

>  <PEOE_VSA7>  (73) 
47.376644

>  <PEOE_VSA8>  (73) 
17.957139

>  <PEOE_VSA9>  (73) 
12.648723

>  <SMR_VSA1>  (73) 
9.901065

>  <SMR_VSA10>  (73) 
5.90718

>  <SMR_VSA2>  (73) 
0.0

>  <SMR_VSA3>  (73) 
10.300767

>  <SMR_VSA4>  (73) 
0.0

>  <SMR_VSA5>  (73) 
12.462662

>  <SMR_VSA6>  (73) 
6.606882

>  <SMR_VSA7>  (73) 
90.250628

>  <SMR_VSA8>  (73) 
0.0

>  <SMR_VSA9>  (73) 
11.126903

>  <SlogP_VSA1>  (73) 
5.316789

>  <SlogP_VSA10>  (73) 
0.0

>  <SlogP_VSA11>  (73) 
0.0

>  <SlogP_VSA12>  (73) 
0.0

>  <SlogP_VSA2>  (73) 
28.646408

>  <SlogP_VSA3>  (73) 
6.420822

>  <SlogP_VSA4>  (73) 
0.0

>  <SlogP_VSA5>  (73) 
15.92144

>  <SlogP_VSA6>  (73) 
79.123725

>  <SlogP_VSA7>  (73) 
0.0

>  <SlogP_VSA8>  (73) 
11.126903

>  <SlogP_VSA9>  (73) 
0.0

>  <EState_VSA1>  (73) 
0.0

>  <EState_VSA10>  (73) 
9.901065

>  <EState_VSA11>  (73) 
0.0

>  <EState_VSA2>  (73) 
18.555903

>  <EState_VSA3>  (73) 
11.984273

>  <EState_VSA4>  (73) 
16.690354

>  <EState_VSA5>  (73) 
0.0

>  <EState_VSA6>  (73) 
24.526421

>  <EState_VSA7>  (73) 
54.597304

>  <EState_VSA8>  (73) 
10.300767

>  <EState_VSA9>  (73) 
0.0

>  <VSA_EState1>  (73) 
0.0

>  <VSA_EState10>  (73) 
0.0

>  <VSA_EState2>  (73) 
16.425077

>  <VSA_EState3>  (73) 
12.44704

>  <VSA_EState4>  (73) 
3.736497

>  <VSA_EState5>  (73) 
-0.184019

>  <VSA_EState6>  (73) 
20.765214

>  <VSA_EState7>  (73) 
4.078312

>  <VSA_EState8>  (73) 
-0.101455

>  <VSA_EState9>  (73) 
0.0

>  <FractionCSP3>  (73) 
0.142857

>  <HeavyAtomCount>  (73) 
25

>  <NHOHCount>  (73) 
2

>  <NOCount>  (73) 
4

>  <NumAliphaticCarbocycles>  (73) 
0

>  <NumAliphaticHeterocycles>  (73) 
0

>  <NumAliphaticRings>  (73) 
0

>  <NumAromaticCarbocycles>  (73) 
2

>  <NumAromaticHeterocycles>  (73) 
1

>  <NumAromaticRings>  (73) 
3

>  <NumHAcceptors>  (73) 
3

>  <NumHDonors>  (73) 
2

>  <NumHeteroatoms>  (73) 
4

>  <NumRotatableBonds>  (73) 
6

>  <NumSaturatedCarbocycles>  (73) 
0

>  <NumSaturatedHeterocycles>  (73) 
0

>  <NumSaturatedRings>  (73) 
0

>  <RingCount>  (73) 
3

>  <MolLogP>  (73) 
3.082

>  <MolMR>  (73) 
98.159

>  <fr_Al_COO>  (73) 
0

>  <fr_Al_OH>  (73) 
1

>  <fr_Al_OH_noTert>  (73) 
1

>  <fr_ArN>  (73) 
0

>  <fr_Ar_COO>  (73) 
0

>  <fr_Ar_N>  (73) 
1

>  <fr_Ar_NH>  (73) 
0

>  <fr_Ar_OH>  (73) 
0

>  <fr_COO>  (73) 
0

>  <fr_COO2>  (73) 
0

>  <fr_C_O>  (73) 
1

>  <fr_C_O_noCOO>  (73) 
1

>  <fr_C_S>  (73) 
0

>  <fr_HOCCN>  (73) 
0

>  <fr_Imine>  (73) 
0

>  <fr_NH0>  (73) 
1

>  <fr_NH1>  (73) 
1

>  <fr_NH2>  (73) 
0

>  <fr_N_O>  (73) 
0

>  <fr_Ndealkylation1>  (73) 
0

>  <fr_Ndealkylation2>  (73) 
0

>  <fr_Nhpyrrole>  (73) 
0

>  <fr_SH>  (73) 
0

>  <fr_aldehyde>  (73) 
0

>  <fr_alkyl_carbamate>  (73) 
0

>  <fr_alkyl_halide>  (73) 
0

>  <fr_allylic_oxid>  (73) 
0

>  <fr_amide>  (73) 
1

>  <fr_amidine>  (73) 
0

>  <fr_aniline>  (73) 
0

>  <fr_aryl_methyl>  (73) 
0

>  <fr_azide>  (73) 
0

>  <fr_azo>  (73) 
0

>  <fr_barbitur>  (73) 
0

>  <fr_benzene>  (73) 
2

>  <fr_benzodiazepine>  (73) 
0

>  <fr_bicyclic>  (73) 
0

>  <fr_diazo>  (73) 
0

>  <fr_dihydropyridine>  (73) 
0

>  <fr_epoxide>  (73) 
0

>  <fr_ester>  (73) 
0

>  <fr_ether>  (73) 
0

>  <fr_furan>  (73) 
0

>  <fr_guanido>  (73) 
0

>  <fr_halogen>  (73) 
0

>  <fr_hdrzine>  (73) 
0

>  <fr_hdrzone>  (73) 
0

>  <fr_imidazole>  (73) 
0

>  <fr_imide>  (73) 
0

>  <fr_isocyan>  (73) 
0

>  <fr_isothiocyan>  (73) 
0

>  <fr_ketone>  (73) 
0

>  <fr_ketone_Topliss>  (73) 
0

>  <fr_lactam>  (73) 
0

>  <fr_lactone>  (73) 
0

>  <fr_methoxy>  (73) 
0

>  <fr_morpholine>  (73) 
0

>  <fr_nitrile>  (73) 
0

>  <fr_nitro>  (73) 
0

>  <fr_nitro_arom>  (73) 
0

>  <fr_nitro_arom_nonortho>  (73) 
0

>  <fr_nitroso>  (73) 
0

>  <fr_oxazole>  (73) 
0

>  <fr_oxime>  (73) 
0

>  <fr_para_hydroxylation>  (73) 
0

>  <fr_phenol>  (73) 
0

>  <fr_phenol_noOrthoHbond>  (73) 
0

>  <fr_phos_acid>  (73) 
0

>  <fr_phos_ester>  (73) 
0

>  <fr_piperdine>  (73) 
0

>  <fr_piperzine>  (73) 
0

>  <fr_priamide>  (73) 
0

>  <fr_prisulfonamd>  (73) 
0

>  <fr_pyridine>  (73) 
1

>  <fr_quatN>  (73) 
0

>  <fr_sulfide>  (73) 
0

>  <fr_sulfonamd>  (73) 
0

>  <fr_sulfone>  (73) 
0

>  <fr_term_acetylene>  (73) 
0

>  <fr_tetrazole>  (73) 
0

>  <fr_thiazole>  (73) 
0

>  <fr_thiocyan>  (73) 
0

>  <fr_thiophene>  (73) 
0

>  <fr_unbrch_alkane>  (73) 
0

>  <fr_urea>  (73) 
0

>  <NP_Likeness>  (73) 
-0.476367

$$$$
9D1
     RDKit          3D

  0  0  0  0  0  0  0  0  0  0999 V3000
M  V30 BEGIN CTAB
M  V30 COUNTS 58 62 0 0 0
M  V30 BEGIN ATOM
M  V30 1 S 5.264000 12.058000 8.574000 0
M  V30 2 O 1.358000 18.602000 5.169000 0
M  V30 3 N 12.767000 9.363000 7.537000 0
M  V30 4 N 6.017000 14.584000 8.391000 0
M  V30 5 N 2.279000 13.598000 11.690000 0 CHG=1
M  V30 6 N 3.612000 14.350000 8.732000 0
M  V30 7 C 12.878000 10.686000 7.656000 0
M  V30 8 C 11.527000 8.862000 7.470000 0
M  V30 9 C 1.621000 13.835000 10.392000 0
M  V30 10 C 2.393000 13.551000 9.070000 0
M  V30 11 C 2.759000 12.217000 11.948000 0
M  V30 12 C 1.447000 13.958000 12.865000 0
M  V30 13 C 3.394000 15.766000 8.394000 0
M  V30 14 C 1.663000 11.519000 12.746000 0
M  V30 15 C 0.923000 12.658000 13.465000 0
M  V30 16 C 2.979000 15.382000 4.626000 0
M  V30 17 C 11.818000 11.556000 7.723000 0
M  V30 18 C 10.358000 9.644000 7.562000 0
M  V30 19 C 2.313000 16.558000 4.314000 0
M  V30 20 C 8.410000 14.282000 7.985000 0
M  V30 21 C 3.327000 15.105000 5.935000 0
M  V30 22 C 9.475000 13.401000 7.809000 0
M  V30 23 C 7.997000 11.463000 8.145000 0
M  V30 24 C 2.362000 17.202000 6.668000 0
M  V30 25 C 4.917000 13.829000 8.584000 0
M  V30 26 C 6.934000 12.374000 8.310000 0
M  V30 27 C 2.006000 17.446000 5.349000 0
M  V30 28 C 7.138000 13.771000 8.237000 0
M  V30 29 C 3.014000 16.042000 6.971000 0
M  V30 30 C 10.496000 11.060000 7.703000 0
M  V30 31 C 9.308000 11.976000 7.890000 0
M  V30 32 H 1.167500 19.195500 5.951000 0
M  V30 33 H 13.799300 11.072500 7.699600 0
M  V30 34 H 11.424300 7.874900 7.347500 0
M  V30 35 H 1.358300 14.799700 10.372400 0
M  V30 36 H 0.799300 13.265300 10.375600 0
M  V30 37 H 2.675000 12.592100 9.100100 0
M  V30 38 H 1.743400 13.684000 8.321500 0
M  V30 39 H 3.608700 12.239500 12.474800 0
M  V30 40 H 2.915100 11.738500 11.083900 0
M  V30 41 H 0.682400 14.535500 12.578900 0
M  V30 42 H 2.000300 14.447400 13.539000 0
M  V30 43 H 4.240200 16.262200 8.588100 0
M  V30 44 H 2.662100 16.113000 8.980500 0
M  V30 45 H 2.058900 10.882100 13.407500 0
M  V30 46 H 1.043200 11.024300 12.136800 0
M  V30 47 H -0.062400 12.579800 13.313900 0
M  V30 48 H 1.113100 12.628700 14.446300 0
M  V30 49 H 3.208300 14.732100 3.901400 0
M  V30 50 H 11.982000 12.540400 7.785900 0
M  V30 51 H 9.453600 9.218500 7.529400 0
M  V30 52 H 2.058100 16.766000 3.369700 0
M  V30 53 H 8.556600 15.269700 7.931100 0
M  V30 54 H 3.796900 14.250900 6.157900 0
M  V30 55 H 10.384300 13.772000 7.620400 0
M  V30 56 H 7.837900 10.477600 8.205000 0
M  V30 57 H 2.144400 17.865000 7.384300 0
M  V30 58 H 3.083800 14.190900 11.716000 0
M  V30 END ATOM
M  V30 BEGIN BOND
M  V30 1 1 1 25
M  V30 2 1 1 26
M  V30 3 1 2 27
M  V30 4 2 3 7
M  V30 5 1 3 8
M  V30 6 2 4 25
M  V30 7 1 4 28
M  V30 8 1 5 9
M  V30 9 1 5 11
M  V30 10 1 5 12
M  V30 11 1 6 10
M  V30 12 1 6 13
M  V30 13 1 6 25
M  V30 14 1 7 17
M  V30 15 2 8 18
M  V30 16 1 9 10
M  V30 17 1 11 14
M  V30 18 1 12 15
M  V30 19 1 13 29
M  V30 20 1 14 15
M  V30 21 2 16 19
M  V30 22 1 16 21
M  V30 23 2 17 30
M  V30 24 1 18 30
M  V30 25 1 19 27
M  V30 26 1 20 22
M  V30 27 2 20 28
M  V30 28 2 21 29
M  V30 29 2 22 31
M  V30 30 2 23 26
M  V30 31 1 23 31
M  V30 32 2 24 27
M  V30 33 1 24 29
M  V30 34 1 26 28
M  V30 35 1 30 31
M  V30 36 1 2 32
M  V30 37 1 7 33
M  V30 38 1 8 34
M  V30 39 1 9 35
M  V30 40 1 9 36
M  V30 41 1 10 37
M  V30 42 1 10 38
M  V30 43 1 11 39
M  V30 44 1 11 40
M  V30 45 1 12 41
M  V30 46 1 12 42
M  V30 47 1 13 43
M  V30 48 1 13 44
M  V30 49 1 14 45
M  V30 50 1 14 46
M  V30 51 1 15 47
M  V30 52 1 15 48
M  V30 53 1 16 49
M  V30 54 1 17 50
M  V30 55 1 18 51
M  V30 56 1 19 52
M  V30 57 1 20 53
M  V30 58 1 21 54
M  V30 59 1 22 55
M  V30 60 1 23 56
M  V30 61 1 24 57
M  V30 62 1 5 58
M  V30 END BOND
M  V30 END CTAB
M  END
>  <Ligand_Instance>  (74) 
5VIB_9D1_A_401

>  <Dataset>  (74) 
PDB

>  <PDB_ID>  (74) 
5VIB

>  <Chain>  (74) 
A

>  <Resi>  (74) 
401

>  <Num_Resolved_Atoms>  (74) 
31

>  <Num_H_Atoms_ProtBoundConf>  (74) 
27

>  <Pocket>  (74) 
A

>  <Name>  (74) 
3-({[6-(pyridin-4-yl)-1,3-benzothiazol-2-yl][2-(pyrrolidin-1-yl)ethyl]amino}methyl)phenol

>  <Num_Not_Resolved_Atoms>  (74) 
0

>  <ATP_Site>  (74) 
True

>  <Peripheral>  (74) 
False

>  <Standardized_SMILES>  (74) 
[H]OC1=C([H])C([H])=C([H])C(C([H])([H])N(C2=NC3=C([H])C([H])=C(C4=C([H])C([H])=NC([H])=C4[H])C([H])=C3S2)C([H])([H])C([H])([H])[N+]2([H])C([H])([H])C([H])([H])C([H])([H])C2([H])[H])=C1[H]

>  <2D_Mol_H>  (74) 
<rdkit.Chem.rdchem.Mol object at 0x77059d9e61f0>

>  <MW>  (74) 
431.585

>  <HBA>  (74) 
5

>  <HBD>  (74) 
2

>  <LogP>  (74) 
3.7492

>  <NRB>  (74) 
8

>  <TPSA>  (74) 
53.69

>  <Num_Heavy_Atoms>  (74) 
31

>  <Ro5>  (74) 
[True, True, True, True, True, True]

>  <Ro5_Fulfilled>  (74) 
True

>  <Ro3>  (74) 
[False, False, True, False]

>  <Ro3_Fulfilled>  (74) 
False

>  <Fsp3>  (74) 
0.28

>  <Fsp3_0.42>  (74) 
False

>  <Fsp3_0.45>  (74) 
False

>  <Stereogenic_Carbons>  (74) 
0

>  <C_Atoms>  (74) 
25

>  <FCStereo>  (74) 
0.0

>  <SPS>  (74) 
444

>  <nSPS>  (74) 
14.322581

>  <PBF>  (74) 
0.998125

>  <PBF_0.6>  (74) 
True

>  <nPBF>  (74) 
0.032198

>  <nPBF_0.016>  (74) 
True

>  <PMI1>  (74) 
3243.859734

>  <PMI2>  (74) 
7834.801908

>  <PMI3>  (74) 
10400.793168

>  <NPR1>  (74) 
0.311886

>  <NPR2>  (74) 
0.753289

>  <Sum_NPR>  (74) 
1.065175

>  <Sum_NPR_1.07>  (74) 
False

>  <Sum_NPR_1.2>  (74) 
False

>  <MaxAbsEStateIndex>  (74) 
9.912054

>  <MaxEStateIndex>  (74) 
9.912054

>  <MinAbsEStateIndex>  (74) 
0.313806

>  <MinEStateIndex>  (74) 
0.313806

>  <qed>  (74) 
0.468006

>  <MolWt>  (74) 
431.585

>  <HeavyAtomMolWt>  (74) 
404.369

>  <ExactMolWt>  (74) 
431.190009

>  <NumValenceElectrons>  (74) 
158

>  <NumRadicalElectrons>  (74) 
0

>  <MaxPartialCharge>  (74) 
0.186447

>  <MinPartialCharge>  (74) 
-0.507955

>  <MaxAbsPartialCharge>  (74) 
0.507955

>  <MinAbsPartialCharge>  (74) 
0.186447

>  <FpDensityMorgan1>  (74) 
0.967742

>  <FpDensityMorgan2>  (74) 
1.806452

>  <FpDensityMorgan3>  (74) 
2.612903

>  <BCUT2D_MWHI>  (74) 
32.13355

>  <BCUT2D_MWLOW>  (74) 
10.07918

>  <BCUT2D_CHGHI>  (74) 
2.192011

>  <BCUT2D_CHGLO>  (74) 
-2.233395

>  <BCUT2D_LOGPHI>  (74) 
2.326111

>  <BCUT2D_LOGPLOW>  (74) 
-3.10276

>  <BCUT2D_MRHI>  (74) 
7.217962

>  <BCUT2D_MRLOW>  (74) 
-0.885342

>  <AvgIpc>  (74) 
3.46328

>  <BalabanJ>  (74) 
1.432032

>  <BertzCT>  (74) 
1154.630592

>  <Chi0>  (74) 
21.045395

>  <Chi0n>  (74) 
17.497703

>  <Chi0v>  (74) 
18.3142

>  <Chi1>  (74) 
15.242316

>  <Chi1n>  (74) 
10.91916

>  <Chi1v>  (74) 
11.735657

>  <Chi2n>  (74) 
8.213396

>  <Chi2v>  (74) 
9.222495

>  <Chi3n>  (74) 
5.991257

>  <Chi3v>  (74) 
7.070219

>  <Chi4n>  (74) 
4.307252

>  <Chi4v>  (74) 
5.337023

>  <HallKierAlpha>  (74) 
-2.96

>  <Ipc>  (74) 
27721672.665485

>  <Kappa1>  (74) 
19.971302

>  <Kappa2>  (74) 
9.038407

>  <Kappa3>  (74) 
4.703206

>  <LabuteASA>  (74) 
186.16958

>  <PEOE_VSA1>  (74) 
14.906347

>  <PEOE_VSA10>  (74) 
5.749512

>  <PEOE_VSA11>  (74) 
5.131558

>  <PEOE_VSA12>  (74) 
0.0

>  <PEOE_VSA13>  (74) 
0.0

>  <PEOE_VSA14>  (74) 
0.0

>  <PEOE_VSA2>  (74) 
4.983979

>  <PEOE_VSA3>  (74) 
4.983979

>  <PEOE_VSA4>  (74) 
0.0

>  <PEOE_VSA5>  (74) 
0.0

>  <PEOE_VSA6>  (74) 
29.535887

>  <PEOE_VSA7>  (74) 
53.088557

>  <PEOE_VSA8>  (74) 
31.780087

>  <PEOE_VSA9>  (74) 
36.395646

>  <SMR_VSA1>  (74) 
10.006437

>  <SMR_VSA10>  (74) 
26.684965

>  <SMR_VSA2>  (74) 
0.0

>  <SMR_VSA3>  (74) 
9.967957

>  <SMR_VSA4>  (74) 
0.0

>  <SMR_VSA5>  (74) 
19.3864

>  <SMR_VSA6>  (74) 
31.078935

>  <SMR_VSA7>  (74) 
72.554442

>  <SMR_VSA8>  (74) 
0.0

>  <SMR_VSA9>  (74) 
16.876415

>  <SlogP_VSA1>  (74) 
9.799819

>  <SlogP_VSA10>  (74) 
5.131558

>  <SlogP_VSA11>  (74) 
5.749512

>  <SlogP_VSA12>  (74) 
11.336786

>  <SlogP_VSA2>  (74) 
41.25351

>  <SlogP_VSA3>  (74) 
6.544756

>  <SlogP_VSA4>  (74) 
0.0

>  <SlogP_VSA5>  (74) 
18.405095

>  <SlogP_VSA6>  (74) 
66.990991

>  <SlogP_VSA7>  (74) 
0.0

>  <SlogP_VSA8>  (74) 
21.343524

>  <SlogP_VSA9>  (74) 
0.0

>  <EState_VSA1>  (74) 
0.0

>  <EState_VSA10>  (74) 
5.106527

>  <EState_VSA11>  (74) 
0.0

>  <EState_VSA2>  (74) 
0.0

>  <EState_VSA3>  (74) 
5.749512

>  <EState_VSA4>  (74) 
35.84598

>  <EState_VSA5>  (74) 
41.757979

>  <EState_VSA6>  (74) 
22.303063

>  <EState_VSA7>  (74) 
36.659155

>  <EState_VSA8>  (74) 
34.149357

>  <EState_VSA9>  (74) 
4.983979

>  <VSA_EState1>  (74) 
1.193278

>  <VSA_EState10>  (74) 
1.747578

>  <VSA_EState2>  (74) 
13.14973

>  <VSA_EState3>  (74) 
10.957256

>  <VSA_EState4>  (74) 
4.493176

>  <VSA_EState5>  (74) 
0.313806

>  <VSA_EState6>  (74) 
18.109227

>  <VSA_EState7>  (74) 
6.325682

>  <VSA_EState8>  (74) 
5.376933

>  <VSA_EState9>  (74) 
0.0

>  <FractionCSP3>  (74) 
0.28

>  <HeavyAtomCount>  (74) 
31

>  <NHOHCount>  (74) 
2

>  <NOCount>  (74) 
5

>  <NumAliphaticCarbocycles>  (74) 
0

>  <NumAliphaticHeterocycles>  (74) 
1

>  <NumAliphaticRings>  (74) 
1

>  <NumAromaticCarbocycles>  (74) 
2

>  <NumAromaticHeterocycles>  (74) 
2

>  <NumAromaticRings>  (74) 
4

>  <NumHAcceptors>  (74) 
5

>  <NumHDonors>  (74) 
2

>  <NumHeteroatoms>  (74) 
6

>  <NumRotatableBonds>  (74) 
7

>  <NumSaturatedCarbocycles>  (74) 
0

>  <NumSaturatedHeterocycles>  (74) 
1

>  <NumSaturatedRings>  (74) 
1

>  <RingCount>  (74) 
5

>  <MolLogP>  (74) 
3.7492

>  <MolMR>  (74) 
126.8055

>  <fr_Al_COO>  (74) 
0

>  <fr_Al_OH>  (74) 
0

>  <fr_Al_OH_noTert>  (74) 
0

>  <fr_ArN>  (74) 
0

>  <fr_Ar_COO>  (74) 
0

>  <fr_Ar_N>  (74) 
2

>  <fr_Ar_NH>  (74) 
0

>  <fr_Ar_OH>  (74) 
1

>  <fr_COO>  (74) 
0

>  <fr_COO2>  (74) 
0

>  <fr_C_O>  (74) 
0

>  <fr_C_O_noCOO>  (74) 
0

>  <fr_C_S>  (74) 
0

>  <fr_HOCCN>  (74) 
0

>  <fr_Imine>  (74) 
0

>  <fr_NH0>  (74) 
3

>  <fr_NH1>  (74) 
1

>  <fr_NH2>  (74) 
0

>  <fr_N_O>  (74) 
0

>  <fr_Ndealkylation1>  (74) 
0

>  <fr_Ndealkylation2>  (74) 
1

>  <fr_Nhpyrrole>  (74) 
0

>  <fr_SH>  (74) 
0

>  <fr_aldehyde>  (74) 
0

>  <fr_alkyl_carbamate>  (74) 
0

>  <fr_alkyl_halide>  (74) 
0

>  <fr_allylic_oxid>  (74) 
0

>  <fr_amide>  (74) 
0

>  <fr_amidine>  (74) 
0

>  <fr_aniline>  (74) 
1

>  <fr_aryl_methyl>  (74) 
0

>  <fr_azide>  (74) 
0

>  <fr_azo>  (74) 
0

>  <fr_barbitur>  (74) 
0

>  <fr_benzene>  (74) 
2

>  <fr_benzodiazepine>  (74) 
0

>  <fr_bicyclic>  (74) 
1

>  <fr_diazo>  (74) 
0

>  <fr_dihydropyridine>  (74) 
0

>  <fr_epoxide>  (74) 
0

>  <fr_ester>  (74) 
0

>  <fr_ether>  (74) 
0

>  <fr_furan>  (74) 
0

>  <fr_guanido>  (74) 
0

>  <fr_halogen>  (74) 
0

>  <fr_hdrzine>  (74) 
0

>  <fr_hdrzone>  (74) 
0

>  <fr_imidazole>  (74) 
0

>  <fr_imide>  (74) 
0

>  <fr_isocyan>  (74) 
0

>  <fr_isothiocyan>  (74) 
0

>  <fr_ketone>  (74) 
0

>  <fr_ketone_Topliss>  (74) 
0

>  <fr_lactam>  (74) 
0

>  <fr_lactone>  (74) 
0

>  <fr_methoxy>  (74) 
0

>  <fr_morpholine>  (74) 
0

>  <fr_nitrile>  (74) 
0

>  <fr_nitro>  (74) 
0

>  <fr_nitro_arom>  (74) 
0

>  <fr_nitro_arom_nonortho>  (74) 
0

>  <fr_nitroso>  (74) 
0

>  <fr_oxazole>  (74) 
0

>  <fr_oxime>  (74) 
0

>  <fr_para_hydroxylation>  (74) 
0

>  <fr_phenol>  (74) 
1

>  <fr_phenol_noOrthoHbond>  (74) 
1

>  <fr_phos_acid>  (74) 
0

>  <fr_phos_ester>  (74) 
0

>  <fr_piperdine>  (74) 
0

>  <fr_piperzine>  (74) 
0

>  <fr_priamide>  (74) 
0

>  <fr_prisulfonamd>  (74) 
0

>  <fr_pyridine>  (74) 
1

>  <fr_quatN>  (74) 
1

>  <fr_sulfide>  (74) 
0

>  <fr_sulfonamd>  (74) 
0

>  <fr_sulfone>  (74) 
0

>  <fr_term_acetylene>  (74) 
0

>  <fr_tetrazole>  (74) 
0

>  <fr_thiazole>  (74) 
1

>  <fr_thiocyan>  (74) 
0

>  <fr_thiophene>  (74) 
0

>  <fr_unbrch_alkane>  (74) 
0

>  <fr_urea>  (74) 
0

>  <NP_Likeness>  (74) 
-1.098899

$$$$
9K6
     RDKit          3D

  0  0  0  0  0  0  0  0  0  0999 V3000
M  V30 BEGIN CTAB
M  V30 COUNTS 41 43 0 0 0
M  V30 BEGIN ATOM
M  V30 1 S -13.393000 -25.598000 27.268000 0
M  V30 2 O -14.057000 -25.983000 28.471000 0
M  V30 3 O -12.808000 -26.591000 26.426000 0
M  V30 4 N -9.406000 -24.682000 28.768000 0 CHG=1
M  V30 5 N -17.264000 -26.437000 23.568000 0
M  V30 6 N -12.192000 -24.582000 27.671000 0
M  V30 7 C -11.250000 -23.468000 25.651000 0
M  V30 8 C -10.042000 -24.109000 29.971000 0
M  V30 9 C -16.484000 -27.200000 24.348000 0
M  V30 10 C -9.751000 -23.975000 27.536000 0
M  V30 11 C -17.185000 -25.123000 23.721000 0
M  V30 12 C -12.296000 -23.738000 28.879000 0
M  V30 13 C -11.534000 -24.306000 30.059000 0
M  V30 14 C -15.345000 -22.512000 25.651000 0
M  V30 15 C -15.609000 -26.709000 25.271000 0
M  V30 16 C -14.490000 -23.305000 26.402000 0
M  V30 17 C -16.239000 -23.074000 24.779000 0
M  V30 18 C -14.545000 -24.670000 26.302000 0
M  V30 19 C -10.997000 -24.430000 26.798000 0 CFG=1
M  V30 20 C -16.317000 -24.482000 24.634000 0
M  V30 21 C -15.480000 -25.313000 25.425000 0
M  V30 22 H -9.697000 -25.634600 28.678900 0
M  V30 23 H -10.425500 -23.394000 25.090000 0
M  V30 24 H -12.005000 -23.808600 25.090600 0
M  V30 25 H -11.486200 -22.567800 26.016900 0
M  V30 26 H -9.857900 -23.126100 29.980700 0
M  V30 27 H -9.625200 -24.534200 30.774400 0
M  V30 28 H -16.548400 -28.192700 24.246000 0
M  V30 29 H -8.978400 -24.070600 26.908400 0
M  V30 30 H -9.874700 -23.010200 27.767900 0
M  V30 31 H -17.776600 -24.548900 23.155000 0
M  V30 32 H -13.260500 -23.657300 29.130400 0
M  V30 33 H -11.929500 -22.831800 28.668200 0
M  V30 34 H -11.862500 -23.859200 30.891100 0
M  V30 35 H -11.720000 -25.287100 30.111800 0
M  V30 36 H -15.308200 -21.517400 25.747500 0
M  V30 37 H -15.064500 -27.331900 25.832700 0
M  V30 38 H -13.829800 -22.877900 27.019800 0
M  V30 39 H -16.842000 -22.486000 24.239900 0
M  V30 40 H -10.799900 -25.326100 26.400300 0
M  V30 41 H -8.413700 -24.646300 28.886600 0
M  V30 END ATOM
M  V30 BEGIN BOND
M  V30 1 2 1 2
M  V30 2 2 1 3
M  V30 3 1 1 6
M  V30 4 1 1 18
M  V30 5 1 4 8
M  V30 6 1 4 10
M  V30 7 2 5 9
M  V30 8 1 5 11
M  V30 9 1 6 12
M  V30 10 1 6 19
M  V30 11 1 7 19
M  V30 12 1 8 13
M  V30 13 1 9 15
M  V30 14 1 10 19
M  V30 15 2 11 20
M  V30 16 1 12 13
M  V30 17 1 14 16
M  V30 18 2 14 17
M  V30 19 2 15 21
M  V30 20 2 16 18
M  V30 21 1 17 20
M  V30 22 1 18 21
M  V30 23 1 20 21
M  V30 24 1 4 22
M  V30 25 1 7 23
M  V30 26 1 7 24
M  V30 27 1 7 25
M  V30 28 1 8 26
M  V30 29 1 8 27
M  V30 30 1 9 28
M  V30 31 1 10 29
M  V30 32 1 10 30
M  V30 33 1 11 31
M  V30 34 1 12 32
M  V30 35 1 12 33
M  V30 36 1 13 34
M  V30 37 1 13 35
M  V30 38 1 14 36
M  V30 39 1 15 37
M  V30 40 1 16 38
M  V30 41 1 17 39
M  V30 42 1 19 40 CFG=3
M  V30 43 1 4 41
M  V30 END BOND
M  V30 END CTAB
M  END
>  <Ligand_Instance>  (75) 
5M75_9K6_A_402

>  <Dataset>  (75) 
PDB

>  <PDB_ID>  (75) 
5M75

>  <Chain>  (75) 
A

>  <Resi>  (75) 
402

>  <Num_Resolved_Atoms>  (75) 
21

>  <Num_H_Atoms_ProtBoundConf>  (75) 
20

>  <Pocket>  (75) 
A

>  <Name>  (75) 
5-[[(2~{S})-2-methyl-1,4-diazepan-1-yl]sulfonyl]isoquinoline

>  <Num_Not_Resolved_Atoms>  (75) 
0

>  <ATP_Site>  (75) 
True

>  <Peripheral>  (75) 
False

>  <Standardized_SMILES>  (75) 
[H]C1=NC([H])=C2C([H])=C([H])C([H])=C(S(=O)(=O)N3C([H])([H])C([H])([H])C([H])([H])[N+]([H])([H])C([H])([H])[C@]3([H])C([H])([H])[H])C2=C1[H]

>  <2D_Mol_H>  (75) 
<rdkit.Chem.rdchem.Mol object at 0x77059d9e62d0>

>  <MW>  (75) 
306.411

>  <HBA>  (75) 
3

>  <HBD>  (75) 
1

>  <LogP>  (75) 
0.5811

>  <NRB>  (75) 
3

>  <TPSA>  (75) 
66.88

>  <Num_Heavy_Atoms>  (75) 
21

>  <Ro5>  (75) 
[True, True, True, True, True, True]

>  <Ro5_Fulfilled>  (75) 
True

>  <Ro3>  (75) 
[False, True, True, True]

>  <Ro3_Fulfilled>  (75) 
True

>  <Fsp3>  (75) 
0.4

>  <Fsp3_0.42>  (75) 
False

>  <Fsp3_0.45>  (75) 
False

>  <Stereogenic_Carbons>  (75) 
1

>  <C_Atoms>  (75) 
15

>  <FCStereo>  (75) 
0.066667

>  <SPS>  (75) 
447

>  <nSPS>  (75) 
21.285714

>  <PBF>  (75) 
1.009523

>  <PBF_0.6>  (75) 
True

>  <nPBF>  (75) 
0.048073

>  <nPBF_0.016>  (75) 
True

>  <PMI1>  (75) 
718.185656

>  <PMI2>  (75) 
2876.122414

>  <PMI3>  (75) 
3058.560782

>  <NPR1>  (75) 
0.234812

>  <NPR2>  (75) 
0.940352

>  <Sum_NPR>  (75) 
1.175163

>  <Sum_NPR_1.07>  (75) 
True

>  <Sum_NPR_1.2>  (75) 
False

>  <MaxAbsEStateIndex>  (75) 
13.056031

>  <MaxEStateIndex>  (75) 
13.056031

>  <MinAbsEStateIndex>  (75) 
0.008883

>  <MinEStateIndex>  (75) 
-3.475602

>  <qed>  (75) 
0.882456

>  <MolWt>  (75) 
306.411

>  <HeavyAtomMolWt>  (75) 
286.251

>  <ExactMolWt>  (75) 
306.127074

>  <NumValenceElectrons>  (75) 
112

>  <NumRadicalElectrons>  (75) 
0

>  <MaxPartialCharge>  (75) 
0.243643

>  <MinPartialCharge>  (75) 
-0.344891

>  <MaxAbsPartialCharge>  (75) 
0.344891

>  <MinAbsPartialCharge>  (75) 
0.243643

>  <FpDensityMorgan1>  (75) 
1.333333

>  <FpDensityMorgan2>  (75) 
2.190476

>  <FpDensityMorgan3>  (75) 
3.047619

>  <BCUT2D_MWHI>  (75) 
32.233428

>  <BCUT2D_MWLOW>  (75) 
10.168262

>  <BCUT2D_CHGHI>  (75) 
2.317314

>  <BCUT2D_CHGLO>  (75) 
-2.248381

>  <BCUT2D_LOGPHI>  (75) 
2.260173

>  <BCUT2D_LOGPLOW>  (75) 
-2.855536

>  <BCUT2D_MRHI>  (75) 
7.889867

>  <BCUT2D_MRLOW>  (75) 
-0.654222

>  <AvgIpc>  (75) 
2.712915

>  <BalabanJ>  (75) 
2.113525

>  <BertzCT>  (75) 
740.17207

>  <Chi0>  (75) 
14.872033

>  <Chi0n>  (75) 
12.066401

>  <Chi0v>  (75) 
12.882898

>  <Chi1>  (75) 
10.10419

>  <Chi1n>  (75) 
7.267652

>  <Chi1v>  (75) 
8.707715

>  <Chi2n>  (75) 
5.484343

>  <Chi2v>  (75) 
7.343319

>  <Chi3n>  (75) 
4.013517

>  <Chi3v>  (75) 
6.08525

>  <Chi4n>  (75) 
2.889639

>  <Chi4v>  (75) 
4.78594

>  <HallKierAlpha>  (75) 
-1.5

>  <Ipc>  (75) 
79634.902196

>  <Kappa1>  (75) 
14.437804

>  <Kappa2>  (75) 
5.709877

>  <Kappa3>  (75) 
2.661712

>  <LabuteASA>  (75) 
124.587009

>  <PEOE_VSA1>  (75) 
5.316789

>  <PEOE_VSA10>  (75) 
0.0

>  <PEOE_VSA11>  (75) 
0.0

>  <PEOE_VSA12>  (75) 
10.023291

>  <PEOE_VSA13>  (75) 
0.0

>  <PEOE_VSA14>  (75) 
0.0

>  <PEOE_VSA2>  (75) 
4.983979

>  <PEOE_VSA3>  (75) 
8.417797

>  <PEOE_VSA4>  (75) 
4.305216

>  <PEOE_VSA5>  (75) 
0.0

>  <PEOE_VSA6>  (75) 
12.132734

>  <PEOE_VSA7>  (75) 
19.056471

>  <PEOE_VSA8>  (75) 
36.131714

>  <PEOE_VSA9>  (75) 
24.026837

>  <SMR_VSA1>  (75) 
13.734586

>  <SMR_VSA10>  (75) 
20.79574

>  <SMR_VSA2>  (75) 
0.0

>  <SMR_VSA3>  (75) 
9.289195

>  <SMR_VSA4>  (75) 
0.0

>  <SMR_VSA5>  (75) 
24.281883

>  <SMR_VSA6>  (75) 
19.634269

>  <SMR_VSA7>  (75) 
36.659155

>  <SMR_VSA8>  (75) 
0.0

>  <SMR_VSA9>  (75) 
0.0

>  <SlogP_VSA1>  (75) 
5.316789

>  <SlogP_VSA10>  (75) 
0.0

>  <SlogP_VSA11>  (75) 
0.0

>  <SlogP_VSA12>  (75) 
0.0

>  <SlogP_VSA2>  (75) 
43.383102

>  <SlogP_VSA3>  (75) 
10.023291

>  <SlogP_VSA4>  (75) 
0.0

>  <SlogP_VSA5>  (75) 
13.344559

>  <SlogP_VSA6>  (75) 
41.554639

>  <SlogP_VSA7>  (75) 
0.0

>  <SlogP_VSA8>  (75) 
10.772448

>  <SlogP_VSA9>  (75) 
0.0

>  <EState_VSA1>  (75) 
10.023291

>  <EState_VSA10>  (75) 
8.417797

>  <EState_VSA11>  (75) 
0.0

>  <EState_VSA2>  (75) 
6.041841

>  <EState_VSA3>  (75) 
11.44024

>  <EState_VSA4>  (75) 
30.282783

>  <EState_VSA5>  (75) 
0.0

>  <EState_VSA6>  (75) 
34.898004

>  <EState_VSA7>  (75) 
12.990104

>  <EState_VSA8>  (75) 
10.300767

>  <EState_VSA9>  (75) 
0.0

>  <VSA_EState1>  (75) 
27.756607

>  <VSA_EState10>  (75) 
0.0

>  <VSA_EState2>  (75) 
4.450403

>  <VSA_EState3>  (75) 
3.785427

>  <VSA_EState4>  (75) 
0.0

>  <VSA_EState5>  (75) 
0.0

>  <VSA_EState6>  (75) 
7.150071

>  <VSA_EState7>  (75) 
4.227046

>  <VSA_EState8>  (75) 
4.356048

>  <VSA_EState9>  (75) 
-3.475602

>  <FractionCSP3>  (75) 
0.4

>  <HeavyAtomCount>  (75) 
21

>  <NHOHCount>  (75) 
2

>  <NOCount>  (75) 
5

>  <NumAliphaticCarbocycles>  (75) 
0

>  <NumAliphaticHeterocycles>  (75) 
1

>  <NumAliphaticRings>  (75) 
1

>  <NumAromaticCarbocycles>  (75) 
1

>  <NumAromaticHeterocycles>  (75) 
1

>  <NumAromaticRings>  (75) 
2

>  <NumHAcceptors>  (75) 
3

>  <NumHDonors>  (75) 
1

>  <NumHeteroatoms>  (75) 
6

>  <NumRotatableBonds>  (75) 
2

>  <NumSaturatedCarbocycles>  (75) 
0

>  <NumSaturatedHeterocycles>  (75) 
1

>  <NumSaturatedRings>  (75) 
1

>  <RingCount>  (75) 
3

>  <MolLogP>  (75) 
0.5811

>  <MolMR>  (75) 
81.3732

>  <fr_Al_COO>  (75) 
0

>  <fr_Al_OH>  (75) 
0

>  <fr_Al_OH_noTert>  (75) 
0

>  <fr_ArN>  (75) 
0

>  <fr_Ar_COO>  (75) 
0

>  <fr_Ar_N>  (75) 
1

>  <fr_Ar_NH>  (75) 
0

>  <fr_Ar_OH>  (75) 
0

>  <fr_COO>  (75) 
0

>  <fr_COO2>  (75) 
0

>  <fr_C_O>  (75) 
0

>  <fr_C_O_noCOO>  (75) 
0

>  <fr_C_S>  (75) 
0

>  <fr_HOCCN>  (75) 
0

>  <fr_Imine>  (75) 
0

>  <fr_NH0>  (75) 
2

>  <fr_NH1>  (75) 
0

>  <fr_NH2>  (75) 
1

>  <fr_N_O>  (75) 
0

>  <fr_Ndealkylation1>  (75) 
0

>  <fr_Ndealkylation2>  (75) 
0

>  <fr_Nhpyrrole>  (75) 
0

>  <fr_SH>  (75) 
0

>  <fr_aldehyde>  (75) 
0

>  <fr_alkyl_carbamate>  (75) 
0

>  <fr_alkyl_halide>  (75) 
0

>  <fr_allylic_oxid>  (75) 
0

>  <fr_amide>  (75) 
0

>  <fr_amidine>  (75) 
0

>  <fr_aniline>  (75) 
0

>  <fr_aryl_methyl>  (75) 
0

>  <fr_azide>  (75) 
0

>  <fr_azo>  (75) 
0

>  <fr_barbitur>  (75) 
0

>  <fr_benzene>  (75) 
1

>  <fr_benzodiazepine>  (75) 
0

>  <fr_bicyclic>  (75) 
1

>  <fr_diazo>  (75) 
0

>  <fr_dihydropyridine>  (75) 
0

>  <fr_epoxide>  (75) 
0

>  <fr_ester>  (75) 
0

>  <fr_ether>  (75) 
0

>  <fr_furan>  (75) 
0

>  <fr_guanido>  (75) 
0

>  <fr_halogen>  (75) 
0

>  <fr_hdrzine>  (75) 
0

>  <fr_hdrzone>  (75) 
0

>  <fr_imidazole>  (75) 
0

>  <fr_imide>  (75) 
0

>  <fr_isocyan>  (75) 
0

>  <fr_isothiocyan>  (75) 
0

>  <fr_ketone>  (75) 
0

>  <fr_ketone_Topliss>  (75) 
0

>  <fr_lactam>  (75) 
0

>  <fr_lactone>  (75) 
0

>  <fr_methoxy>  (75) 
0

>  <fr_morpholine>  (75) 
0

>  <fr_nitrile>  (75) 
0

>  <fr_nitro>  (75) 
0

>  <fr_nitro_arom>  (75) 
0

>  <fr_nitro_arom_nonortho>  (75) 
0

>  <fr_nitroso>  (75) 
0

>  <fr_oxazole>  (75) 
0

>  <fr_oxime>  (75) 
0

>  <fr_para_hydroxylation>  (75) 
0

>  <fr_phenol>  (75) 
0

>  <fr_phenol_noOrthoHbond>  (75) 
0

>  <fr_phos_acid>  (75) 
0

>  <fr_phos_ester>  (75) 
0

>  <fr_piperdine>  (75) 
0

>  <fr_piperzine>  (75) 
0

>  <fr_priamide>  (75) 
0

>  <fr_prisulfonamd>  (75) 
0

>  <fr_pyridine>  (75) 
1

>  <fr_quatN>  (75) 
1

>  <fr_sulfide>  (75) 
0

>  <fr_sulfonamd>  (75) 
1

>  <fr_sulfone>  (75) 
0

>  <fr_term_acetylene>  (75) 
0

>  <fr_tetrazole>  (75) 
0

>  <fr_thiazole>  (75) 
0

>  <fr_thiocyan>  (75) 
0

>  <fr_thiophene>  (75) 
0

>  <fr_unbrch_alkane>  (75) 
0

>  <fr_urea>  (75) 
0

>  <NP_Likeness>  (75) 
-1.234159

$$$$
9LQ
     RDKit          3D

  0  0  0  0  0  0  0  0  0  0999 V3000
M  V30 BEGIN CTAB
M  V30 COUNTS 55 58 0 0 0
M  V30 BEGIN ATOM
M  V30 1 S -8.069000 10.993000 -8.184000 0
M  V30 2 O -7.418000 10.579000 -6.982000 0
M  V30 3 O -8.334000 10.034000 -9.212000 0
M  V30 4 O -4.610000 16.200000 -8.752000 0
M  V30 5 O -3.335000 18.039000 -8.026000 0
M  V30 6 N -13.011000 9.428000 -6.766000 0
M  V30 7 N -7.124000 12.147000 -8.859000 0
M  V30 8 N -4.352000 13.488000 -8.767000 0 CFG=2 CHG=1
M  V30 9 C -11.819000 8.840000 -6.957000 0
M  V30 10 C -13.063000 10.746000 -6.844000 0
M  V30 11 C -6.637000 13.189000 -7.937000 0
M  V30 12 C -5.223000 13.039000 -7.681000 0
M  V30 13 C -7.149000 12.478000 -10.299000 0
M  V30 14 C -4.628000 12.861000 -10.062000 0
M  V30 15 C -2.932000 13.696000 -8.440000 0
M  V30 16 C -5.920000 13.250000 -10.767000 0
M  V30 17 C -2.044000 14.123000 -4.793000 0
M  V30 18 C -2.284000 15.458000 -4.578000 0
M  V30 19 C -10.945000 13.706000 -7.618000 0
M  V30 20 C -10.672000 9.515000 -7.234000 0
M  V30 21 C -9.732000 13.089000 -7.868000 0
M  V30 22 C -2.244000 13.579000 -6.047000 0
M  V30 23 C -12.038000 12.973000 -7.262000 0
M  V30 24 C -2.739000 16.255000 -5.611000 0
M  V30 25 C -9.608000 11.732000 -7.744000 0
M  V30 26 C -11.951000 11.568000 -7.118000 0
M  V30 27 C -2.714000 14.364000 -7.103000 0
M  V30 28 C -10.709000 10.923000 -7.339000 0
M  V30 29 C -2.986000 15.734000 -6.888000 0
M  V30 30 B -3.647000 16.712000 -7.940000 0
M  V30 31 H -4.974400 16.925700 -9.335600 0
M  V30 32 H -3.015700 18.247100 -8.950500 0
M  V30 33 H -11.772100 7.843300 -6.891400 0
M  V30 34 H -13.947900 11.188800 -6.699400 0
M  V30 35 H -7.134500 13.118300 -7.072400 0
M  V30 36 H -6.801500 14.087600 -8.343800 0
M  V30 37 H -4.997300 13.567300 -6.862500 0
M  V30 38 H -5.038100 12.070500 -7.514100 0
M  V30 39 H -7.960300 13.033200 -10.482100 0
M  V30 40 H -7.204200 11.625500 -10.818800 0
M  V30 41 H -4.651100 11.871800 -9.917500 0
M  V30 42 H -3.871300 13.090900 -10.674000 0
M  V30 43 H -2.524100 14.269200 -9.150600 0
M  V30 44 H -2.476300 12.806000 -8.427300 0
M  V30 45 H -6.082600 14.223700 -10.607400 0
M  V30 46 H -5.802900 13.087800 -11.746800 0
M  V30 47 H -1.724600 13.544900 -4.042100 0
M  V30 48 H -2.129300 15.853800 -3.672800 0
M  V30 49 H -11.020700 14.699800 -7.699300 0
M  V30 50 H -9.812300 9.020500 -7.361900 0
M  V30 51 H -8.941800 13.637800 -8.140800 0
M  V30 52 H -2.049800 12.610200 -6.201000 0
M  V30 53 H -12.911000 13.433400 -7.100800 0
M  V30 54 H -2.896000 17.228200 -5.442900 0
M  V30 55 H -4.670800 14.424000 -8.916400 0
M  V30 END ATOM
M  V30 BEGIN BOND
M  V30 1 2 1 2
M  V30 2 2 1 3
M  V30 3 1 1 7
M  V30 4 1 1 25
M  V30 5 1 4 30
M  V30 6 1 5 30
M  V30 7 2 6 9
M  V30 8 1 6 10
M  V30 9 1 7 11
M  V30 10 1 7 13
M  V30 11 1 8 12
M  V30 12 1 8 14
M  V30 13 1 8 15
M  V30 14 1 9 20
M  V30 15 2 10 26
M  V30 16 1 11 12
M  V30 17 1 13 16
M  V30 18 1 14 16
M  V30 19 1 15 27
M  V30 20 2 17 18
M  V30 21 1 17 22
M  V30 22 1 18 24
M  V30 23 1 19 21
M  V30 24 2 19 23
M  V30 25 2 20 28
M  V30 26 2 21 25
M  V30 27 2 22 27
M  V30 28 1 23 26
M  V30 29 2 24 29
M  V30 30 1 25 28
M  V30 31 1 26 28
M  V30 32 1 27 29
M  V30 33 1 29 30
M  V30 34 1 4 31
M  V30 35 1 5 32
M  V30 36 1 9 33
M  V30 37 1 10 34
M  V30 38 1 11 35
M  V30 39 1 11 36
M  V30 40 1 12 37
M  V30 41 1 12 38
M  V30 42 1 13 39
M  V30 43 1 13 40
M  V30 44 1 14 41
M  V30 45 1 14 42
M  V30 46 1 15 43
M  V30 47 1 15 44
M  V30 48 1 16 45
M  V30 49 1 16 46
M  V30 50 1 17 47
M  V30 51 1 18 48
M  V30 52 1 19 49
M  V30 53 1 20 50
M  V30 54 1 21 51
M  V30 55 1 22 52
M  V30 56 1 23 53
M  V30 57 1 24 54
M  V30 58 1 8 55 CFG=3
M  V30 END BOND
M  V30 END CTAB
M  END
>  <Ligand_Instance>  (76) 
5O5M_9LQ_A_401

>  <Dataset>  (76) 
PDB

>  <PDB_ID>  (76) 
5O5M

>  <Chain>  (76) 
A

>  <Resi>  (76) 
401

>  <Num_Resolved_Atoms>  (76) 
30

>  <Num_H_Atoms_ProtBoundConf>  (76) 
25

>  <Pocket>  (76) 
A

>  <Name>  (76) 
[2-[(4-isoquinolin-5-ylsulfonyl-1,4-diazepan-1-yl)methyl]phenyl]boronic acid

>  <Num_Not_Resolved_Atoms>  (76) 
0

>  <ATP_Site>  (76) 
True

>  <Peripheral>  (76) 
False

>  <Standardized_SMILES>  (76) 
[H]OB(O[H])C1=C([H])C([H])=C([H])C([H])=C1C([H])([H])[N@+]1([H])C([H])([H])C([H])([H])N(S(=O)(=O)C2=C([H])C([H])=C([H])C3=C([H])N=C([H])C([H])=C32)C([H])([H])C([H])([H])C1([H])[H]

>  <2D_Mol_H>  (76) 
<rdkit.Chem.rdchem.Mol object at 0x77059d9e63b0>

>  <MW>  (76) 
426.327

>  <HBA>  (76) 
5

>  <HBD>  (76) 
3

>  <LogP>  (76) 
-0.6059

>  <NRB>  (76) 
7

>  <TPSA>  (76) 
95.17

>  <Num_Heavy_Atoms>  (76) 
30

>  <Ro5>  (76) 
[True, True, True, True, True, True]

>  <Ro5_Fulfilled>  (76) 
True

>  <Ro3>  (76) 
[False, False, True, True]

>  <Ro3_Fulfilled>  (76) 
False

>  <Fsp3>  (76) 
0.285714

>  <Fsp3_0.42>  (76) 
False

>  <Fsp3_0.45>  (76) 
False

>  <Stereogenic_Carbons>  (76) 
0

>  <C_Atoms>  (76) 
21

>  <FCStereo>  (76) 
0.0

>  <SPS>  (76) 
548

>  <nSPS>  (76) 
18.266667

>  <PBF>  (76) 
1.305632

>  <PBF_0.6>  (76) 
True

>  <nPBF>  (76) 
0.043521

>  <nPBF_0.016>  (76) 
True

>  <PMI1>  (76) 
1648.165939

>  <PMI2>  (76) 
7456.179163

>  <PMI3>  (76) 
7506.816386

>  <NPR1>  (76) 
0.219556

>  <NPR2>  (76) 
0.993255

>  <Sum_NPR>  (76) 
1.21281

>  <Sum_NPR_1.07>  (76) 
True

>  <Sum_NPR_1.2>  (76) 
True

>  <MaxAbsEStateIndex>  (76) 
13.392542

>  <MaxEStateIndex>  (76) 
13.392542

>  <MinAbsEStateIndex>  (76) 
0.319073

>  <MinEStateIndex>  (76) 
-3.617627

>  <qed>  (76) 
0.473798

>  <MolWt>  (76) 
426.327

>  <HeavyAtomMolWt>  (76) 
401.127

>  <ExactMolWt>  (76) 
426.165334

>  <NumValenceElectrons>  (76) 
156

>  <NumRadicalElectrons>  (76) 
0

>  <MaxPartialCharge>  (76) 
0.488428

>  <MinPartialCharge>  (76) 
-0.423168

>  <MaxAbsPartialCharge>  (76) 
0.488428

>  <MinAbsPartialCharge>  (76) 
0.423168

>  <FpDensityMorgan1>  (76) 
1.033333

>  <FpDensityMorgan2>  (76) 
1.866667

>  <FpDensityMorgan3>  (76) 
2.7

>  <BCUT2D_MWHI>  (76) 
32.233428

>  <BCUT2D_MWLOW>  (76) 
9.767095

>  <BCUT2D_CHGHI>  (76) 
2.297856

>  <BCUT2D_CHGLO>  (76) 
-2.211151

>  <BCUT2D_LOGPHI>  (76) 
2.248417

>  <BCUT2D_LOGPLOW>  (76) 
-3.107912

>  <BCUT2D_MRHI>  (76) 
7.889656

>  <BCUT2D_MRLOW>  (76) 
-0.911282

>  <AvgIpc>  (76) 
2.99481

>  <BalabanJ>  (76) 
1.529212

>  <BertzCT>  (76) 
1134.559461

>  <Chi0>  (76) 
21.139617

>  <Chi0n>  (76) 
16.607093

>  <Chi0v>  (76) 
17.423589

>  <Chi1>  (76) 
14.464364

>  <Chi1n>  (76) 
10.070222

>  <Chi1v>  (76) 
11.510286

>  <Chi2n>  (76) 
7.609858

>  <Chi2v>  (76) 
9.516215

>  <Chi3n>  (76) 
5.684879

>  <Chi3v>  (76) 
7.641672

>  <Chi4n>  (76) 
4.115427

>  <Chi4v>  (76) 
5.809037

>  <HallKierAlpha>  (76) 
-2.295065

>  <Ipc>  (76) 
7678260.565908

>  <Kappa1>  (76) 
20.956745

>  <Kappa2>  (76) 
8.829043

>  <Kappa3>  (76) 
4.257317

>  <LabuteASA>  (76) 
176.335146

>  <PEOE_VSA1>  (76) 
14.947955

>  <PEOE_VSA10>  (76) 
6.544756

>  <PEOE_VSA11>  (76) 
0.0

>  <PEOE_VSA12>  (76) 
10.023291

>  <PEOE_VSA13>  (76) 
0.0

>  <PEOE_VSA14>  (76) 
7.118392

>  <PEOE_VSA2>  (76) 
4.983979

>  <PEOE_VSA3>  (76) 
8.417797

>  <PEOE_VSA4>  (76) 
4.305216

>  <PEOE_VSA5>  (76) 
0.0

>  <PEOE_VSA6>  (76) 
36.398202

>  <PEOE_VSA7>  (76) 
17.595537

>  <PEOE_VSA8>  (76) 
41.695165

>  <PEOE_VSA9>  (76) 
24.529753

>  <SMR_VSA1>  (76) 
23.365752

>  <SMR_VSA10>  (76) 
33.376935

>  <SMR_VSA2>  (76) 
0.0

>  <SMR_VSA3>  (76) 
9.289195

>  <SMR_VSA4>  (76) 
0.0

>  <SMR_VSA5>  (76) 
17.861062

>  <SMR_VSA6>  (76) 
26.179026

>  <SMR_VSA7>  (76) 
66.488075

>  <SMR_VSA8>  (76) 
0.0

>  <SMR_VSA9>  (76) 
0.0

>  <SlogP_VSA1>  (76) 
10.362713

>  <SlogP_VSA10>  (76) 
0.0

>  <SlogP_VSA11>  (76) 
0.0

>  <SlogP_VSA12>  (76) 
0.0

>  <SlogP_VSA2>  (76) 
61.052455

>  <SlogP_VSA3>  (76) 
16.568048

>  <SlogP_VSA4>  (76) 
0.0

>  <SlogP_VSA5>  (76) 
11.984273

>  <SlogP_VSA6>  (76) 
65.820107

>  <SlogP_VSA7>  (76) 
0.0

>  <SlogP_VSA8>  (76) 
10.772448

>  <SlogP_VSA9>  (76) 
0.0

>  <EState_VSA1>  (76) 
17.141683

>  <EState_VSA10>  (76) 
18.465842

>  <EState_VSA11>  (76) 
0.0

>  <EState_VSA2>  (76) 
0.0

>  <EState_VSA3>  (76) 
41.923537

>  <EState_VSA4>  (76) 
23.915254

>  <EState_VSA5>  (76) 
4.89991

>  <EState_VSA6>  (76) 
47.030738

>  <EState_VSA7>  (76) 
18.199101

>  <EState_VSA8>  (76) 
4.983979

>  <EState_VSA9>  (76) 
0.0

>  <VSA_EState1>  (76) 
28.356509

>  <VSA_EState10>  (76) 
0.0

>  <VSA_EState2>  (76) 
5.629409

>  <VSA_EState3>  (76) 
20.702694

>  <VSA_EState4>  (76) 
1.378194

>  <VSA_EState5>  (76) 
0.0

>  <VSA_EState6>  (76) 
14.287942

>  <VSA_EState7>  (76) 
4.030861

>  <VSA_EState8>  (76) 
2.990995

>  <VSA_EState9>  (76) 
-5.126604

>  <FractionCSP3>  (76) 
0.285714

>  <HeavyAtomCount>  (76) 
30

>  <NHOHCount>  (76) 
3

>  <NOCount>  (76) 
7

>  <NumAliphaticCarbocycles>  (76) 
0

>  <NumAliphaticHeterocycles>  (76) 
1

>  <NumAliphaticRings>  (76) 
1

>  <NumAromaticCarbocycles>  (76) 
2

>  <NumAromaticHeterocycles>  (76) 
1

>  <NumAromaticRings>  (76) 
3

>  <NumHAcceptors>  (76) 
5

>  <NumHDonors>  (76) 
3

>  <NumHeteroatoms>  (76) 
9

>  <NumRotatableBonds>  (76) 
5

>  <NumSaturatedCarbocycles>  (76) 
0

>  <NumSaturatedHeterocycles>  (76) 
1

>  <NumSaturatedRings>  (76) 
1

>  <RingCount>  (76) 
4

>  <MolLogP>  (76) 
-0.6059

>  <MolMR>  (76) 
115.7871

>  <fr_Al_COO>  (76) 
0

>  <fr_Al_OH>  (76) 
0

>  <fr_Al_OH_noTert>  (76) 
0

>  <fr_ArN>  (76) 
0

>  <fr_Ar_COO>  (76) 
0

>  <fr_Ar_N>  (76) 
1

>  <fr_Ar_NH>  (76) 
0

>  <fr_Ar_OH>  (76) 
0

>  <fr_COO>  (76) 
0

>  <fr_COO2>  (76) 
0

>  <fr_C_O>  (76) 
0

>  <fr_C_O_noCOO>  (76) 
0

>  <fr_C_S>  (76) 
0

>  <fr_HOCCN>  (76) 
0

>  <fr_Imine>  (76) 
0

>  <fr_NH0>  (76) 
2

>  <fr_NH1>  (76) 
1

>  <fr_NH2>  (76) 
0

>  <fr_N_O>  (76) 
0

>  <fr_Ndealkylation1>  (76) 
0

>  <fr_Ndealkylation2>  (76) 
0

>  <fr_Nhpyrrole>  (76) 
0

>  <fr_SH>  (76) 
0

>  <fr_aldehyde>  (76) 
0

>  <fr_alkyl_carbamate>  (76) 
0

>  <fr_alkyl_halide>  (76) 
0

>  <fr_allylic_oxid>  (76) 
0

>  <fr_amide>  (76) 
0

>  <fr_amidine>  (76) 
0

>  <fr_aniline>  (76) 
0

>  <fr_aryl_methyl>  (76) 
0

>  <fr_azide>  (76) 
0

>  <fr_azo>  (76) 
0

>  <fr_barbitur>  (76) 
0

>  <fr_benzene>  (76) 
2

>  <fr_benzodiazepine>  (76) 
0

>  <fr_bicyclic>  (76) 
1

>  <fr_diazo>  (76) 
0

>  <fr_dihydropyridine>  (76) 
0

>  <fr_epoxide>  (76) 
0

>  <fr_ester>  (76) 
0

>  <fr_ether>  (76) 
0

>  <fr_furan>  (76) 
0

>  <fr_guanido>  (76) 
0

>  <fr_halogen>  (76) 
0

>  <fr_hdrzine>  (76) 
0

>  <fr_hdrzone>  (76) 
0

>  <fr_imidazole>  (76) 
0

>  <fr_imide>  (76) 
0

>  <fr_isocyan>  (76) 
0

>  <fr_isothiocyan>  (76) 
0

>  <fr_ketone>  (76) 
0

>  <fr_ketone_Topliss>  (76) 
0

>  <fr_lactam>  (76) 
0

>  <fr_lactone>  (76) 
0

>  <fr_methoxy>  (76) 
0

>  <fr_morpholine>  (76) 
0

>  <fr_nitrile>  (76) 
0

>  <fr_nitro>  (76) 
0

>  <fr_nitro_arom>  (76) 
0

>  <fr_nitro_arom_nonortho>  (76) 
0

>  <fr_nitroso>  (76) 
0

>  <fr_oxazole>  (76) 
0

>  <fr_oxime>  (76) 
0

>  <fr_para_hydroxylation>  (76) 
0

>  <fr_phenol>  (76) 
0

>  <fr_phenol_noOrthoHbond>  (76) 
0

>  <fr_phos_acid>  (76) 
0

>  <fr_phos_ester>  (76) 
0

>  <fr_piperdine>  (76) 
0

>  <fr_piperzine>  (76) 
0

>  <fr_priamide>  (76) 
0

>  <fr_prisulfonamd>  (76) 
0

>  <fr_pyridine>  (76) 
1

>  <fr_quatN>  (76) 
1

>  <fr_sulfide>  (76) 
0

>  <fr_sulfonamd>  (76) 
1

>  <fr_sulfone>  (76) 
0

>  <fr_term_acetylene>  (76) 
0

>  <fr_tetrazole>  (76) 
0

>  <fr_thiazole>  (76) 
0

>  <fr_thiocyan>  (76) 
0

>  <fr_thiophene>  (76) 
0

>  <fr_unbrch_alkane>  (76) 
0

>  <fr_urea>  (76) 
0

>  <NP_Likeness>  (76) 
-1.032216

$$$$
9LQ
     RDKit          3D

  0  0  0  0  0  0  0  0  0  0999 V3000
M  V30 BEGIN CTAB
M  V30 COUNTS 55 58 0 0 0
M  V30 BEGIN ATOM
M  V30 1 S 8.147000 10.936000 8.106000 0
M  V30 2 O 8.394000 9.967000 9.128000 0
M  V30 3 O 7.530000 10.530000 6.882000 0
M  V30 4 O 4.642000 15.967000 8.659000 0
M  V30 5 O 3.253000 17.778000 8.096000 0
M  V30 6 N 13.151000 9.550000 6.680000 0
M  V30 7 N 7.165000 12.061000 8.772000 0
M  V30 8 N 4.331000 13.317000 8.757000 0 CFG=2 CHG=1
M  V30 9 C 11.984000 8.919000 6.868000 0
M  V30 10 C 13.158000 10.870000 6.774000 0
M  V30 11 C 6.629000 13.094000 7.866000 0
M  V30 12 C 5.182000 12.929000 7.623000 0
M  V30 13 C 7.170000 12.329000 10.224000 0
M  V30 14 C 4.644000 12.688000 10.045000 0
M  V30 15 C 2.896000 13.469000 8.477000 0
M  V30 16 C 5.952000 13.110000 10.701000 0
M  V30 17 C 1.833000 13.884000 4.873000 0
M  V30 18 C 2.093000 15.209000 4.636000 0
M  V30 19 C 10.947000 13.742000 7.617000 0
M  V30 20 C 10.814000 9.547000 7.166000 0
M  V30 21 C 9.755000 13.080000 7.855000 0
M  V30 22 C 2.079000 13.344000 6.121000 0
M  V30 23 C 12.062000 13.054000 7.246000 0
M  V30 24 C 2.610000 16.006000 5.642000 0
M  V30 25 C 9.673000 11.721000 7.706000 0
M  V30 26 C 12.023000 11.646000 7.081000 0
M  V30 27 C 2.615000 14.127000 7.148000 0
M  V30 28 C 10.804000 10.957000 7.296000 0
M  V30 29 C 2.898000 15.489000 6.912000 0
M  V30 30 B 3.603000 16.468000 7.937000 0
M  V30 31 H 5.021300 16.686600 9.240700 0
M  V30 32 H 2.478100 17.990600 7.500800 0
M  V30 33 H 11.972000 7.922600 6.783900 0
M  V30 34 H 14.023100 11.346500 6.617300 0
M  V30 35 H 7.110700 13.036300 6.991600 0
M  V30 36 H 6.786200 13.993100 8.274500 0
M  V30 37 H 4.930400 13.491600 6.835500 0
M  V30 38 H 5.007000 11.966700 7.414700 0
M  V30 39 H 7.990700 12.855500 10.446000 0
M  V30 40 H 7.194400 11.454000 10.707500 0
M  V30 41 H 4.680700 11.699200 9.900400 0
M  V30 42 H 3.901400 12.904900 10.678600 0
M  V30 43 H 2.488600 14.026800 9.200100 0
M  V30 44 H 2.474400 12.562200 8.478000 0
M  V30 45 H 6.103600 14.078600 10.503900 0
M  V30 46 H 5.863600 12.980700 11.688700 0
M  V30 47 H 1.465300 13.308200 4.142700 0
M  V30 48 H 1.908700 15.600200 3.734400 0
M  V30 49 H 10.989800 14.735900 7.718600 0
M  V30 50 H 9.973300 9.020200 7.291400 0
M  V30 51 H 8.947600 13.597800 8.137900 0
M  V30 52 H 1.871000 12.380900 6.291800 0
M  V30 53 H 12.917600 13.546900 7.088200 0
M  V30 54 H 2.782100 16.973800 5.458300 0
M  V30 55 H 4.613200 14.263400 8.914100 0
M  V30 END ATOM
M  V30 BEGIN BOND
M  V30 1 2 1 2
M  V30 2 2 1 3
M  V30 3 1 1 7
M  V30 4 1 1 25
M  V30 5 1 4 30
M  V30 6 1 5 30
M  V30 7 2 6 9
M  V30 8 1 6 10
M  V30 9 1 7 11
M  V30 10 1 7 13
M  V30 11 1 8 12
M  V30 12 1 8 14
M  V30 13 1 8 15
M  V30 14 1 9 20
M  V30 15 2 10 26
M  V30 16 1 11 12
M  V30 17 1 13 16
M  V30 18 1 14 16
M  V30 19 1 15 27
M  V30 20 2 17 18
M  V30 21 1 17 22
M  V30 22 1 18 24
M  V30 23 1 19 21
M  V30 24 2 19 23
M  V30 25 2 20 28
M  V30 26 2 21 25
M  V30 27 2 22 27
M  V30 28 1 23 26
M  V30 29 2 24 29
M  V30 30 1 25 28
M  V30 31 1 26 28
M  V30 32 1 27 29
M  V30 33 1 29 30
M  V30 34 1 4 31
M  V30 35 1 5 32
M  V30 36 1 9 33
M  V30 37 1 10 34
M  V30 38 1 11 35
M  V30 39 1 11 36
M  V30 40 1 12 37
M  V30 41 1 12 38
M  V30 42 1 13 39
M  V30 43 1 13 40
M  V30 44 1 14 41
M  V30 45 1 14 42
M  V30 46 1 15 43
M  V30 47 1 15 44
M  V30 48 1 16 45
M  V30 49 1 16 46
M  V30 50 1 17 47
M  V30 51 1 18 48
M  V30 52 1 19 49
M  V30 53 1 20 50
M  V30 54 1 21 51
M  V30 55 1 22 52
M  V30 56 1 23 53
M  V30 57 1 24 54
M  V30 58 1 8 55 CFG=1
M  V30 END BOND
M  V30 END CTAB
M  END
>  <Ligand_Instance>  (77) 
5OL3_9LQ_A_401

>  <Dataset>  (77) 
PDB

>  <PDB_ID>  (77) 
5OL3

>  <Chain>  (77) 
A

>  <Resi>  (77) 
401

>  <Num_Resolved_Atoms>  (77) 
30

>  <Num_H_Atoms_ProtBoundConf>  (77) 
25

>  <Pocket>  (77) 
A

>  <Name>  (77) 
[2-[(4-isoquinolin-5-ylsulfonyl-1,4-diazepan-1-yl)methyl]phenyl]boronic acid

>  <Num_Not_Resolved_Atoms>  (77) 
0

>  <ATP_Site>  (77) 
True

>  <Peripheral>  (77) 
False

>  <Standardized_SMILES>  (77) 
[H]OB(O[H])C1=C([H])C([H])=C([H])C([H])=C1C([H])([H])[N@+]1([H])C([H])([H])C([H])([H])N(S(=O)(=O)C2=C([H])C([H])=C([H])C3=C([H])N=C([H])C([H])=C32)C([H])([H])C([H])([H])C1([H])[H]

>  <2D_Mol_H>  (77) 
<rdkit.Chem.rdchem.Mol object at 0x77059d9e6490>

>  <MW>  (77) 
426.327

>  <HBA>  (77) 
5

>  <HBD>  (77) 
3

>  <LogP>  (77) 
-0.6059

>  <NRB>  (77) 
7

>  <TPSA>  (77) 
95.17

>  <Num_Heavy_Atoms>  (77) 
30

>  <Ro5>  (77) 
[True, True, True, True, True, True]

>  <Ro5_Fulfilled>  (77) 
True

>  <Ro3>  (77) 
[False, False, True, True]

>  <Ro3_Fulfilled>  (77) 
False

>  <Fsp3>  (77) 
0.285714

>  <Fsp3_0.42>  (77) 
False

>  <Fsp3_0.45>  (77) 
False

>  <Stereogenic_Carbons>  (77) 
0

>  <C_Atoms>  (77) 
21

>  <FCStereo>  (77) 
0.0

>  <SPS>  (77) 
548

>  <nSPS>  (77) 
18.266667

>  <PBF>  (77) 
1.294264

>  <PBF_0.6>  (77) 
True

>  <nPBF>  (77) 
0.043142

>  <nPBF_0.016>  (77) 
True

>  <PMI1>  (77) 
1626.060621

>  <PMI2>  (77) 
7490.804554

>  <PMI3>  (77) 
7539.169083

>  <NPR1>  (77) 
0.215682

>  <NPR2>  (77) 
0.993585

>  <Sum_NPR>  (77) 
1.209267

>  <Sum_NPR_1.07>  (77) 
True

>  <Sum_NPR_1.2>  (77) 
True

>  <MaxAbsEStateIndex>  (77) 
13.392542

>  <MaxEStateIndex>  (77) 
13.392542

>  <MinAbsEStateIndex>  (77) 
0.319073

>  <MinEStateIndex>  (77) 
-3.617627

>  <qed>  (77) 
0.473798

>  <MolWt>  (77) 
426.327

>  <HeavyAtomMolWt>  (77) 
401.127

>  <ExactMolWt>  (77) 
426.165334

>  <NumValenceElectrons>  (77) 
156

>  <NumRadicalElectrons>  (77) 
0

>  <MaxPartialCharge>  (77) 
0.488428

>  <MinPartialCharge>  (77) 
-0.423168

>  <MaxAbsPartialCharge>  (77) 
0.488428

>  <MinAbsPartialCharge>  (77) 
0.423168

>  <FpDensityMorgan1>  (77) 
1.033333

>  <FpDensityMorgan2>  (77) 
1.866667

>  <FpDensityMorgan3>  (77) 
2.7

>  <BCUT2D_MWHI>  (77) 
32.233428

>  <BCUT2D_MWLOW>  (77) 
9.767095

>  <BCUT2D_CHGHI>  (77) 
2.297856

>  <BCUT2D_CHGLO>  (77) 
-2.211151

>  <BCUT2D_LOGPHI>  (77) 
2.248417

>  <BCUT2D_LOGPLOW>  (77) 
-3.107912

>  <BCUT2D_MRHI>  (77) 
7.889656

>  <BCUT2D_MRLOW>  (77) 
-0.911282

>  <AvgIpc>  (77) 
2.99481

>  <BalabanJ>  (77) 
1.529212

>  <BertzCT>  (77) 
1134.559461

>  <Chi0>  (77) 
21.139617

>  <Chi0n>  (77) 
16.607093

>  <Chi0v>  (77) 
17.423589

>  <Chi1>  (77) 
14.464364

>  <Chi1n>  (77) 
10.070222

>  <Chi1v>  (77) 
11.510286

>  <Chi2n>  (77) 
7.609858

>  <Chi2v>  (77) 
9.516215

>  <Chi3n>  (77) 
5.684879

>  <Chi3v>  (77) 
7.641672

>  <Chi4n>  (77) 
4.115427

>  <Chi4v>  (77) 
5.809037

>  <HallKierAlpha>  (77) 
-2.295065

>  <Ipc>  (77) 
7678260.565908

>  <Kappa1>  (77) 
20.956745

>  <Kappa2>  (77) 
8.829043

>  <Kappa3>  (77) 
4.257317

>  <LabuteASA>  (77) 
176.335146

>  <PEOE_VSA1>  (77) 
14.947955

>  <PEOE_VSA10>  (77) 
6.544756

>  <PEOE_VSA11>  (77) 
0.0

>  <PEOE_VSA12>  (77) 
10.023291

>  <PEOE_VSA13>  (77) 
0.0

>  <PEOE_VSA14>  (77) 
7.118392

>  <PEOE_VSA2>  (77) 
4.983979

>  <PEOE_VSA3>  (77) 
8.417797

>  <PEOE_VSA4>  (77) 
4.305216

>  <PEOE_VSA5>  (77) 
0.0

>  <PEOE_VSA6>  (77) 
36.398202

>  <PEOE_VSA7>  (77) 
17.595537

>  <PEOE_VSA8>  (77) 
41.695165

>  <PEOE_VSA9>  (77) 
24.529753

>  <SMR_VSA1>  (77) 
23.365752

>  <SMR_VSA10>  (77) 
33.376935

>  <SMR_VSA2>  (77) 
0.0

>  <SMR_VSA3>  (77) 
9.289195

>  <SMR_VSA4>  (77) 
0.0

>  <SMR_VSA5>  (77) 
17.861062

>  <SMR_VSA6>  (77) 
26.179026

>  <SMR_VSA7>  (77) 
66.488075

>  <SMR_VSA8>  (77) 
0.0

>  <SMR_VSA9>  (77) 
0.0

>  <SlogP_VSA1>  (77) 
10.362713

>  <SlogP_VSA10>  (77) 
0.0

>  <SlogP_VSA11>  (77) 
0.0

>  <SlogP_VSA12>  (77) 
0.0

>  <SlogP_VSA2>  (77) 
61.052455

>  <SlogP_VSA3>  (77) 
16.568048

>  <SlogP_VSA4>  (77) 
0.0

>  <SlogP_VSA5>  (77) 
11.984273

>  <SlogP_VSA6>  (77) 
65.820107

>  <SlogP_VSA7>  (77) 
0.0

>  <SlogP_VSA8>  (77) 
10.772448

>  <SlogP_VSA9>  (77) 
0.0

>  <EState_VSA1>  (77) 
17.141683

>  <EState_VSA10>  (77) 
18.465842

>  <EState_VSA11>  (77) 
0.0

>  <EState_VSA2>  (77) 
0.0

>  <EState_VSA3>  (77) 
41.923537

>  <EState_VSA4>  (77) 
23.915254

>  <EState_VSA5>  (77) 
4.89991

>  <EState_VSA6>  (77) 
47.030738

>  <EState_VSA7>  (77) 
18.199101

>  <EState_VSA8>  (77) 
4.983979

>  <EState_VSA9>  (77) 
0.0

>  <VSA_EState1>  (77) 
28.356509

>  <VSA_EState10>  (77) 
0.0

>  <VSA_EState2>  (77) 
5.629409

>  <VSA_EState3>  (77) 
20.702694

>  <VSA_EState4>  (77) 
1.378194

>  <VSA_EState5>  (77) 
0.0

>  <VSA_EState6>  (77) 
14.287942

>  <VSA_EState7>  (77) 
4.030861

>  <VSA_EState8>  (77) 
2.990995

>  <VSA_EState9>  (77) 
-5.126604

>  <FractionCSP3>  (77) 
0.285714

>  <HeavyAtomCount>  (77) 
30

>  <NHOHCount>  (77) 
3

>  <NOCount>  (77) 
7

>  <NumAliphaticCarbocycles>  (77) 
0

>  <NumAliphaticHeterocycles>  (77) 
1

>  <NumAliphaticRings>  (77) 
1

>  <NumAromaticCarbocycles>  (77) 
2

>  <NumAromaticHeterocycles>  (77) 
1

>  <NumAromaticRings>  (77) 
3

>  <NumHAcceptors>  (77) 
5

>  <NumHDonors>  (77) 
3

>  <NumHeteroatoms>  (77) 
9

>  <NumRotatableBonds>  (77) 
5

>  <NumSaturatedCarbocycles>  (77) 
0

>  <NumSaturatedHeterocycles>  (77) 
1

>  <NumSaturatedRings>  (77) 
1

>  <RingCount>  (77) 
4

>  <MolLogP>  (77) 
-0.6059

>  <MolMR>  (77) 
115.7871

>  <fr_Al_COO>  (77) 
0

>  <fr_Al_OH>  (77) 
0

>  <fr_Al_OH_noTert>  (77) 
0

>  <fr_ArN>  (77) 
0

>  <fr_Ar_COO>  (77) 
0

>  <fr_Ar_N>  (77) 
1

>  <fr_Ar_NH>  (77) 
0

>  <fr_Ar_OH>  (77) 
0

>  <fr_COO>  (77) 
0

>  <fr_COO2>  (77) 
0

>  <fr_C_O>  (77) 
0

>  <fr_C_O_noCOO>  (77) 
0

>  <fr_C_S>  (77) 
0

>  <fr_HOCCN>  (77) 
0

>  <fr_Imine>  (77) 
0

>  <fr_NH0>  (77) 
2

>  <fr_NH1>  (77) 
1

>  <fr_NH2>  (77) 
0

>  <fr_N_O>  (77) 
0

>  <fr_Ndealkylation1>  (77) 
0

>  <fr_Ndealkylation2>  (77) 
0

>  <fr_Nhpyrrole>  (77) 
0

>  <fr_SH>  (77) 
0

>  <fr_aldehyde>  (77) 
0

>  <fr_alkyl_carbamate>  (77) 
0

>  <fr_alkyl_halide>  (77) 
0

>  <fr_allylic_oxid>  (77) 
0

>  <fr_amide>  (77) 
0

>  <fr_amidine>  (77) 
0

>  <fr_aniline>  (77) 
0

>  <fr_aryl_methyl>  (77) 
0

>  <fr_azide>  (77) 
0

>  <fr_azo>  (77) 
0

>  <fr_barbitur>  (77) 
0

>  <fr_benzene>  (77) 
2

>  <fr_benzodiazepine>  (77) 
0

>  <fr_bicyclic>  (77) 
1

>  <fr_diazo>  (77) 
0

>  <fr_dihydropyridine>  (77) 
0

>  <fr_epoxide>  (77) 
0

>  <fr_ester>  (77) 
0

>  <fr_ether>  (77) 
0

>  <fr_furan>  (77) 
0

>  <fr_guanido>  (77) 
0

>  <fr_halogen>  (77) 
0

>  <fr_hdrzine>  (77) 
0

>  <fr_hdrzone>  (77) 
0

>  <fr_imidazole>  (77) 
0

>  <fr_imide>  (77) 
0

>  <fr_isocyan>  (77) 
0

>  <fr_isothiocyan>  (77) 
0

>  <fr_ketone>  (77) 
0

>  <fr_ketone_Topliss>  (77) 
0

>  <fr_lactam>  (77) 
0

>  <fr_lactone>  (77) 
0

>  <fr_methoxy>  (77) 
0

>  <fr_morpholine>  (77) 
0

>  <fr_nitrile>  (77) 
0

>  <fr_nitro>  (77) 
0

>  <fr_nitro_arom>  (77) 
0

>  <fr_nitro_arom_nonortho>  (77) 
0

>  <fr_nitroso>  (77) 
0

>  <fr_oxazole>  (77) 
0

>  <fr_oxime>  (77) 
0

>  <fr_para_hydroxylation>  (77) 
0

>  <fr_phenol>  (77) 
0

>  <fr_phenol_noOrthoHbond>  (77) 
0

>  <fr_phos_acid>  (77) 
0

>  <fr_phos_ester>  (77) 
0

>  <fr_piperdine>  (77) 
0

>  <fr_piperzine>  (77) 
0

>  <fr_priamide>  (77) 
0

>  <fr_prisulfonamd>  (77) 
0

>  <fr_pyridine>  (77) 
1

>  <fr_quatN>  (77) 
1

>  <fr_sulfide>  (77) 
0

>  <fr_sulfonamd>  (77) 
1

>  <fr_sulfone>  (77) 
0

>  <fr_term_acetylene>  (77) 
0

>  <fr_tetrazole>  (77) 
0

>  <fr_thiazole>  (77) 
0

>  <fr_thiocyan>  (77) 
0

>  <fr_thiophene>  (77) 
0

>  <fr_unbrch_alkane>  (77) 
0

>  <fr_urea>  (77) 
0

>  <NP_Likeness>  (77) 
-1.032216

$$$$
9LQ
     RDKit          3D

  0  0  0  0  0  0  0  0  0  0999 V3000
M  V30 BEGIN CTAB
M  V30 COUNTS 55 58 0 0 0
M  V30 BEGIN ATOM
M  V30 1 S 7.901000 11.033000 8.018000 0
M  V30 2 O 8.234000 10.097000 9.044000 0
M  V30 3 O 7.162000 10.606000 6.872000 0
M  V30 4 O 2.536000 16.325000 9.537000 0
M  V30 5 O 3.002000 18.031000 8.031000 0
M  V30 6 N 12.970000 9.559000 6.845000 0
M  V30 7 N 7.023000 12.214000 8.730000 0
M  V30 8 N 4.114000 13.194000 8.784000 0 CFG=1 CHG=1
M  V30 9 C 11.789000 8.937000 6.977000 0
M  V30 10 C 12.972000 10.886000 6.882000 0
M  V30 11 C 6.393000 13.251000 7.889000 0
M  V30 12 C 5.023000 12.997000 7.668000 0
M  V30 13 C 7.037000 12.497000 10.180000 0
M  V30 14 C 4.694000 13.536000 10.081000 0
M  V30 15 C 2.729000 13.583000 8.462000 0
M  V30 16 C 5.635000 12.563000 10.778000 0
M  V30 17 C 2.342000 14.125000 4.736000 0
M  V30 18 C 2.492000 15.484000 4.617000 0
M  V30 19 C 10.689000 13.797000 7.323000 0
M  V30 20 C 10.602000 9.577000 7.171000 0
M  V30 21 C 9.483000 13.147000 7.521000 0
M  V30 22 C 2.380000 13.532000 5.986000 0
M  V30 23 C 11.835000 13.090000 7.108000 0
M  V30 24 C 2.654000 16.264000 5.747000 0
M  V30 25 C 9.421000 11.779000 7.503000 0
M  V30 26 C 11.815000 11.674000 7.063000 0
M  V30 27 C 2.578000 14.299000 7.135000 0
M  V30 28 C 10.582000 10.990000 7.236000 0
M  V30 29 C 2.685000 15.705000 7.034000 0
M  V30 30 B 2.751000 16.712000 8.250000 0
M  V30 31 H 3.342500 16.538400 10.088400 0
M  V30 32 H 2.985400 18.522500 8.901700 0
M  V30 33 H 11.779100 7.938200 6.929900 0
M  V30 34 H 13.847800 11.356700 6.775000 0
M  V30 35 H 6.862000 13.278700 7.006300 0
M  V30 36 H 6.487200 14.136300 8.344500 0
M  V30 37 H 4.722800 13.598600 6.927800 0
M  V30 38 H 4.938400 12.043800 7.377900 0
M  V30 39 H 7.491200 13.375100 10.330600 0
M  V30 40 H 7.548900 11.773200 10.642700 0
M  V30 41 H 3.929400 13.694800 10.705600 0
M  V30 42 H 5.202700 14.387500 9.953600 0
M  V30 43 H 2.397200 14.189000 9.185000 0
M  V30 44 H 2.168300 12.755300 8.437400 0
M  V30 45 H 5.716900 12.840000 11.735400 0
M  V30 46 H 5.231500 11.649300 10.728700 0
M  V30 47 H 2.205300 13.563500 3.919900 0
M  V30 48 H 2.484100 15.910300 3.712500 0
M  V30 49 H 10.720200 14.796400 7.337800 0
M  V30 50 H 9.754900 9.054100 7.266300 0
M  V30 51 H 8.651500 13.679900 7.678200 0
M  V30 52 H 2.264200 12.542000 6.066800 0
M  V30 53 H 12.699400 13.576400 6.980600 0
M  V30 54 H 2.751800 17.253900 5.644500 0
M  V30 55 H 3.934600 12.228900 8.974700 0
M  V30 END ATOM
M  V30 BEGIN BOND
M  V30 1 2 1 2
M  V30 2 2 1 3
M  V30 3 1 1 7
M  V30 4 1 1 25
M  V30 5 1 4 30
M  V30 6 1 5 30
M  V30 7 2 6 9
M  V30 8 1 6 10
M  V30 9 1 7 11
M  V30 10 1 7 13
M  V30 11 1 8 12
M  V30 12 1 8 14
M  V30 13 1 8 15
M  V30 14 1 9 20
M  V30 15 2 10 26
M  V30 16 1 11 12
M  V30 17 1 13 16
M  V30 18 1 14 16
M  V30 19 1 15 27
M  V30 20 2 17 18
M  V30 21 1 17 22
M  V30 22 1 18 24
M  V30 23 1 19 21
M  V30 24 2 19 23
M  V30 25 2 20 28
M  V30 26 2 21 25
M  V30 27 2 22 27
M  V30 28 1 23 26
M  V30 29 2 24 29
M  V30 30 1 25 28
M  V30 31 1 26 28
M  V30 32 1 27 29
M  V30 33 1 29 30
M  V30 34 1 4 31
M  V30 35 1 5 32
M  V30 36 1 9 33
M  V30 37 1 10 34
M  V30 38 1 11 35
M  V30 39 1 11 36
M  V30 40 1 12 37
M  V30 41 1 12 38
M  V30 42 1 13 39
M  V30 43 1 13 40
M  V30 44 1 14 41
M  V30 45 1 14 42
M  V30 46 1 15 43
M  V30 47 1 15 44
M  V30 48 1 16 45
M  V30 49 1 16 46
M  V30 50 1 17 47
M  V30 51 1 18 48
M  V30 52 1 19 49
M  V30 53 1 20 50
M  V30 54 1 21 51
M  V30 55 1 22 52
M  V30 56 1 23 53
M  V30 57 1 24 54
M  V30 58 1 8 55 CFG=1
M  V30 END BOND
M  V30 END CTAB
M  END
>  <Ligand_Instance>  (78) 
5OT3_9LQ_A_401

>  <Dataset>  (78) 
PDB

>  <PDB_ID>  (78) 
5OT3

>  <Chain>  (78) 
A

>  <Resi>  (78) 
401

>  <Num_Resolved_Atoms>  (78) 
30

>  <Num_H_Atoms_ProtBoundConf>  (78) 
25

>  <Pocket>  (78) 
A

>  <Name>  (78) 
[2-[(4-isoquinolin-5-ylsulfonyl-1,4-diazepan-1-yl)methyl]phenyl]boronic acid

>  <Num_Not_Resolved_Atoms>  (78) 
0

>  <ATP_Site>  (78) 
True

>  <Peripheral>  (78) 
False

>  <Standardized_SMILES>  (78) 
[H]OB(O[H])C1=C([H])C([H])=C([H])C([H])=C1C([H])([H])[N@@+]1([H])C([H])([H])C([H])([H])N(S(=O)(=O)C2=C([H])C([H])=C([H])C3=C([H])N=C([H])C([H])=C32)C([H])([H])C([H])([H])C1([H])[H]

>  <2D_Mol_H>  (78) 
<rdkit.Chem.rdchem.Mol object at 0x77059d9e6570>

>  <MW>  (78) 
426.327

>  <HBA>  (78) 
5

>  <HBD>  (78) 
3

>  <LogP>  (78) 
-0.6059

>  <NRB>  (78) 
7

>  <TPSA>  (78) 
95.17

>  <Num_Heavy_Atoms>  (78) 
30

>  <Ro5>  (78) 
[True, True, True, True, True, True]

>  <Ro5_Fulfilled>  (78) 
True

>  <Ro3>  (78) 
[False, False, True, True]

>  <Ro3_Fulfilled>  (78) 
False

>  <Fsp3>  (78) 
0.285714

>  <Fsp3_0.42>  (78) 
False

>  <Fsp3_0.45>  (78) 
False

>  <Stereogenic_Carbons>  (78) 
0

>  <C_Atoms>  (78) 
21

>  <FCStereo>  (78) 
0.0

>  <SPS>  (78) 
548

>  <nSPS>  (78) 
18.266667

>  <PBF>  (78) 
1.246721

>  <PBF_0.6>  (78) 
True

>  <nPBF>  (78) 
0.041557

>  <nPBF_0.016>  (78) 
True

>  <PMI1>  (78) 
1618.367311

>  <PMI2>  (78) 
7588.328551

>  <PMI3>  (78) 
7749.672902

>  <NPR1>  (78) 
0.20883

>  <NPR2>  (78) 
0.97918

>  <Sum_NPR>  (78) 
1.188011

>  <Sum_NPR_1.07>  (78) 
True

>  <Sum_NPR_1.2>  (78) 
False

>  <MaxAbsEStateIndex>  (78) 
13.392542

>  <MaxEStateIndex>  (78) 
13.392542

>  <MinAbsEStateIndex>  (78) 
0.319073

>  <MinEStateIndex>  (78) 
-3.617627

>  <qed>  (78) 
0.473798

>  <MolWt>  (78) 
426.327

>  <HeavyAtomMolWt>  (78) 
401.127

>  <ExactMolWt>  (78) 
426.165334

>  <NumValenceElectrons>  (78) 
156

>  <NumRadicalElectrons>  (78) 
0

>  <MaxPartialCharge>  (78) 
0.488428

>  <MinPartialCharge>  (78) 
-0.423168

>  <MaxAbsPartialCharge>  (78) 
0.488428

>  <MinAbsPartialCharge>  (78) 
0.423168

>  <FpDensityMorgan1>  (78) 
1.033333

>  <FpDensityMorgan2>  (78) 
1.866667

>  <FpDensityMorgan3>  (78) 
2.7

>  <BCUT2D_MWHI>  (78) 
32.233428

>  <BCUT2D_MWLOW>  (78) 
9.767095

>  <BCUT2D_CHGHI>  (78) 
2.297856

>  <BCUT2D_CHGLO>  (78) 
-2.211151

>  <BCUT2D_LOGPHI>  (78) 
2.248417

>  <BCUT2D_LOGPLOW>  (78) 
-3.107912

>  <BCUT2D_MRHI>  (78) 
7.889656

>  <BCUT2D_MRLOW>  (78) 
-0.911282

>  <AvgIpc>  (78) 
2.99481

>  <BalabanJ>  (78) 
1.529212

>  <BertzCT>  (78) 
1134.559461

>  <Chi0>  (78) 
21.139617

>  <Chi0n>  (78) 
16.607093

>  <Chi0v>  (78) 
17.423589

>  <Chi1>  (78) 
14.464364

>  <Chi1n>  (78) 
10.070222

>  <Chi1v>  (78) 
11.510286

>  <Chi2n>  (78) 
7.609858

>  <Chi2v>  (78) 
9.516215

>  <Chi3n>  (78) 
5.684879

>  <Chi3v>  (78) 
7.641672

>  <Chi4n>  (78) 
4.115427

>  <Chi4v>  (78) 
5.809037

>  <HallKierAlpha>  (78) 
-2.295065

>  <Ipc>  (78) 
7678260.565908

>  <Kappa1>  (78) 
20.956745

>  <Kappa2>  (78) 
8.829043

>  <Kappa3>  (78) 
4.257317

>  <LabuteASA>  (78) 
176.335146

>  <PEOE_VSA1>  (78) 
14.947955

>  <PEOE_VSA10>  (78) 
6.544756

>  <PEOE_VSA11>  (78) 
0.0

>  <PEOE_VSA12>  (78) 
10.023291

>  <PEOE_VSA13>  (78) 
0.0

>  <PEOE_VSA14>  (78) 
7.118392

>  <PEOE_VSA2>  (78) 
4.983979

>  <PEOE_VSA3>  (78) 
8.417797

>  <PEOE_VSA4>  (78) 
4.305216

>  <PEOE_VSA5>  (78) 
0.0

>  <PEOE_VSA6>  (78) 
36.398202

>  <PEOE_VSA7>  (78) 
17.595537

>  <PEOE_VSA8>  (78) 
41.695165

>  <PEOE_VSA9>  (78) 
24.529753

>  <SMR_VSA1>  (78) 
23.365752

>  <SMR_VSA10>  (78) 
33.376935

>  <SMR_VSA2>  (78) 
0.0

>  <SMR_VSA3>  (78) 
9.289195

>  <SMR_VSA4>  (78) 
0.0

>  <SMR_VSA5>  (78) 
17.861062

>  <SMR_VSA6>  (78) 
26.179026

>  <SMR_VSA7>  (78) 
66.488075

>  <SMR_VSA8>  (78) 
0.0

>  <SMR_VSA9>  (78) 
0.0

>  <SlogP_VSA1>  (78) 
10.362713

>  <SlogP_VSA10>  (78) 
0.0

>  <SlogP_VSA11>  (78) 
0.0

>  <SlogP_VSA12>  (78) 
0.0

>  <SlogP_VSA2>  (78) 
61.052455

>  <SlogP_VSA3>  (78) 
16.568048

>  <SlogP_VSA4>  (78) 
0.0

>  <SlogP_VSA5>  (78) 
11.984273

>  <SlogP_VSA6>  (78) 
65.820107

>  <SlogP_VSA7>  (78) 
0.0

>  <SlogP_VSA8>  (78) 
10.772448

>  <SlogP_VSA9>  (78) 
0.0

>  <EState_VSA1>  (78) 
17.141683

>  <EState_VSA10>  (78) 
18.465842

>  <EState_VSA11>  (78) 
0.0

>  <EState_VSA2>  (78) 
0.0

>  <EState_VSA3>  (78) 
41.923537

>  <EState_VSA4>  (78) 
23.915254

>  <EState_VSA5>  (78) 
4.89991

>  <EState_VSA6>  (78) 
47.030738

>  <EState_VSA7>  (78) 
18.199101

>  <EState_VSA8>  (78) 
4.983979

>  <EState_VSA9>  (78) 
0.0

>  <VSA_EState1>  (78) 
28.356509

>  <VSA_EState10>  (78) 
0.0

>  <VSA_EState2>  (78) 
5.629409

>  <VSA_EState3>  (78) 
20.702694

>  <VSA_EState4>  (78) 
1.378194

>  <VSA_EState5>  (78) 
0.0

>  <VSA_EState6>  (78) 
14.287942

>  <VSA_EState7>  (78) 
4.030861

>  <VSA_EState8>  (78) 
2.990995

>  <VSA_EState9>  (78) 
-5.126604

>  <FractionCSP3>  (78) 
0.285714

>  <HeavyAtomCount>  (78) 
30

>  <NHOHCount>  (78) 
3

>  <NOCount>  (78) 
7

>  <NumAliphaticCarbocycles>  (78) 
0

>  <NumAliphaticHeterocycles>  (78) 
1

>  <NumAliphaticRings>  (78) 
1

>  <NumAromaticCarbocycles>  (78) 
2

>  <NumAromaticHeterocycles>  (78) 
1

>  <NumAromaticRings>  (78) 
3

>  <NumHAcceptors>  (78) 
5

>  <NumHDonors>  (78) 
3

>  <NumHeteroatoms>  (78) 
9

>  <NumRotatableBonds>  (78) 
5

>  <NumSaturatedCarbocycles>  (78) 
0

>  <NumSaturatedHeterocycles>  (78) 
1

>  <NumSaturatedRings>  (78) 
1

>  <RingCount>  (78) 
4

>  <MolLogP>  (78) 
-0.6059

>  <MolMR>  (78) 
115.7871

>  <fr_Al_COO>  (78) 
0

>  <fr_Al_OH>  (78) 
0

>  <fr_Al_OH_noTert>  (78) 
0

>  <fr_ArN>  (78) 
0

>  <fr_Ar_COO>  (78) 
0

>  <fr_Ar_N>  (78) 
1

>  <fr_Ar_NH>  (78) 
0

>  <fr_Ar_OH>  (78) 
0

>  <fr_COO>  (78) 
0

>  <fr_COO2>  (78) 
0

>  <fr_C_O>  (78) 
0

>  <fr_C_O_noCOO>  (78) 
0

>  <fr_C_S>  (78) 
0

>  <fr_HOCCN>  (78) 
0

>  <fr_Imine>  (78) 
0

>  <fr_NH0>  (78) 
2

>  <fr_NH1>  (78) 
1

>  <fr_NH2>  (78) 
0

>  <fr_N_O>  (78) 
0

>  <fr_Ndealkylation1>  (78) 
0

>  <fr_Ndealkylation2>  (78) 
0

>  <fr_Nhpyrrole>  (78) 
0

>  <fr_SH>  (78) 
0

>  <fr_aldehyde>  (78) 
0

>  <fr_alkyl_carbamate>  (78) 
0

>  <fr_alkyl_halide>  (78) 
0

>  <fr_allylic_oxid>  (78) 
0

>  <fr_amide>  (78) 
0

>  <fr_amidine>  (78) 
0

>  <fr_aniline>  (78) 
0

>  <fr_aryl_methyl>  (78) 
0

>  <fr_azide>  (78) 
0

>  <fr_azo>  (78) 
0

>  <fr_barbitur>  (78) 
0

>  <fr_benzene>  (78) 
2

>  <fr_benzodiazepine>  (78) 
0

>  <fr_bicyclic>  (78) 
1

>  <fr_diazo>  (78) 
0

>  <fr_dihydropyridine>  (78) 
0

>  <fr_epoxide>  (78) 
0

>  <fr_ester>  (78) 
0

>  <fr_ether>  (78) 
0

>  <fr_furan>  (78) 
0

>  <fr_guanido>  (78) 
0

>  <fr_halogen>  (78) 
0

>  <fr_hdrzine>  (78) 
0

>  <fr_hdrzone>  (78) 
0

>  <fr_imidazole>  (78) 
0

>  <fr_imide>  (78) 
0

>  <fr_isocyan>  (78) 
0

>  <fr_isothiocyan>  (78) 
0

>  <fr_ketone>  (78) 
0

>  <fr_ketone_Topliss>  (78) 
0

>  <fr_lactam>  (78) 
0

>  <fr_lactone>  (78) 
0

>  <fr_methoxy>  (78) 
0

>  <fr_morpholine>  (78) 
0

>  <fr_nitrile>  (78) 
0

>  <fr_nitro>  (78) 
0

>  <fr_nitro_arom>  (78) 
0

>  <fr_nitro_arom_nonortho>  (78) 
0

>  <fr_nitroso>  (78) 
0

>  <fr_oxazole>  (78) 
0

>  <fr_oxime>  (78) 
0

>  <fr_para_hydroxylation>  (78) 
0

>  <fr_phenol>  (78) 
0

>  <fr_phenol_noOrthoHbond>  (78) 
0

>  <fr_phos_acid>  (78) 
0

>  <fr_phos_ester>  (78) 
0

>  <fr_piperdine>  (78) 
0

>  <fr_piperzine>  (78) 
0

>  <fr_priamide>  (78) 
0

>  <fr_prisulfonamd>  (78) 
0

>  <fr_pyridine>  (78) 
1

>  <fr_quatN>  (78) 
1

>  <fr_sulfide>  (78) 
0

>  <fr_sulfonamd>  (78) 
1

>  <fr_sulfone>  (78) 
0

>  <fr_term_acetylene>  (78) 
0

>  <fr_tetrazole>  (78) 
0

>  <fr_thiazole>  (78) 
0

>  <fr_thiocyan>  (78) 
0

>  <fr_thiophene>  (78) 
0

>  <fr_unbrch_alkane>  (78) 
0

>  <fr_urea>  (78) 
0

>  <NP_Likeness>  (78) 
-1.032216

$$$$
9LQ
     RDKit          3D

  0  0  0  0  0  0  0  0  0  0999 V3000
M  V30 BEGIN CTAB
M  V30 COUNTS 55 58 0 0 0
M  V30 BEGIN ATOM
M  V30 1 S 21.713000 -19.471000 8.397000 0
M  V30 2 O 22.709000 -19.685000 7.396000 0
M  V30 3 O 22.000000 -18.638000 9.521000 0
M  V30 4 O 14.306000 -15.739000 8.259000 0
M  V30 5 O 15.408000 -14.646000 6.503000 0
M  V30 6 N 24.261000 -23.736000 10.514000 0
M  V30 7 N 20.397000 -18.843000 7.637000 0
M  V30 8 N 19.292000 -15.866000 7.431000 0 CFG=2 CHG=1
M  V30 9 C 24.586000 -22.485000 10.159000 0
M  V30 10 C 22.992000 -24.099000 10.392000 0
M  V30 11 C 20.460000 -18.082000 6.369000 0
M  V30 12 C 19.488000 -16.714000 6.242000 0
M  V30 13 C 19.021000 -18.760000 8.172000 0
M  V30 14 C 19.747000 -16.429000 8.696000 0
M  V30 15 C 18.461000 -14.651000 7.370000 0
M  V30 16 C 18.863000 -17.584000 9.071000 0
M  V30 17 C 18.012000 -13.344000 10.890000 0
M  V30 18 C 16.683000 -13.570000 11.130000 0
M  V30 19 C 19.673000 -22.793000 9.320000 0
M  V30 20 C 23.700000 -21.574000 9.668000 0
M  V30 21 C 20.020000 -21.509000 8.931000 0
M  V30 22 C 18.561000 -13.684000 9.668000 0
M  V30 23 C 20.615000 -23.653000 9.799000 0
M  V30 24 C 15.888000 -14.134000 10.149000 0
M  V30 25 C 21.317000 -21.082000 9.024000 0
M  V30 26 C 21.968000 -23.253000 9.915000 0
M  V30 27 C 17.782000 -14.271000 8.672000 0
M  V30 28 C 22.340000 -21.939000 9.531000 0
M  V30 29 C 16.408000 -14.486000 8.891000 0
M  V30 30 B 15.370000 -15.009000 7.818000 0
M  V30 31 H 13.957500 -16.305100 7.511900 0
M  V30 32 H 15.898900 -13.779700 6.410400 0
M  V30 33 H 25.539800 -22.202300 10.261100 0
M  V30 34 H 22.744500 -25.031600 10.654600 0
M  V30 35 H 20.199900 -18.705000 5.631300 0
M  V30 36 H 21.407800 -17.790300 6.240300 0
M  V30 37 H 19.887800 -16.135000 5.531400 0
M  V30 38 H 18.583000 -17.023300 5.949900 0
M  V30 39 H 18.820400 -19.593500 8.686900 0
M  V30 40 H 18.379100 -18.676400 7.409700 0
M  V30 41 H 19.702400 -15.728900 9.408600 0
M  V30 42 H 20.690100 -16.747400 8.600100 0
M  V30 43 H 17.751000 -14.795400 6.680800 0
M  V30 44 H 19.045800 -13.889100 7.091600 0
M  V30 45 H 19.086400 -17.865200 10.004300 0
M  V30 46 H 17.910800 -17.280800 9.033100 0
M  V30 47 H 18.585300 -12.933000 11.598800 0
M  V30 48 H 16.286900 -13.327000 12.015500 0
M  V30 49 H 18.721300 -23.091500 9.248400 0
M  V30 50 H 24.007100 -20.658600 9.407700 0
M  V30 51 H 19.317600 -20.889900 8.579800 0
M  V30 52 H 19.530000 -13.506600 9.496000 0
M  V30 53 H 20.347600 -24.577200 10.071700 0
M  V30 54 H 14.919600 -14.295400 10.339000 0
M  V30 55 H 20.142700 -15.361600 7.283000 0
M  V30 END ATOM
M  V30 BEGIN BOND
M  V30 1 2 1 2
M  V30 2 2 1 3
M  V30 3 1 1 7
M  V30 4 1 1 25
M  V30 5 1 4 30
M  V30 6 1 5 30
M  V30 7 2 6 9
M  V30 8 1 6 10
M  V30 9 1 7 11
M  V30 10 1 7 13
M  V30 11 1 8 12
M  V30 12 1 8 14
M  V30 13 1 8 15
M  V30 14 1 9 20
M  V30 15 2 10 26
M  V30 16 1 11 12
M  V30 17 1 13 16
M  V30 18 1 14 16
M  V30 19 1 15 27
M  V30 20 2 17 18
M  V30 21 1 17 22
M  V30 22 1 18 24
M  V30 23 1 19 21
M  V30 24 2 19 23
M  V30 25 2 20 28
M  V30 26 2 21 25
M  V30 27 2 22 27
M  V30 28 1 23 26
M  V30 29 2 24 29
M  V30 30 1 25 28
M  V30 31 1 26 28
M  V30 32 1 27 29
M  V30 33 1 29 30
M  V30 34 1 4 31
M  V30 35 1 5 32
M  V30 36 1 9 33
M  V30 37 1 10 34
M  V30 38 1 11 35
M  V30 39 1 11 36
M  V30 40 1 12 37
M  V30 41 1 12 38
M  V30 42 1 13 39
M  V30 43 1 13 40
M  V30 44 1 14 41
M  V30 45 1 14 42
M  V30 46 1 15 43
M  V30 47 1 15 44
M  V30 48 1 16 45
M  V30 49 1 16 46
M  V30 50 1 17 47
M  V30 51 1 18 48
M  V30 52 1 19 49
M  V30 53 1 20 50
M  V30 54 1 21 51
M  V30 55 1 22 52
M  V30 56 1 23 53
M  V30 57 1 24 54
M  V30 58 1 8 55 CFG=3
M  V30 END BOND
M  V30 END CTAB
M  END
>  <Ligand_Instance>  (79) 
6I2B_9LQ_A_401

>  <Dataset>  (79) 
PDB

>  <PDB_ID>  (79) 
6I2B

>  <Chain>  (79) 
A

>  <Resi>  (79) 
401

>  <Num_Resolved_Atoms>  (79) 
30

>  <Num_H_Atoms_ProtBoundConf>  (79) 
25

>  <Pocket>  (79) 
A

>  <Name>  (79) 
[2-[(4-isoquinolin-5-ylsulfonyl-1,4-diazepan-1-yl)methyl]phenyl]boronic acid

>  <Num_Not_Resolved_Atoms>  (79) 
0

>  <ATP_Site>  (79) 
True

>  <Peripheral>  (79) 
True

>  <Standardized_SMILES>  (79) 
[H]OB(O[H])C1=C([H])C([H])=C([H])C([H])=C1C([H])([H])[N@+]1([H])C([H])([H])C([H])([H])N(S(=O)(=O)C2=C([H])C([H])=C([H])C3=C([H])N=C([H])C([H])=C32)C([H])([H])C([H])([H])C1([H])[H]

>  <2D_Mol_H>  (79) 
<rdkit.Chem.rdchem.Mol object at 0x77059d9e6650>

>  <MW>  (79) 
426.327

>  <HBA>  (79) 
5

>  <HBD>  (79) 
3

>  <LogP>  (79) 
-0.6059

>  <NRB>  (79) 
7

>  <TPSA>  (79) 
95.17

>  <Num_Heavy_Atoms>  (79) 
30

>  <Ro5>  (79) 
[True, True, True, True, True, True]

>  <Ro5_Fulfilled>  (79) 
True

>  <Ro3>  (79) 
[False, False, True, True]

>  <Ro3_Fulfilled>  (79) 
False

>  <Fsp3>  (79) 
0.285714

>  <Fsp3_0.42>  (79) 
False

>  <Fsp3_0.45>  (79) 
False

>  <Stereogenic_Carbons>  (79) 
0

>  <C_Atoms>  (79) 
21

>  <FCStereo>  (79) 
0.0

>  <SPS>  (79) 
548

>  <nSPS>  (79) 
18.266667

>  <PBF>  (79) 
1.226575

>  <PBF_0.6>  (79) 
True

>  <nPBF>  (79) 
0.040886

>  <nPBF_0.016>  (79) 
True

>  <PMI1>  (79) 
1486.696164

>  <PMI2>  (79) 
8036.131683

>  <PMI3>  (79) 
8154.754518

>  <NPR1>  (79) 
0.18231

>  <NPR2>  (79) 
0.985454

>  <Sum_NPR>  (79) 
1.167764

>  <Sum_NPR_1.07>  (79) 
True

>  <Sum_NPR_1.2>  (79) 
False

>  <MaxAbsEStateIndex>  (79) 
13.392542

>  <MaxEStateIndex>  (79) 
13.392542

>  <MinAbsEStateIndex>  (79) 
0.319073

>  <MinEStateIndex>  (79) 
-3.617627

>  <qed>  (79) 
0.473798

>  <MolWt>  (79) 
426.327

>  <HeavyAtomMolWt>  (79) 
401.127

>  <ExactMolWt>  (79) 
426.165334

>  <NumValenceElectrons>  (79) 
156

>  <NumRadicalElectrons>  (79) 
0

>  <MaxPartialCharge>  (79) 
0.488428

>  <MinPartialCharge>  (79) 
-0.423168

>  <MaxAbsPartialCharge>  (79) 
0.488428

>  <MinAbsPartialCharge>  (79) 
0.423168

>  <FpDensityMorgan1>  (79) 
1.033333

>  <FpDensityMorgan2>  (79) 
1.866667

>  <FpDensityMorgan3>  (79) 
2.7

>  <BCUT2D_MWHI>  (79) 
32.233428

>  <BCUT2D_MWLOW>  (79) 
9.767095

>  <BCUT2D_CHGHI>  (79) 
2.297856

>  <BCUT2D_CHGLO>  (79) 
-2.211151

>  <BCUT2D_LOGPHI>  (79) 
2.248417

>  <BCUT2D_LOGPLOW>  (79) 
-3.107912

>  <BCUT2D_MRHI>  (79) 
7.889656

>  <BCUT2D_MRLOW>  (79) 
-0.911282

>  <AvgIpc>  (79) 
2.99481

>  <BalabanJ>  (79) 
1.529212

>  <BertzCT>  (79) 
1134.559461

>  <Chi0>  (79) 
21.139617

>  <Chi0n>  (79) 
16.607093

>  <Chi0v>  (79) 
17.423589

>  <Chi1>  (79) 
14.464364

>  <Chi1n>  (79) 
10.070222

>  <Chi1v>  (79) 
11.510286

>  <Chi2n>  (79) 
7.609858

>  <Chi2v>  (79) 
9.516215

>  <Chi3n>  (79) 
5.684879

>  <Chi3v>  (79) 
7.641672

>  <Chi4n>  (79) 
4.115427

>  <Chi4v>  (79) 
5.809037

>  <HallKierAlpha>  (79) 
-2.295065

>  <Ipc>  (79) 
7678260.565908

>  <Kappa1>  (79) 
20.956745

>  <Kappa2>  (79) 
8.829043

>  <Kappa3>  (79) 
4.257317

>  <LabuteASA>  (79) 
176.335146

>  <PEOE_VSA1>  (79) 
14.947955

>  <PEOE_VSA10>  (79) 
6.544756

>  <PEOE_VSA11>  (79) 
0.0

>  <PEOE_VSA12>  (79) 
10.023291

>  <PEOE_VSA13>  (79) 
0.0

>  <PEOE_VSA14>  (79) 
7.118392

>  <PEOE_VSA2>  (79) 
4.983979

>  <PEOE_VSA3>  (79) 
8.417797

>  <PEOE_VSA4>  (79) 
4.305216

>  <PEOE_VSA5>  (79) 
0.0

>  <PEOE_VSA6>  (79) 
36.398202

>  <PEOE_VSA7>  (79) 
17.595537

>  <PEOE_VSA8>  (79) 
41.695165

>  <PEOE_VSA9>  (79) 
24.529753

>  <SMR_VSA1>  (79) 
23.365752

>  <SMR_VSA10>  (79) 
33.376935

>  <SMR_VSA2>  (79) 
0.0

>  <SMR_VSA3>  (79) 
9.289195

>  <SMR_VSA4>  (79) 
0.0

>  <SMR_VSA5>  (79) 
17.861062

>  <SMR_VSA6>  (79) 
26.179026

>  <SMR_VSA7>  (79) 
66.488075

>  <SMR_VSA8>  (79) 
0.0

>  <SMR_VSA9>  (79) 
0.0

>  <SlogP_VSA1>  (79) 
10.362713

>  <SlogP_VSA10>  (79) 
0.0

>  <SlogP_VSA11>  (79) 
0.0

>  <SlogP_VSA12>  (79) 
0.0

>  <SlogP_VSA2>  (79) 
61.052455

>  <SlogP_VSA3>  (79) 
16.568048

>  <SlogP_VSA4>  (79) 
0.0

>  <SlogP_VSA5>  (79) 
11.984273

>  <SlogP_VSA6>  (79) 
65.820107

>  <SlogP_VSA7>  (79) 
0.0

>  <SlogP_VSA8>  (79) 
10.772448

>  <SlogP_VSA9>  (79) 
0.0

>  <EState_VSA1>  (79) 
17.141683

>  <EState_VSA10>  (79) 
18.465842

>  <EState_VSA11>  (79) 
0.0

>  <EState_VSA2>  (79) 
0.0

>  <EState_VSA3>  (79) 
41.923537

>  <EState_VSA4>  (79) 
23.915254

>  <EState_VSA5>  (79) 
4.89991

>  <EState_VSA6>  (79) 
47.030738

>  <EState_VSA7>  (79) 
18.199101

>  <EState_VSA8>  (79) 
4.983979

>  <EState_VSA9>  (79) 
0.0

>  <VSA_EState1>  (79) 
28.356509

>  <VSA_EState10>  (79) 
0.0

>  <VSA_EState2>  (79) 
5.629409

>  <VSA_EState3>  (79) 
20.702694

>  <VSA_EState4>  (79) 
1.378194

>  <VSA_EState5>  (79) 
0.0

>  <VSA_EState6>  (79) 
14.287942

>  <VSA_EState7>  (79) 
4.030861

>  <VSA_EState8>  (79) 
2.990995

>  <VSA_EState9>  (79) 
-5.126604

>  <FractionCSP3>  (79) 
0.285714

>  <HeavyAtomCount>  (79) 
30

>  <NHOHCount>  (79) 
3

>  <NOCount>  (79) 
7

>  <NumAliphaticCarbocycles>  (79) 
0

>  <NumAliphaticHeterocycles>  (79) 
1

>  <NumAliphaticRings>  (79) 
1

>  <NumAromaticCarbocycles>  (79) 
2

>  <NumAromaticHeterocycles>  (79) 
1

>  <NumAromaticRings>  (79) 
3

>  <NumHAcceptors>  (79) 
5

>  <NumHDonors>  (79) 
3

>  <NumHeteroatoms>  (79) 
9

>  <NumRotatableBonds>  (79) 
5

>  <NumSaturatedCarbocycles>  (79) 
0

>  <NumSaturatedHeterocycles>  (79) 
1

>  <NumSaturatedRings>  (79) 
1

>  <RingCount>  (79) 
4

>  <MolLogP>  (79) 
-0.6059

>  <MolMR>  (79) 
115.7871

>  <fr_Al_COO>  (79) 
0

>  <fr_Al_OH>  (79) 
0

>  <fr_Al_OH_noTert>  (79) 
0

>  <fr_ArN>  (79) 
0

>  <fr_Ar_COO>  (79) 
0

>  <fr_Ar_N>  (79) 
1

>  <fr_Ar_NH>  (79) 
0

>  <fr_Ar_OH>  (79) 
0

>  <fr_COO>  (79) 
0

>  <fr_COO2>  (79) 
0

>  <fr_C_O>  (79) 
0

>  <fr_C_O_noCOO>  (79) 
0

>  <fr_C_S>  (79) 
0

>  <fr_HOCCN>  (79) 
0

>  <fr_Imine>  (79) 
0

>  <fr_NH0>  (79) 
2

>  <fr_NH1>  (79) 
1

>  <fr_NH2>  (79) 
0

>  <fr_N_O>  (79) 
0

>  <fr_Ndealkylation1>  (79) 
0

>  <fr_Ndealkylation2>  (79) 
0

>  <fr_Nhpyrrole>  (79) 
0

>  <fr_SH>  (79) 
0

>  <fr_aldehyde>  (79) 
0

>  <fr_alkyl_carbamate>  (79) 
0

>  <fr_alkyl_halide>  (79) 
0

>  <fr_allylic_oxid>  (79) 
0

>  <fr_amide>  (79) 
0

>  <fr_amidine>  (79) 
0

>  <fr_aniline>  (79) 
0

>  <fr_aryl_methyl>  (79) 
0

>  <fr_azide>  (79) 
0

>  <fr_azo>  (79) 
0

>  <fr_barbitur>  (79) 
0

>  <fr_benzene>  (79) 
2

>  <fr_benzodiazepine>  (79) 
0

>  <fr_bicyclic>  (79) 
1

>  <fr_diazo>  (79) 
0

>  <fr_dihydropyridine>  (79) 
0

>  <fr_epoxide>  (79) 
0

>  <fr_ester>  (79) 
0

>  <fr_ether>  (79) 
0

>  <fr_furan>  (79) 
0

>  <fr_guanido>  (79) 
0

>  <fr_halogen>  (79) 
0

>  <fr_hdrzine>  (79) 
0

>  <fr_hdrzone>  (79) 
0

>  <fr_imidazole>  (79) 
0

>  <fr_imide>  (79) 
0

>  <fr_isocyan>  (79) 
0

>  <fr_isothiocyan>  (79) 
0

>  <fr_ketone>  (79) 
0

>  <fr_ketone_Topliss>  (79) 
0

>  <fr_lactam>  (79) 
0

>  <fr_lactone>  (79) 
0

>  <fr_methoxy>  (79) 
0

>  <fr_morpholine>  (79) 
0

>  <fr_nitrile>  (79) 
0

>  <fr_nitro>  (79) 
0

>  <fr_nitro_arom>  (79) 
0

>  <fr_nitro_arom_nonortho>  (79) 
0

>  <fr_nitroso>  (79) 
0

>  <fr_oxazole>  (79) 
0

>  <fr_oxime>  (79) 
0

>  <fr_para_hydroxylation>  (79) 
0

>  <fr_phenol>  (79) 
0

>  <fr_phenol_noOrthoHbond>  (79) 
0

>  <fr_phos_acid>  (79) 
0

>  <fr_phos_ester>  (79) 
0

>  <fr_piperdine>  (79) 
0

>  <fr_piperzine>  (79) 
0

>  <fr_priamide>  (79) 
0

>  <fr_prisulfonamd>  (79) 
0

>  <fr_pyridine>  (79) 
1

>  <fr_quatN>  (79) 
1

>  <fr_sulfide>  (79) 
0

>  <fr_sulfonamd>  (79) 
1

>  <fr_sulfone>  (79) 
0

>  <fr_term_acetylene>  (79) 
0

>  <fr_tetrazole>  (79) 
0

>  <fr_thiazole>  (79) 
0

>  <fr_thiocyan>  (79) 
0

>  <fr_thiophene>  (79) 
0

>  <fr_unbrch_alkane>  (79) 
0

>  <fr_urea>  (79) 
0

>  <NP_Likeness>  (79) 
-1.032216

$$$$
9LQ
     RDKit          3D

  0  0  0  0  0  0  0  0  0  0999 V3000
M  V30 BEGIN CTAB
M  V30 COUNTS 55 58 0 0 0
M  V30 BEGIN ATOM
M  V30 1 S -19.288000 21.793000 -7.466000 0
M  V30 2 O -19.560000 22.770000 -6.460000 0
M  V30 3 O -18.421000 22.124000 -8.552000 0
M  V30 4 O -13.729000 14.609000 -5.877000 0
M  V30 5 O -15.250000 16.191000 -5.376000 0
M  V30 6 N -23.647000 24.107000 -9.560000 0
M  V30 7 N -18.629000 20.499000 -6.710000 0
M  V30 8 N -15.717000 18.856000 -6.050000 0 CFG=1 CHG=1
M  V30 9 C -22.406000 24.487000 -9.224000 0
M  V30 10 C -23.960000 22.823000 -9.422000 0
M  V30 11 C -18.015000 20.266000 -5.383000 0
M  V30 12 C -16.352000 19.912000 -5.252000 0
M  V30 13 C -18.322000 19.584000 -7.823000 0
M  V30 14 C -16.660000 18.106000 -6.809000 0
M  V30 15 C -14.317000 18.899000 -6.494000 0
M  V30 16 C -16.912000 19.146000 -7.844000 0
M  V30 17 C -13.283000 17.864000 -9.980000 0
M  V30 18 C -13.456000 16.502000 -9.955000 0
M  V30 19 C -22.494000 19.559000 -8.370000 0
M  V30 20 C -21.455000 23.640000 -8.740000 0
M  V30 21 C -21.217000 19.964000 -8.003000 0
M  V30 22 C -13.557000 18.614000 -8.846000 0
M  V30 23 C -23.402000 20.462000 -8.837000 0
M  V30 24 C -13.867000 15.877000 -8.789000 0
M  V30 25 C -20.854000 21.282000 -8.100000 0
M  V30 26 C -23.065000 21.835000 -8.956000 0
M  V30 27 C -13.992000 18.005000 -7.672000 0
M  V30 28 C -21.762000 22.265000 -8.593000 0
M  V30 29 C -14.107000 16.596000 -7.608000 0
M  V30 30 B -14.347000 15.756000 -6.284000 0
M  V30 31 H -13.071100 14.320000 -6.572400 0
M  V30 32 H -15.949600 15.489700 -5.239200 0
M  V30 33 H -22.163600 25.450800 -9.335400 0
M  V30 34 H -24.887800 22.538400 -9.663300 0
M  V30 35 H -18.505200 19.498000 -4.970900 0
M  V30 36 H -18.175900 21.092300 -4.843300 0
M  V30 37 H -15.867300 20.758700 -5.471500 0
M  V30 38 H -16.190900 19.674400 -4.294100 0
M  V30 39 H -18.522200 20.052100 -8.683700 0
M  V30 40 H -18.904700 18.775600 -7.739800 0
M  V30 41 H -17.480900 17.878600 -6.285100 0
M  V30 42 H -16.266900 17.270100 -7.192100 0
M  V30 43 H -13.739300 18.622600 -5.726000 0
M  V30 44 H -14.101700 19.841200 -6.750800 0
M  V30 45 H -16.322300 19.933800 -7.666100 0
M  V30 46 H -16.700500 18.768100 -8.745400 0
M  V30 47 H -12.960500 18.313600 -10.813000 0
M  V30 48 H -13.285300 15.961200 -10.778600 0
M  V30 49 H -22.749700 18.595500 -8.290800 0
M  V30 50 H -20.550100 23.985200 -8.491200 0
M  V30 51 H -20.559100 19.290400 -7.666300 0
M  V30 52 H -13.440400 19.606800 -8.872000 0
M  V30 53 H -24.316400 20.153100 -9.098800 0
M  V30 54 H -13.996300 14.885400 -8.788900 0
M  V30 55 H -15.595000 18.194300 -5.310200 0
M  V30 END ATOM
M  V30 BEGIN BOND
M  V30 1 2 1 2
M  V30 2 2 1 3
M  V30 3 1 1 7
M  V30 4 1 1 25
M  V30 5 1 4 30
M  V30 6 1 5 30
M  V30 7 2 6 9
M  V30 8 1 6 10
M  V30 9 1 7 11
M  V30 10 1 7 13
M  V30 11 1 8 12
M  V30 12 1 8 14
M  V30 13 1 8 15
M  V30 14 1 9 20
M  V30 15 2 10 26
M  V30 16 1 11 12
M  V30 17 1 13 16
M  V30 18 1 14 16
M  V30 19 1 15 27
M  V30 20 2 17 18
M  V30 21 1 17 22
M  V30 22 1 18 24
M  V30 23 1 19 21
M  V30 24 2 19 23
M  V30 25 2 20 28
M  V30 26 2 21 25
M  V30 27 2 22 27
M  V30 28 1 23 26
M  V30 29 2 24 29
M  V30 30 1 25 28
M  V30 31 1 26 28
M  V30 32 1 27 29
M  V30 33 1 29 30
M  V30 34 1 4 31
M  V30 35 1 5 32
M  V30 36 1 9 33
M  V30 37 1 10 34
M  V30 38 1 11 35
M  V30 39 1 11 36
M  V30 40 1 12 37
M  V30 41 1 12 38
M  V30 42 1 13 39
M  V30 43 1 13 40
M  V30 44 1 14 41
M  V30 45 1 14 42
M  V30 46 1 15 43
M  V30 47 1 15 44
M  V30 48 1 16 45
M  V30 49 1 16 46
M  V30 50 1 17 47
M  V30 51 1 18 48
M  V30 52 1 19 49
M  V30 53 1 20 50
M  V30 54 1 21 51
M  V30 55 1 22 52
M  V30 56 1 23 53
M  V30 57 1 24 54
M  V30 58 1 8 55 CFG=1
M  V30 END BOND
M  V30 END CTAB
M  END
>  <Ligand_Instance>  (80) 
6I2D_9LQ_A_401

>  <Dataset>  (80) 
PDB

>  <PDB_ID>  (80) 
6I2D

>  <Chain>  (80) 
A

>  <Resi>  (80) 
401

>  <Num_Resolved_Atoms>  (80) 
30

>  <Num_H_Atoms_ProtBoundConf>  (80) 
25

>  <Pocket>  (80) 
A

>  <Name>  (80) 
[2-[(4-isoquinolin-5-ylsulfonyl-1,4-diazepan-1-yl)methyl]phenyl]boronic acid

>  <Num_Not_Resolved_Atoms>  (80) 
0

>  <ATP_Site>  (80) 
True

>  <Peripheral>  (80) 
False

>  <Standardized_SMILES>  (80) 
[H]OB(O[H])C1=C([H])C([H])=C([H])C([H])=C1C([H])([H])[N@@+]1([H])C([H])([H])C([H])([H])N(S(=O)(=O)C2=C([H])C([H])=C([H])C3=C([H])N=C([H])C([H])=C32)C([H])([H])C([H])([H])C1([H])[H]

>  <2D_Mol_H>  (80) 
<rdkit.Chem.rdchem.Mol object at 0x77059d9e6730>

>  <MW>  (80) 
426.327

>  <HBA>  (80) 
5

>  <HBD>  (80) 
3

>  <LogP>  (80) 
-0.6059

>  <NRB>  (80) 
7

>  <TPSA>  (80) 
95.17

>  <Num_Heavy_Atoms>  (80) 
30

>  <Ro5>  (80) 
[True, True, True, True, True, True]

>  <Ro5_Fulfilled>  (80) 
True

>  <Ro3>  (80) 
[False, False, True, True]

>  <Ro3_Fulfilled>  (80) 
False

>  <Fsp3>  (80) 
0.285714

>  <Fsp3_0.42>  (80) 
False

>  <Fsp3_0.45>  (80) 
False

>  <Stereogenic_Carbons>  (80) 
0

>  <C_Atoms>  (80) 
21

>  <FCStereo>  (80) 
0.0

>  <SPS>  (80) 
548

>  <nSPS>  (80) 
18.266667

>  <PBF>  (80) 
1.235411

>  <PBF_0.6>  (80) 
True

>  <nPBF>  (80) 
0.04118

>  <nPBF_0.016>  (80) 
True

>  <PMI1>  (80) 
1386.529111

>  <PMI2>  (80) 
8183.921934

>  <PMI3>  (80) 
8226.809126

>  <NPR1>  (80) 
0.168538

>  <NPR2>  (80) 
0.994787

>  <Sum_NPR>  (80) 
1.163325

>  <Sum_NPR_1.07>  (80) 
True

>  <Sum_NPR_1.2>  (80) 
False

>  <MaxAbsEStateIndex>  (80) 
13.392542

>  <MaxEStateIndex>  (80) 
13.392542

>  <MinAbsEStateIndex>  (80) 
0.319073

>  <MinEStateIndex>  (80) 
-3.617627

>  <qed>  (80) 
0.473798

>  <MolWt>  (80) 
426.327

>  <HeavyAtomMolWt>  (80) 
401.127

>  <ExactMolWt>  (80) 
426.165334

>  <NumValenceElectrons>  (80) 
156

>  <NumRadicalElectrons>  (80) 
0

>  <MaxPartialCharge>  (80) 
0.488428

>  <MinPartialCharge>  (80) 
-0.423168

>  <MaxAbsPartialCharge>  (80) 
0.488428

>  <MinAbsPartialCharge>  (80) 
0.423168

>  <FpDensityMorgan1>  (80) 
1.033333

>  <FpDensityMorgan2>  (80) 
1.866667

>  <FpDensityMorgan3>  (80) 
2.7

>  <BCUT2D_MWHI>  (80) 
32.233428

>  <BCUT2D_MWLOW>  (80) 
9.767095

>  <BCUT2D_CHGHI>  (80) 
2.297856

>  <BCUT2D_CHGLO>  (80) 
-2.211151

>  <BCUT2D_LOGPHI>  (80) 
2.248417

>  <BCUT2D_LOGPLOW>  (80) 
-3.107912

>  <BCUT2D_MRHI>  (80) 
7.889656

>  <BCUT2D_MRLOW>  (80) 
-0.911282

>  <AvgIpc>  (80) 
2.99481

>  <BalabanJ>  (80) 
1.529212

>  <BertzCT>  (80) 
1134.559461

>  <Chi0>  (80) 
21.139617

>  <Chi0n>  (80) 
16.607093

>  <Chi0v>  (80) 
17.423589

>  <Chi1>  (80) 
14.464364

>  <Chi1n>  (80) 
10.070222

>  <Chi1v>  (80) 
11.510286

>  <Chi2n>  (80) 
7.609858

>  <Chi2v>  (80) 
9.516215

>  <Chi3n>  (80) 
5.684879

>  <Chi3v>  (80) 
7.641672

>  <Chi4n>  (80) 
4.115427

>  <Chi4v>  (80) 
5.809037

>  <HallKierAlpha>  (80) 
-2.295065

>  <Ipc>  (80) 
7678260.565908

>  <Kappa1>  (80) 
20.956745

>  <Kappa2>  (80) 
8.829043

>  <Kappa3>  (80) 
4.257317

>  <LabuteASA>  (80) 
176.335146

>  <PEOE_VSA1>  (80) 
14.947955

>  <PEOE_VSA10>  (80) 
6.544756

>  <PEOE_VSA11>  (80) 
0.0

>  <PEOE_VSA12>  (80) 
10.023291

>  <PEOE_VSA13>  (80) 
0.0

>  <PEOE_VSA14>  (80) 
7.118392

>  <PEOE_VSA2>  (80) 
4.983979

>  <PEOE_VSA3>  (80) 
8.417797

>  <PEOE_VSA4>  (80) 
4.305216

>  <PEOE_VSA5>  (80) 
0.0

>  <PEOE_VSA6>  (80) 
36.398202

>  <PEOE_VSA7>  (80) 
17.595537

>  <PEOE_VSA8>  (80) 
41.695165

>  <PEOE_VSA9>  (80) 
24.529753

>  <SMR_VSA1>  (80) 
23.365752

>  <SMR_VSA10>  (80) 
33.376935

>  <SMR_VSA2>  (80) 
0.0

>  <SMR_VSA3>  (80) 
9.289195

>  <SMR_VSA4>  (80) 
0.0

>  <SMR_VSA5>  (80) 
17.861062

>  <SMR_VSA6>  (80) 
26.179026

>  <SMR_VSA7>  (80) 
66.488075

>  <SMR_VSA8>  (80) 
0.0

>  <SMR_VSA9>  (80) 
0.0

>  <SlogP_VSA1>  (80) 
10.362713

>  <SlogP_VSA10>  (80) 
0.0

>  <SlogP_VSA11>  (80) 
0.0

>  <SlogP_VSA12>  (80) 
0.0

>  <SlogP_VSA2>  (80) 
61.052455

>  <SlogP_VSA3>  (80) 
16.568048

>  <SlogP_VSA4>  (80) 
0.0

>  <SlogP_VSA5>  (80) 
11.984273

>  <SlogP_VSA6>  (80) 
65.820107

>  <SlogP_VSA7>  (80) 
0.0

>  <SlogP_VSA8>  (80) 
10.772448

>  <SlogP_VSA9>  (80) 
0.0

>  <EState_VSA1>  (80) 
17.141683

>  <EState_VSA10>  (80) 
18.465842

>  <EState_VSA11>  (80) 
0.0

>  <EState_VSA2>  (80) 
0.0

>  <EState_VSA3>  (80) 
41.923537

>  <EState_VSA4>  (80) 
23.915254

>  <EState_VSA5>  (80) 
4.89991

>  <EState_VSA6>  (80) 
47.030738

>  <EState_VSA7>  (80) 
18.199101

>  <EState_VSA8>  (80) 
4.983979

>  <EState_VSA9>  (80) 
0.0

>  <VSA_EState1>  (80) 
28.356509

>  <VSA_EState10>  (80) 
0.0

>  <VSA_EState2>  (80) 
5.629409

>  <VSA_EState3>  (80) 
20.702694

>  <VSA_EState4>  (80) 
1.378194

>  <VSA_EState5>  (80) 
0.0

>  <VSA_EState6>  (80) 
14.287942

>  <VSA_EState7>  (80) 
4.030861

>  <VSA_EState8>  (80) 
2.990995

>  <VSA_EState9>  (80) 
-5.126604

>  <FractionCSP3>  (80) 
0.285714

>  <HeavyAtomCount>  (80) 
30

>  <NHOHCount>  (80) 
3

>  <NOCount>  (80) 
7

>  <NumAliphaticCarbocycles>  (80) 
0

>  <NumAliphaticHeterocycles>  (80) 
1

>  <NumAliphaticRings>  (80) 
1

>  <NumAromaticCarbocycles>  (80) 
2

>  <NumAromaticHeterocycles>  (80) 
1

>  <NumAromaticRings>  (80) 
3

>  <NumHAcceptors>  (80) 
5

>  <NumHDonors>  (80) 
3

>  <NumHeteroatoms>  (80) 
9

>  <NumRotatableBonds>  (80) 
5

>  <NumSaturatedCarbocycles>  (80) 
0

>  <NumSaturatedHeterocycles>  (80) 
1

>  <NumSaturatedRings>  (80) 
1

>  <RingCount>  (80) 
4

>  <MolLogP>  (80) 
-0.6059

>  <MolMR>  (80) 
115.7871

>  <fr_Al_COO>  (80) 
0

>  <fr_Al_OH>  (80) 
0

>  <fr_Al_OH_noTert>  (80) 
0

>  <fr_ArN>  (80) 
0

>  <fr_Ar_COO>  (80) 
0

>  <fr_Ar_N>  (80) 
1

>  <fr_Ar_NH>  (80) 
0

>  <fr_Ar_OH>  (80) 
0

>  <fr_COO>  (80) 
0

>  <fr_COO2>  (80) 
0

>  <fr_C_O>  (80) 
0

>  <fr_C_O_noCOO>  (80) 
0

>  <fr_C_S>  (80) 
0

>  <fr_HOCCN>  (80) 
0

>  <fr_Imine>  (80) 
0

>  <fr_NH0>  (80) 
2

>  <fr_NH1>  (80) 
1

>  <fr_NH2>  (80) 
0

>  <fr_N_O>  (80) 
0

>  <fr_Ndealkylation1>  (80) 
0

>  <fr_Ndealkylation2>  (80) 
0

>  <fr_Nhpyrrole>  (80) 
0

>  <fr_SH>  (80) 
0

>  <fr_aldehyde>  (80) 
0

>  <fr_alkyl_carbamate>  (80) 
0

>  <fr_alkyl_halide>  (80) 
0

>  <fr_allylic_oxid>  (80) 
0

>  <fr_amide>  (80) 
0

>  <fr_amidine>  (80) 
0

>  <fr_aniline>  (80) 
0

>  <fr_aryl_methyl>  (80) 
0

>  <fr_azide>  (80) 
0

>  <fr_azo>  (80) 
0

>  <fr_barbitur>  (80) 
0

>  <fr_benzene>  (80) 
2

>  <fr_benzodiazepine>  (80) 
0

>  <fr_bicyclic>  (80) 
1

>  <fr_diazo>  (80) 
0

>  <fr_dihydropyridine>  (80) 
0

>  <fr_epoxide>  (80) 
0

>  <fr_ester>  (80) 
0

>  <fr_ether>  (80) 
0

>  <fr_furan>  (80) 
0

>  <fr_guanido>  (80) 
0

>  <fr_halogen>  (80) 
0

>  <fr_hdrzine>  (80) 
0

>  <fr_hdrzone>  (80) 
0

>  <fr_imidazole>  (80) 
0

>  <fr_imide>  (80) 
0

>  <fr_isocyan>  (80) 
0

>  <fr_isothiocyan>  (80) 
0

>  <fr_ketone>  (80) 
0

>  <fr_ketone_Topliss>  (80) 
0

>  <fr_lactam>  (80) 
0

>  <fr_lactone>  (80) 
0

>  <fr_methoxy>  (80) 
0

>  <fr_morpholine>  (80) 
0

>  <fr_nitrile>  (80) 
0

>  <fr_nitro>  (80) 
0

>  <fr_nitro_arom>  (80) 
0

>  <fr_nitro_arom_nonortho>  (80) 
0

>  <fr_nitroso>  (80) 
0

>  <fr_oxazole>  (80) 
0

>  <fr_oxime>  (80) 
0

>  <fr_para_hydroxylation>  (80) 
0

>  <fr_phenol>  (80) 
0

>  <fr_phenol_noOrthoHbond>  (80) 
0

>  <fr_phos_acid>  (80) 
0

>  <fr_phos_ester>  (80) 
0

>  <fr_piperdine>  (80) 
0

>  <fr_piperzine>  (80) 
0

>  <fr_priamide>  (80) 
0

>  <fr_prisulfonamd>  (80) 
0

>  <fr_pyridine>  (80) 
1

>  <fr_quatN>  (80) 
1

>  <fr_sulfide>  (80) 
0

>  <fr_sulfonamd>  (80) 
1

>  <fr_sulfone>  (80) 
0

>  <fr_term_acetylene>  (80) 
0

>  <fr_tetrazole>  (80) 
0

>  <fr_thiazole>  (80) 
0

>  <fr_thiocyan>  (80) 
0

>  <fr_thiophene>  (80) 
0

>  <fr_unbrch_alkane>  (80) 
0

>  <fr_urea>  (80) 
0

>  <NP_Likeness>  (80) 
-1.032216

$$$$
9NT
     RDKit          3D

  0  0  0  0  0  0  0  0  0  0999 V3000
M  V30 BEGIN CTAB
M  V30 COUNTS 28 29 0 0 0
M  V30 BEGIN ATOM
M  V30 1 O -12.431000 23.767000 -26.113000 0
M  V30 2 O -17.133000 25.912000 -22.478000 0
M  V30 3 O -16.327000 23.849000 -23.168000 0
M  V30 4 N -10.227000 24.115000 -27.608000 0 CHG=1
M  V30 5 N -13.000000 25.973000 -26.110000 0
M  V30 6 C -9.304000 24.097000 -26.433000 0
M  V30 7 C -17.219000 24.485000 -22.291000 0
M  V30 8 C -11.192000 25.258000 -27.536000 0
M  V30 9 C -15.623000 27.275000 -23.874000 0
M  V30 10 C -14.562000 27.201000 -24.760000 0
M  V30 11 C -14.669000 24.789000 -24.759000 0
M  V30 12 C -12.271000 24.920000 -26.514000 0
M  V30 13 C -16.165000 26.094000 -23.418000 0
M  V30 14 C -15.684000 24.873000 -23.836000 0
M  V30 15 C -14.087000 25.969000 -25.204000 0
M  V30 16 H -10.741100 23.257500 -27.629600 0
M  V30 17 H -12.745700 26.861100 -26.493000 0
M  V30 18 H -8.675900 23.323200 -26.514400 0
M  V30 19 H -8.781400 24.949200 -26.406500 0
M  V30 20 H -9.837000 24.006600 -25.591800 0
M  V30 21 H -18.151400 24.178400 -22.482200 0
M  V30 22 H -16.979900 24.256500 -21.347300 0
M  V30 23 H -11.610600 25.402400 -28.432600 0
M  V30 24 H -10.710400 26.088300 -27.255400 0
M  V30 25 H -15.984400 28.158000 -23.574600 0
M  V30 26 H -14.131000 28.042600 -25.085500 0
M  V30 27 H -14.358000 23.902200 -25.100900 0
M  V30 28 H -9.685500 24.200100 -28.444400 0
M  V30 END ATOM
M  V30 BEGIN BOND
M  V30 1 2 1 12
M  V30 2 1 2 7
M  V30 3 1 2 13
M  V30 4 1 3 7
M  V30 5 1 3 14
M  V30 6 1 4 6
M  V30 7 1 4 8
M  V30 8 1 5 12
M  V30 9 1 5 15
M  V30 10 1 8 12
M  V30 11 1 9 10
M  V30 12 2 9 13
M  V30 13 2 10 15
M  V30 14 2 11 14
M  V30 15 1 11 15
M  V30 16 1 13 14
M  V30 17 1 4 16
M  V30 18 1 5 17
M  V30 19 1 6 18
M  V30 20 1 6 19
M  V30 21 1 6 20
M  V30 22 1 7 21
M  V30 23 1 7 22
M  V30 24 1 8 23
M  V30 25 1 8 24
M  V30 26 1 9 25
M  V30 27 1 10 26
M  V30 28 1 11 27
M  V30 29 1 4 28
M  V30 END BOND
M  V30 END CTAB
M  END
>  <Ligand_Instance>  (81) 
5N1E_9NT_A_402

>  <Dataset>  (81) 
PDB

>  <PDB_ID>  (81) 
5N1E

>  <Chain>  (81) 
A

>  <Resi>  (81) 
402

>  <Num_Resolved_Atoms>  (81) 
15

>  <Num_H_Atoms_ProtBoundConf>  (81) 
13

>  <Pocket>  (81) 
A

>  <Name>  (81) 
~{N}-(1,3-benzodioxol-5-yl)-2-piperidin-1-ium-1-yl-ethanamide

>  <Num_Not_Resolved_Atoms>  (81) 
4

>  <ATP_Site>  (81) 
True

>  <Peripheral>  (81) 
False

>  <Standardized_SMILES>  (81) 
[H]C1=C2OC([H])([H])OC2=C([H])C(N([H])C(=O)C([H])([H])[N+]([H])([H])C([H])([H])[H])=C1[H]

>  <2D_Mol_H>  (81) 
<rdkit.Chem.rdchem.Mol object at 0x77059d9e6810>

>  <MW>  (81) 
209.225

>  <HBA>  (81) 
3

>  <HBD>  (81) 
2

>  <LogP>  (81) 
-0.453

>  <NRB>  (81) 
4

>  <TPSA>  (81) 
64.17

>  <Num_Heavy_Atoms>  (81) 
15

>  <Ro5>  (81) 
[True, True, True, True, True, True]

>  <Ro5_Fulfilled>  (81) 
True

>  <Ro3>  (81) 
[True, True, True, True]

>  <Ro3_Fulfilled>  (81) 
True

>  <Fsp3>  (81) 
0.3

>  <Fsp3_0.42>  (81) 
False

>  <Fsp3_0.45>  (81) 
False

>  <Stereogenic_Carbons>  (81) 
0

>  <C_Atoms>  (81) 
10

>  <FCStereo>  (81) 
0.0

>  <SPS>  (81) 
189

>  <nSPS>  (81) 
12.6

>  <PBF>  (81) 
0.588113

>  <PBF_0.6>  (81) 
False

>  <nPBF>  (81) 
0.039208

>  <nPBF_0.016>  (81) 
True

>  <PMI1>  (81) 
294.102549

>  <PMI2>  (81) 
1952.657644

>  <PMI3>  (81) 
2157.693531

>  <NPR1>  (81) 
0.136304

>  <NPR2>  (81) 
0.904975

>  <Sum_NPR>  (81) 
1.041279

>  <Sum_NPR_1.07>  (81) 
False

>  <Sum_NPR_1.2>  (81) 
False

>  <MaxAbsEStateIndex>  (81) 
11.298212

>  <MaxEStateIndex>  (81) 
11.298212

>  <MinAbsEStateIndex>  (81) 
0.031143

>  <MinEStateIndex>  (81) 
-0.031143

>  <qed>  (81) 
0.708163

>  <MolWt>  (81) 
209.225

>  <HeavyAtomMolWt>  (81) 
196.121

>  <ExactMolWt>  (81) 
209.092069

>  <NumValenceElectrons>  (81) 
80

>  <NumRadicalElectrons>  (81) 
0

>  <MaxPartialCharge>  (81) 
0.278972

>  <MinPartialCharge>  (81) 
-0.453593

>  <MaxAbsPartialCharge>  (81) 
0.453593

>  <MinAbsPartialCharge>  (81) 
0.278972

>  <FpDensityMorgan1>  (81) 
1.466667

>  <FpDensityMorgan2>  (81) 
2.266667

>  <FpDensityMorgan3>  (81) 
3.066667

>  <BCUT2D_MWHI>  (81) 
16.696717

>  <BCUT2D_MWLOW>  (81) 
10.251428

>  <BCUT2D_CHGHI>  (81) 
2.135038

>  <BCUT2D_CHGLO>  (81) 
-2.036022

>  <BCUT2D_LOGPHI>  (81) 
2.33514

>  <BCUT2D_LOGPLOW>  (81) 
-2.815882

>  <BCUT2D_MRHI>  (81) 
5.912507

>  <BCUT2D_MRLOW>  (81) 
-0.614598

>  <AvgIpc>  (81) 
2.645733

>  <BalabanJ>  (81) 
2.064975

>  <BertzCT>  (81) 
378.930292

>  <Chi0>  (81) 
10.673362

>  <Chi0n>  (81) 
8.44836

>  <Chi0v>  (81) 
8.44836

>  <Chi1>  (81) 
7.292025

>  <Chi1n>  (81) 
4.766909

>  <Chi1v>  (81) 
4.766909

>  <Chi2n>  (81) 
3.228589

>  <Chi2v>  (81) 
3.228589

>  <Chi3n>  (81) 
2.045846

>  <Chi3v>  (81) 
2.045846

>  <Chi4n>  (81) 
1.371709

>  <Chi4v>  (81) 
1.371709

>  <HallKierAlpha>  (81) 
-1.75

>  <Ipc>  (81) 
4103.532597

>  <Kappa1>  (81) 
9.791705

>  <Kappa2>  (81) 
4.183884

>  <Kappa3>  (81) 
2.188569

>  <LabuteASA>  (81) 
87.373677

>  <PEOE_VSA1>  (81) 
20.107303

>  <PEOE_VSA10>  (81) 
0.0

>  <PEOE_VSA11>  (81) 
18.04378

>  <PEOE_VSA12>  (81) 
6.792942

>  <PEOE_VSA13>  (81) 
5.90718

>  <PEOE_VSA14>  (81) 
0.0

>  <PEOE_VSA2>  (81) 
4.794537

>  <PEOE_VSA3>  (81) 
0.0

>  <PEOE_VSA4>  (81) 
0.0

>  <PEOE_VSA5>  (81) 
0.0

>  <PEOE_VSA6>  (81) 
0.0

>  <PEOE_VSA7>  (81) 
12.132734

>  <PEOE_VSA8>  (81) 
11.753753

>  <PEOE_VSA9>  (81) 
7.047672

>  <SMR_VSA1>  (81) 
19.585052

>  <SMR_VSA10>  (81) 
11.594566

>  <SMR_VSA2>  (81) 
0.0

>  <SMR_VSA3>  (81) 
0.0

>  <SMR_VSA4>  (81) 
0.0

>  <SMR_VSA5>  (81) 
0.0

>  <SMR_VSA6>  (81) 
25.702159

>  <SMR_VSA7>  (81) 
18.199101

>  <SMR_VSA8>  (81) 
0.0

>  <SMR_VSA9>  (81) 
11.499024

>  <SlogP_VSA1>  (81) 
20.107303

>  <SlogP_VSA10>  (81) 
5.687386

>  <SlogP_VSA11>  (81) 
11.499024

>  <SlogP_VSA12>  (81) 
0.0

>  <SlogP_VSA2>  (81) 
26.29255

>  <SlogP_VSA3>  (81) 
4.794537

>  <SlogP_VSA4>  (81) 
0.0

>  <SlogP_VSA5>  (81) 
0.0

>  <SlogP_VSA6>  (81) 
18.199101

>  <SlogP_VSA7>  (81) 
0.0

>  <SlogP_VSA8>  (81) 
0.0

>  <SlogP_VSA9>  (81) 
0.0

>  <EState_VSA1>  (81) 
0.0

>  <EState_VSA10>  (81) 
4.794537

>  <EState_VSA11>  (81) 
0.0

>  <EState_VSA2>  (81) 
12.700122

>  <EState_VSA3>  (81) 
12.294268

>  <EState_VSA4>  (81) 
11.436898

>  <EState_VSA5>  (81) 
0.0

>  <EState_VSA6>  (81) 
18.199101

>  <EState_VSA7>  (81) 
12.364461

>  <EState_VSA8>  (81) 
5.316789

>  <EState_VSA9>  (81) 
9.473726

>  <VSA_EState1>  (81) 
10.364118

>  <VSA_EState10>  (81) 
0.0

>  <VSA_EState2>  (81) 
11.298212

>  <VSA_EState3>  (81) 
4.574654

>  <VSA_EState4>  (81) 
0.72787

>  <VSA_EState5>  (81) 
1.36083

>  <VSA_EState6>  (81) 
5.33787

>  <VSA_EState7>  (81) 
0.0

>  <VSA_EState8>  (81) 
0.65666

>  <VSA_EState9>  (81) 
1.846453

>  <FractionCSP3>  (81) 
0.3

>  <HeavyAtomCount>  (81) 
15

>  <NHOHCount>  (81) 
3

>  <NOCount>  (81) 
5

>  <NumAliphaticCarbocycles>  (81) 
0

>  <NumAliphaticHeterocycles>  (81) 
1

>  <NumAliphaticRings>  (81) 
1

>  <NumAromaticCarbocycles>  (81) 
1

>  <NumAromaticHeterocycles>  (81) 
0

>  <NumAromaticRings>  (81) 
1

>  <NumHAcceptors>  (81) 
3

>  <NumHDonors>  (81) 
2

>  <NumHeteroatoms>  (81) 
5

>  <NumRotatableBonds>  (81) 
3

>  <NumSaturatedCarbocycles>  (81) 
0

>  <NumSaturatedHeterocycles>  (81) 
0

>  <NumSaturatedRings>  (81) 
0

>  <RingCount>  (81) 
2

>  <MolLogP>  (81) 
-0.453

>  <MolMR>  (81) 
53.9111

>  <fr_Al_COO>  (81) 
0

>  <fr_Al_OH>  (81) 
0

>  <fr_Al_OH_noTert>  (81) 
0

>  <fr_ArN>  (81) 
0

>  <fr_Ar_COO>  (81) 
0

>  <fr_Ar_N>  (81) 
0

>  <fr_Ar_NH>  (81) 
0

>  <fr_Ar_OH>  (81) 
0

>  <fr_COO>  (81) 
0

>  <fr_COO2>  (81) 
0

>  <fr_C_O>  (81) 
1

>  <fr_C_O_noCOO>  (81) 
1

>  <fr_C_S>  (81) 
0

>  <fr_HOCCN>  (81) 
0

>  <fr_Imine>  (81) 
0

>  <fr_NH0>  (81) 
0

>  <fr_NH1>  (81) 
1

>  <fr_NH2>  (81) 
1

>  <fr_N_O>  (81) 
0

>  <fr_Ndealkylation1>  (81) 
1

>  <fr_Ndealkylation2>  (81) 
0

>  <fr_Nhpyrrole>  (81) 
0

>  <fr_SH>  (81) 
0

>  <fr_aldehyde>  (81) 
0

>  <fr_alkyl_carbamate>  (81) 
0

>  <fr_alkyl_halide>  (81) 
0

>  <fr_allylic_oxid>  (81) 
0

>  <fr_amide>  (81) 
1

>  <fr_amidine>  (81) 
0

>  <fr_aniline>  (81) 
1

>  <fr_aryl_methyl>  (81) 
0

>  <fr_azide>  (81) 
0

>  <fr_azo>  (81) 
0

>  <fr_barbitur>  (81) 
0

>  <fr_benzene>  (81) 
1

>  <fr_benzodiazepine>  (81) 
0

>  <fr_bicyclic>  (81) 
1

>  <fr_diazo>  (81) 
0

>  <fr_dihydropyridine>  (81) 
0

>  <fr_epoxide>  (81) 
0

>  <fr_ester>  (81) 
0

>  <fr_ether>  (81) 
2

>  <fr_furan>  (81) 
0

>  <fr_guanido>  (81) 
0

>  <fr_halogen>  (81) 
0

>  <fr_hdrzine>  (81) 
0

>  <fr_hdrzone>  (81) 
0

>  <fr_imidazole>  (81) 
0

>  <fr_imide>  (81) 
0

>  <fr_isocyan>  (81) 
0

>  <fr_isothiocyan>  (81) 
0

>  <fr_ketone>  (81) 
0

>  <fr_ketone_Topliss>  (81) 
0

>  <fr_lactam>  (81) 
0

>  <fr_lactone>  (81) 
0

>  <fr_methoxy>  (81) 
0

>  <fr_morpholine>  (81) 
0

>  <fr_nitrile>  (81) 
0

>  <fr_nitro>  (81) 
0

>  <fr_nitro_arom>  (81) 
0

>  <fr_nitro_arom_nonortho>  (81) 
0

>  <fr_nitroso>  (81) 
0

>  <fr_oxazole>  (81) 
0

>  <fr_oxime>  (81) 
0

>  <fr_para_hydroxylation>  (81) 
0

>  <fr_phenol>  (81) 
0

>  <fr_phenol_noOrthoHbond>  (81) 
0

>  <fr_phos_acid>  (81) 
0

>  <fr_phos_ester>  (81) 
0

>  <fr_piperdine>  (81) 
0

>  <fr_piperzine>  (81) 
0

>  <fr_priamide>  (81) 
0

>  <fr_prisulfonamd>  (81) 
0

>  <fr_pyridine>  (81) 
0

>  <fr_quatN>  (81) 
1

>  <fr_sulfide>  (81) 
0

>  <fr_sulfonamd>  (81) 
0

>  <fr_sulfone>  (81) 
0

>  <fr_term_acetylene>  (81) 
0

>  <fr_tetrazole>  (81) 
0

>  <fr_thiazole>  (81) 
0

>  <fr_thiocyan>  (81) 
0

>  <fr_thiophene>  (81) 
0

>  <fr_unbrch_alkane>  (81) 
0

>  <fr_urea>  (81) 
0

>  <NP_Likeness>  (81) 
-0.979466

$$$$
A02
     RDKit          3D

  0  0  0  0  0  0  0  0  0  0999 V3000
M  V30 BEGIN CTAB
M  V30 COUNTS 140 142 0 0 0
M  V30 BEGIN ATOM
M  V30 1 O 14.818000 17.037000 3.109000 0
M  V30 2 O 15.948000 1.304000 4.678000 0
M  V30 3 O 17.531000 11.424000 1.274000 0
M  V30 4 O 11.519000 4.303000 10.537000 0
M  V30 5 O 15.731000 4.685000 5.008000 0
M  V30 6 O 16.280000 14.154000 1.455000 0
M  V30 7 O 9.735000 8.068000 12.479000 0
M  V30 8 O 8.391000 7.599000 10.228000 0
M  V30 9 O 8.910000 4.817000 11.234000 0
M  V30 10 N 20.210000 8.202000 8.227000 0 CHG=1
M  V30 11 N 16.150000 17.951000 1.530000 0
M  V30 12 N 16.967000 17.909000 9.101000 0 CHG=1
M  V30 13 N 18.178000 19.816000 8.648000 0
M  V30 14 N 12.255000 15.444000 1.040000 0 CHG=1
M  V30 15 N 12.312000 13.620000 -0.352000 0
M  V30 16 N 10.190000 3.130000 17.681000 0
M  V30 17 N 8.133000 4.103000 17.198000 0
M  V30 18 N 18.343000 18.071000 7.213000 0
M  V30 19 N 12.756000 13.316000 1.878000 0
M  V30 20 N 7.733000 5.107000 15.141000 0
M  V30 21 N 11.175000 4.898000 8.366000 0
M  V30 22 N 16.952000 4.645000 3.112000 0
M  V30 23 N 10.987000 3.930000 14.943000 0
M  V30 24 N 17.172000 2.585000 6.114000 0
M  V30 25 N 15.541000 11.690000 2.345000 0
M  V30 26 N 16.769000 14.985000 3.502000 0
M  V30 27 N 9.626000 5.008000 13.588000 0
M  V30 28 C 7.326000 4.763000 16.356000 0
M  V30 29 C 19.814000 6.785000 8.317000 0
M  V30 30 C 10.847000 4.467000 13.726000 0
M  V30 31 C 18.052000 16.745000 6.677000 0
M  V30 32 C 12.921000 13.754000 3.277000 0
M  V30 33 C 12.469000 4.444000 7.827000 0
M  V30 34 C 16.023000 5.486000 2.323000 0
M  V30 35 C 19.963000 6.110000 6.945000 0
M  V30 36 C 12.593000 2.919000 7.797000 0
M  V30 37 C 16.619000 6.880000 2.097000 0
M  V30 38 C 17.088000 16.925000 5.509000 0
M  V30 39 C 13.528000 12.591000 4.078000 0
M  V30 40 C 13.976000 2.580000 7.234000 0
M  V30 41 C 15.632000 7.769000 1.331000 0
M  V30 42 C 18.676000 5.354000 6.553000 0
M  V30 43 C 14.284000 1.079000 7.273000 0
M  V30 44 C 16.353000 8.796000 0.452000 0
M  V30 45 C 15.784000 0.810000 7.041000 0
M  V30 46 C 15.639000 10.158000 0.465000 0
M  V30 47 C 17.841000 17.095000 4.188000 0
M  V30 48 C 14.985000 12.864000 4.490000 0
M  V30 49 C 19.006000 4.214000 5.584000 0
M  V30 50 C 15.917000 17.140000 2.560000 0
M  V30 51 C 17.812000 18.584000 8.322000 0
M  V30 52 C 12.438000 14.136000 0.867000 0
M  V30 53 C 16.325000 1.585000 5.822000 0
M  V30 54 C 16.333000 11.155000 1.408000 0
M  V30 55 C 10.826000 4.824000 9.651000 0
M  V30 56 C 16.723000 4.327000 4.385000 0
M  V30 57 C 16.370000 14.016000 2.675000 0
M  V30 58 C 9.081000 5.728000 12.359000 0 CFG=1
M  V30 59 C 10.024000 6.832000 11.842000 0 CFG=1
M  V30 60 C 9.651000 6.915000 10.373000 0 CFG=1
M  V30 61 C 9.385000 3.773000 16.842000 0
M  V30 62 C 9.464000 5.438000 10.026000 0 CFG=2
M  V30 63 C 8.969000 4.792000 14.723000 0
M  V30 64 C 17.148000 16.341000 3.046000 0 CFG=2
M  V30 65 C 17.788000 3.424000 5.054000 0 CFG=2
M  V30 66 C 16.022000 12.668000 3.352000 0 CFG=2
M  V30 67 C 9.831000 4.117000 15.577000 0
M  V30 68 H 9.050400 8.565500 11.946300 0
M  V30 69 H 7.644800 6.934200 10.263400 0
M  V30 70 H 19.411400 8.757200 7.994700 0
M  V30 71 H 20.579600 8.501300 9.106700 0
M  V30 72 H 17.062700 17.993700 1.123700 0
M  V30 73 H 15.412200 18.517400 1.162700 0
M  V30 74 H 16.692200 16.979900 8.853400 0
M  V30 75 H 16.607800 18.331600 9.933100 0
M  V30 76 H 18.812100 20.320800 8.062200 0
M  V30 77 H 12.346600 15.845500 1.951300 0
M  V30 78 H 12.026000 16.024500 0.258600 0
M  V30 79 H 12.446600 12.639700 -0.496400 0
M  V30 80 H 12.082600 14.212300 -1.124400 0
M  V30 81 H 11.119400 2.892200 17.398800 0
M  V30 82 H 9.866400 2.883800 18.594600 0
M  V30 83 H 18.992400 18.639500 6.707800 0
M  V30 84 H 10.513900 5.287900 7.725000 0
M  V30 85 H 17.782600 4.302900 2.672500 0
M  V30 86 H 17.394300 2.770100 7.071200 0
M  V30 87 H 14.579100 11.417600 2.367500 0
M  V30 88 H 16.814200 14.784200 4.480600 0
M  V30 89 H 6.399900 5.000600 16.648900 0
M  V30 90 H 18.860800 6.725700 8.613600 0
M  V30 91 H 20.399200 6.319100 8.980700 0
M  V30 92 H 11.553100 4.465700 13.017900 0
M  V30 93 H 17.630500 16.176100 7.383200 0
M  V30 94 H 18.895800 16.312100 6.359800 0
M  V30 95 H 12.031400 14.001300 3.661100 0
M  V30 96 H 13.531600 14.545100 3.313900 0
M  V30 97 H 13.201300 4.813500 8.399000 0
M  V30 98 H 12.566900 4.791500 6.894400 0
M  V30 99 H 15.158500 5.574200 2.817800 0
M  V30 100 H 15.857500 5.051600 1.437600 0
M  V30 101 H 20.723900 5.462100 6.981000 0
M  V30 102 H 20.153200 6.809500 6.256100 0
M  V30 103 H 11.881500 2.530200 7.211700 0
M  V30 104 H 12.501500 2.550900 8.722300 0
M  V30 105 H 17.463600 6.794900 1.568500 0
M  V30 106 H 16.820500 7.299100 2.982300 0
M  V30 107 H 16.527600 17.737100 5.671400 0
M  V30 108 H 16.498100 16.120000 5.446400 0
M  V30 109 H 13.502300 11.764800 3.515200 0
M  V30 110 H 12.981500 12.449200 4.903400 0
M  V30 111 H 14.666900 3.061700 7.773200 0
M  V30 112 H 14.018700 2.890000 6.284200 0
M  V30 113 H 15.055800 8.254000 1.988900 0
M  V30 114 H 15.059800 7.190600 0.749600 0
M  V30 115 H 18.041300 5.988800 6.112300 0
M  V30 116 H 18.251600 4.975700 7.375700 0
M  V30 117 H 13.756100 0.619300 6.558800 0
M  V30 118 H 14.022200 0.715700 8.167100 0
M  V30 119 H 16.382400 8.454600 -0.487500 0
M  V30 120 H 17.285600 8.915900 0.792400 0
M  V30 121 H 15.916900 -0.169100 6.886700 0
M  V30 122 H 16.292600 1.091300 7.854700 0
M  V30 123 H 14.695700 10.026500 0.769800 0
M  V30 124 H 15.640600 10.533600 -0.461800 0
M  V30 125 H 18.769800 16.740300 4.295200 0
M  V30 126 H 17.880000 18.067600 3.958900 0
M  V30 127 H 15.220100 12.242700 5.237500 0
M  V30 128 H 15.047300 13.809300 4.810200 0
M  V30 129 H 19.609000 3.571500 6.056800 0
M  V30 130 H 19.485900 4.605200 4.798700 0
M  V30 131 H 8.196300 6.135200 12.585700 0
M  V30 132 H 10.983500 6.576600 11.960500 0
M  V30 133 H 10.372900 7.339700 9.826600 0
M  V30 134 H 8.822400 5.342200 9.265000 0
M  V30 135 H 17.791400 16.253200 2.285500 0
M  V30 136 H 18.127800 2.801400 4.349100 0
M  V30 137 H 16.859500 12.303300 3.758900 0
M  V30 138 H 20.907700 8.308800 7.518600 0
M  V30 139 H 17.820000 20.240400 9.479700 0
M  V30 140 H 12.889800 12.346800 1.671300 0
M  V30 END ATOM
M  V30 BEGIN BOND
M  V30 1 2 1 50
M  V30 2 2 2 53
M  V30 3 2 3 54
M  V30 4 2 4 55
M  V30 5 2 5 56
M  V30 6 2 6 57
M  V30 7 1 7 59
M  V30 8 1 8 60
M  V30 9 1 9 58
M  V30 10 1 9 62
M  V30 11 1 10 29
M  V30 12 1 11 50
M  V30 13 2 12 51
M  V30 14 1 13 51
M  V30 15 2 14 52
M  V30 16 1 15 52
M  V30 17 1 16 61
M  V30 18 2 17 28
M  V30 19 1 17 61
M  V30 20 1 18 31
M  V30 21 1 18 51
M  V30 22 1 19 32
M  V30 23 1 19 52
M  V30 24 1 20 28
M  V30 25 2 20 63
M  V30 26 1 21 33
M  V30 27 1 21 55
M  V30 28 1 22 34
M  V30 29 1 22 56
M  V30 30 2 23 30
M  V30 31 1 23 67
M  V30 32 1 24 53
M  V30 33 1 24 65
M  V30 34 1 25 54
M  V30 35 1 25 66
M  V30 36 1 26 57
M  V30 37 1 26 64
M  V30 38 1 27 30
M  V30 39 1 27 58
M  V30 40 1 27 63
M  V30 41 1 29 35
M  V30 42 1 31 38
M  V30 43 1 32 39
M  V30 44 1 33 36
M  V30 45 1 34 37
M  V30 46 1 35 42
M  V30 47 1 36 40
M  V30 48 1 37 41
M  V30 49 1 38 47
M  V30 50 1 39 48
M  V30 51 1 40 43
M  V30 52 1 41 44
M  V30 53 1 42 49
M  V30 54 1 43 45
M  V30 55 1 44 46
M  V30 56 1 45 53
M  V30 57 1 46 54
M  V30 58 1 47 64
M  V30 59 1 48 66
M  V30 60 1 49 65
M  V30 61 1 50 64
M  V30 62 1 55 62
M  V30 63 1 56 65
M  V30 64 1 57 66
M  V30 65 1 58 59
M  V30 66 1 59 60
M  V30 67 1 60 62
M  V30 68 2 61 67
M  V30 69 1 63 67
M  V30 70 1 7 68
M  V30 71 1 8 69
M  V30 72 1 10 70
M  V30 73 1 10 71
M  V30 74 1 11 72
M  V30 75 1 11 73
M  V30 76 1 12 74
M  V30 77 1 12 75
M  V30 78 1 13 76
M  V30 79 1 14 77
M  V30 80 1 14 78
M  V30 81 1 15 79
M  V30 82 1 15 80
M  V30 83 1 16 81
M  V30 84 1 16 82
M  V30 85 1 18 83
M  V30 86 1 21 84
M  V30 87 1 22 85
M  V30 88 1 24 86
M  V30 89 1 25 87
M  V30 90 1 26 88
M  V30 91 1 28 89
M  V30 92 1 29 90
M  V30 93 1 29 91
M  V30 94 1 30 92
M  V30 95 1 31 93
M  V30 96 1 31 94
M  V30 97 1 32 95
M  V30 98 1 32 96
M  V30 99 1 33 97
M  V30 100 1 33 98
M  V30 101 1 34 99
M  V30 102 1 34 100
M  V30 103 1 35 101
M  V30 104 1 35 102
M  V30 105 1 36 103
M  V30 106 1 36 104
M  V30 107 1 37 105
M  V30 108 1 37 106
M  V30 109 1 38 107
M  V30 110 1 38 108
M  V30 111 1 39 109
M  V30 112 1 39 110
M  V30 113 1 40 111
M  V30 114 1 40 112
M  V30 115 1 41 113
M  V30 116 1 41 114
M  V30 117 1 42 115
M  V30 118 1 42 116
M  V30 119 1 43 117
M  V30 120 1 43 118
M  V30 121 1 44 119
M  V30 122 1 44 120
M  V30 123 1 45 121
M  V30 124 1 45 122
M  V30 125 1 46 123
M  V30 126 1 46 124
M  V30 127 1 47 125
M  V30 128 1 47 126
M  V30 129 1 48 127
M  V30 130 1 48 128
M  V30 131 1 49 129
M  V30 132 1 49 130
M  V30 133 1 58 131 CFG=1
M  V30 134 1 59 132 CFG=3
M  V30 135 1 60 133 CFG=3
M  V30 136 1 62 134 CFG=3
M  V30 137 1 64 135 CFG=3
M  V30 138 1 65 136 CFG=3
M  V30 139 1 66 137 CFG=1
M  V30 140 1 10 138
M  V30 141 1 13 139
M  V30 142 1 19 140
M  V30 END BOND
M  V30 END CTAB
M  END
>  <Ligand_Instance>  (82) 
3AG9_A02_B_351

>  <Dataset>  (82) 
PDB

>  <PDB_ID>  (82) 
3AG9

>  <Chain>  (82) 
B

>  <Resi>  (82) 
351

>  <Num_Resolved_Atoms>  (82) 
67

>  <Num_H_Atoms_ProtBoundConf>  (82) 
73

>  <Pocket>  (82) 
A

>  <Name>  (82) 
(10R,20R,23R)-10-(4-aminobutyl)-1-[(2S,3S,4R,5R)-5-(6-amino-9H-purin-9-yl)-3,4-dihydroxytetrahydrofuran-2-yl]-20,23-bis(3-carbamimidamidopropyl)-1,8,11,18,21-pentaoxo-2,9,12,19,22-pentaazatetracosan-24-amide

>  <Num_Not_Resolved_Atoms>  (82) 
0

>  <ATP_Site>  (82) 
True

>  <Peripheral>  (82) 
False

>  <Standardized_SMILES>  (82) 
[H]O[C@@]1([H])[C@@]([H])(O[H])[C@]([H])(N2C([H])=NC3=C2N=C([H])N=C3N([H])[H])O[C@]1([H])C(=O)N([H])C([H])([H])C([H])([H])C([H])([H])C([H])([H])C([H])([H])C(=O)N([H])[C@@]([H])(C(=O)N([H])C([H])([H])C([H])([H])C([H])([H])C([H])([H])C([H])([H])C(=O)N([H])[C@@]([H])(C(=O)N([H])[C@@]([H])(C(=O)N([H])[H])C([H])([H])C([H])([H])C([H])([H])N([H])C(N([H])[H])=[N+]([H])[H])C([H])([H])C([H])([H])C([H])([H])N([H])C(N([H])[H])=[N+]([H])[H])C([H])([H])C([H])([H])C([H])([H])C([H])([H])[N+]([H])([H])[H]

>  <2D_Mol_H>  (82) 
<rdkit.Chem.rdchem.Mol object at 0x77059d9e68f0>

>  <MW>  (82) 
950.141

>  <HBA>  (82) 
14

>  <HBD>  (82) 
16

>  <LogP>  (82) 
-8.38

>  <NRB>  (82) 
36

>  <TPSA>  (82) 
462.82

>  <Num_Heavy_Atoms>  (82) 
67

>  <Ro5>  (82) 
[False, False, False, True, False, False]

>  <Ro5_Fulfilled>  (82) 
False

>  <Ro3>  (82) 
[False, False, False, True]

>  <Ro3_Fulfilled>  (82) 
False

>  <Fsp3>  (82) 
0.675

>  <Fsp3_0.42>  (82) 
True

>  <Fsp3_0.45>  (82) 
True

>  <Stereogenic_Carbons>  (82) 
7

>  <C_Atoms>  (82) 
40

>  <FCStereo>  (82) 
0.175

>  <SPS>  (82) 
1203

>  <nSPS>  (82) 
17.955224

>  <PBF>  (82) 
2.197309

>  <PBF_0.6>  (82) 
True

>  <nPBF>  (82) 
0.032796

>  <nPBF_0.016>  (82) 
True

>  <PMI1>  (82) 
20337.290672

>  <PMI2>  (82) 
47025.645382

>  <PMI3>  (82) 
56298.891597

>  <NPR1>  (82) 
0.361238

>  <NPR2>  (82) 
0.835285

>  <Sum_NPR>  (82) 
1.196523

>  <Sum_NPR_1.07>  (82) 
True

>  <Sum_NPR_1.2>  (82) 
False

>  <MaxAbsEStateIndex>  (82) 
13.203161

>  <MaxEStateIndex>  (82) 
13.203161

>  <MinAbsEStateIndex>  (82) 
0.01531

>  <MinEStateIndex>  (82) 
-1.514889

>  <qed>  (82) 
0.018395

>  <MolWt>  (82) 
950.141

>  <HeavyAtomMolWt>  (82) 
876.557

>  <ExactMolWt>  (82) 
949.579145

>  <NumValenceElectrons>  (82) 
374

>  <NumRadicalElectrons>  (82) 
0

>  <MaxPartialCharge>  (82) 
0.338266

>  <MinPartialCharge>  (82) 
-0.386941

>  <MaxAbsPartialCharge>  (82) 
0.386941

>  <MinAbsPartialCharge>  (82) 
0.338266

>  <FpDensityMorgan1>  (82) 
0.671642

>  <FpDensityMorgan2>  (82) 
1.223881

>  <FpDensityMorgan3>  (82) 
1.80597

>  <BCUT2D_MWHI>  (82) 
16.559959

>  <BCUT2D_MWLOW>  (82) 
10.066156

>  <BCUT2D_CHGHI>  (82) 
2.474006

>  <BCUT2D_CHGLO>  (82) 
-2.217346

>  <BCUT2D_LOGPHI>  (82) 
2.317369

>  <BCUT2D_LOGPLOW>  (82) 
-2.553642

>  <BCUT2D_MRHI>  (82) 
5.914853

>  <BCUT2D_MRLOW>  (82) 
-0.368045

>  <AvgIpc>  (82) 
3.843155

>  <BalabanJ>  (82) 
1.35956

>  <BertzCT>  (82) 
1953.329079

>  <Chi0>  (82) 
49.304179

>  <Chi0n>  (82) 
38.050516

>  <Chi0v>  (82) 
38.050516

>  <Chi1>  (82) 
32.029891

>  <Chi1n>  (82) 
22.746811

>  <Chi1v>  (82) 
22.746811

>  <Chi2n>  (82) 
16.316541

>  <Chi2v>  (82) 
16.316541

>  <Chi3n>  (82) 
10.871178

>  <Chi3v>  (82) 
10.871178

>  <Chi4n>  (82) 
7.215424

>  <Chi4v>  (82) 
7.215424

>  <HallKierAlpha>  (82) 
-6.45

>  <Ipc>  (82) 
149950214833228.0625

>  <Kappa1>  (82) 
54.881131

>  <Kappa2>  (82) 
29.244396

>  <Kappa3>  (82) 
19.12549

>  <LabuteASA>  (82) 
387.548622

>  <PEOE_VSA1>  (82) 
58.734863

>  <PEOE_VSA10>  (82) 
42.177476

>  <PEOE_VSA11>  (82) 
23.796908

>  <PEOE_VSA12>  (82) 
29.535899

>  <PEOE_VSA13>  (82) 
5.90718

>  <PEOE_VSA14>  (82) 
11.919109

>  <PEOE_VSA2>  (82) 
66.253802

>  <PEOE_VSA3>  (82) 
14.951936

>  <PEOE_VSA4>  (82) 
0.0

>  <PEOE_VSA5>  (82) 
0.0

>  <PEOE_VSA6>  (82) 
12.841643

>  <PEOE_VSA7>  (82) 
70.629038

>  <PEOE_VSA8>  (82) 
25.931156

>  <PEOE_VSA9>  (82) 
25.961589

>  <SMR_VSA1>  (82) 
60.269376

>  <SMR_VSA10>  (82) 
64.343928

>  <SMR_VSA2>  (82) 
0.0

>  <SMR_VSA3>  (82) 
56.736555

>  <SMR_VSA4>  (82) 
17.201002

>  <SMR_VSA5>  (82) 
138.977647

>  <SMR_VSA6>  (82) 
38.45745

>  <SMR_VSA7>  (82) 
12.65464

>  <SMR_VSA8>  (82) 
0.0

>  <SMR_VSA9>  (82) 
0.0

>  <SlogP_VSA1>  (82) 
76.704425

>  <SlogP_VSA10>  (82) 
5.817863

>  <SlogP_VSA11>  (82) 
0.0

>  <SlogP_VSA12>  (82) 
0.0

>  <SlogP_VSA2>  (82) 
146.255481

>  <SlogP_VSA3>  (82) 
33.504086

>  <SlogP_VSA4>  (82) 
0.0

>  <SlogP_VSA5>  (82) 
102.540226

>  <SlogP_VSA6>  (82) 
12.65464

>  <SlogP_VSA7>  (82) 
0.0

>  <SlogP_VSA8>  (82) 
11.163878

>  <SlogP_VSA9>  (82) 
0.0

>  <EState_VSA1>  (82) 
60.386862

>  <EState_VSA10>  (82) 
38.980278

>  <EState_VSA11>  (82) 
0.0

>  <EState_VSA2>  (82) 
78.850432

>  <EState_VSA3>  (82) 
90.387242

>  <EState_VSA4>  (82) 
6.420822

>  <EState_VSA5>  (82) 
17.22174

>  <EState_VSA6>  (82) 
0.0

>  <EState_VSA7>  (82) 
0.0

>  <EState_VSA8>  (82) 
57.903123

>  <EState_VSA9>  (82) 
38.4901

>  <VSA_EState1>  (82) 
7.10392

>  <VSA_EState10>  (82) 
0.0

>  <VSA_EState2>  (82) 
89.227329

>  <VSA_EState3>  (82) 
51.376313

>  <VSA_EState4>  (82) 
26.617477

>  <VSA_EState5>  (82) 
-2.716961

>  <VSA_EState6>  (82) 
-2.682673

>  <VSA_EState7>  (82) 
3.791163

>  <VSA_EState8>  (82) 
1.950098

>  <VSA_EState9>  (82) 
0.0

>  <FractionCSP3>  (82) 
0.675

>  <HeavyAtomCount>  (82) 
67

>  <NHOHCount>  (82) 
24

>  <NOCount>  (82) 
27

>  <NumAliphaticCarbocycles>  (82) 
0

>  <NumAliphaticHeterocycles>  (82) 
1

>  <NumAliphaticRings>  (82) 
1

>  <NumAromaticCarbocycles>  (82) 
0

>  <NumAromaticHeterocycles>  (82) 
2

>  <NumAromaticRings>  (82) 
2

>  <NumHAcceptors>  (82) 
14

>  <NumHDonors>  (82) 
16

>  <NumHeteroatoms>  (82) 
27

>  <NumRotatableBonds>  (82) 
32

>  <NumSaturatedCarbocycles>  (82) 
0

>  <NumSaturatedHeterocycles>  (82) 
1

>  <NumSaturatedRings>  (82) 
1

>  <RingCount>  (82) 
3

>  <MolLogP>  (82) 
-8.38

>  <MolMR>  (82) 
241.92

>  <fr_Al_COO>  (82) 
0

>  <fr_Al_OH>  (82) 
2

>  <fr_Al_OH_noTert>  (82) 
2

>  <fr_ArN>  (82) 
1

>  <fr_Ar_COO>  (82) 
0

>  <fr_Ar_N>  (82) 
4

>  <fr_Ar_NH>  (82) 
0

>  <fr_Ar_OH>  (82) 
0

>  <fr_COO>  (82) 
0

>  <fr_COO2>  (82) 
0

>  <fr_C_O>  (82) 
6

>  <fr_C_O_noCOO>  (82) 
6

>  <fr_C_S>  (82) 
0

>  <fr_HOCCN>  (82) 
0

>  <fr_Imine>  (82) 
0

>  <fr_NH0>  (82) 
4

>  <fr_NH1>  (82) 
7

>  <fr_NH2>  (82) 
6

>  <fr_N_O>  (82) 
0

>  <fr_Ndealkylation1>  (82) 
0

>  <fr_Ndealkylation2>  (82) 
0

>  <fr_Nhpyrrole>  (82) 
0

>  <fr_SH>  (82) 
0

>  <fr_aldehyde>  (82) 
0

>  <fr_alkyl_carbamate>  (82) 
0

>  <fr_alkyl_halide>  (82) 
0

>  <fr_allylic_oxid>  (82) 
0

>  <fr_amide>  (82) 
6

>  <fr_amidine>  (82) 
0

>  <fr_aniline>  (82) 
1

>  <fr_aryl_methyl>  (82) 
0

>  <fr_azide>  (82) 
0

>  <fr_azo>  (82) 
0

>  <fr_barbitur>  (82) 
0

>  <fr_benzene>  (82) 
0

>  <fr_benzodiazepine>  (82) 
0

>  <fr_bicyclic>  (82) 
1

>  <fr_diazo>  (82) 
0

>  <fr_dihydropyridine>  (82) 
0

>  <fr_epoxide>  (82) 
0

>  <fr_ester>  (82) 
0

>  <fr_ether>  (82) 
1

>  <fr_furan>  (82) 
0

>  <fr_guanido>  (82) 
2

>  <fr_halogen>  (82) 
0

>  <fr_hdrzine>  (82) 
0

>  <fr_hdrzone>  (82) 
0

>  <fr_imidazole>  (82) 
1

>  <fr_imide>  (82) 
0

>  <fr_isocyan>  (82) 
0

>  <fr_isothiocyan>  (82) 
0

>  <fr_ketone>  (82) 
0

>  <fr_ketone_Topliss>  (82) 
0

>  <fr_lactam>  (82) 
0

>  <fr_lactone>  (82) 
0

>  <fr_methoxy>  (82) 
0

>  <fr_morpholine>  (82) 
0

>  <fr_nitrile>  (82) 
0

>  <fr_nitro>  (82) 
0

>  <fr_nitro_arom>  (82) 
0

>  <fr_nitro_arom_nonortho>  (82) 
0

>  <fr_nitroso>  (82) 
0

>  <fr_oxazole>  (82) 
0

>  <fr_oxime>  (82) 
0

>  <fr_para_hydroxylation>  (82) 
0

>  <fr_phenol>  (82) 
0

>  <fr_phenol_noOrthoHbond>  (82) 
0

>  <fr_phos_acid>  (82) 
0

>  <fr_phos_ester>  (82) 
0

>  <fr_piperdine>  (82) 
0

>  <fr_piperzine>  (82) 
0

>  <fr_priamide>  (82) 
1

>  <fr_prisulfonamd>  (82) 
0

>  <fr_pyridine>  (82) 
0

>  <fr_quatN>  (82) 
1

>  <fr_sulfide>  (82) 
0

>  <fr_sulfonamd>  (82) 
0

>  <fr_sulfone>  (82) 
0

>  <fr_term_acetylene>  (82) 
0

>  <fr_tetrazole>  (82) 
0

>  <fr_thiazole>  (82) 
0

>  <fr_thiocyan>  (82) 
0

>  <fr_thiophene>  (82) 
0

>  <fr_unbrch_alkane>  (82) 
5

>  <fr_urea>  (82) 
0

>  <NP_Likeness>  (82) 
0.190946

$$$$
A03
     RDKit          3D

  0  0  0  0  0  0  0  0  0  0999 V3000
M  V30 BEGIN CTAB
M  V30 COUNTS 128 130 0 0 0
M  V30 BEGIN ATOM
M  V30 1 O -25.069000 2.352000 17.222000 0
M  V30 2 O -14.738000 13.531000 12.173000 0
M  V30 3 O -19.462000 5.298000 17.722000 0
M  V30 4 O -16.582000 7.541000 6.964000 0
M  V30 5 O -15.305000 11.635000 15.007000 0
M  V30 6 O -22.332000 5.390000 18.735000 0
M  V30 7 O -20.976000 5.068000 5.980000 0
M  V30 8 O -19.049000 4.660000 7.931000 0
M  V30 9 O -19.102000 7.415000 5.686000 0
M  V30 10 N -20.281000 -2.242000 18.056000 0 CHG=1
M  V30 11 N -19.732000 -2.232000 15.829000 0
M  V30 12 N -21.491000 5.131000 10.638000 0 CHG=1
M  V30 13 N -23.165000 3.926000 11.729000 0
M  V30 14 N -24.818000 1.457000 19.266000 0
M  V30 15 N -16.102000 5.498000 -0.193000 0
M  V30 16 N -18.422000 5.221000 -0.190000 0
M  V30 17 N -19.607000 -0.272000 17.028000 0
M  V30 18 N -22.502000 6.012000 12.497000 0
M  V30 19 N -19.694000 5.528000 1.734000 0
M  V30 20 N -17.779000 8.017000 8.836000 0
M  V30 21 N -15.231000 9.970000 13.482000 0
M  V30 22 N -16.440000 6.177000 2.713000 0
M  V30 23 N -13.368000 11.716000 12.143000 0
M  V30 24 N -20.928000 6.809000 16.738000 0
M  V30 25 N -22.623000 3.653000 17.307000 0
M  V30 26 N -18.375000 6.194000 3.704000 0
M  V30 27 C -12.262000 10.530000 14.017000 0
M  V30 28 C -19.591000 5.226000 0.445000 0
M  V30 29 C -17.065000 6.389000 3.866000 0
M  V30 30 C -19.728000 0.467000 18.310000 0
M  V30 31 C -23.469000 6.014000 13.595000 0
M  V30 32 C -16.692000 8.718000 9.538000 0
M  V30 33 C -16.518000 9.381000 13.875000 0
M  V30 34 C -16.702000 10.208000 9.174000 0
M  V30 35 C -16.255000 8.279000 14.891000 0
M  V30 36 C -15.367000 10.783000 9.638000 0
M  V30 37 C -16.865000 8.573000 16.265000 0
M  V30 38 C -20.522000 1.767000 18.062000 0
M  V30 39 C -23.128000 7.146000 14.572000 0
M  V30 40 C -15.195000 12.273000 9.336000 0
M  V30 41 C -18.351000 8.212000 16.272000 0
M  V30 42 C -13.936000 12.793000 10.038000 0
M  V30 43 C -18.813000 7.642000 17.599000 0
M  V30 44 C -22.017000 1.418000 18.168000 0
M  V30 45 C -23.258000 6.622000 16.006000 0
M  V30 46 C -19.875000 -1.579000 16.975000 0
M  V30 47 C -22.388000 5.003000 11.628000 0
M  V30 48 C -24.387000 2.140000 18.223000 0
M  V30 49 C -14.052000 12.715000 11.564000 0
M  V30 50 C -19.776000 6.465000 17.360000 0
M  V30 51 C -17.633000 7.501000 7.613000 0
M  V30 52 C -14.743000 11.053000 14.080000 0
M  V30 53 C -22.341000 4.930000 17.600000 0
M  V30 54 C -19.426000 6.339000 4.753000 0 CFG=1
M  V30 55 C -17.279000 5.512000 0.451000 0
M  V30 56 C -19.605000 5.090000 5.595000 0 CFG=1
M  V30 57 C -18.652000 5.360000 6.777000 0 CFG=1
M  V30 58 C -18.872000 6.842000 7.006000 0 CFG=2
M  V30 59 C -18.589000 5.853000 2.436000 0
M  V30 60 C -13.363000 11.525000 13.587000 0 CFG=2
M  V30 61 C -22.933000 2.637000 18.328000 0 CFG=2
M  V30 62 C -22.007000 5.837000 16.413000 0 CFG=2
M  V30 63 C -17.351000 5.849000 1.804000 0
M  V30 64 H -21.066100 4.613400 6.866100 0
M  V30 65 H -18.610900 3.761100 7.942800 0
M  V30 66 H -20.392400 -1.760500 18.925300 0
M  V30 67 H -20.474500 -3.221400 17.998500 0
M  V30 68 H -19.427700 -1.744700 15.010500 0
M  V30 69 H -20.919200 5.949600 10.584100 0
M  V30 70 H -21.394400 4.407700 9.954200 0
M  V30 71 H -23.825800 3.854500 12.476100 0
M  V30 72 H -23.087600 3.188900 11.057700 0
M  V30 73 H -24.218300 1.315700 20.053700 0
M  V30 74 H -25.744400 1.080500 19.269000 0
M  V30 75 H -15.259900 5.717300 0.299600 0
M  V30 76 H -16.066900 5.268300 -1.165600 0
M  V30 77 H -19.323300 0.211600 16.199900 0
M  V30 78 H -18.663200 7.923200 9.293600 0
M  V30 79 H -14.707100 9.544700 12.744000 0
M  V30 80 H -12.847500 11.085400 11.567300 0
M  V30 81 H -21.061000 7.766900 16.483400 0
M  V30 82 H -22.623000 3.375500 16.346300 0
M  V30 83 H -12.282600 10.419100 15.010600 0
M  V30 84 H -12.422800 9.645300 13.579400 0
M  V30 85 H -11.368000 10.881600 13.739300 0
M  V30 86 H -20.419400 4.994700 -0.065200 0
M  V30 87 H -16.622200 6.653700 4.722700 0
M  V30 88 H -18.816900 0.690600 18.656300 0
M  V30 89 H -20.209600 -0.098400 18.979600 0
M  V30 90 H -23.431500 5.137100 14.074200 0
M  V30 91 H -24.388900 6.154900 13.229100 0
M  V30 92 H -15.814800 8.318600 9.271500 0
M  V30 93 H -16.817600 8.618100 10.525000 0
M  V30 94 H -16.972700 8.997200 13.071300 0
M  V30 95 H -17.100100 10.084200 14.283300 0
M  V30 96 H -17.456700 10.671100 9.638800 0
M  V30 97 H -16.800400 10.320400 8.185200 0
M  V30 98 H -15.266300 8.173100 14.997400 0
M  V30 99 H -16.646200 7.426400 14.544600 0
M  V30 100 H -14.632400 10.282200 9.180300 0
M  V30 101 H -15.294300 10.651700 10.626700 0
M  V30 102 H -16.760600 9.545900 16.471300 0
M  V30 103 H -16.390500 8.032200 16.959500 0
M  V30 104 H -20.317800 2.124000 17.150500 0
M  V30 105 H -20.280900 2.451600 18.749800 0
M  V30 106 H -23.759800 7.908900 14.435100 0
M  V30 107 H -22.190900 7.456300 14.411900 0
M  V30 108 H -15.993500 12.775000 9.668100 0
M  V30 109 H -15.105100 12.405100 8.348800 0
M  V30 110 H -18.517800 7.532600 15.557400 0
M  V30 111 H -18.880900 9.037400 16.077400 0
M  V30 112 H -13.790400 13.746500 9.774200 0
M  V30 113 H -13.153600 12.243100 9.745700 0
M  V30 114 H -19.283600 8.354400 18.119500 0
M  V30 115 H -18.019400 7.320800 18.115700 0
M  V30 116 H -22.145200 0.822300 18.960900 0
M  V30 117 H -22.285500 0.930000 17.337500 0
M  V30 118 H -24.055500 6.021600 16.064700 0
M  V30 119 H -23.376700 7.395700 16.628400 0
M  V30 120 H -20.295600 6.552300 4.307700 0
M  V30 121 H -19.347800 4.264400 5.092700 0
M  V30 122 H -17.701900 5.162300 6.535800 0
M  V30 123 H -19.667900 6.989400 7.593200 0
M  V30 124 H -13.166800 12.407200 14.015000 0
M  V30 125 H -22.790100 3.033700 19.234700 0
M  V30 126 H -21.713500 5.270400 15.643000 0
M  V30 127 H -19.928500 -3.211500 15.783700 0
M  V30 128 H -21.898300 6.802300 12.391900 0
M  V30 END ATOM
M  V30 BEGIN BOND
M  V30 1 2 1 48
M  V30 2 2 2 49
M  V30 3 2 3 50
M  V30 4 2 4 51
M  V30 5 2 5 52
M  V30 6 2 6 53
M  V30 7 1 7 56
M  V30 8 1 8 57
M  V30 9 1 9 54
M  V30 10 1 9 58
M  V30 11 2 10 46
M  V30 12 1 11 46
M  V30 13 2 12 47
M  V30 14 1 13 47
M  V30 15 1 14 48
M  V30 16 1 15 55
M  V30 17 2 16 28
M  V30 18 1 16 55
M  V30 19 1 17 30
M  V30 20 1 17 46
M  V30 21 1 18 31
M  V30 22 1 18 47
M  V30 23 1 19 28
M  V30 24 2 19 59
M  V30 25 1 20 32
M  V30 26 1 20 51
M  V30 27 1 21 33
M  V30 28 1 21 52
M  V30 29 2 22 29
M  V30 30 1 22 63
M  V30 31 1 23 49
M  V30 32 1 23 60
M  V30 33 1 24 50
M  V30 34 1 24 62
M  V30 35 1 25 53
M  V30 36 1 25 61
M  V30 37 1 26 29
M  V30 38 1 26 54
M  V30 39 1 26 59
M  V30 40 1 27 60
M  V30 41 1 30 38
M  V30 42 1 31 39
M  V30 43 1 32 34
M  V30 44 1 33 35
M  V30 45 1 34 36
M  V30 46 1 35 37
M  V30 47 1 36 40
M  V30 48 1 37 41
M  V30 49 1 38 44
M  V30 50 1 39 45
M  V30 51 1 40 42
M  V30 52 1 41 43
M  V30 53 1 42 49
M  V30 54 1 43 50
M  V30 55 1 44 61
M  V30 56 1 45 62
M  V30 57 1 48 61
M  V30 58 1 51 58
M  V30 59 1 52 60
M  V30 60 1 53 62
M  V30 61 1 54 56
M  V30 62 2 55 63
M  V30 63 1 56 57
M  V30 64 1 57 58
M  V30 65 1 59 63
M  V30 66 1 7 64
M  V30 67 1 8 65
M  V30 68 1 10 66
M  V30 69 1 10 67
M  V30 70 1 11 68
M  V30 71 1 12 69
M  V30 72 1 12 70
M  V30 73 1 13 71
M  V30 74 1 13 72
M  V30 75 1 14 73
M  V30 76 1 14 74
M  V30 77 1 15 75
M  V30 78 1 15 76
M  V30 79 1 17 77
M  V30 80 1 20 78
M  V30 81 1 21 79
M  V30 82 1 23 80
M  V30 83 1 24 81
M  V30 84 1 25 82
M  V30 85 1 27 83
M  V30 86 1 27 84
M  V30 87 1 27 85
M  V30 88 1 28 86
M  V30 89 1 29 87
M  V30 90 1 30 88
M  V30 91 1 30 89
M  V30 92 1 31 90
M  V30 93 1 31 91
M  V30 94 1 32 92
M  V30 95 1 32 93
M  V30 96 1 33 94
M  V30 97 1 33 95
M  V30 98 1 34 96
M  V30 99 1 34 97
M  V30 100 1 35 98
M  V30 101 1 35 99
M  V30 102 1 36 100
M  V30 103 1 36 101
M  V30 104 1 37 102
M  V30 105 1 37 103
M  V30 106 1 38 104
M  V30 107 1 38 105
M  V30 108 1 39 106
M  V30 109 1 39 107
M  V30 110 1 40 108
M  V30 111 1 40 109
M  V30 112 1 41 110
M  V30 113 1 41 111
M  V30 114 1 42 112
M  V30 115 1 42 113
M  V30 116 1 43 114
M  V30 117 1 43 115
M  V30 118 1 44 116
M  V30 119 1 44 117
M  V30 120 1 45 118
M  V30 121 1 45 119
M  V30 122 1 54 120 CFG=3
M  V30 123 1 56 121 CFG=3
M  V30 124 1 57 122 CFG=3
M  V30 125 1 58 123 CFG=1
M  V30 126 1 60 124 CFG=1
M  V30 127 1 61 125 CFG=1
M  V30 128 1 62 126 CFG=3
M  V30 129 1 11 127
M  V30 130 1 18 128
M  V30 END BOND
M  V30 END CTAB
M  END
>  <Ligand_Instance>  (83) 
3AGL_A03_A_351

>  <Dataset>  (83) 
PDB

>  <PDB_ID>  (83) 
3AGL

>  <Chain>  (83) 
A

>  <Resi>  (83) 
351

>  <Num_Resolved_Atoms>  (83) 
63

>  <Num_H_Atoms_ProtBoundConf>  (83) 
65

>  <Pocket>  (83) 
A

>  <Name>  (83) 
(10R,20R,23R)-1-[(2S,3S,4R,5R)-5-(6-amino-9H-purin-9-yl)-3,4-dihydroxytetrahydrofuran-2-yl]-20,23-bis(3-carbamimidamido
propyl)-10-methyl-1,8,11,18,21-pentaoxo-2,9,12,19,22-pentaazatetracosan-24-amide

>  <Num_Not_Resolved_Atoms>  (83) 
0

>  <ATP_Site>  (83) 
True

>  <Peripheral>  (83) 
False

>  <Standardized_SMILES>  (83) 
[H]O[C@@]1([H])[C@@]([H])(O[H])[C@]([H])(N2C([H])=NC3=C2N=C([H])N=C3N([H])[H])O[C@]1([H])C(=O)N([H])C([H])([H])C([H])([H])C([H])([H])C([H])([H])C([H])([H])C(=O)N([H])[C@@]([H])(C(=O)N([H])C([H])([H])C([H])([H])C([H])([H])C([H])([H])C([H])([H])C(=O)N([H])[C@@]([H])(C(=O)N([H])[C@@]([H])(C(=O)N([H])[H])C([H])([H])C([H])([H])C([H])([H])N([H])C(N([H])[H])=[N+]([H])[H])C([H])([H])C([H])([H])C([H])([H])N([H])C(N([H])[H])=[N+]([H])[H])C([H])([H])[H]

>  <2D_Mol_H>  (83) 
<rdkit.Chem.rdchem.Mol object at 0x77059d9e69d0>

>  <MW>  (83) 
892.037

>  <HBA>  (83) 
14

>  <HBD>  (83) 
15

>  <LogP>  (83) 
-7.7723

>  <NRB>  (83) 
32

>  <TPSA>  (83) 
435.18

>  <Num_Heavy_Atoms>  (83) 
63

>  <Ro5>  (83) 
[False, False, False, True, False, False]

>  <Ro5_Fulfilled>  (83) 
False

>  <Ro3>  (83) 
[False, False, False, True]

>  <Ro3_Fulfilled>  (83) 
False

>  <Fsp3>  (83) 
0.648649

>  <Fsp3_0.42>  (83) 
True

>  <Fsp3_0.45>  (83) 
True

>  <Stereogenic_Carbons>  (83) 
7

>  <C_Atoms>  (83) 
37

>  <FCStereo>  (83) 
0.189189

>  <SPS>  (83) 
1155

>  <nSPS>  (83) 
18.333333

>  <PBF>  (83) 
1.597972

>  <PBF_0.6>  (83) 
True

>  <nPBF>  (83) 
0.025365

>  <nPBF_0.016>  (83) 
True

>  <PMI1>  (83) 
17363.419379

>  <PMI2>  (83) 
35450.121311

>  <PMI3>  (83) 
46973.181032

>  <NPR1>  (83) 
0.369645

>  <NPR2>  (83) 
0.754689

>  <Sum_NPR>  (83) 
1.124334

>  <Sum_NPR_1.07>  (83) 
True

>  <Sum_NPR_1.2>  (83) 
False

>  <MaxAbsEStateIndex>  (83) 
13.123304

>  <MaxEStateIndex>  (83) 
13.123304

>  <MinAbsEStateIndex>  (83) 
0.01521

>  <MinEStateIndex>  (83) 
-1.509839

>  <qed>  (83) 
0.021428

>  <MolWt>  (83) 
892.037

>  <HeavyAtomMolWt>  (83) 
826.517

>  <ExactMolWt>  (83) 
891.51402

>  <NumValenceElectrons>  (83) 
350

>  <NumRadicalElectrons>  (83) 
0

>  <MaxPartialCharge>  (83) 
0.338266

>  <MinPartialCharge>  (83) 
-0.386941

>  <MaxAbsPartialCharge>  (83) 
0.386941

>  <MinAbsPartialCharge>  (83) 
0.338266

>  <FpDensityMorgan1>  (83) 
0.714286

>  <FpDensityMorgan2>  (83) 
1.285714

>  <FpDensityMorgan3>  (83) 
1.888889

>  <BCUT2D_MWHI>  (83) 
16.559945

>  <BCUT2D_MWLOW>  (83) 
10.067823

>  <BCUT2D_CHGHI>  (83) 
2.473778

>  <BCUT2D_CHGLO>  (83) 
-2.217113

>  <BCUT2D_LOGPHI>  (83) 
2.317023

>  <BCUT2D_LOGPLOW>  (83) 
-2.553641

>  <BCUT2D_MRHI>  (83) 
5.914567

>  <BCUT2D_MRLOW>  (83) 
-0.137314

>  <AvgIpc>  (83) 
3.79018

>  <BalabanJ>  (83) 
1.275799

>  <BertzCT>  (83) 
1881.099024

>  <Chi0>  (83) 
46.475752

>  <Chi0n>  (83) 
35.514982

>  <Chi0v>  (83) 
35.514982

>  <Chi1>  (83) 
29.991887

>  <Chi1n>  (83) 
20.915913

>  <Chi1v>  (83) 
20.915913

>  <Chi2n>  (83) 
15.136308

>  <Chi2v>  (83) 
15.136308

>  <Chi3n>  (83) 
9.997447

>  <Chi3v>  (83) 
9.997447

>  <Chi4n>  (83) 
6.563968

>  <Chi4v>  (83) 
6.563968

>  <HallKierAlpha>  (83) 
-6.41

>  <Ipc>  (83) 
21024017513324.308594

>  <Kappa1>  (83) 
50.943179

>  <Kappa2>  (83) 
26.152057

>  <Kappa3>  (83) 
17.111964

>  <LabuteASA>  (83) 
363.113905

>  <PEOE_VSA1>  (83) 
53.001196

>  <PEOE_VSA10>  (83) 
42.177476

>  <PEOE_VSA11>  (83) 
23.796908

>  <PEOE_VSA12>  (83) 
29.535899

>  <PEOE_VSA13>  (83) 
5.90718

>  <PEOE_VSA14>  (83) 
11.919109

>  <PEOE_VSA2>  (83) 
66.253802

>  <PEOE_VSA3>  (83) 
14.951936

>  <PEOE_VSA4>  (83) 
0.0

>  <PEOE_VSA5>  (83) 
0.0

>  <PEOE_VSA6>  (83) 
12.841643

>  <PEOE_VSA7>  (83) 
58.29031

>  <PEOE_VSA8>  (83) 
25.931156

>  <PEOE_VSA9>  (83) 
19.416833

>  <SMR_VSA1>  (83) 
54.535708

>  <SMR_VSA10>  (83) 
64.343928

>  <SMR_VSA2>  (83) 
0.0

>  <SMR_VSA3>  (83) 
56.736555

>  <SMR_VSA4>  (83) 
17.201002

>  <SMR_VSA5>  (83) 
126.638919

>  <SMR_VSA6>  (83) 
31.912693

>  <SMR_VSA7>  (83) 
12.65464

>  <SMR_VSA8>  (83) 
0.0

>  <SMR_VSA9>  (83) 
0.0

>  <SlogP_VSA1>  (83) 
70.970757

>  <SlogP_VSA10>  (83) 
5.817863

>  <SlogP_VSA11>  (83) 
0.0

>  <SlogP_VSA12>  (83) 
0.0

>  <SlogP_VSA2>  (83) 
139.710725

>  <SlogP_VSA3>  (83) 
33.504086

>  <SlogP_VSA4>  (83) 
0.0

>  <SlogP_VSA5>  (83) 
90.201498

>  <SlogP_VSA6>  (83) 
12.65464

>  <SlogP_VSA7>  (83) 
0.0

>  <SlogP_VSA8>  (83) 
11.163878

>  <SlogP_VSA9>  (83) 
0.0

>  <EState_VSA1>  (83) 
60.386862

>  <EState_VSA10>  (83) 
38.980278

>  <EState_VSA11>  (83) 
0.0

>  <EState_VSA2>  (83) 
78.850432

>  <EState_VSA3>  (83) 
71.000842

>  <EState_VSA4>  (83) 
0.0

>  <EState_VSA5>  (83) 
17.22174

>  <EState_VSA6>  (83) 
6.923737

>  <EState_VSA7>  (83) 
0.0

>  <EState_VSA8>  (83) 
52.169456

>  <EState_VSA9>  (83) 
38.4901

>  <VSA_EState1>  (83) 
7.067647

>  <VSA_EState10>  (83) 
0.0

>  <VSA_EState2>  (83) 
87.826573

>  <VSA_EState3>  (83) 
50.853551

>  <VSA_EState4>  (83) 
22.682948

>  <VSA_EState5>  (83) 
-2.795928

>  <VSA_EState6>  (83) 
-2.716023

>  <VSA_EState7>  (83) 
1.913606

>  <VSA_EState8>  (83) 
2.834291

>  <VSA_EState9>  (83) 
0.0

>  <FractionCSP3>  (83) 
0.648649

>  <HeavyAtomCount>  (83) 
63

>  <NHOHCount>  (83) 
21

>  <NOCount>  (83) 
26

>  <NumAliphaticCarbocycles>  (83) 
0

>  <NumAliphaticHeterocycles>  (83) 
1

>  <NumAliphaticRings>  (83) 
1

>  <NumAromaticCarbocycles>  (83) 
0

>  <NumAromaticHeterocycles>  (83) 
2

>  <NumAromaticRings>  (83) 
2

>  <NumHAcceptors>  (83) 
14

>  <NumHDonors>  (83) 
15

>  <NumHeteroatoms>  (83) 
26

>  <NumRotatableBonds>  (83) 
28

>  <NumSaturatedCarbocycles>  (83) 
0

>  <NumSaturatedHeterocycles>  (83) 
1

>  <NumSaturatedRings>  (83) 
1

>  <RingCount>  (83) 
3

>  <MolLogP>  (83) 
-7.7723

>  <MolMR>  (83) 
225.9879

>  <fr_Al_COO>  (83) 
0

>  <fr_Al_OH>  (83) 
2

>  <fr_Al_OH_noTert>  (83) 
2

>  <fr_ArN>  (83) 
1

>  <fr_Ar_COO>  (83) 
0

>  <fr_Ar_N>  (83) 
4

>  <fr_Ar_NH>  (83) 
0

>  <fr_Ar_OH>  (83) 
0

>  <fr_COO>  (83) 
0

>  <fr_COO2>  (83) 
0

>  <fr_C_O>  (83) 
6

>  <fr_C_O_noCOO>  (83) 
6

>  <fr_C_S>  (83) 
0

>  <fr_HOCCN>  (83) 
0

>  <fr_Imine>  (83) 
0

>  <fr_NH0>  (83) 
4

>  <fr_NH1>  (83) 
7

>  <fr_NH2>  (83) 
6

>  <fr_N_O>  (83) 
0

>  <fr_Ndealkylation1>  (83) 
0

>  <fr_Ndealkylation2>  (83) 
0

>  <fr_Nhpyrrole>  (83) 
0

>  <fr_SH>  (83) 
0

>  <fr_aldehyde>  (83) 
0

>  <fr_alkyl_carbamate>  (83) 
0

>  <fr_alkyl_halide>  (83) 
0

>  <fr_allylic_oxid>  (83) 
0

>  <fr_amide>  (83) 
6

>  <fr_amidine>  (83) 
0

>  <fr_aniline>  (83) 
1

>  <fr_aryl_methyl>  (83) 
0

>  <fr_azide>  (83) 
0

>  <fr_azo>  (83) 
0

>  <fr_barbitur>  (83) 
0

>  <fr_benzene>  (83) 
0

>  <fr_benzodiazepine>  (83) 
0

>  <fr_bicyclic>  (83) 
1

>  <fr_diazo>  (83) 
0

>  <fr_dihydropyridine>  (83) 
0

>  <fr_epoxide>  (83) 
0

>  <fr_ester>  (83) 
0

>  <fr_ether>  (83) 
1

>  <fr_furan>  (83) 
0

>  <fr_guanido>  (83) 
2

>  <fr_halogen>  (83) 
0

>  <fr_hdrzine>  (83) 
0

>  <fr_hdrzone>  (83) 
0

>  <fr_imidazole>  (83) 
1

>  <fr_imide>  (83) 
0

>  <fr_isocyan>  (83) 
0

>  <fr_isothiocyan>  (83) 
0

>  <fr_ketone>  (83) 
0

>  <fr_ketone_Topliss>  (83) 
0

>  <fr_lactam>  (83) 
0

>  <fr_lactone>  (83) 
0

>  <fr_methoxy>  (83) 
0

>  <fr_morpholine>  (83) 
0

>  <fr_nitrile>  (83) 
0

>  <fr_nitro>  (83) 
0

>  <fr_nitro_arom>  (83) 
0

>  <fr_nitro_arom_nonortho>  (83) 
0

>  <fr_nitroso>  (83) 
0

>  <fr_oxazole>  (83) 
0

>  <fr_oxime>  (83) 
0

>  <fr_para_hydroxylation>  (83) 
0

>  <fr_phenol>  (83) 
0

>  <fr_phenol_noOrthoHbond>  (83) 
0

>  <fr_phos_acid>  (83) 
0

>  <fr_phos_ester>  (83) 
0

>  <fr_piperdine>  (83) 
0

>  <fr_piperzine>  (83) 
0

>  <fr_priamide>  (83) 
1

>  <fr_prisulfonamd>  (83) 
0

>  <fr_pyridine>  (83) 
0

>  <fr_quatN>  (83) 
0

>  <fr_sulfide>  (83) 
0

>  <fr_sulfonamd>  (83) 
0

>  <fr_sulfone>  (83) 
0

>  <fr_term_acetylene>  (83) 
0

>  <fr_tetrazole>  (83) 
0

>  <fr_thiazole>  (83) 
0

>  <fr_thiocyan>  (83) 
0

>  <fr_thiophene>  (83) 
0

>  <fr_unbrch_alkane>  (83) 
4

>  <fr_urea>  (83) 
0

>  <NP_Likeness>  (83) 
0.116726

$$$$
A03
     RDKit          3D

  0  0  0  0  0  0  0  0  0  0999 V3000
M  V30 BEGIN CTAB
M  V30 COUNTS 128 130 0 0 0
M  V30 BEGIN ATOM
M  V30 1 O -25.403000 51.462000 -15.708000 0
M  V30 2 O -15.547000 62.918000 -20.676000 0
M  V30 3 O -19.596000 54.581000 -15.793000 0
M  V30 4 O -17.062000 56.791000 -25.771000 0
M  V30 5 O -16.021000 61.012000 -17.882000 0
M  V30 6 O -22.598000 54.464000 -14.190000 0
M  V30 7 O -21.283000 54.466000 -27.072000 0
M  V30 8 O -19.372000 54.167000 -25.161000 0
M  V30 9 O -19.561000 56.994000 -27.398000 0
M  V30 10 N -20.358000 46.832000 -15.241000 0 CHG=1
M  V30 11 N -20.033000 47.111000 -17.498000 0
M  V30 12 N -21.761000 54.439000 -22.451000 0 CHG=1
M  V30 13 N -23.562000 53.222000 -21.670000 0
M  V30 14 N -24.961000 50.668000 -13.639000 0
M  V30 15 N -16.271000 55.029000 -33.183000 0
M  V30 16 N -18.584000 54.720000 -33.256000 0
M  V30 17 N -20.020000 48.961000 -16.119000 0
M  V30 18 N -22.809000 55.132000 -20.545000 0
M  V30 19 N -19.932000 55.115000 -31.394000 0
M  V30 20 N -18.436000 57.665000 -24.212000 0
M  V30 21 N -15.934000 59.380000 -19.451000 0
M  V30 22 N -16.712000 55.766000 -30.298000 0
M  V30 23 N -14.059000 61.184000 -20.712000 0
M  V30 24 N -21.295000 56.084000 -16.014000 0
M  V30 25 N -22.934000 52.872000 -15.774000 0
M  V30 26 N -18.700000 55.798000 -29.386000 0
M  V30 27 C -13.009000 59.855000 -18.876000 0
M  V30 28 C -19.783000 54.764000 -32.669000 0
M  V30 29 C -17.394000 55.989000 -29.173000 0
M  V30 30 C -20.033000 49.605000 -14.786000 0
M  V30 31 C -23.807000 55.082000 -19.462000 0
M  V30 32 C -17.340000 58.285000 -23.448000 0
M  V30 33 C -17.241000 58.766000 -19.120000 0
M  V30 34 C -17.337000 59.793000 -23.730000 0
M  V30 35 C -17.027000 57.548000 -18.187000 0
M  V30 36 C -15.923000 60.339000 -23.619000 0
M  V30 37 C -17.288000 57.864000 -16.703000 0
M  V30 38 C -20.822000 50.904000 -14.813000 0
M  V30 39 C -23.485000 56.220000 -18.466000 0
M  V30 40 C -15.894000 61.869000 -23.532000 0
M  V30 41 C -18.782000 57.826000 -16.367000 0
M  V30 42 C -14.621000 62.297000 -22.799000 0
M  V30 43 C -19.115000 56.858000 -15.216000 0
M  V30 44 C -22.268000 50.603000 -15.207000 0
M  V30 45 C -23.587000 55.776000 -16.995000 0
M  V30 46 C -20.142000 47.637000 -16.282000 0
M  V30 47 C -22.729000 54.261000 -21.554000 0
M  V30 48 C -24.634000 51.292000 -14.766000 0
M  V30 49 C -14.783000 62.161000 -21.279000 0
M  V30 50 C -20.040000 55.728000 -15.695000 0
M  V30 51 C -18.194000 56.977000 -25.327000 0
M  V30 52 C -15.441000 60.429000 -18.789000 0
M  V30 53 C -22.623000 54.104000 -15.369000 0
M  V30 54 C -19.831000 55.931000 -28.366000 0 CFG=1
M  V30 55 C -17.467000 55.052000 -32.579000 0
M  V30 56 C -19.944000 54.629000 -27.532000 0 CFG=1
M  V30 57 C -19.035000 54.926000 -26.335000 0 CFG=1
M  V30 58 C -19.381000 56.384000 -26.074000 0 CFG=2
M  V30 59 C -18.851000 55.446000 -30.658000 0
M  V30 60 C -14.063000 60.904000 -19.252000 0 CFG=2
M  V30 61 C -23.172000 51.770000 -14.819000 0 CFG=2
M  V30 62 C -22.296000 55.102000 -16.500000 0 CFG=2
M  V30 63 C -17.588000 55.427000 -31.239000 0
M  V30 64 H -21.278800 53.974200 -26.201300 0
M  V30 65 H -19.295000 53.190400 -25.361900 0
M  V30 66 H -20.441800 47.215500 -14.321300 0
M  V30 67 H -20.436100 45.844800 -15.380100 0
M  V30 68 H -19.871000 47.704100 -18.286700 0
M  V30 69 H -21.137000 55.215700 -22.365700 0
M  V30 70 H -21.658100 53.795900 -23.209900 0
M  V30 71 H -24.289500 53.086800 -20.997300 0
M  V30 72 H -23.457700 52.579900 -22.429500 0
M  V30 73 H -24.284000 50.564200 -12.910400 0
M  V30 74 H -25.884000 50.302300 -13.519700 0
M  V30 75 H -15.448000 55.277100 -32.672000 0
M  V30 76 H -16.201500 54.763800 -34.144700 0
M  V30 77 H -19.916000 49.537100 -16.929700 0
M  V30 78 H -19.377200 57.762000 -23.888500 0
M  V30 79 H -15.398900 58.992400 -20.201600 0
M  V30 80 H -13.486900 60.614500 -21.302200 0
M  V30 81 H -21.564000 57.042600 -15.921000 0
M  V30 82 H -23.008400 52.688400 -16.754200 0
M  V30 83 H -13.038800 59.691000 -17.890000 0
M  V30 84 H -13.199700 59.001900 -19.361700 0
M  V30 85 H -12.101300 60.188100 -19.131200 0
M  V30 86 H -20.593600 54.525900 -33.204000 0
M  V30 87 H -16.988300 56.259000 -28.299800 0
M  V30 88 H -19.092300 49.800000 -14.508400 0
M  V30 89 H -20.452800 48.981600 -14.126300 0
M  V30 90 H -23.758500 54.198600 -18.995800 0
M  V30 91 H -24.724300 55.210000 -19.839100 0
M  V30 92 H -16.466500 57.888000 -23.729900 0
M  V30 93 H -17.478700 58.125500 -22.470600 0
M  V30 94 H -17.689000 58.464800 -19.961800 0
M  V30 95 H -17.817400 59.440500 -18.658600 0
M  V30 96 H -17.923800 60.255500 -23.065400 0
M  V30 97 H -17.684400 59.958100 -24.653100 0
M  V30 98 H -16.081700 57.236400 -18.283600 0
M  V30 99 H -17.649100 56.818100 -18.470200 0
M  V30 100 H -15.403900 60.053000 -24.424500 0
M  V30 101 H -15.496700 59.962200 -22.796600 0
M  V30 102 H -16.933600 58.776600 -16.499300 0
M  V30 103 H -16.812400 57.188300 -16.139800 0
M  V30 104 H -20.416200 51.528500 -15.480400 0
M  V30 105 H -20.802900 51.326300 -13.906700 0
M  V30 106 H -24.129400 56.969300 -18.618500 0
M  V30 107 H -22.553800 56.541000 -18.638500 0
M  V30 108 H -16.695900 62.192400 -23.029700 0
M  V30 109 H -15.898400 62.258200 -24.453200 0
M  V30 110 H -19.284700 57.537300 -17.181800 0
M  V30 111 H -19.073100 58.745900 -16.104200 0
M  V30 112 H -14.421700 63.251300 -23.021600 0
M  V30 113 H -13.862000 61.719200 -23.099100 0
M  V30 114 H -19.570300 57.364900 -14.484100 0
M  V30 115 H -18.266200 56.460100 -14.867800 0
M  V30 116 H -22.574100 49.776400 -14.734700 0
M  V30 117 H -22.318400 50.460200 -16.195500 0
M  V30 118 H -24.343100 55.127700 -16.906100 0
M  V30 119 H -23.768500 56.579500 -16.428000 0
M  V30 120 H -20.694900 56.110200 -28.836700 0
M  V30 121 H -19.629700 53.831300 -28.046600 0
M  V30 122 H -18.070100 54.817700 -26.574400 0
M  V30 123 H -20.217100 56.459600 -25.530700 0
M  V30 124 H -13.846000 61.752800 -18.769800 0
M  V30 125 H -22.909300 52.082000 -13.906000 0
M  V30 126 H -21.894200 54.593800 -17.261800 0
M  V30 127 H -20.113000 46.122200 -17.624100 0
M  V30 128 H -22.140300 55.875200 -20.522600 0
M  V30 END ATOM
M  V30 BEGIN BOND
M  V30 1 2 1 48
M  V30 2 2 2 49
M  V30 3 2 3 50
M  V30 4 2 4 51
M  V30 5 2 5 52
M  V30 6 2 6 53
M  V30 7 1 7 56
M  V30 8 1 8 57
M  V30 9 1 9 54
M  V30 10 1 9 58
M  V30 11 2 10 46
M  V30 12 1 11 46
M  V30 13 2 12 47
M  V30 14 1 13 47
M  V30 15 1 14 48
M  V30 16 1 15 55
M  V30 17 2 16 28
M  V30 18 1 16 55
M  V30 19 1 17 30
M  V30 20 1 17 46
M  V30 21 1 18 31
M  V30 22 1 18 47
M  V30 23 1 19 28
M  V30 24 2 19 59
M  V30 25 1 20 32
M  V30 26 1 20 51
M  V30 27 1 21 33
M  V30 28 1 21 52
M  V30 29 2 22 29
M  V30 30 1 22 63
M  V30 31 1 23 49
M  V30 32 1 23 60
M  V30 33 1 24 50
M  V30 34 1 24 62
M  V30 35 1 25 53
M  V30 36 1 25 61
M  V30 37 1 26 29
M  V30 38 1 26 54
M  V30 39 1 26 59
M  V30 40 1 27 60
M  V30 41 1 30 38
M  V30 42 1 31 39
M  V30 43 1 32 34
M  V30 44 1 33 35
M  V30 45 1 34 36
M  V30 46 1 35 37
M  V30 47 1 36 40
M  V30 48 1 37 41
M  V30 49 1 38 44
M  V30 50 1 39 45
M  V30 51 1 40 42
M  V30 52 1 41 43
M  V30 53 1 42 49
M  V30 54 1 43 50
M  V30 55 1 44 61
M  V30 56 1 45 62
M  V30 57 1 48 61
M  V30 58 1 51 58
M  V30 59 1 52 60
M  V30 60 1 53 62
M  V30 61 1 54 56
M  V30 62 2 55 63
M  V30 63 1 56 57
M  V30 64 1 57 58
M  V30 65 1 59 63
M  V30 66 1 7 64
M  V30 67 1 8 65
M  V30 68 1 10 66
M  V30 69 1 10 67
M  V30 70 1 11 68
M  V30 71 1 12 69
M  V30 72 1 12 70
M  V30 73 1 13 71
M  V30 74 1 13 72
M  V30 75 1 14 73
M  V30 76 1 14 74
M  V30 77 1 15 75
M  V30 78 1 15 76
M  V30 79 1 17 77
M  V30 80 1 20 78
M  V30 81 1 21 79
M  V30 82 1 23 80
M  V30 83 1 24 81
M  V30 84 1 25 82
M  V30 85 1 27 83
M  V30 86 1 27 84
M  V30 87 1 27 85
M  V30 88 1 28 86
M  V30 89 1 29 87
M  V30 90 1 30 88
M  V30 91 1 30 89
M  V30 92 1 31 90
M  V30 93 1 31 91
M  V30 94 1 32 92
M  V30 95 1 32 93
M  V30 96 1 33 94
M  V30 97 1 33 95
M  V30 98 1 34 96
M  V30 99 1 34 97
M  V30 100 1 35 98
M  V30 101 1 35 99
M  V30 102 1 36 100
M  V30 103 1 36 101
M  V30 104 1 37 102
M  V30 105 1 37 103
M  V30 106 1 38 104
M  V30 107 1 38 105
M  V30 108 1 39 106
M  V30 109 1 39 107
M  V30 110 1 40 108
M  V30 111 1 40 109
M  V30 112 1 41 110
M  V30 113 1 41 111
M  V30 114 1 42 112
M  V30 115 1 42 113
M  V30 116 1 43 114
M  V30 117 1 43 115
M  V30 118 1 44 116
M  V30 119 1 44 117
M  V30 120 1 45 118
M  V30 121 1 45 119
M  V30 122 1 54 120 CFG=3
M  V30 123 1 56 121 CFG=3
M  V30 124 1 57 122 CFG=3
M  V30 125 1 58 123 CFG=1
M  V30 126 1 60 124 CFG=1
M  V30 127 1 61 125 CFG=1
M  V30 128 1 62 126 CFG=3
M  V30 129 1 11 127
M  V30 130 1 18 128
M  V30 END BOND
M  V30 END CTAB
M  END
>  <Ligand_Instance>  (84) 
3AGL_A03_B_351

>  <Dataset>  (84) 
PDB

>  <PDB_ID>  (84) 
3AGL

>  <Chain>  (84) 
B

>  <Resi>  (84) 
351

>  <Num_Resolved_Atoms>  (84) 
63

>  <Num_H_Atoms_ProtBoundConf>  (84) 
65

>  <Pocket>  (84) 
A

>  <Name>  (84) 
(10R,20R,23R)-1-[(2S,3S,4R,5R)-5-(6-amino-9H-purin-9-yl)-3,4-dihydroxytetrahydrofuran-2-yl]-20,23-bis(3-carbamimidamido
propyl)-10-methyl-1,8,11,18,21-pentaoxo-2,9,12,19,22-pentaazatetracosan-24-amide

>  <Num_Not_Resolved_Atoms>  (84) 
0

>  <ATP_Site>  (84) 
True

>  <Peripheral>  (84) 
False

>  <Standardized_SMILES>  (84) 
[H]O[C@@]1([H])[C@@]([H])(O[H])[C@]([H])(N2C([H])=NC3=C2N=C([H])N=C3N([H])[H])O[C@]1([H])C(=O)N([H])C([H])([H])C([H])([H])C([H])([H])C([H])([H])C([H])([H])C(=O)N([H])[C@@]([H])(C(=O)N([H])C([H])([H])C([H])([H])C([H])([H])C([H])([H])C([H])([H])C(=O)N([H])[C@@]([H])(C(=O)N([H])[C@@]([H])(C(=O)N([H])[H])C([H])([H])C([H])([H])C([H])([H])N([H])C(N([H])[H])=[N+]([H])[H])C([H])([H])C([H])([H])C([H])([H])N([H])C(N([H])[H])=[N+]([H])[H])C([H])([H])[H]

>  <2D_Mol_H>  (84) 
<rdkit.Chem.rdchem.Mol object at 0x77059d9e6ab0>

>  <MW>  (84) 
892.037

>  <HBA>  (84) 
14

>  <HBD>  (84) 
15

>  <LogP>  (84) 
-7.7723

>  <NRB>  (84) 
32

>  <TPSA>  (84) 
435.18

>  <Num_Heavy_Atoms>  (84) 
63

>  <Ro5>  (84) 
[False, False, False, True, False, False]

>  <Ro5_Fulfilled>  (84) 
False

>  <Ro3>  (84) 
[False, False, False, True]

>  <Ro3_Fulfilled>  (84) 
False

>  <Fsp3>  (84) 
0.648649

>  <Fsp3_0.42>  (84) 
True

>  <Fsp3_0.45>  (84) 
True

>  <Stereogenic_Carbons>  (84) 
7

>  <C_Atoms>  (84) 
37

>  <FCStereo>  (84) 
0.189189

>  <SPS>  (84) 
1155

>  <nSPS>  (84) 
18.333333

>  <PBF>  (84) 
1.604974

>  <PBF_0.6>  (84) 
True

>  <nPBF>  (84) 
0.025476

>  <nPBF_0.016>  (84) 
True

>  <PMI1>  (84) 
17088.826791

>  <PMI2>  (84) 
35586.483012

>  <PMI3>  (84) 
46928.064356

>  <NPR1>  (84) 
0.364149

>  <NPR2>  (84) 
0.75832

>  <Sum_NPR>  (84) 
1.122469

>  <Sum_NPR_1.07>  (84) 
True

>  <Sum_NPR_1.2>  (84) 
False

>  <MaxAbsEStateIndex>  (84) 
13.123304

>  <MaxEStateIndex>  (84) 
13.123304

>  <MinAbsEStateIndex>  (84) 
0.01521

>  <MinEStateIndex>  (84) 
-1.509839

>  <qed>  (84) 
0.021428

>  <MolWt>  (84) 
892.037

>  <HeavyAtomMolWt>  (84) 
826.517

>  <ExactMolWt>  (84) 
891.51402

>  <NumValenceElectrons>  (84) 
350

>  <NumRadicalElectrons>  (84) 
0

>  <MaxPartialCharge>  (84) 
0.338266

>  <MinPartialCharge>  (84) 
-0.386941

>  <MaxAbsPartialCharge>  (84) 
0.386941

>  <MinAbsPartialCharge>  (84) 
0.338266

>  <FpDensityMorgan1>  (84) 
0.714286

>  <FpDensityMorgan2>  (84) 
1.285714

>  <FpDensityMorgan3>  (84) 
1.888889

>  <BCUT2D_MWHI>  (84) 
16.559945

>  <BCUT2D_MWLOW>  (84) 
10.067823

>  <BCUT2D_CHGHI>  (84) 
2.473778

>  <BCUT2D_CHGLO>  (84) 
-2.217113

>  <BCUT2D_LOGPHI>  (84) 
2.317023

>  <BCUT2D_LOGPLOW>  (84) 
-2.553641

>  <BCUT2D_MRHI>  (84) 
5.914567

>  <BCUT2D_MRLOW>  (84) 
-0.137314

>  <AvgIpc>  (84) 
3.79018

>  <BalabanJ>  (84) 
1.275799

>  <BertzCT>  (84) 
1881.099024

>  <Chi0>  (84) 
46.475752

>  <Chi0n>  (84) 
35.514982

>  <Chi0v>  (84) 
35.514982

>  <Chi1>  (84) 
29.991887

>  <Chi1n>  (84) 
20.915913

>  <Chi1v>  (84) 
20.915913

>  <Chi2n>  (84) 
15.136308

>  <Chi2v>  (84) 
15.136308

>  <Chi3n>  (84) 
9.997447

>  <Chi3v>  (84) 
9.997447

>  <Chi4n>  (84) 
6.563968

>  <Chi4v>  (84) 
6.563968

>  <HallKierAlpha>  (84) 
-6.41

>  <Ipc>  (84) 
21024017513324.308594

>  <Kappa1>  (84) 
50.943179

>  <Kappa2>  (84) 
26.152057

>  <Kappa3>  (84) 
17.111964

>  <LabuteASA>  (84) 
363.113905

>  <PEOE_VSA1>  (84) 
53.001196

>  <PEOE_VSA10>  (84) 
42.177476

>  <PEOE_VSA11>  (84) 
23.796908

>  <PEOE_VSA12>  (84) 
29.535899

>  <PEOE_VSA13>  (84) 
5.90718

>  <PEOE_VSA14>  (84) 
11.919109

>  <PEOE_VSA2>  (84) 
66.253802

>  <PEOE_VSA3>  (84) 
14.951936

>  <PEOE_VSA4>  (84) 
0.0

>  <PEOE_VSA5>  (84) 
0.0

>  <PEOE_VSA6>  (84) 
12.841643

>  <PEOE_VSA7>  (84) 
58.29031

>  <PEOE_VSA8>  (84) 
25.931156

>  <PEOE_VSA9>  (84) 
19.416833

>  <SMR_VSA1>  (84) 
54.535708

>  <SMR_VSA10>  (84) 
64.343928

>  <SMR_VSA2>  (84) 
0.0

>  <SMR_VSA3>  (84) 
56.736555

>  <SMR_VSA4>  (84) 
17.201002

>  <SMR_VSA5>  (84) 
126.638919

>  <SMR_VSA6>  (84) 
31.912693

>  <SMR_VSA7>  (84) 
12.65464

>  <SMR_VSA8>  (84) 
0.0

>  <SMR_VSA9>  (84) 
0.0

>  <SlogP_VSA1>  (84) 
70.970757

>  <SlogP_VSA10>  (84) 
5.817863

>  <SlogP_VSA11>  (84) 
0.0

>  <SlogP_VSA12>  (84) 
0.0

>  <SlogP_VSA2>  (84) 
139.710725

>  <SlogP_VSA3>  (84) 
33.504086

>  <SlogP_VSA4>  (84) 
0.0

>  <SlogP_VSA5>  (84) 
90.201498

>  <SlogP_VSA6>  (84) 
12.65464

>  <SlogP_VSA7>  (84) 
0.0

>  <SlogP_VSA8>  (84) 
11.163878

>  <SlogP_VSA9>  (84) 
0.0

>  <EState_VSA1>  (84) 
60.386862

>  <EState_VSA10>  (84) 
38.980278

>  <EState_VSA11>  (84) 
0.0

>  <EState_VSA2>  (84) 
78.850432

>  <EState_VSA3>  (84) 
71.000842

>  <EState_VSA4>  (84) 
0.0

>  <EState_VSA5>  (84) 
17.22174

>  <EState_VSA6>  (84) 
6.923737

>  <EState_VSA7>  (84) 
0.0

>  <EState_VSA8>  (84) 
52.169456

>  <EState_VSA9>  (84) 
38.4901

>  <VSA_EState1>  (84) 
7.067647

>  <VSA_EState10>  (84) 
0.0

>  <VSA_EState2>  (84) 
87.826573

>  <VSA_EState3>  (84) 
50.853551

>  <VSA_EState4>  (84) 
22.682948

>  <VSA_EState5>  (84) 
-2.795928

>  <VSA_EState6>  (84) 
-2.716023

>  <VSA_EState7>  (84) 
1.913606

>  <VSA_EState8>  (84) 
2.834291

>  <VSA_EState9>  (84) 
0.0

>  <FractionCSP3>  (84) 
0.648649

>  <HeavyAtomCount>  (84) 
63

>  <NHOHCount>  (84) 
21

>  <NOCount>  (84) 
26

>  <NumAliphaticCarbocycles>  (84) 
0

>  <NumAliphaticHeterocycles>  (84) 
1

>  <NumAliphaticRings>  (84) 
1

>  <NumAromaticCarbocycles>  (84) 
0

>  <NumAromaticHeterocycles>  (84) 
2

>  <NumAromaticRings>  (84) 
2

>  <NumHAcceptors>  (84) 
14

>  <NumHDonors>  (84) 
15

>  <NumHeteroatoms>  (84) 
26

>  <NumRotatableBonds>  (84) 
28

>  <NumSaturatedCarbocycles>  (84) 
0

>  <NumSaturatedHeterocycles>  (84) 
1

>  <NumSaturatedRings>  (84) 
1

>  <RingCount>  (84) 
3

>  <MolLogP>  (84) 
-7.7723

>  <MolMR>  (84) 
225.9879

>  <fr_Al_COO>  (84) 
0

>  <fr_Al_OH>  (84) 
2

>  <fr_Al_OH_noTert>  (84) 
2

>  <fr_ArN>  (84) 
1

>  <fr_Ar_COO>  (84) 
0

>  <fr_Ar_N>  (84) 
4

>  <fr_Ar_NH>  (84) 
0

>  <fr_Ar_OH>  (84) 
0

>  <fr_COO>  (84) 
0

>  <fr_COO2>  (84) 
0

>  <fr_C_O>  (84) 
6

>  <fr_C_O_noCOO>  (84) 
6

>  <fr_C_S>  (84) 
0

>  <fr_HOCCN>  (84) 
0

>  <fr_Imine>  (84) 
0

>  <fr_NH0>  (84) 
4

>  <fr_NH1>  (84) 
7

>  <fr_NH2>  (84) 
6

>  <fr_N_O>  (84) 
0

>  <fr_Ndealkylation1>  (84) 
0

>  <fr_Ndealkylation2>  (84) 
0

>  <fr_Nhpyrrole>  (84) 
0

>  <fr_SH>  (84) 
0

>  <fr_aldehyde>  (84) 
0

>  <fr_alkyl_carbamate>  (84) 
0

>  <fr_alkyl_halide>  (84) 
0

>  <fr_allylic_oxid>  (84) 
0

>  <fr_amide>  (84) 
6

>  <fr_amidine>  (84) 
0

>  <fr_aniline>  (84) 
1

>  <fr_aryl_methyl>  (84) 
0

>  <fr_azide>  (84) 
0

>  <fr_azo>  (84) 
0

>  <fr_barbitur>  (84) 
0

>  <fr_benzene>  (84) 
0

>  <fr_benzodiazepine>  (84) 
0

>  <fr_bicyclic>  (84) 
1

>  <fr_diazo>  (84) 
0

>  <fr_dihydropyridine>  (84) 
0

>  <fr_epoxide>  (84) 
0

>  <fr_ester>  (84) 
0

>  <fr_ether>  (84) 
1

>  <fr_furan>  (84) 
0

>  <fr_guanido>  (84) 
2

>  <fr_halogen>  (84) 
0

>  <fr_hdrzine>  (84) 
0

>  <fr_hdrzone>  (84) 
0

>  <fr_imidazole>  (84) 
1

>  <fr_imide>  (84) 
0

>  <fr_isocyan>  (84) 
0

>  <fr_isothiocyan>  (84) 
0

>  <fr_ketone>  (84) 
0

>  <fr_ketone_Topliss>  (84) 
0

>  <fr_lactam>  (84) 
0

>  <fr_lactone>  (84) 
0

>  <fr_methoxy>  (84) 
0

>  <fr_morpholine>  (84) 
0

>  <fr_nitrile>  (84) 
0

>  <fr_nitro>  (84) 
0

>  <fr_nitro_arom>  (84) 
0

>  <fr_nitro_arom_nonortho>  (84) 
0

>  <fr_nitroso>  (84) 
0

>  <fr_oxazole>  (84) 
0

>  <fr_oxime>  (84) 
0

>  <fr_para_hydroxylation>  (84) 
0

>  <fr_phenol>  (84) 
0

>  <fr_phenol_noOrthoHbond>  (84) 
0

>  <fr_phos_acid>  (84) 
0

>  <fr_phos_ester>  (84) 
0

>  <fr_piperdine>  (84) 
0

>  <fr_piperzine>  (84) 
0

>  <fr_priamide>  (84) 
1

>  <fr_prisulfonamd>  (84) 
0

>  <fr_pyridine>  (84) 
0

>  <fr_quatN>  (84) 
0

>  <fr_sulfide>  (84) 
0

>  <fr_sulfonamd>  (84) 
0

>  <fr_sulfone>  (84) 
0

>  <fr_term_acetylene>  (84) 
0

>  <fr_tetrazole>  (84) 
0

>  <fr_thiazole>  (84) 
0

>  <fr_thiocyan>  (84) 
0

>  <fr_thiophene>  (84) 
0

>  <fr_unbrch_alkane>  (84) 
4

>  <fr_urea>  (84) 
0

>  <NP_Likeness>  (84) 
0.116726

$$$$
ACP
     RDKit          3D

  0  0  0  0  0  0  0  0  0  0999 V3000
M  V30 BEGIN CTAB
M  V30 COUNTS 45 47 0 0 0
M  V30 BEGIN ATOM
M  V30 1 P -5.076000 10.503000 -13.658000 0 CFG=1
M  V30 2 P -0.789000 11.049000 -16.013000 0
M  V30 3 P -2.330000 11.498000 -13.343000 0 CFG=1
M  V30 4 O -6.035000 11.613000 -13.367000 0
M  V30 5 O -4.834000 10.170000 -15.070000 0 CHG=-1
M  V30 6 O 0.609000 10.507000 -16.154000 0
M  V30 7 O -1.563000 10.596000 -17.203000 0 CHG=-1
M  V30 8 O -0.710000 12.522000 -15.896000 0 CHG=-1
M  V30 9 O -2.826000 12.688000 -14.048000 0
M  V30 10 O -1.460000 11.675000 -12.139000 0 CHG=-1
M  V30 11 O -7.058000 4.471000 -14.483000 0
M  V30 12 O -5.600000 6.490000 -15.799000 0
M  V30 13 O -3.674000 10.735000 -12.865000 0
M  V30 14 O -5.595000 9.160000 -12.944000 0
M  V30 15 O -6.667000 6.637000 -12.322000 0
M  V30 16 N -13.215000 8.999000 -12.068000 0
M  V30 17 N -12.973000 6.639000 -12.142000 0
M  V30 18 N -10.876000 5.569000 -12.470000 0
M  V30 19 N -10.082000 9.053000 -12.535000 0
M  V30 20 N -8.953000 7.121000 -12.732000 0
M  V30 21 C -1.557000 10.315000 -14.519000 0
M  V30 22 C -4.782000 7.981000 -13.029000 0
M  V30 23 C -12.217000 5.516000 -12.273000 0
M  V30 24 C -8.870000 8.481000 -12.724000 0
M  V30 25 C -7.521000 5.826000 -14.347000 0 CFG=2
M  V30 26 C -6.420000 6.808000 -14.663000 0 CFG=1
M  V30 27 C -7.861000 6.116000 -12.907000 0 CFG=1
M  V30 28 C -12.436000 7.899000 -12.202000 0
M  V30 29 C -5.643000 6.768000 -13.329000 0 CFG=2
M  V30 30 C -10.215000 6.774000 -12.550000 0
M  V30 31 C -10.973000 8.042000 -12.417000 0
M  V30 32 H -6.750300 4.316500 -15.421900 0
M  V30 33 H -6.170900 6.439600 -16.618500 0
M  V30 34 H -12.805700 9.910200 -12.114500 0
M  V30 35 H -14.199400 8.899900 -11.922600 0
M  V30 36 H -0.846600 9.813500 -14.025200 0
M  V30 37 H -2.265800 9.677700 -14.821500 0
M  V30 38 H -4.309200 7.842900 -12.158700 0
M  V30 39 H -4.108800 8.096500 -13.759400 0
M  V30 40 H -12.664000 4.622900 -12.222500 0
M  V30 41 H -8.019300 8.992900 -12.843000 0
M  V30 42 H -8.314200 5.986700 -14.934400 0
M  V30 43 H -6.815700 7.718000 -14.786700 0
M  V30 44 H -8.114100 5.265200 -12.446400 0
M  V30 45 H -5.067300 5.950400 -13.313800 0
M  V30 END ATOM
M  V30 BEGIN BOND
M  V30 1 2 1 4
M  V30 2 1 1 5 CFG=3
M  V30 3 1 1 13
M  V30 4 1 1 14
M  V30 5 2 2 6
M  V30 6 1 2 7
M  V30 7 1 2 8
M  V30 8 1 2 21
M  V30 9 2 3 9
M  V30 10 1 3 10 CFG=1
M  V30 11 1 3 13
M  V30 12 1 3 21
M  V30 13 1 11 25
M  V30 14 1 12 26
M  V30 15 1 14 22
M  V30 16 1 15 27
M  V30 17 1 15 29
M  V30 18 1 16 28
M  V30 19 2 17 23
M  V30 20 1 17 28
M  V30 21 1 18 23
M  V30 22 2 18 30
M  V30 23 2 19 24
M  V30 24 1 19 31
M  V30 25 1 20 24
M  V30 26 1 20 27
M  V30 27 1 20 30
M  V30 28 1 22 29
M  V30 29 1 25 26
M  V30 30 1 25 27
M  V30 31 1 26 29
M  V30 32 2 28 31
M  V30 33 1 30 31
M  V30 34 1 29 45 CFG=3
M  V30 35 1 27 44 CFG=1
M  V30 36 1 26 43 CFG=3
M  V30 37 1 25 42 CFG=3
M  V30 38 1 11 32
M  V30 39 1 12 33
M  V30 40 1 16 34
M  V30 41 1 16 35
M  V30 42 1 21 36
M  V30 43 1 21 37
M  V30 44 1 22 38
M  V30 45 1 22 39
M  V30 46 1 23 40
M  V30 47 1 24 41
M  V30 END BOND
M  V30 END CTAB
M  END
>  <Ligand_Instance>  (85) 
4IAC_ACP_A_403

>  <Dataset>  (85) 
PDB

>  <PDB_ID>  (85) 
4IAC

>  <Chain>  (85) 
A

>  <Resi>  (85) 
403

>  <Num_Resolved_Atoms>  (85) 
31

>  <Num_H_Atoms_ProtBoundConf>  (85) 
14

>  <Pocket>  (85) 
A

>  <Name>  (85) 
PHOSPHOMETHYLPHOSPHONIC ACID ADENYLATE ESTER

>  <Num_Not_Resolved_Atoms>  (85) 
0

>  <ATP_Site>  (85) 
True

>  <Peripheral>  (85) 
False

>  <Standardized_SMILES>  (85) 
[H]O[C@@]1([H])[C@@]([H])(O[H])[C@]([H])(N2C([H])=NC3=C2N=C([H])N=C3N([H])[H])O[C@]1([H])C([H])([H])O[P@](=O)([O-])O[P@@](=O)([O-])C([H])([H])P(=O)([O-])[O-]

>  <2D_Mol_H>  (85) 
<rdkit.Chem.rdchem.Mol object at 0x77059d9e6b90>

>  <MW>  (85) 
501.178

>  <HBA>  (85) 
17

>  <HBD>  (85) 
3

>  <LogP>  (85) 
-4.0461

>  <NRB>  (85) 
11

>  <TPSA>  (85) 
281.22

>  <Num_Heavy_Atoms>  (85) 
31

>  <Ro5>  (85) 
[False, False, True, True, False, False]

>  <Ro5_Fulfilled>  (85) 
False

>  <Ro3>  (85) 
[False, False, True, True]

>  <Ro3_Fulfilled>  (85) 
False

>  <Fsp3>  (85) 
0.545455

>  <Fsp3_0.42>  (85) 
True

>  <Fsp3_0.45>  (85) 
True

>  <Stereogenic_Carbons>  (85) 
4

>  <C_Atoms>  (85) 
11

>  <FCStereo>  (85) 
0.363636

>  <SPS>  (85) 
882

>  <nSPS>  (85) 
28.451613

>  <PBF>  (85) 
0.796514

>  <PBF_0.6>  (85) 
True

>  <nPBF>  (85) 
0.025694

>  <nPBF_0.016>  (85) 
True

>  <PMI1>  (85) 
1788.516071

>  <PMI2>  (85) 
9937.963979

>  <PMI3>  (85) 
10873.811407

>  <NPR1>  (85) 
0.164479

>  <NPR2>  (85) 
0.913936

>  <Sum_NPR>  (85) 
1.078415

>  <Sum_NPR_1.07>  (85) 
True

>  <Sum_NPR_1.2>  (85) 
False

>  <MaxAbsEStateIndex>  (85) 
11.671022

>  <MaxEStateIndex>  (85) 
11.671022

>  <MinAbsEStateIndex>  (85) 
0.031351

>  <MinEStateIndex>  (85) 
-5.677858

>  <qed>  (85) 
0.290067

>  <MolWt>  (85) 
501.178

>  <HeavyAtomMolWt>  (85) 
487.066

>  <ExactMolWt>  (85) 
500.987375

>  <NumValenceElectrons>  (85) 
174

>  <NumRadicalElectrons>  (85) 
0

>  <MaxPartialCharge>  (85) 
0.272377

>  <MinPartialCharge>  (85) 
-0.810376

>  <MaxAbsPartialCharge>  (85) 
0.810376

>  <MinAbsPartialCharge>  (85) 
0.272377

>  <FpDensityMorgan1>  (85) 
1.129032

>  <FpDensityMorgan2>  (85) 
1.806452

>  <FpDensityMorgan3>  (85) 
2.451613

>  <BCUT2D_MWHI>  (85) 
31.280375

>  <BCUT2D_MWLOW>  (85) 
10.128388

>  <BCUT2D_CHGHI>  (85) 
2.446071

>  <BCUT2D_CHGLO>  (85) 
-2.38011

>  <BCUT2D_LOGPHI>  (85) 
2.588004

>  <BCUT2D_LOGPLOW>  (85) 
-2.337231

>  <BCUT2D_MRHI>  (85) 
7.714836

>  <BCUT2D_MRLOW>  (85) 
-0.312451

>  <AvgIpc>  (85) 
3.133568

>  <BalabanJ>  (85) 
1.689409

>  <BertzCT>  (85) 
1105.036107

>  <Chi0>  (85) 
23.18987

>  <Chi0n>  (85) 
15.063071

>  <Chi0v>  (85) 
17.746352

>  <Chi1>  (85) 
14.190889

>  <Chi1n>  (85) 
8.11702

>  <Chi1v>  (85) 
13.033415

>  <Chi2n>  (85) 
6.317106

>  <Chi2v>  (85) 
11.697921

>  <Chi3n>  (85) 
3.966166

>  <Chi3v>  (85) 
8.99796

>  <Chi4n>  (85) 
2.731563

>  <Chi4v>  (85) 
6.83688

>  <HallKierAlpha>  (85) 
-1.32

>  <Ipc>  (85) 
3947352.346056

>  <Kappa1>  (85) 
24.324944

>  <Kappa2>  (85) 
8.555356

>  <Kappa3>  (85) 
5.731828

>  <LabuteASA>  (85) 
172.296385

>  <PEOE_VSA1>  (85) 
53.911075

>  <PEOE_VSA10>  (85) 
37.751682

>  <PEOE_VSA11>  (85) 
17.692941

>  <PEOE_VSA12>  (85) 
0.0

>  <PEOE_VSA13>  (85) 
7.822697

>  <PEOE_VSA14>  (85) 
0.0

>  <PEOE_VSA2>  (85) 
13.442779

>  <PEOE_VSA3>  (85) 
14.951936

>  <PEOE_VSA4>  (85) 
0.0

>  <PEOE_VSA5>  (85) 
0.0

>  <PEOE_VSA6>  (85) 
7.595762

>  <PEOE_VSA7>  (85) 
0.0

>  <PEOE_VSA8>  (85) 
5.902998

>  <PEOE_VSA9>  (85) 
12.934202

>  <SMR_VSA1>  (85) 
57.053088

>  <SMR_VSA10>  (85) 
39.995962

>  <SMR_VSA2>  (85) 
0.0

>  <SMR_VSA3>  (85) 
19.519035

>  <SMR_VSA4>  (85) 
0.0

>  <SMR_VSA5>  (85) 
24.5398

>  <SMR_VSA6>  (85) 
18.243548

>  <SMR_VSA7>  (85) 
12.65464

>  <SMR_VSA8>  (85) 
0.0

>  <SMR_VSA9>  (85) 
0.0

>  <SlogP_VSA1>  (85) 
25.307314

>  <SlogP_VSA10>  (85) 
5.817863

>  <SlogP_VSA11>  (85) 
0.0

>  <SlogP_VSA12>  (85) 
23.014222

>  <SlogP_VSA2>  (85) 
60.55387

>  <SlogP_VSA3>  (85) 
27.266386

>  <SlogP_VSA4>  (85) 
0.0

>  <SlogP_VSA5>  (85) 
6.227901

>  <SlogP_VSA6>  (85) 
12.65464

>  <SlogP_VSA7>  (85) 
0.0

>  <SlogP_VSA8>  (85) 
11.163878

>  <SlogP_VSA9>  (85) 
0.0

>  <EState_VSA1>  (85) 
60.063903

>  <EState_VSA10>  (85) 
43.481846

>  <EState_VSA11>  (85) 
0.0

>  <EState_VSA2>  (85) 
16.981741

>  <EState_VSA3>  (85) 
0.0

>  <EState_VSA4>  (85) 
6.32732

>  <EState_VSA5>  (85) 
10.89442

>  <EState_VSA6>  (85) 
0.0

>  <EState_VSA7>  (85) 
0.0

>  <EState_VSA8>  (85) 
23.786314

>  <EState_VSA9>  (85) 
10.47053

>  <VSA_EState1>  (85) 
48.07839

>  <VSA_EState10>  (85) 
0.0

>  <VSA_EState2>  (85) 
55.711655

>  <VSA_EState3>  (85) 
20.36552

>  <VSA_EState4>  (85) 
5.9631

>  <VSA_EState5>  (85) 
-2.05434

>  <VSA_EState6>  (85) 
0.0

>  <VSA_EState7>  (85) 
-3.843566

>  <VSA_EState8>  (85) 
-1.022155

>  <VSA_EState9>  (85) 
-16.948605

>  <FractionCSP3>  (85) 
0.545455

>  <HeavyAtomCount>  (85) 
31

>  <NHOHCount>  (85) 
4

>  <NOCount>  (85) 
17

>  <NumAliphaticCarbocycles>  (85) 
0

>  <NumAliphaticHeterocycles>  (85) 
1

>  <NumAliphaticRings>  (85) 
1

>  <NumAromaticCarbocycles>  (85) 
0

>  <NumAromaticHeterocycles>  (85) 
2

>  <NumAromaticRings>  (85) 
2

>  <NumHAcceptors>  (85) 
17

>  <NumHDonors>  (85) 
3

>  <NumHeteroatoms>  (85) 
20

>  <NumRotatableBonds>  (85) 
8

>  <NumSaturatedCarbocycles>  (85) 
0

>  <NumSaturatedHeterocycles>  (85) 
1

>  <NumSaturatedRings>  (85) 
1

>  <RingCount>  (85) 
3

>  <MolLogP>  (85) 
-4.0461

>  <MolMR>  (85) 
90.3825

>  <fr_Al_COO>  (85) 
0

>  <fr_Al_OH>  (85) 
2

>  <fr_Al_OH_noTert>  (85) 
2

>  <fr_ArN>  (85) 
1

>  <fr_Ar_COO>  (85) 
0

>  <fr_Ar_N>  (85) 
4

>  <fr_Ar_NH>  (85) 
0

>  <fr_Ar_OH>  (85) 
0

>  <fr_COO>  (85) 
0

>  <fr_COO2>  (85) 
0

>  <fr_C_O>  (85) 
0

>  <fr_C_O_noCOO>  (85) 
0

>  <fr_C_S>  (85) 
0

>  <fr_HOCCN>  (85) 
0

>  <fr_Imine>  (85) 
0

>  <fr_NH0>  (85) 
4

>  <fr_NH1>  (85) 
0

>  <fr_NH2>  (85) 
1

>  <fr_N_O>  (85) 
0

>  <fr_Ndealkylation1>  (85) 
0

>  <fr_Ndealkylation2>  (85) 
0

>  <fr_Nhpyrrole>  (85) 
0

>  <fr_SH>  (85) 
0

>  <fr_aldehyde>  (85) 
0

>  <fr_alkyl_carbamate>  (85) 
0

>  <fr_alkyl_halide>  (85) 
0

>  <fr_allylic_oxid>  (85) 
0

>  <fr_amide>  (85) 
0

>  <fr_amidine>  (85) 
0

>  <fr_aniline>  (85) 
1

>  <fr_aryl_methyl>  (85) 
0

>  <fr_azide>  (85) 
0

>  <fr_azo>  (85) 
0

>  <fr_barbitur>  (85) 
0

>  <fr_benzene>  (85) 
0

>  <fr_benzodiazepine>  (85) 
0

>  <fr_bicyclic>  (85) 
1

>  <fr_diazo>  (85) 
0

>  <fr_dihydropyridine>  (85) 
0

>  <fr_epoxide>  (85) 
0

>  <fr_ester>  (85) 
0

>  <fr_ether>  (85) 
1

>  <fr_furan>  (85) 
0

>  <fr_guanido>  (85) 
0

>  <fr_halogen>  (85) 
0

>  <fr_hdrzine>  (85) 
0

>  <fr_hdrzone>  (85) 
0

>  <fr_imidazole>  (85) 
1

>  <fr_imide>  (85) 
0

>  <fr_isocyan>  (85) 
0

>  <fr_isothiocyan>  (85) 
0

>  <fr_ketone>  (85) 
0

>  <fr_ketone_Topliss>  (85) 
0

>  <fr_lactam>  (85) 
0

>  <fr_lactone>  (85) 
0

>  <fr_methoxy>  (85) 
0

>  <fr_morpholine>  (85) 
0

>  <fr_nitrile>  (85) 
0

>  <fr_nitro>  (85) 
0

>  <fr_nitro_arom>  (85) 
0

>  <fr_nitro_arom_nonortho>  (85) 
0

>  <fr_nitroso>  (85) 
0

>  <fr_oxazole>  (85) 
0

>  <fr_oxime>  (85) 
0

>  <fr_para_hydroxylation>  (85) 
0

>  <fr_phenol>  (85) 
0

>  <fr_phenol_noOrthoHbond>  (85) 
0

>  <fr_phos_acid>  (85) 
1

>  <fr_phos_ester>  (85) 
1

>  <fr_piperdine>  (85) 
0

>  <fr_piperzine>  (85) 
0

>  <fr_priamide>  (85) 
0

>  <fr_prisulfonamd>  (85) 
0

>  <fr_pyridine>  (85) 
0

>  <fr_quatN>  (85) 
0

>  <fr_sulfide>  (85) 
0

>  <fr_sulfonamd>  (85) 
0

>  <fr_sulfone>  (85) 
0

>  <fr_term_acetylene>  (85) 
0

>  <fr_tetrazole>  (85) 
0

>  <fr_thiazole>  (85) 
0

>  <fr_thiocyan>  (85) 
0

>  <fr_thiophene>  (85) 
0

>  <fr_unbrch_alkane>  (85) 
0

>  <fr_urea>  (85) 
0

>  <NP_Likeness>  (85) 
0.811139

$$$$
ADE
     RDKit          3D

  0  0  0  0  0  0  0  0  0  0999 V3000
M  V30 BEGIN CTAB
M  V30 COUNTS 15 16 0 0 0
M  V30 BEGIN ATOM
M  V30 1 N -29.329000 9.827000 4.073000 0
M  V30 2 N -31.306000 9.872000 5.279000 0
M  V30 3 N -33.488000 9.910000 4.257000 0
M  V30 4 N -33.372000 9.952000 1.835000 0
M  V30 5 N -31.144000 9.925000 1.568000 0
M  V30 6 C -32.642000 9.894000 5.293000 0
M  V30 7 C -32.323000 9.968000 0.974000 0
M  V30 8 C -30.670000 9.860000 4.084000 0
M  V30 9 C -32.836000 9.904000 3.091000 0
M  V30 10 C -31.461000 9.884000 2.917000 0
M  V30 11 H -28.836200 9.817500 3.202900 0
M  V30 12 H -28.822100 9.811900 4.934900 0
M  V30 13 H -34.343200 9.971500 1.597600 0
M  V30 14 H -33.065900 9.899200 6.198700 0
M  V30 15 H -32.432600 10.008600 -0.019100 0
M  V30 END ATOM
M  V30 BEGIN BOND
M  V30 1 1 1 8
M  V30 2 2 2 6
M  V30 3 1 2 8
M  V30 4 1 3 6
M  V30 5 2 3 9
M  V30 6 1 4 7
M  V30 7 1 4 9
M  V30 8 2 5 7
M  V30 9 1 5 10
M  V30 10 2 8 10
M  V30 11 1 9 10
M  V30 12 1 1 11
M  V30 13 1 1 12
M  V30 14 1 4 13
M  V30 15 1 6 14
M  V30 16 1 7 15
M  V30 END BOND
M  V30 END CTAB
M  END
>  <Ligand_Instance>  (86) 
6Y05_ADE_A_401

>  <Dataset>  (86) 
PDB

>  <PDB_ID>  (86) 
6Y05

>  <Chain>  (86) 
A

>  <Resi>  (86) 
401

>  <Num_Resolved_Atoms>  (86) 
10

>  <Num_H_Atoms_ProtBoundConf>  (86) 
5

>  <Pocket>  (86) 
A

>  <Name>  (86) 
ADENINE

>  <Num_Not_Resolved_Atoms>  (86) 
0

>  <ATP_Site>  (86) 
True

>  <Peripheral>  (86) 
False

>  <Standardized_SMILES>  (86) 
[H]C1=NC2=C(N=C([H])N2[H])C(N([H])[H])=N1

>  <2D_Mol_H>  (86) 
<rdkit.Chem.rdchem.Mol object at 0x77059d9e6c70>

>  <MW>  (86) 
135.13

>  <HBA>  (86) 
4

>  <HBD>  (86) 
2

>  <LogP>  (86) 
-0.0649

>  <NRB>  (86) 
1

>  <TPSA>  (86) 
80.48

>  <Num_Heavy_Atoms>  (86) 
10

>  <Ro5>  (86) 
[True, True, True, True, True, True]

>  <Ro5_Fulfilled>  (86) 
True

>  <Ro3>  (86) 
[True, False, True, True]

>  <Ro3_Fulfilled>  (86) 
True

>  <Fsp3>  (86) 
0.0

>  <Fsp3_0.42>  (86) 
False

>  <Fsp3_0.45>  (86) 
False

>  <Stereogenic_Carbons>  (86) 
0

>  <C_Atoms>  (86) 
5

>  <FCStereo>  (86) 
0.0

>  <SPS>  (86) 
104

>  <nSPS>  (86) 
10.4

>  <PBF>  (86) 
0.014375

>  <PBF_0.6>  (86) 
False

>  <nPBF>  (86) 
0.001437

>  <nPBF_0.016>  (86) 
False

>  <PMI1>  (86) 
210.257217

>  <PMI2>  (86) 
322.606234

>  <PMI3>  (86) 
532.817157

>  <NPR1>  (86) 
0.394614

>  <NPR2>  (86) 
0.605473

>  <Sum_NPR>  (86) 
1.000087

>  <Sum_NPR_1.07>  (86) 
False

>  <Sum_NPR_1.2>  (86) 
False

>  <MaxAbsEStateIndex>  (86) 
5.467037

>  <MaxEStateIndex>  (86) 
5.467037

>  <MinAbsEStateIndex>  (86) 
0.408565

>  <MinEStateIndex>  (86) 
0.408565

>  <qed>  (86) 
0.529676

>  <MolWt>  (86) 
135.13

>  <HeavyAtomMolWt>  (86) 
130.09

>  <ExactMolWt>  (86) 
135.054495

>  <NumValenceElectrons>  (86) 
50

>  <NumRadicalElectrons>  (86) 
0

>  <MaxPartialCharge>  (86) 
0.162275

>  <MinPartialCharge>  (86) 
-0.381731

>  <MaxAbsPartialCharge>  (86) 
0.381731

>  <MinAbsPartialCharge>  (86) 
0.162275

>  <FpDensityMorgan1>  (86) 
1.3

>  <FpDensityMorgan2>  (86) 
2.2

>  <FpDensityMorgan3>  (86) 
3.0

>  <BCUT2D_MWHI>  (86) 
15.021488

>  <BCUT2D_MWLOW>  (86) 
10.504288

>  <BCUT2D_CHGHI>  (86) 
1.988419

>  <BCUT2D_CHGLO>  (86) 
-1.883476

>  <BCUT2D_LOGPHI>  (86) 
2.085581

>  <BCUT2D_LOGPLOW>  (86) 
-1.912359

>  <BCUT2D_MRHI>  (86) 
5.79688

>  <BCUT2D_MRLOW>  (86) 
1.206507

>  <AvgIpc>  (86) 
2.357102

>  <BalabanJ>  (86) 
2.95009

>  <BertzCT>  (86) 
351.565797

>  <Chi0>  (86) 
6.974691

>  <Chi0n>  (86) 
5.073692

>  <Chi0v>  (86) 
5.073692

>  <Chi1>  (86) 
4.87701

>  <Chi1n>  (86) 
2.772767

>  <Chi1v>  (86) 
2.772767

>  <Chi2n>  (86) 
1.858659

>  <Chi2v>  (86) 
1.858659

>  <Chi3n>  (86) 
1.245496

>  <Chi3v>  (86) 
1.245496

>  <Chi4n>  (86) 
0.78327

>  <Chi4v>  (86) 
0.78327

>  <HallKierAlpha>  (86) 
-1.65

>  <Ipc>  (86) 
372.42214

>  <Kappa1>  (86) 
5.15986

>  <Kappa2>  (86) 
1.662923

>  <Kappa3>  (86) 
0.539771

>  <LabuteASA>  (86) 
56.321063

>  <PEOE_VSA1>  (86) 
10.717646

>  <PEOE_VSA10>  (86) 
11.844021

>  <PEOE_VSA11>  (86) 
11.46504

>  <PEOE_VSA12>  (86) 
0.0

>  <PEOE_VSA13>  (86) 
0.0

>  <PEOE_VSA14>  (86) 
0.0

>  <PEOE_VSA2>  (86) 
0.0

>  <PEOE_VSA3>  (86) 
14.951936

>  <PEOE_VSA4>  (86) 
0.0

>  <PEOE_VSA5>  (86) 
0.0

>  <PEOE_VSA6>  (86) 
0.0

>  <PEOE_VSA7>  (86) 
0.0

>  <PEOE_VSA8>  (86) 
0.0

>  <PEOE_VSA9>  (86) 
6.32732

>  <SMR_VSA1>  (86) 
0.0

>  <SMR_VSA10>  (86) 
16.981741

>  <SMR_VSA2>  (86) 
0.0

>  <SMR_VSA3>  (86) 
19.935914

>  <SMR_VSA4>  (86) 
0.0

>  <SMR_VSA5>  (86) 
0.0

>  <SMR_VSA6>  (86) 
5.733667

>  <SMR_VSA7>  (86) 
12.65464

>  <SMR_VSA8>  (86) 
0.0

>  <SMR_VSA9>  (86) 
0.0

>  <SlogP_VSA1>  (86) 
5.733667

>  <SlogP_VSA10>  (86) 
5.817863

>  <SlogP_VSA11>  (86) 
0.0

>  <SlogP_VSA12>  (86) 
0.0

>  <SlogP_VSA2>  (86) 
19.935914

>  <SlogP_VSA3>  (86) 
0.0

>  <SlogP_VSA4>  (86) 
0.0

>  <SlogP_VSA5>  (86) 
0.0

>  <SlogP_VSA6>  (86) 
12.65464

>  <SlogP_VSA7>  (86) 
0.0

>  <SlogP_VSA8>  (86) 
11.163878

>  <SlogP_VSA9>  (86) 
0.0

>  <EState_VSA1>  (86) 
0.0

>  <EState_VSA10>  (86) 
0.0

>  <EState_VSA11>  (86) 
0.0

>  <EState_VSA2>  (86) 
0.0

>  <EState_VSA3>  (86) 
16.981741

>  <EState_VSA4>  (86) 
0.0

>  <EState_VSA5>  (86) 
12.65464

>  <EState_VSA6>  (86) 
0.0

>  <EState_VSA7>  (86) 
0.0

>  <EState_VSA8>  (86) 
19.935914

>  <EState_VSA9>  (86) 
5.733667

>  <VSA_EState1>  (86) 
0.0

>  <VSA_EState10>  (86) 
0.0

>  <VSA_EState2>  (86) 
14.387407

>  <VSA_EState3>  (86) 
0.0

>  <VSA_EState4>  (86) 
6.767963

>  <VSA_EState5>  (86) 
0.408565

>  <VSA_EState6>  (86) 
0.0

>  <VSA_EState7>  (86) 
2.936065

>  <VSA_EState8>  (86) 
0.0

>  <VSA_EState9>  (86) 
0.0

>  <FractionCSP3>  (86) 
0.0

>  <HeavyAtomCount>  (86) 
10

>  <NHOHCount>  (86) 
3

>  <NOCount>  (86) 
5

>  <NumAliphaticCarbocycles>  (86) 
0

>  <NumAliphaticHeterocycles>  (86) 
0

>  <NumAliphaticRings>  (86) 
0

>  <NumAromaticCarbocycles>  (86) 
0

>  <NumAromaticHeterocycles>  (86) 
2

>  <NumAromaticRings>  (86) 
2

>  <NumHAcceptors>  (86) 
4

>  <NumHDonors>  (86) 
2

>  <NumHeteroatoms>  (86) 
5

>  <NumRotatableBonds>  (86) 
0

>  <NumSaturatedCarbocycles>  (86) 
0

>  <NumSaturatedHeterocycles>  (86) 
0

>  <NumSaturatedRings>  (86) 
0

>  <RingCount>  (86) 
2

>  <MolLogP>  (86) 
-0.0649

>  <MolMR>  (86) 
36.0961

>  <fr_Al_COO>  (86) 
0

>  <fr_Al_OH>  (86) 
0

>  <fr_Al_OH_noTert>  (86) 
0

>  <fr_ArN>  (86) 
1

>  <fr_Ar_COO>  (86) 
0

>  <fr_Ar_N>  (86) 
4

>  <fr_Ar_NH>  (86) 
1

>  <fr_Ar_OH>  (86) 
0

>  <fr_COO>  (86) 
0

>  <fr_COO2>  (86) 
0

>  <fr_C_O>  (86) 
0

>  <fr_C_O_noCOO>  (86) 
0

>  <fr_C_S>  (86) 
0

>  <fr_HOCCN>  (86) 
0

>  <fr_Imine>  (86) 
0

>  <fr_NH0>  (86) 
3

>  <fr_NH1>  (86) 
1

>  <fr_NH2>  (86) 
1

>  <fr_N_O>  (86) 
0

>  <fr_Ndealkylation1>  (86) 
0

>  <fr_Ndealkylation2>  (86) 
0

>  <fr_Nhpyrrole>  (86) 
1

>  <fr_SH>  (86) 
0

>  <fr_aldehyde>  (86) 
0

>  <fr_alkyl_carbamate>  (86) 
0

>  <fr_alkyl_halide>  (86) 
0

>  <fr_allylic_oxid>  (86) 
0

>  <fr_amide>  (86) 
0

>  <fr_amidine>  (86) 
0

>  <fr_aniline>  (86) 
1

>  <fr_aryl_methyl>  (86) 
0

>  <fr_azide>  (86) 
0

>  <fr_azo>  (86) 
0

>  <fr_barbitur>  (86) 
0

>  <fr_benzene>  (86) 
0

>  <fr_benzodiazepine>  (86) 
0

>  <fr_bicyclic>  (86) 
1

>  <fr_diazo>  (86) 
0

>  <fr_dihydropyridine>  (86) 
0

>  <fr_epoxide>  (86) 
0

>  <fr_ester>  (86) 
0

>  <fr_ether>  (86) 
0

>  <fr_furan>  (86) 
0

>  <fr_guanido>  (86) 
0

>  <fr_halogen>  (86) 
0

>  <fr_hdrzine>  (86) 
0

>  <fr_hdrzone>  (86) 
0

>  <fr_imidazole>  (86) 
1

>  <fr_imide>  (86) 
0

>  <fr_isocyan>  (86) 
0

>  <fr_isothiocyan>  (86) 
0

>  <fr_ketone>  (86) 
0

>  <fr_ketone_Topliss>  (86) 
0

>  <fr_lactam>  (86) 
0

>  <fr_lactone>  (86) 
0

>  <fr_methoxy>  (86) 
0

>  <fr_morpholine>  (86) 
0

>  <fr_nitrile>  (86) 
0

>  <fr_nitro>  (86) 
0

>  <fr_nitro_arom>  (86) 
0

>  <fr_nitro_arom_nonortho>  (86) 
0

>  <fr_nitroso>  (86) 
0

>  <fr_oxazole>  (86) 
0

>  <fr_oxime>  (86) 
0

>  <fr_para_hydroxylation>  (86) 
0

>  <fr_phenol>  (86) 
0

>  <fr_phenol_noOrthoHbond>  (86) 
0

>  <fr_phos_acid>  (86) 
0

>  <fr_phos_ester>  (86) 
0

>  <fr_piperdine>  (86) 
0

>  <fr_piperzine>  (86) 
0

>  <fr_priamide>  (86) 
0

>  <fr_prisulfonamd>  (86) 
0

>  <fr_pyridine>  (86) 
0

>  <fr_quatN>  (86) 
0

>  <fr_sulfide>  (86) 
0

>  <fr_sulfonamd>  (86) 
0

>  <fr_sulfone>  (86) 
0

>  <fr_term_acetylene>  (86) 
0

>  <fr_tetrazole>  (86) 
0

>  <fr_thiazole>  (86) 
0

>  <fr_thiocyan>  (86) 
0

>  <fr_thiophene>  (86) 
0

>  <fr_unbrch_alkane>  (86) 
0

>  <fr_urea>  (86) 
0

>  <NP_Likeness>  (86) 
-0.222169

$$$$
ADP
     RDKit          3D

  0  0  0  0  0  0  0  0  0  0999 V3000
M  V30 BEGIN CTAB
M  V30 COUNTS 39 41 0 0 0
M  V30 BEGIN ATOM
M  V30 1 P 25.209000 8.353000 34.470000 0
M  V30 2 P 25.799000 6.701000 36.627000 0 CFG=1
M  V30 3 O 25.330000 7.914000 33.046000 0
M  V30 4 O 24.151000 9.406000 34.557000 0 CHG=-1
M  V30 5 O 26.629000 8.954000 34.959000 0 CHG=-1
M  V30 6 O 27.158000 6.374000 36.093000 0
M  V30 7 O 25.888000 7.829000 37.590000 0 CHG=-1
M  V30 8 O 21.310000 2.649000 35.653000 0
M  V30 9 O 23.514000 4.188000 35.030000 0
M  V30 10 O 24.774000 7.071000 35.395000 0
M  V30 11 O 25.223000 5.437000 37.401000 0
M  V30 12 O 21.767000 4.462000 38.136000 0
M  V30 13 N 16.014000 8.016000 38.117000 0
M  V30 14 N 15.796000 5.732000 37.938000 0
M  V30 15 N 17.641000 4.230000 37.574000 0
M  V30 16 N 19.021000 7.530000 37.677000 0
M  V30 17 N 19.763000 5.423000 37.422000 0
M  V30 18 C 23.934000 5.498000 38.005000 0
M  V30 19 C 16.363000 4.536000 37.761000 0
M  V30 20 C 20.064000 6.763000 37.483000 0
M  V30 21 C 21.222000 4.046000 35.860000 0 CFG=2
M  V30 22 C 22.579000 4.739000 35.946000 0 CFG=1
M  V30 23 C 20.669000 4.282000 37.264000 0 CFG=1
M  V30 24 C 16.581000 6.826000 37.934000 0
M  V30 25 C 23.007000 4.470000 37.382000 0 CFG=2
M  V30 26 C 18.398000 5.341000 37.571000 0
M  V30 27 C 17.958000 6.640000 37.737000 0
M  V30 28 H 20.389800 2.260300 35.606700 0
M  V30 29 H 23.168000 4.291800 34.097500 0
M  V30 30 H 16.576300 8.842900 38.118100 0
M  V30 31 H 15.025600 8.083300 38.253400 0
M  V30 32 H 23.550300 6.411600 37.870600 0
M  V30 33 H 24.020100 5.313300 38.984000 0
M  V30 34 H 15.734000 3.758700 37.770700 0
M  V30 35 H 20.993700 7.118900 37.388000 0
M  V30 36 H 20.641900 4.476100 35.168200 0
M  V30 37 H 22.478200 5.721800 35.791300 0
M  V30 38 H 20.180400 3.456800 37.547300 0
M  V30 39 H 23.432100 3.566500 37.436000 0
M  V30 END ATOM
M  V30 BEGIN BOND
M  V30 1 2 1 3
M  V30 2 1 1 4
M  V30 3 1 1 5
M  V30 4 1 1 10
M  V30 5 2 2 6
M  V30 6 1 2 7 CFG=1
M  V30 7 1 2 10
M  V30 8 1 2 11
M  V30 9 1 8 21
M  V30 10 1 9 22
M  V30 11 1 11 18
M  V30 12 1 12 23
M  V30 13 1 12 25
M  V30 14 1 13 24
M  V30 15 2 14 19
M  V30 16 1 14 24
M  V30 17 1 15 19
M  V30 18 2 15 26
M  V30 19 2 16 20
M  V30 20 1 16 27
M  V30 21 1 17 20
M  V30 22 1 17 23
M  V30 23 1 17 26
M  V30 24 1 18 25
M  V30 25 1 21 22
M  V30 26 1 21 23
M  V30 27 1 22 25
M  V30 28 2 24 27
M  V30 29 1 26 27
M  V30 30 1 25 39 CFG=3
M  V30 31 1 23 38 CFG=1
M  V30 32 1 22 37 CFG=1
M  V30 33 1 8 28
M  V30 34 1 9 29
M  V30 35 1 13 30
M  V30 36 1 13 31
M  V30 37 1 18 32
M  V30 38 1 18 33
M  V30 39 1 19 34
M  V30 40 1 20 35
M  V30 41 1 21 36 CFG=3
M  V30 END BOND
M  V30 END CTAB
M  END
>  <Ligand_Instance>  (87) 
2QUR_ADP_B_1

>  <Dataset>  (87) 
PDB

>  <PDB_ID>  (87) 
2QUR

>  <Chain>  (87) 
B

>  <Resi>  (87) 
1

>  <Num_Resolved_Atoms>  (87) 
27

>  <Num_H_Atoms_ProtBoundConf>  (87) 
12

>  <Pocket>  (87) 
A

>  <Name>  (87) 
ADENOSINE-5'-DIPHOSPHATE

>  <Num_Not_Resolved_Atoms>  (87) 
0

>  <ATP_Site>  (87) 
True

>  <Peripheral>  (87) 
False

>  <Standardized_SMILES>  (87) 
[H]O[C@@]1([H])[C@@]([H])(O[H])[C@]([H])(N2C([H])=NC3=C2N=C([H])N=C3N([H])[H])O[C@]1([H])C([H])([H])O[P@](=O)([O-])OP(=O)([O-])[O-]

>  <2D_Mol_H>  (87) 
<rdkit.Chem.rdchem.Mol object at 0x77059d9e6d50>

>  <MW>  (87) 
424.179

>  <HBA>  (87) 
15

>  <HBD>  (87) 
3

>  <LogP>  (87) 
-3.642

>  <NRB>  (87) 
9

>  <TPSA>  (87) 
241.09

>  <Num_Heavy_Atoms>  (87) 
27

>  <Ro5>  (87) 
[True, False, True, True, True, False]

>  <Ro5_Fulfilled>  (87) 
False

>  <Ro3>  (87) 
[False, False, True, True]

>  <Ro3_Fulfilled>  (87) 
False

>  <Fsp3>  (87) 
0.5

>  <Fsp3_0.42>  (87) 
True

>  <Fsp3_0.45>  (87) 
True

>  <Stereogenic_Carbons>  (87) 
4

>  <C_Atoms>  (87) 
10

>  <FCStereo>  (87) 
0.4

>  <SPS>  (87) 
769

>  <nSPS>  (87) 
28.481481

>  <PBF>  (87) 
0.883908

>  <PBF_0.6>  (87) 
True

>  <nPBF>  (87) 
0.032737

>  <nPBF_0.016>  (87) 
True

>  <PMI1>  (87) 
1597.8211

>  <PMI2>  (87) 
6205.950704

>  <PMI3>  (87) 
6845.742867

>  <NPR1>  (87) 
0.233404

>  <NPR2>  (87) 
0.906542

>  <Sum_NPR>  (87) 
1.139945

>  <Sum_NPR_1.07>  (87) 
True

>  <Sum_NPR_1.2>  (87) 
False

>  <MaxAbsEStateIndex>  (87) 
11.278955

>  <MaxEStateIndex>  (87) 
11.278955

>  <MinAbsEStateIndex>  (87) 
0.065524

>  <MinEStateIndex>  (87) 
-5.851432

>  <qed>  (87) 
0.378904

>  <MolWt>  (87) 
424.179

>  <HeavyAtomMolWt>  (87) 
412.083

>  <ExactMolWt>  (87) 
424.007586

>  <NumValenceElectrons>  (87) 
150

>  <NumRadicalElectrons>  (87) 
0

>  <MaxPartialCharge>  (87) 
0.271368

>  <MinPartialCharge>  (87) 
-0.789509

>  <MaxAbsPartialCharge>  (87) 
0.789509

>  <MinAbsPartialCharge>  (87) 
0.271368

>  <FpDensityMorgan1>  (87) 
1.222222

>  <FpDensityMorgan2>  (87) 
1.925926

>  <FpDensityMorgan3>  (87) 
2.592593

>  <BCUT2D_MWHI>  (87) 
31.27025

>  <BCUT2D_MWLOW>  (87) 
10.128388

>  <BCUT2D_CHGHI>  (87) 
2.444842

>  <BCUT2D_CHGLO>  (87) 
-2.350424

>  <BCUT2D_LOGPHI>  (87) 
2.503664

>  <BCUT2D_LOGPLOW>  (87) 
-2.337741

>  <BCUT2D_MRHI>  (87) 
7.580921

>  <BCUT2D_MRLOW>  (87) 
-0.339423

>  <AvgIpc>  (87) 
3.072773

>  <BalabanJ>  (87) 
1.748652

>  <BertzCT>  (87) 
932.232873

>  <Chi0>  (87) 
19.982763

>  <Chi0n>  (87) 
13.092254

>  <Chi0v>  (87) 
14.881108

>  <Chi1>  (87) 
12.483782

>  <Chi1n>  (87) 
7.119416

>  <Chi1v>  (87) 
10.040603

>  <Chi2n>  (87) 
5.401088

>  <Chi2v>  (87) 
8.101339

>  <Chi3n>  (87) 
3.595354

>  <Chi3v>  (87) 
5.660653

>  <Chi4n>  (87) 
2.463726

>  <Chi4v>  (87) 
3.961582

>  <HallKierAlpha>  (87) 
-1.51

>  <Ipc>  (87) 
807942.564302

>  <Kappa1>  (87) 
20.230095

>  <Kappa2>  (87) 
7.144568

>  <Kappa3>  (87) 
4.329348

>  <LabuteASA>  (87) 
149.760939

>  <PEOE_VSA1>  (87) 
44.452615

>  <PEOE_VSA10>  (87) 
30.15592

>  <PEOE_VSA11>  (87) 
17.692941

>  <PEOE_VSA12>  (87) 
0.0

>  <PEOE_VSA13>  (87) 
7.822697

>  <PEOE_VSA14>  (87) 
0.0

>  <PEOE_VSA2>  (87) 
13.442779

>  <PEOE_VSA3>  (87) 
14.951936

>  <PEOE_VSA4>  (87) 
0.0

>  <PEOE_VSA5>  (87) 
0.0

>  <PEOE_VSA6>  (87) 
0.0

>  <PEOE_VSA7>  (87) 
0.0

>  <PEOE_VSA8>  (87) 
0.0

>  <PEOE_VSA9>  (87) 
20.756899

>  <SMR_VSA1>  (87) 
47.594628

>  <SMR_VSA10>  (87) 
32.627135

>  <SMR_VSA2>  (87) 
0.0

>  <SMR_VSA3>  (87) 
19.519035

>  <SMR_VSA4>  (87) 
0.0

>  <SMR_VSA5>  (87) 
24.5398

>  <SMR_VSA6>  (87) 
12.340549

>  <SMR_VSA7>  (87) 
12.65464

>  <SMR_VSA8>  (87) 
0.0

>  <SMR_VSA9>  (87) 
0.0

>  <SlogP_VSA1>  (87) 
20.413902

>  <SlogP_VSA10>  (87) 
5.817863

>  <SlogP_VSA11>  (87) 
0.0

>  <SlogP_VSA12>  (87) 
15.645394

>  <SlogP_VSA2>  (87) 
54.650871

>  <SlogP_VSA3>  (87) 
22.701338

>  <SlogP_VSA4>  (87) 
0.0

>  <SlogP_VSA5>  (87) 
6.227901

>  <SlogP_VSA6>  (87) 
12.65464

>  <SlogP_VSA7>  (87) 
0.0

>  <SlogP_VSA8>  (87) 
11.163878

>  <SlogP_VSA9>  (87) 
0.0

>  <EState_VSA1>  (87) 
46.792077

>  <EState_VSA10>  (87) 
34.023386

>  <EState_VSA11>  (87) 
0.0

>  <EState_VSA2>  (87) 
16.981741

>  <EState_VSA3>  (87) 
0.0

>  <EState_VSA4>  (87) 
6.32732

>  <EState_VSA5>  (87) 
10.89442

>  <EState_VSA6>  (87) 
0.0

>  <EState_VSA7>  (87) 
0.0

>  <EState_VSA8>  (87) 
23.786314

>  <EState_VSA9>  (87) 
10.47053

>  <VSA_EState1>  (87) 
35.749107

>  <VSA_EState10>  (87) 
0.0

>  <VSA_EState2>  (87) 
43.665953

>  <VSA_EState3>  (87) 
20.193372

>  <VSA_EState4>  (87) 
6.037581

>  <VSA_EState5>  (87) 
0.065524

>  <VSA_EState6>  (87) 
0.0

>  <VSA_EState7>  (87) 
-3.478964

>  <VSA_EState8>  (87) 
-0.931293

>  <VSA_EState9>  (87) 
-11.356836

>  <FractionCSP3>  (87) 
0.5

>  <HeavyAtomCount>  (87) 
27

>  <NHOHCount>  (87) 
4

>  <NOCount>  (87) 
15

>  <NumAliphaticCarbocycles>  (87) 
0

>  <NumAliphaticHeterocycles>  (87) 
1

>  <NumAliphaticRings>  (87) 
1

>  <NumAromaticCarbocycles>  (87) 
0

>  <NumAromaticHeterocycles>  (87) 
2

>  <NumAromaticRings>  (87) 
2

>  <NumHAcceptors>  (87) 
15

>  <NumHDonors>  (87) 
3

>  <NumHeteroatoms>  (87) 
17

>  <NumRotatableBonds>  (87) 
6

>  <NumSaturatedCarbocycles>  (87) 
0

>  <NumSaturatedHeterocycles>  (87) 
1

>  <NumSaturatedRings>  (87) 
1

>  <RingCount>  (87) 
3

>  <MolLogP>  (87) 
-3.642

>  <MolMR>  (87) 
77.909

>  <fr_Al_COO>  (87) 
0

>  <fr_Al_OH>  (87) 
2

>  <fr_Al_OH_noTert>  (87) 
2

>  <fr_ArN>  (87) 
1

>  <fr_Ar_COO>  (87) 
0

>  <fr_Ar_N>  (87) 
4

>  <fr_Ar_NH>  (87) 
0

>  <fr_Ar_OH>  (87) 
0

>  <fr_COO>  (87) 
0

>  <fr_COO2>  (87) 
0

>  <fr_C_O>  (87) 
0

>  <fr_C_O_noCOO>  (87) 
0

>  <fr_C_S>  (87) 
0

>  <fr_HOCCN>  (87) 
0

>  <fr_Imine>  (87) 
0

>  <fr_NH0>  (87) 
4

>  <fr_NH1>  (87) 
0

>  <fr_NH2>  (87) 
1

>  <fr_N_O>  (87) 
0

>  <fr_Ndealkylation1>  (87) 
0

>  <fr_Ndealkylation2>  (87) 
0

>  <fr_Nhpyrrole>  (87) 
0

>  <fr_SH>  (87) 
0

>  <fr_aldehyde>  (87) 
0

>  <fr_alkyl_carbamate>  (87) 
0

>  <fr_alkyl_halide>  (87) 
0

>  <fr_allylic_oxid>  (87) 
0

>  <fr_amide>  (87) 
0

>  <fr_amidine>  (87) 
0

>  <fr_aniline>  (87) 
1

>  <fr_aryl_methyl>  (87) 
0

>  <fr_azide>  (87) 
0

>  <fr_azo>  (87) 
0

>  <fr_barbitur>  (87) 
0

>  <fr_benzene>  (87) 
0

>  <fr_benzodiazepine>  (87) 
0

>  <fr_bicyclic>  (87) 
1

>  <fr_diazo>  (87) 
0

>  <fr_dihydropyridine>  (87) 
0

>  <fr_epoxide>  (87) 
0

>  <fr_ester>  (87) 
0

>  <fr_ether>  (87) 
1

>  <fr_furan>  (87) 
0

>  <fr_guanido>  (87) 
0

>  <fr_halogen>  (87) 
0

>  <fr_hdrzine>  (87) 
0

>  <fr_hdrzone>  (87) 
0

>  <fr_imidazole>  (87) 
1

>  <fr_imide>  (87) 
0

>  <fr_isocyan>  (87) 
0

>  <fr_isothiocyan>  (87) 
0

>  <fr_ketone>  (87) 
0

>  <fr_ketone_Topliss>  (87) 
0

>  <fr_lactam>  (87) 
0

>  <fr_lactone>  (87) 
0

>  <fr_methoxy>  (87) 
0

>  <fr_morpholine>  (87) 
0

>  <fr_nitrile>  (87) 
0

>  <fr_nitro>  (87) 
0

>  <fr_nitro_arom>  (87) 
0

>  <fr_nitro_arom_nonortho>  (87) 
0

>  <fr_nitroso>  (87) 
0

>  <fr_oxazole>  (87) 
0

>  <fr_oxime>  (87) 
0

>  <fr_para_hydroxylation>  (87) 
0

>  <fr_phenol>  (87) 
0

>  <fr_phenol_noOrthoHbond>  (87) 
0

>  <fr_phos_acid>  (87) 
2

>  <fr_phos_ester>  (87) 
1

>  <fr_piperdine>  (87) 
0

>  <fr_piperzine>  (87) 
0

>  <fr_priamide>  (87) 
0

>  <fr_prisulfonamd>  (87) 
0

>  <fr_pyridine>  (87) 
0

>  <fr_quatN>  (87) 
0

>  <fr_sulfide>  (87) 
0

>  <fr_sulfonamd>  (87) 
0

>  <fr_sulfone>  (87) 
0

>  <fr_term_acetylene>  (87) 
0

>  <fr_tetrazole>  (87) 
0

>  <fr_thiazole>  (87) 
0

>  <fr_thiocyan>  (87) 
0

>  <fr_thiophene>  (87) 
0

>  <fr_unbrch_alkane>  (87) 
0

>  <fr_urea>  (87) 
0

>  <NP_Likeness>  (87) 
0.931308

$$$$
ADP
     RDKit          3D

  0  0  0  0  0  0  0  0  0  0999 V3000
M  V30 BEGIN CTAB
M  V30 COUNTS 39 41 0 0 0
M  V30 BEGIN ATOM
M  V30 1 P -2.790000 11.359000 -13.613000 0
M  V30 2 P -5.600000 10.602000 -13.831000 0 CFG=1
M  V30 3 O -3.154000 12.745000 -14.050000 0
M  V30 4 O -1.698000 11.215000 -12.577000 0 CHG=-1
M  V30 5 O -2.472000 10.586000 -14.830000 0 CHG=-1
M  V30 6 O -6.371000 11.792000 -13.480000 0
M  V30 7 O -5.491000 10.363000 -15.284000 0 CHG=-1
M  V30 8 O -7.400000 4.311000 -14.560000 0
M  V30 9 O -6.017000 6.457000 -15.975000 0
M  V30 10 O -4.133000 10.702000 -13.142000 0
M  V30 11 O -6.131000 9.276000 -13.155000 0
M  V30 12 O -6.950000 6.722000 -12.481000 0
M  V30 13 N -13.440000 8.990000 -12.117000 0
M  V30 14 N -13.315000 6.648000 -12.148000 0
M  V30 15 N -11.244000 5.383000 -12.474000 0
M  V30 16 N -10.341000 8.880000 -12.594000 0
M  V30 17 N -9.289000 6.881000 -12.764000 0
M  V30 18 C -5.231000 8.152000 -13.322000 0
M  V30 19 C -12.577000 5.490000 -12.268000 0
M  V30 20 C -9.204000 8.256000 -12.769000 0
M  V30 21 C -7.787000 5.652000 -14.380000 0 CFG=2
M  V30 22 C -6.781000 6.726000 -14.818000 0 CFG=1
M  V30 23 C -8.088000 5.996000 -12.950000 0 CFG=1
M  V30 24 C -12.691000 7.872000 -12.239000 0
M  V30 25 C -5.956000 6.858000 -13.542000 0 CFG=2
M  V30 26 C -10.629000 6.621000 -12.562000 0
M  V30 27 C -11.261000 7.878000 -12.457000 0
M  V30 28 H -6.786900 4.243800 -15.347100 0
M  V30 29 H -6.628500 6.328000 -16.755700 0
M  V30 30 H -13.008700 9.890100 -12.179600 0
M  V30 31 H -14.425600 8.917300 -11.964100 0
M  V30 32 H -4.668400 8.067700 -12.499600 0
M  V30 33 H -4.643000 8.327500 -14.111600 0
M  V30 34 H -13.084400 4.631400 -12.194500 0
M  V30 35 H -8.338700 8.740800 -12.896700 0
M  V30 36 H -8.625700 5.794900 -14.905500 0
M  V30 37 H -7.277600 7.582100 -14.961200 0
M  V30 38 H -8.198800 5.157800 -12.416000 0
M  V30 39 H -5.306100 6.100000 -13.487100 0
M  V30 END ATOM
M  V30 BEGIN BOND
M  V30 1 2 1 3
M  V30 2 1 1 4
M  V30 3 1 1 5
M  V30 4 1 1 10
M  V30 5 2 2 6
M  V30 6 1 2 7 CFG=3
M  V30 7 1 2 10
M  V30 8 1 2 11
M  V30 9 1 8 21
M  V30 10 1 9 22
M  V30 11 1 11 18
M  V30 12 1 12 23
M  V30 13 1 12 25
M  V30 14 1 13 24
M  V30 15 2 14 19
M  V30 16 1 14 24
M  V30 17 1 15 19
M  V30 18 2 15 26
M  V30 19 2 16 20
M  V30 20 1 16 27
M  V30 21 1 17 20
M  V30 22 1 17 23
M  V30 23 1 17 26
M  V30 24 1 18 25
M  V30 25 1 21 22
M  V30 26 1 21 23
M  V30 27 1 22 25
M  V30 28 2 24 27
M  V30 29 1 26 27
M  V30 30 1 25 39 CFG=1
M  V30 31 1 23 38 CFG=1
M  V30 32 1 22 37 CFG=3
M  V30 33 1 8 28
M  V30 34 1 9 29
M  V30 35 1 13 30
M  V30 36 1 13 31
M  V30 37 1 18 32
M  V30 38 1 18 33
M  V30 39 1 19 34
M  V30 40 1 20 35
M  V30 41 1 21 36 CFG=3
M  V30 END BOND
M  V30 END CTAB
M  END
>  <Ligand_Instance>  (88) 
4DH5_ADP_A_403

>  <Dataset>  (88) 
PDB

>  <PDB_ID>  (88) 
4DH5

>  <Chain>  (88) 
A

>  <Resi>  (88) 
403

>  <Num_Resolved_Atoms>  (88) 
27

>  <Num_H_Atoms_ProtBoundConf>  (88) 
12

>  <Pocket>  (88) 
A

>  <Name>  (88) 
ADENOSINE-5'-DIPHOSPHATE

>  <Num_Not_Resolved_Atoms>  (88) 
0

>  <ATP_Site>  (88) 
True

>  <Peripheral>  (88) 
False

>  <Standardized_SMILES>  (88) 
[H]O[C@@]1([H])[C@@]([H])(O[H])[C@]([H])(N2C([H])=NC3=C2N=C([H])N=C3N([H])[H])O[C@]1([H])C([H])([H])O[P@](=O)([O-])OP(=O)([O-])[O-]

>  <2D_Mol_H>  (88) 
<rdkit.Chem.rdchem.Mol object at 0x77059d9e6e30>

>  <MW>  (88) 
424.179

>  <HBA>  (88) 
15

>  <HBD>  (88) 
3

>  <LogP>  (88) 
-3.642

>  <NRB>  (88) 
9

>  <TPSA>  (88) 
241.09

>  <Num_Heavy_Atoms>  (88) 
27

>  <Ro5>  (88) 
[True, False, True, True, True, False]

>  <Ro5_Fulfilled>  (88) 
False

>  <Ro3>  (88) 
[False, False, True, True]

>  <Ro3_Fulfilled>  (88) 
False

>  <Fsp3>  (88) 
0.5

>  <Fsp3_0.42>  (88) 
True

>  <Fsp3_0.45>  (88) 
True

>  <Stereogenic_Carbons>  (88) 
4

>  <C_Atoms>  (88) 
10

>  <FCStereo>  (88) 
0.4

>  <SPS>  (88) 
769

>  <nSPS>  (88) 
28.481481

>  <PBF>  (88) 
0.706891

>  <PBF_0.6>  (88) 
True

>  <nPBF>  (88) 
0.026181

>  <nPBF_0.016>  (88) 
True

>  <PMI1>  (88) 
1504.330543

>  <PMI2>  (88) 
6327.026847

>  <PMI3>  (88) 
7333.05504

>  <NPR1>  (88) 
0.205144

>  <NPR2>  (88) 
0.862809

>  <Sum_NPR>  (88) 
1.067953

>  <Sum_NPR_1.07>  (88) 
False

>  <Sum_NPR_1.2>  (88) 
False

>  <MaxAbsEStateIndex>  (88) 
11.278955

>  <MaxEStateIndex>  (88) 
11.278955

>  <MinAbsEStateIndex>  (88) 
0.065524

>  <MinEStateIndex>  (88) 
-5.851432

>  <qed>  (88) 
0.378904

>  <MolWt>  (88) 
424.179

>  <HeavyAtomMolWt>  (88) 
412.083

>  <ExactMolWt>  (88) 
424.007586

>  <NumValenceElectrons>  (88) 
150

>  <NumRadicalElectrons>  (88) 
0

>  <MaxPartialCharge>  (88) 
0.271368

>  <MinPartialCharge>  (88) 
-0.789509

>  <MaxAbsPartialCharge>  (88) 
0.789509

>  <MinAbsPartialCharge>  (88) 
0.271368

>  <FpDensityMorgan1>  (88) 
1.222222

>  <FpDensityMorgan2>  (88) 
1.925926

>  <FpDensityMorgan3>  (88) 
2.592593

>  <BCUT2D_MWHI>  (88) 
31.27025

>  <BCUT2D_MWLOW>  (88) 
10.128388

>  <BCUT2D_CHGHI>  (88) 
2.444842

>  <BCUT2D_CHGLO>  (88) 
-2.350424

>  <BCUT2D_LOGPHI>  (88) 
2.503664

>  <BCUT2D_LOGPLOW>  (88) 
-2.337741

>  <BCUT2D_MRHI>  (88) 
7.580921

>  <BCUT2D_MRLOW>  (88) 
-0.339423

>  <AvgIpc>  (88) 
3.072773

>  <BalabanJ>  (88) 
1.748652

>  <BertzCT>  (88) 
932.232873

>  <Chi0>  (88) 
19.982763

>  <Chi0n>  (88) 
13.092254

>  <Chi0v>  (88) 
14.881108

>  <Chi1>  (88) 
12.483782

>  <Chi1n>  (88) 
7.119416

>  <Chi1v>  (88) 
10.040603

>  <Chi2n>  (88) 
5.401088

>  <Chi2v>  (88) 
8.101339

>  <Chi3n>  (88) 
3.595354

>  <Chi3v>  (88) 
5.660653

>  <Chi4n>  (88) 
2.463726

>  <Chi4v>  (88) 
3.961582

>  <HallKierAlpha>  (88) 
-1.51

>  <Ipc>  (88) 
807942.564302

>  <Kappa1>  (88) 
20.230095

>  <Kappa2>  (88) 
7.144568

>  <Kappa3>  (88) 
4.329348

>  <LabuteASA>  (88) 
149.760939

>  <PEOE_VSA1>  (88) 
44.452615

>  <PEOE_VSA10>  (88) 
30.15592

>  <PEOE_VSA11>  (88) 
17.692941

>  <PEOE_VSA12>  (88) 
0.0

>  <PEOE_VSA13>  (88) 
7.822697

>  <PEOE_VSA14>  (88) 
0.0

>  <PEOE_VSA2>  (88) 
13.442779

>  <PEOE_VSA3>  (88) 
14.951936

>  <PEOE_VSA4>  (88) 
0.0

>  <PEOE_VSA5>  (88) 
0.0

>  <PEOE_VSA6>  (88) 
0.0

>  <PEOE_VSA7>  (88) 
0.0

>  <PEOE_VSA8>  (88) 
0.0

>  <PEOE_VSA9>  (88) 
20.756899

>  <SMR_VSA1>  (88) 
47.594628

>  <SMR_VSA10>  (88) 
32.627135

>  <SMR_VSA2>  (88) 
0.0

>  <SMR_VSA3>  (88) 
19.519035

>  <SMR_VSA4>  (88) 
0.0

>  <SMR_VSA5>  (88) 
24.5398

>  <SMR_VSA6>  (88) 
12.340549

>  <SMR_VSA7>  (88) 
12.65464

>  <SMR_VSA8>  (88) 
0.0

>  <SMR_VSA9>  (88) 
0.0

>  <SlogP_VSA1>  (88) 
20.413902

>  <SlogP_VSA10>  (88) 
5.817863

>  <SlogP_VSA11>  (88) 
0.0

>  <SlogP_VSA12>  (88) 
15.645394

>  <SlogP_VSA2>  (88) 
54.650871

>  <SlogP_VSA3>  (88) 
22.701338

>  <SlogP_VSA4>  (88) 
0.0

>  <SlogP_VSA5>  (88) 
6.227901

>  <SlogP_VSA6>  (88) 
12.65464

>  <SlogP_VSA7>  (88) 
0.0

>  <SlogP_VSA8>  (88) 
11.163878

>  <SlogP_VSA9>  (88) 
0.0

>  <EState_VSA1>  (88) 
46.792077

>  <EState_VSA10>  (88) 
34.023386

>  <EState_VSA11>  (88) 
0.0

>  <EState_VSA2>  (88) 
16.981741

>  <EState_VSA3>  (88) 
0.0

>  <EState_VSA4>  (88) 
6.32732

>  <EState_VSA5>  (88) 
10.89442

>  <EState_VSA6>  (88) 
0.0

>  <EState_VSA7>  (88) 
0.0

>  <EState_VSA8>  (88) 
23.786314

>  <EState_VSA9>  (88) 
10.47053

>  <VSA_EState1>  (88) 
35.749107

>  <VSA_EState10>  (88) 
0.0

>  <VSA_EState2>  (88) 
43.665953

>  <VSA_EState3>  (88) 
20.193372

>  <VSA_EState4>  (88) 
6.037581

>  <VSA_EState5>  (88) 
0.065524

>  <VSA_EState6>  (88) 
0.0

>  <VSA_EState7>  (88) 
-3.478964

>  <VSA_EState8>  (88) 
-0.931293

>  <VSA_EState9>  (88) 
-11.356836

>  <FractionCSP3>  (88) 
0.5

>  <HeavyAtomCount>  (88) 
27

>  <NHOHCount>  (88) 
4

>  <NOCount>  (88) 
15

>  <NumAliphaticCarbocycles>  (88) 
0

>  <NumAliphaticHeterocycles>  (88) 
1

>  <NumAliphaticRings>  (88) 
1

>  <NumAromaticCarbocycles>  (88) 
0

>  <NumAromaticHeterocycles>  (88) 
2

>  <NumAromaticRings>  (88) 
2

>  <NumHAcceptors>  (88) 
15

>  <NumHDonors>  (88) 
3

>  <NumHeteroatoms>  (88) 
17

>  <NumRotatableBonds>  (88) 
6

>  <NumSaturatedCarbocycles>  (88) 
0

>  <NumSaturatedHeterocycles>  (88) 
1

>  <NumSaturatedRings>  (88) 
1

>  <RingCount>  (88) 
3

>  <MolLogP>  (88) 
-3.642

>  <MolMR>  (88) 
77.909

>  <fr_Al_COO>  (88) 
0

>  <fr_Al_OH>  (88) 
2

>  <fr_Al_OH_noTert>  (88) 
2

>  <fr_ArN>  (88) 
1

>  <fr_Ar_COO>  (88) 
0

>  <fr_Ar_N>  (88) 
4

>  <fr_Ar_NH>  (88) 
0

>  <fr_Ar_OH>  (88) 
0

>  <fr_COO>  (88) 
0

>  <fr_COO2>  (88) 
0

>  <fr_C_O>  (88) 
0

>  <fr_C_O_noCOO>  (88) 
0

>  <fr_C_S>  (88) 
0

>  <fr_HOCCN>  (88) 
0

>  <fr_Imine>  (88) 
0

>  <fr_NH0>  (88) 
4

>  <fr_NH1>  (88) 
0

>  <fr_NH2>  (88) 
1

>  <fr_N_O>  (88) 
0

>  <fr_Ndealkylation1>  (88) 
0

>  <fr_Ndealkylation2>  (88) 
0

>  <fr_Nhpyrrole>  (88) 
0

>  <fr_SH>  (88) 
0

>  <fr_aldehyde>  (88) 
0

>  <fr_alkyl_carbamate>  (88) 
0

>  <fr_alkyl_halide>  (88) 
0

>  <fr_allylic_oxid>  (88) 
0

>  <fr_amide>  (88) 
0

>  <fr_amidine>  (88) 
0

>  <fr_aniline>  (88) 
1

>  <fr_aryl_methyl>  (88) 
0

>  <fr_azide>  (88) 
0

>  <fr_azo>  (88) 
0

>  <fr_barbitur>  (88) 
0

>  <fr_benzene>  (88) 
0

>  <fr_benzodiazepine>  (88) 
0

>  <fr_bicyclic>  (88) 
1

>  <fr_diazo>  (88) 
0

>  <fr_dihydropyridine>  (88) 
0

>  <fr_epoxide>  (88) 
0

>  <fr_ester>  (88) 
0

>  <fr_ether>  (88) 
1

>  <fr_furan>  (88) 
0

>  <fr_guanido>  (88) 
0

>  <fr_halogen>  (88) 
0

>  <fr_hdrzine>  (88) 
0

>  <fr_hdrzone>  (88) 
0

>  <fr_imidazole>  (88) 
1

>  <fr_imide>  (88) 
0

>  <fr_isocyan>  (88) 
0

>  <fr_isothiocyan>  (88) 
0

>  <fr_ketone>  (88) 
0

>  <fr_ketone_Topliss>  (88) 
0

>  <fr_lactam>  (88) 
0

>  <fr_lactone>  (88) 
0

>  <fr_methoxy>  (88) 
0

>  <fr_morpholine>  (88) 
0

>  <fr_nitrile>  (88) 
0

>  <fr_nitro>  (88) 
0

>  <fr_nitro_arom>  (88) 
0

>  <fr_nitro_arom_nonortho>  (88) 
0

>  <fr_nitroso>  (88) 
0

>  <fr_oxazole>  (88) 
0

>  <fr_oxime>  (88) 
0

>  <fr_para_hydroxylation>  (88) 
0

>  <fr_phenol>  (88) 
0

>  <fr_phenol_noOrthoHbond>  (88) 
0

>  <fr_phos_acid>  (88) 
2

>  <fr_phos_ester>  (88) 
1

>  <fr_piperdine>  (88) 
0

>  <fr_piperzine>  (88) 
0

>  <fr_priamide>  (88) 
0

>  <fr_prisulfonamd>  (88) 
0

>  <fr_pyridine>  (88) 
0

>  <fr_quatN>  (88) 
0

>  <fr_sulfide>  (88) 
0

>  <fr_sulfonamd>  (88) 
0

>  <fr_sulfone>  (88) 
0

>  <fr_term_acetylene>  (88) 
0

>  <fr_tetrazole>  (88) 
0

>  <fr_thiazole>  (88) 
0

>  <fr_thiocyan>  (88) 
0

>  <fr_thiophene>  (88) 
0

>  <fr_unbrch_alkane>  (88) 
0

>  <fr_urea>  (88) 
0

>  <NP_Likeness>  (88) 
0.931308

$$$$
ADP
     RDKit          3D

  0  0  0  0  0  0  0  0  0  0999 V3000
M  V30 BEGIN CTAB
M  V30 COUNTS 39 41 0 0 0
M  V30 BEGIN ATOM
M  V30 1 P -3.123000 11.471000 -13.730000 0
M  V30 2 P -5.757000 10.667000 -13.901000 0 CFG=1
M  V30 3 O -3.060000 12.944000 -14.030000 0
M  V30 4 O -1.985000 11.171000 -12.624000 0 CHG=-1
M  V30 5 O -2.826000 10.649000 -15.063000 0 CHG=-1
M  V30 6 O -6.899000 11.603000 -13.730000 0
M  V30 7 O -5.489000 10.371000 -15.428000 0 CHG=-1
M  V30 8 O -7.236000 4.605000 -14.559000 0
M  V30 9 O -5.861000 6.724000 -15.836000 0
M  V30 10 O -4.518000 11.125000 -13.067000 0
M  V30 11 O -6.324000 9.310000 -13.172000 0
M  V30 12 O -6.988000 6.769000 -12.405000 0
M  V30 13 N -13.563000 8.887000 -12.338000 0
M  V30 14 N -13.240000 6.552000 -12.223000 0
M  V30 15 N -11.181000 5.549000 -12.490000 0
M  V30 16 N -10.503000 8.938000 -12.861000 0
M  V30 17 N -9.302000 7.115000 -12.934000 0
M  V30 18 C -5.284000 8.340000 -13.175000 0
M  V30 19 C -12.477000 5.477000 -12.271000 0
M  V30 20 C -9.294000 8.470000 -13.018000 0
M  V30 21 C -7.806000 5.923000 -14.497000 0 CFG=2
M  V30 22 C -6.740000 7.027000 -14.755000 0 CFG=1
M  V30 23 C -8.159000 6.203000 -13.012000 0 CFG=1
M  V30 24 C -12.734000 7.773000 -12.411000 0
M  V30 25 C -5.966000 6.984000 -13.410000 0 CFG=2
M  V30 26 C -10.587000 6.727000 -12.638000 0
M  V30 27 C -11.351000 7.904000 -12.599000 0
M  V30 28 H -6.841700 4.454600 -15.465600 0
M  V30 29 H -6.391500 6.616500 -16.676900 0
M  V30 30 H -13.184600 9.801900 -12.478700 0
M  V30 31 H -14.537500 8.773200 -12.144800 0
M  V30 32 H -4.806500 8.340600 -12.296400 0
M  V30 33 H -4.632300 8.532300 -13.908700 0
M  V30 34 H -12.896300 4.579100 -12.136800 0
M  V30 35 H -8.480100 9.028800 -13.177100 0
M  V30 36 H -8.600000 6.018500 -15.097300 0
M  V30 37 H -7.174500 7.917800 -14.887900 0
M  V30 38 H -8.387600 5.342800 -12.556200 0
M  V30 39 H -5.296900 6.240800 -13.405300 0
M  V30 END ATOM
M  V30 BEGIN BOND
M  V30 1 2 1 3
M  V30 2 1 1 4
M  V30 3 1 1 5
M  V30 4 1 1 10
M  V30 5 2 2 6
M  V30 6 1 2 7 CFG=3
M  V30 7 1 2 10
M  V30 8 1 2 11
M  V30 9 1 8 21
M  V30 10 1 9 22
M  V30 11 1 11 18
M  V30 12 1 12 23
M  V30 13 1 12 25
M  V30 14 1 13 24
M  V30 15 2 14 19
M  V30 16 1 14 24
M  V30 17 1 15 19
M  V30 18 2 15 26
M  V30 19 2 16 20
M  V30 20 1 16 27
M  V30 21 1 17 20
M  V30 22 1 17 23
M  V30 23 1 17 26
M  V30 24 1 18 25
M  V30 25 1 21 22
M  V30 26 1 21 23
M  V30 27 1 22 25
M  V30 28 2 24 27
M  V30 29 1 26 27
M  V30 30 1 25 39 CFG=3
M  V30 31 1 23 38 CFG=1
M  V30 32 1 22 37 CFG=3
M  V30 33 1 8 28
M  V30 34 1 9 29
M  V30 35 1 13 30
M  V30 36 1 13 31
M  V30 37 1 18 32
M  V30 38 1 18 33
M  V30 39 1 19 34
M  V30 40 1 20 35
M  V30 41 1 21 36 CFG=3
M  V30 END BOND
M  V30 END CTAB
M  END
>  <Ligand_Instance>  (89) 
4IAD_ADP_A_403

>  <Dataset>  (89) 
PDB

>  <PDB_ID>  (89) 
4IAD

>  <Chain>  (89) 
A

>  <Resi>  (89) 
403

>  <Num_Resolved_Atoms>  (89) 
27

>  <Num_H_Atoms_ProtBoundConf>  (89) 
12

>  <Pocket>  (89) 
A

>  <Name>  (89) 
ADENOSINE-5'-DIPHOSPHATE

>  <Num_Not_Resolved_Atoms>  (89) 
0

>  <ATP_Site>  (89) 
True

>  <Peripheral>  (89) 
False

>  <Standardized_SMILES>  (89) 
[H]O[C@@]1([H])[C@@]([H])(O[H])[C@]([H])(N2C([H])=NC3=C2N=C([H])N=C3N([H])[H])O[C@]1([H])C([H])([H])O[P@](=O)([O-])OP(=O)([O-])[O-]

>  <2D_Mol_H>  (89) 
<rdkit.Chem.rdchem.Mol object at 0x77059d9e6f10>

>  <MW>  (89) 
424.179

>  <HBA>  (89) 
15

>  <HBD>  (89) 
3

>  <LogP>  (89) 
-3.642

>  <NRB>  (89) 
9

>  <TPSA>  (89) 
241.09

>  <Num_Heavy_Atoms>  (89) 
27

>  <Ro5>  (89) 
[True, False, True, True, True, False]

>  <Ro5_Fulfilled>  (89) 
False

>  <Ro3>  (89) 
[False, False, True, True]

>  <Ro3_Fulfilled>  (89) 
False

>  <Fsp3>  (89) 
0.5

>  <Fsp3_0.42>  (89) 
True

>  <Fsp3_0.45>  (89) 
True

>  <Stereogenic_Carbons>  (89) 
4

>  <C_Atoms>  (89) 
10

>  <FCStereo>  (89) 
0.4

>  <SPS>  (89) 
769

>  <nSPS>  (89) 
28.481481

>  <PBF>  (89) 
0.738063

>  <PBF_0.6>  (89) 
True

>  <nPBF>  (89) 
0.027336

>  <nPBF_0.016>  (89) 
True

>  <PMI1>  (89) 
1433.64876

>  <PMI2>  (89) 
6104.776332

>  <PMI3>  (89) 
7015.983612

>  <NPR1>  (89) 
0.20434

>  <NPR2>  (89) 
0.870124

>  <Sum_NPR>  (89) 
1.074464

>  <Sum_NPR_1.07>  (89) 
True

>  <Sum_NPR_1.2>  (89) 
False

>  <MaxAbsEStateIndex>  (89) 
11.278955

>  <MaxEStateIndex>  (89) 
11.278955

>  <MinAbsEStateIndex>  (89) 
0.065524

>  <MinEStateIndex>  (89) 
-5.851432

>  <qed>  (89) 
0.378904

>  <MolWt>  (89) 
424.179

>  <HeavyAtomMolWt>  (89) 
412.083

>  <ExactMolWt>  (89) 
424.007586

>  <NumValenceElectrons>  (89) 
150

>  <NumRadicalElectrons>  (89) 
0

>  <MaxPartialCharge>  (89) 
0.271368

>  <MinPartialCharge>  (89) 
-0.789509

>  <MaxAbsPartialCharge>  (89) 
0.789509

>  <MinAbsPartialCharge>  (89) 
0.271368

>  <FpDensityMorgan1>  (89) 
1.222222

>  <FpDensityMorgan2>  (89) 
1.925926

>  <FpDensityMorgan3>  (89) 
2.592593

>  <BCUT2D_MWHI>  (89) 
31.27025

>  <BCUT2D_MWLOW>  (89) 
10.128388

>  <BCUT2D_CHGHI>  (89) 
2.444842

>  <BCUT2D_CHGLO>  (89) 
-2.350424

>  <BCUT2D_LOGPHI>  (89) 
2.503664

>  <BCUT2D_LOGPLOW>  (89) 
-2.337741

>  <BCUT2D_MRHI>  (89) 
7.580921

>  <BCUT2D_MRLOW>  (89) 
-0.339423

>  <AvgIpc>  (89) 
3.072773

>  <BalabanJ>  (89) 
1.748652

>  <BertzCT>  (89) 
932.232873

>  <Chi0>  (89) 
19.982763

>  <Chi0n>  (89) 
13.092254

>  <Chi0v>  (89) 
14.881108

>  <Chi1>  (89) 
12.483782

>  <Chi1n>  (89) 
7.119416

>  <Chi1v>  (89) 
10.040603

>  <Chi2n>  (89) 
5.401088

>  <Chi2v>  (89) 
8.101339

>  <Chi3n>  (89) 
3.595354

>  <Chi3v>  (89) 
5.660653

>  <Chi4n>  (89) 
2.463726

>  <Chi4v>  (89) 
3.961582

>  <HallKierAlpha>  (89) 
-1.51

>  <Ipc>  (89) 
807942.564302

>  <Kappa1>  (89) 
20.230095

>  <Kappa2>  (89) 
7.144568

>  <Kappa3>  (89) 
4.329348

>  <LabuteASA>  (89) 
149.760939

>  <PEOE_VSA1>  (89) 
44.452615

>  <PEOE_VSA10>  (89) 
30.15592

>  <PEOE_VSA11>  (89) 
17.692941

>  <PEOE_VSA12>  (89) 
0.0

>  <PEOE_VSA13>  (89) 
7.822697

>  <PEOE_VSA14>  (89) 
0.0

>  <PEOE_VSA2>  (89) 
13.442779

>  <PEOE_VSA3>  (89) 
14.951936

>  <PEOE_VSA4>  (89) 
0.0

>  <PEOE_VSA5>  (89) 
0.0

>  <PEOE_VSA6>  (89) 
0.0

>  <PEOE_VSA7>  (89) 
0.0

>  <PEOE_VSA8>  (89) 
0.0

>  <PEOE_VSA9>  (89) 
20.756899

>  <SMR_VSA1>  (89) 
47.594628

>  <SMR_VSA10>  (89) 
32.627135

>  <SMR_VSA2>  (89) 
0.0

>  <SMR_VSA3>  (89) 
19.519035

>  <SMR_VSA4>  (89) 
0.0

>  <SMR_VSA5>  (89) 
24.5398

>  <SMR_VSA6>  (89) 
12.340549

>  <SMR_VSA7>  (89) 
12.65464

>  <SMR_VSA8>  (89) 
0.0

>  <SMR_VSA9>  (89) 
0.0

>  <SlogP_VSA1>  (89) 
20.413902

>  <SlogP_VSA10>  (89) 
5.817863

>  <SlogP_VSA11>  (89) 
0.0

>  <SlogP_VSA12>  (89) 
15.645394

>  <SlogP_VSA2>  (89) 
54.650871

>  <SlogP_VSA3>  (89) 
22.701338

>  <SlogP_VSA4>  (89) 
0.0

>  <SlogP_VSA5>  (89) 
6.227901

>  <SlogP_VSA6>  (89) 
12.65464

>  <SlogP_VSA7>  (89) 
0.0

>  <SlogP_VSA8>  (89) 
11.163878

>  <SlogP_VSA9>  (89) 
0.0

>  <EState_VSA1>  (89) 
46.792077

>  <EState_VSA10>  (89) 
34.023386

>  <EState_VSA11>  (89) 
0.0

>  <EState_VSA2>  (89) 
16.981741

>  <EState_VSA3>  (89) 
0.0

>  <EState_VSA4>  (89) 
6.32732

>  <EState_VSA5>  (89) 
10.89442

>  <EState_VSA6>  (89) 
0.0

>  <EState_VSA7>  (89) 
0.0

>  <EState_VSA8>  (89) 
23.786314

>  <EState_VSA9>  (89) 
10.47053

>  <VSA_EState1>  (89) 
35.749107

>  <VSA_EState10>  (89) 
0.0

>  <VSA_EState2>  (89) 
43.665953

>  <VSA_EState3>  (89) 
20.193372

>  <VSA_EState4>  (89) 
6.037581

>  <VSA_EState5>  (89) 
0.065524

>  <VSA_EState6>  (89) 
0.0

>  <VSA_EState7>  (89) 
-3.478964

>  <VSA_EState8>  (89) 
-0.931293

>  <VSA_EState9>  (89) 
-11.356836

>  <FractionCSP3>  (89) 
0.5

>  <HeavyAtomCount>  (89) 
27

>  <NHOHCount>  (89) 
4

>  <NOCount>  (89) 
15

>  <NumAliphaticCarbocycles>  (89) 
0

>  <NumAliphaticHeterocycles>  (89) 
1

>  <NumAliphaticRings>  (89) 
1

>  <NumAromaticCarbocycles>  (89) 
0

>  <NumAromaticHeterocycles>  (89) 
2

>  <NumAromaticRings>  (89) 
2

>  <NumHAcceptors>  (89) 
15

>  <NumHDonors>  (89) 
3

>  <NumHeteroatoms>  (89) 
17

>  <NumRotatableBonds>  (89) 
6

>  <NumSaturatedCarbocycles>  (89) 
0

>  <NumSaturatedHeterocycles>  (89) 
1

>  <NumSaturatedRings>  (89) 
1

>  <RingCount>  (89) 
3

>  <MolLogP>  (89) 
-3.642

>  <MolMR>  (89) 
77.909

>  <fr_Al_COO>  (89) 
0

>  <fr_Al_OH>  (89) 
2

>  <fr_Al_OH_noTert>  (89) 
2

>  <fr_ArN>  (89) 
1

>  <fr_Ar_COO>  (89) 
0

>  <fr_Ar_N>  (89) 
4

>  <fr_Ar_NH>  (89) 
0

>  <fr_Ar_OH>  (89) 
0

>  <fr_COO>  (89) 
0

>  <fr_COO2>  (89) 
0

>  <fr_C_O>  (89) 
0

>  <fr_C_O_noCOO>  (89) 
0

>  <fr_C_S>  (89) 
0

>  <fr_HOCCN>  (89) 
0

>  <fr_Imine>  (89) 
0

>  <fr_NH0>  (89) 
4

>  <fr_NH1>  (89) 
0

>  <fr_NH2>  (89) 
1

>  <fr_N_O>  (89) 
0

>  <fr_Ndealkylation1>  (89) 
0

>  <fr_Ndealkylation2>  (89) 
0

>  <fr_Nhpyrrole>  (89) 
0

>  <fr_SH>  (89) 
0

>  <fr_aldehyde>  (89) 
0

>  <fr_alkyl_carbamate>  (89) 
0

>  <fr_alkyl_halide>  (89) 
0

>  <fr_allylic_oxid>  (89) 
0

>  <fr_amide>  (89) 
0

>  <fr_amidine>  (89) 
0

>  <fr_aniline>  (89) 
1

>  <fr_aryl_methyl>  (89) 
0

>  <fr_azide>  (89) 
0

>  <fr_azo>  (89) 
0

>  <fr_barbitur>  (89) 
0

>  <fr_benzene>  (89) 
0

>  <fr_benzodiazepine>  (89) 
0

>  <fr_bicyclic>  (89) 
1

>  <fr_diazo>  (89) 
0

>  <fr_dihydropyridine>  (89) 
0

>  <fr_epoxide>  (89) 
0

>  <fr_ester>  (89) 
0

>  <fr_ether>  (89) 
1

>  <fr_furan>  (89) 
0

>  <fr_guanido>  (89) 
0

>  <fr_halogen>  (89) 
0

>  <fr_hdrzine>  (89) 
0

>  <fr_hdrzone>  (89) 
0

>  <fr_imidazole>  (89) 
1

>  <fr_imide>  (89) 
0

>  <fr_isocyan>  (89) 
0

>  <fr_isothiocyan>  (89) 
0

>  <fr_ketone>  (89) 
0

>  <fr_ketone_Topliss>  (89) 
0

>  <fr_lactam>  (89) 
0

>  <fr_lactone>  (89) 
0

>  <fr_methoxy>  (89) 
0

>  <fr_morpholine>  (89) 
0

>  <fr_nitrile>  (89) 
0

>  <fr_nitro>  (89) 
0

>  <fr_nitro_arom>  (89) 
0

>  <fr_nitro_arom_nonortho>  (89) 
0

>  <fr_nitroso>  (89) 
0

>  <fr_oxazole>  (89) 
0

>  <fr_oxime>  (89) 
0

>  <fr_para_hydroxylation>  (89) 
0

>  <fr_phenol>  (89) 
0

>  <fr_phenol_noOrthoHbond>  (89) 
0

>  <fr_phos_acid>  (89) 
2

>  <fr_phos_ester>  (89) 
1

>  <fr_piperdine>  (89) 
0

>  <fr_piperzine>  (89) 
0

>  <fr_priamide>  (89) 
0

>  <fr_prisulfonamd>  (89) 
0

>  <fr_pyridine>  (89) 
0

>  <fr_quatN>  (89) 
0

>  <fr_sulfide>  (89) 
0

>  <fr_sulfonamd>  (89) 
0

>  <fr_sulfone>  (89) 
0

>  <fr_term_acetylene>  (89) 
0

>  <fr_tetrazole>  (89) 
0

>  <fr_thiazole>  (89) 
0

>  <fr_thiocyan>  (89) 
0

>  <fr_thiophene>  (89) 
0

>  <fr_unbrch_alkane>  (89) 
0

>  <fr_urea>  (89) 
0

>  <NP_Likeness>  (89) 
0.931308

$$$$
ADP
     RDKit          3D

  0  0  0  0  0  0  0  0  0  0999 V3000
M  V30 BEGIN CTAB
M  V30 COUNTS 39 41 0 0 0
M  V30 BEGIN ATOM
M  V30 1 P -2.524000 11.356000 -13.647000 0
M  V30 2 P -5.329000 10.621000 -13.922000 0 CFG=1
M  V30 3 O -2.596000 12.822000 -13.943000 0
M  V30 4 O -1.490000 10.894000 -12.657000 0 CHG=-1
M  V30 5 O -2.377000 10.655000 -14.940000 0 CHG=-1
M  V30 6 O -6.236000 11.751000 -13.729000 0
M  V30 7 O -5.080000 10.282000 -15.347000 0 CHG=-1
M  V30 8 O -7.101000 4.340000 -14.473000 0
M  V30 9 O -5.700000 6.421000 -15.948000 0
M  V30 10 O -3.954000 10.939000 -13.159000 0
M  V30 11 O -5.789000 9.316000 -13.149000 0
M  V30 12 O -6.611000 6.781000 -12.446000 0
M  V30 13 N -13.090000 9.153000 -12.034000 0
M  V30 14 N -12.973000 6.809000 -12.008000 0
M  V30 15 N -10.924000 5.513000 -12.339000 0
M  V30 16 N -9.984000 9.005000 -12.568000 0
M  V30 17 N -8.955000 6.981000 -12.703000 0
M  V30 18 C -4.887000 8.190000 -13.313000 0
M  V30 19 C -12.250000 5.636000 -12.111000 0
M  V30 20 C -8.855000 8.358000 -12.748000 0
M  V30 21 C -7.481000 5.687000 -14.320000 0 CFG=2
M  V30 22 C -6.458000 6.735000 -14.788000 0 CFG=1
M  V30 23 C -7.763000 6.069000 -12.893000 0 CFG=1
M  V30 24 C -12.343000 8.025000 -12.142000 0
M  V30 25 C -5.621000 6.889000 -13.513000 0 CFG=2
M  V30 26 C -10.299000 6.743000 -12.474000 0
M  V30 27 C -10.917000 8.012000 -12.387000 0
M  V30 28 H -6.490100 4.253300 -15.260000 0
M  V30 29 H -6.317500 6.282800 -16.722400 0
M  V30 30 H -12.657600 10.049900 -12.127200 0
M  V30 31 H -14.072800 9.087200 -11.861200 0
M  V30 32 H -4.316300 8.114200 -12.495300 0
M  V30 33 H -4.306800 8.357000 -14.110100 0
M  V30 34 H -12.764500 4.785000 -12.005200 0
M  V30 35 H -7.986600 8.828000 -12.906100 0
M  V30 36 H -8.321200 5.827200 -14.843900 0
M  V30 37 H -6.941700 7.594700 -14.952000 0
M  V30 38 H -7.881500 5.243000 -12.341900 0
M  V30 39 H -4.974900 6.128800 -13.445400 0
M  V30 END ATOM
M  V30 BEGIN BOND
M  V30 1 2 1 3
M  V30 2 1 1 4
M  V30 3 1 1 5
M  V30 4 1 1 10
M  V30 5 2 2 6
M  V30 6 1 2 7 CFG=3
M  V30 7 1 2 10
M  V30 8 1 2 11
M  V30 9 1 8 21
M  V30 10 1 9 22
M  V30 11 1 11 18
M  V30 12 1 12 23
M  V30 13 1 12 25
M  V30 14 1 13 24
M  V30 15 2 14 19
M  V30 16 1 14 24
M  V30 17 1 15 19
M  V30 18 2 15 26
M  V30 19 2 16 20
M  V30 20 1 16 27
M  V30 21 1 17 20
M  V30 22 1 17 23
M  V30 23 1 17 26
M  V30 24 1 18 25
M  V30 25 1 21 22
M  V30 26 1 21 23
M  V30 27 1 22 25
M  V30 28 2 24 27
M  V30 29 1 26 27
M  V30 30 1 25 39 CFG=1
M  V30 31 1 23 38 CFG=1
M  V30 32 1 22 37 CFG=3
M  V30 33 1 8 28
M  V30 34 1 9 29
M  V30 35 1 13 30
M  V30 36 1 13 31
M  V30 37 1 18 32
M  V30 38 1 18 33
M  V30 39 1 19 34
M  V30 40 1 20 35
M  V30 41 1 21 36 CFG=3
M  V30 END BOND
M  V30 END CTAB
M  END
>  <Ligand_Instance>  (90) 
4IAF_ADP_A_403

>  <Dataset>  (90) 
PDB

>  <PDB_ID>  (90) 
4IAF

>  <Chain>  (90) 
A

>  <Resi>  (90) 
403

>  <Num_Resolved_Atoms>  (90) 
27

>  <Num_H_Atoms_ProtBoundConf>  (90) 
12

>  <Pocket>  (90) 
A

>  <Name>  (90) 
ADENOSINE-5'-DIPHOSPHATE

>  <Num_Not_Resolved_Atoms>  (90) 
0

>  <ATP_Site>  (90) 
True

>  <Peripheral>  (90) 
False

>  <Standardized_SMILES>  (90) 
[H]O[C@@]1([H])[C@@]([H])(O[H])[C@]([H])(N2C([H])=NC3=C2N=C([H])N=C3N([H])[H])O[C@]1([H])C([H])([H])O[P@](=O)([O-])OP(=O)([O-])[O-]

>  <2D_Mol_H>  (90) 
<rdkit.Chem.rdchem.Mol object at 0x77059d9e6ff0>

>  <MW>  (90) 
424.179

>  <HBA>  (90) 
15

>  <HBD>  (90) 
3

>  <LogP>  (90) 
-3.642

>  <NRB>  (90) 
9

>  <TPSA>  (90) 
241.09

>  <Num_Heavy_Atoms>  (90) 
27

>  <Ro5>  (90) 
[True, False, True, True, True, False]

>  <Ro5_Fulfilled>  (90) 
False

>  <Ro3>  (90) 
[False, False, True, True]

>  <Ro3_Fulfilled>  (90) 
False

>  <Fsp3>  (90) 
0.5

>  <Fsp3_0.42>  (90) 
True

>  <Fsp3_0.45>  (90) 
True

>  <Stereogenic_Carbons>  (90) 
4

>  <C_Atoms>  (90) 
10

>  <FCStereo>  (90) 
0.4

>  <SPS>  (90) 
769

>  <nSPS>  (90) 
28.481481

>  <PBF>  (90) 
0.713919

>  <PBF_0.6>  (90) 
True

>  <nPBF>  (90) 
0.026441

>  <nPBF_0.016>  (90) 
True

>  <PMI1>  (90) 
1532.493453

>  <PMI2>  (90) 
6206.448392

>  <PMI3>  (90) 
7225.052009

>  <NPR1>  (90) 
0.212108

>  <NPR2>  (90) 
0.859018

>  <Sum_NPR>  (90) 
1.071126

>  <Sum_NPR_1.07>  (90) 
True

>  <Sum_NPR_1.2>  (90) 
False

>  <MaxAbsEStateIndex>  (90) 
11.278955

>  <MaxEStateIndex>  (90) 
11.278955

>  <MinAbsEStateIndex>  (90) 
0.065524

>  <MinEStateIndex>  (90) 
-5.851432

>  <qed>  (90) 
0.378904

>  <MolWt>  (90) 
424.179

>  <HeavyAtomMolWt>  (90) 
412.083

>  <ExactMolWt>  (90) 
424.007586

>  <NumValenceElectrons>  (90) 
150

>  <NumRadicalElectrons>  (90) 
0

>  <MaxPartialCharge>  (90) 
0.271368

>  <MinPartialCharge>  (90) 
-0.789509

>  <MaxAbsPartialCharge>  (90) 
0.789509

>  <MinAbsPartialCharge>  (90) 
0.271368

>  <FpDensityMorgan1>  (90) 
1.222222

>  <FpDensityMorgan2>  (90) 
1.925926

>  <FpDensityMorgan3>  (90) 
2.592593

>  <BCUT2D_MWHI>  (90) 
31.27025

>  <BCUT2D_MWLOW>  (90) 
10.128388

>  <BCUT2D_CHGHI>  (90) 
2.444842

>  <BCUT2D_CHGLO>  (90) 
-2.350424

>  <BCUT2D_LOGPHI>  (90) 
2.503664

>  <BCUT2D_LOGPLOW>  (90) 
-2.337741

>  <BCUT2D_MRHI>  (90) 
7.580921

>  <BCUT2D_MRLOW>  (90) 
-0.339423

>  <AvgIpc>  (90) 
3.072773

>  <BalabanJ>  (90) 
1.748652

>  <BertzCT>  (90) 
932.232873

>  <Chi0>  (90) 
19.982763

>  <Chi0n>  (90) 
13.092254

>  <Chi0v>  (90) 
14.881108

>  <Chi1>  (90) 
12.483782

>  <Chi1n>  (90) 
7.119416

>  <Chi1v>  (90) 
10.040603

>  <Chi2n>  (90) 
5.401088

>  <Chi2v>  (90) 
8.101339

>  <Chi3n>  (90) 
3.595354

>  <Chi3v>  (90) 
5.660653

>  <Chi4n>  (90) 
2.463726

>  <Chi4v>  (90) 
3.961582

>  <HallKierAlpha>  (90) 
-1.51

>  <Ipc>  (90) 
807942.564302

>  <Kappa1>  (90) 
20.230095

>  <Kappa2>  (90) 
7.144568

>  <Kappa3>  (90) 
4.329348

>  <LabuteASA>  (90) 
149.760939

>  <PEOE_VSA1>  (90) 
44.452615

>  <PEOE_VSA10>  (90) 
30.15592

>  <PEOE_VSA11>  (90) 
17.692941

>  <PEOE_VSA12>  (90) 
0.0

>  <PEOE_VSA13>  (90) 
7.822697

>  <PEOE_VSA14>  (90) 
0.0

>  <PEOE_VSA2>  (90) 
13.442779

>  <PEOE_VSA3>  (90) 
14.951936

>  <PEOE_VSA4>  (90) 
0.0

>  <PEOE_VSA5>  (90) 
0.0

>  <PEOE_VSA6>  (90) 
0.0

>  <PEOE_VSA7>  (90) 
0.0

>  <PEOE_VSA8>  (90) 
0.0

>  <PEOE_VSA9>  (90) 
20.756899

>  <SMR_VSA1>  (90) 
47.594628

>  <SMR_VSA10>  (90) 
32.627135

>  <SMR_VSA2>  (90) 
0.0

>  <SMR_VSA3>  (90) 
19.519035

>  <SMR_VSA4>  (90) 
0.0

>  <SMR_VSA5>  (90) 
24.5398

>  <SMR_VSA6>  (90) 
12.340549

>  <SMR_VSA7>  (90) 
12.65464

>  <SMR_VSA8>  (90) 
0.0

>  <SMR_VSA9>  (90) 
0.0

>  <SlogP_VSA1>  (90) 
20.413902

>  <SlogP_VSA10>  (90) 
5.817863

>  <SlogP_VSA11>  (90) 
0.0

>  <SlogP_VSA12>  (90) 
15.645394

>  <SlogP_VSA2>  (90) 
54.650871

>  <SlogP_VSA3>  (90) 
22.701338

>  <SlogP_VSA4>  (90) 
0.0

>  <SlogP_VSA5>  (90) 
6.227901

>  <SlogP_VSA6>  (90) 
12.65464

>  <SlogP_VSA7>  (90) 
0.0

>  <SlogP_VSA8>  (90) 
11.163878

>  <SlogP_VSA9>  (90) 
0.0

>  <EState_VSA1>  (90) 
46.792077

>  <EState_VSA10>  (90) 
34.023386

>  <EState_VSA11>  (90) 
0.0

>  <EState_VSA2>  (90) 
16.981741

>  <EState_VSA3>  (90) 
0.0

>  <EState_VSA4>  (90) 
6.32732

>  <EState_VSA5>  (90) 
10.89442

>  <EState_VSA6>  (90) 
0.0

>  <EState_VSA7>  (90) 
0.0

>  <EState_VSA8>  (90) 
23.786314

>  <EState_VSA9>  (90) 
10.47053

>  <VSA_EState1>  (90) 
35.749107

>  <VSA_EState10>  (90) 
0.0

>  <VSA_EState2>  (90) 
43.665953

>  <VSA_EState3>  (90) 
20.193372

>  <VSA_EState4>  (90) 
6.037581

>  <VSA_EState5>  (90) 
0.065524

>  <VSA_EState6>  (90) 
0.0

>  <VSA_EState7>  (90) 
-3.478964

>  <VSA_EState8>  (90) 
-0.931293

>  <VSA_EState9>  (90) 
-11.356836

>  <FractionCSP3>  (90) 
0.5

>  <HeavyAtomCount>  (90) 
27

>  <NHOHCount>  (90) 
4

>  <NOCount>  (90) 
15

>  <NumAliphaticCarbocycles>  (90) 
0

>  <NumAliphaticHeterocycles>  (90) 
1

>  <NumAliphaticRings>  (90) 
1

>  <NumAromaticCarbocycles>  (90) 
0

>  <NumAromaticHeterocycles>  (90) 
2

>  <NumAromaticRings>  (90) 
2

>  <NumHAcceptors>  (90) 
15

>  <NumHDonors>  (90) 
3

>  <NumHeteroatoms>  (90) 
17

>  <NumRotatableBonds>  (90) 
6

>  <NumSaturatedCarbocycles>  (90) 
0

>  <NumSaturatedHeterocycles>  (90) 
1

>  <NumSaturatedRings>  (90) 
1

>  <RingCount>  (90) 
3

>  <MolLogP>  (90) 
-3.642

>  <MolMR>  (90) 
77.909

>  <fr_Al_COO>  (90) 
0

>  <fr_Al_OH>  (90) 
2

>  <fr_Al_OH_noTert>  (90) 
2

>  <fr_ArN>  (90) 
1

>  <fr_Ar_COO>  (90) 
0

>  <fr_Ar_N>  (90) 
4

>  <fr_Ar_NH>  (90) 
0

>  <fr_Ar_OH>  (90) 
0

>  <fr_COO>  (90) 
0

>  <fr_COO2>  (90) 
0

>  <fr_C_O>  (90) 
0

>  <fr_C_O_noCOO>  (90) 
0

>  <fr_C_S>  (90) 
0

>  <fr_HOCCN>  (90) 
0

>  <fr_Imine>  (90) 
0

>  <fr_NH0>  (90) 
4

>  <fr_NH1>  (90) 
0

>  <fr_NH2>  (90) 
1

>  <fr_N_O>  (90) 
0

>  <fr_Ndealkylation1>  (90) 
0

>  <fr_Ndealkylation2>  (90) 
0

>  <fr_Nhpyrrole>  (90) 
0

>  <fr_SH>  (90) 
0

>  <fr_aldehyde>  (90) 
0

>  <fr_alkyl_carbamate>  (90) 
0

>  <fr_alkyl_halide>  (90) 
0

>  <fr_allylic_oxid>  (90) 
0

>  <fr_amide>  (90) 
0

>  <fr_amidine>  (90) 
0

>  <fr_aniline>  (90) 
1

>  <fr_aryl_methyl>  (90) 
0

>  <fr_azide>  (90) 
0

>  <fr_azo>  (90) 
0

>  <fr_barbitur>  (90) 
0

>  <fr_benzene>  (90) 
0

>  <fr_benzodiazepine>  (90) 
0

>  <fr_bicyclic>  (90) 
1

>  <fr_diazo>  (90) 
0

>  <fr_dihydropyridine>  (90) 
0

>  <fr_epoxide>  (90) 
0

>  <fr_ester>  (90) 
0

>  <fr_ether>  (90) 
1

>  <fr_furan>  (90) 
0

>  <fr_guanido>  (90) 
0

>  <fr_halogen>  (90) 
0

>  <fr_hdrzine>  (90) 
0

>  <fr_hdrzone>  (90) 
0

>  <fr_imidazole>  (90) 
1

>  <fr_imide>  (90) 
0

>  <fr_isocyan>  (90) 
0

>  <fr_isothiocyan>  (90) 
0

>  <fr_ketone>  (90) 
0

>  <fr_ketone_Topliss>  (90) 
0

>  <fr_lactam>  (90) 
0

>  <fr_lactone>  (90) 
0

>  <fr_methoxy>  (90) 
0

>  <fr_morpholine>  (90) 
0

>  <fr_nitrile>  (90) 
0

>  <fr_nitro>  (90) 
0

>  <fr_nitro_arom>  (90) 
0

>  <fr_nitro_arom_nonortho>  (90) 
0

>  <fr_nitroso>  (90) 
0

>  <fr_oxazole>  (90) 
0

>  <fr_oxime>  (90) 
0

>  <fr_para_hydroxylation>  (90) 
0

>  <fr_phenol>  (90) 
0

>  <fr_phenol_noOrthoHbond>  (90) 
0

>  <fr_phos_acid>  (90) 
2

>  <fr_phos_ester>  (90) 
1

>  <fr_piperdine>  (90) 
0

>  <fr_piperzine>  (90) 
0

>  <fr_priamide>  (90) 
0

>  <fr_prisulfonamd>  (90) 
0

>  <fr_pyridine>  (90) 
0

>  <fr_quatN>  (90) 
0

>  <fr_sulfide>  (90) 
0

>  <fr_sulfonamd>  (90) 
0

>  <fr_sulfone>  (90) 
0

>  <fr_term_acetylene>  (90) 
0

>  <fr_tetrazole>  (90) 
0

>  <fr_thiazole>  (90) 
0

>  <fr_thiocyan>  (90) 
0

>  <fr_thiophene>  (90) 
0

>  <fr_unbrch_alkane>  (90) 
0

>  <fr_urea>  (90) 
0

>  <NP_Likeness>  (90) 
0.931308

$$$$
ADP
     RDKit          3D

  0  0  0  0  0  0  0  0  0  0999 V3000
M  V30 BEGIN CTAB
M  V30 COUNTS 39 41 0 0 0
M  V30 BEGIN ATOM
M  V30 1 P -2.852000 11.430000 -13.486000 0
M  V30 2 P -5.536000 10.557000 -13.816000 0 CFG=1
M  V30 3 O -2.930000 12.914000 -13.699000 0
M  V30 4 O -1.860000 11.153000 -12.247000 0 CHG=-1
M  V30 5 O -2.410000 10.578000 -14.720000 0 CHG=-1
M  V30 6 O -6.582000 11.598000 -13.562000 0
M  V30 7 O -5.198000 10.321000 -15.318000 0 CHG=-1
M  V30 8 O -7.152000 4.405000 -14.436000 0
M  V30 9 O -5.857000 6.505000 -15.887000 0
M  V30 10 O -4.273000 10.945000 -12.945000 0
M  V30 11 O -6.083000 9.219000 -13.116000 0
M  V30 12 O -6.930000 6.597000 -12.429000 0
M  V30 13 N -13.353000 9.017000 -12.242000 0
M  V30 14 N -13.123000 6.639000 -12.185000 0
M  V30 15 N -11.133000 5.535000 -12.460000 0
M  V30 16 N -10.357000 8.918000 -12.897000 0
M  V30 17 N -9.218000 7.038000 -12.930000 0
M  V30 18 C -5.167000 8.137000 -13.199000 0
M  V30 19 C -12.432000 5.506000 -12.226000 0
M  V30 20 C -9.166000 8.395000 -13.037000 0
M  V30 21 C -7.750000 5.728000 -14.467000 0 CFG=2
M  V30 22 C -6.722000 6.831000 -14.784000 0 CFG=1
M  V30 23 C -8.125000 6.061000 -13.004000 0 CFG=1
M  V30 24 C -12.591000 7.852000 -12.278000 0
M  V30 25 C -5.931000 6.843000 -13.458000 0 CFG=2
M  V30 26 C -10.514000 6.708000 -12.602000 0
M  V30 27 C -11.222000 7.918000 -12.585000 0
M  V30 28 H -6.746300 4.201600 -15.327100 0
M  V30 29 H -6.406300 6.360600 -16.710000 0
M  V30 30 H -12.906700 9.908800 -12.315800 0
M  V30 31 H -14.346500 8.961800 -12.142300 0
M  V30 32 H -4.663100 8.060100 -12.338700 0
M  V30 33 H -4.524900 8.300600 -13.947900 0
M  V30 34 H -12.894900 4.631700 -12.079800 0
M  V30 35 H -8.330800 8.920100 -13.200400 0
M  V30 36 H -8.542400 5.767400 -15.075700 0
M  V30 37 H -7.176700 7.708700 -14.935400 0
M  V30 38 H -8.386100 5.224200 -12.522800 0
M  V30 39 H -5.281900 6.082300 -13.464100 0
M  V30 END ATOM
M  V30 BEGIN BOND
M  V30 1 2 1 3
M  V30 2 1 1 4
M  V30 3 1 1 5
M  V30 4 1 1 10
M  V30 5 2 2 6
M  V30 6 1 2 7 CFG=3
M  V30 7 1 2 10
M  V30 8 1 2 11
M  V30 9 1 8 21
M  V30 10 1 9 22
M  V30 11 1 11 18
M  V30 12 1 12 23
M  V30 13 1 12 25
M  V30 14 1 13 24
M  V30 15 2 14 19
M  V30 16 1 14 24
M  V30 17 1 15 19
M  V30 18 2 15 26
M  V30 19 2 16 20
M  V30 20 1 16 27
M  V30 21 1 17 20
M  V30 22 1 17 23
M  V30 23 1 17 26
M  V30 24 1 18 25
M  V30 25 1 21 22
M  V30 26 1 21 23
M  V30 27 1 22 25
M  V30 28 2 24 27
M  V30 29 1 26 27
M  V30 30 1 25 39 CFG=3
M  V30 31 1 23 38 CFG=1
M  V30 32 1 22 37 CFG=3
M  V30 33 1 8 28
M  V30 34 1 9 29
M  V30 35 1 13 30
M  V30 36 1 13 31
M  V30 37 1 18 32
M  V30 38 1 18 33
M  V30 39 1 19 34
M  V30 40 1 20 35
M  V30 41 1 21 36 CFG=3
M  V30 END BOND
M  V30 END CTAB
M  END
>  <Ligand_Instance>  (91) 
4IAI_ADP_A_403

>  <Dataset>  (91) 
PDB

>  <PDB_ID>  (91) 
4IAI

>  <Chain>  (91) 
A

>  <Resi>  (91) 
403

>  <Num_Resolved_Atoms>  (91) 
27

>  <Num_H_Atoms_ProtBoundConf>  (91) 
12

>  <Pocket>  (91) 
A

>  <Name>  (91) 
ADENOSINE-5'-DIPHOSPHATE

>  <Num_Not_Resolved_Atoms>  (91) 
0

>  <ATP_Site>  (91) 
True

>  <Peripheral>  (91) 
False

>  <Standardized_SMILES>  (91) 
[H]O[C@@]1([H])[C@@]([H])(O[H])[C@]([H])(N2C([H])=NC3=C2N=C([H])N=C3N([H])[H])O[C@]1([H])C([H])([H])O[P@](=O)([O-])OP(=O)([O-])[O-]

>  <2D_Mol_H>  (91) 
<rdkit.Chem.rdchem.Mol object at 0x77059d9e70d0>

>  <MW>  (91) 
424.179

>  <HBA>  (91) 
15

>  <HBD>  (91) 
3

>  <LogP>  (91) 
-3.642

>  <NRB>  (91) 
9

>  <TPSA>  (91) 
241.09

>  <Num_Heavy_Atoms>  (91) 
27

>  <Ro5>  (91) 
[True, False, True, True, True, False]

>  <Ro5_Fulfilled>  (91) 
False

>  <Ro3>  (91) 
[False, False, True, True]

>  <Ro3_Fulfilled>  (91) 
False

>  <Fsp3>  (91) 
0.5

>  <Fsp3_0.42>  (91) 
True

>  <Fsp3_0.45>  (91) 
True

>  <Stereogenic_Carbons>  (91) 
4

>  <C_Atoms>  (91) 
10

>  <FCStereo>  (91) 
0.4

>  <SPS>  (91) 
769

>  <nSPS>  (91) 
28.481481

>  <PBF>  (91) 
0.728144

>  <PBF_0.6>  (91) 
True

>  <nPBF>  (91) 
0.026968

>  <nPBF_0.016>  (91) 
True

>  <PMI1>  (91) 
1507.620573

>  <PMI2>  (91) 
6183.452707

>  <PMI3>  (91) 
7162.852145

>  <NPR1>  (91) 
0.210478

>  <NPR2>  (91) 
0.863267

>  <Sum_NPR>  (91) 
1.073745

>  <Sum_NPR_1.07>  (91) 
True

>  <Sum_NPR_1.2>  (91) 
False

>  <MaxAbsEStateIndex>  (91) 
11.278955

>  <MaxEStateIndex>  (91) 
11.278955

>  <MinAbsEStateIndex>  (91) 
0.065524

>  <MinEStateIndex>  (91) 
-5.851432

>  <qed>  (91) 
0.378904

>  <MolWt>  (91) 
424.179

>  <HeavyAtomMolWt>  (91) 
412.083

>  <ExactMolWt>  (91) 
424.007586

>  <NumValenceElectrons>  (91) 
150

>  <NumRadicalElectrons>  (91) 
0

>  <MaxPartialCharge>  (91) 
0.271368

>  <MinPartialCharge>  (91) 
-0.789509

>  <MaxAbsPartialCharge>  (91) 
0.789509

>  <MinAbsPartialCharge>  (91) 
0.271368

>  <FpDensityMorgan1>  (91) 
1.222222

>  <FpDensityMorgan2>  (91) 
1.925926

>  <FpDensityMorgan3>  (91) 
2.592593

>  <BCUT2D_MWHI>  (91) 
31.27025

>  <BCUT2D_MWLOW>  (91) 
10.128388

>  <BCUT2D_CHGHI>  (91) 
2.444842

>  <BCUT2D_CHGLO>  (91) 
-2.350424

>  <BCUT2D_LOGPHI>  (91) 
2.503664

>  <BCUT2D_LOGPLOW>  (91) 
-2.337741

>  <BCUT2D_MRHI>  (91) 
7.580921

>  <BCUT2D_MRLOW>  (91) 
-0.339423

>  <AvgIpc>  (91) 
3.072773

>  <BalabanJ>  (91) 
1.748652

>  <BertzCT>  (91) 
932.232873

>  <Chi0>  (91) 
19.982763

>  <Chi0n>  (91) 
13.092254

>  <Chi0v>  (91) 
14.881108

>  <Chi1>  (91) 
12.483782

>  <Chi1n>  (91) 
7.119416

>  <Chi1v>  (91) 
10.040603

>  <Chi2n>  (91) 
5.401088

>  <Chi2v>  (91) 
8.101339

>  <Chi3n>  (91) 
3.595354

>  <Chi3v>  (91) 
5.660653

>  <Chi4n>  (91) 
2.463726

>  <Chi4v>  (91) 
3.961582

>  <HallKierAlpha>  (91) 
-1.51

>  <Ipc>  (91) 
807942.564302

>  <Kappa1>  (91) 
20.230095

>  <Kappa2>  (91) 
7.144568

>  <Kappa3>  (91) 
4.329348

>  <LabuteASA>  (91) 
149.760939

>  <PEOE_VSA1>  (91) 
44.452615

>  <PEOE_VSA10>  (91) 
30.15592

>  <PEOE_VSA11>  (91) 
17.692941

>  <PEOE_VSA12>  (91) 
0.0

>  <PEOE_VSA13>  (91) 
7.822697

>  <PEOE_VSA14>  (91) 
0.0

>  <PEOE_VSA2>  (91) 
13.442779

>  <PEOE_VSA3>  (91) 
14.951936

>  <PEOE_VSA4>  (91) 
0.0

>  <PEOE_VSA5>  (91) 
0.0

>  <PEOE_VSA6>  (91) 
0.0

>  <PEOE_VSA7>  (91) 
0.0

>  <PEOE_VSA8>  (91) 
0.0

>  <PEOE_VSA9>  (91) 
20.756899

>  <SMR_VSA1>  (91) 
47.594628

>  <SMR_VSA10>  (91) 
32.627135

>  <SMR_VSA2>  (91) 
0.0

>  <SMR_VSA3>  (91) 
19.519035

>  <SMR_VSA4>  (91) 
0.0

>  <SMR_VSA5>  (91) 
24.5398

>  <SMR_VSA6>  (91) 
12.340549

>  <SMR_VSA7>  (91) 
12.65464

>  <SMR_VSA8>  (91) 
0.0

>  <SMR_VSA9>  (91) 
0.0

>  <SlogP_VSA1>  (91) 
20.413902

>  <SlogP_VSA10>  (91) 
5.817863

>  <SlogP_VSA11>  (91) 
0.0

>  <SlogP_VSA12>  (91) 
15.645394

>  <SlogP_VSA2>  (91) 
54.650871

>  <SlogP_VSA3>  (91) 
22.701338

>  <SlogP_VSA4>  (91) 
0.0

>  <SlogP_VSA5>  (91) 
6.227901

>  <SlogP_VSA6>  (91) 
12.65464

>  <SlogP_VSA7>  (91) 
0.0

>  <SlogP_VSA8>  (91) 
11.163878

>  <SlogP_VSA9>  (91) 
0.0

>  <EState_VSA1>  (91) 
46.792077

>  <EState_VSA10>  (91) 
34.023386

>  <EState_VSA11>  (91) 
0.0

>  <EState_VSA2>  (91) 
16.981741

>  <EState_VSA3>  (91) 
0.0

>  <EState_VSA4>  (91) 
6.32732

>  <EState_VSA5>  (91) 
10.89442

>  <EState_VSA6>  (91) 
0.0

>  <EState_VSA7>  (91) 
0.0

>  <EState_VSA8>  (91) 
23.786314

>  <EState_VSA9>  (91) 
10.47053

>  <VSA_EState1>  (91) 
35.749107

>  <VSA_EState10>  (91) 
0.0

>  <VSA_EState2>  (91) 
43.665953

>  <VSA_EState3>  (91) 
20.193372

>  <VSA_EState4>  (91) 
6.037581

>  <VSA_EState5>  (91) 
0.065524

>  <VSA_EState6>  (91) 
0.0

>  <VSA_EState7>  (91) 
-3.478964

>  <VSA_EState8>  (91) 
-0.931293

>  <VSA_EState9>  (91) 
-11.356836

>  <FractionCSP3>  (91) 
0.5

>  <HeavyAtomCount>  (91) 
27

>  <NHOHCount>  (91) 
4

>  <NOCount>  (91) 
15

>  <NumAliphaticCarbocycles>  (91) 
0

>  <NumAliphaticHeterocycles>  (91) 
1

>  <NumAliphaticRings>  (91) 
1

>  <NumAromaticCarbocycles>  (91) 
0

>  <NumAromaticHeterocycles>  (91) 
2

>  <NumAromaticRings>  (91) 
2

>  <NumHAcceptors>  (91) 
15

>  <NumHDonors>  (91) 
3

>  <NumHeteroatoms>  (91) 
17

>  <NumRotatableBonds>  (91) 
6

>  <NumSaturatedCarbocycles>  (91) 
0

>  <NumSaturatedHeterocycles>  (91) 
1

>  <NumSaturatedRings>  (91) 
1

>  <RingCount>  (91) 
3

>  <MolLogP>  (91) 
-3.642

>  <MolMR>  (91) 
77.909

>  <fr_Al_COO>  (91) 
0

>  <fr_Al_OH>  (91) 
2

>  <fr_Al_OH_noTert>  (91) 
2

>  <fr_ArN>  (91) 
1

>  <fr_Ar_COO>  (91) 
0

>  <fr_Ar_N>  (91) 
4

>  <fr_Ar_NH>  (91) 
0

>  <fr_Ar_OH>  (91) 
0

>  <fr_COO>  (91) 
0

>  <fr_COO2>  (91) 
0

>  <fr_C_O>  (91) 
0

>  <fr_C_O_noCOO>  (91) 
0

>  <fr_C_S>  (91) 
0

>  <fr_HOCCN>  (91) 
0

>  <fr_Imine>  (91) 
0

>  <fr_NH0>  (91) 
4

>  <fr_NH1>  (91) 
0

>  <fr_NH2>  (91) 
1

>  <fr_N_O>  (91) 
0

>  <fr_Ndealkylation1>  (91) 
0

>  <fr_Ndealkylation2>  (91) 
0

>  <fr_Nhpyrrole>  (91) 
0

>  <fr_SH>  (91) 
0

>  <fr_aldehyde>  (91) 
0

>  <fr_alkyl_carbamate>  (91) 
0

>  <fr_alkyl_halide>  (91) 
0

>  <fr_allylic_oxid>  (91) 
0

>  <fr_amide>  (91) 
0

>  <fr_amidine>  (91) 
0

>  <fr_aniline>  (91) 
1

>  <fr_aryl_methyl>  (91) 
0

>  <fr_azide>  (91) 
0

>  <fr_azo>  (91) 
0

>  <fr_barbitur>  (91) 
0

>  <fr_benzene>  (91) 
0

>  <fr_benzodiazepine>  (91) 
0

>  <fr_bicyclic>  (91) 
1

>  <fr_diazo>  (91) 
0

>  <fr_dihydropyridine>  (91) 
0

>  <fr_epoxide>  (91) 
0

>  <fr_ester>  (91) 
0

>  <fr_ether>  (91) 
1

>  <fr_furan>  (91) 
0

>  <fr_guanido>  (91) 
0

>  <fr_halogen>  (91) 
0

>  <fr_hdrzine>  (91) 
0

>  <fr_hdrzone>  (91) 
0

>  <fr_imidazole>  (91) 
1

>  <fr_imide>  (91) 
0

>  <fr_isocyan>  (91) 
0

>  <fr_isothiocyan>  (91) 
0

>  <fr_ketone>  (91) 
0

>  <fr_ketone_Topliss>  (91) 
0

>  <fr_lactam>  (91) 
0

>  <fr_lactone>  (91) 
0

>  <fr_methoxy>  (91) 
0

>  <fr_morpholine>  (91) 
0

>  <fr_nitrile>  (91) 
0

>  <fr_nitro>  (91) 
0

>  <fr_nitro_arom>  (91) 
0

>  <fr_nitro_arom_nonortho>  (91) 
0

>  <fr_nitroso>  (91) 
0

>  <fr_oxazole>  (91) 
0

>  <fr_oxime>  (91) 
0

>  <fr_para_hydroxylation>  (91) 
0

>  <fr_phenol>  (91) 
0

>  <fr_phenol_noOrthoHbond>  (91) 
0

>  <fr_phos_acid>  (91) 
2

>  <fr_phos_ester>  (91) 
1

>  <fr_piperdine>  (91) 
0

>  <fr_piperzine>  (91) 
0

>  <fr_priamide>  (91) 
0

>  <fr_prisulfonamd>  (91) 
0

>  <fr_pyridine>  (91) 
0

>  <fr_quatN>  (91) 
0

>  <fr_sulfide>  (91) 
0

>  <fr_sulfonamd>  (91) 
0

>  <fr_sulfone>  (91) 
0

>  <fr_term_acetylene>  (91) 
0

>  <fr_tetrazole>  (91) 
0

>  <fr_thiazole>  (91) 
0

>  <fr_thiocyan>  (91) 
0

>  <fr_thiophene>  (91) 
0

>  <fr_unbrch_alkane>  (91) 
0

>  <fr_urea>  (91) 
0

>  <NP_Likeness>  (91) 
0.931308

$$$$
ADP
     RDKit          3D

  0  0  0  0  0  0  0  0  0  0999 V3000
M  V30 BEGIN CTAB
M  V30 COUNTS 39 41 0 0 0
M  V30 BEGIN ATOM
M  V30 1 P -2.585000 -11.478000 13.226000 0
M  V30 2 P -5.233000 -10.633000 13.475000 0 CFG=1
M  V30 3 O -2.749000 -12.764000 13.961000 0
M  V30 4 O -1.591000 -11.723000 11.981000 0 CHG=-1
M  V30 5 O -1.973000 -10.348000 14.167000 0 CHG=-1
M  V30 6 O -6.284000 -11.640000 13.207000 0
M  V30 7 O -4.840000 -10.422000 14.971000 0 CHG=-1
M  V30 8 O -6.903000 -4.524000 14.266000 0
M  V30 9 O -5.687000 -6.636000 15.581000 0
M  V30 10 O -3.961000 -11.011000 12.598000 0
M  V30 11 O -5.802000 -9.259000 12.784000 0
M  V30 12 O -6.623000 -6.678000 12.141000 0
M  V30 13 N -13.106000 -9.028000 11.994000 0
M  V30 14 N -12.872000 -6.673000 11.951000 0
M  V30 15 N -10.858000 -5.558000 12.219000 0
M  V30 16 N -10.029000 -8.946000 12.352000 0
M  V30 17 N -8.924000 -7.091000 12.572000 0
M  V30 18 C -4.880000 -8.190000 12.996000 0
M  V30 19 C -12.165000 -5.553000 12.029000 0
M  V30 20 C -8.830000 -8.444000 12.527000 0
M  V30 21 C -7.550000 -5.827000 14.186000 0 CFG=2
M  V30 22 C -6.529000 -6.958000 14.471000 0 CFG=1
M  V30 23 C -7.830000 -6.114000 12.692000 0 CFG=1
M  V30 24 C -12.336000 -7.877000 12.126000 0
M  V30 25 C -5.652000 -6.882000 13.195000 0 CFG=2
M  V30 26 C -10.238000 -6.743000 12.403000 0
M  V30 27 C -10.947000 -7.941000 12.288000 0
M  V30 28 H -6.523600 -4.395900 15.182300 0
M  V30 29 H -6.248500 -6.503200 16.397800 0
M  V30 30 H -12.688800 -9.926800 12.128600 0
M  V30 31 H -14.076700 -8.956600 11.764500 0
M  V30 32 H -4.279500 -8.105000 12.200900 0
M  V30 33 H -4.330700 -8.380000 13.809700 0
M  V30 34 H -12.637400 -4.676000 11.941000 0
M  V30 35 H -7.985000 -8.971800 12.613100 0
M  V30 36 H -8.369900 -5.890200 14.755000 0
M  V30 37 H -6.969900 -7.849400 14.575600 0
M  V30 38 H -8.066800 -5.267800 12.214700 0
M  V30 39 H -5.022300 -6.106900 13.247300 0
M  V30 END ATOM
M  V30 BEGIN BOND
M  V30 1 2 1 3
M  V30 2 1 1 4
M  V30 3 1 1 5
M  V30 4 1 1 10
M  V30 5 2 2 6
M  V30 6 1 2 7 CFG=1
M  V30 7 1 2 10
M  V30 8 1 2 11
M  V30 9 1 8 21
M  V30 10 1 9 22
M  V30 11 1 11 18
M  V30 12 1 12 23
M  V30 13 1 12 25
M  V30 14 1 13 24
M  V30 15 2 14 19
M  V30 16 1 14 24
M  V30 17 1 15 19
M  V30 18 2 15 26
M  V30 19 2 16 20
M  V30 20 1 16 27
M  V30 21 1 17 20
M  V30 22 1 17 23
M  V30 23 1 17 26
M  V30 24 1 18 25
M  V30 25 1 21 22
M  V30 26 1 21 23
M  V30 27 1 22 25
M  V30 28 2 24 27
M  V30 29 1 26 27
M  V30 30 1 25 39 CFG=1
M  V30 31 1 23 38 CFG=3
M  V30 32 1 22 37 CFG=1
M  V30 33 1 8 28
M  V30 34 1 9 29
M  V30 35 1 13 30
M  V30 36 1 13 31
M  V30 37 1 18 32
M  V30 38 1 18 33
M  V30 39 1 19 34
M  V30 40 1 20 35
M  V30 41 1 21 36 CFG=1
M  V30 END BOND
M  V30 END CTAB
M  END
>  <Ligand_Instance>  (92) 
4IAK_ADP_A_403

>  <Dataset>  (92) 
PDB

>  <PDB_ID>  (92) 
4IAK

>  <Chain>  (92) 
A

>  <Resi>  (92) 
403

>  <Num_Resolved_Atoms>  (92) 
27

>  <Num_H_Atoms_ProtBoundConf>  (92) 
12

>  <Pocket>  (92) 
A

>  <Name>  (92) 
ADENOSINE-5'-DIPHOSPHATE

>  <Num_Not_Resolved_Atoms>  (92) 
0

>  <ATP_Site>  (92) 
True

>  <Peripheral>  (92) 
False

>  <Standardized_SMILES>  (92) 
[H]O[C@@]1([H])[C@@]([H])(O[H])[C@]([H])(N2C([H])=NC3=C2N=C([H])N=C3N([H])[H])O[C@]1([H])C([H])([H])O[P@](=O)([O-])OP(=O)([O-])[O-]

>  <2D_Mol_H>  (92) 
<rdkit.Chem.rdchem.Mol object at 0x77059d9e71b0>

>  <MW>  (92) 
424.179

>  <HBA>  (92) 
15

>  <HBD>  (92) 
3

>  <LogP>  (92) 
-3.642

>  <NRB>  (92) 
9

>  <TPSA>  (92) 
241.09

>  <Num_Heavy_Atoms>  (92) 
27

>  <Ro5>  (92) 
[True, False, True, True, True, False]

>  <Ro5_Fulfilled>  (92) 
False

>  <Ro3>  (92) 
[False, False, True, True]

>  <Ro3_Fulfilled>  (92) 
False

>  <Fsp3>  (92) 
0.5

>  <Fsp3_0.42>  (92) 
True

>  <Fsp3_0.45>  (92) 
True

>  <Stereogenic_Carbons>  (92) 
4

>  <C_Atoms>  (92) 
10

>  <FCStereo>  (92) 
0.4

>  <SPS>  (92) 
769

>  <nSPS>  (92) 
28.481481

>  <PBF>  (92) 
0.717199

>  <PBF_0.6>  (92) 
True

>  <nPBF>  (92) 
0.026563

>  <nPBF_0.016>  (92) 
True

>  <PMI1>  (92) 
1466.269614

>  <PMI2>  (92) 
6219.873463

>  <PMI3>  (92) 
7178.895468

>  <NPR1>  (92) 
0.204247

>  <NPR2>  (92) 
0.866411

>  <Sum_NPR>  (92) 
1.070658

>  <Sum_NPR_1.07>  (92) 
True

>  <Sum_NPR_1.2>  (92) 
False

>  <MaxAbsEStateIndex>  (92) 
11.278955

>  <MaxEStateIndex>  (92) 
11.278955

>  <MinAbsEStateIndex>  (92) 
0.065524

>  <MinEStateIndex>  (92) 
-5.851432

>  <qed>  (92) 
0.378904

>  <MolWt>  (92) 
424.179

>  <HeavyAtomMolWt>  (92) 
412.083

>  <ExactMolWt>  (92) 
424.007586

>  <NumValenceElectrons>  (92) 
150

>  <NumRadicalElectrons>  (92) 
0

>  <MaxPartialCharge>  (92) 
0.271368

>  <MinPartialCharge>  (92) 
-0.789509

>  <MaxAbsPartialCharge>  (92) 
0.789509

>  <MinAbsPartialCharge>  (92) 
0.271368

>  <FpDensityMorgan1>  (92) 
1.222222

>  <FpDensityMorgan2>  (92) 
1.925926

>  <FpDensityMorgan3>  (92) 
2.592593

>  <BCUT2D_MWHI>  (92) 
31.27025

>  <BCUT2D_MWLOW>  (92) 
10.128388

>  <BCUT2D_CHGHI>  (92) 
2.444842

>  <BCUT2D_CHGLO>  (92) 
-2.350424

>  <BCUT2D_LOGPHI>  (92) 
2.503664

>  <BCUT2D_LOGPLOW>  (92) 
-2.337741

>  <BCUT2D_MRHI>  (92) 
7.580921

>  <BCUT2D_MRLOW>  (92) 
-0.339423

>  <AvgIpc>  (92) 
3.072773

>  <BalabanJ>  (92) 
1.748652

>  <BertzCT>  (92) 
932.232873

>  <Chi0>  (92) 
19.982763

>  <Chi0n>  (92) 
13.092254

>  <Chi0v>  (92) 
14.881108

>  <Chi1>  (92) 
12.483782

>  <Chi1n>  (92) 
7.119416

>  <Chi1v>  (92) 
10.040603

>  <Chi2n>  (92) 
5.401088

>  <Chi2v>  (92) 
8.101339

>  <Chi3n>  (92) 
3.595354

>  <Chi3v>  (92) 
5.660653

>  <Chi4n>  (92) 
2.463726

>  <Chi4v>  (92) 
3.961582

>  <HallKierAlpha>  (92) 
-1.51

>  <Ipc>  (92) 
807942.564302

>  <Kappa1>  (92) 
20.230095

>  <Kappa2>  (92) 
7.144568

>  <Kappa3>  (92) 
4.329348

>  <LabuteASA>  (92) 
149.760939

>  <PEOE_VSA1>  (92) 
44.452615

>  <PEOE_VSA10>  (92) 
30.15592

>  <PEOE_VSA11>  (92) 
17.692941

>  <PEOE_VSA12>  (92) 
0.0

>  <PEOE_VSA13>  (92) 
7.822697

>  <PEOE_VSA14>  (92) 
0.0

>  <PEOE_VSA2>  (92) 
13.442779

>  <PEOE_VSA3>  (92) 
14.951936

>  <PEOE_VSA4>  (92) 
0.0

>  <PEOE_VSA5>  (92) 
0.0

>  <PEOE_VSA6>  (92) 
0.0

>  <PEOE_VSA7>  (92) 
0.0

>  <PEOE_VSA8>  (92) 
0.0

>  <PEOE_VSA9>  (92) 
20.756899

>  <SMR_VSA1>  (92) 
47.594628

>  <SMR_VSA10>  (92) 
32.627135

>  <SMR_VSA2>  (92) 
0.0

>  <SMR_VSA3>  (92) 
19.519035

>  <SMR_VSA4>  (92) 
0.0

>  <SMR_VSA5>  (92) 
24.5398

>  <SMR_VSA6>  (92) 
12.340549

>  <SMR_VSA7>  (92) 
12.65464

>  <SMR_VSA8>  (92) 
0.0

>  <SMR_VSA9>  (92) 
0.0

>  <SlogP_VSA1>  (92) 
20.413902

>  <SlogP_VSA10>  (92) 
5.817863

>  <SlogP_VSA11>  (92) 
0.0

>  <SlogP_VSA12>  (92) 
15.645394

>  <SlogP_VSA2>  (92) 
54.650871

>  <SlogP_VSA3>  (92) 
22.701338

>  <SlogP_VSA4>  (92) 
0.0

>  <SlogP_VSA5>  (92) 
6.227901

>  <SlogP_VSA6>  (92) 
12.65464

>  <SlogP_VSA7>  (92) 
0.0

>  <SlogP_VSA8>  (92) 
11.163878

>  <SlogP_VSA9>  (92) 
0.0

>  <EState_VSA1>  (92) 
46.792077

>  <EState_VSA10>  (92) 
34.023386

>  <EState_VSA11>  (92) 
0.0

>  <EState_VSA2>  (92) 
16.981741

>  <EState_VSA3>  (92) 
0.0

>  <EState_VSA4>  (92) 
6.32732

>  <EState_VSA5>  (92) 
10.89442

>  <EState_VSA6>  (92) 
0.0

>  <EState_VSA7>  (92) 
0.0

>  <EState_VSA8>  (92) 
23.786314

>  <EState_VSA9>  (92) 
10.47053

>  <VSA_EState1>  (92) 
35.749107

>  <VSA_EState10>  (92) 
0.0

>  <VSA_EState2>  (92) 
43.665953

>  <VSA_EState3>  (92) 
20.193372

>  <VSA_EState4>  (92) 
6.037581

>  <VSA_EState5>  (92) 
0.065524

>  <VSA_EState6>  (92) 
0.0

>  <VSA_EState7>  (92) 
-3.478964

>  <VSA_EState8>  (92) 
-0.931293

>  <VSA_EState9>  (92) 
-11.356836

>  <FractionCSP3>  (92) 
0.5

>  <HeavyAtomCount>  (92) 
27

>  <NHOHCount>  (92) 
4

>  <NOCount>  (92) 
15

>  <NumAliphaticCarbocycles>  (92) 
0

>  <NumAliphaticHeterocycles>  (92) 
1

>  <NumAliphaticRings>  (92) 
1

>  <NumAromaticCarbocycles>  (92) 
0

>  <NumAromaticHeterocycles>  (92) 
2

>  <NumAromaticRings>  (92) 
2

>  <NumHAcceptors>  (92) 
15

>  <NumHDonors>  (92) 
3

>  <NumHeteroatoms>  (92) 
17

>  <NumRotatableBonds>  (92) 
6

>  <NumSaturatedCarbocycles>  (92) 
0

>  <NumSaturatedHeterocycles>  (92) 
1

>  <NumSaturatedRings>  (92) 
1

>  <RingCount>  (92) 
3

>  <MolLogP>  (92) 
-3.642

>  <MolMR>  (92) 
77.909

>  <fr_Al_COO>  (92) 
0

>  <fr_Al_OH>  (92) 
2

>  <fr_Al_OH_noTert>  (92) 
2

>  <fr_ArN>  (92) 
1

>  <fr_Ar_COO>  (92) 
0

>  <fr_Ar_N>  (92) 
4

>  <fr_Ar_NH>  (92) 
0

>  <fr_Ar_OH>  (92) 
0

>  <fr_COO>  (92) 
0

>  <fr_COO2>  (92) 
0

>  <fr_C_O>  (92) 
0

>  <fr_C_O_noCOO>  (92) 
0

>  <fr_C_S>  (92) 
0

>  <fr_HOCCN>  (92) 
0

>  <fr_Imine>  (92) 
0

>  <fr_NH0>  (92) 
4

>  <fr_NH1>  (92) 
0

>  <fr_NH2>  (92) 
1

>  <fr_N_O>  (92) 
0

>  <fr_Ndealkylation1>  (92) 
0

>  <fr_Ndealkylation2>  (92) 
0

>  <fr_Nhpyrrole>  (92) 
0

>  <fr_SH>  (92) 
0

>  <fr_aldehyde>  (92) 
0

>  <fr_alkyl_carbamate>  (92) 
0

>  <fr_alkyl_halide>  (92) 
0

>  <fr_allylic_oxid>  (92) 
0

>  <fr_amide>  (92) 
0

>  <fr_amidine>  (92) 
0

>  <fr_aniline>  (92) 
1

>  <fr_aryl_methyl>  (92) 
0

>  <fr_azide>  (92) 
0

>  <fr_azo>  (92) 
0

>  <fr_barbitur>  (92) 
0

>  <fr_benzene>  (92) 
0

>  <fr_benzodiazepine>  (92) 
0

>  <fr_bicyclic>  (92) 
1

>  <fr_diazo>  (92) 
0

>  <fr_dihydropyridine>  (92) 
0

>  <fr_epoxide>  (92) 
0

>  <fr_ester>  (92) 
0

>  <fr_ether>  (92) 
1

>  <fr_furan>  (92) 
0

>  <fr_guanido>  (92) 
0

>  <fr_halogen>  (92) 
0

>  <fr_hdrzine>  (92) 
0

>  <fr_hdrzone>  (92) 
0

>  <fr_imidazole>  (92) 
1

>  <fr_imide>  (92) 
0

>  <fr_isocyan>  (92) 
0

>  <fr_isothiocyan>  (92) 
0

>  <fr_ketone>  (92) 
0

>  <fr_ketone_Topliss>  (92) 
0

>  <fr_lactam>  (92) 
0

>  <fr_lactone>  (92) 
0

>  <fr_methoxy>  (92) 
0

>  <fr_morpholine>  (92) 
0

>  <fr_nitrile>  (92) 
0

>  <fr_nitro>  (92) 
0

>  <fr_nitro_arom>  (92) 
0

>  <fr_nitro_arom_nonortho>  (92) 
0

>  <fr_nitroso>  (92) 
0

>  <fr_oxazole>  (92) 
0

>  <fr_oxime>  (92) 
0

>  <fr_para_hydroxylation>  (92) 
0

>  <fr_phenol>  (92) 
0

>  <fr_phenol_noOrthoHbond>  (92) 
0

>  <fr_phos_acid>  (92) 
2

>  <fr_phos_ester>  (92) 
1

>  <fr_piperdine>  (92) 
0

>  <fr_piperzine>  (92) 
0

>  <fr_priamide>  (92) 
0

>  <fr_prisulfonamd>  (92) 
0

>  <fr_pyridine>  (92) 
0

>  <fr_quatN>  (92) 
0

>  <fr_sulfide>  (92) 
0

>  <fr_sulfonamd>  (92) 
0

>  <fr_sulfone>  (92) 
0

>  <fr_term_acetylene>  (92) 
0

>  <fr_tetrazole>  (92) 
0

>  <fr_thiazole>  (92) 
0

>  <fr_thiocyan>  (92) 
0

>  <fr_thiophene>  (92) 
0

>  <fr_unbrch_alkane>  (92) 
0

>  <fr_urea>  (92) 
0

>  <NP_Likeness>  (92) 
0.931308

$$$$
ADP
     RDKit          3D

  0  0  0  0  0  0  0  0  0  0999 V3000
M  V30 BEGIN CTAB
M  V30 COUNTS 39 41 0 0 0
M  V30 BEGIN ATOM
M  V30 1 P -2.340000 11.004000 -13.572000 0
M  V30 2 P -4.965000 10.249000 -13.717000 0 CFG=1
M  V30 3 O -1.891000 10.159000 -14.701000 0
M  V30 4 O -2.489000 12.542000 -14.024000 0 CHG=-1
M  V30 5 O -1.155000 10.963000 -12.458000 0 CHG=-1
M  V30 6 O -5.917000 11.356000 -13.446000 0
M  V30 7 O -4.702000 10.083000 -15.270000 0 CHG=-1
M  V30 8 O -7.059000 4.327000 -14.280000 0
M  V30 9 O -5.798000 6.254000 -15.769000 0
M  V30 10 O -3.644000 10.477000 -12.858000 0
M  V30 11 O -5.673000 8.924000 -13.105000 0
M  V30 12 O -6.351000 6.413000 -12.196000 0
M  V30 13 N -12.911000 8.885000 -11.883000 0
M  V30 14 N -12.671000 6.547000 -11.800000 0
M  V30 15 N -10.661000 5.443000 -12.054000 0
M  V30 16 N -9.845000 8.793000 -12.450000 0
M  V30 17 N -8.698000 6.937000 -12.367000 0
M  V30 18 C -4.689000 7.884000 -13.148000 0
M  V30 19 C -11.960000 5.435000 -11.848000 0
M  V30 20 C -8.656000 8.279000 -12.584000 0
M  V30 21 C -7.536000 5.672000 -14.133000 0 CFG=2
M  V30 22 C -6.423000 6.681000 -14.553000 0 CFG=1
M  V30 23 C -7.637000 5.965000 -12.613000 0 CFG=1
M  V30 24 C -12.112000 7.753000 -11.902000 0
M  V30 25 C -5.479000 6.579000 -13.343000 0 CFG=2
M  V30 26 C -10.012000 6.603000 -12.137000 0
M  V30 27 C -10.725000 7.814000 -12.111000 0
M  V30 28 H -6.389500 4.290000 -15.021900 0
M  V30 29 H -6.458300 5.746800 -16.322900 0
M  V30 30 H -12.495700 9.791500 -11.959200 0
M  V30 31 H -13.902900 8.795400 -11.793000 0
M  V30 32 H -4.172900 7.855500 -12.292000 0
M  V30 33 H -4.060100 8.029300 -13.911800 0
M  V30 34 H -12.424500 4.558200 -11.723600 0
M  V30 35 H -7.831400 8.796200 -12.813300 0
M  V30 36 H -8.398900 5.829000 -14.613400 0
M  V30 37 H -6.792100 7.605900 -14.644000 0
M  V30 38 H -7.856600 5.115900 -12.132500 0
M  V30 39 H -4.861000 5.798500 -13.437300 0
M  V30 END ATOM
M  V30 BEGIN BOND
M  V30 1 2 1 3
M  V30 2 1 1 4
M  V30 3 1 1 5
M  V30 4 1 1 10
M  V30 5 2 2 6
M  V30 6 1 2 7 CFG=3
M  V30 7 1 2 10
M  V30 8 1 2 11
M  V30 9 1 8 21
M  V30 10 1 9 22
M  V30 11 1 11 18
M  V30 12 1 12 23
M  V30 13 1 12 25
M  V30 14 1 13 24
M  V30 15 2 14 19
M  V30 16 1 14 24
M  V30 17 1 15 19
M  V30 18 2 15 26
M  V30 19 2 16 20
M  V30 20 1 16 27
M  V30 21 1 17 20
M  V30 22 1 17 23
M  V30 23 1 17 26
M  V30 24 1 18 25
M  V30 25 1 21 22
M  V30 26 1 21 23
M  V30 27 1 22 25
M  V30 28 2 24 27
M  V30 29 1 26 27
M  V30 30 1 25 39 CFG=3
M  V30 31 1 23 38 CFG=1
M  V30 32 1 22 37 CFG=3
M  V30 33 1 8 28
M  V30 34 1 9 29
M  V30 35 1 13 30
M  V30 36 1 13 31
M  V30 37 1 18 32
M  V30 38 1 18 33
M  V30 39 1 19 34
M  V30 40 1 20 35
M  V30 41 1 21 36 CFG=3
M  V30 END BOND
M  V30 END CTAB
M  END
>  <Ligand_Instance>  (93) 
4IAY_ADP_A_403

>  <Dataset>  (93) 
PDB

>  <PDB_ID>  (93) 
4IAY

>  <Chain>  (93) 
A

>  <Resi>  (93) 
403

>  <Num_Resolved_Atoms>  (93) 
27

>  <Num_H_Atoms_ProtBoundConf>  (93) 
12

>  <Pocket>  (93) 
A

>  <Name>  (93) 
ADENOSINE-5'-DIPHOSPHATE

>  <Num_Not_Resolved_Atoms>  (93) 
0

>  <ATP_Site>  (93) 
True

>  <Peripheral>  (93) 
False

>  <Standardized_SMILES>  (93) 
[H]O[C@@]1([H])[C@@]([H])(O[H])[C@]([H])(N2C([H])=NC3=C2N=C([H])N=C3N([H])[H])O[C@]1([H])C([H])([H])O[P@](=O)([O-])OP(=O)([O-])[O-]

>  <2D_Mol_H>  (93) 
<rdkit.Chem.rdchem.Mol object at 0x77059d9e7290>

>  <MW>  (93) 
424.179

>  <HBA>  (93) 
15

>  <HBD>  (93) 
3

>  <LogP>  (93) 
-3.642

>  <NRB>  (93) 
9

>  <TPSA>  (93) 
241.09

>  <Num_Heavy_Atoms>  (93) 
27

>  <Ro5>  (93) 
[True, False, True, True, True, False]

>  <Ro5_Fulfilled>  (93) 
False

>  <Ro3>  (93) 
[False, False, True, True]

>  <Ro3_Fulfilled>  (93) 
False

>  <Fsp3>  (93) 
0.5

>  <Fsp3_0.42>  (93) 
True

>  <Fsp3_0.45>  (93) 
True

>  <Stereogenic_Carbons>  (93) 
4

>  <C_Atoms>  (93) 
10

>  <FCStereo>  (93) 
0.4

>  <SPS>  (93) 
769

>  <nSPS>  (93) 
28.481481

>  <PBF>  (93) 
0.731796

>  <PBF_0.6>  (93) 
True

>  <nPBF>  (93) 
0.027104

>  <nPBF_0.016>  (93) 
True

>  <PMI1>  (93) 
1434.912248

>  <PMI2>  (93) 
6235.176486

>  <PMI3>  (93) 
7125.897446

>  <NPR1>  (93) 
0.201366

>  <NPR2>  (93) 
0.875002

>  <Sum_NPR>  (93) 
1.076368

>  <Sum_NPR_1.07>  (93) 
True

>  <Sum_NPR_1.2>  (93) 
False

>  <MaxAbsEStateIndex>  (93) 
11.278955

>  <MaxEStateIndex>  (93) 
11.278955

>  <MinAbsEStateIndex>  (93) 
0.065524

>  <MinEStateIndex>  (93) 
-5.851432

>  <qed>  (93) 
0.378904

>  <MolWt>  (93) 
424.179

>  <HeavyAtomMolWt>  (93) 
412.083

>  <ExactMolWt>  (93) 
424.007586

>  <NumValenceElectrons>  (93) 
150

>  <NumRadicalElectrons>  (93) 
0

>  <MaxPartialCharge>  (93) 
0.271368

>  <MinPartialCharge>  (93) 
-0.789509

>  <MaxAbsPartialCharge>  (93) 
0.789509

>  <MinAbsPartialCharge>  (93) 
0.271368

>  <FpDensityMorgan1>  (93) 
1.222222

>  <FpDensityMorgan2>  (93) 
1.925926

>  <FpDensityMorgan3>  (93) 
2.592593

>  <BCUT2D_MWHI>  (93) 
31.27025

>  <BCUT2D_MWLOW>  (93) 
10.128388

>  <BCUT2D_CHGHI>  (93) 
2.444842

>  <BCUT2D_CHGLO>  (93) 
-2.350424

>  <BCUT2D_LOGPHI>  (93) 
2.503664

>  <BCUT2D_LOGPLOW>  (93) 
-2.337741

>  <BCUT2D_MRHI>  (93) 
7.580921

>  <BCUT2D_MRLOW>  (93) 
-0.339423

>  <AvgIpc>  (93) 
3.072773

>  <BalabanJ>  (93) 
1.748652

>  <BertzCT>  (93) 
932.232873

>  <Chi0>  (93) 
19.982763

>  <Chi0n>  (93) 
13.092254

>  <Chi0v>  (93) 
14.881108

>  <Chi1>  (93) 
12.483782

>  <Chi1n>  (93) 
7.119416

>  <Chi1v>  (93) 
10.040603

>  <Chi2n>  (93) 
5.401088

>  <Chi2v>  (93) 
8.101339

>  <Chi3n>  (93) 
3.595354

>  <Chi3v>  (93) 
5.660653

>  <Chi4n>  (93) 
2.463726

>  <Chi4v>  (93) 
3.961582

>  <HallKierAlpha>  (93) 
-1.51

>  <Ipc>  (93) 
807942.564302

>  <Kappa1>  (93) 
20.230095

>  <Kappa2>  (93) 
7.144568

>  <Kappa3>  (93) 
4.329348

>  <LabuteASA>  (93) 
149.760939

>  <PEOE_VSA1>  (93) 
44.452615

>  <PEOE_VSA10>  (93) 
30.15592

>  <PEOE_VSA11>  (93) 
17.692941

>  <PEOE_VSA12>  (93) 
0.0

>  <PEOE_VSA13>  (93) 
7.822697

>  <PEOE_VSA14>  (93) 
0.0

>  <PEOE_VSA2>  (93) 
13.442779

>  <PEOE_VSA3>  (93) 
14.951936

>  <PEOE_VSA4>  (93) 
0.0

>  <PEOE_VSA5>  (93) 
0.0

>  <PEOE_VSA6>  (93) 
0.0

>  <PEOE_VSA7>  (93) 
0.0

>  <PEOE_VSA8>  (93) 
0.0

>  <PEOE_VSA9>  (93) 
20.756899

>  <SMR_VSA1>  (93) 
47.594628

>  <SMR_VSA10>  (93) 
32.627135

>  <SMR_VSA2>  (93) 
0.0

>  <SMR_VSA3>  (93) 
19.519035

>  <SMR_VSA4>  (93) 
0.0

>  <SMR_VSA5>  (93) 
24.5398

>  <SMR_VSA6>  (93) 
12.340549

>  <SMR_VSA7>  (93) 
12.65464

>  <SMR_VSA8>  (93) 
0.0

>  <SMR_VSA9>  (93) 
0.0

>  <SlogP_VSA1>  (93) 
20.413902

>  <SlogP_VSA10>  (93) 
5.817863

>  <SlogP_VSA11>  (93) 
0.0

>  <SlogP_VSA12>  (93) 
15.645394

>  <SlogP_VSA2>  (93) 
54.650871

>  <SlogP_VSA3>  (93) 
22.701338

>  <SlogP_VSA4>  (93) 
0.0

>  <SlogP_VSA5>  (93) 
6.227901

>  <SlogP_VSA6>  (93) 
12.65464

>  <SlogP_VSA7>  (93) 
0.0

>  <SlogP_VSA8>  (93) 
11.163878

>  <SlogP_VSA9>  (93) 
0.0

>  <EState_VSA1>  (93) 
46.792077

>  <EState_VSA10>  (93) 
34.023386

>  <EState_VSA11>  (93) 
0.0

>  <EState_VSA2>  (93) 
16.981741

>  <EState_VSA3>  (93) 
0.0

>  <EState_VSA4>  (93) 
6.32732

>  <EState_VSA5>  (93) 
10.89442

>  <EState_VSA6>  (93) 
0.0

>  <EState_VSA7>  (93) 
0.0

>  <EState_VSA8>  (93) 
23.786314

>  <EState_VSA9>  (93) 
10.47053

>  <VSA_EState1>  (93) 
35.749107

>  <VSA_EState10>  (93) 
0.0

>  <VSA_EState2>  (93) 
43.665953

>  <VSA_EState3>  (93) 
20.193372

>  <VSA_EState4>  (93) 
6.037581

>  <VSA_EState5>  (93) 
0.065524

>  <VSA_EState6>  (93) 
0.0

>  <VSA_EState7>  (93) 
-3.478964

>  <VSA_EState8>  (93) 
-0.931293

>  <VSA_EState9>  (93) 
-11.356836

>  <FractionCSP3>  (93) 
0.5

>  <HeavyAtomCount>  (93) 
27

>  <NHOHCount>  (93) 
4

>  <NOCount>  (93) 
15

>  <NumAliphaticCarbocycles>  (93) 
0

>  <NumAliphaticHeterocycles>  (93) 
1

>  <NumAliphaticRings>  (93) 
1

>  <NumAromaticCarbocycles>  (93) 
0

>  <NumAromaticHeterocycles>  (93) 
2

>  <NumAromaticRings>  (93) 
2

>  <NumHAcceptors>  (93) 
15

>  <NumHDonors>  (93) 
3

>  <NumHeteroatoms>  (93) 
17

>  <NumRotatableBonds>  (93) 
6

>  <NumSaturatedCarbocycles>  (93) 
0

>  <NumSaturatedHeterocycles>  (93) 
1

>  <NumSaturatedRings>  (93) 
1

>  <RingCount>  (93) 
3

>  <MolLogP>  (93) 
-3.642

>  <MolMR>  (93) 
77.909

>  <fr_Al_COO>  (93) 
0

>  <fr_Al_OH>  (93) 
2

>  <fr_Al_OH_noTert>  (93) 
2

>  <fr_ArN>  (93) 
1

>  <fr_Ar_COO>  (93) 
0

>  <fr_Ar_N>  (93) 
4

>  <fr_Ar_NH>  (93) 
0

>  <fr_Ar_OH>  (93) 
0

>  <fr_COO>  (93) 
0

>  <fr_COO2>  (93) 
0

>  <fr_C_O>  (93) 
0

>  <fr_C_O_noCOO>  (93) 
0

>  <fr_C_S>  (93) 
0

>  <fr_HOCCN>  (93) 
0

>  <fr_Imine>  (93) 
0

>  <fr_NH0>  (93) 
4

>  <fr_NH1>  (93) 
0

>  <fr_NH2>  (93) 
1

>  <fr_N_O>  (93) 
0

>  <fr_Ndealkylation1>  (93) 
0

>  <fr_Ndealkylation2>  (93) 
0

>  <fr_Nhpyrrole>  (93) 
0

>  <fr_SH>  (93) 
0

>  <fr_aldehyde>  (93) 
0

>  <fr_alkyl_carbamate>  (93) 
0

>  <fr_alkyl_halide>  (93) 
0

>  <fr_allylic_oxid>  (93) 
0

>  <fr_amide>  (93) 
0

>  <fr_amidine>  (93) 
0

>  <fr_aniline>  (93) 
1

>  <fr_aryl_methyl>  (93) 
0

>  <fr_azide>  (93) 
0

>  <fr_azo>  (93) 
0

>  <fr_barbitur>  (93) 
0

>  <fr_benzene>  (93) 
0

>  <fr_benzodiazepine>  (93) 
0

>  <fr_bicyclic>  (93) 
1

>  <fr_diazo>  (93) 
0

>  <fr_dihydropyridine>  (93) 
0

>  <fr_epoxide>  (93) 
0

>  <fr_ester>  (93) 
0

>  <fr_ether>  (93) 
1

>  <fr_furan>  (93) 
0

>  <fr_guanido>  (93) 
0

>  <fr_halogen>  (93) 
0

>  <fr_hdrzine>  (93) 
0

>  <fr_hdrzone>  (93) 
0

>  <fr_imidazole>  (93) 
1

>  <fr_imide>  (93) 
0

>  <fr_isocyan>  (93) 
0

>  <fr_isothiocyan>  (93) 
0

>  <fr_ketone>  (93) 
0

>  <fr_ketone_Topliss>  (93) 
0

>  <fr_lactam>  (93) 
0

>  <fr_lactone>  (93) 
0

>  <fr_methoxy>  (93) 
0

>  <fr_morpholine>  (93) 
0

>  <fr_nitrile>  (93) 
0

>  <fr_nitro>  (93) 
0

>  <fr_nitro_arom>  (93) 
0

>  <fr_nitro_arom_nonortho>  (93) 
0

>  <fr_nitroso>  (93) 
0

>  <fr_oxazole>  (93) 
0

>  <fr_oxime>  (93) 
0

>  <fr_para_hydroxylation>  (93) 
0

>  <fr_phenol>  (93) 
0

>  <fr_phenol_noOrthoHbond>  (93) 
0

>  <fr_phos_acid>  (93) 
2

>  <fr_phos_ester>  (93) 
1

>  <fr_piperdine>  (93) 
0

>  <fr_piperzine>  (93) 
0

>  <fr_priamide>  (93) 
0

>  <fr_prisulfonamd>  (93) 
0

>  <fr_pyridine>  (93) 
0

>  <fr_quatN>  (93) 
0

>  <fr_sulfide>  (93) 
0

>  <fr_sulfonamd>  (93) 
0

>  <fr_sulfone>  (93) 
0

>  <fr_term_acetylene>  (93) 
0

>  <fr_tetrazole>  (93) 
0

>  <fr_thiazole>  (93) 
0

>  <fr_thiocyan>  (93) 
0

>  <fr_thiophene>  (93) 
0

>  <fr_unbrch_alkane>  (93) 
0

>  <fr_urea>  (93) 
0

>  <NP_Likeness>  (93) 
0.931308

$$$$
ADP
     RDKit          3D

  0  0  0  0  0  0  0  0  0  0999 V3000
M  V30 BEGIN CTAB
M  V30 COUNTS 39 41 0 0 0
M  V30 BEGIN ATOM
M  V30 1 P -2.754000 11.204000 -13.299000 0
M  V30 2 P -5.284000 10.318000 -13.545000 0 CFG=1
M  V30 3 O -2.904000 12.614000 -13.696000 0
M  V30 4 O -1.603000 11.134000 -12.159000 0 CHG=-1
M  V30 5 O -2.279000 10.262000 -14.502000 0 CHG=-1
M  V30 6 O -6.294000 11.398000 -13.425000 0
M  V30 7 O -4.889000 10.089000 -15.059000 0 CHG=-1
M  V30 8 O -7.030000 4.235000 -13.960000 0
M  V30 9 O -6.075000 6.337000 -15.544000 0
M  V30 10 O -4.066000 10.653000 -12.582000 0
M  V30 11 O -5.992000 8.986000 -12.942000 0
M  V30 12 O -6.683000 6.334000 -11.958000 0
M  V30 13 N -13.159000 8.862000 -11.922000 0
M  V30 14 N -13.019000 6.499000 -11.905000 0
M  V30 15 N -11.028000 5.354000 -12.096000 0
M  V30 16 N -10.115000 8.704000 -12.266000 0
M  V30 17 N -9.019000 6.811000 -12.335000 0
M  V30 18 C -5.062000 7.916000 -12.882000 0
M  V30 19 C -12.337000 5.371000 -11.959000 0
M  V30 20 C -8.931000 8.170000 -12.387000 0
M  V30 21 C -7.722000 5.490000 -13.922000 0 CFG=2
M  V30 22 C -6.734000 6.633000 -14.309000 0 CFG=1
M  V30 23 C -7.937000 5.835000 -12.422000 0 CFG=1
M  V30 24 C -12.428000 7.686000 -11.962000 0
M  V30 25 C -5.804000 6.585000 -13.074000 0 CFG=2
M  V30 26 C -10.348000 6.495000 -12.172000 0
M  V30 27 C -11.029000 7.721000 -12.076000 0
M  V30 28 H -6.678100 4.076200 -14.882500 0
M  V30 29 H -6.676900 5.782200 -16.118400 0
M  V30 30 H -12.689900 9.744000 -11.966500 0
M  V30 31 H -14.155800 8.828900 -11.848600 0
M  V30 32 H -4.606800 7.919000 -11.991600 0
M  V30 33 H -4.380200 8.025400 -13.605300 0
M  V30 34 H -12.829200 4.503000 -11.893900 0
M  V30 35 H -8.080900 8.684000 -12.501500 0
M  V30 36 H -8.566800 5.495500 -14.457100 0
M  V30 37 H -7.209600 7.511100 -14.361700 0
M  V30 38 H -8.182800 5.008900 -11.915000 0
M  V30 39 H -5.147200 5.836800 -13.168200 0
M  V30 END ATOM
M  V30 BEGIN BOND
M  V30 1 2 1 3
M  V30 2 1 1 4
M  V30 3 1 1 5
M  V30 4 1 1 10
M  V30 5 2 2 6
M  V30 6 1 2 7 CFG=3
M  V30 7 1 2 10
M  V30 8 1 2 11
M  V30 9 1 8 21
M  V30 10 1 9 22
M  V30 11 1 11 18
M  V30 12 1 12 23
M  V30 13 1 12 25
M  V30 14 1 13 24
M  V30 15 2 14 19
M  V30 16 1 14 24
M  V30 17 1 15 19
M  V30 18 2 15 26
M  V30 19 2 16 20
M  V30 20 1 16 27
M  V30 21 1 17 20
M  V30 22 1 17 23
M  V30 23 1 17 26
M  V30 24 1 18 25
M  V30 25 1 21 22
M  V30 26 1 21 23
M  V30 27 1 22 25
M  V30 28 2 24 27
M  V30 29 1 26 27
M  V30 30 1 25 39 CFG=3
M  V30 31 1 23 38 CFG=1
M  V30 32 1 22 37 CFG=3
M  V30 33 1 8 28
M  V30 34 1 9 29
M  V30 35 1 13 30
M  V30 36 1 13 31
M  V30 37 1 18 32
M  V30 38 1 18 33
M  V30 39 1 19 34
M  V30 40 1 20 35
M  V30 41 1 21 36 CFG=3
M  V30 END BOND
M  V30 END CTAB
M  END
>  <Ligand_Instance>  (94) 
4IAZ_ADP_A_403

>  <Dataset>  (94) 
PDB

>  <PDB_ID>  (94) 
4IAZ

>  <Chain>  (94) 
A

>  <Resi>  (94) 
403

>  <Num_Resolved_Atoms>  (94) 
27

>  <Num_H_Atoms_ProtBoundConf>  (94) 
12

>  <Pocket>  (94) 
A

>  <Name>  (94) 
ADENOSINE-5'-DIPHOSPHATE

>  <Num_Not_Resolved_Atoms>  (94) 
0

>  <ATP_Site>  (94) 
True

>  <Peripheral>  (94) 
False

>  <Standardized_SMILES>  (94) 
[H]O[C@@]1([H])[C@@]([H])(O[H])[C@]([H])(N2C([H])=NC3=C2N=C([H])N=C3N([H])[H])O[C@]1([H])C([H])([H])O[P@](=O)([O-])OP(=O)([O-])[O-]

>  <2D_Mol_H>  (94) 
<rdkit.Chem.rdchem.Mol object at 0x77059d9e7370>

>  <MW>  (94) 
424.179

>  <HBA>  (94) 
15

>  <HBD>  (94) 
3

>  <LogP>  (94) 
-3.642

>  <NRB>  (94) 
9

>  <TPSA>  (94) 
241.09

>  <Num_Heavy_Atoms>  (94) 
27

>  <Ro5>  (94) 
[True, False, True, True, True, False]

>  <Ro5_Fulfilled>  (94) 
False

>  <Ro3>  (94) 
[False, False, True, True]

>  <Ro3_Fulfilled>  (94) 
False

>  <Fsp3>  (94) 
0.5

>  <Fsp3_0.42>  (94) 
True

>  <Fsp3_0.45>  (94) 
True

>  <Stereogenic_Carbons>  (94) 
4

>  <C_Atoms>  (94) 
10

>  <FCStereo>  (94) 
0.4

>  <SPS>  (94) 
769

>  <nSPS>  (94) 
28.481481

>  <PBF>  (94) 
0.716961

>  <PBF_0.6>  (94) 
True

>  <nPBF>  (94) 
0.026554

>  <nPBF_0.016>  (94) 
True

>  <PMI1>  (94) 
1462.801851

>  <PMI2>  (94) 
6210.446685

>  <PMI3>  (94) 
7133.390266

>  <NPR1>  (94) 
0.205064

>  <NPR2>  (94) 
0.870616

>  <Sum_NPR>  (94) 
1.07568

>  <Sum_NPR_1.07>  (94) 
True

>  <Sum_NPR_1.2>  (94) 
False

>  <MaxAbsEStateIndex>  (94) 
11.278955

>  <MaxEStateIndex>  (94) 
11.278955

>  <MinAbsEStateIndex>  (94) 
0.065524

>  <MinEStateIndex>  (94) 
-5.851432

>  <qed>  (94) 
0.378904

>  <MolWt>  (94) 
424.179

>  <HeavyAtomMolWt>  (94) 
412.083

>  <ExactMolWt>  (94) 
424.007586

>  <NumValenceElectrons>  (94) 
150

>  <NumRadicalElectrons>  (94) 
0

>  <MaxPartialCharge>  (94) 
0.271368

>  <MinPartialCharge>  (94) 
-0.789509

>  <MaxAbsPartialCharge>  (94) 
0.789509

>  <MinAbsPartialCharge>  (94) 
0.271368

>  <FpDensityMorgan1>  (94) 
1.222222

>  <FpDensityMorgan2>  (94) 
1.925926

>  <FpDensityMorgan3>  (94) 
2.592593

>  <BCUT2D_MWHI>  (94) 
31.27025

>  <BCUT2D_MWLOW>  (94) 
10.128388

>  <BCUT2D_CHGHI>  (94) 
2.444842

>  <BCUT2D_CHGLO>  (94) 
-2.350424

>  <BCUT2D_LOGPHI>  (94) 
2.503664

>  <BCUT2D_LOGPLOW>  (94) 
-2.337741

>  <BCUT2D_MRHI>  (94) 
7.580921

>  <BCUT2D_MRLOW>  (94) 
-0.339423

>  <AvgIpc>  (94) 
3.072773

>  <BalabanJ>  (94) 
1.748652

>  <BertzCT>  (94) 
932.232873

>  <Chi0>  (94) 
19.982763

>  <Chi0n>  (94) 
13.092254

>  <Chi0v>  (94) 
14.881108

>  <Chi1>  (94) 
12.483782

>  <Chi1n>  (94) 
7.119416

>  <Chi1v>  (94) 
10.040603

>  <Chi2n>  (94) 
5.401088

>  <Chi2v>  (94) 
8.101339

>  <Chi3n>  (94) 
3.595354

>  <Chi3v>  (94) 
5.660653

>  <Chi4n>  (94) 
2.463726

>  <Chi4v>  (94) 
3.961582

>  <HallKierAlpha>  (94) 
-1.51

>  <Ipc>  (94) 
807942.564302

>  <Kappa1>  (94) 
20.230095

>  <Kappa2>  (94) 
7.144568

>  <Kappa3>  (94) 
4.329348

>  <LabuteASA>  (94) 
149.760939

>  <PEOE_VSA1>  (94) 
44.452615

>  <PEOE_VSA10>  (94) 
30.15592

>  <PEOE_VSA11>  (94) 
17.692941

>  <PEOE_VSA12>  (94) 
0.0

>  <PEOE_VSA13>  (94) 
7.822697

>  <PEOE_VSA14>  (94) 
0.0

>  <PEOE_VSA2>  (94) 
13.442779

>  <PEOE_VSA3>  (94) 
14.951936

>  <PEOE_VSA4>  (94) 
0.0

>  <PEOE_VSA5>  (94) 
0.0

>  <PEOE_VSA6>  (94) 
0.0

>  <PEOE_VSA7>  (94) 
0.0

>  <PEOE_VSA8>  (94) 
0.0

>  <PEOE_VSA9>  (94) 
20.756899

>  <SMR_VSA1>  (94) 
47.594628

>  <SMR_VSA10>  (94) 
32.627135

>  <SMR_VSA2>  (94) 
0.0

>  <SMR_VSA3>  (94) 
19.519035

>  <SMR_VSA4>  (94) 
0.0

>  <SMR_VSA5>  (94) 
24.5398

>  <SMR_VSA6>  (94) 
12.340549

>  <SMR_VSA7>  (94) 
12.65464

>  <SMR_VSA8>  (94) 
0.0

>  <SMR_VSA9>  (94) 
0.0

>  <SlogP_VSA1>  (94) 
20.413902

>  <SlogP_VSA10>  (94) 
5.817863

>  <SlogP_VSA11>  (94) 
0.0

>  <SlogP_VSA12>  (94) 
15.645394

>  <SlogP_VSA2>  (94) 
54.650871

>  <SlogP_VSA3>  (94) 
22.701338

>  <SlogP_VSA4>  (94) 
0.0

>  <SlogP_VSA5>  (94) 
6.227901

>  <SlogP_VSA6>  (94) 
12.65464

>  <SlogP_VSA7>  (94) 
0.0

>  <SlogP_VSA8>  (94) 
11.163878

>  <SlogP_VSA9>  (94) 
0.0

>  <EState_VSA1>  (94) 
46.792077

>  <EState_VSA10>  (94) 
34.023386

>  <EState_VSA11>  (94) 
0.0

>  <EState_VSA2>  (94) 
16.981741

>  <EState_VSA3>  (94) 
0.0

>  <EState_VSA4>  (94) 
6.32732

>  <EState_VSA5>  (94) 
10.89442

>  <EState_VSA6>  (94) 
0.0

>  <EState_VSA7>  (94) 
0.0

>  <EState_VSA8>  (94) 
23.786314

>  <EState_VSA9>  (94) 
10.47053

>  <VSA_EState1>  (94) 
35.749107

>  <VSA_EState10>  (94) 
0.0

>  <VSA_EState2>  (94) 
43.665953

>  <VSA_EState3>  (94) 
20.193372

>  <VSA_EState4>  (94) 
6.037581

>  <VSA_EState5>  (94) 
0.065524

>  <VSA_EState6>  (94) 
0.0

>  <VSA_EState7>  (94) 
-3.478964

>  <VSA_EState8>  (94) 
-0.931293

>  <VSA_EState9>  (94) 
-11.356836

>  <FractionCSP3>  (94) 
0.5

>  <HeavyAtomCount>  (94) 
27

>  <NHOHCount>  (94) 
4

>  <NOCount>  (94) 
15

>  <NumAliphaticCarbocycles>  (94) 
0

>  <NumAliphaticHeterocycles>  (94) 
1

>  <NumAliphaticRings>  (94) 
1

>  <NumAromaticCarbocycles>  (94) 
0

>  <NumAromaticHeterocycles>  (94) 
2

>  <NumAromaticRings>  (94) 
2

>  <NumHAcceptors>  (94) 
15

>  <NumHDonors>  (94) 
3

>  <NumHeteroatoms>  (94) 
17

>  <NumRotatableBonds>  (94) 
6

>  <NumSaturatedCarbocycles>  (94) 
0

>  <NumSaturatedHeterocycles>  (94) 
1

>  <NumSaturatedRings>  (94) 
1

>  <RingCount>  (94) 
3

>  <MolLogP>  (94) 
-3.642

>  <MolMR>  (94) 
77.909

>  <fr_Al_COO>  (94) 
0

>  <fr_Al_OH>  (94) 
2

>  <fr_Al_OH_noTert>  (94) 
2

>  <fr_ArN>  (94) 
1

>  <fr_Ar_COO>  (94) 
0

>  <fr_Ar_N>  (94) 
4

>  <fr_Ar_NH>  (94) 
0

>  <fr_Ar_OH>  (94) 
0

>  <fr_COO>  (94) 
0

>  <fr_COO2>  (94) 
0

>  <fr_C_O>  (94) 
0

>  <fr_C_O_noCOO>  (94) 
0

>  <fr_C_S>  (94) 
0

>  <fr_HOCCN>  (94) 
0

>  <fr_Imine>  (94) 
0

>  <fr_NH0>  (94) 
4

>  <fr_NH1>  (94) 
0

>  <fr_NH2>  (94) 
1

>  <fr_N_O>  (94) 
0

>  <fr_Ndealkylation1>  (94) 
0

>  <fr_Ndealkylation2>  (94) 
0

>  <fr_Nhpyrrole>  (94) 
0

>  <fr_SH>  (94) 
0

>  <fr_aldehyde>  (94) 
0

>  <fr_alkyl_carbamate>  (94) 
0

>  <fr_alkyl_halide>  (94) 
0

>  <fr_allylic_oxid>  (94) 
0

>  <fr_amide>  (94) 
0

>  <fr_amidine>  (94) 
0

>  <fr_aniline>  (94) 
1

>  <fr_aryl_methyl>  (94) 
0

>  <fr_azide>  (94) 
0

>  <fr_azo>  (94) 
0

>  <fr_barbitur>  (94) 
0

>  <fr_benzene>  (94) 
0

>  <fr_benzodiazepine>  (94) 
0

>  <fr_bicyclic>  (94) 
1

>  <fr_diazo>  (94) 
0

>  <fr_dihydropyridine>  (94) 
0

>  <fr_epoxide>  (94) 
0

>  <fr_ester>  (94) 
0

>  <fr_ether>  (94) 
1

>  <fr_furan>  (94) 
0

>  <fr_guanido>  (94) 
0

>  <fr_halogen>  (94) 
0

>  <fr_hdrzine>  (94) 
0

>  <fr_hdrzone>  (94) 
0

>  <fr_imidazole>  (94) 
1

>  <fr_imide>  (94) 
0

>  <fr_isocyan>  (94) 
0

>  <fr_isothiocyan>  (94) 
0

>  <fr_ketone>  (94) 
0

>  <fr_ketone_Topliss>  (94) 
0

>  <fr_lactam>  (94) 
0

>  <fr_lactone>  (94) 
0

>  <fr_methoxy>  (94) 
0

>  <fr_morpholine>  (94) 
0

>  <fr_nitrile>  (94) 
0

>  <fr_nitro>  (94) 
0

>  <fr_nitro_arom>  (94) 
0

>  <fr_nitro_arom_nonortho>  (94) 
0

>  <fr_nitroso>  (94) 
0

>  <fr_oxazole>  (94) 
0

>  <fr_oxime>  (94) 
0

>  <fr_para_hydroxylation>  (94) 
0

>  <fr_phenol>  (94) 
0

>  <fr_phenol_noOrthoHbond>  (94) 
0

>  <fr_phos_acid>  (94) 
2

>  <fr_phos_ester>  (94) 
1

>  <fr_piperdine>  (94) 
0

>  <fr_piperzine>  (94) 
0

>  <fr_priamide>  (94) 
0

>  <fr_prisulfonamd>  (94) 
0

>  <fr_pyridine>  (94) 
0

>  <fr_quatN>  (94) 
0

>  <fr_sulfide>  (94) 
0

>  <fr_sulfonamd>  (94) 
0

>  <fr_sulfone>  (94) 
0

>  <fr_term_acetylene>  (94) 
0

>  <fr_tetrazole>  (94) 
0

>  <fr_thiazole>  (94) 
0

>  <fr_thiocyan>  (94) 
0

>  <fr_thiophene>  (94) 
0

>  <fr_unbrch_alkane>  (94) 
0

>  <fr_urea>  (94) 
0

>  <NP_Likeness>  (94) 
0.931308

$$$$
ADP
     RDKit          3D

  0  0  0  0  0  0  0  0  0  0999 V3000
M  V30 BEGIN CTAB
M  V30 COUNTS 39 41 0 0 0
M  V30 BEGIN ATOM
M  V30 1 P -3.017000 11.398000 -13.465000 0
M  V30 2 P -5.609000 10.575000 -13.797000 0 CFG=1
M  V30 3 O -3.041000 12.873000 -13.728000 0
M  V30 4 O -1.873000 11.143000 -12.348000 0 CHG=-1
M  V30 5 O -2.619000 10.616000 -14.814000 0 CHG=-1
M  V30 6 O -6.709000 11.564000 -13.674000 0
M  V30 7 O -5.162000 10.347000 -15.328000 0 CHG=-1
M  V30 8 O -7.019000 4.416000 -14.451000 0
M  V30 9 O -5.898000 6.485000 -15.875000 0
M  V30 10 O -4.400000 10.927000 -12.853000 0
M  V30 11 O -6.276000 9.188000 -13.249000 0
M  V30 12 O -6.909000 6.559000 -12.439000 0
M  V30 13 N -13.403000 8.897000 -12.342000 0
M  V30 14 N -13.196000 6.549000 -12.271000 0
M  V30 15 N -11.187000 5.433000 -12.515000 0
M  V30 16 N -10.377000 8.784000 -12.916000 0
M  V30 17 N -9.234000 6.917000 -12.935000 0
M  V30 18 C -5.265000 8.183000 -13.271000 0
M  V30 19 C -12.482000 5.441000 -12.312000 0
M  V30 20 C -9.183000 8.278000 -13.038000 0
M  V30 21 C -7.754000 5.657000 -14.474000 0 CFG=2
M  V30 22 C -6.752000 6.814000 -14.783000 0 CFG=1
M  V30 23 C -8.095000 6.008000 -13.003000 0 CFG=1
M  V30 24 C -12.614000 7.753000 -12.284000 0
M  V30 25 C -5.929000 6.809000 -13.463000 0 CFG=2
M  V30 26 C -10.535000 6.582000 -12.670000 0
M  V30 27 C -11.253000 7.794000 -12.614000 0
M  V30 28 H -6.587500 4.267600 -15.340800 0
M  V30 29 H -6.319600 6.786000 -16.730300 0
M  V30 30 H -12.974000 9.800300 -12.352000 0
M  V30 31 H -14.399200 8.816200 -12.373700 0
M  V30 32 H -4.762000 8.194500 -12.406800 0
M  V30 33 H -4.633800 8.358900 -14.026400 0
M  V30 34 H -12.950000 4.566800 -12.182300 0
M  V30 35 H -8.349000 8.809500 -13.185800 0
M  V30 36 H -8.550100 5.641900 -15.079000 0
M  V30 37 H -7.221400 7.685300 -14.926300 0
M  V30 38 H -8.324000 5.165900 -12.514600 0
M  V30 39 H -5.241100 6.083300 -13.478300 0
M  V30 END ATOM
M  V30 BEGIN BOND
M  V30 1 2 1 3
M  V30 2 1 1 4
M  V30 3 1 1 5
M  V30 4 1 1 10
M  V30 5 2 2 6
M  V30 6 1 2 7 CFG=3
M  V30 7 1 2 10
M  V30 8 1 2 11
M  V30 9 1 8 21
M  V30 10 1 9 22
M  V30 11 1 11 18
M  V30 12 1 12 23
M  V30 13 1 12 25
M  V30 14 1 13 24
M  V30 15 2 14 19
M  V30 16 1 14 24
M  V30 17 1 15 19
M  V30 18 2 15 26
M  V30 19 2 16 20
M  V30 20 1 16 27
M  V30 21 1 17 20
M  V30 22 1 17 23
M  V30 23 1 17 26
M  V30 24 1 18 25
M  V30 25 1 21 22
M  V30 26 1 21 23
M  V30 27 1 22 25
M  V30 28 2 24 27
M  V30 29 1 26 27
M  V30 30 1 25 39 CFG=3
M  V30 31 1 23 38 CFG=1
M  V30 32 1 22 37 CFG=3
M  V30 33 1 8 28
M  V30 34 1 9 29
M  V30 35 1 13 30
M  V30 36 1 13 31
M  V30 37 1 18 32
M  V30 38 1 18 33
M  V30 39 1 19 34
M  V30 40 1 20 35
M  V30 41 1 21 36 CFG=3
M  V30 END BOND
M  V30 END CTAB
M  END
>  <Ligand_Instance>  (95) 
4IB0_ADP_A_403

>  <Dataset>  (95) 
PDB

>  <PDB_ID>  (95) 
4IB0

>  <Chain>  (95) 
A

>  <Resi>  (95) 
403

>  <Num_Resolved_Atoms>  (95) 
27

>  <Num_H_Atoms_ProtBoundConf>  (95) 
12

>  <Pocket>  (95) 
A

>  <Name>  (95) 
ADENOSINE-5'-DIPHOSPHATE

>  <Num_Not_Resolved_Atoms>  (95) 
0

>  <ATP_Site>  (95) 
True

>  <Peripheral>  (95) 
False

>  <Standardized_SMILES>  (95) 
[H]O[C@@]1([H])[C@@]([H])(O[H])[C@]([H])(N2C([H])=NC3=C2N=C([H])N=C3N([H])[H])O[C@]1([H])C([H])([H])O[P@](=O)([O-])OP(=O)([O-])[O-]

>  <2D_Mol_H>  (95) 
<rdkit.Chem.rdchem.Mol object at 0x77059d9e7450>

>  <MW>  (95) 
424.179

>  <HBA>  (95) 
15

>  <HBD>  (95) 
3

>  <LogP>  (95) 
-3.642

>  <NRB>  (95) 
9

>  <TPSA>  (95) 
241.09

>  <Num_Heavy_Atoms>  (95) 
27

>  <Ro5>  (95) 
[True, False, True, True, True, False]

>  <Ro5_Fulfilled>  (95) 
False

>  <Ro3>  (95) 
[False, False, True, True]

>  <Ro3_Fulfilled>  (95) 
False

>  <Fsp3>  (95) 
0.5

>  <Fsp3_0.42>  (95) 
True

>  <Fsp3_0.45>  (95) 
True

>  <Stereogenic_Carbons>  (95) 
4

>  <C_Atoms>  (95) 
10

>  <FCStereo>  (95) 
0.4

>  <SPS>  (95) 
769

>  <nSPS>  (95) 
28.481481

>  <PBF>  (95) 
0.717136

>  <PBF_0.6>  (95) 
True

>  <nPBF>  (95) 
0.026561

>  <nPBF_0.016>  (95) 
True

>  <PMI1>  (95) 
1495.345407

>  <PMI2>  (95) 
6136.348273

>  <PMI3>  (95) 
7107.746153

>  <NPR1>  (95) 
0.210383

>  <NPR2>  (95) 
0.863333

>  <Sum_NPR>  (95) 
1.073715

>  <Sum_NPR_1.07>  (95) 
True

>  <Sum_NPR_1.2>  (95) 
False

>  <MaxAbsEStateIndex>  (95) 
11.278955

>  <MaxEStateIndex>  (95) 
11.278955

>  <MinAbsEStateIndex>  (95) 
0.065524

>  <MinEStateIndex>  (95) 
-5.851432

>  <qed>  (95) 
0.378904

>  <MolWt>  (95) 
424.179

>  <HeavyAtomMolWt>  (95) 
412.083

>  <ExactMolWt>  (95) 
424.007586

>  <NumValenceElectrons>  (95) 
150

>  <NumRadicalElectrons>  (95) 
0

>  <MaxPartialCharge>  (95) 
0.271368

>  <MinPartialCharge>  (95) 
-0.789509

>  <MaxAbsPartialCharge>  (95) 
0.789509

>  <MinAbsPartialCharge>  (95) 
0.271368

>  <FpDensityMorgan1>  (95) 
1.222222

>  <FpDensityMorgan2>  (95) 
1.925926

>  <FpDensityMorgan3>  (95) 
2.592593

>  <BCUT2D_MWHI>  (95) 
31.27025

>  <BCUT2D_MWLOW>  (95) 
10.128388

>  <BCUT2D_CHGHI>  (95) 
2.444842

>  <BCUT2D_CHGLO>  (95) 
-2.350424

>  <BCUT2D_LOGPHI>  (95) 
2.503664

>  <BCUT2D_LOGPLOW>  (95) 
-2.337741

>  <BCUT2D_MRHI>  (95) 
7.580921

>  <BCUT2D_MRLOW>  (95) 
-0.339423

>  <AvgIpc>  (95) 
3.072773

>  <BalabanJ>  (95) 
1.748652

>  <BertzCT>  (95) 
932.232873

>  <Chi0>  (95) 
19.982763

>  <Chi0n>  (95) 
13.092254

>  <Chi0v>  (95) 
14.881108

>  <Chi1>  (95) 
12.483782

>  <Chi1n>  (95) 
7.119416

>  <Chi1v>  (95) 
10.040603

>  <Chi2n>  (95) 
5.401088

>  <Chi2v>  (95) 
8.101339

>  <Chi3n>  (95) 
3.595354

>  <Chi3v>  (95) 
5.660653

>  <Chi4n>  (95) 
2.463726

>  <Chi4v>  (95) 
3.961582

>  <HallKierAlpha>  (95) 
-1.51

>  <Ipc>  (95) 
807942.564302

>  <Kappa1>  (95) 
20.230095

>  <Kappa2>  (95) 
7.144568

>  <Kappa3>  (95) 
4.329348

>  <LabuteASA>  (95) 
149.760939

>  <PEOE_VSA1>  (95) 
44.452615

>  <PEOE_VSA10>  (95) 
30.15592

>  <PEOE_VSA11>  (95) 
17.692941

>  <PEOE_VSA12>  (95) 
0.0

>  <PEOE_VSA13>  (95) 
7.822697

>  <PEOE_VSA14>  (95) 
0.0

>  <PEOE_VSA2>  (95) 
13.442779

>  <PEOE_VSA3>  (95) 
14.951936

>  <PEOE_VSA4>  (95) 
0.0

>  <PEOE_VSA5>  (95) 
0.0

>  <PEOE_VSA6>  (95) 
0.0

>  <PEOE_VSA7>  (95) 
0.0

>  <PEOE_VSA8>  (95) 
0.0

>  <PEOE_VSA9>  (95) 
20.756899

>  <SMR_VSA1>  (95) 
47.594628

>  <SMR_VSA10>  (95) 
32.627135

>  <SMR_VSA2>  (95) 
0.0

>  <SMR_VSA3>  (95) 
19.519035

>  <SMR_VSA4>  (95) 
0.0

>  <SMR_VSA5>  (95) 
24.5398

>  <SMR_VSA6>  (95) 
12.340549

>  <SMR_VSA7>  (95) 
12.65464

>  <SMR_VSA8>  (95) 
0.0

>  <SMR_VSA9>  (95) 
0.0

>  <SlogP_VSA1>  (95) 
20.413902

>  <SlogP_VSA10>  (95) 
5.817863

>  <SlogP_VSA11>  (95) 
0.0

>  <SlogP_VSA12>  (95) 
15.645394

>  <SlogP_VSA2>  (95) 
54.650871

>  <SlogP_VSA3>  (95) 
22.701338

>  <SlogP_VSA4>  (95) 
0.0

>  <SlogP_VSA5>  (95) 
6.227901

>  <SlogP_VSA6>  (95) 
12.65464

>  <SlogP_VSA7>  (95) 
0.0

>  <SlogP_VSA8>  (95) 
11.163878

>  <SlogP_VSA9>  (95) 
0.0

>  <EState_VSA1>  (95) 
46.792077

>  <EState_VSA10>  (95) 
34.023386

>  <EState_VSA11>  (95) 
0.0

>  <EState_VSA2>  (95) 
16.981741

>  <EState_VSA3>  (95) 
0.0

>  <EState_VSA4>  (95) 
6.32732

>  <EState_VSA5>  (95) 
10.89442

>  <EState_VSA6>  (95) 
0.0

>  <EState_VSA7>  (95) 
0.0

>  <EState_VSA8>  (95) 
23.786314

>  <EState_VSA9>  (95) 
10.47053

>  <VSA_EState1>  (95) 
35.749107

>  <VSA_EState10>  (95) 
0.0

>  <VSA_EState2>  (95) 
43.665953

>  <VSA_EState3>  (95) 
20.193372

>  <VSA_EState4>  (95) 
6.037581

>  <VSA_EState5>  (95) 
0.065524

>  <VSA_EState6>  (95) 
0.0

>  <VSA_EState7>  (95) 
-3.478964

>  <VSA_EState8>  (95) 
-0.931293

>  <VSA_EState9>  (95) 
-11.356836

>  <FractionCSP3>  (95) 
0.5

>  <HeavyAtomCount>  (95) 
27

>  <NHOHCount>  (95) 
4

>  <NOCount>  (95) 
15

>  <NumAliphaticCarbocycles>  (95) 
0

>  <NumAliphaticHeterocycles>  (95) 
1

>  <NumAliphaticRings>  (95) 
1

>  <NumAromaticCarbocycles>  (95) 
0

>  <NumAromaticHeterocycles>  (95) 
2

>  <NumAromaticRings>  (95) 
2

>  <NumHAcceptors>  (95) 
15

>  <NumHDonors>  (95) 
3

>  <NumHeteroatoms>  (95) 
17

>  <NumRotatableBonds>  (95) 
6

>  <NumSaturatedCarbocycles>  (95) 
0

>  <NumSaturatedHeterocycles>  (95) 
1

>  <NumSaturatedRings>  (95) 
1

>  <RingCount>  (95) 
3

>  <MolLogP>  (95) 
-3.642

>  <MolMR>  (95) 
77.909

>  <fr_Al_COO>  (95) 
0

>  <fr_Al_OH>  (95) 
2

>  <fr_Al_OH_noTert>  (95) 
2

>  <fr_ArN>  (95) 
1

>  <fr_Ar_COO>  (95) 
0

>  <fr_Ar_N>  (95) 
4

>  <fr_Ar_NH>  (95) 
0

>  <fr_Ar_OH>  (95) 
0

>  <fr_COO>  (95) 
0

>  <fr_COO2>  (95) 
0

>  <fr_C_O>  (95) 
0

>  <fr_C_O_noCOO>  (95) 
0

>  <fr_C_S>  (95) 
0

>  <fr_HOCCN>  (95) 
0

>  <fr_Imine>  (95) 
0

>  <fr_NH0>  (95) 
4

>  <fr_NH1>  (95) 
0

>  <fr_NH2>  (95) 
1

>  <fr_N_O>  (95) 
0

>  <fr_Ndealkylation1>  (95) 
0

>  <fr_Ndealkylation2>  (95) 
0

>  <fr_Nhpyrrole>  (95) 
0

>  <fr_SH>  (95) 
0

>  <fr_aldehyde>  (95) 
0

>  <fr_alkyl_carbamate>  (95) 
0

>  <fr_alkyl_halide>  (95) 
0

>  <fr_allylic_oxid>  (95) 
0

>  <fr_amide>  (95) 
0

>  <fr_amidine>  (95) 
0

>  <fr_aniline>  (95) 
1

>  <fr_aryl_methyl>  (95) 
0

>  <fr_azide>  (95) 
0

>  <fr_azo>  (95) 
0

>  <fr_barbitur>  (95) 
0

>  <fr_benzene>  (95) 
0

>  <fr_benzodiazepine>  (95) 
0

>  <fr_bicyclic>  (95) 
1

>  <fr_diazo>  (95) 
0

>  <fr_dihydropyridine>  (95) 
0

>  <fr_epoxide>  (95) 
0

>  <fr_ester>  (95) 
0

>  <fr_ether>  (95) 
1

>  <fr_furan>  (95) 
0

>  <fr_guanido>  (95) 
0

>  <fr_halogen>  (95) 
0

>  <fr_hdrzine>  (95) 
0

>  <fr_hdrzone>  (95) 
0

>  <fr_imidazole>  (95) 
1

>  <fr_imide>  (95) 
0

>  <fr_isocyan>  (95) 
0

>  <fr_isothiocyan>  (95) 
0

>  <fr_ketone>  (95) 
0

>  <fr_ketone_Topliss>  (95) 
0

>  <fr_lactam>  (95) 
0

>  <fr_lactone>  (95) 
0

>  <fr_methoxy>  (95) 
0

>  <fr_morpholine>  (95) 
0

>  <fr_nitrile>  (95) 
0

>  <fr_nitro>  (95) 
0

>  <fr_nitro_arom>  (95) 
0

>  <fr_nitro_arom_nonortho>  (95) 
0

>  <fr_nitroso>  (95) 
0

>  <fr_oxazole>  (95) 
0

>  <fr_oxime>  (95) 
0

>  <fr_para_hydroxylation>  (95) 
0

>  <fr_phenol>  (95) 
0

>  <fr_phenol_noOrthoHbond>  (95) 
0

>  <fr_phos_acid>  (95) 
2

>  <fr_phos_ester>  (95) 
1

>  <fr_piperdine>  (95) 
0

>  <fr_piperzine>  (95) 
0

>  <fr_priamide>  (95) 
0

>  <fr_prisulfonamd>  (95) 
0

>  <fr_pyridine>  (95) 
0

>  <fr_quatN>  (95) 
0

>  <fr_sulfide>  (95) 
0

>  <fr_sulfonamd>  (95) 
0

>  <fr_sulfone>  (95) 
0

>  <fr_term_acetylene>  (95) 
0

>  <fr_tetrazole>  (95) 
0

>  <fr_thiazole>  (95) 
0

>  <fr_thiocyan>  (95) 
0

>  <fr_thiophene>  (95) 
0

>  <fr_unbrch_alkane>  (95) 
0

>  <fr_urea>  (95) 
0

>  <NP_Likeness>  (95) 
0.931308

$$$$
ADP
     RDKit          3D

  0  0  0  0  0  0  0  0  0  0999 V3000
M  V30 BEGIN CTAB
M  V30 COUNTS 39 41 0 0 0
M  V30 BEGIN ATOM
M  V30 1 P -2.900000 11.440000 -13.491000 0
M  V30 2 P -5.506000 10.531000 -13.793000 0 CFG=1
M  V30 3 O -2.951000 12.913000 -13.765000 0
M  V30 4 O -1.818000 11.188000 -12.298000 0 CHG=-1
M  V30 5 O -2.432000 10.572000 -14.742000 0 CHG=-1
M  V30 6 O -6.515000 11.633000 -13.656000 0
M  V30 7 O -5.171000 10.268000 -15.339000 0 CHG=-1
M  V30 8 O -7.128000 4.414000 -14.405000 0
M  V30 9 O -5.915000 6.434000 -15.834000 0
M  V30 10 O -4.269000 10.903000 -12.893000 0
M  V30 11 O -6.174000 9.201000 -13.178000 0
M  V30 12 O -6.915000 6.620000 -12.369000 0
M  V30 13 N -13.365000 8.964000 -12.215000 0
M  V30 14 N -13.173000 6.614000 -12.148000 0
M  V30 15 N -11.165000 5.519000 -12.416000 0
M  V30 16 N -10.321000 8.875000 -12.743000 0
M  V30 17 N -9.202000 6.987000 -12.830000 0
M  V30 18 C -5.199000 8.160000 -13.214000 0
M  V30 19 C -12.468000 5.504000 -12.204000 0
M  V30 20 C -9.134000 8.345000 -12.916000 0
M  V30 21 C -7.781000 5.698000 -14.392000 0 CFG=2
M  V30 22 C -6.754000 6.820000 -14.733000 0 CFG=1
M  V30 23 C -8.104000 6.020000 -12.913000 0 CFG=1
M  V30 24 C -12.594000 7.808000 -12.241000 0
M  V30 25 C -5.946000 6.843000 -13.411000 0 CFG=2
M  V30 26 C -10.497000 6.661000 -12.508000 0
M  V30 27 C -11.218000 7.869000 -12.519000 0
M  V30 28 H -6.744000 4.244500 -15.312700 0
M  V30 29 H -6.481100 6.262100 -16.640200 0
M  V30 30 H -12.925800 9.859600 -12.285200 0
M  V30 31 H -14.359000 8.900200 -12.126100 0
M  V30 32 H -4.689400 8.138800 -12.353800 0
M  V30 33 H -4.565600 8.310800 -13.973000 0
M  V30 34 H -12.931500 4.626200 -12.082800 0
M  V30 35 H -8.296800 8.864500 -13.087000 0
M  V30 36 H -8.590600 5.725000 -14.978300 0
M  V30 37 H -7.206900 7.695100 -14.903600 0
M  V30 38 H -8.334500 5.184300 -12.414500 0
M  V30 39 H -5.288400 6.089700 -13.414800 0
M  V30 END ATOM
M  V30 BEGIN BOND
M  V30 1 2 1 3
M  V30 2 1 1 4
M  V30 3 1 1 5
M  V30 4 1 1 10
M  V30 5 2 2 6
M  V30 6 1 2 7 CFG=3
M  V30 7 1 2 10
M  V30 8 1 2 11
M  V30 9 1 8 21
M  V30 10 1 9 22
M  V30 11 1 11 18
M  V30 12 1 12 23
M  V30 13 1 12 25
M  V30 14 1 13 24
M  V30 15 2 14 19
M  V30 16 1 14 24
M  V30 17 1 15 19
M  V30 18 2 15 26
M  V30 19 2 16 20
M  V30 20 1 16 27
M  V30 21 1 17 20
M  V30 22 1 17 23
M  V30 23 1 17 26
M  V30 24 1 18 25
M  V30 25 1 21 22
M  V30 26 1 21 23
M  V30 27 1 22 25
M  V30 28 2 24 27
M  V30 29 1 26 27
M  V30 30 1 25 39 CFG=3
M  V30 31 1 23 38 CFG=1
M  V30 32 1 22 37 CFG=3
M  V30 33 1 8 28
M  V30 34 1 9 29
M  V30 35 1 13 30
M  V30 36 1 13 31
M  V30 37 1 18 32
M  V30 38 1 18 33
M  V30 39 1 19 34
M  V30 40 1 20 35
M  V30 41 1 21 36 CFG=3
M  V30 END BOND
M  V30 END CTAB
M  END
>  <Ligand_Instance>  (96) 
4IB1_ADP_A_403

>  <Dataset>  (96) 
PDB

>  <PDB_ID>  (96) 
4IB1

>  <Chain>  (96) 
A

>  <Resi>  (96) 
403

>  <Num_Resolved_Atoms>  (96) 
27

>  <Num_H_Atoms_ProtBoundConf>  (96) 
12

>  <Pocket>  (96) 
A

>  <Name>  (96) 
ADENOSINE-5'-DIPHOSPHATE

>  <Num_Not_Resolved_Atoms>  (96) 
0

>  <ATP_Site>  (96) 
True

>  <Peripheral>  (96) 
False

>  <Standardized_SMILES>  (96) 
[H]O[C@@]1([H])[C@@]([H])(O[H])[C@]([H])(N2C([H])=NC3=C2N=C([H])N=C3N([H])[H])O[C@]1([H])C([H])([H])O[P@](=O)([O-])OP(=O)([O-])[O-]

>  <2D_Mol_H>  (96) 
<rdkit.Chem.rdchem.Mol object at 0x77059d9e7530>

>  <MW>  (96) 
424.179

>  <HBA>  (96) 
15

>  <HBD>  (96) 
3

>  <LogP>  (96) 
-3.642

>  <NRB>  (96) 
9

>  <TPSA>  (96) 
241.09

>  <Num_Heavy_Atoms>  (96) 
27

>  <Ro5>  (96) 
[True, False, True, True, True, False]

>  <Ro5_Fulfilled>  (96) 
False

>  <Ro3>  (96) 
[False, False, True, True]

>  <Ro3_Fulfilled>  (96) 
False

>  <Fsp3>  (96) 
0.5

>  <Fsp3_0.42>  (96) 
True

>  <Fsp3_0.45>  (96) 
True

>  <Stereogenic_Carbons>  (96) 
4

>  <C_Atoms>  (96) 
10

>  <FCStereo>  (96) 
0.4

>  <SPS>  (96) 
769

>  <nSPS>  (96) 
28.481481

>  <PBF>  (96) 
0.720279

>  <PBF_0.6>  (96) 
True

>  <nPBF>  (96) 
0.026677

>  <nPBF_0.016>  (96) 
True

>  <PMI1>  (96) 
1493.239385

>  <PMI2>  (96) 
6217.145128

>  <PMI3>  (96) 
7184.041818

>  <NPR1>  (96) 
0.207855

>  <NPR2>  (96) 
0.86541

>  <Sum_NPR>  (96) 
1.073266

>  <Sum_NPR_1.07>  (96) 
True

>  <Sum_NPR_1.2>  (96) 
False

>  <MaxAbsEStateIndex>  (96) 
11.278955

>  <MaxEStateIndex>  (96) 
11.278955

>  <MinAbsEStateIndex>  (96) 
0.065524

>  <MinEStateIndex>  (96) 
-5.851432

>  <qed>  (96) 
0.378904

>  <MolWt>  (96) 
424.179

>  <HeavyAtomMolWt>  (96) 
412.083

>  <ExactMolWt>  (96) 
424.007586

>  <NumValenceElectrons>  (96) 
150

>  <NumRadicalElectrons>  (96) 
0

>  <MaxPartialCharge>  (96) 
0.271368

>  <MinPartialCharge>  (96) 
-0.789509

>  <MaxAbsPartialCharge>  (96) 
0.789509

>  <MinAbsPartialCharge>  (96) 
0.271368

>  <FpDensityMorgan1>  (96) 
1.222222

>  <FpDensityMorgan2>  (96) 
1.925926

>  <FpDensityMorgan3>  (96) 
2.592593

>  <BCUT2D_MWHI>  (96) 
31.27025

>  <BCUT2D_MWLOW>  (96) 
10.128388

>  <BCUT2D_CHGHI>  (96) 
2.444842

>  <BCUT2D_CHGLO>  (96) 
-2.350424

>  <BCUT2D_LOGPHI>  (96) 
2.503664

>  <BCUT2D_LOGPLOW>  (96) 
-2.337741

>  <BCUT2D_MRHI>  (96) 
7.580921

>  <BCUT2D_MRLOW>  (96) 
-0.339423

>  <AvgIpc>  (96) 
3.072773

>  <BalabanJ>  (96) 
1.748652

>  <BertzCT>  (96) 
932.232873

>  <Chi0>  (96) 
19.982763

>  <Chi0n>  (96) 
13.092254

>  <Chi0v>  (96) 
14.881108

>  <Chi1>  (96) 
12.483782

>  <Chi1n>  (96) 
7.119416

>  <Chi1v>  (96) 
10.040603

>  <Chi2n>  (96) 
5.401088

>  <Chi2v>  (96) 
8.101339

>  <Chi3n>  (96) 
3.595354

>  <Chi3v>  (96) 
5.660653

>  <Chi4n>  (96) 
2.463726

>  <Chi4v>  (96) 
3.961582

>  <HallKierAlpha>  (96) 
-1.51

>  <Ipc>  (96) 
807942.564302

>  <Kappa1>  (96) 
20.230095

>  <Kappa2>  (96) 
7.144568

>  <Kappa3>  (96) 
4.329348

>  <LabuteASA>  (96) 
149.760939

>  <PEOE_VSA1>  (96) 
44.452615

>  <PEOE_VSA10>  (96) 
30.15592

>  <PEOE_VSA11>  (96) 
17.692941

>  <PEOE_VSA12>  (96) 
0.0

>  <PEOE_VSA13>  (96) 
7.822697

>  <PEOE_VSA14>  (96) 
0.0

>  <PEOE_VSA2>  (96) 
13.442779

>  <PEOE_VSA3>  (96) 
14.951936

>  <PEOE_VSA4>  (96) 
0.0

>  <PEOE_VSA5>  (96) 
0.0

>  <PEOE_VSA6>  (96) 
0.0

>  <PEOE_VSA7>  (96) 
0.0

>  <PEOE_VSA8>  (96) 
0.0

>  <PEOE_VSA9>  (96) 
20.756899

>  <SMR_VSA1>  (96) 
47.594628

>  <SMR_VSA10>  (96) 
32.627135

>  <SMR_VSA2>  (96) 
0.0

>  <SMR_VSA3>  (96) 
19.519035

>  <SMR_VSA4>  (96) 
0.0

>  <SMR_VSA5>  (96) 
24.5398

>  <SMR_VSA6>  (96) 
12.340549

>  <SMR_VSA7>  (96) 
12.65464

>  <SMR_VSA8>  (96) 
0.0

>  <SMR_VSA9>  (96) 
0.0

>  <SlogP_VSA1>  (96) 
20.413902

>  <SlogP_VSA10>  (96) 
5.817863

>  <SlogP_VSA11>  (96) 
0.0

>  <SlogP_VSA12>  (96) 
15.645394

>  <SlogP_VSA2>  (96) 
54.650871

>  <SlogP_VSA3>  (96) 
22.701338

>  <SlogP_VSA4>  (96) 
0.0

>  <SlogP_VSA5>  (96) 
6.227901

>  <SlogP_VSA6>  (96) 
12.65464

>  <SlogP_VSA7>  (96) 
0.0

>  <SlogP_VSA8>  (96) 
11.163878

>  <SlogP_VSA9>  (96) 
0.0

>  <EState_VSA1>  (96) 
46.792077

>  <EState_VSA10>  (96) 
34.023386

>  <EState_VSA11>  (96) 
0.0

>  <EState_VSA2>  (96) 
16.981741

>  <EState_VSA3>  (96) 
0.0

>  <EState_VSA4>  (96) 
6.32732

>  <EState_VSA5>  (96) 
10.89442

>  <EState_VSA6>  (96) 
0.0

>  <EState_VSA7>  (96) 
0.0

>  <EState_VSA8>  (96) 
23.786314

>  <EState_VSA9>  (96) 
10.47053

>  <VSA_EState1>  (96) 
35.749107

>  <VSA_EState10>  (96) 
0.0

>  <VSA_EState2>  (96) 
43.665953

>  <VSA_EState3>  (96) 
20.193372

>  <VSA_EState4>  (96) 
6.037581

>  <VSA_EState5>  (96) 
0.065524

>  <VSA_EState6>  (96) 
0.0

>  <VSA_EState7>  (96) 
-3.478964

>  <VSA_EState8>  (96) 
-0.931293

>  <VSA_EState9>  (96) 
-11.356836

>  <FractionCSP3>  (96) 
0.5

>  <HeavyAtomCount>  (96) 
27

>  <NHOHCount>  (96) 
4

>  <NOCount>  (96) 
15

>  <NumAliphaticCarbocycles>  (96) 
0

>  <NumAliphaticHeterocycles>  (96) 
1

>  <NumAliphaticRings>  (96) 
1

>  <NumAromaticCarbocycles>  (96) 
0

>  <NumAromaticHeterocycles>  (96) 
2

>  <NumAromaticRings>  (96) 
2

>  <NumHAcceptors>  (96) 
15

>  <NumHDonors>  (96) 
3

>  <NumHeteroatoms>  (96) 
17

>  <NumRotatableBonds>  (96) 
6

>  <NumSaturatedCarbocycles>  (96) 
0

>  <NumSaturatedHeterocycles>  (96) 
1

>  <NumSaturatedRings>  (96) 
1

>  <RingCount>  (96) 
3

>  <MolLogP>  (96) 
-3.642

>  <MolMR>  (96) 
77.909

>  <fr_Al_COO>  (96) 
0

>  <fr_Al_OH>  (96) 
2

>  <fr_Al_OH_noTert>  (96) 
2

>  <fr_ArN>  (96) 
1

>  <fr_Ar_COO>  (96) 
0

>  <fr_Ar_N>  (96) 
4

>  <fr_Ar_NH>  (96) 
0

>  <fr_Ar_OH>  (96) 
0

>  <fr_COO>  (96) 
0

>  <fr_COO2>  (96) 
0

>  <fr_C_O>  (96) 
0

>  <fr_C_O_noCOO>  (96) 
0

>  <fr_C_S>  (96) 
0

>  <fr_HOCCN>  (96) 
0

>  <fr_Imine>  (96) 
0

>  <fr_NH0>  (96) 
4

>  <fr_NH1>  (96) 
0

>  <fr_NH2>  (96) 
1

>  <fr_N_O>  (96) 
0

>  <fr_Ndealkylation1>  (96) 
0

>  <fr_Ndealkylation2>  (96) 
0

>  <fr_Nhpyrrole>  (96) 
0

>  <fr_SH>  (96) 
0

>  <fr_aldehyde>  (96) 
0

>  <fr_alkyl_carbamate>  (96) 
0

>  <fr_alkyl_halide>  (96) 
0

>  <fr_allylic_oxid>  (96) 
0

>  <fr_amide>  (96) 
0

>  <fr_amidine>  (96) 
0

>  <fr_aniline>  (96) 
1

>  <fr_aryl_methyl>  (96) 
0

>  <fr_azide>  (96) 
0

>  <fr_azo>  (96) 
0

>  <fr_barbitur>  (96) 
0

>  <fr_benzene>  (96) 
0

>  <fr_benzodiazepine>  (96) 
0

>  <fr_bicyclic>  (96) 
1

>  <fr_diazo>  (96) 
0

>  <fr_dihydropyridine>  (96) 
0

>  <fr_epoxide>  (96) 
0

>  <fr_ester>  (96) 
0

>  <fr_ether>  (96) 
1

>  <fr_furan>  (96) 
0

>  <fr_guanido>  (96) 
0

>  <fr_halogen>  (96) 
0

>  <fr_hdrzine>  (96) 
0

>  <fr_hdrzone>  (96) 
0

>  <fr_imidazole>  (96) 
1

>  <fr_imide>  (96) 
0

>  <fr_isocyan>  (96) 
0

>  <fr_isothiocyan>  (96) 
0

>  <fr_ketone>  (96) 
0

>  <fr_ketone_Topliss>  (96) 
0

>  <fr_lactam>  (96) 
0

>  <fr_lactone>  (96) 
0

>  <fr_methoxy>  (96) 
0

>  <fr_morpholine>  (96) 
0

>  <fr_nitrile>  (96) 
0

>  <fr_nitro>  (96) 
0

>  <fr_nitro_arom>  (96) 
0

>  <fr_nitro_arom_nonortho>  (96) 
0

>  <fr_nitroso>  (96) 
0

>  <fr_oxazole>  (96) 
0

>  <fr_oxime>  (96) 
0

>  <fr_para_hydroxylation>  (96) 
0

>  <fr_phenol>  (96) 
0

>  <fr_phenol_noOrthoHbond>  (96) 
0

>  <fr_phos_acid>  (96) 
2

>  <fr_phos_ester>  (96) 
1

>  <fr_piperdine>  (96) 
0

>  <fr_piperzine>  (96) 
0

>  <fr_priamide>  (96) 
0

>  <fr_prisulfonamd>  (96) 
0

>  <fr_pyridine>  (96) 
0

>  <fr_quatN>  (96) 
0

>  <fr_sulfide>  (96) 
0

>  <fr_sulfonamd>  (96) 
0

>  <fr_sulfone>  (96) 
0

>  <fr_term_acetylene>  (96) 
0

>  <fr_tetrazole>  (96) 
0

>  <fr_thiazole>  (96) 
0

>  <fr_thiocyan>  (96) 
0

>  <fr_thiophene>  (96) 
0

>  <fr_unbrch_alkane>  (96) 
0

>  <fr_urea>  (96) 
0

>  <NP_Likeness>  (96) 
0.931308

$$$$
ADP
     RDKit          3D

  0  0  0  0  0  0  0  0  0  0999 V3000
M  V30 BEGIN CTAB
M  V30 COUNTS 39 41 0 0 0
M  V30 BEGIN ATOM
M  V30 1 P -2.755000 10.904000 -12.359000 0
M  V30 2 P -5.391000 10.705000 -13.567000 0 CFG=1
M  V30 3 O -2.398000 12.355000 -12.124000 0
M  V30 4 O -2.171000 9.883000 -11.404000 0 CHG=-1
M  V30 5 O -2.398000 10.618000 -13.788000 0 CHG=-1
M  V30 6 O -6.304000 11.832000 -13.466000 0
M  V30 7 O -4.721000 10.604000 -14.881000 0 CHG=-1
M  V30 8 O -7.225000 4.197000 -14.494000 0
M  V30 9 O -5.916000 6.356000 -15.972000 0
M  V30 10 O -4.325000 10.830000 -12.370000 0
M  V30 11 O -6.078000 9.299000 -13.253000 0
M  V30 12 O -6.876000 6.684000 -12.475000 0
M  V30 13 N -13.454000 8.779000 -12.359000 0
M  V30 14 N -13.243000 6.454000 -12.305000 0
M  V30 15 N -11.138000 5.245000 -12.519000 0
M  V30 16 N -10.332000 8.764000 -12.738000 0
M  V30 17 N -9.223000 6.775000 -12.811000 0
M  V30 18 C -5.171000 8.165000 -13.343000 0
M  V30 19 C -12.472000 5.316000 -12.360000 0
M  V30 20 C -9.172000 8.158000 -12.861000 0
M  V30 21 C -7.663000 5.533000 -14.353000 0 CFG=2
M  V30 22 C -6.687000 6.629000 -14.812000 0 CFG=1
M  V30 23 C -7.991000 5.911000 -12.937000 0 CFG=1
M  V30 24 C -12.661000 7.690000 -12.418000 0
M  V30 25 C -5.874000 6.830000 -13.529000 0 CFG=2
M  V30 26 C -10.558000 6.491000 -12.634000 0
M  V30 27 C -11.230000 7.736000 -12.593000 0
M  V30 28 H -6.601900 4.131000 -15.273300 0
M  V30 29 H -6.526300 6.195700 -16.747800 0
M  V30 30 H -13.055400 9.692700 -12.438700 0
M  V30 31 H -14.440700 8.672900 -12.235600 0
M  V30 32 H -4.633500 8.123600 -12.500700 0
M  V30 33 H -4.560300 8.310800 -14.121300 0
M  V30 34 H -12.956500 4.445700 -12.272100 0
M  V30 35 H -8.315100 8.659200 -12.981900 0
M  V30 36 H -8.499900 5.632400 -14.891200 0
M  V30 37 H -7.213500 7.462600 -14.979000 0
M  V30 38 H -8.091800 5.088000 -12.377900 0
M  V30 39 H -5.203400 6.092700 -13.447500 0
M  V30 END ATOM
M  V30 BEGIN BOND
M  V30 1 2 1 3
M  V30 2 1 1 4
M  V30 3 1 1 5
M  V30 4 1 1 10
M  V30 5 2 2 6
M  V30 6 1 2 7 CFG=3
M  V30 7 1 2 10
M  V30 8 1 2 11
M  V30 9 1 8 21
M  V30 10 1 9 22
M  V30 11 1 11 18
M  V30 12 1 12 23
M  V30 13 1 12 25
M  V30 14 1 13 24
M  V30 15 2 14 19
M  V30 16 1 14 24
M  V30 17 1 15 19
M  V30 18 2 15 26
M  V30 19 2 16 20
M  V30 20 1 16 27
M  V30 21 1 17 20
M  V30 22 1 17 23
M  V30 23 1 17 26
M  V30 24 1 18 25
M  V30 25 1 21 22
M  V30 26 1 21 23
M  V30 27 1 22 25
M  V30 28 2 24 27
M  V30 29 1 26 27
M  V30 30 1 25 39 CFG=1
M  V30 31 1 23 38 CFG=1
M  V30 32 1 22 37 CFG=3
M  V30 33 1 8 28
M  V30 34 1 9 29
M  V30 35 1 13 30
M  V30 36 1 13 31
M  V30 37 1 18 32
M  V30 38 1 18 33
M  V30 39 1 19 34
M  V30 40 1 20 35
M  V30 41 1 21 36 CFG=3
M  V30 END BOND
M  V30 END CTAB
M  END
>  <Ligand_Instance>  (97) 
4IB3_ADP_A_401

>  <Dataset>  (97) 
PDB

>  <PDB_ID>  (97) 
4IB3

>  <Chain>  (97) 
A

>  <Resi>  (97) 
401

>  <Num_Resolved_Atoms>  (97) 
27

>  <Num_H_Atoms_ProtBoundConf>  (97) 
12

>  <Pocket>  (97) 
A

>  <Name>  (97) 
ADENOSINE-5'-DIPHOSPHATE

>  <Num_Not_Resolved_Atoms>  (97) 
0

>  <ATP_Site>  (97) 
True

>  <Peripheral>  (97) 
False

>  <Standardized_SMILES>  (97) 
[H]O[C@@]1([H])[C@@]([H])(O[H])[C@]([H])(N2C([H])=NC3=C2N=C([H])N=C3N([H])[H])O[C@]1([H])C([H])([H])O[P@](=O)([O-])OP(=O)([O-])[O-]

>  <2D_Mol_H>  (97) 
<rdkit.Chem.rdchem.Mol object at 0x77059d9e7610>

>  <MW>  (97) 
424.179

>  <HBA>  (97) 
15

>  <HBD>  (97) 
3

>  <LogP>  (97) 
-3.642

>  <NRB>  (97) 
9

>  <TPSA>  (97) 
241.09

>  <Num_Heavy_Atoms>  (97) 
27

>  <Ro5>  (97) 
[True, False, True, True, True, False]

>  <Ro5_Fulfilled>  (97) 
False

>  <Ro3>  (97) 
[False, False, True, True]

>  <Ro3_Fulfilled>  (97) 
False

>  <Fsp3>  (97) 
0.5

>  <Fsp3_0.42>  (97) 
True

>  <Fsp3_0.45>  (97) 
True

>  <Stereogenic_Carbons>  (97) 
4

>  <C_Atoms>  (97) 
10

>  <FCStereo>  (97) 
0.4

>  <SPS>  (97) 
769

>  <nSPS>  (97) 
28.481481

>  <PBF>  (97) 
0.765685

>  <PBF_0.6>  (97) 
True

>  <nPBF>  (97) 
0.028359

>  <nPBF_0.016>  (97) 
True

>  <PMI1>  (97) 
1605.568205

>  <PMI2>  (97) 
6296.220583

>  <PMI3>  (97) 
7227.490082

>  <NPR1>  (97) 
0.222147

>  <NPR2>  (97) 
0.871149

>  <Sum_NPR>  (97) 
1.093296

>  <Sum_NPR_1.07>  (97) 
True

>  <Sum_NPR_1.2>  (97) 
False

>  <MaxAbsEStateIndex>  (97) 
11.278955

>  <MaxEStateIndex>  (97) 
11.278955

>  <MinAbsEStateIndex>  (97) 
0.065524

>  <MinEStateIndex>  (97) 
-5.851432

>  <qed>  (97) 
0.378904

>  <MolWt>  (97) 
424.179

>  <HeavyAtomMolWt>  (97) 
412.083

>  <ExactMolWt>  (97) 
424.007586

>  <NumValenceElectrons>  (97) 
150

>  <NumRadicalElectrons>  (97) 
0

>  <MaxPartialCharge>  (97) 
0.271368

>  <MinPartialCharge>  (97) 
-0.789509

>  <MaxAbsPartialCharge>  (97) 
0.789509

>  <MinAbsPartialCharge>  (97) 
0.271368

>  <FpDensityMorgan1>  (97) 
1.222222

>  <FpDensityMorgan2>  (97) 
1.925926

>  <FpDensityMorgan3>  (97) 
2.592593

>  <BCUT2D_MWHI>  (97) 
31.27025

>  <BCUT2D_MWLOW>  (97) 
10.128388

>  <BCUT2D_CHGHI>  (97) 
2.444842

>  <BCUT2D_CHGLO>  (97) 
-2.350424

>  <BCUT2D_LOGPHI>  (97) 
2.503664

>  <BCUT2D_LOGPLOW>  (97) 
-2.337741

>  <BCUT2D_MRHI>  (97) 
7.580921

>  <BCUT2D_MRLOW>  (97) 
-0.339423

>  <AvgIpc>  (97) 
3.072773

>  <BalabanJ>  (97) 
1.748652

>  <BertzCT>  (97) 
932.232873

>  <Chi0>  (97) 
19.982763

>  <Chi0n>  (97) 
13.092254

>  <Chi0v>  (97) 
14.881108

>  <Chi1>  (97) 
12.483782

>  <Chi1n>  (97) 
7.119416

>  <Chi1v>  (97) 
10.040603

>  <Chi2n>  (97) 
5.401088

>  <Chi2v>  (97) 
8.101339

>  <Chi3n>  (97) 
3.595354

>  <Chi3v>  (97) 
5.660653

>  <Chi4n>  (97) 
2.463726

>  <Chi4v>  (97) 
3.961582

>  <HallKierAlpha>  (97) 
-1.51

>  <Ipc>  (97) 
807942.564302

>  <Kappa1>  (97) 
20.230095

>  <Kappa2>  (97) 
7.144568

>  <Kappa3>  (97) 
4.329348

>  <LabuteASA>  (97) 
149.760939

>  <PEOE_VSA1>  (97) 
44.452615

>  <PEOE_VSA10>  (97) 
30.15592

>  <PEOE_VSA11>  (97) 
17.692941

>  <PEOE_VSA12>  (97) 
0.0

>  <PEOE_VSA13>  (97) 
7.822697

>  <PEOE_VSA14>  (97) 
0.0

>  <PEOE_VSA2>  (97) 
13.442779

>  <PEOE_VSA3>  (97) 
14.951936

>  <PEOE_VSA4>  (97) 
0.0

>  <PEOE_VSA5>  (97) 
0.0

>  <PEOE_VSA6>  (97) 
0.0

>  <PEOE_VSA7>  (97) 
0.0

>  <PEOE_VSA8>  (97) 
0.0

>  <PEOE_VSA9>  (97) 
20.756899

>  <SMR_VSA1>  (97) 
47.594628

>  <SMR_VSA10>  (97) 
32.627135

>  <SMR_VSA2>  (97) 
0.0

>  <SMR_VSA3>  (97) 
19.519035

>  <SMR_VSA4>  (97) 
0.0

>  <SMR_VSA5>  (97) 
24.5398

>  <SMR_VSA6>  (97) 
12.340549

>  <SMR_VSA7>  (97) 
12.65464

>  <SMR_VSA8>  (97) 
0.0

>  <SMR_VSA9>  (97) 
0.0

>  <SlogP_VSA1>  (97) 
20.413902

>  <SlogP_VSA10>  (97) 
5.817863

>  <SlogP_VSA11>  (97) 
0.0

>  <SlogP_VSA12>  (97) 
15.645394

>  <SlogP_VSA2>  (97) 
54.650871

>  <SlogP_VSA3>  (97) 
22.701338

>  <SlogP_VSA4>  (97) 
0.0

>  <SlogP_VSA5>  (97) 
6.227901

>  <SlogP_VSA6>  (97) 
12.65464

>  <SlogP_VSA7>  (97) 
0.0

>  <SlogP_VSA8>  (97) 
11.163878

>  <SlogP_VSA9>  (97) 
0.0

>  <EState_VSA1>  (97) 
46.792077

>  <EState_VSA10>  (97) 
34.023386

>  <EState_VSA11>  (97) 
0.0

>  <EState_VSA2>  (97) 
16.981741

>  <EState_VSA3>  (97) 
0.0

>  <EState_VSA4>  (97) 
6.32732

>  <EState_VSA5>  (97) 
10.89442

>  <EState_VSA6>  (97) 
0.0

>  <EState_VSA7>  (97) 
0.0

>  <EState_VSA8>  (97) 
23.786314

>  <EState_VSA9>  (97) 
10.47053

>  <VSA_EState1>  (97) 
35.749107

>  <VSA_EState10>  (97) 
0.0

>  <VSA_EState2>  (97) 
43.665953

>  <VSA_EState3>  (97) 
20.193372

>  <VSA_EState4>  (97) 
6.037581

>  <VSA_EState5>  (97) 
0.065524

>  <VSA_EState6>  (97) 
0.0

>  <VSA_EState7>  (97) 
-3.478964

>  <VSA_EState8>  (97) 
-0.931293

>  <VSA_EState9>  (97) 
-11.356836

>  <FractionCSP3>  (97) 
0.5

>  <HeavyAtomCount>  (97) 
27

>  <NHOHCount>  (97) 
4

>  <NOCount>  (97) 
15

>  <NumAliphaticCarbocycles>  (97) 
0

>  <NumAliphaticHeterocycles>  (97) 
1

>  <NumAliphaticRings>  (97) 
1

>  <NumAromaticCarbocycles>  (97) 
0

>  <NumAromaticHeterocycles>  (97) 
2

>  <NumAromaticRings>  (97) 
2

>  <NumHAcceptors>  (97) 
15

>  <NumHDonors>  (97) 
3

>  <NumHeteroatoms>  (97) 
17

>  <NumRotatableBonds>  (97) 
6

>  <NumSaturatedCarbocycles>  (97) 
0

>  <NumSaturatedHeterocycles>  (97) 
1

>  <NumSaturatedRings>  (97) 
1

>  <RingCount>  (97) 
3

>  <MolLogP>  (97) 
-3.642

>  <MolMR>  (97) 
77.909

>  <fr_Al_COO>  (97) 
0

>  <fr_Al_OH>  (97) 
2

>  <fr_Al_OH_noTert>  (97) 
2

>  <fr_ArN>  (97) 
1

>  <fr_Ar_COO>  (97) 
0

>  <fr_Ar_N>  (97) 
4

>  <fr_Ar_NH>  (97) 
0

>  <fr_Ar_OH>  (97) 
0

>  <fr_COO>  (97) 
0

>  <fr_COO2>  (97) 
0

>  <fr_C_O>  (97) 
0

>  <fr_C_O_noCOO>  (97) 
0

>  <fr_C_S>  (97) 
0

>  <fr_HOCCN>  (97) 
0

>  <fr_Imine>  (97) 
0

>  <fr_NH0>  (97) 
4

>  <fr_NH1>  (97) 
0

>  <fr_NH2>  (97) 
1

>  <fr_N_O>  (97) 
0

>  <fr_Ndealkylation1>  (97) 
0

>  <fr_Ndealkylation2>  (97) 
0

>  <fr_Nhpyrrole>  (97) 
0

>  <fr_SH>  (97) 
0

>  <fr_aldehyde>  (97) 
0

>  <fr_alkyl_carbamate>  (97) 
0

>  <fr_alkyl_halide>  (97) 
0

>  <fr_allylic_oxid>  (97) 
0

>  <fr_amide>  (97) 
0

>  <fr_amidine>  (97) 
0

>  <fr_aniline>  (97) 
1

>  <fr_aryl_methyl>  (97) 
0

>  <fr_azide>  (97) 
0

>  <fr_azo>  (97) 
0

>  <fr_barbitur>  (97) 
0

>  <fr_benzene>  (97) 
0

>  <fr_benzodiazepine>  (97) 
0

>  <fr_bicyclic>  (97) 
1

>  <fr_diazo>  (97) 
0

>  <fr_dihydropyridine>  (97) 
0

>  <fr_epoxide>  (97) 
0

>  <fr_ester>  (97) 
0

>  <fr_ether>  (97) 
1

>  <fr_furan>  (97) 
0

>  <fr_guanido>  (97) 
0

>  <fr_halogen>  (97) 
0

>  <fr_hdrzine>  (97) 
0

>  <fr_hdrzone>  (97) 
0

>  <fr_imidazole>  (97) 
1

>  <fr_imide>  (97) 
0

>  <fr_isocyan>  (97) 
0

>  <fr_isothiocyan>  (97) 
0

>  <fr_ketone>  (97) 
0

>  <fr_ketone_Topliss>  (97) 
0

>  <fr_lactam>  (97) 
0

>  <fr_lactone>  (97) 
0

>  <fr_methoxy>  (97) 
0

>  <fr_morpholine>  (97) 
0

>  <fr_nitrile>  (97) 
0

>  <fr_nitro>  (97) 
0

>  <fr_nitro_arom>  (97) 
0

>  <fr_nitro_arom_nonortho>  (97) 
0

>  <fr_nitroso>  (97) 
0

>  <fr_oxazole>  (97) 
0

>  <fr_oxime>  (97) 
0

>  <fr_para_hydroxylation>  (97) 
0

>  <fr_phenol>  (97) 
0

>  <fr_phenol_noOrthoHbond>  (97) 
0

>  <fr_phos_acid>  (97) 
2

>  <fr_phos_ester>  (97) 
1

>  <fr_piperdine>  (97) 
0

>  <fr_piperzine>  (97) 
0

>  <fr_priamide>  (97) 
0

>  <fr_prisulfonamd>  (97) 
0

>  <fr_pyridine>  (97) 
0

>  <fr_quatN>  (97) 
0

>  <fr_sulfide>  (97) 
0

>  <fr_sulfonamd>  (97) 
0

>  <fr_sulfone>  (97) 
0

>  <fr_term_acetylene>  (97) 
0

>  <fr_tetrazole>  (97) 
0

>  <fr_thiazole>  (97) 
0

>  <fr_thiocyan>  (97) 
0

>  <fr_thiophene>  (97) 
0

>  <fr_unbrch_alkane>  (97) 
0

>  <fr_urea>  (97) 
0

>  <NP_Likeness>  (97) 
0.931308

$$$$
ADP
     RDKit          3D

  0  0  0  0  0  0  0  0  0  0999 V3000
M  V30 BEGIN CTAB
M  V30 COUNTS 39 41 0 0 0
M  V30 BEGIN ATOM
M  V30 1 P 34.746000 49.073000 27.211000 0
M  V30 2 P 32.523000 47.461000 26.549000 0 CFG=1
M  V30 3 O 35.063000 50.529000 26.952000 0
M  V30 4 O 34.719000 48.703000 28.674000 0 CHG=-1
M  V30 5 O 35.541000 48.120000 26.348000 0 CHG=-1
M  V30 6 O 31.156000 47.703000 25.952000 0
M  V30 7 O 33.472000 46.526000 25.837000 0 CHG=-1
M  V30 8 O 29.936000 42.475000 28.403000 0
M  V30 9 O 32.348000 42.816000 27.677000 0
M  V30 10 O 33.218000 48.899000 26.743000 0
M  V30 11 O 32.342000 46.975000 28.078000 0
M  V30 12 O 31.317000 45.180000 30.018000 0
M  V30 13 N 24.757000 47.664000 29.601000 0
M  V30 14 N 24.893000 45.386000 30.182000 0
M  V30 15 N 26.947000 44.194000 30.217000 0
M  V30 16 N 27.876000 47.448000 29.234000 0
M  V30 17 N 28.961000 45.529000 29.595000 0
M  V30 18 C 33.183000 45.978000 28.667000 0
M  V30 19 C 25.609000 44.261000 30.380000 0
M  V30 20 C 29.080000 46.821000 29.235000 0
M  V30 21 C 30.253000 43.871000 28.329000 0 CFG=2
M  V30 22 C 31.708000 44.071000 27.936000 0 CFG=1
M  V30 23 C 30.074000 44.544000 29.689000 0 CFG=1
M  V30 24 C 25.482000 46.542000 29.797000 0
M  V30 25 C 32.360000 44.774000 29.121000 0 CFG=2
M  V30 26 C 27.667000 45.280000 29.834000 0
M  V30 27 C 26.951000 46.545000 29.598000 0
M  V30 28 H 30.748000 41.936400 28.178100 0
M  V30 29 H 32.680300 42.799600 26.734000 0
M  V30 30 H 25.210200 48.508800 29.316500 0
M  V30 31 H 23.766800 47.650200 29.740300 0
M  V30 32 H 33.653000 46.370800 29.457400 0
M  V30 33 H 33.858000 45.678400 27.992800 0
M  V30 34 H 25.123600 43.433500 30.662200 0
M  V30 35 H 29.945500 47.262600 28.998400 0
M  V30 36 H 29.660500 44.313600 27.655900 0
M  V30 37 H 31.762900 44.653100 27.124700 0
M  V30 38 H 29.855700 43.854500 30.379600 0
M  V30 39 H 32.960900 44.128200 29.591900 0
M  V30 END ATOM
M  V30 BEGIN BOND
M  V30 1 2 1 3
M  V30 2 1 1 4
M  V30 3 1 1 5
M  V30 4 1 1 10
M  V30 5 2 2 6
M  V30 6 1 2 7 CFG=3
M  V30 7 1 2 10
M  V30 8 1 2 11
M  V30 9 1 8 21
M  V30 10 1 9 22
M  V30 11 1 11 18
M  V30 12 1 12 23
M  V30 13 1 12 25
M  V30 14 1 13 24
M  V30 15 2 14 19
M  V30 16 1 14 24
M  V30 17 1 15 19
M  V30 18 2 15 26
M  V30 19 2 16 20
M  V30 20 1 16 27
M  V30 21 1 17 20
M  V30 22 1 17 23
M  V30 23 1 17 26
M  V30 24 1 18 25
M  V30 25 1 21 22
M  V30 26 1 21 23
M  V30 27 1 22 25
M  V30 28 2 24 27
M  V30 29 1 26 27
M  V30 30 1 25 39 CFG=1
M  V30 31 1 23 38 CFG=1
M  V30 32 1 22 37 CFG=3
M  V30 33 1 8 28
M  V30 34 1 9 29
M  V30 35 1 13 30
M  V30 36 1 13 31
M  V30 37 1 18 32
M  V30 38 1 18 33
M  V30 39 1 19 34
M  V30 40 1 20 35
M  V30 41 1 21 36 CFG=3
M  V30 END BOND
M  V30 END CTAB
M  END
>  <Ligand_Instance>  (98) 
4NTT_ADP_A_401

>  <Dataset>  (98) 
PDB

>  <PDB_ID>  (98) 
4NTT

>  <Chain>  (98) 
A

>  <Resi>  (98) 
401

>  <Num_Resolved_Atoms>  (98) 
27

>  <Num_H_Atoms_ProtBoundConf>  (98) 
12

>  <Pocket>  (98) 
A

>  <Name>  (98) 
ADENOSINE-5'-DIPHOSPHATE

>  <Num_Not_Resolved_Atoms>  (98) 
0

>  <ATP_Site>  (98) 
True

>  <Peripheral>  (98) 
False

>  <Standardized_SMILES>  (98) 
[H]O[C@@]1([H])[C@@]([H])(O[H])[C@]([H])(N2C([H])=NC3=C2N=C([H])N=C3N([H])[H])O[C@]1([H])C([H])([H])O[P@](=O)([O-])OP(=O)([O-])[O-]

>  <2D_Mol_H>  (98) 
<rdkit.Chem.rdchem.Mol object at 0x77059d9e76f0>

>  <MW>  (98) 
424.179

>  <HBA>  (98) 
15

>  <HBD>  (98) 
3

>  <LogP>  (98) 
-3.642

>  <NRB>  (98) 
9

>  <TPSA>  (98) 
241.09

>  <Num_Heavy_Atoms>  (98) 
27

>  <Ro5>  (98) 
[True, False, True, True, True, False]

>  <Ro5_Fulfilled>  (98) 
False

>  <Ro3>  (98) 
[False, False, True, True]

>  <Ro3_Fulfilled>  (98) 
False

>  <Fsp3>  (98) 
0.5

>  <Fsp3_0.42>  (98) 
True

>  <Fsp3_0.45>  (98) 
True

>  <Stereogenic_Carbons>  (98) 
4

>  <C_Atoms>  (98) 
10

>  <FCStereo>  (98) 
0.4

>  <SPS>  (98) 
769

>  <nSPS>  (98) 
28.481481

>  <PBF>  (98) 
0.738159

>  <PBF_0.6>  (98) 
True

>  <nPBF>  (98) 
0.027339

>  <nPBF_0.016>  (98) 
True

>  <PMI1>  (98) 
1618.268287

>  <PMI2>  (98) 
5718.262551

>  <PMI3>  (98) 
6697.719955

>  <NPR1>  (98) 
0.241615

>  <NPR2>  (98) 
0.853763

>  <Sum_NPR>  (98) 
1.095377

>  <Sum_NPR_1.07>  (98) 
True

>  <Sum_NPR_1.2>  (98) 
False

>  <MaxAbsEStateIndex>  (98) 
11.278955

>  <MaxEStateIndex>  (98) 
11.278955

>  <MinAbsEStateIndex>  (98) 
0.065524

>  <MinEStateIndex>  (98) 
-5.851432

>  <qed>  (98) 
0.378904

>  <MolWt>  (98) 
424.179

>  <HeavyAtomMolWt>  (98) 
412.083

>  <ExactMolWt>  (98) 
424.007586

>  <NumValenceElectrons>  (98) 
150

>  <NumRadicalElectrons>  (98) 
0

>  <MaxPartialCharge>  (98) 
0.271368

>  <MinPartialCharge>  (98) 
-0.789509

>  <MaxAbsPartialCharge>  (98) 
0.789509

>  <MinAbsPartialCharge>  (98) 
0.271368

>  <FpDensityMorgan1>  (98) 
1.222222

>  <FpDensityMorgan2>  (98) 
1.925926

>  <FpDensityMorgan3>  (98) 
2.592593

>  <BCUT2D_MWHI>  (98) 
31.27025

>  <BCUT2D_MWLOW>  (98) 
10.128388

>  <BCUT2D_CHGHI>  (98) 
2.444842

>  <BCUT2D_CHGLO>  (98) 
-2.350424

>  <BCUT2D_LOGPHI>  (98) 
2.503664

>  <BCUT2D_LOGPLOW>  (98) 
-2.337741

>  <BCUT2D_MRHI>  (98) 
7.580921

>  <BCUT2D_MRLOW>  (98) 
-0.339423

>  <AvgIpc>  (98) 
3.072773

>  <BalabanJ>  (98) 
1.748652

>  <BertzCT>  (98) 
932.232873

>  <Chi0>  (98) 
19.982763

>  <Chi0n>  (98) 
13.092254

>  <Chi0v>  (98) 
14.881108

>  <Chi1>  (98) 
12.483782

>  <Chi1n>  (98) 
7.119416

>  <Chi1v>  (98) 
10.040603

>  <Chi2n>  (98) 
5.401088

>  <Chi2v>  (98) 
8.101339

>  <Chi3n>  (98) 
3.595354

>  <Chi3v>  (98) 
5.660653

>  <Chi4n>  (98) 
2.463726

>  <Chi4v>  (98) 
3.961582

>  <HallKierAlpha>  (98) 
-1.51

>  <Ipc>  (98) 
807942.564302

>  <Kappa1>  (98) 
20.230095

>  <Kappa2>  (98) 
7.144568

>  <Kappa3>  (98) 
4.329348

>  <LabuteASA>  (98) 
149.760939

>  <PEOE_VSA1>  (98) 
44.452615

>  <PEOE_VSA10>  (98) 
30.15592

>  <PEOE_VSA11>  (98) 
17.692941

>  <PEOE_VSA12>  (98) 
0.0

>  <PEOE_VSA13>  (98) 
7.822697

>  <PEOE_VSA14>  (98) 
0.0

>  <PEOE_VSA2>  (98) 
13.442779

>  <PEOE_VSA3>  (98) 
14.951936

>  <PEOE_VSA4>  (98) 
0.0

>  <PEOE_VSA5>  (98) 
0.0

>  <PEOE_VSA6>  (98) 
0.0

>  <PEOE_VSA7>  (98) 
0.0

>  <PEOE_VSA8>  (98) 
0.0

>  <PEOE_VSA9>  (98) 
20.756899

>  <SMR_VSA1>  (98) 
47.594628

>  <SMR_VSA10>  (98) 
32.627135

>  <SMR_VSA2>  (98) 
0.0

>  <SMR_VSA3>  (98) 
19.519035

>  <SMR_VSA4>  (98) 
0.0

>  <SMR_VSA5>  (98) 
24.5398

>  <SMR_VSA6>  (98) 
12.340549

>  <SMR_VSA7>  (98) 
12.65464

>  <SMR_VSA8>  (98) 
0.0

>  <SMR_VSA9>  (98) 
0.0

>  <SlogP_VSA1>  (98) 
20.413902

>  <SlogP_VSA10>  (98) 
5.817863

>  <SlogP_VSA11>  (98) 
0.0

>  <SlogP_VSA12>  (98) 
15.645394

>  <SlogP_VSA2>  (98) 
54.650871

>  <SlogP_VSA3>  (98) 
22.701338

>  <SlogP_VSA4>  (98) 
0.0

>  <SlogP_VSA5>  (98) 
6.227901

>  <SlogP_VSA6>  (98) 
12.65464

>  <SlogP_VSA7>  (98) 
0.0

>  <SlogP_VSA8>  (98) 
11.163878

>  <SlogP_VSA9>  (98) 
0.0

>  <EState_VSA1>  (98) 
46.792077

>  <EState_VSA10>  (98) 
34.023386

>  <EState_VSA11>  (98) 
0.0

>  <EState_VSA2>  (98) 
16.981741

>  <EState_VSA3>  (98) 
0.0

>  <EState_VSA4>  (98) 
6.32732

>  <EState_VSA5>  (98) 
10.89442

>  <EState_VSA6>  (98) 
0.0

>  <EState_VSA7>  (98) 
0.0

>  <EState_VSA8>  (98) 
23.786314

>  <EState_VSA9>  (98) 
10.47053

>  <VSA_EState1>  (98) 
35.749107

>  <VSA_EState10>  (98) 
0.0

>  <VSA_EState2>  (98) 
43.665953

>  <VSA_EState3>  (98) 
20.193372

>  <VSA_EState4>  (98) 
6.037581

>  <VSA_EState5>  (98) 
0.065524

>  <VSA_EState6>  (98) 
0.0

>  <VSA_EState7>  (98) 
-3.478964

>  <VSA_EState8>  (98) 
-0.931293

>  <VSA_EState9>  (98) 
-11.356836

>  <FractionCSP3>  (98) 
0.5

>  <HeavyAtomCount>  (98) 
27

>  <NHOHCount>  (98) 
4

>  <NOCount>  (98) 
15

>  <NumAliphaticCarbocycles>  (98) 
0

>  <NumAliphaticHeterocycles>  (98) 
1

>  <NumAliphaticRings>  (98) 
1

>  <NumAromaticCarbocycles>  (98) 
0

>  <NumAromaticHeterocycles>  (98) 
2

>  <NumAromaticRings>  (98) 
2

>  <NumHAcceptors>  (98) 
15

>  <NumHDonors>  (98) 
3

>  <NumHeteroatoms>  (98) 
17

>  <NumRotatableBonds>  (98) 
6

>  <NumSaturatedCarbocycles>  (98) 
0

>  <NumSaturatedHeterocycles>  (98) 
1

>  <NumSaturatedRings>  (98) 
1

>  <RingCount>  (98) 
3

>  <MolLogP>  (98) 
-3.642

>  <MolMR>  (98) 
77.909

>  <fr_Al_COO>  (98) 
0

>  <fr_Al_OH>  (98) 
2

>  <fr_Al_OH_noTert>  (98) 
2

>  <fr_ArN>  (98) 
1

>  <fr_Ar_COO>  (98) 
0

>  <fr_Ar_N>  (98) 
4

>  <fr_Ar_NH>  (98) 
0

>  <fr_Ar_OH>  (98) 
0

>  <fr_COO>  (98) 
0

>  <fr_COO2>  (98) 
0

>  <fr_C_O>  (98) 
0

>  <fr_C_O_noCOO>  (98) 
0

>  <fr_C_S>  (98) 
0

>  <fr_HOCCN>  (98) 
0

>  <fr_Imine>  (98) 
0

>  <fr_NH0>  (98) 
4

>  <fr_NH1>  (98) 
0

>  <fr_NH2>  (98) 
1

>  <fr_N_O>  (98) 
0

>  <fr_Ndealkylation1>  (98) 
0

>  <fr_Ndealkylation2>  (98) 
0

>  <fr_Nhpyrrole>  (98) 
0

>  <fr_SH>  (98) 
0

>  <fr_aldehyde>  (98) 
0

>  <fr_alkyl_carbamate>  (98) 
0

>  <fr_alkyl_halide>  (98) 
0

>  <fr_allylic_oxid>  (98) 
0

>  <fr_amide>  (98) 
0

>  <fr_amidine>  (98) 
0

>  <fr_aniline>  (98) 
1

>  <fr_aryl_methyl>  (98) 
0

>  <fr_azide>  (98) 
0

>  <fr_azo>  (98) 
0

>  <fr_barbitur>  (98) 
0

>  <fr_benzene>  (98) 
0

>  <fr_benzodiazepine>  (98) 
0

>  <fr_bicyclic>  (98) 
1

>  <fr_diazo>  (98) 
0

>  <fr_dihydropyridine>  (98) 
0

>  <fr_epoxide>  (98) 
0

>  <fr_ester>  (98) 
0

>  <fr_ether>  (98) 
1

>  <fr_furan>  (98) 
0

>  <fr_guanido>  (98) 
0

>  <fr_halogen>  (98) 
0

>  <fr_hdrzine>  (98) 
0

>  <fr_hdrzone>  (98) 
0

>  <fr_imidazole>  (98) 
1

>  <fr_imide>  (98) 
0

>  <fr_isocyan>  (98) 
0

>  <fr_isothiocyan>  (98) 
0

>  <fr_ketone>  (98) 
0

>  <fr_ketone_Topliss>  (98) 
0

>  <fr_lactam>  (98) 
0

>  <fr_lactone>  (98) 
0

>  <fr_methoxy>  (98) 
0

>  <fr_morpholine>  (98) 
0

>  <fr_nitrile>  (98) 
0

>  <fr_nitro>  (98) 
0

>  <fr_nitro_arom>  (98) 
0

>  <fr_nitro_arom_nonortho>  (98) 
0

>  <fr_nitroso>  (98) 
0

>  <fr_oxazole>  (98) 
0

>  <fr_oxime>  (98) 
0

>  <fr_para_hydroxylation>  (98) 
0

>  <fr_phenol>  (98) 
0

>  <fr_phenol_noOrthoHbond>  (98) 
0

>  <fr_phos_acid>  (98) 
2

>  <fr_phos_ester>  (98) 
1

>  <fr_piperdine>  (98) 
0

>  <fr_piperzine>  (98) 
0

>  <fr_priamide>  (98) 
0

>  <fr_prisulfonamd>  (98) 
0

>  <fr_pyridine>  (98) 
0

>  <fr_quatN>  (98) 
0

>  <fr_sulfide>  (98) 
0

>  <fr_sulfonamd>  (98) 
0

>  <fr_sulfone>  (98) 
0

>  <fr_term_acetylene>  (98) 
0

>  <fr_tetrazole>  (98) 
0

>  <fr_thiazole>  (98) 
0

>  <fr_thiocyan>  (98) 
0

>  <fr_thiophene>  (98) 
0

>  <fr_unbrch_alkane>  (98) 
0

>  <fr_urea>  (98) 
0

>  <NP_Likeness>  (98) 
0.931308

$$$$
ADP
     RDKit          3D

  0  0  0  0  0  0  0  0  0  0999 V3000
M  V30 BEGIN CTAB
M  V30 COUNTS 39 41 0 0 0
M  V30 BEGIN ATOM
M  V30 1 P 0.548000 15.225000 -14.871000 0
M  V30 2 P 1.855000 17.779000 -14.705000 0 CFG=1
M  V30 3 O 1.174000 13.846000 -14.817000 0
M  V30 4 O -0.629000 15.396000 -13.933000 0 CHG=-1
M  V30 5 O 0.288000 15.708000 -16.281000 0 CHG=-1
M  V30 6 O 3.291000 17.992000 -15.107000 0
M  V30 7 O 0.756000 18.227000 -15.639000 0 CHG=-1
M  V30 8 O 0.087000 23.349000 -12.463000 0
M  V30 9 O -0.154000 21.563000 -14.367000 0
M  V30 10 O 1.670000 16.229000 -14.274000 0
M  V30 11 O 1.651000 18.531000 -13.303000 0
M  V30 12 O 0.433000 20.462000 -11.079000 0
M  V30 13 N 6.818000 22.131000 -8.766000 0
M  V30 14 N 5.338000 23.973000 -8.836000 0
M  V30 15 N 3.130000 23.815000 -9.704000 0
M  V30 16 N 4.430000 20.554000 -10.074000 0
M  V30 17 N 2.488000 21.549000 -10.535000 0
M  V30 18 C 0.345000 18.689000 -12.751000 0
M  V30 19 C 4.141000 24.514000 -9.145000 0
M  V30 20 C 3.182000 20.398000 -10.579000 0
M  V30 21 C 1.081000 22.326000 -12.409000 0 CFG=2
M  V30 22 C 0.731000 21.164000 -13.322000 0 CFG=1
M  V30 23 C 1.091000 21.732000 -11.009000 0 CFG=1
M  V30 24 C 5.615000 22.668000 -9.077000 0
M  V30 25 C 0.037000 20.152000 -12.420000 0 CFG=2
M  V30 26 C 3.269000 22.493000 -9.996000 0
M  V30 27 C 4.552000 21.835000 -9.691000 0
M  V30 28 H -0.636000 23.078000 -13.098400 0
M  V30 29 H -0.362100 20.775100 -14.946600 0
M  V30 30 H 6.998100 21.165400 -8.953700 0
M  V30 31 H 7.526600 22.699900 -8.348600 0
M  V30 32 H 0.280900 18.147600 -11.912700 0
M  V30 33 H -0.327800 18.359000 -13.413200 0
M  V30 34 H 3.995000 25.483800 -8.949700 0
M  V30 35 H 2.823000 19.536700 -10.938500 0
M  V30 36 H 1.980400 22.696800 -12.640400 0
M  V30 37 H 1.563400 20.766900 -13.708500 0
M  V30 38 H 0.597300 22.334800 -10.382200 0
M  V30 39 H -0.950600 20.289700 -12.495400 0
M  V30 END ATOM
M  V30 BEGIN BOND
M  V30 1 2 1 3
M  V30 2 1 1 4
M  V30 3 1 1 5
M  V30 4 1 1 10
M  V30 5 2 2 6
M  V30 6 1 2 7 CFG=3
M  V30 7 1 2 10
M  V30 8 1 2 11
M  V30 9 1 8 21
M  V30 10 1 9 22
M  V30 11 1 11 18
M  V30 12 1 12 23
M  V30 13 1 12 25
M  V30 14 1 13 24
M  V30 15 2 14 19
M  V30 16 1 14 24
M  V30 17 1 15 19
M  V30 18 2 15 26
M  V30 19 2 16 20
M  V30 20 1 16 27
M  V30 21 1 17 20
M  V30 22 1 17 23
M  V30 23 1 17 26
M  V30 24 1 18 25
M  V30 25 1 21 22
M  V30 26 1 21 23
M  V30 27 1 22 25
M  V30 28 2 24 27
M  V30 29 1 26 27
M  V30 30 1 25 39 CFG=1
M  V30 31 1 23 38 CFG=1
M  V30 32 1 22 37 CFG=3
M  V30 33 1 8 28
M  V30 34 1 9 29
M  V30 35 1 13 30
M  V30 36 1 13 31
M  V30 37 1 18 32
M  V30 38 1 18 33
M  V30 39 1 19 34
M  V30 40 1 20 35
M  V30 41 1 21 36 CFG=3
M  V30 END BOND
M  V30 END CTAB
M  END
>  <Ligand_Instance>  (99) 
4NTT_ADP_B_401

>  <Dataset>  (99) 
PDB

>  <PDB_ID>  (99) 
4NTT

>  <Chain>  (99) 
B

>  <Resi>  (99) 
401

>  <Num_Resolved_Atoms>  (99) 
27

>  <Num_H_Atoms_ProtBoundConf>  (99) 
12

>  <Pocket>  (99) 
A

>  <Name>  (99) 
ADENOSINE-5'-DIPHOSPHATE

>  <Num_Not_Resolved_Atoms>  (99) 
0

>  <ATP_Site>  (99) 
True

>  <Peripheral>  (99) 
False

>  <Standardized_SMILES>  (99) 
[H]O[C@@]1([H])[C@@]([H])(O[H])[C@]([H])(N2C([H])=NC3=C2N=C([H])N=C3N([H])[H])O[C@]1([H])C([H])([H])O[P@](=O)([O-])OP(=O)([O-])[O-]

>  <2D_Mol_H>  (99) 
<rdkit.Chem.rdchem.Mol object at 0x77059d9e77d0>

>  <MW>  (99) 
424.179

>  <HBA>  (99) 
15

>  <HBD>  (99) 
3

>  <LogP>  (99) 
-3.642

>  <NRB>  (99) 
9

>  <TPSA>  (99) 
241.09

>  <Num_Heavy_Atoms>  (99) 
27

>  <Ro5>  (99) 
[True, False, True, True, True, False]

>  <Ro5_Fulfilled>  (99) 
False

>  <Ro3>  (99) 
[False, False, True, True]

>  <Ro3_Fulfilled>  (99) 
False

>  <Fsp3>  (99) 
0.5

>  <Fsp3_0.42>  (99) 
True

>  <Fsp3_0.45>  (99) 
True

>  <Stereogenic_Carbons>  (99) 
4

>  <C_Atoms>  (99) 
10

>  <FCStereo>  (99) 
0.4

>  <SPS>  (99) 
769

>  <nSPS>  (99) 
28.481481

>  <PBF>  (99) 
0.746607

>  <PBF_0.6>  (99) 
True

>  <nPBF>  (99) 
0.027652

>  <nPBF_0.016>  (99) 
True

>  <PMI1>  (99) 
1469.870546

>  <PMI2>  (99) 
6575.433663

>  <PMI3>  (99) 
7389.441623

>  <NPR1>  (99) 
0.198915

>  <NPR2>  (99) 
0.889842

>  <Sum_NPR>  (99) 
1.088757

>  <Sum_NPR_1.07>  (99) 
True

>  <Sum_NPR_1.2>  (99) 
False

>  <MaxAbsEStateIndex>  (99) 
11.278955

>  <MaxEStateIndex>  (99) 
11.278955

>  <MinAbsEStateIndex>  (99) 
0.065524

>  <MinEStateIndex>  (99) 
-5.851432

>  <qed>  (99) 
0.378904

>  <MolWt>  (99) 
424.179

>  <HeavyAtomMolWt>  (99) 
412.083

>  <ExactMolWt>  (99) 
424.007586

>  <NumValenceElectrons>  (99) 
150

>  <NumRadicalElectrons>  (99) 
0

>  <MaxPartialCharge>  (99) 
0.271368

>  <MinPartialCharge>  (99) 
-0.789509

>  <MaxAbsPartialCharge>  (99) 
0.789509

>  <MinAbsPartialCharge>  (99) 
0.271368

>  <FpDensityMorgan1>  (99) 
1.222222

>  <FpDensityMorgan2>  (99) 
1.925926

>  <FpDensityMorgan3>  (99) 
2.592593

>  <BCUT2D_MWHI>  (99) 
31.27025

>  <BCUT2D_MWLOW>  (99) 
10.128388

>  <BCUT2D_CHGHI>  (99) 
2.444842

>  <BCUT2D_CHGLO>  (99) 
-2.350424

>  <BCUT2D_LOGPHI>  (99) 
2.503664

>  <BCUT2D_LOGPLOW>  (99) 
-2.337741

>  <BCUT2D_MRHI>  (99) 
7.580921

>  <BCUT2D_MRLOW>  (99) 
-0.339423

>  <AvgIpc>  (99) 
3.072773

>  <BalabanJ>  (99) 
1.748652

>  <BertzCT>  (99) 
932.232873

>  <Chi0>  (99) 
19.982763

>  <Chi0n>  (99) 
13.092254

>  <Chi0v>  (99) 
14.881108

>  <Chi1>  (99) 
12.483782

>  <Chi1n>  (99) 
7.119416

>  <Chi1v>  (99) 
10.040603

>  <Chi2n>  (99) 
5.401088

>  <Chi2v>  (99) 
8.101339

>  <Chi3n>  (99) 
3.595354

>  <Chi3v>  (99) 
5.660653

>  <Chi4n>  (99) 
2.463726

>  <Chi4v>  (99) 
3.961582

>  <HallKierAlpha>  (99) 
-1.51

>  <Ipc>  (99) 
807942.564302

>  <Kappa1>  (99) 
20.230095

>  <Kappa2>  (99) 
7.144568

>  <Kappa3>  (99) 
4.329348

>  <LabuteASA>  (99) 
149.760939

>  <PEOE_VSA1>  (99) 
44.452615

>  <PEOE_VSA10>  (99) 
30.15592

>  <PEOE_VSA11>  (99) 
17.692941

>  <PEOE_VSA12>  (99) 
0.0

>  <PEOE_VSA13>  (99) 
7.822697

>  <PEOE_VSA14>  (99) 
0.0

>  <PEOE_VSA2>  (99) 
13.442779

>  <PEOE_VSA3>  (99) 
14.951936

>  <PEOE_VSA4>  (99) 
0.0

>  <PEOE_VSA5>  (99) 
0.0

>  <PEOE_VSA6>  (99) 
0.0

>  <PEOE_VSA7>  (99) 
0.0

>  <PEOE_VSA8>  (99) 
0.0

>  <PEOE_VSA9>  (99) 
20.756899

>  <SMR_VSA1>  (99) 
47.594628

>  <SMR_VSA10>  (99) 
32.627135

>  <SMR_VSA2>  (99) 
0.0

>  <SMR_VSA3>  (99) 
19.519035

>  <SMR_VSA4>  (99) 
0.0

>  <SMR_VSA5>  (99) 
24.5398

>  <SMR_VSA6>  (99) 
12.340549

>  <SMR_VSA7>  (99) 
12.65464

>  <SMR_VSA8>  (99) 
0.0

>  <SMR_VSA9>  (99) 
0.0

>  <SlogP_VSA1>  (99) 
20.413902

>  <SlogP_VSA10>  (99) 
5.817863

>  <SlogP_VSA11>  (99) 
0.0

>  <SlogP_VSA12>  (99) 
15.645394

>  <SlogP_VSA2>  (99) 
54.650871

>  <SlogP_VSA3>  (99) 
22.701338

>  <SlogP_VSA4>  (99) 
0.0

>  <SlogP_VSA5>  (99) 
6.227901

>  <SlogP_VSA6>  (99) 
12.65464

>  <SlogP_VSA7>  (99) 
0.0

>  <SlogP_VSA8>  (99) 
11.163878

>  <SlogP_VSA9>  (99) 
0.0

>  <EState_VSA1>  (99) 
46.792077

>  <EState_VSA10>  (99) 
34.023386

>  <EState_VSA11>  (99) 
0.0

>  <EState_VSA2>  (99) 
16.981741

>  <EState_VSA3>  (99) 
0.0

>  <EState_VSA4>  (99) 
6.32732

>  <EState_VSA5>  (99) 
10.89442

>  <EState_VSA6>  (99) 
0.0

>  <EState_VSA7>  (99) 
0.0

>  <EState_VSA8>  (99) 
23.786314

>  <EState_VSA9>  (99) 
10.47053

>  <VSA_EState1>  (99) 
35.749107

>  <VSA_EState10>  (99) 
0.0

>  <VSA_EState2>  (99) 
43.665953

>  <VSA_EState3>  (99) 
20.193372

>  <VSA_EState4>  (99) 
6.037581

>  <VSA_EState5>  (99) 
0.065524

>  <VSA_EState6>  (99) 
0.0

>  <VSA_EState7>  (99) 
-3.478964

>  <VSA_EState8>  (99) 
-0.931293

>  <VSA_EState9>  (99) 
-11.356836

>  <FractionCSP3>  (99) 
0.5

>  <HeavyAtomCount>  (99) 
27

>  <NHOHCount>  (99) 
4

>  <NOCount>  (99) 
15

>  <NumAliphaticCarbocycles>  (99) 
0

>  <NumAliphaticHeterocycles>  (99) 
1

>  <NumAliphaticRings>  (99) 
1

>  <NumAromaticCarbocycles>  (99) 
0

>  <NumAromaticHeterocycles>  (99) 
2

>  <NumAromaticRings>  (99) 
2

>  <NumHAcceptors>  (99) 
15

>  <NumHDonors>  (99) 
3

>  <NumHeteroatoms>  (99) 
17

>  <NumRotatableBonds>  (99) 
6

>  <NumSaturatedCarbocycles>  (99) 
0

>  <NumSaturatedHeterocycles>  (99) 
1

>  <NumSaturatedRings>  (99) 
1

>  <RingCount>  (99) 
3

>  <MolLogP>  (99) 
-3.642

>  <MolMR>  (99) 
77.909

>  <fr_Al_COO>  (99) 
0

>  <fr_Al_OH>  (99) 
2

>  <fr_Al_OH_noTert>  (99) 
2

>  <fr_ArN>  (99) 
1

>  <fr_Ar_COO>  (99) 
0

>  <fr_Ar_N>  (99) 
4

>  <fr_Ar_NH>  (99) 
0

>  <fr_Ar_OH>  (99) 
0

>  <fr_COO>  (99) 
0

>  <fr_COO2>  (99) 
0

>  <fr_C_O>  (99) 
0

>  <fr_C_O_noCOO>  (99) 
0

>  <fr_C_S>  (99) 
0

>  <fr_HOCCN>  (99) 
0

>  <fr_Imine>  (99) 
0

>  <fr_NH0>  (99) 
4

>  <fr_NH1>  (99) 
0

>  <fr_NH2>  (99) 
1

>  <fr_N_O>  (99) 
0

>  <fr_Ndealkylation1>  (99) 
0

>  <fr_Ndealkylation2>  (99) 
0

>  <fr_Nhpyrrole>  (99) 
0

>  <fr_SH>  (99) 
0

>  <fr_aldehyde>  (99) 
0

>  <fr_alkyl_carbamate>  (99) 
0

>  <fr_alkyl_halide>  (99) 
0

>  <fr_allylic_oxid>  (99) 
0

>  <fr_amide>  (99) 
0

>  <fr_amidine>  (99) 
0

>  <fr_aniline>  (99) 
1

>  <fr_aryl_methyl>  (99) 
0

>  <fr_azide>  (99) 
0

>  <fr_azo>  (99) 
0

>  <fr_barbitur>  (99) 
0

>  <fr_benzene>  (99) 
0

>  <fr_benzodiazepine>  (99) 
0

>  <fr_bicyclic>  (99) 
1

>  <fr_diazo>  (99) 
0

>  <fr_dihydropyridine>  (99) 
0

>  <fr_epoxide>  (99) 
0

>  <fr_ester>  (99) 
0

>  <fr_ether>  (99) 
1

>  <fr_furan>  (99) 
0

>  <fr_guanido>  (99) 
0

>  <fr_halogen>  (99) 
0

>  <fr_hdrzine>  (99) 
0

>  <fr_hdrzone>  (99) 
0

>  <fr_imidazole>  (99) 
1

>  <fr_imide>  (99) 
0

>  <fr_isocyan>  (99) 
0

>  <fr_isothiocyan>  (99) 
0

>  <fr_ketone>  (99) 
0

>  <fr_ketone_Topliss>  (99) 
0

>  <fr_lactam>  (99) 
0

>  <fr_lactone>  (99) 
0

>  <fr_methoxy>  (99) 
0

>  <fr_morpholine>  (99) 
0

>  <fr_nitrile>  (99) 
0

>  <fr_nitro>  (99) 
0

>  <fr_nitro_arom>  (99) 
0

>  <fr_nitro_arom_nonortho>  (99) 
0

>  <fr_nitroso>  (99) 
0

>  <fr_oxazole>  (99) 
0

>  <fr_oxime>  (99) 
0

>  <fr_para_hydroxylation>  (99) 
0

>  <fr_phenol>  (99) 
0

>  <fr_phenol_noOrthoHbond>  (99) 
0

>  <fr_phos_acid>  (99) 
2

>  <fr_phos_ester>  (99) 
1

>  <fr_piperdine>  (99) 
0

>  <fr_piperzine>  (99) 
0

>  <fr_priamide>  (99) 
0

>  <fr_prisulfonamd>  (99) 
0

>  <fr_pyridine>  (99) 
0

>  <fr_quatN>  (99) 
0

>  <fr_sulfide>  (99) 
0

>  <fr_sulfonamd>  (99) 
0

>  <fr_sulfone>  (99) 
0

>  <fr_term_acetylene>  (99) 
0

>  <fr_tetrazole>  (99) 
0

>  <fr_thiazole>  (99) 
0

>  <fr_thiocyan>  (99) 
0

>  <fr_thiophene>  (99) 
0

>  <fr_unbrch_alkane>  (99) 
0

>  <fr_urea>  (99) 
0

>  <NP_Likeness>  (99) 
0.931308

$$$$
ADP
     RDKit          3D

  0  0  0  0  0  0  0  0  0  0999 V3000
M  V30 BEGIN CTAB
M  V30 COUNTS 39 41 0 0 0
M  V30 BEGIN ATOM
M  V30 1 P -2.754000 -11.791000 12.175000 0
M  V30 2 P -5.095000 -10.818000 13.476000 0 CFG=1
M  V30 3 O -2.231000 -11.526000 10.781000 0
M  V30 4 O -3.030000 -13.238000 12.501000 0 CHG=-1
M  V30 5 O -1.975000 -11.124000 13.275000 0 CHG=-1
M  V30 6 O -6.133000 -11.919000 13.523000 0
M  V30 7 O -4.169000 -10.565000 14.641000 0 CHG=-1
M  V30 8 O -7.320000 -4.502000 14.597000 0
M  V30 9 O -5.940000 -6.309000 15.935000 0
M  V30 10 O -4.180000 -11.027000 12.163000 0
M  V30 11 O -5.807000 -9.403000 13.177000 0
M  V30 12 O -6.829000 -6.784000 12.487000 0
M  V30 13 N -13.568000 -8.726000 12.360000 0
M  V30 14 N -13.229000 -6.394000 12.347000 0
M  V30 15 N -11.082000 -5.393000 12.570000 0
M  V30 16 N -10.412000 -8.844000 12.724000 0
M  V30 17 N -9.183000 -6.977000 12.823000 0
M  V30 18 C -5.070000 -8.224000 13.510000 0
M  V30 19 C -12.421000 -5.319000 12.413000 0
M  V30 20 C -9.163000 -8.324000 12.858000 0
M  V30 21 C -7.800000 -5.836000 14.428000 0 CFG=2
M  V30 22 C -6.716000 -6.811000 14.838000 0 CFG=1
M  V30 23 C -7.999000 -6.091000 12.947000 0 CFG=1
M  V30 24 C -12.738000 -7.654000 12.427000 0
M  V30 25 C -5.891000 -6.932000 13.565000 0 CFG=2
M  V30 26 C -10.452000 -6.585000 12.670000 0
M  V30 27 C -11.268000 -7.812000 12.598000 0
M  V30 28 H -6.657800 -4.478400 15.346000 0
M  V30 29 H -6.537200 -6.152500 16.721700 0
M  V30 30 H -13.194800 -9.651800 12.420100 0
M  V30 31 H -14.552600 -8.589900 12.250500 0
M  V30 32 H -4.351900 -8.104700 12.824400 0
M  V30 33 H -4.653300 -8.363600 14.408300 0
M  V30 34 H -12.837100 -4.412500 12.341500 0
M  V30 35 H -8.333900 -8.872000 12.968600 0
M  V30 36 H -8.643800 -5.989300 14.942400 0
M  V30 37 H -7.118000 -7.695500 15.074900 0
M  V30 38 H -8.133100 -5.235400 12.447100 0
M  V30 39 H -5.256500 -6.159800 13.532100 0
M  V30 END ATOM
M  V30 BEGIN BOND
M  V30 1 2 1 3
M  V30 2 1 1 4
M  V30 3 1 1 5
M  V30 4 1 1 10
M  V30 5 2 2 6
M  V30 6 1 2 7 CFG=1
M  V30 7 1 2 10
M  V30 8 1 2 11
M  V30 9 1 8 21
M  V30 10 1 9 22
M  V30 11 1 11 18
M  V30 12 1 12 23
M  V30 13 1 12 25
M  V30 14 1 13 24
M  V30 15 2 14 19
M  V30 16 1 14 24
M  V30 17 1 15 19
M  V30 18 2 15 26
M  V30 19 2 16 20
M  V30 20 1 16 27
M  V30 21 1 17 20
M  V30 22 1 17 23
M  V30 23 1 17 26
M  V30 24 1 18 25
M  V30 25 1 21 22
M  V30 26 1 21 23
M  V30 27 1 22 25
M  V30 28 2 24 27
M  V30 29 1 26 27
M  V30 30 1 25 39 CFG=1
M  V30 31 1 23 38 CFG=3
M  V30 32 1 22 37 CFG=1
M  V30 33 1 8 28
M  V30 34 1 9 29
M  V30 35 1 13 30
M  V30 36 1 13 31
M  V30 37 1 18 32
M  V30 38 1 18 33
M  V30 39 1 19 34
M  V30 40 1 20 35
M  V30 41 1 21 36 CFG=1
M  V30 END BOND
M  V30 END CTAB
M  END
>  <Ligand_Instance>  (100) 
4O21_ADP_A_401

>  <Dataset>  (100) 
PDB

>  <PDB_ID>  (100) 
4O21

>  <Chain>  (100) 
A

>  <Resi>  (100) 
401

>  <Num_Resolved_Atoms>  (100) 
27

>  <Num_H_Atoms_ProtBoundConf>  (100) 
12

>  <Pocket>  (100) 
A

>  <Name>  (100) 
ADENOSINE-5'-DIPHOSPHATE

>  <Num_Not_Resolved_Atoms>  (100) 
0

>  <ATP_Site>  (100) 
True

>  <Peripheral>  (100) 
False

>  <Standardized_SMILES>  (100) 
[H]O[C@@]1([H])[C@@]([H])(O[H])[C@]([H])(N2C([H])=NC3=C2N=C([H])N=C3N([H])[H])O[C@]1([H])C([H])([H])O[P@](=O)([O-])OP(=O)([O-])[O-]

>  <2D_Mol_H>  (100) 
<rdkit.Chem.rdchem.Mol object at 0x77059d9e78b0>

>  <MW>  (100) 
424.179

>  <HBA>  (100) 
15

>  <HBD>  (100) 
3

>  <LogP>  (100) 
-3.642

>  <NRB>  (100) 
9

>  <TPSA>  (100) 
241.09

>  <Num_Heavy_Atoms>  (100) 
27

>  <Ro5>  (100) 
[True, False, True, True, True, False]

>  <Ro5_Fulfilled>  (100) 
False

>  <Ro3>  (100) 
[False, False, True, True]

>  <Ro3_Fulfilled>  (100) 
False

>  <Fsp3>  (100) 
0.5

>  <Fsp3_0.42>  (100) 
True

>  <Fsp3_0.45>  (100) 
True

>  <Stereogenic_Carbons>  (100) 
4

>  <C_Atoms>  (100) 
10

>  <FCStereo>  (100) 
0.4

>  <SPS>  (100) 
769

>  <nSPS>  (100) 
28.481481

>  <PBF>  (100) 
0.745754

>  <PBF_0.6>  (100) 
True

>  <nPBF>  (100) 
0.027621

>  <nPBF_0.016>  (100) 
True

>  <PMI1>  (100) 
1602.120766

>  <PMI2>  (100) 
6741.976608

>  <PMI3>  (100) 
7744.270345

>  <NPR1>  (100) 
0.206878

>  <NPR2>  (100) 
0.870576

>  <Sum_NPR>  (100) 
1.077454

>  <Sum_NPR_1.07>  (100) 
True

>  <Sum_NPR_1.2>  (100) 
False

>  <MaxAbsEStateIndex>  (100) 
11.278955

>  <MaxEStateIndex>  (100) 
11.278955

>  <MinAbsEStateIndex>  (100) 
0.065524

>  <MinEStateIndex>  (100) 
-5.851432

>  <qed>  (100) 
0.378904

>  <MolWt>  (100) 
424.179

>  <HeavyAtomMolWt>  (100) 
412.083

>  <ExactMolWt>  (100) 
424.007586

>  <NumValenceElectrons>  (100) 
150

>  <NumRadicalElectrons>  (100) 
0

>  <MaxPartialCharge>  (100) 
0.271368

>  <MinPartialCharge>  (100) 
-0.789509

>  <MaxAbsPartialCharge>  (100) 
0.789509

>  <MinAbsPartialCharge>  (100) 
0.271368

>  <FpDensityMorgan1>  (100) 
1.222222

>  <FpDensityMorgan2>  (100) 
1.925926

>  <FpDensityMorgan3>  (100) 
2.592593

>  <BCUT2D_MWHI>  (100) 
31.27025

>  <BCUT2D_MWLOW>  (100) 
10.128388

>  <BCUT2D_CHGHI>  (100) 
2.444842

>  <BCUT2D_CHGLO>  (100) 
-2.350424

>  <BCUT2D_LOGPHI>  (100) 
2.503664

>  <BCUT2D_LOGPLOW>  (100) 
-2.337741

>  <BCUT2D_MRHI>  (100) 
7.580921

>  <BCUT2D_MRLOW>  (100) 
-0.339423

>  <AvgIpc>  (100) 
3.072773

>  <BalabanJ>  (100) 
1.748652

>  <BertzCT>  (100) 
932.232873

>  <Chi0>  (100) 
19.982763

>  <Chi0n>  (100) 
13.092254

>  <Chi0v>  (100) 
14.881108

>  <Chi1>  (100) 
12.483782

>  <Chi1n>  (100) 
7.119416

>  <Chi1v>  (100) 
10.040603

>  <Chi2n>  (100) 
5.401088

>  <Chi2v>  (100) 
8.101339

>  <Chi3n>  (100) 
3.595354

>  <Chi3v>  (100) 
5.660653

>  <Chi4n>  (100) 
2.463726

>  <Chi4v>  (100) 
3.961582

>  <HallKierAlpha>  (100) 
-1.51

>  <Ipc>  (100) 
807942.564302

>  <Kappa1>  (100) 
20.230095

>  <Kappa2>  (100) 
7.144568

>  <Kappa3>  (100) 
4.329348

>  <LabuteASA>  (100) 
149.760939

>  <PEOE_VSA1>  (100) 
44.452615

>  <PEOE_VSA10>  (100) 
30.15592

>  <PEOE_VSA11>  (100) 
17.692941

>  <PEOE_VSA12>  (100) 
0.0

>  <PEOE_VSA13>  (100) 
7.822697

>  <PEOE_VSA14>  (100) 
0.0

>  <PEOE_VSA2>  (100) 
13.442779

>  <PEOE_VSA3>  (100) 
14.951936

>  <PEOE_VSA4>  (100) 
0.0

>  <PEOE_VSA5>  (100) 
0.0

>  <PEOE_VSA6>  (100) 
0.0

>  <PEOE_VSA7>  (100) 
0.0

>  <PEOE_VSA8>  (100) 
0.0

>  <PEOE_VSA9>  (100) 
20.756899

>  <SMR_VSA1>  (100) 
47.594628

>  <SMR_VSA10>  (100) 
32.627135

>  <SMR_VSA2>  (100) 
0.0

>  <SMR_VSA3>  (100) 
19.519035

>  <SMR_VSA4>  (100) 
0.0

>  <SMR_VSA5>  (100) 
24.5398

>  <SMR_VSA6>  (100) 
12.340549

>  <SMR_VSA7>  (100) 
12.65464

>  <SMR_VSA8>  (100) 
0.0

>  <SMR_VSA9>  (100) 
0.0

>  <SlogP_VSA1>  (100) 
20.413902

>  <SlogP_VSA10>  (100) 
5.817863

>  <SlogP_VSA11>  (100) 
0.0

>  <SlogP_VSA12>  (100) 
15.645394

>  <SlogP_VSA2>  (100) 
54.650871

>  <SlogP_VSA3>  (100) 
22.701338

>  <SlogP_VSA4>  (100) 
0.0

>  <SlogP_VSA5>  (100) 
6.227901

>  <SlogP_VSA6>  (100) 
12.65464

>  <SlogP_VSA7>  (100) 
0.0

>  <SlogP_VSA8>  (100) 
11.163878

>  <SlogP_VSA9>  (100) 
0.0

>  <EState_VSA1>  (100) 
46.792077

>  <EState_VSA10>  (100) 
34.023386

>  <EState_VSA11>  (100) 
0.0

>  <EState_VSA2>  (100) 
16.981741

>  <EState_VSA3>  (100) 
0.0

>  <EState_VSA4>  (100) 
6.32732

>  <EState_VSA5>  (100) 
10.89442

>  <EState_VSA6>  (100) 
0.0

>  <EState_VSA7>  (100) 
0.0

>  <EState_VSA8>  (100) 
23.786314

>  <EState_VSA9>  (100) 
10.47053

>  <VSA_EState1>  (100) 
35.749107

>  <VSA_EState10>  (100) 
0.0

>  <VSA_EState2>  (100) 
43.665953

>  <VSA_EState3>  (100) 
20.193372

>  <VSA_EState4>  (100) 
6.037581

>  <VSA_EState5>  (100) 
0.065524

>  <VSA_EState6>  (100) 
0.0

>  <VSA_EState7>  (100) 
-3.478964

>  <VSA_EState8>  (100) 
-0.931293

>  <VSA_EState9>  (100) 
-11.356836

>  <FractionCSP3>  (100) 
0.5

>  <HeavyAtomCount>  (100) 
27

>  <NHOHCount>  (100) 
4

>  <NOCount>  (100) 
15

>  <NumAliphaticCarbocycles>  (100) 
0

>  <NumAliphaticHeterocycles>  (100) 
1

>  <NumAliphaticRings>  (100) 
1

>  <NumAromaticCarbocycles>  (100) 
0

>  <NumAromaticHeterocycles>  (100) 
2

>  <NumAromaticRings>  (100) 
2

>  <NumHAcceptors>  (100) 
15

>  <NumHDonors>  (100) 
3

>  <NumHeteroatoms>  (100) 
17

>  <NumRotatableBonds>  (100) 
6

>  <NumSaturatedCarbocycles>  (100) 
0

>  <NumSaturatedHeterocycles>  (100) 
1

>  <NumSaturatedRings>  (100) 
1

>  <RingCount>  (100) 
3

>  <MolLogP>  (100) 
-3.642

>  <MolMR>  (100) 
77.909

>  <fr_Al_COO>  (100) 
0

>  <fr_Al_OH>  (100) 
2

>  <fr_Al_OH_noTert>  (100) 
2

>  <fr_ArN>  (100) 
1

>  <fr_Ar_COO>  (100) 
0

>  <fr_Ar_N>  (100) 
4

>  <fr_Ar_NH>  (100) 
0

>  <fr_Ar_OH>  (100) 
0

>  <fr_COO>  (100) 
0

>  <fr_COO2>  (100) 
0

>  <fr_C_O>  (100) 
0

>  <fr_C_O_noCOO>  (100) 
0

>  <fr_C_S>  (100) 
0

>  <fr_HOCCN>  (100) 
0

>  <fr_Imine>  (100) 
0

>  <fr_NH0>  (100) 
4

>  <fr_NH1>  (100) 
0

>  <fr_NH2>  (100) 
1

>  <fr_N_O>  (100) 
0

>  <fr_Ndealkylation1>  (100) 
0

>  <fr_Ndealkylation2>  (100) 
0

>  <fr_Nhpyrrole>  (100) 
0

>  <fr_SH>  (100) 
0

>  <fr_aldehyde>  (100) 
0

>  <fr_alkyl_carbamate>  (100) 
0

>  <fr_alkyl_halide>  (100) 
0

>  <fr_allylic_oxid>  (100) 
0

>  <fr_amide>  (100) 
0

>  <fr_amidine>  (100) 
0

>  <fr_aniline>  (100) 
1

>  <fr_aryl_methyl>  (100) 
0

>  <fr_azide>  (100) 
0

>  <fr_azo>  (100) 
0

>  <fr_barbitur>  (100) 
0

>  <fr_benzene>  (100) 
0

>  <fr_benzodiazepine>  (100) 
0

>  <fr_bicyclic>  (100) 
1

>  <fr_diazo>  (100) 
0

>  <fr_dihydropyridine>  (100) 
0

>  <fr_epoxide>  (100) 
0

>  <fr_ester>  (100) 
0

>  <fr_ether>  (100) 
1

>  <fr_furan>  (100) 
0

>  <fr_guanido>  (100) 
0

>  <fr_halogen>  (100) 
0

>  <fr_hdrzine>  (100) 
0

>  <fr_hdrzone>  (100) 
0

>  <fr_imidazole>  (100) 
1

>  <fr_imide>  (100) 
0

>  <fr_isocyan>  (100) 
0

>  <fr_isothiocyan>  (100) 
0

>  <fr_ketone>  (100) 
0

>  <fr_ketone_Topliss>  (100) 
0

>  <fr_lactam>  (100) 
0

>  <fr_lactone>  (100) 
0

>  <fr_methoxy>  (100) 
0

>  <fr_morpholine>  (100) 
0

>  <fr_nitrile>  (100) 
0

>  <fr_nitro>  (100) 
0

>  <fr_nitro_arom>  (100) 
0

>  <fr_nitro_arom_nonortho>  (100) 
0

>  <fr_nitroso>  (100) 
0

>  <fr_oxazole>  (100) 
0

>  <fr_oxime>  (100) 
0

>  <fr_para_hydroxylation>  (100) 
0

>  <fr_phenol>  (100) 
0

>  <fr_phenol_noOrthoHbond>  (100) 
0

>  <fr_phos_acid>  (100) 
2

>  <fr_phos_ester>  (100) 
1

>  <fr_piperdine>  (100) 
0

>  <fr_piperzine>  (100) 
0

>  <fr_priamide>  (100) 
0

>  <fr_prisulfonamd>  (100) 
0

>  <fr_pyridine>  (100) 
0

>  <fr_quatN>  (100) 
0

>  <fr_sulfide>  (100) 
0

>  <fr_sulfonamd>  (100) 
0

>  <fr_sulfone>  (100) 
0

>  <fr_term_acetylene>  (100) 
0

>  <fr_tetrazole>  (100) 
0

>  <fr_thiazole>  (100) 
0

>  <fr_thiocyan>  (100) 
0

>  <fr_thiophene>  (100) 
0

>  <fr_unbrch_alkane>  (100) 
0

>  <fr_urea>  (100) 
0

>  <NP_Likeness>  (100) 
0.931308

$$$$
ADP
     RDKit          3D

  0  0  0  0  0  0  0  0  0  0999 V3000
M  V30 BEGIN CTAB
M  V30 COUNTS 39 41 0 0 0
M  V30 BEGIN ATOM
M  V30 1 P -3.072000 11.704000 -13.707000 0
M  V30 2 P -5.788000 10.747000 -13.783000 0 CFG=1
M  V30 3 O -3.518000 13.063000 -14.020000 0
M  V30 4 O -1.984000 11.707000 -12.695000 0 CHG=-1
M  V30 5 O -2.805000 10.885000 -14.895000 0 CHG=-1
M  V30 6 O -6.779000 11.749000 -13.546000 0
M  V30 7 O -5.502000 10.392000 -15.165000 0 CHG=-1
M  V30 8 O -7.158000 4.570000 -14.448000 0
M  V30 9 O -5.961000 6.721000 -15.775000 0
M  V30 10 O -4.393000 11.029000 -13.057000 0
M  V30 11 O -6.295000 9.416000 -13.142000 0
M  V30 12 O -7.072000 6.703000 -12.337000 0
M  V30 13 N -13.613000 8.761000 -12.380000 0
M  V30 14 N -13.283000 6.469000 -12.245000 0
M  V30 15 N -11.213000 5.451000 -12.433000 0
M  V30 16 N -10.541000 8.830000 -12.859000 0
M  V30 17 N -9.351000 6.979000 -12.858000 0
M  V30 18 C -5.423000 8.318000 -13.014000 0
M  V30 19 C -12.504000 5.422000 -12.247000 0
M  V30 20 C -9.334000 8.294000 -12.973000 0
M  V30 21 C -7.782000 5.821000 -14.368000 0 CFG=2
M  V30 22 C -6.798000 6.936000 -14.655000 0 CFG=1
M  V30 23 C -8.181000 6.092000 -12.938000 0 CFG=1
M  V30 24 C -12.828000 7.703000 -12.396000 0
M  V30 25 C -6.102000 7.002000 -13.306000 0 CFG=2
M  V30 26 C -10.588000 6.606000 -12.661000 0
M  V30 27 C -11.383000 7.837000 -12.641000 0
M  V30 28 H -6.785900 4.441300 -15.367200 0
M  V30 29 H -6.522700 6.616400 -16.595700 0
M  V30 30 H -13.223500 9.674400 -12.498300 0
M  V30 31 H -14.598300 8.650600 -12.249600 0
M  V30 32 H -5.070500 8.296100 -12.078500 0
M  V30 33 H -4.663500 8.435600 -13.653800 0
M  V30 34 H -12.928900 4.529700 -12.094400 0
M  V30 35 H -8.502300 8.827000 -13.128900 0
M  V30 36 H -8.572100 5.870300 -14.979000 0
M  V30 37 H -7.307700 7.785000 -14.794300 0
M  V30 38 H -8.381200 5.228500 -12.475200 0
M  V30 39 H -5.407400 6.283100 -13.280700 0
M  V30 END ATOM
M  V30 BEGIN BOND
M  V30 1 2 1 3
M  V30 2 1 1 4
M  V30 3 1 1 5
M  V30 4 1 1 10
M  V30 5 2 2 6
M  V30 6 1 2 7 CFG=3
M  V30 7 1 2 10
M  V30 8 1 2 11
M  V30 9 1 8 21
M  V30 10 1 9 22
M  V30 11 1 11 18
M  V30 12 1 12 23
M  V30 13 1 12 25
M  V30 14 1 13 24
M  V30 15 2 14 19
M  V30 16 1 14 24
M  V30 17 1 15 19
M  V30 18 2 15 26
M  V30 19 2 16 20
M  V30 20 1 16 27
M  V30 21 1 17 20
M  V30 22 1 17 23
M  V30 23 1 17 26
M  V30 24 1 18 25
M  V30 25 1 21 22
M  V30 26 1 21 23
M  V30 27 1 22 25
M  V30 28 2 24 27
M  V30 29 1 26 27
M  V30 30 1 25 39 CFG=3
M  V30 31 1 23 38 CFG=1
M  V30 32 1 22 37 CFG=3
M  V30 33 1 8 28
M  V30 34 1 9 29
M  V30 35 1 13 30
M  V30 36 1 13 31
M  V30 37 1 18 32
M  V30 38 1 18 33
M  V30 39 1 19 34
M  V30 40 1 20 35
M  V30 41 1 21 36 CFG=3
M  V30 END BOND
M  V30 END CTAB
M  END
>  <Ligand_Instance>  (101) 
4XW6_ADP_A_403

>  <Dataset>  (101) 
PDB

>  <PDB_ID>  (101) 
4XW6

>  <Chain>  (101) 
A

>  <Resi>  (101) 
403

>  <Num_Resolved_Atoms>  (101) 
27

>  <Num_H_Atoms_ProtBoundConf>  (101) 
12

>  <Pocket>  (101) 
A

>  <Name>  (101) 
ADENOSINE-5'-DIPHOSPHATE

>  <Num_Not_Resolved_Atoms>  (101) 
0

>  <ATP_Site>  (101) 
True

>  <Peripheral>  (101) 
False

>  <Standardized_SMILES>  (101) 
[H]O[C@@]1([H])[C@@]([H])(O[H])[C@]([H])(N2C([H])=NC3=C2N=C([H])N=C3N([H])[H])O[C@]1([H])C([H])([H])O[P@](=O)([O-])OP(=O)([O-])[O-]

>  <2D_Mol_H>  (101) 
<rdkit.Chem.rdchem.Mol object at 0x77059d9e7990>

>  <MW>  (101) 
424.179

>  <HBA>  (101) 
15

>  <HBD>  (101) 
3

>  <LogP>  (101) 
-3.642

>  <NRB>  (101) 
9

>  <TPSA>  (101) 
241.09

>  <Num_Heavy_Atoms>  (101) 
27

>  <Ro5>  (101) 
[True, False, True, True, True, False]

>  <Ro5_Fulfilled>  (101) 
False

>  <Ro3>  (101) 
[False, False, True, True]

>  <Ro3_Fulfilled>  (101) 
False

>  <Fsp3>  (101) 
0.5

>  <Fsp3_0.42>  (101) 
True

>  <Fsp3_0.45>  (101) 
True

>  <Stereogenic_Carbons>  (101) 
4

>  <C_Atoms>  (101) 
10

>  <FCStereo>  (101) 
0.4

>  <SPS>  (101) 
769

>  <nSPS>  (101) 
28.481481

>  <PBF>  (101) 
0.728369

>  <PBF_0.6>  (101) 
True

>  <nPBF>  (101) 
0.026977

>  <nPBF_0.016>  (101) 
True

>  <PMI1>  (101) 
1425.507257

>  <PMI2>  (101) 
6251.983351

>  <PMI3>  (101) 
7200.755747

>  <NPR1>  (101) 
0.197966

>  <NPR2>  (101) 
0.86824

>  <Sum_NPR>  (101) 
1.066206

>  <Sum_NPR_1.07>  (101) 
False

>  <Sum_NPR_1.2>  (101) 
False

>  <MaxAbsEStateIndex>  (101) 
11.278955

>  <MaxEStateIndex>  (101) 
11.278955

>  <MinAbsEStateIndex>  (101) 
0.065524

>  <MinEStateIndex>  (101) 
-5.851432

>  <qed>  (101) 
0.378904

>  <MolWt>  (101) 
424.179

>  <HeavyAtomMolWt>  (101) 
412.083

>  <ExactMolWt>  (101) 
424.007586

>  <NumValenceElectrons>  (101) 
150

>  <NumRadicalElectrons>  (101) 
0

>  <MaxPartialCharge>  (101) 
0.271368

>  <MinPartialCharge>  (101) 
-0.789509

>  <MaxAbsPartialCharge>  (101) 
0.789509

>  <MinAbsPartialCharge>  (101) 
0.271368

>  <FpDensityMorgan1>  (101) 
1.222222

>  <FpDensityMorgan2>  (101) 
1.925926

>  <FpDensityMorgan3>  (101) 
2.592593

>  <BCUT2D_MWHI>  (101) 
31.27025

>  <BCUT2D_MWLOW>  (101) 
10.128388

>  <BCUT2D_CHGHI>  (101) 
2.444842

>  <BCUT2D_CHGLO>  (101) 
-2.350424

>  <BCUT2D_LOGPHI>  (101) 
2.503664

>  <BCUT2D_LOGPLOW>  (101) 
-2.337741

>  <BCUT2D_MRHI>  (101) 
7.580921

>  <BCUT2D_MRLOW>  (101) 
-0.339423

>  <AvgIpc>  (101) 
3.072773

>  <BalabanJ>  (101) 
1.748652

>  <BertzCT>  (101) 
932.232873

>  <Chi0>  (101) 
19.982763

>  <Chi0n>  (101) 
13.092254

>  <Chi0v>  (101) 
14.881108

>  <Chi1>  (101) 
12.483782

>  <Chi1n>  (101) 
7.119416

>  <Chi1v>  (101) 
10.040603

>  <Chi2n>  (101) 
5.401088

>  <Chi2v>  (101) 
8.101339

>  <Chi3n>  (101) 
3.595354

>  <Chi3v>  (101) 
5.660653

>  <Chi4n>  (101) 
2.463726

>  <Chi4v>  (101) 
3.961582

>  <HallKierAlpha>  (101) 
-1.51

>  <Ipc>  (101) 
807942.564302

>  <Kappa1>  (101) 
20.230095

>  <Kappa2>  (101) 
7.144568

>  <Kappa3>  (101) 
4.329348

>  <LabuteASA>  (101) 
149.760939

>  <PEOE_VSA1>  (101) 
44.452615

>  <PEOE_VSA10>  (101) 
30.15592

>  <PEOE_VSA11>  (101) 
17.692941

>  <PEOE_VSA12>  (101) 
0.0

>  <PEOE_VSA13>  (101) 
7.822697

>  <PEOE_VSA14>  (101) 
0.0

>  <PEOE_VSA2>  (101) 
13.442779

>  <PEOE_VSA3>  (101) 
14.951936

>  <PEOE_VSA4>  (101) 
0.0

>  <PEOE_VSA5>  (101) 
0.0

>  <PEOE_VSA6>  (101) 
0.0

>  <PEOE_VSA7>  (101) 
0.0

>  <PEOE_VSA8>  (101) 
0.0

>  <PEOE_VSA9>  (101) 
20.756899

>  <SMR_VSA1>  (101) 
47.594628

>  <SMR_VSA10>  (101) 
32.627135

>  <SMR_VSA2>  (101) 
0.0

>  <SMR_VSA3>  (101) 
19.519035

>  <SMR_VSA4>  (101) 
0.0

>  <SMR_VSA5>  (101) 
24.5398

>  <SMR_VSA6>  (101) 
12.340549

>  <SMR_VSA7>  (101) 
12.65464

>  <SMR_VSA8>  (101) 
0.0

>  <SMR_VSA9>  (101) 
0.0

>  <SlogP_VSA1>  (101) 
20.413902

>  <SlogP_VSA10>  (101) 
5.817863

>  <SlogP_VSA11>  (101) 
0.0

>  <SlogP_VSA12>  (101) 
15.645394

>  <SlogP_VSA2>  (101) 
54.650871

>  <SlogP_VSA3>  (101) 
22.701338

>  <SlogP_VSA4>  (101) 
0.0

>  <SlogP_VSA5>  (101) 
6.227901

>  <SlogP_VSA6>  (101) 
12.65464

>  <SlogP_VSA7>  (101) 
0.0

>  <SlogP_VSA8>  (101) 
11.163878

>  <SlogP_VSA9>  (101) 
0.0

>  <EState_VSA1>  (101) 
46.792077

>  <EState_VSA10>  (101) 
34.023386

>  <EState_VSA11>  (101) 
0.0

>  <EState_VSA2>  (101) 
16.981741

>  <EState_VSA3>  (101) 
0.0

>  <EState_VSA4>  (101) 
6.32732

>  <EState_VSA5>  (101) 
10.89442

>  <EState_VSA6>  (101) 
0.0

>  <EState_VSA7>  (101) 
0.0

>  <EState_VSA8>  (101) 
23.786314

>  <EState_VSA9>  (101) 
10.47053

>  <VSA_EState1>  (101) 
35.749107

>  <VSA_EState10>  (101) 
0.0

>  <VSA_EState2>  (101) 
43.665953

>  <VSA_EState3>  (101) 
20.193372

>  <VSA_EState4>  (101) 
6.037581

>  <VSA_EState5>  (101) 
0.065524

>  <VSA_EState6>  (101) 
0.0

>  <VSA_EState7>  (101) 
-3.478964

>  <VSA_EState8>  (101) 
-0.931293

>  <VSA_EState9>  (101) 
-11.356836

>  <FractionCSP3>  (101) 
0.5

>  <HeavyAtomCount>  (101) 
27

>  <NHOHCount>  (101) 
4

>  <NOCount>  (101) 
15

>  <NumAliphaticCarbocycles>  (101) 
0

>  <NumAliphaticHeterocycles>  (101) 
1

>  <NumAliphaticRings>  (101) 
1

>  <NumAromaticCarbocycles>  (101) 
0

>  <NumAromaticHeterocycles>  (101) 
2

>  <NumAromaticRings>  (101) 
2

>  <NumHAcceptors>  (101) 
15

>  <NumHDonors>  (101) 
3

>  <NumHeteroatoms>  (101) 
17

>  <NumRotatableBonds>  (101) 
6

>  <NumSaturatedCarbocycles>  (101) 
0

>  <NumSaturatedHeterocycles>  (101) 
1

>  <NumSaturatedRings>  (101) 
1

>  <RingCount>  (101) 
3

>  <MolLogP>  (101) 
-3.642

>  <MolMR>  (101) 
77.909

>  <fr_Al_COO>  (101) 
0

>  <fr_Al_OH>  (101) 
2

>  <fr_Al_OH_noTert>  (101) 
2

>  <fr_ArN>  (101) 
1

>  <fr_Ar_COO>  (101) 
0

>  <fr_Ar_N>  (101) 
4

>  <fr_Ar_NH>  (101) 
0

>  <fr_Ar_OH>  (101) 
0

>  <fr_COO>  (101) 
0

>  <fr_COO2>  (101) 
0

>  <fr_C_O>  (101) 
0

>  <fr_C_O_noCOO>  (101) 
0

>  <fr_C_S>  (101) 
0

>  <fr_HOCCN>  (101) 
0

>  <fr_Imine>  (101) 
0

>  <fr_NH0>  (101) 
4

>  <fr_NH1>  (101) 
0

>  <fr_NH2>  (101) 
1

>  <fr_N_O>  (101) 
0

>  <fr_Ndealkylation1>  (101) 
0

>  <fr_Ndealkylation2>  (101) 
0

>  <fr_Nhpyrrole>  (101) 
0

>  <fr_SH>  (101) 
0

>  <fr_aldehyde>  (101) 
0

>  <fr_alkyl_carbamate>  (101) 
0

>  <fr_alkyl_halide>  (101) 
0

>  <fr_allylic_oxid>  (101) 
0

>  <fr_amide>  (101) 
0

>  <fr_amidine>  (101) 
0

>  <fr_aniline>  (101) 
1

>  <fr_aryl_methyl>  (101) 
0

>  <fr_azide>  (101) 
0

>  <fr_azo>  (101) 
0

>  <fr_barbitur>  (101) 
0

>  <fr_benzene>  (101) 
0

>  <fr_benzodiazepine>  (101) 
0

>  <fr_bicyclic>  (101) 
1

>  <fr_diazo>  (101) 
0

>  <fr_dihydropyridine>  (101) 
0

>  <fr_epoxide>  (101) 
0

>  <fr_ester>  (101) 
0

>  <fr_ether>  (101) 
1

>  <fr_furan>  (101) 
0

>  <fr_guanido>  (101) 
0

>  <fr_halogen>  (101) 
0

>  <fr_hdrzine>  (101) 
0

>  <fr_hdrzone>  (101) 
0

>  <fr_imidazole>  (101) 
1

>  <fr_imide>  (101) 
0

>  <fr_isocyan>  (101) 
0

>  <fr_isothiocyan>  (101) 
0

>  <fr_ketone>  (101) 
0

>  <fr_ketone_Topliss>  (101) 
0

>  <fr_lactam>  (101) 
0

>  <fr_lactone>  (101) 
0

>  <fr_methoxy>  (101) 
0

>  <fr_morpholine>  (101) 
0

>  <fr_nitrile>  (101) 
0

>  <fr_nitro>  (101) 
0

>  <fr_nitro_arom>  (101) 
0

>  <fr_nitro_arom_nonortho>  (101) 
0

>  <fr_nitroso>  (101) 
0

>  <fr_oxazole>  (101) 
0

>  <fr_oxime>  (101) 
0

>  <fr_para_hydroxylation>  (101) 
0

>  <fr_phenol>  (101) 
0

>  <fr_phenol_noOrthoHbond>  (101) 
0

>  <fr_phos_acid>  (101) 
2

>  <fr_phos_ester>  (101) 
1

>  <fr_piperdine>  (101) 
0

>  <fr_piperzine>  (101) 
0

>  <fr_priamide>  (101) 
0

>  <fr_prisulfonamd>  (101) 
0

>  <fr_pyridine>  (101) 
0

>  <fr_quatN>  (101) 
0

>  <fr_sulfide>  (101) 
0

>  <fr_sulfonamd>  (101) 
0

>  <fr_sulfone>  (101) 
0

>  <fr_term_acetylene>  (101) 
0

>  <fr_tetrazole>  (101) 
0

>  <fr_thiazole>  (101) 
0

>  <fr_thiocyan>  (101) 
0

>  <fr_thiophene>  (101) 
0

>  <fr_unbrch_alkane>  (101) 
0

>  <fr_urea>  (101) 
0

>  <NP_Likeness>  (101) 
0.931308

$$$$
ADP
     RDKit          3D

  0  0  0  0  0  0  0  0  0  0999 V3000
M  V30 BEGIN CTAB
M  V30 COUNTS 39 41 0 0 0
M  V30 BEGIN ATOM
M  V30 1 P -2.447000 10.985000 -13.334000 0
M  V30 2 P -5.123000 10.222000 -13.661000 0 CFG=2
M  V30 3 O -1.907000 10.375000 -14.546000 0
M  V30 4 O -2.558000 12.566000 -13.446000 0 CHG=-1
M  V30 5 O -1.422000 10.597000 -12.164000 0 CHG=-1
M  V30 6 O -4.907000 10.078000 -15.175000 0
M  V30 7 O -6.023000 11.353000 -13.361000 0 CHG=-1
M  V30 8 O -7.061000 4.236000 -14.370000 0
M  V30 9 O -5.743000 6.179000 -15.796000 0
M  V30 10 O -3.798000 10.398000 -12.799000 0
M  V30 11 O -5.798000 8.895000 -13.048000 0
M  V30 12 O -6.510000 6.389000 -12.232000 0
M  V30 13 N -12.993000 8.943000 -11.793000 0
M  V30 14 N -12.828000 6.584000 -11.788000 0
M  V30 15 N -10.853000 5.421000 -12.139000 0
M  V30 16 N -9.942000 8.794000 -12.409000 0
M  V30 17 N -8.868000 6.894000 -12.550000 0
M  V30 18 C -4.810000 7.854000 -13.150000 0
M  V30 19 C -12.159000 5.436000 -11.894000 0
M  V30 20 C -8.787000 8.262000 -12.603000 0
M  V30 21 C -7.566000 5.577000 -14.207000 0 CFG=2
M  V30 22 C -6.450000 6.570000 -14.613000 0 CFG=1
M  V30 23 C -7.769000 5.905000 -12.708000 0 CFG=1
M  V30 24 C -12.241000 7.789000 -11.930000 0
M  V30 25 C -5.571000 6.544000 -13.350000 0 CFG=2
M  V30 26 C -10.180000 6.580000 -12.291000 0
M  V30 27 C -10.856000 7.821000 -12.198000 0
M  V30 28 H -6.386600 4.221200 -15.108200 0
M  V30 29 H -6.196300 6.566700 -16.598700 0
M  V30 30 H -12.559200 9.837900 -11.898000 0
M  V30 31 H -13.970100 8.881800 -11.589000 0
M  V30 32 H -4.265900 7.812000 -12.312000 0
M  V30 33 H -4.208100 8.025400 -13.930000 0
M  V30 34 H -12.648600 4.570600 -11.787300 0
M  V30 35 H -7.945300 8.775600 -12.769600 0
M  V30 36 H -8.402500 5.724300 -14.734800 0
M  V30 37 H -6.838000 7.483300 -14.736700 0
M  V30 38 H -8.006800 5.067100 -12.216800 0
M  V30 39 H -4.935800 5.772400 -13.382300 0
M  V30 END ATOM
M  V30 BEGIN BOND
M  V30 1 2 1 3
M  V30 2 1 1 4
M  V30 3 1 1 5
M  V30 4 1 1 10
M  V30 5 2 2 6
M  V30 6 1 2 7 CFG=3
M  V30 7 1 2 10
M  V30 8 1 2 11
M  V30 9 1 8 21
M  V30 10 1 9 22
M  V30 11 1 11 18
M  V30 12 1 12 23
M  V30 13 1 12 25
M  V30 14 1 13 24
M  V30 15 2 14 19
M  V30 16 1 14 24
M  V30 17 1 15 19
M  V30 18 2 15 26
M  V30 19 2 16 20
M  V30 20 1 16 27
M  V30 21 1 17 20
M  V30 22 1 17 23
M  V30 23 1 17 26
M  V30 24 1 18 25
M  V30 25 1 21 22
M  V30 26 1 21 23
M  V30 27 1 22 25
M  V30 28 2 24 27
M  V30 29 1 26 27
M  V30 30 1 25 39 CFG=3
M  V30 31 1 23 38 CFG=1
M  V30 32 1 22 37 CFG=3
M  V30 33 1 8 28
M  V30 34 1 9 29
M  V30 35 1 13 30
M  V30 36 1 13 31
M  V30 37 1 18 32
M  V30 38 1 18 33
M  V30 39 1 19 34
M  V30 40 1 20 35
M  V30 41 1 21 36 CFG=3
M  V30 END BOND
M  V30 END CTAB
M  END
>  <Ligand_Instance>  (102) 
6E21_ADP_A_403

>  <Dataset>  (102) 
PDB

>  <PDB_ID>  (102) 
6000000000000000000000.0

>  <Chain>  (102) 
A

>  <Resi>  (102) 
403

>  <Num_Resolved_Atoms>  (102) 
27

>  <Num_H_Atoms_ProtBoundConf>  (102) 
12

>  <Pocket>  (102) 
A

>  <Name>  (102) 
ADENOSINE-5'-DIPHOSPHATE

>  <Num_Not_Resolved_Atoms>  (102) 
0

>  <ATP_Site>  (102) 
True

>  <Peripheral>  (102) 
False

>  <Standardized_SMILES>  (102) 
[H]O[C@@]1([H])[C@@]([H])(O[H])[C@]([H])(N2C([H])=NC3=C2N=C([H])N=C3N([H])[H])O[C@]1([H])C([H])([H])O[P@@](=O)([O-])OP(=O)([O-])[O-]

>  <2D_Mol_H>  (102) 
<rdkit.Chem.rdchem.Mol object at 0x77059d9e7a70>

>  <MW>  (102) 
424.179

>  <HBA>  (102) 
15

>  <HBD>  (102) 
3

>  <LogP>  (102) 
-3.642

>  <NRB>  (102) 
9

>  <TPSA>  (102) 
241.09

>  <Num_Heavy_Atoms>  (102) 
27

>  <Ro5>  (102) 
[True, False, True, True, True, False]

>  <Ro5_Fulfilled>  (102) 
False

>  <Ro3>  (102) 
[False, False, True, True]

>  <Ro3_Fulfilled>  (102) 
False

>  <Fsp3>  (102) 
0.5

>  <Fsp3_0.42>  (102) 
True

>  <Fsp3_0.45>  (102) 
True

>  <Stereogenic_Carbons>  (102) 
4

>  <C_Atoms>  (102) 
10

>  <FCStereo>  (102) 
0.4

>  <SPS>  (102) 
769

>  <nSPS>  (102) 
28.481481

>  <PBF>  (102) 
0.717365

>  <PBF_0.6>  (102) 
True

>  <nPBF>  (102) 
0.026569

>  <nPBF_0.016>  (102) 
True

>  <PMI1>  (102) 
1506.931256

>  <PMI2>  (102) 
6171.437651

>  <PMI3>  (102) 
7134.717202

>  <NPR1>  (102) 
0.211211

>  <NPR2>  (102) 
0.864987

>  <Sum_NPR>  (102) 
1.076198

>  <Sum_NPR_1.07>  (102) 
True

>  <Sum_NPR_1.2>  (102) 
False

>  <MaxAbsEStateIndex>  (102) 
11.278955

>  <MaxEStateIndex>  (102) 
11.278955

>  <MinAbsEStateIndex>  (102) 
0.065524

>  <MinEStateIndex>  (102) 
-5.851432

>  <qed>  (102) 
0.378904

>  <MolWt>  (102) 
424.179

>  <HeavyAtomMolWt>  (102) 
412.083

>  <ExactMolWt>  (102) 
424.007586

>  <NumValenceElectrons>  (102) 
150

>  <NumRadicalElectrons>  (102) 
0

>  <MaxPartialCharge>  (102) 
0.271368

>  <MinPartialCharge>  (102) 
-0.789509

>  <MaxAbsPartialCharge>  (102) 
0.789509

>  <MinAbsPartialCharge>  (102) 
0.271368

>  <FpDensityMorgan1>  (102) 
1.222222

>  <FpDensityMorgan2>  (102) 
1.925926

>  <FpDensityMorgan3>  (102) 
2.592593

>  <BCUT2D_MWHI>  (102) 
31.27025

>  <BCUT2D_MWLOW>  (102) 
10.128388

>  <BCUT2D_CHGHI>  (102) 
2.444842

>  <BCUT2D_CHGLO>  (102) 
-2.350424

>  <BCUT2D_LOGPHI>  (102) 
2.503664

>  <BCUT2D_LOGPLOW>  (102) 
-2.337741

>  <BCUT2D_MRHI>  (102) 
7.580921

>  <BCUT2D_MRLOW>  (102) 
-0.339423

>  <AvgIpc>  (102) 
3.072773

>  <BalabanJ>  (102) 
1.748652

>  <BertzCT>  (102) 
932.232873

>  <Chi0>  (102) 
19.982763

>  <Chi0n>  (102) 
13.092254

>  <Chi0v>  (102) 
14.881108

>  <Chi1>  (102) 
12.483782

>  <Chi1n>  (102) 
7.119416

>  <Chi1v>  (102) 
10.040603

>  <Chi2n>  (102) 
5.401088

>  <Chi2v>  (102) 
8.101339

>  <Chi3n>  (102) 
3.595354

>  <Chi3v>  (102) 
5.660653

>  <Chi4n>  (102) 
2.463726

>  <Chi4v>  (102) 
3.961582

>  <HallKierAlpha>  (102) 
-1.51

>  <Ipc>  (102) 
807942.564302

>  <Kappa1>  (102) 
20.230095

>  <Kappa2>  (102) 
7.144568

>  <Kappa3>  (102) 
4.329348

>  <LabuteASA>  (102) 
149.760939

>  <PEOE_VSA1>  (102) 
44.452615

>  <PEOE_VSA10>  (102) 
30.15592

>  <PEOE_VSA11>  (102) 
17.692941

>  <PEOE_VSA12>  (102) 
0.0

>  <PEOE_VSA13>  (102) 
7.822697

>  <PEOE_VSA14>  (102) 
0.0

>  <PEOE_VSA2>  (102) 
13.442779

>  <PEOE_VSA3>  (102) 
14.951936

>  <PEOE_VSA4>  (102) 
0.0

>  <PEOE_VSA5>  (102) 
0.0

>  <PEOE_VSA6>  (102) 
0.0

>  <PEOE_VSA7>  (102) 
0.0

>  <PEOE_VSA8>  (102) 
0.0

>  <PEOE_VSA9>  (102) 
20.756899

>  <SMR_VSA1>  (102) 
47.594628

>  <SMR_VSA10>  (102) 
32.627135

>  <SMR_VSA2>  (102) 
0.0

>  <SMR_VSA3>  (102) 
19.519035

>  <SMR_VSA4>  (102) 
0.0

>  <SMR_VSA5>  (102) 
24.5398

>  <SMR_VSA6>  (102) 
12.340549

>  <SMR_VSA7>  (102) 
12.65464

>  <SMR_VSA8>  (102) 
0.0

>  <SMR_VSA9>  (102) 
0.0

>  <SlogP_VSA1>  (102) 
20.413902

>  <SlogP_VSA10>  (102) 
5.817863

>  <SlogP_VSA11>  (102) 
0.0

>  <SlogP_VSA12>  (102) 
15.645394

>  <SlogP_VSA2>  (102) 
54.650871

>  <SlogP_VSA3>  (102) 
22.701338

>  <SlogP_VSA4>  (102) 
0.0

>  <SlogP_VSA5>  (102) 
6.227901

>  <SlogP_VSA6>  (102) 
12.65464

>  <SlogP_VSA7>  (102) 
0.0

>  <SlogP_VSA8>  (102) 
11.163878

>  <SlogP_VSA9>  (102) 
0.0

>  <EState_VSA1>  (102) 
46.792077

>  <EState_VSA10>  (102) 
34.023386

>  <EState_VSA11>  (102) 
0.0

>  <EState_VSA2>  (102) 
16.981741

>  <EState_VSA3>  (102) 
0.0

>  <EState_VSA4>  (102) 
6.32732

>  <EState_VSA5>  (102) 
10.89442

>  <EState_VSA6>  (102) 
0.0

>  <EState_VSA7>  (102) 
0.0

>  <EState_VSA8>  (102) 
23.786314

>  <EState_VSA9>  (102) 
10.47053

>  <VSA_EState1>  (102) 
35.749107

>  <VSA_EState10>  (102) 
0.0

>  <VSA_EState2>  (102) 
43.665953

>  <VSA_EState3>  (102) 
20.193372

>  <VSA_EState4>  (102) 
6.037581

>  <VSA_EState5>  (102) 
0.065524

>  <VSA_EState6>  (102) 
0.0

>  <VSA_EState7>  (102) 
-3.478964

>  <VSA_EState8>  (102) 
-0.931293

>  <VSA_EState9>  (102) 
-11.356836

>  <FractionCSP3>  (102) 
0.5

>  <HeavyAtomCount>  (102) 
27

>  <NHOHCount>  (102) 
4

>  <NOCount>  (102) 
15

>  <NumAliphaticCarbocycles>  (102) 
0

>  <NumAliphaticHeterocycles>  (102) 
1

>  <NumAliphaticRings>  (102) 
1

>  <NumAromaticCarbocycles>  (102) 
0

>  <NumAromaticHeterocycles>  (102) 
2

>  <NumAromaticRings>  (102) 
2

>  <NumHAcceptors>  (102) 
15

>  <NumHDonors>  (102) 
3

>  <NumHeteroatoms>  (102) 
17

>  <NumRotatableBonds>  (102) 
6

>  <NumSaturatedCarbocycles>  (102) 
0

>  <NumSaturatedHeterocycles>  (102) 
1

>  <NumSaturatedRings>  (102) 
1

>  <RingCount>  (102) 
3

>  <MolLogP>  (102) 
-3.642

>  <MolMR>  (102) 
77.909

>  <fr_Al_COO>  (102) 
0

>  <fr_Al_OH>  (102) 
2

>  <fr_Al_OH_noTert>  (102) 
2

>  <fr_ArN>  (102) 
1

>  <fr_Ar_COO>  (102) 
0

>  <fr_Ar_N>  (102) 
4

>  <fr_Ar_NH>  (102) 
0

>  <fr_Ar_OH>  (102) 
0

>  <fr_COO>  (102) 
0

>  <fr_COO2>  (102) 
0

>  <fr_C_O>  (102) 
0

>  <fr_C_O_noCOO>  (102) 
0

>  <fr_C_S>  (102) 
0

>  <fr_HOCCN>  (102) 
0

>  <fr_Imine>  (102) 
0

>  <fr_NH0>  (102) 
4

>  <fr_NH1>  (102) 
0

>  <fr_NH2>  (102) 
1

>  <fr_N_O>  (102) 
0

>  <fr_Ndealkylation1>  (102) 
0

>  <fr_Ndealkylation2>  (102) 
0

>  <fr_Nhpyrrole>  (102) 
0

>  <fr_SH>  (102) 
0

>  <fr_aldehyde>  (102) 
0

>  <fr_alkyl_carbamate>  (102) 
0

>  <fr_alkyl_halide>  (102) 
0

>  <fr_allylic_oxid>  (102) 
0

>  <fr_amide>  (102) 
0

>  <fr_amidine>  (102) 
0

>  <fr_aniline>  (102) 
1

>  <fr_aryl_methyl>  (102) 
0

>  <fr_azide>  (102) 
0

>  <fr_azo>  (102) 
0

>  <fr_barbitur>  (102) 
0

>  <fr_benzene>  (102) 
0

>  <fr_benzodiazepine>  (102) 
0

>  <fr_bicyclic>  (102) 
1

>  <fr_diazo>  (102) 
0

>  <fr_dihydropyridine>  (102) 
0

>  <fr_epoxide>  (102) 
0

>  <fr_ester>  (102) 
0

>  <fr_ether>  (102) 
1

>  <fr_furan>  (102) 
0

>  <fr_guanido>  (102) 
0

>  <fr_halogen>  (102) 
0

>  <fr_hdrzine>  (102) 
0

>  <fr_hdrzone>  (102) 
0

>  <fr_imidazole>  (102) 
1

>  <fr_imide>  (102) 
0

>  <fr_isocyan>  (102) 
0

>  <fr_isothiocyan>  (102) 
0

>  <fr_ketone>  (102) 
0

>  <fr_ketone_Topliss>  (102) 
0

>  <fr_lactam>  (102) 
0

>  <fr_lactone>  (102) 
0

>  <fr_methoxy>  (102) 
0

>  <fr_morpholine>  (102) 
0

>  <fr_nitrile>  (102) 
0

>  <fr_nitro>  (102) 
0

>  <fr_nitro_arom>  (102) 
0

>  <fr_nitro_arom_nonortho>  (102) 
0

>  <fr_nitroso>  (102) 
0

>  <fr_oxazole>  (102) 
0

>  <fr_oxime>  (102) 
0

>  <fr_para_hydroxylation>  (102) 
0

>  <fr_phenol>  (102) 
0

>  <fr_phenol_noOrthoHbond>  (102) 
0

>  <fr_phos_acid>  (102) 
2

>  <fr_phos_ester>  (102) 
1

>  <fr_piperdine>  (102) 
0

>  <fr_piperzine>  (102) 
0

>  <fr_priamide>  (102) 
0

>  <fr_prisulfonamd>  (102) 
0

>  <fr_pyridine>  (102) 
0

>  <fr_quatN>  (102) 
0

>  <fr_sulfide>  (102) 
0

>  <fr_sulfonamd>  (102) 
0

>  <fr_sulfone>  (102) 
0

>  <fr_term_acetylene>  (102) 
0

>  <fr_tetrazole>  (102) 
0

>  <fr_thiazole>  (102) 
0

>  <fr_thiocyan>  (102) 
0

>  <fr_thiophene>  (102) 
0

>  <fr_unbrch_alkane>  (102) 
0

>  <fr_urea>  (102) 
0

>  <NP_Likeness>  (102) 
0.931308

$$$$
ADP
     RDKit          3D

  0  0  0  0  0  0  0  0  0  0999 V3000
M  V30 BEGIN CTAB
M  V30 COUNTS 39 41 0 0 0
M  V30 BEGIN ATOM
M  V30 1 P -4.167000 16.248000 -7.440000 0
M  V30 2 P -6.257000 14.734000 -9.012000 0 CFG=2
M  V30 3 O -3.285000 15.689000 -8.515000 0
M  V30 4 O -3.926000 15.769000 -6.025000 0 CHG=-1
M  V30 5 O -4.333000 17.759000 -7.530000 0 CHG=-1
M  V30 6 O -5.370000 14.521000 -10.218000 0
M  V30 7 O -7.669000 15.177000 -9.263000 0 CHG=-1
M  V30 8 O -6.661000 8.303000 -8.524000 0
M  V30 9 O -5.846000 10.244000 -10.366000 0
M  V30 10 O -5.662000 15.714000 -7.861000 0
M  V30 11 O -6.334000 13.311000 -8.234000 0
M  V30 12 O -6.554000 10.852000 -6.894000 0
M  V30 13 N -13.287000 12.036000 -7.023000 0
M  V30 14 N -12.800000 9.721000 -7.051000 0
M  V30 15 N -10.560000 8.937000 -7.122000 0
M  V30 16 N -10.322000 12.488000 -7.095000 0
M  V30 17 N -8.903000 10.776000 -7.143000 0
M  V30 18 C -5.217000 12.433000 -8.142000 0
M  V30 19 C -11.889000 8.728000 -7.091000 0
M  V30 20 C -9.028000 12.128000 -7.134000 0
M  V30 21 C -7.428000 9.502000 -8.609000 0 CFG=2
M  V30 22 C -6.616000 10.624000 -9.216000 0 CFG=1
M  V30 23 C -7.656000 9.999000 -7.191000 0 CFG=1
M  V30 24 C -12.432000 11.014000 -7.057000 0
M  V30 25 C -5.733000 11.006000 -8.045000 0 CFG=2
M  V30 26 C -10.102000 10.220000 -7.120000 0
M  V30 27 C -11.022000 11.332000 -7.078000 0
M  V30 28 H -6.972200 7.762900 -7.742000 0
M  V30 29 H -6.312600 9.503600 -10.849800 0
M  V30 30 H -12.944000 12.975300 -7.029900 0
M  V30 31 H -14.271500 11.863400 -6.990600 0
M  V30 32 H -4.680300 12.653900 -7.327700 0
M  V30 33 H -4.643600 12.530000 -8.955500 0
M  V30 34 H -12.219100 7.784100 -7.098000 0
M  V30 35 H -8.260800 12.769100 -7.153700 0
M  V30 36 H -8.289300 9.359400 -9.096700 0
M  V30 37 H -7.217200 11.388300 -9.449300 0
M  V30 38 H -7.692400 9.232600 -6.549600 0
M  V30 39 H -4.959600 10.374400 -7.990200 0
M  V30 END ATOM
M  V30 BEGIN BOND
M  V30 1 2 1 3
M  V30 2 1 1 4
M  V30 3 1 1 5
M  V30 4 1 1 10
M  V30 5 2 2 6
M  V30 6 1 2 7 CFG=3
M  V30 7 1 2 10
M  V30 8 1 2 11
M  V30 9 1 8 21
M  V30 10 1 9 22
M  V30 11 1 11 18
M  V30 12 1 12 23
M  V30 13 1 12 25
M  V30 14 1 13 24
M  V30 15 2 14 19
M  V30 16 1 14 24
M  V30 17 1 15 19
M  V30 18 2 15 26
M  V30 19 2 16 20
M  V30 20 1 16 27
M  V30 21 1 17 20
M  V30 22 1 17 23
M  V30 23 1 17 26
M  V30 24 1 18 25
M  V30 25 1 21 22
M  V30 26 1 21 23
M  V30 27 1 22 25
M  V30 28 2 24 27
M  V30 29 1 26 27
M  V30 30 1 25 39 CFG=1
M  V30 31 1 23 38 CFG=1
M  V30 32 1 22 37 CFG=3
M  V30 33 1 8 28
M  V30 34 1 9 29
M  V30 35 1 13 30
M  V30 36 1 13 31
M  V30 37 1 18 32
M  V30 38 1 18 33
M  V30 39 1 19 34
M  V30 40 1 20 35
M  V30 41 1 21 36 CFG=3
M  V30 END BOND
M  V30 END CTAB
M  END
>  <Ligand_Instance>  (103) 
6EM6_ADP_A_401

>  <Dataset>  (103) 
PDB

>  <PDB_ID>  (103) 
6EM6

>  <Chain>  (103) 
A

>  <Resi>  (103) 
401

>  <Num_Resolved_Atoms>  (103) 
27

>  <Num_H_Atoms_ProtBoundConf>  (103) 
12

>  <Pocket>  (103) 
A

>  <Name>  (103) 
ADENOSINE-5'-DIPHOSPHATE

>  <Num_Not_Resolved_Atoms>  (103) 
0

>  <ATP_Site>  (103) 
True

>  <Peripheral>  (103) 
False

>  <Standardized_SMILES>  (103) 
[H]O[C@@]1([H])[C@@]([H])(O[H])[C@]([H])(N2C([H])=NC3=C2N=C([H])N=C3N([H])[H])O[C@]1([H])C([H])([H])O[P@@](=O)([O-])OP(=O)([O-])[O-]

>  <2D_Mol_H>  (103) 
<rdkit.Chem.rdchem.Mol object at 0x77059d9e7b50>

>  <MW>  (103) 
424.179

>  <HBA>  (103) 
15

>  <HBD>  (103) 
3

>  <LogP>  (103) 
-3.642

>  <NRB>  (103) 
9

>  <TPSA>  (103) 
241.09

>  <Num_Heavy_Atoms>  (103) 
27

>  <Ro5>  (103) 
[True, False, True, True, True, False]

>  <Ro5_Fulfilled>  (103) 
False

>  <Ro3>  (103) 
[False, False, True, True]

>  <Ro3_Fulfilled>  (103) 
False

>  <Fsp3>  (103) 
0.5

>  <Fsp3_0.42>  (103) 
True

>  <Fsp3_0.45>  (103) 
True

>  <Stereogenic_Carbons>  (103) 
4

>  <C_Atoms>  (103) 
10

>  <FCStereo>  (103) 
0.4

>  <SPS>  (103) 
769

>  <nSPS>  (103) 
28.481481

>  <PBF>  (103) 
0.734449

>  <PBF_0.6>  (103) 
True

>  <nPBF>  (103) 
0.027202

>  <nPBF_0.016>  (103) 
True

>  <PMI1>  (103) 
1698.447382

>  <PMI2>  (103) 
5636.81256

>  <PMI3>  (103) 
6579.975855

>  <NPR1>  (103) 
0.258124

>  <NPR2>  (103) 
0.856662

>  <Sum_NPR>  (103) 
1.114785

>  <Sum_NPR_1.07>  (103) 
True

>  <Sum_NPR_1.2>  (103) 
False

>  <MaxAbsEStateIndex>  (103) 
11.278955

>  <MaxEStateIndex>  (103) 
11.278955

>  <MinAbsEStateIndex>  (103) 
0.065524

>  <MinEStateIndex>  (103) 
-5.851432

>  <qed>  (103) 
0.378904

>  <MolWt>  (103) 
424.179

>  <HeavyAtomMolWt>  (103) 
412.083

>  <ExactMolWt>  (103) 
424.007586

>  <NumValenceElectrons>  (103) 
150

>  <NumRadicalElectrons>  (103) 
0

>  <MaxPartialCharge>  (103) 
0.271368

>  <MinPartialCharge>  (103) 
-0.789509

>  <MaxAbsPartialCharge>  (103) 
0.789509

>  <MinAbsPartialCharge>  (103) 
0.271368

>  <FpDensityMorgan1>  (103) 
1.222222

>  <FpDensityMorgan2>  (103) 
1.925926

>  <FpDensityMorgan3>  (103) 
2.592593

>  <BCUT2D_MWHI>  (103) 
31.27025

>  <BCUT2D_MWLOW>  (103) 
10.128388

>  <BCUT2D_CHGHI>  (103) 
2.444842

>  <BCUT2D_CHGLO>  (103) 
-2.350424

>  <BCUT2D_LOGPHI>  (103) 
2.503664

>  <BCUT2D_LOGPLOW>  (103) 
-2.337741

>  <BCUT2D_MRHI>  (103) 
7.580921

>  <BCUT2D_MRLOW>  (103) 
-0.339423

>  <AvgIpc>  (103) 
3.072773

>  <BalabanJ>  (103) 
1.748652

>  <BertzCT>  (103) 
932.232873

>  <Chi0>  (103) 
19.982763

>  <Chi0n>  (103) 
13.092254

>  <Chi0v>  (103) 
14.881108

>  <Chi1>  (103) 
12.483782

>  <Chi1n>  (103) 
7.119416

>  <Chi1v>  (103) 
10.040603

>  <Chi2n>  (103) 
5.401088

>  <Chi2v>  (103) 
8.101339

>  <Chi3n>  (103) 
3.595354

>  <Chi3v>  (103) 
5.660653

>  <Chi4n>  (103) 
2.463726

>  <Chi4v>  (103) 
3.961582

>  <HallKierAlpha>  (103) 
-1.51

>  <Ipc>  (103) 
807942.564302

>  <Kappa1>  (103) 
20.230095

>  <Kappa2>  (103) 
7.144568

>  <Kappa3>  (103) 
4.329348

>  <LabuteASA>  (103) 
149.760939

>  <PEOE_VSA1>  (103) 
44.452615

>  <PEOE_VSA10>  (103) 
30.15592

>  <PEOE_VSA11>  (103) 
17.692941

>  <PEOE_VSA12>  (103) 
0.0

>  <PEOE_VSA13>  (103) 
7.822697

>  <PEOE_VSA14>  (103) 
0.0

>  <PEOE_VSA2>  (103) 
13.442779

>  <PEOE_VSA3>  (103) 
14.951936

>  <PEOE_VSA4>  (103) 
0.0

>  <PEOE_VSA5>  (103) 
0.0

>  <PEOE_VSA6>  (103) 
0.0

>  <PEOE_VSA7>  (103) 
0.0

>  <PEOE_VSA8>  (103) 
0.0

>  <PEOE_VSA9>  (103) 
20.756899

>  <SMR_VSA1>  (103) 
47.594628

>  <SMR_VSA10>  (103) 
32.627135

>  <SMR_VSA2>  (103) 
0.0

>  <SMR_VSA3>  (103) 
19.519035

>  <SMR_VSA4>  (103) 
0.0

>  <SMR_VSA5>  (103) 
24.5398

>  <SMR_VSA6>  (103) 
12.340549

>  <SMR_VSA7>  (103) 
12.65464

>  <SMR_VSA8>  (103) 
0.0

>  <SMR_VSA9>  (103) 
0.0

>  <SlogP_VSA1>  (103) 
20.413902

>  <SlogP_VSA10>  (103) 
5.817863

>  <SlogP_VSA11>  (103) 
0.0

>  <SlogP_VSA12>  (103) 
15.645394

>  <SlogP_VSA2>  (103) 
54.650871

>  <SlogP_VSA3>  (103) 
22.701338

>  <SlogP_VSA4>  (103) 
0.0

>  <SlogP_VSA5>  (103) 
6.227901

>  <SlogP_VSA6>  (103) 
12.65464

>  <SlogP_VSA7>  (103) 
0.0

>  <SlogP_VSA8>  (103) 
11.163878

>  <SlogP_VSA9>  (103) 
0.0

>  <EState_VSA1>  (103) 
46.792077

>  <EState_VSA10>  (103) 
34.023386

>  <EState_VSA11>  (103) 
0.0

>  <EState_VSA2>  (103) 
16.981741

>  <EState_VSA3>  (103) 
0.0

>  <EState_VSA4>  (103) 
6.32732

>  <EState_VSA5>  (103) 
10.89442

>  <EState_VSA6>  (103) 
0.0

>  <EState_VSA7>  (103) 
0.0

>  <EState_VSA8>  (103) 
23.786314

>  <EState_VSA9>  (103) 
10.47053

>  <VSA_EState1>  (103) 
35.749107

>  <VSA_EState10>  (103) 
0.0

>  <VSA_EState2>  (103) 
43.665953

>  <VSA_EState3>  (103) 
20.193372

>  <VSA_EState4>  (103) 
6.037581

>  <VSA_EState5>  (103) 
0.065524

>  <VSA_EState6>  (103) 
0.0

>  <VSA_EState7>  (103) 
-3.478964

>  <VSA_EState8>  (103) 
-0.931293

>  <VSA_EState9>  (103) 
-11.356836

>  <FractionCSP3>  (103) 
0.5

>  <HeavyAtomCount>  (103) 
27

>  <NHOHCount>  (103) 
4

>  <NOCount>  (103) 
15

>  <NumAliphaticCarbocycles>  (103) 
0

>  <NumAliphaticHeterocycles>  (103) 
1

>  <NumAliphaticRings>  (103) 
1

>  <NumAromaticCarbocycles>  (103) 
0

>  <NumAromaticHeterocycles>  (103) 
2

>  <NumAromaticRings>  (103) 
2

>  <NumHAcceptors>  (103) 
15

>  <NumHDonors>  (103) 
3

>  <NumHeteroatoms>  (103) 
17

>  <NumRotatableBonds>  (103) 
6

>  <NumSaturatedCarbocycles>  (103) 
0

>  <NumSaturatedHeterocycles>  (103) 
1

>  <NumSaturatedRings>  (103) 
1

>  <RingCount>  (103) 
3

>  <MolLogP>  (103) 
-3.642

>  <MolMR>  (103) 
77.909

>  <fr_Al_COO>  (103) 
0

>  <fr_Al_OH>  (103) 
2

>  <fr_Al_OH_noTert>  (103) 
2

>  <fr_ArN>  (103) 
1

>  <fr_Ar_COO>  (103) 
0

>  <fr_Ar_N>  (103) 
4

>  <fr_Ar_NH>  (103) 
0

>  <fr_Ar_OH>  (103) 
0

>  <fr_COO>  (103) 
0

>  <fr_COO2>  (103) 
0

>  <fr_C_O>  (103) 
0

>  <fr_C_O_noCOO>  (103) 
0

>  <fr_C_S>  (103) 
0

>  <fr_HOCCN>  (103) 
0

>  <fr_Imine>  (103) 
0

>  <fr_NH0>  (103) 
4

>  <fr_NH1>  (103) 
0

>  <fr_NH2>  (103) 
1

>  <fr_N_O>  (103) 
0

>  <fr_Ndealkylation1>  (103) 
0

>  <fr_Ndealkylation2>  (103) 
0

>  <fr_Nhpyrrole>  (103) 
0

>  <fr_SH>  (103) 
0

>  <fr_aldehyde>  (103) 
0

>  <fr_alkyl_carbamate>  (103) 
0

>  <fr_alkyl_halide>  (103) 
0

>  <fr_allylic_oxid>  (103) 
0

>  <fr_amide>  (103) 
0

>  <fr_amidine>  (103) 
0

>  <fr_aniline>  (103) 
1

>  <fr_aryl_methyl>  (103) 
0

>  <fr_azide>  (103) 
0

>  <fr_azo>  (103) 
0

>  <fr_barbitur>  (103) 
0

>  <fr_benzene>  (103) 
0

>  <fr_benzodiazepine>  (103) 
0

>  <fr_bicyclic>  (103) 
1

>  <fr_diazo>  (103) 
0

>  <fr_dihydropyridine>  (103) 
0

>  <fr_epoxide>  (103) 
0

>  <fr_ester>  (103) 
0

>  <fr_ether>  (103) 
1

>  <fr_furan>  (103) 
0

>  <fr_guanido>  (103) 
0

>  <fr_halogen>  (103) 
0

>  <fr_hdrzine>  (103) 
0

>  <fr_hdrzone>  (103) 
0

>  <fr_imidazole>  (103) 
1

>  <fr_imide>  (103) 
0

>  <fr_isocyan>  (103) 
0

>  <fr_isothiocyan>  (103) 
0

>  <fr_ketone>  (103) 
0

>  <fr_ketone_Topliss>  (103) 
0

>  <fr_lactam>  (103) 
0

>  <fr_lactone>  (103) 
0

>  <fr_methoxy>  (103) 
0

>  <fr_morpholine>  (103) 
0

>  <fr_nitrile>  (103) 
0

>  <fr_nitro>  (103) 
0

>  <fr_nitro_arom>  (103) 
0

>  <fr_nitro_arom_nonortho>  (103) 
0

>  <fr_nitroso>  (103) 
0

>  <fr_oxazole>  (103) 
0

>  <fr_oxime>  (103) 
0

>  <fr_para_hydroxylation>  (103) 
0

>  <fr_phenol>  (103) 
0

>  <fr_phenol_noOrthoHbond>  (103) 
0

>  <fr_phos_acid>  (103) 
2

>  <fr_phos_ester>  (103) 
1

>  <fr_piperdine>  (103) 
0

>  <fr_piperzine>  (103) 
0

>  <fr_priamide>  (103) 
0

>  <fr_prisulfonamd>  (103) 
0

>  <fr_pyridine>  (103) 
0

>  <fr_quatN>  (103) 
0

>  <fr_sulfide>  (103) 
0

>  <fr_sulfonamd>  (103) 
0

>  <fr_sulfone>  (103) 
0

>  <fr_term_acetylene>  (103) 
0

>  <fr_tetrazole>  (103) 
0

>  <fr_thiazole>  (103) 
0

>  <fr_thiocyan>  (103) 
0

>  <fr_thiophene>  (103) 
0

>  <fr_unbrch_alkane>  (103) 
0

>  <fr_urea>  (103) 
0

>  <NP_Likeness>  (103) 
0.931308

$$$$
ADP
     RDKit          3D

  0  0  0  0  0  0  0  0  0  0999 V3000
M  V30 BEGIN CTAB
M  V30 COUNTS 39 41 0 0 0
M  V30 BEGIN ATOM
M  V30 1 P -2.768000 11.413000 -13.710000 0
M  V30 2 P -5.550000 10.629000 -13.789000 0 CFG=2
M  V30 3 O -2.635000 10.586000 -14.965000 0
M  V30 4 O -2.893000 12.899000 -13.994000 0 CHG=-1
M  V30 5 O -1.747000 11.128000 -12.643000 0 CHG=-1
M  V30 6 O -5.362000 10.263000 -15.246000 0
M  V30 7 O -6.538000 11.693000 -13.405000 0 CHG=-1
M  V30 8 O -7.311000 4.527000 -14.490000 0
M  V30 9 O -5.756000 6.366000 -15.823000 0
M  V30 10 O -4.134000 10.859000 -13.034000 0
M  V30 11 O -5.982000 9.289000 -13.035000 0
M  V30 12 O -6.817000 6.709000 -12.394000 0
M  V30 13 N -13.376000 9.049000 -12.286000 0
M  V30 14 N -13.195000 6.704000 -12.105000 0
M  V30 15 N -11.115000 5.598000 -12.368000 0
M  V30 16 N -10.315000 8.980000 -12.819000 0
M  V30 17 N -9.173000 7.094000 -12.827000 0
M  V30 18 C -5.074000 8.220000 -13.113000 0
M  V30 19 C -12.442000 5.588000 -12.140000 0
M  V30 20 C -9.092000 8.423000 -12.964000 0
M  V30 21 C -7.711000 5.898000 -14.420000 0 CFG=2
M  V30 22 C -6.572000 6.853000 -14.774000 0 CFG=1
M  V30 23 C -8.034000 6.167000 -12.948000 0 CFG=1
M  V30 24 C -12.644000 7.922000 -12.303000 0
M  V30 25 C -5.831000 6.945000 -13.428000 0 CFG=2
M  V30 26 C -10.441000 6.750000 -12.580000 0
M  V30 27 C -11.195000 8.003000 -12.566000 0
M  V30 28 H -6.595000 4.423500 -15.180400 0
M  V30 29 H -6.311600 6.234700 -16.644000 0
M  V30 30 H -12.935100 9.933900 -12.436400 0
M  V30 31 H -14.361500 9.002700 -12.123000 0
M  V30 32 H -4.599400 8.119800 -12.238500 0
M  V30 33 H -4.406700 8.400000 -13.835700 0
M  V30 34 H -12.891100 4.707400 -11.989000 0
M  V30 35 H -8.249600 8.929900 -13.146900 0
M  V30 36 H -8.510100 6.066400 -14.997100 0
M  V30 37 H -6.943100 7.748500 -15.019700 0
M  V30 38 H -8.254400 5.305200 -12.491200 0
M  V30 39 H -5.175100 6.190900 -13.394600 0
M  V30 END ATOM
M  V30 BEGIN BOND
M  V30 1 2 1 3
M  V30 2 1 1 4
M  V30 3 1 1 5
M  V30 4 1 1 10
M  V30 5 2 2 6
M  V30 6 1 2 7 CFG=3
M  V30 7 1 2 10
M  V30 8 1 2 11
M  V30 9 1 8 21
M  V30 10 1 9 22
M  V30 11 1 11 18
M  V30 12 1 12 23
M  V30 13 1 12 25
M  V30 14 1 13 24
M  V30 15 2 14 19
M  V30 16 1 14 24
M  V30 17 1 15 19
M  V30 18 2 15 26
M  V30 19 2 16 20
M  V30 20 1 16 27
M  V30 21 1 17 20
M  V30 22 1 17 23
M  V30 23 1 17 26
M  V30 24 1 18 25
M  V30 25 1 21 22
M  V30 26 1 21 23
M  V30 27 1 22 25
M  V30 28 2 24 27
M  V30 29 1 26 27
M  V30 30 1 25 39 CFG=3
M  V30 31 1 23 38 CFG=1
M  V30 32 1 22 37 CFG=3
M  V30 33 1 8 28
M  V30 34 1 9 29
M  V30 35 1 13 30
M  V30 36 1 13 31
M  V30 37 1 18 32
M  V30 38 1 18 33
M  V30 39 1 19 34
M  V30 40 1 20 35
M  V30 41 1 21 36 CFG=3
M  V30 END BOND
M  V30 END CTAB
M  END
>  <Ligand_Instance>  (104) 
7UJX_ADP_E_401

>  <Dataset>  (104) 
PDB

>  <PDB_ID>  (104) 
7UJX

>  <Chain>  (104) 
E

>  <Resi>  (104) 
401

>  <Num_Resolved_Atoms>  (104) 
27

>  <Num_H_Atoms_ProtBoundConf>  (104) 
12

>  <Pocket>  (104) 
A

>  <Name>  (104) 
ADENOSINE-5'-DIPHOSPHATE

>  <Num_Not_Resolved_Atoms>  (104) 
0

>  <ATP_Site>  (104) 
True

>  <Peripheral>  (104) 
False

>  <Standardized_SMILES>  (104) 
[H]O[C@@]1([H])[C@@]([H])(O[H])[C@]([H])(N2C([H])=NC3=C2N=C([H])N=C3N([H])[H])O[C@]1([H])C([H])([H])O[P@@](=O)([O-])OP(=O)([O-])[O-]

>  <2D_Mol_H>  (104) 
<rdkit.Chem.rdchem.Mol object at 0x77059d9e7c30>

>  <MW>  (104) 
424.179

>  <HBA>  (104) 
15

>  <HBD>  (104) 
3

>  <LogP>  (104) 
-3.642

>  <NRB>  (104) 
9

>  <TPSA>  (104) 
241.09

>  <Num_Heavy_Atoms>  (104) 
27

>  <Ro5>  (104) 
[True, False, True, True, True, False]

>  <Ro5_Fulfilled>  (104) 
False

>  <Ro3>  (104) 
[False, False, True, True]

>  <Ro3_Fulfilled>  (104) 
False

>  <Fsp3>  (104) 
0.5

>  <Fsp3_0.42>  (104) 
True

>  <Fsp3_0.45>  (104) 
True

>  <Stereogenic_Carbons>  (104) 
4

>  <C_Atoms>  (104) 
10

>  <FCStereo>  (104) 
0.4

>  <SPS>  (104) 
769

>  <nSPS>  (104) 
28.481481

>  <PBF>  (104) 
0.734524

>  <PBF_0.6>  (104) 
True

>  <nPBF>  (104) 
0.027205

>  <nPBF_0.016>  (104) 
True

>  <PMI1>  (104) 
1478.184987

>  <PMI2>  (104) 
6183.022772

>  <PMI3>  (104) 
7164.360334

>  <NPR1>  (104) 
0.206325

>  <NPR2>  (104) 
0.863025

>  <Sum_NPR>  (104) 
1.06935

>  <Sum_NPR_1.07>  (104) 
False

>  <Sum_NPR_1.2>  (104) 
False

>  <MaxAbsEStateIndex>  (104) 
11.278955

>  <MaxEStateIndex>  (104) 
11.278955

>  <MinAbsEStateIndex>  (104) 
0.065524

>  <MinEStateIndex>  (104) 
-5.851432

>  <qed>  (104) 
0.378904

>  <MolWt>  (104) 
424.179

>  <HeavyAtomMolWt>  (104) 
412.083

>  <ExactMolWt>  (104) 
424.007586

>  <NumValenceElectrons>  (104) 
150

>  <NumRadicalElectrons>  (104) 
0

>  <MaxPartialCharge>  (104) 
0.271368

>  <MinPartialCharge>  (104) 
-0.789509

>  <MaxAbsPartialCharge>  (104) 
0.789509

>  <MinAbsPartialCharge>  (104) 
0.271368

>  <FpDensityMorgan1>  (104) 
1.222222

>  <FpDensityMorgan2>  (104) 
1.925926

>  <FpDensityMorgan3>  (104) 
2.592593

>  <BCUT2D_MWHI>  (104) 
31.27025

>  <BCUT2D_MWLOW>  (104) 
10.128388

>  <BCUT2D_CHGHI>  (104) 
2.444842

>  <BCUT2D_CHGLO>  (104) 
-2.350424

>  <BCUT2D_LOGPHI>  (104) 
2.503664

>  <BCUT2D_LOGPLOW>  (104) 
-2.337741

>  <BCUT2D_MRHI>  (104) 
7.580921

>  <BCUT2D_MRLOW>  (104) 
-0.339423

>  <AvgIpc>  (104) 
3.072773

>  <BalabanJ>  (104) 
1.748652

>  <BertzCT>  (104) 
932.232873

>  <Chi0>  (104) 
19.982763

>  <Chi0n>  (104) 
13.092254

>  <Chi0v>  (104) 
14.881108

>  <Chi1>  (104) 
12.483782

>  <Chi1n>  (104) 
7.119416

>  <Chi1v>  (104) 
10.040603

>  <Chi2n>  (104) 
5.401088

>  <Chi2v>  (104) 
8.101339

>  <Chi3n>  (104) 
3.595354

>  <Chi3v>  (104) 
5.660653

>  <Chi4n>  (104) 
2.463726

>  <Chi4v>  (104) 
3.961582

>  <HallKierAlpha>  (104) 
-1.51

>  <Ipc>  (104) 
807942.564302

>  <Kappa1>  (104) 
20.230095

>  <Kappa2>  (104) 
7.144568

>  <Kappa3>  (104) 
4.329348

>  <LabuteASA>  (104) 
149.760939

>  <PEOE_VSA1>  (104) 
44.452615

>  <PEOE_VSA10>  (104) 
30.15592

>  <PEOE_VSA11>  (104) 
17.692941

>  <PEOE_VSA12>  (104) 
0.0

>  <PEOE_VSA13>  (104) 
7.822697

>  <PEOE_VSA14>  (104) 
0.0

>  <PEOE_VSA2>  (104) 
13.442779

>  <PEOE_VSA3>  (104) 
14.951936

>  <PEOE_VSA4>  (104) 
0.0

>  <PEOE_VSA5>  (104) 
0.0

>  <PEOE_VSA6>  (104) 
0.0

>  <PEOE_VSA7>  (104) 
0.0

>  <PEOE_VSA8>  (104) 
0.0

>  <PEOE_VSA9>  (104) 
20.756899

>  <SMR_VSA1>  (104) 
47.594628

>  <SMR_VSA10>  (104) 
32.627135

>  <SMR_VSA2>  (104) 
0.0

>  <SMR_VSA3>  (104) 
19.519035

>  <SMR_VSA4>  (104) 
0.0

>  <SMR_VSA5>  (104) 
24.5398

>  <SMR_VSA6>  (104) 
12.340549

>  <SMR_VSA7>  (104) 
12.65464

>  <SMR_VSA8>  (104) 
0.0

>  <SMR_VSA9>  (104) 
0.0

>  <SlogP_VSA1>  (104) 
20.413902

>  <SlogP_VSA10>  (104) 
5.817863

>  <SlogP_VSA11>  (104) 
0.0

>  <SlogP_VSA12>  (104) 
15.645394

>  <SlogP_VSA2>  (104) 
54.650871

>  <SlogP_VSA3>  (104) 
22.701338

>  <SlogP_VSA4>  (104) 
0.0

>  <SlogP_VSA5>  (104) 
6.227901

>  <SlogP_VSA6>  (104) 
12.65464

>  <SlogP_VSA7>  (104) 
0.0

>  <SlogP_VSA8>  (104) 
11.163878

>  <SlogP_VSA9>  (104) 
0.0

>  <EState_VSA1>  (104) 
46.792077

>  <EState_VSA10>  (104) 
34.023386

>  <EState_VSA11>  (104) 
0.0

>  <EState_VSA2>  (104) 
16.981741

>  <EState_VSA3>  (104) 
0.0

>  <EState_VSA4>  (104) 
6.32732

>  <EState_VSA5>  (104) 
10.89442

>  <EState_VSA6>  (104) 
0.0

>  <EState_VSA7>  (104) 
0.0

>  <EState_VSA8>  (104) 
23.786314

>  <EState_VSA9>  (104) 
10.47053

>  <VSA_EState1>  (104) 
35.749107

>  <VSA_EState10>  (104) 
0.0

>  <VSA_EState2>  (104) 
43.665953

>  <VSA_EState3>  (104) 
20.193372

>  <VSA_EState4>  (104) 
6.037581

>  <VSA_EState5>  (104) 
0.065524

>  <VSA_EState6>  (104) 
0.0

>  <VSA_EState7>  (104) 
-3.478964

>  <VSA_EState8>  (104) 
-0.931293

>  <VSA_EState9>  (104) 
-11.356836

>  <FractionCSP3>  (104) 
0.5

>  <HeavyAtomCount>  (104) 
27

>  <NHOHCount>  (104) 
4

>  <NOCount>  (104) 
15

>  <NumAliphaticCarbocycles>  (104) 
0

>  <NumAliphaticHeterocycles>  (104) 
1

>  <NumAliphaticRings>  (104) 
1

>  <NumAromaticCarbocycles>  (104) 
0

>  <NumAromaticHeterocycles>  (104) 
2

>  <NumAromaticRings>  (104) 
2

>  <NumHAcceptors>  (104) 
15

>  <NumHDonors>  (104) 
3

>  <NumHeteroatoms>  (104) 
17

>  <NumRotatableBonds>  (104) 
6

>  <NumSaturatedCarbocycles>  (104) 
0

>  <NumSaturatedHeterocycles>  (104) 
1

>  <NumSaturatedRings>  (104) 
1

>  <RingCount>  (104) 
3

>  <MolLogP>  (104) 
-3.642

>  <MolMR>  (104) 
77.909

>  <fr_Al_COO>  (104) 
0

>  <fr_Al_OH>  (104) 
2

>  <fr_Al_OH_noTert>  (104) 
2

>  <fr_ArN>  (104) 
1

>  <fr_Ar_COO>  (104) 
0

>  <fr_Ar_N>  (104) 
4

>  <fr_Ar_NH>  (104) 
0

>  <fr_Ar_OH>  (104) 
0

>  <fr_COO>  (104) 
0

>  <fr_COO2>  (104) 
0

>  <fr_C_O>  (104) 
0

>  <fr_C_O_noCOO>  (104) 
0

>  <fr_C_S>  (104) 
0

>  <fr_HOCCN>  (104) 
0

>  <fr_Imine>  (104) 
0

>  <fr_NH0>  (104) 
4

>  <fr_NH1>  (104) 
0

>  <fr_NH2>  (104) 
1

>  <fr_N_O>  (104) 
0

>  <fr_Ndealkylation1>  (104) 
0

>  <fr_Ndealkylation2>  (104) 
0

>  <fr_Nhpyrrole>  (104) 
0

>  <fr_SH>  (104) 
0

>  <fr_aldehyde>  (104) 
0

>  <fr_alkyl_carbamate>  (104) 
0

>  <fr_alkyl_halide>  (104) 
0

>  <fr_allylic_oxid>  (104) 
0

>  <fr_amide>  (104) 
0

>  <fr_amidine>  (104) 
0

>  <fr_aniline>  (104) 
1

>  <fr_aryl_methyl>  (104) 
0

>  <fr_azide>  (104) 
0

>  <fr_azo>  (104) 
0

>  <fr_barbitur>  (104) 
0

>  <fr_benzene>  (104) 
0

>  <fr_benzodiazepine>  (104) 
0

>  <fr_bicyclic>  (104) 
1

>  <fr_diazo>  (104) 
0

>  <fr_dihydropyridine>  (104) 
0

>  <fr_epoxide>  (104) 
0

>  <fr_ester>  (104) 
0

>  <fr_ether>  (104) 
1

>  <fr_furan>  (104) 
0

>  <fr_guanido>  (104) 
0

>  <fr_halogen>  (104) 
0

>  <fr_hdrzine>  (104) 
0

>  <fr_hdrzone>  (104) 
0

>  <fr_imidazole>  (104) 
1

>  <fr_imide>  (104) 
0

>  <fr_isocyan>  (104) 
0

>  <fr_isothiocyan>  (104) 
0

>  <fr_ketone>  (104) 
0

>  <fr_ketone_Topliss>  (104) 
0

>  <fr_lactam>  (104) 
0

>  <fr_lactone>  (104) 
0

>  <fr_methoxy>  (104) 
0

>  <fr_morpholine>  (104) 
0

>  <fr_nitrile>  (104) 
0

>  <fr_nitro>  (104) 
0

>  <fr_nitro_arom>  (104) 
0

>  <fr_nitro_arom_nonortho>  (104) 
0

>  <fr_nitroso>  (104) 
0

>  <fr_oxazole>  (104) 
0

>  <fr_oxime>  (104) 
0

>  <fr_para_hydroxylation>  (104) 
0

>  <fr_phenol>  (104) 
0

>  <fr_phenol_noOrthoHbond>  (104) 
0

>  <fr_phos_acid>  (104) 
2

>  <fr_phos_ester>  (104) 
1

>  <fr_piperdine>  (104) 
0

>  <fr_piperzine>  (104) 
0

>  <fr_priamide>  (104) 
0

>  <fr_prisulfonamd>  (104) 
0

>  <fr_pyridine>  (104) 
0

>  <fr_quatN>  (104) 
0

>  <fr_sulfide>  (104) 
0

>  <fr_sulfonamd>  (104) 
0

>  <fr_sulfone>  (104) 
0

>  <fr_term_acetylene>  (104) 
0

>  <fr_tetrazole>  (104) 
0

>  <fr_thiazole>  (104) 
0

>  <fr_thiocyan>  (104) 
0

>  <fr_thiophene>  (104) 
0

>  <fr_unbrch_alkane>  (104) 
0

>  <fr_urea>  (104) 
0

>  <NP_Likeness>  (104) 
0.931308

$$$$
ADP
     RDKit          3D

  0  0  0  0  0  0  0  0  0  0999 V3000
M  V30 BEGIN CTAB
M  V30 COUNTS 39 41 0 0 0
M  V30 BEGIN ATOM
M  V30 1 P -2.764000 11.389000 -13.681000 0
M  V30 2 P -5.558000 10.590000 -13.786000 0 CFG=2
M  V30 3 O -2.540000 10.603000 -14.959000 0
M  V30 4 O -2.929000 12.874000 -13.890000 0 CHG=-1
M  V30 5 O -1.765000 11.046000 -12.632000 0 CHG=-1
M  V30 6 O -5.279000 10.258000 -15.226000 0
M  V30 7 O -6.555000 11.659000 -13.436000 0 CHG=-1
M  V30 8 O -7.204000 4.573000 -14.465000 0
M  V30 9 O -5.761000 6.555000 -15.789000 0
M  V30 10 O -4.148000 10.881000 -13.048000 0
M  V30 11 O -6.008000 9.254000 -13.009000 0
M  V30 12 O -6.954000 6.683000 -12.383000 0
M  V30 13 N -13.330000 9.008000 -12.211000 0
M  V30 14 N -13.152000 6.667000 -12.063000 0
M  V30 15 N -11.095000 5.554000 -12.390000 0
M  V30 16 N -10.347000 9.002000 -12.790000 0
M  V30 17 N -9.222000 7.072000 -12.862000 0
M  V30 18 C -5.144000 8.134000 -13.085000 0
M  V30 19 C -12.409000 5.550000 -12.130000 0
M  V30 20 C -9.135000 8.423000 -12.984000 0
M  V30 21 C -7.732000 5.880000 -14.441000 0 CFG=2
M  V30 22 C -6.633000 6.891000 -14.726000 0 CFG=1
M  V30 23 C -8.113000 6.112000 -12.989000 0 CFG=1
M  V30 24 C -12.616000 7.885000 -12.260000 0
M  V30 25 C -5.928000 6.875000 -13.366000 0 CFG=2
M  V30 26 C -10.459000 6.728000 -12.593000 0
M  V30 27 C -11.196000 7.985000 -12.536000 0
M  V30 28 H -6.812900 4.388000 -15.366600 0
M  V30 29 H -6.286600 6.462100 -16.634600 0
M  V30 30 H -12.885200 9.890400 -12.364500 0
M  V30 31 H -14.310900 8.968900 -12.020700 0
M  V30 32 H -4.660400 8.032600 -12.215600 0
M  V30 33 H -4.481600 8.279400 -13.819900 0
M  V30 34 H -12.859900 4.670500 -11.978000 0
M  V30 35 H -8.293000 8.922100 -13.188700 0
M  V30 36 H -8.511800 5.984600 -15.058200 0
M  V30 37 H -7.035000 7.792000 -14.889000 0
M  V30 38 H -8.347900 5.246400 -12.546800 0
M  V30 39 H -5.304000 6.094200 -13.336400 0
M  V30 END ATOM
M  V30 BEGIN BOND
M  V30 1 2 1 3
M  V30 2 1 1 4
M  V30 3 1 1 5
M  V30 4 1 1 10
M  V30 5 2 2 6
M  V30 6 1 2 7 CFG=3
M  V30 7 1 2 10
M  V30 8 1 2 11
M  V30 9 1 8 21
M  V30 10 1 9 22
M  V30 11 1 11 18
M  V30 12 1 12 23
M  V30 13 1 12 25
M  V30 14 1 13 24
M  V30 15 2 14 19
M  V30 16 1 14 24
M  V30 17 1 15 19
M  V30 18 2 15 26
M  V30 19 2 16 20
M  V30 20 1 16 27
M  V30 21 1 17 20
M  V30 22 1 17 23
M  V30 23 1 17 26
M  V30 24 1 18 25
M  V30 25 1 21 22
M  V30 26 1 21 23
M  V30 27 1 22 25
M  V30 28 2 24 27
M  V30 29 1 26 27
M  V30 30 1 25 39 CFG=3
M  V30 31 1 23 38 CFG=1
M  V30 32 1 22 37 CFG=3
M  V30 33 1 8 28
M  V30 34 1 9 29
M  V30 35 1 13 30
M  V30 36 1 13 31
M  V30 37 1 18 32
M  V30 38 1 18 33
M  V30 39 1 19 34
M  V30 40 1 20 35
M  V30 41 1 21 36 CFG=3
M  V30 END BOND
M  V30 END CTAB
M  END
>  <Ligand_Instance>  (105) 
7V0G_ADP_E_401

>  <Dataset>  (105) 
PDB

>  <PDB_ID>  (105) 
7V0G

>  <Chain>  (105) 
E

>  <Resi>  (105) 
401

>  <Num_Resolved_Atoms>  (105) 
27

>  <Num_H_Atoms_ProtBoundConf>  (105) 
12

>  <Pocket>  (105) 
A

>  <Name>  (105) 
ADENOSINE-5'-DIPHOSPHATE

>  <Num_Not_Resolved_Atoms>  (105) 
0

>  <ATP_Site>  (105) 
True

>  <Peripheral>  (105) 
False

>  <Standardized_SMILES>  (105) 
[H]O[C@@]1([H])[C@@]([H])(O[H])[C@]([H])(N2C([H])=NC3=C2N=C([H])N=C3N([H])[H])O[C@]1([H])C([H])([H])O[P@@](=O)([O-])OP(=O)([O-])[O-]

>  <2D_Mol_H>  (105) 
<rdkit.Chem.rdchem.Mol object at 0x77059d9e7d10>

>  <MW>  (105) 
424.179

>  <HBA>  (105) 
15

>  <HBD>  (105) 
3

>  <LogP>  (105) 
-3.642

>  <NRB>  (105) 
9

>  <TPSA>  (105) 
241.09

>  <Num_Heavy_Atoms>  (105) 
27

>  <Ro5>  (105) 
[True, False, True, True, True, False]

>  <Ro5_Fulfilled>  (105) 
False

>  <Ro3>  (105) 
[False, False, True, True]

>  <Ro3_Fulfilled>  (105) 
False

>  <Fsp3>  (105) 
0.5

>  <Fsp3_0.42>  (105) 
True

>  <Fsp3_0.45>  (105) 
True

>  <Stereogenic_Carbons>  (105) 
4

>  <C_Atoms>  (105) 
10

>  <FCStereo>  (105) 
0.4

>  <SPS>  (105) 
769

>  <nSPS>  (105) 
28.481481

>  <PBF>  (105) 
0.734602

>  <PBF_0.6>  (105) 
True

>  <nPBF>  (105) 
0.027207

>  <nPBF_0.016>  (105) 
True

>  <PMI1>  (105) 
1447.570122

>  <PMI2>  (105) 
6171.106313

>  <PMI3>  (105) 
7129.57367

>  <NPR1>  (105) 
0.203037

>  <NPR2>  (105) 
0.865565

>  <Sum_NPR>  (105) 
1.068602

>  <Sum_NPR_1.07>  (105) 
False

>  <Sum_NPR_1.2>  (105) 
False

>  <MaxAbsEStateIndex>  (105) 
11.278955

>  <MaxEStateIndex>  (105) 
11.278955

>  <MinAbsEStateIndex>  (105) 
0.065524

>  <MinEStateIndex>  (105) 
-5.851432

>  <qed>  (105) 
0.378904

>  <MolWt>  (105) 
424.179

>  <HeavyAtomMolWt>  (105) 
412.083

>  <ExactMolWt>  (105) 
424.007586

>  <NumValenceElectrons>  (105) 
150

>  <NumRadicalElectrons>  (105) 
0

>  <MaxPartialCharge>  (105) 
0.271368

>  <MinPartialCharge>  (105) 
-0.789509

>  <MaxAbsPartialCharge>  (105) 
0.789509

>  <MinAbsPartialCharge>  (105) 
0.271368

>  <FpDensityMorgan1>  (105) 
1.222222

>  <FpDensityMorgan2>  (105) 
1.925926

>  <FpDensityMorgan3>  (105) 
2.592593

>  <BCUT2D_MWHI>  (105) 
31.27025

>  <BCUT2D_MWLOW>  (105) 
10.128388

>  <BCUT2D_CHGHI>  (105) 
2.444842

>  <BCUT2D_CHGLO>  (105) 
-2.350424

>  <BCUT2D_LOGPHI>  (105) 
2.503664

>  <BCUT2D_LOGPLOW>  (105) 
-2.337741

>  <BCUT2D_MRHI>  (105) 
7.580921

>  <BCUT2D_MRLOW>  (105) 
-0.339423

>  <AvgIpc>  (105) 
3.072773

>  <BalabanJ>  (105) 
1.748652

>  <BertzCT>  (105) 
932.232873

>  <Chi0>  (105) 
19.982763

>  <Chi0n>  (105) 
13.092254

>  <Chi0v>  (105) 
14.881108

>  <Chi1>  (105) 
12.483782

>  <Chi1n>  (105) 
7.119416

>  <Chi1v>  (105) 
10.040603

>  <Chi2n>  (105) 
5.401088

>  <Chi2v>  (105) 
8.101339

>  <Chi3n>  (105) 
3.595354

>  <Chi3v>  (105) 
5.660653

>  <Chi4n>  (105) 
2.463726

>  <Chi4v>  (105) 
3.961582

>  <HallKierAlpha>  (105) 
-1.51

>  <Ipc>  (105) 
807942.564302

>  <Kappa1>  (105) 
20.230095

>  <Kappa2>  (105) 
7.144568

>  <Kappa3>  (105) 
4.329348

>  <LabuteASA>  (105) 
149.760939

>  <PEOE_VSA1>  (105) 
44.452615

>  <PEOE_VSA10>  (105) 
30.15592

>  <PEOE_VSA11>  (105) 
17.692941

>  <PEOE_VSA12>  (105) 
0.0

>  <PEOE_VSA13>  (105) 
7.822697

>  <PEOE_VSA14>  (105) 
0.0

>  <PEOE_VSA2>  (105) 
13.442779

>  <PEOE_VSA3>  (105) 
14.951936

>  <PEOE_VSA4>  (105) 
0.0

>  <PEOE_VSA5>  (105) 
0.0

>  <PEOE_VSA6>  (105) 
0.0

>  <PEOE_VSA7>  (105) 
0.0

>  <PEOE_VSA8>  (105) 
0.0

>  <PEOE_VSA9>  (105) 
20.756899

>  <SMR_VSA1>  (105) 
47.594628

>  <SMR_VSA10>  (105) 
32.627135

>  <SMR_VSA2>  (105) 
0.0

>  <SMR_VSA3>  (105) 
19.519035

>  <SMR_VSA4>  (105) 
0.0

>  <SMR_VSA5>  (105) 
24.5398

>  <SMR_VSA6>  (105) 
12.340549

>  <SMR_VSA7>  (105) 
12.65464

>  <SMR_VSA8>  (105) 
0.0

>  <SMR_VSA9>  (105) 
0.0

>  <SlogP_VSA1>  (105) 
20.413902

>  <SlogP_VSA10>  (105) 
5.817863

>  <SlogP_VSA11>  (105) 
0.0

>  <SlogP_VSA12>  (105) 
15.645394

>  <SlogP_VSA2>  (105) 
54.650871

>  <SlogP_VSA3>  (105) 
22.701338

>  <SlogP_VSA4>  (105) 
0.0

>  <SlogP_VSA5>  (105) 
6.227901

>  <SlogP_VSA6>  (105) 
12.65464

>  <SlogP_VSA7>  (105) 
0.0

>  <SlogP_VSA8>  (105) 
11.163878

>  <SlogP_VSA9>  (105) 
0.0

>  <EState_VSA1>  (105) 
46.792077

>  <EState_VSA10>  (105) 
34.023386

>  <EState_VSA11>  (105) 
0.0

>  <EState_VSA2>  (105) 
16.981741

>  <EState_VSA3>  (105) 
0.0

>  <EState_VSA4>  (105) 
6.32732

>  <EState_VSA5>  (105) 
10.89442

>  <EState_VSA6>  (105) 
0.0

>  <EState_VSA7>  (105) 
0.0

>  <EState_VSA8>  (105) 
23.786314

>  <EState_VSA9>  (105) 
10.47053

>  <VSA_EState1>  (105) 
35.749107

>  <VSA_EState10>  (105) 
0.0

>  <VSA_EState2>  (105) 
43.665953

>  <VSA_EState3>  (105) 
20.193372

>  <VSA_EState4>  (105) 
6.037581

>  <VSA_EState5>  (105) 
0.065524

>  <VSA_EState6>  (105) 
0.0

>  <VSA_EState7>  (105) 
-3.478964

>  <VSA_EState8>  (105) 
-0.931293

>  <VSA_EState9>  (105) 
-11.356836

>  <FractionCSP3>  (105) 
0.5

>  <HeavyAtomCount>  (105) 
27

>  <NHOHCount>  (105) 
4

>  <NOCount>  (105) 
15

>  <NumAliphaticCarbocycles>  (105) 
0

>  <NumAliphaticHeterocycles>  (105) 
1

>  <NumAliphaticRings>  (105) 
1

>  <NumAromaticCarbocycles>  (105) 
0

>  <NumAromaticHeterocycles>  (105) 
2

>  <NumAromaticRings>  (105) 
2

>  <NumHAcceptors>  (105) 
15

>  <NumHDonors>  (105) 
3

>  <NumHeteroatoms>  (105) 
17

>  <NumRotatableBonds>  (105) 
6

>  <NumSaturatedCarbocycles>  (105) 
0

>  <NumSaturatedHeterocycles>  (105) 
1

>  <NumSaturatedRings>  (105) 
1

>  <RingCount>  (105) 
3

>  <MolLogP>  (105) 
-3.642

>  <MolMR>  (105) 
77.909

>  <fr_Al_COO>  (105) 
0

>  <fr_Al_OH>  (105) 
2

>  <fr_Al_OH_noTert>  (105) 
2

>  <fr_ArN>  (105) 
1

>  <fr_Ar_COO>  (105) 
0

>  <fr_Ar_N>  (105) 
4

>  <fr_Ar_NH>  (105) 
0

>  <fr_Ar_OH>  (105) 
0

>  <fr_COO>  (105) 
0

>  <fr_COO2>  (105) 
0

>  <fr_C_O>  (105) 
0

>  <fr_C_O_noCOO>  (105) 
0

>  <fr_C_S>  (105) 
0

>  <fr_HOCCN>  (105) 
0

>  <fr_Imine>  (105) 
0

>  <fr_NH0>  (105) 
4

>  <fr_NH1>  (105) 
0

>  <fr_NH2>  (105) 
1

>  <fr_N_O>  (105) 
0

>  <fr_Ndealkylation1>  (105) 
0

>  <fr_Ndealkylation2>  (105) 
0

>  <fr_Nhpyrrole>  (105) 
0

>  <fr_SH>  (105) 
0

>  <fr_aldehyde>  (105) 
0

>  <fr_alkyl_carbamate>  (105) 
0

>  <fr_alkyl_halide>  (105) 
0

>  <fr_allylic_oxid>  (105) 
0

>  <fr_amide>  (105) 
0

>  <fr_amidine>  (105) 
0

>  <fr_aniline>  (105) 
1

>  <fr_aryl_methyl>  (105) 
0

>  <fr_azide>  (105) 
0

>  <fr_azo>  (105) 
0

>  <fr_barbitur>  (105) 
0

>  <fr_benzene>  (105) 
0

>  <fr_benzodiazepine>  (105) 
0

>  <fr_bicyclic>  (105) 
1

>  <fr_diazo>  (105) 
0

>  <fr_dihydropyridine>  (105) 
0

>  <fr_epoxide>  (105) 
0

>  <fr_ester>  (105) 
0

>  <fr_ether>  (105) 
1

>  <fr_furan>  (105) 
0

>  <fr_guanido>  (105) 
0

>  <fr_halogen>  (105) 
0

>  <fr_hdrzine>  (105) 
0

>  <fr_hdrzone>  (105) 
0

>  <fr_imidazole>  (105) 
1

>  <fr_imide>  (105) 
0

>  <fr_isocyan>  (105) 
0

>  <fr_isothiocyan>  (105) 
0

>  <fr_ketone>  (105) 
0

>  <fr_ketone_Topliss>  (105) 
0

>  <fr_lactam>  (105) 
0

>  <fr_lactone>  (105) 
0

>  <fr_methoxy>  (105) 
0

>  <fr_morpholine>  (105) 
0

>  <fr_nitrile>  (105) 
0

>  <fr_nitro>  (105) 
0

>  <fr_nitro_arom>  (105) 
0

>  <fr_nitro_arom_nonortho>  (105) 
0

>  <fr_nitroso>  (105) 
0

>  <fr_oxazole>  (105) 
0

>  <fr_oxime>  (105) 
0

>  <fr_para_hydroxylation>  (105) 
0

>  <fr_phenol>  (105) 
0

>  <fr_phenol_noOrthoHbond>  (105) 
0

>  <fr_phos_acid>  (105) 
2

>  <fr_phos_ester>  (105) 
1

>  <fr_piperdine>  (105) 
0

>  <fr_piperzine>  (105) 
0

>  <fr_priamide>  (105) 
0

>  <fr_prisulfonamd>  (105) 
0

>  <fr_pyridine>  (105) 
0

>  <fr_quatN>  (105) 
0

>  <fr_sulfide>  (105) 
0

>  <fr_sulfonamd>  (105) 
0

>  <fr_sulfone>  (105) 
0

>  <fr_term_acetylene>  (105) 
0

>  <fr_tetrazole>  (105) 
0

>  <fr_thiazole>  (105) 
0

>  <fr_thiocyan>  (105) 
0

>  <fr_thiophene>  (105) 
0

>  <fr_unbrch_alkane>  (105) 
0

>  <fr_urea>  (105) 
0

>  <NP_Likeness>  (105) 
0.931308

$$$$
AMP
     RDKit          3D

  0  0  0  0  0  0  0  0  0  0999 V3000
M  V30 BEGIN CTAB
M  V30 COUNTS 35 37 0 0 0
M  V30 BEGIN ATOM
M  V30 1 P -11.918000 -21.454000 28.143000 0
M  V30 2 O -12.990000 -20.959000 27.198000 0
M  V30 3 O -10.495000 -21.228000 27.682000 0 CHG=-1
M  V30 4 O -12.179000 -21.124000 29.595000 0 CHG=-1
M  V30 5 O -12.315000 -28.080000 28.052000 0
M  V30 6 O -10.437000 -26.077000 27.601000 0
M  V30 7 O -12.057000 -23.039000 28.088000 0
M  V30 8 O -13.754000 -25.570000 28.924000 0
M  V30 9 N -17.451000 -24.112000 23.379000 0
M  V30 10 N -17.228000 -26.448000 23.672000 0
M  V30 11 N -15.892000 -27.336000 25.406000 0
M  V30 12 N -15.614000 -23.850000 25.811000 0
M  V30 13 N -14.796000 -25.646000 26.852000 0
M  V30 14 C -12.126000 -23.818000 29.275000 0
M  V30 15 C -16.702000 -27.483000 24.343000 0
M  V30 16 C -14.830000 -24.300000 26.824000 0
M  V30 17 C -12.718000 -26.940000 27.302000 0 CFG=2
M  V30 18 C -11.817000 -25.755000 27.596000 0 CFG=1
M  V30 19 C -14.049000 -26.434000 27.849000 0 CFG=1
M  V30 20 C -16.967000 -25.173000 24.027000 0
M  V30 21 C -12.332000 -25.278000 28.954000 0 CFG=2
M  V30 22 C -15.549000 -26.112000 25.855000 0
M  V30 23 C -16.085000 -24.935000 25.177000 0
M  V30 24 H -13.113100 -28.650300 28.246300 0
M  V30 25 H -9.903600 -25.254900 27.800200 0
M  V30 26 H -17.222300 -23.189300 23.689500 0
M  V30 27 H -18.042500 -24.239400 22.582800 0
M  V30 28 H -12.890000 -23.495300 29.833700 0
M  V30 29 H -11.272300 -23.712800 29.785000 0
M  V30 30 H -16.923000 -28.409300 24.037900 0
M  V30 31 H -14.341400 -23.708900 27.465800 0
M  V30 32 H -12.767900 -27.136500 26.322800 0
M  V30 33 H -11.983200 -25.041800 26.915100 0
M  V30 34 H -14.604700 -27.202100 28.167200 0
M  V30 35 H -11.905400 -25.828600 29.671500 0
M  V30 END ATOM
M  V30 BEGIN BOND
M  V30 1 2 1 2
M  V30 2 1 1 3
M  V30 3 1 1 4
M  V30 4 1 1 7
M  V30 5 1 5 17
M  V30 6 1 6 18
M  V30 7 1 7 14
M  V30 8 1 8 19
M  V30 9 1 8 21
M  V30 10 1 9 20
M  V30 11 2 10 15
M  V30 12 1 10 20
M  V30 13 1 11 15
M  V30 14 2 11 22
M  V30 15 2 12 16
M  V30 16 1 12 23
M  V30 17 1 13 16
M  V30 18 1 13 19
M  V30 19 1 13 22
M  V30 20 1 14 21
M  V30 21 1 17 18
M  V30 22 1 17 19
M  V30 23 1 18 21
M  V30 24 2 20 23
M  V30 25 1 22 23
M  V30 26 1 21 35 CFG=1
M  V30 27 1 19 34 CFG=1
M  V30 28 1 5 24
M  V30 29 1 6 25
M  V30 30 1 9 26
M  V30 31 1 9 27
M  V30 32 1 14 28
M  V30 33 1 14 29
M  V30 34 1 15 30
M  V30 35 1 16 31
M  V30 36 1 17 32 CFG=3
M  V30 37 1 18 33 CFG=3
M  V30 END BOND
M  V30 END CTAB
M  END
>  <Ligand_Instance>  (106) 
6EH2_AMP_A_401

>  <Dataset>  (106) 
PDB

>  <PDB_ID>  (106) 
6EH2

>  <Chain>  (106) 
A

>  <Resi>  (106) 
401

>  <Num_Resolved_Atoms>  (106) 
23

>  <Num_H_Atoms_ProtBoundConf>  (106) 
12

>  <Pocket>  (106) 
A

>  <Name>  (106) 
ADENOSINE MONOPHOSPHATE

>  <Num_Not_Resolved_Atoms>  (106) 
0

>  <ATP_Site>  (106) 
True

>  <Peripheral>  (106) 
False

>  <Standardized_SMILES>  (106) 
[H]O[C@@]1([H])[C@@]([H])(O[H])[C@]([H])(N2C([H])=NC3=C2N=C([H])N=C3N([H])[H])O[C@]1([H])C([H])([H])OP(=O)([O-])[O-]

>  <2D_Mol_H>  (106) 
<rdkit.Chem.rdchem.Mol object at 0x77059d9e7df0>

>  <MW>  (106) 
345.208

>  <HBA>  (106) 
12

>  <HBD>  (106) 
3

>  <LogP>  (106) 
-3.127

>  <NRB>  (106) 
7

>  <TPSA>  (106) 
191.73

>  <Num_Heavy_Atoms>  (106) 
23

>  <Ro5>  (106) 
[True, False, True, True, True, False]

>  <Ro5_Fulfilled>  (106) 
False

>  <Ro3>  (106) 
[False, False, True, True]

>  <Ro3_Fulfilled>  (106) 
False

>  <Fsp3>  (106) 
0.5

>  <Fsp3_0.42>  (106) 
True

>  <Fsp3_0.45>  (106) 
True

>  <Stereogenic_Carbons>  (106) 
4

>  <C_Atoms>  (106) 
10

>  <FCStereo>  (106) 
0.4

>  <SPS>  (106) 
656

>  <nSPS>  (106) 
28.521739

>  <PBF>  (106) 
0.67615

>  <PBF_0.6>  (106) 
True

>  <nPBF>  (106) 
0.029398

>  <nPBF_0.016>  (106) 
True

>  <PMI1>  (106) 
1404.528169

>  <PMI2>  (106) 
3153.11039

>  <PMI3>  (106) 
4170.270064

>  <NPR1>  (106) 
0.336795

>  <NPR2>  (106) 
0.756093

>  <Sum_NPR>  (106) 
1.092888

>  <Sum_NPR_1.07>  (106) 
True

>  <Sum_NPR_1.2>  (106) 
False

>  <MaxAbsEStateIndex>  (106) 
10.502913

>  <MaxEStateIndex>  (106) 
10.502913

>  <MinAbsEStateIndex>  (106) 
0.125293

>  <MinEStateIndex>  (106) 
-5.218946

>  <qed>  (106) 
0.474435

>  <MolWt>  (106) 
345.208

>  <HeavyAtomMolWt>  (106) 
333.112

>  <ExactMolWt>  (106) 
345.048532

>  <NumValenceElectrons>  (106) 
126

>  <NumRadicalElectrons>  (106) 
0

>  <MaxPartialCharge>  (106) 
0.167139

>  <MinPartialCharge>  (106) 
-0.789873

>  <MaxAbsPartialCharge>  (106) 
0.789873

>  <MinAbsPartialCharge>  (106) 
0.167139

>  <FpDensityMorgan1>  (106) 
1.347826

>  <FpDensityMorgan2>  (106) 
2.086957

>  <FpDensityMorgan3>  (106) 
2.782609

>  <BCUT2D_MWHI>  (106) 
31.204462

>  <BCUT2D_MWLOW>  (106) 
10.128388

>  <BCUT2D_CHGHI>  (106) 
2.440792

>  <BCUT2D_CHGLO>  (106) 
-2.297431

>  <BCUT2D_LOGPHI>  (106) 
2.339241

>  <BCUT2D_LOGPLOW>  (106) 
-2.341674

>  <BCUT2D_MRHI>  (106) 
7.427304

>  <BCUT2D_MRLOW>  (106) 
-0.342707

>  <AvgIpc>  (106) 
3.007281

>  <BalabanJ>  (106) 
1.851148

>  <BertzCT>  (106) 
763.137828

>  <Chi0>  (106) 
16.775656

>  <Chi0n>  (106) 
11.420295

>  <Chi0v>  (106) 
12.314722

>  <Chi1>  (106) 
10.776676

>  <Chi1n>  (106) 
6.389119

>  <Chi1v>  (106) 
7.849713

>  <Chi2n>  (106) 
4.872225

>  <Chi2v>  (106) 
6.024851

>  <Chi3n>  (106) 
3.395354

>  <Chi3v>  (106) 
3.860653

>  <Chi4n>  (106) 
2.317681

>  <Chi4v>  (106) 
2.647179

>  <HallKierAlpha>  (106) 
-1.66

>  <Ipc>  (106) 
165343.290184

>  <Kappa1>  (106) 
16.206701

>  <Kappa2>  (106) 
5.760949

>  <Kappa3>  (106) 
3.052763

>  <LabuteASA>  (106) 
128.30355

>  <PEOE_VSA1>  (106) 
39.559204

>  <PEOE_VSA10>  (106) 
30.15592

>  <PEOE_VSA11>  (106) 
17.692941

>  <PEOE_VSA12>  (106) 
0.0

>  <PEOE_VSA13>  (106) 
0.0

>  <PEOE_VSA14>  (106) 
0.0

>  <PEOE_VSA2>  (106) 
4.5671

>  <PEOE_VSA3>  (106) 
14.951936

>  <PEOE_VSA4>  (106) 
0.0

>  <PEOE_VSA5>  (106) 
0.0

>  <PEOE_VSA6>  (106) 
0.0

>  <PEOE_VSA7>  (106) 
0.0

>  <PEOE_VSA8>  (106) 
0.0

>  <PEOE_VSA9>  (106) 
20.756899

>  <SMR_VSA1>  (106) 
33.825536

>  <SMR_VSA10>  (106) 
24.804438

>  <SMR_VSA2>  (106) 
0.0

>  <SMR_VSA3>  (106) 
19.519035

>  <SMR_VSA4>  (106) 
0.0

>  <SMR_VSA5>  (106) 
24.5398

>  <SMR_VSA6>  (106) 
12.340549

>  <SMR_VSA7>  (106) 
12.65464

>  <SMR_VSA8>  (106) 
0.0

>  <SMR_VSA9>  (106) 
0.0

>  <SlogP_VSA1>  (106) 
15.520491

>  <SlogP_VSA10>  (106) 
5.817863

>  <SlogP_VSA11>  (106) 
0.0

>  <SlogP_VSA12>  (106) 
7.822697

>  <SlogP_VSA2>  (106) 
54.650871

>  <SlogP_VSA3>  (106) 
13.825658

>  <SlogP_VSA4>  (106) 
0.0

>  <SlogP_VSA5>  (106) 
6.227901

>  <SlogP_VSA6>  (106) 
12.65464

>  <SlogP_VSA7>  (106) 
0.0

>  <SlogP_VSA8>  (106) 
11.163878

>  <SlogP_VSA9>  (106) 
0.0

>  <EState_VSA1>  (106) 
38.969379

>  <EState_VSA10>  (106) 
24.564926

>  <EState_VSA11>  (106) 
0.0

>  <EState_VSA2>  (106) 
16.981741

>  <EState_VSA3>  (106) 
0.0

>  <EState_VSA4>  (106) 
0.0

>  <EState_VSA5>  (106) 
17.22174

>  <EState_VSA6>  (106) 
0.0

>  <EState_VSA7>  (106) 
0.0

>  <EState_VSA8>  (106) 
19.475683

>  <EState_VSA9>  (106) 
10.47053

>  <VSA_EState1>  (106) 
21.271318

>  <VSA_EState10>  (106) 
0.0

>  <VSA_EState2>  (106) 
32.750314

>  <VSA_EState3>  (106) 
19.989001

>  <VSA_EState4>  (106) 
6.189696

>  <VSA_EState5>  (106) 
0.125293

>  <VSA_EState6>  (106) 
0.0

>  <VSA_EState7>  (106) 
-2.748301

>  <VSA_EState8>  (106) 
-0.719487

>  <VSA_EState9>  (106) 
-5.218946

>  <FractionCSP3>  (106) 
0.5

>  <HeavyAtomCount>  (106) 
23

>  <NHOHCount>  (106) 
4

>  <NOCount>  (106) 
12

>  <NumAliphaticCarbocycles>  (106) 
0

>  <NumAliphaticHeterocycles>  (106) 
1

>  <NumAliphaticRings>  (106) 
1

>  <NumAromaticCarbocycles>  (106) 
0

>  <NumAromaticHeterocycles>  (106) 
2

>  <NumAromaticRings>  (106) 
2

>  <NumHAcceptors>  (106) 
12

>  <NumHDonors>  (106) 
3

>  <NumHeteroatoms>  (106) 
13

>  <NumRotatableBonds>  (106) 
4

>  <NumSaturatedCarbocycles>  (106) 
0

>  <NumSaturatedHeterocycles>  (106) 
1

>  <NumSaturatedRings>  (106) 
1

>  <RingCount>  (106) 
3

>  <MolLogP>  (106) 
-3.127

>  <MolMR>  (106) 
69.2175

>  <fr_Al_COO>  (106) 
0

>  <fr_Al_OH>  (106) 
2

>  <fr_Al_OH_noTert>  (106) 
2

>  <fr_ArN>  (106) 
1

>  <fr_Ar_COO>  (106) 
0

>  <fr_Ar_N>  (106) 
4

>  <fr_Ar_NH>  (106) 
0

>  <fr_Ar_OH>  (106) 
0

>  <fr_COO>  (106) 
0

>  <fr_COO2>  (106) 
0

>  <fr_C_O>  (106) 
0

>  <fr_C_O_noCOO>  (106) 
0

>  <fr_C_S>  (106) 
0

>  <fr_HOCCN>  (106) 
0

>  <fr_Imine>  (106) 
0

>  <fr_NH0>  (106) 
4

>  <fr_NH1>  (106) 
0

>  <fr_NH2>  (106) 
1

>  <fr_N_O>  (106) 
0

>  <fr_Ndealkylation1>  (106) 
0

>  <fr_Ndealkylation2>  (106) 
0

>  <fr_Nhpyrrole>  (106) 
0

>  <fr_SH>  (106) 
0

>  <fr_aldehyde>  (106) 
0

>  <fr_alkyl_carbamate>  (106) 
0

>  <fr_alkyl_halide>  (106) 
0

>  <fr_allylic_oxid>  (106) 
0

>  <fr_amide>  (106) 
0

>  <fr_amidine>  (106) 
0

>  <fr_aniline>  (106) 
1

>  <fr_aryl_methyl>  (106) 
0

>  <fr_azide>  (106) 
0

>  <fr_azo>  (106) 
0

>  <fr_barbitur>  (106) 
0

>  <fr_benzene>  (106) 
0

>  <fr_benzodiazepine>  (106) 
0

>  <fr_bicyclic>  (106) 
1

>  <fr_diazo>  (106) 
0

>  <fr_dihydropyridine>  (106) 
0

>  <fr_epoxide>  (106) 
0

>  <fr_ester>  (106) 
0

>  <fr_ether>  (106) 
1

>  <fr_furan>  (106) 
0

>  <fr_guanido>  (106) 
0

>  <fr_halogen>  (106) 
0

>  <fr_hdrzine>  (106) 
0

>  <fr_hdrzone>  (106) 
0

>  <fr_imidazole>  (106) 
1

>  <fr_imide>  (106) 
0

>  <fr_isocyan>  (106) 
0

>  <fr_isothiocyan>  (106) 
0

>  <fr_ketone>  (106) 
0

>  <fr_ketone_Topliss>  (106) 
0

>  <fr_lactam>  (106) 
0

>  <fr_lactone>  (106) 
0

>  <fr_methoxy>  (106) 
0

>  <fr_morpholine>  (106) 
0

>  <fr_nitrile>  (106) 
0

>  <fr_nitro>  (106) 
0

>  <fr_nitro_arom>  (106) 
0

>  <fr_nitro_arom_nonortho>  (106) 
0

>  <fr_nitroso>  (106) 
0

>  <fr_oxazole>  (106) 
0

>  <fr_oxime>  (106) 
0

>  <fr_para_hydroxylation>  (106) 
0

>  <fr_phenol>  (106) 
0

>  <fr_phenol_noOrthoHbond>  (106) 
0

>  <fr_phos_acid>  (106) 
1

>  <fr_phos_ester>  (106) 
1

>  <fr_piperdine>  (106) 
0

>  <fr_piperzine>  (106) 
0

>  <fr_priamide>  (106) 
0

>  <fr_prisulfonamd>  (106) 
0

>  <fr_pyridine>  (106) 
0

>  <fr_quatN>  (106) 
0

>  <fr_sulfide>  (106) 
0

>  <fr_sulfonamd>  (106) 
0

>  <fr_sulfone>  (106) 
0

>  <fr_term_acetylene>  (106) 
0

>  <fr_tetrazole>  (106) 
0

>  <fr_thiazole>  (106) 
0

>  <fr_thiocyan>  (106) 
0

>  <fr_thiophene>  (106) 
0

>  <fr_unbrch_alkane>  (106) 
0

>  <fr_urea>  (106) 
0

>  <NP_Likeness>  (106) 
1.016411

$$$$
ANP
     RDKit          3D

  0  0  0  0  0  0  0  0  0  0999 V3000
M  V30 BEGIN CTAB
M  V30 COUNTS 44 46 0 0 0
M  V30 BEGIN ATOM
M  V30 1 P 72.683000 29.286000 35.386000 0 CFG=1
M  V30 2 P 73.708000 28.509000 30.819000 0
M  V30 3 P 71.699000 28.269000 32.907000 0 CFG=2
M  V30 4 O 72.680000 28.199000 36.380000 0
M  V30 5 O 73.977000 29.669000 34.721000 0 CHG=-1
M  V30 6 O 73.464000 26.989000 30.818000 0
M  V30 7 O 75.079000 28.934000 31.200000 0 CHG=-1
M  V30 8 O 73.233000 29.138000 29.596000 0 CHG=-1
M  V30 9 O 70.452000 28.406000 32.183000 0
M  V30 10 O 72.212000 26.929000 33.256000 0 CHG=-1
M  V30 11 O 74.301000 34.973000 37.266000 0
M  V30 12 O 74.727000 33.149000 35.351000 0
M  V30 13 O 71.528000 29.079000 34.285000 0
M  V30 14 O 72.092000 30.565000 36.156000 0
M  V30 15 O 71.827000 33.098000 37.487000 0
M  V30 16 N 73.588000 30.634000 43.655000 0
M  V30 17 N 72.848000 29.111000 32.068000 0
M  V30 18 N 73.508000 32.961000 43.463000 0
M  V30 19 N 73.132000 34.097000 41.390000 0
M  V30 20 N 73.257000 30.596000 40.619000 0
M  V30 21 N 72.939000 32.529000 39.532000 0
M  V30 22 C 71.831000 31.782000 35.442000 0
M  V30 23 C 73.333000 34.036000 42.699000 0
M  V30 24 C 72.997000 31.155000 39.477000 0
M  V30 25 C 74.154000 33.605000 37.672000 0 CFG=2
M  V30 26 C 73.922000 32.754000 36.457000 0 CFG=1
M  V30 27 C 72.838000 33.486000 38.436000 0 CFG=1
M  V30 28 C 73.495000 31.729000 42.893000 0
M  V30 29 C 72.435000 32.951000 36.190000 0 CFG=2
M  V30 30 C 73.149000 32.850000 40.850000 0
M  V30 31 C 73.330000 31.669000 41.506000 0
M  V30 32 H 74.695600 35.007600 36.347800 0
M  V30 33 H 75.693000 33.074500 35.598400 0
M  V30 34 H 73.578100 29.728000 43.231800 0
M  V30 35 H 73.667400 30.721200 44.648000 0
M  V30 36 H 72.380100 29.918100 31.707800 0
M  V30 37 H 70.843200 31.914200 35.360200 0
M  V30 38 H 72.236500 31.725800 34.529600 0
M  V30 39 H 73.356200 34.914900 43.175500 0
M  V30 40 H 72.852200 30.635500 38.634900 0
M  V30 41 H 74.933200 33.286500 38.211900 0
M  V30 42 H 74.100400 31.795200 36.678200 0
M  V30 43 H 72.601000 34.382100 38.811300 0
M  V30 44 H 72.299900 33.789500 35.662100 0
M  V30 END ATOM
M  V30 BEGIN BOND
M  V30 1 2 1 4
M  V30 2 1 1 5 CFG=3
M  V30 3 1 1 13
M  V30 4 1 1 14
M  V30 5 2 2 6
M  V30 6 1 2 7
M  V30 7 1 2 8
M  V30 8 1 2 17
M  V30 9 2 3 9
M  V30 10 1 3 10 CFG=1
M  V30 11 1 3 13
M  V30 12 1 3 17
M  V30 13 1 11 25
M  V30 14 1 12 26
M  V30 15 1 14 22
M  V30 16 1 15 27
M  V30 17 1 15 29
M  V30 18 1 16 28
M  V30 19 2 18 23
M  V30 20 1 18 28
M  V30 21 1 19 23
M  V30 22 2 19 30
M  V30 23 2 20 24
M  V30 24 1 20 31
M  V30 25 1 21 24
M  V30 26 1 21 27
M  V30 27 1 21 30
M  V30 28 1 22 29
M  V30 29 1 25 26
M  V30 30 1 25 27
M  V30 31 1 26 29
M  V30 32 2 28 31
M  V30 33 1 30 31
M  V30 34 1 29 44 CFG=3
M  V30 35 1 27 43 CFG=1
M  V30 36 1 26 42 CFG=1
M  V30 37 1 25 41 CFG=1
M  V30 38 1 11 32
M  V30 39 1 12 33
M  V30 40 1 16 34
M  V30 41 1 16 35
M  V30 42 1 17 36
M  V30 43 1 22 37
M  V30 44 1 22 38
M  V30 45 1 23 39
M  V30 46 1 24 40
M  V30 END BOND
M  V30 END CTAB
M  END
>  <Ligand_Instance>  (107) 
1CDK_ANP_A_400

>  <Dataset>  (107) 
PDB

>  <PDB_ID>  (107) 
1CDK

>  <Chain>  (107) 
A

>  <Resi>  (107) 
400

>  <Num_Resolved_Atoms>  (107) 
31

>  <Num_H_Atoms_ProtBoundConf>  (107) 
13

>  <Pocket>  (107) 
A

>  <Name>  (107) 
PHOSPHOAMINOPHOSPHONIC ACID-ADENYLATE ESTER

>  <Num_Not_Resolved_Atoms>  (107) 
0

>  <ATP_Site>  (107) 
True

>  <Peripheral>  (107) 
False

>  <Standardized_SMILES>  (107) 
[H]O[C@@]1([H])[C@@]([H])(O[H])[C@]([H])(N2C([H])=NC3=C2N=C([H])N=C3N([H])[H])O[C@]1([H])C([H])([H])O[P@](=O)([O-])O[P@](=O)([O-])N([H])P(=O)([O-])[O-]

>  <2D_Mol_H>  (107) 
<rdkit.Chem.rdchem.Mol object at 0x77059d9e7ed0>

>  <MW>  (107) 
502.166

>  <HBA>  (107) 
17

>  <HBD>  (107) 
4

>  <LogP>  (107) 
-4.584

>  <NRB>  (107) 
11

>  <TPSA>  (107) 
293.25

>  <Num_Heavy_Atoms>  (107) 
31

>  <Ro5>  (107) 
[False, False, True, True, False, False]

>  <Ro5_Fulfilled>  (107) 
False

>  <Ro3>  (107) 
[False, False, False, True]

>  <Ro3_Fulfilled>  (107) 
False

>  <Fsp3>  (107) 
0.5

>  <Fsp3_0.42>  (107) 
True

>  <Fsp3_0.45>  (107) 
True

>  <Stereogenic_Carbons>  (107) 
4

>  <C_Atoms>  (107) 
10

>  <FCStereo>  (107) 
0.4

>  <SPS>  (107) 
882

>  <nSPS>  (107) 
28.451613

>  <PBF>  (107) 
0.805378

>  <PBF_0.6>  (107) 
True

>  <nPBF>  (107) 
0.02598

>  <nPBF_0.016>  (107) 
True

>  <PMI1>  (107) 
1663.911355

>  <PMI2>  (107) 
9857.329731

>  <PMI3>  (107) 
10661.16279

>  <NPR1>  (107) 
0.156072

>  <NPR2>  (107) 
0.924602

>  <Sum_NPR>  (107) 
1.080674

>  <Sum_NPR_1.07>  (107) 
True

>  <Sum_NPR_1.2>  (107) 
False

>  <MaxAbsEStateIndex>  (107) 
11.631022

>  <MaxEStateIndex>  (107) 
11.631022

>  <MinAbsEStateIndex>  (107) 
0.025434

>  <MinEStateIndex>  (107) 
-5.88789

>  <qed>  (107) 
0.246841

>  <MolWt>  (107) 
502.166

>  <HeavyAtomMolWt>  (107) 
489.062

>  <ExactMolWt>  (107) 
501.982624

>  <NumValenceElectrons>  (107) 
174

>  <NumRadicalElectrons>  (107) 
0

>  <MaxPartialCharge>  (107) 
0.273292

>  <MinPartialCharge>  (107) 
-0.799075

>  <MaxAbsPartialCharge>  (107) 
0.799075

>  <MinAbsPartialCharge>  (107) 
0.273292

>  <FpDensityMorgan1>  (107) 
1.16129

>  <FpDensityMorgan2>  (107) 
1.83871

>  <FpDensityMorgan3>  (107) 
2.483871

>  <BCUT2D_MWHI>  (107) 
31.287813

>  <BCUT2D_MWLOW>  (107) 
10.128388

>  <BCUT2D_CHGHI>  (107) 
2.44611

>  <BCUT2D_CHGLO>  (107) 
-2.388133

>  <BCUT2D_LOGPHI>  (107) 
2.552246

>  <BCUT2D_LOGPLOW>  (107) 
-2.341071

>  <BCUT2D_MRHI>  (107) 
7.684213

>  <BCUT2D_MRLOW>  (107) 
-0.316952

>  <AvgIpc>  (107) 
3.133568

>  <BalabanJ>  (107) 
1.689409

>  <BertzCT>  (107) 
1105.970439

>  <Chi0>  (107) 
23.18987

>  <Chi0n>  (107) 
14.855964

>  <Chi0v>  (107) 
17.539246

>  <Chi1>  (107) 
14.190889

>  <Chi1n>  (107) 
7.931778

>  <Chi1v>  (107) 
12.477689

>  <Chi2n>  (107) 
6.048811

>  <Chi2v>  (107) 
10.644506

>  <Chi3n>  (107) 
3.847795

>  <Chi3v>  (107) 
7.932617

>  <Chi4n>  (107) 
2.641158

>  <Chi4v>  (107) 
5.887109

>  <HallKierAlpha>  (107) 
-1.36

>  <Ipc>  (107) 
3947352.346056

>  <Kappa1>  (107) 
24.285736

>  <Kappa2>  (107) 
8.532213

>  <Kappa3>  (107) 
5.714341

>  <LabuteASA>  (107) 
171.593724

>  <PEOE_VSA1>  (107) 
49.346027

>  <PEOE_VSA10>  (107) 
30.15592

>  <PEOE_VSA11>  (107) 
17.692941

>  <PEOE_VSA12>  (107) 
7.746488

>  <PEOE_VSA13>  (107) 
7.822697

>  <PEOE_VSA14>  (107) 
0.0

>  <PEOE_VSA2>  (107) 
18.007828

>  <PEOE_VSA3>  (107) 
19.809737

>  <PEOE_VSA4>  (107) 
0.0

>  <PEOE_VSA5>  (107) 
0.0

>  <PEOE_VSA6>  (107) 
0.0

>  <PEOE_VSA7>  (107) 
0.0

>  <PEOE_VSA8>  (107) 
7.746488

>  <PEOE_VSA9>  (107) 
12.934202

>  <SMR_VSA1>  (107) 
57.053088

>  <SMR_VSA10>  (107) 
40.297415

>  <SMR_VSA2>  (107) 
0.0

>  <SMR_VSA3>  (107) 
24.376837

>  <SMR_VSA4>  (107) 
0.0

>  <SMR_VSA5>  (107) 
24.5398

>  <SMR_VSA6>  (107) 
12.340549

>  <SMR_VSA7>  (107) 
12.65464

>  <SMR_VSA8>  (107) 
0.0

>  <SMR_VSA9>  (107) 
0.0

>  <SlogP_VSA1>  (107) 
30.165115

>  <SlogP_VSA10>  (107) 
5.817863

>  <SlogP_VSA11>  (107) 
0.0

>  <SlogP_VSA12>  (107) 
23.315674

>  <SlogP_VSA2>  (107) 
54.650871

>  <SlogP_VSA3>  (107) 
27.266386

>  <SlogP_VSA4>  (107) 
0.0

>  <SlogP_VSA5>  (107) 
6.227901

>  <SlogP_VSA6>  (107) 
12.65464

>  <SlogP_VSA7>  (107) 
0.0

>  <SlogP_VSA8>  (107) 
11.163878

>  <SlogP_VSA9>  (107) 
0.0

>  <EState_VSA1>  (107) 
54.462356

>  <EState_VSA10>  (107) 
43.481846

>  <EState_VSA11>  (107) 
0.0

>  <EState_VSA2>  (107) 
16.981741

>  <EState_VSA3>  (107) 
4.857802

>  <EState_VSA4>  (107) 
6.32732

>  <EState_VSA5>  (107) 
10.89442

>  <EState_VSA6>  (107) 
0.0

>  <EState_VSA7>  (107) 
0.0

>  <EState_VSA8>  (107) 
23.786314

>  <EState_VSA9>  (107) 
10.47053

>  <VSA_EState1>  (107) 
47.639432

>  <VSA_EState10>  (107) 
0.0

>  <VSA_EState2>  (107) 
55.77868

>  <VSA_EState3>  (107) 
20.343175

>  <VSA_EState4>  (107) 
5.942789

>  <VSA_EState5>  (107) 
0.025434

>  <VSA_EState6>  (107) 
0.0

>  <VSA_EState7>  (107) 
-3.918472

>  <VSA_EState8>  (107) 
-1.049933

>  <VSA_EState9>  (107) 
-17.511105

>  <FractionCSP3>  (107) 
0.5

>  <HeavyAtomCount>  (107) 
31

>  <NHOHCount>  (107) 
5

>  <NOCount>  (107) 
18

>  <NumAliphaticCarbocycles>  (107) 
0

>  <NumAliphaticHeterocycles>  (107) 
1

>  <NumAliphaticRings>  (107) 
1

>  <NumAromaticCarbocycles>  (107) 
0

>  <NumAromaticHeterocycles>  (107) 
2

>  <NumAromaticRings>  (107) 
2

>  <NumHAcceptors>  (107) 
17

>  <NumHDonors>  (107) 
4

>  <NumHeteroatoms>  (107) 
21

>  <NumRotatableBonds>  (107) 
8

>  <NumSaturatedCarbocycles>  (107) 
0

>  <NumSaturatedHeterocycles>  (107) 
1

>  <NumSaturatedRings>  (107) 
1

>  <RingCount>  (107) 
3

>  <MolLogP>  (107) 
-4.584

>  <MolMR>  (107) 
88.6512

>  <fr_Al_COO>  (107) 
0

>  <fr_Al_OH>  (107) 
2

>  <fr_Al_OH_noTert>  (107) 
2

>  <fr_ArN>  (107) 
1

>  <fr_Ar_COO>  (107) 
0

>  <fr_Ar_N>  (107) 
4

>  <fr_Ar_NH>  (107) 
0

>  <fr_Ar_OH>  (107) 
0

>  <fr_COO>  (107) 
0

>  <fr_COO2>  (107) 
0

>  <fr_C_O>  (107) 
0

>  <fr_C_O_noCOO>  (107) 
0

>  <fr_C_S>  (107) 
0

>  <fr_HOCCN>  (107) 
0

>  <fr_Imine>  (107) 
0

>  <fr_NH0>  (107) 
4

>  <fr_NH1>  (107) 
1

>  <fr_NH2>  (107) 
1

>  <fr_N_O>  (107) 
0

>  <fr_Ndealkylation1>  (107) 
0

>  <fr_Ndealkylation2>  (107) 
0

>  <fr_Nhpyrrole>  (107) 
0

>  <fr_SH>  (107) 
0

>  <fr_aldehyde>  (107) 
0

>  <fr_alkyl_carbamate>  (107) 
0

>  <fr_alkyl_halide>  (107) 
0

>  <fr_allylic_oxid>  (107) 
0

>  <fr_amide>  (107) 
0

>  <fr_amidine>  (107) 
0

>  <fr_aniline>  (107) 
1

>  <fr_aryl_methyl>  (107) 
0

>  <fr_azide>  (107) 
0

>  <fr_azo>  (107) 
0

>  <fr_barbitur>  (107) 
0

>  <fr_benzene>  (107) 
0

>  <fr_benzodiazepine>  (107) 
0

>  <fr_bicyclic>  (107) 
1

>  <fr_diazo>  (107) 
0

>  <fr_dihydropyridine>  (107) 
0

>  <fr_epoxide>  (107) 
0

>  <fr_ester>  (107) 
0

>  <fr_ether>  (107) 
1

>  <fr_furan>  (107) 
0

>  <fr_guanido>  (107) 
0

>  <fr_halogen>  (107) 
0

>  <fr_hdrzine>  (107) 
0

>  <fr_hdrzone>  (107) 
0

>  <fr_imidazole>  (107) 
1

>  <fr_imide>  (107) 
0

>  <fr_isocyan>  (107) 
0

>  <fr_isothiocyan>  (107) 
0

>  <fr_ketone>  (107) 
0

>  <fr_ketone_Topliss>  (107) 
0

>  <fr_lactam>  (107) 
0

>  <fr_lactone>  (107) 
0

>  <fr_methoxy>  (107) 
0

>  <fr_morpholine>  (107) 
0

>  <fr_nitrile>  (107) 
0

>  <fr_nitro>  (107) 
0

>  <fr_nitro_arom>  (107) 
0

>  <fr_nitro_arom_nonortho>  (107) 
0

>  <fr_nitroso>  (107) 
0

>  <fr_oxazole>  (107) 
0

>  <fr_oxime>  (107) 
0

>  <fr_para_hydroxylation>  (107) 
0

>  <fr_phenol>  (107) 
0

>  <fr_phenol_noOrthoHbond>  (107) 
0

>  <fr_phos_acid>  (107) 
1

>  <fr_phos_ester>  (107) 
1

>  <fr_piperdine>  (107) 
0

>  <fr_piperzine>  (107) 
0

>  <fr_priamide>  (107) 
0

>  <fr_prisulfonamd>  (107) 
0

>  <fr_pyridine>  (107) 
0

>  <fr_quatN>  (107) 
0

>  <fr_sulfide>  (107) 
0

>  <fr_sulfonamd>  (107) 
0

>  <fr_sulfone>  (107) 
0

>  <fr_term_acetylene>  (107) 
0

>  <fr_tetrazole>  (107) 
0

>  <fr_thiazole>  (107) 
0

>  <fr_thiocyan>  (107) 
0

>  <fr_thiophene>  (107) 
0

>  <fr_unbrch_alkane>  (107) 
0

>  <fr_urea>  (107) 
0

>  <NP_Likeness>  (107) 
0.781644

$$$$
ANP
     RDKit          3D

  0  0  0  0  0  0  0  0  0  0999 V3000
M  V30 BEGIN CTAB
M  V30 COUNTS 44 46 0 0 0
M  V30 BEGIN ATOM
M  V30 1 P 18.662000 2.063000 35.108000 0 CFG=1
M  V30 2 P 19.856000 1.322000 30.600000 0
M  V30 3 P 17.748000 1.033000 32.587000 0 CFG=2
M  V30 4 O 18.607000 0.981000 36.114000 0
M  V30 5 O 19.979000 2.473000 34.514000 0 CHG=-1
M  V30 6 O 19.624000 -0.185000 30.604000 0
M  V30 7 O 21.237000 1.803000 30.942000 0 CHG=-1
M  V30 8 O 19.335000 1.937000 29.376000 0 CHG=-1
M  V30 9 O 16.520000 1.253000 31.821000 0
M  V30 10 O 18.183000 -0.335000 32.911000 0 CHG=-1
M  V30 11 O 20.066000 7.931000 36.805000 0
M  V30 12 O 20.547000 6.109000 34.897000 0
M  V30 13 O 17.542000 1.802000 33.963000 0
M  V30 14 O 18.007000 3.349000 35.810000 0
M  V30 15 O 17.664000 5.878000 37.083000 0
M  V30 16 N 19.258000 3.640000 43.295000 0
M  V30 17 N 18.994000 1.872000 31.872000 0
M  V30 18 N 19.225000 5.971000 43.054000 0
M  V30 19 N 18.998000 7.081000 40.944000 0
M  V30 20 N 19.060000 3.550000 40.242000 0
M  V30 21 N 18.844000 5.464000 39.101000 0
M  V30 22 C 17.758000 4.536000 35.042000 0
M  V30 23 C 19.148000 7.038000 42.259000 0
M  V30 24 C 18.891000 4.090000 39.068000 0
M  V30 25 C 19.959000 6.561000 37.230000 0 CFG=2
M  V30 26 C 19.774000 5.675000 36.026000 0 CFG=1
M  V30 27 C 18.654000 6.387000 38.006000 0 CFG=1
M  V30 28 C 19.198000 4.724000 42.505000 0
M  V30 29 C 18.280000 5.752000 35.777000 0 CFG=2
M  V30 30 C 19.001000 5.813000 40.424000 0
M  V30 31 C 19.108000 4.636000 41.110000 0
M  V30 32 H 20.851600 8.030100 36.194200 0
M  V30 33 H 21.518000 6.103400 35.135900 0
M  V30 34 H 19.238100 2.725300 42.891300 0
M  V30 35 H 19.322600 3.747300 44.287100 0
M  V30 36 H 18.599600 2.741900 31.575800 0
M  V30 37 H 16.773600 4.635100 34.896500 0
M  V30 38 H 18.219600 4.460700 34.158100 0
M  V30 39 H 19.212100 7.924700 42.716800 0
M  V30 40 H 18.804100 3.557600 38.226000 0
M  V30 41 H 20.750300 6.281800 37.773900 0
M  V30 42 H 20.025100 4.736000 36.261100 0
M  V30 43 H 18.355700 7.272500 38.362300 0
M  V30 44 H 18.079100 6.571000 35.239500 0
M  V30 END ATOM
M  V30 BEGIN BOND
M  V30 1 2 1 4
M  V30 2 1 1 5 CFG=3
M  V30 3 1 1 13
M  V30 4 1 1 14
M  V30 5 2 2 6
M  V30 6 1 2 7
M  V30 7 1 2 8
M  V30 8 1 2 17
M  V30 9 2 3 9
M  V30 10 1 3 10 CFG=1
M  V30 11 1 3 13
M  V30 12 1 3 17
M  V30 13 1 11 25
M  V30 14 1 12 26
M  V30 15 1 14 22
M  V30 16 1 15 27
M  V30 17 1 15 29
M  V30 18 1 16 28
M  V30 19 2 18 23
M  V30 20 1 18 28
M  V30 21 1 19 23
M  V30 22 2 19 30
M  V30 23 2 20 24
M  V30 24 1 20 31
M  V30 25 1 21 24
M  V30 26 1 21 27
M  V30 27 1 21 30
M  V30 28 1 22 29
M  V30 29 1 25 26
M  V30 30 1 25 27
M  V30 31 1 26 29
M  V30 32 2 28 31
M  V30 33 1 30 31
M  V30 34 1 29 44 CFG=3
M  V30 35 1 27 43 CFG=1
M  V30 36 1 26 42 CFG=1
M  V30 37 1 25 41 CFG=1
M  V30 38 1 11 32
M  V30 39 1 12 33
M  V30 40 1 16 34
M  V30 41 1 16 35
M  V30 42 1 17 36
M  V30 43 1 22 37
M  V30 44 1 22 38
M  V30 45 1 23 39
M  V30 46 1 24 40
M  V30 END BOND
M  V30 END CTAB
M  END
>  <Ligand_Instance>  (108) 
1CDK_ANP_B_400

>  <Dataset>  (108) 
PDB

>  <PDB_ID>  (108) 
1CDK

>  <Chain>  (108) 
B

>  <Resi>  (108) 
400

>  <Num_Resolved_Atoms>  (108) 
31

>  <Num_H_Atoms_ProtBoundConf>  (108) 
13

>  <Pocket>  (108) 
A

>  <Name>  (108) 
PHOSPHOAMINOPHOSPHONIC ACID-ADENYLATE ESTER

>  <Num_Not_Resolved_Atoms>  (108) 
0

>  <ATP_Site>  (108) 
True

>  <Peripheral>  (108) 
False

>  <Standardized_SMILES>  (108) 
[H]O[C@@]1([H])[C@@]([H])(O[H])[C@]([H])(N2C([H])=NC3=C2N=C([H])N=C3N([H])[H])O[C@]1([H])C([H])([H])O[P@](=O)([O-])O[P@](=O)([O-])N([H])P(=O)([O-])[O-]

>  <2D_Mol_H>  (108) 
<rdkit.Chem.rdchem.Mol object at 0x77059d9f8040>

>  <MW>  (108) 
502.166

>  <HBA>  (108) 
17

>  <HBD>  (108) 
4

>  <LogP>  (108) 
-4.584

>  <NRB>  (108) 
11

>  <TPSA>  (108) 
293.25

>  <Num_Heavy_Atoms>  (108) 
31

>  <Ro5>  (108) 
[False, False, True, True, False, False]

>  <Ro5_Fulfilled>  (108) 
False

>  <Ro3>  (108) 
[False, False, False, True]

>  <Ro3_Fulfilled>  (108) 
False

>  <Fsp3>  (108) 
0.5

>  <Fsp3_0.42>  (108) 
True

>  <Fsp3_0.45>  (108) 
True

>  <Stereogenic_Carbons>  (108) 
4

>  <C_Atoms>  (108) 
10

>  <FCStereo>  (108) 
0.4

>  <SPS>  (108) 
882

>  <nSPS>  (108) 
28.451613

>  <PBF>  (108) 
0.788676

>  <PBF_0.6>  (108) 
True

>  <nPBF>  (108) 
0.025441

>  <nPBF_0.016>  (108) 
True

>  <PMI1>  (108) 
1700.924459

>  <PMI2>  (108) 
9721.192297

>  <PMI3>  (108) 
10563.698521

>  <NPR1>  (108) 
0.161016

>  <NPR2>  (108) 
0.920245

>  <Sum_NPR>  (108) 
1.081261

>  <Sum_NPR_1.07>  (108) 
True

>  <Sum_NPR_1.2>  (108) 
False

>  <MaxAbsEStateIndex>  (108) 
11.631022

>  <MaxEStateIndex>  (108) 
11.631022

>  <MinAbsEStateIndex>  (108) 
0.025434

>  <MinEStateIndex>  (108) 
-5.88789

>  <qed>  (108) 
0.246841

>  <MolWt>  (108) 
502.166

>  <HeavyAtomMolWt>  (108) 
489.062

>  <ExactMolWt>  (108) 
501.982624

>  <NumValenceElectrons>  (108) 
174

>  <NumRadicalElectrons>  (108) 
0

>  <MaxPartialCharge>  (108) 
0.273292

>  <MinPartialCharge>  (108) 
-0.799075

>  <MaxAbsPartialCharge>  (108) 
0.799075

>  <MinAbsPartialCharge>  (108) 
0.273292

>  <FpDensityMorgan1>  (108) 
1.16129

>  <FpDensityMorgan2>  (108) 
1.83871

>  <FpDensityMorgan3>  (108) 
2.483871

>  <BCUT2D_MWHI>  (108) 
31.287813

>  <BCUT2D_MWLOW>  (108) 
10.128388

>  <BCUT2D_CHGHI>  (108) 
2.44611

>  <BCUT2D_CHGLO>  (108) 
-2.388133

>  <BCUT2D_LOGPHI>  (108) 
2.552246

>  <BCUT2D_LOGPLOW>  (108) 
-2.341071

>  <BCUT2D_MRHI>  (108) 
7.684213

>  <BCUT2D_MRLOW>  (108) 
-0.316952

>  <AvgIpc>  (108) 
3.133568

>  <BalabanJ>  (108) 
1.689409

>  <BertzCT>  (108) 
1105.970439

>  <Chi0>  (108) 
23.18987

>  <Chi0n>  (108) 
14.855964

>  <Chi0v>  (108) 
17.539246

>  <Chi1>  (108) 
14.190889

>  <Chi1n>  (108) 
7.931778

>  <Chi1v>  (108) 
12.477689

>  <Chi2n>  (108) 
6.048811

>  <Chi2v>  (108) 
10.644506

>  <Chi3n>  (108) 
3.847795

>  <Chi3v>  (108) 
7.932617

>  <Chi4n>  (108) 
2.641158

>  <Chi4v>  (108) 
5.887109

>  <HallKierAlpha>  (108) 
-1.36

>  <Ipc>  (108) 
3947352.346056

>  <Kappa1>  (108) 
24.285736

>  <Kappa2>  (108) 
8.532213

>  <Kappa3>  (108) 
5.714341

>  <LabuteASA>  (108) 
171.593724

>  <PEOE_VSA1>  (108) 
49.346027

>  <PEOE_VSA10>  (108) 
30.15592

>  <PEOE_VSA11>  (108) 
17.692941

>  <PEOE_VSA12>  (108) 
7.746488

>  <PEOE_VSA13>  (108) 
7.822697

>  <PEOE_VSA14>  (108) 
0.0

>  <PEOE_VSA2>  (108) 
18.007828

>  <PEOE_VSA3>  (108) 
19.809737

>  <PEOE_VSA4>  (108) 
0.0

>  <PEOE_VSA5>  (108) 
0.0

>  <PEOE_VSA6>  (108) 
0.0

>  <PEOE_VSA7>  (108) 
0.0

>  <PEOE_VSA8>  (108) 
7.746488

>  <PEOE_VSA9>  (108) 
12.934202

>  <SMR_VSA1>  (108) 
57.053088

>  <SMR_VSA10>  (108) 
40.297415

>  <SMR_VSA2>  (108) 
0.0

>  <SMR_VSA3>  (108) 
24.376837

>  <SMR_VSA4>  (108) 
0.0

>  <SMR_VSA5>  (108) 
24.5398

>  <SMR_VSA6>  (108) 
12.340549

>  <SMR_VSA7>  (108) 
12.65464

>  <SMR_VSA8>  (108) 
0.0

>  <SMR_VSA9>  (108) 
0.0

>  <SlogP_VSA1>  (108) 
30.165115

>  <SlogP_VSA10>  (108) 
5.817863

>  <SlogP_VSA11>  (108) 
0.0

>  <SlogP_VSA12>  (108) 
23.315674

>  <SlogP_VSA2>  (108) 
54.650871

>  <SlogP_VSA3>  (108) 
27.266386

>  <SlogP_VSA4>  (108) 
0.0

>  <SlogP_VSA5>  (108) 
6.227901

>  <SlogP_VSA6>  (108) 
12.65464

>  <SlogP_VSA7>  (108) 
0.0

>  <SlogP_VSA8>  (108) 
11.163878

>  <SlogP_VSA9>  (108) 
0.0

>  <EState_VSA1>  (108) 
54.462356

>  <EState_VSA10>  (108) 
43.481846

>  <EState_VSA11>  (108) 
0.0

>  <EState_VSA2>  (108) 
16.981741

>  <EState_VSA3>  (108) 
4.857802

>  <EState_VSA4>  (108) 
6.32732

>  <EState_VSA5>  (108) 
10.89442

>  <EState_VSA6>  (108) 
0.0

>  <EState_VSA7>  (108) 
0.0

>  <EState_VSA8>  (108) 
23.786314

>  <EState_VSA9>  (108) 
10.47053

>  <VSA_EState1>  (108) 
47.639432

>  <VSA_EState10>  (108) 
0.0

>  <VSA_EState2>  (108) 
55.77868

>  <VSA_EState3>  (108) 
20.343175

>  <VSA_EState4>  (108) 
5.942789

>  <VSA_EState5>  (108) 
0.025434

>  <VSA_EState6>  (108) 
0.0

>  <VSA_EState7>  (108) 
-3.918472

>  <VSA_EState8>  (108) 
-1.049933

>  <VSA_EState9>  (108) 
-17.511105

>  <FractionCSP3>  (108) 
0.5

>  <HeavyAtomCount>  (108) 
31

>  <NHOHCount>  (108) 
5

>  <NOCount>  (108) 
18

>  <NumAliphaticCarbocycles>  (108) 
0

>  <NumAliphaticHeterocycles>  (108) 
1

>  <NumAliphaticRings>  (108) 
1

>  <NumAromaticCarbocycles>  (108) 
0

>  <NumAromaticHeterocycles>  (108) 
2

>  <NumAromaticRings>  (108) 
2

>  <NumHAcceptors>  (108) 
17

>  <NumHDonors>  (108) 
4

>  <NumHeteroatoms>  (108) 
21

>  <NumRotatableBonds>  (108) 
8

>  <NumSaturatedCarbocycles>  (108) 
0

>  <NumSaturatedHeterocycles>  (108) 
1

>  <NumSaturatedRings>  (108) 
1

>  <RingCount>  (108) 
3

>  <MolLogP>  (108) 
-4.584

>  <MolMR>  (108) 
88.6512

>  <fr_Al_COO>  (108) 
0

>  <fr_Al_OH>  (108) 
2

>  <fr_Al_OH_noTert>  (108) 
2

>  <fr_ArN>  (108) 
1

>  <fr_Ar_COO>  (108) 
0

>  <fr_Ar_N>  (108) 
4

>  <fr_Ar_NH>  (108) 
0

>  <fr_Ar_OH>  (108) 
0

>  <fr_COO>  (108) 
0

>  <fr_COO2>  (108) 
0

>  <fr_C_O>  (108) 
0

>  <fr_C_O_noCOO>  (108) 
0

>  <fr_C_S>  (108) 
0

>  <fr_HOCCN>  (108) 
0

>  <fr_Imine>  (108) 
0

>  <fr_NH0>  (108) 
4

>  <fr_NH1>  (108) 
1

>  <fr_NH2>  (108) 
1

>  <fr_N_O>  (108) 
0

>  <fr_Ndealkylation1>  (108) 
0

>  <fr_Ndealkylation2>  (108) 
0

>  <fr_Nhpyrrole>  (108) 
0

>  <fr_SH>  (108) 
0

>  <fr_aldehyde>  (108) 
0

>  <fr_alkyl_carbamate>  (108) 
0

>  <fr_alkyl_halide>  (108) 
0

>  <fr_allylic_oxid>  (108) 
0

>  <fr_amide>  (108) 
0

>  <fr_amidine>  (108) 
0

>  <fr_aniline>  (108) 
1

>  <fr_aryl_methyl>  (108) 
0

>  <fr_azide>  (108) 
0

>  <fr_azo>  (108) 
0

>  <fr_barbitur>  (108) 
0

>  <fr_benzene>  (108) 
0

>  <fr_benzodiazepine>  (108) 
0

>  <fr_bicyclic>  (108) 
1

>  <fr_diazo>  (108) 
0

>  <fr_dihydropyridine>  (108) 
0

>  <fr_epoxide>  (108) 
0

>  <fr_ester>  (108) 
0

>  <fr_ether>  (108) 
1

>  <fr_furan>  (108) 
0

>  <fr_guanido>  (108) 
0

>  <fr_halogen>  (108) 
0

>  <fr_hdrzine>  (108) 
0

>  <fr_hdrzone>  (108) 
0

>  <fr_imidazole>  (108) 
1

>  <fr_imide>  (108) 
0

>  <fr_isocyan>  (108) 
0

>  <fr_isothiocyan>  (108) 
0

>  <fr_ketone>  (108) 
0

>  <fr_ketone_Topliss>  (108) 
0

>  <fr_lactam>  (108) 
0

>  <fr_lactone>  (108) 
0

>  <fr_methoxy>  (108) 
0

>  <fr_morpholine>  (108) 
0

>  <fr_nitrile>  (108) 
0

>  <fr_nitro>  (108) 
0

>  <fr_nitro_arom>  (108) 
0

>  <fr_nitro_arom_nonortho>  (108) 
0

>  <fr_nitroso>  (108) 
0

>  <fr_oxazole>  (108) 
0

>  <fr_oxime>  (108) 
0

>  <fr_para_hydroxylation>  (108) 
0

>  <fr_phenol>  (108) 
0

>  <fr_phenol_noOrthoHbond>  (108) 
0

>  <fr_phos_acid>  (108) 
1

>  <fr_phos_ester>  (108) 
1

>  <fr_piperdine>  (108) 
0

>  <fr_piperzine>  (108) 
0

>  <fr_priamide>  (108) 
0

>  <fr_prisulfonamd>  (108) 
0

>  <fr_pyridine>  (108) 
0

>  <fr_quatN>  (108) 
0

>  <fr_sulfide>  (108) 
0

>  <fr_sulfonamd>  (108) 
0

>  <fr_sulfone>  (108) 
0

>  <fr_term_acetylene>  (108) 
0

>  <fr_tetrazole>  (108) 
0

>  <fr_thiazole>  (108) 
0

>  <fr_thiocyan>  (108) 
0

>  <fr_thiophene>  (108) 
0

>  <fr_unbrch_alkane>  (108) 
0

>  <fr_urea>  (108) 
0

>  <NP_Likeness>  (108) 
0.781644

$$$$
ANP
     RDKit          3D

  0  0  0  0  0  0  0  0  0  0999 V3000
M  V30 BEGIN CTAB
M  V30 COUNTS 44 46 0 0 0
M  V30 BEGIN ATOM
M  V30 1 P -2.347000 2.100000 -17.803000 0 CFG=1
M  V30 2 P 1.125000 2.500000 -21.112000 0
M  V30 3 P 0.438000 2.937000 -18.222000 0 CFG=1
M  V30 4 O -3.108000 3.253000 -17.261000 0
M  V30 5 O -2.510000 1.726000 -19.235000 0 CHG=-1
M  V30 6 O 2.434000 1.809000 -21.423000 0
M  V30 7 O -0.014000 2.061000 -22.037000 0 CHG=-1
M  V30 8 O 1.269000 4.014000 -21.065000 0 CHG=-1
M  V30 9 O 0.034000 4.332000 -18.573000 0
M  V30 10 O 1.600000 2.764000 -17.285000 0 CHG=-1
M  V30 11 O -4.490000 -3.826000 -17.960000 0
M  V30 12 O -3.371000 -1.834000 -19.590000 0
M  V30 13 O -0.783000 2.257000 -17.423000 0
M  V30 14 O -2.737000 0.857000 -16.887000 0
M  V30 15 O -3.627000 -1.699000 -15.990000 0
M  V30 16 N -9.709000 0.784000 -14.079000 0
M  V30 17 N 0.614000 2.050000 -19.591000 0
M  V30 18 N -9.509000 -1.559000 -14.126000 0
M  V30 19 N -7.636000 -2.728000 -14.988000 0
M  V30 20 N -6.889000 0.732000 -15.437000 0
M  V30 21 N -5.898000 -1.223000 -15.869000 0
M  V30 22 C -1.973000 -0.334000 -17.074000 0
M  V30 23 C -8.855000 -2.697000 -14.422000 0
M  V30 24 C -5.791000 0.126000 -15.942000 0
M  V30 25 C -4.953000 -2.483000 -17.795000 0 CFG=2
M  V30 26 C -3.936000 -1.477000 -18.319000 0 CFG=1
M  V30 27 C -4.915000 -2.225000 -16.303000 0 CFG=1
M  V30 28 C -9.013000 -0.333000 -14.380000 0
M  V30 29 C -2.889000 -1.539000 -17.210000 0 CFG=2
M  V30 30 C -7.053000 -1.540000 -15.290000 0
M  V30 31 C -7.703000 -0.266000 -15.019000 0
M  V30 32 H -4.334500 -4.008000 -18.930900 0
M  V30 33 H -4.099700 -1.902200 -20.271400 0
M  V30 34 H -9.320300 1.683900 -14.276900 0
M  V30 35 H -10.613200 0.711500 -13.658200 0
M  V30 36 H 1.247700 1.322400 -19.328200 0
M  V30 37 H -1.370900 -0.465700 -16.286500 0
M  V30 38 H -1.421900 -0.244400 -17.903600 0
M  V30 39 H -9.299900 -3.567000 -14.209400 0
M  V30 40 H -5.002200 0.610400 -16.320300 0
M  V30 41 H -5.863700 -2.342800 -18.183500 0
M  V30 42 H -4.341500 -0.564000 -18.363200 0
M  V30 43 H -5.061500 -3.080900 -15.807000 0
M  V30 44 H -2.325200 -2.353000 -17.349900 0
M  V30 END ATOM
M  V30 BEGIN BOND
M  V30 1 2 1 4
M  V30 2 1 1 5 CFG=3
M  V30 3 1 1 13
M  V30 4 1 1 14
M  V30 5 2 2 6
M  V30 6 1 2 7
M  V30 7 1 2 8
M  V30 8 1 2 17
M  V30 9 2 3 9
M  V30 10 1 3 10 CFG=1
M  V30 11 1 3 13
M  V30 12 1 3 17
M  V30 13 1 11 25
M  V30 14 1 12 26
M  V30 15 1 14 22
M  V30 16 1 15 27
M  V30 17 1 15 29
M  V30 18 1 16 28
M  V30 19 2 18 23
M  V30 20 1 18 28
M  V30 21 1 19 23
M  V30 22 2 19 30
M  V30 23 2 20 24
M  V30 24 1 20 31
M  V30 25 1 21 24
M  V30 26 1 21 27
M  V30 27 1 21 30
M  V30 28 1 22 29
M  V30 29 1 25 26
M  V30 30 1 25 27
M  V30 31 1 26 29
M  V30 32 2 28 31
M  V30 33 1 30 31
M  V30 34 1 29 44 CFG=3
M  V30 35 1 27 43 CFG=1
M  V30 36 1 26 42 CFG=3
M  V30 37 1 25 41 CFG=3
M  V30 38 1 11 32
M  V30 39 1 12 33
M  V30 40 1 16 34
M  V30 41 1 16 35
M  V30 42 1 17 36
M  V30 43 1 22 37
M  V30 44 1 22 38
M  V30 45 1 23 39
M  V30 46 1 24 40
M  V30 END BOND
M  V30 END CTAB
M  END
>  <Ligand_Instance>  (109) 
4DFX_ANP_E_402

>  <Dataset>  (109) 
PDB

>  <PDB_ID>  (109) 
4DFX

>  <Chain>  (109) 
E

>  <Resi>  (109) 
402

>  <Num_Resolved_Atoms>  (109) 
31

>  <Num_H_Atoms_ProtBoundConf>  (109) 
13

>  <Pocket>  (109) 
A

>  <Name>  (109) 
PHOSPHOAMINOPHOSPHONIC ACID-ADENYLATE ESTER

>  <Num_Not_Resolved_Atoms>  (109) 
0

>  <ATP_Site>  (109) 
True

>  <Peripheral>  (109) 
False

>  <Standardized_SMILES>  (109) 
[H]O[C@@]1([H])[C@@]([H])(O[H])[C@]([H])(N2C([H])=NC3=C2N=C([H])N=C3N([H])[H])O[C@]1([H])C([H])([H])O[P@](=O)([O-])O[P@@](=O)([O-])N([H])P(=O)([O-])[O-]

>  <2D_Mol_H>  (109) 
<rdkit.Chem.rdchem.Mol object at 0x77059d9f8120>

>  <MW>  (109) 
502.166

>  <HBA>  (109) 
17

>  <HBD>  (109) 
4

>  <LogP>  (109) 
-4.584

>  <NRB>  (109) 
11

>  <TPSA>  (109) 
293.25

>  <Num_Heavy_Atoms>  (109) 
31

>  <Ro5>  (109) 
[False, False, True, True, False, False]

>  <Ro5_Fulfilled>  (109) 
False

>  <Ro3>  (109) 
[False, False, False, True]

>  <Ro3_Fulfilled>  (109) 
False

>  <Fsp3>  (109) 
0.5

>  <Fsp3_0.42>  (109) 
True

>  <Fsp3_0.45>  (109) 
True

>  <Stereogenic_Carbons>  (109) 
4

>  <C_Atoms>  (109) 
10

>  <FCStereo>  (109) 
0.4

>  <SPS>  (109) 
882

>  <nSPS>  (109) 
28.451613

>  <PBF>  (109) 
0.791789

>  <PBF_0.6>  (109) 
True

>  <nPBF>  (109) 
0.025542

>  <nPBF_0.016>  (109) 
True

>  <PMI1>  (109) 
1734.312784

>  <PMI2>  (109) 
9754.786818

>  <PMI3>  (109) 
10632.228585

>  <NPR1>  (109) 
0.163118

>  <NPR2>  (109) 
0.917473

>  <Sum_NPR>  (109) 
1.080592

>  <Sum_NPR_1.07>  (109) 
True

>  <Sum_NPR_1.2>  (109) 
False

>  <MaxAbsEStateIndex>  (109) 
11.631022

>  <MaxEStateIndex>  (109) 
11.631022

>  <MinAbsEStateIndex>  (109) 
0.025434

>  <MinEStateIndex>  (109) 
-5.88789

>  <qed>  (109) 
0.246841

>  <MolWt>  (109) 
502.166

>  <HeavyAtomMolWt>  (109) 
489.062

>  <ExactMolWt>  (109) 
501.982624

>  <NumValenceElectrons>  (109) 
174

>  <NumRadicalElectrons>  (109) 
0

>  <MaxPartialCharge>  (109) 
0.273292

>  <MinPartialCharge>  (109) 
-0.799075

>  <MaxAbsPartialCharge>  (109) 
0.799075

>  <MinAbsPartialCharge>  (109) 
0.273292

>  <FpDensityMorgan1>  (109) 
1.16129

>  <FpDensityMorgan2>  (109) 
1.83871

>  <FpDensityMorgan3>  (109) 
2.483871

>  <BCUT2D_MWHI>  (109) 
31.287813

>  <BCUT2D_MWLOW>  (109) 
10.128388

>  <BCUT2D_CHGHI>  (109) 
2.44611

>  <BCUT2D_CHGLO>  (109) 
-2.388133

>  <BCUT2D_LOGPHI>  (109) 
2.552246

>  <BCUT2D_LOGPLOW>  (109) 
-2.341071

>  <BCUT2D_MRHI>  (109) 
7.684213

>  <BCUT2D_MRLOW>  (109) 
-0.316952

>  <AvgIpc>  (109) 
3.133568

>  <BalabanJ>  (109) 
1.689409

>  <BertzCT>  (109) 
1105.970439

>  <Chi0>  (109) 
23.18987

>  <Chi0n>  (109) 
14.855964

>  <Chi0v>  (109) 
17.539246

>  <Chi1>  (109) 
14.190889

>  <Chi1n>  (109) 
7.931778

>  <Chi1v>  (109) 
12.477689

>  <Chi2n>  (109) 
6.048811

>  <Chi2v>  (109) 
10.644506

>  <Chi3n>  (109) 
3.847795

>  <Chi3v>  (109) 
7.932617

>  <Chi4n>  (109) 
2.641158

>  <Chi4v>  (109) 
5.887109

>  <HallKierAlpha>  (109) 
-1.36

>  <Ipc>  (109) 
3947352.346056

>  <Kappa1>  (109) 
24.285736

>  <Kappa2>  (109) 
8.532213

>  <Kappa3>  (109) 
5.714341

>  <LabuteASA>  (109) 
171.593724

>  <PEOE_VSA1>  (109) 
49.346027

>  <PEOE_VSA10>  (109) 
30.15592

>  <PEOE_VSA11>  (109) 
17.692941

>  <PEOE_VSA12>  (109) 
7.746488

>  <PEOE_VSA13>  (109) 
7.822697

>  <PEOE_VSA14>  (109) 
0.0

>  <PEOE_VSA2>  (109) 
18.007828

>  <PEOE_VSA3>  (109) 
19.809737

>  <PEOE_VSA4>  (109) 
0.0

>  <PEOE_VSA5>  (109) 
0.0

>  <PEOE_VSA6>  (109) 
0.0

>  <PEOE_VSA7>  (109) 
0.0

>  <PEOE_VSA8>  (109) 
7.746488

>  <PEOE_VSA9>  (109) 
12.934202

>  <SMR_VSA1>  (109) 
57.053088

>  <SMR_VSA10>  (109) 
40.297415

>  <SMR_VSA2>  (109) 
0.0

>  <SMR_VSA3>  (109) 
24.376837

>  <SMR_VSA4>  (109) 
0.0

>  <SMR_VSA5>  (109) 
24.5398

>  <SMR_VSA6>  (109) 
12.340549

>  <SMR_VSA7>  (109) 
12.65464

>  <SMR_VSA8>  (109) 
0.0

>  <SMR_VSA9>  (109) 
0.0

>  <SlogP_VSA1>  (109) 
30.165115

>  <SlogP_VSA10>  (109) 
5.817863

>  <SlogP_VSA11>  (109) 
0.0

>  <SlogP_VSA12>  (109) 
23.315674

>  <SlogP_VSA2>  (109) 
54.650871

>  <SlogP_VSA3>  (109) 
27.266386

>  <SlogP_VSA4>  (109) 
0.0

>  <SlogP_VSA5>  (109) 
6.227901

>  <SlogP_VSA6>  (109) 
12.65464

>  <SlogP_VSA7>  (109) 
0.0

>  <SlogP_VSA8>  (109) 
11.163878

>  <SlogP_VSA9>  (109) 
0.0

>  <EState_VSA1>  (109) 
54.462356

>  <EState_VSA10>  (109) 
43.481846

>  <EState_VSA11>  (109) 
0.0

>  <EState_VSA2>  (109) 
16.981741

>  <EState_VSA3>  (109) 
4.857802

>  <EState_VSA4>  (109) 
6.32732

>  <EState_VSA5>  (109) 
10.89442

>  <EState_VSA6>  (109) 
0.0

>  <EState_VSA7>  (109) 
0.0

>  <EState_VSA8>  (109) 
23.786314

>  <EState_VSA9>  (109) 
10.47053

>  <VSA_EState1>  (109) 
47.639432

>  <VSA_EState10>  (109) 
0.0

>  <VSA_EState2>  (109) 
55.77868

>  <VSA_EState3>  (109) 
20.343175

>  <VSA_EState4>  (109) 
5.942789

>  <VSA_EState5>  (109) 
0.025434

>  <VSA_EState6>  (109) 
0.0

>  <VSA_EState7>  (109) 
-3.918472

>  <VSA_EState8>  (109) 
-1.049933

>  <VSA_EState9>  (109) 
-17.511105

>  <FractionCSP3>  (109) 
0.5

>  <HeavyAtomCount>  (109) 
31

>  <NHOHCount>  (109) 
5

>  <NOCount>  (109) 
18

>  <NumAliphaticCarbocycles>  (109) 
0

>  <NumAliphaticHeterocycles>  (109) 
1

>  <NumAliphaticRings>  (109) 
1

>  <NumAromaticCarbocycles>  (109) 
0

>  <NumAromaticHeterocycles>  (109) 
2

>  <NumAromaticRings>  (109) 
2

>  <NumHAcceptors>  (109) 
17

>  <NumHDonors>  (109) 
4

>  <NumHeteroatoms>  (109) 
21

>  <NumRotatableBonds>  (109) 
8

>  <NumSaturatedCarbocycles>  (109) 
0

>  <NumSaturatedHeterocycles>  (109) 
1

>  <NumSaturatedRings>  (109) 
1

>  <RingCount>  (109) 
3

>  <MolLogP>  (109) 
-4.584

>  <MolMR>  (109) 
88.6512

>  <fr_Al_COO>  (109) 
0

>  <fr_Al_OH>  (109) 
2

>  <fr_Al_OH_noTert>  (109) 
2

>  <fr_ArN>  (109) 
1

>  <fr_Ar_COO>  (109) 
0

>  <fr_Ar_N>  (109) 
4

>  <fr_Ar_NH>  (109) 
0

>  <fr_Ar_OH>  (109) 
0

>  <fr_COO>  (109) 
0

>  <fr_COO2>  (109) 
0

>  <fr_C_O>  (109) 
0

>  <fr_C_O_noCOO>  (109) 
0

>  <fr_C_S>  (109) 
0

>  <fr_HOCCN>  (109) 
0

>  <fr_Imine>  (109) 
0

>  <fr_NH0>  (109) 
4

>  <fr_NH1>  (109) 
1

>  <fr_NH2>  (109) 
1

>  <fr_N_O>  (109) 
0

>  <fr_Ndealkylation1>  (109) 
0

>  <fr_Ndealkylation2>  (109) 
0

>  <fr_Nhpyrrole>  (109) 
0

>  <fr_SH>  (109) 
0

>  <fr_aldehyde>  (109) 
0

>  <fr_alkyl_carbamate>  (109) 
0

>  <fr_alkyl_halide>  (109) 
0

>  <fr_allylic_oxid>  (109) 
0

>  <fr_amide>  (109) 
0

>  <fr_amidine>  (109) 
0

>  <fr_aniline>  (109) 
1

>  <fr_aryl_methyl>  (109) 
0

>  <fr_azide>  (109) 
0

>  <fr_azo>  (109) 
0

>  <fr_barbitur>  (109) 
0

>  <fr_benzene>  (109) 
0

>  <fr_benzodiazepine>  (109) 
0

>  <fr_bicyclic>  (109) 
1

>  <fr_diazo>  (109) 
0

>  <fr_dihydropyridine>  (109) 
0

>  <fr_epoxide>  (109) 
0

>  <fr_ester>  (109) 
0

>  <fr_ether>  (109) 
1

>  <fr_furan>  (109) 
0

>  <fr_guanido>  (109) 
0

>  <fr_halogen>  (109) 
0

>  <fr_hdrzine>  (109) 
0

>  <fr_hdrzone>  (109) 
0

>  <fr_imidazole>  (109) 
1

>  <fr_imide>  (109) 
0

>  <fr_isocyan>  (109) 
0

>  <fr_isothiocyan>  (109) 
0

>  <fr_ketone>  (109) 
0

>  <fr_ketone_Topliss>  (109) 
0

>  <fr_lactam>  (109) 
0

>  <fr_lactone>  (109) 
0

>  <fr_methoxy>  (109) 
0

>  <fr_morpholine>  (109) 
0

>  <fr_nitrile>  (109) 
0

>  <fr_nitro>  (109) 
0

>  <fr_nitro_arom>  (109) 
0

>  <fr_nitro_arom_nonortho>  (109) 
0

>  <fr_nitroso>  (109) 
0

>  <fr_oxazole>  (109) 
0

>  <fr_oxime>  (109) 
0

>  <fr_para_hydroxylation>  (109) 
0

>  <fr_phenol>  (109) 
0

>  <fr_phenol_noOrthoHbond>  (109) 
0

>  <fr_phos_acid>  (109) 
1

>  <fr_phos_ester>  (109) 
1

>  <fr_piperdine>  (109) 
0

>  <fr_piperzine>  (109) 
0

>  <fr_priamide>  (109) 
0

>  <fr_prisulfonamd>  (109) 
0

>  <fr_pyridine>  (109) 
0

>  <fr_quatN>  (109) 
0

>  <fr_sulfide>  (109) 
0

>  <fr_sulfonamd>  (109) 
0

>  <fr_sulfone>  (109) 
0

>  <fr_term_acetylene>  (109) 
0

>  <fr_tetrazole>  (109) 
0

>  <fr_thiazole>  (109) 
0

>  <fr_thiocyan>  (109) 
0

>  <fr_thiophene>  (109) 
0

>  <fr_unbrch_alkane>  (109) 
0

>  <fr_urea>  (109) 
0

>  <NP_Likeness>  (109) 
0.781644

$$$$
ANP
     RDKit          3D

  0  0  0  0  0  0  0  0  0  0999 V3000
M  V30 BEGIN CTAB
M  V30 COUNTS 44 46 0 0 0
M  V30 BEGIN ATOM
M  V30 1 P -5.422000 -10.268000 14.052000 0 CFG=1
M  V30 2 P -1.298000 -10.844000 16.425000 0
M  V30 3 P -2.690000 -11.091000 13.901000 0 CFG=1
M  V30 4 O -6.326000 -11.435000 13.726000 0
M  V30 5 O -5.151000 -9.880000 15.485000 0 CHG=-1
M  V30 6 O 0.008000 -10.086000 16.348000 0
M  V30 7 O -2.069000 -10.510000 17.681000 0 CHG=-1
M  V30 8 O -1.127000 -12.326000 16.194000 0 CHG=-1
M  V30 9 O -3.043000 -12.508000 14.279000 0
M  V30 10 O -1.646000 -10.893000 12.831000 0 CHG=-1
M  V30 11 O -7.432000 -4.298000 14.832000 0
M  V30 12 O -5.811000 -6.163000 15.937000 0
M  V30 13 O -4.024000 -10.451000 13.266000 0
M  V30 14 O -5.994000 -8.961000 13.311000 0
M  V30 15 O -6.970000 -6.340000 12.542000 0
M  V30 16 N -13.435000 -8.856000 12.224000 0
M  V30 17 N -2.230000 -10.265000 15.221000 0
M  V30 18 N -13.285000 -6.498000 12.197000 0
M  V30 19 N -11.243000 -5.335000 12.562000 0
M  V30 20 N -10.352000 -8.746000 12.816000 0
M  V30 21 N -9.268000 -6.797000 12.976000 0
M  V30 22 C -5.156000 -7.811000 13.207000 0
M  V30 23 C -12.568000 -5.360000 12.308000 0
M  V30 24 C -9.160000 -8.141000 13.027000 0
M  V30 25 C -7.830000 -5.657000 14.636000 0 CFG=2
M  V30 26 C -6.656000 -6.589000 14.864000 0 CFG=1
M  V30 27 C -8.154000 -5.829000 13.163000 0 CFG=1
M  V30 28 C -12.713000 -7.718000 12.337000 0
M  V30 29 C -5.943000 -6.546000 13.519000 0 CFG=2
M  V30 30 C -10.542000 -6.488000 12.722000 0
M  V30 31 C -11.257000 -7.773000 12.613000 0
M  V30 32 H -6.694600 -4.260600 15.506500 0
M  V30 33 H -6.341000 -6.126100 16.784200 0
M  V30 34 H -12.988400 -9.744200 12.331800 0
M  V30 35 H -14.415400 -8.809200 12.032700 0
M  V30 36 H -1.744600 -9.462400 14.874200 0
M  V30 37 H -4.793100 -7.751600 12.277100 0
M  V30 38 H -4.399300 -7.895800 13.855300 0
M  V30 39 H -13.044500 -4.488000 12.195900 0
M  V30 40 H -8.304700 -8.629700 13.199400 0
M  V30 41 H -8.609100 -5.898900 15.214400 0
M  V30 42 H -6.988300 -7.515300 15.041800 0
M  V30 43 H -8.397100 -4.946200 12.761100 0
M  V30 44 H -5.320100 -5.763800 13.506000 0
M  V30 END ATOM
M  V30 BEGIN BOND
M  V30 1 2 1 4
M  V30 2 1 1 5 CFG=1
M  V30 3 1 1 13
M  V30 4 1 1 14
M  V30 5 2 2 6
M  V30 6 1 2 7
M  V30 7 1 2 8
M  V30 8 1 2 17
M  V30 9 2 3 9
M  V30 10 1 3 10 CFG=3
M  V30 11 1 3 13
M  V30 12 1 3 17
M  V30 13 1 11 25
M  V30 14 1 12 26
M  V30 15 1 14 22
M  V30 16 1 15 27
M  V30 17 1 15 29
M  V30 18 1 16 28
M  V30 19 2 18 23
M  V30 20 1 18 28
M  V30 21 1 19 23
M  V30 22 2 19 30
M  V30 23 2 20 24
M  V30 24 1 20 31
M  V30 25 1 21 24
M  V30 26 1 21 27
M  V30 27 1 21 30
M  V30 28 1 22 29
M  V30 29 1 25 26
M  V30 30 1 25 27
M  V30 31 1 26 29
M  V30 32 2 28 31
M  V30 33 1 30 31
M  V30 34 1 29 44 CFG=1
M  V30 35 1 27 43 CFG=3
M  V30 36 1 26 42 CFG=1
M  V30 37 1 25 41 CFG=1
M  V30 38 1 11 32
M  V30 39 1 12 33
M  V30 40 1 16 34
M  V30 41 1 16 35
M  V30 42 1 17 36
M  V30 43 1 22 37
M  V30 44 1 22 38
M  V30 45 1 23 39
M  V30 46 1 24 40
M  V30 END BOND
M  V30 END CTAB
M  END
>  <Ligand_Instance>  (110) 
4DG0_ANP_E_402

>  <Dataset>  (110) 
PDB

>  <PDB_ID>  (110) 
4DG0

>  <Chain>  (110) 
E

>  <Resi>  (110) 
402

>  <Num_Resolved_Atoms>  (110) 
31

>  <Num_H_Atoms_ProtBoundConf>  (110) 
13

>  <Pocket>  (110) 
A

>  <Name>  (110) 
PHOSPHOAMINOPHOSPHONIC ACID-ADENYLATE ESTER

>  <Num_Not_Resolved_Atoms>  (110) 
0

>  <ATP_Site>  (110) 
True

>  <Peripheral>  (110) 
False

>  <Standardized_SMILES>  (110) 
[H]O[C@@]1([H])[C@@]([H])(O[H])[C@]([H])(N2C([H])=NC3=C2N=C([H])N=C3N([H])[H])O[C@]1([H])C([H])([H])O[P@](=O)([O-])O[P@@](=O)([O-])N([H])P(=O)([O-])[O-]

>  <2D_Mol_H>  (110) 
<rdkit.Chem.rdchem.Mol object at 0x77059d9f8200>

>  <MW>  (110) 
502.166

>  <HBA>  (110) 
17

>  <HBD>  (110) 
4

>  <LogP>  (110) 
-4.584

>  <NRB>  (110) 
11

>  <TPSA>  (110) 
293.25

>  <Num_Heavy_Atoms>  (110) 
31

>  <Ro5>  (110) 
[False, False, True, True, False, False]

>  <Ro5_Fulfilled>  (110) 
False

>  <Ro3>  (110) 
[False, False, False, True]

>  <Ro3_Fulfilled>  (110) 
False

>  <Fsp3>  (110) 
0.5

>  <Fsp3_0.42>  (110) 
True

>  <Fsp3_0.45>  (110) 
True

>  <Stereogenic_Carbons>  (110) 
4

>  <C_Atoms>  (110) 
10

>  <FCStereo>  (110) 
0.4

>  <SPS>  (110) 
882

>  <nSPS>  (110) 
28.451613

>  <PBF>  (110) 
0.78296

>  <PBF_0.6>  (110) 
True

>  <nPBF>  (110) 
0.025257

>  <nPBF_0.016>  (110) 
True

>  <PMI1>  (110) 
1732.072732

>  <PMI2>  (110) 
9808.012818

>  <PMI3>  (110) 
10699.020487

>  <NPR1>  (110) 
0.161891

>  <NPR2>  (110) 
0.916721

>  <Sum_NPR>  (110) 
1.078611

>  <Sum_NPR_1.07>  (110) 
True

>  <Sum_NPR_1.2>  (110) 
False

>  <MaxAbsEStateIndex>  (110) 
11.631022

>  <MaxEStateIndex>  (110) 
11.631022

>  <MinAbsEStateIndex>  (110) 
0.025434

>  <MinEStateIndex>  (110) 
-5.88789

>  <qed>  (110) 
0.246841

>  <MolWt>  (110) 
502.166

>  <HeavyAtomMolWt>  (110) 
489.062

>  <ExactMolWt>  (110) 
501.982624

>  <NumValenceElectrons>  (110) 
174

>  <NumRadicalElectrons>  (110) 
0

>  <MaxPartialCharge>  (110) 
0.273292

>  <MinPartialCharge>  (110) 
-0.799075

>  <MaxAbsPartialCharge>  (110) 
0.799075

>  <MinAbsPartialCharge>  (110) 
0.273292

>  <FpDensityMorgan1>  (110) 
1.16129

>  <FpDensityMorgan2>  (110) 
1.83871

>  <FpDensityMorgan3>  (110) 
2.483871

>  <BCUT2D_MWHI>  (110) 
31.287813

>  <BCUT2D_MWLOW>  (110) 
10.128388

>  <BCUT2D_CHGHI>  (110) 
2.44611

>  <BCUT2D_CHGLO>  (110) 
-2.388133

>  <BCUT2D_LOGPHI>  (110) 
2.552246

>  <BCUT2D_LOGPLOW>  (110) 
-2.341071

>  <BCUT2D_MRHI>  (110) 
7.684213

>  <BCUT2D_MRLOW>  (110) 
-0.316952

>  <AvgIpc>  (110) 
3.133568

>  <BalabanJ>  (110) 
1.689409

>  <BertzCT>  (110) 
1105.970439

>  <Chi0>  (110) 
23.18987

>  <Chi0n>  (110) 
14.855964

>  <Chi0v>  (110) 
17.539246

>  <Chi1>  (110) 
14.190889

>  <Chi1n>  (110) 
7.931778

>  <Chi1v>  (110) 
12.477689

>  <Chi2n>  (110) 
6.048811

>  <Chi2v>  (110) 
10.644506

>  <Chi3n>  (110) 
3.847795

>  <Chi3v>  (110) 
7.932617

>  <Chi4n>  (110) 
2.641158

>  <Chi4v>  (110) 
5.887109

>  <HallKierAlpha>  (110) 
-1.36

>  <Ipc>  (110) 
3947352.346056

>  <Kappa1>  (110) 
24.285736

>  <Kappa2>  (110) 
8.532213

>  <Kappa3>  (110) 
5.714341

>  <LabuteASA>  (110) 
171.593724

>  <PEOE_VSA1>  (110) 
49.346027

>  <PEOE_VSA10>  (110) 
30.15592

>  <PEOE_VSA11>  (110) 
17.692941

>  <PEOE_VSA12>  (110) 
7.746488

>  <PEOE_VSA13>  (110) 
7.822697

>  <PEOE_VSA14>  (110) 
0.0

>  <PEOE_VSA2>  (110) 
18.007828

>  <PEOE_VSA3>  (110) 
19.809737

>  <PEOE_VSA4>  (110) 
0.0

>  <PEOE_VSA5>  (110) 
0.0

>  <PEOE_VSA6>  (110) 
0.0

>  <PEOE_VSA7>  (110) 
0.0

>  <PEOE_VSA8>  (110) 
7.746488

>  <PEOE_VSA9>  (110) 
12.934202

>  <SMR_VSA1>  (110) 
57.053088

>  <SMR_VSA10>  (110) 
40.297415

>  <SMR_VSA2>  (110) 
0.0

>  <SMR_VSA3>  (110) 
24.376837

>  <SMR_VSA4>  (110) 
0.0

>  <SMR_VSA5>  (110) 
24.5398

>  <SMR_VSA6>  (110) 
12.340549

>  <SMR_VSA7>  (110) 
12.65464

>  <SMR_VSA8>  (110) 
0.0

>  <SMR_VSA9>  (110) 
0.0

>  <SlogP_VSA1>  (110) 
30.165115

>  <SlogP_VSA10>  (110) 
5.817863

>  <SlogP_VSA11>  (110) 
0.0

>  <SlogP_VSA12>  (110) 
23.315674

>  <SlogP_VSA2>  (110) 
54.650871

>  <SlogP_VSA3>  (110) 
27.266386

>  <SlogP_VSA4>  (110) 
0.0

>  <SlogP_VSA5>  (110) 
6.227901

>  <SlogP_VSA6>  (110) 
12.65464

>  <SlogP_VSA7>  (110) 
0.0

>  <SlogP_VSA8>  (110) 
11.163878

>  <SlogP_VSA9>  (110) 
0.0

>  <EState_VSA1>  (110) 
54.462356

>  <EState_VSA10>  (110) 
43.481846

>  <EState_VSA11>  (110) 
0.0

>  <EState_VSA2>  (110) 
16.981741

>  <EState_VSA3>  (110) 
4.857802

>  <EState_VSA4>  (110) 
6.32732

>  <EState_VSA5>  (110) 
10.89442

>  <EState_VSA6>  (110) 
0.0

>  <EState_VSA7>  (110) 
0.0

>  <EState_VSA8>  (110) 
23.786314

>  <EState_VSA9>  (110) 
10.47053

>  <VSA_EState1>  (110) 
47.639432

>  <VSA_EState10>  (110) 
0.0

>  <VSA_EState2>  (110) 
55.77868

>  <VSA_EState3>  (110) 
20.343175

>  <VSA_EState4>  (110) 
5.942789

>  <VSA_EState5>  (110) 
0.025434

>  <VSA_EState6>  (110) 
0.0

>  <VSA_EState7>  (110) 
-3.918472

>  <VSA_EState8>  (110) 
-1.049933

>  <VSA_EState9>  (110) 
-17.511105

>  <FractionCSP3>  (110) 
0.5

>  <HeavyAtomCount>  (110) 
31

>  <NHOHCount>  (110) 
5

>  <NOCount>  (110) 
18

>  <NumAliphaticCarbocycles>  (110) 
0

>  <NumAliphaticHeterocycles>  (110) 
1

>  <NumAliphaticRings>  (110) 
1

>  <NumAromaticCarbocycles>  (110) 
0

>  <NumAromaticHeterocycles>  (110) 
2

>  <NumAromaticRings>  (110) 
2

>  <NumHAcceptors>  (110) 
17

>  <NumHDonors>  (110) 
4

>  <NumHeteroatoms>  (110) 
21

>  <NumRotatableBonds>  (110) 
8

>  <NumSaturatedCarbocycles>  (110) 
0

>  <NumSaturatedHeterocycles>  (110) 
1

>  <NumSaturatedRings>  (110) 
1

>  <RingCount>  (110) 
3

>  <MolLogP>  (110) 
-4.584

>  <MolMR>  (110) 
88.6512

>  <fr_Al_COO>  (110) 
0

>  <fr_Al_OH>  (110) 
2

>  <fr_Al_OH_noTert>  (110) 
2

>  <fr_ArN>  (110) 
1

>  <fr_Ar_COO>  (110) 
0

>  <fr_Ar_N>  (110) 
4

>  <fr_Ar_NH>  (110) 
0

>  <fr_Ar_OH>  (110) 
0

>  <fr_COO>  (110) 
0

>  <fr_COO2>  (110) 
0

>  <fr_C_O>  (110) 
0

>  <fr_C_O_noCOO>  (110) 
0

>  <fr_C_S>  (110) 
0

>  <fr_HOCCN>  (110) 
0

>  <fr_Imine>  (110) 
0

>  <fr_NH0>  (110) 
4

>  <fr_NH1>  (110) 
1

>  <fr_NH2>  (110) 
1

>  <fr_N_O>  (110) 
0

>  <fr_Ndealkylation1>  (110) 
0

>  <fr_Ndealkylation2>  (110) 
0

>  <fr_Nhpyrrole>  (110) 
0

>  <fr_SH>  (110) 
0

>  <fr_aldehyde>  (110) 
0

>  <fr_alkyl_carbamate>  (110) 
0

>  <fr_alkyl_halide>  (110) 
0

>  <fr_allylic_oxid>  (110) 
0

>  <fr_amide>  (110) 
0

>  <fr_amidine>  (110) 
0

>  <fr_aniline>  (110) 
1

>  <fr_aryl_methyl>  (110) 
0

>  <fr_azide>  (110) 
0

>  <fr_azo>  (110) 
0

>  <fr_barbitur>  (110) 
0

>  <fr_benzene>  (110) 
0

>  <fr_benzodiazepine>  (110) 
0

>  <fr_bicyclic>  (110) 
1

>  <fr_diazo>  (110) 
0

>  <fr_dihydropyridine>  (110) 
0

>  <fr_epoxide>  (110) 
0

>  <fr_ester>  (110) 
0

>  <fr_ether>  (110) 
1

>  <fr_furan>  (110) 
0

>  <fr_guanido>  (110) 
0

>  <fr_halogen>  (110) 
0

>  <fr_hdrzine>  (110) 
0

>  <fr_hdrzone>  (110) 
0

>  <fr_imidazole>  (110) 
1

>  <fr_imide>  (110) 
0

>  <fr_isocyan>  (110) 
0

>  <fr_isothiocyan>  (110) 
0

>  <fr_ketone>  (110) 
0

>  <fr_ketone_Topliss>  (110) 
0

>  <fr_lactam>  (110) 
0

>  <fr_lactone>  (110) 
0

>  <fr_methoxy>  (110) 
0

>  <fr_morpholine>  (110) 
0

>  <fr_nitrile>  (110) 
0

>  <fr_nitro>  (110) 
0

>  <fr_nitro_arom>  (110) 
0

>  <fr_nitro_arom_nonortho>  (110) 
0

>  <fr_nitroso>  (110) 
0

>  <fr_oxazole>  (110) 
0

>  <fr_oxime>  (110) 
0

>  <fr_para_hydroxylation>  (110) 
0

>  <fr_phenol>  (110) 
0

>  <fr_phenol_noOrthoHbond>  (110) 
0

>  <fr_phos_acid>  (110) 
1

>  <fr_phos_ester>  (110) 
1

>  <fr_piperdine>  (110) 
0

>  <fr_piperzine>  (110) 
0

>  <fr_priamide>  (110) 
0

>  <fr_prisulfonamd>  (110) 
0

>  <fr_pyridine>  (110) 
0

>  <fr_quatN>  (110) 
0

>  <fr_sulfide>  (110) 
0

>  <fr_sulfonamd>  (110) 
0

>  <fr_sulfone>  (110) 
0

>  <fr_term_acetylene>  (110) 
0

>  <fr_tetrazole>  (110) 
0

>  <fr_thiazole>  (110) 
0

>  <fr_thiocyan>  (110) 
0

>  <fr_thiophene>  (110) 
0

>  <fr_unbrch_alkane>  (110) 
0

>  <fr_urea>  (110) 
0

>  <NP_Likeness>  (110) 
0.781644

$$$$
ANP
     RDKit          3D

  0  0  0  0  0  0  0  0  0  0999 V3000
M  V30 BEGIN CTAB
M  V30 COUNTS 44 46 0 0 0
M  V30 BEGIN ATOM
M  V30 1 P -24.799000 9.576000 0.055000 0 CFG=1
M  V30 2 P -20.267000 7.866000 -0.414000 0
M  V30 3 P -22.131000 10.236000 -0.848000 0 CFG=1
M  V30 4 O -25.715000 9.773000 -1.126000 0
M  V30 5 O -24.376000 8.216000 0.502000 0 CHG=-1
M  V30 6 O -18.968000 8.151000 0.268000 0
M  V30 7 O -20.857000 6.461000 0.047000 0 CHG=-1
M  V30 8 O -20.178000 7.992000 -1.989000 0 CHG=-1
M  V30 9 O -22.313000 9.833000 -2.247000 0
M  V30 10 O -21.279000 11.579000 -0.744000 0 CHG=-1
M  V30 11 O -26.499000 8.652000 6.046000 0
M  V30 12 O -24.893000 7.583000 4.087000 0
M  V30 13 O -23.553000 10.569000 -0.150000 0
M  V30 14 O -25.473000 10.285000 1.337000 0
M  V30 15 O -26.530000 10.791000 3.898000 0
M  V30 16 N -32.962000 10.110000 1.485000 0
M  V30 17 N -21.404000 9.040000 0.180000 0
M  V30 18 N -32.766000 10.174000 3.850000 0
M  V30 19 N -30.666000 10.138000 4.972000 0
M  V30 20 N -29.814000 9.970000 1.516000 0
M  V30 21 N -28.691000 9.987000 3.460000 0
M  V30 22 C -24.625000 10.409000 2.482000 0
M  V30 23 C -32.018000 10.192000 4.982000 0
M  V30 24 C -28.584000 9.943000 2.112000 0
M  V30 25 C -27.012000 8.620000 4.707000 0 CFG=2
M  V30 26 C -25.881000 8.544000 3.703000 0 CFG=1
M  V30 27 C -27.584000 10.004000 4.454000 0 CFG=1
M  V30 28 C -32.205000 10.116000 2.610000 0
M  V30 29 C -25.366000 9.975000 3.729000 0 CFG=2
M  V30 30 C -29.983000 10.068000 3.791000 0
M  V30 31 C -30.727000 10.053000 2.515000 0
M  V30 32 H -25.967800 7.822700 6.219400 0
M  V30 33 H -25.315300 6.678900 4.153000 0
M  V30 34 H -32.523300 10.066800 0.587400 0
M  V30 35 H -33.958900 10.148800 1.553000 0
M  V30 36 H -20.930800 9.544700 0.902000 0
M  V30 37 H -24.341000 11.362700 2.581300 0
M  V30 38 H -23.817600 9.831800 2.359500 0
M  V30 39 H -32.487100 10.247700 5.863400 0
M  V30 40 H -27.717100 9.896700 1.615700 0
M  V30 41 H -27.689600 7.896500 4.574700 0
M  V30 42 H -26.240400 8.324200 2.796100 0
M  V30 43 H -27.898900 10.408300 5.312700 0
M  V30 44 H -24.767500 10.092100 4.521600 0
M  V30 END ATOM
M  V30 BEGIN BOND
M  V30 1 2 1 4
M  V30 2 1 1 5 CFG=1
M  V30 3 1 1 13
M  V30 4 1 1 14
M  V30 5 2 2 6
M  V30 6 1 2 7
M  V30 7 1 2 8
M  V30 8 1 2 17
M  V30 9 2 3 9
M  V30 10 1 3 10 CFG=3
M  V30 11 1 3 13
M  V30 12 1 3 17
M  V30 13 1 11 25
M  V30 14 1 12 26
M  V30 15 1 14 22
M  V30 16 1 15 27
M  V30 17 1 15 29
M  V30 18 1 16 28
M  V30 19 2 18 23
M  V30 20 1 18 28
M  V30 21 1 19 23
M  V30 22 2 19 30
M  V30 23 2 20 24
M  V30 24 1 20 31
M  V30 25 1 21 24
M  V30 26 1 21 27
M  V30 27 1 21 30
M  V30 28 1 22 29
M  V30 29 1 25 26
M  V30 30 1 25 27
M  V30 31 1 26 29
M  V30 32 2 28 31
M  V30 33 1 30 31
M  V30 34 1 29 44 CFG=1
M  V30 35 1 27 43 CFG=1
M  V30 36 1 26 42 CFG=3
M  V30 37 1 25 41 CFG=1
M  V30 38 1 11 32
M  V30 39 1 12 33
M  V30 40 1 16 34
M  V30 41 1 16 35
M  V30 42 1 17 36
M  V30 43 1 22 37
M  V30 44 1 22 38
M  V30 45 1 23 39
M  V30 46 1 24 40
M  V30 END BOND
M  V30 END CTAB
M  END
>  <Ligand_Instance>  (111) 
4DG3_ANP_E_401

>  <Dataset>  (111) 
PDB

>  <PDB_ID>  (111) 
4DG3

>  <Chain>  (111) 
E

>  <Resi>  (111) 
401

>  <Num_Resolved_Atoms>  (111) 
31

>  <Num_H_Atoms_ProtBoundConf>  (111) 
13

>  <Pocket>  (111) 
A

>  <Name>  (111) 
PHOSPHOAMINOPHOSPHONIC ACID-ADENYLATE ESTER

>  <Num_Not_Resolved_Atoms>  (111) 
0

>  <ATP_Site>  (111) 
True

>  <Peripheral>  (111) 
False

>  <Standardized_SMILES>  (111) 
[H]O[C@@]1([H])[C@@]([H])(O[H])[C@]([H])(N2C([H])=NC3=C2N=C([H])N=C3N([H])[H])O[C@]1([H])C([H])([H])O[P@](=O)([O-])O[P@@](=O)([O-])N([H])P(=O)([O-])[O-]

>  <2D_Mol_H>  (111) 
<rdkit.Chem.rdchem.Mol object at 0x77059d9f82e0>

>  <MW>  (111) 
502.166

>  <HBA>  (111) 
17

>  <HBD>  (111) 
4

>  <LogP>  (111) 
-4.584

>  <NRB>  (111) 
11

>  <TPSA>  (111) 
293.25

>  <Num_Heavy_Atoms>  (111) 
31

>  <Ro5>  (111) 
[False, False, True, True, False, False]

>  <Ro5_Fulfilled>  (111) 
False

>  <Ro3>  (111) 
[False, False, False, True]

>  <Ro3_Fulfilled>  (111) 
False

>  <Fsp3>  (111) 
0.5

>  <Fsp3_0.42>  (111) 
True

>  <Fsp3_0.45>  (111) 
True

>  <Stereogenic_Carbons>  (111) 
4

>  <C_Atoms>  (111) 
10

>  <FCStereo>  (111) 
0.4

>  <SPS>  (111) 
882

>  <nSPS>  (111) 
28.451613

>  <PBF>  (111) 
0.79313

>  <PBF_0.6>  (111) 
True

>  <nPBF>  (111) 
0.025585

>  <nPBF_0.016>  (111) 
True

>  <PMI1>  (111) 
1779.592579

>  <PMI2>  (111) 
9739.354731

>  <PMI3>  (111) 
10649.451461

>  <NPR1>  (111) 
0.167107

>  <NPR2>  (111) 
0.914541

>  <Sum_NPR>  (111) 
1.081647

>  <Sum_NPR_1.07>  (111) 
True

>  <Sum_NPR_1.2>  (111) 
False

>  <MaxAbsEStateIndex>  (111) 
11.631022

>  <MaxEStateIndex>  (111) 
11.631022

>  <MinAbsEStateIndex>  (111) 
0.025434

>  <MinEStateIndex>  (111) 
-5.88789

>  <qed>  (111) 
0.246841

>  <MolWt>  (111) 
502.166

>  <HeavyAtomMolWt>  (111) 
489.062

>  <ExactMolWt>  (111) 
501.982624

>  <NumValenceElectrons>  (111) 
174

>  <NumRadicalElectrons>  (111) 
0

>  <MaxPartialCharge>  (111) 
0.273292

>  <MinPartialCharge>  (111) 
-0.799075

>  <MaxAbsPartialCharge>  (111) 
0.799075

>  <MinAbsPartialCharge>  (111) 
0.273292

>  <FpDensityMorgan1>  (111) 
1.16129

>  <FpDensityMorgan2>  (111) 
1.83871

>  <FpDensityMorgan3>  (111) 
2.483871

>  <BCUT2D_MWHI>  (111) 
31.287813

>  <BCUT2D_MWLOW>  (111) 
10.128388

>  <BCUT2D_CHGHI>  (111) 
2.44611

>  <BCUT2D_CHGLO>  (111) 
-2.388133

>  <BCUT2D_LOGPHI>  (111) 
2.552246

>  <BCUT2D_LOGPLOW>  (111) 
-2.341071

>  <BCUT2D_MRHI>  (111) 
7.684213

>  <BCUT2D_MRLOW>  (111) 
-0.316952

>  <AvgIpc>  (111) 
3.133568

>  <BalabanJ>  (111) 
1.689409

>  <BertzCT>  (111) 
1105.970439

>  <Chi0>  (111) 
23.18987

>  <Chi0n>  (111) 
14.855964

>  <Chi0v>  (111) 
17.539246

>  <Chi1>  (111) 
14.190889

>  <Chi1n>  (111) 
7.931778

>  <Chi1v>  (111) 
12.477689

>  <Chi2n>  (111) 
6.048811

>  <Chi2v>  (111) 
10.644506

>  <Chi3n>  (111) 
3.847795

>  <Chi3v>  (111) 
7.932617

>  <Chi4n>  (111) 
2.641158

>  <Chi4v>  (111) 
5.887109

>  <HallKierAlpha>  (111) 
-1.36

>  <Ipc>  (111) 
3947352.346056

>  <Kappa1>  (111) 
24.285736

>  <Kappa2>  (111) 
8.532213

>  <Kappa3>  (111) 
5.714341

>  <LabuteASA>  (111) 
171.593724

>  <PEOE_VSA1>  (111) 
49.346027

>  <PEOE_VSA10>  (111) 
30.15592

>  <PEOE_VSA11>  (111) 
17.692941

>  <PEOE_VSA12>  (111) 
7.746488

>  <PEOE_VSA13>  (111) 
7.822697

>  <PEOE_VSA14>  (111) 
0.0

>  <PEOE_VSA2>  (111) 
18.007828

>  <PEOE_VSA3>  (111) 
19.809737

>  <PEOE_VSA4>  (111) 
0.0

>  <PEOE_VSA5>  (111) 
0.0

>  <PEOE_VSA6>  (111) 
0.0

>  <PEOE_VSA7>  (111) 
0.0

>  <PEOE_VSA8>  (111) 
7.746488

>  <PEOE_VSA9>  (111) 
12.934202

>  <SMR_VSA1>  (111) 
57.053088

>  <SMR_VSA10>  (111) 
40.297415

>  <SMR_VSA2>  (111) 
0.0

>  <SMR_VSA3>  (111) 
24.376837

>  <SMR_VSA4>  (111) 
0.0

>  <SMR_VSA5>  (111) 
24.5398

>  <SMR_VSA6>  (111) 
12.340549

>  <SMR_VSA7>  (111) 
12.65464

>  <SMR_VSA8>  (111) 
0.0

>  <SMR_VSA9>  (111) 
0.0

>  <SlogP_VSA1>  (111) 
30.165115

>  <SlogP_VSA10>  (111) 
5.817863

>  <SlogP_VSA11>  (111) 
0.0

>  <SlogP_VSA12>  (111) 
23.315674

>  <SlogP_VSA2>  (111) 
54.650871

>  <SlogP_VSA3>  (111) 
27.266386

>  <SlogP_VSA4>  (111) 
0.0

>  <SlogP_VSA5>  (111) 
6.227901

>  <SlogP_VSA6>  (111) 
12.65464

>  <SlogP_VSA7>  (111) 
0.0

>  <SlogP_VSA8>  (111) 
11.163878

>  <SlogP_VSA9>  (111) 
0.0

>  <EState_VSA1>  (111) 
54.462356

>  <EState_VSA10>  (111) 
43.481846

>  <EState_VSA11>  (111) 
0.0

>  <EState_VSA2>  (111) 
16.981741

>  <EState_VSA3>  (111) 
4.857802

>  <EState_VSA4>  (111) 
6.32732

>  <EState_VSA5>  (111) 
10.89442

>  <EState_VSA6>  (111) 
0.0

>  <EState_VSA7>  (111) 
0.0

>  <EState_VSA8>  (111) 
23.786314

>  <EState_VSA9>  (111) 
10.47053

>  <VSA_EState1>  (111) 
47.639432

>  <VSA_EState10>  (111) 
0.0

>  <VSA_EState2>  (111) 
55.77868

>  <VSA_EState3>  (111) 
20.343175

>  <VSA_EState4>  (111) 
5.942789

>  <VSA_EState5>  (111) 
0.025434

>  <VSA_EState6>  (111) 
0.0

>  <VSA_EState7>  (111) 
-3.918472

>  <VSA_EState8>  (111) 
-1.049933

>  <VSA_EState9>  (111) 
-17.511105

>  <FractionCSP3>  (111) 
0.5

>  <HeavyAtomCount>  (111) 
31

>  <NHOHCount>  (111) 
5

>  <NOCount>  (111) 
18

>  <NumAliphaticCarbocycles>  (111) 
0

>  <NumAliphaticHeterocycles>  (111) 
1

>  <NumAliphaticRings>  (111) 
1

>  <NumAromaticCarbocycles>  (111) 
0

>  <NumAromaticHeterocycles>  (111) 
2

>  <NumAromaticRings>  (111) 
2

>  <NumHAcceptors>  (111) 
17

>  <NumHDonors>  (111) 
4

>  <NumHeteroatoms>  (111) 
21

>  <NumRotatableBonds>  (111) 
8

>  <NumSaturatedCarbocycles>  (111) 
0

>  <NumSaturatedHeterocycles>  (111) 
1

>  <NumSaturatedRings>  (111) 
1

>  <RingCount>  (111) 
3

>  <MolLogP>  (111) 
-4.584

>  <MolMR>  (111) 
88.6512

>  <fr_Al_COO>  (111) 
0

>  <fr_Al_OH>  (111) 
2

>  <fr_Al_OH_noTert>  (111) 
2

>  <fr_ArN>  (111) 
1

>  <fr_Ar_COO>  (111) 
0

>  <fr_Ar_N>  (111) 
4

>  <fr_Ar_NH>  (111) 
0

>  <fr_Ar_OH>  (111) 
0

>  <fr_COO>  (111) 
0

>  <fr_COO2>  (111) 
0

>  <fr_C_O>  (111) 
0

>  <fr_C_O_noCOO>  (111) 
0

>  <fr_C_S>  (111) 
0

>  <fr_HOCCN>  (111) 
0

>  <fr_Imine>  (111) 
0

>  <fr_NH0>  (111) 
4

>  <fr_NH1>  (111) 
1

>  <fr_NH2>  (111) 
1

>  <fr_N_O>  (111) 
0

>  <fr_Ndealkylation1>  (111) 
0

>  <fr_Ndealkylation2>  (111) 
0

>  <fr_Nhpyrrole>  (111) 
0

>  <fr_SH>  (111) 
0

>  <fr_aldehyde>  (111) 
0

>  <fr_alkyl_carbamate>  (111) 
0

>  <fr_alkyl_halide>  (111) 
0

>  <fr_allylic_oxid>  (111) 
0

>  <fr_amide>  (111) 
0

>  <fr_amidine>  (111) 
0

>  <fr_aniline>  (111) 
1

>  <fr_aryl_methyl>  (111) 
0

>  <fr_azide>  (111) 
0

>  <fr_azo>  (111) 
0

>  <fr_barbitur>  (111) 
0

>  <fr_benzene>  (111) 
0

>  <fr_benzodiazepine>  (111) 
0

>  <fr_bicyclic>  (111) 
1

>  <fr_diazo>  (111) 
0

>  <fr_dihydropyridine>  (111) 
0

>  <fr_epoxide>  (111) 
0

>  <fr_ester>  (111) 
0

>  <fr_ether>  (111) 
1

>  <fr_furan>  (111) 
0

>  <fr_guanido>  (111) 
0

>  <fr_halogen>  (111) 
0

>  <fr_hdrzine>  (111) 
0

>  <fr_hdrzone>  (111) 
0

>  <fr_imidazole>  (111) 
1

>  <fr_imide>  (111) 
0

>  <fr_isocyan>  (111) 
0

>  <fr_isothiocyan>  (111) 
0

>  <fr_ketone>  (111) 
0

>  <fr_ketone_Topliss>  (111) 
0

>  <fr_lactam>  (111) 
0

>  <fr_lactone>  (111) 
0

>  <fr_methoxy>  (111) 
0

>  <fr_morpholine>  (111) 
0

>  <fr_nitrile>  (111) 
0

>  <fr_nitro>  (111) 
0

>  <fr_nitro_arom>  (111) 
0

>  <fr_nitro_arom_nonortho>  (111) 
0

>  <fr_nitroso>  (111) 
0

>  <fr_oxazole>  (111) 
0

>  <fr_oxime>  (111) 
0

>  <fr_para_hydroxylation>  (111) 
0

>  <fr_phenol>  (111) 
0

>  <fr_phenol_noOrthoHbond>  (111) 
0

>  <fr_phos_acid>  (111) 
1

>  <fr_phos_ester>  (111) 
1

>  <fr_piperdine>  (111) 
0

>  <fr_piperzine>  (111) 
0

>  <fr_priamide>  (111) 
0

>  <fr_prisulfonamd>  (111) 
0

>  <fr_pyridine>  (111) 
0

>  <fr_quatN>  (111) 
0

>  <fr_sulfide>  (111) 
0

>  <fr_sulfonamd>  (111) 
0

>  <fr_sulfone>  (111) 
0

>  <fr_term_acetylene>  (111) 
0

>  <fr_tetrazole>  (111) 
0

>  <fr_thiazole>  (111) 
0

>  <fr_thiocyan>  (111) 
0

>  <fr_thiophene>  (111) 
0

>  <fr_unbrch_alkane>  (111) 
0

>  <fr_urea>  (111) 
0

>  <NP_Likeness>  (111) 
0.781644

$$$$
ANP
     RDKit          3D

  0  0  0  0  0  0  0  0  0  0999 V3000
M  V30 BEGIN CTAB
M  V30 COUNTS 44 46 0 0 0
M  V30 BEGIN ATOM
M  V30 1 P -5.173000 10.567000 -13.675000 0 CFG=1
M  V30 2 P -1.050000 11.136000 -16.211000 0
M  V30 3 P -2.508000 11.450000 -13.643000 0 CFG=1
M  V30 4 O -6.057000 11.758000 -13.484000 0
M  V30 5 O -4.979000 10.323000 -15.111000 0 CHG=-1
M  V30 6 O 0.295000 10.467000 -16.127000 0
M  V30 7 O -1.649000 10.823000 -17.557000 0 CHG=-1
M  V30 8 O -0.851000 12.583000 -16.082000 0 CHG=-1
M  V30 9 O -2.840000 12.842000 -13.993000 0
M  V30 10 O -1.360000 11.459000 -12.680000 0 CHG=-1
M  V30 11 O -7.021000 4.506000 -14.493000 0
M  V30 12 O -5.556000 6.534000 -15.789000 0
M  V30 13 O -3.757000 10.778000 -12.845000 0
M  V30 14 O -5.877000 9.278000 -13.041000 0
M  V30 15 O -6.778000 6.723000 -12.373000 0
M  V30 16 N -13.279000 9.007000 -12.195000 0
M  V30 17 N -2.098000 10.459000 -14.999000 0
M  V30 18 N -13.046000 6.644000 -12.124000 0
M  V30 19 N -10.950000 5.568000 -12.442000 0
M  V30 20 N -10.200000 9.053000 -12.740000 0
M  V30 21 N -9.048000 7.131000 -12.848000 0
M  V30 22 C -4.978000 8.172000 -13.036000 0
M  V30 23 C -12.286000 5.519000 -12.205000 0
M  V30 24 C -8.990000 8.494000 -12.925000 0
M  V30 25 C -7.535000 5.852000 -14.410000 0 CFG=2
M  V30 26 C -6.447000 6.863000 -14.710000 0 CFG=1
M  V30 27 C -7.933000 6.154000 -12.991000 0 CFG=1
M  V30 28 C -12.513000 7.901000 -12.278000 0
M  V30 29 C -5.731000 6.894000 -13.345000 0 CFG=2
M  V30 30 C -10.301000 6.775000 -12.614000 0
M  V30 31 C -11.067000 8.039000 -12.539000 0
M  V30 32 H -6.671200 4.339000 -15.414800 0
M  V30 33 H -6.079800 6.432900 -16.634800 0
M  V30 34 H -12.866700 9.910600 -12.310900 0
M  V30 35 H -14.259600 8.923900 -12.017600 0
M  V30 36 H -1.651800 9.637500 -14.644000 0
M  V30 37 H -4.551100 8.095700 -12.134900 0
M  V30 38 H -4.271200 8.316100 -13.728600 0
M  V30 39 H -12.724700 4.628300 -12.086300 0
M  V30 40 H -8.152200 9.011900 -13.097500 0
M  V30 41 H -8.311200 5.973200 -15.028700 0
M  V30 42 H -6.863600 7.755000 -14.885300 0
M  V30 43 H -8.174500 5.302900 -12.524900 0
M  V30 44 H -5.100600 6.119900 -13.287700 0
M  V30 END ATOM
M  V30 BEGIN BOND
M  V30 1 2 1 4
M  V30 2 1 1 5 CFG=3
M  V30 3 1 1 13
M  V30 4 1 1 14
M  V30 5 2 2 6
M  V30 6 1 2 7
M  V30 7 1 2 8
M  V30 8 1 2 17
M  V30 9 2 3 9
M  V30 10 1 3 10 CFG=1
M  V30 11 1 3 13
M  V30 12 1 3 17
M  V30 13 1 11 25
M  V30 14 1 12 26
M  V30 15 1 14 22
M  V30 16 1 15 27
M  V30 17 1 15 29
M  V30 18 1 16 28
M  V30 19 2 18 23
M  V30 20 1 18 28
M  V30 21 1 19 23
M  V30 22 2 19 30
M  V30 23 2 20 24
M  V30 24 1 20 31
M  V30 25 1 21 24
M  V30 26 1 21 27
M  V30 27 1 21 30
M  V30 28 1 22 29
M  V30 29 1 25 26
M  V30 30 1 25 27
M  V30 31 1 26 29
M  V30 32 2 28 31
M  V30 33 1 30 31
M  V30 34 1 29 44 CFG=3
M  V30 35 1 27 43 CFG=1
M  V30 36 1 26 42 CFG=3
M  V30 37 1 25 41 CFG=3
M  V30 38 1 11 32
M  V30 39 1 12 33
M  V30 40 1 16 34
M  V30 41 1 16 35
M  V30 42 1 17 36
M  V30 43 1 22 37
M  V30 44 1 22 38
M  V30 45 1 23 39
M  V30 46 1 24 40
M  V30 END BOND
M  V30 END CTAB
M  END
>  <Ligand_Instance>  (112) 
4DH7_ANP_A_403

>  <Dataset>  (112) 
PDB

>  <PDB_ID>  (112) 
4DH7

>  <Chain>  (112) 
A

>  <Resi>  (112) 
403

>  <Num_Resolved_Atoms>  (112) 
31

>  <Num_H_Atoms_ProtBoundConf>  (112) 
13

>  <Pocket>  (112) 
A

>  <Name>  (112) 
PHOSPHOAMINOPHOSPHONIC ACID-ADENYLATE ESTER

>  <Num_Not_Resolved_Atoms>  (112) 
0

>  <ATP_Site>  (112) 
True

>  <Peripheral>  (112) 
False

>  <Standardized_SMILES>  (112) 
[H]O[C@@]1([H])[C@@]([H])(O[H])[C@]([H])(N2C([H])=NC3=C2N=C([H])N=C3N([H])[H])O[C@]1([H])C([H])([H])O[P@](=O)([O-])O[P@@](=O)([O-])N([H])P(=O)([O-])[O-]

>  <2D_Mol_H>  (112) 
<rdkit.Chem.rdchem.Mol object at 0x77059d9f83c0>

>  <MW>  (112) 
502.166

>  <HBA>  (112) 
17

>  <HBD>  (112) 
4

>  <LogP>  (112) 
-4.584

>  <NRB>  (112) 
11

>  <TPSA>  (112) 
293.25

>  <Num_Heavy_Atoms>  (112) 
31

>  <Ro5>  (112) 
[False, False, True, True, False, False]

>  <Ro5_Fulfilled>  (112) 
False

>  <Ro3>  (112) 
[False, False, False, True]

>  <Ro3_Fulfilled>  (112) 
False

>  <Fsp3>  (112) 
0.5

>  <Fsp3_0.42>  (112) 
True

>  <Fsp3_0.45>  (112) 
True

>  <Stereogenic_Carbons>  (112) 
4

>  <C_Atoms>  (112) 
10

>  <FCStereo>  (112) 
0.4

>  <SPS>  (112) 
882

>  <nSPS>  (112) 
28.451613

>  <PBF>  (112) 
0.789017

>  <PBF_0.6>  (112) 
True

>  <nPBF>  (112) 
0.025452

>  <nPBF_0.016>  (112) 
True

>  <PMI1>  (112) 
1750.771197

>  <PMI2>  (112) 
9878.088163

>  <PMI3>  (112) 
10779.455206

>  <NPR1>  (112) 
0.162417

>  <NPR2>  (112) 
0.916381

>  <Sum_NPR>  (112) 
1.078798

>  <Sum_NPR_1.07>  (112) 
True

>  <Sum_NPR_1.2>  (112) 
False

>  <MaxAbsEStateIndex>  (112) 
11.631022

>  <MaxEStateIndex>  (112) 
11.631022

>  <MinAbsEStateIndex>  (112) 
0.025434

>  <MinEStateIndex>  (112) 
-5.88789

>  <qed>  (112) 
0.246841

>  <MolWt>  (112) 
502.166

>  <HeavyAtomMolWt>  (112) 
489.062

>  <ExactMolWt>  (112) 
501.982624

>  <NumValenceElectrons>  (112) 
174

>  <NumRadicalElectrons>  (112) 
0

>  <MaxPartialCharge>  (112) 
0.273292

>  <MinPartialCharge>  (112) 
-0.799075

>  <MaxAbsPartialCharge>  (112) 
0.799075

>  <MinAbsPartialCharge>  (112) 
0.273292

>  <FpDensityMorgan1>  (112) 
1.16129

>  <FpDensityMorgan2>  (112) 
1.83871

>  <FpDensityMorgan3>  (112) 
2.483871

>  <BCUT2D_MWHI>  (112) 
31.287813

>  <BCUT2D_MWLOW>  (112) 
10.128388

>  <BCUT2D_CHGHI>  (112) 
2.44611

>  <BCUT2D_CHGLO>  (112) 
-2.388133

>  <BCUT2D_LOGPHI>  (112) 
2.552246

>  <BCUT2D_LOGPLOW>  (112) 
-2.341071

>  <BCUT2D_MRHI>  (112) 
7.684213

>  <BCUT2D_MRLOW>  (112) 
-0.316952

>  <AvgIpc>  (112) 
3.133568

>  <BalabanJ>  (112) 
1.689409

>  <BertzCT>  (112) 
1105.970439

>  <Chi0>  (112) 
23.18987

>  <Chi0n>  (112) 
14.855964

>  <Chi0v>  (112) 
17.539246

>  <Chi1>  (112) 
14.190889

>  <Chi1n>  (112) 
7.931778

>  <Chi1v>  (112) 
12.477689

>  <Chi2n>  (112) 
6.048811

>  <Chi2v>  (112) 
10.644506

>  <Chi3n>  (112) 
3.847795

>  <Chi3v>  (112) 
7.932617

>  <Chi4n>  (112) 
2.641158

>  <Chi4v>  (112) 
5.887109

>  <HallKierAlpha>  (112) 
-1.36

>  <Ipc>  (112) 
3947352.346056

>  <Kappa1>  (112) 
24.285736

>  <Kappa2>  (112) 
8.532213

>  <Kappa3>  (112) 
5.714341

>  <LabuteASA>  (112) 
171.593724

>  <PEOE_VSA1>  (112) 
49.346027

>  <PEOE_VSA10>  (112) 
30.15592

>  <PEOE_VSA11>  (112) 
17.692941

>  <PEOE_VSA12>  (112) 
7.746488

>  <PEOE_VSA13>  (112) 
7.822697

>  <PEOE_VSA14>  (112) 
0.0

>  <PEOE_VSA2>  (112) 
18.007828

>  <PEOE_VSA3>  (112) 
19.809737

>  <PEOE_VSA4>  (112) 
0.0

>  <PEOE_VSA5>  (112) 
0.0

>  <PEOE_VSA6>  (112) 
0.0

>  <PEOE_VSA7>  (112) 
0.0

>  <PEOE_VSA8>  (112) 
7.746488

>  <PEOE_VSA9>  (112) 
12.934202

>  <SMR_VSA1>  (112) 
57.053088

>  <SMR_VSA10>  (112) 
40.297415

>  <SMR_VSA2>  (112) 
0.0

>  <SMR_VSA3>  (112) 
24.376837

>  <SMR_VSA4>  (112) 
0.0

>  <SMR_VSA5>  (112) 
24.5398

>  <SMR_VSA6>  (112) 
12.340549

>  <SMR_VSA7>  (112) 
12.65464

>  <SMR_VSA8>  (112) 
0.0

>  <SMR_VSA9>  (112) 
0.0

>  <SlogP_VSA1>  (112) 
30.165115

>  <SlogP_VSA10>  (112) 
5.817863

>  <SlogP_VSA11>  (112) 
0.0

>  <SlogP_VSA12>  (112) 
23.315674

>  <SlogP_VSA2>  (112) 
54.650871

>  <SlogP_VSA3>  (112) 
27.266386

>  <SlogP_VSA4>  (112) 
0.0

>  <SlogP_VSA5>  (112) 
6.227901

>  <SlogP_VSA6>  (112) 
12.65464

>  <SlogP_VSA7>  (112) 
0.0

>  <SlogP_VSA8>  (112) 
11.163878

>  <SlogP_VSA9>  (112) 
0.0

>  <EState_VSA1>  (112) 
54.462356

>  <EState_VSA10>  (112) 
43.481846

>  <EState_VSA11>  (112) 
0.0

>  <EState_VSA2>  (112) 
16.981741

>  <EState_VSA3>  (112) 
4.857802

>  <EState_VSA4>  (112) 
6.32732

>  <EState_VSA5>  (112) 
10.89442

>  <EState_VSA6>  (112) 
0.0

>  <EState_VSA7>  (112) 
0.0

>  <EState_VSA8>  (112) 
23.786314

>  <EState_VSA9>  (112) 
10.47053

>  <VSA_EState1>  (112) 
47.639432

>  <VSA_EState10>  (112) 
0.0

>  <VSA_EState2>  (112) 
55.77868

>  <VSA_EState3>  (112) 
20.343175

>  <VSA_EState4>  (112) 
5.942789

>  <VSA_EState5>  (112) 
0.025434

>  <VSA_EState6>  (112) 
0.0

>  <VSA_EState7>  (112) 
-3.918472

>  <VSA_EState8>  (112) 
-1.049933

>  <VSA_EState9>  (112) 
-17.511105

>  <FractionCSP3>  (112) 
0.5

>  <HeavyAtomCount>  (112) 
31

>  <NHOHCount>  (112) 
5

>  <NOCount>  (112) 
18

>  <NumAliphaticCarbocycles>  (112) 
0

>  <NumAliphaticHeterocycles>  (112) 
1

>  <NumAliphaticRings>  (112) 
1

>  <NumAromaticCarbocycles>  (112) 
0

>  <NumAromaticHeterocycles>  (112) 
2

>  <NumAromaticRings>  (112) 
2

>  <NumHAcceptors>  (112) 
17

>  <NumHDonors>  (112) 
4

>  <NumHeteroatoms>  (112) 
21

>  <NumRotatableBonds>  (112) 
8

>  <NumSaturatedCarbocycles>  (112) 
0

>  <NumSaturatedHeterocycles>  (112) 
1

>  <NumSaturatedRings>  (112) 
1

>  <RingCount>  (112) 
3

>  <MolLogP>  (112) 
-4.584

>  <MolMR>  (112) 
88.6512

>  <fr_Al_COO>  (112) 
0

>  <fr_Al_OH>  (112) 
2

>  <fr_Al_OH_noTert>  (112) 
2

>  <fr_ArN>  (112) 
1

>  <fr_Ar_COO>  (112) 
0

>  <fr_Ar_N>  (112) 
4

>  <fr_Ar_NH>  (112) 
0

>  <fr_Ar_OH>  (112) 
0

>  <fr_COO>  (112) 
0

>  <fr_COO2>  (112) 
0

>  <fr_C_O>  (112) 
0

>  <fr_C_O_noCOO>  (112) 
0

>  <fr_C_S>  (112) 
0

>  <fr_HOCCN>  (112) 
0

>  <fr_Imine>  (112) 
0

>  <fr_NH0>  (112) 
4

>  <fr_NH1>  (112) 
1

>  <fr_NH2>  (112) 
1

>  <fr_N_O>  (112) 
0

>  <fr_Ndealkylation1>  (112) 
0

>  <fr_Ndealkylation2>  (112) 
0

>  <fr_Nhpyrrole>  (112) 
0

>  <fr_SH>  (112) 
0

>  <fr_aldehyde>  (112) 
0

>  <fr_alkyl_carbamate>  (112) 
0

>  <fr_alkyl_halide>  (112) 
0

>  <fr_allylic_oxid>  (112) 
0

>  <fr_amide>  (112) 
0

>  <fr_amidine>  (112) 
0

>  <fr_aniline>  (112) 
1

>  <fr_aryl_methyl>  (112) 
0

>  <fr_azide>  (112) 
0

>  <fr_azo>  (112) 
0

>  <fr_barbitur>  (112) 
0

>  <fr_benzene>  (112) 
0

>  <fr_benzodiazepine>  (112) 
0

>  <fr_bicyclic>  (112) 
1

>  <fr_diazo>  (112) 
0

>  <fr_dihydropyridine>  (112) 
0

>  <fr_epoxide>  (112) 
0

>  <fr_ester>  (112) 
0

>  <fr_ether>  (112) 
1

>  <fr_furan>  (112) 
0

>  <fr_guanido>  (112) 
0

>  <fr_halogen>  (112) 
0

>  <fr_hdrzine>  (112) 
0

>  <fr_hdrzone>  (112) 
0

>  <fr_imidazole>  (112) 
1

>  <fr_imide>  (112) 
0

>  <fr_isocyan>  (112) 
0

>  <fr_isothiocyan>  (112) 
0

>  <fr_ketone>  (112) 
0

>  <fr_ketone_Topliss>  (112) 
0

>  <fr_lactam>  (112) 
0

>  <fr_lactone>  (112) 
0

>  <fr_methoxy>  (112) 
0

>  <fr_morpholine>  (112) 
0

>  <fr_nitrile>  (112) 
0

>  <fr_nitro>  (112) 
0

>  <fr_nitro_arom>  (112) 
0

>  <fr_nitro_arom_nonortho>  (112) 
0

>  <fr_nitroso>  (112) 
0

>  <fr_oxazole>  (112) 
0

>  <fr_oxime>  (112) 
0

>  <fr_para_hydroxylation>  (112) 
0

>  <fr_phenol>  (112) 
0

>  <fr_phenol_noOrthoHbond>  (112) 
0

>  <fr_phos_acid>  (112) 
1

>  <fr_phos_ester>  (112) 
1

>  <fr_piperdine>  (112) 
0

>  <fr_piperzine>  (112) 
0

>  <fr_priamide>  (112) 
0

>  <fr_prisulfonamd>  (112) 
0

>  <fr_pyridine>  (112) 
0

>  <fr_quatN>  (112) 
0

>  <fr_sulfide>  (112) 
0

>  <fr_sulfonamd>  (112) 
0

>  <fr_sulfone>  (112) 
0

>  <fr_term_acetylene>  (112) 
0

>  <fr_tetrazole>  (112) 
0

>  <fr_thiazole>  (112) 
0

>  <fr_thiocyan>  (112) 
0

>  <fr_thiophene>  (112) 
0

>  <fr_unbrch_alkane>  (112) 
0

>  <fr_urea>  (112) 
0

>  <NP_Likeness>  (112) 
0.781644

$$$$
ANP
     RDKit          3D

  0  0  0  0  0  0  0  0  0  0999 V3000
M  V30 BEGIN CTAB
M  V30 COUNTS 44 46 0 0 0
M  V30 BEGIN ATOM
M  V30 1 P -4.934000 10.524000 -13.594000 0 CFG=1
M  V30 2 P -0.910000 10.979000 -16.267000 0
M  V30 3 P -2.308000 11.352000 -13.717000 0 CFG=1
M  V30 4 O -5.785000 11.747000 -13.403000 0
M  V30 5 O -4.766000 10.319000 -15.010000 0 CHG=-1
M  V30 6 O 0.442000 10.299000 -16.172000 0
M  V30 7 O -1.485000 10.672000 -17.624000 0 CHG=-1
M  V30 8 O -0.706000 12.425000 -16.140000 0 CHG=-1
M  V30 9 O -2.710000 12.704000 -14.099000 0
M  V30 10 O -1.087000 11.442000 -12.858000 0 CHG=-1
M  V30 11 O -7.021000 4.524000 -14.516000 0
M  V30 12 O -5.577000 6.513000 -15.858000 0
M  V30 13 O -3.494000 10.699000 -12.807000 0
M  V30 14 O -5.667000 9.224000 -12.984000 0
M  V30 15 O -6.651000 6.698000 -12.387000 0
M  V30 16 N -13.149000 9.060000 -12.040000 0
M  V30 17 N -1.989000 10.332000 -15.068000 0
M  V30 18 N -12.917000 6.693000 -11.986000 0
M  V30 19 N -10.830000 5.613000 -12.344000 0
M  V30 20 N -10.065000 9.092000 -12.642000 0
M  V30 21 N -8.935000 7.163000 -12.783000 0
M  V30 22 C -4.814000 8.076000 -13.102000 0
M  V30 23 C -12.160000 5.565000 -12.083000 0
M  V30 24 C -8.865000 8.523000 -12.855000 0
M  V30 25 C -7.497000 5.867000 -14.396000 0 CFG=2
M  V30 26 C -6.401000 6.849000 -14.727000 0 CFG=1
M  V30 27 C -7.838000 6.164000 -12.960000 0 CFG=1
M  V30 28 C -12.382000 7.952000 -12.140000 0
M  V30 29 C -5.632000 6.840000 -13.395000 0 CFG=2
M  V30 30 C -10.182000 6.816000 -12.522000 0
M  V30 31 C -10.938000 8.085000 -12.429000 0
M  V30 32 H -6.305700 4.485000 -15.213800 0
M  V30 33 H -6.146700 6.444900 -16.677000 0
M  V30 34 H -12.738400 9.964500 -12.155600 0
M  V30 35 H -14.127200 8.975500 -11.850400 0
M  V30 36 H -1.590400 9.482100 -14.723300 0
M  V30 37 H -4.316000 7.946000 -12.244600 0
M  V30 38 H -4.162900 8.224400 -13.846400 0
M  V30 39 H -12.597900 4.674700 -11.958000 0
M  V30 40 H -8.026000 9.033700 -13.042800 0
M  V30 41 H -8.291800 6.013600 -14.984900 0
M  V30 42 H -6.802000 7.754000 -14.869300 0
M  V30 43 H -8.081500 5.314400 -12.492200 0
M  V30 44 H -5.033700 6.039100 -13.369100 0
M  V30 END ATOM
M  V30 BEGIN BOND
M  V30 1 2 1 4
M  V30 2 1 1 5 CFG=3
M  V30 3 1 1 13
M  V30 4 1 1 14
M  V30 5 2 2 6
M  V30 6 1 2 7
M  V30 7 1 2 8
M  V30 8 1 2 17
M  V30 9 2 3 9
M  V30 10 1 3 10 CFG=1
M  V30 11 1 3 13
M  V30 12 1 3 17
M  V30 13 1 11 25
M  V30 14 1 12 26
M  V30 15 1 14 22
M  V30 16 1 15 27
M  V30 17 1 15 29
M  V30 18 1 16 28
M  V30 19 2 18 23
M  V30 20 1 18 28
M  V30 21 1 19 23
M  V30 22 2 19 30
M  V30 23 2 20 24
M  V30 24 1 20 31
M  V30 25 1 21 24
M  V30 26 1 21 27
M  V30 27 1 21 30
M  V30 28 1 22 29
M  V30 29 1 25 26
M  V30 30 1 25 27
M  V30 31 1 26 29
M  V30 32 2 28 31
M  V30 33 1 30 31
M  V30 34 1 29 44 CFG=3
M  V30 35 1 27 43 CFG=1
M  V30 36 1 26 42 CFG=3
M  V30 37 1 25 41 CFG=3
M  V30 38 1 11 32
M  V30 39 1 12 33
M  V30 40 1 16 34
M  V30 41 1 16 35
M  V30 42 1 17 36
M  V30 43 1 22 37
M  V30 44 1 22 38
M  V30 45 1 23 39
M  V30 46 1 24 40
M  V30 END BOND
M  V30 END CTAB
M  END
>  <Ligand_Instance>  (113) 
4DH8_ANP_A_403

>  <Dataset>  (113) 
PDB

>  <PDB_ID>  (113) 
4DH8

>  <Chain>  (113) 
A

>  <Resi>  (113) 
403

>  <Num_Resolved_Atoms>  (113) 
31

>  <Num_H_Atoms_ProtBoundConf>  (113) 
13

>  <Pocket>  (113) 
A

>  <Name>  (113) 
PHOSPHOAMINOPHOSPHONIC ACID-ADENYLATE ESTER

>  <Num_Not_Resolved_Atoms>  (113) 
0

>  <ATP_Site>  (113) 
True

>  <Peripheral>  (113) 
False

>  <Standardized_SMILES>  (113) 
[H]O[C@@]1([H])[C@@]([H])(O[H])[C@]([H])(N2C([H])=NC3=C2N=C([H])N=C3N([H])[H])O[C@]1([H])C([H])([H])O[P@](=O)([O-])O[P@@](=O)([O-])N([H])P(=O)([O-])[O-]

>  <2D_Mol_H>  (113) 
<rdkit.Chem.rdchem.Mol object at 0x77059d9f84a0>

>  <MW>  (113) 
502.166

>  <HBA>  (113) 
17

>  <HBD>  (113) 
4

>  <LogP>  (113) 
-4.584

>  <NRB>  (113) 
11

>  <TPSA>  (113) 
293.25

>  <Num_Heavy_Atoms>  (113) 
31

>  <Ro5>  (113) 
[False, False, True, True, False, False]

>  <Ro5_Fulfilled>  (113) 
False

>  <Ro3>  (113) 
[False, False, False, True]

>  <Ro3_Fulfilled>  (113) 
False

>  <Fsp3>  (113) 
0.5

>  <Fsp3_0.42>  (113) 
True

>  <Fsp3_0.45>  (113) 
True

>  <Stereogenic_Carbons>  (113) 
4

>  <C_Atoms>  (113) 
10

>  <FCStereo>  (113) 
0.4

>  <SPS>  (113) 
882

>  <nSPS>  (113) 
28.451613

>  <PBF>  (113) 
0.777237

>  <PBF_0.6>  (113) 
True

>  <nPBF>  (113) 
0.025072

>  <nPBF_0.016>  (113) 
True

>  <PMI1>  (113) 
1737.380586

>  <PMI2>  (113) 
9911.68811

>  <PMI3>  (113) 
10823.862584

>  <NPR1>  (113) 
0.160514

>  <NPR2>  (113) 
0.915726

>  <Sum_NPR>  (113) 
1.07624

>  <Sum_NPR_1.07>  (113) 
True

>  <Sum_NPR_1.2>  (113) 
False

>  <MaxAbsEStateIndex>  (113) 
11.631022

>  <MaxEStateIndex>  (113) 
11.631022

>  <MinAbsEStateIndex>  (113) 
0.025434

>  <MinEStateIndex>  (113) 
-5.88789

>  <qed>  (113) 
0.246841

>  <MolWt>  (113) 
502.166

>  <HeavyAtomMolWt>  (113) 
489.062

>  <ExactMolWt>  (113) 
501.982624

>  <NumValenceElectrons>  (113) 
174

>  <NumRadicalElectrons>  (113) 
0

>  <MaxPartialCharge>  (113) 
0.273292

>  <MinPartialCharge>  (113) 
-0.799075

>  <MaxAbsPartialCharge>  (113) 
0.799075

>  <MinAbsPartialCharge>  (113) 
0.273292

>  <FpDensityMorgan1>  (113) 
1.16129

>  <FpDensityMorgan2>  (113) 
1.83871

>  <FpDensityMorgan3>  (113) 
2.483871

>  <BCUT2D_MWHI>  (113) 
31.287813

>  <BCUT2D_MWLOW>  (113) 
10.128388

>  <BCUT2D_CHGHI>  (113) 
2.44611

>  <BCUT2D_CHGLO>  (113) 
-2.388133

>  <BCUT2D_LOGPHI>  (113) 
2.552246

>  <BCUT2D_LOGPLOW>  (113) 
-2.341071

>  <BCUT2D_MRHI>  (113) 
7.684213

>  <BCUT2D_MRLOW>  (113) 
-0.316952

>  <AvgIpc>  (113) 
3.133568

>  <BalabanJ>  (113) 
1.689409

>  <BertzCT>  (113) 
1105.970439

>  <Chi0>  (113) 
23.18987

>  <Chi0n>  (113) 
14.855964

>  <Chi0v>  (113) 
17.539246

>  <Chi1>  (113) 
14.190889

>  <Chi1n>  (113) 
7.931778

>  <Chi1v>  (113) 
12.477689

>  <Chi2n>  (113) 
6.048811

>  <Chi2v>  (113) 
10.644506

>  <Chi3n>  (113) 
3.847795

>  <Chi3v>  (113) 
7.932617

>  <Chi4n>  (113) 
2.641158

>  <Chi4v>  (113) 
5.887109

>  <HallKierAlpha>  (113) 
-1.36

>  <Ipc>  (113) 
3947352.346056

>  <Kappa1>  (113) 
24.285736

>  <Kappa2>  (113) 
8.532213

>  <Kappa3>  (113) 
5.714341

>  <LabuteASA>  (113) 
171.593724

>  <PEOE_VSA1>  (113) 
49.346027

>  <PEOE_VSA10>  (113) 
30.15592

>  <PEOE_VSA11>  (113) 
17.692941

>  <PEOE_VSA12>  (113) 
7.746488

>  <PEOE_VSA13>  (113) 
7.822697

>  <PEOE_VSA14>  (113) 
0.0

>  <PEOE_VSA2>  (113) 
18.007828

>  <PEOE_VSA3>  (113) 
19.809737

>  <PEOE_VSA4>  (113) 
0.0

>  <PEOE_VSA5>  (113) 
0.0

>  <PEOE_VSA6>  (113) 
0.0

>  <PEOE_VSA7>  (113) 
0.0

>  <PEOE_VSA8>  (113) 
7.746488

>  <PEOE_VSA9>  (113) 
12.934202

>  <SMR_VSA1>  (113) 
57.053088

>  <SMR_VSA10>  (113) 
40.297415

>  <SMR_VSA2>  (113) 
0.0

>  <SMR_VSA3>  (113) 
24.376837

>  <SMR_VSA4>  (113) 
0.0

>  <SMR_VSA5>  (113) 
24.5398

>  <SMR_VSA6>  (113) 
12.340549

>  <SMR_VSA7>  (113) 
12.65464

>  <SMR_VSA8>  (113) 
0.0

>  <SMR_VSA9>  (113) 
0.0

>  <SlogP_VSA1>  (113) 
30.165115

>  <SlogP_VSA10>  (113) 
5.817863

>  <SlogP_VSA11>  (113) 
0.0

>  <SlogP_VSA12>  (113) 
23.315674

>  <SlogP_VSA2>  (113) 
54.650871

>  <SlogP_VSA3>  (113) 
27.266386

>  <SlogP_VSA4>  (113) 
0.0

>  <SlogP_VSA5>  (113) 
6.227901

>  <SlogP_VSA6>  (113) 
12.65464

>  <SlogP_VSA7>  (113) 
0.0

>  <SlogP_VSA8>  (113) 
11.163878

>  <SlogP_VSA9>  (113) 
0.0

>  <EState_VSA1>  (113) 
54.462356

>  <EState_VSA10>  (113) 
43.481846

>  <EState_VSA11>  (113) 
0.0

>  <EState_VSA2>  (113) 
16.981741

>  <EState_VSA3>  (113) 
4.857802

>  <EState_VSA4>  (113) 
6.32732

>  <EState_VSA5>  (113) 
10.89442

>  <EState_VSA6>  (113) 
0.0

>  <EState_VSA7>  (113) 
0.0

>  <EState_VSA8>  (113) 
23.786314

>  <EState_VSA9>  (113) 
10.47053

>  <VSA_EState1>  (113) 
47.639432

>  <VSA_EState10>  (113) 
0.0

>  <VSA_EState2>  (113) 
55.77868

>  <VSA_EState3>  (113) 
20.343175

>  <VSA_EState4>  (113) 
5.942789

>  <VSA_EState5>  (113) 
0.025434

>  <VSA_EState6>  (113) 
0.0

>  <VSA_EState7>  (113) 
-3.918472

>  <VSA_EState8>  (113) 
-1.049933

>  <VSA_EState9>  (113) 
-17.511105

>  <FractionCSP3>  (113) 
0.5

>  <HeavyAtomCount>  (113) 
31

>  <NHOHCount>  (113) 
5

>  <NOCount>  (113) 
18

>  <NumAliphaticCarbocycles>  (113) 
0

>  <NumAliphaticHeterocycles>  (113) 
1

>  <NumAliphaticRings>  (113) 
1

>  <NumAromaticCarbocycles>  (113) 
0

>  <NumAromaticHeterocycles>  (113) 
2

>  <NumAromaticRings>  (113) 
2

>  <NumHAcceptors>  (113) 
17

>  <NumHDonors>  (113) 
4

>  <NumHeteroatoms>  (113) 
21

>  <NumRotatableBonds>  (113) 
8

>  <NumSaturatedCarbocycles>  (113) 
0

>  <NumSaturatedHeterocycles>  (113) 
1

>  <NumSaturatedRings>  (113) 
1

>  <RingCount>  (113) 
3

>  <MolLogP>  (113) 
-4.584

>  <MolMR>  (113) 
88.6512

>  <fr_Al_COO>  (113) 
0

>  <fr_Al_OH>  (113) 
2

>  <fr_Al_OH_noTert>  (113) 
2

>  <fr_ArN>  (113) 
1

>  <fr_Ar_COO>  (113) 
0

>  <fr_Ar_N>  (113) 
4

>  <fr_Ar_NH>  (113) 
0

>  <fr_Ar_OH>  (113) 
0

>  <fr_COO>  (113) 
0

>  <fr_COO2>  (113) 
0

>  <fr_C_O>  (113) 
0

>  <fr_C_O_noCOO>  (113) 
0

>  <fr_C_S>  (113) 
0

>  <fr_HOCCN>  (113) 
0

>  <fr_Imine>  (113) 
0

>  <fr_NH0>  (113) 
4

>  <fr_NH1>  (113) 
1

>  <fr_NH2>  (113) 
1

>  <fr_N_O>  (113) 
0

>  <fr_Ndealkylation1>  (113) 
0

>  <fr_Ndealkylation2>  (113) 
0

>  <fr_Nhpyrrole>  (113) 
0

>  <fr_SH>  (113) 
0

>  <fr_aldehyde>  (113) 
0

>  <fr_alkyl_carbamate>  (113) 
0

>  <fr_alkyl_halide>  (113) 
0

>  <fr_allylic_oxid>  (113) 
0

>  <fr_amide>  (113) 
0

>  <fr_amidine>  (113) 
0

>  <fr_aniline>  (113) 
1

>  <fr_aryl_methyl>  (113) 
0

>  <fr_azide>  (113) 
0

>  <fr_azo>  (113) 
0

>  <fr_barbitur>  (113) 
0

>  <fr_benzene>  (113) 
0

>  <fr_benzodiazepine>  (113) 
0

>  <fr_bicyclic>  (113) 
1

>  <fr_diazo>  (113) 
0

>  <fr_dihydropyridine>  (113) 
0

>  <fr_epoxide>  (113) 
0

>  <fr_ester>  (113) 
0

>  <fr_ether>  (113) 
1

>  <fr_furan>  (113) 
0

>  <fr_guanido>  (113) 
0

>  <fr_halogen>  (113) 
0

>  <fr_hdrzine>  (113) 
0

>  <fr_hdrzone>  (113) 
0

>  <fr_imidazole>  (113) 
1

>  <fr_imide>  (113) 
0

>  <fr_isocyan>  (113) 
0

>  <fr_isothiocyan>  (113) 
0

>  <fr_ketone>  (113) 
0

>  <fr_ketone_Topliss>  (113) 
0

>  <fr_lactam>  (113) 
0

>  <fr_lactone>  (113) 
0

>  <fr_methoxy>  (113) 
0

>  <fr_morpholine>  (113) 
0

>  <fr_nitrile>  (113) 
0

>  <fr_nitro>  (113) 
0

>  <fr_nitro_arom>  (113) 
0

>  <fr_nitro_arom_nonortho>  (113) 
0

>  <fr_nitroso>  (113) 
0

>  <fr_oxazole>  (113) 
0

>  <fr_oxime>  (113) 
0

>  <fr_para_hydroxylation>  (113) 
0

>  <fr_phenol>  (113) 
0

>  <fr_phenol_noOrthoHbond>  (113) 
0

>  <fr_phos_acid>  (113) 
1

>  <fr_phos_ester>  (113) 
1

>  <fr_piperdine>  (113) 
0

>  <fr_piperzine>  (113) 
0

>  <fr_priamide>  (113) 
0

>  <fr_prisulfonamd>  (113) 
0

>  <fr_pyridine>  (113) 
0

>  <fr_quatN>  (113) 
0

>  <fr_sulfide>  (113) 
0

>  <fr_sulfonamd>  (113) 
0

>  <fr_sulfone>  (113) 
0

>  <fr_term_acetylene>  (113) 
0

>  <fr_tetrazole>  (113) 
0

>  <fr_thiazole>  (113) 
0

>  <fr_thiocyan>  (113) 
0

>  <fr_thiophene>  (113) 
0

>  <fr_unbrch_alkane>  (113) 
0

>  <fr_urea>  (113) 
0

>  <NP_Likeness>  (113) 
0.781644

$$$$
ANP
     RDKit          3D

  0  0  0  0  0  0  0  0  0  0999 V3000
M  V30 BEGIN CTAB
M  V30 COUNTS 44 46 0 0 0
M  V30 BEGIN ATOM
M  V30 1 P -5.163000 10.753000 -13.473000 0 CFG=2
M  V30 2 P -0.914000 10.525000 -14.817000 0
M  V30 3 P -2.484000 11.612000 -12.645000 0 CFG=1
M  V30 4 O -4.856000 10.512000 -14.890000 0
M  V30 5 O -6.240000 11.796000 -13.340000 0 CHG=-1
M  V30 6 O -1.518000 9.363000 -15.556000 0
M  V30 7 O 0.577000 10.496000 -14.951000 0 CHG=-1
M  V30 8 O -1.413000 11.806000 -15.356000 0 CHG=-1
M  V30 9 O -2.517000 12.848000 -13.444000 0
M  V30 10 O -2.008000 11.938000 -11.240000 0 CHG=-1
M  V30 11 O -6.990000 4.685000 -14.205000 0
M  V30 12 O -5.798000 6.820000 -15.630000 0
M  V30 13 O -3.971000 11.061000 -12.422000 0
M  V30 14 O -5.832000 9.384000 -12.918000 0
M  V30 15 O -6.667000 6.914000 -12.081000 0
M  V30 16 N -13.281000 9.004000 -12.178000 0
M  V30 17 N -1.406000 10.357000 -13.159000 0
M  V30 18 N -13.026000 6.642000 -12.104000 0
M  V30 19 N -10.890000 5.625000 -12.271000 0
M  V30 20 N -10.187000 9.129000 -12.413000 0
M  V30 21 N -8.981000 7.233000 -12.453000 0
M  V30 22 C -4.892000 8.319000 -12.871000 0
M  V30 23 C -12.229000 5.546000 -12.150000 0
M  V30 24 C -8.946000 8.602000 -12.499000 0
M  V30 25 C -7.547000 6.007000 -14.050000 0 CFG=2
M  V30 26 C -6.535000 7.069000 -14.419000 0 CFG=1
M  V30 27 C -7.844000 6.285000 -12.597000 0 CFG=1
M  V30 28 C -12.496000 7.912000 -12.134000 0
M  V30 29 C -5.671000 7.026000 -13.131000 0 CFG=2
M  V30 30 C -10.244000 6.841000 -12.369000 0
M  V30 31 C -11.039000 8.087000 -12.295000 0
M  V30 32 H -6.715000 4.548600 -15.156700 0
M  V30 33 H -6.433500 6.753400 -16.399200 0
M  V30 34 H -12.869400 9.915100 -12.199100 0
M  V30 35 H -14.276000 8.904400 -12.189600 0
M  V30 36 H -0.590700 10.379900 -12.580400 0
M  V30 37 H -4.457300 8.283500 -11.971100 0
M  V30 38 H -4.192600 8.446400 -13.574300 0
M  V30 39 H -12.652800 4.642100 -12.091700 0
M  V30 40 H -8.108800 9.142100 -12.585200 0
M  V30 41 H -8.375100 6.105200 -14.601900 0
M  V30 42 H -6.992000 7.956100 -14.483900 0
M  V30 43 H -8.031500 5.433600 -12.107100 0
M  V30 44 H -5.061100 6.233500 -13.133700 0
M  V30 END ATOM
M  V30 BEGIN BOND
M  V30 1 2 1 4
M  V30 2 1 1 5 CFG=3
M  V30 3 1 1 13
M  V30 4 1 1 14
M  V30 5 2 2 6
M  V30 6 1 2 7
M  V30 7 1 2 8
M  V30 8 1 2 17
M  V30 9 2 3 9
M  V30 10 1 3 10 CFG=1
M  V30 11 1 3 13
M  V30 12 1 3 17
M  V30 13 1 11 25
M  V30 14 1 12 26
M  V30 15 1 14 22
M  V30 16 1 15 27
M  V30 17 1 15 29
M  V30 18 1 16 28
M  V30 19 2 18 23
M  V30 20 1 18 28
M  V30 21 1 19 23
M  V30 22 2 19 30
M  V30 23 2 20 24
M  V30 24 1 20 31
M  V30 25 1 21 24
M  V30 26 1 21 27
M  V30 27 1 21 30
M  V30 28 1 22 29
M  V30 29 1 25 26
M  V30 30 1 25 27
M  V30 31 1 26 29
M  V30 32 2 28 31
M  V30 33 1 30 31
M  V30 34 1 29 44 CFG=3
M  V30 35 1 27 43 CFG=1
M  V30 36 1 26 42 CFG=3
M  V30 37 1 25 41 CFG=3
M  V30 38 1 11 32
M  V30 39 1 12 33
M  V30 40 1 16 34
M  V30 41 1 16 35
M  V30 42 1 17 36
M  V30 43 1 22 37
M  V30 44 1 22 38
M  V30 45 1 23 39
M  V30 46 1 24 40
M  V30 END BOND
M  V30 END CTAB
M  END
>  <Ligand_Instance>  (114) 
4XW4_ANP_A_403

>  <Dataset>  (114) 
PDB

>  <PDB_ID>  (114) 
4XW4

>  <Chain>  (114) 
A

>  <Resi>  (114) 
403

>  <Num_Resolved_Atoms>  (114) 
31

>  <Num_H_Atoms_ProtBoundConf>  (114) 
13

>  <Pocket>  (114) 
A

>  <Name>  (114) 
PHOSPHOAMINOPHOSPHONIC ACID-ADENYLATE ESTER

>  <Num_Not_Resolved_Atoms>  (114) 
0

>  <ATP_Site>  (114) 
True

>  <Peripheral>  (114) 
False

>  <Standardized_SMILES>  (114) 
[H]O[C@@]1([H])[C@@]([H])(O[H])[C@]([H])(N2C([H])=NC3=C2N=C([H])N=C3N([H])[H])O[C@]1([H])C([H])([H])O[P@@](=O)([O-])O[P@@](=O)([O-])N([H])P(=O)([O-])[O-]

>  <2D_Mol_H>  (114) 
<rdkit.Chem.rdchem.Mol object at 0x77059d9f8580>

>  <MW>  (114) 
502.166

>  <HBA>  (114) 
17

>  <HBD>  (114) 
4

>  <LogP>  (114) 
-4.584

>  <NRB>  (114) 
11

>  <TPSA>  (114) 
293.25

>  <Num_Heavy_Atoms>  (114) 
31

>  <Ro5>  (114) 
[False, False, True, True, False, False]

>  <Ro5_Fulfilled>  (114) 
False

>  <Ro3>  (114) 
[False, False, False, True]

>  <Ro3_Fulfilled>  (114) 
False

>  <Fsp3>  (114) 
0.5

>  <Fsp3_0.42>  (114) 
True

>  <Fsp3_0.45>  (114) 
True

>  <Stereogenic_Carbons>  (114) 
4

>  <C_Atoms>  (114) 
10

>  <FCStereo>  (114) 
0.4

>  <SPS>  (114) 
882

>  <nSPS>  (114) 
28.451613

>  <PBF>  (114) 
0.819845

>  <PBF_0.6>  (114) 
True

>  <nPBF>  (114) 
0.026447

>  <nPBF_0.016>  (114) 
True

>  <PMI1>  (114) 
1757.293996

>  <PMI2>  (114) 
9291.63623

>  <PMI3>  (114) 
10276.172801

>  <NPR1>  (114) 
0.171007

>  <NPR2>  (114) 
0.904192

>  <Sum_NPR>  (114) 
1.075199

>  <Sum_NPR_1.07>  (114) 
True

>  <Sum_NPR_1.2>  (114) 
False

>  <MaxAbsEStateIndex>  (114) 
11.631022

>  <MaxEStateIndex>  (114) 
11.631022

>  <MinAbsEStateIndex>  (114) 
0.025434

>  <MinEStateIndex>  (114) 
-5.88789

>  <qed>  (114) 
0.246841

>  <MolWt>  (114) 
502.166

>  <HeavyAtomMolWt>  (114) 
489.062

>  <ExactMolWt>  (114) 
501.982624

>  <NumValenceElectrons>  (114) 
174

>  <NumRadicalElectrons>  (114) 
0

>  <MaxPartialCharge>  (114) 
0.273292

>  <MinPartialCharge>  (114) 
-0.799075

>  <MaxAbsPartialCharge>  (114) 
0.799075

>  <MinAbsPartialCharge>  (114) 
0.273292

>  <FpDensityMorgan1>  (114) 
1.16129

>  <FpDensityMorgan2>  (114) 
1.83871

>  <FpDensityMorgan3>  (114) 
2.483871

>  <BCUT2D_MWHI>  (114) 
31.287813

>  <BCUT2D_MWLOW>  (114) 
10.128388

>  <BCUT2D_CHGHI>  (114) 
2.44611

>  <BCUT2D_CHGLO>  (114) 
-2.388133

>  <BCUT2D_LOGPHI>  (114) 
2.552246

>  <BCUT2D_LOGPLOW>  (114) 
-2.341071

>  <BCUT2D_MRHI>  (114) 
7.684213

>  <BCUT2D_MRLOW>  (114) 
-0.316952

>  <AvgIpc>  (114) 
3.133568

>  <BalabanJ>  (114) 
1.689409

>  <BertzCT>  (114) 
1105.970439

>  <Chi0>  (114) 
23.18987

>  <Chi0n>  (114) 
14.855964

>  <Chi0v>  (114) 
17.539246

>  <Chi1>  (114) 
14.190889

>  <Chi1n>  (114) 
7.931778

>  <Chi1v>  (114) 
12.477689

>  <Chi2n>  (114) 
6.048811

>  <Chi2v>  (114) 
10.644506

>  <Chi3n>  (114) 
3.847795

>  <Chi3v>  (114) 
7.932617

>  <Chi4n>  (114) 
2.641158

>  <Chi4v>  (114) 
5.887109

>  <HallKierAlpha>  (114) 
-1.36

>  <Ipc>  (114) 
3947352.346056

>  <Kappa1>  (114) 
24.285736

>  <Kappa2>  (114) 
8.532213

>  <Kappa3>  (114) 
5.714341

>  <LabuteASA>  (114) 
171.593724

>  <PEOE_VSA1>  (114) 
49.346027

>  <PEOE_VSA10>  (114) 
30.15592

>  <PEOE_VSA11>  (114) 
17.692941

>  <PEOE_VSA12>  (114) 
7.746488

>  <PEOE_VSA13>  (114) 
7.822697

>  <PEOE_VSA14>  (114) 
0.0

>  <PEOE_VSA2>  (114) 
18.007828

>  <PEOE_VSA3>  (114) 
19.809737

>  <PEOE_VSA4>  (114) 
0.0

>  <PEOE_VSA5>  (114) 
0.0

>  <PEOE_VSA6>  (114) 
0.0

>  <PEOE_VSA7>  (114) 
0.0

>  <PEOE_VSA8>  (114) 
7.746488

>  <PEOE_VSA9>  (114) 
12.934202

>  <SMR_VSA1>  (114) 
57.053088

>  <SMR_VSA10>  (114) 
40.297415

>  <SMR_VSA2>  (114) 
0.0

>  <SMR_VSA3>  (114) 
24.376837

>  <SMR_VSA4>  (114) 
0.0

>  <SMR_VSA5>  (114) 
24.5398

>  <SMR_VSA6>  (114) 
12.340549

>  <SMR_VSA7>  (114) 
12.65464

>  <SMR_VSA8>  (114) 
0.0

>  <SMR_VSA9>  (114) 
0.0

>  <SlogP_VSA1>  (114) 
30.165115

>  <SlogP_VSA10>  (114) 
5.817863

>  <SlogP_VSA11>  (114) 
0.0

>  <SlogP_VSA12>  (114) 
23.315674

>  <SlogP_VSA2>  (114) 
54.650871

>  <SlogP_VSA3>  (114) 
27.266386

>  <SlogP_VSA4>  (114) 
0.0

>  <SlogP_VSA5>  (114) 
6.227901

>  <SlogP_VSA6>  (114) 
12.65464

>  <SlogP_VSA7>  (114) 
0.0

>  <SlogP_VSA8>  (114) 
11.163878

>  <SlogP_VSA9>  (114) 
0.0

>  <EState_VSA1>  (114) 
54.462356

>  <EState_VSA10>  (114) 
43.481846

>  <EState_VSA11>  (114) 
0.0

>  <EState_VSA2>  (114) 
16.981741

>  <EState_VSA3>  (114) 
4.857802

>  <EState_VSA4>  (114) 
6.32732

>  <EState_VSA5>  (114) 
10.89442

>  <EState_VSA6>  (114) 
0.0

>  <EState_VSA7>  (114) 
0.0

>  <EState_VSA8>  (114) 
23.786314

>  <EState_VSA9>  (114) 
10.47053

>  <VSA_EState1>  (114) 
47.639432

>  <VSA_EState10>  (114) 
0.0

>  <VSA_EState2>  (114) 
55.77868

>  <VSA_EState3>  (114) 
20.343175

>  <VSA_EState4>  (114) 
5.942789

>  <VSA_EState5>  (114) 
0.025434

>  <VSA_EState6>  (114) 
0.0

>  <VSA_EState7>  (114) 
-3.918472

>  <VSA_EState8>  (114) 
-1.049933

>  <VSA_EState9>  (114) 
-17.511105

>  <FractionCSP3>  (114) 
0.5

>  <HeavyAtomCount>  (114) 
31

>  <NHOHCount>  (114) 
5

>  <NOCount>  (114) 
18

>  <NumAliphaticCarbocycles>  (114) 
0

>  <NumAliphaticHeterocycles>  (114) 
1

>  <NumAliphaticRings>  (114) 
1

>  <NumAromaticCarbocycles>  (114) 
0

>  <NumAromaticHeterocycles>  (114) 
2

>  <NumAromaticRings>  (114) 
2

>  <NumHAcceptors>  (114) 
17

>  <NumHDonors>  (114) 
4

>  <NumHeteroatoms>  (114) 
21

>  <NumRotatableBonds>  (114) 
8

>  <NumSaturatedCarbocycles>  (114) 
0

>  <NumSaturatedHeterocycles>  (114) 
1

>  <NumSaturatedRings>  (114) 
1

>  <RingCount>  (114) 
3

>  <MolLogP>  (114) 
-4.584

>  <MolMR>  (114) 
88.6512

>  <fr_Al_COO>  (114) 
0

>  <fr_Al_OH>  (114) 
2

>  <fr_Al_OH_noTert>  (114) 
2

>  <fr_ArN>  (114) 
1

>  <fr_Ar_COO>  (114) 
0

>  <fr_Ar_N>  (114) 
4

>  <fr_Ar_NH>  (114) 
0

>  <fr_Ar_OH>  (114) 
0

>  <fr_COO>  (114) 
0

>  <fr_COO2>  (114) 
0

>  <fr_C_O>  (114) 
0

>  <fr_C_O_noCOO>  (114) 
0

>  <fr_C_S>  (114) 
0

>  <fr_HOCCN>  (114) 
0

>  <fr_Imine>  (114) 
0

>  <fr_NH0>  (114) 
4

>  <fr_NH1>  (114) 
1

>  <fr_NH2>  (114) 
1

>  <fr_N_O>  (114) 
0

>  <fr_Ndealkylation1>  (114) 
0

>  <fr_Ndealkylation2>  (114) 
0

>  <fr_Nhpyrrole>  (114) 
0

>  <fr_SH>  (114) 
0

>  <fr_aldehyde>  (114) 
0

>  <fr_alkyl_carbamate>  (114) 
0

>  <fr_alkyl_halide>  (114) 
0

>  <fr_allylic_oxid>  (114) 
0

>  <fr_amide>  (114) 
0

>  <fr_amidine>  (114) 
0

>  <fr_aniline>  (114) 
1

>  <fr_aryl_methyl>  (114) 
0

>  <fr_azide>  (114) 
0

>  <fr_azo>  (114) 
0

>  <fr_barbitur>  (114) 
0

>  <fr_benzene>  (114) 
0

>  <fr_benzodiazepine>  (114) 
0

>  <fr_bicyclic>  (114) 
1

>  <fr_diazo>  (114) 
0

>  <fr_dihydropyridine>  (114) 
0

>  <fr_epoxide>  (114) 
0

>  <fr_ester>  (114) 
0

>  <fr_ether>  (114) 
1

>  <fr_furan>  (114) 
0

>  <fr_guanido>  (114) 
0

>  <fr_halogen>  (114) 
0

>  <fr_hdrzine>  (114) 
0

>  <fr_hdrzone>  (114) 
0

>  <fr_imidazole>  (114) 
1

>  <fr_imide>  (114) 
0

>  <fr_isocyan>  (114) 
0

>  <fr_isothiocyan>  (114) 
0

>  <fr_ketone>  (114) 
0

>  <fr_ketone_Topliss>  (114) 
0

>  <fr_lactam>  (114) 
0

>  <fr_lactone>  (114) 
0

>  <fr_methoxy>  (114) 
0

>  <fr_morpholine>  (114) 
0

>  <fr_nitrile>  (114) 
0

>  <fr_nitro>  (114) 
0

>  <fr_nitro_arom>  (114) 
0

>  <fr_nitro_arom_nonortho>  (114) 
0

>  <fr_nitroso>  (114) 
0

>  <fr_oxazole>  (114) 
0

>  <fr_oxime>  (114) 
0

>  <fr_para_hydroxylation>  (114) 
0

>  <fr_phenol>  (114) 
0

>  <fr_phenol_noOrthoHbond>  (114) 
0

>  <fr_phos_acid>  (114) 
1

>  <fr_phos_ester>  (114) 
1

>  <fr_piperdine>  (114) 
0

>  <fr_piperzine>  (114) 
0

>  <fr_priamide>  (114) 
0

>  <fr_prisulfonamd>  (114) 
0

>  <fr_pyridine>  (114) 
0

>  <fr_quatN>  (114) 
0

>  <fr_sulfide>  (114) 
0

>  <fr_sulfonamd>  (114) 
0

>  <fr_sulfone>  (114) 
0

>  <fr_term_acetylene>  (114) 
0

>  <fr_tetrazole>  (114) 
0

>  <fr_thiazole>  (114) 
0

>  <fr_thiocyan>  (114) 
0

>  <fr_thiophene>  (114) 
0

>  <fr_unbrch_alkane>  (114) 
0

>  <fr_urea>  (114) 
0

>  <NP_Likeness>  (114) 
0.781644

$$$$
ANP
     RDKit          3D

  0  0  0  0  0  0  0  0  0  0999 V3000
M  V30 BEGIN CTAB
M  V30 COUNTS 44 46 0 0 0
M  V30 BEGIN ATOM
M  V30 1 P 7.654000 16.729000 18.975000 0 CFG=1
M  V30 2 P 10.891000 20.077000 19.485000 0
M  V30 3 P 9.684000 18.163000 17.672000 0 CFG=1
M  V30 4 O 7.941000 15.272000 19.042000 0
M  V30 5 O 8.058000 17.521000 20.232000 0 CHG=-1
M  V30 6 O 10.665000 20.121000 20.977000 0
M  V30 7 O 12.171000 19.185000 19.245000 0 CHG=-1
M  V30 8 O 11.193000 21.541000 18.995000 0 CHG=-1
M  V30 9 O 10.847000 17.291000 18.070000 0
M  V30 10 O 9.894000 18.660000 16.222000 0 CHG=-1
M  V30 11 O 2.230000 18.960000 21.338000 0
M  V30 12 O 5.012000 19.140000 21.612000 0
M  V30 13 O 8.353000 17.342000 17.663000 0
M  V30 14 O 6.101000 16.908000 18.722000 0
M  V30 15 O 3.282000 17.512000 18.888000 0
M  V30 16 N 1.785000 11.066000 20.544000 0
M  V30 17 N 9.495000 19.478000 18.720000 0
M  V30 18 N 0.051000 12.583000 20.789000 0
M  V30 19 N 0.324000 14.969000 20.564000 0
M  V30 20 N 3.566000 13.541000 20.031000 0
M  V30 21 N 2.630000 15.590000 20.069000 0
M  V30 22 C 5.552000 18.246000 18.516000 0
M  V30 23 C -0.376000 13.850000 20.782000 0
M  V30 24 C 3.761000 14.831000 19.906000 0
M  V30 25 C 3.008000 17.778000 21.233000 0 CFG=2
M  V30 26 C 4.456000 18.075000 20.845000 0 CFG=1
M  V30 27 C 2.509000 17.042000 19.985000 0 CFG=1
M  V30 28 C 1.367000 12.335000 20.550000 0
M  V30 29 C 4.313000 18.410000 19.361000 0 CFG=2
M  V30 30 C 1.623000 14.695000 20.333000 0
M  V30 31 C 2.205000 13.441000 20.310000 0
M  V30 32 H 2.623400 19.557000 22.037200 0
M  V30 33 H 4.994200 18.896900 22.581800 0
M  V30 34 H 2.747500 10.857400 20.370800 0
M  V30 35 H 1.135300 10.324800 20.712700 0
M  V30 36 H 9.097600 20.228000 18.191300 0
M  V30 37 H 5.317200 18.366200 17.551400 0
M  V30 38 H 6.230900 18.930500 18.781600 0
M  V30 39 H -1.350800 13.978600 20.964500 0
M  V30 40 H 4.657400 15.227900 19.708700 0
M  V30 41 H 2.946300 17.211600 22.054800 0
M  V30 42 H 5.012400 17.251400 20.954800 0
M  V30 43 H 1.549800 17.279000 19.830800 0
M  V30 44 H 3.985600 19.350800 19.273300 0
M  V30 END ATOM
M  V30 BEGIN BOND
M  V30 1 2 1 4
M  V30 2 1 1 5 CFG=1
M  V30 3 1 1 13
M  V30 4 1 1 14
M  V30 5 2 2 6
M  V30 6 1 2 7
M  V30 7 1 2 8
M  V30 8 1 2 17
M  V30 9 2 3 9
M  V30 10 1 3 10 CFG=3
M  V30 11 1 3 13
M  V30 12 1 3 17
M  V30 13 1 11 25
M  V30 14 1 12 26
M  V30 15 1 14 22
M  V30 16 1 15 27
M  V30 17 1 15 29
M  V30 18 1 16 28
M  V30 19 2 18 23
M  V30 20 1 18 28
M  V30 21 1 19 23
M  V30 22 2 19 30
M  V30 23 2 20 24
M  V30 24 1 20 31
M  V30 25 1 21 24
M  V30 26 1 21 27
M  V30 27 1 21 30
M  V30 28 1 22 29
M  V30 29 1 25 26
M  V30 30 1 25 27
M  V30 31 1 26 29
M  V30 32 2 28 31
M  V30 33 1 30 31
M  V30 34 1 29 44 CFG=1
M  V30 35 1 27 43 CFG=3
M  V30 36 1 26 42 CFG=3
M  V30 37 1 25 41 CFG=1
M  V30 38 1 11 32
M  V30 39 1 12 33
M  V30 40 1 16 34
M  V30 41 1 16 35
M  V30 42 1 17 36
M  V30 43 1 22 37
M  V30 44 1 22 38
M  V30 45 1 23 39
M  V30 46 1 24 40
M  V30 END BOND
M  V30 END CTAB
M  END
>  <Ligand_Instance>  (115) 
7E0Z_ANP_A_401

>  <Dataset>  (115) 
PDB

>  <PDB_ID>  (115) 
7E0Z

>  <Chain>  (115) 
A

>  <Resi>  (115) 
401

>  <Num_Resolved_Atoms>  (115) 
31

>  <Num_H_Atoms_ProtBoundConf>  (115) 
13

>  <Pocket>  (115) 
A

>  <Name>  (115) 
PHOSPHOAMINOPHOSPHONIC ACID-ADENYLATE ESTER

>  <Num_Not_Resolved_Atoms>  (115) 
0

>  <ATP_Site>  (115) 
True

>  <Peripheral>  (115) 
False

>  <Standardized_SMILES>  (115) 
[H]O[C@@]1([H])[C@@]([H])(O[H])[C@]([H])(N2C([H])=NC3=C2N=C([H])N=C3N([H])[H])O[C@]1([H])C([H])([H])O[P@](=O)([O-])O[P@@](=O)([O-])N([H])P(=O)([O-])[O-]

>  <2D_Mol_H>  (115) 
<rdkit.Chem.rdchem.Mol object at 0x77059d9f8660>

>  <MW>  (115) 
502.166

>  <HBA>  (115) 
17

>  <HBD>  (115) 
4

>  <LogP>  (115) 
-4.584

>  <NRB>  (115) 
11

>  <TPSA>  (115) 
293.25

>  <Num_Heavy_Atoms>  (115) 
31

>  <Ro5>  (115) 
[False, False, True, True, False, False]

>  <Ro5_Fulfilled>  (115) 
False

>  <Ro3>  (115) 
[False, False, False, True]

>  <Ro3_Fulfilled>  (115) 
False

>  <Fsp3>  (115) 
0.5

>  <Fsp3_0.42>  (115) 
True

>  <Fsp3_0.45>  (115) 
True

>  <Stereogenic_Carbons>  (115) 
4

>  <C_Atoms>  (115) 
10

>  <FCStereo>  (115) 
0.4

>  <SPS>  (115) 
882

>  <nSPS>  (115) 
28.451613

>  <PBF>  (115) 
0.800948

>  <PBF_0.6>  (115) 
True

>  <nPBF>  (115) 
0.025837

>  <nPBF_0.016>  (115) 
True

>  <PMI1>  (115) 
1737.661319

>  <PMI2>  (115) 
9670.580193

>  <PMI3>  (115) 
10580.952663

>  <NPR1>  (115) 
0.164225

>  <NPR2>  (115) 
0.913961

>  <Sum_NPR>  (115) 
1.078187

>  <Sum_NPR_1.07>  (115) 
True

>  <Sum_NPR_1.2>  (115) 
False

>  <MaxAbsEStateIndex>  (115) 
11.631022

>  <MaxEStateIndex>  (115) 
11.631022

>  <MinAbsEStateIndex>  (115) 
0.025434

>  <MinEStateIndex>  (115) 
-5.88789

>  <qed>  (115) 
0.246841

>  <MolWt>  (115) 
502.166

>  <HeavyAtomMolWt>  (115) 
489.062

>  <ExactMolWt>  (115) 
501.982624

>  <NumValenceElectrons>  (115) 
174

>  <NumRadicalElectrons>  (115) 
0

>  <MaxPartialCharge>  (115) 
0.273292

>  <MinPartialCharge>  (115) 
-0.799075

>  <MaxAbsPartialCharge>  (115) 
0.799075

>  <MinAbsPartialCharge>  (115) 
0.273292

>  <FpDensityMorgan1>  (115) 
1.16129

>  <FpDensityMorgan2>  (115) 
1.83871

>  <FpDensityMorgan3>  (115) 
2.483871

>  <BCUT2D_MWHI>  (115) 
31.287813

>  <BCUT2D_MWLOW>  (115) 
10.128388

>  <BCUT2D_CHGHI>  (115) 
2.44611

>  <BCUT2D_CHGLO>  (115) 
-2.388133

>  <BCUT2D_LOGPHI>  (115) 
2.552246

>  <BCUT2D_LOGPLOW>  (115) 
-2.341071

>  <BCUT2D_MRHI>  (115) 
7.684213

>  <BCUT2D_MRLOW>  (115) 
-0.316952

>  <AvgIpc>  (115) 
3.133568

>  <BalabanJ>  (115) 
1.689409

>  <BertzCT>  (115) 
1105.970439

>  <Chi0>  (115) 
23.18987

>  <Chi0n>  (115) 
14.855964

>  <Chi0v>  (115) 
17.539246

>  <Chi1>  (115) 
14.190889

>  <Chi1n>  (115) 
7.931778

>  <Chi1v>  (115) 
12.477689

>  <Chi2n>  (115) 
6.048811

>  <Chi2v>  (115) 
10.644506

>  <Chi3n>  (115) 
3.847795

>  <Chi3v>  (115) 
7.932617

>  <Chi4n>  (115) 
2.641158

>  <Chi4v>  (115) 
5.887109

>  <HallKierAlpha>  (115) 
-1.36

>  <Ipc>  (115) 
3947352.346056

>  <Kappa1>  (115) 
24.285736

>  <Kappa2>  (115) 
8.532213

>  <Kappa3>  (115) 
5.714341

>  <LabuteASA>  (115) 
171.593724

>  <PEOE_VSA1>  (115) 
49.346027

>  <PEOE_VSA10>  (115) 
30.15592

>  <PEOE_VSA11>  (115) 
17.692941

>  <PEOE_VSA12>  (115) 
7.746488

>  <PEOE_VSA13>  (115) 
7.822697

>  <PEOE_VSA14>  (115) 
0.0

>  <PEOE_VSA2>  (115) 
18.007828

>  <PEOE_VSA3>  (115) 
19.809737

>  <PEOE_VSA4>  (115) 
0.0

>  <PEOE_VSA5>  (115) 
0.0

>  <PEOE_VSA6>  (115) 
0.0

>  <PEOE_VSA7>  (115) 
0.0

>  <PEOE_VSA8>  (115) 
7.746488

>  <PEOE_VSA9>  (115) 
12.934202

>  <SMR_VSA1>  (115) 
57.053088

>  <SMR_VSA10>  (115) 
40.297415

>  <SMR_VSA2>  (115) 
0.0

>  <SMR_VSA3>  (115) 
24.376837

>  <SMR_VSA4>  (115) 
0.0

>  <SMR_VSA5>  (115) 
24.5398

>  <SMR_VSA6>  (115) 
12.340549

>  <SMR_VSA7>  (115) 
12.65464

>  <SMR_VSA8>  (115) 
0.0

>  <SMR_VSA9>  (115) 
0.0

>  <SlogP_VSA1>  (115) 
30.165115

>  <SlogP_VSA10>  (115) 
5.817863

>  <SlogP_VSA11>  (115) 
0.0

>  <SlogP_VSA12>  (115) 
23.315674

>  <SlogP_VSA2>  (115) 
54.650871

>  <SlogP_VSA3>  (115) 
27.266386

>  <SlogP_VSA4>  (115) 
0.0

>  <SlogP_VSA5>  (115) 
6.227901

>  <SlogP_VSA6>  (115) 
12.65464

>  <SlogP_VSA7>  (115) 
0.0

>  <SlogP_VSA8>  (115) 
11.163878

>  <SlogP_VSA9>  (115) 
0.0

>  <EState_VSA1>  (115) 
54.462356

>  <EState_VSA10>  (115) 
43.481846

>  <EState_VSA11>  (115) 
0.0

>  <EState_VSA2>  (115) 
16.981741

>  <EState_VSA3>  (115) 
4.857802

>  <EState_VSA4>  (115) 
6.32732

>  <EState_VSA5>  (115) 
10.89442

>  <EState_VSA6>  (115) 
0.0

>  <EState_VSA7>  (115) 
0.0

>  <EState_VSA8>  (115) 
23.786314

>  <EState_VSA9>  (115) 
10.47053

>  <VSA_EState1>  (115) 
47.639432

>  <VSA_EState10>  (115) 
0.0

>  <VSA_EState2>  (115) 
55.77868

>  <VSA_EState3>  (115) 
20.343175

>  <VSA_EState4>  (115) 
5.942789

>  <VSA_EState5>  (115) 
0.025434

>  <VSA_EState6>  (115) 
0.0

>  <VSA_EState7>  (115) 
-3.918472

>  <VSA_EState8>  (115) 
-1.049933

>  <VSA_EState9>  (115) 
-17.511105

>  <FractionCSP3>  (115) 
0.5

>  <HeavyAtomCount>  (115) 
31

>  <NHOHCount>  (115) 
5

>  <NOCount>  (115) 
18

>  <NumAliphaticCarbocycles>  (115) 
0

>  <NumAliphaticHeterocycles>  (115) 
1

>  <NumAliphaticRings>  (115) 
1

>  <NumAromaticCarbocycles>  (115) 
0

>  <NumAromaticHeterocycles>  (115) 
2

>  <NumAromaticRings>  (115) 
2

>  <NumHAcceptors>  (115) 
17

>  <NumHDonors>  (115) 
4

>  <NumHeteroatoms>  (115) 
21

>  <NumRotatableBonds>  (115) 
8

>  <NumSaturatedCarbocycles>  (115) 
0

>  <NumSaturatedHeterocycles>  (115) 
1

>  <NumSaturatedRings>  (115) 
1

>  <RingCount>  (115) 
3

>  <MolLogP>  (115) 
-4.584

>  <MolMR>  (115) 
88.6512

>  <fr_Al_COO>  (115) 
0

>  <fr_Al_OH>  (115) 
2

>  <fr_Al_OH_noTert>  (115) 
2

>  <fr_ArN>  (115) 
1

>  <fr_Ar_COO>  (115) 
0

>  <fr_Ar_N>  (115) 
4

>  <fr_Ar_NH>  (115) 
0

>  <fr_Ar_OH>  (115) 
0

>  <fr_COO>  (115) 
0

>  <fr_COO2>  (115) 
0

>  <fr_C_O>  (115) 
0

>  <fr_C_O_noCOO>  (115) 
0

>  <fr_C_S>  (115) 
0

>  <fr_HOCCN>  (115) 
0

>  <fr_Imine>  (115) 
0

>  <fr_NH0>  (115) 
4

>  <fr_NH1>  (115) 
1

>  <fr_NH2>  (115) 
1

>  <fr_N_O>  (115) 
0

>  <fr_Ndealkylation1>  (115) 
0

>  <fr_Ndealkylation2>  (115) 
0

>  <fr_Nhpyrrole>  (115) 
0

>  <fr_SH>  (115) 
0

>  <fr_aldehyde>  (115) 
0

>  <fr_alkyl_carbamate>  (115) 
0

>  <fr_alkyl_halide>  (115) 
0

>  <fr_allylic_oxid>  (115) 
0

>  <fr_amide>  (115) 
0

>  <fr_amidine>  (115) 
0

>  <fr_aniline>  (115) 
1

>  <fr_aryl_methyl>  (115) 
0

>  <fr_azide>  (115) 
0

>  <fr_azo>  (115) 
0

>  <fr_barbitur>  (115) 
0

>  <fr_benzene>  (115) 
0

>  <fr_benzodiazepine>  (115) 
0

>  <fr_bicyclic>  (115) 
1

>  <fr_diazo>  (115) 
0

>  <fr_dihydropyridine>  (115) 
0

>  <fr_epoxide>  (115) 
0

>  <fr_ester>  (115) 
0

>  <fr_ether>  (115) 
1

>  <fr_furan>  (115) 
0

>  <fr_guanido>  (115) 
0

>  <fr_halogen>  (115) 
0

>  <fr_hdrzine>  (115) 
0

>  <fr_hdrzone>  (115) 
0

>  <fr_imidazole>  (115) 
1

>  <fr_imide>  (115) 
0

>  <fr_isocyan>  (115) 
0

>  <fr_isothiocyan>  (115) 
0

>  <fr_ketone>  (115) 
0

>  <fr_ketone_Topliss>  (115) 
0

>  <fr_lactam>  (115) 
0

>  <fr_lactone>  (115) 
0

>  <fr_methoxy>  (115) 
0

>  <fr_morpholine>  (115) 
0

>  <fr_nitrile>  (115) 
0

>  <fr_nitro>  (115) 
0

>  <fr_nitro_arom>  (115) 
0

>  <fr_nitro_arom_nonortho>  (115) 
0

>  <fr_nitroso>  (115) 
0

>  <fr_oxazole>  (115) 
0

>  <fr_oxime>  (115) 
0

>  <fr_para_hydroxylation>  (115) 
0

>  <fr_phenol>  (115) 
0

>  <fr_phenol_noOrthoHbond>  (115) 
0

>  <fr_phos_acid>  (115) 
1

>  <fr_phos_ester>  (115) 
1

>  <fr_piperdine>  (115) 
0

>  <fr_piperzine>  (115) 
0

>  <fr_priamide>  (115) 
0

>  <fr_prisulfonamd>  (115) 
0

>  <fr_pyridine>  (115) 
0

>  <fr_quatN>  (115) 
0

>  <fr_sulfide>  (115) 
0

>  <fr_sulfonamd>  (115) 
0

>  <fr_sulfone>  (115) 
0

>  <fr_term_acetylene>  (115) 
0

>  <fr_tetrazole>  (115) 
0

>  <fr_thiazole>  (115) 
0

>  <fr_thiocyan>  (115) 
0

>  <fr_thiophene>  (115) 
0

>  <fr_unbrch_alkane>  (115) 
0

>  <fr_urea>  (115) 
0

>  <NP_Likeness>  (115) 
0.781644

$$$$
ANP
     RDKit          3D

  0  0  0  0  0  0  0  0  0  0999 V3000
M  V30 BEGIN CTAB
M  V30 COUNTS 44 46 0 0 0
M  V30 BEGIN ATOM
M  V30 1 P 11.554000 28.884000 -22.394000 0 CFG=1
M  V30 2 P 12.719000 29.656000 -18.042000 0
M  V30 3 P 12.955000 30.452000 -20.676000 0 CFG=1
M  V30 4 O 12.365000 28.046000 -23.306000 0
M  V30 5 O 11.232000 28.223000 -21.051000 0 CHG=-1
M  V30 6 O 12.064000 28.527000 -17.312000 0
M  V30 7 O 14.218000 29.279000 -18.355000 0 CHG=-1
M  V30 8 O 12.680000 30.960000 -17.147000 0 CHG=-1
M  V30 9 O 14.212000 29.647000 -20.605000 0
M  V30 10 O 13.294000 31.957000 -20.467000 0 CHG=-1
M  V30 11 O 5.256000 27.876000 -23.053000 0
M  V30 12 O 7.163000 27.950000 -21.149000 0
M  V30 13 O 12.287000 30.254000 -22.069000 0
M  V30 14 O 10.234000 29.296000 -23.157000 0
M  V30 15 O 7.747000 29.475000 -24.333000 0
M  V30 16 N 8.638000 25.065000 -29.471000 0
M  V30 17 N 11.888000 29.946000 -19.486000 0
M  V30 18 N 6.426000 25.514000 -28.979000 0
M  V30 19 N 5.716000 26.845000 -27.099000 0
M  V30 20 N 9.288000 26.755000 -26.970000 0
M  V30 21 N 7.598000 27.655000 -25.788000 0
M  V30 22 C 9.200000 30.057000 -22.502000 0
M  V30 23 C 5.521000 26.102000 -28.191000 0
M  V30 24 C 8.950000 27.485000 -25.934000 0
M  V30 25 C 6.573000 27.575000 -23.497000 0 CFG=2
M  V30 26 C 7.631000 28.034000 -22.490000 0 CFG=1
M  V30 27 C 6.912000 28.407000 -24.743000 0 CFG=1
M  V30 28 C 7.738000 25.655000 -28.681000 0
M  V30 29 C 7.863000 29.482000 -22.898000 0 CFG=2
M  V30 30 C 7.022000 26.966000 -26.828000 0
M  V30 31 C 8.071000 26.420000 -27.545000 0
M  V30 32 H 5.229500 27.860500 -22.053500 0
M  V30 33 H 7.380200 27.047900 -20.776000 0
M  V30 34 H 9.613700 25.154700 -29.271300 0
M  V30 35 H 8.336400 24.533300 -30.262400 0
M  V30 36 H 11.200700 30.656500 -19.334700 0
M  V30 37 H 9.253600 31.014300 -22.786200 0
M  V30 38 H 9.313200 29.996900 -21.510200 0
M  V30 39 H 4.566200 25.966900 -28.455700 0
M  V30 40 H 9.619500 27.882300 -25.306300 0
M  V30 41 H 6.667000 26.597900 -23.688000 0
M  V30 42 H 8.470700 27.502200 -22.600000 0
M  V30 43 H 6.065900 28.784600 -25.119300 0
M  V30 44 H 7.135600 30.050600 -22.513800 0
M  V30 END ATOM
M  V30 BEGIN BOND
M  V30 1 2 1 4
M  V30 2 1 1 5 CFG=1
M  V30 3 1 1 13
M  V30 4 1 1 14
M  V30 5 2 2 6
M  V30 6 1 2 7
M  V30 7 1 2 8
M  V30 8 1 2 17
M  V30 9 2 3 9
M  V30 10 1 3 10 CFG=1
M  V30 11 1 3 13
M  V30 12 1 3 17
M  V30 13 1 11 25
M  V30 14 1 12 26
M  V30 15 1 14 22
M  V30 16 1 15 27
M  V30 17 1 15 29
M  V30 18 1 16 28
M  V30 19 2 18 23
M  V30 20 1 18 28
M  V30 21 1 19 23
M  V30 22 2 19 30
M  V30 23 2 20 24
M  V30 24 1 20 31
M  V30 25 1 21 24
M  V30 26 1 21 27
M  V30 27 1 21 30
M  V30 28 1 22 29
M  V30 29 1 25 26
M  V30 30 1 25 27
M  V30 31 1 26 29
M  V30 32 2 28 31
M  V30 33 1 30 31
M  V30 34 1 29 44 CFG=1
M  V30 35 1 27 43 CFG=3
M  V30 36 1 26 42 CFG=1
M  V30 37 1 25 41 CFG=3
M  V30 38 1 11 32
M  V30 39 1 12 33
M  V30 40 1 16 34
M  V30 41 1 16 35
M  V30 42 1 17 36
M  V30 43 1 22 37
M  V30 44 1 22 38
M  V30 45 1 23 39
M  V30 46 1 24 40
M  V30 END BOND
M  V30 END CTAB
M  END
>  <Ligand_Instance>  (116) 
7E11_ANP_A_401

>  <Dataset>  (116) 
PDB

>  <PDB_ID>  (116) 
700000000000.0

>  <Chain>  (116) 
A

>  <Resi>  (116) 
401

>  <Num_Resolved_Atoms>  (116) 
31

>  <Num_H_Atoms_ProtBoundConf>  (116) 
13

>  <Pocket>  (116) 
A

>  <Name>  (116) 
PHOSPHOAMINOPHOSPHONIC ACID-ADENYLATE ESTER

>  <Num_Not_Resolved_Atoms>  (116) 
0

>  <ATP_Site>  (116) 
True

>  <Peripheral>  (116) 
False

>  <Standardized_SMILES>  (116) 
[H]O[C@@]1([H])[C@@]([H])(O[H])[C@]([H])(N2C([H])=NC3=C2N=C([H])N=C3N([H])[H])O[C@]1([H])C([H])([H])O[P@](=O)([O-])O[P@@](=O)([O-])N([H])P(=O)([O-])[O-]

>  <2D_Mol_H>  (116) 
<rdkit.Chem.rdchem.Mol object at 0x77059d9f8740>

>  <MW>  (116) 
502.166

>  <HBA>  (116) 
17

>  <HBD>  (116) 
4

>  <LogP>  (116) 
-4.584

>  <NRB>  (116) 
11

>  <TPSA>  (116) 
293.25

>  <Num_Heavy_Atoms>  (116) 
31

>  <Ro5>  (116) 
[False, False, True, True, False, False]

>  <Ro5_Fulfilled>  (116) 
False

>  <Ro3>  (116) 
[False, False, False, True]

>  <Ro3_Fulfilled>  (116) 
False

>  <Fsp3>  (116) 
0.5

>  <Fsp3_0.42>  (116) 
True

>  <Fsp3_0.45>  (116) 
True

>  <Stereogenic_Carbons>  (116) 
4

>  <C_Atoms>  (116) 
10

>  <FCStereo>  (116) 
0.4

>  <SPS>  (116) 
882

>  <nSPS>  (116) 
28.451613

>  <PBF>  (116) 
0.766949

>  <PBF_0.6>  (116) 
True

>  <nPBF>  (116) 
0.02474

>  <nPBF_0.016>  (116) 
True

>  <PMI1>  (116) 
1677.741752

>  <PMI2>  (116) 
9853.763003

>  <PMI3>  (116) 
10739.803514

>  <NPR1>  (116) 
0.156217

>  <NPR2>  (116) 
0.917499

>  <Sum_NPR>  (116) 
1.073717

>  <Sum_NPR_1.07>  (116) 
True

>  <Sum_NPR_1.2>  (116) 
False

>  <MaxAbsEStateIndex>  (116) 
11.631022

>  <MaxEStateIndex>  (116) 
11.631022

>  <MinAbsEStateIndex>  (116) 
0.025434

>  <MinEStateIndex>  (116) 
-5.88789

>  <qed>  (116) 
0.246841

>  <MolWt>  (116) 
502.166

>  <HeavyAtomMolWt>  (116) 
489.062

>  <ExactMolWt>  (116) 
501.982624

>  <NumValenceElectrons>  (116) 
174

>  <NumRadicalElectrons>  (116) 
0

>  <MaxPartialCharge>  (116) 
0.273292

>  <MinPartialCharge>  (116) 
-0.799075

>  <MaxAbsPartialCharge>  (116) 
0.799075

>  <MinAbsPartialCharge>  (116) 
0.273292

>  <FpDensityMorgan1>  (116) 
1.16129

>  <FpDensityMorgan2>  (116) 
1.83871

>  <FpDensityMorgan3>  (116) 
2.483871

>  <BCUT2D_MWHI>  (116) 
31.287813

>  <BCUT2D_MWLOW>  (116) 
10.128388

>  <BCUT2D_CHGHI>  (116) 
2.44611

>  <BCUT2D_CHGLO>  (116) 
-2.388133

>  <BCUT2D_LOGPHI>  (116) 
2.552246

>  <BCUT2D_LOGPLOW>  (116) 
-2.341071

>  <BCUT2D_MRHI>  (116) 
7.684213

>  <BCUT2D_MRLOW>  (116) 
-0.316952

>  <AvgIpc>  (116) 
3.133568

>  <BalabanJ>  (116) 
1.689409

>  <BertzCT>  (116) 
1105.970439

>  <Chi0>  (116) 
23.18987

>  <Chi0n>  (116) 
14.855964

>  <Chi0v>  (116) 
17.539246

>  <Chi1>  (116) 
14.190889

>  <Chi1n>  (116) 
7.931778

>  <Chi1v>  (116) 
12.477689

>  <Chi2n>  (116) 
6.048811

>  <Chi2v>  (116) 
10.644506

>  <Chi3n>  (116) 
3.847795

>  <Chi3v>  (116) 
7.932617

>  <Chi4n>  (116) 
2.641158

>  <Chi4v>  (116) 
5.887109

>  <HallKierAlpha>  (116) 
-1.36

>  <Ipc>  (116) 
3947352.346056

>  <Kappa1>  (116) 
24.285736

>  <Kappa2>  (116) 
8.532213

>  <Kappa3>  (116) 
5.714341

>  <LabuteASA>  (116) 
171.593724

>  <PEOE_VSA1>  (116) 
49.346027

>  <PEOE_VSA10>  (116) 
30.15592

>  <PEOE_VSA11>  (116) 
17.692941

>  <PEOE_VSA12>  (116) 
7.746488

>  <PEOE_VSA13>  (116) 
7.822697

>  <PEOE_VSA14>  (116) 
0.0

>  <PEOE_VSA2>  (116) 
18.007828

>  <PEOE_VSA3>  (116) 
19.809737

>  <PEOE_VSA4>  (116) 
0.0

>  <PEOE_VSA5>  (116) 
0.0

>  <PEOE_VSA6>  (116) 
0.0

>  <PEOE_VSA7>  (116) 
0.0

>  <PEOE_VSA8>  (116) 
7.746488

>  <PEOE_VSA9>  (116) 
12.934202

>  <SMR_VSA1>  (116) 
57.053088

>  <SMR_VSA10>  (116) 
40.297415

>  <SMR_VSA2>  (116) 
0.0

>  <SMR_VSA3>  (116) 
24.376837

>  <SMR_VSA4>  (116) 
0.0

>  <SMR_VSA5>  (116) 
24.5398

>  <SMR_VSA6>  (116) 
12.340549

>  <SMR_VSA7>  (116) 
12.65464

>  <SMR_VSA8>  (116) 
0.0

>  <SMR_VSA9>  (116) 
0.0

>  <SlogP_VSA1>  (116) 
30.165115

>  <SlogP_VSA10>  (116) 
5.817863

>  <SlogP_VSA11>  (116) 
0.0

>  <SlogP_VSA12>  (116) 
23.315674

>  <SlogP_VSA2>  (116) 
54.650871

>  <SlogP_VSA3>  (116) 
27.266386

>  <SlogP_VSA4>  (116) 
0.0

>  <SlogP_VSA5>  (116) 
6.227901

>  <SlogP_VSA6>  (116) 
12.65464

>  <SlogP_VSA7>  (116) 
0.0

>  <SlogP_VSA8>  (116) 
11.163878

>  <SlogP_VSA9>  (116) 
0.0

>  <EState_VSA1>  (116) 
54.462356

>  <EState_VSA10>  (116) 
43.481846

>  <EState_VSA11>  (116) 
0.0

>  <EState_VSA2>  (116) 
16.981741

>  <EState_VSA3>  (116) 
4.857802

>  <EState_VSA4>  (116) 
6.32732

>  <EState_VSA5>  (116) 
10.89442

>  <EState_VSA6>  (116) 
0.0

>  <EState_VSA7>  (116) 
0.0

>  <EState_VSA8>  (116) 
23.786314

>  <EState_VSA9>  (116) 
10.47053

>  <VSA_EState1>  (116) 
47.639432

>  <VSA_EState10>  (116) 
0.0

>  <VSA_EState2>  (116) 
55.77868

>  <VSA_EState3>  (116) 
20.343175

>  <VSA_EState4>  (116) 
5.942789

>  <VSA_EState5>  (116) 
0.025434

>  <VSA_EState6>  (116) 
0.0

>  <VSA_EState7>  (116) 
-3.918472

>  <VSA_EState8>  (116) 
-1.049933

>  <VSA_EState9>  (116) 
-17.511105

>  <FractionCSP3>  (116) 
0.5

>  <HeavyAtomCount>  (116) 
31

>  <NHOHCount>  (116) 
5

>  <NOCount>  (116) 
18

>  <NumAliphaticCarbocycles>  (116) 
0

>  <NumAliphaticHeterocycles>  (116) 
1

>  <NumAliphaticRings>  (116) 
1

>  <NumAromaticCarbocycles>  (116) 
0

>  <NumAromaticHeterocycles>  (116) 
2

>  <NumAromaticRings>  (116) 
2

>  <NumHAcceptors>  (116) 
17

>  <NumHDonors>  (116) 
4

>  <NumHeteroatoms>  (116) 
21

>  <NumRotatableBonds>  (116) 
8

>  <NumSaturatedCarbocycles>  (116) 
0

>  <NumSaturatedHeterocycles>  (116) 
1

>  <NumSaturatedRings>  (116) 
1

>  <RingCount>  (116) 
3

>  <MolLogP>  (116) 
-4.584

>  <MolMR>  (116) 
88.6512

>  <fr_Al_COO>  (116) 
0

>  <fr_Al_OH>  (116) 
2

>  <fr_Al_OH_noTert>  (116) 
2

>  <fr_ArN>  (116) 
1

>  <fr_Ar_COO>  (116) 
0

>  <fr_Ar_N>  (116) 
4

>  <fr_Ar_NH>  (116) 
0

>  <fr_Ar_OH>  (116) 
0

>  <fr_COO>  (116) 
0

>  <fr_COO2>  (116) 
0

>  <fr_C_O>  (116) 
0

>  <fr_C_O_noCOO>  (116) 
0

>  <fr_C_S>  (116) 
0

>  <fr_HOCCN>  (116) 
0

>  <fr_Imine>  (116) 
0

>  <fr_NH0>  (116) 
4

>  <fr_NH1>  (116) 
1

>  <fr_NH2>  (116) 
1

>  <fr_N_O>  (116) 
0

>  <fr_Ndealkylation1>  (116) 
0

>  <fr_Ndealkylation2>  (116) 
0

>  <fr_Nhpyrrole>  (116) 
0

>  <fr_SH>  (116) 
0

>  <fr_aldehyde>  (116) 
0

>  <fr_alkyl_carbamate>  (116) 
0

>  <fr_alkyl_halide>  (116) 
0

>  <fr_allylic_oxid>  (116) 
0

>  <fr_amide>  (116) 
0

>  <fr_amidine>  (116) 
0

>  <fr_aniline>  (116) 
1

>  <fr_aryl_methyl>  (116) 
0

>  <fr_azide>  (116) 
0

>  <fr_azo>  (116) 
0

>  <fr_barbitur>  (116) 
0

>  <fr_benzene>  (116) 
0

>  <fr_benzodiazepine>  (116) 
0

>  <fr_bicyclic>  (116) 
1

>  <fr_diazo>  (116) 
0

>  <fr_dihydropyridine>  (116) 
0

>  <fr_epoxide>  (116) 
0

>  <fr_ester>  (116) 
0

>  <fr_ether>  (116) 
1

>  <fr_furan>  (116) 
0

>  <fr_guanido>  (116) 
0

>  <fr_halogen>  (116) 
0

>  <fr_hdrzine>  (116) 
0

>  <fr_hdrzone>  (116) 
0

>  <fr_imidazole>  (116) 
1

>  <fr_imide>  (116) 
0

>  <fr_isocyan>  (116) 
0

>  <fr_isothiocyan>  (116) 
0

>  <fr_ketone>  (116) 
0

>  <fr_ketone_Topliss>  (116) 
0

>  <fr_lactam>  (116) 
0

>  <fr_lactone>  (116) 
0

>  <fr_methoxy>  (116) 
0

>  <fr_morpholine>  (116) 
0

>  <fr_nitrile>  (116) 
0

>  <fr_nitro>  (116) 
0

>  <fr_nitro_arom>  (116) 
0

>  <fr_nitro_arom_nonortho>  (116) 
0

>  <fr_nitroso>  (116) 
0

>  <fr_oxazole>  (116) 
0

>  <fr_oxime>  (116) 
0

>  <fr_para_hydroxylation>  (116) 
0

>  <fr_phenol>  (116) 
0

>  <fr_phenol_noOrthoHbond>  (116) 
0

>  <fr_phos_acid>  (116) 
1

>  <fr_phos_ester>  (116) 
1

>  <fr_piperdine>  (116) 
0

>  <fr_piperzine>  (116) 
0

>  <fr_priamide>  (116) 
0

>  <fr_prisulfonamd>  (116) 
0

>  <fr_pyridine>  (116) 
0

>  <fr_quatN>  (116) 
0

>  <fr_sulfide>  (116) 
0

>  <fr_sulfonamd>  (116) 
0

>  <fr_sulfone>  (116) 
0

>  <fr_term_acetylene>  (116) 
0

>  <fr_tetrazole>  (116) 
0

>  <fr_thiazole>  (116) 
0

>  <fr_thiocyan>  (116) 
0

>  <fr_thiophene>  (116) 
0

>  <fr_unbrch_alkane>  (116) 
0

>  <fr_urea>  (116) 
0

>  <NP_Likeness>  (116) 
0.781644

$$$$
ANP
     RDKit          3D

  0  0  0  0  0  0  0  0  0  0999 V3000
M  V30 BEGIN CTAB
M  V30 COUNTS 44 46 0 0 0
M  V30 BEGIN ATOM
M  V30 1 P 2.828000 -13.773000 25.970000 0 CFG=1
M  V30 2 P -0.031000 -16.421000 24.006000 0
M  V30 3 P 2.261000 -16.375000 25.554000 0 CFG=1
M  V30 4 O 4.184000 -13.197000 25.820000 0
M  V30 5 O 1.982000 -13.776000 24.695000 0 CHG=-1
M  V30 6 O -0.285000 -15.107000 23.338000 0
M  V30 7 O 0.996000 -17.260000 23.152000 0 CHG=-1
M  V30 8 O -1.385000 -17.222000 24.157000 0 CHG=-1
M  V30 9 O 2.803000 -16.266000 24.166000 0
M  V30 10 O 2.609000 -17.773000 26.136000 0 CHG=-1
M  V30 11 O 0.110000 -9.266000 29.634000 0
M  V30 12 O -0.077000 -10.974000 27.536000 0
M  V30 13 O 2.894000 -15.275000 26.451000 0
M  V30 14 O 2.040000 -12.981000 27.083000 0
M  V30 15 O 2.494000 -11.155000 30.016000 0
M  V30 16 N 7.725000 -7.120000 28.440000 0
M  V30 17 N 0.600000 -16.158000 25.553000 0
M  V30 18 N 6.219000 -6.231000 29.949000 0
M  V30 19 N 4.116000 -7.266000 30.509000 0
M  V30 20 N 5.679000 -9.409000 28.114000 0
M  V30 21 N 3.770000 -9.344000 29.297000 0
M  V30 22 C 2.324000 -13.009000 28.489000 0
M  V30 23 C 5.051000 -6.316000 30.593000 0
M  V30 24 C 4.546000 -10.010000 28.385000 0
M  V30 25 C 1.297000 -9.460000 28.877000 0 CFG=2
M  V30 26 C 1.228000 -10.747000 28.057000 0 CFG=1
M  V30 27 C 2.468000 -9.754000 29.815000 0 CFG=1
M  V30 28 C 6.556000 -7.210000 29.080000 0
M  V30 29 C 1.618000 -11.814000 29.077000 0 CFG=2
M  V30 30 C 4.475000 -8.221000 29.643000 0
M  V30 31 C 5.648000 -8.271000 28.905000 0
M  V30 32 H -0.663800 -9.676300 29.151500 0
M  V30 33 H -0.337000 -10.211000 26.944200 0
M  V30 34 H 7.996500 -7.831800 27.792300 0
M  V30 35 H 8.328600 -6.340800 28.608600 0
M  V30 36 H 0.183400 -16.804100 26.192500 0
M  V30 37 H 3.309400 -12.943000 28.646200 0
M  V30 38 H 1.977200 -13.853500 28.897200 0
M  V30 39 H 4.849800 -5.566400 31.223500 0
M  V30 40 H 4.273000 -10.875300 27.964600 0
M  V30 41 H 1.488700 -8.669700 28.295100 0
M  V30 42 H 1.896500 -10.719100 27.313800 0
M  V30 43 H 2.307000 -9.300500 30.691600 0
M  V30 44 H 0.797000 -12.122900 29.557100 0
M  V30 END ATOM
M  V30 BEGIN BOND
M  V30 1 2 1 4
M  V30 2 1 1 5 CFG=3
M  V30 3 1 1 13
M  V30 4 1 1 14
M  V30 5 2 2 6
M  V30 6 1 2 7
M  V30 7 1 2 8
M  V30 8 1 2 17
M  V30 9 2 3 9
M  V30 10 1 3 10 CFG=1
M  V30 11 1 3 13
M  V30 12 1 3 17
M  V30 13 1 11 25
M  V30 14 1 12 26
M  V30 15 1 14 22
M  V30 16 1 15 27
M  V30 17 1 15 29
M  V30 18 1 16 28
M  V30 19 2 18 23
M  V30 20 1 18 28
M  V30 21 1 19 23
M  V30 22 2 19 30
M  V30 23 2 20 24
M  V30 24 1 20 31
M  V30 25 1 21 24
M  V30 26 1 21 27
M  V30 27 1 21 30
M  V30 28 1 22 29
M  V30 29 1 25 26
M  V30 30 1 25 27
M  V30 31 1 26 29
M  V30 32 2 28 31
M  V30 33 1 30 31
M  V30 34 1 29 44 CFG=1
M  V30 35 1 27 43 CFG=1
M  V30 36 1 26 42 CFG=3
M  V30 37 1 25 41 CFG=3
M  V30 38 1 11 32
M  V30 39 1 12 33
M  V30 40 1 16 34
M  V30 41 1 16 35
M  V30 42 1 17 36
M  V30 43 1 22 37
M  V30 44 1 22 38
M  V30 45 1 23 39
M  V30 46 1 24 40
M  V30 END BOND
M  V30 END CTAB
M  END
>  <Ligand_Instance>  (117) 
7E12_ANP_A_401

>  <Dataset>  (117) 
PDB

>  <PDB_ID>  (117) 
7000000000000.0

>  <Chain>  (117) 
A

>  <Resi>  (117) 
401

>  <Num_Resolved_Atoms>  (117) 
31

>  <Num_H_Atoms_ProtBoundConf>  (117) 
13

>  <Pocket>  (117) 
A

>  <Name>  (117) 
PHOSPHOAMINOPHOSPHONIC ACID-ADENYLATE ESTER

>  <Num_Not_Resolved_Atoms>  (117) 
0

>  <ATP_Site>  (117) 
True

>  <Peripheral>  (117) 
False

>  <Standardized_SMILES>  (117) 
[H]O[C@@]1([H])[C@@]([H])(O[H])[C@]([H])(N2C([H])=NC3=C2N=C([H])N=C3N([H])[H])O[C@]1([H])C([H])([H])O[P@](=O)([O-])O[P@@](=O)([O-])N([H])P(=O)([O-])[O-]

>  <2D_Mol_H>  (117) 
<rdkit.Chem.rdchem.Mol object at 0x77059d9f8820>

>  <MW>  (117) 
502.166

>  <HBA>  (117) 
17

>  <HBD>  (117) 
4

>  <LogP>  (117) 
-4.584

>  <NRB>  (117) 
11

>  <TPSA>  (117) 
293.25

>  <Num_Heavy_Atoms>  (117) 
31

>  <Ro5>  (117) 
[False, False, True, True, False, False]

>  <Ro5_Fulfilled>  (117) 
False

>  <Ro3>  (117) 
[False, False, False, True]

>  <Ro3_Fulfilled>  (117) 
False

>  <Fsp3>  (117) 
0.5

>  <Fsp3_0.42>  (117) 
True

>  <Fsp3_0.45>  (117) 
True

>  <Stereogenic_Carbons>  (117) 
4

>  <C_Atoms>  (117) 
10

>  <FCStereo>  (117) 
0.4

>  <SPS>  (117) 
882

>  <nSPS>  (117) 
28.451613

>  <PBF>  (117) 
0.793069

>  <PBF_0.6>  (117) 
True

>  <nPBF>  (117) 
0.025583

>  <nPBF_0.016>  (117) 
True

>  <PMI1>  (117) 
1671.587466

>  <PMI2>  (117) 
10013.592425

>  <PMI3>  (117) 
10874.496054

>  <NPR1>  (117) 
0.153716

>  <NPR2>  (117) 
0.920833

>  <Sum_NPR>  (117) 
1.074549

>  <Sum_NPR_1.07>  (117) 
True

>  <Sum_NPR_1.2>  (117) 
False

>  <MaxAbsEStateIndex>  (117) 
11.631022

>  <MaxEStateIndex>  (117) 
11.631022

>  <MinAbsEStateIndex>  (117) 
0.025434

>  <MinEStateIndex>  (117) 
-5.88789

>  <qed>  (117) 
0.246841

>  <MolWt>  (117) 
502.166

>  <HeavyAtomMolWt>  (117) 
489.062

>  <ExactMolWt>  (117) 
501.982624

>  <NumValenceElectrons>  (117) 
174

>  <NumRadicalElectrons>  (117) 
0

>  <MaxPartialCharge>  (117) 
0.273292

>  <MinPartialCharge>  (117) 
-0.799075

>  <MaxAbsPartialCharge>  (117) 
0.799075

>  <MinAbsPartialCharge>  (117) 
0.273292

>  <FpDensityMorgan1>  (117) 
1.16129

>  <FpDensityMorgan2>  (117) 
1.83871

>  <FpDensityMorgan3>  (117) 
2.483871

>  <BCUT2D_MWHI>  (117) 
31.287813

>  <BCUT2D_MWLOW>  (117) 
10.128388

>  <BCUT2D_CHGHI>  (117) 
2.44611

>  <BCUT2D_CHGLO>  (117) 
-2.388133

>  <BCUT2D_LOGPHI>  (117) 
2.552246

>  <BCUT2D_LOGPLOW>  (117) 
-2.341071

>  <BCUT2D_MRHI>  (117) 
7.684213

>  <BCUT2D_MRLOW>  (117) 
-0.316952

>  <AvgIpc>  (117) 
3.133568

>  <BalabanJ>  (117) 
1.689409

>  <BertzCT>  (117) 
1105.970439

>  <Chi0>  (117) 
23.18987

>  <Chi0n>  (117) 
14.855964

>  <Chi0v>  (117) 
17.539246

>  <Chi1>  (117) 
14.190889

>  <Chi1n>  (117) 
7.931778

>  <Chi1v>  (117) 
12.477689

>  <Chi2n>  (117) 
6.048811

>  <Chi2v>  (117) 
10.644506

>  <Chi3n>  (117) 
3.847795

>  <Chi3v>  (117) 
7.932617

>  <Chi4n>  (117) 
2.641158

>  <Chi4v>  (117) 
5.887109

>  <HallKierAlpha>  (117) 
-1.36

>  <Ipc>  (117) 
3947352.346056

>  <Kappa1>  (117) 
24.285736

>  <Kappa2>  (117) 
8.532213

>  <Kappa3>  (117) 
5.714341

>  <LabuteASA>  (117) 
171.593724

>  <PEOE_VSA1>  (117) 
49.346027

>  <PEOE_VSA10>  (117) 
30.15592

>  <PEOE_VSA11>  (117) 
17.692941

>  <PEOE_VSA12>  (117) 
7.746488

>  <PEOE_VSA13>  (117) 
7.822697

>  <PEOE_VSA14>  (117) 
0.0

>  <PEOE_VSA2>  (117) 
18.007828

>  <PEOE_VSA3>  (117) 
19.809737

>  <PEOE_VSA4>  (117) 
0.0

>  <PEOE_VSA5>  (117) 
0.0

>  <PEOE_VSA6>  (117) 
0.0

>  <PEOE_VSA7>  (117) 
0.0

>  <PEOE_VSA8>  (117) 
7.746488

>  <PEOE_VSA9>  (117) 
12.934202

>  <SMR_VSA1>  (117) 
57.053088

>  <SMR_VSA10>  (117) 
40.297415

>  <SMR_VSA2>  (117) 
0.0

>  <SMR_VSA3>  (117) 
24.376837

>  <SMR_VSA4>  (117) 
0.0

>  <SMR_VSA5>  (117) 
24.5398

>  <SMR_VSA6>  (117) 
12.340549

>  <SMR_VSA7>  (117) 
12.65464

>  <SMR_VSA8>  (117) 
0.0

>  <SMR_VSA9>  (117) 
0.0

>  <SlogP_VSA1>  (117) 
30.165115

>  <SlogP_VSA10>  (117) 
5.817863

>  <SlogP_VSA11>  (117) 
0.0

>  <SlogP_VSA12>  (117) 
23.315674

>  <SlogP_VSA2>  (117) 
54.650871

>  <SlogP_VSA3>  (117) 
27.266386

>  <SlogP_VSA4>  (117) 
0.0

>  <SlogP_VSA5>  (117) 
6.227901

>  <SlogP_VSA6>  (117) 
12.65464

>  <SlogP_VSA7>  (117) 
0.0

>  <SlogP_VSA8>  (117) 
11.163878

>  <SlogP_VSA9>  (117) 
0.0

>  <EState_VSA1>  (117) 
54.462356

>  <EState_VSA10>  (117) 
43.481846

>  <EState_VSA11>  (117) 
0.0

>  <EState_VSA2>  (117) 
16.981741

>  <EState_VSA3>  (117) 
4.857802

>  <EState_VSA4>  (117) 
6.32732

>  <EState_VSA5>  (117) 
10.89442

>  <EState_VSA6>  (117) 
0.0

>  <EState_VSA7>  (117) 
0.0

>  <EState_VSA8>  (117) 
23.786314

>  <EState_VSA9>  (117) 
10.47053

>  <VSA_EState1>  (117) 
47.639432

>  <VSA_EState10>  (117) 
0.0

>  <VSA_EState2>  (117) 
55.77868

>  <VSA_EState3>  (117) 
20.343175

>  <VSA_EState4>  (117) 
5.942789

>  <VSA_EState5>  (117) 
0.025434

>  <VSA_EState6>  (117) 
0.0

>  <VSA_EState7>  (117) 
-3.918472

>  <VSA_EState8>  (117) 
-1.049933

>  <VSA_EState9>  (117) 
-17.511105

>  <FractionCSP3>  (117) 
0.5

>  <HeavyAtomCount>  (117) 
31

>  <NHOHCount>  (117) 
5

>  <NOCount>  (117) 
18

>  <NumAliphaticCarbocycles>  (117) 
0

>  <NumAliphaticHeterocycles>  (117) 
1

>  <NumAliphaticRings>  (117) 
1

>  <NumAromaticCarbocycles>  (117) 
0

>  <NumAromaticHeterocycles>  (117) 
2

>  <NumAromaticRings>  (117) 
2

>  <NumHAcceptors>  (117) 
17

>  <NumHDonors>  (117) 
4

>  <NumHeteroatoms>  (117) 
21

>  <NumRotatableBonds>  (117) 
8

>  <NumSaturatedCarbocycles>  (117) 
0

>  <NumSaturatedHeterocycles>  (117) 
1

>  <NumSaturatedRings>  (117) 
1

>  <RingCount>  (117) 
3

>  <MolLogP>  (117) 
-4.584

>  <MolMR>  (117) 
88.6512

>  <fr_Al_COO>  (117) 
0

>  <fr_Al_OH>  (117) 
2

>  <fr_Al_OH_noTert>  (117) 
2

>  <fr_ArN>  (117) 
1

>  <fr_Ar_COO>  (117) 
0

>  <fr_Ar_N>  (117) 
4

>  <fr_Ar_NH>  (117) 
0

>  <fr_Ar_OH>  (117) 
0

>  <fr_COO>  (117) 
0

>  <fr_COO2>  (117) 
0

>  <fr_C_O>  (117) 
0

>  <fr_C_O_noCOO>  (117) 
0

>  <fr_C_S>  (117) 
0

>  <fr_HOCCN>  (117) 
0

>  <fr_Imine>  (117) 
0

>  <fr_NH0>  (117) 
4

>  <fr_NH1>  (117) 
1

>  <fr_NH2>  (117) 
1

>  <fr_N_O>  (117) 
0

>  <fr_Ndealkylation1>  (117) 
0

>  <fr_Ndealkylation2>  (117) 
0

>  <fr_Nhpyrrole>  (117) 
0

>  <fr_SH>  (117) 
0

>  <fr_aldehyde>  (117) 
0

>  <fr_alkyl_carbamate>  (117) 
0

>  <fr_alkyl_halide>  (117) 
0

>  <fr_allylic_oxid>  (117) 
0

>  <fr_amide>  (117) 
0

>  <fr_amidine>  (117) 
0

>  <fr_aniline>  (117) 
1

>  <fr_aryl_methyl>  (117) 
0

>  <fr_azide>  (117) 
0

>  <fr_azo>  (117) 
0

>  <fr_barbitur>  (117) 
0

>  <fr_benzene>  (117) 
0

>  <fr_benzodiazepine>  (117) 
0

>  <fr_bicyclic>  (117) 
1

>  <fr_diazo>  (117) 
0

>  <fr_dihydropyridine>  (117) 
0

>  <fr_epoxide>  (117) 
0

>  <fr_ester>  (117) 
0

>  <fr_ether>  (117) 
1

>  <fr_furan>  (117) 
0

>  <fr_guanido>  (117) 
0

>  <fr_halogen>  (117) 
0

>  <fr_hdrzine>  (117) 
0

>  <fr_hdrzone>  (117) 
0

>  <fr_imidazole>  (117) 
1

>  <fr_imide>  (117) 
0

>  <fr_isocyan>  (117) 
0

>  <fr_isothiocyan>  (117) 
0

>  <fr_ketone>  (117) 
0

>  <fr_ketone_Topliss>  (117) 
0

>  <fr_lactam>  (117) 
0

>  <fr_lactone>  (117) 
0

>  <fr_methoxy>  (117) 
0

>  <fr_morpholine>  (117) 
0

>  <fr_nitrile>  (117) 
0

>  <fr_nitro>  (117) 
0

>  <fr_nitro_arom>  (117) 
0

>  <fr_nitro_arom_nonortho>  (117) 
0

>  <fr_nitroso>  (117) 
0

>  <fr_oxazole>  (117) 
0

>  <fr_oxime>  (117) 
0

>  <fr_para_hydroxylation>  (117) 
0

>  <fr_phenol>  (117) 
0

>  <fr_phenol_noOrthoHbond>  (117) 
0

>  <fr_phos_acid>  (117) 
1

>  <fr_phos_ester>  (117) 
1

>  <fr_piperdine>  (117) 
0

>  <fr_piperzine>  (117) 
0

>  <fr_priamide>  (117) 
0

>  <fr_prisulfonamd>  (117) 
0

>  <fr_pyridine>  (117) 
0

>  <fr_quatN>  (117) 
0

>  <fr_sulfide>  (117) 
0

>  <fr_sulfonamd>  (117) 
0

>  <fr_sulfone>  (117) 
0

>  <fr_term_acetylene>  (117) 
0

>  <fr_tetrazole>  (117) 
0

>  <fr_thiazole>  (117) 
0

>  <fr_thiocyan>  (117) 
0

>  <fr_thiophene>  (117) 
0

>  <fr_unbrch_alkane>  (117) 
0

>  <fr_urea>  (117) 
0

>  <NP_Likeness>  (117) 
0.781644

$$$$
AO8
     RDKit          3D

  0  0  0  0  0  0  0  0  0  0999 V3000
M  V30 BEGIN CTAB
M  V30 COUNTS 44 46 0 0 0
M  V30 BEGIN ATOM
M  V30 1 S -27.685000 -13.903000 25.378000 0
M  V30 2 O -26.944000 -13.352000 26.471000 0
M  V30 3 O -28.948000 -14.528000 25.627000 0
M  V30 4 N -27.948000 -12.704000 24.327000 0
M  V30 5 N -27.954000 -9.860000 24.728000 0 CHG=1
M  V30 6 N -23.882000 -17.605000 26.509000 0
M  V30 7 C -26.830000 -11.863000 23.870000 0
M  V30 8 C -26.688000 -10.595000 24.685000 0
M  V30 9 C -24.700000 -16.806000 27.211000 0
M  V30 10 C -31.208000 -6.068000 23.897000 0
M  V30 11 C -29.987000 -5.778000 23.346000 0
M  V30 12 C -31.486000 -7.354000 24.326000 0
M  V30 13 C -25.928000 -15.969000 22.439000 0
M  V30 14 C -28.227000 -9.133000 23.489000 0
M  V30 15 C -23.993000 -17.587000 25.188000 0
M  V30 16 C -26.735000 -15.107000 23.168000 0
M  V30 17 C -29.033000 -6.770000 23.217000 0
M  V30 18 C -30.544000 -8.387000 24.214000 0
M  V30 19 C -25.035000 -16.788000 23.067000 0
M  V30 20 C -25.619000 -15.968000 26.651000 0
M  V30 21 C -26.654000 -15.074000 24.533000 0
M  V30 22 C -29.292000 -8.073000 23.644000 0
M  V30 23 C -24.915000 -16.782000 24.478000 0
M  V30 24 C -25.750000 -15.925000 25.244000 0
M  V30 25 H -28.348400 -13.119500 23.510300 0
M  V30 26 H -27.917800 -9.204400 25.482200 0
M  V30 27 H -26.985700 -11.614100 22.914100 0
M  V30 28 H -25.982300 -12.388400 23.943800 0
M  V30 29 H -26.415400 -10.833200 25.617200 0
M  V30 30 H -25.986400 -10.015500 24.270300 0
M  V30 31 H -24.631500 -16.826200 28.208400 0
M  V30 32 H -31.898100 -5.350200 23.989000 0
M  V30 33 H -29.786200 -4.848300 23.037200 0
M  V30 34 H -32.381000 -7.551700 24.725900 0
M  V30 35 H -26.001600 -15.990300 21.441900 0
M  V30 36 H -28.528700 -9.787800 22.796000 0
M  V30 37 H -27.381900 -8.692600 23.186000 0
M  V30 38 H -23.386100 -18.180500 24.659400 0
M  V30 39 H -27.378900 -14.507100 22.693100 0
M  V30 40 H -28.145200 -6.550900 22.812200 0
M  V30 41 H -30.752300 -9.313600 24.527100 0
M  V30 42 H -24.458800 -17.399300 22.524500 0
M  V30 43 H -26.194200 -15.389900 27.229800 0
M  V30 44 H -28.696400 -10.510700 24.887300 0
M  V30 END ATOM
M  V30 BEGIN BOND
M  V30 1 2 1 2
M  V30 2 2 1 3
M  V30 3 1 1 4
M  V30 4 1 1 21
M  V30 5 1 4 7
M  V30 6 1 5 8
M  V30 7 1 5 14
M  V30 8 2 6 9
M  V30 9 1 6 15
M  V30 10 1 7 8
M  V30 11 1 9 20
M  V30 12 2 10 11
M  V30 13 1 10 12
M  V30 14 1 11 17
M  V30 15 2 12 18
M  V30 16 1 13 16
M  V30 17 2 13 19
M  V30 18 1 14 22
M  V30 19 2 15 23
M  V30 20 2 16 21
M  V30 21 2 17 22
M  V30 22 1 18 22
M  V30 23 1 19 23
M  V30 24 2 20 24
M  V30 25 1 21 24
M  V30 26 1 23 24
M  V30 27 1 4 25
M  V30 28 1 5 26
M  V30 29 1 7 27
M  V30 30 1 7 28
M  V30 31 1 8 29
M  V30 32 1 8 30
M  V30 33 1 9 31
M  V30 34 1 10 32
M  V30 35 1 11 33
M  V30 36 1 12 34
M  V30 37 1 13 35
M  V30 38 1 14 36
M  V30 39 1 14 37
M  V30 40 1 15 38
M  V30 41 1 16 39
M  V30 42 1 17 40
M  V30 43 1 18 41
M  V30 44 1 19 42
M  V30 45 1 20 43
M  V30 46 1 5 44
M  V30 END BOND
M  V30 END CTAB
M  END
>  <Ligand_Instance>  (118) 
5OTG_AO8_A_401

>  <Dataset>  (118) 
PDB

>  <PDB_ID>  (118) 
5OTG

>  <Chain>  (118) 
A

>  <Resi>  (118) 
401

>  <Num_Resolved_Atoms>  (118) 
24

>  <Num_H_Atoms_ProtBoundConf>  (118) 
20

>  <Pocket>  (118) 
A

>  <Name>  (118) 
[2-[[2-(isoquinolin-5-ylsulfonylamino)ethylamino]methyl]phenyl]boronic acid

>  <Num_Not_Resolved_Atoms>  (118) 
3

>  <ATP_Site>  (118) 
True

>  <Peripheral>  (118) 
False

>  <Standardized_SMILES>  (118) 
[H]C1=NC([H])=C2C([H])=C([H])C([H])=C(S(=O)(=O)N([H])C([H])([H])C([H])([H])[N+]([H])([H])C([H])([H])C3=C([H])C([H])=C([H])C([H])=C3[H])C2=C1[H]

>  <2D_Mol_H>  (118) 
<rdkit.Chem.rdchem.Mol object at 0x77059d9f8900>

>  <MW>  (118) 
342.444

>  <HBA>  (118) 
3

>  <HBD>  (118) 
2

>  <LogP>  (118) 
1.2767

>  <NRB>  (118) 
7

>  <TPSA>  (118) 
75.67

>  <Num_Heavy_Atoms>  (118) 
24

>  <Ro5>  (118) 
[True, True, True, True, True, True]

>  <Ro5_Fulfilled>  (118) 
True

>  <Ro3>  (118) 
[False, True, True, True]

>  <Ro3_Fulfilled>  (118) 
True

>  <Fsp3>  (118) 
0.166667

>  <Fsp3_0.42>  (118) 
False

>  <Fsp3_0.45>  (118) 
False

>  <Stereogenic_Carbons>  (118) 
0

>  <C_Atoms>  (118) 
18

>  <FCStereo>  (118) 
0.0

>  <SPS>  (118) 
280

>  <nSPS>  (118) 
11.666667

>  <PBF>  (118) 
0.859884

>  <PBF_0.6>  (118) 
True

>  <nPBF>  (118) 
0.035829

>  <nPBF_0.016>  (118) 
True

>  <PMI1>  (118) 
710.380965

>  <PMI2>  (118) 
6438.174038

>  <PMI3>  (118) 
6609.860718

>  <NPR1>  (118) 
0.107473

>  <NPR2>  (118) 
0.974026

>  <Sum_NPR>  (118) 
1.081499

>  <Sum_NPR_1.07>  (118) 
True

>  <Sum_NPR_1.2>  (118) 
False

>  <MaxAbsEStateIndex>  (118) 
12.533888

>  <MaxEStateIndex>  (118) 
12.533888

>  <MinAbsEStateIndex>  (118) 
0.296722

>  <MinEStateIndex>  (118) 
-3.529752

>  <qed>  (118) 
0.635191

>  <MolWt>  (118) 
342.444

>  <HeavyAtomMolWt>  (118) 
322.284

>  <ExactMolWt>  (118) 
342.127074

>  <NumValenceElectrons>  (118) 
124

>  <NumRadicalElectrons>  (118) 
0

>  <MaxPartialCharge>  (118) 
0.240888

>  <MinPartialCharge>  (118) 
-0.341417

>  <MaxAbsPartialCharge>  (118) 
0.341417

>  <MinAbsPartialCharge>  (118) 
0.240888

>  <FpDensityMorgan1>  (118) 
1.0

>  <FpDensityMorgan2>  (118) 
1.833333

>  <FpDensityMorgan3>  (118) 
2.666667

>  <BCUT2D_MWHI>  (118) 
32.233271

>  <BCUT2D_MWLOW>  (118) 
10.168343

>  <BCUT2D_CHGHI>  (118) 
2.162105

>  <BCUT2D_CHGLO>  (118) 
-2.087936

>  <BCUT2D_LOGPHI>  (118) 
2.209576

>  <BCUT2D_LOGPLOW>  (118) 
-2.836516

>  <BCUT2D_MRHI>  (118) 
7.893361

>  <BCUT2D_MRLOW>  (118) 
-0.66823

>  <AvgIpc>  (118) 
2.615265

>  <BalabanJ>  (118) 
1.596062

>  <BertzCT>  (118) 
906.459895

>  <Chi0>  (118) 
16.830216

>  <Chi0n>  (118) 
13.221482

>  <Chi0v>  (118) 
14.037979

>  <Chi1>  (118) 
11.666633

>  <Chi1n>  (118) 
7.846967

>  <Chi1v>  (118) 
9.33013

>  <Chi2n>  (118) 
5.517807

>  <Chi2v>  (118) 
7.253182

>  <Chi3n>  (118) 
3.793659

>  <Chi3v>  (118) 
5.312849

>  <Chi4n>  (118) 
2.58309

>  <Chi4v>  (118) 
3.858299

>  <HallKierAlpha>  (118) 
-2.28

>  <Ipc>  (118) 
361638.801905

>  <Kappa1>  (118) 
16.573337

>  <Kappa2>  (118) 
7.526221

>  <Kappa3>  (118) 
3.970361

>  <LabuteASA>  (118) 
141.345136

>  <PEOE_VSA1>  (118) 
5.316789

>  <PEOE_VSA10>  (118) 
6.544756

>  <PEOE_VSA11>  (118) 
0.0

>  <PEOE_VSA12>  (118) 
10.023291

>  <PEOE_VSA13>  (118) 
0.0

>  <PEOE_VSA14>  (118) 
0.0

>  <PEOE_VSA2>  (118) 
4.983979

>  <PEOE_VSA3>  (118) 
13.139892

>  <PEOE_VSA4>  (118) 
0.0

>  <PEOE_VSA5>  (118) 
0.0

>  <PEOE_VSA6>  (118) 
42.464569

>  <PEOE_VSA7>  (118) 
12.132734

>  <PEOE_VSA8>  (118) 
28.729587

>  <PEOE_VSA9>  (118) 
17.984996

>  <SMR_VSA1>  (118) 
13.734586

>  <SMR_VSA10>  (118) 
20.79574

>  <SMR_VSA2>  (118) 
0.0

>  <SMR_VSA3>  (118) 
9.706073

>  <SMR_VSA4>  (118) 
0.0

>  <SMR_VSA5>  (118) 
11.44024

>  <SMR_VSA6>  (118) 
13.089513

>  <SMR_VSA7>  (118) 
72.554442

>  <SMR_VSA8>  (118) 
0.0

>  <SMR_VSA9>  (118) 
0.0

>  <SlogP_VSA1>  (118) 
10.038883

>  <SlogP_VSA10>  (118) 
0.0

>  <SlogP_VSA11>  (118) 
0.0

>  <SlogP_VSA12>  (118) 
0.0

>  <SlogP_VSA2>  (118) 
26.491288

>  <SlogP_VSA3>  (118) 
16.568048

>  <SlogP_VSA4>  (118) 
0.0

>  <SlogP_VSA5>  (118) 
5.563451

>  <SlogP_VSA6>  (118) 
71.886474

>  <SlogP_VSA7>  (118) 
0.0

>  <SlogP_VSA8>  (118) 
10.772448

>  <SlogP_VSA9>  (118) 
0.0

>  <EState_VSA1>  (118) 
10.023291

>  <EState_VSA10>  (118) 
8.417797

>  <EState_VSA11>  (118) 
0.0

>  <EState_VSA2>  (118) 
0.0

>  <EState_VSA3>  (118) 
23.371221

>  <EState_VSA4>  (118) 
11.930981

>  <EState_VSA5>  (118) 
5.563451

>  <EState_VSA6>  (118) 
30.592788

>  <EState_VSA7>  (118) 
24.265468

>  <EState_VSA8>  (118) 
27.155596

>  <EState_VSA9>  (118) 
0.0

>  <VSA_EState1>  (118) 
27.742047

>  <VSA_EState10>  (118) 
0.0

>  <VSA_EState2>  (118) 
4.327829

>  <VSA_EState3>  (118) 
3.592132

>  <VSA_EState4>  (118) 
1.223991

>  <VSA_EState5>  (118) 
0.0

>  <VSA_EState6>  (118) 
17.049933

>  <VSA_EState7>  (118) 
3.274784

>  <VSA_EState8>  (118) 
1.90237

>  <VSA_EState9>  (118) 
-3.529752

>  <FractionCSP3>  (118) 
0.166667

>  <HeavyAtomCount>  (118) 
24

>  <NHOHCount>  (118) 
3

>  <NOCount>  (118) 
5

>  <NumAliphaticCarbocycles>  (118) 
0

>  <NumAliphaticHeterocycles>  (118) 
0

>  <NumAliphaticRings>  (118) 
0

>  <NumAromaticCarbocycles>  (118) 
2

>  <NumAromaticHeterocycles>  (118) 
1

>  <NumAromaticRings>  (118) 
3

>  <NumHAcceptors>  (118) 
3

>  <NumHDonors>  (118) 
2

>  <NumHeteroatoms>  (118) 
6

>  <NumRotatableBonds>  (118) 
7

>  <NumSaturatedCarbocycles>  (118) 
0

>  <NumSaturatedHeterocycles>  (118) 
0

>  <NumSaturatedRings>  (118) 
0

>  <RingCount>  (118) 
3

>  <MolLogP>  (118) 
1.2767

>  <MolMR>  (118) 
93.8699

>  <fr_Al_COO>  (118) 
0

>  <fr_Al_OH>  (118) 
0

>  <fr_Al_OH_noTert>  (118) 
0

>  <fr_ArN>  (118) 
0

>  <fr_Ar_COO>  (118) 
0

>  <fr_Ar_N>  (118) 
1

>  <fr_Ar_NH>  (118) 
0

>  <fr_Ar_OH>  (118) 
0

>  <fr_COO>  (118) 
0

>  <fr_COO2>  (118) 
0

>  <fr_C_O>  (118) 
0

>  <fr_C_O_noCOO>  (118) 
0

>  <fr_C_S>  (118) 
0

>  <fr_HOCCN>  (118) 
0

>  <fr_Imine>  (118) 
0

>  <fr_NH0>  (118) 
1

>  <fr_NH1>  (118) 
1

>  <fr_NH2>  (118) 
1

>  <fr_N_O>  (118) 
0

>  <fr_Ndealkylation1>  (118) 
0

>  <fr_Ndealkylation2>  (118) 
0

>  <fr_Nhpyrrole>  (118) 
0

>  <fr_SH>  (118) 
0

>  <fr_aldehyde>  (118) 
0

>  <fr_alkyl_carbamate>  (118) 
0

>  <fr_alkyl_halide>  (118) 
0

>  <fr_allylic_oxid>  (118) 
0

>  <fr_amide>  (118) 
0

>  <fr_amidine>  (118) 
0

>  <fr_aniline>  (118) 
0

>  <fr_aryl_methyl>  (118) 
0

>  <fr_azide>  (118) 
0

>  <fr_azo>  (118) 
0

>  <fr_barbitur>  (118) 
0

>  <fr_benzene>  (118) 
2

>  <fr_benzodiazepine>  (118) 
0

>  <fr_bicyclic>  (118) 
1

>  <fr_diazo>  (118) 
0

>  <fr_dihydropyridine>  (118) 
0

>  <fr_epoxide>  (118) 
0

>  <fr_ester>  (118) 
0

>  <fr_ether>  (118) 
0

>  <fr_furan>  (118) 
0

>  <fr_guanido>  (118) 
0

>  <fr_halogen>  (118) 
0

>  <fr_hdrzine>  (118) 
0

>  <fr_hdrzone>  (118) 
0

>  <fr_imidazole>  (118) 
0

>  <fr_imide>  (118) 
0

>  <fr_isocyan>  (118) 
0

>  <fr_isothiocyan>  (118) 
0

>  <fr_ketone>  (118) 
0

>  <fr_ketone_Topliss>  (118) 
0

>  <fr_lactam>  (118) 
0

>  <fr_lactone>  (118) 
0

>  <fr_methoxy>  (118) 
0

>  <fr_morpholine>  (118) 
0

>  <fr_nitrile>  (118) 
0

>  <fr_nitro>  (118) 
0

>  <fr_nitro_arom>  (118) 
0

>  <fr_nitro_arom_nonortho>  (118) 
0

>  <fr_nitroso>  (118) 
0

>  <fr_oxazole>  (118) 
0

>  <fr_oxime>  (118) 
0

>  <fr_para_hydroxylation>  (118) 
0

>  <fr_phenol>  (118) 
0

>  <fr_phenol_noOrthoHbond>  (118) 
0

>  <fr_phos_acid>  (118) 
0

>  <fr_phos_ester>  (118) 
0

>  <fr_piperdine>  (118) 
0

>  <fr_piperzine>  (118) 
0

>  <fr_priamide>  (118) 
0

>  <fr_prisulfonamd>  (118) 
0

>  <fr_pyridine>  (118) 
1

>  <fr_quatN>  (118) 
1

>  <fr_sulfide>  (118) 
0

>  <fr_sulfonamd>  (118) 
1

>  <fr_sulfone>  (118) 
0

>  <fr_term_acetylene>  (118) 
0

>  <fr_tetrazole>  (118) 
0

>  <fr_thiazole>  (118) 
0

>  <fr_thiocyan>  (118) 
0

>  <fr_thiophene>  (118) 
0

>  <fr_unbrch_alkane>  (118) 
0

>  <fr_urea>  (118) 
0

>  <NP_Likeness>  (118) 
-1.113919

$$$$
AO8
     RDKit          3D

  0  0  0  0  0  0  0  0  0  0999 V3000
M  V30 BEGIN CTAB
M  V30 COUNTS 44 46 0 0 0
M  V30 BEGIN ATOM
M  V30 1 S -13.754000 -25.042000 27.437000 0
M  V30 2 O -13.209000 -26.134000 26.686000 0
M  V30 3 O -14.352000 -25.294000 28.708000 0
M  V30 4 N -12.537000 -24.008000 27.677000 0
M  V30 5 N -9.781000 -24.274000 27.634000 0 CHG=1
M  V30 6 N -17.413000 -26.218000 23.642000 0
M  V30 7 C -11.823000 -23.428000 26.536000 0
M  V30 8 C -10.466000 -24.071000 26.350000 0
M  V30 9 C -16.661000 -26.909000 24.507000 0
M  V30 10 C -5.370000 -24.003000 30.122000 0
M  V30 11 C -5.610000 -22.737000 29.656000 0
M  V30 12 C -6.315000 -24.998000 29.942000 0
M  V30 13 C -15.844000 -22.126000 25.678000 0
M  V30 14 C -9.053000 -23.095000 28.101000 0
M  V30 15 C -17.400000 -24.897000 23.735000 0
M  V30 16 C -14.979000 -22.844000 26.488000 0
M  V30 17 C -6.796000 -22.452000 29.006000 0
M  V30 18 C -7.532000 -24.749000 29.288000 0
M  V30 19 C -16.653000 -22.766000 24.784000 0
M  V30 20 C -15.855000 -26.338000 25.444000 0
M  V30 21 C -14.951000 -24.211000 26.431000 0
M  V30 22 C -7.763000 -23.438000 28.815000 0
M  V30 23 C -16.637000 -24.178000 24.677000 0
M  V30 24 C -15.806000 -24.931000 25.543000 0
M  V30 25 H -12.909500 -23.242700 28.201900 0
M  V30 26 H -9.130800 -25.026600 27.530100 0
M  V30 27 H -11.700100 -22.448100 26.693000 0
M  V30 28 H -12.365500 -23.567400 25.707600 0
M  V30 29 H -10.585800 -24.957400 25.902800 0
M  V30 30 H -9.903400 -23.479500 25.772400 0
M  V30 31 H -16.693100 -27.907500 24.462300 0
M  V30 32 H -4.511700 -24.208100 30.592300 0
M  V30 33 H -4.926600 -22.018700 29.786300 0
M  V30 34 H -6.126100 -25.917600 30.286500 0
M  V30 35 H -15.875900 -21.129000 25.749000 0
M  V30 36 H -9.640300 -22.587300 28.731300 0
M  V30 37 H -8.836700 -22.521000 27.311200 0
M  V30 38 H -17.967300 -24.376800 23.096600 0
M  V30 39 H -14.371500 -22.360300 27.118100 0
M  V30 40 H -6.962800 -21.525700 28.668000 0
M  V30 41 H -8.210300 -25.472800 29.161600 0
M  V30 42 H -17.263300 -22.232300 24.198600 0
M  V30 43 H -15.304900 -26.908100 26.054200 0
M  V30 44 H -10.464600 -24.516800 28.322300 0
M  V30 END ATOM
M  V30 BEGIN BOND
M  V30 1 2 1 2
M  V30 2 2 1 3
M  V30 3 1 1 4
M  V30 4 1 1 21
M  V30 5 1 4 7
M  V30 6 1 5 8
M  V30 7 1 5 14
M  V30 8 2 6 9
M  V30 9 1 6 15
M  V30 10 1 7 8
M  V30 11 1 9 20
M  V30 12 2 10 11
M  V30 13 1 10 12
M  V30 14 1 11 17
M  V30 15 2 12 18
M  V30 16 1 13 16
M  V30 17 2 13 19
M  V30 18 1 14 22
M  V30 19 2 15 23
M  V30 20 2 16 21
M  V30 21 2 17 22
M  V30 22 1 18 22
M  V30 23 1 19 23
M  V30 24 2 20 24
M  V30 25 1 21 24
M  V30 26 1 23 24
M  V30 27 1 4 25
M  V30 28 1 5 26
M  V30 29 1 7 27
M  V30 30 1 7 28
M  V30 31 1 8 29
M  V30 32 1 8 30
M  V30 33 1 9 31
M  V30 34 1 10 32
M  V30 35 1 11 33
M  V30 36 1 12 34
M  V30 37 1 13 35
M  V30 38 1 14 36
M  V30 39 1 14 37
M  V30 40 1 15 38
M  V30 41 1 16 39
M  V30 42 1 17 40
M  V30 43 1 18 41
M  V30 44 1 19 42
M  V30 45 1 20 43
M  V30 46 1 5 44
M  V30 END BOND
M  V30 END CTAB
M  END
>  <Ligand_Instance>  (119) 
5OUC_AO8_A_401

>  <Dataset>  (119) 
PDB

>  <PDB_ID>  (119) 
5OUC

>  <Chain>  (119) 
A

>  <Resi>  (119) 
401

>  <Num_Resolved_Atoms>  (119) 
24

>  <Num_H_Atoms_ProtBoundConf>  (119) 
20

>  <Pocket>  (119) 
A

>  <Name>  (119) 
[2-[[2-(isoquinolin-5-ylsulfonylamino)ethylamino]methyl]phenyl]boronic acid

>  <Num_Not_Resolved_Atoms>  (119) 
3

>  <ATP_Site>  (119) 
True

>  <Peripheral>  (119) 
False

>  <Standardized_SMILES>  (119) 
[H]C1=NC([H])=C2C([H])=C([H])C([H])=C(S(=O)(=O)N([H])C([H])([H])C([H])([H])[N+]([H])([H])C([H])([H])C3=C([H])C([H])=C([H])C([H])=C3[H])C2=C1[H]

>  <2D_Mol_H>  (119) 
<rdkit.Chem.rdchem.Mol object at 0x77059d9f89e0>

>  <MW>  (119) 
342.444

>  <HBA>  (119) 
3

>  <HBD>  (119) 
2

>  <LogP>  (119) 
1.2767

>  <NRB>  (119) 
7

>  <TPSA>  (119) 
75.67

>  <Num_Heavy_Atoms>  (119) 
24

>  <Ro5>  (119) 
[True, True, True, True, True, True]

>  <Ro5_Fulfilled>  (119) 
True

>  <Ro3>  (119) 
[False, True, True, True]

>  <Ro3_Fulfilled>  (119) 
True

>  <Fsp3>  (119) 
0.166667

>  <Fsp3_0.42>  (119) 
False

>  <Fsp3_0.45>  (119) 
False

>  <Stereogenic_Carbons>  (119) 
0

>  <C_Atoms>  (119) 
18

>  <FCStereo>  (119) 
0.0

>  <SPS>  (119) 
280

>  <nSPS>  (119) 
11.666667

>  <PBF>  (119) 
0.62594

>  <PBF_0.6>  (119) 
True

>  <nPBF>  (119) 
0.026081

>  <nPBF_0.016>  (119) 
True

>  <PMI1>  (119) 
718.33347

>  <PMI2>  (119) 
6424.521176

>  <PMI3>  (119) 
6712.548716

>  <NPR1>  (119) 
0.107014

>  <NPR2>  (119) 
0.957091

>  <Sum_NPR>  (119) 
1.064105

>  <Sum_NPR_1.07>  (119) 
False

>  <Sum_NPR_1.2>  (119) 
False

>  <MaxAbsEStateIndex>  (119) 
12.533888

>  <MaxEStateIndex>  (119) 
12.533888

>  <MinAbsEStateIndex>  (119) 
0.296722

>  <MinEStateIndex>  (119) 
-3.529752

>  <qed>  (119) 
0.635191

>  <MolWt>  (119) 
342.444

>  <HeavyAtomMolWt>  (119) 
322.284

>  <ExactMolWt>  (119) 
342.127074

>  <NumValenceElectrons>  (119) 
124

>  <NumRadicalElectrons>  (119) 
0

>  <MaxPartialCharge>  (119) 
0.240888

>  <MinPartialCharge>  (119) 
-0.341417

>  <MaxAbsPartialCharge>  (119) 
0.341417

>  <MinAbsPartialCharge>  (119) 
0.240888

>  <FpDensityMorgan1>  (119) 
1.0

>  <FpDensityMorgan2>  (119) 
1.833333

>  <FpDensityMorgan3>  (119) 
2.666667

>  <BCUT2D_MWHI>  (119) 
32.233271

>  <BCUT2D_MWLOW>  (119) 
10.168343

>  <BCUT2D_CHGHI>  (119) 
2.162105

>  <BCUT2D_CHGLO>  (119) 
-2.087936

>  <BCUT2D_LOGPHI>  (119) 
2.209576

>  <BCUT2D_LOGPLOW>  (119) 
-2.836516

>  <BCUT2D_MRHI>  (119) 
7.893361

>  <BCUT2D_MRLOW>  (119) 
-0.66823

>  <AvgIpc>  (119) 
2.615265

>  <BalabanJ>  (119) 
1.596062

>  <BertzCT>  (119) 
906.459895

>  <Chi0>  (119) 
16.830216

>  <Chi0n>  (119) 
13.221482

>  <Chi0v>  (119) 
14.037979

>  <Chi1>  (119) 
11.666633

>  <Chi1n>  (119) 
7.846967

>  <Chi1v>  (119) 
9.33013

>  <Chi2n>  (119) 
5.517807

>  <Chi2v>  (119) 
7.253182

>  <Chi3n>  (119) 
3.793659

>  <Chi3v>  (119) 
5.312849

>  <Chi4n>  (119) 
2.58309

>  <Chi4v>  (119) 
3.858299

>  <HallKierAlpha>  (119) 
-2.28

>  <Ipc>  (119) 
361638.801905

>  <Kappa1>  (119) 
16.573337

>  <Kappa2>  (119) 
7.526221

>  <Kappa3>  (119) 
3.970361

>  <LabuteASA>  (119) 
141.345136

>  <PEOE_VSA1>  (119) 
5.316789

>  <PEOE_VSA10>  (119) 
6.544756

>  <PEOE_VSA11>  (119) 
0.0

>  <PEOE_VSA12>  (119) 
10.023291

>  <PEOE_VSA13>  (119) 
0.0

>  <PEOE_VSA14>  (119) 
0.0

>  <PEOE_VSA2>  (119) 
4.983979

>  <PEOE_VSA3>  (119) 
13.139892

>  <PEOE_VSA4>  (119) 
0.0

>  <PEOE_VSA5>  (119) 
0.0

>  <PEOE_VSA6>  (119) 
42.464569

>  <PEOE_VSA7>  (119) 
12.132734

>  <PEOE_VSA8>  (119) 
28.729587

>  <PEOE_VSA9>  (119) 
17.984996

>  <SMR_VSA1>  (119) 
13.734586

>  <SMR_VSA10>  (119) 
20.79574

>  <SMR_VSA2>  (119) 
0.0

>  <SMR_VSA3>  (119) 
9.706073

>  <SMR_VSA4>  (119) 
0.0

>  <SMR_VSA5>  (119) 
11.44024

>  <SMR_VSA6>  (119) 
13.089513

>  <SMR_VSA7>  (119) 
72.554442

>  <SMR_VSA8>  (119) 
0.0

>  <SMR_VSA9>  (119) 
0.0

>  <SlogP_VSA1>  (119) 
10.038883

>  <SlogP_VSA10>  (119) 
0.0

>  <SlogP_VSA11>  (119) 
0.0

>  <SlogP_VSA12>  (119) 
0.0

>  <SlogP_VSA2>  (119) 
26.491288

>  <SlogP_VSA3>  (119) 
16.568048

>  <SlogP_VSA4>  (119) 
0.0

>  <SlogP_VSA5>  (119) 
5.563451

>  <SlogP_VSA6>  (119) 
71.886474

>  <SlogP_VSA7>  (119) 
0.0

>  <SlogP_VSA8>  (119) 
10.772448

>  <SlogP_VSA9>  (119) 
0.0

>  <EState_VSA1>  (119) 
10.023291

>  <EState_VSA10>  (119) 
8.417797

>  <EState_VSA11>  (119) 
0.0

>  <EState_VSA2>  (119) 
0.0

>  <EState_VSA3>  (119) 
23.371221

>  <EState_VSA4>  (119) 
11.930981

>  <EState_VSA5>  (119) 
5.563451

>  <EState_VSA6>  (119) 
30.592788

>  <EState_VSA7>  (119) 
24.265468

>  <EState_VSA8>  (119) 
27.155596

>  <EState_VSA9>  (119) 
0.0

>  <VSA_EState1>  (119) 
27.742047

>  <VSA_EState10>  (119) 
0.0

>  <VSA_EState2>  (119) 
4.327829

>  <VSA_EState3>  (119) 
3.592132

>  <VSA_EState4>  (119) 
1.223991

>  <VSA_EState5>  (119) 
0.0

>  <VSA_EState6>  (119) 
17.049933

>  <VSA_EState7>  (119) 
3.274784

>  <VSA_EState8>  (119) 
1.90237

>  <VSA_EState9>  (119) 
-3.529752

>  <FractionCSP3>  (119) 
0.166667

>  <HeavyAtomCount>  (119) 
24

>  <NHOHCount>  (119) 
3

>  <NOCount>  (119) 
5

>  <NumAliphaticCarbocycles>  (119) 
0

>  <NumAliphaticHeterocycles>  (119) 
0

>  <NumAliphaticRings>  (119) 
0

>  <NumAromaticCarbocycles>  (119) 
2

>  <NumAromaticHeterocycles>  (119) 
1

>  <NumAromaticRings>  (119) 
3

>  <NumHAcceptors>  (119) 
3

>  <NumHDonors>  (119) 
2

>  <NumHeteroatoms>  (119) 
6

>  <NumRotatableBonds>  (119) 
7

>  <NumSaturatedCarbocycles>  (119) 
0

>  <NumSaturatedHeterocycles>  (119) 
0

>  <NumSaturatedRings>  (119) 
0

>  <RingCount>  (119) 
3

>  <MolLogP>  (119) 
1.2767

>  <MolMR>  (119) 
93.8699

>  <fr_Al_COO>  (119) 
0

>  <fr_Al_OH>  (119) 
0

>  <fr_Al_OH_noTert>  (119) 
0

>  <fr_ArN>  (119) 
0

>  <fr_Ar_COO>  (119) 
0

>  <fr_Ar_N>  (119) 
1

>  <fr_Ar_NH>  (119) 
0

>  <fr_Ar_OH>  (119) 
0

>  <fr_COO>  (119) 
0

>  <fr_COO2>  (119) 
0

>  <fr_C_O>  (119) 
0

>  <fr_C_O_noCOO>  (119) 
0

>  <fr_C_S>  (119) 
0

>  <fr_HOCCN>  (119) 
0

>  <fr_Imine>  (119) 
0

>  <fr_NH0>  (119) 
1

>  <fr_NH1>  (119) 
1

>  <fr_NH2>  (119) 
1

>  <fr_N_O>  (119) 
0

>  <fr_Ndealkylation1>  (119) 
0

>  <fr_Ndealkylation2>  (119) 
0

>  <fr_Nhpyrrole>  (119) 
0

>  <fr_SH>  (119) 
0

>  <fr_aldehyde>  (119) 
0

>  <fr_alkyl_carbamate>  (119) 
0

>  <fr_alkyl_halide>  (119) 
0

>  <fr_allylic_oxid>  (119) 
0

>  <fr_amide>  (119) 
0

>  <fr_amidine>  (119) 
0

>  <fr_aniline>  (119) 
0

>  <fr_aryl_methyl>  (119) 
0

>  <fr_azide>  (119) 
0

>  <fr_azo>  (119) 
0

>  <fr_barbitur>  (119) 
0

>  <fr_benzene>  (119) 
2

>  <fr_benzodiazepine>  (119) 
0

>  <fr_bicyclic>  (119) 
1

>  <fr_diazo>  (119) 
0

>  <fr_dihydropyridine>  (119) 
0

>  <fr_epoxide>  (119) 
0

>  <fr_ester>  (119) 
0

>  <fr_ether>  (119) 
0

>  <fr_furan>  (119) 
0

>  <fr_guanido>  (119) 
0

>  <fr_halogen>  (119) 
0

>  <fr_hdrzine>  (119) 
0

>  <fr_hdrzone>  (119) 
0

>  <fr_imidazole>  (119) 
0

>  <fr_imide>  (119) 
0

>  <fr_isocyan>  (119) 
0

>  <fr_isothiocyan>  (119) 
0

>  <fr_ketone>  (119) 
0

>  <fr_ketone_Topliss>  (119) 
0

>  <fr_lactam>  (119) 
0

>  <fr_lactone>  (119) 
0

>  <fr_methoxy>  (119) 
0

>  <fr_morpholine>  (119) 
0

>  <fr_nitrile>  (119) 
0

>  <fr_nitro>  (119) 
0

>  <fr_nitro_arom>  (119) 
0

>  <fr_nitro_arom_nonortho>  (119) 
0

>  <fr_nitroso>  (119) 
0

>  <fr_oxazole>  (119) 
0

>  <fr_oxime>  (119) 
0

>  <fr_para_hydroxylation>  (119) 
0

>  <fr_phenol>  (119) 
0

>  <fr_phenol_noOrthoHbond>  (119) 
0

>  <fr_phos_acid>  (119) 
0

>  <fr_phos_ester>  (119) 
0

>  <fr_piperdine>  (119) 
0

>  <fr_piperzine>  (119) 
0

>  <fr_priamide>  (119) 
0

>  <fr_prisulfonamd>  (119) 
0

>  <fr_pyridine>  (119) 
1

>  <fr_quatN>  (119) 
1

>  <fr_sulfide>  (119) 
0

>  <fr_sulfonamd>  (119) 
1

>  <fr_sulfone>  (119) 
0

>  <fr_term_acetylene>  (119) 
0

>  <fr_tetrazole>  (119) 
0

>  <fr_thiazole>  (119) 
0

>  <fr_thiocyan>  (119) 
0

>  <fr_thiophene>  (119) 
0

>  <fr_unbrch_alkane>  (119) 
0

>  <fr_urea>  (119) 
0

>  <NP_Likeness>  (119) 
-1.113919

$$$$
AO8
     RDKit          3D

  0  0  0  0  0  0  0  0  0  0999 V3000
M  V30 BEGIN CTAB
M  V30 COUNTS 44 46 0 0 0
M  V30 BEGIN ATOM
M  V30 1 S 13.437000 -22.838000 -27.970000 0
M  V30 2 O 12.694000 -23.886000 -27.343000 0
M  V30 3 O 14.145000 -23.096000 -29.185000 0
M  V30 4 N 12.419000 -21.616000 -28.234000 0
M  V30 5 N 9.493000 -22.172000 -27.924000 0 CHG=1
M  V30 6 N 16.962000 -24.441000 -24.154000 0
M  V30 7 C 11.568000 -21.119000 -27.131000 0
M  V30 8 C 10.391000 -22.000000 -26.779000 0
M  V30 9 C 16.150000 -25.042000 -25.046000 0
M  V30 10 C 5.755000 -21.088000 -31.211000 0
M  V30 11 C 5.686000 -20.341000 -30.066000 0
M  V30 12 C 6.903000 -21.801000 -31.507000 0
M  V30 13 C 15.427000 -20.158000 -25.784000 0
M  V30 14 C 9.110000 -20.903000 -28.540000 0
M  V30 15 C 16.989000 -23.120000 -24.151000 0
M  V30 16 C 14.610000 -20.773000 -26.713000 0
M  V30 17 C 6.767000 -20.294000 -29.205000 0
M  V30 18 C 8.022000 -21.779000 -30.660000 0
M  V30 19 C 16.216000 -20.893000 -24.952000 0
M  V30 20 C 15.364000 -24.375000 -25.941000 0
M  V30 21 C 14.570000 -22.138000 -26.797000 0
M  V30 22 C 7.936000 -21.000000 -29.483000 0
M  V30 23 C 16.217000 -22.305000 -25.016000 0
M  V30 24 C 15.375000 -22.960000 -25.951000 0
M  V30 25 H 11.803600 -21.904700 -28.967400 0
M  V30 26 H 8.665100 -22.638900 -27.613300 0
M  V30 27 H 11.214700 -20.221000 -27.393300 0
M  V30 28 H 12.140200 -21.027000 -26.316100 0
M  V30 29 H 10.729300 -22.896500 -26.492900 0
M  V30 30 H 9.883100 -21.579800 -26.027000 0
M  V30 31 H 16.121400 -26.041600 -25.052700 0
M  V30 32 H 4.974000 -21.118400 -31.834800 0
M  V30 33 H 4.853900 -19.829300 -29.852200 0
M  V30 34 H 6.936400 -22.345500 -32.345100 0
M  V30 35 H 15.439200 -19.160000 -25.721600 0
M  V30 36 H 9.894900 -20.553800 -29.051900 0
M  V30 37 H 8.874300 -20.259800 -27.811500 0
M  V30 38 H 17.593200 -22.666000 -23.496100 0
M  V30 39 H 14.046400 -20.219000 -27.325700 0
M  V30 40 H 6.709100 -19.745500 -28.370800 0
M  V30 41 H 8.849500 -22.295200 -30.880800 0
M  V30 42 H 16.801600 -20.428100 -24.287900 0
M  V30 43 H 14.787000 -24.880700 -26.582300 0
M  V30 44 H 9.954800 -22.733700 -28.610500 0
M  V30 END ATOM
M  V30 BEGIN BOND
M  V30 1 2 1 2
M  V30 2 2 1 3
M  V30 3 1 1 4
M  V30 4 1 1 21
M  V30 5 1 4 7
M  V30 6 1 5 8
M  V30 7 1 5 14
M  V30 8 2 6 9
M  V30 9 1 6 15
M  V30 10 1 7 8
M  V30 11 1 9 20
M  V30 12 2 10 11
M  V30 13 1 10 12
M  V30 14 1 11 17
M  V30 15 2 12 18
M  V30 16 1 13 16
M  V30 17 2 13 19
M  V30 18 1 14 22
M  V30 19 2 15 23
M  V30 20 2 16 21
M  V30 21 2 17 22
M  V30 22 1 18 22
M  V30 23 1 19 23
M  V30 24 2 20 24
M  V30 25 1 21 24
M  V30 26 1 23 24
M  V30 27 1 4 25
M  V30 28 1 5 26
M  V30 29 1 7 27
M  V30 30 1 7 28
M  V30 31 1 8 29
M  V30 32 1 8 30
M  V30 33 1 9 31
M  V30 34 1 10 32
M  V30 35 1 11 33
M  V30 36 1 12 34
M  V30 37 1 13 35
M  V30 38 1 14 36
M  V30 39 1 14 37
M  V30 40 1 15 38
M  V30 41 1 16 39
M  V30 42 1 17 40
M  V30 43 1 18 41
M  V30 44 1 19 42
M  V30 45 1 20 43
M  V30 46 1 5 44
M  V30 END BOND
M  V30 END CTAB
M  END
>  <Ligand_Instance>  (120) 
6I2H_AO8_A_401

>  <Dataset>  (120) 
PDB

>  <PDB_ID>  (120) 
6I2H

>  <Chain>  (120) 
A

>  <Resi>  (120) 
401

>  <Num_Resolved_Atoms>  (120) 
24

>  <Num_H_Atoms_ProtBoundConf>  (120) 
20

>  <Pocket>  (120) 
A

>  <Name>  (120) 
[2-[[2-(isoquinolin-5-ylsulfonylamino)ethylamino]methyl]phenyl]boronic acid

>  <Num_Not_Resolved_Atoms>  (120) 
3

>  <ATP_Site>  (120) 
True

>  <Peripheral>  (120) 
False

>  <Standardized_SMILES>  (120) 
[H]C1=NC([H])=C2C([H])=C([H])C([H])=C(S(=O)(=O)N([H])C([H])([H])C([H])([H])[N+]([H])([H])C([H])([H])C3=C([H])C([H])=C([H])C([H])=C3[H])C2=C1[H]

>  <2D_Mol_H>  (120) 
<rdkit.Chem.rdchem.Mol object at 0x77059d9f8ac0>

>  <MW>  (120) 
342.444

>  <HBA>  (120) 
3

>  <HBD>  (120) 
2

>  <LogP>  (120) 
1.2767

>  <NRB>  (120) 
7

>  <TPSA>  (120) 
75.67

>  <Num_Heavy_Atoms>  (120) 
24

>  <Ro5>  (120) 
[True, True, True, True, True, True]

>  <Ro5_Fulfilled>  (120) 
True

>  <Ro3>  (120) 
[False, True, True, True]

>  <Ro3_Fulfilled>  (120) 
True

>  <Fsp3>  (120) 
0.166667

>  <Fsp3_0.42>  (120) 
False

>  <Fsp3_0.45>  (120) 
False

>  <Stereogenic_Carbons>  (120) 
0

>  <C_Atoms>  (120) 
18

>  <FCStereo>  (120) 
0.0

>  <SPS>  (120) 
280

>  <nSPS>  (120) 
11.666667

>  <PBF>  (120) 
0.777902

>  <PBF_0.6>  (120) 
True

>  <nPBF>  (120) 
0.032413

>  <nPBF_0.016>  (120) 
True

>  <PMI1>  (120) 
716.546853

>  <PMI2>  (120) 
6096.277903

>  <PMI3>  (120) 
6322.911886

>  <NPR1>  (120) 
0.113325

>  <NPR2>  (120) 
0.964157

>  <Sum_NPR>  (120) 
1.077482

>  <Sum_NPR_1.07>  (120) 
True

>  <Sum_NPR_1.2>  (120) 
False

>  <MaxAbsEStateIndex>  (120) 
12.533888

>  <MaxEStateIndex>  (120) 
12.533888

>  <MinAbsEStateIndex>  (120) 
0.296722

>  <MinEStateIndex>  (120) 
-3.529752

>  <qed>  (120) 
0.635191

>  <MolWt>  (120) 
342.444

>  <HeavyAtomMolWt>  (120) 
322.284

>  <ExactMolWt>  (120) 
342.127074

>  <NumValenceElectrons>  (120) 
124

>  <NumRadicalElectrons>  (120) 
0

>  <MaxPartialCharge>  (120) 
0.240888

>  <MinPartialCharge>  (120) 
-0.341417

>  <MaxAbsPartialCharge>  (120) 
0.341417

>  <MinAbsPartialCharge>  (120) 
0.240888

>  <FpDensityMorgan1>  (120) 
1.0

>  <FpDensityMorgan2>  (120) 
1.833333

>  <FpDensityMorgan3>  (120) 
2.666667

>  <BCUT2D_MWHI>  (120) 
32.233271

>  <BCUT2D_MWLOW>  (120) 
10.168343

>  <BCUT2D_CHGHI>  (120) 
2.162105

>  <BCUT2D_CHGLO>  (120) 
-2.087936

>  <BCUT2D_LOGPHI>  (120) 
2.209576

>  <BCUT2D_LOGPLOW>  (120) 
-2.836516

>  <BCUT2D_MRHI>  (120) 
7.893361

>  <BCUT2D_MRLOW>  (120) 
-0.66823

>  <AvgIpc>  (120) 
2.615265

>  <BalabanJ>  (120) 
1.596062

>  <BertzCT>  (120) 
906.459895

>  <Chi0>  (120) 
16.830216

>  <Chi0n>  (120) 
13.221482

>  <Chi0v>  (120) 
14.037979

>  <Chi1>  (120) 
11.666633

>  <Chi1n>  (120) 
7.846967

>  <Chi1v>  (120) 
9.33013

>  <Chi2n>  (120) 
5.517807

>  <Chi2v>  (120) 
7.253182

>  <Chi3n>  (120) 
3.793659

>  <Chi3v>  (120) 
5.312849

>  <Chi4n>  (120) 
2.58309

>  <Chi4v>  (120) 
3.858299

>  <HallKierAlpha>  (120) 
-2.28

>  <Ipc>  (120) 
361638.801905

>  <Kappa1>  (120) 
16.573337

>  <Kappa2>  (120) 
7.526221

>  <Kappa3>  (120) 
3.970361

>  <LabuteASA>  (120) 
141.345136

>  <PEOE_VSA1>  (120) 
5.316789

>  <PEOE_VSA10>  (120) 
6.544756

>  <PEOE_VSA11>  (120) 
0.0

>  <PEOE_VSA12>  (120) 
10.023291

>  <PEOE_VSA13>  (120) 
0.0

>  <PEOE_VSA14>  (120) 
0.0

>  <PEOE_VSA2>  (120) 
4.983979

>  <PEOE_VSA3>  (120) 
13.139892

>  <PEOE_VSA4>  (120) 
0.0

>  <PEOE_VSA5>  (120) 
0.0

>  <PEOE_VSA6>  (120) 
42.464569

>  <PEOE_VSA7>  (120) 
12.132734

>  <PEOE_VSA8>  (120) 
28.729587

>  <PEOE_VSA9>  (120) 
17.984996

>  <SMR_VSA1>  (120) 
13.734586

>  <SMR_VSA10>  (120) 
20.79574

>  <SMR_VSA2>  (120) 
0.0

>  <SMR_VSA3>  (120) 
9.706073

>  <SMR_VSA4>  (120) 
0.0

>  <SMR_VSA5>  (120) 
11.44024

>  <SMR_VSA6>  (120) 
13.089513

>  <SMR_VSA7>  (120) 
72.554442

>  <SMR_VSA8>  (120) 
0.0

>  <SMR_VSA9>  (120) 
0.0

>  <SlogP_VSA1>  (120) 
10.038883

>  <SlogP_VSA10>  (120) 
0.0

>  <SlogP_VSA11>  (120) 
0.0

>  <SlogP_VSA12>  (120) 
0.0

>  <SlogP_VSA2>  (120) 
26.491288

>  <SlogP_VSA3>  (120) 
16.568048

>  <SlogP_VSA4>  (120) 
0.0

>  <SlogP_VSA5>  (120) 
5.563451

>  <SlogP_VSA6>  (120) 
71.886474

>  <SlogP_VSA7>  (120) 
0.0

>  <SlogP_VSA8>  (120) 
10.772448

>  <SlogP_VSA9>  (120) 
0.0

>  <EState_VSA1>  (120) 
10.023291

>  <EState_VSA10>  (120) 
8.417797

>  <EState_VSA11>  (120) 
0.0

>  <EState_VSA2>  (120) 
0.0

>  <EState_VSA3>  (120) 
23.371221

>  <EState_VSA4>  (120) 
11.930981

>  <EState_VSA5>  (120) 
5.563451

>  <EState_VSA6>  (120) 
30.592788

>  <EState_VSA7>  (120) 
24.265468

>  <EState_VSA8>  (120) 
27.155596

>  <EState_VSA9>  (120) 
0.0

>  <VSA_EState1>  (120) 
27.742047

>  <VSA_EState10>  (120) 
0.0

>  <VSA_EState2>  (120) 
4.327829

>  <VSA_EState3>  (120) 
3.592132

>  <VSA_EState4>  (120) 
1.223991

>  <VSA_EState5>  (120) 
0.0

>  <VSA_EState6>  (120) 
17.049933

>  <VSA_EState7>  (120) 
3.274784

>  <VSA_EState8>  (120) 
1.90237

>  <VSA_EState9>  (120) 
-3.529752

>  <FractionCSP3>  (120) 
0.166667

>  <HeavyAtomCount>  (120) 
24

>  <NHOHCount>  (120) 
3

>  <NOCount>  (120) 
5

>  <NumAliphaticCarbocycles>  (120) 
0

>  <NumAliphaticHeterocycles>  (120) 
0

>  <NumAliphaticRings>  (120) 
0

>  <NumAromaticCarbocycles>  (120) 
2

>  <NumAromaticHeterocycles>  (120) 
1

>  <NumAromaticRings>  (120) 
3

>  <NumHAcceptors>  (120) 
3

>  <NumHDonors>  (120) 
2

>  <NumHeteroatoms>  (120) 
6

>  <NumRotatableBonds>  (120) 
7

>  <NumSaturatedCarbocycles>  (120) 
0

>  <NumSaturatedHeterocycles>  (120) 
0

>  <NumSaturatedRings>  (120) 
0

>  <RingCount>  (120) 
3

>  <MolLogP>  (120) 
1.2767

>  <MolMR>  (120) 
93.8699

>  <fr_Al_COO>  (120) 
0

>  <fr_Al_OH>  (120) 
0

>  <fr_Al_OH_noTert>  (120) 
0

>  <fr_ArN>  (120) 
0

>  <fr_Ar_COO>  (120) 
0

>  <fr_Ar_N>  (120) 
1

>  <fr_Ar_NH>  (120) 
0

>  <fr_Ar_OH>  (120) 
0

>  <fr_COO>  (120) 
0

>  <fr_COO2>  (120) 
0

>  <fr_C_O>  (120) 
0

>  <fr_C_O_noCOO>  (120) 
0

>  <fr_C_S>  (120) 
0

>  <fr_HOCCN>  (120) 
0

>  <fr_Imine>  (120) 
0

>  <fr_NH0>  (120) 
1

>  <fr_NH1>  (120) 
1

>  <fr_NH2>  (120) 
1

>  <fr_N_O>  (120) 
0

>  <fr_Ndealkylation1>  (120) 
0

>  <fr_Ndealkylation2>  (120) 
0

>  <fr_Nhpyrrole>  (120) 
0

>  <fr_SH>  (120) 
0

>  <fr_aldehyde>  (120) 
0

>  <fr_alkyl_carbamate>  (120) 
0

>  <fr_alkyl_halide>  (120) 
0

>  <fr_allylic_oxid>  (120) 
0

>  <fr_amide>  (120) 
0

>  <fr_amidine>  (120) 
0

>  <fr_aniline>  (120) 
0

>  <fr_aryl_methyl>  (120) 
0

>  <fr_azide>  (120) 
0

>  <fr_azo>  (120) 
0

>  <fr_barbitur>  (120) 
0

>  <fr_benzene>  (120) 
2

>  <fr_benzodiazepine>  (120) 
0

>  <fr_bicyclic>  (120) 
1

>  <fr_diazo>  (120) 
0

>  <fr_dihydropyridine>  (120) 
0

>  <fr_epoxide>  (120) 
0

>  <fr_ester>  (120) 
0

>  <fr_ether>  (120) 
0

>  <fr_furan>  (120) 
0

>  <fr_guanido>  (120) 
0

>  <fr_halogen>  (120) 
0

>  <fr_hdrzine>  (120) 
0

>  <fr_hdrzone>  (120) 
0

>  <fr_imidazole>  (120) 
0

>  <fr_imide>  (120) 
0

>  <fr_isocyan>  (120) 
0

>  <fr_isothiocyan>  (120) 
0

>  <fr_ketone>  (120) 
0

>  <fr_ketone_Topliss>  (120) 
0

>  <fr_lactam>  (120) 
0

>  <fr_lactone>  (120) 
0

>  <fr_methoxy>  (120) 
0

>  <fr_morpholine>  (120) 
0

>  <fr_nitrile>  (120) 
0

>  <fr_nitro>  (120) 
0

>  <fr_nitro_arom>  (120) 
0

>  <fr_nitro_arom_nonortho>  (120) 
0

>  <fr_nitroso>  (120) 
0

>  <fr_oxazole>  (120) 
0

>  <fr_oxime>  (120) 
0

>  <fr_para_hydroxylation>  (120) 
0

>  <fr_phenol>  (120) 
0

>  <fr_phenol_noOrthoHbond>  (120) 
0

>  <fr_phos_acid>  (120) 
0

>  <fr_phos_ester>  (120) 
0

>  <fr_piperdine>  (120) 
0

>  <fr_piperzine>  (120) 
0

>  <fr_priamide>  (120) 
0

>  <fr_prisulfonamd>  (120) 
0

>  <fr_pyridine>  (120) 
1

>  <fr_quatN>  (120) 
1

>  <fr_sulfide>  (120) 
0

>  <fr_sulfonamd>  (120) 
1

>  <fr_sulfone>  (120) 
0

>  <fr_term_acetylene>  (120) 
0

>  <fr_tetrazole>  (120) 
0

>  <fr_thiazole>  (120) 
0

>  <fr_thiocyan>  (120) 
0

>  <fr_thiophene>  (120) 
0

>  <fr_unbrch_alkane>  (120) 
0

>  <fr_urea>  (120) 
0

>  <NP_Likeness>  (120) 
-1.113919

$$$$
ARX
     RDKit          3D

  0  0  0  0  0  0  0  0  0  0999 V3000
M  V30 BEGIN CTAB
M  V30 COUNTS 99 101 0 0 0
M  V30 BEGIN ATOM
M  V30 1 O 35.406000 21.360000 13.500000 0
M  V30 2 O 36.726000 20.106000 6.922000 0
M  V30 3 O 29.663000 22.845000 9.492000 0
M  V30 4 O 38.571000 21.028000 10.321000 0
M  V30 5 O 29.007000 27.910000 10.137000 0
M  V30 6 O 29.964000 26.152000 11.903000 0
M  V30 7 O 29.484000 25.521000 8.344000 0
M  V30 8 N 37.473000 22.224000 13.637000 0
M  V30 9 N 40.277000 27.444000 9.282000 0 CHG=1
M  V30 10 N 40.551000 25.820000 7.754000 0
M  V30 11 N 35.959000 19.023000 15.793000 0 CHG=1
M  V30 12 N 35.153000 18.026000 13.931000 0
M  V30 13 N 22.743000 23.995000 7.609000 0
M  V30 14 N 40.001000 25.304000 9.965000 0
M  V30 15 N 37.400000 18.134000 14.202000 0
M  V30 16 N 23.171000 26.369000 7.556000 0
M  V30 17 N 31.846000 23.418000 9.594000 0
M  V30 18 N 25.355000 27.237000 7.945000 0
M  V30 19 N 25.780000 23.763000 8.272000 0
M  V30 20 N 35.827000 19.374000 8.872000 0
M  V30 21 N 36.350000 21.533000 10.437000 0
M  V30 22 N 27.096000 25.519000 8.428000 0
M  V30 23 C 24.043000 27.381000 7.662000 0
M  V30 24 C 27.027000 24.186000 8.513000 0
M  V30 25 C 38.789000 25.325000 10.768000 0
M  V30 26 C 38.024000 18.842000 13.085000 0
M  V30 27 C 32.231000 22.029000 9.672000 0
M  V30 28 C 32.440000 21.435000 8.283000 0
M  V30 29 C 38.228000 23.925000 11.012000 0
M  V30 30 C 38.034000 18.083000 11.741000 0
M  V30 31 C 33.571000 22.092000 7.487000 0
M  V30 32 C 34.094000 21.160000 6.405000 0
M  V30 33 C 34.401000 19.765000 6.955000 0
M  V30 34 C 36.707000 23.910000 11.219000 0
M  V30 35 C 36.803000 18.372000 10.875000 0
M  V30 36 C 36.322000 21.996000 12.965000 0
M  V30 37 C 40.269000 26.209000 9.007000 0
M  V30 38 C 36.153000 18.392000 14.626000 0
M  V30 39 C 35.764000 19.764000 7.601000 0
M  V30 40 C 30.539000 23.715000 9.538000 0
M  V30 41 C 37.390000 20.716000 10.189000 0
M  V30 42 C 28.328000 26.321000 8.635000 0 CFG=1
M  V30 43 C 28.391000 26.648000 10.103000 0 CFG=1
M  V30 44 C 29.282000 25.603000 10.742000 0 CFG=1
M  V30 45 C 23.581000 25.069000 7.713000 0
M  V30 46 C 30.197000 25.185000 9.559000 0 CFG=2
M  V30 47 C 25.884000 26.006000 8.128000 0
M  V30 48 C 36.113000 22.514000 11.527000 0 CFG=2
M  V30 49 C 37.035000 19.332000 9.692000 0 CFG=2
M  V30 50 C 25.013000 24.841000 8.020000 0
M  V30 51 H 29.523500 28.006000 10.987900 0
M  V30 52 H 29.405000 26.004000 12.718800 0
M  V30 53 H 38.212200 22.738500 13.202400 0
M  V30 54 H 37.585000 21.878100 14.568600 0
M  V30 55 H 40.069100 27.750800 10.210800 0
M  V30 56 H 40.491200 28.113300 8.570600 0
M  V30 57 H 40.549000 24.847800 7.519900 0
M  V30 58 H 36.743500 19.312000 16.341600 0
M  V30 59 H 35.029800 19.204700 16.114800 0
M  V30 60 H 35.294700 17.555200 13.060200 0
M  V30 61 H 23.099200 23.068900 7.733600 0
M  V30 62 H 21.773400 24.134900 7.408300 0
M  V30 63 H 40.669400 24.579600 10.133700 0
M  V30 64 H 37.926500 17.425200 14.671400 0
M  V30 65 H 32.536600 24.141100 9.582000 0
M  V30 66 H 34.972500 19.084400 9.303300 0
M  V30 67 H 35.606700 21.468500 9.771100 0
M  V30 68 H 23.697200 28.308700 7.521500 0
M  V30 69 H 27.799700 23.588300 8.726900 0
M  V30 70 H 38.098100 25.869500 10.292500 0
M  V30 71 H 38.995900 25.746500 11.650900 0
M  V30 72 H 38.972100 19.038100 13.335400 0
M  V30 73 H 37.530300 19.701100 12.950200 0
M  V30 74 H 31.511200 21.517000 10.140700 0
M  V30 75 H 33.083400 21.955500 10.189700 0
M  V30 76 H 31.590400 21.538700 7.765800 0
M  V30 77 H 32.651400 20.463000 8.385500 0
M  V30 78 H 38.663500 23.546100 11.828500 0
M  V30 79 H 38.446700 23.352900 10.221600 0
M  V30 80 H 38.065900 17.101600 11.930500 0
M  V30 81 H 38.851400 18.350800 11.230900 0
M  V30 82 H 34.318800 22.320500 8.110400 0
M  V30 83 H 33.226400 22.927700 7.059300 0
M  V30 84 H 34.931900 21.548000 6.021000 0
M  V30 85 H 33.403800 21.079600 5.685900 0
M  V30 86 H 34.387000 19.101800 6.206700 0
M  V30 87 H 33.710700 19.515800 7.634200 0
M  V30 88 H 36.275300 24.255900 10.386000 0
M  V30 89 H 36.490100 24.517000 11.983600 0
M  V30 90 H 36.099700 18.771700 11.462800 0
M  V30 91 H 36.474600 17.502400 10.506300 0
M  V30 92 H 28.315200 27.152700 8.079900 0
M  V30 93 H 27.481900 26.666500 10.519300 0
M  V30 94 H 28.726100 24.820800 11.023400 0
M  V30 95 H 31.043400 25.716200 9.597900 0
M  V30 96 H 35.126400 22.670900 11.482200 0
M  V30 97 H 37.790600 18.984200 9.136900 0
M  V30 98 H 40.763100 26.502300 7.054400 0
M  V30 99 H 34.224900 18.209000 14.255200 0
M  V30 END ATOM
M  V30 BEGIN BOND
M  V30 1 2 1 36
M  V30 2 2 2 39
M  V30 3 2 3 40
M  V30 4 2 4 41
M  V30 5 1 5 43
M  V30 6 1 6 44
M  V30 7 1 7 42
M  V30 8 1 7 46
M  V30 9 1 8 36
M  V30 10 2 9 37
M  V30 11 1 10 37
M  V30 12 2 11 38
M  V30 13 1 12 38
M  V30 14 1 13 45
M  V30 15 1 14 25
M  V30 16 1 14 37
M  V30 17 1 15 26
M  V30 18 1 15 38
M  V30 19 2 16 23
M  V30 20 1 16 45
M  V30 21 1 17 27
M  V30 22 1 17 40
M  V30 23 1 18 23
M  V30 24 2 18 47
M  V30 25 2 19 24
M  V30 26 1 19 50
M  V30 27 1 20 39
M  V30 28 1 20 49
M  V30 29 1 21 41
M  V30 30 1 21 48
M  V30 31 1 22 24
M  V30 32 1 22 42
M  V30 33 1 22 47
M  V30 34 1 25 29
M  V30 35 1 26 30
M  V30 36 1 27 28
M  V30 37 1 28 31
M  V30 38 1 29 34
M  V30 39 1 30 35
M  V30 40 1 31 32
M  V30 41 1 32 33
M  V30 42 1 33 39
M  V30 43 1 34 48
M  V30 44 1 35 49
M  V30 45 1 36 48
M  V30 46 1 40 46
M  V30 47 1 41 49
M  V30 48 1 42 43
M  V30 49 1 43 44
M  V30 50 1 44 46
M  V30 51 2 45 50
M  V30 52 1 47 50
M  V30 53 1 5 51
M  V30 54 1 6 52
M  V30 55 1 8 53
M  V30 56 1 8 54
M  V30 57 1 9 55
M  V30 58 1 9 56
M  V30 59 1 10 57
M  V30 60 1 11 58
M  V30 61 1 11 59
M  V30 62 1 12 60
M  V30 63 1 13 61
M  V30 64 1 13 62
M  V30 65 1 14 63
M  V30 66 1 15 64
M  V30 67 1 17 65
M  V30 68 1 20 66
M  V30 69 1 21 67
M  V30 70 1 23 68
M  V30 71 1 24 69
M  V30 72 1 25 70
M  V30 73 1 25 71
M  V30 74 1 26 72
M  V30 75 1 26 73
M  V30 76 1 27 74
M  V30 77 1 27 75
M  V30 78 1 28 76
M  V30 79 1 28 77
M  V30 80 1 29 78
M  V30 81 1 29 79
M  V30 82 1 30 80
M  V30 83 1 30 81
M  V30 84 1 31 82
M  V30 85 1 31 83
M  V30 86 1 32 84
M  V30 87 1 32 85
M  V30 88 1 33 86
M  V30 89 1 33 87
M  V30 90 1 34 88
M  V30 91 1 34 89
M  V30 92 1 35 90
M  V30 93 1 35 91
M  V30 94 1 42 92 CFG=3
M  V30 95 1 43 93 CFG=1
M  V30 96 1 44 94 CFG=1
M  V30 97 1 46 95 CFG=1
M  V30 98 1 48 96 CFG=1
M  V30 99 1 49 97 CFG=3
M  V30 100 1 10 98
M  V30 101 1 12 99
M  V30 END BOND
M  V30 END CTAB
M  END
>  <Ligand_Instance>  (121) 
3BWJ_ARX_A_351

>  <Dataset>  (121) 
PDB

>  <PDB_ID>  (121) 
3BWJ

>  <Chain>  (121) 
A

>  <Resi>  (121) 
351

>  <Num_Resolved_Atoms>  (121) 
50

>  <Num_H_Atoms_ProtBoundConf>  (121) 
49

>  <Pocket>  (121) 
A

>  <Name>  (121) 
(2S,3S,4R,5R)-5-(6-amino-9H-purin-9-yl)-N-(6-{[(1R)-4-carbamimidamido-1-{[(1R)-4-carbamimidamido-1-carbamoylbutyl]carbamoyl}butyl]amino}-6-oxohexyl)-3,4-dihydroxytetrahydrofuran-2-carboxamide

>  <Num_Not_Resolved_Atoms>  (121) 
0

>  <ATP_Site>  (121) 
True

>  <Peripheral>  (121) 
True

>  <Standardized_SMILES>  (121) 
[H]O[C@@]1([H])[C@@]([H])(O[H])[C@]([H])(N2C([H])=NC3=C2N=C([H])N=C3N([H])[H])O[C@]1([H])C(=O)N([H])C([H])([H])C([H])([H])C([H])([H])C([H])([H])C([H])([H])C(=O)N([H])[C@@]([H])(C(=O)N([H])[C@@]([H])(C(=O)N([H])[H])C([H])([H])C([H])([H])C([H])([H])N([H])C(N([H])[H])=[N+]([H])[H])C([H])([H])C([H])([H])C([H])([H])N([H])C(N([H])[H])=[N+]([H])[H]

>  <2D_Mol_H>  (121) 
<rdkit.Chem.rdchem.Mol object at 0x77059d9f8ba0>

>  <MW>  (121) 
707.798

>  <HBA>  (121) 
12

>  <HBD>  (121) 
13

>  <LogP>  (121) 
-7.9536

>  <NRB>  (121) 
23

>  <TPSA>  (121) 
376.98

>  <Num_Heavy_Atoms>  (121) 
50

>  <Ro5>  (121) 
[False, False, False, True, False, False]

>  <Ro5_Fulfilled>  (121) 
False

>  <Ro3>  (121) 
[False, False, False, True]

>  <Ro3_Fulfilled>  (121) 
False

>  <Fsp3>  (121) 
0.607143

>  <Fsp3_0.42>  (121) 
True

>  <Fsp3_0.45>  (121) 
True

>  <Stereogenic_Carbons>  (121) 
6

>  <C_Atoms>  (121) 
28

>  <FCStereo>  (121) 
0.214286

>  <SPS>  (121) 
982

>  <nSPS>  (121) 
19.64

>  <PBF>  (121) 
1.589776

>  <PBF_0.6>  (121) 
True

>  <nPBF>  (121) 
0.031796

>  <nPBF_0.016>  (121) 
True

>  <PMI1>  (121) 
7048.595415

>  <PMI2>  (121) 
24073.63556

>  <PMI3>  (121) 
26136.255794

>  <NPR1>  (121) 
0.269687

>  <NPR2>  (121) 
0.921082

>  <Sum_NPR>  (121) 
1.190769

>  <Sum_NPR_1.07>  (121) 
True

>  <Sum_NPR_1.2>  (121) 
False

>  <MaxAbsEStateIndex>  (121) 
13.085002

>  <MaxEStateIndex>  (121) 
13.085002

>  <MinAbsEStateIndex>  (121) 
0.016135

>  <MinEStateIndex>  (121) 
-1.517138

>  <qed>  (121) 
0.034514

>  <MolWt>  (121) 
707.798

>  <HeavyAtomMolWt>  (121) 
658.406

>  <ExactMolWt>  (121) 
707.392842

>  <NumValenceElectrons>  (121) 
276

>  <NumRadicalElectrons>  (121) 
0

>  <MaxPartialCharge>  (121) 
0.338266

>  <MinPartialCharge>  (121) 
-0.386941

>  <MaxAbsPartialCharge>  (121) 
0.386941

>  <MinAbsPartialCharge>  (121) 
0.338266

>  <FpDensityMorgan1>  (121) 
0.84

>  <FpDensityMorgan2>  (121) 
1.48

>  <FpDensityMorgan3>  (121) 
2.12

>  <BCUT2D_MWHI>  (121) 
16.559852

>  <BCUT2D_MWLOW>  (121) 
10.06752

>  <BCUT2D_CHGHI>  (121) 
2.473267

>  <BCUT2D_CHGLO>  (121) 
-2.217129

>  <BCUT2D_LOGPHI>  (121) 
2.316397

>  <BCUT2D_LOGPLOW>  (121) 
-2.553641

>  <BCUT2D_MRHI>  (121) 
5.912602

>  <BCUT2D_MRLOW>  (121) 
-0.137284

>  <AvgIpc>  (121) 
3.617646

>  <BalabanJ>  (121) 
1.429429

>  <BertzCT>  (121) 
1504.807475

>  <Chi0>  (121) 
36.793953

>  <Chi0n>  (121) 
27.585601

>  <Chi0v>  (121) 
27.585601

>  <Chi1>  (121) 
23.793509

>  <Chi1n>  (121) 
16.145857

>  <Chi1v>  (121) 
16.145857

>  <Chi2n>  (121) 
11.745419

>  <Chi2v>  (121) 
11.745419

>  <Chi3n>  (121) 
7.846824

>  <Chi3v>  (121) 
7.846824

>  <Chi4n>  (121) 
5.232756

>  <Chi4v>  (121) 
5.232756

>  <HallKierAlpha>  (121) 
-5.35

>  <Ipc>  (121) 
52531701436.525421

>  <Kappa1>  (121) 
39.09189

>  <Kappa2>  (121) 
18.99701

>  <Kappa3>  (121) 
11.374709

>  <LabuteASA>  (121) 
286.406658

>  <PEOE_VSA1>  (121) 
42.367619

>  <PEOE_VSA10>  (121) 
36.135635

>  <PEOE_VSA11>  (121) 
23.796908

>  <PEOE_VSA12>  (121) 
17.721539

>  <PEOE_VSA13>  (121) 
5.90718

>  <PEOE_VSA14>  (121) 
11.919109

>  <PEOE_VSA2>  (121) 
56.664728

>  <PEOE_VSA3>  (121) 
14.951936

>  <PEOE_VSA4>  (121) 
0.0

>  <PEOE_VSA5>  (121) 
0.0

>  <PEOE_VSA6>  (121) 
6.420822

>  <PEOE_VSA7>  (121) 
38.52493

>  <PEOE_VSA8>  (121) 
12.965578

>  <PEOE_VSA9>  (121) 
19.416833

>  <SMR_VSA1>  (121) 
44.946634

>  <SMR_VSA10>  (121) 
52.529569

>  <SMR_VSA2>  (121) 
0.0

>  <SMR_VSA3>  (121) 
46.102978

>  <SMR_VSA4>  (121) 
17.201002

>  <SMR_VSA5>  (121) 
87.990055

>  <SMR_VSA6>  (121) 
25.367937

>  <SMR_VSA7>  (121) 
12.65464

>  <SMR_VSA8>  (121) 
0.0

>  <SMR_VSA9>  (121) 
0.0

>  <SlogP_VSA1>  (121) 
60.33718

>  <SlogP_VSA10>  (121) 
5.817863

>  <SlogP_VSA11>  (121) 
0.0

>  <SlogP_VSA12>  (121) 
0.0

>  <SlogP_VSA2>  (121) 
115.309768

>  <SlogP_VSA3>  (121) 
23.915012

>  <SlogP_VSA4>  (121) 
0.0

>  <SlogP_VSA5>  (121) 
57.594474

>  <SlogP_VSA6>  (121) 
12.65464

>  <SlogP_VSA7>  (121) 
0.0

>  <SlogP_VSA8>  (121) 
11.163878

>  <SlogP_VSA9>  (121) 
0.0

>  <EState_VSA1>  (121) 
54.345021

>  <EState_VSA10>  (121) 
29.391204

>  <EState_VSA11>  (121) 
0.0

>  <EState_VSA2>  (121) 
60.615251

>  <EState_VSA3>  (121) 
45.193621

>  <EState_VSA4>  (121) 
0.0

>  <EState_VSA5>  (121) 
17.22174

>  <EState_VSA6>  (121) 
0.0

>  <EState_VSA7>  (121) 
0.0

>  <EState_VSA8>  (121) 
41.535879

>  <EState_VSA9>  (121) 
38.4901

>  <VSA_EState1>  (121) 
7.059689

>  <VSA_EState10>  (121) 
0.0

>  <VSA_EState2>  (121) 
62.680611

>  <VSA_EState3>  (121) 
45.340149

>  <VSA_EState4>  (121) 
22.626697

>  <VSA_EState5>  (121) 
-2.148315

>  <VSA_EState6>  (121) 
-1.938542

>  <VSA_EState7>  (121) 
-0.049125

>  <VSA_EState8>  (121) 
0.928835

>  <VSA_EState9>  (121) 
0.0

>  <FractionCSP3>  (121) 
0.607143

>  <HeavyAtomCount>  (121) 
50

>  <NHOHCount>  (121) 
19

>  <NOCount>  (121) 
22

>  <NumAliphaticCarbocycles>  (121) 
0

>  <NumAliphaticHeterocycles>  (121) 
1

>  <NumAliphaticRings>  (121) 
1

>  <NumAromaticCarbocycles>  (121) 
0

>  <NumAromaticHeterocycles>  (121) 
2

>  <NumAromaticRings>  (121) 
2

>  <NumHAcceptors>  (121) 
12

>  <NumHDonors>  (121) 
13

>  <NumHeteroatoms>  (121) 
22

>  <NumRotatableBonds>  (121) 
20

>  <NumSaturatedCarbocycles>  (121) 
0

>  <NumSaturatedHeterocycles>  (121) 
1

>  <NumSaturatedRings>  (121) 
1

>  <RingCount>  (121) 
3

>  <MolLogP>  (121) 
-7.9536

>  <MolMR>  (121) 
176.9055

>  <fr_Al_COO>  (121) 
0

>  <fr_Al_OH>  (121) 
2

>  <fr_Al_OH_noTert>  (121) 
2

>  <fr_ArN>  (121) 
1

>  <fr_Ar_COO>  (121) 
0

>  <fr_Ar_N>  (121) 
4

>  <fr_Ar_NH>  (121) 
0

>  <fr_Ar_OH>  (121) 
0

>  <fr_COO>  (121) 
0

>  <fr_COO2>  (121) 
0

>  <fr_C_O>  (121) 
4

>  <fr_C_O_noCOO>  (121) 
4

>  <fr_C_S>  (121) 
0

>  <fr_HOCCN>  (121) 
0

>  <fr_Imine>  (121) 
0

>  <fr_NH0>  (121) 
4

>  <fr_NH1>  (121) 
5

>  <fr_NH2>  (121) 
6

>  <fr_N_O>  (121) 
0

>  <fr_Ndealkylation1>  (121) 
0

>  <fr_Ndealkylation2>  (121) 
0

>  <fr_Nhpyrrole>  (121) 
0

>  <fr_SH>  (121) 
0

>  <fr_aldehyde>  (121) 
0

>  <fr_alkyl_carbamate>  (121) 
0

>  <fr_alkyl_halide>  (121) 
0

>  <fr_allylic_oxid>  (121) 
0

>  <fr_amide>  (121) 
4

>  <fr_amidine>  (121) 
0

>  <fr_aniline>  (121) 
1

>  <fr_aryl_methyl>  (121) 
0

>  <fr_azide>  (121) 
0

>  <fr_azo>  (121) 
0

>  <fr_barbitur>  (121) 
0

>  <fr_benzene>  (121) 
0

>  <fr_benzodiazepine>  (121) 
0

>  <fr_bicyclic>  (121) 
1

>  <fr_diazo>  (121) 
0

>  <fr_dihydropyridine>  (121) 
0

>  <fr_epoxide>  (121) 
0

>  <fr_ester>  (121) 
0

>  <fr_ether>  (121) 
1

>  <fr_furan>  (121) 
0

>  <fr_guanido>  (121) 
2

>  <fr_halogen>  (121) 
0

>  <fr_hdrzine>  (121) 
0

>  <fr_hdrzone>  (121) 
0

>  <fr_imidazole>  (121) 
1

>  <fr_imide>  (121) 
0

>  <fr_isocyan>  (121) 
0

>  <fr_isothiocyan>  (121) 
0

>  <fr_ketone>  (121) 
0

>  <fr_ketone_Topliss>  (121) 
0

>  <fr_lactam>  (121) 
0

>  <fr_lactone>  (121) 
0

>  <fr_methoxy>  (121) 
0

>  <fr_morpholine>  (121) 
0

>  <fr_nitrile>  (121) 
0

>  <fr_nitro>  (121) 
0

>  <fr_nitro_arom>  (121) 
0

>  <fr_nitro_arom_nonortho>  (121) 
0

>  <fr_nitroso>  (121) 
0

>  <fr_oxazole>  (121) 
0

>  <fr_oxime>  (121) 
0

>  <fr_para_hydroxylation>  (121) 
0

>  <fr_phenol>  (121) 
0

>  <fr_phenol_noOrthoHbond>  (121) 
0

>  <fr_phos_acid>  (121) 
0

>  <fr_phos_ester>  (121) 
0

>  <fr_piperdine>  (121) 
0

>  <fr_piperzine>  (121) 
0

>  <fr_priamide>  (121) 
1

>  <fr_prisulfonamd>  (121) 
0

>  <fr_pyridine>  (121) 
0

>  <fr_quatN>  (121) 
0

>  <fr_sulfide>  (121) 
0

>  <fr_sulfonamd>  (121) 
0

>  <fr_sulfone>  (121) 
0

>  <fr_term_acetylene>  (121) 
0

>  <fr_tetrazole>  (121) 
0

>  <fr_thiazole>  (121) 
0

>  <fr_thiocyan>  (121) 
0

>  <fr_thiophene>  (121) 
0

>  <fr_unbrch_alkane>  (121) 
2

>  <fr_urea>  (121) 
0

>  <NP_Likeness>  (121) 
0.238602

$$$$
ARX
     RDKit          3D

  0  0  0  0  0  0  0  0  0  0999 V3000
M  V30 BEGIN CTAB
M  V30 COUNTS 99 101 0 0 0
M  V30 BEGIN ATOM
M  V30 1 O 33.548000 42.035000 30.833000 0
M  V30 2 O 34.561000 37.581000 33.146000 0
M  V30 3 O 42.492000 35.853000 31.663000 0
M  V30 4 O 31.422000 37.911000 31.866000 0
M  V30 5 O 40.789000 39.191000 27.590000 0
M  V30 6 O 42.829000 38.836000 29.214000 0
M  V30 7 O 41.898000 35.915000 28.147000 0
M  V30 8 N 31.980000 43.020000 32.112000 0
M  V30 9 N 25.149000 38.483000 29.752000 0 CHG=1
M  V30 10 N 25.976000 39.872000 31.341000 0
M  V30 11 N 35.419000 38.542000 25.075000 0 CHG=1
M  V30 12 N 33.864000 36.946000 24.759000 0
M  V30 13 N 36.047000 33.391000 25.560000 0
M  V30 14 N 27.185000 39.504000 29.420000 0
M  V30 15 N 34.920000 37.061000 26.761000 0
M  V30 16 N 37.235000 34.933000 24.178000 0
M  V30 17 N 40.764000 34.880000 30.576000 0
M  V30 18 N 39.129000 36.224000 24.983000 0
M  V30 19 N 38.052000 34.304000 27.766000 0
M  V30 20 N 34.783000 37.917000 30.977000 0
M  V30 21 N 32.489000 39.617000 30.865000 0
M  V30 22 N 39.680000 35.828000 27.341000 0
M  V30 23 C 38.243000 35.837000 24.028000 0
M  V30 24 C 39.108000 34.998000 28.259000 0
M  V30 25 C 28.148000 40.504000 29.827000 0
M  V30 26 C 34.225000 35.923000 27.305000 0
M  V30 27 C 40.044000 34.411000 31.763000 0
M  V30 28 C 38.547000 34.747000 31.745000 0
M  V30 29 C 29.426000 39.995000 30.460000 0
M  V30 30 C 34.179000 36.013000 28.800000 0
M  V30 31 C 38.108000 35.946000 32.611000 0
M  V30 32 C 37.583000 37.055000 31.716000 0
M  V30 33 C 36.767000 38.127000 32.444000 0
M  V30 34 C 30.570000 40.951000 30.171000 0
M  V30 35 C 33.216000 37.114000 29.224000 0
M  V30 36 C 32.455000 41.986000 31.399000 0
M  V30 37 C 26.084000 39.267000 30.156000 0
M  V30 38 C 34.705000 37.508000 25.522000 0
M  V30 39 C 35.282000 37.865000 32.203000 0
M  V30 40 C 41.837000 35.702000 30.640000 0
M  V30 41 C 32.349000 38.337000 31.186000 0
M  V30 42 C 40.881000 36.719000 27.520000 0 CFG=1
M  V30 43 C 40.681000 37.982000 28.378000 0 CFG=1
M  V30 44 C 41.745000 37.917000 29.457000 0 CFG=1
M  V30 45 C 37.037000 34.314000 25.368000 0
M  V30 46 C 42.282000 36.484000 29.418000 0 CFG=2
M  V30 47 C 39.022000 35.670000 26.208000 0
M  V30 48 C 31.625000 40.729000 31.256000 0 CFG=2
M  V30 49 C 33.432000 37.409000 30.699000 0 CFG=2
M  V30 50 C 37.945000 34.672000 26.484000 0
M  V30 51 H 39.931500 39.702500 27.645100 0
M  V30 52 H 42.655900 39.339200 28.367300 0
M  V30 53 H 31.088900 42.950700 32.560500 0
M  V30 54 H 32.517400 43.859300 32.194500 0
M  V30 55 H 25.226500 38.028000 28.864900 0
M  V30 56 H 24.344100 38.328000 30.324800 0
M  V30 57 H 26.701400 40.482600 31.658600 0
M  V30 58 H 36.083500 38.987500 25.675000 0
M  V30 59 H 35.289900 38.871800 24.139800 0
M  V30 60 H 33.327300 36.170500 25.091500 0
M  V30 61 H 33.736900 37.277900 23.824300 0
M  V30 62 H 35.934500 32.957100 26.453900 0
M  V30 63 H 35.435400 33.149700 24.806500 0
M  V30 64 H 27.339700 38.982300 28.581000 0
M  V30 65 H 40.447600 34.578500 29.676600 0
M  V30 66 H 35.329700 38.304900 30.234900 0
M  V30 67 H 33.274600 39.846700 30.290500 0
M  V30 68 H 38.340600 36.257400 23.125900 0
M  V30 69 H 39.433900 34.909800 29.200300 0
M  V30 70 H 27.700000 41.105300 30.488700 0
M  V30 71 H 28.400200 41.030800 29.015200 0
M  V30 72 H 34.702500 35.085700 27.038700 0
M  V30 73 H 33.291800 35.903000 26.946100 0
M  V30 74 H 40.453900 34.836100 32.570000 0
M  V30 75 H 40.144500 33.417800 31.822000 0
M  V30 76 H 38.049400 33.940900 32.065200 0
M  V30 77 H 38.289700 34.943500 30.798900 0
M  V30 78 H 29.645000 39.094400 30.084400 0
M  V30 79 H 29.298500 39.921600 31.449100 0
M  V30 80 H 35.093300 36.220200 29.147900 0
M  V30 81 H 33.869600 35.139300 29.175300 0
M  V30 82 H 38.890700 36.283000 33.134300 0
M  V30 83 H 37.386500 35.656000 33.239800 0
M  V30 84 H 37.001100 36.641800 31.015600 0
M  V30 85 H 38.364800 37.500500 31.279600 0
M  V30 86 H 37.010100 39.030900 32.092000 0
M  V30 87 H 36.960200 38.088100 33.424400 0
M  V30 88 H 30.243100 41.895700 30.198300 0
M  V30 89 H 30.958700 40.758700 29.269900 0
M  V30 90 H 32.274100 36.812800 29.075500 0
M  V30 91 H 33.390700 37.939100 28.686700 0
M  V30 92 H 41.207800 36.997000 26.616700 0
M  V30 93 H 39.777600 37.948600 28.805500 0
M  V30 94 H 41.335500 38.102600 30.350200 0
M  V30 95 H 43.280500 36.534300 29.437900 0
M  V30 96 H 31.176900 40.519300 32.125100 0
M  V30 97 H 33.330100 36.546000 31.193800 0
M  V30 98 H 25.169700 39.714600 31.911100 0
M  V30 99 H 35.589300 37.534400 27.333600 0
M  V30 END ATOM
M  V30 BEGIN BOND
M  V30 1 2 1 36
M  V30 2 2 2 39
M  V30 3 2 3 40
M  V30 4 2 4 41
M  V30 5 1 5 43
M  V30 6 1 6 44
M  V30 7 1 7 42
M  V30 8 1 7 46
M  V30 9 1 8 36
M  V30 10 2 9 37
M  V30 11 1 10 37
M  V30 12 2 11 38
M  V30 13 1 12 38
M  V30 14 1 13 45
M  V30 15 1 14 25
M  V30 16 1 14 37
M  V30 17 1 15 26
M  V30 18 1 15 38
M  V30 19 2 16 23
M  V30 20 1 16 45
M  V30 21 1 17 27
M  V30 22 1 17 40
M  V30 23 1 18 23
M  V30 24 2 18 47
M  V30 25 2 19 24
M  V30 26 1 19 50
M  V30 27 1 20 39
M  V30 28 1 20 49
M  V30 29 1 21 41
M  V30 30 1 21 48
M  V30 31 1 22 24
M  V30 32 1 22 42
M  V30 33 1 22 47
M  V30 34 1 25 29
M  V30 35 1 26 30
M  V30 36 1 27 28
M  V30 37 1 28 31
M  V30 38 1 29 34
M  V30 39 1 30 35
M  V30 40 1 31 32
M  V30 41 1 32 33
M  V30 42 1 33 39
M  V30 43 1 34 48
M  V30 44 1 35 49
M  V30 45 1 36 48
M  V30 46 1 40 46
M  V30 47 1 41 49
M  V30 48 1 42 43
M  V30 49 1 43 44
M  V30 50 1 44 46
M  V30 51 2 45 50
M  V30 52 1 47 50
M  V30 53 1 5 51
M  V30 54 1 6 52
M  V30 55 1 8 53
M  V30 56 1 8 54
M  V30 57 1 9 55
M  V30 58 1 9 56
M  V30 59 1 10 57
M  V30 60 1 11 58
M  V30 61 1 11 59
M  V30 62 1 12 60
M  V30 63 1 12 61
M  V30 64 1 13 62
M  V30 65 1 13 63
M  V30 66 1 14 64
M  V30 67 1 17 65
M  V30 68 1 20 66
M  V30 69 1 21 67
M  V30 70 1 23 68
M  V30 71 1 24 69
M  V30 72 1 25 70
M  V30 73 1 25 71
M  V30 74 1 26 72
M  V30 75 1 26 73
M  V30 76 1 27 74
M  V30 77 1 27 75
M  V30 78 1 28 76
M  V30 79 1 28 77
M  V30 80 1 29 78
M  V30 81 1 29 79
M  V30 82 1 30 80
M  V30 83 1 30 81
M  V30 84 1 31 82
M  V30 85 1 31 83
M  V30 86 1 32 84
M  V30 87 1 32 85
M  V30 88 1 33 86
M  V30 89 1 33 87
M  V30 90 1 34 88
M  V30 91 1 34 89
M  V30 92 1 35 90
M  V30 93 1 35 91
M  V30 94 1 42 92 CFG=3
M  V30 95 1 43 93 CFG=1
M  V30 96 1 44 94 CFG=1
M  V30 97 1 46 95 CFG=3
M  V30 98 1 48 96 CFG=1
M  V30 99 1 49 97 CFG=1
M  V30 100 1 10 98
M  V30 101 1 15 99
M  V30 END BOND
M  V30 END CTAB
M  END
>  <Ligand_Instance>  (122) 
3BWJ_ARX_A_352

>  <Dataset>  (122) 
PDB

>  <PDB_ID>  (122) 
3BWJ

>  <Chain>  (122) 
A

>  <Resi>  (122) 
352

>  <Num_Resolved_Atoms>  (122) 
50

>  <Num_H_Atoms_ProtBoundConf>  (122) 
49

>  <Pocket>  (122) 
G

>  <Name>  (122) 
(2S,3S,4R,5R)-5-(6-amino-9H-purin-9-yl)-N-(6-{[(1R)-4-carbamimidamido-1-{[(1R)-4-carbamimidamido-1-carbamoylbutyl]carbamoyl}butyl]amino}-6-oxohexyl)-3,4-dihydroxytetrahydrofuran-2-carboxamide

>  <Num_Not_Resolved_Atoms>  (122) 
0

>  <ATP_Site>  (122) 
True

>  <Peripheral>  (122) 
True

>  <Standardized_SMILES>  (122) 
[H]O[C@@]1([H])[C@@]([H])(O[H])[C@]([H])(N2C([H])=NC3=C2N=C([H])N=C3N([H])[H])O[C@]1([H])C(=O)N([H])C([H])([H])C([H])([H])C([H])([H])C([H])([H])C([H])([H])C(=O)N([H])[C@@]([H])(C(=O)N([H])[C@@]([H])(C(=O)N([H])[H])C([H])([H])C([H])([H])C([H])([H])N([H])C(N([H])[H])=[N+]([H])[H])C([H])([H])C([H])([H])C([H])([H])N([H])C(N([H])[H])=[N+]([H])[H]

>  <2D_Mol_H>  (122) 
<rdkit.Chem.rdchem.Mol object at 0x77059d9f8c80>

>  <MW>  (122) 
707.798

>  <HBA>  (122) 
12

>  <HBD>  (122) 
13

>  <LogP>  (122) 
-7.9536

>  <NRB>  (122) 
23

>  <TPSA>  (122) 
376.98

>  <Num_Heavy_Atoms>  (122) 
50

>  <Ro5>  (122) 
[False, False, False, True, False, False]

>  <Ro5_Fulfilled>  (122) 
False

>  <Ro3>  (122) 
[False, False, False, True]

>  <Ro3_Fulfilled>  (122) 
False

>  <Fsp3>  (122) 
0.607143

>  <Fsp3_0.42>  (122) 
True

>  <Fsp3_0.45>  (122) 
True

>  <Stereogenic_Carbons>  (122) 
6

>  <C_Atoms>  (122) 
28

>  <FCStereo>  (122) 
0.214286

>  <SPS>  (122) 
982

>  <nSPS>  (122) 
19.64

>  <PBF>  (122) 
1.486522

>  <PBF_0.6>  (122) 
True

>  <nPBF>  (122) 
0.02973

>  <nPBF_0.016>  (122) 
True

>  <PMI1>  (122) 
6325.913571

>  <PMI2>  (122) 
19018.882474

>  <PMI3>  (122) 
21671.055715

>  <NPR1>  (122) 
0.291906

>  <NPR2>  (122) 
0.877617

>  <Sum_NPR>  (122) 
1.169523

>  <Sum_NPR_1.07>  (122) 
True

>  <Sum_NPR_1.2>  (122) 
False

>  <MaxAbsEStateIndex>  (122) 
13.085002

>  <MaxEStateIndex>  (122) 
13.085002

>  <MinAbsEStateIndex>  (122) 
0.016135

>  <MinEStateIndex>  (122) 
-1.517138

>  <qed>  (122) 
0.034514

>  <MolWt>  (122) 
707.798

>  <HeavyAtomMolWt>  (122) 
658.406

>  <ExactMolWt>  (122) 
707.392842

>  <NumValenceElectrons>  (122) 
276

>  <NumRadicalElectrons>  (122) 
0

>  <MaxPartialCharge>  (122) 
0.338266

>  <MinPartialCharge>  (122) 
-0.386941

>  <MaxAbsPartialCharge>  (122) 
0.386941

>  <MinAbsPartialCharge>  (122) 
0.338266

>  <FpDensityMorgan1>  (122) 
0.84

>  <FpDensityMorgan2>  (122) 
1.48

>  <FpDensityMorgan3>  (122) 
2.12

>  <BCUT2D_MWHI>  (122) 
16.559852

>  <BCUT2D_MWLOW>  (122) 
10.06752

>  <BCUT2D_CHGHI>  (122) 
2.473267

>  <BCUT2D_CHGLO>  (122) 
-2.217129

>  <BCUT2D_LOGPHI>  (122) 
2.316397

>  <BCUT2D_LOGPLOW>  (122) 
-2.553641

>  <BCUT2D_MRHI>  (122) 
5.912602

>  <BCUT2D_MRLOW>  (122) 
-0.137284

>  <AvgIpc>  (122) 
3.617646

>  <BalabanJ>  (122) 
1.429429

>  <BertzCT>  (122) 
1504.807475

>  <Chi0>  (122) 
36.793953

>  <Chi0n>  (122) 
27.585601

>  <Chi0v>  (122) 
27.585601

>  <Chi1>  (122) 
23.793509

>  <Chi1n>  (122) 
16.145857

>  <Chi1v>  (122) 
16.145857

>  <Chi2n>  (122) 
11.745419

>  <Chi2v>  (122) 
11.745419

>  <Chi3n>  (122) 
7.846824

>  <Chi3v>  (122) 
7.846824

>  <Chi4n>  (122) 
5.232756

>  <Chi4v>  (122) 
5.232756

>  <HallKierAlpha>  (122) 
-5.35

>  <Ipc>  (122) 
52531701436.525421

>  <Kappa1>  (122) 
39.09189

>  <Kappa2>  (122) 
18.99701

>  <Kappa3>  (122) 
11.374709

>  <LabuteASA>  (122) 
286.406658

>  <PEOE_VSA1>  (122) 
42.367619

>  <PEOE_VSA10>  (122) 
36.135635

>  <PEOE_VSA11>  (122) 
23.796908

>  <PEOE_VSA12>  (122) 
17.721539

>  <PEOE_VSA13>  (122) 
5.90718

>  <PEOE_VSA14>  (122) 
11.919109

>  <PEOE_VSA2>  (122) 
56.664728

>  <PEOE_VSA3>  (122) 
14.951936

>  <PEOE_VSA4>  (122) 
0.0

>  <PEOE_VSA5>  (122) 
0.0

>  <PEOE_VSA6>  (122) 
6.420822

>  <PEOE_VSA7>  (122) 
38.52493

>  <PEOE_VSA8>  (122) 
12.965578

>  <PEOE_VSA9>  (122) 
19.416833

>  <SMR_VSA1>  (122) 
44.946634

>  <SMR_VSA10>  (122) 
52.529569

>  <SMR_VSA2>  (122) 
0.0

>  <SMR_VSA3>  (122) 
46.102978

>  <SMR_VSA4>  (122) 
17.201002

>  <SMR_VSA5>  (122) 
87.990055

>  <SMR_VSA6>  (122) 
25.367937

>  <SMR_VSA7>  (122) 
12.65464

>  <SMR_VSA8>  (122) 
0.0

>  <SMR_VSA9>  (122) 
0.0

>  <SlogP_VSA1>  (122) 
60.33718

>  <SlogP_VSA10>  (122) 
5.817863

>  <SlogP_VSA11>  (122) 
0.0

>  <SlogP_VSA12>  (122) 
0.0

>  <SlogP_VSA2>  (122) 
115.309768

>  <SlogP_VSA3>  (122) 
23.915012

>  <SlogP_VSA4>  (122) 
0.0

>  <SlogP_VSA5>  (122) 
57.594474

>  <SlogP_VSA6>  (122) 
12.65464

>  <SlogP_VSA7>  (122) 
0.0

>  <SlogP_VSA8>  (122) 
11.163878

>  <SlogP_VSA9>  (122) 
0.0

>  <EState_VSA1>  (122) 
54.345021

>  <EState_VSA10>  (122) 
29.391204

>  <EState_VSA11>  (122) 
0.0

>  <EState_VSA2>  (122) 
60.615251

>  <EState_VSA3>  (122) 
45.193621

>  <EState_VSA4>  (122) 
0.0

>  <EState_VSA5>  (122) 
17.22174

>  <EState_VSA6>  (122) 
0.0

>  <EState_VSA7>  (122) 
0.0

>  <EState_VSA8>  (122) 
41.535879

>  <EState_VSA9>  (122) 
38.4901

>  <VSA_EState1>  (122) 
7.059689

>  <VSA_EState10>  (122) 
0.0

>  <VSA_EState2>  (122) 
62.680611

>  <VSA_EState3>  (122) 
45.340149

>  <VSA_EState4>  (122) 
22.626697

>  <VSA_EState5>  (122) 
-2.148315

>  <VSA_EState6>  (122) 
-1.938542

>  <VSA_EState7>  (122) 
-0.049125

>  <VSA_EState8>  (122) 
0.928835

>  <VSA_EState9>  (122) 
0.0

>  <FractionCSP3>  (122) 
0.607143

>  <HeavyAtomCount>  (122) 
50

>  <NHOHCount>  (122) 
19

>  <NOCount>  (122) 
22

>  <NumAliphaticCarbocycles>  (122) 
0

>  <NumAliphaticHeterocycles>  (122) 
1

>  <NumAliphaticRings>  (122) 
1

>  <NumAromaticCarbocycles>  (122) 
0

>  <NumAromaticHeterocycles>  (122) 
2

>  <NumAromaticRings>  (122) 
2

>  <NumHAcceptors>  (122) 
12

>  <NumHDonors>  (122) 
13

>  <NumHeteroatoms>  (122) 
22

>  <NumRotatableBonds>  (122) 
20

>  <NumSaturatedCarbocycles>  (122) 
0

>  <NumSaturatedHeterocycles>  (122) 
1

>  <NumSaturatedRings>  (122) 
1

>  <RingCount>  (122) 
3

>  <MolLogP>  (122) 
-7.9536

>  <MolMR>  (122) 
176.9055

>  <fr_Al_COO>  (122) 
0

>  <fr_Al_OH>  (122) 
2

>  <fr_Al_OH_noTert>  (122) 
2

>  <fr_ArN>  (122) 
1

>  <fr_Ar_COO>  (122) 
0

>  <fr_Ar_N>  (122) 
4

>  <fr_Ar_NH>  (122) 
0

>  <fr_Ar_OH>  (122) 
0

>  <fr_COO>  (122) 
0

>  <fr_COO2>  (122) 
0

>  <fr_C_O>  (122) 
4

>  <fr_C_O_noCOO>  (122) 
4

>  <fr_C_S>  (122) 
0

>  <fr_HOCCN>  (122) 
0

>  <fr_Imine>  (122) 
0

>  <fr_NH0>  (122) 
4

>  <fr_NH1>  (122) 
5

>  <fr_NH2>  (122) 
6

>  <fr_N_O>  (122) 
0

>  <fr_Ndealkylation1>  (122) 
0

>  <fr_Ndealkylation2>  (122) 
0

>  <fr_Nhpyrrole>  (122) 
0

>  <fr_SH>  (122) 
0

>  <fr_aldehyde>  (122) 
0

>  <fr_alkyl_carbamate>  (122) 
0

>  <fr_alkyl_halide>  (122) 
0

>  <fr_allylic_oxid>  (122) 
0

>  <fr_amide>  (122) 
4

>  <fr_amidine>  (122) 
0

>  <fr_aniline>  (122) 
1

>  <fr_aryl_methyl>  (122) 
0

>  <fr_azide>  (122) 
0

>  <fr_azo>  (122) 
0

>  <fr_barbitur>  (122) 
0

>  <fr_benzene>  (122) 
0

>  <fr_benzodiazepine>  (122) 
0

>  <fr_bicyclic>  (122) 
1

>  <fr_diazo>  (122) 
0

>  <fr_dihydropyridine>  (122) 
0

>  <fr_epoxide>  (122) 
0

>  <fr_ester>  (122) 
0

>  <fr_ether>  (122) 
1

>  <fr_furan>  (122) 
0

>  <fr_guanido>  (122) 
2

>  <fr_halogen>  (122) 
0

>  <fr_hdrzine>  (122) 
0

>  <fr_hdrzone>  (122) 
0

>  <fr_imidazole>  (122) 
1

>  <fr_imide>  (122) 
0

>  <fr_isocyan>  (122) 
0

>  <fr_isothiocyan>  (122) 
0

>  <fr_ketone>  (122) 
0

>  <fr_ketone_Topliss>  (122) 
0

>  <fr_lactam>  (122) 
0

>  <fr_lactone>  (122) 
0

>  <fr_methoxy>  (122) 
0

>  <fr_morpholine>  (122) 
0

>  <fr_nitrile>  (122) 
0

>  <fr_nitro>  (122) 
0

>  <fr_nitro_arom>  (122) 
0

>  <fr_nitro_arom_nonortho>  (122) 
0

>  <fr_nitroso>  (122) 
0

>  <fr_oxazole>  (122) 
0

>  <fr_oxime>  (122) 
0

>  <fr_para_hydroxylation>  (122) 
0

>  <fr_phenol>  (122) 
0

>  <fr_phenol_noOrthoHbond>  (122) 
0

>  <fr_phos_acid>  (122) 
0

>  <fr_phos_ester>  (122) 
0

>  <fr_piperdine>  (122) 
0

>  <fr_piperzine>  (122) 
0

>  <fr_priamide>  (122) 
1

>  <fr_prisulfonamd>  (122) 
0

>  <fr_pyridine>  (122) 
0

>  <fr_quatN>  (122) 
0

>  <fr_sulfide>  (122) 
0

>  <fr_sulfonamd>  (122) 
0

>  <fr_sulfone>  (122) 
0

>  <fr_term_acetylene>  (122) 
0

>  <fr_tetrazole>  (122) 
0

>  <fr_thiazole>  (122) 
0

>  <fr_thiocyan>  (122) 
0

>  <fr_thiophene>  (122) 
0

>  <fr_unbrch_alkane>  (122) 
2

>  <fr_urea>  (122) 
0

>  <NP_Likeness>  (122) 
0.238602

$$$$
ATP
     RDKit          3D

  0  0  0  0  0  0  0  0  0  0999 V3000
M  V30 BEGIN CTAB
M  V30 COUNTS 43 45 0 0 0
M  V30 BEGIN ATOM
M  V30 1 P 27.691000 11.242000 32.664000 0
M  V30 2 P 26.311000 11.562000 35.306000 0 CFG=2
M  V30 3 P 23.543000 10.615000 35.104000 0 CFG=1
M  V30 4 O 29.028000 10.574000 32.878000 0
M  V30 5 O 27.035000 10.759000 31.391000 0 CHG=-1
M  V30 6 O 27.835000 12.726000 32.738000 0 CHG=-1
M  V30 7 O 25.836000 12.936000 34.973000 0
M  V30 8 O 27.370000 11.366000 36.349000 0 CHG=-1
M  V30 9 O 22.596000 11.726000 35.472000 0
M  V30 10 O 23.664000 10.233000 33.664000 0 CHG=-1
M  V30 11 O 21.664000 4.637000 34.230000 0
M  V30 12 O 23.174000 6.657000 33.044000 0
M  V30 13 O 26.702000 10.759000 33.905000 0
M  V30 14 O 24.987000 10.783000 35.823000 0
M  V30 15 O 23.023000 9.299000 35.872000 0
M  V30 16 O 21.913000 6.759000 36.418000 0
M  V30 17 N 15.430000 9.063000 36.480000 0
M  V30 18 N 15.673000 6.720000 36.568000 0
M  V30 19 N 17.756000 5.651000 36.294000 0
M  V30 20 N 18.516000 9.095000 35.951000 0
M  V30 21 N 19.657000 7.182000 35.882000 0
M  V30 22 C 23.825000 8.125000 35.830000 0
M  V30 23 C 16.435000 5.617000 36.515000 0
M  V30 24 C 19.732000 8.527000 35.787000 0
M  V30 25 C 21.172000 5.981000 34.322000 0 CFG=2
M  V30 26 C 22.280000 6.990000 34.112000 0 CFG=1
M  V30 27 C 20.768000 6.216000 35.765000 0 CFG=1
M  V30 28 C 16.202000 7.960000 36.415000 0
M  V30 29 C 22.968000 6.925000 35.470000 0 CFG=2
M  V30 30 C 18.403000 6.833000 36.116000 0
M  V30 31 C 17.640000 8.087000 36.165000 0
M  V30 32 H 22.060900 4.488600 33.324200 0
M  V30 33 H 22.662000 6.597400 32.187100 0
M  V30 34 H 15.840000 9.967800 36.364500 0
M  V30 35 H 14.447300 8.976600 36.643700 0
M  V30 36 H 24.242800 7.976900 36.726400 0
M  V30 37 H 24.542300 8.238100 35.142500 0
M  V30 38 H 15.996500 4.728000 36.646600 0
M  V30 39 H 20.575900 9.036000 35.617600 0
M  V30 40 H 20.408200 6.137200 33.695700 0
M  V30 41 H 21.893100 7.900400 33.965600 0
M  V30 42 H 20.511700 5.349000 36.192300 0
M  V30 43 H 23.544000 6.107900 35.492900 0
M  V30 END ATOM
M  V30 BEGIN BOND
M  V30 1 2 1 4
M  V30 2 1 1 5
M  V30 3 1 1 6
M  V30 4 1 1 13
M  V30 5 2 2 7
M  V30 6 1 2 8 CFG=1
M  V30 7 1 2 13
M  V30 8 1 2 14
M  V30 9 2 3 9
M  V30 10 1 3 10 CFG=3
M  V30 11 1 3 14
M  V30 12 1 3 15
M  V30 13 1 11 25
M  V30 14 1 12 26
M  V30 15 1 15 22
M  V30 16 1 16 27
M  V30 17 1 16 29
M  V30 18 1 17 28
M  V30 19 2 18 23
M  V30 20 1 18 28
M  V30 21 1 19 23
M  V30 22 2 19 30
M  V30 23 2 20 24
M  V30 24 1 20 31
M  V30 25 1 21 24
M  V30 26 1 21 27
M  V30 27 1 21 30
M  V30 28 1 22 29
M  V30 29 1 25 26
M  V30 30 1 25 27
M  V30 31 1 26 29
M  V30 32 2 28 31
M  V30 33 1 30 31
M  V30 34 1 29 43 CFG=3
M  V30 35 1 27 42 CFG=1
M  V30 36 1 26 41 CFG=3
M  V30 37 1 25 40 CFG=3
M  V30 38 1 11 32
M  V30 39 1 12 33
M  V30 40 1 17 34
M  V30 41 1 17 35
M  V30 42 1 22 36
M  V30 43 1 22 37
M  V30 44 1 23 38
M  V30 45 1 24 39
M  V30 END BOND
M  V30 END CTAB
M  END
>  <Ligand_Instance>  (123) 
3FJQ_ATP_E_403

>  <Dataset>  (123) 
PDB

>  <PDB_ID>  (123) 
3FJQ

>  <Chain>  (123) 
E

>  <Resi>  (123) 
403

>  <Num_Resolved_Atoms>  (123) 
31

>  <Num_H_Atoms_ProtBoundConf>  (123) 
12

>  <Pocket>  (123) 
A

>  <Name>  (123) 
ADENOSINE-5'-TRIPHOSPHATE

>  <Num_Not_Resolved_Atoms>  (123) 
0

>  <ATP_Site>  (123) 
True

>  <Peripheral>  (123) 
False

>  <Standardized_SMILES>  (123) 
[H]O[C@@]1([H])[C@@]([H])(O[H])[C@]([H])(N2C([H])=NC3=C2N=C([H])N=C3N([H])[H])O[C@]1([H])C([H])([H])O[P@](=O)([O-])O[P@@](=O)([O-])OP(=O)([O-])[O-]

>  <2D_Mol_H>  (123) 
<rdkit.Chem.rdchem.Mol object at 0x77059d9f8d60>

>  <MW>  (123) 
503.15

>  <HBA>  (123) 
18

>  <HBD>  (123) 
3

>  <LogP>  (123) 
-4.157

>  <NRB>  (123) 
11

>  <TPSA>  (123) 
290.45

>  <Num_Heavy_Atoms>  (123) 
31

>  <Ro5>  (123) 
[False, False, True, True, False, False]

>  <Ro5_Fulfilled>  (123) 
False

>  <Ro3>  (123) 
[False, False, True, True]

>  <Ro3_Fulfilled>  (123) 
False

>  <Fsp3>  (123) 
0.5

>  <Fsp3_0.42>  (123) 
True

>  <Fsp3_0.45>  (123) 
True

>  <Stereogenic_Carbons>  (123) 
4

>  <C_Atoms>  (123) 
10

>  <FCStereo>  (123) 
0.4

>  <SPS>  (123) 
882

>  <nSPS>  (123) 
28.451613

>  <PBF>  (123) 
0.81232

>  <PBF_0.6>  (123) 
True

>  <nPBF>  (123) 
0.026204

>  <nPBF_0.016>  (123) 
True

>  <PMI1>  (123) 
1744.483464

>  <PMI2>  (123) 
9881.773965

>  <PMI3>  (123) 
10730.834851

>  <NPR1>  (123) 
0.162567

>  <NPR2>  (123) 
0.920877

>  <Sum_NPR>  (123) 
1.083444

>  <Sum_NPR_1.07>  (123) 
True

>  <Sum_NPR_1.2>  (123) 
False

>  <MaxAbsEStateIndex>  (123) 
11.591022

>  <MaxEStateIndex>  (123) 
11.591022

>  <MinAbsEStateIndex>  (123) 
0.019517

>  <MinEStateIndex>  (123) 
-6.13789

>  <qed>  (123) 
0.28788

>  <MolWt>  (123) 
503.15

>  <HeavyAtomMolWt>  (123) 
491.054

>  <ExactMolWt>  (123) 
502.96664

>  <NumValenceElectrons>  (123) 
174

>  <NumRadicalElectrons>  (123) 
0

>  <MaxPartialCharge>  (123) 
0.277775

>  <MinPartialCharge>  (123) 
-0.789509

>  <MaxAbsPartialCharge>  (123) 
0.789509

>  <MinAbsPartialCharge>  (123) 
0.277775

>  <FpDensityMorgan1>  (123) 
1.064516

>  <FpDensityMorgan2>  (123) 
1.741935

>  <FpDensityMorgan3>  (123) 
2.387097

>  <BCUT2D_MWHI>  (123) 
31.29809

>  <BCUT2D_MWLOW>  (123) 
10.128388

>  <BCUT2D_CHGHI>  (123) 
2.446414

>  <BCUT2D_CHGLO>  (123) 
-2.372117

>  <BCUT2D_LOGPHI>  (123) 
2.601149

>  <BCUT2D_LOGPLOW>  (123) 
-2.337005

>  <BCUT2D_MRHI>  (123) 
7.643939

>  <BCUT2D_MRLOW>  (123) 
-0.338932

>  <AvgIpc>  (123) 
3.133568

>  <BalabanJ>  (123) 
1.689409

>  <BertzCT>  (123) 
1104.784407

>  <Chi0>  (123) 
23.18987

>  <Chi0n>  (123) 
14.764212

>  <Chi0v>  (123) 
17.447494

>  <Chi1>  (123) 
14.190889

>  <Chi1n>  (123) 
7.849713

>  <Chi1v>  (123) 
12.231493

>  <Chi2n>  (123) 
5.929951

>  <Chi2v>  (123) 
10.177826

>  <Chi3n>  (123) 
3.795354

>  <Chi3v>  (123) 
7.460653

>  <Chi4n>  (123) 
2.601107

>  <Chi4v>  (123) 
5.466344

>  <HallKierAlpha>  (123) 
-1.36

>  <Ipc>  (123) 
3947352.346056

>  <Kappa1>  (123) 
24.285736

>  <Kappa2>  (123) 
8.532213

>  <Kappa3>  (123) 
5.714341

>  <LabuteASA>  (123) 
171.218329

>  <PEOE_VSA1>  (123) 
49.346027

>  <PEOE_VSA10>  (123) 
30.15592

>  <PEOE_VSA11>  (123) 
17.692941

>  <PEOE_VSA12>  (123) 
0.0

>  <PEOE_VSA13>  (123) 
15.645394

>  <PEOE_VSA14>  (123) 
0.0

>  <PEOE_VSA2>  (123) 
18.007828

>  <PEOE_VSA3>  (123) 
19.262567

>  <PEOE_VSA4>  (123) 
0.0

>  <PEOE_VSA5>  (123) 
0.0

>  <PEOE_VSA6>  (123) 
0.0

>  <PEOE_VSA7>  (123) 
0.0

>  <PEOE_VSA8>  (123) 
0.0

>  <PEOE_VSA9>  (123) 
20.756899

>  <SMR_VSA1>  (123) 
61.363719

>  <SMR_VSA10>  (123) 
40.449832

>  <SMR_VSA2>  (123) 
0.0

>  <SMR_VSA3>  (123) 
19.519035

>  <SMR_VSA4>  (123) 
0.0

>  <SMR_VSA5>  (123) 
24.5398

>  <SMR_VSA6>  (123) 
12.340549

>  <SMR_VSA7>  (123) 
12.65464

>  <SMR_VSA8>  (123) 
0.0

>  <SMR_VSA9>  (123) 
0.0

>  <SlogP_VSA1>  (123) 
25.307314

>  <SlogP_VSA10>  (123) 
5.817863

>  <SlogP_VSA11>  (123) 
0.0

>  <SlogP_VSA12>  (123) 
23.468091

>  <SlogP_VSA2>  (123) 
54.650871

>  <SlogP_VSA3>  (123) 
31.577018

>  <SlogP_VSA4>  (123) 
0.0

>  <SlogP_VSA5>  (123) 
6.227901

>  <SlogP_VSA6>  (123) 
12.65464

>  <SlogP_VSA7>  (123) 
0.0

>  <SlogP_VSA8>  (123) 
11.163878

>  <SlogP_VSA9>  (123) 
0.0

>  <EState_VSA1>  (123) 
54.614774

>  <EState_VSA10>  (123) 
43.481846

>  <EState_VSA11>  (123) 
0.0

>  <EState_VSA2>  (123) 
16.981741

>  <EState_VSA3>  (123) 
0.0

>  <EState_VSA4>  (123) 
12.65464

>  <EState_VSA5>  (123) 
4.5671

>  <EState_VSA6>  (123) 
0.0

>  <EState_VSA7>  (123) 
0.0

>  <EState_VSA8>  (123) 
28.096945

>  <EState_VSA9>  (123) 
10.47053

>  <VSA_EState1>  (123) 
50.204863

>  <VSA_EState10>  (123) 
0.0

>  <VSA_EState2>  (123) 
54.927006

>  <VSA_EState3>  (123) 
20.320829

>  <VSA_EState4>  (123) 
5.922478

>  <VSA_EState5>  (123) 
0.019517

>  <VSA_EState6>  (123) 
0.0

>  <VSA_EState7>  (123) 
-3.993378

>  <VSA_EState8>  (123) 
-1.07771

>  <VSA_EState9>  (123) 
-18.073605

>  <FractionCSP3>  (123) 
0.5

>  <HeavyAtomCount>  (123) 
31

>  <NHOHCount>  (123) 
4

>  <NOCount>  (123) 
18

>  <NumAliphaticCarbocycles>  (123) 
0

>  <NumAliphaticHeterocycles>  (123) 
1

>  <NumAliphaticRings>  (123) 
1

>  <NumAromaticCarbocycles>  (123) 
0

>  <NumAromaticHeterocycles>  (123) 
2

>  <NumAromaticRings>  (123) 
2

>  <NumHAcceptors>  (123) 
18

>  <NumHDonors>  (123) 
3

>  <NumHeteroatoms>  (123) 
21

>  <NumRotatableBonds>  (123) 
8

>  <NumSaturatedCarbocycles>  (123) 
0

>  <NumSaturatedHeterocycles>  (123) 
1

>  <NumSaturatedRings>  (123) 
1

>  <RingCount>  (123) 
3

>  <MolLogP>  (123) 
-4.157

>  <MolMR>  (123) 
86.6005

>  <fr_Al_COO>  (123) 
0

>  <fr_Al_OH>  (123) 
2

>  <fr_Al_OH_noTert>  (123) 
2

>  <fr_ArN>  (123) 
1

>  <fr_Ar_COO>  (123) 
0

>  <fr_Ar_N>  (123) 
4

>  <fr_Ar_NH>  (123) 
0

>  <fr_Ar_OH>  (123) 
0

>  <fr_COO>  (123) 
0

>  <fr_COO2>  (123) 
0

>  <fr_C_O>  (123) 
0

>  <fr_C_O_noCOO>  (123) 
0

>  <fr_C_S>  (123) 
0

>  <fr_HOCCN>  (123) 
0

>  <fr_Imine>  (123) 
0

>  <fr_NH0>  (123) 
4

>  <fr_NH1>  (123) 
0

>  <fr_NH2>  (123) 
1

>  <fr_N_O>  (123) 
0

>  <fr_Ndealkylation1>  (123) 
0

>  <fr_Ndealkylation2>  (123) 
0

>  <fr_Nhpyrrole>  (123) 
0

>  <fr_SH>  (123) 
0

>  <fr_aldehyde>  (123) 
0

>  <fr_alkyl_carbamate>  (123) 
0

>  <fr_alkyl_halide>  (123) 
0

>  <fr_allylic_oxid>  (123) 
0

>  <fr_amide>  (123) 
0

>  <fr_amidine>  (123) 
0

>  <fr_aniline>  (123) 
1

>  <fr_aryl_methyl>  (123) 
0

>  <fr_azide>  (123) 
0

>  <fr_azo>  (123) 
0

>  <fr_barbitur>  (123) 
0

>  <fr_benzene>  (123) 
0

>  <fr_benzodiazepine>  (123) 
0

>  <fr_bicyclic>  (123) 
1

>  <fr_diazo>  (123) 
0

>  <fr_dihydropyridine>  (123) 
0

>  <fr_epoxide>  (123) 
0

>  <fr_ester>  (123) 
0

>  <fr_ether>  (123) 
1

>  <fr_furan>  (123) 
0

>  <fr_guanido>  (123) 
0

>  <fr_halogen>  (123) 
0

>  <fr_hdrzine>  (123) 
0

>  <fr_hdrzone>  (123) 
0

>  <fr_imidazole>  (123) 
1

>  <fr_imide>  (123) 
0

>  <fr_isocyan>  (123) 
0

>  <fr_isothiocyan>  (123) 
0

>  <fr_ketone>  (123) 
0

>  <fr_ketone_Topliss>  (123) 
0

>  <fr_lactam>  (123) 
0

>  <fr_lactone>  (123) 
0

>  <fr_methoxy>  (123) 
0

>  <fr_morpholine>  (123) 
0

>  <fr_nitrile>  (123) 
0

>  <fr_nitro>  (123) 
0

>  <fr_nitro_arom>  (123) 
0

>  <fr_nitro_arom_nonortho>  (123) 
0

>  <fr_nitroso>  (123) 
0

>  <fr_oxazole>  (123) 
0

>  <fr_oxime>  (123) 
0

>  <fr_para_hydroxylation>  (123) 
0

>  <fr_phenol>  (123) 
0

>  <fr_phenol_noOrthoHbond>  (123) 
0

>  <fr_phos_acid>  (123) 
3

>  <fr_phos_ester>  (123) 
1

>  <fr_piperdine>  (123) 
0

>  <fr_piperzine>  (123) 
0

>  <fr_priamide>  (123) 
0

>  <fr_prisulfonamd>  (123) 
0

>  <fr_pyridine>  (123) 
0

>  <fr_quatN>  (123) 
0

>  <fr_sulfide>  (123) 
0

>  <fr_sulfonamd>  (123) 
0

>  <fr_sulfone>  (123) 
0

>  <fr_term_acetylene>  (123) 
0

>  <fr_tetrazole>  (123) 
0

>  <fr_thiazole>  (123) 
0

>  <fr_thiocyan>  (123) 
0

>  <fr_thiophene>  (123) 
0

>  <fr_unbrch_alkane>  (123) 
0

>  <fr_urea>  (123) 
0

>  <NP_Likeness>  (123) 
0.811139

$$$$
ATP
     RDKit          3D

  0  0  0  0  0  0  0  0  0  0999 V3000
M  V30 BEGIN CTAB
M  V30 COUNTS 43 45 0 0 0
M  V30 BEGIN ATOM
M  V30 1 P 27.654000 28.703000 16.074000 0
M  V30 2 P 26.311000 28.413000 13.602000 0 CFG=2
M  V30 3 P 23.757000 29.497000 13.702000 0 CFG=1
M  V30 4 O 29.039000 29.306000 16.009000 0
M  V30 5 O 26.994000 29.135000 17.368000 0 CHG=-1
M  V30 6 O 27.730000 27.191000 16.022000 0 CHG=-1
M  V30 7 O 25.797000 27.060000 13.953000 0
M  V30 8 O 27.419000 28.336000 12.626000 0 CHG=-1
M  V30 9 O 22.879000 28.307000 13.546000 0
M  V30 10 O 23.882000 29.846000 15.143000 0 CHG=-1
M  V30 11 O 21.649000 35.392000 14.623000 0
M  V30 12 O 23.252000 33.425000 15.727000 0
M  V30 13 O 26.769000 29.327000 14.875000 0
M  V30 14 O 25.205000 29.377000 12.975000 0
M  V30 15 O 23.107000 30.690000 12.898000 0
M  V30 16 O 21.896000 33.264000 12.397000 0
M  V30 17 N 15.495000 30.975000 12.302000 0
M  V30 18 N 15.736000 33.273000 12.273000 0
M  V30 19 N 17.845000 34.404000 12.572000 0
M  V30 20 N 18.525000 30.897000 12.827000 0
M  V30 21 N 19.668000 32.832000 12.941000 0
M  V30 22 C 23.837000 31.927000 12.868000 0
M  V30 23 C 16.531000 34.345000 12.363000 0
M  V30 24 C 19.695000 31.456000 12.999000 0
M  V30 25 C 21.211000 34.046000 14.531000 0 CFG=2
M  V30 26 C 22.345000 33.037000 14.694000 0 CFG=1
M  V30 27 C 20.775000 33.781000 13.087000 0 CFG=1
M  V30 28 C 16.286000 32.047000 12.404000 0
M  V30 29 C 22.996000 33.094000 13.320000 0 CFG=2
M  V30 30 C 18.358000 33.169000 12.705000 0
M  V30 31 C 17.667000 31.973000 12.637000 0
M  V30 32 H 22.066300 35.546300 15.518600 0
M  V30 33 H 22.760400 33.489300 16.595400 0
M  V30 34 H 15.881700 30.057600 12.395800 0
M  V30 35 H 14.516300 31.090100 12.131900 0
M  V30 36 H 24.146400 32.096000 11.932200 0
M  V30 37 H 24.629900 31.848000 13.472100 0
M  V30 38 H 16.073500 35.228000 12.258400 0
M  V30 39 H 20.532100 30.932600 13.158000 0
M  V30 40 H 20.467200 33.862200 15.173700 0
M  V30 41 H 21.979600 32.123400 14.872100 0
M  V30 42 H 20.511400 34.649200 12.666600 0
M  V30 43 H 23.562700 33.917000 13.280400 0
M  V30 END ATOM
M  V30 BEGIN BOND
M  V30 1 2 1 4
M  V30 2 1 1 5
M  V30 3 1 1 6
M  V30 4 1 1 13
M  V30 5 2 2 7
M  V30 6 1 2 8 CFG=3
M  V30 7 1 2 13
M  V30 8 1 2 14
M  V30 9 2 3 9
M  V30 10 1 3 10 CFG=1
M  V30 11 1 3 14
M  V30 12 1 3 15
M  V30 13 1 11 25
M  V30 14 1 12 26
M  V30 15 1 15 22
M  V30 16 1 16 27
M  V30 17 1 16 29
M  V30 18 1 17 28
M  V30 19 2 18 23
M  V30 20 1 18 28
M  V30 21 1 19 23
M  V30 22 2 19 30
M  V30 23 2 20 24
M  V30 24 1 20 31
M  V30 25 1 21 24
M  V30 26 1 21 27
M  V30 27 1 21 30
M  V30 28 1 22 29
M  V30 29 1 25 26
M  V30 30 1 25 27
M  V30 31 1 26 29
M  V30 32 2 28 31
M  V30 33 1 30 31
M  V30 34 1 29 43 CFG=1
M  V30 35 1 27 42 CFG=3
M  V30 36 1 26 41 CFG=1
M  V30 37 1 25 40 CFG=1
M  V30 38 1 11 32
M  V30 39 1 12 33
M  V30 40 1 17 34
M  V30 41 1 17 35
M  V30 42 1 22 36
M  V30 43 1 22 37
M  V30 44 1 23 38
M  V30 45 1 24 39
M  V30 END BOND
M  V30 END CTAB
M  END
>  <Ligand_Instance>  (124) 
3QAL_ATP_E_351

>  <Dataset>  (124) 
PDB

>  <PDB_ID>  (124) 
3QAL

>  <Chain>  (124) 
E

>  <Resi>  (124) 
351

>  <Num_Resolved_Atoms>  (124) 
31

>  <Num_H_Atoms_ProtBoundConf>  (124) 
12

>  <Pocket>  (124) 
A

>  <Name>  (124) 
ADENOSINE-5'-TRIPHOSPHATE

>  <Num_Not_Resolved_Atoms>  (124) 
0

>  <ATP_Site>  (124) 
True

>  <Peripheral>  (124) 
False

>  <Standardized_SMILES>  (124) 
[H]O[C@@]1([H])[C@@]([H])(O[H])[C@]([H])(N2C([H])=NC3=C2N=C([H])N=C3N([H])[H])O[C@]1([H])C([H])([H])O[P@](=O)([O-])O[P@@](=O)([O-])OP(=O)([O-])[O-]

>  <2D_Mol_H>  (124) 
<rdkit.Chem.rdchem.Mol object at 0x77059d9f8e40>

>  <MW>  (124) 
503.15

>  <HBA>  (124) 
18

>  <HBD>  (124) 
3

>  <LogP>  (124) 
-4.157

>  <NRB>  (124) 
11

>  <TPSA>  (124) 
290.45

>  <Num_Heavy_Atoms>  (124) 
31

>  <Ro5>  (124) 
[False, False, True, True, False, False]

>  <Ro5_Fulfilled>  (124) 
False

>  <Ro3>  (124) 
[False, False, True, True]

>  <Ro3_Fulfilled>  (124) 
False

>  <Fsp3>  (124) 
0.5

>  <Fsp3_0.42>  (124) 
True

>  <Fsp3_0.45>  (124) 
True

>  <Stereogenic_Carbons>  (124) 
4

>  <C_Atoms>  (124) 
10

>  <FCStereo>  (124) 
0.4

>  <SPS>  (124) 
882

>  <nSPS>  (124) 
28.451613

>  <PBF>  (124) 
0.809035

>  <PBF_0.6>  (124) 
True

>  <nPBF>  (124) 
0.026098

>  <nPBF_0.016>  (124) 
True

>  <PMI1>  (124) 
1705.653908

>  <PMI2>  (124) 
9873.324646

>  <PMI3>  (124) 
10719.542594

>  <NPR1>  (124) 
0.159116

>  <NPR2>  (124) 
0.921058

>  <Sum_NPR>  (124) 
1.080175

>  <Sum_NPR_1.07>  (124) 
True

>  <Sum_NPR_1.2>  (124) 
False

>  <MaxAbsEStateIndex>  (124) 
11.591022

>  <MaxEStateIndex>  (124) 
11.591022

>  <MinAbsEStateIndex>  (124) 
0.019517

>  <MinEStateIndex>  (124) 
-6.13789

>  <qed>  (124) 
0.28788

>  <MolWt>  (124) 
503.15

>  <HeavyAtomMolWt>  (124) 
491.054

>  <ExactMolWt>  (124) 
502.96664

>  <NumValenceElectrons>  (124) 
174

>  <NumRadicalElectrons>  (124) 
0

>  <MaxPartialCharge>  (124) 
0.277775

>  <MinPartialCharge>  (124) 
-0.789509

>  <MaxAbsPartialCharge>  (124) 
0.789509

>  <MinAbsPartialCharge>  (124) 
0.277775

>  <FpDensityMorgan1>  (124) 
1.064516

>  <FpDensityMorgan2>  (124) 
1.741935

>  <FpDensityMorgan3>  (124) 
2.387097

>  <BCUT2D_MWHI>  (124) 
31.29809

>  <BCUT2D_MWLOW>  (124) 
10.128388

>  <BCUT2D_CHGHI>  (124) 
2.446414

>  <BCUT2D_CHGLO>  (124) 
-2.372117

>  <BCUT2D_LOGPHI>  (124) 
2.601149

>  <BCUT2D_LOGPLOW>  (124) 
-2.337005

>  <BCUT2D_MRHI>  (124) 
7.643939

>  <BCUT2D_MRLOW>  (124) 
-0.338932

>  <AvgIpc>  (124) 
3.133568

>  <BalabanJ>  (124) 
1.689409

>  <BertzCT>  (124) 
1104.784407

>  <Chi0>  (124) 
23.18987

>  <Chi0n>  (124) 
14.764212

>  <Chi0v>  (124) 
17.447494

>  <Chi1>  (124) 
14.190889

>  <Chi1n>  (124) 
7.849713

>  <Chi1v>  (124) 
12.231493

>  <Chi2n>  (124) 
5.929951

>  <Chi2v>  (124) 
10.177826

>  <Chi3n>  (124) 
3.795354

>  <Chi3v>  (124) 
7.460653

>  <Chi4n>  (124) 
2.601107

>  <Chi4v>  (124) 
5.466344

>  <HallKierAlpha>  (124) 
-1.36

>  <Ipc>  (124) 
3947352.346056

>  <Kappa1>  (124) 
24.285736

>  <Kappa2>  (124) 
8.532213

>  <Kappa3>  (124) 
5.714341

>  <LabuteASA>  (124) 
171.218329

>  <PEOE_VSA1>  (124) 
49.346027

>  <PEOE_VSA10>  (124) 
30.15592

>  <PEOE_VSA11>  (124) 
17.692941

>  <PEOE_VSA12>  (124) 
0.0

>  <PEOE_VSA13>  (124) 
15.645394

>  <PEOE_VSA14>  (124) 
0.0

>  <PEOE_VSA2>  (124) 
18.007828

>  <PEOE_VSA3>  (124) 
19.262567

>  <PEOE_VSA4>  (124) 
0.0

>  <PEOE_VSA5>  (124) 
0.0

>  <PEOE_VSA6>  (124) 
0.0

>  <PEOE_VSA7>  (124) 
0.0

>  <PEOE_VSA8>  (124) 
0.0

>  <PEOE_VSA9>  (124) 
20.756899

>  <SMR_VSA1>  (124) 
61.363719

>  <SMR_VSA10>  (124) 
40.449832

>  <SMR_VSA2>  (124) 
0.0

>  <SMR_VSA3>  (124) 
19.519035

>  <SMR_VSA4>  (124) 
0.0

>  <SMR_VSA5>  (124) 
24.5398

>  <SMR_VSA6>  (124) 
12.340549

>  <SMR_VSA7>  (124) 
12.65464

>  <SMR_VSA8>  (124) 
0.0

>  <SMR_VSA9>  (124) 
0.0

>  <SlogP_VSA1>  (124) 
25.307314

>  <SlogP_VSA10>  (124) 
5.817863

>  <SlogP_VSA11>  (124) 
0.0

>  <SlogP_VSA12>  (124) 
23.468091

>  <SlogP_VSA2>  (124) 
54.650871

>  <SlogP_VSA3>  (124) 
31.577018

>  <SlogP_VSA4>  (124) 
0.0

>  <SlogP_VSA5>  (124) 
6.227901

>  <SlogP_VSA6>  (124) 
12.65464

>  <SlogP_VSA7>  (124) 
0.0

>  <SlogP_VSA8>  (124) 
11.163878

>  <SlogP_VSA9>  (124) 
0.0

>  <EState_VSA1>  (124) 
54.614774

>  <EState_VSA10>  (124) 
43.481846

>  <EState_VSA11>  (124) 
0.0

>  <EState_VSA2>  (124) 
16.981741

>  <EState_VSA3>  (124) 
0.0

>  <EState_VSA4>  (124) 
12.65464

>  <EState_VSA5>  (124) 
4.5671

>  <EState_VSA6>  (124) 
0.0

>  <EState_VSA7>  (124) 
0.0

>  <EState_VSA8>  (124) 
28.096945

>  <EState_VSA9>  (124) 
10.47053

>  <VSA_EState1>  (124) 
50.204863

>  <VSA_EState10>  (124) 
0.0

>  <VSA_EState2>  (124) 
54.927006

>  <VSA_EState3>  (124) 
20.320829

>  <VSA_EState4>  (124) 
5.922478

>  <VSA_EState5>  (124) 
0.019517

>  <VSA_EState6>  (124) 
0.0

>  <VSA_EState7>  (124) 
-3.993378

>  <VSA_EState8>  (124) 
-1.07771

>  <VSA_EState9>  (124) 
-18.073605

>  <FractionCSP3>  (124) 
0.5

>  <HeavyAtomCount>  (124) 
31

>  <NHOHCount>  (124) 
4

>  <NOCount>  (124) 
18

>  <NumAliphaticCarbocycles>  (124) 
0

>  <NumAliphaticHeterocycles>  (124) 
1

>  <NumAliphaticRings>  (124) 
1

>  <NumAromaticCarbocycles>  (124) 
0

>  <NumAromaticHeterocycles>  (124) 
2

>  <NumAromaticRings>  (124) 
2

>  <NumHAcceptors>  (124) 
18

>  <NumHDonors>  (124) 
3

>  <NumHeteroatoms>  (124) 
21

>  <NumRotatableBonds>  (124) 
8

>  <NumSaturatedCarbocycles>  (124) 
0

>  <NumSaturatedHeterocycles>  (124) 
1

>  <NumSaturatedRings>  (124) 
1

>  <RingCount>  (124) 
3

>  <MolLogP>  (124) 
-4.157

>  <MolMR>  (124) 
86.6005

>  <fr_Al_COO>  (124) 
0

>  <fr_Al_OH>  (124) 
2

>  <fr_Al_OH_noTert>  (124) 
2

>  <fr_ArN>  (124) 
1

>  <fr_Ar_COO>  (124) 
0

>  <fr_Ar_N>  (124) 
4

>  <fr_Ar_NH>  (124) 
0

>  <fr_Ar_OH>  (124) 
0

>  <fr_COO>  (124) 
0

>  <fr_COO2>  (124) 
0

>  <fr_C_O>  (124) 
0

>  <fr_C_O_noCOO>  (124) 
0

>  <fr_C_S>  (124) 
0

>  <fr_HOCCN>  (124) 
0

>  <fr_Imine>  (124) 
0

>  <fr_NH0>  (124) 
4

>  <fr_NH1>  (124) 
0

>  <fr_NH2>  (124) 
1

>  <fr_N_O>  (124) 
0

>  <fr_Ndealkylation1>  (124) 
0

>  <fr_Ndealkylation2>  (124) 
0

>  <fr_Nhpyrrole>  (124) 
0

>  <fr_SH>  (124) 
0

>  <fr_aldehyde>  (124) 
0

>  <fr_alkyl_carbamate>  (124) 
0

>  <fr_alkyl_halide>  (124) 
0

>  <fr_allylic_oxid>  (124) 
0

>  <fr_amide>  (124) 
0

>  <fr_amidine>  (124) 
0

>  <fr_aniline>  (124) 
1

>  <fr_aryl_methyl>  (124) 
0

>  <fr_azide>  (124) 
0

>  <fr_azo>  (124) 
0

>  <fr_barbitur>  (124) 
0

>  <fr_benzene>  (124) 
0

>  <fr_benzodiazepine>  (124) 
0

>  <fr_bicyclic>  (124) 
1

>  <fr_diazo>  (124) 
0

>  <fr_dihydropyridine>  (124) 
0

>  <fr_epoxide>  (124) 
0

>  <fr_ester>  (124) 
0

>  <fr_ether>  (124) 
1

>  <fr_furan>  (124) 
0

>  <fr_guanido>  (124) 
0

>  <fr_halogen>  (124) 
0

>  <fr_hdrzine>  (124) 
0

>  <fr_hdrzone>  (124) 
0

>  <fr_imidazole>  (124) 
1

>  <fr_imide>  (124) 
0

>  <fr_isocyan>  (124) 
0

>  <fr_isothiocyan>  (124) 
0

>  <fr_ketone>  (124) 
0

>  <fr_ketone_Topliss>  (124) 
0

>  <fr_lactam>  (124) 
0

>  <fr_lactone>  (124) 
0

>  <fr_methoxy>  (124) 
0

>  <fr_morpholine>  (124) 
0

>  <fr_nitrile>  (124) 
0

>  <fr_nitro>  (124) 
0

>  <fr_nitro_arom>  (124) 
0

>  <fr_nitro_arom_nonortho>  (124) 
0

>  <fr_nitroso>  (124) 
0

>  <fr_oxazole>  (124) 
0

>  <fr_oxime>  (124) 
0

>  <fr_para_hydroxylation>  (124) 
0

>  <fr_phenol>  (124) 
0

>  <fr_phenol_noOrthoHbond>  (124) 
0

>  <fr_phos_acid>  (124) 
3

>  <fr_phos_ester>  (124) 
1

>  <fr_piperdine>  (124) 
0

>  <fr_piperzine>  (124) 
0

>  <fr_priamide>  (124) 
0

>  <fr_prisulfonamd>  (124) 
0

>  <fr_pyridine>  (124) 
0

>  <fr_quatN>  (124) 
0

>  <fr_sulfide>  (124) 
0

>  <fr_sulfonamd>  (124) 
0

>  <fr_sulfone>  (124) 
0

>  <fr_term_acetylene>  (124) 
0

>  <fr_tetrazole>  (124) 
0

>  <fr_thiazole>  (124) 
0

>  <fr_thiocyan>  (124) 
0

>  <fr_thiophene>  (124) 
0

>  <fr_unbrch_alkane>  (124) 
0

>  <fr_urea>  (124) 
0

>  <NP_Likeness>  (124) 
0.811139

$$$$
ATP
     RDKit          3D

  0  0  0  0  0  0  0  0  0  0999 V3000
M  V30 BEGIN CTAB
M  V30 COUNTS 43 45 0 0 0
M  V30 BEGIN ATOM
M  V30 1 P -13.495000 -1.980000 19.749000 0
M  V30 2 P -12.870000 -1.743000 17.009000 0 CFG=2
M  V30 3 P -10.398000 -2.761000 16.328000 0 CFG=1
M  V30 4 O -14.811000 -2.620000 20.182000 0
M  V30 5 O -12.457000 -2.279000 20.819000 0 CHG=-1
M  V30 6 O -13.687000 -0.481000 19.594000 0 CHG=-1
M  V30 7 O -12.265000 -0.420000 17.233000 0
M  V30 8 O -14.225000 -1.620000 16.405000 0 CHG=-1
M  V30 9 O -9.640000 -1.545000 15.947000 0
M  V30 10 O -10.096000 -3.070000 17.744000 0 CHG=-1
M  V30 11 O -7.959000 -8.538000 16.696000 0
M  V30 12 O -9.225000 -6.526000 18.119000 0
M  V30 13 O -12.977000 -2.673000 18.371000 0
M  V30 14 O -12.001000 -2.678000 16.059000 0
M  V30 15 O -9.963000 -3.935000 15.364000 0
M  V30 16 O -8.902000 -6.532000 14.538000 0
M  V30 17 N -2.808000 -4.297000 12.487000 0
M  V30 18 N -3.052000 -6.594000 12.586000 0
M  V30 19 N -4.980000 -7.695000 13.536000 0
M  V30 20 N -5.555000 -4.173000 13.848000 0
M  V30 21 N -6.614000 -6.088000 14.371000 0
M  V30 22 C -10.642000 -5.188000 15.521000 0
M  V30 23 C -3.789000 -7.657000 12.944000 0
M  V30 24 C -6.622000 -4.712000 14.380000 0
M  V30 25 C -7.599000 -7.198000 16.411000 0 CFG=2
M  V30 26 C -8.659000 -6.192000 16.854000 0 CFG=1
M  V30 27 C -7.622000 -7.016000 14.888000 0 CFG=1
M  V30 28 C -3.538000 -5.358000 12.837000 0
M  V30 29 C -9.683000 -6.326000 15.737000 0 CFG=2
M  V30 30 C -5.432000 -6.449000 13.769000 0
M  V30 31 C -4.791000 -5.262000 13.458000 0
M  V30 32 H -8.538100 -8.561500 17.511000 0
M  V30 33 H -8.504700 -6.543000 18.812400 0
M  V30 34 H -3.150100 -3.374200 12.664200 0
M  V30 35 H -1.918900 -4.424800 12.047600 0
M  V30 36 H -11.178300 -5.369900 14.696800 0
M  V30 37 H -11.253500 -5.127100 16.309900 0
M  V30 38 H -3.385300 -8.547900 12.736100 0
M  V30 39 H -7.374600 -4.173200 14.758600 0
M  V30 40 H -6.701900 -6.973100 16.791200 0
M  V30 41 H -8.279100 -5.267200 16.872700 0
M  V30 42 H -7.487700 -7.908100 14.456500 0
M  V30 43 H -10.217700 -7.154200 15.904600 0
M  V30 END ATOM
M  V30 BEGIN BOND
M  V30 1 2 1 4
M  V30 2 1 1 5
M  V30 3 1 1 6
M  V30 4 1 1 13
M  V30 5 2 2 7
M  V30 6 1 2 8 CFG=3
M  V30 7 1 2 13
M  V30 8 1 2 14
M  V30 9 2 3 9
M  V30 10 1 3 10 CFG=1
M  V30 11 1 3 14
M  V30 12 1 3 15
M  V30 13 1 11 25
M  V30 14 1 12 26
M  V30 15 1 15 22
M  V30 16 1 16 27
M  V30 17 1 16 29
M  V30 18 1 17 28
M  V30 19 2 18 23
M  V30 20 1 18 28
M  V30 21 1 19 23
M  V30 22 2 19 30
M  V30 23 2 20 24
M  V30 24 1 20 31
M  V30 25 1 21 24
M  V30 26 1 21 27
M  V30 27 1 21 30
M  V30 28 1 22 29
M  V30 29 1 25 26
M  V30 30 1 25 27
M  V30 31 1 26 29
M  V30 32 2 28 31
M  V30 33 1 30 31
M  V30 34 1 29 43 CFG=1
M  V30 35 1 27 42 CFG=3
M  V30 36 1 26 41 CFG=1
M  V30 37 1 25 40 CFG=1
M  V30 38 1 11 32
M  V30 39 1 12 33
M  V30 40 1 17 34
M  V30 41 1 17 35
M  V30 42 1 22 36
M  V30 43 1 22 37
M  V30 44 1 23 38
M  V30 45 1 24 39
M  V30 END BOND
M  V30 END CTAB
M  END
>  <Ligand_Instance>  (125) 
3QAM_ATP_E_351

>  <Dataset>  (125) 
PDB

>  <PDB_ID>  (125) 
3QAM

>  <Chain>  (125) 
E

>  <Resi>  (125) 
351

>  <Num_Resolved_Atoms>  (125) 
31

>  <Num_H_Atoms_ProtBoundConf>  (125) 
12

>  <Pocket>  (125) 
A

>  <Name>  (125) 
ADENOSINE-5'-TRIPHOSPHATE

>  <Num_Not_Resolved_Atoms>  (125) 
0

>  <ATP_Site>  (125) 
True

>  <Peripheral>  (125) 
False

>  <Standardized_SMILES>  (125) 
[H]O[C@@]1([H])[C@@]([H])(O[H])[C@]([H])(N2C([H])=NC3=C2N=C([H])N=C3N([H])[H])O[C@]1([H])C([H])([H])O[P@](=O)([O-])O[P@@](=O)([O-])OP(=O)([O-])[O-]

>  <2D_Mol_H>  (125) 
<rdkit.Chem.rdchem.Mol object at 0x77059d9f8f20>

>  <MW>  (125) 
503.15

>  <HBA>  (125) 
18

>  <HBD>  (125) 
3

>  <LogP>  (125) 
-4.157

>  <NRB>  (125) 
11

>  <TPSA>  (125) 
290.45

>  <Num_Heavy_Atoms>  (125) 
31

>  <Ro5>  (125) 
[False, False, True, True, False, False]

>  <Ro5_Fulfilled>  (125) 
False

>  <Ro3>  (125) 
[False, False, True, True]

>  <Ro3_Fulfilled>  (125) 
False

>  <Fsp3>  (125) 
0.5

>  <Fsp3_0.42>  (125) 
True

>  <Fsp3_0.45>  (125) 
True

>  <Stereogenic_Carbons>  (125) 
4

>  <C_Atoms>  (125) 
10

>  <FCStereo>  (125) 
0.4

>  <SPS>  (125) 
882

>  <nSPS>  (125) 
28.451613

>  <PBF>  (125) 
0.79898

>  <PBF_0.6>  (125) 
True

>  <nPBF>  (125) 
0.025774

>  <nPBF_0.016>  (125) 
True

>  <PMI1>  (125) 
1645.77334

>  <PMI2>  (125) 
10101.426127

>  <PMI3>  (125) 
10909.553479

>  <NPR1>  (125) 
0.150856

>  <NPR2>  (125) 
0.925925

>  <Sum_NPR>  (125) 
1.076781

>  <Sum_NPR_1.07>  (125) 
True

>  <Sum_NPR_1.2>  (125) 
False

>  <MaxAbsEStateIndex>  (125) 
11.591022

>  <MaxEStateIndex>  (125) 
11.591022

>  <MinAbsEStateIndex>  (125) 
0.019517

>  <MinEStateIndex>  (125) 
-6.13789

>  <qed>  (125) 
0.28788

>  <MolWt>  (125) 
503.15

>  <HeavyAtomMolWt>  (125) 
491.054

>  <ExactMolWt>  (125) 
502.96664

>  <NumValenceElectrons>  (125) 
174

>  <NumRadicalElectrons>  (125) 
0

>  <MaxPartialCharge>  (125) 
0.277775

>  <MinPartialCharge>  (125) 
-0.789509

>  <MaxAbsPartialCharge>  (125) 
0.789509

>  <MinAbsPartialCharge>  (125) 
0.277775

>  <FpDensityMorgan1>  (125) 
1.064516

>  <FpDensityMorgan2>  (125) 
1.741935

>  <FpDensityMorgan3>  (125) 
2.387097

>  <BCUT2D_MWHI>  (125) 
31.29809

>  <BCUT2D_MWLOW>  (125) 
10.128388

>  <BCUT2D_CHGHI>  (125) 
2.446414

>  <BCUT2D_CHGLO>  (125) 
-2.372117

>  <BCUT2D_LOGPHI>  (125) 
2.601149

>  <BCUT2D_LOGPLOW>  (125) 
-2.337005

>  <BCUT2D_MRHI>  (125) 
7.643939

>  <BCUT2D_MRLOW>  (125) 
-0.338932

>  <AvgIpc>  (125) 
3.133568

>  <BalabanJ>  (125) 
1.689409

>  <BertzCT>  (125) 
1104.784407

>  <Chi0>  (125) 
23.18987

>  <Chi0n>  (125) 
14.764212

>  <Chi0v>  (125) 
17.447494

>  <Chi1>  (125) 
14.190889

>  <Chi1n>  (125) 
7.849713

>  <Chi1v>  (125) 
12.231493

>  <Chi2n>  (125) 
5.929951

>  <Chi2v>  (125) 
10.177826

>  <Chi3n>  (125) 
3.795354

>  <Chi3v>  (125) 
7.460653

>  <Chi4n>  (125) 
2.601107

>  <Chi4v>  (125) 
5.466344

>  <HallKierAlpha>  (125) 
-1.36

>  <Ipc>  (125) 
3947352.346056

>  <Kappa1>  (125) 
24.285736

>  <Kappa2>  (125) 
8.532213

>  <Kappa3>  (125) 
5.714341

>  <LabuteASA>  (125) 
171.218329

>  <PEOE_VSA1>  (125) 
49.346027

>  <PEOE_VSA10>  (125) 
30.15592

>  <PEOE_VSA11>  (125) 
17.692941

>  <PEOE_VSA12>  (125) 
0.0

>  <PEOE_VSA13>  (125) 
15.645394

>  <PEOE_VSA14>  (125) 
0.0

>  <PEOE_VSA2>  (125) 
18.007828

>  <PEOE_VSA3>  (125) 
19.262567

>  <PEOE_VSA4>  (125) 
0.0

>  <PEOE_VSA5>  (125) 
0.0

>  <PEOE_VSA6>  (125) 
0.0

>  <PEOE_VSA7>  (125) 
0.0

>  <PEOE_VSA8>  (125) 
0.0

>  <PEOE_VSA9>  (125) 
20.756899

>  <SMR_VSA1>  (125) 
61.363719

>  <SMR_VSA10>  (125) 
40.449832

>  <SMR_VSA2>  (125) 
0.0

>  <SMR_VSA3>  (125) 
19.519035

>  <SMR_VSA4>  (125) 
0.0

>  <SMR_VSA5>  (125) 
24.5398

>  <SMR_VSA6>  (125) 
12.340549

>  <SMR_VSA7>  (125) 
12.65464

>  <SMR_VSA8>  (125) 
0.0

>  <SMR_VSA9>  (125) 
0.0

>  <SlogP_VSA1>  (125) 
25.307314

>  <SlogP_VSA10>  (125) 
5.817863

>  <SlogP_VSA11>  (125) 
0.0

>  <SlogP_VSA12>  (125) 
23.468091

>  <SlogP_VSA2>  (125) 
54.650871

>  <SlogP_VSA3>  (125) 
31.577018

>  <SlogP_VSA4>  (125) 
0.0

>  <SlogP_VSA5>  (125) 
6.227901

>  <SlogP_VSA6>  (125) 
12.65464

>  <SlogP_VSA7>  (125) 
0.0

>  <SlogP_VSA8>  (125) 
11.163878

>  <SlogP_VSA9>  (125) 
0.0

>  <EState_VSA1>  (125) 
54.614774

>  <EState_VSA10>  (125) 
43.481846

>  <EState_VSA11>  (125) 
0.0

>  <EState_VSA2>  (125) 
16.981741

>  <EState_VSA3>  (125) 
0.0

>  <EState_VSA4>  (125) 
12.65464

>  <EState_VSA5>  (125) 
4.5671

>  <EState_VSA6>  (125) 
0.0

>  <EState_VSA7>  (125) 
0.0

>  <EState_VSA8>  (125) 
28.096945

>  <EState_VSA9>  (125) 
10.47053

>  <VSA_EState1>  (125) 
50.204863

>  <VSA_EState10>  (125) 
0.0

>  <VSA_EState2>  (125) 
54.927006

>  <VSA_EState3>  (125) 
20.320829

>  <VSA_EState4>  (125) 
5.922478

>  <VSA_EState5>  (125) 
0.019517

>  <VSA_EState6>  (125) 
0.0

>  <VSA_EState7>  (125) 
-3.993378

>  <VSA_EState8>  (125) 
-1.07771

>  <VSA_EState9>  (125) 
-18.073605

>  <FractionCSP3>  (125) 
0.5

>  <HeavyAtomCount>  (125) 
31

>  <NHOHCount>  (125) 
4

>  <NOCount>  (125) 
18

>  <NumAliphaticCarbocycles>  (125) 
0

>  <NumAliphaticHeterocycles>  (125) 
1

>  <NumAliphaticRings>  (125) 
1

>  <NumAromaticCarbocycles>  (125) 
0

>  <NumAromaticHeterocycles>  (125) 
2

>  <NumAromaticRings>  (125) 
2

>  <NumHAcceptors>  (125) 
18

>  <NumHDonors>  (125) 
3

>  <NumHeteroatoms>  (125) 
21

>  <NumRotatableBonds>  (125) 
8

>  <NumSaturatedCarbocycles>  (125) 
0

>  <NumSaturatedHeterocycles>  (125) 
1

>  <NumSaturatedRings>  (125) 
1

>  <RingCount>  (125) 
3

>  <MolLogP>  (125) 
-4.157

>  <MolMR>  (125) 
86.6005

>  <fr_Al_COO>  (125) 
0

>  <fr_Al_OH>  (125) 
2

>  <fr_Al_OH_noTert>  (125) 
2

>  <fr_ArN>  (125) 
1

>  <fr_Ar_COO>  (125) 
0

>  <fr_Ar_N>  (125) 
4

>  <fr_Ar_NH>  (125) 
0

>  <fr_Ar_OH>  (125) 
0

>  <fr_COO>  (125) 
0

>  <fr_COO2>  (125) 
0

>  <fr_C_O>  (125) 
0

>  <fr_C_O_noCOO>  (125) 
0

>  <fr_C_S>  (125) 
0

>  <fr_HOCCN>  (125) 
0

>  <fr_Imine>  (125) 
0

>  <fr_NH0>  (125) 
4

>  <fr_NH1>  (125) 
0

>  <fr_NH2>  (125) 
1

>  <fr_N_O>  (125) 
0

>  <fr_Ndealkylation1>  (125) 
0

>  <fr_Ndealkylation2>  (125) 
0

>  <fr_Nhpyrrole>  (125) 
0

>  <fr_SH>  (125) 
0

>  <fr_aldehyde>  (125) 
0

>  <fr_alkyl_carbamate>  (125) 
0

>  <fr_alkyl_halide>  (125) 
0

>  <fr_allylic_oxid>  (125) 
0

>  <fr_amide>  (125) 
0

>  <fr_amidine>  (125) 
0

>  <fr_aniline>  (125) 
1

>  <fr_aryl_methyl>  (125) 
0

>  <fr_azide>  (125) 
0

>  <fr_azo>  (125) 
0

>  <fr_barbitur>  (125) 
0

>  <fr_benzene>  (125) 
0

>  <fr_benzodiazepine>  (125) 
0

>  <fr_bicyclic>  (125) 
1

>  <fr_diazo>  (125) 
0

>  <fr_dihydropyridine>  (125) 
0

>  <fr_epoxide>  (125) 
0

>  <fr_ester>  (125) 
0

>  <fr_ether>  (125) 
1

>  <fr_furan>  (125) 
0

>  <fr_guanido>  (125) 
0

>  <fr_halogen>  (125) 
0

>  <fr_hdrzine>  (125) 
0

>  <fr_hdrzone>  (125) 
0

>  <fr_imidazole>  (125) 
1

>  <fr_imide>  (125) 
0

>  <fr_isocyan>  (125) 
0

>  <fr_isothiocyan>  (125) 
0

>  <fr_ketone>  (125) 
0

>  <fr_ketone_Topliss>  (125) 
0

>  <fr_lactam>  (125) 
0

>  <fr_lactone>  (125) 
0

>  <fr_methoxy>  (125) 
0

>  <fr_morpholine>  (125) 
0

>  <fr_nitrile>  (125) 
0

>  <fr_nitro>  (125) 
0

>  <fr_nitro_arom>  (125) 
0

>  <fr_nitro_arom_nonortho>  (125) 
0

>  <fr_nitroso>  (125) 
0

>  <fr_oxazole>  (125) 
0

>  <fr_oxime>  (125) 
0

>  <fr_para_hydroxylation>  (125) 
0

>  <fr_phenol>  (125) 
0

>  <fr_phenol_noOrthoHbond>  (125) 
0

>  <fr_phos_acid>  (125) 
3

>  <fr_phos_ester>  (125) 
1

>  <fr_piperdine>  (125) 
0

>  <fr_piperzine>  (125) 
0

>  <fr_priamide>  (125) 
0

>  <fr_prisulfonamd>  (125) 
0

>  <fr_pyridine>  (125) 
0

>  <fr_quatN>  (125) 
0

>  <fr_sulfide>  (125) 
0

>  <fr_sulfonamd>  (125) 
0

>  <fr_sulfone>  (125) 
0

>  <fr_term_acetylene>  (125) 
0

>  <fr_tetrazole>  (125) 
0

>  <fr_thiazole>  (125) 
0

>  <fr_thiocyan>  (125) 
0

>  <fr_thiophene>  (125) 
0

>  <fr_unbrch_alkane>  (125) 
0

>  <fr_urea>  (125) 
0

>  <NP_Likeness>  (125) 
0.811139

$$$$
ATP
     RDKit          3D

  0  0  0  0  0  0  0  0  0  0999 V3000
M  V30 BEGIN CTAB
M  V30 COUNTS 43 45 0 0 0
M  V30 BEGIN ATOM
M  V30 1 P -20.496000 -8.655000 0.550000 0
M  V30 2 P -22.423000 -10.744000 0.267000 0 CFG=2
M  V30 3 P -24.850000 -9.613000 -0.362000 0 CFG=1
M  V30 4 O -19.273000 -8.956000 -0.301000 0
M  V30 5 O -20.969000 -7.231000 0.621000 0 CHG=-1
M  V30 6 O -20.400000 -9.267000 1.915000 0 CHG=-1
M  V30 7 O -22.506000 -10.787000 1.769000 0
M  V30 8 O -21.833000 -11.831000 -0.594000 0 CHG=-1
M  V30 9 O -25.789000 -9.732000 0.603000 0
M  V30 10 O -24.156000 -8.449000 -0.330000 0 CHG=-1
M  V30 11 O -26.885000 -9.103000 -6.239000 0
M  V30 12 O -25.609000 -7.790000 -4.768000 0
M  V30 13 O -21.769000 -9.341000 -0.182000 0
M  V30 14 O -23.829000 -10.726000 -0.301000 0
M  V30 15 O -25.499000 -10.013000 -1.665000 0
M  V30 16 O -26.650000 -10.874000 -3.958000 0
M  V30 17 N -32.906000 -9.734000 -1.670000 0
M  V30 18 N -32.871000 -9.862000 -3.962000 0
M  V30 19 N -30.882000 -10.097000 -5.097000 0
M  V30 20 N -29.984000 -10.020000 -1.801000 0
M  V30 21 N -28.915000 -10.223000 -3.676000 0
M  V30 22 C -24.758000 -10.176000 -2.782000 0
M  V30 23 C -32.198000 -9.981000 -5.092000 0
M  V30 24 C -28.783000 -10.160000 -2.365000 0
M  V30 25 C -27.446000 -8.985000 -5.029000 0 CFG=2
M  V30 26 C -26.334000 -8.663000 -4.087000 0 CFG=1
M  V30 27 C -27.803000 -10.371000 -4.618000 0 CFG=1
M  V30 28 C -32.223000 -9.861000 -2.807000 0
M  V30 29 C -25.625000 -9.994000 -4.009000 0 CFG=2
M  V30 30 C -30.193000 -10.109000 -3.959000 0
M  V30 31 C -30.869000 -9.994000 -2.785000 0
M  V30 32 H -26.081900 -8.509700 -6.293300 0
M  V30 33 H -26.169100 -6.991400 -4.988300 0
M  V30 34 H -32.423300 -9.732400 -0.794200 0
M  V30 35 H -33.901300 -9.640300 -1.692400 0
M  V30 36 H -24.365000 -11.095500 -2.787500 0
M  V30 37 H -24.022100 -9.499000 -2.793000 0
M  V30 38 H -32.693900 -9.983400 -5.960400 0
M  V30 39 H -27.915700 -10.209600 -1.869800 0
M  V30 40 H -28.209400 -8.340000 -4.994500 0
M  V30 41 H -26.645300 -8.321400 -3.200200 0
M  V30 42 H -28.056000 -10.936200 -5.403200 0
M  V30 43 H -25.084400 -10.144100 -4.836800 0
M  V30 END ATOM
M  V30 BEGIN BOND
M  V30 1 2 1 4
M  V30 2 1 1 5
M  V30 3 1 1 6
M  V30 4 1 1 13
M  V30 5 2 2 7
M  V30 6 1 2 8 CFG=3
M  V30 7 1 2 13
M  V30 8 1 2 14
M  V30 9 2 3 9
M  V30 10 1 3 10 CFG=3
M  V30 11 1 3 14
M  V30 12 1 3 15
M  V30 13 1 11 25
M  V30 14 1 12 26
M  V30 15 1 15 22
M  V30 16 1 16 27
M  V30 17 1 16 29
M  V30 18 1 17 28
M  V30 19 2 18 23
M  V30 20 1 18 28
M  V30 21 1 19 23
M  V30 22 2 19 30
M  V30 23 2 20 24
M  V30 24 1 20 31
M  V30 25 1 21 24
M  V30 26 1 21 27
M  V30 27 1 21 30
M  V30 28 1 22 29
M  V30 29 1 25 26
M  V30 30 1 25 27
M  V30 31 1 26 29
M  V30 32 2 28 31
M  V30 33 1 30 31
M  V30 34 1 29 43 CFG=3
M  V30 35 1 27 42 CFG=3
M  V30 36 1 26 41 CFG=1
M  V30 37 1 25 40 CFG=3
M  V30 38 1 11 32
M  V30 39 1 12 33
M  V30 40 1 17 34
M  V30 41 1 17 35
M  V30 42 1 22 36
M  V30 43 1 22 37
M  V30 44 1 23 38
M  V30 45 1 24 39
M  V30 END BOND
M  V30 END CTAB
M  END
>  <Ligand_Instance>  (126) 
3X2U_ATP_A_501

>  <Dataset>  (126) 
PDB

>  <PDB_ID>  (126) 
3X2U

>  <Chain>  (126) 
A

>  <Resi>  (126) 
501

>  <Num_Resolved_Atoms>  (126) 
31

>  <Num_H_Atoms_ProtBoundConf>  (126) 
12

>  <Pocket>  (126) 
A

>  <Name>  (126) 
ADENOSINE-5'-TRIPHOSPHATE

>  <Num_Not_Resolved_Atoms>  (126) 
0

>  <ATP_Site>  (126) 
True

>  <Peripheral>  (126) 
False

>  <Standardized_SMILES>  (126) 
[H]O[C@@]1([H])[C@@]([H])(O[H])[C@]([H])(N2C([H])=NC3=C2N=C([H])N=C3N([H])[H])O[C@]1([H])C([H])([H])O[P@](=O)([O-])O[P@@](=O)([O-])OP(=O)([O-])[O-]

>  <2D_Mol_H>  (126) 
<rdkit.Chem.rdchem.Mol object at 0x77059d9f9000>

>  <MW>  (126) 
503.15

>  <HBA>  (126) 
18

>  <HBD>  (126) 
3

>  <LogP>  (126) 
-4.157

>  <NRB>  (126) 
11

>  <TPSA>  (126) 
290.45

>  <Num_Heavy_Atoms>  (126) 
31

>  <Ro5>  (126) 
[False, False, True, True, False, False]

>  <Ro5_Fulfilled>  (126) 
False

>  <Ro3>  (126) 
[False, False, True, True]

>  <Ro3_Fulfilled>  (126) 
False

>  <Fsp3>  (126) 
0.5

>  <Fsp3_0.42>  (126) 
True

>  <Fsp3_0.45>  (126) 
True

>  <Stereogenic_Carbons>  (126) 
4

>  <C_Atoms>  (126) 
10

>  <FCStereo>  (126) 
0.4

>  <SPS>  (126) 
882

>  <nSPS>  (126) 
28.451613

>  <PBF>  (126) 
0.744537

>  <PBF_0.6>  (126) 
True

>  <nPBF>  (126) 
0.024017

>  <nPBF_0.016>  (126) 
True

>  <PMI1>  (126) 
1596.577099

>  <PMI2>  (126) 
9532.921755

>  <PMI3>  (126) 
10304.121491

>  <NPR1>  (126) 
0.154945

>  <NPR2>  (126) 
0.925156

>  <Sum_NPR>  (126) 
1.080102

>  <Sum_NPR_1.07>  (126) 
True

>  <Sum_NPR_1.2>  (126) 
False

>  <MaxAbsEStateIndex>  (126) 
11.591022

>  <MaxEStateIndex>  (126) 
11.591022

>  <MinAbsEStateIndex>  (126) 
0.019517

>  <MinEStateIndex>  (126) 
-6.13789

>  <qed>  (126) 
0.28788

>  <MolWt>  (126) 
503.15

>  <HeavyAtomMolWt>  (126) 
491.054

>  <ExactMolWt>  (126) 
502.96664

>  <NumValenceElectrons>  (126) 
174

>  <NumRadicalElectrons>  (126) 
0

>  <MaxPartialCharge>  (126) 
0.277775

>  <MinPartialCharge>  (126) 
-0.789509

>  <MaxAbsPartialCharge>  (126) 
0.789509

>  <MinAbsPartialCharge>  (126) 
0.277775

>  <FpDensityMorgan1>  (126) 
1.064516

>  <FpDensityMorgan2>  (126) 
1.741935

>  <FpDensityMorgan3>  (126) 
2.387097

>  <BCUT2D_MWHI>  (126) 
31.29809

>  <BCUT2D_MWLOW>  (126) 
10.128388

>  <BCUT2D_CHGHI>  (126) 
2.446414

>  <BCUT2D_CHGLO>  (126) 
-2.372117

>  <BCUT2D_LOGPHI>  (126) 
2.601149

>  <BCUT2D_LOGPLOW>  (126) 
-2.337005

>  <BCUT2D_MRHI>  (126) 
7.643939

>  <BCUT2D_MRLOW>  (126) 
-0.338932

>  <AvgIpc>  (126) 
3.133568

>  <BalabanJ>  (126) 
1.689409

>  <BertzCT>  (126) 
1104.784407

>  <Chi0>  (126) 
23.18987

>  <Chi0n>  (126) 
14.764212

>  <Chi0v>  (126) 
17.447494

>  <Chi1>  (126) 
14.190889

>  <Chi1n>  (126) 
7.849713

>  <Chi1v>  (126) 
12.231493

>  <Chi2n>  (126) 
5.929951

>  <Chi2v>  (126) 
10.177826

>  <Chi3n>  (126) 
3.795354

>  <Chi3v>  (126) 
7.460653

>  <Chi4n>  (126) 
2.601107

>  <Chi4v>  (126) 
5.466344

>  <HallKierAlpha>  (126) 
-1.36

>  <Ipc>  (126) 
3947352.346056

>  <Kappa1>  (126) 
24.285736

>  <Kappa2>  (126) 
8.532213

>  <Kappa3>  (126) 
5.714341

>  <LabuteASA>  (126) 
171.218329

>  <PEOE_VSA1>  (126) 
49.346027

>  <PEOE_VSA10>  (126) 
30.15592

>  <PEOE_VSA11>  (126) 
17.692941

>  <PEOE_VSA12>  (126) 
0.0

>  <PEOE_VSA13>  (126) 
15.645394

>  <PEOE_VSA14>  (126) 
0.0

>  <PEOE_VSA2>  (126) 
18.007828

>  <PEOE_VSA3>  (126) 
19.262567

>  <PEOE_VSA4>  (126) 
0.0

>  <PEOE_VSA5>  (126) 
0.0

>  <PEOE_VSA6>  (126) 
0.0

>  <PEOE_VSA7>  (126) 
0.0

>  <PEOE_VSA8>  (126) 
0.0

>  <PEOE_VSA9>  (126) 
20.756899

>  <SMR_VSA1>  (126) 
61.363719

>  <SMR_VSA10>  (126) 
40.449832

>  <SMR_VSA2>  (126) 
0.0

>  <SMR_VSA3>  (126) 
19.519035

>  <SMR_VSA4>  (126) 
0.0

>  <SMR_VSA5>  (126) 
24.5398

>  <SMR_VSA6>  (126) 
12.340549

>  <SMR_VSA7>  (126) 
12.65464

>  <SMR_VSA8>  (126) 
0.0

>  <SMR_VSA9>  (126) 
0.0

>  <SlogP_VSA1>  (126) 
25.307314

>  <SlogP_VSA10>  (126) 
5.817863

>  <SlogP_VSA11>  (126) 
0.0

>  <SlogP_VSA12>  (126) 
23.468091

>  <SlogP_VSA2>  (126) 
54.650871

>  <SlogP_VSA3>  (126) 
31.577018

>  <SlogP_VSA4>  (126) 
0.0

>  <SlogP_VSA5>  (126) 
6.227901

>  <SlogP_VSA6>  (126) 
12.65464

>  <SlogP_VSA7>  (126) 
0.0

>  <SlogP_VSA8>  (126) 
11.163878

>  <SlogP_VSA9>  (126) 
0.0

>  <EState_VSA1>  (126) 
54.614774

>  <EState_VSA10>  (126) 
43.481846

>  <EState_VSA11>  (126) 
0.0

>  <EState_VSA2>  (126) 
16.981741

>  <EState_VSA3>  (126) 
0.0

>  <EState_VSA4>  (126) 
12.65464

>  <EState_VSA5>  (126) 
4.5671

>  <EState_VSA6>  (126) 
0.0

>  <EState_VSA7>  (126) 
0.0

>  <EState_VSA8>  (126) 
28.096945

>  <EState_VSA9>  (126) 
10.47053

>  <VSA_EState1>  (126) 
50.204863

>  <VSA_EState10>  (126) 
0.0

>  <VSA_EState2>  (126) 
54.927006

>  <VSA_EState3>  (126) 
20.320829

>  <VSA_EState4>  (126) 
5.922478

>  <VSA_EState5>  (126) 
0.019517

>  <VSA_EState6>  (126) 
0.0

>  <VSA_EState7>  (126) 
-3.993378

>  <VSA_EState8>  (126) 
-1.07771

>  <VSA_EState9>  (126) 
-18.073605

>  <FractionCSP3>  (126) 
0.5

>  <HeavyAtomCount>  (126) 
31

>  <NHOHCount>  (126) 
4

>  <NOCount>  (126) 
18

>  <NumAliphaticCarbocycles>  (126) 
0

>  <NumAliphaticHeterocycles>  (126) 
1

>  <NumAliphaticRings>  (126) 
1

>  <NumAromaticCarbocycles>  (126) 
0

>  <NumAromaticHeterocycles>  (126) 
2

>  <NumAromaticRings>  (126) 
2

>  <NumHAcceptors>  (126) 
18

>  <NumHDonors>  (126) 
3

>  <NumHeteroatoms>  (126) 
21

>  <NumRotatableBonds>  (126) 
8

>  <NumSaturatedCarbocycles>  (126) 
0

>  <NumSaturatedHeterocycles>  (126) 
1

>  <NumSaturatedRings>  (126) 
1

>  <RingCount>  (126) 
3

>  <MolLogP>  (126) 
-4.157

>  <MolMR>  (126) 
86.6005

>  <fr_Al_COO>  (126) 
0

>  <fr_Al_OH>  (126) 
2

>  <fr_Al_OH_noTert>  (126) 
2

>  <fr_ArN>  (126) 
1

>  <fr_Ar_COO>  (126) 
0

>  <fr_Ar_N>  (126) 
4

>  <fr_Ar_NH>  (126) 
0

>  <fr_Ar_OH>  (126) 
0

>  <fr_COO>  (126) 
0

>  <fr_COO2>  (126) 
0

>  <fr_C_O>  (126) 
0

>  <fr_C_O_noCOO>  (126) 
0

>  <fr_C_S>  (126) 
0

>  <fr_HOCCN>  (126) 
0

>  <fr_Imine>  (126) 
0

>  <fr_NH0>  (126) 
4

>  <fr_NH1>  (126) 
0

>  <fr_NH2>  (126) 
1

>  <fr_N_O>  (126) 
0

>  <fr_Ndealkylation1>  (126) 
0

>  <fr_Ndealkylation2>  (126) 
0

>  <fr_Nhpyrrole>  (126) 
0

>  <fr_SH>  (126) 
0

>  <fr_aldehyde>  (126) 
0

>  <fr_alkyl_carbamate>  (126) 
0

>  <fr_alkyl_halide>  (126) 
0

>  <fr_allylic_oxid>  (126) 
0

>  <fr_amide>  (126) 
0

>  <fr_amidine>  (126) 
0

>  <fr_aniline>  (126) 
1

>  <fr_aryl_methyl>  (126) 
0

>  <fr_azide>  (126) 
0

>  <fr_azo>  (126) 
0

>  <fr_barbitur>  (126) 
0

>  <fr_benzene>  (126) 
0

>  <fr_benzodiazepine>  (126) 
0

>  <fr_bicyclic>  (126) 
1

>  <fr_diazo>  (126) 
0

>  <fr_dihydropyridine>  (126) 
0

>  <fr_epoxide>  (126) 
0

>  <fr_ester>  (126) 
0

>  <fr_ether>  (126) 
1

>  <fr_furan>  (126) 
0

>  <fr_guanido>  (126) 
0

>  <fr_halogen>  (126) 
0

>  <fr_hdrzine>  (126) 
0

>  <fr_hdrzone>  (126) 
0

>  <fr_imidazole>  (126) 
1

>  <fr_imide>  (126) 
0

>  <fr_isocyan>  (126) 
0

>  <fr_isothiocyan>  (126) 
0

>  <fr_ketone>  (126) 
0

>  <fr_ketone_Topliss>  (126) 
0

>  <fr_lactam>  (126) 
0

>  <fr_lactone>  (126) 
0

>  <fr_methoxy>  (126) 
0

>  <fr_morpholine>  (126) 
0

>  <fr_nitrile>  (126) 
0

>  <fr_nitro>  (126) 
0

>  <fr_nitro_arom>  (126) 
0

>  <fr_nitro_arom_nonortho>  (126) 
0

>  <fr_nitroso>  (126) 
0

>  <fr_oxazole>  (126) 
0

>  <fr_oxime>  (126) 
0

>  <fr_para_hydroxylation>  (126) 
0

>  <fr_phenol>  (126) 
0

>  <fr_phenol_noOrthoHbond>  (126) 
0

>  <fr_phos_acid>  (126) 
3

>  <fr_phos_ester>  (126) 
1

>  <fr_piperdine>  (126) 
0

>  <fr_piperzine>  (126) 
0

>  <fr_priamide>  (126) 
0

>  <fr_prisulfonamd>  (126) 
0

>  <fr_pyridine>  (126) 
0

>  <fr_quatN>  (126) 
0

>  <fr_sulfide>  (126) 
0

>  <fr_sulfonamd>  (126) 
0

>  <fr_sulfone>  (126) 
0

>  <fr_term_acetylene>  (126) 
0

>  <fr_tetrazole>  (126) 
0

>  <fr_thiazole>  (126) 
0

>  <fr_thiocyan>  (126) 
0

>  <fr_thiophene>  (126) 
0

>  <fr_unbrch_alkane>  (126) 
0

>  <fr_urea>  (126) 
0

>  <NP_Likeness>  (126) 
0.811139

$$$$
ATP
     RDKit          3D

  0  0  0  0  0  0  0  0  0  0999 V3000
M  V30 BEGIN CTAB
M  V30 COUNTS 43 45 0 0 0
M  V30 BEGIN ATOM
M  V30 1 P -23.284000 -1.633000 18.344000 0
M  V30 2 P -25.716000 -3.327000 17.941000 0 CFG=2
M  V30 3 P -25.167000 -6.025000 18.854000 0 CFG=1
M  V30 4 O -23.539000 -0.309000 19.041000 0
M  V30 5 O -22.041000 -2.359000 18.835000 0 CHG=-1
M  V30 6 O -23.373000 -1.572000 16.853000 0 CHG=-1
M  V30 7 O -25.238000 -3.656000 16.555000 0
M  V30 8 O -26.990000 -2.516000 18.088000 0 CHG=-1
M  V30 9 O -25.417000 -6.891000 17.664000 0
M  V30 10 O -23.758000 -5.701000 19.278000 0 CHG=-1
M  V30 11 O -24.111000 -8.006000 24.714000 0
M  V30 12 O -23.029000 -6.314000 22.728000 0
M  V30 13 O -24.518000 -2.621000 18.823000 0
M  V30 14 O -26.059000 -4.693000 18.716000 0
M  V30 15 O -25.871000 -6.664000 20.146000 0
M  V30 16 O -26.318000 -7.888000 22.676000 0
M  V30 17 N -25.922000 -14.141000 20.183000 0
M  V30 18 N -25.887000 -14.046000 22.542000 0
M  V30 19 N -25.725000 -12.007000 23.696000 0
M  V30 20 N -25.708000 -11.133000 20.310000 0
M  V30 21 N -25.603000 -10.061000 22.208000 0
M  V30 22 C -25.960000 -5.889000 21.338000 0
M  V30 23 C -25.829000 -13.346000 23.683000 0
M  V30 24 C -25.621000 -9.917000 20.869000 0
M  V30 25 C -24.130000 -8.434000 23.362000 0 CFG=2
M  V30 26 C -24.076000 -7.271000 22.405000 0 CFG=1
M  V30 27 C -25.546000 -8.961000 23.194000 0 CFG=1
M  V30 28 C -25.860000 -13.421000 21.340000 0
M  V30 29 C -25.493000 -6.721000 22.520000 0 CFG=2
M  V30 30 C -25.703000 -11.343000 22.512000 0
M  V30 31 C -25.763000 -12.041000 21.316000 0
M  V30 32 H -23.270200 -7.494000 24.889800 0
M  V30 33 H -22.139800 -6.770700 22.700000 0
M  V30 34 H -25.901500 -13.671600 19.300300 0
M  V30 35 H -25.988000 -15.138200 20.217600 0
M  V30 36 H -26.908700 -5.607800 21.482600 0
M  V30 37 H -25.381400 -5.078000 21.252100 0
M  V30 38 H -25.864300 -13.836700 24.553600 0
M  V30 39 H -25.576900 -9.048900 20.374500 0
M  V30 40 H -23.435300 -9.126300 23.167000 0
M  V30 41 H -23.931500 -7.615300 21.477300 0
M  V30 42 H -25.913100 -9.261900 24.074200 0
M  V30 43 H -25.557600 -6.167000 23.350000 0
M  V30 END ATOM
M  V30 BEGIN BOND
M  V30 1 2 1 4
M  V30 2 1 1 5
M  V30 3 1 1 6
M  V30 4 1 1 13
M  V30 5 2 2 7
M  V30 6 1 2 8 CFG=3
M  V30 7 1 2 13
M  V30 8 1 2 14
M  V30 9 2 3 9
M  V30 10 1 3 10 CFG=1
M  V30 11 1 3 14
M  V30 12 1 3 15
M  V30 13 1 11 25
M  V30 14 1 12 26
M  V30 15 1 15 22
M  V30 16 1 16 27
M  V30 17 1 16 29
M  V30 18 1 17 28
M  V30 19 2 18 23
M  V30 20 1 18 28
M  V30 21 1 19 23
M  V30 22 2 19 30
M  V30 23 2 20 24
M  V30 24 1 20 31
M  V30 25 1 21 24
M  V30 26 1 21 27
M  V30 27 1 21 30
M  V30 28 1 22 29
M  V30 29 1 25 26
M  V30 30 1 25 27
M  V30 31 1 26 29
M  V30 32 2 28 31
M  V30 33 1 30 31
M  V30 34 1 29 43 CFG=1
M  V30 35 1 27 42 CFG=1
M  V30 36 1 26 41 CFG=3
M  V30 37 1 25 40 CFG=1
M  V30 38 1 11 32
M  V30 39 1 12 33
M  V30 40 1 17 34
M  V30 41 1 17 35
M  V30 42 1 22 36
M  V30 43 1 22 37
M  V30 44 1 23 38
M  V30 45 1 24 39
M  V30 END BOND
M  V30 END CTAB
M  END
>  <Ligand_Instance>  (127) 
3X2V_ATP_A_403

>  <Dataset>  (127) 
PDB

>  <PDB_ID>  (127) 
3X2V

>  <Chain>  (127) 
A

>  <Resi>  (127) 
403

>  <Num_Resolved_Atoms>  (127) 
31

>  <Num_H_Atoms_ProtBoundConf>  (127) 
12

>  <Pocket>  (127) 
A

>  <Name>  (127) 
ADENOSINE-5'-TRIPHOSPHATE

>  <Num_Not_Resolved_Atoms>  (127) 
0

>  <ATP_Site>  (127) 
True

>  <Peripheral>  (127) 
False

>  <Standardized_SMILES>  (127) 
[H]O[C@@]1([H])[C@@]([H])(O[H])[C@]([H])(N2C([H])=NC3=C2N=C([H])N=C3N([H])[H])O[C@]1([H])C([H])([H])O[P@](=O)([O-])O[P@@](=O)([O-])OP(=O)([O-])[O-]

>  <2D_Mol_H>  (127) 
<rdkit.Chem.rdchem.Mol object at 0x77059d9f90e0>

>  <MW>  (127) 
503.15

>  <HBA>  (127) 
18

>  <HBD>  (127) 
3

>  <LogP>  (127) 
-4.157

>  <NRB>  (127) 
11

>  <TPSA>  (127) 
290.45

>  <Num_Heavy_Atoms>  (127) 
31

>  <Ro5>  (127) 
[False, False, True, True, False, False]

>  <Ro5_Fulfilled>  (127) 
False

>  <Ro3>  (127) 
[False, False, True, True]

>  <Ro3_Fulfilled>  (127) 
False

>  <Fsp3>  (127) 
0.5

>  <Fsp3_0.42>  (127) 
True

>  <Fsp3_0.45>  (127) 
True

>  <Stereogenic_Carbons>  (127) 
4

>  <C_Atoms>  (127) 
10

>  <FCStereo>  (127) 
0.4

>  <SPS>  (127) 
882

>  <nSPS>  (127) 
28.451613

>  <PBF>  (127) 
0.792067

>  <PBF_0.6>  (127) 
True

>  <nPBF>  (127) 
0.025551

>  <nPBF_0.016>  (127) 
True

>  <PMI1>  (127) 
1717.547261

>  <PMI2>  (127) 
9755.525888

>  <PMI3>  (127) 
10622.269223

>  <NPR1>  (127) 
0.161693

>  <NPR2>  (127) 
0.918403

>  <Sum_NPR>  (127) 
1.080096

>  <Sum_NPR_1.07>  (127) 
True

>  <Sum_NPR_1.2>  (127) 
False

>  <MaxAbsEStateIndex>  (127) 
11.591022

>  <MaxEStateIndex>  (127) 
11.591022

>  <MinAbsEStateIndex>  (127) 
0.019517

>  <MinEStateIndex>  (127) 
-6.13789

>  <qed>  (127) 
0.28788

>  <MolWt>  (127) 
503.15

>  <HeavyAtomMolWt>  (127) 
491.054

>  <ExactMolWt>  (127) 
502.96664

>  <NumValenceElectrons>  (127) 
174

>  <NumRadicalElectrons>  (127) 
0

>  <MaxPartialCharge>  (127) 
0.277775

>  <MinPartialCharge>  (127) 
-0.789509

>  <MaxAbsPartialCharge>  (127) 
0.789509

>  <MinAbsPartialCharge>  (127) 
0.277775

>  <FpDensityMorgan1>  (127) 
1.064516

>  <FpDensityMorgan2>  (127) 
1.741935

>  <FpDensityMorgan3>  (127) 
2.387097

>  <BCUT2D_MWHI>  (127) 
31.29809

>  <BCUT2D_MWLOW>  (127) 
10.128388

>  <BCUT2D_CHGHI>  (127) 
2.446414

>  <BCUT2D_CHGLO>  (127) 
-2.372117

>  <BCUT2D_LOGPHI>  (127) 
2.601149

>  <BCUT2D_LOGPLOW>  (127) 
-2.337005

>  <BCUT2D_MRHI>  (127) 
7.643939

>  <BCUT2D_MRLOW>  (127) 
-0.338932

>  <AvgIpc>  (127) 
3.133568

>  <BalabanJ>  (127) 
1.689409

>  <BertzCT>  (127) 
1104.784407

>  <Chi0>  (127) 
23.18987

>  <Chi0n>  (127) 
14.764212

>  <Chi0v>  (127) 
17.447494

>  <Chi1>  (127) 
14.190889

>  <Chi1n>  (127) 
7.849713

>  <Chi1v>  (127) 
12.231493

>  <Chi2n>  (127) 
5.929951

>  <Chi2v>  (127) 
10.177826

>  <Chi3n>  (127) 
3.795354

>  <Chi3v>  (127) 
7.460653

>  <Chi4n>  (127) 
2.601107

>  <Chi4v>  (127) 
5.466344

>  <HallKierAlpha>  (127) 
-1.36

>  <Ipc>  (127) 
3947352.346056

>  <Kappa1>  (127) 
24.285736

>  <Kappa2>  (127) 
8.532213

>  <Kappa3>  (127) 
5.714341

>  <LabuteASA>  (127) 
171.218329

>  <PEOE_VSA1>  (127) 
49.346027

>  <PEOE_VSA10>  (127) 
30.15592

>  <PEOE_VSA11>  (127) 
17.692941

>  <PEOE_VSA12>  (127) 
0.0

>  <PEOE_VSA13>  (127) 
15.645394

>  <PEOE_VSA14>  (127) 
0.0

>  <PEOE_VSA2>  (127) 
18.007828

>  <PEOE_VSA3>  (127) 
19.262567

>  <PEOE_VSA4>  (127) 
0.0

>  <PEOE_VSA5>  (127) 
0.0

>  <PEOE_VSA6>  (127) 
0.0

>  <PEOE_VSA7>  (127) 
0.0

>  <PEOE_VSA8>  (127) 
0.0

>  <PEOE_VSA9>  (127) 
20.756899

>  <SMR_VSA1>  (127) 
61.363719

>  <SMR_VSA10>  (127) 
40.449832

>  <SMR_VSA2>  (127) 
0.0

>  <SMR_VSA3>  (127) 
19.519035

>  <SMR_VSA4>  (127) 
0.0

>  <SMR_VSA5>  (127) 
24.5398

>  <SMR_VSA6>  (127) 
12.340549

>  <SMR_VSA7>  (127) 
12.65464

>  <SMR_VSA8>  (127) 
0.0

>  <SMR_VSA9>  (127) 
0.0

>  <SlogP_VSA1>  (127) 
25.307314

>  <SlogP_VSA10>  (127) 
5.817863

>  <SlogP_VSA11>  (127) 
0.0

>  <SlogP_VSA12>  (127) 
23.468091

>  <SlogP_VSA2>  (127) 
54.650871

>  <SlogP_VSA3>  (127) 
31.577018

>  <SlogP_VSA4>  (127) 
0.0

>  <SlogP_VSA5>  (127) 
6.227901

>  <SlogP_VSA6>  (127) 
12.65464

>  <SlogP_VSA7>  (127) 
0.0

>  <SlogP_VSA8>  (127) 
11.163878

>  <SlogP_VSA9>  (127) 
0.0

>  <EState_VSA1>  (127) 
54.614774

>  <EState_VSA10>  (127) 
43.481846

>  <EState_VSA11>  (127) 
0.0

>  <EState_VSA2>  (127) 
16.981741

>  <EState_VSA3>  (127) 
0.0

>  <EState_VSA4>  (127) 
12.65464

>  <EState_VSA5>  (127) 
4.5671

>  <EState_VSA6>  (127) 
0.0

>  <EState_VSA7>  (127) 
0.0

>  <EState_VSA8>  (127) 
28.096945

>  <EState_VSA9>  (127) 
10.47053

>  <VSA_EState1>  (127) 
50.204863

>  <VSA_EState10>  (127) 
0.0

>  <VSA_EState2>  (127) 
54.927006

>  <VSA_EState3>  (127) 
20.320829

>  <VSA_EState4>  (127) 
5.922478

>  <VSA_EState5>  (127) 
0.019517

>  <VSA_EState6>  (127) 
0.0

>  <VSA_EState7>  (127) 
-3.993378

>  <VSA_EState8>  (127) 
-1.07771

>  <VSA_EState9>  (127) 
-18.073605

>  <FractionCSP3>  (127) 
0.5

>  <HeavyAtomCount>  (127) 
31

>  <NHOHCount>  (127) 
4

>  <NOCount>  (127) 
18

>  <NumAliphaticCarbocycles>  (127) 
0

>  <NumAliphaticHeterocycles>  (127) 
1

>  <NumAliphaticRings>  (127) 
1

>  <NumAromaticCarbocycles>  (127) 
0

>  <NumAromaticHeterocycles>  (127) 
2

>  <NumAromaticRings>  (127) 
2

>  <NumHAcceptors>  (127) 
18

>  <NumHDonors>  (127) 
3

>  <NumHeteroatoms>  (127) 
21

>  <NumRotatableBonds>  (127) 
8

>  <NumSaturatedCarbocycles>  (127) 
0

>  <NumSaturatedHeterocycles>  (127) 
1

>  <NumSaturatedRings>  (127) 
1

>  <RingCount>  (127) 
3

>  <MolLogP>  (127) 
-4.157

>  <MolMR>  (127) 
86.6005

>  <fr_Al_COO>  (127) 
0

>  <fr_Al_OH>  (127) 
2

>  <fr_Al_OH_noTert>  (127) 
2

>  <fr_ArN>  (127) 
1

>  <fr_Ar_COO>  (127) 
0

>  <fr_Ar_N>  (127) 
4

>  <fr_Ar_NH>  (127) 
0

>  <fr_Ar_OH>  (127) 
0

>  <fr_COO>  (127) 
0

>  <fr_COO2>  (127) 
0

>  <fr_C_O>  (127) 
0

>  <fr_C_O_noCOO>  (127) 
0

>  <fr_C_S>  (127) 
0

>  <fr_HOCCN>  (127) 
0

>  <fr_Imine>  (127) 
0

>  <fr_NH0>  (127) 
4

>  <fr_NH1>  (127) 
0

>  <fr_NH2>  (127) 
1

>  <fr_N_O>  (127) 
0

>  <fr_Ndealkylation1>  (127) 
0

>  <fr_Ndealkylation2>  (127) 
0

>  <fr_Nhpyrrole>  (127) 
0

>  <fr_SH>  (127) 
0

>  <fr_aldehyde>  (127) 
0

>  <fr_alkyl_carbamate>  (127) 
0

>  <fr_alkyl_halide>  (127) 
0

>  <fr_allylic_oxid>  (127) 
0

>  <fr_amide>  (127) 
0

>  <fr_amidine>  (127) 
0

>  <fr_aniline>  (127) 
1

>  <fr_aryl_methyl>  (127) 
0

>  <fr_azide>  (127) 
0

>  <fr_azo>  (127) 
0

>  <fr_barbitur>  (127) 
0

>  <fr_benzene>  (127) 
0

>  <fr_benzodiazepine>  (127) 
0

>  <fr_bicyclic>  (127) 
1

>  <fr_diazo>  (127) 
0

>  <fr_dihydropyridine>  (127) 
0

>  <fr_epoxide>  (127) 
0

>  <fr_ester>  (127) 
0

>  <fr_ether>  (127) 
1

>  <fr_furan>  (127) 
0

>  <fr_guanido>  (127) 
0

>  <fr_halogen>  (127) 
0

>  <fr_hdrzine>  (127) 
0

>  <fr_hdrzone>  (127) 
0

>  <fr_imidazole>  (127) 
1

>  <fr_imide>  (127) 
0

>  <fr_isocyan>  (127) 
0

>  <fr_isothiocyan>  (127) 
0

>  <fr_ketone>  (127) 
0

>  <fr_ketone_Topliss>  (127) 
0

>  <fr_lactam>  (127) 
0

>  <fr_lactone>  (127) 
0

>  <fr_methoxy>  (127) 
0

>  <fr_morpholine>  (127) 
0

>  <fr_nitrile>  (127) 
0

>  <fr_nitro>  (127) 
0

>  <fr_nitro_arom>  (127) 
0

>  <fr_nitro_arom_nonortho>  (127) 
0

>  <fr_nitroso>  (127) 
0

>  <fr_oxazole>  (127) 
0

>  <fr_oxime>  (127) 
0

>  <fr_para_hydroxylation>  (127) 
0

>  <fr_phenol>  (127) 
0

>  <fr_phenol_noOrthoHbond>  (127) 
0

>  <fr_phos_acid>  (127) 
3

>  <fr_phos_ester>  (127) 
1

>  <fr_piperdine>  (127) 
0

>  <fr_piperzine>  (127) 
0

>  <fr_priamide>  (127) 
0

>  <fr_prisulfonamd>  (127) 
0

>  <fr_pyridine>  (127) 
0

>  <fr_quatN>  (127) 
0

>  <fr_sulfide>  (127) 
0

>  <fr_sulfonamd>  (127) 
0

>  <fr_sulfone>  (127) 
0

>  <fr_term_acetylene>  (127) 
0

>  <fr_tetrazole>  (127) 
0

>  <fr_thiazole>  (127) 
0

>  <fr_thiocyan>  (127) 
0

>  <fr_thiophene>  (127) 
0

>  <fr_unbrch_alkane>  (127) 
0

>  <fr_urea>  (127) 
0

>  <NP_Likeness>  (127) 
0.811139

$$$$
ATP
     RDKit          3D

  0  0  0  0  0  0  0  0  0  0999 V3000
M  V30 BEGIN CTAB
M  V30 COUNTS 43 45 0 0 0
M  V30 BEGIN ATOM
M  V30 1 P -1.037000 -11.445000 16.220000 0
M  V30 2 P -2.344000 -11.727000 13.561000 0 CFG=2
M  V30 3 P -5.003000 -10.704000 13.767000 0 CFG=1
M  V30 4 O 0.333000 -10.750000 16.185000 0
M  V30 5 O -1.863000 -10.902000 17.400000 0 CHG=-1
M  V30 6 O -0.911000 -12.955000 16.134000 0 CHG=-1
M  V30 7 O -2.767000 -13.091000 14.106000 0
M  V30 8 O -1.466000 -11.665000 12.358000 0 CHG=-1
M  V30 9 O -6.005000 -11.816000 13.421000 0
M  V30 10 O -4.763000 -10.320000 15.208000 0 CHG=-1
M  V30 11 O -6.845000 -4.761000 14.535000 0
M  V30 12 O -5.466000 -6.836000 15.755000 0
M  V30 13 O -1.759000 -10.880000 14.838000 0
M  V30 14 O -3.645000 -10.943000 12.978000 0
M  V30 15 O -5.558000 -9.385000 13.010000 0
M  V30 16 O -6.499000 -6.818000 12.280000 0
M  V30 17 N -12.983000 -9.028000 12.127000 0
M  V30 18 N -12.738000 -6.683000 12.094000 0
M  V30 19 N -10.656000 -5.654000 12.368000 0
M  V30 20 N -9.971000 -9.101000 12.612000 0
M  V30 21 N -8.804000 -7.235000 12.716000 0
M  V30 22 C -4.701000 -8.267000 12.991000 0
M  V30 23 C -11.976000 -5.589000 12.173000 0
M  V30 24 C -8.733000 -8.581000 12.774000 0
M  V30 25 C -7.369000 -6.077000 14.341000 0 CFG=2
M  V30 26 C -6.303000 -7.118000 14.609000 0 CFG=1
M  V30 27 C -7.679000 -6.267000 12.871000 0 CFG=1
M  V30 28 C -12.198000 -7.933000 12.219000 0
M  V30 29 C -5.528000 -7.043000 13.318000 0 CFG=2
M  V30 30 C -10.076000 -6.883000 12.497000 0
M  V30 31 C -10.831000 -8.050000 12.430000 0
M  V30 32 H -6.125800 -4.787600 15.229200 0
M  V30 33 H -6.033200 -6.781600 16.576800 0
M  V30 34 H -12.582400 -9.939600 12.219200 0
M  V30 35 H -13.964900 -8.927200 11.966600 0
M  V30 36 H -4.291300 -8.168100 12.084200 0
M  V30 37 H -3.978300 -8.381000 13.672700 0
M  V30 38 H -12.407800 -4.691500 12.083200 0
M  V30 39 H -7.896600 -9.110800 12.914600 0
M  V30 40 H -8.179100 -6.232600 14.906300 0
M  V30 41 H -6.722300 -8.020800 14.704900 0
M  V30 42 H -7.908400 -5.391800 12.445200 0
M  V30 43 H -4.919000 -6.250900 13.359500 0
M  V30 END ATOM
M  V30 BEGIN BOND
M  V30 1 2 1 4
M  V30 2 1 1 5
M  V30 3 1 1 6
M  V30 4 1 1 13
M  V30 5 2 2 7
M  V30 6 1 2 8 CFG=3
M  V30 7 1 2 13
M  V30 8 1 2 14
M  V30 9 2 3 9
M  V30 10 1 3 10 CFG=1
M  V30 11 1 3 14
M  V30 12 1 3 15
M  V30 13 1 11 25
M  V30 14 1 12 26
M  V30 15 1 15 22
M  V30 16 1 16 27
M  V30 17 1 16 29
M  V30 18 1 17 28
M  V30 19 2 18 23
M  V30 20 1 18 28
M  V30 21 1 19 23
M  V30 22 2 19 30
M  V30 23 2 20 24
M  V30 24 1 20 31
M  V30 25 1 21 24
M  V30 26 1 21 27
M  V30 27 1 21 30
M  V30 28 1 22 29
M  V30 29 1 25 26
M  V30 30 1 25 27
M  V30 31 1 26 29
M  V30 32 2 28 31
M  V30 33 1 30 31
M  V30 34 1 29 43 CFG=1
M  V30 35 1 27 42 CFG=3
M  V30 36 1 26 41 CFG=1
M  V30 37 1 25 40 CFG=1
M  V30 38 1 11 32
M  V30 39 1 12 33
M  V30 40 1 17 34
M  V30 41 1 17 35
M  V30 42 1 22 36
M  V30 43 1 22 37
M  V30 44 1 23 38
M  V30 45 1 24 39
M  V30 END BOND
M  V30 END CTAB
M  END
>  <Ligand_Instance>  (128) 
3X2W_ATP_A_403

>  <Dataset>  (128) 
PDB

>  <PDB_ID>  (128) 
3X2W

>  <Chain>  (128) 
A

>  <Resi>  (128) 
403

>  <Num_Resolved_Atoms>  (128) 
31

>  <Num_H_Atoms_ProtBoundConf>  (128) 
12

>  <Pocket>  (128) 
A

>  <Name>  (128) 
ADENOSINE-5'-TRIPHOSPHATE

>  <Num_Not_Resolved_Atoms>  (128) 
0

>  <ATP_Site>  (128) 
True

>  <Peripheral>  (128) 
False

>  <Standardized_SMILES>  (128) 
[H]O[C@@]1([H])[C@@]([H])(O[H])[C@]([H])(N2C([H])=NC3=C2N=C([H])N=C3N([H])[H])O[C@]1([H])C([H])([H])O[P@](=O)([O-])O[P@@](=O)([O-])OP(=O)([O-])[O-]

>  <2D_Mol_H>  (128) 
<rdkit.Chem.rdchem.Mol object at 0x77059d9f91c0>

>  <MW>  (128) 
503.15

>  <HBA>  (128) 
18

>  <HBD>  (128) 
3

>  <LogP>  (128) 
-4.157

>  <NRB>  (128) 
11

>  <TPSA>  (128) 
290.45

>  <Num_Heavy_Atoms>  (128) 
31

>  <Ro5>  (128) 
[False, False, True, True, False, False]

>  <Ro5_Fulfilled>  (128) 
False

>  <Ro3>  (128) 
[False, False, True, True]

>  <Ro3_Fulfilled>  (128) 
False

>  <Fsp3>  (128) 
0.5

>  <Fsp3_0.42>  (128) 
True

>  <Fsp3_0.45>  (128) 
True

>  <Stereogenic_Carbons>  (128) 
4

>  <C_Atoms>  (128) 
10

>  <FCStereo>  (128) 
0.4

>  <SPS>  (128) 
882

>  <nSPS>  (128) 
28.451613

>  <PBF>  (128) 
0.807448

>  <PBF_0.6>  (128) 
True

>  <nPBF>  (128) 
0.026047

>  <nPBF_0.016>  (128) 
True

>  <PMI1>  (128) 
1718.907288

>  <PMI2>  (128) 
9728.543391

>  <PMI3>  (128) 
10543.002838

>  <NPR1>  (128) 
0.163038

>  <NPR2>  (128) 
0.922749

>  <Sum_NPR>  (128) 
1.085787

>  <Sum_NPR_1.07>  (128) 
True

>  <Sum_NPR_1.2>  (128) 
False

>  <MaxAbsEStateIndex>  (128) 
11.591022

>  <MaxEStateIndex>  (128) 
11.591022

>  <MinAbsEStateIndex>  (128) 
0.019517

>  <MinEStateIndex>  (128) 
-6.13789

>  <qed>  (128) 
0.28788

>  <MolWt>  (128) 
503.15

>  <HeavyAtomMolWt>  (128) 
491.054

>  <ExactMolWt>  (128) 
502.96664

>  <NumValenceElectrons>  (128) 
174

>  <NumRadicalElectrons>  (128) 
0

>  <MaxPartialCharge>  (128) 
0.277775

>  <MinPartialCharge>  (128) 
-0.789509

>  <MaxAbsPartialCharge>  (128) 
0.789509

>  <MinAbsPartialCharge>  (128) 
0.277775

>  <FpDensityMorgan1>  (128) 
1.064516

>  <FpDensityMorgan2>  (128) 
1.741935

>  <FpDensityMorgan3>  (128) 
2.387097

>  <BCUT2D_MWHI>  (128) 
31.29809

>  <BCUT2D_MWLOW>  (128) 
10.128388

>  <BCUT2D_CHGHI>  (128) 
2.446414

>  <BCUT2D_CHGLO>  (128) 
-2.372117

>  <BCUT2D_LOGPHI>  (128) 
2.601149

>  <BCUT2D_LOGPLOW>  (128) 
-2.337005

>  <BCUT2D_MRHI>  (128) 
7.643939

>  <BCUT2D_MRLOW>  (128) 
-0.338932

>  <AvgIpc>  (128) 
3.133568

>  <BalabanJ>  (128) 
1.689409

>  <BertzCT>  (128) 
1104.784407

>  <Chi0>  (128) 
23.18987

>  <Chi0n>  (128) 
14.764212

>  <Chi0v>  (128) 
17.447494

>  <Chi1>  (128) 
14.190889

>  <Chi1n>  (128) 
7.849713

>  <Chi1v>  (128) 
12.231493

>  <Chi2n>  (128) 
5.929951

>  <Chi2v>  (128) 
10.177826

>  <Chi3n>  (128) 
3.795354

>  <Chi3v>  (128) 
7.460653

>  <Chi4n>  (128) 
2.601107

>  <Chi4v>  (128) 
5.466344

>  <HallKierAlpha>  (128) 
-1.36

>  <Ipc>  (128) 
3947352.346056

>  <Kappa1>  (128) 
24.285736

>  <Kappa2>  (128) 
8.532213

>  <Kappa3>  (128) 
5.714341

>  <LabuteASA>  (128) 
171.218329

>  <PEOE_VSA1>  (128) 
49.346027

>  <PEOE_VSA10>  (128) 
30.15592

>  <PEOE_VSA11>  (128) 
17.692941

>  <PEOE_VSA12>  (128) 
0.0

>  <PEOE_VSA13>  (128) 
15.645394

>  <PEOE_VSA14>  (128) 
0.0

>  <PEOE_VSA2>  (128) 
18.007828

>  <PEOE_VSA3>  (128) 
19.262567

>  <PEOE_VSA4>  (128) 
0.0

>  <PEOE_VSA5>  (128) 
0.0

>  <PEOE_VSA6>  (128) 
0.0

>  <PEOE_VSA7>  (128) 
0.0

>  <PEOE_VSA8>  (128) 
0.0

>  <PEOE_VSA9>  (128) 
20.756899

>  <SMR_VSA1>  (128) 
61.363719

>  <SMR_VSA10>  (128) 
40.449832

>  <SMR_VSA2>  (128) 
0.0

>  <SMR_VSA3>  (128) 
19.519035

>  <SMR_VSA4>  (128) 
0.0

>  <SMR_VSA5>  (128) 
24.5398

>  <SMR_VSA6>  (128) 
12.340549

>  <SMR_VSA7>  (128) 
12.65464

>  <SMR_VSA8>  (128) 
0.0

>  <SMR_VSA9>  (128) 
0.0

>  <SlogP_VSA1>  (128) 
25.307314

>  <SlogP_VSA10>  (128) 
5.817863

>  <SlogP_VSA11>  (128) 
0.0

>  <SlogP_VSA12>  (128) 
23.468091

>  <SlogP_VSA2>  (128) 
54.650871

>  <SlogP_VSA3>  (128) 
31.577018

>  <SlogP_VSA4>  (128) 
0.0

>  <SlogP_VSA5>  (128) 
6.227901

>  <SlogP_VSA6>  (128) 
12.65464

>  <SlogP_VSA7>  (128) 
0.0

>  <SlogP_VSA8>  (128) 
11.163878

>  <SlogP_VSA9>  (128) 
0.0

>  <EState_VSA1>  (128) 
54.614774

>  <EState_VSA10>  (128) 
43.481846

>  <EState_VSA11>  (128) 
0.0

>  <EState_VSA2>  (128) 
16.981741

>  <EState_VSA3>  (128) 
0.0

>  <EState_VSA4>  (128) 
12.65464

>  <EState_VSA5>  (128) 
4.5671

>  <EState_VSA6>  (128) 
0.0

>  <EState_VSA7>  (128) 
0.0

>  <EState_VSA8>  (128) 
28.096945

>  <EState_VSA9>  (128) 
10.47053

>  <VSA_EState1>  (128) 
50.204863

>  <VSA_EState10>  (128) 
0.0

>  <VSA_EState2>  (128) 
54.927006

>  <VSA_EState3>  (128) 
20.320829

>  <VSA_EState4>  (128) 
5.922478

>  <VSA_EState5>  (128) 
0.019517

>  <VSA_EState6>  (128) 
0.0

>  <VSA_EState7>  (128) 
-3.993378

>  <VSA_EState8>  (128) 
-1.07771

>  <VSA_EState9>  (128) 
-18.073605

>  <FractionCSP3>  (128) 
0.5

>  <HeavyAtomCount>  (128) 
31

>  <NHOHCount>  (128) 
4

>  <NOCount>  (128) 
18

>  <NumAliphaticCarbocycles>  (128) 
0

>  <NumAliphaticHeterocycles>  (128) 
1

>  <NumAliphaticRings>  (128) 
1

>  <NumAromaticCarbocycles>  (128) 
0

>  <NumAromaticHeterocycles>  (128) 
2

>  <NumAromaticRings>  (128) 
2

>  <NumHAcceptors>  (128) 
18

>  <NumHDonors>  (128) 
3

>  <NumHeteroatoms>  (128) 
21

>  <NumRotatableBonds>  (128) 
8

>  <NumSaturatedCarbocycles>  (128) 
0

>  <NumSaturatedHeterocycles>  (128) 
1

>  <NumSaturatedRings>  (128) 
1

>  <RingCount>  (128) 
3

>  <MolLogP>  (128) 
-4.157

>  <MolMR>  (128) 
86.6005

>  <fr_Al_COO>  (128) 
0

>  <fr_Al_OH>  (128) 
2

>  <fr_Al_OH_noTert>  (128) 
2

>  <fr_ArN>  (128) 
1

>  <fr_Ar_COO>  (128) 
0

>  <fr_Ar_N>  (128) 
4

>  <fr_Ar_NH>  (128) 
0

>  <fr_Ar_OH>  (128) 
0

>  <fr_COO>  (128) 
0

>  <fr_COO2>  (128) 
0

>  <fr_C_O>  (128) 
0

>  <fr_C_O_noCOO>  (128) 
0

>  <fr_C_S>  (128) 
0

>  <fr_HOCCN>  (128) 
0

>  <fr_Imine>  (128) 
0

>  <fr_NH0>  (128) 
4

>  <fr_NH1>  (128) 
0

>  <fr_NH2>  (128) 
1

>  <fr_N_O>  (128) 
0

>  <fr_Ndealkylation1>  (128) 
0

>  <fr_Ndealkylation2>  (128) 
0

>  <fr_Nhpyrrole>  (128) 
0

>  <fr_SH>  (128) 
0

>  <fr_aldehyde>  (128) 
0

>  <fr_alkyl_carbamate>  (128) 
0

>  <fr_alkyl_halide>  (128) 
0

>  <fr_allylic_oxid>  (128) 
0

>  <fr_amide>  (128) 
0

>  <fr_amidine>  (128) 
0

>  <fr_aniline>  (128) 
1

>  <fr_aryl_methyl>  (128) 
0

>  <fr_azide>  (128) 
0

>  <fr_azo>  (128) 
0

>  <fr_barbitur>  (128) 
0

>  <fr_benzene>  (128) 
0

>  <fr_benzodiazepine>  (128) 
0

>  <fr_bicyclic>  (128) 
1

>  <fr_diazo>  (128) 
0

>  <fr_dihydropyridine>  (128) 
0

>  <fr_epoxide>  (128) 
0

>  <fr_ester>  (128) 
0

>  <fr_ether>  (128) 
1

>  <fr_furan>  (128) 
0

>  <fr_guanido>  (128) 
0

>  <fr_halogen>  (128) 
0

>  <fr_hdrzine>  (128) 
0

>  <fr_hdrzone>  (128) 
0

>  <fr_imidazole>  (128) 
1

>  <fr_imide>  (128) 
0

>  <fr_isocyan>  (128) 
0

>  <fr_isothiocyan>  (128) 
0

>  <fr_ketone>  (128) 
0

>  <fr_ketone_Topliss>  (128) 
0

>  <fr_lactam>  (128) 
0

>  <fr_lactone>  (128) 
0

>  <fr_methoxy>  (128) 
0

>  <fr_morpholine>  (128) 
0

>  <fr_nitrile>  (128) 
0

>  <fr_nitro>  (128) 
0

>  <fr_nitro_arom>  (128) 
0

>  <fr_nitro_arom_nonortho>  (128) 
0

>  <fr_nitroso>  (128) 
0

>  <fr_oxazole>  (128) 
0

>  <fr_oxime>  (128) 
0

>  <fr_para_hydroxylation>  (128) 
0

>  <fr_phenol>  (128) 
0

>  <fr_phenol_noOrthoHbond>  (128) 
0

>  <fr_phos_acid>  (128) 
3

>  <fr_phos_ester>  (128) 
1

>  <fr_piperdine>  (128) 
0

>  <fr_piperzine>  (128) 
0

>  <fr_priamide>  (128) 
0

>  <fr_prisulfonamd>  (128) 
0

>  <fr_pyridine>  (128) 
0

>  <fr_quatN>  (128) 
0

>  <fr_sulfide>  (128) 
0

>  <fr_sulfonamd>  (128) 
0

>  <fr_sulfone>  (128) 
0

>  <fr_term_acetylene>  (128) 
0

>  <fr_tetrazole>  (128) 
0

>  <fr_thiazole>  (128) 
0

>  <fr_thiocyan>  (128) 
0

>  <fr_thiophene>  (128) 
0

>  <fr_unbrch_alkane>  (128) 
0

>  <fr_urea>  (128) 
0

>  <NP_Likeness>  (128) 
0.811139

$$$$
ATP
     RDKit          3D

  0  0  0  0  0  0  0  0  0  0999 V3000
M  V30 BEGIN CTAB
M  V30 COUNTS 43 45 0 0 0
M  V30 BEGIN ATOM
M  V30 1 P -0.736000 11.726000 -16.141000 0
M  V30 2 P -2.391000 11.750000 -13.581000 0 CFG=2
M  V30 3 P -5.098000 10.553000 -13.123000 0 CFG=1
M  V30 4 O 0.349000 10.678000 -16.244000 0
M  V30 5 O -1.424000 11.941000 -17.471000 0 CHG=-1
M  V30 6 O -0.137000 12.976000 -15.596000 0 CHG=-1
M  V30 7 O -3.195000 12.991000 -13.808000 0
M  V30 8 O -1.243000 11.779000 -12.611000 0 CHG=-1
M  V30 9 O -5.653000 11.346000 -11.981000 0
M  V30 10 O -5.611000 10.842000 -14.497000 0 CHG=-1
M  V30 11 O -7.321000 4.344000 -14.474000 0
M  V30 12 O -6.094000 6.301000 -16.137000 0
M  V30 13 O -1.888000 11.161000 -15.069000 0
M  V30 14 O -3.454000 10.601000 -13.072000 0
M  V30 15 O -5.421000 8.990000 -12.809000 0
M  V30 16 O -6.965000 6.811000 -12.659000 0
M  V30 17 N -13.652000 8.836000 -12.403000 0
M  V30 18 N -13.319000 6.496000 -12.231000 0
M  V30 19 N -11.187000 5.487000 -12.503000 0
M  V30 20 N -10.546000 8.964000 -12.969000 0
M  V30 21 N -9.321000 7.086000 -12.986000 0
M  V30 22 C -5.046000 7.993000 -13.748000 0
M  V30 23 C -12.521000 5.404000 -12.264000 0
M  V30 24 C -9.313000 8.437000 -13.127000 0
M  V30 25 C -7.878000 5.672000 -14.489000 0 CFG=2
M  V30 26 C -6.870000 6.679000 -14.996000 0 CFG=1
M  V30 27 C -8.166000 6.135000 -13.078000 0 CFG=1
M  V30 28 C -12.834000 7.758000 -12.443000 0
M  V30 29 C -6.010000 6.810000 -13.749000 0 CFG=2
M  V30 30 C -10.574000 6.698000 -12.732000 0
M  V30 31 C -11.384000 7.936000 -12.716000 0
M  V30 32 H -7.049500 4.085900 -15.401200 0
M  V30 33 H -6.703200 6.117900 -16.908600 0
M  V30 34 H -13.281000 9.751200 -12.560200 0
M  V30 35 H -14.627200 8.717000 -12.216300 0
M  V30 36 H -4.130700 7.662300 -13.518200 0
M  V30 37 H -5.034000 8.399400 -14.661600 0
M  V30 38 H -12.927900 4.504200 -12.106900 0
M  V30 39 H -8.493800 8.975600 -13.323800 0
M  V30 40 H -8.709600 5.697800 -15.043700 0
M  V30 41 H -7.329200 7.548500 -15.177700 0
M  V30 42 H -8.331700 5.343700 -12.489500 0
M  V30 43 H -5.463800 5.976000 -13.670500 0
M  V30 END ATOM
M  V30 BEGIN BOND
M  V30 1 2 1 4
M  V30 2 1 1 5
M  V30 3 1 1 6
M  V30 4 1 1 13
M  V30 5 2 2 7
M  V30 6 1 2 8 CFG=1
M  V30 7 1 2 13
M  V30 8 1 2 14
M  V30 9 2 3 9
M  V30 10 1 3 10 CFG=3
M  V30 11 1 3 14
M  V30 12 1 3 15
M  V30 13 1 11 25
M  V30 14 1 12 26
M  V30 15 1 15 22
M  V30 16 1 16 27
M  V30 17 1 16 29
M  V30 18 1 17 28
M  V30 19 2 18 23
M  V30 20 1 18 28
M  V30 21 1 19 23
M  V30 22 2 19 30
M  V30 23 2 20 24
M  V30 24 1 20 31
M  V30 25 1 21 24
M  V30 26 1 21 27
M  V30 27 1 21 30
M  V30 28 1 22 29
M  V30 29 1 25 26
M  V30 30 1 25 27
M  V30 31 1 26 29
M  V30 32 2 28 31
M  V30 33 1 30 31
M  V30 34 1 29 43 CFG=1
M  V30 35 1 27 42 CFG=1
M  V30 36 1 26 41 CFG=3
M  V30 37 1 25 40 CFG=3
M  V30 38 1 11 32
M  V30 39 1 12 33
M  V30 40 1 17 34
M  V30 41 1 17 35
M  V30 42 1 22 36
M  V30 43 1 22 37
M  V30 44 1 23 38
M  V30 45 1 24 39
M  V30 END BOND
M  V30 END CTAB
M  END
>  <Ligand_Instance>  (129) 
4DH1_ATP_A_402

>  <Dataset>  (129) 
PDB

>  <PDB_ID>  (129) 
4DH1

>  <Chain>  (129) 
A

>  <Resi>  (129) 
402

>  <Num_Resolved_Atoms>  (129) 
31

>  <Num_H_Atoms_ProtBoundConf>  (129) 
12

>  <Pocket>  (129) 
A

>  <Name>  (129) 
ADENOSINE-5'-TRIPHOSPHATE

>  <Num_Not_Resolved_Atoms>  (129) 
0

>  <ATP_Site>  (129) 
True

>  <Peripheral>  (129) 
False

>  <Standardized_SMILES>  (129) 
[H]O[C@@]1([H])[C@@]([H])(O[H])[C@]([H])(N2C([H])=NC3=C2N=C([H])N=C3N([H])[H])O[C@]1([H])C([H])([H])O[P@](=O)([O-])O[P@@](=O)([O-])OP(=O)([O-])[O-]

>  <2D_Mol_H>  (129) 
<rdkit.Chem.rdchem.Mol object at 0x77059d9f92a0>

>  <MW>  (129) 
503.15

>  <HBA>  (129) 
18

>  <HBD>  (129) 
3

>  <LogP>  (129) 
-4.157

>  <NRB>  (129) 
11

>  <TPSA>  (129) 
290.45

>  <Num_Heavy_Atoms>  (129) 
31

>  <Ro5>  (129) 
[False, False, True, True, False, False]

>  <Ro5_Fulfilled>  (129) 
False

>  <Ro3>  (129) 
[False, False, True, True]

>  <Ro3_Fulfilled>  (129) 
False

>  <Fsp3>  (129) 
0.5

>  <Fsp3_0.42>  (129) 
True

>  <Fsp3_0.45>  (129) 
True

>  <Stereogenic_Carbons>  (129) 
4

>  <C_Atoms>  (129) 
10

>  <FCStereo>  (129) 
0.4

>  <SPS>  (129) 
882

>  <nSPS>  (129) 
28.451613

>  <PBF>  (129) 
0.824085

>  <PBF_0.6>  (129) 
True

>  <nPBF>  (129) 
0.026583

>  <nPBF_0.016>  (129) 
True

>  <PMI1>  (129) 
1839.344943

>  <PMI2>  (129) 
11069.46641

>  <PMI3>  (129) 
12009.592934

>  <NPR1>  (129) 
0.153156

>  <NPR2>  (129) 
0.921719

>  <Sum_NPR>  (129) 
1.074875

>  <Sum_NPR_1.07>  (129) 
True

>  <Sum_NPR_1.2>  (129) 
False

>  <MaxAbsEStateIndex>  (129) 
11.591022

>  <MaxEStateIndex>  (129) 
11.591022

>  <MinAbsEStateIndex>  (129) 
0.019517

>  <MinEStateIndex>  (129) 
-6.13789

>  <qed>  (129) 
0.28788

>  <MolWt>  (129) 
503.15

>  <HeavyAtomMolWt>  (129) 
491.054

>  <ExactMolWt>  (129) 
502.96664

>  <NumValenceElectrons>  (129) 
174

>  <NumRadicalElectrons>  (129) 
0

>  <MaxPartialCharge>  (129) 
0.277775

>  <MinPartialCharge>  (129) 
-0.789509

>  <MaxAbsPartialCharge>  (129) 
0.789509

>  <MinAbsPartialCharge>  (129) 
0.277775

>  <FpDensityMorgan1>  (129) 
1.064516

>  <FpDensityMorgan2>  (129) 
1.741935

>  <FpDensityMorgan3>  (129) 
2.387097

>  <BCUT2D_MWHI>  (129) 
31.29809

>  <BCUT2D_MWLOW>  (129) 
10.128388

>  <BCUT2D_CHGHI>  (129) 
2.446414

>  <BCUT2D_CHGLO>  (129) 
-2.372117

>  <BCUT2D_LOGPHI>  (129) 
2.601149

>  <BCUT2D_LOGPLOW>  (129) 
-2.337005

>  <BCUT2D_MRHI>  (129) 
7.643939

>  <BCUT2D_MRLOW>  (129) 
-0.338932

>  <AvgIpc>  (129) 
3.133568

>  <BalabanJ>  (129) 
1.689409

>  <BertzCT>  (129) 
1104.784407

>  <Chi0>  (129) 
23.18987

>  <Chi0n>  (129) 
14.764212

>  <Chi0v>  (129) 
17.447494

>  <Chi1>  (129) 
14.190889

>  <Chi1n>  (129) 
7.849713

>  <Chi1v>  (129) 
12.231493

>  <Chi2n>  (129) 
5.929951

>  <Chi2v>  (129) 
10.177826

>  <Chi3n>  (129) 
3.795354

>  <Chi3v>  (129) 
7.460653

>  <Chi4n>  (129) 
2.601107

>  <Chi4v>  (129) 
5.466344

>  <HallKierAlpha>  (129) 
-1.36

>  <Ipc>  (129) 
3947352.346056

>  <Kappa1>  (129) 
24.285736

>  <Kappa2>  (129) 
8.532213

>  <Kappa3>  (129) 
5.714341

>  <LabuteASA>  (129) 
171.218329

>  <PEOE_VSA1>  (129) 
49.346027

>  <PEOE_VSA10>  (129) 
30.15592

>  <PEOE_VSA11>  (129) 
17.692941

>  <PEOE_VSA12>  (129) 
0.0

>  <PEOE_VSA13>  (129) 
15.645394

>  <PEOE_VSA14>  (129) 
0.0

>  <PEOE_VSA2>  (129) 
18.007828

>  <PEOE_VSA3>  (129) 
19.262567

>  <PEOE_VSA4>  (129) 
0.0

>  <PEOE_VSA5>  (129) 
0.0

>  <PEOE_VSA6>  (129) 
0.0

>  <PEOE_VSA7>  (129) 
0.0

>  <PEOE_VSA8>  (129) 
0.0

>  <PEOE_VSA9>  (129) 
20.756899

>  <SMR_VSA1>  (129) 
61.363719

>  <SMR_VSA10>  (129) 
40.449832

>  <SMR_VSA2>  (129) 
0.0

>  <SMR_VSA3>  (129) 
19.519035

>  <SMR_VSA4>  (129) 
0.0

>  <SMR_VSA5>  (129) 
24.5398

>  <SMR_VSA6>  (129) 
12.340549

>  <SMR_VSA7>  (129) 
12.65464

>  <SMR_VSA8>  (129) 
0.0

>  <SMR_VSA9>  (129) 
0.0

>  <SlogP_VSA1>  (129) 
25.307314

>  <SlogP_VSA10>  (129) 
5.817863

>  <SlogP_VSA11>  (129) 
0.0

>  <SlogP_VSA12>  (129) 
23.468091

>  <SlogP_VSA2>  (129) 
54.650871

>  <SlogP_VSA3>  (129) 
31.577018

>  <SlogP_VSA4>  (129) 
0.0

>  <SlogP_VSA5>  (129) 
6.227901

>  <SlogP_VSA6>  (129) 
12.65464

>  <SlogP_VSA7>  (129) 
0.0

>  <SlogP_VSA8>  (129) 
11.163878

>  <SlogP_VSA9>  (129) 
0.0

>  <EState_VSA1>  (129) 
54.614774

>  <EState_VSA10>  (129) 
43.481846

>  <EState_VSA11>  (129) 
0.0

>  <EState_VSA2>  (129) 
16.981741

>  <EState_VSA3>  (129) 
0.0

>  <EState_VSA4>  (129) 
12.65464

>  <EState_VSA5>  (129) 
4.5671

>  <EState_VSA6>  (129) 
0.0

>  <EState_VSA7>  (129) 
0.0

>  <EState_VSA8>  (129) 
28.096945

>  <EState_VSA9>  (129) 
10.47053

>  <VSA_EState1>  (129) 
50.204863

>  <VSA_EState10>  (129) 
0.0

>  <VSA_EState2>  (129) 
54.927006

>  <VSA_EState3>  (129) 
20.320829

>  <VSA_EState4>  (129) 
5.922478

>  <VSA_EState5>  (129) 
0.019517

>  <VSA_EState6>  (129) 
0.0

>  <VSA_EState7>  (129) 
-3.993378

>  <VSA_EState8>  (129) 
-1.07771

>  <VSA_EState9>  (129) 
-18.073605

>  <FractionCSP3>  (129) 
0.5

>  <HeavyAtomCount>  (129) 
31

>  <NHOHCount>  (129) 
4

>  <NOCount>  (129) 
18

>  <NumAliphaticCarbocycles>  (129) 
0

>  <NumAliphaticHeterocycles>  (129) 
1

>  <NumAliphaticRings>  (129) 
1

>  <NumAromaticCarbocycles>  (129) 
0

>  <NumAromaticHeterocycles>  (129) 
2

>  <NumAromaticRings>  (129) 
2

>  <NumHAcceptors>  (129) 
18

>  <NumHDonors>  (129) 
3

>  <NumHeteroatoms>  (129) 
21

>  <NumRotatableBonds>  (129) 
8

>  <NumSaturatedCarbocycles>  (129) 
0

>  <NumSaturatedHeterocycles>  (129) 
1

>  <NumSaturatedRings>  (129) 
1

>  <RingCount>  (129) 
3

>  <MolLogP>  (129) 
-4.157

>  <MolMR>  (129) 
86.6005

>  <fr_Al_COO>  (129) 
0

>  <fr_Al_OH>  (129) 
2

>  <fr_Al_OH_noTert>  (129) 
2

>  <fr_ArN>  (129) 
1

>  <fr_Ar_COO>  (129) 
0

>  <fr_Ar_N>  (129) 
4

>  <fr_Ar_NH>  (129) 
0

>  <fr_Ar_OH>  (129) 
0

>  <fr_COO>  (129) 
0

>  <fr_COO2>  (129) 
0

>  <fr_C_O>  (129) 
0

>  <fr_C_O_noCOO>  (129) 
0

>  <fr_C_S>  (129) 
0

>  <fr_HOCCN>  (129) 
0

>  <fr_Imine>  (129) 
0

>  <fr_NH0>  (129) 
4

>  <fr_NH1>  (129) 
0

>  <fr_NH2>  (129) 
1

>  <fr_N_O>  (129) 
0

>  <fr_Ndealkylation1>  (129) 
0

>  <fr_Ndealkylation2>  (129) 
0

>  <fr_Nhpyrrole>  (129) 
0

>  <fr_SH>  (129) 
0

>  <fr_aldehyde>  (129) 
0

>  <fr_alkyl_carbamate>  (129) 
0

>  <fr_alkyl_halide>  (129) 
0

>  <fr_allylic_oxid>  (129) 
0

>  <fr_amide>  (129) 
0

>  <fr_amidine>  (129) 
0

>  <fr_aniline>  (129) 
1

>  <fr_aryl_methyl>  (129) 
0

>  <fr_azide>  (129) 
0

>  <fr_azo>  (129) 
0

>  <fr_barbitur>  (129) 
0

>  <fr_benzene>  (129) 
0

>  <fr_benzodiazepine>  (129) 
0

>  <fr_bicyclic>  (129) 
1

>  <fr_diazo>  (129) 
0

>  <fr_dihydropyridine>  (129) 
0

>  <fr_epoxide>  (129) 
0

>  <fr_ester>  (129) 
0

>  <fr_ether>  (129) 
1

>  <fr_furan>  (129) 
0

>  <fr_guanido>  (129) 
0

>  <fr_halogen>  (129) 
0

>  <fr_hdrzine>  (129) 
0

>  <fr_hdrzone>  (129) 
0

>  <fr_imidazole>  (129) 
1

>  <fr_imide>  (129) 
0

>  <fr_isocyan>  (129) 
0

>  <fr_isothiocyan>  (129) 
0

>  <fr_ketone>  (129) 
0

>  <fr_ketone_Topliss>  (129) 
0

>  <fr_lactam>  (129) 
0

>  <fr_lactone>  (129) 
0

>  <fr_methoxy>  (129) 
0

>  <fr_morpholine>  (129) 
0

>  <fr_nitrile>  (129) 
0

>  <fr_nitro>  (129) 
0

>  <fr_nitro_arom>  (129) 
0

>  <fr_nitro_arom_nonortho>  (129) 
0

>  <fr_nitroso>  (129) 
0

>  <fr_oxazole>  (129) 
0

>  <fr_oxime>  (129) 
0

>  <fr_para_hydroxylation>  (129) 
0

>  <fr_phenol>  (129) 
0

>  <fr_phenol_noOrthoHbond>  (129) 
0

>  <fr_phos_acid>  (129) 
3

>  <fr_phos_ester>  (129) 
1

>  <fr_piperdine>  (129) 
0

>  <fr_piperzine>  (129) 
0

>  <fr_priamide>  (129) 
0

>  <fr_prisulfonamd>  (129) 
0

>  <fr_pyridine>  (129) 
0

>  <fr_quatN>  (129) 
0

>  <fr_sulfide>  (129) 
0

>  <fr_sulfonamd>  (129) 
0

>  <fr_sulfone>  (129) 
0

>  <fr_term_acetylene>  (129) 
0

>  <fr_tetrazole>  (129) 
0

>  <fr_thiazole>  (129) 
0

>  <fr_thiocyan>  (129) 
0

>  <fr_thiophene>  (129) 
0

>  <fr_unbrch_alkane>  (129) 
0

>  <fr_urea>  (129) 
0

>  <NP_Likeness>  (129) 
0.811139

$$$$
ATP
     RDKit          3D

  0  0  0  0  0  0  0  0  0  0999 V3000
M  V30 BEGIN CTAB
M  V30 COUNTS 43 45 0 0 0
M  V30 BEGIN ATOM
M  V30 1 P -0.947000 11.431000 -16.154000 0
M  V30 2 P -2.518000 11.645000 -13.530000 0 CFG=2
M  V30 3 P -5.325000 10.675000 -13.679000 0 CFG=1
M  V30 4 O 0.222000 10.567000 -15.735000 0
M  V30 5 O -1.440000 11.066000 -17.538000 0 CHG=-1
M  V30 6 O -0.529000 12.864000 -16.059000 0 CHG=-1
M  V30 7 O -3.026000 13.037000 -13.549000 0
M  V30 8 O -1.359000 11.309000 -12.646000 0 CHG=-1
M  V30 9 O -6.130000 11.820000 -13.130000 0
M  V30 10 O -5.323000 10.471000 -15.150000 0 CHG=-1
M  V30 11 O -7.257000 4.551000 -14.601000 0
M  V30 12 O -5.825000 6.571000 -15.914000 0
M  V30 13 O -2.224000 11.136000 -15.100000 0
M  V30 14 O -3.792000 10.734000 -13.073000 0
M  V30 15 O -5.865000 9.301000 -13.028000 0
M  V30 16 O -7.042000 6.789000 -12.495000 0
M  V30 17 N -13.653000 8.960000 -12.399000 0
M  V30 18 N -13.315000 6.608000 -12.313000 0
M  V30 19 N -11.193000 5.595000 -12.592000 0
M  V30 20 N -10.533000 9.093000 -12.917000 0
M  V30 21 N -9.330000 7.185000 -12.990000 0
M  V30 22 C -5.093000 8.112000 -13.193000 0
M  V30 23 C -12.524000 5.512000 -12.375000 0
M  V30 24 C -9.299000 8.550000 -13.082000 0
M  V30 25 C -7.785000 5.891000 -14.521000 0 CFG=2
M  V30 26 C -6.705000 6.900000 -14.823000 0 CFG=1
M  V30 27 C -8.198000 6.206000 -13.103000 0 CFG=1
M  V30 28 C -12.831000 7.882000 -12.467000 0
M  V30 29 C -5.982000 6.909000 -13.471000 0 CFG=2
M  V30 30 C -10.575000 6.810000 -12.767000 0
M  V30 31 C -11.380000 8.064000 -12.715000 0
M  V30 32 H -6.905200 4.385800 -15.522400 0
M  V30 33 H -6.358100 6.473400 -16.754400 0
M  V30 34 H -13.280500 9.880900 -12.514000 0
M  V30 35 H -14.631100 8.833300 -12.233900 0
M  V30 36 H -4.570400 7.944400 -12.357100 0
M  V30 37 H -4.463800 8.236100 -13.960200 0
M  V30 38 H -12.938600 4.609800 -12.256200 0
M  V30 39 H -8.469400 9.082500 -13.250100 0
M  V30 40 H -8.557300 6.003500 -15.146300 0
M  V30 41 H -7.119900 7.795100 -14.986300 0
M  V30 42 H -8.437100 5.359700 -12.627000 0
M  V30 43 H -5.416100 6.086300 -13.416700 0
M  V30 END ATOM
M  V30 BEGIN BOND
M  V30 1 2 1 4
M  V30 2 1 1 5
M  V30 3 1 1 6
M  V30 4 1 1 13
M  V30 5 2 2 7
M  V30 6 1 2 8 CFG=1
M  V30 7 1 2 13
M  V30 8 1 2 14
M  V30 9 2 3 9
M  V30 10 1 3 10 CFG=3
M  V30 11 1 3 14
M  V30 12 1 3 15
M  V30 13 1 11 25
M  V30 14 1 12 26
M  V30 15 1 15 22
M  V30 16 1 16 27
M  V30 17 1 16 29
M  V30 18 1 17 28
M  V30 19 2 18 23
M  V30 20 1 18 28
M  V30 21 1 19 23
M  V30 22 2 19 30
M  V30 23 2 20 24
M  V30 24 1 20 31
M  V30 25 1 21 24
M  V30 26 1 21 27
M  V30 27 1 21 30
M  V30 28 1 22 29
M  V30 29 1 25 26
M  V30 30 1 25 27
M  V30 31 1 26 29
M  V30 32 2 28 31
M  V30 33 1 30 31
M  V30 34 1 29 43 CFG=3
M  V30 35 1 27 42 CFG=1
M  V30 36 1 26 41 CFG=3
M  V30 37 1 25 40 CFG=3
M  V30 38 1 11 32
M  V30 39 1 12 33
M  V30 40 1 17 34
M  V30 41 1 17 35
M  V30 42 1 22 36
M  V30 43 1 22 37
M  V30 44 1 23 38
M  V30 45 1 24 39
M  V30 END BOND
M  V30 END CTAB
M  END
>  <Ligand_Instance>  (130) 
4DH3_ATP_A_403

>  <Dataset>  (130) 
PDB

>  <PDB_ID>  (130) 
4DH3

>  <Chain>  (130) 
A

>  <Resi>  (130) 
403

>  <Num_Resolved_Atoms>  (130) 
31

>  <Num_H_Atoms_ProtBoundConf>  (130) 
12

>  <Pocket>  (130) 
A

>  <Name>  (130) 
ADENOSINE-5'-TRIPHOSPHATE

>  <Num_Not_Resolved_Atoms>  (130) 
0

>  <ATP_Site>  (130) 
True

>  <Peripheral>  (130) 
False

>  <Standardized_SMILES>  (130) 
[H]O[C@@]1([H])[C@@]([H])(O[H])[C@]([H])(N2C([H])=NC3=C2N=C([H])N=C3N([H])[H])O[C@]1([H])C([H])([H])O[P@](=O)([O-])O[P@@](=O)([O-])OP(=O)([O-])[O-]

>  <2D_Mol_H>  (130) 
<rdkit.Chem.rdchem.Mol object at 0x77059d9f9380>

>  <MW>  (130) 
503.15

>  <HBA>  (130) 
18

>  <HBD>  (130) 
3

>  <LogP>  (130) 
-4.157

>  <NRB>  (130) 
11

>  <TPSA>  (130) 
290.45

>  <Num_Heavy_Atoms>  (130) 
31

>  <Ro5>  (130) 
[False, False, True, True, False, False]

>  <Ro5_Fulfilled>  (130) 
False

>  <Ro3>  (130) 
[False, False, True, True]

>  <Ro3_Fulfilled>  (130) 
False

>  <Fsp3>  (130) 
0.5

>  <Fsp3_0.42>  (130) 
True

>  <Fsp3_0.45>  (130) 
True

>  <Stereogenic_Carbons>  (130) 
4

>  <C_Atoms>  (130) 
10

>  <FCStereo>  (130) 
0.4

>  <SPS>  (130) 
882

>  <nSPS>  (130) 
28.451613

>  <PBF>  (130) 
0.807811

>  <PBF_0.6>  (130) 
True

>  <nPBF>  (130) 
0.026058

>  <nPBF_0.016>  (130) 
True

>  <PMI1>  (130) 
1772.456069

>  <PMI2>  (130) 
10472.347844

>  <PMI3>  (130) 
11377.674882

>  <NPR1>  (130) 
0.155784

>  <NPR2>  (130) 
0.92043

>  <Sum_NPR>  (130) 
1.076213

>  <Sum_NPR_1.07>  (130) 
True

>  <Sum_NPR_1.2>  (130) 
False

>  <MaxAbsEStateIndex>  (130) 
11.591022

>  <MaxEStateIndex>  (130) 
11.591022

>  <MinAbsEStateIndex>  (130) 
0.019517

>  <MinEStateIndex>  (130) 
-6.13789

>  <qed>  (130) 
0.28788

>  <MolWt>  (130) 
503.15

>  <HeavyAtomMolWt>  (130) 
491.054

>  <ExactMolWt>  (130) 
502.96664

>  <NumValenceElectrons>  (130) 
174

>  <NumRadicalElectrons>  (130) 
0

>  <MaxPartialCharge>  (130) 
0.277775

>  <MinPartialCharge>  (130) 
-0.789509

>  <MaxAbsPartialCharge>  (130) 
0.789509

>  <MinAbsPartialCharge>  (130) 
0.277775

>  <FpDensityMorgan1>  (130) 
1.064516

>  <FpDensityMorgan2>  (130) 
1.741935

>  <FpDensityMorgan3>  (130) 
2.387097

>  <BCUT2D_MWHI>  (130) 
31.29809

>  <BCUT2D_MWLOW>  (130) 
10.128388

>  <BCUT2D_CHGHI>  (130) 
2.446414

>  <BCUT2D_CHGLO>  (130) 
-2.372117

>  <BCUT2D_LOGPHI>  (130) 
2.601149

>  <BCUT2D_LOGPLOW>  (130) 
-2.337005

>  <BCUT2D_MRHI>  (130) 
7.643939

>  <BCUT2D_MRLOW>  (130) 
-0.338932

>  <AvgIpc>  (130) 
3.133568

>  <BalabanJ>  (130) 
1.689409

>  <BertzCT>  (130) 
1104.784407

>  <Chi0>  (130) 
23.18987

>  <Chi0n>  (130) 
14.764212

>  <Chi0v>  (130) 
17.447494

>  <Chi1>  (130) 
14.190889

>  <Chi1n>  (130) 
7.849713

>  <Chi1v>  (130) 
12.231493

>  <Chi2n>  (130) 
5.929951

>  <Chi2v>  (130) 
10.177826

>  <Chi3n>  (130) 
3.795354

>  <Chi3v>  (130) 
7.460653

>  <Chi4n>  (130) 
2.601107

>  <Chi4v>  (130) 
5.466344

>  <HallKierAlpha>  (130) 
-1.36

>  <Ipc>  (130) 
3947352.346056

>  <Kappa1>  (130) 
24.285736

>  <Kappa2>  (130) 
8.532213

>  <Kappa3>  (130) 
5.714341

>  <LabuteASA>  (130) 
171.218329

>  <PEOE_VSA1>  (130) 
49.346027

>  <PEOE_VSA10>  (130) 
30.15592

>  <PEOE_VSA11>  (130) 
17.692941

>  <PEOE_VSA12>  (130) 
0.0

>  <PEOE_VSA13>  (130) 
15.645394

>  <PEOE_VSA14>  (130) 
0.0

>  <PEOE_VSA2>  (130) 
18.007828

>  <PEOE_VSA3>  (130) 
19.262567

>  <PEOE_VSA4>  (130) 
0.0

>  <PEOE_VSA5>  (130) 
0.0

>  <PEOE_VSA6>  (130) 
0.0

>  <PEOE_VSA7>  (130) 
0.0

>  <PEOE_VSA8>  (130) 
0.0

>  <PEOE_VSA9>  (130) 
20.756899

>  <SMR_VSA1>  (130) 
61.363719

>  <SMR_VSA10>  (130) 
40.449832

>  <SMR_VSA2>  (130) 
0.0

>  <SMR_VSA3>  (130) 
19.519035

>  <SMR_VSA4>  (130) 
0.0

>  <SMR_VSA5>  (130) 
24.5398

>  <SMR_VSA6>  (130) 
12.340549

>  <SMR_VSA7>  (130) 
12.65464

>  <SMR_VSA8>  (130) 
0.0

>  <SMR_VSA9>  (130) 
0.0

>  <SlogP_VSA1>  (130) 
25.307314

>  <SlogP_VSA10>  (130) 
5.817863

>  <SlogP_VSA11>  (130) 
0.0

>  <SlogP_VSA12>  (130) 
23.468091

>  <SlogP_VSA2>  (130) 
54.650871

>  <SlogP_VSA3>  (130) 
31.577018

>  <SlogP_VSA4>  (130) 
0.0

>  <SlogP_VSA5>  (130) 
6.227901

>  <SlogP_VSA6>  (130) 
12.65464

>  <SlogP_VSA7>  (130) 
0.0

>  <SlogP_VSA8>  (130) 
11.163878

>  <SlogP_VSA9>  (130) 
0.0

>  <EState_VSA1>  (130) 
54.614774

>  <EState_VSA10>  (130) 
43.481846

>  <EState_VSA11>  (130) 
0.0

>  <EState_VSA2>  (130) 
16.981741

>  <EState_VSA3>  (130) 
0.0

>  <EState_VSA4>  (130) 
12.65464

>  <EState_VSA5>  (130) 
4.5671

>  <EState_VSA6>  (130) 
0.0

>  <EState_VSA7>  (130) 
0.0

>  <EState_VSA8>  (130) 
28.096945

>  <EState_VSA9>  (130) 
10.47053

>  <VSA_EState1>  (130) 
50.204863

>  <VSA_EState10>  (130) 
0.0

>  <VSA_EState2>  (130) 
54.927006

>  <VSA_EState3>  (130) 
20.320829

>  <VSA_EState4>  (130) 
5.922478

>  <VSA_EState5>  (130) 
0.019517

>  <VSA_EState6>  (130) 
0.0

>  <VSA_EState7>  (130) 
-3.993378

>  <VSA_EState8>  (130) 
-1.07771

>  <VSA_EState9>  (130) 
-18.073605

>  <FractionCSP3>  (130) 
0.5

>  <HeavyAtomCount>  (130) 
31

>  <NHOHCount>  (130) 
4

>  <NOCount>  (130) 
18

>  <NumAliphaticCarbocycles>  (130) 
0

>  <NumAliphaticHeterocycles>  (130) 
1

>  <NumAliphaticRings>  (130) 
1

>  <NumAromaticCarbocycles>  (130) 
0

>  <NumAromaticHeterocycles>  (130) 
2

>  <NumAromaticRings>  (130) 
2

>  <NumHAcceptors>  (130) 
18

>  <NumHDonors>  (130) 
3

>  <NumHeteroatoms>  (130) 
21

>  <NumRotatableBonds>  (130) 
8

>  <NumSaturatedCarbocycles>  (130) 
0

>  <NumSaturatedHeterocycles>  (130) 
1

>  <NumSaturatedRings>  (130) 
1

>  <RingCount>  (130) 
3

>  <MolLogP>  (130) 
-4.157

>  <MolMR>  (130) 
86.6005

>  <fr_Al_COO>  (130) 
0

>  <fr_Al_OH>  (130) 
2

>  <fr_Al_OH_noTert>  (130) 
2

>  <fr_ArN>  (130) 
1

>  <fr_Ar_COO>  (130) 
0

>  <fr_Ar_N>  (130) 
4

>  <fr_Ar_NH>  (130) 
0

>  <fr_Ar_OH>  (130) 
0

>  <fr_COO>  (130) 
0

>  <fr_COO2>  (130) 
0

>  <fr_C_O>  (130) 
0

>  <fr_C_O_noCOO>  (130) 
0

>  <fr_C_S>  (130) 
0

>  <fr_HOCCN>  (130) 
0

>  <fr_Imine>  (130) 
0

>  <fr_NH0>  (130) 
4

>  <fr_NH1>  (130) 
0

>  <fr_NH2>  (130) 
1

>  <fr_N_O>  (130) 
0

>  <fr_Ndealkylation1>  (130) 
0

>  <fr_Ndealkylation2>  (130) 
0

>  <fr_Nhpyrrole>  (130) 
0

>  <fr_SH>  (130) 
0

>  <fr_aldehyde>  (130) 
0

>  <fr_alkyl_carbamate>  (130) 
0

>  <fr_alkyl_halide>  (130) 
0

>  <fr_allylic_oxid>  (130) 
0

>  <fr_amide>  (130) 
0

>  <fr_amidine>  (130) 
0

>  <fr_aniline>  (130) 
1

>  <fr_aryl_methyl>  (130) 
0

>  <fr_azide>  (130) 
0

>  <fr_azo>  (130) 
0

>  <fr_barbitur>  (130) 
0

>  <fr_benzene>  (130) 
0

>  <fr_benzodiazepine>  (130) 
0

>  <fr_bicyclic>  (130) 
1

>  <fr_diazo>  (130) 
0

>  <fr_dihydropyridine>  (130) 
0

>  <fr_epoxide>  (130) 
0

>  <fr_ester>  (130) 
0

>  <fr_ether>  (130) 
1

>  <fr_furan>  (130) 
0

>  <fr_guanido>  (130) 
0

>  <fr_halogen>  (130) 
0

>  <fr_hdrzine>  (130) 
0

>  <fr_hdrzone>  (130) 
0

>  <fr_imidazole>  (130) 
1

>  <fr_imide>  (130) 
0

>  <fr_isocyan>  (130) 
0

>  <fr_isothiocyan>  (130) 
0

>  <fr_ketone>  (130) 
0

>  <fr_ketone_Topliss>  (130) 
0

>  <fr_lactam>  (130) 
0

>  <fr_lactone>  (130) 
0

>  <fr_methoxy>  (130) 
0

>  <fr_morpholine>  (130) 
0

>  <fr_nitrile>  (130) 
0

>  <fr_nitro>  (130) 
0

>  <fr_nitro_arom>  (130) 
0

>  <fr_nitro_arom_nonortho>  (130) 
0

>  <fr_nitroso>  (130) 
0

>  <fr_oxazole>  (130) 
0

>  <fr_oxime>  (130) 
0

>  <fr_para_hydroxylation>  (130) 
0

>  <fr_phenol>  (130) 
0

>  <fr_phenol_noOrthoHbond>  (130) 
0

>  <fr_phos_acid>  (130) 
3

>  <fr_phos_ester>  (130) 
1

>  <fr_piperdine>  (130) 
0

>  <fr_piperzine>  (130) 
0

>  <fr_priamide>  (130) 
0

>  <fr_prisulfonamd>  (130) 
0

>  <fr_pyridine>  (130) 
0

>  <fr_quatN>  (130) 
0

>  <fr_sulfide>  (130) 
0

>  <fr_sulfonamd>  (130) 
0

>  <fr_sulfone>  (130) 
0

>  <fr_term_acetylene>  (130) 
0

>  <fr_tetrazole>  (130) 
0

>  <fr_thiazole>  (130) 
0

>  <fr_thiocyan>  (130) 
0

>  <fr_thiophene>  (130) 
0

>  <fr_unbrch_alkane>  (130) 
0

>  <fr_urea>  (130) 
0

>  <NP_Likeness>  (130) 
0.811139

$$$$
ATP
     RDKit          3D

  0  0  0  0  0  0  0  0  0  0999 V3000
M  V30 BEGIN CTAB
M  V30 COUNTS 43 45 0 0 0
M  V30 BEGIN ATOM
M  V30 1 P -20.629000 -7.911000 0.592000 0
M  V30 2 P -22.510000 -10.289000 0.857000 0 CFG=1
M  V30 3 P -25.217000 -9.649000 -0.068000 0 CFG=2
M  V30 4 O -19.288000 -8.294000 -0.034000 0
M  V30 5 O -21.198000 -6.583000 -0.006000 0 CHG=-1
M  V30 6 O -20.523000 -7.994000 2.140000 0 CHG=-1
M  V30 7 O -21.604000 -11.501000 0.799000 0
M  V30 8 O -22.749000 -9.958000 2.308000 0 CHG=-1
M  V30 9 O -24.738000 -8.241000 -0.443000 0
M  V30 10 O -26.263000 -9.794000 1.030000 0 CHG=-1
M  V30 11 O -26.900000 -8.711000 -6.137000 0
M  V30 12 O -25.239000 -7.623000 -4.115000 0
M  V30 13 O -21.861000 -8.991000 0.066000 0
M  V30 14 O -23.952000 -10.599000 0.244000 0
M  V30 15 O -25.841000 -10.288000 -1.416000 0
M  V30 16 O -26.967000 -10.775000 -3.880000 0
M  V30 17 N -33.342000 -9.781000 -1.521000 0
M  V30 18 N -33.170000 -9.853000 -3.871000 0
M  V30 19 N -31.081000 -9.944000 -5.014000 0
M  V30 20 N -30.227000 -9.804000 -1.561000 0
M  V30 21 N -29.111000 -9.913000 -3.504000 0
M  V30 22 C -24.985000 -10.335000 -2.563000 0
M  V30 23 C -32.439000 -9.914000 -5.015000 0
M  V30 24 C -29.004000 -9.863000 -2.155000 0
M  V30 25 C -27.425000 -8.609000 -4.778000 0 CFG=2
M  V30 26 C -26.304000 -8.534000 -3.788000 0 CFG=1
M  V30 27 C -28.001000 -9.988000 -4.494000 0 CFG=1
M  V30 28 C -32.596000 -9.816000 -2.644000 0
M  V30 29 C -25.786000 -9.964000 -3.797000 0 CFG=2
M  V30 30 C -30.403000 -9.900000 -3.837000 0
M  V30 31 C -31.134000 -9.843000 -2.574000 0
M  V30 32 H -26.340700 -7.907200 -6.339500 0
M  V30 33 H -25.605500 -6.695800 -4.192600 0
M  V30 34 H -32.897100 -9.754000 -0.625800 0
M  V30 35 H -34.340000 -9.782000 -1.583500 0
M  V30 36 H -24.616800 -11.258800 -2.668200 0
M  V30 37 H -24.232100 -9.687400 -2.445500 0
M  V30 38 H -32.919500 -9.937700 -5.891600 0
M  V30 39 H -28.136200 -9.868700 -1.658200 0
M  V30 40 H -28.094300 -7.874000 -4.669700 0
M  V30 41 H -26.668600 -8.314100 -2.883200 0
M  V30 42 H -28.314100 -10.418700 -5.340400 0
M  V30 43 H -25.225700 -10.109000 -4.612500 0
M  V30 END ATOM
M  V30 BEGIN BOND
M  V30 1 2 1 4
M  V30 2 1 1 5
M  V30 3 1 1 6
M  V30 4 1 1 13
M  V30 5 2 2 7
M  V30 6 1 2 8 CFG=1
M  V30 7 1 2 13
M  V30 8 1 2 14
M  V30 9 2 3 9
M  V30 10 1 3 10 CFG=1
M  V30 11 1 3 14
M  V30 12 1 3 15
M  V30 13 1 11 25
M  V30 14 1 12 26
M  V30 15 1 15 22
M  V30 16 1 16 27
M  V30 17 1 16 29
M  V30 18 1 17 28
M  V30 19 2 18 23
M  V30 20 1 18 28
M  V30 21 1 19 23
M  V30 22 2 19 30
M  V30 23 2 20 24
M  V30 24 1 20 31
M  V30 25 1 21 24
M  V30 26 1 21 27
M  V30 27 1 21 30
M  V30 28 1 22 29
M  V30 29 1 25 26
M  V30 30 1 25 27
M  V30 31 1 26 29
M  V30 32 2 28 31
M  V30 33 1 30 31
M  V30 34 1 29 43 CFG=3
M  V30 35 1 27 42 CFG=3
M  V30 36 1 26 41 CFG=1
M  V30 37 1 25 40 CFG=3
M  V30 38 1 11 32
M  V30 39 1 12 33
M  V30 40 1 17 34
M  V30 41 1 17 35
M  V30 42 1 22 36
M  V30 43 1 22 37
M  V30 44 1 23 38
M  V30 45 1 24 39
M  V30 END BOND
M  V30 END CTAB
M  END
>  <Ligand_Instance>  (131) 
4WB5_ATP_A_401

>  <Dataset>  (131) 
PDB

>  <PDB_ID>  (131) 
4WB5

>  <Chain>  (131) 
A

>  <Resi>  (131) 
401

>  <Num_Resolved_Atoms>  (131) 
31

>  <Num_H_Atoms_ProtBoundConf>  (131) 
12

>  <Pocket>  (131) 
A

>  <Name>  (131) 
ADENOSINE-5'-TRIPHOSPHATE

>  <Num_Not_Resolved_Atoms>  (131) 
0

>  <ATP_Site>  (131) 
True

>  <Peripheral>  (131) 
False

>  <Standardized_SMILES>  (131) 
[H]O[C@@]1([H])[C@@]([H])(O[H])[C@]([H])(N2C([H])=NC3=C2N=C([H])N=C3N([H])[H])O[C@]1([H])C([H])([H])O[P@@](=O)([O-])O[P@](=O)([O-])OP(=O)([O-])[O-]

>  <2D_Mol_H>  (131) 
<rdkit.Chem.rdchem.Mol object at 0x77059d9f9460>

>  <MW>  (131) 
503.15

>  <HBA>  (131) 
18

>  <HBD>  (131) 
3

>  <LogP>  (131) 
-4.157

>  <NRB>  (131) 
11

>  <TPSA>  (131) 
290.45

>  <Num_Heavy_Atoms>  (131) 
31

>  <Ro5>  (131) 
[False, False, True, True, False, False]

>  <Ro5_Fulfilled>  (131) 
False

>  <Ro3>  (131) 
[False, False, True, True]

>  <Ro3_Fulfilled>  (131) 
False

>  <Fsp3>  (131) 
0.5

>  <Fsp3_0.42>  (131) 
True

>  <Fsp3_0.45>  (131) 
True

>  <Stereogenic_Carbons>  (131) 
4

>  <C_Atoms>  (131) 
10

>  <FCStereo>  (131) 
0.4

>  <SPS>  (131) 
882

>  <nSPS>  (131) 
28.451613

>  <PBF>  (131) 
0.795286

>  <PBF_0.6>  (131) 
True

>  <nPBF>  (131) 
0.025654

>  <nPBF_0.016>  (131) 
True

>  <PMI1>  (131) 
1774.341688

>  <PMI2>  (131) 
9901.046573

>  <PMI3>  (131) 
10796.283048

>  <NPR1>  (131) 
0.164347

>  <NPR2>  (131) 
0.917079

>  <Sum_NPR>  (131) 
1.081427

>  <Sum_NPR_1.07>  (131) 
True

>  <Sum_NPR_1.2>  (131) 
False

>  <MaxAbsEStateIndex>  (131) 
11.591022

>  <MaxEStateIndex>  (131) 
11.591022

>  <MinAbsEStateIndex>  (131) 
0.019517

>  <MinEStateIndex>  (131) 
-6.13789

>  <qed>  (131) 
0.28788

>  <MolWt>  (131) 
503.15

>  <HeavyAtomMolWt>  (131) 
491.054

>  <ExactMolWt>  (131) 
502.96664

>  <NumValenceElectrons>  (131) 
174

>  <NumRadicalElectrons>  (131) 
0

>  <MaxPartialCharge>  (131) 
0.277775

>  <MinPartialCharge>  (131) 
-0.789509

>  <MaxAbsPartialCharge>  (131) 
0.789509

>  <MinAbsPartialCharge>  (131) 
0.277775

>  <FpDensityMorgan1>  (131) 
1.064516

>  <FpDensityMorgan2>  (131) 
1.741935

>  <FpDensityMorgan3>  (131) 
2.387097

>  <BCUT2D_MWHI>  (131) 
31.29809

>  <BCUT2D_MWLOW>  (131) 
10.128388

>  <BCUT2D_CHGHI>  (131) 
2.446414

>  <BCUT2D_CHGLO>  (131) 
-2.372117

>  <BCUT2D_LOGPHI>  (131) 
2.601149

>  <BCUT2D_LOGPLOW>  (131) 
-2.337005

>  <BCUT2D_MRHI>  (131) 
7.643939

>  <BCUT2D_MRLOW>  (131) 
-0.338932

>  <AvgIpc>  (131) 
3.133568

>  <BalabanJ>  (131) 
1.689409

>  <BertzCT>  (131) 
1104.784407

>  <Chi0>  (131) 
23.18987

>  <Chi0n>  (131) 
14.764212

>  <Chi0v>  (131) 
17.447494

>  <Chi1>  (131) 
14.190889

>  <Chi1n>  (131) 
7.849713

>  <Chi1v>  (131) 
12.231493

>  <Chi2n>  (131) 
5.929951

>  <Chi2v>  (131) 
10.177826

>  <Chi3n>  (131) 
3.795354

>  <Chi3v>  (131) 
7.460653

>  <Chi4n>  (131) 
2.601107

>  <Chi4v>  (131) 
5.466344

>  <HallKierAlpha>  (131) 
-1.36

>  <Ipc>  (131) 
3947352.346056

>  <Kappa1>  (131) 
24.285736

>  <Kappa2>  (131) 
8.532213

>  <Kappa3>  (131) 
5.714341

>  <LabuteASA>  (131) 
171.218329

>  <PEOE_VSA1>  (131) 
49.346027

>  <PEOE_VSA10>  (131) 
30.15592

>  <PEOE_VSA11>  (131) 
17.692941

>  <PEOE_VSA12>  (131) 
0.0

>  <PEOE_VSA13>  (131) 
15.645394

>  <PEOE_VSA14>  (131) 
0.0

>  <PEOE_VSA2>  (131) 
18.007828

>  <PEOE_VSA3>  (131) 
19.262567

>  <PEOE_VSA4>  (131) 
0.0

>  <PEOE_VSA5>  (131) 
0.0

>  <PEOE_VSA6>  (131) 
0.0

>  <PEOE_VSA7>  (131) 
0.0

>  <PEOE_VSA8>  (131) 
0.0

>  <PEOE_VSA9>  (131) 
20.756899

>  <SMR_VSA1>  (131) 
61.363719

>  <SMR_VSA10>  (131) 
40.449832

>  <SMR_VSA2>  (131) 
0.0

>  <SMR_VSA3>  (131) 
19.519035

>  <SMR_VSA4>  (131) 
0.0

>  <SMR_VSA5>  (131) 
24.5398

>  <SMR_VSA6>  (131) 
12.340549

>  <SMR_VSA7>  (131) 
12.65464

>  <SMR_VSA8>  (131) 
0.0

>  <SMR_VSA9>  (131) 
0.0

>  <SlogP_VSA1>  (131) 
25.307314

>  <SlogP_VSA10>  (131) 
5.817863

>  <SlogP_VSA11>  (131) 
0.0

>  <SlogP_VSA12>  (131) 
23.468091

>  <SlogP_VSA2>  (131) 
54.650871

>  <SlogP_VSA3>  (131) 
31.577018

>  <SlogP_VSA4>  (131) 
0.0

>  <SlogP_VSA5>  (131) 
6.227901

>  <SlogP_VSA6>  (131) 
12.65464

>  <SlogP_VSA7>  (131) 
0.0

>  <SlogP_VSA8>  (131) 
11.163878

>  <SlogP_VSA9>  (131) 
0.0

>  <EState_VSA1>  (131) 
54.614774

>  <EState_VSA10>  (131) 
43.481846

>  <EState_VSA11>  (131) 
0.0

>  <EState_VSA2>  (131) 
16.981741

>  <EState_VSA3>  (131) 
0.0

>  <EState_VSA4>  (131) 
12.65464

>  <EState_VSA5>  (131) 
4.5671

>  <EState_VSA6>  (131) 
0.0

>  <EState_VSA7>  (131) 
0.0

>  <EState_VSA8>  (131) 
28.096945

>  <EState_VSA9>  (131) 
10.47053

>  <VSA_EState1>  (131) 
50.204863

>  <VSA_EState10>  (131) 
0.0

>  <VSA_EState2>  (131) 
54.927006

>  <VSA_EState3>  (131) 
20.320829

>  <VSA_EState4>  (131) 
5.922478

>  <VSA_EState5>  (131) 
0.019517

>  <VSA_EState6>  (131) 
0.0

>  <VSA_EState7>  (131) 
-3.993378

>  <VSA_EState8>  (131) 
-1.07771

>  <VSA_EState9>  (131) 
-18.073605

>  <FractionCSP3>  (131) 
0.5

>  <HeavyAtomCount>  (131) 
31

>  <NHOHCount>  (131) 
4

>  <NOCount>  (131) 
18

>  <NumAliphaticCarbocycles>  (131) 
0

>  <NumAliphaticHeterocycles>  (131) 
1

>  <NumAliphaticRings>  (131) 
1

>  <NumAromaticCarbocycles>  (131) 
0

>  <NumAromaticHeterocycles>  (131) 
2

>  <NumAromaticRings>  (131) 
2

>  <NumHAcceptors>  (131) 
18

>  <NumHDonors>  (131) 
3

>  <NumHeteroatoms>  (131) 
21

>  <NumRotatableBonds>  (131) 
8

>  <NumSaturatedCarbocycles>  (131) 
0

>  <NumSaturatedHeterocycles>  (131) 
1

>  <NumSaturatedRings>  (131) 
1

>  <RingCount>  (131) 
3

>  <MolLogP>  (131) 
-4.157

>  <MolMR>  (131) 
86.6005

>  <fr_Al_COO>  (131) 
0

>  <fr_Al_OH>  (131) 
2

>  <fr_Al_OH_noTert>  (131) 
2

>  <fr_ArN>  (131) 
1

>  <fr_Ar_COO>  (131) 
0

>  <fr_Ar_N>  (131) 
4

>  <fr_Ar_NH>  (131) 
0

>  <fr_Ar_OH>  (131) 
0

>  <fr_COO>  (131) 
0

>  <fr_COO2>  (131) 
0

>  <fr_C_O>  (131) 
0

>  <fr_C_O_noCOO>  (131) 
0

>  <fr_C_S>  (131) 
0

>  <fr_HOCCN>  (131) 
0

>  <fr_Imine>  (131) 
0

>  <fr_NH0>  (131) 
4

>  <fr_NH1>  (131) 
0

>  <fr_NH2>  (131) 
1

>  <fr_N_O>  (131) 
0

>  <fr_Ndealkylation1>  (131) 
0

>  <fr_Ndealkylation2>  (131) 
0

>  <fr_Nhpyrrole>  (131) 
0

>  <fr_SH>  (131) 
0

>  <fr_aldehyde>  (131) 
0

>  <fr_alkyl_carbamate>  (131) 
0

>  <fr_alkyl_halide>  (131) 
0

>  <fr_allylic_oxid>  (131) 
0

>  <fr_amide>  (131) 
0

>  <fr_amidine>  (131) 
0

>  <fr_aniline>  (131) 
1

>  <fr_aryl_methyl>  (131) 
0

>  <fr_azide>  (131) 
0

>  <fr_azo>  (131) 
0

>  <fr_barbitur>  (131) 
0

>  <fr_benzene>  (131) 
0

>  <fr_benzodiazepine>  (131) 
0

>  <fr_bicyclic>  (131) 
1

>  <fr_diazo>  (131) 
0

>  <fr_dihydropyridine>  (131) 
0

>  <fr_epoxide>  (131) 
0

>  <fr_ester>  (131) 
0

>  <fr_ether>  (131) 
1

>  <fr_furan>  (131) 
0

>  <fr_guanido>  (131) 
0

>  <fr_halogen>  (131) 
0

>  <fr_hdrzine>  (131) 
0

>  <fr_hdrzone>  (131) 
0

>  <fr_imidazole>  (131) 
1

>  <fr_imide>  (131) 
0

>  <fr_isocyan>  (131) 
0

>  <fr_isothiocyan>  (131) 
0

>  <fr_ketone>  (131) 
0

>  <fr_ketone_Topliss>  (131) 
0

>  <fr_lactam>  (131) 
0

>  <fr_lactone>  (131) 
0

>  <fr_methoxy>  (131) 
0

>  <fr_morpholine>  (131) 
0

>  <fr_nitrile>  (131) 
0

>  <fr_nitro>  (131) 
0

>  <fr_nitro_arom>  (131) 
0

>  <fr_nitro_arom_nonortho>  (131) 
0

>  <fr_nitroso>  (131) 
0

>  <fr_oxazole>  (131) 
0

>  <fr_oxime>  (131) 
0

>  <fr_para_hydroxylation>  (131) 
0

>  <fr_phenol>  (131) 
0

>  <fr_phenol_noOrthoHbond>  (131) 
0

>  <fr_phos_acid>  (131) 
3

>  <fr_phos_ester>  (131) 
1

>  <fr_piperdine>  (131) 
0

>  <fr_piperzine>  (131) 
0

>  <fr_priamide>  (131) 
0

>  <fr_prisulfonamd>  (131) 
0

>  <fr_pyridine>  (131) 
0

>  <fr_quatN>  (131) 
0

>  <fr_sulfide>  (131) 
0

>  <fr_sulfonamd>  (131) 
0

>  <fr_sulfone>  (131) 
0

>  <fr_term_acetylene>  (131) 
0

>  <fr_tetrazole>  (131) 
0

>  <fr_thiazole>  (131) 
0

>  <fr_thiocyan>  (131) 
0

>  <fr_thiophene>  (131) 
0

>  <fr_unbrch_alkane>  (131) 
0

>  <fr_urea>  (131) 
0

>  <NP_Likeness>  (131) 
0.811139

$$$$
ATP
     RDKit          3D

  0  0  0  0  0  0  0  0  0  0999 V3000
M  V30 BEGIN CTAB
M  V30 COUNTS 43 45 0 0 0
M  V30 BEGIN ATOM
M  V30 1 P -10.412000 -14.068000 -31.851000 0
M  V30 2 P -8.113000 -13.261000 -30.324000 0 CFG=1
M  V30 3 P -5.749000 -14.609000 -31.231000 0 CFG=2
M  V30 4 O -10.362000 -15.246000 -32.817000 0
M  V30 5 O -11.165000 -12.869000 -32.373000 0 CHG=-1
M  V30 6 O -10.802000 -14.483000 -30.445000 0 CHG=-1
M  V30 7 O -8.495000 -11.847000 -30.002000 0
M  V30 8 O -8.357000 -14.357000 -29.318000 0 CHG=-1
M  V30 9 O -6.655000 -15.373000 -32.182000 0
M  V30 10 O -5.122000 -15.379000 -30.084000 0 CHG=-1
M  V30 11 O -2.831000 -14.229000 -36.812000 0
M  V30 12 O -5.230000 -14.862000 -35.683000 0
M  V30 13 O -8.858000 -13.628000 -31.717000 0
M  V30 14 O -6.545000 -13.289000 -30.727000 0
M  V30 15 O -4.513000 -14.013000 -32.085000 0
M  V30 16 O -2.500000 -13.291000 -34.020000 0
M  V30 17 N 1.814000 -18.167000 -31.641000 0
M  V30 18 N 2.448000 -17.066000 -33.617000 0
M  V30 19 N 1.052000 -15.564000 -34.811000 0
M  V30 20 N -0.899000 -16.607000 -32.065000 0
M  V30 21 N -1.168000 -15.231000 -33.792000 0
M  V30 22 C -4.755000 -13.054000 -33.121000 0
M  V30 23 C 2.206000 -16.228000 -34.644000 0
M  V30 24 C -1.742000 -15.759000 -32.697000 0
M  V30 25 C -2.776000 -15.003000 -35.605000 0 CFG=2
M  V30 26 C -4.068000 -14.789000 -34.860000 0 CFG=1
M  V30 27 C -1.771000 -14.280000 -34.737000 0 CFG=1
M  V30 28 C 1.536000 -17.323000 -32.658000 0
M  V30 29 C -3.888000 -13.370000 -34.340000 0 CFG=2
M  V30 30 C 0.054000 -15.728000 -33.912000 0
M  V30 31 C 0.239000 -16.634000 -32.769000 0
M  V30 32 H -3.605500 -14.532000 -37.367300 0
M  V30 33 H -5.280700 -15.765400 -36.108800 0
M  V30 34 H 1.125900 -18.346500 -30.937900 0
M  V30 35 H 2.707900 -18.612400 -31.591100 0
M  V30 36 H -4.531700 -12.139300 -32.784100 0
M  V30 37 H -5.719400 -13.086400 -33.383400 0
M  V30 38 H 2.928900 -16.093000 -35.321600 0
M  V30 39 H -2.670900 -15.551800 -32.389900 0
M  V30 40 H -2.555300 -15.966500 -35.756300 0
M  V30 41 H -4.140600 -15.432200 -34.097800 0
M  V30 42 H -1.064700 -13.852900 -35.301600 0
M  V30 43 H -4.096400 -12.720700 -35.071400 0
M  V30 END ATOM
M  V30 BEGIN BOND
M  V30 1 2 1 4
M  V30 2 1 1 5
M  V30 3 1 1 6
M  V30 4 1 1 13
M  V30 5 2 2 7
M  V30 6 1 2 8 CFG=1
M  V30 7 1 2 13
M  V30 8 1 2 14
M  V30 9 2 3 9
M  V30 10 1 3 10 CFG=1
M  V30 11 1 3 14
M  V30 12 1 3 15
M  V30 13 1 11 25
M  V30 14 1 12 26
M  V30 15 1 15 22
M  V30 16 1 16 27
M  V30 17 1 16 29
M  V30 18 1 17 28
M  V30 19 2 18 23
M  V30 20 1 18 28
M  V30 21 1 19 23
M  V30 22 2 19 30
M  V30 23 2 20 24
M  V30 24 1 20 31
M  V30 25 1 21 24
M  V30 26 1 21 27
M  V30 27 1 21 30
M  V30 28 1 22 29
M  V30 29 1 25 26
M  V30 30 1 25 27
M  V30 31 1 26 29
M  V30 32 2 28 31
M  V30 33 1 30 31
M  V30 34 1 29 43 CFG=3
M  V30 35 1 27 42 CFG=3
M  V30 36 1 26 41 CFG=1
M  V30 37 1 25 40 CFG=3
M  V30 38 1 11 32
M  V30 39 1 12 33
M  V30 40 1 17 34
M  V30 41 1 17 35
M  V30 42 1 22 36
M  V30 43 1 22 37
M  V30 44 1 23 38
M  V30 45 1 24 39
M  V30 END BOND
M  V30 END CTAB
M  END
>  <Ligand_Instance>  (132) 
4WB6_ATP_A_401

>  <Dataset>  (132) 
PDB

>  <PDB_ID>  (132) 
4WB6

>  <Chain>  (132) 
A

>  <Resi>  (132) 
401

>  <Num_Resolved_Atoms>  (132) 
31

>  <Num_H_Atoms_ProtBoundConf>  (132) 
12

>  <Pocket>  (132) 
A

>  <Name>  (132) 
ADENOSINE-5'-TRIPHOSPHATE

>  <Num_Not_Resolved_Atoms>  (132) 
0

>  <ATP_Site>  (132) 
True

>  <Peripheral>  (132) 
False

>  <Standardized_SMILES>  (132) 
[H]O[C@@]1([H])[C@@]([H])(O[H])[C@]([H])(N2C([H])=NC3=C2N=C([H])N=C3N([H])[H])O[C@]1([H])C([H])([H])O[P@@](=O)([O-])O[P@](=O)([O-])OP(=O)([O-])[O-]

>  <2D_Mol_H>  (132) 
<rdkit.Chem.rdchem.Mol object at 0x77059d9f9540>

>  <MW>  (132) 
503.15

>  <HBA>  (132) 
18

>  <HBD>  (132) 
3

>  <LogP>  (132) 
-4.157

>  <NRB>  (132) 
11

>  <TPSA>  (132) 
290.45

>  <Num_Heavy_Atoms>  (132) 
31

>  <Ro5>  (132) 
[False, False, True, True, False, False]

>  <Ro5_Fulfilled>  (132) 
False

>  <Ro3>  (132) 
[False, False, True, True]

>  <Ro3_Fulfilled>  (132) 
False

>  <Fsp3>  (132) 
0.5

>  <Fsp3_0.42>  (132) 
True

>  <Fsp3_0.45>  (132) 
True

>  <Stereogenic_Carbons>  (132) 
4

>  <C_Atoms>  (132) 
10

>  <FCStereo>  (132) 
0.4

>  <SPS>  (132) 
882

>  <nSPS>  (132) 
28.451613

>  <PBF>  (132) 
0.802757

>  <PBF_0.6>  (132) 
True

>  <nPBF>  (132) 
0.025895

>  <nPBF_0.016>  (132) 
True

>  <PMI1>  (132) 
1737.149226

>  <PMI2>  (132) 
9790.974472

>  <PMI3>  (132) 
10663.412875

>  <NPR1>  (132) 
0.162907

>  <NPR2>  (132) 
0.918184

>  <Sum_NPR>  (132) 
1.081091

>  <Sum_NPR_1.07>  (132) 
True

>  <Sum_NPR_1.2>  (132) 
False

>  <MaxAbsEStateIndex>  (132) 
11.591022

>  <MaxEStateIndex>  (132) 
11.591022

>  <MinAbsEStateIndex>  (132) 
0.019517

>  <MinEStateIndex>  (132) 
-6.13789

>  <qed>  (132) 
0.28788

>  <MolWt>  (132) 
503.15

>  <HeavyAtomMolWt>  (132) 
491.054

>  <ExactMolWt>  (132) 
502.96664

>  <NumValenceElectrons>  (132) 
174

>  <NumRadicalElectrons>  (132) 
0

>  <MaxPartialCharge>  (132) 
0.277775

>  <MinPartialCharge>  (132) 
-0.789509

>  <MaxAbsPartialCharge>  (132) 
0.789509

>  <MinAbsPartialCharge>  (132) 
0.277775

>  <FpDensityMorgan1>  (132) 
1.064516

>  <FpDensityMorgan2>  (132) 
1.741935

>  <FpDensityMorgan3>  (132) 
2.387097

>  <BCUT2D_MWHI>  (132) 
31.29809

>  <BCUT2D_MWLOW>  (132) 
10.128388

>  <BCUT2D_CHGHI>  (132) 
2.446414

>  <BCUT2D_CHGLO>  (132) 
-2.372117

>  <BCUT2D_LOGPHI>  (132) 
2.601149

>  <BCUT2D_LOGPLOW>  (132) 
-2.337005

>  <BCUT2D_MRHI>  (132) 
7.643939

>  <BCUT2D_MRLOW>  (132) 
-0.338932

>  <AvgIpc>  (132) 
3.133568

>  <BalabanJ>  (132) 
1.689409

>  <BertzCT>  (132) 
1104.784407

>  <Chi0>  (132) 
23.18987

>  <Chi0n>  (132) 
14.764212

>  <Chi0v>  (132) 
17.447494

>  <Chi1>  (132) 
14.190889

>  <Chi1n>  (132) 
7.849713

>  <Chi1v>  (132) 
12.231493

>  <Chi2n>  (132) 
5.929951

>  <Chi2v>  (132) 
10.177826

>  <Chi3n>  (132) 
3.795354

>  <Chi3v>  (132) 
7.460653

>  <Chi4n>  (132) 
2.601107

>  <Chi4v>  (132) 
5.466344

>  <HallKierAlpha>  (132) 
-1.36

>  <Ipc>  (132) 
3947352.346056

>  <Kappa1>  (132) 
24.285736

>  <Kappa2>  (132) 
8.532213

>  <Kappa3>  (132) 
5.714341

>  <LabuteASA>  (132) 
171.218329

>  <PEOE_VSA1>  (132) 
49.346027

>  <PEOE_VSA10>  (132) 
30.15592

>  <PEOE_VSA11>  (132) 
17.692941

>  <PEOE_VSA12>  (132) 
0.0

>  <PEOE_VSA13>  (132) 
15.645394

>  <PEOE_VSA14>  (132) 
0.0

>  <PEOE_VSA2>  (132) 
18.007828

>  <PEOE_VSA3>  (132) 
19.262567

>  <PEOE_VSA4>  (132) 
0.0

>  <PEOE_VSA5>  (132) 
0.0

>  <PEOE_VSA6>  (132) 
0.0

>  <PEOE_VSA7>  (132) 
0.0

>  <PEOE_VSA8>  (132) 
0.0

>  <PEOE_VSA9>  (132) 
20.756899

>  <SMR_VSA1>  (132) 
61.363719

>  <SMR_VSA10>  (132) 
40.449832

>  <SMR_VSA2>  (132) 
0.0

>  <SMR_VSA3>  (132) 
19.519035

>  <SMR_VSA4>  (132) 
0.0

>  <SMR_VSA5>  (132) 
24.5398

>  <SMR_VSA6>  (132) 
12.340549

>  <SMR_VSA7>  (132) 
12.65464

>  <SMR_VSA8>  (132) 
0.0

>  <SMR_VSA9>  (132) 
0.0

>  <SlogP_VSA1>  (132) 
25.307314

>  <SlogP_VSA10>  (132) 
5.817863

>  <SlogP_VSA11>  (132) 
0.0

>  <SlogP_VSA12>  (132) 
23.468091

>  <SlogP_VSA2>  (132) 
54.650871

>  <SlogP_VSA3>  (132) 
31.577018

>  <SlogP_VSA4>  (132) 
0.0

>  <SlogP_VSA5>  (132) 
6.227901

>  <SlogP_VSA6>  (132) 
12.65464

>  <SlogP_VSA7>  (132) 
0.0

>  <SlogP_VSA8>  (132) 
11.163878

>  <SlogP_VSA9>  (132) 
0.0

>  <EState_VSA1>  (132) 
54.614774

>  <EState_VSA10>  (132) 
43.481846

>  <EState_VSA11>  (132) 
0.0

>  <EState_VSA2>  (132) 
16.981741

>  <EState_VSA3>  (132) 
0.0

>  <EState_VSA4>  (132) 
12.65464

>  <EState_VSA5>  (132) 
4.5671

>  <EState_VSA6>  (132) 
0.0

>  <EState_VSA7>  (132) 
0.0

>  <EState_VSA8>  (132) 
28.096945

>  <EState_VSA9>  (132) 
10.47053

>  <VSA_EState1>  (132) 
50.204863

>  <VSA_EState10>  (132) 
0.0

>  <VSA_EState2>  (132) 
54.927006

>  <VSA_EState3>  (132) 
20.320829

>  <VSA_EState4>  (132) 
5.922478

>  <VSA_EState5>  (132) 
0.019517

>  <VSA_EState6>  (132) 
0.0

>  <VSA_EState7>  (132) 
-3.993378

>  <VSA_EState8>  (132) 
-1.07771

>  <VSA_EState9>  (132) 
-18.073605

>  <FractionCSP3>  (132) 
0.5

>  <HeavyAtomCount>  (132) 
31

>  <NHOHCount>  (132) 
4

>  <NOCount>  (132) 
18

>  <NumAliphaticCarbocycles>  (132) 
0

>  <NumAliphaticHeterocycles>  (132) 
1

>  <NumAliphaticRings>  (132) 
1

>  <NumAromaticCarbocycles>  (132) 
0

>  <NumAromaticHeterocycles>  (132) 
2

>  <NumAromaticRings>  (132) 
2

>  <NumHAcceptors>  (132) 
18

>  <NumHDonors>  (132) 
3

>  <NumHeteroatoms>  (132) 
21

>  <NumRotatableBonds>  (132) 
8

>  <NumSaturatedCarbocycles>  (132) 
0

>  <NumSaturatedHeterocycles>  (132) 
1

>  <NumSaturatedRings>  (132) 
1

>  <RingCount>  (132) 
3

>  <MolLogP>  (132) 
-4.157

>  <MolMR>  (132) 
86.6005

>  <fr_Al_COO>  (132) 
0

>  <fr_Al_OH>  (132) 
2

>  <fr_Al_OH_noTert>  (132) 
2

>  <fr_ArN>  (132) 
1

>  <fr_Ar_COO>  (132) 
0

>  <fr_Ar_N>  (132) 
4

>  <fr_Ar_NH>  (132) 
0

>  <fr_Ar_OH>  (132) 
0

>  <fr_COO>  (132) 
0

>  <fr_COO2>  (132) 
0

>  <fr_C_O>  (132) 
0

>  <fr_C_O_noCOO>  (132) 
0

>  <fr_C_S>  (132) 
0

>  <fr_HOCCN>  (132) 
0

>  <fr_Imine>  (132) 
0

>  <fr_NH0>  (132) 
4

>  <fr_NH1>  (132) 
0

>  <fr_NH2>  (132) 
1

>  <fr_N_O>  (132) 
0

>  <fr_Ndealkylation1>  (132) 
0

>  <fr_Ndealkylation2>  (132) 
0

>  <fr_Nhpyrrole>  (132) 
0

>  <fr_SH>  (132) 
0

>  <fr_aldehyde>  (132) 
0

>  <fr_alkyl_carbamate>  (132) 
0

>  <fr_alkyl_halide>  (132) 
0

>  <fr_allylic_oxid>  (132) 
0

>  <fr_amide>  (132) 
0

>  <fr_amidine>  (132) 
0

>  <fr_aniline>  (132) 
1

>  <fr_aryl_methyl>  (132) 
0

>  <fr_azide>  (132) 
0

>  <fr_azo>  (132) 
0

>  <fr_barbitur>  (132) 
0

>  <fr_benzene>  (132) 
0

>  <fr_benzodiazepine>  (132) 
0

>  <fr_bicyclic>  (132) 
1

>  <fr_diazo>  (132) 
0

>  <fr_dihydropyridine>  (132) 
0

>  <fr_epoxide>  (132) 
0

>  <fr_ester>  (132) 
0

>  <fr_ether>  (132) 
1

>  <fr_furan>  (132) 
0

>  <fr_guanido>  (132) 
0

>  <fr_halogen>  (132) 
0

>  <fr_hdrzine>  (132) 
0

>  <fr_hdrzone>  (132) 
0

>  <fr_imidazole>  (132) 
1

>  <fr_imide>  (132) 
0

>  <fr_isocyan>  (132) 
0

>  <fr_isothiocyan>  (132) 
0

>  <fr_ketone>  (132) 
0

>  <fr_ketone_Topliss>  (132) 
0

>  <fr_lactam>  (132) 
0

>  <fr_lactone>  (132) 
0

>  <fr_methoxy>  (132) 
0

>  <fr_morpholine>  (132) 
0

>  <fr_nitrile>  (132) 
0

>  <fr_nitro>  (132) 
0

>  <fr_nitro_arom>  (132) 
0

>  <fr_nitro_arom_nonortho>  (132) 
0

>  <fr_nitroso>  (132) 
0

>  <fr_oxazole>  (132) 
0

>  <fr_oxime>  (132) 
0

>  <fr_para_hydroxylation>  (132) 
0

>  <fr_phenol>  (132) 
0

>  <fr_phenol_noOrthoHbond>  (132) 
0

>  <fr_phos_acid>  (132) 
3

>  <fr_phos_ester>  (132) 
1

>  <fr_piperdine>  (132) 
0

>  <fr_piperzine>  (132) 
0

>  <fr_priamide>  (132) 
0

>  <fr_prisulfonamd>  (132) 
0

>  <fr_pyridine>  (132) 
0

>  <fr_quatN>  (132) 
0

>  <fr_sulfide>  (132) 
0

>  <fr_sulfonamd>  (132) 
0

>  <fr_sulfone>  (132) 
0

>  <fr_term_acetylene>  (132) 
0

>  <fr_tetrazole>  (132) 
0

>  <fr_thiazole>  (132) 
0

>  <fr_thiocyan>  (132) 
0

>  <fr_thiophene>  (132) 
0

>  <fr_unbrch_alkane>  (132) 
0

>  <fr_urea>  (132) 
0

>  <NP_Likeness>  (132) 
0.811139

$$$$
ATP
     RDKit          3D

  0  0  0  0  0  0  0  0  0  0999 V3000
M  V30 BEGIN CTAB
M  V30 COUNTS 43 45 0 0 0
M  V30 BEGIN ATOM
M  V30 1 P -26.312000 -19.977000 7.244000 0
M  V30 2 P -27.403000 -22.300000 5.954000 0 CFG=2
M  V30 3 P -26.892000 -24.675000 7.497000 0 CFG=1
M  V30 4 O -25.560000 -20.030000 5.925000 0
M  V30 5 O -25.421000 -20.113000 8.459000 0 CHG=-1
M  V30 6 O -27.307000 -18.848000 7.348000 0 CHG=-1
M  V30 7 O -26.112000 -22.490000 5.185000 0
M  V30 8 O -28.623000 -21.733000 5.283000 0 CHG=-1
M  V30 9 O -26.043000 -25.621000 6.672000 0
M  V30 10 O -26.248000 -23.812000 8.561000 0 CHG=-1
M  V30 11 O -28.707000 -26.451000 13.217000 0
M  V30 12 O -27.682000 -24.398000 11.898000 0
M  V30 13 O -27.180000 -21.348000 7.262000 0
M  V30 14 O -27.841000 -23.723000 6.589000 0
M  V30 15 O -27.934000 -25.623000 8.262000 0
M  V30 16 O -29.393000 -27.080000 10.258000 0
M  V30 17 N -25.431000 -32.730000 9.623000 0
M  V30 18 N -26.859000 -32.728000 11.498000 0
M  V30 19 N -28.136000 -30.824000 12.126000 0
M  V30 20 N -26.403000 -29.755000 9.251000 0
M  V30 21 N -27.854000 -28.833000 10.666000 0
M  V30 22 C -28.978000 -25.009000 9.012000 0
M  V30 23 C -27.740000 -32.101000 12.300000 0
M  V30 24 C -27.103000 -28.639000 9.562000 0
M  V30 25 C -27.926000 -26.827000 12.079000 0 CFG=2
M  V30 26 C -27.795000 -25.627000 11.176000 0 CFG=1
M  V30 27 C -28.744000 -27.826000 11.284000 0 CFG=1
M  V30 28 C -26.311000 -32.098000 10.426000 0
M  V30 29 C -29.089000 -25.686000 10.381000 0 CFG=2
M  V30 30 C -27.657000 -30.080000 11.104000 0
M  V30 31 C -26.700000 -30.695000 10.172000 0
M  V30 32 H -28.569400 -25.479400 13.409500 0
M  V30 33 H -26.872000 -24.428700 12.483600 0
M  V30 34 H -25.037200 -32.251400 8.838200 0
M  V30 35 H -25.172300 -33.677200 9.812300 0
M  V30 36 H -29.843400 -25.106800 8.520600 0
M  V30 37 H -28.772900 -24.038100 9.135900 0
M  V30 38 H -28.122900 -32.612100 13.069500 0
M  V30 39 H -27.068200 -27.785000 9.042900 0
M  V30 40 H -27.035000 -27.197100 12.341800 0
M  V30 41 H -27.011100 -25.740200 10.565500 0
M  V30 42 H -29.419200 -28.271000 11.872300 0
M  V30 43 H -29.813900 -25.240300 10.906300 0
M  V30 END ATOM
M  V30 BEGIN BOND
M  V30 1 2 1 4
M  V30 2 1 1 5
M  V30 3 1 1 6
M  V30 4 1 1 13
M  V30 5 2 2 7
M  V30 6 1 2 8 CFG=3
M  V30 7 1 2 13
M  V30 8 1 2 14
M  V30 9 2 3 9
M  V30 10 1 3 10 CFG=1
M  V30 11 1 3 14
M  V30 12 1 3 15
M  V30 13 1 11 25
M  V30 14 1 12 26
M  V30 15 1 15 22
M  V30 16 1 16 27
M  V30 17 1 16 29
M  V30 18 1 17 28
M  V30 19 2 18 23
M  V30 20 1 18 28
M  V30 21 1 19 23
M  V30 22 2 19 30
M  V30 23 2 20 24
M  V30 24 1 20 31
M  V30 25 1 21 24
M  V30 26 1 21 27
M  V30 27 1 21 30
M  V30 28 1 22 29
M  V30 29 1 25 26
M  V30 30 1 25 27
M  V30 31 1 26 29
M  V30 32 2 28 31
M  V30 33 1 30 31
M  V30 34 1 29 43 CFG=1
M  V30 35 1 27 42 CFG=1
M  V30 36 1 26 41 CFG=3
M  V30 37 1 25 40 CFG=1
M  V30 38 1 11 32
M  V30 39 1 12 33
M  V30 40 1 17 34
M  V30 41 1 17 35
M  V30 42 1 22 36
M  V30 43 1 22 37
M  V30 44 1 23 38
M  V30 45 1 24 39
M  V30 END BOND
M  V30 END CTAB
M  END
>  <Ligand_Instance>  (133) 
4WB6_ATP_B_401

>  <Dataset>  (133) 
PDB

>  <PDB_ID>  (133) 
4WB6

>  <Chain>  (133) 
B

>  <Resi>  (133) 
401

>  <Num_Resolved_Atoms>  (133) 
31

>  <Num_H_Atoms_ProtBoundConf>  (133) 
12

>  <Pocket>  (133) 
A

>  <Name>  (133) 
ADENOSINE-5'-TRIPHOSPHATE

>  <Num_Not_Resolved_Atoms>  (133) 
0

>  <ATP_Site>  (133) 
True

>  <Peripheral>  (133) 
False

>  <Standardized_SMILES>  (133) 
[H]O[C@@]1([H])[C@@]([H])(O[H])[C@]([H])(N2C([H])=NC3=C2N=C([H])N=C3N([H])[H])O[C@]1([H])C([H])([H])O[P@](=O)([O-])O[P@@](=O)([O-])OP(=O)([O-])[O-]

>  <2D_Mol_H>  (133) 
<rdkit.Chem.rdchem.Mol object at 0x77059d9f9620>

>  <MW>  (133) 
503.15

>  <HBA>  (133) 
18

>  <HBD>  (133) 
3

>  <LogP>  (133) 
-4.157

>  <NRB>  (133) 
11

>  <TPSA>  (133) 
290.45

>  <Num_Heavy_Atoms>  (133) 
31

>  <Ro5>  (133) 
[False, False, True, True, False, False]

>  <Ro5_Fulfilled>  (133) 
False

>  <Ro3>  (133) 
[False, False, True, True]

>  <Ro3_Fulfilled>  (133) 
False

>  <Fsp3>  (133) 
0.5

>  <Fsp3_0.42>  (133) 
True

>  <Fsp3_0.45>  (133) 
True

>  <Stereogenic_Carbons>  (133) 
4

>  <C_Atoms>  (133) 
10

>  <FCStereo>  (133) 
0.4

>  <SPS>  (133) 
882

>  <nSPS>  (133) 
28.451613

>  <PBF>  (133) 
0.798666

>  <PBF_0.6>  (133) 
True

>  <nPBF>  (133) 
0.025763

>  <nPBF_0.016>  (133) 
True

>  <PMI1>  (133) 
1719.474354

>  <PMI2>  (133) 
9946.750762

>  <PMI3>  (133) 
10806.58348

>  <NPR1>  (133) 
0.159114

>  <NPR2>  (133) 
0.920434

>  <Sum_NPR>  (133) 
1.079548

>  <Sum_NPR_1.07>  (133) 
True

>  <Sum_NPR_1.2>  (133) 
False

>  <MaxAbsEStateIndex>  (133) 
11.591022

>  <MaxEStateIndex>  (133) 
11.591022

>  <MinAbsEStateIndex>  (133) 
0.019517

>  <MinEStateIndex>  (133) 
-6.13789

>  <qed>  (133) 
0.28788

>  <MolWt>  (133) 
503.15

>  <HeavyAtomMolWt>  (133) 
491.054

>  <ExactMolWt>  (133) 
502.96664

>  <NumValenceElectrons>  (133) 
174

>  <NumRadicalElectrons>  (133) 
0

>  <MaxPartialCharge>  (133) 
0.277775

>  <MinPartialCharge>  (133) 
-0.789509

>  <MaxAbsPartialCharge>  (133) 
0.789509

>  <MinAbsPartialCharge>  (133) 
0.277775

>  <FpDensityMorgan1>  (133) 
1.064516

>  <FpDensityMorgan2>  (133) 
1.741935

>  <FpDensityMorgan3>  (133) 
2.387097

>  <BCUT2D_MWHI>  (133) 
31.29809

>  <BCUT2D_MWLOW>  (133) 
10.128388

>  <BCUT2D_CHGHI>  (133) 
2.446414

>  <BCUT2D_CHGLO>  (133) 
-2.372117

>  <BCUT2D_LOGPHI>  (133) 
2.601149

>  <BCUT2D_LOGPLOW>  (133) 
-2.337005

>  <BCUT2D_MRHI>  (133) 
7.643939

>  <BCUT2D_MRLOW>  (133) 
-0.338932

>  <AvgIpc>  (133) 
3.133568

>  <BalabanJ>  (133) 
1.689409

>  <BertzCT>  (133) 
1104.784407

>  <Chi0>  (133) 
23.18987

>  <Chi0n>  (133) 
14.764212

>  <Chi0v>  (133) 
17.447494

>  <Chi1>  (133) 
14.190889

>  <Chi1n>  (133) 
7.849713

>  <Chi1v>  (133) 
12.231493

>  <Chi2n>  (133) 
5.929951

>  <Chi2v>  (133) 
10.177826

>  <Chi3n>  (133) 
3.795354

>  <Chi3v>  (133) 
7.460653

>  <Chi4n>  (133) 
2.601107

>  <Chi4v>  (133) 
5.466344

>  <HallKierAlpha>  (133) 
-1.36

>  <Ipc>  (133) 
3947352.346056

>  <Kappa1>  (133) 
24.285736

>  <Kappa2>  (133) 
8.532213

>  <Kappa3>  (133) 
5.714341

>  <LabuteASA>  (133) 
171.218329

>  <PEOE_VSA1>  (133) 
49.346027

>  <PEOE_VSA10>  (133) 
30.15592

>  <PEOE_VSA11>  (133) 
17.692941

>  <PEOE_VSA12>  (133) 
0.0

>  <PEOE_VSA13>  (133) 
15.645394

>  <PEOE_VSA14>  (133) 
0.0

>  <PEOE_VSA2>  (133) 
18.007828

>  <PEOE_VSA3>  (133) 
19.262567

>  <PEOE_VSA4>  (133) 
0.0

>  <PEOE_VSA5>  (133) 
0.0

>  <PEOE_VSA6>  (133) 
0.0

>  <PEOE_VSA7>  (133) 
0.0

>  <PEOE_VSA8>  (133) 
0.0

>  <PEOE_VSA9>  (133) 
20.756899

>  <SMR_VSA1>  (133) 
61.363719

>  <SMR_VSA10>  (133) 
40.449832

>  <SMR_VSA2>  (133) 
0.0

>  <SMR_VSA3>  (133) 
19.519035

>  <SMR_VSA4>  (133) 
0.0

>  <SMR_VSA5>  (133) 
24.5398

>  <SMR_VSA6>  (133) 
12.340549

>  <SMR_VSA7>  (133) 
12.65464

>  <SMR_VSA8>  (133) 
0.0

>  <SMR_VSA9>  (133) 
0.0

>  <SlogP_VSA1>  (133) 
25.307314

>  <SlogP_VSA10>  (133) 
5.817863

>  <SlogP_VSA11>  (133) 
0.0

>  <SlogP_VSA12>  (133) 
23.468091

>  <SlogP_VSA2>  (133) 
54.650871

>  <SlogP_VSA3>  (133) 
31.577018

>  <SlogP_VSA4>  (133) 
0.0

>  <SlogP_VSA5>  (133) 
6.227901

>  <SlogP_VSA6>  (133) 
12.65464

>  <SlogP_VSA7>  (133) 
0.0

>  <SlogP_VSA8>  (133) 
11.163878

>  <SlogP_VSA9>  (133) 
0.0

>  <EState_VSA1>  (133) 
54.614774

>  <EState_VSA10>  (133) 
43.481846

>  <EState_VSA11>  (133) 
0.0

>  <EState_VSA2>  (133) 
16.981741

>  <EState_VSA3>  (133) 
0.0

>  <EState_VSA4>  (133) 
12.65464

>  <EState_VSA5>  (133) 
4.5671

>  <EState_VSA6>  (133) 
0.0

>  <EState_VSA7>  (133) 
0.0

>  <EState_VSA8>  (133) 
28.096945

>  <EState_VSA9>  (133) 
10.47053

>  <VSA_EState1>  (133) 
50.204863

>  <VSA_EState10>  (133) 
0.0

>  <VSA_EState2>  (133) 
54.927006

>  <VSA_EState3>  (133) 
20.320829

>  <VSA_EState4>  (133) 
5.922478

>  <VSA_EState5>  (133) 
0.019517

>  <VSA_EState6>  (133) 
0.0

>  <VSA_EState7>  (133) 
-3.993378

>  <VSA_EState8>  (133) 
-1.07771

>  <VSA_EState9>  (133) 
-18.073605

>  <FractionCSP3>  (133) 
0.5

>  <HeavyAtomCount>  (133) 
31

>  <NHOHCount>  (133) 
4

>  <NOCount>  (133) 
18

>  <NumAliphaticCarbocycles>  (133) 
0

>  <NumAliphaticHeterocycles>  (133) 
1

>  <NumAliphaticRings>  (133) 
1

>  <NumAromaticCarbocycles>  (133) 
0

>  <NumAromaticHeterocycles>  (133) 
2

>  <NumAromaticRings>  (133) 
2

>  <NumHAcceptors>  (133) 
18

>  <NumHDonors>  (133) 
3

>  <NumHeteroatoms>  (133) 
21

>  <NumRotatableBonds>  (133) 
8

>  <NumSaturatedCarbocycles>  (133) 
0

>  <NumSaturatedHeterocycles>  (133) 
1

>  <NumSaturatedRings>  (133) 
1

>  <RingCount>  (133) 
3

>  <MolLogP>  (133) 
-4.157

>  <MolMR>  (133) 
86.6005

>  <fr_Al_COO>  (133) 
0

>  <fr_Al_OH>  (133) 
2

>  <fr_Al_OH_noTert>  (133) 
2

>  <fr_ArN>  (133) 
1

>  <fr_Ar_COO>  (133) 
0

>  <fr_Ar_N>  (133) 
4

>  <fr_Ar_NH>  (133) 
0

>  <fr_Ar_OH>  (133) 
0

>  <fr_COO>  (133) 
0

>  <fr_COO2>  (133) 
0

>  <fr_C_O>  (133) 
0

>  <fr_C_O_noCOO>  (133) 
0

>  <fr_C_S>  (133) 
0

>  <fr_HOCCN>  (133) 
0

>  <fr_Imine>  (133) 
0

>  <fr_NH0>  (133) 
4

>  <fr_NH1>  (133) 
0

>  <fr_NH2>  (133) 
1

>  <fr_N_O>  (133) 
0

>  <fr_Ndealkylation1>  (133) 
0

>  <fr_Ndealkylation2>  (133) 
0

>  <fr_Nhpyrrole>  (133) 
0

>  <fr_SH>  (133) 
0

>  <fr_aldehyde>  (133) 
0

>  <fr_alkyl_carbamate>  (133) 
0

>  <fr_alkyl_halide>  (133) 
0

>  <fr_allylic_oxid>  (133) 
0

>  <fr_amide>  (133) 
0

>  <fr_amidine>  (133) 
0

>  <fr_aniline>  (133) 
1

>  <fr_aryl_methyl>  (133) 
0

>  <fr_azide>  (133) 
0

>  <fr_azo>  (133) 
0

>  <fr_barbitur>  (133) 
0

>  <fr_benzene>  (133) 
0

>  <fr_benzodiazepine>  (133) 
0

>  <fr_bicyclic>  (133) 
1

>  <fr_diazo>  (133) 
0

>  <fr_dihydropyridine>  (133) 
0

>  <fr_epoxide>  (133) 
0

>  <fr_ester>  (133) 
0

>  <fr_ether>  (133) 
1

>  <fr_furan>  (133) 
0

>  <fr_guanido>  (133) 
0

>  <fr_halogen>  (133) 
0

>  <fr_hdrzine>  (133) 
0

>  <fr_hdrzone>  (133) 
0

>  <fr_imidazole>  (133) 
1

>  <fr_imide>  (133) 
0

>  <fr_isocyan>  (133) 
0

>  <fr_isothiocyan>  (133) 
0

>  <fr_ketone>  (133) 
0

>  <fr_ketone_Topliss>  (133) 
0

>  <fr_lactam>  (133) 
0

>  <fr_lactone>  (133) 
0

>  <fr_methoxy>  (133) 
0

>  <fr_morpholine>  (133) 
0

>  <fr_nitrile>  (133) 
0

>  <fr_nitro>  (133) 
0

>  <fr_nitro_arom>  (133) 
0

>  <fr_nitro_arom_nonortho>  (133) 
0

>  <fr_nitroso>  (133) 
0

>  <fr_oxazole>  (133) 
0

>  <fr_oxime>  (133) 
0

>  <fr_para_hydroxylation>  (133) 
0

>  <fr_phenol>  (133) 
0

>  <fr_phenol_noOrthoHbond>  (133) 
0

>  <fr_phos_acid>  (133) 
3

>  <fr_phos_ester>  (133) 
1

>  <fr_piperdine>  (133) 
0

>  <fr_piperzine>  (133) 
0

>  <fr_priamide>  (133) 
0

>  <fr_prisulfonamd>  (133) 
0

>  <fr_pyridine>  (133) 
0

>  <fr_quatN>  (133) 
0

>  <fr_sulfide>  (133) 
0

>  <fr_sulfonamd>  (133) 
0

>  <fr_sulfone>  (133) 
0

>  <fr_term_acetylene>  (133) 
0

>  <fr_tetrazole>  (133) 
0

>  <fr_thiazole>  (133) 
0

>  <fr_thiocyan>  (133) 
0

>  <fr_thiophene>  (133) 
0

>  <fr_unbrch_alkane>  (133) 
0

>  <fr_urea>  (133) 
0

>  <NP_Likeness>  (133) 
0.811139

$$$$
ATP
     RDKit          3D

  0  0  0  0  0  0  0  0  0  0999 V3000
M  V30 BEGIN CTAB
M  V30 COUNTS 43 45 0 0 0
M  V30 BEGIN ATOM
M  V30 1 P 52.435000 7.993000 -0.753000 0
M  V30 2 P 50.708000 10.347000 -1.079000 0 CFG=2
M  V30 3 P 48.066000 9.765000 -0.030000 0 CFG=1
M  V30 4 O 52.454000 8.023000 -2.273000 0
M  V30 5 O 51.813000 6.792000 -0.163000 0 CHG=-1
M  V30 6 O 53.761000 8.375000 -0.097000 0 CHG=-1
M  V30 7 O 50.300000 9.914000 -2.480000 0
M  V30 8 O 51.597000 11.545000 -0.999000 0 CHG=-1
M  V30 9 O 47.078000 9.969000 -1.156000 0
M  V30 10 O 48.428000 8.390000 0.362000 0 CHG=-1
M  V30 11 O 46.230000 8.724000 5.868000 0
M  V30 12 O 47.925000 7.705000 3.889000 0
M  V30 13 O 51.328000 9.117000 -0.253000 0
M  V30 14 O 49.338000 10.680000 -0.277000 0
M  V30 15 O 47.379000 10.482000 1.223000 0
M  V30 16 O 46.146000 10.877000 3.758000 0
M  V30 17 N 39.773000 9.986000 1.409000 0
M  V30 18 N 39.990000 10.079000 3.787000 0
M  V30 19 N 42.125000 10.094000 4.893000 0
M  V30 20 N 42.868000 9.900000 1.440000 0
M  V30 21 N 44.035000 9.985000 3.331000 0
M  V30 22 C 48.199000 10.551000 2.423000 0
M  V30 23 C 40.774000 10.085000 4.891000 0
M  V30 24 C 44.108000 9.931000 1.985000 0
M  V30 25 C 45.690000 8.631000 4.540000 0 CFG=2
M  V30 26 C 46.867000 8.634000 3.573000 0 CFG=1
M  V30 27 C 45.140000 10.024000 4.298000 0 CFG=1
M  V30 28 C 40.531000 10.013000 2.539000 0
M  V30 29 C 47.351000 10.089000 3.621000 0 CFG=2
M  V30 30 C 42.761000 10.024000 3.691000 0
M  V30 31 C 41.989000 9.986000 2.463000 0
M  V30 32 H 46.828300 7.941400 6.040100 0
M  V30 33 H 47.561100 6.773600 3.891200 0
M  V30 34 H 40.213400 9.937200 0.512500 0
M  V30 35 H 38.775600 10.014900 1.475200 0
M  V30 36 H 48.504800 11.491900 2.569000 0
M  V30 37 H 48.994700 9.953700 2.322600 0
M  V30 38 H 40.314600 10.082600 5.779200 0
M  V30 39 H 44.960000 9.915900 1.461600 0
M  V30 40 H 45.033700 7.889000 4.402900 0
M  V30 41 H 46.528900 8.436800 2.652800 0
M  V30 42 H 44.811000 10.405200 5.162000 0
M  V30 43 H 47.895700 10.207800 4.451200 0
M  V30 END ATOM
M  V30 BEGIN BOND
M  V30 1 2 1 4
M  V30 2 1 1 5
M  V30 3 1 1 6
M  V30 4 1 1 13
M  V30 5 2 2 7
M  V30 6 1 2 8 CFG=3
M  V30 7 1 2 13
M  V30 8 1 2 14
M  V30 9 2 3 9
M  V30 10 1 3 10 CFG=1
M  V30 11 1 3 14
M  V30 12 1 3 15
M  V30 13 1 11 25
M  V30 14 1 12 26
M  V30 15 1 15 22
M  V30 16 1 16 27
M  V30 17 1 16 29
M  V30 18 1 17 28
M  V30 19 2 18 23
M  V30 20 1 18 28
M  V30 21 1 19 23
M  V30 22 2 19 30
M  V30 23 2 20 24
M  V30 24 1 20 31
M  V30 25 1 21 24
M  V30 26 1 21 27
M  V30 27 1 21 30
M  V30 28 1 22 29
M  V30 29 1 25 26
M  V30 30 1 25 27
M  V30 31 1 26 29
M  V30 32 2 28 31
M  V30 33 1 30 31
M  V30 34 1 29 43 CFG=1
M  V30 35 1 27 42 CFG=1
M  V30 36 1 26 41 CFG=3
M  V30 37 1 25 40 CFG=1
M  V30 38 1 11 32
M  V30 39 1 12 33
M  V30 40 1 17 34
M  V30 41 1 17 35
M  V30 42 1 22 36
M  V30 43 1 22 37
M  V30 44 1 23 38
M  V30 45 1 24 39
M  V30 END BOND
M  V30 END CTAB
M  END
>  <Ligand_Instance>  (134) 
4WB8_ATP_A_401

>  <Dataset>  (134) 
PDB

>  <PDB_ID>  (134) 
4WB8

>  <Chain>  (134) 
A

>  <Resi>  (134) 
401

>  <Num_Resolved_Atoms>  (134) 
31

>  <Num_H_Atoms_ProtBoundConf>  (134) 
12

>  <Pocket>  (134) 
A

>  <Name>  (134) 
ADENOSINE-5'-TRIPHOSPHATE

>  <Num_Not_Resolved_Atoms>  (134) 
0

>  <ATP_Site>  (134) 
True

>  <Peripheral>  (134) 
False

>  <Standardized_SMILES>  (134) 
[H]O[C@@]1([H])[C@@]([H])(O[H])[C@]([H])(N2C([H])=NC3=C2N=C([H])N=C3N([H])[H])O[C@]1([H])C([H])([H])O[P@](=O)([O-])O[P@@](=O)([O-])OP(=O)([O-])[O-]

>  <2D_Mol_H>  (134) 
<rdkit.Chem.rdchem.Mol object at 0x77059d9f9700>

>  <MW>  (134) 
503.15

>  <HBA>  (134) 
18

>  <HBD>  (134) 
3

>  <LogP>  (134) 
-4.157

>  <NRB>  (134) 
11

>  <TPSA>  (134) 
290.45

>  <Num_Heavy_Atoms>  (134) 
31

>  <Ro5>  (134) 
[False, False, True, True, False, False]

>  <Ro5_Fulfilled>  (134) 
False

>  <Ro3>  (134) 
[False, False, True, True]

>  <Ro3_Fulfilled>  (134) 
False

>  <Fsp3>  (134) 
0.5

>  <Fsp3_0.42>  (134) 
True

>  <Fsp3_0.45>  (134) 
True

>  <Stereogenic_Carbons>  (134) 
4

>  <C_Atoms>  (134) 
10

>  <FCStereo>  (134) 
0.4

>  <SPS>  (134) 
882

>  <nSPS>  (134) 
28.451613

>  <PBF>  (134) 
0.796359

>  <PBF_0.6>  (134) 
True

>  <nPBF>  (134) 
0.025689

>  <nPBF_0.016>  (134) 
True

>  <PMI1>  (134) 
1722.753184

>  <PMI2>  (134) 
9863.746157

>  <PMI3>  (134) 
10720.788692

>  <NPR1>  (134) 
0.160693

>  <NPR2>  (134) 
0.920058

>  <Sum_NPR>  (134) 
1.080751

>  <Sum_NPR_1.07>  (134) 
True

>  <Sum_NPR_1.2>  (134) 
False

>  <MaxAbsEStateIndex>  (134) 
11.591022

>  <MaxEStateIndex>  (134) 
11.591022

>  <MinAbsEStateIndex>  (134) 
0.019517

>  <MinEStateIndex>  (134) 
-6.13789

>  <qed>  (134) 
0.28788

>  <MolWt>  (134) 
503.15

>  <HeavyAtomMolWt>  (134) 
491.054

>  <ExactMolWt>  (134) 
502.96664

>  <NumValenceElectrons>  (134) 
174

>  <NumRadicalElectrons>  (134) 
0

>  <MaxPartialCharge>  (134) 
0.277775

>  <MinPartialCharge>  (134) 
-0.789509

>  <MaxAbsPartialCharge>  (134) 
0.789509

>  <MinAbsPartialCharge>  (134) 
0.277775

>  <FpDensityMorgan1>  (134) 
1.064516

>  <FpDensityMorgan2>  (134) 
1.741935

>  <FpDensityMorgan3>  (134) 
2.387097

>  <BCUT2D_MWHI>  (134) 
31.29809

>  <BCUT2D_MWLOW>  (134) 
10.128388

>  <BCUT2D_CHGHI>  (134) 
2.446414

>  <BCUT2D_CHGLO>  (134) 
-2.372117

>  <BCUT2D_LOGPHI>  (134) 
2.601149

>  <BCUT2D_LOGPLOW>  (134) 
-2.337005

>  <BCUT2D_MRHI>  (134) 
7.643939

>  <BCUT2D_MRLOW>  (134) 
-0.338932

>  <AvgIpc>  (134) 
3.133568

>  <BalabanJ>  (134) 
1.689409

>  <BertzCT>  (134) 
1104.784407

>  <Chi0>  (134) 
23.18987

>  <Chi0n>  (134) 
14.764212

>  <Chi0v>  (134) 
17.447494

>  <Chi1>  (134) 
14.190889

>  <Chi1n>  (134) 
7.849713

>  <Chi1v>  (134) 
12.231493

>  <Chi2n>  (134) 
5.929951

>  <Chi2v>  (134) 
10.177826

>  <Chi3n>  (134) 
3.795354

>  <Chi3v>  (134) 
7.460653

>  <Chi4n>  (134) 
2.601107

>  <Chi4v>  (134) 
5.466344

>  <HallKierAlpha>  (134) 
-1.36

>  <Ipc>  (134) 
3947352.346056

>  <Kappa1>  (134) 
24.285736

>  <Kappa2>  (134) 
8.532213

>  <Kappa3>  (134) 
5.714341

>  <LabuteASA>  (134) 
171.218329

>  <PEOE_VSA1>  (134) 
49.346027

>  <PEOE_VSA10>  (134) 
30.15592

>  <PEOE_VSA11>  (134) 
17.692941

>  <PEOE_VSA12>  (134) 
0.0

>  <PEOE_VSA13>  (134) 
15.645394

>  <PEOE_VSA14>  (134) 
0.0

>  <PEOE_VSA2>  (134) 
18.007828

>  <PEOE_VSA3>  (134) 
19.262567

>  <PEOE_VSA4>  (134) 
0.0

>  <PEOE_VSA5>  (134) 
0.0

>  <PEOE_VSA6>  (134) 
0.0

>  <PEOE_VSA7>  (134) 
0.0

>  <PEOE_VSA8>  (134) 
0.0

>  <PEOE_VSA9>  (134) 
20.756899

>  <SMR_VSA1>  (134) 
61.363719

>  <SMR_VSA10>  (134) 
40.449832

>  <SMR_VSA2>  (134) 
0.0

>  <SMR_VSA3>  (134) 
19.519035

>  <SMR_VSA4>  (134) 
0.0

>  <SMR_VSA5>  (134) 
24.5398

>  <SMR_VSA6>  (134) 
12.340549

>  <SMR_VSA7>  (134) 
12.65464

>  <SMR_VSA8>  (134) 
0.0

>  <SMR_VSA9>  (134) 
0.0

>  <SlogP_VSA1>  (134) 
25.307314

>  <SlogP_VSA10>  (134) 
5.817863

>  <SlogP_VSA11>  (134) 
0.0

>  <SlogP_VSA12>  (134) 
23.468091

>  <SlogP_VSA2>  (134) 
54.650871

>  <SlogP_VSA3>  (134) 
31.577018

>  <SlogP_VSA4>  (134) 
0.0

>  <SlogP_VSA5>  (134) 
6.227901

>  <SlogP_VSA6>  (134) 
12.65464

>  <SlogP_VSA7>  (134) 
0.0

>  <SlogP_VSA8>  (134) 
11.163878

>  <SlogP_VSA9>  (134) 
0.0

>  <EState_VSA1>  (134) 
54.614774

>  <EState_VSA10>  (134) 
43.481846

>  <EState_VSA11>  (134) 
0.0

>  <EState_VSA2>  (134) 
16.981741

>  <EState_VSA3>  (134) 
0.0

>  <EState_VSA4>  (134) 
12.65464

>  <EState_VSA5>  (134) 
4.5671

>  <EState_VSA6>  (134) 
0.0

>  <EState_VSA7>  (134) 
0.0

>  <EState_VSA8>  (134) 
28.096945

>  <EState_VSA9>  (134) 
10.47053

>  <VSA_EState1>  (134) 
50.204863

>  <VSA_EState10>  (134) 
0.0

>  <VSA_EState2>  (134) 
54.927006

>  <VSA_EState3>  (134) 
20.320829

>  <VSA_EState4>  (134) 
5.922478

>  <VSA_EState5>  (134) 
0.019517

>  <VSA_EState6>  (134) 
0.0

>  <VSA_EState7>  (134) 
-3.993378

>  <VSA_EState8>  (134) 
-1.07771

>  <VSA_EState9>  (134) 
-18.073605

>  <FractionCSP3>  (134) 
0.5

>  <HeavyAtomCount>  (134) 
31

>  <NHOHCount>  (134) 
4

>  <NOCount>  (134) 
18

>  <NumAliphaticCarbocycles>  (134) 
0

>  <NumAliphaticHeterocycles>  (134) 
1

>  <NumAliphaticRings>  (134) 
1

>  <NumAromaticCarbocycles>  (134) 
0

>  <NumAromaticHeterocycles>  (134) 
2

>  <NumAromaticRings>  (134) 
2

>  <NumHAcceptors>  (134) 
18

>  <NumHDonors>  (134) 
3

>  <NumHeteroatoms>  (134) 
21

>  <NumRotatableBonds>  (134) 
8

>  <NumSaturatedCarbocycles>  (134) 
0

>  <NumSaturatedHeterocycles>  (134) 
1

>  <NumSaturatedRings>  (134) 
1

>  <RingCount>  (134) 
3

>  <MolLogP>  (134) 
-4.157

>  <MolMR>  (134) 
86.6005

>  <fr_Al_COO>  (134) 
0

>  <fr_Al_OH>  (134) 
2

>  <fr_Al_OH_noTert>  (134) 
2

>  <fr_ArN>  (134) 
1

>  <fr_Ar_COO>  (134) 
0

>  <fr_Ar_N>  (134) 
4

>  <fr_Ar_NH>  (134) 
0

>  <fr_Ar_OH>  (134) 
0

>  <fr_COO>  (134) 
0

>  <fr_COO2>  (134) 
0

>  <fr_C_O>  (134) 
0

>  <fr_C_O_noCOO>  (134) 
0

>  <fr_C_S>  (134) 
0

>  <fr_HOCCN>  (134) 
0

>  <fr_Imine>  (134) 
0

>  <fr_NH0>  (134) 
4

>  <fr_NH1>  (134) 
0

>  <fr_NH2>  (134) 
1

>  <fr_N_O>  (134) 
0

>  <fr_Ndealkylation1>  (134) 
0

>  <fr_Ndealkylation2>  (134) 
0

>  <fr_Nhpyrrole>  (134) 
0

>  <fr_SH>  (134) 
0

>  <fr_aldehyde>  (134) 
0

>  <fr_alkyl_carbamate>  (134) 
0

>  <fr_alkyl_halide>  (134) 
0

>  <fr_allylic_oxid>  (134) 
0

>  <fr_amide>  (134) 
0

>  <fr_amidine>  (134) 
0

>  <fr_aniline>  (134) 
1

>  <fr_aryl_methyl>  (134) 
0

>  <fr_azide>  (134) 
0

>  <fr_azo>  (134) 
0

>  <fr_barbitur>  (134) 
0

>  <fr_benzene>  (134) 
0

>  <fr_benzodiazepine>  (134) 
0

>  <fr_bicyclic>  (134) 
1

>  <fr_diazo>  (134) 
0

>  <fr_dihydropyridine>  (134) 
0

>  <fr_epoxide>  (134) 
0

>  <fr_ester>  (134) 
0

>  <fr_ether>  (134) 
1

>  <fr_furan>  (134) 
0

>  <fr_guanido>  (134) 
0

>  <fr_halogen>  (134) 
0

>  <fr_hdrzine>  (134) 
0

>  <fr_hdrzone>  (134) 
0

>  <fr_imidazole>  (134) 
1

>  <fr_imide>  (134) 
0

>  <fr_isocyan>  (134) 
0

>  <fr_isothiocyan>  (134) 
0

>  <fr_ketone>  (134) 
0

>  <fr_ketone_Topliss>  (134) 
0

>  <fr_lactam>  (134) 
0

>  <fr_lactone>  (134) 
0

>  <fr_methoxy>  (134) 
0

>  <fr_morpholine>  (134) 
0

>  <fr_nitrile>  (134) 
0

>  <fr_nitro>  (134) 
0

>  <fr_nitro_arom>  (134) 
0

>  <fr_nitro_arom_nonortho>  (134) 
0

>  <fr_nitroso>  (134) 
0

>  <fr_oxazole>  (134) 
0

>  <fr_oxime>  (134) 
0

>  <fr_para_hydroxylation>  (134) 
0

>  <fr_phenol>  (134) 
0

>  <fr_phenol_noOrthoHbond>  (134) 
0

>  <fr_phos_acid>  (134) 
3

>  <fr_phos_ester>  (134) 
1

>  <fr_piperdine>  (134) 
0

>  <fr_piperzine>  (134) 
0

>  <fr_priamide>  (134) 
0

>  <fr_prisulfonamd>  (134) 
0

>  <fr_pyridine>  (134) 
0

>  <fr_quatN>  (134) 
0

>  <fr_sulfide>  (134) 
0

>  <fr_sulfonamd>  (134) 
0

>  <fr_sulfone>  (134) 
0

>  <fr_term_acetylene>  (134) 
0

>  <fr_tetrazole>  (134) 
0

>  <fr_thiazole>  (134) 
0

>  <fr_thiocyan>  (134) 
0

>  <fr_thiophene>  (134) 
0

>  <fr_unbrch_alkane>  (134) 
0

>  <fr_urea>  (134) 
0

>  <NP_Likeness>  (134) 
0.811139

$$$$
ATP
     RDKit          3D

  0  0  0  0  0  0  0  0  0  0999 V3000
M  V30 BEGIN CTAB
M  V30 COUNTS 43 45 0 0 0
M  V30 BEGIN ATOM
M  V30 1 P -0.809000 11.009000 -14.614000 0
M  V30 2 P -2.775000 11.631000 -12.419000 0 CFG=2
M  V30 3 P -5.281000 10.394000 -13.519000 0 CFG=2
M  V30 4 O -1.568000 9.960000 -15.385000 0
M  V30 5 O 0.671000 10.738000 -14.533000 0 CHG=-1
M  V30 6 O -1.049000 12.401000 -15.111000 0 CHG=-1
M  V30 7 O -3.150000 12.793000 -13.270000 0
M  V30 8 O -2.539000 11.824000 -10.946000 0 CHG=-1
M  V30 9 O -5.037000 10.165000 -14.969000 0
M  V30 10 O -6.251000 11.482000 -13.169000 0 CHG=-1
M  V30 11 O -7.133000 4.312000 -14.111000 0
M  V30 12 O -6.071000 6.429000 -15.652000 0
M  V30 13 O -1.407000 10.904000 -13.047000 0
M  V30 14 O -3.906000 10.505000 -12.645000 0
M  V30 15 O -5.844000 9.002000 -12.902000 0
M  V30 16 O -6.774000 6.476000 -12.085000 0
M  V30 17 N -13.290000 8.950000 -11.939000 0
M  V30 18 N -13.053000 6.568000 -11.893000 0
M  V30 19 N -10.968000 5.469000 -12.120000 0
M  V30 20 N -10.176000 8.942000 -12.351000 0
M  V30 21 N -9.058000 6.997000 -12.408000 0
M  V30 22 C -4.977000 7.860000 -12.924000 0
M  V30 23 C -12.309000 5.445000 -11.949000 0
M  V30 24 C -8.966000 8.351000 -12.517000 0
M  V30 25 C -7.753000 5.617000 -14.018000 0 CFG=2
M  V30 26 C -6.760000 6.687000 -14.415000 0 CFG=1
M  V30 27 C -8.005000 5.944000 -12.556000 0 CFG=1
M  V30 28 C -12.524000 7.829000 -11.974000 0
M  V30 29 C -5.836000 6.612000 -13.185000 0 CFG=2
M  V30 30 C -10.306000 6.670000 -12.136000 0
M  V30 31 C -11.062000 7.948000 -12.157000 0
M  V30 32 H -6.833200 4.151700 -15.051400 0
M  V30 33 H -6.661700 5.895800 -16.257600 0
M  V30 34 H -12.860800 9.851000 -12.001300 0
M  V30 35 H -14.283200 8.874300 -11.850900 0
M  V30 36 H -4.510200 7.772000 -12.044000 0
M  V30 37 H -4.299300 7.963100 -13.652000 0
M  V30 38 H -12.766600 4.560200 -11.860700 0
M  V30 39 H -8.115900 8.846200 -12.696300 0
M  V30 40 H -8.591700 5.669200 -14.560100 0
M  V30 41 H -7.211500 7.578500 -14.452200 0
M  V30 42 H -8.253300 5.120300 -12.046300 0
M  V30 43 H -5.254100 5.800700 -13.242000 0
M  V30 END ATOM
M  V30 BEGIN BOND
M  V30 1 2 1 4
M  V30 2 1 1 5
M  V30 3 1 1 6
M  V30 4 1 1 13
M  V30 5 2 2 7
M  V30 6 1 2 8 CFG=1
M  V30 7 1 2 13
M  V30 8 1 2 14
M  V30 9 2 3 9
M  V30 10 1 3 10 CFG=3
M  V30 11 1 3 14
M  V30 12 1 3 15
M  V30 13 1 11 25
M  V30 14 1 12 26
M  V30 15 1 15 22
M  V30 16 1 16 27
M  V30 17 1 16 29
M  V30 18 1 17 28
M  V30 19 2 18 23
M  V30 20 1 18 28
M  V30 21 1 19 23
M  V30 22 2 19 30
M  V30 23 2 20 24
M  V30 24 1 20 31
M  V30 25 1 21 24
M  V30 26 1 21 27
M  V30 27 1 21 30
M  V30 28 1 22 29
M  V30 29 1 25 26
M  V30 30 1 25 27
M  V30 31 1 26 29
M  V30 32 2 28 31
M  V30 33 1 30 31
M  V30 34 1 29 43 CFG=3
M  V30 35 1 27 42 CFG=1
M  V30 36 1 26 41 CFG=3
M  V30 37 1 25 40 CFG=3
M  V30 38 1 11 32
M  V30 39 1 12 33
M  V30 40 1 17 34
M  V30 41 1 17 35
M  V30 42 1 22 36
M  V30 43 1 22 37
M  V30 44 1 23 38
M  V30 45 1 24 39
M  V30 END BOND
M  V30 END CTAB
M  END
>  <Ligand_Instance>  (135) 
4XW5_ATP_A_403

>  <Dataset>  (135) 
PDB

>  <PDB_ID>  (135) 
4XW5

>  <Chain>  (135) 
A

>  <Resi>  (135) 
403

>  <Num_Resolved_Atoms>  (135) 
31

>  <Num_H_Atoms_ProtBoundConf>  (135) 
12

>  <Pocket>  (135) 
A

>  <Name>  (135) 
ADENOSINE-5'-TRIPHOSPHATE

>  <Num_Not_Resolved_Atoms>  (135) 
0

>  <ATP_Site>  (135) 
True

>  <Peripheral>  (135) 
False

>  <Standardized_SMILES>  (135) 
[H]O[C@@]1([H])[C@@]([H])(O[H])[C@]([H])(N2C([H])=NC3=C2N=C([H])N=C3N([H])[H])O[C@]1([H])C([H])([H])O[P@@](=O)([O-])O[P@@](=O)([O-])OP(=O)([O-])[O-]

>  <2D_Mol_H>  (135) 
<rdkit.Chem.rdchem.Mol object at 0x77059d9f97e0>

>  <MW>  (135) 
503.15

>  <HBA>  (135) 
18

>  <HBD>  (135) 
3

>  <LogP>  (135) 
-4.157

>  <NRB>  (135) 
11

>  <TPSA>  (135) 
290.45

>  <Num_Heavy_Atoms>  (135) 
31

>  <Ro5>  (135) 
[False, False, True, True, False, False]

>  <Ro5_Fulfilled>  (135) 
False

>  <Ro3>  (135) 
[False, False, True, True]

>  <Ro3_Fulfilled>  (135) 
False

>  <Fsp3>  (135) 
0.5

>  <Fsp3_0.42>  (135) 
True

>  <Fsp3_0.45>  (135) 
True

>  <Stereogenic_Carbons>  (135) 
4

>  <C_Atoms>  (135) 
10

>  <FCStereo>  (135) 
0.4

>  <SPS>  (135) 
882

>  <nSPS>  (135) 
28.451613

>  <PBF>  (135) 
0.774745

>  <PBF_0.6>  (135) 
True

>  <nPBF>  (135) 
0.024992

>  <nPBF_0.016>  (135) 
True

>  <PMI1>  (135) 
1810.018

>  <PMI2>  (135) 
9581.069982

>  <PMI3>  (135) 
10613.617079

>  <NPR1>  (135) 
0.170537

>  <NPR2>  (135) 
0.902715

>  <Sum_NPR>  (135) 
1.073252

>  <Sum_NPR_1.07>  (135) 
True

>  <Sum_NPR_1.2>  (135) 
False

>  <MaxAbsEStateIndex>  (135) 
11.591022

>  <MaxEStateIndex>  (135) 
11.591022

>  <MinAbsEStateIndex>  (135) 
0.019517

>  <MinEStateIndex>  (135) 
-6.13789

>  <qed>  (135) 
0.28788

>  <MolWt>  (135) 
503.15

>  <HeavyAtomMolWt>  (135) 
491.054

>  <ExactMolWt>  (135) 
502.96664

>  <NumValenceElectrons>  (135) 
174

>  <NumRadicalElectrons>  (135) 
0

>  <MaxPartialCharge>  (135) 
0.277775

>  <MinPartialCharge>  (135) 
-0.789509

>  <MaxAbsPartialCharge>  (135) 
0.789509

>  <MinAbsPartialCharge>  (135) 
0.277775

>  <FpDensityMorgan1>  (135) 
1.064516

>  <FpDensityMorgan2>  (135) 
1.741935

>  <FpDensityMorgan3>  (135) 
2.387097

>  <BCUT2D_MWHI>  (135) 
31.29809

>  <BCUT2D_MWLOW>  (135) 
10.128388

>  <BCUT2D_CHGHI>  (135) 
2.446414

>  <BCUT2D_CHGLO>  (135) 
-2.372117

>  <BCUT2D_LOGPHI>  (135) 
2.601149

>  <BCUT2D_LOGPLOW>  (135) 
-2.337005

>  <BCUT2D_MRHI>  (135) 
7.643939

>  <BCUT2D_MRLOW>  (135) 
-0.338932

>  <AvgIpc>  (135) 
3.133568

>  <BalabanJ>  (135) 
1.689409

>  <BertzCT>  (135) 
1104.784407

>  <Chi0>  (135) 
23.18987

>  <Chi0n>  (135) 
14.764212

>  <Chi0v>  (135) 
17.447494

>  <Chi1>  (135) 
14.190889

>  <Chi1n>  (135) 
7.849713

>  <Chi1v>  (135) 
12.231493

>  <Chi2n>  (135) 
5.929951

>  <Chi2v>  (135) 
10.177826

>  <Chi3n>  (135) 
3.795354

>  <Chi3v>  (135) 
7.460653

>  <Chi4n>  (135) 
2.601107

>  <Chi4v>  (135) 
5.466344

>  <HallKierAlpha>  (135) 
-1.36

>  <Ipc>  (135) 
3947352.346056

>  <Kappa1>  (135) 
24.285736

>  <Kappa2>  (135) 
8.532213

>  <Kappa3>  (135) 
5.714341

>  <LabuteASA>  (135) 
171.218329

>  <PEOE_VSA1>  (135) 
49.346027

>  <PEOE_VSA10>  (135) 
30.15592

>  <PEOE_VSA11>  (135) 
17.692941

>  <PEOE_VSA12>  (135) 
0.0

>  <PEOE_VSA13>  (135) 
15.645394

>  <PEOE_VSA14>  (135) 
0.0

>  <PEOE_VSA2>  (135) 
18.007828

>  <PEOE_VSA3>  (135) 
19.262567

>  <PEOE_VSA4>  (135) 
0.0

>  <PEOE_VSA5>  (135) 
0.0

>  <PEOE_VSA6>  (135) 
0.0

>  <PEOE_VSA7>  (135) 
0.0

>  <PEOE_VSA8>  (135) 
0.0

>  <PEOE_VSA9>  (135) 
20.756899

>  <SMR_VSA1>  (135) 
61.363719

>  <SMR_VSA10>  (135) 
40.449832

>  <SMR_VSA2>  (135) 
0.0

>  <SMR_VSA3>  (135) 
19.519035

>  <SMR_VSA4>  (135) 
0.0

>  <SMR_VSA5>  (135) 
24.5398

>  <SMR_VSA6>  (135) 
12.340549

>  <SMR_VSA7>  (135) 
12.65464

>  <SMR_VSA8>  (135) 
0.0

>  <SMR_VSA9>  (135) 
0.0

>  <SlogP_VSA1>  (135) 
25.307314

>  <SlogP_VSA10>  (135) 
5.817863

>  <SlogP_VSA11>  (135) 
0.0

>  <SlogP_VSA12>  (135) 
23.468091

>  <SlogP_VSA2>  (135) 
54.650871

>  <SlogP_VSA3>  (135) 
31.577018

>  <SlogP_VSA4>  (135) 
0.0

>  <SlogP_VSA5>  (135) 
6.227901

>  <SlogP_VSA6>  (135) 
12.65464

>  <SlogP_VSA7>  (135) 
0.0

>  <SlogP_VSA8>  (135) 
11.163878

>  <SlogP_VSA9>  (135) 
0.0

>  <EState_VSA1>  (135) 
54.614774

>  <EState_VSA10>  (135) 
43.481846

>  <EState_VSA11>  (135) 
0.0

>  <EState_VSA2>  (135) 
16.981741

>  <EState_VSA3>  (135) 
0.0

>  <EState_VSA4>  (135) 
12.65464

>  <EState_VSA5>  (135) 
4.5671

>  <EState_VSA6>  (135) 
0.0

>  <EState_VSA7>  (135) 
0.0

>  <EState_VSA8>  (135) 
28.096945

>  <EState_VSA9>  (135) 
10.47053

>  <VSA_EState1>  (135) 
50.204863

>  <VSA_EState10>  (135) 
0.0

>  <VSA_EState2>  (135) 
54.927006

>  <VSA_EState3>  (135) 
20.320829

>  <VSA_EState4>  (135) 
5.922478

>  <VSA_EState5>  (135) 
0.019517

>  <VSA_EState6>  (135) 
0.0

>  <VSA_EState7>  (135) 
-3.993378

>  <VSA_EState8>  (135) 
-1.07771

>  <VSA_EState9>  (135) 
-18.073605

>  <FractionCSP3>  (135) 
0.5

>  <HeavyAtomCount>  (135) 
31

>  <NHOHCount>  (135) 
4

>  <NOCount>  (135) 
18

>  <NumAliphaticCarbocycles>  (135) 
0

>  <NumAliphaticHeterocycles>  (135) 
1

>  <NumAliphaticRings>  (135) 
1

>  <NumAromaticCarbocycles>  (135) 
0

>  <NumAromaticHeterocycles>  (135) 
2

>  <NumAromaticRings>  (135) 
2

>  <NumHAcceptors>  (135) 
18

>  <NumHDonors>  (135) 
3

>  <NumHeteroatoms>  (135) 
21

>  <NumRotatableBonds>  (135) 
8

>  <NumSaturatedCarbocycles>  (135) 
0

>  <NumSaturatedHeterocycles>  (135) 
1

>  <NumSaturatedRings>  (135) 
1

>  <RingCount>  (135) 
3

>  <MolLogP>  (135) 
-4.157

>  <MolMR>  (135) 
86.6005

>  <fr_Al_COO>  (135) 
0

>  <fr_Al_OH>  (135) 
2

>  <fr_Al_OH_noTert>  (135) 
2

>  <fr_ArN>  (135) 
1

>  <fr_Ar_COO>  (135) 
0

>  <fr_Ar_N>  (135) 
4

>  <fr_Ar_NH>  (135) 
0

>  <fr_Ar_OH>  (135) 
0

>  <fr_COO>  (135) 
0

>  <fr_COO2>  (135) 
0

>  <fr_C_O>  (135) 
0

>  <fr_C_O_noCOO>  (135) 
0

>  <fr_C_S>  (135) 
0

>  <fr_HOCCN>  (135) 
0

>  <fr_Imine>  (135) 
0

>  <fr_NH0>  (135) 
4

>  <fr_NH1>  (135) 
0

>  <fr_NH2>  (135) 
1

>  <fr_N_O>  (135) 
0

>  <fr_Ndealkylation1>  (135) 
0

>  <fr_Ndealkylation2>  (135) 
0

>  <fr_Nhpyrrole>  (135) 
0

>  <fr_SH>  (135) 
0

>  <fr_aldehyde>  (135) 
0

>  <fr_alkyl_carbamate>  (135) 
0

>  <fr_alkyl_halide>  (135) 
0

>  <fr_allylic_oxid>  (135) 
0

>  <fr_amide>  (135) 
0

>  <fr_amidine>  (135) 
0

>  <fr_aniline>  (135) 
1

>  <fr_aryl_methyl>  (135) 
0

>  <fr_azide>  (135) 
0

>  <fr_azo>  (135) 
0

>  <fr_barbitur>  (135) 
0

>  <fr_benzene>  (135) 
0

>  <fr_benzodiazepine>  (135) 
0

>  <fr_bicyclic>  (135) 
1

>  <fr_diazo>  (135) 
0

>  <fr_dihydropyridine>  (135) 
0

>  <fr_epoxide>  (135) 
0

>  <fr_ester>  (135) 
0

>  <fr_ether>  (135) 
1

>  <fr_furan>  (135) 
0

>  <fr_guanido>  (135) 
0

>  <fr_halogen>  (135) 
0

>  <fr_hdrzine>  (135) 
0

>  <fr_hdrzone>  (135) 
0

>  <fr_imidazole>  (135) 
1

>  <fr_imide>  (135) 
0

>  <fr_isocyan>  (135) 
0

>  <fr_isothiocyan>  (135) 
0

>  <fr_ketone>  (135) 
0

>  <fr_ketone_Topliss>  (135) 
0

>  <fr_lactam>  (135) 
0

>  <fr_lactone>  (135) 
0

>  <fr_methoxy>  (135) 
0

>  <fr_morpholine>  (135) 
0

>  <fr_nitrile>  (135) 
0

>  <fr_nitro>  (135) 
0

>  <fr_nitro_arom>  (135) 
0

>  <fr_nitro_arom_nonortho>  (135) 
0

>  <fr_nitroso>  (135) 
0

>  <fr_oxazole>  (135) 
0

>  <fr_oxime>  (135) 
0

>  <fr_para_hydroxylation>  (135) 
0

>  <fr_phenol>  (135) 
0

>  <fr_phenol_noOrthoHbond>  (135) 
0

>  <fr_phos_acid>  (135) 
3

>  <fr_phos_ester>  (135) 
1

>  <fr_piperdine>  (135) 
0

>  <fr_piperzine>  (135) 
0

>  <fr_priamide>  (135) 
0

>  <fr_prisulfonamd>  (135) 
0

>  <fr_pyridine>  (135) 
0

>  <fr_quatN>  (135) 
0

>  <fr_sulfide>  (135) 
0

>  <fr_sulfonamd>  (135) 
0

>  <fr_sulfone>  (135) 
0

>  <fr_term_acetylene>  (135) 
0

>  <fr_tetrazole>  (135) 
0

>  <fr_thiazole>  (135) 
0

>  <fr_thiocyan>  (135) 
0

>  <fr_thiophene>  (135) 
0

>  <fr_unbrch_alkane>  (135) 
0

>  <fr_urea>  (135) 
0

>  <NP_Likeness>  (135) 
0.811139

$$$$
B4Z
     RDKit          3D

  0  0  0  0  0  0  0  0  0  0999 V3000
M  V30 BEGIN CTAB
M  V30 COUNTS 44 46 0 0 0
M  V30 BEGIN ATOM
M  V30 1 S -13.773000 -25.110000 27.488000 0
M  V30 2 O -13.213000 -26.210000 26.767000 0
M  V30 3 O -14.407000 -25.347000 28.749000 0
M  V30 4 N -12.597000 -24.033000 27.736000 0
M  V30 5 N -9.663000 -24.333000 27.591000 0 CHG=1
M  V30 6 N -17.422000 -26.280000 23.647000 0
M  V30 7 C -11.791000 -23.519000 26.616000 0
M  V30 8 C -10.490000 -24.258000 26.382000 0
M  V30 9 C -16.654000 -26.974000 24.500000 0
M  V30 10 C -6.023000 -23.337000 30.951000 0
M  V30 11 C -5.706000 -23.134000 29.631000 0
M  V30 12 C -7.350000 -23.427000 31.340000 0
M  V30 13 C -15.789000 -22.187000 25.653000 0
M  V30 14 C -9.129000 -23.034000 27.999000 0
M  V30 15 C -17.401000 -24.959000 23.743000 0
M  V30 16 C -14.942000 -22.910000 26.481000 0
M  V30 17 C -6.713000 -23.020000 28.690000 0
M  V30 18 C -8.398000 -23.312000 30.414000 0
M  V30 19 C -16.612000 -22.827000 24.769000 0
M  V30 20 C -15.847000 -26.406000 25.443000 0
M  V30 21 C -14.933000 -24.279000 26.439000 0
M  V30 22 C -8.055000 -23.115000 29.059000 0
M  V30 23 C -16.625000 -24.242000 24.683000 0
M  V30 24 C -15.792000 -24.998000 25.549000 0
M  V30 25 H -13.025300 -23.238400 28.166300 0
M  V30 26 H -8.897100 -24.951600 27.415400 0
M  V30 27 H -11.575800 -22.560200 26.801300 0
M  V30 28 H -12.339700 -23.582400 25.782400 0
M  V30 29 H -10.699000 -25.187400 26.078000 0
M  V30 30 H -9.974300 -23.782300 25.669400 0
M  V30 31 H -16.673900 -27.972100 24.441300 0
M  V30 32 H -5.295800 -23.420000 31.632400 0
M  V30 33 H -4.748500 -23.068600 29.350200 0
M  V30 34 H -7.566100 -23.577700 32.304700 0
M  V30 35 H -15.797300 -21.188300 25.703500 0
M  V30 36 H -9.882700 -22.482800 28.356800 0
M  V30 37 H -8.741900 -22.586200 27.193000 0
M  V30 38 H -17.970700 -24.434900 23.109900 0
M  V30 39 H -14.334300 -22.428400 27.112400 0
M  V30 40 H -6.475600 -22.867200 27.730700 0
M  V30 41 H -9.353500 -23.367600 30.703600 0
M  V30 42 H -17.212200 -22.290600 24.175700 0
M  V30 43 H -15.300400 -26.980300 26.052500 0
M  V30 44 H -10.221000 -24.696700 28.336800 0
M  V30 END ATOM
M  V30 BEGIN BOND
M  V30 1 2 1 2
M  V30 2 2 1 3
M  V30 3 1 1 4
M  V30 4 1 1 21
M  V30 5 1 4 7
M  V30 6 1 5 8
M  V30 7 1 5 14
M  V30 8 2 6 9
M  V30 9 1 6 15
M  V30 10 1 7 8
M  V30 11 1 9 20
M  V30 12 2 10 11
M  V30 13 1 10 12
M  V30 14 1 11 17
M  V30 15 2 12 18
M  V30 16 1 13 16
M  V30 17 2 13 19
M  V30 18 1 14 22
M  V30 19 2 15 23
M  V30 20 2 16 21
M  V30 21 2 17 22
M  V30 22 1 18 22
M  V30 23 1 19 23
M  V30 24 2 20 24
M  V30 25 1 21 24
M  V30 26 1 23 24
M  V30 27 1 4 25
M  V30 28 1 5 26
M  V30 29 1 7 27
M  V30 30 1 7 28
M  V30 31 1 8 29
M  V30 32 1 8 30
M  V30 33 1 9 31
M  V30 34 1 10 32
M  V30 35 1 11 33
M  V30 36 1 12 34
M  V30 37 1 13 35
M  V30 38 1 14 36
M  V30 39 1 14 37
M  V30 40 1 15 38
M  V30 41 1 16 39
M  V30 42 1 17 40
M  V30 43 1 18 41
M  V30 44 1 19 42
M  V30 45 1 20 43
M  V30 46 1 5 44
M  V30 END BOND
M  V30 END CTAB
M  END
>  <Ligand_Instance>  (136) 
6EH3_B4Z_A_401

>  <Dataset>  (136) 
PDB

>  <PDB_ID>  (136) 
6EH3

>  <Chain>  (136) 
A

>  <Resi>  (136) 
401

>  <Num_Resolved_Atoms>  (136) 
24

>  <Num_H_Atoms_ProtBoundConf>  (136) 
20

>  <Pocket>  (136) 
A

>  <Name>  (136) 
~{N}-[2-[(phenylmethyl)amino]ethyl]isoquinoline-5-sulfonamide

>  <Num_Not_Resolved_Atoms>  (136) 
0

>  <ATP_Site>  (136) 
True

>  <Peripheral>  (136) 
False

>  <Standardized_SMILES>  (136) 
[H]C1=NC([H])=C2C([H])=C([H])C([H])=C(S(=O)(=O)N([H])C([H])([H])C([H])([H])[N+]([H])([H])C([H])([H])C3=C([H])C([H])=C([H])C([H])=C3[H])C2=C1[H]

>  <2D_Mol_H>  (136) 
<rdkit.Chem.rdchem.Mol object at 0x77059d9f98c0>

>  <MW>  (136) 
342.444

>  <HBA>  (136) 
3

>  <HBD>  (136) 
2

>  <LogP>  (136) 
1.2767

>  <NRB>  (136) 
7

>  <TPSA>  (136) 
75.67

>  <Num_Heavy_Atoms>  (136) 
24

>  <Ro5>  (136) 
[True, True, True, True, True, True]

>  <Ro5_Fulfilled>  (136) 
True

>  <Ro3>  (136) 
[False, True, True, True]

>  <Ro3_Fulfilled>  (136) 
True

>  <Fsp3>  (136) 
0.166667

>  <Fsp3_0.42>  (136) 
False

>  <Fsp3_0.45>  (136) 
False

>  <Stereogenic_Carbons>  (136) 
0

>  <C_Atoms>  (136) 
18

>  <FCStereo>  (136) 
0.0

>  <SPS>  (136) 
280

>  <nSPS>  (136) 
11.666667

>  <PBF>  (136) 
0.886904

>  <PBF_0.6>  (136) 
True

>  <nPBF>  (136) 
0.036954

>  <nPBF_0.016>  (136) 
True

>  <PMI1>  (136) 
726.17019

>  <PMI2>  (136) 
6374.257294

>  <PMI3>  (136) 
6509.108238

>  <NPR1>  (136) 
0.111562

>  <NPR2>  (136) 
0.979283

>  <Sum_NPR>  (136) 
1.090845

>  <Sum_NPR_1.07>  (136) 
True

>  <Sum_NPR_1.2>  (136) 
False

>  <MaxAbsEStateIndex>  (136) 
12.533888

>  <MaxEStateIndex>  (136) 
12.533888

>  <MinAbsEStateIndex>  (136) 
0.296722

>  <MinEStateIndex>  (136) 
-3.529752

>  <qed>  (136) 
0.635191

>  <MolWt>  (136) 
342.444

>  <HeavyAtomMolWt>  (136) 
322.284

>  <ExactMolWt>  (136) 
342.127074

>  <NumValenceElectrons>  (136) 
124

>  <NumRadicalElectrons>  (136) 
0

>  <MaxPartialCharge>  (136) 
0.240888

>  <MinPartialCharge>  (136) 
-0.341417

>  <MaxAbsPartialCharge>  (136) 
0.341417

>  <MinAbsPartialCharge>  (136) 
0.240888

>  <FpDensityMorgan1>  (136) 
1.0

>  <FpDensityMorgan2>  (136) 
1.833333

>  <FpDensityMorgan3>  (136) 
2.666667

>  <BCUT2D_MWHI>  (136) 
32.233271

>  <BCUT2D_MWLOW>  (136) 
10.168343

>  <BCUT2D_CHGHI>  (136) 
2.162105

>  <BCUT2D_CHGLO>  (136) 
-2.087936

>  <BCUT2D_LOGPHI>  (136) 
2.209576

>  <BCUT2D_LOGPLOW>  (136) 
-2.836516

>  <BCUT2D_MRHI>  (136) 
7.893361

>  <BCUT2D_MRLOW>  (136) 
-0.66823

>  <AvgIpc>  (136) 
2.615265

>  <BalabanJ>  (136) 
1.596062

>  <BertzCT>  (136) 
906.459895

>  <Chi0>  (136) 
16.830216

>  <Chi0n>  (136) 
13.221482

>  <Chi0v>  (136) 
14.037979

>  <Chi1>  (136) 
11.666633

>  <Chi1n>  (136) 
7.846967

>  <Chi1v>  (136) 
9.33013

>  <Chi2n>  (136) 
5.517807

>  <Chi2v>  (136) 
7.253182

>  <Chi3n>  (136) 
3.793659

>  <Chi3v>  (136) 
5.312849

>  <Chi4n>  (136) 
2.58309

>  <Chi4v>  (136) 
3.858299

>  <HallKierAlpha>  (136) 
-2.28

>  <Ipc>  (136) 
361638.801905

>  <Kappa1>  (136) 
16.573337

>  <Kappa2>  (136) 
7.526221

>  <Kappa3>  (136) 
3.970361

>  <LabuteASA>  (136) 
141.345136

>  <PEOE_VSA1>  (136) 
5.316789

>  <PEOE_VSA10>  (136) 
6.544756

>  <PEOE_VSA11>  (136) 
0.0

>  <PEOE_VSA12>  (136) 
10.023291

>  <PEOE_VSA13>  (136) 
0.0

>  <PEOE_VSA14>  (136) 
0.0

>  <PEOE_VSA2>  (136) 
4.983979

>  <PEOE_VSA3>  (136) 
13.139892

>  <PEOE_VSA4>  (136) 
0.0

>  <PEOE_VSA5>  (136) 
0.0

>  <PEOE_VSA6>  (136) 
42.464569

>  <PEOE_VSA7>  (136) 
12.132734

>  <PEOE_VSA8>  (136) 
28.729587

>  <PEOE_VSA9>  (136) 
17.984996

>  <SMR_VSA1>  (136) 
13.734586

>  <SMR_VSA10>  (136) 
20.79574

>  <SMR_VSA2>  (136) 
0.0

>  <SMR_VSA3>  (136) 
9.706073

>  <SMR_VSA4>  (136) 
0.0

>  <SMR_VSA5>  (136) 
11.44024

>  <SMR_VSA6>  (136) 
13.089513

>  <SMR_VSA7>  (136) 
72.554442

>  <SMR_VSA8>  (136) 
0.0

>  <SMR_VSA9>  (136) 
0.0

>  <SlogP_VSA1>  (136) 
10.038883

>  <SlogP_VSA10>  (136) 
0.0

>  <SlogP_VSA11>  (136) 
0.0

>  <SlogP_VSA12>  (136) 
0.0

>  <SlogP_VSA2>  (136) 
26.491288

>  <SlogP_VSA3>  (136) 
16.568048

>  <SlogP_VSA4>  (136) 
0.0

>  <SlogP_VSA5>  (136) 
5.563451

>  <SlogP_VSA6>  (136) 
71.886474

>  <SlogP_VSA7>  (136) 
0.0

>  <SlogP_VSA8>  (136) 
10.772448

>  <SlogP_VSA9>  (136) 
0.0

>  <EState_VSA1>  (136) 
10.023291

>  <EState_VSA10>  (136) 
8.417797

>  <EState_VSA11>  (136) 
0.0

>  <EState_VSA2>  (136) 
0.0

>  <EState_VSA3>  (136) 
23.371221

>  <EState_VSA4>  (136) 
11.930981

>  <EState_VSA5>  (136) 
5.563451

>  <EState_VSA6>  (136) 
30.592788

>  <EState_VSA7>  (136) 
24.265468

>  <EState_VSA8>  (136) 
27.155596

>  <EState_VSA9>  (136) 
0.0

>  <VSA_EState1>  (136) 
27.742047

>  <VSA_EState10>  (136) 
0.0

>  <VSA_EState2>  (136) 
4.327829

>  <VSA_EState3>  (136) 
3.592132

>  <VSA_EState4>  (136) 
1.223991

>  <VSA_EState5>  (136) 
0.0

>  <VSA_EState6>  (136) 
17.049933

>  <VSA_EState7>  (136) 
3.274784

>  <VSA_EState8>  (136) 
1.90237

>  <VSA_EState9>  (136) 
-3.529752

>  <FractionCSP3>  (136) 
0.166667

>  <HeavyAtomCount>  (136) 
24

>  <NHOHCount>  (136) 
3

>  <NOCount>  (136) 
5

>  <NumAliphaticCarbocycles>  (136) 
0

>  <NumAliphaticHeterocycles>  (136) 
0

>  <NumAliphaticRings>  (136) 
0

>  <NumAromaticCarbocycles>  (136) 
2

>  <NumAromaticHeterocycles>  (136) 
1

>  <NumAromaticRings>  (136) 
3

>  <NumHAcceptors>  (136) 
3

>  <NumHDonors>  (136) 
2

>  <NumHeteroatoms>  (136) 
6

>  <NumRotatableBonds>  (136) 
7

>  <NumSaturatedCarbocycles>  (136) 
0

>  <NumSaturatedHeterocycles>  (136) 
0

>  <NumSaturatedRings>  (136) 
0

>  <RingCount>  (136) 
3

>  <MolLogP>  (136) 
1.2767

>  <MolMR>  (136) 
93.8699

>  <fr_Al_COO>  (136) 
0

>  <fr_Al_OH>  (136) 
0

>  <fr_Al_OH_noTert>  (136) 
0

>  <fr_ArN>  (136) 
0

>  <fr_Ar_COO>  (136) 
0

>  <fr_Ar_N>  (136) 
1

>  <fr_Ar_NH>  (136) 
0

>  <fr_Ar_OH>  (136) 
0

>  <fr_COO>  (136) 
0

>  <fr_COO2>  (136) 
0

>  <fr_C_O>  (136) 
0

>  <fr_C_O_noCOO>  (136) 
0

>  <fr_C_S>  (136) 
0

>  <fr_HOCCN>  (136) 
0

>  <fr_Imine>  (136) 
0

>  <fr_NH0>  (136) 
1

>  <fr_NH1>  (136) 
1

>  <fr_NH2>  (136) 
1

>  <fr_N_O>  (136) 
0

>  <fr_Ndealkylation1>  (136) 
0

>  <fr_Ndealkylation2>  (136) 
0

>  <fr_Nhpyrrole>  (136) 
0

>  <fr_SH>  (136) 
0

>  <fr_aldehyde>  (136) 
0

>  <fr_alkyl_carbamate>  (136) 
0

>  <fr_alkyl_halide>  (136) 
0

>  <fr_allylic_oxid>  (136) 
0

>  <fr_amide>  (136) 
0

>  <fr_amidine>  (136) 
0

>  <fr_aniline>  (136) 
0

>  <fr_aryl_methyl>  (136) 
0

>  <fr_azide>  (136) 
0

>  <fr_azo>  (136) 
0

>  <fr_barbitur>  (136) 
0

>  <fr_benzene>  (136) 
2

>  <fr_benzodiazepine>  (136) 
0

>  <fr_bicyclic>  (136) 
1

>  <fr_diazo>  (136) 
0

>  <fr_dihydropyridine>  (136) 
0

>  <fr_epoxide>  (136) 
0

>  <fr_ester>  (136) 
0

>  <fr_ether>  (136) 
0

>  <fr_furan>  (136) 
0

>  <fr_guanido>  (136) 
0

>  <fr_halogen>  (136) 
0

>  <fr_hdrzine>  (136) 
0

>  <fr_hdrzone>  (136) 
0

>  <fr_imidazole>  (136) 
0

>  <fr_imide>  (136) 
0

>  <fr_isocyan>  (136) 
0

>  <fr_isothiocyan>  (136) 
0

>  <fr_ketone>  (136) 
0

>  <fr_ketone_Topliss>  (136) 
0

>  <fr_lactam>  (136) 
0

>  <fr_lactone>  (136) 
0

>  <fr_methoxy>  (136) 
0

>  <fr_morpholine>  (136) 
0

>  <fr_nitrile>  (136) 
0

>  <fr_nitro>  (136) 
0

>  <fr_nitro_arom>  (136) 
0

>  <fr_nitro_arom_nonortho>  (136) 
0

>  <fr_nitroso>  (136) 
0

>  <fr_oxazole>  (136) 
0

>  <fr_oxime>  (136) 
0

>  <fr_para_hydroxylation>  (136) 
0

>  <fr_phenol>  (136) 
0

>  <fr_phenol_noOrthoHbond>  (136) 
0

>  <fr_phos_acid>  (136) 
0

>  <fr_phos_ester>  (136) 
0

>  <fr_piperdine>  (136) 
0

>  <fr_piperzine>  (136) 
0

>  <fr_priamide>  (136) 
0

>  <fr_prisulfonamd>  (136) 
0

>  <fr_pyridine>  (136) 
1

>  <fr_quatN>  (136) 
1

>  <fr_sulfide>  (136) 
0

>  <fr_sulfonamd>  (136) 
1

>  <fr_sulfone>  (136) 
0

>  <fr_term_acetylene>  (136) 
0

>  <fr_tetrazole>  (136) 
0

>  <fr_thiazole>  (136) 
0

>  <fr_thiocyan>  (136) 
0

>  <fr_thiophene>  (136) 
0

>  <fr_unbrch_alkane>  (136) 
0

>  <fr_urea>  (136) 
0

>  <NP_Likeness>  (136) 
-1.113919

$$$$
B99
     RDKit          3D

  0  0  0  0  0  0  0  0  0  0999 V3000
M  V30 BEGIN CTAB
M  V30 COUNTS 61 66 0 0 0
M  V30 BEGIN ATOM
M  V30 1 O -30.064000 -13.177000 2.352000 0
M  V30 2 O -24.970000 -8.493000 -0.644000 0
M  V30 3 N -23.040000 -7.199000 -1.298000 0 CHG=1
M  V30 4 N -32.727000 -10.244000 -4.061000 0
M  V30 5 N -33.154000 -10.065000 -2.799000 0
M  V30 6 N -21.461000 -10.335000 0.477000 0
M  V30 7 N -26.678000 -11.191000 1.048000 0
M  V30 8 C -30.692000 -10.555000 -5.456000 0
M  V30 9 C -30.430000 -13.576000 1.103000 0
M  V30 10 C -29.092000 -12.235000 2.208000 0
M  V30 11 C -24.846000 -8.629000 -2.045000 0
M  V30 12 C -25.760000 -10.310000 0.653000 0
M  V30 13 C -21.575000 -9.294000 -0.395000 0
M  V30 14 C -22.619000 -13.677000 -0.307000 0
M  V30 15 C -23.081000 -13.388000 -1.566000 0
M  V30 16 C -29.696000 -12.900000 0.154000 0
M  V30 17 C -22.043000 -12.728000 0.499000 0
M  V30 18 C -31.902000 -9.906000 -0.684000 0
M  V30 19 C -30.573000 -9.961000 -0.312000 0
M  V30 20 C -23.008000 -12.132000 -2.116000 0
M  V30 21 C -22.503000 -9.006000 -2.741000 0
M  V30 22 C -27.210000 -9.273000 -0.939000 0
M  V30 23 C -29.596000 -10.291000 -2.514000 0
M  V30 24 C -25.987000 -9.362000 -0.315000 0
M  V30 25 C -23.554000 -7.964000 -2.458000 0 CFG=2
M  V30 26 C -31.371000 -10.355000 -4.164000 0
M  V30 27 C -32.047000 -10.057000 -2.043000 0
M  V30 28 C -21.974000 -11.478000 -0.064000 0
M  V30 29 C -27.856000 -11.087000 0.430000 0
M  V30 30 C -28.835000 -12.035000 0.872000 0
M  V30 31 C -22.180000 -9.776000 -1.533000 0
M  V30 32 C -29.482000 -10.142000 -1.145000 0
M  V30 33 C -30.923000 -10.235000 -2.869000 0
M  V30 34 C -22.433000 -11.156000 -1.328000 0
M  V30 35 C -28.177000 -10.170000 -0.547000 0
M  V30 36 H -22.041300 -7.165300 -1.337000 0
M  V30 37 H -23.406100 -6.268800 -1.323500 0
M  V30 38 H -34.099000 -9.959900 -2.489200 0
M  V30 39 H -21.056500 -10.270200 1.389200 0
M  V30 40 H -29.704500 -10.609900 -5.308600 0
M  V30 41 H -31.014400 -11.404300 -5.874000 0
M  V30 42 H -30.896300 -9.786500 -6.062400 0
M  V30 43 H -31.130700 -14.261000 0.903500 0
M  V30 44 H -28.634200 -11.760400 2.959800 0
M  V30 45 H -25.618100 -8.185300 -2.500000 0
M  V30 46 H -24.824900 -9.597600 -2.292700 0
M  V30 47 H -24.858100 -10.340400 1.083900 0
M  V30 48 H -21.274400 -8.353400 -0.237000 0
M  V30 49 H -22.705200 -14.612600 0.035300 0
M  V30 50 H -23.488600 -14.124000 -2.106600 0
M  V30 51 H -29.758300 -12.999600 -0.839100 0
M  V30 52 H -21.702700 -12.929500 1.417500 0
M  V30 53 H -32.661200 -9.773400 -0.046800 0
M  V30 54 H -30.377900 -9.859200 0.663500 0
M  V30 55 H -23.351600 -11.935900 -3.034400 0
M  V30 56 H -21.674600 -8.552800 -3.070200 0
M  V30 57 H -22.843400 -9.630100 -3.444300 0
M  V30 58 H -27.388000 -8.587700 -1.645200 0
M  V30 59 H -28.832800 -10.419400 -3.147300 0
M  V30 60 H -23.692600 -7.368300 -3.249200 0
M  V30 61 H -23.325600 -7.646500 -0.450600 0
M  V30 END ATOM
M  V30 BEGIN BOND
M  V30 1 1 1 9
M  V30 2 1 1 10
M  V30 3 1 2 11
M  V30 4 1 2 24
M  V30 5 1 3 25
M  V30 6 1 4 5
M  V30 7 2 4 26
M  V30 8 1 5 27
M  V30 9 1 6 13
M  V30 10 1 6 28
M  V30 11 2 7 12
M  V30 12 1 7 29
M  V30 13 1 8 26
M  V30 14 2 9 16
M  V30 15 2 10 30
M  V30 16 1 11 25
M  V30 17 1 12 24
M  V30 18 2 13 31
M  V30 19 2 14 15
M  V30 20 1 14 17
M  V30 21 1 15 20
M  V30 22 1 16 30
M  V30 23 2 17 28
M  V30 24 1 18 19
M  V30 25 2 18 27
M  V30 26 2 19 32
M  V30 27 2 20 34
M  V30 28 1 21 25
M  V30 29 1 21 31
M  V30 30 2 22 24
M  V30 31 1 22 35
M  V30 32 1 23 32
M  V30 33 2 23 33
M  V30 34 1 26 33
M  V30 35 1 27 33
M  V30 36 1 28 34
M  V30 37 1 29 30
M  V30 38 2 29 35
M  V30 39 1 31 34
M  V30 40 1 32 35
M  V30 41 1 3 36
M  V30 42 1 3 37
M  V30 43 1 5 38
M  V30 44 1 6 39
M  V30 45 1 8 40
M  V30 46 1 8 41
M  V30 47 1 8 42
M  V30 48 1 9 43
M  V30 49 1 10 44
M  V30 50 1 11 45
M  V30 51 1 11 46
M  V30 52 1 12 47
M  V30 53 1 13 48
M  V30 54 1 14 49
M  V30 55 1 15 50
M  V30 56 1 16 51
M  V30 57 1 17 52
M  V30 58 1 18 53
M  V30 59 1 19 54
M  V30 60 1 20 55
M  V30 61 1 21 56
M  V30 62 1 21 57
M  V30 63 1 22 58
M  V30 64 1 23 59
M  V30 65 1 25 60 CFG=3
M  V30 66 1 3 61
M  V30 END BOND
M  V30 END CTAB
M  END
>  <Ligand_Instance>  (137) 
3KKV_B99_A_351

>  <Dataset>  (137) 
PDB

>  <PDB_ID>  (137) 
3KKV

>  <Chain>  (137) 
A

>  <Resi>  (137) 
351

>  <Num_Resolved_Atoms>  (137) 
35

>  <Num_H_Atoms_ProtBoundConf>  (137) 
26

>  <Pocket>  (137) 
A

>  <Name>  (137) 
(2S)-1-{[6-furan-3-yl-5-(3-methyl-2H-indazol-5-yl)pyridin-3-yl]oxy}-3-(1H-indol-3-yl)propan-2-amine

>  <Num_Not_Resolved_Atoms>  (137) 
0

>  <ATP_Site>  (137) 
True

>  <Peripheral>  (137) 
False

>  <Standardized_SMILES>  (137) 
[H]C1=NC(C2=C([H])OC([H])=C2[H])=C(C2=C([H])C([H])=C3C(=C2[H])C(C([H])([H])[H])=NN3[H])C([H])=C1OC([H])([H])[C@]([H])(C([H])([H])C1=C([H])N([H])C2=C([H])C([H])=C([H])C([H])=C21)[N+]([H])([H])[H]

>  <2D_Mol_H>  (137) 
<rdkit.Chem.rdchem.Mol object at 0x77059d9f99a0>

>  <MW>  (137) 
464.549

>  <HBA>  (137) 
4

>  <HBD>  (137) 
3

>  <LogP>  (137) 
4.90662

>  <NRB>  (137) 
9

>  <TPSA>  (137) 
107.37

>  <Num_Heavy_Atoms>  (137) 
35

>  <Ro5>  (137) 
[True, True, True, True, True, True]

>  <Ro5_Fulfilled>  (137) 
True

>  <Ro3>  (137) 
[False, False, True, False]

>  <Ro3_Fulfilled>  (137) 
False

>  <Fsp3>  (137) 
0.142857

>  <Fsp3_0.42>  (137) 
False

>  <Fsp3_0.45>  (137) 
False

>  <Stereogenic_Carbons>  (137) 
1

>  <C_Atoms>  (137) 
28

>  <FCStereo>  (137) 
0.035714

>  <SPS>  (137) 
434

>  <nSPS>  (137) 
12.4

>  <PBF>  (137) 
1.291794

>  <PBF_0.6>  (137) 
True

>  <nPBF>  (137) 
0.036908

>  <nPBF_0.016>  (137) 
True

>  <PMI1>  (137) 
2676.024254

>  <PMI2>  (137) 
7480.796053

>  <PMI3>  (137) 
8677.617786

>  <NPR1>  (137) 
0.308382

>  <NPR2>  (137) 
0.862079

>  <Sum_NPR>  (137) 
1.170462

>  <Sum_NPR_1.07>  (137) 
True

>  <Sum_NPR_1.2>  (137) 
False

>  <MaxAbsEStateIndex>  (137) 
6.182189

>  <MaxEStateIndex>  (137) 
6.182189

>  <MinAbsEStateIndex>  (137) 
0.093645

>  <MinEStateIndex>  (137) 
0.093645

>  <qed>  (137) 
0.312056

>  <MolWt>  (137) 
464.549

>  <HeavyAtomMolWt>  (137) 
438.341

>  <ExactMolWt>  (137) 
464.208101

>  <NumValenceElectrons>  (137) 
174

>  <NumRadicalElectrons>  (137) 
0

>  <MaxPartialCharge>  (137) 
0.140113

>  <MinPartialCharge>  (137) 
-0.485746

>  <MaxAbsPartialCharge>  (137) 
0.485746

>  <MinAbsPartialCharge>  (137) 
0.140113

>  <FpDensityMorgan1>  (137) 
1.028571

>  <FpDensityMorgan2>  (137) 
1.942857

>  <FpDensityMorgan3>  (137) 
2.828571

>  <BCUT2D_MWHI>  (137) 
16.478463

>  <BCUT2D_MWLOW>  (137) 
9.987672

>  <BCUT2D_CHGHI>  (137) 
2.160179

>  <BCUT2D_CHGLO>  (137) 
-2.134951

>  <BCUT2D_LOGPHI>  (137) 
2.347644

>  <BCUT2D_LOGPLOW>  (137) 
-2.641612

>  <BCUT2D_MRHI>  (137) 
5.897232

>  <BCUT2D_MRLOW>  (137) 
-0.422665

>  <AvgIpc>  (137) 
3.639395

>  <BalabanJ>  (137) 
1.271554

>  <BertzCT>  (137) 
1613.585406

>  <Chi0>  (137) 
23.777446

>  <Chi0n>  (137) 
19.415148

>  <Chi0v>  (137) 
19.415148

>  <Chi1>  (137) 
17.153

>  <Chi1n>  (137) 
11.640965

>  <Chi1v>  (137) 
11.640965

>  <Chi2n>  (137) 
8.889244

>  <Chi2v>  (137) 
8.889244

>  <Chi3n>  (137) 
6.390849

>  <Chi3v>  (137) 
6.390849

>  <Chi4n>  (137) 
4.571258

>  <Chi4v>  (137) 
4.571258

>  <HallKierAlpha>  (137) 
-4.36

>  <Ipc>  (137) 
237130516.710749

>  <Kappa1>  (137) 
21.191894

>  <Kappa2>  (137) 
8.773896

>  <Kappa3>  (137) 
4.064536

>  <LabuteASA>  (137) 
201.499619

>  <PEOE_VSA1>  (137) 
19.87166

>  <PEOE_VSA10>  (137) 
18.398235

>  <PEOE_VSA11>  (137) 
0.0

>  <PEOE_VSA12>  (137) 
0.0

>  <PEOE_VSA13>  (137) 
0.0

>  <PEOE_VSA14>  (137) 
0.0

>  <PEOE_VSA2>  (137) 
10.08266

>  <PEOE_VSA3>  (137) 
0.0

>  <PEOE_VSA4>  (137) 
5.098682

>  <PEOE_VSA5>  (137) 
0.0

>  <PEOE_VSA6>  (137) 
24.265468

>  <PEOE_VSA7>  (137) 
48.382476

>  <PEOE_VSA8>  (137) 
40.033717

>  <PEOE_VSA9>  (137) 
35.627726

>  <SMR_VSA1>  (137) 
14.887681

>  <SMR_VSA10>  (137) 
21.80585

>  <SMR_VSA2>  (137) 
0.0

>  <SMR_VSA3>  (137) 
20.165321

>  <SMR_VSA4>  (137) 
0.0

>  <SMR_VSA5>  (137) 
19.3864

>  <SMR_VSA6>  (137) 
6.606882

>  <SMR_VSA7>  (137) 
90.774696

>  <SMR_VSA8>  (137) 
0.0

>  <SMR_VSA9>  (137) 
28.133794

>  <SlogP_VSA1>  (137) 
10.47053

>  <SlogP_VSA10>  (137) 
0.0

>  <SlogP_VSA11>  (137) 
5.749512

>  <SlogP_VSA12>  (137) 
0.0

>  <SlogP_VSA2>  (137) 
32.814043

>  <SlogP_VSA3>  (137) 
6.420822

>  <SlogP_VSA4>  (137) 
6.923737

>  <SlogP_VSA5>  (137) 
11.257379

>  <SlogP_VSA6>  (137) 
83.934468

>  <SlogP_VSA7>  (137) 
0.0

>  <SlogP_VSA8>  (137) 
44.190132

>  <SlogP_VSA9>  (137) 
0.0

>  <EState_VSA1>  (137) 
0.0

>  <EState_VSA10>  (137) 
0.0

>  <EState_VSA11>  (137) 
0.0

>  <EState_VSA2>  (137) 
6.041841

>  <EState_VSA3>  (137) 
12.356394

>  <EState_VSA4>  (137) 
50.918658

>  <EState_VSA5>  (137) 
10.949676

>  <EState_VSA6>  (137) 
18.72317

>  <EState_VSA7>  (137) 
31.189205

>  <EState_VSA8>  (137) 
57.443689

>  <EState_VSA9>  (137) 
14.137992

>  <VSA_EState1>  (137) 
11.511502

>  <VSA_EState10>  (137) 
0.0

>  <VSA_EState2>  (137) 
8.082576

>  <VSA_EState3>  (137) 
9.718677

>  <VSA_EState4>  (137) 
12.477912

>  <VSA_EState5>  (137) 
0.711883

>  <VSA_EState6>  (137) 
18.641463

>  <VSA_EState7>  (137) 
8.031547

>  <VSA_EState8>  (137) 
2.491105

>  <VSA_EState9>  (137) 
0.0

>  <FractionCSP3>  (137) 
0.142857

>  <HeavyAtomCount>  (137) 
35

>  <NHOHCount>  (137) 
5

>  <NOCount>  (137) 
7

>  <NumAliphaticCarbocycles>  (137) 
0

>  <NumAliphaticHeterocycles>  (137) 
0

>  <NumAliphaticRings>  (137) 
0

>  <NumAromaticCarbocycles>  (137) 
2

>  <NumAromaticHeterocycles>  (137) 
4

>  <NumAromaticRings>  (137) 
6

>  <NumHAcceptors>  (137) 
4

>  <NumHDonors>  (137) 
3

>  <NumHeteroatoms>  (137) 
7

>  <NumRotatableBonds>  (137) 
7

>  <NumSaturatedCarbocycles>  (137) 
0

>  <NumSaturatedHeterocycles>  (137) 
0

>  <NumSaturatedRings>  (137) 
0

>  <RingCount>  (137) 
6

>  <MolLogP>  (137) 
4.90662

>  <MolMR>  (137) 
135.9375

>  <fr_Al_COO>  (137) 
0

>  <fr_Al_OH>  (137) 
0

>  <fr_Al_OH_noTert>  (137) 
0

>  <fr_ArN>  (137) 
0

>  <fr_Ar_COO>  (137) 
0

>  <fr_Ar_N>  (137) 
4

>  <fr_Ar_NH>  (137) 
2

>  <fr_Ar_OH>  (137) 
0

>  <fr_COO>  (137) 
0

>  <fr_COO2>  (137) 
0

>  <fr_C_O>  (137) 
0

>  <fr_C_O_noCOO>  (137) 
0

>  <fr_C_S>  (137) 
0

>  <fr_HOCCN>  (137) 
0

>  <fr_Imine>  (137) 
0

>  <fr_NH0>  (137) 
2

>  <fr_NH1>  (137) 
2

>  <fr_NH2>  (137) 
0

>  <fr_N_O>  (137) 
0

>  <fr_Ndealkylation1>  (137) 
0

>  <fr_Ndealkylation2>  (137) 
0

>  <fr_Nhpyrrole>  (137) 
2

>  <fr_SH>  (137) 
0

>  <fr_aldehyde>  (137) 
0

>  <fr_alkyl_carbamate>  (137) 
0

>  <fr_alkyl_halide>  (137) 
0

>  <fr_allylic_oxid>  (137) 
0

>  <fr_amide>  (137) 
0

>  <fr_amidine>  (137) 
0

>  <fr_aniline>  (137) 
0

>  <fr_aryl_methyl>  (137) 
1

>  <fr_azide>  (137) 
0

>  <fr_azo>  (137) 
0

>  <fr_barbitur>  (137) 
0

>  <fr_benzene>  (137) 
2

>  <fr_benzodiazepine>  (137) 
0

>  <fr_bicyclic>  (137) 
2

>  <fr_diazo>  (137) 
0

>  <fr_dihydropyridine>  (137) 
0

>  <fr_epoxide>  (137) 
0

>  <fr_ester>  (137) 
0

>  <fr_ether>  (137) 
1

>  <fr_furan>  (137) 
1

>  <fr_guanido>  (137) 
0

>  <fr_halogen>  (137) 
0

>  <fr_hdrzine>  (137) 
0

>  <fr_hdrzone>  (137) 
0

>  <fr_imidazole>  (137) 
0

>  <fr_imide>  (137) 
0

>  <fr_isocyan>  (137) 
0

>  <fr_isothiocyan>  (137) 
0

>  <fr_ketone>  (137) 
0

>  <fr_ketone_Topliss>  (137) 
0

>  <fr_lactam>  (137) 
0

>  <fr_lactone>  (137) 
0

>  <fr_methoxy>  (137) 
0

>  <fr_morpholine>  (137) 
0

>  <fr_nitrile>  (137) 
0

>  <fr_nitro>  (137) 
0

>  <fr_nitro_arom>  (137) 
0

>  <fr_nitro_arom_nonortho>  (137) 
0

>  <fr_nitroso>  (137) 
0

>  <fr_oxazole>  (137) 
0

>  <fr_oxime>  (137) 
0

>  <fr_para_hydroxylation>  (137) 
1

>  <fr_phenol>  (137) 
0

>  <fr_phenol_noOrthoHbond>  (137) 
0

>  <fr_phos_acid>  (137) 
0

>  <fr_phos_ester>  (137) 
0

>  <fr_piperdine>  (137) 
0

>  <fr_piperzine>  (137) 
0

>  <fr_priamide>  (137) 
0

>  <fr_prisulfonamd>  (137) 
0

>  <fr_pyridine>  (137) 
1

>  <fr_quatN>  (137) 
1

>  <fr_sulfide>  (137) 
0

>  <fr_sulfonamd>  (137) 
0

>  <fr_sulfone>  (137) 
0

>  <fr_term_acetylene>  (137) 
0

>  <fr_tetrazole>  (137) 
0

>  <fr_thiazole>  (137) 
0

>  <fr_thiocyan>  (137) 
0

>  <fr_thiophene>  (137) 
0

>  <fr_unbrch_alkane>  (137) 
0

>  <fr_urea>  (137) 
0

>  <NP_Likeness>  (137) 
-0.42462

$$$$
BEZ
     RDKit          3D

  0  0  0  0  0  0  0  0  0  0999 V3000
M  V30 BEGIN CTAB
M  V30 COUNTS 15 15 0 0 0
M  V30 BEGIN ATOM
M  V30 1 O -16.824000 2.507000 -20.539000 0
M  V30 2 O -16.623000 4.710000 -20.290000 0
M  V30 3 C -12.099000 3.047000 -18.966000 0
M  V30 4 C -12.611000 4.307000 -19.202000 0
M  V30 5 C -12.895000 1.937000 -19.158000 0
M  V30 6 C -13.925000 4.462000 -19.616000 0
M  V30 7 C -14.202000 2.080000 -19.593000 0
M  V30 8 C -16.159000 3.489000 -20.234000 0
M  V30 9 C -14.734000 3.348000 -19.824000 0
M  V30 10 H -11.154100 2.939300 -18.656900 0
M  V30 11 H -12.031400 5.111700 -19.073700 0
M  V30 12 H -12.526400 1.024200 -18.982200 0
M  V30 13 H -14.293900 5.379200 -19.766100 0
M  V30 14 H -14.767600 1.269000 -19.742300 0
M  V30 15 H -17.561700 4.874800 -20.592900 0
M  V30 END ATOM
M  V30 BEGIN BOND
M  V30 1 2 1 8
M  V30 2 1 2 8
M  V30 3 2 3 4
M  V30 4 1 3 5
M  V30 5 1 4 6
M  V30 6 2 5 7
M  V30 7 2 6 9
M  V30 8 1 7 9
M  V30 9 1 8 9
M  V30 10 1 7 14
M  V30 11 1 3 10
M  V30 12 1 4 11
M  V30 13 1 5 12
M  V30 14 1 6 13
M  V30 15 1 2 15
M  V30 END BOND
M  V30 END CTAB
M  END
>  <Ligand_Instance>  (138) 
6SNN_BEZ_A_401

>  <Dataset>  (138) 
PDB

>  <PDB_ID>  (138) 
6SNN

>  <Chain>  (138) 
A

>  <Resi>  (138) 
401

>  <Num_Resolved_Atoms>  (138) 
9

>  <Num_H_Atoms_ProtBoundConf>  (138) 
6

>  <Pocket>  (138) 
A

>  <Name>  (138) 
BENZOIC ACID

>  <Num_Not_Resolved_Atoms>  (138) 
0

>  <ATP_Site>  (138) 
True

>  <Peripheral>  (138) 
True

>  <Standardized_SMILES>  (138) 
[H]OC(=O)C1=C([H])C([H])=C([H])C([H])=C1[H]

>  <2D_Mol_H>  (138) 
<rdkit.Chem.rdchem.Mol object at 0x77059d9f9a80>

>  <MW>  (138) 
122.123

>  <HBA>  (138) 
2

>  <HBD>  (138) 
1

>  <LogP>  (138) 
1.3848

>  <NRB>  (138) 
1

>  <TPSA>  (138) 
37.3

>  <Num_Heavy_Atoms>  (138) 
9

>  <Ro5>  (138) 
[True, True, True, True, True, True]

>  <Ro5_Fulfilled>  (138) 
True

>  <Ro3>  (138) 
[True, True, True, True]

>  <Ro3_Fulfilled>  (138) 
True

>  <Fsp3>  (138) 
0.0

>  <Fsp3_0.42>  (138) 
False

>  <Fsp3_0.45>  (138) 
False

>  <Stereogenic_Carbons>  (138) 
0

>  <C_Atoms>  (138) 
7

>  <FCStereo>  (138) 
0.0

>  <SPS>  (138) 
80

>  <nSPS>  (138) 
8.888889

>  <PBF>  (138) 
0.045946

>  <PBF_0.6>  (138) 
False

>  <nPBF>  (138) 
0.005105

>  <nPBF_0.016>  (138) 
False

>  <PMI1>  (138) 
126.955261

>  <PMI2>  (138) 
411.538342

>  <PMI3>  (138) 
537.548857

>  <NPR1>  (138) 
0.236174

>  <NPR2>  (138) 
0.765583

>  <Sum_NPR>  (138) 
1.001758

>  <Sum_NPR_1.07>  (138) 
False

>  <Sum_NPR_1.2>  (138) 
False

>  <MaxAbsEStateIndex>  (138) 
10.200926

>  <MaxEStateIndex>  (138) 
10.200926

>  <MinAbsEStateIndex>  (138) 
0.331019

>  <MinEStateIndex>  (138) 
-0.879074

>  <qed>  (138) 
0.610604

>  <MolWt>  (138) 
122.123

>  <HeavyAtomMolWt>  (138) 
116.075

>  <ExactMolWt>  (138) 
122.036779

>  <NumValenceElectrons>  (138) 
46

>  <NumRadicalElectrons>  (138) 
0

>  <MaxPartialCharge>  (138) 
0.335178

>  <MinPartialCharge>  (138) 
-0.477639

>  <MaxAbsPartialCharge>  (138) 
0.477639

>  <MinAbsPartialCharge>  (138) 
0.335178

>  <FpDensityMorgan1>  (138) 
1.222222

>  <FpDensityMorgan2>  (138) 
1.777778

>  <FpDensityMorgan3>  (138) 
2.111111

>  <BCUT2D_MWHI>  (138) 
16.365528

>  <BCUT2D_MWLOW>  (138) 
10.215858

>  <BCUT2D_CHGHI>  (138) 
1.960774

>  <BCUT2D_CHGLO>  (138) 
-1.87656

>  <BCUT2D_LOGPHI>  (138) 
1.955383

>  <BCUT2D_LOGPLOW>  (138) 
-1.930629

>  <BCUT2D_MRHI>  (138) 
5.868349

>  <BCUT2D_MRLOW>  (138) 
0.069667

>  <AvgIpc>  (138) 
1.900373

>  <BalabanJ>  (138) 
2.981455

>  <BertzCT>  (138) 
203.415953

>  <Chi0>  (138) 
6.690234

>  <Chi0n>  (138) 
4.742213

>  <Chi0v>  (138) 
4.742213

>  <Chi1>  (138) 
4.30453

>  <Chi1n>  (138) 
2.588415

>  <Chi1v>  (138) 
2.588415

>  <Chi2n>  (138) 
1.671178

>  <Chi2v>  (138) 
1.671178

>  <Chi3n>  (138) 
1.02074

>  <Chi3v>  (138) 
1.02074

>  <Chi4n>  (138) 
0.58073

>  <Chi4v>  (138) 
0.58073

>  <HallKierAlpha>  (138) 
-1.31

>  <Ipc>  (138) 
129.225339

>  <Kappa1>  (138) 
5.820039

>  <Kappa2>  (138) 
2.306764

>  <Kappa3>  (138) 
1.287705

>  <LabuteASA>  (138) 
52.752101

>  <PEOE_VSA1>  (138) 
5.106527

>  <PEOE_VSA10>  (138) 
0.0

>  <PEOE_VSA11>  (138) 
0.0

>  <PEOE_VSA12>  (138) 
0.0

>  <PEOE_VSA13>  (138) 
0.0

>  <PEOE_VSA14>  (138) 
5.969305

>  <PEOE_VSA2>  (138) 
0.0

>  <PEOE_VSA3>  (138) 
4.794537

>  <PEOE_VSA4>  (138) 
0.0

>  <PEOE_VSA5>  (138) 
0.0

>  <PEOE_VSA6>  (138) 
18.199101

>  <PEOE_VSA7>  (138) 
12.132734

>  <PEOE_VSA8>  (138) 
0.0

>  <PEOE_VSA9>  (138) 
5.563451

>  <SMR_VSA1>  (138) 
9.901065

>  <SMR_VSA10>  (138) 
5.969305

>  <SMR_VSA2>  (138) 
0.0

>  <SMR_VSA3>  (138) 
0.0

>  <SMR_VSA4>  (138) 
0.0

>  <SMR_VSA5>  (138) 
0.0

>  <SMR_VSA6>  (138) 
0.0

>  <SMR_VSA7>  (138) 
35.895287

>  <SMR_VSA8>  (138) 
0.0

>  <SMR_VSA9>  (138) 
0.0

>  <SlogP_VSA1>  (138) 
0.0

>  <SlogP_VSA10>  (138) 
0.0

>  <SlogP_VSA11>  (138) 
0.0

>  <SlogP_VSA12>  (138) 
0.0

>  <SlogP_VSA2>  (138) 
11.075833

>  <SlogP_VSA3>  (138) 
0.0

>  <SlogP_VSA4>  (138) 
0.0

>  <SlogP_VSA5>  (138) 
10.357989

>  <SlogP_VSA6>  (138) 
30.331835

>  <SlogP_VSA7>  (138) 
0.0

>  <SlogP_VSA8>  (138) 
0.0

>  <SlogP_VSA9>  (138) 
0.0

>  <EState_VSA1>  (138) 
5.969305

>  <EState_VSA10>  (138) 
4.794537

>  <EState_VSA11>  (138) 
0.0

>  <EState_VSA2>  (138) 
0.0

>  <EState_VSA3>  (138) 
5.563451

>  <EState_VSA4>  (138) 
0.0

>  <EState_VSA5>  (138) 
0.0

>  <EState_VSA6>  (138) 
30.331835

>  <EState_VSA7>  (138) 
0.0

>  <EState_VSA8>  (138) 
0.0

>  <EState_VSA9>  (138) 
5.106527

>  <VSA_EState1>  (138) 
0.0

>  <VSA_EState10>  (138) 
0.0

>  <VSA_EState2>  (138) 
10.200926

>  <VSA_EState3>  (138) 
8.384815

>  <VSA_EState4>  (138) 
0.331019

>  <VSA_EState5>  (138) 
-0.879074

>  <VSA_EState6>  (138) 
8.295648

>  <VSA_EState7>  (138) 
0.0

>  <VSA_EState8>  (138) 
0.0

>  <VSA_EState9>  (138) 
0.0

>  <FractionCSP3>  (138) 
0.0

>  <HeavyAtomCount>  (138) 
9

>  <NHOHCount>  (138) 
1

>  <NOCount>  (138) 
2

>  <NumAliphaticCarbocycles>  (138) 
0

>  <NumAliphaticHeterocycles>  (138) 
0

>  <NumAliphaticRings>  (138) 
0

>  <NumAromaticCarbocycles>  (138) 
1

>  <NumAromaticHeterocycles>  (138) 
0

>  <NumAromaticRings>  (138) 
1

>  <NumHAcceptors>  (138) 
1

>  <NumHDonors>  (138) 
1

>  <NumHeteroatoms>  (138) 
2

>  <NumRotatableBonds>  (138) 
1

>  <NumSaturatedCarbocycles>  (138) 
0

>  <NumSaturatedHeterocycles>  (138) 
0

>  <NumSaturatedRings>  (138) 
0

>  <RingCount>  (138) 
1

>  <MolLogP>  (138) 
1.3848

>  <MolMR>  (138) 
33.4013

>  <fr_Al_COO>  (138) 
0

>  <fr_Al_OH>  (138) 
0

>  <fr_Al_OH_noTert>  (138) 
0

>  <fr_ArN>  (138) 
0

>  <fr_Ar_COO>  (138) 
1

>  <fr_Ar_N>  (138) 
0

>  <fr_Ar_NH>  (138) 
0

>  <fr_Ar_OH>  (138) 
0

>  <fr_COO>  (138) 
1

>  <fr_COO2>  (138) 
1

>  <fr_C_O>  (138) 
1

>  <fr_C_O_noCOO>  (138) 
0

>  <fr_C_S>  (138) 
0

>  <fr_HOCCN>  (138) 
0

>  <fr_Imine>  (138) 
0

>  <fr_NH0>  (138) 
0

>  <fr_NH1>  (138) 
0

>  <fr_NH2>  (138) 
0

>  <fr_N_O>  (138) 
0

>  <fr_Ndealkylation1>  (138) 
0

>  <fr_Ndealkylation2>  (138) 
0

>  <fr_Nhpyrrole>  (138) 
0

>  <fr_SH>  (138) 
0

>  <fr_aldehyde>  (138) 
0

>  <fr_alkyl_carbamate>  (138) 
0

>  <fr_alkyl_halide>  (138) 
0

>  <fr_allylic_oxid>  (138) 
0

>  <fr_amide>  (138) 
0

>  <fr_amidine>  (138) 
0

>  <fr_aniline>  (138) 
0

>  <fr_aryl_methyl>  (138) 
0

>  <fr_azide>  (138) 
0

>  <fr_azo>  (138) 
0

>  <fr_barbitur>  (138) 
0

>  <fr_benzene>  (138) 
1

>  <fr_benzodiazepine>  (138) 
0

>  <fr_bicyclic>  (138) 
0

>  <fr_diazo>  (138) 
0

>  <fr_dihydropyridine>  (138) 
0

>  <fr_epoxide>  (138) 
0

>  <fr_ester>  (138) 
0

>  <fr_ether>  (138) 
0

>  <fr_furan>  (138) 
0

>  <fr_guanido>  (138) 
0

>  <fr_halogen>  (138) 
0

>  <fr_hdrzine>  (138) 
0

>  <fr_hdrzone>  (138) 
0

>  <fr_imidazole>  (138) 
0

>  <fr_imide>  (138) 
0

>  <fr_isocyan>  (138) 
0

>  <fr_isothiocyan>  (138) 
0

>  <fr_ketone>  (138) 
0

>  <fr_ketone_Topliss>  (138) 
0

>  <fr_lactam>  (138) 
0

>  <fr_lactone>  (138) 
0

>  <fr_methoxy>  (138) 
0

>  <fr_morpholine>  (138) 
0

>  <fr_nitrile>  (138) 
0

>  <fr_nitro>  (138) 
0

>  <fr_nitro_arom>  (138) 
0

>  <fr_nitro_arom_nonortho>  (138) 
0

>  <fr_nitroso>  (138) 
0

>  <fr_oxazole>  (138) 
0

>  <fr_oxime>  (138) 
0

>  <fr_para_hydroxylation>  (138) 
0

>  <fr_phenol>  (138) 
0

>  <fr_phenol_noOrthoHbond>  (138) 
0

>  <fr_phos_acid>  (138) 
0

>  <fr_phos_ester>  (138) 
0

>  <fr_piperdine>  (138) 
0

>  <fr_piperzine>  (138) 
0

>  <fr_priamide>  (138) 
0

>  <fr_prisulfonamd>  (138) 
0

>  <fr_pyridine>  (138) 
0

>  <fr_quatN>  (138) 
0

>  <fr_sulfide>  (138) 
0

>  <fr_sulfonamd>  (138) 
0

>  <fr_sulfone>  (138) 
0

>  <fr_term_acetylene>  (138) 
0

>  <fr_tetrazole>  (138) 
0

>  <fr_thiazole>  (138) 
0

>  <fr_thiocyan>  (138) 
0

>  <fr_thiophene>  (138) 
0

>  <fr_unbrch_alkane>  (138) 
0

>  <fr_urea>  (138) 
0

>  <NP_Likeness>  (138) 
-0.146167

$$$$
BEZ
     RDKit          3D

  0  0  0  0  0  0  0  0  0  0999 V3000
M  V30 BEGIN CTAB
M  V30 COUNTS 14 14 0 0 0
M  V30 BEGIN ATOM
M  V30 1 O -5.895000 -2.163000 -51.361000 0
M  V30 2 O -8.095000 -1.949000 -51.046000 0 CHG=-1
M  V30 3 C -7.869000 -2.540000 -55.967000 0
M  V30 4 C -8.898000 -2.314000 -55.074000 0
M  V30 5 C -6.569000 -2.610000 -55.508000 0
M  V30 6 C -8.634000 -2.167000 -53.722000 0
M  V30 7 C -6.293000 -2.457000 -54.158000 0
M  V30 8 C -7.039000 -2.115000 -51.797000 0
M  V30 9 C -7.327000 -2.240000 -53.253000 0
M  V30 10 H -8.064700 -2.652400 -56.941200 0
M  V30 11 H -9.839700 -2.256100 -55.405500 0
M  V30 12 H -5.822100 -2.772000 -56.152900 0
M  V30 13 H -9.385400 -2.008000 -53.081600 0
M  V30 14 H -5.348100 -2.502800 -53.833900 0
M  V30 END ATOM
M  V30 BEGIN BOND
M  V30 1 2 1 8
M  V30 2 1 2 8
M  V30 3 2 3 4
M  V30 4 1 3 5
M  V30 5 1 4 6
M  V30 6 2 5 7
M  V30 7 2 6 9
M  V30 8 1 7 9
M  V30 9 1 8 9
M  V30 10 1 7 14
M  V30 11 1 3 10
M  V30 12 1 4 11
M  V30 13 1 5 12
M  V30 14 1 6 13
M  V30 END BOND
M  V30 END CTAB
M  END
>  <Ligand_Instance>  (139) 
6SNN_BEZ_A_402

>  <Dataset>  (139) 
PDB

>  <PDB_ID>  (139) 
6SNN

>  <Chain>  (139) 
A

>  <Resi>  (139) 
402

>  <Num_Resolved_Atoms>  (139) 
9

>  <Num_H_Atoms_ProtBoundConf>  (139) 
5

>  <Pocket>  (139) 
X

>  <Name>  (139) 
BENZOIC ACID

>  <Num_Not_Resolved_Atoms>  (139) 
0

>  <ATP_Site>  (139) 
True

>  <Peripheral>  (139) 
True

>  <Standardized_SMILES>  (139) 
[H]C1=C([H])C([H])=C(C(=O)[O-])C([H])=C1[H]

>  <2D_Mol_H>  (139) 
<rdkit.Chem.rdchem.Mol object at 0x77059d9f9b60>

>  <MW>  (139) 
121.115

>  <HBA>  (139) 
2

>  <HBD>  (139) 
0

>  <LogP>  (139) 
0.0501

>  <NRB>  (139) 
1

>  <TPSA>  (139) 
40.13

>  <Num_Heavy_Atoms>  (139) 
9

>  <Ro5>  (139) 
[True, True, True, True, True, True]

>  <Ro5_Fulfilled>  (139) 
True

>  <Ro3>  (139) 
[True, True, True, True]

>  <Ro3_Fulfilled>  (139) 
True

>  <Fsp3>  (139) 
0.0

>  <Fsp3_0.42>  (139) 
False

>  <Fsp3_0.45>  (139) 
False

>  <Stereogenic_Carbons>  (139) 
0

>  <C_Atoms>  (139) 
7

>  <FCStereo>  (139) 
0.0

>  <SPS>  (139) 
80

>  <nSPS>  (139) 
8.888889

>  <PBF>  (139) 
0.013797

>  <PBF_0.6>  (139) 
False

>  <nPBF>  (139) 
0.001533

>  <nPBF_0.016>  (139) 
False

>  <PMI1>  (139) 
125.856365

>  <PMI2>  (139) 
398.211219

>  <PMI3>  (139) 
524.010045

>  <NPR1>  (139) 
0.240179

>  <NPR2>  (139) 
0.759931

>  <Sum_NPR>  (139) 
1.00011

>  <Sum_NPR_1.07>  (139) 
False

>  <Sum_NPR_1.2>  (139) 
False

>  <MaxAbsEStateIndex>  (139) 
10.089815

>  <MaxEStateIndex>  (139) 
10.089815

>  <MinAbsEStateIndex>  (139) 
0.219907

>  <MinEStateIndex>  (139) 
-1.129074

>  <qed>  (139) 
0.526318

>  <MolWt>  (139) 
121.115

>  <HeavyAtomMolWt>  (139) 
116.075

>  <ExactMolWt>  (139) 
121.029503

>  <NumValenceElectrons>  (139) 
46

>  <NumRadicalElectrons>  (139) 
0

>  <MaxPartialCharge>  (139) 
0.071481

>  <MinPartialCharge>  (139) 
-0.544815

>  <MaxAbsPartialCharge>  (139) 
0.544815

>  <MinAbsPartialCharge>  (139) 
0.071481

>  <FpDensityMorgan1>  (139) 
1.222222

>  <FpDensityMorgan2>  (139) 
1.777778

>  <FpDensityMorgan3>  (139) 
2.111111

>  <BCUT2D_MWHI>  (139) 
16.365528

>  <BCUT2D_MWLOW>  (139) 
10.215858

>  <BCUT2D_CHGHI>  (139) 
1.854266

>  <BCUT2D_CHGLO>  (139) 
-1.974019

>  <BCUT2D_LOGPHI>  (139) 
1.93847

>  <BCUT2D_LOGPLOW>  (139) 
-2.212795

>  <BCUT2D_MRHI>  (139) 
5.849678

>  <BCUT2D_MRLOW>  (139) 
-0.254554

>  <AvgIpc>  (139) 
1.900373

>  <BalabanJ>  (139) 
2.981455

>  <BertzCT>  (139) 
203.415953

>  <Chi0>  (139) 
6.690234

>  <Chi0n>  (139) 
4.703248

>  <Chi0v>  (139) 
4.703248

>  <Chi1>  (139) 
4.30453

>  <Chi1n>  (139) 
2.568932

>  <Chi1v>  (139) 
2.568932

>  <Chi2n>  (139) 
1.653483

>  <Chi2v>  (139) 
1.653483

>  <Chi3n>  (139) 
1.009491

>  <Chi3v>  (139) 
1.009491

>  <Chi4n>  (139) 
0.574236

>  <Chi4v>  (139) 
0.574236

>  <HallKierAlpha>  (139) 
-1.31

>  <Ipc>  (139) 
129.225339

>  <Kappa1>  (139) 
5.820039

>  <Kappa2>  (139) 
2.306764

>  <Kappa3>  (139) 
1.287705

>  <LabuteASA>  (139) 
52.752101

>  <PEOE_VSA1>  (139) 
9.901065

>  <PEOE_VSA10>  (139) 
0.0

>  <PEOE_VSA11>  (139) 
0.0

>  <PEOE_VSA12>  (139) 
0.0

>  <PEOE_VSA13>  (139) 
0.0

>  <PEOE_VSA14>  (139) 
0.0

>  <PEOE_VSA2>  (139) 
0.0

>  <PEOE_VSA3>  (139) 
0.0

>  <PEOE_VSA4>  (139) 
0.0

>  <PEOE_VSA5>  (139) 
0.0

>  <PEOE_VSA6>  (139) 
30.331835

>  <PEOE_VSA7>  (139) 
5.563451

>  <PEOE_VSA8>  (139) 
0.0

>  <PEOE_VSA9>  (139) 
5.969305

>  <SMR_VSA1>  (139) 
9.901065

>  <SMR_VSA10>  (139) 
5.969305

>  <SMR_VSA2>  (139) 
0.0

>  <SMR_VSA3>  (139) 
0.0

>  <SMR_VSA4>  (139) 
0.0

>  <SMR_VSA5>  (139) 
0.0

>  <SMR_VSA6>  (139) 
0.0

>  <SMR_VSA7>  (139) 
35.895287

>  <SMR_VSA8>  (139) 
0.0

>  <SMR_VSA9>  (139) 
0.0

>  <SlogP_VSA1>  (139) 
5.106527

>  <SlogP_VSA10>  (139) 
0.0

>  <SlogP_VSA11>  (139) 
0.0

>  <SlogP_VSA12>  (139) 
0.0

>  <SlogP_VSA2>  (139) 
5.969305

>  <SlogP_VSA3>  (139) 
0.0

>  <SlogP_VSA4>  (139) 
0.0

>  <SlogP_VSA5>  (139) 
10.357989

>  <SlogP_VSA6>  (139) 
30.331835

>  <SlogP_VSA7>  (139) 
0.0

>  <SlogP_VSA8>  (139) 
0.0

>  <SlogP_VSA9>  (139) 
0.0

>  <EState_VSA1>  (139) 
5.969305

>  <EState_VSA10>  (139) 
9.901065

>  <EState_VSA11>  (139) 
0.0

>  <EState_VSA2>  (139) 
5.563451

>  <EState_VSA3>  (139) 
0.0

>  <EState_VSA4>  (139) 
0.0

>  <EState_VSA5>  (139) 
12.132734

>  <EState_VSA6>  (139) 
18.199101

>  <EState_VSA7>  (139) 
0.0

>  <EState_VSA8>  (139) 
0.0

>  <EState_VSA9>  (139) 
0.0

>  <VSA_EState1>  (139) 
0.0

>  <VSA_EState10>  (139) 
0.0

>  <VSA_EState2>  (139) 
10.089815

>  <VSA_EState3>  (139) 
10.089815

>  <VSA_EState4>  (139) 
0.219907

>  <VSA_EState5>  (139) 
-1.129074

>  <VSA_EState6>  (139) 
8.06287

>  <VSA_EState7>  (139) 
0.0

>  <VSA_EState8>  (139) 
0.0

>  <VSA_EState9>  (139) 
0.0

>  <FractionCSP3>  (139) 
0.0

>  <HeavyAtomCount>  (139) 
9

>  <NHOHCount>  (139) 
0

>  <NOCount>  (139) 
2

>  <NumAliphaticCarbocycles>  (139) 
0

>  <NumAliphaticHeterocycles>  (139) 
0

>  <NumAliphaticRings>  (139) 
0

>  <NumAromaticCarbocycles>  (139) 
1

>  <NumAromaticHeterocycles>  (139) 
0

>  <NumAromaticRings>  (139) 
1

>  <NumHAcceptors>  (139) 
2

>  <NumHDonors>  (139) 
0

>  <NumHeteroatoms>  (139) 
2

>  <NumRotatableBonds>  (139) 
1

>  <NumSaturatedCarbocycles>  (139) 
0

>  <NumSaturatedHeterocycles>  (139) 
0

>  <NumSaturatedRings>  (139) 
0

>  <RingCount>  (139) 
1

>  <MolLogP>  (139) 
0.0501

>  <MolMR>  (139) 
30.7725

>  <fr_Al_COO>  (139) 
0

>  <fr_Al_OH>  (139) 
0

>  <fr_Al_OH_noTert>  (139) 
0

>  <fr_ArN>  (139) 
0

>  <fr_Ar_COO>  (139) 
1

>  <fr_Ar_N>  (139) 
0

>  <fr_Ar_NH>  (139) 
0

>  <fr_Ar_OH>  (139) 
0

>  <fr_COO>  (139) 
1

>  <fr_COO2>  (139) 
1

>  <fr_C_O>  (139) 
1

>  <fr_C_O_noCOO>  (139) 
1

>  <fr_C_S>  (139) 
0

>  <fr_HOCCN>  (139) 
0

>  <fr_Imine>  (139) 
0

>  <fr_NH0>  (139) 
0

>  <fr_NH1>  (139) 
0

>  <fr_NH2>  (139) 
0

>  <fr_N_O>  (139) 
0

>  <fr_Ndealkylation1>  (139) 
0

>  <fr_Ndealkylation2>  (139) 
0

>  <fr_Nhpyrrole>  (139) 
0

>  <fr_SH>  (139) 
0

>  <fr_aldehyde>  (139) 
0

>  <fr_alkyl_carbamate>  (139) 
0

>  <fr_alkyl_halide>  (139) 
0

>  <fr_allylic_oxid>  (139) 
0

>  <fr_amide>  (139) 
0

>  <fr_amidine>  (139) 
0

>  <fr_aniline>  (139) 
0

>  <fr_aryl_methyl>  (139) 
0

>  <fr_azide>  (139) 
0

>  <fr_azo>  (139) 
0

>  <fr_barbitur>  (139) 
0

>  <fr_benzene>  (139) 
1

>  <fr_benzodiazepine>  (139) 
0

>  <fr_bicyclic>  (139) 
0

>  <fr_diazo>  (139) 
0

>  <fr_dihydropyridine>  (139) 
0

>  <fr_epoxide>  (139) 
0

>  <fr_ester>  (139) 
0

>  <fr_ether>  (139) 
0

>  <fr_furan>  (139) 
0

>  <fr_guanido>  (139) 
0

>  <fr_halogen>  (139) 
0

>  <fr_hdrzine>  (139) 
0

>  <fr_hdrzone>  (139) 
0

>  <fr_imidazole>  (139) 
0

>  <fr_imide>  (139) 
0

>  <fr_isocyan>  (139) 
0

>  <fr_isothiocyan>  (139) 
0

>  <fr_ketone>  (139) 
0

>  <fr_ketone_Topliss>  (139) 
0

>  <fr_lactam>  (139) 
0

>  <fr_lactone>  (139) 
0

>  <fr_methoxy>  (139) 
0

>  <fr_morpholine>  (139) 
0

>  <fr_nitrile>  (139) 
0

>  <fr_nitro>  (139) 
0

>  <fr_nitro_arom>  (139) 
0

>  <fr_nitro_arom_nonortho>  (139) 
0

>  <fr_nitroso>  (139) 
0

>  <fr_oxazole>  (139) 
0

>  <fr_oxime>  (139) 
0

>  <fr_para_hydroxylation>  (139) 
0

>  <fr_phenol>  (139) 
0

>  <fr_phenol_noOrthoHbond>  (139) 
0

>  <fr_phos_acid>  (139) 
0

>  <fr_phos_ester>  (139) 
0

>  <fr_piperdine>  (139) 
0

>  <fr_piperzine>  (139) 
0

>  <fr_priamide>  (139) 
0

>  <fr_prisulfonamd>  (139) 
0

>  <fr_pyridine>  (139) 
0

>  <fr_quatN>  (139) 
0

>  <fr_sulfide>  (139) 
0

>  <fr_sulfonamd>  (139) 
0

>  <fr_sulfone>  (139) 
0

>  <fr_term_acetylene>  (139) 
0

>  <fr_tetrazole>  (139) 
0

>  <fr_thiazole>  (139) 
0

>  <fr_thiocyan>  (139) 
0

>  <fr_thiophene>  (139) 
0

>  <fr_unbrch_alkane>  (139) 
0

>  <fr_urea>  (139) 
0

>  <NP_Likeness>  (139) 
-0.467339

$$$$
BJK
     RDKit          3D

  0  0  0  0  0  0  0  0  0  0999 V3000
M  V30 BEGIN CTAB
M  V30 COUNTS 23 23 0 0 0
M  V30 BEGIN ATOM
M  V30 1 O -13.598000 22.009000 -26.196000 0
M  V30 2 O -15.445000 22.987000 -24.522000 0
M  V30 3 N -10.437000 26.411000 -26.006000 0 CHG=1
M  V30 4 C -16.261000 23.458000 -23.448000 0
M  V30 5 C -11.646000 26.432000 -26.870000 0
M  V30 6 C -14.738000 25.273000 -25.005000 0
M  V30 7 C -13.782000 26.086000 -25.586000 0
M  V30 8 C -12.697000 24.179000 -26.527000 0
M  V30 9 C -13.649000 23.349000 -25.964000 0
M  V30 10 C -14.662000 23.901000 -25.171000 0
M  V30 11 C -12.742000 25.552000 -26.334000 0
M  V30 12 H -12.874200 21.628400 -26.771500 0
M  V30 13 H -9.736600 27.007300 -26.398300 0
M  V30 14 H -10.675900 26.734800 -25.090500 0
M  V30 15 H -16.779000 22.694100 -23.063100 0
M  V30 16 H -15.680400 23.857900 -22.738800 0
M  V30 17 H -16.894800 24.151700 -23.790300 0
M  V30 18 H -11.394500 26.112900 -27.783800 0
M  V30 19 H -11.985400 27.371000 -26.926500 0
M  V30 20 H -15.480100 25.674100 -24.467900 0
M  V30 21 H -13.841100 27.076900 -25.465000 0
M  V30 22 H -11.965000 23.783500 -27.081700 0
M  V30 23 H -10.085000 25.476800 -25.947800 0
M  V30 END ATOM
M  V30 BEGIN BOND
M  V30 1 1 1 9
M  V30 2 1 2 4
M  V30 3 1 2 10
M  V30 4 1 3 5
M  V30 5 1 5 11
M  V30 6 2 6 7
M  V30 7 1 6 10
M  V30 8 1 7 11
M  V30 9 1 8 9
M  V30 10 2 8 11
M  V30 11 2 9 10
M  V30 12 1 1 12
M  V30 13 1 3 13
M  V30 14 1 3 14
M  V30 15 1 4 15
M  V30 16 1 4 16
M  V30 17 1 4 17
M  V30 18 1 5 18
M  V30 19 1 5 19
M  V30 20 1 6 20
M  V30 21 1 7 21
M  V30 22 1 8 22
M  V30 23 1 3 23
M  V30 END BOND
M  V30 END CTAB
M  END
>  <Ligand_Instance>  (140) 
5N1M_BJK_A_403

>  <Dataset>  (140) 
PDB

>  <PDB_ID>  (140) 
5N1M

>  <Chain>  (140) 
A

>  <Resi>  (140) 
403

>  <Num_Resolved_Atoms>  (140) 
11

>  <Num_H_Atoms_ProtBoundConf>  (140) 
12

>  <Pocket>  (140) 
A

>  <Name>  (140) 
(4-methoxy-3-oxidanyl-phenyl)methylazanium

>  <Num_Not_Resolved_Atoms>  (140) 
0

>  <ATP_Site>  (140) 
True

>  <Peripheral>  (140) 
False

>  <Standardized_SMILES>  (140) 
[H]OC1=C([H])C(C([H])([H])[N+]([H])([H])[H])=C([H])C([H])=C1OC([H])([H])[H]

>  <2D_Mol_H>  (140) 
<rdkit.Chem.rdchem.Mol object at 0x77059d9f9c40>

>  <MW>  (140) 
154.189

>  <HBA>  (140) 
2

>  <HBD>  (140) 
2

>  <LogP>  (140) 
0.1427

>  <NRB>  (140) 
5

>  <TPSA>  (140) 
57.1

>  <Num_Heavy_Atoms>  (140) 
11

>  <Ro5>  (140) 
[True, True, True, True, True, True]

>  <Ro5_Fulfilled>  (140) 
True

>  <Ro3>  (140) 
[True, True, True, True]

>  <Ro3_Fulfilled>  (140) 
True

>  <Fsp3>  (140) 
0.25

>  <Fsp3_0.42>  (140) 
False

>  <Fsp3_0.45>  (140) 
False

>  <Stereogenic_Carbons>  (140) 
0

>  <C_Atoms>  (140) 
8

>  <FCStereo>  (140) 
0.0

>  <SPS>  (140) 
106

>  <nSPS>  (140) 
9.636364

>  <PBF>  (140) 
0.577408

>  <PBF_0.6>  (140) 
False

>  <nPBF>  (140) 
0.052492

>  <nPBF_0.016>  (140) 
True

>  <PMI1>  (140) 
236.594872

>  <PMI2>  (140) 
764.911027

>  <PMI3>  (140) 
933.503132

>  <NPR1>  (140) 
0.253448

>  <NPR2>  (140) 
0.819398

>  <Sum_NPR>  (140) 
1.072847

>  <Sum_NPR_1.07>  (140) 
True

>  <Sum_NPR_1.2>  (140) 
False

>  <MaxAbsEStateIndex>  (140) 
9.269676

>  <MaxEStateIndex>  (140) 
9.269676

>  <MinAbsEStateIndex>  (140) 
0.174676

>  <MinEStateIndex>  (140) 
0.174676

>  <qed>  (140) 
0.636365

>  <MolWt>  (140) 
154.189

>  <HeavyAtomMolWt>  (140) 
142.093

>  <ExactMolWt>  (140) 
154.086255

>  <NumValenceElectrons>  (140) 
60

>  <NumRadicalElectrons>  (140) 
0

>  <MaxPartialCharge>  (140) 
0.160002

>  <MinPartialCharge>  (140) 
-0.504245

>  <MaxAbsPartialCharge>  (140) 
0.504245

>  <MinAbsPartialCharge>  (140) 
0.160002

>  <FpDensityMorgan1>  (140) 
1.545455

>  <FpDensityMorgan2>  (140) 
2.272727

>  <FpDensityMorgan3>  (140) 
2.727273

>  <BCUT2D_MWHI>  (140) 
16.473976

>  <BCUT2D_MWLOW>  (140) 
10.179914

>  <BCUT2D_CHGHI>  (140) 
2.003666

>  <BCUT2D_CHGLO>  (140) 
-2.022728

>  <BCUT2D_LOGPHI>  (140) 
2.250112

>  <BCUT2D_LOGPLOW>  (140) 
-2.46933

>  <BCUT2D_MRHI>  (140) 
5.40783

>  <BCUT2D_MRLOW>  (140) 
-0.385987

>  <AvgIpc>  (140) 
2.041467

>  <BalabanJ>  (140) 
2.992963

>  <BertzCT>  (140) 
247.847416

>  <Chi0>  (140) 
8.267585

>  <Chi0n>  (140) 
6.501726

>  <Chi0v>  (140) 
6.501726

>  <Chi1>  (140) 
5.274387

>  <Chi1n>  (140) 
3.427566

>  <Chi1v>  (140) 
3.427566

>  <Chi2n>  (140) 
2.256201

>  <Chi2v>  (140) 
2.256201

>  <Chi3n>  (140) 
1.531939

>  <Chi3v>  (140) 
1.531939

>  <Chi4n>  (140) 
0.891069

>  <Chi4v>  (140) 
0.891069

>  <HallKierAlpha>  (140) 
-1.22

>  <Ipc>  (140) 
338.883533

>  <Kappa1>  (140) 
7.882249

>  <Kappa2>  (140) 
3.253809

>  <Kappa3>  (140) 
1.620839

>  <LabuteASA>  (140) 
65.408957

>  <PEOE_VSA1>  (140) 
15.577058

>  <PEOE_VSA10>  (140) 
0.0

>  <PEOE_VSA11>  (140) 
11.499024

>  <PEOE_VSA12>  (140) 
0.0

>  <PEOE_VSA13>  (140) 
0.0

>  <PEOE_VSA14>  (140) 
0.0

>  <PEOE_VSA2>  (140) 
0.0

>  <PEOE_VSA3>  (140) 
0.0

>  <PEOE_VSA4>  (140) 
0.0

>  <PEOE_VSA5>  (140) 
0.0

>  <PEOE_VSA6>  (140) 
0.0

>  <PEOE_VSA7>  (140) 
18.199101

>  <PEOE_VSA8>  (140) 
5.563451

>  <PEOE_VSA9>  (140) 
13.654554

>  <SMR_VSA1>  (140) 
15.577058

>  <SMR_VSA10>  (140) 
0.0

>  <SMR_VSA2>  (140) 
0.0

>  <SMR_VSA3>  (140) 
0.0

>  <SMR_VSA4>  (140) 
0.0

>  <SMR_VSA5>  (140) 
6.544756

>  <SMR_VSA6>  (140) 
7.109798

>  <SMR_VSA7>  (140) 
23.762553

>  <SMR_VSA8>  (140) 
0.0

>  <SMR_VSA9>  (140) 
11.499024

>  <SlogP_VSA1>  (140) 
10.47053

>  <SlogP_VSA10>  (140) 
0.0

>  <SlogP_VSA11>  (140) 
11.499024

>  <SlogP_VSA12>  (140) 
0.0

>  <SlogP_VSA2>  (140) 
12.216325

>  <SlogP_VSA3>  (140) 
6.544756

>  <SlogP_VSA4>  (140) 
0.0

>  <SlogP_VSA5>  (140) 
5.563451

>  <SlogP_VSA6>  (140) 
18.199101

>  <SlogP_VSA7>  (140) 
0.0

>  <SlogP_VSA8>  (140) 
0.0

>  <SlogP_VSA9>  (140) 
0.0

>  <EState_VSA1>  (140) 
0.0

>  <EState_VSA10>  (140) 
5.106527

>  <EState_VSA11>  (140) 
0.0

>  <EState_VSA2>  (140) 
5.749512

>  <EState_VSA3>  (140) 
12.294268

>  <EState_VSA4>  (140) 
5.563451

>  <EState_VSA5>  (140) 
7.109798

>  <EState_VSA6>  (140) 
12.132734

>  <EState_VSA7>  (140) 
6.066367

>  <EState_VSA8>  (140) 
5.733667

>  <EState_VSA9>  (140) 
4.736863

>  <VSA_EState1>  (140) 
4.874047

>  <VSA_EState10>  (140) 
0.0

>  <VSA_EState2>  (140) 
0.0

>  <VSA_EState3>  (140) 
9.269676

>  <VSA_EState4>  (140) 
4.703662

>  <VSA_EState5>  (140) 
0.676713

>  <VSA_EState6>  (140) 
5.271065

>  <VSA_EState7>  (140) 
0.0

>  <VSA_EState8>  (140) 
0.678129

>  <VSA_EState9>  (140) 
1.526709

>  <FractionCSP3>  (140) 
0.25

>  <HeavyAtomCount>  (140) 
11

>  <NHOHCount>  (140) 
4

>  <NOCount>  (140) 
3

>  <NumAliphaticCarbocycles>  (140) 
0

>  <NumAliphaticHeterocycles>  (140) 
0

>  <NumAliphaticRings>  (140) 
0

>  <NumAromaticCarbocycles>  (140) 
1

>  <NumAromaticHeterocycles>  (140) 
0

>  <NumAromaticRings>  (140) 
1

>  <NumHAcceptors>  (140) 
2

>  <NumHDonors>  (140) 
2

>  <NumHeteroatoms>  (140) 
3

>  <NumRotatableBonds>  (140) 
2

>  <NumSaturatedCarbocycles>  (140) 
0

>  <NumSaturatedHeterocycles>  (140) 
0

>  <NumSaturatedRings>  (140) 
0

>  <RingCount>  (140) 
1

>  <MolLogP>  (140) 
0.1427

>  <MolMR>  (140) 
41.2509

>  <fr_Al_COO>  (140) 
0

>  <fr_Al_OH>  (140) 
0

>  <fr_Al_OH_noTert>  (140) 
0

>  <fr_ArN>  (140) 
0

>  <fr_Ar_COO>  (140) 
0

>  <fr_Ar_N>  (140) 
0

>  <fr_Ar_NH>  (140) 
0

>  <fr_Ar_OH>  (140) 
1

>  <fr_COO>  (140) 
0

>  <fr_COO2>  (140) 
0

>  <fr_C_O>  (140) 
0

>  <fr_C_O_noCOO>  (140) 
0

>  <fr_C_S>  (140) 
0

>  <fr_HOCCN>  (140) 
0

>  <fr_Imine>  (140) 
0

>  <fr_NH0>  (140) 
0

>  <fr_NH1>  (140) 
0

>  <fr_NH2>  (140) 
0

>  <fr_N_O>  (140) 
0

>  <fr_Ndealkylation1>  (140) 
0

>  <fr_Ndealkylation2>  (140) 
0

>  <fr_Nhpyrrole>  (140) 
0

>  <fr_SH>  (140) 
0

>  <fr_aldehyde>  (140) 
0

>  <fr_alkyl_carbamate>  (140) 
0

>  <fr_alkyl_halide>  (140) 
0

>  <fr_allylic_oxid>  (140) 
0

>  <fr_amide>  (140) 
0

>  <fr_amidine>  (140) 
0

>  <fr_aniline>  (140) 
0

>  <fr_aryl_methyl>  (140) 
0

>  <fr_azide>  (140) 
0

>  <fr_azo>  (140) 
0

>  <fr_barbitur>  (140) 
0

>  <fr_benzene>  (140) 
1

>  <fr_benzodiazepine>  (140) 
0

>  <fr_bicyclic>  (140) 
0

>  <fr_diazo>  (140) 
0

>  <fr_dihydropyridine>  (140) 
0

>  <fr_epoxide>  (140) 
0

>  <fr_ester>  (140) 
0

>  <fr_ether>  (140) 
1

>  <fr_furan>  (140) 
0

>  <fr_guanido>  (140) 
0

>  <fr_halogen>  (140) 
0

>  <fr_hdrzine>  (140) 
0

>  <fr_hdrzone>  (140) 
0

>  <fr_imidazole>  (140) 
0

>  <fr_imide>  (140) 
0

>  <fr_isocyan>  (140) 
0

>  <fr_isothiocyan>  (140) 
0

>  <fr_ketone>  (140) 
0

>  <fr_ketone_Topliss>  (140) 
0

>  <fr_lactam>  (140) 
0

>  <fr_lactone>  (140) 
0

>  <fr_methoxy>  (140) 
1

>  <fr_morpholine>  (140) 
0

>  <fr_nitrile>  (140) 
0

>  <fr_nitro>  (140) 
0

>  <fr_nitro_arom>  (140) 
0

>  <fr_nitro_arom_nonortho>  (140) 
0

>  <fr_nitroso>  (140) 
0

>  <fr_oxazole>  (140) 
0

>  <fr_oxime>  (140) 
0

>  <fr_para_hydroxylation>  (140) 
0

>  <fr_phenol>  (140) 
1

>  <fr_phenol_noOrthoHbond>  (140) 
1

>  <fr_phos_acid>  (140) 
0

>  <fr_phos_ester>  (140) 
0

>  <fr_piperdine>  (140) 
0

>  <fr_piperzine>  (140) 
0

>  <fr_priamide>  (140) 
0

>  <fr_prisulfonamd>  (140) 
0

>  <fr_pyridine>  (140) 
0

>  <fr_quatN>  (140) 
1

>  <fr_sulfide>  (140) 
0

>  <fr_sulfonamd>  (140) 
0

>  <fr_sulfone>  (140) 
0

>  <fr_term_acetylene>  (140) 
0

>  <fr_tetrazole>  (140) 
0

>  <fr_thiazole>  (140) 
0

>  <fr_thiocyan>  (140) 
0

>  <fr_thiophene>  (140) 
0

>  <fr_unbrch_alkane>  (140) 
0

>  <fr_urea>  (140) 
0

>  <NP_Likeness>  (140) 
0.592178

$$$$
BJN
     RDKit          3D

  0  0  0  0  0  0  0  0  0  0999 V3000
M  V30 BEGIN CTAB
M  V30 COUNTS 20 20 0 0 0
M  V30 BEGIN ATOM
M  V30 1 N -23.578000 -0.592000 6.347000 0 CHG=1
M  V30 2 N -29.232000 -2.108000 6.637000 0
M  V30 3 C -24.827000 -1.241000 6.828000 0
M  V30 4 C -29.602000 -2.175000 7.921000 0
M  V30 5 C -28.083000 -1.478000 6.364000 0
M  V30 6 C -28.862000 -1.625000 8.949000 0
M  V30 7 C -25.955000 -0.237000 6.956000 0
M  V30 8 C -27.676000 -0.987000 8.639000 0
M  V30 9 C -27.260000 -0.903000 7.319000 0
M  V30 10 H -23.044000 -0.274800 7.130700 0
M  V30 11 H -23.040200 -1.251900 5.822400 0
M  V30 12 H -24.655800 -1.654400 7.722300 0
M  V30 13 H -25.095800 -1.951900 6.178100 0
M  V30 14 H -30.454900 -2.645700 8.147000 0
M  V30 15 H -27.799600 -1.418300 5.406900 0
M  V30 16 H -29.177100 -1.687000 9.896000 0
M  V30 17 H -26.066000 0.238200 6.083100 0
M  V30 18 H -25.720200 0.424600 7.668200 0
M  V30 19 H -27.118400 -0.586300 9.366000 0
M  V30 20 H -23.810100 0.187000 5.764500 0
M  V30 END ATOM
M  V30 BEGIN BOND
M  V30 1 1 1 3
M  V30 2 2 2 4
M  V30 3 1 2 5
M  V30 4 1 3 7
M  V30 5 1 4 6
M  V30 6 2 5 9
M  V30 7 2 6 8
M  V30 8 1 7 9
M  V30 9 1 8 9
M  V30 10 1 1 10
M  V30 11 1 1 11
M  V30 12 1 3 12
M  V30 13 1 3 13
M  V30 14 1 4 14
M  V30 15 1 5 15
M  V30 16 1 6 16
M  V30 17 1 7 17
M  V30 18 1 7 18
M  V30 19 1 8 19
M  V30 20 1 1 20
M  V30 END BOND
M  V30 END CTAB
M  END
>  <Ligand_Instance>  (141) 
5N3B_BJN_A_402

>  <Dataset>  (141) 
PDB

>  <PDB_ID>  (141) 
5N3B

>  <Chain>  (141) 
A

>  <Resi>  (141) 
402

>  <Num_Resolved_Atoms>  (141) 
9

>  <Num_H_Atoms_ProtBoundConf>  (141) 
11

>  <Pocket>  (141) 
A

>  <Name>  (141) 
2-pyridin-3-ylethylazanium

>  <Num_Not_Resolved_Atoms>  (141) 
0

>  <ATP_Site>  (141) 
True

>  <Peripheral>  (141) 
False

>  <Standardized_SMILES>  (141) 
[H]C1=NC([H])=C(C([H])([H])C([H])([H])[N+]([H])([H])[H])C([H])=C1[H]

>  <2D_Mol_H>  (141) 
<rdkit.Chem.rdchem.Mol object at 0x77059d9f9d20>

>  <MW>  (141) 
123.179

>  <HBA>  (141) 
1

>  <HBD>  (141) 
1

>  <LogP>  (141) 
-0.134

>  <NRB>  (141) 
3

>  <TPSA>  (141) 
40.53

>  <Num_Heavy_Atoms>  (141) 
9

>  <Ro5>  (141) 
[True, True, True, True, True, True]

>  <Ro5_Fulfilled>  (141) 
True

>  <Ro3>  (141) 
[True, True, True, True]

>  <Ro3_Fulfilled>  (141) 
True

>  <Fsp3>  (141) 
0.285714

>  <Fsp3_0.42>  (141) 
False

>  <Fsp3_0.45>  (141) 
False

>  <Stereogenic_Carbons>  (141) 
0

>  <C_Atoms>  (141) 
7

>  <FCStereo>  (141) 
0.0

>  <SPS>  (141) 
85

>  <nSPS>  (141) 
9.444444

>  <PBF>  (141) 
0.527712

>  <PBF_0.6>  (141) 
False

>  <nPBF>  (141) 
0.058635

>  <nPBF_0.016>  (141) 
True

>  <PMI1>  (141) 
109.109864

>  <PMI2>  (141) 
599.397574

>  <PMI3>  (141) 
666.139738

>  <NPR1>  (141) 
0.163794

>  <NPR2>  (141) 
0.899808

>  <Sum_NPR>  (141) 
1.063602

>  <Sum_NPR_1.07>  (141) 
False

>  <Sum_NPR_1.2>  (141) 
False

>  <MaxAbsEStateIndex>  (141) 
3.975509

>  <MaxEStateIndex>  (141) 
3.975509

>  <MinAbsEStateIndex>  (141) 
0.950093

>  <MinEStateIndex>  (141) 
0.950093

>  <qed>  (141) 
0.584196

>  <MolWt>  (141) 
123.179

>  <HeavyAtomMolWt>  (141) 
112.091

>  <ExactMolWt>  (141) 
123.091675

>  <NumValenceElectrons>  (141) 
48

>  <NumRadicalElectrons>  (141) 
0

>  <MaxPartialCharge>  (141) 
0.078089

>  <MinPartialCharge>  (141) 
-0.357284

>  <MaxAbsPartialCharge>  (141) 
0.357284

>  <MinAbsPartialCharge>  (141) 
0.078089

>  <FpDensityMorgan1>  (141) 
1.555556

>  <FpDensityMorgan2>  (141) 
2.444444

>  <FpDensityMorgan3>  (141) 
3.0

>  <BCUT2D_MWHI>  (141) 
14.613267

>  <BCUT2D_MWLOW>  (141) 
10.203559

>  <BCUT2D_CHGHI>  (141) 
1.871192

>  <BCUT2D_CHGLO>  (141) 
-1.910476

>  <BCUT2D_LOGPHI>  (141) 
1.928665

>  <BCUT2D_LOGPLOW>  (141) 
-2.506401

>  <BCUT2D_MRHI>  (141) 
5.074319

>  <BCUT2D_MRLOW>  (141) 
-0.366095

>  <AvgIpc>  (141) 
1.910086

>  <BalabanJ>  (141) 
2.6149

>  <BertzCT>  (141) 
159.826936

>  <Chi0>  (141) 
6.527098

>  <Chi0n>  (141) 
5.377935

>  <Chi0v>  (141) 
5.377935

>  <Chi1>  (141) 
4.431852

>  <Chi1n>  (141) 
3.113968

>  <Chi1v>  (141) 
3.113968

>  <Chi2n>  (141) 
1.964827

>  <Chi2v>  (141) 
1.964827

>  <Chi3n>  (141) 
1.188244

>  <Chi3v>  (141) 
1.188244

>  <Chi4n>  (141) 
0.750132

>  <Chi4v>  (141) 
0.750132

>  <HallKierAlpha>  (141) 
-0.89

>  <Ipc>  (141) 
145.166537

>  <Kappa1>  (141) 
6.233305

>  <Kappa2>  (141) 
3.198271

>  <Kappa3>  (141) 
1.81639

>  <LabuteASA>  (141) 
54.720826

>  <PEOE_VSA1>  (141) 
5.733667

>  <PEOE_VSA10>  (141) 
0.0

>  <PEOE_VSA11>  (141) 
0.0

>  <PEOE_VSA12>  (141) 
0.0

>  <PEOE_VSA13>  (141) 
0.0

>  <PEOE_VSA14>  (141) 
0.0

>  <PEOE_VSA2>  (141) 
4.983979

>  <PEOE_VSA3>  (141) 
0.0

>  <PEOE_VSA4>  (141) 
0.0

>  <PEOE_VSA5>  (141) 
0.0

>  <PEOE_VSA6>  (141) 
6.066367

>  <PEOE_VSA7>  (141) 
11.629819

>  <PEOE_VSA8>  (141) 
18.814509

>  <PEOE_VSA9>  (141) 
6.544756

>  <SMR_VSA1>  (141) 
5.733667

>  <SMR_VSA10>  (141) 
0.0

>  <SMR_VSA2>  (141) 
0.0

>  <SMR_VSA3>  (141) 
4.983979

>  <SMR_VSA4>  (141) 
0.0

>  <SMR_VSA5>  (141) 
6.420822

>  <SMR_VSA6>  (141) 
6.544756

>  <SMR_VSA7>  (141) 
30.089873

>  <SMR_VSA8>  (141) 
0.0

>  <SMR_VSA9>  (141) 
0.0

>  <SlogP_VSA1>  (141) 
5.733667

>  <SlogP_VSA10>  (141) 
0.0

>  <SlogP_VSA11>  (141) 
0.0

>  <SlogP_VSA12>  (141) 
0.0

>  <SlogP_VSA2>  (141) 
11.528735

>  <SlogP_VSA3>  (141) 
6.420822

>  <SlogP_VSA4>  (141) 
0.0

>  <SlogP_VSA5>  (141) 
5.563451

>  <SlogP_VSA6>  (141) 
24.526421

>  <SlogP_VSA7>  (141) 
0.0

>  <SlogP_VSA8>  (141) 
0.0

>  <SlogP_VSA9>  (141) 
0.0

>  <EState_VSA1>  (141) 
0.0

>  <EState_VSA10>  (141) 
0.0

>  <EState_VSA11>  (141) 
0.0

>  <EState_VSA2>  (141) 
0.0

>  <EState_VSA3>  (141) 
0.0

>  <EState_VSA4>  (141) 
12.965578

>  <EState_VSA5>  (141) 
5.563451

>  <EState_VSA6>  (141) 
6.196844

>  <EState_VSA7>  (141) 
12.263211

>  <EState_VSA8>  (141) 
16.784013

>  <EState_VSA9>  (141) 
0.0

>  <VSA_EState1>  (141) 
0.0

>  <VSA_EState10>  (141) 
0.0

>  <VSA_EState2>  (141) 
3.975509

>  <VSA_EState3>  (141) 
0.0

>  <VSA_EState4>  (141) 
5.024019

>  <VSA_EState5>  (141) 
0.0

>  <VSA_EState6>  (141) 
4.017037

>  <VSA_EState7>  (141) 
4.700009

>  <VSA_EState8>  (141) 
0.950093

>  <VSA_EState9>  (141) 
0.0

>  <FractionCSP3>  (141) 
0.285714

>  <HeavyAtomCount>  (141) 
9

>  <NHOHCount>  (141) 
3

>  <NOCount>  (141) 
2

>  <NumAliphaticCarbocycles>  (141) 
0

>  <NumAliphaticHeterocycles>  (141) 
0

>  <NumAliphaticRings>  (141) 
0

>  <NumAromaticCarbocycles>  (141) 
0

>  <NumAromaticHeterocycles>  (141) 
1

>  <NumAromaticRings>  (141) 
1

>  <NumHAcceptors>  (141) 
1

>  <NumHDonors>  (141) 
1

>  <NumHeteroatoms>  (141) 
2

>  <NumRotatableBonds>  (141) 
2

>  <NumSaturatedCarbocycles>  (141) 
0

>  <NumSaturatedHeterocycles>  (141) 
0

>  <NumSaturatedRings>  (141) 
0

>  <RingCount>  (141) 
1

>  <MolLogP>  (141) 
-0.134

>  <MolMR>  (141) 
35.6961

>  <fr_Al_COO>  (141) 
0

>  <fr_Al_OH>  (141) 
0

>  <fr_Al_OH_noTert>  (141) 
0

>  <fr_ArN>  (141) 
0

>  <fr_Ar_COO>  (141) 
0

>  <fr_Ar_N>  (141) 
1

>  <fr_Ar_NH>  (141) 
0

>  <fr_Ar_OH>  (141) 
0

>  <fr_COO>  (141) 
0

>  <fr_COO2>  (141) 
0

>  <fr_C_O>  (141) 
0

>  <fr_C_O_noCOO>  (141) 
0

>  <fr_C_S>  (141) 
0

>  <fr_HOCCN>  (141) 
0

>  <fr_Imine>  (141) 
0

>  <fr_NH0>  (141) 
1

>  <fr_NH1>  (141) 
0

>  <fr_NH2>  (141) 
0

>  <fr_N_O>  (141) 
0

>  <fr_Ndealkylation1>  (141) 
0

>  <fr_Ndealkylation2>  (141) 
0

>  <fr_Nhpyrrole>  (141) 
0

>  <fr_SH>  (141) 
0

>  <fr_aldehyde>  (141) 
0

>  <fr_alkyl_carbamate>  (141) 
0

>  <fr_alkyl_halide>  (141) 
0

>  <fr_allylic_oxid>  (141) 
0

>  <fr_amide>  (141) 
0

>  <fr_amidine>  (141) 
0

>  <fr_aniline>  (141) 
0

>  <fr_aryl_methyl>  (141) 
0

>  <fr_azide>  (141) 
0

>  <fr_azo>  (141) 
0

>  <fr_barbitur>  (141) 
0

>  <fr_benzene>  (141) 
0

>  <fr_benzodiazepine>  (141) 
0

>  <fr_bicyclic>  (141) 
0

>  <fr_diazo>  (141) 
0

>  <fr_dihydropyridine>  (141) 
0

>  <fr_epoxide>  (141) 
0

>  <fr_ester>  (141) 
0

>  <fr_ether>  (141) 
0

>  <fr_furan>  (141) 
0

>  <fr_guanido>  (141) 
0

>  <fr_halogen>  (141) 
0

>  <fr_hdrzine>  (141) 
0

>  <fr_hdrzone>  (141) 
0

>  <fr_imidazole>  (141) 
0

>  <fr_imide>  (141) 
0

>  <fr_isocyan>  (141) 
0

>  <fr_isothiocyan>  (141) 
0

>  <fr_ketone>  (141) 
0

>  <fr_ketone_Topliss>  (141) 
0

>  <fr_lactam>  (141) 
0

>  <fr_lactone>  (141) 
0

>  <fr_methoxy>  (141) 
0

>  <fr_morpholine>  (141) 
0

>  <fr_nitrile>  (141) 
0

>  <fr_nitro>  (141) 
0

>  <fr_nitro_arom>  (141) 
0

>  <fr_nitro_arom_nonortho>  (141) 
0

>  <fr_nitroso>  (141) 
0

>  <fr_oxazole>  (141) 
0

>  <fr_oxime>  (141) 
0

>  <fr_para_hydroxylation>  (141) 
0

>  <fr_phenol>  (141) 
0

>  <fr_phenol_noOrthoHbond>  (141) 
0

>  <fr_phos_acid>  (141) 
0

>  <fr_phos_ester>  (141) 
0

>  <fr_piperdine>  (141) 
0

>  <fr_piperzine>  (141) 
0

>  <fr_priamide>  (141) 
0

>  <fr_prisulfonamd>  (141) 
0

>  <fr_pyridine>  (141) 
1

>  <fr_quatN>  (141) 
1

>  <fr_sulfide>  (141) 
0

>  <fr_sulfonamd>  (141) 
0

>  <fr_sulfone>  (141) 
0

>  <fr_term_acetylene>  (141) 
0

>  <fr_tetrazole>  (141) 
0

>  <fr_thiazole>  (141) 
0

>  <fr_thiocyan>  (141) 
0

>  <fr_thiophene>  (141) 
0

>  <fr_unbrch_alkane>  (141) 
0

>  <fr_urea>  (141) 
0

>  <NP_Likeness>  (141) 
-0.867239

$$$$
BJQ
     RDKit          3D

  0  0  0  0  0  0  0  0  0  0999 V3000
M  V30 BEGIN CTAB
M  V30 COUNTS 27 27 0 0 0
M  V30 BEGIN ATOM
M  V30 1 O -31.156000 23.065000 -3.466000 0
M  V30 2 O -29.512000 23.142000 -1.961000 0
M  V30 3 N -30.483000 25.445000 -4.549000 0 CHG=1
M  V30 4 C -29.856000 21.803000 -1.536000 0
M  V30 5 C -34.511000 26.504000 -1.725000 0
M  V30 6 C -33.888000 25.406000 -1.176000 0
M  V30 7 C -33.765000 27.436000 -2.412000 0
M  V30 8 C -32.518000 25.248000 -1.298000 0
M  V30 9 C -32.393000 27.281000 -2.531000 0
M  V30 10 C -30.257000 26.003000 -2.118000 0
M  V30 11 C -30.263000 23.646000 -2.927000 0
M  V30 12 C -29.841000 25.065000 -3.259000 0 CFG=1
M  V30 13 C -31.749000 26.186000 -1.973000 0
M  V30 14 H -30.189100 24.813400 -5.266400 0
M  V30 15 H -31.477300 25.400300 -4.452400 0
M  V30 16 H -29.234500 21.514500 -0.807600 0
M  V30 17 H -30.796200 21.792600 -1.195600 0
M  V30 18 H -29.775100 21.176200 -2.311000 0
M  V30 19 H -35.498800 26.624200 -1.625700 0
M  V30 20 H -34.427000 24.720000 -0.687300 0
M  V30 21 H -34.214900 28.227200 -2.826300 0
M  V30 22 H -32.076200 24.446900 -0.894200 0
M  V30 23 H -31.860000 27.967500 -3.025600 0
M  V30 24 H -29.846700 26.899600 -2.284900 0
M  V30 25 H -29.903100 25.628900 -1.260800 0
M  V30 26 H -28.847100 25.096300 -3.364600 0
M  V30 27 H -30.213400 26.376300 -4.793900 0
M  V30 END ATOM
M  V30 BEGIN BOND
M  V30 1 2 1 11
M  V30 2 1 2 4
M  V30 3 1 2 11
M  V30 4 1 3 12
M  V30 5 2 5 6
M  V30 6 1 5 7
M  V30 7 1 6 8
M  V30 8 2 7 9
M  V30 9 2 8 13
M  V30 10 1 9 13
M  V30 11 1 10 12
M  V30 12 1 10 13
M  V30 13 1 11 12
M  V30 14 1 3 14
M  V30 15 1 3 15
M  V30 16 1 4 16
M  V30 17 1 4 17
M  V30 18 1 4 18
M  V30 19 1 5 19
M  V30 20 1 6 20
M  V30 21 1 7 21
M  V30 22 1 8 22
M  V30 23 1 9 23
M  V30 24 1 10 24
M  V30 25 1 10 25
M  V30 26 1 12 26 CFG=3
M  V30 27 1 3 27
M  V30 END BOND
M  V30 END CTAB
M  END
>  <Ligand_Instance>  (142) 
5N3I_BJQ_A_404

>  <Dataset>  (142) 
PDB

>  <PDB_ID>  (142) 
5N3I

>  <Chain>  (142) 
A

>  <Resi>  (142) 
404

>  <Num_Resolved_Atoms>  (142) 
13

>  <Num_H_Atoms_ProtBoundConf>  (142) 
14

>  <Pocket>  (142) 
X

>  <Name>  (142) 
[(2~{S})-1-methoxy-1-oxidanylidene-3-phenyl-propan-2-yl]azanium

>  <Num_Not_Resolved_Atoms>  (142) 
0

>  <ATP_Site>  (142) 
False

>  <Peripheral>  (142) 
True

>  <Standardized_SMILES>  (142) 
[H]C1=C([H])C([H])=C(C([H])([H])[C@@]([H])(C(=O)OC([H])([H])[H])[N+]([H])([H])[H])C([H])=C1[H]

>  <2D_Mol_H>  (142) 
<rdkit.Chem.rdchem.Mol object at 0x77059d9f9e00>

>  <MW>  (142) 
180.227

>  <HBA>  (142) 
2

>  <HBD>  (142) 
1

>  <LogP>  (142) 
0.0126

>  <NRB>  (142) 
5

>  <TPSA>  (142) 
53.94

>  <Num_Heavy_Atoms>  (142) 
13

>  <Ro5>  (142) 
[True, True, True, True, True, True]

>  <Ro5_Fulfilled>  (142) 
True

>  <Ro3>  (142) 
[True, True, True, True]

>  <Ro3_Fulfilled>  (142) 
True

>  <Fsp3>  (142) 
0.3

>  <Fsp3_0.42>  (142) 
False

>  <Fsp3_0.45>  (142) 
False

>  <Stereogenic_Carbons>  (142) 
1

>  <C_Atoms>  (142) 
10

>  <FCStereo>  (142) 
0.1

>  <SPS>  (142) 
158

>  <nSPS>  (142) 
12.153846

>  <PBF>  (142) 
0.699707

>  <PBF_0.6>  (142) 
True

>  <nPBF>  (142) 
0.053824

>  <nPBF_0.016>  (142) 
True

>  <PMI1>  (142) 
362.667994

>  <PMI2>  (142) 
936.470051

>  <PMI3>  (142) 
1103.881302

>  <NPR1>  (142) 
0.328539

>  <NPR2>  (142) 
0.848343

>  <Sum_NPR>  (142) 
1.176882

>  <Sum_NPR_1.07>  (142) 
True

>  <Sum_NPR_1.2>  (142) 
False

>  <MaxAbsEStateIndex>  (142) 
11.03142

>  <MaxEStateIndex>  (142) 
11.03142

>  <MinAbsEStateIndex>  (142) 
0.260321

>  <MinEStateIndex>  (142) 
-0.312593

>  <qed>  (142) 
0.66622

>  <MolWt>  (142) 
180.227

>  <HeavyAtomMolWt>  (142) 
166.115

>  <ExactMolWt>  (142) 
180.101905

>  <NumValenceElectrons>  (142) 
70

>  <NumRadicalElectrons>  (142) 
0

>  <MaxPartialCharge>  (142) 
0.364335

>  <MinPartialCharge>  (142) 
-0.464618

>  <MaxAbsPartialCharge>  (142) 
0.464618

>  <MinAbsPartialCharge>  (142) 
0.364335

>  <FpDensityMorgan1>  (142) 
1.461538

>  <FpDensityMorgan2>  (142) 
2.076923

>  <FpDensityMorgan3>  (142) 
2.615385

>  <BCUT2D_MWHI>  (142) 
16.524728

>  <BCUT2D_MWLOW>  (142) 
10.075256

>  <BCUT2D_CHGHI>  (142) 
2.168989

>  <BCUT2D_CHGLO>  (142) 
-2.048658

>  <BCUT2D_LOGPHI>  (142) 
2.008295

>  <BCUT2D_LOGPLOW>  (142) 
-2.657743

>  <BCUT2D_MRHI>  (142) 
5.736545

>  <BCUT2D_MRLOW>  (142) 
-0.407064

>  <AvgIpc>  (142) 
2.17834

>  <BalabanJ>  (142) 
2.547231

>  <BertzCT>  (142) 
271.513052

>  <Chi0>  (142) 
9.681798

>  <Chi0n>  (142) 
7.694812

>  <Chi0v>  (142) 
7.694812

>  <Chi1>  (142) 
6.236382

>  <Chi1n>  (142) 
4.185905

>  <Chi1v>  (142) 
4.185905

>  <Chi2n>  (142) 
2.909806

>  <Chi2v>  (142) 
2.909806

>  <Chi3n>  (142) 
1.859444

>  <Chi3v>  (142) 
1.859444

>  <Chi4n>  (142) 
1.148611

>  <Chi4v>  (142) 
1.148611

>  <HallKierAlpha>  (142) 
-1.35

>  <Ipc>  (142) 
949.756396

>  <Kappa1>  (142) 
9.735837

>  <Kappa2>  (142) 
4.620926

>  <Kappa3>  (142) 
2.874441

>  <LabuteASA>  (142) 
77.50613

>  <PEOE_VSA1>  (142) 
10.47053

>  <PEOE_VSA10>  (142) 
0.0

>  <PEOE_VSA11>  (142) 
6.041841

>  <PEOE_VSA12>  (142) 
0.0

>  <PEOE_VSA13>  (142) 
0.0

>  <PEOE_VSA14>  (142) 
5.969305

>  <PEOE_VSA2>  (142) 
0.0

>  <PEOE_VSA3>  (142) 
4.794537

>  <PEOE_VSA4>  (142) 
0.0

>  <PEOE_VSA5>  (142) 
0.0

>  <PEOE_VSA6>  (142) 
30.331835

>  <PEOE_VSA7>  (142) 
5.563451

>  <PEOE_VSA8>  (142) 
6.420822

>  <PEOE_VSA9>  (142) 
7.109798

>  <SMR_VSA1>  (142) 
15.265068

>  <SMR_VSA10>  (142) 
5.969305

>  <SMR_VSA2>  (142) 
0.0

>  <SMR_VSA3>  (142) 
0.0

>  <SMR_VSA4>  (142) 
0.0

>  <SMR_VSA5>  (142) 
12.462662

>  <SMR_VSA6>  (142) 
7.109798

>  <SMR_VSA7>  (142) 
35.895287

>  <SMR_VSA8>  (142) 
0.0

>  <SMR_VSA9>  (142) 
0.0

>  <SlogP_VSA1>  (142) 
5.733667

>  <SlogP_VSA10>  (142) 
0.0

>  <SlogP_VSA11>  (142) 
0.0

>  <SlogP_VSA12>  (142) 
0.0

>  <SlogP_VSA2>  (142) 
19.120944

>  <SlogP_VSA3>  (142) 
15.952222

>  <SlogP_VSA4>  (142) 
0.0

>  <SlogP_VSA5>  (142) 
5.563451

>  <SlogP_VSA6>  (142) 
30.331835

>  <SlogP_VSA7>  (142) 
0.0

>  <SlogP_VSA8>  (142) 
0.0

>  <SlogP_VSA9>  (142) 
0.0

>  <EState_VSA1>  (142) 
0.0

>  <EState_VSA10>  (142) 
4.794537

>  <EState_VSA11>  (142) 
0.0

>  <EState_VSA2>  (142) 
12.011146

>  <EState_VSA3>  (142) 
6.420822

>  <EState_VSA4>  (142) 
5.563451

>  <EState_VSA5>  (142) 
7.109798

>  <EState_VSA6>  (142) 
0.0

>  <EState_VSA7>  (142) 
30.331835

>  <EState_VSA8>  (142) 
10.47053

>  <EState_VSA9>  (142) 
0.0

>  <VSA_EState1>  (142) 
4.582764

>  <VSA_EState10>  (142) 
0.0

>  <VSA_EState2>  (142) 
11.03142

>  <VSA_EState3>  (142) 
0.0

>  <VSA_EState4>  (142) 
4.834066

>  <VSA_EState5>  (142) 
-0.260321

>  <VSA_EState6>  (142) 
9.465822

>  <VSA_EState7>  (142) 
0.632454

>  <VSA_EState8>  (142) 
0.0

>  <VSA_EState9>  (142) 
1.380463

>  <FractionCSP3>  (142) 
0.3

>  <HeavyAtomCount>  (142) 
13

>  <NHOHCount>  (142) 
3

>  <NOCount>  (142) 
3

>  <NumAliphaticCarbocycles>  (142) 
0

>  <NumAliphaticHeterocycles>  (142) 
0

>  <NumAliphaticRings>  (142) 
0

>  <NumAromaticCarbocycles>  (142) 
1

>  <NumAromaticHeterocycles>  (142) 
0

>  <NumAromaticRings>  (142) 
1

>  <NumHAcceptors>  (142) 
2

>  <NumHDonors>  (142) 
1

>  <NumHeteroatoms>  (142) 
3

>  <NumRotatableBonds>  (142) 
3

>  <NumSaturatedCarbocycles>  (142) 
0

>  <NumSaturatedHeterocycles>  (142) 
0

>  <NumSaturatedRings>  (142) 
0

>  <RingCount>  (142) 
1

>  <MolLogP>  (142) 
0.0126

>  <MolMR>  (142) 
48.8381

>  <fr_Al_COO>  (142) 
0

>  <fr_Al_OH>  (142) 
0

>  <fr_Al_OH_noTert>  (142) 
0

>  <fr_ArN>  (142) 
0

>  <fr_Ar_COO>  (142) 
0

>  <fr_Ar_N>  (142) 
0

>  <fr_Ar_NH>  (142) 
0

>  <fr_Ar_OH>  (142) 
0

>  <fr_COO>  (142) 
0

>  <fr_COO2>  (142) 
0

>  <fr_C_O>  (142) 
1

>  <fr_C_O_noCOO>  (142) 
1

>  <fr_C_S>  (142) 
0

>  <fr_HOCCN>  (142) 
0

>  <fr_Imine>  (142) 
0

>  <fr_NH0>  (142) 
0

>  <fr_NH1>  (142) 
0

>  <fr_NH2>  (142) 
0

>  <fr_N_O>  (142) 
0

>  <fr_Ndealkylation1>  (142) 
0

>  <fr_Ndealkylation2>  (142) 
0

>  <fr_Nhpyrrole>  (142) 
0

>  <fr_SH>  (142) 
0

>  <fr_aldehyde>  (142) 
0

>  <fr_alkyl_carbamate>  (142) 
0

>  <fr_alkyl_halide>  (142) 
0

>  <fr_allylic_oxid>  (142) 
0

>  <fr_amide>  (142) 
0

>  <fr_amidine>  (142) 
0

>  <fr_aniline>  (142) 
0

>  <fr_aryl_methyl>  (142) 
0

>  <fr_azide>  (142) 
0

>  <fr_azo>  (142) 
0

>  <fr_barbitur>  (142) 
0

>  <fr_benzene>  (142) 
1

>  <fr_benzodiazepine>  (142) 
0

>  <fr_bicyclic>  (142) 
0

>  <fr_diazo>  (142) 
0

>  <fr_dihydropyridine>  (142) 
0

>  <fr_epoxide>  (142) 
0

>  <fr_ester>  (142) 
1

>  <fr_ether>  (142) 
1

>  <fr_furan>  (142) 
0

>  <fr_guanido>  (142) 
0

>  <fr_halogen>  (142) 
0

>  <fr_hdrzine>  (142) 
0

>  <fr_hdrzone>  (142) 
0

>  <fr_imidazole>  (142) 
0

>  <fr_imide>  (142) 
0

>  <fr_isocyan>  (142) 
0

>  <fr_isothiocyan>  (142) 
0

>  <fr_ketone>  (142) 
0

>  <fr_ketone_Topliss>  (142) 
0

>  <fr_lactam>  (142) 
0

>  <fr_lactone>  (142) 
0

>  <fr_methoxy>  (142) 
1

>  <fr_morpholine>  (142) 
0

>  <fr_nitrile>  (142) 
0

>  <fr_nitro>  (142) 
0

>  <fr_nitro_arom>  (142) 
0

>  <fr_nitro_arom_nonortho>  (142) 
0

>  <fr_nitroso>  (142) 
0

>  <fr_oxazole>  (142) 
0

>  <fr_oxime>  (142) 
0

>  <fr_para_hydroxylation>  (142) 
0

>  <fr_phenol>  (142) 
0

>  <fr_phenol_noOrthoHbond>  (142) 
0

>  <fr_phos_acid>  (142) 
0

>  <fr_phos_ester>  (142) 
0

>  <fr_piperdine>  (142) 
0

>  <fr_piperzine>  (142) 
0

>  <fr_priamide>  (142) 
0

>  <fr_prisulfonamd>  (142) 
0

>  <fr_pyridine>  (142) 
0

>  <fr_quatN>  (142) 
1

>  <fr_sulfide>  (142) 
0

>  <fr_sulfonamd>  (142) 
0

>  <fr_sulfone>  (142) 
0

>  <fr_term_acetylene>  (142) 
0

>  <fr_tetrazole>  (142) 
0

>  <fr_thiazole>  (142) 
0

>  <fr_thiocyan>  (142) 
0

>  <fr_thiophene>  (142) 
0

>  <fr_unbrch_alkane>  (142) 
0

>  <fr_urea>  (142) 
0

>  <NP_Likeness>  (142) 
-0.080915

$$$$
BVZ
     RDKit          3D

  0  0  0  0  0  0  0  0  0  0999 V3000
M  V30 BEGIN CTAB
M  V30 COUNTS 56 59 0 0 0
M  V30 BEGIN ATOM
M  V30 1 S 7.824000 11.219000 7.635000 0
M  V30 2 O 7.086000 10.814000 6.476000 0
M  V30 3 O 8.125000 10.281000 8.656000 0
M  V30 4 O 2.911000 8.404000 11.154000 0
M  V30 5 O 3.941000 10.130000 9.800000 0
M  V30 6 N 13.060000 9.921000 6.792000 0
M  V30 7 N 6.931000 12.393000 8.342000 0
M  V30 8 N 4.964000 12.495000 10.645000 0 CFG=2 CHG=1
M  V30 9 C 11.912000 9.244000 6.949000 0
M  V30 10 C 12.987000 11.243000 6.744000 0
M  V30 11 C 7.378000 12.848000 9.671000 0
M  V30 12 C 6.507000 12.458000 10.813000 0
M  V30 13 C 5.880000 13.163000 7.642000 0
M  V30 14 C 4.527000 13.593000 9.765000 0
M  V30 15 C 4.415000 12.659000 11.999000 0
M  V30 16 C 4.513000 13.232000 8.296000 0
M  V30 17 C 0.794000 12.748000 13.020000 0
M  V30 18 C 0.373000 11.469000 12.727000 0
M  V30 19 C 10.517000 14.047000 6.848000 0
M  V30 20 C 10.685000 9.830000 7.079000 0
M  V30 21 C 9.340000 13.346000 7.062000 0
M  V30 22 C 2.091000 13.127000 12.730000 0
M  V30 23 C 11.715000 13.393000 6.758000 0
M  V30 24 C 1.249000 10.561000 12.145000 0
M  V30 25 C 9.358000 11.982000 7.178000 0
M  V30 26 C 11.779000 11.979000 6.848000 0
M  V30 27 C 2.982000 12.217000 12.165000 0
M  V30 28 C 10.582000 11.242000 7.047000 0
M  V30 29 C 2.575000 10.900000 11.853000 0
M  V30 30 B 3.534000 9.798000 11.193000 0 CHG=-1
M  V30 31 H 11.957800 8.245300 6.972300 0
M  V30 32 H 13.838100 11.754700 6.626900 0
M  V30 33 H 7.431300 13.846400 9.652100 0
M  V30 34 H 8.288500 12.468700 9.835500 0
M  V30 35 H 6.750600 11.519400 11.057300 0
M  V30 36 H 6.731700 13.069000 11.572100 0
M  V30 37 H 5.759700 12.753100 6.737900 0
M  V30 38 H 6.212000 14.100900 7.541200 0
M  V30 39 H 5.148400 14.365900 9.893500 0
M  V30 40 H 3.601500 13.861400 10.032200 0
M  V30 41 H 4.470600 13.627700 12.240900 0
M  V30 42 H 4.979000 12.125200 12.629000 0
M  V30 43 H 4.077300 12.337000 8.200200 0
M  V30 44 H 3.971600 13.919700 7.812300 0
M  V30 45 H 0.163100 13.399700 13.441000 0
M  V30 46 H -0.565800 11.193500 12.933900 0
M  V30 47 H 10.489700 15.042600 6.758400 0
M  V30 48 H 9.866800 9.267000 7.195700 0
M  V30 49 H 8.473100 13.839500 7.132000 0
M  V30 50 H 2.391800 14.060100 12.926900 0
M  V30 51 H 12.555900 13.918200 6.627200 0
M  V30 52 H 0.923200 9.640600 11.929000 0
M  V30 53 H 2.622600 8.141900 12.074900 0
M  V30 54 H 3.136600 10.118300 9.206000 0
M  V30 55 H 4.652200 11.623900 10.265600 0
M  V30 56 R# 4.932000 9.609000 11.758000 0 RGROUPS=(1 1)
M  V30 END ATOM
M  V30 BEGIN BOND
M  V30 1 1 5 54
M  V30 2 1 4 53
M  V30 3 1 22 50
M  V30 4 1 21 49
M  V30 5 1 20 48
M  V30 6 1 19 47
M  V30 7 1 18 46
M  V30 8 1 17 45
M  V30 9 1 16 44
M  V30 10 1 16 43
M  V30 11 1 15 42
M  V30 12 1 15 41
M  V30 13 1 14 40
M  V30 14 1 14 39
M  V30 15 1 30 56
M  V30 16 2 1 2
M  V30 17 2 1 3
M  V30 18 1 1 7
M  V30 19 1 1 25
M  V30 20 1 4 30
M  V30 21 1 5 30
M  V30 22 2 6 9
M  V30 23 1 6 10
M  V30 24 1 7 11
M  V30 25 1 7 13
M  V30 26 1 8 12
M  V30 27 1 8 14
M  V30 28 1 8 15
M  V30 29 1 9 20
M  V30 30 2 10 26
M  V30 31 1 11 12
M  V30 32 1 13 16
M  V30 33 1 14 16
M  V30 34 1 15 27
M  V30 35 2 17 18
M  V30 36 1 17 22
M  V30 37 1 18 24
M  V30 38 1 19 21
M  V30 39 2 19 23
M  V30 40 2 20 28
M  V30 41 2 21 25
M  V30 42 2 22 27
M  V30 43 1 23 26
M  V30 44 2 24 29
M  V30 45 1 25 28
M  V30 46 1 26 28
M  V30 47 1 27 29
M  V30 48 1 29 30
M  V30 49 1 24 52
M  V30 50 1 23 51
M  V30 51 1 9 31
M  V30 52 1 10 32
M  V30 53 1 11 33
M  V30 54 1 11 34
M  V30 55 1 12 35
M  V30 56 1 12 36
M  V30 57 1 13 37
M  V30 58 1 13 38
M  V30 59 1 8 55 CFG=3
M  V30 END BOND
M  V30 END CTAB
M  END
>  <Ligand_Instance>  (143) 
6ERT_BVZ_A_401

>  <Dataset>  (143) 
PDB

>  <PDB_ID>  (143) 
6ERT

>  <Chain>  (143) 
A

>  <Resi>  (143) 
401

>  <Num_Resolved_Atoms>  (143) 
30

>  <Num_H_Atoms_ProtBoundConf>  (143) 
25

>  <Pocket>  (143) 
A

>  <Name>  (143) 
[2-[(4-isoquinolin-5-ylsulfonyl-1,4-diazepan-1-yl)methyl]phenyl]-tris(oxidanyl)boranuide

>  <Num_Not_Resolved_Atoms>  (143) 
1

>  <ATP_Site>  (143) 
True

>  <Peripheral>  (143) 
False

>  <Standardized_SMILES>  (143) 
[1*][B-](O[H])(O[H])C1=C([H])C([H])=C([H])C([H])=C1C([H])([H])[N@+]1([H])C([H])([H])C([H])([H])N(S(=O)(=O)C2=C([H])C([H])=C([H])C3=C([H])N=C([H])C([H])=C32)C([H])([H])C([H])([H])C1([H])[H]

>  <2D_Mol_H>  (143) 
<rdkit.Chem.rdchem.Mol object at 0x77059d9f9ee0>

>  <MW>  (143) 
426.327

>  <HBA>  (143) 
5

>  <HBD>  (143) 
3

>  <LogP>  (143) 
-0.6059

>  <NRB>  (143) 
7

>  <TPSA>  (143) 
95.17

>  <Num_Heavy_Atoms>  (143) 
30

>  <Ro5>  (143) 
[True, True, True, True, True, True]

>  <Ro5_Fulfilled>  (143) 
True

>  <Ro3>  (143) 
[False, False, True, True]

>  <Ro3_Fulfilled>  (143) 
False

>  <Fsp3>  (143) 
0.285714

>  <Fsp3_0.42>  (143) 
False

>  <Fsp3_0.45>  (143) 
False

>  <Stereogenic_Carbons>  (143) 
0

>  <C_Atoms>  (143) 
21

>  <FCStereo>  (143) 
0.0

>  <SPS>  (143) 
582

>  <nSPS>  (143) 
19.4

>  <PBF>  (143) 
0.869013

>  <PBF_0.6>  (143) 
True

>  <nPBF>  (143) 
0.028967

>  <nPBF_0.016>  (143) 
True

>  <PMI1>  (143) 
1266.73692

>  <PMI2>  (143) 
7770.305008

>  <PMI3>  (143) 
8334.523807

>  <NPR1>  (143) 
0.151987

>  <NPR2>  (143) 
0.932303

>  <Sum_NPR>  (143) 
1.08429

>  <Sum_NPR_1.07>  (143) 
True

>  <Sum_NPR_1.2>  (143) 
False

>  <MaxAbsEStateIndex>  (143) 
13.445462

>  <MaxEStateIndex>  (143) 
13.445462

>  <MinAbsEStateIndex>  (143) 
0.327916

>  <MinEStateIndex>  (143) 
-3.614345

>  <qed>  (143) 
0.473798

>  <MolWt>  (143) 
426.327

>  <HeavyAtomMolWt>  (143) 
401.127

>  <ExactMolWt>  (143) 
426.165883

>  <NumValenceElectrons>  (143) 
157

>  <NumRadicalElectrons>  (143) 
0

>  <MaxPartialCharge>  (143) 
nan

>  <MinPartialCharge>  (143) 
nan

>  <MaxAbsPartialCharge>  (143) 
nan

>  <MinAbsPartialCharge>  (143) 
nan

>  <FpDensityMorgan1>  (143) 
1.1

>  <FpDensityMorgan2>  (143) 
1.933333

>  <FpDensityMorgan3>  (143) 
2.766667

>  <BCUT2D_MWHI>  (143) 
nan

>  <BCUT2D_MWLOW>  (143) 
nan

>  <BCUT2D_CHGHI>  (143) 
nan

>  <BCUT2D_CHGLO>  (143) 
nan

>  <BCUT2D_LOGPHI>  (143) 
nan

>  <BCUT2D_LOGPLOW>  (143) 
nan

>  <BCUT2D_MRHI>  (143) 
nan

>  <BCUT2D_MRLOW>  (143) 
nan

>  <AvgIpc>  (143) 
2.989164

>  <BalabanJ>  (143) 
1.534043

>  <BertzCT>  (143) 
1181.208442

>  <Chi0>  (143) 
22.062267

>  <Chi0n>  (143) 
16.607093

>  <Chi0v>  (143) 
17.423589

>  <Chi1>  (143) 
14.765005

>  <Chi1n>  (143) 
10.070222

>  <Chi1v>  (143) 
11.510286

>  <Chi2n>  (143) 
7.609858

>  <Chi2v>  (143) 
9.516215

>  <Chi3n>  (143) 
5.684879

>  <Chi3v>  (143) 
7.641672

>  <Chi4n>  (143) 
4.115427

>  <Chi4v>  (143) 
5.809037

>  <HallKierAlpha>  (143) 
-2.295065

>  <Ipc>  (143) 
9885596.298728

>  <Kappa1>  (143) 
19.655607

>  <Kappa2>  (143) 
7.753502

>  <Kappa3>  (143) 
3.99007

>  <LabuteASA>  (143) 
176.335146

>  <PEOE_VSA1>  (143) 
0.0

>  <PEOE_VSA10>  (143) 
0.0

>  <PEOE_VSA11>  (143) 
0.0

>  <PEOE_VSA12>  (143) 
0.0

>  <PEOE_VSA13>  (143) 
0.0

>  <PEOE_VSA14>  (143) 
153.116011

>  <PEOE_VSA2>  (143) 
4.983979

>  <PEOE_VSA3>  (143) 
0.0

>  <PEOE_VSA4>  (143) 
0.0

>  <PEOE_VSA5>  (143) 
0.0

>  <PEOE_VSA6>  (143) 
6.066367

>  <PEOE_VSA7>  (143) 
0.0

>  <PEOE_VSA8>  (143) 
12.393687

>  <PEOE_VSA9>  (143) 
0.0

>  <SMR_VSA1>  (143) 
23.365752

>  <SMR_VSA10>  (143) 
33.376935

>  <SMR_VSA2>  (143) 
0.0

>  <SMR_VSA3>  (143) 
9.289195

>  <SMR_VSA4>  (143) 
0.0

>  <SMR_VSA5>  (143) 
17.861062

>  <SMR_VSA6>  (143) 
26.179026

>  <SMR_VSA7>  (143) 
66.488075

>  <SMR_VSA8>  (143) 
0.0

>  <SMR_VSA9>  (143) 
0.0

>  <SlogP_VSA1>  (143) 
10.362713

>  <SlogP_VSA10>  (143) 
0.0

>  <SlogP_VSA11>  (143) 
0.0

>  <SlogP_VSA12>  (143) 
0.0

>  <SlogP_VSA2>  (143) 
61.052455

>  <SlogP_VSA3>  (143) 
16.568048

>  <SlogP_VSA4>  (143) 
0.0

>  <SlogP_VSA5>  (143) 
11.984273

>  <SlogP_VSA6>  (143) 
65.820107

>  <SlogP_VSA7>  (143) 
0.0

>  <SlogP_VSA8>  (143) 
10.772448

>  <SlogP_VSA9>  (143) 
0.0

>  <EState_VSA1>  (143) 
17.141683

>  <EState_VSA10>  (143) 
18.465842

>  <EState_VSA11>  (143) 
0.0

>  <EState_VSA2>  (143) 
0.0

>  <EState_VSA3>  (143) 
41.923537

>  <EState_VSA4>  (143) 
23.915254

>  <EState_VSA5>  (143) 
4.89991

>  <EState_VSA6>  (143) 
34.898004

>  <EState_VSA7>  (143) 
30.331835

>  <EState_VSA8>  (143) 
4.983979

>  <EState_VSA9>  (143) 
0.0

>  <VSA_EState1>  (143) 
27.834305

>  <VSA_EState10>  (143) 
0.0

>  <VSA_EState2>  (143) 
5.680693

>  <VSA_EState3>  (143) 
21.994116

>  <VSA_EState4>  (143) 
1.614306

>  <VSA_EState5>  (143) 
0.0

>  <VSA_EState6>  (143) 
14.583494

>  <VSA_EState7>  (143) 
4.059625

>  <VSA_EState8>  (143) 
3.096751

>  <VSA_EState9>  (143) 
-5.946623

>  <FractionCSP3>  (143) 
0.285714

>  <HeavyAtomCount>  (143) 
30

>  <NHOHCount>  (143) 
3

>  <NOCount>  (143) 
7

>  <NumAliphaticCarbocycles>  (143) 
0

>  <NumAliphaticHeterocycles>  (143) 
1

>  <NumAliphaticRings>  (143) 
1

>  <NumAromaticCarbocycles>  (143) 
2

>  <NumAromaticHeterocycles>  (143) 
1

>  <NumAromaticRings>  (143) 
3

>  <NumHAcceptors>  (143) 
5

>  <NumHDonors>  (143) 
3

>  <NumHeteroatoms>  (143) 
10

>  <NumRotatableBonds>  (143) 
5

>  <NumSaturatedCarbocycles>  (143) 
0

>  <NumSaturatedHeterocycles>  (143) 
1

>  <NumSaturatedRings>  (143) 
1

>  <RingCount>  (143) 
4

>  <MolLogP>  (143) 
-0.6059

>  <MolMR>  (143) 
115.7871

>  <fr_Al_COO>  (143) 
0

>  <fr_Al_OH>  (143) 
0

>  <fr_Al_OH_noTert>  (143) 
0

>  <fr_ArN>  (143) 
0

>  <fr_Ar_COO>  (143) 
0

>  <fr_Ar_N>  (143) 
1

>  <fr_Ar_NH>  (143) 
0

>  <fr_Ar_OH>  (143) 
0

>  <fr_COO>  (143) 
0

>  <fr_COO2>  (143) 
0

>  <fr_C_O>  (143) 
0

>  <fr_C_O_noCOO>  (143) 
0

>  <fr_C_S>  (143) 
0

>  <fr_HOCCN>  (143) 
0

>  <fr_Imine>  (143) 
0

>  <fr_NH0>  (143) 
2

>  <fr_NH1>  (143) 
1

>  <fr_NH2>  (143) 
0

>  <fr_N_O>  (143) 
0

>  <fr_Ndealkylation1>  (143) 
0

>  <fr_Ndealkylation2>  (143) 
0

>  <fr_Nhpyrrole>  (143) 
0

>  <fr_SH>  (143) 
0

>  <fr_aldehyde>  (143) 
0

>  <fr_alkyl_carbamate>  (143) 
0

>  <fr_alkyl_halide>  (143) 
0

>  <fr_allylic_oxid>  (143) 
0

>  <fr_amide>  (143) 
0

>  <fr_amidine>  (143) 
0

>  <fr_aniline>  (143) 
0

>  <fr_aryl_methyl>  (143) 
0

>  <fr_azide>  (143) 
0

>  <fr_azo>  (143) 
0

>  <fr_barbitur>  (143) 
0

>  <fr_benzene>  (143) 
2

>  <fr_benzodiazepine>  (143) 
0

>  <fr_bicyclic>  (143) 
1

>  <fr_diazo>  (143) 
0

>  <fr_dihydropyridine>  (143) 
0

>  <fr_epoxide>  (143) 
0

>  <fr_ester>  (143) 
0

>  <fr_ether>  (143) 
0

>  <fr_furan>  (143) 
0

>  <fr_guanido>  (143) 
0

>  <fr_halogen>  (143) 
0

>  <fr_hdrzine>  (143) 
0

>  <fr_hdrzone>  (143) 
0

>  <fr_imidazole>  (143) 
0

>  <fr_imide>  (143) 
0

>  <fr_isocyan>  (143) 
0

>  <fr_isothiocyan>  (143) 
0

>  <fr_ketone>  (143) 
0

>  <fr_ketone_Topliss>  (143) 
0

>  <fr_lactam>  (143) 
0

>  <fr_lactone>  (143) 
0

>  <fr_methoxy>  (143) 
0

>  <fr_morpholine>  (143) 
0

>  <fr_nitrile>  (143) 
0

>  <fr_nitro>  (143) 
0

>  <fr_nitro_arom>  (143) 
0

>  <fr_nitro_arom_nonortho>  (143) 
0

>  <fr_nitroso>  (143) 
0

>  <fr_oxazole>  (143) 
0

>  <fr_oxime>  (143) 
0

>  <fr_para_hydroxylation>  (143) 
0

>  <fr_phenol>  (143) 
0

>  <fr_phenol_noOrthoHbond>  (143) 
0

>  <fr_phos_acid>  (143) 
0

>  <fr_phos_ester>  (143) 
0

>  <fr_piperdine>  (143) 
0

>  <fr_piperzine>  (143) 
0

>  <fr_priamide>  (143) 
0

>  <fr_prisulfonamd>  (143) 
0

>  <fr_pyridine>  (143) 
1

>  <fr_quatN>  (143) 
1

>  <fr_sulfide>  (143) 
0

>  <fr_sulfonamd>  (143) 
1

>  <fr_sulfone>  (143) 
0

>  <fr_term_acetylene>  (143) 
0

>  <fr_tetrazole>  (143) 
0

>  <fr_thiazole>  (143) 
0

>  <fr_thiocyan>  (143) 
0

>  <fr_thiophene>  (143) 
0

>  <fr_unbrch_alkane>  (143) 
0

>  <fr_urea>  (143) 
0

>  <NP_Likeness>  (143) 
-0.998918

$$$$
CDT
     RDKit          3D

  0  0  0  0  0  0  0  0  0  0999 V3000
M  V30 BEGIN CTAB
M  V30 COUNTS 23 22 0 0 0
M  V30 BEGIN ATOM
M  V30 1 S 17.891000 2.647000 5.559000 0
M  V30 2 O 18.954000 3.597000 -0.304000 0
M  V30 3 O 17.316000 -0.047000 0.184000 0
M  V30 4 O 19.382000 0.628000 0.554000 0 CHG=-1
M  V30 5 N 16.892000 4.336000 -0.865000 0
M  V30 6 N 17.172000 2.980000 0.944000 0
M  V30 7 C 19.652000 2.559000 5.816000 0
M  V30 8 C 17.835000 3.074000 3.811000 0
M  V30 9 C 18.431000 2.040000 2.869000 0
M  V30 10 C 17.736000 3.635000 -0.100000 0
M  V30 11 C 18.136000 0.697000 0.703000 0
M  V30 12 C 17.558000 1.763000 1.645000 0 CFG=2
M  V30 13 H 15.913300 4.335700 -0.659700 0
M  V30 14 H 17.239700 4.860400 -1.642300 0
M  V30 15 H 16.340800 3.409900 1.296600 0
M  V30 16 H 19.838300 2.323700 6.769900 0
M  V30 17 H 20.041600 1.858800 5.217800 0
M  V30 18 H 20.064400 3.445100 5.604600 0
M  V30 19 H 18.335900 3.930400 3.686200 0
M  V30 20 H 16.877300 3.207900 3.556400 0
M  V30 21 H 18.552400 1.184600 3.372500 0
M  V30 22 H 19.320900 2.371600 2.555700 0
M  V30 23 H 16.707900 1.375700 2.001800 0
M  V30 END ATOM
M  V30 BEGIN BOND
M  V30 1 1 1 7
M  V30 2 1 1 8
M  V30 3 2 2 10
M  V30 4 2 3 11
M  V30 5 1 4 11
M  V30 6 1 5 10
M  V30 7 1 6 10
M  V30 8 1 6 12
M  V30 9 1 8 9
M  V30 10 1 9 12
M  V30 11 1 11 12
M  V30 12 1 12 23 CFG=1
M  V30 13 1 5 13
M  V30 14 1 5 14
M  V30 15 1 6 15
M  V30 16 1 7 16
M  V30 17 1 7 17
M  V30 18 1 7 18
M  V30 19 1 8 19
M  V30 20 1 8 20
M  V30 21 1 9 21
M  V30 22 1 9 22
M  V30 END BOND
M  V30 END CTAB
M  END
>  <Ligand_Instance>  (144) 
5N3R_CDT_A_401

>  <Dataset>  (144) 
PDB

>  <PDB_ID>  (144) 
5N3R

>  <Chain>  (144) 
A

>  <Resi>  (144) 
401

>  <Num_Resolved_Atoms>  (144) 
12

>  <Num_H_Atoms_ProtBoundConf>  (144) 
11

>  <Pocket>  (144) 
F

>  <Name>  (144) 
4-METHYLSULFANYL-2-UREIDO-BUTYRIC ACID

>  <Num_Not_Resolved_Atoms>  (144) 
0

>  <ATP_Site>  (144) 
False

>  <Peripheral>  (144) 
True

>  <Standardized_SMILES>  (144) 
[H]N([H])C(=O)N([H])[C@@]([H])(C(=O)[O-])C([H])([H])C([H])([H])SC([H])([H])[H]

>  <2D_Mol_H>  (144) 
<rdkit.Chem.rdchem.Mol object at 0x77059d9f9fc0>

>  <MW>  (144) 
191.232

>  <HBA>  (144) 
4

>  <HBD>  (144) 
2

>  <LogP>  (144) 
-1.4737

>  <NRB>  (144) 
6

>  <TPSA>  (144) 
95.25

>  <Num_Heavy_Atoms>  (144) 
12

>  <Ro5>  (144) 
[True, True, True, True, True, True]

>  <Ro5_Fulfilled>  (144) 
True

>  <Ro3>  (144) 
[True, False, True, True]

>  <Ro3_Fulfilled>  (144) 
True

>  <Fsp3>  (144) 
0.666667

>  <Fsp3_0.42>  (144) 
True

>  <Fsp3_0.45>  (144) 
True

>  <Stereogenic_Carbons>  (144) 
1

>  <C_Atoms>  (144) 
6

>  <FCStereo>  (144) 
0.166667

>  <SPS>  (144) 
145

>  <nSPS>  (144) 
12.083333

>  <PBF>  (144) 
0.726282

>  <PBF_0.6>  (144) 
True

>  <nPBF>  (144) 
0.060523

>  <nPBF_0.016>  (144) 
True

>  <PMI1>  (144) 
440.158925

>  <PMI2>  (144) 
1213.08482

>  <PMI3>  (144) 
1413.897727

>  <NPR1>  (144) 
0.311309

>  <NPR2>  (144) 
0.857972

>  <Sum_NPR>  (144) 
1.169281

>  <Sum_NPR_1.07>  (144) 
True

>  <Sum_NPR_1.2>  (144) 
False

>  <MaxAbsEStateIndex>  (144) 
10.350189

>  <MaxEStateIndex>  (144) 
10.350189

>  <MinAbsEStateIndex>  (144) 
0.325833

>  <MinEStateIndex>  (144) 
-1.302917

>  <qed>  (144) 
0.554053

>  <MolWt>  (144) 
191.232

>  <HeavyAtomMolWt>  (144) 
180.144

>  <ExactMolWt>  (144) 
191.049587

>  <NumValenceElectrons>  (144) 
70

>  <NumRadicalElectrons>  (144) 
0

>  <MaxPartialCharge>  (144) 
0.312197

>  <MinPartialCharge>  (144) 
-0.547896

>  <MaxAbsPartialCharge>  (144) 
0.547896

>  <MinAbsPartialCharge>  (144) 
0.312197

>  <FpDensityMorgan1>  (144) 
1.666667

>  <FpDensityMorgan2>  (144) 
2.25

>  <FpDensityMorgan3>  (144) 
2.583333

>  <BCUT2D_MWHI>  (144) 
32.166363

>  <BCUT2D_MWLOW>  (144) 
10.218289

>  <BCUT2D_CHGHI>  (144) 
2.094833

>  <BCUT2D_CHGLO>  (144) 
-2.168396

>  <BCUT2D_LOGPHI>  (144) 
1.98941

>  <BCUT2D_LOGPLOW>  (144) 
-2.493974

>  <BCUT2D_MRHI>  (144) 
7.980978

>  <BCUT2D_MRLOW>  (144) 
-0.307725

>  <AvgIpc>  (144) 
1.963148

>  <BalabanJ>  (144) 
3.865425

>  <BertzCT>  (144) 
174.176133

>  <Chi0>  (144) 
9.560478

>  <Chi0n>  (144) 
6.701907

>  <Chi0v>  (144) 
7.518404

>  <Chi1>  (144) 
5.574586

>  <Chi1n>  (144) 
3.33357

>  <Chi1v>  (144) 
4.727416

>  <Chi2n>  (144) 
2.161684

>  <Chi2v>  (144) 
3.147283

>  <Chi3n>  (144) 
1.211658

>  <Chi3v>  (144) 
1.855609

>  <Chi4n>  (144) 
0.656369

>  <Chi4v>  (144) 
1.127774

>  <HallKierAlpha>  (144) 
-0.91

>  <Ipc>  (144) 
316.066751

>  <Kappa1>  (144) 
11.09

>  <Kappa2>  (144) 
5.703827

>  <Kappa3>  (144) 
4.837242

>  <LabuteASA>  (144) 
74.694102

>  <PEOE_VSA1>  (144) 
20.951521

>  <PEOE_VSA10>  (144) 
0.0

>  <PEOE_VSA11>  (144) 
0.0

>  <PEOE_VSA12>  (144) 
0.0

>  <PEOE_VSA13>  (144) 
0.0

>  <PEOE_VSA14>  (144) 
6.031115

>  <PEOE_VSA2>  (144) 
0.0

>  <PEOE_VSA3>  (144) 
4.794537

>  <PEOE_VSA4>  (144) 
11.761885

>  <PEOE_VSA5>  (144) 
0.0

>  <PEOE_VSA6>  (144) 
0.0

>  <PEOE_VSA7>  (144) 
18.429444

>  <PEOE_VSA8>  (144) 
0.0

>  <PEOE_VSA9>  (144) 
12.011146

>  <SMR_VSA1>  (144) 
14.695602

>  <SMR_VSA10>  (144) 
23.762305

>  <SMR_VSA2>  (144) 
0.0

>  <SMR_VSA3>  (144) 
5.316789

>  <SMR_VSA4>  (144) 
5.733667

>  <SMR_VSA5>  (144) 
12.462662

>  <SMR_VSA6>  (144) 
12.008623

>  <SMR_VSA7>  (144) 
0.0

>  <SMR_VSA8>  (144) 
0.0

>  <SMR_VSA9>  (144) 
0.0

>  <SlogP_VSA1>  (144) 
16.156983

>  <SlogP_VSA10>  (144) 
4.794537

>  <SlogP_VSA11>  (144) 
0.0

>  <SlogP_VSA12>  (144) 
11.761885

>  <SlogP_VSA2>  (144) 
30.050883

>  <SlogP_VSA3>  (144) 
4.794537

>  <SlogP_VSA4>  (144) 
0.0

>  <SlogP_VSA5>  (144) 
6.420822

>  <SlogP_VSA6>  (144) 
0.0

>  <SlogP_VSA7>  (144) 
0.0

>  <SlogP_VSA8>  (144) 
0.0

>  <SlogP_VSA9>  (144) 
0.0

>  <EState_VSA1>  (144) 
18.042261

>  <EState_VSA10>  (144) 
14.695602

>  <EState_VSA11>  (144) 
0.0

>  <EState_VSA2>  (144) 
0.0

>  <EState_VSA3>  (144) 
12.173675

>  <EState_VSA4>  (144) 
0.0

>  <EState_VSA5>  (144) 
11.761885

>  <EState_VSA6>  (144) 
0.0

>  <EState_VSA7>  (144) 
6.255769

>  <EState_VSA8>  (144) 
5.316789

>  <EState_VSA9>  (144) 
5.733667

>  <VSA_EState1>  (144) 
0.0

>  <VSA_EState10>  (144) 
1.49122

>  <VSA_EState2>  (144) 
20.640701

>  <VSA_EState3>  (144) 
12.427782

>  <VSA_EState4>  (144) 
4.754912

>  <VSA_EState5>  (144) 
-0.665093

>  <VSA_EState6>  (144) 
-1.81921

>  <VSA_EState7>  (144) 
2.169689

>  <VSA_EState8>  (144) 
0.0

>  <VSA_EState9>  (144) 
0.0

>  <FractionCSP3>  (144) 
0.666667

>  <HeavyAtomCount>  (144) 
12

>  <NHOHCount>  (144) 
3

>  <NOCount>  (144) 
5

>  <NumAliphaticCarbocycles>  (144) 
0

>  <NumAliphaticHeterocycles>  (144) 
0

>  <NumAliphaticRings>  (144) 
0

>  <NumAromaticCarbocycles>  (144) 
0

>  <NumAromaticHeterocycles>  (144) 
0

>  <NumAromaticRings>  (144) 
0

>  <NumHAcceptors>  (144) 
4

>  <NumHDonors>  (144) 
2

>  <NumHeteroatoms>  (144) 
6

>  <NumRotatableBonds>  (144) 
5

>  <NumSaturatedCarbocycles>  (144) 
0

>  <NumSaturatedHeterocycles>  (144) 
0

>  <NumSaturatedRings>  (144) 
0

>  <RingCount>  (144) 
0

>  <MolLogP>  (144) 
-1.4737

>  <MolMR>  (144) 
44.5131

>  <fr_Al_COO>  (144) 
1

>  <fr_Al_OH>  (144) 
0

>  <fr_Al_OH_noTert>  (144) 
0

>  <fr_ArN>  (144) 
0

>  <fr_Ar_COO>  (144) 
0

>  <fr_Ar_N>  (144) 
0

>  <fr_Ar_NH>  (144) 
0

>  <fr_Ar_OH>  (144) 
0

>  <fr_COO>  (144) 
1

>  <fr_COO2>  (144) 
1

>  <fr_C_O>  (144) 
2

>  <fr_C_O_noCOO>  (144) 
2

>  <fr_C_S>  (144) 
0

>  <fr_HOCCN>  (144) 
0

>  <fr_Imine>  (144) 
0

>  <fr_NH0>  (144) 
0

>  <fr_NH1>  (144) 
1

>  <fr_NH2>  (144) 
1

>  <fr_N_O>  (144) 
0

>  <fr_Ndealkylation1>  (144) 
0

>  <fr_Ndealkylation2>  (144) 
0

>  <fr_Nhpyrrole>  (144) 
0

>  <fr_SH>  (144) 
0

>  <fr_aldehyde>  (144) 
0

>  <fr_alkyl_carbamate>  (144) 
0

>  <fr_alkyl_halide>  (144) 
0

>  <fr_allylic_oxid>  (144) 
0

>  <fr_amide>  (144) 
2

>  <fr_amidine>  (144) 
0

>  <fr_aniline>  (144) 
0

>  <fr_aryl_methyl>  (144) 
0

>  <fr_azide>  (144) 
0

>  <fr_azo>  (144) 
0

>  <fr_barbitur>  (144) 
0

>  <fr_benzene>  (144) 
0

>  <fr_benzodiazepine>  (144) 
0

>  <fr_bicyclic>  (144) 
0

>  <fr_diazo>  (144) 
0

>  <fr_dihydropyridine>  (144) 
0

>  <fr_epoxide>  (144) 
0

>  <fr_ester>  (144) 
0

>  <fr_ether>  (144) 
0

>  <fr_furan>  (144) 
0

>  <fr_guanido>  (144) 
0

>  <fr_halogen>  (144) 
0

>  <fr_hdrzine>  (144) 
0

>  <fr_hdrzone>  (144) 
0

>  <fr_imidazole>  (144) 
0

>  <fr_imide>  (144) 
0

>  <fr_isocyan>  (144) 
0

>  <fr_isothiocyan>  (144) 
0

>  <fr_ketone>  (144) 
0

>  <fr_ketone_Topliss>  (144) 
0

>  <fr_lactam>  (144) 
0

>  <fr_lactone>  (144) 
0

>  <fr_methoxy>  (144) 
0

>  <fr_morpholine>  (144) 
0

>  <fr_nitrile>  (144) 
0

>  <fr_nitro>  (144) 
0

>  <fr_nitro_arom>  (144) 
0

>  <fr_nitro_arom_nonortho>  (144) 
0

>  <fr_nitroso>  (144) 
0

>  <fr_oxazole>  (144) 
0

>  <fr_oxime>  (144) 
0

>  <fr_para_hydroxylation>  (144) 
0

>  <fr_phenol>  (144) 
0

>  <fr_phenol_noOrthoHbond>  (144) 
0

>  <fr_phos_acid>  (144) 
0

>  <fr_phos_ester>  (144) 
0

>  <fr_piperdine>  (144) 
0

>  <fr_piperzine>  (144) 
0

>  <fr_priamide>  (144) 
1

>  <fr_prisulfonamd>  (144) 
0

>  <fr_pyridine>  (144) 
0

>  <fr_quatN>  (144) 
0

>  <fr_sulfide>  (144) 
1

>  <fr_sulfonamd>  (144) 
0

>  <fr_sulfone>  (144) 
0

>  <fr_term_acetylene>  (144) 
0

>  <fr_tetrazole>  (144) 
0

>  <fr_thiazole>  (144) 
0

>  <fr_thiocyan>  (144) 
0

>  <fr_thiophene>  (144) 
0

>  <fr_unbrch_alkane>  (144) 
0

>  <fr_urea>  (144) 
1

>  <NP_Likeness>  (144) 
-1.308181

$$$$
E3Z
     RDKit          3D

  0  0  0  0  0  0  0  0  0  0999 V3000
M  V30 BEGIN CTAB
M  V30 COUNTS 44 46 0 0 0
M  V30 BEGIN ATOM
M  V30 1 Cl -15.277000 7.004000 -17.176000 0
M  V30 2 O -6.563000 4.378000 -18.554000 0
M  V30 3 N -17.015000 3.585000 -18.180000 0
M  V30 4 N -14.832000 3.077000 -17.631000 0
M  V30 5 N -16.384000 1.388000 -18.347000 0
M  V30 6 N -8.788000 4.143000 -18.074000 0
M  V30 7 N -13.338000 4.830000 -16.932000 0
M  V30 8 C -5.490000 2.952000 -16.500000 0
M  V30 9 C -16.808000 4.929000 -17.917000 0
M  V30 10 C -7.012000 3.061000 -16.649000 0
M  V30 11 C -14.178000 -2.139000 -17.815000 0
M  V30 12 C -15.550000 -2.166000 -18.031000 0
M  V30 13 C -13.523000 -0.912000 -17.779000 0
M  V30 14 C -11.160000 1.974000 -16.199000 0
M  V30 15 C -16.251000 -0.972000 -18.209000 0
M  V30 16 C -14.233000 0.275000 -17.947000 0
M  V30 17 C -9.977000 2.406000 -16.797000 0
M  V30 18 C -12.297000 2.778000 -16.239000 0
M  V30 19 C -11.050000 4.437000 -17.467000 0
M  V30 20 C -16.046000 2.671000 -18.040000 0
M  V30 21 C -7.458000 3.900000 -17.843000 0
M  V30 22 C -15.548000 5.328000 -17.493000 0
M  V30 23 C -14.550000 4.370000 -17.340000 0
M  V30 24 C -15.613000 0.270000 -18.162000 0
M  V30 25 C -9.890000 3.656000 -17.422000 0
M  V30 26 C -12.257000 4.019000 -16.883000 0
M  V30 27 H -17.288600 1.246900 -18.749200 0
M  V30 28 H -8.981900 4.768000 -18.830100 0
M  V30 29 H -13.243600 5.788300 -16.662400 0
M  V30 30 H -5.272600 2.391000 -15.701300 0
M  V30 31 H -5.104300 2.528600 -17.319700 0
M  V30 32 H -5.100400 3.865400 -16.381800 0
M  V30 33 H -17.546400 5.593900 -18.029500 0
M  V30 34 H -7.380800 3.476000 -15.817300 0
M  V30 35 H -7.384800 2.139200 -16.755200 0
M  V30 36 H -13.668200 -2.989700 -17.687100 0
M  V30 37 H -16.035100 -3.040000 -18.059000 0
M  V30 38 H -12.534400 -0.881800 -17.631300 0
M  V30 39 H -11.192400 1.085800 -15.740700 0
M  V30 40 H -17.236600 -1.006600 -18.374600 0
M  V30 41 H -13.745100 1.147300 -17.913000 0
M  V30 42 H -9.173700 1.810700 -16.779200 0
M  V30 43 H -13.143400 2.467300 -15.806500 0
M  V30 44 H -11.018700 5.322500 -17.930500 0
M  V30 END ATOM
M  V30 BEGIN BOND
M  V30 1 1 1 22
M  V30 2 2 2 21
M  V30 3 2 3 9
M  V30 4 1 3 20
M  V30 5 2 4 20
M  V30 6 1 4 23
M  V30 7 1 5 20
M  V30 8 1 5 24
M  V30 9 1 6 21
M  V30 10 1 6 25
M  V30 11 1 7 23
M  V30 12 1 7 26
M  V30 13 1 8 10
M  V30 14 1 9 22
M  V30 15 1 10 21
M  V30 16 2 11 12
M  V30 17 1 11 13
M  V30 18 1 12 15
M  V30 19 2 13 16
M  V30 20 2 14 17
M  V30 21 1 14 18
M  V30 22 2 15 24
M  V30 23 1 16 24
M  V30 24 1 17 25
M  V30 25 2 18 26
M  V30 26 2 19 25
M  V30 27 1 19 26
M  V30 28 2 22 23
M  V30 29 1 5 27
M  V30 30 1 6 28
M  V30 31 1 7 29
M  V30 32 1 8 30
M  V30 33 1 8 31
M  V30 34 1 8 32
M  V30 35 1 9 33
M  V30 36 1 10 34
M  V30 37 1 10 35
M  V30 38 1 11 36
M  V30 39 1 12 37
M  V30 40 1 13 38
M  V30 41 1 14 39
M  V30 42 1 15 40
M  V30 43 1 16 41
M  V30 44 1 17 42
M  V30 45 1 18 43
M  V30 46 1 19 44
M  V30 END BOND
M  V30 END CTAB
M  END
>  <Ligand_Instance>  (145) 
6FRX_E3Z_A_401

>  <Dataset>  (145) 
PDB

>  <PDB_ID>  (145) 
6FRX

>  <Chain>  (145) 
A

>  <Resi>  (145) 
401

>  <Num_Resolved_Atoms>  (145) 
26

>  <Num_H_Atoms_ProtBoundConf>  (145) 
18

>  <Pocket>  (145) 
A

>  <Name>  (145) 
~{N}-[3-[(5-chloranyl-2-phenylazanyl-pyrimidin-4-yl)amino]phenyl]prop-2-enamide

>  <Num_Not_Resolved_Atoms>  (145) 
0

>  <ATP_Site>  (145) 
True

>  <Peripheral>  (145) 
False

>  <Standardized_SMILES>  (145) 
[H]C1=NC(N([H])C2=C([H])C([H])=C([H])C([H])=C2[H])=NC(N([H])C2=C([H])C(N([H])C(=O)C([H])([H])C([H])([H])[H])=C([H])C([H])=C2[H])=C1Cl

>  <2D_Mol_H>  (145) 
<rdkit.Chem.rdchem.Mol object at 0x77059d9fa0a0>

>  <MW>  (145) 
367.84

>  <HBA>  (145) 
5

>  <HBD>  (145) 
3

>  <LogP>  (145) 
4.9657

>  <NRB>  (145) 
7

>  <TPSA>  (145) 
78.94

>  <Num_Heavy_Atoms>  (145) 
26

>  <Ro5>  (145) 
[True, True, True, True, True, True]

>  <Ro5_Fulfilled>  (145) 
True

>  <Ro3>  (145) 
[False, False, True, False]

>  <Ro3_Fulfilled>  (145) 
False

>  <Fsp3>  (145) 
0.105263

>  <Fsp3_0.42>  (145) 
False

>  <Fsp3_0.45>  (145) 
False

>  <Stereogenic_Carbons>  (145) 
0

>  <C_Atoms>  (145) 
19

>  <FCStereo>  (145) 
0.0

>  <SPS>  (145) 
266

>  <nSPS>  (145) 
10.230769

>  <PBF>  (145) 
0.526821

>  <PBF_0.6>  (145) 
False

>  <nPBF>  (145) 
0.020262

>  <nPBF_0.016>  (145) 
True

>  <PMI1>  (145) 
2310.293643

>  <PMI2>  (145) 
4622.93462

>  <PMI3>  (145) 
6656.152952

>  <NPR1>  (145) 
0.347091

>  <NPR2>  (145) 
0.694536

>  <Sum_NPR>  (145) 
1.041627

>  <Sum_NPR_1.07>  (145) 
False

>  <Sum_NPR_1.2>  (145) 
False

>  <MaxAbsEStateIndex>  (145) 
11.541673

>  <MaxEStateIndex>  (145) 
11.541673

>  <MinAbsEStateIndex>  (145) 
0.044846

>  <MinEStateIndex>  (145) 
-0.044846

>  <qed>  (145) 
0.573124

>  <MolWt>  (145) 
367.84

>  <HeavyAtomMolWt>  (145) 
349.696

>  <ExactMolWt>  (145) 
367.119988

>  <NumValenceElectrons>  (145) 
132

>  <NumRadicalElectrons>  (145) 
0

>  <MaxPartialCharge>  (145) 
0.228736

>  <MinPartialCharge>  (145) 
-0.338756

>  <MaxAbsPartialCharge>  (145) 
0.338756

>  <MinAbsPartialCharge>  (145) 
0.228736

>  <FpDensityMorgan1>  (145) 
1.0

>  <FpDensityMorgan2>  (145) 
1.730769

>  <FpDensityMorgan3>  (145) 
2.5

>  <BCUT2D_MWHI>  (145) 
35.495692

>  <BCUT2D_MWLOW>  (145) 
10.238184

>  <BCUT2D_CHGHI>  (145) 
2.073454

>  <BCUT2D_CHGLO>  (145) 
-2.112158

>  <BCUT2D_LOGPHI>  (145) 
2.257684

>  <BCUT2D_LOGPLOW>  (145) 
-2.090771

>  <BCUT2D_MRHI>  (145) 
6.324816

>  <BCUT2D_MRLOW>  (145) 
-0.115421

>  <AvgIpc>  (145) 
2.653683

>  <BalabanJ>  (145) 
1.778297

>  <BertzCT>  (145) 
901.441146

>  <Chi0>  (145) 
18.35516

>  <Chi0n>  (145) 
14.161249

>  <Chi0v>  (145) 
14.917178

>  <Chi1>  (145) 
12.635362

>  <Chi1n>  (145) 
8.153512

>  <Chi1v>  (145) 
8.531476

>  <Chi2n>  (145) 
5.488713

>  <Chi2v>  (145) 
5.895913

>  <Chi3n>  (145) 
3.504218

>  <Chi3v>  (145) 
3.780814

>  <Chi4n>  (145) 
2.2264

>  <Chi4v>  (145) 
2.364698

>  <HallKierAlpha>  (145) 
-3.12

>  <Ipc>  (145) 
903695.739129

>  <Kappa1>  (145) 
17.694973

>  <Kappa2>  (145) 
8.310392

>  <Kappa3>  (145) 
4.704895

>  <LabuteASA>  (145) 
156.194089

>  <PEOE_VSA1>  (145) 
15.950366

>  <PEOE_VSA10>  (145) 
5.022633

>  <PEOE_VSA11>  (145) 
5.817863

>  <PEOE_VSA12>  (145) 
11.855519

>  <PEOE_VSA13>  (145) 
0.0

>  <PEOE_VSA14>  (145) 
0.0

>  <PEOE_VSA2>  (145) 
4.794537

>  <PEOE_VSA3>  (145) 
4.983979

>  <PEOE_VSA4>  (145) 
4.983979

>  <PEOE_VSA5>  (145) 
0.0

>  <PEOE_VSA6>  (145) 
42.790145

>  <PEOE_VSA7>  (145) 
30.331835

>  <PEOE_VSA8>  (145) 
23.48298

>  <PEOE_VSA9>  (145) 
6.196844

>  <SMR_VSA1>  (145) 
4.794537

>  <SMR_VSA10>  (145) 
46.336481

>  <SMR_VSA2>  (145) 
0.0

>  <SMR_VSA3>  (145) 
9.967957

>  <SMR_VSA4>  (145) 
0.0

>  <SMR_VSA5>  (145) 
13.344559

>  <SMR_VSA6>  (145) 
15.950366

>  <SMR_VSA7>  (145) 
65.816781

>  <SMR_VSA8>  (145) 
0.0

>  <SMR_VSA9>  (145) 
0.0

>  <SlogP_VSA1>  (145) 
15.950366

>  <SlogP_VSA10>  (145) 
28.828361

>  <SlogP_VSA11>  (145) 
0.0

>  <SlogP_VSA12>  (145) 
11.60094

>  <SlogP_VSA2>  (145) 
15.875137

>  <SlogP_VSA3>  (145) 
4.794537

>  <SlogP_VSA4>  (145) 
0.0

>  <SlogP_VSA5>  (145) 
13.344559

>  <SlogP_VSA6>  (145) 
60.794147

>  <SlogP_VSA7>  (145) 
5.022633

>  <SlogP_VSA8>  (145) 
0.0

>  <SlogP_VSA9>  (145) 
0.0

>  <EState_VSA1>  (145) 
0.0

>  <EState_VSA10>  (145) 
4.794537

>  <EState_VSA11>  (145) 
0.0

>  <EState_VSA2>  (145) 
5.90718

>  <EState_VSA3>  (145) 
28.897043

>  <EState_VSA4>  (145) 
11.374773

>  <EState_VSA5>  (145) 
6.196844

>  <EState_VSA6>  (145) 
6.923737

>  <EState_VSA7>  (145) 
54.597304

>  <EState_VSA8>  (145) 
25.918323

>  <EState_VSA9>  (145) 
11.60094

>  <VSA_EState1>  (145) 
0.0

>  <VSA_EState10>  (145) 
6.210645

>  <VSA_EState2>  (145) 
20.151351

>  <VSA_EState3>  (145) 
9.494615

>  <VSA_EState4>  (145) 
2.337847

>  <VSA_EState5>  (145) 
0.855715

>  <VSA_EState6>  (145) 
16.969525

>  <VSA_EState7>  (145) 
1.953157

>  <VSA_EState8>  (145) 
1.804922

>  <VSA_EState9>  (145) 
0.0

>  <FractionCSP3>  (145) 
0.105263

>  <HeavyAtomCount>  (145) 
26

>  <NHOHCount>  (145) 
3

>  <NOCount>  (145) 
6

>  <NumAliphaticCarbocycles>  (145) 
0

>  <NumAliphaticHeterocycles>  (145) 
0

>  <NumAliphaticRings>  (145) 
0

>  <NumAromaticCarbocycles>  (145) 
2

>  <NumAromaticHeterocycles>  (145) 
1

>  <NumAromaticRings>  (145) 
3

>  <NumHAcceptors>  (145) 
5

>  <NumHDonors>  (145) 
3

>  <NumHeteroatoms>  (145) 
7

>  <NumRotatableBonds>  (145) 
6

>  <NumSaturatedCarbocycles>  (145) 
0

>  <NumSaturatedHeterocycles>  (145) 
0

>  <NumSaturatedRings>  (145) 
0

>  <RingCount>  (145) 
3

>  <MolLogP>  (145) 
4.9657

>  <MolMR>  (145) 
105.4121

>  <fr_Al_COO>  (145) 
0

>  <fr_Al_OH>  (145) 
0

>  <fr_Al_OH_noTert>  (145) 
0

>  <fr_ArN>  (145) 
0

>  <fr_Ar_COO>  (145) 
0

>  <fr_Ar_N>  (145) 
2

>  <fr_Ar_NH>  (145) 
0

>  <fr_Ar_OH>  (145) 
0

>  <fr_COO>  (145) 
0

>  <fr_COO2>  (145) 
0

>  <fr_C_O>  (145) 
1

>  <fr_C_O_noCOO>  (145) 
1

>  <fr_C_S>  (145) 
0

>  <fr_HOCCN>  (145) 
0

>  <fr_Imine>  (145) 
0

>  <fr_NH0>  (145) 
2

>  <fr_NH1>  (145) 
3

>  <fr_NH2>  (145) 
0

>  <fr_N_O>  (145) 
0

>  <fr_Ndealkylation1>  (145) 
0

>  <fr_Ndealkylation2>  (145) 
0

>  <fr_Nhpyrrole>  (145) 
0

>  <fr_SH>  (145) 
0

>  <fr_aldehyde>  (145) 
0

>  <fr_alkyl_carbamate>  (145) 
0

>  <fr_alkyl_halide>  (145) 
0

>  <fr_allylic_oxid>  (145) 
0

>  <fr_amide>  (145) 
1

>  <fr_amidine>  (145) 
0

>  <fr_aniline>  (145) 
5

>  <fr_aryl_methyl>  (145) 
0

>  <fr_azide>  (145) 
0

>  <fr_azo>  (145) 
0

>  <fr_barbitur>  (145) 
0

>  <fr_benzene>  (145) 
2

>  <fr_benzodiazepine>  (145) 
0

>  <fr_bicyclic>  (145) 
0

>  <fr_diazo>  (145) 
0

>  <fr_dihydropyridine>  (145) 
0

>  <fr_epoxide>  (145) 
0

>  <fr_ester>  (145) 
0

>  <fr_ether>  (145) 
0

>  <fr_furan>  (145) 
0

>  <fr_guanido>  (145) 
0

>  <fr_halogen>  (145) 
1

>  <fr_hdrzine>  (145) 
0

>  <fr_hdrzone>  (145) 
0

>  <fr_imidazole>  (145) 
0

>  <fr_imide>  (145) 
0

>  <fr_isocyan>  (145) 
0

>  <fr_isothiocyan>  (145) 
0

>  <fr_ketone>  (145) 
0

>  <fr_ketone_Topliss>  (145) 
0

>  <fr_lactam>  (145) 
0

>  <fr_lactone>  (145) 
0

>  <fr_methoxy>  (145) 
0

>  <fr_morpholine>  (145) 
0

>  <fr_nitrile>  (145) 
0

>  <fr_nitro>  (145) 
0

>  <fr_nitro_arom>  (145) 
0

>  <fr_nitro_arom_nonortho>  (145) 
0

>  <fr_nitroso>  (145) 
0

>  <fr_oxazole>  (145) 
0

>  <fr_oxime>  (145) 
0

>  <fr_para_hydroxylation>  (145) 
1

>  <fr_phenol>  (145) 
0

>  <fr_phenol_noOrthoHbond>  (145) 
0

>  <fr_phos_acid>  (145) 
0

>  <fr_phos_ester>  (145) 
0

>  <fr_piperdine>  (145) 
0

>  <fr_piperzine>  (145) 
0

>  <fr_priamide>  (145) 
0

>  <fr_prisulfonamd>  (145) 
0

>  <fr_pyridine>  (145) 
0

>  <fr_quatN>  (145) 
0

>  <fr_sulfide>  (145) 
0

>  <fr_sulfonamd>  (145) 
0

>  <fr_sulfone>  (145) 
0

>  <fr_term_acetylene>  (145) 
0

>  <fr_tetrazole>  (145) 
0

>  <fr_thiazole>  (145) 
0

>  <fr_thiocyan>  (145) 
0

>  <fr_thiophene>  (145) 
0

>  <fr_unbrch_alkane>  (145) 
0

>  <fr_urea>  (145) 
0

>  <NP_Likeness>  (145) 
-1.656229

$$$$
E5E
     RDKit          3D

  0  0  0  0  0  0  0  0  0  0999 V3000
M  V30 BEGIN CTAB
M  V30 COUNTS 24 24 0 0 0
M  V30 BEGIN ATOM
M  V30 1 O -15.530000 2.673000 -30.150000 0
M  V30 2 O -9.347000 3.272000 -28.421000 0
M  V30 3 O -10.557000 5.647000 -28.671000 0
M  V30 4 N -17.014000 3.617000 -27.765000 0 CHG=1
M  V30 5 C -15.568000 3.258000 -27.840000 0
M  V30 6 C -11.431000 2.143000 -28.913000 0
M  V30 7 C -12.797000 2.224000 -29.120000 0
M  V30 8 C -12.682000 4.618000 -29.051000 0
M  V30 9 C -14.961000 3.578000 -29.204000 0 CFG=1
M  V30 10 C -10.683000 3.302000 -28.749000 0
M  V30 11 C -11.319000 4.546000 -28.833000 0
M  V30 12 C -13.445000 3.463000 -29.169000 0
M  V30 13 H -14.871300 2.498100 -30.881800 0
M  V30 14 H -8.839900 4.126800 -28.311000 0
M  V30 15 H -9.573400 5.555800 -28.515100 0
M  V30 16 H -17.367000 3.390500 -26.857200 0
M  V30 17 H -17.123100 4.597200 -27.930000 0
M  V30 18 H -15.470600 2.278000 -27.666700 0
M  V30 19 H -15.072500 3.771200 -27.139200 0
M  V30 20 H -10.982300 1.249900 -28.881500 0
M  V30 21 H -13.328500 1.384900 -29.236200 0
M  V30 22 H -13.124100 5.511900 -29.124600 0
M  V30 23 H -15.209700 4.512500 -29.458700 0
M  V30 24 H -17.521200 3.103900 -28.457500 0
M  V30 END ATOM
M  V30 BEGIN BOND
M  V30 1 1 1 9
M  V30 2 1 2 10
M  V30 3 1 3 11
M  V30 4 1 4 5
M  V30 5 1 5 9
M  V30 6 2 6 7
M  V30 7 1 6 10
M  V30 8 1 7 12
M  V30 9 1 8 11
M  V30 10 2 8 12
M  V30 11 1 9 12
M  V30 12 2 10 11
M  V30 13 1 1 13
M  V30 14 1 2 14
M  V30 15 1 3 15
M  V30 16 1 4 16
M  V30 17 1 4 17
M  V30 18 1 5 18
M  V30 19 1 5 19
M  V30 20 1 6 20
M  V30 21 1 7 21
M  V30 22 1 8 22
M  V30 23 1 9 23 CFG=3
M  V30 24 1 4 24
M  V30 END BOND
M  V30 END CTAB
M  END
>  <Ligand_Instance>  (146) 
5N3L_E5E_A_403

>  <Dataset>  (146) 
PDB

>  <PDB_ID>  (146) 
5N3L

>  <Chain>  (146) 
A

>  <Resi>  (146) 
403

>  <Num_Resolved_Atoms>  (146) 
12

>  <Num_H_Atoms_ProtBoundConf>  (146) 
12

>  <Pocket>  (146) 
A

>  <Name>  (146) 
Noradrenaline

>  <Num_Not_Resolved_Atoms>  (146) 
0

>  <ATP_Site>  (146) 
True

>  <Peripheral>  (146) 
False

>  <Standardized_SMILES>  (146) 
[H]OC1=C([H])C([H])=C([C@@]([H])(O[H])C([H])([H])[N+]([H])([H])[H])C([H])=C1O[H]

>  <2D_Mol_H>  (146) 
<rdkit.Chem.rdchem.Mol object at 0x77059d9fa180>

>  <MW>  (146) 
170.188

>  <HBA>  (146) 
3

>  <HBD>  (146) 
4

>  <LogP>  (146) 
-0.6269

>  <NRB>  (146) 
6

>  <TPSA>  (146) 
88.33

>  <Num_Heavy_Atoms>  (146) 
12

>  <Ro5>  (146) 
[True, True, True, True, True, True]

>  <Ro5_Fulfilled>  (146) 
True

>  <Ro3>  (146) 
[True, True, False, True]

>  <Ro3_Fulfilled>  (146) 
True

>  <Fsp3>  (146) 
0.25

>  <Fsp3_0.42>  (146) 
False

>  <Fsp3_0.45>  (146) 
False

>  <Stereogenic_Carbons>  (146) 
1

>  <C_Atoms>  (146) 
8

>  <FCStereo>  (146) 
0.125

>  <SPS>  (146) 
154

>  <nSPS>  (146) 
12.833333

>  <PBF>  (146) 
0.639216

>  <PBF_0.6>  (146) 
True

>  <nPBF>  (146) 
0.053268

>  <nPBF_0.016>  (146) 
True

>  <PMI1>  (146) 
245.511967

>  <PMI2>  (146) 
1086.71524

>  <PMI3>  (146) 
1190.610591

>  <NPR1>  (146) 
0.206207

>  <NPR2>  (146) 
0.912738

>  <Sum_NPR>  (146) 
1.118945

>  <Sum_NPR_1.07>  (146) 
True

>  <Sum_NPR_1.2>  (146) 
False

>  <MaxAbsEStateIndex>  (146) 
9.289352

>  <MaxEStateIndex>  (146) 
9.289352

>  <MinAbsEStateIndex>  (146) 
0.185174

>  <MinEStateIndex>  (146) 
-0.683796

>  <qed>  (146) 
0.445603

>  <MolWt>  (146) 
170.188

>  <HeavyAtomMolWt>  (146) 
158.092

>  <ExactMolWt>  (146) 
170.08117

>  <NumValenceElectrons>  (146) 
66

>  <NumRadicalElectrons>  (146) 
0

>  <MaxPartialCharge>  (146) 
0.157265

>  <MinPartialCharge>  (146) 
-0.50426

>  <MaxAbsPartialCharge>  (146) 
0.50426

>  <MinAbsPartialCharge>  (146) 
0.157265

>  <FpDensityMorgan1>  (146) 
1.25

>  <FpDensityMorgan2>  (146) 
1.916667

>  <FpDensityMorgan3>  (146) 
2.416667

>  <BCUT2D_MWHI>  (146) 
16.303568

>  <BCUT2D_MWLOW>  (146) 
10.098342

>  <BCUT2D_CHGHI>  (146) 
2.08465

>  <BCUT2D_CHGLO>  (146) 
-2.061068

>  <BCUT2D_LOGPHI>  (146) 
2.265814

>  <BCUT2D_LOGPLOW>  (146) 
-2.524362

>  <BCUT2D_MRHI>  (146) 
5.406254

>  <BCUT2D_MRLOW>  (146) 
-0.384658

>  <AvgIpc>  (146) 
2.082629

>  <BalabanJ>  (146) 
2.96254

>  <BertzCT>  (146) 
275.005525

>  <Chi0>  (146) 
9.137828

>  <Chi0n>  (146) 
6.565255

>  <Chi0v>  (146) 
6.565255

>  <Chi1>  (146) 
5.647066

>  <Chi1n>  (146) 
3.64037

>  <Chi1v>  (146) 
3.64037

>  <Chi2n>  (146) 
2.552625

>  <Chi2v>  (146) 
2.552625

>  <Chi3n>  (146) 
1.657681

>  <Chi3v>  (146) 
1.657681

>  <Chi4n>  (146) 
0.914397

>  <Chi4v>  (146) 
0.914397

>  <HallKierAlpha>  (146) 
-1.26

>  <Ipc>  (146) 
497.748409

>  <Kappa1>  (146) 
8.83311

>  <Kappa2>  (146) 
3.424419

>  <Kappa3>  (146) 
1.663743

>  <LabuteASA>  (146) 
69.883879

>  <PEOE_VSA1>  (146) 
21.05325

>  <PEOE_VSA10>  (146) 
12.648723

>  <PEOE_VSA11>  (146) 
11.499024

>  <PEOE_VSA12>  (146) 
0.0

>  <PEOE_VSA13>  (146) 
0.0

>  <PEOE_VSA14>  (146) 
0.0

>  <PEOE_VSA2>  (146) 
0.0

>  <PEOE_VSA3>  (146) 
0.0

>  <PEOE_VSA4>  (146) 
0.0

>  <PEOE_VSA5>  (146) 
0.0

>  <PEOE_VSA6>  (146) 
6.066367

>  <PEOE_VSA7>  (146) 
17.696186

>  <PEOE_VSA8>  (146) 
0.0

>  <PEOE_VSA9>  (146) 
0.0

>  <SMR_VSA1>  (146) 
21.05325

>  <SMR_VSA10>  (146) 
0.0

>  <SMR_VSA2>  (146) 
0.0

>  <SMR_VSA3>  (146) 
0.0

>  <SMR_VSA4>  (146) 
0.0

>  <SMR_VSA5>  (146) 
6.103966

>  <SMR_VSA6>  (146) 
6.544756

>  <SMR_VSA7>  (146) 
23.762553

>  <SMR_VSA8>  (146) 
0.0

>  <SMR_VSA9>  (146) 
11.499024

>  <SlogP_VSA1>  (146) 
5.733667

>  <SlogP_VSA10>  (146) 
0.0

>  <SlogP_VSA11>  (146) 
11.499024

>  <SlogP_VSA12>  (146) 
0.0

>  <SlogP_VSA2>  (146) 
21.864339

>  <SlogP_VSA3>  (146) 
0.0

>  <SlogP_VSA4>  (146) 
0.0

>  <SlogP_VSA5>  (146) 
11.667418

>  <SlogP_VSA6>  (146) 
18.199101

>  <SlogP_VSA7>  (146) 
0.0

>  <SlogP_VSA8>  (146) 
0.0

>  <SlogP_VSA9>  (146) 
0.0

>  <EState_VSA1>  (146) 
6.103966

>  <EState_VSA10>  (146) 
5.106527

>  <EState_VSA11>  (146) 
0.0

>  <EState_VSA2>  (146) 
11.499024

>  <EState_VSA3>  (146) 
12.108208

>  <EState_VSA4>  (146) 
0.0

>  <EState_VSA5>  (146) 
12.132734

>  <EState_VSA6>  (146) 
6.066367

>  <EState_VSA7>  (146) 
0.0

>  <EState_VSA8>  (146) 
5.733667

>  <EState_VSA9>  (146) 
10.213055

>  <VSA_EState1>  (146) 
0.0

>  <VSA_EState10>  (146) 
0.0

>  <VSA_EState2>  (146) 
0.0

>  <VSA_EState3>  (146) 
27.30327

>  <VSA_EState4>  (146) 
4.075778

>  <VSA_EState5>  (146) 
-0.407396

>  <VSA_EState6>  (146) 
4.207963

>  <VSA_EState7>  (146) 
-0.683796

>  <VSA_EState8>  (146) 
0.337515

>  <VSA_EState9>  (146) 
0.0

>  <FractionCSP3>  (146) 
0.25

>  <HeavyAtomCount>  (146) 
12

>  <NHOHCount>  (146) 
6

>  <NOCount>  (146) 
4

>  <NumAliphaticCarbocycles>  (146) 
0

>  <NumAliphaticHeterocycles>  (146) 
0

>  <NumAliphaticRings>  (146) 
0

>  <NumAromaticCarbocycles>  (146) 
1

>  <NumAromaticHeterocycles>  (146) 
0

>  <NumAromaticRings>  (146) 
1

>  <NumHAcceptors>  (146) 
3

>  <NumHDonors>  (146) 
4

>  <NumHeteroatoms>  (146) 
4

>  <NumRotatableBonds>  (146) 
2

>  <NumSaturatedCarbocycles>  (146) 
0

>  <NumSaturatedHeterocycles>  (146) 
0

>  <NumSaturatedRings>  (146) 
0

>  <RingCount>  (146) 
1

>  <MolLogP>  (146) 
-0.6269

>  <MolMR>  (146) 
42.4865

>  <fr_Al_COO>  (146) 
0

>  <fr_Al_OH>  (146) 
1

>  <fr_Al_OH_noTert>  (146) 
1

>  <fr_ArN>  (146) 
0

>  <fr_Ar_COO>  (146) 
0

>  <fr_Ar_N>  (146) 
0

>  <fr_Ar_NH>  (146) 
0

>  <fr_Ar_OH>  (146) 
2

>  <fr_COO>  (146) 
0

>  <fr_COO2>  (146) 
0

>  <fr_C_O>  (146) 
0

>  <fr_C_O_noCOO>  (146) 
0

>  <fr_C_S>  (146) 
0

>  <fr_HOCCN>  (146) 
0

>  <fr_Imine>  (146) 
0

>  <fr_NH0>  (146) 
0

>  <fr_NH1>  (146) 
0

>  <fr_NH2>  (146) 
0

>  <fr_N_O>  (146) 
0

>  <fr_Ndealkylation1>  (146) 
0

>  <fr_Ndealkylation2>  (146) 
0

>  <fr_Nhpyrrole>  (146) 
0

>  <fr_SH>  (146) 
0

>  <fr_aldehyde>  (146) 
0

>  <fr_alkyl_carbamate>  (146) 
0

>  <fr_alkyl_halide>  (146) 
0

>  <fr_allylic_oxid>  (146) 
0

>  <fr_amide>  (146) 
0

>  <fr_amidine>  (146) 
0

>  <fr_aniline>  (146) 
0

>  <fr_aryl_methyl>  (146) 
0

>  <fr_azide>  (146) 
0

>  <fr_azo>  (146) 
0

>  <fr_barbitur>  (146) 
0

>  <fr_benzene>  (146) 
1

>  <fr_benzodiazepine>  (146) 
0

>  <fr_bicyclic>  (146) 
0

>  <fr_diazo>  (146) 
0

>  <fr_dihydropyridine>  (146) 
0

>  <fr_epoxide>  (146) 
0

>  <fr_ester>  (146) 
0

>  <fr_ether>  (146) 
0

>  <fr_furan>  (146) 
0

>  <fr_guanido>  (146) 
0

>  <fr_halogen>  (146) 
0

>  <fr_hdrzine>  (146) 
0

>  <fr_hdrzone>  (146) 
0

>  <fr_imidazole>  (146) 
0

>  <fr_imide>  (146) 
0

>  <fr_isocyan>  (146) 
0

>  <fr_isothiocyan>  (146) 
0

>  <fr_ketone>  (146) 
0

>  <fr_ketone_Topliss>  (146) 
0

>  <fr_lactam>  (146) 
0

>  <fr_lactone>  (146) 
0

>  <fr_methoxy>  (146) 
0

>  <fr_morpholine>  (146) 
0

>  <fr_nitrile>  (146) 
0

>  <fr_nitro>  (146) 
0

>  <fr_nitro_arom>  (146) 
0

>  <fr_nitro_arom_nonortho>  (146) 
0

>  <fr_nitroso>  (146) 
0

>  <fr_oxazole>  (146) 
0

>  <fr_oxime>  (146) 
0

>  <fr_para_hydroxylation>  (146) 
0

>  <fr_phenol>  (146) 
2

>  <fr_phenol_noOrthoHbond>  (146) 
2

>  <fr_phos_acid>  (146) 
0

>  <fr_phos_ester>  (146) 
0

>  <fr_piperdine>  (146) 
0

>  <fr_piperzine>  (146) 
0

>  <fr_priamide>  (146) 
0

>  <fr_prisulfonamd>  (146) 
0

>  <fr_pyridine>  (146) 
0

>  <fr_quatN>  (146) 
1

>  <fr_sulfide>  (146) 
0

>  <fr_sulfonamd>  (146) 
0

>  <fr_sulfone>  (146) 
0

>  <fr_term_acetylene>  (146) 
0

>  <fr_tetrazole>  (146) 
0

>  <fr_thiazole>  (146) 
0

>  <fr_thiocyan>  (146) 
0

>  <fr_thiophene>  (146) 
0

>  <fr_unbrch_alkane>  (146) 
0

>  <fr_urea>  (146) 
0

>  <NP_Likeness>  (146) 
0.797021

$$$$
E9Q
     RDKit          3D

  0  0  0  0  0  0  0  0  0  0999 V3000
M  V30 BEGIN CTAB
M  V30 COUNTS 24 25 0 0 0
M  V30 BEGIN ATOM
M  V30 1 N 133.630000 27.337000 23.139000 0
M  V30 2 N 133.565000 23.564000 23.137000 0
M  V30 3 N 131.839000 23.317000 24.717000 0
M  V30 4 N 130.966000 24.071000 25.472000 0
M  V30 5 N 130.664000 26.362000 25.828000 0
M  V30 6 C 133.078000 26.498000 23.690000 0
M  V30 7 C 129.620000 26.168000 26.848000 0
M  V30 8 C 130.946000 27.783000 25.613000 0
M  V30 9 C 129.356000 27.567000 27.362000 0
M  V30 10 C 129.746000 28.468000 26.230000 0
M  V30 11 C 132.697000 24.061000 24.011000 0
M  V30 12 C 131.315000 25.310000 25.231000 0
M  V30 13 C 132.422000 25.390000 24.311000 0
M  V30 14 H 134.180600 24.176000 22.640500 0
M  V30 15 H 133.602900 22.577900 22.975500 0
M  V30 16 H 131.831400 22.317200 24.699200 0
M  V30 17 H 129.945800 25.573600 27.583200 0
M  V30 18 H 128.794400 25.775200 26.443000 0
M  V30 19 H 131.016200 27.991500 24.637500 0
M  V30 20 H 131.790900 28.055100 26.073600 0
M  V30 21 H 129.912300 27.756300 28.171100 0
M  V30 22 H 128.388800 27.683000 27.587900 0
M  V30 23 H 129.002100 28.547400 25.566500 0
M  V30 24 H 129.990300 29.377100 26.567400 0
M  V30 END ATOM
M  V30 BEGIN BOND
M  V30 1 3 1 6
M  V30 2 1 2 11
M  V30 3 1 3 4
M  V30 4 1 3 11
M  V30 5 2 4 12
M  V30 6 1 5 7
M  V30 7 1 5 8
M  V30 8 1 5 12
M  V30 9 1 6 13
M  V30 10 1 7 9
M  V30 11 1 8 10
M  V30 12 1 9 10
M  V30 13 2 11 13
M  V30 14 1 12 13
M  V30 15 1 2 14
M  V30 16 1 2 15
M  V30 17 1 3 16
M  V30 18 1 7 17
M  V30 19 1 7 18
M  V30 20 1 8 19
M  V30 21 1 8 20
M  V30 22 1 9 21
M  V30 23 1 9 22
M  V30 24 1 10 23
M  V30 25 1 10 24
M  V30 END BOND
M  V30 END CTAB
M  END
>  <Ligand_Instance>  (147) 
5N7P_E9Q_A_401

>  <Dataset>  (147) 
PDB

>  <PDB_ID>  (147) 
5N7P

>  <Chain>  (147) 
A

>  <Resi>  (147) 
401

>  <Num_Resolved_Atoms>  (147) 
13

>  <Num_H_Atoms_ProtBoundConf>  (147) 
11

>  <Pocket>  (147) 
A

>  <Name>  (147) 
5-azanyl-3-pyrrolidin-1-yl-1~{H}-pyrazole-4-carbonitrile

>  <Num_Not_Resolved_Atoms>  (147) 
0

>  <ATP_Site>  (147) 
True

>  <Peripheral>  (147) 
False

>  <Standardized_SMILES>  (147) 
[H]N([H])C1=C(C#N)C(N2C([H])([H])C([H])([H])C([H])([H])C2([H])[H])=NN1[H]

>  <2D_Mol_H>  (147) 
<rdkit.Chem.rdchem.Mol object at 0x77059d9fa260>

>  <MW>  (147) 
177.211

>  <HBA>  (147) 
4

>  <HBD>  (147) 
2

>  <LogP>  (147) 
0.46378

>  <NRB>  (147) 
2

>  <TPSA>  (147) 
81.73

>  <Num_Heavy_Atoms>  (147) 
13

>  <Ro5>  (147) 
[True, True, True, True, True, True]

>  <Ro5_Fulfilled>  (147) 
True

>  <Ro3>  (147) 
[True, False, True, True]

>  <Ro3_Fulfilled>  (147) 
True

>  <Fsp3>  (147) 
0.5

>  <Fsp3_0.42>  (147) 
True

>  <Fsp3_0.45>  (147) 
True

>  <Stereogenic_Carbons>  (147) 
0

>  <C_Atoms>  (147) 
8

>  <FCStereo>  (147) 
0.0

>  <SPS>  (147) 
209

>  <nSPS>  (147) 
16.076923

>  <PBF>  (147) 
0.310852

>  <PBF_0.6>  (147) 
False

>  <nPBF>  (147) 
0.023912

>  <nPBF_0.016>  (147) 
True

>  <PMI1>  (147) 
333.035919

>  <PMI2>  (147) 
890.083286

>  <PMI3>  (147) 
1206.809982

>  <NPR1>  (147) 
0.275964

>  <NPR2>  (147) 
0.73755

>  <Sum_NPR>  (147) 
1.013514

>  <Sum_NPR_1.07>  (147) 
False

>  <Sum_NPR_1.2>  (147) 
False

>  <MaxAbsEStateIndex>  (147) 
8.831822

>  <MaxEStateIndex>  (147) 
8.831822

>  <MinAbsEStateIndex>  (147) 
0.365185

>  <MinEStateIndex>  (147) 
0.365185

>  <qed>  (147) 
0.652652

>  <MolWt>  (147) 
177.211

>  <HeavyAtomMolWt>  (147) 
166.123

>  <ExactMolWt>  (147) 
177.101445

>  <NumValenceElectrons>  (147) 
68

>  <NumRadicalElectrons>  (147) 
0

>  <MaxPartialCharge>  (147) 
0.170159

>  <MinPartialCharge>  (147) 
-0.382905

>  <MaxAbsPartialCharge>  (147) 
0.382905

>  <MinAbsPartialCharge>  (147) 
0.170159

>  <FpDensityMorgan1>  (147) 
1.461538

>  <FpDensityMorgan2>  (147) 
2.153846

>  <FpDensityMorgan3>  (147) 
2.769231

>  <BCUT2D_MWHI>  (147) 
15.293808

>  <BCUT2D_MWLOW>  (147) 
10.29321

>  <BCUT2D_CHGHI>  (147) 
2.195737

>  <BCUT2D_CHGLO>  (147) 
-2.128205

>  <BCUT2D_LOGPHI>  (147) 
2.240616

>  <BCUT2D_LOGPLOW>  (147) 
-2.185339

>  <BCUT2D_MRHI>  (147) 
5.638549

>  <BCUT2D_MRLOW>  (147) 
0.91962

>  <AvgIpc>  (147) 
2.71488

>  <BalabanJ>  (147) 
2.341187

>  <BertzCT>  (147) 
341.906626

>  <Chi0>  (147) 
9.259149

>  <Chi0n>  (147) 
7.247418

>  <Chi0v>  (147) 
7.247418

>  <Chi1>  (147) 
6.325699

>  <Chi1n>  (147) 
4.315558

>  <Chi1v>  (147) 
4.315558

>  <Chi2n>  (147) 
3.141847

>  <Chi2v>  (147) 
3.141847

>  <Chi3n>  (147) 
2.2926

>  <Chi3v>  (147) 
2.2926

>  <Chi4n>  (147) 
1.613416

>  <Chi4v>  (147) 
1.613416

>  <HallKierAlpha>  (147) 
-1.7

>  <Ipc>  (147) 
1767.386919

>  <Kappa1>  (147) 
7.923967

>  <Kappa2>  (147) 
2.976534

>  <Kappa3>  (147) 
1.201658

>  <LabuteASA>  (147) 
76.139849

>  <PEOE_VSA1>  (147) 
10.633577

>  <PEOE_VSA10>  (147) 
17.450536

>  <PEOE_VSA11>  (147) 
5.817863

>  <PEOE_VSA12>  (147) 
0.0

>  <PEOE_VSA13>  (147) 
0.0

>  <PEOE_VSA14>  (147) 
0.0

>  <PEOE_VSA2>  (147) 
5.098682

>  <PEOE_VSA3>  (147) 
0.0

>  <PEOE_VSA4>  (147) 
10.360573

>  <PEOE_VSA5>  (147) 
0.0

>  <PEOE_VSA6>  (147) 
0.0

>  <PEOE_VSA7>  (147) 
12.841643

>  <PEOE_VSA8>  (147) 
13.089513

>  <PEOE_VSA9>  (147) 
0.0

>  <SMR_VSA1>  (147) 
0.0

>  <SMR_VSA10>  (147) 
11.635726

>  <SMR_VSA2>  (147) 
5.261892

>  <SMR_VSA3>  (147) 
10.197364

>  <SMR_VSA4>  (147) 
0.0

>  <SMR_VSA5>  (147) 
12.841643

>  <SMR_VSA6>  (147) 
23.72309

>  <SMR_VSA7>  (147) 
5.563451

>  <SMR_VSA8>  (147) 
0.0

>  <SMR_VSA9>  (147) 
6.069221

>  <SlogP_VSA1>  (147) 
10.633577

>  <SlogP_VSA10>  (147) 
11.635726

>  <SlogP_VSA11>  (147) 
0.0

>  <SlogP_VSA12>  (147) 
0.0

>  <SlogP_VSA2>  (147) 
23.286876

>  <SlogP_VSA3>  (147) 
0.0

>  <SlogP_VSA4>  (147) 
11.331113

>  <SlogP_VSA5>  (147) 
18.405095

>  <SlogP_VSA6>  (147) 
0.0

>  <SlogP_VSA7>  (147) 
0.0

>  <SlogP_VSA8>  (147) 
0.0

>  <SlogP_VSA9>  (147) 
0.0

>  <EState_VSA1>  (147) 
0.0

>  <EState_VSA10>  (147) 
0.0

>  <EState_VSA11>  (147) 
0.0

>  <EState_VSA2>  (147) 
0.0

>  <EState_VSA3>  (147) 
17.199177

>  <EState_VSA4>  (147) 
25.931156

>  <EState_VSA5>  (147) 
0.0

>  <EState_VSA6>  (147) 
0.0

>  <EState_VSA7>  (147) 
0.0

>  <EState_VSA8>  (147) 
21.166495

>  <EState_VSA9>  (147) 
10.995559

>  <VSA_EState1>  (147) 
0.0

>  <VSA_EState10>  (147) 
0.0

>  <VSA_EState2>  (147) 
2.088704

>  <VSA_EState3>  (147) 
15.48247

>  <VSA_EState4>  (147) 
6.026254

>  <VSA_EState5>  (147) 
1.071204

>  <VSA_EState6>  (147) 
2.060324

>  <VSA_EState7>  (147) 
2.328638

>  <VSA_EState8>  (147) 
1.942407

>  <VSA_EState9>  (147) 
0.0

>  <FractionCSP3>  (147) 
0.5

>  <HeavyAtomCount>  (147) 
13

>  <NHOHCount>  (147) 
3

>  <NOCount>  (147) 
5

>  <NumAliphaticCarbocycles>  (147) 
0

>  <NumAliphaticHeterocycles>  (147) 
1

>  <NumAliphaticRings>  (147) 
1

>  <NumAromaticCarbocycles>  (147) 
0

>  <NumAromaticHeterocycles>  (147) 
1

>  <NumAromaticRings>  (147) 
1

>  <NumHAcceptors>  (147) 
4

>  <NumHDonors>  (147) 
2

>  <NumHeteroatoms>  (147) 
5

>  <NumRotatableBonds>  (147) 
1

>  <NumSaturatedCarbocycles>  (147) 
0

>  <NumSaturatedHeterocycles>  (147) 
1

>  <NumSaturatedRings>  (147) 
1

>  <RingCount>  (147) 
2

>  <MolLogP>  (147) 
0.46378

>  <MolMR>  (147) 
49.1621

>  <fr_Al_COO>  (147) 
0

>  <fr_Al_OH>  (147) 
0

>  <fr_Al_OH_noTert>  (147) 
0

>  <fr_ArN>  (147) 
1

>  <fr_Ar_COO>  (147) 
0

>  <fr_Ar_N>  (147) 
2

>  <fr_Ar_NH>  (147) 
1

>  <fr_Ar_OH>  (147) 
0

>  <fr_COO>  (147) 
0

>  <fr_COO2>  (147) 
0

>  <fr_C_O>  (147) 
0

>  <fr_C_O_noCOO>  (147) 
0

>  <fr_C_S>  (147) 
0

>  <fr_HOCCN>  (147) 
0

>  <fr_Imine>  (147) 
0

>  <fr_NH0>  (147) 
3

>  <fr_NH1>  (147) 
1

>  <fr_NH2>  (147) 
1

>  <fr_N_O>  (147) 
0

>  <fr_Ndealkylation1>  (147) 
0

>  <fr_Ndealkylation2>  (147) 
0

>  <fr_Nhpyrrole>  (147) 
1

>  <fr_SH>  (147) 
0

>  <fr_aldehyde>  (147) 
0

>  <fr_alkyl_carbamate>  (147) 
0

>  <fr_alkyl_halide>  (147) 
0

>  <fr_allylic_oxid>  (147) 
0

>  <fr_amide>  (147) 
0

>  <fr_amidine>  (147) 
0

>  <fr_aniline>  (147) 
2

>  <fr_aryl_methyl>  (147) 
0

>  <fr_azide>  (147) 
0

>  <fr_azo>  (147) 
0

>  <fr_barbitur>  (147) 
0

>  <fr_benzene>  (147) 
0

>  <fr_benzodiazepine>  (147) 
0

>  <fr_bicyclic>  (147) 
0

>  <fr_diazo>  (147) 
0

>  <fr_dihydropyridine>  (147) 
0

>  <fr_epoxide>  (147) 
0

>  <fr_ester>  (147) 
0

>  <fr_ether>  (147) 
0

>  <fr_furan>  (147) 
0

>  <fr_guanido>  (147) 
0

>  <fr_halogen>  (147) 
0

>  <fr_hdrzine>  (147) 
0

>  <fr_hdrzone>  (147) 
0

>  <fr_imidazole>  (147) 
0

>  <fr_imide>  (147) 
0

>  <fr_isocyan>  (147) 
0

>  <fr_isothiocyan>  (147) 
0

>  <fr_ketone>  (147) 
0

>  <fr_ketone_Topliss>  (147) 
0

>  <fr_lactam>  (147) 
0

>  <fr_lactone>  (147) 
0

>  <fr_methoxy>  (147) 
0

>  <fr_morpholine>  (147) 
0

>  <fr_nitrile>  (147) 
1

>  <fr_nitro>  (147) 
0

>  <fr_nitro_arom>  (147) 
0

>  <fr_nitro_arom_nonortho>  (147) 
0

>  <fr_nitroso>  (147) 
0

>  <fr_oxazole>  (147) 
0

>  <fr_oxime>  (147) 
0

>  <fr_para_hydroxylation>  (147) 
0

>  <fr_phenol>  (147) 
0

>  <fr_phenol_noOrthoHbond>  (147) 
0

>  <fr_phos_acid>  (147) 
0

>  <fr_phos_ester>  (147) 
0

>  <fr_piperdine>  (147) 
0

>  <fr_piperzine>  (147) 
0

>  <fr_priamide>  (147) 
0

>  <fr_prisulfonamd>  (147) 
0

>  <fr_pyridine>  (147) 
0

>  <fr_quatN>  (147) 
0

>  <fr_sulfide>  (147) 
0

>  <fr_sulfonamd>  (147) 
0

>  <fr_sulfone>  (147) 
0

>  <fr_term_acetylene>  (147) 
0

>  <fr_tetrazole>  (147) 
0

>  <fr_thiazole>  (147) 
0

>  <fr_thiocyan>  (147) 
0

>  <fr_thiophene>  (147) 
0

>  <fr_unbrch_alkane>  (147) 
0

>  <fr_urea>  (147) 
0

>  <NP_Likeness>  (147) 
-1.816974

$$$$
EE4
     RDKit          3D

  0  0  0  0  0  0  0  0  0  0999 V3000
M  V30 BEGIN CTAB
M  V30 COUNTS 69 73 0 0 0
M  V30 BEGIN ATOM
M  V30 1 F -9.185000 55.412000 95.947000 0
M  V30 2 O -9.484000 59.671000 88.844000 0
M  V30 3 O -13.672000 61.198000 90.106000 0
M  V30 4 O -6.743000 55.544000 93.985000 0
M  V30 5 O -9.469000 56.088000 98.642000 0
M  V30 6 O -5.539000 58.642000 95.424000 0
M  V30 7 N -17.348000 61.996000 84.241000 0
M  V30 8 N -17.867000 61.287000 85.282000 0
M  V30 9 N -9.710000 64.618000 89.349000 0
M  V30 10 N -9.727000 61.518000 90.218000 0
M  V30 11 N -12.706000 62.750000 88.743000 0
M  V30 12 C -10.895000 56.345000 98.268000 0
M  V30 13 C -2.988000 61.335000 95.780000 0
M  V30 14 C -4.584000 59.301000 96.085000 0
M  V30 15 C -16.141000 62.463000 84.606000 0
M  V30 16 C -9.163000 63.465000 88.949000 0
M  V30 17 C -11.261000 64.360000 89.699000 0
M  V30 18 C -3.973000 60.405000 95.093000 0
M  V30 19 C -7.679000 57.676000 98.384000 0
M  V30 20 C -6.714000 58.302000 97.596000 0
M  V30 21 C -17.080000 60.671000 87.646000 0
M  V30 22 C -8.693000 59.669000 92.338000 0
M  V30 23 C -8.460000 57.778000 90.802000 0
M  V30 24 C -16.010000 60.834000 88.545000 0
M  V30 25 C -8.200000 58.843000 93.390000 0
M  V30 26 C -7.984000 56.977000 91.821000 0
M  V30 27 C -14.798000 62.183000 86.869000 0
M  V30 28 C -9.368000 60.087000 89.917000 0
M  V30 29 C -13.728000 61.784000 89.102000 0
M  V30 30 C -8.387000 56.358000 96.511000 0
M  V30 31 C -7.299000 56.584000 94.275000 0
M  V30 32 C -8.519000 56.701000 97.837000 0
M  V30 33 C -6.586000 57.968000 96.298000 0
M  V30 34 C -17.008000 61.276000 86.337000 0
M  V30 35 C -10.205000 62.344000 89.203000 0 CFG=2
M  V30 36 C -11.494000 63.037000 89.693000 0 CFG=2
M  V30 37 C -8.824000 59.165000 91.080000 0
M  V30 38 C -14.865000 61.582000 88.159000 0
M  V30 39 C -7.849000 57.505000 93.127000 0
M  V30 40 C -15.875000 62.018000 85.959000 0
M  V30 41 C -7.441000 56.974000 95.737000 0
M  V30 42 H -18.759200 60.835400 85.272100 0
M  V30 43 H -9.622400 61.875300 91.146100 0
M  V30 44 H -12.776800 63.240600 87.874500 0
M  V30 45 H -11.498300 55.863200 98.903500 0
M  V30 46 H -11.079600 57.326800 98.312600 0
M  V30 47 H -11.060000 56.016700 97.338000 0
M  V30 48 H -2.640100 61.999500 95.118600 0
M  V30 49 H -3.448700 61.816600 96.525500 0
M  V30 50 H -2.226700 60.801200 96.148100 0
M  V30 51 H -3.866600 58.665200 96.369600 0
M  V30 52 H -4.973600 59.746400 96.891100 0
M  V30 53 H -15.532500 63.020700 84.041500 0
M  V30 54 H -8.330300 63.282300 89.471700 0
M  V30 55 H -8.941700 63.511500 87.974900 0
M  V30 56 H -11.939800 65.069100 89.889700 0
M  V30 57 H -3.501800 59.936700 94.345500 0
M  V30 58 H -4.723800 60.952100 94.722900 0
M  V30 59 H -7.771100 57.926200 99.347800 0
M  V30 60 H -6.117400 58.998500 97.994600 0
M  V30 61 H -17.884600 60.139900 87.911800 0
M  V30 62 H -8.942800 60.619200 92.524100 0
M  V30 63 H -8.555200 57.409900 89.877100 0
M  V30 64 H -16.055200 60.423400 89.455700 0
M  V30 65 H -8.103500 59.213400 94.313800 0
M  V30 66 H -7.735300 56.026100 91.636600 0
M  V30 67 H -13.995700 62.718800 86.605700 0
M  V30 68 H -10.376600 61.820700 88.368300 0
M  V30 69 H -11.711300 62.728800 90.619200 0
M  V30 END ATOM
M  V30 BEGIN BOND
M  V30 1 1 1 30
M  V30 2 2 2 28
M  V30 3 2 3 29
M  V30 4 2 4 31
M  V30 5 1 5 12
M  V30 6 1 5 32
M  V30 7 1 6 14
M  V30 8 1 6 33
M  V30 9 1 7 8
M  V30 10 2 7 15
M  V30 11 1 8 34
M  V30 12 1 9 16
M  V30 13 2 9 17
M  V30 14 1 10 28
M  V30 15 1 10 35
M  V30 16 1 11 29
M  V30 17 1 11 36
M  V30 18 1 13 18
M  V30 19 1 14 18
M  V30 20 1 15 40
M  V30 21 1 16 35
M  V30 22 1 17 36
M  V30 23 2 19 20
M  V30 24 1 19 32
M  V30 25 1 20 33
M  V30 26 1 21 24
M  V30 27 2 21 34
M  V30 28 2 22 25
M  V30 29 1 22 37
M  V30 30 1 23 26
M  V30 31 2 23 37
M  V30 32 2 24 38
M  V30 33 1 25 39
M  V30 34 2 26 39
M  V30 35 1 27 38
M  V30 36 2 27 40
M  V30 37 1 28 37
M  V30 38 1 29 38
M  V30 39 2 30 32
M  V30 40 1 30 41
M  V30 41 1 31 39
M  V30 42 1 31 41
M  V30 43 2 33 41
M  V30 44 1 34 40
M  V30 45 1 35 36
M  V30 46 1 8 42
M  V30 47 1 10 43
M  V30 48 1 11 44
M  V30 49 1 12 45
M  V30 50 1 12 46
M  V30 51 1 12 47
M  V30 52 1 13 48
M  V30 53 1 13 49
M  V30 54 1 13 50
M  V30 55 1 14 51
M  V30 56 1 14 52
M  V30 57 1 15 53
M  V30 58 1 16 54
M  V30 59 1 16 55
M  V30 60 1 17 56
M  V30 61 1 18 57
M  V30 62 1 18 58
M  V30 63 1 19 59
M  V30 64 1 20 60
M  V30 65 1 21 61
M  V30 66 1 22 62
M  V30 67 1 23 63
M  V30 68 1 24 64
M  V30 69 1 25 65
M  V30 70 1 26 66
M  V30 71 1 27 67
M  V30 72 1 35 68 CFG=3
M  V30 73 1 36 69 CFG=1
M  V30 END BOND
M  V30 END CTAB
M  END
>  <Ligand_Instance>  (148) 
6C0U_EE4_A_400

>  <Dataset>  (148) 
PDB

>  <PDB_ID>  (148) 
6C0U

>  <Chain>  (148) 
A

>  <Resi>  (148) 
400

>  <Num_Resolved_Atoms>  (148) 
41

>  <Num_H_Atoms_ProtBoundConf>  (148) 
28

>  <Pocket>  (148) 
A

>  <Name>  (148) 
N-[(3R,4R)-4-{[4-(2-fluoro-3-methoxy-6-propoxybenzene-1-carbonyl)benzene-1-carbonyl]amino}pyrrolidin-3-yl]-1H-indazole-5-carboxamide

>  <Num_Not_Resolved_Atoms>  (148) 
0

>  <ATP_Site>  (148) 
True

>  <Peripheral>  (148) 
False

>  <Standardized_SMILES>  (148) 
[H]C1=NN([H])C2=C([H])C([H])=C(C(=O)N([H])[C@]3([H])C([H])=NC([H])([H])[C@@]3([H])N([H])C(=O)C3=C([H])C([H])=C(C(=O)C4=C(OC([H])([H])C([H])([H])C([H])([H])[H])C([H])=C([H])C(OC([H])([H])[H])=C4F)C([H])=C3[H])C([H])=C12

>  <2D_Mol_H>  (148) 
<rdkit.Chem.rdchem.Mol object at 0x77059d9fa340>

>  <MW>  (148) 
557.582

>  <HBA>  (148) 
7

>  <HBD>  (148) 
3

>  <LogP>  (148) 
3.7118

>  <NRB>  (148) 
12

>  <TPSA>  (148) 
134.77

>  <Num_Heavy_Atoms>  (148) 
41

>  <Ro5>  (148) 
[False, True, True, True, False, True]

>  <Ro5_Fulfilled>  (148) 
False

>  <Ro3>  (148) 
[False, False, True, False]

>  <Ro3_Fulfilled>  (148) 
False

>  <Fsp3>  (148) 
0.233333

>  <Fsp3_0.42>  (148) 
False

>  <Fsp3_0.45>  (148) 
False

>  <Stereogenic_Carbons>  (148) 
2

>  <C_Atoms>  (148) 
30

>  <FCStereo>  (148) 
0.066667

>  <SPS>  (148) 
655

>  <nSPS>  (148) 
15.97561

>  <PBF>  (148) 
1.045333

>  <PBF_0.6>  (148) 
True

>  <nPBF>  (148) 
0.025496

>  <nPBF_0.016>  (148) 
True

>  <PMI1>  (148) 
3881.104998

>  <PMI2>  (148) 
18713.530496

>  <PMI3>  (148) 
20726.894896

>  <NPR1>  (148) 
0.18725

>  <NPR2>  (148) 
0.902862

>  <Sum_NPR>  (148) 
1.090112

>  <Sum_NPR_1.07>  (148) 
True

>  <Sum_NPR_1.2>  (148) 
False

>  <MaxAbsEStateIndex>  (148) 
15.085101

>  <MaxEStateIndex>  (148) 
15.085101

>  <MinAbsEStateIndex>  (148) 
0.07347

>  <MinEStateIndex>  (148) 
-0.813026

>  <qed>  (148) 
0.254606

>  <MolWt>  (148) 
557.582

>  <HeavyAtomMolWt>  (148) 
529.358

>  <ExactMolWt>  (148) 
557.207447

>  <NumValenceElectrons>  (148) 
210

>  <NumRadicalElectrons>  (148) 
0

>  <MaxPartialCharge>  (148) 
0.25139

>  <MinPartialCharge>  (148) 
-0.493656

>  <MaxAbsPartialCharge>  (148) 
0.493656

>  <MinAbsPartialCharge>  (148) 
0.25139

>  <FpDensityMorgan1>  (148) 
0.97561

>  <FpDensityMorgan2>  (148) 
1.682927

>  <FpDensityMorgan3>  (148) 
2.439024

>  <BCUT2D_MWHI>  (148) 
19.142316

>  <BCUT2D_MWLOW>  (148) 
9.995294

>  <BCUT2D_CHGHI>  (148) 
2.283866

>  <BCUT2D_CHGLO>  (148) 
-2.205529

>  <BCUT2D_LOGPHI>  (148) 
2.310737

>  <BCUT2D_LOGPLOW>  (148) 
-2.509701

>  <BCUT2D_MRHI>  (148) 
6.112995

>  <BCUT2D_MRLOW>  (148) 
0.090354

>  <AvgIpc>  (148) 
3.642584

>  <BalabanJ>  (148) 
1.258267

>  <BertzCT>  (148) 
1632.294637

>  <Chi0>  (148) 
28.932146

>  <Chi0n>  (148) 
22.440507

>  <Chi0v>  (148) 
22.440507

>  <Chi1>  (148) 
19.88858

>  <Chi1n>  (148) 
13.080891

>  <Chi1v>  (148) 
13.080891

>  <Chi2n>  (148) 
9.475329

>  <Chi2v>  (148) 
9.475329

>  <Chi3n>  (148) 
6.704496

>  <Chi3v>  (148) 
6.704496

>  <Chi4n>  (148) 
4.507173

>  <Chi4v>  (148) 
4.507173

>  <HallKierAlpha>  (148) 
-5.06

>  <Ipc>  (148) 
2436553992.353698

>  <Kappa1>  (148) 
27.504753

>  <Kappa2>  (148) 
11.989183

>  <Kappa3>  (148) 
5.78687

>  <LabuteASA>  (148) 
234.505289

>  <PEOE_VSA1>  (148) 
20.107303

>  <PEOE_VSA10>  (148) 
11.312963

>  <PEOE_VSA11>  (148) 
17.349978

>  <PEOE_VSA12>  (148) 
0.0

>  <PEOE_VSA13>  (148) 
11.814359

>  <PEOE_VSA14>  (148) 
0.0

>  <PEOE_VSA2>  (148) 
24.474698

>  <PEOE_VSA3>  (148) 
4.390415

>  <PEOE_VSA4>  (148) 
5.098682

>  <PEOE_VSA5>  (148) 
0.0

>  <PEOE_VSA6>  (148) 
19.056471

>  <PEOE_VSA7>  (148) 
48.885391

>  <PEOE_VSA8>  (148) 
28.291179

>  <PEOE_VSA9>  (148) 
44.058662

>  <SMR_VSA1>  (148) 
28.247753

>  <SMR_VSA10>  (148) 
34.71513

>  <SMR_VSA2>  (148) 
0.0

>  <SMR_VSA3>  (148) 
20.830941

>  <SMR_VSA4>  (148) 
4.992405

>  <SMR_VSA5>  (148) 
25.42824

>  <SMR_VSA6>  (148) 
20.261436

>  <SMR_VSA7>  (148) 
88.865174

>  <SMR_VSA8>  (148) 
0.0

>  <SMR_VSA9>  (148) 
11.499024

>  <SlogP_VSA1>  (148) 
20.107303

>  <SlogP_VSA10>  (148) 
4.390415

>  <SlogP_VSA11>  (148) 
11.499024

>  <SlogP_VSA12>  (148) 
0.0

>  <SlogP_VSA2>  (148) 
66.354686

>  <SlogP_VSA3>  (148) 
0.0

>  <SlogP_VSA4>  (148) 
5.817221

>  <SlogP_VSA5>  (148) 
49.981976

>  <SlogP_VSA6>  (148) 
65.786552

>  <SlogP_VSA7>  (148) 
0.0

>  <SlogP_VSA8>  (148) 
10.902925

>  <SlogP_VSA9>  (148) 
0.0

>  <EState_VSA1>  (148) 
29.591327

>  <EState_VSA10>  (148) 
14.383612

>  <EState_VSA11>  (148) 
4.390415

>  <EState_VSA2>  (148) 
34.096558

>  <EState_VSA3>  (148) 
25.135911

>  <EState_VSA4>  (148) 
10.902925

>  <EState_VSA5>  (148) 
43.508

>  <EState_VSA6>  (148) 
30.610545

>  <EState_VSA7>  (148) 
6.923737

>  <EState_VSA8>  (148) 
25.823346

>  <EState_VSA9>  (148) 
9.473726

>  <VSA_EState1>  (148) 
25.72549

>  <VSA_EState10>  (148) 
0.0

>  <VSA_EState2>  (148) 
43.342339

>  <VSA_EState3>  (148) 
13.401733

>  <VSA_EState4>  (148) 
1.514896

>  <VSA_EState5>  (148) 
-2.071926

>  <VSA_EState6>  (148) 
13.002647

>  <VSA_EState7>  (148) 
3.918589

>  <VSA_EState8>  (148) 
2.515407

>  <VSA_EState9>  (148) 
1.317491

>  <FractionCSP3>  (148) 
0.233333

>  <HeavyAtomCount>  (148) 
41

>  <NHOHCount>  (148) 
3

>  <NOCount>  (148) 
10

>  <NumAliphaticCarbocycles>  (148) 
0

>  <NumAliphaticHeterocycles>  (148) 
1

>  <NumAliphaticRings>  (148) 
1

>  <NumAromaticCarbocycles>  (148) 
3

>  <NumAromaticHeterocycles>  (148) 
1

>  <NumAromaticRings>  (148) 
4

>  <NumHAcceptors>  (148) 
7

>  <NumHDonors>  (148) 
3

>  <NumHeteroatoms>  (148) 
11

>  <NumRotatableBonds>  (148) 
10

>  <NumSaturatedCarbocycles>  (148) 
0

>  <NumSaturatedHeterocycles>  (148) 
0

>  <NumSaturatedRings>  (148) 
0

>  <RingCount>  (148) 
5

>  <MolLogP>  (148) 
3.7118

>  <MolMR>  (148) 
150.5736

>  <fr_Al_COO>  (148) 
0

>  <fr_Al_OH>  (148) 
0

>  <fr_Al_OH_noTert>  (148) 
0

>  <fr_ArN>  (148) 
0

>  <fr_Ar_COO>  (148) 
0

>  <fr_Ar_N>  (148) 
2

>  <fr_Ar_NH>  (148) 
1

>  <fr_Ar_OH>  (148) 
0

>  <fr_COO>  (148) 
0

>  <fr_COO2>  (148) 
0

>  <fr_C_O>  (148) 
3

>  <fr_C_O_noCOO>  (148) 
3

>  <fr_C_S>  (148) 
0

>  <fr_HOCCN>  (148) 
0

>  <fr_Imine>  (148) 
1

>  <fr_NH0>  (148) 
2

>  <fr_NH1>  (148) 
3

>  <fr_NH2>  (148) 
0

>  <fr_N_O>  (148) 
0

>  <fr_Ndealkylation1>  (148) 
0

>  <fr_Ndealkylation2>  (148) 
0

>  <fr_Nhpyrrole>  (148) 
1

>  <fr_SH>  (148) 
0

>  <fr_aldehyde>  (148) 
0

>  <fr_alkyl_carbamate>  (148) 
0

>  <fr_alkyl_halide>  (148) 
0

>  <fr_allylic_oxid>  (148) 
0

>  <fr_amide>  (148) 
2

>  <fr_amidine>  (148) 
0

>  <fr_aniline>  (148) 
0

>  <fr_aryl_methyl>  (148) 
0

>  <fr_azide>  (148) 
0

>  <fr_azo>  (148) 
0

>  <fr_barbitur>  (148) 
0

>  <fr_benzene>  (148) 
3

>  <fr_benzodiazepine>  (148) 
0

>  <fr_bicyclic>  (148) 
1

>  <fr_diazo>  (148) 
0

>  <fr_dihydropyridine>  (148) 
0

>  <fr_epoxide>  (148) 
0

>  <fr_ester>  (148) 
0

>  <fr_ether>  (148) 
2

>  <fr_furan>  (148) 
0

>  <fr_guanido>  (148) 
0

>  <fr_halogen>  (148) 
1

>  <fr_hdrzine>  (148) 
0

>  <fr_hdrzone>  (148) 
0

>  <fr_imidazole>  (148) 
0

>  <fr_imide>  (148) 
0

>  <fr_isocyan>  (148) 
0

>  <fr_isothiocyan>  (148) 
0

>  <fr_ketone>  (148) 
1

>  <fr_ketone_Topliss>  (148) 
0

>  <fr_lactam>  (148) 
0

>  <fr_lactone>  (148) 
0

>  <fr_methoxy>  (148) 
1

>  <fr_morpholine>  (148) 
0

>  <fr_nitrile>  (148) 
0

>  <fr_nitro>  (148) 
0

>  <fr_nitro_arom>  (148) 
0

>  <fr_nitro_arom_nonortho>  (148) 
0

>  <fr_nitroso>  (148) 
0

>  <fr_oxazole>  (148) 
0

>  <fr_oxime>  (148) 
0

>  <fr_para_hydroxylation>  (148) 
0

>  <fr_phenol>  (148) 
0

>  <fr_phenol_noOrthoHbond>  (148) 
0

>  <fr_phos_acid>  (148) 
0

>  <fr_phos_ester>  (148) 
0

>  <fr_piperdine>  (148) 
0

>  <fr_piperzine>  (148) 
0

>  <fr_priamide>  (148) 
0

>  <fr_prisulfonamd>  (148) 
0

>  <fr_pyridine>  (148) 
0

>  <fr_quatN>  (148) 
0

>  <fr_sulfide>  (148) 
0

>  <fr_sulfonamd>  (148) 
0

>  <fr_sulfone>  (148) 
0

>  <fr_term_acetylene>  (148) 
0

>  <fr_tetrazole>  (148) 
0

>  <fr_thiazole>  (148) 
0

>  <fr_thiocyan>  (148) 
0

>  <fr_thiophene>  (148) 
0

>  <fr_unbrch_alkane>  (148) 
0

>  <fr_urea>  (148) 
0

>  <NP_Likeness>  (148) 
-0.749094

$$$$
EMU
     RDKit          3D

  0  0  0  0  0  0  0  0  0  0999 V3000
M  V30 BEGIN CTAB
M  V30 COUNTS 28 30 0 0 0
M  V30 BEGIN ATOM
M  V30 1 N 33.376000 -9.907000 4.498000 0
M  V30 2 N 31.235000 -9.905000 5.405000 0
M  V30 3 N 33.470000 -9.862000 1.964000 0
M  V30 4 N 31.346000 -9.857000 1.624000 0
M  V30 5 N 29.245000 -9.826000 3.994000 0
M  V30 6 C 32.584000 -9.930000 5.560000 0
M  V30 7 C 32.518000 -10.133000 1.071000 0
M  V30 8 C 24.742000 -8.659000 2.580000 0
M  V30 9 C 25.527000 -7.539000 3.000000 0
M  V30 10 C 25.070000 -10.054000 2.983000 0
M  V30 11 C 28.268000 -9.476000 5.125000 0
M  V30 12 C 26.678000 -7.820000 3.857000 0
M  V30 13 C 26.207000 -10.339000 3.814000 0
M  V30 14 C 32.879000 -9.891000 3.199000 0
M  V30 15 C 30.613000 -9.868000 4.128000 0
M  V30 16 C 27.016000 -9.199000 4.270000 0
M  V30 17 C 31.490000 -9.885000 2.972000 0
M  V30 18 H 28.859400 -10.038500 3.096100 0
M  V30 19 H 32.980300 -9.965800 6.477400 0
M  V30 20 H 32.663000 -10.483300 0.145700 0
M  V30 21 H 23.946100 -8.499300 1.996000 0
M  V30 22 H 25.298900 -6.606400 2.720200 0
M  V30 23 H 24.489200 -10.805500 2.670100 0
M  V30 24 H 28.559700 -8.668800 5.638200 0
M  V30 25 H 28.132000 -10.240500 5.755200 0
M  V30 26 H 27.249800 -7.062100 4.171000 0
M  V30 27 H 26.439200 -11.276700 4.072300 0
M  V30 28 H 34.432500 -9.673400 1.769100 0
M  V30 END ATOM
M  V30 BEGIN BOND
M  V30 1 2 1 6
M  V30 2 1 1 14
M  V30 3 1 2 6
M  V30 4 2 2 15
M  V30 5 1 3 7
M  V30 6 1 3 14
M  V30 7 2 4 7
M  V30 8 1 4 17
M  V30 9 1 5 11
M  V30 10 1 5 15
M  V30 11 2 8 9
M  V30 12 1 8 10
M  V30 13 1 9 12
M  V30 14 2 10 13
M  V30 15 1 11 16
M  V30 16 2 12 16
M  V30 17 1 13 16
M  V30 18 2 14 17
M  V30 19 1 15 17
M  V30 20 1 3 28
M  V30 21 1 5 18
M  V30 22 1 6 19
M  V30 23 1 7 20
M  V30 24 1 8 21
M  V30 25 1 9 22
M  V30 26 1 10 23
M  V30 27 1 11 24
M  V30 28 1 11 25
M  V30 29 1 12 26
M  V30 30 1 13 27
M  V30 END BOND
M  V30 END CTAB
M  END
>  <Ligand_Instance>  (149) 
4YXS_EMU_A_401

>  <Dataset>  (149) 
PDB

>  <PDB_ID>  (149) 
4YXS

>  <Chain>  (149) 
A

>  <Resi>  (149) 
401

>  <Num_Resolved_Atoms>  (149) 
17

>  <Num_H_Atoms_ProtBoundConf>  (149) 
11

>  <Pocket>  (149) 
A

>  <Name>  (149) 
N-BENZYL-9H-PURIN-6-AMINE

>  <Num_Not_Resolved_Atoms>  (149) 
0

>  <ATP_Site>  (149) 
True

>  <Peripheral>  (149) 
False

>  <Standardized_SMILES>  (149) 
[H]C1=NC2=C(N=C([H])N2[H])C(N([H])C([H])([H])C2=C([H])C([H])=C([H])C([H])=C2[H])=N1

>  <2D_Mol_H>  (149) 
<rdkit.Chem.rdchem.Mol object at 0x77059d9fa420>

>  <MW>  (149) 
225.255

>  <HBA>  (149) 
4

>  <HBD>  (149) 
2

>  <LogP>  (149) 
1.965

>  <NRB>  (149) 
3

>  <TPSA>  (149) 
66.49

>  <Num_Heavy_Atoms>  (149) 
17

>  <Ro5>  (149) 
[True, True, True, True, True, True]

>  <Ro5_Fulfilled>  (149) 
True

>  <Ro3>  (149) 
[True, False, True, True]

>  <Ro3_Fulfilled>  (149) 
True

>  <Fsp3>  (149) 
0.083333

>  <Fsp3_0.42>  (149) 
False

>  <Fsp3_0.45>  (149) 
False

>  <Stereogenic_Carbons>  (149) 
0

>  <C_Atoms>  (149) 
12

>  <FCStereo>  (149) 
0.0

>  <SPS>  (149) 
180

>  <nSPS>  (149) 
10.588235

>  <PBF>  (149) 
0.68156

>  <PBF_0.6>  (149) 
True

>  <nPBF>  (149) 
0.040092

>  <nPBF_0.016>  (149) 
True

>  <PMI1>  (149) 
480.633854

>  <PMI2>  (149) 
2244.521966

>  <PMI3>  (149) 
2516.805302

>  <NPR1>  (149) 
0.19097

>  <NPR2>  (149) 
0.891814

>  <Sum_NPR>  (149) 
1.082784

>  <Sum_NPR_1.07>  (149) 
True

>  <Sum_NPR_1.2>  (149) 
False

>  <MaxAbsEStateIndex>  (149) 
4.189451

>  <MaxEStateIndex>  (149) 
4.189451

>  <MinAbsEStateIndex>  (149) 
0.722037

>  <MinEStateIndex>  (149) 
0.722037

>  <qed>  (149) 
0.714739

>  <MolWt>  (149) 
225.255

>  <HeavyAtomMolWt>  (149) 
214.167

>  <ExactMolWt>  (149) 
225.101445

>  <NumValenceElectrons>  (149) 
84

>  <NumRadicalElectrons>  (149) 
0

>  <MaxPartialCharge>  (149) 
0.162283

>  <MinPartialCharge>  (149) 
-0.364031

>  <MaxAbsPartialCharge>  (149) 
0.364031

>  <MinAbsPartialCharge>  (149) 
0.162283

>  <FpDensityMorgan1>  (149) 
1.058824

>  <FpDensityMorgan2>  (149) 
1.941176

>  <FpDensityMorgan3>  (149) 
2.823529

>  <BCUT2D_MWHI>  (149) 
15.071788

>  <BCUT2D_MWLOW>  (149) 
10.202801

>  <BCUT2D_CHGHI>  (149) 
2.042696

>  <BCUT2D_CHGLO>  (149) 
-2.047442

>  <BCUT2D_LOGPHI>  (149) 
2.146419

>  <BCUT2D_LOGPLOW>  (149) 
-2.017764

>  <BCUT2D_MRHI>  (149) 
5.813283

>  <BCUT2D_MRLOW>  (149) 
1.096849

>  <AvgIpc>  (149) 
2.860897

>  <BalabanJ>  (149) 
1.835033

>  <BertzCT>  (149) 
616.887087

>  <Chi0>  (149) 
11.501789

>  <Chi0n>  (149) 
9.090199

>  <Chi0v>  (149) 
9.090199

>  <Chi1>  (149) 
8.432653

>  <Chi1n>  (149) 
5.351883

>  <Chi1v>  (149) 
5.351883

>  <Chi2n>  (149) 
3.661178

>  <Chi2v>  (149) 
3.661178

>  <Chi3n>  (149) 
2.519976

>  <Chi3v>  (149) 
2.519976

>  <Chi4n>  (149) 
1.675665

>  <Chi4v>  (149) 
1.675665

>  <HallKierAlpha>  (149) 
-2.43

>  <Ipc>  (149) 
18893.36537

>  <Kappa1>  (149) 
9.771792

>  <Kappa2>  (149) 
4.209081

>  <Kappa3>  (149) 
1.943818

>  <LabuteASA>  (149) 
97.953071

>  <PEOE_VSA1>  (149) 
10.300767

>  <PEOE_VSA10>  (149) 
11.844021

>  <PEOE_VSA11>  (149) 
11.46504

>  <PEOE_VSA12>  (149) 
0.0

>  <PEOE_VSA13>  (149) 
0.0

>  <PEOE_VSA14>  (149) 
0.0

>  <PEOE_VSA2>  (149) 
0.0

>  <PEOE_VSA3>  (149) 
14.951936

>  <PEOE_VSA4>  (149) 
0.0

>  <PEOE_VSA5>  (149) 
0.0

>  <PEOE_VSA6>  (149) 
30.331835

>  <PEOE_VSA7>  (149) 
5.563451

>  <PEOE_VSA8>  (149) 
6.544756

>  <PEOE_VSA9>  (149) 
6.32732

>  <SMR_VSA1>  (149) 
0.0

>  <SMR_VSA10>  (149) 
16.981741

>  <SMR_VSA2>  (149) 
0.0

>  <SMR_VSA3>  (149) 
19.935914

>  <SMR_VSA4>  (149) 
0.0

>  <SMR_VSA5>  (149) 
6.544756

>  <SMR_VSA6>  (149) 
5.316789

>  <SMR_VSA7>  (149) 
48.549927

>  <SMR_VSA8>  (149) 
0.0

>  <SMR_VSA9>  (149) 
0.0

>  <SlogP_VSA1>  (149) 
5.316789

>  <SlogP_VSA10>  (149) 
5.817863

>  <SlogP_VSA11>  (149) 
0.0

>  <SlogP_VSA12>  (149) 
0.0

>  <SlogP_VSA2>  (149) 
19.935914

>  <SlogP_VSA3>  (149) 
6.544756

>  <SlogP_VSA4>  (149) 
0.0

>  <SlogP_VSA5>  (149) 
5.563451

>  <SlogP_VSA6>  (149) 
42.986475

>  <SlogP_VSA7>  (149) 
0.0

>  <SlogP_VSA8>  (149) 
11.163878

>  <SlogP_VSA9>  (149) 
0.0

>  <EState_VSA1>  (149) 
0.0

>  <EState_VSA10>  (149) 
0.0

>  <EState_VSA11>  (149) 
0.0

>  <EState_VSA2>  (149) 
0.0

>  <EState_VSA3>  (149) 
0.0

>  <EState_VSA4>  (149) 
23.526497

>  <EState_VSA5>  (149) 
11.890772

>  <EState_VSA6>  (149) 
6.32732

>  <EState_VSA7>  (149) 
18.199101

>  <EState_VSA8>  (149) 
37.385437

>  <EState_VSA9>  (149) 
0.0

>  <VSA_EState1>  (149) 
0.0

>  <VSA_EState10>  (149) 
0.0

>  <VSA_EState2>  (149) 
15.420928

>  <VSA_EState3>  (149) 
3.256435

>  <VSA_EState4>  (149) 
2.716473

>  <VSA_EState5>  (149) 
0.750095

>  <VSA_EState6>  (149) 
10.160933

>  <VSA_EState7>  (149) 
3.139766

>  <VSA_EState8>  (149) 
0.722037

>  <VSA_EState9>  (149) 
0.0

>  <FractionCSP3>  (149) 
0.083333

>  <HeavyAtomCount>  (149) 
17

>  <NHOHCount>  (149) 
2

>  <NOCount>  (149) 
5

>  <NumAliphaticCarbocycles>  (149) 
0

>  <NumAliphaticHeterocycles>  (149) 
0

>  <NumAliphaticRings>  (149) 
0

>  <NumAromaticCarbocycles>  (149) 
1

>  <NumAromaticHeterocycles>  (149) 
2

>  <NumAromaticRings>  (149) 
3

>  <NumHAcceptors>  (149) 
4

>  <NumHDonors>  (149) 
2

>  <NumHeteroatoms>  (149) 
5

>  <NumRotatableBonds>  (149) 
3

>  <NumSaturatedCarbocycles>  (149) 
0

>  <NumSaturatedHeterocycles>  (149) 
0

>  <NumSaturatedRings>  (149) 
0

>  <RingCount>  (149) 
3

>  <MolLogP>  (149) 
1.965

>  <MolMR>  (149) 
65.4524

>  <fr_Al_COO>  (149) 
0

>  <fr_Al_OH>  (149) 
0

>  <fr_Al_OH_noTert>  (149) 
0

>  <fr_ArN>  (149) 
0

>  <fr_Ar_COO>  (149) 
0

>  <fr_Ar_N>  (149) 
4

>  <fr_Ar_NH>  (149) 
1

>  <fr_Ar_OH>  (149) 
0

>  <fr_COO>  (149) 
0

>  <fr_COO2>  (149) 
0

>  <fr_C_O>  (149) 
0

>  <fr_C_O_noCOO>  (149) 
0

>  <fr_C_S>  (149) 
0

>  <fr_HOCCN>  (149) 
0

>  <fr_Imine>  (149) 
0

>  <fr_NH0>  (149) 
3

>  <fr_NH1>  (149) 
2

>  <fr_NH2>  (149) 
0

>  <fr_N_O>  (149) 
0

>  <fr_Ndealkylation1>  (149) 
0

>  <fr_Ndealkylation2>  (149) 
0

>  <fr_Nhpyrrole>  (149) 
1

>  <fr_SH>  (149) 
0

>  <fr_aldehyde>  (149) 
0

>  <fr_alkyl_carbamate>  (149) 
0

>  <fr_alkyl_halide>  (149) 
0

>  <fr_allylic_oxid>  (149) 
0

>  <fr_amide>  (149) 
0

>  <fr_amidine>  (149) 
0

>  <fr_aniline>  (149) 
1

>  <fr_aryl_methyl>  (149) 
0

>  <fr_azide>  (149) 
0

>  <fr_azo>  (149) 
0

>  <fr_barbitur>  (149) 
0

>  <fr_benzene>  (149) 
1

>  <fr_benzodiazepine>  (149) 
0

>  <fr_bicyclic>  (149) 
1

>  <fr_diazo>  (149) 
0

>  <fr_dihydropyridine>  (149) 
0

>  <fr_epoxide>  (149) 
0

>  <fr_ester>  (149) 
0

>  <fr_ether>  (149) 
0

>  <fr_furan>  (149) 
0

>  <fr_guanido>  (149) 
0

>  <fr_halogen>  (149) 
0

>  <fr_hdrzine>  (149) 
0

>  <fr_hdrzone>  (149) 
0

>  <fr_imidazole>  (149) 
1

>  <fr_imide>  (149) 
0

>  <fr_isocyan>  (149) 
0

>  <fr_isothiocyan>  (149) 
0

>  <fr_ketone>  (149) 
0

>  <fr_ketone_Topliss>  (149) 
0

>  <fr_lactam>  (149) 
0

>  <fr_lactone>  (149) 
0

>  <fr_methoxy>  (149) 
0

>  <fr_morpholine>  (149) 
0

>  <fr_nitrile>  (149) 
0

>  <fr_nitro>  (149) 
0

>  <fr_nitro_arom>  (149) 
0

>  <fr_nitro_arom_nonortho>  (149) 
0

>  <fr_nitroso>  (149) 
0

>  <fr_oxazole>  (149) 
0

>  <fr_oxime>  (149) 
0

>  <fr_para_hydroxylation>  (149) 
0

>  <fr_phenol>  (149) 
0

>  <fr_phenol_noOrthoHbond>  (149) 
0

>  <fr_phos_acid>  (149) 
0

>  <fr_phos_ester>  (149) 
0

>  <fr_piperdine>  (149) 
0

>  <fr_piperzine>  (149) 
0

>  <fr_priamide>  (149) 
0

>  <fr_prisulfonamd>  (149) 
0

>  <fr_pyridine>  (149) 
0

>  <fr_quatN>  (149) 
0

>  <fr_sulfide>  (149) 
0

>  <fr_sulfonamd>  (149) 
0

>  <fr_sulfone>  (149) 
0

>  <fr_term_acetylene>  (149) 
0

>  <fr_tetrazole>  (149) 
0

>  <fr_thiazole>  (149) 
0

>  <fr_thiocyan>  (149) 
0

>  <fr_thiophene>  (149) 
0

>  <fr_unbrch_alkane>  (149) 
0

>  <fr_urea>  (149) 
0

>  <NP_Likeness>  (149) 
-0.947327

$$$$
F05
     RDKit          3D

  0  0  0  0  0  0  0  0  0  0999 V3000
M  V30 BEGIN CTAB
M  V30 COUNTS 18 19 0 0 0
M  V30 BEGIN ATOM
M  V30 1 N -9.738000 24.502000 -25.935000 0
M  V30 2 N -10.589000 26.726000 -26.166000 0
M  V30 3 C -11.865000 27.440000 -26.194000 0
M  V30 4 C -14.920000 25.195000 -25.536000 0
M  V30 5 C -14.265000 23.975000 -25.584000 0
M  V30 6 C -14.215000 26.371000 -25.725000 0
M  V30 7 C -12.896000 23.921000 -25.800000 0
M  V30 8 C -10.731000 25.421000 -26.030000 0
M  V30 9 C -12.842000 26.329000 -25.937000 0
M  V30 10 C -12.179000 25.108000 -25.951000 0
M  V30 11 H -9.961900 23.532600 -25.833900 0
M  V30 12 H -8.782000 24.793800 -25.966100 0
M  V30 13 H -12.024300 27.866700 -27.084200 0
M  V30 14 H -11.908600 28.136600 -25.477800 0
M  V30 15 H -15.904700 25.226000 -25.364400 0
M  V30 16 H -14.782600 23.128100 -25.462100 0
M  V30 17 H -14.692700 27.249400 -25.709000 0
M  V30 18 H -12.427100 23.039000 -25.847100 0
M  V30 END ATOM
M  V30 BEGIN BOND
M  V30 1 1 1 8
M  V30 2 1 2 3
M  V30 3 2 2 8
M  V30 4 1 3 9
M  V30 5 2 4 5
M  V30 6 1 4 6
M  V30 7 1 5 7
M  V30 8 2 6 9
M  V30 9 2 7 10
M  V30 10 1 8 10
M  V30 11 1 9 10
M  V30 12 1 1 11
M  V30 13 1 1 12
M  V30 14 1 3 13
M  V30 15 1 3 14
M  V30 16 1 4 15
M  V30 17 1 5 16
M  V30 18 1 6 17
M  V30 19 1 7 18
M  V30 END BOND
M  V30 END CTAB
M  END
>  <Ligand_Instance>  (150) 
5N36_F05_A_402

>  <Dataset>  (150) 
PDB

>  <PDB_ID>  (150) 
5N36

>  <Chain>  (150) 
A

>  <Resi>  (150) 
402

>  <Num_Resolved_Atoms>  (150) 
10

>  <Num_H_Atoms_ProtBoundConf>  (150) 
8

>  <Pocket>  (150) 
A

>  <Name>  (150) 
1H-isoindol-3-amine

>  <Num_Not_Resolved_Atoms>  (150) 
0

>  <ATP_Site>  (150) 
True

>  <Peripheral>  (150) 
False

>  <Standardized_SMILES>  (150) 
[H]C1=C([H])C([H])=C2C(=C1[H])C(N([H])[H])=NC2([H])[H]

>  <2D_Mol_H>  (150) 
<rdkit.Chem.rdchem.Mol object at 0x77059d9fa500>

>  <MW>  (150) 
132.166

>  <HBA>  (150) 
2

>  <HBD>  (150) 
1

>  <LogP>  (150) 
0.9055

>  <NRB>  (150) 
0

>  <TPSA>  (150) 
38.38

>  <Num_Heavy_Atoms>  (150) 
10

>  <Ro5>  (150) 
[True, True, True, True, True, True]

>  <Ro5_Fulfilled>  (150) 
True

>  <Ro3>  (150) 
[True, True, True, True]

>  <Ro3_Fulfilled>  (150) 
True

>  <Fsp3>  (150) 
0.125

>  <Fsp3_0.42>  (150) 
False

>  <Fsp3_0.45>  (150) 
False

>  <Stereogenic_Carbons>  (150) 
0

>  <C_Atoms>  (150) 
8

>  <FCStereo>  (150) 
0.0

>  <SPS>  (150) 
146

>  <nSPS>  (150) 
14.6

>  <PBF>  (150) 
0.166322

>  <PBF_0.6>  (150) 
False

>  <nPBF>  (150) 
0.016632

>  <nPBF_0.016>  (150) 
True

>  <PMI1>  (150) 
189.109505

>  <PMI2>  (150) 
399.544069

>  <PMI3>  (150) 
584.479516

>  <NPR1>  (150) 
0.323552

>  <NPR2>  (150) 
0.68359

>  <Sum_NPR>  (150) 
1.007141

>  <Sum_NPR_1.07>  (150) 
False

>  <Sum_NPR_1.2>  (150) 
False

>  <MaxAbsEStateIndex>  (150) 
5.596343

>  <MaxEStateIndex>  (150) 
5.596343

>  <MinAbsEStateIndex>  (150) 
0.676481

>  <MinEStateIndex>  (150) 
0.676481

>  <qed>  (150) 
0.559369

>  <MolWt>  (150) 
132.166

>  <HeavyAtomMolWt>  (150) 
124.102

>  <ExactMolWt>  (150) 
132.068748

>  <NumValenceElectrons>  (150) 
50

>  <NumRadicalElectrons>  (150) 
0

>  <MaxPartialCharge>  (150) 
0.125802

>  <MinPartialCharge>  (150) 
-0.383487

>  <MaxAbsPartialCharge>  (150) 
0.383487

>  <MinAbsPartialCharge>  (150) 
0.125802

>  <FpDensityMorgan1>  (150) 
1.3

>  <FpDensityMorgan2>  (150) 
2.1

>  <FpDensityMorgan3>  (150) 
2.9

>  <BCUT2D_MWHI>  (150) 
14.876495

>  <BCUT2D_MWLOW>  (150) 
10.109781

>  <BCUT2D_CHGHI>  (150) 
2.094082

>  <BCUT2D_CHGLO>  (150) 
-1.943144

>  <BCUT2D_LOGPHI>  (150) 
2.145701

>  <BCUT2D_LOGPLOW>  (150) 
-2.092564

>  <BCUT2D_MRHI>  (150) 
6.001476

>  <BCUT2D_MRLOW>  (150) 
1.105628

>  <AvgIpc>  (150) 
2.340585

>  <BalabanJ>  (150) 
2.605743

>  <BertzCT>  (150) 
289.063995

>  <Chi0>  (150) 
6.974691

>  <Chi0n>  (150) 
5.541072

>  <Chi0v>  (150) 
5.541072

>  <Chi1>  (150) 
4.87701

>  <Chi1n>  (150) 
3.259413

>  <Chi1v>  (150) 
3.259413

>  <Chi2n>  (150) 
2.358615

>  <Chi2v>  (150) 
2.358615

>  <Chi3n>  (150) 
1.713063

>  <Chi3v>  (150) 
1.713063

>  <Chi4n>  (150) 
1.163581

>  <Chi4v>  (150) 
1.163581

>  <HallKierAlpha>  (150) 
-1.31

>  <Ipc>  (150) 
367.471828

>  <Kappa1>  (150) 
5.472993

>  <Kappa2>  (150) 
1.836419

>  <Kappa3>  (150) 
0.620058

>  <LabuteASA>  (150) 
59.390669

>  <PEOE_VSA1>  (150) 
5.733667

>  <PEOE_VSA10>  (150) 
5.83562

>  <PEOE_VSA11>  (150) 
0.0

>  <PEOE_VSA12>  (150) 
0.0

>  <PEOE_VSA13>  (150) 
0.0

>  <PEOE_VSA14>  (150) 
0.0

>  <PEOE_VSA2>  (150) 
4.992405

>  <PEOE_VSA3>  (150) 
0.0

>  <PEOE_VSA4>  (150) 
0.0

>  <PEOE_VSA5>  (150) 
0.0

>  <PEOE_VSA6>  (150) 
24.265468

>  <PEOE_VSA7>  (150) 
5.563451

>  <PEOE_VSA8>  (150) 
5.563451

>  <PEOE_VSA9>  (150) 
6.544756

>  <SMR_VSA1>  (150) 
0.0

>  <SMR_VSA10>  (150) 
5.83562

>  <SMR_VSA2>  (150) 
0.0

>  <SMR_VSA3>  (150) 
0.0

>  <SMR_VSA4>  (150) 
10.726072

>  <SMR_VSA5>  (150) 
6.544756

>  <SMR_VSA6>  (150) 
0.0

>  <SMR_VSA7>  (150) 
35.392371

>  <SMR_VSA8>  (150) 
0.0

>  <SMR_VSA9>  (150) 
0.0

>  <SlogP_VSA1>  (150) 
5.733667

>  <SlogP_VSA10>  (150) 
0.0

>  <SlogP_VSA11>  (150) 
0.0

>  <SlogP_VSA12>  (150) 
0.0

>  <SlogP_VSA2>  (150) 
5.83562

>  <SlogP_VSA3>  (150) 
6.544756

>  <SlogP_VSA4>  (150) 
0.0

>  <SlogP_VSA5>  (150) 
11.126903

>  <SlogP_VSA6>  (150) 
29.257873

>  <SlogP_VSA7>  (150) 
0.0

>  <SlogP_VSA8>  (150) 
0.0

>  <SlogP_VSA9>  (150) 
0.0

>  <EState_VSA1>  (150) 
0.0

>  <EState_VSA10>  (150) 
0.0

>  <EState_VSA11>  (150) 
0.0

>  <EState_VSA2>  (150) 
0.0

>  <EState_VSA3>  (150) 
5.83562

>  <EState_VSA4>  (150) 
12.108208

>  <EState_VSA5>  (150) 
5.563451

>  <EState_VSA6>  (150) 
0.0

>  <EState_VSA7>  (150) 
18.199101

>  <EState_VSA8>  (150) 
11.058772

>  <EState_VSA9>  (150) 
5.733667

>  <VSA_EState1>  (150) 
0.0

>  <VSA_EState10>  (150) 
0.0

>  <VSA_EState2>  (150) 
4.098519

>  <VSA_EState3>  (150) 
0.0

>  <VSA_EState4>  (150) 
7.931991

>  <VSA_EState5>  (150) 
0.676481

>  <VSA_EState6>  (150) 
8.041019

>  <VSA_EState7>  (150) 
0.0

>  <VSA_EState8>  (150) 
0.751991

>  <VSA_EState9>  (150) 
0.0

>  <FractionCSP3>  (150) 
0.125

>  <HeavyAtomCount>  (150) 
10

>  <NHOHCount>  (150) 
2

>  <NOCount>  (150) 
2

>  <NumAliphaticCarbocycles>  (150) 
0

>  <NumAliphaticHeterocycles>  (150) 
1

>  <NumAliphaticRings>  (150) 
1

>  <NumAromaticCarbocycles>  (150) 
1

>  <NumAromaticHeterocycles>  (150) 
0

>  <NumAromaticRings>  (150) 
1

>  <NumHAcceptors>  (150) 
2

>  <NumHDonors>  (150) 
1

>  <NumHeteroatoms>  (150) 
2

>  <NumRotatableBonds>  (150) 
0

>  <NumSaturatedCarbocycles>  (150) 
0

>  <NumSaturatedHeterocycles>  (150) 
0

>  <NumSaturatedRings>  (150) 
0

>  <RingCount>  (150) 
2

>  <MolLogP>  (150) 
0.9055

>  <MolMR>  (150) 
40.8704

>  <fr_Al_COO>  (150) 
0

>  <fr_Al_OH>  (150) 
0

>  <fr_Al_OH_noTert>  (150) 
0

>  <fr_ArN>  (150) 
0

>  <fr_Ar_COO>  (150) 
0

>  <fr_Ar_N>  (150) 
0

>  <fr_Ar_NH>  (150) 
0

>  <fr_Ar_OH>  (150) 
0

>  <fr_COO>  (150) 
0

>  <fr_COO2>  (150) 
0

>  <fr_C_O>  (150) 
0

>  <fr_C_O_noCOO>  (150) 
0

>  <fr_C_S>  (150) 
0

>  <fr_HOCCN>  (150) 
0

>  <fr_Imine>  (150) 
1

>  <fr_NH0>  (150) 
1

>  <fr_NH1>  (150) 
0

>  <fr_NH2>  (150) 
1

>  <fr_N_O>  (150) 
0

>  <fr_Ndealkylation1>  (150) 
0

>  <fr_Ndealkylation2>  (150) 
0

>  <fr_Nhpyrrole>  (150) 
0

>  <fr_SH>  (150) 
0

>  <fr_aldehyde>  (150) 
0

>  <fr_alkyl_carbamate>  (150) 
0

>  <fr_alkyl_halide>  (150) 
0

>  <fr_allylic_oxid>  (150) 
0

>  <fr_amide>  (150) 
0

>  <fr_amidine>  (150) 
1

>  <fr_aniline>  (150) 
0

>  <fr_aryl_methyl>  (150) 
0

>  <fr_azide>  (150) 
0

>  <fr_azo>  (150) 
0

>  <fr_barbitur>  (150) 
0

>  <fr_benzene>  (150) 
1

>  <fr_benzodiazepine>  (150) 
0

>  <fr_bicyclic>  (150) 
1

>  <fr_diazo>  (150) 
0

>  <fr_dihydropyridine>  (150) 
0

>  <fr_epoxide>  (150) 
0

>  <fr_ester>  (150) 
0

>  <fr_ether>  (150) 
0

>  <fr_furan>  (150) 
0

>  <fr_guanido>  (150) 
0

>  <fr_halogen>  (150) 
0

>  <fr_hdrzine>  (150) 
0

>  <fr_hdrzone>  (150) 
0

>  <fr_imidazole>  (150) 
0

>  <fr_imide>  (150) 
0

>  <fr_isocyan>  (150) 
0

>  <fr_isothiocyan>  (150) 
0

>  <fr_ketone>  (150) 
0

>  <fr_ketone_Topliss>  (150) 
0

>  <fr_lactam>  (150) 
0

>  <fr_lactone>  (150) 
0

>  <fr_methoxy>  (150) 
0

>  <fr_morpholine>  (150) 
0

>  <fr_nitrile>  (150) 
0

>  <fr_nitro>  (150) 
0

>  <fr_nitro_arom>  (150) 
0

>  <fr_nitro_arom_nonortho>  (150) 
0

>  <fr_nitroso>  (150) 
0

>  <fr_oxazole>  (150) 
0

>  <fr_oxime>  (150) 
0

>  <fr_para_hydroxylation>  (150) 
0

>  <fr_phenol>  (150) 
0

>  <fr_phenol_noOrthoHbond>  (150) 
0

>  <fr_phos_acid>  (150) 
0

>  <fr_phos_ester>  (150) 
0

>  <fr_piperdine>  (150) 
0

>  <fr_piperzine>  (150) 
0

>  <fr_priamide>  (150) 
0

>  <fr_prisulfonamd>  (150) 
0

>  <fr_pyridine>  (150) 
0

>  <fr_quatN>  (150) 
0

>  <fr_sulfide>  (150) 
0

>  <fr_sulfonamd>  (150) 
0

>  <fr_sulfone>  (150) 
0

>  <fr_term_acetylene>  (150) 
0

>  <fr_tetrazole>  (150) 
0

>  <fr_thiazole>  (150) 
0

>  <fr_thiocyan>  (150) 
0

>  <fr_thiophene>  (150) 
0

>  <fr_unbrch_alkane>  (150) 
0

>  <fr_urea>  (150) 
0

>  <NP_Likeness>  (150) 
-0.166171

$$$$
G96
     RDKit          3D

  0  0  0  0  0  0  0  0  0  0999 V3000
M  V30 BEGIN CTAB
M  V30 COUNTS 62 65 0 0 0
M  V30 BEGIN ATOM
M  V30 1 O 4.035000 -8.192000 21.596000 0
M  V30 2 O 14.194000 -6.175000 23.139000 0
M  V30 3 O 8.635000 -13.363000 22.580000 0
M  V30 4 N 10.919000 -5.495000 22.257000 0
M  V30 5 N 7.215000 -15.367000 23.900000 0 CHG=1
M  V30 6 N 13.218000 -5.194000 22.775000 0
M  V30 7 N 13.696000 -7.522000 23.181000 0
M  V30 8 N 8.040000 -11.145000 22.125000 0
M  V30 9 N 10.195000 -8.138000 22.345000 0
M  V30 10 N 11.741000 -9.654000 22.980000 0
M  V30 11 C 13.776000 -10.791000 22.218000 0
M  V30 12 C 5.057000 -7.592000 19.497000 0
M  V30 13 C 5.422000 -6.215000 21.556000 0
M  V30 14 C 7.386000 -13.816000 22.074000 0
M  V30 15 C 12.991000 -10.303000 23.417000 0
M  V30 16 C 8.036000 -15.731000 17.544000 0
M  V30 17 C 8.996000 -15.021000 18.256000 0
M  V30 18 C 7.163000 -16.578000 18.215000 0
M  V30 19 C 9.085000 -15.163000 19.636000 0
M  V30 20 C 7.243000 -16.714000 19.600000 0
M  V30 21 C 7.358000 -9.057000 21.668000 0
M  V30 22 C 10.261000 -11.641000 22.817000 0
M  V30 23 C 8.283000 -16.150000 21.819000 0
M  V30 24 C 6.413000 -8.416000 21.356000 0
M  V30 25 C 8.967000 -12.046000 22.504000 0
M  V30 26 C 12.141000 -5.986000 22.606000 0
M  V30 27 C 7.197000 -15.278000 22.449000 0 CFG=1
M  V30 28 C 11.464000 -8.366000 22.738000 0
M  V30 29 C 8.326000 -9.828000 22.033000 0
M  V30 30 C 12.402000 -7.329000 22.853000 0
M  V30 31 C 9.618000 -9.367000 22.339000 0
M  V30 32 C 10.592000 -10.294000 22.738000 0
M  V30 33 C 8.209000 -16.012000 20.312000 0
M  V30 34 C 5.219000 -7.621000 21.013000 0
M  V30 35 H 3.632100 -8.847900 20.957600 0
M  V30 36 H 10.144600 -6.117100 22.141400 0
M  V30 37 H 10.796500 -4.512500 22.116400 0
M  V30 38 H 7.092500 -16.320000 24.177100 0
M  V30 39 H 8.091500 -15.030000 24.243800 0
M  V30 40 H 14.620200 -11.228500 22.527900 0
M  V30 41 H 13.226600 -11.451600 21.706300 0
M  V30 42 H 13.999700 -10.015300 21.627900 0
M  V30 43 H 5.876100 -7.196200 19.081800 0
M  V30 44 H 4.928300 -8.523800 19.157600 0
M  V30 45 H 4.260400 -7.037000 19.257500 0
M  V30 46 H 6.245200 -5.817000 21.151200 0
M  V30 47 H 4.629900 -5.650400 21.323900 0
M  V30 48 H 5.524300 -6.253100 22.550000 0
M  V30 49 H 7.374000 -13.721500 21.078500 0
M  V30 50 H 6.646900 -13.270700 22.469600 0
M  V30 51 H 12.770700 -11.080600 24.005900 0
M  V30 52 H 13.543800 -9.644400 23.927500 0
M  V30 53 H 7.974000 -15.632200 16.550800 0
M  V30 54 H 9.622800 -14.407800 17.775200 0
M  V30 55 H 6.474900 -17.091900 17.702700 0
M  V30 56 H 9.779300 -14.654800 20.145600 0
M  V30 57 H 6.605900 -17.316200 20.081200 0
M  V30 58 H 10.946500 -12.313400 23.096300 0
M  V30 59 H 8.137900 -17.105400 22.076300 0
M  V30 60 H 9.181800 -15.851200 22.139900 0
M  V30 61 H 6.304400 -15.583800 22.117600 0
M  V30 62 H 6.473400 -14.812200 24.277200 0
M  V30 END ATOM
M  V30 BEGIN BOND
M  V30 1 1 1 34
M  V30 2 1 2 6
M  V30 3 1 2 7
M  V30 4 1 3 14
M  V30 5 1 3 25
M  V30 6 1 4 26
M  V30 7 1 5 27
M  V30 8 2 6 26
M  V30 9 2 7 30
M  V30 10 2 8 25
M  V30 11 1 8 29
M  V30 12 2 9 28
M  V30 13 1 9 31
M  V30 14 1 10 15
M  V30 15 1 10 28
M  V30 16 1 10 32
M  V30 17 1 11 15
M  V30 18 1 12 34
M  V30 19 1 13 34
M  V30 20 1 14 27
M  V30 21 2 16 17
M  V30 22 1 16 18
M  V30 23 1 17 19
M  V30 24 2 18 20
M  V30 25 2 19 33
M  V30 26 1 20 33
M  V30 27 3 21 24
M  V30 28 1 21 29
M  V30 29 1 22 25
M  V30 30 2 22 32
M  V30 31 1 23 27
M  V30 32 1 23 33
M  V30 33 1 34 24
M  V30 34 1 26 30
M  V30 35 1 28 30
M  V30 36 2 29 31
M  V30 37 1 31 32
M  V30 38 1 1 35
M  V30 39 1 4 36
M  V30 40 1 4 37
M  V30 41 1 5 38
M  V30 42 1 5 39
M  V30 43 1 11 40
M  V30 44 1 11 41
M  V30 45 1 11 42
M  V30 46 1 12 43
M  V30 47 1 12 44
M  V30 48 1 12 45
M  V30 49 1 13 46
M  V30 50 1 13 47
M  V30 51 1 13 48
M  V30 52 1 14 49
M  V30 53 1 14 50
M  V30 54 1 15 51
M  V30 55 1 15 52
M  V30 56 1 16 53
M  V30 57 1 17 54
M  V30 58 1 18 55
M  V30 59 1 19 56
M  V30 60 1 20 57
M  V30 61 1 22 58
M  V30 62 1 23 59
M  V30 63 1 23 60
M  V30 64 1 27 61 CFG=3
M  V30 65 1 5 62
M  V30 END BOND
M  V30 END CTAB
M  END
>  <Ligand_Instance>  (151) 
3E8C_G96_A_351

>  <Dataset>  (151) 
PDB

>  <PDB_ID>  (151) 
3E8C

>  <Chain>  (151) 
A

>  <Resi>  (151) 
351

>  <Num_Resolved_Atoms>  (151) 
34

>  <Num_H_Atoms_ProtBoundConf>  (151) 
28

>  <Pocket>  (151) 
A, B

>  <Name>  (151) 
4-[2-(4-amino-1,2,5-oxadiazol-3-yl)-6-{[(2R)-2-amino-3-phenylpropyl]oxy}-1-ethyl-1H-imidazo[4,5-c]pyridin-4-yl]-2-methylbut-3-yn-2-ol

>  <Num_Not_Resolved_Atoms>  (151) 
0

>  <ATP_Site>  (151) 
True

>  <Peripheral>  (151) 
False

>  <Standardized_SMILES>  (151) 
[H]OC(C#CC1=C2N=C(C3=NON=C3N([H])[H])N(C([H])([H])C([H])([H])[H])C2=C([H])C(OC([H])([H])[C@@]([H])(C([H])([H])C2=C([H])C([H])=C([H])C([H])=C2[H])[N+]([H])([H])[H])=N1)(C([H])([H])[H])C([H])([H])[H]

>  <2D_Mol_H>  (151) 
<rdkit.Chem.rdchem.Mol object at 0x77059d9fa5e0>

>  <MW>  (151) 
462.534

>  <HBA>  (151) 
9

>  <HBD>  (151) 
3

>  <LogP>  (151) 
1.4378

>  <NRB>  (151) 
13

>  <TPSA>  (151) 
152.75

>  <Num_Heavy_Atoms>  (151) 
34

>  <Ro5>  (151) 
[True, True, True, True, False, False]

>  <Ro5_Fulfilled>  (151) 
False

>  <Ro3>  (151) 
[False, False, True, True]

>  <Ro3_Fulfilled>  (151) 
False

>  <Fsp3>  (151) 
0.333333

>  <Fsp3_0.42>  (151) 
False

>  <Fsp3_0.45>  (151) 
False

>  <Stereogenic_Carbons>  (151) 
1

>  <C_Atoms>  (151) 
24

>  <FCStereo>  (151) 
0.041667

>  <SPS>  (151) 
421

>  <nSPS>  (151) 
12.382353

>  <PBF>  (151) 
1.182195

>  <PBF_0.6>  (151) 
True

>  <nPBF>  (151) 
0.03477

>  <nPBF_0.016>  (151) 
True

>  <PMI1>  (151) 
3685.029029

>  <PMI2>  (151) 
7879.770776

>  <PMI3>  (151) 
10098.074093

>  <NPR1>  (151) 
0.364924

>  <NPR2>  (151) 
0.780324

>  <Sum_NPR>  (151) 
1.145248

>  <Sum_NPR_1.07>  (151) 
True

>  <Sum_NPR_1.2>  (151) 
False

>  <MaxAbsEStateIndex>  (151) 
10.115531

>  <MaxEStateIndex>  (151) 
10.115531

>  <MinAbsEStateIndex>  (151) 
0.026348

>  <MinEStateIndex>  (151) 
-1.198813

>  <qed>  (151) 
0.34881

>  <MolWt>  (151) 
462.534

>  <HeavyAtomMolWt>  (151) 
434.31

>  <ExactMolWt>  (151) 
462.224814

>  <NumValenceElectrons>  (151) 
176

>  <NumRadicalElectrons>  (151) 
0

>  <MaxPartialCharge>  (151) 
0.216405

>  <MinPartialCharge>  (151) 
-0.471235

>  <MaxAbsPartialCharge>  (151) 
0.471235

>  <MinAbsPartialCharge>  (151) 
0.216405

>  <FpDensityMorgan1>  (151) 
1.235294

>  <FpDensityMorgan2>  (151) 
2.0

>  <FpDensityMorgan3>  (151) 
2.647059

>  <BCUT2D_MWHI>  (151) 
16.564585

>  <BCUT2D_MWLOW>  (151) 
10.079959

>  <BCUT2D_CHGHI>  (151) 
2.217902

>  <BCUT2D_CHGLO>  (151) 
-2.114571

>  <BCUT2D_LOGPHI>  (151) 
2.294627

>  <BCUT2D_LOGPLOW>  (151) 
-2.641859

>  <BCUT2D_MRHI>  (151) 
5.857768

>  <BCUT2D_MRLOW>  (151) 
-0.422797

>  <AvgIpc>  (151) 
3.38418

>  <BalabanJ>  (151) 
1.718732

>  <BertzCT>  (151) 
1344.139623

>  <Chi0>  (151) 
24.294318

>  <Chi0n>  (151) 
19.447007

>  <Chi0v>  (151) 
19.447007

>  <Chi1>  (151) 
16.247333

>  <Chi1n>  (151) 
10.998751

>  <Chi1v>  (151) 
10.998751

>  <Chi2n>  (151) 
8.530342

>  <Chi2v>  (151) 
8.530342

>  <Chi3n>  (151) 
5.076144

>  <Chi3v>  (151) 
5.076144

>  <Chi4n>  (151) 
3.532694

>  <Chi4v>  (151) 
3.532694

>  <HallKierAlpha>  (151) 
-3.94

>  <Ipc>  (151) 
47023446.06636

>  <Kappa1>  (151) 
23.226004

>  <Kappa2>  (151) 
9.506395

>  <Kappa3>  (151) 
5.166963

>  <LabuteASA>  (151) 
196.458229

>  <PEOE_VSA1>  (151) 
25.877825

>  <PEOE_VSA10>  (151) 
29.460402

>  <PEOE_VSA11>  (151) 
17.336195

>  <PEOE_VSA12>  (151) 
5.879988

>  <PEOE_VSA13>  (151) 
0.0

>  <PEOE_VSA14>  (151) 
0.0

>  <PEOE_VSA2>  (151) 
0.0

>  <PEOE_VSA3>  (151) 
14.596996

>  <PEOE_VSA4>  (151) 
0.0

>  <PEOE_VSA5>  (151) 
0.0

>  <PEOE_VSA6>  (151) 
36.25227

>  <PEOE_VSA7>  (151) 
42.568424

>  <PEOE_VSA8>  (151) 
19.031945

>  <PEOE_VSA9>  (151) 
5.516701

>  <SMR_VSA1>  (151) 
20.206097

>  <SMR_VSA10>  (151) 
16.851264

>  <SMR_VSA2>  (151) 
0.0

>  <SMR_VSA3>  (151) 
24.848383

>  <SMR_VSA4>  (151) 
0.0

>  <SMR_VSA5>  (151) 
45.379681

>  <SMR_VSA6>  (151) 
12.340549

>  <SMR_VSA7>  (151) 
47.655582

>  <SMR_VSA8>  (151) 
0.0

>  <SMR_VSA9>  (151) 
29.239189

>  <SlogP_VSA1>  (151) 
16.204198

>  <SlogP_VSA10>  (151) 
5.817863

>  <SlogP_VSA11>  (151) 
5.879988

>  <SlogP_VSA12>  (151) 
0.0

>  <SlogP_VSA2>  (151) 
48.204684

>  <SlogP_VSA3>  (151) 
12.965578

>  <SlogP_VSA4>  (151) 
11.840869

>  <SlogP_VSA5>  (151) 
32.028591

>  <SlogP_VSA6>  (151) 
41.027241

>  <SlogP_VSA7>  (151) 
0.0

>  <SlogP_VSA8>  (151) 
22.551734

>  <SlogP_VSA9>  (151) 
0.0

>  <EState_VSA1>  (151) 
5.601051

>  <EState_VSA10>  (151) 
5.106527

>  <EState_VSA11>  (151) 
0.0

>  <EState_VSA2>  (151) 
11.859704

>  <EState_VSA3>  (151) 
41.760588

>  <EState_VSA4>  (151) 
11.937522

>  <EState_VSA5>  (151) 
5.563451

>  <EState_VSA6>  (151) 
13.847474

>  <EState_VSA7>  (151) 
35.756305

>  <EState_VSA8>  (151) 
49.988554

>  <EState_VSA9>  (151) 
15.099569

>  <VSA_EState1>  (151) 
12.713547

>  <VSA_EState10>  (151) 
0.0

>  <VSA_EState2>  (151) 
9.259729

>  <VSA_EState3>  (151) 
17.672196

>  <VSA_EState4>  (151) 
12.120692

>  <VSA_EState5>  (151) 
6.764835

>  <VSA_EState6>  (151) 
11.972152

>  <VSA_EState7>  (151) 
0.781672

>  <VSA_EState8>  (151) 
6.131844

>  <VSA_EState9>  (151) 
0.0

>  <FractionCSP3>  (151) 
0.333333

>  <HeavyAtomCount>  (151) 
34

>  <NHOHCount>  (151) 
6

>  <NOCount>  (151) 
10

>  <NumAliphaticCarbocycles>  (151) 
0

>  <NumAliphaticHeterocycles>  (151) 
0

>  <NumAliphaticRings>  (151) 
0

>  <NumAromaticCarbocycles>  (151) 
1

>  <NumAromaticHeterocycles>  (151) 
3

>  <NumAromaticRings>  (151) 
4

>  <NumHAcceptors>  (151) 
9

>  <NumHDonors>  (151) 
3

>  <NumHeteroatoms>  (151) 
10

>  <NumRotatableBonds>  (151) 
7

>  <NumSaturatedCarbocycles>  (151) 
0

>  <NumSaturatedHeterocycles>  (151) 
0

>  <NumSaturatedRings>  (151) 
0

>  <RingCount>  (151) 
4

>  <MolLogP>  (151) 
1.4378

>  <MolMR>  (151) 
126.3993

>  <fr_Al_COO>  (151) 
0

>  <fr_Al_OH>  (151) 
1

>  <fr_Al_OH_noTert>  (151) 
0

>  <fr_ArN>  (151) 
1

>  <fr_Ar_COO>  (151) 
0

>  <fr_Ar_N>  (151) 
5

>  <fr_Ar_NH>  (151) 
0

>  <fr_Ar_OH>  (151) 
0

>  <fr_COO>  (151) 
0

>  <fr_COO2>  (151) 
0

>  <fr_C_O>  (151) 
0

>  <fr_C_O_noCOO>  (151) 
0

>  <fr_C_S>  (151) 
0

>  <fr_HOCCN>  (151) 
0

>  <fr_Imine>  (151) 
0

>  <fr_NH0>  (151) 
5

>  <fr_NH1>  (151) 
0

>  <fr_NH2>  (151) 
1

>  <fr_N_O>  (151) 
0

>  <fr_Ndealkylation1>  (151) 
0

>  <fr_Ndealkylation2>  (151) 
0

>  <fr_Nhpyrrole>  (151) 
0

>  <fr_SH>  (151) 
0

>  <fr_aldehyde>  (151) 
0

>  <fr_alkyl_carbamate>  (151) 
0

>  <fr_alkyl_halide>  (151) 
0

>  <fr_allylic_oxid>  (151) 
0

>  <fr_amide>  (151) 
0

>  <fr_amidine>  (151) 
0

>  <fr_aniline>  (151) 
1

>  <fr_aryl_methyl>  (151) 
1

>  <fr_azide>  (151) 
0

>  <fr_azo>  (151) 
0

>  <fr_barbitur>  (151) 
0

>  <fr_benzene>  (151) 
1

>  <fr_benzodiazepine>  (151) 
0

>  <fr_bicyclic>  (151) 
1

>  <fr_diazo>  (151) 
0

>  <fr_dihydropyridine>  (151) 
0

>  <fr_epoxide>  (151) 
0

>  <fr_ester>  (151) 
0

>  <fr_ether>  (151) 
1

>  <fr_furan>  (151) 
0

>  <fr_guanido>  (151) 
0

>  <fr_halogen>  (151) 
0

>  <fr_hdrzine>  (151) 
0

>  <fr_hdrzone>  (151) 
0

>  <fr_imidazole>  (151) 
1

>  <fr_imide>  (151) 
0

>  <fr_isocyan>  (151) 
0

>  <fr_isothiocyan>  (151) 
0

>  <fr_ketone>  (151) 
0

>  <fr_ketone_Topliss>  (151) 
0

>  <fr_lactam>  (151) 
0

>  <fr_lactone>  (151) 
0

>  <fr_methoxy>  (151) 
0

>  <fr_morpholine>  (151) 
0

>  <fr_nitrile>  (151) 
0

>  <fr_nitro>  (151) 
0

>  <fr_nitro_arom>  (151) 
0

>  <fr_nitro_arom_nonortho>  (151) 
0

>  <fr_nitroso>  (151) 
0

>  <fr_oxazole>  (151) 
0

>  <fr_oxime>  (151) 
0

>  <fr_para_hydroxylation>  (151) 
0

>  <fr_phenol>  (151) 
0

>  <fr_phenol_noOrthoHbond>  (151) 
0

>  <fr_phos_acid>  (151) 
0

>  <fr_phos_ester>  (151) 
0

>  <fr_piperdine>  (151) 
0

>  <fr_piperzine>  (151) 
0

>  <fr_priamide>  (151) 
0

>  <fr_prisulfonamd>  (151) 
0

>  <fr_pyridine>  (151) 
1

>  <fr_quatN>  (151) 
1

>  <fr_sulfide>  (151) 
0

>  <fr_sulfonamd>  (151) 
0

>  <fr_sulfone>  (151) 
0

>  <fr_term_acetylene>  (151) 
0

>  <fr_tetrazole>  (151) 
0

>  <fr_thiazole>  (151) 
0

>  <fr_thiocyan>  (151) 
0

>  <fr_thiophene>  (151) 
0

>  <fr_unbrch_alkane>  (151) 
0

>  <fr_urea>  (151) 
0

>  <NP_Likeness>  (151) 
-0.766942

$$$$
G96
     RDKit          3D

  0  0  0  0  0  0  0  0  0  0999 V3000
M  V30 BEGIN CTAB
M  V30 COUNTS 62 65 0 0 0
M  V30 BEGIN ATOM
M  V30 1 O -32.674000 -11.412000 13.919000 0
M  V30 2 O -42.889000 -11.460000 12.757000 0
M  V30 3 O -35.772000 -17.041000 11.232000 0
M  V30 4 N -39.797000 -10.341000 13.850000 0
M  V30 5 N -34.081000 -18.105000 9.198000 0 CHG=1
M  V30 6 N -42.115000 -10.435000 13.403000 0
M  V30 7 N -42.107000 -12.596000 12.339000 0
M  V30 8 N -35.678000 -14.957000 12.338000 0
M  V30 9 N -38.502000 -12.627000 12.970000 0
M  V30 10 N -39.688000 -14.217000 11.915000 0
M  V30 11 C -41.014000 -16.262000 12.084000 0
M  V30 12 C -33.927000 -11.297000 15.976000 0
M  V30 13 C -34.374000 -9.745000 14.046000 0
M  V30 14 C -34.384000 -17.301000 11.462000 0
M  V30 15 C -40.759000 -15.003000 11.291000 0
M  V30 16 C -34.011000 -20.789000 15.005000 0
M  V30 17 C -35.178000 -20.129000 14.632000 0
M  V30 18 C -33.063000 -21.115000 14.044000 0
M  V30 19 C -35.389000 -19.795000 13.300000 0
M  V30 20 C -33.271000 -20.785000 12.709000 0
M  V30 21 C -35.561000 -12.959000 13.390000 0
M  V30 22 C -37.757000 -15.754000 11.503000 0
M  V30 23 C -34.666000 -19.752000 10.894000 0
M  V30 24 C -34.872000 -12.147000 13.891000 0
M  V30 25 C -36.385000 -15.911000 11.700000 0
M  V30 26 C -40.887000 -10.985000 13.351000 0
M  V30 27 C -33.908000 -18.464000 10.592000 0 CFG=1
M  V30 28 C -39.711000 -13.022000 12.526000 0
M  V30 29 C -36.280000 -13.838000 12.800000 0
M  V30 30 C -40.862000 -12.229000 12.721000 0
M  V30 31 C -37.656000 -13.632000 12.625000 0
M  V30 32 C -38.406000 -14.609000 11.966000 0
M  V30 33 C -34.437000 -20.125000 12.338000 0
M  V30 34 C -33.966000 -11.148000 14.458000 0
M  V30 35 H -32.398600 -12.344000 14.154600 0
M  V30 36 H -38.895500 -10.770900 13.799200 0
M  V30 37 H -39.897500 -9.437900 14.267400 0
M  V30 38 H -33.384700 -18.564400 8.646600 0
M  V30 39 H -34.989600 -18.388300 8.891100 0
M  V30 40 H -41.744900 -16.787800 11.648800 0
M  V30 41 H -40.179500 -16.812300 12.113300 0
M  V30 42 H -41.286500 -16.020000 13.015200 0
M  V30 43 H -34.834600 -11.111400 16.352600 0
M  V30 44 H -33.652200 -12.229000 16.212500 0
M  V30 45 H -33.268600 -10.648300 16.357800 0
M  V30 46 H -35.280400 -9.539500 14.415200 0
M  V30 47 H -33.711400 -9.086700 14.403300 0
M  V30 48 H -34.399000 -9.684600 13.048100 0
M  V30 49 H -34.247400 -17.532700 12.425200 0
M  V30 50 H -33.854000 -16.483200 11.237500 0
M  V30 51 H -40.488700 -15.248400 10.360000 0
M  V30 52 H -41.595700 -14.456100 11.262000 0
M  V30 53 H -33.855300 -21.028100 15.963400 0
M  V30 54 H -35.863600 -19.895500 15.321500 0
M  V30 55 H -32.225400 -21.590100 14.313600 0
M  V30 56 H -36.225400 -19.317100 13.031500 0
M  V30 57 H -32.585800 -21.021100 12.020000 0
M  V30 58 H -38.277000 -16.464300 11.028500 0
M  V30 59 H -34.332700 -20.484900 10.300800 0
M  V30 60 H -35.643200 -19.612100 10.734100 0
M  V30 61 H -32.935000 -18.616600 10.765300 0
M  V30 62 H -33.988000 -17.114700 9.094800 0
M  V30 END ATOM
M  V30 BEGIN BOND
M  V30 1 1 1 34
M  V30 2 1 2 6
M  V30 3 1 2 7
M  V30 4 1 3 14
M  V30 5 1 3 25
M  V30 6 1 4 26
M  V30 7 1 5 27
M  V30 8 2 6 26
M  V30 9 2 7 30
M  V30 10 2 8 25
M  V30 11 1 8 29
M  V30 12 2 9 28
M  V30 13 1 9 31
M  V30 14 1 10 15
M  V30 15 1 10 28
M  V30 16 1 10 32
M  V30 17 1 11 15
M  V30 18 1 12 34
M  V30 19 1 13 34
M  V30 20 1 14 27
M  V30 21 2 16 17
M  V30 22 1 16 18
M  V30 23 1 17 19
M  V30 24 2 18 20
M  V30 25 2 19 33
M  V30 26 1 20 33
M  V30 27 3 21 24
M  V30 28 1 21 29
M  V30 29 1 22 25
M  V30 30 2 22 32
M  V30 31 1 23 27
M  V30 32 1 23 33
M  V30 33 1 34 24
M  V30 34 1 26 30
M  V30 35 1 28 30
M  V30 36 2 29 31
M  V30 37 1 31 32
M  V30 38 1 1 35
M  V30 39 1 4 36
M  V30 40 1 4 37
M  V30 41 1 5 38
M  V30 42 1 5 39
M  V30 43 1 11 40
M  V30 44 1 11 41
M  V30 45 1 11 42
M  V30 46 1 12 43
M  V30 47 1 12 44
M  V30 48 1 12 45
M  V30 49 1 13 46
M  V30 50 1 13 47
M  V30 51 1 13 48
M  V30 52 1 14 49
M  V30 53 1 14 50
M  V30 54 1 15 51
M  V30 55 1 15 52
M  V30 56 1 16 53
M  V30 57 1 17 54
M  V30 58 1 18 55
M  V30 59 1 19 56
M  V30 60 1 20 57
M  V30 61 1 22 58
M  V30 62 1 23 59
M  V30 63 1 23 60
M  V30 64 1 27 61 CFG=3
M  V30 65 1 5 62
M  V30 END BOND
M  V30 END CTAB
M  END
>  <Ligand_Instance>  (152) 
3E8C_G96_B_351

>  <Dataset>  (152) 
PDB

>  <PDB_ID>  (152) 
3E8C

>  <Chain>  (152) 
B

>  <Resi>  (152) 
351

>  <Num_Resolved_Atoms>  (152) 
34

>  <Num_H_Atoms_ProtBoundConf>  (152) 
28

>  <Pocket>  (152) 
A, B

>  <Name>  (152) 
4-[2-(4-amino-1,2,5-oxadiazol-3-yl)-6-{[(2R)-2-amino-3-phenylpropyl]oxy}-1-ethyl-1H-imidazo[4,5-c]pyridin-4-yl]-2-methylbut-3-yn-2-ol

>  <Num_Not_Resolved_Atoms>  (152) 
0

>  <ATP_Site>  (152) 
True

>  <Peripheral>  (152) 
False

>  <Standardized_SMILES>  (152) 
[H]OC(C#CC1=C2N=C(C3=NON=C3N([H])[H])N(C([H])([H])C([H])([H])[H])C2=C([H])C(OC([H])([H])[C@@]([H])(C([H])([H])C2=C([H])C([H])=C([H])C([H])=C2[H])[N+]([H])([H])[H])=N1)(C([H])([H])[H])C([H])([H])[H]

>  <2D_Mol_H>  (152) 
<rdkit.Chem.rdchem.Mol object at 0x77059d9fa6c0>

>  <MW>  (152) 
462.534

>  <HBA>  (152) 
9

>  <HBD>  (152) 
3

>  <LogP>  (152) 
1.4378

>  <NRB>  (152) 
13

>  <TPSA>  (152) 
152.75

>  <Num_Heavy_Atoms>  (152) 
34

>  <Ro5>  (152) 
[True, True, True, True, False, False]

>  <Ro5_Fulfilled>  (152) 
False

>  <Ro3>  (152) 
[False, False, True, True]

>  <Ro3_Fulfilled>  (152) 
False

>  <Fsp3>  (152) 
0.333333

>  <Fsp3_0.42>  (152) 
False

>  <Fsp3_0.45>  (152) 
False

>  <Stereogenic_Carbons>  (152) 
1

>  <C_Atoms>  (152) 
24

>  <FCStereo>  (152) 
0.041667

>  <SPS>  (152) 
421

>  <nSPS>  (152) 
12.382353

>  <PBF>  (152) 
1.150072

>  <PBF_0.6>  (152) 
True

>  <nPBF>  (152) 
0.033826

>  <nPBF_0.016>  (152) 
True

>  <PMI1>  (152) 
3555.228652

>  <PMI2>  (152) 
8184.818732

>  <PMI3>  (152) 
10362.084294

>  <NPR1>  (152) 
0.3431

>  <NPR2>  (152) 
0.789882

>  <Sum_NPR>  (152) 
1.132981

>  <Sum_NPR_1.07>  (152) 
True

>  <Sum_NPR_1.2>  (152) 
False

>  <MaxAbsEStateIndex>  (152) 
10.115531

>  <MaxEStateIndex>  (152) 
10.115531

>  <MinAbsEStateIndex>  (152) 
0.026348

>  <MinEStateIndex>  (152) 
-1.198813

>  <qed>  (152) 
0.34881

>  <MolWt>  (152) 
462.534

>  <HeavyAtomMolWt>  (152) 
434.31

>  <ExactMolWt>  (152) 
462.224814

>  <NumValenceElectrons>  (152) 
176

>  <NumRadicalElectrons>  (152) 
0

>  <MaxPartialCharge>  (152) 
0.216405

>  <MinPartialCharge>  (152) 
-0.471235

>  <MaxAbsPartialCharge>  (152) 
0.471235

>  <MinAbsPartialCharge>  (152) 
0.216405

>  <FpDensityMorgan1>  (152) 
1.235294

>  <FpDensityMorgan2>  (152) 
2.0

>  <FpDensityMorgan3>  (152) 
2.647059

>  <BCUT2D_MWHI>  (152) 
16.564585

>  <BCUT2D_MWLOW>  (152) 
10.079959

>  <BCUT2D_CHGHI>  (152) 
2.217902

>  <BCUT2D_CHGLO>  (152) 
-2.114571

>  <BCUT2D_LOGPHI>  (152) 
2.294627

>  <BCUT2D_LOGPLOW>  (152) 
-2.641859

>  <BCUT2D_MRHI>  (152) 
5.857768

>  <BCUT2D_MRLOW>  (152) 
-0.422797

>  <AvgIpc>  (152) 
3.38418

>  <BalabanJ>  (152) 
1.718732

>  <BertzCT>  (152) 
1344.139623

>  <Chi0>  (152) 
24.294318

>  <Chi0n>  (152) 
19.447007

>  <Chi0v>  (152) 
19.447007

>  <Chi1>  (152) 
16.247333

>  <Chi1n>  (152) 
10.998751

>  <Chi1v>  (152) 
10.998751

>  <Chi2n>  (152) 
8.530342

>  <Chi2v>  (152) 
8.530342

>  <Chi3n>  (152) 
5.076144

>  <Chi3v>  (152) 
5.076144

>  <Chi4n>  (152) 
3.532694

>  <Chi4v>  (152) 
3.532694

>  <HallKierAlpha>  (152) 
-3.94

>  <Ipc>  (152) 
47023446.06636

>  <Kappa1>  (152) 
23.226004

>  <Kappa2>  (152) 
9.506395

>  <Kappa3>  (152) 
5.166963

>  <LabuteASA>  (152) 
196.458229

>  <PEOE_VSA1>  (152) 
25.877825

>  <PEOE_VSA10>  (152) 
29.460402

>  <PEOE_VSA11>  (152) 
17.336195

>  <PEOE_VSA12>  (152) 
5.879988

>  <PEOE_VSA13>  (152) 
0.0

>  <PEOE_VSA14>  (152) 
0.0

>  <PEOE_VSA2>  (152) 
0.0

>  <PEOE_VSA3>  (152) 
14.596996

>  <PEOE_VSA4>  (152) 
0.0

>  <PEOE_VSA5>  (152) 
0.0

>  <PEOE_VSA6>  (152) 
36.25227

>  <PEOE_VSA7>  (152) 
42.568424

>  <PEOE_VSA8>  (152) 
19.031945

>  <PEOE_VSA9>  (152) 
5.516701

>  <SMR_VSA1>  (152) 
20.206097

>  <SMR_VSA10>  (152) 
16.851264

>  <SMR_VSA2>  (152) 
0.0

>  <SMR_VSA3>  (152) 
24.848383

>  <SMR_VSA4>  (152) 
0.0

>  <SMR_VSA5>  (152) 
45.379681

>  <SMR_VSA6>  (152) 
12.340549

>  <SMR_VSA7>  (152) 
47.655582

>  <SMR_VSA8>  (152) 
0.0

>  <SMR_VSA9>  (152) 
29.239189

>  <SlogP_VSA1>  (152) 
16.204198

>  <SlogP_VSA10>  (152) 
5.817863

>  <SlogP_VSA11>  (152) 
5.879988

>  <SlogP_VSA12>  (152) 
0.0

>  <SlogP_VSA2>  (152) 
48.204684

>  <SlogP_VSA3>  (152) 
12.965578

>  <SlogP_VSA4>  (152) 
11.840869

>  <SlogP_VSA5>  (152) 
32.028591

>  <SlogP_VSA6>  (152) 
41.027241

>  <SlogP_VSA7>  (152) 
0.0

>  <SlogP_VSA8>  (152) 
22.551734

>  <SlogP_VSA9>  (152) 
0.0

>  <EState_VSA1>  (152) 
5.601051

>  <EState_VSA10>  (152) 
5.106527

>  <EState_VSA11>  (152) 
0.0

>  <EState_VSA2>  (152) 
11.859704

>  <EState_VSA3>  (152) 
41.760588

>  <EState_VSA4>  (152) 
11.937522

>  <EState_VSA5>  (152) 
5.563451

>  <EState_VSA6>  (152) 
13.847474

>  <EState_VSA7>  (152) 
35.756305

>  <EState_VSA8>  (152) 
49.988554

>  <EState_VSA9>  (152) 
15.099569

>  <VSA_EState1>  (152) 
12.713547

>  <VSA_EState10>  (152) 
0.0

>  <VSA_EState2>  (152) 
9.259729

>  <VSA_EState3>  (152) 
17.672196

>  <VSA_EState4>  (152) 
12.120692

>  <VSA_EState5>  (152) 
6.764835

>  <VSA_EState6>  (152) 
11.972152

>  <VSA_EState7>  (152) 
0.781672

>  <VSA_EState8>  (152) 
6.131844

>  <VSA_EState9>  (152) 
0.0

>  <FractionCSP3>  (152) 
0.333333

>  <HeavyAtomCount>  (152) 
34

>  <NHOHCount>  (152) 
6

>  <NOCount>  (152) 
10

>  <NumAliphaticCarbocycles>  (152) 
0

>  <NumAliphaticHeterocycles>  (152) 
0

>  <NumAliphaticRings>  (152) 
0

>  <NumAromaticCarbocycles>  (152) 
1

>  <NumAromaticHeterocycles>  (152) 
3

>  <NumAromaticRings>  (152) 
4

>  <NumHAcceptors>  (152) 
9

>  <NumHDonors>  (152) 
3

>  <NumHeteroatoms>  (152) 
10

>  <NumRotatableBonds>  (152) 
7

>  <NumSaturatedCarbocycles>  (152) 
0

>  <NumSaturatedHeterocycles>  (152) 
0

>  <NumSaturatedRings>  (152) 
0

>  <RingCount>  (152) 
4

>  <MolLogP>  (152) 
1.4378

>  <MolMR>  (152) 
126.3993

>  <fr_Al_COO>  (152) 
0

>  <fr_Al_OH>  (152) 
1

>  <fr_Al_OH_noTert>  (152) 
0

>  <fr_ArN>  (152) 
1

>  <fr_Ar_COO>  (152) 
0

>  <fr_Ar_N>  (152) 
5

>  <fr_Ar_NH>  (152) 
0

>  <fr_Ar_OH>  (152) 
0

>  <fr_COO>  (152) 
0

>  <fr_COO2>  (152) 
0

>  <fr_C_O>  (152) 
0

>  <fr_C_O_noCOO>  (152) 
0

>  <fr_C_S>  (152) 
0

>  <fr_HOCCN>  (152) 
0

>  <fr_Imine>  (152) 
0

>  <fr_NH0>  (152) 
5

>  <fr_NH1>  (152) 
0

>  <fr_NH2>  (152) 
1

>  <fr_N_O>  (152) 
0

>  <fr_Ndealkylation1>  (152) 
0

>  <fr_Ndealkylation2>  (152) 
0

>  <fr_Nhpyrrole>  (152) 
0

>  <fr_SH>  (152) 
0

>  <fr_aldehyde>  (152) 
0

>  <fr_alkyl_carbamate>  (152) 
0

>  <fr_alkyl_halide>  (152) 
0

>  <fr_allylic_oxid>  (152) 
0

>  <fr_amide>  (152) 
0

>  <fr_amidine>  (152) 
0

>  <fr_aniline>  (152) 
1

>  <fr_aryl_methyl>  (152) 
1

>  <fr_azide>  (152) 
0

>  <fr_azo>  (152) 
0

>  <fr_barbitur>  (152) 
0

>  <fr_benzene>  (152) 
1

>  <fr_benzodiazepine>  (152) 
0

>  <fr_bicyclic>  (152) 
1

>  <fr_diazo>  (152) 
0

>  <fr_dihydropyridine>  (152) 
0

>  <fr_epoxide>  (152) 
0

>  <fr_ester>  (152) 
0

>  <fr_ether>  (152) 
1

>  <fr_furan>  (152) 
0

>  <fr_guanido>  (152) 
0

>  <fr_halogen>  (152) 
0

>  <fr_hdrzine>  (152) 
0

>  <fr_hdrzone>  (152) 
0

>  <fr_imidazole>  (152) 
1

>  <fr_imide>  (152) 
0

>  <fr_isocyan>  (152) 
0

>  <fr_isothiocyan>  (152) 
0

>  <fr_ketone>  (152) 
0

>  <fr_ketone_Topliss>  (152) 
0

>  <fr_lactam>  (152) 
0

>  <fr_lactone>  (152) 
0

>  <fr_methoxy>  (152) 
0

>  <fr_morpholine>  (152) 
0

>  <fr_nitrile>  (152) 
0

>  <fr_nitro>  (152) 
0

>  <fr_nitro_arom>  (152) 
0

>  <fr_nitro_arom_nonortho>  (152) 
0

>  <fr_nitroso>  (152) 
0

>  <fr_oxazole>  (152) 
0

>  <fr_oxime>  (152) 
0

>  <fr_para_hydroxylation>  (152) 
0

>  <fr_phenol>  (152) 
0

>  <fr_phenol_noOrthoHbond>  (152) 
0

>  <fr_phos_acid>  (152) 
0

>  <fr_phos_ester>  (152) 
0

>  <fr_piperdine>  (152) 
0

>  <fr_piperzine>  (152) 
0

>  <fr_priamide>  (152) 
0

>  <fr_prisulfonamd>  (152) 
0

>  <fr_pyridine>  (152) 
1

>  <fr_quatN>  (152) 
1

>  <fr_sulfide>  (152) 
0

>  <fr_sulfonamd>  (152) 
0

>  <fr_sulfone>  (152) 
0

>  <fr_term_acetylene>  (152) 
0

>  <fr_tetrazole>  (152) 
0

>  <fr_thiazole>  (152) 
0

>  <fr_thiocyan>  (152) 
0

>  <fr_thiophene>  (152) 
0

>  <fr_unbrch_alkane>  (152) 
0

>  <fr_urea>  (152) 
0

>  <NP_Likeness>  (152) 
-0.766942

$$$$
G96
     RDKit          3D

  0  0  0  0  0  0  0  0  0  0999 V3000
M  V30 BEGIN CTAB
M  V30 COUNTS 62 65 0 0 0
M  V30 BEGIN ATOM
M  V30 1 O -17.619000 39.398000 37.071000 0
M  V30 2 O -27.808000 41.278000 35.556000 0
M  V30 3 O -22.045000 34.282000 36.544000 0
M  V30 4 N -24.519000 42.133000 36.231000 0
M  V30 5 N -20.637000 32.056000 35.495000 0 CHG=1
M  V30 6 N -26.838000 42.313000 35.772000 0
M  V30 7 N -27.270000 39.946000 35.627000 0
M  V30 8 N -21.486000 36.561000 36.809000 0
M  V30 9 N -23.735000 39.473000 36.384000 0
M  V30 10 N -25.255000 37.878000 35.918000 0
M  V30 11 C -27.342000 36.891000 36.792000 0
M  V30 12 C -18.537000 40.640000 38.908000 0
M  V30 13 C -18.771000 41.460000 36.562000 0
M  V30 14 C -20.776000 33.890000 37.051000 0
M  V30 15 C -26.500000 37.172000 35.562000 0
M  V30 16 C -21.505000 32.679000 41.823000 0
M  V30 17 C -22.421000 33.299000 40.977000 0
M  V30 18 C -20.642000 31.709000 41.322000 0
M  V30 19 C -22.482000 32.951000 39.635000 0
M  V30 20 C -20.694000 31.363000 39.975000 0
M  V30 21 C -20.893000 38.732000 37.062000 0
M  V30 22 C -23.710000 35.948000 36.209000 0
M  V30 23 C -21.672000 31.615000 37.668000 0
M  V30 24 C -19.962000 39.437000 37.285000 0
M  V30 25 C -22.399000 35.603000 36.525000 0
M  V30 26 C -25.735000 41.567000 35.974000 0
M  V30 27 C -20.594000 32.384000 36.909000 0 CFG=1
M  V30 28 C -25.007000 39.191000 36.049000 0
M  V30 29 C -21.817000 37.875000 36.794000 0
M  V30 30 C -25.969000 40.199000 35.874000 0
M  V30 31 C -23.127000 38.266000 36.476000 0
M  V30 32 C -24.083000 37.287000 36.183000 0
M  V30 33 C -21.616000 31.984000 39.134000 0
M  V30 34 C -18.725000 40.223000 37.452000 0
M  V30 35 H -17.589500 38.588500 37.657300 0
M  V30 36 H -23.718000 41.552400 36.376700 0
M  V30 37 H -24.429600 43.128100 36.273500 0
M  V30 38 H -20.069500 31.251000 35.322100 0
M  V30 39 H -21.580600 31.862600 35.226200 0
M  V30 40 H -28.177700 36.412900 36.521800 0
M  V30 41 H -26.822600 36.320600 37.428300 0
M  V30 42 H -27.580800 37.754200 37.236800 0
M  V30 43 H -19.302500 41.218000 39.190700 0
M  V30 44 H -18.503300 39.825000 39.486500 0
M  V30 45 H -17.682000 41.150300 39.000900 0
M  V30 46 H -19.544200 42.034800 36.829900 0
M  V30 47 H -17.920700 41.976200 36.664500 0
M  V30 48 H -18.878300 41.180400 35.607900 0
M  V30 49 H -20.714800 34.140300 38.017200 0
M  V30 50 H -20.056600 34.359200 36.538900 0
M  V30 51 H -26.268600 36.305300 35.120100 0
M  V30 52 H -27.026800 37.738900 34.928600 0
M  V30 53 H -21.467400 32.930700 42.790100 0
M  V30 54 H -23.037800 33.998300 41.338300 0
M  V30 55 H -19.985400 31.261200 41.929000 0
M  V30 56 H -23.145100 33.393100 39.031000 0
M  V30 57 H -20.071200 30.670300 39.611200 0
M  V30 58 H -24.380600 35.235800 36.001600 0
M  V30 59 H -21.515700 30.632700 37.565200 0
M  V30 60 H -22.571300 31.849800 37.299200 0
M  V30 61 H -19.697900 32.130300 37.273300 0
M  V30 62 H -20.290500 32.828600 34.962900 0
M  V30 END ATOM
M  V30 BEGIN BOND
M  V30 1 1 1 34
M  V30 2 1 2 6
M  V30 3 1 2 7
M  V30 4 1 3 14
M  V30 5 1 3 25
M  V30 6 1 4 26
M  V30 7 1 5 27
M  V30 8 2 6 26
M  V30 9 2 7 30
M  V30 10 2 8 25
M  V30 11 1 8 29
M  V30 12 2 9 28
M  V30 13 1 9 31
M  V30 14 1 10 15
M  V30 15 1 10 28
M  V30 16 1 10 32
M  V30 17 1 11 15
M  V30 18 1 12 34
M  V30 19 1 13 34
M  V30 20 1 14 27
M  V30 21 2 16 17
M  V30 22 1 16 18
M  V30 23 1 17 19
M  V30 24 2 18 20
M  V30 25 2 19 33
M  V30 26 1 20 33
M  V30 27 3 21 24
M  V30 28 1 21 29
M  V30 29 1 22 25
M  V30 30 2 22 32
M  V30 31 1 23 27
M  V30 32 1 23 33
M  V30 33 1 34 24
M  V30 34 1 26 30
M  V30 35 1 28 30
M  V30 36 2 29 31
M  V30 37 1 31 32
M  V30 38 1 1 35
M  V30 39 1 4 36
M  V30 40 1 4 37
M  V30 41 1 5 38
M  V30 42 1 5 39
M  V30 43 1 11 40
M  V30 44 1 11 41
M  V30 45 1 11 42
M  V30 46 1 12 43
M  V30 47 1 12 44
M  V30 48 1 12 45
M  V30 49 1 13 46
M  V30 50 1 13 47
M  V30 51 1 13 48
M  V30 52 1 14 49
M  V30 53 1 14 50
M  V30 54 1 15 51
M  V30 55 1 15 52
M  V30 56 1 16 53
M  V30 57 1 17 54
M  V30 58 1 18 55
M  V30 59 1 19 56
M  V30 60 1 20 57
M  V30 61 1 22 58
M  V30 62 1 23 59
M  V30 63 1 23 60
M  V30 64 1 27 61 CFG=1
M  V30 65 1 5 62
M  V30 END BOND
M  V30 END CTAB
M  END
>  <Ligand_Instance>  (153) 
3E8C_G96_C_351

>  <Dataset>  (153) 
PDB

>  <PDB_ID>  (153) 
3E8C

>  <Chain>  (153) 
C

>  <Resi>  (153) 
351

>  <Num_Resolved_Atoms>  (153) 
34

>  <Num_H_Atoms_ProtBoundConf>  (153) 
28

>  <Pocket>  (153) 
A, B

>  <Name>  (153) 
4-[2-(4-amino-1,2,5-oxadiazol-3-yl)-6-{[(2R)-2-amino-3-phenylpropyl]oxy}-1-ethyl-1H-imidazo[4,5-c]pyridin-4-yl]-2-methylbut-3-yn-2-ol

>  <Num_Not_Resolved_Atoms>  (153) 
0

>  <ATP_Site>  (153) 
True

>  <Peripheral>  (153) 
False

>  <Standardized_SMILES>  (153) 
[H]OC(C#CC1=C2N=C(C3=NON=C3N([H])[H])N(C([H])([H])C([H])([H])[H])C2=C([H])C(OC([H])([H])[C@@]([H])(C([H])([H])C2=C([H])C([H])=C([H])C([H])=C2[H])[N+]([H])([H])[H])=N1)(C([H])([H])[H])C([H])([H])[H]

>  <2D_Mol_H>  (153) 
<rdkit.Chem.rdchem.Mol object at 0x77059d9fa7a0>

>  <MW>  (153) 
462.534

>  <HBA>  (153) 
9

>  <HBD>  (153) 
3

>  <LogP>  (153) 
1.4378

>  <NRB>  (153) 
13

>  <TPSA>  (153) 
152.75

>  <Num_Heavy_Atoms>  (153) 
34

>  <Ro5>  (153) 
[True, True, True, True, False, False]

>  <Ro5_Fulfilled>  (153) 
False

>  <Ro3>  (153) 
[False, False, True, True]

>  <Ro3_Fulfilled>  (153) 
False

>  <Fsp3>  (153) 
0.333333

>  <Fsp3_0.42>  (153) 
False

>  <Fsp3_0.45>  (153) 
False

>  <Stereogenic_Carbons>  (153) 
1

>  <C_Atoms>  (153) 
24

>  <FCStereo>  (153) 
0.041667

>  <SPS>  (153) 
421

>  <nSPS>  (153) 
12.382353

>  <PBF>  (153) 
1.210348

>  <PBF_0.6>  (153) 
True

>  <nPBF>  (153) 
0.035598

>  <nPBF_0.016>  (153) 
True

>  <PMI1>  (153) 
3725.842327

>  <PMI2>  (153) 
7763.349328

>  <PMI3>  (153) 
9968.839821

>  <NPR1>  (153) 
0.373749

>  <NPR2>  (153) 
0.778762

>  <Sum_NPR>  (153) 
1.15251

>  <Sum_NPR_1.07>  (153) 
True

>  <Sum_NPR_1.2>  (153) 
False

>  <MaxAbsEStateIndex>  (153) 
10.115531

>  <MaxEStateIndex>  (153) 
10.115531

>  <MinAbsEStateIndex>  (153) 
0.026348

>  <MinEStateIndex>  (153) 
-1.198813

>  <qed>  (153) 
0.34881

>  <MolWt>  (153) 
462.534

>  <HeavyAtomMolWt>  (153) 
434.31

>  <ExactMolWt>  (153) 
462.224814

>  <NumValenceElectrons>  (153) 
176

>  <NumRadicalElectrons>  (153) 
0

>  <MaxPartialCharge>  (153) 
0.216405

>  <MinPartialCharge>  (153) 
-0.471235

>  <MaxAbsPartialCharge>  (153) 
0.471235

>  <MinAbsPartialCharge>  (153) 
0.216405

>  <FpDensityMorgan1>  (153) 
1.235294

>  <FpDensityMorgan2>  (153) 
2.0

>  <FpDensityMorgan3>  (153) 
2.647059

>  <BCUT2D_MWHI>  (153) 
16.564585

>  <BCUT2D_MWLOW>  (153) 
10.079959

>  <BCUT2D_CHGHI>  (153) 
2.217902

>  <BCUT2D_CHGLO>  (153) 
-2.114571

>  <BCUT2D_LOGPHI>  (153) 
2.294627

>  <BCUT2D_LOGPLOW>  (153) 
-2.641859

>  <BCUT2D_MRHI>  (153) 
5.857768

>  <BCUT2D_MRLOW>  (153) 
-0.422797

>  <AvgIpc>  (153) 
3.38418

>  <BalabanJ>  (153) 
1.718732

>  <BertzCT>  (153) 
1344.139623

>  <Chi0>  (153) 
24.294318

>  <Chi0n>  (153) 
19.447007

>  <Chi0v>  (153) 
19.447007

>  <Chi1>  (153) 
16.247333

>  <Chi1n>  (153) 
10.998751

>  <Chi1v>  (153) 
10.998751

>  <Chi2n>  (153) 
8.530342

>  <Chi2v>  (153) 
8.530342

>  <Chi3n>  (153) 
5.076144

>  <Chi3v>  (153) 
5.076144

>  <Chi4n>  (153) 
3.532694

>  <Chi4v>  (153) 
3.532694

>  <HallKierAlpha>  (153) 
-3.94

>  <Ipc>  (153) 
47023446.06636

>  <Kappa1>  (153) 
23.226004

>  <Kappa2>  (153) 
9.506395

>  <Kappa3>  (153) 
5.166963

>  <LabuteASA>  (153) 
196.458229

>  <PEOE_VSA1>  (153) 
25.877825

>  <PEOE_VSA10>  (153) 
29.460402

>  <PEOE_VSA11>  (153) 
17.336195

>  <PEOE_VSA12>  (153) 
5.879988

>  <PEOE_VSA13>  (153) 
0.0

>  <PEOE_VSA14>  (153) 
0.0

>  <PEOE_VSA2>  (153) 
0.0

>  <PEOE_VSA3>  (153) 
14.596996

>  <PEOE_VSA4>  (153) 
0.0

>  <PEOE_VSA5>  (153) 
0.0

>  <PEOE_VSA6>  (153) 
36.25227

>  <PEOE_VSA7>  (153) 
42.568424

>  <PEOE_VSA8>  (153) 
19.031945

>  <PEOE_VSA9>  (153) 
5.516701

>  <SMR_VSA1>  (153) 
20.206097

>  <SMR_VSA10>  (153) 
16.851264

>  <SMR_VSA2>  (153) 
0.0

>  <SMR_VSA3>  (153) 
24.848383

>  <SMR_VSA4>  (153) 
0.0

>  <SMR_VSA5>  (153) 
45.379681

>  <SMR_VSA6>  (153) 
12.340549

>  <SMR_VSA7>  (153) 
47.655582

>  <SMR_VSA8>  (153) 
0.0

>  <SMR_VSA9>  (153) 
29.239189

>  <SlogP_VSA1>  (153) 
16.204198

>  <SlogP_VSA10>  (153) 
5.817863

>  <SlogP_VSA11>  (153) 
5.879988

>  <SlogP_VSA12>  (153) 
0.0

>  <SlogP_VSA2>  (153) 
48.204684

>  <SlogP_VSA3>  (153) 
12.965578

>  <SlogP_VSA4>  (153) 
11.840869

>  <SlogP_VSA5>  (153) 
32.028591

>  <SlogP_VSA6>  (153) 
41.027241

>  <SlogP_VSA7>  (153) 
0.0

>  <SlogP_VSA8>  (153) 
22.551734

>  <SlogP_VSA9>  (153) 
0.0

>  <EState_VSA1>  (153) 
5.601051

>  <EState_VSA10>  (153) 
5.106527

>  <EState_VSA11>  (153) 
0.0

>  <EState_VSA2>  (153) 
11.859704

>  <EState_VSA3>  (153) 
41.760588

>  <EState_VSA4>  (153) 
11.937522

>  <EState_VSA5>  (153) 
5.563451

>  <EState_VSA6>  (153) 
13.847474

>  <EState_VSA7>  (153) 
35.756305

>  <EState_VSA8>  (153) 
49.988554

>  <EState_VSA9>  (153) 
15.099569

>  <VSA_EState1>  (153) 
12.713547

>  <VSA_EState10>  (153) 
0.0

>  <VSA_EState2>  (153) 
9.259729

>  <VSA_EState3>  (153) 
17.672196

>  <VSA_EState4>  (153) 
12.120692

>  <VSA_EState5>  (153) 
6.764835

>  <VSA_EState6>  (153) 
11.972152

>  <VSA_EState7>  (153) 
0.781672

>  <VSA_EState8>  (153) 
6.131844

>  <VSA_EState9>  (153) 
0.0

>  <FractionCSP3>  (153) 
0.333333

>  <HeavyAtomCount>  (153) 
34

>  <NHOHCount>  (153) 
6

>  <NOCount>  (153) 
10

>  <NumAliphaticCarbocycles>  (153) 
0

>  <NumAliphaticHeterocycles>  (153) 
0

>  <NumAliphaticRings>  (153) 
0

>  <NumAromaticCarbocycles>  (153) 
1

>  <NumAromaticHeterocycles>  (153) 
3

>  <NumAromaticRings>  (153) 
4

>  <NumHAcceptors>  (153) 
9

>  <NumHDonors>  (153) 
3

>  <NumHeteroatoms>  (153) 
10

>  <NumRotatableBonds>  (153) 
7

>  <NumSaturatedCarbocycles>  (153) 
0

>  <NumSaturatedHeterocycles>  (153) 
0

>  <NumSaturatedRings>  (153) 
0

>  <RingCount>  (153) 
4

>  <MolLogP>  (153) 
1.4378

>  <MolMR>  (153) 
126.3993

>  <fr_Al_COO>  (153) 
0

>  <fr_Al_OH>  (153) 
1

>  <fr_Al_OH_noTert>  (153) 
0

>  <fr_ArN>  (153) 
1

>  <fr_Ar_COO>  (153) 
0

>  <fr_Ar_N>  (153) 
5

>  <fr_Ar_NH>  (153) 
0

>  <fr_Ar_OH>  (153) 
0

>  <fr_COO>  (153) 
0

>  <fr_COO2>  (153) 
0

>  <fr_C_O>  (153) 
0

>  <fr_C_O_noCOO>  (153) 
0

>  <fr_C_S>  (153) 
0

>  <fr_HOCCN>  (153) 
0

>  <fr_Imine>  (153) 
0

>  <fr_NH0>  (153) 
5

>  <fr_NH1>  (153) 
0

>  <fr_NH2>  (153) 
1

>  <fr_N_O>  (153) 
0

>  <fr_Ndealkylation1>  (153) 
0

>  <fr_Ndealkylation2>  (153) 
0

>  <fr_Nhpyrrole>  (153) 
0

>  <fr_SH>  (153) 
0

>  <fr_aldehyde>  (153) 
0

>  <fr_alkyl_carbamate>  (153) 
0

>  <fr_alkyl_halide>  (153) 
0

>  <fr_allylic_oxid>  (153) 
0

>  <fr_amide>  (153) 
0

>  <fr_amidine>  (153) 
0

>  <fr_aniline>  (153) 
1

>  <fr_aryl_methyl>  (153) 
1

>  <fr_azide>  (153) 
0

>  <fr_azo>  (153) 
0

>  <fr_barbitur>  (153) 
0

>  <fr_benzene>  (153) 
1

>  <fr_benzodiazepine>  (153) 
0

>  <fr_bicyclic>  (153) 
1

>  <fr_diazo>  (153) 
0

>  <fr_dihydropyridine>  (153) 
0

>  <fr_epoxide>  (153) 
0

>  <fr_ester>  (153) 
0

>  <fr_ether>  (153) 
1

>  <fr_furan>  (153) 
0

>  <fr_guanido>  (153) 
0

>  <fr_halogen>  (153) 
0

>  <fr_hdrzine>  (153) 
0

>  <fr_hdrzone>  (153) 
0

>  <fr_imidazole>  (153) 
1

>  <fr_imide>  (153) 
0

>  <fr_isocyan>  (153) 
0

>  <fr_isothiocyan>  (153) 
0

>  <fr_ketone>  (153) 
0

>  <fr_ketone_Topliss>  (153) 
0

>  <fr_lactam>  (153) 
0

>  <fr_lactone>  (153) 
0

>  <fr_methoxy>  (153) 
0

>  <fr_morpholine>  (153) 
0

>  <fr_nitrile>  (153) 
0

>  <fr_nitro>  (153) 
0

>  <fr_nitro_arom>  (153) 
0

>  <fr_nitro_arom_nonortho>  (153) 
0

>  <fr_nitroso>  (153) 
0

>  <fr_oxazole>  (153) 
0

>  <fr_oxime>  (153) 
0

>  <fr_para_hydroxylation>  (153) 
0

>  <fr_phenol>  (153) 
0

>  <fr_phenol_noOrthoHbond>  (153) 
0

>  <fr_phos_acid>  (153) 
0

>  <fr_phos_ester>  (153) 
0

>  <fr_piperdine>  (153) 
0

>  <fr_piperzine>  (153) 
0

>  <fr_priamide>  (153) 
0

>  <fr_prisulfonamd>  (153) 
0

>  <fr_pyridine>  (153) 
1

>  <fr_quatN>  (153) 
1

>  <fr_sulfide>  (153) 
0

>  <fr_sulfonamd>  (153) 
0

>  <fr_sulfone>  (153) 
0

>  <fr_term_acetylene>  (153) 
0

>  <fr_tetrazole>  (153) 
0

>  <fr_thiazole>  (153) 
0

>  <fr_thiocyan>  (153) 
0

>  <fr_thiophene>  (153) 
0

>  <fr_unbrch_alkane>  (153) 
0

>  <fr_urea>  (153) 
0

>  <NP_Likeness>  (153) 
-0.766942

$$$$
G96
     RDKit          3D

  0  0  0  0  0  0  0  0  0  0999 V3000
M  V30 BEGIN CTAB
M  V30 COUNTS 62 65 0 0 0
M  V30 BEGIN ATOM
M  V30 1 O 19.096000 36.676000 44.758000 0
M  V30 2 O 29.414000 36.678000 46.218000 0
M  V30 3 O 22.164000 31.462000 48.132000 0
M  V30 4 N 26.380000 37.830000 44.996000 0
M  V30 5 N 20.490000 30.571000 50.236000 0 CHG=1
M  V30 6 N 28.692000 37.689000 45.492000 0
M  V30 7 N 28.591000 35.607000 46.713000 0
M  V30 8 N 22.117000 33.445000 46.845000 0
M  V30 9 N 24.994000 35.647000 46.034000 0
M  V30 10 N 26.136000 34.125000 47.243000 0
M  V30 11 C 27.616000 32.169000 47.127000 0
M  V30 12 C 20.510000 36.768000 42.816000 0
M  V30 13 C 20.718000 38.440000 44.698000 0
M  V30 14 C 20.772000 31.217000 47.926000 0
M  V30 15 C 27.181000 33.366000 47.947000 0
M  V30 16 C 20.379000 27.465000 44.625000 0
M  V30 17 C 21.557000 28.130000 44.951000 0
M  V30 18 C 19.416000 27.237000 45.602000 0
M  V30 19 C 21.769000 28.566000 46.256000 0
M  V30 20 C 19.623000 27.672000 46.906000 0
M  V30 21 C 22.032000 35.341000 45.612000 0
M  V30 22 C 24.169000 32.681000 47.764000 0
M  V30 23 C 21.022000 28.810000 48.650000 0
M  V30 24 C 21.342000 36.091000 45.020000 0
M  V30 25 C 22.798000 32.538000 47.575000 0
M  V30 26 C 27.441000 37.188000 45.564000 0
M  V30 27 C 20.281000 30.125000 48.873000 0 CFG=1
M  V30 28 C 26.192000 35.257000 46.522000 0
M  V30 29 C 22.741000 34.510000 46.286000 0
M  V30 30 C 27.368000 35.993000 46.283000 0
M  V30 31 C 24.120000 34.698000 46.454000 0
M  V30 32 C 24.843000 33.765000 47.206000 0
M  V30 33 C 20.800000 28.335000 47.235000 0
M  V30 34 C 20.418000 36.993000 44.325000 0
M  V30 35 H 18.896000 35.719500 44.545400 0
M  V30 36 H 25.463000 37.437000 45.064000 0
M  V30 37 H 26.519200 38.693700 44.511600 0
M  V30 38 H 19.792600 30.168600 50.829000 0
M  V30 39 H 21.396600 30.284000 50.545300 0
M  V30 40 H 28.325500 31.666500 47.621100 0
M  V30 41 H 26.831100 31.569600 46.969800 0
M  V30 42 H 27.978600 32.480600 46.248700 0
M  V30 43 H 21.433700 36.987600 42.501900 0
M  V30 44 H 20.306000 35.811200 42.608600 0
M  V30 45 H 19.850500 37.358000 42.350200 0
M  V30 46 H 21.642900 38.676200 44.400000 0
M  V30 47 H 20.058900 39.043400 44.249200 0
M  V30 48 H 20.649000 38.549800 45.689600 0
M  V30 49 H 20.624700 30.925000 46.981000 0
M  V30 50 H 20.259800 32.058300 48.098700 0
M  V30 51 H 26.822000 33.049700 48.825100 0
M  V30 52 H 27.969500 33.960700 48.104000 0
M  V30 53 H 20.224900 27.151000 43.688200 0
M  V30 54 H 22.250100 28.294400 44.249100 0
M  V30 55 H 18.570700 26.757900 45.365400 0
M  V30 56 H 22.614700 29.044400 46.492400 0
M  V30 57 H 18.927300 27.508500 47.605500 0
M  V30 58 H 24.671700 32.004100 48.301600 0
M  V30 59 H 20.678300 28.122200 49.289400 0
M  V30 60 H 22.000200 28.949300 48.804300 0
M  V30 61 H 19.303200 29.978400 48.723600 0
M  V30 62 H 20.425000 31.568200 50.274100 0
M  V30 END ATOM
M  V30 BEGIN BOND
M  V30 1 1 1 34
M  V30 2 1 2 6
M  V30 3 1 2 7
M  V30 4 1 3 14
M  V30 5 1 3 25
M  V30 6 1 4 26
M  V30 7 1 5 27
M  V30 8 2 6 26
M  V30 9 2 7 30
M  V30 10 2 8 25
M  V30 11 1 8 29
M  V30 12 2 9 28
M  V30 13 1 9 31
M  V30 14 1 10 15
M  V30 15 1 10 28
M  V30 16 1 10 32
M  V30 17 1 11 15
M  V30 18 1 12 34
M  V30 19 1 13 34
M  V30 20 1 14 27
M  V30 21 2 16 17
M  V30 22 1 16 18
M  V30 23 1 17 19
M  V30 24 2 18 20
M  V30 25 2 19 33
M  V30 26 1 20 33
M  V30 27 3 21 24
M  V30 28 1 21 29
M  V30 29 1 22 25
M  V30 30 2 22 32
M  V30 31 1 23 27
M  V30 32 1 23 33
M  V30 33 1 34 24
M  V30 34 1 26 30
M  V30 35 1 28 30
M  V30 36 2 29 31
M  V30 37 1 31 32
M  V30 38 1 1 35
M  V30 39 1 4 36
M  V30 40 1 4 37
M  V30 41 1 5 38
M  V30 42 1 5 39
M  V30 43 1 11 40
M  V30 44 1 11 41
M  V30 45 1 11 42
M  V30 46 1 12 43
M  V30 47 1 12 44
M  V30 48 1 12 45
M  V30 49 1 13 46
M  V30 50 1 13 47
M  V30 51 1 13 48
M  V30 52 1 14 49
M  V30 53 1 14 50
M  V30 54 1 15 51
M  V30 55 1 15 52
M  V30 56 1 16 53
M  V30 57 1 17 54
M  V30 58 1 18 55
M  V30 59 1 19 56
M  V30 60 1 20 57
M  V30 61 1 22 58
M  V30 62 1 23 59
M  V30 63 1 23 60
M  V30 64 1 27 61 CFG=1
M  V30 65 1 5 62
M  V30 END BOND
M  V30 END CTAB
M  END
>  <Ligand_Instance>  (154) 
3E8C_G96_D_351

>  <Dataset>  (154) 
PDB

>  <PDB_ID>  (154) 
3E8C

>  <Chain>  (154) 
D

>  <Resi>  (154) 
351

>  <Num_Resolved_Atoms>  (154) 
34

>  <Num_H_Atoms_ProtBoundConf>  (154) 
28

>  <Pocket>  (154) 
A, B

>  <Name>  (154) 
4-[2-(4-amino-1,2,5-oxadiazol-3-yl)-6-{[(2R)-2-amino-3-phenylpropyl]oxy}-1-ethyl-1H-imidazo[4,5-c]pyridin-4-yl]-2-methylbut-3-yn-2-ol

>  <Num_Not_Resolved_Atoms>  (154) 
0

>  <ATP_Site>  (154) 
True

>  <Peripheral>  (154) 
False

>  <Standardized_SMILES>  (154) 
[H]OC(C#CC1=C2N=C(C3=NON=C3N([H])[H])N(C([H])([H])C([H])([H])[H])C2=C([H])C(OC([H])([H])[C@@]([H])(C([H])([H])C2=C([H])C([H])=C([H])C([H])=C2[H])[N+]([H])([H])[H])=N1)(C([H])([H])[H])C([H])([H])[H]

>  <2D_Mol_H>  (154) 
<rdkit.Chem.rdchem.Mol object at 0x77059d9fa880>

>  <MW>  (154) 
462.534

>  <HBA>  (154) 
9

>  <HBD>  (154) 
3

>  <LogP>  (154) 
1.4378

>  <NRB>  (154) 
13

>  <TPSA>  (154) 
152.75

>  <Num_Heavy_Atoms>  (154) 
34

>  <Ro5>  (154) 
[True, True, True, True, False, False]

>  <Ro5_Fulfilled>  (154) 
False

>  <Ro3>  (154) 
[False, False, True, True]

>  <Ro3_Fulfilled>  (154) 
False

>  <Fsp3>  (154) 
0.333333

>  <Fsp3_0.42>  (154) 
False

>  <Fsp3_0.45>  (154) 
False

>  <Stereogenic_Carbons>  (154) 
1

>  <C_Atoms>  (154) 
24

>  <FCStereo>  (154) 
0.041667

>  <SPS>  (154) 
421

>  <nSPS>  (154) 
12.382353

>  <PBF>  (154) 
1.170205

>  <PBF_0.6>  (154) 
True

>  <nPBF>  (154) 
0.034418

>  <nPBF_0.016>  (154) 
True

>  <PMI1>  (154) 
3611.895475

>  <PMI2>  (154) 
8121.769477

>  <PMI3>  (154) 
10331.370082

>  <NPR1>  (154) 
0.349605

>  <NPR2>  (154) 
0.786127

>  <Sum_NPR>  (154) 
1.135732

>  <Sum_NPR_1.07>  (154) 
True

>  <Sum_NPR_1.2>  (154) 
False

>  <MaxAbsEStateIndex>  (154) 
10.115531

>  <MaxEStateIndex>  (154) 
10.115531

>  <MinAbsEStateIndex>  (154) 
0.026348

>  <MinEStateIndex>  (154) 
-1.198813

>  <qed>  (154) 
0.34881

>  <MolWt>  (154) 
462.534

>  <HeavyAtomMolWt>  (154) 
434.31

>  <ExactMolWt>  (154) 
462.224814

>  <NumValenceElectrons>  (154) 
176

>  <NumRadicalElectrons>  (154) 
0

>  <MaxPartialCharge>  (154) 
0.216405

>  <MinPartialCharge>  (154) 
-0.471235

>  <MaxAbsPartialCharge>  (154) 
0.471235

>  <MinAbsPartialCharge>  (154) 
0.216405

>  <FpDensityMorgan1>  (154) 
1.235294

>  <FpDensityMorgan2>  (154) 
2.0

>  <FpDensityMorgan3>  (154) 
2.647059

>  <BCUT2D_MWHI>  (154) 
16.564585

>  <BCUT2D_MWLOW>  (154) 
10.079959

>  <BCUT2D_CHGHI>  (154) 
2.217902

>  <BCUT2D_CHGLO>  (154) 
-2.114571

>  <BCUT2D_LOGPHI>  (154) 
2.294627

>  <BCUT2D_LOGPLOW>  (154) 
-2.641859

>  <BCUT2D_MRHI>  (154) 
5.857768

>  <BCUT2D_MRLOW>  (154) 
-0.422797

>  <AvgIpc>  (154) 
3.38418

>  <BalabanJ>  (154) 
1.718732

>  <BertzCT>  (154) 
1344.139623

>  <Chi0>  (154) 
24.294318

>  <Chi0n>  (154) 
19.447007

>  <Chi0v>  (154) 
19.447007

>  <Chi1>  (154) 
16.247333

>  <Chi1n>  (154) 
10.998751

>  <Chi1v>  (154) 
10.998751

>  <Chi2n>  (154) 
8.530342

>  <Chi2v>  (154) 
8.530342

>  <Chi3n>  (154) 
5.076144

>  <Chi3v>  (154) 
5.076144

>  <Chi4n>  (154) 
3.532694

>  <Chi4v>  (154) 
3.532694

>  <HallKierAlpha>  (154) 
-3.94

>  <Ipc>  (154) 
47023446.06636

>  <Kappa1>  (154) 
23.226004

>  <Kappa2>  (154) 
9.506395

>  <Kappa3>  (154) 
5.166963

>  <LabuteASA>  (154) 
196.458229

>  <PEOE_VSA1>  (154) 
25.877825

>  <PEOE_VSA10>  (154) 
29.460402

>  <PEOE_VSA11>  (154) 
17.336195

>  <PEOE_VSA12>  (154) 
5.879988

>  <PEOE_VSA13>  (154) 
0.0

>  <PEOE_VSA14>  (154) 
0.0

>  <PEOE_VSA2>  (154) 
0.0

>  <PEOE_VSA3>  (154) 
14.596996

>  <PEOE_VSA4>  (154) 
0.0

>  <PEOE_VSA5>  (154) 
0.0

>  <PEOE_VSA6>  (154) 
36.25227

>  <PEOE_VSA7>  (154) 
42.568424

>  <PEOE_VSA8>  (154) 
19.031945

>  <PEOE_VSA9>  (154) 
5.516701

>  <SMR_VSA1>  (154) 
20.206097

>  <SMR_VSA10>  (154) 
16.851264

>  <SMR_VSA2>  (154) 
0.0

>  <SMR_VSA3>  (154) 
24.848383

>  <SMR_VSA4>  (154) 
0.0

>  <SMR_VSA5>  (154) 
45.379681

>  <SMR_VSA6>  (154) 
12.340549

>  <SMR_VSA7>  (154) 
47.655582

>  <SMR_VSA8>  (154) 
0.0

>  <SMR_VSA9>  (154) 
29.239189

>  <SlogP_VSA1>  (154) 
16.204198

>  <SlogP_VSA10>  (154) 
5.817863

>  <SlogP_VSA11>  (154) 
5.879988

>  <SlogP_VSA12>  (154) 
0.0

>  <SlogP_VSA2>  (154) 
48.204684

>  <SlogP_VSA3>  (154) 
12.965578

>  <SlogP_VSA4>  (154) 
11.840869

>  <SlogP_VSA5>  (154) 
32.028591

>  <SlogP_VSA6>  (154) 
41.027241

>  <SlogP_VSA7>  (154) 
0.0

>  <SlogP_VSA8>  (154) 
22.551734

>  <SlogP_VSA9>  (154) 
0.0

>  <EState_VSA1>  (154) 
5.601051

>  <EState_VSA10>  (154) 
5.106527

>  <EState_VSA11>  (154) 
0.0

>  <EState_VSA2>  (154) 
11.859704

>  <EState_VSA3>  (154) 
41.760588

>  <EState_VSA4>  (154) 
11.937522

>  <EState_VSA5>  (154) 
5.563451

>  <EState_VSA6>  (154) 
13.847474

>  <EState_VSA7>  (154) 
35.756305

>  <EState_VSA8>  (154) 
49.988554

>  <EState_VSA9>  (154) 
15.099569

>  <VSA_EState1>  (154) 
12.713547

>  <VSA_EState10>  (154) 
0.0

>  <VSA_EState2>  (154) 
9.259729

>  <VSA_EState3>  (154) 
17.672196

>  <VSA_EState4>  (154) 
12.120692

>  <VSA_EState5>  (154) 
6.764835

>  <VSA_EState6>  (154) 
11.972152

>  <VSA_EState7>  (154) 
0.781672

>  <VSA_EState8>  (154) 
6.131844

>  <VSA_EState9>  (154) 
0.0

>  <FractionCSP3>  (154) 
0.333333

>  <HeavyAtomCount>  (154) 
34

>  <NHOHCount>  (154) 
6

>  <NOCount>  (154) 
10

>  <NumAliphaticCarbocycles>  (154) 
0

>  <NumAliphaticHeterocycles>  (154) 
0

>  <NumAliphaticRings>  (154) 
0

>  <NumAromaticCarbocycles>  (154) 
1

>  <NumAromaticHeterocycles>  (154) 
3

>  <NumAromaticRings>  (154) 
4

>  <NumHAcceptors>  (154) 
9

>  <NumHDonors>  (154) 
3

>  <NumHeteroatoms>  (154) 
10

>  <NumRotatableBonds>  (154) 
7

>  <NumSaturatedCarbocycles>  (154) 
0

>  <NumSaturatedHeterocycles>  (154) 
0

>  <NumSaturatedRings>  (154) 
0

>  <RingCount>  (154) 
4

>  <MolLogP>  (154) 
1.4378

>  <MolMR>  (154) 
126.3993

>  <fr_Al_COO>  (154) 
0

>  <fr_Al_OH>  (154) 
1

>  <fr_Al_OH_noTert>  (154) 
0

>  <fr_ArN>  (154) 
1

>  <fr_Ar_COO>  (154) 
0

>  <fr_Ar_N>  (154) 
5

>  <fr_Ar_NH>  (154) 
0

>  <fr_Ar_OH>  (154) 
0

>  <fr_COO>  (154) 
0

>  <fr_COO2>  (154) 
0

>  <fr_C_O>  (154) 
0

>  <fr_C_O_noCOO>  (154) 
0

>  <fr_C_S>  (154) 
0

>  <fr_HOCCN>  (154) 
0

>  <fr_Imine>  (154) 
0

>  <fr_NH0>  (154) 
5

>  <fr_NH1>  (154) 
0

>  <fr_NH2>  (154) 
1

>  <fr_N_O>  (154) 
0

>  <fr_Ndealkylation1>  (154) 
0

>  <fr_Ndealkylation2>  (154) 
0

>  <fr_Nhpyrrole>  (154) 
0

>  <fr_SH>  (154) 
0

>  <fr_aldehyde>  (154) 
0

>  <fr_alkyl_carbamate>  (154) 
0

>  <fr_alkyl_halide>  (154) 
0

>  <fr_allylic_oxid>  (154) 
0

>  <fr_amide>  (154) 
0

>  <fr_amidine>  (154) 
0

>  <fr_aniline>  (154) 
1

>  <fr_aryl_methyl>  (154) 
1

>  <fr_azide>  (154) 
0

>  <fr_azo>  (154) 
0

>  <fr_barbitur>  (154) 
0

>  <fr_benzene>  (154) 
1

>  <fr_benzodiazepine>  (154) 
0

>  <fr_bicyclic>  (154) 
1

>  <fr_diazo>  (154) 
0

>  <fr_dihydropyridine>  (154) 
0

>  <fr_epoxide>  (154) 
0

>  <fr_ester>  (154) 
0

>  <fr_ether>  (154) 
1

>  <fr_furan>  (154) 
0

>  <fr_guanido>  (154) 
0

>  <fr_halogen>  (154) 
0

>  <fr_hdrzine>  (154) 
0

>  <fr_hdrzone>  (154) 
0

>  <fr_imidazole>  (154) 
1

>  <fr_imide>  (154) 
0

>  <fr_isocyan>  (154) 
0

>  <fr_isothiocyan>  (154) 
0

>  <fr_ketone>  (154) 
0

>  <fr_ketone_Topliss>  (154) 
0

>  <fr_lactam>  (154) 
0

>  <fr_lactone>  (154) 
0

>  <fr_methoxy>  (154) 
0

>  <fr_morpholine>  (154) 
0

>  <fr_nitrile>  (154) 
0

>  <fr_nitro>  (154) 
0

>  <fr_nitro_arom>  (154) 
0

>  <fr_nitro_arom_nonortho>  (154) 
0

>  <fr_nitroso>  (154) 
0

>  <fr_oxazole>  (154) 
0

>  <fr_oxime>  (154) 
0

>  <fr_para_hydroxylation>  (154) 
0

>  <fr_phenol>  (154) 
0

>  <fr_phenol_noOrthoHbond>  (154) 
0

>  <fr_phos_acid>  (154) 
0

>  <fr_phos_ester>  (154) 
0

>  <fr_piperdine>  (154) 
0

>  <fr_piperzine>  (154) 
0

>  <fr_priamide>  (154) 
0

>  <fr_prisulfonamd>  (154) 
0

>  <fr_pyridine>  (154) 
1

>  <fr_quatN>  (154) 
1

>  <fr_sulfide>  (154) 
0

>  <fr_sulfonamd>  (154) 
0

>  <fr_sulfone>  (154) 
0

>  <fr_term_acetylene>  (154) 
0

>  <fr_tetrazole>  (154) 
0

>  <fr_thiazole>  (154) 
0

>  <fr_thiocyan>  (154) 
0

>  <fr_thiophene>  (154) 
0

>  <fr_unbrch_alkane>  (154) 
0

>  <fr_urea>  (154) 
0

>  <NP_Likeness>  (154) 
-0.766942

$$$$
G96
     RDKit          3D

  0  0  0  0  0  0  0  0  0  0999 V3000
M  V30 BEGIN CTAB
M  V30 COUNTS 62 65 0 0 0
M  V30 BEGIN ATOM
M  V30 1 O -46.100000 -7.023000 72.438000 0
M  V30 2 O -56.284000 -7.490000 71.280000 0
M  V30 3 O -49.024000 -12.915000 70.020000 0
M  V30 4 N -53.184000 -6.245000 72.219000 0
M  V30 5 N -47.389000 -14.154000 68.069000 0 CHG=1
M  V30 6 N -55.524000 -6.403000 71.829000 0
M  V30 7 N -55.496000 -8.645000 70.928000 0
M  V30 8 N -49.001000 -10.775000 71.028000 0
M  V30 9 N -51.896000 -8.535000 71.539000 0
M  V30 10 N -53.031000 -10.206000 70.551000 0
M  V30 11 C -54.882000 -11.736000 71.053000 0
M  V30 12 C -47.148000 -7.352000 74.571000 0
M  V30 13 C -47.930000 -5.552000 73.001000 0
M  V30 14 C -47.638000 -13.141000 70.254000 0
M  V30 15 C -54.101000 -11.026000 69.969000 0
M  V30 16 C -47.377000 -16.177000 74.144000 0
M  V30 17 C -48.519000 -15.519000 73.691000 0
M  V30 18 C -46.438000 -16.655000 73.231000 0
M  V30 19 C -48.727000 -15.344000 72.322000 0
M  V30 20 C -46.637000 -16.478000 71.863000 0
M  V30 21 C -48.957000 -8.737000 71.987000 0
M  V30 22 C -51.046000 -11.689000 70.222000 0
M  V30 23 C -47.997000 -15.622000 69.924000 0
M  V30 24 C -48.273000 -7.926000 72.495000 0
M  V30 25 C -49.672000 -11.784000 70.432000 0
M  V30 26 C -54.284000 -6.933000 71.791000 0
M  V30 27 C -47.204000 -14.390000 69.488000 0 CFG=1
M  V30 28 C -53.087000 -8.990000 71.111000 0
M  V30 29 C -49.647000 -9.661000 71.434000 0
M  V30 30 C -54.255000 -8.222000 71.263000 0
M  V30 31 C -51.022000 -9.522000 71.241000 0
M  V30 32 C -51.736000 -10.553000 70.627000 0
M  V30 33 C -47.784000 -15.826000 71.407000 0
M  V30 34 C -47.358000 -6.960000 73.115000 0
M  V30 35 H -45.526800 -7.722900 72.864100 0
M  V30 36 H -52.280100 -6.670500 72.175700 0
M  V30 37 H -53.282800 -5.316000 72.575600 0
M  V30 38 H -46.712600 -14.679400 67.552700 0
M  V30 39 H -48.308900 -14.440100 67.800700 0
M  V30 40 H -55.604400 -12.287900 70.636300 0
M  V30 41 H -54.267200 -12.329200 71.572700 0
M  V30 42 H -55.290700 -11.060200 71.666400 0
M  V30 43 H -48.021400 -7.312000 75.056300 0
M  V30 44 H -46.783700 -8.282200 74.616600 0
M  V30 45 H -46.500900 -6.719400 74.996500 0
M  V30 46 H -48.809500 -5.510100 73.475000 0
M  V30 47 H -47.295900 -4.900000 73.416700 0
M  V30 48 H -48.059800 -5.322000 72.036500 0
M  V30 49 H -47.480300 -13.275500 71.232300 0
M  V30 50 H -47.111000 -12.352600 69.936700 0
M  V30 51 H -53.697200 -11.705800 69.356800 0
M  V30 52 H -54.720700 -10.436800 69.450500 0
M  V30 53 H -47.231000 -16.306400 75.124800 0
M  V30 54 H -49.189500 -15.172200 74.346900 0
M  V30 55 H -45.619200 -17.126300 73.558700 0
M  V30 56 H -49.547900 -14.875300 71.995700 0
M  V30 57 H -45.960000 -16.817100 71.209900 0
M  V30 58 H -51.536400 -12.439600 69.779100 0
M  V30 59 H -47.675500 -16.425400 69.422900 0
M  V30 60 H -48.969500 -15.480700 69.738700 0
M  V30 61 H -46.233100 -14.553700 69.663100 0
M  V30 62 H -47.273000 -13.179800 67.875200 0
M  V30 END ATOM
M  V30 BEGIN BOND
M  V30 1 1 1 34
M  V30 2 1 2 6
M  V30 3 1 2 7
M  V30 4 1 3 14
M  V30 5 1 3 25
M  V30 6 1 4 26
M  V30 7 1 5 27
M  V30 8 2 6 26
M  V30 9 2 7 30
M  V30 10 2 8 25
M  V30 11 1 8 29
M  V30 12 2 9 28
M  V30 13 1 9 31
M  V30 14 1 10 15
M  V30 15 1 10 28
M  V30 16 1 10 32
M  V30 17 1 11 15
M  V30 18 1 12 34
M  V30 19 1 13 34
M  V30 20 1 14 27
M  V30 21 2 16 17
M  V30 22 1 16 18
M  V30 23 1 17 19
M  V30 24 2 18 20
M  V30 25 2 19 33
M  V30 26 1 20 33
M  V30 27 3 21 24
M  V30 28 1 21 29
M  V30 29 1 22 25
M  V30 30 2 22 32
M  V30 31 1 23 27
M  V30 32 1 23 33
M  V30 33 1 34 24
M  V30 34 1 26 30
M  V30 35 1 28 30
M  V30 36 2 29 31
M  V30 37 1 31 32
M  V30 38 1 1 35
M  V30 39 1 4 36
M  V30 40 1 4 37
M  V30 41 1 5 38
M  V30 42 1 5 39
M  V30 43 1 11 40
M  V30 44 1 11 41
M  V30 45 1 11 42
M  V30 46 1 12 43
M  V30 47 1 12 44
M  V30 48 1 12 45
M  V30 49 1 13 46
M  V30 50 1 13 47
M  V30 51 1 13 48
M  V30 52 1 14 49
M  V30 53 1 14 50
M  V30 54 1 15 51
M  V30 55 1 15 52
M  V30 56 1 16 53
M  V30 57 1 17 54
M  V30 58 1 18 55
M  V30 59 1 19 56
M  V30 60 1 20 57
M  V30 61 1 22 58
M  V30 62 1 23 59
M  V30 63 1 23 60
M  V30 64 1 27 61 CFG=3
M  V30 65 1 5 62
M  V30 END BOND
M  V30 END CTAB
M  END
>  <Ligand_Instance>  (155) 
3E8C_G96_E_351

>  <Dataset>  (155) 
PDB

>  <PDB_ID>  (155) 
3E8C

>  <Chain>  (155) 
E

>  <Resi>  (155) 
351

>  <Num_Resolved_Atoms>  (155) 
34

>  <Num_H_Atoms_ProtBoundConf>  (155) 
28

>  <Pocket>  (155) 
A, B

>  <Name>  (155) 
4-[2-(4-amino-1,2,5-oxadiazol-3-yl)-6-{[(2R)-2-amino-3-phenylpropyl]oxy}-1-ethyl-1H-imidazo[4,5-c]pyridin-4-yl]-2-methylbut-3-yn-2-ol

>  <Num_Not_Resolved_Atoms>  (155) 
0

>  <ATP_Site>  (155) 
True

>  <Peripheral>  (155) 
False

>  <Standardized_SMILES>  (155) 
[H]OC(C#CC1=C2N=C(C3=NON=C3N([H])[H])N(C([H])([H])C([H])([H])[H])C2=C([H])C(OC([H])([H])[C@@]([H])(C([H])([H])C2=C([H])C([H])=C([H])C([H])=C2[H])[N+]([H])([H])[H])=N1)(C([H])([H])[H])C([H])([H])[H]

>  <2D_Mol_H>  (155) 
<rdkit.Chem.rdchem.Mol object at 0x77059d9fa960>

>  <MW>  (155) 
462.534

>  <HBA>  (155) 
9

>  <HBD>  (155) 
3

>  <LogP>  (155) 
1.4378

>  <NRB>  (155) 
13

>  <TPSA>  (155) 
152.75

>  <Num_Heavy_Atoms>  (155) 
34

>  <Ro5>  (155) 
[True, True, True, True, False, False]

>  <Ro5_Fulfilled>  (155) 
False

>  <Ro3>  (155) 
[False, False, True, True]

>  <Ro3_Fulfilled>  (155) 
False

>  <Fsp3>  (155) 
0.333333

>  <Fsp3_0.42>  (155) 
False

>  <Fsp3_0.45>  (155) 
False

>  <Stereogenic_Carbons>  (155) 
1

>  <C_Atoms>  (155) 
24

>  <FCStereo>  (155) 
0.041667

>  <SPS>  (155) 
421

>  <nSPS>  (155) 
12.382353

>  <PBF>  (155) 
1.167372

>  <PBF_0.6>  (155) 
True

>  <nPBF>  (155) 
0.034334

>  <nPBF_0.016>  (155) 
True

>  <PMI1>  (155) 
3605.348835

>  <PMI2>  (155) 
7967.32674

>  <PMI3>  (155) 
10140.591694

>  <NPR1>  (155) 
0.355536

>  <NPR2>  (155) 
0.785687

>  <Sum_NPR>  (155) 
1.141223

>  <Sum_NPR_1.07>  (155) 
True

>  <Sum_NPR_1.2>  (155) 
False

>  <MaxAbsEStateIndex>  (155) 
10.115531

>  <MaxEStateIndex>  (155) 
10.115531

>  <MinAbsEStateIndex>  (155) 
0.026348

>  <MinEStateIndex>  (155) 
-1.198813

>  <qed>  (155) 
0.34881

>  <MolWt>  (155) 
462.534

>  <HeavyAtomMolWt>  (155) 
434.31

>  <ExactMolWt>  (155) 
462.224814

>  <NumValenceElectrons>  (155) 
176

>  <NumRadicalElectrons>  (155) 
0

>  <MaxPartialCharge>  (155) 
0.216405

>  <MinPartialCharge>  (155) 
-0.471235

>  <MaxAbsPartialCharge>  (155) 
0.471235

>  <MinAbsPartialCharge>  (155) 
0.216405

>  <FpDensityMorgan1>  (155) 
1.235294

>  <FpDensityMorgan2>  (155) 
2.0

>  <FpDensityMorgan3>  (155) 
2.647059

>  <BCUT2D_MWHI>  (155) 
16.564585

>  <BCUT2D_MWLOW>  (155) 
10.079959

>  <BCUT2D_CHGHI>  (155) 
2.217902

>  <BCUT2D_CHGLO>  (155) 
-2.114571

>  <BCUT2D_LOGPHI>  (155) 
2.294627

>  <BCUT2D_LOGPLOW>  (155) 
-2.641859

>  <BCUT2D_MRHI>  (155) 
5.857768

>  <BCUT2D_MRLOW>  (155) 
-0.422797

>  <AvgIpc>  (155) 
3.38418

>  <BalabanJ>  (155) 
1.718732

>  <BertzCT>  (155) 
1344.139623

>  <Chi0>  (155) 
24.294318

>  <Chi0n>  (155) 
19.447007

>  <Chi0v>  (155) 
19.447007

>  <Chi1>  (155) 
16.247333

>  <Chi1n>  (155) 
10.998751

>  <Chi1v>  (155) 
10.998751

>  <Chi2n>  (155) 
8.530342

>  <Chi2v>  (155) 
8.530342

>  <Chi3n>  (155) 
5.076144

>  <Chi3v>  (155) 
5.076144

>  <Chi4n>  (155) 
3.532694

>  <Chi4v>  (155) 
3.532694

>  <HallKierAlpha>  (155) 
-3.94

>  <Ipc>  (155) 
47023446.06636

>  <Kappa1>  (155) 
23.226004

>  <Kappa2>  (155) 
9.506395

>  <Kappa3>  (155) 
5.166963

>  <LabuteASA>  (155) 
196.458229

>  <PEOE_VSA1>  (155) 
25.877825

>  <PEOE_VSA10>  (155) 
29.460402

>  <PEOE_VSA11>  (155) 
17.336195

>  <PEOE_VSA12>  (155) 
5.879988

>  <PEOE_VSA13>  (155) 
0.0

>  <PEOE_VSA14>  (155) 
0.0

>  <PEOE_VSA2>  (155) 
0.0

>  <PEOE_VSA3>  (155) 
14.596996

>  <PEOE_VSA4>  (155) 
0.0

>  <PEOE_VSA5>  (155) 
0.0

>  <PEOE_VSA6>  (155) 
36.25227

>  <PEOE_VSA7>  (155) 
42.568424

>  <PEOE_VSA8>  (155) 
19.031945

>  <PEOE_VSA9>  (155) 
5.516701

>  <SMR_VSA1>  (155) 
20.206097

>  <SMR_VSA10>  (155) 
16.851264

>  <SMR_VSA2>  (155) 
0.0

>  <SMR_VSA3>  (155) 
24.848383

>  <SMR_VSA4>  (155) 
0.0

>  <SMR_VSA5>  (155) 
45.379681

>  <SMR_VSA6>  (155) 
12.340549

>  <SMR_VSA7>  (155) 
47.655582

>  <SMR_VSA8>  (155) 
0.0

>  <SMR_VSA9>  (155) 
29.239189

>  <SlogP_VSA1>  (155) 
16.204198

>  <SlogP_VSA10>  (155) 
5.817863

>  <SlogP_VSA11>  (155) 
5.879988

>  <SlogP_VSA12>  (155) 
0.0

>  <SlogP_VSA2>  (155) 
48.204684

>  <SlogP_VSA3>  (155) 
12.965578

>  <SlogP_VSA4>  (155) 
11.840869

>  <SlogP_VSA5>  (155) 
32.028591

>  <SlogP_VSA6>  (155) 
41.027241

>  <SlogP_VSA7>  (155) 
0.0

>  <SlogP_VSA8>  (155) 
22.551734

>  <SlogP_VSA9>  (155) 
0.0

>  <EState_VSA1>  (155) 
5.601051

>  <EState_VSA10>  (155) 
5.106527

>  <EState_VSA11>  (155) 
0.0

>  <EState_VSA2>  (155) 
11.859704

>  <EState_VSA3>  (155) 
41.760588

>  <EState_VSA4>  (155) 
11.937522

>  <EState_VSA5>  (155) 
5.563451

>  <EState_VSA6>  (155) 
13.847474

>  <EState_VSA7>  (155) 
35.756305

>  <EState_VSA8>  (155) 
49.988554

>  <EState_VSA9>  (155) 
15.099569

>  <VSA_EState1>  (155) 
12.713547

>  <VSA_EState10>  (155) 
0.0

>  <VSA_EState2>  (155) 
9.259729

>  <VSA_EState3>  (155) 
17.672196

>  <VSA_EState4>  (155) 
12.120692

>  <VSA_EState5>  (155) 
6.764835

>  <VSA_EState6>  (155) 
11.972152

>  <VSA_EState7>  (155) 
0.781672

>  <VSA_EState8>  (155) 
6.131844

>  <VSA_EState9>  (155) 
0.0

>  <FractionCSP3>  (155) 
0.333333

>  <HeavyAtomCount>  (155) 
34

>  <NHOHCount>  (155) 
6

>  <NOCount>  (155) 
10

>  <NumAliphaticCarbocycles>  (155) 
0

>  <NumAliphaticHeterocycles>  (155) 
0

>  <NumAliphaticRings>  (155) 
0

>  <NumAromaticCarbocycles>  (155) 
1

>  <NumAromaticHeterocycles>  (155) 
3

>  <NumAromaticRings>  (155) 
4

>  <NumHAcceptors>  (155) 
9

>  <NumHDonors>  (155) 
3

>  <NumHeteroatoms>  (155) 
10

>  <NumRotatableBonds>  (155) 
7

>  <NumSaturatedCarbocycles>  (155) 
0

>  <NumSaturatedHeterocycles>  (155) 
0

>  <NumSaturatedRings>  (155) 
0

>  <RingCount>  (155) 
4

>  <MolLogP>  (155) 
1.4378

>  <MolMR>  (155) 
126.3993

>  <fr_Al_COO>  (155) 
0

>  <fr_Al_OH>  (155) 
1

>  <fr_Al_OH_noTert>  (155) 
0

>  <fr_ArN>  (155) 
1

>  <fr_Ar_COO>  (155) 
0

>  <fr_Ar_N>  (155) 
5

>  <fr_Ar_NH>  (155) 
0

>  <fr_Ar_OH>  (155) 
0

>  <fr_COO>  (155) 
0

>  <fr_COO2>  (155) 
0

>  <fr_C_O>  (155) 
0

>  <fr_C_O_noCOO>  (155) 
0

>  <fr_C_S>  (155) 
0

>  <fr_HOCCN>  (155) 
0

>  <fr_Imine>  (155) 
0

>  <fr_NH0>  (155) 
5

>  <fr_NH1>  (155) 
0

>  <fr_NH2>  (155) 
1

>  <fr_N_O>  (155) 
0

>  <fr_Ndealkylation1>  (155) 
0

>  <fr_Ndealkylation2>  (155) 
0

>  <fr_Nhpyrrole>  (155) 
0

>  <fr_SH>  (155) 
0

>  <fr_aldehyde>  (155) 
0

>  <fr_alkyl_carbamate>  (155) 
0

>  <fr_alkyl_halide>  (155) 
0

>  <fr_allylic_oxid>  (155) 
0

>  <fr_amide>  (155) 
0

>  <fr_amidine>  (155) 
0

>  <fr_aniline>  (155) 
1

>  <fr_aryl_methyl>  (155) 
1

>  <fr_azide>  (155) 
0

>  <fr_azo>  (155) 
0

>  <fr_barbitur>  (155) 
0

>  <fr_benzene>  (155) 
1

>  <fr_benzodiazepine>  (155) 
0

>  <fr_bicyclic>  (155) 
1

>  <fr_diazo>  (155) 
0

>  <fr_dihydropyridine>  (155) 
0

>  <fr_epoxide>  (155) 
0

>  <fr_ester>  (155) 
0

>  <fr_ether>  (155) 
1

>  <fr_furan>  (155) 
0

>  <fr_guanido>  (155) 
0

>  <fr_halogen>  (155) 
0

>  <fr_hdrzine>  (155) 
0

>  <fr_hdrzone>  (155) 
0

>  <fr_imidazole>  (155) 
1

>  <fr_imide>  (155) 
0

>  <fr_isocyan>  (155) 
0

>  <fr_isothiocyan>  (155) 
0

>  <fr_ketone>  (155) 
0

>  <fr_ketone_Topliss>  (155) 
0

>  <fr_lactam>  (155) 
0

>  <fr_lactone>  (155) 
0

>  <fr_methoxy>  (155) 
0

>  <fr_morpholine>  (155) 
0

>  <fr_nitrile>  (155) 
0

>  <fr_nitro>  (155) 
0

>  <fr_nitro_arom>  (155) 
0

>  <fr_nitro_arom_nonortho>  (155) 
0

>  <fr_nitroso>  (155) 
0

>  <fr_oxazole>  (155) 
0

>  <fr_oxime>  (155) 
0

>  <fr_para_hydroxylation>  (155) 
0

>  <fr_phenol>  (155) 
0

>  <fr_phenol_noOrthoHbond>  (155) 
0

>  <fr_phos_acid>  (155) 
0

>  <fr_phos_ester>  (155) 
0

>  <fr_piperdine>  (155) 
0

>  <fr_piperzine>  (155) 
0

>  <fr_priamide>  (155) 
0

>  <fr_prisulfonamd>  (155) 
0

>  <fr_pyridine>  (155) 
1

>  <fr_quatN>  (155) 
1

>  <fr_sulfide>  (155) 
0

>  <fr_sulfonamd>  (155) 
0

>  <fr_sulfone>  (155) 
0

>  <fr_term_acetylene>  (155) 
0

>  <fr_tetrazole>  (155) 
0

>  <fr_thiazole>  (155) 
0

>  <fr_thiocyan>  (155) 
0

>  <fr_thiophene>  (155) 
0

>  <fr_unbrch_alkane>  (155) 
0

>  <fr_urea>  (155) 
0

>  <NP_Likeness>  (155) 
-0.766942

$$$$
G96
     RDKit          3D

  0  0  0  0  0  0  0  0  0  0999 V3000
M  V30 BEGIN CTAB
M  V30 COUNTS 62 65 0 0 0
M  V30 BEGIN ATOM
M  V30 1 O -9.314000 -3.114000 80.047000 0
M  V30 2 O 0.845000 -1.336000 80.997000 0
M  V30 3 O -4.864000 -8.473000 81.265000 0
M  V30 4 N -2.520000 -0.677000 80.460000 0
M  V30 5 N -6.226000 -10.541000 82.669000 0 CHG=1
M  V30 6 N -0.178000 -0.362000 80.719000 0
M  V30 7 N 0.358000 -2.687000 81.117000 0
M  V30 8 N -5.429000 -6.255000 80.674000 0
M  V30 9 N -3.193000 -3.312000 80.596000 0
M  V30 10 N -1.647000 -4.811000 81.262000 0
M  V30 11 C 0.468000 -5.804000 80.488000 0
M  V30 12 C -8.269000 -2.391000 78.003000 0
M  V30 13 C -7.868000 -1.209000 80.185000 0
M  V30 14 C -6.118000 -8.965000 80.801000 0
M  V30 15 C -0.385000 -5.437000 81.686000 0
M  V30 16 C -5.766000 -11.231000 76.309000 0
M  V30 17 C -4.768000 -10.458000 76.900000 0
M  V30 18 C -6.584000 -12.036000 77.093000 0
M  V30 19 C -4.586000 -10.488000 78.280000 0
M  V30 20 C -6.412000 -12.063000 78.474000 0
M  V30 21 C -6.033000 -4.132000 80.102000 0
M  V30 22 C -3.195000 -6.774000 81.306000 0
M  V30 23 C -5.231000 -11.315000 80.570000 0
M  V30 24 C -6.951000 -3.444000 79.782000 0
M  V30 25 C -4.512000 -7.163000 81.080000 0
M  V30 26 C -1.263000 -1.161000 80.688000 0
M  V30 27 C -6.292000 -10.424000 81.219000 0 CFG=1
M  V30 28 C -1.912000 -3.535000 80.941000 0
M  V30 29 C -5.106000 -4.951000 80.478000 0
M  V30 30 C -0.966000 -2.500000 80.929000 0
M  V30 31 C -3.793000 -4.519000 80.701000 0
M  V30 32 C -2.825000 -5.443000 81.120000 0
M  V30 33 C -5.411000 -11.292000 79.068000 0
M  V30 34 C -8.102000 -2.555000 79.512000 0
M  V30 35 H -9.485900 -4.003700 79.623900 0
M  V30 36 H -3.301000 -1.301400 80.444400 0
M  V30 37 H -2.659100 0.301600 80.308700 0
M  V30 38 H -6.789900 -11.311100 82.967300 0
M  V30 39 H -5.278100 -10.694100 82.948300 0
M  V30 40 H 1.318300 -6.226800 80.801200 0
M  V30 41 H -0.030900 -6.448300 79.908400 0
M  V30 42 H 0.679300 -4.978900 79.964000 0
M  V30 43 H -7.433000 -2.002600 77.615400 0
M  V30 44 H -8.445300 -3.283700 77.588200 0
M  V30 45 H -9.038000 -1.779400 77.817300 0
M  V30 46 H -7.028300 -0.799500 79.828300 0
M  V30 47 H -8.640800 -0.603100 79.996100 0
M  V30 48 H -7.781300 -1.340700 81.172500 0
M  V30 49 H -6.151100 -8.899800 79.803700 0
M  V30 50 H -6.855600 -8.417000 81.195600 0
M  V30 51 H -0.589800 -6.265100 82.207800 0
M  V30 52 H 0.120500 -4.795700 82.263300 0
M  V30 53 H -5.893900 -11.206300 75.317500 0
M  V30 54 H -4.181600 -9.880800 76.331700 0
M  V30 55 H -7.294800 -12.594800 76.665700 0
M  V30 56 H -3.867900 -9.936400 78.704400 0
M  V30 57 H -7.005400 -12.634600 79.040700 0
M  V30 58 H -2.516600 -7.446900 81.600800 0
M  V30 59 H -5.331500 -12.252100 80.904300 0
M  V30 60 H -4.320200 -10.973900 80.802700 0
M  V30 61 H -7.193500 -10.734300 80.917200 0
M  V30 62 H -6.564700 -9.698100 83.087200 0
M  V30 END ATOM
M  V30 BEGIN BOND
M  V30 1 1 1 34
M  V30 2 1 2 6
M  V30 3 1 2 7
M  V30 4 1 3 14
M  V30 5 1 3 25
M  V30 6 1 4 26
M  V30 7 1 5 27
M  V30 8 2 6 26
M  V30 9 2 7 30
M  V30 10 2 8 25
M  V30 11 1 8 29
M  V30 12 2 9 28
M  V30 13 1 9 31
M  V30 14 1 10 15
M  V30 15 1 10 28
M  V30 16 1 10 32
M  V30 17 1 11 15
M  V30 18 1 12 34
M  V30 19 1 13 34
M  V30 20 1 14 27
M  V30 21 2 16 17
M  V30 22 1 16 18
M  V30 23 1 17 19
M  V30 24 2 18 20
M  V30 25 2 19 33
M  V30 26 1 20 33
M  V30 27 3 21 24
M  V30 28 1 21 29
M  V30 29 1 22 25
M  V30 30 2 22 32
M  V30 31 1 23 27
M  V30 32 1 23 33
M  V30 33 1 34 24
M  V30 34 1 26 30
M  V30 35 1 28 30
M  V30 36 2 29 31
M  V30 37 1 31 32
M  V30 38 1 1 35
M  V30 39 1 4 36
M  V30 40 1 4 37
M  V30 41 1 5 38
M  V30 42 1 5 39
M  V30 43 1 11 40
M  V30 44 1 11 41
M  V30 45 1 11 42
M  V30 46 1 12 43
M  V30 47 1 12 44
M  V30 48 1 12 45
M  V30 49 1 13 46
M  V30 50 1 13 47
M  V30 51 1 13 48
M  V30 52 1 14 49
M  V30 53 1 14 50
M  V30 54 1 15 51
M  V30 55 1 15 52
M  V30 56 1 16 53
M  V30 57 1 17 54
M  V30 58 1 18 55
M  V30 59 1 19 56
M  V30 60 1 20 57
M  V30 61 1 22 58
M  V30 62 1 23 59
M  V30 63 1 23 60
M  V30 64 1 27 61 CFG=3
M  V30 65 1 5 62
M  V30 END BOND
M  V30 END CTAB
M  END
>  <Ligand_Instance>  (156) 
3E8C_G96_F_351

>  <Dataset>  (156) 
PDB

>  <PDB_ID>  (156) 
3E8C

>  <Chain>  (156) 
F

>  <Resi>  (156) 
351

>  <Num_Resolved_Atoms>  (156) 
34

>  <Num_H_Atoms_ProtBoundConf>  (156) 
28

>  <Pocket>  (156) 
A, B

>  <Name>  (156) 
4-[2-(4-amino-1,2,5-oxadiazol-3-yl)-6-{[(2R)-2-amino-3-phenylpropyl]oxy}-1-ethyl-1H-imidazo[4,5-c]pyridin-4-yl]-2-methylbut-3-yn-2-ol

>  <Num_Not_Resolved_Atoms>  (156) 
0

>  <ATP_Site>  (156) 
True

>  <Peripheral>  (156) 
False

>  <Standardized_SMILES>  (156) 
[H]OC(C#CC1=C2N=C(C3=NON=C3N([H])[H])N(C([H])([H])C([H])([H])[H])C2=C([H])C(OC([H])([H])[C@@]([H])(C([H])([H])C2=C([H])C([H])=C([H])C([H])=C2[H])[N+]([H])([H])[H])=N1)(C([H])([H])[H])C([H])([H])[H]

>  <2D_Mol_H>  (156) 
<rdkit.Chem.rdchem.Mol object at 0x77059d9faa40>

>  <MW>  (156) 
462.534

>  <HBA>  (156) 
9

>  <HBD>  (156) 
3

>  <LogP>  (156) 
1.4378

>  <NRB>  (156) 
13

>  <TPSA>  (156) 
152.75

>  <Num_Heavy_Atoms>  (156) 
34

>  <Ro5>  (156) 
[True, True, True, True, False, False]

>  <Ro5_Fulfilled>  (156) 
False

>  <Ro3>  (156) 
[False, False, True, True]

>  <Ro3_Fulfilled>  (156) 
False

>  <Fsp3>  (156) 
0.333333

>  <Fsp3_0.42>  (156) 
False

>  <Fsp3_0.45>  (156) 
False

>  <Stereogenic_Carbons>  (156) 
1

>  <C_Atoms>  (156) 
24

>  <FCStereo>  (156) 
0.041667

>  <SPS>  (156) 
421

>  <nSPS>  (156) 
12.382353

>  <PBF>  (156) 
1.19303

>  <PBF_0.6>  (156) 
True

>  <nPBF>  (156) 
0.035089

>  <nPBF_0.016>  (156) 
True

>  <PMI1>  (156) 
3680.841999

>  <PMI2>  (156) 
8069.995885

>  <PMI3>  (156) 
10265.297684

>  <NPR1>  (156) 
0.358571

>  <NPR2>  (156) 
0.786143

>  <Sum_NPR>  (156) 
1.144715

>  <Sum_NPR_1.07>  (156) 
True

>  <Sum_NPR_1.2>  (156) 
False

>  <MaxAbsEStateIndex>  (156) 
10.115531

>  <MaxEStateIndex>  (156) 
10.115531

>  <MinAbsEStateIndex>  (156) 
0.026348

>  <MinEStateIndex>  (156) 
-1.198813

>  <qed>  (156) 
0.34881

>  <MolWt>  (156) 
462.534

>  <HeavyAtomMolWt>  (156) 
434.31

>  <ExactMolWt>  (156) 
462.224814

>  <NumValenceElectrons>  (156) 
176

>  <NumRadicalElectrons>  (156) 
0

>  <MaxPartialCharge>  (156) 
0.216405

>  <MinPartialCharge>  (156) 
-0.471235

>  <MaxAbsPartialCharge>  (156) 
0.471235

>  <MinAbsPartialCharge>  (156) 
0.216405

>  <FpDensityMorgan1>  (156) 
1.235294

>  <FpDensityMorgan2>  (156) 
2.0

>  <FpDensityMorgan3>  (156) 
2.647059

>  <BCUT2D_MWHI>  (156) 
16.564585

>  <BCUT2D_MWLOW>  (156) 
10.079959

>  <BCUT2D_CHGHI>  (156) 
2.217902

>  <BCUT2D_CHGLO>  (156) 
-2.114571

>  <BCUT2D_LOGPHI>  (156) 
2.294627

>  <BCUT2D_LOGPLOW>  (156) 
-2.641859

>  <BCUT2D_MRHI>  (156) 
5.857768

>  <BCUT2D_MRLOW>  (156) 
-0.422797

>  <AvgIpc>  (156) 
3.38418

>  <BalabanJ>  (156) 
1.718732

>  <BertzCT>  (156) 
1344.139623

>  <Chi0>  (156) 
24.294318

>  <Chi0n>  (156) 
19.447007

>  <Chi0v>  (156) 
19.447007

>  <Chi1>  (156) 
16.247333

>  <Chi1n>  (156) 
10.998751

>  <Chi1v>  (156) 
10.998751

>  <Chi2n>  (156) 
8.530342

>  <Chi2v>  (156) 
8.530342

>  <Chi3n>  (156) 
5.076144

>  <Chi3v>  (156) 
5.076144

>  <Chi4n>  (156) 
3.532694

>  <Chi4v>  (156) 
3.532694

>  <HallKierAlpha>  (156) 
-3.94

>  <Ipc>  (156) 
47023446.06636

>  <Kappa1>  (156) 
23.226004

>  <Kappa2>  (156) 
9.506395

>  <Kappa3>  (156) 
5.166963

>  <LabuteASA>  (156) 
196.458229

>  <PEOE_VSA1>  (156) 
25.877825

>  <PEOE_VSA10>  (156) 
29.460402

>  <PEOE_VSA11>  (156) 
17.336195

>  <PEOE_VSA12>  (156) 
5.879988

>  <PEOE_VSA13>  (156) 
0.0

>  <PEOE_VSA14>  (156) 
0.0

>  <PEOE_VSA2>  (156) 
0.0

>  <PEOE_VSA3>  (156) 
14.596996

>  <PEOE_VSA4>  (156) 
0.0

>  <PEOE_VSA5>  (156) 
0.0

>  <PEOE_VSA6>  (156) 
36.25227

>  <PEOE_VSA7>  (156) 
42.568424

>  <PEOE_VSA8>  (156) 
19.031945

>  <PEOE_VSA9>  (156) 
5.516701

>  <SMR_VSA1>  (156) 
20.206097

>  <SMR_VSA10>  (156) 
16.851264

>  <SMR_VSA2>  (156) 
0.0

>  <SMR_VSA3>  (156) 
24.848383

>  <SMR_VSA4>  (156) 
0.0

>  <SMR_VSA5>  (156) 
45.379681

>  <SMR_VSA6>  (156) 
12.340549

>  <SMR_VSA7>  (156) 
47.655582

>  <SMR_VSA8>  (156) 
0.0

>  <SMR_VSA9>  (156) 
29.239189

>  <SlogP_VSA1>  (156) 
16.204198

>  <SlogP_VSA10>  (156) 
5.817863

>  <SlogP_VSA11>  (156) 
5.879988

>  <SlogP_VSA12>  (156) 
0.0

>  <SlogP_VSA2>  (156) 
48.204684

>  <SlogP_VSA3>  (156) 
12.965578

>  <SlogP_VSA4>  (156) 
11.840869

>  <SlogP_VSA5>  (156) 
32.028591

>  <SlogP_VSA6>  (156) 
41.027241

>  <SlogP_VSA7>  (156) 
0.0

>  <SlogP_VSA8>  (156) 
22.551734

>  <SlogP_VSA9>  (156) 
0.0

>  <EState_VSA1>  (156) 
5.601051

>  <EState_VSA10>  (156) 
5.106527

>  <EState_VSA11>  (156) 
0.0

>  <EState_VSA2>  (156) 
11.859704

>  <EState_VSA3>  (156) 
41.760588

>  <EState_VSA4>  (156) 
11.937522

>  <EState_VSA5>  (156) 
5.563451

>  <EState_VSA6>  (156) 
13.847474

>  <EState_VSA7>  (156) 
35.756305

>  <EState_VSA8>  (156) 
49.988554

>  <EState_VSA9>  (156) 
15.099569

>  <VSA_EState1>  (156) 
12.713547

>  <VSA_EState10>  (156) 
0.0

>  <VSA_EState2>  (156) 
9.259729

>  <VSA_EState3>  (156) 
17.672196

>  <VSA_EState4>  (156) 
12.120692

>  <VSA_EState5>  (156) 
6.764835

>  <VSA_EState6>  (156) 
11.972152

>  <VSA_EState7>  (156) 
0.781672

>  <VSA_EState8>  (156) 
6.131844

>  <VSA_EState9>  (156) 
0.0

>  <FractionCSP3>  (156) 
0.333333

>  <HeavyAtomCount>  (156) 
34

>  <NHOHCount>  (156) 
6

>  <NOCount>  (156) 
10

>  <NumAliphaticCarbocycles>  (156) 
0

>  <NumAliphaticHeterocycles>  (156) 
0

>  <NumAliphaticRings>  (156) 
0

>  <NumAromaticCarbocycles>  (156) 
1

>  <NumAromaticHeterocycles>  (156) 
3

>  <NumAromaticRings>  (156) 
4

>  <NumHAcceptors>  (156) 
9

>  <NumHDonors>  (156) 
3

>  <NumHeteroatoms>  (156) 
10

>  <NumRotatableBonds>  (156) 
7

>  <NumSaturatedCarbocycles>  (156) 
0

>  <NumSaturatedHeterocycles>  (156) 
0

>  <NumSaturatedRings>  (156) 
0

>  <RingCount>  (156) 
4

>  <MolLogP>  (156) 
1.4378

>  <MolMR>  (156) 
126.3993

>  <fr_Al_COO>  (156) 
0

>  <fr_Al_OH>  (156) 
1

>  <fr_Al_OH_noTert>  (156) 
0

>  <fr_ArN>  (156) 
1

>  <fr_Ar_COO>  (156) 
0

>  <fr_Ar_N>  (156) 
5

>  <fr_Ar_NH>  (156) 
0

>  <fr_Ar_OH>  (156) 
0

>  <fr_COO>  (156) 
0

>  <fr_COO2>  (156) 
0

>  <fr_C_O>  (156) 
0

>  <fr_C_O_noCOO>  (156) 
0

>  <fr_C_S>  (156) 
0

>  <fr_HOCCN>  (156) 
0

>  <fr_Imine>  (156) 
0

>  <fr_NH0>  (156) 
5

>  <fr_NH1>  (156) 
0

>  <fr_NH2>  (156) 
1

>  <fr_N_O>  (156) 
0

>  <fr_Ndealkylation1>  (156) 
0

>  <fr_Ndealkylation2>  (156) 
0

>  <fr_Nhpyrrole>  (156) 
0

>  <fr_SH>  (156) 
0

>  <fr_aldehyde>  (156) 
0

>  <fr_alkyl_carbamate>  (156) 
0

>  <fr_alkyl_halide>  (156) 
0

>  <fr_allylic_oxid>  (156) 
0

>  <fr_amide>  (156) 
0

>  <fr_amidine>  (156) 
0

>  <fr_aniline>  (156) 
1

>  <fr_aryl_methyl>  (156) 
1

>  <fr_azide>  (156) 
0

>  <fr_azo>  (156) 
0

>  <fr_barbitur>  (156) 
0

>  <fr_benzene>  (156) 
1

>  <fr_benzodiazepine>  (156) 
0

>  <fr_bicyclic>  (156) 
1

>  <fr_diazo>  (156) 
0

>  <fr_dihydropyridine>  (156) 
0

>  <fr_epoxide>  (156) 
0

>  <fr_ester>  (156) 
0

>  <fr_ether>  (156) 
1

>  <fr_furan>  (156) 
0

>  <fr_guanido>  (156) 
0

>  <fr_halogen>  (156) 
0

>  <fr_hdrzine>  (156) 
0

>  <fr_hdrzone>  (156) 
0

>  <fr_imidazole>  (156) 
1

>  <fr_imide>  (156) 
0

>  <fr_isocyan>  (156) 
0

>  <fr_isothiocyan>  (156) 
0

>  <fr_ketone>  (156) 
0

>  <fr_ketone_Topliss>  (156) 
0

>  <fr_lactam>  (156) 
0

>  <fr_lactone>  (156) 
0

>  <fr_methoxy>  (156) 
0

>  <fr_morpholine>  (156) 
0

>  <fr_nitrile>  (156) 
0

>  <fr_nitro>  (156) 
0

>  <fr_nitro_arom>  (156) 
0

>  <fr_nitro_arom_nonortho>  (156) 
0

>  <fr_nitroso>  (156) 
0

>  <fr_oxazole>  (156) 
0

>  <fr_oxime>  (156) 
0

>  <fr_para_hydroxylation>  (156) 
0

>  <fr_phenol>  (156) 
0

>  <fr_phenol_noOrthoHbond>  (156) 
0

>  <fr_phos_acid>  (156) 
0

>  <fr_phos_ester>  (156) 
0

>  <fr_piperdine>  (156) 
0

>  <fr_piperzine>  (156) 
0

>  <fr_priamide>  (156) 
0

>  <fr_prisulfonamd>  (156) 
0

>  <fr_pyridine>  (156) 
1

>  <fr_quatN>  (156) 
1

>  <fr_sulfide>  (156) 
0

>  <fr_sulfonamd>  (156) 
0

>  <fr_sulfone>  (156) 
0

>  <fr_term_acetylene>  (156) 
0

>  <fr_tetrazole>  (156) 
0

>  <fr_thiazole>  (156) 
0

>  <fr_thiocyan>  (156) 
0

>  <fr_thiophene>  (156) 
0

>  <fr_unbrch_alkane>  (156) 
0

>  <fr_urea>  (156) 
0

>  <NP_Likeness>  (156) 
-0.766942

$$$$
G98
     RDKit          3D

  0  0  0  0  0  0  0  0  0  0999 V3000
M  V30 BEGIN CTAB
M  V30 COUNTS 62 65 0 0 0
M  V30 BEGIN ATOM
M  V30 1 O 3.990000 -8.800000 21.245000 0
M  V30 2 O 14.319000 -6.758000 22.605000 0
M  V30 3 O 8.493000 -13.877000 22.514000 0
M  V30 4 N 7.560000 -15.721000 23.886000 0 CHG=1
M  V30 5 N 11.027000 -5.777000 22.110000 0
M  V30 6 N 13.374000 -5.696000 22.380000 0
M  V30 7 N 13.735000 -8.051000 22.668000 0
M  V30 8 N 7.941000 -11.649000 22.015000 0
M  V30 9 N 10.131000 -8.653000 22.086000 0
M  V30 10 N 11.675000 -10.144000 22.735000 0
M  V30 11 C 13.526000 -11.583000 22.053000 0
M  V30 12 C 5.198000 -7.748000 19.423000 0
M  V30 13 C 5.283000 -6.821000 21.751000 0
M  V30 14 C 8.529000 -16.703000 23.436000 0
M  V30 15 C 12.921000 -10.786000 23.185000 0
M  V30 16 C 7.272000 -16.375000 18.289000 0
M  V30 17 C 6.624000 -16.439000 19.518000 0
M  V30 18 C 8.546000 -15.820000 18.214000 0
M  V30 19 C 9.661000 -16.025000 22.682000 0
M  V30 20 C 7.245000 -15.952000 20.666000 0
M  V30 21 C 9.176000 -15.332000 19.351000 0
M  V30 22 C 7.293000 -9.578000 21.502000 0
M  V30 23 C 10.169000 -12.137000 22.672000 0
M  V30 24 C 6.363000 -8.915000 21.216000 0
M  V30 25 C 8.860000 -12.555000 22.402000 0
M  V30 26 C 12.222000 -6.404000 22.314000 0
M  V30 27 C 9.241000 -14.861000 21.784000 0 CFG=1
M  V30 28 C 11.400000 -8.864000 22.467000 0
M  V30 29 C 8.250000 -10.341000 21.869000 0
M  V30 30 C 12.424000 -7.772000 22.514000 0
M  V30 31 C 9.547000 -9.876000 22.129000 0
M  V30 32 C 10.515000 -10.792000 22.539000 0
M  V30 33 C 8.527000 -15.389000 20.587000 0
M  V30 34 C 5.193000 -8.088000 20.906000 0
M  V30 35 H 3.942500 -9.646000 20.713900 0
M  V30 36 H 6.666900 -15.926200 23.485600 0
M  V30 37 H 7.493200 -15.751400 24.883300 0
M  V30 38 H 10.183300 -6.311800 22.063300 0
M  V30 39 H 10.995100 -4.782800 22.007200 0
M  V30 40 H 14.371500 -12.016300 22.365000 0
M  V30 41 H 12.879800 -12.287000 21.758400 0
M  V30 42 H 13.727100 -10.973300 21.286300 0
M  V30 43 H 6.037400 -7.253600 19.197200 0
M  V30 44 H 5.153500 -8.591400 18.887500 0
M  V30 45 H 4.406300 -7.175500 19.209600 0
M  V30 46 H 6.118500 -6.323400 21.517800 0
M  V30 47 H 4.488300 -6.241900 21.569100 0
M  V30 48 H 5.301200 -7.067200 22.720000 0
M  V30 49 H 8.076900 -17.358700 22.831300 0
M  V30 50 H 8.903100 -17.183900 24.229000 0
M  V30 51 H 12.721400 -11.396900 23.951100 0
M  V30 52 H 13.568800 -10.083200 23.479100 0
M  V30 53 H 6.825800 -16.725200 17.465400 0
M  V30 54 H 5.708300 -16.836300 19.577800 0
M  V30 55 H 9.013100 -15.772100 17.331100 0
M  V30 56 H 10.106200 -16.712800 22.108700 0
M  V30 57 H 10.315000 -15.677000 23.353700 0
M  V30 58 H 6.776000 -16.003900 21.547600 0
M  V30 59 H 10.093600 -14.940000 19.285300 0
M  V30 60 H 10.856600 -12.803400 22.960500 0
M  V30 61 H 10.077300 -14.418600 21.460100 0
M  V30 62 H 7.852200 -14.808700 23.599200 0
M  V30 END ATOM
M  V30 BEGIN BOND
M  V30 1 1 1 34
M  V30 2 1 2 6
M  V30 3 1 2 7
M  V30 4 1 3 25
M  V30 5 1 3 27
M  V30 6 1 4 14
M  V30 7 1 5 26
M  V30 8 2 6 26
M  V30 9 2 7 30
M  V30 10 2 8 25
M  V30 11 1 8 29
M  V30 12 2 9 28
M  V30 13 1 9 31
M  V30 14 1 10 15
M  V30 15 1 10 28
M  V30 16 1 10 32
M  V30 17 1 11 15
M  V30 18 1 12 34
M  V30 19 1 13 34
M  V30 20 1 14 19
M  V30 21 2 16 17
M  V30 22 1 16 18
M  V30 23 1 17 20
M  V30 24 2 18 21
M  V30 25 1 19 27
M  V30 26 2 20 33
M  V30 27 1 21 33
M  V30 28 3 22 24
M  V30 29 1 22 29
M  V30 30 1 23 25
M  V30 31 2 23 32
M  V30 32 1 34 24
M  V30 33 1 26 30
M  V30 34 1 27 33
M  V30 35 1 28 30
M  V30 36 2 29 31
M  V30 37 1 31 32
M  V30 38 1 1 35
M  V30 39 1 4 36
M  V30 40 1 4 37
M  V30 41 1 5 38
M  V30 42 1 5 39
M  V30 43 1 11 40
M  V30 44 1 11 41
M  V30 45 1 11 42
M  V30 46 1 12 43
M  V30 47 1 12 44
M  V30 48 1 12 45
M  V30 49 1 13 46
M  V30 50 1 13 47
M  V30 51 1 13 48
M  V30 52 1 14 49
M  V30 53 1 14 50
M  V30 54 1 15 51
M  V30 55 1 15 52
M  V30 56 1 16 53
M  V30 57 1 17 54
M  V30 58 1 18 55
M  V30 59 1 19 56
M  V30 60 1 19 57
M  V30 61 1 20 58
M  V30 62 1 21 59
M  V30 63 1 23 60
M  V30 64 1 27 61 CFG=3
M  V30 65 1 4 62
M  V30 END BOND
M  V30 END CTAB
M  END
>  <Ligand_Instance>  (157) 
3E8E_G98_A_351

>  <Dataset>  (157) 
PDB

>  <PDB_ID>  (157) 
3E8E

>  <Chain>  (157) 
A

>  <Resi>  (157) 
351

>  <Num_Resolved_Atoms>  (157) 
34

>  <Num_H_Atoms_ProtBoundConf>  (157) 
28

>  <Pocket>  (157) 
A, B

>  <Name>  (157) 
4-[2-(4-amino-2,5-dihydro-1,2,5-oxadiazol-3-yl)-6-{[(1S)-3-amino-1-phenylpropyl]oxy}-1-ethyl-1H-imidazo[4,5-c]pyridin-4-yl]-2-methylbut-3-yn-2-ol

>  <Num_Not_Resolved_Atoms>  (157) 
0

>  <ATP_Site>  (157) 
True

>  <Peripheral>  (157) 
False

>  <Standardized_SMILES>  (157) 
[H]OC(C#CC1=C2N=C(C3=NON=C3N([H])[H])N(C([H])([H])C([H])([H])[H])C2=C([H])C(O[C@]([H])(C2=C([H])C([H])=C([H])C([H])=C2[H])C([H])([H])C([H])([H])[N+]([H])([H])[H])=N1)(C([H])([H])[H])C([H])([H])[H]

>  <2D_Mol_H>  (157) 
<rdkit.Chem.rdchem.Mol object at 0x77059d9fab20>

>  <MW>  (157) 
462.534

>  <HBA>  (157) 
9

>  <HBD>  (157) 
3

>  <LogP>  (157) 
1.9579

>  <NRB>  (157) 
13

>  <TPSA>  (157) 
152.75

>  <Num_Heavy_Atoms>  (157) 
34

>  <Ro5>  (157) 
[True, True, True, True, False, False]

>  <Ro5_Fulfilled>  (157) 
False

>  <Ro3>  (157) 
[False, False, True, True]

>  <Ro3_Fulfilled>  (157) 
False

>  <Fsp3>  (157) 
0.333333

>  <Fsp3_0.42>  (157) 
False

>  <Fsp3_0.45>  (157) 
False

>  <Stereogenic_Carbons>  (157) 
1

>  <C_Atoms>  (157) 
24

>  <FCStereo>  (157) 
0.041667

>  <SPS>  (157) 
421

>  <nSPS>  (157) 
12.382353

>  <PBF>  (157) 
1.116315

>  <PBF_0.6>  (157) 
True

>  <nPBF>  (157) 
0.032833

>  <nPBF_0.016>  (157) 
True

>  <PMI1>  (157) 
3744.243187

>  <PMI2>  (157) 
7178.942559

>  <PMI3>  (157) 
9641.854128

>  <NPR1>  (157) 
0.388332

>  <NPR2>  (157) 
0.74456

>  <Sum_NPR>  (157) 
1.132893

>  <Sum_NPR_1.07>  (157) 
True

>  <Sum_NPR_1.2>  (157) 
False

>  <MaxAbsEStateIndex>  (157) 
10.164611

>  <MaxEStateIndex>  (157) 
10.164611

>  <MinAbsEStateIndex>  (157) 
0.137178

>  <MinEStateIndex>  (157) 
-1.206416

>  <qed>  (157) 
0.352378

>  <MolWt>  (157) 
462.534

>  <HeavyAtomMolWt>  (157) 
434.31

>  <ExactMolWt>  (157) 
462.224814

>  <NumValenceElectrons>  (157) 
176

>  <NumRadicalElectrons>  (157) 
0

>  <MaxPartialCharge>  (157) 
0.216801

>  <MinPartialCharge>  (157) 
-0.469138

>  <MaxAbsPartialCharge>  (157) 
0.469138

>  <MinAbsPartialCharge>  (157) 
0.216801

>  <FpDensityMorgan1>  (157) 
1.235294

>  <FpDensityMorgan2>  (157) 
2.0

>  <FpDensityMorgan3>  (157) 
2.617647

>  <BCUT2D_MWHI>  (157) 
16.564613

>  <BCUT2D_MWLOW>  (157) 
10.070283

>  <BCUT2D_CHGHI>  (157) 
2.22698

>  <BCUT2D_CHGLO>  (157) 
-2.178144

>  <BCUT2D_LOGPHI>  (157) 
2.313646

>  <BCUT2D_LOGPLOW>  (157) 
-2.504595

>  <BCUT2D_MRHI>  (157) 
5.857963

>  <BCUT2D_MRLOW>  (157) 
-0.370474

>  <AvgIpc>  (157) 
3.395169

>  <BalabanJ>  (157) 
1.887784

>  <BertzCT>  (157) 
1344.139623

>  <Chi0>  (157) 
24.294318

>  <Chi0n>  (157) 
19.447007

>  <Chi0v>  (157) 
19.447007

>  <Chi1>  (157) 
16.302175

>  <Chi1n>  (157) 
11.064403

>  <Chi1v>  (157) 
11.064403

>  <Chi2n>  (157) 
8.322995

>  <Chi2v>  (157) 
8.322995

>  <Chi3n>  (157) 
5.142699

>  <Chi3v>  (157) 
5.142699

>  <Chi4n>  (157) 
3.602013

>  <Chi4v>  (157) 
3.602013

>  <HallKierAlpha>  (157) 
-3.94

>  <Ipc>  (157) 
49735528.899362

>  <Kappa1>  (157) 
23.226004

>  <Kappa2>  (157) 
9.506395

>  <Kappa3>  (157) 
4.854172

>  <LabuteASA>  (157) 
196.458229

>  <PEOE_VSA1>  (157) 
25.877825

>  <PEOE_VSA10>  (157) 
22.915646

>  <PEOE_VSA11>  (157) 
17.336195

>  <PEOE_VSA12>  (157) 
5.879988

>  <PEOE_VSA13>  (157) 
0.0

>  <PEOE_VSA14>  (157) 
0.0

>  <PEOE_VSA2>  (157) 
0.0

>  <PEOE_VSA3>  (157) 
14.596996

>  <PEOE_VSA4>  (157) 
0.0

>  <PEOE_VSA5>  (157) 
0.0

>  <PEOE_VSA6>  (157) 
36.25227

>  <PEOE_VSA7>  (157) 
42.568424

>  <PEOE_VSA8>  (157) 
19.031945

>  <PEOE_VSA9>  (157) 
12.061457

>  <SMR_VSA1>  (157) 
20.206097

>  <SMR_VSA10>  (157) 
16.851264

>  <SMR_VSA2>  (157) 
0.0

>  <SMR_VSA3>  (157) 
24.848383

>  <SMR_VSA4>  (157) 
0.0

>  <SMR_VSA5>  (157) 
45.441807

>  <SMR_VSA6>  (157) 
12.278424

>  <SMR_VSA7>  (157) 
47.655582

>  <SMR_VSA8>  (157) 
0.0

>  <SMR_VSA9>  (157) 
29.239189

>  <SlogP_VSA1>  (157) 
16.204198

>  <SlogP_VSA10>  (157) 
5.817863

>  <SlogP_VSA11>  (157) 
5.879988

>  <SlogP_VSA12>  (157) 
0.0

>  <SlogP_VSA2>  (157) 
42.100718

>  <SlogP_VSA3>  (157) 
6.544756

>  <SlogP_VSA4>  (157) 
11.840869

>  <SlogP_VSA5>  (157) 
44.553379

>  <SlogP_VSA6>  (157) 
41.027241

>  <SlogP_VSA7>  (157) 
0.0

>  <SlogP_VSA8>  (157) 
22.551734

>  <SlogP_VSA9>  (157) 
0.0

>  <EState_VSA1>  (157) 
5.601051

>  <EState_VSA10>  (157) 
5.106527

>  <EState_VSA11>  (157) 
0.0

>  <EState_VSA2>  (157) 
11.921829

>  <EState_VSA3>  (157) 
48.119284

>  <EState_VSA4>  (157) 
11.080152

>  <EState_VSA5>  (157) 
0.0

>  <EState_VSA6>  (157) 
13.847474

>  <EState_VSA7>  (157) 
47.889039

>  <EState_VSA8>  (157) 
32.871841

>  <EState_VSA9>  (157) 
20.083548

>  <VSA_EState1>  (157) 
13.06

>  <VSA_EState10>  (157) 
0.0

>  <VSA_EState2>  (157) 
9.360575

>  <VSA_EState3>  (157) 
17.746839

>  <VSA_EState4>  (157) 
11.73724

>  <VSA_EState5>  (157) 
6.798422

>  <VSA_EState6>  (157) 
11.768439

>  <VSA_EState7>  (157) 
0.486112

>  <VSA_EState8>  (157) 
6.459039

>  <VSA_EState9>  (157) 
0.0

>  <FractionCSP3>  (157) 
0.333333

>  <HeavyAtomCount>  (157) 
34

>  <NHOHCount>  (157) 
6

>  <NOCount>  (157) 
10

>  <NumAliphaticCarbocycles>  (157) 
0

>  <NumAliphaticHeterocycles>  (157) 
0

>  <NumAliphaticRings>  (157) 
0

>  <NumAromaticCarbocycles>  (157) 
1

>  <NumAromaticHeterocycles>  (157) 
3

>  <NumAromaticRings>  (157) 
4

>  <NumHAcceptors>  (157) 
9

>  <NumHDonors>  (157) 
3

>  <NumHeteroatoms>  (157) 
10

>  <NumRotatableBonds>  (157) 
7

>  <NumSaturatedCarbocycles>  (157) 
0

>  <NumSaturatedHeterocycles>  (157) 
0

>  <NumSaturatedRings>  (157) 
0

>  <RingCount>  (157) 
4

>  <MolLogP>  (157) 
1.9579

>  <MolMR>  (157) 
126.2653

>  <fr_Al_COO>  (157) 
0

>  <fr_Al_OH>  (157) 
1

>  <fr_Al_OH_noTert>  (157) 
0

>  <fr_ArN>  (157) 
1

>  <fr_Ar_COO>  (157) 
0

>  <fr_Ar_N>  (157) 
5

>  <fr_Ar_NH>  (157) 
0

>  <fr_Ar_OH>  (157) 
0

>  <fr_COO>  (157) 
0

>  <fr_COO2>  (157) 
0

>  <fr_C_O>  (157) 
0

>  <fr_C_O_noCOO>  (157) 
0

>  <fr_C_S>  (157) 
0

>  <fr_HOCCN>  (157) 
0

>  <fr_Imine>  (157) 
0

>  <fr_NH0>  (157) 
5

>  <fr_NH1>  (157) 
0

>  <fr_NH2>  (157) 
1

>  <fr_N_O>  (157) 
0

>  <fr_Ndealkylation1>  (157) 
0

>  <fr_Ndealkylation2>  (157) 
0

>  <fr_Nhpyrrole>  (157) 
0

>  <fr_SH>  (157) 
0

>  <fr_aldehyde>  (157) 
0

>  <fr_alkyl_carbamate>  (157) 
0

>  <fr_alkyl_halide>  (157) 
0

>  <fr_allylic_oxid>  (157) 
0

>  <fr_amide>  (157) 
0

>  <fr_amidine>  (157) 
0

>  <fr_aniline>  (157) 
1

>  <fr_aryl_methyl>  (157) 
1

>  <fr_azide>  (157) 
0

>  <fr_azo>  (157) 
0

>  <fr_barbitur>  (157) 
0

>  <fr_benzene>  (157) 
1

>  <fr_benzodiazepine>  (157) 
0

>  <fr_bicyclic>  (157) 
1

>  <fr_diazo>  (157) 
0

>  <fr_dihydropyridine>  (157) 
0

>  <fr_epoxide>  (157) 
0

>  <fr_ester>  (157) 
0

>  <fr_ether>  (157) 
1

>  <fr_furan>  (157) 
0

>  <fr_guanido>  (157) 
0

>  <fr_halogen>  (157) 
0

>  <fr_hdrzine>  (157) 
0

>  <fr_hdrzone>  (157) 
0

>  <fr_imidazole>  (157) 
1

>  <fr_imide>  (157) 
0

>  <fr_isocyan>  (157) 
0

>  <fr_isothiocyan>  (157) 
0

>  <fr_ketone>  (157) 
0

>  <fr_ketone_Topliss>  (157) 
0

>  <fr_lactam>  (157) 
0

>  <fr_lactone>  (157) 
0

>  <fr_methoxy>  (157) 
0

>  <fr_morpholine>  (157) 
0

>  <fr_nitrile>  (157) 
0

>  <fr_nitro>  (157) 
0

>  <fr_nitro_arom>  (157) 
0

>  <fr_nitro_arom_nonortho>  (157) 
0

>  <fr_nitroso>  (157) 
0

>  <fr_oxazole>  (157) 
0

>  <fr_oxime>  (157) 
0

>  <fr_para_hydroxylation>  (157) 
0

>  <fr_phenol>  (157) 
0

>  <fr_phenol_noOrthoHbond>  (157) 
0

>  <fr_phos_acid>  (157) 
0

>  <fr_phos_ester>  (157) 
0

>  <fr_piperdine>  (157) 
0

>  <fr_piperzine>  (157) 
0

>  <fr_priamide>  (157) 
0

>  <fr_prisulfonamd>  (157) 
0

>  <fr_pyridine>  (157) 
1

>  <fr_quatN>  (157) 
1

>  <fr_sulfide>  (157) 
0

>  <fr_sulfonamd>  (157) 
0

>  <fr_sulfone>  (157) 
0

>  <fr_term_acetylene>  (157) 
0

>  <fr_tetrazole>  (157) 
0

>  <fr_thiazole>  (157) 
0

>  <fr_thiocyan>  (157) 
0

>  <fr_thiophene>  (157) 
0

>  <fr_unbrch_alkane>  (157) 
0

>  <fr_urea>  (157) 
0

>  <NP_Likeness>  (157) 
-0.661798

$$$$
G98
     RDKit          3D

  0  0  0  0  0  0  0  0  0  0999 V3000
M  V30 BEGIN CTAB
M  V30 COUNTS 62 65 0 0 0
M  V30 BEGIN ATOM
M  V30 1 O -17.279000 38.782000 37.025000 0
M  V30 2 O -27.713000 40.577000 35.651000 0
M  V30 3 O -21.644000 33.663000 36.343000 0
M  V30 4 N -21.674000 32.573000 33.877000 0 CHG=1
M  V30 5 N -24.442000 41.703000 36.035000 0
M  V30 6 N -26.780000 41.663000 35.748000 0
M  V30 7 N -27.099000 39.292000 35.755000 0
M  V30 8 N -21.213000 35.922000 36.718000 0
M  V30 9 N -23.488000 38.825000 36.415000 0
M  V30 10 N -24.976000 37.237000 35.841000 0
M  V30 11 C -26.701000 35.593000 36.497000 0
M  V30 12 C -18.259000 39.873000 38.924000 0
M  V30 13 C -18.544000 40.772000 36.577000 0
M  V30 14 C -21.666000 31.411000 34.766000 0
M  V30 15 C -26.188000 36.514000 35.412000 0
M  V30 16 C -20.725000 31.107000 40.555000 0
M  V30 17 C -20.113000 30.825000 39.334000 0
M  V30 18 C -21.886000 31.881000 40.583000 0
M  V30 19 C -22.697000 31.510000 35.898000 0
M  V30 20 C -20.657000 31.318000 38.148000 0
M  V30 21 C -22.433000 32.367000 39.400000 0
M  V30 22 C -20.604000 38.024000 37.101000 0
M  V30 23 C -23.407000 35.312000 36.044000 0
M  V30 24 C -19.648000 38.721000 37.260000 0
M  V30 25 C -22.088000 34.965000 36.365000 0
M  V30 26 C -25.615000 41.002000 35.902000 0
M  V30 27 C -22.441000 32.625000 36.923000 0 CFG=1
M  V30 28 C -24.749000 38.546000 36.040000 0
M  V30 29 C -21.550000 37.225000 36.758000 0
M  V30 30 C -25.792000 39.612000 35.890000 0
M  V30 31 C -22.861000 37.624000 36.451000 0
M  V30 32 C -23.798000 36.650000 36.090000 0
M  V30 33 C -21.824000 32.093000 38.174000 0
M  V30 34 C -18.429000 39.524000 37.445000 0
M  V30 35 H -17.204800 37.946100 37.568900 0
M  V30 36 H -20.775000 33.010600 33.892400 0
M  V30 37 H -21.885400 32.278300 32.945100 0
M  V30 38 H -23.577400 41.213800 36.149300 0
M  V30 39 H -24.452300 42.702800 36.017600 0
M  V30 40 H -27.520600 35.120500 36.173100 0
M  V30 41 H -25.996500 34.920700 36.724200 0
M  V30 42 H -26.925000 36.129100 37.310900 0
M  V30 43 H -19.053800 40.392700 39.237300 0
M  V30 44 H -18.179400 39.031300 39.458100 0
M  V30 45 H -17.432600 40.423200 39.043800 0
M  V30 46 H -19.344100 41.301500 36.858900 0
M  V30 47 H -17.720700 41.329500 36.684000 0
M  V30 48 H -18.642600 40.503600 35.618700 0
M  V30 49 H -20.755700 31.327100 35.171400 0
M  V30 50 H -21.866100 30.594700 34.224100 0
M  V30 51 H -25.971600 35.970700 34.600800 0
M  V30 52 H -26.900200 37.179100 35.187500 0
M  V30 53 H -20.334000 30.756400 41.406000 0
M  V30 54 H -19.282600 30.268300 39.308700 0
M  V30 55 H -22.326300 32.087000 41.456900 0
M  V30 56 H -22.704600 30.637300 36.386200 0
M  V30 57 H -23.594100 31.669200 35.485800 0
M  V30 58 H -20.212100 31.117400 37.275200 0
M  V30 59 H -23.268100 32.916400 39.427900 0
M  V30 60 H -24.064100 34.604600 35.783500 0
M  V30 61 H -23.325900 33.022200 37.166400 0
M  V30 62 H -22.367100 33.224300 34.185900 0
M  V30 END ATOM
M  V30 BEGIN BOND
M  V30 1 1 1 34
M  V30 2 1 2 6
M  V30 3 1 2 7
M  V30 4 1 3 25
M  V30 5 1 3 27
M  V30 6 1 4 14
M  V30 7 1 5 26
M  V30 8 2 6 26
M  V30 9 2 7 30
M  V30 10 2 8 25
M  V30 11 1 8 29
M  V30 12 2 9 28
M  V30 13 1 9 31
M  V30 14 1 10 15
M  V30 15 1 10 28
M  V30 16 1 10 32
M  V30 17 1 11 15
M  V30 18 1 12 34
M  V30 19 1 13 34
M  V30 20 1 14 19
M  V30 21 2 16 17
M  V30 22 1 16 18
M  V30 23 1 17 20
M  V30 24 2 18 21
M  V30 25 1 19 27
M  V30 26 2 20 33
M  V30 27 1 21 33
M  V30 28 3 22 24
M  V30 29 1 22 29
M  V30 30 1 23 25
M  V30 31 2 23 32
M  V30 32 1 34 24
M  V30 33 1 26 30
M  V30 34 1 27 33
M  V30 35 1 28 30
M  V30 36 2 29 31
M  V30 37 1 31 32
M  V30 38 1 1 35
M  V30 39 1 4 36
M  V30 40 1 4 37
M  V30 41 1 5 38
M  V30 42 1 5 39
M  V30 43 1 11 40
M  V30 44 1 11 41
M  V30 45 1 11 42
M  V30 46 1 12 43
M  V30 47 1 12 44
M  V30 48 1 12 45
M  V30 49 1 13 46
M  V30 50 1 13 47
M  V30 51 1 13 48
M  V30 52 1 14 49
M  V30 53 1 14 50
M  V30 54 1 15 51
M  V30 55 1 15 52
M  V30 56 1 16 53
M  V30 57 1 17 54
M  V30 58 1 18 55
M  V30 59 1 19 56
M  V30 60 1 19 57
M  V30 61 1 20 58
M  V30 62 1 21 59
M  V30 63 1 23 60
M  V30 64 1 27 61 CFG=1
M  V30 65 1 4 62
M  V30 END BOND
M  V30 END CTAB
M  END
>  <Ligand_Instance>  (158) 
3E8E_G98_B_351

>  <Dataset>  (158) 
PDB

>  <PDB_ID>  (158) 
3E8E

>  <Chain>  (158) 
B

>  <Resi>  (158) 
351

>  <Num_Resolved_Atoms>  (158) 
34

>  <Num_H_Atoms_ProtBoundConf>  (158) 
28

>  <Pocket>  (158) 
A, B

>  <Name>  (158) 
4-[2-(4-amino-2,5-dihydro-1,2,5-oxadiazol-3-yl)-6-{[(1S)-3-amino-1-phenylpropyl]oxy}-1-ethyl-1H-imidazo[4,5-c]pyridin-4-yl]-2-methylbut-3-yn-2-ol

>  <Num_Not_Resolved_Atoms>  (158) 
0

>  <ATP_Site>  (158) 
True

>  <Peripheral>  (158) 
False

>  <Standardized_SMILES>  (158) 
[H]OC(C#CC1=C2N=C(C3=NON=C3N([H])[H])N(C([H])([H])C([H])([H])[H])C2=C([H])C(O[C@]([H])(C2=C([H])C([H])=C([H])C([H])=C2[H])C([H])([H])C([H])([H])[N+]([H])([H])[H])=N1)(C([H])([H])[H])C([H])([H])[H]

>  <2D_Mol_H>  (158) 
<rdkit.Chem.rdchem.Mol object at 0x77059d9fab90>

>  <MW>  (158) 
462.534

>  <HBA>  (158) 
9

>  <HBD>  (158) 
3

>  <LogP>  (158) 
1.9579

>  <NRB>  (158) 
13

>  <TPSA>  (158) 
152.75

>  <Num_Heavy_Atoms>  (158) 
34

>  <Ro5>  (158) 
[True, True, True, True, False, False]

>  <Ro5_Fulfilled>  (158) 
False

>  <Ro3>  (158) 
[False, False, True, True]

>  <Ro3_Fulfilled>  (158) 
False

>  <Fsp3>  (158) 
0.333333

>  <Fsp3_0.42>  (158) 
False

>  <Fsp3_0.45>  (158) 
False

>  <Stereogenic_Carbons>  (158) 
1

>  <C_Atoms>  (158) 
24

>  <FCStereo>  (158) 
0.041667

>  <SPS>  (158) 
421

>  <nSPS>  (158) 
12.382353

>  <PBF>  (158) 
1.183562

>  <PBF_0.6>  (158) 
True

>  <nPBF>  (158) 
0.034811

>  <nPBF_0.016>  (158) 
True

>  <PMI1>  (158) 
3932.902309

>  <PMI2>  (158) 
7088.721452

>  <PMI3>  (158) 
9524.013175

>  <NPR1>  (158) 
0.412946

>  <NPR2>  (158) 
0.7443

>  <Sum_NPR>  (158) 
1.157246

>  <Sum_NPR_1.07>  (158) 
True

>  <Sum_NPR_1.2>  (158) 
False

>  <MaxAbsEStateIndex>  (158) 
10.164611

>  <MaxEStateIndex>  (158) 
10.164611

>  <MinAbsEStateIndex>  (158) 
0.137178

>  <MinEStateIndex>  (158) 
-1.206416

>  <qed>  (158) 
0.352378

>  <MolWt>  (158) 
462.534

>  <HeavyAtomMolWt>  (158) 
434.31

>  <ExactMolWt>  (158) 
462.224814

>  <NumValenceElectrons>  (158) 
176

>  <NumRadicalElectrons>  (158) 
0

>  <MaxPartialCharge>  (158) 
0.216801

>  <MinPartialCharge>  (158) 
-0.469138

>  <MaxAbsPartialCharge>  (158) 
0.469138

>  <MinAbsPartialCharge>  (158) 
0.216801

>  <FpDensityMorgan1>  (158) 
1.235294

>  <FpDensityMorgan2>  (158) 
2.0

>  <FpDensityMorgan3>  (158) 
2.617647

>  <BCUT2D_MWHI>  (158) 
16.564613

>  <BCUT2D_MWLOW>  (158) 
10.070283

>  <BCUT2D_CHGHI>  (158) 
2.22698

>  <BCUT2D_CHGLO>  (158) 
-2.178144

>  <BCUT2D_LOGPHI>  (158) 
2.313646

>  <BCUT2D_LOGPLOW>  (158) 
-2.504595

>  <BCUT2D_MRHI>  (158) 
5.857963

>  <BCUT2D_MRLOW>  (158) 
-0.370474

>  <AvgIpc>  (158) 
3.395169

>  <BalabanJ>  (158) 
1.887784

>  <BertzCT>  (158) 
1344.139623

>  <Chi0>  (158) 
24.294318

>  <Chi0n>  (158) 
19.447007

>  <Chi0v>  (158) 
19.447007

>  <Chi1>  (158) 
16.302175

>  <Chi1n>  (158) 
11.064403

>  <Chi1v>  (158) 
11.064403

>  <Chi2n>  (158) 
8.322995

>  <Chi2v>  (158) 
8.322995

>  <Chi3n>  (158) 
5.142699

>  <Chi3v>  (158) 
5.142699

>  <Chi4n>  (158) 
3.602013

>  <Chi4v>  (158) 
3.602013

>  <HallKierAlpha>  (158) 
-3.94

>  <Ipc>  (158) 
49735528.899362

>  <Kappa1>  (158) 
23.226004

>  <Kappa2>  (158) 
9.506395

>  <Kappa3>  (158) 
4.854172

>  <LabuteASA>  (158) 
196.458229

>  <PEOE_VSA1>  (158) 
25.877825

>  <PEOE_VSA10>  (158) 
22.915646

>  <PEOE_VSA11>  (158) 
17.336195

>  <PEOE_VSA12>  (158) 
5.879988

>  <PEOE_VSA13>  (158) 
0.0

>  <PEOE_VSA14>  (158) 
0.0

>  <PEOE_VSA2>  (158) 
0.0

>  <PEOE_VSA3>  (158) 
14.596996

>  <PEOE_VSA4>  (158) 
0.0

>  <PEOE_VSA5>  (158) 
0.0

>  <PEOE_VSA6>  (158) 
36.25227

>  <PEOE_VSA7>  (158) 
42.568424

>  <PEOE_VSA8>  (158) 
19.031945

>  <PEOE_VSA9>  (158) 
12.061457

>  <SMR_VSA1>  (158) 
20.206097

>  <SMR_VSA10>  (158) 
16.851264

>  <SMR_VSA2>  (158) 
0.0

>  <SMR_VSA3>  (158) 
24.848383

>  <SMR_VSA4>  (158) 
0.0

>  <SMR_VSA5>  (158) 
45.441807

>  <SMR_VSA6>  (158) 
12.278424

>  <SMR_VSA7>  (158) 
47.655582

>  <SMR_VSA8>  (158) 
0.0

>  <SMR_VSA9>  (158) 
29.239189

>  <SlogP_VSA1>  (158) 
16.204198

>  <SlogP_VSA10>  (158) 
5.817863

>  <SlogP_VSA11>  (158) 
5.879988

>  <SlogP_VSA12>  (158) 
0.0

>  <SlogP_VSA2>  (158) 
42.100718

>  <SlogP_VSA3>  (158) 
6.544756

>  <SlogP_VSA4>  (158) 
11.840869

>  <SlogP_VSA5>  (158) 
44.553379

>  <SlogP_VSA6>  (158) 
41.027241

>  <SlogP_VSA7>  (158) 
0.0

>  <SlogP_VSA8>  (158) 
22.551734

>  <SlogP_VSA9>  (158) 
0.0

>  <EState_VSA1>  (158) 
5.601051

>  <EState_VSA10>  (158) 
5.106527

>  <EState_VSA11>  (158) 
0.0

>  <EState_VSA2>  (158) 
11.921829

>  <EState_VSA3>  (158) 
48.119284

>  <EState_VSA4>  (158) 
11.080152

>  <EState_VSA5>  (158) 
0.0

>  <EState_VSA6>  (158) 
13.847474

>  <EState_VSA7>  (158) 
47.889039

>  <EState_VSA8>  (158) 
32.871841

>  <EState_VSA9>  (158) 
20.083548

>  <VSA_EState1>  (158) 
13.06

>  <VSA_EState10>  (158) 
0.0

>  <VSA_EState2>  (158) 
9.360575

>  <VSA_EState3>  (158) 
17.746839

>  <VSA_EState4>  (158) 
11.73724

>  <VSA_EState5>  (158) 
6.798422

>  <VSA_EState6>  (158) 
11.768439

>  <VSA_EState7>  (158) 
0.486112

>  <VSA_EState8>  (158) 
6.459039

>  <VSA_EState9>  (158) 
0.0

>  <FractionCSP3>  (158) 
0.333333

>  <HeavyAtomCount>  (158) 
34

>  <NHOHCount>  (158) 
6

>  <NOCount>  (158) 
10

>  <NumAliphaticCarbocycles>  (158) 
0

>  <NumAliphaticHeterocycles>  (158) 
0

>  <NumAliphaticRings>  (158) 
0

>  <NumAromaticCarbocycles>  (158) 
1

>  <NumAromaticHeterocycles>  (158) 
3

>  <NumAromaticRings>  (158) 
4

>  <NumHAcceptors>  (158) 
9

>  <NumHDonors>  (158) 
3

>  <NumHeteroatoms>  (158) 
10

>  <NumRotatableBonds>  (158) 
7

>  <NumSaturatedCarbocycles>  (158) 
0

>  <NumSaturatedHeterocycles>  (158) 
0

>  <NumSaturatedRings>  (158) 
0

>  <RingCount>  (158) 
4

>  <MolLogP>  (158) 
1.9579

>  <MolMR>  (158) 
126.2653

>  <fr_Al_COO>  (158) 
0

>  <fr_Al_OH>  (158) 
1

>  <fr_Al_OH_noTert>  (158) 
0

>  <fr_ArN>  (158) 
1

>  <fr_Ar_COO>  (158) 
0

>  <fr_Ar_N>  (158) 
5

>  <fr_Ar_NH>  (158) 
0

>  <fr_Ar_OH>  (158) 
0

>  <fr_COO>  (158) 
0

>  <fr_COO2>  (158) 
0

>  <fr_C_O>  (158) 
0

>  <fr_C_O_noCOO>  (158) 
0

>  <fr_C_S>  (158) 
0

>  <fr_HOCCN>  (158) 
0

>  <fr_Imine>  (158) 
0

>  <fr_NH0>  (158) 
5

>  <fr_NH1>  (158) 
0

>  <fr_NH2>  (158) 
1

>  <fr_N_O>  (158) 
0

>  <fr_Ndealkylation1>  (158) 
0

>  <fr_Ndealkylation2>  (158) 
0

>  <fr_Nhpyrrole>  (158) 
0

>  <fr_SH>  (158) 
0

>  <fr_aldehyde>  (158) 
0

>  <fr_alkyl_carbamate>  (158) 
0

>  <fr_alkyl_halide>  (158) 
0

>  <fr_allylic_oxid>  (158) 
0

>  <fr_amide>  (158) 
0

>  <fr_amidine>  (158) 
0

>  <fr_aniline>  (158) 
1

>  <fr_aryl_methyl>  (158) 
1

>  <fr_azide>  (158) 
0

>  <fr_azo>  (158) 
0

>  <fr_barbitur>  (158) 
0

>  <fr_benzene>  (158) 
1

>  <fr_benzodiazepine>  (158) 
0

>  <fr_bicyclic>  (158) 
1

>  <fr_diazo>  (158) 
0

>  <fr_dihydropyridine>  (158) 
0

>  <fr_epoxide>  (158) 
0

>  <fr_ester>  (158) 
0

>  <fr_ether>  (158) 
1

>  <fr_furan>  (158) 
0

>  <fr_guanido>  (158) 
0

>  <fr_halogen>  (158) 
0

>  <fr_hdrzine>  (158) 
0

>  <fr_hdrzone>  (158) 
0

>  <fr_imidazole>  (158) 
1

>  <fr_imide>  (158) 
0

>  <fr_isocyan>  (158) 
0

>  <fr_isothiocyan>  (158) 
0

>  <fr_ketone>  (158) 
0

>  <fr_ketone_Topliss>  (158) 
0

>  <fr_lactam>  (158) 
0

>  <fr_lactone>  (158) 
0

>  <fr_methoxy>  (158) 
0

>  <fr_morpholine>  (158) 
0

>  <fr_nitrile>  (158) 
0

>  <fr_nitro>  (158) 
0

>  <fr_nitro_arom>  (158) 
0

>  <fr_nitro_arom_nonortho>  (158) 
0

>  <fr_nitroso>  (158) 
0

>  <fr_oxazole>  (158) 
0

>  <fr_oxime>  (158) 
0

>  <fr_para_hydroxylation>  (158) 
0

>  <fr_phenol>  (158) 
0

>  <fr_phenol_noOrthoHbond>  (158) 
0

>  <fr_phos_acid>  (158) 
0

>  <fr_phos_ester>  (158) 
0

>  <fr_piperdine>  (158) 
0

>  <fr_piperzine>  (158) 
0

>  <fr_priamide>  (158) 
0

>  <fr_prisulfonamd>  (158) 
0

>  <fr_pyridine>  (158) 
1

>  <fr_quatN>  (158) 
1

>  <fr_sulfide>  (158) 
0

>  <fr_sulfonamd>  (158) 
0

>  <fr_sulfone>  (158) 
0

>  <fr_term_acetylene>  (158) 
0

>  <fr_tetrazole>  (158) 
0

>  <fr_thiazole>  (158) 
0

>  <fr_thiocyan>  (158) 
0

>  <fr_thiophene>  (158) 
0

>  <fr_unbrch_alkane>  (158) 
0

>  <fr_urea>  (158) 
0

>  <NP_Likeness>  (158) 
-0.661798

$$$$
G98
     RDKit          3D

  0  0  0  0  0  0  0  0  0  0999 V3000
M  V30 BEGIN CTAB
M  V30 COUNTS 62 65 0 0 0
M  V30 BEGIN ATOM
M  V30 1 O -32.561000 -11.927000 14.007000 0
M  V30 2 O -43.033000 -11.928000 12.808000 0
M  V30 3 O -35.650000 -17.251000 10.996000 0
M  V30 4 N -34.522000 -18.200000 8.980000 0 CHG=1
M  V30 5 N -40.067000 -10.643000 14.018000 0
M  V30 6 N -42.331000 -10.900000 13.504000 0
M  V30 7 N -42.188000 -13.000000 12.368000 0
M  V30 8 N -35.655000 -15.275000 12.302000 0
M  V30 9 N -38.523000 -13.043000 13.075000 0
M  V30 10 N -39.653000 -14.507000 11.801000 0
M  V30 11 C -41.071000 -16.488000 11.818000 0
M  V30 12 C -33.671000 -11.952000 16.152000 0
M  V30 13 C -34.229000 -10.245000 14.414000 0
M  V30 14 C -35.125000 -19.511000 9.124000 0
M  V30 15 C -40.690000 -15.236000 11.058000 0
M  V30 16 C -33.830000 -20.701000 14.152000 0
M  V30 17 C -33.204000 -20.129000 13.048000 0
M  V30 18 C -35.208000 -20.580000 14.301000 0
M  V30 19 C -36.365000 -19.409000 10.002000 0
M  V30 20 C -33.951000 -19.426000 12.107000 0
M  V30 21 C -35.962000 -19.892000 13.359000 0
M  V30 22 C -35.536000 -13.416000 13.566000 0
M  V30 23 C -37.687000 -15.982000 11.314000 0
M  V30 24 C -34.827000 -12.611000 14.081000 0
M  V30 25 C -36.316000 -16.161000 11.536000 0
M  V30 26 C -41.072000 -11.366000 13.452000 0
M  V30 27 C -36.176000 -18.568000 11.272000 0 CFG=1
M  V30 28 C -39.714000 -13.386000 12.534000 0
M  V30 29 C -36.270000 -14.205000 12.860000 0
M  V30 30 C -40.970000 -12.582000 12.773000 0
M  V30 31 C -37.650000 -13.983000 12.654000 0
M  V30 32 C -38.364000 -14.891000 11.871000 0
M  V30 33 C -35.337000 -19.311000 12.255000 0
M  V30 34 C -33.823000 -11.699000 14.652000 0
M  V30 35 H -32.273800 -12.872400 14.161300 0
M  V30 36 H -33.534400 -18.298900 8.858300 0
M  V30 37 H -34.911700 -17.739700 8.182400 0
M  V30 38 H -39.126800 -10.982000 13.984200 0
M  V30 39 H -40.268900 -9.772900 14.467600 0
M  V30 40 H -41.776800 -16.983500 11.311700 0
M  V30 41 H -40.265700 -17.071200 11.924700 0
M  V30 42 H -41.422300 -16.236600 12.719900 0
M  V30 43 H -34.547400 -11.794700 16.607100 0
M  V30 44 H -33.382000 -12.897300 16.303000 0
M  V30 45 H -32.984200 -11.329500 16.527100 0
M  V30 46 H -35.107700 -10.067500 14.857100 0
M  V30 47 H -33.533500 -9.637600 14.797800 0
M  V30 48 H -34.311500 -10.078500 13.431400 0
M  V30 49 H -34.468000 -20.134900 9.547100 0
M  V30 50 H -35.383000 -19.859500 8.222900 0
M  V30 51 H -40.338900 -15.487700 10.156100 0
M  V30 52 H -41.495400 -14.653000 10.951300 0
M  V30 53 H -33.292200 -21.196200 14.834300 0
M  V30 54 H -32.215400 -20.223300 12.930700 0
M  V30 55 H -35.659300 -20.991700 15.092700 0
M  V30 56 H -36.631100 -20.333200 10.275800 0
M  V30 57 H -37.098300 -18.997500 9.460800 0
M  V30 58 H -33.495800 -19.002400 11.323800 0
M  V30 59 H -36.952500 -19.813100 13.472000 0
M  V30 60 H -38.187400 -16.640400 10.751800 0
M  V30 61 H -37.078800 -18.446500 11.684500 0
M  V30 62 H -34.704200 -17.657400 9.800000 0
M  V30 END ATOM
M  V30 BEGIN BOND
M  V30 1 1 1 34
M  V30 2 1 2 6
M  V30 3 1 2 7
M  V30 4 1 3 25
M  V30 5 1 3 27
M  V30 6 1 4 14
M  V30 7 1 5 26
M  V30 8 2 6 26
M  V30 9 2 7 30
M  V30 10 2 8 25
M  V30 11 1 8 29
M  V30 12 2 9 28
M  V30 13 1 9 31
M  V30 14 1 10 15
M  V30 15 1 10 28
M  V30 16 1 10 32
M  V30 17 1 11 15
M  V30 18 1 12 34
M  V30 19 1 13 34
M  V30 20 1 14 19
M  V30 21 2 16 17
M  V30 22 1 16 18
M  V30 23 1 17 20
M  V30 24 2 18 21
M  V30 25 1 19 27
M  V30 26 2 20 33
M  V30 27 1 21 33
M  V30 28 3 22 24
M  V30 29 1 22 29
M  V30 30 1 23 25
M  V30 31 2 23 32
M  V30 32 1 34 24
M  V30 33 1 26 30
M  V30 34 1 27 33
M  V30 35 1 28 30
M  V30 36 2 29 31
M  V30 37 1 31 32
M  V30 38 1 1 35
M  V30 39 1 4 36
M  V30 40 1 4 37
M  V30 41 1 5 38
M  V30 42 1 5 39
M  V30 43 1 11 40
M  V30 44 1 11 41
M  V30 45 1 11 42
M  V30 46 1 12 43
M  V30 47 1 12 44
M  V30 48 1 12 45
M  V30 49 1 13 46
M  V30 50 1 13 47
M  V30 51 1 13 48
M  V30 52 1 14 49
M  V30 53 1 14 50
M  V30 54 1 15 51
M  V30 55 1 15 52
M  V30 56 1 16 53
M  V30 57 1 17 54
M  V30 58 1 18 55
M  V30 59 1 19 56
M  V30 60 1 19 57
M  V30 61 1 20 58
M  V30 62 1 21 59
M  V30 63 1 23 60
M  V30 64 1 27 61 CFG=1
M  V30 65 1 4 62
M  V30 END BOND
M  V30 END CTAB
M  END
>  <Ligand_Instance>  (159) 
3E8E_G98_E_351

>  <Dataset>  (159) 
PDB

>  <PDB_ID>  (159) 
3E8E

>  <Chain>  (159) 
E

>  <Resi>  (159) 
351

>  <Num_Resolved_Atoms>  (159) 
34

>  <Num_H_Atoms_ProtBoundConf>  (159) 
28

>  <Pocket>  (159) 
A, B

>  <Name>  (159) 
4-[2-(4-amino-2,5-dihydro-1,2,5-oxadiazol-3-yl)-6-{[(1S)-3-amino-1-phenylpropyl]oxy}-1-ethyl-1H-imidazo[4,5-c]pyridin-4-yl]-2-methylbut-3-yn-2-ol

>  <Num_Not_Resolved_Atoms>  (159) 
0

>  <ATP_Site>  (159) 
True

>  <Peripheral>  (159) 
False

>  <Standardized_SMILES>  (159) 
[H]OC(C#CC1=C2N=C(C3=NON=C3N([H])[H])N(C([H])([H])C([H])([H])[H])C2=C([H])C(O[C@]([H])(C2=C([H])C([H])=C([H])C([H])=C2[H])C([H])([H])C([H])([H])[N+]([H])([H])[H])=N1)(C([H])([H])[H])C([H])([H])[H]

>  <2D_Mol_H>  (159) 
<rdkit.Chem.rdchem.Mol object at 0x77059d9fac70>

>  <MW>  (159) 
462.534

>  <HBA>  (159) 
9

>  <HBD>  (159) 
3

>  <LogP>  (159) 
1.9579

>  <NRB>  (159) 
13

>  <TPSA>  (159) 
152.75

>  <Num_Heavy_Atoms>  (159) 
34

>  <Ro5>  (159) 
[True, True, True, True, False, False]

>  <Ro5_Fulfilled>  (159) 
False

>  <Ro3>  (159) 
[False, False, True, True]

>  <Ro3_Fulfilled>  (159) 
False

>  <Fsp3>  (159) 
0.333333

>  <Fsp3_0.42>  (159) 
False

>  <Fsp3_0.45>  (159) 
False

>  <Stereogenic_Carbons>  (159) 
1

>  <C_Atoms>  (159) 
24

>  <FCStereo>  (159) 
0.041667

>  <SPS>  (159) 
421

>  <nSPS>  (159) 
12.382353

>  <PBF>  (159) 
1.112718

>  <PBF_0.6>  (159) 
True

>  <nPBF>  (159) 
0.032727

>  <nPBF_0.016>  (159) 
True

>  <PMI1>  (159) 
3797.777641

>  <PMI2>  (159) 
7187.039009

>  <PMI3>  (159) 
9703.402771

>  <NPR1>  (159) 
0.391386

>  <NPR2>  (159) 
0.740672

>  <Sum_NPR>  (159) 
1.132058

>  <Sum_NPR_1.07>  (159) 
True

>  <Sum_NPR_1.2>  (159) 
False

>  <MaxAbsEStateIndex>  (159) 
10.164611

>  <MaxEStateIndex>  (159) 
10.164611

>  <MinAbsEStateIndex>  (159) 
0.137178

>  <MinEStateIndex>  (159) 
-1.206416

>  <qed>  (159) 
0.352378

>  <MolWt>  (159) 
462.534

>  <HeavyAtomMolWt>  (159) 
434.31

>  <ExactMolWt>  (159) 
462.224814

>  <NumValenceElectrons>  (159) 
176

>  <NumRadicalElectrons>  (159) 
0

>  <MaxPartialCharge>  (159) 
0.216801

>  <MinPartialCharge>  (159) 
-0.469138

>  <MaxAbsPartialCharge>  (159) 
0.469138

>  <MinAbsPartialCharge>  (159) 
0.216801

>  <FpDensityMorgan1>  (159) 
1.235294

>  <FpDensityMorgan2>  (159) 
2.0

>  <FpDensityMorgan3>  (159) 
2.617647

>  <BCUT2D_MWHI>  (159) 
16.564613

>  <BCUT2D_MWLOW>  (159) 
10.070283

>  <BCUT2D_CHGHI>  (159) 
2.22698

>  <BCUT2D_CHGLO>  (159) 
-2.178144

>  <BCUT2D_LOGPHI>  (159) 
2.313646

>  <BCUT2D_LOGPLOW>  (159) 
-2.504595

>  <BCUT2D_MRHI>  (159) 
5.857963

>  <BCUT2D_MRLOW>  (159) 
-0.370474

>  <AvgIpc>  (159) 
3.395169

>  <BalabanJ>  (159) 
1.887784

>  <BertzCT>  (159) 
1344.139623

>  <Chi0>  (159) 
24.294318

>  <Chi0n>  (159) 
19.447007

>  <Chi0v>  (159) 
19.447007

>  <Chi1>  (159) 
16.302175

>  <Chi1n>  (159) 
11.064403

>  <Chi1v>  (159) 
11.064403

>  <Chi2n>  (159) 
8.322995

>  <Chi2v>  (159) 
8.322995

>  <Chi3n>  (159) 
5.142699

>  <Chi3v>  (159) 
5.142699

>  <Chi4n>  (159) 
3.602013

>  <Chi4v>  (159) 
3.602013

>  <HallKierAlpha>  (159) 
-3.94

>  <Ipc>  (159) 
49735528.899362

>  <Kappa1>  (159) 
23.226004

>  <Kappa2>  (159) 
9.506395

>  <Kappa3>  (159) 
4.854172

>  <LabuteASA>  (159) 
196.458229

>  <PEOE_VSA1>  (159) 
25.877825

>  <PEOE_VSA10>  (159) 
22.915646

>  <PEOE_VSA11>  (159) 
17.336195

>  <PEOE_VSA12>  (159) 
5.879988

>  <PEOE_VSA13>  (159) 
0.0

>  <PEOE_VSA14>  (159) 
0.0

>  <PEOE_VSA2>  (159) 
0.0

>  <PEOE_VSA3>  (159) 
14.596996

>  <PEOE_VSA4>  (159) 
0.0

>  <PEOE_VSA5>  (159) 
0.0

>  <PEOE_VSA6>  (159) 
36.25227

>  <PEOE_VSA7>  (159) 
42.568424

>  <PEOE_VSA8>  (159) 
19.031945

>  <PEOE_VSA9>  (159) 
12.061457

>  <SMR_VSA1>  (159) 
20.206097

>  <SMR_VSA10>  (159) 
16.851264

>  <SMR_VSA2>  (159) 
0.0

>  <SMR_VSA3>  (159) 
24.848383

>  <SMR_VSA4>  (159) 
0.0

>  <SMR_VSA5>  (159) 
45.441807

>  <SMR_VSA6>  (159) 
12.278424

>  <SMR_VSA7>  (159) 
47.655582

>  <SMR_VSA8>  (159) 
0.0

>  <SMR_VSA9>  (159) 
29.239189

>  <SlogP_VSA1>  (159) 
16.204198

>  <SlogP_VSA10>  (159) 
5.817863

>  <SlogP_VSA11>  (159) 
5.879988

>  <SlogP_VSA12>  (159) 
0.0

>  <SlogP_VSA2>  (159) 
42.100718

>  <SlogP_VSA3>  (159) 
6.544756

>  <SlogP_VSA4>  (159) 
11.840869

>  <SlogP_VSA5>  (159) 
44.553379

>  <SlogP_VSA6>  (159) 
41.027241

>  <SlogP_VSA7>  (159) 
0.0

>  <SlogP_VSA8>  (159) 
22.551734

>  <SlogP_VSA9>  (159) 
0.0

>  <EState_VSA1>  (159) 
5.601051

>  <EState_VSA10>  (159) 
5.106527

>  <EState_VSA11>  (159) 
0.0

>  <EState_VSA2>  (159) 
11.921829

>  <EState_VSA3>  (159) 
48.119284

>  <EState_VSA4>  (159) 
11.080152

>  <EState_VSA5>  (159) 
0.0

>  <EState_VSA6>  (159) 
13.847474

>  <EState_VSA7>  (159) 
47.889039

>  <EState_VSA8>  (159) 
32.871841

>  <EState_VSA9>  (159) 
20.083548

>  <VSA_EState1>  (159) 
13.06

>  <VSA_EState10>  (159) 
0.0

>  <VSA_EState2>  (159) 
9.360575

>  <VSA_EState3>  (159) 
17.746839

>  <VSA_EState4>  (159) 
11.73724

>  <VSA_EState5>  (159) 
6.798422

>  <VSA_EState6>  (159) 
11.768439

>  <VSA_EState7>  (159) 
0.486112

>  <VSA_EState8>  (159) 
6.459039

>  <VSA_EState9>  (159) 
0.0

>  <FractionCSP3>  (159) 
0.333333

>  <HeavyAtomCount>  (159) 
34

>  <NHOHCount>  (159) 
6

>  <NOCount>  (159) 
10

>  <NumAliphaticCarbocycles>  (159) 
0

>  <NumAliphaticHeterocycles>  (159) 
0

>  <NumAliphaticRings>  (159) 
0

>  <NumAromaticCarbocycles>  (159) 
1

>  <NumAromaticHeterocycles>  (159) 
3

>  <NumAromaticRings>  (159) 
4

>  <NumHAcceptors>  (159) 
9

>  <NumHDonors>  (159) 
3

>  <NumHeteroatoms>  (159) 
10

>  <NumRotatableBonds>  (159) 
7

>  <NumSaturatedCarbocycles>  (159) 
0

>  <NumSaturatedHeterocycles>  (159) 
0

>  <NumSaturatedRings>  (159) 
0

>  <RingCount>  (159) 
4

>  <MolLogP>  (159) 
1.9579

>  <MolMR>  (159) 
126.2653

>  <fr_Al_COO>  (159) 
0

>  <fr_Al_OH>  (159) 
1

>  <fr_Al_OH_noTert>  (159) 
0

>  <fr_ArN>  (159) 
1

>  <fr_Ar_COO>  (159) 
0

>  <fr_Ar_N>  (159) 
5

>  <fr_Ar_NH>  (159) 
0

>  <fr_Ar_OH>  (159) 
0

>  <fr_COO>  (159) 
0

>  <fr_COO2>  (159) 
0

>  <fr_C_O>  (159) 
0

>  <fr_C_O_noCOO>  (159) 
0

>  <fr_C_S>  (159) 
0

>  <fr_HOCCN>  (159) 
0

>  <fr_Imine>  (159) 
0

>  <fr_NH0>  (159) 
5

>  <fr_NH1>  (159) 
0

>  <fr_NH2>  (159) 
1

>  <fr_N_O>  (159) 
0

>  <fr_Ndealkylation1>  (159) 
0

>  <fr_Ndealkylation2>  (159) 
0

>  <fr_Nhpyrrole>  (159) 
0

>  <fr_SH>  (159) 
0

>  <fr_aldehyde>  (159) 
0

>  <fr_alkyl_carbamate>  (159) 
0

>  <fr_alkyl_halide>  (159) 
0

>  <fr_allylic_oxid>  (159) 
0

>  <fr_amide>  (159) 
0

>  <fr_amidine>  (159) 
0

>  <fr_aniline>  (159) 
1

>  <fr_aryl_methyl>  (159) 
1

>  <fr_azide>  (159) 
0

>  <fr_azo>  (159) 
0

>  <fr_barbitur>  (159) 
0

>  <fr_benzene>  (159) 
1

>  <fr_benzodiazepine>  (159) 
0

>  <fr_bicyclic>  (159) 
1

>  <fr_diazo>  (159) 
0

>  <fr_dihydropyridine>  (159) 
0

>  <fr_epoxide>  (159) 
0

>  <fr_ester>  (159) 
0

>  <fr_ether>  (159) 
1

>  <fr_furan>  (159) 
0

>  <fr_guanido>  (159) 
0

>  <fr_halogen>  (159) 
0

>  <fr_hdrzine>  (159) 
0

>  <fr_hdrzone>  (159) 
0

>  <fr_imidazole>  (159) 
1

>  <fr_imide>  (159) 
0

>  <fr_isocyan>  (159) 
0

>  <fr_isothiocyan>  (159) 
0

>  <fr_ketone>  (159) 
0

>  <fr_ketone_Topliss>  (159) 
0

>  <fr_lactam>  (159) 
0

>  <fr_lactone>  (159) 
0

>  <fr_methoxy>  (159) 
0

>  <fr_morpholine>  (159) 
0

>  <fr_nitrile>  (159) 
0

>  <fr_nitro>  (159) 
0

>  <fr_nitro_arom>  (159) 
0

>  <fr_nitro_arom_nonortho>  (159) 
0

>  <fr_nitroso>  (159) 
0

>  <fr_oxazole>  (159) 
0

>  <fr_oxime>  (159) 
0

>  <fr_para_hydroxylation>  (159) 
0

>  <fr_phenol>  (159) 
0

>  <fr_phenol_noOrthoHbond>  (159) 
0

>  <fr_phos_acid>  (159) 
0

>  <fr_phos_ester>  (159) 
0

>  <fr_piperdine>  (159) 
0

>  <fr_piperzine>  (159) 
0

>  <fr_priamide>  (159) 
0

>  <fr_prisulfonamd>  (159) 
0

>  <fr_pyridine>  (159) 
1

>  <fr_quatN>  (159) 
1

>  <fr_sulfide>  (159) 
0

>  <fr_sulfonamd>  (159) 
0

>  <fr_sulfone>  (159) 
0

>  <fr_term_acetylene>  (159) 
0

>  <fr_tetrazole>  (159) 
0

>  <fr_thiazole>  (159) 
0

>  <fr_thiocyan>  (159) 
0

>  <fr_thiophene>  (159) 
0

>  <fr_unbrch_alkane>  (159) 
0

>  <fr_urea>  (159) 
0

>  <NP_Likeness>  (159) 
-0.661798

$$$$
G98
     RDKit          3D

  0  0  0  0  0  0  0  0  0  0999 V3000
M  V30 BEGIN CTAB
M  V30 COUNTS 62 65 0 0 0
M  V30 BEGIN ATOM
M  V30 1 O 19.288000 35.905000 44.712000 0
M  V30 2 O 29.722000 35.656000 45.928000 0
M  V30 3 O 22.283000 30.720000 48.199000 0
M  V30 4 N 21.050000 29.575000 50.261000 0 CHG=1
M  V30 5 N 26.730000 36.950000 44.703000 0
M  V30 6 N 29.024000 36.666000 45.180000 0
M  V30 7 N 28.854000 34.649000 46.468000 0
M  V30 8 N 22.280000 32.607000 46.749000 0
M  V30 9 N 25.192000 34.699000 45.809000 0
M  V30 10 N 26.295000 33.271000 47.159000 0
M  V30 11 C 27.578000 31.177000 47.391000 0
M  V30 12 C 20.380000 35.475000 42.612000 0
M  V30 13 C 21.055000 37.410000 44.098000 0
M  V30 14 C 21.829000 28.359000 50.133000 0
M  V30 15 C 27.315000 32.561000 47.947000 0
M  V30 16 C 20.086000 27.073000 45.506000 0
M  V30 17 C 19.564000 28.048000 46.358000 0
M  V30 18 C 21.460000 26.866000 45.461000 0
M  V30 19 C 23.053000 28.637000 49.271000 0
M  V30 20 C 20.415000 28.807000 47.166000 0
M  V30 21 C 22.314000 27.618000 46.259000 0
M  V30 22 C 22.260000 34.425000 45.366000 0
M  V30 23 C 24.309000 31.899000 47.764000 0
M  V30 24 C 21.515000 35.089000 44.726000 0
M  V30 25 C 22.937000 31.751000 47.568000 0
M  V30 26 C 27.750000 36.249000 45.289000 0
M  V30 27 C 22.746000 29.374000 47.956000 0 CFG=1
M  V30 28 C 26.372000 34.343000 46.356000 0
M  V30 29 C 22.932000 33.619000 46.112000 0
M  V30 30 C 27.641000 35.085000 46.054000 0
M  V30 31 C 24.304000 33.804000 46.295000 0
M  V30 32 C 25.000000 32.927000 47.128000 0
M  V30 33 C 21.796000 28.590000 47.118000 0
M  V30 34 C 20.553000 35.966000 44.045000 0
M  V30 35 H 18.958300 34.960900 44.715700 0
M  V30 36 H 20.083600 29.341900 50.369300 0
M  V30 37 H 21.361000 30.087400 51.061500 0
M  V30 38 H 25.787100 36.629000 44.791800 0
M  V30 39 H 26.928000 37.783000 44.186300 0
M  V30 40 H 28.273600 30.721300 47.946400 0
M  V30 41 H 26.732600 30.643300 47.411700 0
M  V30 42 H 27.901400 31.252600 46.447800 0
M  V30 43 H 21.259500 35.514100 42.137800 0
M  V30 44 H 20.047600 34.531900 42.620600 0
M  V30 45 H 19.719400 36.057000 42.137700 0
M  V30 46 H 21.939700 37.472500 43.636000 0
M  V30 47 H 20.397200 38.008600 43.640900 0
M  V30 48 H 21.156300 37.692900 45.051800 0
M  V30 49 H 21.271700 27.648500 49.703400 0
M  V30 50 H 22.120600 28.051700 51.038800 0
M  V30 51 H 26.996700 32.477200 48.891300 0
M  V30 52 H 28.165500 33.086600 47.927300 0
M  V30 53 H 19.475700 26.527200 44.931900 0
M  V30 54 H 18.576800 28.204000 46.390300 0
M  V30 55 H 21.836900 26.170300 44.849500 0
M  V30 56 H 23.483600 27.762700 49.047000 0
M  V30 57 H 23.689900 29.195900 49.802100 0
M  V30 58 H 20.037700 29.503200 47.776700 0
M  V30 59 H 23.301100 27.462900 46.218100 0
M  V30 60 H 24.798400 31.265200 48.363000 0
M  V30 61 H 23.604000 29.442600 47.446900 0
M  V30 62 H 21.168100 30.134400 49.440600 0
M  V30 END ATOM
M  V30 BEGIN BOND
M  V30 1 1 1 34
M  V30 2 1 2 6
M  V30 3 1 2 7
M  V30 4 1 3 25
M  V30 5 1 3 27
M  V30 6 1 4 14
M  V30 7 1 5 26
M  V30 8 2 6 26
M  V30 9 2 7 30
M  V30 10 2 8 25
M  V30 11 1 8 29
M  V30 12 2 9 28
M  V30 13 1 9 31
M  V30 14 1 10 15
M  V30 15 1 10 28
M  V30 16 1 10 32
M  V30 17 1 11 15
M  V30 18 1 12 34
M  V30 19 1 13 34
M  V30 20 1 14 19
M  V30 21 2 16 17
M  V30 22 1 16 18
M  V30 23 1 17 20
M  V30 24 2 18 21
M  V30 25 1 19 27
M  V30 26 2 20 33
M  V30 27 1 21 33
M  V30 28 3 22 24
M  V30 29 1 22 29
M  V30 30 1 23 25
M  V30 31 2 23 32
M  V30 32 1 34 24
M  V30 33 1 26 30
M  V30 34 1 27 33
M  V30 35 1 28 30
M  V30 36 2 29 31
M  V30 37 1 31 32
M  V30 38 1 1 35
M  V30 39 1 4 36
M  V30 40 1 4 37
M  V30 41 1 5 38
M  V30 42 1 5 39
M  V30 43 1 11 40
M  V30 44 1 11 41
M  V30 45 1 11 42
M  V30 46 1 12 43
M  V30 47 1 12 44
M  V30 48 1 12 45
M  V30 49 1 13 46
M  V30 50 1 13 47
M  V30 51 1 13 48
M  V30 52 1 14 49
M  V30 53 1 14 50
M  V30 54 1 15 51
M  V30 55 1 15 52
M  V30 56 1 16 53
M  V30 57 1 17 54
M  V30 58 1 18 55
M  V30 59 1 19 56
M  V30 60 1 19 57
M  V30 61 1 20 58
M  V30 62 1 21 59
M  V30 63 1 23 60
M  V30 64 1 27 61 CFG=3
M  V30 65 1 4 62
M  V30 END BOND
M  V30 END CTAB
M  END
>  <Ligand_Instance>  (160) 
3E8E_G98_I_351

>  <Dataset>  (160) 
PDB

>  <PDB_ID>  (160) 
3E8E

>  <Chain>  (160) 
I

>  <Resi>  (160) 
351

>  <Num_Resolved_Atoms>  (160) 
34

>  <Num_H_Atoms_ProtBoundConf>  (160) 
28

>  <Pocket>  (160) 
A, B

>  <Name>  (160) 
4-[2-(4-amino-2,5-dihydro-1,2,5-oxadiazol-3-yl)-6-{[(1S)-3-amino-1-phenylpropyl]oxy}-1-ethyl-1H-imidazo[4,5-c]pyridin-4-yl]-2-methylbut-3-yn-2-ol

>  <Num_Not_Resolved_Atoms>  (160) 
0

>  <ATP_Site>  (160) 
True

>  <Peripheral>  (160) 
False

>  <Standardized_SMILES>  (160) 
[H]OC(C#CC1=C2N=C(C3=NON=C3N([H])[H])N(C([H])([H])C([H])([H])[H])C2=C([H])C(O[C@]([H])(C2=C([H])C([H])=C([H])C([H])=C2[H])C([H])([H])C([H])([H])[N+]([H])([H])[H])=N1)(C([H])([H])[H])C([H])([H])[H]

>  <2D_Mol_H>  (160) 
<rdkit.Chem.rdchem.Mol object at 0x77059d9fad50>

>  <MW>  (160) 
462.534

>  <HBA>  (160) 
9

>  <HBD>  (160) 
3

>  <LogP>  (160) 
1.9579

>  <NRB>  (160) 
13

>  <TPSA>  (160) 
152.75

>  <Num_Heavy_Atoms>  (160) 
34

>  <Ro5>  (160) 
[True, True, True, True, False, False]

>  <Ro5_Fulfilled>  (160) 
False

>  <Ro3>  (160) 
[False, False, True, True]

>  <Ro3_Fulfilled>  (160) 
False

>  <Fsp3>  (160) 
0.333333

>  <Fsp3_0.42>  (160) 
False

>  <Fsp3_0.45>  (160) 
False

>  <Stereogenic_Carbons>  (160) 
1

>  <C_Atoms>  (160) 
24

>  <FCStereo>  (160) 
0.041667

>  <SPS>  (160) 
421

>  <nSPS>  (160) 
12.382353

>  <PBF>  (160) 
1.050254

>  <PBF_0.6>  (160) 
True

>  <nPBF>  (160) 
0.03089

>  <nPBF_0.016>  (160) 
True

>  <PMI1>  (160) 
3746.395608

>  <PMI2>  (160) 
7188.540124

>  <PMI3>  (160) 
9806.424111

>  <NPR1>  (160) 
0.382035

>  <NPR2>  (160) 
0.733044

>  <Sum_NPR>  (160) 
1.115079

>  <Sum_NPR_1.07>  (160) 
True

>  <Sum_NPR_1.2>  (160) 
False

>  <MaxAbsEStateIndex>  (160) 
10.164611

>  <MaxEStateIndex>  (160) 
10.164611

>  <MinAbsEStateIndex>  (160) 
0.137178

>  <MinEStateIndex>  (160) 
-1.206416

>  <qed>  (160) 
0.352378

>  <MolWt>  (160) 
462.534

>  <HeavyAtomMolWt>  (160) 
434.31

>  <ExactMolWt>  (160) 
462.224814

>  <NumValenceElectrons>  (160) 
176

>  <NumRadicalElectrons>  (160) 
0

>  <MaxPartialCharge>  (160) 
0.216801

>  <MinPartialCharge>  (160) 
-0.469138

>  <MaxAbsPartialCharge>  (160) 
0.469138

>  <MinAbsPartialCharge>  (160) 
0.216801

>  <FpDensityMorgan1>  (160) 
1.235294

>  <FpDensityMorgan2>  (160) 
2.0

>  <FpDensityMorgan3>  (160) 
2.617647

>  <BCUT2D_MWHI>  (160) 
16.564613

>  <BCUT2D_MWLOW>  (160) 
10.070283

>  <BCUT2D_CHGHI>  (160) 
2.22698

>  <BCUT2D_CHGLO>  (160) 
-2.178144

>  <BCUT2D_LOGPHI>  (160) 
2.313646

>  <BCUT2D_LOGPLOW>  (160) 
-2.504595

>  <BCUT2D_MRHI>  (160) 
5.857963

>  <BCUT2D_MRLOW>  (160) 
-0.370474

>  <AvgIpc>  (160) 
3.395169

>  <BalabanJ>  (160) 
1.887784

>  <BertzCT>  (160) 
1344.139623

>  <Chi0>  (160) 
24.294318

>  <Chi0n>  (160) 
19.447007

>  <Chi0v>  (160) 
19.447007

>  <Chi1>  (160) 
16.302175

>  <Chi1n>  (160) 
11.064403

>  <Chi1v>  (160) 
11.064403

>  <Chi2n>  (160) 
8.322995

>  <Chi2v>  (160) 
8.322995

>  <Chi3n>  (160) 
5.142699

>  <Chi3v>  (160) 
5.142699

>  <Chi4n>  (160) 
3.602013

>  <Chi4v>  (160) 
3.602013

>  <HallKierAlpha>  (160) 
-3.94

>  <Ipc>  (160) 
49735528.899362

>  <Kappa1>  (160) 
23.226004

>  <Kappa2>  (160) 
9.506395

>  <Kappa3>  (160) 
4.854172

>  <LabuteASA>  (160) 
196.458229

>  <PEOE_VSA1>  (160) 
25.877825

>  <PEOE_VSA10>  (160) 
22.915646

>  <PEOE_VSA11>  (160) 
17.336195

>  <PEOE_VSA12>  (160) 
5.879988

>  <PEOE_VSA13>  (160) 
0.0

>  <PEOE_VSA14>  (160) 
0.0

>  <PEOE_VSA2>  (160) 
0.0

>  <PEOE_VSA3>  (160) 
14.596996

>  <PEOE_VSA4>  (160) 
0.0

>  <PEOE_VSA5>  (160) 
0.0

>  <PEOE_VSA6>  (160) 
36.25227

>  <PEOE_VSA7>  (160) 
42.568424

>  <PEOE_VSA8>  (160) 
19.031945

>  <PEOE_VSA9>  (160) 
12.061457

>  <SMR_VSA1>  (160) 
20.206097

>  <SMR_VSA10>  (160) 
16.851264

>  <SMR_VSA2>  (160) 
0.0

>  <SMR_VSA3>  (160) 
24.848383

>  <SMR_VSA4>  (160) 
0.0

>  <SMR_VSA5>  (160) 
45.441807

>  <SMR_VSA6>  (160) 
12.278424

>  <SMR_VSA7>  (160) 
47.655582

>  <SMR_VSA8>  (160) 
0.0

>  <SMR_VSA9>  (160) 
29.239189

>  <SlogP_VSA1>  (160) 
16.204198

>  <SlogP_VSA10>  (160) 
5.817863

>  <SlogP_VSA11>  (160) 
5.879988

>  <SlogP_VSA12>  (160) 
0.0

>  <SlogP_VSA2>  (160) 
42.100718

>  <SlogP_VSA3>  (160) 
6.544756

>  <SlogP_VSA4>  (160) 
11.840869

>  <SlogP_VSA5>  (160) 
44.553379

>  <SlogP_VSA6>  (160) 
41.027241

>  <SlogP_VSA7>  (160) 
0.0

>  <SlogP_VSA8>  (160) 
22.551734

>  <SlogP_VSA9>  (160) 
0.0

>  <EState_VSA1>  (160) 
5.601051

>  <EState_VSA10>  (160) 
5.106527

>  <EState_VSA11>  (160) 
0.0

>  <EState_VSA2>  (160) 
11.921829

>  <EState_VSA3>  (160) 
48.119284

>  <EState_VSA4>  (160) 
11.080152

>  <EState_VSA5>  (160) 
0.0

>  <EState_VSA6>  (160) 
13.847474

>  <EState_VSA7>  (160) 
47.889039

>  <EState_VSA8>  (160) 
32.871841

>  <EState_VSA9>  (160) 
20.083548

>  <VSA_EState1>  (160) 
13.06

>  <VSA_EState10>  (160) 
0.0

>  <VSA_EState2>  (160) 
9.360575

>  <VSA_EState3>  (160) 
17.746839

>  <VSA_EState4>  (160) 
11.73724

>  <VSA_EState5>  (160) 
6.798422

>  <VSA_EState6>  (160) 
11.768439

>  <VSA_EState7>  (160) 
0.486112

>  <VSA_EState8>  (160) 
6.459039

>  <VSA_EState9>  (160) 
0.0

>  <FractionCSP3>  (160) 
0.333333

>  <HeavyAtomCount>  (160) 
34

>  <NHOHCount>  (160) 
6

>  <NOCount>  (160) 
10

>  <NumAliphaticCarbocycles>  (160) 
0

>  <NumAliphaticHeterocycles>  (160) 
0

>  <NumAliphaticRings>  (160) 
0

>  <NumAromaticCarbocycles>  (160) 
1

>  <NumAromaticHeterocycles>  (160) 
3

>  <NumAromaticRings>  (160) 
4

>  <NumHAcceptors>  (160) 
9

>  <NumHDonors>  (160) 
3

>  <NumHeteroatoms>  (160) 
10

>  <NumRotatableBonds>  (160) 
7

>  <NumSaturatedCarbocycles>  (160) 
0

>  <NumSaturatedHeterocycles>  (160) 
0

>  <NumSaturatedRings>  (160) 
0

>  <RingCount>  (160) 
4

>  <MolLogP>  (160) 
1.9579

>  <MolMR>  (160) 
126.2653

>  <fr_Al_COO>  (160) 
0

>  <fr_Al_OH>  (160) 
1

>  <fr_Al_OH_noTert>  (160) 
0

>  <fr_ArN>  (160) 
1

>  <fr_Ar_COO>  (160) 
0

>  <fr_Ar_N>  (160) 
5

>  <fr_Ar_NH>  (160) 
0

>  <fr_Ar_OH>  (160) 
0

>  <fr_COO>  (160) 
0

>  <fr_COO2>  (160) 
0

>  <fr_C_O>  (160) 
0

>  <fr_C_O_noCOO>  (160) 
0

>  <fr_C_S>  (160) 
0

>  <fr_HOCCN>  (160) 
0

>  <fr_Imine>  (160) 
0

>  <fr_NH0>  (160) 
5

>  <fr_NH1>  (160) 
0

>  <fr_NH2>  (160) 
1

>  <fr_N_O>  (160) 
0

>  <fr_Ndealkylation1>  (160) 
0

>  <fr_Ndealkylation2>  (160) 
0

>  <fr_Nhpyrrole>  (160) 
0

>  <fr_SH>  (160) 
0

>  <fr_aldehyde>  (160) 
0

>  <fr_alkyl_carbamate>  (160) 
0

>  <fr_alkyl_halide>  (160) 
0

>  <fr_allylic_oxid>  (160) 
0

>  <fr_amide>  (160) 
0

>  <fr_amidine>  (160) 
0

>  <fr_aniline>  (160) 
1

>  <fr_aryl_methyl>  (160) 
1

>  <fr_azide>  (160) 
0

>  <fr_azo>  (160) 
0

>  <fr_barbitur>  (160) 
0

>  <fr_benzene>  (160) 
1

>  <fr_benzodiazepine>  (160) 
0

>  <fr_bicyclic>  (160) 
1

>  <fr_diazo>  (160) 
0

>  <fr_dihydropyridine>  (160) 
0

>  <fr_epoxide>  (160) 
0

>  <fr_ester>  (160) 
0

>  <fr_ether>  (160) 
1

>  <fr_furan>  (160) 
0

>  <fr_guanido>  (160) 
0

>  <fr_halogen>  (160) 
0

>  <fr_hdrzine>  (160) 
0

>  <fr_hdrzone>  (160) 
0

>  <fr_imidazole>  (160) 
1

>  <fr_imide>  (160) 
0

>  <fr_isocyan>  (160) 
0

>  <fr_isothiocyan>  (160) 
0

>  <fr_ketone>  (160) 
0

>  <fr_ketone_Topliss>  (160) 
0

>  <fr_lactam>  (160) 
0

>  <fr_lactone>  (160) 
0

>  <fr_methoxy>  (160) 
0

>  <fr_morpholine>  (160) 
0

>  <fr_nitrile>  (160) 
0

>  <fr_nitro>  (160) 
0

>  <fr_nitro_arom>  (160) 
0

>  <fr_nitro_arom_nonortho>  (160) 
0

>  <fr_nitroso>  (160) 
0

>  <fr_oxazole>  (160) 
0

>  <fr_oxime>  (160) 
0

>  <fr_para_hydroxylation>  (160) 
0

>  <fr_phenol>  (160) 
0

>  <fr_phenol_noOrthoHbond>  (160) 
0

>  <fr_phos_acid>  (160) 
0

>  <fr_phos_ester>  (160) 
0

>  <fr_piperdine>  (160) 
0

>  <fr_piperzine>  (160) 
0

>  <fr_priamide>  (160) 
0

>  <fr_prisulfonamd>  (160) 
0

>  <fr_pyridine>  (160) 
1

>  <fr_quatN>  (160) 
1

>  <fr_sulfide>  (160) 
0

>  <fr_sulfonamd>  (160) 
0

>  <fr_sulfone>  (160) 
0

>  <fr_term_acetylene>  (160) 
0

>  <fr_tetrazole>  (160) 
0

>  <fr_thiazole>  (160) 
0

>  <fr_thiocyan>  (160) 
0

>  <fr_thiophene>  (160) 
0

>  <fr_unbrch_alkane>  (160) 
0

>  <fr_urea>  (160) 
0

>  <NP_Likeness>  (160) 
-0.661798

$$$$
G98
     RDKit          3D

  0  0  0  0  0  0  0  0  0  0999 V3000
M  V30 BEGIN CTAB
M  V30 COUNTS 62 65 0 0 0
M  V30 BEGIN ATOM
M  V30 1 O -46.072000 -7.536000 72.552000 0
M  V30 2 O -56.360000 -8.116000 71.390000 0
M  V30 3 O -48.970000 -13.251000 69.488000 0
M  V30 4 N -47.558000 -15.304000 67.666000 0 CHG=1
M  V30 5 N -53.368000 -6.512000 72.127000 0
M  V30 6 N -55.670000 -6.953000 71.880000 0
M  V30 7 N -55.487000 -9.179000 70.989000 0
M  V30 8 N -48.925000 -11.222000 70.732000 0
M  V30 9 N -51.818000 -9.021000 71.484000 0
M  V30 10 N -52.953000 -10.555000 70.301000 0
M  V30 11 C -54.718000 -12.233000 70.569000 0
M  V30 12 C -47.287000 -7.837000 74.606000 0
M  V30 13 C -47.940000 -6.058000 72.940000 0
M  V30 14 C -48.526000 -16.236000 68.206000 0
M  V30 15 C -54.016000 -11.296000 69.611000 0
M  V30 16 C -46.920000 -16.160000 73.004000 0
M  V30 17 C -46.346000 -15.641000 71.847000 0
M  V30 18 C -48.305000 -16.142000 73.154000 0
M  V30 19 C -49.723000 -15.474000 68.773000 0
M  V30 20 C -47.160000 -15.103000 70.849000 0
M  V30 21 C -49.121000 -15.612000 72.158000 0
M  V30 22 C -48.884000 -9.290000 71.931000 0
M  V30 23 C -50.978000 -12.006000 69.816000 0
M  V30 24 C -48.276000 -8.419000 72.452000 0
M  V30 25 C -49.602000 -12.146000 70.010000 0
M  V30 26 C -54.389000 -7.352000 71.767000 0
M  V30 27 C -49.451000 -14.525000 69.950000 0 CFG=1
M  V30 28 C -53.006000 -9.404000 70.981000 0
M  V30 29 C -49.566000 -10.149000 71.263000 0
M  V30 30 C -54.275000 -8.634000 71.223000 0
M  V30 31 C -50.942000 -9.970000 71.078000 0
M  V30 32 C -51.659000 -10.916000 70.345000 0
M  V30 33 C -48.552000 -15.094000 70.993000 0
M  V30 34 C -47.382000 -7.467000 73.130000 0
M  V30 35 H -45.532000 -8.227600 73.031600 0
M  V30 36 H -46.639800 -15.691100 67.749800 0
M  V30 37 H -47.761200 -15.133700 66.701800 0
M  V30 38 H -52.418500 -6.813600 72.041000 0
M  V30 39 H -53.572400 -5.597400 72.475800 0
M  V30 40 H -55.437800 -12.728800 70.083000 0
M  V30 41 H -54.057600 -12.884800 70.941800 0
M  V30 42 H -55.122700 -11.704800 71.315400 0
M  V30 43 H -48.196100 -7.792200 75.020100 0
M  V30 44 H -46.925800 -8.765300 74.694400 0
M  V30 45 H -46.676700 -7.196200 75.071700 0
M  V30 46 H -48.854200 -6.004600 73.341700 0
M  V30 47 H -47.338900 -5.397900 73.390400 0
M  V30 48 H -47.992300 -5.849000 71.963500 0
M  V30 49 H -48.099300 -16.772200 68.934300 0
M  V30 50 H -48.837100 -16.848700 67.479500 0
M  V30 51 H -53.615200 -11.827900 68.865100 0
M  V30 52 H -54.680400 -10.647900 69.238700 0
M  V30 53 H -46.341400 -16.543700 73.723700 0
M  V30 54 H -45.352800 -15.653600 71.731100 0
M  V30 55 H -48.717400 -16.513600 73.985700 0
M  V30 56 H -50.393500 -16.149900 69.079000 0
M  V30 57 H -50.113400 -14.929700 68.030500 0
M  V30 58 H -46.744800 -14.720500 70.023600 0
M  V30 59 H -50.113800 -15.602400 72.277000 0
M  V30 60 H -51.477500 -12.695900 69.292000 0
M  V30 61 H -50.332100 -14.356000 70.391800 0
M  V30 62 H -47.604600 -14.443600 68.173500 0
M  V30 END ATOM
M  V30 BEGIN BOND
M  V30 1 1 1 34
M  V30 2 1 2 6
M  V30 3 1 2 7
M  V30 4 1 3 25
M  V30 5 1 3 27
M  V30 6 1 4 14
M  V30 7 1 5 26
M  V30 8 2 6 26
M  V30 9 2 7 30
M  V30 10 2 8 25
M  V30 11 1 8 29
M  V30 12 2 9 28
M  V30 13 1 9 31
M  V30 14 1 10 15
M  V30 15 1 10 28
M  V30 16 1 10 32
M  V30 17 1 11 15
M  V30 18 1 12 34
M  V30 19 1 13 34
M  V30 20 1 14 19
M  V30 21 2 16 17
M  V30 22 1 16 18
M  V30 23 1 17 20
M  V30 24 2 18 21
M  V30 25 1 19 27
M  V30 26 2 20 33
M  V30 27 1 21 33
M  V30 28 3 22 24
M  V30 29 1 22 29
M  V30 30 1 23 25
M  V30 31 2 23 32
M  V30 32 1 34 24
M  V30 33 1 26 30
M  V30 34 1 27 33
M  V30 35 1 28 30
M  V30 36 2 29 31
M  V30 37 1 31 32
M  V30 38 1 1 35
M  V30 39 1 4 36
M  V30 40 1 4 37
M  V30 41 1 5 38
M  V30 42 1 5 39
M  V30 43 1 11 40
M  V30 44 1 11 41
M  V30 45 1 11 42
M  V30 46 1 12 43
M  V30 47 1 12 44
M  V30 48 1 12 45
M  V30 49 1 13 46
M  V30 50 1 13 47
M  V30 51 1 13 48
M  V30 52 1 14 49
M  V30 53 1 14 50
M  V30 54 1 15 51
M  V30 55 1 15 52
M  V30 56 1 16 53
M  V30 57 1 17 54
M  V30 58 1 18 55
M  V30 59 1 19 56
M  V30 60 1 19 57
M  V30 61 1 20 58
M  V30 62 1 21 59
M  V30 63 1 23 60
M  V30 64 1 27 61 CFG=1
M  V30 65 1 4 62
M  V30 END BOND
M  V30 END CTAB
M  END
>  <Ligand_Instance>  (161) 
3E8E_G98_L_351

>  <Dataset>  (161) 
PDB

>  <PDB_ID>  (161) 
3E8E

>  <Chain>  (161) 
L

>  <Resi>  (161) 
351

>  <Num_Resolved_Atoms>  (161) 
34

>  <Num_H_Atoms_ProtBoundConf>  (161) 
28

>  <Pocket>  (161) 
A, B

>  <Name>  (161) 
4-[2-(4-amino-2,5-dihydro-1,2,5-oxadiazol-3-yl)-6-{[(1S)-3-amino-1-phenylpropyl]oxy}-1-ethyl-1H-imidazo[4,5-c]pyridin-4-yl]-2-methylbut-3-yn-2-ol

>  <Num_Not_Resolved_Atoms>  (161) 
0

>  <ATP_Site>  (161) 
True

>  <Peripheral>  (161) 
False

>  <Standardized_SMILES>  (161) 
[H]OC(C#CC1=C2N=C(C3=NON=C3N([H])[H])N(C([H])([H])C([H])([H])[H])C2=C([H])C(O[C@]([H])(C2=C([H])C([H])=C([H])C([H])=C2[H])C([H])([H])C([H])([H])[N+]([H])([H])[H])=N1)(C([H])([H])[H])C([H])([H])[H]

>  <2D_Mol_H>  (161) 
<rdkit.Chem.rdchem.Mol object at 0x77059d9fae30>

>  <MW>  (161) 
462.534

>  <HBA>  (161) 
9

>  <HBD>  (161) 
3

>  <LogP>  (161) 
1.9579

>  <NRB>  (161) 
13

>  <TPSA>  (161) 
152.75

>  <Num_Heavy_Atoms>  (161) 
34

>  <Ro5>  (161) 
[True, True, True, True, False, False]

>  <Ro5_Fulfilled>  (161) 
False

>  <Ro3>  (161) 
[False, False, True, True]

>  <Ro3_Fulfilled>  (161) 
False

>  <Fsp3>  (161) 
0.333333

>  <Fsp3_0.42>  (161) 
False

>  <Fsp3_0.45>  (161) 
False

>  <Stereogenic_Carbons>  (161) 
1

>  <C_Atoms>  (161) 
24

>  <FCStereo>  (161) 
0.041667

>  <SPS>  (161) 
421

>  <nSPS>  (161) 
12.382353

>  <PBF>  (161) 
1.063041

>  <PBF_0.6>  (161) 
True

>  <nPBF>  (161) 
0.031266

>  <nPBF_0.016>  (161) 
True

>  <PMI1>  (161) 
3718.762222

>  <PMI2>  (161) 
7178.418015

>  <PMI3>  (161) 
9728.925995

>  <NPR1>  (161) 
0.382238

>  <NPR2>  (161) 
0.737843

>  <Sum_NPR>  (161) 
1.12008

>  <Sum_NPR_1.07>  (161) 
True

>  <Sum_NPR_1.2>  (161) 
False

>  <MaxAbsEStateIndex>  (161) 
10.164611

>  <MaxEStateIndex>  (161) 
10.164611

>  <MinAbsEStateIndex>  (161) 
0.137178

>  <MinEStateIndex>  (161) 
-1.206416

>  <qed>  (161) 
0.352378

>  <MolWt>  (161) 
462.534

>  <HeavyAtomMolWt>  (161) 
434.31

>  <ExactMolWt>  (161) 
462.224814

>  <NumValenceElectrons>  (161) 
176

>  <NumRadicalElectrons>  (161) 
0

>  <MaxPartialCharge>  (161) 
0.216801

>  <MinPartialCharge>  (161) 
-0.469138

>  <MaxAbsPartialCharge>  (161) 
0.469138

>  <MinAbsPartialCharge>  (161) 
0.216801

>  <FpDensityMorgan1>  (161) 
1.235294

>  <FpDensityMorgan2>  (161) 
2.0

>  <FpDensityMorgan3>  (161) 
2.617647

>  <BCUT2D_MWHI>  (161) 
16.564613

>  <BCUT2D_MWLOW>  (161) 
10.070283

>  <BCUT2D_CHGHI>  (161) 
2.22698

>  <BCUT2D_CHGLO>  (161) 
-2.178144

>  <BCUT2D_LOGPHI>  (161) 
2.313646

>  <BCUT2D_LOGPLOW>  (161) 
-2.504595

>  <BCUT2D_MRHI>  (161) 
5.857963

>  <BCUT2D_MRLOW>  (161) 
-0.370474

>  <AvgIpc>  (161) 
3.395169

>  <BalabanJ>  (161) 
1.887784

>  <BertzCT>  (161) 
1344.139623

>  <Chi0>  (161) 
24.294318

>  <Chi0n>  (161) 
19.447007

>  <Chi0v>  (161) 
19.447007

>  <Chi1>  (161) 
16.302175

>  <Chi1n>  (161) 
11.064403

>  <Chi1v>  (161) 
11.064403

>  <Chi2n>  (161) 
8.322995

>  <Chi2v>  (161) 
8.322995

>  <Chi3n>  (161) 
5.142699

>  <Chi3v>  (161) 
5.142699

>  <Chi4n>  (161) 
3.602013

>  <Chi4v>  (161) 
3.602013

>  <HallKierAlpha>  (161) 
-3.94

>  <Ipc>  (161) 
49735528.899362

>  <Kappa1>  (161) 
23.226004

>  <Kappa2>  (161) 
9.506395

>  <Kappa3>  (161) 
4.854172

>  <LabuteASA>  (161) 
196.458229

>  <PEOE_VSA1>  (161) 
25.877825

>  <PEOE_VSA10>  (161) 
22.915646

>  <PEOE_VSA11>  (161) 
17.336195

>  <PEOE_VSA12>  (161) 
5.879988

>  <PEOE_VSA13>  (161) 
0.0

>  <PEOE_VSA14>  (161) 
0.0

>  <PEOE_VSA2>  (161) 
0.0

>  <PEOE_VSA3>  (161) 
14.596996

>  <PEOE_VSA4>  (161) 
0.0

>  <PEOE_VSA5>  (161) 
0.0

>  <PEOE_VSA6>  (161) 
36.25227

>  <PEOE_VSA7>  (161) 
42.568424

>  <PEOE_VSA8>  (161) 
19.031945

>  <PEOE_VSA9>  (161) 
12.061457

>  <SMR_VSA1>  (161) 
20.206097

>  <SMR_VSA10>  (161) 
16.851264

>  <SMR_VSA2>  (161) 
0.0

>  <SMR_VSA3>  (161) 
24.848383

>  <SMR_VSA4>  (161) 
0.0

>  <SMR_VSA5>  (161) 
45.441807

>  <SMR_VSA6>  (161) 
12.278424

>  <SMR_VSA7>  (161) 
47.655582

>  <SMR_VSA8>  (161) 
0.0

>  <SMR_VSA9>  (161) 
29.239189

>  <SlogP_VSA1>  (161) 
16.204198

>  <SlogP_VSA10>  (161) 
5.817863

>  <SlogP_VSA11>  (161) 
5.879988

>  <SlogP_VSA12>  (161) 
0.0

>  <SlogP_VSA2>  (161) 
42.100718

>  <SlogP_VSA3>  (161) 
6.544756

>  <SlogP_VSA4>  (161) 
11.840869

>  <SlogP_VSA5>  (161) 
44.553379

>  <SlogP_VSA6>  (161) 
41.027241

>  <SlogP_VSA7>  (161) 
0.0

>  <SlogP_VSA8>  (161) 
22.551734

>  <SlogP_VSA9>  (161) 
0.0

>  <EState_VSA1>  (161) 
5.601051

>  <EState_VSA10>  (161) 
5.106527

>  <EState_VSA11>  (161) 
0.0

>  <EState_VSA2>  (161) 
11.921829

>  <EState_VSA3>  (161) 
48.119284

>  <EState_VSA4>  (161) 
11.080152

>  <EState_VSA5>  (161) 
0.0

>  <EState_VSA6>  (161) 
13.847474

>  <EState_VSA7>  (161) 
47.889039

>  <EState_VSA8>  (161) 
32.871841

>  <EState_VSA9>  (161) 
20.083548

>  <VSA_EState1>  (161) 
13.06

>  <VSA_EState10>  (161) 
0.0

>  <VSA_EState2>  (161) 
9.360575

>  <VSA_EState3>  (161) 
17.746839

>  <VSA_EState4>  (161) 
11.73724

>  <VSA_EState5>  (161) 
6.798422

>  <VSA_EState6>  (161) 
11.768439

>  <VSA_EState7>  (161) 
0.486112

>  <VSA_EState8>  (161) 
6.459039

>  <VSA_EState9>  (161) 
0.0

>  <FractionCSP3>  (161) 
0.333333

>  <HeavyAtomCount>  (161) 
34

>  <NHOHCount>  (161) 
6

>  <NOCount>  (161) 
10

>  <NumAliphaticCarbocycles>  (161) 
0

>  <NumAliphaticHeterocycles>  (161) 
0

>  <NumAliphaticRings>  (161) 
0

>  <NumAromaticCarbocycles>  (161) 
1

>  <NumAromaticHeterocycles>  (161) 
3

>  <NumAromaticRings>  (161) 
4

>  <NumHAcceptors>  (161) 
9

>  <NumHDonors>  (161) 
3

>  <NumHeteroatoms>  (161) 
10

>  <NumRotatableBonds>  (161) 
7

>  <NumSaturatedCarbocycles>  (161) 
0

>  <NumSaturatedHeterocycles>  (161) 
0

>  <NumSaturatedRings>  (161) 
0

>  <RingCount>  (161) 
4

>  <MolLogP>  (161) 
1.9579

>  <MolMR>  (161) 
126.2653

>  <fr_Al_COO>  (161) 
0

>  <fr_Al_OH>  (161) 
1

>  <fr_Al_OH_noTert>  (161) 
0

>  <fr_ArN>  (161) 
1

>  <fr_Ar_COO>  (161) 
0

>  <fr_Ar_N>  (161) 
5

>  <fr_Ar_NH>  (161) 
0

>  <fr_Ar_OH>  (161) 
0

>  <fr_COO>  (161) 
0

>  <fr_COO2>  (161) 
0

>  <fr_C_O>  (161) 
0

>  <fr_C_O_noCOO>  (161) 
0

>  <fr_C_S>  (161) 
0

>  <fr_HOCCN>  (161) 
0

>  <fr_Imine>  (161) 
0

>  <fr_NH0>  (161) 
5

>  <fr_NH1>  (161) 
0

>  <fr_NH2>  (161) 
1

>  <fr_N_O>  (161) 
0

>  <fr_Ndealkylation1>  (161) 
0

>  <fr_Ndealkylation2>  (161) 
0

>  <fr_Nhpyrrole>  (161) 
0

>  <fr_SH>  (161) 
0

>  <fr_aldehyde>  (161) 
0

>  <fr_alkyl_carbamate>  (161) 
0

>  <fr_alkyl_halide>  (161) 
0

>  <fr_allylic_oxid>  (161) 
0

>  <fr_amide>  (161) 
0

>  <fr_amidine>  (161) 
0

>  <fr_aniline>  (161) 
1

>  <fr_aryl_methyl>  (161) 
1

>  <fr_azide>  (161) 
0

>  <fr_azo>  (161) 
0

>  <fr_barbitur>  (161) 
0

>  <fr_benzene>  (161) 
1

>  <fr_benzodiazepine>  (161) 
0

>  <fr_bicyclic>  (161) 
1

>  <fr_diazo>  (161) 
0

>  <fr_dihydropyridine>  (161) 
0

>  <fr_epoxide>  (161) 
0

>  <fr_ester>  (161) 
0

>  <fr_ether>  (161) 
1

>  <fr_furan>  (161) 
0

>  <fr_guanido>  (161) 
0

>  <fr_halogen>  (161) 
0

>  <fr_hdrzine>  (161) 
0

>  <fr_hdrzone>  (161) 
0

>  <fr_imidazole>  (161) 
1

>  <fr_imide>  (161) 
0

>  <fr_isocyan>  (161) 
0

>  <fr_isothiocyan>  (161) 
0

>  <fr_ketone>  (161) 
0

>  <fr_ketone_Topliss>  (161) 
0

>  <fr_lactam>  (161) 
0

>  <fr_lactone>  (161) 
0

>  <fr_methoxy>  (161) 
0

>  <fr_morpholine>  (161) 
0

>  <fr_nitrile>  (161) 
0

>  <fr_nitro>  (161) 
0

>  <fr_nitro_arom>  (161) 
0

>  <fr_nitro_arom_nonortho>  (161) 
0

>  <fr_nitroso>  (161) 
0

>  <fr_oxazole>  (161) 
0

>  <fr_oxime>  (161) 
0

>  <fr_para_hydroxylation>  (161) 
0

>  <fr_phenol>  (161) 
0

>  <fr_phenol_noOrthoHbond>  (161) 
0

>  <fr_phos_acid>  (161) 
0

>  <fr_phos_ester>  (161) 
0

>  <fr_piperdine>  (161) 
0

>  <fr_piperzine>  (161) 
0

>  <fr_priamide>  (161) 
0

>  <fr_prisulfonamd>  (161) 
0

>  <fr_pyridine>  (161) 
1

>  <fr_quatN>  (161) 
1

>  <fr_sulfide>  (161) 
0

>  <fr_sulfonamd>  (161) 
0

>  <fr_sulfone>  (161) 
0

>  <fr_term_acetylene>  (161) 
0

>  <fr_tetrazole>  (161) 
0

>  <fr_thiazole>  (161) 
0

>  <fr_thiocyan>  (161) 
0

>  <fr_thiophene>  (161) 
0

>  <fr_unbrch_alkane>  (161) 
0

>  <fr_urea>  (161) 
0

>  <NP_Likeness>  (161) 
-0.661798

$$$$
G98
     RDKit          3D

  0  0  0  0  0  0  0  0  0  0999 V3000
M  V30 BEGIN CTAB
M  V30 COUNTS 62 65 0 0 0
M  V30 BEGIN ATOM
M  V30 1 O -9.262000 -3.753000 79.608000 0
M  V30 2 O 0.972000 -1.632000 80.457000 0
M  V30 3 O -4.772000 -8.811000 80.926000 0
M  V30 4 N -5.159000 -10.302000 82.789000 0 CHG=1
M  V30 5 N -2.360000 -0.783000 80.032000 0
M  V30 6 N -0.018000 -0.622000 80.223000 0
M  V30 7 N 0.443000 -2.960000 80.588000 0
M  V30 8 N -5.370000 -6.621000 80.283000 0
M  V30 9 N -3.164000 -3.650000 80.134000 0
M  V30 10 N -1.607000 -5.093000 80.854000 0
M  V30 11 C 0.434000 -6.230000 80.158000 0
M  V30 12 C -8.267000 -2.981000 77.554000 0
M  V30 13 C -8.002000 -1.693000 79.706000 0
M  V30 14 C -4.266000 -11.325000 82.275000 0
M  V30 15 C -0.353000 -5.692000 81.323000 0
M  V30 16 C -6.100000 -11.784000 77.084000 0
M  V30 17 C -6.590000 -11.833000 78.386000 0
M  V30 18 C -4.932000 -11.082000 76.816000 0
M  V30 19 C -3.330000 -10.756000 81.211000 0
M  V30 20 C -5.913000 -11.184000 79.420000 0
M  V30 21 C -4.250000 -10.438000 77.843000 0
M  V30 22 C -5.959000 -4.506000 79.658000 0
M  V30 23 C -3.126000 -7.074000 80.948000 0
M  V30 24 C -6.907000 -3.851000 79.361000 0
M  V30 25 C -4.440000 -7.495000 80.727000 0
M  V30 26 C -1.139000 -1.369000 80.220000 0
M  V30 27 C -3.975000 -9.777000 80.225000 0 CFG=1
M  V30 28 C -1.886000 -3.832000 80.499000 0
M  V30 29 C -5.049000 -5.322000 80.056000 0
M  V30 30 C -0.882000 -2.722000 80.461000 0
M  V30 31 C -3.748000 -4.860000 80.279000 0
M  V30 32 C -2.773000 -5.748000 80.729000 0
M  V30 33 C -4.735000 -10.484000 79.154000 0
M  V30 34 C -8.118000 -3.072000 79.070000 0
M  V30 35 H -9.317100 -4.671900 79.217400 0
M  V30 36 H -6.021100 -10.723100 83.071000 0
M  V30 37 H -4.734300 -9.853300 83.575300 0
M  V30 38 H -3.188500 -1.343000 80.030800 0
M  V30 39 H -2.424500 0.205600 79.895700 0
M  V30 40 H 1.285800 -6.635400 80.489900 0
M  V30 41 H -0.104900 -6.927200 79.685200 0
M  V30 42 H 0.643900 -5.484900 79.525000 0
M  V30 43 H -7.474600 -2.507900 77.169000 0
M  V30 44 H -8.324900 -3.902000 77.168900 0
M  V30 45 H -9.099200 -2.473400 77.330700 0
M  V30 46 H -7.205200 -1.219000 79.331200 0
M  V30 47 H -8.827600 -1.164400 79.508700 0
M  V30 48 H -7.896900 -1.790100 80.695700 0
M  V30 49 H -4.810300 -12.060400 81.871300 0
M  V30 50 H -3.719600 -11.689900 83.028800 0
M  V30 51 H -0.559800 -6.438900 81.955000 0
M  V30 52 H 0.189000 -4.996600 81.794800 0
M  V30 53 H -6.586200 -12.251600 76.345800 0
M  V30 54 H -7.431800 -12.336000 78.581700 0
M  V30 55 H -4.580000 -11.039400 75.881000 0
M  V30 56 H -2.957300 -11.521500 80.686600 0
M  V30 57 H -2.585900 -10.278300 81.678100 0
M  V30 58 H -6.272400 -11.220600 80.352500 0
M  V30 59 H -3.407100 -9.938700 77.642600 0
M  V30 60 H -2.438700 -7.727900 81.264200 0
M  V30 61 H -3.232700 -9.277500 79.778300 0
M  V30 62 H -5.336600 -9.625100 82.074700 0
M  V30 END ATOM
M  V30 BEGIN BOND
M  V30 1 1 1 34
M  V30 2 1 2 6
M  V30 3 1 2 7
M  V30 4 1 3 25
M  V30 5 1 3 27
M  V30 6 1 4 14
M  V30 7 1 5 26
M  V30 8 2 6 26
M  V30 9 2 7 30
M  V30 10 2 8 25
M  V30 11 1 8 29
M  V30 12 2 9 28
M  V30 13 1 9 31
M  V30 14 1 10 15
M  V30 15 1 10 28
M  V30 16 1 10 32
M  V30 17 1 11 15
M  V30 18 1 12 34
M  V30 19 1 13 34
M  V30 20 1 14 19
M  V30 21 2 16 17
M  V30 22 1 16 18
M  V30 23 1 17 20
M  V30 24 2 18 21
M  V30 25 1 19 27
M  V30 26 2 20 33
M  V30 27 1 21 33
M  V30 28 3 22 24
M  V30 29 1 22 29
M  V30 30 1 23 25
M  V30 31 2 23 32
M  V30 32 1 34 24
M  V30 33 1 26 30
M  V30 34 1 27 33
M  V30 35 1 28 30
M  V30 36 2 29 31
M  V30 37 1 31 32
M  V30 38 1 1 35
M  V30 39 1 4 36
M  V30 40 1 4 37
M  V30 41 1 5 38
M  V30 42 1 5 39
M  V30 43 1 11 40
M  V30 44 1 11 41
M  V30 45 1 11 42
M  V30 46 1 12 43
M  V30 47 1 12 44
M  V30 48 1 12 45
M  V30 49 1 13 46
M  V30 50 1 13 47
M  V30 51 1 13 48
M  V30 52 1 14 49
M  V30 53 1 14 50
M  V30 54 1 15 51
M  V30 55 1 15 52
M  V30 56 1 16 53
M  V30 57 1 17 54
M  V30 58 1 18 55
M  V30 59 1 19 56
M  V30 60 1 19 57
M  V30 61 1 20 58
M  V30 62 1 21 59
M  V30 63 1 23 60
M  V30 64 1 27 61 CFG=3
M  V30 65 1 4 62
M  V30 END BOND
M  V30 END CTAB
M  END
>  <Ligand_Instance>  (162) 
3E8E_G98_P_351

>  <Dataset>  (162) 
PDB

>  <PDB_ID>  (162) 
3E8E

>  <Chain>  (162) 
P

>  <Resi>  (162) 
351

>  <Num_Resolved_Atoms>  (162) 
34

>  <Num_H_Atoms_ProtBoundConf>  (162) 
28

>  <Pocket>  (162) 
A, B

>  <Name>  (162) 
4-[2-(4-amino-2,5-dihydro-1,2,5-oxadiazol-3-yl)-6-{[(1S)-3-amino-1-phenylpropyl]oxy}-1-ethyl-1H-imidazo[4,5-c]pyridin-4-yl]-2-methylbut-3-yn-2-ol

>  <Num_Not_Resolved_Atoms>  (162) 
0

>  <ATP_Site>  (162) 
True

>  <Peripheral>  (162) 
False

>  <Standardized_SMILES>  (162) 
[H]OC(C#CC1=C2N=C(C3=NON=C3N([H])[H])N(C([H])([H])C([H])([H])[H])C2=C([H])C(O[C@]([H])(C2=C([H])C([H])=C([H])C([H])=C2[H])C([H])([H])C([H])([H])[N+]([H])([H])[H])=N1)(C([H])([H])[H])C([H])([H])[H]

>  <2D_Mol_H>  (162) 
<rdkit.Chem.rdchem.Mol object at 0x77059d9faf10>

>  <MW>  (162) 
462.534

>  <HBA>  (162) 
9

>  <HBD>  (162) 
3

>  <LogP>  (162) 
1.9579

>  <NRB>  (162) 
13

>  <TPSA>  (162) 
152.75

>  <Num_Heavy_Atoms>  (162) 
34

>  <Ro5>  (162) 
[True, True, True, True, False, False]

>  <Ro5_Fulfilled>  (162) 
False

>  <Ro3>  (162) 
[False, False, True, True]

>  <Ro3_Fulfilled>  (162) 
False

>  <Fsp3>  (162) 
0.333333

>  <Fsp3_0.42>  (162) 
False

>  <Fsp3_0.45>  (162) 
False

>  <Stereogenic_Carbons>  (162) 
1

>  <C_Atoms>  (162) 
24

>  <FCStereo>  (162) 
0.041667

>  <SPS>  (162) 
421

>  <nSPS>  (162) 
12.382353

>  <PBF>  (162) 
1.11519

>  <PBF_0.6>  (162) 
True

>  <nPBF>  (162) 
0.0328

>  <nPBF_0.016>  (162) 
True

>  <PMI1>  (162) 
3789.160198

>  <PMI2>  (162) 
7117.589987

>  <PMI3>  (162) 
9621.512581

>  <NPR1>  (162) 
0.393822

>  <NPR2>  (162) 
0.739758

>  <Sum_NPR>  (162) 
1.13358

>  <Sum_NPR_1.07>  (162) 
True

>  <Sum_NPR_1.2>  (162) 
False

>  <MaxAbsEStateIndex>  (162) 
10.164611

>  <MaxEStateIndex>  (162) 
10.164611

>  <MinAbsEStateIndex>  (162) 
0.137178

>  <MinEStateIndex>  (162) 
-1.206416

>  <qed>  (162) 
0.352378

>  <MolWt>  (162) 
462.534

>  <HeavyAtomMolWt>  (162) 
434.31

>  <ExactMolWt>  (162) 
462.224814

>  <NumValenceElectrons>  (162) 
176

>  <NumRadicalElectrons>  (162) 
0

>  <MaxPartialCharge>  (162) 
0.216801

>  <MinPartialCharge>  (162) 
-0.469138

>  <MaxAbsPartialCharge>  (162) 
0.469138

>  <MinAbsPartialCharge>  (162) 
0.216801

>  <FpDensityMorgan1>  (162) 
1.235294

>  <FpDensityMorgan2>  (162) 
2.0

>  <FpDensityMorgan3>  (162) 
2.617647

>  <BCUT2D_MWHI>  (162) 
16.564613

>  <BCUT2D_MWLOW>  (162) 
10.070283

>  <BCUT2D_CHGHI>  (162) 
2.22698

>  <BCUT2D_CHGLO>  (162) 
-2.178144

>  <BCUT2D_LOGPHI>  (162) 
2.313646

>  <BCUT2D_LOGPLOW>  (162) 
-2.504595

>  <BCUT2D_MRHI>  (162) 
5.857963

>  <BCUT2D_MRLOW>  (162) 
-0.370474

>  <AvgIpc>  (162) 
3.395169

>  <BalabanJ>  (162) 
1.887784

>  <BertzCT>  (162) 
1344.139623

>  <Chi0>  (162) 
24.294318

>  <Chi0n>  (162) 
19.447007

>  <Chi0v>  (162) 
19.447007

>  <Chi1>  (162) 
16.302175

>  <Chi1n>  (162) 
11.064403

>  <Chi1v>  (162) 
11.064403

>  <Chi2n>  (162) 
8.322995

>  <Chi2v>  (162) 
8.322995

>  <Chi3n>  (162) 
5.142699

>  <Chi3v>  (162) 
5.142699

>  <Chi4n>  (162) 
3.602013

>  <Chi4v>  (162) 
3.602013

>  <HallKierAlpha>  (162) 
-3.94

>  <Ipc>  (162) 
49735528.899362

>  <Kappa1>  (162) 
23.226004

>  <Kappa2>  (162) 
9.506395

>  <Kappa3>  (162) 
4.854172

>  <LabuteASA>  (162) 
196.458229

>  <PEOE_VSA1>  (162) 
25.877825

>  <PEOE_VSA10>  (162) 
22.915646

>  <PEOE_VSA11>  (162) 
17.336195

>  <PEOE_VSA12>  (162) 
5.879988

>  <PEOE_VSA13>  (162) 
0.0

>  <PEOE_VSA14>  (162) 
0.0

>  <PEOE_VSA2>  (162) 
0.0

>  <PEOE_VSA3>  (162) 
14.596996

>  <PEOE_VSA4>  (162) 
0.0

>  <PEOE_VSA5>  (162) 
0.0

>  <PEOE_VSA6>  (162) 
36.25227

>  <PEOE_VSA7>  (162) 
42.568424

>  <PEOE_VSA8>  (162) 
19.031945

>  <PEOE_VSA9>  (162) 
12.061457

>  <SMR_VSA1>  (162) 
20.206097

>  <SMR_VSA10>  (162) 
16.851264

>  <SMR_VSA2>  (162) 
0.0

>  <SMR_VSA3>  (162) 
24.848383

>  <SMR_VSA4>  (162) 
0.0

>  <SMR_VSA5>  (162) 
45.441807

>  <SMR_VSA6>  (162) 
12.278424

>  <SMR_VSA7>  (162) 
47.655582

>  <SMR_VSA8>  (162) 
0.0

>  <SMR_VSA9>  (162) 
29.239189

>  <SlogP_VSA1>  (162) 
16.204198

>  <SlogP_VSA10>  (162) 
5.817863

>  <SlogP_VSA11>  (162) 
5.879988

>  <SlogP_VSA12>  (162) 
0.0

>  <SlogP_VSA2>  (162) 
42.100718

>  <SlogP_VSA3>  (162) 
6.544756

>  <SlogP_VSA4>  (162) 
11.840869

>  <SlogP_VSA5>  (162) 
44.553379

>  <SlogP_VSA6>  (162) 
41.027241

>  <SlogP_VSA7>  (162) 
0.0

>  <SlogP_VSA8>  (162) 
22.551734

>  <SlogP_VSA9>  (162) 
0.0

>  <EState_VSA1>  (162) 
5.601051

>  <EState_VSA10>  (162) 
5.106527

>  <EState_VSA11>  (162) 
0.0

>  <EState_VSA2>  (162) 
11.921829

>  <EState_VSA3>  (162) 
48.119284

>  <EState_VSA4>  (162) 
11.080152

>  <EState_VSA5>  (162) 
0.0

>  <EState_VSA6>  (162) 
13.847474

>  <EState_VSA7>  (162) 
47.889039

>  <EState_VSA8>  (162) 
32.871841

>  <EState_VSA9>  (162) 
20.083548

>  <VSA_EState1>  (162) 
13.06

>  <VSA_EState10>  (162) 
0.0

>  <VSA_EState2>  (162) 
9.360575

>  <VSA_EState3>  (162) 
17.746839

>  <VSA_EState4>  (162) 
11.73724

>  <VSA_EState5>  (162) 
6.798422

>  <VSA_EState6>  (162) 
11.768439

>  <VSA_EState7>  (162) 
0.486112

>  <VSA_EState8>  (162) 
6.459039

>  <VSA_EState9>  (162) 
0.0

>  <FractionCSP3>  (162) 
0.333333

>  <HeavyAtomCount>  (162) 
34

>  <NHOHCount>  (162) 
6

>  <NOCount>  (162) 
10

>  <NumAliphaticCarbocycles>  (162) 
0

>  <NumAliphaticHeterocycles>  (162) 
0

>  <NumAliphaticRings>  (162) 
0

>  <NumAromaticCarbocycles>  (162) 
1

>  <NumAromaticHeterocycles>  (162) 
3

>  <NumAromaticRings>  (162) 
4

>  <NumHAcceptors>  (162) 
9

>  <NumHDonors>  (162) 
3

>  <NumHeteroatoms>  (162) 
10

>  <NumRotatableBonds>  (162) 
7

>  <NumSaturatedCarbocycles>  (162) 
0

>  <NumSaturatedHeterocycles>  (162) 
0

>  <NumSaturatedRings>  (162) 
0

>  <RingCount>  (162) 
4

>  <MolLogP>  (162) 
1.9579

>  <MolMR>  (162) 
126.2653

>  <fr_Al_COO>  (162) 
0

>  <fr_Al_OH>  (162) 
1

>  <fr_Al_OH_noTert>  (162) 
0

>  <fr_ArN>  (162) 
1

>  <fr_Ar_COO>  (162) 
0

>  <fr_Ar_N>  (162) 
5

>  <fr_Ar_NH>  (162) 
0

>  <fr_Ar_OH>  (162) 
0

>  <fr_COO>  (162) 
0

>  <fr_COO2>  (162) 
0

>  <fr_C_O>  (162) 
0

>  <fr_C_O_noCOO>  (162) 
0

>  <fr_C_S>  (162) 
0

>  <fr_HOCCN>  (162) 
0

>  <fr_Imine>  (162) 
0

>  <fr_NH0>  (162) 
5

>  <fr_NH1>  (162) 
0

>  <fr_NH2>  (162) 
1

>  <fr_N_O>  (162) 
0

>  <fr_Ndealkylation1>  (162) 
0

>  <fr_Ndealkylation2>  (162) 
0

>  <fr_Nhpyrrole>  (162) 
0

>  <fr_SH>  (162) 
0

>  <fr_aldehyde>  (162) 
0

>  <fr_alkyl_carbamate>  (162) 
0

>  <fr_alkyl_halide>  (162) 
0

>  <fr_allylic_oxid>  (162) 
0

>  <fr_amide>  (162) 
0

>  <fr_amidine>  (162) 
0

>  <fr_aniline>  (162) 
1

>  <fr_aryl_methyl>  (162) 
1

>  <fr_azide>  (162) 
0

>  <fr_azo>  (162) 
0

>  <fr_barbitur>  (162) 
0

>  <fr_benzene>  (162) 
1

>  <fr_benzodiazepine>  (162) 
0

>  <fr_bicyclic>  (162) 
1

>  <fr_diazo>  (162) 
0

>  <fr_dihydropyridine>  (162) 
0

>  <fr_epoxide>  (162) 
0

>  <fr_ester>  (162) 
0

>  <fr_ether>  (162) 
1

>  <fr_furan>  (162) 
0

>  <fr_guanido>  (162) 
0

>  <fr_halogen>  (162) 
0

>  <fr_hdrzine>  (162) 
0

>  <fr_hdrzone>  (162) 
0

>  <fr_imidazole>  (162) 
1

>  <fr_imide>  (162) 
0

>  <fr_isocyan>  (162) 
0

>  <fr_isothiocyan>  (162) 
0

>  <fr_ketone>  (162) 
0

>  <fr_ketone_Topliss>  (162) 
0

>  <fr_lactam>  (162) 
0

>  <fr_lactone>  (162) 
0

>  <fr_methoxy>  (162) 
0

>  <fr_morpholine>  (162) 
0

>  <fr_nitrile>  (162) 
0

>  <fr_nitro>  (162) 
0

>  <fr_nitro_arom>  (162) 
0

>  <fr_nitro_arom_nonortho>  (162) 
0

>  <fr_nitroso>  (162) 
0

>  <fr_oxazole>  (162) 
0

>  <fr_oxime>  (162) 
0

>  <fr_para_hydroxylation>  (162) 
0

>  <fr_phenol>  (162) 
0

>  <fr_phenol_noOrthoHbond>  (162) 
0

>  <fr_phos_acid>  (162) 
0

>  <fr_phos_ester>  (162) 
0

>  <fr_piperdine>  (162) 
0

>  <fr_piperzine>  (162) 
0

>  <fr_priamide>  (162) 
0

>  <fr_prisulfonamd>  (162) 
0

>  <fr_pyridine>  (162) 
1

>  <fr_quatN>  (162) 
1

>  <fr_sulfide>  (162) 
0

>  <fr_sulfonamd>  (162) 
0

>  <fr_sulfone>  (162) 
0

>  <fr_term_acetylene>  (162) 
0

>  <fr_tetrazole>  (162) 
0

>  <fr_thiazole>  (162) 
0

>  <fr_thiocyan>  (162) 
0

>  <fr_thiophene>  (162) 
0

>  <fr_unbrch_alkane>  (162) 
0

>  <fr_urea>  (162) 
0

>  <NP_Likeness>  (162) 
-0.661798

$$$$
GAB
     RDKit          3D

  0  0  0  0  0  0  0  0  0  0999 V3000
M  V30 BEGIN CTAB
M  V30 COUNTS 17 17 0 0 0
M  V30 BEGIN ATOM
M  V30 1 O 16.404000 4.713000 20.265000 0
M  V30 2 O 16.596000 2.509000 20.386000 0
M  V30 3 N 11.650000 5.626000 18.984000 0
M  V30 4 C 12.637000 2.073000 18.989000 0
M  V30 5 C 11.873000 3.217000 18.846000 0
M  V30 6 C 13.955000 2.164000 19.420000 0
M  V30 7 C 13.762000 4.560000 19.511000 0
M  V30 8 C 15.940000 3.510000 20.124000 0
M  V30 9 C 12.411000 4.471000 19.107000 0
M  V30 10 C 14.524000 3.409000 19.664000 0
M  V30 11 H 12.059500 6.517600 19.177400 0
M  V30 12 H 10.692400 5.566200 18.702000 0
M  V30 13 H 12.240200 1.178800 18.781900 0
M  V30 14 H 10.920600 3.140500 18.550800 0
M  V30 15 H 14.494800 1.333100 19.554800 0
M  V30 16 H 14.171100 5.455300 19.687500 0
M  V30 17 H 17.335400 4.853500 20.600800 0
M  V30 END ATOM
M  V30 BEGIN BOND
M  V30 1 1 1 8
M  V30 2 2 2 8
M  V30 3 1 3 9
M  V30 4 2 4 5
M  V30 5 1 4 6
M  V30 6 1 5 9
M  V30 7 2 6 10
M  V30 8 2 7 9
M  V30 9 1 7 10
M  V30 10 1 8 10
M  V30 11 1 7 16
M  V30 12 1 3 11
M  V30 13 1 3 12
M  V30 14 1 4 13
M  V30 15 1 5 14
M  V30 16 1 6 15
M  V30 17 1 1 17
M  V30 END BOND
M  V30 END CTAB
M  END
>  <Ligand_Instance>  (163) 
6SPU_GAB_A_405

>  <Dataset>  (163) 
PDB

>  <PDB_ID>  (163) 
6SPU

>  <Chain>  (163) 
A

>  <Resi>  (163) 
405

>  <Num_Resolved_Atoms>  (163) 
10

>  <Num_H_Atoms_ProtBoundConf>  (163) 
7

>  <Pocket>  (163) 
A

>  <Name>  (163) 
3-AMINOBENZOIC ACID

>  <Num_Not_Resolved_Atoms>  (163) 
0

>  <ATP_Site>  (163) 
True

>  <Peripheral>  (163) 
False

>  <Standardized_SMILES>  (163) 
[H]OC(=O)C1=C([H])C([H])=C([H])C(N([H])[H])=C1[H]

>  <2D_Mol_H>  (163) 
<rdkit.Chem.rdchem.Mol object at 0x77059d9faff0>

>  <MW>  (163) 
137.138

>  <HBA>  (163) 
3

>  <HBD>  (163) 
2

>  <LogP>  (163) 
0.967

>  <NRB>  (163) 
2

>  <TPSA>  (163) 
63.32

>  <Num_Heavy_Atoms>  (163) 
10

>  <Ro5>  (163) 
[True, True, True, True, True, True]

>  <Ro5_Fulfilled>  (163) 
True

>  <Ro3>  (163) 
[True, True, True, True]

>  <Ro3_Fulfilled>  (163) 
True

>  <Fsp3>  (163) 
0.0

>  <Fsp3_0.42>  (163) 
False

>  <Fsp3_0.45>  (163) 
False

>  <Stereogenic_Carbons>  (163) 
0

>  <C_Atoms>  (163) 
7

>  <FCStereo>  (163) 
0.0

>  <SPS>  (163) 
92

>  <nSPS>  (163) 
9.2

>  <PBF>  (163) 
0.030494

>  <PBF_0.6>  (163) 
False

>  <nPBF>  (163) 
0.003049

>  <nPBF_0.016>  (163) 
False

>  <PMI1>  (163) 
189.841877

>  <PMI2>  (163) 
526.629576

>  <PMI3>  (163) 
715.763941

>  <NPR1>  (163) 
0.26523

>  <NPR2>  (163) 
0.735759

>  <Sum_NPR>  (163) 
1.000988

>  <Sum_NPR_1.07>  (163) 
False

>  <Sum_NPR_1.2>  (163) 
False

>  <MaxAbsEStateIndex>  (163) 
10.297593

>  <MaxEStateIndex>  (163) 
10.297593

>  <MinAbsEStateIndex>  (163) 
0.222222

>  <MinEStateIndex>  (163) 
-0.951574

>  <qed>  (163) 
0.566589

>  <MolWt>  (163) 
137.138

>  <HeavyAtomMolWt>  (163) 
130.082

>  <ExactMolWt>  (163) 
137.047678

>  <NumValenceElectrons>  (163) 
52

>  <NumRadicalElectrons>  (163) 
0

>  <MaxPartialCharge>  (163) 
0.335256

>  <MinPartialCharge>  (163) 
-0.477638

>  <MaxAbsPartialCharge>  (163) 
0.477638

>  <MinAbsPartialCharge>  (163) 
0.335256

>  <FpDensityMorgan1>  (163) 
1.5

>  <FpDensityMorgan2>  (163) 
2.2

>  <FpDensityMorgan3>  (163) 
2.6

>  <BCUT2D_MWHI>  (163) 
16.36554

>  <BCUT2D_MWLOW>  (163) 
10.187308

>  <BCUT2D_CHGHI>  (163) 
1.991631

>  <BCUT2D_CHGLO>  (163) 
-1.932711

>  <BCUT2D_LOGPHI>  (163) 
2.047724

>  <BCUT2D_LOGPLOW>  (163) 
-1.961071

>  <BCUT2D_MRHI>  (163) 
5.88048

>  <BCUT2D_MRLOW>  (163) 
0.069671

>  <AvgIpc>  (163) 
1.875714

>  <BalabanJ>  (163) 
3.069899

>  <BertzCT>  (163) 
257.537949

>  <Chi0>  (163) 
7.560478

>  <Chi0n>  (163) 
5.242213

>  <Chi0v>  (163) 
5.242213

>  <Chi1>  (163) 
4.698377

>  <Chi1n>  (163) 
2.787773

>  <Chi1v>  (163) 
2.787773

>  <Chi2n>  (163) 
1.930615

>  <Chi2v>  (163) 
1.930615

>  <Chi3n>  (163) 
1.133578

>  <Chi3v>  (163) 
1.133578

>  <Chi4n>  (163) 
0.671701

>  <Chi4v>  (163) 
0.671701

>  <HallKierAlpha>  (163) 
-1.51

>  <Ipc>  (163) 
178.192787

>  <Kappa1>  (163) 
6.607786

>  <Kappa2>  (163) 
2.389633

>  <Kappa3>  (163) 
1.253905

>  <LabuteASA>  (163) 
58.091992

>  <PEOE_VSA1>  (163) 
10.840195

>  <PEOE_VSA10>  (163) 
0.0

>  <PEOE_VSA11>  (163) 
0.0

>  <PEOE_VSA12>  (163) 
0.0

>  <PEOE_VSA13>  (163) 
0.0

>  <PEOE_VSA14>  (163) 
5.969305

>  <PEOE_VSA2>  (163) 
0.0

>  <PEOE_VSA3>  (163) 
4.794537

>  <PEOE_VSA4>  (163) 
0.0

>  <PEOE_VSA5>  (163) 
0.0

>  <PEOE_VSA6>  (163) 
6.066367

>  <PEOE_VSA7>  (163) 
18.199101

>  <PEOE_VSA8>  (163) 
5.687386

>  <PEOE_VSA9>  (163) 
5.563451

>  <SMR_VSA1>  (163) 
9.901065

>  <SMR_VSA10>  (163) 
11.656692

>  <SMR_VSA2>  (163) 
0.0

>  <SMR_VSA3>  (163) 
0.0

>  <SMR_VSA4>  (163) 
0.0

>  <SMR_VSA5>  (163) 
0.0

>  <SMR_VSA6>  (163) 
5.733667

>  <SMR_VSA7>  (163) 
29.82892

>  <SMR_VSA8>  (163) 
0.0

>  <SMR_VSA9>  (163) 
0.0

>  <SlogP_VSA1>  (163) 
5.733667

>  <SlogP_VSA10>  (163) 
5.687386

>  <SlogP_VSA11>  (163) 
0.0

>  <SlogP_VSA12>  (163) 
0.0

>  <SlogP_VSA2>  (163) 
11.075833

>  <SlogP_VSA3>  (163) 
0.0

>  <SlogP_VSA4>  (163) 
0.0

>  <SlogP_VSA5>  (163) 
10.357989

>  <SlogP_VSA6>  (163) 
24.265468

>  <SlogP_VSA7>  (163) 
0.0

>  <SlogP_VSA8>  (163) 
0.0

>  <SlogP_VSA9>  (163) 
0.0

>  <EState_VSA1>  (163) 
5.969305

>  <EState_VSA10>  (163) 
4.794537

>  <EState_VSA11>  (163) 
0.0

>  <EState_VSA2>  (163) 
5.563451

>  <EState_VSA3>  (163) 
5.687386

>  <EState_VSA4>  (163) 
0.0

>  <EState_VSA5>  (163) 
12.132734

>  <EState_VSA6>  (163) 
12.132734

>  <EState_VSA7>  (163) 
0.0

>  <EState_VSA8>  (163) 
0.0

>  <EState_VSA9>  (163) 
10.840195

>  <VSA_EState1>  (163) 
0.0

>  <VSA_EState10>  (163) 
0.0

>  <VSA_EState2>  (163) 
10.297593

>  <VSA_EState3>  (163) 
8.453704

>  <VSA_EState4>  (163) 
6.027407

>  <VSA_EState5>  (163) 
-0.951574

>  <VSA_EState6>  (163) 
6.17287

>  <VSA_EState7>  (163) 
0.0

>  <VSA_EState8>  (163) 
0.0

>  <VSA_EState9>  (163) 
0.0

>  <FractionCSP3>  (163) 
0.0

>  <HeavyAtomCount>  (163) 
10

>  <NHOHCount>  (163) 
3

>  <NOCount>  (163) 
3

>  <NumAliphaticCarbocycles>  (163) 
0

>  <NumAliphaticHeterocycles>  (163) 
0

>  <NumAliphaticRings>  (163) 
0

>  <NumAromaticCarbocycles>  (163) 
1

>  <NumAromaticHeterocycles>  (163) 
0

>  <NumAromaticRings>  (163) 
1

>  <NumHAcceptors>  (163) 
2

>  <NumHDonors>  (163) 
2

>  <NumHeteroatoms>  (163) 
3

>  <NumRotatableBonds>  (163) 
1

>  <NumSaturatedCarbocycles>  (163) 
0

>  <NumSaturatedHeterocycles>  (163) 
0

>  <NumSaturatedRings>  (163) 
0

>  <RingCount>  (163) 
1

>  <MolLogP>  (163) 
0.967

>  <MolMR>  (163) 
37.8137

>  <fr_Al_COO>  (163) 
0

>  <fr_Al_OH>  (163) 
0

>  <fr_Al_OH_noTert>  (163) 
0

>  <fr_ArN>  (163) 
1

>  <fr_Ar_COO>  (163) 
1

>  <fr_Ar_N>  (163) 
0

>  <fr_Ar_NH>  (163) 
0

>  <fr_Ar_OH>  (163) 
0

>  <fr_COO>  (163) 
1

>  <fr_COO2>  (163) 
1

>  <fr_C_O>  (163) 
1

>  <fr_C_O_noCOO>  (163) 
0

>  <fr_C_S>  (163) 
0

>  <fr_HOCCN>  (163) 
0

>  <fr_Imine>  (163) 
0

>  <fr_NH0>  (163) 
0

>  <fr_NH1>  (163) 
0

>  <fr_NH2>  (163) 
1

>  <fr_N_O>  (163) 
0

>  <fr_Ndealkylation1>  (163) 
0

>  <fr_Ndealkylation2>  (163) 
0

>  <fr_Nhpyrrole>  (163) 
0

>  <fr_SH>  (163) 
0

>  <fr_aldehyde>  (163) 
0

>  <fr_alkyl_carbamate>  (163) 
0

>  <fr_alkyl_halide>  (163) 
0

>  <fr_allylic_oxid>  (163) 
0

>  <fr_amide>  (163) 
0

>  <fr_amidine>  (163) 
0

>  <fr_aniline>  (163) 
1

>  <fr_aryl_methyl>  (163) 
0

>  <fr_azide>  (163) 
0

>  <fr_azo>  (163) 
0

>  <fr_barbitur>  (163) 
0

>  <fr_benzene>  (163) 
1

>  <fr_benzodiazepine>  (163) 
0

>  <fr_bicyclic>  (163) 
0

>  <fr_diazo>  (163) 
0

>  <fr_dihydropyridine>  (163) 
0

>  <fr_epoxide>  (163) 
0

>  <fr_ester>  (163) 
0

>  <fr_ether>  (163) 
0

>  <fr_furan>  (163) 
0

>  <fr_guanido>  (163) 
0

>  <fr_halogen>  (163) 
0

>  <fr_hdrzine>  (163) 
0

>  <fr_hdrzone>  (163) 
0

>  <fr_imidazole>  (163) 
0

>  <fr_imide>  (163) 
0

>  <fr_isocyan>  (163) 
0

>  <fr_isothiocyan>  (163) 
0

>  <fr_ketone>  (163) 
0

>  <fr_ketone_Topliss>  (163) 
0

>  <fr_lactam>  (163) 
0

>  <fr_lactone>  (163) 
0

>  <fr_methoxy>  (163) 
0

>  <fr_morpholine>  (163) 
0

>  <fr_nitrile>  (163) 
0

>  <fr_nitro>  (163) 
0

>  <fr_nitro_arom>  (163) 
0

>  <fr_nitro_arom_nonortho>  (163) 
0

>  <fr_nitroso>  (163) 
0

>  <fr_oxazole>  (163) 
0

>  <fr_oxime>  (163) 
0

>  <fr_para_hydroxylation>  (163) 
0

>  <fr_phenol>  (163) 
0

>  <fr_phenol_noOrthoHbond>  (163) 
0

>  <fr_phos_acid>  (163) 
0

>  <fr_phos_ester>  (163) 
0

>  <fr_piperdine>  (163) 
0

>  <fr_piperzine>  (163) 
0

>  <fr_priamide>  (163) 
0

>  <fr_prisulfonamd>  (163) 
0

>  <fr_pyridine>  (163) 
0

>  <fr_quatN>  (163) 
0

>  <fr_sulfide>  (163) 
0

>  <fr_sulfonamd>  (163) 
0

>  <fr_sulfone>  (163) 
0

>  <fr_term_acetylene>  (163) 
0

>  <fr_tetrazole>  (163) 
0

>  <fr_thiazole>  (163) 
0

>  <fr_thiocyan>  (163) 
0

>  <fr_thiophene>  (163) 
0

>  <fr_unbrch_alkane>  (163) 
0

>  <fr_urea>  (163) 
0

>  <NP_Likeness>  (163) 
-0.386335

$$$$
GGB
     RDKit          3D

  0  0  0  0  0  0  0  0  0  0999 V3000
M  V30 BEGIN CTAB
M  V30 COUNTS 13 12 0 0 0
M  V30 BEGIN ATOM
M  V30 1 O -27.633000 0.623000 -23.096000 0
M  V30 2 N -25.246000 1.613000 -20.706000 0
M  V30 3 N -27.352000 0.702000 -20.507000 0
M  V30 4 N -26.576000 1.418000 -22.618000 0
M  V30 5 C -28.480000 1.415000 -23.956000 0
M  V30 6 C -26.388000 1.237000 -21.236000 0
M  V30 7 H -24.535100 2.014800 -21.283200 0
M  V30 8 H -25.087700 1.497300 -19.725400 0
M  V30 9 H -29.231600 0.849700 -24.295900 0
M  V30 10 H -28.850600 2.187000 -23.439600 0
M  V30 11 H -27.944400 1.756900 -24.728200 0
M  V30 12 H -27.222800 0.573800 -19.523700 0
M  V30 13 H -26.029100 2.032200 -23.186900 0
M  V30 END ATOM
M  V30 BEGIN BOND
M  V30 1 1 1 4
M  V30 2 1 1 5
M  V30 3 1 2 6
M  V30 4 2 3 6
M  V30 5 1 4 6
M  V30 6 1 2 7
M  V30 7 1 2 8
M  V30 8 1 4 13
M  V30 9 1 3 12
M  V30 10 1 5 9
M  V30 11 1 5 10
M  V30 12 1 5 11
M  V30 END BOND
M  V30 END CTAB
M  END
>  <Ligand_Instance>  (164) 
5N3K_GGB_A_401

>  <Dataset>  (164) 
PDB

>  <PDB_ID>  (164) 
5N3K

>  <Chain>  (164) 
A

>  <Resi>  (164) 
401

>  <Num_Resolved_Atoms>  (164) 
6

>  <Num_H_Atoms_ProtBoundConf>  (164) 
7

>  <Pocket>  (164) 
X

>  <Name>  (164) 
L-CANAVANINE

>  <Num_Not_Resolved_Atoms>  (164) 
6

>  <ATP_Site>  (164) 
False

>  <Peripheral>  (164) 
True

>  <Standardized_SMILES>  (164) 
[H]/N=C(\N([H])[H])N([H])OC([H])([H])[H]

>  <2D_Mol_H>  (164) 
<rdkit.Chem.rdchem.Mol object at 0x77059d9fb0d0>

>  <MW>  (164) 
89.098

>  <HBA>  (164) 
2

>  <HBD>  (164) 
3

>  <LogP>  (164) 
-0.96913

>  <NRB>  (164) 
2

>  <TPSA>  (164) 
71.13

>  <Num_Heavy_Atoms>  (164) 
6

>  <Ro5>  (164) 
[True, True, True, True, True, True]

>  <Ro5_Fulfilled>  (164) 
True

>  <Ro3>  (164) 
[True, True, True, True]

>  <Ro3_Fulfilled>  (164) 
True

>  <Fsp3>  (164) 
0.5

>  <Fsp3_0.42>  (164) 
True

>  <Fsp3_0.45>  (164) 
True

>  <Stereogenic_Carbons>  (164) 
0

>  <C_Atoms>  (164) 
2

>  <FCStereo>  (164) 
0.0

>  <SPS>  (164) 
81

>  <nSPS>  (164) 
13.5

>  <PBF>  (164) 
0.207101

>  <PBF_0.6>  (164) 
False

>  <nPBF>  (164) 
0.034517

>  <nPBF_0.016>  (164) 
True

>  <PMI1>  (164) 
55.986847

>  <PMI2>  (164) 
231.639862

>  <PMI3>  (164) 
273.18864

>  <NPR1>  (164) 
0.204938

>  <NPR2>  (164) 
0.847912

>  <Sum_NPR>  (164) 
1.05285

>  <Sum_NPR_1.07>  (164) 
False

>  <Sum_NPR_1.2>  (164) 
False

>  <MaxAbsEStateIndex>  (164) 
6.232454

>  <MaxEStateIndex>  (164) 
6.232454

>  <MinAbsEStateIndex>  (164) 
0.053241

>  <MinEStateIndex>  (164) 
-0.053241

>  <qed>  (164) 
0.21975

>  <MolWt>  (164) 
89.098

>  <HeavyAtomMolWt>  (164) 
82.042

>  <ExactMolWt>  (164) 
89.058912

>  <NumValenceElectrons>  (164) 
36

>  <NumRadicalElectrons>  (164) 
0

>  <MaxPartialCharge>  (164) 
0.209686

>  <MinPartialCharge>  (164) 
-0.368421

>  <MaxAbsPartialCharge>  (164) 
0.368421

>  <MinAbsPartialCharge>  (164) 
0.209686

>  <FpDensityMorgan1>  (164) 
2.333333

>  <FpDensityMorgan2>  (164) 
3.0

>  <FpDensityMorgan3>  (164) 
3.166667

>  <BCUT2D_MWHI>  (164) 
16.635748

>  <BCUT2D_MWLOW>  (164) 
0.931262

>  <BCUT2D_CHGHI>  (164) 
1.78109

>  <BCUT2D_CHGLO>  (164) 
-1.958644

>  <BCUT2D_LOGPHI>  (164) 
1.559553

>  <BCUT2D_LOGPLOW>  (164) 
-2.295984

>  <BCUT2D_MRHI>  (164) 
5.72983

>  <BCUT2D_MRLOW>  (164) 
0.128709

>  <AvgIpc>  (164) 
1.679823

>  <BalabanJ>  (164) 
3.172976

>  <BertzCT>  (164) 
73.335159

>  <Chi0>  (164) 
5.698671

>  <Chi0n>  (164) 
4.432812

>  <Chi0v>  (164) 
3.432812

>  <Chi1>  (164) 
3.30806

>  <Chi1n>  (164) 
1.821868

>  <Chi1v>  (164) 
1.374654

>  <Chi2n>  (164) 
0.691427

>  <Chi2v>  (164) 
0.691427

>  <Chi3n>  (164) 
0.206631

>  <Chi3v>  (164) 
0.206631

>  <Chi4n>  (164) 
0.104569

>  <Chi4v>  (164) 
0.104569

>  <HallKierAlpha>  (164) 
-0.77

>  <Ipc>  (164) 
31.916635

>  <Kappa1>  (164) 
3.421205

>  <Kappa2>  (164) 
2.466407

>  <Kappa3>  (164) 
3.23

>  <LabuteASA>  (164) 
37.209908

>  <PEOE_VSA1>  (164) 
5.733667

>  <PEOE_VSA10>  (164) 
0.0

>  <PEOE_VSA11>  (164) 
1.411842

>  <PEOE_VSA12>  (164) 
5.959555

>  <PEOE_VSA13>  (164) 
0.0

>  <PEOE_VSA14>  (164) 
0.0

>  <PEOE_VSA2>  (164) 
10.239897

>  <PEOE_VSA3>  (164) 
5.480097

>  <PEOE_VSA4>  (164) 
0.0

>  <PEOE_VSA5>  (164) 
0.0

>  <PEOE_VSA6>  (164) 
0.0

>  <PEOE_VSA7>  (164) 
0.0

>  <PEOE_VSA8>  (164) 
0.0

>  <PEOE_VSA9>  (164) 
7.109798

>  <SMR_VSA1>  (164) 
6.249431

>  <SMR_VSA10>  (164) 
5.959555

>  <SMR_VSA2>  (164) 
5.402308

>  <SMR_VSA3>  (164) 
5.480097

>  <SMR_VSA4>  (164) 
5.733667

>  <SMR_VSA5>  (164) 
0.0

>  <SMR_VSA6>  (164) 
7.109798

>  <SMR_VSA7>  (164) 
0.0

>  <SMR_VSA8>  (164) 
0.0

>  <SMR_VSA9>  (164) 
0.0

>  <SlogP_VSA1>  (164) 
11.213764

>  <SlogP_VSA10>  (164) 
0.0

>  <SlogP_VSA11>  (164) 
0.0

>  <SlogP_VSA12>  (164) 
0.0

>  <SlogP_VSA2>  (164) 
13.069352

>  <SlogP_VSA3>  (164) 
4.837589

>  <SlogP_VSA4>  (164) 
5.402308

>  <SlogP_VSA5>  (164) 
0.0

>  <SlogP_VSA6>  (164) 
0.0

>  <SlogP_VSA7>  (164) 
1.411842

>  <SlogP_VSA8>  (164) 
0.0

>  <SlogP_VSA9>  (164) 
0.0

>  <EState_VSA1>  (164) 
0.0

>  <EState_VSA10>  (164) 
0.0

>  <EState_VSA11>  (164) 
0.0

>  <EState_VSA2>  (164) 
5.959555

>  <EState_VSA3>  (164) 
0.0

>  <EState_VSA4>  (164) 
0.0

>  <EState_VSA5>  (164) 
7.109798

>  <EState_VSA6>  (164) 
0.0

>  <EState_VSA7>  (164) 
0.0

>  <EState_VSA8>  (164) 
15.719994

>  <EState_VSA9>  (164) 
7.14551

>  <VSA_EState1>  (164) 
6.232454

>  <VSA_EState10>  (164) 
0.0

>  <VSA_EState2>  (164) 
4.268704

>  <VSA_EState3>  (164) 
2.786528

>  <VSA_EState4>  (164) 
7.045278

>  <VSA_EState5>  (164) 
-0.053241

>  <VSA_EState6>  (164) 
0.0

>  <VSA_EState7>  (164) 
0.0

>  <VSA_EState8>  (164) 
0.0

>  <VSA_EState9>  (164) 
1.386944

>  <FractionCSP3>  (164) 
0.5

>  <HeavyAtomCount>  (164) 
6

>  <NHOHCount>  (164) 
4

>  <NOCount>  (164) 
4

>  <NumAliphaticCarbocycles>  (164) 
0

>  <NumAliphaticHeterocycles>  (164) 
0

>  <NumAliphaticRings>  (164) 
0

>  <NumAromaticCarbocycles>  (164) 
0

>  <NumAromaticHeterocycles>  (164) 
0

>  <NumAromaticRings>  (164) 
0

>  <NumHAcceptors>  (164) 
2

>  <NumHDonors>  (164) 
3

>  <NumHeteroatoms>  (164) 
4

>  <NumRotatableBonds>  (164) 
1

>  <NumSaturatedCarbocycles>  (164) 
0

>  <NumSaturatedHeterocycles>  (164) 
0

>  <NumSaturatedRings>  (164) 
0

>  <RingCount>  (164) 
0

>  <MolLogP>  (164) 
-0.96913

>  <MolMR>  (164) 
22.0588

>  <fr_Al_COO>  (164) 
0

>  <fr_Al_OH>  (164) 
0

>  <fr_Al_OH_noTert>  (164) 
0

>  <fr_ArN>  (164) 
0

>  <fr_Ar_COO>  (164) 
0

>  <fr_Ar_N>  (164) 
0

>  <fr_Ar_NH>  (164) 
0

>  <fr_Ar_OH>  (164) 
0

>  <fr_COO>  (164) 
0

>  <fr_COO2>  (164) 
0

>  <fr_C_O>  (164) 
0

>  <fr_C_O_noCOO>  (164) 
0

>  <fr_C_S>  (164) 
0

>  <fr_HOCCN>  (164) 
0

>  <fr_Imine>  (164) 
0

>  <fr_NH0>  (164) 
0

>  <fr_NH1>  (164) 
2

>  <fr_NH2>  (164) 
1

>  <fr_N_O>  (164) 
1

>  <fr_Ndealkylation1>  (164) 
0

>  <fr_Ndealkylation2>  (164) 
0

>  <fr_Nhpyrrole>  (164) 
0

>  <fr_SH>  (164) 
0

>  <fr_aldehyde>  (164) 
0

>  <fr_alkyl_carbamate>  (164) 
0

>  <fr_alkyl_halide>  (164) 
0

>  <fr_allylic_oxid>  (164) 
0

>  <fr_amide>  (164) 
0

>  <fr_amidine>  (164) 
0

>  <fr_aniline>  (164) 
0

>  <fr_aryl_methyl>  (164) 
0

>  <fr_azide>  (164) 
0

>  <fr_azo>  (164) 
0

>  <fr_barbitur>  (164) 
0

>  <fr_benzene>  (164) 
0

>  <fr_benzodiazepine>  (164) 
0

>  <fr_bicyclic>  (164) 
0

>  <fr_diazo>  (164) 
0

>  <fr_dihydropyridine>  (164) 
0

>  <fr_epoxide>  (164) 
0

>  <fr_ester>  (164) 
0

>  <fr_ether>  (164) 
0

>  <fr_furan>  (164) 
0

>  <fr_guanido>  (164) 
1

>  <fr_halogen>  (164) 
0

>  <fr_hdrzine>  (164) 
0

>  <fr_hdrzone>  (164) 
0

>  <fr_imidazole>  (164) 
0

>  <fr_imide>  (164) 
0

>  <fr_isocyan>  (164) 
0

>  <fr_isothiocyan>  (164) 
0

>  <fr_ketone>  (164) 
0

>  <fr_ketone_Topliss>  (164) 
0

>  <fr_lactam>  (164) 
0

>  <fr_lactone>  (164) 
0

>  <fr_methoxy>  (164) 
0

>  <fr_morpholine>  (164) 
0

>  <fr_nitrile>  (164) 
0

>  <fr_nitro>  (164) 
0

>  <fr_nitro_arom>  (164) 
0

>  <fr_nitro_arom_nonortho>  (164) 
0

>  <fr_nitroso>  (164) 
0

>  <fr_oxazole>  (164) 
0

>  <fr_oxime>  (164) 
0

>  <fr_para_hydroxylation>  (164) 
0

>  <fr_phenol>  (164) 
0

>  <fr_phenol_noOrthoHbond>  (164) 
0

>  <fr_phos_acid>  (164) 
0

>  <fr_phos_ester>  (164) 
0

>  <fr_piperdine>  (164) 
0

>  <fr_piperzine>  (164) 
0

>  <fr_priamide>  (164) 
0

>  <fr_prisulfonamd>  (164) 
0

>  <fr_pyridine>  (164) 
0

>  <fr_quatN>  (164) 
0

>  <fr_sulfide>  (164) 
0

>  <fr_sulfonamd>  (164) 
0

>  <fr_sulfone>  (164) 
0

>  <fr_term_acetylene>  (164) 
0

>  <fr_tetrazole>  (164) 
0

>  <fr_thiazole>  (164) 
0

>  <fr_thiocyan>  (164) 
0

>  <fr_thiophene>  (164) 
0

>  <fr_unbrch_alkane>  (164) 
0

>  <fr_urea>  (164) 
0

>  <NP_Likeness>  (164) 
-0.183118

$$$$
GVG
     RDKit          3D

  0  0  0  0  0  0  0  0  0  0999 V3000
M  V30 BEGIN CTAB
M  V30 COUNTS 22 23 0 0 0
M  V30 BEGIN ATOM
M  V30 1 N 2.911000 9.471000 4.178000 0
M  V30 2 N 3.007000 9.762000 2.859000 0
M  V30 3 C 4.625000 10.355000 1.085000 0
M  V30 4 C 4.157000 9.530000 4.650000 0
M  V30 5 C 9.268000 10.070000 4.177000 0
M  V30 6 C 8.742000 9.851000 2.924000 0
M  V30 7 C 8.430000 10.253000 5.253000 0
M  V30 8 C 7.378000 9.774000 2.750000 0
M  V30 9 C 7.064000 10.181000 5.086000 0
M  V30 10 C 4.293000 10.019000 2.495000 0
M  V30 11 C 6.519000 9.959000 3.828000 0
M  V30 12 C 5.065000 9.865000 3.653000 0
M  V30 13 H 5.609200 10.511500 1.002500 0
M  V30 14 H 4.356900 9.597500 0.489800 0
M  V30 15 H 4.132100 11.182000 0.814500 0
M  V30 16 H 4.406600 9.355000 5.602400 0
M  V30 17 H 10.259400 10.096100 4.305400 0
M  V30 18 H 9.351700 9.747600 2.138200 0
M  V30 19 H 8.813000 10.438600 6.157900 0
M  V30 20 H 7.002800 9.583900 1.842700 0
M  V30 21 H 6.460900 10.289400 5.876200 0
M  V30 22 H 2.229600 9.785200 2.230500 0
M  V30 END ATOM
M  V30 BEGIN BOND
M  V30 1 1 1 2
M  V30 2 2 1 4
M  V30 3 1 2 10
M  V30 4 1 3 10
M  V30 5 1 4 12
M  V30 6 2 5 6
M  V30 7 1 5 7
M  V30 8 1 6 8
M  V30 9 2 7 9
M  V30 10 2 8 11
M  V30 11 1 9 11
M  V30 12 2 10 12
M  V30 13 1 11 12
M  V30 14 1 9 21
M  V30 15 1 3 13
M  V30 16 1 3 14
M  V30 17 1 3 15
M  V30 18 1 4 16
M  V30 19 1 5 17
M  V30 20 1 6 18
M  V30 21 1 7 19
M  V30 22 1 8 20
M  V30 23 1 2 22
M  V30 END BOND
M  V30 END CTAB
M  END
>  <Ligand_Instance>  (165) 
2UW3_GVG_A_1351

>  <Dataset>  (165) 
PDB

>  <PDB_ID>  (165) 
2UW3

>  <Chain>  (165) 
A

>  <Resi>  (165) 
1351

>  <Num_Resolved_Atoms>  (165) 
12

>  <Num_H_Atoms_ProtBoundConf>  (165) 
10

>  <Pocket>  (165) 
A

>  <Name>  (165) 
3-METHYL-4-PHENYL-1H-PYRAZOLE

>  <Num_Not_Resolved_Atoms>  (165) 
0

>  <ATP_Site>  (165) 
True

>  <Peripheral>  (165) 
False

>  <Standardized_SMILES>  (165) 
[H]C1=NN([H])C(C([H])([H])[H])=C1C1=C([H])C([H])=C([H])C([H])=C1[H]

>  <2D_Mol_H>  (165) 
<rdkit.Chem.rdchem.Mol object at 0x77059d9fb1b0>

>  <MW>  (165) 
158.204

>  <HBA>  (165) 
1

>  <HBD>  (165) 
1

>  <LogP>  (165) 
2.38512

>  <NRB>  (165) 
2

>  <TPSA>  (165) 
28.68

>  <Num_Heavy_Atoms>  (165) 
12

>  <Ro5>  (165) 
[True, True, True, True, True, True]

>  <Ro5_Fulfilled>  (165) 
True

>  <Ro3>  (165) 
[True, True, True, True]

>  <Ro3_Fulfilled>  (165) 
True

>  <Fsp3>  (165) 
0.1

>  <Fsp3_0.42>  (165) 
False

>  <Fsp3_0.45>  (165) 
False

>  <Stereogenic_Carbons>  (165) 
0

>  <C_Atoms>  (165) 
10

>  <FCStereo>  (165) 
0.0

>  <SPS>  (165) 
121

>  <nSPS>  (165) 
10.083333

>  <PBF>  (165) 
0.30613

>  <PBF_0.6>  (165) 
False

>  <nPBF>  (165) 
0.025511

>  <nPBF_0.016>  (165) 
True

>  <PMI1>  (165) 
227.101148

>  <PMI2>  (165) 
795.364521

>  <PMI3>  (165) 
1002.950238

>  <NPR1>  (165) 
0.226433

>  <NPR2>  (165) 
0.793025

>  <Sum_NPR>  (165) 
1.019458

>  <Sum_NPR_1.07>  (165) 
False

>  <Sum_NPR_1.2>  (165) 
False

>  <MaxAbsEStateIndex>  (165) 
3.973093

>  <MaxEStateIndex>  (165) 
3.973093

>  <MinAbsEStateIndex>  (165) 
1.112222

>  <MinEStateIndex>  (165) 
1.112222

>  <qed>  (165) 
0.677799

>  <MolWt>  (165) 
158.204

>  <HeavyAtomMolWt>  (165) 
148.124

>  <ExactMolWt>  (165) 
158.084398

>  <NumValenceElectrons>  (165) 
60

>  <NumRadicalElectrons>  (165) 
0

>  <MaxPartialCharge>  (165) 
0.056812

>  <MinPartialCharge>  (165) 
-0.282219

>  <MaxAbsPartialCharge>  (165) 
0.282219

>  <MinAbsPartialCharge>  (165) 
0.056812

>  <FpDensityMorgan1>  (165) 
1.166667

>  <FpDensityMorgan2>  (165) 
1.916667

>  <FpDensityMorgan3>  (165) 
2.5

>  <BCUT2D_MWHI>  (165) 
15.100338

>  <BCUT2D_MWLOW>  (165) 
10.083004

>  <BCUT2D_CHGHI>  (165) 
2.003297

>  <BCUT2D_CHGLO>  (165) 
-1.960761

>  <BCUT2D_LOGPHI>  (165) 
2.194288

>  <BCUT2D_LOGPLOW>  (165) 
-1.763935

>  <BCUT2D_MRHI>  (165) 
5.639263

>  <BCUT2D_MRLOW>  (165) 
1.046885

>  <AvgIpc>  (165) 
2.530427

>  <BalabanJ>  (165) 
2.51483

>  <BertzCT>  (165) 
362.337422

>  <Chi0>  (165) 
8.388905

>  <Chi0n>  (165) 
6.911315

>  <Chi0v>  (165) 
6.911315

>  <Chi1>  (165) 
5.87701

>  <Chi1n>  (165) 
3.931164

>  <Chi1v>  (165) 
3.931164

>  <Chi2n>  (165) 
2.774703

>  <Chi2v>  (165) 
2.774703

>  <Chi3n>  (165) 
1.914704

>  <Chi3v>  (165) 
1.914704

>  <Chi4n>  (165) 
1.259453

>  <Chi4v>  (165) 
1.259453

>  <HallKierAlpha>  (165) 
-1.57

>  <Ipc>  (165) 
1072.900983

>  <Kappa1>  (165) 
7.099295

>  <Kappa2>  (165) 
2.814719

>  <Kappa3>  (165) 
1.114984

>  <LabuteASA>  (165) 
71.250701

>  <PEOE_VSA1>  (165) 
0.0

>  <PEOE_VSA10>  (165) 
0.0

>  <PEOE_VSA11>  (165) 
0.0

>  <PEOE_VSA12>  (165) 
0.0

>  <PEOE_VSA13>  (165) 
0.0

>  <PEOE_VSA14>  (165) 
0.0

>  <PEOE_VSA2>  (165) 
5.098682

>  <PEOE_VSA3>  (165) 
0.0

>  <PEOE_VSA4>  (165) 
5.098682

>  <PEOE_VSA5>  (165) 
0.0

>  <PEOE_VSA6>  (165) 
30.331835

>  <PEOE_VSA7>  (165) 
12.487189

>  <PEOE_VSA8>  (165) 
11.257379

>  <PEOE_VSA9>  (165) 
6.196844

>  <SMR_VSA1>  (165) 
0.0

>  <SMR_VSA10>  (165) 
0.0

>  <SMR_VSA2>  (165) 
0.0

>  <SMR_VSA3>  (165) 
10.197364

>  <SMR_VSA4>  (165) 
0.0

>  <SMR_VSA5>  (165) 
6.923737

>  <SMR_VSA6>  (165) 
0.0

>  <SMR_VSA7>  (165) 
42.222607

>  <SMR_VSA8>  (165) 
0.0

>  <SMR_VSA9>  (165) 
11.126903

>  <SlogP_VSA1>  (165) 
0.0

>  <SlogP_VSA10>  (165) 
0.0

>  <SlogP_VSA11>  (165) 
0.0

>  <SlogP_VSA12>  (165) 
0.0

>  <SlogP_VSA2>  (165) 
10.197364

>  <SlogP_VSA3>  (165) 
0.0

>  <SlogP_VSA4>  (165) 
6.923737

>  <SlogP_VSA5>  (165) 
5.693928

>  <SlogP_VSA6>  (165) 
36.528679

>  <SlogP_VSA7>  (165) 
0.0

>  <SlogP_VSA8>  (165) 
11.126903

>  <SlogP_VSA9>  (165) 
0.0

>  <EState_VSA1>  (165) 
0.0

>  <EState_VSA10>  (165) 
0.0

>  <EState_VSA11>  (165) 
0.0

>  <EState_VSA2>  (165) 
0.0

>  <EState_VSA3>  (165) 
0.0

>  <EState_VSA4>  (165) 
5.693928

>  <EState_VSA5>  (165) 
11.126903

>  <EState_VSA6>  (165) 
0.0

>  <EState_VSA7>  (165) 
31.319682

>  <EState_VSA8>  (165) 
22.330098

>  <EState_VSA9>  (165) 
0.0

>  <VSA_EState1>  (165) 
0.0

>  <VSA_EState10>  (165) 
0.0

>  <VSA_EState2>  (165) 
0.0

>  <VSA_EState3>  (165) 
6.890196

>  <VSA_EState4>  (165) 
3.500509

>  <VSA_EState5>  (165) 
0.0

>  <VSA_EState6>  (165) 
10.234295

>  <VSA_EState7>  (165) 
1.851852

>  <VSA_EState8>  (165) 
2.023148

>  <VSA_EState9>  (165) 
0.0

>  <FractionCSP3>  (165) 
0.1

>  <HeavyAtomCount>  (165) 
12

>  <NHOHCount>  (165) 
1

>  <NOCount>  (165) 
2

>  <NumAliphaticCarbocycles>  (165) 
0

>  <NumAliphaticHeterocycles>  (165) 
0

>  <NumAliphaticRings>  (165) 
0

>  <NumAromaticCarbocycles>  (165) 
1

>  <NumAromaticHeterocycles>  (165) 
1

>  <NumAromaticRings>  (165) 
2

>  <NumHAcceptors>  (165) 
1

>  <NumHDonors>  (165) 
1

>  <NumHeteroatoms>  (165) 
2

>  <NumRotatableBonds>  (165) 
1

>  <NumSaturatedCarbocycles>  (165) 
0

>  <NumSaturatedHeterocycles>  (165) 
0

>  <NumSaturatedRings>  (165) 
0

>  <RingCount>  (165) 
2

>  <MolLogP>  (165) 
2.38512

>  <MolMR>  (165) 
48.7607

>  <fr_Al_COO>  (165) 
0

>  <fr_Al_OH>  (165) 
0

>  <fr_Al_OH_noTert>  (165) 
0

>  <fr_ArN>  (165) 
0

>  <fr_Ar_COO>  (165) 
0

>  <fr_Ar_N>  (165) 
2

>  <fr_Ar_NH>  (165) 
1

>  <fr_Ar_OH>  (165) 
0

>  <fr_COO>  (165) 
0

>  <fr_COO2>  (165) 
0

>  <fr_C_O>  (165) 
0

>  <fr_C_O_noCOO>  (165) 
0

>  <fr_C_S>  (165) 
0

>  <fr_HOCCN>  (165) 
0

>  <fr_Imine>  (165) 
0

>  <fr_NH0>  (165) 
1

>  <fr_NH1>  (165) 
1

>  <fr_NH2>  (165) 
0

>  <fr_N_O>  (165) 
0

>  <fr_Ndealkylation1>  (165) 
0

>  <fr_Ndealkylation2>  (165) 
0

>  <fr_Nhpyrrole>  (165) 
1

>  <fr_SH>  (165) 
0

>  <fr_aldehyde>  (165) 
0

>  <fr_alkyl_carbamate>  (165) 
0

>  <fr_alkyl_halide>  (165) 
0

>  <fr_allylic_oxid>  (165) 
0

>  <fr_amide>  (165) 
0

>  <fr_amidine>  (165) 
0

>  <fr_aniline>  (165) 
0

>  <fr_aryl_methyl>  (165) 
1

>  <fr_azide>  (165) 
0

>  <fr_azo>  (165) 
0

>  <fr_barbitur>  (165) 
0

>  <fr_benzene>  (165) 
1

>  <fr_benzodiazepine>  (165) 
0

>  <fr_bicyclic>  (165) 
0

>  <fr_diazo>  (165) 
0

>  <fr_dihydropyridine>  (165) 
0

>  <fr_epoxide>  (165) 
0

>  <fr_ester>  (165) 
0

>  <fr_ether>  (165) 
0

>  <fr_furan>  (165) 
0

>  <fr_guanido>  (165) 
0

>  <fr_halogen>  (165) 
0

>  <fr_hdrzine>  (165) 
0

>  <fr_hdrzone>  (165) 
0

>  <fr_imidazole>  (165) 
0

>  <fr_imide>  (165) 
0

>  <fr_isocyan>  (165) 
0

>  <fr_isothiocyan>  (165) 
0

>  <fr_ketone>  (165) 
0

>  <fr_ketone_Topliss>  (165) 
0

>  <fr_lactam>  (165) 
0

>  <fr_lactone>  (165) 
0

>  <fr_methoxy>  (165) 
0

>  <fr_morpholine>  (165) 
0

>  <fr_nitrile>  (165) 
0

>  <fr_nitro>  (165) 
0

>  <fr_nitro_arom>  (165) 
0

>  <fr_nitro_arom_nonortho>  (165) 
0

>  <fr_nitroso>  (165) 
0

>  <fr_oxazole>  (165) 
0

>  <fr_oxime>  (165) 
0

>  <fr_para_hydroxylation>  (165) 
0

>  <fr_phenol>  (165) 
0

>  <fr_phenol_noOrthoHbond>  (165) 
0

>  <fr_phos_acid>  (165) 
0

>  <fr_phos_ester>  (165) 
0

>  <fr_piperdine>  (165) 
0

>  <fr_piperzine>  (165) 
0

>  <fr_priamide>  (165) 
0

>  <fr_prisulfonamd>  (165) 
0

>  <fr_pyridine>  (165) 
0

>  <fr_quatN>  (165) 
0

>  <fr_sulfide>  (165) 
0

>  <fr_sulfonamd>  (165) 
0

>  <fr_sulfone>  (165) 
0

>  <fr_term_acetylene>  (165) 
0

>  <fr_tetrazole>  (165) 
0

>  <fr_thiazole>  (165) 
0

>  <fr_thiocyan>  (165) 
0

>  <fr_thiophene>  (165) 
0

>  <fr_unbrch_alkane>  (165) 
0

>  <fr_urea>  (165) 
0

>  <NP_Likeness>  (165) 
-1.351778

$$$$
GVN
     RDKit          3D

  0  0  0  0  0  0  0  0  0  0999 V3000
M  V30 BEGIN CTAB
M  V30 COUNTS 38 40 0 0 0
M  V30 BEGIN ATOM
M  V30 1 Cl 13.424000 13.253000 -0.242000 0
M  V30 2 N 12.521000 7.491000 3.052000 0 CHG=1
M  V30 3 N 2.849000 9.896000 4.005000 0
M  V30 4 N 2.891000 9.869000 2.649000 0
M  V30 5 C 11.055000 7.740000 2.999000 0
M  V30 6 C 4.121000 9.849000 4.390000 0
M  V30 7 C 4.158000 9.808000 2.210000 0
M  V30 8 C 12.174000 10.891000 0.229000 0
M  V30 9 C 12.498000 12.319000 2.128000 0
M  V30 10 C 11.558000 9.957000 1.037000 0
M  V30 11 C 11.883000 11.387000 2.935000 0
M  V30 12 C 7.152000 9.752000 4.492000 0
M  V30 13 C 7.127000 9.466000 2.116000 0
M  V30 14 C 8.523000 9.600000 4.496000 0
M  V30 15 C 8.497000 9.315000 2.119000 0
M  V30 16 C 12.648000 12.076000 0.772000 0
M  V30 17 C 4.978000 9.813000 3.296000 0
M  V30 18 C 6.440000 9.700000 3.301000 0
M  V30 19 C 11.410000 10.195000 2.401000 0
M  V30 20 C 9.211000 9.385000 3.308000 0
M  V30 21 C 10.718000 9.197000 3.312000 0 CFG=1
M  V30 22 H 12.780200 7.222400 3.979700 0
M  V30 23 H 12.757900 6.758000 2.414400 0
M  V30 24 H 10.601800 7.151500 3.668500 0
M  V30 25 H 10.721800 7.520000 2.082200 0
M  V30 26 H 4.422200 9.840600 5.343500 0
M  V30 27 H 4.448100 9.766300 1.253900 0
M  V30 28 H 12.278800 10.713100 -0.749500 0
M  V30 29 H 12.837100 13.173300 2.521900 0
M  V30 30 H 11.216100 9.104800 0.640800 0
M  V30 31 H 11.776300 11.569900 3.912300 0
M  V30 32 H 6.667000 9.900800 5.353700 0
M  V30 33 H 6.623400 9.406700 1.254100 0
M  V30 34 H 9.025200 9.644800 5.359600 0
M  V30 35 H 8.980400 9.153800 1.258600 0
M  V30 36 H 11.034900 9.379100 4.242800 0
M  V30 37 H 13.010200 8.325200 2.797500 0
M  V30 38 H 2.086000 9.891500 2.056200 0
M  V30 END ATOM
M  V30 BEGIN BOND
M  V30 1 1 1 16
M  V30 2 1 2 5
M  V30 3 1 3 4
M  V30 4 2 3 6
M  V30 5 1 4 7
M  V30 6 1 5 21
M  V30 7 1 6 17
M  V30 8 2 7 17
M  V30 9 2 8 10
M  V30 10 1 8 16
M  V30 11 1 9 11
M  V30 12 2 9 16
M  V30 13 1 10 19
M  V30 14 2 11 19
M  V30 15 2 12 14
M  V30 16 1 12 18
M  V30 17 1 13 15
M  V30 18 2 13 18
M  V30 19 1 14 20
M  V30 20 2 15 20
M  V30 21 1 17 18
M  V30 22 1 19 21
M  V30 23 1 20 21
M  V30 24 1 2 22
M  V30 25 1 2 23
M  V30 26 1 2 37
M  V30 27 1 5 24
M  V30 28 1 5 25
M  V30 29 1 6 26
M  V30 30 1 7 27
M  V30 31 1 8 28
M  V30 32 1 9 29
M  V30 33 1 10 30
M  V30 34 1 11 31
M  V30 35 1 12 32
M  V30 36 1 13 33
M  V30 37 1 14 34
M  V30 38 1 15 35
M  V30 39 1 21 36 CFG=1
M  V30 40 1 4 38
M  V30 END BOND
M  V30 END CTAB
M  END
>  <Ligand_Instance>  (166) 
2UW5_GVN_A_1351

>  <Dataset>  (166) 
PDB

>  <PDB_ID>  (166) 
2UW5

>  <Chain>  (166) 
A

>  <Resi>  (166) 
1351

>  <Num_Resolved_Atoms>  (166) 
21

>  <Num_H_Atoms_ProtBoundConf>  (166) 
17

>  <Pocket>  (166) 
A

>  <Name>  (166) 
(2R)-2-(4-CHLOROPHENYL)-2-[4-(1H-PYRAZOL-4-YL)PHENYL]ETHANAMINE

>  <Num_Not_Resolved_Atoms>  (166) 
0

>  <ATP_Site>  (166) 
True

>  <Peripheral>  (166) 
False

>  <Standardized_SMILES>  (166) 
[H]C1=NN([H])C([H])=C1C1=C([H])C([H])=C([C@]([H])(C2=C([H])C([H])=C(Cl)C([H])=C2[H])C([H])([H])[N+]([H])([H])[H])C([H])=C1[H]

>  <2D_Mol_H>  (166) 
<rdkit.Chem.rdchem.Mol object at 0x77059d9fb290>

>  <MW>  (166) 
298.797

>  <HBA>  (166) 
1

>  <HBD>  (166) 
2

>  <LogP>  (166) 
3.1039

>  <NRB>  (166) 
5

>  <TPSA>  (166) 
56.32

>  <Num_Heavy_Atoms>  (166) 
21

>  <Ro5>  (166) 
[True, True, True, True, True, True]

>  <Ro5_Fulfilled>  (166) 
True

>  <Ro3>  (166) 
[True, True, True, False]

>  <Ro3_Fulfilled>  (166) 
True

>  <Fsp3>  (166) 
0.117647

>  <Fsp3_0.42>  (166) 
False

>  <Fsp3_0.45>  (166) 
False

>  <Stereogenic_Carbons>  (166) 
1

>  <C_Atoms>  (166) 
17

>  <FCStereo>  (166) 
0.058824

>  <SPS>  (166) 
258

>  <nSPS>  (166) 
12.285714

>  <PBF>  (166) 
1.067877

>  <PBF_0.6>  (166) 
True

>  <nPBF>  (166) 
0.050851

>  <nPBF_0.016>  (166) 
True

>  <PMI1>  (166) 
982.310688

>  <PMI2>  (166) 
4421.246214

>  <PMI3>  (166) 
4974.864563

>  <NPR1>  (166) 
0.197455

>  <NPR2>  (166) 
0.888717

>  <Sum_NPR>  (166) 
1.086172

>  <Sum_NPR_1.07>  (166) 
True

>  <Sum_NPR_1.2>  (166) 
False

>  <MaxAbsEStateIndex>  (166) 
5.958895

>  <MaxEStateIndex>  (166) 
5.958895

>  <MinAbsEStateIndex>  (166) 
0.292284

>  <MinEStateIndex>  (166) 
0.292284

>  <qed>  (166) 
0.763814

>  <MolWt>  (166) 
298.797

>  <HeavyAtomMolWt>  (166) 
281.661

>  <ExactMolWt>  (166) 
298.110552

>  <NumValenceElectrons>  (166) 
106

>  <NumRadicalElectrons>  (166) 
0

>  <MaxPartialCharge>  (166) 
0.085031

>  <MinPartialCharge>  (166) 
-0.356774

>  <MaxAbsPartialCharge>  (166) 
0.356774

>  <MinAbsPartialCharge>  (166) 
0.085031

>  <FpDensityMorgan1>  (166) 
0.952381

>  <FpDensityMorgan2>  (166) 
1.571429

>  <FpDensityMorgan3>  (166) 
2.095238

>  <BCUT2D_MWHI>  (166) 
35.495691

>  <BCUT2D_MWLOW>  (166) 
9.903229

>  <BCUT2D_CHGHI>  (166) 
2.14093

>  <BCUT2D_CHGLO>  (166) 
-2.142612

>  <BCUT2D_LOGPHI>  (166) 
2.265805

>  <BCUT2D_LOGPLOW>  (166) 
-2.5265

>  <BCUT2D_MRHI>  (166) 
6.300904

>  <BCUT2D_MRLOW>  (166) 
-0.369756

>  <AvgIpc>  (166) 
3.04896

>  <BalabanJ>  (166) 
1.889579

>  <BertzCT>  (166) 
687.91486

>  <Chi0>  (166) 
14.65649

>  <Chi0n>  (166) 
11.590245

>  <Chi0v>  (166) 
12.346174

>  <Chi1>  (166) 
10.275188

>  <Chi1n>  (166) 
6.915146

>  <Chi1v>  (166) 
7.293111

>  <Chi2n>  (166) 
5.001798

>  <Chi2v>  (166) 
5.438234

>  <Chi3n>  (166) 
3.705658

>  <Chi3v>  (166) 
3.957634

>  <Chi4n>  (166) 
2.537507

>  <Chi4v>  (166) 
2.663495

>  <HallKierAlpha>  (166) 
-2.1

>  <Ipc>  (166) 
119958.270765

>  <Kappa1>  (166) 
13.863577

>  <Kappa2>  (166) 
6.121118

>  <Kappa3>  (166) 
2.990529

>  <LabuteASA>  (166) 
128.315895

>  <PEOE_VSA1>  (166) 
5.733667

>  <PEOE_VSA10>  (166) 
0.0

>  <PEOE_VSA11>  (166) 
0.0

>  <PEOE_VSA12>  (166) 
0.0

>  <PEOE_VSA13>  (166) 
0.0

>  <PEOE_VSA14>  (166) 
0.0

>  <PEOE_VSA2>  (166) 
5.098682

>  <PEOE_VSA3>  (166) 
0.0

>  <PEOE_VSA4>  (166) 
5.098682

>  <PEOE_VSA5>  (166) 
0.0

>  <PEOE_VSA6>  (166) 
47.999142

>  <PEOE_VSA7>  (166) 
28.823089

>  <PEOE_VSA8>  (166) 
16.782928

>  <PEOE_VSA9>  (166) 
18.659506

>  <SMR_VSA1>  (166) 
5.733667

>  <SMR_VSA10>  (166) 
11.60094

>  <SMR_VSA2>  (166) 
0.0

>  <SMR_VSA3>  (166) 
10.197364

>  <SMR_VSA4>  (166) 
0.0

>  <SMR_VSA5>  (166) 
5.917906

>  <SMR_VSA6>  (166) 
6.544756

>  <SMR_VSA7>  (166) 
77.07416

>  <SMR_VSA8>  (166) 
0.0

>  <SMR_VSA9>  (166) 
11.126903

>  <SlogP_VSA1>  (166) 
5.733667

>  <SlogP_VSA10>  (166) 
0.0

>  <SlogP_VSA11>  (166) 
0.0

>  <SlogP_VSA12>  (166) 
11.60094

>  <SlogP_VSA2>  (166) 
16.74212

>  <SlogP_VSA3>  (166) 
0.0

>  <SlogP_VSA4>  (166) 
0.0

>  <SlogP_VSA5>  (166) 
17.044809

>  <SlogP_VSA6>  (166) 
60.924624

>  <SlogP_VSA7>  (166) 
5.022633

>  <SlogP_VSA8>  (166) 
11.126903

>  <SlogP_VSA9>  (166) 
0.0

>  <EState_VSA1>  (166) 
0.0

>  <EState_VSA10>  (166) 
0.0

>  <EState_VSA11>  (166) 
0.0

>  <EState_VSA2>  (166) 
0.0

>  <EState_VSA3>  (166) 
5.917906

>  <EState_VSA4>  (166) 
22.694293

>  <EState_VSA5>  (166) 
11.126903

>  <EState_VSA6>  (166) 
0.0

>  <EState_VSA7>  (166) 
24.526421

>  <EState_VSA8>  (166) 
52.329234

>  <EState_VSA9>  (166) 
11.60094

>  <VSA_EState1>  (166) 
0.0

>  <VSA_EState10>  (166) 
5.958895

>  <VSA_EState2>  (166) 
0.0

>  <VSA_EState3>  (166) 
7.57698

>  <VSA_EState4>  (166) 
8.845422

>  <VSA_EState5>  (166) 
0.292284

>  <VSA_EState6>  (166) 
16.569664

>  <VSA_EState7>  (166) 
3.722342

>  <VSA_EState8>  (166) 
0.812192

>  <VSA_EState9>  (166) 
0.0

>  <FractionCSP3>  (166) 
0.117647

>  <HeavyAtomCount>  (166) 
21

>  <NHOHCount>  (166) 
4

>  <NOCount>  (166) 
3

>  <NumAliphaticCarbocycles>  (166) 
0

>  <NumAliphaticHeterocycles>  (166) 
0

>  <NumAliphaticRings>  (166) 
0

>  <NumAromaticCarbocycles>  (166) 
2

>  <NumAromaticHeterocycles>  (166) 
1

>  <NumAromaticRings>  (166) 
3

>  <NumHAcceptors>  (166) 
1

>  <NumHDonors>  (166) 
2

>  <NumHeteroatoms>  (166) 
4

>  <NumRotatableBonds>  (166) 
4

>  <NumSaturatedCarbocycles>  (166) 
0

>  <NumSaturatedHeterocycles>  (166) 
0

>  <NumSaturatedRings>  (166) 
0

>  <RingCount>  (166) 
3

>  <MolLogP>  (166) 
3.1039

>  <MolMR>  (166) 
85.0738

>  <fr_Al_COO>  (166) 
0

>  <fr_Al_OH>  (166) 
0

>  <fr_Al_OH_noTert>  (166) 
0

>  <fr_ArN>  (166) 
0

>  <fr_Ar_COO>  (166) 
0

>  <fr_Ar_N>  (166) 
2

>  <fr_Ar_NH>  (166) 
1

>  <fr_Ar_OH>  (166) 
0

>  <fr_COO>  (166) 
0

>  <fr_COO2>  (166) 
0

>  <fr_C_O>  (166) 
0

>  <fr_C_O_noCOO>  (166) 
0

>  <fr_C_S>  (166) 
0

>  <fr_HOCCN>  (166) 
0

>  <fr_Imine>  (166) 
0

>  <fr_NH0>  (166) 
1

>  <fr_NH1>  (166) 
1

>  <fr_NH2>  (166) 
0

>  <fr_N_O>  (166) 
0

>  <fr_Ndealkylation1>  (166) 
0

>  <fr_Ndealkylation2>  (166) 
0

>  <fr_Nhpyrrole>  (166) 
1

>  <fr_SH>  (166) 
0

>  <fr_aldehyde>  (166) 
0

>  <fr_alkyl_carbamate>  (166) 
0

>  <fr_alkyl_halide>  (166) 
0

>  <fr_allylic_oxid>  (166) 
0

>  <fr_amide>  (166) 
0

>  <fr_amidine>  (166) 
0

>  <fr_aniline>  (166) 
0

>  <fr_aryl_methyl>  (166) 
0

>  <fr_azide>  (166) 
0

>  <fr_azo>  (166) 
0

>  <fr_barbitur>  (166) 
0

>  <fr_benzene>  (166) 
2

>  <fr_benzodiazepine>  (166) 
0

>  <fr_bicyclic>  (166) 
0

>  <fr_diazo>  (166) 
0

>  <fr_dihydropyridine>  (166) 
0

>  <fr_epoxide>  (166) 
0

>  <fr_ester>  (166) 
0

>  <fr_ether>  (166) 
0

>  <fr_furan>  (166) 
0

>  <fr_guanido>  (166) 
0

>  <fr_halogen>  (166) 
1

>  <fr_hdrzine>  (166) 
0

>  <fr_hdrzone>  (166) 
0

>  <fr_imidazole>  (166) 
0

>  <fr_imide>  (166) 
0

>  <fr_isocyan>  (166) 
0

>  <fr_isothiocyan>  (166) 
0

>  <fr_ketone>  (166) 
0

>  <fr_ketone_Topliss>  (166) 
0

>  <fr_lactam>  (166) 
0

>  <fr_lactone>  (166) 
0

>  <fr_methoxy>  (166) 
0

>  <fr_morpholine>  (166) 
0

>  <fr_nitrile>  (166) 
0

>  <fr_nitro>  (166) 
0

>  <fr_nitro_arom>  (166) 
0

>  <fr_nitro_arom_nonortho>  (166) 
0

>  <fr_nitroso>  (166) 
0

>  <fr_oxazole>  (166) 
0

>  <fr_oxime>  (166) 
0

>  <fr_para_hydroxylation>  (166) 
0

>  <fr_phenol>  (166) 
0

>  <fr_phenol_noOrthoHbond>  (166) 
0

>  <fr_phos_acid>  (166) 
0

>  <fr_phos_ester>  (166) 
0

>  <fr_piperdine>  (166) 
0

>  <fr_piperzine>  (166) 
0

>  <fr_priamide>  (166) 
0

>  <fr_prisulfonamd>  (166) 
0

>  <fr_pyridine>  (166) 
0

>  <fr_quatN>  (166) 
1

>  <fr_sulfide>  (166) 
0

>  <fr_sulfonamd>  (166) 
0

>  <fr_sulfone>  (166) 
0

>  <fr_term_acetylene>  (166) 
0

>  <fr_tetrazole>  (166) 
0

>  <fr_thiazole>  (166) 
0

>  <fr_thiocyan>  (166) 
0

>  <fr_thiophene>  (166) 
0

>  <fr_unbrch_alkane>  (166) 
0

>  <fr_urea>  (166) 
0

>  <NP_Likeness>  (166) 
-1.008296

$$$$
GVQ
     RDKit          3D

  0  0  0  0  0  0  0  0  0  0999 V3000
M  V30 BEGIN CTAB
M  V30 COUNTS 31 32 0 0 0
M  V30 BEGIN ATOM
M  V30 1 Cl 13.827000 13.246000 1.396000 0
M  V30 2 N 11.504000 7.298000 2.798000 0 CHG=1
M  V30 3 C 10.149000 7.848000 2.960000 0
M  V30 4 C 6.416000 10.990000 4.529000 0
M  V30 5 C 6.696000 10.447000 3.278000 0
M  V30 6 C 7.368000 10.921000 5.532000 0
M  V30 7 C 7.924000 9.839000 3.037000 0
M  V30 8 C 8.597000 10.316000 5.293000 0
M  V30 9 C 11.814000 11.451000 1.284000 0
M  V30 10 C 12.930000 11.709000 3.405000 0
M  V30 11 C 10.979000 10.496000 1.839000 0
M  V30 12 C 12.096000 10.757000 3.955000 0
M  V30 13 C 12.781000 12.051000 2.075000 0
M  V30 14 C 8.878000 9.770000 4.047000 0
M  V30 15 C 11.127000 10.149000 3.174000 0
M  V30 16 C 10.230000 9.122000 3.816000 0 CFG=2
M  V30 17 H 11.462500 6.467900 2.241900 0
M  V30 18 H 12.086100 7.973600 2.345500 0
M  V30 19 H 9.565200 7.174800 3.413800 0
M  V30 20 H 9.766900 8.069700 2.062900 0
M  V30 21 H 5.533300 11.426900 4.702000 0
M  V30 22 H 6.012000 10.494100 2.550000 0
M  V30 23 H 7.170800 11.308100 6.432700 0
M  V30 24 H 8.121000 9.451100 2.136600 0
M  V30 25 H 9.281300 10.273800 6.021000 0
M  V30 26 H 11.720200 11.705400 0.321500 0
M  V30 27 H 13.634800 12.146600 3.963400 0
M  V30 28 H 10.273600 10.059100 1.280900 0
M  V30 29 H 12.191300 10.505900 4.918200 0
M  V30 30 H 10.617500 8.878700 4.705200 0
M  V30 31 H 11.884300 7.078700 3.696500 0
M  V30 END ATOM
M  V30 BEGIN BOND
M  V30 1 1 1 13
M  V30 2 1 2 3
M  V30 3 1 3 16
M  V30 4 2 4 5
M  V30 5 1 4 6
M  V30 6 1 5 7
M  V30 7 2 6 8
M  V30 8 2 7 14
M  V30 9 1 8 14
M  V30 10 2 9 11
M  V30 11 1 9 13
M  V30 12 1 10 12
M  V30 13 2 10 13
M  V30 14 1 11 15
M  V30 15 2 12 15
M  V30 16 1 14 16
M  V30 17 1 15 16
M  V30 18 1 2 17
M  V30 19 1 2 18
M  V30 20 1 3 19
M  V30 21 1 3 20
M  V30 22 1 4 21
M  V30 23 1 5 22
M  V30 24 1 6 23
M  V30 25 1 7 24
M  V30 26 1 8 25
M  V30 27 1 9 26
M  V30 28 1 10 27
M  V30 29 1 11 28
M  V30 30 1 12 29
M  V30 31 1 16 30 CFG=1
M  V30 32 1 2 31
M  V30 END BOND
M  V30 END CTAB
M  END
>  <Ligand_Instance>  (167) 
2UW8_GVQ_A_1351

>  <Dataset>  (167) 
PDB

>  <PDB_ID>  (167) 
2UW8

>  <Chain>  (167) 
A

>  <Resi>  (167) 
1351

>  <Num_Resolved_Atoms>  (167) 
16

>  <Num_H_Atoms_ProtBoundConf>  (167) 
15

>  <Pocket>  (167) 
A

>  <Name>  (167) 
(2R)-2-(4-CHLOROPHENYL)-2-PHENYLETHANAMINE

>  <Num_Not_Resolved_Atoms>  (167) 
0

>  <ATP_Site>  (167) 
True

>  <Peripheral>  (167) 
False

>  <Standardized_SMILES>  (167) 
[H]C1=C([H])C([H])=C([C@]([H])(C2=C([H])C([H])=C(Cl)C([H])=C2[H])C([H])([H])[N+]([H])([H])[H])C([H])=C1[H]

>  <2D_Mol_H>  (167) 
<rdkit.Chem.rdchem.Mol object at 0x77059d9fb370>

>  <MW>  (167) 
232.734

>  <HBA>  (167) 
0

>  <HBD>  (167) 
1

>  <LogP>  (167) 
2.7138

>  <NRB>  (167) 
4

>  <TPSA>  (167) 
27.64

>  <Num_Heavy_Atoms>  (167) 
16

>  <Ro5>  (167) 
[True, True, True, True, True, True]

>  <Ro5_Fulfilled>  (167) 
True

>  <Ro3>  (167) 
[True, True, True, True]

>  <Ro3_Fulfilled>  (167) 
True

>  <Fsp3>  (167) 
0.142857

>  <Fsp3_0.42>  (167) 
False

>  <Fsp3_0.45>  (167) 
False

>  <Stereogenic_Carbons>  (167) 
1

>  <C_Atoms>  (167) 
14

>  <FCStereo>  (167) 
0.071429

>  <SPS>  (167) 
198

>  <nSPS>  (167) 
12.375

>  <PBF>  (167) 
1.061264

>  <PBF_0.6>  (167) 
True

>  <nPBF>  (167) 
0.066329

>  <nPBF_0.016>  (167) 
True

>  <PMI1>  (167) 
670.392433

>  <PMI2>  (167) 
1900.515556

>  <PMI3>  (167) 
2201.283542

>  <NPR1>  (167) 
0.304546

>  <NPR2>  (167) 
0.863367

>  <Sum_NPR>  (167) 
1.167913

>  <Sum_NPR_1.07>  (167) 
True

>  <Sum_NPR_1.2>  (167) 
False

>  <MaxAbsEStateIndex>  (167) 
5.88993

>  <MaxEStateIndex>  (167) 
5.88993

>  <MinAbsEStateIndex>  (167) 
0.359691

>  <MinEStateIndex>  (167) 
0.359691

>  <qed>  (167) 
0.843054

>  <MolWt>  (167) 
232.734

>  <HeavyAtomMolWt>  (167) 
217.614

>  <ExactMolWt>  (167) 
232.088754

>  <NumValenceElectrons>  (167) 
82

>  <NumRadicalElectrons>  (167) 
0

>  <MaxPartialCharge>  (167) 
0.085031

>  <MinPartialCharge>  (167) 
-0.356774

>  <MaxAbsPartialCharge>  (167) 
0.356774

>  <MinAbsPartialCharge>  (167) 
0.085031

>  <FpDensityMorgan1>  (167) 
0.875

>  <FpDensityMorgan2>  (167) 
1.4375

>  <FpDensityMorgan3>  (167) 
2.0

>  <BCUT2D_MWHI>  (167) 
35.495691

>  <BCUT2D_MWLOW>  (167) 
9.914967

>  <BCUT2D_CHGHI>  (167) 
2.128573

>  <BCUT2D_CHGLO>  (167) 
-2.132889

>  <BCUT2D_LOGPHI>  (167) 
2.236115

>  <BCUT2D_LOGPLOW>  (167) 
-2.526457

>  <BCUT2D_MRHI>  (167) 
6.30088

>  <BCUT2D_MRLOW>  (167) 
-0.369755

>  <AvgIpc>  (167) 
2.338832

>  <BalabanJ>  (167) 
2.330665

>  <BertzCT>  (167) 
436.052338

>  <Chi0>  (167) 
11.380469

>  <Chi0n>  (167) 
9.065681

>  <Chi0v>  (167) 
9.82161

>  <Chi1>  (167) 
7.808862

>  <Chi1n>  (167) 
5.406632

>  <Chi1v>  (167) 
5.784596

>  <Chi2n>  (167) 
3.803496

>  <Chi2v>  (167) 
4.239932

>  <Chi3n>  (167) 
2.762991

>  <Chi3v>  (167) 
3.014967

>  <Chi4n>  (167) 
1.906218

>  <Chi4v>  (167) 
2.032206

>  <HallKierAlpha>  (167) 
-1.31

>  <Ipc>  (167) 
6099.674768

>  <Kappa1>  (167) 
11.18363

>  <Kappa2>  (167) 
5.149982

>  <Kappa3>  (167) 
2.434409

>  <LabuteASA>  (167) 
100.861538

>  <PEOE_VSA1>  (167) 
5.733667

>  <PEOE_VSA10>  (167) 
0.0

>  <PEOE_VSA11>  (167) 
0.0

>  <PEOE_VSA12>  (167) 
0.0

>  <PEOE_VSA13>  (167) 
0.0

>  <PEOE_VSA14>  (167) 
0.0

>  <PEOE_VSA2>  (167) 
0.0

>  <PEOE_VSA3>  (167) 
0.0

>  <PEOE_VSA4>  (167) 
0.0

>  <PEOE_VSA5>  (167) 
0.0

>  <PEOE_VSA6>  (167) 
54.065509

>  <PEOE_VSA7>  (167) 
23.259637

>  <PEOE_VSA8>  (167) 
5.022633

>  <PEOE_VSA9>  (167) 
12.462662

>  <SMR_VSA1>  (167) 
5.733667

>  <SMR_VSA10>  (167) 
11.60094

>  <SMR_VSA2>  (167) 
0.0

>  <SMR_VSA3>  (167) 
0.0

>  <SMR_VSA4>  (167) 
0.0

>  <SMR_VSA5>  (167) 
5.917906

>  <SMR_VSA6>  (167) 
6.544756

>  <SMR_VSA7>  (167) 
70.74684

>  <SMR_VSA8>  (167) 
0.0

>  <SMR_VSA9>  (167) 
0.0

>  <SlogP_VSA1>  (167) 
5.733667

>  <SlogP_VSA10>  (167) 
0.0

>  <SlogP_VSA11>  (167) 
0.0

>  <SlogP_VSA12>  (167) 
11.60094

>  <SlogP_VSA2>  (167) 
6.544756

>  <SlogP_VSA3>  (167) 
0.0

>  <SlogP_VSA4>  (167) 
0.0

>  <SlogP_VSA5>  (167) 
17.044809

>  <SlogP_VSA6>  (167) 
54.597304

>  <SlogP_VSA7>  (167) 
5.022633

>  <SlogP_VSA8>  (167) 
0.0

>  <SlogP_VSA9>  (167) 
0.0

>  <EState_VSA1>  (167) 
0.0

>  <EState_VSA10>  (167) 
0.0

>  <EState_VSA11>  (167) 
0.0

>  <EState_VSA2>  (167) 
0.0

>  <EState_VSA3>  (167) 
5.917906

>  <EState_VSA4>  (167) 
11.56739

>  <EState_VSA5>  (167) 
11.126903

>  <EState_VSA6>  (167) 
0.0

>  <EState_VSA7>  (167) 
18.199101

>  <EState_VSA8>  (167) 
42.13187

>  <EState_VSA9>  (167) 
11.60094

>  <VSA_EState1>  (167) 
0.0

>  <VSA_EState10>  (167) 
5.88993

>  <VSA_EState2>  (167) 
0.0

>  <VSA_EState3>  (167) 
0.77743

>  <VSA_EState4>  (167) 
6.602686

>  <VSA_EState5>  (167) 
0.359691

>  <VSA_EState6>  (167) 
18.461884

>  <VSA_EState7>  (167) 
0.0

>  <VSA_EState8>  (167) 
0.852823

>  <VSA_EState9>  (167) 
0.0

>  <FractionCSP3>  (167) 
0.142857

>  <HeavyAtomCount>  (167) 
16

>  <NHOHCount>  (167) 
3

>  <NOCount>  (167) 
1

>  <NumAliphaticCarbocycles>  (167) 
0

>  <NumAliphaticHeterocycles>  (167) 
0

>  <NumAliphaticRings>  (167) 
0

>  <NumAromaticCarbocycles>  (167) 
2

>  <NumAromaticHeterocycles>  (167) 
0

>  <NumAromaticRings>  (167) 
2

>  <NumHAcceptors>  (167) 
0

>  <NumHDonors>  (167) 
1

>  <NumHeteroatoms>  (167) 
2

>  <NumRotatableBonds>  (167) 
3

>  <NumSaturatedCarbocycles>  (167) 
0

>  <NumSaturatedHeterocycles>  (167) 
0

>  <NumSaturatedRings>  (167) 
0

>  <RingCount>  (167) 
2

>  <MolLogP>  (167) 
2.7138

>  <MolMR>  (167) 
67.4921

>  <fr_Al_COO>  (167) 
0

>  <fr_Al_OH>  (167) 
0

>  <fr_Al_OH_noTert>  (167) 
0

>  <fr_ArN>  (167) 
0

>  <fr_Ar_COO>  (167) 
0

>  <fr_Ar_N>  (167) 
0

>  <fr_Ar_NH>  (167) 
0

>  <fr_Ar_OH>  (167) 
0

>  <fr_COO>  (167) 
0

>  <fr_COO2>  (167) 
0

>  <fr_C_O>  (167) 
0

>  <fr_C_O_noCOO>  (167) 
0

>  <fr_C_S>  (167) 
0

>  <fr_HOCCN>  (167) 
0

>  <fr_Imine>  (167) 
0

>  <fr_NH0>  (167) 
0

>  <fr_NH1>  (167) 
0

>  <fr_NH2>  (167) 
0

>  <fr_N_O>  (167) 
0

>  <fr_Ndealkylation1>  (167) 
0

>  <fr_Ndealkylation2>  (167) 
0

>  <fr_Nhpyrrole>  (167) 
0

>  <fr_SH>  (167) 
0

>  <fr_aldehyde>  (167) 
0

>  <fr_alkyl_carbamate>  (167) 
0

>  <fr_alkyl_halide>  (167) 
0

>  <fr_allylic_oxid>  (167) 
0

>  <fr_amide>  (167) 
0

>  <fr_amidine>  (167) 
0

>  <fr_aniline>  (167) 
0

>  <fr_aryl_methyl>  (167) 
0

>  <fr_azide>  (167) 
0

>  <fr_azo>  (167) 
0

>  <fr_barbitur>  (167) 
0

>  <fr_benzene>  (167) 
2

>  <fr_benzodiazepine>  (167) 
0

>  <fr_bicyclic>  (167) 
0

>  <fr_diazo>  (167) 
0

>  <fr_dihydropyridine>  (167) 
0

>  <fr_epoxide>  (167) 
0

>  <fr_ester>  (167) 
0

>  <fr_ether>  (167) 
0

>  <fr_furan>  (167) 
0

>  <fr_guanido>  (167) 
0

>  <fr_halogen>  (167) 
1

>  <fr_hdrzine>  (167) 
0

>  <fr_hdrzone>  (167) 
0

>  <fr_imidazole>  (167) 
0

>  <fr_imide>  (167) 
0

>  <fr_isocyan>  (167) 
0

>  <fr_isothiocyan>  (167) 
0

>  <fr_ketone>  (167) 
0

>  <fr_ketone_Topliss>  (167) 
0

>  <fr_lactam>  (167) 
0

>  <fr_lactone>  (167) 
0

>  <fr_methoxy>  (167) 
0

>  <fr_morpholine>  (167) 
0

>  <fr_nitrile>  (167) 
0

>  <fr_nitro>  (167) 
0

>  <fr_nitro_arom>  (167) 
0

>  <fr_nitro_arom_nonortho>  (167) 
0

>  <fr_nitroso>  (167) 
0

>  <fr_oxazole>  (167) 
0

>  <fr_oxime>  (167) 
0

>  <fr_para_hydroxylation>  (167) 
0

>  <fr_phenol>  (167) 
0

>  <fr_phenol_noOrthoHbond>  (167) 
0

>  <fr_phos_acid>  (167) 
0

>  <fr_phos_ester>  (167) 
0

>  <fr_piperdine>  (167) 
0

>  <fr_piperzine>  (167) 
0

>  <fr_priamide>  (167) 
0

>  <fr_prisulfonamd>  (167) 
0

>  <fr_pyridine>  (167) 
0

>  <fr_quatN>  (167) 
1

>  <fr_sulfide>  (167) 
0

>  <fr_sulfonamd>  (167) 
0

>  <fr_sulfone>  (167) 
0

>  <fr_term_acetylene>  (167) 
0

>  <fr_tetrazole>  (167) 
0

>  <fr_thiazole>  (167) 
0

>  <fr_thiocyan>  (167) 
0

>  <fr_thiophene>  (167) 
0

>  <fr_unbrch_alkane>  (167) 
0

>  <fr_urea>  (167) 
0

>  <NP_Likeness>  (167) 
-0.600861

$$$$
H52
     RDKit          3D

  0  0  0  0  0  0  0  0  0  0999 V3000
M  V30 BEGIN CTAB
M  V30 COUNTS 44 46 0 0 0
M  V30 BEGIN ATOM
M  V30 1 S 8.986000 9.726000 4.060000 0
M  V30 2 O 9.341000 11.010000 4.549000 0
M  V30 3 O 8.811000 8.712000 5.026000 0
M  V30 4 N 12.843000 8.361000 3.314000 0 CHG=1
M  V30 5 N 3.513000 9.972000 4.806000 0
M  V30 6 N 10.123000 9.201000 3.098000 0
M  V30 7 C 9.558000 6.998000 2.090000 0
M  V30 8 C 6.808000 10.019000 6.441000 0
M  V30 9 C 13.240000 9.645000 2.760000 0
M  V30 10 C 11.937000 7.523000 2.564000 0
M  V30 11 C 4.504000 9.994000 5.707000 0
M  V30 12 C 3.772000 9.898000 3.502000 0
M  V30 13 C 10.837000 10.094000 2.176000 0
M  V30 14 C 12.087000 10.639000 2.872000 0
M  V30 15 C 6.443000 9.724000 1.057000 0
M  V30 16 C 7.575000 9.725000 1.883000 0
M  V30 17 C 5.198000 9.768000 1.629000 0
M  V30 18 C 7.513000 9.783000 3.295000 0
M  V30 19 C 10.491000 7.753000 3.020000 0 CFG=1
M  V30 20 C 5.842000 9.982000 5.266000 0
M  V30 21 C 5.085000 9.867000 3.018000 0
M  V30 22 C 6.192000 9.892000 3.884000 0
M  V30 23 H 12.409600 8.544300 4.196300 0
M  V30 24 H 9.827000 6.035400 2.057400 0
M  V30 25 H 8.619700 7.070600 2.428100 0
M  V30 26 H 9.612800 7.390700 1.172000 0
M  V30 27 H 7.748100 10.009600 6.100100 0
M  V30 28 H 6.654500 10.852000 6.972600 0
M  V30 29 H 6.656300 9.219700 7.022500 0
M  V30 30 H 13.485400 9.529100 1.797500 0
M  V30 31 H 14.029000 9.994300 3.265400 0
M  V30 32 H 12.179300 6.563800 2.709400 0
M  V30 33 H 12.014300 7.742600 1.591500 0
M  V30 34 H 4.295800 10.018700 6.684800 0
M  V30 35 H 3.011300 9.863800 2.853800 0
M  V30 36 H 10.240500 10.853500 1.916500 0
M  V30 37 H 11.104500 9.585500 1.357500 0
M  V30 38 H 12.353400 11.501400 2.441400 0
M  V30 39 H 11.882600 10.797900 3.837900 0
M  V30 40 H 6.542200 9.691600 0.062500 0
M  V30 41 H 8.475700 9.682400 1.450700 0
M  V30 42 H 4.378300 9.729600 1.057400 0
M  V30 43 H 10.392900 7.362400 3.935300 0
M  V30 44 H 13.679900 7.832600 3.457100 0
M  V30 END ATOM
M  V30 BEGIN BOND
M  V30 1 2 1 2
M  V30 2 2 1 3
M  V30 3 1 1 6
M  V30 4 1 1 18
M  V30 5 1 4 9
M  V30 6 1 4 10
M  V30 7 2 5 11
M  V30 8 1 5 12
M  V30 9 1 6 13
M  V30 10 1 6 19
M  V30 11 1 7 19
M  V30 12 1 8 20
M  V30 13 1 9 14
M  V30 14 1 10 19
M  V30 15 1 11 20
M  V30 16 2 12 21
M  V30 17 1 13 14
M  V30 18 1 15 16
M  V30 19 2 15 17
M  V30 20 2 16 18
M  V30 21 1 17 21
M  V30 22 1 18 22
M  V30 23 2 20 22
M  V30 24 1 21 22
M  V30 25 1 4 23
M  V30 26 1 7 24
M  V30 27 1 7 25
M  V30 28 1 7 26
M  V30 29 1 8 27
M  V30 30 1 8 28
M  V30 31 1 8 29
M  V30 32 1 9 30
M  V30 33 1 9 31
M  V30 34 1 10 32
M  V30 35 1 10 33
M  V30 36 1 11 34
M  V30 37 1 12 35
M  V30 38 1 13 36
M  V30 39 1 13 37
M  V30 40 1 14 38
M  V30 41 1 14 39
M  V30 42 1 15 40
M  V30 43 1 16 41
M  V30 44 1 17 42
M  V30 45 1 19 43 CFG=1
M  V30 46 1 4 44
M  V30 END BOND
M  V30 END CTAB
M  END
>  <Ligand_Instance>  (168) 
2GNH_H52_A_501

>  <Dataset>  (168) 
PDB

>  <PDB_ID>  (168) 
2GNH

>  <Chain>  (168) 
A

>  <Resi>  (168) 
501

>  <Num_Resolved_Atoms>  (168) 
22

>  <Num_H_Atoms_ProtBoundConf>  (168) 
22

>  <Pocket>  (168) 
A

>  <Name>  (168) 
(S)-2-METHYL-1-[(4-METHYL-5-ISOQUINOLINE)SULFONYL]-HOMOPIPERAZINE

>  <Num_Not_Resolved_Atoms>  (168) 
0

>  <ATP_Site>  (168) 
True

>  <Peripheral>  (168) 
True

>  <Standardized_SMILES>  (168) 
[H]C1=NC([H])=C2C([H])=C([H])C([H])=C(S(=O)(=O)N3C([H])([H])C([H])([H])C([H])([H])[N+]([H])([H])C([H])([H])[C@]3([H])C([H])([H])[H])C2=C1C([H])([H])[H]

>  <2D_Mol_H>  (168) 
<rdkit.Chem.rdchem.Mol object at 0x77059d9fb450>

>  <MW>  (168) 
320.438

>  <HBA>  (168) 
3

>  <HBD>  (168) 
1

>  <LogP>  (168) 
0.88952

>  <NRB>  (168) 
4

>  <TPSA>  (168) 
66.88

>  <Num_Heavy_Atoms>  (168) 
22

>  <Ro5>  (168) 
[True, True, True, True, True, True]

>  <Ro5_Fulfilled>  (168) 
True

>  <Ro3>  (168) 
[False, True, True, True]

>  <Ro3_Fulfilled>  (168) 
True

>  <Fsp3>  (168) 
0.4375

>  <Fsp3_0.42>  (168) 
True

>  <Fsp3_0.45>  (168) 
False

>  <Stereogenic_Carbons>  (168) 
1

>  <C_Atoms>  (168) 
16

>  <FCStereo>  (168) 
0.0625

>  <SPS>  (168) 
460

>  <nSPS>  (168) 
20.909091

>  <PBF>  (168) 
0.948048

>  <PBF_0.6>  (168) 
True

>  <nPBF>  (168) 
0.043093

>  <nPBF_0.016>  (168) 
True

>  <PMI1>  (168) 
810.796982

>  <PMI2>  (168) 
2956.658603

>  <PMI3>  (168) 
3252.73421

>  <NPR1>  (168) 
0.249266

>  <NPR2>  (168) 
0.908976

>  <Sum_NPR>  (168) 
1.158243

>  <Sum_NPR_1.07>  (168) 
True

>  <Sum_NPR_1.2>  (168) 
False

>  <MaxAbsEStateIndex>  (168) 
13.208253

>  <MaxEStateIndex>  (168) 
13.208253

>  <MinAbsEStateIndex>  (168) 
0.004537

>  <MinEStateIndex>  (168) 
-3.498102

>  <qed>  (168) 
0.893472

>  <MolWt>  (168) 
320.438

>  <HeavyAtomMolWt>  (168) 
298.262

>  <ExactMolWt>  (168) 
320.142724

>  <NumValenceElectrons>  (168) 
118

>  <NumRadicalElectrons>  (168) 
0

>  <MaxPartialCharge>  (168) 
0.243653

>  <MinPartialCharge>  (168) 
-0.344891

>  <MaxAbsPartialCharge>  (168) 
0.344891

>  <MinAbsPartialCharge>  (168) 
0.243653

>  <FpDensityMorgan1>  (168) 
1.318182

>  <FpDensityMorgan2>  (168) 
2.136364

>  <FpDensityMorgan3>  (168) 
2.954545

>  <BCUT2D_MWHI>  (168) 
32.233428

>  <BCUT2D_MWLOW>  (168) 
10.102621

>  <BCUT2D_CHGHI>  (168) 
2.3214

>  <BCUT2D_CHGLO>  (168) 
-2.251786

>  <BCUT2D_LOGPHI>  (168) 
2.28428

>  <BCUT2D_LOGPLOW>  (168) 
-2.855537

>  <BCUT2D_MRHI>  (168) 
7.889912

>  <BCUT2D_MRLOW>  (168) 
-0.654222

>  <AvgIpc>  (168) 
2.717475

>  <BalabanJ>  (168) 
2.168145

>  <BertzCT>  (168) 
783.827542

>  <Chi0>  (168) 
15.742276

>  <Chi0n>  (168) 
12.989051

>  <Chi0v>  (168) 
13.805548

>  <Chi1>  (168) 
10.514874

>  <Chi1n>  (168) 
7.684318

>  <Chi1v>  (168) 
9.124382

>  <Chi2n>  (168) 
5.942042

>  <Chi2v>  (168) 
7.801019

>  <Chi3n>  (168) 
4.307383

>  <Chi3v>  (168) 
6.363327

>  <Chi4n>  (168) 
3.158439

>  <Chi4v>  (168) 
5.127734

>  <HallKierAlpha>  (168) 
-1.5

>  <Ipc>  (168) 
114954.624477

>  <Kappa1>  (168) 
15.397778

>  <Kappa2>  (168) 
5.94687

>  <Kappa3>  (168) 
2.620245

>  <LabuteASA>  (168) 
130.951951

>  <PEOE_VSA1>  (168) 
5.316789

>  <PEOE_VSA10>  (168) 
0.0

>  <PEOE_VSA11>  (168) 
0.0

>  <PEOE_VSA12>  (168) 
10.023291

>  <PEOE_VSA13>  (168) 
0.0

>  <PEOE_VSA14>  (168) 
0.0

>  <PEOE_VSA2>  (168) 
4.983979

>  <PEOE_VSA3>  (168) 
8.417797

>  <PEOE_VSA4>  (168) 
4.305216

>  <PEOE_VSA5>  (168) 
0.0

>  <PEOE_VSA6>  (168) 
12.132734

>  <PEOE_VSA7>  (168) 
25.477293

>  <PEOE_VSA8>  (168) 
36.131714

>  <PEOE_VSA9>  (168) 
24.026837

>  <SMR_VSA1>  (168) 
13.734586

>  <SMR_VSA10>  (168) 
20.79574

>  <SMR_VSA2>  (168) 
0.0

>  <SMR_VSA3>  (168) 
9.289195

>  <SMR_VSA4>  (168) 
0.0

>  <SMR_VSA5>  (168) 
31.20562

>  <SMR_VSA6>  (168) 
19.634269

>  <SMR_VSA7>  (168) 
36.15624

>  <SMR_VSA8>  (168) 
0.0

>  <SMR_VSA9>  (168) 
0.0

>  <SlogP_VSA1>  (168) 
5.316789

>  <SlogP_VSA10>  (168) 
0.0

>  <SlogP_VSA11>  (168) 
0.0

>  <SlogP_VSA12>  (168) 
0.0

>  <SlogP_VSA2>  (168) 
43.383102

>  <SlogP_VSA3>  (168) 
10.023291

>  <SlogP_VSA4>  (168) 
6.923737

>  <SlogP_VSA5>  (168) 
18.90801

>  <SlogP_VSA6>  (168) 
35.488272

>  <SlogP_VSA7>  (168) 
0.0

>  <SlogP_VSA8>  (168) 
10.772448

>  <SlogP_VSA9>  (168) 
0.0

>  <EState_VSA1>  (168) 
10.023291

>  <EState_VSA10>  (168) 
8.417797

>  <EState_VSA11>  (168) 
0.0

>  <EState_VSA2>  (168) 
6.041841

>  <EState_VSA3>  (168) 
11.44024

>  <EState_VSA4>  (168) 
35.846234

>  <EState_VSA5>  (168) 
0.0

>  <EState_VSA6>  (168) 
28.831637

>  <EState_VSA7>  (168) 
19.913841

>  <EState_VSA8>  (168) 
10.300767

>  <EState_VSA9>  (168) 
0.0

>  <VSA_EState1>  (168) 
28.074385

>  <VSA_EState10>  (168) 
0.0

>  <VSA_EState2>  (168) 
4.566144

>  <VSA_EState3>  (168) 
3.853135

>  <VSA_EState4>  (168) 
0.894178

>  <VSA_EState5>  (168) 
0.0

>  <VSA_EState6>  (168) 
5.426092

>  <VSA_EState7>  (168) 
4.330203

>  <VSA_EState8>  (168) 
6.270631

>  <VSA_EState9>  (168) 
-3.498102

>  <FractionCSP3>  (168) 
0.4375

>  <HeavyAtomCount>  (168) 
22

>  <NHOHCount>  (168) 
2

>  <NOCount>  (168) 
5

>  <NumAliphaticCarbocycles>  (168) 
0

>  <NumAliphaticHeterocycles>  (168) 
1

>  <NumAliphaticRings>  (168) 
1

>  <NumAromaticCarbocycles>  (168) 
1

>  <NumAromaticHeterocycles>  (168) 
1

>  <NumAromaticRings>  (168) 
2

>  <NumHAcceptors>  (168) 
3

>  <NumHDonors>  (168) 
1

>  <NumHeteroatoms>  (168) 
6

>  <NumRotatableBonds>  (168) 
2

>  <NumSaturatedCarbocycles>  (168) 
0

>  <NumSaturatedHeterocycles>  (168) 
1

>  <NumSaturatedRings>  (168) 
1

>  <RingCount>  (168) 
3

>  <MolLogP>  (168) 
0.88952

>  <MolMR>  (168) 
86.1102

>  <fr_Al_COO>  (168) 
0

>  <fr_Al_OH>  (168) 
0

>  <fr_Al_OH_noTert>  (168) 
0

>  <fr_ArN>  (168) 
0

>  <fr_Ar_COO>  (168) 
0

>  <fr_Ar_N>  (168) 
1

>  <fr_Ar_NH>  (168) 
0

>  <fr_Ar_OH>  (168) 
0

>  <fr_COO>  (168) 
0

>  <fr_COO2>  (168) 
0

>  <fr_C_O>  (168) 
0

>  <fr_C_O_noCOO>  (168) 
0

>  <fr_C_S>  (168) 
0

>  <fr_HOCCN>  (168) 
0

>  <fr_Imine>  (168) 
0

>  <fr_NH0>  (168) 
2

>  <fr_NH1>  (168) 
0

>  <fr_NH2>  (168) 
1

>  <fr_N_O>  (168) 
0

>  <fr_Ndealkylation1>  (168) 
0

>  <fr_Ndealkylation2>  (168) 
0

>  <fr_Nhpyrrole>  (168) 
0

>  <fr_SH>  (168) 
0

>  <fr_aldehyde>  (168) 
0

>  <fr_alkyl_carbamate>  (168) 
0

>  <fr_alkyl_halide>  (168) 
0

>  <fr_allylic_oxid>  (168) 
0

>  <fr_amide>  (168) 
0

>  <fr_amidine>  (168) 
0

>  <fr_aniline>  (168) 
0

>  <fr_aryl_methyl>  (168) 
1

>  <fr_azide>  (168) 
0

>  <fr_azo>  (168) 
0

>  <fr_barbitur>  (168) 
0

>  <fr_benzene>  (168) 
1

>  <fr_benzodiazepine>  (168) 
0

>  <fr_bicyclic>  (168) 
1

>  <fr_diazo>  (168) 
0

>  <fr_dihydropyridine>  (168) 
0

>  <fr_epoxide>  (168) 
0

>  <fr_ester>  (168) 
0

>  <fr_ether>  (168) 
0

>  <fr_furan>  (168) 
0

>  <fr_guanido>  (168) 
0

>  <fr_halogen>  (168) 
0

>  <fr_hdrzine>  (168) 
0

>  <fr_hdrzone>  (168) 
0

>  <fr_imidazole>  (168) 
0

>  <fr_imide>  (168) 
0

>  <fr_isocyan>  (168) 
0

>  <fr_isothiocyan>  (168) 
0

>  <fr_ketone>  (168) 
0

>  <fr_ketone_Topliss>  (168) 
0

>  <fr_lactam>  (168) 
0

>  <fr_lactone>  (168) 
0

>  <fr_methoxy>  (168) 
0

>  <fr_morpholine>  (168) 
0

>  <fr_nitrile>  (168) 
0

>  <fr_nitro>  (168) 
0

>  <fr_nitro_arom>  (168) 
0

>  <fr_nitro_arom_nonortho>  (168) 
0

>  <fr_nitroso>  (168) 
0

>  <fr_oxazole>  (168) 
0

>  <fr_oxime>  (168) 
0

>  <fr_para_hydroxylation>  (168) 
0

>  <fr_phenol>  (168) 
0

>  <fr_phenol_noOrthoHbond>  (168) 
0

>  <fr_phos_acid>  (168) 
0

>  <fr_phos_ester>  (168) 
0

>  <fr_piperdine>  (168) 
0

>  <fr_piperzine>  (168) 
0

>  <fr_priamide>  (168) 
0

>  <fr_prisulfonamd>  (168) 
0

>  <fr_pyridine>  (168) 
1

>  <fr_quatN>  (168) 
1

>  <fr_sulfide>  (168) 
0

>  <fr_sulfonamd>  (168) 
1

>  <fr_sulfone>  (168) 
0

>  <fr_term_acetylene>  (168) 
0

>  <fr_tetrazole>  (168) 
0

>  <fr_thiazole>  (168) 
0

>  <fr_thiocyan>  (168) 
0

>  <fr_thiophene>  (168) 
0

>  <fr_unbrch_alkane>  (168) 
0

>  <fr_urea>  (168) 
0

>  <NP_Likeness>  (168) 
-0.986159

$$$$
H52
     RDKit          3D

  0  0  0  0  0  0  0  0  0  0999 V3000
M  V30 BEGIN CTAB
M  V30 COUNTS 44 46 0 0 0
M  V30 BEGIN ATOM
M  V30 1 S 19.078000 8.215000 -18.653000 0
M  V30 2 O 18.647000 8.537000 -17.316000 0
M  V30 3 O 18.531000 7.000000 -19.203000 0
M  V30 4 N 22.584000 6.412000 -17.077000 0 CHG=1
M  V30 5 N 14.980000 11.512000 -20.219000 0
M  V30 6 N 20.641000 8.056000 -18.523000 0
M  V30 7 C 21.516000 7.148000 -20.669000 0
M  V30 8 C 15.929000 8.521000 -18.293000 0
M  V30 9 C 22.752000 7.492000 -16.130000 0
M  V30 10 C 22.725000 6.651000 -18.500000 0
M  V30 11 C 14.995000 10.437000 -19.444000 0
M  V30 12 C 16.109000 11.960000 -20.763000 0
M  V30 13 C 21.483000 9.053000 -17.801000 0
M  V30 14 C 21.715000 8.600000 -16.340000 0
M  V30 15 C 19.678000 11.292000 -21.058000 0
M  V30 16 C 19.777000 10.149000 -20.270000 0
M  V30 17 C 18.437000 11.869000 -21.207000 0
M  V30 18 C 18.695000 9.534000 -19.591000 0
M  V30 19 C 21.344000 6.918000 -19.148000 0 CFG=1
M  V30 20 C 16.168000 9.713000 -19.195000 0
M  V30 21 C 17.321000 11.300000 -20.563000 0
M  V30 22 C 17.410000 10.142000 -19.749000 0
M  V30 23 H 21.662400 6.049700 -16.937500 0
M  V30 24 H 21.993400 6.367300 -21.072300 0
M  V30 25 H 20.616600 7.245200 -21.095200 0
M  V30 26 H 22.049100 7.980100 -20.822100 0
M  V30 27 H 16.791500 8.037200 -18.144400 0
M  V30 28 H 15.567200 8.834600 -17.415100 0
M  V30 29 H 15.270500 7.903800 -18.723700 0
M  V30 30 H 23.667000 7.880000 -16.240600 0
M  V30 31 H 22.653900 7.128300 -15.203700 0
M  V30 32 H 23.139300 5.848000 -18.928500 0
M  V30 33 H 23.314200 7.446300 -18.642800 0
M  V30 34 H 14.140500 10.132600 -19.023000 0
M  V30 35 H 16.087700 12.786100 -21.326200 0
M  V30 36 H 21.019600 9.939100 -17.802200 0
M  V30 37 H 22.365100 9.137500 -18.264500 0
M  V30 38 H 22.012200 9.398700 -15.816800 0
M  V30 39 H 20.841500 8.272000 -15.980200 0
M  V30 40 H 20.484200 11.682400 -21.502600 0
M  V30 41 H 20.679900 9.729700 -20.175600 0
M  V30 42 H 18.328400 12.688400 -21.769900 0
M  V30 43 H 20.781200 6.101100 -19.021600 0
M  V30 44 H 23.257100 5.712700 -16.836100 0
M  V30 END ATOM
M  V30 BEGIN BOND
M  V30 1 2 1 2
M  V30 2 2 1 3
M  V30 3 1 1 6
M  V30 4 1 1 18
M  V30 5 1 4 9
M  V30 6 1 4 10
M  V30 7 2 5 11
M  V30 8 1 5 12
M  V30 9 1 6 13
M  V30 10 1 6 19
M  V30 11 1 7 19
M  V30 12 1 8 20
M  V30 13 1 9 14
M  V30 14 1 10 19
M  V30 15 1 11 20
M  V30 16 2 12 21
M  V30 17 1 13 14
M  V30 18 1 15 16
M  V30 19 2 15 17
M  V30 20 2 16 18
M  V30 21 1 17 21
M  V30 22 1 18 22
M  V30 23 2 20 22
M  V30 24 1 21 22
M  V30 25 1 4 23
M  V30 26 1 7 24
M  V30 27 1 7 25
M  V30 28 1 7 26
M  V30 29 1 8 27
M  V30 30 1 8 28
M  V30 31 1 8 29
M  V30 32 1 9 30
M  V30 33 1 9 31
M  V30 34 1 10 32
M  V30 35 1 10 33
M  V30 36 1 11 34
M  V30 37 1 12 35
M  V30 38 1 13 36
M  V30 39 1 13 37
M  V30 40 1 14 38
M  V30 41 1 14 39
M  V30 42 1 15 40
M  V30 43 1 16 41
M  V30 44 1 17 42
M  V30 45 1 19 43 CFG=3
M  V30 46 1 4 44
M  V30 END BOND
M  V30 END CTAB
M  END
>  <Ligand_Instance>  (169) 
2GNH_H52_A_502

>  <Dataset>  (169) 
PDB

>  <PDB_ID>  (169) 
2GNH

>  <Chain>  (169) 
A

>  <Resi>  (169) 
502

>  <Num_Resolved_Atoms>  (169) 
22

>  <Num_H_Atoms_ProtBoundConf>  (169) 
22

>  <Pocket>  (169) 
X

>  <Name>  (169) 
(S)-2-METHYL-1-[(4-METHYL-5-ISOQUINOLINE)SULFONYL]-HOMOPIPERAZINE

>  <Num_Not_Resolved_Atoms>  (169) 
0

>  <ATP_Site>  (169) 
True

>  <Peripheral>  (169) 
True

>  <Standardized_SMILES>  (169) 
[H]C1=NC([H])=C2C([H])=C([H])C([H])=C(S(=O)(=O)N3C([H])([H])C([H])([H])C([H])([H])[N+]([H])([H])C([H])([H])[C@]3([H])C([H])([H])[H])C2=C1C([H])([H])[H]

>  <2D_Mol_H>  (169) 
<rdkit.Chem.rdchem.Mol object at 0x77059d9fb530>

>  <MW>  (169) 
320.438

>  <HBA>  (169) 
3

>  <HBD>  (169) 
1

>  <LogP>  (169) 
0.88952

>  <NRB>  (169) 
4

>  <TPSA>  (169) 
66.88

>  <Num_Heavy_Atoms>  (169) 
22

>  <Ro5>  (169) 
[True, True, True, True, True, True]

>  <Ro5_Fulfilled>  (169) 
True

>  <Ro3>  (169) 
[False, True, True, True]

>  <Ro3_Fulfilled>  (169) 
True

>  <Fsp3>  (169) 
0.4375

>  <Fsp3_0.42>  (169) 
True

>  <Fsp3_0.45>  (169) 
False

>  <Stereogenic_Carbons>  (169) 
1

>  <C_Atoms>  (169) 
16

>  <FCStereo>  (169) 
0.0625

>  <SPS>  (169) 
460

>  <nSPS>  (169) 
20.909091

>  <PBF>  (169) 
0.957561

>  <PBF_0.6>  (169) 
True

>  <nPBF>  (169) 
0.043526

>  <nPBF_0.016>  (169) 
True

>  <PMI1>  (169) 
838.566488

>  <PMI2>  (169) 
2958.536314

>  <PMI3>  (169) 
3235.850669

>  <NPR1>  (169) 
0.259149

>  <NPR2>  (169) 
0.914299

>  <Sum_NPR>  (169) 
1.173448

>  <Sum_NPR_1.07>  (169) 
True

>  <Sum_NPR_1.2>  (169) 
False

>  <MaxAbsEStateIndex>  (169) 
13.208253

>  <MaxEStateIndex>  (169) 
13.208253

>  <MinAbsEStateIndex>  (169) 
0.004537

>  <MinEStateIndex>  (169) 
-3.498102

>  <qed>  (169) 
0.893472

>  <MolWt>  (169) 
320.438

>  <HeavyAtomMolWt>  (169) 
298.262

>  <ExactMolWt>  (169) 
320.142724

>  <NumValenceElectrons>  (169) 
118

>  <NumRadicalElectrons>  (169) 
0

>  <MaxPartialCharge>  (169) 
0.243653

>  <MinPartialCharge>  (169) 
-0.344891

>  <MaxAbsPartialCharge>  (169) 
0.344891

>  <MinAbsPartialCharge>  (169) 
0.243653

>  <FpDensityMorgan1>  (169) 
1.318182

>  <FpDensityMorgan2>  (169) 
2.136364

>  <FpDensityMorgan3>  (169) 
2.954545

>  <BCUT2D_MWHI>  (169) 
32.233428

>  <BCUT2D_MWLOW>  (169) 
10.102621

>  <BCUT2D_CHGHI>  (169) 
2.3214

>  <BCUT2D_CHGLO>  (169) 
-2.251786

>  <BCUT2D_LOGPHI>  (169) 
2.28428

>  <BCUT2D_LOGPLOW>  (169) 
-2.855537

>  <BCUT2D_MRHI>  (169) 
7.889912

>  <BCUT2D_MRLOW>  (169) 
-0.654222

>  <AvgIpc>  (169) 
2.717475

>  <BalabanJ>  (169) 
2.168145

>  <BertzCT>  (169) 
783.827542

>  <Chi0>  (169) 
15.742276

>  <Chi0n>  (169) 
12.989051

>  <Chi0v>  (169) 
13.805548

>  <Chi1>  (169) 
10.514874

>  <Chi1n>  (169) 
7.684318

>  <Chi1v>  (169) 
9.124382

>  <Chi2n>  (169) 
5.942042

>  <Chi2v>  (169) 
7.801019

>  <Chi3n>  (169) 
4.307383

>  <Chi3v>  (169) 
6.363327

>  <Chi4n>  (169) 
3.158439

>  <Chi4v>  (169) 
5.127734

>  <HallKierAlpha>  (169) 
-1.5

>  <Ipc>  (169) 
114954.624477

>  <Kappa1>  (169) 
15.397778

>  <Kappa2>  (169) 
5.94687

>  <Kappa3>  (169) 
2.620245

>  <LabuteASA>  (169) 
130.951951

>  <PEOE_VSA1>  (169) 
5.316789

>  <PEOE_VSA10>  (169) 
0.0

>  <PEOE_VSA11>  (169) 
0.0

>  <PEOE_VSA12>  (169) 
10.023291

>  <PEOE_VSA13>  (169) 
0.0

>  <PEOE_VSA14>  (169) 
0.0

>  <PEOE_VSA2>  (169) 
4.983979

>  <PEOE_VSA3>  (169) 
8.417797

>  <PEOE_VSA4>  (169) 
4.305216

>  <PEOE_VSA5>  (169) 
0.0

>  <PEOE_VSA6>  (169) 
12.132734

>  <PEOE_VSA7>  (169) 
25.477293

>  <PEOE_VSA8>  (169) 
36.131714

>  <PEOE_VSA9>  (169) 
24.026837

>  <SMR_VSA1>  (169) 
13.734586

>  <SMR_VSA10>  (169) 
20.79574

>  <SMR_VSA2>  (169) 
0.0

>  <SMR_VSA3>  (169) 
9.289195

>  <SMR_VSA4>  (169) 
0.0

>  <SMR_VSA5>  (169) 
31.20562

>  <SMR_VSA6>  (169) 
19.634269

>  <SMR_VSA7>  (169) 
36.15624

>  <SMR_VSA8>  (169) 
0.0

>  <SMR_VSA9>  (169) 
0.0

>  <SlogP_VSA1>  (169) 
5.316789

>  <SlogP_VSA10>  (169) 
0.0

>  <SlogP_VSA11>  (169) 
0.0

>  <SlogP_VSA12>  (169) 
0.0

>  <SlogP_VSA2>  (169) 
43.383102

>  <SlogP_VSA3>  (169) 
10.023291

>  <SlogP_VSA4>  (169) 
6.923737

>  <SlogP_VSA5>  (169) 
18.90801

>  <SlogP_VSA6>  (169) 
35.488272

>  <SlogP_VSA7>  (169) 
0.0

>  <SlogP_VSA8>  (169) 
10.772448

>  <SlogP_VSA9>  (169) 
0.0

>  <EState_VSA1>  (169) 
10.023291

>  <EState_VSA10>  (169) 
8.417797

>  <EState_VSA11>  (169) 
0.0

>  <EState_VSA2>  (169) 
6.041841

>  <EState_VSA3>  (169) 
11.44024

>  <EState_VSA4>  (169) 
35.846234

>  <EState_VSA5>  (169) 
0.0

>  <EState_VSA6>  (169) 
28.831637

>  <EState_VSA7>  (169) 
19.913841

>  <EState_VSA8>  (169) 
10.300767

>  <EState_VSA9>  (169) 
0.0

>  <VSA_EState1>  (169) 
28.074385

>  <VSA_EState10>  (169) 
0.0

>  <VSA_EState2>  (169) 
4.566144

>  <VSA_EState3>  (169) 
3.853135

>  <VSA_EState4>  (169) 
0.894178

>  <VSA_EState5>  (169) 
0.0

>  <VSA_EState6>  (169) 
5.426092

>  <VSA_EState7>  (169) 
4.330203

>  <VSA_EState8>  (169) 
6.270631

>  <VSA_EState9>  (169) 
-3.498102

>  <FractionCSP3>  (169) 
0.4375

>  <HeavyAtomCount>  (169) 
22

>  <NHOHCount>  (169) 
2

>  <NOCount>  (169) 
5

>  <NumAliphaticCarbocycles>  (169) 
0

>  <NumAliphaticHeterocycles>  (169) 
1

>  <NumAliphaticRings>  (169) 
1

>  <NumAromaticCarbocycles>  (169) 
1

>  <NumAromaticHeterocycles>  (169) 
1

>  <NumAromaticRings>  (169) 
2

>  <NumHAcceptors>  (169) 
3

>  <NumHDonors>  (169) 
1

>  <NumHeteroatoms>  (169) 
6

>  <NumRotatableBonds>  (169) 
2

>  <NumSaturatedCarbocycles>  (169) 
0

>  <NumSaturatedHeterocycles>  (169) 
1

>  <NumSaturatedRings>  (169) 
1

>  <RingCount>  (169) 
3

>  <MolLogP>  (169) 
0.88952

>  <MolMR>  (169) 
86.1102

>  <fr_Al_COO>  (169) 
0

>  <fr_Al_OH>  (169) 
0

>  <fr_Al_OH_noTert>  (169) 
0

>  <fr_ArN>  (169) 
0

>  <fr_Ar_COO>  (169) 
0

>  <fr_Ar_N>  (169) 
1

>  <fr_Ar_NH>  (169) 
0

>  <fr_Ar_OH>  (169) 
0

>  <fr_COO>  (169) 
0

>  <fr_COO2>  (169) 
0

>  <fr_C_O>  (169) 
0

>  <fr_C_O_noCOO>  (169) 
0

>  <fr_C_S>  (169) 
0

>  <fr_HOCCN>  (169) 
0

>  <fr_Imine>  (169) 
0

>  <fr_NH0>  (169) 
2

>  <fr_NH1>  (169) 
0

>  <fr_NH2>  (169) 
1

>  <fr_N_O>  (169) 
0

>  <fr_Ndealkylation1>  (169) 
0

>  <fr_Ndealkylation2>  (169) 
0

>  <fr_Nhpyrrole>  (169) 
0

>  <fr_SH>  (169) 
0

>  <fr_aldehyde>  (169) 
0

>  <fr_alkyl_carbamate>  (169) 
0

>  <fr_alkyl_halide>  (169) 
0

>  <fr_allylic_oxid>  (169) 
0

>  <fr_amide>  (169) 
0

>  <fr_amidine>  (169) 
0

>  <fr_aniline>  (169) 
0

>  <fr_aryl_methyl>  (169) 
1

>  <fr_azide>  (169) 
0

>  <fr_azo>  (169) 
0

>  <fr_barbitur>  (169) 
0

>  <fr_benzene>  (169) 
1

>  <fr_benzodiazepine>  (169) 
0

>  <fr_bicyclic>  (169) 
1

>  <fr_diazo>  (169) 
0

>  <fr_dihydropyridine>  (169) 
0

>  <fr_epoxide>  (169) 
0

>  <fr_ester>  (169) 
0

>  <fr_ether>  (169) 
0

>  <fr_furan>  (169) 
0

>  <fr_guanido>  (169) 
0

>  <fr_halogen>  (169) 
0

>  <fr_hdrzine>  (169) 
0

>  <fr_hdrzone>  (169) 
0

>  <fr_imidazole>  (169) 
0

>  <fr_imide>  (169) 
0

>  <fr_isocyan>  (169) 
0

>  <fr_isothiocyan>  (169) 
0

>  <fr_ketone>  (169) 
0

>  <fr_ketone_Topliss>  (169) 
0

>  <fr_lactam>  (169) 
0

>  <fr_lactone>  (169) 
0

>  <fr_methoxy>  (169) 
0

>  <fr_morpholine>  (169) 
0

>  <fr_nitrile>  (169) 
0

>  <fr_nitro>  (169) 
0

>  <fr_nitro_arom>  (169) 
0

>  <fr_nitro_arom_nonortho>  (169) 
0

>  <fr_nitroso>  (169) 
0

>  <fr_oxazole>  (169) 
0

>  <fr_oxime>  (169) 
0

>  <fr_para_hydroxylation>  (169) 
0

>  <fr_phenol>  (169) 
0

>  <fr_phenol_noOrthoHbond>  (169) 
0

>  <fr_phos_acid>  (169) 
0

>  <fr_phos_ester>  (169) 
0

>  <fr_piperdine>  (169) 
0

>  <fr_piperzine>  (169) 
0

>  <fr_priamide>  (169) 
0

>  <fr_prisulfonamd>  (169) 
0

>  <fr_pyridine>  (169) 
1

>  <fr_quatN>  (169) 
1

>  <fr_sulfide>  (169) 
0

>  <fr_sulfonamd>  (169) 
1

>  <fr_sulfone>  (169) 
0

>  <fr_term_acetylene>  (169) 
0

>  <fr_tetrazole>  (169) 
0

>  <fr_thiazole>  (169) 
0

>  <fr_thiocyan>  (169) 
0

>  <fr_thiophene>  (169) 
0

>  <fr_unbrch_alkane>  (169) 
0

>  <fr_urea>  (169) 
0

>  <NP_Likeness>  (169) 
-0.986159

$$$$
H52
     RDKit          3D

  0  0  0  0  0  0  0  0  0  0999 V3000
M  V30 BEGIN CTAB
M  V30 COUNTS 44 46 0 0 0
M  V30 BEGIN ATOM
M  V30 1 S 8.856000 9.781000 4.071000 0
M  V30 2 O 9.298000 11.013000 4.625000 0
M  V30 3 O 8.670000 8.885000 5.156000 0
M  V30 4 N 12.471000 8.251000 3.653000 0 CHG=1
M  V30 5 N 3.387000 10.312000 4.285000 0
M  V30 6 N 9.983000 9.181000 3.194000 0
M  V30 7 C 9.350000 7.029000 2.007000 0
M  V30 8 C 6.530000 10.186000 6.195000 0
M  V30 9 C 13.123000 9.427000 3.174000 0
M  V30 10 C 11.657000 7.459000 2.774000 0
M  V30 11 C 4.303000 10.299000 5.249000 0
M  V30 12 C 3.745000 10.214000 3.017000 0
M  V30 13 C 10.866000 10.068000 2.423000 0
M  V30 14 C 12.048000 10.468000 3.305000 0
M  V30 15 C 6.603000 9.833000 0.881000 0
M  V30 16 C 7.642000 9.807000 1.798000 0
M  V30 17 C 5.320000 9.963000 1.317000 0
M  V30 18 C 7.469000 9.902000 3.189000 0
M  V30 19 C 10.193000 7.729000 3.085000 0 CFG=1
M  V30 20 C 5.663000 10.185000 4.971000 0
M  V30 21 C 5.083000 10.083000 2.673000 0
M  V30 22 C 6.117000 10.056000 3.637000 0
M  V30 23 H 11.881700 8.537700 4.408300 0
M  V30 24 H 9.557200 6.050700 2.004900 0
M  V30 25 H 8.378800 7.163600 2.203700 0
M  V30 26 H 9.565500 7.417300 1.111000 0
M  V30 27 H 7.489000 10.101700 5.924300 0
M  V30 28 H 6.399000 11.041700 6.695600 0
M  V30 29 H 6.280100 9.415300 6.781100 0
M  V30 30 H 13.408700 9.319800 2.221700 0
M  V30 31 H 13.917600 9.654800 3.736800 0
M  V30 32 H 11.856900 6.489200 2.913700 0
M  V30 33 H 11.849800 7.705600 1.824300 0
M  V30 34 H 4.006700 10.373200 6.201200 0
M  V30 35 H 3.047500 10.234400 2.300700 0
M  V30 36 H 10.362000 10.885500 2.144400 0
M  V30 37 H 11.198900 9.588700 1.610900 0
M  V30 38 H 12.402000 11.355700 3.010500 0
M  V30 39 H 11.751400 10.526900 4.258200 0
M  V30 40 H 6.795200 9.756500 -0.097400 0
M  V30 41 H 8.573900 9.714800 1.447300 0
M  V30 42 H 4.560900 9.971500 0.666100 0
M  V30 43 H 9.978600 7.314000 3.969200 0
M  V30 44 H 13.188400 7.647200 4.000600 0
M  V30 END ATOM
M  V30 BEGIN BOND
M  V30 1 2 1 2
M  V30 2 2 1 3
M  V30 3 1 1 6
M  V30 4 1 1 18
M  V30 5 1 4 9
M  V30 6 1 4 10
M  V30 7 2 5 11
M  V30 8 1 5 12
M  V30 9 1 6 13
M  V30 10 1 6 19
M  V30 11 1 7 19
M  V30 12 1 8 20
M  V30 13 1 9 14
M  V30 14 1 10 19
M  V30 15 1 11 20
M  V30 16 2 12 21
M  V30 17 1 13 14
M  V30 18 1 15 16
M  V30 19 2 15 17
M  V30 20 2 16 18
M  V30 21 1 17 21
M  V30 22 1 18 22
M  V30 23 2 20 22
M  V30 24 1 21 22
M  V30 25 1 4 23
M  V30 26 1 7 24
M  V30 27 1 7 25
M  V30 28 1 7 26
M  V30 29 1 8 27
M  V30 30 1 8 28
M  V30 31 1 8 29
M  V30 32 1 9 30
M  V30 33 1 9 31
M  V30 34 1 10 32
M  V30 35 1 10 33
M  V30 36 1 11 34
M  V30 37 1 12 35
M  V30 38 1 13 36
M  V30 39 1 13 37
M  V30 40 1 14 38
M  V30 41 1 14 39
M  V30 42 1 15 40
M  V30 43 1 16 41
M  V30 44 1 17 42
M  V30 45 1 19 43 CFG=1
M  V30 46 1 4 44
M  V30 END BOND
M  V30 END CTAB
M  END
>  <Ligand_Instance>  (170) 
2GNL_H52_A_501

>  <Dataset>  (170) 
PDB

>  <PDB_ID>  (170) 
2GNL

>  <Chain>  (170) 
A

>  <Resi>  (170) 
501

>  <Num_Resolved_Atoms>  (170) 
22

>  <Num_H_Atoms_ProtBoundConf>  (170) 
22

>  <Pocket>  (170) 
A

>  <Name>  (170) 
(S)-2-METHYL-1-[(4-METHYL-5-ISOQUINOLINE)SULFONYL]-HOMOPIPERAZINE

>  <Num_Not_Resolved_Atoms>  (170) 
0

>  <ATP_Site>  (170) 
True

>  <Peripheral>  (170) 
False

>  <Standardized_SMILES>  (170) 
[H]C1=NC([H])=C2C([H])=C([H])C([H])=C(S(=O)(=O)N3C([H])([H])C([H])([H])C([H])([H])[N+]([H])([H])C([H])([H])[C@]3([H])C([H])([H])[H])C2=C1C([H])([H])[H]

>  <2D_Mol_H>  (170) 
<rdkit.Chem.rdchem.Mol object at 0x77059d9fb610>

>  <MW>  (170) 
320.438

>  <HBA>  (170) 
3

>  <HBD>  (170) 
1

>  <LogP>  (170) 
0.88952

>  <NRB>  (170) 
4

>  <TPSA>  (170) 
66.88

>  <Num_Heavy_Atoms>  (170) 
22

>  <Ro5>  (170) 
[True, True, True, True, True, True]

>  <Ro5_Fulfilled>  (170) 
True

>  <Ro3>  (170) 
[False, True, True, True]

>  <Ro3_Fulfilled>  (170) 
True

>  <Fsp3>  (170) 
0.4375

>  <Fsp3_0.42>  (170) 
True

>  <Fsp3_0.45>  (170) 
False

>  <Stereogenic_Carbons>  (170) 
1

>  <C_Atoms>  (170) 
16

>  <FCStereo>  (170) 
0.0625

>  <SPS>  (170) 
460

>  <nSPS>  (170) 
20.909091

>  <PBF>  (170) 
0.939525

>  <PBF_0.6>  (170) 
True

>  <nPBF>  (170) 
0.042706

>  <nPBF_0.016>  (170) 
True

>  <PMI1>  (170) 
808.88827

>  <PMI2>  (170) 
2841.805986

>  <PMI3>  (170) 
3168.263763

>  <NPR1>  (170) 
0.25531

>  <NPR2>  (170) 
0.89696

>  <Sum_NPR>  (170) 
1.15227

>  <Sum_NPR_1.07>  (170) 
True

>  <Sum_NPR_1.2>  (170) 
False

>  <MaxAbsEStateIndex>  (170) 
13.208253

>  <MaxEStateIndex>  (170) 
13.208253

>  <MinAbsEStateIndex>  (170) 
0.004537

>  <MinEStateIndex>  (170) 
-3.498102

>  <qed>  (170) 
0.893472

>  <MolWt>  (170) 
320.438

>  <HeavyAtomMolWt>  (170) 
298.262

>  <ExactMolWt>  (170) 
320.142724

>  <NumValenceElectrons>  (170) 
118

>  <NumRadicalElectrons>  (170) 
0

>  <MaxPartialCharge>  (170) 
0.243653

>  <MinPartialCharge>  (170) 
-0.344891

>  <MaxAbsPartialCharge>  (170) 
0.344891

>  <MinAbsPartialCharge>  (170) 
0.243653

>  <FpDensityMorgan1>  (170) 
1.318182

>  <FpDensityMorgan2>  (170) 
2.136364

>  <FpDensityMorgan3>  (170) 
2.954545

>  <BCUT2D_MWHI>  (170) 
32.233428

>  <BCUT2D_MWLOW>  (170) 
10.102621

>  <BCUT2D_CHGHI>  (170) 
2.3214

>  <BCUT2D_CHGLO>  (170) 
-2.251786

>  <BCUT2D_LOGPHI>  (170) 
2.28428

>  <BCUT2D_LOGPLOW>  (170) 
-2.855537

>  <BCUT2D_MRHI>  (170) 
7.889912

>  <BCUT2D_MRLOW>  (170) 
-0.654222

>  <AvgIpc>  (170) 
2.717475

>  <BalabanJ>  (170) 
2.168145

>  <BertzCT>  (170) 
783.827542

>  <Chi0>  (170) 
15.742276

>  <Chi0n>  (170) 
12.989051

>  <Chi0v>  (170) 
13.805548

>  <Chi1>  (170) 
10.514874

>  <Chi1n>  (170) 
7.684318

>  <Chi1v>  (170) 
9.124382

>  <Chi2n>  (170) 
5.942042

>  <Chi2v>  (170) 
7.801019

>  <Chi3n>  (170) 
4.307383

>  <Chi3v>  (170) 
6.363327

>  <Chi4n>  (170) 
3.158439

>  <Chi4v>  (170) 
5.127734

>  <HallKierAlpha>  (170) 
-1.5

>  <Ipc>  (170) 
114954.624477

>  <Kappa1>  (170) 
15.397778

>  <Kappa2>  (170) 
5.94687

>  <Kappa3>  (170) 
2.620245

>  <LabuteASA>  (170) 
130.951951

>  <PEOE_VSA1>  (170) 
5.316789

>  <PEOE_VSA10>  (170) 
0.0

>  <PEOE_VSA11>  (170) 
0.0

>  <PEOE_VSA12>  (170) 
10.023291

>  <PEOE_VSA13>  (170) 
0.0

>  <PEOE_VSA14>  (170) 
0.0

>  <PEOE_VSA2>  (170) 
4.983979

>  <PEOE_VSA3>  (170) 
8.417797

>  <PEOE_VSA4>  (170) 
4.305216

>  <PEOE_VSA5>  (170) 
0.0

>  <PEOE_VSA6>  (170) 
12.132734

>  <PEOE_VSA7>  (170) 
25.477293

>  <PEOE_VSA8>  (170) 
36.131714

>  <PEOE_VSA9>  (170) 
24.026837

>  <SMR_VSA1>  (170) 
13.734586

>  <SMR_VSA10>  (170) 
20.79574

>  <SMR_VSA2>  (170) 
0.0

>  <SMR_VSA3>  (170) 
9.289195

>  <SMR_VSA4>  (170) 
0.0

>  <SMR_VSA5>  (170) 
31.20562

>  <SMR_VSA6>  (170) 
19.634269

>  <SMR_VSA7>  (170) 
36.15624

>  <SMR_VSA8>  (170) 
0.0

>  <SMR_VSA9>  (170) 
0.0

>  <SlogP_VSA1>  (170) 
5.316789

>  <SlogP_VSA10>  (170) 
0.0

>  <SlogP_VSA11>  (170) 
0.0

>  <SlogP_VSA12>  (170) 
0.0

>  <SlogP_VSA2>  (170) 
43.383102

>  <SlogP_VSA3>  (170) 
10.023291

>  <SlogP_VSA4>  (170) 
6.923737

>  <SlogP_VSA5>  (170) 
18.90801

>  <SlogP_VSA6>  (170) 
35.488272

>  <SlogP_VSA7>  (170) 
0.0

>  <SlogP_VSA8>  (170) 
10.772448

>  <SlogP_VSA9>  (170) 
0.0

>  <EState_VSA1>  (170) 
10.023291

>  <EState_VSA10>  (170) 
8.417797

>  <EState_VSA11>  (170) 
0.0

>  <EState_VSA2>  (170) 
6.041841

>  <EState_VSA3>  (170) 
11.44024

>  <EState_VSA4>  (170) 
35.846234

>  <EState_VSA5>  (170) 
0.0

>  <EState_VSA6>  (170) 
28.831637

>  <EState_VSA7>  (170) 
19.913841

>  <EState_VSA8>  (170) 
10.300767

>  <EState_VSA9>  (170) 
0.0

>  <VSA_EState1>  (170) 
28.074385

>  <VSA_EState10>  (170) 
0.0

>  <VSA_EState2>  (170) 
4.566144

>  <VSA_EState3>  (170) 
3.853135

>  <VSA_EState4>  (170) 
0.894178

>  <VSA_EState5>  (170) 
0.0

>  <VSA_EState6>  (170) 
5.426092

>  <VSA_EState7>  (170) 
4.330203

>  <VSA_EState8>  (170) 
6.270631

>  <VSA_EState9>  (170) 
-3.498102

>  <FractionCSP3>  (170) 
0.4375

>  <HeavyAtomCount>  (170) 
22

>  <NHOHCount>  (170) 
2

>  <NOCount>  (170) 
5

>  <NumAliphaticCarbocycles>  (170) 
0

>  <NumAliphaticHeterocycles>  (170) 
1

>  <NumAliphaticRings>  (170) 
1

>  <NumAromaticCarbocycles>  (170) 
1

>  <NumAromaticHeterocycles>  (170) 
1

>  <NumAromaticRings>  (170) 
2

>  <NumHAcceptors>  (170) 
3

>  <NumHDonors>  (170) 
1

>  <NumHeteroatoms>  (170) 
6

>  <NumRotatableBonds>  (170) 
2

>  <NumSaturatedCarbocycles>  (170) 
0

>  <NumSaturatedHeterocycles>  (170) 
1

>  <NumSaturatedRings>  (170) 
1

>  <RingCount>  (170) 
3

>  <MolLogP>  (170) 
0.88952

>  <MolMR>  (170) 
86.1102

>  <fr_Al_COO>  (170) 
0

>  <fr_Al_OH>  (170) 
0

>  <fr_Al_OH_noTert>  (170) 
0

>  <fr_ArN>  (170) 
0

>  <fr_Ar_COO>  (170) 
0

>  <fr_Ar_N>  (170) 
1

>  <fr_Ar_NH>  (170) 
0

>  <fr_Ar_OH>  (170) 
0

>  <fr_COO>  (170) 
0

>  <fr_COO2>  (170) 
0

>  <fr_C_O>  (170) 
0

>  <fr_C_O_noCOO>  (170) 
0

>  <fr_C_S>  (170) 
0

>  <fr_HOCCN>  (170) 
0

>  <fr_Imine>  (170) 
0

>  <fr_NH0>  (170) 
2

>  <fr_NH1>  (170) 
0

>  <fr_NH2>  (170) 
1

>  <fr_N_O>  (170) 
0

>  <fr_Ndealkylation1>  (170) 
0

>  <fr_Ndealkylation2>  (170) 
0

>  <fr_Nhpyrrole>  (170) 
0

>  <fr_SH>  (170) 
0

>  <fr_aldehyde>  (170) 
0

>  <fr_alkyl_carbamate>  (170) 
0

>  <fr_alkyl_halide>  (170) 
0

>  <fr_allylic_oxid>  (170) 
0

>  <fr_amide>  (170) 
0

>  <fr_amidine>  (170) 
0

>  <fr_aniline>  (170) 
0

>  <fr_aryl_methyl>  (170) 
1

>  <fr_azide>  (170) 
0

>  <fr_azo>  (170) 
0

>  <fr_barbitur>  (170) 
0

>  <fr_benzene>  (170) 
1

>  <fr_benzodiazepine>  (170) 
0

>  <fr_bicyclic>  (170) 
1

>  <fr_diazo>  (170) 
0

>  <fr_dihydropyridine>  (170) 
0

>  <fr_epoxide>  (170) 
0

>  <fr_ester>  (170) 
0

>  <fr_ether>  (170) 
0

>  <fr_furan>  (170) 
0

>  <fr_guanido>  (170) 
0

>  <fr_halogen>  (170) 
0

>  <fr_hdrzine>  (170) 
0

>  <fr_hdrzone>  (170) 
0

>  <fr_imidazole>  (170) 
0

>  <fr_imide>  (170) 
0

>  <fr_isocyan>  (170) 
0

>  <fr_isothiocyan>  (170) 
0

>  <fr_ketone>  (170) 
0

>  <fr_ketone_Topliss>  (170) 
0

>  <fr_lactam>  (170) 
0

>  <fr_lactone>  (170) 
0

>  <fr_methoxy>  (170) 
0

>  <fr_morpholine>  (170) 
0

>  <fr_nitrile>  (170) 
0

>  <fr_nitro>  (170) 
0

>  <fr_nitro_arom>  (170) 
0

>  <fr_nitro_arom_nonortho>  (170) 
0

>  <fr_nitroso>  (170) 
0

>  <fr_oxazole>  (170) 
0

>  <fr_oxime>  (170) 
0

>  <fr_para_hydroxylation>  (170) 
0

>  <fr_phenol>  (170) 
0

>  <fr_phenol_noOrthoHbond>  (170) 
0

>  <fr_phos_acid>  (170) 
0

>  <fr_phos_ester>  (170) 
0

>  <fr_piperdine>  (170) 
0

>  <fr_piperzine>  (170) 
0

>  <fr_priamide>  (170) 
0

>  <fr_prisulfonamd>  (170) 
0

>  <fr_pyridine>  (170) 
1

>  <fr_quatN>  (170) 
1

>  <fr_sulfide>  (170) 
0

>  <fr_sulfonamd>  (170) 
1

>  <fr_sulfone>  (170) 
0

>  <fr_term_acetylene>  (170) 
0

>  <fr_tetrazole>  (170) 
0

>  <fr_thiazole>  (170) 
0

>  <fr_thiocyan>  (170) 
0

>  <fr_thiophene>  (170) 
0

>  <fr_unbrch_alkane>  (170) 
0

>  <fr_urea>  (170) 
0

>  <NP_Likeness>  (170) 
-0.986159

$$$$
H52
     RDKit          3D

  0  0  0  0  0  0  0  0  0  0999 V3000
M  V30 BEGIN CTAB
M  V30 COUNTS 44 46 0 0 0
M  V30 BEGIN ATOM
M  V30 1 S -13.452000 -25.020000 27.318000 0
M  V30 2 O -14.042000 -25.444000 28.546000 0
M  V30 3 O -12.809000 -25.980000 26.475000 0
M  V30 4 N -9.835000 -21.868000 28.025000 0 CHG=1
M  V30 5 N -17.342000 -26.220000 23.637000 0
M  V30 6 N -12.300000 -23.936000 27.715000 0
M  V30 7 C -11.221000 -22.768000 25.785000 0
M  V30 8 C -15.292000 -27.329000 26.572000 0
M  V30 9 C -10.675000 -21.420000 29.175000 0
M  V30 10 C -9.838000 -23.327000 27.721000 0
M  V30 11 C -16.659000 -26.933000 24.532000 0
M  V30 12 C -17.241000 -24.910000 23.691000 0
M  V30 13 C -12.530000 -23.148000 28.942000 0
M  V30 14 C -12.147000 -21.681000 28.893000 0
M  V30 15 C -15.475000 -22.156000 25.442000 0
M  V30 16 C -14.670000 -22.866000 26.315000 0
M  V30 17 C -16.325000 -22.801000 24.599000 0
M  V30 18 C -14.717000 -24.233000 26.350000 0
M  V30 19 C -11.056000 -23.759000 26.923000 0 CFG=1
M  V30 20 C -15.830000 -26.406000 25.509000 0
M  V30 21 C -16.419000 -24.211000 24.608000 0
M  V30 22 C -15.636000 -24.980000 25.529000 0
M  V30 23 H -8.890800 -21.600700 28.217400 0
M  V30 24 H -10.358100 -22.686500 25.286200 0
M  V30 25 H -11.935900 -23.089500 25.164000 0
M  V30 26 H -11.477700 -21.875200 26.155100 0
M  V30 27 H -14.713900 -26.810600 27.202100 0
M  V30 28 H -16.053400 -27.736100 27.076500 0
M  V30 29 H -14.751700 -28.052700 26.142700 0
M  V30 30 H -10.536600 -20.440500 29.321700 0
M  V30 31 H -10.403200 -21.921700 29.996200 0
M  V30 32 H -9.824900 -23.833100 28.583300 0
M  V30 33 H -9.016700 -23.545300 27.193900 0
M  V30 34 H -16.752300 -27.928000 24.495500 0
M  V30 35 H -17.779700 -24.372500 23.042300 0
M  V30 36 H -12.004100 -23.573800 29.678300 0
M  V30 37 H -13.505400 -23.199300 29.156300 0
M  V30 38 H -12.360300 -21.329900 27.981300 0
M  V30 39 H -12.690200 -21.190600 29.574500 0
M  V30 40 H -15.431300 -21.157000 25.430800 0
M  V30 41 H -14.048300 -22.375700 26.925800 0
M  V30 42 H -16.889700 -22.271800 23.965800 0
M  V30 43 H -10.839900 -24.644900 26.512700 0
M  V30 44 H -10.157700 -21.388000 27.209200 0
M  V30 END ATOM
M  V30 BEGIN BOND
M  V30 1 2 1 2
M  V30 2 2 1 3
M  V30 3 1 1 6
M  V30 4 1 1 18
M  V30 5 1 4 9
M  V30 6 1 4 10
M  V30 7 2 5 11
M  V30 8 1 5 12
M  V30 9 1 6 13
M  V30 10 1 6 19
M  V30 11 1 7 19
M  V30 12 1 8 20
M  V30 13 1 9 14
M  V30 14 1 10 19
M  V30 15 1 11 20
M  V30 16 2 12 21
M  V30 17 1 13 14
M  V30 18 1 15 16
M  V30 19 2 15 17
M  V30 20 2 16 18
M  V30 21 1 17 21
M  V30 22 1 18 22
M  V30 23 2 20 22
M  V30 24 1 21 22
M  V30 25 1 4 23
M  V30 26 1 7 24
M  V30 27 1 7 25
M  V30 28 1 7 26
M  V30 29 1 8 27
M  V30 30 1 8 28
M  V30 31 1 8 29
M  V30 32 1 9 30
M  V30 33 1 9 31
M  V30 34 1 10 32
M  V30 35 1 10 33
M  V30 36 1 11 34
M  V30 37 1 12 35
M  V30 38 1 13 36
M  V30 39 1 13 37
M  V30 40 1 14 38
M  V30 41 1 14 39
M  V30 42 1 15 40
M  V30 43 1 16 41
M  V30 44 1 17 42
M  V30 45 1 19 43 CFG=3
M  V30 46 1 4 44
M  V30 END BOND
M  V30 END CTAB
M  END
>  <Ligand_Instance>  (171) 
5M6V_H52_A_401

>  <Dataset>  (171) 
PDB

>  <PDB_ID>  (171) 
5M6V

>  <Chain>  (171) 
A

>  <Resi>  (171) 
401

>  <Num_Resolved_Atoms>  (171) 
22

>  <Num_H_Atoms_ProtBoundConf>  (171) 
22

>  <Pocket>  (171) 
A

>  <Name>  (171) 
(S)-2-METHYL-1-[(4-METHYL-5-ISOQUINOLINE)SULFONYL]-HOMOPIPERAZINE

>  <Num_Not_Resolved_Atoms>  (171) 
0

>  <ATP_Site>  (171) 
True

>  <Peripheral>  (171) 
False

>  <Standardized_SMILES>  (171) 
[H]C1=NC([H])=C2C([H])=C([H])C([H])=C(S(=O)(=O)N3C([H])([H])C([H])([H])C([H])([H])[N+]([H])([H])C([H])([H])[C@]3([H])C([H])([H])[H])C2=C1C([H])([H])[H]

>  <2D_Mol_H>  (171) 
<rdkit.Chem.rdchem.Mol object at 0x77059d9fb6f0>

>  <MW>  (171) 
320.438

>  <HBA>  (171) 
3

>  <HBD>  (171) 
1

>  <LogP>  (171) 
0.88952

>  <NRB>  (171) 
4

>  <TPSA>  (171) 
66.88

>  <Num_Heavy_Atoms>  (171) 
22

>  <Ro5>  (171) 
[True, True, True, True, True, True]

>  <Ro5_Fulfilled>  (171) 
True

>  <Ro3>  (171) 
[False, True, True, True]

>  <Ro3_Fulfilled>  (171) 
True

>  <Fsp3>  (171) 
0.4375

>  <Fsp3_0.42>  (171) 
True

>  <Fsp3_0.45>  (171) 
False

>  <Stereogenic_Carbons>  (171) 
1

>  <C_Atoms>  (171) 
16

>  <FCStereo>  (171) 
0.0625

>  <SPS>  (171) 
460

>  <nSPS>  (171) 
20.909091

>  <PBF>  (171) 
0.93233

>  <PBF_0.6>  (171) 
True

>  <nPBF>  (171) 
0.042379

>  <nPBF_0.016>  (171) 
True

>  <PMI1>  (171) 
847.416981

>  <PMI2>  (171) 
2935.144024

>  <PMI3>  (171) 
3284.504282

>  <NPR1>  (171) 
0.258005

>  <NPR2>  (171) 
0.893634

>  <Sum_NPR>  (171) 
1.151638

>  <Sum_NPR_1.07>  (171) 
True

>  <Sum_NPR_1.2>  (171) 
False

>  <MaxAbsEStateIndex>  (171) 
13.208253

>  <MaxEStateIndex>  (171) 
13.208253

>  <MinAbsEStateIndex>  (171) 
0.004537

>  <MinEStateIndex>  (171) 
-3.498102

>  <qed>  (171) 
0.893472

>  <MolWt>  (171) 
320.438

>  <HeavyAtomMolWt>  (171) 
298.262

>  <ExactMolWt>  (171) 
320.142724

>  <NumValenceElectrons>  (171) 
118

>  <NumRadicalElectrons>  (171) 
0

>  <MaxPartialCharge>  (171) 
0.243653

>  <MinPartialCharge>  (171) 
-0.344891

>  <MaxAbsPartialCharge>  (171) 
0.344891

>  <MinAbsPartialCharge>  (171) 
0.243653

>  <FpDensityMorgan1>  (171) 
1.318182

>  <FpDensityMorgan2>  (171) 
2.136364

>  <FpDensityMorgan3>  (171) 
2.954545

>  <BCUT2D_MWHI>  (171) 
32.233428

>  <BCUT2D_MWLOW>  (171) 
10.102621

>  <BCUT2D_CHGHI>  (171) 
2.3214

>  <BCUT2D_CHGLO>  (171) 
-2.251786

>  <BCUT2D_LOGPHI>  (171) 
2.28428

>  <BCUT2D_LOGPLOW>  (171) 
-2.855537

>  <BCUT2D_MRHI>  (171) 
7.889912

>  <BCUT2D_MRLOW>  (171) 
-0.654222

>  <AvgIpc>  (171) 
2.717475

>  <BalabanJ>  (171) 
2.168145

>  <BertzCT>  (171) 
783.827542

>  <Chi0>  (171) 
15.742276

>  <Chi0n>  (171) 
12.989051

>  <Chi0v>  (171) 
13.805548

>  <Chi1>  (171) 
10.514874

>  <Chi1n>  (171) 
7.684318

>  <Chi1v>  (171) 
9.124382

>  <Chi2n>  (171) 
5.942042

>  <Chi2v>  (171) 
7.801019

>  <Chi3n>  (171) 
4.307383

>  <Chi3v>  (171) 
6.363327

>  <Chi4n>  (171) 
3.158439

>  <Chi4v>  (171) 
5.127734

>  <HallKierAlpha>  (171) 
-1.5

>  <Ipc>  (171) 
114954.624477

>  <Kappa1>  (171) 
15.397778

>  <Kappa2>  (171) 
5.94687

>  <Kappa3>  (171) 
2.620245

>  <LabuteASA>  (171) 
130.951951

>  <PEOE_VSA1>  (171) 
5.316789

>  <PEOE_VSA10>  (171) 
0.0

>  <PEOE_VSA11>  (171) 
0.0

>  <PEOE_VSA12>  (171) 
10.023291

>  <PEOE_VSA13>  (171) 
0.0

>  <PEOE_VSA14>  (171) 
0.0

>  <PEOE_VSA2>  (171) 
4.983979

>  <PEOE_VSA3>  (171) 
8.417797

>  <PEOE_VSA4>  (171) 
4.305216

>  <PEOE_VSA5>  (171) 
0.0

>  <PEOE_VSA6>  (171) 
12.132734

>  <PEOE_VSA7>  (171) 
25.477293

>  <PEOE_VSA8>  (171) 
36.131714

>  <PEOE_VSA9>  (171) 
24.026837

>  <SMR_VSA1>  (171) 
13.734586

>  <SMR_VSA10>  (171) 
20.79574

>  <SMR_VSA2>  (171) 
0.0

>  <SMR_VSA3>  (171) 
9.289195

>  <SMR_VSA4>  (171) 
0.0

>  <SMR_VSA5>  (171) 
31.20562

>  <SMR_VSA6>  (171) 
19.634269

>  <SMR_VSA7>  (171) 
36.15624

>  <SMR_VSA8>  (171) 
0.0

>  <SMR_VSA9>  (171) 
0.0

>  <SlogP_VSA1>  (171) 
5.316789

>  <SlogP_VSA10>  (171) 
0.0

>  <SlogP_VSA11>  (171) 
0.0

>  <SlogP_VSA12>  (171) 
0.0

>  <SlogP_VSA2>  (171) 
43.383102

>  <SlogP_VSA3>  (171) 
10.023291

>  <SlogP_VSA4>  (171) 
6.923737

>  <SlogP_VSA5>  (171) 
18.90801

>  <SlogP_VSA6>  (171) 
35.488272

>  <SlogP_VSA7>  (171) 
0.0

>  <SlogP_VSA8>  (171) 
10.772448

>  <SlogP_VSA9>  (171) 
0.0

>  <EState_VSA1>  (171) 
10.023291

>  <EState_VSA10>  (171) 
8.417797

>  <EState_VSA11>  (171) 
0.0

>  <EState_VSA2>  (171) 
6.041841

>  <EState_VSA3>  (171) 
11.44024

>  <EState_VSA4>  (171) 
35.846234

>  <EState_VSA5>  (171) 
0.0

>  <EState_VSA6>  (171) 
28.831637

>  <EState_VSA7>  (171) 
19.913841

>  <EState_VSA8>  (171) 
10.300767

>  <EState_VSA9>  (171) 
0.0

>  <VSA_EState1>  (171) 
28.074385

>  <VSA_EState10>  (171) 
0.0

>  <VSA_EState2>  (171) 
4.566144

>  <VSA_EState3>  (171) 
3.853135

>  <VSA_EState4>  (171) 
0.894178

>  <VSA_EState5>  (171) 
0.0

>  <VSA_EState6>  (171) 
5.426092

>  <VSA_EState7>  (171) 
4.330203

>  <VSA_EState8>  (171) 
6.270631

>  <VSA_EState9>  (171) 
-3.498102

>  <FractionCSP3>  (171) 
0.4375

>  <HeavyAtomCount>  (171) 
22

>  <NHOHCount>  (171) 
2

>  <NOCount>  (171) 
5

>  <NumAliphaticCarbocycles>  (171) 
0

>  <NumAliphaticHeterocycles>  (171) 
1

>  <NumAliphaticRings>  (171) 
1

>  <NumAromaticCarbocycles>  (171) 
1

>  <NumAromaticHeterocycles>  (171) 
1

>  <NumAromaticRings>  (171) 
2

>  <NumHAcceptors>  (171) 
3

>  <NumHDonors>  (171) 
1

>  <NumHeteroatoms>  (171) 
6

>  <NumRotatableBonds>  (171) 
2

>  <NumSaturatedCarbocycles>  (171) 
0

>  <NumSaturatedHeterocycles>  (171) 
1

>  <NumSaturatedRings>  (171) 
1

>  <RingCount>  (171) 
3

>  <MolLogP>  (171) 
0.88952

>  <MolMR>  (171) 
86.1102

>  <fr_Al_COO>  (171) 
0

>  <fr_Al_OH>  (171) 
0

>  <fr_Al_OH_noTert>  (171) 
0

>  <fr_ArN>  (171) 
0

>  <fr_Ar_COO>  (171) 
0

>  <fr_Ar_N>  (171) 
1

>  <fr_Ar_NH>  (171) 
0

>  <fr_Ar_OH>  (171) 
0

>  <fr_COO>  (171) 
0

>  <fr_COO2>  (171) 
0

>  <fr_C_O>  (171) 
0

>  <fr_C_O_noCOO>  (171) 
0

>  <fr_C_S>  (171) 
0

>  <fr_HOCCN>  (171) 
0

>  <fr_Imine>  (171) 
0

>  <fr_NH0>  (171) 
2

>  <fr_NH1>  (171) 
0

>  <fr_NH2>  (171) 
1

>  <fr_N_O>  (171) 
0

>  <fr_Ndealkylation1>  (171) 
0

>  <fr_Ndealkylation2>  (171) 
0

>  <fr_Nhpyrrole>  (171) 
0

>  <fr_SH>  (171) 
0

>  <fr_aldehyde>  (171) 
0

>  <fr_alkyl_carbamate>  (171) 
0

>  <fr_alkyl_halide>  (171) 
0

>  <fr_allylic_oxid>  (171) 
0

>  <fr_amide>  (171) 
0

>  <fr_amidine>  (171) 
0

>  <fr_aniline>  (171) 
0

>  <fr_aryl_methyl>  (171) 
1

>  <fr_azide>  (171) 
0

>  <fr_azo>  (171) 
0

>  <fr_barbitur>  (171) 
0

>  <fr_benzene>  (171) 
1

>  <fr_benzodiazepine>  (171) 
0

>  <fr_bicyclic>  (171) 
1

>  <fr_diazo>  (171) 
0

>  <fr_dihydropyridine>  (171) 
0

>  <fr_epoxide>  (171) 
0

>  <fr_ester>  (171) 
0

>  <fr_ether>  (171) 
0

>  <fr_furan>  (171) 
0

>  <fr_guanido>  (171) 
0

>  <fr_halogen>  (171) 
0

>  <fr_hdrzine>  (171) 
0

>  <fr_hdrzone>  (171) 
0

>  <fr_imidazole>  (171) 
0

>  <fr_imide>  (171) 
0

>  <fr_isocyan>  (171) 
0

>  <fr_isothiocyan>  (171) 
0

>  <fr_ketone>  (171) 
0

>  <fr_ketone_Topliss>  (171) 
0

>  <fr_lactam>  (171) 
0

>  <fr_lactone>  (171) 
0

>  <fr_methoxy>  (171) 
0

>  <fr_morpholine>  (171) 
0

>  <fr_nitrile>  (171) 
0

>  <fr_nitro>  (171) 
0

>  <fr_nitro_arom>  (171) 
0

>  <fr_nitro_arom_nonortho>  (171) 
0

>  <fr_nitroso>  (171) 
0

>  <fr_oxazole>  (171) 
0

>  <fr_oxime>  (171) 
0

>  <fr_para_hydroxylation>  (171) 
0

>  <fr_phenol>  (171) 
0

>  <fr_phenol_noOrthoHbond>  (171) 
0

>  <fr_phos_acid>  (171) 
0

>  <fr_phos_ester>  (171) 
0

>  <fr_piperdine>  (171) 
0

>  <fr_piperzine>  (171) 
0

>  <fr_priamide>  (171) 
0

>  <fr_prisulfonamd>  (171) 
0

>  <fr_pyridine>  (171) 
1

>  <fr_quatN>  (171) 
1

>  <fr_sulfide>  (171) 
0

>  <fr_sulfonamd>  (171) 
1

>  <fr_sulfone>  (171) 
0

>  <fr_term_acetylene>  (171) 
0

>  <fr_tetrazole>  (171) 
0

>  <fr_thiazole>  (171) 
0

>  <fr_thiocyan>  (171) 
0

>  <fr_thiophene>  (171) 
0

>  <fr_unbrch_alkane>  (171) 
0

>  <fr_urea>  (171) 
0

>  <NP_Likeness>  (171) 
-0.986159

$$$$
HBD
     RDKit          3D

  0  0  0  0  0  0  0  0  0  0999 V3000
M  V30 BEGIN CTAB
M  V30 COUNTS 17 17 0 0 0
M  V30 BEGIN ATOM
M  V30 1 O -9.139000 2.465000 -28.334000 0
M  V30 2 O -15.168000 2.367000 -30.262000 0
M  V30 3 N -9.502000 4.670000 -28.432000 0
M  V30 4 C -12.994000 1.582000 -29.698000 0
M  V30 5 C -13.489000 3.928000 -29.599000 0
M  V30 6 C -11.696000 1.842000 -29.294000 0
M  V30 7 C -12.192000 4.182000 -29.204000 0
M  V30 8 C -9.881000 3.408000 -28.577000 0
M  V30 9 C -13.896000 2.627000 -29.847000 0
M  V30 10 C -11.279000 3.146000 -29.045000 0
M  V30 11 H -15.821400 3.116200 -30.370900 0
M  V30 12 H -10.140000 5.410900 -28.641800 0
M  V30 13 H -8.578100 4.881100 -28.112800 0
M  V30 14 H -13.281900 0.642300 -29.882400 0
M  V30 15 H -14.135700 4.683100 -29.706400 0
M  V30 16 H -11.051800 1.085700 -29.180000 0
M  V30 17 H -11.904800 5.123900 -29.029700 0
M  V30 END ATOM
M  V30 BEGIN BOND
M  V30 1 2 1 8
M  V30 2 1 2 9
M  V30 3 1 3 8
M  V30 4 2 4 6
M  V30 5 1 4 9
M  V30 6 1 5 7
M  V30 7 2 5 9
M  V30 8 1 6 10
M  V30 9 2 7 10
M  V30 10 1 8 10
M  V30 11 1 2 11
M  V30 12 1 3 12
M  V30 13 1 3 13
M  V30 14 1 4 14
M  V30 15 1 5 15
M  V30 16 1 6 16
M  V30 17 1 7 17
M  V30 END BOND
M  V30 END CTAB
M  END
>  <Ligand_Instance>  (172) 
5N3S_HBD_A_401

>  <Dataset>  (172) 
PDB

>  <PDB_ID>  (172) 
5N3S

>  <Chain>  (172) 
A

>  <Resi>  (172) 
401

>  <Num_Resolved_Atoms>  (172) 
10

>  <Num_H_Atoms_ProtBoundConf>  (172) 
7

>  <Pocket>  (172) 
A

>  <Name>  (172) 
4-HYDROXYBENZAMIDE

>  <Num_Not_Resolved_Atoms>  (172) 
0

>  <ATP_Site>  (172) 
True

>  <Peripheral>  (172) 
False

>  <Standardized_SMILES>  (172) 
[H]OC1=C([H])C([H])=C(C(=O)N([H])[H])C([H])=C1[H]

>  <2D_Mol_H>  (172) 
<rdkit.Chem.rdchem.Mol object at 0x77059d9fb7d0>

>  <MW>  (172) 
137.138

>  <HBA>  (172) 
2

>  <HBD>  (172) 
2

>  <LogP>  (172) 
0.4911

>  <NRB>  (172) 
2

>  <TPSA>  (172) 
63.32

>  <Num_Heavy_Atoms>  (172) 
10

>  <Ro5>  (172) 
[True, True, True, True, True, True]

>  <Ro5_Fulfilled>  (172) 
True

>  <Ro3>  (172) 
[True, True, True, True]

>  <Ro3_Fulfilled>  (172) 
True

>  <Fsp3>  (172) 
0.0

>  <Fsp3_0.42>  (172) 
False

>  <Fsp3_0.45>  (172) 
False

>  <Stereogenic_Carbons>  (172) 
0

>  <C_Atoms>  (172) 
7

>  <FCStereo>  (172) 
0.0

>  <SPS>  (172) 
92

>  <nSPS>  (172) 
9.2

>  <PBF>  (172) 
0.034869

>  <PBF_0.6>  (172) 
False

>  <nPBF>  (172) 
0.003487

>  <nPBF_0.016>  (172) 
False

>  <PMI1>  (172) 
129.749554

>  <PMI2>  (172) 
633.120134

>  <PMI3>  (172) 
762.341678

>  <NPR1>  (172) 
0.170199

>  <NPR2>  (172) 
0.830494

>  <Sum_NPR>  (172) 
1.000693

>  <Sum_NPR_1.07>  (172) 
False

>  <Sum_NPR_1.2>  (172) 
False

>  <MaxAbsEStateIndex>  (172) 
10.452816

>  <MaxEStateIndex>  (172) 
10.452816

>  <MinAbsEStateIndex>  (172) 
0.12963

>  <MinEStateIndex>  (172) 
-0.486111

>  <qed>  (172) 
0.591271

>  <MolWt>  (172) 
137.138

>  <HeavyAtomMolWt>  (172) 
130.082

>  <ExactMolWt>  (172) 
137.047678

>  <NumValenceElectrons>  (172) 
52

>  <NumRadicalElectrons>  (172) 
0

>  <MaxPartialCharge>  (172) 
0.2482

>  <MinPartialCharge>  (172) 
-0.507966

>  <MaxAbsPartialCharge>  (172) 
0.507966

>  <MinAbsPartialCharge>  (172) 
0.2482

>  <FpDensityMorgan1>  (172) 
1.3

>  <FpDensityMorgan2>  (172) 
1.8

>  <FpDensityMorgan3>  (172) 
2.2

>  <BCUT2D_MWHI>  (172) 
16.254692

>  <BCUT2D_MWLOW>  (172) 
10.189756

>  <BCUT2D_CHGHI>  (172) 
1.964152

>  <BCUT2D_CHGLO>  (172) 
-1.926744

>  <BCUT2D_LOGPHI>  (172) 
2.077208

>  <BCUT2D_LOGPLOW>  (172) 
-2.095167

>  <BCUT2D_MRHI>  (172) 
5.922807

>  <BCUT2D_MRLOW>  (172) 
0.100007

>  <AvgIpc>  (172) 
1.884505

>  <BalabanJ>  (172) 
3.003401

>  <BertzCT>  (172) 
240.287949

>  <Chi0>  (172) 
7.560478

>  <Chi0n>  (172) 
5.242213

>  <Chi0v>  (172) 
5.242213

>  <Chi1>  (172) 
4.698377

>  <Chi1n>  (172) 
2.787773

>  <Chi1v>  (172) 
2.787773

>  <Chi2n>  (172) 
1.911125

>  <Chi2v>  (172) 
1.911125

>  <Chi3n>  (172) 
1.151823

>  <Chi3v>  (172) 
1.151823

>  <Chi4n>  (172) 
0.625697

>  <Chi4v>  (172) 
0.625697

>  <HallKierAlpha>  (172) 
-1.51

>  <Ipc>  (172) 
180.912515

>  <Kappa1>  (172) 
6.607786

>  <Kappa2>  (172) 
2.389633

>  <Kappa3>  (172) 
1.253905

>  <LabuteASA>  (172) 
58.091992

>  <PEOE_VSA1>  (172) 
10.840195

>  <PEOE_VSA10>  (172) 
5.749512

>  <PEOE_VSA11>  (172) 
0.0

>  <PEOE_VSA12>  (172) 
5.90718

>  <PEOE_VSA13>  (172) 
0.0

>  <PEOE_VSA14>  (172) 
0.0

>  <PEOE_VSA2>  (172) 
4.794537

>  <PEOE_VSA3>  (172) 
0.0

>  <PEOE_VSA4>  (172) 
0.0

>  <PEOE_VSA5>  (172) 
0.0

>  <PEOE_VSA6>  (172) 
0.0

>  <PEOE_VSA7>  (172) 
24.265468

>  <PEOE_VSA8>  (172) 
5.563451

>  <PEOE_VSA9>  (172) 
0.0

>  <SMR_VSA1>  (172) 
9.901065

>  <SMR_VSA10>  (172) 
5.90718

>  <SMR_VSA2>  (172) 
0.0

>  <SMR_VSA3>  (172) 
0.0

>  <SMR_VSA4>  (172) 
5.733667

>  <SMR_VSA5>  (172) 
0.0

>  <SMR_VSA6>  (172) 
0.0

>  <SMR_VSA7>  (172) 
29.82892

>  <SMR_VSA8>  (172) 
0.0

>  <SMR_VSA9>  (172) 
5.749512

>  <SlogP_VSA1>  (172) 
5.733667

>  <SlogP_VSA10>  (172) 
0.0

>  <SlogP_VSA11>  (172) 
5.749512

>  <SlogP_VSA12>  (172) 
0.0

>  <SlogP_VSA2>  (172) 
11.013707

>  <SlogP_VSA3>  (172) 
0.0

>  <SlogP_VSA4>  (172) 
0.0

>  <SlogP_VSA5>  (172) 
10.357989

>  <SlogP_VSA6>  (172) 
24.265468

>  <SlogP_VSA7>  (172) 
0.0

>  <SlogP_VSA8>  (172) 
0.0

>  <SlogP_VSA9>  (172) 
0.0

>  <EState_VSA1>  (172) 
5.90718

>  <EState_VSA10>  (172) 
4.794537

>  <EState_VSA11>  (172) 
0.0

>  <EState_VSA2>  (172) 
5.749512

>  <EState_VSA3>  (172) 
5.563451

>  <EState_VSA4>  (172) 
0.0

>  <EState_VSA5>  (172) 
24.265468

>  <EState_VSA6>  (172) 
0.0

>  <EState_VSA7>  (172) 
0.0

>  <EState_VSA8>  (172) 
0.0

>  <EState_VSA9>  (172) 
10.840195

>  <VSA_EState1>  (172) 
0.0

>  <VSA_EState10>  (172) 
0.0

>  <VSA_EState2>  (172) 
10.452816

>  <VSA_EState3>  (172) 
8.786334

>  <VSA_EState4>  (172) 
5.343998

>  <VSA_EState5>  (172) 
-0.356481

>  <VSA_EState6>  (172) 
5.773333

>  <VSA_EState7>  (172) 
0.0

>  <VSA_EState8>  (172) 
0.0

>  <VSA_EState9>  (172) 
0.0

>  <FractionCSP3>  (172) 
0.0

>  <HeavyAtomCount>  (172) 
10

>  <NHOHCount>  (172) 
3

>  <NOCount>  (172) 
3

>  <NumAliphaticCarbocycles>  (172) 
0

>  <NumAliphaticHeterocycles>  (172) 
0

>  <NumAliphaticRings>  (172) 
0

>  <NumAromaticCarbocycles>  (172) 
1

>  <NumAromaticHeterocycles>  (172) 
0

>  <NumAromaticRings>  (172) 
1

>  <NumHAcceptors>  (172) 
2

>  <NumHDonors>  (172) 
2

>  <NumHeteroatoms>  (172) 
3

>  <NumRotatableBonds>  (172) 
1

>  <NumSaturatedCarbocycles>  (172) 
0

>  <NumSaturatedHeterocycles>  (172) 
0

>  <NumSaturatedRings>  (172) 
0

>  <RingCount>  (172) 
1

>  <MolLogP>  (172) 
0.4911

>  <MolMR>  (172) 
36.6247

>  <fr_Al_COO>  (172) 
0

>  <fr_Al_OH>  (172) 
0

>  <fr_Al_OH_noTert>  (172) 
0

>  <fr_ArN>  (172) 
0

>  <fr_Ar_COO>  (172) 
0

>  <fr_Ar_N>  (172) 
0

>  <fr_Ar_NH>  (172) 
0

>  <fr_Ar_OH>  (172) 
1

>  <fr_COO>  (172) 
0

>  <fr_COO2>  (172) 
0

>  <fr_C_O>  (172) 
1

>  <fr_C_O_noCOO>  (172) 
1

>  <fr_C_S>  (172) 
0

>  <fr_HOCCN>  (172) 
0

>  <fr_Imine>  (172) 
0

>  <fr_NH0>  (172) 
0

>  <fr_NH1>  (172) 
0

>  <fr_NH2>  (172) 
1

>  <fr_N_O>  (172) 
0

>  <fr_Ndealkylation1>  (172) 
0

>  <fr_Ndealkylation2>  (172) 
0

>  <fr_Nhpyrrole>  (172) 
0

>  <fr_SH>  (172) 
0

>  <fr_aldehyde>  (172) 
0

>  <fr_alkyl_carbamate>  (172) 
0

>  <fr_alkyl_halide>  (172) 
0

>  <fr_allylic_oxid>  (172) 
0

>  <fr_amide>  (172) 
1

>  <fr_amidine>  (172) 
0

>  <fr_aniline>  (172) 
0

>  <fr_aryl_methyl>  (172) 
0

>  <fr_azide>  (172) 
0

>  <fr_azo>  (172) 
0

>  <fr_barbitur>  (172) 
0

>  <fr_benzene>  (172) 
1

>  <fr_benzodiazepine>  (172) 
0

>  <fr_bicyclic>  (172) 
0

>  <fr_diazo>  (172) 
0

>  <fr_dihydropyridine>  (172) 
0

>  <fr_epoxide>  (172) 
0

>  <fr_ester>  (172) 
0

>  <fr_ether>  (172) 
0

>  <fr_furan>  (172) 
0

>  <fr_guanido>  (172) 
0

>  <fr_halogen>  (172) 
0

>  <fr_hdrzine>  (172) 
0

>  <fr_hdrzone>  (172) 
0

>  <fr_imidazole>  (172) 
0

>  <fr_imide>  (172) 
0

>  <fr_isocyan>  (172) 
0

>  <fr_isothiocyan>  (172) 
0

>  <fr_ketone>  (172) 
0

>  <fr_ketone_Topliss>  (172) 
0

>  <fr_lactam>  (172) 
0

>  <fr_lactone>  (172) 
0

>  <fr_methoxy>  (172) 
0

>  <fr_morpholine>  (172) 
0

>  <fr_nitrile>  (172) 
0

>  <fr_nitro>  (172) 
0

>  <fr_nitro_arom>  (172) 
0

>  <fr_nitro_arom_nonortho>  (172) 
0

>  <fr_nitroso>  (172) 
0

>  <fr_oxazole>  (172) 
0

>  <fr_oxime>  (172) 
0

>  <fr_para_hydroxylation>  (172) 
0

>  <fr_phenol>  (172) 
1

>  <fr_phenol_noOrthoHbond>  (172) 
1

>  <fr_phos_acid>  (172) 
0

>  <fr_phos_ester>  (172) 
0

>  <fr_piperdine>  (172) 
0

>  <fr_piperzine>  (172) 
0

>  <fr_priamide>  (172) 
1

>  <fr_prisulfonamd>  (172) 
0

>  <fr_pyridine>  (172) 
0

>  <fr_quatN>  (172) 
0

>  <fr_sulfide>  (172) 
0

>  <fr_sulfonamd>  (172) 
0

>  <fr_sulfone>  (172) 
0

>  <fr_term_acetylene>  (172) 
0

>  <fr_tetrazole>  (172) 
0

>  <fr_thiazole>  (172) 
0

>  <fr_thiocyan>  (172) 
0

>  <fr_thiophene>  (172) 
0

>  <fr_unbrch_alkane>  (172) 
0

>  <fr_urea>  (172) 
0

>  <NP_Likeness>  (172) 
-0.201333

$$$$
I5G
     RDKit          3D

  0  0  0  0  0  0  0  0  0  0999 V3000
M  V30 BEGIN CTAB
M  V30 COUNTS 53 56 0 0 0
M  V30 BEGIN ATOM
M  V30 1 Cl -74.376000 -5.630000 9.580000 0
M  V30 2 Cl -70.362000 -15.088000 9.032000 0
M  V30 3 O -75.838000 -12.789000 11.359000 0
M  V30 4 O -70.582000 -13.813000 16.143000 0
M  V30 5 O -72.457000 -10.238000 10.953000 0
M  V30 6 N -70.774000 -18.873000 9.140000 0
M  V30 7 N -76.884000 -6.279000 9.710000 0
M  V30 8 N -73.409000 -12.965000 15.176000 0 CHG=1
M  V30 9 N -73.766000 -12.467000 12.193000 0
M  V30 10 C -71.311000 -9.429000 10.667000 0
M  V30 11 C -71.284000 -18.027000 9.751000 0
M  V30 12 C -77.894000 -7.121000 9.951000 0
M  V30 13 C -72.381000 -12.277000 15.950000 0
M  V30 14 C -77.691000 -8.435000 10.332000 0
M  V30 15 C -72.779000 -17.213000 11.488000 0
M  V30 16 C -73.374000 -16.170000 12.210000 0
M  V30 17 C -71.366000 -13.138000 13.934000 0
M  V30 18 C -72.087000 -14.522000 10.965000 0
M  V30 19 C -74.013000 -8.463000 10.361000 0
M  V30 20 C -76.166000 -10.203000 10.883000 0
M  V30 21 C -75.651000 -6.738000 9.858000 0
M  V30 22 C -74.835000 -12.074000 11.509000 0
M  V30 23 C -71.506000 -15.562000 10.239000 0
M  V30 24 C -71.048000 -12.716000 15.369000 0 CFG=2
M  V30 25 C -73.752000 -9.791000 10.792000 0
M  V30 26 C -72.785000 -13.735000 14.082000 0 CFG=2
M  V30 27 C -73.660000 -13.781000 12.784000 0 CFG=2
M  V30 28 C -71.860000 -16.912000 10.486000 0
M  V30 29 C -73.040000 -14.841000 11.928000 0
M  V30 30 C -76.395000 -8.897000 10.482000 0
M  V30 31 C -74.861000 -10.664000 11.023000 0
M  V30 32 C -75.336000 -8.046000 10.222000 0
M  V30 33 H -69.702700 -14.125200 15.783200 0
M  V30 34 H -74.039200 -12.291500 14.789600 0
M  V30 35 H -73.004700 -11.828000 12.303100 0
M  V30 36 H -70.479100 -9.951400 10.854100 0
M  V30 37 H -71.325500 -9.158900 9.704300 0
M  V30 38 H -71.327900 -8.611600 11.242800 0
M  V30 39 H -78.831800 -6.788200 9.852100 0
M  V30 40 H -72.441200 -12.536300 16.913900 0
M  V30 41 H -72.487200 -11.286400 15.864000 0
M  V30 42 H -78.468600 -9.041900 10.496500 0
M  V30 43 H -73.012000 -18.164200 11.690300 0
M  V30 44 H -74.038600 -16.375900 12.928200 0
M  V30 45 H -70.716200 -13.822800 13.604100 0
M  V30 46 H -71.365000 -12.352300 13.315400 0
M  V30 47 H -71.825400 -13.571400 10.797800 0
M  V30 48 H -73.259500 -7.836900 10.160400 0
M  V30 49 H -76.936200 -10.812400 11.071200 0
M  V30 50 H -70.388400 -11.964500 15.382000 0
M  V30 51 H -72.679700 -14.676100 14.403200 0
M  V30 52 H -74.578700 -14.083400 13.038100 0
M  V30 53 H -73.912800 -13.588100 15.774300 0
M  V30 END ATOM
M  V30 BEGIN BOND
M  V30 1 1 1 21
M  V30 2 1 2 23
M  V30 3 2 3 22
M  V30 4 1 4 24
M  V30 5 1 5 10
M  V30 6 1 5 25
M  V30 7 3 6 11
M  V30 8 2 7 12
M  V30 9 1 7 21
M  V30 10 1 8 13
M  V30 11 1 8 26
M  V30 12 1 9 22
M  V30 13 1 9 27
M  V30 14 1 11 28
M  V30 15 1 12 14
M  V30 16 1 13 24
M  V30 17 2 14 30
M  V30 18 2 15 16
M  V30 19 1 15 28
M  V30 20 1 16 29
M  V30 21 1 17 24
M  V30 22 1 17 26
M  V30 23 1 18 23
M  V30 24 2 18 29
M  V30 25 2 19 25
M  V30 26 1 19 32
M  V30 27 1 20 30
M  V30 28 2 20 31
M  V30 29 2 21 32
M  V30 30 1 22 31
M  V30 31 2 23 28
M  V30 32 1 25 31
M  V30 33 1 26 27
M  V30 34 1 27 29
M  V30 35 1 30 32
M  V30 36 1 4 33
M  V30 37 1 8 34
M  V30 38 1 9 35
M  V30 39 1 10 36
M  V30 40 1 10 37
M  V30 41 1 10 38
M  V30 42 1 12 39
M  V30 43 1 13 40
M  V30 44 1 13 41
M  V30 45 1 14 42
M  V30 46 1 15 43
M  V30 47 1 16 44
M  V30 48 1 17 45
M  V30 49 1 17 46
M  V30 50 1 18 47
M  V30 51 1 19 48
M  V30 52 1 20 49
M  V30 53 1 24 50 CFG=3
M  V30 54 1 26 51 CFG=1
M  V30 55 1 27 52 CFG=1
M  V30 56 1 8 53
M  V30 END BOND
M  V30 END CTAB
M  END
>  <Ligand_Instance>  (173) 
7Y1G_I5G_A_500

>  <Dataset>  (173) 
PDB

>  <PDB_ID>  (173) 
7Y1G

>  <Chain>  (173) 
A

>  <Resi>  (173) 
500

>  <Num_Resolved_Atoms>  (173) 
32

>  <Num_H_Atoms_ProtBoundConf>  (173) 
21

>  <Pocket>  (173) 
A

>  <Name>  (173) 
1-chloranyl-~{N}-[(~{S})-(3-chloranyl-4-cyano-phenyl)-[(2~{R},4~{S})-4-oxidanylpyrrolidin-2-yl]methyl]-7-methoxy-isoquinoline-6-carboxamide

>  <Num_Not_Resolved_Atoms>  (173) 
0

>  <ATP_Site>  (173) 
True

>  <Peripheral>  (173) 
False

>  <Standardized_SMILES>  (173) 
[H]O[C@@]1([H])C([H])([H])[C@]([H])([C@]([H])(C2=C([H])C([H])=C(C#N)C(Cl)=C2[H])N([H])C(=O)C2=C([H])C3=C([H])C([H])=NC(Cl)=C3C([H])=C2OC([H])([H])[H])[N+]([H])([H])C1([H])[H]

>  <2D_Mol_H>  (173) 
<rdkit.Chem.rdchem.Mol object at 0x77059d9fb8b0>

>  <MW>  (173) 
472.352

>  <HBA>  (173) 
5

>  <HBD>  (173) 
3

>  <LogP>  (173) 
2.58958

>  <NRB>  (173) 
7

>  <TPSA>  (173) 
111.85

>  <Num_Heavy_Atoms>  (173) 
32

>  <Ro5>  (173) 
[True, True, True, True, True, True]

>  <Ro5_Fulfilled>  (173) 
True

>  <Ro3>  (173) 
[False, False, True, True]

>  <Ro3_Fulfilled>  (173) 
False

>  <Fsp3>  (173) 
0.26087

>  <Fsp3_0.42>  (173) 
False

>  <Fsp3_0.45>  (173) 
False

>  <Stereogenic_Carbons>  (173) 
3

>  <C_Atoms>  (173) 
23

>  <FCStereo>  (173) 
0.130435

>  <SPS>  (173) 
603

>  <nSPS>  (173) 
18.84375

>  <PBF>  (173) 
1.408983

>  <PBF_0.6>  (173) 
True

>  <nPBF>  (173) 
0.044031

>  <nPBF_0.016>  (173) 
True

>  <PMI1>  (173) 
2833.487469

>  <PMI2>  (173) 
8575.462973

>  <PMI3>  (173) 
9427.486236

>  <NPR1>  (173) 
0.300556

>  <NPR2>  (173) 
0.909623

>  <Sum_NPR>  (173) 
1.210179

>  <Sum_NPR_1.07>  (173) 
True

>  <Sum_NPR_1.2>  (173) 
True

>  <MaxAbsEStateIndex>  (173) 
13.381581

>  <MaxEStateIndex>  (173) 
13.381581

>  <MinAbsEStateIndex>  (173) 
0.0944

>  <MinEStateIndex>  (173) 
-0.46009

>  <qed>  (173) 
0.494652

>  <MolWt>  (173) 
472.352

>  <HeavyAtomMolWt>  (173) 
451.184

>  <ExactMolWt>  (173) 
471.098522

>  <NumValenceElectrons>  (173) 
164

>  <NumRadicalElectrons>  (173) 
0

>  <MaxPartialCharge>  (173) 
0.25526

>  <MinPartialCharge>  (173) 
-0.495899

>  <MaxAbsPartialCharge>  (173) 
0.495899

>  <MinAbsPartialCharge>  (173) 
0.25526

>  <FpDensityMorgan1>  (173) 
1.34375

>  <FpDensityMorgan2>  (173) 
2.15625

>  <FpDensityMorgan3>  (173) 
2.8125

>  <BCUT2D_MWHI>  (173) 
35.496788

>  <BCUT2D_MWLOW>  (173) 
9.95522

>  <BCUT2D_CHGHI>  (173) 
2.357936

>  <BCUT2D_CHGLO>  (173) 
-2.238099

>  <BCUT2D_LOGPHI>  (173) 
2.308305

>  <BCUT2D_LOGPLOW>  (173) 
-2.88561

>  <BCUT2D_MRHI>  (173) 
6.340095

>  <BCUT2D_MRLOW>  (173) 
-0.67496

>  <AvgIpc>  (173) 
3.222151

>  <BalabanJ>  (173) 
1.715061

>  <BertzCT>  (173) 
1227.822438

>  <Chi0>  (173) 
22.827698

>  <Chi0n>  (173) 
17.179133

>  <Chi0v>  (173) 
18.690991

>  <Chi1>  (173) 
15.405417

>  <Chi1n>  (173) 
10.049825

>  <Chi1v>  (173) 
10.805754

>  <Chi2n>  (173) 
7.702394

>  <Chi2v>  (173) 
8.467607

>  <Chi3n>  (173) 
5.723108

>  <Chi3v>  (173) 
6.337007

>  <Chi4n>  (173) 
4.094672

>  <Chi4v>  (173) 
4.545919

>  <HallKierAlpha>  (173) 
-2.89

>  <Ipc>  (173) 
20408851.118487

>  <Kappa1>  (173) 
22.309163

>  <Kappa2>  (173) 
9.308799

>  <Kappa3>  (173) 
4.359612

>  <LabuteASA>  (173) 
194.471653

>  <PEOE_VSA1>  (173) 
20.476968

>  <PEOE_VSA10>  (173) 
41.704247

>  <PEOE_VSA11>  (173) 
0.0

>  <PEOE_VSA12>  (173) 
0.0

>  <PEOE_VSA13>  (173) 
5.90718

>  <PEOE_VSA14>  (173) 
0.0

>  <PEOE_VSA2>  (173) 
4.794537

>  <PEOE_VSA3>  (173) 
4.983979

>  <PEOE_VSA4>  (173) 
5.261892

>  <PEOE_VSA5>  (173) 
0.0

>  <PEOE_VSA6>  (173) 
29.268247

>  <PEOE_VSA7>  (173) 
41.281511

>  <PEOE_VSA8>  (173) 
18.003889

>  <PEOE_VSA9>  (173) 
23.259334

>  <SMR_VSA1>  (173) 
19.954716

>  <SMR_VSA10>  (173) 
39.881508

>  <SMR_VSA2>  (173) 
5.261892

>  <SMR_VSA3>  (173) 
10.300767

>  <SMR_VSA4>  (173) 
0.0

>  <SMR_VSA5>  (173) 
24.60847

>  <SMR_VSA6>  (173) 
13.654554

>  <SMR_VSA7>  (173) 
69.461144

>  <SMR_VSA8>  (173) 
0.0

>  <SMR_VSA9>  (173) 
11.818733

>  <SlogP_VSA1>  (173) 
15.37044

>  <SlogP_VSA10>  (173) 
0.0

>  <SlogP_VSA11>  (173) 
5.749512

>  <SlogP_VSA12>  (173) 
23.20188

>  <SlogP_VSA2>  (173) 
41.798047

>  <SlogP_VSA3>  (173) 
0.0

>  <SlogP_VSA4>  (173) 
11.331113

>  <SlogP_VSA5>  (173) 
33.947554

>  <SlogP_VSA6>  (173) 
42.595046

>  <SlogP_VSA7>  (173) 
10.175743

>  <SlogP_VSA8>  (173) 
10.772448

>  <SlogP_VSA9>  (173) 
0.0

>  <EState_VSA1>  (173) 
12.145807

>  <EState_VSA10>  (173) 
15.162956

>  <EState_VSA11>  (173) 
0.0

>  <EState_VSA2>  (173) 
11.949021

>  <EState_VSA3>  (173) 
45.40396

>  <EState_VSA4>  (173) 
10.949676

>  <EState_VSA5>  (173) 
7.109798

>  <EState_VSA6>  (173) 
42.595046

>  <EState_VSA7>  (173) 
11.38601

>  <EState_VSA8>  (173) 
10.300767

>  <EState_VSA9>  (173) 
27.938743

>  <VSA_EState1>  (173) 
5.456578

>  <VSA_EState10>  (173) 
12.448243

>  <VSA_EState2>  (173) 
17.454705

>  <VSA_EState3>  (173) 
26.409077

>  <VSA_EState4>  (173) 
1.465621

>  <VSA_EState5>  (173) 
0.036022

>  <VSA_EState6>  (173) 
11.786079

>  <VSA_EState7>  (173) 
1.631135

>  <VSA_EState8>  (173) 
0.547463

>  <VSA_EState9>  (173) 
1.487298

>  <FractionCSP3>  (173) 
0.26087

>  <HeavyAtomCount>  (173) 
32

>  <NHOHCount>  (173) 
4

>  <NOCount>  (173) 
7

>  <NumAliphaticCarbocycles>  (173) 
0

>  <NumAliphaticHeterocycles>  (173) 
1

>  <NumAliphaticRings>  (173) 
1

>  <NumAromaticCarbocycles>  (173) 
2

>  <NumAromaticHeterocycles>  (173) 
1

>  <NumAromaticRings>  (173) 
3

>  <NumHAcceptors>  (173) 
5

>  <NumHDonors>  (173) 
3

>  <NumHeteroatoms>  (173) 
9

>  <NumRotatableBonds>  (173) 
5

>  <NumSaturatedCarbocycles>  (173) 
0

>  <NumSaturatedHeterocycles>  (173) 
1

>  <NumSaturatedRings>  (173) 
1

>  <RingCount>  (173) 
4

>  <MolLogP>  (173) 
2.58958

>  <MolMR>  (173) 
120.8834

>  <fr_Al_COO>  (173) 
0

>  <fr_Al_OH>  (173) 
1

>  <fr_Al_OH_noTert>  (173) 
1

>  <fr_ArN>  (173) 
0

>  <fr_Ar_COO>  (173) 
0

>  <fr_Ar_N>  (173) 
1

>  <fr_Ar_NH>  (173) 
0

>  <fr_Ar_OH>  (173) 
0

>  <fr_COO>  (173) 
0

>  <fr_COO2>  (173) 
0

>  <fr_C_O>  (173) 
1

>  <fr_C_O_noCOO>  (173) 
1

>  <fr_C_S>  (173) 
0

>  <fr_HOCCN>  (173) 
0

>  <fr_Imine>  (173) 
0

>  <fr_NH0>  (173) 
2

>  <fr_NH1>  (173) 
1

>  <fr_NH2>  (173) 
1

>  <fr_N_O>  (173) 
0

>  <fr_Ndealkylation1>  (173) 
0

>  <fr_Ndealkylation2>  (173) 
0

>  <fr_Nhpyrrole>  (173) 
0

>  <fr_SH>  (173) 
0

>  <fr_aldehyde>  (173) 
0

>  <fr_alkyl_carbamate>  (173) 
0

>  <fr_alkyl_halide>  (173) 
0

>  <fr_allylic_oxid>  (173) 
0

>  <fr_amide>  (173) 
1

>  <fr_amidine>  (173) 
0

>  <fr_aniline>  (173) 
0

>  <fr_aryl_methyl>  (173) 
0

>  <fr_azide>  (173) 
0

>  <fr_azo>  (173) 
0

>  <fr_barbitur>  (173) 
0

>  <fr_benzene>  (173) 
2

>  <fr_benzodiazepine>  (173) 
0

>  <fr_bicyclic>  (173) 
1

>  <fr_diazo>  (173) 
0

>  <fr_dihydropyridine>  (173) 
0

>  <fr_epoxide>  (173) 
0

>  <fr_ester>  (173) 
0

>  <fr_ether>  (173) 
1

>  <fr_furan>  (173) 
0

>  <fr_guanido>  (173) 
0

>  <fr_halogen>  (173) 
2

>  <fr_hdrzine>  (173) 
0

>  <fr_hdrzone>  (173) 
0

>  <fr_imidazole>  (173) 
0

>  <fr_imide>  (173) 
0

>  <fr_isocyan>  (173) 
0

>  <fr_isothiocyan>  (173) 
0

>  <fr_ketone>  (173) 
0

>  <fr_ketone_Topliss>  (173) 
0

>  <fr_lactam>  (173) 
0

>  <fr_lactone>  (173) 
0

>  <fr_methoxy>  (173) 
1

>  <fr_morpholine>  (173) 
0

>  <fr_nitrile>  (173) 
1

>  <fr_nitro>  (173) 
0

>  <fr_nitro_arom>  (173) 
0

>  <fr_nitro_arom_nonortho>  (173) 
0

>  <fr_nitroso>  (173) 
0

>  <fr_oxazole>  (173) 
0

>  <fr_oxime>  (173) 
0

>  <fr_para_hydroxylation>  (173) 
0

>  <fr_phenol>  (173) 
0

>  <fr_phenol_noOrthoHbond>  (173) 
0

>  <fr_phos_acid>  (173) 
0

>  <fr_phos_ester>  (173) 
0

>  <fr_piperdine>  (173) 
0

>  <fr_piperzine>  (173) 
0

>  <fr_priamide>  (173) 
0

>  <fr_prisulfonamd>  (173) 
0

>  <fr_pyridine>  (173) 
1

>  <fr_quatN>  (173) 
1

>  <fr_sulfide>  (173) 
0

>  <fr_sulfonamd>  (173) 
0

>  <fr_sulfone>  (173) 
0

>  <fr_term_acetylene>  (173) 
0

>  <fr_tetrazole>  (173) 
0

>  <fr_thiazole>  (173) 
0

>  <fr_thiocyan>  (173) 
0

>  <fr_thiophene>  (173) 
0

>  <fr_unbrch_alkane>  (173) 
0

>  <fr_urea>  (173) 
0

>  <NP_Likeness>  (173) 
-0.873893

$$$$
I5G
     RDKit          3D

  0  0  0  0  0  0  0  0  0  0999 V3000
M  V30 BEGIN CTAB
M  V30 COUNTS 53 56 0 0 0
M  V30 BEGIN ATOM
M  V30 1 Cl -47.859000 -4.961000 42.569000 0
M  V30 2 Cl -51.862000 -13.914000 43.901000 0
M  V30 3 O -47.255000 -12.323000 40.918000 0
M  V30 4 O -52.869000 -13.357000 36.660000 0
M  V30 5 O -50.111000 -9.562000 41.744000 0
M  V30 6 N -51.924000 -17.737000 43.823000 0
M  V30 7 N -45.355000 -5.596000 41.870000 0
M  V30 8 N -49.929000 -12.197000 37.166000 0 CHG=1
M  V30 9 N -49.147000 -11.638000 39.976000 0
M  V30 10 C -51.160000 -8.732000 42.266000 0
M  V30 11 C -51.511000 -16.897000 43.117000 0
M  V30 12 C -44.444000 -6.462000 41.412000 0
M  V30 13 C -51.061000 -12.036000 36.251000 0
M  V30 14 C -44.749000 -7.802000 41.095000 0
M  V30 15 C -50.349000 -16.292000 41.034000 0
M  V30 16 C -49.859000 -15.319000 40.173000 0
M  V30 17 C -51.799000 -12.275000 38.541000 0
M  V30 18 C -50.596000 -13.505000 41.632000 0
M  V30 19 C -48.397000 -7.773000 41.862000 0
M  V30 20 C -46.436000 -9.584000 40.931000 0
M  V30 21 C -46.624000 -6.059000 42.025000 0
M  V30 22 C -48.050000 -11.416000 40.678000 0
M  V30 23 C -51.096000 -14.493000 42.489000 0
M  V30 24 C -52.313000 -12.155000 37.097000 0 CFG=2
M  V30 25 C -48.803000 -9.110000 41.568000 0
M  V30 26 C -50.442000 -12.950000 38.302000 0 CFG=2
M  V30 27 C -49.435000 -12.970000 39.472000 0 CFG=2
M  V30 28 C -50.979000 -15.876000 42.216000 0
M  V30 29 C -49.966000 -13.952000 40.476000 0
M  V30 30 C -46.059000 -8.266000 41.246000 0
M  V30 31 C -47.793000 -10.004000 41.094000 0
M  V30 32 C -47.040000 -7.372000 41.721000 0
M  V30 33 H -53.715000 -13.535100 37.162600 0
M  V30 34 H -49.592000 -11.303800 37.463700 0
M  V30 35 H -49.781000 -10.887100 39.791000 0
M  V30 36 H -52.010600 -9.256200 42.306900 0
M  V30 37 H -50.914400 -8.422800 43.184800 0
M  V30 38 H -51.285500 -7.939000 41.669900 0
M  V30 39 H -43.503700 -6.144700 41.288800 0
M  V30 40 H -51.045900 -12.751500 35.552500 0
M  V30 41 H -51.025000 -11.139100 35.810300 0
M  V30 42 H -44.032600 -8.416400 40.764300 0
M  V30 43 H -50.255200 -17.263700 40.817000 0
M  V30 44 H -49.420400 -15.597800 39.318600 0
M  V30 45 H -52.400900 -12.844700 39.100600 0
M  V30 46 H -51.694300 -11.378200 38.971000 0
M  V30 47 H -50.687100 -12.531100 41.840000 0
M  V30 48 H -49.077200 -7.108600 42.171700 0
M  V30 49 H -45.752200 -10.229900 40.591700 0
M  V30 50 H -52.932700 -11.379800 36.974600 0
M  V30 51 H -50.604900 -13.892200 38.009100 0
M  V30 52 H -48.577800 -13.343700 39.117800 0
M  V30 53 H -49.189200 -12.700600 36.719700 0
M  V30 END ATOM
M  V30 BEGIN BOND
M  V30 1 1 1 21
M  V30 2 1 2 23
M  V30 3 2 3 22
M  V30 4 1 4 24
M  V30 5 1 5 10
M  V30 6 1 5 25
M  V30 7 3 6 11
M  V30 8 2 7 12
M  V30 9 1 7 21
M  V30 10 1 8 13
M  V30 11 1 8 26
M  V30 12 1 9 22
M  V30 13 1 9 27
M  V30 14 1 11 28
M  V30 15 1 12 14
M  V30 16 1 13 24
M  V30 17 2 14 30
M  V30 18 2 15 16
M  V30 19 1 15 28
M  V30 20 1 16 29
M  V30 21 1 17 24
M  V30 22 1 17 26
M  V30 23 1 18 23
M  V30 24 2 18 29
M  V30 25 2 19 25
M  V30 26 1 19 32
M  V30 27 1 20 30
M  V30 28 2 20 31
M  V30 29 2 21 32
M  V30 30 1 22 31
M  V30 31 2 23 28
M  V30 32 1 25 31
M  V30 33 1 26 27
M  V30 34 1 27 29
M  V30 35 1 30 32
M  V30 36 1 4 33
M  V30 37 1 8 34
M  V30 38 1 9 35
M  V30 39 1 10 36
M  V30 40 1 10 37
M  V30 41 1 10 38
M  V30 42 1 12 39
M  V30 43 1 13 40
M  V30 44 1 13 41
M  V30 45 1 14 42
M  V30 46 1 15 43
M  V30 47 1 16 44
M  V30 48 1 17 45
M  V30 49 1 17 46
M  V30 50 1 18 47
M  V30 51 1 19 48
M  V30 52 1 20 49
M  V30 53 1 24 50 CFG=1
M  V30 54 1 26 51 CFG=3
M  V30 55 1 27 52 CFG=3
M  V30 56 1 8 53
M  V30 END BOND
M  V30 END CTAB
M  END
>  <Ligand_Instance>  (174) 
7Y1G_I5G_B_401

>  <Dataset>  (174) 
PDB

>  <PDB_ID>  (174) 
7Y1G

>  <Chain>  (174) 
B

>  <Resi>  (174) 
401

>  <Num_Resolved_Atoms>  (174) 
32

>  <Num_H_Atoms_ProtBoundConf>  (174) 
21

>  <Pocket>  (174) 
A

>  <Name>  (174) 
1-chloranyl-~{N}-[(~{S})-(3-chloranyl-4-cyano-phenyl)-[(2~{R},4~{S})-4-oxidanylpyrrolidin-2-yl]methyl]-7-methoxy-isoquinoline-6-carboxamide

>  <Num_Not_Resolved_Atoms>  (174) 
0

>  <ATP_Site>  (174) 
True

>  <Peripheral>  (174) 
False

>  <Standardized_SMILES>  (174) 
[H]O[C@@]1([H])C([H])([H])[C@]([H])([C@]([H])(C2=C([H])C([H])=C(C#N)C(Cl)=C2[H])N([H])C(=O)C2=C([H])C3=C([H])C([H])=NC(Cl)=C3C([H])=C2OC([H])([H])[H])[N+]([H])([H])C1([H])[H]

>  <2D_Mol_H>  (174) 
<rdkit.Chem.rdchem.Mol object at 0x77059d9fb990>

>  <MW>  (174) 
472.352

>  <HBA>  (174) 
5

>  <HBD>  (174) 
3

>  <LogP>  (174) 
2.58958

>  <NRB>  (174) 
7

>  <TPSA>  (174) 
111.85

>  <Num_Heavy_Atoms>  (174) 
32

>  <Ro5>  (174) 
[True, True, True, True, True, True]

>  <Ro5_Fulfilled>  (174) 
True

>  <Ro3>  (174) 
[False, False, True, True]

>  <Ro3_Fulfilled>  (174) 
False

>  <Fsp3>  (174) 
0.26087

>  <Fsp3_0.42>  (174) 
False

>  <Fsp3_0.45>  (174) 
False

>  <Stereogenic_Carbons>  (174) 
3

>  <C_Atoms>  (174) 
23

>  <FCStereo>  (174) 
0.130435

>  <SPS>  (174) 
603

>  <nSPS>  (174) 
18.84375

>  <PBF>  (174) 
1.364004

>  <PBF_0.6>  (174) 
True

>  <nPBF>  (174) 
0.042625

>  <nPBF_0.016>  (174) 
True

>  <PMI1>  (174) 
2898.074556

>  <PMI2>  (174) 
8366.37349

>  <PMI3>  (174) 
9425.535182

>  <NPR1>  (174) 
0.307471

>  <NPR2>  (174) 
0.887628

>  <Sum_NPR>  (174) 
1.195099

>  <Sum_NPR_1.07>  (174) 
True

>  <Sum_NPR_1.2>  (174) 
False

>  <MaxAbsEStateIndex>  (174) 
13.381581

>  <MaxEStateIndex>  (174) 
13.381581

>  <MinAbsEStateIndex>  (174) 
0.0944

>  <MinEStateIndex>  (174) 
-0.46009

>  <qed>  (174) 
0.494652

>  <MolWt>  (174) 
472.352

>  <HeavyAtomMolWt>  (174) 
451.184

>  <ExactMolWt>  (174) 
471.098522

>  <NumValenceElectrons>  (174) 
164

>  <NumRadicalElectrons>  (174) 
0

>  <MaxPartialCharge>  (174) 
0.25526

>  <MinPartialCharge>  (174) 
-0.495899

>  <MaxAbsPartialCharge>  (174) 
0.495899

>  <MinAbsPartialCharge>  (174) 
0.25526

>  <FpDensityMorgan1>  (174) 
1.34375

>  <FpDensityMorgan2>  (174) 
2.15625

>  <FpDensityMorgan3>  (174) 
2.8125

>  <BCUT2D_MWHI>  (174) 
35.496788

>  <BCUT2D_MWLOW>  (174) 
9.95522

>  <BCUT2D_CHGHI>  (174) 
2.357936

>  <BCUT2D_CHGLO>  (174) 
-2.238099

>  <BCUT2D_LOGPHI>  (174) 
2.308305

>  <BCUT2D_LOGPLOW>  (174) 
-2.88561

>  <BCUT2D_MRHI>  (174) 
6.340095

>  <BCUT2D_MRLOW>  (174) 
-0.67496

>  <AvgIpc>  (174) 
3.222151

>  <BalabanJ>  (174) 
1.715061

>  <BertzCT>  (174) 
1227.822438

>  <Chi0>  (174) 
22.827698

>  <Chi0n>  (174) 
17.179133

>  <Chi0v>  (174) 
18.690991

>  <Chi1>  (174) 
15.405417

>  <Chi1n>  (174) 
10.049825

>  <Chi1v>  (174) 
10.805754

>  <Chi2n>  (174) 
7.702394

>  <Chi2v>  (174) 
8.467607

>  <Chi3n>  (174) 
5.723108

>  <Chi3v>  (174) 
6.337007

>  <Chi4n>  (174) 
4.094672

>  <Chi4v>  (174) 
4.545919

>  <HallKierAlpha>  (174) 
-2.89

>  <Ipc>  (174) 
20408851.118487

>  <Kappa1>  (174) 
22.309163

>  <Kappa2>  (174) 
9.308799

>  <Kappa3>  (174) 
4.359612

>  <LabuteASA>  (174) 
194.471653

>  <PEOE_VSA1>  (174) 
20.476968

>  <PEOE_VSA10>  (174) 
41.704247

>  <PEOE_VSA11>  (174) 
0.0

>  <PEOE_VSA12>  (174) 
0.0

>  <PEOE_VSA13>  (174) 
5.90718

>  <PEOE_VSA14>  (174) 
0.0

>  <PEOE_VSA2>  (174) 
4.794537

>  <PEOE_VSA3>  (174) 
4.983979

>  <PEOE_VSA4>  (174) 
5.261892

>  <PEOE_VSA5>  (174) 
0.0

>  <PEOE_VSA6>  (174) 
29.268247

>  <PEOE_VSA7>  (174) 
41.281511

>  <PEOE_VSA8>  (174) 
18.003889

>  <PEOE_VSA9>  (174) 
23.259334

>  <SMR_VSA1>  (174) 
19.954716

>  <SMR_VSA10>  (174) 
39.881508

>  <SMR_VSA2>  (174) 
5.261892

>  <SMR_VSA3>  (174) 
10.300767

>  <SMR_VSA4>  (174) 
0.0

>  <SMR_VSA5>  (174) 
24.60847

>  <SMR_VSA6>  (174) 
13.654554

>  <SMR_VSA7>  (174) 
69.461144

>  <SMR_VSA8>  (174) 
0.0

>  <SMR_VSA9>  (174) 
11.818733

>  <SlogP_VSA1>  (174) 
15.37044

>  <SlogP_VSA10>  (174) 
0.0

>  <SlogP_VSA11>  (174) 
5.749512

>  <SlogP_VSA12>  (174) 
23.20188

>  <SlogP_VSA2>  (174) 
41.798047

>  <SlogP_VSA3>  (174) 
0.0

>  <SlogP_VSA4>  (174) 
11.331113

>  <SlogP_VSA5>  (174) 
33.947554

>  <SlogP_VSA6>  (174) 
42.595046

>  <SlogP_VSA7>  (174) 
10.175743

>  <SlogP_VSA8>  (174) 
10.772448

>  <SlogP_VSA9>  (174) 
0.0

>  <EState_VSA1>  (174) 
12.145807

>  <EState_VSA10>  (174) 
15.162956

>  <EState_VSA11>  (174) 
0.0

>  <EState_VSA2>  (174) 
11.949021

>  <EState_VSA3>  (174) 
45.40396

>  <EState_VSA4>  (174) 
10.949676

>  <EState_VSA5>  (174) 
7.109798

>  <EState_VSA6>  (174) 
42.595046

>  <EState_VSA7>  (174) 
11.38601

>  <EState_VSA8>  (174) 
10.300767

>  <EState_VSA9>  (174) 
27.938743

>  <VSA_EState1>  (174) 
5.456578

>  <VSA_EState10>  (174) 
12.448243

>  <VSA_EState2>  (174) 
17.454705

>  <VSA_EState3>  (174) 
26.409077

>  <VSA_EState4>  (174) 
1.465621

>  <VSA_EState5>  (174) 
0.036022

>  <VSA_EState6>  (174) 
11.786079

>  <VSA_EState7>  (174) 
1.631135

>  <VSA_EState8>  (174) 
0.547463

>  <VSA_EState9>  (174) 
1.487298

>  <FractionCSP3>  (174) 
0.26087

>  <HeavyAtomCount>  (174) 
32

>  <NHOHCount>  (174) 
4

>  <NOCount>  (174) 
7

>  <NumAliphaticCarbocycles>  (174) 
0

>  <NumAliphaticHeterocycles>  (174) 
1

>  <NumAliphaticRings>  (174) 
1

>  <NumAromaticCarbocycles>  (174) 
2

>  <NumAromaticHeterocycles>  (174) 
1

>  <NumAromaticRings>  (174) 
3

>  <NumHAcceptors>  (174) 
5

>  <NumHDonors>  (174) 
3

>  <NumHeteroatoms>  (174) 
9

>  <NumRotatableBonds>  (174) 
5

>  <NumSaturatedCarbocycles>  (174) 
0

>  <NumSaturatedHeterocycles>  (174) 
1

>  <NumSaturatedRings>  (174) 
1

>  <RingCount>  (174) 
4

>  <MolLogP>  (174) 
2.58958

>  <MolMR>  (174) 
120.8834

>  <fr_Al_COO>  (174) 
0

>  <fr_Al_OH>  (174) 
1

>  <fr_Al_OH_noTert>  (174) 
1

>  <fr_ArN>  (174) 
0

>  <fr_Ar_COO>  (174) 
0

>  <fr_Ar_N>  (174) 
1

>  <fr_Ar_NH>  (174) 
0

>  <fr_Ar_OH>  (174) 
0

>  <fr_COO>  (174) 
0

>  <fr_COO2>  (174) 
0

>  <fr_C_O>  (174) 
1

>  <fr_C_O_noCOO>  (174) 
1

>  <fr_C_S>  (174) 
0

>  <fr_HOCCN>  (174) 
0

>  <fr_Imine>  (174) 
0

>  <fr_NH0>  (174) 
2

>  <fr_NH1>  (174) 
1

>  <fr_NH2>  (174) 
1

>  <fr_N_O>  (174) 
0

>  <fr_Ndealkylation1>  (174) 
0

>  <fr_Ndealkylation2>  (174) 
0

>  <fr_Nhpyrrole>  (174) 
0

>  <fr_SH>  (174) 
0

>  <fr_aldehyde>  (174) 
0

>  <fr_alkyl_carbamate>  (174) 
0

>  <fr_alkyl_halide>  (174) 
0

>  <fr_allylic_oxid>  (174) 
0

>  <fr_amide>  (174) 
1

>  <fr_amidine>  (174) 
0

>  <fr_aniline>  (174) 
0

>  <fr_aryl_methyl>  (174) 
0

>  <fr_azide>  (174) 
0

>  <fr_azo>  (174) 
0

>  <fr_barbitur>  (174) 
0

>  <fr_benzene>  (174) 
2

>  <fr_benzodiazepine>  (174) 
0

>  <fr_bicyclic>  (174) 
1

>  <fr_diazo>  (174) 
0

>  <fr_dihydropyridine>  (174) 
0

>  <fr_epoxide>  (174) 
0

>  <fr_ester>  (174) 
0

>  <fr_ether>  (174) 
1

>  <fr_furan>  (174) 
0

>  <fr_guanido>  (174) 
0

>  <fr_halogen>  (174) 
2

>  <fr_hdrzine>  (174) 
0

>  <fr_hdrzone>  (174) 
0

>  <fr_imidazole>  (174) 
0

>  <fr_imide>  (174) 
0

>  <fr_isocyan>  (174) 
0

>  <fr_isothiocyan>  (174) 
0

>  <fr_ketone>  (174) 
0

>  <fr_ketone_Topliss>  (174) 
0

>  <fr_lactam>  (174) 
0

>  <fr_lactone>  (174) 
0

>  <fr_methoxy>  (174) 
1

>  <fr_morpholine>  (174) 
0

>  <fr_nitrile>  (174) 
1

>  <fr_nitro>  (174) 
0

>  <fr_nitro_arom>  (174) 
0

>  <fr_nitro_arom_nonortho>  (174) 
0

>  <fr_nitroso>  (174) 
0

>  <fr_oxazole>  (174) 
0

>  <fr_oxime>  (174) 
0

>  <fr_para_hydroxylation>  (174) 
0

>  <fr_phenol>  (174) 
0

>  <fr_phenol_noOrthoHbond>  (174) 
0

>  <fr_phos_acid>  (174) 
0

>  <fr_phos_ester>  (174) 
0

>  <fr_piperdine>  (174) 
0

>  <fr_piperzine>  (174) 
0

>  <fr_priamide>  (174) 
0

>  <fr_prisulfonamd>  (174) 
0

>  <fr_pyridine>  (174) 
1

>  <fr_quatN>  (174) 
1

>  <fr_sulfide>  (174) 
0

>  <fr_sulfonamd>  (174) 
0

>  <fr_sulfone>  (174) 
0

>  <fr_term_acetylene>  (174) 
0

>  <fr_tetrazole>  (174) 
0

>  <fr_thiazole>  (174) 
0

>  <fr_thiocyan>  (174) 
0

>  <fr_thiophene>  (174) 
0

>  <fr_unbrch_alkane>  (174) 
0

>  <fr_urea>  (174) 
0

>  <NP_Likeness>  (174) 
-0.873893

$$$$
I5S
     RDKit          3D

  0  0  0  0  0  0  0  0  0  0999 V3000
M  V30 BEGIN CTAB
M  V30 COUNTS 51 53 0 0 0
M  V30 BEGIN ATOM
M  V30 1 Cl 13.231000 14.597000 -0.226000 0
M  V30 2 S 8.833000 10.526000 3.698000 0
M  V30 3 O 8.697000 11.380000 4.817000 0
M  V30 4 O 9.854000 10.737000 2.746000 0
M  V30 5 O 13.983000 9.034000 2.751000 0
M  V30 6 N 9.051000 9.062000 4.361000 0
M  V30 7 N 11.683000 7.323000 2.847000 0 CHG=1
M  V30 8 N 3.629000 10.170000 4.812000 0
M  V30 9 C 14.299000 7.697000 3.198000 0
M  V30 10 C 14.832000 10.116000 3.314000 0
M  V30 11 C 13.010000 6.791000 3.355000 0
M  V30 12 C 9.555000 8.025000 3.514000 0
M  V30 13 C 11.007000 7.929000 3.885000 0
M  V30 14 C 4.742000 10.304000 5.525000 0
M  V30 15 C 6.146000 10.150000 0.751000 0
M  V30 16 C 3.665000 10.083000 3.486000 0
M  V30 17 C 7.318000 10.284000 1.477000 0
M  V30 18 C 5.980000 10.392000 4.946000 0
M  V30 19 C 13.056000 13.147000 1.991000 0
M  V30 20 C 14.701000 12.464000 0.353000 0
M  V30 21 C 4.944000 10.072000 1.388000 0
M  V30 22 C 13.440000 12.109000 2.811000 0
M  V30 23 C 15.088000 11.422000 1.180000 0
M  V30 24 C 13.697000 13.309000 0.780000 0
M  V30 25 C 7.316000 10.378000 2.845000 0
M  V30 26 C 14.457000 11.271000 2.413000 0
M  V30 27 C 4.897000 10.148000 2.796000 0
M  V30 28 C 6.096000 10.320000 3.537000 0
M  V30 29 H 8.166300 8.757700 4.714000 0
M  V30 30 H 11.135500 6.567100 2.488100 0
M  V30 31 H 14.760100 7.755300 4.083400 0
M  V30 32 H 14.910800 7.271800 2.530900 0
M  V30 33 H 15.804600 9.894900 3.242800 0
M  V30 34 H 14.602000 10.304700 4.268700 0
M  V30 35 H 13.190000 5.935400 2.869600 0
M  V30 36 H 12.898400 6.603500 4.330900 0
M  V30 37 H 9.449500 8.270100 2.550300 0
M  V30 38 H 9.084600 7.160600 3.691500 0
M  V30 39 H 11.377200 8.845000 4.039800 0
M  V30 40 H 11.107500 7.383800 4.717300 0
M  V30 41 H 4.673200 10.342000 6.521900 0
M  V30 42 H 6.182300 10.110200 -0.247600 0
M  V30 43 H 2.814100 9.970700 2.972800 0
M  V30 44 H 8.190600 10.313000 0.989500 0
M  V30 45 H 6.795200 10.506200 5.513800 0
M  V30 46 H 12.326000 13.771700 2.268300 0
M  V30 47 H 15.140100 12.600900 -0.534900 0
M  V30 48 H 4.101200 9.961700 0.861200 0
M  V30 49 H 12.983400 11.965200 3.689000 0
M  V30 50 H 15.808300 10.788800 0.896700 0
M  V30 51 H 11.846800 7.990300 2.120400 0
M  V30 END ATOM
M  V30 BEGIN BOND
M  V30 1 1 1 24
M  V30 2 2 2 3
M  V30 3 2 2 4
M  V30 4 1 2 6
M  V30 5 1 2 25
M  V30 6 1 5 9
M  V30 7 1 5 10
M  V30 8 1 6 12
M  V30 9 1 7 11
M  V30 10 1 7 13
M  V30 11 2 8 14
M  V30 12 1 8 16
M  V30 13 1 9 11
M  V30 14 1 10 26
M  V30 15 1 12 13
M  V30 16 1 14 18
M  V30 17 1 15 17
M  V30 18 2 15 21
M  V30 19 2 16 27
M  V30 20 2 17 25
M  V30 21 2 18 28
M  V30 22 2 19 22
M  V30 23 1 19 24
M  V30 24 1 20 23
M  V30 25 2 20 24
M  V30 26 1 21 27
M  V30 27 1 22 26
M  V30 28 2 23 26
M  V30 29 1 25 28
M  V30 30 1 27 28
M  V30 31 1 6 29
M  V30 32 1 7 30
M  V30 33 1 9 31
M  V30 34 1 9 32
M  V30 35 1 10 33
M  V30 36 1 10 34
M  V30 37 1 11 35
M  V30 38 1 11 36
M  V30 39 1 12 37
M  V30 40 1 12 38
M  V30 41 1 13 39
M  V30 42 1 13 40
M  V30 43 1 14 41
M  V30 44 1 15 42
M  V30 45 1 16 43
M  V30 46 1 17 44
M  V30 47 1 18 45
M  V30 48 1 19 46
M  V30 49 1 20 47
M  V30 50 1 21 48
M  V30 51 1 22 49
M  V30 52 1 23 50
M  V30 53 1 7 51
M  V30 END BOND
M  V30 END CTAB
M  END
>  <Ligand_Instance>  (175) 
2JDT_I5S_A_1351

>  <Dataset>  (175) 
PDB

>  <PDB_ID>  (175) 
2JDT

>  <Chain>  (175) 
A

>  <Resi>  (175) 
1351

>  <Num_Resolved_Atoms>  (175) 
28

>  <Num_H_Atoms_ProtBoundConf>  (175) 
23

>  <Pocket>  (175) 
A

>  <Name>  (175) 
ISOQUINOLINE-5-SULFONIC ACID (2-(2-(4-CHLOROBENZYLOXY)ETHYLAMINO)ETHYL)AMIDE

>  <Num_Not_Resolved_Atoms>  (175) 
0

>  <ATP_Site>  (175) 
True

>  <Peripheral>  (175) 
False

>  <Standardized_SMILES>  (175) 
[H]C1=NC([H])=C2C([H])=C([H])C([H])=C(S(=O)(=O)N([H])C([H])([H])C([H])([H])[N+]([H])([H])C([H])([H])C([H])([H])OC([H])([H])C3=C([H])C([H])=C(Cl)C([H])=C3[H])C2=C1[H]

>  <2D_Mol_H>  (175) 
<rdkit.Chem.rdchem.Mol object at 0x77059d9fba70>

>  <MW>  (175) 
420.942

>  <HBA>  (175) 
4

>  <HBD>  (175) 
2

>  <LogP>  (175) 
1.9467

>  <NRB>  (175) 
10

>  <TPSA>  (175) 
84.9

>  <Num_Heavy_Atoms>  (175) 
28

>  <Ro5>  (175) 
[True, True, True, True, True, True]

>  <Ro5_Fulfilled>  (175) 
True

>  <Ro3>  (175) 
[False, False, True, True]

>  <Ro3_Fulfilled>  (175) 
False

>  <Fsp3>  (175) 
0.25

>  <Fsp3_0.42>  (175) 
False

>  <Fsp3_0.45>  (175) 
False

>  <Stereogenic_Carbons>  (175) 
0

>  <C_Atoms>  (175) 
20

>  <FCStereo>  (175) 
0.0

>  <SPS>  (175) 
329

>  <nSPS>  (175) 
11.75

>  <PBF>  (175) 
1.062537

>  <PBF_0.6>  (175) 
True

>  <nPBF>  (175) 
0.037948

>  <nPBF_0.016>  (175) 
True

>  <PMI1>  (175) 
2292.632088

>  <PMI2>  (175) 
6508.653101

>  <PMI3>  (175) 
7889.072924

>  <NPR1>  (175) 
0.290609

>  <NPR2>  (175) 
0.825021

>  <Sum_NPR>  (175) 
1.11563

>  <Sum_NPR_1.07>  (175) 
True

>  <Sum_NPR_1.2>  (175) 
False

>  <MaxAbsEStateIndex>  (175) 
12.582667

>  <MaxEStateIndex>  (175) 
12.582667

>  <MinAbsEStateIndex>  (175) 
0.276572

>  <MinEStateIndex>  (175) 
-3.563669

>  <qed>  (175) 
0.49078

>  <MolWt>  (175) 
420.942

>  <HeavyAtomMolWt>  (175) 
397.758

>  <ExactMolWt>  (175) 
420.114317

>  <NumValenceElectrons>  (175) 
148

>  <NumRadicalElectrons>  (175) 
0

>  <MaxPartialCharge>  (175) 
0.240888

>  <MinPartialCharge>  (175) 
-0.370926

>  <MaxAbsPartialCharge>  (175) 
0.370926

>  <MinAbsPartialCharge>  (175) 
0.240888

>  <FpDensityMorgan1>  (175) 
1.071429

>  <FpDensityMorgan2>  (175) 
1.892857

>  <FpDensityMorgan3>  (175) 
2.714286

>  <BCUT2D_MWHI>  (175) 
35.495692

>  <BCUT2D_MWLOW>  (175) 
10.168345

>  <BCUT2D_CHGHI>  (175) 
2.162155

>  <BCUT2D_CHGLO>  (175) 
-2.090125

>  <BCUT2D_LOGPHI>  (175) 
2.210181

>  <BCUT2D_LOGPLOW>  (175) 
-2.861624

>  <BCUT2D_MRHI>  (175) 
7.893366

>  <BCUT2D_MRLOW>  (175) 
-0.653971

>  <AvgIpc>  (175) 
2.705538

>  <BalabanJ>  (175) 
1.378547

>  <BertzCT>  (175) 
1005.389465

>  <Chi0>  (175) 
19.82178

>  <Chi0n>  (175) 
15.344558

>  <Chi0v>  (175) 
16.916984

>  <Chi1>  (175) 
13.56048

>  <Chi1n>  (175) 
9.023983

>  <Chi1v>  (175) 
10.885111

>  <Chi2n>  (175) 
6.295811

>  <Chi2v>  (175) 
8.467622

>  <Chi3n>  (175) 
4.219093

>  <Chi3v>  (175) 
5.990259

>  <Chi4n>  (175) 
2.781923

>  <Chi4v>  (175) 
4.183121

>  <HallKierAlpha>  (175) 
-2.03

>  <Ipc>  (175) 
2251072.61801

>  <Kappa1>  (175) 
20.697796

>  <Kappa2>  (175) 
9.951153

>  <Kappa3>  (175) 
5.732564

>  <LabuteASA>  (175) 
169.491832

>  <PEOE_VSA1>  (175) 
10.053652

>  <PEOE_VSA10>  (175) 
0.0

>  <PEOE_VSA11>  (175) 
0.0

>  <PEOE_VSA12>  (175) 
10.023291

>  <PEOE_VSA13>  (175) 
0.0

>  <PEOE_VSA14>  (175) 
0.0

>  <PEOE_VSA2>  (175) 
4.983979

>  <PEOE_VSA3>  (175) 
13.139892

>  <PEOE_VSA4>  (175) 
0.0

>  <PEOE_VSA5>  (175) 
0.0

>  <PEOE_VSA6>  (175) 
35.866408

>  <PEOE_VSA7>  (175) 
29.82892

>  <PEOE_VSA8>  (175) 
28.188769

>  <PEOE_VSA9>  (175) 
37.743517

>  <SMR_VSA1>  (175) 
18.471449

>  <SMR_VSA10>  (175) 
32.396679

>  <SMR_VSA2>  (175) 
0.0

>  <SMR_VSA3>  (175) 
9.706073

>  <SMR_VSA4>  (175) 
0.0

>  <SMR_VSA5>  (175) 
11.502365

>  <SMR_VSA6>  (175) 
26.241151

>  <SMR_VSA7>  (175) 
71.510708

>  <SMR_VSA8>  (175) 
0.0

>  <SMR_VSA9>  (175) 
0.0

>  <SlogP_VSA1>  (175) 
10.038883

>  <SlogP_VSA10>  (175) 
0.0

>  <SlogP_VSA11>  (175) 
0.0

>  <SlogP_VSA12>  (175) 
11.60094

>  <SlogP_VSA2>  (175) 
39.642927

>  <SlogP_VSA3>  (175) 
21.367036

>  <SlogP_VSA4>  (175) 
0.0

>  <SlogP_VSA5>  (175) 
5.563451

>  <SlogP_VSA6>  (175) 
65.820107

>  <SlogP_VSA7>  (175) 
5.022633

>  <SlogP_VSA8>  (175) 
10.772448

>  <SlogP_VSA9>  (175) 
0.0

>  <EState_VSA1>  (175) 
10.023291

>  <EState_VSA10>  (175) 
8.417797

>  <EState_VSA11>  (175) 
0.0

>  <EState_VSA2>  (175) 
4.895483

>  <EState_VSA3>  (175) 
36.712134

>  <EState_VSA4>  (175) 
17.494432

>  <EState_VSA5>  (175) 
0.0

>  <EState_VSA6>  (175) 
30.592788

>  <EState_VSA7>  (175) 
35.648624

>  <EState_VSA8>  (175) 
9.706073

>  <EState_VSA9>  (175) 
16.337803

>  <VSA_EState1>  (175) 
33.42771

>  <VSA_EState10>  (175) 
5.84639

>  <VSA_EState2>  (175) 
4.308745

>  <VSA_EState3>  (175) 
4.204881

>  <VSA_EState4>  (175) 
1.071711

>  <VSA_EState5>  (175) 
0.0

>  <VSA_EState6>  (175) 
14.4436

>  <VSA_EState7>  (175) 
3.255299

>  <VSA_EState8>  (175) 
2.866444

>  <VSA_EState9>  (175) 
-3.563669

>  <FractionCSP3>  (175) 
0.25

>  <HeavyAtomCount>  (175) 
28

>  <NHOHCount>  (175) 
3

>  <NOCount>  (175) 
6

>  <NumAliphaticCarbocycles>  (175) 
0

>  <NumAliphaticHeterocycles>  (175) 
0

>  <NumAliphaticRings>  (175) 
0

>  <NumAromaticCarbocycles>  (175) 
2

>  <NumAromaticHeterocycles>  (175) 
1

>  <NumAromaticRings>  (175) 
3

>  <NumHAcceptors>  (175) 
4

>  <NumHDonors>  (175) 
2

>  <NumHeteroatoms>  (175) 
8

>  <NumRotatableBonds>  (175) 
10

>  <NumSaturatedCarbocycles>  (175) 
0

>  <NumSaturatedHeterocycles>  (175) 
0

>  <NumSaturatedRings>  (175) 
0

>  <RingCount>  (175) 
3

>  <MolLogP>  (175) 
1.9467

>  <MolMR>  (175) 
109.6989

>  <fr_Al_COO>  (175) 
0

>  <fr_Al_OH>  (175) 
0

>  <fr_Al_OH_noTert>  (175) 
0

>  <fr_ArN>  (175) 
0

>  <fr_Ar_COO>  (175) 
0

>  <fr_Ar_N>  (175) 
1

>  <fr_Ar_NH>  (175) 
0

>  <fr_Ar_OH>  (175) 
0

>  <fr_COO>  (175) 
0

>  <fr_COO2>  (175) 
0

>  <fr_C_O>  (175) 
0

>  <fr_C_O_noCOO>  (175) 
0

>  <fr_C_S>  (175) 
0

>  <fr_HOCCN>  (175) 
0

>  <fr_Imine>  (175) 
0

>  <fr_NH0>  (175) 
1

>  <fr_NH1>  (175) 
1

>  <fr_NH2>  (175) 
1

>  <fr_N_O>  (175) 
0

>  <fr_Ndealkylation1>  (175) 
0

>  <fr_Ndealkylation2>  (175) 
0

>  <fr_Nhpyrrole>  (175) 
0

>  <fr_SH>  (175) 
0

>  <fr_aldehyde>  (175) 
0

>  <fr_alkyl_carbamate>  (175) 
0

>  <fr_alkyl_halide>  (175) 
0

>  <fr_allylic_oxid>  (175) 
0

>  <fr_amide>  (175) 
0

>  <fr_amidine>  (175) 
0

>  <fr_aniline>  (175) 
0

>  <fr_aryl_methyl>  (175) 
0

>  <fr_azide>  (175) 
0

>  <fr_azo>  (175) 
0

>  <fr_barbitur>  (175) 
0

>  <fr_benzene>  (175) 
2

>  <fr_benzodiazepine>  (175) 
0

>  <fr_bicyclic>  (175) 
1

>  <fr_diazo>  (175) 
0

>  <fr_dihydropyridine>  (175) 
0

>  <fr_epoxide>  (175) 
0

>  <fr_ester>  (175) 
0

>  <fr_ether>  (175) 
1

>  <fr_furan>  (175) 
0

>  <fr_guanido>  (175) 
0

>  <fr_halogen>  (175) 
1

>  <fr_hdrzine>  (175) 
0

>  <fr_hdrzone>  (175) 
0

>  <fr_imidazole>  (175) 
0

>  <fr_imide>  (175) 
0

>  <fr_isocyan>  (175) 
0

>  <fr_isothiocyan>  (175) 
0

>  <fr_ketone>  (175) 
0

>  <fr_ketone_Topliss>  (175) 
0

>  <fr_lactam>  (175) 
0

>  <fr_lactone>  (175) 
0

>  <fr_methoxy>  (175) 
0

>  <fr_morpholine>  (175) 
0

>  <fr_nitrile>  (175) 
0

>  <fr_nitro>  (175) 
0

>  <fr_nitro_arom>  (175) 
0

>  <fr_nitro_arom_nonortho>  (175) 
0

>  <fr_nitroso>  (175) 
0

>  <fr_oxazole>  (175) 
0

>  <fr_oxime>  (175) 
0

>  <fr_para_hydroxylation>  (175) 
0

>  <fr_phenol>  (175) 
0

>  <fr_phenol_noOrthoHbond>  (175) 
0

>  <fr_phos_acid>  (175) 
0

>  <fr_phos_ester>  (175) 
0

>  <fr_piperdine>  (175) 
0

>  <fr_piperzine>  (175) 
0

>  <fr_priamide>  (175) 
0

>  <fr_prisulfonamd>  (175) 
0

>  <fr_pyridine>  (175) 
1

>  <fr_quatN>  (175) 
1

>  <fr_sulfide>  (175) 
0

>  <fr_sulfonamd>  (175) 
1

>  <fr_sulfone>  (175) 
0

>  <fr_term_acetylene>  (175) 
0

>  <fr_tetrazole>  (175) 
0

>  <fr_thiazole>  (175) 
0

>  <fr_thiocyan>  (175) 
0

>  <fr_thiophene>  (175) 
0

>  <fr_unbrch_alkane>  (175) 
0

>  <fr_urea>  (175) 
0

>  <NP_Likeness>  (175) 
-1.318912

$$$$
IPH
     RDKit          3D

  0  0  0  0  0  0  0  0  0  0999 V3000
M  V30 BEGIN CTAB
M  V30 COUNTS 13 13 0 0 0
M  V30 BEGIN ATOM
M  V30 1 O 33.656000 10.340000 -3.946000 0
M  V30 2 C 29.617000 9.942000 -3.091000 0
M  V30 3 C 30.545000 9.953000 -2.037000 0
M  V30 4 C 30.040000 9.973000 -4.417000 0
M  V30 5 C 31.905000 10.078000 -2.322000 0
M  V30 6 C 31.406000 10.034000 -4.712000 0
M  V30 7 C 32.320000 10.145000 -3.657000 0
M  V30 8 H 34.319800 10.432300 -3.203800 0
M  V30 9 H 28.638700 9.911500 -2.886200 0
M  V30 10 H 30.233600 9.871900 -1.090200 0
M  V30 11 H 29.368300 9.951700 -5.157500 0
M  V30 12 H 32.575400 10.119200 -1.581200 0
M  V30 13 H 31.724100 9.999000 -5.659400 0
M  V30 END ATOM
M  V30 BEGIN BOND
M  V30 1 1 1 7
M  V30 2 2 2 3
M  V30 3 1 2 4
M  V30 4 1 3 5
M  V30 5 2 4 6
M  V30 6 2 5 7
M  V30 7 1 6 7
M  V30 8 1 1 8
M  V30 9 1 2 9
M  V30 10 1 3 10
M  V30 11 1 4 11
M  V30 12 1 5 12
M  V30 13 1 6 13
M  V30 END BOND
M  V30 END CTAB
M  END
>  <Ligand_Instance>  (176) 
3NX8_IPH_A_351

>  <Dataset>  (176) 
PDB

>  <PDB_ID>  (176) 
3NX8

>  <Chain>  (176) 
A

>  <Resi>  (176) 
351

>  <Num_Resolved_Atoms>  (176) 
7

>  <Num_H_Atoms_ProtBoundConf>  (176) 
6

>  <Pocket>  (176) 
A

>  <Name>  (176) 
PHENOL

>  <Num_Not_Resolved_Atoms>  (176) 
0

>  <ATP_Site>  (176) 
True

>  <Peripheral>  (176) 
True

>  <Standardized_SMILES>  (176) 
[H]OC1=C([H])C([H])=C([H])C([H])=C1[H]

>  <2D_Mol_H>  (176) 
<rdkit.Chem.rdchem.Mol object at 0x77059d9fbb50>

>  <MW>  (176) 
94.113

>  <HBA>  (176) 
1

>  <HBD>  (176) 
1

>  <LogP>  (176) 
1.3922

>  <NRB>  (176) 
1

>  <TPSA>  (176) 
20.23

>  <Num_Heavy_Atoms>  (176) 
7

>  <Ro5>  (176) 
[True, True, True, True, True, True]

>  <Ro5_Fulfilled>  (176) 
True

>  <Ro3>  (176) 
[True, True, True, True]

>  <Ro3_Fulfilled>  (176) 
True

>  <Fsp3>  (176) 
0.0

>  <Fsp3_0.42>  (176) 
False

>  <Fsp3_0.45>  (176) 
False

>  <Stereogenic_Carbons>  (176) 
0

>  <C_Atoms>  (176) 
6

>  <FCStereo>  (176) 
0.0

>  <SPS>  (176) 
60

>  <nSPS>  (176) 
8.571429

>  <PBF>  (176) 
0.053607

>  <PBF_0.6>  (176) 
False

>  <nPBF>  (176) 
0.007658

>  <nPBF_0.016>  (176) 
False

>  <PMI1>  (176) 
89.660068

>  <PMI2>  (176) 
192.419651

>  <PMI3>  (176) 
281.761624

>  <NPR1>  (176) 
0.318212

>  <NPR2>  (176) 
0.682916

>  <Sum_NPR>  (176) 
1.001129

>  <Sum_NPR_1.07>  (176) 
False

>  <Sum_NPR_1.2>  (176) 
False

>  <MaxAbsEStateIndex>  (176) 
8.632222

>  <MaxEStateIndex>  (176) 
8.632222

>  <MinAbsEStateIndex>  (176) 
0.321759

>  <MinEStateIndex>  (176) 
0.321759

>  <qed>  (176) 
0.51473

>  <MolWt>  (176) 
94.113

>  <HeavyAtomMolWt>  (176) 
88.065

>  <ExactMolWt>  (176) 
94.041865

>  <NumValenceElectrons>  (176) 
36

>  <NumRadicalElectrons>  (176) 
0

>  <MaxPartialCharge>  (176) 
0.115075

>  <MinPartialCharge>  (176) 
-0.507967

>  <MaxAbsPartialCharge>  (176) 
0.507967

>  <MinAbsPartialCharge>  (176) 
0.115075

>  <FpDensityMorgan1>  (176) 
1.0

>  <FpDensityMorgan2>  (176) 
1.571429

>  <FpDensityMorgan3>  (176) 
1.857143

>  <BCUT2D_MWHI>  (176) 
16.25462

>  <BCUT2D_MWLOW>  (176) 
10.346234

>  <BCUT2D_CHGHI>  (176) 
1.743219

>  <BCUT2D_CHGLO>  (176) 
-1.819354

>  <BCUT2D_LOGPHI>  (176) 
2.022574

>  <BCUT2D_LOGPLOW>  (176) 
-1.559499

>  <BCUT2D_MRHI>  (176) 
5.17974

>  <BCUT2D_MRLOW>  (176) 
0.475117

>  <AvgIpc>  (176) 
1.685616

>  <BalabanJ>  (176) 
3.021465

>  <BertzCT>  (176) 
134.10737

>  <Chi0>  (176) 
5.112884

>  <Chi0n>  (176) 
3.833965

>  <Chi0v>  (176) 
3.833965

>  <Chi1>  (176) 
3.393847

>  <Chi1n>  (176) 
2.13429

>  <Chi1v>  (176) 
2.13429

>  <Chi2n>  (176) 
1.335549

>  <Chi2v>  (176) 
1.335549

>  <Chi3n>  (176) 
0.756194

>  <Chi3v>  (176) 
0.756194

>  <Chi4n>  (176) 
0.427994

>  <Chi4v>  (176) 
0.427994

>  <HallKierAlpha>  (176) 
-0.98

>  <Ipc>  (176) 
47.197253

>  <Kappa1>  (176) 
4.186113

>  <Kappa2>  (176) 
1.646196

>  <Kappa3>  (176) 
0.929059

>  <LabuteASA>  (176) 
42.225637

>  <PEOE_VSA1>  (176) 
5.106527

>  <PEOE_VSA10>  (176) 
5.749512

>  <PEOE_VSA11>  (176) 
0.0

>  <PEOE_VSA12>  (176) 
0.0

>  <PEOE_VSA13>  (176) 
0.0

>  <PEOE_VSA14>  (176) 
0.0

>  <PEOE_VSA2>  (176) 
0.0

>  <PEOE_VSA3>  (176) 
0.0

>  <PEOE_VSA4>  (176) 
0.0

>  <PEOE_VSA5>  (176) 
0.0

>  <PEOE_VSA6>  (176) 
18.199101

>  <PEOE_VSA7>  (176) 
12.132734

>  <PEOE_VSA8>  (176) 
0.0

>  <PEOE_VSA9>  (176) 
0.0

>  <SMR_VSA1>  (176) 
5.106527

>  <SMR_VSA10>  (176) 
0.0

>  <SMR_VSA2>  (176) 
0.0

>  <SMR_VSA3>  (176) 
0.0

>  <SMR_VSA4>  (176) 
0.0

>  <SMR_VSA5>  (176) 
0.0

>  <SMR_VSA6>  (176) 
0.0

>  <SMR_VSA7>  (176) 
30.331835

>  <SMR_VSA8>  (176) 
0.0

>  <SMR_VSA9>  (176) 
5.749512

>  <SlogP_VSA1>  (176) 
0.0

>  <SlogP_VSA10>  (176) 
0.0

>  <SlogP_VSA11>  (176) 
5.749512

>  <SlogP_VSA12>  (176) 
0.0

>  <SlogP_VSA2>  (176) 
5.106527

>  <SlogP_VSA3>  (176) 
0.0

>  <SlogP_VSA4>  (176) 
0.0

>  <SlogP_VSA5>  (176) 
0.0

>  <SlogP_VSA6>  (176) 
30.331835

>  <SlogP_VSA7>  (176) 
0.0

>  <SlogP_VSA8>  (176) 
0.0

>  <SlogP_VSA9>  (176) 
0.0

>  <EState_VSA1>  (176) 
0.0

>  <EState_VSA10>  (176) 
0.0

>  <EState_VSA11>  (176) 
0.0

>  <EState_VSA2>  (176) 
0.0

>  <EState_VSA3>  (176) 
5.749512

>  <EState_VSA4>  (176) 
0.0

>  <EState_VSA5>  (176) 
0.0

>  <EState_VSA6>  (176) 
24.265468

>  <EState_VSA7>  (176) 
6.066367

>  <EState_VSA8>  (176) 
0.0

>  <EState_VSA9>  (176) 
5.106527

>  <VSA_EState1>  (176) 
0.0

>  <VSA_EState10>  (176) 
0.0

>  <VSA_EState2>  (176) 
0.0

>  <VSA_EState3>  (176) 
8.632222

>  <VSA_EState4>  (176) 
0.0

>  <VSA_EState5>  (176) 
0.321759

>  <VSA_EState6>  (176) 
8.712685

>  <VSA_EState7>  (176) 
0.0

>  <VSA_EState8>  (176) 
0.0

>  <VSA_EState9>  (176) 
0.0

>  <FractionCSP3>  (176) 
0.0

>  <HeavyAtomCount>  (176) 
7

>  <NHOHCount>  (176) 
1

>  <NOCount>  (176) 
1

>  <NumAliphaticCarbocycles>  (176) 
0

>  <NumAliphaticHeterocycles>  (176) 
0

>  <NumAliphaticRings>  (176) 
0

>  <NumAromaticCarbocycles>  (176) 
1

>  <NumAromaticHeterocycles>  (176) 
0

>  <NumAromaticRings>  (176) 
1

>  <NumHAcceptors>  (176) 
1

>  <NumHDonors>  (176) 
1

>  <NumHeteroatoms>  (176) 
1

>  <NumRotatableBonds>  (176) 
0

>  <NumSaturatedCarbocycles>  (176) 
0

>  <NumSaturatedHeterocycles>  (176) 
0

>  <NumSaturatedRings>  (176) 
0

>  <RingCount>  (176) 
1

>  <MolLogP>  (176) 
1.3922

>  <MolMR>  (176) 
28.1068

>  <fr_Al_COO>  (176) 
0

>  <fr_Al_OH>  (176) 
0

>  <fr_Al_OH_noTert>  (176) 
0

>  <fr_ArN>  (176) 
0

>  <fr_Ar_COO>  (176) 
0

>  <fr_Ar_N>  (176) 
0

>  <fr_Ar_NH>  (176) 
0

>  <fr_Ar_OH>  (176) 
1

>  <fr_COO>  (176) 
0

>  <fr_COO2>  (176) 
0

>  <fr_C_O>  (176) 
0

>  <fr_C_O_noCOO>  (176) 
0

>  <fr_C_S>  (176) 
0

>  <fr_HOCCN>  (176) 
0

>  <fr_Imine>  (176) 
0

>  <fr_NH0>  (176) 
0

>  <fr_NH1>  (176) 
0

>  <fr_NH2>  (176) 
0

>  <fr_N_O>  (176) 
0

>  <fr_Ndealkylation1>  (176) 
0

>  <fr_Ndealkylation2>  (176) 
0

>  <fr_Nhpyrrole>  (176) 
0

>  <fr_SH>  (176) 
0

>  <fr_aldehyde>  (176) 
0

>  <fr_alkyl_carbamate>  (176) 
0

>  <fr_alkyl_halide>  (176) 
0

>  <fr_allylic_oxid>  (176) 
0

>  <fr_amide>  (176) 
0

>  <fr_amidine>  (176) 
0

>  <fr_aniline>  (176) 
0

>  <fr_aryl_methyl>  (176) 
0

>  <fr_azide>  (176) 
0

>  <fr_azo>  (176) 
0

>  <fr_barbitur>  (176) 
0

>  <fr_benzene>  (176) 
1

>  <fr_benzodiazepine>  (176) 
0

>  <fr_bicyclic>  (176) 
0

>  <fr_diazo>  (176) 
0

>  <fr_dihydropyridine>  (176) 
0

>  <fr_epoxide>  (176) 
0

>  <fr_ester>  (176) 
0

>  <fr_ether>  (176) 
0

>  <fr_furan>  (176) 
0

>  <fr_guanido>  (176) 
0

>  <fr_halogen>  (176) 
0

>  <fr_hdrzine>  (176) 
0

>  <fr_hdrzone>  (176) 
0

>  <fr_imidazole>  (176) 
0

>  <fr_imide>  (176) 
0

>  <fr_isocyan>  (176) 
0

>  <fr_isothiocyan>  (176) 
0

>  <fr_ketone>  (176) 
0

>  <fr_ketone_Topliss>  (176) 
0

>  <fr_lactam>  (176) 
0

>  <fr_lactone>  (176) 
0

>  <fr_methoxy>  (176) 
0

>  <fr_morpholine>  (176) 
0

>  <fr_nitrile>  (176) 
0

>  <fr_nitro>  (176) 
0

>  <fr_nitro_arom>  (176) 
0

>  <fr_nitro_arom_nonortho>  (176) 
0

>  <fr_nitroso>  (176) 
0

>  <fr_oxazole>  (176) 
0

>  <fr_oxime>  (176) 
0

>  <fr_para_hydroxylation>  (176) 
1

>  <fr_phenol>  (176) 
1

>  <fr_phenol_noOrthoHbond>  (176) 
1

>  <fr_phos_acid>  (176) 
0

>  <fr_phos_ester>  (176) 
0

>  <fr_piperdine>  (176) 
0

>  <fr_piperzine>  (176) 
0

>  <fr_priamide>  (176) 
0

>  <fr_prisulfonamd>  (176) 
0

>  <fr_pyridine>  (176) 
0

>  <fr_quatN>  (176) 
0

>  <fr_sulfide>  (176) 
0

>  <fr_sulfonamd>  (176) 
0

>  <fr_sulfone>  (176) 
0

>  <fr_term_acetylene>  (176) 
0

>  <fr_tetrazole>  (176) 
0

>  <fr_thiazole>  (176) 
0

>  <fr_thiocyan>  (176) 
0

>  <fr_thiophene>  (176) 
0

>  <fr_unbrch_alkane>  (176) 
0

>  <fr_urea>  (176) 
0

>  <NP_Likeness>  (176) 
0.416936

$$$$
IPH
     RDKit          3D

  0  0  0  0  0  0  0  0  0  0999 V3000
M  V30 BEGIN CTAB
M  V30 COUNTS 13 13 0 0 0
M  V30 BEGIN ATOM
M  V30 1 O 26.927000 8.869000 -5.945000 0
M  V30 2 C 25.467000 8.782000 -2.055000 0
M  V30 3 C 25.770000 7.584000 -2.707000 0
M  V30 4 C 25.638000 10.015000 -2.691000 0
M  V30 5 C 26.256000 7.609000 -4.015000 0
M  V30 6 C 26.101000 10.044000 -4.008000 0
M  V30 7 C 26.424000 8.843000 -4.651000 0
M  V30 8 H 27.162700 8.014100 -6.407100 0
M  V30 9 H 25.121700 8.756900 -1.116800 0
M  V30 10 H 25.639000 6.710800 -2.237600 0
M  V30 11 H 25.431200 10.866200 -2.208500 0
M  V30 12 H 26.480500 6.758000 -4.489800 0
M  V30 13 H 26.201100 10.915500 -4.488000 0
M  V30 END ATOM
M  V30 BEGIN BOND
M  V30 1 1 1 7
M  V30 2 2 2 3
M  V30 3 1 2 4
M  V30 4 1 3 5
M  V30 5 2 4 6
M  V30 6 2 5 7
M  V30 7 1 6 7
M  V30 8 1 1 8
M  V30 9 1 2 9
M  V30 10 1 3 10
M  V30 11 1 4 11
M  V30 12 1 5 12
M  V30 13 1 6 13
M  V30 END BOND
M  V30 END CTAB
M  END
>  <Ligand_Instance>  (177) 
3NX8_IPH_A_352

>  <Dataset>  (177) 
PDB

>  <PDB_ID>  (177) 
3NX8

>  <Chain>  (177) 
A

>  <Resi>  (177) 
352

>  <Num_Resolved_Atoms>  (177) 
7

>  <Num_H_Atoms_ProtBoundConf>  (177) 
6

>  <Pocket>  (177) 
X

>  <Name>  (177) 
PHENOL

>  <Num_Not_Resolved_Atoms>  (177) 
0

>  <ATP_Site>  (177) 
True

>  <Peripheral>  (177) 
True

>  <Standardized_SMILES>  (177) 
[H]OC1=C([H])C([H])=C([H])C([H])=C1[H]

>  <2D_Mol_H>  (177) 
<rdkit.Chem.rdchem.Mol object at 0x77059d9fbc30>

>  <MW>  (177) 
94.113

>  <HBA>  (177) 
1

>  <HBD>  (177) 
1

>  <LogP>  (177) 
1.3922

>  <NRB>  (177) 
1

>  <TPSA>  (177) 
20.23

>  <Num_Heavy_Atoms>  (177) 
7

>  <Ro5>  (177) 
[True, True, True, True, True, True]

>  <Ro5_Fulfilled>  (177) 
True

>  <Ro3>  (177) 
[True, True, True, True]

>  <Ro3_Fulfilled>  (177) 
True

>  <Fsp3>  (177) 
0.0

>  <Fsp3_0.42>  (177) 
False

>  <Fsp3_0.45>  (177) 
False

>  <Stereogenic_Carbons>  (177) 
0

>  <C_Atoms>  (177) 
6

>  <FCStereo>  (177) 
0.0

>  <SPS>  (177) 
60

>  <nSPS>  (177) 
8.571429

>  <PBF>  (177) 
0.014722

>  <PBF_0.6>  (177) 
False

>  <nPBF>  (177) 
0.002103

>  <nPBF_0.016>  (177) 
False

>  <PMI1>  (177) 
89.510266

>  <PMI2>  (177) 
192.988993

>  <PMI3>  (177) 
282.473875

>  <NPR1>  (177) 
0.31688

>  <NPR2>  (177) 
0.68321

>  <Sum_NPR>  (177) 
1.00009

>  <Sum_NPR_1.07>  (177) 
False

>  <Sum_NPR_1.2>  (177) 
False

>  <MaxAbsEStateIndex>  (177) 
8.632222

>  <MaxEStateIndex>  (177) 
8.632222

>  <MinAbsEStateIndex>  (177) 
0.321759

>  <MinEStateIndex>  (177) 
0.321759

>  <qed>  (177) 
0.51473

>  <MolWt>  (177) 
94.113

>  <HeavyAtomMolWt>  (177) 
88.065

>  <ExactMolWt>  (177) 
94.041865

>  <NumValenceElectrons>  (177) 
36

>  <NumRadicalElectrons>  (177) 
0

>  <MaxPartialCharge>  (177) 
0.115075

>  <MinPartialCharge>  (177) 
-0.507967

>  <MaxAbsPartialCharge>  (177) 
0.507967

>  <MinAbsPartialCharge>  (177) 
0.115075

>  <FpDensityMorgan1>  (177) 
1.0

>  <FpDensityMorgan2>  (177) 
1.571429

>  <FpDensityMorgan3>  (177) 
1.857143

>  <BCUT2D_MWHI>  (177) 
16.25462

>  <BCUT2D_MWLOW>  (177) 
10.346234

>  <BCUT2D_CHGHI>  (177) 
1.743219

>  <BCUT2D_CHGLO>  (177) 
-1.819354

>  <BCUT2D_LOGPHI>  (177) 
2.022574

>  <BCUT2D_LOGPLOW>  (177) 
-1.559499

>  <BCUT2D_MRHI>  (177) 
5.17974

>  <BCUT2D_MRLOW>  (177) 
0.475117

>  <AvgIpc>  (177) 
1.685616

>  <BalabanJ>  (177) 
3.021465

>  <BertzCT>  (177) 
134.10737

>  <Chi0>  (177) 
5.112884

>  <Chi0n>  (177) 
3.833965

>  <Chi0v>  (177) 
3.833965

>  <Chi1>  (177) 
3.393847

>  <Chi1n>  (177) 
2.13429

>  <Chi1v>  (177) 
2.13429

>  <Chi2n>  (177) 
1.335549

>  <Chi2v>  (177) 
1.335549

>  <Chi3n>  (177) 
0.756194

>  <Chi3v>  (177) 
0.756194

>  <Chi4n>  (177) 
0.427994

>  <Chi4v>  (177) 
0.427994

>  <HallKierAlpha>  (177) 
-0.98

>  <Ipc>  (177) 
47.197253

>  <Kappa1>  (177) 
4.186113

>  <Kappa2>  (177) 
1.646196

>  <Kappa3>  (177) 
0.929059

>  <LabuteASA>  (177) 
42.225637

>  <PEOE_VSA1>  (177) 
5.106527

>  <PEOE_VSA10>  (177) 
5.749512

>  <PEOE_VSA11>  (177) 
0.0

>  <PEOE_VSA12>  (177) 
0.0

>  <PEOE_VSA13>  (177) 
0.0

>  <PEOE_VSA14>  (177) 
0.0

>  <PEOE_VSA2>  (177) 
0.0

>  <PEOE_VSA3>  (177) 
0.0

>  <PEOE_VSA4>  (177) 
0.0

>  <PEOE_VSA5>  (177) 
0.0

>  <PEOE_VSA6>  (177) 
18.199101

>  <PEOE_VSA7>  (177) 
12.132734

>  <PEOE_VSA8>  (177) 
0.0

>  <PEOE_VSA9>  (177) 
0.0

>  <SMR_VSA1>  (177) 
5.106527

>  <SMR_VSA10>  (177) 
0.0

>  <SMR_VSA2>  (177) 
0.0

>  <SMR_VSA3>  (177) 
0.0

>  <SMR_VSA4>  (177) 
0.0

>  <SMR_VSA5>  (177) 
0.0

>  <SMR_VSA6>  (177) 
0.0

>  <SMR_VSA7>  (177) 
30.331835

>  <SMR_VSA8>  (177) 
0.0

>  <SMR_VSA9>  (177) 
5.749512

>  <SlogP_VSA1>  (177) 
0.0

>  <SlogP_VSA10>  (177) 
0.0

>  <SlogP_VSA11>  (177) 
5.749512

>  <SlogP_VSA12>  (177) 
0.0

>  <SlogP_VSA2>  (177) 
5.106527

>  <SlogP_VSA3>  (177) 
0.0

>  <SlogP_VSA4>  (177) 
0.0

>  <SlogP_VSA5>  (177) 
0.0

>  <SlogP_VSA6>  (177) 
30.331835

>  <SlogP_VSA7>  (177) 
0.0

>  <SlogP_VSA8>  (177) 
0.0

>  <SlogP_VSA9>  (177) 
0.0

>  <EState_VSA1>  (177) 
0.0

>  <EState_VSA10>  (177) 
0.0

>  <EState_VSA11>  (177) 
0.0

>  <EState_VSA2>  (177) 
0.0

>  <EState_VSA3>  (177) 
5.749512

>  <EState_VSA4>  (177) 
0.0

>  <EState_VSA5>  (177) 
0.0

>  <EState_VSA6>  (177) 
24.265468

>  <EState_VSA7>  (177) 
6.066367

>  <EState_VSA8>  (177) 
0.0

>  <EState_VSA9>  (177) 
5.106527

>  <VSA_EState1>  (177) 
0.0

>  <VSA_EState10>  (177) 
0.0

>  <VSA_EState2>  (177) 
0.0

>  <VSA_EState3>  (177) 
8.632222

>  <VSA_EState4>  (177) 
0.0

>  <VSA_EState5>  (177) 
0.321759

>  <VSA_EState6>  (177) 
8.712685

>  <VSA_EState7>  (177) 
0.0

>  <VSA_EState8>  (177) 
0.0

>  <VSA_EState9>  (177) 
0.0

>  <FractionCSP3>  (177) 
0.0

>  <HeavyAtomCount>  (177) 
7

>  <NHOHCount>  (177) 
1

>  <NOCount>  (177) 
1

>  <NumAliphaticCarbocycles>  (177) 
0

>  <NumAliphaticHeterocycles>  (177) 
0

>  <NumAliphaticRings>  (177) 
0

>  <NumAromaticCarbocycles>  (177) 
1

>  <NumAromaticHeterocycles>  (177) 
0

>  <NumAromaticRings>  (177) 
1

>  <NumHAcceptors>  (177) 
1

>  <NumHDonors>  (177) 
1

>  <NumHeteroatoms>  (177) 
1

>  <NumRotatableBonds>  (177) 
0

>  <NumSaturatedCarbocycles>  (177) 
0

>  <NumSaturatedHeterocycles>  (177) 
0

>  <NumSaturatedRings>  (177) 
0

>  <RingCount>  (177) 
1

>  <MolLogP>  (177) 
1.3922

>  <MolMR>  (177) 
28.1068

>  <fr_Al_COO>  (177) 
0

>  <fr_Al_OH>  (177) 
0

>  <fr_Al_OH_noTert>  (177) 
0

>  <fr_ArN>  (177) 
0

>  <fr_Ar_COO>  (177) 
0

>  <fr_Ar_N>  (177) 
0

>  <fr_Ar_NH>  (177) 
0

>  <fr_Ar_OH>  (177) 
1

>  <fr_COO>  (177) 
0

>  <fr_COO2>  (177) 
0

>  <fr_C_O>  (177) 
0

>  <fr_C_O_noCOO>  (177) 
0

>  <fr_C_S>  (177) 
0

>  <fr_HOCCN>  (177) 
0

>  <fr_Imine>  (177) 
0

>  <fr_NH0>  (177) 
0

>  <fr_NH1>  (177) 
0

>  <fr_NH2>  (177) 
0

>  <fr_N_O>  (177) 
0

>  <fr_Ndealkylation1>  (177) 
0

>  <fr_Ndealkylation2>  (177) 
0

>  <fr_Nhpyrrole>  (177) 
0

>  <fr_SH>  (177) 
0

>  <fr_aldehyde>  (177) 
0

>  <fr_alkyl_carbamate>  (177) 
0

>  <fr_alkyl_halide>  (177) 
0

>  <fr_allylic_oxid>  (177) 
0

>  <fr_amide>  (177) 
0

>  <fr_amidine>  (177) 
0

>  <fr_aniline>  (177) 
0

>  <fr_aryl_methyl>  (177) 
0

>  <fr_azide>  (177) 
0

>  <fr_azo>  (177) 
0

>  <fr_barbitur>  (177) 
0

>  <fr_benzene>  (177) 
1

>  <fr_benzodiazepine>  (177) 
0

>  <fr_bicyclic>  (177) 
0

>  <fr_diazo>  (177) 
0

>  <fr_dihydropyridine>  (177) 
0

>  <fr_epoxide>  (177) 
0

>  <fr_ester>  (177) 
0

>  <fr_ether>  (177) 
0

>  <fr_furan>  (177) 
0

>  <fr_guanido>  (177) 
0

>  <fr_halogen>  (177) 
0

>  <fr_hdrzine>  (177) 
0

>  <fr_hdrzone>  (177) 
0

>  <fr_imidazole>  (177) 
0

>  <fr_imide>  (177) 
0

>  <fr_isocyan>  (177) 
0

>  <fr_isothiocyan>  (177) 
0

>  <fr_ketone>  (177) 
0

>  <fr_ketone_Topliss>  (177) 
0

>  <fr_lactam>  (177) 
0

>  <fr_lactone>  (177) 
0

>  <fr_methoxy>  (177) 
0

>  <fr_morpholine>  (177) 
0

>  <fr_nitrile>  (177) 
0

>  <fr_nitro>  (177) 
0

>  <fr_nitro_arom>  (177) 
0

>  <fr_nitro_arom_nonortho>  (177) 
0

>  <fr_nitroso>  (177) 
0

>  <fr_oxazole>  (177) 
0

>  <fr_oxime>  (177) 
0

>  <fr_para_hydroxylation>  (177) 
1

>  <fr_phenol>  (177) 
1

>  <fr_phenol_noOrthoHbond>  (177) 
1

>  <fr_phos_acid>  (177) 
0

>  <fr_phos_ester>  (177) 
0

>  <fr_piperdine>  (177) 
0

>  <fr_piperzine>  (177) 
0

>  <fr_priamide>  (177) 
0

>  <fr_prisulfonamd>  (177) 
0

>  <fr_pyridine>  (177) 
0

>  <fr_quatN>  (177) 
0

>  <fr_sulfide>  (177) 
0

>  <fr_sulfonamd>  (177) 
0

>  <fr_sulfone>  (177) 
0

>  <fr_term_acetylene>  (177) 
0

>  <fr_tetrazole>  (177) 
0

>  <fr_thiazole>  (177) 
0

>  <fr_thiocyan>  (177) 
0

>  <fr_thiophene>  (177) 
0

>  <fr_unbrch_alkane>  (177) 
0

>  <fr_urea>  (177) 
0

>  <NP_Likeness>  (177) 
0.416936

$$$$
IPH
     RDKit          3D

  0  0  0  0  0  0  0  0  0  0999 V3000
M  V30 BEGIN CTAB
M  V30 COUNTS 13 13 0 0 0
M  V30 BEGIN ATOM
M  V30 1 O 30.482000 27.832000 -3.100000 0
M  V30 2 C 31.417000 23.788000 -3.466000 0
M  V30 3 C 30.081000 24.186000 -3.541000 0
M  V30 4 C 32.445000 24.724000 -3.299000 0
M  V30 5 C 29.772000 25.547000 -3.421000 0
M  V30 6 C 32.127000 26.073000 -3.137000 0
M  V30 7 C 30.795000 26.483000 -3.234000 0
M  V30 8 H 31.210800 28.503500 -2.966200 0
M  V30 9 H 31.644100 22.816400 -3.532800 0
M  V30 10 H 29.356500 23.510600 -3.678100 0
M  V30 11 H 33.400100 24.427800 -3.295900 0
M  V30 12 H 28.820100 25.849700 -3.469000 0
M  V30 13 H 32.847500 26.741600 -2.952800 0
M  V30 END ATOM
M  V30 BEGIN BOND
M  V30 1 1 1 7
M  V30 2 2 2 3
M  V30 3 1 2 4
M  V30 4 1 3 5
M  V30 5 2 4 6
M  V30 6 2 5 7
M  V30 7 1 6 7
M  V30 8 1 1 8
M  V30 9 1 2 9
M  V30 10 1 3 10
M  V30 11 1 4 11
M  V30 12 1 5 12
M  V30 13 1 6 13
M  V30 END BOND
M  V30 END CTAB
M  END
>  <Ligand_Instance>  (178) 
3NX8_IPH_A_353

>  <Dataset>  (178) 
PDB

>  <PDB_ID>  (178) 
3NX8

>  <Chain>  (178) 
A

>  <Resi>  (178) 
353

>  <Num_Resolved_Atoms>  (178) 
7

>  <Num_H_Atoms_ProtBoundConf>  (178) 
6

>  <Pocket>  (178) 
F

>  <Name>  (178) 
PHENOL

>  <Num_Not_Resolved_Atoms>  (178) 
0

>  <ATP_Site>  (178) 
True

>  <Peripheral>  (178) 
True

>  <Standardized_SMILES>  (178) 
[H]OC1=C([H])C([H])=C([H])C([H])=C1[H]

>  <2D_Mol_H>  (178) 
<rdkit.Chem.rdchem.Mol object at 0x77059d9fbd10>

>  <MW>  (178) 
94.113

>  <HBA>  (178) 
1

>  <HBD>  (178) 
1

>  <LogP>  (178) 
1.3922

>  <NRB>  (178) 
1

>  <TPSA>  (178) 
20.23

>  <Num_Heavy_Atoms>  (178) 
7

>  <Ro5>  (178) 
[True, True, True, True, True, True]

>  <Ro5_Fulfilled>  (178) 
True

>  <Ro3>  (178) 
[True, True, True, True]

>  <Ro3_Fulfilled>  (178) 
True

>  <Fsp3>  (178) 
0.0

>  <Fsp3_0.42>  (178) 
False

>  <Fsp3_0.45>  (178) 
False

>  <Stereogenic_Carbons>  (178) 
0

>  <C_Atoms>  (178) 
6

>  <FCStereo>  (178) 
0.0

>  <SPS>  (178) 
60

>  <nSPS>  (178) 
8.571429

>  <PBF>  (178) 
0.019248

>  <PBF_0.6>  (178) 
False

>  <nPBF>  (178) 
0.00275

>  <nPBF_0.016>  (178) 
False

>  <PMI1>  (178) 
89.23363

>  <PMI2>  (178) 
194.083801

>  <PMI3>  (178) 
283.27777

>  <NPR1>  (178) 
0.315004

>  <NPR2>  (178) 
0.685136

>  <Sum_NPR>  (178) 
1.00014

>  <Sum_NPR_1.07>  (178) 
False

>  <Sum_NPR_1.2>  (178) 
False

>  <MaxAbsEStateIndex>  (178) 
8.632222

>  <MaxEStateIndex>  (178) 
8.632222

>  <MinAbsEStateIndex>  (178) 
0.321759

>  <MinEStateIndex>  (178) 
0.321759

>  <qed>  (178) 
0.51473

>  <MolWt>  (178) 
94.113

>  <HeavyAtomMolWt>  (178) 
88.065

>  <ExactMolWt>  (178) 
94.041865

>  <NumValenceElectrons>  (178) 
36

>  <NumRadicalElectrons>  (178) 
0

>  <MaxPartialCharge>  (178) 
0.115075

>  <MinPartialCharge>  (178) 
-0.507967

>  <MaxAbsPartialCharge>  (178) 
0.507967

>  <MinAbsPartialCharge>  (178) 
0.115075

>  <FpDensityMorgan1>  (178) 
1.0

>  <FpDensityMorgan2>  (178) 
1.571429

>  <FpDensityMorgan3>  (178) 
1.857143

>  <BCUT2D_MWHI>  (178) 
16.25462

>  <BCUT2D_MWLOW>  (178) 
10.346234

>  <BCUT2D_CHGHI>  (178) 
1.743219

>  <BCUT2D_CHGLO>  (178) 
-1.819354

>  <BCUT2D_LOGPHI>  (178) 
2.022574

>  <BCUT2D_LOGPLOW>  (178) 
-1.559499

>  <BCUT2D_MRHI>  (178) 
5.17974

>  <BCUT2D_MRLOW>  (178) 
0.475117

>  <AvgIpc>  (178) 
1.685616

>  <BalabanJ>  (178) 
3.021465

>  <BertzCT>  (178) 
134.10737

>  <Chi0>  (178) 
5.112884

>  <Chi0n>  (178) 
3.833965

>  <Chi0v>  (178) 
3.833965

>  <Chi1>  (178) 
3.393847

>  <Chi1n>  (178) 
2.13429

>  <Chi1v>  (178) 
2.13429

>  <Chi2n>  (178) 
1.335549

>  <Chi2v>  (178) 
1.335549

>  <Chi3n>  (178) 
0.756194

>  <Chi3v>  (178) 
0.756194

>  <Chi4n>  (178) 
0.427994

>  <Chi4v>  (178) 
0.427994

>  <HallKierAlpha>  (178) 
-0.98

>  <Ipc>  (178) 
47.197253

>  <Kappa1>  (178) 
4.186113

>  <Kappa2>  (178) 
1.646196

>  <Kappa3>  (178) 
0.929059

>  <LabuteASA>  (178) 
42.225637

>  <PEOE_VSA1>  (178) 
5.106527

>  <PEOE_VSA10>  (178) 
5.749512

>  <PEOE_VSA11>  (178) 
0.0

>  <PEOE_VSA12>  (178) 
0.0

>  <PEOE_VSA13>  (178) 
0.0

>  <PEOE_VSA14>  (178) 
0.0

>  <PEOE_VSA2>  (178) 
0.0

>  <PEOE_VSA3>  (178) 
0.0

>  <PEOE_VSA4>  (178) 
0.0

>  <PEOE_VSA5>  (178) 
0.0

>  <PEOE_VSA6>  (178) 
18.199101

>  <PEOE_VSA7>  (178) 
12.132734

>  <PEOE_VSA8>  (178) 
0.0

>  <PEOE_VSA9>  (178) 
0.0

>  <SMR_VSA1>  (178) 
5.106527

>  <SMR_VSA10>  (178) 
0.0

>  <SMR_VSA2>  (178) 
0.0

>  <SMR_VSA3>  (178) 
0.0

>  <SMR_VSA4>  (178) 
0.0

>  <SMR_VSA5>  (178) 
0.0

>  <SMR_VSA6>  (178) 
0.0

>  <SMR_VSA7>  (178) 
30.331835

>  <SMR_VSA8>  (178) 
0.0

>  <SMR_VSA9>  (178) 
5.749512

>  <SlogP_VSA1>  (178) 
0.0

>  <SlogP_VSA10>  (178) 
0.0

>  <SlogP_VSA11>  (178) 
5.749512

>  <SlogP_VSA12>  (178) 
0.0

>  <SlogP_VSA2>  (178) 
5.106527

>  <SlogP_VSA3>  (178) 
0.0

>  <SlogP_VSA4>  (178) 
0.0

>  <SlogP_VSA5>  (178) 
0.0

>  <SlogP_VSA6>  (178) 
30.331835

>  <SlogP_VSA7>  (178) 
0.0

>  <SlogP_VSA8>  (178) 
0.0

>  <SlogP_VSA9>  (178) 
0.0

>  <EState_VSA1>  (178) 
0.0

>  <EState_VSA10>  (178) 
0.0

>  <EState_VSA11>  (178) 
0.0

>  <EState_VSA2>  (178) 
0.0

>  <EState_VSA3>  (178) 
5.749512

>  <EState_VSA4>  (178) 
0.0

>  <EState_VSA5>  (178) 
0.0

>  <EState_VSA6>  (178) 
24.265468

>  <EState_VSA7>  (178) 
6.066367

>  <EState_VSA8>  (178) 
0.0

>  <EState_VSA9>  (178) 
5.106527

>  <VSA_EState1>  (178) 
0.0

>  <VSA_EState10>  (178) 
0.0

>  <VSA_EState2>  (178) 
0.0

>  <VSA_EState3>  (178) 
8.632222

>  <VSA_EState4>  (178) 
0.0

>  <VSA_EState5>  (178) 
0.321759

>  <VSA_EState6>  (178) 
8.712685

>  <VSA_EState7>  (178) 
0.0

>  <VSA_EState8>  (178) 
0.0

>  <VSA_EState9>  (178) 
0.0

>  <FractionCSP3>  (178) 
0.0

>  <HeavyAtomCount>  (178) 
7

>  <NHOHCount>  (178) 
1

>  <NOCount>  (178) 
1

>  <NumAliphaticCarbocycles>  (178) 
0

>  <NumAliphaticHeterocycles>  (178) 
0

>  <NumAliphaticRings>  (178) 
0

>  <NumAromaticCarbocycles>  (178) 
1

>  <NumAromaticHeterocycles>  (178) 
0

>  <NumAromaticRings>  (178) 
1

>  <NumHAcceptors>  (178) 
1

>  <NumHDonors>  (178) 
1

>  <NumHeteroatoms>  (178) 
1

>  <NumRotatableBonds>  (178) 
0

>  <NumSaturatedCarbocycles>  (178) 
0

>  <NumSaturatedHeterocycles>  (178) 
0

>  <NumSaturatedRings>  (178) 
0

>  <RingCount>  (178) 
1

>  <MolLogP>  (178) 
1.3922

>  <MolMR>  (178) 
28.1068

>  <fr_Al_COO>  (178) 
0

>  <fr_Al_OH>  (178) 
0

>  <fr_Al_OH_noTert>  (178) 
0

>  <fr_ArN>  (178) 
0

>  <fr_Ar_COO>  (178) 
0

>  <fr_Ar_N>  (178) 
0

>  <fr_Ar_NH>  (178) 
0

>  <fr_Ar_OH>  (178) 
1

>  <fr_COO>  (178) 
0

>  <fr_COO2>  (178) 
0

>  <fr_C_O>  (178) 
0

>  <fr_C_O_noCOO>  (178) 
0

>  <fr_C_S>  (178) 
0

>  <fr_HOCCN>  (178) 
0

>  <fr_Imine>  (178) 
0

>  <fr_NH0>  (178) 
0

>  <fr_NH1>  (178) 
0

>  <fr_NH2>  (178) 
0

>  <fr_N_O>  (178) 
0

>  <fr_Ndealkylation1>  (178) 
0

>  <fr_Ndealkylation2>  (178) 
0

>  <fr_Nhpyrrole>  (178) 
0

>  <fr_SH>  (178) 
0

>  <fr_aldehyde>  (178) 
0

>  <fr_alkyl_carbamate>  (178) 
0

>  <fr_alkyl_halide>  (178) 
0

>  <fr_allylic_oxid>  (178) 
0

>  <fr_amide>  (178) 
0

>  <fr_amidine>  (178) 
0

>  <fr_aniline>  (178) 
0

>  <fr_aryl_methyl>  (178) 
0

>  <fr_azide>  (178) 
0

>  <fr_azo>  (178) 
0

>  <fr_barbitur>  (178) 
0

>  <fr_benzene>  (178) 
1

>  <fr_benzodiazepine>  (178) 
0

>  <fr_bicyclic>  (178) 
0

>  <fr_diazo>  (178) 
0

>  <fr_dihydropyridine>  (178) 
0

>  <fr_epoxide>  (178) 
0

>  <fr_ester>  (178) 
0

>  <fr_ether>  (178) 
0

>  <fr_furan>  (178) 
0

>  <fr_guanido>  (178) 
0

>  <fr_halogen>  (178) 
0

>  <fr_hdrzine>  (178) 
0

>  <fr_hdrzone>  (178) 
0

>  <fr_imidazole>  (178) 
0

>  <fr_imide>  (178) 
0

>  <fr_isocyan>  (178) 
0

>  <fr_isothiocyan>  (178) 
0

>  <fr_ketone>  (178) 
0

>  <fr_ketone_Topliss>  (178) 
0

>  <fr_lactam>  (178) 
0

>  <fr_lactone>  (178) 
0

>  <fr_methoxy>  (178) 
0

>  <fr_morpholine>  (178) 
0

>  <fr_nitrile>  (178) 
0

>  <fr_nitro>  (178) 
0

>  <fr_nitro_arom>  (178) 
0

>  <fr_nitro_arom_nonortho>  (178) 
0

>  <fr_nitroso>  (178) 
0

>  <fr_oxazole>  (178) 
0

>  <fr_oxime>  (178) 
0

>  <fr_para_hydroxylation>  (178) 
1

>  <fr_phenol>  (178) 
1

>  <fr_phenol_noOrthoHbond>  (178) 
1

>  <fr_phos_acid>  (178) 
0

>  <fr_phos_ester>  (178) 
0

>  <fr_piperdine>  (178) 
0

>  <fr_piperzine>  (178) 
0

>  <fr_priamide>  (178) 
0

>  <fr_prisulfonamd>  (178) 
0

>  <fr_pyridine>  (178) 
0

>  <fr_quatN>  (178) 
0

>  <fr_sulfide>  (178) 
0

>  <fr_sulfonamd>  (178) 
0

>  <fr_sulfone>  (178) 
0

>  <fr_term_acetylene>  (178) 
0

>  <fr_tetrazole>  (178) 
0

>  <fr_thiazole>  (178) 
0

>  <fr_thiocyan>  (178) 
0

>  <fr_thiophene>  (178) 
0

>  <fr_unbrch_alkane>  (178) 
0

>  <fr_urea>  (178) 
0

>  <NP_Likeness>  (178) 
0.416936

$$$$
IPH
     RDKit          3D

  0  0  0  0  0  0  0  0  0  0999 V3000
M  V30 BEGIN CTAB
M  V30 COUNTS 13 13 0 0 0
M  V30 BEGIN ATOM
M  V30 1 O 17.238000 3.342000 20.570000 0
M  V30 2 C 13.373000 3.783000 19.188000 0
M  V30 3 C 13.890000 2.505000 19.437000 0
M  V30 4 C 14.159000 4.921000 19.397000 0
M  V30 5 C 15.194000 2.356000 19.908000 0
M  V30 6 C 15.472000 4.786000 19.851000 0
M  V30 7 C 15.969000 3.501000 20.111000 0
M  V30 8 H 17.817500 4.142100 20.725300 0
M  V30 9 H 12.434200 3.882500 18.858100 0
M  V30 10 H 13.322400 1.697500 19.276500 0
M  V30 11 H 13.780800 5.829900 19.221400 0
M  V30 12 H 15.567200 1.447700 20.096800 0
M  V30 13 H 16.048100 5.591700 19.988400 0
M  V30 END ATOM
M  V30 BEGIN BOND
M  V30 1 1 1 7
M  V30 2 2 2 3
M  V30 3 1 2 4
M  V30 4 1 3 5
M  V30 5 2 4 6
M  V30 6 2 5 7
M  V30 7 1 6 7
M  V30 8 1 1 8
M  V30 9 1 2 9
M  V30 10 1 3 10
M  V30 11 1 4 11
M  V30 12 1 5 12
M  V30 13 1 6 13
M  V30 END BOND
M  V30 END CTAB
M  END
>  <Ligand_Instance>  (179) 
6Z44_IPH_A_401

>  <Dataset>  (179) 
PDB

>  <PDB_ID>  (179) 
6Z44

>  <Chain>  (179) 
A

>  <Resi>  (179) 
401

>  <Num_Resolved_Atoms>  (179) 
7

>  <Num_H_Atoms_ProtBoundConf>  (179) 
6

>  <Pocket>  (179) 
A

>  <Name>  (179) 
PHENOL

>  <Num_Not_Resolved_Atoms>  (179) 
0

>  <ATP_Site>  (179) 
True

>  <Peripheral>  (179) 
False

>  <Standardized_SMILES>  (179) 
[H]OC1=C([H])C([H])=C([H])C([H])=C1[H]

>  <2D_Mol_H>  (179) 
<rdkit.Chem.rdchem.Mol object at 0x77059d9fbdf0>

>  <MW>  (179) 
94.113

>  <HBA>  (179) 
1

>  <HBD>  (179) 
1

>  <LogP>  (179) 
1.3922

>  <NRB>  (179) 
1

>  <TPSA>  (179) 
20.23

>  <Num_Heavy_Atoms>  (179) 
7

>  <Ro5>  (179) 
[True, True, True, True, True, True]

>  <Ro5_Fulfilled>  (179) 
True

>  <Ro3>  (179) 
[True, True, True, True]

>  <Ro3_Fulfilled>  (179) 
True

>  <Fsp3>  (179) 
0.0

>  <Fsp3_0.42>  (179) 
False

>  <Fsp3_0.45>  (179) 
False

>  <Stereogenic_Carbons>  (179) 
0

>  <C_Atoms>  (179) 
6

>  <FCStereo>  (179) 
0.0

>  <SPS>  (179) 
60

>  <nSPS>  (179) 
8.571429

>  <PBF>  (179) 
0.007679

>  <PBF_0.6>  (179) 
False

>  <nPBF>  (179) 
0.001097

>  <nPBF_0.016>  (179) 
False

>  <PMI1>  (179) 
89.628686

>  <PMI2>  (179) 
190.491835

>  <PMI3>  (179) 
280.114551

>  <NPR1>  (179) 
0.319972

>  <NPR2>  (179) 
0.68005

>  <Sum_NPR>  (179) 
1.000021

>  <Sum_NPR_1.07>  (179) 
False

>  <Sum_NPR_1.2>  (179) 
False

>  <MaxAbsEStateIndex>  (179) 
8.632222

>  <MaxEStateIndex>  (179) 
8.632222

>  <MinAbsEStateIndex>  (179) 
0.321759

>  <MinEStateIndex>  (179) 
0.321759

>  <qed>  (179) 
0.51473

>  <MolWt>  (179) 
94.113

>  <HeavyAtomMolWt>  (179) 
88.065

>  <ExactMolWt>  (179) 
94.041865

>  <NumValenceElectrons>  (179) 
36

>  <NumRadicalElectrons>  (179) 
0

>  <MaxPartialCharge>  (179) 
0.115075

>  <MinPartialCharge>  (179) 
-0.507967

>  <MaxAbsPartialCharge>  (179) 
0.507967

>  <MinAbsPartialCharge>  (179) 
0.115075

>  <FpDensityMorgan1>  (179) 
1.0

>  <FpDensityMorgan2>  (179) 
1.571429

>  <FpDensityMorgan3>  (179) 
1.857143

>  <BCUT2D_MWHI>  (179) 
16.25462

>  <BCUT2D_MWLOW>  (179) 
10.346234

>  <BCUT2D_CHGHI>  (179) 
1.743219

>  <BCUT2D_CHGLO>  (179) 
-1.819354

>  <BCUT2D_LOGPHI>  (179) 
2.022574

>  <BCUT2D_LOGPLOW>  (179) 
-1.559499

>  <BCUT2D_MRHI>  (179) 
5.17974

>  <BCUT2D_MRLOW>  (179) 
0.475117

>  <AvgIpc>  (179) 
1.685616

>  <BalabanJ>  (179) 
3.021465

>  <BertzCT>  (179) 
134.10737

>  <Chi0>  (179) 
5.112884

>  <Chi0n>  (179) 
3.833965

>  <Chi0v>  (179) 
3.833965

>  <Chi1>  (179) 
3.393847

>  <Chi1n>  (179) 
2.13429

>  <Chi1v>  (179) 
2.13429

>  <Chi2n>  (179) 
1.335549

>  <Chi2v>  (179) 
1.335549

>  <Chi3n>  (179) 
0.756194

>  <Chi3v>  (179) 
0.756194

>  <Chi4n>  (179) 
0.427994

>  <Chi4v>  (179) 
0.427994

>  <HallKierAlpha>  (179) 
-0.98

>  <Ipc>  (179) 
47.197253

>  <Kappa1>  (179) 
4.186113

>  <Kappa2>  (179) 
1.646196

>  <Kappa3>  (179) 
0.929059

>  <LabuteASA>  (179) 
42.225637

>  <PEOE_VSA1>  (179) 
5.106527

>  <PEOE_VSA10>  (179) 
5.749512

>  <PEOE_VSA11>  (179) 
0.0

>  <PEOE_VSA12>  (179) 
0.0

>  <PEOE_VSA13>  (179) 
0.0

>  <PEOE_VSA14>  (179) 
0.0

>  <PEOE_VSA2>  (179) 
0.0

>  <PEOE_VSA3>  (179) 
0.0

>  <PEOE_VSA4>  (179) 
0.0

>  <PEOE_VSA5>  (179) 
0.0

>  <PEOE_VSA6>  (179) 
18.199101

>  <PEOE_VSA7>  (179) 
12.132734

>  <PEOE_VSA8>  (179) 
0.0

>  <PEOE_VSA9>  (179) 
0.0

>  <SMR_VSA1>  (179) 
5.106527

>  <SMR_VSA10>  (179) 
0.0

>  <SMR_VSA2>  (179) 
0.0

>  <SMR_VSA3>  (179) 
0.0

>  <SMR_VSA4>  (179) 
0.0

>  <SMR_VSA5>  (179) 
0.0

>  <SMR_VSA6>  (179) 
0.0

>  <SMR_VSA7>  (179) 
30.331835

>  <SMR_VSA8>  (179) 
0.0

>  <SMR_VSA9>  (179) 
5.749512

>  <SlogP_VSA1>  (179) 
0.0

>  <SlogP_VSA10>  (179) 
0.0

>  <SlogP_VSA11>  (179) 
5.749512

>  <SlogP_VSA12>  (179) 
0.0

>  <SlogP_VSA2>  (179) 
5.106527

>  <SlogP_VSA3>  (179) 
0.0

>  <SlogP_VSA4>  (179) 
0.0

>  <SlogP_VSA5>  (179) 
0.0

>  <SlogP_VSA6>  (179) 
30.331835

>  <SlogP_VSA7>  (179) 
0.0

>  <SlogP_VSA8>  (179) 
0.0

>  <SlogP_VSA9>  (179) 
0.0

>  <EState_VSA1>  (179) 
0.0

>  <EState_VSA10>  (179) 
0.0

>  <EState_VSA11>  (179) 
0.0

>  <EState_VSA2>  (179) 
0.0

>  <EState_VSA3>  (179) 
5.749512

>  <EState_VSA4>  (179) 
0.0

>  <EState_VSA5>  (179) 
0.0

>  <EState_VSA6>  (179) 
24.265468

>  <EState_VSA7>  (179) 
6.066367

>  <EState_VSA8>  (179) 
0.0

>  <EState_VSA9>  (179) 
5.106527

>  <VSA_EState1>  (179) 
0.0

>  <VSA_EState10>  (179) 
0.0

>  <VSA_EState2>  (179) 
0.0

>  <VSA_EState3>  (179) 
8.632222

>  <VSA_EState4>  (179) 
0.0

>  <VSA_EState5>  (179) 
0.321759

>  <VSA_EState6>  (179) 
8.712685

>  <VSA_EState7>  (179) 
0.0

>  <VSA_EState8>  (179) 
0.0

>  <VSA_EState9>  (179) 
0.0

>  <FractionCSP3>  (179) 
0.0

>  <HeavyAtomCount>  (179) 
7

>  <NHOHCount>  (179) 
1

>  <NOCount>  (179) 
1

>  <NumAliphaticCarbocycles>  (179) 
0

>  <NumAliphaticHeterocycles>  (179) 
0

>  <NumAliphaticRings>  (179) 
0

>  <NumAromaticCarbocycles>  (179) 
1

>  <NumAromaticHeterocycles>  (179) 
0

>  <NumAromaticRings>  (179) 
1

>  <NumHAcceptors>  (179) 
1

>  <NumHDonors>  (179) 
1

>  <NumHeteroatoms>  (179) 
1

>  <NumRotatableBonds>  (179) 
0

>  <NumSaturatedCarbocycles>  (179) 
0

>  <NumSaturatedHeterocycles>  (179) 
0

>  <NumSaturatedRings>  (179) 
0

>  <RingCount>  (179) 
1

>  <MolLogP>  (179) 
1.3922

>  <MolMR>  (179) 
28.1068

>  <fr_Al_COO>  (179) 
0

>  <fr_Al_OH>  (179) 
0

>  <fr_Al_OH_noTert>  (179) 
0

>  <fr_ArN>  (179) 
0

>  <fr_Ar_COO>  (179) 
0

>  <fr_Ar_N>  (179) 
0

>  <fr_Ar_NH>  (179) 
0

>  <fr_Ar_OH>  (179) 
1

>  <fr_COO>  (179) 
0

>  <fr_COO2>  (179) 
0

>  <fr_C_O>  (179) 
0

>  <fr_C_O_noCOO>  (179) 
0

>  <fr_C_S>  (179) 
0

>  <fr_HOCCN>  (179) 
0

>  <fr_Imine>  (179) 
0

>  <fr_NH0>  (179) 
0

>  <fr_NH1>  (179) 
0

>  <fr_NH2>  (179) 
0

>  <fr_N_O>  (179) 
0

>  <fr_Ndealkylation1>  (179) 
0

>  <fr_Ndealkylation2>  (179) 
0

>  <fr_Nhpyrrole>  (179) 
0

>  <fr_SH>  (179) 
0

>  <fr_aldehyde>  (179) 
0

>  <fr_alkyl_carbamate>  (179) 
0

>  <fr_alkyl_halide>  (179) 
0

>  <fr_allylic_oxid>  (179) 
0

>  <fr_amide>  (179) 
0

>  <fr_amidine>  (179) 
0

>  <fr_aniline>  (179) 
0

>  <fr_aryl_methyl>  (179) 
0

>  <fr_azide>  (179) 
0

>  <fr_azo>  (179) 
0

>  <fr_barbitur>  (179) 
0

>  <fr_benzene>  (179) 
1

>  <fr_benzodiazepine>  (179) 
0

>  <fr_bicyclic>  (179) 
0

>  <fr_diazo>  (179) 
0

>  <fr_dihydropyridine>  (179) 
0

>  <fr_epoxide>  (179) 
0

>  <fr_ester>  (179) 
0

>  <fr_ether>  (179) 
0

>  <fr_furan>  (179) 
0

>  <fr_guanido>  (179) 
0

>  <fr_halogen>  (179) 
0

>  <fr_hdrzine>  (179) 
0

>  <fr_hdrzone>  (179) 
0

>  <fr_imidazole>  (179) 
0

>  <fr_imide>  (179) 
0

>  <fr_isocyan>  (179) 
0

>  <fr_isothiocyan>  (179) 
0

>  <fr_ketone>  (179) 
0

>  <fr_ketone_Topliss>  (179) 
0

>  <fr_lactam>  (179) 
0

>  <fr_lactone>  (179) 
0

>  <fr_methoxy>  (179) 
0

>  <fr_morpholine>  (179) 
0

>  <fr_nitrile>  (179) 
0

>  <fr_nitro>  (179) 
0

>  <fr_nitro_arom>  (179) 
0

>  <fr_nitro_arom_nonortho>  (179) 
0

>  <fr_nitroso>  (179) 
0

>  <fr_oxazole>  (179) 
0

>  <fr_oxime>  (179) 
0

>  <fr_para_hydroxylation>  (179) 
1

>  <fr_phenol>  (179) 
1

>  <fr_phenol_noOrthoHbond>  (179) 
1

>  <fr_phos_acid>  (179) 
0

>  <fr_phos_ester>  (179) 
0

>  <fr_piperdine>  (179) 
0

>  <fr_piperzine>  (179) 
0

>  <fr_priamide>  (179) 
0

>  <fr_prisulfonamd>  (179) 
0

>  <fr_pyridine>  (179) 
0

>  <fr_quatN>  (179) 
0

>  <fr_sulfide>  (179) 
0

>  <fr_sulfonamd>  (179) 
0

>  <fr_sulfone>  (179) 
0

>  <fr_term_acetylene>  (179) 
0

>  <fr_tetrazole>  (179) 
0

>  <fr_thiazole>  (179) 
0

>  <fr_thiocyan>  (179) 
0

>  <fr_thiophene>  (179) 
0

>  <fr_unbrch_alkane>  (179) 
0

>  <fr_urea>  (179) 
0

>  <NP_Likeness>  (179) 
0.416936

$$$$
IQB
     RDKit          3D

  0  0  0  0  0  0  0  0  0  0999 V3000
M  V30 BEGIN CTAB
M  V30 COUNTS 48 50 0 0 0
M  V30 BEGIN ATOM
M  V30 1 Br -15.076000 13.616000 1.725000 0
M  V30 2 S -8.489000 9.993000 -4.108000 0
M  V30 3 O -8.218000 10.851000 -5.286000 0
M  V30 4 O -9.611000 10.603000 -3.339000 0
M  V30 5 N -8.911000 8.493000 -4.608000 0
M  V30 6 N -11.564000 7.601000 -4.257000 0 CHG=1
M  V30 7 N -3.148000 9.691000 -4.475000 0
M  V30 8 C -9.183000 7.520000 -3.511000 0
M  V30 9 C -10.668000 7.500000 -3.095000 0
M  V30 10 C -11.932000 9.014000 -4.474000 0
M  V30 11 C -4.153000 9.720000 -5.340000 0
M  V30 12 C -3.368000 9.747000 -3.163000 0
M  V30 13 C -12.605000 9.544000 -3.369000 0
M  V30 14 C -6.187000 9.986000 -0.777000 0
M  V30 15 C -5.478000 9.806000 -4.902000 0
M  V30 16 C -7.265000 10.017000 -1.659000 0
M  V30 17 C -14.513000 11.430000 -0.045000 0
M  V30 18 C -13.291000 13.449000 -0.531000 0
M  V30 19 C -12.361000 10.867000 -2.999000 0
M  V30 20 C -4.883000 9.896000 -1.268000 0
M  V30 21 C -13.906000 10.796000 -1.126000 0
M  V30 22 C -12.693000 12.810000 -1.613000 0
M  V30 23 C -14.210000 12.757000 0.259000 0
M  V30 24 C -7.062000 9.949000 -3.038000 0
M  V30 25 C -12.989000 11.487000 -1.912000 0
M  V30 26 C -4.666000 9.839000 -2.652000 0
M  V30 27 C -5.750000 9.866000 -3.531000 0
M  V30 28 H -8.165400 8.130500 -5.167200 0
M  V30 29 H -12.390300 7.063600 -4.088400 0
M  V30 30 H -8.630500 7.770200 -2.716000 0
M  V30 31 H -8.924600 6.605400 -3.822000 0
M  V30 32 H -10.857600 6.644100 -2.613900 0
M  V30 33 H -10.843000 8.271800 -2.483700 0
M  V30 34 H -12.525800 9.075600 -5.276300 0
M  V30 35 H -11.100100 9.545600 -4.633400 0
M  V30 36 H -3.960100 9.679700 -6.320400 0
M  V30 37 H -2.592000 9.722900 -2.532800 0
M  V30 38 H -13.251500 8.983300 -2.851600 0
M  V30 39 H -6.347400 10.028300 0.209200 0
M  V30 40 H -6.226700 9.824500 -5.564700 0
M  V30 41 H -8.195400 10.088800 -1.299600 0
M  V30 42 H -15.171300 10.930000 0.517700 0
M  V30 43 H -13.063200 14.399700 -0.320500 0
M  V30 44 H -11.705800 11.398100 -3.536200 0
M  V30 45 H -4.108300 9.872300 -0.636100 0
M  V30 46 H -14.129000 9.844400 -1.337400 0
M  V30 47 H -12.041300 13.310600 -2.182800 0
M  V30 48 H -11.097700 7.249600 -5.068900 0
M  V30 END ATOM
M  V30 BEGIN BOND
M  V30 1 1 1 23
M  V30 2 2 2 3
M  V30 3 2 2 4
M  V30 4 1 2 5
M  V30 5 1 2 24
M  V30 6 1 5 8
M  V30 7 1 6 9
M  V30 8 1 6 10
M  V30 9 2 7 11
M  V30 10 1 7 12
M  V30 11 1 8 9
M  V30 12 1 10 13
M  V30 13 1 11 15
M  V30 14 2 12 26
M  V30 15 2 13 19
M  V30 16 1 14 16
M  V30 17 2 14 20
M  V30 18 2 15 27
M  V30 19 2 16 24
M  V30 20 2 17 21
M  V30 21 1 17 23
M  V30 22 1 18 22
M  V30 23 2 18 23
M  V30 24 1 19 25
M  V30 25 1 20 26
M  V30 26 1 21 25
M  V30 27 2 22 25
M  V30 28 1 24 27
M  V30 29 1 26 27
M  V30 30 1 5 28
M  V30 31 1 6 29
M  V30 32 1 8 30
M  V30 33 1 8 31
M  V30 34 1 9 32
M  V30 35 1 9 33
M  V30 36 1 10 34
M  V30 37 1 10 35
M  V30 38 1 11 36
M  V30 39 1 12 37
M  V30 40 1 13 38
M  V30 41 1 14 39
M  V30 42 1 15 40
M  V30 43 1 16 41
M  V30 44 1 17 42
M  V30 45 1 18 43
M  V30 46 1 19 44
M  V30 47 1 20 45
M  V30 48 1 21 46
M  V30 49 1 22 47
M  V30 50 1 6 48
M  V30 END BOND
M  V30 END CTAB
M  END
>  <Ligand_Instance>  (180) 
3VQH_IQB_A_401

>  <Dataset>  (180) 
PDB

>  <PDB_ID>  (180) 
3VQH

>  <Chain>  (180) 
A

>  <Resi>  (180) 
401

>  <Num_Resolved_Atoms>  (180) 
27

>  <Num_H_Atoms_ProtBoundConf>  (180) 
21

>  <Pocket>  (180) 
A

>  <Name>  (180) 
N-[2-(4-BROMOCINNAMYLAMINO)ETHYL]-5-ISOQUINOLINE SULFONAMIDE

>  <Num_Not_Resolved_Atoms>  (180) 
0

>  <ATP_Site>  (180) 
True

>  <Peripheral>  (180) 
False

>  <Standardized_SMILES>  (180) 
[H]C1=NC([H])=C2C([H])=C([H])C([H])=C(S(=O)(=O)N([H])C([H])([H])C([H])([H])[N+]([H])([H])C([H])([H])/C([H])=C(\[H])C3=C([H])C([H])=C(Br)C([H])=C3[H])C2=C1[H]

>  <2D_Mol_H>  (180) 
<rdkit.Chem.rdchem.Mol object at 0x77059d9fbed0>

>  <MW>  (180) 
447.378

>  <HBA>  (180) 
3

>  <HBD>  (180) 
2

>  <LogP>  (180) 
2.5524

>  <NRB>  (180) 
8

>  <TPSA>  (180) 
75.67

>  <Num_Heavy_Atoms>  (180) 
27

>  <Ro5>  (180) 
[True, True, True, True, True, True]

>  <Ro5_Fulfilled>  (180) 
True

>  <Ro3>  (180) 
[False, True, True, True]

>  <Ro3_Fulfilled>  (180) 
True

>  <Fsp3>  (180) 
0.15

>  <Fsp3_0.42>  (180) 
False

>  <Fsp3_0.45>  (180) 
False

>  <Stereogenic_Carbons>  (180) 
0

>  <C_Atoms>  (180) 
20

>  <FCStereo>  (180) 
0.0

>  <SPS>  (180) 
325

>  <nSPS>  (180) 
12.037037

>  <PBF>  (180) 
1.046

>  <PBF_0.6>  (180) 
True

>  <nPBF>  (180) 
0.038741

>  <nPBF_0.016>  (180) 
True

>  <PMI1>  (180) 
1838.730788

>  <PMI2>  (180) 
9284.493118

>  <PMI3>  (180) 
10369.613824

>  <NPR1>  (180) 
0.177319

>  <NPR2>  (180) 
0.895356

>  <Sum_NPR>  (180) 
1.072675

>  <Sum_NPR_1.07>  (180) 
True

>  <Sum_NPR_1.2>  (180) 
False

>  <MaxAbsEStateIndex>  (180) 
12.584293

>  <MaxEStateIndex>  (180) 
12.584293

>  <MinAbsEStateIndex>  (180) 
0.289384

>  <MinEStateIndex>  (180) 
-3.546934

>  <qed>  (180) 
0.521571

>  <MolWt>  (180) 
447.378

>  <HeavyAtomMolWt>  (180) 
426.21

>  <ExactMolWt>  (180) 
446.053236

>  <NumValenceElectrons>  (180) 
140

>  <NumRadicalElectrons>  (180) 
0

>  <MaxPartialCharge>  (180) 
0.240888

>  <MinPartialCharge>  (180) 
-0.341907

>  <MaxAbsPartialCharge>  (180) 
0.341907

>  <MinAbsPartialCharge>  (180) 
0.240888

>  <FpDensityMorgan1>  (180) 
1.111111

>  <FpDensityMorgan2>  (180) 
1.925926

>  <FpDensityMorgan3>  (180) 
2.740741

>  <BCUT2D_MWHI>  (180) 
79.918731

>  <BCUT2D_MWLOW>  (180) 
10.168344

>  <BCUT2D_CHGHI>  (180) 
2.1612

>  <BCUT2D_CHGLO>  (180) 
-2.084034

>  <BCUT2D_LOGPHI>  (180) 
2.210245

>  <BCUT2D_LOGPLOW>  (180) 
-2.849407

>  <BCUT2D_MRHI>  (180) 
9.102999

>  <BCUT2D_MRLOW>  (180) 
-0.643311

>  <AvgIpc>  (180) 
2.678741

>  <BalabanJ>  (180) 
1.486225

>  <BertzCT>  (180) 
1029.285997

>  <Chi0>  (180) 
19.114673

>  <Chi0n>  (180) 
14.676797

>  <Chi0v>  (180) 
17.07929

>  <Chi1>  (180) 
13.06048

>  <Chi1n>  (180) 
8.623336

>  <Chi1v>  (180) 
10.899498

>  <Chi2n>  (180) 
6.017707

>  <Chi2v>  (180) 
8.668757

>  <Chi3n>  (180) 
4.05385

>  <Chi3v>  (180) 
6.101705

>  <Chi4n>  (180) 
2.69236

>  <Chi4v>  (180) 
4.231902

>  <HallKierAlpha>  (180) 
-2.06

>  <Ipc>  (180) 
1377365.659771

>  <Kappa1>  (180) 
19.694709

>  <Kappa2>  (180) 
9.232455

>  <Kappa3>  (180) 
5.460286

>  <LabuteASA>  (180) 
167.252965

>  <PEOE_VSA1>  (180) 
5.316789

>  <PEOE_VSA10>  (180) 
0.0

>  <PEOE_VSA11>  (180) 
0.0

>  <PEOE_VSA12>  (180) 
10.023291

>  <PEOE_VSA13>  (180) 
0.0

>  <PEOE_VSA14>  (180) 
0.0

>  <PEOE_VSA2>  (180) 
4.983979

>  <PEOE_VSA3>  (180) 
13.139892

>  <PEOE_VSA4>  (180) 
0.0

>  <PEOE_VSA5>  (180) 
0.0

>  <PEOE_VSA6>  (180) 
46.271432

>  <PEOE_VSA7>  (180) 
35.90494

>  <PEOE_VSA8>  (180) 
27.638855

>  <PEOE_VSA9>  (180) 
24.529753

>  <SMR_VSA1>  (180) 
13.734586

>  <SMR_VSA10>  (180) 
42.801704

>  <SMR_VSA2>  (180) 
0.0

>  <SMR_VSA3>  (180) 
9.706073

>  <SMR_VSA4>  (180) 
0.0

>  <SMR_VSA5>  (180) 
4.895483

>  <SMR_VSA6>  (180) 
19.634269

>  <SMR_VSA7>  (180) 
77.036815

>  <SMR_VSA8>  (180) 
0.0

>  <SMR_VSA9>  (180) 
0.0

>  <SlogP_VSA1>  (180) 
10.038883

>  <SlogP_VSA10>  (180) 
0.0

>  <SlogP_VSA11>  (180) 
0.0

>  <SlogP_VSA12>  (180) 
15.929944

>  <SlogP_VSA2>  (180) 
33.036045

>  <SlogP_VSA3>  (180) 
10.023291

>  <SlogP_VSA4>  (180) 
0.0

>  <SlogP_VSA5>  (180) 
5.563451

>  <SlogP_VSA6>  (180) 
76.368847

>  <SlogP_VSA7>  (180) 
0.0

>  <SlogP_VSA8>  (180) 
16.848469

>  <SlogP_VSA9>  (180) 
0.0

>  <EState_VSA1>  (180) 
10.023291

>  <EState_VSA10>  (180) 
8.417797

>  <EState_VSA11>  (180) 
0.0

>  <EState_VSA2>  (180) 
4.895483

>  <EState_VSA3>  (180) 
18.475737

>  <EState_VSA4>  (180) 
21.967152

>  <EState_VSA5>  (180) 
0.0

>  <EState_VSA6>  (180) 
30.592788

>  <EState_VSA7>  (180) 
30.331835

>  <EState_VSA8>  (180) 
43.104846

>  <EState_VSA9>  (180) 
0.0

>  <VSA_EState1>  (180) 
28.898552

>  <VSA_EState10>  (180) 
3.412341

>  <VSA_EState2>  (180) 
4.3265

>  <VSA_EState3>  (180) 
3.552476

>  <VSA_EState4>  (180) 
1.136804

>  <VSA_EState5>  (180) 
0.0

>  <VSA_EState6>  (180) 
15.008575

>  <VSA_EState7>  (180) 
7.388385

>  <VSA_EState8>  (180) 
1.8233

>  <VSA_EState9>  (180) 
-3.546934

>  <FractionCSP3>  (180) 
0.15

>  <HeavyAtomCount>  (180) 
27

>  <NHOHCount>  (180) 
3

>  <NOCount>  (180) 
5

>  <NumAliphaticCarbocycles>  (180) 
0

>  <NumAliphaticHeterocycles>  (180) 
0

>  <NumAliphaticRings>  (180) 
0

>  <NumAromaticCarbocycles>  (180) 
2

>  <NumAromaticHeterocycles>  (180) 
1

>  <NumAromaticRings>  (180) 
3

>  <NumHAcceptors>  (180) 
3

>  <NumHDonors>  (180) 
2

>  <NumHeteroatoms>  (180) 
7

>  <NumRotatableBonds>  (180) 
8

>  <NumSaturatedCarbocycles>  (180) 
0

>  <NumSaturatedHeterocycles>  (180) 
0

>  <NumSaturatedRings>  (180) 
0

>  <RingCount>  (180) 
3

>  <MolLogP>  (180) 
2.5524

>  <MolMR>  (180) 
111.7669

>  <fr_Al_COO>  (180) 
0

>  <fr_Al_OH>  (180) 
0

>  <fr_Al_OH_noTert>  (180) 
0

>  <fr_ArN>  (180) 
0

>  <fr_Ar_COO>  (180) 
0

>  <fr_Ar_N>  (180) 
1

>  <fr_Ar_NH>  (180) 
0

>  <fr_Ar_OH>  (180) 
0

>  <fr_COO>  (180) 
0

>  <fr_COO2>  (180) 
0

>  <fr_C_O>  (180) 
0

>  <fr_C_O_noCOO>  (180) 
0

>  <fr_C_S>  (180) 
0

>  <fr_HOCCN>  (180) 
0

>  <fr_Imine>  (180) 
0

>  <fr_NH0>  (180) 
1

>  <fr_NH1>  (180) 
1

>  <fr_NH2>  (180) 
1

>  <fr_N_O>  (180) 
0

>  <fr_Ndealkylation1>  (180) 
0

>  <fr_Ndealkylation2>  (180) 
0

>  <fr_Nhpyrrole>  (180) 
0

>  <fr_SH>  (180) 
0

>  <fr_aldehyde>  (180) 
0

>  <fr_alkyl_carbamate>  (180) 
0

>  <fr_alkyl_halide>  (180) 
0

>  <fr_allylic_oxid>  (180) 
0

>  <fr_amide>  (180) 
0

>  <fr_amidine>  (180) 
0

>  <fr_aniline>  (180) 
0

>  <fr_aryl_methyl>  (180) 
0

>  <fr_azide>  (180) 
0

>  <fr_azo>  (180) 
0

>  <fr_barbitur>  (180) 
0

>  <fr_benzene>  (180) 
2

>  <fr_benzodiazepine>  (180) 
0

>  <fr_bicyclic>  (180) 
1

>  <fr_diazo>  (180) 
0

>  <fr_dihydropyridine>  (180) 
0

>  <fr_epoxide>  (180) 
0

>  <fr_ester>  (180) 
0

>  <fr_ether>  (180) 
0

>  <fr_furan>  (180) 
0

>  <fr_guanido>  (180) 
0

>  <fr_halogen>  (180) 
1

>  <fr_hdrzine>  (180) 
0

>  <fr_hdrzone>  (180) 
0

>  <fr_imidazole>  (180) 
0

>  <fr_imide>  (180) 
0

>  <fr_isocyan>  (180) 
0

>  <fr_isothiocyan>  (180) 
0

>  <fr_ketone>  (180) 
0

>  <fr_ketone_Topliss>  (180) 
0

>  <fr_lactam>  (180) 
0

>  <fr_lactone>  (180) 
0

>  <fr_methoxy>  (180) 
0

>  <fr_morpholine>  (180) 
0

>  <fr_nitrile>  (180) 
0

>  <fr_nitro>  (180) 
0

>  <fr_nitro_arom>  (180) 
0

>  <fr_nitro_arom_nonortho>  (180) 
0

>  <fr_nitroso>  (180) 
0

>  <fr_oxazole>  (180) 
0

>  <fr_oxime>  (180) 
0

>  <fr_para_hydroxylation>  (180) 
0

>  <fr_phenol>  (180) 
0

>  <fr_phenol_noOrthoHbond>  (180) 
0

>  <fr_phos_acid>  (180) 
0

>  <fr_phos_ester>  (180) 
0

>  <fr_piperdine>  (180) 
0

>  <fr_piperzine>  (180) 
0

>  <fr_priamide>  (180) 
0

>  <fr_prisulfonamd>  (180) 
0

>  <fr_pyridine>  (180) 
1

>  <fr_quatN>  (180) 
1

>  <fr_sulfide>  (180) 
0

>  <fr_sulfonamd>  (180) 
1

>  <fr_sulfone>  (180) 
0

>  <fr_term_acetylene>  (180) 
0

>  <fr_tetrazole>  (180) 
0

>  <fr_thiazole>  (180) 
0

>  <fr_thiocyan>  (180) 
0

>  <fr_thiophene>  (180) 
0

>  <fr_unbrch_alkane>  (180) 
0

>  <fr_urea>  (180) 
0

>  <NP_Likeness>  (180) 
-0.949338

$$$$
IQP
     RDKit          3D

  0  0  0  0  0  0  0  0  0  0999 V3000
M  V30 BEGIN CTAB
M  V30 COUNTS 38 40 0 0 0
M  V30 BEGIN ATOM
M  V30 1 S -13.750000 25.102000 -27.557000 0
M  V30 2 O -13.288000 26.271000 -26.875000 0
M  V30 3 O -14.355000 25.223000 -28.842000 0
M  V30 4 N -10.519000 22.094000 -27.829000 0 CHG=1
M  V30 5 N -17.401000 26.229000 -23.702000 0
M  V30 6 N -12.467000 24.103000 -27.705000 0
M  V30 7 C -11.160000 24.252000 -29.798000 0
M  V30 8 C -10.892000 22.652000 -26.524000 0
M  V30 9 C -16.670000 26.937000 -24.581000 0
M  V30 10 C -11.670000 22.019000 -28.733000 0
M  V30 11 C -17.335000 24.903000 -23.775000 0
M  V30 12 C -11.403000 24.072000 -26.682000 0
M  V30 13 C -15.642000 22.155000 -25.653000 0
M  V30 14 C -15.841000 26.382000 -25.513000 0
M  V30 15 C -14.839000 22.893000 -26.511000 0
M  V30 16 C -16.465000 22.780000 -24.765000 0
M  V30 17 C -14.865000 24.260000 -26.480000 0
M  V30 18 C -12.162000 23.427000 -29.002000 0 CFG=1
M  V30 19 C -16.521000 24.196000 -24.697000 0
M  V30 20 C -15.724000 24.972000 -25.582000 0
M  V30 21 H -10.151000 21.173800 -27.695200 0
M  V30 22 H -10.962300 23.791900 -30.663600 0
M  V30 23 H -11.544300 25.156800 -29.981600 0
M  V30 24 H -10.315300 24.349100 -29.271600 0
M  V30 25 H -10.090700 22.654900 -25.925800 0
M  V30 26 H -11.609700 22.087000 -26.117100 0
M  V30 27 H -16.738000 27.934200 -24.550000 0
M  V30 28 H -12.398800 21.482400 -28.307600 0
M  V30 29 H -11.396400 21.587200 -29.592500 0
M  V30 30 H -17.894500 24.370500 -23.139900 0
M  V30 31 H -11.770800 24.392700 -25.809100 0
M  V30 32 H -10.650900 24.667000 -26.965600 0
M  V30 33 H -15.616400 21.155900 -25.686700 0
M  V30 34 H -15.322500 26.964000 -26.139500 0
M  V30 35 H -14.237300 22.422200 -27.156200 0
M  V30 36 H -17.037000 22.233500 -24.153300 0
M  V30 37 H -13.008700 23.367200 -29.530700 0
M  V30 38 H -9.818900 22.676100 -28.242600 0
M  V30 END ATOM
M  V30 BEGIN BOND
M  V30 1 2 1 2
M  V30 2 2 1 3
M  V30 3 1 1 6
M  V30 4 1 1 17
M  V30 5 1 4 8
M  V30 6 1 4 10
M  V30 7 2 5 9
M  V30 8 1 5 11
M  V30 9 1 6 12
M  V30 10 1 6 18
M  V30 11 1 7 18
M  V30 12 1 8 12
M  V30 13 1 9 14
M  V30 14 1 10 18
M  V30 15 2 11 19
M  V30 16 1 13 15
M  V30 17 2 13 16
M  V30 18 2 14 20
M  V30 19 2 15 17
M  V30 20 1 16 19
M  V30 21 1 17 20
M  V30 22 1 19 20
M  V30 23 1 4 21
M  V30 24 1 7 22
M  V30 25 1 7 23
M  V30 26 1 7 24
M  V30 27 1 8 25
M  V30 28 1 8 26
M  V30 29 1 9 27
M  V30 30 1 10 28
M  V30 31 1 10 29
M  V30 32 1 11 30
M  V30 33 1 12 31
M  V30 34 1 12 32
M  V30 35 1 13 33
M  V30 36 1 14 34
M  V30 37 1 15 35
M  V30 38 1 16 36
M  V30 39 1 18 37 CFG=3
M  V30 40 1 4 38
M  V30 END BOND
M  V30 END CTAB
M  END
>  <Ligand_Instance>  (181) 
5LCU_IQP_A_401

>  <Dataset>  (181) 
PDB

>  <PDB_ID>  (181) 
5LCU

>  <Chain>  (181) 
A

>  <Resi>  (181) 
401

>  <Num_Resolved_Atoms>  (181) 
20

>  <Num_H_Atoms_ProtBoundConf>  (181) 
18

>  <Pocket>  (181) 
A

>  <Name>  (181) 
1-(5-ISOQUINOLINESULFONYL)-2-METHYLPIPERAZINE

>  <Num_Not_Resolved_Atoms>  (181) 
0

>  <ATP_Site>  (181) 
True

>  <Peripheral>  (181) 
False

>  <Standardized_SMILES>  (181) 
[H]C1=NC([H])=C2C([H])=C([H])C([H])=C(S(=O)(=O)N3C([H])([H])C([H])([H])[N+]([H])([H])C([H])([H])[C@]3([H])C([H])([H])[H])C2=C1[H]

>  <2D_Mol_H>  (181) 
<rdkit.Chem.rdchem.Mol object at 0x77059d81c040>

>  <MW>  (181) 
292.384

>  <HBA>  (181) 
3

>  <HBD>  (181) 
1

>  <LogP>  (181) 
0.191

>  <NRB>  (181) 
3

>  <TPSA>  (181) 
66.88

>  <Num_Heavy_Atoms>  (181) 
20

>  <Ro5>  (181) 
[True, True, True, True, True, True]

>  <Ro5_Fulfilled>  (181) 
True

>  <Ro3>  (181) 
[True, True, True, True]

>  <Ro3_Fulfilled>  (181) 
True

>  <Fsp3>  (181) 
0.357143

>  <Fsp3_0.42>  (181) 
False

>  <Fsp3_0.45>  (181) 
False

>  <Stereogenic_Carbons>  (181) 
1

>  <C_Atoms>  (181) 
14

>  <FCStereo>  (181) 
0.071429

>  <SPS>  (181) 
423

>  <nSPS>  (181) 
21.15

>  <PBF>  (181) 
0.849107

>  <PBF_0.6>  (181) 
True

>  <nPBF>  (181) 
0.042455

>  <nPBF_0.016>  (181) 
True

>  <PMI1>  (181) 
721.094978

>  <PMI2>  (181) 
2407.659371

>  <PMI3>  (181) 
2733.334656

>  <NPR1>  (181) 
0.263815

>  <NPR2>  (181) 
0.880851

>  <Sum_NPR>  (181) 
1.144666

>  <Sum_NPR_1.07>  (181) 
True

>  <Sum_NPR_1.2>  (181) 
False

>  <MaxAbsEStateIndex>  (181) 
12.903253

>  <MaxEStateIndex>  (181) 
12.903253

>  <MinAbsEStateIndex>  (181) 
0.019299

>  <MinEStateIndex>  (181) 
-3.452269

>  <qed>  (181) 
0.859119

>  <MolWt>  (181) 
292.384

>  <HeavyAtomMolWt>  (181) 
274.24

>  <ExactMolWt>  (181) 
292.111424

>  <NumValenceElectrons>  (181) 
106

>  <NumRadicalElectrons>  (181) 
0

>  <MaxPartialCharge>  (181) 
0.243846

>  <MinPartialCharge>  (181) 
-0.343838

>  <MaxAbsPartialCharge>  (181) 
0.343838

>  <MinAbsPartialCharge>  (181) 
0.243846

>  <FpDensityMorgan1>  (181) 
1.35

>  <FpDensityMorgan2>  (181) 
2.2

>  <FpDensityMorgan3>  (181) 
3.0

>  <BCUT2D_MWHI>  (181) 
32.233428

>  <BCUT2D_MWLOW>  (181) 
10.168204

>  <BCUT2D_CHGHI>  (181) 
2.33008

>  <BCUT2D_CHGLO>  (181) 
-2.3047

>  <BCUT2D_LOGPHI>  (181) 
2.257115

>  <BCUT2D_LOGPLOW>  (181) 
-2.910992

>  <BCUT2D_MRHI>  (181) 
7.889883

>  <BCUT2D_MRLOW>  (181) 
-0.665891

>  <AvgIpc>  (181) 
2.466246

>  <BalabanJ>  (181) 
2.137974

>  <BertzCT>  (181) 
724.781365

>  <Chi0>  (181) 
14.164926

>  <Chi0n>  (181) 
11.359295

>  <Chi0v>  (181) 
12.175791

>  <Chi1>  (181) 
9.60419

>  <Chi1n>  (181) 
6.767652

>  <Chi1v>  (181) 
8.207715

>  <Chi2n>  (181) 
5.13079

>  <Chi2v>  (181) 
6.989766

>  <Chi3n>  (181) 
3.780379

>  <Chi3v>  (181) 
5.852112

>  <Chi4n>  (181) 
2.716705

>  <Chi4v>  (181) 
4.589316

>  <HallKierAlpha>  (181) 
-1.5

>  <Ipc>  (181) 
45916.573653

>  <Kappa1>  (181) 
13.481559

>  <Kappa2>  (181) 
5.121607

>  <Kappa3>  (181) 
2.194671

>  <LabuteASA>  (181) 
118.222067

>  <PEOE_VSA1>  (181) 
5.316789

>  <PEOE_VSA10>  (181) 
0.0

>  <PEOE_VSA11>  (181) 
0.0

>  <PEOE_VSA12>  (181) 
10.023291

>  <PEOE_VSA13>  (181) 
0.0

>  <PEOE_VSA14>  (181) 
0.0

>  <PEOE_VSA2>  (181) 
4.983979

>  <PEOE_VSA3>  (181) 
8.417797

>  <PEOE_VSA4>  (181) 
4.305216

>  <PEOE_VSA5>  (181) 
0.0

>  <PEOE_VSA6>  (181) 
12.132734

>  <PEOE_VSA7>  (181) 
19.056471

>  <PEOE_VSA8>  (181) 
23.166136

>  <PEOE_VSA9>  (181) 
30.571594

>  <SMR_VSA1>  (181) 
13.734586

>  <SMR_VSA10>  (181) 
20.79574

>  <SMR_VSA2>  (181) 
0.0

>  <SMR_VSA3>  (181) 
9.289195

>  <SMR_VSA4>  (181) 
0.0

>  <SMR_VSA5>  (181) 
17.861062

>  <SMR_VSA6>  (181) 
19.634269

>  <SMR_VSA7>  (181) 
36.659155

>  <SMR_VSA8>  (181) 
0.0

>  <SMR_VSA9>  (181) 
0.0

>  <SlogP_VSA1>  (181) 
5.316789

>  <SlogP_VSA10>  (181) 
0.0

>  <SlogP_VSA11>  (181) 
0.0

>  <SlogP_VSA12>  (181) 
0.0

>  <SlogP_VSA2>  (181) 
43.383102

>  <SlogP_VSA3>  (181) 
10.023291

>  <SlogP_VSA4>  (181) 
0.0

>  <SlogP_VSA5>  (181) 
6.923737

>  <SlogP_VSA6>  (181) 
41.554639

>  <SlogP_VSA7>  (181) 
0.0

>  <SlogP_VSA8>  (181) 
10.772448

>  <SlogP_VSA9>  (181) 
0.0

>  <EState_VSA1>  (181) 
10.023291

>  <EState_VSA10>  (181) 
8.417797

>  <EState_VSA11>  (181) 
0.0

>  <EState_VSA2>  (181) 
6.041841

>  <EState_VSA3>  (181) 
11.44024

>  <EState_VSA4>  (181) 
23.861961

>  <EState_VSA5>  (181) 
0.0

>  <EState_VSA6>  (181) 
34.898004

>  <EState_VSA7>  (181) 
12.990104

>  <EState_VSA8>  (181) 
10.300767

>  <EState_VSA9>  (181) 
0.0

>  <VSA_EState1>  (181) 
27.419802

>  <VSA_EState10>  (181) 
0.0

>  <VSA_EState2>  (181) 
4.430773

>  <VSA_EState3>  (181) 
3.748171

>  <VSA_EState4>  (181) 
0.0

>  <VSA_EState5>  (181) 
0.0

>  <VSA_EState6>  (181) 
7.128485

>  <VSA_EState7>  (181) 
3.329888

>  <VSA_EState8>  (181) 
4.145149

>  <VSA_EState9>  (181) 
-3.452269

>  <FractionCSP3>  (181) 
0.357143

>  <HeavyAtomCount>  (181) 
20

>  <NHOHCount>  (181) 
2

>  <NOCount>  (181) 
5

>  <NumAliphaticCarbocycles>  (181) 
0

>  <NumAliphaticHeterocycles>  (181) 
1

>  <NumAliphaticRings>  (181) 
1

>  <NumAromaticCarbocycles>  (181) 
1

>  <NumAromaticHeterocycles>  (181) 
1

>  <NumAromaticRings>  (181) 
2

>  <NumHAcceptors>  (181) 
3

>  <NumHDonors>  (181) 
1

>  <NumHeteroatoms>  (181) 
6

>  <NumRotatableBonds>  (181) 
2

>  <NumSaturatedCarbocycles>  (181) 
0

>  <NumSaturatedHeterocycles>  (181) 
1

>  <NumSaturatedRings>  (181) 
1

>  <RingCount>  (181) 
3

>  <MolLogP>  (181) 
0.191

>  <MolMR>  (181) 
76.7562

>  <fr_Al_COO>  (181) 
0

>  <fr_Al_OH>  (181) 
0

>  <fr_Al_OH_noTert>  (181) 
0

>  <fr_ArN>  (181) 
0

>  <fr_Ar_COO>  (181) 
0

>  <fr_Ar_N>  (181) 
1

>  <fr_Ar_NH>  (181) 
0

>  <fr_Ar_OH>  (181) 
0

>  <fr_COO>  (181) 
0

>  <fr_COO2>  (181) 
0

>  <fr_C_O>  (181) 
0

>  <fr_C_O_noCOO>  (181) 
0

>  <fr_C_S>  (181) 
0

>  <fr_HOCCN>  (181) 
0

>  <fr_Imine>  (181) 
0

>  <fr_NH0>  (181) 
2

>  <fr_NH1>  (181) 
0

>  <fr_NH2>  (181) 
1

>  <fr_N_O>  (181) 
0

>  <fr_Ndealkylation1>  (181) 
0

>  <fr_Ndealkylation2>  (181) 
0

>  <fr_Nhpyrrole>  (181) 
0

>  <fr_SH>  (181) 
0

>  <fr_aldehyde>  (181) 
0

>  <fr_alkyl_carbamate>  (181) 
0

>  <fr_alkyl_halide>  (181) 
0

>  <fr_allylic_oxid>  (181) 
0

>  <fr_amide>  (181) 
0

>  <fr_amidine>  (181) 
0

>  <fr_aniline>  (181) 
0

>  <fr_aryl_methyl>  (181) 
0

>  <fr_azide>  (181) 
0

>  <fr_azo>  (181) 
0

>  <fr_barbitur>  (181) 
0

>  <fr_benzene>  (181) 
1

>  <fr_benzodiazepine>  (181) 
0

>  <fr_bicyclic>  (181) 
1

>  <fr_diazo>  (181) 
0

>  <fr_dihydropyridine>  (181) 
0

>  <fr_epoxide>  (181) 
0

>  <fr_ester>  (181) 
0

>  <fr_ether>  (181) 
0

>  <fr_furan>  (181) 
0

>  <fr_guanido>  (181) 
0

>  <fr_halogen>  (181) 
0

>  <fr_hdrzine>  (181) 
0

>  <fr_hdrzone>  (181) 
0

>  <fr_imidazole>  (181) 
0

>  <fr_imide>  (181) 
0

>  <fr_isocyan>  (181) 
0

>  <fr_isothiocyan>  (181) 
0

>  <fr_ketone>  (181) 
0

>  <fr_ketone_Topliss>  (181) 
0

>  <fr_lactam>  (181) 
0

>  <fr_lactone>  (181) 
0

>  <fr_methoxy>  (181) 
0

>  <fr_morpholine>  (181) 
0

>  <fr_nitrile>  (181) 
0

>  <fr_nitro>  (181) 
0

>  <fr_nitro_arom>  (181) 
0

>  <fr_nitro_arom_nonortho>  (181) 
0

>  <fr_nitroso>  (181) 
0

>  <fr_oxazole>  (181) 
0

>  <fr_oxime>  (181) 
0

>  <fr_para_hydroxylation>  (181) 
0

>  <fr_phenol>  (181) 
0

>  <fr_phenol_noOrthoHbond>  (181) 
0

>  <fr_phos_acid>  (181) 
0

>  <fr_phos_ester>  (181) 
0

>  <fr_piperdine>  (181) 
0

>  <fr_piperzine>  (181) 
1

>  <fr_priamide>  (181) 
0

>  <fr_prisulfonamd>  (181) 
0

>  <fr_pyridine>  (181) 
1

>  <fr_quatN>  (181) 
1

>  <fr_sulfide>  (181) 
0

>  <fr_sulfonamd>  (181) 
1

>  <fr_sulfone>  (181) 
0

>  <fr_term_acetylene>  (181) 
0

>  <fr_tetrazole>  (181) 
0

>  <fr_thiazole>  (181) 
0

>  <fr_thiocyan>  (181) 
0

>  <fr_thiophene>  (181) 
0

>  <fr_unbrch_alkane>  (181) 
0

>  <fr_urea>  (181) 
0

>  <NP_Likeness>  (181) 
-1.165265

$$$$
IQU
     RDKit          3D

  0  0  0  0  0  0  0  0  0  0999 V3000
M  V30 BEGIN CTAB
M  V30 COUNTS 31 32 0 0 0
M  V30 BEGIN ATOM
M  V30 1 S 13.017000 -23.897000 -27.953000 0
M  V30 2 O 13.768000 -24.073000 -29.154000 0
M  V30 3 O 12.540000 -25.049000 -27.245000 0
M  V30 4 N 8.773000 -23.101000 -28.967000 0 CHG=1
M  V30 5 N 11.707000 -23.032000 -28.353000 0
M  V30 6 N 16.745000 -24.653000 -24.089000 0
M  V30 7 C 9.434000 -22.144000 -28.034000 0
M  V30 8 C 10.648000 -22.766000 -27.372000 0
M  V30 9 C 16.020000 -25.429000 -24.912000 0
M  V30 10 C 16.592000 -23.340000 -24.193000 0
M  V30 11 C 14.681000 -20.757000 -26.105000 0
M  V30 12 C 15.130000 -24.949000 -25.827000 0
M  V30 13 C 13.901000 -21.572000 -26.917000 0
M  V30 14 C 15.562000 -21.302000 -25.211000 0
M  V30 15 C 14.016000 -22.932000 -26.851000 0
M  V30 16 C 15.707000 -22.711000 -25.101000 0
M  V30 17 C 14.933000 -23.556000 -25.945000 0
M  V30 18 H 7.978200 -22.662400 -29.386500 0
M  V30 19 H 9.419600 -23.371600 -29.680200 0
M  V30 20 H 12.038500 -22.140600 -28.662200 0
M  V30 21 H 8.780100 -21.874700 -27.327000 0
M  V30 22 H 9.721800 -21.335500 -28.547300 0
M  V30 23 H 10.997600 -22.138800 -26.676000 0
M  V30 24 H 10.379200 -23.626900 -26.940100 0
M  V30 25 H 16.140500 -26.419800 -24.849700 0
M  V30 26 H 17.137100 -22.756500 -23.591000 0
M  V30 27 H 14.597500 -19.762900 -26.174800 0
M  V30 28 H 14.619700 -25.580200 -26.411100 0
M  V30 29 H 13.250400 -21.159700 -27.554700 0
M  V30 30 H 16.110000 -20.701700 -24.628500 0
M  V30 31 H 8.477900 -23.910800 -28.460000 0
M  V30 END ATOM
M  V30 BEGIN BOND
M  V30 1 2 1 2
M  V30 2 2 1 3
M  V30 3 1 1 5
M  V30 4 1 1 15
M  V30 5 1 4 7
M  V30 6 1 5 8
M  V30 7 2 6 9
M  V30 8 1 6 10
M  V30 9 1 7 8
M  V30 10 1 9 12
M  V30 11 2 10 16
M  V30 12 1 11 13
M  V30 13 2 11 14
M  V30 14 2 12 17
M  V30 15 2 13 15
M  V30 16 1 14 16
M  V30 17 1 15 17
M  V30 18 1 16 17
M  V30 19 1 4 18
M  V30 20 1 4 19
M  V30 21 1 5 20
M  V30 22 1 7 21
M  V30 23 1 7 22
M  V30 24 1 8 23
M  V30 25 1 8 24
M  V30 26 1 9 25
M  V30 27 1 10 26
M  V30 28 1 11 27
M  V30 29 1 12 28
M  V30 30 1 13 29
M  V30 31 1 14 30
M  V30 32 1 4 31
M  V30 END BOND
M  V30 END CTAB
M  END
>  <Ligand_Instance>  (182) 
5M0B_IQU_A_401

>  <Dataset>  (182) 
PDB

>  <PDB_ID>  (182) 
5M0B

>  <Chain>  (182) 
A

>  <Resi>  (182) 
401

>  <Num_Resolved_Atoms>  (182) 
17

>  <Num_H_Atoms_ProtBoundConf>  (182) 
14

>  <Pocket>  (182) 
A

>  <Name>  (182) 
N-(2-AMINOETHYL)ISOQUINOLINE-5-SULFONAMIDE

>  <Num_Not_Resolved_Atoms>  (182) 
0

>  <ATP_Site>  (182) 
True

>  <Peripheral>  (182) 
False

>  <Standardized_SMILES>  (182) 
[H]C1=NC([H])=C2C([H])=C([H])C([H])=C(S(=O)(=O)N([H])C([H])([H])C([H])([H])[N+]([H])([H])[H])C2=C1[H]

>  <2D_Mol_H>  (182) 
<rdkit.Chem.rdchem.Mol object at 0x77059d81c120>

>  <MW>  (182) 
252.319

>  <HBA>  (182) 
3

>  <HBD>  (182) 
2

>  <LogP>  (182) 
-0.245

>  <NRB>  (182) 
5

>  <TPSA>  (182) 
86.7

>  <Num_Heavy_Atoms>  (182) 
17

>  <Ro5>  (182) 
[True, True, True, True, True, True]

>  <Ro5_Fulfilled>  (182) 
True

>  <Ro3>  (182) 
[True, True, True, True]

>  <Ro3_Fulfilled>  (182) 
True

>  <Fsp3>  (182) 
0.181818

>  <Fsp3_0.42>  (182) 
False

>  <Fsp3_0.45>  (182) 
False

>  <Stereogenic_Carbons>  (182) 
0

>  <C_Atoms>  (182) 
11

>  <FCStereo>  (182) 
0.0

>  <SPS>  (182) 
201

>  <nSPS>  (182) 
11.823529

>  <PBF>  (182) 
0.601325

>  <PBF_0.6>  (182) 
True

>  <nPBF>  (182) 
0.035372

>  <nPBF_0.016>  (182) 
True

>  <PMI1>  (182) 
561.66112

>  <PMI2>  (182) 
1985.369418

>  <PMI3>  (182) 
2257.475621

>  <NPR1>  (182) 
0.248801

>  <NPR2>  (182) 
0.879464

>  <Sum_NPR>  (182) 
1.128265

>  <Sum_NPR_1.07>  (182) 
True

>  <Sum_NPR_1.2>  (182) 
False

>  <MaxAbsEStateIndex>  (182) 
12.045753

>  <MaxEStateIndex>  (182) 
12.045753

>  <MinAbsEStateIndex>  (182) 
0.283194

>  <MinEStateIndex>  (182) 
-3.466806

>  <qed>  (182) 
0.786689

>  <MolWt>  (182) 
252.319

>  <HeavyAtomMolWt>  (182) 
238.207

>  <ExactMolWt>  (182) 
252.080124

>  <NumValenceElectrons>  (182) 
90

>  <NumRadicalElectrons>  (182) 
0

>  <MaxPartialCharge>  (182) 
0.240888

>  <MinPartialCharge>  (182) 
-0.356475

>  <MaxAbsPartialCharge>  (182) 
0.356475

>  <MinAbsPartialCharge>  (182) 
0.240888

>  <FpDensityMorgan1>  (182) 
1.294118

>  <FpDensityMorgan2>  (182) 
2.117647

>  <FpDensityMorgan3>  (182) 
2.882353

>  <BCUT2D_MWHI>  (182) 
32.233271

>  <BCUT2D_MWLOW>  (182) 
10.168345

>  <BCUT2D_CHGHI>  (182) 
2.156912

>  <BCUT2D_CHGLO>  (182) 
-2.073012

>  <BCUT2D_LOGPHI>  (182) 
2.209026

>  <BCUT2D_LOGPLOW>  (182) 
-2.543737

>  <BCUT2D_MRHI>  (182) 
7.893353

>  <BCUT2D_MRLOW>  (182) 
-0.363949

>  <AvgIpc>  (182) 
2.355161

>  <BalabanJ>  (182) 
2.554624

>  <BertzCT>  (182) 
620.154078

>  <Chi0>  (182) 
12.303119

>  <Chi0n>  (182) 
9.25738

>  <Chi0v>  (182) 
10.073877

>  <Chi1>  (182) 
8.148995

>  <Chi1n>  (182) 
5.266233

>  <Chi1v>  (182) 
6.749397

>  <Chi2n>  (182) 
3.604287

>  <Chi2v>  (182) 
5.339662

>  <Chi3n>  (182) 
2.399109

>  <Chi3v>  (182) 
3.918299

>  <Chi4n>  (182) 
1.611449

>  <Chi4v>  (182) 
2.913145

>  <HallKierAlpha>  (182) 
-1.5

>  <Ipc>  (182) 
8101.75473

>  <Kappa1>  (182) 
11.970156

>  <Kappa2>  (182) 
4.785197

>  <Kappa3>  (182) 
2.435501

>  <LabuteASA>  (182) 
99.713129

>  <PEOE_VSA1>  (182) 
5.733667

>  <PEOE_VSA10>  (182) 
0.0

>  <PEOE_VSA11>  (182) 
0.0

>  <PEOE_VSA12>  (182) 
10.023291

>  <PEOE_VSA13>  (182) 
0.0

>  <PEOE_VSA14>  (182) 
0.0

>  <PEOE_VSA2>  (182) 
4.983979

>  <PEOE_VSA3>  (182) 
13.139892

>  <PEOE_VSA4>  (182) 
0.0

>  <PEOE_VSA5>  (182) 
0.0

>  <PEOE_VSA6>  (182) 
12.132734

>  <PEOE_VSA7>  (182) 
12.132734

>  <PEOE_VSA8>  (182) 
23.166136

>  <PEOE_VSA9>  (182) 
17.984996

>  <SMR_VSA1>  (182) 
14.151464

>  <SMR_VSA10>  (182) 
20.79574

>  <SMR_VSA2>  (182) 
0.0

>  <SMR_VSA3>  (182) 
9.706073

>  <SMR_VSA4>  (182) 
0.0

>  <SMR_VSA5>  (182) 
4.895483

>  <SMR_VSA6>  (182) 
13.089513

>  <SMR_VSA7>  (182) 
36.659155

>  <SMR_VSA8>  (182) 
0.0

>  <SMR_VSA9>  (182) 
0.0

>  <SlogP_VSA1>  (182) 
10.455762

>  <SlogP_VSA10>  (182) 
0.0

>  <SlogP_VSA11>  (182) 
0.0

>  <SlogP_VSA12>  (182) 
0.0

>  <SlogP_VSA2>  (182) 
26.491288

>  <SlogP_VSA3>  (182) 
10.023291

>  <SlogP_VSA4>  (182) 
0.0

>  <SlogP_VSA5>  (182) 
0.0

>  <SlogP_VSA6>  (182) 
41.554639

>  <SlogP_VSA7>  (182) 
0.0

>  <SlogP_VSA8>  (182) 
10.772448

>  <SlogP_VSA9>  (182) 
0.0

>  <EState_VSA1>  (182) 
10.023291

>  <EState_VSA10>  (182) 
8.417797

>  <EState_VSA11>  (182) 
0.0

>  <EState_VSA2>  (182) 
4.895483

>  <EState_VSA3>  (182) 
18.475737

>  <EState_VSA4>  (182) 
5.386224

>  <EState_VSA5>  (182) 
0.0

>  <EState_VSA6>  (182) 
30.592788

>  <EState_VSA7>  (182) 
6.066367

>  <EState_VSA8>  (182) 
15.439741

>  <EState_VSA9>  (182) 
0.0

>  <VSA_EState1>  (182) 
26.597922

>  <VSA_EState10>  (182) 
0.0

>  <VSA_EState2>  (182) 
4.256163

>  <VSA_EState3>  (182) 
1.489871

>  <VSA_EState4>  (182) 
3.607804

>  <VSA_EState5>  (182) 
0.0

>  <VSA_EState6>  (182) 
6.840625

>  <VSA_EState7>  (182) 
3.234583

>  <VSA_EState8>  (182) 
0.856504

>  <VSA_EState9>  (182) 
-3.466806

>  <FractionCSP3>  (182) 
0.181818

>  <HeavyAtomCount>  (182) 
17

>  <NHOHCount>  (182) 
4

>  <NOCount>  (182) 
5

>  <NumAliphaticCarbocycles>  (182) 
0

>  <NumAliphaticHeterocycles>  (182) 
0

>  <NumAliphaticRings>  (182) 
0

>  <NumAromaticCarbocycles>  (182) 
1

>  <NumAromaticHeterocycles>  (182) 
1

>  <NumAromaticRings>  (182) 
2

>  <NumHAcceptors>  (182) 
3

>  <NumHDonors>  (182) 
2

>  <NumHeteroatoms>  (182) 
6

>  <NumRotatableBonds>  (182) 
4

>  <NumSaturatedCarbocycles>  (182) 
0

>  <NumSaturatedHeterocycles>  (182) 
0

>  <NumSaturatedRings>  (182) 
0

>  <RingCount>  (182) 
2

>  <MolLogP>  (182) 
-0.245

>  <MolMR>  (182) 
64.6866

>  <fr_Al_COO>  (182) 
0

>  <fr_Al_OH>  (182) 
0

>  <fr_Al_OH_noTert>  (182) 
0

>  <fr_ArN>  (182) 
0

>  <fr_Ar_COO>  (182) 
0

>  <fr_Ar_N>  (182) 
1

>  <fr_Ar_NH>  (182) 
0

>  <fr_Ar_OH>  (182) 
0

>  <fr_COO>  (182) 
0

>  <fr_COO2>  (182) 
0

>  <fr_C_O>  (182) 
0

>  <fr_C_O_noCOO>  (182) 
0

>  <fr_C_S>  (182) 
0

>  <fr_HOCCN>  (182) 
0

>  <fr_Imine>  (182) 
0

>  <fr_NH0>  (182) 
1

>  <fr_NH1>  (182) 
1

>  <fr_NH2>  (182) 
0

>  <fr_N_O>  (182) 
0

>  <fr_Ndealkylation1>  (182) 
0

>  <fr_Ndealkylation2>  (182) 
0

>  <fr_Nhpyrrole>  (182) 
0

>  <fr_SH>  (182) 
0

>  <fr_aldehyde>  (182) 
0

>  <fr_alkyl_carbamate>  (182) 
0

>  <fr_alkyl_halide>  (182) 
0

>  <fr_allylic_oxid>  (182) 
0

>  <fr_amide>  (182) 
0

>  <fr_amidine>  (182) 
0

>  <fr_aniline>  (182) 
0

>  <fr_aryl_methyl>  (182) 
0

>  <fr_azide>  (182) 
0

>  <fr_azo>  (182) 
0

>  <fr_barbitur>  (182) 
0

>  <fr_benzene>  (182) 
1

>  <fr_benzodiazepine>  (182) 
0

>  <fr_bicyclic>  (182) 
1

>  <fr_diazo>  (182) 
0

>  <fr_dihydropyridine>  (182) 
0

>  <fr_epoxide>  (182) 
0

>  <fr_ester>  (182) 
0

>  <fr_ether>  (182) 
0

>  <fr_furan>  (182) 
0

>  <fr_guanido>  (182) 
0

>  <fr_halogen>  (182) 
0

>  <fr_hdrzine>  (182) 
0

>  <fr_hdrzone>  (182) 
0

>  <fr_imidazole>  (182) 
0

>  <fr_imide>  (182) 
0

>  <fr_isocyan>  (182) 
0

>  <fr_isothiocyan>  (182) 
0

>  <fr_ketone>  (182) 
0

>  <fr_ketone_Topliss>  (182) 
0

>  <fr_lactam>  (182) 
0

>  <fr_lactone>  (182) 
0

>  <fr_methoxy>  (182) 
0

>  <fr_morpholine>  (182) 
0

>  <fr_nitrile>  (182) 
0

>  <fr_nitro>  (182) 
0

>  <fr_nitro_arom>  (182) 
0

>  <fr_nitro_arom_nonortho>  (182) 
0

>  <fr_nitroso>  (182) 
0

>  <fr_oxazole>  (182) 
0

>  <fr_oxime>  (182) 
0

>  <fr_para_hydroxylation>  (182) 
0

>  <fr_phenol>  (182) 
0

>  <fr_phenol_noOrthoHbond>  (182) 
0

>  <fr_phos_acid>  (182) 
0

>  <fr_phos_ester>  (182) 
0

>  <fr_piperdine>  (182) 
0

>  <fr_piperzine>  (182) 
0

>  <fr_priamide>  (182) 
0

>  <fr_prisulfonamd>  (182) 
0

>  <fr_pyridine>  (182) 
1

>  <fr_quatN>  (182) 
1

>  <fr_sulfide>  (182) 
0

>  <fr_sulfonamd>  (182) 
1

>  <fr_sulfone>  (182) 
0

>  <fr_term_acetylene>  (182) 
0

>  <fr_tetrazole>  (182) 
0

>  <fr_thiazole>  (182) 
0

>  <fr_thiocyan>  (182) 
0

>  <fr_thiophene>  (182) 
0

>  <fr_unbrch_alkane>  (182) 
0

>  <fr_urea>  (182) 
0

>  <NP_Likeness>  (182) 
-1.492609

$$$$
IQU
     RDKit          3D

  0  0  0  0  0  0  0  0  0  0999 V3000
M  V30 BEGIN CTAB
M  V30 COUNTS 31 32 0 0 0
M  V30 BEGIN ATOM
M  V30 1 S -12.930000 -25.805000 26.965000 0
M  V30 2 O -12.434000 -24.801000 27.858000 0
M  V30 3 O -13.534000 -26.984000 27.486000 0
M  V30 4 N -8.964000 -23.949000 26.960000 0 CHG=1
M  V30 5 N -11.679000 -26.279000 26.058000 0
M  V30 6 N -16.607000 -26.881000 23.094000 0
M  V30 7 C -9.580000 -25.289000 26.863000 0
M  V30 8 C -10.608000 -25.339000 25.753000 0
M  V30 9 C -15.781000 -27.599000 23.879000 0
M  V30 10 C -16.587000 -25.560000 23.232000 0
M  V30 11 C -14.853000 -22.843000 25.108000 0
M  V30 12 C -14.953000 -27.060000 24.817000 0
M  V30 13 C -14.025000 -23.585000 25.931000 0
M  V30 14 C -15.700000 -23.458000 24.239000 0
M  V30 15 C -14.039000 -24.952000 25.878000 0
M  V30 16 C -15.750000 -24.871000 24.145000 0
M  V30 17 C -14.905000 -25.653000 24.976000 0
M  V30 18 H -8.697200 -23.772600 27.907500 0
M  V30 19 H -8.155100 -23.910700 26.373300 0
M  V30 20 H -11.258100 -27.054800 26.528100 0
M  V30 21 H -10.026200 -25.506600 27.731100 0
M  V30 22 H -8.865800 -25.963800 26.677000 0
M  V30 23 H -11.000600 -24.427200 25.632500 0
M  V30 24 H -10.158100 -25.622800 24.906200 0
M  V30 25 H -15.775100 -28.592600 23.765900 0
M  V30 26 H -17.199900 -25.018600 22.656600 0
M  V30 27 H -14.828700 -21.844300 25.152300 0
M  V30 28 H -14.384300 -27.652000 25.388100 0
M  V30 29 H -13.412000 -23.119000 26.569100 0
M  V30 30 H -16.296400 -22.904500 23.657700 0
M  V30 31 H -9.622900 -23.257100 26.664900 0
M  V30 END ATOM
M  V30 BEGIN BOND
M  V30 1 2 1 2
M  V30 2 2 1 3
M  V30 3 1 1 5
M  V30 4 1 1 15
M  V30 5 1 4 7
M  V30 6 1 5 8
M  V30 7 2 6 9
M  V30 8 1 6 10
M  V30 9 1 7 8
M  V30 10 1 9 12
M  V30 11 2 10 16
M  V30 12 1 11 13
M  V30 13 2 11 14
M  V30 14 2 12 17
M  V30 15 2 13 15
M  V30 16 1 14 16
M  V30 17 1 15 17
M  V30 18 1 16 17
M  V30 19 1 4 18
M  V30 20 1 4 19
M  V30 21 1 5 20
M  V30 22 1 7 21
M  V30 23 1 7 22
M  V30 24 1 8 23
M  V30 25 1 8 24
M  V30 26 1 9 25
M  V30 27 1 10 26
M  V30 28 1 11 27
M  V30 29 1 12 28
M  V30 30 1 13 29
M  V30 31 1 14 30
M  V30 32 1 4 31
M  V30 END BOND
M  V30 END CTAB
M  END
>  <Ligand_Instance>  (183) 
6YNB_IQU_A_401

>  <Dataset>  (183) 
PDB

>  <PDB_ID>  (183) 
6YNB

>  <Chain>  (183) 
A

>  <Resi>  (183) 
401

>  <Num_Resolved_Atoms>  (183) 
17

>  <Num_H_Atoms_ProtBoundConf>  (183) 
14

>  <Pocket>  (183) 
A

>  <Name>  (183) 
N-(2-AMINOETHYL)ISOQUINOLINE-5-SULFONAMIDE

>  <Num_Not_Resolved_Atoms>  (183) 
0

>  <ATP_Site>  (183) 
True

>  <Peripheral>  (183) 
False

>  <Standardized_SMILES>  (183) 
[H]C1=NC([H])=C2C([H])=C([H])C([H])=C(S(=O)(=O)N([H])C([H])([H])C([H])([H])[N+]([H])([H])[H])C2=C1[H]

>  <2D_Mol_H>  (183) 
<rdkit.Chem.rdchem.Mol object at 0x77059d81c200>

>  <MW>  (183) 
252.319

>  <HBA>  (183) 
3

>  <HBD>  (183) 
2

>  <LogP>  (183) 
-0.245

>  <NRB>  (183) 
5

>  <TPSA>  (183) 
86.7

>  <Num_Heavy_Atoms>  (183) 
17

>  <Ro5>  (183) 
[True, True, True, True, True, True]

>  <Ro5_Fulfilled>  (183) 
True

>  <Ro3>  (183) 
[True, True, True, True]

>  <Ro3_Fulfilled>  (183) 
True

>  <Fsp3>  (183) 
0.181818

>  <Fsp3_0.42>  (183) 
False

>  <Fsp3_0.45>  (183) 
False

>  <Stereogenic_Carbons>  (183) 
0

>  <C_Atoms>  (183) 
11

>  <FCStereo>  (183) 
0.0

>  <SPS>  (183) 
201

>  <nSPS>  (183) 
11.823529

>  <PBF>  (183) 
0.663792

>  <PBF_0.6>  (183) 
True

>  <nPBF>  (183) 
0.039047

>  <nPBF_0.016>  (183) 
True

>  <PMI1>  (183) 
603.023598

>  <PMI2>  (183) 
1859.128016

>  <PMI3>  (183) 
2096.852217

>  <NPR1>  (183) 
0.287585

>  <NPR2>  (183) 
0.886628

>  <Sum_NPR>  (183) 
1.174213

>  <Sum_NPR_1.07>  (183) 
True

>  <Sum_NPR_1.2>  (183) 
False

>  <MaxAbsEStateIndex>  (183) 
12.045753

>  <MaxEStateIndex>  (183) 
12.045753

>  <MinAbsEStateIndex>  (183) 
0.283194

>  <MinEStateIndex>  (183) 
-3.466806

>  <qed>  (183) 
0.786689

>  <MolWt>  (183) 
252.319

>  <HeavyAtomMolWt>  (183) 
238.207

>  <ExactMolWt>  (183) 
252.080124

>  <NumValenceElectrons>  (183) 
90

>  <NumRadicalElectrons>  (183) 
0

>  <MaxPartialCharge>  (183) 
0.240888

>  <MinPartialCharge>  (183) 
-0.356475

>  <MaxAbsPartialCharge>  (183) 
0.356475

>  <MinAbsPartialCharge>  (183) 
0.240888

>  <FpDensityMorgan1>  (183) 
1.294118

>  <FpDensityMorgan2>  (183) 
2.117647

>  <FpDensityMorgan3>  (183) 
2.882353

>  <BCUT2D_MWHI>  (183) 
32.233271

>  <BCUT2D_MWLOW>  (183) 
10.168345

>  <BCUT2D_CHGHI>  (183) 
2.156912

>  <BCUT2D_CHGLO>  (183) 
-2.073012

>  <BCUT2D_LOGPHI>  (183) 
2.209026

>  <BCUT2D_LOGPLOW>  (183) 
-2.543737

>  <BCUT2D_MRHI>  (183) 
7.893353

>  <BCUT2D_MRLOW>  (183) 
-0.363949

>  <AvgIpc>  (183) 
2.355161

>  <BalabanJ>  (183) 
2.554624

>  <BertzCT>  (183) 
620.154078

>  <Chi0>  (183) 
12.303119

>  <Chi0n>  (183) 
9.25738

>  <Chi0v>  (183) 
10.073877

>  <Chi1>  (183) 
8.148995

>  <Chi1n>  (183) 
5.266233

>  <Chi1v>  (183) 
6.749397

>  <Chi2n>  (183) 
3.604287

>  <Chi2v>  (183) 
5.339662

>  <Chi3n>  (183) 
2.399109

>  <Chi3v>  (183) 
3.918299

>  <Chi4n>  (183) 
1.611449

>  <Chi4v>  (183) 
2.913145

>  <HallKierAlpha>  (183) 
-1.5

>  <Ipc>  (183) 
8101.75473

>  <Kappa1>  (183) 
11.970156

>  <Kappa2>  (183) 
4.785197

>  <Kappa3>  (183) 
2.435501

>  <LabuteASA>  (183) 
99.713129

>  <PEOE_VSA1>  (183) 
5.733667

>  <PEOE_VSA10>  (183) 
0.0

>  <PEOE_VSA11>  (183) 
0.0

>  <PEOE_VSA12>  (183) 
10.023291

>  <PEOE_VSA13>  (183) 
0.0

>  <PEOE_VSA14>  (183) 
0.0

>  <PEOE_VSA2>  (183) 
4.983979

>  <PEOE_VSA3>  (183) 
13.139892

>  <PEOE_VSA4>  (183) 
0.0

>  <PEOE_VSA5>  (183) 
0.0

>  <PEOE_VSA6>  (183) 
12.132734

>  <PEOE_VSA7>  (183) 
12.132734

>  <PEOE_VSA8>  (183) 
23.166136

>  <PEOE_VSA9>  (183) 
17.984996

>  <SMR_VSA1>  (183) 
14.151464

>  <SMR_VSA10>  (183) 
20.79574

>  <SMR_VSA2>  (183) 
0.0

>  <SMR_VSA3>  (183) 
9.706073

>  <SMR_VSA4>  (183) 
0.0

>  <SMR_VSA5>  (183) 
4.895483

>  <SMR_VSA6>  (183) 
13.089513

>  <SMR_VSA7>  (183) 
36.659155

>  <SMR_VSA8>  (183) 
0.0

>  <SMR_VSA9>  (183) 
0.0

>  <SlogP_VSA1>  (183) 
10.455762

>  <SlogP_VSA10>  (183) 
0.0

>  <SlogP_VSA11>  (183) 
0.0

>  <SlogP_VSA12>  (183) 
0.0

>  <SlogP_VSA2>  (183) 
26.491288

>  <SlogP_VSA3>  (183) 
10.023291

>  <SlogP_VSA4>  (183) 
0.0

>  <SlogP_VSA5>  (183) 
0.0

>  <SlogP_VSA6>  (183) 
41.554639

>  <SlogP_VSA7>  (183) 
0.0

>  <SlogP_VSA8>  (183) 
10.772448

>  <SlogP_VSA9>  (183) 
0.0

>  <EState_VSA1>  (183) 
10.023291

>  <EState_VSA10>  (183) 
8.417797

>  <EState_VSA11>  (183) 
0.0

>  <EState_VSA2>  (183) 
4.895483

>  <EState_VSA3>  (183) 
18.475737

>  <EState_VSA4>  (183) 
5.386224

>  <EState_VSA5>  (183) 
0.0

>  <EState_VSA6>  (183) 
30.592788

>  <EState_VSA7>  (183) 
6.066367

>  <EState_VSA8>  (183) 
15.439741

>  <EState_VSA9>  (183) 
0.0

>  <VSA_EState1>  (183) 
26.597922

>  <VSA_EState10>  (183) 
0.0

>  <VSA_EState2>  (183) 
4.256163

>  <VSA_EState3>  (183) 
1.489871

>  <VSA_EState4>  (183) 
3.607804

>  <VSA_EState5>  (183) 
0.0

>  <VSA_EState6>  (183) 
6.840625

>  <VSA_EState7>  (183) 
3.234583

>  <VSA_EState8>  (183) 
0.856504

>  <VSA_EState9>  (183) 
-3.466806

>  <FractionCSP3>  (183) 
0.181818

>  <HeavyAtomCount>  (183) 
17

>  <NHOHCount>  (183) 
4

>  <NOCount>  (183) 
5

>  <NumAliphaticCarbocycles>  (183) 
0

>  <NumAliphaticHeterocycles>  (183) 
0

>  <NumAliphaticRings>  (183) 
0

>  <NumAromaticCarbocycles>  (183) 
1

>  <NumAromaticHeterocycles>  (183) 
1

>  <NumAromaticRings>  (183) 
2

>  <NumHAcceptors>  (183) 
3

>  <NumHDonors>  (183) 
2

>  <NumHeteroatoms>  (183) 
6

>  <NumRotatableBonds>  (183) 
4

>  <NumSaturatedCarbocycles>  (183) 
0

>  <NumSaturatedHeterocycles>  (183) 
0

>  <NumSaturatedRings>  (183) 
0

>  <RingCount>  (183) 
2

>  <MolLogP>  (183) 
-0.245

>  <MolMR>  (183) 
64.6866

>  <fr_Al_COO>  (183) 
0

>  <fr_Al_OH>  (183) 
0

>  <fr_Al_OH_noTert>  (183) 
0

>  <fr_ArN>  (183) 
0

>  <fr_Ar_COO>  (183) 
0

>  <fr_Ar_N>  (183) 
1

>  <fr_Ar_NH>  (183) 
0

>  <fr_Ar_OH>  (183) 
0

>  <fr_COO>  (183) 
0

>  <fr_COO2>  (183) 
0

>  <fr_C_O>  (183) 
0

>  <fr_C_O_noCOO>  (183) 
0

>  <fr_C_S>  (183) 
0

>  <fr_HOCCN>  (183) 
0

>  <fr_Imine>  (183) 
0

>  <fr_NH0>  (183) 
1

>  <fr_NH1>  (183) 
1

>  <fr_NH2>  (183) 
0

>  <fr_N_O>  (183) 
0

>  <fr_Ndealkylation1>  (183) 
0

>  <fr_Ndealkylation2>  (183) 
0

>  <fr_Nhpyrrole>  (183) 
0

>  <fr_SH>  (183) 
0

>  <fr_aldehyde>  (183) 
0

>  <fr_alkyl_carbamate>  (183) 
0

>  <fr_alkyl_halide>  (183) 
0

>  <fr_allylic_oxid>  (183) 
0

>  <fr_amide>  (183) 
0

>  <fr_amidine>  (183) 
0

>  <fr_aniline>  (183) 
0

>  <fr_aryl_methyl>  (183) 
0

>  <fr_azide>  (183) 
0

>  <fr_azo>  (183) 
0

>  <fr_barbitur>  (183) 
0

>  <fr_benzene>  (183) 
1

>  <fr_benzodiazepine>  (183) 
0

>  <fr_bicyclic>  (183) 
1

>  <fr_diazo>  (183) 
0

>  <fr_dihydropyridine>  (183) 
0

>  <fr_epoxide>  (183) 
0

>  <fr_ester>  (183) 
0

>  <fr_ether>  (183) 
0

>  <fr_furan>  (183) 
0

>  <fr_guanido>  (183) 
0

>  <fr_halogen>  (183) 
0

>  <fr_hdrzine>  (183) 
0

>  <fr_hdrzone>  (183) 
0

>  <fr_imidazole>  (183) 
0

>  <fr_imide>  (183) 
0

>  <fr_isocyan>  (183) 
0

>  <fr_isothiocyan>  (183) 
0

>  <fr_ketone>  (183) 
0

>  <fr_ketone_Topliss>  (183) 
0

>  <fr_lactam>  (183) 
0

>  <fr_lactone>  (183) 
0

>  <fr_methoxy>  (183) 
0

>  <fr_morpholine>  (183) 
0

>  <fr_nitrile>  (183) 
0

>  <fr_nitro>  (183) 
0

>  <fr_nitro_arom>  (183) 
0

>  <fr_nitro_arom_nonortho>  (183) 
0

>  <fr_nitroso>  (183) 
0

>  <fr_oxazole>  (183) 
0

>  <fr_oxime>  (183) 
0

>  <fr_para_hydroxylation>  (183) 
0

>  <fr_phenol>  (183) 
0

>  <fr_phenol_noOrthoHbond>  (183) 
0

>  <fr_phos_acid>  (183) 
0

>  <fr_phos_ester>  (183) 
0

>  <fr_piperdine>  (183) 
0

>  <fr_piperzine>  (183) 
0

>  <fr_priamide>  (183) 
0

>  <fr_prisulfonamd>  (183) 
0

>  <fr_pyridine>  (183) 
1

>  <fr_quatN>  (183) 
1

>  <fr_sulfide>  (183) 
0

>  <fr_sulfonamd>  (183) 
1

>  <fr_sulfone>  (183) 
0

>  <fr_term_acetylene>  (183) 
0

>  <fr_tetrazole>  (183) 
0

>  <fr_thiazole>  (183) 
0

>  <fr_thiocyan>  (183) 
0

>  <fr_thiophene>  (183) 
0

>  <fr_unbrch_alkane>  (183) 
0

>  <fr_urea>  (183) 
0

>  <NP_Likeness>  (183) 
-1.492609

$$$$
ISQ
     RDKit          3D

  0  0  0  0  0  0  0  0  0  0999 V3000
M  V30 BEGIN CTAB
M  V30 COUNTS 17 18 0 0 0
M  V30 BEGIN ATOM
M  V30 1 N -33.498000 9.833000 4.191000 0
M  V30 2 C -33.229000 9.795000 2.881000 0
M  V30 3 C -28.744000 10.147000 5.036000 0
M  V30 4 C -28.492000 10.082000 3.677000 0
M  V30 5 C -32.473000 9.927000 5.025000 0
M  V30 6 C -31.972000 9.840000 2.355000 0
M  V30 7 C -30.026000 10.103000 5.508000 0
M  V30 8 C -29.520000 9.985000 2.784000 0
M  V30 9 C -31.118000 9.995000 4.616000 0
M  V30 10 C -30.865000 9.943000 3.230000 0
M  V30 11 H -33.999400 9.729400 2.246900 0
M  V30 12 H -27.981700 10.226800 5.678300 0
M  V30 13 H -27.548600 10.106300 3.346100 0
M  V30 14 H -32.667900 9.951500 6.005500 0
M  V30 15 H -31.834500 9.800800 1.365300 0
M  V30 16 H -30.193200 10.147600 6.492900 0
M  V30 17 H -29.322100 9.943100 1.804700 0
M  V30 END ATOM
M  V30 BEGIN BOND
M  V30 1 2 1 2
M  V30 2 1 1 5
M  V30 3 1 2 6
M  V30 4 1 3 4
M  V30 5 2 3 7
M  V30 6 2 4 8
M  V30 7 2 5 9
M  V30 8 2 6 10
M  V30 9 1 7 9
M  V30 10 1 8 10
M  V30 11 1 9 10
M  V30 12 1 2 11
M  V30 13 1 3 12
M  V30 14 1 4 13
M  V30 15 1 5 14
M  V30 16 1 6 15
M  V30 17 1 7 16
M  V30 18 1 8 17
M  V30 END BOND
M  V30 END CTAB
M  END
>  <Ligand_Instance>  (184) 
6F14_ISQ_A_401

>  <Dataset>  (184) 
PDB

>  <PDB_ID>  (184) 
6F14

>  <Chain>  (184) 
A

>  <Resi>  (184) 
401

>  <Num_Resolved_Atoms>  (184) 
10

>  <Num_H_Atoms_ProtBoundConf>  (184) 
7

>  <Pocket>  (184) 
A

>  <Name>  (184) 
ISOQUINOLINE

>  <Num_Not_Resolved_Atoms>  (184) 
0

>  <ATP_Site>  (184) 
True

>  <Peripheral>  (184) 
False

>  <Standardized_SMILES>  (184) 
[H]C1=NC([H])=C2C([H])=C([H])C([H])=C([H])C2=C1[H]

>  <2D_Mol_H>  (184) 
<rdkit.Chem.rdchem.Mol object at 0x77059d81c2e0>

>  <MW>  (184) 
129.162

>  <HBA>  (184) 
1

>  <HBD>  (184) 
0

>  <LogP>  (184) 
2.2348

>  <NRB>  (184) 
0

>  <TPSA>  (184) 
12.89

>  <Num_Heavy_Atoms>  (184) 
10

>  <Ro5>  (184) 
[True, True, True, True, True, True]

>  <Ro5_Fulfilled>  (184) 
True

>  <Ro3>  (184) 
[True, True, True, True]

>  <Ro3_Fulfilled>  (184) 
True

>  <Fsp3>  (184) 
0.0

>  <Fsp3_0.42>  (184) 
False

>  <Fsp3_0.45>  (184) 
False

>  <Stereogenic_Carbons>  (184) 
0

>  <C_Atoms>  (184) 
9

>  <FCStereo>  (184) 
0.0

>  <SPS>  (184) 
100

>  <nSPS>  (184) 
10.0

>  <PBF>  (184) 
0.009146

>  <PBF_0.6>  (184) 
False

>  <nPBF>  (184) 
0.000915

>  <nPBF_0.016>  (184) 
False

>  <PMI1>  (184) 
152.541438

>  <PMI2>  (184) 
405.268334

>  <PMI3>  (184) 
557.796837

>  <NPR1>  (184) 
0.273471

>  <NPR2>  (184) 
0.726552

>  <Sum_NPR>  (184) 
1.000023

>  <Sum_NPR_1.07>  (184) 
False

>  <Sum_NPR_1.2>  (184) 
False

>  <MaxAbsEStateIndex>  (184) 
4.01287

>  <MaxEStateIndex>  (184) 
4.01287

>  <MinAbsEStateIndex>  (184) 
1.199074

>  <MinEStateIndex>  (184) 
1.199074

>  <qed>  (184) 
0.531192

>  <MolWt>  (184) 
129.162

>  <HeavyAtomMolWt>  (184) 
122.106

>  <ExactMolWt>  (184) 
129.057849

>  <NumValenceElectrons>  (184) 
48

>  <NumRadicalElectrons>  (184) 
0

>  <MaxPartialCharge>  (184) 
0.034583

>  <MinPartialCharge>  (184) 
-0.264065

>  <MaxAbsPartialCharge>  (184) 
0.264065

>  <MinAbsPartialCharge>  (184) 
0.034583

>  <FpDensityMorgan1>  (184) 
0.9

>  <FpDensityMorgan2>  (184) 
1.7

>  <FpDensityMorgan3>  (184) 
2.5

>  <BCUT2D_MWHI>  (184) 
14.605792

>  <BCUT2D_MWLOW>  (184) 
10.173693

>  <BCUT2D_CHGHI>  (184) 
1.855635

>  <BCUT2D_CHGLO>  (184) 
-1.913294

>  <BCUT2D_LOGPHI>  (184) 
2.08921

>  <BCUT2D_LOGPLOW>  (184) 
-1.711249

>  <BCUT2D_MRHI>  (184) 
5.804471

>  <BCUT2D_MRLOW>  (184) 
1.364311

>  <AvgIpc>  (184) 
2.050414

>  <BalabanJ>  (184) 
2.888052

>  <BertzCT>  (184) 
275.705138

>  <Chi0>  (184) 
6.811555

>  <Chi0n>  (184) 
5.488665

>  <Chi0v>  (184) 
5.488665

>  <Chi1>  (184) 
4.966326

>  <Chi1n>  (184) 
3.254432

>  <Chi1v>  (184) 
3.254432

>  <Chi2n>  (184) 
2.222826

>  <Chi2v>  (184) 
2.222826

>  <Chi3n>  (184) 
1.549792

>  <Chi3v>  (184) 
1.549792

>  <Chi4n>  (184) 
1.026915

>  <Chi4v>  (184) 
1.026915

>  <HallKierAlpha>  (184) 
-1.37

>  <Ipc>  (184) 
348.570462

>  <Kappa1>  (184) 
5.417605

>  <Kappa2>  (184) 
2.102543

>  <Kappa3>  (184) 
0.759881

>  <LabuteASA>  (184) 
59.332716

>  <PEOE_VSA1>  (184) 
0.0

>  <PEOE_VSA10>  (184) 
0.0

>  <PEOE_VSA11>  (184) 
0.0

>  <PEOE_VSA12>  (184) 
0.0

>  <PEOE_VSA13>  (184) 
0.0

>  <PEOE_VSA14>  (184) 
0.0

>  <PEOE_VSA2>  (184) 
4.983979

>  <PEOE_VSA3>  (184) 
0.0

>  <PEOE_VSA4>  (184) 
0.0

>  <PEOE_VSA5>  (184) 
0.0

>  <PEOE_VSA6>  (184) 
24.265468

>  <PEOE_VSA7>  (184) 
16.838815

>  <PEOE_VSA8>  (184) 
12.393687

>  <PEOE_VSA9>  (184) 
0.0

>  <SMR_VSA1>  (184) 
0.0

>  <SMR_VSA10>  (184) 
10.772448

>  <SMR_VSA2>  (184) 
0.0

>  <SMR_VSA3>  (184) 
4.983979

>  <SMR_VSA4>  (184) 
0.0

>  <SMR_VSA5>  (184) 
0.0

>  <SMR_VSA6>  (184) 
0.0

>  <SMR_VSA7>  (184) 
42.725522

>  <SMR_VSA8>  (184) 
0.0

>  <SMR_VSA9>  (184) 
0.0

>  <SlogP_VSA1>  (184) 
0.0

>  <SlogP_VSA10>  (184) 
0.0

>  <SlogP_VSA11>  (184) 
0.0

>  <SlogP_VSA12>  (184) 
0.0

>  <SlogP_VSA2>  (184) 
4.983979

>  <SlogP_VSA3>  (184) 
0.0

>  <SlogP_VSA4>  (184) 
0.0

>  <SlogP_VSA5>  (184) 
0.0

>  <SlogP_VSA6>  (184) 
42.725522

>  <SlogP_VSA7>  (184) 
0.0

>  <SlogP_VSA8>  (184) 
10.772448

>  <SlogP_VSA9>  (184) 
0.0

>  <EState_VSA1>  (184) 
0.0

>  <EState_VSA10>  (184) 
0.0

>  <EState_VSA11>  (184) 
0.0

>  <EState_VSA2>  (184) 
0.0

>  <EState_VSA3>  (184) 
0.0

>  <EState_VSA4>  (184) 
0.0

>  <EState_VSA5>  (184) 
10.772448

>  <EState_VSA6>  (184) 
0.0

>  <EState_VSA7>  (184) 
30.592788

>  <EState_VSA8>  (184) 
17.116713

>  <EState_VSA9>  (184) 
0.0

>  <VSA_EState1>  (184) 
0.0

>  <VSA_EState10>  (184) 
0.0

>  <VSA_EState2>  (184) 
4.01287

>  <VSA_EState3>  (184) 
2.446759

>  <VSA_EState4>  (184) 
0.0

>  <VSA_EState5>  (184) 
0.0

>  <VSA_EState6>  (184) 
10.195463

>  <VSA_EState7>  (184) 
3.678241

>  <VSA_EState8>  (184) 
0.0

>  <VSA_EState9>  (184) 
0.0

>  <FractionCSP3>  (184) 
0.0

>  <HeavyAtomCount>  (184) 
10

>  <NHOHCount>  (184) 
0

>  <NOCount>  (184) 
1

>  <NumAliphaticCarbocycles>  (184) 
0

>  <NumAliphaticHeterocycles>  (184) 
0

>  <NumAliphaticRings>  (184) 
0

>  <NumAromaticCarbocycles>  (184) 
1

>  <NumAromaticHeterocycles>  (184) 
1

>  <NumAromaticRings>  (184) 
2

>  <NumHAcceptors>  (184) 
1

>  <NumHDonors>  (184) 
0

>  <NumHeteroatoms>  (184) 
1

>  <NumRotatableBonds>  (184) 
0

>  <NumSaturatedCarbocycles>  (184) 
0

>  <NumSaturatedHeterocycles>  (184) 
0

>  <NumSaturatedRings>  (184) 
0

>  <RingCount>  (184) 
2

>  <MolLogP>  (184) 
2.2348

>  <MolMR>  (184) 
41.743

>  <fr_Al_COO>  (184) 
0

>  <fr_Al_OH>  (184) 
0

>  <fr_Al_OH_noTert>  (184) 
0

>  <fr_ArN>  (184) 
0

>  <fr_Ar_COO>  (184) 
0

>  <fr_Ar_N>  (184) 
1

>  <fr_Ar_NH>  (184) 
0

>  <fr_Ar_OH>  (184) 
0

>  <fr_COO>  (184) 
0

>  <fr_COO2>  (184) 
0

>  <fr_C_O>  (184) 
0

>  <fr_C_O_noCOO>  (184) 
0

>  <fr_C_S>  (184) 
0

>  <fr_HOCCN>  (184) 
0

>  <fr_Imine>  (184) 
0

>  <fr_NH0>  (184) 
1

>  <fr_NH1>  (184) 
0

>  <fr_NH2>  (184) 
0

>  <fr_N_O>  (184) 
0

>  <fr_Ndealkylation1>  (184) 
0

>  <fr_Ndealkylation2>  (184) 
0

>  <fr_Nhpyrrole>  (184) 
0

>  <fr_SH>  (184) 
0

>  <fr_aldehyde>  (184) 
0

>  <fr_alkyl_carbamate>  (184) 
0

>  <fr_alkyl_halide>  (184) 
0

>  <fr_allylic_oxid>  (184) 
0

>  <fr_amide>  (184) 
0

>  <fr_amidine>  (184) 
0

>  <fr_aniline>  (184) 
0

>  <fr_aryl_methyl>  (184) 
0

>  <fr_azide>  (184) 
0

>  <fr_azo>  (184) 
0

>  <fr_barbitur>  (184) 
0

>  <fr_benzene>  (184) 
1

>  <fr_benzodiazepine>  (184) 
0

>  <fr_bicyclic>  (184) 
1

>  <fr_diazo>  (184) 
0

>  <fr_dihydropyridine>  (184) 
0

>  <fr_epoxide>  (184) 
0

>  <fr_ester>  (184) 
0

>  <fr_ether>  (184) 
0

>  <fr_furan>  (184) 
0

>  <fr_guanido>  (184) 
0

>  <fr_halogen>  (184) 
0

>  <fr_hdrzine>  (184) 
0

>  <fr_hdrzone>  (184) 
0

>  <fr_imidazole>  (184) 
0

>  <fr_imide>  (184) 
0

>  <fr_isocyan>  (184) 
0

>  <fr_isothiocyan>  (184) 
0

>  <fr_ketone>  (184) 
0

>  <fr_ketone_Topliss>  (184) 
0

>  <fr_lactam>  (184) 
0

>  <fr_lactone>  (184) 
0

>  <fr_methoxy>  (184) 
0

>  <fr_morpholine>  (184) 
0

>  <fr_nitrile>  (184) 
0

>  <fr_nitro>  (184) 
0

>  <fr_nitro_arom>  (184) 
0

>  <fr_nitro_arom_nonortho>  (184) 
0

>  <fr_nitroso>  (184) 
0

>  <fr_oxazole>  (184) 
0

>  <fr_oxime>  (184) 
0

>  <fr_para_hydroxylation>  (184) 
0

>  <fr_phenol>  (184) 
0

>  <fr_phenol_noOrthoHbond>  (184) 
0

>  <fr_phos_acid>  (184) 
0

>  <fr_phos_ester>  (184) 
0

>  <fr_piperdine>  (184) 
0

>  <fr_piperzine>  (184) 
0

>  <fr_priamide>  (184) 
0

>  <fr_prisulfonamd>  (184) 
0

>  <fr_pyridine>  (184) 
1

>  <fr_quatN>  (184) 
0

>  <fr_sulfide>  (184) 
0

>  <fr_sulfonamd>  (184) 
0

>  <fr_sulfone>  (184) 
0

>  <fr_term_acetylene>  (184) 
0

>  <fr_tetrazole>  (184) 
0

>  <fr_thiazole>  (184) 
0

>  <fr_thiocyan>  (184) 
0

>  <fr_thiophene>  (184) 
0

>  <fr_unbrch_alkane>  (184) 
0

>  <fr_urea>  (184) 
0

>  <NP_Likeness>  (184) 
-0.727981

$$$$
ISQ
     RDKit          3D

  0  0  0  0  0  0  0  0  0  0999 V3000
M  V30 BEGIN CTAB
M  V30 COUNTS 17 18 0 0 0
M  V30 BEGIN ATOM
M  V30 1 N 16.966000 2.618000 20.941000 0
M  V30 2 C 16.713000 3.927000 20.762000 0
M  V30 3 C 12.449000 1.675000 19.508000 0
M  V30 4 C 12.213000 3.024000 19.338000 0
M  V30 5 C 16.005000 1.761000 20.628000 0
M  V30 6 C 15.531000 4.419000 20.299000 0
M  V30 7 C 13.681000 1.228000 19.900000 0
M  V30 8 C 13.202000 3.937000 19.565000 0
M  V30 9 C 14.730000 2.137000 20.147000 0
M  V30 10 C 14.489000 3.521000 19.982000 0
M  V30 11 H 17.438200 4.579200 20.982700 0
M  V30 12 H 11.712900 1.018500 19.343200 0
M  V30 13 H 11.308900 3.335600 19.045700 0
M  V30 14 H 16.193900 0.785300 20.739200 0
M  V30 15 H 15.402600 5.404100 20.184900 0
M  V30 16 H 13.839100 0.247000 20.012500 0
M  V30 17 H 13.015100 4.910800 19.435200 0
M  V30 END ATOM
M  V30 BEGIN BOND
M  V30 1 2 1 2
M  V30 2 1 1 5
M  V30 3 1 2 6
M  V30 4 1 3 4
M  V30 5 2 3 7
M  V30 6 2 4 8
M  V30 7 2 5 9
M  V30 8 2 6 10
M  V30 9 1 7 9
M  V30 10 1 8 10
M  V30 11 1 9 10
M  V30 12 1 2 11
M  V30 13 1 3 12
M  V30 14 1 4 13
M  V30 15 1 5 14
M  V30 16 1 6 15
M  V30 17 1 7 16
M  V30 18 1 8 17
M  V30 END BOND
M  V30 END CTAB
M  END
>  <Ligand_Instance>  (185) 
6YPP_ISQ_A_401

>  <Dataset>  (185) 
PDB

>  <PDB_ID>  (185) 
6YPP

>  <Chain>  (185) 
A

>  <Resi>  (185) 
401

>  <Num_Resolved_Atoms>  (185) 
10

>  <Num_H_Atoms_ProtBoundConf>  (185) 
7

>  <Pocket>  (185) 
A

>  <Name>  (185) 
ISOQUINOLINE

>  <Num_Not_Resolved_Atoms>  (185) 
0

>  <ATP_Site>  (185) 
True

>  <Peripheral>  (185) 
False

>  <Standardized_SMILES>  (185) 
[H]C1=NC([H])=C2C([H])=C([H])C([H])=C([H])C2=C1[H]

>  <2D_Mol_H>  (185) 
<rdkit.Chem.rdchem.Mol object at 0x77059d81c3c0>

>  <MW>  (185) 
129.162

>  <HBA>  (185) 
1

>  <HBD>  (185) 
0

>  <LogP>  (185) 
2.2348

>  <NRB>  (185) 
0

>  <TPSA>  (185) 
12.89

>  <Num_Heavy_Atoms>  (185) 
10

>  <Ro5>  (185) 
[True, True, True, True, True, True]

>  <Ro5_Fulfilled>  (185) 
True

>  <Ro3>  (185) 
[True, True, True, True]

>  <Ro3_Fulfilled>  (185) 
True

>  <Fsp3>  (185) 
0.0

>  <Fsp3_0.42>  (185) 
False

>  <Fsp3_0.45>  (185) 
False

>  <Stereogenic_Carbons>  (185) 
0

>  <C_Atoms>  (185) 
9

>  <FCStereo>  (185) 
0.0

>  <SPS>  (185) 
100

>  <nSPS>  (185) 
10.0

>  <PBF>  (185) 
0.029161

>  <PBF_0.6>  (185) 
False

>  <nPBF>  (185) 
0.002916

>  <nPBF_0.016>  (185) 
False

>  <PMI1>  (185) 
152.801412

>  <PMI2>  (185) 
404.118336

>  <PMI3>  (185) 
556.69239

>  <NPR1>  (185) 
0.274481

>  <NPR2>  (185) 
0.725928

>  <Sum_NPR>  (185) 
1.000408

>  <Sum_NPR_1.07>  (185) 
False

>  <Sum_NPR_1.2>  (185) 
False

>  <MaxAbsEStateIndex>  (185) 
4.01287

>  <MaxEStateIndex>  (185) 
4.01287

>  <MinAbsEStateIndex>  (185) 
1.199074

>  <MinEStateIndex>  (185) 
1.199074

>  <qed>  (185) 
0.531192

>  <MolWt>  (185) 
129.162

>  <HeavyAtomMolWt>  (185) 
122.106

>  <ExactMolWt>  (185) 
129.057849

>  <NumValenceElectrons>  (185) 
48

>  <NumRadicalElectrons>  (185) 
0

>  <MaxPartialCharge>  (185) 
0.034583

>  <MinPartialCharge>  (185) 
-0.264065

>  <MaxAbsPartialCharge>  (185) 
0.264065

>  <MinAbsPartialCharge>  (185) 
0.034583

>  <FpDensityMorgan1>  (185) 
0.9

>  <FpDensityMorgan2>  (185) 
1.7

>  <FpDensityMorgan3>  (185) 
2.5

>  <BCUT2D_MWHI>  (185) 
14.605792

>  <BCUT2D_MWLOW>  (185) 
10.173693

>  <BCUT2D_CHGHI>  (185) 
1.855635

>  <BCUT2D_CHGLO>  (185) 
-1.913294

>  <BCUT2D_LOGPHI>  (185) 
2.08921

>  <BCUT2D_LOGPLOW>  (185) 
-1.711249

>  <BCUT2D_MRHI>  (185) 
5.804471

>  <BCUT2D_MRLOW>  (185) 
1.364311

>  <AvgIpc>  (185) 
2.050414

>  <BalabanJ>  (185) 
2.888052

>  <BertzCT>  (185) 
275.705138

>  <Chi0>  (185) 
6.811555

>  <Chi0n>  (185) 
5.488665

>  <Chi0v>  (185) 
5.488665

>  <Chi1>  (185) 
4.966326

>  <Chi1n>  (185) 
3.254432

>  <Chi1v>  (185) 
3.254432

>  <Chi2n>  (185) 
2.222826

>  <Chi2v>  (185) 
2.222826

>  <Chi3n>  (185) 
1.549792

>  <Chi3v>  (185) 
1.549792

>  <Chi4n>  (185) 
1.026915

>  <Chi4v>  (185) 
1.026915

>  <HallKierAlpha>  (185) 
-1.37

>  <Ipc>  (185) 
348.570462

>  <Kappa1>  (185) 
5.417605

>  <Kappa2>  (185) 
2.102543

>  <Kappa3>  (185) 
0.759881

>  <LabuteASA>  (185) 
59.332716

>  <PEOE_VSA1>  (185) 
0.0

>  <PEOE_VSA10>  (185) 
0.0

>  <PEOE_VSA11>  (185) 
0.0

>  <PEOE_VSA12>  (185) 
0.0

>  <PEOE_VSA13>  (185) 
0.0

>  <PEOE_VSA14>  (185) 
0.0

>  <PEOE_VSA2>  (185) 
4.983979

>  <PEOE_VSA3>  (185) 
0.0

>  <PEOE_VSA4>  (185) 
0.0

>  <PEOE_VSA5>  (185) 
0.0

>  <PEOE_VSA6>  (185) 
24.265468

>  <PEOE_VSA7>  (185) 
16.838815

>  <PEOE_VSA8>  (185) 
12.393687

>  <PEOE_VSA9>  (185) 
0.0

>  <SMR_VSA1>  (185) 
0.0

>  <SMR_VSA10>  (185) 
10.772448

>  <SMR_VSA2>  (185) 
0.0

>  <SMR_VSA3>  (185) 
4.983979

>  <SMR_VSA4>  (185) 
0.0

>  <SMR_VSA5>  (185) 
0.0

>  <SMR_VSA6>  (185) 
0.0

>  <SMR_VSA7>  (185) 
42.725522

>  <SMR_VSA8>  (185) 
0.0

>  <SMR_VSA9>  (185) 
0.0

>  <SlogP_VSA1>  (185) 
0.0

>  <SlogP_VSA10>  (185) 
0.0

>  <SlogP_VSA11>  (185) 
0.0

>  <SlogP_VSA12>  (185) 
0.0

>  <SlogP_VSA2>  (185) 
4.983979

>  <SlogP_VSA3>  (185) 
0.0

>  <SlogP_VSA4>  (185) 
0.0

>  <SlogP_VSA5>  (185) 
0.0

>  <SlogP_VSA6>  (185) 
42.725522

>  <SlogP_VSA7>  (185) 
0.0

>  <SlogP_VSA8>  (185) 
10.772448

>  <SlogP_VSA9>  (185) 
0.0

>  <EState_VSA1>  (185) 
0.0

>  <EState_VSA10>  (185) 
0.0

>  <EState_VSA11>  (185) 
0.0

>  <EState_VSA2>  (185) 
0.0

>  <EState_VSA3>  (185) 
0.0

>  <EState_VSA4>  (185) 
0.0

>  <EState_VSA5>  (185) 
10.772448

>  <EState_VSA6>  (185) 
0.0

>  <EState_VSA7>  (185) 
30.592788

>  <EState_VSA8>  (185) 
17.116713

>  <EState_VSA9>  (185) 
0.0

>  <VSA_EState1>  (185) 
0.0

>  <VSA_EState10>  (185) 
0.0

>  <VSA_EState2>  (185) 
4.01287

>  <VSA_EState3>  (185) 
2.446759

>  <VSA_EState4>  (185) 
0.0

>  <VSA_EState5>  (185) 
0.0

>  <VSA_EState6>  (185) 
10.195463

>  <VSA_EState7>  (185) 
3.678241

>  <VSA_EState8>  (185) 
0.0

>  <VSA_EState9>  (185) 
0.0

>  <FractionCSP3>  (185) 
0.0

>  <HeavyAtomCount>  (185) 
10

>  <NHOHCount>  (185) 
0

>  <NOCount>  (185) 
1

>  <NumAliphaticCarbocycles>  (185) 
0

>  <NumAliphaticHeterocycles>  (185) 
0

>  <NumAliphaticRings>  (185) 
0

>  <NumAromaticCarbocycles>  (185) 
1

>  <NumAromaticHeterocycles>  (185) 
1

>  <NumAromaticRings>  (185) 
2

>  <NumHAcceptors>  (185) 
1

>  <NumHDonors>  (185) 
0

>  <NumHeteroatoms>  (185) 
1

>  <NumRotatableBonds>  (185) 
0

>  <NumSaturatedCarbocycles>  (185) 
0

>  <NumSaturatedHeterocycles>  (185) 
0

>  <NumSaturatedRings>  (185) 
0

>  <RingCount>  (185) 
2

>  <MolLogP>  (185) 
2.2348

>  <MolMR>  (185) 
41.743

>  <fr_Al_COO>  (185) 
0

>  <fr_Al_OH>  (185) 
0

>  <fr_Al_OH_noTert>  (185) 
0

>  <fr_ArN>  (185) 
0

>  <fr_Ar_COO>  (185) 
0

>  <fr_Ar_N>  (185) 
1

>  <fr_Ar_NH>  (185) 
0

>  <fr_Ar_OH>  (185) 
0

>  <fr_COO>  (185) 
0

>  <fr_COO2>  (185) 
0

>  <fr_C_O>  (185) 
0

>  <fr_C_O_noCOO>  (185) 
0

>  <fr_C_S>  (185) 
0

>  <fr_HOCCN>  (185) 
0

>  <fr_Imine>  (185) 
0

>  <fr_NH0>  (185) 
1

>  <fr_NH1>  (185) 
0

>  <fr_NH2>  (185) 
0

>  <fr_N_O>  (185) 
0

>  <fr_Ndealkylation1>  (185) 
0

>  <fr_Ndealkylation2>  (185) 
0

>  <fr_Nhpyrrole>  (185) 
0

>  <fr_SH>  (185) 
0

>  <fr_aldehyde>  (185) 
0

>  <fr_alkyl_carbamate>  (185) 
0

>  <fr_alkyl_halide>  (185) 
0

>  <fr_allylic_oxid>  (185) 
0

>  <fr_amide>  (185) 
0

>  <fr_amidine>  (185) 
0

>  <fr_aniline>  (185) 
0

>  <fr_aryl_methyl>  (185) 
0

>  <fr_azide>  (185) 
0

>  <fr_azo>  (185) 
0

>  <fr_barbitur>  (185) 
0

>  <fr_benzene>  (185) 
1

>  <fr_benzodiazepine>  (185) 
0

>  <fr_bicyclic>  (185) 
1

>  <fr_diazo>  (185) 
0

>  <fr_dihydropyridine>  (185) 
0

>  <fr_epoxide>  (185) 
0

>  <fr_ester>  (185) 
0

>  <fr_ether>  (185) 
0

>  <fr_furan>  (185) 
0

>  <fr_guanido>  (185) 
0

>  <fr_halogen>  (185) 
0

>  <fr_hdrzine>  (185) 
0

>  <fr_hdrzone>  (185) 
0

>  <fr_imidazole>  (185) 
0

>  <fr_imide>  (185) 
0

>  <fr_isocyan>  (185) 
0

>  <fr_isothiocyan>  (185) 
0

>  <fr_ketone>  (185) 
0

>  <fr_ketone_Topliss>  (185) 
0

>  <fr_lactam>  (185) 
0

>  <fr_lactone>  (185) 
0

>  <fr_methoxy>  (185) 
0

>  <fr_morpholine>  (185) 
0

>  <fr_nitrile>  (185) 
0

>  <fr_nitro>  (185) 
0

>  <fr_nitro_arom>  (185) 
0

>  <fr_nitro_arom_nonortho>  (185) 
0

>  <fr_nitroso>  (185) 
0

>  <fr_oxazole>  (185) 
0

>  <fr_oxime>  (185) 
0

>  <fr_para_hydroxylation>  (185) 
0

>  <fr_phenol>  (185) 
0

>  <fr_phenol_noOrthoHbond>  (185) 
0

>  <fr_phos_acid>  (185) 
0

>  <fr_phos_ester>  (185) 
0

>  <fr_piperdine>  (185) 
0

>  <fr_piperzine>  (185) 
0

>  <fr_priamide>  (185) 
0

>  <fr_prisulfonamd>  (185) 
0

>  <fr_pyridine>  (185) 
1

>  <fr_quatN>  (185) 
0

>  <fr_sulfide>  (185) 
0

>  <fr_sulfonamd>  (185) 
0

>  <fr_sulfone>  (185) 
0

>  <fr_term_acetylene>  (185) 
0

>  <fr_tetrazole>  (185) 
0

>  <fr_thiazole>  (185) 
0

>  <fr_thiocyan>  (185) 
0

>  <fr_thiophene>  (185) 
0

>  <fr_unbrch_alkane>  (185) 
0

>  <fr_urea>  (185) 
0

>  <NP_Likeness>  (185) 
-0.727981

$$$$
J0G
     RDKit          3D

  0  0  0  0  0  0  0  0  0  0999 V3000
M  V30 BEGIN CTAB
M  V30 COUNTS 56 58 0 0 0
M  V30 BEGIN ATOM
M  V30 1 O -5.311000 12.001000 -14.162000 0
M  V30 2 O 0.737000 13.241000 -11.530000 0
M  V30 3 N -3.714000 6.340000 -16.590000 0 CHG=1
M  V30 4 N -12.351000 6.375000 -12.791000 0
M  V30 5 N -5.718000 8.332000 -15.744000 0
M  V30 6 N -3.952000 10.127000 -14.050000 0
M  V30 7 C 0.988000 14.041000 -12.685000 0
M  V30 8 C -1.690000 9.980000 -14.925000 0
M  V30 9 C -4.803000 6.811000 -17.425000 0
M  V30 10 C -5.986000 7.141000 -16.541000 0
M  V30 11 C -12.310000 7.709000 -12.881000 0
M  V30 12 C -11.182000 5.743000 -12.960000 0
M  V30 13 C -1.773000 10.847000 -10.495000 0
M  V30 14 C -0.730000 11.747000 -10.488000 0
M  V30 15 C -11.164000 8.437000 -13.124000 0
M  V30 16 C -9.982000 6.383000 -13.205000 0
M  V30 17 C -2.421000 10.550000 -11.674000 0
M  V30 18 C -8.455000 9.640000 -12.801000 0
M  V30 19 C -7.294000 10.345000 -13.025000 0
M  V30 20 C -0.995000 12.059000 -12.844000 0
M  V30 21 C -7.815000 8.093000 -14.489000 0
M  V30 22 C -5.172000 10.783000 -14.087000 0
M  V30 23 C -0.344000 12.366000 -11.660000 0
M  V30 24 C -2.686000 10.836000 -14.164000 0 CFG=2
M  V30 25 C -6.630000 8.785000 -14.743000 0
M  V30 26 C -2.038000 11.155000 -12.852000 0
M  V30 27 C -9.966000 7.764000 -13.287000 0
M  V30 28 C -8.729000 8.501000 -13.531000 0
M  V30 29 C -6.383000 9.926000 -13.976000 0
M  V30 30 H -3.777600 5.347300 -16.487900 0
M  V30 31 H -2.840800 6.576000 -17.016500 0
M  V30 32 H -4.874100 8.844600 -15.902400 0
M  V30 33 H -3.941000 9.133000 -13.941300 0
M  V30 34 H 1.772400 14.637100 -12.513600 0
M  V30 35 H 1.184700 13.447400 -13.465300 0
M  V30 36 H 0.182800 14.599100 -12.885400 0
M  V30 37 H -0.821000 10.468700 -15.002300 0
M  V30 38 H -1.546500 9.120200 -14.434900 0
M  V30 39 H -2.046400 9.787100 -15.839200 0
M  V30 40 H -5.059300 6.097800 -18.077400 0
M  V30 41 H -4.515800 7.629800 -17.922000 0
M  V30 42 H -6.788900 7.303700 -17.114500 0
M  V30 43 H -6.163900 6.370000 -15.929400 0
M  V30 44 H -13.166700 8.211500 -12.764400 0
M  V30 45 H -11.177400 4.744500 -12.905400 0
M  V30 46 H -2.060100 10.408700 -9.643200 0
M  V30 47 H -0.252400 11.952000 -9.633700 0
M  V30 48 H -11.198300 9.434800 -13.181400 0
M  V30 49 H -9.139500 5.856900 -13.321000 0
M  V30 50 H -3.173700 9.891600 -11.675200 0
M  V30 51 H -9.102400 9.954300 -12.106700 0
M  V30 52 H -7.107500 11.170800 -12.492800 0
M  V30 53 H -0.707700 12.494600 -13.697100 0
M  V30 54 H -8.012500 7.269000 -15.020100 0
M  V30 55 H -2.834600 11.686800 -14.668000 0
M  V30 56 H -3.773000 6.772100 -15.690100 0
M  V30 END ATOM
M  V30 BEGIN BOND
M  V30 1 2 1 22
M  V30 2 1 2 7
M  V30 3 1 2 23
M  V30 4 1 3 9
M  V30 5 2 4 11
M  V30 6 1 4 12
M  V30 7 1 5 10
M  V30 8 1 5 25
M  V30 9 1 6 22
M  V30 10 1 6 24
M  V30 11 1 8 24
M  V30 12 1 9 10
M  V30 13 1 11 15
M  V30 14 2 12 16
M  V30 15 2 13 14
M  V30 16 1 13 17
M  V30 17 1 14 23
M  V30 18 2 15 27
M  V30 19 1 16 27
M  V30 20 2 17 26
M  V30 21 2 18 19
M  V30 22 1 18 28
M  V30 23 1 19 29
M  V30 24 2 20 23
M  V30 25 1 20 26
M  V30 26 1 21 25
M  V30 27 2 21 28
M  V30 28 1 22 29
M  V30 29 1 24 26
M  V30 30 2 25 29
M  V30 31 1 27 28
M  V30 32 1 3 30
M  V30 33 1 3 31
M  V30 34 1 5 32
M  V30 35 1 6 33
M  V30 36 1 7 34
M  V30 37 1 7 35
M  V30 38 1 7 36
M  V30 39 1 8 37
M  V30 40 1 8 38
M  V30 41 1 8 39
M  V30 42 1 9 40
M  V30 43 1 9 41
M  V30 44 1 10 42
M  V30 45 1 10 43
M  V30 46 1 11 44
M  V30 47 1 12 45
M  V30 48 1 13 46
M  V30 49 1 14 47
M  V30 50 1 15 48
M  V30 51 1 16 49
M  V30 52 1 17 50
M  V30 53 1 18 51
M  V30 54 1 19 52
M  V30 55 1 20 53
M  V30 56 1 21 54
M  V30 57 1 24 55 CFG=3
M  V30 58 1 3 56
M  V30 END BOND
M  V30 END CTAB
M  END
>  <Ligand_Instance>  (186) 
6E99_J0G_A_601

>  <Dataset>  (186) 
PDB

>  <PDB_ID>  (186) 
6000000000000000289684235881132415372962675820719059498109480439862655388483469610378510512034938880.0

>  <Chain>  (186) 
A

>  <Resi>  (186) 
601

>  <Num_Resolved_Atoms>  (186) 
29

>  <Num_H_Atoms_ProtBoundConf>  (186) 
27

>  <Pocket>  (186) 
A

>  <Name>  (186) 
2-[(2-aminoethyl)amino]-N-[(1R)-1-(3-methoxyphenyl)ethyl]-4-(pyridin-4-yl)benzamide

>  <Num_Not_Resolved_Atoms>  (186) 
0

>  <ATP_Site>  (186) 
True

>  <Peripheral>  (186) 
False

>  <Standardized_SMILES>  (186) 
[H]C1=NC([H])=C([H])C(C2=C([H])C([H])=C(C(=O)N([H])[C@@]([H])(C3=C([H])C([H])=C([H])C(OC([H])([H])[H])=C3[H])C([H])([H])[H])C(N([H])C([H])([H])C([H])([H])[N+]([H])([H])[H])=C2[H])=C1[H]

>  <2D_Mol_H>  (186) 
<rdkit.Chem.rdchem.Mol object at 0x77059d81c4a0>

>  <MW>  (186) 
391.495

>  <HBA>  (186) 
4

>  <HBD>  (186) 
3

>  <LogP>  (186) 
2.902

>  <NRB>  (186) 
11

>  <TPSA>  (186) 
90.89

>  <Num_Heavy_Atoms>  (186) 
29

>  <Ro5>  (186) 
[True, True, True, True, False, True]

>  <Ro5_Fulfilled>  (186) 
True

>  <Ro3>  (186) 
[False, False, True, True]

>  <Ro3_Fulfilled>  (186) 
False

>  <Fsp3>  (186) 
0.217391

>  <Fsp3_0.42>  (186) 
False

>  <Fsp3_0.45>  (186) 
False

>  <Stereogenic_Carbons>  (186) 
1

>  <C_Atoms>  (186) 
23

>  <FCStereo>  (186) 
0.043478

>  <SPS>  (186) 
335

>  <nSPS>  (186) 
11.551724

>  <PBF>  (186) 
0.911514

>  <PBF_0.6>  (186) 
True

>  <nPBF>  (186) 
0.031432

>  <nPBF_0.016>  (186) 
True

>  <PMI1>  (186) 
1753.321963

>  <PMI2>  (186) 
7724.342844

>  <PMI3>  (186) 
8774.606078

>  <NPR1>  (186) 
0.199818

>  <NPR2>  (186) 
0.880307

>  <Sum_NPR>  (186) 
1.080124

>  <Sum_NPR_1.07>  (186) 
True

>  <Sum_NPR_1.2>  (186) 
False

>  <MaxAbsEStateIndex>  (186) 
13.006683

>  <MaxEStateIndex>  (186) 
13.006683

>  <MinAbsEStateIndex>  (186) 
0.131333

>  <MinEStateIndex>  (186) 
-0.154476

>  <qed>  (186) 
0.550636

>  <MolWt>  (186) 
391.495

>  <HeavyAtomMolWt>  (186) 
364.279

>  <ExactMolWt>  (186) 
391.212853

>  <NumValenceElectrons>  (186) 
150

>  <NumRadicalElectrons>  (186) 
0

>  <MaxPartialCharge>  (186) 
0.25335

>  <MinPartialCharge>  (186) 
-0.496757

>  <MaxAbsPartialCharge>  (186) 
0.496757

>  <MinAbsPartialCharge>  (186) 
0.25335

>  <FpDensityMorgan1>  (186) 
1.103448

>  <FpDensityMorgan2>  (186) 
1.896552

>  <FpDensityMorgan3>  (186) 
2.62069

>  <BCUT2D_MWHI>  (186) 
16.465316

>  <BCUT2D_MWLOW>  (186) 
10.016426

>  <BCUT2D_CHGHI>  (186) 
2.161357

>  <BCUT2D_CHGLO>  (186) 
-2.176999

>  <BCUT2D_LOGPHI>  (186) 
2.262937

>  <BCUT2D_LOGPLOW>  (186) 
-2.527192

>  <BCUT2D_MRHI>  (186) 
6.003308

>  <BCUT2D_MRLOW>  (186) 
-0.362426

>  <AvgIpc>  (186) 
2.77573

>  <BalabanJ>  (186) 
1.841855

>  <BertzCT>  (186) 
960.101476

>  <Chi0>  (186) 
20.639617

>  <Chi0n>  (186) 
16.813234

>  <Chi0v>  (186) 
16.813234

>  <Chi1>  (186) 
14.117724

>  <Chi1n>  (186) 
9.644566

>  <Chi1v>  (186) 
9.644566

>  <Chi2n>  (186) 
6.748345

>  <Chi2v>  (186) 
6.748345

>  <Chi3n>  (186) 
4.71147

>  <Chi3v>  (186) 
4.71147

>  <Chi4n>  (186) 
3.104078

>  <Chi4v>  (186) 
3.104078

>  <HallKierAlpha>  (186) 
-3.38

>  <Ipc>  (186) 
4107403.479039

>  <Kappa1>  (186) 
20.356723

>  <Kappa2>  (186) 
9.705329

>  <Kappa3>  (186) 
5.116344

>  <LabuteASA>  (186) 
170.669575

>  <PEOE_VSA1>  (186) 
21.104108

>  <PEOE_VSA10>  (186) 
5.749512

>  <PEOE_VSA11>  (186) 
0.0

>  <PEOE_VSA12>  (186) 
0.0

>  <PEOE_VSA13>  (186) 
5.90718

>  <PEOE_VSA14>  (186) 
0.0

>  <PEOE_VSA2>  (186) 
9.778516

>  <PEOE_VSA3>  (186) 
0.0

>  <PEOE_VSA4>  (186) 
0.0

>  <PEOE_VSA5>  (186) 
0.0

>  <PEOE_VSA6>  (186) 
18.199101

>  <PEOE_VSA7>  (186) 
60.012294

>  <PEOE_VSA8>  (186) 
18.081073

>  <PEOE_VSA9>  (186) 
31.804603

>  <SMR_VSA1>  (186) 
15.265068

>  <SMR_VSA10>  (186) 
11.594566

>  <SMR_VSA2>  (186) 
0.0

>  <SMR_VSA3>  (186) 
10.300767

>  <SMR_VSA4>  (186) 
0.0

>  <SMR_VSA5>  (186) 
12.965578

>  <SMR_VSA6>  (186) 
25.516099

>  <SMR_VSA7>  (186) 
78.117894

>  <SMR_VSA8>  (186) 
0.0

>  <SMR_VSA9>  (186) 
16.876415

>  <SlogP_VSA1>  (186) 
21.104108

>  <SlogP_VSA10>  (186) 
5.687386

>  <SlogP_VSA11>  (186) 
5.749512

>  <SlogP_VSA12>  (186) 
0.0

>  <SlogP_VSA2>  (186) 
31.090469

>  <SlogP_VSA3>  (186) 
0.0

>  <SlogP_VSA4>  (186) 
0.0

>  <SlogP_VSA5>  (186) 
28.887018

>  <SlogP_VSA6>  (186) 
66.990991

>  <SlogP_VSA7>  (186) 
0.0

>  <SlogP_VSA8>  (186) 
11.126903

>  <SlogP_VSA9>  (186) 
0.0

>  <EState_VSA1>  (186) 
0.0

>  <EState_VSA10>  (186) 
4.794537

>  <EState_VSA11>  (186) 
0.0

>  <EState_VSA2>  (186) 
11.949021

>  <EState_VSA3>  (186) 
12.108208

>  <EState_VSA4>  (186) 
34.672009

>  <EState_VSA5>  (186) 
0.0

>  <EState_VSA6>  (186) 
19.503485

>  <EState_VSA7>  (186) 
61.521041

>  <EState_VSA8>  (186) 
21.351223

>  <EState_VSA9>  (186) 
4.736863

>  <VSA_EState1>  (186) 
5.280176

>  <VSA_EState10>  (186) 
0.0

>  <VSA_EState2>  (186) 
17.072218

>  <VSA_EState3>  (186) 
6.406024

>  <VSA_EState4>  (186) 
8.329297

>  <VSA_EState5>  (186) 
0.63543

>  <VSA_EState6>  (186) 
17.258739

>  <VSA_EState7>  (186) 
3.517523

>  <VSA_EState8>  (186) 
3.368402

>  <VSA_EState9>  (186) 
1.632191

>  <FractionCSP3>  (186) 
0.217391

>  <HeavyAtomCount>  (186) 
29

>  <NHOHCount>  (186) 
5

>  <NOCount>  (186) 
6

>  <NumAliphaticCarbocycles>  (186) 
0

>  <NumAliphaticHeterocycles>  (186) 
0

>  <NumAliphaticRings>  (186) 
0

>  <NumAromaticCarbocycles>  (186) 
2

>  <NumAromaticHeterocycles>  (186) 
1

>  <NumAromaticRings>  (186) 
3

>  <NumHAcceptors>  (186) 
4

>  <NumHDonors>  (186) 
3

>  <NumHeteroatoms>  (186) 
6

>  <NumRotatableBonds>  (186) 
8

>  <NumSaturatedCarbocycles>  (186) 
0

>  <NumSaturatedHeterocycles>  (186) 
0

>  <NumSaturatedRings>  (186) 
0

>  <RingCount>  (186) 
3

>  <MolLogP>  (186) 
2.902

>  <MolMR>  (186) 
114.793

>  <fr_Al_COO>  (186) 
0

>  <fr_Al_OH>  (186) 
0

>  <fr_Al_OH_noTert>  (186) 
0

>  <fr_ArN>  (186) 
0

>  <fr_Ar_COO>  (186) 
0

>  <fr_Ar_N>  (186) 
1

>  <fr_Ar_NH>  (186) 
0

>  <fr_Ar_OH>  (186) 
0

>  <fr_COO>  (186) 
0

>  <fr_COO2>  (186) 
0

>  <fr_C_O>  (186) 
1

>  <fr_C_O_noCOO>  (186) 
1

>  <fr_C_S>  (186) 
0

>  <fr_HOCCN>  (186) 
0

>  <fr_Imine>  (186) 
0

>  <fr_NH0>  (186) 
1

>  <fr_NH1>  (186) 
2

>  <fr_NH2>  (186) 
0

>  <fr_N_O>  (186) 
0

>  <fr_Ndealkylation1>  (186) 
0

>  <fr_Ndealkylation2>  (186) 
0

>  <fr_Nhpyrrole>  (186) 
0

>  <fr_SH>  (186) 
0

>  <fr_aldehyde>  (186) 
0

>  <fr_alkyl_carbamate>  (186) 
0

>  <fr_alkyl_halide>  (186) 
0

>  <fr_allylic_oxid>  (186) 
0

>  <fr_amide>  (186) 
1

>  <fr_amidine>  (186) 
0

>  <fr_aniline>  (186) 
1

>  <fr_aryl_methyl>  (186) 
0

>  <fr_azide>  (186) 
0

>  <fr_azo>  (186) 
0

>  <fr_barbitur>  (186) 
0

>  <fr_benzene>  (186) 
2

>  <fr_benzodiazepine>  (186) 
0

>  <fr_bicyclic>  (186) 
0

>  <fr_diazo>  (186) 
0

>  <fr_dihydropyridine>  (186) 
0

>  <fr_epoxide>  (186) 
0

>  <fr_ester>  (186) 
0

>  <fr_ether>  (186) 
1

>  <fr_furan>  (186) 
0

>  <fr_guanido>  (186) 
0

>  <fr_halogen>  (186) 
0

>  <fr_hdrzine>  (186) 
0

>  <fr_hdrzone>  (186) 
0

>  <fr_imidazole>  (186) 
0

>  <fr_imide>  (186) 
0

>  <fr_isocyan>  (186) 
0

>  <fr_isothiocyan>  (186) 
0

>  <fr_ketone>  (186) 
0

>  <fr_ketone_Topliss>  (186) 
0

>  <fr_lactam>  (186) 
0

>  <fr_lactone>  (186) 
0

>  <fr_methoxy>  (186) 
1

>  <fr_morpholine>  (186) 
0

>  <fr_nitrile>  (186) 
0

>  <fr_nitro>  (186) 
0

>  <fr_nitro_arom>  (186) 
0

>  <fr_nitro_arom_nonortho>  (186) 
0

>  <fr_nitroso>  (186) 
0

>  <fr_oxazole>  (186) 
0

>  <fr_oxime>  (186) 
0

>  <fr_para_hydroxylation>  (186) 
0

>  <fr_phenol>  (186) 
0

>  <fr_phenol_noOrthoHbond>  (186) 
0

>  <fr_phos_acid>  (186) 
0

>  <fr_phos_ester>  (186) 
0

>  <fr_piperdine>  (186) 
0

>  <fr_piperzine>  (186) 
0

>  <fr_priamide>  (186) 
0

>  <fr_prisulfonamd>  (186) 
0

>  <fr_pyridine>  (186) 
1

>  <fr_quatN>  (186) 
1

>  <fr_sulfide>  (186) 
0

>  <fr_sulfonamd>  (186) 
0

>  <fr_sulfone>  (186) 
0

>  <fr_term_acetylene>  (186) 
0

>  <fr_tetrazole>  (186) 
0

>  <fr_thiazole>  (186) 
0

>  <fr_thiocyan>  (186) 
0

>  <fr_thiophene>  (186) 
0

>  <fr_unbrch_alkane>  (186) 
0

>  <fr_urea>  (186) 
0

>  <NP_Likeness>  (186) 
-1.176693

$$$$
J0P
     RDKit          3D

  0  0  0  0  0  0  0  0  0  0999 V3000
M  V30 BEGIN CTAB
M  V30 COUNTS 44 47 0 0 0
M  V30 BEGIN ATOM
M  V30 1 O -26.296000 -10.134000 1.377000 0
M  V30 2 O -19.674000 -13.285000 1.139000 0
M  V30 3 O -21.041000 -10.770000 0.966000 0
M  V30 4 N -33.167000 -9.975000 -4.453000 0
M  V30 5 N -24.950000 -10.643000 -0.483000 0
M  V30 6 C -19.423000 -12.190000 2.011000 0
M  V30 7 C -19.652000 -10.925000 1.237000 0
M  V30 8 C -33.108000 -9.715000 -3.143000 0
M  V30 9 C -32.005000 -10.318000 -5.021000 0
M  V30 10 C -23.000000 -14.330000 0.107000 0
M  V30 11 C -23.681000 -10.610000 0.200000 0
M  V30 12 C -21.680000 -14.362000 0.486000 0
M  V30 13 C -31.959000 -9.783000 -2.389000 0
M  V30 14 C -30.802000 -10.422000 -4.356000 0
M  V30 15 C -23.649000 -13.121000 0.004000 0
M  V30 16 C -27.296000 -9.585000 -1.870000 0
M  V30 17 C -28.443000 -10.955000 -0.267000 0
M  V30 18 C -28.431000 -9.568000 -2.648000 0
M  V30 19 C -29.571000 -10.913000 -1.044000 0
M  V30 20 C -26.131000 -10.336000 0.180000 0
M  V30 21 C -21.008000 -13.193000 0.760000 0
M  V30 22 C -21.661000 -11.981000 0.654000 0
M  V30 23 C -27.319000 -10.280000 -0.682000 0
M  V30 24 C -22.992000 -11.938000 0.280000 0
M  V30 25 C -30.778000 -10.152000 -3.005000 0
M  V30 26 C -29.571000 -10.223000 -2.235000 0
M  V30 27 H -24.980400 -10.891300 -1.451200 0
M  V30 28 H -18.477800 -12.223600 2.335800 0
M  V30 29 H -20.045600 -12.228000 2.792600 0
M  V30 30 H -19.329300 -10.144900 1.773000 0
M  V30 31 H -19.148200 -10.967900 0.374200 0
M  V30 32 H -33.955200 -9.453700 -2.680300 0
M  V30 33 H -32.009600 -10.513600 -6.001700 0
M  V30 34 H -23.486500 -15.180500 -0.092900 0
M  V30 35 H -23.834600 -10.279800 1.131300 0
M  V30 36 H -23.080500 -9.973800 -0.284500 0
M  V30 37 H -21.205400 -15.238800 0.563100 0
M  V30 38 H -31.978100 -9.569200 -1.412300 0
M  V30 39 H -29.968600 -10.686400 -4.841300 0
M  V30 40 H -24.609200 -13.098700 -0.274400 0
M  V30 41 H -26.470600 -9.101900 -2.162000 0
M  V30 42 H -28.437300 -11.469600 0.590400 0
M  V30 43 H -28.428500 -9.076900 -3.519100 0
M  V30 44 H -30.399100 -11.386500 -0.743900 0
M  V30 END ATOM
M  V30 BEGIN BOND
M  V30 1 2 1 20
M  V30 2 1 2 6
M  V30 3 1 2 21
M  V30 4 1 3 7
M  V30 5 1 3 22
M  V30 6 2 4 8
M  V30 7 1 4 9
M  V30 8 1 5 11
M  V30 9 1 5 20
M  V30 10 1 6 7
M  V30 11 1 8 13
M  V30 12 2 9 14
M  V30 13 1 10 12
M  V30 14 2 10 15
M  V30 15 1 11 24
M  V30 16 2 12 21
M  V30 17 2 13 25
M  V30 18 1 14 25
M  V30 19 1 15 24
M  V30 20 2 16 18
M  V30 21 1 16 23
M  V30 22 1 17 19
M  V30 23 2 17 23
M  V30 24 1 18 26
M  V30 25 2 19 26
M  V30 26 1 20 23
M  V30 27 1 21 22
M  V30 28 2 22 24
M  V30 29 1 25 26
M  V30 30 1 5 27
M  V30 31 1 6 28
M  V30 32 1 6 29
M  V30 33 1 7 30
M  V30 34 1 7 31
M  V30 35 1 8 32
M  V30 36 1 9 33
M  V30 37 1 10 34
M  V30 38 1 11 35
M  V30 39 1 11 36
M  V30 40 1 12 37
M  V30 41 1 13 38
M  V30 42 1 14 39
M  V30 43 1 15 40
M  V30 44 1 16 41
M  V30 45 1 17 42
M  V30 46 1 18 43
M  V30 47 1 19 44
M  V30 END BOND
M  V30 END CTAB
M  END
>  <Ligand_Instance>  (187) 
6E9L_J0P_A_401

>  <Dataset>  (187) 
PDB

>  <PDB_ID>  (187) 
6E9L

>  <Chain>  (187) 
A

>  <Resi>  (187) 
401

>  <Num_Resolved_Atoms>  (187) 
26

>  <Num_H_Atoms_ProtBoundConf>  (187) 
18

>  <Pocket>  (187) 
A

>  <Name>  (187) 
N-[(2,3-dihydro-1,4-benzodioxin-5-yl)methyl]-4-(pyridin-4-yl)benzamide

>  <Num_Not_Resolved_Atoms>  (187) 
0

>  <ATP_Site>  (187) 
True

>  <Peripheral>  (187) 
False

>  <Standardized_SMILES>  (187) 
[H]C1=NC([H])=C([H])C(C2=C([H])C([H])=C(C(=O)N([H])C([H])([H])C3=C([H])C([H])=C([H])C4=C3OC([H])([H])C([H])([H])O4)C([H])=C2[H])=C1[H]

>  <2D_Mol_H>  (187) 
<rdkit.Chem.rdchem.Mol object at 0x77059d81c580>

>  <MW>  (187) 
346.386

>  <HBA>  (187) 
4

>  <HBD>  (187) 
1

>  <LogP>  (187) 
3.4498

>  <NRB>  (187) 
4

>  <TPSA>  (187) 
60.45

>  <Num_Heavy_Atoms>  (187) 
26

>  <Ro5>  (187) 
[True, True, True, True, True, True]

>  <Ro5_Fulfilled>  (187) 
True

>  <Ro3>  (187) 
[False, False, True, False]

>  <Ro3_Fulfilled>  (187) 
False

>  <Fsp3>  (187) 
0.142857

>  <Fsp3_0.42>  (187) 
False

>  <Fsp3_0.45>  (187) 
False

>  <Stereogenic_Carbons>  (187) 
0

>  <C_Atoms>  (187) 
21

>  <FCStereo>  (187) 
0.0

>  <SPS>  (187) 
324

>  <nSPS>  (187) 
12.461538

>  <PBF>  (187) 
0.8169

>  <PBF_0.6>  (187) 
True

>  <nPBF>  (187) 
0.031419

>  <nPBF_0.016>  (187) 
True

>  <PMI1>  (187) 
649.241583

>  <PMI2>  (187) 
8434.84819

>  <PMI3>  (187) 
8617.201927

>  <NPR1>  (187) 
0.075343

>  <NPR2>  (187) 
0.978838

>  <Sum_NPR>  (187) 
1.054181

>  <Sum_NPR_1.07>  (187) 
False

>  <Sum_NPR_1.2>  (187) 
False

>  <MaxAbsEStateIndex>  (187) 
12.440709

>  <MaxEStateIndex>  (187) 
12.440709

>  <MinAbsEStateIndex>  (187) 
0.124436

>  <MinEStateIndex>  (187) 
-0.124436

>  <qed>  (187) 
0.785973

>  <MolWt>  (187) 
346.386

>  <HeavyAtomMolWt>  (187) 
328.242

>  <ExactMolWt>  (187) 
346.131742

>  <NumValenceElectrons>  (187) 
130

>  <NumRadicalElectrons>  (187) 
0

>  <MaxPartialCharge>  (187) 
0.251047

>  <MinPartialCharge>  (187) 
-0.486135

>  <MaxAbsPartialCharge>  (187) 
0.486135

>  <MinAbsPartialCharge>  (187) 
0.251047

>  <FpDensityMorgan1>  (187) 
0.923077

>  <FpDensityMorgan2>  (187) 
1.653846

>  <FpDensityMorgan3>  (187) 
2.461538

>  <BCUT2D_MWHI>  (187) 
16.562946

>  <BCUT2D_MWLOW>  (187) 
10.04847

>  <BCUT2D_CHGHI>  (187) 
2.157942

>  <BCUT2D_CHGLO>  (187) 
-2.206301

>  <BCUT2D_LOGPHI>  (187) 
2.330118

>  <BCUT2D_LOGPLOW>  (187) 
-2.239192

>  <BCUT2D_MRHI>  (187) 
5.942328

>  <BCUT2D_MRLOW>  (187) 
0.094963

>  <AvgIpc>  (187) 
2.72519

>  <BalabanJ>  (187) 
1.441998

>  <BertzCT>  (187) 
908.299133

>  <Chi0>  (187) 
17.769374

>  <Chi0n>  (187) 
14.144132

>  <Chi0v>  (187) 
14.144132

>  <Chi1>  (187) 
12.809663

>  <Chi1n>  (187) 
8.472628

>  <Chi1v>  (187) 
8.472628

>  <Chi2n>  (187) 
5.937237

>  <Chi2v>  (187) 
5.937237

>  <Chi3n>  (187) 
4.247889

>  <Chi3v>  (187) 
4.247889

>  <Chi4n>  (187) 
2.909308

>  <Chi4v>  (187) 
2.909308

>  <HallKierAlpha>  (187) 
-3.34

>  <Ipc>  (187) 
1580784.843015

>  <Kappa1>  (187) 
16.145946

>  <Kappa2>  (187) 
7.270368

>  <Kappa3>  (187) 
3.372509

>  <LabuteASA>  (187) 
151.157652

>  <PEOE_VSA1>  (187) 
14.790515

>  <PEOE_VSA10>  (187) 
13.213764

>  <PEOE_VSA11>  (187) 
11.499024

>  <PEOE_VSA12>  (187) 
0.0

>  <PEOE_VSA13>  (187) 
5.90718

>  <PEOE_VSA14>  (187) 
0.0

>  <PEOE_VSA2>  (187) 
9.778516

>  <PEOE_VSA3>  (187) 
0.0

>  <PEOE_VSA4>  (187) 
0.0

>  <PEOE_VSA5>  (187) 
0.0

>  <PEOE_VSA6>  (187) 
24.265468

>  <PEOE_VSA7>  (187) 
41.458738

>  <PEOE_VSA8>  (187) 
30.065347

>  <PEOE_VSA9>  (187) 
0.0

>  <SMR_VSA1>  (187) 
14.268263

>  <SMR_VSA10>  (187) 
5.90718

>  <SMR_VSA2>  (187) 
0.0

>  <SMR_VSA3>  (187) 
10.300767

>  <SMR_VSA4>  (187) 
0.0

>  <SMR_VSA5>  (187) 
6.544756

>  <SMR_VSA6>  (187) 
13.213764

>  <SMR_VSA7>  (187) 
78.117894

>  <SMR_VSA8>  (187) 
0.0

>  <SMR_VSA9>  (187) 
22.625927

>  <SlogP_VSA1>  (187) 
14.790515

>  <SlogP_VSA10>  (187) 
0.0

>  <SlogP_VSA11>  (187) 
11.499024

>  <SlogP_VSA12>  (187) 
0.0

>  <SlogP_VSA2>  (187) 
24.104922

>  <SlogP_VSA3>  (187) 
6.544756

>  <SlogP_VSA4>  (187) 
0.0

>  <SlogP_VSA5>  (187) 
15.92144

>  <SlogP_VSA6>  (187) 
66.990991

>  <SlogP_VSA7>  (187) 
0.0

>  <SlogP_VSA8>  (187) 
11.126903

>  <SlogP_VSA9>  (187) 
0.0

>  <EState_VSA1>  (187) 
0.0

>  <EState_VSA10>  (187) 
4.794537

>  <EState_VSA11>  (187) 
0.0

>  <EState_VSA2>  (187) 
5.90718

>  <EState_VSA3>  (187) 
31.071484

>  <EState_VSA4>  (187) 
22.439866

>  <EState_VSA5>  (187) 
0.0

>  <EState_VSA6>  (187) 
12.393687

>  <EState_VSA7>  (187) 
54.597304

>  <EState_VSA8>  (187) 
10.300767

>  <EState_VSA9>  (187) 
9.473726

>  <VSA_EState1>  (187) 
11.244518

>  <VSA_EState10>  (187) 
0.0

>  <VSA_EState2>  (187) 
16.457829

>  <VSA_EState3>  (187) 
2.940108

>  <VSA_EState4>  (187) 
3.639238

>  <VSA_EState5>  (187) 
1.317034

>  <VSA_EState6>  (187) 
17.106523

>  <VSA_EState7>  (187) 
3.504533

>  <VSA_EState8>  (187) 
1.456884

>  <VSA_EState9>  (187) 
0.0

>  <FractionCSP3>  (187) 
0.142857

>  <HeavyAtomCount>  (187) 
26

>  <NHOHCount>  (187) 
1

>  <NOCount>  (187) 
5

>  <NumAliphaticCarbocycles>  (187) 
0

>  <NumAliphaticHeterocycles>  (187) 
1

>  <NumAliphaticRings>  (187) 
1

>  <NumAromaticCarbocycles>  (187) 
2

>  <NumAromaticHeterocycles>  (187) 
1

>  <NumAromaticRings>  (187) 
3

>  <NumHAcceptors>  (187) 
4

>  <NumHDonors>  (187) 
1

>  <NumHeteroatoms>  (187) 
5

>  <NumRotatableBonds>  (187) 
4

>  <NumSaturatedCarbocycles>  (187) 
0

>  <NumSaturatedHeterocycles>  (187) 
0

>  <NumSaturatedRings>  (187) 
0

>  <RingCount>  (187) 
4

>  <MolLogP>  (187) 
3.4498

>  <MolMR>  (187) 
98.2752

>  <fr_Al_COO>  (187) 
0

>  <fr_Al_OH>  (187) 
0

>  <fr_Al_OH_noTert>  (187) 
0

>  <fr_ArN>  (187) 
0

>  <fr_Ar_COO>  (187) 
0

>  <fr_Ar_N>  (187) 
1

>  <fr_Ar_NH>  (187) 
0

>  <fr_Ar_OH>  (187) 
0

>  <fr_COO>  (187) 
0

>  <fr_COO2>  (187) 
0

>  <fr_C_O>  (187) 
1

>  <fr_C_O_noCOO>  (187) 
1

>  <fr_C_S>  (187) 
0

>  <fr_HOCCN>  (187) 
0

>  <fr_Imine>  (187) 
0

>  <fr_NH0>  (187) 
1

>  <fr_NH1>  (187) 
1

>  <fr_NH2>  (187) 
0

>  <fr_N_O>  (187) 
0

>  <fr_Ndealkylation1>  (187) 
0

>  <fr_Ndealkylation2>  (187) 
0

>  <fr_Nhpyrrole>  (187) 
0

>  <fr_SH>  (187) 
0

>  <fr_aldehyde>  (187) 
0

>  <fr_alkyl_carbamate>  (187) 
0

>  <fr_alkyl_halide>  (187) 
0

>  <fr_allylic_oxid>  (187) 
0

>  <fr_amide>  (187) 
1

>  <fr_amidine>  (187) 
0

>  <fr_aniline>  (187) 
0

>  <fr_aryl_methyl>  (187) 
0

>  <fr_azide>  (187) 
0

>  <fr_azo>  (187) 
0

>  <fr_barbitur>  (187) 
0

>  <fr_benzene>  (187) 
2

>  <fr_benzodiazepine>  (187) 
0

>  <fr_bicyclic>  (187) 
1

>  <fr_diazo>  (187) 
0

>  <fr_dihydropyridine>  (187) 
0

>  <fr_epoxide>  (187) 
0

>  <fr_ester>  (187) 
0

>  <fr_ether>  (187) 
2

>  <fr_furan>  (187) 
0

>  <fr_guanido>  (187) 
0

>  <fr_halogen>  (187) 
0

>  <fr_hdrzine>  (187) 
0

>  <fr_hdrzone>  (187) 
0

>  <fr_imidazole>  (187) 
0

>  <fr_imide>  (187) 
0

>  <fr_isocyan>  (187) 
0

>  <fr_isothiocyan>  (187) 
0

>  <fr_ketone>  (187) 
0

>  <fr_ketone_Topliss>  (187) 
0

>  <fr_lactam>  (187) 
0

>  <fr_lactone>  (187) 
0

>  <fr_methoxy>  (187) 
0

>  <fr_morpholine>  (187) 
0

>  <fr_nitrile>  (187) 
0

>  <fr_nitro>  (187) 
0

>  <fr_nitro_arom>  (187) 
0

>  <fr_nitro_arom_nonortho>  (187) 
0

>  <fr_nitroso>  (187) 
0

>  <fr_oxazole>  (187) 
0

>  <fr_oxime>  (187) 
0

>  <fr_para_hydroxylation>  (187) 
1

>  <fr_phenol>  (187) 
0

>  <fr_phenol_noOrthoHbond>  (187) 
0

>  <fr_phos_acid>  (187) 
0

>  <fr_phos_ester>  (187) 
0

>  <fr_piperdine>  (187) 
0

>  <fr_piperzine>  (187) 
0

>  <fr_priamide>  (187) 
0

>  <fr_prisulfonamd>  (187) 
0

>  <fr_pyridine>  (187) 
1

>  <fr_quatN>  (187) 
0

>  <fr_sulfide>  (187) 
0

>  <fr_sulfonamd>  (187) 
0

>  <fr_sulfone>  (187) 
0

>  <fr_term_acetylene>  (187) 
0

>  <fr_tetrazole>  (187) 
0

>  <fr_thiazole>  (187) 
0

>  <fr_thiocyan>  (187) 
0

>  <fr_thiophene>  (187) 
0

>  <fr_unbrch_alkane>  (187) 
0

>  <fr_urea>  (187) 
0

>  <NP_Likeness>  (187) 
-1.095863

$$$$
J4B
     RDKit          3D

  0  0  0  0  0  0  0  0  0  0999 V3000
M  V30 BEGIN CTAB
M  V30 COUNTS 44 45 0 0 0
M  V30 BEGIN ATOM
M  V30 1 F -22.054000 -14.486000 1.384000 0
M  V30 2 F -23.368000 -13.593000 -3.021000 0
M  V30 3 O -26.362000 -10.725000 0.996000 0
M  V30 4 O -27.033000 -10.810000 -2.860000 0
M  V30 5 O -33.336000 -10.202000 -3.744000 0
M  V30 6 O -23.948000 -10.106000 1.802000 0
M  V30 7 N -26.137000 -9.491000 -0.836000 0
M  V30 8 N -27.484000 -9.413000 -1.199000 0
M  V30 9 C -28.246000 -11.046000 -5.928000 0
M  V30 10 C -31.588000 -9.911000 -5.863000 0
M  V30 11 C -28.640000 -9.754000 -5.220000 0
M  V30 12 C -31.622000 -10.270000 -2.075000 0
M  V30 13 C -30.274000 -10.279000 -1.754000 0
M  V30 14 C -22.710000 -14.040000 -0.828000 0
M  V30 15 C -23.039000 -12.395000 0.885000 0
M  V30 16 C -23.724000 -11.921000 -1.393000 0
M  V30 17 C -25.645000 -10.159000 0.208000 0
M  V30 18 C -27.862000 -10.099000 -2.308000 0
M  V30 19 C -22.584000 -13.640000 0.490000 0
M  V30 20 C -23.275000 -13.182000 -1.756000 0
M  V30 21 C -32.010000 -10.169000 -3.419000 0
M  V30 22 C -24.145000 -10.184000 0.392000 0 CFG=2
M  V30 23 C -31.058000 -10.032000 -4.443000 0
M  V30 24 C -23.628000 -11.533000 -0.052000 0
M  V30 25 C -29.288000 -10.086000 -2.758000 0
M  V30 26 C -29.678000 -9.980000 -4.128000 0
M  V30 27 H -34.024700 -10.297800 -3.025300 0
M  V30 28 H -24.349200 -9.258000 2.148200 0
M  V30 29 H -25.482200 -9.001200 -1.411600 0
M  V30 30 H -28.139200 -8.876800 -0.666700 0
M  V30 31 H -27.565500 -10.845700 -6.632800 0
M  V30 32 H -27.859400 -11.685700 -5.263600 0
M  V30 33 H -29.054700 -11.453800 -6.351800 0
M  V30 34 H -30.821200 -9.819400 -6.498300 0
M  V30 35 H -32.115400 -10.728900 -6.092800 0
M  V30 36 H -32.176000 -9.105000 -5.931800 0
M  V30 37 H -29.017800 -9.120600 -5.895400 0
M  V30 38 H -27.822500 -9.352400 -4.807200 0
M  V30 39 H -32.312300 -10.335000 -1.354400 0
M  V30 40 H -29.992400 -10.422900 -0.805300 0
M  V30 41 H -22.394000 -14.946000 -1.109700 0
M  V30 42 H -22.948100 -12.109200 1.839000 0
M  V30 43 H -24.109000 -11.300900 -2.076600 0
M  V30 44 H -23.695500 -9.432800 -0.091400 0
M  V30 END ATOM
M  V30 BEGIN BOND
M  V30 1 1 1 19
M  V30 2 1 2 20
M  V30 3 2 3 17
M  V30 4 2 4 18
M  V30 5 1 5 21
M  V30 6 1 6 22
M  V30 7 1 7 8
M  V30 8 1 7 17
M  V30 9 1 8 18
M  V30 10 1 9 11
M  V30 11 1 10 23
M  V30 12 1 11 26
M  V30 13 2 12 13
M  V30 14 1 12 21
M  V30 15 1 13 25
M  V30 16 2 14 19
M  V30 17 1 14 20
M  V30 18 1 15 19
M  V30 19 2 15 24
M  V30 20 2 16 20
M  V30 21 1 16 24
M  V30 22 1 17 22
M  V30 23 1 18 25
M  V30 24 2 21 23
M  V30 25 1 22 24
M  V30 26 1 23 26
M  V30 27 2 25 26
M  V30 28 1 5 27
M  V30 29 1 6 28
M  V30 30 1 7 29
M  V30 31 1 8 30
M  V30 32 1 9 31
M  V30 33 1 9 32
M  V30 34 1 9 33
M  V30 35 1 10 34
M  V30 36 1 10 35
M  V30 37 1 10 36
M  V30 38 1 11 37
M  V30 39 1 11 38
M  V30 40 1 12 39
M  V30 41 1 13 40
M  V30 42 1 14 41
M  V30 43 1 15 42
M  V30 44 1 16 43
M  V30 45 1 22 44 CFG=3
M  V30 END BOND
M  V30 END CTAB
M  END
>  <Ligand_Instance>  (188) 
6QJ7_J4B_A_401

>  <Dataset>  (188) 
PDB

>  <PDB_ID>  (188) 
6QJ7

>  <Chain>  (188) 
A

>  <Resi>  (188) 
401

>  <Num_Resolved_Atoms>  (188) 
26

>  <Num_H_Atoms_ProtBoundConf>  (188) 
18

>  <Pocket>  (188) 
A

>  <Name>  (188) 
~{N}'-[(2~{S})-2-[3,5-bis(fluoranyl)phenyl]-2-oxidanyl-ethanoyl]-2-ethyl-3-methyl-4-oxidanyl-benzohydrazide

>  <Num_Not_Resolved_Atoms>  (188) 
0

>  <ATP_Site>  (188) 
True

>  <Peripheral>  (188) 
False

>  <Standardized_SMILES>  (188) 
[H]OC1=C([H])C([H])=C(C(=O)N([H])N([H])C(=O)[C@@]([H])(O[H])C2=C([H])C(F)=C([H])C(F)=C2[H])C(C([H])([H])C([H])([H])[H])=C1C([H])([H])[H]

>  <2D_Mol_H>  (188) 
<rdkit.Chem.rdchem.Mol object at 0x77059d81c660>

>  <MW>  (188) 
364.348

>  <HBA>  (188) 
4

>  <HBD>  (188) 
4

>  <LogP>  (188) 
2.03582

>  <NRB>  (188) 
8

>  <TPSA>  (188) 
98.66

>  <Num_Heavy_Atoms>  (188) 
26

>  <Ro5>  (188) 
[True, True, True, True, True, True]

>  <Ro5_Fulfilled>  (188) 
True

>  <Ro3>  (188) 
[False, False, False, True]

>  <Ro3_Fulfilled>  (188) 
False

>  <Fsp3>  (188) 
0.222222

>  <Fsp3_0.42>  (188) 
False

>  <Fsp3_0.45>  (188) 
False

>  <Stereogenic_Carbons>  (188) 
1

>  <C_Atoms>  (188) 
18

>  <FCStereo>  (188) 
0.055556

>  <SPS>  (188) 
305

>  <nSPS>  (188) 
11.730769

>  <PBF>  (188) 
0.9359

>  <PBF_0.6>  (188) 
True

>  <nPBF>  (188) 
0.035996

>  <nPBF_0.016>  (188) 
True

>  <PMI1>  (188) 
1284.630433

>  <PMI2>  (188) 
6094.153623

>  <PMI3>  (188) 
6731.34538

>  <NPR1>  (188) 
0.190843

>  <NPR2>  (188) 
0.90534

>  <Sum_NPR>  (188) 
1.096183

>  <Sum_NPR_1.07>  (188) 
True

>  <Sum_NPR_1.2>  (188) 
False

>  <MaxAbsEStateIndex>  (188) 
13.167995

>  <MaxEStateIndex>  (188) 
13.167995

>  <MinAbsEStateIndex>  (188) 
0.047212

>  <MinEStateIndex>  (188) 
-1.867871

>  <qed>  (188) 
0.624142

>  <MolWt>  (188) 
364.348

>  <HeavyAtomMolWt>  (188) 
346.204

>  <ExactMolWt>  (188) 
364.123463

>  <NumValenceElectrons>  (188) 
138

>  <NumRadicalElectrons>  (188) 
0

>  <MaxPartialCharge>  (188) 
0.271339

>  <MinPartialCharge>  (188) 
-0.507676

>  <MaxAbsPartialCharge>  (188) 
0.507676

>  <MinAbsPartialCharge>  (188) 
0.271339

>  <FpDensityMorgan1>  (188) 
1.115385

>  <FpDensityMorgan2>  (188) 
1.730769

>  <FpDensityMorgan3>  (188) 
2.307692

>  <BCUT2D_MWHI>  (188) 
19.145435

>  <BCUT2D_MWLOW>  (188) 
9.982294

>  <BCUT2D_CHGHI>  (188) 
2.206357

>  <BCUT2D_CHGLO>  (188) 
-2.149782

>  <BCUT2D_LOGPHI>  (188) 
2.237833

>  <BCUT2D_LOGPLOW>  (188) 
-2.438638

>  <BCUT2D_MRHI>  (188) 
5.972623

>  <BCUT2D_MRLOW>  (188) 
-0.129977

>  <AvgIpc>  (188) 
2.594812

>  <BalabanJ>  (188) 
2.094087

>  <BertzCT>  (188) 
835.075005

>  <Chi0>  (188) 
19.430357

>  <Chi0n>  (188) 
14.138061

>  <Chi0v>  (188) 
14.138061

>  <Chi1>  (188) 
12.23929

>  <Chi1n>  (188) 
7.798763

>  <Chi1v>  (188) 
7.798763

>  <Chi2n>  (188) 
5.638049

>  <Chi2v>  (188) 
5.638049

>  <Chi3n>  (188) 
3.916245

>  <Chi3v>  (188) 
3.916245

>  <Chi4n>  (188) 
2.551272

>  <Chi4v>  (188) 
2.551272

>  <HallKierAlpha>  (188) 
-3.0

>  <Ipc>  (188) 
432767.89695

>  <Kappa1>  (188) 
19.326389

>  <Kappa2>  (188) 
7.92

>  <Kappa3>  (188) 
4.148148

>  <LabuteASA>  (188) 
147.990593

>  <PEOE_VSA1>  (188) 
10.213055

>  <PEOE_VSA10>  (188) 
17.383954

>  <PEOE_VSA11>  (188) 
6.103966

>  <PEOE_VSA12>  (188) 
0.0

>  <PEOE_VSA13>  (188) 
11.814359

>  <PEOE_VSA14>  (188) 
0.0

>  <PEOE_VSA2>  (188) 
20.440657

>  <PEOE_VSA3>  (188) 
8.78083

>  <PEOE_VSA4>  (188) 
0.0

>  <PEOE_VSA5>  (188) 
0.0

>  <PEOE_VSA6>  (188) 
6.923737

>  <PEOE_VSA7>  (188) 
54.300382

>  <PEOE_VSA8>  (188) 
11.629819

>  <PEOE_VSA9>  (188) 
0.0

>  <SMR_VSA1>  (188) 
28.582959

>  <SMR_VSA10>  (188) 
11.814359

>  <SMR_VSA2>  (188) 
0.0

>  <SMR_VSA3>  (188) 
10.851583

>  <SMR_VSA4>  (188) 
0.0

>  <SMR_VSA5>  (188) 
26.372262

>  <SMR_VSA6>  (188) 
0.0

>  <SMR_VSA7>  (188) 
64.220083

>  <SMR_VSA8>  (188) 
0.0

>  <SMR_VSA9>  (188) 
5.749512

>  <SlogP_VSA1>  (188) 
10.851583

>  <SlogP_VSA10>  (188) 
8.78083

>  <SlogP_VSA11>  (188) 
5.749512

>  <SlogP_VSA12>  (188) 
0.0

>  <SlogP_VSA2>  (188) 
22.027414

>  <SlogP_VSA3>  (188) 
11.215359

>  <SlogP_VSA4>  (188) 
18.558179

>  <SlogP_VSA5>  (188) 
40.076047

>  <SlogP_VSA6>  (188) 
30.331835

>  <SlogP_VSA7>  (188) 
0.0

>  <SlogP_VSA8>  (188) 
0.0

>  <SlogP_VSA9>  (188) 
0.0

>  <EState_VSA1>  (188) 
29.552768

>  <EState_VSA10>  (188) 
28.582959

>  <EState_VSA11>  (188) 
0.0

>  <EState_VSA2>  (188) 
16.876415

>  <EState_VSA3>  (188) 
23.614092

>  <EState_VSA4>  (188) 
12.132734

>  <EState_VSA5>  (188) 
12.132734

>  <EState_VSA6>  (188) 
13.847474

>  <EState_VSA7>  (188) 
5.425791

>  <EState_VSA8>  (188) 
5.425791

>  <EState_VSA9>  (188) 
0.0

>  <VSA_EState1>  (188) 
26.335991

>  <VSA_EState10>  (188) 
0.0

>  <VSA_EState2>  (188) 
24.167236

>  <VSA_EState3>  (188) 
19.576352

>  <VSA_EState4>  (188) 
5.241511

>  <VSA_EState5>  (188) 
-3.551025

>  <VSA_EState6>  (188) 
4.993353

>  <VSA_EState7>  (188) 
-1.393538

>  <VSA_EState8>  (188) 
3.463454

>  <VSA_EState9>  (188) 
0.0

>  <FractionCSP3>  (188) 
0.222222

>  <HeavyAtomCount>  (188) 
26

>  <NHOHCount>  (188) 
4

>  <NOCount>  (188) 
6

>  <NumAliphaticCarbocycles>  (188) 
0

>  <NumAliphaticHeterocycles>  (188) 
0

>  <NumAliphaticRings>  (188) 
0

>  <NumAromaticCarbocycles>  (188) 
2

>  <NumAromaticHeterocycles>  (188) 
0

>  <NumAromaticRings>  (188) 
2

>  <NumHAcceptors>  (188) 
4

>  <NumHDonors>  (188) 
4

>  <NumHeteroatoms>  (188) 
8

>  <NumRotatableBonds>  (188) 
4

>  <NumSaturatedCarbocycles>  (188) 
0

>  <NumSaturatedHeterocycles>  (188) 
0

>  <NumSaturatedRings>  (188) 
0

>  <RingCount>  (188) 
2

>  <MolLogP>  (188) 
2.03582

>  <MolMR>  (188) 
89.1485

>  <fr_Al_COO>  (188) 
0

>  <fr_Al_OH>  (188) 
1

>  <fr_Al_OH_noTert>  (188) 
1

>  <fr_ArN>  (188) 
0

>  <fr_Ar_COO>  (188) 
0

>  <fr_Ar_N>  (188) 
0

>  <fr_Ar_NH>  (188) 
0

>  <fr_Ar_OH>  (188) 
1

>  <fr_COO>  (188) 
0

>  <fr_COO2>  (188) 
0

>  <fr_C_O>  (188) 
2

>  <fr_C_O_noCOO>  (188) 
2

>  <fr_C_S>  (188) 
0

>  <fr_HOCCN>  (188) 
0

>  <fr_Imine>  (188) 
0

>  <fr_NH0>  (188) 
0

>  <fr_NH1>  (188) 
2

>  <fr_NH2>  (188) 
0

>  <fr_N_O>  (188) 
0

>  <fr_Ndealkylation1>  (188) 
0

>  <fr_Ndealkylation2>  (188) 
0

>  <fr_Nhpyrrole>  (188) 
0

>  <fr_SH>  (188) 
0

>  <fr_aldehyde>  (188) 
0

>  <fr_alkyl_carbamate>  (188) 
0

>  <fr_alkyl_halide>  (188) 
0

>  <fr_allylic_oxid>  (188) 
0

>  <fr_amide>  (188) 
2

>  <fr_amidine>  (188) 
0

>  <fr_aniline>  (188) 
0

>  <fr_aryl_methyl>  (188) 
0

>  <fr_azide>  (188) 
0

>  <fr_azo>  (188) 
0

>  <fr_barbitur>  (188) 
0

>  <fr_benzene>  (188) 
2

>  <fr_benzodiazepine>  (188) 
0

>  <fr_bicyclic>  (188) 
0

>  <fr_diazo>  (188) 
0

>  <fr_dihydropyridine>  (188) 
0

>  <fr_epoxide>  (188) 
0

>  <fr_ester>  (188) 
0

>  <fr_ether>  (188) 
0

>  <fr_furan>  (188) 
0

>  <fr_guanido>  (188) 
0

>  <fr_halogen>  (188) 
2

>  <fr_hdrzine>  (188) 
1

>  <fr_hdrzone>  (188) 
0

>  <fr_imidazole>  (188) 
0

>  <fr_imide>  (188) 
0

>  <fr_isocyan>  (188) 
0

>  <fr_isothiocyan>  (188) 
0

>  <fr_ketone>  (188) 
0

>  <fr_ketone_Topliss>  (188) 
0

>  <fr_lactam>  (188) 
0

>  <fr_lactone>  (188) 
0

>  <fr_methoxy>  (188) 
0

>  <fr_morpholine>  (188) 
0

>  <fr_nitrile>  (188) 
0

>  <fr_nitro>  (188) 
0

>  <fr_nitro_arom>  (188) 
0

>  <fr_nitro_arom_nonortho>  (188) 
0

>  <fr_nitroso>  (188) 
0

>  <fr_oxazole>  (188) 
0

>  <fr_oxime>  (188) 
0

>  <fr_para_hydroxylation>  (188) 
0

>  <fr_phenol>  (188) 
1

>  <fr_phenol_noOrthoHbond>  (188) 
1

>  <fr_phos_acid>  (188) 
0

>  <fr_phos_ester>  (188) 
0

>  <fr_piperdine>  (188) 
0

>  <fr_piperzine>  (188) 
0

>  <fr_priamide>  (188) 
0

>  <fr_prisulfonamd>  (188) 
0

>  <fr_pyridine>  (188) 
0

>  <fr_quatN>  (188) 
0

>  <fr_sulfide>  (188) 
0

>  <fr_sulfonamd>  (188) 
0

>  <fr_sulfone>  (188) 
0

>  <fr_term_acetylene>  (188) 
0

>  <fr_tetrazole>  (188) 
0

>  <fr_thiazole>  (188) 
0

>  <fr_thiocyan>  (188) 
0

>  <fr_thiophene>  (188) 
0

>  <fr_unbrch_alkane>  (188) 
0

>  <fr_urea>  (188) 
0

>  <NP_Likeness>  (188) 
-0.687334

$$$$
L15
     RDKit          3D

  0  0  0  0  0  0  0  0  0  0999 V3000
M  V30 BEGIN CTAB
M  V30 COUNTS 31 32 0 0 0
M  V30 BEGIN ATOM
M  V30 1 N 10.736000 7.609000 2.627000 0 CHG=1
M  V30 2 N 2.795000 9.698000 4.299000 0
M  V30 3 N 2.825000 9.809000 2.944000 0
M  V30 4 C 4.399000 10.045000 1.027000 0
M  V30 5 C 11.294000 8.498000 3.682000 0
M  V30 6 C 4.083000 9.730000 4.690000 0
M  V30 7 C 10.708000 9.897000 3.687000 0
M  V30 8 C 8.475000 10.206000 4.813000 0
M  V30 9 C 8.514000 9.588000 2.503000 0
M  V30 10 C 7.093000 10.206000 4.789000 0
M  V30 11 C 7.137000 9.585000 2.479000 0
M  V30 12 C 4.107000 9.909000 2.480000 0
M  V30 13 C 9.200000 9.897000 3.669000 0
M  V30 14 C 6.409000 9.902000 3.619000 0
M  V30 15 C 4.941000 9.866000 3.596000 0
M  V30 16 H 11.284400 7.694100 1.795100 0
M  V30 17 H 10.756900 6.661000 2.944600 0
M  V30 18 H 5.387800 10.103600 0.889800 0
M  V30 19 H 4.041400 9.248700 0.539200 0
M  V30 20 H 3.964000 10.874100 0.675800 0
M  V30 21 H 12.281200 8.571600 3.540700 0
M  V30 22 H 11.115000 8.079400 4.572300 0
M  V30 23 H 4.386200 9.664800 5.640700 0
M  V30 24 H 11.037500 10.384700 2.878500 0
M  V30 25 H 11.018000 10.370700 4.511300 0
M  V30 26 H 8.956600 10.430100 5.660300 0
M  V30 27 H 9.024300 9.365400 1.672300 0
M  V30 28 H 6.582000 10.426400 5.619800 0
M  V30 29 H 6.656800 9.352500 1.633200 0
M  V30 30 H 9.791800 7.874600 2.432400 0
M  V30 31 H 2.012500 9.816500 2.361100 0
M  V30 END ATOM
M  V30 BEGIN BOND
M  V30 1 1 1 5
M  V30 2 1 2 3
M  V30 3 2 2 6
M  V30 4 1 3 12
M  V30 5 1 4 12
M  V30 6 1 5 7
M  V30 7 1 6 15
M  V30 8 1 7 13
M  V30 9 2 8 10
M  V30 10 1 8 13
M  V30 11 1 9 11
M  V30 12 2 9 13
M  V30 13 1 10 14
M  V30 14 2 11 14
M  V30 15 2 12 15
M  V30 16 1 14 15
M  V30 17 1 1 16
M  V30 18 1 1 17
M  V30 19 1 1 30
M  V30 20 1 4 18
M  V30 21 1 4 19
M  V30 22 1 4 20
M  V30 23 1 5 21
M  V30 24 1 5 22
M  V30 25 1 6 23
M  V30 26 1 7 24
M  V30 27 1 7 25
M  V30 28 1 8 26
M  V30 29 1 9 27
M  V30 30 1 10 28
M  V30 31 1 11 29
M  V30 32 1 3 31
M  V30 END BOND
M  V30 END CTAB
M  END
>  <Ligand_Instance>  (189) 
2UW4_L15_A_1351

>  <Dataset>  (189) 
PDB

>  <PDB_ID>  (189) 
2UW4

>  <Chain>  (189) 
A

>  <Resi>  (189) 
1351

>  <Num_Resolved_Atoms>  (189) 
15

>  <Num_H_Atoms_ProtBoundConf>  (189) 
16

>  <Pocket>  (189) 
A

>  <Name>  (189) 
2-[4-(3-METHYL-1H-PYRAZOL-4-YL)PHENYL]ETHANAMINE

>  <Num_Not_Resolved_Atoms>  (189) 
0

>  <ATP_Site>  (189) 
True

>  <Peripheral>  (189) 
False

>  <Standardized_SMILES>  (189) 
[H]C1=NN([H])C(C([H])([H])[H])=C1C1=C([H])C([H])=C(C([H])([H])C([H])([H])[N+]([H])([H])[H])C([H])=C1[H]

>  <2D_Mol_H>  (189) 
<rdkit.Chem.rdchem.Mol object at 0x77059d81c740>

>  <MW>  (189) 
202.281

>  <HBA>  (189) 
1

>  <HBD>  (189) 
2

>  <LogP>  (189) 
1.16952

>  <NRB>  (189) 
5

>  <TPSA>  (189) 
56.32

>  <Num_Heavy_Atoms>  (189) 
15

>  <Ro5>  (189) 
[True, True, True, True, True, True]

>  <Ro5_Fulfilled>  (189) 
True

>  <Ro3>  (189) 
[True, True, True, True]

>  <Ro3_Fulfilled>  (189) 
True

>  <Fsp3>  (189) 
0.25

>  <Fsp3_0.42>  (189) 
False

>  <Fsp3_0.45>  (189) 
False

>  <Stereogenic_Carbons>  (189) 
0

>  <C_Atoms>  (189) 
12

>  <FCStereo>  (189) 
0.0

>  <SPS>  (189) 
158

>  <nSPS>  (189) 
10.533333

>  <PBF>  (189) 
0.63978

>  <PBF_0.6>  (189) 
True

>  <nPBF>  (189) 
0.042652

>  <nPBF_0.016>  (189) 
True

>  <PMI1>  (189) 
322.302191

>  <PMI2>  (189) 
1805.747967

>  <PMI3>  (189) 
1983.162976

>  <NPR1>  (189) 
0.162519

>  <NPR2>  (189) 
0.910539

>  <Sum_NPR>  (189) 
1.073059

>  <Sum_NPR_1.07>  (189) 
True

>  <Sum_NPR_1.2>  (189) 
False

>  <MaxAbsEStateIndex>  (189) 
4.021852

>  <MaxEStateIndex>  (189) 
4.021852

>  <MinAbsEStateIndex>  (189) 
0.948497

>  <MinEStateIndex>  (189) 
0.948497

>  <qed>  (189) 
0.770896

>  <MolWt>  (189) 
202.281

>  <HeavyAtomMolWt>  (189) 
186.153

>  <ExactMolWt>  (189) 
202.133874

>  <NumValenceElectrons>  (189) 
78

>  <NumRadicalElectrons>  (189) 
0

>  <MaxPartialCharge>  (189) 
0.078032

>  <MinPartialCharge>  (189) 
-0.357285

>  <MaxAbsPartialCharge>  (189) 
0.357285

>  <MinAbsPartialCharge>  (189) 
0.078032

>  <FpDensityMorgan1>  (189) 
1.266667

>  <FpDensityMorgan2>  (189) 
2.0

>  <FpDensityMorgan3>  (189) 
2.533333

>  <BCUT2D_MWHI>  (189) 
15.100376

>  <BCUT2D_MWLOW>  (189) 
10.038059

>  <BCUT2D_CHGHI>  (189) 
2.025808

>  <BCUT2D_CHGLO>  (189) 
-2.010443

>  <BCUT2D_LOGPHI>  (189) 
2.209902

>  <BCUT2D_LOGPLOW>  (189) 
-2.506297

>  <BCUT2D_MRHI>  (189) 
5.645248

>  <BCUT2D_MRLOW>  (189) 
-0.366086

>  <AvgIpc>  (189) 
2.663082

>  <BalabanJ>  (189) 
2.276268

>  <BertzCT>  (189) 
428.382811

>  <Chi0>  (189) 
10.673362

>  <Chi0n>  (189) 
8.955285

>  <Chi0v>  (189) 
8.955285

>  <Chi1>  (189) 
7.308862

>  <Chi1n>  (189) 
5.195401

>  <Chi1v>  (189) 
5.195401

>  <Chi2n>  (189) 
3.709154

>  <Chi2v>  (189) 
3.709154

>  <Chi3n>  (189) 
2.560302

>  <Chi3v>  (189) 
2.560302

>  <Chi4n>  (189) 
1.696836

>  <Chi4v>  (189) 
1.696836

>  <HallKierAlpha>  (189) 
-1.61

>  <Ipc>  (189) 
4324.845391

>  <Kappa1>  (189) 
9.926625

>  <Kappa2>  (189) 
4.275266

>  <Kappa3>  (189) 
2.074804

>  <LabuteASA>  (189) 
89.320476

>  <PEOE_VSA1>  (189) 
5.733667

>  <PEOE_VSA10>  (189) 
0.0

>  <PEOE_VSA11>  (189) 
0.0

>  <PEOE_VSA12>  (189) 
0.0

>  <PEOE_VSA13>  (189) 
0.0

>  <PEOE_VSA14>  (189) 
0.0

>  <PEOE_VSA2>  (189) 
5.098682

>  <PEOE_VSA3>  (189) 
0.0

>  <PEOE_VSA4>  (189) 
5.098682

>  <PEOE_VSA5>  (189) 
0.0

>  <PEOE_VSA6>  (189) 
24.265468

>  <PEOE_VSA7>  (189) 
18.05064

>  <PEOE_VSA8>  (189) 
17.678201

>  <PEOE_VSA9>  (189) 
12.7416

>  <SMR_VSA1>  (189) 
5.733667

>  <SMR_VSA10>  (189) 
0.0

>  <SMR_VSA2>  (189) 
0.0

>  <SMR_VSA3>  (189) 
10.197364

>  <SMR_VSA4>  (189) 
0.0

>  <SMR_VSA5>  (189) 
13.344559

>  <SMR_VSA6>  (189) 
6.544756

>  <SMR_VSA7>  (189) 
41.719691

>  <SMR_VSA8>  (189) 
0.0

>  <SMR_VSA9>  (189) 
11.126903

>  <SlogP_VSA1>  (189) 
5.733667

>  <SlogP_VSA10>  (189) 
0.0

>  <SlogP_VSA11>  (189) 
0.0

>  <SlogP_VSA12>  (189) 
0.0

>  <SlogP_VSA2>  (189) 
16.74212

>  <SlogP_VSA3>  (189) 
6.420822

>  <SlogP_VSA4>  (189) 
6.923737

>  <SlogP_VSA5>  (189) 
11.257379

>  <SlogP_VSA6>  (189) 
30.462312

>  <SlogP_VSA7>  (189) 
0.0

>  <SlogP_VSA8>  (189) 
11.126903

>  <SlogP_VSA9>  (189) 
0.0

>  <EState_VSA1>  (189) 
0.0

>  <EState_VSA10>  (189) 
0.0

>  <EState_VSA11>  (189) 
0.0

>  <EState_VSA2>  (189) 
0.0

>  <EState_VSA3>  (189) 
0.0

>  <EState_VSA4>  (189) 
18.659506

>  <EState_VSA5>  (189) 
16.690354

>  <EState_VSA6>  (189) 
0.0

>  <EState_VSA7>  (189) 
13.120581

>  <EState_VSA8>  (189) 
40.196499

>  <EState_VSA9>  (189) 
0.0

>  <VSA_EState1>  (189) 
0.0

>  <VSA_EState10>  (189) 
0.0

>  <VSA_EState2>  (189) 
0.0

>  <VSA_EState3>  (189) 
6.968728

>  <VSA_EState4>  (189) 
8.699667

>  <VSA_EState5>  (189) 
0.0

>  <VSA_EState6>  (189) 
8.602778

>  <VSA_EState7>  (189) 
2.913061

>  <VSA_EState8>  (189) 
2.982433

>  <VSA_EState9>  (189) 
0.0

>  <FractionCSP3>  (189) 
0.25

>  <HeavyAtomCount>  (189) 
15

>  <NHOHCount>  (189) 
4

>  <NOCount>  (189) 
3

>  <NumAliphaticCarbocycles>  (189) 
0

>  <NumAliphaticHeterocycles>  (189) 
0

>  <NumAliphaticRings>  (189) 
0

>  <NumAromaticCarbocycles>  (189) 
1

>  <NumAromaticHeterocycles>  (189) 
1

>  <NumAromaticRings>  (189) 
2

>  <NumHAcceptors>  (189) 
1

>  <NumHDonors>  (189) 
2

>  <NumHeteroatoms>  (189) 
3

>  <NumRotatableBonds>  (189) 
3

>  <NumSaturatedCarbocycles>  (189) 
0

>  <NumSaturatedHeterocycles>  (189) 
0

>  <NumSaturatedRings>  (189) 
0

>  <RingCount>  (189) 
2

>  <MolLogP>  (189) 
1.16952

>  <MolMR>  (189) 
60.2198

>  <fr_Al_COO>  (189) 
0

>  <fr_Al_OH>  (189) 
0

>  <fr_Al_OH_noTert>  (189) 
0

>  <fr_ArN>  (189) 
0

>  <fr_Ar_COO>  (189) 
0

>  <fr_Ar_N>  (189) 
2

>  <fr_Ar_NH>  (189) 
1

>  <fr_Ar_OH>  (189) 
0

>  <fr_COO>  (189) 
0

>  <fr_COO2>  (189) 
0

>  <fr_C_O>  (189) 
0

>  <fr_C_O_noCOO>  (189) 
0

>  <fr_C_S>  (189) 
0

>  <fr_HOCCN>  (189) 
0

>  <fr_Imine>  (189) 
0

>  <fr_NH0>  (189) 
1

>  <fr_NH1>  (189) 
1

>  <fr_NH2>  (189) 
0

>  <fr_N_O>  (189) 
0

>  <fr_Ndealkylation1>  (189) 
0

>  <fr_Ndealkylation2>  (189) 
0

>  <fr_Nhpyrrole>  (189) 
1

>  <fr_SH>  (189) 
0

>  <fr_aldehyde>  (189) 
0

>  <fr_alkyl_carbamate>  (189) 
0

>  <fr_alkyl_halide>  (189) 
0

>  <fr_allylic_oxid>  (189) 
0

>  <fr_amide>  (189) 
0

>  <fr_amidine>  (189) 
0

>  <fr_aniline>  (189) 
0

>  <fr_aryl_methyl>  (189) 
1

>  <fr_azide>  (189) 
0

>  <fr_azo>  (189) 
0

>  <fr_barbitur>  (189) 
0

>  <fr_benzene>  (189) 
1

>  <fr_benzodiazepine>  (189) 
0

>  <fr_bicyclic>  (189) 
0

>  <fr_diazo>  (189) 
0

>  <fr_dihydropyridine>  (189) 
0

>  <fr_epoxide>  (189) 
0

>  <fr_ester>  (189) 
0

>  <fr_ether>  (189) 
0

>  <fr_furan>  (189) 
0

>  <fr_guanido>  (189) 
0

>  <fr_halogen>  (189) 
0

>  <fr_hdrzine>  (189) 
0

>  <fr_hdrzone>  (189) 
0

>  <fr_imidazole>  (189) 
0

>  <fr_imide>  (189) 
0

>  <fr_isocyan>  (189) 
0

>  <fr_isothiocyan>  (189) 
0

>  <fr_ketone>  (189) 
0

>  <fr_ketone_Topliss>  (189) 
0

>  <fr_lactam>  (189) 
0

>  <fr_lactone>  (189) 
0

>  <fr_methoxy>  (189) 
0

>  <fr_morpholine>  (189) 
0

>  <fr_nitrile>  (189) 
0

>  <fr_nitro>  (189) 
0

>  <fr_nitro_arom>  (189) 
0

>  <fr_nitro_arom_nonortho>  (189) 
0

>  <fr_nitroso>  (189) 
0

>  <fr_oxazole>  (189) 
0

>  <fr_oxime>  (189) 
0

>  <fr_para_hydroxylation>  (189) 
0

>  <fr_phenol>  (189) 
0

>  <fr_phenol_noOrthoHbond>  (189) 
0

>  <fr_phos_acid>  (189) 
0

>  <fr_phos_ester>  (189) 
0

>  <fr_piperdine>  (189) 
0

>  <fr_piperzine>  (189) 
0

>  <fr_priamide>  (189) 
0

>  <fr_prisulfonamd>  (189) 
0

>  <fr_pyridine>  (189) 
0

>  <fr_quatN>  (189) 
1

>  <fr_sulfide>  (189) 
0

>  <fr_sulfonamd>  (189) 
0

>  <fr_sulfone>  (189) 
0

>  <fr_term_acetylene>  (189) 
0

>  <fr_tetrazole>  (189) 
0

>  <fr_thiazole>  (189) 
0

>  <fr_thiocyan>  (189) 
0

>  <fr_thiophene>  (189) 
0

>  <fr_unbrch_alkane>  (189) 
0

>  <fr_urea>  (189) 
0

>  <NP_Likeness>  (189) 
-1.000882

$$$$
L20
     RDKit          3D

  0  0  0  0  0  0  0  0  0  0999 V3000
M  V30 BEGIN CTAB
M  V30 COUNTS 54 58 0 0 0
M  V30 BEGIN ATOM
M  V30 1 O 11.846000 9.122000 1.432000 0
M  V30 2 N 13.678000 6.953000 1.009000 0 CHG=1
M  V30 3 N 3.291000 10.213000 3.952000 0
M  V30 4 N 3.047000 10.055000 2.633000 0
M  V30 5 N 9.794000 10.490000 -1.224000 0
M  V30 6 N 15.287000 10.640000 -0.680000 0
M  V30 7 C 5.266000 10.440000 5.525000 0
M  V30 8 C 11.978000 8.124000 2.435000 0
M  V30 9 C 10.820000 10.054000 -0.489000 0
M  V30 10 C 8.593000 10.450000 -0.635000 0
M  V30 11 C 15.369000 9.575000 0.216000 0
M  V30 12 C 13.260000 13.716000 0.123000 0
M  V30 13 C 12.840000 13.279000 1.407000 0
M  V30 14 C 14.080000 12.900000 -0.661000 0
M  V30 15 C 13.222000 12.046000 1.929000 0
M  V30 16 C 4.559000 9.868000 0.562000 0
M  V30 17 C 5.881000 9.878000 0.184000 0
M  V30 18 C 9.423000 9.497000 1.434000 0
M  V30 19 C 14.485000 8.909000 2.536000 0
M  V30 20 C 6.650000 10.137000 2.505000 0
M  V30 21 C 10.684000 9.548000 0.802000 0
M  V30 22 C 13.477000 7.706000 2.325000 0 CFG=2
M  V30 23 C 4.621000 10.265000 4.186000 0
M  V30 24 C 4.251000 10.017000 1.921000 0
M  V30 25 C 14.479000 11.651000 -0.126000 0
M  V30 26 C 8.330000 9.981000 0.668000 0
M  V30 27 C 14.642000 9.841000 1.387000 0
M  V30 28 C 6.939000 9.997000 1.145000 0
M  V30 29 C 5.313000 10.162000 2.907000 0
M  V30 30 C 14.059000 11.189000 1.186000 0
M  V30 31 H 14.635900 6.678500 0.925000 0
M  V30 32 H 13.096100 6.139800 0.998000 0
M  V30 33 H 2.137600 9.976500 2.224400 0
M  V30 34 H 15.731800 10.679500 -1.574800 0
M  V30 35 H 6.260300 10.444400 5.418000 0
M  V30 36 H 4.970100 11.306600 5.926800 0
M  V30 37 H 4.998600 9.685900 6.124900 0
M  V30 38 H 11.374700 7.348100 2.250700 0
M  V30 39 H 11.774900 8.496400 3.340600 0
M  V30 40 H 11.736500 10.092800 -0.887100 0
M  V30 41 H 7.813500 10.782100 -1.166100 0
M  V30 42 H 15.879100 8.731700 0.046600 0
M  V30 43 H 12.968700 14.608700 -0.220700 0
M  V30 44 H 12.251700 13.875200 1.953300 0
M  V30 45 H 14.375800 13.189100 -1.571500 0
M  V30 46 H 12.901400 11.767400 2.834300 0
M  V30 47 H 3.833700 9.756900 -0.117500 0
M  V30 48 H 6.110700 9.800300 -0.786100 0
M  V30 49 H 9.306900 9.142700 2.361900 0
M  V30 50 H 15.384100 8.521900 2.740400 0
M  V30 51 H 14.165300 9.441500 3.319800 0
M  V30 52 H 7.386100 10.217700 3.177000 0
M  V30 53 H 13.649400 7.051900 3.061500 0
M  V30 54 H 13.433400 7.548300 0.243600 0
M  V30 END ATOM
M  V30 BEGIN BOND
M  V30 1 1 1 8
M  V30 2 1 1 21
M  V30 3 1 2 22
M  V30 4 1 3 4
M  V30 5 2 3 23
M  V30 6 1 4 24
M  V30 7 2 5 9
M  V30 8 1 5 10
M  V30 9 1 6 11
M  V30 10 1 6 25
M  V30 11 1 7 23
M  V30 12 1 8 22
M  V30 13 1 9 21
M  V30 14 2 10 26
M  V30 15 2 11 27
M  V30 16 2 12 13
M  V30 17 1 12 14
M  V30 18 1 13 15
M  V30 19 2 14 25
M  V30 20 2 15 30
M  V30 21 1 16 17
M  V30 22 2 16 24
M  V30 23 2 17 28
M  V30 24 2 18 21
M  V30 25 1 18 26
M  V30 26 1 19 22
M  V30 27 1 19 27
M  V30 28 1 20 28
M  V30 29 2 20 29
M  V30 30 1 23 29
M  V30 31 1 24 29
M  V30 32 1 25 30
M  V30 33 1 26 28
M  V30 34 1 27 30
M  V30 35 1 2 31
M  V30 36 1 2 32
M  V30 37 1 4 33
M  V30 38 1 6 34
M  V30 39 1 7 35
M  V30 40 1 7 36
M  V30 41 1 7 37
M  V30 42 1 8 38
M  V30 43 1 8 39
M  V30 44 1 9 40
M  V30 45 1 10 41
M  V30 46 1 11 42
M  V30 47 1 12 43
M  V30 48 1 13 44
M  V30 49 1 14 45
M  V30 50 1 15 46
M  V30 51 1 16 47
M  V30 52 1 17 48
M  V30 53 1 18 49
M  V30 54 1 19 50
M  V30 55 1 19 51
M  V30 56 1 20 52
M  V30 57 1 22 53 CFG=1
M  V30 58 1 2 54
M  V30 END BOND
M  V30 END CTAB
M  END
>  <Ligand_Instance>  (190) 
2JDS_L20_A_1351

>  <Dataset>  (190) 
PDB

>  <PDB_ID>  (190) 
2JDS

>  <Chain>  (190) 
A

>  <Resi>  (190) 
1351

>  <Num_Resolved_Atoms>  (190) 
30

>  <Num_H_Atoms_ProtBoundConf>  (190) 
24

>  <Pocket>  (190) 
A

>  <Name>  (190) 
(2S)-1-(1H-INDOL-3-YL)-3-{[5-(3-METHYL-1H-INDAZOL-5-YL)PYRIDIN-3-YL]OXY}PROPAN-2-AMINE

>  <Num_Not_Resolved_Atoms>  (190) 
0

>  <ATP_Site>  (190) 
True

>  <Peripheral>  (190) 
False

>  <Standardized_SMILES>  (190) 
[H]C1=NC([H])=C(C2=C([H])C([H])=C3C(=C2[H])C(C([H])([H])[H])=NN3[H])C([H])=C1OC([H])([H])[C@]([H])(C([H])([H])C1=C([H])N([H])C2=C([H])C([H])=C([H])C([H])=C21)[N+]([H])([H])[H]

>  <2D_Mol_H>  (190) 
<rdkit.Chem.rdchem.Mol object at 0x77059d81c820>

>  <MW>  (190) 
398.49

>  <HBA>  (190) 
3

>  <HBD>  (190) 
3

>  <LogP>  (190) 
3.64662

>  <NRB>  (190) 
8

>  <TPSA>  (190) 
94.23

>  <Num_Heavy_Atoms>  (190) 
30

>  <Ro5>  (190) 
[True, True, True, True, True, True]

>  <Ro5_Fulfilled>  (190) 
True

>  <Ro3>  (190) 
[False, True, True, False]

>  <Ro3_Fulfilled>  (190) 
False

>  <Fsp3>  (190) 
0.166667

>  <Fsp3_0.42>  (190) 
False

>  <Fsp3_0.45>  (190) 
False

>  <Stereogenic_Carbons>  (190) 
1

>  <C_Atoms>  (190) 
24

>  <FCStereo>  (190) 
0.041667

>  <SPS>  (190) 
374

>  <nSPS>  (190) 
12.466667

>  <PBF>  (190) 
1.302133

>  <PBF_0.6>  (190) 
True

>  <nPBF>  (190) 
0.043404

>  <nPBF_0.016>  (190) 
True

>  <PMI1>  (190) 
1647.09375

>  <PMI2>  (190) 
7448.069038

>  <PMI3>  (190) 
7799.221431

>  <NPR1>  (190) 
0.211187

>  <NPR2>  (190) 
0.954976

>  <Sum_NPR>  (190) 
1.166163

>  <Sum_NPR_1.07>  (190) 
True

>  <Sum_NPR_1.2>  (190) 
False

>  <MaxAbsEStateIndex>  (190) 
6.033268

>  <MaxEStateIndex>  (190) 
6.033268

>  <MinAbsEStateIndex>  (190) 
0.136845

>  <MinEStateIndex>  (190) 
0.136845

>  <qed>  (190) 
0.407468

>  <MolWt>  (190) 
398.49

>  <HeavyAtomMolWt>  (190) 
374.298

>  <ExactMolWt>  (190) 
398.197537

>  <NumValenceElectrons>  (190) 
150

>  <NumRadicalElectrons>  (190) 
0

>  <MaxPartialCharge>  (190) 
0.140113

>  <MinPartialCharge>  (190) 
-0.485747

>  <MaxAbsPartialCharge>  (190) 
0.485747

>  <MinAbsPartialCharge>  (190) 
0.140113

>  <FpDensityMorgan1>  (190) 
1.0

>  <FpDensityMorgan2>  (190) 
1.9

>  <FpDensityMorgan3>  (190) 
2.833333

>  <BCUT2D_MWHI>  (190) 
16.478404

>  <BCUT2D_MWLOW>  (190) 
10.046878

>  <BCUT2D_CHGHI>  (190) 
2.128654

>  <BCUT2D_CHGLO>  (190) 
-2.111929

>  <BCUT2D_LOGPHI>  (190) 
2.267912

>  <BCUT2D_LOGPLOW>  (190) 
-2.641605

>  <BCUT2D_MRHI>  (190) 
5.861615

>  <BCUT2D_MRLOW>  (190) 
-0.422665

>  <AvgIpc>  (190) 
3.358389

>  <BalabanJ>  (190) 
1.286165

>  <BertzCT>  (190) 
1319.700942

>  <Chi0>  (190) 
20.501425

>  <Chi0n>  (190) 
16.852199

>  <Chi0v>  (190) 
16.852199

>  <Chi1>  (190) 
14.669836

>  <Chi1n>  (190) 
10.082144

>  <Chi1v>  (190) 
10.082144

>  <Chi2n>  (190) 
7.719349

>  <Chi2v>  (190) 
7.719349

>  <Chi3n>  (190) 
5.469118

>  <Chi3v>  (190) 
5.469118

>  <Chi4n>  (190) 
3.865087

>  <Chi4v>  (190) 
3.865087

>  <HallKierAlpha>  (190) 
-3.64

>  <Ipc>  (190) 
14933853.825053

>  <Kappa1>  (190) 
18.392483

>  <Kappa2>  (190) 
7.647522

>  <Kappa3>  (190) 
3.53063

>  <LabuteASA>  (190) 
173.648195

>  <PEOE_VSA1>  (190) 
15.454509

>  <PEOE_VSA10>  (190) 
18.398235

>  <PEOE_VSA11>  (190) 
0.0

>  <PEOE_VSA12>  (190) 
0.0

>  <PEOE_VSA13>  (190) 
0.0

>  <PEOE_VSA14>  (190) 
0.0

>  <PEOE_VSA2>  (190) 
10.08266

>  <PEOE_VSA3>  (190) 
0.0

>  <PEOE_VSA4>  (190) 
5.098682

>  <PEOE_VSA5>  (190) 
0.0

>  <PEOE_VSA6>  (190) 
24.265468

>  <PEOE_VSA7>  (190) 
42.316108

>  <PEOE_VSA8>  (190) 
40.667109

>  <PEOE_VSA9>  (190) 
17.407472

>  <SMR_VSA1>  (190) 
10.47053

>  <SMR_VSA10>  (190) 
21.80585

>  <SMR_VSA2>  (190) 
0.0

>  <SMR_VSA3>  (190) 
20.165321

>  <SMR_VSA4>  (190) 
0.0

>  <SMR_VSA5>  (190) 
19.3864

>  <SMR_VSA6>  (190) 
6.606882

>  <SMR_VSA7>  (190) 
78.378847

>  <SMR_VSA8>  (190) 
0.0

>  <SMR_VSA9>  (190) 
16.876415

>  <SlogP_VSA1>  (190) 
10.47053

>  <SlogP_VSA10>  (190) 
0.0

>  <SlogP_VSA11>  (190) 
5.749512

>  <SlogP_VSA12>  (190) 
0.0

>  <SlogP_VSA2>  (190) 
32.814043

>  <SlogP_VSA3>  (190) 
6.420822

>  <SlogP_VSA4>  (190) 
6.923737

>  <SlogP_VSA5>  (190) 
11.257379

>  <SlogP_VSA6>  (190) 
67.121467

>  <SlogP_VSA7>  (190) 
0.0

>  <SlogP_VSA8>  (190) 
32.932753

>  <SlogP_VSA9>  (190) 
0.0

>  <EState_VSA1>  (190) 
0.0

>  <EState_VSA10>  (190) 
0.0

>  <EState_VSA11>  (190) 
0.0

>  <EState_VSA2>  (190) 
6.041841

>  <EState_VSA3>  (190) 
6.606882

>  <EState_VSA4>  (190) 
45.41079

>  <EState_VSA5>  (190) 
10.949676

>  <EState_VSA6>  (190) 
6.196844

>  <EState_VSA7>  (190) 
31.319682

>  <EState_VSA8>  (190) 
62.427667

>  <EState_VSA9>  (190) 
4.736863

>  <VSA_EState1>  (190) 
6.033268

>  <VSA_EState10>  (190) 
0.0

>  <VSA_EState2>  (190) 
7.694187

>  <VSA_EState3>  (190) 
9.682424

>  <VSA_EState4>  (190) 
10.846148

>  <VSA_EState5>  (190) 
0.753786

>  <VSA_EState6>  (190) 
16.753879

>  <VSA_EState7>  (190) 
6.534915

>  <VSA_EState8>  (190) 
2.534726

>  <VSA_EState9>  (190) 
0.0

>  <FractionCSP3>  (190) 
0.166667

>  <HeavyAtomCount>  (190) 
30

>  <NHOHCount>  (190) 
5

>  <NOCount>  (190) 
6

>  <NumAliphaticCarbocycles>  (190) 
0

>  <NumAliphaticHeterocycles>  (190) 
0

>  <NumAliphaticRings>  (190) 
0

>  <NumAromaticCarbocycles>  (190) 
2

>  <NumAromaticHeterocycles>  (190) 
3

>  <NumAromaticRings>  (190) 
5

>  <NumHAcceptors>  (190) 
3

>  <NumHDonors>  (190) 
3

>  <NumHeteroatoms>  (190) 
6

>  <NumRotatableBonds>  (190) 
6

>  <NumSaturatedCarbocycles>  (190) 
0

>  <NumSaturatedHeterocycles>  (190) 
0

>  <NumSaturatedRings>  (190) 
0

>  <RingCount>  (190) 
5

>  <MolLogP>  (190) 
3.64662

>  <MolMR>  (190) 
118.2355

>  <fr_Al_COO>  (190) 
0

>  <fr_Al_OH>  (190) 
0

>  <fr_Al_OH_noTert>  (190) 
0

>  <fr_ArN>  (190) 
0

>  <fr_Ar_COO>  (190) 
0

>  <fr_Ar_N>  (190) 
4

>  <fr_Ar_NH>  (190) 
2

>  <fr_Ar_OH>  (190) 
0

>  <fr_COO>  (190) 
0

>  <fr_COO2>  (190) 
0

>  <fr_C_O>  (190) 
0

>  <fr_C_O_noCOO>  (190) 
0

>  <fr_C_S>  (190) 
0

>  <fr_HOCCN>  (190) 
0

>  <fr_Imine>  (190) 
0

>  <fr_NH0>  (190) 
2

>  <fr_NH1>  (190) 
2

>  <fr_NH2>  (190) 
0

>  <fr_N_O>  (190) 
0

>  <fr_Ndealkylation1>  (190) 
0

>  <fr_Ndealkylation2>  (190) 
0

>  <fr_Nhpyrrole>  (190) 
2

>  <fr_SH>  (190) 
0

>  <fr_aldehyde>  (190) 
0

>  <fr_alkyl_carbamate>  (190) 
0

>  <fr_alkyl_halide>  (190) 
0

>  <fr_allylic_oxid>  (190) 
0

>  <fr_amide>  (190) 
0

>  <fr_amidine>  (190) 
0

>  <fr_aniline>  (190) 
0

>  <fr_aryl_methyl>  (190) 
1

>  <fr_azide>  (190) 
0

>  <fr_azo>  (190) 
0

>  <fr_barbitur>  (190) 
0

>  <fr_benzene>  (190) 
2

>  <fr_benzodiazepine>  (190) 
0

>  <fr_bicyclic>  (190) 
2

>  <fr_diazo>  (190) 
0

>  <fr_dihydropyridine>  (190) 
0

>  <fr_epoxide>  (190) 
0

>  <fr_ester>  (190) 
0

>  <fr_ether>  (190) 
1

>  <fr_furan>  (190) 
0

>  <fr_guanido>  (190) 
0

>  <fr_halogen>  (190) 
0

>  <fr_hdrzine>  (190) 
0

>  <fr_hdrzone>  (190) 
0

>  <fr_imidazole>  (190) 
0

>  <fr_imide>  (190) 
0

>  <fr_isocyan>  (190) 
0

>  <fr_isothiocyan>  (190) 
0

>  <fr_ketone>  (190) 
0

>  <fr_ketone_Topliss>  (190) 
0

>  <fr_lactam>  (190) 
0

>  <fr_lactone>  (190) 
0

>  <fr_methoxy>  (190) 
0

>  <fr_morpholine>  (190) 
0

>  <fr_nitrile>  (190) 
0

>  <fr_nitro>  (190) 
0

>  <fr_nitro_arom>  (190) 
0

>  <fr_nitro_arom_nonortho>  (190) 
0

>  <fr_nitroso>  (190) 
0

>  <fr_oxazole>  (190) 
0

>  <fr_oxime>  (190) 
0

>  <fr_para_hydroxylation>  (190) 
1

>  <fr_phenol>  (190) 
0

>  <fr_phenol_noOrthoHbond>  (190) 
0

>  <fr_phos_acid>  (190) 
0

>  <fr_phos_ester>  (190) 
0

>  <fr_piperdine>  (190) 
0

>  <fr_piperzine>  (190) 
0

>  <fr_priamide>  (190) 
0

>  <fr_prisulfonamd>  (190) 
0

>  <fr_pyridine>  (190) 
1

>  <fr_quatN>  (190) 
1

>  <fr_sulfide>  (190) 
0

>  <fr_sulfonamd>  (190) 
0

>  <fr_sulfone>  (190) 
0

>  <fr_term_acetylene>  (190) 
0

>  <fr_tetrazole>  (190) 
0

>  <fr_thiazole>  (190) 
0

>  <fr_thiocyan>  (190) 
0

>  <fr_thiophene>  (190) 
0

>  <fr_unbrch_alkane>  (190) 
0

>  <fr_urea>  (190) 
0

>  <NP_Likeness>  (190) 
-0.851945

$$$$
L20
     RDKit          3D

  0  0  0  0  0  0  0  0  0  0999 V3000
M  V30 BEGIN CTAB
M  V30 COUNTS 54 58 0 0 0
M  V30 BEGIN ATOM
M  V30 1 O 11.158000 8.846000 1.687000 0
M  V30 2 N 13.366000 7.254000 1.753000 0 CHG=1
M  V30 3 N 2.660000 9.543000 3.927000 0
M  V30 4 N 2.494000 9.532000 2.590000 0
M  V30 5 N 9.389000 10.754000 -0.851000 0
M  V30 6 N 11.412000 8.247000 7.186000 0
M  V30 7 C 4.630000 9.646000 5.483000 0
M  V30 8 C 11.035000 7.598000 2.361000 0
M  V30 9 C 10.362000 10.175000 -0.168000 0
M  V30 10 C 8.118000 10.609000 -0.438000 0
M  V30 11 C 12.413000 7.987000 6.265000 0
M  V30 12 C 8.545000 10.453000 6.338000 0
M  V30 13 C 8.944000 10.710000 5.006000 0
M  V30 14 C 9.297000 9.628000 7.146000 0
M  V30 15 C 10.113000 10.206000 4.459000 0
M  V30 16 C 3.982000 9.639000 0.515000 0
M  V30 17 C 5.330000 9.718000 0.200000 0
M  V30 18 C 8.798000 9.287000 1.452000 0
M  V30 19 C 12.971000 8.560000 3.847000 0
M  V30 20 C 6.038000 9.761000 2.541000 0
M  V30 21 C 10.112000 9.419000 0.986000 0
M  V30 22 C 12.458000 7.399000 2.927000 0 CFG=2
M  V30 23 C 3.982000 9.617000 4.162000 0
M  V30 24 C 3.674000 9.610000 1.901000 0
M  V30 25 C 10.470000 9.092000 6.609000 0
M  V30 26 C 7.761000 9.890000 0.736000 0
M  V30 27 C 12.155000 8.655000 5.068000 0
M  V30 28 C 6.362000 9.783000 1.168000 0
M  V30 29 C 4.693000 9.682000 2.908000 0
M  V30 30 C 10.914000 9.383000 5.254000 0
M  V30 31 H 14.273500 7.602000 1.988500 0
M  V30 32 H 13.434100 6.288500 1.501500 0
M  V30 33 H 1.599800 9.472900 2.146300 0
M  V30 34 H 11.372800 7.884900 8.117300 0
M  V30 35 H 5.621600 9.703300 5.366700 0
M  V30 36 H 4.307900 10.442400 5.994900 0
M  V30 37 H 4.400900 8.812100 5.985000 0
M  V30 38 H 10.790200 6.864800 1.726600 0
M  V30 39 H 10.355800 7.645700 3.093400 0
M  V30 40 H 11.304900 10.279500 -0.484200 0
M  V30 41 H 7.389600 11.026100 -0.981600 0
M  V30 42 H 13.207400 7.403600 6.434000 0
M  V30 43 H 7.711100 10.872900 6.696200 0
M  V30 44 H 8.356100 11.281100 4.433100 0
M  V30 45 H 9.013500 9.420600 8.082300 0
M  V30 46 H 10.376300 10.425700 3.519600 0
M  V30 47 H 3.272300 9.604700 -0.188600 0
M  V30 48 H 5.588400 9.729800 -0.766000 0
M  V30 49 H 8.604800 8.768700 2.285100 0
M  V30 50 H 12.915400 9.424200 3.346900 0
M  V30 51 H 13.921800 8.382200 4.100600 0
M  V30 52 H 6.755800 9.801100 3.236100 0
M  V30 53 H 12.476000 6.547000 3.450200 0
M  V30 54 H 12.999300 7.774300 0.981700 0
M  V30 END ATOM
M  V30 BEGIN BOND
M  V30 1 1 1 8
M  V30 2 1 1 21
M  V30 3 1 2 22
M  V30 4 1 3 4
M  V30 5 2 3 23
M  V30 6 1 4 24
M  V30 7 2 5 9
M  V30 8 1 5 10
M  V30 9 1 6 11
M  V30 10 1 6 25
M  V30 11 1 7 23
M  V30 12 1 8 22
M  V30 13 1 9 21
M  V30 14 2 10 26
M  V30 15 2 11 27
M  V30 16 2 12 13
M  V30 17 1 12 14
M  V30 18 1 13 15
M  V30 19 2 14 25
M  V30 20 2 15 30
M  V30 21 1 16 17
M  V30 22 2 16 24
M  V30 23 2 17 28
M  V30 24 2 18 21
M  V30 25 1 18 26
M  V30 26 1 19 22
M  V30 27 1 19 27
M  V30 28 1 20 28
M  V30 29 2 20 29
M  V30 30 1 23 29
M  V30 31 1 24 29
M  V30 32 1 25 30
M  V30 33 1 26 28
M  V30 34 1 27 30
M  V30 35 1 2 31
M  V30 36 1 2 32
M  V30 37 1 4 33
M  V30 38 1 6 34
M  V30 39 1 7 35
M  V30 40 1 7 36
M  V30 41 1 7 37
M  V30 42 1 8 38
M  V30 43 1 8 39
M  V30 44 1 9 40
M  V30 45 1 10 41
M  V30 46 1 11 42
M  V30 47 1 12 43
M  V30 48 1 13 44
M  V30 49 1 14 45
M  V30 50 1 15 46
M  V30 51 1 16 47
M  V30 52 1 17 48
M  V30 53 1 18 49
M  V30 54 1 19 50
M  V30 55 1 19 51
M  V30 56 1 20 52
M  V30 57 1 22 53 CFG=1
M  V30 58 1 2 54
M  V30 END BOND
M  V30 END CTAB
M  END
>  <Ligand_Instance>  (191) 
2JDV_L20_A_1351

>  <Dataset>  (191) 
PDB

>  <PDB_ID>  (191) 
2JDV

>  <Chain>  (191) 
A

>  <Resi>  (191) 
1351

>  <Num_Resolved_Atoms>  (191) 
30

>  <Num_H_Atoms_ProtBoundConf>  (191) 
24

>  <Pocket>  (191) 
A

>  <Name>  (191) 
(2S)-1-(1H-INDOL-3-YL)-3-{[5-(3-METHYL-1H-INDAZOL-5-YL)PYRIDIN-3-YL]OXY}PROPAN-2-AMINE

>  <Num_Not_Resolved_Atoms>  (191) 
0

>  <ATP_Site>  (191) 
True

>  <Peripheral>  (191) 
False

>  <Standardized_SMILES>  (191) 
[H]C1=NC([H])=C(C2=C([H])C([H])=C3C(=C2[H])C(C([H])([H])[H])=NN3[H])C([H])=C1OC([H])([H])[C@]([H])(C([H])([H])C1=C([H])N([H])C2=C([H])C([H])=C([H])C([H])=C21)[N+]([H])([H])[H]

>  <2D_Mol_H>  (191) 
<rdkit.Chem.rdchem.Mol object at 0x77059d81c900>

>  <MW>  (191) 
398.49

>  <HBA>  (191) 
3

>  <HBD>  (191) 
3

>  <LogP>  (191) 
3.64662

>  <NRB>  (191) 
8

>  <TPSA>  (191) 
94.23

>  <Num_Heavy_Atoms>  (191) 
30

>  <Ro5>  (191) 
[True, True, True, True, True, True]

>  <Ro5_Fulfilled>  (191) 
True

>  <Ro3>  (191) 
[False, True, True, False]

>  <Ro3_Fulfilled>  (191) 
False

>  <Fsp3>  (191) 
0.166667

>  <Fsp3_0.42>  (191) 
False

>  <Fsp3_0.45>  (191) 
False

>  <Stereogenic_Carbons>  (191) 
1

>  <C_Atoms>  (191) 
24

>  <FCStereo>  (191) 
0.041667

>  <SPS>  (191) 
374

>  <nSPS>  (191) 
12.466667

>  <PBF>  (191) 
0.796388

>  <PBF_0.6>  (191) 
True

>  <nPBF>  (191) 
0.026546

>  <nPBF_0.016>  (191) 
True

>  <PMI1>  (191) 
2343.067375

>  <PMI2>  (191) 
4856.865548

>  <PMI3>  (191) 
6683.533613

>  <NPR1>  (191) 
0.350573

>  <NPR2>  (191) 
0.726691

>  <Sum_NPR>  (191) 
1.077264

>  <Sum_NPR_1.07>  (191) 
True

>  <Sum_NPR_1.2>  (191) 
False

>  <MaxAbsEStateIndex>  (191) 
6.033268

>  <MaxEStateIndex>  (191) 
6.033268

>  <MinAbsEStateIndex>  (191) 
0.136845

>  <MinEStateIndex>  (191) 
0.136845

>  <qed>  (191) 
0.407468

>  <MolWt>  (191) 
398.49

>  <HeavyAtomMolWt>  (191) 
374.298

>  <ExactMolWt>  (191) 
398.197537

>  <NumValenceElectrons>  (191) 
150

>  <NumRadicalElectrons>  (191) 
0

>  <MaxPartialCharge>  (191) 
0.140113

>  <MinPartialCharge>  (191) 
-0.485747

>  <MaxAbsPartialCharge>  (191) 
0.485747

>  <MinAbsPartialCharge>  (191) 
0.140113

>  <FpDensityMorgan1>  (191) 
1.0

>  <FpDensityMorgan2>  (191) 
1.9

>  <FpDensityMorgan3>  (191) 
2.833333

>  <BCUT2D_MWHI>  (191) 
16.478404

>  <BCUT2D_MWLOW>  (191) 
10.046878

>  <BCUT2D_CHGHI>  (191) 
2.128654

>  <BCUT2D_CHGLO>  (191) 
-2.111929

>  <BCUT2D_LOGPHI>  (191) 
2.267912

>  <BCUT2D_LOGPLOW>  (191) 
-2.641605

>  <BCUT2D_MRHI>  (191) 
5.861615

>  <BCUT2D_MRLOW>  (191) 
-0.422665

>  <AvgIpc>  (191) 
3.358389

>  <BalabanJ>  (191) 
1.286165

>  <BertzCT>  (191) 
1319.700942

>  <Chi0>  (191) 
20.501425

>  <Chi0n>  (191) 
16.852199

>  <Chi0v>  (191) 
16.852199

>  <Chi1>  (191) 
14.669836

>  <Chi1n>  (191) 
10.082144

>  <Chi1v>  (191) 
10.082144

>  <Chi2n>  (191) 
7.719349

>  <Chi2v>  (191) 
7.719349

>  <Chi3n>  (191) 
5.469118

>  <Chi3v>  (191) 
5.469118

>  <Chi4n>  (191) 
3.865087

>  <Chi4v>  (191) 
3.865087

>  <HallKierAlpha>  (191) 
-3.64

>  <Ipc>  (191) 
14933853.825053

>  <Kappa1>  (191) 
18.392483

>  <Kappa2>  (191) 
7.647522

>  <Kappa3>  (191) 
3.53063

>  <LabuteASA>  (191) 
173.648195

>  <PEOE_VSA1>  (191) 
15.454509

>  <PEOE_VSA10>  (191) 
18.398235

>  <PEOE_VSA11>  (191) 
0.0

>  <PEOE_VSA12>  (191) 
0.0

>  <PEOE_VSA13>  (191) 
0.0

>  <PEOE_VSA14>  (191) 
0.0

>  <PEOE_VSA2>  (191) 
10.08266

>  <PEOE_VSA3>  (191) 
0.0

>  <PEOE_VSA4>  (191) 
5.098682

>  <PEOE_VSA5>  (191) 
0.0

>  <PEOE_VSA6>  (191) 
24.265468

>  <PEOE_VSA7>  (191) 
42.316108

>  <PEOE_VSA8>  (191) 
40.667109

>  <PEOE_VSA9>  (191) 
17.407472

>  <SMR_VSA1>  (191) 
10.47053

>  <SMR_VSA10>  (191) 
21.80585

>  <SMR_VSA2>  (191) 
0.0

>  <SMR_VSA3>  (191) 
20.165321

>  <SMR_VSA4>  (191) 
0.0

>  <SMR_VSA5>  (191) 
19.3864

>  <SMR_VSA6>  (191) 
6.606882

>  <SMR_VSA7>  (191) 
78.378847

>  <SMR_VSA8>  (191) 
0.0

>  <SMR_VSA9>  (191) 
16.876415

>  <SlogP_VSA1>  (191) 
10.47053

>  <SlogP_VSA10>  (191) 
0.0

>  <SlogP_VSA11>  (191) 
5.749512

>  <SlogP_VSA12>  (191) 
0.0

>  <SlogP_VSA2>  (191) 
32.814043

>  <SlogP_VSA3>  (191) 
6.420822

>  <SlogP_VSA4>  (191) 
6.923737

>  <SlogP_VSA5>  (191) 
11.257379

>  <SlogP_VSA6>  (191) 
67.121467

>  <SlogP_VSA7>  (191) 
0.0

>  <SlogP_VSA8>  (191) 
32.932753

>  <SlogP_VSA9>  (191) 
0.0

>  <EState_VSA1>  (191) 
0.0

>  <EState_VSA10>  (191) 
0.0

>  <EState_VSA11>  (191) 
0.0

>  <EState_VSA2>  (191) 
6.041841

>  <EState_VSA3>  (191) 
6.606882

>  <EState_VSA4>  (191) 
45.41079

>  <EState_VSA5>  (191) 
10.949676

>  <EState_VSA6>  (191) 
6.196844

>  <EState_VSA7>  (191) 
31.319682

>  <EState_VSA8>  (191) 
62.427667

>  <EState_VSA9>  (191) 
4.736863

>  <VSA_EState1>  (191) 
6.033268

>  <VSA_EState10>  (191) 
0.0

>  <VSA_EState2>  (191) 
7.694187

>  <VSA_EState3>  (191) 
9.682424

>  <VSA_EState4>  (191) 
10.846148

>  <VSA_EState5>  (191) 
0.753786

>  <VSA_EState6>  (191) 
16.753879

>  <VSA_EState7>  (191) 
6.534915

>  <VSA_EState8>  (191) 
2.534726

>  <VSA_EState9>  (191) 
0.0

>  <FractionCSP3>  (191) 
0.166667

>  <HeavyAtomCount>  (191) 
30

>  <NHOHCount>  (191) 
5

>  <NOCount>  (191) 
6

>  <NumAliphaticCarbocycles>  (191) 
0

>  <NumAliphaticHeterocycles>  (191) 
0

>  <NumAliphaticRings>  (191) 
0

>  <NumAromaticCarbocycles>  (191) 
2

>  <NumAromaticHeterocycles>  (191) 
3

>  <NumAromaticRings>  (191) 
5

>  <NumHAcceptors>  (191) 
3

>  <NumHDonors>  (191) 
3

>  <NumHeteroatoms>  (191) 
6

>  <NumRotatableBonds>  (191) 
6

>  <NumSaturatedCarbocycles>  (191) 
0

>  <NumSaturatedHeterocycles>  (191) 
0

>  <NumSaturatedRings>  (191) 
0

>  <RingCount>  (191) 
5

>  <MolLogP>  (191) 
3.64662

>  <MolMR>  (191) 
118.2355

>  <fr_Al_COO>  (191) 
0

>  <fr_Al_OH>  (191) 
0

>  <fr_Al_OH_noTert>  (191) 
0

>  <fr_ArN>  (191) 
0

>  <fr_Ar_COO>  (191) 
0

>  <fr_Ar_N>  (191) 
4

>  <fr_Ar_NH>  (191) 
2

>  <fr_Ar_OH>  (191) 
0

>  <fr_COO>  (191) 
0

>  <fr_COO2>  (191) 
0

>  <fr_C_O>  (191) 
0

>  <fr_C_O_noCOO>  (191) 
0

>  <fr_C_S>  (191) 
0

>  <fr_HOCCN>  (191) 
0

>  <fr_Imine>  (191) 
0

>  <fr_NH0>  (191) 
2

>  <fr_NH1>  (191) 
2

>  <fr_NH2>  (191) 
0

>  <fr_N_O>  (191) 
0

>  <fr_Ndealkylation1>  (191) 
0

>  <fr_Ndealkylation2>  (191) 
0

>  <fr_Nhpyrrole>  (191) 
2

>  <fr_SH>  (191) 
0

>  <fr_aldehyde>  (191) 
0

>  <fr_alkyl_carbamate>  (191) 
0

>  <fr_alkyl_halide>  (191) 
0

>  <fr_allylic_oxid>  (191) 
0

>  <fr_amide>  (191) 
0

>  <fr_amidine>  (191) 
0

>  <fr_aniline>  (191) 
0

>  <fr_aryl_methyl>  (191) 
1

>  <fr_azide>  (191) 
0

>  <fr_azo>  (191) 
0

>  <fr_barbitur>  (191) 
0

>  <fr_benzene>  (191) 
2

>  <fr_benzodiazepine>  (191) 
0

>  <fr_bicyclic>  (191) 
2

>  <fr_diazo>  (191) 
0

>  <fr_dihydropyridine>  (191) 
0

>  <fr_epoxide>  (191) 
0

>  <fr_ester>  (191) 
0

>  <fr_ether>  (191) 
1

>  <fr_furan>  (191) 
0

>  <fr_guanido>  (191) 
0

>  <fr_halogen>  (191) 
0

>  <fr_hdrzine>  (191) 
0

>  <fr_hdrzone>  (191) 
0

>  <fr_imidazole>  (191) 
0

>  <fr_imide>  (191) 
0

>  <fr_isocyan>  (191) 
0

>  <fr_isothiocyan>  (191) 
0

>  <fr_ketone>  (191) 
0

>  <fr_ketone_Topliss>  (191) 
0

>  <fr_lactam>  (191) 
0

>  <fr_lactone>  (191) 
0

>  <fr_methoxy>  (191) 
0

>  <fr_morpholine>  (191) 
0

>  <fr_nitrile>  (191) 
0

>  <fr_nitro>  (191) 
0

>  <fr_nitro_arom>  (191) 
0

>  <fr_nitro_arom_nonortho>  (191) 
0

>  <fr_nitroso>  (191) 
0

>  <fr_oxazole>  (191) 
0

>  <fr_oxime>  (191) 
0

>  <fr_para_hydroxylation>  (191) 
1

>  <fr_phenol>  (191) 
0

>  <fr_phenol_noOrthoHbond>  (191) 
0

>  <fr_phos_acid>  (191) 
0

>  <fr_phos_ester>  (191) 
0

>  <fr_piperdine>  (191) 
0

>  <fr_piperzine>  (191) 
0

>  <fr_priamide>  (191) 
0

>  <fr_prisulfonamd>  (191) 
0

>  <fr_pyridine>  (191) 
1

>  <fr_quatN>  (191) 
1

>  <fr_sulfide>  (191) 
0

>  <fr_sulfonamd>  (191) 
0

>  <fr_sulfone>  (191) 
0

>  <fr_term_acetylene>  (191) 
0

>  <fr_tetrazole>  (191) 
0

>  <fr_thiazole>  (191) 
0

>  <fr_thiocyan>  (191) 
0

>  <fr_thiophene>  (191) 
0

>  <fr_unbrch_alkane>  (191) 
0

>  <fr_urea>  (191) 
0

>  <NP_Likeness>  (191) 
-0.851945

$$$$
L20
     RDKit          3D

  0  0  0  0  0  0  0  0  0  0999 V3000
M  V30 BEGIN CTAB
M  V30 COUNTS 54 58 0 0 0
M  V30 BEGIN ATOM
M  V30 1 O 11.900000 9.759000 2.948000 0
M  V30 2 N 15.030000 10.444000 1.171000 0 CHG=1
M  V30 3 N 3.345000 10.007000 4.153000 0
M  V30 4 N 3.140000 9.926000 2.825000 0
M  V30 5 N 10.378000 9.636000 -0.532000 0
M  V30 6 N 13.258000 14.532000 -0.960000 0
M  V30 7 C 5.222000 10.108000 5.813000 0
M  V30 8 C 13.365000 9.706000 2.820000 0
M  V30 9 C 11.325000 9.651000 0.463000 0
M  V30 10 C 9.051000 9.690000 -0.227000 0
M  V30 11 C 13.208000 14.171000 0.342000 0
M  V30 12 C 13.815000 11.997000 -3.746000 0
M  V30 13 C 13.914000 10.867000 -2.917000 0
M  V30 14 C 13.593000 13.281000 -3.147000 0
M  V30 15 C 13.789000 11.021000 -1.491000 0
M  V30 16 C 4.681000 9.799000 0.785000 0
M  V30 17 C 6.070000 9.772000 0.443000 0
M  V30 18 C 9.593000 9.788000 2.113000 0
M  V30 19 C 13.359000 12.204000 1.894000 0
M  V30 20 C 6.666000 9.903000 2.804000 0
M  V30 21 C 10.989000 9.729000 1.826000 0
M  V30 22 C 14.200000 10.952000 2.278000 0 CFG=2
M  V30 23 C 4.639000 10.020000 4.429000 0
M  V30 24 C 4.309000 9.878000 2.120000 0
M  V30 25 C 13.473000 13.422000 -1.756000 0
M  V30 26 C 8.581000 9.768000 1.104000 0
M  V30 27 C 13.390000 12.806000 0.488000 0
M  V30 28 C 7.104000 9.818000 1.445000 0
M  V30 29 C 5.322000 9.935000 3.155000 0
M  V30 30 C 13.569000 12.280000 -0.888000 0
M  V30 31 H 15.182900 11.175200 0.506200 0
M  V30 32 H 15.909200 10.130800 1.530100 0
M  V30 33 H 2.234000 9.903500 2.402300 0
M  V30 34 H 13.154400 15.467200 -1.298600 0
M  V30 35 H 6.220300 10.100400 5.755300 0
M  V30 36 H 4.919800 10.955800 6.248700 0
M  V30 37 H 4.913500 9.326300 6.355000 0
M  V30 38 H 13.567100 8.942700 2.206400 0
M  V30 39 H 13.720700 9.503500 3.732400 0
M  V30 40 H 12.290800 9.604600 0.208000 0
M  V30 41 H 8.384700 9.673900 -0.972500 0
M  V30 42 H 13.059200 14.806200 1.099900 0
M  V30 43 H 13.898100 11.907300 -4.738500 0
M  V30 44 H 14.070100 9.962700 -3.314400 0
M  V30 45 H 13.522500 14.089900 -3.730700 0
M  V30 46 H 13.860100 10.211200 -0.908600 0
M  V30 47 H 3.984300 9.761300 0.068600 0
M  V30 48 H 6.331000 9.719600 -0.520900 0
M  V30 49 H 9.307700 9.846400 3.069600 0
M  V30 50 H 13.643800 12.933200 2.516200 0
M  V30 51 H 12.404800 11.965500 2.074600 0
M  V30 52 H 7.353400 9.940800 3.529300 0
M  V30 53 H 14.823000 11.229200 3.009500 0
M  V30 54 H 14.561100 9.681300 0.725600 0
M  V30 END ATOM
M  V30 BEGIN BOND
M  V30 1 1 1 8
M  V30 2 1 1 21
M  V30 3 1 2 22
M  V30 4 1 3 4
M  V30 5 2 3 23
M  V30 6 1 4 24
M  V30 7 2 5 9
M  V30 8 1 5 10
M  V30 9 1 6 11
M  V30 10 1 6 25
M  V30 11 1 7 23
M  V30 12 1 8 22
M  V30 13 1 9 21
M  V30 14 2 10 26
M  V30 15 2 11 27
M  V30 16 2 12 13
M  V30 17 1 12 14
M  V30 18 1 13 15
M  V30 19 2 14 25
M  V30 20 2 15 30
M  V30 21 1 16 17
M  V30 22 2 16 24
M  V30 23 2 17 28
M  V30 24 2 18 21
M  V30 25 1 18 26
M  V30 26 1 19 22
M  V30 27 1 19 27
M  V30 28 1 20 28
M  V30 29 2 20 29
M  V30 30 1 23 29
M  V30 31 1 24 29
M  V30 32 1 25 30
M  V30 33 1 26 28
M  V30 34 1 27 30
M  V30 35 1 2 31
M  V30 36 1 2 32
M  V30 37 1 4 33
M  V30 38 1 6 34
M  V30 39 1 7 35
M  V30 40 1 7 36
M  V30 41 1 7 37
M  V30 42 1 8 38
M  V30 43 1 8 39
M  V30 44 1 9 40
M  V30 45 1 10 41
M  V30 46 1 11 42
M  V30 47 1 12 43
M  V30 48 1 13 44
M  V30 49 1 14 45
M  V30 50 1 15 46
M  V30 51 1 16 47
M  V30 52 1 17 48
M  V30 53 1 18 49
M  V30 54 1 19 50
M  V30 55 1 19 51
M  V30 56 1 20 52
M  V30 57 1 22 53 CFG=1
M  V30 58 1 2 54
M  V30 END BOND
M  V30 END CTAB
M  END
>  <Ligand_Instance>  (192) 
2UZU_L20_E_1351

>  <Dataset>  (192) 
PDB

>  <PDB_ID>  (192) 
2UZU

>  <Chain>  (192) 
E

>  <Resi>  (192) 
1351

>  <Num_Resolved_Atoms>  (192) 
30

>  <Num_H_Atoms_ProtBoundConf>  (192) 
24

>  <Pocket>  (192) 
A

>  <Name>  (192) 
(2S)-1-(1H-INDOL-3-YL)-3-{[5-(3-METHYL-1H-INDAZOL-5-YL)PYRIDIN-3-YL]OXY}PROPAN-2-AMINE

>  <Num_Not_Resolved_Atoms>  (192) 
0

>  <ATP_Site>  (192) 
True

>  <Peripheral>  (192) 
False

>  <Standardized_SMILES>  (192) 
[H]C1=NC([H])=C(C2=C([H])C([H])=C3C(=C2[H])C(C([H])([H])[H])=NN3[H])C([H])=C1OC([H])([H])[C@]([H])(C([H])([H])C1=C([H])N([H])C2=C([H])C([H])=C([H])C([H])=C21)[N+]([H])([H])[H]

>  <2D_Mol_H>  (192) 
<rdkit.Chem.rdchem.Mol object at 0x77059d81c9e0>

>  <MW>  (192) 
398.49

>  <HBA>  (192) 
3

>  <HBD>  (192) 
3

>  <LogP>  (192) 
3.64662

>  <NRB>  (192) 
8

>  <TPSA>  (192) 
94.23

>  <Num_Heavy_Atoms>  (192) 
30

>  <Ro5>  (192) 
[True, True, True, True, True, True]

>  <Ro5_Fulfilled>  (192) 
True

>  <Ro3>  (192) 
[False, True, True, False]

>  <Ro3_Fulfilled>  (192) 
False

>  <Fsp3>  (192) 
0.166667

>  <Fsp3_0.42>  (192) 
False

>  <Fsp3_0.45>  (192) 
False

>  <Stereogenic_Carbons>  (192) 
1

>  <C_Atoms>  (192) 
24

>  <FCStereo>  (192) 
0.041667

>  <SPS>  (192) 
374

>  <nSPS>  (192) 
12.466667

>  <PBF>  (192) 
1.091185

>  <PBF_0.6>  (192) 
True

>  <nPBF>  (192) 
0.036373

>  <nPBF_0.016>  (192) 
True

>  <PMI1>  (192) 
1724.729424

>  <PMI2>  (192) 
7869.86928

>  <PMI3>  (192) 
8517.622139

>  <NPR1>  (192) 
0.20249

>  <NPR2>  (192) 
0.923951

>  <Sum_NPR>  (192) 
1.126441

>  <Sum_NPR_1.07>  (192) 
True

>  <Sum_NPR_1.2>  (192) 
False

>  <MaxAbsEStateIndex>  (192) 
6.033268

>  <MaxEStateIndex>  (192) 
6.033268

>  <MinAbsEStateIndex>  (192) 
0.136845

>  <MinEStateIndex>  (192) 
0.136845

>  <qed>  (192) 
0.407468

>  <MolWt>  (192) 
398.49

>  <HeavyAtomMolWt>  (192) 
374.298

>  <ExactMolWt>  (192) 
398.197537

>  <NumValenceElectrons>  (192) 
150

>  <NumRadicalElectrons>  (192) 
0

>  <MaxPartialCharge>  (192) 
0.140113

>  <MinPartialCharge>  (192) 
-0.485747

>  <MaxAbsPartialCharge>  (192) 
0.485747

>  <MinAbsPartialCharge>  (192) 
0.140113

>  <FpDensityMorgan1>  (192) 
1.0

>  <FpDensityMorgan2>  (192) 
1.9

>  <FpDensityMorgan3>  (192) 
2.833333

>  <BCUT2D_MWHI>  (192) 
16.478404

>  <BCUT2D_MWLOW>  (192) 
10.046878

>  <BCUT2D_CHGHI>  (192) 
2.128654

>  <BCUT2D_CHGLO>  (192) 
-2.111929

>  <BCUT2D_LOGPHI>  (192) 
2.267912

>  <BCUT2D_LOGPLOW>  (192) 
-2.641605

>  <BCUT2D_MRHI>  (192) 
5.861615

>  <BCUT2D_MRLOW>  (192) 
-0.422665

>  <AvgIpc>  (192) 
3.358389

>  <BalabanJ>  (192) 
1.286165

>  <BertzCT>  (192) 
1319.700942

>  <Chi0>  (192) 
20.501425

>  <Chi0n>  (192) 
16.852199

>  <Chi0v>  (192) 
16.852199

>  <Chi1>  (192) 
14.669836

>  <Chi1n>  (192) 
10.082144

>  <Chi1v>  (192) 
10.082144

>  <Chi2n>  (192) 
7.719349

>  <Chi2v>  (192) 
7.719349

>  <Chi3n>  (192) 
5.469118

>  <Chi3v>  (192) 
5.469118

>  <Chi4n>  (192) 
3.865087

>  <Chi4v>  (192) 
3.865087

>  <HallKierAlpha>  (192) 
-3.64

>  <Ipc>  (192) 
14933853.825053

>  <Kappa1>  (192) 
18.392483

>  <Kappa2>  (192) 
7.647522

>  <Kappa3>  (192) 
3.53063

>  <LabuteASA>  (192) 
173.648195

>  <PEOE_VSA1>  (192) 
15.454509

>  <PEOE_VSA10>  (192) 
18.398235

>  <PEOE_VSA11>  (192) 
0.0

>  <PEOE_VSA12>  (192) 
0.0

>  <PEOE_VSA13>  (192) 
0.0

>  <PEOE_VSA14>  (192) 
0.0

>  <PEOE_VSA2>  (192) 
10.08266

>  <PEOE_VSA3>  (192) 
0.0

>  <PEOE_VSA4>  (192) 
5.098682

>  <PEOE_VSA5>  (192) 
0.0

>  <PEOE_VSA6>  (192) 
24.265468

>  <PEOE_VSA7>  (192) 
42.316108

>  <PEOE_VSA8>  (192) 
40.667109

>  <PEOE_VSA9>  (192) 
17.407472

>  <SMR_VSA1>  (192) 
10.47053

>  <SMR_VSA10>  (192) 
21.80585

>  <SMR_VSA2>  (192) 
0.0

>  <SMR_VSA3>  (192) 
20.165321

>  <SMR_VSA4>  (192) 
0.0

>  <SMR_VSA5>  (192) 
19.3864

>  <SMR_VSA6>  (192) 
6.606882

>  <SMR_VSA7>  (192) 
78.378847

>  <SMR_VSA8>  (192) 
0.0

>  <SMR_VSA9>  (192) 
16.876415

>  <SlogP_VSA1>  (192) 
10.47053

>  <SlogP_VSA10>  (192) 
0.0

>  <SlogP_VSA11>  (192) 
5.749512

>  <SlogP_VSA12>  (192) 
0.0

>  <SlogP_VSA2>  (192) 
32.814043

>  <SlogP_VSA3>  (192) 
6.420822

>  <SlogP_VSA4>  (192) 
6.923737

>  <SlogP_VSA5>  (192) 
11.257379

>  <SlogP_VSA6>  (192) 
67.121467

>  <SlogP_VSA7>  (192) 
0.0

>  <SlogP_VSA8>  (192) 
32.932753

>  <SlogP_VSA9>  (192) 
0.0

>  <EState_VSA1>  (192) 
0.0

>  <EState_VSA10>  (192) 
0.0

>  <EState_VSA11>  (192) 
0.0

>  <EState_VSA2>  (192) 
6.041841

>  <EState_VSA3>  (192) 
6.606882

>  <EState_VSA4>  (192) 
45.41079

>  <EState_VSA5>  (192) 
10.949676

>  <EState_VSA6>  (192) 
6.196844

>  <EState_VSA7>  (192) 
31.319682

>  <EState_VSA8>  (192) 
62.427667

>  <EState_VSA9>  (192) 
4.736863

>  <VSA_EState1>  (192) 
6.033268

>  <VSA_EState10>  (192) 
0.0

>  <VSA_EState2>  (192) 
7.694187

>  <VSA_EState3>  (192) 
9.682424

>  <VSA_EState4>  (192) 
10.846148

>  <VSA_EState5>  (192) 
0.753786

>  <VSA_EState6>  (192) 
16.753879

>  <VSA_EState7>  (192) 
6.534915

>  <VSA_EState8>  (192) 
2.534726

>  <VSA_EState9>  (192) 
0.0

>  <FractionCSP3>  (192) 
0.166667

>  <HeavyAtomCount>  (192) 
30

>  <NHOHCount>  (192) 
5

>  <NOCount>  (192) 
6

>  <NumAliphaticCarbocycles>  (192) 
0

>  <NumAliphaticHeterocycles>  (192) 
0

>  <NumAliphaticRings>  (192) 
0

>  <NumAromaticCarbocycles>  (192) 
2

>  <NumAromaticHeterocycles>  (192) 
3

>  <NumAromaticRings>  (192) 
5

>  <NumHAcceptors>  (192) 
3

>  <NumHDonors>  (192) 
3

>  <NumHeteroatoms>  (192) 
6

>  <NumRotatableBonds>  (192) 
6

>  <NumSaturatedCarbocycles>  (192) 
0

>  <NumSaturatedHeterocycles>  (192) 
0

>  <NumSaturatedRings>  (192) 
0

>  <RingCount>  (192) 
5

>  <MolLogP>  (192) 
3.64662

>  <MolMR>  (192) 
118.2355

>  <fr_Al_COO>  (192) 
0

>  <fr_Al_OH>  (192) 
0

>  <fr_Al_OH_noTert>  (192) 
0

>  <fr_ArN>  (192) 
0

>  <fr_Ar_COO>  (192) 
0

>  <fr_Ar_N>  (192) 
4

>  <fr_Ar_NH>  (192) 
2

>  <fr_Ar_OH>  (192) 
0

>  <fr_COO>  (192) 
0

>  <fr_COO2>  (192) 
0

>  <fr_C_O>  (192) 
0

>  <fr_C_O_noCOO>  (192) 
0

>  <fr_C_S>  (192) 
0

>  <fr_HOCCN>  (192) 
0

>  <fr_Imine>  (192) 
0

>  <fr_NH0>  (192) 
2

>  <fr_NH1>  (192) 
2

>  <fr_NH2>  (192) 
0

>  <fr_N_O>  (192) 
0

>  <fr_Ndealkylation1>  (192) 
0

>  <fr_Ndealkylation2>  (192) 
0

>  <fr_Nhpyrrole>  (192) 
2

>  <fr_SH>  (192) 
0

>  <fr_aldehyde>  (192) 
0

>  <fr_alkyl_carbamate>  (192) 
0

>  <fr_alkyl_halide>  (192) 
0

>  <fr_allylic_oxid>  (192) 
0

>  <fr_amide>  (192) 
0

>  <fr_amidine>  (192) 
0

>  <fr_aniline>  (192) 
0

>  <fr_aryl_methyl>  (192) 
1

>  <fr_azide>  (192) 
0

>  <fr_azo>  (192) 
0

>  <fr_barbitur>  (192) 
0

>  <fr_benzene>  (192) 
2

>  <fr_benzodiazepine>  (192) 
0

>  <fr_bicyclic>  (192) 
2

>  <fr_diazo>  (192) 
0

>  <fr_dihydropyridine>  (192) 
0

>  <fr_epoxide>  (192) 
0

>  <fr_ester>  (192) 
0

>  <fr_ether>  (192) 
1

>  <fr_furan>  (192) 
0

>  <fr_guanido>  (192) 
0

>  <fr_halogen>  (192) 
0

>  <fr_hdrzine>  (192) 
0

>  <fr_hdrzone>  (192) 
0

>  <fr_imidazole>  (192) 
0

>  <fr_imide>  (192) 
0

>  <fr_isocyan>  (192) 
0

>  <fr_isothiocyan>  (192) 
0

>  <fr_ketone>  (192) 
0

>  <fr_ketone_Topliss>  (192) 
0

>  <fr_lactam>  (192) 
0

>  <fr_lactone>  (192) 
0

>  <fr_methoxy>  (192) 
0

>  <fr_morpholine>  (192) 
0

>  <fr_nitrile>  (192) 
0

>  <fr_nitro>  (192) 
0

>  <fr_nitro_arom>  (192) 
0

>  <fr_nitro_arom_nonortho>  (192) 
0

>  <fr_nitroso>  (192) 
0

>  <fr_oxazole>  (192) 
0

>  <fr_oxime>  (192) 
0

>  <fr_para_hydroxylation>  (192) 
1

>  <fr_phenol>  (192) 
0

>  <fr_phenol_noOrthoHbond>  (192) 
0

>  <fr_phos_acid>  (192) 
0

>  <fr_phos_ester>  (192) 
0

>  <fr_piperdine>  (192) 
0

>  <fr_piperzine>  (192) 
0

>  <fr_priamide>  (192) 
0

>  <fr_prisulfonamd>  (192) 
0

>  <fr_pyridine>  (192) 
1

>  <fr_quatN>  (192) 
1

>  <fr_sulfide>  (192) 
0

>  <fr_sulfonamd>  (192) 
0

>  <fr_sulfone>  (192) 
0

>  <fr_term_acetylene>  (192) 
0

>  <fr_tetrazole>  (192) 
0

>  <fr_thiazole>  (192) 
0

>  <fr_thiocyan>  (192) 
0

>  <fr_thiophene>  (192) 
0

>  <fr_unbrch_alkane>  (192) 
0

>  <fr_urea>  (192) 
0

>  <NP_Likeness>  (192) 
-0.851945

$$$$
L9L
     RDKit          3D

  0  0  0  0  0  0  0  0  0  0999 V3000
M  V30 BEGIN CTAB
M  V30 COUNTS 50 53 0 0 0
M  V30 BEGIN ATOM
M  V30 1 S 30.485000 3.324000 7.459000 0
M  V30 2 F 28.655000 3.799000 11.845000 0
M  V30 3 F 27.335000 2.290000 12.809000 0
M  V30 4 F 26.433000 3.647000 11.191000 0
M  V30 5 O 25.340000 8.490000 10.718000 0
M  V30 6 N 30.548000 -1.039000 5.366000 0 CHG=1
M  V30 7 N 31.903000 3.786000 5.327000 0
M  V30 8 N 32.041000 1.453000 6.144000 0
M  V30 9 N 26.581000 8.567000 8.835000 0
M  V30 10 C 31.202000 4.958000 5.564000 0
M  V30 11 C 31.490000 0.468000 7.071000 0
M  V30 12 C 27.838000 0.896000 8.295000 0
M  V30 13 C 29.561000 0.023000 9.960000 0
M  V30 14 C 28.041000 8.032000 6.896000 0
M  V30 15 C 28.943000 7.025000 6.434000 0
M  V30 16 C 27.418000 1.889000 9.258000 0
M  V30 17 C 29.146000 1.040000 10.890000 0
M  V30 18 C 29.406000 -0.917000 7.586000 0
M  V30 19 C 27.122000 6.833000 10.354000 0
M  V30 20 C 28.778000 5.738000 8.577000 0
M  V30 21 C 31.623000 2.836000 6.255000 0
M  V30 22 C 30.357000 4.860000 6.727000 0
M  V30 23 C 26.233000 8.043000 10.024000 0
M  V30 24 C 30.201000 -0.150000 6.522000 0 CFG=2
M  V30 25 C 28.907000 0.033000 8.673000 0
M  V30 26 C 27.523000 7.848000 8.233000 0
M  V30 27 C 29.360000 5.868000 7.227000 0
M  V30 28 C 27.871000 6.748000 9.043000 0
M  V30 29 C 28.029000 1.974000 10.596000 0
M  V30 30 C 27.565000 3.004000 11.688000 0
M  V30 31 H 29.713200 -1.449000 4.998400 0
M  V30 32 H 30.996100 -0.499400 4.653300 0
M  V30 33 H 32.697700 1.176800 5.442300 0
M  V30 34 H 26.179200 9.397900 8.450100 0
M  V30 35 H 31.274300 5.776500 4.994100 0
M  V30 36 H 31.291300 0.916000 7.942600 0
M  V30 37 H 32.163600 -0.256900 7.214800 0
M  V30 38 H 27.396800 0.818000 7.401000 0
M  V30 39 H 30.261800 -0.651600 10.191900 0
M  V30 40 H 27.784000 8.815200 6.329900 0
M  V30 41 H 29.313100 7.116700 5.509500 0
M  V30 42 H 26.695100 2.533900 9.010000 0
M  V30 43 H 29.625900 1.120600 11.763600 0
M  V30 44 H 29.995600 -1.610100 8.000600 0
M  V30 45 H 28.622000 -1.362000 7.153200 0
M  V30 46 H 26.585600 6.009000 10.536500 0
M  V30 47 H 27.731600 7.011800 11.126300 0
M  V30 48 H 29.011900 4.958400 9.157900 0
M  V30 49 H 29.624000 0.591500 6.179600 0
M  V30 50 H 31.166100 -1.761700 5.675100 0
M  V30 END ATOM
M  V30 BEGIN BOND
M  V30 1 1 1 21
M  V30 2 1 1 22
M  V30 3 1 30 2
M  V30 4 1 3 30
M  V30 5 1 4 30
M  V30 6 2 5 23
M  V30 7 1 6 24
M  V30 8 1 7 10
M  V30 9 2 7 21
M  V30 10 1 8 11
M  V30 11 1 8 21
M  V30 12 1 9 23
M  V30 13 1 9 26
M  V30 14 2 10 22
M  V30 15 1 11 24
M  V30 16 2 12 16
M  V30 17 1 12 25
M  V30 18 1 13 17
M  V30 19 2 13 25
M  V30 20 1 14 15
M  V30 21 2 14 26
M  V30 22 2 15 27
M  V30 23 1 16 29
M  V30 24 2 17 29
M  V30 25 1 18 24
M  V30 26 1 18 25
M  V30 27 1 19 23
M  V30 28 1 19 28
M  V30 29 1 20 27
M  V30 30 2 20 28
M  V30 31 1 22 27
M  V30 32 1 26 28
M  V30 33 1 29 30
M  V30 34 1 6 31
M  V30 35 1 6 32
M  V30 36 1 8 33
M  V30 37 1 9 34
M  V30 38 1 10 35
M  V30 39 1 11 36
M  V30 40 1 11 37
M  V30 41 1 12 38
M  V30 42 1 13 39
M  V30 43 1 14 40
M  V30 44 1 15 41
M  V30 45 1 16 42
M  V30 46 1 17 43
M  V30 47 1 18 44
M  V30 48 1 18 45
M  V30 49 1 19 46
M  V30 50 1 19 47
M  V30 51 1 20 48
M  V30 52 1 24 49 CFG=3
M  V30 53 1 6 50
M  V30 END BOND
M  V30 END CTAB
M  END
>  <Ligand_Instance>  (193) 
3L9L_L9L_A_351

>  <Dataset>  (193) 
PDB

>  <PDB_ID>  (193) 
3L9L

>  <Chain>  (193) 
A

>  <Resi>  (193) 
351

>  <Num_Resolved_Atoms>  (193) 
30

>  <Num_H_Atoms_ProtBoundConf>  (193) 
20

>  <Pocket>  (193) 
A

>  <Name>  (193) 
5-[2-({(2S)-2-amino-3-[4-(trifluoromethyl)phenyl]propyl}amino)-1,3-thiazol-5-yl]-1,3-dihydro-2H-indol-2-one

>  <Num_Not_Resolved_Atoms>  (193) 
0

>  <ATP_Site>  (193) 
True

>  <Peripheral>  (193) 
False

>  <Standardized_SMILES>  (193) 
[H]C1=C(C2=C([H])C([H])=C3C(=C2[H])C([H])([H])C(=O)N3[H])SC(N([H])C([H])([H])[C@]([H])(C([H])([H])C2=C([H])C([H])=C(C(F)(F)F)C([H])=C2[H])[N+]([H])([H])[H])=N1

>  <2D_Mol_H>  (193) 
<rdkit.Chem.rdchem.Mol object at 0x77059d81cac0>

>  <MW>  (193) 
433.479

>  <HBA>  (193) 
4

>  <HBD>  (193) 
3

>  <LogP>  (193) 
3.5886

>  <NRB>  (193) 
7

>  <TPSA>  (193) 
81.66

>  <Num_Heavy_Atoms>  (193) 
30

>  <Ro5>  (193) 
[True, True, True, True, True, True]

>  <Ro5_Fulfilled>  (193) 
True

>  <Ro3>  (193) 
[False, False, True, False]

>  <Ro3_Fulfilled>  (193) 
False

>  <Fsp3>  (193) 
0.238095

>  <Fsp3_0.42>  (193) 
False

>  <Fsp3_0.45>  (193) 
False

>  <Stereogenic_Carbons>  (193) 
1

>  <C_Atoms>  (193) 
21

>  <FCStereo>  (193) 
0.047619

>  <SPS>  (193) 
430

>  <nSPS>  (193) 
14.333333

>  <PBF>  (193) 
0.884426

>  <PBF_0.6>  (193) 
True

>  <nPBF>  (193) 
0.029481

>  <nPBF_0.016>  (193) 
True

>  <PMI1>  (193) 
2707.233286

>  <PMI2>  (193) 
4768.589036

>  <PMI3>  (193) 
6884.556882

>  <NPR1>  (193) 
0.393233

>  <NPR2>  (193) 
0.69265

>  <Sum_NPR>  (193) 
1.085883

>  <Sum_NPR_1.07>  (193) 
True

>  <Sum_NPR_1.2>  (193) 
False

>  <MaxAbsEStateIndex>  (193) 
12.651313

>  <MaxEStateIndex>  (193) 
12.651313

>  <MinAbsEStateIndex>  (193) 
0.003096

>  <MinEStateIndex>  (193) 
-4.322051

>  <qed>  (193) 
0.555786

>  <MolWt>  (193) 
433.479

>  <HeavyAtomMolWt>  (193) 
413.319

>  <ExactMolWt>  (193) 
433.130443

>  <NumValenceElectrons>  (193) 
156

>  <NumRadicalElectrons>  (193) 
0

>  <MaxPartialCharge>  (193) 
0.41591

>  <MinPartialCharge>  (193) 
-0.355526

>  <MaxAbsPartialCharge>  (193) 
0.41591

>  <MinAbsPartialCharge>  (193) 
0.355526

>  <FpDensityMorgan1>  (193) 
1.2

>  <FpDensityMorgan2>  (193) 
1.966667

>  <FpDensityMorgan3>  (193) 
2.7

>  <BCUT2D_MWHI>  (193) 
32.133578

>  <BCUT2D_MWLOW>  (193) 
10.044973

>  <BCUT2D_CHGHI>  (193) 
2.295823

>  <BCUT2D_CHGLO>  (193) 
-2.10779

>  <BCUT2D_LOGPHI>  (193) 
2.331985

>  <BCUT2D_LOGPLOW>  (193) 
-2.644272

>  <BCUT2D_MRHI>  (193) 
7.184245

>  <BCUT2D_MRLOW>  (193) 
-0.413933

>  <AvgIpc>  (193) 
3.306704

>  <BalabanJ>  (193) 
1.331675

>  <BertzCT>  (193) 
1062.85859

>  <Chi0>  (193) 
21.302754

>  <Chi0n>  (193) 
15.922183

>  <Chi0v>  (193) 
16.73868

>  <Chi1>  (193) 
14.275008

>  <Chi1n>  (193) 
9.398159

>  <Chi1v>  (193) 
10.214656

>  <Chi2n>  (193) 
7.272276

>  <Chi2v>  (193) 
8.302925

>  <Chi3n>  (193) 
4.86815

>  <Chi3v>  (193) 
5.872271

>  <Chi4n>  (193) 
3.338821

>  <Chi4v>  (193) 
4.158264

>  <HallKierAlpha>  (193) 
-2.91

>  <Ipc>  (193) 
7135509.533138

>  <Kappa1>  (193) 
20.366331

>  <Kappa2>  (193) 
8.078206

>  <Kappa3>  (193) 
4.628107

>  <LabuteASA>  (193) 
174.687168

>  <PEOE_VSA1>  (193) 
16.367245

>  <PEOE_VSA10>  (193) 
6.041841

>  <PEOE_VSA11>  (193) 
5.131558

>  <PEOE_VSA12>  (193) 
5.90718

>  <PEOE_VSA13>  (193) 
0.0

>  <PEOE_VSA14>  (193) 
6.176299

>  <PEOE_VSA2>  (193) 
4.794537

>  <PEOE_VSA3>  (193) 
4.983979

>  <PEOE_VSA4>  (193) 
13.171245

>  <PEOE_VSA5>  (193) 
0.0

>  <PEOE_VSA6>  (193) 
29.535887

>  <PEOE_VSA7>  (193) 
40.955823

>  <PEOE_VSA8>  (193) 
18.305051

>  <PEOE_VSA9>  (193) 
23.406177

>  <SMR_VSA1>  (193) 
23.69945

>  <SMR_VSA10>  (193) 
28.06291

>  <SMR_VSA2>  (193) 
0.0

>  <SMR_VSA3>  (193) 
4.983979

>  <SMR_VSA4>  (193) 
0.0

>  <SMR_VSA5>  (193) 
25.059783

>  <SMR_VSA6>  (193) 
17.178334

>  <SMR_VSA7>  (193) 
65.351768

>  <SMR_VSA8>  (193) 
0.0

>  <SMR_VSA9>  (193) 
10.440599

>  <SlogP_VSA1>  (193) 
16.367245

>  <SlogP_VSA10>  (193) 
23.99019

>  <SlogP_VSA11>  (193) 
0.0

>  <SlogP_VSA12>  (193) 
11.336786

>  <SlogP_VSA2>  (193) 
23.477755

>  <SlogP_VSA3>  (193) 
23.812479

>  <SlogP_VSA4>  (193) 
0.0

>  <SlogP_VSA5>  (193) 
16.690354

>  <SlogP_VSA6>  (193) 
48.661413

>  <SlogP_VSA7>  (193) 
0.0

>  <SlogP_VSA8>  (193) 
10.440599

>  <SlogP_VSA9>  (193) 
0.0

>  <EState_VSA1>  (193) 
11.73975

>  <EState_VSA10>  (193) 
17.965782

>  <EState_VSA11>  (193) 
0.0

>  <EState_VSA2>  (193) 
11.949021

>  <EState_VSA3>  (193) 
19.3864

>  <EState_VSA4>  (193) 
44.519181

>  <EState_VSA5>  (193) 
23.46952

>  <EState_VSA6>  (193) 
6.196844

>  <EState_VSA7>  (193) 
18.199101

>  <EState_VSA8>  (193) 
21.351223

>  <EState_VSA9>  (193) 
0.0

>  <VSA_EState1>  (193) 
37.953939

>  <VSA_EState10>  (193) 
1.504864

>  <VSA_EState2>  (193) 
16.885356

>  <VSA_EState3>  (193) 
6.817176

>  <VSA_EState4>  (193) 
7.092733

>  <VSA_EState5>  (193) 
0.003096

>  <VSA_EState6>  (193) 
11.024303

>  <VSA_EState7>  (193) 
-1.583635

>  <VSA_EState8>  (193) 
0.552168

>  <VSA_EState9>  (193) 
0.0

>  <FractionCSP3>  (193) 
0.238095

>  <HeavyAtomCount>  (193) 
30

>  <NHOHCount>  (193) 
5

>  <NOCount>  (193) 
5

>  <NumAliphaticCarbocycles>  (193) 
0

>  <NumAliphaticHeterocycles>  (193) 
1

>  <NumAliphaticRings>  (193) 
1

>  <NumAromaticCarbocycles>  (193) 
2

>  <NumAromaticHeterocycles>  (193) 
1

>  <NumAromaticRings>  (193) 
3

>  <NumHAcceptors>  (193) 
4

>  <NumHDonors>  (193) 
3

>  <NumHeteroatoms>  (193) 
9

>  <NumRotatableBonds>  (193) 
6

>  <NumSaturatedCarbocycles>  (193) 
0

>  <NumSaturatedHeterocycles>  (193) 
0

>  <NumSaturatedRings>  (193) 
0

>  <RingCount>  (193) 
4

>  <MolLogP>  (193) 
3.5886

>  <MolMR>  (193) 
110.1975

>  <fr_Al_COO>  (193) 
0

>  <fr_Al_OH>  (193) 
0

>  <fr_Al_OH_noTert>  (193) 
0

>  <fr_ArN>  (193) 
0

>  <fr_Ar_COO>  (193) 
0

>  <fr_Ar_N>  (193) 
1

>  <fr_Ar_NH>  (193) 
0

>  <fr_Ar_OH>  (193) 
0

>  <fr_COO>  (193) 
0

>  <fr_COO2>  (193) 
0

>  <fr_C_O>  (193) 
1

>  <fr_C_O_noCOO>  (193) 
1

>  <fr_C_S>  (193) 
0

>  <fr_HOCCN>  (193) 
0

>  <fr_Imine>  (193) 
0

>  <fr_NH0>  (193) 
1

>  <fr_NH1>  (193) 
2

>  <fr_NH2>  (193) 
0

>  <fr_N_O>  (193) 
0

>  <fr_Ndealkylation1>  (193) 
0

>  <fr_Ndealkylation2>  (193) 
0

>  <fr_Nhpyrrole>  (193) 
0

>  <fr_SH>  (193) 
0

>  <fr_aldehyde>  (193) 
0

>  <fr_alkyl_carbamate>  (193) 
0

>  <fr_alkyl_halide>  (193) 
3

>  <fr_allylic_oxid>  (193) 
0

>  <fr_amide>  (193) 
1

>  <fr_amidine>  (193) 
0

>  <fr_aniline>  (193) 
2

>  <fr_aryl_methyl>  (193) 
0

>  <fr_azide>  (193) 
0

>  <fr_azo>  (193) 
0

>  <fr_barbitur>  (193) 
0

>  <fr_benzene>  (193) 
2

>  <fr_benzodiazepine>  (193) 
0

>  <fr_bicyclic>  (193) 
1

>  <fr_diazo>  (193) 
0

>  <fr_dihydropyridine>  (193) 
0

>  <fr_epoxide>  (193) 
0

>  <fr_ester>  (193) 
0

>  <fr_ether>  (193) 
0

>  <fr_furan>  (193) 
0

>  <fr_guanido>  (193) 
0

>  <fr_halogen>  (193) 
3

>  <fr_hdrzine>  (193) 
0

>  <fr_hdrzone>  (193) 
0

>  <fr_imidazole>  (193) 
0

>  <fr_imide>  (193) 
0

>  <fr_isocyan>  (193) 
0

>  <fr_isothiocyan>  (193) 
0

>  <fr_ketone>  (193) 
0

>  <fr_ketone_Topliss>  (193) 
0

>  <fr_lactam>  (193) 
0

>  <fr_lactone>  (193) 
0

>  <fr_methoxy>  (193) 
0

>  <fr_morpholine>  (193) 
0

>  <fr_nitrile>  (193) 
0

>  <fr_nitro>  (193) 
0

>  <fr_nitro_arom>  (193) 
0

>  <fr_nitro_arom_nonortho>  (193) 
0

>  <fr_nitroso>  (193) 
0

>  <fr_oxazole>  (193) 
0

>  <fr_oxime>  (193) 
0

>  <fr_para_hydroxylation>  (193) 
0

>  <fr_phenol>  (193) 
0

>  <fr_phenol_noOrthoHbond>  (193) 
0

>  <fr_phos_acid>  (193) 
0

>  <fr_phos_ester>  (193) 
0

>  <fr_piperdine>  (193) 
0

>  <fr_piperzine>  (193) 
0

>  <fr_priamide>  (193) 
0

>  <fr_prisulfonamd>  (193) 
0

>  <fr_pyridine>  (193) 
0

>  <fr_quatN>  (193) 
1

>  <fr_sulfide>  (193) 
0

>  <fr_sulfonamd>  (193) 
0

>  <fr_sulfone>  (193) 
0

>  <fr_term_acetylene>  (193) 
0

>  <fr_tetrazole>  (193) 
0

>  <fr_thiazole>  (193) 
1

>  <fr_thiocyan>  (193) 
0

>  <fr_thiophene>  (193) 
0

>  <fr_unbrch_alkane>  (193) 
0

>  <fr_urea>  (193) 
0

>  <NP_Likeness>  (193) 
-1.128255

$$$$
L9L
     RDKit          3D

  0  0  0  0  0  0  0  0  0  0999 V3000
M  V30 BEGIN CTAB
M  V30 COUNTS 50 53 0 0 0
M  V30 BEGIN ATOM
M  V30 1 S 74.497000 94.276000 27.391000 0
M  V30 2 F 78.446000 93.732000 24.384000 0
M  V30 3 F 78.577000 95.311000 22.689000 0
M  V30 4 F 76.929000 93.735000 22.683000 0
M  V30 5 O 76.108000 88.970000 21.629000 0
M  V30 6 N 72.648000 98.617000 28.016000 0 CHG=1
M  V30 7 N 72.965000 93.707000 29.442000 0
M  V30 8 N 73.821000 96.085000 29.376000 0
M  V30 9 N 74.640000 88.917000 23.340000 0
M  V30 10 C 73.025000 92.562000 28.673000 0
M  V30 11 C 74.491000 97.077000 28.537000 0
M  V30 12 C 74.580000 96.555000 24.633000 0
M  V30 13 C 76.627000 97.517000 25.824000 0
M  V30 14 C 73.331000 89.380000 25.400000 0
M  V30 15 C 73.195000 90.401000 26.408000 0
M  V30 16 C 75.419000 95.535000 24.072000 0
M  V30 17 C 77.453000 96.535000 25.167000 0
M  V30 18 C 74.310000 98.348000 26.283000 0
M  V30 19 C 76.179000 90.727000 23.323000 0
M  V30 20 C 75.015000 91.810000 25.438000 0
M  V30 21 C 73.724000 94.712000 28.871000 0
M  V30 22 C 73.823000 92.696000 27.510000 0
M  V30 23 C 75.660000 89.443000 22.648000 0
M  V30 24 C 73.587000 97.638000 27.431000 0 CFG=2
M  V30 25 C 75.223000 97.447000 25.539000 0
M  V30 26 C 74.347000 89.645000 24.417000 0
M  V30 27 C 73.996000 91.619000 26.469000 0
M  V30 28 C 75.169000 90.802000 24.435000 0
M  V30 29 C 76.882000 95.512000 24.254000 0
M  V30 30 C 77.771000 94.497000 23.454000 0
M  V30 31 H 72.057900 98.983800 27.296800 0
M  V30 32 H 72.086700 98.166700 28.710300 0
M  V30 33 H 73.440800 96.335000 30.266500 0
M  V30 34 H 74.157700 88.080500 23.080000 0
M  V30 35 H 72.549200 91.716300 28.914500 0
M  V30 36 H 75.287100 96.647700 28.110400 0
M  V30 37 H 74.791400 97.834000 29.117200 0
M  V30 38 H 73.609900 96.634400 24.403600 0
M  V30 39 H 77.009500 98.205000 26.440800 0
M  V30 40 H 72.765600 88.555300 25.385200 0
M  V30 41 H 72.502200 90.264900 27.116200 0
M  V30 42 H 74.992700 94.807800 23.534000 0
M  V30 43 H 78.439500 96.542800 25.330800 0
M  V30 44 H 74.844100 99.104500 26.660300 0
M  V30 45 H 73.626400 98.706900 25.647500 0
M  V30 46 H 76.132700 91.519700 22.715200 0
M  V30 47 H 77.112700 90.623900 23.665800 0
M  V30 48 H 75.591400 92.627200 25.434200 0
M  V30 49 H 73.054900 96.883100 27.047600 0
M  V30 50 H 73.163800 99.363200 28.436900 0
M  V30 END ATOM
M  V30 BEGIN BOND
M  V30 1 1 1 21
M  V30 2 1 1 22
M  V30 3 1 30 2
M  V30 4 1 3 30
M  V30 5 1 4 30
M  V30 6 2 5 23
M  V30 7 1 6 24
M  V30 8 1 7 10
M  V30 9 2 7 21
M  V30 10 1 8 11
M  V30 11 1 8 21
M  V30 12 1 9 23
M  V30 13 1 9 26
M  V30 14 2 10 22
M  V30 15 1 11 24
M  V30 16 2 12 16
M  V30 17 1 12 25
M  V30 18 1 13 17
M  V30 19 2 13 25
M  V30 20 1 14 15
M  V30 21 2 14 26
M  V30 22 2 15 27
M  V30 23 1 16 29
M  V30 24 2 17 29
M  V30 25 1 18 24
M  V30 26 1 18 25
M  V30 27 1 19 23
M  V30 28 1 19 28
M  V30 29 1 20 27
M  V30 30 2 20 28
M  V30 31 1 22 27
M  V30 32 1 26 28
M  V30 33 1 29 30
M  V30 34 1 6 31
M  V30 35 1 6 32
M  V30 36 1 8 33
M  V30 37 1 9 34
M  V30 38 1 10 35
M  V30 39 1 11 36
M  V30 40 1 11 37
M  V30 41 1 12 38
M  V30 42 1 13 39
M  V30 43 1 14 40
M  V30 44 1 15 41
M  V30 45 1 16 42
M  V30 46 1 17 43
M  V30 47 1 18 44
M  V30 48 1 18 45
M  V30 49 1 19 46
M  V30 50 1 19 47
M  V30 51 1 20 48
M  V30 52 1 24 49 CFG=3
M  V30 53 1 6 50
M  V30 END BOND
M  V30 END CTAB
M  END
>  <Ligand_Instance>  (194) 
3L9L_L9L_B_351

>  <Dataset>  (194) 
PDB

>  <PDB_ID>  (194) 
3L9L

>  <Chain>  (194) 
B

>  <Resi>  (194) 
351

>  <Num_Resolved_Atoms>  (194) 
30

>  <Num_H_Atoms_ProtBoundConf>  (194) 
20

>  <Pocket>  (194) 
A

>  <Name>  (194) 
5-[2-({(2S)-2-amino-3-[4-(trifluoromethyl)phenyl]propyl}amino)-1,3-thiazol-5-yl]-1,3-dihydro-2H-indol-2-one

>  <Num_Not_Resolved_Atoms>  (194) 
0

>  <ATP_Site>  (194) 
True

>  <Peripheral>  (194) 
False

>  <Standardized_SMILES>  (194) 
[H]C1=C(C2=C([H])C([H])=C3C(=C2[H])C([H])([H])C(=O)N3[H])SC(N([H])C([H])([H])[C@]([H])(C([H])([H])C2=C([H])C([H])=C(C(F)(F)F)C([H])=C2[H])[N+]([H])([H])[H])=N1

>  <2D_Mol_H>  (194) 
<rdkit.Chem.rdchem.Mol object at 0x77059d81cba0>

>  <MW>  (194) 
433.479

>  <HBA>  (194) 
4

>  <HBD>  (194) 
3

>  <LogP>  (194) 
3.5886

>  <NRB>  (194) 
7

>  <TPSA>  (194) 
81.66

>  <Num_Heavy_Atoms>  (194) 
30

>  <Ro5>  (194) 
[True, True, True, True, True, True]

>  <Ro5_Fulfilled>  (194) 
True

>  <Ro3>  (194) 
[False, False, True, False]

>  <Ro3_Fulfilled>  (194) 
False

>  <Fsp3>  (194) 
0.238095

>  <Fsp3_0.42>  (194) 
False

>  <Fsp3_0.45>  (194) 
False

>  <Stereogenic_Carbons>  (194) 
1

>  <C_Atoms>  (194) 
21

>  <FCStereo>  (194) 
0.047619

>  <SPS>  (194) 
430

>  <nSPS>  (194) 
14.333333

>  <PBF>  (194) 
0.867824

>  <PBF_0.6>  (194) 
True

>  <nPBF>  (194) 
0.028927

>  <nPBF_0.016>  (194) 
True

>  <PMI1>  (194) 
2710.237833

>  <PMI2>  (194) 
4755.178467

>  <PMI3>  (194) 
6877.361606

>  <NPR1>  (194) 
0.394081

>  <NPR2>  (194) 
0.691425

>  <Sum_NPR>  (194) 
1.085506

>  <Sum_NPR_1.07>  (194) 
True

>  <Sum_NPR_1.2>  (194) 
False

>  <MaxAbsEStateIndex>  (194) 
12.651313

>  <MaxEStateIndex>  (194) 
12.651313

>  <MinAbsEStateIndex>  (194) 
0.003096

>  <MinEStateIndex>  (194) 
-4.322051

>  <qed>  (194) 
0.555786

>  <MolWt>  (194) 
433.479

>  <HeavyAtomMolWt>  (194) 
413.319

>  <ExactMolWt>  (194) 
433.130443

>  <NumValenceElectrons>  (194) 
156

>  <NumRadicalElectrons>  (194) 
0

>  <MaxPartialCharge>  (194) 
0.41591

>  <MinPartialCharge>  (194) 
-0.355526

>  <MaxAbsPartialCharge>  (194) 
0.41591

>  <MinAbsPartialCharge>  (194) 
0.355526

>  <FpDensityMorgan1>  (194) 
1.2

>  <FpDensityMorgan2>  (194) 
1.966667

>  <FpDensityMorgan3>  (194) 
2.7

>  <BCUT2D_MWHI>  (194) 
32.133578

>  <BCUT2D_MWLOW>  (194) 
10.044973

>  <BCUT2D_CHGHI>  (194) 
2.295823

>  <BCUT2D_CHGLO>  (194) 
-2.10779

>  <BCUT2D_LOGPHI>  (194) 
2.331985

>  <BCUT2D_LOGPLOW>  (194) 
-2.644272

>  <BCUT2D_MRHI>  (194) 
7.184245

>  <BCUT2D_MRLOW>  (194) 
-0.413933

>  <AvgIpc>  (194) 
3.306704

>  <BalabanJ>  (194) 
1.331675

>  <BertzCT>  (194) 
1062.85859

>  <Chi0>  (194) 
21.302754

>  <Chi0n>  (194) 
15.922183

>  <Chi0v>  (194) 
16.73868

>  <Chi1>  (194) 
14.275008

>  <Chi1n>  (194) 
9.398159

>  <Chi1v>  (194) 
10.214656

>  <Chi2n>  (194) 
7.272276

>  <Chi2v>  (194) 
8.302925

>  <Chi3n>  (194) 
4.86815

>  <Chi3v>  (194) 
5.872271

>  <Chi4n>  (194) 
3.338821

>  <Chi4v>  (194) 
4.158264

>  <HallKierAlpha>  (194) 
-2.91

>  <Ipc>  (194) 
7135509.533138

>  <Kappa1>  (194) 
20.366331

>  <Kappa2>  (194) 
8.078206

>  <Kappa3>  (194) 
4.628107

>  <LabuteASA>  (194) 
174.687168

>  <PEOE_VSA1>  (194) 
16.367245

>  <PEOE_VSA10>  (194) 
6.041841

>  <PEOE_VSA11>  (194) 
5.131558

>  <PEOE_VSA12>  (194) 
5.90718

>  <PEOE_VSA13>  (194) 
0.0

>  <PEOE_VSA14>  (194) 
6.176299

>  <PEOE_VSA2>  (194) 
4.794537

>  <PEOE_VSA3>  (194) 
4.983979

>  <PEOE_VSA4>  (194) 
13.171245

>  <PEOE_VSA5>  (194) 
0.0

>  <PEOE_VSA6>  (194) 
29.535887

>  <PEOE_VSA7>  (194) 
40.955823

>  <PEOE_VSA8>  (194) 
18.305051

>  <PEOE_VSA9>  (194) 
23.406177

>  <SMR_VSA1>  (194) 
23.69945

>  <SMR_VSA10>  (194) 
28.06291

>  <SMR_VSA2>  (194) 
0.0

>  <SMR_VSA3>  (194) 
4.983979

>  <SMR_VSA4>  (194) 
0.0

>  <SMR_VSA5>  (194) 
25.059783

>  <SMR_VSA6>  (194) 
17.178334

>  <SMR_VSA7>  (194) 
65.351768

>  <SMR_VSA8>  (194) 
0.0

>  <SMR_VSA9>  (194) 
10.440599

>  <SlogP_VSA1>  (194) 
16.367245

>  <SlogP_VSA10>  (194) 
23.99019

>  <SlogP_VSA11>  (194) 
0.0

>  <SlogP_VSA12>  (194) 
11.336786

>  <SlogP_VSA2>  (194) 
23.477755

>  <SlogP_VSA3>  (194) 
23.812479

>  <SlogP_VSA4>  (194) 
0.0

>  <SlogP_VSA5>  (194) 
16.690354

>  <SlogP_VSA6>  (194) 
48.661413

>  <SlogP_VSA7>  (194) 
0.0

>  <SlogP_VSA8>  (194) 
10.440599

>  <SlogP_VSA9>  (194) 
0.0

>  <EState_VSA1>  (194) 
11.73975

>  <EState_VSA10>  (194) 
17.965782

>  <EState_VSA11>  (194) 
0.0

>  <EState_VSA2>  (194) 
11.949021

>  <EState_VSA3>  (194) 
19.3864

>  <EState_VSA4>  (194) 
44.519181

>  <EState_VSA5>  (194) 
23.46952

>  <EState_VSA6>  (194) 
6.196844

>  <EState_VSA7>  (194) 
18.199101

>  <EState_VSA8>  (194) 
21.351223

>  <EState_VSA9>  (194) 
0.0

>  <VSA_EState1>  (194) 
37.953939

>  <VSA_EState10>  (194) 
1.504864

>  <VSA_EState2>  (194) 
16.885356

>  <VSA_EState3>  (194) 
6.817176

>  <VSA_EState4>  (194) 
7.092733

>  <VSA_EState5>  (194) 
0.003096

>  <VSA_EState6>  (194) 
11.024303

>  <VSA_EState7>  (194) 
-1.583635

>  <VSA_EState8>  (194) 
0.552168

>  <VSA_EState9>  (194) 
0.0

>  <FractionCSP3>  (194) 
0.238095

>  <HeavyAtomCount>  (194) 
30

>  <NHOHCount>  (194) 
5

>  <NOCount>  (194) 
5

>  <NumAliphaticCarbocycles>  (194) 
0

>  <NumAliphaticHeterocycles>  (194) 
1

>  <NumAliphaticRings>  (194) 
1

>  <NumAromaticCarbocycles>  (194) 
2

>  <NumAromaticHeterocycles>  (194) 
1

>  <NumAromaticRings>  (194) 
3

>  <NumHAcceptors>  (194) 
4

>  <NumHDonors>  (194) 
3

>  <NumHeteroatoms>  (194) 
9

>  <NumRotatableBonds>  (194) 
6

>  <NumSaturatedCarbocycles>  (194) 
0

>  <NumSaturatedHeterocycles>  (194) 
0

>  <NumSaturatedRings>  (194) 
0

>  <RingCount>  (194) 
4

>  <MolLogP>  (194) 
3.5886

>  <MolMR>  (194) 
110.1975

>  <fr_Al_COO>  (194) 
0

>  <fr_Al_OH>  (194) 
0

>  <fr_Al_OH_noTert>  (194) 
0

>  <fr_ArN>  (194) 
0

>  <fr_Ar_COO>  (194) 
0

>  <fr_Ar_N>  (194) 
1

>  <fr_Ar_NH>  (194) 
0

>  <fr_Ar_OH>  (194) 
0

>  <fr_COO>  (194) 
0

>  <fr_COO2>  (194) 
0

>  <fr_C_O>  (194) 
1

>  <fr_C_O_noCOO>  (194) 
1

>  <fr_C_S>  (194) 
0

>  <fr_HOCCN>  (194) 
0

>  <fr_Imine>  (194) 
0

>  <fr_NH0>  (194) 
1

>  <fr_NH1>  (194) 
2

>  <fr_NH2>  (194) 
0

>  <fr_N_O>  (194) 
0

>  <fr_Ndealkylation1>  (194) 
0

>  <fr_Ndealkylation2>  (194) 
0

>  <fr_Nhpyrrole>  (194) 
0

>  <fr_SH>  (194) 
0

>  <fr_aldehyde>  (194) 
0

>  <fr_alkyl_carbamate>  (194) 
0

>  <fr_alkyl_halide>  (194) 
3

>  <fr_allylic_oxid>  (194) 
0

>  <fr_amide>  (194) 
1

>  <fr_amidine>  (194) 
0

>  <fr_aniline>  (194) 
2

>  <fr_aryl_methyl>  (194) 
0

>  <fr_azide>  (194) 
0

>  <fr_azo>  (194) 
0

>  <fr_barbitur>  (194) 
0

>  <fr_benzene>  (194) 
2

>  <fr_benzodiazepine>  (194) 
0

>  <fr_bicyclic>  (194) 
1

>  <fr_diazo>  (194) 
0

>  <fr_dihydropyridine>  (194) 
0

>  <fr_epoxide>  (194) 
0

>  <fr_ester>  (194) 
0

>  <fr_ether>  (194) 
0

>  <fr_furan>  (194) 
0

>  <fr_guanido>  (194) 
0

>  <fr_halogen>  (194) 
3

>  <fr_hdrzine>  (194) 
0

>  <fr_hdrzone>  (194) 
0

>  <fr_imidazole>  (194) 
0

>  <fr_imide>  (194) 
0

>  <fr_isocyan>  (194) 
0

>  <fr_isothiocyan>  (194) 
0

>  <fr_ketone>  (194) 
0

>  <fr_ketone_Topliss>  (194) 
0

>  <fr_lactam>  (194) 
0

>  <fr_lactone>  (194) 
0

>  <fr_methoxy>  (194) 
0

>  <fr_morpholine>  (194) 
0

>  <fr_nitrile>  (194) 
0

>  <fr_nitro>  (194) 
0

>  <fr_nitro_arom>  (194) 
0

>  <fr_nitro_arom_nonortho>  (194) 
0

>  <fr_nitroso>  (194) 
0

>  <fr_oxazole>  (194) 
0

>  <fr_oxime>  (194) 
0

>  <fr_para_hydroxylation>  (194) 
0

>  <fr_phenol>  (194) 
0

>  <fr_phenol_noOrthoHbond>  (194) 
0

>  <fr_phos_acid>  (194) 
0

>  <fr_phos_ester>  (194) 
0

>  <fr_piperdine>  (194) 
0

>  <fr_piperzine>  (194) 
0

>  <fr_priamide>  (194) 
0

>  <fr_prisulfonamd>  (194) 
0

>  <fr_pyridine>  (194) 
0

>  <fr_quatN>  (194) 
1

>  <fr_sulfide>  (194) 
0

>  <fr_sulfonamd>  (194) 
0

>  <fr_sulfone>  (194) 
0

>  <fr_term_acetylene>  (194) 
0

>  <fr_tetrazole>  (194) 
0

>  <fr_thiazole>  (194) 
1

>  <fr_thiocyan>  (194) 
0

>  <fr_thiophene>  (194) 
0

>  <fr_unbrch_alkane>  (194) 
0

>  <fr_urea>  (194) 
0

>  <NP_Likeness>  (194) 
-1.128255

$$$$
L9M
     RDKit          3D

  0  0  0  0  0  0  0  0  0  0999 V3000
M  V30 BEGIN CTAB
M  V30 COUNTS 50 53 0 0 0
M  V30 BEGIN ATOM
M  V30 1 S 30.054000 3.502000 7.610000 0
M  V30 2 N 30.530000 -0.893000 5.705000 0 CHG=1
M  V30 3 N 31.537000 4.045000 5.652000 0
M  V30 4 N 30.812000 5.050000 5.747000 0
M  V30 5 N 25.697000 8.482000 9.397000 0
M  V30 6 N 26.275000 9.060000 8.341000 0
M  V30 7 N 31.966000 1.763000 6.314000 0
M  V30 8 C 25.747000 6.417000 10.763000 0
M  V30 9 C 27.680000 3.160000 12.380000 0
M  V30 10 C 31.497000 0.734000 7.285000 0
M  V30 11 C 28.139000 8.411000 6.621000 0
M  V30 12 C 27.381000 2.045000 9.904000 0
M  V30 13 C 29.364000 1.225000 11.335000 0
M  V30 14 C 27.781000 1.150000 8.842000 0
M  V30 15 C 29.752000 0.344000 10.274000 0
M  V30 16 C 29.036000 7.323000 6.297000 0
M  V30 17 C 29.416000 -0.621000 7.933000 0
M  V30 18 C 28.092000 5.970000 8.275000 0
M  V30 19 C 31.303000 2.993000 6.454000 0
M  V30 20 C 29.922000 5.040000 6.761000 0
M  V30 21 C 30.203000 0.063000 6.804000 0 CFG=2
M  V30 22 C 26.177000 7.275000 9.645000 0
M  V30 23 C 27.233000 8.264000 7.762000 0
M  V30 24 C 28.187000 2.053000 11.116000 0
M  V30 25 C 28.960000 0.325000 9.057000 0
M  V30 26 C 29.003000 6.115000 7.123000 0
M  V30 27 C 27.186000 7.051000 8.616000 0
M  V30 28 H 29.691100 -1.334200 5.386400 0
M  V30 29 H 30.954400 -0.397300 4.947300 0
M  V30 30 H 26.036500 9.972400 8.008200 0
M  V30 31 H 32.679000 1.594900 5.633300 0
M  V30 32 H 26.255300 5.556200 10.737200 0
M  V30 33 H 25.925600 6.883700 11.629200 0
M  V30 34 H 24.768300 6.228700 10.681400 0
M  V30 35 H 28.300800 3.082000 13.160100 0
M  V30 36 H 27.700000 4.096700 12.030500 0
M  V30 37 H 26.750400 2.932000 12.669600 0
M  V30 38 H 31.328200 1.172100 8.167900 0
M  V30 39 H 32.206400 0.036900 7.389000 0
M  V30 40 H 28.137800 9.248900 6.075200 0
M  V30 41 H 26.580400 2.636700 9.809600 0
M  V30 42 H 29.880200 1.269300 12.190300 0
M  V30 43 H 27.264300 1.099400 7.987300 0
M  V30 44 H 30.553200 -0.246800 10.369700 0
M  V30 45 H 29.666200 7.394900 5.523900 0
M  V30 46 H 29.998200 -1.327100 8.336100 0
M  V30 47 H 28.603700 -1.046400 7.534100 0
M  V30 48 H 28.099000 5.130400 8.818200 0
M  V30 49 H 29.618400 0.776900 6.418600 0
M  V30 50 H 31.163600 -1.587900 6.045200 0
M  V30 END ATOM
M  V30 BEGIN BOND
M  V30 1 1 1 19
M  V30 2 1 1 20
M  V30 3 1 2 21
M  V30 4 1 3 4
M  V30 5 2 3 19
M  V30 6 2 4 20
M  V30 7 1 5 6
M  V30 8 2 5 22
M  V30 9 1 6 23
M  V30 10 1 7 10
M  V30 11 1 7 19
M  V30 12 1 8 22
M  V30 13 1 9 24
M  V30 14 1 10 21
M  V30 15 1 11 16
M  V30 16 2 11 23
M  V30 17 2 12 14
M  V30 18 1 12 24
M  V30 19 1 13 15
M  V30 20 2 13 24
M  V30 21 1 14 25
M  V30 22 2 15 25
M  V30 23 2 16 26
M  V30 24 1 17 21
M  V30 25 1 17 25
M  V30 26 1 18 26
M  V30 27 2 18 27
M  V30 28 1 20 26
M  V30 29 1 22 27
M  V30 30 1 23 27
M  V30 31 1 2 28
M  V30 32 1 2 29
M  V30 33 1 6 30
M  V30 34 1 7 31
M  V30 35 1 8 32
M  V30 36 1 8 33
M  V30 37 1 8 34
M  V30 38 1 9 35
M  V30 39 1 9 36
M  V30 40 1 9 37
M  V30 41 1 10 38
M  V30 42 1 10 39
M  V30 43 1 11 40
M  V30 44 1 12 41
M  V30 45 1 13 42
M  V30 46 1 14 43
M  V30 47 1 15 44
M  V30 48 1 16 45
M  V30 49 1 17 46
M  V30 50 1 17 47
M  V30 51 1 18 48
M  V30 52 1 21 49 CFG=3
M  V30 53 1 2 50
M  V30 END BOND
M  V30 END CTAB
M  END
>  <Ligand_Instance>  (195) 
3L9M_L9M_A_351

>  <Dataset>  (195) 
PDB

>  <PDB_ID>  (195) 
3L9M

>  <Chain>  (195) 
A

>  <Resi>  (195) 
351

>  <Num_Resolved_Atoms>  (195) 
27

>  <Num_H_Atoms_ProtBoundConf>  (195) 
23

>  <Pocket>  (195) 
A

>  <Name>  (195) 
(2S)-N~1~-[5-(3-methyl-1H-indazol-5-yl)-1,3,4-thiadiazol-2-yl]-3-(4-methylphenyl)propane-1,2-diamine

>  <Num_Not_Resolved_Atoms>  (195) 
0

>  <ATP_Site>  (195) 
True

>  <Peripheral>  (195) 
False

>  <Standardized_SMILES>  (195) 
[H]C1=C([H])C(C([H])([H])[C@@]([H])(C([H])([H])N([H])C2=NN=C(C3=C([H])C([H])=C4C(=C3[H])C(C([H])([H])[H])=NN4[H])S2)[N+]([H])([H])[H])=C([H])C([H])=C1C([H])([H])[H]

>  <2D_Mol_H>  (195) 
<rdkit.Chem.rdchem.Mol object at 0x77059d81cc80>

>  <MW>  (195) 
379.513

>  <HBA>  (195) 
5

>  <HBD>  (195) 
3

>  <LogP>  (195) 
2.96334

>  <NRB>  (195) 
9

>  <TPSA>  (195) 
94.13

>  <Num_Heavy_Atoms>  (195) 
27

>  <Ro5>  (195) 
[True, True, True, True, True, True]

>  <Ro5_Fulfilled>  (195) 
True

>  <Ro3>  (195) 
[False, False, True, True]

>  <Ro3_Fulfilled>  (195) 
False

>  <Fsp3>  (195) 
0.25

>  <Fsp3_0.42>  (195) 
False

>  <Fsp3_0.45>  (195) 
False

>  <Stereogenic_Carbons>  (195) 
1

>  <C_Atoms>  (195) 
20

>  <FCStereo>  (195) 
0.05

>  <SPS>  (195) 
335

>  <nSPS>  (195) 
12.407407

>  <PBF>  (195) 
0.844567

>  <PBF_0.6>  (195) 
True

>  <nPBF>  (195) 
0.03128

>  <nPBF_0.016>  (195) 
True

>  <PMI1>  (195) 
2008.460211

>  <PMI2>  (195) 
4361.932297

>  <PMI3>  (195) 
5934.352099

>  <NPR1>  (195) 
0.338446

>  <NPR2>  (195) 
0.735031

>  <Sum_NPR>  (195) 
1.073477

>  <Sum_NPR_1.07>  (195) 
True

>  <Sum_NPR_1.2>  (195) 
False

>  <MaxAbsEStateIndex>  (195) 
4.333926

>  <MaxEStateIndex>  (195) 
4.333926

>  <MinAbsEStateIndex>  (195) 
0.268506

>  <MinEStateIndex>  (195) 
0.268506

>  <qed>  (195) 
0.479985

>  <MolWt>  (195) 
379.513

>  <HeavyAtomMolWt>  (195) 
356.329

>  <ExactMolWt>  (195) 
379.169942

>  <NumValenceElectrons>  (195) 
138

>  <NumRadicalElectrons>  (195) 
0

>  <MaxPartialCharge>  (195) 
0.205726

>  <MinPartialCharge>  (195) 
-0.354093

>  <MaxAbsPartialCharge>  (195) 
0.354093

>  <MinAbsPartialCharge>  (195) 
0.205726

>  <FpDensityMorgan1>  (195) 
1.111111

>  <FpDensityMorgan2>  (195) 
1.925926

>  <FpDensityMorgan3>  (195) 
2.740741

>  <BCUT2D_MWHI>  (195) 
32.133584

>  <BCUT2D_MWLOW>  (195) 
10.052744

>  <BCUT2D_CHGHI>  (195) 
2.118006

>  <BCUT2D_CHGLO>  (195) 
-2.089205

>  <BCUT2D_LOGPHI>  (195) 
2.288734

>  <BCUT2D_LOGPLOW>  (195) 
-2.644274

>  <BCUT2D_MRHI>  (195) 
7.179963

>  <BCUT2D_MRLOW>  (195) 
-0.413932

>  <AvgIpc>  (195) 
3.28842

>  <BalabanJ>  (195) 
1.395211

>  <BertzCT>  (195) 
1049.972331

>  <Chi0>  (195) 
18.802754

>  <Chi0n>  (195) 
15.490012

>  <Chi0v>  (195) 
16.306508

>  <Chi1>  (195) 
13.08052

>  <Chi1n>  (195) 
8.993928

>  <Chi1v>  (195) 
9.810425

>  <Chi2n>  (195) 
6.918396

>  <Chi2v>  (195) 
7.895917

>  <Chi3n>  (195) 
4.612308

>  <Chi3v>  (195) 
5.542346

>  <Chi4n>  (195) 
3.051052

>  <Chi4v>  (195) 
3.797815

>  <HallKierAlpha>  (195) 
-2.77

>  <Ipc>  (195) 
2391509.907469

>  <Kappa1>  (195) 
17.634232

>  <Kappa2>  (195) 
7.459187

>  <Kappa3>  (195) 
3.989335

>  <LabuteASA>  (195) 
161.387094

>  <PEOE_VSA1>  (195) 
11.050456

>  <PEOE_VSA10>  (195) 
11.049465

>  <PEOE_VSA11>  (195) 
0.0

>  <PEOE_VSA12>  (195) 
5.131558

>  <PEOE_VSA13>  (195) 
0.0

>  <PEOE_VSA14>  (195) 
0.0

>  <PEOE_VSA2>  (195) 
5.098682

>  <PEOE_VSA3>  (195) 
0.0

>  <PEOE_VSA4>  (195) 
5.098682

>  <PEOE_VSA5>  (195) 
10.197364

>  <PEOE_VSA6>  (195) 
41.165706

>  <PEOE_VSA7>  (195) 
37.610027

>  <PEOE_VSA8>  (195) 
17.370497

>  <PEOE_VSA9>  (195) 
17.755385

>  <SMR_VSA1>  (195) 
5.733667

>  <SMR_VSA10>  (195) 
27.371269

>  <SMR_VSA2>  (195) 
0.0

>  <SMR_VSA3>  (195) 
20.394727

>  <SMR_VSA4>  (195) 
0.0

>  <SMR_VSA5>  (195) 
26.310137

>  <SMR_VSA6>  (195) 
11.861545

>  <SMR_VSA7>  (195) 
59.2854

>  <SMR_VSA8>  (195) 
0.0

>  <SMR_VSA9>  (195) 
10.571075

>  <SlogP_VSA1>  (195) 
11.050456

>  <SlogP_VSA10>  (195) 
5.131558

>  <SlogP_VSA11>  (195) 
0.0

>  <SlogP_VSA12>  (195) 
11.336786

>  <SlogP_VSA2>  (195) 
32.981324

>  <SlogP_VSA3>  (195) 
6.420822

>  <SlogP_VSA4>  (195) 
13.847474

>  <SlogP_VSA5>  (195) 
16.820831

>  <SlogP_VSA6>  (195) 
42.464569

>  <SlogP_VSA7>  (195) 
0.0

>  <SlogP_VSA8>  (195) 
21.474

>  <SlogP_VSA9>  (195) 
0.0

>  <EState_VSA1>  (195) 
0.0

>  <EState_VSA10>  (195) 
0.0

>  <EState_VSA11>  (195) 
0.0

>  <EState_VSA2>  (195) 
6.041841

>  <EState_VSA3>  (195) 
0.0

>  <EState_VSA4>  (195) 
45.265065

>  <EState_VSA5>  (195) 
11.126903

>  <EState_VSA6>  (195) 
11.336786

>  <EState_VSA7>  (195) 
19.056471

>  <EState_VSA8>  (195) 
68.700756

>  <EState_VSA9>  (195) 
0.0

>  <VSA_EState1>  (195) 
0.0

>  <VSA_EState10>  (195) 
1.561514

>  <VSA_EState2>  (195) 
0.0

>  <VSA_EState3>  (195) 
22.105488

>  <VSA_EState4>  (195) 
9.934121

>  <VSA_EState5>  (195) 
0.0

>  <VSA_EState6>  (195) 
15.091757

>  <VSA_EState7>  (195) 
0.939856

>  <VSA_EState8>  (195) 
4.867264

>  <VSA_EState9>  (195) 
0.0

>  <FractionCSP3>  (195) 
0.25

>  <HeavyAtomCount>  (195) 
27

>  <NHOHCount>  (195) 
5

>  <NOCount>  (195) 
6

>  <NumAliphaticCarbocycles>  (195) 
0

>  <NumAliphaticHeterocycles>  (195) 
0

>  <NumAliphaticRings>  (195) 
0

>  <NumAromaticCarbocycles>  (195) 
2

>  <NumAromaticHeterocycles>  (195) 
2

>  <NumAromaticRings>  (195) 
4

>  <NumHAcceptors>  (195) 
5

>  <NumHDonors>  (195) 
3

>  <NumHeteroatoms>  (195) 
7

>  <NumRotatableBonds>  (195) 
6

>  <NumSaturatedCarbocycles>  (195) 
0

>  <NumSaturatedHeterocycles>  (195) 
0

>  <NumSaturatedRings>  (195) 
0

>  <RingCount>  (195) 
4

>  <MolLogP>  (195) 
2.96334

>  <MolMR>  (195) 
109.7825

>  <fr_Al_COO>  (195) 
0

>  <fr_Al_OH>  (195) 
0

>  <fr_Al_OH_noTert>  (195) 
0

>  <fr_ArN>  (195) 
0

>  <fr_Ar_COO>  (195) 
0

>  <fr_Ar_N>  (195) 
4

>  <fr_Ar_NH>  (195) 
1

>  <fr_Ar_OH>  (195) 
0

>  <fr_COO>  (195) 
0

>  <fr_COO2>  (195) 
0

>  <fr_C_O>  (195) 
0

>  <fr_C_O_noCOO>  (195) 
0

>  <fr_C_S>  (195) 
0

>  <fr_HOCCN>  (195) 
0

>  <fr_Imine>  (195) 
0

>  <fr_NH0>  (195) 
3

>  <fr_NH1>  (195) 
2

>  <fr_NH2>  (195) 
0

>  <fr_N_O>  (195) 
0

>  <fr_Ndealkylation1>  (195) 
0

>  <fr_Ndealkylation2>  (195) 
0

>  <fr_Nhpyrrole>  (195) 
1

>  <fr_SH>  (195) 
0

>  <fr_aldehyde>  (195) 
0

>  <fr_alkyl_carbamate>  (195) 
0

>  <fr_alkyl_halide>  (195) 
0

>  <fr_allylic_oxid>  (195) 
0

>  <fr_amide>  (195) 
0

>  <fr_amidine>  (195) 
0

>  <fr_aniline>  (195) 
1

>  <fr_aryl_methyl>  (195) 
2

>  <fr_azide>  (195) 
0

>  <fr_azo>  (195) 
0

>  <fr_barbitur>  (195) 
0

>  <fr_benzene>  (195) 
2

>  <fr_benzodiazepine>  (195) 
0

>  <fr_bicyclic>  (195) 
1

>  <fr_diazo>  (195) 
0

>  <fr_dihydropyridine>  (195) 
0

>  <fr_epoxide>  (195) 
0

>  <fr_ester>  (195) 
0

>  <fr_ether>  (195) 
0

>  <fr_furan>  (195) 
0

>  <fr_guanido>  (195) 
0

>  <fr_halogen>  (195) 
0

>  <fr_hdrzine>  (195) 
0

>  <fr_hdrzone>  (195) 
0

>  <fr_imidazole>  (195) 
0

>  <fr_imide>  (195) 
0

>  <fr_isocyan>  (195) 
0

>  <fr_isothiocyan>  (195) 
0

>  <fr_ketone>  (195) 
0

>  <fr_ketone_Topliss>  (195) 
0

>  <fr_lactam>  (195) 
0

>  <fr_lactone>  (195) 
0

>  <fr_methoxy>  (195) 
0

>  <fr_morpholine>  (195) 
0

>  <fr_nitrile>  (195) 
0

>  <fr_nitro>  (195) 
0

>  <fr_nitro_arom>  (195) 
0

>  <fr_nitro_arom_nonortho>  (195) 
0

>  <fr_nitroso>  (195) 
0

>  <fr_oxazole>  (195) 
0

>  <fr_oxime>  (195) 
0

>  <fr_para_hydroxylation>  (195) 
0

>  <fr_phenol>  (195) 
0

>  <fr_phenol_noOrthoHbond>  (195) 
0

>  <fr_phos_acid>  (195) 
0

>  <fr_phos_ester>  (195) 
0

>  <fr_piperdine>  (195) 
0

>  <fr_piperzine>  (195) 
0

>  <fr_priamide>  (195) 
0

>  <fr_prisulfonamd>  (195) 
0

>  <fr_pyridine>  (195) 
0

>  <fr_quatN>  (195) 
1

>  <fr_sulfide>  (195) 
0

>  <fr_sulfonamd>  (195) 
0

>  <fr_sulfone>  (195) 
0

>  <fr_term_acetylene>  (195) 
0

>  <fr_tetrazole>  (195) 
0

>  <fr_thiazole>  (195) 
0

>  <fr_thiocyan>  (195) 
0

>  <fr_thiophene>  (195) 
0

>  <fr_unbrch_alkane>  (195) 
0

>  <fr_urea>  (195) 
0

>  <NP_Likeness>  (195) 
-1.616106

$$$$
L9M
     RDKit          3D

  0  0  0  0  0  0  0  0  0  0999 V3000
M  V30 BEGIN CTAB
M  V30 COUNTS 50 53 0 0 0
M  V30 BEGIN ATOM
M  V30 1 S 74.436000 94.625000 27.107000 0
M  V30 2 N 72.776000 99.052000 28.024000 0 CHG=1
M  V30 3 N 73.028000 94.148000 29.077000 0
M  V30 4 N 72.974000 93.081000 28.436000 0
M  V30 5 N 74.856000 89.551000 22.455000 0
M  V30 6 N 73.937000 89.035000 23.269000 0
M  V30 7 N 73.796000 96.495000 29.177000 0
M  V30 8 C 76.334000 91.558000 22.240000 0
M  V30 9 C 78.043000 95.122000 23.227000 0
M  V30 10 C 74.625000 97.446000 28.395000 0
M  V30 11 C 72.768000 89.731000 25.525000 0
M  V30 12 C 75.671000 96.167000 23.851000 0
M  V30 13 C 77.737000 97.109000 25.082000 0
M  V30 14 C 74.834000 97.077000 24.570000 0
M  V30 15 C 76.882000 98.013000 25.793000 0
M  V30 16 C 72.787000 90.826000 26.478000 0
M  V30 17 C 74.560000 98.898000 26.292000 0
M  V30 18 C 74.557000 92.055000 25.099000 0
M  V30 19 C 73.700000 95.203000 28.591000 0
M  V30 20 C 73.631000 93.060000 27.264000 0
M  V30 21 C 73.747000 98.141000 27.349000 0 CFG=2
M  V30 22 C 75.300000 90.732000 22.889000 0
M  V30 23 C 73.658000 89.827000 24.360000 0
M  V30 24 C 77.088000 96.219000 24.135000 0
M  V30 25 C 75.465000 97.960000 25.511000 0
M  V30 26 C 73.664000 91.968000 26.270000 0
M  V30 27 C 74.568000 90.980000 24.120000 0
M  V30 28 H 72.206900 99.501700 27.335600 0
M  V30 29 H 72.195400 98.521600 28.641800 0
M  V30 30 H 73.491500 88.155200 23.103400 0
M  V30 31 H 73.346800 96.740100 30.036100 0
M  V30 32 H 76.476500 92.392600 22.772200 0
M  V30 33 H 77.190000 91.043300 22.191600 0
M  V30 34 H 76.037000 91.798500 21.315900 0
M  V30 35 H 79.003800 95.224200 23.484600 0
M  V30 36 H 77.745200 94.186100 23.415100 0
M  V30 37 H 77.936900 95.315900 22.251700 0
M  V30 38 H 75.361100 96.948400 27.936000 0
M  V30 39 H 75.017800 98.130300 29.009400 0
M  V30 40 H 72.170700 88.939900 25.656800 0
M  V30 41 H 75.294100 95.525000 23.183300 0
M  V30 42 H 78.725900 97.091800 25.229700 0
M  V30 43 H 73.845100 97.097800 24.422900 0
M  V30 44 H 77.252700 98.658200 26.461100 0
M  V30 45 H 72.193600 90.795100 27.282300 0
M  V30 46 H 75.122300 99.588400 26.747100 0
M  V30 47 H 73.930700 99.346200 25.657200 0
M  V30 48 H 75.152100 92.849700 24.979100 0
M  V30 49 H 73.220800 97.433600 26.877000 0
M  V30 50 H 73.275200 99.742900 28.546800 0
M  V30 END ATOM
M  V30 BEGIN BOND
M  V30 1 1 1 19
M  V30 2 1 1 20
M  V30 3 1 2 21
M  V30 4 1 3 4
M  V30 5 2 3 19
M  V30 6 2 4 20
M  V30 7 1 5 6
M  V30 8 2 5 22
M  V30 9 1 6 23
M  V30 10 1 7 10
M  V30 11 1 7 19
M  V30 12 1 8 22
M  V30 13 1 9 24
M  V30 14 1 10 21
M  V30 15 1 11 16
M  V30 16 2 11 23
M  V30 17 2 12 14
M  V30 18 1 12 24
M  V30 19 1 13 15
M  V30 20 2 13 24
M  V30 21 1 14 25
M  V30 22 2 15 25
M  V30 23 2 16 26
M  V30 24 1 17 21
M  V30 25 1 17 25
M  V30 26 1 18 26
M  V30 27 2 18 27
M  V30 28 1 20 26
M  V30 29 1 22 27
M  V30 30 1 23 27
M  V30 31 1 2 28
M  V30 32 1 2 29
M  V30 33 1 6 30
M  V30 34 1 7 31
M  V30 35 1 8 32
M  V30 36 1 8 33
M  V30 37 1 8 34
M  V30 38 1 9 35
M  V30 39 1 9 36
M  V30 40 1 9 37
M  V30 41 1 10 38
M  V30 42 1 10 39
M  V30 43 1 11 40
M  V30 44 1 12 41
M  V30 45 1 13 42
M  V30 46 1 14 43
M  V30 47 1 15 44
M  V30 48 1 16 45
M  V30 49 1 17 46
M  V30 50 1 17 47
M  V30 51 1 18 48
M  V30 52 1 21 49 CFG=3
M  V30 53 1 2 50
M  V30 END BOND
M  V30 END CTAB
M  END
>  <Ligand_Instance>  (196) 
3L9M_L9M_B_351

>  <Dataset>  (196) 
PDB

>  <PDB_ID>  (196) 
3L9M

>  <Chain>  (196) 
B

>  <Resi>  (196) 
351

>  <Num_Resolved_Atoms>  (196) 
27

>  <Num_H_Atoms_ProtBoundConf>  (196) 
23

>  <Pocket>  (196) 
A

>  <Name>  (196) 
(2S)-N~1~-[5-(3-methyl-1H-indazol-5-yl)-1,3,4-thiadiazol-2-yl]-3-(4-methylphenyl)propane-1,2-diamine

>  <Num_Not_Resolved_Atoms>  (196) 
0

>  <ATP_Site>  (196) 
True

>  <Peripheral>  (196) 
False

>  <Standardized_SMILES>  (196) 
[H]C1=C([H])C(C([H])([H])[C@@]([H])(C([H])([H])N([H])C2=NN=C(C3=C([H])C([H])=C4C(=C3[H])C(C([H])([H])[H])=NN4[H])S2)[N+]([H])([H])[H])=C([H])C([H])=C1C([H])([H])[H]

>  <2D_Mol_H>  (196) 
<rdkit.Chem.rdchem.Mol object at 0x77059d81cd60>

>  <MW>  (196) 
379.513

>  <HBA>  (196) 
5

>  <HBD>  (196) 
3

>  <LogP>  (196) 
2.96334

>  <NRB>  (196) 
9

>  <TPSA>  (196) 
94.13

>  <Num_Heavy_Atoms>  (196) 
27

>  <Ro5>  (196) 
[True, True, True, True, True, True]

>  <Ro5_Fulfilled>  (196) 
True

>  <Ro3>  (196) 
[False, False, True, True]

>  <Ro3_Fulfilled>  (196) 
False

>  <Fsp3>  (196) 
0.25

>  <Fsp3_0.42>  (196) 
False

>  <Fsp3_0.45>  (196) 
False

>  <Stereogenic_Carbons>  (196) 
1

>  <C_Atoms>  (196) 
20

>  <FCStereo>  (196) 
0.05

>  <SPS>  (196) 
335

>  <nSPS>  (196) 
12.407407

>  <PBF>  (196) 
0.811503

>  <PBF_0.6>  (196) 
True

>  <nPBF>  (196) 
0.030056

>  <nPBF_0.016>  (196) 
True

>  <PMI1>  (196) 
2004.680192

>  <PMI2>  (196) 
4443.717213

>  <PMI3>  (196) 
6038.290176

>  <NPR1>  (196) 
0.331995

>  <NPR2>  (196) 
0.735923

>  <Sum_NPR>  (196) 
1.067918

>  <Sum_NPR_1.07>  (196) 
False

>  <Sum_NPR_1.2>  (196) 
False

>  <MaxAbsEStateIndex>  (196) 
4.333926

>  <MaxEStateIndex>  (196) 
4.333926

>  <MinAbsEStateIndex>  (196) 
0.268506

>  <MinEStateIndex>  (196) 
0.268506

>  <qed>  (196) 
0.479985

>  <MolWt>  (196) 
379.513

>  <HeavyAtomMolWt>  (196) 
356.329

>  <ExactMolWt>  (196) 
379.169942

>  <NumValenceElectrons>  (196) 
138

>  <NumRadicalElectrons>  (196) 
0

>  <MaxPartialCharge>  (196) 
0.205726

>  <MinPartialCharge>  (196) 
-0.354093

>  <MaxAbsPartialCharge>  (196) 
0.354093

>  <MinAbsPartialCharge>  (196) 
0.205726

>  <FpDensityMorgan1>  (196) 
1.111111

>  <FpDensityMorgan2>  (196) 
1.925926

>  <FpDensityMorgan3>  (196) 
2.740741

>  <BCUT2D_MWHI>  (196) 
32.133584

>  <BCUT2D_MWLOW>  (196) 
10.052744

>  <BCUT2D_CHGHI>  (196) 
2.118006

>  <BCUT2D_CHGLO>  (196) 
-2.089205

>  <BCUT2D_LOGPHI>  (196) 
2.288734

>  <BCUT2D_LOGPLOW>  (196) 
-2.644274

>  <BCUT2D_MRHI>  (196) 
7.179963

>  <BCUT2D_MRLOW>  (196) 
-0.413932

>  <AvgIpc>  (196) 
3.28842

>  <BalabanJ>  (196) 
1.395211

>  <BertzCT>  (196) 
1049.972331

>  <Chi0>  (196) 
18.802754

>  <Chi0n>  (196) 
15.490012

>  <Chi0v>  (196) 
16.306508

>  <Chi1>  (196) 
13.08052

>  <Chi1n>  (196) 
8.993928

>  <Chi1v>  (196) 
9.810425

>  <Chi2n>  (196) 
6.918396

>  <Chi2v>  (196) 
7.895917

>  <Chi3n>  (196) 
4.612308

>  <Chi3v>  (196) 
5.542346

>  <Chi4n>  (196) 
3.051052

>  <Chi4v>  (196) 
3.797815

>  <HallKierAlpha>  (196) 
-2.77

>  <Ipc>  (196) 
2391509.907469

>  <Kappa1>  (196) 
17.634232

>  <Kappa2>  (196) 
7.459187

>  <Kappa3>  (196) 
3.989335

>  <LabuteASA>  (196) 
161.387094

>  <PEOE_VSA1>  (196) 
11.050456

>  <PEOE_VSA10>  (196) 
11.049465

>  <PEOE_VSA11>  (196) 
0.0

>  <PEOE_VSA12>  (196) 
5.131558

>  <PEOE_VSA13>  (196) 
0.0

>  <PEOE_VSA14>  (196) 
0.0

>  <PEOE_VSA2>  (196) 
5.098682

>  <PEOE_VSA3>  (196) 
0.0

>  <PEOE_VSA4>  (196) 
5.098682

>  <PEOE_VSA5>  (196) 
10.197364

>  <PEOE_VSA6>  (196) 
41.165706

>  <PEOE_VSA7>  (196) 
37.610027

>  <PEOE_VSA8>  (196) 
17.370497

>  <PEOE_VSA9>  (196) 
17.755385

>  <SMR_VSA1>  (196) 
5.733667

>  <SMR_VSA10>  (196) 
27.371269

>  <SMR_VSA2>  (196) 
0.0

>  <SMR_VSA3>  (196) 
20.394727

>  <SMR_VSA4>  (196) 
0.0

>  <SMR_VSA5>  (196) 
26.310137

>  <SMR_VSA6>  (196) 
11.861545

>  <SMR_VSA7>  (196) 
59.2854

>  <SMR_VSA8>  (196) 
0.0

>  <SMR_VSA9>  (196) 
10.571075

>  <SlogP_VSA1>  (196) 
11.050456

>  <SlogP_VSA10>  (196) 
5.131558

>  <SlogP_VSA11>  (196) 
0.0

>  <SlogP_VSA12>  (196) 
11.336786

>  <SlogP_VSA2>  (196) 
32.981324

>  <SlogP_VSA3>  (196) 
6.420822

>  <SlogP_VSA4>  (196) 
13.847474

>  <SlogP_VSA5>  (196) 
16.820831

>  <SlogP_VSA6>  (196) 
42.464569

>  <SlogP_VSA7>  (196) 
0.0

>  <SlogP_VSA8>  (196) 
21.474

>  <SlogP_VSA9>  (196) 
0.0

>  <EState_VSA1>  (196) 
0.0

>  <EState_VSA10>  (196) 
0.0

>  <EState_VSA11>  (196) 
0.0

>  <EState_VSA2>  (196) 
6.041841

>  <EState_VSA3>  (196) 
0.0

>  <EState_VSA4>  (196) 
45.265065

>  <EState_VSA5>  (196) 
11.126903

>  <EState_VSA6>  (196) 
11.336786

>  <EState_VSA7>  (196) 
19.056471

>  <EState_VSA8>  (196) 
68.700756

>  <EState_VSA9>  (196) 
0.0

>  <VSA_EState1>  (196) 
0.0

>  <VSA_EState10>  (196) 
1.561514

>  <VSA_EState2>  (196) 
0.0

>  <VSA_EState3>  (196) 
22.105488

>  <VSA_EState4>  (196) 
9.934121

>  <VSA_EState5>  (196) 
0.0

>  <VSA_EState6>  (196) 
15.091757

>  <VSA_EState7>  (196) 
0.939856

>  <VSA_EState8>  (196) 
4.867264

>  <VSA_EState9>  (196) 
0.0

>  <FractionCSP3>  (196) 
0.25

>  <HeavyAtomCount>  (196) 
27

>  <NHOHCount>  (196) 
5

>  <NOCount>  (196) 
6

>  <NumAliphaticCarbocycles>  (196) 
0

>  <NumAliphaticHeterocycles>  (196) 
0

>  <NumAliphaticRings>  (196) 
0

>  <NumAromaticCarbocycles>  (196) 
2

>  <NumAromaticHeterocycles>  (196) 
2

>  <NumAromaticRings>  (196) 
4

>  <NumHAcceptors>  (196) 
5

>  <NumHDonors>  (196) 
3

>  <NumHeteroatoms>  (196) 
7

>  <NumRotatableBonds>  (196) 
6

>  <NumSaturatedCarbocycles>  (196) 
0

>  <NumSaturatedHeterocycles>  (196) 
0

>  <NumSaturatedRings>  (196) 
0

>  <RingCount>  (196) 
4

>  <MolLogP>  (196) 
2.96334

>  <MolMR>  (196) 
109.7825

>  <fr_Al_COO>  (196) 
0

>  <fr_Al_OH>  (196) 
0

>  <fr_Al_OH_noTert>  (196) 
0

>  <fr_ArN>  (196) 
0

>  <fr_Ar_COO>  (196) 
0

>  <fr_Ar_N>  (196) 
4

>  <fr_Ar_NH>  (196) 
1

>  <fr_Ar_OH>  (196) 
0

>  <fr_COO>  (196) 
0

>  <fr_COO2>  (196) 
0

>  <fr_C_O>  (196) 
0

>  <fr_C_O_noCOO>  (196) 
0

>  <fr_C_S>  (196) 
0

>  <fr_HOCCN>  (196) 
0

>  <fr_Imine>  (196) 
0

>  <fr_NH0>  (196) 
3

>  <fr_NH1>  (196) 
2

>  <fr_NH2>  (196) 
0

>  <fr_N_O>  (196) 
0

>  <fr_Ndealkylation1>  (196) 
0

>  <fr_Ndealkylation2>  (196) 
0

>  <fr_Nhpyrrole>  (196) 
1

>  <fr_SH>  (196) 
0

>  <fr_aldehyde>  (196) 
0

>  <fr_alkyl_carbamate>  (196) 
0

>  <fr_alkyl_halide>  (196) 
0

>  <fr_allylic_oxid>  (196) 
0

>  <fr_amide>  (196) 
0

>  <fr_amidine>  (196) 
0

>  <fr_aniline>  (196) 
1

>  <fr_aryl_methyl>  (196) 
2

>  <fr_azide>  (196) 
0

>  <fr_azo>  (196) 
0

>  <fr_barbitur>  (196) 
0

>  <fr_benzene>  (196) 
2

>  <fr_benzodiazepine>  (196) 
0

>  <fr_bicyclic>  (196) 
1

>  <fr_diazo>  (196) 
0

>  <fr_dihydropyridine>  (196) 
0

>  <fr_epoxide>  (196) 
0

>  <fr_ester>  (196) 
0

>  <fr_ether>  (196) 
0

>  <fr_furan>  (196) 
0

>  <fr_guanido>  (196) 
0

>  <fr_halogen>  (196) 
0

>  <fr_hdrzine>  (196) 
0

>  <fr_hdrzone>  (196) 
0

>  <fr_imidazole>  (196) 
0

>  <fr_imide>  (196) 
0

>  <fr_isocyan>  (196) 
0

>  <fr_isothiocyan>  (196) 
0

>  <fr_ketone>  (196) 
0

>  <fr_ketone_Topliss>  (196) 
0

>  <fr_lactam>  (196) 
0

>  <fr_lactone>  (196) 
0

>  <fr_methoxy>  (196) 
0

>  <fr_morpholine>  (196) 
0

>  <fr_nitrile>  (196) 
0

>  <fr_nitro>  (196) 
0

>  <fr_nitro_arom>  (196) 
0

>  <fr_nitro_arom_nonortho>  (196) 
0

>  <fr_nitroso>  (196) 
0

>  <fr_oxazole>  (196) 
0

>  <fr_oxime>  (196) 
0

>  <fr_para_hydroxylation>  (196) 
0

>  <fr_phenol>  (196) 
0

>  <fr_phenol_noOrthoHbond>  (196) 
0

>  <fr_phos_acid>  (196) 
0

>  <fr_phos_ester>  (196) 
0

>  <fr_piperdine>  (196) 
0

>  <fr_piperzine>  (196) 
0

>  <fr_priamide>  (196) 
0

>  <fr_prisulfonamd>  (196) 
0

>  <fr_pyridine>  (196) 
0

>  <fr_quatN>  (196) 
1

>  <fr_sulfide>  (196) 
0

>  <fr_sulfonamd>  (196) 
0

>  <fr_sulfone>  (196) 
0

>  <fr_term_acetylene>  (196) 
0

>  <fr_tetrazole>  (196) 
0

>  <fr_thiazole>  (196) 
0

>  <fr_thiocyan>  (196) 
0

>  <fr_thiophene>  (196) 
0

>  <fr_unbrch_alkane>  (196) 
0

>  <fr_urea>  (196) 
0

>  <NP_Likeness>  (196) 
-1.616106

$$$$
L9N
     RDKit          3D

  0  0  0  0  0  0  0  0  0  0999 V3000
M  V30 BEGIN CTAB
M  V30 COUNTS 47 50 0 0 0
M  V30 BEGIN ATOM
M  V30 1 S 31.086000 17.654000 58.940000 0
M  V30 2 N 29.600000 22.269000 58.568000 0 CHG=1
M  V30 3 N 34.785000 12.636000 55.932000 0
M  V30 4 N 28.684000 17.384000 59.300000 0
M  V30 5 N 33.541000 12.119000 55.861000 0
M  V30 6 N 28.993000 16.207000 58.698000 0
M  V30 7 N 29.430000 19.627000 60.175000 0
M  V30 8 C 36.180000 17.363000 59.012000 0
M  V30 9 C 34.646000 13.842000 56.568000 0
M  V30 10 C 30.460000 20.652000 60.192000 0
M  V30 11 C 31.083000 12.720000 56.552000 0
M  V30 12 C 34.257000 18.770000 57.556000 0
M  V30 13 C 34.813000 19.512000 59.951000 0
M  V30 14 C 33.285000 19.842000 57.466000 0
M  V30 15 C 33.851000 20.570000 59.856000 0
M  V30 16 C 30.358000 13.828000 57.229000 0
M  V30 17 C 32.045000 21.818000 58.533000 0
M  V30 18 C 32.520000 15.097000 57.544000 0
M  V30 19 C 29.628000 18.322000 59.540000 0
M  V30 20 C 30.339000 16.175000 58.413000 0
M  V30 21 C 30.636000 21.227000 58.769000 0 CFG=2
M  V30 22 C 32.525000 12.837000 56.386000 0
M  V30 23 C 34.985000 18.646000 58.807000 0
M  V30 24 C 33.104000 20.711000 58.618000 0
M  V30 25 C 31.055000 15.035000 57.738000 0
M  V30 26 C 33.265000 14.039000 56.886000 0
M  V30 27 H 29.692300 22.658400 57.651600 0
M  V30 28 H 28.692700 21.860400 58.666700 0
M  V30 29 H 33.376200 11.230700 55.432400 0
M  V30 30 H 28.552300 19.820000 60.613700 0
M  V30 31 H 36.581900 17.424700 59.925600 0
M  V30 32 H 35.736300 16.473600 58.902400 0
M  V30 33 H 36.898800 17.463900 58.324100 0
M  V30 34 H 35.387900 14.479500 56.775700 0
M  V30 35 H 31.323500 20.252100 60.499300 0
M  V30 36 H 30.191000 21.384800 60.817000 0
M  V30 37 H 30.592500 11.914700 56.219100 0
M  V30 38 H 34.418800 18.145000 56.792400 0
M  V30 39 H 35.349300 19.377000 60.784200 0
M  V30 40 H 32.751700 19.980600 56.631500 0
M  V30 41 H 33.698000 21.194700 60.621700 0
M  V30 42 H 29.367300 13.757200 57.345100 0
M  V30 43 H 32.233900 22.510200 59.229500 0
M  V30 44 H 32.079200 22.239100 57.626600 0
M  V30 45 H 33.016100 15.898100 57.878800 0
M  V30 46 H 30.482900 20.493100 58.107200 0
M  V30 47 H 29.716500 22.990900 59.250200 0
M  V30 END ATOM
M  V30 BEGIN BOND
M  V30 1 1 1 19
M  V30 2 1 1 20
M  V30 3 1 2 21
M  V30 4 1 3 5
M  V30 5 2 3 9
M  V30 6 1 4 6
M  V30 7 2 4 19
M  V30 8 1 5 22
M  V30 9 2 6 20
M  V30 10 1 7 10
M  V30 11 1 7 19
M  V30 12 1 8 23
M  V30 13 1 9 26
M  V30 14 1 10 21
M  V30 15 1 11 16
M  V30 16 2 11 22
M  V30 17 2 12 14
M  V30 18 1 12 23
M  V30 19 1 13 15
M  V30 20 2 13 23
M  V30 21 1 14 24
M  V30 22 2 15 24
M  V30 23 2 16 25
M  V30 24 1 17 21
M  V30 25 1 17 24
M  V30 26 1 18 25
M  V30 27 2 18 26
M  V30 28 1 20 25
M  V30 29 1 22 26
M  V30 30 1 2 27
M  V30 31 1 2 28
M  V30 32 1 5 29
M  V30 33 1 7 30
M  V30 34 1 8 31
M  V30 35 1 8 32
M  V30 36 1 8 33
M  V30 37 1 9 34
M  V30 38 1 10 35
M  V30 39 1 10 36
M  V30 40 1 11 37
M  V30 41 1 12 38
M  V30 42 1 13 39
M  V30 43 1 14 40
M  V30 44 1 15 41
M  V30 45 1 16 42
M  V30 46 1 17 43
M  V30 47 1 17 44
M  V30 48 1 18 45
M  V30 49 1 21 46 CFG=3
M  V30 50 1 2 47
M  V30 END BOND
M  V30 END CTAB
M  END
>  <Ligand_Instance>  (197) 
3L9N_L9N_A_351

>  <Dataset>  (197) 
PDB

>  <PDB_ID>  (197) 
3L9N

>  <Chain>  (197) 
A

>  <Resi>  (197) 
351

>  <Num_Resolved_Atoms>  (197) 
26

>  <Num_H_Atoms_ProtBoundConf>  (197) 
21

>  <Pocket>  (197) 
A

>  <Name>  (197) 
(2S)-N~1~-[5-(1H-indazol-5-yl)-1,3,4-thiadiazol-2-yl]-3-(4-methylphenyl)propane-1,2-diamine

>  <Num_Not_Resolved_Atoms>  (197) 
0

>  <ATP_Site>  (197) 
True

>  <Peripheral>  (197) 
False

>  <Standardized_SMILES>  (197) 
[H]C1=NN([H])C2=C([H])C([H])=C(C3=NN=C(N([H])C([H])([H])[C@]([H])(C([H])([H])C4=C([H])C([H])=C(C([H])([H])[H])C([H])=C4[H])[N+]([H])([H])[H])S3)C([H])=C12

>  <2D_Mol_H>  (197) 
<rdkit.Chem.rdchem.Mol object at 0x77059d81ce40>

>  <MW>  (197) 
365.486

>  <HBA>  (197) 
5

>  <HBD>  (197) 
3

>  <LogP>  (197) 
2.65492

>  <NRB>  (197) 
8

>  <TPSA>  (197) 
94.13

>  <Num_Heavy_Atoms>  (197) 
26

>  <Ro5>  (197) 
[True, True, True, True, True, True]

>  <Ro5_Fulfilled>  (197) 
True

>  <Ro3>  (197) 
[False, False, True, True]

>  <Ro3_Fulfilled>  (197) 
False

>  <Fsp3>  (197) 
0.210526

>  <Fsp3_0.42>  (197) 
False

>  <Fsp3_0.45>  (197) 
False

>  <Stereogenic_Carbons>  (197) 
1

>  <C_Atoms>  (197) 
19

>  <FCStereo>  (197) 
0.052632

>  <SPS>  (197) 
322

>  <nSPS>  (197) 
12.384615

>  <PBF>  (197) 
0.86645

>  <PBF_0.6>  (197) 
True

>  <nPBF>  (197) 
0.033325

>  <nPBF_0.016>  (197) 
True

>  <PMI1>  (197) 
1756.500453

>  <PMI2>  (197) 
4191.986334

>  <PMI3>  (197) 
5513.888755

>  <NPR1>  (197) 
0.318559

>  <NPR2>  (197) 
0.76026

>  <Sum_NPR>  (197) 
1.078819

>  <Sum_NPR_1.07>  (197) 
True

>  <Sum_NPR_1.2>  (197) 
False

>  <MaxAbsEStateIndex>  (197) 
4.304258

>  <MaxEStateIndex>  (197) 
4.304258

>  <MinAbsEStateIndex>  (197) 
0.270682

>  <MinEStateIndex>  (197) 
0.270682

>  <qed>  (197) 
0.489529

>  <MolWt>  (197) 
365.486

>  <HeavyAtomMolWt>  (197) 
344.318

>  <ExactMolWt>  (197) 
365.154292

>  <NumValenceElectrons>  (197) 
132

>  <NumRadicalElectrons>  (197) 
0

>  <MaxPartialCharge>  (197) 
0.205726

>  <MinPartialCharge>  (197) 
-0.354093

>  <MaxAbsPartialCharge>  (197) 
0.354093

>  <MinAbsPartialCharge>  (197) 
0.205726

>  <FpDensityMorgan1>  (197) 
1.153846

>  <FpDensityMorgan2>  (197) 
2.0

>  <FpDensityMorgan3>  (197) 
2.846154

>  <BCUT2D_MWHI>  (197) 
32.133584

>  <BCUT2D_MWLOW>  (197) 
10.052744

>  <BCUT2D_CHGHI>  (197) 
2.111778

>  <BCUT2D_CHGLO>  (197) 
-2.089165

>  <BCUT2D_LOGPHI>  (197) 
2.279047

>  <BCUT2D_LOGPLOW>  (197) 
-2.644274

>  <BCUT2D_MRHI>  (197) 
7.179957

>  <BCUT2D_MRLOW>  (197) 
-0.413932

>  <AvgIpc>  (197) 
3.301325

>  <BalabanJ>  (197) 
1.374212

>  <BertzCT>  (197) 
1004.236451

>  <Chi0>  (197) 
17.932511

>  <Chi0n>  (197) 
14.567362

>  <Chi0v>  (197) 
15.383858

>  <Chi1>  (197) 
12.669836

>  <Chi1n>  (197) 
8.567195

>  <Chi1v>  (197) 
9.383692

>  <Chi2n>  (197) 
6.521048

>  <Chi2v>  (197) 
7.498569

>  <Chi3n>  (197) 
4.299095

>  <Chi3v>  (197) 
5.229133

>  <Chi4n>  (197) 
2.848379

>  <Chi4v>  (197) 
3.595141

>  <HallKierAlpha>  (197) 
-2.77

>  <Ipc>  (197) 
1652544.088058

>  <Kappa1>  (197) 
16.685205

>  <Kappa2>  (197) 
7.228586

>  <Kappa3>  (197) 
3.735143

>  <LabuteASA>  (197) 
155.022152

>  <PEOE_VSA1>  (197) 
11.050456

>  <PEOE_VSA10>  (197) 
11.049465

>  <PEOE_VSA11>  (197) 
0.0

>  <PEOE_VSA12>  (197) 
5.131558

>  <PEOE_VSA13>  (197) 
0.0

>  <PEOE_VSA14>  (197) 
0.0

>  <PEOE_VSA2>  (197) 
5.098682

>  <PEOE_VSA3>  (197) 
0.0

>  <PEOE_VSA4>  (197) 
5.098682

>  <PEOE_VSA5>  (197) 
10.197364

>  <PEOE_VSA6>  (197) 
41.165706

>  <PEOE_VSA7>  (197) 
30.68629

>  <PEOE_VSA8>  (197) 
17.370497

>  <PEOE_VSA9>  (197) 
18.258301

>  <SMR_VSA1>  (197) 
5.733667

>  <SMR_VSA10>  (197) 
27.371269

>  <SMR_VSA2>  (197) 
0.0

>  <SMR_VSA3>  (197) 
20.394727

>  <SMR_VSA4>  (197) 
0.0

>  <SMR_VSA5>  (197) 
19.3864

>  <SMR_VSA6>  (197) 
11.861545

>  <SMR_VSA7>  (197) 
59.788316

>  <SMR_VSA8>  (197) 
0.0

>  <SMR_VSA9>  (197) 
10.571075

>  <SlogP_VSA1>  (197) 
11.050456

>  <SlogP_VSA10>  (197) 
5.131558

>  <SlogP_VSA11>  (197) 
0.0

>  <SlogP_VSA12>  (197) 
11.336786

>  <SlogP_VSA2>  (197) 
32.981324

>  <SlogP_VSA3>  (197) 
6.420822

>  <SlogP_VSA4>  (197) 
6.923737

>  <SlogP_VSA5>  (197) 
11.126903

>  <SlogP_VSA6>  (197) 
48.661413

>  <SlogP_VSA7>  (197) 
0.0

>  <SlogP_VSA8>  (197) 
21.474

>  <SlogP_VSA9>  (197) 
0.0

>  <EState_VSA1>  (197) 
0.0

>  <EState_VSA10>  (197) 
0.0

>  <EState_VSA11>  (197) 
0.0

>  <EState_VSA2>  (197) 
6.041841

>  <EState_VSA3>  (197) 
0.0

>  <EState_VSA4>  (197) 
39.571137

>  <EState_VSA5>  (197) 
11.126903

>  <EState_VSA6>  (197) 
11.336786

>  <EState_VSA7>  (197) 
18.329578

>  <EState_VSA8>  (197) 
68.700756

>  <EState_VSA9>  (197) 
0.0

>  <VSA_EState1>  (197) 
0.0

>  <VSA_EState10>  (197) 
1.555656

>  <VSA_EState2>  (197) 
0.0

>  <VSA_EState3>  (197) 
21.727315

>  <VSA_EState4>  (197) 
8.90879

>  <VSA_EState5>  (197) 
0.0

>  <VSA_EState6>  (197) 
15.015384

>  <VSA_EState7>  (197) 
2.757492

>  <VSA_EState8>  (197) 
2.868696

>  <VSA_EState9>  (197) 
0.0

>  <FractionCSP3>  (197) 
0.210526

>  <HeavyAtomCount>  (197) 
26

>  <NHOHCount>  (197) 
5

>  <NOCount>  (197) 
6

>  <NumAliphaticCarbocycles>  (197) 
0

>  <NumAliphaticHeterocycles>  (197) 
0

>  <NumAliphaticRings>  (197) 
0

>  <NumAromaticCarbocycles>  (197) 
2

>  <NumAromaticHeterocycles>  (197) 
2

>  <NumAromaticRings>  (197) 
4

>  <NumHAcceptors>  (197) 
5

>  <NumHDonors>  (197) 
3

>  <NumHeteroatoms>  (197) 
7

>  <NumRotatableBonds>  (197) 
6

>  <NumSaturatedCarbocycles>  (197) 
0

>  <NumSaturatedHeterocycles>  (197) 
0

>  <NumSaturatedRings>  (197) 
0

>  <RingCount>  (197) 
4

>  <MolLogP>  (197) 
2.65492

>  <MolMR>  (197) 
105.0455

>  <fr_Al_COO>  (197) 
0

>  <fr_Al_OH>  (197) 
0

>  <fr_Al_OH_noTert>  (197) 
0

>  <fr_ArN>  (197) 
0

>  <fr_Ar_COO>  (197) 
0

>  <fr_Ar_N>  (197) 
4

>  <fr_Ar_NH>  (197) 
1

>  <fr_Ar_OH>  (197) 
0

>  <fr_COO>  (197) 
0

>  <fr_COO2>  (197) 
0

>  <fr_C_O>  (197) 
0

>  <fr_C_O_noCOO>  (197) 
0

>  <fr_C_S>  (197) 
0

>  <fr_HOCCN>  (197) 
0

>  <fr_Imine>  (197) 
0

>  <fr_NH0>  (197) 
3

>  <fr_NH1>  (197) 
2

>  <fr_NH2>  (197) 
0

>  <fr_N_O>  (197) 
0

>  <fr_Ndealkylation1>  (197) 
0

>  <fr_Ndealkylation2>  (197) 
0

>  <fr_Nhpyrrole>  (197) 
1

>  <fr_SH>  (197) 
0

>  <fr_aldehyde>  (197) 
0

>  <fr_alkyl_carbamate>  (197) 
0

>  <fr_alkyl_halide>  (197) 
0

>  <fr_allylic_oxid>  (197) 
0

>  <fr_amide>  (197) 
0

>  <fr_amidine>  (197) 
0

>  <fr_aniline>  (197) 
1

>  <fr_aryl_methyl>  (197) 
1

>  <fr_azide>  (197) 
0

>  <fr_azo>  (197) 
0

>  <fr_barbitur>  (197) 
0

>  <fr_benzene>  (197) 
2

>  <fr_benzodiazepine>  (197) 
0

>  <fr_bicyclic>  (197) 
1

>  <fr_diazo>  (197) 
0

>  <fr_dihydropyridine>  (197) 
0

>  <fr_epoxide>  (197) 
0

>  <fr_ester>  (197) 
0

>  <fr_ether>  (197) 
0

>  <fr_furan>  (197) 
0

>  <fr_guanido>  (197) 
0

>  <fr_halogen>  (197) 
0

>  <fr_hdrzine>  (197) 
0

>  <fr_hdrzone>  (197) 
0

>  <fr_imidazole>  (197) 
0

>  <fr_imide>  (197) 
0

>  <fr_isocyan>  (197) 
0

>  <fr_isothiocyan>  (197) 
0

>  <fr_ketone>  (197) 
0

>  <fr_ketone_Topliss>  (197) 
0

>  <fr_lactam>  (197) 
0

>  <fr_lactone>  (197) 
0

>  <fr_methoxy>  (197) 
0

>  <fr_morpholine>  (197) 
0

>  <fr_nitrile>  (197) 
0

>  <fr_nitro>  (197) 
0

>  <fr_nitro_arom>  (197) 
0

>  <fr_nitro_arom_nonortho>  (197) 
0

>  <fr_nitroso>  (197) 
0

>  <fr_oxazole>  (197) 
0

>  <fr_oxime>  (197) 
0

>  <fr_para_hydroxylation>  (197) 
0

>  <fr_phenol>  (197) 
0

>  <fr_phenol_noOrthoHbond>  (197) 
0

>  <fr_phos_acid>  (197) 
0

>  <fr_phos_ester>  (197) 
0

>  <fr_piperdine>  (197) 
0

>  <fr_piperzine>  (197) 
0

>  <fr_priamide>  (197) 
0

>  <fr_prisulfonamd>  (197) 
0

>  <fr_pyridine>  (197) 
0

>  <fr_quatN>  (197) 
1

>  <fr_sulfide>  (197) 
0

>  <fr_sulfonamd>  (197) 
0

>  <fr_sulfone>  (197) 
0

>  <fr_term_acetylene>  (197) 
0

>  <fr_tetrazole>  (197) 
0

>  <fr_thiazole>  (197) 
0

>  <fr_thiocyan>  (197) 
0

>  <fr_thiophene>  (197) 
0

>  <fr_unbrch_alkane>  (197) 
0

>  <fr_urea>  (197) 
0

>  <NP_Likeness>  (197) 
-1.739819

$$$$
LL1
     RDKit          3D

  0  0  0  0  0  0  0  0  0  0999 V3000
M  V30 BEGIN CTAB
M  V30 COUNTS 24 26 0 0 0
M  V30 BEGIN ATOM
M  V30 1 N 2.907000 10.209000 4.003000 0
M  V30 2 N 8.675000 9.922000 1.452000 0
M  V30 3 N 7.423000 9.851000 1.607000 0
M  V30 4 C 3.209000 10.258000 2.686000 0
M  V30 5 C 3.795000 10.112000 5.001000 0
M  V30 6 C 10.884000 10.975000 4.363000 0
M  V30 7 C 9.832000 11.148000 5.300000 0
M  V30 8 C 4.577000 10.269000 2.332000 0
M  V30 9 C 5.203000 10.099000 4.669000 0
M  V30 10 C 10.577000 10.505000 3.031000 0
M  V30 11 C 8.490000 10.906000 4.898000 0
M  V30 12 C 9.246000 10.278000 2.640000 0
M  V30 13 C 5.603000 10.185000 3.295000 0
M  V30 14 C 6.989000 10.156000 2.855000 0
M  V30 15 C 8.177000 10.453000 3.588000 0
M  V30 16 H 9.166900 9.746300 0.599200 0
M  V30 17 H 2.492000 10.285400 1.989400 0
M  V30 18 H 3.492200 10.050100 5.952000 0
M  V30 19 H 11.828700 11.176400 4.621900 0
M  V30 20 H 10.033200 11.437900 6.235700 0
M  V30 21 H 4.825600 10.338700 1.365900 0
M  V30 22 H 5.891100 10.030600 5.391400 0
M  V30 23 H 11.318900 10.339700 2.381200 0
M  V30 24 H 7.749200 11.058100 5.552200 0
M  V30 END ATOM
M  V30 BEGIN BOND
M  V30 1 2 1 4
M  V30 2 1 1 5
M  V30 3 1 2 3
M  V30 4 1 2 12
M  V30 5 2 3 14
M  V30 6 1 4 8
M  V30 7 2 5 9
M  V30 8 2 6 7
M  V30 9 1 6 10
M  V30 10 1 7 11
M  V30 11 2 8 13
M  V30 12 1 9 13
M  V30 13 2 10 12
M  V30 14 2 11 15
M  V30 15 1 12 15
M  V30 16 1 13 14
M  V30 17 1 14 15
M  V30 18 1 2 16
M  V30 19 1 4 17
M  V30 20 1 5 18
M  V30 21 1 6 19
M  V30 22 1 7 20
M  V30 23 1 8 21
M  V30 24 1 9 22
M  V30 25 1 10 23
M  V30 26 1 11 24
M  V30 END BOND
M  V30 END CTAB
M  END
>  <Ligand_Instance>  (198) 
3DNE_LL1_A_351

>  <Dataset>  (198) 
PDB

>  <PDB_ID>  (198) 
3DNE

>  <Chain>  (198) 
A

>  <Resi>  (198) 
351

>  <Num_Resolved_Atoms>  (198) 
15

>  <Num_H_Atoms_ProtBoundConf>  (198) 
9

>  <Pocket>  (198) 
A

>  <Name>  (198) 
3-pyridin-4-yl-1H-indazole

>  <Num_Not_Resolved_Atoms>  (198) 
0

>  <ATP_Site>  (198) 
True

>  <Peripheral>  (198) 
False

>  <Standardized_SMILES>  (198) 
[H]C1=NC([H])=C([H])C(C2=NN([H])C3=C([H])C([H])=C([H])C([H])=C23)=C1[H]

>  <2D_Mol_H>  (198) 
<rdkit.Chem.rdchem.Mol object at 0x77059d81cf20>

>  <MW>  (198) 
195.225

>  <HBA>  (198) 
2

>  <HBD>  (198) 
1

>  <LogP>  (198) 
2.6249

>  <NRB>  (198) 
1

>  <TPSA>  (198) 
41.57

>  <Num_Heavy_Atoms>  (198) 
15

>  <Ro5>  (198) 
[True, True, True, True, True, True]

>  <Ro5_Fulfilled>  (198) 
True

>  <Ro3>  (198) 
[True, True, True, True]

>  <Ro3_Fulfilled>  (198) 
True

>  <Fsp3>  (198) 
0.0

>  <Fsp3_0.42>  (198) 
False

>  <Fsp3_0.45>  (198) 
False

>  <Stereogenic_Carbons>  (198) 
0

>  <C_Atoms>  (198) 
12

>  <FCStereo>  (198) 
0.0

>  <SPS>  (198) 
160

>  <nSPS>  (198) 
10.666667

>  <PBF>  (198) 
0.252145

>  <PBF_0.6>  (198) 
False

>  <nPBF>  (198) 
0.01681

>  <nPBF_0.016>  (198) 
True

>  <PMI1>  (198) 
327.821996

>  <PMI2>  (198) 
1351.987432

>  <PMI3>  (198) 
1662.599275

>  <NPR1>  (198) 
0.197174

>  <NPR2>  (198) 
0.813177

>  <Sum_NPR>  (198) 
1.010351

>  <Sum_NPR_1.07>  (198) 
False

>  <Sum_NPR_1.2>  (198) 
False

>  <MaxAbsEStateIndex>  (198) 
4.312778

>  <MaxEStateIndex>  (198) 
4.312778

>  <MinAbsEStateIndex>  (198) 
0.97963

>  <MinEStateIndex>  (198) 
0.97963

>  <qed>  (198) 
0.648092

>  <MolWt>  (198) 
195.225

>  <HeavyAtomMolWt>  (198) 
186.153

>  <ExactMolWt>  (198) 
195.079647

>  <NumValenceElectrons>  (198) 
72

>  <NumRadicalElectrons>  (198) 
0

>  <MaxPartialCharge>  (198) 
0.100004

>  <MinPartialCharge>  (198) 
-0.2772

>  <MaxAbsPartialCharge>  (198) 
0.2772

>  <MinAbsPartialCharge>  (198) 
0.100004

>  <FpDensityMorgan1>  (198) 
0.933333

>  <FpDensityMorgan2>  (198) 
1.733333

>  <FpDensityMorgan3>  (198) 
2.6

>  <BCUT2D_MWHI>  (198) 
15.11294

>  <BCUT2D_MWLOW>  (198) 
10.104743

>  <BCUT2D_CHGHI>  (198) 
2.053715

>  <BCUT2D_CHGLO>  (198) 
-1.950147

>  <BCUT2D_LOGPHI>  (198) 
2.243177

>  <BCUT2D_LOGPLOW>  (198) 
-1.782619

>  <BCUT2D_MRHI>  (198) 
5.920313

>  <BCUT2D_MRLOW>  (198) 
1.121231

>  <AvgIpc>  (198) 
2.737427

>  <BalabanJ>  (198) 
2.283955

>  <BertzCT>  (198) 
583.884261

>  <Chi0>  (198) 
10.087576

>  <Chi0n>  (198) 
8.013229

>  <Chi0v>  (198) 
8.013229

>  <Chi1>  (198) 
7.44949

>  <Chi1n>  (198) 
4.784979

>  <Chi1v>  (198) 
4.784979

>  <Chi2n>  (198) 
3.353686

>  <Chi2v>  (198) 
3.353686

>  <Chi3n>  (198) 
2.4241

>  <Chi3v>  (198) 
2.4241

>  <Chi4n>  (198) 
1.693296

>  <Chi4v>  (198) 
1.693296

>  <HallKierAlpha>  (198) 
-2.16

>  <Ipc>  (198) 
7018.761652

>  <Kappa1>  (198) 
8.17336

>  <Kappa2>  (198) 
3.203427

>  <Kappa3>  (198) 
1.287491

>  <LabuteASA>  (198) 
86.787072

>  <PEOE_VSA1>  (198) 
0.0

>  <PEOE_VSA10>  (198) 
5.693928

>  <PEOE_VSA11>  (198) 
0.0

>  <PEOE_VSA12>  (198) 
0.0

>  <PEOE_VSA13>  (198) 
0.0

>  <PEOE_VSA14>  (198) 
0.0

>  <PEOE_VSA2>  (198) 
10.08266

>  <PEOE_VSA3>  (198) 
0.0

>  <PEOE_VSA4>  (198) 
5.098682

>  <PEOE_VSA5>  (198) 
0.0

>  <PEOE_VSA6>  (198) 
18.199101

>  <PEOE_VSA7>  (198) 
18.199101

>  <PEOE_VSA8>  (198) 
23.343363

>  <PEOE_VSA9>  (198) 
5.516701

>  <SMR_VSA1>  (198) 
0.0

>  <SMR_VSA10>  (198) 
10.902925

>  <SMR_VSA2>  (198) 
0.0

>  <SMR_VSA3>  (198) 
15.181342

>  <SMR_VSA4>  (198) 
0.0

>  <SMR_VSA5>  (198) 
0.0

>  <SMR_VSA6>  (198) 
0.0

>  <SMR_VSA7>  (198) 
48.79189

>  <SMR_VSA8>  (198) 
0.0

>  <SMR_VSA9>  (198) 
11.257379

>  <SlogP_VSA1>  (198) 
0.0

>  <SlogP_VSA10>  (198) 
0.0

>  <SlogP_VSA11>  (198) 
0.0

>  <SlogP_VSA12>  (198) 
0.0

>  <SlogP_VSA2>  (198) 
15.181342

>  <SlogP_VSA3>  (198) 
0.0

>  <SlogP_VSA4>  (198) 
0.0

>  <SlogP_VSA5>  (198) 
0.0

>  <SlogP_VSA6>  (198) 
48.79189

>  <SlogP_VSA7>  (198) 
0.0

>  <SlogP_VSA8>  (198) 
22.160304

>  <SlogP_VSA9>  (198) 
0.0

>  <EState_VSA1>  (198) 
0.0

>  <EState_VSA10>  (198) 
0.0

>  <EState_VSA11>  (198) 
0.0

>  <EState_VSA2>  (198) 
0.0

>  <EState_VSA3>  (198) 
0.0

>  <EState_VSA4>  (198) 
22.160304

>  <EState_VSA5>  (198) 
0.0

>  <EState_VSA6>  (198) 
12.393687

>  <EState_VSA7>  (198) 
30.331835

>  <EState_VSA8>  (198) 
21.247709

>  <EState_VSA9>  (198) 
0.0

>  <VSA_EState1>  (198) 
0.0

>  <VSA_EState10>  (198) 
0.0

>  <VSA_EState2>  (198) 
3.997345

>  <VSA_EState3>  (198) 
8.471324

>  <VSA_EState4>  (198) 
3.12478

>  <VSA_EState5>  (198) 
0.0

>  <VSA_EState6>  (198) 
12.02007

>  <VSA_EState7>  (198) 
3.553148

>  <VSA_EState8>  (198) 
0.0

>  <VSA_EState9>  (198) 
0.0

>  <FractionCSP3>  (198) 
0.0

>  <HeavyAtomCount>  (198) 
15

>  <NHOHCount>  (198) 
1

>  <NOCount>  (198) 
3

>  <NumAliphaticCarbocycles>  (198) 
0

>  <NumAliphaticHeterocycles>  (198) 
0

>  <NumAliphaticRings>  (198) 
0

>  <NumAromaticCarbocycles>  (198) 
1

>  <NumAromaticHeterocycles>  (198) 
2

>  <NumAromaticRings>  (198) 
3

>  <NumHAcceptors>  (198) 
2

>  <NumHDonors>  (198) 
1

>  <NumHeteroatoms>  (198) 
3

>  <NumRotatableBonds>  (198) 
1

>  <NumSaturatedCarbocycles>  (198) 
0

>  <NumSaturatedHeterocycles>  (198) 
0

>  <NumSaturatedRings>  (198) 
0

>  <RingCount>  (198) 
3

>  <MolLogP>  (198) 
2.6249

>  <MolMR>  (198) 
59.3247

>  <fr_Al_COO>  (198) 
0

>  <fr_Al_OH>  (198) 
0

>  <fr_Al_OH_noTert>  (198) 
0

>  <fr_ArN>  (198) 
0

>  <fr_Ar_COO>  (198) 
0

>  <fr_Ar_N>  (198) 
3

>  <fr_Ar_NH>  (198) 
1

>  <fr_Ar_OH>  (198) 
0

>  <fr_COO>  (198) 
0

>  <fr_COO2>  (198) 
0

>  <fr_C_O>  (198) 
0

>  <fr_C_O_noCOO>  (198) 
0

>  <fr_C_S>  (198) 
0

>  <fr_HOCCN>  (198) 
0

>  <fr_Imine>  (198) 
0

>  <fr_NH0>  (198) 
2

>  <fr_NH1>  (198) 
1

>  <fr_NH2>  (198) 
0

>  <fr_N_O>  (198) 
0

>  <fr_Ndealkylation1>  (198) 
0

>  <fr_Ndealkylation2>  (198) 
0

>  <fr_Nhpyrrole>  (198) 
1

>  <fr_SH>  (198) 
0

>  <fr_aldehyde>  (198) 
0

>  <fr_alkyl_carbamate>  (198) 
0

>  <fr_alkyl_halide>  (198) 
0

>  <fr_allylic_oxid>  (198) 
0

>  <fr_amide>  (198) 
0

>  <fr_amidine>  (198) 
0

>  <fr_aniline>  (198) 
0

>  <fr_aryl_methyl>  (198) 
0

>  <fr_azide>  (198) 
0

>  <fr_azo>  (198) 
0

>  <fr_barbitur>  (198) 
0

>  <fr_benzene>  (198) 
1

>  <fr_benzodiazepine>  (198) 
0

>  <fr_bicyclic>  (198) 
1

>  <fr_diazo>  (198) 
0

>  <fr_dihydropyridine>  (198) 
0

>  <fr_epoxide>  (198) 
0

>  <fr_ester>  (198) 
0

>  <fr_ether>  (198) 
0

>  <fr_furan>  (198) 
0

>  <fr_guanido>  (198) 
0

>  <fr_halogen>  (198) 
0

>  <fr_hdrzine>  (198) 
0

>  <fr_hdrzone>  (198) 
0

>  <fr_imidazole>  (198) 
0

>  <fr_imide>  (198) 
0

>  <fr_isocyan>  (198) 
0

>  <fr_isothiocyan>  (198) 
0

>  <fr_ketone>  (198) 
0

>  <fr_ketone_Topliss>  (198) 
0

>  <fr_lactam>  (198) 
0

>  <fr_lactone>  (198) 
0

>  <fr_methoxy>  (198) 
0

>  <fr_morpholine>  (198) 
0

>  <fr_nitrile>  (198) 
0

>  <fr_nitro>  (198) 
0

>  <fr_nitro_arom>  (198) 
0

>  <fr_nitro_arom_nonortho>  (198) 
0

>  <fr_nitroso>  (198) 
0

>  <fr_oxazole>  (198) 
0

>  <fr_oxime>  (198) 
0

>  <fr_para_hydroxylation>  (198) 
1

>  <fr_phenol>  (198) 
0

>  <fr_phenol_noOrthoHbond>  (198) 
0

>  <fr_phos_acid>  (198) 
0

>  <fr_phos_ester>  (198) 
0

>  <fr_piperdine>  (198) 
0

>  <fr_piperzine>  (198) 
0

>  <fr_priamide>  (198) 
0

>  <fr_prisulfonamd>  (198) 
0

>  <fr_pyridine>  (198) 
1

>  <fr_quatN>  (198) 
0

>  <fr_sulfide>  (198) 
0

>  <fr_sulfonamd>  (198) 
0

>  <fr_sulfone>  (198) 
0

>  <fr_term_acetylene>  (198) 
0

>  <fr_tetrazole>  (198) 
0

>  <fr_thiazole>  (198) 
0

>  <fr_thiocyan>  (198) 
0

>  <fr_thiophene>  (198) 
0

>  <fr_unbrch_alkane>  (198) 
0

>  <fr_urea>  (198) 
0

>  <NP_Likeness>  (198) 
-1.244296

$$$$
LL2
     RDKit          3D

  0  0  0  0  0  0  0  0  0  0999 V3000
M  V30 BEGIN CTAB
M  V30 COUNTS 23 24 0 0 0
M  V30 BEGIN ATOM
M  V30 1 S 5.885000 10.823000 3.145000 0
M  V30 2 N 3.297000 10.444000 2.410000 0
M  V30 3 N 3.972000 10.487000 4.748000 0
M  V30 4 C 10.144000 7.873000 3.096000 0
M  V30 5 C 9.668000 8.991000 2.390000 0
M  V30 6 C 9.837000 7.805000 4.464000 0
M  V30 7 C 5.143000 10.646000 5.471000 0
M  V30 8 C 8.910000 9.983000 3.043000 0
M  V30 9 C 9.087000 8.797000 5.139000 0
M  V30 10 C 7.784000 11.015000 5.123000 0
M  V30 11 C 4.189000 10.552000 3.397000 0
M  V30 12 C 6.295000 10.829000 4.747000 0
M  V30 13 C 8.613000 9.908000 4.423000 0
M  V30 14 H 2.332400 10.287700 2.622700 0
M  V30 15 H 3.593200 10.519300 1.457900 0
M  V30 16 H 10.677500 7.158000 2.644100 0
M  V30 17 H 9.869200 9.083300 1.414800 0
M  V30 18 H 10.164000 7.017700 4.986700 0
M  V30 19 H 5.148900 10.628300 6.470800 0
M  V30 20 H 8.572500 10.762400 2.515200 0
M  V30 21 H 8.896400 8.707700 6.116600 0
M  V30 22 H 7.892800 10.941300 6.114300 0
M  V30 23 H 8.098400 11.914300 4.819100 0
M  V30 END ATOM
M  V30 BEGIN BOND
M  V30 1 1 1 11
M  V30 2 1 1 12
M  V30 3 1 2 11
M  V30 4 1 3 7
M  V30 5 2 3 11
M  V30 6 2 4 5
M  V30 7 1 4 6
M  V30 8 1 5 8
M  V30 9 2 6 9
M  V30 10 2 7 12
M  V30 11 2 8 13
M  V30 12 1 9 13
M  V30 13 1 10 12
M  V30 14 1 10 13
M  V30 15 1 2 14
M  V30 16 1 2 15
M  V30 17 1 4 16
M  V30 18 1 5 17
M  V30 19 1 6 18
M  V30 20 1 7 19
M  V30 21 1 8 20
M  V30 22 1 9 21
M  V30 23 1 10 22
M  V30 24 1 10 23
M  V30 END BOND
M  V30 END CTAB
M  END
>  <Ligand_Instance>  (199) 
3DND_LL2_A_351

>  <Dataset>  (199) 
PDB

>  <PDB_ID>  (199) 
3DND

>  <Chain>  (199) 
A

>  <Resi>  (199) 
351

>  <Num_Resolved_Atoms>  (199) 
13

>  <Num_H_Atoms_ProtBoundConf>  (199) 
10

>  <Pocket>  (199) 
A

>  <Name>  (199) 
5-benzyl-1,3-thiazol-2-amine

>  <Num_Not_Resolved_Atoms>  (199) 
0

>  <ATP_Site>  (199) 
True

>  <Peripheral>  (199) 
False

>  <Standardized_SMILES>  (199) 
[H]C1=C(C([H])([H])C2=C([H])C([H])=C([H])C([H])=C2[H])SC(N([H])[H])=N1

>  <2D_Mol_H>  (199) 
<rdkit.Chem.rdchem.Mol object at 0x77059d81d000>

>  <MW>  (199) 
190.271

>  <HBA>  (199) 
3

>  <HBD>  (199) 
1

>  <LogP>  (199) 
2.3161

>  <NRB>  (199) 
3

>  <TPSA>  (199) 
38.91

>  <Num_Heavy_Atoms>  (199) 
13

>  <Ro5>  (199) 
[True, True, True, True, True, True]

>  <Ro5_Fulfilled>  (199) 
True

>  <Ro3>  (199) 
[True, True, True, True]

>  <Ro3_Fulfilled>  (199) 
True

>  <Fsp3>  (199) 
0.1

>  <Fsp3_0.42>  (199) 
False

>  <Fsp3_0.45>  (199) 
False

>  <Stereogenic_Carbons>  (199) 
0

>  <C_Atoms>  (199) 
10

>  <FCStereo>  (199) 
0.0

>  <SPS>  (199) 
132

>  <nSPS>  (199) 
10.153846

>  <PBF>  (199) 
0.797867

>  <PBF_0.6>  (199) 
True

>  <nPBF>  (199) 
0.061374

>  <nPBF_0.016>  (199) 
True

>  <PMI1>  (199) 
316.179541

>  <PMI2>  (199) 
1235.654297

>  <PMI3>  (199) 
1375.405777

>  <NPR1>  (199) 
0.229881

>  <NPR2>  (199) 
0.898393

>  <Sum_NPR>  (199) 
1.128273

>  <Sum_NPR_1.07>  (199) 
True

>  <Sum_NPR_1.2>  (199) 
False

>  <MaxAbsEStateIndex>  (199) 
5.539657

>  <MaxEStateIndex>  (199) 
5.539657

>  <MinAbsEStateIndex>  (199) 
0.644381

>  <MinEStateIndex>  (199) 
0.644381

>  <qed>  (199) 
0.788889

>  <MolWt>  (199) 
190.271

>  <HeavyAtomMolWt>  (199) 
180.191

>  <ExactMolWt>  (199) 
190.056469

>  <NumValenceElectrons>  (199) 
66

>  <NumRadicalElectrons>  (199) 
0

>  <MaxPartialCharge>  (199) 
0.17971

>  <MinPartialCharge>  (199) 
-0.37511

>  <MaxAbsPartialCharge>  (199) 
0.37511

>  <MinAbsPartialCharge>  (199) 
0.17971

>  <FpDensityMorgan1>  (199) 
1.230769

>  <FpDensityMorgan2>  (199) 
2.0

>  <FpDensityMorgan3>  (199) 
2.615385

>  <BCUT2D_MWHI>  (199) 
32.133576

>  <BCUT2D_MWLOW>  (199) 
10.139414

>  <BCUT2D_CHGHI>  (199) 
1.985953

>  <BCUT2D_CHGLO>  (199) 
-1.950473

>  <BCUT2D_LOGPHI>  (199) 
2.17436

>  <BCUT2D_LOGPLOW>  (199) 
-1.816815

>  <BCUT2D_MRHI>  (199) 
7.149011

>  <BCUT2D_MRLOW>  (199) 
1.218283

>  <AvgIpc>  (199) 
2.530684

>  <BalabanJ>  (199) 
2.152484

>  <BertzCT>  (199) 
380.833086

>  <Chi0>  (199) 
9.096012

>  <Chi0n>  (199) 
7.104021

>  <Chi0v>  (199) 
7.920517

>  <Chi1>  (199) 
6.343337

>  <Chi1n>  (199) 
4.085195

>  <Chi1v>  (199) 
4.901691

>  <Chi2n>  (199) 
2.827187

>  <Chi2v>  (199) 
3.973965

>  <Chi3n>  (199) 
1.792625

>  <Chi3v>  (199) 
2.619108

>  <Chi4n>  (199) 
1.201409

>  <Chi4v>  (199) 
1.919692

>  <HallKierAlpha>  (199) 
-1.35

>  <Ipc>  (199) 
1629.760421

>  <Kappa1>  (199) 
8.257415

>  <Kappa2>  (199) 
3.577468

>  <Kappa3>  (199) 
2.063748

>  <LabuteASA>  (199) 
81.053341

>  <PEOE_VSA1>  (199) 
5.733667

>  <PEOE_VSA10>  (199) 
0.0

>  <PEOE_VSA11>  (199) 
5.131558

>  <PEOE_VSA12>  (199) 
0.0

>  <PEOE_VSA13>  (199) 
0.0

>  <PEOE_VSA14>  (199) 
0.0

>  <PEOE_VSA2>  (199) 
0.0

>  <PEOE_VSA3>  (199) 
4.983979

>  <PEOE_VSA4>  (199) 
0.0

>  <PEOE_VSA5>  (199) 
11.336786

>  <PEOE_VSA6>  (199) 
30.331835

>  <PEOE_VSA7>  (199) 
5.563451

>  <PEOE_VSA8>  (199) 
17.494812

>  <PEOE_VSA9>  (199) 
0.0

>  <SMR_VSA1>  (199) 
0.0

>  <SMR_VSA10>  (199) 
16.468344

>  <SMR_VSA2>  (199) 
0.0

>  <SMR_VSA3>  (199) 
4.983979

>  <SMR_VSA4>  (199) 
0.0

>  <SMR_VSA5>  (199) 
6.420822

>  <SMR_VSA6>  (199) 
5.733667

>  <SMR_VSA7>  (199) 
46.969278

>  <SMR_VSA8>  (199) 
0.0

>  <SMR_VSA9>  (199) 
0.0

>  <SlogP_VSA1>  (199) 
5.733667

>  <SlogP_VSA10>  (199) 
5.131558

>  <SlogP_VSA11>  (199) 
0.0

>  <SlogP_VSA12>  (199) 
11.336786

>  <SlogP_VSA2>  (199) 
4.983979

>  <SlogP_VSA3>  (199) 
6.420822

>  <SlogP_VSA4>  (199) 
0.0

>  <SlogP_VSA5>  (199) 
10.440599

>  <SlogP_VSA6>  (199) 
36.528679

>  <SlogP_VSA7>  (199) 
0.0

>  <SlogP_VSA8>  (199) 
0.0

>  <SlogP_VSA9>  (199) 
0.0

>  <EState_VSA1>  (199) 
0.0

>  <EState_VSA10>  (199) 
0.0

>  <EState_VSA11>  (199) 
0.0

>  <EState_VSA2>  (199) 
0.0

>  <EState_VSA3>  (199) 
5.131558

>  <EState_VSA4>  (199) 
6.420822

>  <EState_VSA5>  (199) 
10.440599

>  <EState_VSA6>  (199) 
11.336786

>  <EState_VSA7>  (199) 
24.395945

>  <EState_VSA8>  (199) 
17.116713

>  <EState_VSA9>  (199) 
5.733667

>  <VSA_EState1>  (199) 
0.0

>  <VSA_EState10>  (199) 
1.549238

>  <VSA_EState2>  (199) 
5.220839

>  <VSA_EState3>  (199) 
0.644381

>  <VSA_EState4>  (199) 
6.837018

>  <VSA_EState5>  (199) 
0.0

>  <VSA_EState6>  (199) 
10.315283

>  <VSA_EState7>  (199) 
2.766574

>  <VSA_EState8>  (199) 
0.0

>  <VSA_EState9>  (199) 
0.0

>  <FractionCSP3>  (199) 
0.1

>  <HeavyAtomCount>  (199) 
13

>  <NHOHCount>  (199) 
2

>  <NOCount>  (199) 
2

>  <NumAliphaticCarbocycles>  (199) 
0

>  <NumAliphaticHeterocycles>  (199) 
0

>  <NumAliphaticRings>  (199) 
0

>  <NumAromaticCarbocycles>  (199) 
1

>  <NumAromaticHeterocycles>  (199) 
1

>  <NumAromaticRings>  (199) 
2

>  <NumHAcceptors>  (199) 
3

>  <NumHDonors>  (199) 
1

>  <NumHeteroatoms>  (199) 
3

>  <NumRotatableBonds>  (199) 
2

>  <NumSaturatedCarbocycles>  (199) 
0

>  <NumSaturatedHeterocycles>  (199) 
0

>  <NumSaturatedRings>  (199) 
0

>  <RingCount>  (199) 
2

>  <MolLogP>  (199) 
2.3161

>  <MolMR>  (199) 
55.7744

>  <fr_Al_COO>  (199) 
0

>  <fr_Al_OH>  (199) 
0

>  <fr_Al_OH_noTert>  (199) 
0

>  <fr_ArN>  (199) 
1

>  <fr_Ar_COO>  (199) 
0

>  <fr_Ar_N>  (199) 
1

>  <fr_Ar_NH>  (199) 
0

>  <fr_Ar_OH>  (199) 
0

>  <fr_COO>  (199) 
0

>  <fr_COO2>  (199) 
0

>  <fr_C_O>  (199) 
0

>  <fr_C_O_noCOO>  (199) 
0

>  <fr_C_S>  (199) 
0

>  <fr_HOCCN>  (199) 
0

>  <fr_Imine>  (199) 
0

>  <fr_NH0>  (199) 
1

>  <fr_NH1>  (199) 
0

>  <fr_NH2>  (199) 
1

>  <fr_N_O>  (199) 
0

>  <fr_Ndealkylation1>  (199) 
0

>  <fr_Ndealkylation2>  (199) 
0

>  <fr_Nhpyrrole>  (199) 
0

>  <fr_SH>  (199) 
0

>  <fr_aldehyde>  (199) 
0

>  <fr_alkyl_carbamate>  (199) 
0

>  <fr_alkyl_halide>  (199) 
0

>  <fr_allylic_oxid>  (199) 
0

>  <fr_amide>  (199) 
0

>  <fr_amidine>  (199) 
0

>  <fr_aniline>  (199) 
1

>  <fr_aryl_methyl>  (199) 
0

>  <fr_azide>  (199) 
0

>  <fr_azo>  (199) 
0

>  <fr_barbitur>  (199) 
0

>  <fr_benzene>  (199) 
1

>  <fr_benzodiazepine>  (199) 
0

>  <fr_bicyclic>  (199) 
0

>  <fr_diazo>  (199) 
0

>  <fr_dihydropyridine>  (199) 
0

>  <fr_epoxide>  (199) 
0

>  <fr_ester>  (199) 
0

>  <fr_ether>  (199) 
0

>  <fr_furan>  (199) 
0

>  <fr_guanido>  (199) 
0

>  <fr_halogen>  (199) 
0

>  <fr_hdrzine>  (199) 
0

>  <fr_hdrzone>  (199) 
0

>  <fr_imidazole>  (199) 
0

>  <fr_imide>  (199) 
0

>  <fr_isocyan>  (199) 
0

>  <fr_isothiocyan>  (199) 
0

>  <fr_ketone>  (199) 
0

>  <fr_ketone_Topliss>  (199) 
0

>  <fr_lactam>  (199) 
0

>  <fr_lactone>  (199) 
0

>  <fr_methoxy>  (199) 
0

>  <fr_morpholine>  (199) 
0

>  <fr_nitrile>  (199) 
0

>  <fr_nitro>  (199) 
0

>  <fr_nitro_arom>  (199) 
0

>  <fr_nitro_arom_nonortho>  (199) 
0

>  <fr_nitroso>  (199) 
0

>  <fr_oxazole>  (199) 
0

>  <fr_oxime>  (199) 
0

>  <fr_para_hydroxylation>  (199) 
0

>  <fr_phenol>  (199) 
0

>  <fr_phenol_noOrthoHbond>  (199) 
0

>  <fr_phos_acid>  (199) 
0

>  <fr_phos_ester>  (199) 
0

>  <fr_piperdine>  (199) 
0

>  <fr_piperzine>  (199) 
0

>  <fr_priamide>  (199) 
0

>  <fr_prisulfonamd>  (199) 
0

>  <fr_pyridine>  (199) 
0

>  <fr_quatN>  (199) 
0

>  <fr_sulfide>  (199) 
0

>  <fr_sulfonamd>  (199) 
0

>  <fr_sulfone>  (199) 
0

>  <fr_term_acetylene>  (199) 
0

>  <fr_tetrazole>  (199) 
0

>  <fr_thiazole>  (199) 
1

>  <fr_thiocyan>  (199) 
0

>  <fr_thiophene>  (199) 
0

>  <fr_unbrch_alkane>  (199) 
0

>  <fr_urea>  (199) 
0

>  <NP_Likeness>  (199) 
-1.257233

$$$$
LQ2
     RDKit          3D

  0  0  0  0  0  0  0  0  0  0999 V3000
M  V30 BEGIN CTAB
M  V30 COUNTS 18 18 0 0 0
M  V30 BEGIN ATOM
M  V30 1 O 10.083000 1.141000 18.085000 0
M  V30 2 O 9.699000 3.337000 18.134000 0 CHG=-1
M  V30 3 O 16.525000 2.374000 20.463000 0
M  V30 4 N 16.224000 4.587000 20.254000 0
M  V30 5 C 12.709000 1.520000 19.042000 0
M  V30 6 C 12.248000 3.873000 19.069000 0
M  V30 7 C 14.002000 1.768000 19.467000 0
M  V30 8 C 13.539000 4.120000 19.499000 0
M  V30 9 C 10.451000 2.291000 18.313000 0
M  V30 10 C 15.820000 3.324000 20.168000 0
M  V30 11 C 11.819000 2.571000 18.826000 0
M  V30 12 C 14.430000 3.073000 19.701000 0
M  V30 13 H 15.603800 5.328800 19.998800 0
M  V30 14 H 17.148200 4.795700 20.573900 0
M  V30 15 H 12.410100 0.578200 18.888300 0
M  V30 16 H 11.617000 4.636500 18.931400 0
M  V30 17 H 14.633600 1.005500 19.607200 0
M  V30 18 H 13.834000 5.060800 19.666100 0
M  V30 END ATOM
M  V30 BEGIN BOND
M  V30 1 2 1 9
M  V30 2 1 2 9
M  V30 3 2 3 10
M  V30 4 1 4 10
M  V30 5 2 5 7
M  V30 6 1 5 11
M  V30 7 1 6 8
M  V30 8 2 6 11
M  V30 9 1 7 12
M  V30 10 2 8 12
M  V30 11 1 9 11
M  V30 12 1 10 12
M  V30 13 1 8 18
M  V30 14 1 4 13
M  V30 15 1 4 14
M  V30 16 1 5 15
M  V30 17 1 6 16
M  V30 18 1 7 17
M  V30 END BOND
M  V30 END CTAB
M  END
>  <Ligand_Instance>  (200) 
6SOX_LQ2_A_401

>  <Dataset>  (200) 
PDB

>  <PDB_ID>  (200) 
6SOX

>  <Chain>  (200) 
A

>  <Resi>  (200) 
401

>  <Num_Resolved_Atoms>  (200) 
12

>  <Num_H_Atoms_ProtBoundConf>  (200) 
6

>  <Pocket>  (200) 
A

>  <Name>  (200) 
4-aminocarbonylbenzoic acid

>  <Num_Not_Resolved_Atoms>  (200) 
0

>  <ATP_Site>  (200) 
True

>  <Peripheral>  (200) 
False

>  <Standardized_SMILES>  (200) 
[H]C1=C([H])C(C(=O)N([H])[H])=C([H])C([H])=C1C(=O)[O-]

>  <2D_Mol_H>  (200) 
<rdkit.Chem.rdchem.Mol object at 0x77059d81d0e0>

>  <MW>  (200) 
164.14

>  <HBA>  (200) 
3

>  <HBD>  (200) 
1

>  <LogP>  (200) 
-0.851

>  <NRB>  (200) 
2

>  <TPSA>  (200) 
83.22

>  <Num_Heavy_Atoms>  (200) 
12

>  <Ro5>  (200) 
[True, True, True, True, True, True]

>  <Ro5_Fulfilled>  (200) 
True

>  <Ro3>  (200) 
[True, True, True, True]

>  <Ro3_Fulfilled>  (200) 
True

>  <Fsp3>  (200) 
0.0

>  <Fsp3_0.42>  (200) 
False

>  <Fsp3_0.45>  (200) 
False

>  <Stereogenic_Carbons>  (200) 
0

>  <C_Atoms>  (200) 
8

>  <FCStereo>  (200) 
0.0

>  <SPS>  (200) 
112

>  <nSPS>  (200) 
9.333333

>  <PBF>  (200) 
0.05394

>  <PBF_0.6>  (200) 
False

>  <nPBF>  (200) 
0.004495

>  <nPBF_0.016>  (200) 
False

>  <PMI1>  (200) 
169.158505

>  <PMI2>  (200) 
1059.527006

>  <PMI3>  (200) 
1227.645088

>  <NPR1>  (200) 
0.137791

>  <NPR2>  (200) 
0.863056

>  <Sum_NPR>  (200) 
1.000847

>  <Sum_NPR_1.07>  (200) 
False

>  <Sum_NPR_1.2>  (200) 
False

>  <MaxAbsEStateIndex>  (200) 
10.541251

>  <MaxEStateIndex>  (200) 
10.541251

>  <MinAbsEStateIndex>  (200) 
0.027778

>  <MinEStateIndex>  (200) 
-1.272203

>  <qed>  (200) 
0.617433

>  <MolWt>  (200) 
164.14

>  <HeavyAtomMolWt>  (200) 
158.092

>  <ExactMolWt>  (200) 
164.035317

>  <NumValenceElectrons>  (200) 
62

>  <NumRadicalElectrons>  (200) 
0

>  <MaxPartialCharge>  (200) 
0.248196

>  <MinPartialCharge>  (200) 
-0.544815

>  <MaxAbsPartialCharge>  (200) 
0.544815

>  <MinAbsPartialCharge>  (200) 
0.248196

>  <FpDensityMorgan1>  (200) 
1.083333

>  <FpDensityMorgan2>  (200) 
1.5

>  <FpDensityMorgan3>  (200) 
1.833333

>  <BCUT2D_MWHI>  (200) 
16.365561

>  <BCUT2D_MWLOW>  (200) 
10.129421

>  <BCUT2D_CHGHI>  (200) 
1.984891

>  <BCUT2D_CHGLO>  (200) 
-2.009069

>  <BCUT2D_LOGPHI>  (200) 
2.015786

>  <BCUT2D_LOGPLOW>  (200) 
-2.219311

>  <BCUT2D_MRHI>  (200) 
5.938725

>  <BCUT2D_MRLOW>  (200) 
-0.254558

>  <AvgIpc>  (200) 
2.042911

>  <BalabanJ>  (200) 
3.00615

>  <BertzCT>  (200) 
282.579787

>  <Chi0>  (200) 
9.137828

>  <Chi0n>  (200) 
6.111496

>  <Chi0v>  (200) 
6.111496

>  <Chi1>  (200) 
5.609061

>  <Chi1n>  (200) 
3.222415

>  <Chi1v>  (200) 
3.222415

>  <Chi2n>  (200) 
2.229059

>  <Chi2v>  (200) 
2.229059

>  <Chi3n>  (200) 
1.40512

>  <Chi3v>  (200) 
1.40512

>  <Chi4n>  (200) 
0.770577

>  <Chi4v>  (200) 
0.770577

>  <HallKierAlpha>  (200) 
-1.84

>  <Ipc>  (200) 
473.955341

>  <Kappa1>  (200) 
8.258425

>  <Kappa2>  (200) 
3.04193

>  <Kappa3>  (200) 
1.601893

>  <LabuteASA>  (200) 
68.618456

>  <PEOE_VSA1>  (200) 
15.634732

>  <PEOE_VSA10>  (200) 
0.0

>  <PEOE_VSA11>  (200) 
0.0

>  <PEOE_VSA12>  (200) 
5.90718

>  <PEOE_VSA13>  (200) 
0.0

>  <PEOE_VSA14>  (200) 
0.0

>  <PEOE_VSA2>  (200) 
4.794537

>  <PEOE_VSA3>  (200) 
0.0

>  <PEOE_VSA4>  (200) 
0.0

>  <PEOE_VSA5>  (200) 
0.0

>  <PEOE_VSA6>  (200) 
12.132734

>  <PEOE_VSA7>  (200) 
17.696186

>  <PEOE_VSA8>  (200) 
5.563451

>  <PEOE_VSA9>  (200) 
5.969305

>  <SMR_VSA1>  (200) 
14.695602

>  <SMR_VSA10>  (200) 
11.876485

>  <SMR_VSA2>  (200) 
0.0

>  <SMR_VSA3>  (200) 
0.0

>  <SMR_VSA4>  (200) 
5.733667

>  <SMR_VSA5>  (200) 
0.0

>  <SMR_VSA6>  (200) 
0.0

>  <SMR_VSA7>  (200) 
35.392371

>  <SMR_VSA8>  (200) 
0.0

>  <SMR_VSA9>  (200) 
0.0

>  <SlogP_VSA1>  (200) 
10.840195

>  <SlogP_VSA10>  (200) 
0.0

>  <SlogP_VSA11>  (200) 
0.0

>  <SlogP_VSA12>  (200) 
0.0

>  <SlogP_VSA2>  (200) 
11.876485

>  <SlogP_VSA3>  (200) 
0.0

>  <SlogP_VSA4>  (200) 
0.0

>  <SlogP_VSA5>  (200) 
20.715977

>  <SlogP_VSA6>  (200) 
24.265468

>  <SlogP_VSA7>  (200) 
0.0

>  <SlogP_VSA8>  (200) 
0.0

>  <SlogP_VSA9>  (200) 
0.0

>  <EState_VSA1>  (200) 
11.876485

>  <EState_VSA10>  (200) 
14.695602

>  <EState_VSA11>  (200) 
0.0

>  <EState_VSA2>  (200) 
11.126903

>  <EState_VSA3>  (200) 
0.0

>  <EState_VSA4>  (200) 
0.0

>  <EState_VSA5>  (200) 
24.265468

>  <EState_VSA6>  (200) 
0.0

>  <EState_VSA7>  (200) 
0.0

>  <EState_VSA8>  (200) 
0.0

>  <EState_VSA9>  (200) 
5.733667

>  <VSA_EState1>  (200) 
0.0

>  <VSA_EState10>  (200) 
0.0

>  <VSA_EState2>  (200) 
20.796044

>  <VSA_EState3>  (200) 
10.254793

>  <VSA_EState4>  (200) 
5.243499

>  <VSA_EState5>  (200) 
-1.855631

>  <VSA_EState6>  (200) 
5.227963

>  <VSA_EState7>  (200) 
0.0

>  <VSA_EState8>  (200) 
0.0

>  <VSA_EState9>  (200) 
0.0

>  <FractionCSP3>  (200) 
0.0

>  <HeavyAtomCount>  (200) 
12

>  <NHOHCount>  (200) 
2

>  <NOCount>  (200) 
4

>  <NumAliphaticCarbocycles>  (200) 
0

>  <NumAliphaticHeterocycles>  (200) 
0

>  <NumAliphaticRings>  (200) 
0

>  <NumAromaticCarbocycles>  (200) 
1

>  <NumAromaticHeterocycles>  (200) 
0

>  <NumAromaticRings>  (200) 
1

>  <NumHAcceptors>  (200) 
3

>  <NumHDonors>  (200) 
1

>  <NumHeteroatoms>  (200) 
4

>  <NumRotatableBonds>  (200) 
2

>  <NumSaturatedCarbocycles>  (200) 
0

>  <NumSaturatedHeterocycles>  (200) 
0

>  <NumSaturatedRings>  (200) 
0

>  <RingCount>  (200) 
1

>  <MolLogP>  (200) 
-0.851

>  <MolMR>  (200) 
39.2904

>  <fr_Al_COO>  (200) 
0

>  <fr_Al_OH>  (200) 
0

>  <fr_Al_OH_noTert>  (200) 
0

>  <fr_ArN>  (200) 
0

>  <fr_Ar_COO>  (200) 
1

>  <fr_Ar_N>  (200) 
0

>  <fr_Ar_NH>  (200) 
0

>  <fr_Ar_OH>  (200) 
0

>  <fr_COO>  (200) 
1

>  <fr_COO2>  (200) 
1

>  <fr_C_O>  (200) 
2

>  <fr_C_O_noCOO>  (200) 
2

>  <fr_C_S>  (200) 
0

>  <fr_HOCCN>  (200) 
0

>  <fr_Imine>  (200) 
0

>  <fr_NH0>  (200) 
0

>  <fr_NH1>  (200) 
0

>  <fr_NH2>  (200) 
1

>  <fr_N_O>  (200) 
0

>  <fr_Ndealkylation1>  (200) 
0

>  <fr_Ndealkylation2>  (200) 
0

>  <fr_Nhpyrrole>  (200) 
0

>  <fr_SH>  (200) 
0

>  <fr_aldehyde>  (200) 
0

>  <fr_alkyl_carbamate>  (200) 
0

>  <fr_alkyl_halide>  (200) 
0

>  <fr_allylic_oxid>  (200) 
0

>  <fr_amide>  (200) 
1

>  <fr_amidine>  (200) 
0

>  <fr_aniline>  (200) 
0

>  <fr_aryl_methyl>  (200) 
0

>  <fr_azide>  (200) 
0

>  <fr_azo>  (200) 
0

>  <fr_barbitur>  (200) 
0

>  <fr_benzene>  (200) 
1

>  <fr_benzodiazepine>  (200) 
0

>  <fr_bicyclic>  (200) 
0

>  <fr_diazo>  (200) 
0

>  <fr_dihydropyridine>  (200) 
0

>  <fr_epoxide>  (200) 
0

>  <fr_ester>  (200) 
0

>  <fr_ether>  (200) 
0

>  <fr_furan>  (200) 
0

>  <fr_guanido>  (200) 
0

>  <fr_halogen>  (200) 
0

>  <fr_hdrzine>  (200) 
0

>  <fr_hdrzone>  (200) 
0

>  <fr_imidazole>  (200) 
0

>  <fr_imide>  (200) 
0

>  <fr_isocyan>  (200) 
0

>  <fr_isothiocyan>  (200) 
0

>  <fr_ketone>  (200) 
0

>  <fr_ketone_Topliss>  (200) 
0

>  <fr_lactam>  (200) 
0

>  <fr_lactone>  (200) 
0

>  <fr_methoxy>  (200) 
0

>  <fr_morpholine>  (200) 
0

>  <fr_nitrile>  (200) 
0

>  <fr_nitro>  (200) 
0

>  <fr_nitro_arom>  (200) 
0

>  <fr_nitro_arom_nonortho>  (200) 
0

>  <fr_nitroso>  (200) 
0

>  <fr_oxazole>  (200) 
0

>  <fr_oxime>  (200) 
0

>  <fr_para_hydroxylation>  (200) 
0

>  <fr_phenol>  (200) 
0

>  <fr_phenol_noOrthoHbond>  (200) 
0

>  <fr_phos_acid>  (200) 
0

>  <fr_phos_ester>  (200) 
0

>  <fr_piperdine>  (200) 
0

>  <fr_piperzine>  (200) 
0

>  <fr_priamide>  (200) 
1

>  <fr_prisulfonamd>  (200) 
0

>  <fr_pyridine>  (200) 
0

>  <fr_quatN>  (200) 
0

>  <fr_sulfide>  (200) 
0

>  <fr_sulfonamd>  (200) 
0

>  <fr_sulfone>  (200) 
0

>  <fr_term_acetylene>  (200) 
0

>  <fr_tetrazole>  (200) 
0

>  <fr_thiazole>  (200) 
0

>  <fr_thiocyan>  (200) 
0

>  <fr_thiophene>  (200) 
0

>  <fr_unbrch_alkane>  (200) 
0

>  <fr_urea>  (200) 
0

>  <NP_Likeness>  (200) 
-0.681488

$$$$
LR5
     RDKit          3D

  0  0  0  0  0  0  0  0  0  0999 V3000
M  V30 BEGIN CTAB
M  V30 COUNTS 19 19 0 0 0
M  V30 BEGIN ATOM
M  V30 1 F 9.681000 2.597000 18.440000 0
M  V30 2 F 10.120000 0.671000 19.205000 0
M  V30 3 F 10.594000 1.140000 17.206000 0
M  V30 4 O 16.658000 2.426000 20.438000 0
M  V30 5 N 16.143000 4.616000 20.255000 0
M  V30 6 C 13.463000 3.867000 19.456000 0
M  V30 7 C 14.200000 1.593000 19.519000 0
M  V30 8 C 12.210000 3.449000 19.041000 0
M  V30 9 C 12.949000 1.178000 19.106000 0
M  V30 10 C 15.848000 3.319000 20.166000 0
M  V30 11 C 14.474000 2.940000 19.700000 0
M  V30 12 C 11.937000 2.098000 18.865000 0
M  V30 13 C 10.585000 1.632000 18.433000 0
M  V30 14 H 15.453600 5.302600 20.024000 0
M  V30 15 H 17.053700 4.902400 20.552800 0
M  V30 16 H 13.643800 4.842500 19.581700 0
M  V30 17 H 14.915200 0.915100 19.689200 0
M  V30 18 H 11.494800 4.125700 18.866300 0
M  V30 19 H 12.769700 0.202500 18.978900 0
M  V30 END ATOM
M  V30 BEGIN BOND
M  V30 1 1 13 1
M  V30 2 1 2 13
M  V30 3 1 3 13
M  V30 4 2 4 10
M  V30 5 1 5 10
M  V30 6 2 6 8
M  V30 7 1 6 11
M  V30 8 1 7 9
M  V30 9 2 7 11
M  V30 10 1 8 12
M  V30 11 2 9 12
M  V30 12 1 10 11
M  V30 13 1 12 13
M  V30 14 1 5 14
M  V30 15 1 5 15
M  V30 16 1 6 16
M  V30 17 1 7 17
M  V30 18 1 8 18
M  V30 19 1 9 19
M  V30 END BOND
M  V30 END CTAB
M  END
>  <Ligand_Instance>  (201) 
6SPS_LR5_A_403

>  <Dataset>  (201) 
PDB

>  <PDB_ID>  (201) 
6SPS

>  <Chain>  (201) 
A

>  <Resi>  (201) 
403

>  <Num_Resolved_Atoms>  (201) 
13

>  <Num_H_Atoms_ProtBoundConf>  (201) 
6

>  <Pocket>  (201) 
A

>  <Name>  (201) 
4-(trifluoromethyl)benzamide

>  <Num_Not_Resolved_Atoms>  (201) 
0

>  <ATP_Site>  (201) 
True

>  <Peripheral>  (201) 
False

>  <Standardized_SMILES>  (201) 
[H]C1=C([H])C(C(F)(F)F)=C([H])C([H])=C1C(=O)N([H])[H]

>  <2D_Mol_H>  (201) 
<rdkit.Chem.rdchem.Mol object at 0x77059d81d1c0>

>  <MW>  (201) 
189.136

>  <HBA>  (201) 
1

>  <HBD>  (201) 
1

>  <LogP>  (201) 
1.8043

>  <NRB>  (201) 
1

>  <TPSA>  (201) 
43.09

>  <Num_Heavy_Atoms>  (201) 
13

>  <Ro5>  (201) 
[True, True, True, True, True, True]

>  <Ro5_Fulfilled>  (201) 
True

>  <Ro3>  (201) 
[True, True, True, True]

>  <Ro3_Fulfilled>  (201) 
True

>  <Fsp3>  (201) 
0.125

>  <Fsp3_0.42>  (201) 
False

>  <Fsp3_0.45>  (201) 
False

>  <Stereogenic_Carbons>  (201) 
0

>  <C_Atoms>  (201) 
8

>  <FCStereo>  (201) 
0.0

>  <SPS>  (201) 
147

>  <nSPS>  (201) 
11.307692

>  <PBF>  (201) 
0.147631

>  <PBF_0.6>  (201) 
False

>  <nPBF>  (201) 
0.011356

>  <nPBF_0.016>  (201) 
False

>  <PMI1>  (201) 
214.096477

>  <PMI2>  (201) 
1343.626212

>  <PMI3>  (201) 
1472.998465

>  <NPR1>  (201) 
0.145347

>  <NPR2>  (201) 
0.912171

>  <Sum_NPR>  (201) 
1.057518

>  <Sum_NPR_1.07>  (201) 
False

>  <Sum_NPR_1.2>  (201) 
False

>  <MaxAbsEStateIndex>  (201) 
12.004506

>  <MaxEStateIndex>  (201) 
12.004506

>  <MinAbsEStateIndex>  (201) 
0.062963

>  <MinEStateIndex>  (201) 
-4.378793

>  <qed>  (201) 
0.71869

>  <MolWt>  (201) 
189.136

>  <HeavyAtomMolWt>  (201) 
183.088

>  <ExactMolWt>  (201) 
189.040148

>  <NumValenceElectrons>  (201) 
70

>  <NumRadicalElectrons>  (201) 
0

>  <MaxPartialCharge>  (201) 
0.41591

>  <MinPartialCharge>  (201) 
-0.3656

>  <MaxAbsPartialCharge>  (201) 
0.41591

>  <MinAbsPartialCharge>  (201) 
0.3656

>  <FpDensityMorgan1>  (201) 
1.153846

>  <FpDensityMorgan2>  (201) 
1.615385

>  <FpDensityMorgan3>  (201) 
1.923077

>  <BCUT2D_MWHI>  (201) 
19.41317

>  <BCUT2D_MWLOW>  (201) 
10.123276

>  <BCUT2D_CHGHI>  (201) 
2.295049

>  <BCUT2D_CHGLO>  (201) 
-2.052512

>  <BCUT2D_LOGPHI>  (201) 
2.28382

>  <BCUT2D_LOGPLOW>  (201) 
-2.114741

>  <BCUT2D_MRHI>  (201) 
5.922234

>  <BCUT2D_MRLOW>  (201) 
-0.137141

>  <AvgIpc>  (201) 
2.028259

>  <BalabanJ>  (201) 
3.008741

>  <BertzCT>  (201) 
315.156178

>  <Chi0>  (201) 
10.060478

>  <Chi0n>  (201) 
6.428893

>  <Chi0v>  (201) 
6.428893

>  <Chi1>  (201) 
5.909702

>  <Chi1n>  (201) 
3.381113

>  <Chi1v>  (201) 
3.381113

>  <Chi2n>  (201) 
2.43936

>  <Chi2v>  (201) 
2.43936

>  <Chi3n>  (201) 
1.496745

>  <Chi3v>  (201) 
1.496745

>  <Chi4n>  (201) 
0.823477

>  <Chi4v>  (201) 
0.823477

>  <HallKierAlpha>  (201) 
-1.52

>  <Ipc>  (201) 
608.477849

>  <Kappa1>  (201) 
9.567108

>  <Kappa2>  (201) 
3.082443

>  <Kappa3>  (201) 
2.206729

>  <LabuteASA>  (201) 
72.159306

>  <PEOE_VSA1>  (201) 
5.733667

>  <PEOE_VSA10>  (201) 
0.0

>  <PEOE_VSA11>  (201) 
0.0

>  <PEOE_VSA12>  (201) 
5.90718

>  <PEOE_VSA13>  (201) 
0.0

>  <PEOE_VSA14>  (201) 
6.176299

>  <PEOE_VSA2>  (201) 
4.794537

>  <PEOE_VSA3>  (201) 
0.0

>  <PEOE_VSA4>  (201) 
13.171245

>  <PEOE_VSA5>  (201) 
0.0

>  <PEOE_VSA6>  (201) 
0.0

>  <PEOE_VSA7>  (201) 
24.265468

>  <PEOE_VSA8>  (201) 
5.563451

>  <PEOE_VSA9>  (201) 
5.563451

>  <SMR_VSA1>  (201) 
17.965782

>  <SMR_VSA10>  (201) 
5.90718

>  <SMR_VSA2>  (201) 
0.0

>  <SMR_VSA3>  (201) 
0.0

>  <SMR_VSA4>  (201) 
5.733667

>  <SMR_VSA5>  (201) 
6.176299

>  <SMR_VSA6>  (201) 
0.0

>  <SMR_VSA7>  (201) 
35.392371

>  <SMR_VSA8>  (201) 
0.0

>  <SMR_VSA9>  (201) 
0.0

>  <SlogP_VSA1>  (201) 
5.733667

>  <SlogP_VSA10>  (201) 
13.171245

>  <SlogP_VSA11>  (201) 
0.0

>  <SlogP_VSA12>  (201) 
0.0

>  <SlogP_VSA2>  (201) 
5.90718

>  <SlogP_VSA3>  (201) 
6.176299

>  <SlogP_VSA4>  (201) 
0.0

>  <SlogP_VSA5>  (201) 
15.92144

>  <SlogP_VSA6>  (201) 
24.265468

>  <SlogP_VSA7>  (201) 
0.0

>  <SlogP_VSA8>  (201) 
0.0

>  <SlogP_VSA9>  (201) 
0.0

>  <EState_VSA1>  (201) 
17.64693

>  <EState_VSA10>  (201) 
17.965782

>  <EState_VSA11>  (201) 
0.0

>  <EState_VSA2>  (201) 
5.563451

>  <EState_VSA3>  (201) 
0.0

>  <EState_VSA4>  (201) 
24.265468

>  <EState_VSA5>  (201) 
0.0

>  <EState_VSA6>  (201) 
0.0

>  <EState_VSA7>  (201) 
0.0

>  <EState_VSA8>  (201) 
0.0

>  <EState_VSA9>  (201) 
5.733667

>  <VSA_EState1>  (201) 
36.013519

>  <VSA_EState10>  (201) 
0.0

>  <VSA_EState2>  (201) 
10.502879

>  <VSA_EState3>  (201) 
0.0

>  <VSA_EState4>  (201) 
4.121678

>  <VSA_EState5>  (201) 
-0.741922

>  <VSA_EState6>  (201) 
3.732639

>  <VSA_EState7>  (201) 
-4.378793

>  <VSA_EState8>  (201) 
0.0

>  <VSA_EState9>  (201) 
0.0

>  <FractionCSP3>  (201) 
0.125

>  <HeavyAtomCount>  (201) 
13

>  <NHOHCount>  (201) 
2

>  <NOCount>  (201) 
2

>  <NumAliphaticCarbocycles>  (201) 
0

>  <NumAliphaticHeterocycles>  (201) 
0

>  <NumAliphaticRings>  (201) 
0

>  <NumAromaticCarbocycles>  (201) 
1

>  <NumAromaticHeterocycles>  (201) 
0

>  <NumAromaticRings>  (201) 
1

>  <NumHAcceptors>  (201) 
1

>  <NumHDonors>  (201) 
1

>  <NumHeteroatoms>  (201) 
5

>  <NumRotatableBonds>  (201) 
1

>  <NumSaturatedCarbocycles>  (201) 
0

>  <NumSaturatedHeterocycles>  (201) 
0

>  <NumSaturatedRings>  (201) 
0

>  <RingCount>  (201) 
1

>  <MolLogP>  (201) 
1.8043

>  <MolMR>  (201) 
39.9619

>  <fr_Al_COO>  (201) 
0

>  <fr_Al_OH>  (201) 
0

>  <fr_Al_OH_noTert>  (201) 
0

>  <fr_ArN>  (201) 
0

>  <fr_Ar_COO>  (201) 
0

>  <fr_Ar_N>  (201) 
0

>  <fr_Ar_NH>  (201) 
0

>  <fr_Ar_OH>  (201) 
0

>  <fr_COO>  (201) 
0

>  <fr_COO2>  (201) 
0

>  <fr_C_O>  (201) 
1

>  <fr_C_O_noCOO>  (201) 
1

>  <fr_C_S>  (201) 
0

>  <fr_HOCCN>  (201) 
0

>  <fr_Imine>  (201) 
0

>  <fr_NH0>  (201) 
0

>  <fr_NH1>  (201) 
0

>  <fr_NH2>  (201) 
1

>  <fr_N_O>  (201) 
0

>  <fr_Ndealkylation1>  (201) 
0

>  <fr_Ndealkylation2>  (201) 
0

>  <fr_Nhpyrrole>  (201) 
0

>  <fr_SH>  (201) 
0

>  <fr_aldehyde>  (201) 
0

>  <fr_alkyl_carbamate>  (201) 
0

>  <fr_alkyl_halide>  (201) 
3

>  <fr_allylic_oxid>  (201) 
0

>  <fr_amide>  (201) 
1

>  <fr_amidine>  (201) 
0

>  <fr_aniline>  (201) 
0

>  <fr_aryl_methyl>  (201) 
0

>  <fr_azide>  (201) 
0

>  <fr_azo>  (201) 
0

>  <fr_barbitur>  (201) 
0

>  <fr_benzene>  (201) 
1

>  <fr_benzodiazepine>  (201) 
0

>  <fr_bicyclic>  (201) 
0

>  <fr_diazo>  (201) 
0

>  <fr_dihydropyridine>  (201) 
0

>  <fr_epoxide>  (201) 
0

>  <fr_ester>  (201) 
0

>  <fr_ether>  (201) 
0

>  <fr_furan>  (201) 
0

>  <fr_guanido>  (201) 
0

>  <fr_halogen>  (201) 
3

>  <fr_hdrzine>  (201) 
0

>  <fr_hdrzone>  (201) 
0

>  <fr_imidazole>  (201) 
0

>  <fr_imide>  (201) 
0

>  <fr_isocyan>  (201) 
0

>  <fr_isothiocyan>  (201) 
0

>  <fr_ketone>  (201) 
0

>  <fr_ketone_Topliss>  (201) 
0

>  <fr_lactam>  (201) 
0

>  <fr_lactone>  (201) 
0

>  <fr_methoxy>  (201) 
0

>  <fr_morpholine>  (201) 
0

>  <fr_nitrile>  (201) 
0

>  <fr_nitro>  (201) 
0

>  <fr_nitro_arom>  (201) 
0

>  <fr_nitro_arom_nonortho>  (201) 
0

>  <fr_nitroso>  (201) 
0

>  <fr_oxazole>  (201) 
0

>  <fr_oxime>  (201) 
0

>  <fr_para_hydroxylation>  (201) 
0

>  <fr_phenol>  (201) 
0

>  <fr_phenol_noOrthoHbond>  (201) 
0

>  <fr_phos_acid>  (201) 
0

>  <fr_phos_ester>  (201) 
0

>  <fr_piperdine>  (201) 
0

>  <fr_piperzine>  (201) 
0

>  <fr_priamide>  (201) 
1

>  <fr_prisulfonamd>  (201) 
0

>  <fr_pyridine>  (201) 
0

>  <fr_quatN>  (201) 
0

>  <fr_sulfide>  (201) 
0

>  <fr_sulfonamd>  (201) 
0

>  <fr_sulfone>  (201) 
0

>  <fr_term_acetylene>  (201) 
0

>  <fr_tetrazole>  (201) 
0

>  <fr_thiazole>  (201) 
0

>  <fr_thiocyan>  (201) 
0

>  <fr_thiophene>  (201) 
0

>  <fr_unbrch_alkane>  (201) 
0

>  <fr_urea>  (201) 
0

>  <NP_Likeness>  (201) 
-1.351617

$$$$
LR8
     RDKit          3D

  0  0  0  0  0  0  0  0  0  0999 V3000
M  V30 BEGIN CTAB
M  V30 COUNTS 28 29 0 0 0
M  V30 BEGIN ATOM
M  V30 1 O 16.612000 2.477000 20.326000 0
M  V30 2 O 7.985000 0.935000 17.848000 0
M  V30 3 N 16.028000 4.667000 20.245000 0
M  V30 4 N 12.085000 3.511000 19.119000 0
M  V30 5 N 10.565000 1.821000 18.651000 0
M  V30 6 C 8.199000 2.281000 18.276000 0
M  V30 7 C 8.863000 0.069000 18.542000 0
M  V30 8 C 13.331000 3.887000 19.462000 0
M  V30 9 C 9.616000 2.735000 18.009000 0
M  V30 10 C 10.305000 0.422000 18.293000 0
M  V30 11 C 12.872000 1.240000 19.010000 0
M  V30 12 C 14.136000 1.660000 19.372000 0
M  V30 13 C 15.765000 3.377000 20.092000 0
M  V30 14 C 11.866000 2.201000 18.915000 0
M  V30 15 C 14.387000 2.994000 19.626000 0
M  V30 16 H 15.323000 5.348000 20.046700 0
M  V30 17 H 16.931400 4.959300 20.558700 0
M  V30 18 H 8.019200 2.341200 19.257900 0
M  V30 19 H 7.568400 2.881400 17.784200 0
M  V30 20 H 8.701600 -0.869300 18.236200 0
M  V30 21 H 8.677300 0.136700 19.522300 0
M  V30 22 H 13.508100 4.860500 19.607000 0
M  V30 23 H 9.780500 2.743900 17.022700 0
M  V30 24 H 9.743300 3.656300 18.376500 0
M  V30 25 H 10.888800 -0.172400 18.846000 0
M  V30 26 H 10.513700 0.286700 17.324400 0
M  V30 27 H 12.683400 0.276200 18.821600 0
M  V30 28 H 14.876400 0.992500 19.451000 0
M  V30 END ATOM
M  V30 BEGIN BOND
M  V30 1 2 1 13
M  V30 2 1 2 6
M  V30 3 1 2 7
M  V30 4 1 3 13
M  V30 5 2 4 8
M  V30 6 1 4 14
M  V30 7 1 5 9
M  V30 8 1 5 10
M  V30 9 1 5 14
M  V30 10 1 6 9
M  V30 11 1 7 10
M  V30 12 1 8 15
M  V30 13 1 11 12
M  V30 14 2 11 14
M  V30 15 2 12 15
M  V30 16 1 13 15
M  V30 17 1 3 16
M  V30 18 1 3 17
M  V30 19 1 6 18
M  V30 20 1 6 19
M  V30 21 1 7 20
M  V30 22 1 7 21
M  V30 23 1 8 22
M  V30 24 1 9 23
M  V30 25 1 9 24
M  V30 26 1 10 25
M  V30 27 1 10 26
M  V30 28 1 11 27
M  V30 29 1 12 28
M  V30 END BOND
M  V30 END CTAB
M  END
>  <Ligand_Instance>  (202) 
6SPY_LR8_A_401

>  <Dataset>  (202) 
PDB

>  <PDB_ID>  (202) 
6SPY

>  <Chain>  (202) 
A

>  <Resi>  (202) 
401

>  <Num_Resolved_Atoms>  (202) 
15

>  <Num_H_Atoms_ProtBoundConf>  (202) 
13

>  <Pocket>  (202) 
A

>  <Name>  (202) 
6-morpholin-4-ylpyridine-3-carboxamide

>  <Num_Not_Resolved_Atoms>  (202) 
0

>  <ATP_Site>  (202) 
True

>  <Peripheral>  (202) 
False

>  <Standardized_SMILES>  (202) 
[H]C1=C(C(=O)N([H])[H])C([H])=C([H])C(N2C([H])([H])C([H])([H])OC([H])([H])C2([H])[H])=N1

>  <2D_Mol_H>  (202) 
<rdkit.Chem.rdchem.Mol object at 0x77059d81d2a0>

>  <MW>  (202) 
207.233

>  <HBA>  (202) 
4

>  <HBD>  (202) 
1

>  <LogP>  (202) 
0.0171

>  <NRB>  (202) 
2

>  <TPSA>  (202) 
68.45

>  <Num_Heavy_Atoms>  (202) 
15

>  <Ro5>  (202) 
[True, True, True, True, True, True]

>  <Ro5_Fulfilled>  (202) 
True

>  <Ro3>  (202) 
[True, False, True, True]

>  <Ro3_Fulfilled>  (202) 
True

>  <Fsp3>  (202) 
0.4

>  <Fsp3_0.42>  (202) 
False

>  <Fsp3_0.45>  (202) 
False

>  <Stereogenic_Carbons>  (202) 
0

>  <C_Atoms>  (202) 
10

>  <FCStereo>  (202) 
0.0

>  <SPS>  (202) 
246

>  <nSPS>  (202) 
16.4

>  <PBF>  (202) 
0.318984

>  <PBF_0.6>  (202) 
False

>  <nPBF>  (202) 
0.021266

>  <nPBF_0.016>  (202) 
True

>  <PMI1>  (202) 
230.320992

>  <PMI2>  (202) 
1968.011334

>  <PMI3>  (202) 
2171.386847

>  <NPR1>  (202) 
0.106071

>  <NPR2>  (202) 
0.906338

>  <Sum_NPR>  (202) 
1.012409

>  <Sum_NPR_1.07>  (202) 
False

>  <Sum_NPR_1.2>  (202) 
False

>  <MaxAbsEStateIndex>  (202) 
10.837126

>  <MaxEStateIndex>  (202) 
10.837126

>  <MinAbsEStateIndex>  (202) 
0.437046

>  <MinEStateIndex>  (202) 
-0.448123

>  <qed>  (202) 
0.741769

>  <MolWt>  (202) 
207.233

>  <HeavyAtomMolWt>  (202) 
194.129

>  <ExactMolWt>  (202) 
207.100777

>  <NumValenceElectrons>  (202) 
80

>  <NumRadicalElectrons>  (202) 
0

>  <MaxPartialCharge>  (202) 
0.249765

>  <MinPartialCharge>  (202) 
-0.377776

>  <MaxAbsPartialCharge>  (202) 
0.377776

>  <MinAbsPartialCharge>  (202) 
0.249765

>  <FpDensityMorgan1>  (202) 
1.4

>  <FpDensityMorgan2>  (202) 
2.133333

>  <FpDensityMorgan3>  (202) 
2.666667

>  <BCUT2D_MWHI>  (202) 
16.477517

>  <BCUT2D_MWLOW>  (202) 
10.24112

>  <BCUT2D_CHGHI>  (202) 
2.11824

>  <BCUT2D_CHGLO>  (202) 
-2.27181

>  <BCUT2D_LOGPHI>  (202) 
2.120017

>  <BCUT2D_LOGPLOW>  (202) 
-2.362856

>  <BCUT2D_MRHI>  (202) 
5.920735

>  <BCUT2D_MRLOW>  (202) 
0.099954

>  <AvgIpc>  (202) 
2.302776

>  <BalabanJ>  (202) 
2.114615

>  <BertzCT>  (202) 
344.190063

>  <Chi0>  (202) 
10.673362

>  <Chi0n>  (202) 
8.348752

>  <Chi0v>  (202) 
8.348752

>  <Chi1>  (202) 
7.270857

>  <Chi1n>  (202) 
4.857376

>  <Chi1v>  (202) 
4.857376

>  <Chi2n>  (202) 
3.368744

>  <Chi2v>  (202) 
3.368744

>  <Chi3n>  (202) 
2.367466

>  <Chi3v>  (202) 
2.367466

>  <Chi4n>  (202) 
1.511322

>  <Chi4v>  (202) 
1.511322

>  <HallKierAlpha>  (202) 
-1.62

>  <Ipc>  (202) 
3647.597028

>  <Kappa1>  (202) 
9.916984

>  <Kappa2>  (202) 
4.26872

>  <Kappa3>  (202) 
2.24413

>  <LabuteASA>  (202) 
87.844722

>  <PEOE_VSA1>  (202) 
15.37044

>  <PEOE_VSA10>  (202) 
5.817863

>  <PEOE_VSA11>  (202) 
0.0

>  <PEOE_VSA12>  (202) 
5.90718

>  <PEOE_VSA13>  (202) 
0.0

>  <PEOE_VSA14>  (202) 
0.0

>  <PEOE_VSA2>  (202) 
4.794537

>  <PEOE_VSA3>  (202) 
4.983979

>  <PEOE_VSA4>  (202) 
0.0

>  <PEOE_VSA5>  (202) 
0.0

>  <PEOE_VSA6>  (202) 
0.0

>  <PEOE_VSA7>  (202) 
12.132734

>  <PEOE_VSA8>  (202) 
19.286356

>  <PEOE_VSA9>  (202) 
18.777215

>  <SMR_VSA1>  (202) 
9.5314

>  <SMR_VSA10>  (202) 
11.725043

>  <SMR_VSA2>  (202) 
0.0

>  <SMR_VSA3>  (202) 
4.983979

>  <SMR_VSA4>  (202) 
5.733667

>  <SMR_VSA5>  (202) 
0.0

>  <SMR_VSA6>  (202) 
31.203186

>  <SMR_VSA7>  (202) 
23.893029

>  <SMR_VSA8>  (202) 
0.0

>  <SMR_VSA9>  (202) 
0.0

>  <SlogP_VSA1>  (202) 
10.633577

>  <SlogP_VSA10>  (202) 
5.817863

>  <SlogP_VSA11>  (202) 
0.0

>  <SlogP_VSA12>  (202) 
0.0

>  <SlogP_VSA2>  (202) 
37.194435

>  <SlogP_VSA3>  (202) 
4.736863

>  <SlogP_VSA4>  (202) 
0.0

>  <SlogP_VSA5>  (202) 
10.357989

>  <SlogP_VSA6>  (202) 
18.329578

>  <SlogP_VSA7>  (202) 
0.0

>  <SlogP_VSA8>  (202) 
0.0

>  <SlogP_VSA9>  (202) 
0.0

>  <EState_VSA1>  (202) 
5.90718

>  <EState_VSA10>  (202) 
4.794537

>  <EState_VSA11>  (202) 
0.0

>  <EState_VSA2>  (202) 
0.0

>  <EState_VSA3>  (202) 
5.563451

>  <EState_VSA4>  (202) 
32.12114

>  <EState_VSA5>  (202) 
6.196844

>  <EState_VSA6>  (202) 
6.066367

>  <EState_VSA7>  (202) 
6.066367

>  <EState_VSA8>  (202) 
9.883888

>  <EState_VSA9>  (202) 
10.47053

>  <VSA_EState1>  (202) 
5.239587

>  <VSA_EState10>  (202) 
0.0

>  <VSA_EState2>  (202) 
17.149593

>  <VSA_EState3>  (202) 
0.0

>  <VSA_EState4>  (202) 
5.56679

>  <VSA_EState5>  (202) 
0.416044

>  <VSA_EState6>  (202) 
3.505499

>  <VSA_EState7>  (202) 
1.507073

>  <VSA_EState8>  (202) 
3.115415

>  <VSA_EState9>  (202) 
0.0

>  <FractionCSP3>  (202) 
0.4

>  <HeavyAtomCount>  (202) 
15

>  <NHOHCount>  (202) 
2

>  <NOCount>  (202) 
5

>  <NumAliphaticCarbocycles>  (202) 
0

>  <NumAliphaticHeterocycles>  (202) 
1

>  <NumAliphaticRings>  (202) 
1

>  <NumAromaticCarbocycles>  (202) 
0

>  <NumAromaticHeterocycles>  (202) 
1

>  <NumAromaticRings>  (202) 
1

>  <NumHAcceptors>  (202) 
4

>  <NumHDonors>  (202) 
1

>  <NumHeteroatoms>  (202) 
5

>  <NumRotatableBonds>  (202) 
2

>  <NumSaturatedCarbocycles>  (202) 
0

>  <NumSaturatedHeterocycles>  (202) 
1

>  <NumSaturatedRings>  (202) 
1

>  <RingCount>  (202) 
2

>  <MolLogP>  (202) 
0.0171

>  <MolMR>  (202) 
55.7869

>  <fr_Al_COO>  (202) 
0

>  <fr_Al_OH>  (202) 
0

>  <fr_Al_OH_noTert>  (202) 
0

>  <fr_ArN>  (202) 
0

>  <fr_Ar_COO>  (202) 
0

>  <fr_Ar_N>  (202) 
1

>  <fr_Ar_NH>  (202) 
0

>  <fr_Ar_OH>  (202) 
0

>  <fr_COO>  (202) 
0

>  <fr_COO2>  (202) 
0

>  <fr_C_O>  (202) 
1

>  <fr_C_O_noCOO>  (202) 
1

>  <fr_C_S>  (202) 
0

>  <fr_HOCCN>  (202) 
0

>  <fr_Imine>  (202) 
0

>  <fr_NH0>  (202) 
2

>  <fr_NH1>  (202) 
0

>  <fr_NH2>  (202) 
1

>  <fr_N_O>  (202) 
0

>  <fr_Ndealkylation1>  (202) 
0

>  <fr_Ndealkylation2>  (202) 
0

>  <fr_Nhpyrrole>  (202) 
0

>  <fr_SH>  (202) 
0

>  <fr_aldehyde>  (202) 
0

>  <fr_alkyl_carbamate>  (202) 
0

>  <fr_alkyl_halide>  (202) 
0

>  <fr_allylic_oxid>  (202) 
0

>  <fr_amide>  (202) 
1

>  <fr_amidine>  (202) 
0

>  <fr_aniline>  (202) 
1

>  <fr_aryl_methyl>  (202) 
0

>  <fr_azide>  (202) 
0

>  <fr_azo>  (202) 
0

>  <fr_barbitur>  (202) 
0

>  <fr_benzene>  (202) 
0

>  <fr_benzodiazepine>  (202) 
0

>  <fr_bicyclic>  (202) 
0

>  <fr_diazo>  (202) 
0

>  <fr_dihydropyridine>  (202) 
0

>  <fr_epoxide>  (202) 
0

>  <fr_ester>  (202) 
0

>  <fr_ether>  (202) 
1

>  <fr_furan>  (202) 
0

>  <fr_guanido>  (202) 
0

>  <fr_halogen>  (202) 
0

>  <fr_hdrzine>  (202) 
0

>  <fr_hdrzone>  (202) 
0

>  <fr_imidazole>  (202) 
0

>  <fr_imide>  (202) 
0

>  <fr_isocyan>  (202) 
0

>  <fr_isothiocyan>  (202) 
0

>  <fr_ketone>  (202) 
0

>  <fr_ketone_Topliss>  (202) 
0

>  <fr_lactam>  (202) 
0

>  <fr_lactone>  (202) 
0

>  <fr_methoxy>  (202) 
0

>  <fr_morpholine>  (202) 
1

>  <fr_nitrile>  (202) 
0

>  <fr_nitro>  (202) 
0

>  <fr_nitro_arom>  (202) 
0

>  <fr_nitro_arom_nonortho>  (202) 
0

>  <fr_nitroso>  (202) 
0

>  <fr_oxazole>  (202) 
0

>  <fr_oxime>  (202) 
0

>  <fr_para_hydroxylation>  (202) 
0

>  <fr_phenol>  (202) 
0

>  <fr_phenol_noOrthoHbond>  (202) 
0

>  <fr_phos_acid>  (202) 
0

>  <fr_phos_ester>  (202) 
0

>  <fr_piperdine>  (202) 
0

>  <fr_piperzine>  (202) 
0

>  <fr_priamide>  (202) 
1

>  <fr_prisulfonamd>  (202) 
0

>  <fr_pyridine>  (202) 
1

>  <fr_quatN>  (202) 
0

>  <fr_sulfide>  (202) 
0

>  <fr_sulfonamd>  (202) 
0

>  <fr_sulfone>  (202) 
0

>  <fr_term_acetylene>  (202) 
0

>  <fr_tetrazole>  (202) 
0

>  <fr_thiazole>  (202) 
0

>  <fr_thiocyan>  (202) 
0

>  <fr_thiophene>  (202) 
0

>  <fr_unbrch_alkane>  (202) 
0

>  <fr_urea>  (202) 
0

>  <NP_Likeness>  (202) 
-2.36623

$$$$
LRT
     RDKit          3D

  0  0  0  0  0  0  0  0  0  0999 V3000
M  V30 BEGIN CTAB
M  V30 COUNTS 40 42 0 0 0
M  V30 BEGIN ATOM
M  V30 1 S 11.128000 1.520000 18.815000 0
M  V30 2 O 11.087000 1.151000 17.435000 0
M  V30 3 O 11.428000 0.537000 19.807000 0
M  V30 4 N 16.509000 4.911000 20.169000 0
M  V30 5 N 6.846000 2.013000 20.600000 0 CHG=1
M  V30 6 N 16.271000 2.607000 20.283000 0
M  V30 7 N 9.663000 2.126000 19.176000 0
M  V30 8 C 7.929000 3.012000 20.674000 0
M  V30 9 C 6.406000 1.644000 19.236000 0
M  V30 10 C 15.506000 1.512000 20.122000 0
M  V30 11 C 9.253000 2.275000 20.586000 0
M  V30 12 C 8.651000 1.887000 18.127000 0
M  V30 13 C 7.532000 0.948000 18.517000 0
M  V30 14 C 12.439000 5.286000 18.888000 0
M  V30 15 C 14.213000 1.534000 19.696000 0
M  V30 16 C 11.677000 4.138000 18.751000 0
M  V30 17 C 13.745000 5.217000 19.266000 0
M  V30 18 C 12.223000 2.905000 18.997000 0
M  V30 19 C 15.729000 3.832000 19.993000 0
M  V30 20 C 13.591000 2.777000 19.397000 0
M  V30 21 C 14.364000 3.969000 19.538000 0
M  V30 22 H 16.152500 5.823700 19.969200 0
M  V30 23 H 17.446300 4.801800 20.499900 0
M  V30 24 H 6.055000 2.380400 21.089200 0
M  V30 25 H 7.874000 3.508800 21.540100 0
M  V30 26 H 7.848400 3.657000 19.914100 0
M  V30 27 H 6.149500 2.469700 18.733600 0
M  V30 28 H 5.618100 1.030900 19.294200 0
M  V30 29 H 15.914200 0.622900 20.329000 0
M  V30 30 H 9.952000 2.792100 21.080000 0
M  V30 31 H 9.154600 1.369400 20.998500 0
M  V30 32 H 9.115900 1.500800 17.330300 0
M  V30 33 H 8.245200 2.767400 17.881800 0
M  V30 34 H 7.167400 0.524400 17.687800 0
M  V30 35 H 7.904300 0.239900 19.117000 0
M  V30 36 H 12.024400 6.177800 18.706800 0
M  V30 37 H 13.703200 0.679800 19.593900 0
M  V30 38 H 10.719900 4.209100 18.470100 0
M  V30 39 H 14.276900 6.059300 19.353500 0
M  V30 40 H 7.163200 1.181500 21.056100 0
M  V30 END ATOM
M  V30 BEGIN BOND
M  V30 1 2 1 2
M  V30 2 2 1 3
M  V30 3 1 1 7
M  V30 4 1 1 18
M  V30 5 1 4 19
M  V30 6 1 5 8
M  V30 7 1 5 9
M  V30 8 2 6 10
M  V30 9 1 6 19
M  V30 10 1 7 11
M  V30 11 1 7 12
M  V30 12 1 8 11
M  V30 13 1 9 13
M  V30 14 1 10 15
M  V30 15 1 12 13
M  V30 16 1 14 16
M  V30 17 2 14 17
M  V30 18 2 15 20
M  V30 19 2 16 18
M  V30 20 1 17 21
M  V30 21 1 18 20
M  V30 22 2 19 21
M  V30 23 1 20 21
M  V30 24 1 4 22
M  V30 25 1 4 23
M  V30 26 1 5 24
M  V30 27 1 8 25
M  V30 28 1 8 26
M  V30 29 1 9 27
M  V30 30 1 9 28
M  V30 31 1 10 29
M  V30 32 1 11 30
M  V30 33 1 11 31
M  V30 34 1 12 32
M  V30 35 1 12 33
M  V30 36 1 13 34
M  V30 37 1 13 35
M  V30 38 1 14 36
M  V30 39 1 15 37
M  V30 40 1 16 38
M  V30 41 1 17 39
M  V30 42 1 5 40
M  V30 END BOND
M  V30 END CTAB
M  END
>  <Ligand_Instance>  (203) 
6SQ1_LRT_A_403

>  <Dataset>  (203) 
PDB

>  <PDB_ID>  (203) 
6SQ1

>  <Chain>  (203) 
A

>  <Resi>  (203) 
403

>  <Num_Resolved_Atoms>  (203) 
21

>  <Num_H_Atoms_ProtBoundConf>  (203) 
19

>  <Pocket>  (203) 
A

>  <Name>  (203) 
5-(1,4-diazepan-1-ylsulfonyl)isoquinolin-1-amine

>  <Num_Not_Resolved_Atoms>  (203) 
0

>  <ATP_Site>  (203) 
True

>  <Peripheral>  (203) 
False

>  <Standardized_SMILES>  (203) 
[H]C1=C([H])C2=C(S(=O)(=O)N3C([H])([H])C([H])([H])C([H])([H])[N+]([H])([H])C([H])([H])C3([H])[H])C([H])=C([H])C([H])=C2C(N([H])[H])=N1

>  <2D_Mol_H>  (203) 
<rdkit.Chem.rdchem.Mol object at 0x77059d81d380>

>  <MW>  (203) 
307.399

>  <HBA>  (203) 
4

>  <HBD>  (203) 
2

>  <LogP>  (203) 
-0.2252

>  <NRB>  (203) 
3

>  <TPSA>  (203) 
92.9

>  <Num_Heavy_Atoms>  (203) 
21

>  <Ro5>  (203) 
[True, True, True, True, True, True]

>  <Ro5_Fulfilled>  (203) 
True

>  <Ro3>  (203) 
[False, False, True, True]

>  <Ro3_Fulfilled>  (203) 
False

>  <Fsp3>  (203) 
0.357143

>  <Fsp3_0.42>  (203) 
False

>  <Fsp3_0.45>  (203) 
False

>  <Stereogenic_Carbons>  (203) 
0

>  <C_Atoms>  (203) 
14

>  <FCStereo>  (203) 
0.0

>  <SPS>  (203) 
372

>  <nSPS>  (203) 
17.714286

>  <PBF>  (203) 
0.836593

>  <PBF_0.6>  (203) 
True

>  <nPBF>  (203) 
0.039838

>  <nPBF_0.016>  (203) 
True

>  <PMI1>  (203) 
693.152541

>  <PMI2>  (203) 
3220.977567

>  <PMI3>  (203) 
3472.701698

>  <NPR1>  (203) 
0.1996

>  <NPR2>  (203) 
0.927513

>  <Sum_NPR>  (203) 
1.127114

>  <Sum_NPR_1.07>  (203) 
True

>  <Sum_NPR_1.2>  (203) 
False

>  <MaxAbsEStateIndex>  (203) 
12.916098

>  <MaxEStateIndex>  (203) 
12.916098

>  <MinAbsEStateIndex>  (203) 
0.315741

>  <MinEStateIndex>  (203) 
-3.498727

>  <qed>  (203) 
0.801674

>  <MolWt>  (203) 
307.399

>  <HeavyAtomMolWt>  (203) 
288.247

>  <ExactMolWt>  (203) 
307.122323

>  <NumValenceElectrons>  (203) 
112

>  <NumRadicalElectrons>  (203) 
0

>  <MaxPartialCharge>  (203) 
0.243398

>  <MinPartialCharge>  (203) 
-0.383185

>  <MaxAbsPartialCharge>  (203) 
0.383185

>  <MinAbsPartialCharge>  (203) 
0.243398

>  <FpDensityMorgan1>  (203) 
1.142857

>  <FpDensityMorgan2>  (203) 
2.0

>  <FpDensityMorgan3>  (203) 
2.857143

>  <BCUT2D_MWHI>  (203) 
32.233427

>  <BCUT2D_MWLOW>  (203) 
10.149619

>  <BCUT2D_CHGHI>  (203) 
2.272593

>  <BCUT2D_CHGLO>  (203) 
-2.195025

>  <BCUT2D_LOGPHI>  (203) 
2.274866

>  <BCUT2D_LOGPLOW>  (203) 
-2.843702

>  <BCUT2D_MRHI>  (203) 
7.889655

>  <BCUT2D_MRLOW>  (203) 
-0.650697

>  <AvgIpc>  (203) 
2.765329

>  <BalabanJ>  (203) 
2.122793

>  <BertzCT>  (203) 
752.658101

>  <Chi0>  (203) 
14.872033

>  <Chi0n>  (203) 
11.696158

>  <Chi0v>  (203) 
12.512654

>  <Chi1>  (203) 
10.10419

>  <Chi1n>  (203) 
7.05549

>  <Chi1v>  (203) 
8.495553

>  <Chi2n>  (203) 
5.171127

>  <Chi2v>  (203) 
7.077483

>  <Chi3n>  (203) 
3.81311

>  <Chi3v>  (203) 
5.769903

>  <Chi4n>  (203) 
2.708717

>  <Chi4v>  (203) 
4.408554

>  <HallKierAlpha>  (203) 
-1.7

>  <Ipc>  (203) 
81538.479715

>  <Kappa1>  (203) 
14.246241

>  <Kappa2>  (203) 
5.590551

>  <Kappa3>  (203) 
2.593287

>  <LabuteASA>  (203) 
123.561957

>  <PEOE_VSA1>  (203) 
11.050456

>  <PEOE_VSA10>  (203) 
5.817863

>  <PEOE_VSA11>  (203) 
0.0

>  <PEOE_VSA12>  (203) 
10.023291

>  <PEOE_VSA13>  (203) 
0.0

>  <PEOE_VSA14>  (203) 
0.0

>  <PEOE_VSA2>  (203) 
0.0

>  <PEOE_VSA3>  (203) 
13.401776

>  <PEOE_VSA4>  (203) 
4.305216

>  <PEOE_VSA5>  (203) 
0.0

>  <PEOE_VSA6>  (203) 
12.132734

>  <PEOE_VSA7>  (203) 
12.132734

>  <PEOE_VSA8>  (203) 
29.93487

>  <PEOE_VSA9>  (203) 
24.529753

>  <SMR_VSA1>  (203) 
13.734586

>  <SMR_VSA10>  (203) 
26.613602

>  <SMR_VSA2>  (203) 
0.0

>  <SMR_VSA3>  (203) 
9.289195

>  <SMR_VSA4>  (203) 
0.0

>  <SMR_VSA5>  (203) 
11.316305

>  <SMR_VSA6>  (203) 
31.912693

>  <SMR_VSA7>  (203) 
30.462312

>  <SMR_VSA8>  (203) 
0.0

>  <SMR_VSA9>  (203) 
0.0

>  <SlogP_VSA1>  (203) 
11.050456

>  <SlogP_VSA10>  (203) 
5.817863

>  <SlogP_VSA11>  (203) 
0.0

>  <SlogP_VSA12>  (203) 
0.0

>  <SlogP_VSA2>  (203) 
43.886017

>  <SlogP_VSA3>  (203) 
10.023291

>  <SlogP_VSA4>  (203) 
0.0

>  <SlogP_VSA5>  (203) 
6.420822

>  <SlogP_VSA6>  (203) 
35.357795

>  <SlogP_VSA7>  (203) 
0.0

>  <SlogP_VSA8>  (203) 
10.772448

>  <SlogP_VSA9>  (203) 
0.0

>  <EState_VSA1>  (203) 
10.023291

>  <EState_VSA10>  (203) 
8.417797

>  <EState_VSA11>  (203) 
0.0

>  <EState_VSA2>  (203) 
0.0

>  <EState_VSA3>  (203) 
34.575307

>  <EState_VSA4>  (203) 
19.510334

>  <EState_VSA5>  (203) 
0.0

>  <EState_VSA6>  (203) 
34.767528

>  <EState_VSA7>  (203) 
0.0

>  <EState_VSA8>  (203) 
10.300767

>  <EState_VSA9>  (203) 
5.733667

>  <VSA_EState1>  (203) 
27.403518

>  <VSA_EState10>  (203) 
0.0

>  <VSA_EState2>  (203) 
4.338092

>  <VSA_EState3>  (203) 
3.471067

>  <VSA_EState4>  (203) 
5.847295

>  <VSA_EState5>  (203) 
0.355324

>  <VSA_EState6>  (203) 
6.873342

>  <VSA_EState7>  (203) 
2.417243

>  <VSA_EState8>  (203) 
2.87618

>  <VSA_EState9>  (203) 
-3.498727

>  <FractionCSP3>  (203) 
0.357143

>  <HeavyAtomCount>  (203) 
21

>  <NHOHCount>  (203) 
4

>  <NOCount>  (203) 
6

>  <NumAliphaticCarbocycles>  (203) 
0

>  <NumAliphaticHeterocycles>  (203) 
1

>  <NumAliphaticRings>  (203) 
1

>  <NumAromaticCarbocycles>  (203) 
1

>  <NumAromaticHeterocycles>  (203) 
1

>  <NumAromaticRings>  (203) 
2

>  <NumHAcceptors>  (203) 
4

>  <NumHDonors>  (203) 
2

>  <NumHeteroatoms>  (203) 
7

>  <NumRotatableBonds>  (203) 
2

>  <NumSaturatedCarbocycles>  (203) 
0

>  <NumSaturatedHeterocycles>  (203) 
1

>  <NumSaturatedRings>  (203) 
1

>  <RingCount>  (203) 
3

>  <MolLogP>  (203) 
-0.2252

>  <MolMR>  (203) 
81.1906

>  <fr_Al_COO>  (203) 
0

>  <fr_Al_OH>  (203) 
0

>  <fr_Al_OH_noTert>  (203) 
0

>  <fr_ArN>  (203) 
1

>  <fr_Ar_COO>  (203) 
0

>  <fr_Ar_N>  (203) 
1

>  <fr_Ar_NH>  (203) 
0

>  <fr_Ar_OH>  (203) 
0

>  <fr_COO>  (203) 
0

>  <fr_COO2>  (203) 
0

>  <fr_C_O>  (203) 
0

>  <fr_C_O_noCOO>  (203) 
0

>  <fr_C_S>  (203) 
0

>  <fr_HOCCN>  (203) 
0

>  <fr_Imine>  (203) 
0

>  <fr_NH0>  (203) 
2

>  <fr_NH1>  (203) 
0

>  <fr_NH2>  (203) 
2

>  <fr_N_O>  (203) 
0

>  <fr_Ndealkylation1>  (203) 
0

>  <fr_Ndealkylation2>  (203) 
0

>  <fr_Nhpyrrole>  (203) 
0

>  <fr_SH>  (203) 
0

>  <fr_aldehyde>  (203) 
0

>  <fr_alkyl_carbamate>  (203) 
0

>  <fr_alkyl_halide>  (203) 
0

>  <fr_allylic_oxid>  (203) 
0

>  <fr_amide>  (203) 
0

>  <fr_amidine>  (203) 
0

>  <fr_aniline>  (203) 
1

>  <fr_aryl_methyl>  (203) 
0

>  <fr_azide>  (203) 
0

>  <fr_azo>  (203) 
0

>  <fr_barbitur>  (203) 
0

>  <fr_benzene>  (203) 
1

>  <fr_benzodiazepine>  (203) 
0

>  <fr_bicyclic>  (203) 
1

>  <fr_diazo>  (203) 
0

>  <fr_dihydropyridine>  (203) 
0

>  <fr_epoxide>  (203) 
0

>  <fr_ester>  (203) 
0

>  <fr_ether>  (203) 
0

>  <fr_furan>  (203) 
0

>  <fr_guanido>  (203) 
0

>  <fr_halogen>  (203) 
0

>  <fr_hdrzine>  (203) 
0

>  <fr_hdrzone>  (203) 
0

>  <fr_imidazole>  (203) 
0

>  <fr_imide>  (203) 
0

>  <fr_isocyan>  (203) 
0

>  <fr_isothiocyan>  (203) 
0

>  <fr_ketone>  (203) 
0

>  <fr_ketone_Topliss>  (203) 
0

>  <fr_lactam>  (203) 
0

>  <fr_lactone>  (203) 
0

>  <fr_methoxy>  (203) 
0

>  <fr_morpholine>  (203) 
0

>  <fr_nitrile>  (203) 
0

>  <fr_nitro>  (203) 
0

>  <fr_nitro_arom>  (203) 
0

>  <fr_nitro_arom_nonortho>  (203) 
0

>  <fr_nitroso>  (203) 
0

>  <fr_oxazole>  (203) 
0

>  <fr_oxime>  (203) 
0

>  <fr_para_hydroxylation>  (203) 
0

>  <fr_phenol>  (203) 
0

>  <fr_phenol_noOrthoHbond>  (203) 
0

>  <fr_phos_acid>  (203) 
0

>  <fr_phos_ester>  (203) 
0

>  <fr_piperdine>  (203) 
0

>  <fr_piperzine>  (203) 
0

>  <fr_priamide>  (203) 
0

>  <fr_prisulfonamd>  (203) 
0

>  <fr_pyridine>  (203) 
1

>  <fr_quatN>  (203) 
1

>  <fr_sulfide>  (203) 
0

>  <fr_sulfonamd>  (203) 
1

>  <fr_sulfone>  (203) 
0

>  <fr_term_acetylene>  (203) 
0

>  <fr_tetrazole>  (203) 
0

>  <fr_thiazole>  (203) 
0

>  <fr_thiocyan>  (203) 
0

>  <fr_thiophene>  (203) 
0

>  <fr_unbrch_alkane>  (203) 
0

>  <fr_urea>  (203) 
0

>  <NP_Likeness>  (203) 
-1.236594

$$$$
LRT
     RDKit          3D

  0  0  0  0  0  0  0  0  0  0999 V3000
M  V30 BEGIN CTAB
M  V30 COUNTS 40 42 0 0 0
M  V30 BEGIN ATOM
M  V30 1 S 13.664000 -24.250000 -27.781000 0
M  V30 2 O 13.246000 -25.395000 -27.035000 0
M  V30 3 O 14.227000 -24.413000 -29.084000 0
M  V30 4 N 18.069000 -22.811000 -23.257000 0
M  V30 5 N 9.888000 -21.472000 -26.993000 0 CHG=1
M  V30 6 N 17.458000 -24.923000 -23.964000 0
M  V30 7 N 12.352000 -23.295000 -27.942000 0
M  V30 8 C 10.749000 -22.430000 -26.247000 0
M  V30 9 C 9.837000 -21.692000 -28.460000 0
M  V30 10 C 16.739000 -25.711000 -24.779000 0
M  V30 11 C 11.180000 -23.615000 -27.102000 0
M  V30 12 C 12.047000 -22.675000 -29.247000 0
M  V30 13 C 11.186000 -21.432000 -29.101000 0
M  V30 14 C 15.385000 -21.066000 -26.118000 0
M  V30 15 C 15.873000 -25.248000 -25.721000 0
M  V30 16 C 14.638000 -21.912000 -26.919000 0
M  V30 17 C 16.258000 -21.566000 -25.195000 0
M  V30 18 C 14.763000 -23.270000 -26.801000 0
M  V30 19 C 17.330000 -23.570000 -24.078000 0
M  V30 20 C 15.683000 -23.848000 -25.873000 0
M  V30 21 C 16.435000 -22.966000 -25.043000 0
M  V30 22 H 18.006600 -21.814200 -23.306200 0
M  V30 23 H 18.682800 -23.241500 -22.595300 0
M  V30 24 H 10.235500 -20.548800 -26.828900 0
M  V30 25 H 10.238800 -22.772500 -25.458100 0
M  V30 26 H 11.566400 -21.948000 -25.931600 0
M  V30 27 H 9.161300 -21.072400 -28.859400 0
M  V30 28 H 9.568000 -22.638400 -28.638700 0
M  V30 29 H 16.846600 -26.701000 -24.688100 0
M  V30 30 H 11.413000 -24.379100 -26.500500 0
M  V30 31 H 10.419600 -23.878100 -27.695800 0
M  V30 32 H 11.560500 -23.339600 -29.814000 0
M  V30 33 H 12.905800 -22.422000 -29.692500 0
M  V30 34 H 11.680500 -20.770700 -28.537000 0
M  V30 35 H 11.033300 -21.045900 -30.010700 0
M  V30 36 H 15.284100 -20.076000 -26.216500 0
M  V30 37 H 15.373100 -25.889400 -26.303000 0
M  V30 38 H 14.002300 -21.528400 -27.588900 0
M  V30 39 H 16.779700 -20.937400 -24.618300 0
M  V30 40 H 8.957300 -21.546400 -26.634900 0
M  V30 END ATOM
M  V30 BEGIN BOND
M  V30 1 2 1 2
M  V30 2 2 1 3
M  V30 3 1 1 7
M  V30 4 1 1 18
M  V30 5 1 4 19
M  V30 6 1 5 8
M  V30 7 1 5 9
M  V30 8 2 6 10
M  V30 9 1 6 19
M  V30 10 1 7 11
M  V30 11 1 7 12
M  V30 12 1 8 11
M  V30 13 1 9 13
M  V30 14 1 10 15
M  V30 15 1 12 13
M  V30 16 1 14 16
M  V30 17 2 14 17
M  V30 18 2 15 20
M  V30 19 2 16 18
M  V30 20 1 17 21
M  V30 21 1 18 20
M  V30 22 2 19 21
M  V30 23 1 20 21
M  V30 24 1 4 22
M  V30 25 1 4 23
M  V30 26 1 5 24
M  V30 27 1 8 25
M  V30 28 1 8 26
M  V30 29 1 9 27
M  V30 30 1 9 28
M  V30 31 1 10 29
M  V30 32 1 11 30
M  V30 33 1 11 31
M  V30 34 1 12 32
M  V30 35 1 12 33
M  V30 36 1 13 34
M  V30 37 1 13 35
M  V30 38 1 14 36
M  V30 39 1 15 37
M  V30 40 1 16 38
M  V30 41 1 17 39
M  V30 42 1 5 40
M  V30 END BOND
M  V30 END CTAB
M  END
>  <Ligand_Instance>  (204) 
6Y2U_LRT_A_401

>  <Dataset>  (204) 
PDB

>  <PDB_ID>  (204) 
6Y2U

>  <Chain>  (204) 
A

>  <Resi>  (204) 
401

>  <Num_Resolved_Atoms>  (204) 
21

>  <Num_H_Atoms_ProtBoundConf>  (204) 
19

>  <Pocket>  (204) 
A

>  <Name>  (204) 
5-(1,4-diazepan-1-ylsulfonyl)isoquinolin-1-amine

>  <Num_Not_Resolved_Atoms>  (204) 
0

>  <ATP_Site>  (204) 
True

>  <Peripheral>  (204) 
False

>  <Standardized_SMILES>  (204) 
[H]C1=C([H])C2=C(S(=O)(=O)N3C([H])([H])C([H])([H])C([H])([H])[N+]([H])([H])C([H])([H])C3([H])[H])C([H])=C([H])C([H])=C2C(N([H])[H])=N1

>  <2D_Mol_H>  (204) 
<rdkit.Chem.rdchem.Mol object at 0x77059d81d460>

>  <MW>  (204) 
307.399

>  <HBA>  (204) 
4

>  <HBD>  (204) 
2

>  <LogP>  (204) 
-0.2252

>  <NRB>  (204) 
3

>  <TPSA>  (204) 
92.9

>  <Num_Heavy_Atoms>  (204) 
21

>  <Ro5>  (204) 
[True, True, True, True, True, True]

>  <Ro5_Fulfilled>  (204) 
True

>  <Ro3>  (204) 
[False, False, True, True]

>  <Ro3_Fulfilled>  (204) 
False

>  <Fsp3>  (204) 
0.357143

>  <Fsp3_0.42>  (204) 
False

>  <Fsp3_0.45>  (204) 
False

>  <Stereogenic_Carbons>  (204) 
0

>  <C_Atoms>  (204) 
14

>  <FCStereo>  (204) 
0.0

>  <SPS>  (204) 
372

>  <nSPS>  (204) 
17.714286

>  <PBF>  (204) 
0.921016

>  <PBF_0.6>  (204) 
True

>  <nPBF>  (204) 
0.043858

>  <nPBF_0.016>  (204) 
True

>  <PMI1>  (204) 
826.318699

>  <PMI2>  (204) 
2875.683503

>  <PMI3>  (204) 
3179.421769

>  <NPR1>  (204) 
0.259896

>  <NPR2>  (204) 
0.904467

>  <Sum_NPR>  (204) 
1.164363

>  <Sum_NPR_1.07>  (204) 
True

>  <Sum_NPR_1.2>  (204) 
False

>  <MaxAbsEStateIndex>  (204) 
12.916098

>  <MaxEStateIndex>  (204) 
12.916098

>  <MinAbsEStateIndex>  (204) 
0.315741

>  <MinEStateIndex>  (204) 
-3.498727

>  <qed>  (204) 
0.801674

>  <MolWt>  (204) 
307.399

>  <HeavyAtomMolWt>  (204) 
288.247

>  <ExactMolWt>  (204) 
307.122323

>  <NumValenceElectrons>  (204) 
112

>  <NumRadicalElectrons>  (204) 
0

>  <MaxPartialCharge>  (204) 
0.243398

>  <MinPartialCharge>  (204) 
-0.383185

>  <MaxAbsPartialCharge>  (204) 
0.383185

>  <MinAbsPartialCharge>  (204) 
0.243398

>  <FpDensityMorgan1>  (204) 
1.142857

>  <FpDensityMorgan2>  (204) 
2.0

>  <FpDensityMorgan3>  (204) 
2.857143

>  <BCUT2D_MWHI>  (204) 
32.233427

>  <BCUT2D_MWLOW>  (204) 
10.149619

>  <BCUT2D_CHGHI>  (204) 
2.272593

>  <BCUT2D_CHGLO>  (204) 
-2.195025

>  <BCUT2D_LOGPHI>  (204) 
2.274866

>  <BCUT2D_LOGPLOW>  (204) 
-2.843702

>  <BCUT2D_MRHI>  (204) 
7.889655

>  <BCUT2D_MRLOW>  (204) 
-0.650697

>  <AvgIpc>  (204) 
2.765329

>  <BalabanJ>  (204) 
2.122793

>  <BertzCT>  (204) 
752.658101

>  <Chi0>  (204) 
14.872033

>  <Chi0n>  (204) 
11.696158

>  <Chi0v>  (204) 
12.512654

>  <Chi1>  (204) 
10.10419

>  <Chi1n>  (204) 
7.05549

>  <Chi1v>  (204) 
8.495553

>  <Chi2n>  (204) 
5.171127

>  <Chi2v>  (204) 
7.077483

>  <Chi3n>  (204) 
3.81311

>  <Chi3v>  (204) 
5.769903

>  <Chi4n>  (204) 
2.708717

>  <Chi4v>  (204) 
4.408554

>  <HallKierAlpha>  (204) 
-1.7

>  <Ipc>  (204) 
81538.479715

>  <Kappa1>  (204) 
14.246241

>  <Kappa2>  (204) 
5.590551

>  <Kappa3>  (204) 
2.593287

>  <LabuteASA>  (204) 
123.561957

>  <PEOE_VSA1>  (204) 
11.050456

>  <PEOE_VSA10>  (204) 
5.817863

>  <PEOE_VSA11>  (204) 
0.0

>  <PEOE_VSA12>  (204) 
10.023291

>  <PEOE_VSA13>  (204) 
0.0

>  <PEOE_VSA14>  (204) 
0.0

>  <PEOE_VSA2>  (204) 
0.0

>  <PEOE_VSA3>  (204) 
13.401776

>  <PEOE_VSA4>  (204) 
4.305216

>  <PEOE_VSA5>  (204) 
0.0

>  <PEOE_VSA6>  (204) 
12.132734

>  <PEOE_VSA7>  (204) 
12.132734

>  <PEOE_VSA8>  (204) 
29.93487

>  <PEOE_VSA9>  (204) 
24.529753

>  <SMR_VSA1>  (204) 
13.734586

>  <SMR_VSA10>  (204) 
26.613602

>  <SMR_VSA2>  (204) 
0.0

>  <SMR_VSA3>  (204) 
9.289195

>  <SMR_VSA4>  (204) 
0.0

>  <SMR_VSA5>  (204) 
11.316305

>  <SMR_VSA6>  (204) 
31.912693

>  <SMR_VSA7>  (204) 
30.462312

>  <SMR_VSA8>  (204) 
0.0

>  <SMR_VSA9>  (204) 
0.0

>  <SlogP_VSA1>  (204) 
11.050456

>  <SlogP_VSA10>  (204) 
5.817863

>  <SlogP_VSA11>  (204) 
0.0

>  <SlogP_VSA12>  (204) 
0.0

>  <SlogP_VSA2>  (204) 
43.886017

>  <SlogP_VSA3>  (204) 
10.023291

>  <SlogP_VSA4>  (204) 
0.0

>  <SlogP_VSA5>  (204) 
6.420822

>  <SlogP_VSA6>  (204) 
35.357795

>  <SlogP_VSA7>  (204) 
0.0

>  <SlogP_VSA8>  (204) 
10.772448

>  <SlogP_VSA9>  (204) 
0.0

>  <EState_VSA1>  (204) 
10.023291

>  <EState_VSA10>  (204) 
8.417797

>  <EState_VSA11>  (204) 
0.0

>  <EState_VSA2>  (204) 
0.0

>  <EState_VSA3>  (204) 
34.575307

>  <EState_VSA4>  (204) 
19.510334

>  <EState_VSA5>  (204) 
0.0

>  <EState_VSA6>  (204) 
34.767528

>  <EState_VSA7>  (204) 
0.0

>  <EState_VSA8>  (204) 
10.300767

>  <EState_VSA9>  (204) 
5.733667

>  <VSA_EState1>  (204) 
27.403518

>  <VSA_EState10>  (204) 
0.0

>  <VSA_EState2>  (204) 
4.338092

>  <VSA_EState3>  (204) 
3.471067

>  <VSA_EState4>  (204) 
5.847295

>  <VSA_EState5>  (204) 
0.355324

>  <VSA_EState6>  (204) 
6.873342

>  <VSA_EState7>  (204) 
2.417243

>  <VSA_EState8>  (204) 
2.87618

>  <VSA_EState9>  (204) 
-3.498727

>  <FractionCSP3>  (204) 
0.357143

>  <HeavyAtomCount>  (204) 
21

>  <NHOHCount>  (204) 
4

>  <NOCount>  (204) 
6

>  <NumAliphaticCarbocycles>  (204) 
0

>  <NumAliphaticHeterocycles>  (204) 
1

>  <NumAliphaticRings>  (204) 
1

>  <NumAromaticCarbocycles>  (204) 
1

>  <NumAromaticHeterocycles>  (204) 
1

>  <NumAromaticRings>  (204) 
2

>  <NumHAcceptors>  (204) 
4

>  <NumHDonors>  (204) 
2

>  <NumHeteroatoms>  (204) 
7

>  <NumRotatableBonds>  (204) 
2

>  <NumSaturatedCarbocycles>  (204) 
0

>  <NumSaturatedHeterocycles>  (204) 
1

>  <NumSaturatedRings>  (204) 
1

>  <RingCount>  (204) 
3

>  <MolLogP>  (204) 
-0.2252

>  <MolMR>  (204) 
81.1906

>  <fr_Al_COO>  (204) 
0

>  <fr_Al_OH>  (204) 
0

>  <fr_Al_OH_noTert>  (204) 
0

>  <fr_ArN>  (204) 
1

>  <fr_Ar_COO>  (204) 
0

>  <fr_Ar_N>  (204) 
1

>  <fr_Ar_NH>  (204) 
0

>  <fr_Ar_OH>  (204) 
0

>  <fr_COO>  (204) 
0

>  <fr_COO2>  (204) 
0

>  <fr_C_O>  (204) 
0

>  <fr_C_O_noCOO>  (204) 
0

>  <fr_C_S>  (204) 
0

>  <fr_HOCCN>  (204) 
0

>  <fr_Imine>  (204) 
0

>  <fr_NH0>  (204) 
2

>  <fr_NH1>  (204) 
0

>  <fr_NH2>  (204) 
2

>  <fr_N_O>  (204) 
0

>  <fr_Ndealkylation1>  (204) 
0

>  <fr_Ndealkylation2>  (204) 
0

>  <fr_Nhpyrrole>  (204) 
0

>  <fr_SH>  (204) 
0

>  <fr_aldehyde>  (204) 
0

>  <fr_alkyl_carbamate>  (204) 
0

>  <fr_alkyl_halide>  (204) 
0

>  <fr_allylic_oxid>  (204) 
0

>  <fr_amide>  (204) 
0

>  <fr_amidine>  (204) 
0

>  <fr_aniline>  (204) 
1

>  <fr_aryl_methyl>  (204) 
0

>  <fr_azide>  (204) 
0

>  <fr_azo>  (204) 
0

>  <fr_barbitur>  (204) 
0

>  <fr_benzene>  (204) 
1

>  <fr_benzodiazepine>  (204) 
0

>  <fr_bicyclic>  (204) 
1

>  <fr_diazo>  (204) 
0

>  <fr_dihydropyridine>  (204) 
0

>  <fr_epoxide>  (204) 
0

>  <fr_ester>  (204) 
0

>  <fr_ether>  (204) 
0

>  <fr_furan>  (204) 
0

>  <fr_guanido>  (204) 
0

>  <fr_halogen>  (204) 
0

>  <fr_hdrzine>  (204) 
0

>  <fr_hdrzone>  (204) 
0

>  <fr_imidazole>  (204) 
0

>  <fr_imide>  (204) 
0

>  <fr_isocyan>  (204) 
0

>  <fr_isothiocyan>  (204) 
0

>  <fr_ketone>  (204) 
0

>  <fr_ketone_Topliss>  (204) 
0

>  <fr_lactam>  (204) 
0

>  <fr_lactone>  (204) 
0

>  <fr_methoxy>  (204) 
0

>  <fr_morpholine>  (204) 
0

>  <fr_nitrile>  (204) 
0

>  <fr_nitro>  (204) 
0

>  <fr_nitro_arom>  (204) 
0

>  <fr_nitro_arom_nonortho>  (204) 
0

>  <fr_nitroso>  (204) 
0

>  <fr_oxazole>  (204) 
0

>  <fr_oxime>  (204) 
0

>  <fr_para_hydroxylation>  (204) 
0

>  <fr_phenol>  (204) 
0

>  <fr_phenol_noOrthoHbond>  (204) 
0

>  <fr_phos_acid>  (204) 
0

>  <fr_phos_ester>  (204) 
0

>  <fr_piperdine>  (204) 
0

>  <fr_piperzine>  (204) 
0

>  <fr_priamide>  (204) 
0

>  <fr_prisulfonamd>  (204) 
0

>  <fr_pyridine>  (204) 
1

>  <fr_quatN>  (204) 
1

>  <fr_sulfide>  (204) 
0

>  <fr_sulfonamd>  (204) 
1

>  <fr_sulfone>  (204) 
0

>  <fr_term_acetylene>  (204) 
0

>  <fr_tetrazole>  (204) 
0

>  <fr_thiazole>  (204) 
0

>  <fr_thiocyan>  (204) 
0

>  <fr_thiophene>  (204) 
0

>  <fr_unbrch_alkane>  (204) 
0

>  <fr_urea>  (204) 
0

>  <NP_Likeness>  (204) 
-1.236594

$$$$
LRT
     RDKit          3D

  0  0  0  0  0  0  0  0  0  0999 V3000
M  V30 BEGIN CTAB
M  V30 COUNTS 40 42 0 0 0
M  V30 BEGIN ATOM
M  V30 1 S -27.888000 -9.929000 -4.895000 0
M  V30 2 O -27.593000 -11.261000 -5.318000 0
M  V30 3 O -28.216000 -8.926000 -5.860000 0
M  V30 4 N -33.631000 -9.755000 -1.935000 0
M  V30 5 N -24.187000 -7.522000 -3.011000 0 CHG=1
M  V30 6 N -33.315000 -9.918000 -4.271000 0
M  V30 7 N -26.579000 -9.389000 -4.086000 0
M  V30 8 C -25.640000 -7.455000 -2.792000 0
M  V30 9 C -23.642000 -8.892000 -2.941000 0
M  V30 10 C -32.450000 -9.950000 -5.292000 0
M  V30 11 C -26.362000 -7.927000 -4.073000 0
M  V30 12 C -25.435000 -10.324000 -4.024000 0
M  V30 13 C -24.058000 -9.702000 -4.150000 0
M  V30 14 C -29.459000 -10.095000 -1.248000 0
M  V30 15 C -31.093000 -9.986000 -5.151000 0
M  V30 16 C -28.603000 -10.047000 -2.334000 0
M  V30 17 C -30.810000 -10.080000 -1.422000 0
M  V30 18 C -29.098000 -10.010000 -3.608000 0
M  V30 19 C -32.798000 -9.928000 -2.965000 0
M  V30 20 C -30.511000 -10.016000 -3.851000 0
M  V30 21 C -31.376000 -10.020000 -2.720000 0
M  V30 22 H -33.277300 -9.759700 -0.999600 0
M  V30 23 H -34.608200 -9.620800 -2.099400 0
M  V30 24 H -23.736000 -6.966200 -2.312700 0
M  V30 25 H -25.905100 -6.513200 -2.585000 0
M  V30 26 H -25.891800 -8.047900 -2.027100 0
M  V30 27 H -23.984300 -9.338600 -2.114300 0
M  V30 28 H -22.643700 -8.845700 -2.905800 0
M  V30 29 H -32.822900 -9.947400 -6.219900 0
M  V30 30 H -27.249300 -7.469300 -4.129600 0
M  V30 31 H -25.806800 -7.676900 -4.866200 0
M  V30 32 H -25.540500 -10.985700 -4.766300 0
M  V30 33 H -25.476300 -10.799500 -3.145300 0
M  V30 34 H -23.391400 -10.435500 -4.282900 0
M  V30 35 H -24.055400 -9.100500 -4.948900 0
M  V30 36 H -29.081000 -10.141300 -0.323400 0
M  V30 37 H -30.506600 -9.991300 -5.961000 0
M  V30 38 H -27.614100 -10.039300 -2.185900 0
M  V30 39 H -31.410600 -10.111800 -0.623100 0
M  V30 40 H -23.986000 -7.147600 -3.916200 0
M  V30 END ATOM
M  V30 BEGIN BOND
M  V30 1 2 1 2
M  V30 2 2 1 3
M  V30 3 1 1 7
M  V30 4 1 1 18
M  V30 5 1 4 19
M  V30 6 1 5 8
M  V30 7 1 5 9
M  V30 8 2 6 10
M  V30 9 1 6 19
M  V30 10 1 7 11
M  V30 11 1 7 12
M  V30 12 1 8 11
M  V30 13 1 9 13
M  V30 14 1 10 15
M  V30 15 1 12 13
M  V30 16 1 14 16
M  V30 17 2 14 17
M  V30 18 2 15 20
M  V30 19 2 16 18
M  V30 20 1 17 21
M  V30 21 1 18 20
M  V30 22 2 19 21
M  V30 23 1 20 21
M  V30 24 1 4 22
M  V30 25 1 4 23
M  V30 26 1 5 24
M  V30 27 1 8 25
M  V30 28 1 8 26
M  V30 29 1 9 27
M  V30 30 1 9 28
M  V30 31 1 10 29
M  V30 32 1 11 30
M  V30 33 1 11 31
M  V30 34 1 12 32
M  V30 35 1 12 33
M  V30 36 1 13 34
M  V30 37 1 13 35
M  V30 38 1 14 36
M  V30 39 1 15 37
M  V30 40 1 16 38
M  V30 41 1 17 39
M  V30 42 1 5 40
M  V30 END BOND
M  V30 END CTAB
M  END
>  <Ligand_Instance>  (205) 
6YNT_LRT_A_405

>  <Dataset>  (205) 
PDB

>  <PDB_ID>  (205) 
6YNT

>  <Chain>  (205) 
A

>  <Resi>  (205) 
405

>  <Num_Resolved_Atoms>  (205) 
21

>  <Num_H_Atoms_ProtBoundConf>  (205) 
19

>  <Pocket>  (205) 
A

>  <Name>  (205) 
5-(1,4-diazepan-1-ylsulfonyl)isoquinolin-1-amine

>  <Num_Not_Resolved_Atoms>  (205) 
0

>  <ATP_Site>  (205) 
True

>  <Peripheral>  (205) 
False

>  <Standardized_SMILES>  (205) 
[H]C1=C([H])C2=C(S(=O)(=O)N3C([H])([H])C([H])([H])C([H])([H])[N+]([H])([H])C([H])([H])C3([H])[H])C([H])=C([H])C([H])=C2C(N([H])[H])=N1

>  <2D_Mol_H>  (205) 
<rdkit.Chem.rdchem.Mol object at 0x77059d81d540>

>  <MW>  (205) 
307.399

>  <HBA>  (205) 
4

>  <HBD>  (205) 
2

>  <LogP>  (205) 
-0.2252

>  <NRB>  (205) 
3

>  <TPSA>  (205) 
92.9

>  <Num_Heavy_Atoms>  (205) 
21

>  <Ro5>  (205) 
[True, True, True, True, True, True]

>  <Ro5_Fulfilled>  (205) 
True

>  <Ro3>  (205) 
[False, False, True, True]

>  <Ro3_Fulfilled>  (205) 
False

>  <Fsp3>  (205) 
0.357143

>  <Fsp3_0.42>  (205) 
False

>  <Fsp3_0.45>  (205) 
False

>  <Stereogenic_Carbons>  (205) 
0

>  <C_Atoms>  (205) 
14

>  <FCStereo>  (205) 
0.0

>  <SPS>  (205) 
372

>  <nSPS>  (205) 
17.714286

>  <PBF>  (205) 
0.847411

>  <PBF_0.6>  (205) 
True

>  <nPBF>  (205) 
0.040353

>  <nPBF_0.016>  (205) 
True

>  <PMI1>  (205) 
740.825937

>  <PMI2>  (205) 
3081.809196

>  <PMI3>  (205) 
3422.120136

>  <NPR1>  (205) 
0.216482

>  <NPR2>  (205) 
0.900556

>  <Sum_NPR>  (205) 
1.117037

>  <Sum_NPR_1.07>  (205) 
True

>  <Sum_NPR_1.2>  (205) 
False

>  <MaxAbsEStateIndex>  (205) 
12.916098

>  <MaxEStateIndex>  (205) 
12.916098

>  <MinAbsEStateIndex>  (205) 
0.315741

>  <MinEStateIndex>  (205) 
-3.498727

>  <qed>  (205) 
0.801674

>  <MolWt>  (205) 
307.399

>  <HeavyAtomMolWt>  (205) 
288.247

>  <ExactMolWt>  (205) 
307.122323

>  <NumValenceElectrons>  (205) 
112

>  <NumRadicalElectrons>  (205) 
0

>  <MaxPartialCharge>  (205) 
0.243398

>  <MinPartialCharge>  (205) 
-0.383185

>  <MaxAbsPartialCharge>  (205) 
0.383185

>  <MinAbsPartialCharge>  (205) 
0.243398

>  <FpDensityMorgan1>  (205) 
1.142857

>  <FpDensityMorgan2>  (205) 
2.0

>  <FpDensityMorgan3>  (205) 
2.857143

>  <BCUT2D_MWHI>  (205) 
32.233427

>  <BCUT2D_MWLOW>  (205) 
10.149619

>  <BCUT2D_CHGHI>  (205) 
2.272593

>  <BCUT2D_CHGLO>  (205) 
-2.195025

>  <BCUT2D_LOGPHI>  (205) 
2.274866

>  <BCUT2D_LOGPLOW>  (205) 
-2.843702

>  <BCUT2D_MRHI>  (205) 
7.889655

>  <BCUT2D_MRLOW>  (205) 
-0.650697

>  <AvgIpc>  (205) 
2.765329

>  <BalabanJ>  (205) 
2.122793

>  <BertzCT>  (205) 
752.658101

>  <Chi0>  (205) 
14.872033

>  <Chi0n>  (205) 
11.696158

>  <Chi0v>  (205) 
12.512654

>  <Chi1>  (205) 
10.10419

>  <Chi1n>  (205) 
7.05549

>  <Chi1v>  (205) 
8.495553

>  <Chi2n>  (205) 
5.171127

>  <Chi2v>  (205) 
7.077483

>  <Chi3n>  (205) 
3.81311

>  <Chi3v>  (205) 
5.769903

>  <Chi4n>  (205) 
2.708717

>  <Chi4v>  (205) 
4.408554

>  <HallKierAlpha>  (205) 
-1.7

>  <Ipc>  (205) 
81538.479715

>  <Kappa1>  (205) 
14.246241

>  <Kappa2>  (205) 
5.590551

>  <Kappa3>  (205) 
2.593287

>  <LabuteASA>  (205) 
123.561957

>  <PEOE_VSA1>  (205) 
11.050456

>  <PEOE_VSA10>  (205) 
5.817863

>  <PEOE_VSA11>  (205) 
0.0

>  <PEOE_VSA12>  (205) 
10.023291

>  <PEOE_VSA13>  (205) 
0.0

>  <PEOE_VSA14>  (205) 
0.0

>  <PEOE_VSA2>  (205) 
0.0

>  <PEOE_VSA3>  (205) 
13.401776

>  <PEOE_VSA4>  (205) 
4.305216

>  <PEOE_VSA5>  (205) 
0.0

>  <PEOE_VSA6>  (205) 
12.132734

>  <PEOE_VSA7>  (205) 
12.132734

>  <PEOE_VSA8>  (205) 
29.93487

>  <PEOE_VSA9>  (205) 
24.529753

>  <SMR_VSA1>  (205) 
13.734586

>  <SMR_VSA10>  (205) 
26.613602

>  <SMR_VSA2>  (205) 
0.0

>  <SMR_VSA3>  (205) 
9.289195

>  <SMR_VSA4>  (205) 
0.0

>  <SMR_VSA5>  (205) 
11.316305

>  <SMR_VSA6>  (205) 
31.912693

>  <SMR_VSA7>  (205) 
30.462312

>  <SMR_VSA8>  (205) 
0.0

>  <SMR_VSA9>  (205) 
0.0

>  <SlogP_VSA1>  (205) 
11.050456

>  <SlogP_VSA10>  (205) 
5.817863

>  <SlogP_VSA11>  (205) 
0.0

>  <SlogP_VSA12>  (205) 
0.0

>  <SlogP_VSA2>  (205) 
43.886017

>  <SlogP_VSA3>  (205) 
10.023291

>  <SlogP_VSA4>  (205) 
0.0

>  <SlogP_VSA5>  (205) 
6.420822

>  <SlogP_VSA6>  (205) 
35.357795

>  <SlogP_VSA7>  (205) 
0.0

>  <SlogP_VSA8>  (205) 
10.772448

>  <SlogP_VSA9>  (205) 
0.0

>  <EState_VSA1>  (205) 
10.023291

>  <EState_VSA10>  (205) 
8.417797

>  <EState_VSA11>  (205) 
0.0

>  <EState_VSA2>  (205) 
0.0

>  <EState_VSA3>  (205) 
34.575307

>  <EState_VSA4>  (205) 
19.510334

>  <EState_VSA5>  (205) 
0.0

>  <EState_VSA6>  (205) 
34.767528

>  <EState_VSA7>  (205) 
0.0

>  <EState_VSA8>  (205) 
10.300767

>  <EState_VSA9>  (205) 
5.733667

>  <VSA_EState1>  (205) 
27.403518

>  <VSA_EState10>  (205) 
0.0

>  <VSA_EState2>  (205) 
4.338092

>  <VSA_EState3>  (205) 
3.471067

>  <VSA_EState4>  (205) 
5.847295

>  <VSA_EState5>  (205) 
0.355324

>  <VSA_EState6>  (205) 
6.873342

>  <VSA_EState7>  (205) 
2.417243

>  <VSA_EState8>  (205) 
2.87618

>  <VSA_EState9>  (205) 
-3.498727

>  <FractionCSP3>  (205) 
0.357143

>  <HeavyAtomCount>  (205) 
21

>  <NHOHCount>  (205) 
4

>  <NOCount>  (205) 
6

>  <NumAliphaticCarbocycles>  (205) 
0

>  <NumAliphaticHeterocycles>  (205) 
1

>  <NumAliphaticRings>  (205) 
1

>  <NumAromaticCarbocycles>  (205) 
1

>  <NumAromaticHeterocycles>  (205) 
1

>  <NumAromaticRings>  (205) 
2

>  <NumHAcceptors>  (205) 
4

>  <NumHDonors>  (205) 
2

>  <NumHeteroatoms>  (205) 
7

>  <NumRotatableBonds>  (205) 
2

>  <NumSaturatedCarbocycles>  (205) 
0

>  <NumSaturatedHeterocycles>  (205) 
1

>  <NumSaturatedRings>  (205) 
1

>  <RingCount>  (205) 
3

>  <MolLogP>  (205) 
-0.2252

>  <MolMR>  (205) 
81.1906

>  <fr_Al_COO>  (205) 
0

>  <fr_Al_OH>  (205) 
0

>  <fr_Al_OH_noTert>  (205) 
0

>  <fr_ArN>  (205) 
1

>  <fr_Ar_COO>  (205) 
0

>  <fr_Ar_N>  (205) 
1

>  <fr_Ar_NH>  (205) 
0

>  <fr_Ar_OH>  (205) 
0

>  <fr_COO>  (205) 
0

>  <fr_COO2>  (205) 
0

>  <fr_C_O>  (205) 
0

>  <fr_C_O_noCOO>  (205) 
0

>  <fr_C_S>  (205) 
0

>  <fr_HOCCN>  (205) 
0

>  <fr_Imine>  (205) 
0

>  <fr_NH0>  (205) 
2

>  <fr_NH1>  (205) 
0

>  <fr_NH2>  (205) 
2

>  <fr_N_O>  (205) 
0

>  <fr_Ndealkylation1>  (205) 
0

>  <fr_Ndealkylation2>  (205) 
0

>  <fr_Nhpyrrole>  (205) 
0

>  <fr_SH>  (205) 
0

>  <fr_aldehyde>  (205) 
0

>  <fr_alkyl_carbamate>  (205) 
0

>  <fr_alkyl_halide>  (205) 
0

>  <fr_allylic_oxid>  (205) 
0

>  <fr_amide>  (205) 
0

>  <fr_amidine>  (205) 
0

>  <fr_aniline>  (205) 
1

>  <fr_aryl_methyl>  (205) 
0

>  <fr_azide>  (205) 
0

>  <fr_azo>  (205) 
0

>  <fr_barbitur>  (205) 
0

>  <fr_benzene>  (205) 
1

>  <fr_benzodiazepine>  (205) 
0

>  <fr_bicyclic>  (205) 
1

>  <fr_diazo>  (205) 
0

>  <fr_dihydropyridine>  (205) 
0

>  <fr_epoxide>  (205) 
0

>  <fr_ester>  (205) 
0

>  <fr_ether>  (205) 
0

>  <fr_furan>  (205) 
0

>  <fr_guanido>  (205) 
0

>  <fr_halogen>  (205) 
0

>  <fr_hdrzine>  (205) 
0

>  <fr_hdrzone>  (205) 
0

>  <fr_imidazole>  (205) 
0

>  <fr_imide>  (205) 
0

>  <fr_isocyan>  (205) 
0

>  <fr_isothiocyan>  (205) 
0

>  <fr_ketone>  (205) 
0

>  <fr_ketone_Topliss>  (205) 
0

>  <fr_lactam>  (205) 
0

>  <fr_lactone>  (205) 
0

>  <fr_methoxy>  (205) 
0

>  <fr_morpholine>  (205) 
0

>  <fr_nitrile>  (205) 
0

>  <fr_nitro>  (205) 
0

>  <fr_nitro_arom>  (205) 
0

>  <fr_nitro_arom_nonortho>  (205) 
0

>  <fr_nitroso>  (205) 
0

>  <fr_oxazole>  (205) 
0

>  <fr_oxime>  (205) 
0

>  <fr_para_hydroxylation>  (205) 
0

>  <fr_phenol>  (205) 
0

>  <fr_phenol_noOrthoHbond>  (205) 
0

>  <fr_phos_acid>  (205) 
0

>  <fr_phos_ester>  (205) 
0

>  <fr_piperdine>  (205) 
0

>  <fr_piperzine>  (205) 
0

>  <fr_priamide>  (205) 
0

>  <fr_prisulfonamd>  (205) 
0

>  <fr_pyridine>  (205) 
1

>  <fr_quatN>  (205) 
1

>  <fr_sulfide>  (205) 
0

>  <fr_sulfonamd>  (205) 
1

>  <fr_sulfone>  (205) 
0

>  <fr_term_acetylene>  (205) 
0

>  <fr_tetrazole>  (205) 
0

>  <fr_thiazole>  (205) 
0

>  <fr_thiocyan>  (205) 
0

>  <fr_thiophene>  (205) 
0

>  <fr_unbrch_alkane>  (205) 
0

>  <fr_urea>  (205) 
0

>  <NP_Likeness>  (205) 
-1.236594

$$$$
M01
     RDKit          3D

  0  0  0  0  0  0  0  0  0  0999 V3000
M  V30 BEGIN CTAB
M  V30 COUNTS 34 36 0 0 0
M  V30 BEGIN ATOM
M  V30 1 N 11.166000 6.968000 2.795000 0 CHG=1
M  V30 2 N 2.940000 9.613000 3.955000 0
M  V30 3 N 2.955000 9.548000 1.521000 0
M  V30 4 N 5.152000 9.889000 4.865000 0
M  V30 5 N 5.133000 9.782000 1.145000 0
M  V30 6 N 7.105000 10.055000 3.565000 0
M  V30 7 C 3.822000 9.765000 4.945000 0
M  V30 8 C 3.934000 9.630000 0.596000 0
M  V30 9 C 10.405000 7.411000 3.995000 0
M  V30 10 C 7.900000 9.807000 2.355000 0
M  V30 11 C 7.977000 10.300000 4.715000 0
M  V30 12 C 8.807000 8.610000 2.529000 0
M  V30 13 C 8.850000 9.095000 4.990000 0
M  V30 14 C 3.526000 9.650000 2.753000 0
M  V30 15 C 5.705000 9.911000 3.639000 0
M  V30 16 C 9.698000 8.726000 3.770000 0
M  V30 17 C 4.878000 9.789000 2.525000 0
M  V30 18 H 11.616300 6.096400 2.988900 0
M  V30 19 H 10.538000 6.854800 2.025100 0
M  V30 20 H 3.438500 9.789400 5.868200 0
M  V30 21 H 3.774600 9.581800 -0.390000 0
M  V30 22 H 11.041200 7.514300 4.759500 0
M  V30 23 H 9.724200 6.713900 4.219800 0
M  V30 24 H 8.458600 10.613500 2.161400 0
M  V30 25 H 7.281300 9.638000 1.587800 0
M  V30 26 H 7.414000 10.488100 5.519800 0
M  V30 27 H 8.559000 11.090200 4.523300 0
M  V30 28 H 9.390900 8.529700 1.721100 0
M  V30 29 H 8.242200 7.789300 2.615000 0
M  V30 30 H 8.266400 8.318300 5.227000 0
M  V30 31 H 9.457200 9.302000 5.757100 0
M  V30 32 H 10.379600 9.441600 3.617200 0
M  V30 33 H 11.855000 7.655200 2.564800 0
M  V30 34 H 1.979400 9.432400 1.334200 0
M  V30 END ATOM
M  V30 BEGIN BOND
M  V30 1 1 1 9
M  V30 2 2 2 7
M  V30 3 1 2 14
M  V30 4 1 3 8
M  V30 5 1 3 14
M  V30 6 1 4 7
M  V30 7 2 4 15
M  V30 8 2 5 8
M  V30 9 1 5 17
M  V30 10 1 6 10
M  V30 11 1 6 11
M  V30 12 1 6 15
M  V30 13 1 9 16
M  V30 14 1 10 12
M  V30 15 1 11 13
M  V30 16 1 12 16
M  V30 17 1 13 16
M  V30 18 2 14 17
M  V30 19 1 15 17
M  V30 20 1 1 18
M  V30 21 1 1 19
M  V30 22 1 3 34
M  V30 23 1 7 20
M  V30 24 1 8 21
M  V30 25 1 9 22
M  V30 26 1 9 23
M  V30 27 1 10 24
M  V30 28 1 10 25
M  V30 29 1 11 26
M  V30 30 1 11 27
M  V30 31 1 12 28
M  V30 32 1 12 29
M  V30 33 1 13 30
M  V30 34 1 13 31
M  V30 35 1 16 32
M  V30 36 1 1 33
M  V30 END BOND
M  V30 END CTAB
M  END
>  <Ligand_Instance>  (206) 
2VNW_M01_A_1351

>  <Dataset>  (206) 
PDB

>  <PDB_ID>  (206) 
2VNW

>  <Chain>  (206) 
A

>  <Resi>  (206) 
1351

>  <Num_Resolved_Atoms>  (206) 
17

>  <Num_H_Atoms_ProtBoundConf>  (206) 
17

>  <Pocket>  (206) 
A

>  <Name>  (206) 
1-[1-(9H-purin-6-yl)piperidin-4-yl]methanamine

>  <Num_Not_Resolved_Atoms>  (206) 
0

>  <ATP_Site>  (206) 
True

>  <Peripheral>  (206) 
False

>  <Standardized_SMILES>  (206) 
[H]C1=NC2=C(N=C([H])N2[H])C(N2C([H])([H])C([H])([H])C([H])(C([H])([H])[N+]([H])([H])[H])C([H])([H])C2([H])[H])=N1

>  <2D_Mol_H>  (206) 
<rdkit.Chem.rdchem.Mol object at 0x77059d81d620>

>  <MW>  (206) 
233.299

>  <HBA>  (206) 
4

>  <HBD>  (206) 
2

>  <LogP>  (206) 
-0.1888

>  <NRB>  (206) 
3

>  <TPSA>  (206) 
85.34

>  <Num_Heavy_Atoms>  (206) 
17

>  <Ro5>  (206) 
[True, True, True, True, True, True]

>  <Ro5_Fulfilled>  (206) 
True

>  <Ro3>  (206) 
[True, False, True, True]

>  <Ro3_Fulfilled>  (206) 
True

>  <Fsp3>  (206) 
0.545455

>  <Fsp3_0.42>  (206) 
True

>  <Fsp3_0.45>  (206) 
True

>  <Stereogenic_Carbons>  (206) 
0

>  <C_Atoms>  (206) 
11

>  <FCStereo>  (206) 
0.0

>  <SPS>  (206) 
303

>  <nSPS>  (206) 
17.823529

>  <PBF>  (206) 
0.734106

>  <PBF_0.6>  (206) 
True

>  <nPBF>  (206) 
0.043183

>  <nPBF_0.016>  (206) 
True

>  <PMI1>  (206) 
505.201135

>  <PMI2>  (206) 
1931.206393

>  <PMI3>  (206) 
2238.426628

>  <NPR1>  (206) 
0.225695

>  <NPR2>  (206) 
0.862752

>  <Sum_NPR>  (206) 
1.088446

>  <Sum_NPR_1.07>  (206) 
True

>  <Sum_NPR_1.2>  (206) 
False

>  <MaxAbsEStateIndex>  (206) 
4.370334

>  <MaxEStateIndex>  (206) 
4.370334

>  <MinAbsEStateIndex>  (206) 
0.766446

>  <MinEStateIndex>  (206) 
0.766446

>  <qed>  (206) 
0.752637

>  <MolWt>  (206) 
233.299

>  <HeavyAtomMolWt>  (206) 
216.163

>  <ExactMolWt>  (206) 
233.150921

>  <NumValenceElectrons>  (206) 
90

>  <NumRadicalElectrons>  (206) 
0

>  <MaxPartialCharge>  (206) 
0.16229

>  <MinPartialCharge>  (206) 
-0.357329

>  <MaxAbsPartialCharge>  (206) 
0.357329

>  <MinAbsPartialCharge>  (206) 
0.16229

>  <FpDensityMorgan1>  (206) 
1.294118

>  <FpDensityMorgan2>  (206) 
2.117647

>  <FpDensityMorgan3>  (206) 
2.882353

>  <BCUT2D_MWHI>  (206) 
15.213232

>  <BCUT2D_MWLOW>  (206) 
9.970366

>  <BCUT2D_CHGHI>  (206) 
2.217972

>  <BCUT2D_CHGLO>  (206) 
-2.30802

>  <BCUT2D_LOGPHI>  (206) 
2.242981

>  <BCUT2D_LOGPLOW>  (206) 
-2.550782

>  <BCUT2D_MRHI>  (206) 
5.821412

>  <BCUT2D_MRLOW>  (206) 
-0.379448

>  <AvgIpc>  (206) 
2.867477

>  <BalabanJ>  (206) 
1.8682

>  <BertzCT>  (206) 
499.385894

>  <Chi0>  (206) 
11.664926

>  <Chi0n>  (206) 
9.763546

>  <Chi0v>  (206) 
9.763546

>  <Chi1>  (206) 
8.381341

>  <Chi1n>  (206) 
6.064899

>  <Chi1v>  (206) 
6.064899

>  <Chi2n>  (206) 
4.516125

>  <Chi2v>  (206) 
4.516125

>  <Chi3n>  (206) 
3.520192

>  <Chi3v>  (206) 
3.520192

>  <Chi4n>  (206) 
2.416807

>  <Chi4v>  (206) 
2.416807

>  <HallKierAlpha>  (206) 
-1.69

>  <Ipc>  (206) 
17812.766569

>  <Kappa1>  (206) 
10.463099

>  <Kappa2>  (206) 
4.289689

>  <Kappa3>  (206) 
1.842105

>  <LabuteASA>  (206) 
99.264718

>  <PEOE_VSA1>  (206) 
15.617556

>  <PEOE_VSA10>  (206) 
11.844021

>  <PEOE_VSA11>  (206) 
11.46504

>  <PEOE_VSA12>  (206) 
0.0

>  <PEOE_VSA13>  (206) 
0.0

>  <PEOE_VSA14>  (206) 
0.0

>  <PEOE_VSA2>  (206) 
0.0

>  <PEOE_VSA3>  (206) 
14.951936

>  <PEOE_VSA4>  (206) 
0.0

>  <PEOE_VSA5>  (206) 
0.0

>  <PEOE_VSA6>  (206) 
0.0

>  <PEOE_VSA7>  (206) 
12.841643

>  <PEOE_VSA8>  (206) 
19.007419

>  <PEOE_VSA9>  (206) 
12.872076

>  <SMR_VSA1>  (206) 
5.733667

>  <SMR_VSA10>  (206) 
16.981741

>  <SMR_VSA2>  (206) 
0.0

>  <SMR_VSA3>  (206) 
19.935914

>  <SMR_VSA4>  (206) 
5.917906

>  <SMR_VSA5>  (206) 
12.841643

>  <SMR_VSA6>  (206) 
24.534179

>  <SMR_VSA7>  (206) 
12.65464

>  <SMR_VSA8>  (206) 
0.0

>  <SMR_VSA9>  (206) 
0.0

>  <SlogP_VSA1>  (206) 
10.633577

>  <SlogP_VSA10>  (206) 
5.817863

>  <SlogP_VSA11>  (206) 
0.0

>  <SlogP_VSA12>  (206) 
0.0

>  <SlogP_VSA2>  (206) 
39.570183

>  <SlogP_VSA3>  (206) 
0.0

>  <SlogP_VSA4>  (206) 
5.917906

>  <SlogP_VSA5>  (206) 
12.841643

>  <SlogP_VSA6>  (206) 
12.65464

>  <SlogP_VSA7>  (206) 
0.0

>  <SlogP_VSA8>  (206) 
11.163878

>  <SlogP_VSA9>  (206) 
0.0

>  <EState_VSA1>  (206) 
0.0

>  <EState_VSA10>  (206) 
0.0

>  <EState_VSA11>  (206) 
0.0

>  <EState_VSA2>  (206) 
0.0

>  <EState_VSA3>  (206) 
0.0

>  <EState_VSA4>  (206) 
42.533916

>  <EState_VSA5>  (206) 
12.841643

>  <EState_VSA6>  (206) 
12.65464

>  <EState_VSA7>  (206) 
0.0

>  <EState_VSA8>  (206) 
30.569491

>  <EState_VSA9>  (206) 
0.0

>  <VSA_EState1>  (206) 
0.0

>  <VSA_EState10>  (206) 
0.0

>  <VSA_EState2>  (206) 
18.15348

>  <VSA_EState3>  (206) 
0.0

>  <VSA_EState4>  (206) 
5.676994

>  <VSA_EState5>  (206) 
1.723634

>  <VSA_EState6>  (206) 
0.0

>  <VSA_EState7>  (206) 
5.660427

>  <VSA_EState8>  (206) 
3.118799

>  <VSA_EState9>  (206) 
0.0

>  <FractionCSP3>  (206) 
0.545455

>  <HeavyAtomCount>  (206) 
17

>  <NHOHCount>  (206) 
4

>  <NOCount>  (206) 
6

>  <NumAliphaticCarbocycles>  (206) 
0

>  <NumAliphaticHeterocycles>  (206) 
1

>  <NumAliphaticRings>  (206) 
1

>  <NumAromaticCarbocycles>  (206) 
0

>  <NumAromaticHeterocycles>  (206) 
2

>  <NumAromaticRings>  (206) 
2

>  <NumHAcceptors>  (206) 
4

>  <NumHDonors>  (206) 
2

>  <NumHeteroatoms>  (206) 
6

>  <NumRotatableBonds>  (206) 
2

>  <NumSaturatedCarbocycles>  (206) 
0

>  <NumSaturatedHeterocycles>  (206) 
1

>  <NumSaturatedRings>  (206) 
1

>  <RingCount>  (206) 
3

>  <MolLogP>  (206) 
-0.1888

>  <MolMR>  (206) 
64.3758

>  <fr_Al_COO>  (206) 
0

>  <fr_Al_OH>  (206) 
0

>  <fr_Al_OH_noTert>  (206) 
0

>  <fr_ArN>  (206) 
0

>  <fr_Ar_COO>  (206) 
0

>  <fr_Ar_N>  (206) 
4

>  <fr_Ar_NH>  (206) 
1

>  <fr_Ar_OH>  (206) 
0

>  <fr_COO>  (206) 
0

>  <fr_COO2>  (206) 
0

>  <fr_C_O>  (206) 
0

>  <fr_C_O_noCOO>  (206) 
0

>  <fr_C_S>  (206) 
0

>  <fr_HOCCN>  (206) 
0

>  <fr_Imine>  (206) 
0

>  <fr_NH0>  (206) 
4

>  <fr_NH1>  (206) 
1

>  <fr_NH2>  (206) 
0

>  <fr_N_O>  (206) 
0

>  <fr_Ndealkylation1>  (206) 
0

>  <fr_Ndealkylation2>  (206) 
0

>  <fr_Nhpyrrole>  (206) 
1

>  <fr_SH>  (206) 
0

>  <fr_aldehyde>  (206) 
0

>  <fr_alkyl_carbamate>  (206) 
0

>  <fr_alkyl_halide>  (206) 
0

>  <fr_allylic_oxid>  (206) 
0

>  <fr_amide>  (206) 
0

>  <fr_amidine>  (206) 
0

>  <fr_aniline>  (206) 
1

>  <fr_aryl_methyl>  (206) 
0

>  <fr_azide>  (206) 
0

>  <fr_azo>  (206) 
0

>  <fr_barbitur>  (206) 
0

>  <fr_benzene>  (206) 
0

>  <fr_benzodiazepine>  (206) 
0

>  <fr_bicyclic>  (206) 
1

>  <fr_diazo>  (206) 
0

>  <fr_dihydropyridine>  (206) 
0

>  <fr_epoxide>  (206) 
0

>  <fr_ester>  (206) 
0

>  <fr_ether>  (206) 
0

>  <fr_furan>  (206) 
0

>  <fr_guanido>  (206) 
0

>  <fr_halogen>  (206) 
0

>  <fr_hdrzine>  (206) 
0

>  <fr_hdrzone>  (206) 
0

>  <fr_imidazole>  (206) 
1

>  <fr_imide>  (206) 
0

>  <fr_isocyan>  (206) 
0

>  <fr_isothiocyan>  (206) 
0

>  <fr_ketone>  (206) 
0

>  <fr_ketone_Topliss>  (206) 
0

>  <fr_lactam>  (206) 
0

>  <fr_lactone>  (206) 
0

>  <fr_methoxy>  (206) 
0

>  <fr_morpholine>  (206) 
0

>  <fr_nitrile>  (206) 
0

>  <fr_nitro>  (206) 
0

>  <fr_nitro_arom>  (206) 
0

>  <fr_nitro_arom_nonortho>  (206) 
0

>  <fr_nitroso>  (206) 
0

>  <fr_oxazole>  (206) 
0

>  <fr_oxime>  (206) 
0

>  <fr_para_hydroxylation>  (206) 
0

>  <fr_phenol>  (206) 
0

>  <fr_phenol_noOrthoHbond>  (206) 
0

>  <fr_phos_acid>  (206) 
0

>  <fr_phos_ester>  (206) 
0

>  <fr_piperdine>  (206) 
1

>  <fr_piperzine>  (206) 
0

>  <fr_priamide>  (206) 
0

>  <fr_prisulfonamd>  (206) 
0

>  <fr_pyridine>  (206) 
0

>  <fr_quatN>  (206) 
1

>  <fr_sulfide>  (206) 
0

>  <fr_sulfonamd>  (206) 
0

>  <fr_sulfone>  (206) 
0

>  <fr_term_acetylene>  (206) 
0

>  <fr_tetrazole>  (206) 
0

>  <fr_thiazole>  (206) 
0

>  <fr_thiocyan>  (206) 
0

>  <fr_thiophene>  (206) 
0

>  <fr_unbrch_alkane>  (206) 
0

>  <fr_urea>  (206) 
0

>  <NP_Likeness>  (206) 
-1.100611

$$$$
M02
     RDKit          3D

  0  0  0  0  0  0  0  0  0  0999 V3000
M  V30 BEGIN CTAB
M  V30 COUNTS 31 33 0 0 0
M  V30 BEGIN ATOM
M  V30 1 N 10.264000 7.081000 4.547000 0 CHG=1
M  V30 2 N 3.169000 9.738000 3.894000 0
M  V30 3 N 3.173000 9.651000 1.468000 0
M  V30 4 N 5.392000 9.918000 4.804000 0
M  V30 5 N 5.363000 9.776000 1.078000 0
M  V30 6 N 7.378000 9.990000 3.528000 0
M  V30 7 C 4.058000 9.849000 4.883000 0
M  V30 8 C 4.148000 9.660000 0.531000 0
M  V30 9 C 8.248000 9.536000 2.438000 0
M  V30 10 C 8.178000 10.284000 4.721000 0
M  V30 11 C 9.013000 8.285000 2.821000 0
M  V30 12 C 8.863000 9.023000 5.213000 0
M  V30 13 C 9.777000 8.441000 4.138000 0
M  V30 14 C 3.767000 9.733000 2.690000 0
M  V30 15 C 5.960000 9.904000 3.572000 0
M  V30 16 C 5.119000 9.812000 2.453000 0
M  V30 17 H 10.768500 7.152500 5.407400 0
M  V30 18 H 9.482100 6.469700 4.668900 0
M  V30 19 H 3.676300 9.885500 5.806600 0
M  V30 20 H 3.980800 9.588500 -0.452300 0
M  V30 21 H 8.900500 10.261600 2.219600 0
M  V30 22 H 7.686200 9.339900 1.634300 0
M  V30 23 H 7.580800 10.638300 5.440600 0
M  V30 24 H 8.870000 10.969500 4.494500 0
M  V30 25 H 9.667200 8.074800 2.094400 0
M  V30 26 H 8.364700 7.529400 2.914600 0
M  V30 27 H 8.167600 8.345500 5.452700 0
M  V30 28 H 9.408200 9.241700 6.022300 0
M  V30 29 H 10.559400 9.048400 4.000300 0
M  V30 30 H 10.865800 6.715000 3.837100 0
M  V30 31 H 2.189900 9.594200 1.294000 0
M  V30 END ATOM
M  V30 BEGIN BOND
M  V30 1 1 1 13
M  V30 2 2 2 7
M  V30 3 1 2 14
M  V30 4 1 3 8
M  V30 5 1 3 14
M  V30 6 1 4 7
M  V30 7 2 4 15
M  V30 8 2 5 8
M  V30 9 1 5 16
M  V30 10 1 6 9
M  V30 11 1 6 10
M  V30 12 1 6 15
M  V30 13 1 9 11
M  V30 14 1 10 12
M  V30 15 1 11 13
M  V30 16 1 12 13
M  V30 17 2 14 16
M  V30 18 1 15 16
M  V30 19 1 1 17
M  V30 20 1 1 18
M  V30 21 1 3 31
M  V30 22 1 7 19
M  V30 23 1 8 20
M  V30 24 1 9 21
M  V30 25 1 9 22
M  V30 26 1 10 23
M  V30 27 1 10 24
M  V30 28 1 11 25
M  V30 29 1 11 26
M  V30 30 1 12 27
M  V30 31 1 12 28
M  V30 32 1 13 29
M  V30 33 1 1 30
M  V30 END BOND
M  V30 END CTAB
M  END
>  <Ligand_Instance>  (207) 
2VNY_M02_A_1351

>  <Dataset>  (207) 
PDB

>  <PDB_ID>  (207) 
2VNY

>  <Chain>  (207) 
A

>  <Resi>  (207) 
1351

>  <Num_Resolved_Atoms>  (207) 
16

>  <Num_H_Atoms_ProtBoundConf>  (207) 
15

>  <Pocket>  (207) 
A

>  <Name>  (207) 
1-(9H-purin-6-yl)piperidin-4-amine

>  <Num_Not_Resolved_Atoms>  (207) 
0

>  <ATP_Site>  (207) 
True

>  <Peripheral>  (207) 
False

>  <Standardized_SMILES>  (207) 
[H]C1=NC2=C(N=C([H])N2[H])C(N2C([H])([H])C([H])([H])C([H])([N+]([H])([H])[H])C([H])([H])C2([H])[H])=N1

>  <2D_Mol_H>  (207) 
<rdkit.Chem.rdchem.Mol object at 0x77059d81d700>

>  <MW>  (207) 
219.272

>  <HBA>  (207) 
4

>  <HBD>  (207) 
2

>  <LogP>  (207) 
-0.4364

>  <NRB>  (207) 
2

>  <TPSA>  (207) 
85.34

>  <Num_Heavy_Atoms>  (207) 
16

>  <Ro5>  (207) 
[True, True, True, True, True, True]

>  <Ro5_Fulfilled>  (207) 
True

>  <Ro3>  (207) 
[True, False, True, True]

>  <Ro3_Fulfilled>  (207) 
True

>  <Fsp3>  (207) 
0.5

>  <Fsp3_0.42>  (207) 
True

>  <Fsp3_0.45>  (207) 
True

>  <Stereogenic_Carbons>  (207) 
0

>  <C_Atoms>  (207) 
10

>  <FCStereo>  (207) 
0.0

>  <SPS>  (207) 
291

>  <nSPS>  (207) 
18.1875

>  <PBF>  (207) 
0.706679

>  <PBF_0.6>  (207) 
True

>  <nPBF>  (207) 
0.044167

>  <nPBF_0.016>  (207) 
True

>  <PMI1>  (207) 
443.695046

>  <PMI2>  (207) 
1557.251193

>  <PMI3>  (207) 
1818.08467

>  <NPR1>  (207) 
0.244045

>  <NPR2>  (207) 
0.856534

>  <Sum_NPR>  (207) 
1.100579

>  <Sum_NPR_1.07>  (207) 
True

>  <Sum_NPR_1.2>  (207) 
False

>  <MaxAbsEStateIndex>  (207) 
4.339722

>  <MaxEStateIndex>  (207) 
4.339722

>  <MinAbsEStateIndex>  (207) 
0.576631

>  <MinEStateIndex>  (207) 
0.576631

>  <qed>  (207) 
0.68081

>  <MolWt>  (207) 
219.272

>  <HeavyAtomMolWt>  (207) 
204.152

>  <ExactMolWt>  (207) 
219.135271

>  <NumValenceElectrons>  (207) 
84

>  <NumRadicalElectrons>  (207) 
0

>  <MaxPartialCharge>  (207) 
0.16229

>  <MinPartialCharge>  (207) 
-0.355017

>  <MaxAbsPartialCharge>  (207) 
0.355017

>  <MinAbsPartialCharge>  (207) 
0.16229

>  <FpDensityMorgan1>  (207) 
1.25

>  <FpDensityMorgan2>  (207) 
2.0625

>  <FpDensityMorgan3>  (207) 
2.875

>  <BCUT2D_MWHI>  (207) 
15.216171

>  <BCUT2D_MWLOW>  (207) 
10.066453

>  <BCUT2D_CHGHI>  (207) 
2.211828

>  <BCUT2D_CHGLO>  (207) 
-2.288536

>  <BCUT2D_LOGPHI>  (207) 
2.21744

>  <BCUT2D_LOGPLOW>  (207) 
-2.639479

>  <BCUT2D_MRHI>  (207) 
5.821441

>  <BCUT2D_MRLOW>  (207) 
-0.422717

>  <AvgIpc>  (207) 
2.77681

>  <BalabanJ>  (207) 
1.959473

>  <BertzCT>  (207) 
484.769841

>  <Chi0>  (207) 
10.957819

>  <Chi0n>  (207) 
9.056439

>  <Chi0v>  (207) 
9.056439

>  <Chi1>  (207) 
7.843337

>  <Chi1n>  (207) 
5.564899

>  <Chi1v>  (207) 
5.564899

>  <Chi2n>  (207) 
4.22745

>  <Chi2v>  (207) 
4.22745

>  <Chi3n>  (207) 
3.111944

>  <Chi3v>  (207) 
3.111944

>  <Chi4n>  (207) 
2.128131

>  <Chi4v>  (207) 
2.128131

>  <HallKierAlpha>  (207) 
-1.69

>  <Ipc>  (207) 
10107.589038

>  <Kappa1>  (207) 
9.529889

>  <Kappa2>  (207) 
3.712014

>  <Kappa3>  (207) 
1.508375

>  <LabuteASA>  (207) 
92.899776

>  <PEOE_VSA1>  (207) 
15.617556

>  <PEOE_VSA10>  (207) 
11.844021

>  <PEOE_VSA11>  (207) 
11.46504

>  <PEOE_VSA12>  (207) 
0.0

>  <PEOE_VSA13>  (207) 
0.0

>  <PEOE_VSA14>  (207) 
0.0

>  <PEOE_VSA2>  (207) 
0.0

>  <PEOE_VSA3>  (207) 
14.951936

>  <PEOE_VSA4>  (207) 
0.0

>  <PEOE_VSA5>  (207) 
0.0

>  <PEOE_VSA6>  (207) 
0.0

>  <PEOE_VSA7>  (207) 
0.0

>  <PEOE_VSA8>  (207) 
25.931156

>  <PEOE_VSA9>  (207) 
12.369161

>  <SMR_VSA1>  (207) 
5.733667

>  <SMR_VSA10>  (207) 
16.981741

>  <SMR_VSA2>  (207) 
0.0

>  <SMR_VSA3>  (207) 
19.935914

>  <SMR_VSA4>  (207) 
0.0

>  <SMR_VSA5>  (207) 
18.883484

>  <SMR_VSA6>  (207) 
17.989423

>  <SMR_VSA7>  (207) 
12.65464

>  <SMR_VSA8>  (207) 
0.0

>  <SMR_VSA9>  (207) 
0.0

>  <SlogP_VSA1>  (207) 
10.633577

>  <SlogP_VSA10>  (207) 
5.817863

>  <SlogP_VSA11>  (207) 
0.0

>  <SlogP_VSA12>  (207) 
0.0

>  <SlogP_VSA2>  (207) 
39.067268

>  <SlogP_VSA3>  (207) 
0.0

>  <SlogP_VSA4>  (207) 
0.0

>  <SlogP_VSA5>  (207) 
12.841643

>  <SlogP_VSA6>  (207) 
12.65464

>  <SlogP_VSA7>  (207) 
0.0

>  <SlogP_VSA8>  (207) 
11.163878

>  <SlogP_VSA9>  (207) 
0.0

>  <EState_VSA1>  (207) 
0.0

>  <EState_VSA10>  (207) 
0.0

>  <EState_VSA11>  (207) 
0.0

>  <EState_VSA2>  (207) 
0.0

>  <EState_VSA3>  (207) 
6.041841

>  <EState_VSA4>  (207) 
42.912897

>  <EState_VSA5>  (207) 
0.0

>  <EState_VSA6>  (207) 
12.65464

>  <EState_VSA7>  (207) 
0.0

>  <EState_VSA8>  (207) 
30.569491

>  <EState_VSA9>  (207) 
0.0

>  <VSA_EState1>  (207) 
0.0

>  <VSA_EState10>  (207) 
0.0

>  <VSA_EState2>  (207) 
18.035171

>  <VSA_EState3>  (207) 
0.0

>  <VSA_EState4>  (207) 
5.76965

>  <VSA_EState5>  (207) 
0.942731

>  <VSA_EState6>  (207) 
0.576631

>  <VSA_EState7>  (207) 
5.494983

>  <VSA_EState8>  (207) 
2.014167

>  <VSA_EState9>  (207) 
0.0

>  <FractionCSP3>  (207) 
0.5

>  <HeavyAtomCount>  (207) 
16

>  <NHOHCount>  (207) 
4

>  <NOCount>  (207) 
6

>  <NumAliphaticCarbocycles>  (207) 
0

>  <NumAliphaticHeterocycles>  (207) 
1

>  <NumAliphaticRings>  (207) 
1

>  <NumAromaticCarbocycles>  (207) 
0

>  <NumAromaticHeterocycles>  (207) 
2

>  <NumAromaticRings>  (207) 
2

>  <NumHAcceptors>  (207) 
4

>  <NumHDonors>  (207) 
2

>  <NumHeteroatoms>  (207) 
6

>  <NumRotatableBonds>  (207) 
1

>  <NumSaturatedCarbocycles>  (207) 
0

>  <NumSaturatedHeterocycles>  (207) 
1

>  <NumSaturatedRings>  (207) 
1

>  <RingCount>  (207) 
3

>  <MolLogP>  (207) 
-0.4364

>  <MolMR>  (207) 
59.8068

>  <fr_Al_COO>  (207) 
0

>  <fr_Al_OH>  (207) 
0

>  <fr_Al_OH_noTert>  (207) 
0

>  <fr_ArN>  (207) 
0

>  <fr_Ar_COO>  (207) 
0

>  <fr_Ar_N>  (207) 
4

>  <fr_Ar_NH>  (207) 
1

>  <fr_Ar_OH>  (207) 
0

>  <fr_COO>  (207) 
0

>  <fr_COO2>  (207) 
0

>  <fr_C_O>  (207) 
0

>  <fr_C_O_noCOO>  (207) 
0

>  <fr_C_S>  (207) 
0

>  <fr_HOCCN>  (207) 
0

>  <fr_Imine>  (207) 
0

>  <fr_NH0>  (207) 
4

>  <fr_NH1>  (207) 
1

>  <fr_NH2>  (207) 
0

>  <fr_N_O>  (207) 
0

>  <fr_Ndealkylation1>  (207) 
0

>  <fr_Ndealkylation2>  (207) 
0

>  <fr_Nhpyrrole>  (207) 
1

>  <fr_SH>  (207) 
0

>  <fr_aldehyde>  (207) 
0

>  <fr_alkyl_carbamate>  (207) 
0

>  <fr_alkyl_halide>  (207) 
0

>  <fr_allylic_oxid>  (207) 
0

>  <fr_amide>  (207) 
0

>  <fr_amidine>  (207) 
0

>  <fr_aniline>  (207) 
1

>  <fr_aryl_methyl>  (207) 
0

>  <fr_azide>  (207) 
0

>  <fr_azo>  (207) 
0

>  <fr_barbitur>  (207) 
0

>  <fr_benzene>  (207) 
0

>  <fr_benzodiazepine>  (207) 
0

>  <fr_bicyclic>  (207) 
1

>  <fr_diazo>  (207) 
0

>  <fr_dihydropyridine>  (207) 
0

>  <fr_epoxide>  (207) 
0

>  <fr_ester>  (207) 
0

>  <fr_ether>  (207) 
0

>  <fr_furan>  (207) 
0

>  <fr_guanido>  (207) 
0

>  <fr_halogen>  (207) 
0

>  <fr_hdrzine>  (207) 
0

>  <fr_hdrzone>  (207) 
0

>  <fr_imidazole>  (207) 
1

>  <fr_imide>  (207) 
0

>  <fr_isocyan>  (207) 
0

>  <fr_isothiocyan>  (207) 
0

>  <fr_ketone>  (207) 
0

>  <fr_ketone_Topliss>  (207) 
0

>  <fr_lactam>  (207) 
0

>  <fr_lactone>  (207) 
0

>  <fr_methoxy>  (207) 
0

>  <fr_morpholine>  (207) 
0

>  <fr_nitrile>  (207) 
0

>  <fr_nitro>  (207) 
0

>  <fr_nitro_arom>  (207) 
0

>  <fr_nitro_arom_nonortho>  (207) 
0

>  <fr_nitroso>  (207) 
0

>  <fr_oxazole>  (207) 
0

>  <fr_oxime>  (207) 
0

>  <fr_para_hydroxylation>  (207) 
0

>  <fr_phenol>  (207) 
0

>  <fr_phenol_noOrthoHbond>  (207) 
0

>  <fr_phos_acid>  (207) 
0

>  <fr_phos_ester>  (207) 
0

>  <fr_piperdine>  (207) 
1

>  <fr_piperzine>  (207) 
0

>  <fr_priamide>  (207) 
0

>  <fr_prisulfonamd>  (207) 
0

>  <fr_pyridine>  (207) 
0

>  <fr_quatN>  (207) 
1

>  <fr_sulfide>  (207) 
0

>  <fr_sulfonamd>  (207) 
0

>  <fr_sulfone>  (207) 
0

>  <fr_term_acetylene>  (207) 
0

>  <fr_tetrazole>  (207) 
0

>  <fr_thiazole>  (207) 
0

>  <fr_thiocyan>  (207) 
0

>  <fr_thiophene>  (207) 
0

>  <fr_unbrch_alkane>  (207) 
0

>  <fr_urea>  (207) 
0

>  <NP_Likeness>  (207) 
-1.063274

$$$$
M03
     RDKit          3D

  0  0  0  0  0  0  0  0  0  0999 V3000
M  V30 BEGIN CTAB
M  V30 COUNTS 45 48 0 0 0
M  V30 BEGIN ATOM
M  V30 1 Cl 13.248000 12.973000 1.583000 0
M  V30 2 N 11.231000 6.798000 2.390000 0 CHG=1
M  V30 3 N 2.746000 9.214000 3.838000 0
M  V30 4 N 5.007000 9.625000 4.553000 0
M  V30 5 N 2.481000 8.947000 1.461000 0
M  V30 6 N 6.849000 9.678000 3.154000 0
M  V30 7 C 3.692000 9.471000 4.742000 0
M  V30 8 C 10.295000 7.152000 3.495000 0
M  V30 9 C 3.301000 8.959000 0.388000 0
M  V30 10 C 7.546000 9.315000 1.920000 0
M  V30 11 C 7.795000 10.014000 4.237000 0
M  V30 12 C 12.133000 11.249000 3.353000 0
M  V30 13 C 11.447000 11.007000 1.068000 0
M  V30 14 C 4.591000 9.169000 0.824000 0
M  V30 15 C 11.272000 10.233000 3.725000 0
M  V30 16 C 10.593000 9.977000 1.436000 0
M  V30 17 C 8.471000 8.147000 2.162000 0
M  V30 18 C 8.755000 8.860000 4.495000 0
M  V30 19 C 12.215000 11.649000 2.027000 0
M  V30 20 C 3.223000 9.150000 2.595000 0
M  V30 21 C 5.475000 9.527000 3.297000 0
M  V30 22 C 4.557000 9.317000 2.225000 0
M  V30 23 C 10.476000 9.592000 2.777000 0
M  V30 24 C 9.527000 8.455000 3.227000 0
M  V30 25 H 11.703600 5.945600 2.613700 0
M  V30 26 H 10.715500 6.680500 1.541200 0
M  V30 27 H 1.490600 8.811600 1.432500 0
M  V30 28 H 3.376300 9.560500 5.686600 0
M  V30 29 H 10.821600 7.258700 4.338400 0
M  V30 30 H 9.635200 6.408800 3.605800 0
M  V30 31 H 3.019100 8.836100 -0.563500 0
M  V30 32 H 8.080300 10.097800 1.600900 0
M  V30 33 H 6.873700 9.064100 1.223500 0
M  V30 34 H 7.281200 10.206000 5.073100 0
M  V30 35 H 8.319300 10.824100 3.974500 0
M  V30 36 H 12.699800 11.698100 4.043700 0
M  V30 37 H 11.508500 11.286500 0.109800 0
M  V30 38 H 5.407400 9.209300 0.247900 0
M  V30 39 H 11.219800 9.955100 4.684200 0
M  V30 40 H 10.056000 9.505200 0.736700 0
M  V30 41 H 8.934400 7.920600 1.305300 0
M  V30 42 H 7.927900 7.363600 2.464300 0
M  V30 43 H 8.232000 8.071900 4.819700 0
M  V30 44 H 9.410900 9.137000 5.197200 0
M  V30 45 H 11.901800 7.530500 2.273900 0
M  V30 END ATOM
M  V30 BEGIN BOND
M  V30 1 1 1 19
M  V30 2 1 2 8
M  V30 3 2 3 7
M  V30 4 1 3 20
M  V30 5 1 4 7
M  V30 6 2 4 21
M  V30 7 1 5 9
M  V30 8 1 5 20
M  V30 9 1 6 10
M  V30 10 1 6 11
M  V30 11 1 6 21
M  V30 12 1 8 24
M  V30 13 2 9 14
M  V30 14 1 10 17
M  V30 15 1 11 18
M  V30 16 2 12 15
M  V30 17 1 12 19
M  V30 18 1 13 16
M  V30 19 2 13 19
M  V30 20 1 14 22
M  V30 21 1 15 23
M  V30 22 2 16 23
M  V30 23 1 17 24
M  V30 24 1 18 24
M  V30 25 2 20 22
M  V30 26 1 21 22
M  V30 27 1 24 23
M  V30 28 1 2 25
M  V30 29 1 2 26
M  V30 30 1 5 27
M  V30 31 1 7 28
M  V30 32 1 8 29
M  V30 33 1 8 30
M  V30 34 1 9 31
M  V30 35 1 10 32
M  V30 36 1 10 33
M  V30 37 1 11 34
M  V30 38 1 11 35
M  V30 39 1 12 36
M  V30 40 1 13 37
M  V30 41 1 14 38
M  V30 42 1 15 39
M  V30 43 1 16 40
M  V30 44 1 17 41
M  V30 45 1 17 42
M  V30 46 1 18 43
M  V30 47 1 18 44
M  V30 48 1 2 45
M  V30 END BOND
M  V30 END CTAB
M  END
>  <Ligand_Instance>  (208) 
2VO0_M03_A_1354

>  <Dataset>  (208) 
PDB

>  <PDB_ID>  (208) 
2VO0

>  <Chain>  (208) 
A

>  <Resi>  (208) 
1354

>  <Num_Resolved_Atoms>  (208) 
24

>  <Num_H_Atoms_ProtBoundConf>  (208) 
21

>  <Pocket>  (208) 
A

>  <Name>  (208) 
1-[4-(4-chlorophenyl)-1-(7H-pyrrolo[2,3-d]pyrimidin-4-yl)piperidin-4-yl]methanamine

>  <Num_Not_Resolved_Atoms>  (208) 
0

>  <ATP_Site>  (208) 
True

>  <Peripheral>  (208) 
True

>  <Standardized_SMILES>  (208) 
[H]C1=NC2=C(C(N3C([H])([H])C([H])([H])C(C4=C([H])C([H])=C(Cl)C([H])=C4[H])(C([H])([H])[N+]([H])([H])[H])C([H])([H])C3([H])[H])=N1)C([H])=C([H])N2[H]

>  <2D_Mol_H>  (208) 
<rdkit.Chem.rdchem.Mol object at 0x77059d81d7e0>

>  <MW>  (208) 
342.854

>  <HBA>  (208) 
3

>  <HBD>  (208) 
2

>  <LogP>  (208) 
2.3914

>  <NRB>  (208) 
4

>  <TPSA>  (208) 
72.45

>  <Num_Heavy_Atoms>  (208) 
24

>  <Ro5>  (208) 
[True, True, True, True, True, True]

>  <Ro5_Fulfilled>  (208) 
True

>  <Ro3>  (208) 
[False, True, True, True]

>  <Ro3_Fulfilled>  (208) 
True

>  <Fsp3>  (208) 
0.333333

>  <Fsp3_0.42>  (208) 
False

>  <Fsp3_0.45>  (208) 
False

>  <Stereogenic_Carbons>  (208) 
0

>  <C_Atoms>  (208) 
18

>  <FCStereo>  (208) 
0.0

>  <SPS>  (208) 
416

>  <nSPS>  (208) 
17.333333

>  <PBF>  (208) 
1.145241

>  <PBF_0.6>  (208) 
True

>  <nPBF>  (208) 
0.047718

>  <nPBF_0.016>  (208) 
True

>  <PMI1>  (208) 
1164.631529

>  <PMI2>  (208) 
5007.701449

>  <PMI3>  (208) 
5233.222021

>  <NPR1>  (208) 
0.222546

>  <NPR2>  (208) 
0.956906

>  <Sum_NPR>  (208) 
1.179452

>  <Sum_NPR_1.07>  (208) 
True

>  <Sum_NPR_1.2>  (208) 
False

>  <MaxAbsEStateIndex>  (208) 
6.04611

>  <MaxEStateIndex>  (208) 
6.04611

>  <MinAbsEStateIndex>  (208) 
0.130338

>  <MinEStateIndex>  (208) 
0.130338

>  <qed>  (208) 
0.767279

>  <MolWt>  (208) 
342.854

>  <HeavyAtomMolWt>  (208) 
321.686

>  <ExactMolWt>  (208) 
342.148

>  <NumValenceElectrons>  (208) 
124

>  <NumRadicalElectrons>  (208) 
0

>  <MaxPartialCharge>  (208) 
0.142343

>  <MinPartialCharge>  (208) 
-0.35682

>  <MaxAbsPartialCharge>  (208) 
0.35682

>  <MinAbsPartialCharge>  (208) 
0.142343

>  <FpDensityMorgan1>  (208) 
1.125

>  <FpDensityMorgan2>  (208) 
1.875

>  <FpDensityMorgan3>  (208) 
2.583333

>  <BCUT2D_MWHI>  (208) 
35.495692

>  <BCUT2D_MWLOW>  (208) 
9.725952

>  <BCUT2D_CHGHI>  (208) 
2.371464

>  <BCUT2D_CHGLO>  (208) 
-2.404586

>  <BCUT2D_LOGPHI>  (208) 
2.365221

>  <BCUT2D_LOGPLOW>  (208) 
-2.621928

>  <BCUT2D_MRHI>  (208) 
6.300949

>  <BCUT2D_MRLOW>  (208) 
-0.384038

>  <AvgIpc>  (208) 
3.111248

>  <BalabanJ>  (208) 
1.591282

>  <BertzCT>  (208) 
833.996222

>  <Chi0>  (208) 
16.570703

>  <Chi0n>  (208) 
13.503698

>  <Chi0v>  (208) 
14.259627

>  <Chi1>  (208) 
11.716275

>  <Chi1n>  (208) 
8.301367

>  <Chi1v>  (208) 
8.679331

>  <Chi2n>  (208) 
6.4615

>  <Chi2v>  (208) 
6.897936

>  <Chi3n>  (208) 
5.28816

>  <Chi3v>  (208) 
5.540136

>  <Chi4n>  (208) 
3.743704

>  <Chi4v>  (208) 
3.869692

>  <HallKierAlpha>  (208) 
-2.11

>  <Ipc>  (208) 
620905.451854

>  <Kappa1>  (208) 
15.419591

>  <Kappa2>  (208) 
6.072824

>  <Kappa3>  (208) 
2.537182

>  <LabuteASA>  (208) 
145.40543

>  <PEOE_VSA1>  (208) 
15.617556

>  <PEOE_VSA10>  (208) 
17.79236

>  <PEOE_VSA11>  (208) 
0.0

>  <PEOE_VSA12>  (208) 
0.0

>  <PEOE_VSA13>  (208) 
0.0

>  <PEOE_VSA14>  (208) 
0.0

>  <PEOE_VSA2>  (208) 
0.0

>  <PEOE_VSA3>  (208) 
9.967957

>  <PEOE_VSA4>  (208) 
0.0

>  <PEOE_VSA5>  (208) 
0.0

>  <PEOE_VSA6>  (208) 
23.733674

>  <PEOE_VSA7>  (208) 
36.604196

>  <PEOE_VSA8>  (208) 
29.72398

>  <PEOE_VSA9>  (208) 
11.930981

>  <SMR_VSA1>  (208) 
5.733667

>  <SMR_VSA10>  (208) 
28.452204

>  <SMR_VSA2>  (208) 
0.0

>  <SMR_VSA3>  (208) 
14.951936

>  <SMR_VSA4>  (208) 
0.0

>  <SMR_VSA5>  (208) 
18.256634

>  <SMR_VSA6>  (208) 
24.534179

>  <SMR_VSA7>  (208) 
53.442084

>  <SMR_VSA8>  (208) 
0.0

>  <SMR_VSA9>  (208) 
0.0

>  <SlogP_VSA1>  (208) 
10.633577

>  <SlogP_VSA10>  (208) 
5.817863

>  <SlogP_VSA11>  (208) 
0.0

>  <SlogP_VSA12>  (208) 
11.60094

>  <SlogP_VSA2>  (208) 
34.586205

>  <SlogP_VSA3>  (208) 
5.41499

>  <SlogP_VSA4>  (208) 
0.0

>  <SlogP_VSA5>  (208) 
18.405095

>  <SlogP_VSA6>  (208) 
42.855999

>  <SlogP_VSA7>  (208) 
5.022633

>  <SlogP_VSA8>  (208) 
11.033401

>  <SlogP_VSA9>  (208) 
0.0

>  <EState_VSA1>  (208) 
0.0

>  <EState_VSA10>  (208) 
0.0

>  <EState_VSA11>  (208) 
0.0

>  <EState_VSA2>  (208) 
5.41499

>  <EState_VSA3>  (208) 
0.0

>  <EState_VSA4>  (208) 
54.34981

>  <EState_VSA5>  (208) 
5.563451

>  <EState_VSA6>  (208) 
6.32732

>  <EState_VSA7>  (208) 
24.395945

>  <EState_VSA8>  (208) 
37.718247

>  <EState_VSA9>  (208) 
11.60094

>  <VSA_EState1>  (208) 
0.0

>  <VSA_EState10>  (208) 
6.04611

>  <VSA_EState2>  (208) 
14.324011

>  <VSA_EState3>  (208) 
1.872546

>  <VSA_EState4>  (208) 
6.60663

>  <VSA_EState5>  (208) 
1.023165

>  <VSA_EState6>  (208) 
10.31191

>  <VSA_EState7>  (208) 
5.68002

>  <VSA_EState8>  (208) 
2.830051

>  <VSA_EState9>  (208) 
0.0

>  <FractionCSP3>  (208) 
0.333333

>  <HeavyAtomCount>  (208) 
24

>  <NHOHCount>  (208) 
4

>  <NOCount>  (208) 
5

>  <NumAliphaticCarbocycles>  (208) 
0

>  <NumAliphaticHeterocycles>  (208) 
1

>  <NumAliphaticRings>  (208) 
1

>  <NumAromaticCarbocycles>  (208) 
1

>  <NumAromaticHeterocycles>  (208) 
2

>  <NumAromaticRings>  (208) 
3

>  <NumHAcceptors>  (208) 
3

>  <NumHDonors>  (208) 
2

>  <NumHeteroatoms>  (208) 
6

>  <NumRotatableBonds>  (208) 
3

>  <NumSaturatedCarbocycles>  (208) 
0

>  <NumSaturatedHeterocycles>  (208) 
1

>  <NumSaturatedRings>  (208) 
1

>  <RingCount>  (208) 
4

>  <MolLogP>  (208) 
2.3914

>  <MolMR>  (208) 
96.2208

>  <fr_Al_COO>  (208) 
0

>  <fr_Al_OH>  (208) 
0

>  <fr_Al_OH_noTert>  (208) 
0

>  <fr_ArN>  (208) 
0

>  <fr_Ar_COO>  (208) 
0

>  <fr_Ar_N>  (208) 
3

>  <fr_Ar_NH>  (208) 
1

>  <fr_Ar_OH>  (208) 
0

>  <fr_COO>  (208) 
0

>  <fr_COO2>  (208) 
0

>  <fr_C_O>  (208) 
0

>  <fr_C_O_noCOO>  (208) 
0

>  <fr_C_S>  (208) 
0

>  <fr_HOCCN>  (208) 
0

>  <fr_Imine>  (208) 
0

>  <fr_NH0>  (208) 
3

>  <fr_NH1>  (208) 
1

>  <fr_NH2>  (208) 
0

>  <fr_N_O>  (208) 
0

>  <fr_Ndealkylation1>  (208) 
0

>  <fr_Ndealkylation2>  (208) 
0

>  <fr_Nhpyrrole>  (208) 
1

>  <fr_SH>  (208) 
0

>  <fr_aldehyde>  (208) 
0

>  <fr_alkyl_carbamate>  (208) 
0

>  <fr_alkyl_halide>  (208) 
0

>  <fr_allylic_oxid>  (208) 
0

>  <fr_amide>  (208) 
0

>  <fr_amidine>  (208) 
0

>  <fr_aniline>  (208) 
1

>  <fr_aryl_methyl>  (208) 
0

>  <fr_azide>  (208) 
0

>  <fr_azo>  (208) 
0

>  <fr_barbitur>  (208) 
0

>  <fr_benzene>  (208) 
1

>  <fr_benzodiazepine>  (208) 
0

>  <fr_bicyclic>  (208) 
1

>  <fr_diazo>  (208) 
0

>  <fr_dihydropyridine>  (208) 
0

>  <fr_epoxide>  (208) 
0

>  <fr_ester>  (208) 
0

>  <fr_ether>  (208) 
0

>  <fr_furan>  (208) 
0

>  <fr_guanido>  (208) 
0

>  <fr_halogen>  (208) 
1

>  <fr_hdrzine>  (208) 
0

>  <fr_hdrzone>  (208) 
0

>  <fr_imidazole>  (208) 
0

>  <fr_imide>  (208) 
0

>  <fr_isocyan>  (208) 
0

>  <fr_isothiocyan>  (208) 
0

>  <fr_ketone>  (208) 
0

>  <fr_ketone_Topliss>  (208) 
0

>  <fr_lactam>  (208) 
0

>  <fr_lactone>  (208) 
0

>  <fr_methoxy>  (208) 
0

>  <fr_morpholine>  (208) 
0

>  <fr_nitrile>  (208) 
0

>  <fr_nitro>  (208) 
0

>  <fr_nitro_arom>  (208) 
0

>  <fr_nitro_arom_nonortho>  (208) 
0

>  <fr_nitroso>  (208) 
0

>  <fr_oxazole>  (208) 
0

>  <fr_oxime>  (208) 
0

>  <fr_para_hydroxylation>  (208) 
0

>  <fr_phenol>  (208) 
0

>  <fr_phenol_noOrthoHbond>  (208) 
0

>  <fr_phos_acid>  (208) 
0

>  <fr_phos_ester>  (208) 
0

>  <fr_piperdine>  (208) 
1

>  <fr_piperzine>  (208) 
0

>  <fr_priamide>  (208) 
0

>  <fr_prisulfonamd>  (208) 
0

>  <fr_pyridine>  (208) 
0

>  <fr_quatN>  (208) 
1

>  <fr_sulfide>  (208) 
0

>  <fr_sulfonamd>  (208) 
0

>  <fr_sulfone>  (208) 
0

>  <fr_term_acetylene>  (208) 
0

>  <fr_tetrazole>  (208) 
0

>  <fr_thiazole>  (208) 
0

>  <fr_thiocyan>  (208) 
0

>  <fr_thiophene>  (208) 
0

>  <fr_unbrch_alkane>  (208) 
0

>  <fr_urea>  (208) 
0

>  <NP_Likeness>  (208) 
-0.918072

$$$$
M03
     RDKit          3D

  0  0  0  0  0  0  0  0  0  0999 V3000
M  V30 BEGIN CTAB
M  V30 COUNTS 45 48 0 0 0
M  V30 BEGIN ATOM
M  V30 1 Cl -12.957000 -6.156000 -7.571000 0
M  V30 2 N -10.158000 -10.822000 -11.119000 0 CHG=1
M  V30 3 N -2.575000 -11.475000 -8.943000 0
M  V30 4 N -4.874000 -11.171000 -8.288000 0
M  V30 5 N -1.502000 -9.425000 -9.681000 0
M  V30 6 N -5.995000 -9.127000 -8.328000 0
M  V30 7 C -3.767000 -11.888000 -8.500000 0
M  V30 8 C -8.999000 -9.903000 -11.322000 0
M  V30 9 C -1.860000 -8.126000 -9.769000 0
M  V30 10 C -7.173000 -9.877000 -7.874000 0
M  V30 11 C -6.446000 -7.979000 -9.136000 0
M  V30 12 C -10.926000 -6.526000 -9.309000 0
M  V30 13 C -11.345000 -8.309000 -7.762000 0
M  V30 14 C -3.178000 -8.006000 -9.387000 0
M  V30 15 C -9.887000 -7.240000 -9.857000 0
M  V30 16 C -10.308000 -9.029000 -8.312000 0
M  V30 17 C -7.938000 -10.423000 -9.075000 0
M  V30 18 C -7.208000 -8.444000 -10.364000 0
M  V30 19 C -11.655000 -7.058000 -8.260000 0
M  V30 20 C -2.564000 -10.151000 -9.203000 0
M  V30 21 C -4.837000 -9.844000 -8.570000 0
M  V30 22 C -3.636000 -9.280000 -9.029000 0
M  V30 23 C -9.555000 -8.495000 -9.357000 0
M  V30 24 C -8.434000 -9.305000 -10.006000 0
M  V30 25 H -11.008800 -10.297600 -11.151000 0
M  V30 26 H -10.165400 -11.513700 -11.841100 0
M  V30 27 H -0.606800 -9.798100 -9.924900 0
M  V30 28 H -3.839600 -12.865200 -8.300500 0
M  V30 29 H -9.293700 -9.149300 -11.909500 0
M  V30 30 H -8.268200 -10.413100 -11.775500 0
M  V30 31 H -1.267100 -7.376100 -10.062600 0
M  V30 32 H -7.769900 -9.270200 -7.349100 0
M  V30 33 H -6.878600 -10.637500 -7.295200 0
M  V30 34 H -5.648500 -7.450300 -9.426700 0
M  V30 35 H -7.043600 -7.402000 -8.579400 0
M  V30 36 H -11.155200 -5.621500 -9.668700 0
M  V30 37 H -11.872900 -8.690900 -7.003400 0
M  V30 38 H -3.712000 -7.160700 -9.368600 0
M  V30 39 H -9.366900 -6.855100 -10.619400 0
M  V30 40 H -10.093700 -9.940100 -7.959900 0
M  V30 41 H -8.727200 -10.941200 -8.745400 0
M  V30 42 H -7.334100 -11.028900 -9.592900 0
M  V30 43 H -6.592700 -8.984800 -10.937600 0
M  V30 44 H -7.517700 -7.640600 -10.872600 0
M  V30 45 H -10.076000 -11.270300 -10.228900 0
M  V30 END ATOM
M  V30 BEGIN BOND
M  V30 1 1 1 19
M  V30 2 1 2 8
M  V30 3 2 3 7
M  V30 4 1 3 20
M  V30 5 1 4 7
M  V30 6 2 4 21
M  V30 7 1 5 9
M  V30 8 1 5 20
M  V30 9 1 6 10
M  V30 10 1 6 11
M  V30 11 1 6 21
M  V30 12 1 8 24
M  V30 13 2 9 14
M  V30 14 1 10 17
M  V30 15 1 11 18
M  V30 16 2 12 15
M  V30 17 1 12 19
M  V30 18 1 13 16
M  V30 19 2 13 19
M  V30 20 1 14 22
M  V30 21 1 15 23
M  V30 22 2 16 23
M  V30 23 1 17 24
M  V30 24 1 18 24
M  V30 25 2 20 22
M  V30 26 1 21 22
M  V30 27 1 24 23
M  V30 28 1 2 25
M  V30 29 1 2 26
M  V30 30 1 5 27
M  V30 31 1 7 28
M  V30 32 1 8 29
M  V30 33 1 8 30
M  V30 34 1 9 31
M  V30 35 1 10 32
M  V30 36 1 10 33
M  V30 37 1 11 34
M  V30 38 1 11 35
M  V30 39 1 12 36
M  V30 40 1 13 37
M  V30 41 1 14 38
M  V30 42 1 15 39
M  V30 43 1 16 40
M  V30 44 1 17 41
M  V30 45 1 17 42
M  V30 46 1 18 43
M  V30 47 1 18 44
M  V30 48 1 2 45
M  V30 END BOND
M  V30 END CTAB
M  END
>  <Ligand_Instance>  (209) 
2VO0_M03_A_1355

>  <Dataset>  (209) 
PDB

>  <PDB_ID>  (209) 
2VO0

>  <Chain>  (209) 
A

>  <Resi>  (209) 
1355

>  <Num_Resolved_Atoms>  (209) 
24

>  <Num_H_Atoms_ProtBoundConf>  (209) 
21

>  <Pocket>  (209) 
X

>  <Name>  (209) 
1-[4-(4-chlorophenyl)-1-(7H-pyrrolo[2,3-d]pyrimidin-4-yl)piperidin-4-yl]methanamine

>  <Num_Not_Resolved_Atoms>  (209) 
0

>  <ATP_Site>  (209) 
True

>  <Peripheral>  (209) 
True

>  <Standardized_SMILES>  (209) 
[H]C1=NC2=C(C(N3C([H])([H])C([H])([H])C(C4=C([H])C([H])=C(Cl)C([H])=C4[H])(C([H])([H])[N+]([H])([H])[H])C([H])([H])C3([H])[H])=N1)C([H])=C([H])N2[H]

>  <2D_Mol_H>  (209) 
<rdkit.Chem.rdchem.Mol object at 0x77059d81d8c0>

>  <MW>  (209) 
342.854

>  <HBA>  (209) 
3

>  <HBD>  (209) 
2

>  <LogP>  (209) 
2.3914

>  <NRB>  (209) 
4

>  <TPSA>  (209) 
72.45

>  <Num_Heavy_Atoms>  (209) 
24

>  <Ro5>  (209) 
[True, True, True, True, True, True]

>  <Ro5_Fulfilled>  (209) 
True

>  <Ro3>  (209) 
[False, True, True, True]

>  <Ro3_Fulfilled>  (209) 
True

>  <Fsp3>  (209) 
0.333333

>  <Fsp3_0.42>  (209) 
False

>  <Fsp3_0.45>  (209) 
False

>  <Stereogenic_Carbons>  (209) 
0

>  <C_Atoms>  (209) 
18

>  <FCStereo>  (209) 
0.0

>  <SPS>  (209) 
416

>  <nSPS>  (209) 
17.333333

>  <PBF>  (209) 
1.034167

>  <PBF_0.6>  (209) 
True

>  <nPBF>  (209) 
0.04309

>  <nPBF_0.016>  (209) 
True

>  <PMI1>  (209) 
947.437735

>  <PMI2>  (209) 
5146.292062

>  <PMI3>  (209) 
5413.083667

>  <NPR1>  (209) 
0.175027

>  <NPR2>  (209) 
0.950714

>  <Sum_NPR>  (209) 
1.125741

>  <Sum_NPR_1.07>  (209) 
True

>  <Sum_NPR_1.2>  (209) 
False

>  <MaxAbsEStateIndex>  (209) 
6.04611

>  <MaxEStateIndex>  (209) 
6.04611

>  <MinAbsEStateIndex>  (209) 
0.130338

>  <MinEStateIndex>  (209) 
0.130338

>  <qed>  (209) 
0.767279

>  <MolWt>  (209) 
342.854

>  <HeavyAtomMolWt>  (209) 
321.686

>  <ExactMolWt>  (209) 
342.148

>  <NumValenceElectrons>  (209) 
124

>  <NumRadicalElectrons>  (209) 
0

>  <MaxPartialCharge>  (209) 
0.142343

>  <MinPartialCharge>  (209) 
-0.35682

>  <MaxAbsPartialCharge>  (209) 
0.35682

>  <MinAbsPartialCharge>  (209) 
0.142343

>  <FpDensityMorgan1>  (209) 
1.125

>  <FpDensityMorgan2>  (209) 
1.875

>  <FpDensityMorgan3>  (209) 
2.583333

>  <BCUT2D_MWHI>  (209) 
35.495692

>  <BCUT2D_MWLOW>  (209) 
9.725952

>  <BCUT2D_CHGHI>  (209) 
2.371464

>  <BCUT2D_CHGLO>  (209) 
-2.404586

>  <BCUT2D_LOGPHI>  (209) 
2.365221

>  <BCUT2D_LOGPLOW>  (209) 
-2.621928

>  <BCUT2D_MRHI>  (209) 
6.300949

>  <BCUT2D_MRLOW>  (209) 
-0.384038

>  <AvgIpc>  (209) 
3.111248

>  <BalabanJ>  (209) 
1.591282

>  <BertzCT>  (209) 
833.996222

>  <Chi0>  (209) 
16.570703

>  <Chi0n>  (209) 
13.503698

>  <Chi0v>  (209) 
14.259627

>  <Chi1>  (209) 
11.716275

>  <Chi1n>  (209) 
8.301367

>  <Chi1v>  (209) 
8.679331

>  <Chi2n>  (209) 
6.4615

>  <Chi2v>  (209) 
6.897936

>  <Chi3n>  (209) 
5.28816

>  <Chi3v>  (209) 
5.540136

>  <Chi4n>  (209) 
3.743704

>  <Chi4v>  (209) 
3.869692

>  <HallKierAlpha>  (209) 
-2.11

>  <Ipc>  (209) 
620905.451854

>  <Kappa1>  (209) 
15.419591

>  <Kappa2>  (209) 
6.072824

>  <Kappa3>  (209) 
2.537182

>  <LabuteASA>  (209) 
145.40543

>  <PEOE_VSA1>  (209) 
15.617556

>  <PEOE_VSA10>  (209) 
17.79236

>  <PEOE_VSA11>  (209) 
0.0

>  <PEOE_VSA12>  (209) 
0.0

>  <PEOE_VSA13>  (209) 
0.0

>  <PEOE_VSA14>  (209) 
0.0

>  <PEOE_VSA2>  (209) 
0.0

>  <PEOE_VSA3>  (209) 
9.967957

>  <PEOE_VSA4>  (209) 
0.0

>  <PEOE_VSA5>  (209) 
0.0

>  <PEOE_VSA6>  (209) 
23.733674

>  <PEOE_VSA7>  (209) 
36.604196

>  <PEOE_VSA8>  (209) 
29.72398

>  <PEOE_VSA9>  (209) 
11.930981

>  <SMR_VSA1>  (209) 
5.733667

>  <SMR_VSA10>  (209) 
28.452204

>  <SMR_VSA2>  (209) 
0.0

>  <SMR_VSA3>  (209) 
14.951936

>  <SMR_VSA4>  (209) 
0.0

>  <SMR_VSA5>  (209) 
18.256634

>  <SMR_VSA6>  (209) 
24.534179

>  <SMR_VSA7>  (209) 
53.442084

>  <SMR_VSA8>  (209) 
0.0

>  <SMR_VSA9>  (209) 
0.0

>  <SlogP_VSA1>  (209) 
10.633577

>  <SlogP_VSA10>  (209) 
5.817863

>  <SlogP_VSA11>  (209) 
0.0

>  <SlogP_VSA12>  (209) 
11.60094

>  <SlogP_VSA2>  (209) 
34.586205

>  <SlogP_VSA3>  (209) 
5.41499

>  <SlogP_VSA4>  (209) 
0.0

>  <SlogP_VSA5>  (209) 
18.405095

>  <SlogP_VSA6>  (209) 
42.855999

>  <SlogP_VSA7>  (209) 
5.022633

>  <SlogP_VSA8>  (209) 
11.033401

>  <SlogP_VSA9>  (209) 
0.0

>  <EState_VSA1>  (209) 
0.0

>  <EState_VSA10>  (209) 
0.0

>  <EState_VSA11>  (209) 
0.0

>  <EState_VSA2>  (209) 
5.41499

>  <EState_VSA3>  (209) 
0.0

>  <EState_VSA4>  (209) 
54.34981

>  <EState_VSA5>  (209) 
5.563451

>  <EState_VSA6>  (209) 
6.32732

>  <EState_VSA7>  (209) 
24.395945

>  <EState_VSA8>  (209) 
37.718247

>  <EState_VSA9>  (209) 
11.60094

>  <VSA_EState1>  (209) 
0.0

>  <VSA_EState10>  (209) 
6.04611

>  <VSA_EState2>  (209) 
14.324011

>  <VSA_EState3>  (209) 
1.872546

>  <VSA_EState4>  (209) 
6.60663

>  <VSA_EState5>  (209) 
1.023165

>  <VSA_EState6>  (209) 
10.31191

>  <VSA_EState7>  (209) 
5.68002

>  <VSA_EState8>  (209) 
2.830051

>  <VSA_EState9>  (209) 
0.0

>  <FractionCSP3>  (209) 
0.333333

>  <HeavyAtomCount>  (209) 
24

>  <NHOHCount>  (209) 
4

>  <NOCount>  (209) 
5

>  <NumAliphaticCarbocycles>  (209) 
0

>  <NumAliphaticHeterocycles>  (209) 
1

>  <NumAliphaticRings>  (209) 
1

>  <NumAromaticCarbocycles>  (209) 
1

>  <NumAromaticHeterocycles>  (209) 
2

>  <NumAromaticRings>  (209) 
3

>  <NumHAcceptors>  (209) 
3

>  <NumHDonors>  (209) 
2

>  <NumHeteroatoms>  (209) 
6

>  <NumRotatableBonds>  (209) 
3

>  <NumSaturatedCarbocycles>  (209) 
0

>  <NumSaturatedHeterocycles>  (209) 
1

>  <NumSaturatedRings>  (209) 
1

>  <RingCount>  (209) 
4

>  <MolLogP>  (209) 
2.3914

>  <MolMR>  (209) 
96.2208

>  <fr_Al_COO>  (209) 
0

>  <fr_Al_OH>  (209) 
0

>  <fr_Al_OH_noTert>  (209) 
0

>  <fr_ArN>  (209) 
0

>  <fr_Ar_COO>  (209) 
0

>  <fr_Ar_N>  (209) 
3

>  <fr_Ar_NH>  (209) 
1

>  <fr_Ar_OH>  (209) 
0

>  <fr_COO>  (209) 
0

>  <fr_COO2>  (209) 
0

>  <fr_C_O>  (209) 
0

>  <fr_C_O_noCOO>  (209) 
0

>  <fr_C_S>  (209) 
0

>  <fr_HOCCN>  (209) 
0

>  <fr_Imine>  (209) 
0

>  <fr_NH0>  (209) 
3

>  <fr_NH1>  (209) 
1

>  <fr_NH2>  (209) 
0

>  <fr_N_O>  (209) 
0

>  <fr_Ndealkylation1>  (209) 
0

>  <fr_Ndealkylation2>  (209) 
0

>  <fr_Nhpyrrole>  (209) 
1

>  <fr_SH>  (209) 
0

>  <fr_aldehyde>  (209) 
0

>  <fr_alkyl_carbamate>  (209) 
0

>  <fr_alkyl_halide>  (209) 
0

>  <fr_allylic_oxid>  (209) 
0

>  <fr_amide>  (209) 
0

>  <fr_amidine>  (209) 
0

>  <fr_aniline>  (209) 
1

>  <fr_aryl_methyl>  (209) 
0

>  <fr_azide>  (209) 
0

>  <fr_azo>  (209) 
0

>  <fr_barbitur>  (209) 
0

>  <fr_benzene>  (209) 
1

>  <fr_benzodiazepine>  (209) 
0

>  <fr_bicyclic>  (209) 
1

>  <fr_diazo>  (209) 
0

>  <fr_dihydropyridine>  (209) 
0

>  <fr_epoxide>  (209) 
0

>  <fr_ester>  (209) 
0

>  <fr_ether>  (209) 
0

>  <fr_furan>  (209) 
0

>  <fr_guanido>  (209) 
0

>  <fr_halogen>  (209) 
1

>  <fr_hdrzine>  (209) 
0

>  <fr_hdrzone>  (209) 
0

>  <fr_imidazole>  (209) 
0

>  <fr_imide>  (209) 
0

>  <fr_isocyan>  (209) 
0

>  <fr_isothiocyan>  (209) 
0

>  <fr_ketone>  (209) 
0

>  <fr_ketone_Topliss>  (209) 
0

>  <fr_lactam>  (209) 
0

>  <fr_lactone>  (209) 
0

>  <fr_methoxy>  (209) 
0

>  <fr_morpholine>  (209) 
0

>  <fr_nitrile>  (209) 
0

>  <fr_nitro>  (209) 
0

>  <fr_nitro_arom>  (209) 
0

>  <fr_nitro_arom_nonortho>  (209) 
0

>  <fr_nitroso>  (209) 
0

>  <fr_oxazole>  (209) 
0

>  <fr_oxime>  (209) 
0

>  <fr_para_hydroxylation>  (209) 
0

>  <fr_phenol>  (209) 
0

>  <fr_phenol_noOrthoHbond>  (209) 
0

>  <fr_phos_acid>  (209) 
0

>  <fr_phos_ester>  (209) 
0

>  <fr_piperdine>  (209) 
1

>  <fr_piperzine>  (209) 
0

>  <fr_priamide>  (209) 
0

>  <fr_prisulfonamd>  (209) 
0

>  <fr_pyridine>  (209) 
0

>  <fr_quatN>  (209) 
1

>  <fr_sulfide>  (209) 
0

>  <fr_sulfonamd>  (209) 
0

>  <fr_sulfone>  (209) 
0

>  <fr_term_acetylene>  (209) 
0

>  <fr_tetrazole>  (209) 
0

>  <fr_thiazole>  (209) 
0

>  <fr_thiocyan>  (209) 
0

>  <fr_thiophene>  (209) 
0

>  <fr_unbrch_alkane>  (209) 
0

>  <fr_urea>  (209) 
0

>  <NP_Likeness>  (209) 
-0.918072

$$$$
M04
     RDKit          3D

  0  0  0  0  0  0  0  0  0  0999 V3000
M  V30 BEGIN CTAB
M  V30 COUNTS 48 51 0 0 0
M  V30 BEGIN ATOM
M  V30 1 Cl 13.016000 14.193000 -0.734000 0
M  V30 2 N 10.967000 6.884000 3.131000 0 CHG=1
M  V30 3 N 3.201000 9.721000 3.936000 0
M  V30 4 N 5.490000 9.858000 4.668000 0
M  V30 5 N 2.971000 9.529000 1.547000 0
M  V30 6 N 7.383000 9.830000 3.238000 0
M  V30 7 C 4.166000 9.827000 4.851000 0
M  V30 8 C 10.290000 7.913000 3.967000 0
M  V30 9 C 3.804000 9.503000 0.478000 0
M  V30 10 C 8.005000 8.922000 2.259000 0
M  V30 11 C 8.142000 9.929000 4.496000 0
M  V30 12 C 12.503000 11.611000 -0.115000 0
M  V30 13 C 12.426000 13.162000 1.702000 0
M  V30 14 C 5.096000 9.598000 0.930000 0
M  V30 15 C 12.216000 10.579000 0.755000 0
M  V30 16 C 12.138000 12.130000 2.570000 0
M  V30 17 C 9.463000 9.277000 2.000000 0
M  V30 18 C 9.601000 10.282000 4.235000 0
M  V30 19 C 11.757000 9.698000 3.059000 0
M  V30 20 C 12.602000 12.906000 0.354000 0
M  V30 21 C 3.699000 9.653000 2.694000 0
M  V30 22 C 5.956000 9.786000 3.408000 0
M  V30 23 C 12.018000 10.831000 2.104000 0
M  V30 24 C 5.038000 9.698000 2.353000 0
M  V30 25 C 10.292000 9.295000 3.286000 0
M  V30 26 H 11.940300 6.857000 3.358900 0
M  V30 27 H 10.558100 5.988800 3.308200 0
M  V30 28 H 1.974000 9.466700 1.501700 0
M  V30 29 H 3.858000 9.891900 5.800200 0
M  V30 30 H 10.766800 7.983200 4.843200 0
M  V30 31 H 9.343600 7.630900 4.124200 0
M  V30 32 H 3.524000 9.427300 -0.479000 0
M  V30 33 H 7.500300 8.980700 1.397700 0
M  V30 34 H 7.957600 7.986900 2.610100 0
M  V30 35 H 8.099400 9.050700 4.972300 0
M  V30 36 H 7.732400 10.639000 5.068700 0
M  V30 37 H 12.639600 11.420600 -1.087200 0
M  V30 38 H 12.507800 14.096900 2.047500 0
M  V30 39 H 5.923200 9.597300 0.368100 0
M  V30 40 H 12.150400 9.642700 0.410100 0
M  V30 41 H 12.014800 12.320900 3.543800 0
M  V30 42 H 9.503700 10.182800 1.578200 0
M  V30 43 H 9.852900 8.600500 1.375200 0
M  V30 44 H 10.090400 10.282300 5.107100 0
M  V30 45 H 9.641000 11.195500 3.830100 0
M  V30 46 H 12.138400 9.958200 3.946000 0
M  V30 47 H 12.239800 8.894200 2.711400 0
M  V30 48 H 10.857300 7.115000 2.164300 0
M  V30 END ATOM
M  V30 BEGIN BOND
M  V30 1 1 1 20
M  V30 2 1 2 8
M  V30 3 2 3 7
M  V30 4 1 3 21
M  V30 5 1 4 7
M  V30 6 2 4 22
M  V30 7 1 5 9
M  V30 8 1 5 21
M  V30 9 1 6 10
M  V30 10 1 6 11
M  V30 11 1 6 22
M  V30 12 1 8 25
M  V30 13 2 9 14
M  V30 14 1 10 17
M  V30 15 1 11 18
M  V30 16 2 12 15
M  V30 17 1 12 20
M  V30 18 1 13 16
M  V30 19 2 13 20
M  V30 20 1 14 24
M  V30 21 1 15 23
M  V30 22 2 16 23
M  V30 23 1 17 25
M  V30 24 1 18 25
M  V30 25 1 19 23
M  V30 26 1 25 19
M  V30 27 2 21 24
M  V30 28 1 22 24
M  V30 29 1 2 26
M  V30 30 1 2 27
M  V30 31 1 5 28
M  V30 32 1 7 29
M  V30 33 1 8 30
M  V30 34 1 8 31
M  V30 35 1 9 32
M  V30 36 1 10 33
M  V30 37 1 10 34
M  V30 38 1 11 35
M  V30 39 1 11 36
M  V30 40 1 12 37
M  V30 41 1 13 38
M  V30 42 1 14 39
M  V30 43 1 15 40
M  V30 44 1 16 41
M  V30 45 1 17 42
M  V30 46 1 17 43
M  V30 47 1 18 44
M  V30 48 1 18 45
M  V30 49 1 19 46
M  V30 50 1 19 47
M  V30 51 1 2 48
M  V30 END BOND
M  V30 END CTAB
M  END
>  <Ligand_Instance>  (210) 
2VO3_M04_A_1352

>  <Dataset>  (210) 
PDB

>  <PDB_ID>  (210) 
2VO3

>  <Chain>  (210) 
A

>  <Resi>  (210) 
1352

>  <Num_Resolved_Atoms>  (210) 
25

>  <Num_H_Atoms_ProtBoundConf>  (210) 
23

>  <Pocket>  (210) 
A

>  <Name>  (210) 
1-[4-(4-chlorobenzyl)-1-(7H-pyrrolo[2,3-d]pyrimidin-4-yl)piperidin-4-yl]methanamine

>  <Num_Not_Resolved_Atoms>  (210) 
0

>  <ATP_Site>  (210) 
True

>  <Peripheral>  (210) 
False

>  <Standardized_SMILES>  (210) 
[H]C1=NC2=C(C(N3C([H])([H])C([H])([H])C(C([H])([H])C4=C([H])C([H])=C(Cl)C([H])=C4[H])(C([H])([H])[N+]([H])([H])[H])C([H])([H])C3([H])[H])=N1)C([H])=C([H])N2[H]

>  <2D_Mol_H>  (210) 
<rdkit.Chem.rdchem.Mol object at 0x77059d81d9a0>

>  <MW>  (210) 
356.881

>  <HBA>  (210) 
3

>  <HBD>  (210) 
2

>  <LogP>  (210) 
2.6825

>  <NRB>  (210) 
5

>  <TPSA>  (210) 
72.45

>  <Num_Heavy_Atoms>  (210) 
25

>  <Ro5>  (210) 
[True, True, True, True, True, True]

>  <Ro5_Fulfilled>  (210) 
True

>  <Ro3>  (210) 
[False, True, True, True]

>  <Ro3_Fulfilled>  (210) 
True

>  <Fsp3>  (210) 
0.368421

>  <Fsp3_0.42>  (210) 
False

>  <Fsp3_0.45>  (210) 
False

>  <Stereogenic_Carbons>  (210) 
0

>  <C_Atoms>  (210) 
19

>  <FCStereo>  (210) 
0.0

>  <SPS>  (210) 
428

>  <nSPS>  (210) 
17.12

>  <PBF>  (210) 
1.213448

>  <PBF_0.6>  (210) 
True

>  <nPBF>  (210) 
0.048538

>  <nPBF_0.016>  (210) 
True

>  <PMI1>  (210) 
1588.226986

>  <PMI2>  (210) 
5433.196567

>  <PMI3>  (210) 
6193.93697

>  <NPR1>  (210) 
0.256416

>  <NPR2>  (210) 
0.87718

>  <Sum_NPR>  (210) 
1.133596

>  <Sum_NPR_1.07>  (210) 
True

>  <Sum_NPR_1.2>  (210) 
False

>  <MaxAbsEStateIndex>  (210) 
6.014643

>  <MaxEStateIndex>  (210) 
6.014643

>  <MinAbsEStateIndex>  (210) 
0.258553

>  <MinEStateIndex>  (210) 
0.258553

>  <qed>  (210) 
0.75448

>  <MolWt>  (210) 
356.881

>  <HeavyAtomMolWt>  (210) 
333.697

>  <ExactMolWt>  (210) 
356.16365

>  <NumValenceElectrons>  (210) 
130

>  <NumRadicalElectrons>  (210) 
0

>  <MaxPartialCharge>  (210) 
0.142343

>  <MinPartialCharge>  (210) 
-0.357089

>  <MaxAbsPartialCharge>  (210) 
0.357089

>  <MinAbsPartialCharge>  (210) 
0.142343

>  <FpDensityMorgan1>  (210) 
1.12

>  <FpDensityMorgan2>  (210) 
1.88

>  <FpDensityMorgan3>  (210) 
2.6

>  <BCUT2D_MWHI>  (210) 
35.495692

>  <BCUT2D_MWLOW>  (210) 
9.735808

>  <BCUT2D_CHGHI>  (210) 
2.357575

>  <BCUT2D_CHGLO>  (210) 
-2.402658

>  <BCUT2D_LOGPHI>  (210) 
2.360699

>  <BCUT2D_LOGPLOW>  (210) 
-2.609951

>  <BCUT2D_MRHI>  (210) 
6.300867

>  <BCUT2D_MRLOW>  (210) 
-0.393878

>  <AvgIpc>  (210) 
3.131237

>  <BalabanJ>  (210) 
1.506045

>  <BertzCT>  (210) 
849.636773

>  <Chi0>  (210) 
17.27781

>  <Chi0n>  (210) 
14.210805

>  <Chi0v>  (210) 
14.966734

>  <Chi1>  (210) 
12.189402

>  <Chi1n>  (210) 
8.758474

>  <Chi1v>  (210) 
9.136438

>  <Chi2n>  (210) 
6.97752

>  <Chi2v>  (210) 
7.413955

>  <Chi3n>  (210) 
5.479277

>  <Chi3v>  (210) 
5.731254

>  <Chi4n>  (210) 
3.853995

>  <Chi4v>  (210) 
3.979983

>  <HallKierAlpha>  (210) 
-2.11

>  <Ipc>  (210) 
965322.664481

>  <Kappa1>  (210) 
16.363387

>  <Kappa2>  (210) 
6.653857

>  <Kappa3>  (210) 
3.216237

>  <LabuteASA>  (210) 
151.770372

>  <PEOE_VSA1>  (210) 
15.617556

>  <PEOE_VSA10>  (210) 
17.79236

>  <PEOE_VSA11>  (210) 
0.0

>  <PEOE_VSA12>  (210) 
0.0

>  <PEOE_VSA13>  (210) 
0.0

>  <PEOE_VSA14>  (210) 
0.0

>  <PEOE_VSA2>  (210) 
0.0

>  <PEOE_VSA3>  (210) 
9.967957

>  <PEOE_VSA4>  (210) 
0.0

>  <PEOE_VSA5>  (210) 
0.0

>  <PEOE_VSA6>  (210) 
23.733674

>  <PEOE_VSA7>  (210) 
43.025018

>  <PEOE_VSA8>  (210) 
29.72398

>  <PEOE_VSA9>  (210) 
11.930981

>  <SMR_VSA1>  (210) 
5.733667

>  <SMR_VSA10>  (210) 
28.452204

>  <SMR_VSA2>  (210) 
0.0

>  <SMR_VSA3>  (210) 
14.951936

>  <SMR_VSA4>  (210) 
5.41499

>  <SMR_VSA5>  (210) 
19.262465

>  <SMR_VSA6>  (210) 
24.534179

>  <SMR_VSA7>  (210) 
53.442084

>  <SMR_VSA8>  (210) 
0.0

>  <SMR_VSA9>  (210) 
0.0

>  <SlogP_VSA1>  (210) 
10.633577

>  <SlogP_VSA10>  (210) 
5.817863

>  <SlogP_VSA11>  (210) 
0.0

>  <SlogP_VSA12>  (210) 
11.60094

>  <SlogP_VSA2>  (210) 
34.586205

>  <SlogP_VSA3>  (210) 
6.420822

>  <SlogP_VSA4>  (210) 
5.41499

>  <SlogP_VSA5>  (210) 
18.405095

>  <SlogP_VSA6>  (210) 
42.855999

>  <SlogP_VSA7>  (210) 
5.022633

>  <SlogP_VSA8>  (210) 
11.033401

>  <SlogP_VSA9>  (210) 
0.0

>  <EState_VSA1>  (210) 
0.0

>  <EState_VSA10>  (210) 
0.0

>  <EState_VSA11>  (210) 
0.0

>  <EState_VSA2>  (210) 
5.41499

>  <EState_VSA3>  (210) 
0.0

>  <EState_VSA4>  (210) 
60.770632

>  <EState_VSA5>  (210) 
5.563451

>  <EState_VSA6>  (210) 
6.32732

>  <EState_VSA7>  (210) 
18.329578

>  <EState_VSA8>  (210) 
43.784614

>  <EState_VSA9>  (210) 
11.60094

>  <VSA_EState1>  (210) 
0.0

>  <VSA_EState10>  (210) 
6.014643

>  <VSA_EState2>  (210) 
14.372541

>  <VSA_EState3>  (210) 
1.892452

>  <VSA_EState4>  (210) 
6.765006

>  <VSA_EState5>  (210) 
1.037412

>  <VSA_EState6>  (210) 
10.291707

>  <VSA_EState7>  (210) 
6.868686

>  <VSA_EState8>  (210) 
2.951996

>  <VSA_EState9>  (210) 
0.0

>  <FractionCSP3>  (210) 
0.368421

>  <HeavyAtomCount>  (210) 
25

>  <NHOHCount>  (210) 
4

>  <NOCount>  (210) 
5

>  <NumAliphaticCarbocycles>  (210) 
0

>  <NumAliphaticHeterocycles>  (210) 
1

>  <NumAliphaticRings>  (210) 
1

>  <NumAromaticCarbocycles>  (210) 
1

>  <NumAromaticHeterocycles>  (210) 
2

>  <NumAromaticRings>  (210) 
3

>  <NumHAcceptors>  (210) 
3

>  <NumHDonors>  (210) 
2

>  <NumHeteroatoms>  (210) 
6

>  <NumRotatableBonds>  (210) 
4

>  <NumSaturatedCarbocycles>  (210) 
0

>  <NumSaturatedHeterocycles>  (210) 
1

>  <NumSaturatedRings>  (210) 
1

>  <RingCount>  (210) 
4

>  <MolLogP>  (210) 
2.6825

>  <MolMR>  (210) 
100.6798

>  <fr_Al_COO>  (210) 
0

>  <fr_Al_OH>  (210) 
0

>  <fr_Al_OH_noTert>  (210) 
0

>  <fr_ArN>  (210) 
0

>  <fr_Ar_COO>  (210) 
0

>  <fr_Ar_N>  (210) 
3

>  <fr_Ar_NH>  (210) 
1

>  <fr_Ar_OH>  (210) 
0

>  <fr_COO>  (210) 
0

>  <fr_COO2>  (210) 
0

>  <fr_C_O>  (210) 
0

>  <fr_C_O_noCOO>  (210) 
0

>  <fr_C_S>  (210) 
0

>  <fr_HOCCN>  (210) 
0

>  <fr_Imine>  (210) 
0

>  <fr_NH0>  (210) 
3

>  <fr_NH1>  (210) 
1

>  <fr_NH2>  (210) 
0

>  <fr_N_O>  (210) 
0

>  <fr_Ndealkylation1>  (210) 
0

>  <fr_Ndealkylation2>  (210) 
0

>  <fr_Nhpyrrole>  (210) 
1

>  <fr_SH>  (210) 
0

>  <fr_aldehyde>  (210) 
0

>  <fr_alkyl_carbamate>  (210) 
0

>  <fr_alkyl_halide>  (210) 
0

>  <fr_allylic_oxid>  (210) 
0

>  <fr_amide>  (210) 
0

>  <fr_amidine>  (210) 
0

>  <fr_aniline>  (210) 
1

>  <fr_aryl_methyl>  (210) 
0

>  <fr_azide>  (210) 
0

>  <fr_azo>  (210) 
0

>  <fr_barbitur>  (210) 
0

>  <fr_benzene>  (210) 
1

>  <fr_benzodiazepine>  (210) 
0

>  <fr_bicyclic>  (210) 
1

>  <fr_diazo>  (210) 
0

>  <fr_dihydropyridine>  (210) 
0

>  <fr_epoxide>  (210) 
0

>  <fr_ester>  (210) 
0

>  <fr_ether>  (210) 
0

>  <fr_furan>  (210) 
0

>  <fr_guanido>  (210) 
0

>  <fr_halogen>  (210) 
1

>  <fr_hdrzine>  (210) 
0

>  <fr_hdrzone>  (210) 
0

>  <fr_imidazole>  (210) 
0

>  <fr_imide>  (210) 
0

>  <fr_isocyan>  (210) 
0

>  <fr_isothiocyan>  (210) 
0

>  <fr_ketone>  (210) 
0

>  <fr_ketone_Topliss>  (210) 
0

>  <fr_lactam>  (210) 
0

>  <fr_lactone>  (210) 
0

>  <fr_methoxy>  (210) 
0

>  <fr_morpholine>  (210) 
0

>  <fr_nitrile>  (210) 
0

>  <fr_nitro>  (210) 
0

>  <fr_nitro_arom>  (210) 
0

>  <fr_nitro_arom_nonortho>  (210) 
0

>  <fr_nitroso>  (210) 
0

>  <fr_oxazole>  (210) 
0

>  <fr_oxime>  (210) 
0

>  <fr_para_hydroxylation>  (210) 
0

>  <fr_phenol>  (210) 
0

>  <fr_phenol_noOrthoHbond>  (210) 
0

>  <fr_phos_acid>  (210) 
0

>  <fr_phos_ester>  (210) 
0

>  <fr_piperdine>  (210) 
1

>  <fr_piperzine>  (210) 
0

>  <fr_priamide>  (210) 
0

>  <fr_prisulfonamd>  (210) 
0

>  <fr_pyridine>  (210) 
0

>  <fr_quatN>  (210) 
1

>  <fr_sulfide>  (210) 
0

>  <fr_sulfonamd>  (210) 
0

>  <fr_sulfone>  (210) 
0

>  <fr_term_acetylene>  (210) 
0

>  <fr_tetrazole>  (210) 
0

>  <fr_thiazole>  (210) 
0

>  <fr_thiocyan>  (210) 
0

>  <fr_thiophene>  (210) 
0

>  <fr_unbrch_alkane>  (210) 
0

>  <fr_urea>  (210) 
0

>  <NP_Likeness>  (210) 
-0.866724

$$$$
M05
     RDKit          3D

  0  0  0  0  0  0  0  0  0  0999 V3000
M  V30 BEGIN CTAB
M  V30 COUNTS 45 48 0 0 0
M  V30 BEGIN ATOM
M  V30 1 Cl 13.315000 13.472000 -0.348000 0
M  V30 2 N 9.930000 7.398000 3.986000 0 CHG=1
M  V30 3 N 3.153000 9.919000 3.699000 0
M  V30 4 N 5.426000 9.892000 4.480000 0
M  V30 5 N 2.936000 9.738000 1.318000 0
M  V30 6 N 7.322000 9.653000 3.119000 0
M  V30 7 C 4.100000 9.930000 4.634000 0
M  V30 8 C 3.789000 9.640000 0.254000 0
M  V30 9 C 8.046000 9.690000 4.401000 0
M  V30 10 C 7.847000 8.667000 2.162000 0
M  V30 11 C 12.776000 12.288000 2.015000 0
M  V30 12 C 12.480000 10.925000 0.061000 0
M  V30 13 C 5.095000 9.615000 0.737000 0
M  V30 14 C 12.386000 11.238000 2.808000 0
M  V30 15 C 12.096000 9.861000 0.860000 0
M  V30 16 C 9.546000 9.830000 4.205000 0
M  V30 17 C 9.357000 8.779000 1.998000 0
M  V30 18 C 11.627000 8.875000 3.124000 0
M  V30 19 C 12.816000 12.140000 0.642000 0
M  V30 20 C 3.656000 9.793000 2.473000 0
M  V30 21 C 5.914000 9.721000 3.233000 0
M  V30 22 C 12.053000 10.011000 2.243000 0
M  V30 23 C 5.016000 9.716000 2.154000 0
M  V30 24 C 10.115000 8.713000 3.327000 0
M  V30 25 H 10.305400 6.677300 3.403200 0
M  V30 26 H 10.405100 7.396300 4.865900 0
M  V30 27 H 1.938200 9.765100 1.257600 0
M  V30 28 H 3.775000 9.972400 5.578800 0
M  V30 29 H 3.520600 9.594000 -0.708200 0
M  V30 30 H 7.863400 8.842400 4.899200 0
M  V30 31 H 7.716400 10.468400 4.935300 0
M  V30 32 H 7.413700 8.817200 1.273300 0
M  V30 33 H 7.625100 7.748800 2.490100 0
M  V30 34 H 13.031400 13.160700 2.431200 0
M  V30 35 H 12.515100 10.818200 -0.932700 0
M  V30 36 H 5.929800 9.540300 0.191500 0
M  V30 37 H 12.340800 11.355800 3.800000 0
M  V30 38 H 11.849900 8.985800 0.443600 0
M  V30 39 H 9.993000 9.797700 5.098900 0
M  V30 40 H 9.734200 10.710500 3.769900 0
M  V30 41 H 9.564800 9.651900 1.556700 0
M  V30 42 H 9.670000 8.028400 1.416100 0
M  V30 43 H 12.043600 9.011700 4.022700 0
M  V30 44 H 11.974200 8.028200 2.721000 0
M  V30 45 H 8.954700 7.233300 4.133400 0
M  V30 END ATOM
M  V30 BEGIN BOND
M  V30 1 1 1 19
M  V30 2 1 2 24
M  V30 3 2 3 7
M  V30 4 1 3 20
M  V30 5 1 4 7
M  V30 6 2 4 21
M  V30 7 1 5 8
M  V30 8 1 5 20
M  V30 9 1 6 9
M  V30 10 1 6 10
M  V30 11 1 6 21
M  V30 12 2 8 13
M  V30 13 1 9 16
M  V30 14 1 10 17
M  V30 15 2 11 14
M  V30 16 1 11 19
M  V30 17 1 12 15
M  V30 18 2 12 19
M  V30 19 1 13 23
M  V30 20 1 14 22
M  V30 21 2 15 22
M  V30 22 1 16 24
M  V30 23 1 17 24
M  V30 24 1 18 22
M  V30 25 1 24 18
M  V30 26 2 20 23
M  V30 27 1 21 23
M  V30 28 1 2 25
M  V30 29 1 2 26
M  V30 30 1 5 27
M  V30 31 1 7 28
M  V30 32 1 8 29
M  V30 33 1 9 30
M  V30 34 1 9 31
M  V30 35 1 10 32
M  V30 36 1 10 33
M  V30 37 1 11 34
M  V30 38 1 12 35
M  V30 39 1 13 36
M  V30 40 1 14 37
M  V30 41 1 15 38
M  V30 42 1 16 39
M  V30 43 1 16 40
M  V30 44 1 17 41
M  V30 45 1 17 42
M  V30 46 1 18 43
M  V30 47 1 18 44
M  V30 48 1 2 45
M  V30 END BOND
M  V30 END CTAB
M  END
>  <Ligand_Instance>  (211) 
2VO6_M05_A_1352

>  <Dataset>  (211) 
PDB

>  <PDB_ID>  (211) 
2VO6

>  <Chain>  (211) 
A

>  <Resi>  (211) 
1352

>  <Num_Resolved_Atoms>  (211) 
24

>  <Num_H_Atoms_ProtBoundConf>  (211) 
21

>  <Pocket>  (211) 
A

>  <Name>  (211) 
4-(4-chlorobenzyl)-1-(7H-pyrrolo[2,3-d]pyrimidin-4-yl)piperidin-4-aminium

>  <Num_Not_Resolved_Atoms>  (211) 
0

>  <ATP_Site>  (211) 
True

>  <Peripheral>  (211) 
False

>  <Standardized_SMILES>  (211) 
[H]C1=NC2=C(C(N3C([H])([H])C([H])([H])C(C([H])([H])C4=C([H])C([H])=C(Cl)C([H])=C4[H])([N+]([H])([H])[H])C([H])([H])C3([H])[H])=N1)C([H])=C([H])N2[H]

>  <2D_Mol_H>  (211) 
<rdkit.Chem.rdchem.Mol object at 0x77059d81da80>

>  <MW>  (211) 
342.854

>  <HBA>  (211) 
3

>  <HBD>  (211) 
2

>  <LogP>  (211) 
2.4349

>  <NRB>  (211) 
4

>  <TPSA>  (211) 
72.45

>  <Num_Heavy_Atoms>  (211) 
24

>  <Ro5>  (211) 
[True, True, True, True, True, True]

>  <Ro5_Fulfilled>  (211) 
True

>  <Ro3>  (211) 
[False, True, True, True]

>  <Ro3_Fulfilled>  (211) 
True

>  <Fsp3>  (211) 
0.333333

>  <Fsp3_0.42>  (211) 
False

>  <Fsp3_0.45>  (211) 
False

>  <Stereogenic_Carbons>  (211) 
0

>  <C_Atoms>  (211) 
18

>  <FCStereo>  (211) 
0.0

>  <SPS>  (211) 
416

>  <nSPS>  (211) 
17.333333

>  <PBF>  (211) 
1.079044

>  <PBF_0.6>  (211) 
True

>  <nPBF>  (211) 
0.04496

>  <nPBF_0.016>  (211) 
True

>  <PMI1>  (211) 
1319.004209

>  <PMI2>  (211) 
5183.343699

>  <PMI3>  (211) 
5822.324043

>  <NPR1>  (211) 
0.226543

>  <NPR2>  (211) 
0.890253

>  <Sum_NPR>  (211) 
1.116796

>  <Sum_NPR_1.07>  (211) 
True

>  <Sum_NPR_1.2>  (211) 
False

>  <MaxAbsEStateIndex>  (211) 
5.977488

>  <MaxEStateIndex>  (211) 
5.977488

>  <MinAbsEStateIndex>  (211) 
0.077998

>  <MinEStateIndex>  (211) 
0.077998

>  <qed>  (211) 
0.76749

>  <MolWt>  (211) 
342.854

>  <HeavyAtomMolWt>  (211) 
321.686

>  <ExactMolWt>  (211) 
342.148

>  <NumValenceElectrons>  (211) 
124

>  <NumRadicalElectrons>  (211) 
0

>  <MaxPartialCharge>  (211) 
0.142343

>  <MinPartialCharge>  (211) 
-0.355453

>  <MaxAbsPartialCharge>  (211) 
0.355453

>  <MinAbsPartialCharge>  (211) 
0.142343

>  <FpDensityMorgan1>  (211) 
1.125

>  <FpDensityMorgan2>  (211) 
1.875

>  <FpDensityMorgan3>  (211) 
2.625

>  <BCUT2D_MWHI>  (211) 
35.495692

>  <BCUT2D_MWLOW>  (211) 
9.826108

>  <BCUT2D_CHGHI>  (211) 
2.348412

>  <BCUT2D_CHGLO>  (211) 
-2.371099

>  <BCUT2D_LOGPHI>  (211) 
2.286004

>  <BCUT2D_LOGPLOW>  (211) 
-2.760567

>  <BCUT2D_MRHI>  (211) 
6.300866

>  <BCUT2D_MRLOW>  (211) 
-0.481669

>  <AvgIpc>  (211) 
3.063622

>  <BalabanJ>  (211) 
1.476756

>  <BertzCT>  (211) 
833.996222

>  <Chi0>  (211) 
16.570703

>  <Chi0n>  (211) 
13.503698

>  <Chi0v>  (211) 
14.259627

>  <Chi1>  (211) 
11.628742

>  <Chi1n>  (211) 
8.258474

>  <Chi1v>  (211) 
8.636438

>  <Chi2n>  (211) 
6.72752

>  <Chi2v>  (211) 
7.163955

>  <Chi3n>  (211) 
4.948947

>  <Chi3v>  (211) 
5.200924

>  <Chi4n>  (211) 
3.515607

>  <Chi4v>  (211) 
3.641595

>  <HallKierAlpha>  (211) 
-2.11

>  <Ipc>  (211) 
537677.887813

>  <Kappa1>  (211) 
15.419591

>  <Kappa2>  (211) 
6.072824

>  <Kappa3>  (211) 
2.969331

>  <LabuteASA>  (211) 
145.40543

>  <PEOE_VSA1>  (211) 
15.617556

>  <PEOE_VSA10>  (211) 
23.331285

>  <PEOE_VSA11>  (211) 
0.0

>  <PEOE_VSA12>  (211) 
0.0

>  <PEOE_VSA13>  (211) 
0.0

>  <PEOE_VSA14>  (211) 
0.0

>  <PEOE_VSA2>  (211) 
0.0

>  <PEOE_VSA3>  (211) 
9.967957

>  <PEOE_VSA4>  (211) 
0.0

>  <PEOE_VSA5>  (211) 
0.0

>  <PEOE_VSA6>  (211) 
23.733674

>  <PEOE_VSA7>  (211) 
23.762553

>  <PEOE_VSA8>  (211) 
43.571455

>  <PEOE_VSA9>  (211) 
5.386224

>  <SMR_VSA1>  (211) 
5.733667

>  <SMR_VSA10>  (211) 
28.452204

>  <SMR_VSA2>  (211) 
0.0

>  <SMR_VSA3>  (211) 
14.951936

>  <SMR_VSA4>  (211) 
0.0

>  <SMR_VSA5>  (211) 
24.80139

>  <SMR_VSA6>  (211) 
17.989423

>  <SMR_VSA7>  (211) 
53.442084

>  <SMR_VSA8>  (211) 
0.0

>  <SMR_VSA9>  (211) 
0.0

>  <SlogP_VSA1>  (211) 
10.633577

>  <SlogP_VSA10>  (211) 
5.817863

>  <SlogP_VSA11>  (211) 
0.0

>  <SlogP_VSA12>  (211) 
11.60094

>  <SlogP_VSA2>  (211) 
33.580374

>  <SlogP_VSA3>  (211) 
6.420822

>  <SlogP_VSA4>  (211) 
0.0

>  <SlogP_VSA5>  (211) 
18.405095

>  <SlogP_VSA6>  (211) 
42.855999

>  <SlogP_VSA7>  (211) 
5.022633

>  <SlogP_VSA8>  (211) 
11.033401

>  <SlogP_VSA9>  (211) 
0.0

>  <EState_VSA1>  (211) 
0.0

>  <EState_VSA10>  (211) 
0.0

>  <EState_VSA11>  (211) 
0.0

>  <EState_VSA2>  (211) 
5.538925

>  <EState_VSA3>  (211) 
0.0

>  <EState_VSA4>  (211) 
54.225875

>  <EState_VSA5>  (211) 
5.563451

>  <EState_VSA6>  (211) 
6.32732

>  <EState_VSA7>  (211) 
24.395945

>  <EState_VSA8>  (211) 
37.718247

>  <EState_VSA9>  (211) 
11.60094

>  <VSA_EState1>  (211) 
0.0

>  <VSA_EState10>  (211) 
5.977488

>  <VSA_EState2>  (211) 
14.27767

>  <VSA_EState3>  (211) 
1.872895

>  <VSA_EState4>  (211) 
6.806156

>  <VSA_EState5>  (211) 
1.022956

>  <VSA_EState6>  (211) 
10.173654

>  <VSA_EState7>  (211) 
6.630326

>  <VSA_EState8>  (211) 
1.9333

>  <VSA_EState9>  (211) 
0.0

>  <FractionCSP3>  (211) 
0.333333

>  <HeavyAtomCount>  (211) 
24

>  <NHOHCount>  (211) 
4

>  <NOCount>  (211) 
5

>  <NumAliphaticCarbocycles>  (211) 
0

>  <NumAliphaticHeterocycles>  (211) 
1

>  <NumAliphaticRings>  (211) 
1

>  <NumAromaticCarbocycles>  (211) 
1

>  <NumAromaticHeterocycles>  (211) 
2

>  <NumAromaticRings>  (211) 
3

>  <NumHAcceptors>  (211) 
3

>  <NumHDonors>  (211) 
2

>  <NumHeteroatoms>  (211) 
6

>  <NumRotatableBonds>  (211) 
3

>  <NumSaturatedCarbocycles>  (211) 
0

>  <NumSaturatedHeterocycles>  (211) 
1

>  <NumSaturatedRings>  (211) 
1

>  <RingCount>  (211) 
4

>  <MolLogP>  (211) 
2.4349

>  <MolMR>  (211) 
96.1108

>  <fr_Al_COO>  (211) 
0

>  <fr_Al_OH>  (211) 
0

>  <fr_Al_OH_noTert>  (211) 
0

>  <fr_ArN>  (211) 
0

>  <fr_Ar_COO>  (211) 
0

>  <fr_Ar_N>  (211) 
3

>  <fr_Ar_NH>  (211) 
1

>  <fr_Ar_OH>  (211) 
0

>  <fr_COO>  (211) 
0

>  <fr_COO2>  (211) 
0

>  <fr_C_O>  (211) 
0

>  <fr_C_O_noCOO>  (211) 
0

>  <fr_C_S>  (211) 
0

>  <fr_HOCCN>  (211) 
0

>  <fr_Imine>  (211) 
0

>  <fr_NH0>  (211) 
3

>  <fr_NH1>  (211) 
1

>  <fr_NH2>  (211) 
0

>  <fr_N_O>  (211) 
0

>  <fr_Ndealkylation1>  (211) 
0

>  <fr_Ndealkylation2>  (211) 
0

>  <fr_Nhpyrrole>  (211) 
1

>  <fr_SH>  (211) 
0

>  <fr_aldehyde>  (211) 
0

>  <fr_alkyl_carbamate>  (211) 
0

>  <fr_alkyl_halide>  (211) 
0

>  <fr_allylic_oxid>  (211) 
0

>  <fr_amide>  (211) 
0

>  <fr_amidine>  (211) 
0

>  <fr_aniline>  (211) 
1

>  <fr_aryl_methyl>  (211) 
0

>  <fr_azide>  (211) 
0

>  <fr_azo>  (211) 
0

>  <fr_barbitur>  (211) 
0

>  <fr_benzene>  (211) 
1

>  <fr_benzodiazepine>  (211) 
0

>  <fr_bicyclic>  (211) 
1

>  <fr_diazo>  (211) 
0

>  <fr_dihydropyridine>  (211) 
0

>  <fr_epoxide>  (211) 
0

>  <fr_ester>  (211) 
0

>  <fr_ether>  (211) 
0

>  <fr_furan>  (211) 
0

>  <fr_guanido>  (211) 
0

>  <fr_halogen>  (211) 
1

>  <fr_hdrzine>  (211) 
0

>  <fr_hdrzone>  (211) 
0

>  <fr_imidazole>  (211) 
0

>  <fr_imide>  (211) 
0

>  <fr_isocyan>  (211) 
0

>  <fr_isothiocyan>  (211) 
0

>  <fr_ketone>  (211) 
0

>  <fr_ketone_Topliss>  (211) 
0

>  <fr_lactam>  (211) 
0

>  <fr_lactone>  (211) 
0

>  <fr_methoxy>  (211) 
0

>  <fr_morpholine>  (211) 
0

>  <fr_nitrile>  (211) 
0

>  <fr_nitro>  (211) 
0

>  <fr_nitro_arom>  (211) 
0

>  <fr_nitro_arom_nonortho>  (211) 
0

>  <fr_nitroso>  (211) 
0

>  <fr_oxazole>  (211) 
0

>  <fr_oxime>  (211) 
0

>  <fr_para_hydroxylation>  (211) 
0

>  <fr_phenol>  (211) 
0

>  <fr_phenol_noOrthoHbond>  (211) 
0

>  <fr_phos_acid>  (211) 
0

>  <fr_phos_ester>  (211) 
0

>  <fr_piperdine>  (211) 
1

>  <fr_piperzine>  (211) 
0

>  <fr_priamide>  (211) 
0

>  <fr_prisulfonamd>  (211) 
0

>  <fr_pyridine>  (211) 
0

>  <fr_quatN>  (211) 
1

>  <fr_sulfide>  (211) 
0

>  <fr_sulfonamd>  (211) 
0

>  <fr_sulfone>  (211) 
0

>  <fr_term_acetylene>  (211) 
0

>  <fr_tetrazole>  (211) 
0

>  <fr_thiazole>  (211) 
0

>  <fr_thiocyan>  (211) 
0

>  <fr_thiophene>  (211) 
0

>  <fr_unbrch_alkane>  (211) 
0

>  <fr_urea>  (211) 
0

>  <NP_Likeness>  (211) 
-0.862214

$$$$
M05
     RDKit          3D

  0  0  0  0  0  0  0  0  0  0999 V3000
M  V30 BEGIN CTAB
M  V30 COUNTS 45 48 0 0 0
M  V30 BEGIN ATOM
M  V30 1 Cl -15.451000 -8.197000 -6.402000 0
M  V30 2 N -10.073000 -9.203000 -10.713000 0 CHG=1
M  V30 3 N -3.390000 -10.870000 -8.469000 0
M  V30 4 N -5.704000 -10.463000 -7.920000 0
M  V30 5 N -2.258000 -8.892000 -9.322000 0
M  V30 6 N -6.809000 -8.394000 -8.200000 0
M  V30 7 C -4.602000 -11.218000 -8.032000 0
M  V30 8 C -2.608000 -7.606000 -9.571000 0
M  V30 9 C -8.030000 -8.805000 -7.494000 0
M  V30 10 C -7.124000 -7.329000 -9.157000 0
M  V30 11 C -13.751000 -8.372000 -8.503000 0
M  V30 12 C -12.928000 -7.223000 -6.561000 0
M  V30 13 C -3.928000 -7.441000 -9.250000 0
M  V30 14 C -12.554000 -8.138000 -9.148000 0
M  V30 15 C -11.729000 -6.994000 -7.201000 0
M  V30 16 C -9.058000 -9.356000 -8.471000 0
M  V30 17 C -8.071000 -7.859000 -10.218000 0
M  V30 18 C -10.216000 -7.185000 -9.193000 0
M  V30 19 C -13.942000 -7.913000 -7.209000 0
M  V30 20 C -3.346000 -9.569000 -8.844000 0
M  V30 21 C -5.636000 -9.177000 -8.330000 0
M  V30 22 C -11.523000 -7.460000 -8.496000 0
M  V30 23 C -4.410000 -8.671000 -8.789000 0
M  V30 24 C -9.383000 -8.408000 -9.639000 0
M  V30 25 H -10.701400 -8.609200 -11.215500 0
M  V30 26 H -9.390900 -9.575200 -11.342500 0
M  V30 27 H -1.348900 -9.283300 -9.465100 0
M  V30 28 H -4.701700 -12.172100 -7.749600 0
M  V30 29 H -2.002100 -6.895900 -9.929700 0
M  V30 30 H -8.417800 -8.013700 -7.021400 0
M  V30 31 H -7.800200 -9.512600 -6.825900 0
M  V30 32 H -6.280900 -7.012700 -9.591900 0
M  V30 33 H -7.557000 -6.566900 -8.675700 0
M  V30 34 H -14.480600 -8.872600 -8.968900 0
M  V30 35 H -13.067200 -6.891200 -5.628000 0
M  V30 36 H -4.453400 -6.594000 -9.330400 0
M  V30 37 H -12.424500 -8.455800 -10.087300 0
M  V30 38 H -11.003300 -6.490300 -6.732300 0
M  V30 39 H -9.903500 -9.537400 -7.968700 0
M  V30 40 H -8.705000 -10.211700 -8.849500 0
M  V30 41 H -7.611100 -8.594400 -10.715600 0
M  V30 42 H -8.289200 -7.114900 -10.849400 0
M  V30 43 H -9.649700 -6.646500 -8.569000 0
M  V30 44 H -10.418400 -6.644700 -10.009800 0
M  V30 45 H -10.585500 -9.953200 -10.295200 0
M  V30 END ATOM
M  V30 BEGIN BOND
M  V30 1 1 1 19
M  V30 2 1 2 24
M  V30 3 2 3 7
M  V30 4 1 3 20
M  V30 5 1 4 7
M  V30 6 2 4 21
M  V30 7 1 5 8
M  V30 8 1 5 20
M  V30 9 1 6 9
M  V30 10 1 6 10
M  V30 11 1 6 21
M  V30 12 2 8 13
M  V30 13 1 9 16
M  V30 14 1 10 17
M  V30 15 2 11 14
M  V30 16 1 11 19
M  V30 17 1 12 15
M  V30 18 2 12 19
M  V30 19 1 13 23
M  V30 20 1 14 22
M  V30 21 2 15 22
M  V30 22 1 16 24
M  V30 23 1 17 24
M  V30 24 1 18 22
M  V30 25 1 24 18
M  V30 26 2 20 23
M  V30 27 1 21 23
M  V30 28 1 2 25
M  V30 29 1 2 26
M  V30 30 1 5 27
M  V30 31 1 7 28
M  V30 32 1 8 29
M  V30 33 1 9 30
M  V30 34 1 9 31
M  V30 35 1 10 32
M  V30 36 1 10 33
M  V30 37 1 11 34
M  V30 38 1 12 35
M  V30 39 1 13 36
M  V30 40 1 14 37
M  V30 41 1 15 38
M  V30 42 1 16 39
M  V30 43 1 16 40
M  V30 44 1 17 41
M  V30 45 1 17 42
M  V30 46 1 18 43
M  V30 47 1 18 44
M  V30 48 1 2 45
M  V30 END BOND
M  V30 END CTAB
M  END
>  <Ligand_Instance>  (212) 
2VO7_M05_A_1351

>  <Dataset>  (212) 
PDB

>  <PDB_ID>  (212) 
2VO7

>  <Chain>  (212) 
A

>  <Resi>  (212) 
1351

>  <Num_Resolved_Atoms>  (212) 
24

>  <Num_H_Atoms_ProtBoundConf>  (212) 
21

>  <Pocket>  (212) 
X

>  <Name>  (212) 
4-(4-chlorobenzyl)-1-(7H-pyrrolo[2,3-d]pyrimidin-4-yl)piperidin-4-aminium

>  <Num_Not_Resolved_Atoms>  (212) 
0

>  <ATP_Site>  (212) 
True

>  <Peripheral>  (212) 
True

>  <Standardized_SMILES>  (212) 
[H]C1=NC2=C(C(N3C([H])([H])C([H])([H])C(C([H])([H])C4=C([H])C([H])=C(Cl)C([H])=C4[H])([N+]([H])([H])[H])C([H])([H])C3([H])[H])=N1)C([H])=C([H])N2[H]

>  <2D_Mol_H>  (212) 
<rdkit.Chem.rdchem.Mol object at 0x77059d81db60>

>  <MW>  (212) 
342.854

>  <HBA>  (212) 
3

>  <HBD>  (212) 
2

>  <LogP>  (212) 
2.4349

>  <NRB>  (212) 
4

>  <TPSA>  (212) 
72.45

>  <Num_Heavy_Atoms>  (212) 
24

>  <Ro5>  (212) 
[True, True, True, True, True, True]

>  <Ro5_Fulfilled>  (212) 
True

>  <Ro3>  (212) 
[False, True, True, True]

>  <Ro3_Fulfilled>  (212) 
True

>  <Fsp3>  (212) 
0.333333

>  <Fsp3_0.42>  (212) 
False

>  <Fsp3_0.45>  (212) 
False

>  <Stereogenic_Carbons>  (212) 
0

>  <C_Atoms>  (212) 
18

>  <FCStereo>  (212) 
0.0

>  <SPS>  (212) 
416

>  <nSPS>  (212) 
17.333333

>  <PBF>  (212) 
1.01549

>  <PBF_0.6>  (212) 
True

>  <nPBF>  (212) 
0.042312

>  <nPBF_0.016>  (212) 
True

>  <PMI1>  (212) 
725.234311

>  <PMI2>  (212) 
6419.570356

>  <PMI3>  (212) 
6580.11263

>  <NPR1>  (212) 
0.110216

>  <NPR2>  (212) 
0.975602

>  <Sum_NPR>  (212) 
1.085818

>  <Sum_NPR_1.07>  (212) 
True

>  <Sum_NPR_1.2>  (212) 
False

>  <MaxAbsEStateIndex>  (212) 
5.977488

>  <MaxEStateIndex>  (212) 
5.977488

>  <MinAbsEStateIndex>  (212) 
0.077998

>  <MinEStateIndex>  (212) 
0.077998

>  <qed>  (212) 
0.76749

>  <MolWt>  (212) 
342.854

>  <HeavyAtomMolWt>  (212) 
321.686

>  <ExactMolWt>  (212) 
342.148

>  <NumValenceElectrons>  (212) 
124

>  <NumRadicalElectrons>  (212) 
0

>  <MaxPartialCharge>  (212) 
0.142343

>  <MinPartialCharge>  (212) 
-0.355453

>  <MaxAbsPartialCharge>  (212) 
0.355453

>  <MinAbsPartialCharge>  (212) 
0.142343

>  <FpDensityMorgan1>  (212) 
1.125

>  <FpDensityMorgan2>  (212) 
1.875

>  <FpDensityMorgan3>  (212) 
2.625

>  <BCUT2D_MWHI>  (212) 
35.495692

>  <BCUT2D_MWLOW>  (212) 
9.826108

>  <BCUT2D_CHGHI>  (212) 
2.348412

>  <BCUT2D_CHGLO>  (212) 
-2.371099

>  <BCUT2D_LOGPHI>  (212) 
2.286004

>  <BCUT2D_LOGPLOW>  (212) 
-2.760567

>  <BCUT2D_MRHI>  (212) 
6.300866

>  <BCUT2D_MRLOW>  (212) 
-0.481669

>  <AvgIpc>  (212) 
3.063622

>  <BalabanJ>  (212) 
1.476756

>  <BertzCT>  (212) 
833.996222

>  <Chi0>  (212) 
16.570703

>  <Chi0n>  (212) 
13.503698

>  <Chi0v>  (212) 
14.259627

>  <Chi1>  (212) 
11.628742

>  <Chi1n>  (212) 
8.258474

>  <Chi1v>  (212) 
8.636438

>  <Chi2n>  (212) 
6.72752

>  <Chi2v>  (212) 
7.163955

>  <Chi3n>  (212) 
4.948947

>  <Chi3v>  (212) 
5.200924

>  <Chi4n>  (212) 
3.515607

>  <Chi4v>  (212) 
3.641595

>  <HallKierAlpha>  (212) 
-2.11

>  <Ipc>  (212) 
537677.887813

>  <Kappa1>  (212) 
15.419591

>  <Kappa2>  (212) 
6.072824

>  <Kappa3>  (212) 
2.969331

>  <LabuteASA>  (212) 
145.40543

>  <PEOE_VSA1>  (212) 
15.617556

>  <PEOE_VSA10>  (212) 
23.331285

>  <PEOE_VSA11>  (212) 
0.0

>  <PEOE_VSA12>  (212) 
0.0

>  <PEOE_VSA13>  (212) 
0.0

>  <PEOE_VSA14>  (212) 
0.0

>  <PEOE_VSA2>  (212) 
0.0

>  <PEOE_VSA3>  (212) 
9.967957

>  <PEOE_VSA4>  (212) 
0.0

>  <PEOE_VSA5>  (212) 
0.0

>  <PEOE_VSA6>  (212) 
23.733674

>  <PEOE_VSA7>  (212) 
23.762553

>  <PEOE_VSA8>  (212) 
43.571455

>  <PEOE_VSA9>  (212) 
5.386224

>  <SMR_VSA1>  (212) 
5.733667

>  <SMR_VSA10>  (212) 
28.452204

>  <SMR_VSA2>  (212) 
0.0

>  <SMR_VSA3>  (212) 
14.951936

>  <SMR_VSA4>  (212) 
0.0

>  <SMR_VSA5>  (212) 
24.80139

>  <SMR_VSA6>  (212) 
17.989423

>  <SMR_VSA7>  (212) 
53.442084

>  <SMR_VSA8>  (212) 
0.0

>  <SMR_VSA9>  (212) 
0.0

>  <SlogP_VSA1>  (212) 
10.633577

>  <SlogP_VSA10>  (212) 
5.817863

>  <SlogP_VSA11>  (212) 
0.0

>  <SlogP_VSA12>  (212) 
11.60094

>  <SlogP_VSA2>  (212) 
33.580374

>  <SlogP_VSA3>  (212) 
6.420822

>  <SlogP_VSA4>  (212) 
0.0

>  <SlogP_VSA5>  (212) 
18.405095

>  <SlogP_VSA6>  (212) 
42.855999

>  <SlogP_VSA7>  (212) 
5.022633

>  <SlogP_VSA8>  (212) 
11.033401

>  <SlogP_VSA9>  (212) 
0.0

>  <EState_VSA1>  (212) 
0.0

>  <EState_VSA10>  (212) 
0.0

>  <EState_VSA11>  (212) 
0.0

>  <EState_VSA2>  (212) 
5.538925

>  <EState_VSA3>  (212) 
0.0

>  <EState_VSA4>  (212) 
54.225875

>  <EState_VSA5>  (212) 
5.563451

>  <EState_VSA6>  (212) 
6.32732

>  <EState_VSA7>  (212) 
24.395945

>  <EState_VSA8>  (212) 
37.718247

>  <EState_VSA9>  (212) 
11.60094

>  <VSA_EState1>  (212) 
0.0

>  <VSA_EState10>  (212) 
5.977488

>  <VSA_EState2>  (212) 
14.27767

>  <VSA_EState3>  (212) 
1.872895

>  <VSA_EState4>  (212) 
6.806156

>  <VSA_EState5>  (212) 
1.022956

>  <VSA_EState6>  (212) 
10.173654

>  <VSA_EState7>  (212) 
6.630326

>  <VSA_EState8>  (212) 
1.9333

>  <VSA_EState9>  (212) 
0.0

>  <FractionCSP3>  (212) 
0.333333

>  <HeavyAtomCount>  (212) 
24

>  <NHOHCount>  (212) 
4

>  <NOCount>  (212) 
5

>  <NumAliphaticCarbocycles>  (212) 
0

>  <NumAliphaticHeterocycles>  (212) 
1

>  <NumAliphaticRings>  (212) 
1

>  <NumAromaticCarbocycles>  (212) 
1

>  <NumAromaticHeterocycles>  (212) 
2

>  <NumAromaticRings>  (212) 
3

>  <NumHAcceptors>  (212) 
3

>  <NumHDonors>  (212) 
2

>  <NumHeteroatoms>  (212) 
6

>  <NumRotatableBonds>  (212) 
3

>  <NumSaturatedCarbocycles>  (212) 
0

>  <NumSaturatedHeterocycles>  (212) 
1

>  <NumSaturatedRings>  (212) 
1

>  <RingCount>  (212) 
4

>  <MolLogP>  (212) 
2.4349

>  <MolMR>  (212) 
96.1108

>  <fr_Al_COO>  (212) 
0

>  <fr_Al_OH>  (212) 
0

>  <fr_Al_OH_noTert>  (212) 
0

>  <fr_ArN>  (212) 
0

>  <fr_Ar_COO>  (212) 
0

>  <fr_Ar_N>  (212) 
3

>  <fr_Ar_NH>  (212) 
1

>  <fr_Ar_OH>  (212) 
0

>  <fr_COO>  (212) 
0

>  <fr_COO2>  (212) 
0

>  <fr_C_O>  (212) 
0

>  <fr_C_O_noCOO>  (212) 
0

>  <fr_C_S>  (212) 
0

>  <fr_HOCCN>  (212) 
0

>  <fr_Imine>  (212) 
0

>  <fr_NH0>  (212) 
3

>  <fr_NH1>  (212) 
1

>  <fr_NH2>  (212) 
0

>  <fr_N_O>  (212) 
0

>  <fr_Ndealkylation1>  (212) 
0

>  <fr_Ndealkylation2>  (212) 
0

>  <fr_Nhpyrrole>  (212) 
1

>  <fr_SH>  (212) 
0

>  <fr_aldehyde>  (212) 
0

>  <fr_alkyl_carbamate>  (212) 
0

>  <fr_alkyl_halide>  (212) 
0

>  <fr_allylic_oxid>  (212) 
0

>  <fr_amide>  (212) 
0

>  <fr_amidine>  (212) 
0

>  <fr_aniline>  (212) 
1

>  <fr_aryl_methyl>  (212) 
0

>  <fr_azide>  (212) 
0

>  <fr_azo>  (212) 
0

>  <fr_barbitur>  (212) 
0

>  <fr_benzene>  (212) 
1

>  <fr_benzodiazepine>  (212) 
0

>  <fr_bicyclic>  (212) 
1

>  <fr_diazo>  (212) 
0

>  <fr_dihydropyridine>  (212) 
0

>  <fr_epoxide>  (212) 
0

>  <fr_ester>  (212) 
0

>  <fr_ether>  (212) 
0

>  <fr_furan>  (212) 
0

>  <fr_guanido>  (212) 
0

>  <fr_halogen>  (212) 
1

>  <fr_hdrzine>  (212) 
0

>  <fr_hdrzone>  (212) 
0

>  <fr_imidazole>  (212) 
0

>  <fr_imide>  (212) 
0

>  <fr_isocyan>  (212) 
0

>  <fr_isothiocyan>  (212) 
0

>  <fr_ketone>  (212) 
0

>  <fr_ketone_Topliss>  (212) 
0

>  <fr_lactam>  (212) 
0

>  <fr_lactone>  (212) 
0

>  <fr_methoxy>  (212) 
0

>  <fr_morpholine>  (212) 
0

>  <fr_nitrile>  (212) 
0

>  <fr_nitro>  (212) 
0

>  <fr_nitro_arom>  (212) 
0

>  <fr_nitro_arom_nonortho>  (212) 
0

>  <fr_nitroso>  (212) 
0

>  <fr_oxazole>  (212) 
0

>  <fr_oxime>  (212) 
0

>  <fr_para_hydroxylation>  (212) 
0

>  <fr_phenol>  (212) 
0

>  <fr_phenol_noOrthoHbond>  (212) 
0

>  <fr_phos_acid>  (212) 
0

>  <fr_phos_ester>  (212) 
0

>  <fr_piperdine>  (212) 
1

>  <fr_piperzine>  (212) 
0

>  <fr_priamide>  (212) 
0

>  <fr_prisulfonamd>  (212) 
0

>  <fr_pyridine>  (212) 
0

>  <fr_quatN>  (212) 
1

>  <fr_sulfide>  (212) 
0

>  <fr_sulfonamd>  (212) 
0

>  <fr_sulfone>  (212) 
0

>  <fr_term_acetylene>  (212) 
0

>  <fr_tetrazole>  (212) 
0

>  <fr_thiazole>  (212) 
0

>  <fr_thiocyan>  (212) 
0

>  <fr_thiophene>  (212) 
0

>  <fr_unbrch_alkane>  (212) 
0

>  <fr_urea>  (212) 
0

>  <NP_Likeness>  (212) 
-0.862214

$$$$
M05
     RDKit          3D

  0  0  0  0  0  0  0  0  0  0999 V3000
M  V30 BEGIN CTAB
M  V30 COUNTS 45 48 0 0 0
M  V30 BEGIN ATOM
M  V30 1 Cl 15.137000 9.467000 -0.966000 0
M  V30 2 N 11.091000 7.734000 3.937000 0 CHG=1
M  V30 3 N 3.201000 10.089000 4.238000 0
M  V30 4 N 5.440000 9.887000 5.101000 0
M  V30 5 N 3.050000 10.109000 1.829000 0
M  V30 6 N 7.371000 9.747000 3.742000 0
M  V30 7 C 4.110000 10.000000 5.214000 0
M  V30 8 C 3.923000 10.094000 0.805000 0
M  V30 9 C 8.073000 9.577000 2.461000 0
M  V30 10 C 8.259000 10.142000 4.834000 0
M  V30 11 C 14.309000 9.395000 1.630000 0
M  V30 12 C 12.680000 10.111000 0.007000 0
M  V30 13 C 5.198000 9.983000 1.316000 0
M  V30 14 C 13.366000 9.548000 2.639000 0
M  V30 15 C 11.750000 10.283000 1.017000 0
M  V30 16 C 9.227000 8.593000 2.583000 0
M  V30 17 C 9.366000 9.116000 5.015000 0
M  V30 18 C 11.053000 10.162000 3.438000 0
M  V30 19 C 13.965000 9.668000 0.307000 0
M  V30 20 C 3.738000 10.072000 3.018000 0
M  V30 21 C 5.962000 9.880000 3.843000 0
M  V30 22 C 12.078000 9.995000 2.344000 0
M  V30 23 C 5.093000 9.978000 2.733000 0
M  V30 24 C 10.189000 8.917000 3.740000 0
M  V30 25 H 11.976100 8.043800 4.284300 0
M  V30 26 H 10.676600 7.104700 4.594500 0
M  V30 27 H 2.054600 10.142000 1.738700 0
M  V30 28 H 3.751500 10.020400 6.147300 0
M  V30 29 H 3.686100 10.153500 -0.164700 0
M  V30 30 H 8.431400 10.463100 2.166900 0
M  V30 31 H 7.426100 9.236000 1.778900 0
M  V30 32 H 7.730600 10.209300 5.680300 0
M  V30 33 H 8.665200 11.031100 4.623100 0
M  V30 34 H 15.234600 9.089000 1.853000 0
M  V30 35 H 12.428300 10.305500 -0.941000 0
M  V30 36 H 6.043400 9.917800 0.785900 0
M  V30 37 H 13.612800 9.335900 3.584600 0
M  V30 38 H 10.833900 10.616800 0.794800 0
M  V30 39 H 9.745000 8.604800 1.727700 0
M  V30 40 H 8.849500 7.679000 2.731500 0
M  V30 41 H 8.954800 8.241400 5.271900 0
M  V30 42 H 9.974800 9.425500 5.745500 0
M  V30 43 H 10.439000 10.905600 3.173300 0
M  V30 44 H 11.536500 10.411700 4.277000 0
M  V30 45 H 11.221400 7.265100 3.063400 0
M  V30 END ATOM
M  V30 BEGIN BOND
M  V30 1 1 1 19
M  V30 2 1 2 24
M  V30 3 2 3 7
M  V30 4 1 3 20
M  V30 5 1 4 7
M  V30 6 2 4 21
M  V30 7 1 5 8
M  V30 8 1 5 20
M  V30 9 1 6 9
M  V30 10 1 6 10
M  V30 11 1 6 21
M  V30 12 2 8 13
M  V30 13 1 9 16
M  V30 14 1 10 17
M  V30 15 2 11 14
M  V30 16 1 11 19
M  V30 17 1 12 15
M  V30 18 2 12 19
M  V30 19 1 13 23
M  V30 20 1 14 22
M  V30 21 2 15 22
M  V30 22 1 16 24
M  V30 23 1 17 24
M  V30 24 1 18 22
M  V30 25 1 24 18
M  V30 26 2 20 23
M  V30 27 1 21 23
M  V30 28 1 2 25
M  V30 29 1 2 26
M  V30 30 1 5 27
M  V30 31 1 7 28
M  V30 32 1 8 29
M  V30 33 1 9 30
M  V30 34 1 9 31
M  V30 35 1 10 32
M  V30 36 1 10 33
M  V30 37 1 11 34
M  V30 38 1 12 35
M  V30 39 1 13 36
M  V30 40 1 14 37
M  V30 41 1 15 38
M  V30 42 1 16 39
M  V30 43 1 16 40
M  V30 44 1 17 41
M  V30 45 1 17 42
M  V30 46 1 18 43
M  V30 47 1 18 44
M  V30 48 1 2 45
M  V30 END BOND
M  V30 END CTAB
M  END
>  <Ligand_Instance>  (213) 
2VO7_M05_A_1352

>  <Dataset>  (213) 
PDB

>  <PDB_ID>  (213) 
2VO7

>  <Chain>  (213) 
A

>  <Resi>  (213) 
1352

>  <Num_Resolved_Atoms>  (213) 
24

>  <Num_H_Atoms_ProtBoundConf>  (213) 
21

>  <Pocket>  (213) 
A

>  <Name>  (213) 
4-(4-chlorobenzyl)-1-(7H-pyrrolo[2,3-d]pyrimidin-4-yl)piperidin-4-aminium

>  <Num_Not_Resolved_Atoms>  (213) 
0

>  <ATP_Site>  (213) 
True

>  <Peripheral>  (213) 
True

>  <Standardized_SMILES>  (213) 
[H]C1=NC2=C(C(N3C([H])([H])C([H])([H])C(C([H])([H])C4=C([H])C([H])=C(Cl)C([H])=C4[H])([N+]([H])([H])[H])C([H])([H])C3([H])[H])=N1)C([H])=C([H])N2[H]

>  <2D_Mol_H>  (213) 
<rdkit.Chem.rdchem.Mol object at 0x77059d81dc40>

>  <MW>  (213) 
342.854

>  <HBA>  (213) 
3

>  <HBD>  (213) 
2

>  <LogP>  (213) 
2.4349

>  <NRB>  (213) 
4

>  <TPSA>  (213) 
72.45

>  <Num_Heavy_Atoms>  (213) 
24

>  <Ro5>  (213) 
[True, True, True, True, True, True]

>  <Ro5_Fulfilled>  (213) 
True

>  <Ro3>  (213) 
[False, True, True, True]

>  <Ro3_Fulfilled>  (213) 
True

>  <Fsp3>  (213) 
0.333333

>  <Fsp3_0.42>  (213) 
False

>  <Fsp3_0.45>  (213) 
False

>  <Stereogenic_Carbons>  (213) 
0

>  <C_Atoms>  (213) 
18

>  <FCStereo>  (213) 
0.0

>  <SPS>  (213) 
416

>  <nSPS>  (213) 
17.333333

>  <PBF>  (213) 
0.630373

>  <PBF_0.6>  (213) 
True

>  <nPBF>  (213) 
0.026266

>  <nPBF_0.016>  (213) 
True

>  <PMI1>  (213) 
943.518528

>  <PMI2>  (213) 
6022.40454

>  <PMI3>  (213) 
6755.75644

>  <NPR1>  (213) 
0.139661

>  <NPR2>  (213) 
0.891448

>  <Sum_NPR>  (213) 
1.031109

>  <Sum_NPR_1.07>  (213) 
False

>  <Sum_NPR_1.2>  (213) 
False

>  <MaxAbsEStateIndex>  (213) 
5.977488

>  <MaxEStateIndex>  (213) 
5.977488

>  <MinAbsEStateIndex>  (213) 
0.077998

>  <MinEStateIndex>  (213) 
0.077998

>  <qed>  (213) 
0.76749

>  <MolWt>  (213) 
342.854

>  <HeavyAtomMolWt>  (213) 
321.686

>  <ExactMolWt>  (213) 
342.148

>  <NumValenceElectrons>  (213) 
124

>  <NumRadicalElectrons>  (213) 
0

>  <MaxPartialCharge>  (213) 
0.142343

>  <MinPartialCharge>  (213) 
-0.355453

>  <MaxAbsPartialCharge>  (213) 
0.355453

>  <MinAbsPartialCharge>  (213) 
0.142343

>  <FpDensityMorgan1>  (213) 
1.125

>  <FpDensityMorgan2>  (213) 
1.875

>  <FpDensityMorgan3>  (213) 
2.625

>  <BCUT2D_MWHI>  (213) 
35.495692

>  <BCUT2D_MWLOW>  (213) 
9.826108

>  <BCUT2D_CHGHI>  (213) 
2.348412

>  <BCUT2D_CHGLO>  (213) 
-2.371099

>  <BCUT2D_LOGPHI>  (213) 
2.286004

>  <BCUT2D_LOGPLOW>  (213) 
-2.760567

>  <BCUT2D_MRHI>  (213) 
6.300866

>  <BCUT2D_MRLOW>  (213) 
-0.481669

>  <AvgIpc>  (213) 
3.063622

>  <BalabanJ>  (213) 
1.476756

>  <BertzCT>  (213) 
833.996222

>  <Chi0>  (213) 
16.570703

>  <Chi0n>  (213) 
13.503698

>  <Chi0v>  (213) 
14.259627

>  <Chi1>  (213) 
11.628742

>  <Chi1n>  (213) 
8.258474

>  <Chi1v>  (213) 
8.636438

>  <Chi2n>  (213) 
6.72752

>  <Chi2v>  (213) 
7.163955

>  <Chi3n>  (213) 
4.948947

>  <Chi3v>  (213) 
5.200924

>  <Chi4n>  (213) 
3.515607

>  <Chi4v>  (213) 
3.641595

>  <HallKierAlpha>  (213) 
-2.11

>  <Ipc>  (213) 
537677.887813

>  <Kappa1>  (213) 
15.419591

>  <Kappa2>  (213) 
6.072824

>  <Kappa3>  (213) 
2.969331

>  <LabuteASA>  (213) 
145.40543

>  <PEOE_VSA1>  (213) 
15.617556

>  <PEOE_VSA10>  (213) 
23.331285

>  <PEOE_VSA11>  (213) 
0.0

>  <PEOE_VSA12>  (213) 
0.0

>  <PEOE_VSA13>  (213) 
0.0

>  <PEOE_VSA14>  (213) 
0.0

>  <PEOE_VSA2>  (213) 
0.0

>  <PEOE_VSA3>  (213) 
9.967957

>  <PEOE_VSA4>  (213) 
0.0

>  <PEOE_VSA5>  (213) 
0.0

>  <PEOE_VSA6>  (213) 
23.733674

>  <PEOE_VSA7>  (213) 
23.762553

>  <PEOE_VSA8>  (213) 
43.571455

>  <PEOE_VSA9>  (213) 
5.386224

>  <SMR_VSA1>  (213) 
5.733667

>  <SMR_VSA10>  (213) 
28.452204

>  <SMR_VSA2>  (213) 
0.0

>  <SMR_VSA3>  (213) 
14.951936

>  <SMR_VSA4>  (213) 
0.0

>  <SMR_VSA5>  (213) 
24.80139

>  <SMR_VSA6>  (213) 
17.989423

>  <SMR_VSA7>  (213) 
53.442084

>  <SMR_VSA8>  (213) 
0.0

>  <SMR_VSA9>  (213) 
0.0

>  <SlogP_VSA1>  (213) 
10.633577

>  <SlogP_VSA10>  (213) 
5.817863

>  <SlogP_VSA11>  (213) 
0.0

>  <SlogP_VSA12>  (213) 
11.60094

>  <SlogP_VSA2>  (213) 
33.580374

>  <SlogP_VSA3>  (213) 
6.420822

>  <SlogP_VSA4>  (213) 
0.0

>  <SlogP_VSA5>  (213) 
18.405095

>  <SlogP_VSA6>  (213) 
42.855999

>  <SlogP_VSA7>  (213) 
5.022633

>  <SlogP_VSA8>  (213) 
11.033401

>  <SlogP_VSA9>  (213) 
0.0

>  <EState_VSA1>  (213) 
0.0

>  <EState_VSA10>  (213) 
0.0

>  <EState_VSA11>  (213) 
0.0

>  <EState_VSA2>  (213) 
5.538925

>  <EState_VSA3>  (213) 
0.0

>  <EState_VSA4>  (213) 
54.225875

>  <EState_VSA5>  (213) 
5.563451

>  <EState_VSA6>  (213) 
6.32732

>  <EState_VSA7>  (213) 
24.395945

>  <EState_VSA8>  (213) 
37.718247

>  <EState_VSA9>  (213) 
11.60094

>  <VSA_EState1>  (213) 
0.0

>  <VSA_EState10>  (213) 
5.977488

>  <VSA_EState2>  (213) 
14.27767

>  <VSA_EState3>  (213) 
1.872895

>  <VSA_EState4>  (213) 
6.806156

>  <VSA_EState5>  (213) 
1.022956

>  <VSA_EState6>  (213) 
10.173654

>  <VSA_EState7>  (213) 
6.630326

>  <VSA_EState8>  (213) 
1.9333

>  <VSA_EState9>  (213) 
0.0

>  <FractionCSP3>  (213) 
0.333333

>  <HeavyAtomCount>  (213) 
24

>  <NHOHCount>  (213) 
4

>  <NOCount>  (213) 
5

>  <NumAliphaticCarbocycles>  (213) 
0

>  <NumAliphaticHeterocycles>  (213) 
1

>  <NumAliphaticRings>  (213) 
1

>  <NumAromaticCarbocycles>  (213) 
1

>  <NumAromaticHeterocycles>  (213) 
2

>  <NumAromaticRings>  (213) 
3

>  <NumHAcceptors>  (213) 
3

>  <NumHDonors>  (213) 
2

>  <NumHeteroatoms>  (213) 
6

>  <NumRotatableBonds>  (213) 
3

>  <NumSaturatedCarbocycles>  (213) 
0

>  <NumSaturatedHeterocycles>  (213) 
1

>  <NumSaturatedRings>  (213) 
1

>  <RingCount>  (213) 
4

>  <MolLogP>  (213) 
2.4349

>  <MolMR>  (213) 
96.1108

>  <fr_Al_COO>  (213) 
0

>  <fr_Al_OH>  (213) 
0

>  <fr_Al_OH_noTert>  (213) 
0

>  <fr_ArN>  (213) 
0

>  <fr_Ar_COO>  (213) 
0

>  <fr_Ar_N>  (213) 
3

>  <fr_Ar_NH>  (213) 
1

>  <fr_Ar_OH>  (213) 
0

>  <fr_COO>  (213) 
0

>  <fr_COO2>  (213) 
0

>  <fr_C_O>  (213) 
0

>  <fr_C_O_noCOO>  (213) 
0

>  <fr_C_S>  (213) 
0

>  <fr_HOCCN>  (213) 
0

>  <fr_Imine>  (213) 
0

>  <fr_NH0>  (213) 
3

>  <fr_NH1>  (213) 
1

>  <fr_NH2>  (213) 
0

>  <fr_N_O>  (213) 
0

>  <fr_Ndealkylation1>  (213) 
0

>  <fr_Ndealkylation2>  (213) 
0

>  <fr_Nhpyrrole>  (213) 
1

>  <fr_SH>  (213) 
0

>  <fr_aldehyde>  (213) 
0

>  <fr_alkyl_carbamate>  (213) 
0

>  <fr_alkyl_halide>  (213) 
0

>  <fr_allylic_oxid>  (213) 
0

>  <fr_amide>  (213) 
0

>  <fr_amidine>  (213) 
0

>  <fr_aniline>  (213) 
1

>  <fr_aryl_methyl>  (213) 
0

>  <fr_azide>  (213) 
0

>  <fr_azo>  (213) 
0

>  <fr_barbitur>  (213) 
0

>  <fr_benzene>  (213) 
1

>  <fr_benzodiazepine>  (213) 
0

>  <fr_bicyclic>  (213) 
1

>  <fr_diazo>  (213) 
0

>  <fr_dihydropyridine>  (213) 
0

>  <fr_epoxide>  (213) 
0

>  <fr_ester>  (213) 
0

>  <fr_ether>  (213) 
0

>  <fr_furan>  (213) 
0

>  <fr_guanido>  (213) 
0

>  <fr_halogen>  (213) 
1

>  <fr_hdrzine>  (213) 
0

>  <fr_hdrzone>  (213) 
0

>  <fr_imidazole>  (213) 
0

>  <fr_imide>  (213) 
0

>  <fr_isocyan>  (213) 
0

>  <fr_isothiocyan>  (213) 
0

>  <fr_ketone>  (213) 
0

>  <fr_ketone_Topliss>  (213) 
0

>  <fr_lactam>  (213) 
0

>  <fr_lactone>  (213) 
0

>  <fr_methoxy>  (213) 
0

>  <fr_morpholine>  (213) 
0

>  <fr_nitrile>  (213) 
0

>  <fr_nitro>  (213) 
0

>  <fr_nitro_arom>  (213) 
0

>  <fr_nitro_arom_nonortho>  (213) 
0

>  <fr_nitroso>  (213) 
0

>  <fr_oxazole>  (213) 
0

>  <fr_oxime>  (213) 
0

>  <fr_para_hydroxylation>  (213) 
0

>  <fr_phenol>  (213) 
0

>  <fr_phenol_noOrthoHbond>  (213) 
0

>  <fr_phos_acid>  (213) 
0

>  <fr_phos_ester>  (213) 
0

>  <fr_piperdine>  (213) 
1

>  <fr_piperzine>  (213) 
0

>  <fr_priamide>  (213) 
0

>  <fr_prisulfonamd>  (213) 
0

>  <fr_pyridine>  (213) 
0

>  <fr_quatN>  (213) 
1

>  <fr_sulfide>  (213) 
0

>  <fr_sulfonamd>  (213) 
0

>  <fr_sulfone>  (213) 
0

>  <fr_term_acetylene>  (213) 
0

>  <fr_tetrazole>  (213) 
0

>  <fr_thiazole>  (213) 
0

>  <fr_thiocyan>  (213) 
0

>  <fr_thiophene>  (213) 
0

>  <fr_unbrch_alkane>  (213) 
0

>  <fr_urea>  (213) 
0

>  <NP_Likeness>  (213) 
-0.862214

$$$$
M77
     RDKit          3D

  0  0  0  0  0  0  0  0  0  0999 V3000
M  V30 BEGIN CTAB
M  V30 COUNTS 38 40 0 0 0
M  V30 BEGIN ATOM
M  V30 1 S 8.563000 10.075000 4.078000 0
M  V30 2 O 8.663000 11.083000 5.139000 0
M  V30 3 O 9.579000 10.222000 3.061000 0
M  V30 4 N 11.115000 7.145000 3.466000 0 CHG=1
M  V30 5 N 3.188000 9.925000 4.830000 0
M  V30 6 N 8.747000 8.590000 4.661000 0
M  V30 7 C 9.816000 7.411000 2.717000 0
M  V30 8 C 11.348000 7.920000 4.747000 0
M  V30 9 C 4.255000 9.932000 5.680000 0
M  V30 10 C 3.389000 10.008000 3.514000 0
M  V30 11 C 8.640000 7.443000 3.702000 0
M  V30 12 C 9.174000 8.430000 6.043000 0
M  V30 13 C 10.464000 7.571000 5.947000 0
M  V30 14 C 6.079000 10.134000 0.924000 0
M  V30 15 C 5.529000 9.971000 5.176000 0
M  V30 16 C 7.229000 10.147000 1.768000 0
M  V30 17 C 4.817000 10.103000 1.512000 0
M  V30 18 C 7.082000 10.085000 3.146000 0
M  V30 19 C 4.653000 10.068000 2.912000 0
M  V30 20 C 5.784000 10.028000 3.764000 0
M  V30 21 H 11.869200 7.357400 2.844700 0
M  V30 22 H 9.666100 6.685200 2.045700 0
M  V30 23 H 9.878800 8.291600 2.247400 0
M  V30 24 H 11.208200 8.888700 4.542100 0
M  V30 25 H 12.298400 7.770900 5.020100 0
M  V30 26 H 4.107900 9.908700 6.668900 0
M  V30 27 H 2.585900 10.028700 2.918600 0
M  V30 28 H 7.788000 7.531200 3.185900 0
M  V30 29 H 8.628800 6.587900 4.220300 0
M  V30 30 H 8.473100 7.958500 6.578300 0
M  V30 31 H 9.369600 9.318200 6.458700 0
M  V30 32 H 10.997000 7.707500 6.782000 0
M  V30 33 H 10.198400 6.609600 5.874500 0
M  V30 34 H 6.177200 10.146900 -0.071100 0
M  V30 35 H 6.302700 9.959400 5.809400 0
M  V30 36 H 8.142800 10.200900 1.365500 0
M  V30 37 H 4.006400 10.105600 0.926400 0
M  V30 38 H 11.136000 6.171900 3.695300 0
M  V30 END ATOM
M  V30 BEGIN BOND
M  V30 1 2 1 2
M  V30 2 2 1 3
M  V30 3 1 1 6
M  V30 4 1 1 18
M  V30 5 1 4 7
M  V30 6 1 4 8
M  V30 7 2 5 9
M  V30 8 1 5 10
M  V30 9 1 6 11
M  V30 10 1 6 12
M  V30 11 1 7 11
M  V30 12 1 8 13
M  V30 13 1 9 15
M  V30 14 2 10 19
M  V30 15 1 12 13
M  V30 16 1 14 16
M  V30 17 2 14 17
M  V30 18 2 15 20
M  V30 19 2 16 18
M  V30 20 1 17 19
M  V30 21 1 18 20
M  V30 22 1 19 20
M  V30 23 1 4 21
M  V30 24 1 7 22
M  V30 25 1 7 23
M  V30 26 1 8 24
M  V30 27 1 8 25
M  V30 28 1 9 26
M  V30 29 1 10 27
M  V30 30 1 11 28
M  V30 31 1 11 29
M  V30 32 1 12 30
M  V30 33 1 12 31
M  V30 34 1 13 32
M  V30 35 1 13 33
M  V30 36 1 14 34
M  V30 37 1 15 35
M  V30 38 1 16 36
M  V30 39 1 17 37
M  V30 40 1 4 38
M  V30 END BOND
M  V30 END CTAB
M  END
>  <Ligand_Instance>  (214) 
2GNI_M77_A_601

>  <Dataset>  (214) 
PDB

>  <PDB_ID>  (214) 
2GNI

>  <Chain>  (214) 
A

>  <Resi>  (214) 
601

>  <Num_Resolved_Atoms>  (214) 
20

>  <Num_H_Atoms_ProtBoundConf>  (214) 
18

>  <Pocket>  (214) 
A

>  <Name>  (214) 
5-(1,4-DIAZEPAN-1-SULFONYL)ISOQUINOLINE

>  <Num_Not_Resolved_Atoms>  (214) 
0

>  <ATP_Site>  (214) 
True

>  <Peripheral>  (214) 
False

>  <Standardized_SMILES>  (214) 
[H]C1=NC([H])=C2C([H])=C([H])C([H])=C(S(=O)(=O)N3C([H])([H])C([H])([H])C([H])([H])[N+]([H])([H])C([H])([H])C3([H])[H])C2=C1[H]

>  <2D_Mol_H>  (214) 
<rdkit.Chem.rdchem.Mol object at 0x77059d81dd20>

>  <MW>  (214) 
292.384

>  <HBA>  (214) 
3

>  <HBD>  (214) 
1

>  <LogP>  (214) 
0.1926

>  <NRB>  (214) 
2

>  <TPSA>  (214) 
66.88

>  <Num_Heavy_Atoms>  (214) 
20

>  <Ro5>  (214) 
[True, True, True, True, True, True]

>  <Ro5_Fulfilled>  (214) 
True

>  <Ro3>  (214) 
[True, True, True, True]

>  <Ro3_Fulfilled>  (214) 
True

>  <Fsp3>  (214) 
0.357143

>  <Fsp3_0.42>  (214) 
False

>  <Fsp3_0.45>  (214) 
False

>  <Stereogenic_Carbons>  (214) 
0

>  <C_Atoms>  (214) 
14

>  <FCStereo>  (214) 
0.0

>  <SPS>  (214) 
360

>  <nSPS>  (214) 
18.0

>  <PBF>  (214) 
0.724659

>  <PBF_0.6>  (214) 
True

>  <nPBF>  (214) 
0.036233

>  <nPBF_0.016>  (214) 
True

>  <PMI1>  (214) 
798.125304

>  <PMI2>  (214) 
2215.868459

>  <PMI3>  (214) 
2524.136395

>  <NPR1>  (214) 
0.316197

>  <NPR2>  (214) 
0.877872

>  <Sum_NPR>  (214) 
1.194069

>  <Sum_NPR_1.07>  (214) 
True

>  <Sum_NPR_1.2>  (214) 
False

>  <MaxAbsEStateIndex>  (214) 
12.845614

>  <MaxEStateIndex>  (214) 
12.845614

>  <MinAbsEStateIndex>  (214) 
0.388241

>  <MinEStateIndex>  (214) 
-3.426412

>  <qed>  (214) 
0.859215

>  <MolWt>  (214) 
292.384

>  <HeavyAtomMolWt>  (214) 
274.24

>  <ExactMolWt>  (214) 
292.111424

>  <NumValenceElectrons>  (214) 
106

>  <NumRadicalElectrons>  (214) 
0

>  <MaxPartialCharge>  (214) 
0.243397

>  <MinPartialCharge>  (214) 
-0.345118

>  <MaxAbsPartialCharge>  (214) 
0.345118

>  <MinAbsPartialCharge>  (214) 
0.243397

>  <FpDensityMorgan1>  (214) 
1.15

>  <FpDensityMorgan2>  (214) 
2.05

>  <FpDensityMorgan3>  (214) 
2.95

>  <BCUT2D_MWHI>  (214) 
32.233427

>  <BCUT2D_MWLOW>  (214) 
10.168311

>  <BCUT2D_CHGHI>  (214) 
2.268872

>  <BCUT2D_CHGLO>  (214) 
-2.192579

>  <BCUT2D_LOGPHI>  (214) 
2.246607

>  <BCUT2D_LOGPLOW>  (214) 
-2.843702

>  <BCUT2D_MRHI>  (214) 
7.889641

>  <BCUT2D_MRLOW>  (214) 
-0.650697

>  <AvgIpc>  (214) 
2.759566

>  <BalabanJ>  (214) 
2.085841

>  <BertzCT>  (214) 
701.935726

>  <Chi0>  (214) 
14.001789

>  <Chi0n>  (214) 
11.196158

>  <Chi0v>  (214) 
12.012654

>  <Chi1>  (214) 
9.693507

>  <Chi1n>  (214) 
6.840082

>  <Chi1v>  (214) 
8.280145

>  <Chi2n>  (214) 
4.976624

>  <Chi2v>  (214) 
6.882981

>  <Chi3n>  (214) 
3.656948

>  <Chi3v>  (214) 
5.613741

>  <Chi4n>  (214) 
2.60061

>  <Chi4v>  (214) 
4.308342

>  <HallKierAlpha>  (214) 
-1.5

>  <Ipc>  (214) 
56228.921022

>  <Kappa1>  (214) 
13.481559

>  <Kappa2>  (214) 
5.47472

>  <Kappa3>  (214) 
2.416781

>  <LabuteASA>  (214) 
118.222067

>  <PEOE_VSA1>  (214) 
5.316789

>  <PEOE_VSA10>  (214) 
0.0

>  <PEOE_VSA11>  (214) 
0.0

>  <PEOE_VSA12>  (214) 
10.023291

>  <PEOE_VSA13>  (214) 
0.0

>  <PEOE_VSA14>  (214) 
0.0

>  <PEOE_VSA2>  (214) 
4.983979

>  <PEOE_VSA3>  (214) 
8.417797

>  <PEOE_VSA4>  (214) 
4.305216

>  <PEOE_VSA5>  (214) 
0.0

>  <PEOE_VSA6>  (214) 
12.132734

>  <PEOE_VSA7>  (214) 
12.132734

>  <PEOE_VSA8>  (214) 
36.131714

>  <PEOE_VSA9>  (214) 
24.529753

>  <SMR_VSA1>  (214) 
13.734586

>  <SMR_VSA10>  (214) 
20.79574

>  <SMR_VSA2>  (214) 
0.0

>  <SMR_VSA3>  (214) 
9.289195

>  <SMR_VSA4>  (214) 
0.0

>  <SMR_VSA5>  (214) 
11.316305

>  <SMR_VSA6>  (214) 
26.179026

>  <SMR_VSA7>  (214) 
36.659155

>  <SMR_VSA8>  (214) 
0.0

>  <SMR_VSA9>  (214) 
0.0

>  <SlogP_VSA1>  (214) 
5.316789

>  <SlogP_VSA10>  (214) 
0.0

>  <SlogP_VSA11>  (214) 
0.0

>  <SlogP_VSA12>  (214) 
0.0

>  <SlogP_VSA2>  (214) 
43.886017

>  <SlogP_VSA3>  (214) 
10.023291

>  <SlogP_VSA4>  (214) 
0.0

>  <SlogP_VSA5>  (214) 
6.420822

>  <SlogP_VSA6>  (214) 
41.554639

>  <SlogP_VSA7>  (214) 
0.0

>  <SlogP_VSA8>  (214) 
10.772448

>  <SlogP_VSA9>  (214) 
0.0

>  <EState_VSA1>  (214) 
10.023291

>  <EState_VSA10>  (214) 
8.417797

>  <EState_VSA11>  (214) 
0.0

>  <EState_VSA2>  (214) 
0.0

>  <EState_VSA3>  (214) 
17.984996

>  <EState_VSA4>  (214) 
30.282783

>  <EState_VSA5>  (214) 
0.0

>  <EState_VSA6>  (214) 
34.898004

>  <EState_VSA7>  (214) 
6.066367

>  <EState_VSA8>  (214) 
10.300767

>  <EState_VSA9>  (214) 
0.0

>  <VSA_EState1>  (214) 
27.294107

>  <VSA_EState10>  (214) 
0.0

>  <VSA_EState2>  (214) 
4.43837

>  <VSA_EState3>  (214) 
3.771674

>  <VSA_EState4>  (214) 
0.0

>  <VSA_EState5>  (214) 
0.0

>  <VSA_EState6>  (214) 
7.121861

>  <VSA_EState7>  (214) 
4.229827

>  <VSA_EState8>  (214) 
2.98724

>  <VSA_EState9>  (214) 
-3.426412

>  <FractionCSP3>  (214) 
0.357143

>  <HeavyAtomCount>  (214) 
20

>  <NHOHCount>  (214) 
2

>  <NOCount>  (214) 
5

>  <NumAliphaticCarbocycles>  (214) 
0

>  <NumAliphaticHeterocycles>  (214) 
1

>  <NumAliphaticRings>  (214) 
1

>  <NumAromaticCarbocycles>  (214) 
1

>  <NumAromaticHeterocycles>  (214) 
1

>  <NumAromaticRings>  (214) 
2

>  <NumHAcceptors>  (214) 
3

>  <NumHDonors>  (214) 
1

>  <NumHeteroatoms>  (214) 
6

>  <NumRotatableBonds>  (214) 
2

>  <NumSaturatedCarbocycles>  (214) 
0

>  <NumSaturatedHeterocycles>  (214) 
1

>  <NumSaturatedRings>  (214) 
1

>  <RingCount>  (214) 
3

>  <MolLogP>  (214) 
0.1926

>  <MolMR>  (214) 
76.7782

>  <fr_Al_COO>  (214) 
0

>  <fr_Al_OH>  (214) 
0

>  <fr_Al_OH_noTert>  (214) 
0

>  <fr_ArN>  (214) 
0

>  <fr_Ar_COO>  (214) 
0

>  <fr_Ar_N>  (214) 
1

>  <fr_Ar_NH>  (214) 
0

>  <fr_Ar_OH>  (214) 
0

>  <fr_COO>  (214) 
0

>  <fr_COO2>  (214) 
0

>  <fr_C_O>  (214) 
0

>  <fr_C_O_noCOO>  (214) 
0

>  <fr_C_S>  (214) 
0

>  <fr_HOCCN>  (214) 
0

>  <fr_Imine>  (214) 
0

>  <fr_NH0>  (214) 
2

>  <fr_NH1>  (214) 
0

>  <fr_NH2>  (214) 
1

>  <fr_N_O>  (214) 
0

>  <fr_Ndealkylation1>  (214) 
0

>  <fr_Ndealkylation2>  (214) 
0

>  <fr_Nhpyrrole>  (214) 
0

>  <fr_SH>  (214) 
0

>  <fr_aldehyde>  (214) 
0

>  <fr_alkyl_carbamate>  (214) 
0

>  <fr_alkyl_halide>  (214) 
0

>  <fr_allylic_oxid>  (214) 
0

>  <fr_amide>  (214) 
0

>  <fr_amidine>  (214) 
0

>  <fr_aniline>  (214) 
0

>  <fr_aryl_methyl>  (214) 
0

>  <fr_azide>  (214) 
0

>  <fr_azo>  (214) 
0

>  <fr_barbitur>  (214) 
0

>  <fr_benzene>  (214) 
1

>  <fr_benzodiazepine>  (214) 
0

>  <fr_bicyclic>  (214) 
1

>  <fr_diazo>  (214) 
0

>  <fr_dihydropyridine>  (214) 
0

>  <fr_epoxide>  (214) 
0

>  <fr_ester>  (214) 
0

>  <fr_ether>  (214) 
0

>  <fr_furan>  (214) 
0

>  <fr_guanido>  (214) 
0

>  <fr_halogen>  (214) 
0

>  <fr_hdrzine>  (214) 
0

>  <fr_hdrzone>  (214) 
0

>  <fr_imidazole>  (214) 
0

>  <fr_imide>  (214) 
0

>  <fr_isocyan>  (214) 
0

>  <fr_isothiocyan>  (214) 
0

>  <fr_ketone>  (214) 
0

>  <fr_ketone_Topliss>  (214) 
0

>  <fr_lactam>  (214) 
0

>  <fr_lactone>  (214) 
0

>  <fr_methoxy>  (214) 
0

>  <fr_morpholine>  (214) 
0

>  <fr_nitrile>  (214) 
0

>  <fr_nitro>  (214) 
0

>  <fr_nitro_arom>  (214) 
0

>  <fr_nitro_arom_nonortho>  (214) 
0

>  <fr_nitroso>  (214) 
0

>  <fr_oxazole>  (214) 
0

>  <fr_oxime>  (214) 
0

>  <fr_para_hydroxylation>  (214) 
0

>  <fr_phenol>  (214) 
0

>  <fr_phenol_noOrthoHbond>  (214) 
0

>  <fr_phos_acid>  (214) 
0

>  <fr_phos_ester>  (214) 
0

>  <fr_piperdine>  (214) 
0

>  <fr_piperzine>  (214) 
0

>  <fr_priamide>  (214) 
0

>  <fr_prisulfonamd>  (214) 
0

>  <fr_pyridine>  (214) 
1

>  <fr_quatN>  (214) 
1

>  <fr_sulfide>  (214) 
0

>  <fr_sulfonamd>  (214) 
1

>  <fr_sulfone>  (214) 
0

>  <fr_term_acetylene>  (214) 
0

>  <fr_tetrazole>  (214) 
0

>  <fr_thiazole>  (214) 
0

>  <fr_thiocyan>  (214) 
0

>  <fr_thiophene>  (214) 
0

>  <fr_unbrch_alkane>  (214) 
0

>  <fr_urea>  (214) 
0

>  <NP_Likeness>  (214) 
-1.563087

$$$$
M77
     RDKit          3D

  0  0  0  0  0  0  0  0  0  0999 V3000
M  V30 BEGIN CTAB
M  V30 COUNTS 38 40 0 0 0
M  V30 BEGIN ATOM
M  V30 1 S -13.663000 -24.930000 27.296000 0
M  V30 2 O -13.087000 -25.994000 26.539000 0
M  V30 3 O -14.193000 -25.197000 28.594000 0
M  V30 4 N -9.524000 -22.917000 26.967000 0 CHG=1
M  V30 5 N -17.350000 -26.309000 23.599000 0
M  V30 6 N -12.493000 -23.806000 27.481000 0
M  V30 7 C -10.435000 -23.695000 26.075000 0
M  V30 8 C -9.796000 -23.079000 28.426000 0
M  V30 9 C -16.582000 -26.958000 24.486000 0
M  V30 10 C -17.364000 -24.981000 23.653000 0
M  V30 11 C -11.880000 -23.295000 26.243000 0
M  V30 12 C -12.386000 -23.033000 28.731000 0
M  V30 13 C -11.038000 -22.338000 28.885000 0
M  V30 14 C -15.834000 -22.115000 25.480000 0
M  V30 15 C -15.777000 -26.340000 25.398000 0
M  V30 16 C -14.964000 -22.788000 26.324000 0
M  V30 17 C -16.630000 -22.800000 24.612000 0
M  V30 18 C -14.904000 -24.156000 26.304000 0
M  V30 19 C -16.601000 -24.217000 24.564000 0
M  V30 20 C -15.748000 -24.926000 25.450000 0
M  V30 21 H -9.616100 -21.947900 26.738200 0
M  V30 22 H -10.343300 -24.667100 26.290800 0
M  V30 23 H -10.166200 -23.537600 25.124800 0
M  V30 24 H -9.010200 -22.730500 28.937000 0
M  V30 25 H -9.915500 -24.052400 28.621400 0
M  V30 26 H -16.600400 -27.957800 24.478700 0
M  V30 27 H -17.951500 -24.492000 23.008300 0
M  V30 28 H -11.932500 -22.296400 26.253000 0
M  V30 29 H -12.398400 -23.648300 25.464300 0
M  V30 30 H -12.514100 -23.655500 29.503100 0
M  V30 31 H -13.105700 -22.338800 28.739500 0
M  V30 32 H -11.083100 -21.484100 28.366500 0
M  V30 33 H -10.919100 -22.132200 29.856400 0
M  V30 34 H -15.877700 -21.116400 25.508600 0
M  V30 35 H -15.213600 -26.880400 26.022900 0
M  V30 36 H -14.378200 -22.272700 26.949600 0
M  V30 37 H -17.242100 -22.297500 24.001400 0
M  V30 38 H -8.585600 -23.213600 26.789800 0
M  V30 END ATOM
M  V30 BEGIN BOND
M  V30 1 2 1 2
M  V30 2 2 1 3
M  V30 3 1 1 6
M  V30 4 1 1 18
M  V30 5 1 4 7
M  V30 6 1 4 8
M  V30 7 2 5 9
M  V30 8 1 5 10
M  V30 9 1 6 11
M  V30 10 1 6 12
M  V30 11 1 7 11
M  V30 12 1 8 13
M  V30 13 1 9 15
M  V30 14 2 10 19
M  V30 15 1 12 13
M  V30 16 1 14 16
M  V30 17 2 14 17
M  V30 18 2 15 20
M  V30 19 2 16 18
M  V30 20 1 17 19
M  V30 21 1 18 20
M  V30 22 1 19 20
M  V30 23 1 4 21
M  V30 24 1 7 22
M  V30 25 1 7 23
M  V30 26 1 8 24
M  V30 27 1 8 25
M  V30 28 1 9 26
M  V30 29 1 10 27
M  V30 30 1 11 28
M  V30 31 1 11 29
M  V30 32 1 12 30
M  V30 33 1 12 31
M  V30 34 1 13 32
M  V30 35 1 13 33
M  V30 36 1 14 34
M  V30 37 1 15 35
M  V30 38 1 16 36
M  V30 39 1 17 37
M  V30 40 1 4 38
M  V30 END BOND
M  V30 END CTAB
M  END
>  <Ligand_Instance>  (215) 
5LCP_M77_A_401

>  <Dataset>  (215) 
PDB

>  <PDB_ID>  (215) 
5LCP

>  <Chain>  (215) 
A

>  <Resi>  (215) 
401

>  <Num_Resolved_Atoms>  (215) 
20

>  <Num_H_Atoms_ProtBoundConf>  (215) 
18

>  <Pocket>  (215) 
A

>  <Name>  (215) 
5-(1,4-DIAZEPAN-1-SULFONYL)ISOQUINOLINE

>  <Num_Not_Resolved_Atoms>  (215) 
0

>  <ATP_Site>  (215) 
True

>  <Peripheral>  (215) 
False

>  <Standardized_SMILES>  (215) 
[H]C1=NC([H])=C2C([H])=C([H])C([H])=C(S(=O)(=O)N3C([H])([H])C([H])([H])C([H])([H])[N+]([H])([H])C([H])([H])C3([H])[H])C2=C1[H]

>  <2D_Mol_H>  (215) 
<rdkit.Chem.rdchem.Mol object at 0x77059d81de00>

>  <MW>  (215) 
292.384

>  <HBA>  (215) 
3

>  <HBD>  (215) 
1

>  <LogP>  (215) 
0.1926

>  <NRB>  (215) 
2

>  <TPSA>  (215) 
66.88

>  <Num_Heavy_Atoms>  (215) 
20

>  <Ro5>  (215) 
[True, True, True, True, True, True]

>  <Ro5_Fulfilled>  (215) 
True

>  <Ro3>  (215) 
[True, True, True, True]

>  <Ro3_Fulfilled>  (215) 
True

>  <Fsp3>  (215) 
0.357143

>  <Fsp3_0.42>  (215) 
False

>  <Fsp3_0.45>  (215) 
False

>  <Stereogenic_Carbons>  (215) 
0

>  <C_Atoms>  (215) 
14

>  <FCStereo>  (215) 
0.0

>  <SPS>  (215) 
360

>  <nSPS>  (215) 
18.0

>  <PBF>  (215) 
0.915657

>  <PBF_0.6>  (215) 
True

>  <nPBF>  (215) 
0.045783

>  <nPBF_0.016>  (215) 
True

>  <PMI1>  (215) 
697.474336

>  <PMI2>  (215) 
2633.107194

>  <PMI3>  (215) 
2795.336104

>  <NPR1>  (215) 
0.249514

>  <NPR2>  (215) 
0.941964

>  <Sum_NPR>  (215) 
1.191478

>  <Sum_NPR_1.07>  (215) 
True

>  <Sum_NPR_1.2>  (215) 
False

>  <MaxAbsEStateIndex>  (215) 
12.845614

>  <MaxEStateIndex>  (215) 
12.845614

>  <MinAbsEStateIndex>  (215) 
0.388241

>  <MinEStateIndex>  (215) 
-3.426412

>  <qed>  (215) 
0.859215

>  <MolWt>  (215) 
292.384

>  <HeavyAtomMolWt>  (215) 
274.24

>  <ExactMolWt>  (215) 
292.111424

>  <NumValenceElectrons>  (215) 
106

>  <NumRadicalElectrons>  (215) 
0

>  <MaxPartialCharge>  (215) 
0.243397

>  <MinPartialCharge>  (215) 
-0.345118

>  <MaxAbsPartialCharge>  (215) 
0.345118

>  <MinAbsPartialCharge>  (215) 
0.243397

>  <FpDensityMorgan1>  (215) 
1.15

>  <FpDensityMorgan2>  (215) 
2.05

>  <FpDensityMorgan3>  (215) 
2.95

>  <BCUT2D_MWHI>  (215) 
32.233427

>  <BCUT2D_MWLOW>  (215) 
10.168311

>  <BCUT2D_CHGHI>  (215) 
2.268872

>  <BCUT2D_CHGLO>  (215) 
-2.192579

>  <BCUT2D_LOGPHI>  (215) 
2.246607

>  <BCUT2D_LOGPLOW>  (215) 
-2.843702

>  <BCUT2D_MRHI>  (215) 
7.889641

>  <BCUT2D_MRLOW>  (215) 
-0.650697

>  <AvgIpc>  (215) 
2.759566

>  <BalabanJ>  (215) 
2.085841

>  <BertzCT>  (215) 
701.935726

>  <Chi0>  (215) 
14.001789

>  <Chi0n>  (215) 
11.196158

>  <Chi0v>  (215) 
12.012654

>  <Chi1>  (215) 
9.693507

>  <Chi1n>  (215) 
6.840082

>  <Chi1v>  (215) 
8.280145

>  <Chi2n>  (215) 
4.976624

>  <Chi2v>  (215) 
6.882981

>  <Chi3n>  (215) 
3.656948

>  <Chi3v>  (215) 
5.613741

>  <Chi4n>  (215) 
2.60061

>  <Chi4v>  (215) 
4.308342

>  <HallKierAlpha>  (215) 
-1.5

>  <Ipc>  (215) 
56228.921022

>  <Kappa1>  (215) 
13.481559

>  <Kappa2>  (215) 
5.47472

>  <Kappa3>  (215) 
2.416781

>  <LabuteASA>  (215) 
118.222067

>  <PEOE_VSA1>  (215) 
5.316789

>  <PEOE_VSA10>  (215) 
0.0

>  <PEOE_VSA11>  (215) 
0.0

>  <PEOE_VSA12>  (215) 
10.023291

>  <PEOE_VSA13>  (215) 
0.0

>  <PEOE_VSA14>  (215) 
0.0

>  <PEOE_VSA2>  (215) 
4.983979

>  <PEOE_VSA3>  (215) 
8.417797

>  <PEOE_VSA4>  (215) 
4.305216

>  <PEOE_VSA5>  (215) 
0.0

>  <PEOE_VSA6>  (215) 
12.132734

>  <PEOE_VSA7>  (215) 
12.132734

>  <PEOE_VSA8>  (215) 
36.131714

>  <PEOE_VSA9>  (215) 
24.529753

>  <SMR_VSA1>  (215) 
13.734586

>  <SMR_VSA10>  (215) 
20.79574

>  <SMR_VSA2>  (215) 
0.0

>  <SMR_VSA3>  (215) 
9.289195

>  <SMR_VSA4>  (215) 
0.0

>  <SMR_VSA5>  (215) 
11.316305

>  <SMR_VSA6>  (215) 
26.179026

>  <SMR_VSA7>  (215) 
36.659155

>  <SMR_VSA8>  (215) 
0.0

>  <SMR_VSA9>  (215) 
0.0

>  <SlogP_VSA1>  (215) 
5.316789

>  <SlogP_VSA10>  (215) 
0.0

>  <SlogP_VSA11>  (215) 
0.0

>  <SlogP_VSA12>  (215) 
0.0

>  <SlogP_VSA2>  (215) 
43.886017

>  <SlogP_VSA3>  (215) 
10.023291

>  <SlogP_VSA4>  (215) 
0.0

>  <SlogP_VSA5>  (215) 
6.420822

>  <SlogP_VSA6>  (215) 
41.554639

>  <SlogP_VSA7>  (215) 
0.0

>  <SlogP_VSA8>  (215) 
10.772448

>  <SlogP_VSA9>  (215) 
0.0

>  <EState_VSA1>  (215) 
10.023291

>  <EState_VSA10>  (215) 
8.417797

>  <EState_VSA11>  (215) 
0.0

>  <EState_VSA2>  (215) 
0.0

>  <EState_VSA3>  (215) 
17.984996

>  <EState_VSA4>  (215) 
30.282783

>  <EState_VSA5>  (215) 
0.0

>  <EState_VSA6>  (215) 
34.898004

>  <EState_VSA7>  (215) 
6.066367

>  <EState_VSA8>  (215) 
10.300767

>  <EState_VSA9>  (215) 
0.0

>  <VSA_EState1>  (215) 
27.294107

>  <VSA_EState10>  (215) 
0.0

>  <VSA_EState2>  (215) 
4.43837

>  <VSA_EState3>  (215) 
3.771674

>  <VSA_EState4>  (215) 
0.0

>  <VSA_EState5>  (215) 
0.0

>  <VSA_EState6>  (215) 
7.121861

>  <VSA_EState7>  (215) 
4.229827

>  <VSA_EState8>  (215) 
2.98724

>  <VSA_EState9>  (215) 
-3.426412

>  <FractionCSP3>  (215) 
0.357143

>  <HeavyAtomCount>  (215) 
20

>  <NHOHCount>  (215) 
2

>  <NOCount>  (215) 
5

>  <NumAliphaticCarbocycles>  (215) 
0

>  <NumAliphaticHeterocycles>  (215) 
1

>  <NumAliphaticRings>  (215) 
1

>  <NumAromaticCarbocycles>  (215) 
1

>  <NumAromaticHeterocycles>  (215) 
1

>  <NumAromaticRings>  (215) 
2

>  <NumHAcceptors>  (215) 
3

>  <NumHDonors>  (215) 
1

>  <NumHeteroatoms>  (215) 
6

>  <NumRotatableBonds>  (215) 
2

>  <NumSaturatedCarbocycles>  (215) 
0

>  <NumSaturatedHeterocycles>  (215) 
1

>  <NumSaturatedRings>  (215) 
1

>  <RingCount>  (215) 
3

>  <MolLogP>  (215) 
0.1926

>  <MolMR>  (215) 
76.7782

>  <fr_Al_COO>  (215) 
0

>  <fr_Al_OH>  (215) 
0

>  <fr_Al_OH_noTert>  (215) 
0

>  <fr_ArN>  (215) 
0

>  <fr_Ar_COO>  (215) 
0

>  <fr_Ar_N>  (215) 
1

>  <fr_Ar_NH>  (215) 
0

>  <fr_Ar_OH>  (215) 
0

>  <fr_COO>  (215) 
0

>  <fr_COO2>  (215) 
0

>  <fr_C_O>  (215) 
0

>  <fr_C_O_noCOO>  (215) 
0

>  <fr_C_S>  (215) 
0

>  <fr_HOCCN>  (215) 
0

>  <fr_Imine>  (215) 
0

>  <fr_NH0>  (215) 
2

>  <fr_NH1>  (215) 
0

>  <fr_NH2>  (215) 
1

>  <fr_N_O>  (215) 
0

>  <fr_Ndealkylation1>  (215) 
0

>  <fr_Ndealkylation2>  (215) 
0

>  <fr_Nhpyrrole>  (215) 
0

>  <fr_SH>  (215) 
0

>  <fr_aldehyde>  (215) 
0

>  <fr_alkyl_carbamate>  (215) 
0

>  <fr_alkyl_halide>  (215) 
0

>  <fr_allylic_oxid>  (215) 
0

>  <fr_amide>  (215) 
0

>  <fr_amidine>  (215) 
0

>  <fr_aniline>  (215) 
0

>  <fr_aryl_methyl>  (215) 
0

>  <fr_azide>  (215) 
0

>  <fr_azo>  (215) 
0

>  <fr_barbitur>  (215) 
0

>  <fr_benzene>  (215) 
1

>  <fr_benzodiazepine>  (215) 
0

>  <fr_bicyclic>  (215) 
1

>  <fr_diazo>  (215) 
0

>  <fr_dihydropyridine>  (215) 
0

>  <fr_epoxide>  (215) 
0

>  <fr_ester>  (215) 
0

>  <fr_ether>  (215) 
0

>  <fr_furan>  (215) 
0

>  <fr_guanido>  (215) 
0

>  <fr_halogen>  (215) 
0

>  <fr_hdrzine>  (215) 
0

>  <fr_hdrzone>  (215) 
0

>  <fr_imidazole>  (215) 
0

>  <fr_imide>  (215) 
0

>  <fr_isocyan>  (215) 
0

>  <fr_isothiocyan>  (215) 
0

>  <fr_ketone>  (215) 
0

>  <fr_ketone_Topliss>  (215) 
0

>  <fr_lactam>  (215) 
0

>  <fr_lactone>  (215) 
0

>  <fr_methoxy>  (215) 
0

>  <fr_morpholine>  (215) 
0

>  <fr_nitrile>  (215) 
0

>  <fr_nitro>  (215) 
0

>  <fr_nitro_arom>  (215) 
0

>  <fr_nitro_arom_nonortho>  (215) 
0

>  <fr_nitroso>  (215) 
0

>  <fr_oxazole>  (215) 
0

>  <fr_oxime>  (215) 
0

>  <fr_para_hydroxylation>  (215) 
0

>  <fr_phenol>  (215) 
0

>  <fr_phenol_noOrthoHbond>  (215) 
0

>  <fr_phos_acid>  (215) 
0

>  <fr_phos_ester>  (215) 
0

>  <fr_piperdine>  (215) 
0

>  <fr_piperzine>  (215) 
0

>  <fr_priamide>  (215) 
0

>  <fr_prisulfonamd>  (215) 
0

>  <fr_pyridine>  (215) 
1

>  <fr_quatN>  (215) 
1

>  <fr_sulfide>  (215) 
0

>  <fr_sulfonamd>  (215) 
1

>  <fr_sulfone>  (215) 
0

>  <fr_term_acetylene>  (215) 
0

>  <fr_tetrazole>  (215) 
0

>  <fr_thiazole>  (215) 
0

>  <fr_thiocyan>  (215) 
0

>  <fr_thiophene>  (215) 
0

>  <fr_unbrch_alkane>  (215) 
0

>  <fr_urea>  (215) 
0

>  <NP_Likeness>  (215) 
-1.563087

$$$$
M77
     RDKit          3D

  0  0  0  0  0  0  0  0  0  0999 V3000
M  V30 BEGIN CTAB
M  V30 COUNTS 38 40 0 0 0
M  V30 BEGIN ATOM
M  V30 1 S 7.787000 10.831000 7.996000 0
M  V30 2 O 7.038000 10.511000 6.824000 0
M  V30 3 O 8.140000 9.796000 8.918000 0
M  V30 4 N 4.533000 12.733000 10.447000 0 CHG=1
M  V30 5 N 12.982000 9.737000 7.037000 0
M  V30 6 N 6.913000 11.919000 8.842000 0
M  V30 7 C 4.961000 13.460000 9.241000 0
M  V30 8 C 5.483000 12.764000 11.567000 0
M  V30 9 C 11.854000 9.026000 7.194000 0
M  V30 10 C 12.875000 11.058000 6.985000 0
M  V30 11 C 5.773000 12.633000 8.231000 0
M  V30 12 C 7.506000 12.463000 10.080000 0
M  V30 13 C 6.785000 12.034000 11.338000 0
M  V30 14 C 10.351000 13.795000 7.237000 0
M  V30 15 C 10.614000 9.577000 7.312000 0
M  V30 16 C 9.200000 13.055000 7.457000 0
M  V30 17 C 11.557000 13.174000 7.064000 0
M  V30 18 C 9.253000 11.686000 7.504000 0
M  V30 19 C 11.653000 11.759000 7.090000 0
M  V30 20 C 10.477000 10.986000 7.283000 0
M  V30 21 H 4.383200 11.777000 10.194900 0
M  V30 22 H 5.523800 14.234400 9.530100 0
M  V30 23 H 4.142300 13.797900 8.776800 0
M  V30 24 H 5.035600 12.353400 12.361500 0
M  V30 25 H 5.697000 13.721000 11.762600 0
M  V30 26 H 11.928900 8.029300 7.226300 0
M  V30 27 H 13.712100 11.591400 6.863800 0
M  V30 28 H 5.165000 11.959300 7.810800 0
M  V30 29 H 6.125300 13.249200 7.526600 0
M  V30 30 H 7.484200 13.461400 10.028400 0
M  V30 31 H 8.454900 12.152900 10.138500 0
M  V30 32 H 6.591500 11.055000 11.273300 0
M  V30 33 H 7.384700 12.204300 12.119900 0
M  V30 34 H 10.299100 14.793100 7.204400 0
M  V30 35 H 9.809300 8.992900 7.417900 0
M  V30 36 H 8.325100 13.522800 7.582300 0
M  V30 37 H 12.379800 13.723100 6.917600 0
M  V30 38 H 3.672200 13.133800 10.760500 0
M  V30 END ATOM
M  V30 BEGIN BOND
M  V30 1 2 1 2
M  V30 2 2 1 3
M  V30 3 1 1 6
M  V30 4 1 1 18
M  V30 5 1 4 7
M  V30 6 1 4 8
M  V30 7 2 5 9
M  V30 8 1 5 10
M  V30 9 1 6 11
M  V30 10 1 6 12
M  V30 11 1 7 11
M  V30 12 1 8 13
M  V30 13 1 9 15
M  V30 14 2 10 19
M  V30 15 1 12 13
M  V30 16 1 14 16
M  V30 17 2 14 17
M  V30 18 2 15 20
M  V30 19 2 16 18
M  V30 20 1 17 19
M  V30 21 1 18 20
M  V30 22 1 19 20
M  V30 23 1 4 21
M  V30 24 1 7 22
M  V30 25 1 7 23
M  V30 26 1 8 24
M  V30 27 1 8 25
M  V30 28 1 9 26
M  V30 29 1 10 27
M  V30 30 1 11 28
M  V30 31 1 11 29
M  V30 32 1 12 30
M  V30 33 1 12 31
M  V30 34 1 13 32
M  V30 35 1 13 33
M  V30 36 1 14 34
M  V30 37 1 15 35
M  V30 38 1 16 36
M  V30 39 1 17 37
M  V30 40 1 4 38
M  V30 END BOND
M  V30 END CTAB
M  END
>  <Ligand_Instance>  (216) 
5NW8_M77_A_402

>  <Dataset>  (216) 
PDB

>  <PDB_ID>  (216) 
5NW8

>  <Chain>  (216) 
A

>  <Resi>  (216) 
402

>  <Num_Resolved_Atoms>  (216) 
20

>  <Num_H_Atoms_ProtBoundConf>  (216) 
18

>  <Pocket>  (216) 
A

>  <Name>  (216) 
5-(1,4-DIAZEPAN-1-SULFONYL)ISOQUINOLINE

>  <Num_Not_Resolved_Atoms>  (216) 
0

>  <ATP_Site>  (216) 
True

>  <Peripheral>  (216) 
False

>  <Standardized_SMILES>  (216) 
[H]C1=NC([H])=C2C([H])=C([H])C([H])=C(S(=O)(=O)N3C([H])([H])C([H])([H])C([H])([H])[N+]([H])([H])C([H])([H])C3([H])[H])C2=C1[H]

>  <2D_Mol_H>  (216) 
<rdkit.Chem.rdchem.Mol object at 0x77059d81dee0>

>  <MW>  (216) 
292.384

>  <HBA>  (216) 
3

>  <HBD>  (216) 
1

>  <LogP>  (216) 
0.1926

>  <NRB>  (216) 
2

>  <TPSA>  (216) 
66.88

>  <Num_Heavy_Atoms>  (216) 
20

>  <Ro5>  (216) 
[True, True, True, True, True, True]

>  <Ro5_Fulfilled>  (216) 
True

>  <Ro3>  (216) 
[True, True, True, True]

>  <Ro3_Fulfilled>  (216) 
True

>  <Fsp3>  (216) 
0.357143

>  <Fsp3_0.42>  (216) 
False

>  <Fsp3_0.45>  (216) 
False

>  <Stereogenic_Carbons>  (216) 
0

>  <C_Atoms>  (216) 
14

>  <FCStereo>  (216) 
0.0

>  <SPS>  (216) 
360

>  <nSPS>  (216) 
18.0

>  <PBF>  (216) 
0.906201

>  <PBF_0.6>  (216) 
True

>  <nPBF>  (216) 
0.04531

>  <nPBF_0.016>  (216) 
True

>  <PMI1>  (216) 
688.969104

>  <PMI2>  (216) 
2652.930169

>  <PMI3>  (216) 
2832.226005

>  <NPR1>  (216) 
0.243261

>  <NPR2>  (216) 
0.936694

>  <Sum_NPR>  (216) 
1.179955

>  <Sum_NPR_1.07>  (216) 
True

>  <Sum_NPR_1.2>  (216) 
False

>  <MaxAbsEStateIndex>  (216) 
12.845614

>  <MaxEStateIndex>  (216) 
12.845614

>  <MinAbsEStateIndex>  (216) 
0.388241

>  <MinEStateIndex>  (216) 
-3.426412

>  <qed>  (216) 
0.859215

>  <MolWt>  (216) 
292.384

>  <HeavyAtomMolWt>  (216) 
274.24

>  <ExactMolWt>  (216) 
292.111424

>  <NumValenceElectrons>  (216) 
106

>  <NumRadicalElectrons>  (216) 
0

>  <MaxPartialCharge>  (216) 
0.243397

>  <MinPartialCharge>  (216) 
-0.345118

>  <MaxAbsPartialCharge>  (216) 
0.345118

>  <MinAbsPartialCharge>  (216) 
0.243397

>  <FpDensityMorgan1>  (216) 
1.15

>  <FpDensityMorgan2>  (216) 
2.05

>  <FpDensityMorgan3>  (216) 
2.95

>  <BCUT2D_MWHI>  (216) 
32.233427

>  <BCUT2D_MWLOW>  (216) 
10.168311

>  <BCUT2D_CHGHI>  (216) 
2.268872

>  <BCUT2D_CHGLO>  (216) 
-2.192579

>  <BCUT2D_LOGPHI>  (216) 
2.246607

>  <BCUT2D_LOGPLOW>  (216) 
-2.843702

>  <BCUT2D_MRHI>  (216) 
7.889641

>  <BCUT2D_MRLOW>  (216) 
-0.650697

>  <AvgIpc>  (216) 
2.759566

>  <BalabanJ>  (216) 
2.085841

>  <BertzCT>  (216) 
701.935726

>  <Chi0>  (216) 
14.001789

>  <Chi0n>  (216) 
11.196158

>  <Chi0v>  (216) 
12.012654

>  <Chi1>  (216) 
9.693507

>  <Chi1n>  (216) 
6.840082

>  <Chi1v>  (216) 
8.280145

>  <Chi2n>  (216) 
4.976624

>  <Chi2v>  (216) 
6.882981

>  <Chi3n>  (216) 
3.656948

>  <Chi3v>  (216) 
5.613741

>  <Chi4n>  (216) 
2.60061

>  <Chi4v>  (216) 
4.308342

>  <HallKierAlpha>  (216) 
-1.5

>  <Ipc>  (216) 
56228.921022

>  <Kappa1>  (216) 
13.481559

>  <Kappa2>  (216) 
5.47472

>  <Kappa3>  (216) 
2.416781

>  <LabuteASA>  (216) 
118.222067

>  <PEOE_VSA1>  (216) 
5.316789

>  <PEOE_VSA10>  (216) 
0.0

>  <PEOE_VSA11>  (216) 
0.0

>  <PEOE_VSA12>  (216) 
10.023291

>  <PEOE_VSA13>  (216) 
0.0

>  <PEOE_VSA14>  (216) 
0.0

>  <PEOE_VSA2>  (216) 
4.983979

>  <PEOE_VSA3>  (216) 
8.417797

>  <PEOE_VSA4>  (216) 
4.305216

>  <PEOE_VSA5>  (216) 
0.0

>  <PEOE_VSA6>  (216) 
12.132734

>  <PEOE_VSA7>  (216) 
12.132734

>  <PEOE_VSA8>  (216) 
36.131714

>  <PEOE_VSA9>  (216) 
24.529753

>  <SMR_VSA1>  (216) 
13.734586

>  <SMR_VSA10>  (216) 
20.79574

>  <SMR_VSA2>  (216) 
0.0

>  <SMR_VSA3>  (216) 
9.289195

>  <SMR_VSA4>  (216) 
0.0

>  <SMR_VSA5>  (216) 
11.316305

>  <SMR_VSA6>  (216) 
26.179026

>  <SMR_VSA7>  (216) 
36.659155

>  <SMR_VSA8>  (216) 
0.0

>  <SMR_VSA9>  (216) 
0.0

>  <SlogP_VSA1>  (216) 
5.316789

>  <SlogP_VSA10>  (216) 
0.0

>  <SlogP_VSA11>  (216) 
0.0

>  <SlogP_VSA12>  (216) 
0.0

>  <SlogP_VSA2>  (216) 
43.886017

>  <SlogP_VSA3>  (216) 
10.023291

>  <SlogP_VSA4>  (216) 
0.0

>  <SlogP_VSA5>  (216) 
6.420822

>  <SlogP_VSA6>  (216) 
41.554639

>  <SlogP_VSA7>  (216) 
0.0

>  <SlogP_VSA8>  (216) 
10.772448

>  <SlogP_VSA9>  (216) 
0.0

>  <EState_VSA1>  (216) 
10.023291

>  <EState_VSA10>  (216) 
8.417797

>  <EState_VSA11>  (216) 
0.0

>  <EState_VSA2>  (216) 
0.0

>  <EState_VSA3>  (216) 
17.984996

>  <EState_VSA4>  (216) 
30.282783

>  <EState_VSA5>  (216) 
0.0

>  <EState_VSA6>  (216) 
34.898004

>  <EState_VSA7>  (216) 
6.066367

>  <EState_VSA8>  (216) 
10.300767

>  <EState_VSA9>  (216) 
0.0

>  <VSA_EState1>  (216) 
27.294107

>  <VSA_EState10>  (216) 
0.0

>  <VSA_EState2>  (216) 
4.43837

>  <VSA_EState3>  (216) 
3.771674

>  <VSA_EState4>  (216) 
0.0

>  <VSA_EState5>  (216) 
0.0

>  <VSA_EState6>  (216) 
7.121861

>  <VSA_EState7>  (216) 
4.229827

>  <VSA_EState8>  (216) 
2.98724

>  <VSA_EState9>  (216) 
-3.426412

>  <FractionCSP3>  (216) 
0.357143

>  <HeavyAtomCount>  (216) 
20

>  <NHOHCount>  (216) 
2

>  <NOCount>  (216) 
5

>  <NumAliphaticCarbocycles>  (216) 
0

>  <NumAliphaticHeterocycles>  (216) 
1

>  <NumAliphaticRings>  (216) 
1

>  <NumAromaticCarbocycles>  (216) 
1

>  <NumAromaticHeterocycles>  (216) 
1

>  <NumAromaticRings>  (216) 
2

>  <NumHAcceptors>  (216) 
3

>  <NumHDonors>  (216) 
1

>  <NumHeteroatoms>  (216) 
6

>  <NumRotatableBonds>  (216) 
2

>  <NumSaturatedCarbocycles>  (216) 
0

>  <NumSaturatedHeterocycles>  (216) 
1

>  <NumSaturatedRings>  (216) 
1

>  <RingCount>  (216) 
3

>  <MolLogP>  (216) 
0.1926

>  <MolMR>  (216) 
76.7782

>  <fr_Al_COO>  (216) 
0

>  <fr_Al_OH>  (216) 
0

>  <fr_Al_OH_noTert>  (216) 
0

>  <fr_ArN>  (216) 
0

>  <fr_Ar_COO>  (216) 
0

>  <fr_Ar_N>  (216) 
1

>  <fr_Ar_NH>  (216) 
0

>  <fr_Ar_OH>  (216) 
0

>  <fr_COO>  (216) 
0

>  <fr_COO2>  (216) 
0

>  <fr_C_O>  (216) 
0

>  <fr_C_O_noCOO>  (216) 
0

>  <fr_C_S>  (216) 
0

>  <fr_HOCCN>  (216) 
0

>  <fr_Imine>  (216) 
0

>  <fr_NH0>  (216) 
2

>  <fr_NH1>  (216) 
0

>  <fr_NH2>  (216) 
1

>  <fr_N_O>  (216) 
0

>  <fr_Ndealkylation1>  (216) 
0

>  <fr_Ndealkylation2>  (216) 
0

>  <fr_Nhpyrrole>  (216) 
0

>  <fr_SH>  (216) 
0

>  <fr_aldehyde>  (216) 
0

>  <fr_alkyl_carbamate>  (216) 
0

>  <fr_alkyl_halide>  (216) 
0

>  <fr_allylic_oxid>  (216) 
0

>  <fr_amide>  (216) 
0

>  <fr_amidine>  (216) 
0

>  <fr_aniline>  (216) 
0

>  <fr_aryl_methyl>  (216) 
0

>  <fr_azide>  (216) 
0

>  <fr_azo>  (216) 
0

>  <fr_barbitur>  (216) 
0

>  <fr_benzene>  (216) 
1

>  <fr_benzodiazepine>  (216) 
0

>  <fr_bicyclic>  (216) 
1

>  <fr_diazo>  (216) 
0

>  <fr_dihydropyridine>  (216) 
0

>  <fr_epoxide>  (216) 
0

>  <fr_ester>  (216) 
0

>  <fr_ether>  (216) 
0

>  <fr_furan>  (216) 
0

>  <fr_guanido>  (216) 
0

>  <fr_halogen>  (216) 
0

>  <fr_hdrzine>  (216) 
0

>  <fr_hdrzone>  (216) 
0

>  <fr_imidazole>  (216) 
0

>  <fr_imide>  (216) 
0

>  <fr_isocyan>  (216) 
0

>  <fr_isothiocyan>  (216) 
0

>  <fr_ketone>  (216) 
0

>  <fr_ketone_Topliss>  (216) 
0

>  <fr_lactam>  (216) 
0

>  <fr_lactone>  (216) 
0

>  <fr_methoxy>  (216) 
0

>  <fr_morpholine>  (216) 
0

>  <fr_nitrile>  (216) 
0

>  <fr_nitro>  (216) 
0

>  <fr_nitro_arom>  (216) 
0

>  <fr_nitro_arom_nonortho>  (216) 
0

>  <fr_nitroso>  (216) 
0

>  <fr_oxazole>  (216) 
0

>  <fr_oxime>  (216) 
0

>  <fr_para_hydroxylation>  (216) 
0

>  <fr_phenol>  (216) 
0

>  <fr_phenol_noOrthoHbond>  (216) 
0

>  <fr_phos_acid>  (216) 
0

>  <fr_phos_ester>  (216) 
0

>  <fr_piperdine>  (216) 
0

>  <fr_piperzine>  (216) 
0

>  <fr_priamide>  (216) 
0

>  <fr_prisulfonamd>  (216) 
0

>  <fr_pyridine>  (216) 
1

>  <fr_quatN>  (216) 
1

>  <fr_sulfide>  (216) 
0

>  <fr_sulfonamd>  (216) 
1

>  <fr_sulfone>  (216) 
0

>  <fr_term_acetylene>  (216) 
0

>  <fr_tetrazole>  (216) 
0

>  <fr_thiazole>  (216) 
0

>  <fr_thiocyan>  (216) 
0

>  <fr_thiophene>  (216) 
0

>  <fr_unbrch_alkane>  (216) 
0

>  <fr_urea>  (216) 
0

>  <NP_Likeness>  (216) 
-1.563087

$$$$
M77
     RDKit          3D

  0  0  0  0  0  0  0  0  0  0999 V3000
M  V30 BEGIN CTAB
M  V30 COUNTS 38 40 0 0 0
M  V30 BEGIN ATOM
M  V30 1 S -13.592000 -25.153000 27.179000 0
M  V30 2 O -14.106000 -25.433000 28.480000 0
M  V30 3 O -13.050000 -26.211000 26.386000 0
M  V30 4 N -9.425000 -23.263000 26.811000 0 CHG=1
M  V30 5 N -17.333000 -26.476000 23.512000 0
M  V30 6 N -12.414000 -24.049000 27.361000 0
M  V30 7 C -10.364000 -23.978000 25.958000 0
M  V30 8 C -9.723000 -23.330000 28.239000 0
M  V30 9 C -16.557000 -27.135000 24.386000 0
M  V30 10 C -17.327000 -25.152000 23.565000 0
M  V30 11 C -11.795000 -23.519000 26.131000 0
M  V30 12 C -12.249000 -23.283000 28.614000 0
M  V30 13 C -10.919000 -22.549000 28.727000 0
M  V30 14 C -15.788000 -22.311000 25.420000 0
M  V30 15 C -15.736000 -26.529000 25.289000 0
M  V30 16 C -14.908000 -22.996000 26.247000 0
M  V30 17 C -16.585000 -22.983000 24.542000 0
M  V30 18 C -14.846000 -24.364000 26.211000 0
M  V30 19 C -16.552000 -24.401000 24.472000 0
M  V30 20 C -15.696000 -25.119000 25.347000 0
M  V30 21 H -9.426300 -22.301100 26.537600 0
M  V30 22 H -10.314100 -24.952400 26.177300 0
M  V30 23 H -10.098100 -23.836900 25.004400 0
M  V30 24 H -8.920700 -22.991600 28.730800 0
M  V30 25 H -9.875200 -24.290800 28.470600 0
M  V30 26 H -16.582800 -28.134600 24.373900 0
M  V30 27 H -17.908600 -24.654500 22.921400 0
M  V30 28 H -11.808700 -22.519900 26.170000 0
M  V30 29 H -12.328600 -23.829200 25.344200 0
M  V30 30 H -12.322400 -23.918900 29.382200 0
M  V30 31 H -12.985100 -22.608300 28.668300 0
M  V30 32 H -10.981300 -21.707400 28.190400 0
M  V30 33 H -10.770200 -22.320600 29.689100 0
M  V30 34 H -15.837600 -21.313400 25.469100 0
M  V30 35 H -15.168300 -27.076700 25.903600 0
M  V30 36 H -14.316000 -22.487800 26.872500 0
M  V30 37 H -17.199500 -22.472100 23.940800 0
M  V30 38 H -8.514600 -23.649900 26.664500 0
M  V30 END ATOM
M  V30 BEGIN BOND
M  V30 1 2 1 2
M  V30 2 2 1 3
M  V30 3 1 1 6
M  V30 4 1 1 18
M  V30 5 1 4 7
M  V30 6 1 4 8
M  V30 7 2 5 9
M  V30 8 1 5 10
M  V30 9 1 6 11
M  V30 10 1 6 12
M  V30 11 1 7 11
M  V30 12 1 8 13
M  V30 13 1 9 15
M  V30 14 2 10 19
M  V30 15 1 12 13
M  V30 16 1 14 16
M  V30 17 2 14 17
M  V30 18 2 15 20
M  V30 19 2 16 18
M  V30 20 1 17 19
M  V30 21 1 18 20
M  V30 22 1 19 20
M  V30 23 1 4 21
M  V30 24 1 7 22
M  V30 25 1 7 23
M  V30 26 1 8 24
M  V30 27 1 8 25
M  V30 28 1 9 26
M  V30 29 1 10 27
M  V30 30 1 11 28
M  V30 31 1 11 29
M  V30 32 1 12 30
M  V30 33 1 12 31
M  V30 34 1 13 32
M  V30 35 1 13 33
M  V30 36 1 14 34
M  V30 37 1 15 35
M  V30 38 1 16 36
M  V30 39 1 17 37
M  V30 40 1 4 38
M  V30 END BOND
M  V30 END CTAB
M  END
>  <Ligand_Instance>  (217) 
5O0E_M77_A_401

>  <Dataset>  (217) 
PDB

>  <PDB_ID>  (217) 
5O0E

>  <Chain>  (217) 
A

>  <Resi>  (217) 
401

>  <Num_Resolved_Atoms>  (217) 
20

>  <Num_H_Atoms_ProtBoundConf>  (217) 
18

>  <Pocket>  (217) 
A

>  <Name>  (217) 
5-(1,4-DIAZEPAN-1-SULFONYL)ISOQUINOLINE

>  <Num_Not_Resolved_Atoms>  (217) 
0

>  <ATP_Site>  (217) 
True

>  <Peripheral>  (217) 
False

>  <Standardized_SMILES>  (217) 
[H]C1=NC([H])=C2C([H])=C([H])C([H])=C(S(=O)(=O)N3C([H])([H])C([H])([H])C([H])([H])[N+]([H])([H])C([H])([H])C3([H])[H])C2=C1[H]

>  <2D_Mol_H>  (217) 
<rdkit.Chem.rdchem.Mol object at 0x77059d81dfc0>

>  <MW>  (217) 
292.384

>  <HBA>  (217) 
3

>  <HBD>  (217) 
1

>  <LogP>  (217) 
0.1926

>  <NRB>  (217) 
2

>  <TPSA>  (217) 
66.88

>  <Num_Heavy_Atoms>  (217) 
20

>  <Ro5>  (217) 
[True, True, True, True, True, True]

>  <Ro5_Fulfilled>  (217) 
True

>  <Ro3>  (217) 
[True, True, True, True]

>  <Ro3_Fulfilled>  (217) 
True

>  <Fsp3>  (217) 
0.357143

>  <Fsp3_0.42>  (217) 
False

>  <Fsp3_0.45>  (217) 
False

>  <Stereogenic_Carbons>  (217) 
0

>  <C_Atoms>  (217) 
14

>  <FCStereo>  (217) 
0.0

>  <SPS>  (217) 
360

>  <nSPS>  (217) 
18.0

>  <PBF>  (217) 
0.917129

>  <PBF_0.6>  (217) 
True

>  <nPBF>  (217) 
0.045856

>  <nPBF_0.016>  (217) 
True

>  <PMI1>  (217) 
696.762787

>  <PMI2>  (217) 
2632.786227

>  <PMI3>  (217) 
2794.869151

>  <NPR1>  (217) 
0.249301

>  <NPR2>  (217) 
0.942007

>  <Sum_NPR>  (217) 
1.191308

>  <Sum_NPR_1.07>  (217) 
True

>  <Sum_NPR_1.2>  (217) 
False

>  <MaxAbsEStateIndex>  (217) 
12.845614

>  <MaxEStateIndex>  (217) 
12.845614

>  <MinAbsEStateIndex>  (217) 
0.388241

>  <MinEStateIndex>  (217) 
-3.426412

>  <qed>  (217) 
0.859215

>  <MolWt>  (217) 
292.384

>  <HeavyAtomMolWt>  (217) 
274.24

>  <ExactMolWt>  (217) 
292.111424

>  <NumValenceElectrons>  (217) 
106

>  <NumRadicalElectrons>  (217) 
0

>  <MaxPartialCharge>  (217) 
0.243397

>  <MinPartialCharge>  (217) 
-0.345118

>  <MaxAbsPartialCharge>  (217) 
0.345118

>  <MinAbsPartialCharge>  (217) 
0.243397

>  <FpDensityMorgan1>  (217) 
1.15

>  <FpDensityMorgan2>  (217) 
2.05

>  <FpDensityMorgan3>  (217) 
2.95

>  <BCUT2D_MWHI>  (217) 
32.233427

>  <BCUT2D_MWLOW>  (217) 
10.168311

>  <BCUT2D_CHGHI>  (217) 
2.268872

>  <BCUT2D_CHGLO>  (217) 
-2.192579

>  <BCUT2D_LOGPHI>  (217) 
2.246607

>  <BCUT2D_LOGPLOW>  (217) 
-2.843702

>  <BCUT2D_MRHI>  (217) 
7.889641

>  <BCUT2D_MRLOW>  (217) 
-0.650697

>  <AvgIpc>  (217) 
2.759566

>  <BalabanJ>  (217) 
2.085841

>  <BertzCT>  (217) 
701.935726

>  <Chi0>  (217) 
14.001789

>  <Chi0n>  (217) 
11.196158

>  <Chi0v>  (217) 
12.012654

>  <Chi1>  (217) 
9.693507

>  <Chi1n>  (217) 
6.840082

>  <Chi1v>  (217) 
8.280145

>  <Chi2n>  (217) 
4.976624

>  <Chi2v>  (217) 
6.882981

>  <Chi3n>  (217) 
3.656948

>  <Chi3v>  (217) 
5.613741

>  <Chi4n>  (217) 
2.60061

>  <Chi4v>  (217) 
4.308342

>  <HallKierAlpha>  (217) 
-1.5

>  <Ipc>  (217) 
56228.921022

>  <Kappa1>  (217) 
13.481559

>  <Kappa2>  (217) 
5.47472

>  <Kappa3>  (217) 
2.416781

>  <LabuteASA>  (217) 
118.222067

>  <PEOE_VSA1>  (217) 
5.316789

>  <PEOE_VSA10>  (217) 
0.0

>  <PEOE_VSA11>  (217) 
0.0

>  <PEOE_VSA12>  (217) 
10.023291

>  <PEOE_VSA13>  (217) 
0.0

>  <PEOE_VSA14>  (217) 
0.0

>  <PEOE_VSA2>  (217) 
4.983979

>  <PEOE_VSA3>  (217) 
8.417797

>  <PEOE_VSA4>  (217) 
4.305216

>  <PEOE_VSA5>  (217) 
0.0

>  <PEOE_VSA6>  (217) 
12.132734

>  <PEOE_VSA7>  (217) 
12.132734

>  <PEOE_VSA8>  (217) 
36.131714

>  <PEOE_VSA9>  (217) 
24.529753

>  <SMR_VSA1>  (217) 
13.734586

>  <SMR_VSA10>  (217) 
20.79574

>  <SMR_VSA2>  (217) 
0.0

>  <SMR_VSA3>  (217) 
9.289195

>  <SMR_VSA4>  (217) 
0.0

>  <SMR_VSA5>  (217) 
11.316305

>  <SMR_VSA6>  (217) 
26.179026

>  <SMR_VSA7>  (217) 
36.659155

>  <SMR_VSA8>  (217) 
0.0

>  <SMR_VSA9>  (217) 
0.0

>  <SlogP_VSA1>  (217) 
5.316789

>  <SlogP_VSA10>  (217) 
0.0

>  <SlogP_VSA11>  (217) 
0.0

>  <SlogP_VSA12>  (217) 
0.0

>  <SlogP_VSA2>  (217) 
43.886017

>  <SlogP_VSA3>  (217) 
10.023291

>  <SlogP_VSA4>  (217) 
0.0

>  <SlogP_VSA5>  (217) 
6.420822

>  <SlogP_VSA6>  (217) 
41.554639

>  <SlogP_VSA7>  (217) 
0.0

>  <SlogP_VSA8>  (217) 
10.772448

>  <SlogP_VSA9>  (217) 
0.0

>  <EState_VSA1>  (217) 
10.023291

>  <EState_VSA10>  (217) 
8.417797

>  <EState_VSA11>  (217) 
0.0

>  <EState_VSA2>  (217) 
0.0

>  <EState_VSA3>  (217) 
17.984996

>  <EState_VSA4>  (217) 
30.282783

>  <EState_VSA5>  (217) 
0.0

>  <EState_VSA6>  (217) 
34.898004

>  <EState_VSA7>  (217) 
6.066367

>  <EState_VSA8>  (217) 
10.300767

>  <EState_VSA9>  (217) 
0.0

>  <VSA_EState1>  (217) 
27.294107

>  <VSA_EState10>  (217) 
0.0

>  <VSA_EState2>  (217) 
4.43837

>  <VSA_EState3>  (217) 
3.771674

>  <VSA_EState4>  (217) 
0.0

>  <VSA_EState5>  (217) 
0.0

>  <VSA_EState6>  (217) 
7.121861

>  <VSA_EState7>  (217) 
4.229827

>  <VSA_EState8>  (217) 
2.98724

>  <VSA_EState9>  (217) 
-3.426412

>  <FractionCSP3>  (217) 
0.357143

>  <HeavyAtomCount>  (217) 
20

>  <NHOHCount>  (217) 
2

>  <NOCount>  (217) 
5

>  <NumAliphaticCarbocycles>  (217) 
0

>  <NumAliphaticHeterocycles>  (217) 
1

>  <NumAliphaticRings>  (217) 
1

>  <NumAromaticCarbocycles>  (217) 
1

>  <NumAromaticHeterocycles>  (217) 
1

>  <NumAromaticRings>  (217) 
2

>  <NumHAcceptors>  (217) 
3

>  <NumHDonors>  (217) 
1

>  <NumHeteroatoms>  (217) 
6

>  <NumRotatableBonds>  (217) 
2

>  <NumSaturatedCarbocycles>  (217) 
0

>  <NumSaturatedHeterocycles>  (217) 
1

>  <NumSaturatedRings>  (217) 
1

>  <RingCount>  (217) 
3

>  <MolLogP>  (217) 
0.1926

>  <MolMR>  (217) 
76.7782

>  <fr_Al_COO>  (217) 
0

>  <fr_Al_OH>  (217) 
0

>  <fr_Al_OH_noTert>  (217) 
0

>  <fr_ArN>  (217) 
0

>  <fr_Ar_COO>  (217) 
0

>  <fr_Ar_N>  (217) 
1

>  <fr_Ar_NH>  (217) 
0

>  <fr_Ar_OH>  (217) 
0

>  <fr_COO>  (217) 
0

>  <fr_COO2>  (217) 
0

>  <fr_C_O>  (217) 
0

>  <fr_C_O_noCOO>  (217) 
0

>  <fr_C_S>  (217) 
0

>  <fr_HOCCN>  (217) 
0

>  <fr_Imine>  (217) 
0

>  <fr_NH0>  (217) 
2

>  <fr_NH1>  (217) 
0

>  <fr_NH2>  (217) 
1

>  <fr_N_O>  (217) 
0

>  <fr_Ndealkylation1>  (217) 
0

>  <fr_Ndealkylation2>  (217) 
0

>  <fr_Nhpyrrole>  (217) 
0

>  <fr_SH>  (217) 
0

>  <fr_aldehyde>  (217) 
0

>  <fr_alkyl_carbamate>  (217) 
0

>  <fr_alkyl_halide>  (217) 
0

>  <fr_allylic_oxid>  (217) 
0

>  <fr_amide>  (217) 
0

>  <fr_amidine>  (217) 
0

>  <fr_aniline>  (217) 
0

>  <fr_aryl_methyl>  (217) 
0

>  <fr_azide>  (217) 
0

>  <fr_azo>  (217) 
0

>  <fr_barbitur>  (217) 
0

>  <fr_benzene>  (217) 
1

>  <fr_benzodiazepine>  (217) 
0

>  <fr_bicyclic>  (217) 
1

>  <fr_diazo>  (217) 
0

>  <fr_dihydropyridine>  (217) 
0

>  <fr_epoxide>  (217) 
0

>  <fr_ester>  (217) 
0

>  <fr_ether>  (217) 
0

>  <fr_furan>  (217) 
0

>  <fr_guanido>  (217) 
0

>  <fr_halogen>  (217) 
0

>  <fr_hdrzine>  (217) 
0

>  <fr_hdrzone>  (217) 
0

>  <fr_imidazole>  (217) 
0

>  <fr_imide>  (217) 
0

>  <fr_isocyan>  (217) 
0

>  <fr_isothiocyan>  (217) 
0

>  <fr_ketone>  (217) 
0

>  <fr_ketone_Topliss>  (217) 
0

>  <fr_lactam>  (217) 
0

>  <fr_lactone>  (217) 
0

>  <fr_methoxy>  (217) 
0

>  <fr_morpholine>  (217) 
0

>  <fr_nitrile>  (217) 
0

>  <fr_nitro>  (217) 
0

>  <fr_nitro_arom>  (217) 
0

>  <fr_nitro_arom_nonortho>  (217) 
0

>  <fr_nitroso>  (217) 
0

>  <fr_oxazole>  (217) 
0

>  <fr_oxime>  (217) 
0

>  <fr_para_hydroxylation>  (217) 
0

>  <fr_phenol>  (217) 
0

>  <fr_phenol_noOrthoHbond>  (217) 
0

>  <fr_phos_acid>  (217) 
0

>  <fr_phos_ester>  (217) 
0

>  <fr_piperdine>  (217) 
0

>  <fr_piperzine>  (217) 
0

>  <fr_priamide>  (217) 
0

>  <fr_prisulfonamd>  (217) 
0

>  <fr_pyridine>  (217) 
1

>  <fr_quatN>  (217) 
1

>  <fr_sulfide>  (217) 
0

>  <fr_sulfonamd>  (217) 
1

>  <fr_sulfone>  (217) 
0

>  <fr_term_acetylene>  (217) 
0

>  <fr_tetrazole>  (217) 
0

>  <fr_thiazole>  (217) 
0

>  <fr_thiocyan>  (217) 
0

>  <fr_thiophene>  (217) 
0

>  <fr_unbrch_alkane>  (217) 
0

>  <fr_urea>  (217) 
0

>  <NP_Likeness>  (217) 
-1.563087

$$$$
M77
     RDKit          3D

  0  0  0  0  0  0  0  0  0  0999 V3000
M  V30 BEGIN CTAB
M  V30 COUNTS 38 40 0 0 0
M  V30 BEGIN ATOM
M  V30 1 S -13.615000 -25.408000 27.138000 0
M  V30 2 O -14.134000 -25.676000 28.441000 0
M  V30 3 O -13.060000 -26.471000 26.366000 0
M  V30 4 N -9.408000 -23.506000 26.861000 0 CHG=1
M  V30 5 N -17.347000 -26.649000 23.384000 0
M  V30 6 N -12.431000 -24.307000 27.329000 0
M  V30 7 C -10.392000 -24.155000 25.943000 0
M  V30 8 C -9.741000 -23.548000 28.281000 0
M  V30 9 C -16.576000 -27.337000 24.242000 0
M  V30 10 C -17.340000 -25.330000 23.477000 0
M  V30 11 C -11.817000 -23.741000 26.111000 0
M  V30 12 C -12.279000 -23.580000 28.605000 0
M  V30 13 C -10.984000 -22.791000 28.711000 0
M  V30 14 C -15.769000 -22.545000 25.384000 0
M  V30 15 C -15.771000 -26.761000 25.180000 0
M  V30 16 C -14.915000 -23.252000 26.220000 0
M  V30 17 C -16.571000 -23.191000 24.495000 0
M  V30 18 C -14.873000 -24.618000 26.165000 0
M  V30 19 C -16.564000 -24.604000 24.410000 0
M  V30 20 C -15.724000 -25.354000 25.280000 0
M  V30 21 H -9.325700 -22.546000 26.593400 0
M  V30 22 H -10.341300 -25.142900 26.089400 0
M  V30 23 H -10.120500 -23.942700 25.004300 0
M  V30 24 H -8.965400 -23.169000 28.785700 0
M  V30 25 H -9.867100 -24.507000 28.534600 0
M  V30 26 H -16.593400 -28.335500 24.189600 0
M  V30 27 H -17.920300 -24.813100 22.847600 0
M  V30 28 H -11.856700 -22.743300 26.165900 0
M  V30 29 H -12.337100 -24.052000 25.315600 0
M  V30 30 H -12.305200 -24.244700 29.351700 0
M  V30 31 H -13.044600 -22.943500 28.698300 0
M  V30 32 H -11.067400 -21.977300 28.135700 0
M  V30 33 H -10.865400 -22.514200 29.664600 0
M  V30 34 H -15.794900 -21.546700 25.436100 0
M  V30 35 H -15.219800 -27.329600 25.790600 0
M  V30 36 H -14.328800 -22.760900 26.864300 0
M  V30 37 H -17.171700 -22.662200 23.895400 0
M  V30 38 H -8.526900 -23.962800 26.738800 0
M  V30 END ATOM
M  V30 BEGIN BOND
M  V30 1 2 1 2
M  V30 2 2 1 3
M  V30 3 1 1 6
M  V30 4 1 1 18
M  V30 5 1 4 7
M  V30 6 1 4 8
M  V30 7 2 5 9
M  V30 8 1 5 10
M  V30 9 1 6 11
M  V30 10 1 6 12
M  V30 11 1 7 11
M  V30 12 1 8 13
M  V30 13 1 9 15
M  V30 14 2 10 19
M  V30 15 1 12 13
M  V30 16 1 14 16
M  V30 17 2 14 17
M  V30 18 2 15 20
M  V30 19 2 16 18
M  V30 20 1 17 19
M  V30 21 1 18 20
M  V30 22 1 19 20
M  V30 23 1 4 21
M  V30 24 1 7 22
M  V30 25 1 7 23
M  V30 26 1 8 24
M  V30 27 1 8 25
M  V30 28 1 9 26
M  V30 29 1 10 27
M  V30 30 1 11 28
M  V30 31 1 11 29
M  V30 32 1 12 30
M  V30 33 1 12 31
M  V30 34 1 13 32
M  V30 35 1 13 33
M  V30 36 1 14 34
M  V30 37 1 15 35
M  V30 38 1 16 36
M  V30 39 1 17 37
M  V30 40 1 4 38
M  V30 END BOND
M  V30 END CTAB
M  END
>  <Ligand_Instance>  (218) 
5OK3_M77_A_401

>  <Dataset>  (218) 
PDB

>  <PDB_ID>  (218) 
5OK3

>  <Chain>  (218) 
A

>  <Resi>  (218) 
401

>  <Num_Resolved_Atoms>  (218) 
20

>  <Num_H_Atoms_ProtBoundConf>  (218) 
18

>  <Pocket>  (218) 
A

>  <Name>  (218) 
5-(1,4-DIAZEPAN-1-SULFONYL)ISOQUINOLINE

>  <Num_Not_Resolved_Atoms>  (218) 
0

>  <ATP_Site>  (218) 
True

>  <Peripheral>  (218) 
False

>  <Standardized_SMILES>  (218) 
[H]C1=NC([H])=C2C([H])=C([H])C([H])=C(S(=O)(=O)N3C([H])([H])C([H])([H])C([H])([H])[N+]([H])([H])C([H])([H])C3([H])[H])C2=C1[H]

>  <2D_Mol_H>  (218) 
<rdkit.Chem.rdchem.Mol object at 0x77059d81e0a0>

>  <MW>  (218) 
292.384

>  <HBA>  (218) 
3

>  <HBD>  (218) 
1

>  <LogP>  (218) 
0.1926

>  <NRB>  (218) 
2

>  <TPSA>  (218) 
66.88

>  <Num_Heavy_Atoms>  (218) 
20

>  <Ro5>  (218) 
[True, True, True, True, True, True]

>  <Ro5_Fulfilled>  (218) 
True

>  <Ro3>  (218) 
[True, True, True, True]

>  <Ro3_Fulfilled>  (218) 
True

>  <Fsp3>  (218) 
0.357143

>  <Fsp3_0.42>  (218) 
False

>  <Fsp3_0.45>  (218) 
False

>  <Stereogenic_Carbons>  (218) 
0

>  <C_Atoms>  (218) 
14

>  <FCStereo>  (218) 
0.0

>  <SPS>  (218) 
360

>  <nSPS>  (218) 
18.0

>  <PBF>  (218) 
0.915364

>  <PBF_0.6>  (218) 
True

>  <nPBF>  (218) 
0.045768

>  <nPBF_0.016>  (218) 
True

>  <PMI1>  (218) 
696.001817

>  <PMI2>  (218) 
2653.343385

>  <PMI3>  (218) 
2814.589004

>  <NPR1>  (218) 
0.247284

>  <NPR2>  (218) 
0.942711

>  <Sum_NPR>  (218) 
1.189994

>  <Sum_NPR_1.07>  (218) 
True

>  <Sum_NPR_1.2>  (218) 
False

>  <MaxAbsEStateIndex>  (218) 
12.845614

>  <MaxEStateIndex>  (218) 
12.845614

>  <MinAbsEStateIndex>  (218) 
0.388241

>  <MinEStateIndex>  (218) 
-3.426412

>  <qed>  (218) 
0.859215

>  <MolWt>  (218) 
292.384

>  <HeavyAtomMolWt>  (218) 
274.24

>  <ExactMolWt>  (218) 
292.111424

>  <NumValenceElectrons>  (218) 
106

>  <NumRadicalElectrons>  (218) 
0

>  <MaxPartialCharge>  (218) 
0.243397

>  <MinPartialCharge>  (218) 
-0.345118

>  <MaxAbsPartialCharge>  (218) 
0.345118

>  <MinAbsPartialCharge>  (218) 
0.243397

>  <FpDensityMorgan1>  (218) 
1.15

>  <FpDensityMorgan2>  (218) 
2.05

>  <FpDensityMorgan3>  (218) 
2.95

>  <BCUT2D_MWHI>  (218) 
32.233427

>  <BCUT2D_MWLOW>  (218) 
10.168311

>  <BCUT2D_CHGHI>  (218) 
2.268872

>  <BCUT2D_CHGLO>  (218) 
-2.192579

>  <BCUT2D_LOGPHI>  (218) 
2.246607

>  <BCUT2D_LOGPLOW>  (218) 
-2.843702

>  <BCUT2D_MRHI>  (218) 
7.889641

>  <BCUT2D_MRLOW>  (218) 
-0.650697

>  <AvgIpc>  (218) 
2.759566

>  <BalabanJ>  (218) 
2.085841

>  <BertzCT>  (218) 
701.935726

>  <Chi0>  (218) 
14.001789

>  <Chi0n>  (218) 
11.196158

>  <Chi0v>  (218) 
12.012654

>  <Chi1>  (218) 
9.693507

>  <Chi1n>  (218) 
6.840082

>  <Chi1v>  (218) 
8.280145

>  <Chi2n>  (218) 
4.976624

>  <Chi2v>  (218) 
6.882981

>  <Chi3n>  (218) 
3.656948

>  <Chi3v>  (218) 
5.613741

>  <Chi4n>  (218) 
2.60061

>  <Chi4v>  (218) 
4.308342

>  <HallKierAlpha>  (218) 
-1.5

>  <Ipc>  (218) 
56228.921022

>  <Kappa1>  (218) 
13.481559

>  <Kappa2>  (218) 
5.47472

>  <Kappa3>  (218) 
2.416781

>  <LabuteASA>  (218) 
118.222067

>  <PEOE_VSA1>  (218) 
5.316789

>  <PEOE_VSA10>  (218) 
0.0

>  <PEOE_VSA11>  (218) 
0.0

>  <PEOE_VSA12>  (218) 
10.023291

>  <PEOE_VSA13>  (218) 
0.0

>  <PEOE_VSA14>  (218) 
0.0

>  <PEOE_VSA2>  (218) 
4.983979

>  <PEOE_VSA3>  (218) 
8.417797

>  <PEOE_VSA4>  (218) 
4.305216

>  <PEOE_VSA5>  (218) 
0.0

>  <PEOE_VSA6>  (218) 
12.132734

>  <PEOE_VSA7>  (218) 
12.132734

>  <PEOE_VSA8>  (218) 
36.131714

>  <PEOE_VSA9>  (218) 
24.529753

>  <SMR_VSA1>  (218) 
13.734586

>  <SMR_VSA10>  (218) 
20.79574

>  <SMR_VSA2>  (218) 
0.0

>  <SMR_VSA3>  (218) 
9.289195

>  <SMR_VSA4>  (218) 
0.0

>  <SMR_VSA5>  (218) 
11.316305

>  <SMR_VSA6>  (218) 
26.179026

>  <SMR_VSA7>  (218) 
36.659155

>  <SMR_VSA8>  (218) 
0.0

>  <SMR_VSA9>  (218) 
0.0

>  <SlogP_VSA1>  (218) 
5.316789

>  <SlogP_VSA10>  (218) 
0.0

>  <SlogP_VSA11>  (218) 
0.0

>  <SlogP_VSA12>  (218) 
0.0

>  <SlogP_VSA2>  (218) 
43.886017

>  <SlogP_VSA3>  (218) 
10.023291

>  <SlogP_VSA4>  (218) 
0.0

>  <SlogP_VSA5>  (218) 
6.420822

>  <SlogP_VSA6>  (218) 
41.554639

>  <SlogP_VSA7>  (218) 
0.0

>  <SlogP_VSA8>  (218) 
10.772448

>  <SlogP_VSA9>  (218) 
0.0

>  <EState_VSA1>  (218) 
10.023291

>  <EState_VSA10>  (218) 
8.417797

>  <EState_VSA11>  (218) 
0.0

>  <EState_VSA2>  (218) 
0.0

>  <EState_VSA3>  (218) 
17.984996

>  <EState_VSA4>  (218) 
30.282783

>  <EState_VSA5>  (218) 
0.0

>  <EState_VSA6>  (218) 
34.898004

>  <EState_VSA7>  (218) 
6.066367

>  <EState_VSA8>  (218) 
10.300767

>  <EState_VSA9>  (218) 
0.0

>  <VSA_EState1>  (218) 
27.294107

>  <VSA_EState10>  (218) 
0.0

>  <VSA_EState2>  (218) 
4.43837

>  <VSA_EState3>  (218) 
3.771674

>  <VSA_EState4>  (218) 
0.0

>  <VSA_EState5>  (218) 
0.0

>  <VSA_EState6>  (218) 
7.121861

>  <VSA_EState7>  (218) 
4.229827

>  <VSA_EState8>  (218) 
2.98724

>  <VSA_EState9>  (218) 
-3.426412

>  <FractionCSP3>  (218) 
0.357143

>  <HeavyAtomCount>  (218) 
20

>  <NHOHCount>  (218) 
2

>  <NOCount>  (218) 
5

>  <NumAliphaticCarbocycles>  (218) 
0

>  <NumAliphaticHeterocycles>  (218) 
1

>  <NumAliphaticRings>  (218) 
1

>  <NumAromaticCarbocycles>  (218) 
1

>  <NumAromaticHeterocycles>  (218) 
1

>  <NumAromaticRings>  (218) 
2

>  <NumHAcceptors>  (218) 
3

>  <NumHDonors>  (218) 
1

>  <NumHeteroatoms>  (218) 
6

>  <NumRotatableBonds>  (218) 
2

>  <NumSaturatedCarbocycles>  (218) 
0

>  <NumSaturatedHeterocycles>  (218) 
1

>  <NumSaturatedRings>  (218) 
1

>  <RingCount>  (218) 
3

>  <MolLogP>  (218) 
0.1926

>  <MolMR>  (218) 
76.7782

>  <fr_Al_COO>  (218) 
0

>  <fr_Al_OH>  (218) 
0

>  <fr_Al_OH_noTert>  (218) 
0

>  <fr_ArN>  (218) 
0

>  <fr_Ar_COO>  (218) 
0

>  <fr_Ar_N>  (218) 
1

>  <fr_Ar_NH>  (218) 
0

>  <fr_Ar_OH>  (218) 
0

>  <fr_COO>  (218) 
0

>  <fr_COO2>  (218) 
0

>  <fr_C_O>  (218) 
0

>  <fr_C_O_noCOO>  (218) 
0

>  <fr_C_S>  (218) 
0

>  <fr_HOCCN>  (218) 
0

>  <fr_Imine>  (218) 
0

>  <fr_NH0>  (218) 
2

>  <fr_NH1>  (218) 
0

>  <fr_NH2>  (218) 
1

>  <fr_N_O>  (218) 
0

>  <fr_Ndealkylation1>  (218) 
0

>  <fr_Ndealkylation2>  (218) 
0

>  <fr_Nhpyrrole>  (218) 
0

>  <fr_SH>  (218) 
0

>  <fr_aldehyde>  (218) 
0

>  <fr_alkyl_carbamate>  (218) 
0

>  <fr_alkyl_halide>  (218) 
0

>  <fr_allylic_oxid>  (218) 
0

>  <fr_amide>  (218) 
0

>  <fr_amidine>  (218) 
0

>  <fr_aniline>  (218) 
0

>  <fr_aryl_methyl>  (218) 
0

>  <fr_azide>  (218) 
0

>  <fr_azo>  (218) 
0

>  <fr_barbitur>  (218) 
0

>  <fr_benzene>  (218) 
1

>  <fr_benzodiazepine>  (218) 
0

>  <fr_bicyclic>  (218) 
1

>  <fr_diazo>  (218) 
0

>  <fr_dihydropyridine>  (218) 
0

>  <fr_epoxide>  (218) 
0

>  <fr_ester>  (218) 
0

>  <fr_ether>  (218) 
0

>  <fr_furan>  (218) 
0

>  <fr_guanido>  (218) 
0

>  <fr_halogen>  (218) 
0

>  <fr_hdrzine>  (218) 
0

>  <fr_hdrzone>  (218) 
0

>  <fr_imidazole>  (218) 
0

>  <fr_imide>  (218) 
0

>  <fr_isocyan>  (218) 
0

>  <fr_isothiocyan>  (218) 
0

>  <fr_ketone>  (218) 
0

>  <fr_ketone_Topliss>  (218) 
0

>  <fr_lactam>  (218) 
0

>  <fr_lactone>  (218) 
0

>  <fr_methoxy>  (218) 
0

>  <fr_morpholine>  (218) 
0

>  <fr_nitrile>  (218) 
0

>  <fr_nitro>  (218) 
0

>  <fr_nitro_arom>  (218) 
0

>  <fr_nitro_arom_nonortho>  (218) 
0

>  <fr_nitroso>  (218) 
0

>  <fr_oxazole>  (218) 
0

>  <fr_oxime>  (218) 
0

>  <fr_para_hydroxylation>  (218) 
0

>  <fr_phenol>  (218) 
0

>  <fr_phenol_noOrthoHbond>  (218) 
0

>  <fr_phos_acid>  (218) 
0

>  <fr_phos_ester>  (218) 
0

>  <fr_piperdine>  (218) 
0

>  <fr_piperzine>  (218) 
0

>  <fr_priamide>  (218) 
0

>  <fr_prisulfonamd>  (218) 
0

>  <fr_pyridine>  (218) 
1

>  <fr_quatN>  (218) 
1

>  <fr_sulfide>  (218) 
0

>  <fr_sulfonamd>  (218) 
1

>  <fr_sulfone>  (218) 
0

>  <fr_term_acetylene>  (218) 
0

>  <fr_tetrazole>  (218) 
0

>  <fr_thiazole>  (218) 
0

>  <fr_thiocyan>  (218) 
0

>  <fr_thiophene>  (218) 
0

>  <fr_unbrch_alkane>  (218) 
0

>  <fr_urea>  (218) 
0

>  <NP_Likeness>  (218) 
-1.563087

$$$$
M77
     RDKit          3D

  0  0  0  0  0  0  0  0  0  0999 V3000
M  V30 BEGIN CTAB
M  V30 COUNTS 38 40 0 0 0
M  V30 BEGIN ATOM
M  V30 1 S -14.766000 2.319000 -30.441000 0
M  V30 2 O -15.798000 3.144000 -31.007000 0
M  V30 3 O -14.239000 1.257000 -31.225000 0
M  V30 4 N -18.372000 1.632000 -28.575000 0 CHG=1
M  V30 5 N -9.634000 2.214000 -28.467000 0
M  V30 6 N -15.386000 1.636000 -29.092000 0
M  V30 7 C -17.515000 2.821000 -28.325000 0
M  V30 8 C -18.141000 1.010000 -29.897000 0
M  V30 9 C -10.581000 1.300000 -28.737000 0
M  V30 10 C -9.932000 3.483000 -28.693000 0
M  V30 11 C -16.019000 2.488000 -28.062000 0
M  V30 12 C -15.828000 0.225000 -29.102000 0
M  V30 13 C -17.056000 -0.048000 -29.973000 0
M  V30 14 C -12.708000 5.685000 -29.840000 0
M  V30 15 C -11.824000 1.598000 -29.221000 0
M  V30 16 C -13.698000 4.748000 -30.092000 0
M  V30 17 C -11.480000 5.302000 -29.406000 0
M  V30 18 C -13.448000 3.413000 -29.933000 0
M  V30 19 C -11.184000 3.936000 -29.192000 0
M  V30 20 C -12.172000 2.951000 -29.462000 0
M  V30 21 H -19.329800 1.914300 -28.520300 0
M  V30 22 H -17.873700 3.303000 -27.525600 0
M  V30 23 H -17.566800 3.418200 -29.125400 0
M  V30 24 H -17.898200 1.739300 -30.536600 0
M  V30 25 H -18.999000 0.585300 -30.185900 0
M  V30 26 H -10.362000 0.338200 -28.573000 0
M  V30 27 H -9.230400 4.168900 -28.500100 0
M  V30 28 H -15.511800 3.348600 -28.014700 0
M  V30 29 H -15.954900 2.014600 -27.183500 0
M  V30 30 H -16.045600 -0.041000 -28.162900 0
M  V30 31 H -15.073200 -0.336500 -29.441100 0
M  V30 32 H -16.753700 -0.115200 -30.923800 0
M  V30 33 H -17.452200 -0.920400 -29.686700 0
M  V30 34 H -12.901000 6.656200 -29.979800 0
M  V30 35 H -12.482400 0.867800 -29.403600 0
M  V30 36 H -14.602400 5.050800 -30.392500 0
M  V30 37 H -10.777500 5.993100 -29.235900 0
M  V30 38 H -18.184200 0.951200 -27.867000 0
M  V30 END ATOM
M  V30 BEGIN BOND
M  V30 1 2 1 2
M  V30 2 2 1 3
M  V30 3 1 1 6
M  V30 4 1 1 18
M  V30 5 1 4 7
M  V30 6 1 4 8
M  V30 7 2 5 9
M  V30 8 1 5 10
M  V30 9 1 6 11
M  V30 10 1 6 12
M  V30 11 1 7 11
M  V30 12 1 8 13
M  V30 13 1 9 15
M  V30 14 2 10 19
M  V30 15 1 12 13
M  V30 16 1 14 16
M  V30 17 2 14 17
M  V30 18 2 15 20
M  V30 19 2 16 18
M  V30 20 1 17 19
M  V30 21 1 18 20
M  V30 22 1 19 20
M  V30 23 1 4 21
M  V30 24 1 7 22
M  V30 25 1 7 23
M  V30 26 1 8 24
M  V30 27 1 8 25
M  V30 28 1 9 26
M  V30 29 1 10 27
M  V30 30 1 11 28
M  V30 31 1 11 29
M  V30 32 1 12 30
M  V30 33 1 12 31
M  V30 34 1 13 32
M  V30 35 1 13 33
M  V30 36 1 14 34
M  V30 37 1 15 35
M  V30 38 1 16 36
M  V30 39 1 17 37
M  V30 40 1 4 38
M  V30 END BOND
M  V30 END CTAB
M  END
>  <Ligand_Instance>  (219) 
6EM2_M77_A_401

>  <Dataset>  (219) 
PDB

>  <PDB_ID>  (219) 
6EM2

>  <Chain>  (219) 
A

>  <Resi>  (219) 
401

>  <Num_Resolved_Atoms>  (219) 
20

>  <Num_H_Atoms_ProtBoundConf>  (219) 
18

>  <Pocket>  (219) 
A

>  <Name>  (219) 
5-(1,4-DIAZEPAN-1-SULFONYL)ISOQUINOLINE

>  <Num_Not_Resolved_Atoms>  (219) 
0

>  <ATP_Site>  (219) 
True

>  <Peripheral>  (219) 
False

>  <Standardized_SMILES>  (219) 
[H]C1=NC([H])=C2C([H])=C([H])C([H])=C(S(=O)(=O)N3C([H])([H])C([H])([H])C([H])([H])[N+]([H])([H])C([H])([H])C3([H])[H])C2=C1[H]

>  <2D_Mol_H>  (219) 
<rdkit.Chem.rdchem.Mol object at 0x77059d81e180>

>  <MW>  (219) 
292.384

>  <HBA>  (219) 
3

>  <HBD>  (219) 
1

>  <LogP>  (219) 
0.1926

>  <NRB>  (219) 
2

>  <TPSA>  (219) 
66.88

>  <Num_Heavy_Atoms>  (219) 
20

>  <Ro5>  (219) 
[True, True, True, True, True, True]

>  <Ro5_Fulfilled>  (219) 
True

>  <Ro3>  (219) 
[True, True, True, True]

>  <Ro3_Fulfilled>  (219) 
True

>  <Fsp3>  (219) 
0.357143

>  <Fsp3_0.42>  (219) 
False

>  <Fsp3_0.45>  (219) 
False

>  <Stereogenic_Carbons>  (219) 
0

>  <C_Atoms>  (219) 
14

>  <FCStereo>  (219) 
0.0

>  <SPS>  (219) 
360

>  <nSPS>  (219) 
18.0

>  <PBF>  (219) 
0.788195

>  <PBF_0.6>  (219) 
True

>  <nPBF>  (219) 
0.03941

>  <nPBF_0.016>  (219) 
True

>  <PMI1>  (219) 
743.353767

>  <PMI2>  (219) 
2398.457773

>  <PMI3>  (219) 
2682.878817

>  <NPR1>  (219) 
0.277073

>  <NPR2>  (219) 
0.893987

>  <Sum_NPR>  (219) 
1.17106

>  <Sum_NPR_1.07>  (219) 
True

>  <Sum_NPR_1.2>  (219) 
False

>  <MaxAbsEStateIndex>  (219) 
12.845614

>  <MaxEStateIndex>  (219) 
12.845614

>  <MinAbsEStateIndex>  (219) 
0.388241

>  <MinEStateIndex>  (219) 
-3.426412

>  <qed>  (219) 
0.859215

>  <MolWt>  (219) 
292.384

>  <HeavyAtomMolWt>  (219) 
274.24

>  <ExactMolWt>  (219) 
292.111424

>  <NumValenceElectrons>  (219) 
106

>  <NumRadicalElectrons>  (219) 
0

>  <MaxPartialCharge>  (219) 
0.243397

>  <MinPartialCharge>  (219) 
-0.345118

>  <MaxAbsPartialCharge>  (219) 
0.345118

>  <MinAbsPartialCharge>  (219) 
0.243397

>  <FpDensityMorgan1>  (219) 
1.15

>  <FpDensityMorgan2>  (219) 
2.05

>  <FpDensityMorgan3>  (219) 
2.95

>  <BCUT2D_MWHI>  (219) 
32.233427

>  <BCUT2D_MWLOW>  (219) 
10.168311

>  <BCUT2D_CHGHI>  (219) 
2.268872

>  <BCUT2D_CHGLO>  (219) 
-2.192579

>  <BCUT2D_LOGPHI>  (219) 
2.246607

>  <BCUT2D_LOGPLOW>  (219) 
-2.843702

>  <BCUT2D_MRHI>  (219) 
7.889641

>  <BCUT2D_MRLOW>  (219) 
-0.650697

>  <AvgIpc>  (219) 
2.759566

>  <BalabanJ>  (219) 
2.085841

>  <BertzCT>  (219) 
701.935726

>  <Chi0>  (219) 
14.001789

>  <Chi0n>  (219) 
11.196158

>  <Chi0v>  (219) 
12.012654

>  <Chi1>  (219) 
9.693507

>  <Chi1n>  (219) 
6.840082

>  <Chi1v>  (219) 
8.280145

>  <Chi2n>  (219) 
4.976624

>  <Chi2v>  (219) 
6.882981

>  <Chi3n>  (219) 
3.656948

>  <Chi3v>  (219) 
5.613741

>  <Chi4n>  (219) 
2.60061

>  <Chi4v>  (219) 
4.308342

>  <HallKierAlpha>  (219) 
-1.5

>  <Ipc>  (219) 
56228.921022

>  <Kappa1>  (219) 
13.481559

>  <Kappa2>  (219) 
5.47472

>  <Kappa3>  (219) 
2.416781

>  <LabuteASA>  (219) 
118.222067

>  <PEOE_VSA1>  (219) 
5.316789

>  <PEOE_VSA10>  (219) 
0.0

>  <PEOE_VSA11>  (219) 
0.0

>  <PEOE_VSA12>  (219) 
10.023291

>  <PEOE_VSA13>  (219) 
0.0

>  <PEOE_VSA14>  (219) 
0.0

>  <PEOE_VSA2>  (219) 
4.983979

>  <PEOE_VSA3>  (219) 
8.417797

>  <PEOE_VSA4>  (219) 
4.305216

>  <PEOE_VSA5>  (219) 
0.0

>  <PEOE_VSA6>  (219) 
12.132734

>  <PEOE_VSA7>  (219) 
12.132734

>  <PEOE_VSA8>  (219) 
36.131714

>  <PEOE_VSA9>  (219) 
24.529753

>  <SMR_VSA1>  (219) 
13.734586

>  <SMR_VSA10>  (219) 
20.79574

>  <SMR_VSA2>  (219) 
0.0

>  <SMR_VSA3>  (219) 
9.289195

>  <SMR_VSA4>  (219) 
0.0

>  <SMR_VSA5>  (219) 
11.316305

>  <SMR_VSA6>  (219) 
26.179026

>  <SMR_VSA7>  (219) 
36.659155

>  <SMR_VSA8>  (219) 
0.0

>  <SMR_VSA9>  (219) 
0.0

>  <SlogP_VSA1>  (219) 
5.316789

>  <SlogP_VSA10>  (219) 
0.0

>  <SlogP_VSA11>  (219) 
0.0

>  <SlogP_VSA12>  (219) 
0.0

>  <SlogP_VSA2>  (219) 
43.886017

>  <SlogP_VSA3>  (219) 
10.023291

>  <SlogP_VSA4>  (219) 
0.0

>  <SlogP_VSA5>  (219) 
6.420822

>  <SlogP_VSA6>  (219) 
41.554639

>  <SlogP_VSA7>  (219) 
0.0

>  <SlogP_VSA8>  (219) 
10.772448

>  <SlogP_VSA9>  (219) 
0.0

>  <EState_VSA1>  (219) 
10.023291

>  <EState_VSA10>  (219) 
8.417797

>  <EState_VSA11>  (219) 
0.0

>  <EState_VSA2>  (219) 
0.0

>  <EState_VSA3>  (219) 
17.984996

>  <EState_VSA4>  (219) 
30.282783

>  <EState_VSA5>  (219) 
0.0

>  <EState_VSA6>  (219) 
34.898004

>  <EState_VSA7>  (219) 
6.066367

>  <EState_VSA8>  (219) 
10.300767

>  <EState_VSA9>  (219) 
0.0

>  <VSA_EState1>  (219) 
27.294107

>  <VSA_EState10>  (219) 
0.0

>  <VSA_EState2>  (219) 
4.43837

>  <VSA_EState3>  (219) 
3.771674

>  <VSA_EState4>  (219) 
0.0

>  <VSA_EState5>  (219) 
0.0

>  <VSA_EState6>  (219) 
7.121861

>  <VSA_EState7>  (219) 
4.229827

>  <VSA_EState8>  (219) 
2.98724

>  <VSA_EState9>  (219) 
-3.426412

>  <FractionCSP3>  (219) 
0.357143

>  <HeavyAtomCount>  (219) 
20

>  <NHOHCount>  (219) 
2

>  <NOCount>  (219) 
5

>  <NumAliphaticCarbocycles>  (219) 
0

>  <NumAliphaticHeterocycles>  (219) 
1

>  <NumAliphaticRings>  (219) 
1

>  <NumAromaticCarbocycles>  (219) 
1

>  <NumAromaticHeterocycles>  (219) 
1

>  <NumAromaticRings>  (219) 
2

>  <NumHAcceptors>  (219) 
3

>  <NumHDonors>  (219) 
1

>  <NumHeteroatoms>  (219) 
6

>  <NumRotatableBonds>  (219) 
2

>  <NumSaturatedCarbocycles>  (219) 
0

>  <NumSaturatedHeterocycles>  (219) 
1

>  <NumSaturatedRings>  (219) 
1

>  <RingCount>  (219) 
3

>  <MolLogP>  (219) 
0.1926

>  <MolMR>  (219) 
76.7782

>  <fr_Al_COO>  (219) 
0

>  <fr_Al_OH>  (219) 
0

>  <fr_Al_OH_noTert>  (219) 
0

>  <fr_ArN>  (219) 
0

>  <fr_Ar_COO>  (219) 
0

>  <fr_Ar_N>  (219) 
1

>  <fr_Ar_NH>  (219) 
0

>  <fr_Ar_OH>  (219) 
0

>  <fr_COO>  (219) 
0

>  <fr_COO2>  (219) 
0

>  <fr_C_O>  (219) 
0

>  <fr_C_O_noCOO>  (219) 
0

>  <fr_C_S>  (219) 
0

>  <fr_HOCCN>  (219) 
0

>  <fr_Imine>  (219) 
0

>  <fr_NH0>  (219) 
2

>  <fr_NH1>  (219) 
0

>  <fr_NH2>  (219) 
1

>  <fr_N_O>  (219) 
0

>  <fr_Ndealkylation1>  (219) 
0

>  <fr_Ndealkylation2>  (219) 
0

>  <fr_Nhpyrrole>  (219) 
0

>  <fr_SH>  (219) 
0

>  <fr_aldehyde>  (219) 
0

>  <fr_alkyl_carbamate>  (219) 
0

>  <fr_alkyl_halide>  (219) 
0

>  <fr_allylic_oxid>  (219) 
0

>  <fr_amide>  (219) 
0

>  <fr_amidine>  (219) 
0

>  <fr_aniline>  (219) 
0

>  <fr_aryl_methyl>  (219) 
0

>  <fr_azide>  (219) 
0

>  <fr_azo>  (219) 
0

>  <fr_barbitur>  (219) 
0

>  <fr_benzene>  (219) 
1

>  <fr_benzodiazepine>  (219) 
0

>  <fr_bicyclic>  (219) 
1

>  <fr_diazo>  (219) 
0

>  <fr_dihydropyridine>  (219) 
0

>  <fr_epoxide>  (219) 
0

>  <fr_ester>  (219) 
0

>  <fr_ether>  (219) 
0

>  <fr_furan>  (219) 
0

>  <fr_guanido>  (219) 
0

>  <fr_halogen>  (219) 
0

>  <fr_hdrzine>  (219) 
0

>  <fr_hdrzone>  (219) 
0

>  <fr_imidazole>  (219) 
0

>  <fr_imide>  (219) 
0

>  <fr_isocyan>  (219) 
0

>  <fr_isothiocyan>  (219) 
0

>  <fr_ketone>  (219) 
0

>  <fr_ketone_Topliss>  (219) 
0

>  <fr_lactam>  (219) 
0

>  <fr_lactone>  (219) 
0

>  <fr_methoxy>  (219) 
0

>  <fr_morpholine>  (219) 
0

>  <fr_nitrile>  (219) 
0

>  <fr_nitro>  (219) 
0

>  <fr_nitro_arom>  (219) 
0

>  <fr_nitro_arom_nonortho>  (219) 
0

>  <fr_nitroso>  (219) 
0

>  <fr_oxazole>  (219) 
0

>  <fr_oxime>  (219) 
0

>  <fr_para_hydroxylation>  (219) 
0

>  <fr_phenol>  (219) 
0

>  <fr_phenol_noOrthoHbond>  (219) 
0

>  <fr_phos_acid>  (219) 
0

>  <fr_phos_ester>  (219) 
0

>  <fr_piperdine>  (219) 
0

>  <fr_piperzine>  (219) 
0

>  <fr_priamide>  (219) 
0

>  <fr_prisulfonamd>  (219) 
0

>  <fr_pyridine>  (219) 
1

>  <fr_quatN>  (219) 
1

>  <fr_sulfide>  (219) 
0

>  <fr_sulfonamd>  (219) 
1

>  <fr_sulfone>  (219) 
0

>  <fr_term_acetylene>  (219) 
0

>  <fr_tetrazole>  (219) 
0

>  <fr_thiazole>  (219) 
0

>  <fr_thiocyan>  (219) 
0

>  <fr_thiophene>  (219) 
0

>  <fr_unbrch_alkane>  (219) 
0

>  <fr_urea>  (219) 
0

>  <NP_Likeness>  (219) 
-1.563087

$$$$
M77
     RDKit          3D

  0  0  0  0  0  0  0  0  0  0999 V3000
M  V30 BEGIN CTAB
M  V30 COUNTS 38 40 0 0 0
M  V30 BEGIN ATOM
M  V30 1 S 13.563000 -23.199000 -27.751000 0
M  V30 2 O 14.115000 -23.342000 -29.061000 0
M  V30 3 O 13.020000 -24.337000 -27.079000 0
M  V30 4 N 9.337000 -21.512000 -27.471000 0 CHG=1
M  V30 5 N 17.232000 -24.720000 -24.052000 0
M  V30 6 N 12.362000 -22.103000 -27.867000 0
M  V30 7 C 10.271000 -22.174000 -26.568000 0
M  V30 8 C 9.870000 -20.545000 -28.435000 0
M  V30 9 C 16.460000 -25.339000 -24.961000 0
M  V30 10 C 17.218000 -23.396000 -24.038000 0
M  V30 11 C 11.664000 -21.647000 -26.647000 0
M  V30 12 C 12.229000 -21.259000 -29.070000 0
M  V30 13 C 10.782000 -21.085000 -29.509000 0
M  V30 14 C 15.691000 -20.469000 -25.773000 0
M  V30 15 C 15.653000 -24.691000 -25.849000 0
M  V30 16 C 14.853000 -21.111000 -26.668000 0
M  V30 17 C 16.465000 -21.184000 -24.905000 0
M  V30 18 C 14.790000 -22.479000 -26.700000 0
M  V30 19 C 16.446000 -22.601000 -24.916000 0
M  V30 20 C 15.615000 -23.277000 -25.845000 0
M  V30 21 H 8.669800 -21.028300 -26.904500 0
M  V30 22 H 10.289600 -23.148200 -26.793000 0
M  V30 23 H 9.941700 -22.054500 -25.631400 0
M  V30 24 H 10.382400 -19.857000 -27.921100 0
M  V30 25 H 9.092100 -20.110800 -28.889200 0
M  V30 26 H 16.478400 -26.338500 -24.988100 0
M  V30 27 H 17.789800 -22.928800 -23.363600 0
M  V30 28 H 11.631100 -20.647500 -26.648700 0
M  V30 29 H 12.174000 -21.962300 -25.846700 0
M  V30 30 H 12.740900 -21.683600 -29.816800 0
M  V30 31 H 12.613900 -20.357400 -28.872300 0
M  V30 32 H 10.763200 -20.452600 -30.283400 0
M  V30 33 H 10.432700 -21.976300 -29.798000 0
M  V30 34 H 15.730000 -19.469800 -25.762000 0
M  V30 35 H 15.094200 -25.209800 -26.496000 0
M  V30 36 H 14.290000 -20.572900 -27.295200 0
M  V30 37 H 17.051900 -20.702500 -24.254100 0
M  V30 38 H 8.873800 -22.227200 -27.994300 0
M  V30 END ATOM
M  V30 BEGIN BOND
M  V30 1 2 1 2
M  V30 2 2 1 3
M  V30 3 1 1 6
M  V30 4 1 1 18
M  V30 5 1 4 7
M  V30 6 1 4 8
M  V30 7 2 5 9
M  V30 8 1 5 10
M  V30 9 1 6 11
M  V30 10 1 6 12
M  V30 11 1 7 11
M  V30 12 1 8 13
M  V30 13 1 9 15
M  V30 14 2 10 19
M  V30 15 1 12 13
M  V30 16 1 14 16
M  V30 17 2 14 17
M  V30 18 2 15 20
M  V30 19 2 16 18
M  V30 20 1 17 19
M  V30 21 1 18 20
M  V30 22 1 19 20
M  V30 23 1 4 21
M  V30 24 1 7 22
M  V30 25 1 7 23
M  V30 26 1 8 24
M  V30 27 1 8 25
M  V30 28 1 9 26
M  V30 29 1 10 27
M  V30 30 1 11 28
M  V30 31 1 11 29
M  V30 32 1 12 30
M  V30 33 1 12 31
M  V30 34 1 13 32
M  V30 35 1 13 33
M  V30 36 1 14 34
M  V30 37 1 15 35
M  V30 38 1 16 36
M  V30 39 1 17 37
M  V30 40 1 4 38
M  V30 END BOND
M  V30 END CTAB
M  END
>  <Ligand_Instance>  (220) 
6ERW_M77_A_401

>  <Dataset>  (220) 
PDB

>  <PDB_ID>  (220) 
6ERW

>  <Chain>  (220) 
A

>  <Resi>  (220) 
401

>  <Num_Resolved_Atoms>  (220) 
20

>  <Num_H_Atoms_ProtBoundConf>  (220) 
18

>  <Pocket>  (220) 
A

>  <Name>  (220) 
5-(1,4-DIAZEPAN-1-SULFONYL)ISOQUINOLINE

>  <Num_Not_Resolved_Atoms>  (220) 
0

>  <ATP_Site>  (220) 
True

>  <Peripheral>  (220) 
False

>  <Standardized_SMILES>  (220) 
[H]C1=NC([H])=C2C([H])=C([H])C([H])=C(S(=O)(=O)N3C([H])([H])C([H])([H])C([H])([H])[N+]([H])([H])C([H])([H])C3([H])[H])C2=C1[H]

>  <2D_Mol_H>  (220) 
<rdkit.Chem.rdchem.Mol object at 0x77059d81e260>

>  <MW>  (220) 
292.384

>  <HBA>  (220) 
3

>  <HBD>  (220) 
1

>  <LogP>  (220) 
0.1926

>  <NRB>  (220) 
2

>  <TPSA>  (220) 
66.88

>  <Num_Heavy_Atoms>  (220) 
20

>  <Ro5>  (220) 
[True, True, True, True, True, True]

>  <Ro5_Fulfilled>  (220) 
True

>  <Ro3>  (220) 
[True, True, True, True]

>  <Ro3_Fulfilled>  (220) 
True

>  <Fsp3>  (220) 
0.357143

>  <Fsp3_0.42>  (220) 
False

>  <Fsp3_0.45>  (220) 
False

>  <Stereogenic_Carbons>  (220) 
0

>  <C_Atoms>  (220) 
14

>  <FCStereo>  (220) 
0.0

>  <SPS>  (220) 
360

>  <nSPS>  (220) 
18.0

>  <PBF>  (220) 
0.931844

>  <PBF_0.6>  (220) 
True

>  <nPBF>  (220) 
0.046592

>  <nPBF_0.016>  (220) 
True

>  <PMI1>  (220) 
697.515197

>  <PMI2>  (220) 
2653.182279

>  <PMI3>  (220) 
2809.432438

>  <NPR1>  (220) 
0.248276

>  <NPR2>  (220) 
0.944384

>  <Sum_NPR>  (220) 
1.19266

>  <Sum_NPR_1.07>  (220) 
True

>  <Sum_NPR_1.2>  (220) 
False

>  <MaxAbsEStateIndex>  (220) 
12.845614

>  <MaxEStateIndex>  (220) 
12.845614

>  <MinAbsEStateIndex>  (220) 
0.388241

>  <MinEStateIndex>  (220) 
-3.426412

>  <qed>  (220) 
0.859215

>  <MolWt>  (220) 
292.384

>  <HeavyAtomMolWt>  (220) 
274.24

>  <ExactMolWt>  (220) 
292.111424

>  <NumValenceElectrons>  (220) 
106

>  <NumRadicalElectrons>  (220) 
0

>  <MaxPartialCharge>  (220) 
0.243397

>  <MinPartialCharge>  (220) 
-0.345118

>  <MaxAbsPartialCharge>  (220) 
0.345118

>  <MinAbsPartialCharge>  (220) 
0.243397

>  <FpDensityMorgan1>  (220) 
1.15

>  <FpDensityMorgan2>  (220) 
2.05

>  <FpDensityMorgan3>  (220) 
2.95

>  <BCUT2D_MWHI>  (220) 
32.233427

>  <BCUT2D_MWLOW>  (220) 
10.168311

>  <BCUT2D_CHGHI>  (220) 
2.268872

>  <BCUT2D_CHGLO>  (220) 
-2.192579

>  <BCUT2D_LOGPHI>  (220) 
2.246607

>  <BCUT2D_LOGPLOW>  (220) 
-2.843702

>  <BCUT2D_MRHI>  (220) 
7.889641

>  <BCUT2D_MRLOW>  (220) 
-0.650697

>  <AvgIpc>  (220) 
2.759566

>  <BalabanJ>  (220) 
2.085841

>  <BertzCT>  (220) 
701.935726

>  <Chi0>  (220) 
14.001789

>  <Chi0n>  (220) 
11.196158

>  <Chi0v>  (220) 
12.012654

>  <Chi1>  (220) 
9.693507

>  <Chi1n>  (220) 
6.840082

>  <Chi1v>  (220) 
8.280145

>  <Chi2n>  (220) 
4.976624

>  <Chi2v>  (220) 
6.882981

>  <Chi3n>  (220) 
3.656948

>  <Chi3v>  (220) 
5.613741

>  <Chi4n>  (220) 
2.60061

>  <Chi4v>  (220) 
4.308342

>  <HallKierAlpha>  (220) 
-1.5

>  <Ipc>  (220) 
56228.921022

>  <Kappa1>  (220) 
13.481559

>  <Kappa2>  (220) 
5.47472

>  <Kappa3>  (220) 
2.416781

>  <LabuteASA>  (220) 
118.222067

>  <PEOE_VSA1>  (220) 
5.316789

>  <PEOE_VSA10>  (220) 
0.0

>  <PEOE_VSA11>  (220) 
0.0

>  <PEOE_VSA12>  (220) 
10.023291

>  <PEOE_VSA13>  (220) 
0.0

>  <PEOE_VSA14>  (220) 
0.0

>  <PEOE_VSA2>  (220) 
4.983979

>  <PEOE_VSA3>  (220) 
8.417797

>  <PEOE_VSA4>  (220) 
4.305216

>  <PEOE_VSA5>  (220) 
0.0

>  <PEOE_VSA6>  (220) 
12.132734

>  <PEOE_VSA7>  (220) 
12.132734

>  <PEOE_VSA8>  (220) 
36.131714

>  <PEOE_VSA9>  (220) 
24.529753

>  <SMR_VSA1>  (220) 
13.734586

>  <SMR_VSA10>  (220) 
20.79574

>  <SMR_VSA2>  (220) 
0.0

>  <SMR_VSA3>  (220) 
9.289195

>  <SMR_VSA4>  (220) 
0.0

>  <SMR_VSA5>  (220) 
11.316305

>  <SMR_VSA6>  (220) 
26.179026

>  <SMR_VSA7>  (220) 
36.659155

>  <SMR_VSA8>  (220) 
0.0

>  <SMR_VSA9>  (220) 
0.0

>  <SlogP_VSA1>  (220) 
5.316789

>  <SlogP_VSA10>  (220) 
0.0

>  <SlogP_VSA11>  (220) 
0.0

>  <SlogP_VSA12>  (220) 
0.0

>  <SlogP_VSA2>  (220) 
43.886017

>  <SlogP_VSA3>  (220) 
10.023291

>  <SlogP_VSA4>  (220) 
0.0

>  <SlogP_VSA5>  (220) 
6.420822

>  <SlogP_VSA6>  (220) 
41.554639

>  <SlogP_VSA7>  (220) 
0.0

>  <SlogP_VSA8>  (220) 
10.772448

>  <SlogP_VSA9>  (220) 
0.0

>  <EState_VSA1>  (220) 
10.023291

>  <EState_VSA10>  (220) 
8.417797

>  <EState_VSA11>  (220) 
0.0

>  <EState_VSA2>  (220) 
0.0

>  <EState_VSA3>  (220) 
17.984996

>  <EState_VSA4>  (220) 
30.282783

>  <EState_VSA5>  (220) 
0.0

>  <EState_VSA6>  (220) 
34.898004

>  <EState_VSA7>  (220) 
6.066367

>  <EState_VSA8>  (220) 
10.300767

>  <EState_VSA9>  (220) 
0.0

>  <VSA_EState1>  (220) 
27.294107

>  <VSA_EState10>  (220) 
0.0

>  <VSA_EState2>  (220) 
4.43837

>  <VSA_EState3>  (220) 
3.771674

>  <VSA_EState4>  (220) 
0.0

>  <VSA_EState5>  (220) 
0.0

>  <VSA_EState6>  (220) 
7.121861

>  <VSA_EState7>  (220) 
4.229827

>  <VSA_EState8>  (220) 
2.98724

>  <VSA_EState9>  (220) 
-3.426412

>  <FractionCSP3>  (220) 
0.357143

>  <HeavyAtomCount>  (220) 
20

>  <NHOHCount>  (220) 
2

>  <NOCount>  (220) 
5

>  <NumAliphaticCarbocycles>  (220) 
0

>  <NumAliphaticHeterocycles>  (220) 
1

>  <NumAliphaticRings>  (220) 
1

>  <NumAromaticCarbocycles>  (220) 
1

>  <NumAromaticHeterocycles>  (220) 
1

>  <NumAromaticRings>  (220) 
2

>  <NumHAcceptors>  (220) 
3

>  <NumHDonors>  (220) 
1

>  <NumHeteroatoms>  (220) 
6

>  <NumRotatableBonds>  (220) 
2

>  <NumSaturatedCarbocycles>  (220) 
0

>  <NumSaturatedHeterocycles>  (220) 
1

>  <NumSaturatedRings>  (220) 
1

>  <RingCount>  (220) 
3

>  <MolLogP>  (220) 
0.1926

>  <MolMR>  (220) 
76.7782

>  <fr_Al_COO>  (220) 
0

>  <fr_Al_OH>  (220) 
0

>  <fr_Al_OH_noTert>  (220) 
0

>  <fr_ArN>  (220) 
0

>  <fr_Ar_COO>  (220) 
0

>  <fr_Ar_N>  (220) 
1

>  <fr_Ar_NH>  (220) 
0

>  <fr_Ar_OH>  (220) 
0

>  <fr_COO>  (220) 
0

>  <fr_COO2>  (220) 
0

>  <fr_C_O>  (220) 
0

>  <fr_C_O_noCOO>  (220) 
0

>  <fr_C_S>  (220) 
0

>  <fr_HOCCN>  (220) 
0

>  <fr_Imine>  (220) 
0

>  <fr_NH0>  (220) 
2

>  <fr_NH1>  (220) 
0

>  <fr_NH2>  (220) 
1

>  <fr_N_O>  (220) 
0

>  <fr_Ndealkylation1>  (220) 
0

>  <fr_Ndealkylation2>  (220) 
0

>  <fr_Nhpyrrole>  (220) 
0

>  <fr_SH>  (220) 
0

>  <fr_aldehyde>  (220) 
0

>  <fr_alkyl_carbamate>  (220) 
0

>  <fr_alkyl_halide>  (220) 
0

>  <fr_allylic_oxid>  (220) 
0

>  <fr_amide>  (220) 
0

>  <fr_amidine>  (220) 
0

>  <fr_aniline>  (220) 
0

>  <fr_aryl_methyl>  (220) 
0

>  <fr_azide>  (220) 
0

>  <fr_azo>  (220) 
0

>  <fr_barbitur>  (220) 
0

>  <fr_benzene>  (220) 
1

>  <fr_benzodiazepine>  (220) 
0

>  <fr_bicyclic>  (220) 
1

>  <fr_diazo>  (220) 
0

>  <fr_dihydropyridine>  (220) 
0

>  <fr_epoxide>  (220) 
0

>  <fr_ester>  (220) 
0

>  <fr_ether>  (220) 
0

>  <fr_furan>  (220) 
0

>  <fr_guanido>  (220) 
0

>  <fr_halogen>  (220) 
0

>  <fr_hdrzine>  (220) 
0

>  <fr_hdrzone>  (220) 
0

>  <fr_imidazole>  (220) 
0

>  <fr_imide>  (220) 
0

>  <fr_isocyan>  (220) 
0

>  <fr_isothiocyan>  (220) 
0

>  <fr_ketone>  (220) 
0

>  <fr_ketone_Topliss>  (220) 
0

>  <fr_lactam>  (220) 
0

>  <fr_lactone>  (220) 
0

>  <fr_methoxy>  (220) 
0

>  <fr_morpholine>  (220) 
0

>  <fr_nitrile>  (220) 
0

>  <fr_nitro>  (220) 
0

>  <fr_nitro_arom>  (220) 
0

>  <fr_nitro_arom_nonortho>  (220) 
0

>  <fr_nitroso>  (220) 
0

>  <fr_oxazole>  (220) 
0

>  <fr_oxime>  (220) 
0

>  <fr_para_hydroxylation>  (220) 
0

>  <fr_phenol>  (220) 
0

>  <fr_phenol_noOrthoHbond>  (220) 
0

>  <fr_phos_acid>  (220) 
0

>  <fr_phos_ester>  (220) 
0

>  <fr_piperdine>  (220) 
0

>  <fr_piperzine>  (220) 
0

>  <fr_priamide>  (220) 
0

>  <fr_prisulfonamd>  (220) 
0

>  <fr_pyridine>  (220) 
1

>  <fr_quatN>  (220) 
1

>  <fr_sulfide>  (220) 
0

>  <fr_sulfonamd>  (220) 
1

>  <fr_sulfone>  (220) 
0

>  <fr_term_acetylene>  (220) 
0

>  <fr_tetrazole>  (220) 
0

>  <fr_thiazole>  (220) 
0

>  <fr_thiocyan>  (220) 
0

>  <fr_thiophene>  (220) 
0

>  <fr_unbrch_alkane>  (220) 
0

>  <fr_urea>  (220) 
0

>  <NP_Likeness>  (220) 
-1.563087

$$$$
M77
     RDKit          3D

  0  0  0  0  0  0  0  0  0  0999 V3000
M  V30 BEGIN CTAB
M  V30 COUNTS 38 40 0 0 0
M  V30 BEGIN ATOM
M  V30 1 S -13.517000 -25.160000 27.252000 0
M  V30 2 O -14.078000 -25.404000 28.548000 0
M  V30 3 O -13.002000 -26.247000 26.490000 0
M  V30 4 N -9.302000 -23.164000 26.905000 0 CHG=1
M  V30 5 N -17.357000 -26.424000 23.603000 0
M  V30 6 N -12.287000 -24.095000 27.464000 0
M  V30 7 C -10.215000 -23.874000 25.980000 0
M  V30 8 C -9.668000 -23.407000 28.308000 0
M  V30 9 C -16.539000 -27.102000 24.424000 0
M  V30 10 C -17.339000 -25.101000 23.680000 0
M  V30 11 C -11.663000 -23.509000 26.256000 0
M  V30 12 C -12.176000 -23.330000 28.719000 0
M  V30 13 C -10.831000 -22.619000 28.858000 0
M  V30 14 C -15.691000 -22.300000 25.507000 0
M  V30 15 C -15.693000 -26.517000 25.325000 0
M  V30 16 C -14.812000 -23.002000 26.313000 0
M  V30 17 C -16.515000 -22.953000 24.641000 0
M  V30 18 C -14.764000 -24.369000 26.271000 0
M  V30 19 C -16.513000 -24.368000 24.566000 0
M  V30 20 C -15.642000 -25.107000 25.412000 0
M  V30 21 H -9.350600 -22.182300 26.721000 0
M  V30 22 H -10.098200 -24.860100 26.098400 0
M  V30 23 H -9.988000 -23.622000 25.039300 0
M  V30 24 H -8.867900 -23.195900 28.869500 0
M  V30 25 H -9.891600 -24.377500 28.397800 0
M  V30 26 H -16.549100 -28.100700 24.373200 0
M  V30 27 H -17.947200 -24.588200 23.074100 0
M  V30 28 H -11.711500 -22.514100 26.344200 0
M  V30 29 H -12.203000 -23.800300 25.466400 0
M  V30 30 H -12.286400 -23.959300 29.488300 0
M  V30 31 H -12.904100 -22.644900 28.741700 0
M  V30 32 H -10.882100 -21.748500 28.368400 0
M  V30 33 H -10.664200 -22.446200 29.828700 0
M  V30 34 H -15.721600 -21.301900 25.561000 0
M  V30 35 H -15.116300 -27.080800 25.916300 0
M  V30 36 H -14.205100 -22.504800 26.933100 0
M  V30 37 H -17.128500 -22.427700 24.051300 0
M  V30 38 H -8.367800 -23.486000 26.751600 0
M  V30 END ATOM
M  V30 BEGIN BOND
M  V30 1 2 1 2
M  V30 2 2 1 3
M  V30 3 1 1 6
M  V30 4 1 1 18
M  V30 5 1 4 7
M  V30 6 1 4 8
M  V30 7 2 5 9
M  V30 8 1 5 10
M  V30 9 1 6 11
M  V30 10 1 6 12
M  V30 11 1 7 11
M  V30 12 1 8 13
M  V30 13 1 9 15
M  V30 14 2 10 19
M  V30 15 1 12 13
M  V30 16 1 14 16
M  V30 17 2 14 17
M  V30 18 2 15 20
M  V30 19 2 16 18
M  V30 20 1 17 19
M  V30 21 1 18 20
M  V30 22 1 19 20
M  V30 23 1 4 21
M  V30 24 1 7 22
M  V30 25 1 7 23
M  V30 26 1 8 24
M  V30 27 1 8 25
M  V30 28 1 9 26
M  V30 29 1 10 27
M  V30 30 1 11 28
M  V30 31 1 11 29
M  V30 32 1 12 30
M  V30 33 1 12 31
M  V30 34 1 13 32
M  V30 35 1 13 33
M  V30 36 1 14 34
M  V30 37 1 15 35
M  V30 38 1 16 36
M  V30 39 1 17 37
M  V30 40 1 4 38
M  V30 END BOND
M  V30 END CTAB
M  END
>  <Ligand_Instance>  (221) 
6I2A_M77_A_401

>  <Dataset>  (221) 
PDB

>  <PDB_ID>  (221) 
6I2A

>  <Chain>  (221) 
A

>  <Resi>  (221) 
401

>  <Num_Resolved_Atoms>  (221) 
20

>  <Num_H_Atoms_ProtBoundConf>  (221) 
18

>  <Pocket>  (221) 
A

>  <Name>  (221) 
5-(1,4-DIAZEPAN-1-SULFONYL)ISOQUINOLINE

>  <Num_Not_Resolved_Atoms>  (221) 
0

>  <ATP_Site>  (221) 
True

>  <Peripheral>  (221) 
False

>  <Standardized_SMILES>  (221) 
[H]C1=NC([H])=C2C([H])=C([H])C([H])=C(S(=O)(=O)N3C([H])([H])C([H])([H])C([H])([H])[N+]([H])([H])C([H])([H])C3([H])[H])C2=C1[H]

>  <2D_Mol_H>  (221) 
<rdkit.Chem.rdchem.Mol object at 0x77059d81e340>

>  <MW>  (221) 
292.384

>  <HBA>  (221) 
3

>  <HBD>  (221) 
1

>  <LogP>  (221) 
0.1926

>  <NRB>  (221) 
2

>  <TPSA>  (221) 
66.88

>  <Num_Heavy_Atoms>  (221) 
20

>  <Ro5>  (221) 
[True, True, True, True, True, True]

>  <Ro5_Fulfilled>  (221) 
True

>  <Ro3>  (221) 
[True, True, True, True]

>  <Ro3_Fulfilled>  (221) 
True

>  <Fsp3>  (221) 
0.357143

>  <Fsp3_0.42>  (221) 
False

>  <Fsp3_0.45>  (221) 
False

>  <Stereogenic_Carbons>  (221) 
0

>  <C_Atoms>  (221) 
14

>  <FCStereo>  (221) 
0.0

>  <SPS>  (221) 
360

>  <nSPS>  (221) 
18.0

>  <PBF>  (221) 
0.91632

>  <PBF_0.6>  (221) 
True

>  <nPBF>  (221) 
0.045816

>  <nPBF_0.016>  (221) 
True

>  <PMI1>  (221) 
697.428635

>  <PMI2>  (221) 
2674.667773

>  <PMI3>  (221) 
2832.33055

>  <NPR1>  (221) 
0.246238

>  <NPR2>  (221) 
0.944335

>  <Sum_NPR>  (221) 
1.190573

>  <Sum_NPR_1.07>  (221) 
True

>  <Sum_NPR_1.2>  (221) 
False

>  <MaxAbsEStateIndex>  (221) 
12.845614

>  <MaxEStateIndex>  (221) 
12.845614

>  <MinAbsEStateIndex>  (221) 
0.388241

>  <MinEStateIndex>  (221) 
-3.426412

>  <qed>  (221) 
0.859215

>  <MolWt>  (221) 
292.384

>  <HeavyAtomMolWt>  (221) 
274.24

>  <ExactMolWt>  (221) 
292.111424

>  <NumValenceElectrons>  (221) 
106

>  <NumRadicalElectrons>  (221) 
0

>  <MaxPartialCharge>  (221) 
0.243397

>  <MinPartialCharge>  (221) 
-0.345118

>  <MaxAbsPartialCharge>  (221) 
0.345118

>  <MinAbsPartialCharge>  (221) 
0.243397

>  <FpDensityMorgan1>  (221) 
1.15

>  <FpDensityMorgan2>  (221) 
2.05

>  <FpDensityMorgan3>  (221) 
2.95

>  <BCUT2D_MWHI>  (221) 
32.233427

>  <BCUT2D_MWLOW>  (221) 
10.168311

>  <BCUT2D_CHGHI>  (221) 
2.268872

>  <BCUT2D_CHGLO>  (221) 
-2.192579

>  <BCUT2D_LOGPHI>  (221) 
2.246607

>  <BCUT2D_LOGPLOW>  (221) 
-2.843702

>  <BCUT2D_MRHI>  (221) 
7.889641

>  <BCUT2D_MRLOW>  (221) 
-0.650697

>  <AvgIpc>  (221) 
2.759566

>  <BalabanJ>  (221) 
2.085841

>  <BertzCT>  (221) 
701.935726

>  <Chi0>  (221) 
14.001789

>  <Chi0n>  (221) 
11.196158

>  <Chi0v>  (221) 
12.012654

>  <Chi1>  (221) 
9.693507

>  <Chi1n>  (221) 
6.840082

>  <Chi1v>  (221) 
8.280145

>  <Chi2n>  (221) 
4.976624

>  <Chi2v>  (221) 
6.882981

>  <Chi3n>  (221) 
3.656948

>  <Chi3v>  (221) 
5.613741

>  <Chi4n>  (221) 
2.60061

>  <Chi4v>  (221) 
4.308342

>  <HallKierAlpha>  (221) 
-1.5

>  <Ipc>  (221) 
56228.921022

>  <Kappa1>  (221) 
13.481559

>  <Kappa2>  (221) 
5.47472

>  <Kappa3>  (221) 
2.416781

>  <LabuteASA>  (221) 
118.222067

>  <PEOE_VSA1>  (221) 
5.316789

>  <PEOE_VSA10>  (221) 
0.0

>  <PEOE_VSA11>  (221) 
0.0

>  <PEOE_VSA12>  (221) 
10.023291

>  <PEOE_VSA13>  (221) 
0.0

>  <PEOE_VSA14>  (221) 
0.0

>  <PEOE_VSA2>  (221) 
4.983979

>  <PEOE_VSA3>  (221) 
8.417797

>  <PEOE_VSA4>  (221) 
4.305216

>  <PEOE_VSA5>  (221) 
0.0

>  <PEOE_VSA6>  (221) 
12.132734

>  <PEOE_VSA7>  (221) 
12.132734

>  <PEOE_VSA8>  (221) 
36.131714

>  <PEOE_VSA9>  (221) 
24.529753

>  <SMR_VSA1>  (221) 
13.734586

>  <SMR_VSA10>  (221) 
20.79574

>  <SMR_VSA2>  (221) 
0.0

>  <SMR_VSA3>  (221) 
9.289195

>  <SMR_VSA4>  (221) 
0.0

>  <SMR_VSA5>  (221) 
11.316305

>  <SMR_VSA6>  (221) 
26.179026

>  <SMR_VSA7>  (221) 
36.659155

>  <SMR_VSA8>  (221) 
0.0

>  <SMR_VSA9>  (221) 
0.0

>  <SlogP_VSA1>  (221) 
5.316789

>  <SlogP_VSA10>  (221) 
0.0

>  <SlogP_VSA11>  (221) 
0.0

>  <SlogP_VSA12>  (221) 
0.0

>  <SlogP_VSA2>  (221) 
43.886017

>  <SlogP_VSA3>  (221) 
10.023291

>  <SlogP_VSA4>  (221) 
0.0

>  <SlogP_VSA5>  (221) 
6.420822

>  <SlogP_VSA6>  (221) 
41.554639

>  <SlogP_VSA7>  (221) 
0.0

>  <SlogP_VSA8>  (221) 
10.772448

>  <SlogP_VSA9>  (221) 
0.0

>  <EState_VSA1>  (221) 
10.023291

>  <EState_VSA10>  (221) 
8.417797

>  <EState_VSA11>  (221) 
0.0

>  <EState_VSA2>  (221) 
0.0

>  <EState_VSA3>  (221) 
17.984996

>  <EState_VSA4>  (221) 
30.282783

>  <EState_VSA5>  (221) 
0.0

>  <EState_VSA6>  (221) 
34.898004

>  <EState_VSA7>  (221) 
6.066367

>  <EState_VSA8>  (221) 
10.300767

>  <EState_VSA9>  (221) 
0.0

>  <VSA_EState1>  (221) 
27.294107

>  <VSA_EState10>  (221) 
0.0

>  <VSA_EState2>  (221) 
4.43837

>  <VSA_EState3>  (221) 
3.771674

>  <VSA_EState4>  (221) 
0.0

>  <VSA_EState5>  (221) 
0.0

>  <VSA_EState6>  (221) 
7.121861

>  <VSA_EState7>  (221) 
4.229827

>  <VSA_EState8>  (221) 
2.98724

>  <VSA_EState9>  (221) 
-3.426412

>  <FractionCSP3>  (221) 
0.357143

>  <HeavyAtomCount>  (221) 
20

>  <NHOHCount>  (221) 
2

>  <NOCount>  (221) 
5

>  <NumAliphaticCarbocycles>  (221) 
0

>  <NumAliphaticHeterocycles>  (221) 
1

>  <NumAliphaticRings>  (221) 
1

>  <NumAromaticCarbocycles>  (221) 
1

>  <NumAromaticHeterocycles>  (221) 
1

>  <NumAromaticRings>  (221) 
2

>  <NumHAcceptors>  (221) 
3

>  <NumHDonors>  (221) 
1

>  <NumHeteroatoms>  (221) 
6

>  <NumRotatableBonds>  (221) 
2

>  <NumSaturatedCarbocycles>  (221) 
0

>  <NumSaturatedHeterocycles>  (221) 
1

>  <NumSaturatedRings>  (221) 
1

>  <RingCount>  (221) 
3

>  <MolLogP>  (221) 
0.1926

>  <MolMR>  (221) 
76.7782

>  <fr_Al_COO>  (221) 
0

>  <fr_Al_OH>  (221) 
0

>  <fr_Al_OH_noTert>  (221) 
0

>  <fr_ArN>  (221) 
0

>  <fr_Ar_COO>  (221) 
0

>  <fr_Ar_N>  (221) 
1

>  <fr_Ar_NH>  (221) 
0

>  <fr_Ar_OH>  (221) 
0

>  <fr_COO>  (221) 
0

>  <fr_COO2>  (221) 
0

>  <fr_C_O>  (221) 
0

>  <fr_C_O_noCOO>  (221) 
0

>  <fr_C_S>  (221) 
0

>  <fr_HOCCN>  (221) 
0

>  <fr_Imine>  (221) 
0

>  <fr_NH0>  (221) 
2

>  <fr_NH1>  (221) 
0

>  <fr_NH2>  (221) 
1

>  <fr_N_O>  (221) 
0

>  <fr_Ndealkylation1>  (221) 
0

>  <fr_Ndealkylation2>  (221) 
0

>  <fr_Nhpyrrole>  (221) 
0

>  <fr_SH>  (221) 
0

>  <fr_aldehyde>  (221) 
0

>  <fr_alkyl_carbamate>  (221) 
0

>  <fr_alkyl_halide>  (221) 
0

>  <fr_allylic_oxid>  (221) 
0

>  <fr_amide>  (221) 
0

>  <fr_amidine>  (221) 
0

>  <fr_aniline>  (221) 
0

>  <fr_aryl_methyl>  (221) 
0

>  <fr_azide>  (221) 
0

>  <fr_azo>  (221) 
0

>  <fr_barbitur>  (221) 
0

>  <fr_benzene>  (221) 
1

>  <fr_benzodiazepine>  (221) 
0

>  <fr_bicyclic>  (221) 
1

>  <fr_diazo>  (221) 
0

>  <fr_dihydropyridine>  (221) 
0

>  <fr_epoxide>  (221) 
0

>  <fr_ester>  (221) 
0

>  <fr_ether>  (221) 
0

>  <fr_furan>  (221) 
0

>  <fr_guanido>  (221) 
0

>  <fr_halogen>  (221) 
0

>  <fr_hdrzine>  (221) 
0

>  <fr_hdrzone>  (221) 
0

>  <fr_imidazole>  (221) 
0

>  <fr_imide>  (221) 
0

>  <fr_isocyan>  (221) 
0

>  <fr_isothiocyan>  (221) 
0

>  <fr_ketone>  (221) 
0

>  <fr_ketone_Topliss>  (221) 
0

>  <fr_lactam>  (221) 
0

>  <fr_lactone>  (221) 
0

>  <fr_methoxy>  (221) 
0

>  <fr_morpholine>  (221) 
0

>  <fr_nitrile>  (221) 
0

>  <fr_nitro>  (221) 
0

>  <fr_nitro_arom>  (221) 
0

>  <fr_nitro_arom_nonortho>  (221) 
0

>  <fr_nitroso>  (221) 
0

>  <fr_oxazole>  (221) 
0

>  <fr_oxime>  (221) 
0

>  <fr_para_hydroxylation>  (221) 
0

>  <fr_phenol>  (221) 
0

>  <fr_phenol_noOrthoHbond>  (221) 
0

>  <fr_phos_acid>  (221) 
0

>  <fr_phos_ester>  (221) 
0

>  <fr_piperdine>  (221) 
0

>  <fr_piperzine>  (221) 
0

>  <fr_priamide>  (221) 
0

>  <fr_prisulfonamd>  (221) 
0

>  <fr_pyridine>  (221) 
1

>  <fr_quatN>  (221) 
1

>  <fr_sulfide>  (221) 
0

>  <fr_sulfonamd>  (221) 
1

>  <fr_sulfone>  (221) 
0

>  <fr_term_acetylene>  (221) 
0

>  <fr_tetrazole>  (221) 
0

>  <fr_thiazole>  (221) 
0

>  <fr_thiocyan>  (221) 
0

>  <fr_thiophene>  (221) 
0

>  <fr_unbrch_alkane>  (221) 
0

>  <fr_urea>  (221) 
0

>  <NP_Likeness>  (221) 
-1.563087

$$$$
M77
     RDKit          3D

  0  0  0  0  0  0  0  0  0  0999 V3000
M  V30 BEGIN CTAB
M  V30 COUNTS 38 40 0 0 0
M  V30 BEGIN ATOM
M  V30 1 S 7.828000 10.921000 8.026000 0
M  V30 2 O 7.091000 10.566000 6.852000 0
M  V30 3 O 8.198000 9.908000 8.952000 0
M  V30 4 N 5.695000 13.112000 11.516000 0 CHG=1
M  V30 5 N 12.999000 9.764000 6.937000 0
M  V30 6 N 6.926000 12.013000 8.849000 0
M  V30 7 C 6.883000 12.265000 11.343000 0
M  V30 8 C 4.699000 12.913000 10.430000 0
M  V30 9 C 11.866000 9.062000 7.117000 0
M  V30 10 C 12.903000 11.085000 6.918000 0
M  V30 11 C 7.600000 12.562000 10.045000 0
M  V30 12 C 5.905000 12.853000 8.190000 0
M  V30 13 C 5.050000 13.657000 9.167000 0
M  V30 14 C 10.401000 13.848000 7.179000 0
M  V30 15 C 10.637000 9.629000 7.318000 0
M  V30 16 C 9.262000 13.125000 7.478000 0
M  V30 17 C 11.604000 13.210000 7.012000 0
M  V30 18 C 9.305000 11.760000 7.565000 0
M  V30 19 C 11.694000 11.799000 7.090000 0
M  V30 20 C 10.521000 11.040000 7.332000 0
M  V30 21 H 5.980700 14.070300 11.519100 0
M  V30 22 H 6.599800 11.305900 11.344300 0
M  V30 23 H 7.510600 12.428300 12.104200 0
M  V30 24 H 3.808100 13.233500 10.751800 0
M  V30 25 H 4.646300 11.936600 10.220700 0
M  V30 26 H 11.925400 8.063900 7.103100 0
M  V30 27 H 13.740200 11.612200 6.772500 0
M  V30 28 H 7.665800 13.554500 9.941600 0
M  V30 29 H 8.518800 12.170600 10.096100 0
M  V30 30 H 5.302200 12.258500 7.657800 0
M  V30 31 H 6.369300 13.491900 7.576700 0
M  V30 32 H 5.553200 14.483800 9.418500 0
M  V30 33 H 4.200200 13.911500 8.705400 0
M  V30 34 H 10.348100 14.842100 7.083800 0
M  V30 35 H 9.830400 9.053600 7.453400 0
M  V30 36 H 8.397800 13.604000 7.632300 0
M  V30 37 H 12.427600 13.748100 6.832900 0
M  V30 38 H 5.265600 12.889300 12.391300 0
M  V30 END ATOM
M  V30 BEGIN BOND
M  V30 1 2 1 2
M  V30 2 2 1 3
M  V30 3 1 1 6
M  V30 4 1 1 18
M  V30 5 1 4 7
M  V30 6 1 4 8
M  V30 7 2 5 9
M  V30 8 1 5 10
M  V30 9 1 6 11
M  V30 10 1 6 12
M  V30 11 1 7 11
M  V30 12 1 8 13
M  V30 13 1 9 15
M  V30 14 2 10 19
M  V30 15 1 12 13
M  V30 16 1 14 16
M  V30 17 2 14 17
M  V30 18 2 15 20
M  V30 19 2 16 18
M  V30 20 1 17 19
M  V30 21 1 18 20
M  V30 22 1 19 20
M  V30 23 1 4 21
M  V30 24 1 7 22
M  V30 25 1 7 23
M  V30 26 1 8 24
M  V30 27 1 8 25
M  V30 28 1 9 26
M  V30 29 1 10 27
M  V30 30 1 11 28
M  V30 31 1 11 29
M  V30 32 1 12 30
M  V30 33 1 12 31
M  V30 34 1 13 32
M  V30 35 1 13 33
M  V30 36 1 14 34
M  V30 37 1 15 35
M  V30 38 1 16 36
M  V30 39 1 17 37
M  V30 40 1 4 38
M  V30 END BOND
M  V30 END CTAB
M  END
>  <Ligand_Instance>  (222) 
6I2C_M77_A_401

>  <Dataset>  (222) 
PDB

>  <PDB_ID>  (222) 
6I2C

>  <Chain>  (222) 
A

>  <Resi>  (222) 
401

>  <Num_Resolved_Atoms>  (222) 
20

>  <Num_H_Atoms_ProtBoundConf>  (222) 
18

>  <Pocket>  (222) 
A

>  <Name>  (222) 
5-(1,4-DIAZEPAN-1-SULFONYL)ISOQUINOLINE

>  <Num_Not_Resolved_Atoms>  (222) 
0

>  <ATP_Site>  (222) 
True

>  <Peripheral>  (222) 
False

>  <Standardized_SMILES>  (222) 
[H]C1=NC([H])=C2C([H])=C([H])C([H])=C(S(=O)(=O)N3C([H])([H])C([H])([H])C([H])([H])[N+]([H])([H])C([H])([H])C3([H])[H])C2=C1[H]

>  <2D_Mol_H>  (222) 
<rdkit.Chem.rdchem.Mol object at 0x77059d81e420>

>  <MW>  (222) 
292.384

>  <HBA>  (222) 
3

>  <HBD>  (222) 
1

>  <LogP>  (222) 
0.1926

>  <NRB>  (222) 
2

>  <TPSA>  (222) 
66.88

>  <Num_Heavy_Atoms>  (222) 
20

>  <Ro5>  (222) 
[True, True, True, True, True, True]

>  <Ro5_Fulfilled>  (222) 
True

>  <Ro3>  (222) 
[True, True, True, True]

>  <Ro3_Fulfilled>  (222) 
True

>  <Fsp3>  (222) 
0.357143

>  <Fsp3_0.42>  (222) 
False

>  <Fsp3_0.45>  (222) 
False

>  <Stereogenic_Carbons>  (222) 
0

>  <C_Atoms>  (222) 
14

>  <FCStereo>  (222) 
0.0

>  <SPS>  (222) 
360

>  <nSPS>  (222) 
18.0

>  <PBF>  (222) 
0.897534

>  <PBF_0.6>  (222) 
True

>  <nPBF>  (222) 
0.044877

>  <nPBF_0.016>  (222) 
True

>  <PMI1>  (222) 
692.558857

>  <PMI2>  (222) 
2623.477276

>  <PMI3>  (222) 
2805.44898

>  <NPR1>  (222) 
0.246862

>  <NPR2>  (222) 
0.935136

>  <Sum_NPR>  (222) 
1.181998

>  <Sum_NPR_1.07>  (222) 
True

>  <Sum_NPR_1.2>  (222) 
False

>  <MaxAbsEStateIndex>  (222) 
12.845614

>  <MaxEStateIndex>  (222) 
12.845614

>  <MinAbsEStateIndex>  (222) 
0.388241

>  <MinEStateIndex>  (222) 
-3.426412

>  <qed>  (222) 
0.859215

>  <MolWt>  (222) 
292.384

>  <HeavyAtomMolWt>  (222) 
274.24

>  <ExactMolWt>  (222) 
292.111424

>  <NumValenceElectrons>  (222) 
106

>  <NumRadicalElectrons>  (222) 
0

>  <MaxPartialCharge>  (222) 
0.243397

>  <MinPartialCharge>  (222) 
-0.345118

>  <MaxAbsPartialCharge>  (222) 
0.345118

>  <MinAbsPartialCharge>  (222) 
0.243397

>  <FpDensityMorgan1>  (222) 
1.15

>  <FpDensityMorgan2>  (222) 
2.05

>  <FpDensityMorgan3>  (222) 
2.95

>  <BCUT2D_MWHI>  (222) 
32.233427

>  <BCUT2D_MWLOW>  (222) 
10.168311

>  <BCUT2D_CHGHI>  (222) 
2.268872

>  <BCUT2D_CHGLO>  (222) 
-2.192579

>  <BCUT2D_LOGPHI>  (222) 
2.246607

>  <BCUT2D_LOGPLOW>  (222) 
-2.843702

>  <BCUT2D_MRHI>  (222) 
7.889641

>  <BCUT2D_MRLOW>  (222) 
-0.650697

>  <AvgIpc>  (222) 
2.759566

>  <BalabanJ>  (222) 
2.085841

>  <BertzCT>  (222) 
701.935726

>  <Chi0>  (222) 
14.001789

>  <Chi0n>  (222) 
11.196158

>  <Chi0v>  (222) 
12.012654

>  <Chi1>  (222) 
9.693507

>  <Chi1n>  (222) 
6.840082

>  <Chi1v>  (222) 
8.280145

>  <Chi2n>  (222) 
4.976624

>  <Chi2v>  (222) 
6.882981

>  <Chi3n>  (222) 
3.656948

>  <Chi3v>  (222) 
5.613741

>  <Chi4n>  (222) 
2.60061

>  <Chi4v>  (222) 
4.308342

>  <HallKierAlpha>  (222) 
-1.5

>  <Ipc>  (222) 
56228.921022

>  <Kappa1>  (222) 
13.481559

>  <Kappa2>  (222) 
5.47472

>  <Kappa3>  (222) 
2.416781

>  <LabuteASA>  (222) 
118.222067

>  <PEOE_VSA1>  (222) 
5.316789

>  <PEOE_VSA10>  (222) 
0.0

>  <PEOE_VSA11>  (222) 
0.0

>  <PEOE_VSA12>  (222) 
10.023291

>  <PEOE_VSA13>  (222) 
0.0

>  <PEOE_VSA14>  (222) 
0.0

>  <PEOE_VSA2>  (222) 
4.983979

>  <PEOE_VSA3>  (222) 
8.417797

>  <PEOE_VSA4>  (222) 
4.305216

>  <PEOE_VSA5>  (222) 
0.0

>  <PEOE_VSA6>  (222) 
12.132734

>  <PEOE_VSA7>  (222) 
12.132734

>  <PEOE_VSA8>  (222) 
36.131714

>  <PEOE_VSA9>  (222) 
24.529753

>  <SMR_VSA1>  (222) 
13.734586

>  <SMR_VSA10>  (222) 
20.79574

>  <SMR_VSA2>  (222) 
0.0

>  <SMR_VSA3>  (222) 
9.289195

>  <SMR_VSA4>  (222) 
0.0

>  <SMR_VSA5>  (222) 
11.316305

>  <SMR_VSA6>  (222) 
26.179026

>  <SMR_VSA7>  (222) 
36.659155

>  <SMR_VSA8>  (222) 
0.0

>  <SMR_VSA9>  (222) 
0.0

>  <SlogP_VSA1>  (222) 
5.316789

>  <SlogP_VSA10>  (222) 
0.0

>  <SlogP_VSA11>  (222) 
0.0

>  <SlogP_VSA12>  (222) 
0.0

>  <SlogP_VSA2>  (222) 
43.886017

>  <SlogP_VSA3>  (222) 
10.023291

>  <SlogP_VSA4>  (222) 
0.0

>  <SlogP_VSA5>  (222) 
6.420822

>  <SlogP_VSA6>  (222) 
41.554639

>  <SlogP_VSA7>  (222) 
0.0

>  <SlogP_VSA8>  (222) 
10.772448

>  <SlogP_VSA9>  (222) 
0.0

>  <EState_VSA1>  (222) 
10.023291

>  <EState_VSA10>  (222) 
8.417797

>  <EState_VSA11>  (222) 
0.0

>  <EState_VSA2>  (222) 
0.0

>  <EState_VSA3>  (222) 
17.984996

>  <EState_VSA4>  (222) 
30.282783

>  <EState_VSA5>  (222) 
0.0

>  <EState_VSA6>  (222) 
34.898004

>  <EState_VSA7>  (222) 
6.066367

>  <EState_VSA8>  (222) 
10.300767

>  <EState_VSA9>  (222) 
0.0

>  <VSA_EState1>  (222) 
27.294107

>  <VSA_EState10>  (222) 
0.0

>  <VSA_EState2>  (222) 
4.43837

>  <VSA_EState3>  (222) 
3.771674

>  <VSA_EState4>  (222) 
0.0

>  <VSA_EState5>  (222) 
0.0

>  <VSA_EState6>  (222) 
7.121861

>  <VSA_EState7>  (222) 
4.229827

>  <VSA_EState8>  (222) 
2.98724

>  <VSA_EState9>  (222) 
-3.426412

>  <FractionCSP3>  (222) 
0.357143

>  <HeavyAtomCount>  (222) 
20

>  <NHOHCount>  (222) 
2

>  <NOCount>  (222) 
5

>  <NumAliphaticCarbocycles>  (222) 
0

>  <NumAliphaticHeterocycles>  (222) 
1

>  <NumAliphaticRings>  (222) 
1

>  <NumAromaticCarbocycles>  (222) 
1

>  <NumAromaticHeterocycles>  (222) 
1

>  <NumAromaticRings>  (222) 
2

>  <NumHAcceptors>  (222) 
3

>  <NumHDonors>  (222) 
1

>  <NumHeteroatoms>  (222) 
6

>  <NumRotatableBonds>  (222) 
2

>  <NumSaturatedCarbocycles>  (222) 
0

>  <NumSaturatedHeterocycles>  (222) 
1

>  <NumSaturatedRings>  (222) 
1

>  <RingCount>  (222) 
3

>  <MolLogP>  (222) 
0.1926

>  <MolMR>  (222) 
76.7782

>  <fr_Al_COO>  (222) 
0

>  <fr_Al_OH>  (222) 
0

>  <fr_Al_OH_noTert>  (222) 
0

>  <fr_ArN>  (222) 
0

>  <fr_Ar_COO>  (222) 
0

>  <fr_Ar_N>  (222) 
1

>  <fr_Ar_NH>  (222) 
0

>  <fr_Ar_OH>  (222) 
0

>  <fr_COO>  (222) 
0

>  <fr_COO2>  (222) 
0

>  <fr_C_O>  (222) 
0

>  <fr_C_O_noCOO>  (222) 
0

>  <fr_C_S>  (222) 
0

>  <fr_HOCCN>  (222) 
0

>  <fr_Imine>  (222) 
0

>  <fr_NH0>  (222) 
2

>  <fr_NH1>  (222) 
0

>  <fr_NH2>  (222) 
1

>  <fr_N_O>  (222) 
0

>  <fr_Ndealkylation1>  (222) 
0

>  <fr_Ndealkylation2>  (222) 
0

>  <fr_Nhpyrrole>  (222) 
0

>  <fr_SH>  (222) 
0

>  <fr_aldehyde>  (222) 
0

>  <fr_alkyl_carbamate>  (222) 
0

>  <fr_alkyl_halide>  (222) 
0

>  <fr_allylic_oxid>  (222) 
0

>  <fr_amide>  (222) 
0

>  <fr_amidine>  (222) 
0

>  <fr_aniline>  (222) 
0

>  <fr_aryl_methyl>  (222) 
0

>  <fr_azide>  (222) 
0

>  <fr_azo>  (222) 
0

>  <fr_barbitur>  (222) 
0

>  <fr_benzene>  (222) 
1

>  <fr_benzodiazepine>  (222) 
0

>  <fr_bicyclic>  (222) 
1

>  <fr_diazo>  (222) 
0

>  <fr_dihydropyridine>  (222) 
0

>  <fr_epoxide>  (222) 
0

>  <fr_ester>  (222) 
0

>  <fr_ether>  (222) 
0

>  <fr_furan>  (222) 
0

>  <fr_guanido>  (222) 
0

>  <fr_halogen>  (222) 
0

>  <fr_hdrzine>  (222) 
0

>  <fr_hdrzone>  (222) 
0

>  <fr_imidazole>  (222) 
0

>  <fr_imide>  (222) 
0

>  <fr_isocyan>  (222) 
0

>  <fr_isothiocyan>  (222) 
0

>  <fr_ketone>  (222) 
0

>  <fr_ketone_Topliss>  (222) 
0

>  <fr_lactam>  (222) 
0

>  <fr_lactone>  (222) 
0

>  <fr_methoxy>  (222) 
0

>  <fr_morpholine>  (222) 
0

>  <fr_nitrile>  (222) 
0

>  <fr_nitro>  (222) 
0

>  <fr_nitro_arom>  (222) 
0

>  <fr_nitro_arom_nonortho>  (222) 
0

>  <fr_nitroso>  (222) 
0

>  <fr_oxazole>  (222) 
0

>  <fr_oxime>  (222) 
0

>  <fr_para_hydroxylation>  (222) 
0

>  <fr_phenol>  (222) 
0

>  <fr_phenol_noOrthoHbond>  (222) 
0

>  <fr_phos_acid>  (222) 
0

>  <fr_phos_ester>  (222) 
0

>  <fr_piperdine>  (222) 
0

>  <fr_piperzine>  (222) 
0

>  <fr_priamide>  (222) 
0

>  <fr_prisulfonamd>  (222) 
0

>  <fr_pyridine>  (222) 
1

>  <fr_quatN>  (222) 
1

>  <fr_sulfide>  (222) 
0

>  <fr_sulfonamd>  (222) 
1

>  <fr_sulfone>  (222) 
0

>  <fr_term_acetylene>  (222) 
0

>  <fr_tetrazole>  (222) 
0

>  <fr_thiazole>  (222) 
0

>  <fr_thiocyan>  (222) 
0

>  <fr_thiophene>  (222) 
0

>  <fr_unbrch_alkane>  (222) 
0

>  <fr_urea>  (222) 
0

>  <NP_Likeness>  (222) 
-1.563087

$$$$
M77
     RDKit          3D

  0  0  0  0  0  0  0  0  0  0999 V3000
M  V30 BEGIN CTAB
M  V30 COUNTS 38 40 0 0 0
M  V30 BEGIN ATOM
M  V30 1 S -13.057000 -26.561000 26.622000 0
M  V30 2 O -12.530000 -27.521000 25.702000 0
M  V30 3 O -13.712000 -26.998000 27.814000 0
M  V30 4 N -8.757000 -24.720000 27.543000 0 CHG=1
M  V30 5 N -17.007000 -26.939000 22.937000 0
M  V30 6 N -11.807000 -25.626000 27.082000 0
M  V30 7 C -9.693000 -24.460000 26.411000 0
M  V30 8 C -9.364000 -24.441000 28.878000 0
M  V30 9 C -16.279000 -27.793000 23.668000 0
M  V30 10 C -16.827000 -25.642000 23.147000 0
M  V30 11 C -10.639000 -25.610000 26.178000 0
M  V30 12 C -11.784000 -25.074000 28.451000 0
M  V30 13 C -10.522000 -25.389000 29.228000 0
M  V30 14 C -14.805000 -23.271000 25.194000 0
M  V30 15 C -15.359000 -27.414000 24.596000 0
M  V30 16 C -14.008000 -24.158000 25.898000 0
M  V30 17 C -15.732000 -23.722000 24.304000 0
M  V30 18 C -14.159000 -25.508000 25.727000 0
M  V30 19 C -15.916000 -25.110000 24.088000 0
M  V30 20 C -15.136000 -26.036000 24.828000 0
M  V30 21 H -7.952000 -24.137400 27.431000 0
M  V30 22 H -9.158500 -24.309300 25.579400 0
M  V30 23 H -10.227400 -23.640200 26.616900 0
M  V30 24 H -9.710000 -23.502800 28.879800 0
M  V30 25 H -8.654000 -24.535700 29.575800 0
M  V30 26 H -16.420700 -28.772100 23.522400 0
M  V30 27 H -17.369800 -24.999900 22.605600 0
M  V30 28 H -10.971800 -25.556500 25.236500 0
M  V30 29 H -10.132800 -26.463100 26.304600 0
M  V30 30 H -12.563100 -25.449100 28.953300 0
M  V30 31 H -11.874300 -24.080000 28.389600 0
M  V30 32 H -10.718400 -25.308400 30.205200 0
M  V30 33 H -10.243000 -26.326600 29.020300 0
M  V30 34 H -14.698600 -22.287600 25.340900 0
M  V30 35 H -14.845700 -28.102200 25.108800 0
M  V30 36 H -13.319000 -23.810900 26.534200 0
M  V30 37 H -16.289800 -23.065200 23.796600 0
M  V30 38 H -8.480100 -25.680500 27.513300 0
M  V30 END ATOM
M  V30 BEGIN BOND
M  V30 1 2 1 2
M  V30 2 2 1 3
M  V30 3 1 1 6
M  V30 4 1 1 18
M  V30 5 1 4 7
M  V30 6 1 4 8
M  V30 7 2 5 9
M  V30 8 1 5 10
M  V30 9 1 6 11
M  V30 10 1 6 12
M  V30 11 1 7 11
M  V30 12 1 8 13
M  V30 13 1 9 15
M  V30 14 2 10 19
M  V30 15 1 12 13
M  V30 16 1 14 16
M  V30 17 2 14 17
M  V30 18 2 15 20
M  V30 19 2 16 18
M  V30 20 1 17 19
M  V30 21 1 18 20
M  V30 22 1 19 20
M  V30 23 1 4 21
M  V30 24 1 7 22
M  V30 25 1 7 23
M  V30 26 1 8 24
M  V30 27 1 8 25
M  V30 28 1 9 26
M  V30 29 1 10 27
M  V30 30 1 11 28
M  V30 31 1 11 29
M  V30 32 1 12 30
M  V30 33 1 12 31
M  V30 34 1 13 32
M  V30 35 1 13 33
M  V30 36 1 14 34
M  V30 37 1 15 35
M  V30 38 1 16 36
M  V30 39 1 17 37
M  V30 40 1 4 38
M  V30 END BOND
M  V30 END CTAB
M  END
>  <Ligand_Instance>  (223) 
6YNA_M77_A_402

>  <Dataset>  (223) 
PDB

>  <PDB_ID>  (223) 
6YNA

>  <Chain>  (223) 
A

>  <Resi>  (223) 
402

>  <Num_Resolved_Atoms>  (223) 
20

>  <Num_H_Atoms_ProtBoundConf>  (223) 
18

>  <Pocket>  (223) 
A

>  <Name>  (223) 
5-(1,4-DIAZEPAN-1-SULFONYL)ISOQUINOLINE

>  <Num_Not_Resolved_Atoms>  (223) 
0

>  <ATP_Site>  (223) 
True

>  <Peripheral>  (223) 
False

>  <Standardized_SMILES>  (223) 
[H]C1=NC([H])=C2C([H])=C([H])C([H])=C(S(=O)(=O)N3C([H])([H])C([H])([H])C([H])([H])[N+]([H])([H])C([H])([H])C3([H])[H])C2=C1[H]

>  <2D_Mol_H>  (223) 
<rdkit.Chem.rdchem.Mol object at 0x77059d81e500>

>  <MW>  (223) 
292.384

>  <HBA>  (223) 
3

>  <HBD>  (223) 
1

>  <LogP>  (223) 
0.1926

>  <NRB>  (223) 
2

>  <TPSA>  (223) 
66.88

>  <Num_Heavy_Atoms>  (223) 
20

>  <Ro5>  (223) 
[True, True, True, True, True, True]

>  <Ro5_Fulfilled>  (223) 
True

>  <Ro3>  (223) 
[True, True, True, True]

>  <Ro3_Fulfilled>  (223) 
True

>  <Fsp3>  (223) 
0.357143

>  <Fsp3_0.42>  (223) 
False

>  <Fsp3_0.45>  (223) 
False

>  <Stereogenic_Carbons>  (223) 
0

>  <C_Atoms>  (223) 
14

>  <FCStereo>  (223) 
0.0

>  <SPS>  (223) 
360

>  <nSPS>  (223) 
18.0

>  <PBF>  (223) 
0.84138

>  <PBF_0.6>  (223) 
True

>  <nPBF>  (223) 
0.042069

>  <nPBF_0.016>  (223) 
True

>  <PMI1>  (223) 
647.449473

>  <PMI2>  (223) 
2770.435229

>  <PMI3>  (223) 
3007.121469

>  <NPR1>  (223) 
0.215305

>  <NPR2>  (223) 
0.921291

>  <Sum_NPR>  (223) 
1.136597

>  <Sum_NPR_1.07>  (223) 
True

>  <Sum_NPR_1.2>  (223) 
False

>  <MaxAbsEStateIndex>  (223) 
12.845614

>  <MaxEStateIndex>  (223) 
12.845614

>  <MinAbsEStateIndex>  (223) 
0.388241

>  <MinEStateIndex>  (223) 
-3.426412

>  <qed>  (223) 
0.859215

>  <MolWt>  (223) 
292.384

>  <HeavyAtomMolWt>  (223) 
274.24

>  <ExactMolWt>  (223) 
292.111424

>  <NumValenceElectrons>  (223) 
106

>  <NumRadicalElectrons>  (223) 
0

>  <MaxPartialCharge>  (223) 
0.243397

>  <MinPartialCharge>  (223) 
-0.345118

>  <MaxAbsPartialCharge>  (223) 
0.345118

>  <MinAbsPartialCharge>  (223) 
0.243397

>  <FpDensityMorgan1>  (223) 
1.15

>  <FpDensityMorgan2>  (223) 
2.05

>  <FpDensityMorgan3>  (223) 
2.95

>  <BCUT2D_MWHI>  (223) 
32.233427

>  <BCUT2D_MWLOW>  (223) 
10.168311

>  <BCUT2D_CHGHI>  (223) 
2.268872

>  <BCUT2D_CHGLO>  (223) 
-2.192579

>  <BCUT2D_LOGPHI>  (223) 
2.246607

>  <BCUT2D_LOGPLOW>  (223) 
-2.843702

>  <BCUT2D_MRHI>  (223) 
7.889641

>  <BCUT2D_MRLOW>  (223) 
-0.650697

>  <AvgIpc>  (223) 
2.759566

>  <BalabanJ>  (223) 
2.085841

>  <BertzCT>  (223) 
701.935726

>  <Chi0>  (223) 
14.001789

>  <Chi0n>  (223) 
11.196158

>  <Chi0v>  (223) 
12.012654

>  <Chi1>  (223) 
9.693507

>  <Chi1n>  (223) 
6.840082

>  <Chi1v>  (223) 
8.280145

>  <Chi2n>  (223) 
4.976624

>  <Chi2v>  (223) 
6.882981

>  <Chi3n>  (223) 
3.656948

>  <Chi3v>  (223) 
5.613741

>  <Chi4n>  (223) 
2.60061

>  <Chi4v>  (223) 
4.308342

>  <HallKierAlpha>  (223) 
-1.5

>  <Ipc>  (223) 
56228.921022

>  <Kappa1>  (223) 
13.481559

>  <Kappa2>  (223) 
5.47472

>  <Kappa3>  (223) 
2.416781

>  <LabuteASA>  (223) 
118.222067

>  <PEOE_VSA1>  (223) 
5.316789

>  <PEOE_VSA10>  (223) 
0.0

>  <PEOE_VSA11>  (223) 
0.0

>  <PEOE_VSA12>  (223) 
10.023291

>  <PEOE_VSA13>  (223) 
0.0

>  <PEOE_VSA14>  (223) 
0.0

>  <PEOE_VSA2>  (223) 
4.983979

>  <PEOE_VSA3>  (223) 
8.417797

>  <PEOE_VSA4>  (223) 
4.305216

>  <PEOE_VSA5>  (223) 
0.0

>  <PEOE_VSA6>  (223) 
12.132734

>  <PEOE_VSA7>  (223) 
12.132734

>  <PEOE_VSA8>  (223) 
36.131714

>  <PEOE_VSA9>  (223) 
24.529753

>  <SMR_VSA1>  (223) 
13.734586

>  <SMR_VSA10>  (223) 
20.79574

>  <SMR_VSA2>  (223) 
0.0

>  <SMR_VSA3>  (223) 
9.289195

>  <SMR_VSA4>  (223) 
0.0

>  <SMR_VSA5>  (223) 
11.316305

>  <SMR_VSA6>  (223) 
26.179026

>  <SMR_VSA7>  (223) 
36.659155

>  <SMR_VSA8>  (223) 
0.0

>  <SMR_VSA9>  (223) 
0.0

>  <SlogP_VSA1>  (223) 
5.316789

>  <SlogP_VSA10>  (223) 
0.0

>  <SlogP_VSA11>  (223) 
0.0

>  <SlogP_VSA12>  (223) 
0.0

>  <SlogP_VSA2>  (223) 
43.886017

>  <SlogP_VSA3>  (223) 
10.023291

>  <SlogP_VSA4>  (223) 
0.0

>  <SlogP_VSA5>  (223) 
6.420822

>  <SlogP_VSA6>  (223) 
41.554639

>  <SlogP_VSA7>  (223) 
0.0

>  <SlogP_VSA8>  (223) 
10.772448

>  <SlogP_VSA9>  (223) 
0.0

>  <EState_VSA1>  (223) 
10.023291

>  <EState_VSA10>  (223) 
8.417797

>  <EState_VSA11>  (223) 
0.0

>  <EState_VSA2>  (223) 
0.0

>  <EState_VSA3>  (223) 
17.984996

>  <EState_VSA4>  (223) 
30.282783

>  <EState_VSA5>  (223) 
0.0

>  <EState_VSA6>  (223) 
34.898004

>  <EState_VSA7>  (223) 
6.066367

>  <EState_VSA8>  (223) 
10.300767

>  <EState_VSA9>  (223) 
0.0

>  <VSA_EState1>  (223) 
27.294107

>  <VSA_EState10>  (223) 
0.0

>  <VSA_EState2>  (223) 
4.43837

>  <VSA_EState3>  (223) 
3.771674

>  <VSA_EState4>  (223) 
0.0

>  <VSA_EState5>  (223) 
0.0

>  <VSA_EState6>  (223) 
7.121861

>  <VSA_EState7>  (223) 
4.229827

>  <VSA_EState8>  (223) 
2.98724

>  <VSA_EState9>  (223) 
-3.426412

>  <FractionCSP3>  (223) 
0.357143

>  <HeavyAtomCount>  (223) 
20

>  <NHOHCount>  (223) 
2

>  <NOCount>  (223) 
5

>  <NumAliphaticCarbocycles>  (223) 
0

>  <NumAliphaticHeterocycles>  (223) 
1

>  <NumAliphaticRings>  (223) 
1

>  <NumAromaticCarbocycles>  (223) 
1

>  <NumAromaticHeterocycles>  (223) 
1

>  <NumAromaticRings>  (223) 
2

>  <NumHAcceptors>  (223) 
3

>  <NumHDonors>  (223) 
1

>  <NumHeteroatoms>  (223) 
6

>  <NumRotatableBonds>  (223) 
2

>  <NumSaturatedCarbocycles>  (223) 
0

>  <NumSaturatedHeterocycles>  (223) 
1

>  <NumSaturatedRings>  (223) 
1

>  <RingCount>  (223) 
3

>  <MolLogP>  (223) 
0.1926

>  <MolMR>  (223) 
76.7782

>  <fr_Al_COO>  (223) 
0

>  <fr_Al_OH>  (223) 
0

>  <fr_Al_OH_noTert>  (223) 
0

>  <fr_ArN>  (223) 
0

>  <fr_Ar_COO>  (223) 
0

>  <fr_Ar_N>  (223) 
1

>  <fr_Ar_NH>  (223) 
0

>  <fr_Ar_OH>  (223) 
0

>  <fr_COO>  (223) 
0

>  <fr_COO2>  (223) 
0

>  <fr_C_O>  (223) 
0

>  <fr_C_O_noCOO>  (223) 
0

>  <fr_C_S>  (223) 
0

>  <fr_HOCCN>  (223) 
0

>  <fr_Imine>  (223) 
0

>  <fr_NH0>  (223) 
2

>  <fr_NH1>  (223) 
0

>  <fr_NH2>  (223) 
1

>  <fr_N_O>  (223) 
0

>  <fr_Ndealkylation1>  (223) 
0

>  <fr_Ndealkylation2>  (223) 
0

>  <fr_Nhpyrrole>  (223) 
0

>  <fr_SH>  (223) 
0

>  <fr_aldehyde>  (223) 
0

>  <fr_alkyl_carbamate>  (223) 
0

>  <fr_alkyl_halide>  (223) 
0

>  <fr_allylic_oxid>  (223) 
0

>  <fr_amide>  (223) 
0

>  <fr_amidine>  (223) 
0

>  <fr_aniline>  (223) 
0

>  <fr_aryl_methyl>  (223) 
0

>  <fr_azide>  (223) 
0

>  <fr_azo>  (223) 
0

>  <fr_barbitur>  (223) 
0

>  <fr_benzene>  (223) 
1

>  <fr_benzodiazepine>  (223) 
0

>  <fr_bicyclic>  (223) 
1

>  <fr_diazo>  (223) 
0

>  <fr_dihydropyridine>  (223) 
0

>  <fr_epoxide>  (223) 
0

>  <fr_ester>  (223) 
0

>  <fr_ether>  (223) 
0

>  <fr_furan>  (223) 
0

>  <fr_guanido>  (223) 
0

>  <fr_halogen>  (223) 
0

>  <fr_hdrzine>  (223) 
0

>  <fr_hdrzone>  (223) 
0

>  <fr_imidazole>  (223) 
0

>  <fr_imide>  (223) 
0

>  <fr_isocyan>  (223) 
0

>  <fr_isothiocyan>  (223) 
0

>  <fr_ketone>  (223) 
0

>  <fr_ketone_Topliss>  (223) 
0

>  <fr_lactam>  (223) 
0

>  <fr_lactone>  (223) 
0

>  <fr_methoxy>  (223) 
0

>  <fr_morpholine>  (223) 
0

>  <fr_nitrile>  (223) 
0

>  <fr_nitro>  (223) 
0

>  <fr_nitro_arom>  (223) 
0

>  <fr_nitro_arom_nonortho>  (223) 
0

>  <fr_nitroso>  (223) 
0

>  <fr_oxazole>  (223) 
0

>  <fr_oxime>  (223) 
0

>  <fr_para_hydroxylation>  (223) 
0

>  <fr_phenol>  (223) 
0

>  <fr_phenol_noOrthoHbond>  (223) 
0

>  <fr_phos_acid>  (223) 
0

>  <fr_phos_ester>  (223) 
0

>  <fr_piperdine>  (223) 
0

>  <fr_piperzine>  (223) 
0

>  <fr_priamide>  (223) 
0

>  <fr_prisulfonamd>  (223) 
0

>  <fr_pyridine>  (223) 
1

>  <fr_quatN>  (223) 
1

>  <fr_sulfide>  (223) 
0

>  <fr_sulfonamd>  (223) 
1

>  <fr_sulfone>  (223) 
0

>  <fr_term_acetylene>  (223) 
0

>  <fr_tetrazole>  (223) 
0

>  <fr_thiazole>  (223) 
0

>  <fr_thiocyan>  (223) 
0

>  <fr_thiophene>  (223) 
0

>  <fr_unbrch_alkane>  (223) 
0

>  <fr_urea>  (223) 
0

>  <NP_Likeness>  (223) 
-1.563087

$$$$
NCA
     RDKit          3D

  0  0  0  0  0  0  0  0  0  0999 V3000
M  V30 BEGIN CTAB
M  V30 COUNTS 15 15 0 0 0
M  V30 BEGIN ATOM
M  V30 1 O -11.922000 5.934000 -29.410000 0
M  V30 2 N -9.853000 6.430000 -28.676000 0
M  V30 3 N -9.036000 2.314000 -28.254000 0
M  V30 4 C -10.014000 1.444000 -28.531000 0
M  V30 5 C -11.259000 1.825000 -28.996000 0
M  V30 6 C -9.304000 3.616000 -28.426000 0
M  V30 7 C -11.512000 3.173000 -29.154000 0
M  V30 8 C -10.811000 5.569000 -29.010000 0
M  V30 9 C -10.523000 4.098000 -28.865000 0
M  V30 10 H -8.967200 6.093300 -28.356700 0
M  V30 11 H -10.018800 7.413800 -28.744300 0
M  V30 12 H -9.835500 0.469500 -28.394900 0
M  V30 13 H -11.957400 1.142700 -29.212100 0
M  V30 14 H -8.580600 4.276600 -28.225200 0
M  V30 15 H -12.407300 3.480600 -29.476300 0
M  V30 END ATOM
M  V30 BEGIN BOND
M  V30 1 2 1 8
M  V30 2 1 2 8
M  V30 3 2 3 4
M  V30 4 1 3 6
M  V30 5 1 4 5
M  V30 6 2 5 7
M  V30 7 2 6 9
M  V30 8 1 7 9
M  V30 9 1 8 9
M  V30 10 1 2 10
M  V30 11 1 2 11
M  V30 12 1 4 12
M  V30 13 1 5 13
M  V30 14 1 6 14
M  V30 15 1 7 15
M  V30 END BOND
M  V30 END CTAB
M  END
>  <Ligand_Instance>  (224) 
5N3H_NCA_A_401

>  <Dataset>  (224) 
PDB

>  <PDB_ID>  (224) 
5N3H

>  <Chain>  (224) 
A

>  <Resi>  (224) 
401

>  <Num_Resolved_Atoms>  (224) 
9

>  <Num_H_Atoms_ProtBoundConf>  (224) 
6

>  <Pocket>  (224) 
A

>  <Name>  (224) 
NICOTINAMIDE

>  <Num_Not_Resolved_Atoms>  (224) 
0

>  <ATP_Site>  (224) 
True

>  <Peripheral>  (224) 
False

>  <Standardized_SMILES>  (224) 
[H]C1=NC([H])=C(C(=O)N([H])[H])C([H])=C1[H]

>  <2D_Mol_H>  (224) 
<rdkit.Chem.rdchem.Mol object at 0x77059d81e5e0>

>  <MW>  (224) 
122.127

>  <HBA>  (224) 
2

>  <HBD>  (224) 
1

>  <LogP>  (224) 
0.1805

>  <NRB>  (224) 
1

>  <TPSA>  (224) 
55.98

>  <Num_Heavy_Atoms>  (224) 
9

>  <Ro5>  (224) 
[True, True, True, True, True, True]

>  <Ro5_Fulfilled>  (224) 
True

>  <Ro3>  (224) 
[True, True, True, True]

>  <Ro3_Fulfilled>  (224) 
True

>  <Fsp3>  (224) 
0.0

>  <Fsp3_0.42>  (224) 
False

>  <Fsp3_0.45>  (224) 
False

>  <Stereogenic_Carbons>  (224) 
0

>  <C_Atoms>  (224) 
6

>  <FCStereo>  (224) 
0.0

>  <SPS>  (224) 
80

>  <nSPS>  (224) 
8.888889

>  <PBF>  (224) 
0.021858

>  <PBF_0.6>  (224) 
False

>  <nPBF>  (224) 
0.002429

>  <nPBF_0.016>  (224) 
False

>  <PMI1>  (224) 
126.970782

>  <PMI2>  (224) 
404.564557

>  <PMI3>  (224) 
531.450648

>  <NPR1>  (224) 
0.238914

>  <NPR2>  (224) 
0.761246

>  <Sum_NPR>  (224) 
1.000159

>  <Sum_NPR_1.07>  (224) 
False

>  <Sum_NPR_1.2>  (224) 
False

>  <MaxAbsEStateIndex>  (224) 
10.383148

>  <MaxEStateIndex>  (224) 
10.383148

>  <MinAbsEStateIndex>  (224) 
0.441574

>  <MinEStateIndex>  (224) 
-0.441574

>  <qed>  (224) 
0.577263

>  <MolWt>  (224) 
122.127

>  <HeavyAtomMolWt>  (224) 
116.079

>  <ExactMolWt>  (224) 
122.048013

>  <NumValenceElectrons>  (224) 
46

>  <NumRadicalElectrons>  (224) 
0

>  <MaxPartialCharge>  (224) 
0.249762

>  <MinPartialCharge>  (224) 
-0.365551

>  <MaxAbsPartialCharge>  (224) 
0.365551

>  <MinAbsPartialCharge>  (224) 
0.249762

>  <FpDensityMorgan1>  (224) 
1.666667

>  <FpDensityMorgan2>  (224) 
2.444444

>  <FpDensityMorgan3>  (224) 
2.777778

>  <BCUT2D_MWHI>  (224) 
16.146291

>  <BCUT2D_MWLOW>  (224) 
10.272057

>  <BCUT2D_CHGHI>  (224) 
1.943739

>  <BCUT2D_CHGLO>  (224) 
-1.882815

>  <BCUT2D_LOGPHI>  (224) 
1.907964

>  <BCUT2D_LOGPLOW>  (224) 
-2.099762

>  <BCUT2D_MRHI>  (224) 
5.91746

>  <BCUT2D_MRLOW>  (224) 
0.099973

>  <AvgIpc>  (224) 
1.900373

>  <BalabanJ>  (224) 
2.981455

>  <BertzCT>  (224) 
207.557662

>  <Chi0>  (224) 
6.690234

>  <Chi0n>  (224) 
4.742213

>  <Chi0v>  (224) 
4.742213

>  <Chi1>  (224) 
4.30453

>  <Chi1n>  (224) 
2.503214

>  <Chi1v>  (224) 
2.503214

>  <Chi2n>  (224) 
1.605951

>  <Chi2v>  (224) 
1.605951

>  <Chi3n>  (224) 
0.946055

>  <Chi3v>  (224) 
0.946055

>  <Chi4n>  (224) 
0.508512

>  <Chi4v>  (224) 
0.508512

>  <HallKierAlpha>  (224) 
-1.38

>  <Ipc>  (224) 
129.225339

>  <Kappa1>  (224) 
5.751234

>  <Kappa2>  (224) 
2.259334

>  <Kappa3>  (224) 
1.252832

>  <LabuteASA>  (224) 
52.517406

>  <PEOE_VSA1>  (224) 
5.733667

>  <PEOE_VSA10>  (224) 
0.0

>  <PEOE_VSA11>  (224) 
0.0

>  <PEOE_VSA12>  (224) 
5.90718

>  <PEOE_VSA13>  (224) 
0.0

>  <PEOE_VSA14>  (224) 
0.0

>  <PEOE_VSA2>  (224) 
9.778516

>  <PEOE_VSA3>  (224) 
0.0

>  <PEOE_VSA4>  (224) 
0.0

>  <PEOE_VSA5>  (224) 
0.0

>  <PEOE_VSA6>  (224) 
0.0

>  <PEOE_VSA7>  (224) 
12.132734

>  <PEOE_VSA8>  (224) 
12.393687

>  <PEOE_VSA9>  (224) 
5.563451

>  <SMR_VSA1>  (224) 
4.794537

>  <SMR_VSA10>  (224) 
5.90718

>  <SMR_VSA2>  (224) 
0.0

>  <SMR_VSA3>  (224) 
4.983979

>  <SMR_VSA4>  (224) 
5.733667

>  <SMR_VSA5>  (224) 
0.0

>  <SMR_VSA6>  (224) 
0.0

>  <SMR_VSA7>  (224) 
30.089873

>  <SMR_VSA8>  (224) 
0.0

>  <SMR_VSA9>  (224) 
0.0

>  <SlogP_VSA1>  (224) 
5.733667

>  <SlogP_VSA10>  (224) 
0.0

>  <SlogP_VSA11>  (224) 
0.0

>  <SlogP_VSA12>  (224) 
0.0

>  <SlogP_VSA2>  (224) 
10.891158

>  <SlogP_VSA3>  (224) 
0.0

>  <SlogP_VSA4>  (224) 
0.0

>  <SlogP_VSA5>  (224) 
10.357989

>  <SlogP_VSA6>  (224) 
24.526421

>  <SlogP_VSA7>  (224) 
0.0

>  <SlogP_VSA8>  (224) 
0.0

>  <SlogP_VSA9>  (224) 
0.0

>  <EState_VSA1>  (224) 
5.90718

>  <EState_VSA10>  (224) 
4.794537

>  <EState_VSA11>  (224) 
0.0

>  <EState_VSA2>  (224) 
0.0

>  <EState_VSA3>  (224) 
5.563451

>  <EState_VSA4>  (224) 
0.0

>  <EState_VSA5>  (224) 
6.196844

>  <EState_VSA6>  (224) 
18.329578

>  <EState_VSA7>  (224) 
0.0

>  <EState_VSA8>  (224) 
4.983979

>  <EState_VSA9>  (224) 
5.733667

>  <VSA_EState1>  (224) 
0.0

>  <VSA_EState10>  (224) 
0.0

>  <VSA_EState2>  (224) 
14.088241

>  <VSA_EState3>  (224) 
0.0

>  <VSA_EState4>  (224) 
5.376944

>  <VSA_EState5>  (224) 
-0.441574

>  <VSA_EState6>  (224) 
3.28713

>  <VSA_EState7>  (224) 
3.022593

>  <VSA_EState8>  (224) 
0.0

>  <VSA_EState9>  (224) 
0.0

>  <FractionCSP3>  (224) 
0.0

>  <HeavyAtomCount>  (224) 
9

>  <NHOHCount>  (224) 
2

>  <NOCount>  (224) 
3

>  <NumAliphaticCarbocycles>  (224) 
0

>  <NumAliphaticHeterocycles>  (224) 
0

>  <NumAliphaticRings>  (224) 
0

>  <NumAromaticCarbocycles>  (224) 
0

>  <NumAromaticHeterocycles>  (224) 
1

>  <NumAromaticRings>  (224) 
1

>  <NumHAcceptors>  (224) 
2

>  <NumHDonors>  (224) 
1

>  <NumHeteroatoms>  (224) 
3

>  <NumRotatableBonds>  (224) 
1

>  <NumSaturatedCarbocycles>  (224) 
0

>  <NumSaturatedHeterocycles>  (224) 
0

>  <NumSaturatedRings>  (224) 
0

>  <RingCount>  (224) 
1

>  <MolLogP>  (224) 
0.1805

>  <MolMR>  (224) 
32.7549

>  <fr_Al_COO>  (224) 
0

>  <fr_Al_OH>  (224) 
0

>  <fr_Al_OH_noTert>  (224) 
0

>  <fr_ArN>  (224) 
0

>  <fr_Ar_COO>  (224) 
0

>  <fr_Ar_N>  (224) 
1

>  <fr_Ar_NH>  (224) 
0

>  <fr_Ar_OH>  (224) 
0

>  <fr_COO>  (224) 
0

>  <fr_COO2>  (224) 
0

>  <fr_C_O>  (224) 
1

>  <fr_C_O_noCOO>  (224) 
1

>  <fr_C_S>  (224) 
0

>  <fr_HOCCN>  (224) 
0

>  <fr_Imine>  (224) 
0

>  <fr_NH0>  (224) 
1

>  <fr_NH1>  (224) 
0

>  <fr_NH2>  (224) 
1

>  <fr_N_O>  (224) 
0

>  <fr_Ndealkylation1>  (224) 
0

>  <fr_Ndealkylation2>  (224) 
0

>  <fr_Nhpyrrole>  (224) 
0

>  <fr_SH>  (224) 
0

>  <fr_aldehyde>  (224) 
0

>  <fr_alkyl_carbamate>  (224) 
0

>  <fr_alkyl_halide>  (224) 
0

>  <fr_allylic_oxid>  (224) 
0

>  <fr_amide>  (224) 
1

>  <fr_amidine>  (224) 
0

>  <fr_aniline>  (224) 
0

>  <fr_aryl_methyl>  (224) 
0

>  <fr_azide>  (224) 
0

>  <fr_azo>  (224) 
0

>  <fr_barbitur>  (224) 
0

>  <fr_benzene>  (224) 
0

>  <fr_benzodiazepine>  (224) 
0

>  <fr_bicyclic>  (224) 
0

>  <fr_diazo>  (224) 
0

>  <fr_dihydropyridine>  (224) 
0

>  <fr_epoxide>  (224) 
0

>  <fr_ester>  (224) 
0

>  <fr_ether>  (224) 
0

>  <fr_furan>  (224) 
0

>  <fr_guanido>  (224) 
0

>  <fr_halogen>  (224) 
0

>  <fr_hdrzine>  (224) 
0

>  <fr_hdrzone>  (224) 
0

>  <fr_imidazole>  (224) 
0

>  <fr_imide>  (224) 
0

>  <fr_isocyan>  (224) 
0

>  <fr_isothiocyan>  (224) 
0

>  <fr_ketone>  (224) 
0

>  <fr_ketone_Topliss>  (224) 
0

>  <fr_lactam>  (224) 
0

>  <fr_lactone>  (224) 
0

>  <fr_methoxy>  (224) 
0

>  <fr_morpholine>  (224) 
0

>  <fr_nitrile>  (224) 
0

>  <fr_nitro>  (224) 
0

>  <fr_nitro_arom>  (224) 
0

>  <fr_nitro_arom_nonortho>  (224) 
0

>  <fr_nitroso>  (224) 
0

>  <fr_oxazole>  (224) 
0

>  <fr_oxime>  (224) 
0

>  <fr_para_hydroxylation>  (224) 
0

>  <fr_phenol>  (224) 
0

>  <fr_phenol_noOrthoHbond>  (224) 
0

>  <fr_phos_acid>  (224) 
0

>  <fr_phos_ester>  (224) 
0

>  <fr_piperdine>  (224) 
0

>  <fr_piperzine>  (224) 
0

>  <fr_priamide>  (224) 
1

>  <fr_prisulfonamd>  (224) 
0

>  <fr_pyridine>  (224) 
1

>  <fr_quatN>  (224) 
0

>  <fr_sulfide>  (224) 
0

>  <fr_sulfonamd>  (224) 
0

>  <fr_sulfone>  (224) 
0

>  <fr_term_acetylene>  (224) 
0

>  <fr_tetrazole>  (224) 
0

>  <fr_thiazole>  (224) 
0

>  <fr_thiocyan>  (224) 
0

>  <fr_thiophene>  (224) 
0

>  <fr_unbrch_alkane>  (224) 
0

>  <fr_urea>  (224) 
0

>  <NP_Likeness>  (224) 
-1.299059

$$$$
NPO
     RDKit          3D

  0  0  0  0  0  0  0  0  0  0999 V3000
M  V30 BEGIN CTAB
M  V30 COUNTS 15 15 0 0 0
M  V30 BEGIN ATOM
M  V30 1 O 9.982000 7.505000 18.328000 0
M  V30 2 O 12.100000 7.256000 17.783000 0 CHG=-1
M  V30 3 O 11.182000 1.798000 20.700000 0
M  V30 4 N 11.081000 6.838000 18.323000 0 CHG=1
M  V30 5 C 10.003000 3.791000 20.152000 0
M  V30 6 C 12.320000 3.557000 19.544000 0
M  V30 7 C 9.973000 5.040000 19.557000 0
M  V30 8 C 12.298000 4.811000 18.964000 0
M  V30 9 C 11.174000 3.044000 20.139000 0
M  V30 10 C 11.121000 5.534000 18.972000 0
M  V30 11 H 10.349500 1.431200 21.115200 0
M  V30 12 H 9.181900 3.426300 20.591200 0
M  V30 13 H 13.162100 3.017800 19.535500 0
M  V30 14 H 9.130000 5.577800 19.551000 0
M  V30 15 H 13.122800 5.189900 18.544300 0
M  V30 END ATOM
M  V30 BEGIN BOND
M  V30 1 2 1 4
M  V30 2 1 2 4
M  V30 3 1 3 9
M  V30 4 1 4 10
M  V30 5 2 5 7
M  V30 6 1 5 9
M  V30 7 1 6 8
M  V30 8 2 6 9
M  V30 9 1 7 10
M  V30 10 2 8 10
M  V30 11 1 3 11
M  V30 12 1 5 12
M  V30 13 1 6 13
M  V30 14 1 7 14
M  V30 15 1 8 15
M  V30 END BOND
M  V30 END CTAB
M  END
>  <Ligand_Instance>  (225) 
6Z08_NPO_A_401

>  <Dataset>  (225) 
PDB

>  <PDB_ID>  (225) 
6Z08

>  <Chain>  (225) 
A

>  <Resi>  (225) 
401

>  <Num_Resolved_Atoms>  (225) 
10

>  <Num_H_Atoms_ProtBoundConf>  (225) 
5

>  <Pocket>  (225) 
A

>  <Name>  (225) 
P-NITROPHENOL

>  <Num_Not_Resolved_Atoms>  (225) 
0

>  <ATP_Site>  (225) 
True

>  <Peripheral>  (225) 
False

>  <Standardized_SMILES>  (225) 
[H]OC1=C([H])C([H])=C([N+](=O)[O-])C([H])=C1[H]

>  <2D_Mol_H>  (225) 
<rdkit.Chem.rdchem.Mol object at 0x77059d81e6c0>

>  <MW>  (225) 
139.11

>  <HBA>  (225) 
3

>  <HBD>  (225) 
1

>  <LogP>  (225) 
1.3004

>  <NRB>  (225) 
2

>  <TPSA>  (225) 
63.37

>  <Num_Heavy_Atoms>  (225) 
10

>  <Ro5>  (225) 
[True, True, True, True, True, True]

>  <Ro5_Fulfilled>  (225) 
True

>  <Ro3>  (225) 
[True, True, True, True]

>  <Ro3_Fulfilled>  (225) 
True

>  <Fsp3>  (225) 
0.0

>  <Fsp3_0.42>  (225) 
False

>  <Fsp3_0.45>  (225) 
False

>  <Stereogenic_Carbons>  (225) 
0

>  <C_Atoms>  (225) 
6

>  <FCStereo>  (225) 
0.0

>  <SPS>  (225) 
92

>  <nSPS>  (225) 
9.2

>  <PBF>  (225) 
0.019254

>  <PBF_0.6>  (225) 
False

>  <nPBF>  (225) 
0.001925

>  <nPBF_0.016>  (225) 
False

>  <PMI1>  (225) 
126.508965

>  <PMI2>  (225) 
619.041106

>  <PMI3>  (225) 
745.442675

>  <NPR1>  (225) 
0.16971

>  <NPR2>  (225) 
0.830434

>  <Sum_NPR>  (225) 
1.000144

>  <Sum_NPR_1.07>  (225) 
False

>  <Sum_NPR_1.2>  (225) 
False

>  <MaxAbsEStateIndex>  (225) 
10.036149

>  <MaxEStateIndex>  (225) 
10.036149

>  <MinAbsEStateIndex>  (225) 
0.015926

>  <MinEStateIndex>  (225) 
-0.514444

>  <qed>  (225) 
0.470728

>  <MolWt>  (225) 
139.11

>  <HeavyAtomMolWt>  (225) 
134.07

>  <ExactMolWt>  (225) 
139.026943

>  <NumValenceElectrons>  (225) 
52

>  <NumRadicalElectrons>  (225) 
0

>  <MaxPartialCharge>  (225) 
0.269195

>  <MinPartialCharge>  (225) 
-0.507958

>  <MaxAbsPartialCharge>  (225) 
0.507958

>  <MinAbsPartialCharge>  (225) 
0.269195

>  <FpDensityMorgan1>  (225) 
1.3

>  <FpDensityMorgan2>  (225) 
1.8

>  <FpDensityMorgan3>  (225) 
2.2

>  <BCUT2D_MWHI>  (225) 
16.628234

>  <BCUT2D_MWLOW>  (225) 
10.295264

>  <BCUT2D_CHGHI>  (225) 
2.010976

>  <BCUT2D_CHGLO>  (225) 
-1.889975

>  <BCUT2D_LOGPHI>  (225) 
2.144289

>  <BCUT2D_LOGPLOW>  (225) 
-1.847536

>  <BCUT2D_MRHI>  (225) 
5.344731

>  <BCUT2D_MRLOW>  (225) 
-0.384452

>  <AvgIpc>  (225) 
1.884505

>  <BalabanJ>  (225) 
3.003401

>  <BertzCT>  (225) 
241.674771

>  <Chi0>  (225) 
7.560478

>  <Chi0n>  (225) 
5.020325

>  <Chi0v>  (225) 
5.020325

>  <Chi1>  (225) 
4.698377

>  <Chi1n>  (225) 
2.633729

>  <Chi1v>  (225) 
2.633729

>  <Chi2n>  (225) 
1.773508

>  <Chi2v>  (225) 
1.773508

>  <Chi3n>  (225) 
1.060528

>  <Chi3v>  (225) 
1.060528

>  <Chi4n>  (225) 
0.574349

>  <Chi4v>  (225) 
0.574349

>  <HallKierAlpha>  (225) 
-1.58

>  <Ipc>  (225) 
180.912515

>  <Kappa1>  (225) 
6.538765

>  <Kappa2>  (225) 
2.344994

>  <Kappa3>  (225) 
1.222617

>  <LabuteASA>  (225) 
56.878613

>  <PEOE_VSA1>  (225) 
5.106527

>  <PEOE_VSA10>  (225) 
5.749512

>  <PEOE_VSA11>  (225) 
0.0

>  <PEOE_VSA12>  (225) 
0.0

>  <PEOE_VSA13>  (225) 
5.687386

>  <PEOE_VSA14>  (225) 
0.0

>  <PEOE_VSA2>  (225) 
10.114318

>  <PEOE_VSA3>  (225) 
0.0

>  <PEOE_VSA4>  (225) 
0.0

>  <PEOE_VSA5>  (225) 
0.0

>  <PEOE_VSA6>  (225) 
0.0

>  <PEOE_VSA7>  (225) 
12.132734

>  <PEOE_VSA8>  (225) 
12.132734

>  <PEOE_VSA9>  (225) 
4.923311

>  <SMR_VSA1>  (225) 
10.029838

>  <SMR_VSA10>  (225) 
5.687386

>  <SMR_VSA2>  (225) 
0.0

>  <SMR_VSA3>  (225) 
0.0

>  <SMR_VSA4>  (225) 
0.0

>  <SMR_VSA5>  (225) 
0.0

>  <SMR_VSA6>  (225) 
0.0

>  <SMR_VSA7>  (225) 
34.379787

>  <SMR_VSA8>  (225) 
0.0

>  <SMR_VSA9>  (225) 
5.749512

>  <SlogP_VSA1>  (225) 
0.0

>  <SlogP_VSA10>  (225) 
5.687386

>  <SlogP_VSA11>  (225) 
5.749512

>  <SlogP_VSA12>  (225) 
0.0

>  <SlogP_VSA2>  (225) 
10.029838

>  <SlogP_VSA3>  (225) 
0.0

>  <SlogP_VSA4>  (225) 
10.114318

>  <SlogP_VSA5>  (225) 
0.0

>  <SlogP_VSA6>  (225) 
24.265468

>  <SlogP_VSA7>  (225) 
0.0

>  <SlogP_VSA8>  (225) 
0.0

>  <SlogP_VSA9>  (225) 
0.0

>  <EState_VSA1>  (225) 
4.923311

>  <EState_VSA10>  (225) 
10.114318

>  <EState_VSA11>  (225) 
0.0

>  <EState_VSA2>  (225) 
11.436898

>  <EState_VSA3>  (225) 
0.0

>  <EState_VSA4>  (225) 
0.0

>  <EState_VSA5>  (225) 
24.265468

>  <EState_VSA6>  (225) 
0.0

>  <EState_VSA7>  (225) 
0.0

>  <EState_VSA8>  (225) 
0.0

>  <EState_VSA9>  (225) 
5.106527

>  <VSA_EState1>  (225) 
0.0

>  <VSA_EState10>  (225) 
0.0

>  <VSA_EState2>  (225) 
9.521704

>  <VSA_EState3>  (225) 
18.751999

>  <VSA_EState4>  (225) 
-0.015926

>  <VSA_EState5>  (225) 
0.032963

>  <VSA_EState6>  (225) 
5.042593

>  <VSA_EState7>  (225) 
0.0

>  <VSA_EState8>  (225) 
0.0

>  <VSA_EState9>  (225) 
0.0

>  <FractionCSP3>  (225) 
0.0

>  <HeavyAtomCount>  (225) 
10

>  <NHOHCount>  (225) 
1

>  <NOCount>  (225) 
4

>  <NumAliphaticCarbocycles>  (225) 
0

>  <NumAliphaticHeterocycles>  (225) 
0

>  <NumAliphaticRings>  (225) 
0

>  <NumAromaticCarbocycles>  (225) 
1

>  <NumAromaticHeterocycles>  (225) 
0

>  <NumAromaticRings>  (225) 
1

>  <NumHAcceptors>  (225) 
3

>  <NumHDonors>  (225) 
1

>  <NumHeteroatoms>  (225) 
4

>  <NumRotatableBonds>  (225) 
1

>  <NumSaturatedCarbocycles>  (225) 
0

>  <NumSaturatedHeterocycles>  (225) 
0

>  <NumSaturatedRings>  (225) 
0

>  <RingCount>  (225) 
1

>  <MolLogP>  (225) 
1.3004

>  <MolMR>  (225) 
34.7612

>  <fr_Al_COO>  (225) 
0

>  <fr_Al_OH>  (225) 
0

>  <fr_Al_OH_noTert>  (225) 
0

>  <fr_ArN>  (225) 
0

>  <fr_Ar_COO>  (225) 
0

>  <fr_Ar_N>  (225) 
0

>  <fr_Ar_NH>  (225) 
0

>  <fr_Ar_OH>  (225) 
1

>  <fr_COO>  (225) 
0

>  <fr_COO2>  (225) 
0

>  <fr_C_O>  (225) 
0

>  <fr_C_O_noCOO>  (225) 
0

>  <fr_C_S>  (225) 
0

>  <fr_HOCCN>  (225) 
0

>  <fr_Imine>  (225) 
0

>  <fr_NH0>  (225) 
1

>  <fr_NH1>  (225) 
0

>  <fr_NH2>  (225) 
0

>  <fr_N_O>  (225) 
0

>  <fr_Ndealkylation1>  (225) 
0

>  <fr_Ndealkylation2>  (225) 
0

>  <fr_Nhpyrrole>  (225) 
0

>  <fr_SH>  (225) 
0

>  <fr_aldehyde>  (225) 
0

>  <fr_alkyl_carbamate>  (225) 
0

>  <fr_alkyl_halide>  (225) 
0

>  <fr_allylic_oxid>  (225) 
0

>  <fr_amide>  (225) 
0

>  <fr_amidine>  (225) 
0

>  <fr_aniline>  (225) 
0

>  <fr_aryl_methyl>  (225) 
0

>  <fr_azide>  (225) 
0

>  <fr_azo>  (225) 
0

>  <fr_barbitur>  (225) 
0

>  <fr_benzene>  (225) 
1

>  <fr_benzodiazepine>  (225) 
0

>  <fr_bicyclic>  (225) 
0

>  <fr_diazo>  (225) 
0

>  <fr_dihydropyridine>  (225) 
0

>  <fr_epoxide>  (225) 
0

>  <fr_ester>  (225) 
0

>  <fr_ether>  (225) 
0

>  <fr_furan>  (225) 
0

>  <fr_guanido>  (225) 
0

>  <fr_halogen>  (225) 
0

>  <fr_hdrzine>  (225) 
0

>  <fr_hdrzone>  (225) 
0

>  <fr_imidazole>  (225) 
0

>  <fr_imide>  (225) 
0

>  <fr_isocyan>  (225) 
0

>  <fr_isothiocyan>  (225) 
0

>  <fr_ketone>  (225) 
0

>  <fr_ketone_Topliss>  (225) 
0

>  <fr_lactam>  (225) 
0

>  <fr_lactone>  (225) 
0

>  <fr_methoxy>  (225) 
0

>  <fr_morpholine>  (225) 
0

>  <fr_nitrile>  (225) 
0

>  <fr_nitro>  (225) 
1

>  <fr_nitro_arom>  (225) 
1

>  <fr_nitro_arom_nonortho>  (225) 
1

>  <fr_nitroso>  (225) 
0

>  <fr_oxazole>  (225) 
0

>  <fr_oxime>  (225) 
0

>  <fr_para_hydroxylation>  (225) 
0

>  <fr_phenol>  (225) 
1

>  <fr_phenol_noOrthoHbond>  (225) 
1

>  <fr_phos_acid>  (225) 
0

>  <fr_phos_ester>  (225) 
0

>  <fr_piperdine>  (225) 
0

>  <fr_piperzine>  (225) 
0

>  <fr_priamide>  (225) 
0

>  <fr_prisulfonamd>  (225) 
0

>  <fr_pyridine>  (225) 
0

>  <fr_quatN>  (225) 
0

>  <fr_sulfide>  (225) 
0

>  <fr_sulfonamd>  (225) 
0

>  <fr_sulfone>  (225) 
0

>  <fr_term_acetylene>  (225) 
0

>  <fr_tetrazole>  (225) 
0

>  <fr_thiazole>  (225) 
0

>  <fr_thiocyan>  (225) 
0

>  <fr_thiophene>  (225) 
0

>  <fr_unbrch_alkane>  (225) 
0

>  <fr_urea>  (225) 
0

>  <NP_Likeness>  (225) 
-0.666415

$$$$
NTN
     RDKit          3D

  0  0  0  0  0  0  0  0  0  0999 V3000
M  V30 BEGIN CTAB
M  V30 COUNTS 17 17 0 0 0
M  V30 BEGIN ATOM
M  V30 1 N 11.777000 3.732000 19.009000 0 CHG=1
M  V30 2 N 12.837000 5.721000 18.729000 0
M  V30 3 N 16.496000 2.710000 20.426000 0
M  V30 4 C 16.328000 4.037000 20.358000 0
M  V30 5 C 15.465000 1.948000 20.039000 0
M  V30 6 C 15.165000 4.642000 19.918000 0
M  V30 7 C 14.261000 2.456000 19.590000 0
M  V30 8 C 12.828000 4.432000 19.081000 0
M  V30 9 C 14.100000 3.838000 19.530000 0
M  V30 10 H 11.798000 2.769300 19.278900 0
M  V30 11 H 10.925100 4.141200 18.682200 0
M  V30 12 H 13.682000 6.251600 18.795700 0
M  V30 13 H 17.086700 4.623600 20.641500 0
M  V30 14 H 15.572600 0.954500 20.077100 0
M  V30 15 H 15.091800 5.638600 19.879800 0
M  V30 16 H 13.520200 1.843700 19.313700 0
M  V30 17 H 11.998800 6.155000 18.398900 0
M  V30 END ATOM
M  V30 BEGIN BOND
M  V30 1 2 1 8
M  V30 2 1 2 8
M  V30 3 2 3 4
M  V30 4 1 3 5
M  V30 5 1 4 6
M  V30 6 2 5 7
M  V30 7 2 6 9
M  V30 8 1 7 9
M  V30 9 1 8 9
M  V30 10 1 1 10
M  V30 11 1 1 11
M  V30 12 1 2 12
M  V30 13 1 4 13
M  V30 14 1 5 14
M  V30 15 1 6 15
M  V30 16 1 7 16
M  V30 17 1 2 17
M  V30 END BOND
M  V30 END CTAB
M  END
>  <Ligand_Instance>  (226) 
6ZN0_NTN_A_404

>  <Dataset>  (226) 
PDB

>  <PDB_ID>  (226) 
6ZN0

>  <Chain>  (226) 
A

>  <Resi>  (226) 
404

>  <Num_Resolved_Atoms>  (226) 
9

>  <Num_H_Atoms_ProtBoundConf>  (226) 
8

>  <Pocket>  (226) 
A

>  <Name>  (226) 
ISONICOTINAMIDINE

>  <Num_Not_Resolved_Atoms>  (226) 
0

>  <ATP_Site>  (226) 
True

>  <Peripheral>  (226) 
True

>  <Standardized_SMILES>  (226) 
[H]C1=NC([H])=C([H])C(C(N([H])[H])=[N+]([H])[H])=C1[H]

>  <2D_Mol_H>  (226) 
<rdkit.Chem.rdchem.Mol object at 0x77059d81e7a0>

>  <MW>  (226) 
122.151

>  <HBA>  (226) 
1

>  <HBD>  (226) 
2

>  <LogP>  (226) 
-1.454

>  <NRB>  (226) 
1

>  <TPSA>  (226) 
64.5

>  <Num_Heavy_Atoms>  (226) 
9

>  <Ro5>  (226) 
[True, True, True, True, True, True]

>  <Ro5_Fulfilled>  (226) 
True

>  <Ro3>  (226) 
[True, True, True, True]

>  <Ro3_Fulfilled>  (226) 
True

>  <Fsp3>  (226) 
0.0

>  <Fsp3_0.42>  (226) 
False

>  <Fsp3_0.45>  (226) 
False

>  <Stereogenic_Carbons>  (226) 
0

>  <C_Atoms>  (226) 
6

>  <FCStereo>  (226) 
0.0

>  <SPS>  (226) 
80

>  <nSPS>  (226) 
8.888889

>  <PBF>  (226) 
0.167959

>  <PBF_0.6>  (226) 
False

>  <nPBF>  (226) 
0.018662

>  <nPBF_0.016>  (226) 
True

>  <PMI1>  (226) 
129.13392

>  <PMI2>  (226) 
412.691678

>  <PMI3>  (226) 
537.177495

>  <NPR1>  (226) 
0.240393

>  <NPR2>  (226) 
0.768259

>  <Sum_NPR>  (226) 
1.008653

>  <Sum_NPR_1.07>  (226) 
False

>  <Sum_NPR_1.2>  (226) 
False

>  <MaxAbsEStateIndex>  (226) 
5.28037

>  <MaxEStateIndex>  (226) 
5.28037

>  <MinAbsEStateIndex>  (226) 
0.330926

>  <MinEStateIndex>  (226) 
0.330926

>  <qed>  (226) 
0.353189

>  <MolWt>  (226) 
122.151

>  <HeavyAtomMolWt>  (226) 
114.087

>  <ExactMolWt>  (226) 
122.071274

>  <NumValenceElectrons>  (226) 
46

>  <NumRadicalElectrons>  (226) 
0

>  <MaxPartialCharge>  (226) 
0.270286

>  <MinPartialCharge>  (226) 
-0.287039

>  <MaxAbsPartialCharge>  (226) 
0.287039

>  <MinAbsPartialCharge>  (226) 
0.270286

>  <FpDensityMorgan1>  (226) 
1.444444

>  <FpDensityMorgan2>  (226) 
2.0

>  <FpDensityMorgan3>  (226) 
2.333333

>  <BCUT2D_MWHI>  (226) 
14.701126

>  <BCUT2D_MWLOW>  (226) 
10.247592

>  <BCUT2D_CHGHI>  (226) 
1.957723

>  <BCUT2D_CHGLO>  (226) 
-1.868376

>  <BCUT2D_LOGPHI>  (226) 
1.895404

>  <BCUT2D_LOGPLOW>  (226) 
-2.456272

>  <BCUT2D_MRHI>  (226) 
5.917158

>  <BCUT2D_MRLOW>  (226) 
-0.113735

>  <AvgIpc>  (226) 
1.900373

>  <BalabanJ>  (226) 
2.981455

>  <BertzCT>  (226) 
204.802775

>  <Chi0>  (226) 
6.690234

>  <Chi0n>  (226) 
4.911315

>  <Chi0v>  (226) 
4.911315

>  <Chi1>  (226) 
4.30453

>  <Chi1n>  (226) 
2.587765

>  <Chi1v>  (226) 
2.587765

>  <Chi2n>  (226) 
1.691231

>  <Chi2v>  (226) 
1.691231

>  <Chi3n>  (226) 
1.013654

>  <Chi3v>  (226) 
1.013654

>  <Chi4n>  (226) 
0.544364

>  <Chi4v>  (226) 
0.544364

>  <HallKierAlpha>  (226) 
-1.38

>  <Ipc>  (226) 
129.225339

>  <Kappa1>  (226) 
5.751234

>  <Kappa2>  (226) 
2.259334

>  <Kappa3>  (226) 
1.252832

>  <LabuteASA>  (226) 
53.041235

>  <PEOE_VSA1>  (226) 
0.0

>  <PEOE_VSA10>  (226) 
0.0

>  <PEOE_VSA11>  (226) 
0.0

>  <PEOE_VSA12>  (226) 
0.0

>  <PEOE_VSA13>  (226) 
5.83562

>  <PEOE_VSA14>  (226) 
0.0

>  <PEOE_VSA2>  (226) 
16.12693

>  <PEOE_VSA3>  (226) 
0.0

>  <PEOE_VSA4>  (226) 
0.0

>  <PEOE_VSA5>  (226) 
0.0

>  <PEOE_VSA6>  (226) 
0.0

>  <PEOE_VSA7>  (226) 
12.132734

>  <PEOE_VSA8>  (226) 
12.393687

>  <PEOE_VSA9>  (226) 
5.563451

>  <SMR_VSA1>  (226) 
5.409284

>  <SMR_VSA10>  (226) 
5.83562

>  <SMR_VSA2>  (226) 
0.0

>  <SMR_VSA3>  (226) 
4.983979

>  <SMR_VSA4>  (226) 
5.733667

>  <SMR_VSA5>  (226) 
0.0

>  <SMR_VSA6>  (226) 
0.0

>  <SMR_VSA7>  (226) 
30.089873

>  <SMR_VSA8>  (226) 
0.0

>  <SMR_VSA9>  (226) 
0.0

>  <SlogP_VSA1>  (226) 
11.142951

>  <SlogP_VSA10>  (226) 
0.0

>  <SlogP_VSA11>  (226) 
0.0

>  <SlogP_VSA12>  (226) 
0.0

>  <SlogP_VSA2>  (226) 
10.819598

>  <SlogP_VSA3>  (226) 
0.0

>  <SlogP_VSA4>  (226) 
0.0

>  <SlogP_VSA5>  (226) 
5.563451

>  <SlogP_VSA6>  (226) 
24.526421

>  <SlogP_VSA7>  (226) 
0.0

>  <SlogP_VSA8>  (226) 
0.0

>  <SlogP_VSA9>  (226) 
0.0

>  <EState_VSA1>  (226) 
0.0

>  <EState_VSA10>  (226) 
0.0

>  <EState_VSA11>  (226) 
0.0

>  <EState_VSA2>  (226) 
0.0

>  <EState_VSA3>  (226) 
5.83562

>  <EState_VSA4>  (226) 
5.563451

>  <EState_VSA5>  (226) 
0.0

>  <EState_VSA6>  (226) 
24.526421

>  <EState_VSA7>  (226) 
0.0

>  <EState_VSA8>  (226) 
4.983979

>  <EState_VSA9>  (226) 
11.142951

>  <VSA_EState1>  (226) 
0.0

>  <VSA_EState10>  (226) 
0.0

>  <VSA_EState2>  (226) 
3.803333

>  <VSA_EState3>  (226) 
5.28037

>  <VSA_EState4>  (226) 
6.104444

>  <VSA_EState5>  (226) 
0.330926

>  <VSA_EState6>  (226) 
3.518519

>  <VSA_EState7>  (226) 
3.295741

>  <VSA_EState8>  (226) 
0.0

>  <VSA_EState9>  (226) 
0.0

>  <FractionCSP3>  (226) 
0.0

>  <HeavyAtomCount>  (226) 
9

>  <NHOHCount>  (226) 
4

>  <NOCount>  (226) 
3

>  <NumAliphaticCarbocycles>  (226) 
0

>  <NumAliphaticHeterocycles>  (226) 
0

>  <NumAliphaticRings>  (226) 
0

>  <NumAromaticCarbocycles>  (226) 
0

>  <NumAromaticHeterocycles>  (226) 
1

>  <NumAromaticRings>  (226) 
1

>  <NumHAcceptors>  (226) 
1

>  <NumHDonors>  (226) 
2

>  <NumHeteroatoms>  (226) 
3

>  <NumRotatableBonds>  (226) 
1

>  <NumSaturatedCarbocycles>  (226) 
0

>  <NumSaturatedHeterocycles>  (226) 
0

>  <NumSaturatedRings>  (226) 
0

>  <RingCount>  (226) 
1

>  <MolLogP>  (226) 
-1.454

>  <MolMR>  (226) 
34.4588

>  <fr_Al_COO>  (226) 
0

>  <fr_Al_OH>  (226) 
0

>  <fr_Al_OH_noTert>  (226) 
0

>  <fr_ArN>  (226) 
0

>  <fr_Ar_COO>  (226) 
0

>  <fr_Ar_N>  (226) 
1

>  <fr_Ar_NH>  (226) 
0

>  <fr_Ar_OH>  (226) 
0

>  <fr_COO>  (226) 
0

>  <fr_COO2>  (226) 
0

>  <fr_C_O>  (226) 
0

>  <fr_C_O_noCOO>  (226) 
0

>  <fr_C_S>  (226) 
0

>  <fr_HOCCN>  (226) 
0

>  <fr_Imine>  (226) 
0

>  <fr_NH0>  (226) 
1

>  <fr_NH1>  (226) 
0

>  <fr_NH2>  (226) 
2

>  <fr_N_O>  (226) 
0

>  <fr_Ndealkylation1>  (226) 
0

>  <fr_Ndealkylation2>  (226) 
0

>  <fr_Nhpyrrole>  (226) 
0

>  <fr_SH>  (226) 
0

>  <fr_aldehyde>  (226) 
0

>  <fr_alkyl_carbamate>  (226) 
0

>  <fr_alkyl_halide>  (226) 
0

>  <fr_allylic_oxid>  (226) 
0

>  <fr_amide>  (226) 
0

>  <fr_amidine>  (226) 
1

>  <fr_aniline>  (226) 
0

>  <fr_aryl_methyl>  (226) 
0

>  <fr_azide>  (226) 
0

>  <fr_azo>  (226) 
0

>  <fr_barbitur>  (226) 
0

>  <fr_benzene>  (226) 
0

>  <fr_benzodiazepine>  (226) 
0

>  <fr_bicyclic>  (226) 
0

>  <fr_diazo>  (226) 
0

>  <fr_dihydropyridine>  (226) 
0

>  <fr_epoxide>  (226) 
0

>  <fr_ester>  (226) 
0

>  <fr_ether>  (226) 
0

>  <fr_furan>  (226) 
0

>  <fr_guanido>  (226) 
0

>  <fr_halogen>  (226) 
0

>  <fr_hdrzine>  (226) 
0

>  <fr_hdrzone>  (226) 
0

>  <fr_imidazole>  (226) 
0

>  <fr_imide>  (226) 
0

>  <fr_isocyan>  (226) 
0

>  <fr_isothiocyan>  (226) 
0

>  <fr_ketone>  (226) 
0

>  <fr_ketone_Topliss>  (226) 
0

>  <fr_lactam>  (226) 
0

>  <fr_lactone>  (226) 
0

>  <fr_methoxy>  (226) 
0

>  <fr_morpholine>  (226) 
0

>  <fr_nitrile>  (226) 
0

>  <fr_nitro>  (226) 
0

>  <fr_nitro_arom>  (226) 
0

>  <fr_nitro_arom_nonortho>  (226) 
0

>  <fr_nitroso>  (226) 
0

>  <fr_oxazole>  (226) 
0

>  <fr_oxime>  (226) 
0

>  <fr_para_hydroxylation>  (226) 
0

>  <fr_phenol>  (226) 
0

>  <fr_phenol_noOrthoHbond>  (226) 
0

>  <fr_phos_acid>  (226) 
0

>  <fr_phos_ester>  (226) 
0

>  <fr_piperdine>  (226) 
0

>  <fr_piperzine>  (226) 
0

>  <fr_priamide>  (226) 
0

>  <fr_prisulfonamd>  (226) 
0

>  <fr_pyridine>  (226) 
1

>  <fr_quatN>  (226) 
0

>  <fr_sulfide>  (226) 
0

>  <fr_sulfonamd>  (226) 
0

>  <fr_sulfone>  (226) 
0

>  <fr_term_acetylene>  (226) 
0

>  <fr_tetrazole>  (226) 
0

>  <fr_thiazole>  (226) 
0

>  <fr_thiocyan>  (226) 
0

>  <fr_thiophene>  (226) 
0

>  <fr_unbrch_alkane>  (226) 
0

>  <fr_urea>  (226) 
0

>  <NP_Likeness>  (226) 
-0.787814

$$$$
NTN
     RDKit          3D

  0  0  0  0  0  0  0  0  0  0999 V3000
M  V30 BEGIN CTAB
M  V30 COUNTS 17 17 0 0 0
M  V30 BEGIN ATOM
M  V30 1 N 19.910000 6.651000 51.224000 0 CHG=1
M  V30 2 N 17.914000 5.960000 50.358000 0
M  V30 3 N 17.501000 10.978000 50.285000 0
M  V30 4 C 16.614000 10.012000 50.545000 0
M  V30 5 C 18.785000 10.613000 50.206000 0
M  V30 6 C 16.955000 8.685000 50.723000 0
M  V30 7 C 19.225000 9.313000 50.367000 0
M  V30 8 C 18.697000 6.908000 50.731000 0
M  V30 9 C 18.289000 8.319000 50.621000 0
M  V30 10 H 20.503800 7.403600 51.508500 0
M  V30 11 H 20.225200 5.705800 51.308900 0
M  V30 12 H 17.008700 6.174300 49.991200 0
M  V30 13 H 15.648900 10.264300 50.614600 0
M  V30 14 H 19.465800 11.321400 50.019700 0
M  V30 15 H 16.253000 8.001100 50.921700 0
M  V30 16 H 20.198200 9.092300 50.301900 0
M  V30 17 H 18.209900 5.007800 50.434500 0
M  V30 END ATOM
M  V30 BEGIN BOND
M  V30 1 2 1 8
M  V30 2 1 2 8
M  V30 3 2 3 4
M  V30 4 1 3 5
M  V30 5 1 4 6
M  V30 6 2 5 7
M  V30 7 2 6 9
M  V30 8 1 7 9
M  V30 9 1 8 9
M  V30 10 1 1 10
M  V30 11 1 1 11
M  V30 12 1 2 12
M  V30 13 1 4 13
M  V30 14 1 5 14
M  V30 15 1 6 15
M  V30 16 1 7 16
M  V30 17 1 2 17
M  V30 END BOND
M  V30 END CTAB
M  END
>  <Ligand_Instance>  (227) 
6ZN0_NTN_A_405

>  <Dataset>  (227) 
PDB

>  <PDB_ID>  (227) 
6ZN0

>  <Chain>  (227) 
A

>  <Resi>  (227) 
405

>  <Num_Resolved_Atoms>  (227) 
9

>  <Num_H_Atoms_ProtBoundConf>  (227) 
8

>  <Pocket>  (227) 
X

>  <Name>  (227) 
ISONICOTINAMIDINE

>  <Num_Not_Resolved_Atoms>  (227) 
0

>  <ATP_Site>  (227) 
True

>  <Peripheral>  (227) 
True

>  <Standardized_SMILES>  (227) 
[H]C1=NC([H])=C([H])C(C(N([H])[H])=[N+]([H])[H])=C1[H]

>  <2D_Mol_H>  (227) 
<rdkit.Chem.rdchem.Mol object at 0x77059d81e880>

>  <MW>  (227) 
122.151

>  <HBA>  (227) 
1

>  <HBD>  (227) 
2

>  <LogP>  (227) 
-1.454

>  <NRB>  (227) 
1

>  <TPSA>  (227) 
64.5

>  <Num_Heavy_Atoms>  (227) 
9

>  <Ro5>  (227) 
[True, True, True, True, True, True]

>  <Ro5_Fulfilled>  (227) 
True

>  <Ro3>  (227) 
[True, True, True, True]

>  <Ro3_Fulfilled>  (227) 
True

>  <Fsp3>  (227) 
0.0

>  <Fsp3_0.42>  (227) 
False

>  <Fsp3_0.45>  (227) 
False

>  <Stereogenic_Carbons>  (227) 
0

>  <C_Atoms>  (227) 
6

>  <FCStereo>  (227) 
0.0

>  <SPS>  (227) 
80

>  <nSPS>  (227) 
8.888889

>  <PBF>  (227) 
0.322501

>  <PBF_0.6>  (227) 
False

>  <nPBF>  (227) 
0.035833

>  <nPBF_0.016>  (227) 
True

>  <PMI1>  (227) 
129.271828

>  <PMI2>  (227) 
419.52492

>  <PMI3>  (227) 
531.598045

>  <NPR1>  (227) 
0.243176

>  <NPR2>  (227) 
0.789177

>  <Sum_NPR>  (227) 
1.032353

>  <Sum_NPR_1.07>  (227) 
False

>  <Sum_NPR_1.2>  (227) 
False

>  <MaxAbsEStateIndex>  (227) 
5.28037

>  <MaxEStateIndex>  (227) 
5.28037

>  <MinAbsEStateIndex>  (227) 
0.330926

>  <MinEStateIndex>  (227) 
0.330926

>  <qed>  (227) 
0.353189

>  <MolWt>  (227) 
122.151

>  <HeavyAtomMolWt>  (227) 
114.087

>  <ExactMolWt>  (227) 
122.071274

>  <NumValenceElectrons>  (227) 
46

>  <NumRadicalElectrons>  (227) 
0

>  <MaxPartialCharge>  (227) 
0.270286

>  <MinPartialCharge>  (227) 
-0.287039

>  <MaxAbsPartialCharge>  (227) 
0.287039

>  <MinAbsPartialCharge>  (227) 
0.270286

>  <FpDensityMorgan1>  (227) 
1.444444

>  <FpDensityMorgan2>  (227) 
2.0

>  <FpDensityMorgan3>  (227) 
2.333333

>  <BCUT2D_MWHI>  (227) 
14.701126

>  <BCUT2D_MWLOW>  (227) 
10.247592

>  <BCUT2D_CHGHI>  (227) 
1.957723

>  <BCUT2D_CHGLO>  (227) 
-1.868376

>  <BCUT2D_LOGPHI>  (227) 
1.895404

>  <BCUT2D_LOGPLOW>  (227) 
-2.456272

>  <BCUT2D_MRHI>  (227) 
5.917158

>  <BCUT2D_MRLOW>  (227) 
-0.113735

>  <AvgIpc>  (227) 
1.900373

>  <BalabanJ>  (227) 
2.981455

>  <BertzCT>  (227) 
204.802775

>  <Chi0>  (227) 
6.690234

>  <Chi0n>  (227) 
4.911315

>  <Chi0v>  (227) 
4.911315

>  <Chi1>  (227) 
4.30453

>  <Chi1n>  (227) 
2.587765

>  <Chi1v>  (227) 
2.587765

>  <Chi2n>  (227) 
1.691231

>  <Chi2v>  (227) 
1.691231

>  <Chi3n>  (227) 
1.013654

>  <Chi3v>  (227) 
1.013654

>  <Chi4n>  (227) 
0.544364

>  <Chi4v>  (227) 
0.544364

>  <HallKierAlpha>  (227) 
-1.38

>  <Ipc>  (227) 
129.225339

>  <Kappa1>  (227) 
5.751234

>  <Kappa2>  (227) 
2.259334

>  <Kappa3>  (227) 
1.252832

>  <LabuteASA>  (227) 
53.041235

>  <PEOE_VSA1>  (227) 
0.0

>  <PEOE_VSA10>  (227) 
0.0

>  <PEOE_VSA11>  (227) 
0.0

>  <PEOE_VSA12>  (227) 
0.0

>  <PEOE_VSA13>  (227) 
5.83562

>  <PEOE_VSA14>  (227) 
0.0

>  <PEOE_VSA2>  (227) 
16.12693

>  <PEOE_VSA3>  (227) 
0.0

>  <PEOE_VSA4>  (227) 
0.0

>  <PEOE_VSA5>  (227) 
0.0

>  <PEOE_VSA6>  (227) 
0.0

>  <PEOE_VSA7>  (227) 
12.132734

>  <PEOE_VSA8>  (227) 
12.393687

>  <PEOE_VSA9>  (227) 
5.563451

>  <SMR_VSA1>  (227) 
5.409284

>  <SMR_VSA10>  (227) 
5.83562

>  <SMR_VSA2>  (227) 
0.0

>  <SMR_VSA3>  (227) 
4.983979

>  <SMR_VSA4>  (227) 
5.733667

>  <SMR_VSA5>  (227) 
0.0

>  <SMR_VSA6>  (227) 
0.0

>  <SMR_VSA7>  (227) 
30.089873

>  <SMR_VSA8>  (227) 
0.0

>  <SMR_VSA9>  (227) 
0.0

>  <SlogP_VSA1>  (227) 
11.142951

>  <SlogP_VSA10>  (227) 
0.0

>  <SlogP_VSA11>  (227) 
0.0

>  <SlogP_VSA12>  (227) 
0.0

>  <SlogP_VSA2>  (227) 
10.819598

>  <SlogP_VSA3>  (227) 
0.0

>  <SlogP_VSA4>  (227) 
0.0

>  <SlogP_VSA5>  (227) 
5.563451

>  <SlogP_VSA6>  (227) 
24.526421

>  <SlogP_VSA7>  (227) 
0.0

>  <SlogP_VSA8>  (227) 
0.0

>  <SlogP_VSA9>  (227) 
0.0

>  <EState_VSA1>  (227) 
0.0

>  <EState_VSA10>  (227) 
0.0

>  <EState_VSA11>  (227) 
0.0

>  <EState_VSA2>  (227) 
0.0

>  <EState_VSA3>  (227) 
5.83562

>  <EState_VSA4>  (227) 
5.563451

>  <EState_VSA5>  (227) 
0.0

>  <EState_VSA6>  (227) 
24.526421

>  <EState_VSA7>  (227) 
0.0

>  <EState_VSA8>  (227) 
4.983979

>  <EState_VSA9>  (227) 
11.142951

>  <VSA_EState1>  (227) 
0.0

>  <VSA_EState10>  (227) 
0.0

>  <VSA_EState2>  (227) 
3.803333

>  <VSA_EState3>  (227) 
5.28037

>  <VSA_EState4>  (227) 
6.104444

>  <VSA_EState5>  (227) 
0.330926

>  <VSA_EState6>  (227) 
3.518519

>  <VSA_EState7>  (227) 
3.295741

>  <VSA_EState8>  (227) 
0.0

>  <VSA_EState9>  (227) 
0.0

>  <FractionCSP3>  (227) 
0.0

>  <HeavyAtomCount>  (227) 
9

>  <NHOHCount>  (227) 
4

>  <NOCount>  (227) 
3

>  <NumAliphaticCarbocycles>  (227) 
0

>  <NumAliphaticHeterocycles>  (227) 
0

>  <NumAliphaticRings>  (227) 
0

>  <NumAromaticCarbocycles>  (227) 
0

>  <NumAromaticHeterocycles>  (227) 
1

>  <NumAromaticRings>  (227) 
1

>  <NumHAcceptors>  (227) 
1

>  <NumHDonors>  (227) 
2

>  <NumHeteroatoms>  (227) 
3

>  <NumRotatableBonds>  (227) 
1

>  <NumSaturatedCarbocycles>  (227) 
0

>  <NumSaturatedHeterocycles>  (227) 
0

>  <NumSaturatedRings>  (227) 
0

>  <RingCount>  (227) 
1

>  <MolLogP>  (227) 
-1.454

>  <MolMR>  (227) 
34.4588

>  <fr_Al_COO>  (227) 
0

>  <fr_Al_OH>  (227) 
0

>  <fr_Al_OH_noTert>  (227) 
0

>  <fr_ArN>  (227) 
0

>  <fr_Ar_COO>  (227) 
0

>  <fr_Ar_N>  (227) 
1

>  <fr_Ar_NH>  (227) 
0

>  <fr_Ar_OH>  (227) 
0

>  <fr_COO>  (227) 
0

>  <fr_COO2>  (227) 
0

>  <fr_C_O>  (227) 
0

>  <fr_C_O_noCOO>  (227) 
0

>  <fr_C_S>  (227) 
0

>  <fr_HOCCN>  (227) 
0

>  <fr_Imine>  (227) 
0

>  <fr_NH0>  (227) 
1

>  <fr_NH1>  (227) 
0

>  <fr_NH2>  (227) 
2

>  <fr_N_O>  (227) 
0

>  <fr_Ndealkylation1>  (227) 
0

>  <fr_Ndealkylation2>  (227) 
0

>  <fr_Nhpyrrole>  (227) 
0

>  <fr_SH>  (227) 
0

>  <fr_aldehyde>  (227) 
0

>  <fr_alkyl_carbamate>  (227) 
0

>  <fr_alkyl_halide>  (227) 
0

>  <fr_allylic_oxid>  (227) 
0

>  <fr_amide>  (227) 
0

>  <fr_amidine>  (227) 
1

>  <fr_aniline>  (227) 
0

>  <fr_aryl_methyl>  (227) 
0

>  <fr_azide>  (227) 
0

>  <fr_azo>  (227) 
0

>  <fr_barbitur>  (227) 
0

>  <fr_benzene>  (227) 
0

>  <fr_benzodiazepine>  (227) 
0

>  <fr_bicyclic>  (227) 
0

>  <fr_diazo>  (227) 
0

>  <fr_dihydropyridine>  (227) 
0

>  <fr_epoxide>  (227) 
0

>  <fr_ester>  (227) 
0

>  <fr_ether>  (227) 
0

>  <fr_furan>  (227) 
0

>  <fr_guanido>  (227) 
0

>  <fr_halogen>  (227) 
0

>  <fr_hdrzine>  (227) 
0

>  <fr_hdrzone>  (227) 
0

>  <fr_imidazole>  (227) 
0

>  <fr_imide>  (227) 
0

>  <fr_isocyan>  (227) 
0

>  <fr_isothiocyan>  (227) 
0

>  <fr_ketone>  (227) 
0

>  <fr_ketone_Topliss>  (227) 
0

>  <fr_lactam>  (227) 
0

>  <fr_lactone>  (227) 
0

>  <fr_methoxy>  (227) 
0

>  <fr_morpholine>  (227) 
0

>  <fr_nitrile>  (227) 
0

>  <fr_nitro>  (227) 
0

>  <fr_nitro_arom>  (227) 
0

>  <fr_nitro_arom_nonortho>  (227) 
0

>  <fr_nitroso>  (227) 
0

>  <fr_oxazole>  (227) 
0

>  <fr_oxime>  (227) 
0

>  <fr_para_hydroxylation>  (227) 
0

>  <fr_phenol>  (227) 
0

>  <fr_phenol_noOrthoHbond>  (227) 
0

>  <fr_phos_acid>  (227) 
0

>  <fr_phos_ester>  (227) 
0

>  <fr_piperdine>  (227) 
0

>  <fr_piperzine>  (227) 
0

>  <fr_priamide>  (227) 
0

>  <fr_prisulfonamd>  (227) 
0

>  <fr_pyridine>  (227) 
1

>  <fr_quatN>  (227) 
0

>  <fr_sulfide>  (227) 
0

>  <fr_sulfonamd>  (227) 
0

>  <fr_sulfone>  (227) 
0

>  <fr_term_acetylene>  (227) 
0

>  <fr_tetrazole>  (227) 
0

>  <fr_thiazole>  (227) 
0

>  <fr_thiocyan>  (227) 
0

>  <fr_thiophene>  (227) 
0

>  <fr_unbrch_alkane>  (227) 
0

>  <fr_urea>  (227) 
0

>  <NP_Likeness>  (227) 
-0.787814

$$$$
NU3
     RDKit          3D

  0  0  0  0  0  0  0  0  0  0999 V3000
M  V30 BEGIN CTAB
M  V30 COUNTS 30 32 0 0 0
M  V30 BEGIN ATOM
M  V30 1 O 12.556000 82.745000 84.489000 0
M  V30 2 O 9.123000 92.814000 85.699000 0
M  V30 3 N 12.680000 84.997000 84.745000 0
M  V30 4 N 8.045000 86.416000 85.178000 0
M  V30 5 N 10.287000 86.472000 85.017000 0
M  V30 6 C 8.366000 82.753000 84.558000 0
M  V30 7 C 7.693000 83.939000 84.805000 0
M  V30 8 C 10.306000 90.749000 85.705000 0
M  V30 9 C 7.930000 90.754000 85.345000 0
M  V30 10 C 9.752000 82.740000 84.450000 0
M  V30 11 C 10.318000 89.367000 85.600000 0
M  V30 12 C 7.946000 89.370000 85.252000 0
M  V30 13 C 11.991000 83.841000 84.625000 0
M  V30 14 C 9.112000 91.447000 85.572000 0
M  V30 15 C 9.177000 87.187000 85.197000 0
M  V30 16 C 8.443000 85.107000 84.944000 0
M  V30 17 C 9.143000 88.658000 85.362000 0
M  V30 18 C 9.872000 85.150000 84.852000 0
M  V30 19 C 10.493000 83.914000 84.619000 0
M  V30 20 H 8.272500 93.331600 85.606100 0
M  V30 21 H 12.190200 85.862100 84.853100 0
M  V30 22 H 13.679800 84.987500 84.725700 0
M  V30 23 H 7.106800 86.736400 85.308400 0
M  V30 24 H 7.851600 81.901400 84.456800 0
M  V30 25 H 6.696100 83.957100 84.881600 0
M  V30 26 H 11.157600 91.244300 85.876700 0
M  V30 27 H 7.068300 91.252200 85.248700 0
M  V30 28 H 10.224300 81.881700 84.249300 0
M  V30 29 H 11.181700 88.872400 85.696400 0
M  V30 30 H 7.089500 88.875400 85.104300 0
M  V30 END ATOM
M  V30 BEGIN BOND
M  V30 1 2 1 13
M  V30 2 1 2 14
M  V30 3 1 3 13
M  V30 4 1 4 15
M  V30 5 1 4 16
M  V30 6 2 5 15
M  V30 7 1 5 18
M  V30 8 1 6 7
M  V30 9 2 6 10
M  V30 10 2 7 16
M  V30 11 2 8 11
M  V30 12 1 8 14
M  V30 13 1 9 12
M  V30 14 2 9 14
M  V30 15 1 10 19
M  V30 16 1 11 17
M  V30 17 2 12 17
M  V30 18 1 13 19
M  V30 19 1 15 17
M  V30 20 1 16 18
M  V30 21 2 18 19
M  V30 22 1 2 20
M  V30 23 1 3 21
M  V30 24 1 3 22
M  V30 25 1 4 23
M  V30 26 1 6 24
M  V30 27 1 7 25
M  V30 28 1 8 26
M  V30 29 1 9 27
M  V30 30 1 10 28
M  V30 31 1 11 29
M  V30 32 1 12 30
M  V30 END BOND
M  V30 END CTAB
M  END
>  <Ligand_Instance>  (228) 
4C35_NU3_A_1351

>  <Dataset>  (228) 
PDB

>  <PDB_ID>  (228) 
4C35

>  <Chain>  (228) 
A

>  <Resi>  (228) 
1351

>  <Num_Resolved_Atoms>  (228) 
19

>  <Num_H_Atoms_ProtBoundConf>  (228) 
11

>  <Pocket>  (228) 
A, B

>  <Name>  (228) 
2-(4-hydroxyphenyl)-1H-benzimidazole-4-carboxamide

>  <Num_Not_Resolved_Atoms>  (228) 
0

>  <ATP_Site>  (228) 
True

>  <Peripheral>  (228) 
False

>  <Standardized_SMILES>  (228) 
[H]OC1=C([H])C([H])=C(C2=NC3=C(C(=O)N([H])[H])C([H])=C([H])C([H])=C3N2[H])C([H])=C1[H]

>  <2D_Mol_H>  (228) 
<rdkit.Chem.rdchem.Mol object at 0x77059d81e960>

>  <MW>  (228) 
253.261

>  <HBA>  (228) 
3

>  <HBD>  (228) 
3

>  <LogP>  (228) 
2.0344

>  <NRB>  (228) 
3

>  <TPSA>  (228) 
92.0

>  <Num_Heavy_Atoms>  (228) 
19

>  <Ro5>  (228) 
[True, True, True, True, True, True]

>  <Ro5_Fulfilled>  (228) 
True

>  <Ro3>  (228) 
[True, True, True, True]

>  <Ro3_Fulfilled>  (228) 
True

>  <Fsp3>  (228) 
0.0

>  <Fsp3_0.42>  (228) 
False

>  <Fsp3_0.45>  (228) 
False

>  <Stereogenic_Carbons>  (228) 
0

>  <C_Atoms>  (228) 
14

>  <FCStereo>  (228) 
0.0

>  <SPS>  (228) 
204

>  <nSPS>  (228) 
10.736842

>  <PBF>  (228) 
0.137513

>  <PBF_0.6>  (228) 
False

>  <nPBF>  (228) 
0.007238

>  <nPBF_0.016>  (228) 
False

>  <PMI1>  (228) 
541.791849

>  <PMI2>  (228) 
2770.459483

>  <PMI3>  (228) 
3305.184432

>  <NPR1>  (228) 
0.163922

>  <NPR2>  (228) 
0.838216

>  <Sum_NPR>  (228) 
1.002138

>  <Sum_NPR_1.07>  (228) 
False

>  <Sum_NPR_1.2>  (228) 
False

>  <MaxAbsEStateIndex>  (228) 
11.340611

>  <MaxEStateIndex>  (228) 
11.340611

>  <MinAbsEStateIndex>  (228) 
0.192302

>  <MinEStateIndex>  (228) 
-0.505226

>  <qed>  (228) 
0.652094

>  <MolWt>  (228) 
253.261

>  <HeavyAtomMolWt>  (228) 
242.173

>  <ExactMolWt>  (228) 
253.085127

>  <NumValenceElectrons>  (228) 
94

>  <NumRadicalElectrons>  (228) 
0

>  <MaxPartialCharge>  (228) 
0.250474

>  <MinPartialCharge>  (228) 
-0.507966

>  <MaxAbsPartialCharge>  (228) 
0.507966

>  <MinAbsPartialCharge>  (228) 
0.250474

>  <FpDensityMorgan1>  (228) 
1.157895

>  <FpDensityMorgan2>  (228) 
1.894737

>  <FpDensityMorgan3>  (228) 
2.578947

>  <BCUT2D_MWHI>  (228) 
16.254676

>  <BCUT2D_MWLOW>  (228) 
10.156869

>  <BCUT2D_CHGHI>  (228) 
2.113071

>  <BCUT2D_CHGLO>  (228) 
-1.957364

>  <BCUT2D_LOGPHI>  (228) 
2.23547

>  <BCUT2D_LOGPLOW>  (228) 
-2.10735

>  <BCUT2D_MRHI>  (228) 
6.040911

>  <BCUT2D_MRLOW>  (228) 
0.100147

>  <AvgIpc>  (228) 
2.823013

>  <BalabanJ>  (228) 
2.188042

>  <BertzCT>  (228) 
759.962054

>  <Chi0>  (228) 
13.405413

>  <Chi0n>  (228) 
9.921478

>  <Chi0v>  (228) 
9.921478

>  <Chi1>  (228) 
9.147867

>  <Chi1n>  (228) 
5.729004

>  <Chi1v>  (228) 
5.729004

>  <Chi2n>  (228) 
4.198275

>  <Chi2v>  (228) 
4.198275

>  <Chi3n>  (228) 
2.918902

>  <Chi3v>  (228) 
2.918902

>  <Chi4n>  (228) 
1.986998

>  <Chi4v>  (228) 
1.986998

>  <HallKierAlpha>  (228) 
-2.82

>  <Ipc>  (228) 
34531.092749

>  <Kappa1>  (228) 
11.280655

>  <Kappa2>  (228) 
4.131667

>  <Kappa3>  (228) 
1.907585

>  <LabuteASA>  (228) 
108.259559

>  <PEOE_VSA1>  (228) 
15.824173

>  <PEOE_VSA10>  (228) 
17.090617

>  <PEOE_VSA11>  (228) 
0.0

>  <PEOE_VSA12>  (228) 
0.0

>  <PEOE_VSA13>  (228) 
5.90718

>  <PEOE_VSA14>  (228) 
0.0

>  <PEOE_VSA2>  (228) 
4.794537

>  <PEOE_VSA3>  (228) 
4.983979

>  <PEOE_VSA4>  (228) 
0.0

>  <PEOE_VSA5>  (228) 
0.0

>  <PEOE_VSA6>  (228) 
6.066367

>  <PEOE_VSA7>  (228) 
36.398202

>  <PEOE_VSA8>  (228) 
5.563451

>  <PEOE_VSA9>  (228) 
11.080152

>  <SMR_VSA1>  (228) 
9.901065

>  <SMR_VSA10>  (228) 
16.940581

>  <SMR_VSA2>  (228) 
0.0

>  <SMR_VSA3>  (228) 
9.967957

>  <SMR_VSA4>  (228) 
5.733667

>  <SMR_VSA5>  (228) 
0.0

>  <SMR_VSA6>  (228) 
0.0

>  <SMR_VSA7>  (228) 
48.028021

>  <SMR_VSA8>  (228) 
0.0

>  <SMR_VSA9>  (228) 
17.137368

>  <SlogP_VSA1>  (228) 
5.733667

>  <SlogP_VSA10>  (228) 
0.0

>  <SlogP_VSA11>  (228) 
5.749512

>  <SlogP_VSA12>  (228) 
0.0

>  <SlogP_VSA2>  (228) 
20.981664

>  <SlogP_VSA3>  (228) 
0.0

>  <SlogP_VSA4>  (228) 
0.0

>  <SlogP_VSA5>  (228) 
10.357989

>  <SlogP_VSA6>  (228) 
42.464569

>  <SlogP_VSA7>  (228) 
0.0

>  <SlogP_VSA8>  (228) 
22.421257

>  <SlogP_VSA9>  (228) 
0.0

>  <EState_VSA1>  (228) 
5.90718

>  <EState_VSA10>  (228) 
9.901065

>  <EState_VSA11>  (228) 
0.0

>  <EState_VSA2>  (228) 
5.749512

>  <EState_VSA3>  (228) 
16.904557

>  <EState_VSA4>  (228) 
11.080152

>  <EState_VSA5>  (228) 
0.0

>  <EState_VSA6>  (228) 
36.398202

>  <EState_VSA7>  (228) 
6.066367

>  <EState_VSA8>  (228) 
9.967957

>  <EState_VSA9>  (228) 
5.733667

>  <VSA_EState1>  (228) 
0.0

>  <VSA_EState10>  (228) 
0.0

>  <VSA_EState2>  (228) 
18.862495

>  <VSA_EState3>  (228) 
9.268474

>  <VSA_EState4>  (228) 
7.836259

>  <VSA_EState5>  (228) 
0.315502

>  <VSA_EState6>  (228) 
11.883937

>  <VSA_EState7>  (228) 
0.0

>  <VSA_EState8>  (228) 
0.0

>  <VSA_EState9>  (228) 
0.0

>  <FractionCSP3>  (228) 
0.0

>  <HeavyAtomCount>  (228) 
19

>  <NHOHCount>  (228) 
4

>  <NOCount>  (228) 
5

>  <NumAliphaticCarbocycles>  (228) 
0

>  <NumAliphaticHeterocycles>  (228) 
0

>  <NumAliphaticRings>  (228) 
0

>  <NumAromaticCarbocycles>  (228) 
2

>  <NumAromaticHeterocycles>  (228) 
1

>  <NumAromaticRings>  (228) 
3

>  <NumHAcceptors>  (228) 
3

>  <NumHDonors>  (228) 
3

>  <NumHeteroatoms>  (228) 
5

>  <NumRotatableBonds>  (228) 
2

>  <NumSaturatedCarbocycles>  (228) 
0

>  <NumSaturatedHeterocycles>  (228) 
0

>  <NumSaturatedRings>  (228) 
0

>  <RingCount>  (228) 
3

>  <MolLogP>  (228) 
2.0344

>  <MolMR>  (228) 
71.7124

>  <fr_Al_COO>  (228) 
0

>  <fr_Al_OH>  (228) 
0

>  <fr_Al_OH_noTert>  (228) 
0

>  <fr_ArN>  (228) 
0

>  <fr_Ar_COO>  (228) 
0

>  <fr_Ar_N>  (228) 
2

>  <fr_Ar_NH>  (228) 
1

>  <fr_Ar_OH>  (228) 
1

>  <fr_COO>  (228) 
0

>  <fr_COO2>  (228) 
0

>  <fr_C_O>  (228) 
1

>  <fr_C_O_noCOO>  (228) 
1

>  <fr_C_S>  (228) 
0

>  <fr_HOCCN>  (228) 
0

>  <fr_Imine>  (228) 
0

>  <fr_NH0>  (228) 
1

>  <fr_NH1>  (228) 
1

>  <fr_NH2>  (228) 
1

>  <fr_N_O>  (228) 
0

>  <fr_Ndealkylation1>  (228) 
0

>  <fr_Ndealkylation2>  (228) 
0

>  <fr_Nhpyrrole>  (228) 
1

>  <fr_SH>  (228) 
0

>  <fr_aldehyde>  (228) 
0

>  <fr_alkyl_carbamate>  (228) 
0

>  <fr_alkyl_halide>  (228) 
0

>  <fr_allylic_oxid>  (228) 
0

>  <fr_amide>  (228) 
1

>  <fr_amidine>  (228) 
0

>  <fr_aniline>  (228) 
0

>  <fr_aryl_methyl>  (228) 
0

>  <fr_azide>  (228) 
0

>  <fr_azo>  (228) 
0

>  <fr_barbitur>  (228) 
0

>  <fr_benzene>  (228) 
2

>  <fr_benzodiazepine>  (228) 
0

>  <fr_bicyclic>  (228) 
1

>  <fr_diazo>  (228) 
0

>  <fr_dihydropyridine>  (228) 
0

>  <fr_epoxide>  (228) 
0

>  <fr_ester>  (228) 
0

>  <fr_ether>  (228) 
0

>  <fr_furan>  (228) 
0

>  <fr_guanido>  (228) 
0

>  <fr_halogen>  (228) 
0

>  <fr_hdrzine>  (228) 
0

>  <fr_hdrzone>  (228) 
0

>  <fr_imidazole>  (228) 
1

>  <fr_imide>  (228) 
0

>  <fr_isocyan>  (228) 
0

>  <fr_isothiocyan>  (228) 
0

>  <fr_ketone>  (228) 
0

>  <fr_ketone_Topliss>  (228) 
0

>  <fr_lactam>  (228) 
0

>  <fr_lactone>  (228) 
0

>  <fr_methoxy>  (228) 
0

>  <fr_morpholine>  (228) 
0

>  <fr_nitrile>  (228) 
0

>  <fr_nitro>  (228) 
0

>  <fr_nitro_arom>  (228) 
0

>  <fr_nitro_arom_nonortho>  (228) 
0

>  <fr_nitroso>  (228) 
0

>  <fr_oxazole>  (228) 
0

>  <fr_oxime>  (228) 
0

>  <fr_para_hydroxylation>  (228) 
1

>  <fr_phenol>  (228) 
1

>  <fr_phenol_noOrthoHbond>  (228) 
1

>  <fr_phos_acid>  (228) 
0

>  <fr_phos_ester>  (228) 
0

>  <fr_piperdine>  (228) 
0

>  <fr_piperzine>  (228) 
0

>  <fr_priamide>  (228) 
1

>  <fr_prisulfonamd>  (228) 
0

>  <fr_pyridine>  (228) 
0

>  <fr_quatN>  (228) 
0

>  <fr_sulfide>  (228) 
0

>  <fr_sulfonamd>  (228) 
0

>  <fr_sulfone>  (228) 
0

>  <fr_term_acetylene>  (228) 
0

>  <fr_tetrazole>  (228) 
0

>  <fr_thiazole>  (228) 
0

>  <fr_thiocyan>  (228) 
0

>  <fr_thiophene>  (228) 
0

>  <fr_unbrch_alkane>  (228) 
0

>  <fr_urea>  (228) 
0

>  <NP_Likeness>  (228) 
-0.414792

$$$$
NVV
     RDKit          3D

  0  0  0  0  0  0  0  0  0  0999 V3000
M  V30 BEGIN CTAB
M  V30 COUNTS 42 45 0 0 0
M  V30 BEGIN ATOM
M  V30 1 I 22.699000 10.169000 2.247000 0
M  V30 2 O 32.596000 10.417000 -4.527000 0
M  V30 3 O 25.230000 11.757000 -3.585000 0
M  V30 4 N 24.984000 7.424000 -2.982000 0 CHG=1
M  V30 5 N 32.583000 10.067000 -2.306000 0
M  V30 6 N 30.507000 9.586000 -1.221000 0
M  V30 7 C 31.895000 9.794000 -1.198000 0
M  V30 8 C 22.909000 13.440000 -0.603000 0
M  V30 9 C 24.320000 8.721000 -2.768000 0
M  V30 10 C 26.227000 7.755000 -3.732000 0
M  V30 11 C 22.623000 12.657000 0.523000 0
M  V30 12 C 23.699000 12.911000 -1.623000 0
M  V30 13 C 28.460000 9.868000 -4.805000 0
M  V30 14 C 29.841000 10.075000 -4.777000 0
M  V30 15 C 23.919000 10.835000 -0.419000 0
M  V30 16 C 28.458000 9.476000 -2.432000 0
M  V30 17 C 23.130000 11.361000 0.611000 0
M  V30 18 C 31.930000 10.174000 -3.521000 0
M  V30 19 C 25.001000 11.094000 -2.579000 0
M  V30 20 C 29.842000 9.673000 -2.393000 0
M  V30 21 C 24.214000 11.610000 -1.536000 0
M  V30 22 C 27.747000 9.579000 -3.631000 0
M  V30 23 C 30.542000 9.979000 -3.569000 0
M  V30 24 C 25.492000 9.639000 -2.482000 0 CFG=2
M  V30 25 C 26.351000 9.305000 -3.697000 0 CFG=2
M  V30 26 H 24.400800 6.813400 -3.517800 0
M  V30 27 H 33.573700 10.194800 -2.259200 0
M  V30 28 H 32.380900 9.735700 -0.326000 0
M  V30 29 H 22.549600 14.370400 -0.674600 0
M  V30 30 H 23.691700 8.682600 -1.990900 0
M  V30 31 H 23.822300 9.012500 -3.584900 0
M  V30 32 H 26.158700 7.433400 -4.676400 0
M  V30 33 H 27.020200 7.333200 -3.292800 0
M  V30 34 H 22.057600 13.026000 1.260600 0
M  V30 35 H 23.901200 13.467900 -2.428600 0
M  V30 36 H 27.971300 9.926600 -5.675500 0
M  V30 37 H 30.330100 10.292300 -5.621700 0
M  V30 38 H 24.270800 9.901400 -0.351700 0
M  V30 39 H 27.968700 9.257700 -1.587700 0
M  V30 40 H 25.945600 9.436000 -1.614200 0
M  V30 41 H 25.955900 9.705100 -4.523900 0
M  V30 42 H 25.204300 6.992000 -2.107400 0
M  V30 END ATOM
M  V30 BEGIN BOND
M  V30 1 1 1 17
M  V30 2 2 2 18
M  V30 3 2 3 19
M  V30 4 1 4 9
M  V30 5 1 4 10
M  V30 6 1 5 7
M  V30 7 1 5 18
M  V30 8 2 6 7
M  V30 9 1 6 20
M  V30 10 2 8 11
M  V30 11 1 8 12
M  V30 12 1 9 24
M  V30 13 1 10 25
M  V30 14 1 11 17
M  V30 15 2 12 21
M  V30 16 1 13 14
M  V30 17 2 13 22
M  V30 18 2 14 23
M  V30 19 2 15 17
M  V30 20 1 15 21
M  V30 21 2 16 20
M  V30 22 1 16 22
M  V30 23 1 18 23
M  V30 24 1 19 21
M  V30 25 1 19 24
M  V30 26 1 20 23
M  V30 27 1 22 25
M  V30 28 1 24 25
M  V30 29 1 4 26
M  V30 30 1 5 27
M  V30 31 1 7 28
M  V30 32 1 8 29
M  V30 33 1 9 30
M  V30 34 1 9 31
M  V30 35 1 10 32
M  V30 36 1 10 33
M  V30 37 1 11 34
M  V30 38 1 12 35
M  V30 39 1 13 36
M  V30 40 1 14 37
M  V30 41 1 15 38
M  V30 42 1 16 39
M  V30 43 1 24 40 CFG=1
M  V30 44 1 25 41 CFG=3
M  V30 45 1 4 42
M  V30 END BOND
M  V30 END CTAB
M  END
>  <Ligand_Instance>  (229) 
4UJ2_NVV_A_1351

>  <Dataset>  (229) 
PDB

>  <PDB_ID>  (229) 
4UJ2

>  <Chain>  (229) 
A

>  <Resi>  (229) 
1351

>  <Num_Resolved_Atoms>  (229) 
25

>  <Num_H_Atoms_ProtBoundConf>  (229) 
17

>  <Pocket>  (229) 
A

>  <Name>  (229) 
7-[(3S,4R)-4-(3-iodanylphenyl)carbonylpyrrolidin-3-yl]-3H-quinazolin-4-one

>  <Num_Not_Resolved_Atoms>  (229) 
0

>  <ATP_Site>  (229) 
True

>  <Peripheral>  (229) 
False

>  <Standardized_SMILES>  (229) 
[H]C1=NC2=C([H])C([C@@]3([H])C([H])([H])[N+]([H])([H])C([H])([H])[C@]3([H])C(=O)C3=C([H])C([H])=C([H])C(I)=C3[H])=C([H])C([H])=C2C(=O)N1[H]

>  <2D_Mol_H>  (229) 
<rdkit.Chem.rdchem.Mol object at 0x77059d81ea40>

>  <MW>  (229) 
446.268

>  <HBA>  (229) 
3

>  <HBD>  (229) 
2

>  <LogP>  (229) 
1.6874

>  <NRB>  (229) 
3

>  <TPSA>  (229) 
79.43

>  <Num_Heavy_Atoms>  (229) 
25

>  <Ro5>  (229) 
[True, True, True, True, True, True]

>  <Ro5_Fulfilled>  (229) 
True

>  <Ro3>  (229) 
[False, True, True, True]

>  <Ro3_Fulfilled>  (229) 
True

>  <Fsp3>  (229) 
0.210526

>  <Fsp3_0.42>  (229) 
False

>  <Fsp3_0.45>  (229) 
False

>  <Stereogenic_Carbons>  (229) 
2

>  <C_Atoms>  (229) 
19

>  <FCStereo>  (229) 
0.105263

>  <SPS>  (229) 
501

>  <nSPS>  (229) 
20.04

>  <PBF>  (229) 
1.129493

>  <PBF_0.6>  (229) 
True

>  <nPBF>  (229) 
0.04518

>  <nPBF_0.016>  (229) 
True

>  <PMI1>  (229) 
1731.328726

>  <PMI2>  (229) 
7759.278659

>  <PMI3>  (229) 
8192.017152

>  <NPR1>  (229) 
0.211343

>  <NPR2>  (229) 
0.947176

>  <Sum_NPR>  (229) 
1.158519

>  <Sum_NPR_1.07>  (229) 
True

>  <Sum_NPR_1.2>  (229) 
False

>  <MaxAbsEStateIndex>  (229) 
13.006651

>  <MaxEStateIndex>  (229) 
13.006651

>  <MinAbsEStateIndex>  (229) 
0.057735

>  <MinEStateIndex>  (229) 
-0.137943

>  <qed>  (229) 
0.475032

>  <MolWt>  (229) 
446.268

>  <HeavyAtomMolWt>  (229) 
429.132

>  <ExactMolWt>  (229) 
446.036001

>  <NumValenceElectrons>  (229) 
126

>  <NumRadicalElectrons>  (229) 
0

>  <MaxPartialCharge>  (229) 
0.258052

>  <MinPartialCharge>  (229) 
-0.345089

>  <MaxAbsPartialCharge>  (229) 
0.345089

>  <MinAbsPartialCharge>  (229) 
0.258052

>  <FpDensityMorgan1>  (229) 
1.2

>  <FpDensityMorgan2>  (229) 
2.08

>  <FpDensityMorgan3>  (229) 
2.92

>  <BCUT2D_MWHI>  (229) 
126.912704

>  <BCUT2D_MWLOW>  (229) 
9.833772

>  <BCUT2D_CHGHI>  (229) 
2.373644

>  <BCUT2D_CHGLO>  (229) 
-2.156853

>  <BCUT2D_LOGPHI>  (229) 
2.294726

>  <BCUT2D_LOGPLOW>  (229) 
-2.813073

>  <BCUT2D_MRHI>  (229) 
14.111918

>  <BCUT2D_MRLOW>  (229) 
-0.637601

>  <AvgIpc>  (229) 
3.105067

>  <BalabanJ>  (229) 
1.696008

>  <BertzCT>  (229) 
1014.72188

>  <Chi0>  (229) 
17.388541

>  <Chi0n>  (229) 
13.406741

>  <Chi0v>  (229) 
15.564239

>  <Chi1>  (229) 
12.13103

>  <Chi1n>  (229) 
8.220789

>  <Chi1v>  (229) 
9.299538

>  <Chi2n>  (229) 
6.355911

>  <Chi2v>  (229) 
7.601543

>  <Chi3n>  (229) 
4.866654

>  <Chi3v>  (229) 
5.537646

>  <Chi4n>  (229) 
3.614172

>  <Chi4v>  (229) 
4.157272

>  <HallKierAlpha>  (229) 
-2.06

>  <Ipc>  (229) 
901050.141588

>  <Kappa1>  (229) 
16.410685

>  <Kappa2>  (229) 
6.683367

>  <Kappa3>  (229) 
3.112569

>  <LabuteASA>  (229) 
157.563082

>  <PEOE_VSA1>  (229) 
10.300767

>  <PEOE_VSA10>  (229) 
0.0

>  <PEOE_VSA11>  (229) 
5.783245

>  <PEOE_VSA12>  (229) 
0.0

>  <PEOE_VSA13>  (229) 
5.559267

>  <PEOE_VSA14>  (229) 
0.0

>  <PEOE_VSA2>  (229) 
9.589074

>  <PEOE_VSA3>  (229) 
4.983979

>  <PEOE_VSA4>  (229) 
0.0

>  <PEOE_VSA5>  (229) 
0.0

>  <PEOE_VSA6>  (229) 
18.199101

>  <PEOE_VSA7>  (229) 
52.41979

>  <PEOE_VSA8>  (229) 
15.05154

>  <PEOE_VSA9>  (229) 
36.237664

>  <SMR_VSA1>  (229) 
10.111326

>  <SMR_VSA10>  (229) 
39.277041

>  <SMR_VSA2>  (229) 
0.0

>  <SMR_VSA3>  (229) 
9.967957

>  <SMR_VSA4>  (229) 
5.917906

>  <SMR_VSA5>  (229) 
5.917906

>  <SMR_VSA6>  (229) 
13.089513

>  <SMR_VSA7>  (229) 
73.842779

>  <SMR_VSA8>  (229) 
0.0

>  <SMR_VSA9>  (229) 
0.0

>  <SlogP_VSA1>  (229) 
10.876055

>  <SlogP_VSA10>  (229) 
0.0

>  <SlogP_VSA11>  (229) 
0.0

>  <SlogP_VSA12>  (229) 
22.590871

>  <SlogP_VSA2>  (229) 
28.840715

>  <SlogP_VSA3>  (229) 
0.0

>  <SlogP_VSA4>  (229) 
9.488088

>  <SlogP_VSA5>  (229) 
21.839346

>  <SlogP_VSA6>  (229) 
53.586427

>  <SlogP_VSA7>  (229) 
0.0

>  <SlogP_VSA8>  (229) 
10.902925

>  <SlogP_VSA9>  (229) 
0.0

>  <EState_VSA1>  (229) 
0.0

>  <EState_VSA10>  (229) 
9.589074

>  <EState_VSA11>  (229) 
0.0

>  <EState_VSA2>  (229) 
23.178324

>  <EState_VSA3>  (229) 
10.902925

>  <EState_VSA4>  (229) 
27.786598

>  <EState_VSA5>  (229) 
6.32732

>  <EState_VSA6>  (229) 
0.0

>  <EState_VSA7>  (229) 
42.464569

>  <EState_VSA8>  (229) 
37.875616

>  <EState_VSA9>  (229) 
0.0

>  <VSA_EState1>  (229) 
1.06584

>  <VSA_EState10>  (229) 
2.230444

>  <VSA_EState2>  (229) 
31.702313

>  <VSA_EState3>  (229) 
2.768552

>  <VSA_EState4>  (229) 
2.380108

>  <VSA_EState5>  (229) 
0.268271

>  <VSA_EState6>  (229) 
13.459827

>  <VSA_EState7>  (229) 
1.420398

>  <VSA_EState8>  (229) 
1.657581

>  <VSA_EState9>  (229) 
0.0

>  <FractionCSP3>  (229) 
0.210526

>  <HeavyAtomCount>  (229) 
25

>  <NHOHCount>  (229) 
3

>  <NOCount>  (229) 
5

>  <NumAliphaticCarbocycles>  (229) 
0

>  <NumAliphaticHeterocycles>  (229) 
1

>  <NumAliphaticRings>  (229) 
1

>  <NumAromaticCarbocycles>  (229) 
2

>  <NumAromaticHeterocycles>  (229) 
1

>  <NumAromaticRings>  (229) 
3

>  <NumHAcceptors>  (229) 
3

>  <NumHDonors>  (229) 
2

>  <NumHeteroatoms>  (229) 
6

>  <NumRotatableBonds>  (229) 
3

>  <NumSaturatedCarbocycles>  (229) 
0

>  <NumSaturatedHeterocycles>  (229) 
1

>  <NumSaturatedRings>  (229) 
1

>  <RingCount>  (229) 
4

>  <MolLogP>  (229) 
1.6874

>  <MolMR>  (229) 
103.7436

>  <fr_Al_COO>  (229) 
0

>  <fr_Al_OH>  (229) 
0

>  <fr_Al_OH_noTert>  (229) 
0

>  <fr_ArN>  (229) 
0

>  <fr_Ar_COO>  (229) 
0

>  <fr_Ar_N>  (229) 
2

>  <fr_Ar_NH>  (229) 
1

>  <fr_Ar_OH>  (229) 
0

>  <fr_COO>  (229) 
0

>  <fr_COO2>  (229) 
0

>  <fr_C_O>  (229) 
1

>  <fr_C_O_noCOO>  (229) 
1

>  <fr_C_S>  (229) 
0

>  <fr_HOCCN>  (229) 
0

>  <fr_Imine>  (229) 
0

>  <fr_NH0>  (229) 
1

>  <fr_NH1>  (229) 
1

>  <fr_NH2>  (229) 
1

>  <fr_N_O>  (229) 
0

>  <fr_Ndealkylation1>  (229) 
0

>  <fr_Ndealkylation2>  (229) 
0

>  <fr_Nhpyrrole>  (229) 
1

>  <fr_SH>  (229) 
0

>  <fr_aldehyde>  (229) 
0

>  <fr_alkyl_carbamate>  (229) 
0

>  <fr_alkyl_halide>  (229) 
0

>  <fr_allylic_oxid>  (229) 
0

>  <fr_amide>  (229) 
0

>  <fr_amidine>  (229) 
0

>  <fr_aniline>  (229) 
0

>  <fr_aryl_methyl>  (229) 
0

>  <fr_azide>  (229) 
0

>  <fr_azo>  (229) 
0

>  <fr_barbitur>  (229) 
0

>  <fr_benzene>  (229) 
2

>  <fr_benzodiazepine>  (229) 
0

>  <fr_bicyclic>  (229) 
1

>  <fr_diazo>  (229) 
0

>  <fr_dihydropyridine>  (229) 
0

>  <fr_epoxide>  (229) 
0

>  <fr_ester>  (229) 
0

>  <fr_ether>  (229) 
0

>  <fr_furan>  (229) 
0

>  <fr_guanido>  (229) 
0

>  <fr_halogen>  (229) 
1

>  <fr_hdrzine>  (229) 
0

>  <fr_hdrzone>  (229) 
0

>  <fr_imidazole>  (229) 
0

>  <fr_imide>  (229) 
0

>  <fr_isocyan>  (229) 
0

>  <fr_isothiocyan>  (229) 
0

>  <fr_ketone>  (229) 
1

>  <fr_ketone_Topliss>  (229) 
1

>  <fr_lactam>  (229) 
0

>  <fr_lactone>  (229) 
0

>  <fr_methoxy>  (229) 
0

>  <fr_morpholine>  (229) 
0

>  <fr_nitrile>  (229) 
0

>  <fr_nitro>  (229) 
0

>  <fr_nitro_arom>  (229) 
0

>  <fr_nitro_arom_nonortho>  (229) 
0

>  <fr_nitroso>  (229) 
0

>  <fr_oxazole>  (229) 
0

>  <fr_oxime>  (229) 
0

>  <fr_para_hydroxylation>  (229) 
0

>  <fr_phenol>  (229) 
0

>  <fr_phenol_noOrthoHbond>  (229) 
0

>  <fr_phos_acid>  (229) 
0

>  <fr_phos_ester>  (229) 
0

>  <fr_piperdine>  (229) 
0

>  <fr_piperzine>  (229) 
0

>  <fr_priamide>  (229) 
0

>  <fr_prisulfonamd>  (229) 
0

>  <fr_pyridine>  (229) 
0

>  <fr_quatN>  (229) 
1

>  <fr_sulfide>  (229) 
0

>  <fr_sulfonamd>  (229) 
0

>  <fr_sulfone>  (229) 
0

>  <fr_term_acetylene>  (229) 
0

>  <fr_tetrazole>  (229) 
0

>  <fr_thiazole>  (229) 
0

>  <fr_thiocyan>  (229) 
0

>  <fr_thiophene>  (229) 
0

>  <fr_unbrch_alkane>  (229) 
0

>  <fr_urea>  (229) 
0

>  <NP_Likeness>  (229) 
-0.652532

$$$$
NVX
     RDKit          3D

  0  0  0  0  0  0  0  0  0  0999 V3000
M  V30 BEGIN CTAB
M  V30 COUNTS 42 45 0 0 0
M  V30 BEGIN ATOM
M  V30 1 Cl -22.588000 14.573000 -0.139000 0
M  V30 2 O -32.942000 10.371000 4.669000 0
M  V30 3 O -25.020000 11.588000 3.520000 0
M  V30 4 N -25.304000 7.172000 3.099000 0 CHG=1
M  V30 5 N -33.046000 10.054000 2.410000 0
M  V30 6 N -30.943000 9.563000 1.232000 0
M  V30 7 C -32.347000 9.785000 1.285000 0
M  V30 8 C -23.244000 10.932000 -0.874000 0
M  V30 9 C -24.582000 8.447000 2.793000 0
M  V30 10 C -26.692000 7.584000 3.432000 0
M  V30 11 C -22.798000 12.245000 -0.972000 0
M  V30 12 C -23.942000 10.549000 0.288000 0
M  V30 13 C -28.781000 9.767000 4.729000 0
M  V30 14 C -30.172000 10.005000 4.738000 0
M  V30 15 C -23.796000 12.718000 1.235000 0
M  V30 16 C -28.851000 9.387000 2.391000 0
M  V30 17 C -23.095000 13.096000 0.071000 0
M  V30 18 C -32.332000 10.157000 3.593000 0
M  V30 19 C -24.980000 10.939000 2.479000 0
M  V30 20 C -30.246000 9.629000 2.373000 0
M  V30 21 C -24.269000 11.401000 1.346000 0
M  V30 22 C -28.092000 9.494000 3.529000 0
M  V30 23 C -30.937000 9.957000 3.554000 0
M  V30 24 C -25.693000 9.551000 2.445000 0 CFG=2
M  V30 25 C -26.665000 9.205000 3.566000 0 CFG=2
M  V30 26 H -24.880100 6.706100 3.875700 0
M  V30 27 H -34.038600 10.173900 2.389400 0
M  V30 28 H -32.855200 9.738500 0.425000 0
M  V30 29 H -23.073700 10.276300 -1.609500 0
M  V30 30 H -23.972500 8.316200 2.011100 0
M  V30 31 H -24.047900 8.737100 3.587100 0
M  V30 32 H -26.978800 7.169600 4.295700 0
M  V30 33 H -27.319800 7.306800 2.704600 0
M  V30 34 H -22.281700 12.560000 -1.768300 0
M  V30 35 H -24.225600 9.592900 0.361400 0
M  V30 36 H -28.273800 9.792400 5.590500 0
M  V30 37 H -30.626100 10.212600 5.604400 0
M  V30 38 H -23.953600 13.377800 1.969700 0
M  V30 39 H -28.399500 9.126900 1.537500 0
M  V30 40 H -26.102100 9.379000 1.548900 0
M  V30 41 H -26.281500 9.472000 4.450100 0
M  V30 42 H -25.298900 6.566000 2.303600 0
M  V30 END ATOM
M  V30 BEGIN BOND
M  V30 1 1 1 17
M  V30 2 2 2 18
M  V30 3 2 3 19
M  V30 4 1 4 9
M  V30 5 1 4 10
M  V30 6 1 5 7
M  V30 7 1 5 18
M  V30 8 2 6 7
M  V30 9 1 6 20
M  V30 10 2 8 11
M  V30 11 1 8 12
M  V30 12 1 9 24
M  V30 13 1 10 25
M  V30 14 1 11 17
M  V30 15 2 12 21
M  V30 16 1 13 14
M  V30 17 2 13 22
M  V30 18 2 14 23
M  V30 19 2 15 17
M  V30 20 1 15 21
M  V30 21 2 16 20
M  V30 22 1 16 22
M  V30 23 1 18 23
M  V30 24 1 19 21
M  V30 25 1 19 24
M  V30 26 1 20 23
M  V30 27 1 22 25
M  V30 28 1 24 25
M  V30 29 1 4 26
M  V30 30 1 5 27
M  V30 31 1 7 28
M  V30 32 1 8 29
M  V30 33 1 9 30
M  V30 34 1 9 31
M  V30 35 1 10 32
M  V30 36 1 10 33
M  V30 37 1 11 34
M  V30 38 1 12 35
M  V30 39 1 13 36
M  V30 40 1 14 37
M  V30 41 1 15 38
M  V30 42 1 16 39
M  V30 43 1 24 40 CFG=3
M  V30 44 1 25 41 CFG=1
M  V30 45 1 4 42
M  V30 END BOND
M  V30 END CTAB
M  END
>  <Ligand_Instance>  (230) 
4UJ1_NVX_A_1351

>  <Dataset>  (230) 
PDB

>  <PDB_ID>  (230) 
4UJ1

>  <Chain>  (230) 
A

>  <Resi>  (230) 
1351

>  <Num_Resolved_Atoms>  (230) 
25

>  <Num_H_Atoms_ProtBoundConf>  (230) 
17

>  <Pocket>  (230) 
A

>  <Name>  (230) 
7-[(3S,4R)-4-(3-chlorophenyl)carbonylpyrrolidin-3-yl]-3H-quinazolin-4-one

>  <Num_Not_Resolved_Atoms>  (230) 
0

>  <ATP_Site>  (230) 
True

>  <Peripheral>  (230) 
False

>  <Standardized_SMILES>  (230) 
[H]C1=NC2=C([H])C([C@@]3([H])C([H])([H])[N+]([H])([H])C([H])([H])[C@]3([H])C(=O)C3=C([H])C([H])=C([H])C(Cl)=C3[H])=C([H])C([H])=C2C(=O)N1[H]

>  <2D_Mol_H>  (230) 
<rdkit.Chem.rdchem.Mol object at 0x77059d81eb20>

>  <MW>  (230) 
354.817

>  <HBA>  (230) 
3

>  <HBD>  (230) 
2

>  <LogP>  (230) 
1.7362

>  <NRB>  (230) 
3

>  <TPSA>  (230) 
79.43

>  <Num_Heavy_Atoms>  (230) 
25

>  <Ro5>  (230) 
[True, True, True, True, True, True]

>  <Ro5_Fulfilled>  (230) 
True

>  <Ro3>  (230) 
[False, True, True, True]

>  <Ro3_Fulfilled>  (230) 
True

>  <Fsp3>  (230) 
0.210526

>  <Fsp3_0.42>  (230) 
False

>  <Fsp3_0.45>  (230) 
False

>  <Stereogenic_Carbons>  (230) 
2

>  <C_Atoms>  (230) 
19

>  <FCStereo>  (230) 
0.105263

>  <SPS>  (230) 
501

>  <nSPS>  (230) 
20.04

>  <PBF>  (230) 
1.104502

>  <PBF_0.6>  (230) 
True

>  <nPBF>  (230) 
0.04418

>  <nPBF_0.016>  (230) 
True

>  <PMI1>  (230) 
1468.247801

>  <PMI2>  (230) 
5805.79148

>  <PMI3>  (230) 
6430.295369

>  <NPR1>  (230) 
0.228333

>  <NPR2>  (230) 
0.902881

>  <Sum_NPR>  (230) 
1.131214

>  <Sum_NPR_1.07>  (230) 
True

>  <Sum_NPR_1.2>  (230) 
False

>  <MaxAbsEStateIndex>  (230) 
12.951342

>  <MaxEStateIndex>  (230) 
12.951342

>  <MinAbsEStateIndex>  (230) 
0.094416

>  <MinEStateIndex>  (230) 
-0.15177

>  <qed>  (230) 
0.703

>  <MolWt>  (230) 
354.817

>  <HeavyAtomMolWt>  (230) 
337.681

>  <ExactMolWt>  (230) 
354.100381

>  <NumValenceElectrons>  (230) 
126

>  <NumRadicalElectrons>  (230) 
0

>  <MaxPartialCharge>  (230) 
0.258052

>  <MinPartialCharge>  (230) 
-0.345089

>  <MaxAbsPartialCharge>  (230) 
0.345089

>  <MinAbsPartialCharge>  (230) 
0.258052

>  <FpDensityMorgan1>  (230) 
1.2

>  <FpDensityMorgan2>  (230) 
2.08

>  <FpDensityMorgan3>  (230) 
2.92

>  <BCUT2D_MWHI>  (230) 
35.495692

>  <BCUT2D_MWLOW>  (230) 
9.833661

>  <BCUT2D_CHGHI>  (230) 
2.37378

>  <BCUT2D_CHGLO>  (230) 
-2.156539

>  <BCUT2D_LOGPHI>  (230) 
2.296717

>  <BCUT2D_LOGPLOW>  (230) 
-2.813071

>  <BCUT2D_MRHI>  (230) 
6.305385

>  <BCUT2D_MRLOW>  (230) 
-0.637601

>  <AvgIpc>  (230) 
3.105067

>  <BalabanJ>  (230) 
1.696008

>  <BertzCT>  (230) 
1014.72188

>  <Chi0>  (230) 
17.388541

>  <Chi0n>  (230) 
13.406741

>  <Chi0v>  (230) 
14.16267

>  <Chi1>  (230) 
12.13103

>  <Chi1n>  (230) 
8.220789

>  <Chi1v>  (230) 
8.598754

>  <Chi2n>  (230) 
6.355911

>  <Chi2v>  (230) 
6.792347

>  <Chi3n>  (230) 
4.866654

>  <Chi3v>  (230) 
5.101752

>  <Chi4n>  (230) 
3.614172

>  <Chi4v>  (230) 
3.804459

>  <HallKierAlpha>  (230) 
-2.5

>  <Ipc>  (230) 
901050.141588

>  <Kappa1>  (230) 
15.99481

>  <Kappa2>  (230) 
6.425156

>  <Kappa3>  (230) 
2.966122

>  <LabuteASA>  (230) 
148.60451

>  <PEOE_VSA1>  (230) 
10.300767

>  <PEOE_VSA10>  (230) 
0.0

>  <PEOE_VSA11>  (230) 
5.783245

>  <PEOE_VSA12>  (230) 
0.0

>  <PEOE_VSA13>  (230) 
5.559267

>  <PEOE_VSA14>  (230) 
0.0

>  <PEOE_VSA2>  (230) 
9.589074

>  <PEOE_VSA3>  (230) 
4.983979

>  <PEOE_VSA4>  (230) 
0.0

>  <PEOE_VSA5>  (230) 
0.0

>  <PEOE_VSA6>  (230) 
29.800041

>  <PEOE_VSA7>  (230) 
29.82892

>  <PEOE_VSA8>  (230) 
16.503991

>  <PEOE_VSA9>  (230) 
36.237664

>  <SMR_VSA1>  (230) 
10.111326

>  <SMR_VSA10>  (230) 
28.28711

>  <SMR_VSA2>  (230) 
0.0

>  <SMR_VSA3>  (230) 
9.967957

>  <SMR_VSA4>  (230) 
5.917906

>  <SMR_VSA5>  (230) 
5.917906

>  <SMR_VSA6>  (230) 
13.089513

>  <SMR_VSA7>  (230) 
75.29523

>  <SMR_VSA8>  (230) 
0.0

>  <SMR_VSA9>  (230) 
0.0

>  <SlogP_VSA1>  (230) 
10.876055

>  <SlogP_VSA10>  (230) 
0.0

>  <SlogP_VSA11>  (230) 
0.0

>  <SlogP_VSA12>  (230) 
11.60094

>  <SlogP_VSA2>  (230) 
28.840715

>  <SlogP_VSA3>  (230) 
0.0

>  <SlogP_VSA4>  (230) 
5.917906

>  <SlogP_VSA5>  (230) 
21.839346

>  <SlogP_VSA6>  (230) 
53.586427

>  <SlogP_VSA7>  (230) 
5.022633

>  <SlogP_VSA8>  (230) 
10.902925

>  <SlogP_VSA9>  (230) 
0.0

>  <EState_VSA1>  (230) 
0.0

>  <EState_VSA10>  (230) 
9.589074

>  <EState_VSA11>  (230) 
0.0

>  <EState_VSA2>  (230) 
23.178324

>  <EState_VSA3>  (230) 
21.48901

>  <EState_VSA4>  (230) 
18.652964

>  <EState_VSA5>  (230) 
6.32732

>  <EState_VSA6>  (230) 
24.265468

>  <EState_VSA7>  (230) 
18.199101

>  <EState_VSA8>  (230) 
15.284746

>  <EState_VSA9>  (230) 
11.60094

>  <VSA_EState1>  (230) 
0.0

>  <VSA_EState10>  (230) 
6.028314

>  <VSA_EState2>  (230) 
31.606985

>  <VSA_EState3>  (230) 
3.289047

>  <VSA_EState4>  (230) 
2.190814

>  <VSA_EState5>  (230) 
0.092683

>  <VSA_EState6>  (230) 
12.744195

>  <VSA_EState7>  (230) 
1.406571

>  <VSA_EState8>  (230) 
1.585835

>  <VSA_EState9>  (230) 
0.0

>  <FractionCSP3>  (230) 
0.210526

>  <HeavyAtomCount>  (230) 
25

>  <NHOHCount>  (230) 
3

>  <NOCount>  (230) 
5

>  <NumAliphaticCarbocycles>  (230) 
0

>  <NumAliphaticHeterocycles>  (230) 
1

>  <NumAliphaticRings>  (230) 
1

>  <NumAromaticCarbocycles>  (230) 
2

>  <NumAromaticHeterocycles>  (230) 
1

>  <NumAromaticRings>  (230) 
3

>  <NumHAcceptors>  (230) 
3

>  <NumHDonors>  (230) 
2

>  <NumHeteroatoms>  (230) 
6

>  <NumRotatableBonds>  (230) 
3

>  <NumSaturatedCarbocycles>  (230) 
0

>  <NumSaturatedHeterocycles>  (230) 
1

>  <NumSaturatedRings>  (230) 
1

>  <RingCount>  (230) 
4

>  <MolLogP>  (230) 
1.7362

>  <MolMR>  (230) 
96.0366

>  <fr_Al_COO>  (230) 
0

>  <fr_Al_OH>  (230) 
0

>  <fr_Al_OH_noTert>  (230) 
0

>  <fr_ArN>  (230) 
0

>  <fr_Ar_COO>  (230) 
0

>  <fr_Ar_N>  (230) 
2

>  <fr_Ar_NH>  (230) 
1

>  <fr_Ar_OH>  (230) 
0

>  <fr_COO>  (230) 
0

>  <fr_COO2>  (230) 
0

>  <fr_C_O>  (230) 
1

>  <fr_C_O_noCOO>  (230) 
1

>  <fr_C_S>  (230) 
0

>  <fr_HOCCN>  (230) 
0

>  <fr_Imine>  (230) 
0

>  <fr_NH0>  (230) 
1

>  <fr_NH1>  (230) 
1

>  <fr_NH2>  (230) 
1

>  <fr_N_O>  (230) 
0

>  <fr_Ndealkylation1>  (230) 
0

>  <fr_Ndealkylation2>  (230) 
0

>  <fr_Nhpyrrole>  (230) 
1

>  <fr_SH>  (230) 
0

>  <fr_aldehyde>  (230) 
0

>  <fr_alkyl_carbamate>  (230) 
0

>  <fr_alkyl_halide>  (230) 
0

>  <fr_allylic_oxid>  (230) 
0

>  <fr_amide>  (230) 
0

>  <fr_amidine>  (230) 
0

>  <fr_aniline>  (230) 
0

>  <fr_aryl_methyl>  (230) 
0

>  <fr_azide>  (230) 
0

>  <fr_azo>  (230) 
0

>  <fr_barbitur>  (230) 
0

>  <fr_benzene>  (230) 
2

>  <fr_benzodiazepine>  (230) 
0

>  <fr_bicyclic>  (230) 
1

>  <fr_diazo>  (230) 
0

>  <fr_dihydropyridine>  (230) 
0

>  <fr_epoxide>  (230) 
0

>  <fr_ester>  (230) 
0

>  <fr_ether>  (230) 
0

>  <fr_furan>  (230) 
0

>  <fr_guanido>  (230) 
0

>  <fr_halogen>  (230) 
1

>  <fr_hdrzine>  (230) 
0

>  <fr_hdrzone>  (230) 
0

>  <fr_imidazole>  (230) 
0

>  <fr_imide>  (230) 
0

>  <fr_isocyan>  (230) 
0

>  <fr_isothiocyan>  (230) 
0

>  <fr_ketone>  (230) 
1

>  <fr_ketone_Topliss>  (230) 
1

>  <fr_lactam>  (230) 
0

>  <fr_lactone>  (230) 
0

>  <fr_methoxy>  (230) 
0

>  <fr_morpholine>  (230) 
0

>  <fr_nitrile>  (230) 
0

>  <fr_nitro>  (230) 
0

>  <fr_nitro_arom>  (230) 
0

>  <fr_nitro_arom_nonortho>  (230) 
0

>  <fr_nitroso>  (230) 
0

>  <fr_oxazole>  (230) 
0

>  <fr_oxime>  (230) 
0

>  <fr_para_hydroxylation>  (230) 
0

>  <fr_phenol>  (230) 
0

>  <fr_phenol_noOrthoHbond>  (230) 
0

>  <fr_phos_acid>  (230) 
0

>  <fr_phos_ester>  (230) 
0

>  <fr_piperdine>  (230) 
0

>  <fr_piperzine>  (230) 
0

>  <fr_priamide>  (230) 
0

>  <fr_prisulfonamd>  (230) 
0

>  <fr_pyridine>  (230) 
0

>  <fr_quatN>  (230) 
1

>  <fr_sulfide>  (230) 
0

>  <fr_sulfonamd>  (230) 
0

>  <fr_sulfone>  (230) 
0

>  <fr_term_acetylene>  (230) 
0

>  <fr_tetrazole>  (230) 
0

>  <fr_thiazole>  (230) 
0

>  <fr_thiocyan>  (230) 
0

>  <fr_thiophene>  (230) 
0

>  <fr_unbrch_alkane>  (230) 
0

>  <fr_urea>  (230) 
0

>  <NP_Likeness>  (230) 
-0.601661

$$$$
NVX
     RDKit          3D

  0  0  0  0  0  0  0  0  0  0999 V3000
M  V30 BEGIN CTAB
M  V30 COUNTS 42 45 0 0 0
M  V30 BEGIN ATOM
M  V30 1 Cl -30.472000 -3.608000 18.930000 0
M  V30 2 O -26.357000 -14.348000 23.374000 0
M  V30 3 O -27.520000 -6.644000 22.326000 0
M  V30 4 N -23.173000 -6.584000 22.081000 0 CHG=1
M  V30 5 N -26.057000 -14.248000 21.111000 0
M  V30 6 N -25.723000 -12.210000 19.955000 0
M  V30 7 C -25.852000 -13.521000 19.991000 0
M  V30 8 C -26.864000 -4.916000 17.932000 0
M  V30 9 C -24.331000 -6.028000 21.363000 0
M  V30 10 C -23.539000 -7.945000 22.489000 0
M  V30 11 C -28.076000 -4.252000 17.906000 0
M  V30 12 C -26.491000 -5.649000 19.043000 0
M  V30 13 C -25.919000 -10.125000 23.563000 0
M  V30 14 C -26.147000 -11.487000 23.569000 0
M  V30 15 C -28.549000 -5.060000 20.133000 0
M  V30 16 C -25.567000 -10.161000 21.191000 0
M  V30 17 C -28.907000 -4.353000 19.001000 0
M  V30 18 C -26.186000 -13.674000 22.362000 0
M  V30 19 C -26.828000 -6.500000 21.330000 0
M  V30 20 C -25.800000 -11.541000 21.179000 0
M  V30 21 C -27.320000 -5.720000 20.158000 0
M  V30 22 C -25.590000 -9.456000 22.395000 0
M  V30 23 C -26.058000 -12.210000 22.382000 0
M  V30 24 C -25.434000 -7.101000 21.275000 0 CFG=2
M  V30 25 C -25.085000 -8.030000 22.472000 0 CFG=2
M  V30 26 H -22.967400 -6.027100 22.885800 0
M  V30 27 H -26.118000 -15.243000 21.031800 0
M  V30 28 H -25.793700 -14.015100 19.123500 0
M  V30 29 H -26.253000 -4.865800 17.141900 0
M  V30 30 H -24.054300 -5.756100 20.441300 0
M  V30 31 H -24.678700 -5.230200 21.855600 0
M  V30 32 H -23.196100 -8.130200 23.409900 0
M  V30 33 H -23.152600 -8.609600 21.849500 0
M  V30 34 H -28.344200 -3.709900 17.109700 0
M  V30 35 H -25.616100 -6.133300 19.045300 0
M  V30 36 H -25.992700 -9.611700 24.418000 0
M  V30 37 H -26.375500 -11.953100 24.423700 0
M  V30 38 H -29.161600 -5.098000 20.922500 0
M  V30 39 H -25.383500 -9.678900 20.334300 0
M  V30 40 H -25.329200 -7.611100 20.421300 0
M  V30 41 H -25.435600 -7.613300 23.310700 0
M  V30 42 H -22.374500 -6.608200 21.479500 0
M  V30 END ATOM
M  V30 BEGIN BOND
M  V30 1 1 1 17
M  V30 2 2 2 18
M  V30 3 2 3 19
M  V30 4 1 4 9
M  V30 5 1 4 10
M  V30 6 1 5 7
M  V30 7 1 5 18
M  V30 8 2 6 7
M  V30 9 1 6 20
M  V30 10 2 8 11
M  V30 11 1 8 12
M  V30 12 1 9 24
M  V30 13 1 10 25
M  V30 14 1 11 17
M  V30 15 2 12 21
M  V30 16 1 13 14
M  V30 17 2 13 22
M  V30 18 2 14 23
M  V30 19 2 15 17
M  V30 20 1 15 21
M  V30 21 2 16 20
M  V30 22 1 16 22
M  V30 23 1 18 23
M  V30 24 1 19 21
M  V30 25 1 19 24
M  V30 26 1 20 23
M  V30 27 1 22 25
M  V30 28 1 24 25
M  V30 29 1 4 26
M  V30 30 1 5 27
M  V30 31 1 7 28
M  V30 32 1 8 29
M  V30 33 1 9 30
M  V30 34 1 9 31
M  V30 35 1 10 32
M  V30 36 1 10 33
M  V30 37 1 11 34
M  V30 38 1 12 35
M  V30 39 1 13 36
M  V30 40 1 14 37
M  V30 41 1 15 38
M  V30 42 1 16 39
M  V30 43 1 24 40 CFG=3
M  V30 44 1 25 41 CFG=1
M  V30 45 1 4 42
M  V30 END BOND
M  V30 END CTAB
M  END
>  <Ligand_Instance>  (231) 
4Z84_NVX_A_401

>  <Dataset>  (231) 
PDB

>  <PDB_ID>  (231) 
4Z84

>  <Chain>  (231) 
A

>  <Resi>  (231) 
401

>  <Num_Resolved_Atoms>  (231) 
25

>  <Num_H_Atoms_ProtBoundConf>  (231) 
17

>  <Pocket>  (231) 
A

>  <Name>  (231) 
7-[(3S,4R)-4-(3-chlorophenyl)carbonylpyrrolidin-3-yl]-3H-quinazolin-4-one

>  <Num_Not_Resolved_Atoms>  (231) 
0

>  <ATP_Site>  (231) 
True

>  <Peripheral>  (231) 
False

>  <Standardized_SMILES>  (231) 
[H]C1=NC2=C([H])C([C@@]3([H])C([H])([H])[N+]([H])([H])C([H])([H])[C@]3([H])C(=O)C3=C([H])C([H])=C([H])C(Cl)=C3[H])=C([H])C([H])=C2C(=O)N1[H]

>  <2D_Mol_H>  (231) 
<rdkit.Chem.rdchem.Mol object at 0x77059d81ec00>

>  <MW>  (231) 
354.817

>  <HBA>  (231) 
3

>  <HBD>  (231) 
2

>  <LogP>  (231) 
1.7362

>  <NRB>  (231) 
3

>  <TPSA>  (231) 
79.43

>  <Num_Heavy_Atoms>  (231) 
25

>  <Ro5>  (231) 
[True, True, True, True, True, True]

>  <Ro5_Fulfilled>  (231) 
True

>  <Ro3>  (231) 
[False, True, True, True]

>  <Ro3_Fulfilled>  (231) 
True

>  <Fsp3>  (231) 
0.210526

>  <Fsp3_0.42>  (231) 
False

>  <Fsp3_0.45>  (231) 
False

>  <Stereogenic_Carbons>  (231) 
2

>  <C_Atoms>  (231) 
19

>  <FCStereo>  (231) 
0.105263

>  <SPS>  (231) 
501

>  <nSPS>  (231) 
20.04

>  <PBF>  (231) 
1.107913

>  <PBF_0.6>  (231) 
True

>  <nPBF>  (231) 
0.044317

>  <nPBF_0.016>  (231) 
True

>  <PMI1>  (231) 
1460.840925

>  <PMI2>  (231) 
5686.76602

>  <PMI3>  (231) 
6263.36562

>  <NPR1>  (231) 
0.233236

>  <NPR2>  (231) 
0.907941

>  <Sum_NPR>  (231) 
1.141177

>  <Sum_NPR_1.07>  (231) 
True

>  <Sum_NPR_1.2>  (231) 
False

>  <MaxAbsEStateIndex>  (231) 
12.951342

>  <MaxEStateIndex>  (231) 
12.951342

>  <MinAbsEStateIndex>  (231) 
0.094416

>  <MinEStateIndex>  (231) 
-0.15177

>  <qed>  (231) 
0.703

>  <MolWt>  (231) 
354.817

>  <HeavyAtomMolWt>  (231) 
337.681

>  <ExactMolWt>  (231) 
354.100381

>  <NumValenceElectrons>  (231) 
126

>  <NumRadicalElectrons>  (231) 
0

>  <MaxPartialCharge>  (231) 
0.258052

>  <MinPartialCharge>  (231) 
-0.345089

>  <MaxAbsPartialCharge>  (231) 
0.345089

>  <MinAbsPartialCharge>  (231) 
0.258052

>  <FpDensityMorgan1>  (231) 
1.2

>  <FpDensityMorgan2>  (231) 
2.08

>  <FpDensityMorgan3>  (231) 
2.92

>  <BCUT2D_MWHI>  (231) 
35.495692

>  <BCUT2D_MWLOW>  (231) 
9.833661

>  <BCUT2D_CHGHI>  (231) 
2.37378

>  <BCUT2D_CHGLO>  (231) 
-2.156539

>  <BCUT2D_LOGPHI>  (231) 
2.296717

>  <BCUT2D_LOGPLOW>  (231) 
-2.813071

>  <BCUT2D_MRHI>  (231) 
6.305385

>  <BCUT2D_MRLOW>  (231) 
-0.637601

>  <AvgIpc>  (231) 
3.105067

>  <BalabanJ>  (231) 
1.696008

>  <BertzCT>  (231) 
1014.72188

>  <Chi0>  (231) 
17.388541

>  <Chi0n>  (231) 
13.406741

>  <Chi0v>  (231) 
14.16267

>  <Chi1>  (231) 
12.13103

>  <Chi1n>  (231) 
8.220789

>  <Chi1v>  (231) 
8.598754

>  <Chi2n>  (231) 
6.355911

>  <Chi2v>  (231) 
6.792347

>  <Chi3n>  (231) 
4.866654

>  <Chi3v>  (231) 
5.101752

>  <Chi4n>  (231) 
3.614172

>  <Chi4v>  (231) 
3.804459

>  <HallKierAlpha>  (231) 
-2.5

>  <Ipc>  (231) 
901050.141588

>  <Kappa1>  (231) 
15.99481

>  <Kappa2>  (231) 
6.425156

>  <Kappa3>  (231) 
2.966122

>  <LabuteASA>  (231) 
148.60451

>  <PEOE_VSA1>  (231) 
10.300767

>  <PEOE_VSA10>  (231) 
0.0

>  <PEOE_VSA11>  (231) 
5.783245

>  <PEOE_VSA12>  (231) 
0.0

>  <PEOE_VSA13>  (231) 
5.559267

>  <PEOE_VSA14>  (231) 
0.0

>  <PEOE_VSA2>  (231) 
9.589074

>  <PEOE_VSA3>  (231) 
4.983979

>  <PEOE_VSA4>  (231) 
0.0

>  <PEOE_VSA5>  (231) 
0.0

>  <PEOE_VSA6>  (231) 
29.800041

>  <PEOE_VSA7>  (231) 
29.82892

>  <PEOE_VSA8>  (231) 
16.503991

>  <PEOE_VSA9>  (231) 
36.237664

>  <SMR_VSA1>  (231) 
10.111326

>  <SMR_VSA10>  (231) 
28.28711

>  <SMR_VSA2>  (231) 
0.0

>  <SMR_VSA3>  (231) 
9.967957

>  <SMR_VSA4>  (231) 
5.917906

>  <SMR_VSA5>  (231) 
5.917906

>  <SMR_VSA6>  (231) 
13.089513

>  <SMR_VSA7>  (231) 
75.29523

>  <SMR_VSA8>  (231) 
0.0

>  <SMR_VSA9>  (231) 
0.0

>  <SlogP_VSA1>  (231) 
10.876055

>  <SlogP_VSA10>  (231) 
0.0

>  <SlogP_VSA11>  (231) 
0.0

>  <SlogP_VSA12>  (231) 
11.60094

>  <SlogP_VSA2>  (231) 
28.840715

>  <SlogP_VSA3>  (231) 
0.0

>  <SlogP_VSA4>  (231) 
5.917906

>  <SlogP_VSA5>  (231) 
21.839346

>  <SlogP_VSA6>  (231) 
53.586427

>  <SlogP_VSA7>  (231) 
5.022633

>  <SlogP_VSA8>  (231) 
10.902925

>  <SlogP_VSA9>  (231) 
0.0

>  <EState_VSA1>  (231) 
0.0

>  <EState_VSA10>  (231) 
9.589074

>  <EState_VSA11>  (231) 
0.0

>  <EState_VSA2>  (231) 
23.178324

>  <EState_VSA3>  (231) 
21.48901

>  <EState_VSA4>  (231) 
18.652964

>  <EState_VSA5>  (231) 
6.32732

>  <EState_VSA6>  (231) 
24.265468

>  <EState_VSA7>  (231) 
18.199101

>  <EState_VSA8>  (231) 
15.284746

>  <EState_VSA9>  (231) 
11.60094

>  <VSA_EState1>  (231) 
0.0

>  <VSA_EState10>  (231) 
6.028314

>  <VSA_EState2>  (231) 
31.606985

>  <VSA_EState3>  (231) 
3.289047

>  <VSA_EState4>  (231) 
2.190814

>  <VSA_EState5>  (231) 
0.092683

>  <VSA_EState6>  (231) 
12.744195

>  <VSA_EState7>  (231) 
1.406571

>  <VSA_EState8>  (231) 
1.585835

>  <VSA_EState9>  (231) 
0.0

>  <FractionCSP3>  (231) 
0.210526

>  <HeavyAtomCount>  (231) 
25

>  <NHOHCount>  (231) 
3

>  <NOCount>  (231) 
5

>  <NumAliphaticCarbocycles>  (231) 
0

>  <NumAliphaticHeterocycles>  (231) 
1

>  <NumAliphaticRings>  (231) 
1

>  <NumAromaticCarbocycles>  (231) 
2

>  <NumAromaticHeterocycles>  (231) 
1

>  <NumAromaticRings>  (231) 
3

>  <NumHAcceptors>  (231) 
3

>  <NumHDonors>  (231) 
2

>  <NumHeteroatoms>  (231) 
6

>  <NumRotatableBonds>  (231) 
3

>  <NumSaturatedCarbocycles>  (231) 
0

>  <NumSaturatedHeterocycles>  (231) 
1

>  <NumSaturatedRings>  (231) 
1

>  <RingCount>  (231) 
4

>  <MolLogP>  (231) 
1.7362

>  <MolMR>  (231) 
96.0366

>  <fr_Al_COO>  (231) 
0

>  <fr_Al_OH>  (231) 
0

>  <fr_Al_OH_noTert>  (231) 
0

>  <fr_ArN>  (231) 
0

>  <fr_Ar_COO>  (231) 
0

>  <fr_Ar_N>  (231) 
2

>  <fr_Ar_NH>  (231) 
1

>  <fr_Ar_OH>  (231) 
0

>  <fr_COO>  (231) 
0

>  <fr_COO2>  (231) 
0

>  <fr_C_O>  (231) 
1

>  <fr_C_O_noCOO>  (231) 
1

>  <fr_C_S>  (231) 
0

>  <fr_HOCCN>  (231) 
0

>  <fr_Imine>  (231) 
0

>  <fr_NH0>  (231) 
1

>  <fr_NH1>  (231) 
1

>  <fr_NH2>  (231) 
1

>  <fr_N_O>  (231) 
0

>  <fr_Ndealkylation1>  (231) 
0

>  <fr_Ndealkylation2>  (231) 
0

>  <fr_Nhpyrrole>  (231) 
1

>  <fr_SH>  (231) 
0

>  <fr_aldehyde>  (231) 
0

>  <fr_alkyl_carbamate>  (231) 
0

>  <fr_alkyl_halide>  (231) 
0

>  <fr_allylic_oxid>  (231) 
0

>  <fr_amide>  (231) 
0

>  <fr_amidine>  (231) 
0

>  <fr_aniline>  (231) 
0

>  <fr_aryl_methyl>  (231) 
0

>  <fr_azide>  (231) 
0

>  <fr_azo>  (231) 
0

>  <fr_barbitur>  (231) 
0

>  <fr_benzene>  (231) 
2

>  <fr_benzodiazepine>  (231) 
0

>  <fr_bicyclic>  (231) 
1

>  <fr_diazo>  (231) 
0

>  <fr_dihydropyridine>  (231) 
0

>  <fr_epoxide>  (231) 
0

>  <fr_ester>  (231) 
0

>  <fr_ether>  (231) 
0

>  <fr_furan>  (231) 
0

>  <fr_guanido>  (231) 
0

>  <fr_halogen>  (231) 
1

>  <fr_hdrzine>  (231) 
0

>  <fr_hdrzone>  (231) 
0

>  <fr_imidazole>  (231) 
0

>  <fr_imide>  (231) 
0

>  <fr_isocyan>  (231) 
0

>  <fr_isothiocyan>  (231) 
0

>  <fr_ketone>  (231) 
1

>  <fr_ketone_Topliss>  (231) 
1

>  <fr_lactam>  (231) 
0

>  <fr_lactone>  (231) 
0

>  <fr_methoxy>  (231) 
0

>  <fr_morpholine>  (231) 
0

>  <fr_nitrile>  (231) 
0

>  <fr_nitro>  (231) 
0

>  <fr_nitro_arom>  (231) 
0

>  <fr_nitro_arom_nonortho>  (231) 
0

>  <fr_nitroso>  (231) 
0

>  <fr_oxazole>  (231) 
0

>  <fr_oxime>  (231) 
0

>  <fr_para_hydroxylation>  (231) 
0

>  <fr_phenol>  (231) 
0

>  <fr_phenol_noOrthoHbond>  (231) 
0

>  <fr_phos_acid>  (231) 
0

>  <fr_phos_ester>  (231) 
0

>  <fr_piperdine>  (231) 
0

>  <fr_piperzine>  (231) 
0

>  <fr_priamide>  (231) 
0

>  <fr_prisulfonamd>  (231) 
0

>  <fr_pyridine>  (231) 
0

>  <fr_quatN>  (231) 
1

>  <fr_sulfide>  (231) 
0

>  <fr_sulfonamd>  (231) 
0

>  <fr_sulfone>  (231) 
0

>  <fr_term_acetylene>  (231) 
0

>  <fr_tetrazole>  (231) 
0

>  <fr_thiazole>  (231) 
0

>  <fr_thiocyan>  (231) 
0

>  <fr_thiophene>  (231) 
0

>  <fr_unbrch_alkane>  (231) 
0

>  <fr_urea>  (231) 
0

>  <NP_Likeness>  (231) 
-0.601661

$$$$
O72
     RDKit          3D

  0  0  0  0  0  0  0  0  0  0999 V3000
M  V30 BEGIN CTAB
M  V30 COUNTS 18 19 0 0 0
M  V30 BEGIN ATOM
M  V30 1 N 17.668000 -25.347000 -22.730000 0
M  V30 2 N 17.649000 -27.645000 -22.680000 0
M  V30 3 N 15.696000 -25.268000 -24.708000 0
M  V30 4 C 14.791000 -25.316000 -25.672000 0
M  V30 5 C 17.159000 -28.803000 -23.145000 0
M  V30 6 C 14.267000 -26.482000 -26.191000 0
M  V30 7 C 16.200000 -28.889000 -24.102000 0
M  V30 8 C 14.697000 -27.675000 -25.691000 0
M  V30 9 C 17.161000 -26.491000 -23.196000 0
M  V30 10 C 16.148000 -26.456000 -24.207000 0
M  V30 11 C 15.668000 -27.705000 -24.666000 0
M  V30 12 H 17.336200 -24.472400 -23.083500 0
M  V30 13 H 18.379500 -25.364900 -22.027500 0
M  V30 14 H 14.465100 -24.449300 -26.049600 0
M  V30 15 H 17.521400 -29.653800 -22.764400 0
M  V30 16 H 13.584000 -26.452500 -26.920900 0
M  V30 17 H 15.871600 -29.783100 -24.406500 0
M  V30 18 H 14.324200 -28.530400 -26.050600 0
M  V30 END ATOM
M  V30 BEGIN BOND
M  V30 1 1 1 9
M  V30 2 2 2 5
M  V30 3 1 2 9
M  V30 4 2 3 4
M  V30 5 1 3 10
M  V30 6 1 4 6
M  V30 7 1 5 7
M  V30 8 2 6 8
M  V30 9 2 7 11
M  V30 10 1 8 11
M  V30 11 2 9 10
M  V30 12 1 10 11
M  V30 13 1 1 12
M  V30 14 1 1 13
M  V30 15 1 4 14
M  V30 16 1 5 15
M  V30 17 1 6 16
M  V30 18 1 7 17
M  V30 19 1 8 18
M  V30 END BOND
M  V30 END CTAB
M  END
>  <Ligand_Instance>  (232) 
6Y2O_O72_A_406

>  <Dataset>  (232) 
PDB

>  <PDB_ID>  (232) 
6Y2O

>  <Chain>  (232) 
A

>  <Resi>  (232) 
406

>  <Num_Resolved_Atoms>  (232) 
11

>  <Num_H_Atoms_ProtBoundConf>  (232) 
7

>  <Pocket>  (232) 
A

>  <Name>  (232) 
1,7-naphthyridin-8-amine

>  <Num_Not_Resolved_Atoms>  (232) 
0

>  <ATP_Site>  (232) 
True

>  <Peripheral>  (232) 
False

>  <Standardized_SMILES>  (232) 
[H]C1=C([H])C([H])=C2C(=N1)C(N([H])[H])=NC([H])=C2[H]

>  <2D_Mol_H>  (232) 
<rdkit.Chem.rdchem.Mol object at 0x77059d81ece0>

>  <MW>  (232) 
145.165

>  <HBA>  (232) 
3

>  <HBD>  (232) 
1

>  <LogP>  (232) 
1.212

>  <NRB>  (232) 
1

>  <TPSA>  (232) 
51.8

>  <Num_Heavy_Atoms>  (232) 
11

>  <Ro5>  (232) 
[True, True, True, True, True, True]

>  <Ro5_Fulfilled>  (232) 
True

>  <Ro3>  (232) 
[True, True, True, True]

>  <Ro3_Fulfilled>  (232) 
True

>  <Fsp3>  (232) 
0.0

>  <Fsp3_0.42>  (232) 
False

>  <Fsp3_0.45>  (232) 
False

>  <Stereogenic_Carbons>  (232) 
0

>  <C_Atoms>  (232) 
8

>  <FCStereo>  (232) 
0.0

>  <SPS>  (232) 
112

>  <nSPS>  (232) 
10.181818

>  <PBF>  (232) 
0.01294

>  <PBF_0.6>  (232) 
False

>  <nPBF>  (232) 
0.001176

>  <nPBF_0.016>  (232) 
False

>  <PMI1>  (232) 
243.045773

>  <PMI2>  (232) 
433.990695

>  <PMI3>  (232) 
676.979807

>  <NPR1>  (232) 
0.359015

>  <NPR2>  (232) 
0.641069

>  <Sum_NPR>  (232) 
1.000084

>  <Sum_NPR_1.07>  (232) 
False

>  <Sum_NPR_1.2>  (232) 
False

>  <MaxAbsEStateIndex>  (232) 
5.582593

>  <MaxEStateIndex>  (232) 
5.582593

>  <MinAbsEStateIndex>  (232) 
0.488981

>  <MinEStateIndex>  (232) 
0.488981

>  <qed>  (232) 
0.605817

>  <MolWt>  (232) 
145.165

>  <HeavyAtomMolWt>  (232) 
138.109

>  <ExactMolWt>  (232) 
145.063997

>  <NumValenceElectrons>  (232) 
54

>  <NumRadicalElectrons>  (232) 
0

>  <MaxPartialCharge>  (232) 
0.149416

>  <MinPartialCharge>  (232) 
-0.381888

>  <MaxAbsPartialCharge>  (232) 
0.381888

>  <MinAbsPartialCharge>  (232) 
0.149416

>  <FpDensityMorgan1>  (232) 
1.090909

>  <FpDensityMorgan2>  (232) 
2.0

>  <FpDensityMorgan3>  (232) 
2.818182

>  <BCUT2D_MWHI>  (232) 
14.856649

>  <BCUT2D_MWLOW>  (232) 
10.244142

>  <BCUT2D_CHGHI>  (232) 
1.95405

>  <BCUT2D_CHGLO>  (232) 
-1.962342

>  <BCUT2D_LOGPHI>  (232) 
2.13178

>  <BCUT2D_LOGPLOW>  (232) 
-1.912584

>  <BCUT2D_MRHI>  (232) 
5.858843

>  <BCUT2D_MRLOW>  (232) 
1.317797

>  <AvgIpc>  (232) 
2.05595

>  <BalabanJ>  (232) 
2.913161

>  <BertzCT>  (232) 
378.498884

>  <Chi0>  (232) 
7.681798

>  <Chi0n>  (232) 
5.858529

>  <Chi0v>  (232) 
5.858529

>  <Chi1>  (232) 
5.37701

>  <Chi1n>  (232) 
3.329637

>  <Chi1v>  (232) 
3.329637

>  <Chi2n>  (232) 
2.271314

>  <Chi2v>  (232) 
2.271314

>  <Chi3n>  (232) 
1.549257

>  <Chi3v>  (232) 
1.549257

>  <Chi4n>  (232) 
1.025261

>  <Chi4v>  (232) 
1.025261

>  <HallKierAlpha>  (232) 
-1.64

>  <Ipc>  (232) 
505.763735

>  <Kappa1>  (232) 
6.094932

>  <Kappa2>  (232) 
2.196105

>  <Kappa3>  (232) 
0.902215

>  <LabuteASA>  (232) 
63.892254

>  <PEOE_VSA1>  (232) 
5.733667

>  <PEOE_VSA10>  (232) 
11.334563

>  <PEOE_VSA11>  (232) 
0.0

>  <PEOE_VSA12>  (232) 
0.0

>  <PEOE_VSA13>  (232) 
0.0

>  <PEOE_VSA14>  (232) 
0.0

>  <PEOE_VSA2>  (232) 
4.983979

>  <PEOE_VSA3>  (232) 
4.983979

>  <PEOE_VSA4>  (232) 
0.0

>  <PEOE_VSA5>  (232) 
0.0

>  <PEOE_VSA6>  (232) 
6.066367

>  <PEOE_VSA7>  (232) 
12.132734

>  <PEOE_VSA8>  (232) 
17.779911

>  <PEOE_VSA9>  (232) 
0.0

>  <SMR_VSA1>  (232) 
0.0

>  <SMR_VSA10>  (232) 
16.720788

>  <SMR_VSA2>  (232) 
0.0

>  <SMR_VSA3>  (232) 
9.967957

>  <SMR_VSA4>  (232) 
0.0

>  <SMR_VSA5>  (232) 
0.0

>  <SMR_VSA6>  (232) 
5.733667

>  <SMR_VSA7>  (232) 
30.592788

>  <SMR_VSA8>  (232) 
0.0

>  <SMR_VSA9>  (232) 
0.0

>  <SlogP_VSA1>  (232) 
5.733667

>  <SlogP_VSA10>  (232) 
5.817863

>  <SlogP_VSA11>  (232) 
0.0

>  <SlogP_VSA12>  (232) 
0.0

>  <SlogP_VSA2>  (232) 
9.967957

>  <SlogP_VSA3>  (232) 
0.0

>  <SlogP_VSA4>  (232) 
0.0

>  <SlogP_VSA5>  (232) 
0.0

>  <SlogP_VSA6>  (232) 
30.592788

>  <SlogP_VSA7>  (232) 
0.0

>  <SlogP_VSA8>  (232) 
10.902925

>  <SlogP_VSA9>  (232) 
0.0

>  <EState_VSA1>  (232) 
0.0

>  <EState_VSA10>  (232) 
0.0

>  <EState_VSA11>  (232) 
0.0

>  <EState_VSA2>  (232) 
0.0

>  <EState_VSA3>  (232) 
5.817863

>  <EState_VSA4>  (232) 
10.902925

>  <EState_VSA5>  (232) 
0.0

>  <EState_VSA6>  (232) 
12.393687

>  <EState_VSA7>  (232) 
18.199101

>  <EState_VSA8>  (232) 
9.967957

>  <EState_VSA9>  (232) 
5.733667

>  <VSA_EState1>  (232) 
0.0

>  <VSA_EState10>  (232) 
0.0

>  <VSA_EState2>  (232) 
8.015833

>  <VSA_EState3>  (232) 
1.027778

>  <VSA_EState4>  (232) 
6.355741

>  <VSA_EState5>  (232) 
0.488981

>  <VSA_EState6>  (232) 
5.723056

>  <VSA_EState7>  (232) 
3.388611

>  <VSA_EState8>  (232) 
0.0

>  <VSA_EState9>  (232) 
0.0

>  <FractionCSP3>  (232) 
0.0

>  <HeavyAtomCount>  (232) 
11

>  <NHOHCount>  (232) 
2

>  <NOCount>  (232) 
3

>  <NumAliphaticCarbocycles>  (232) 
0

>  <NumAliphaticHeterocycles>  (232) 
0

>  <NumAliphaticRings>  (232) 
0

>  <NumAromaticCarbocycles>  (232) 
0

>  <NumAromaticHeterocycles>  (232) 
2

>  <NumAromaticRings>  (232) 
2

>  <NumHAcceptors>  (232) 
3

>  <NumHDonors>  (232) 
1

>  <NumHeteroatoms>  (232) 
3

>  <NumRotatableBonds>  (232) 
0

>  <NumSaturatedCarbocycles>  (232) 
0

>  <NumSaturatedHeterocycles>  (232) 
0

>  <NumSaturatedRings>  (232) 
0

>  <RingCount>  (232) 
2

>  <MolLogP>  (232) 
1.212

>  <MolMR>  (232) 
43.9504

>  <fr_Al_COO>  (232) 
0

>  <fr_Al_OH>  (232) 
0

>  <fr_Al_OH_noTert>  (232) 
0

>  <fr_ArN>  (232) 
1

>  <fr_Ar_COO>  (232) 
0

>  <fr_Ar_N>  (232) 
2

>  <fr_Ar_NH>  (232) 
0

>  <fr_Ar_OH>  (232) 
0

>  <fr_COO>  (232) 
0

>  <fr_COO2>  (232) 
0

>  <fr_C_O>  (232) 
0

>  <fr_C_O_noCOO>  (232) 
0

>  <fr_C_S>  (232) 
0

>  <fr_HOCCN>  (232) 
0

>  <fr_Imine>  (232) 
0

>  <fr_NH0>  (232) 
2

>  <fr_NH1>  (232) 
0

>  <fr_NH2>  (232) 
1

>  <fr_N_O>  (232) 
0

>  <fr_Ndealkylation1>  (232) 
0

>  <fr_Ndealkylation2>  (232) 
0

>  <fr_Nhpyrrole>  (232) 
0

>  <fr_SH>  (232) 
0

>  <fr_aldehyde>  (232) 
0

>  <fr_alkyl_carbamate>  (232) 
0

>  <fr_alkyl_halide>  (232) 
0

>  <fr_allylic_oxid>  (232) 
0

>  <fr_amide>  (232) 
0

>  <fr_amidine>  (232) 
0

>  <fr_aniline>  (232) 
1

>  <fr_aryl_methyl>  (232) 
0

>  <fr_azide>  (232) 
0

>  <fr_azo>  (232) 
0

>  <fr_barbitur>  (232) 
0

>  <fr_benzene>  (232) 
0

>  <fr_benzodiazepine>  (232) 
0

>  <fr_bicyclic>  (232) 
1

>  <fr_diazo>  (232) 
0

>  <fr_dihydropyridine>  (232) 
0

>  <fr_epoxide>  (232) 
0

>  <fr_ester>  (232) 
0

>  <fr_ether>  (232) 
0

>  <fr_furan>  (232) 
0

>  <fr_guanido>  (232) 
0

>  <fr_halogen>  (232) 
0

>  <fr_hdrzine>  (232) 
0

>  <fr_hdrzone>  (232) 
0

>  <fr_imidazole>  (232) 
0

>  <fr_imide>  (232) 
0

>  <fr_isocyan>  (232) 
0

>  <fr_isothiocyan>  (232) 
0

>  <fr_ketone>  (232) 
0

>  <fr_ketone_Topliss>  (232) 
0

>  <fr_lactam>  (232) 
0

>  <fr_lactone>  (232) 
0

>  <fr_methoxy>  (232) 
0

>  <fr_morpholine>  (232) 
0

>  <fr_nitrile>  (232) 
0

>  <fr_nitro>  (232) 
0

>  <fr_nitro_arom>  (232) 
0

>  <fr_nitro_arom_nonortho>  (232) 
0

>  <fr_nitroso>  (232) 
0

>  <fr_oxazole>  (232) 
0

>  <fr_oxime>  (232) 
0

>  <fr_para_hydroxylation>  (232) 
0

>  <fr_phenol>  (232) 
0

>  <fr_phenol_noOrthoHbond>  (232) 
0

>  <fr_phos_acid>  (232) 
0

>  <fr_phos_ester>  (232) 
0

>  <fr_piperdine>  (232) 
0

>  <fr_piperzine>  (232) 
0

>  <fr_priamide>  (232) 
0

>  <fr_prisulfonamd>  (232) 
0

>  <fr_pyridine>  (232) 
2

>  <fr_quatN>  (232) 
0

>  <fr_sulfide>  (232) 
0

>  <fr_sulfonamd>  (232) 
0

>  <fr_sulfone>  (232) 
0

>  <fr_term_acetylene>  (232) 
0

>  <fr_tetrazole>  (232) 
0

>  <fr_thiazole>  (232) 
0

>  <fr_thiocyan>  (232) 
0

>  <fr_thiophene>  (232) 
0

>  <fr_unbrch_alkane>  (232) 
0

>  <fr_urea>  (232) 
0

>  <NP_Likeness>  (232) 
-0.610374

$$$$
O72
     RDKit          3D

  0  0  0  0  0  0  0  0  0  0999 V3000
M  V30 BEGIN CTAB
M  V30 COUNTS 18 19 0 0 0
M  V30 BEGIN ATOM
M  V30 1 N -33.041000 -9.702000 -1.862000 0
M  V30 2 N -33.232000 -9.836000 -4.127000 0
M  V30 3 N -30.208000 -9.944000 -2.016000 0
M  V30 4 C -28.897000 -9.999000 -2.188000 0
M  V30 5 C -32.668000 -9.908000 -5.342000 0
M  V30 6 C -28.273000 -10.051000 -3.419000 0
M  V30 7 C -31.329000 -9.987000 -5.552000 0
M  V30 8 C -29.040000 -10.062000 -4.545000 0
M  V30 9 C -32.433000 -9.841000 -3.043000 0
M  V30 10 C -30.990000 -9.938000 -3.135000 0
M  V30 11 C -30.448000 -10.005000 -4.442000 0
M  V30 12 H -32.502100 -9.697900 -1.019600 0
M  V30 13 H -34.035100 -9.602100 -1.820100 0
M  V30 14 H -28.319300 -10.003200 -1.371800 0
M  V30 15 H -33.269700 -9.903200 -6.140700 0
M  V30 16 H -27.275500 -10.080100 -3.482800 0
M  V30 17 H -30.967000 -10.032200 -6.483100 0
M  V30 18 H -28.606200 -10.110400 -5.444700 0
M  V30 END ATOM
M  V30 BEGIN BOND
M  V30 1 1 1 9
M  V30 2 2 2 5
M  V30 3 1 2 9
M  V30 4 2 3 4
M  V30 5 1 3 10
M  V30 6 1 4 6
M  V30 7 1 5 7
M  V30 8 2 6 8
M  V30 9 2 7 11
M  V30 10 1 8 11
M  V30 11 2 9 10
M  V30 12 1 10 11
M  V30 13 1 1 12
M  V30 14 1 1 13
M  V30 15 1 4 14
M  V30 16 1 5 15
M  V30 17 1 6 16
M  V30 18 1 7 17
M  V30 19 1 8 18
M  V30 END BOND
M  V30 END CTAB
M  END
>  <Ligand_Instance>  (233) 
6YNR_O72_A_403

>  <Dataset>  (233) 
PDB

>  <PDB_ID>  (233) 
6YNR

>  <Chain>  (233) 
A

>  <Resi>  (233) 
403

>  <Num_Resolved_Atoms>  (233) 
11

>  <Num_H_Atoms_ProtBoundConf>  (233) 
7

>  <Pocket>  (233) 
A

>  <Name>  (233) 
1,7-naphthyridin-8-amine

>  <Num_Not_Resolved_Atoms>  (233) 
0

>  <ATP_Site>  (233) 
True

>  <Peripheral>  (233) 
False

>  <Standardized_SMILES>  (233) 
[H]C1=C([H])C([H])=C2C(=N1)C(N([H])[H])=NC([H])=C2[H]

>  <2D_Mol_H>  (233) 
<rdkit.Chem.rdchem.Mol object at 0x77059d81edc0>

>  <MW>  (233) 
145.165

>  <HBA>  (233) 
3

>  <HBD>  (233) 
1

>  <LogP>  (233) 
1.212

>  <NRB>  (233) 
1

>  <TPSA>  (233) 
51.8

>  <Num_Heavy_Atoms>  (233) 
11

>  <Ro5>  (233) 
[True, True, True, True, True, True]

>  <Ro5_Fulfilled>  (233) 
True

>  <Ro3>  (233) 
[True, True, True, True]

>  <Ro3_Fulfilled>  (233) 
True

>  <Fsp3>  (233) 
0.0

>  <Fsp3_0.42>  (233) 
False

>  <Fsp3_0.45>  (233) 
False

>  <Stereogenic_Carbons>  (233) 
0

>  <C_Atoms>  (233) 
8

>  <FCStereo>  (233) 
0.0

>  <SPS>  (233) 
112

>  <nSPS>  (233) 
10.181818

>  <PBF>  (233) 
0.024916

>  <PBF_0.6>  (233) 
False

>  <nPBF>  (233) 
0.002265

>  <nPBF_0.016>  (233) 
False

>  <PMI1>  (233) 
242.644526

>  <PMI2>  (233) 
438.053628

>  <PMI3>  (233) 
680.539078

>  <NPR1>  (233) 
0.356548

>  <NPR2>  (233) 
0.643686

>  <Sum_NPR>  (233) 
1.000234

>  <Sum_NPR_1.07>  (233) 
False

>  <Sum_NPR_1.2>  (233) 
False

>  <MaxAbsEStateIndex>  (233) 
5.582593

>  <MaxEStateIndex>  (233) 
5.582593

>  <MinAbsEStateIndex>  (233) 
0.488981

>  <MinEStateIndex>  (233) 
0.488981

>  <qed>  (233) 
0.605817

>  <MolWt>  (233) 
145.165

>  <HeavyAtomMolWt>  (233) 
138.109

>  <ExactMolWt>  (233) 
145.063997

>  <NumValenceElectrons>  (233) 
54

>  <NumRadicalElectrons>  (233) 
0

>  <MaxPartialCharge>  (233) 
0.149416

>  <MinPartialCharge>  (233) 
-0.381888

>  <MaxAbsPartialCharge>  (233) 
0.381888

>  <MinAbsPartialCharge>  (233) 
0.149416

>  <FpDensityMorgan1>  (233) 
1.090909

>  <FpDensityMorgan2>  (233) 
2.0

>  <FpDensityMorgan3>  (233) 
2.818182

>  <BCUT2D_MWHI>  (233) 
14.856649

>  <BCUT2D_MWLOW>  (233) 
10.244142

>  <BCUT2D_CHGHI>  (233) 
1.95405

>  <BCUT2D_CHGLO>  (233) 
-1.962342

>  <BCUT2D_LOGPHI>  (233) 
2.13178

>  <BCUT2D_LOGPLOW>  (233) 
-1.912584

>  <BCUT2D_MRHI>  (233) 
5.858843

>  <BCUT2D_MRLOW>  (233) 
1.317797

>  <AvgIpc>  (233) 
2.05595

>  <BalabanJ>  (233) 
2.913161

>  <BertzCT>  (233) 
378.498884

>  <Chi0>  (233) 
7.681798

>  <Chi0n>  (233) 
5.858529

>  <Chi0v>  (233) 
5.858529

>  <Chi1>  (233) 
5.37701

>  <Chi1n>  (233) 
3.329637

>  <Chi1v>  (233) 
3.329637

>  <Chi2n>  (233) 
2.271314

>  <Chi2v>  (233) 
2.271314

>  <Chi3n>  (233) 
1.549257

>  <Chi3v>  (233) 
1.549257

>  <Chi4n>  (233) 
1.025261

>  <Chi4v>  (233) 
1.025261

>  <HallKierAlpha>  (233) 
-1.64

>  <Ipc>  (233) 
505.763735

>  <Kappa1>  (233) 
6.094932

>  <Kappa2>  (233) 
2.196105

>  <Kappa3>  (233) 
0.902215

>  <LabuteASA>  (233) 
63.892254

>  <PEOE_VSA1>  (233) 
5.733667

>  <PEOE_VSA10>  (233) 
11.334563

>  <PEOE_VSA11>  (233) 
0.0

>  <PEOE_VSA12>  (233) 
0.0

>  <PEOE_VSA13>  (233) 
0.0

>  <PEOE_VSA14>  (233) 
0.0

>  <PEOE_VSA2>  (233) 
4.983979

>  <PEOE_VSA3>  (233) 
4.983979

>  <PEOE_VSA4>  (233) 
0.0

>  <PEOE_VSA5>  (233) 
0.0

>  <PEOE_VSA6>  (233) 
6.066367

>  <PEOE_VSA7>  (233) 
12.132734

>  <PEOE_VSA8>  (233) 
17.779911

>  <PEOE_VSA9>  (233) 
0.0

>  <SMR_VSA1>  (233) 
0.0

>  <SMR_VSA10>  (233) 
16.720788

>  <SMR_VSA2>  (233) 
0.0

>  <SMR_VSA3>  (233) 
9.967957

>  <SMR_VSA4>  (233) 
0.0

>  <SMR_VSA5>  (233) 
0.0

>  <SMR_VSA6>  (233) 
5.733667

>  <SMR_VSA7>  (233) 
30.592788

>  <SMR_VSA8>  (233) 
0.0

>  <SMR_VSA9>  (233) 
0.0

>  <SlogP_VSA1>  (233) 
5.733667

>  <SlogP_VSA10>  (233) 
5.817863

>  <SlogP_VSA11>  (233) 
0.0

>  <SlogP_VSA12>  (233) 
0.0

>  <SlogP_VSA2>  (233) 
9.967957

>  <SlogP_VSA3>  (233) 
0.0

>  <SlogP_VSA4>  (233) 
0.0

>  <SlogP_VSA5>  (233) 
0.0

>  <SlogP_VSA6>  (233) 
30.592788

>  <SlogP_VSA7>  (233) 
0.0

>  <SlogP_VSA8>  (233) 
10.902925

>  <SlogP_VSA9>  (233) 
0.0

>  <EState_VSA1>  (233) 
0.0

>  <EState_VSA10>  (233) 
0.0

>  <EState_VSA11>  (233) 
0.0

>  <EState_VSA2>  (233) 
0.0

>  <EState_VSA3>  (233) 
5.817863

>  <EState_VSA4>  (233) 
10.902925

>  <EState_VSA5>  (233) 
0.0

>  <EState_VSA6>  (233) 
12.393687

>  <EState_VSA7>  (233) 
18.199101

>  <EState_VSA8>  (233) 
9.967957

>  <EState_VSA9>  (233) 
5.733667

>  <VSA_EState1>  (233) 
0.0

>  <VSA_EState10>  (233) 
0.0

>  <VSA_EState2>  (233) 
8.015833

>  <VSA_EState3>  (233) 
1.027778

>  <VSA_EState4>  (233) 
6.355741

>  <VSA_EState5>  (233) 
0.488981

>  <VSA_EState6>  (233) 
5.723056

>  <VSA_EState7>  (233) 
3.388611

>  <VSA_EState8>  (233) 
0.0

>  <VSA_EState9>  (233) 
0.0

>  <FractionCSP3>  (233) 
0.0

>  <HeavyAtomCount>  (233) 
11

>  <NHOHCount>  (233) 
2

>  <NOCount>  (233) 
3

>  <NumAliphaticCarbocycles>  (233) 
0

>  <NumAliphaticHeterocycles>  (233) 
0

>  <NumAliphaticRings>  (233) 
0

>  <NumAromaticCarbocycles>  (233) 
0

>  <NumAromaticHeterocycles>  (233) 
2

>  <NumAromaticRings>  (233) 
2

>  <NumHAcceptors>  (233) 
3

>  <NumHDonors>  (233) 
1

>  <NumHeteroatoms>  (233) 
3

>  <NumRotatableBonds>  (233) 
0

>  <NumSaturatedCarbocycles>  (233) 
0

>  <NumSaturatedHeterocycles>  (233) 
0

>  <NumSaturatedRings>  (233) 
0

>  <RingCount>  (233) 
2

>  <MolLogP>  (233) 
1.212

>  <MolMR>  (233) 
43.9504

>  <fr_Al_COO>  (233) 
0

>  <fr_Al_OH>  (233) 
0

>  <fr_Al_OH_noTert>  (233) 
0

>  <fr_ArN>  (233) 
1

>  <fr_Ar_COO>  (233) 
0

>  <fr_Ar_N>  (233) 
2

>  <fr_Ar_NH>  (233) 
0

>  <fr_Ar_OH>  (233) 
0

>  <fr_COO>  (233) 
0

>  <fr_COO2>  (233) 
0

>  <fr_C_O>  (233) 
0

>  <fr_C_O_noCOO>  (233) 
0

>  <fr_C_S>  (233) 
0

>  <fr_HOCCN>  (233) 
0

>  <fr_Imine>  (233) 
0

>  <fr_NH0>  (233) 
2

>  <fr_NH1>  (233) 
0

>  <fr_NH2>  (233) 
1

>  <fr_N_O>  (233) 
0

>  <fr_Ndealkylation1>  (233) 
0

>  <fr_Ndealkylation2>  (233) 
0

>  <fr_Nhpyrrole>  (233) 
0

>  <fr_SH>  (233) 
0

>  <fr_aldehyde>  (233) 
0

>  <fr_alkyl_carbamate>  (233) 
0

>  <fr_alkyl_halide>  (233) 
0

>  <fr_allylic_oxid>  (233) 
0

>  <fr_amide>  (233) 
0

>  <fr_amidine>  (233) 
0

>  <fr_aniline>  (233) 
1

>  <fr_aryl_methyl>  (233) 
0

>  <fr_azide>  (233) 
0

>  <fr_azo>  (233) 
0

>  <fr_barbitur>  (233) 
0

>  <fr_benzene>  (233) 
0

>  <fr_benzodiazepine>  (233) 
0

>  <fr_bicyclic>  (233) 
1

>  <fr_diazo>  (233) 
0

>  <fr_dihydropyridine>  (233) 
0

>  <fr_epoxide>  (233) 
0

>  <fr_ester>  (233) 
0

>  <fr_ether>  (233) 
0

>  <fr_furan>  (233) 
0

>  <fr_guanido>  (233) 
0

>  <fr_halogen>  (233) 
0

>  <fr_hdrzine>  (233) 
0

>  <fr_hdrzone>  (233) 
0

>  <fr_imidazole>  (233) 
0

>  <fr_imide>  (233) 
0

>  <fr_isocyan>  (233) 
0

>  <fr_isothiocyan>  (233) 
0

>  <fr_ketone>  (233) 
0

>  <fr_ketone_Topliss>  (233) 
0

>  <fr_lactam>  (233) 
0

>  <fr_lactone>  (233) 
0

>  <fr_methoxy>  (233) 
0

>  <fr_morpholine>  (233) 
0

>  <fr_nitrile>  (233) 
0

>  <fr_nitro>  (233) 
0

>  <fr_nitro_arom>  (233) 
0

>  <fr_nitro_arom_nonortho>  (233) 
0

>  <fr_nitroso>  (233) 
0

>  <fr_oxazole>  (233) 
0

>  <fr_oxime>  (233) 
0

>  <fr_para_hydroxylation>  (233) 
0

>  <fr_phenol>  (233) 
0

>  <fr_phenol_noOrthoHbond>  (233) 
0

>  <fr_phos_acid>  (233) 
0

>  <fr_phos_ester>  (233) 
0

>  <fr_piperdine>  (233) 
0

>  <fr_piperzine>  (233) 
0

>  <fr_priamide>  (233) 
0

>  <fr_prisulfonamd>  (233) 
0

>  <fr_pyridine>  (233) 
2

>  <fr_quatN>  (233) 
0

>  <fr_sulfide>  (233) 
0

>  <fr_sulfonamd>  (233) 
0

>  <fr_sulfone>  (233) 
0

>  <fr_term_acetylene>  (233) 
0

>  <fr_tetrazole>  (233) 
0

>  <fr_thiazole>  (233) 
0

>  <fr_thiocyan>  (233) 
0

>  <fr_thiophene>  (233) 
0

>  <fr_unbrch_alkane>  (233) 
0

>  <fr_urea>  (233) 
0

>  <NP_Likeness>  (233) 
-0.610374

$$$$
OGB
     RDKit          3D

  0  0  0  0  0  0  0  0  0  0999 V3000
M  V30 BEGIN CTAB
M  V30 COUNTS 23 24 0 0 0
M  V30 BEGIN ATOM
M  V30 1 O 14.367000 -26.740000 -20.814000 0
M  V30 2 O 13.663000 -27.831000 -18.998000 0
M  V30 3 N 17.063000 -27.118000 -15.183000 0
M  V30 4 C 13.071000 -28.832000 -19.859000 0
M  V30 5 C 16.583000 -28.019000 -16.050000 0
M  V30 6 C 16.851000 -25.839000 -15.450000 0
M  V30 7 C 15.250000 -23.608000 -17.971000 0
M  V30 8 C 15.894000 -27.702000 -17.181000 0
M  V30 9 C 15.942000 -23.997000 -16.860000 0
M  V30 10 C 14.740000 -24.546000 -18.855000 0
M  V30 11 C 14.304000 -26.841000 -19.614000 0
M  V30 12 C 16.156000 -25.370000 -16.588000 0
M  V30 13 C 14.919000 -25.894000 -18.637000 0
M  V30 14 C 15.648000 -26.341000 -17.489000 0
M  V30 15 H 12.616900 -29.525900 -19.300200 0
M  V30 16 H 12.401100 -28.398900 -20.462100 0
M  V30 17 H 13.785900 -29.262900 -20.409700 0
M  V30 18 H 16.740800 -28.986900 -15.854200 0
M  V30 19 H 17.205100 -25.161300 -14.805500 0
M  V30 20 H 15.109400 -22.634100 -18.149200 0
M  V30 21 H 15.564300 -28.424000 -17.789300 0
M  V30 22 H 16.300900 -23.305900 -16.232700 0
M  V30 23 H 14.235200 -24.239700 -19.662100 0
M  V30 END ATOM
M  V30 BEGIN BOND
M  V30 1 2 1 11
M  V30 2 1 2 4
M  V30 3 1 2 11
M  V30 4 2 3 5
M  V30 5 1 3 6
M  V30 6 1 5 8
M  V30 7 2 6 12
M  V30 8 2 7 9
M  V30 9 1 7 10
M  V30 10 2 8 14
M  V30 11 1 9 12
M  V30 12 2 10 13
M  V30 13 1 11 13
M  V30 14 1 12 14
M  V30 15 1 13 14
M  V30 16 1 4 15
M  V30 17 1 4 16
M  V30 18 1 4 17
M  V30 19 1 5 18
M  V30 20 1 6 19
M  V30 21 1 7 20
M  V30 22 1 8 21
M  V30 23 1 9 22
M  V30 24 1 10 23
M  V30 END BOND
M  V30 END CTAB
M  END
>  <Ligand_Instance>  (234) 
6Y89_OGB_A_401

>  <Dataset>  (234) 
PDB

>  <PDB_ID>  (234) 
6Y89

>  <Chain>  (234) 
A

>  <Resi>  (234) 
401

>  <Num_Resolved_Atoms>  (234) 
14

>  <Num_H_Atoms_ProtBoundConf>  (234) 
9

>  <Pocket>  (234) 
A

>  <Name>  (234) 
methyl isoquinoline-5-carboxylate

>  <Num_Not_Resolved_Atoms>  (234) 
0

>  <ATP_Site>  (234) 
True

>  <Peripheral>  (234) 
False

>  <Standardized_SMILES>  (234) 
[H]C1=NC([H])=C2C([H])=C([H])C([H])=C(C(=O)OC([H])([H])[H])C2=C1[H]

>  <2D_Mol_H>  (234) 
<rdkit.Chem.rdchem.Mol object at 0x77059d81eea0>

>  <MW>  (234) 
187.198

>  <HBA>  (234) 
3

>  <HBD>  (234) 
0

>  <LogP>  (234) 
2.0214

>  <NRB>  (234) 
2

>  <TPSA>  (234) 
39.19

>  <Num_Heavy_Atoms>  (234) 
14

>  <Ro5>  (234) 
[True, True, True, True, True, True]

>  <Ro5_Fulfilled>  (234) 
True

>  <Ro3>  (234) 
[True, True, True, True]

>  <Ro3_Fulfilled>  (234) 
True

>  <Fsp3>  (234) 
0.090909

>  <Fsp3_0.42>  (234) 
False

>  <Fsp3_0.45>  (234) 
False

>  <Stereogenic_Carbons>  (234) 
0

>  <C_Atoms>  (234) 
11

>  <FCStereo>  (234) 
0.0

>  <SPS>  (234) 
141

>  <nSPS>  (234) 
10.071429

>  <PBF>  (234) 
0.313238

>  <PBF_0.6>  (234) 
False

>  <nPBF>  (234) 
0.022374

>  <nPBF_0.016>  (234) 
True

>  <PMI1>  (234) 
442.865705

>  <PMI2>  (234) 
857.660213

>  <PMI3>  (234) 
1245.252249

>  <NPR1>  (234) 
0.355643

>  <NPR2>  (234) 
0.688744

>  <Sum_NPR>  (234) 
1.044388

>  <Sum_NPR_1.07>  (234) 
False

>  <Sum_NPR_1.2>  (234) 
False

>  <MaxAbsEStateIndex>  (234) 
11.384781

>  <MaxEStateIndex>  (234) 
11.384781

>  <MinAbsEStateIndex>  (234) 
0.317778

>  <MinEStateIndex>  (234) 
-0.317778

>  <qed>  (234) 
0.640962

>  <MolWt>  (234) 
187.198

>  <HeavyAtomMolWt>  (234) 
178.126

>  <ExactMolWt>  (234) 
187.063329

>  <NumValenceElectrons>  (234) 
70

>  <NumRadicalElectrons>  (234) 
0

>  <MaxPartialCharge>  (234) 
0.337981

>  <MinPartialCharge>  (234) 
-0.465402

>  <MaxAbsPartialCharge>  (234) 
0.465402

>  <MinAbsPartialCharge>  (234) 
0.337981

>  <FpDensityMorgan1>  (234) 
1.357143

>  <FpDensityMorgan2>  (234) 
2.214286

>  <FpDensityMorgan3>  (234) 
3.0

>  <BCUT2D_MWHI>  (234) 
16.5233

>  <BCUT2D_MWLOW>  (234) 
10.075019

>  <BCUT2D_CHGHI>  (234) 
2.080636

>  <BCUT2D_CHGLO>  (234) 
-2.025269

>  <BCUT2D_LOGPHI>  (234) 
2.172159

>  <BCUT2D_LOGPLOW>  (234) 
-2.011277

>  <BCUT2D_MRHI>  (234) 
6.035786

>  <BCUT2D_MRLOW>  (234) 
0.060278

>  <AvgIpc>  (234) 
2.271051

>  <BalabanJ>  (234) 
2.707628

>  <BertzCT>  (234) 
474.176155

>  <Chi0>  (234) 
9.966255

>  <Chi0n>  (234) 
7.727812

>  <Chi0v>  (234) 
7.727812

>  <Chi1>  (234) 
6.825699

>  <Chi1n>  (234) 
4.237595

>  <Chi1v>  (234) 
4.237595

>  <Chi2n>  (234) 
2.893966

>  <Chi2v>  (234) 
2.893966

>  <Chi3n>  (234) 
2.086048

>  <Chi3v>  (234) 
2.086048

>  <Chi4n>  (234) 
1.410504

>  <Chi4v>  (234) 
1.410504

>  <HallKierAlpha>  (234) 
-1.9

>  <Ipc>  (234) 
2275.593347

>  <Kappa1>  (234) 
8.687378

>  <Kappa2>  (234) 
3.456277

>  <Kappa3>  (234) 
1.327568

>  <LabuteASA>  (234) 
81.337667

>  <PEOE_VSA1>  (234) 
4.736863

>  <PEOE_VSA10>  (234) 
0.0

>  <PEOE_VSA11>  (234) 
0.0

>  <PEOE_VSA12>  (234) 
0.0

>  <PEOE_VSA13>  (234) 
0.0

>  <PEOE_VSA14>  (234) 
5.969305

>  <PEOE_VSA2>  (234) 
4.983979

>  <PEOE_VSA3>  (234) 
4.794537

>  <PEOE_VSA4>  (234) 
0.0

>  <PEOE_VSA5>  (234) 
0.0

>  <PEOE_VSA6>  (234) 
12.132734

>  <PEOE_VSA7>  (234) 
17.518958

>  <PEOE_VSA8>  (234) 
17.779911

>  <PEOE_VSA9>  (234) 
12.673249

>  <SMR_VSA1>  (234) 
9.5314

>  <SMR_VSA10>  (234) 
16.741754

>  <SMR_VSA2>  (234) 
0.0

>  <SMR_VSA3>  (234) 
4.983979

>  <SMR_VSA4>  (234) 
0.0

>  <SMR_VSA5>  (234) 
0.0

>  <SMR_VSA6>  (234) 
7.109798

>  <SMR_VSA7>  (234) 
42.222607

>  <SMR_VSA8>  (234) 
0.0

>  <SMR_VSA9>  (234) 
0.0

>  <SlogP_VSA1>  (234) 
0.0

>  <SlogP_VSA10>  (234) 
0.0

>  <SlogP_VSA11>  (234) 
0.0

>  <SlogP_VSA12>  (234) 
0.0

>  <SlogP_VSA2>  (234) 
18.063081

>  <SlogP_VSA3>  (234) 
4.736863

>  <SlogP_VSA4>  (234) 
0.0

>  <SlogP_VSA5>  (234) 
10.357989

>  <SlogP_VSA6>  (234) 
36.659155

>  <SlogP_VSA7>  (234) 
0.0

>  <SlogP_VSA8>  (234) 
10.772448

>  <SlogP_VSA9>  (234) 
0.0

>  <EState_VSA1>  (234) 
0.0

>  <EState_VSA10>  (234) 
4.794537

>  <EState_VSA11>  (234) 
0.0

>  <EState_VSA2>  (234) 
5.969305

>  <EState_VSA3>  (234) 
5.563451

>  <EState_VSA4>  (234) 
10.772448

>  <EState_VSA5>  (234) 
7.109798

>  <EState_VSA6>  (234) 
18.460054

>  <EState_VSA7>  (234) 
18.199101

>  <EState_VSA8>  (234) 
9.720841

>  <EState_VSA9>  (234) 
0.0

>  <VSA_EState1>  (234) 
4.685019

>  <VSA_EState10>  (234) 
0.0

>  <VSA_EState2>  (234) 
15.37181

>  <VSA_EState3>  (234) 
1.809954

>  <VSA_EState4>  (234) 
0.576296

>  <VSA_EState5>  (234) 
-0.317778

>  <VSA_EState6>  (234) 
7.278565

>  <VSA_EState7>  (234) 
3.385463

>  <VSA_EState8>  (234) 
0.0

>  <VSA_EState9>  (234) 
1.377338

>  <FractionCSP3>  (234) 
0.090909

>  <HeavyAtomCount>  (234) 
14

>  <NHOHCount>  (234) 
0

>  <NOCount>  (234) 
3

>  <NumAliphaticCarbocycles>  (234) 
0

>  <NumAliphaticHeterocycles>  (234) 
0

>  <NumAliphaticRings>  (234) 
0

>  <NumAromaticCarbocycles>  (234) 
1

>  <NumAromaticHeterocycles>  (234) 
1

>  <NumAromaticRings>  (234) 
2

>  <NumHAcceptors>  (234) 
3

>  <NumHDonors>  (234) 
0

>  <NumHeteroatoms>  (234) 
3

>  <NumRotatableBonds>  (234) 
1

>  <NumSaturatedCarbocycles>  (234) 
0

>  <NumSaturatedHeterocycles>  (234) 
0

>  <NumSaturatedRings>  (234) 
0

>  <RingCount>  (234) 
2

>  <MolLogP>  (234) 
2.0214

>  <MolMR>  (234) 
53.0825

>  <fr_Al_COO>  (234) 
0

>  <fr_Al_OH>  (234) 
0

>  <fr_Al_OH_noTert>  (234) 
0

>  <fr_ArN>  (234) 
0

>  <fr_Ar_COO>  (234) 
0

>  <fr_Ar_N>  (234) 
1

>  <fr_Ar_NH>  (234) 
0

>  <fr_Ar_OH>  (234) 
0

>  <fr_COO>  (234) 
0

>  <fr_COO2>  (234) 
0

>  <fr_C_O>  (234) 
1

>  <fr_C_O_noCOO>  (234) 
1

>  <fr_C_S>  (234) 
0

>  <fr_HOCCN>  (234) 
0

>  <fr_Imine>  (234) 
0

>  <fr_NH0>  (234) 
1

>  <fr_NH1>  (234) 
0

>  <fr_NH2>  (234) 
0

>  <fr_N_O>  (234) 
0

>  <fr_Ndealkylation1>  (234) 
0

>  <fr_Ndealkylation2>  (234) 
0

>  <fr_Nhpyrrole>  (234) 
0

>  <fr_SH>  (234) 
0

>  <fr_aldehyde>  (234) 
0

>  <fr_alkyl_carbamate>  (234) 
0

>  <fr_alkyl_halide>  (234) 
0

>  <fr_allylic_oxid>  (234) 
0

>  <fr_amide>  (234) 
0

>  <fr_amidine>  (234) 
0

>  <fr_aniline>  (234) 
0

>  <fr_aryl_methyl>  (234) 
0

>  <fr_azide>  (234) 
0

>  <fr_azo>  (234) 
0

>  <fr_barbitur>  (234) 
0

>  <fr_benzene>  (234) 
1

>  <fr_benzodiazepine>  (234) 
0

>  <fr_bicyclic>  (234) 
1

>  <fr_diazo>  (234) 
0

>  <fr_dihydropyridine>  (234) 
0

>  <fr_epoxide>  (234) 
0

>  <fr_ester>  (234) 
1

>  <fr_ether>  (234) 
1

>  <fr_furan>  (234) 
0

>  <fr_guanido>  (234) 
0

>  <fr_halogen>  (234) 
0

>  <fr_hdrzine>  (234) 
0

>  <fr_hdrzone>  (234) 
0

>  <fr_imidazole>  (234) 
0

>  <fr_imide>  (234) 
0

>  <fr_isocyan>  (234) 
0

>  <fr_isothiocyan>  (234) 
0

>  <fr_ketone>  (234) 
0

>  <fr_ketone_Topliss>  (234) 
0

>  <fr_lactam>  (234) 
0

>  <fr_lactone>  (234) 
0

>  <fr_methoxy>  (234) 
1

>  <fr_morpholine>  (234) 
0

>  <fr_nitrile>  (234) 
0

>  <fr_nitro>  (234) 
0

>  <fr_nitro_arom>  (234) 
0

>  <fr_nitro_arom_nonortho>  (234) 
0

>  <fr_nitroso>  (234) 
0

>  <fr_oxazole>  (234) 
0

>  <fr_oxime>  (234) 
0

>  <fr_para_hydroxylation>  (234) 
0

>  <fr_phenol>  (234) 
0

>  <fr_phenol_noOrthoHbond>  (234) 
0

>  <fr_phos_acid>  (234) 
0

>  <fr_phos_ester>  (234) 
0

>  <fr_piperdine>  (234) 
0

>  <fr_piperzine>  (234) 
0

>  <fr_priamide>  (234) 
0

>  <fr_prisulfonamd>  (234) 
0

>  <fr_pyridine>  (234) 
1

>  <fr_quatN>  (234) 
0

>  <fr_sulfide>  (234) 
0

>  <fr_sulfonamd>  (234) 
0

>  <fr_sulfone>  (234) 
0

>  <fr_term_acetylene>  (234) 
0

>  <fr_tetrazole>  (234) 
0

>  <fr_thiazole>  (234) 
0

>  <fr_thiocyan>  (234) 
0

>  <fr_thiophene>  (234) 
0

>  <fr_unbrch_alkane>  (234) 
0

>  <fr_urea>  (234) 
0

>  <NP_Likeness>  (234) 
-0.810897

$$$$
P4Q
     RDKit          3D

  0  0  0  0  0  0  0  0  0  0999 V3000
M  V30 BEGIN CTAB
M  V30 COUNTS 17 18 0 0 0
M  V30 BEGIN ATOM
M  V30 1 N 16.338000 5.128000 20.171000 0
M  V30 2 N 16.558000 2.830000 20.434000 0
M  V30 3 N 14.781000 1.322000 19.927000 0
M  V30 4 N 13.673000 4.791000 19.356000 0
M  V30 5 C 15.994000 1.624000 20.335000 0
M  V30 6 C 12.432000 4.532000 18.974000 0
M  V30 7 C 11.894000 3.252000 18.855000 0
M  V30 8 C 12.677000 2.177000 19.156000 0
M  V30 9 C 15.814000 3.905000 20.098000 0
M  V30 10 C 14.004000 2.392000 19.578000 0
M  V30 11 C 14.467000 3.724000 19.656000 0
M  V30 12 H 15.786300 5.924000 19.921900 0
M  V30 13 H 17.282900 5.249800 20.474800 0
M  V30 14 H 16.567700 0.851000 20.605900 0
M  V30 15 H 11.840200 5.308100 18.755900 0
M  V30 16 H 10.949100 3.123900 18.553800 0
M  V30 17 H 12.314200 1.248400 19.078300 0
M  V30 END ATOM
M  V30 BEGIN BOND
M  V30 1 1 1 9
M  V30 2 2 2 5
M  V30 3 1 2 9
M  V30 4 1 3 5
M  V30 5 2 3 10
M  V30 6 2 4 6
M  V30 7 1 4 11
M  V30 8 1 6 7
M  V30 9 2 7 8
M  V30 10 1 8 10
M  V30 11 2 9 11
M  V30 12 1 10 11
M  V30 13 1 1 12
M  V30 14 1 1 13
M  V30 15 1 5 14
M  V30 16 1 6 15
M  V30 17 1 7 16
M  V30 18 1 8 17
M  V30 END BOND
M  V30 END CTAB
M  END
>  <Ligand_Instance>  (235) 
6YOU_P4Q_A_401

>  <Dataset>  (235) 
PDB

>  <PDB_ID>  (235) 
6YOU

>  <Chain>  (235) 
A

>  <Resi>  (235) 
401

>  <Num_Resolved_Atoms>  (235) 
11

>  <Num_H_Atoms_ProtBoundConf>  (235) 
6

>  <Pocket>  (235) 
A

>  <Name>  (235) 
pyrido[3,2-d]pyrimidin-4-amine

>  <Num_Not_Resolved_Atoms>  (235) 
0

>  <ATP_Site>  (235) 
True

>  <Peripheral>  (235) 
False

>  <Standardized_SMILES>  (235) 
[H]C1=NC2=C([H])C([H])=C([H])N=C2C(N([H])[H])=N1

>  <2D_Mol_H>  (235) 
<rdkit.Chem.rdchem.Mol object at 0x77059d81ef80>

>  <MW>  (235) 
146.153

>  <HBA>  (235) 
4

>  <HBD>  (235) 
1

>  <LogP>  (235) 
0.607

>  <NRB>  (235) 
1

>  <TPSA>  (235) 
64.69

>  <Num_Heavy_Atoms>  (235) 
11

>  <Ro5>  (235) 
[True, True, True, True, True, True]

>  <Ro5_Fulfilled>  (235) 
True

>  <Ro3>  (235) 
[True, False, True, True]

>  <Ro3_Fulfilled>  (235) 
True

>  <Fsp3>  (235) 
0.0

>  <Fsp3_0.42>  (235) 
False

>  <Fsp3_0.45>  (235) 
False

>  <Stereogenic_Carbons>  (235) 
0

>  <C_Atoms>  (235) 
7

>  <FCStereo>  (235) 
0.0

>  <SPS>  (235) 
112

>  <nSPS>  (235) 
10.181818

>  <PBF>  (235) 
0.022125

>  <PBF_0.6>  (235) 
False

>  <nPBF>  (235) 
0.002011

>  <nPBF_0.016>  (235) 
False

>  <PMI1>  (235) 
244.46981

>  <PMI2>  (235) 
421.509732

>  <PMI3>  (235) 
665.869429

>  <NPR1>  (235) 
0.367144

>  <NPR2>  (235) 
0.633022

>  <Sum_NPR>  (235) 
1.000165

>  <Sum_NPR_1.07>  (235) 
False

>  <Sum_NPR_1.2>  (235) 
False

>  <MaxAbsEStateIndex>  (235) 
5.542593

>  <MaxEStateIndex>  (235) 
5.542593

>  <MinAbsEStateIndex>  (235) 
0.426481

>  <MinEStateIndex>  (235) 
0.426481

>  <qed>  (235) 
0.590891

>  <MolWt>  (235) 
146.153

>  <HeavyAtomMolWt>  (235) 
140.105

>  <ExactMolWt>  (235) 
146.059246

>  <NumValenceElectrons>  (235) 
54

>  <NumRadicalElectrons>  (235) 
0

>  <MaxPartialCharge>  (235) 
0.152933

>  <MinPartialCharge>  (235) 
-0.381782

>  <MaxAbsPartialCharge>  (235) 
0.381782

>  <MinAbsPartialCharge>  (235) 
0.152933

>  <FpDensityMorgan1>  (235) 
1.181818

>  <FpDensityMorgan2>  (235) 
2.090909

>  <FpDensityMorgan3>  (235) 
2.909091

>  <BCUT2D_MWHI>  (235) 
14.935309

>  <BCUT2D_MWLOW>  (235) 
10.341774

>  <BCUT2D_CHGHI>  (235) 
1.969096

>  <BCUT2D_CHGLO>  (235) 
-1.95271

>  <BCUT2D_LOGPHI>  (235) 
2.103495

>  <BCUT2D_LOGPLOW>  (235) 
-1.935755

>  <BCUT2D_MRHI>  (235) 
5.823601

>  <BCUT2D_MRLOW>  (235) 
1.204764

>  <AvgIpc>  (235) 
2.05595

>  <BalabanJ>  (235) 
2.913161

>  <BertzCT>  (235) 
379.602287

>  <Chi0>  (235) 
7.681798

>  <Chi0n>  (235) 
5.728392

>  <Chi0v>  (235) 
5.728392

>  <Chi1>  (235) 
5.37701

>  <Chi1n>  (235) 
3.189434

>  <Chi1v>  (235) 
3.189434

>  <Chi2n>  (235) 
2.130044

>  <Chi2v>  (235) 
2.130044

>  <Chi3n>  (235) 
1.422676

>  <Chi3v>  (235) 
1.422676

>  <Chi4n>  (235) 
0.912756

>  <Chi4v>  (235) 
0.912756

>  <HallKierAlpha>  (235) 
-1.71

>  <Ipc>  (235) 
505.763735

>  <Kappa1>  (235) 
6.029677

>  <Kappa2>  (235) 
2.157472

>  <Kappa3>  (235) 
0.881437

>  <LabuteASA>  (235) 
63.111902

>  <PEOE_VSA1>  (235) 
5.733667

>  <PEOE_VSA10>  (235) 
11.844021

>  <PEOE_VSA11>  (235) 
5.817863

>  <PEOE_VSA12>  (235) 
0.0

>  <PEOE_VSA13>  (235) 
0.0

>  <PEOE_VSA14>  (235) 
0.0

>  <PEOE_VSA2>  (235) 
4.983979

>  <PEOE_VSA3>  (235) 
9.967957

>  <PEOE_VSA4>  (235) 
0.0

>  <PEOE_VSA5>  (235) 
0.0

>  <PEOE_VSA6>  (235) 
0.0

>  <PEOE_VSA7>  (235) 
12.132734

>  <PEOE_VSA8>  (235) 
6.196844

>  <PEOE_VSA9>  (235) 
5.516701

>  <SMR_VSA1>  (235) 
0.0

>  <SMR_VSA10>  (235) 
16.851264

>  <SMR_VSA2>  (235) 
0.0

>  <SMR_VSA3>  (235) 
14.951936

>  <SMR_VSA4>  (235) 
0.0

>  <SMR_VSA5>  (235) 
0.0

>  <SMR_VSA6>  (235) 
5.733667

>  <SMR_VSA7>  (235) 
24.656898

>  <SMR_VSA8>  (235) 
0.0

>  <SMR_VSA9>  (235) 
0.0

>  <SlogP_VSA1>  (235) 
5.733667

>  <SlogP_VSA10>  (235) 
5.817863

>  <SlogP_VSA11>  (235) 
0.0

>  <SlogP_VSA12>  (235) 
0.0

>  <SlogP_VSA2>  (235) 
14.951936

>  <SlogP_VSA3>  (235) 
0.0

>  <SlogP_VSA4>  (235) 
0.0

>  <SlogP_VSA5>  (235) 
0.0

>  <SlogP_VSA6>  (235) 
24.656898

>  <SlogP_VSA7>  (235) 
0.0

>  <SlogP_VSA8>  (235) 
11.033401

>  <SlogP_VSA9>  (235) 
0.0

>  <EState_VSA1>  (235) 
0.0

>  <EState_VSA10>  (235) 
0.0

>  <EState_VSA11>  (235) 
0.0

>  <EState_VSA2>  (235) 
0.0

>  <EState_VSA3>  (235) 
11.334563

>  <EState_VSA4>  (235) 
5.516701

>  <EState_VSA5>  (235) 
6.32732

>  <EState_VSA6>  (235) 
6.196844

>  <EState_VSA7>  (235) 
12.132734

>  <EState_VSA8>  (235) 
14.951936

>  <EState_VSA9>  (235) 
5.733667

>  <VSA_EState1>  (235) 
0.0

>  <VSA_EState10>  (235) 
0.0

>  <VSA_EState2>  (235) 
11.830648

>  <VSA_EState3>  (235) 
0.0

>  <VSA_EState4>  (235) 
6.982407

>  <VSA_EState5>  (235) 
0.426481

>  <VSA_EState6>  (235) 
3.661852

>  <VSA_EState7>  (235) 
3.098611

>  <VSA_EState8>  (235) 
0.0

>  <VSA_EState9>  (235) 
0.0

>  <FractionCSP3>  (235) 
0.0

>  <HeavyAtomCount>  (235) 
11

>  <NHOHCount>  (235) 
2

>  <NOCount>  (235) 
4

>  <NumAliphaticCarbocycles>  (235) 
0

>  <NumAliphaticHeterocycles>  (235) 
0

>  <NumAliphaticRings>  (235) 
0

>  <NumAromaticCarbocycles>  (235) 
0

>  <NumAromaticHeterocycles>  (235) 
2

>  <NumAromaticRings>  (235) 
2

>  <NumHAcceptors>  (235) 
4

>  <NumHDonors>  (235) 
1

>  <NumHeteroatoms>  (235) 
4

>  <NumRotatableBonds>  (235) 
0

>  <NumSaturatedCarbocycles>  (235) 
0

>  <NumSaturatedHeterocycles>  (235) 
0

>  <NumSaturatedRings>  (235) 
0

>  <RingCount>  (235) 
2

>  <MolLogP>  (235) 
0.607

>  <MolMR>  (235) 
41.7454

>  <fr_Al_COO>  (235) 
0

>  <fr_Al_OH>  (235) 
0

>  <fr_Al_OH_noTert>  (235) 
0

>  <fr_ArN>  (235) 
1

>  <fr_Ar_COO>  (235) 
0

>  <fr_Ar_N>  (235) 
3

>  <fr_Ar_NH>  (235) 
0

>  <fr_Ar_OH>  (235) 
0

>  <fr_COO>  (235) 
0

>  <fr_COO2>  (235) 
0

>  <fr_C_O>  (235) 
0

>  <fr_C_O_noCOO>  (235) 
0

>  <fr_C_S>  (235) 
0

>  <fr_HOCCN>  (235) 
0

>  <fr_Imine>  (235) 
0

>  <fr_NH0>  (235) 
3

>  <fr_NH1>  (235) 
0

>  <fr_NH2>  (235) 
1

>  <fr_N_O>  (235) 
0

>  <fr_Ndealkylation1>  (235) 
0

>  <fr_Ndealkylation2>  (235) 
0

>  <fr_Nhpyrrole>  (235) 
0

>  <fr_SH>  (235) 
0

>  <fr_aldehyde>  (235) 
0

>  <fr_alkyl_carbamate>  (235) 
0

>  <fr_alkyl_halide>  (235) 
0

>  <fr_allylic_oxid>  (235) 
0

>  <fr_amide>  (235) 
0

>  <fr_amidine>  (235) 
0

>  <fr_aniline>  (235) 
1

>  <fr_aryl_methyl>  (235) 
0

>  <fr_azide>  (235) 
0

>  <fr_azo>  (235) 
0

>  <fr_barbitur>  (235) 
0

>  <fr_benzene>  (235) 
0

>  <fr_benzodiazepine>  (235) 
0

>  <fr_bicyclic>  (235) 
1

>  <fr_diazo>  (235) 
0

>  <fr_dihydropyridine>  (235) 
0

>  <fr_epoxide>  (235) 
0

>  <fr_ester>  (235) 
0

>  <fr_ether>  (235) 
0

>  <fr_furan>  (235) 
0

>  <fr_guanido>  (235) 
0

>  <fr_halogen>  (235) 
0

>  <fr_hdrzine>  (235) 
0

>  <fr_hdrzone>  (235) 
0

>  <fr_imidazole>  (235) 
0

>  <fr_imide>  (235) 
0

>  <fr_isocyan>  (235) 
0

>  <fr_isothiocyan>  (235) 
0

>  <fr_ketone>  (235) 
0

>  <fr_ketone_Topliss>  (235) 
0

>  <fr_lactam>  (235) 
0

>  <fr_lactone>  (235) 
0

>  <fr_methoxy>  (235) 
0

>  <fr_morpholine>  (235) 
0

>  <fr_nitrile>  (235) 
0

>  <fr_nitro>  (235) 
0

>  <fr_nitro_arom>  (235) 
0

>  <fr_nitro_arom_nonortho>  (235) 
0

>  <fr_nitroso>  (235) 
0

>  <fr_oxazole>  (235) 
0

>  <fr_oxime>  (235) 
0

>  <fr_para_hydroxylation>  (235) 
0

>  <fr_phenol>  (235) 
0

>  <fr_phenol_noOrthoHbond>  (235) 
0

>  <fr_phos_acid>  (235) 
0

>  <fr_phos_ester>  (235) 
0

>  <fr_piperdine>  (235) 
0

>  <fr_piperzine>  (235) 
0

>  <fr_priamide>  (235) 
0

>  <fr_prisulfonamd>  (235) 
0

>  <fr_pyridine>  (235) 
1

>  <fr_quatN>  (235) 
0

>  <fr_sulfide>  (235) 
0

>  <fr_sulfonamd>  (235) 
0

>  <fr_sulfone>  (235) 
0

>  <fr_term_acetylene>  (235) 
0

>  <fr_tetrazole>  (235) 
0

>  <fr_thiazole>  (235) 
0

>  <fr_thiocyan>  (235) 
0

>  <fr_thiophene>  (235) 
0

>  <fr_unbrch_alkane>  (235) 
0

>  <fr_urea>  (235) 
0

>  <NP_Likeness>  (235) 
-0.959625

$$$$
P4W
     RDKit          3D

  0  0  0  0  0  0  0  0  0  0999 V3000
M  V30 BEGIN CTAB
M  V30 COUNTS 28 29 0 0 0
M  V30 BEGIN ATOM
M  V30 1 S 13.803000 -25.841000 -27.436000 0
M  V30 2 O 14.669000 -26.872000 -27.914000 0
M  V30 3 O 13.233000 -24.911000 -28.359000 0
M  V30 4 N 17.106000 -26.590000 -23.179000 0
M  V30 5 N 12.583000 -26.578000 -26.670000 0
M  V30 6 C 11.529000 -25.718000 -26.116000 0
M  V30 7 C 12.109000 -27.838000 -27.250000 0
M  V30 8 C 16.442000 -27.375000 -24.039000 0
M  V30 9 C 16.990000 -25.275000 -23.329000 0
M  V30 10 C 15.179000 -22.730000 -25.354000 0
M  V30 11 C 15.656000 -26.911000 -25.052000 0
M  V30 12 C 14.478000 -23.545000 -26.228000 0
M  V30 13 C 16.042000 -23.260000 -24.440000 0
M  V30 14 C 14.648000 -24.904000 -26.192000 0
M  V30 15 C 16.213000 -24.662000 -24.336000 0
M  V30 16 C 15.509000 -25.517000 -25.229000 0
M  V30 17 H 10.836200 -26.284900 -25.670300 0
M  V30 18 H 11.927800 -25.091100 -25.446700 0
M  V30 19 H 11.105500 -25.192500 -26.853900 0
M  V30 20 H 11.358900 -28.198700 -26.695700 0
M  V30 21 H 11.786200 -27.675200 -28.182300 0
M  V30 22 H 12.858600 -28.499700 -27.267600 0
M  V30 23 H 16.528700 -28.365300 -23.930600 0
M  V30 24 H 17.482600 -24.683900 -22.690300 0
M  V30 25 H 15.050500 -21.739100 -25.393700 0
M  V30 26 H 15.188800 -27.550200 -25.662800 0
M  V30 27 H 13.845300 -23.139600 -26.887900 0
M  V30 28 H 16.559200 -22.652300 -23.837300 0
M  V30 END ATOM
M  V30 BEGIN BOND
M  V30 1 2 1 2
M  V30 2 2 1 3
M  V30 3 1 1 5
M  V30 4 1 1 14
M  V30 5 2 4 8
M  V30 6 1 4 9
M  V30 7 1 5 6
M  V30 8 1 5 7
M  V30 9 1 8 11
M  V30 10 2 9 15
M  V30 11 1 10 12
M  V30 12 2 10 13
M  V30 13 2 11 16
M  V30 14 2 12 14
M  V30 15 1 13 15
M  V30 16 1 14 16
M  V30 17 1 15 16
M  V30 18 1 6 17
M  V30 19 1 6 18
M  V30 20 1 6 19
M  V30 21 1 7 20
M  V30 22 1 7 21
M  V30 23 1 7 22
M  V30 24 1 8 23
M  V30 25 1 9 24
M  V30 26 1 10 25
M  V30 27 1 11 26
M  V30 28 1 12 27
M  V30 29 1 13 28
M  V30 END BOND
M  V30 END CTAB
M  END
>  <Ligand_Instance>  (236) 
6YOT_P4W_A_401

>  <Dataset>  (236) 
PDB

>  <PDB_ID>  (236) 
6YOT

>  <Chain>  (236) 
A

>  <Resi>  (236) 
401

>  <Num_Resolved_Atoms>  (236) 
16

>  <Num_H_Atoms_ProtBoundConf>  (236) 
12

>  <Pocket>  (236) 
A

>  <Name>  (236) 
~{N},~{N}-dimethylisoquinoline-5-sulfonamide

>  <Num_Not_Resolved_Atoms>  (236) 
0

>  <ATP_Site>  (236) 
True

>  <Peripheral>  (236) 
True

>  <Standardized_SMILES>  (236) 
[H]C1=NC([H])=C2C([H])=C([H])C([H])=C(S(=O)(=O)N(C([H])([H])[H])C([H])([H])[H])C2=C1[H]

>  <2D_Mol_H>  (236) 
<rdkit.Chem.rdchem.Mol object at 0x77059d81f060>

>  <MW>  (236) 
236.296

>  <HBA>  (236) 
3

>  <HBD>  (236) 
0

>  <LogP>  (236) 
1.4851

>  <NRB>  (236) 
4

>  <TPSA>  (236) 
50.27

>  <Num_Heavy_Atoms>  (236) 
16

>  <Ro5>  (236) 
[True, True, True, True, True, True]

>  <Ro5_Fulfilled>  (236) 
True

>  <Ro3>  (236) 
[True, True, True, True]

>  <Ro3_Fulfilled>  (236) 
True

>  <Fsp3>  (236) 
0.181818

>  <Fsp3_0.42>  (236) 
False

>  <Fsp3_0.45>  (236) 
False

>  <Stereogenic_Carbons>  (236) 
0

>  <C_Atoms>  (236) 
11

>  <FCStereo>  (236) 
0.0

>  <SPS>  (236) 
195

>  <nSPS>  (236) 
12.1875

>  <PBF>  (236) 
0.636306

>  <PBF_0.6>  (236) 
True

>  <nPBF>  (236) 
0.039769

>  <nPBF_0.016>  (236) 
True

>  <PMI1>  (236) 
594.197542

>  <PMI2>  (236) 
1268.709276

>  <PMI3>  (236) 
1582.037604

>  <NPR1>  (236) 
0.37559

>  <NPR2>  (236) 
0.801946

>  <Sum_NPR>  (236) 
1.177536

>  <Sum_NPR_1.07>  (236) 
True

>  <Sum_NPR_1.2>  (236) 
False

>  <MaxAbsEStateIndex>  (236) 
12.051447

>  <MaxEStateIndex>  (236) 
12.051447

>  <MinAbsEStateIndex>  (236) 
0.317037

>  <MinEStateIndex>  (236) 
-3.39794

>  <qed>  (236) 
0.793335

>  <MolWt>  (236) 
236.296

>  <HeavyAtomMolWt>  (236) 
224.2

>  <ExactMolWt>  (236) 
236.061949

>  <NumValenceElectrons>  (236) 
84

>  <NumRadicalElectrons>  (236) 
0

>  <MaxPartialCharge>  (236) 
0.24268

>  <MinPartialCharge>  (236) 
-0.264064

>  <MaxAbsPartialCharge>  (236) 
0.264064

>  <MinAbsPartialCharge>  (236) 
0.24268

>  <FpDensityMorgan1>  (236) 
1.1875

>  <FpDensityMorgan2>  (236) 
1.9375

>  <FpDensityMorgan3>  (236) 
2.625

>  <BCUT2D_MWHI>  (236) 
32.233425

>  <BCUT2D_MWLOW>  (236) 
10.168338

>  <BCUT2D_CHGHI>  (236) 
2.188381

>  <BCUT2D_CHGLO>  (236) 
-2.125463

>  <BCUT2D_LOGPHI>  (236) 
2.230424

>  <BCUT2D_LOGPLOW>  (236) 
-2.21905

>  <BCUT2D_MRHI>  (236) 
7.889132

>  <BCUT2D_MRLOW>  (236) 
0.521471

>  <AvgIpc>  (236) 
2.277009

>  <BalabanJ>  (236) 
2.803917

>  <BertzCT>  (236) 
615.422097

>  <Chi0>  (236) 
11.759149

>  <Chi0n>  (236) 
9.083274

>  <Chi0v>  (236) 
9.89977

>  <Chi1>  (236) 
7.531711

>  <Chi1n>  (236) 
4.785557

>  <Chi1v>  (236) 
6.225621

>  <Chi2n>  (236) 
3.640388

>  <Chi2v>  (236) 
5.760644

>  <Chi3n>  (236) 
2.399359

>  <Chi3v>  (236) 
4.272601

>  <Chi4n>  (236) 
1.514465

>  <Chi4v>  (236) 
2.622194

>  <HallKierAlpha>  (236) 
-1.46

>  <Ipc>  (236) 
4390.072449

>  <Kappa1>  (236) 
11.038237

>  <Kappa2>  (236) 
3.842384

>  <Kappa3>  (236) 
1.678749

>  <LabuteASA>  (236) 
94.583209

>  <PEOE_VSA1>  (236) 
0.0

>  <PEOE_VSA10>  (236) 
0.0

>  <PEOE_VSA11>  (236) 
0.0

>  <PEOE_VSA12>  (236) 
10.023291

>  <PEOE_VSA13>  (236) 
0.0

>  <PEOE_VSA14>  (236) 
0.0

>  <PEOE_VSA2>  (236) 
4.983979

>  <PEOE_VSA3>  (236) 
12.723013

>  <PEOE_VSA4>  (236) 
0.0

>  <PEOE_VSA5>  (236) 
0.0

>  <PEOE_VSA6>  (236) 
12.132734

>  <PEOE_VSA7>  (236) 
12.132734

>  <PEOE_VSA8>  (236) 
37.26148

>  <PEOE_VSA9>  (236) 
4.895483

>  <SMR_VSA1>  (236) 
8.417797

>  <SMR_VSA10>  (236) 
20.79574

>  <SMR_VSA2>  (236) 
0.0

>  <SMR_VSA3>  (236) 
9.289195

>  <SMR_VSA4>  (236) 
0.0

>  <SMR_VSA5>  (236) 
4.895483

>  <SMR_VSA6>  (236) 
14.095344

>  <SMR_VSA7>  (236) 
36.659155

>  <SMR_VSA8>  (236) 
0.0

>  <SMR_VSA9>  (236) 
0.0

>  <SlogP_VSA1>  (236) 
0.0

>  <SlogP_VSA10>  (236) 
0.0

>  <SlogP_VSA11>  (236) 
0.0

>  <SlogP_VSA12>  (236) 
0.0

>  <SlogP_VSA2>  (236) 
31.802335

>  <SlogP_VSA3>  (236) 
10.023291

>  <SlogP_VSA4>  (236) 
0.0

>  <SlogP_VSA5>  (236) 
0.0

>  <SlogP_VSA6>  (236) 
41.554639

>  <SlogP_VSA7>  (236) 
0.0

>  <SlogP_VSA8>  (236) 
10.772448

>  <SlogP_VSA9>  (236) 
0.0

>  <EState_VSA1>  (236) 
10.023291

>  <EState_VSA10>  (236) 
8.417797

>  <EState_VSA11>  (236) 
0.0

>  <EState_VSA2>  (236) 
0.0

>  <EState_VSA3>  (236) 
10.281708

>  <EState_VSA4>  (236) 
5.386224

>  <EState_VSA5>  (236) 
18.40056

>  <EState_VSA6>  (236) 
30.592788

>  <EState_VSA7>  (236) 
6.066367

>  <EState_VSA8>  (236) 
4.983979

>  <EState_VSA9>  (236) 
0.0

>  <VSA_EState1>  (236) 
25.313413

>  <VSA_EState10>  (236) 
0.0

>  <VSA_EState2>  (236) 
4.289504

>  <VSA_EState3>  (236) 
1.524653

>  <VSA_EState4>  (236) 
0.0

>  <VSA_EState5>  (236) 
0.0

>  <VSA_EState6>  (236) 
6.889676

>  <VSA_EState7>  (236) 
3.251019

>  <VSA_EState8>  (236) 
0.0

>  <VSA_EState9>  (236) 
-0.351597

>  <FractionCSP3>  (236) 
0.181818

>  <HeavyAtomCount>  (236) 
16

>  <NHOHCount>  (236) 
0

>  <NOCount>  (236) 
4

>  <NumAliphaticCarbocycles>  (236) 
0

>  <NumAliphaticHeterocycles>  (236) 
0

>  <NumAliphaticRings>  (236) 
0

>  <NumAromaticCarbocycles>  (236) 
1

>  <NumAromaticHeterocycles>  (236) 
1

>  <NumAromaticRings>  (236) 
2

>  <NumHAcceptors>  (236) 
3

>  <NumHDonors>  (236) 
0

>  <NumHeteroatoms>  (236) 
5

>  <NumRotatableBonds>  (236) 
2

>  <NumSaturatedCarbocycles>  (236) 
0

>  <NumSaturatedHeterocycles>  (236) 
0

>  <NumSaturatedRings>  (236) 
0

>  <RingCount>  (236) 
2

>  <MolLogP>  (236) 
1.4851

>  <MolMR>  (236) 
62.6158

>  <fr_Al_COO>  (236) 
0

>  <fr_Al_OH>  (236) 
0

>  <fr_Al_OH_noTert>  (236) 
0

>  <fr_ArN>  (236) 
0

>  <fr_Ar_COO>  (236) 
0

>  <fr_Ar_N>  (236) 
1

>  <fr_Ar_NH>  (236) 
0

>  <fr_Ar_OH>  (236) 
0

>  <fr_COO>  (236) 
0

>  <fr_COO2>  (236) 
0

>  <fr_C_O>  (236) 
0

>  <fr_C_O_noCOO>  (236) 
0

>  <fr_C_S>  (236) 
0

>  <fr_HOCCN>  (236) 
0

>  <fr_Imine>  (236) 
0

>  <fr_NH0>  (236) 
2

>  <fr_NH1>  (236) 
0

>  <fr_NH2>  (236) 
0

>  <fr_N_O>  (236) 
0

>  <fr_Ndealkylation1>  (236) 
0

>  <fr_Ndealkylation2>  (236) 
0

>  <fr_Nhpyrrole>  (236) 
0

>  <fr_SH>  (236) 
0

>  <fr_aldehyde>  (236) 
0

>  <fr_alkyl_carbamate>  (236) 
0

>  <fr_alkyl_halide>  (236) 
0

>  <fr_allylic_oxid>  (236) 
0

>  <fr_amide>  (236) 
0

>  <fr_amidine>  (236) 
0

>  <fr_aniline>  (236) 
0

>  <fr_aryl_methyl>  (236) 
0

>  <fr_azide>  (236) 
0

>  <fr_azo>  (236) 
0

>  <fr_barbitur>  (236) 
0

>  <fr_benzene>  (236) 
1

>  <fr_benzodiazepine>  (236) 
0

>  <fr_bicyclic>  (236) 
1

>  <fr_diazo>  (236) 
0

>  <fr_dihydropyridine>  (236) 
0

>  <fr_epoxide>  (236) 
0

>  <fr_ester>  (236) 
0

>  <fr_ether>  (236) 
0

>  <fr_furan>  (236) 
0

>  <fr_guanido>  (236) 
0

>  <fr_halogen>  (236) 
0

>  <fr_hdrzine>  (236) 
0

>  <fr_hdrzone>  (236) 
0

>  <fr_imidazole>  (236) 
0

>  <fr_imide>  (236) 
0

>  <fr_isocyan>  (236) 
0

>  <fr_isothiocyan>  (236) 
0

>  <fr_ketone>  (236) 
0

>  <fr_ketone_Topliss>  (236) 
0

>  <fr_lactam>  (236) 
0

>  <fr_lactone>  (236) 
0

>  <fr_methoxy>  (236) 
0

>  <fr_morpholine>  (236) 
0

>  <fr_nitrile>  (236) 
0

>  <fr_nitro>  (236) 
0

>  <fr_nitro_arom>  (236) 
0

>  <fr_nitro_arom_nonortho>  (236) 
0

>  <fr_nitroso>  (236) 
0

>  <fr_oxazole>  (236) 
0

>  <fr_oxime>  (236) 
0

>  <fr_para_hydroxylation>  (236) 
0

>  <fr_phenol>  (236) 
0

>  <fr_phenol_noOrthoHbond>  (236) 
0

>  <fr_phos_acid>  (236) 
0

>  <fr_phos_ester>  (236) 
0

>  <fr_piperdine>  (236) 
0

>  <fr_piperzine>  (236) 
0

>  <fr_priamide>  (236) 
0

>  <fr_prisulfonamd>  (236) 
0

>  <fr_pyridine>  (236) 
1

>  <fr_quatN>  (236) 
0

>  <fr_sulfide>  (236) 
0

>  <fr_sulfonamd>  (236) 
1

>  <fr_sulfone>  (236) 
0

>  <fr_term_acetylene>  (236) 
0

>  <fr_tetrazole>  (236) 
0

>  <fr_thiazole>  (236) 
0

>  <fr_thiocyan>  (236) 
0

>  <fr_thiophene>  (236) 
0

>  <fr_unbrch_alkane>  (236) 
0

>  <fr_urea>  (236) 
0

>  <NP_Likeness>  (236) 
-1.715011

$$$$
P4W
     RDKit          3D

  0  0  0  0  0  0  0  0  0  0999 V3000
M  V30 BEGIN CTAB
M  V30 COUNTS 28 29 0 0 0
M  V30 BEGIN ATOM
M  V30 1 S 13.188000 -15.153000 -0.686000 0
M  V30 2 O 14.546000 -15.036000 -1.118000 0
M  V30 3 O 12.749000 -16.344000 -0.032000 0
M  V30 4 N 7.950000 -15.489000 -2.213000 0
M  V30 5 N 12.924000 -13.920000 0.341000 0
M  V30 6 C 11.708000 -13.963000 1.163000 0
M  V30 7 C 13.324000 -12.578000 -0.097000 0
M  V30 8 C 8.673000 -15.871000 -1.150000 0
M  V30 9 C 8.603000 -14.921000 -3.223000 0
M  V30 10 C 12.050000 -14.062000 -4.349000 0
M  V30 11 C 10.023000 -15.700000 -1.033000 0
M  V30 12 C 12.784000 -14.403000 -3.225000 0
M  V30 13 C 10.694000 -14.187000 -4.363000 0
M  V30 14 C 12.158000 -14.887000 -2.111000 0
M  V30 15 C 10.004000 -14.706000 -3.242000 0
M  V30 16 C 10.739000 -15.093000 -2.090000 0
M  V30 17 H 11.669900 -13.150400 1.744600 0
M  V30 18 H 10.904300 -13.985200 0.568400 0
M  V30 19 H 11.721700 -14.782600 1.735800 0
M  V30 20 H 13.109000 -11.915300 0.620400 0
M  V30 21 H 14.307400 -12.565800 -0.278200 0
M  V30 22 H 12.828200 -12.338200 -0.931700 0
M  V30 23 H 8.191200 -16.310700 -0.392000 0
M  V30 24 H 8.072700 -14.627400 -4.018300 0
M  V30 25 H 12.522200 -13.719400 -5.161200 0
M  V30 26 H 10.500300 -16.001300 -0.207600 0
M  V30 27 H 13.778100 -14.294300 -3.228800 0
M  V30 28 H 10.180200 -13.908900 -5.174600 0
M  V30 END ATOM
M  V30 BEGIN BOND
M  V30 1 2 1 2
M  V30 2 2 1 3
M  V30 3 1 1 5
M  V30 4 1 1 14
M  V30 5 2 4 8
M  V30 6 1 4 9
M  V30 7 1 5 6
M  V30 8 1 5 7
M  V30 9 1 8 11
M  V30 10 2 9 15
M  V30 11 1 10 12
M  V30 12 2 10 13
M  V30 13 2 11 16
M  V30 14 2 12 14
M  V30 15 1 13 15
M  V30 16 1 14 16
M  V30 17 1 15 16
M  V30 18 1 6 17
M  V30 19 1 6 18
M  V30 20 1 6 19
M  V30 21 1 7 20
M  V30 22 1 7 21
M  V30 23 1 7 22
M  V30 24 1 8 23
M  V30 25 1 9 24
M  V30 26 1 10 25
M  V30 27 1 11 26
M  V30 28 1 12 27
M  V30 29 1 13 28
M  V30 END BOND
M  V30 END CTAB
M  END
>  <Ligand_Instance>  (237) 
6YOT_P4W_A_402

>  <Dataset>  (237) 
PDB

>  <PDB_ID>  (237) 
6YOT

>  <Chain>  (237) 
A

>  <Resi>  (237) 
402

>  <Num_Resolved_Atoms>  (237) 
16

>  <Num_H_Atoms_ProtBoundConf>  (237) 
12

>  <Pocket>  (237) 
X

>  <Name>  (237) 
~{N},~{N}-dimethylisoquinoline-5-sulfonamide

>  <Num_Not_Resolved_Atoms>  (237) 
0

>  <ATP_Site>  (237) 
True

>  <Peripheral>  (237) 
True

>  <Standardized_SMILES>  (237) 
[H]C1=NC([H])=C2C([H])=C([H])C([H])=C(S(=O)(=O)N(C([H])([H])[H])C([H])([H])[H])C2=C1[H]

>  <2D_Mol_H>  (237) 
<rdkit.Chem.rdchem.Mol object at 0x77059d81f140>

>  <MW>  (237) 
236.296

>  <HBA>  (237) 
3

>  <HBD>  (237) 
0

>  <LogP>  (237) 
1.4851

>  <NRB>  (237) 
4

>  <TPSA>  (237) 
50.27

>  <Num_Heavy_Atoms>  (237) 
16

>  <Ro5>  (237) 
[True, True, True, True, True, True]

>  <Ro5_Fulfilled>  (237) 
True

>  <Ro3>  (237) 
[True, True, True, True]

>  <Ro3_Fulfilled>  (237) 
True

>  <Fsp3>  (237) 
0.181818

>  <Fsp3_0.42>  (237) 
False

>  <Fsp3_0.45>  (237) 
False

>  <Stereogenic_Carbons>  (237) 
0

>  <C_Atoms>  (237) 
11

>  <FCStereo>  (237) 
0.0

>  <SPS>  (237) 
195

>  <nSPS>  (237) 
12.1875

>  <PBF>  (237) 
0.748749

>  <PBF_0.6>  (237) 
True

>  <nPBF>  (237) 
0.046797

>  <nPBF_0.016>  (237) 
True

>  <PMI1>  (237) 
619.785806

>  <PMI2>  (237) 
1193.044319

>  <PMI3>  (237) 
1486.10633

>  <NPR1>  (237) 
0.417053

>  <NPR2>  (237) 
0.802799

>  <Sum_NPR>  (237) 
1.219852

>  <Sum_NPR_1.07>  (237) 
True

>  <Sum_NPR_1.2>  (237) 
True

>  <MaxAbsEStateIndex>  (237) 
12.051447

>  <MaxEStateIndex>  (237) 
12.051447

>  <MinAbsEStateIndex>  (237) 
0.317037

>  <MinEStateIndex>  (237) 
-3.39794

>  <qed>  (237) 
0.793335

>  <MolWt>  (237) 
236.296

>  <HeavyAtomMolWt>  (237) 
224.2

>  <ExactMolWt>  (237) 
236.061949

>  <NumValenceElectrons>  (237) 
84

>  <NumRadicalElectrons>  (237) 
0

>  <MaxPartialCharge>  (237) 
0.24268

>  <MinPartialCharge>  (237) 
-0.264064

>  <MaxAbsPartialCharge>  (237) 
0.264064

>  <MinAbsPartialCharge>  (237) 
0.24268

>  <FpDensityMorgan1>  (237) 
1.1875

>  <FpDensityMorgan2>  (237) 
1.9375

>  <FpDensityMorgan3>  (237) 
2.625

>  <BCUT2D_MWHI>  (237) 
32.233425

>  <BCUT2D_MWLOW>  (237) 
10.168338

>  <BCUT2D_CHGHI>  (237) 
2.188381

>  <BCUT2D_CHGLO>  (237) 
-2.125463

>  <BCUT2D_LOGPHI>  (237) 
2.230424

>  <BCUT2D_LOGPLOW>  (237) 
-2.21905

>  <BCUT2D_MRHI>  (237) 
7.889132

>  <BCUT2D_MRLOW>  (237) 
0.521471

>  <AvgIpc>  (237) 
2.277009

>  <BalabanJ>  (237) 
2.803917

>  <BertzCT>  (237) 
615.422097

>  <Chi0>  (237) 
11.759149

>  <Chi0n>  (237) 
9.083274

>  <Chi0v>  (237) 
9.89977

>  <Chi1>  (237) 
7.531711

>  <Chi1n>  (237) 
4.785557

>  <Chi1v>  (237) 
6.225621

>  <Chi2n>  (237) 
3.640388

>  <Chi2v>  (237) 
5.760644

>  <Chi3n>  (237) 
2.399359

>  <Chi3v>  (237) 
4.272601

>  <Chi4n>  (237) 
1.514465

>  <Chi4v>  (237) 
2.622194

>  <HallKierAlpha>  (237) 
-1.46

>  <Ipc>  (237) 
4390.072449

>  <Kappa1>  (237) 
11.038237

>  <Kappa2>  (237) 
3.842384

>  <Kappa3>  (237) 
1.678749

>  <LabuteASA>  (237) 
94.583209

>  <PEOE_VSA1>  (237) 
0.0

>  <PEOE_VSA10>  (237) 
0.0

>  <PEOE_VSA11>  (237) 
0.0

>  <PEOE_VSA12>  (237) 
10.023291

>  <PEOE_VSA13>  (237) 
0.0

>  <PEOE_VSA14>  (237) 
0.0

>  <PEOE_VSA2>  (237) 
4.983979

>  <PEOE_VSA3>  (237) 
12.723013

>  <PEOE_VSA4>  (237) 
0.0

>  <PEOE_VSA5>  (237) 
0.0

>  <PEOE_VSA6>  (237) 
12.132734

>  <PEOE_VSA7>  (237) 
12.132734

>  <PEOE_VSA8>  (237) 
37.26148

>  <PEOE_VSA9>  (237) 
4.895483

>  <SMR_VSA1>  (237) 
8.417797

>  <SMR_VSA10>  (237) 
20.79574

>  <SMR_VSA2>  (237) 
0.0

>  <SMR_VSA3>  (237) 
9.289195

>  <SMR_VSA4>  (237) 
0.0

>  <SMR_VSA5>  (237) 
4.895483

>  <SMR_VSA6>  (237) 
14.095344

>  <SMR_VSA7>  (237) 
36.659155

>  <SMR_VSA8>  (237) 
0.0

>  <SMR_VSA9>  (237) 
0.0

>  <SlogP_VSA1>  (237) 
0.0

>  <SlogP_VSA10>  (237) 
0.0

>  <SlogP_VSA11>  (237) 
0.0

>  <SlogP_VSA12>  (237) 
0.0

>  <SlogP_VSA2>  (237) 
31.802335

>  <SlogP_VSA3>  (237) 
10.023291

>  <SlogP_VSA4>  (237) 
0.0

>  <SlogP_VSA5>  (237) 
0.0

>  <SlogP_VSA6>  (237) 
41.554639

>  <SlogP_VSA7>  (237) 
0.0

>  <SlogP_VSA8>  (237) 
10.772448

>  <SlogP_VSA9>  (237) 
0.0

>  <EState_VSA1>  (237) 
10.023291

>  <EState_VSA10>  (237) 
8.417797

>  <EState_VSA11>  (237) 
0.0

>  <EState_VSA2>  (237) 
0.0

>  <EState_VSA3>  (237) 
10.281708

>  <EState_VSA4>  (237) 
5.386224

>  <EState_VSA5>  (237) 
18.40056

>  <EState_VSA6>  (237) 
30.592788

>  <EState_VSA7>  (237) 
6.066367

>  <EState_VSA8>  (237) 
4.983979

>  <EState_VSA9>  (237) 
0.0

>  <VSA_EState1>  (237) 
25.313413

>  <VSA_EState10>  (237) 
0.0

>  <VSA_EState2>  (237) 
4.289504

>  <VSA_EState3>  (237) 
1.524653

>  <VSA_EState4>  (237) 
0.0

>  <VSA_EState5>  (237) 
0.0

>  <VSA_EState6>  (237) 
6.889676

>  <VSA_EState7>  (237) 
3.251019

>  <VSA_EState8>  (237) 
0.0

>  <VSA_EState9>  (237) 
-0.351597

>  <FractionCSP3>  (237) 
0.181818

>  <HeavyAtomCount>  (237) 
16

>  <NHOHCount>  (237) 
0

>  <NOCount>  (237) 
4

>  <NumAliphaticCarbocycles>  (237) 
0

>  <NumAliphaticHeterocycles>  (237) 
0

>  <NumAliphaticRings>  (237) 
0

>  <NumAromaticCarbocycles>  (237) 
1

>  <NumAromaticHeterocycles>  (237) 
1

>  <NumAromaticRings>  (237) 
2

>  <NumHAcceptors>  (237) 
3

>  <NumHDonors>  (237) 
0

>  <NumHeteroatoms>  (237) 
5

>  <NumRotatableBonds>  (237) 
2

>  <NumSaturatedCarbocycles>  (237) 
0

>  <NumSaturatedHeterocycles>  (237) 
0

>  <NumSaturatedRings>  (237) 
0

>  <RingCount>  (237) 
2

>  <MolLogP>  (237) 
1.4851

>  <MolMR>  (237) 
62.6158

>  <fr_Al_COO>  (237) 
0

>  <fr_Al_OH>  (237) 
0

>  <fr_Al_OH_noTert>  (237) 
0

>  <fr_ArN>  (237) 
0

>  <fr_Ar_COO>  (237) 
0

>  <fr_Ar_N>  (237) 
1

>  <fr_Ar_NH>  (237) 
0

>  <fr_Ar_OH>  (237) 
0

>  <fr_COO>  (237) 
0

>  <fr_COO2>  (237) 
0

>  <fr_C_O>  (237) 
0

>  <fr_C_O_noCOO>  (237) 
0

>  <fr_C_S>  (237) 
0

>  <fr_HOCCN>  (237) 
0

>  <fr_Imine>  (237) 
0

>  <fr_NH0>  (237) 
2

>  <fr_NH1>  (237) 
0

>  <fr_NH2>  (237) 
0

>  <fr_N_O>  (237) 
0

>  <fr_Ndealkylation1>  (237) 
0

>  <fr_Ndealkylation2>  (237) 
0

>  <fr_Nhpyrrole>  (237) 
0

>  <fr_SH>  (237) 
0

>  <fr_aldehyde>  (237) 
0

>  <fr_alkyl_carbamate>  (237) 
0

>  <fr_alkyl_halide>  (237) 
0

>  <fr_allylic_oxid>  (237) 
0

>  <fr_amide>  (237) 
0

>  <fr_amidine>  (237) 
0

>  <fr_aniline>  (237) 
0

>  <fr_aryl_methyl>  (237) 
0

>  <fr_azide>  (237) 
0

>  <fr_azo>  (237) 
0

>  <fr_barbitur>  (237) 
0

>  <fr_benzene>  (237) 
1

>  <fr_benzodiazepine>  (237) 
0

>  <fr_bicyclic>  (237) 
1

>  <fr_diazo>  (237) 
0

>  <fr_dihydropyridine>  (237) 
0

>  <fr_epoxide>  (237) 
0

>  <fr_ester>  (237) 
0

>  <fr_ether>  (237) 
0

>  <fr_furan>  (237) 
0

>  <fr_guanido>  (237) 
0

>  <fr_halogen>  (237) 
0

>  <fr_hdrzine>  (237) 
0

>  <fr_hdrzone>  (237) 
0

>  <fr_imidazole>  (237) 
0

>  <fr_imide>  (237) 
0

>  <fr_isocyan>  (237) 
0

>  <fr_isothiocyan>  (237) 
0

>  <fr_ketone>  (237) 
0

>  <fr_ketone_Topliss>  (237) 
0

>  <fr_lactam>  (237) 
0

>  <fr_lactone>  (237) 
0

>  <fr_methoxy>  (237) 
0

>  <fr_morpholine>  (237) 
0

>  <fr_nitrile>  (237) 
0

>  <fr_nitro>  (237) 
0

>  <fr_nitro_arom>  (237) 
0

>  <fr_nitro_arom_nonortho>  (237) 
0

>  <fr_nitroso>  (237) 
0

>  <fr_oxazole>  (237) 
0

>  <fr_oxime>  (237) 
0

>  <fr_para_hydroxylation>  (237) 
0

>  <fr_phenol>  (237) 
0

>  <fr_phenol_noOrthoHbond>  (237) 
0

>  <fr_phos_acid>  (237) 
0

>  <fr_phos_ester>  (237) 
0

>  <fr_piperdine>  (237) 
0

>  <fr_piperzine>  (237) 
0

>  <fr_priamide>  (237) 
0

>  <fr_prisulfonamd>  (237) 
0

>  <fr_pyridine>  (237) 
1

>  <fr_quatN>  (237) 
0

>  <fr_sulfide>  (237) 
0

>  <fr_sulfonamd>  (237) 
1

>  <fr_sulfone>  (237) 
0

>  <fr_term_acetylene>  (237) 
0

>  <fr_tetrazole>  (237) 
0

>  <fr_thiazole>  (237) 
0

>  <fr_thiocyan>  (237) 
0

>  <fr_thiophene>  (237) 
0

>  <fr_unbrch_alkane>  (237) 
0

>  <fr_urea>  (237) 
0

>  <NP_Likeness>  (237) 
-1.715011

$$$$
P72
     RDKit          3D

  0  0  0  0  0  0  0  0  0  0999 V3000
M  V30 BEGIN CTAB
M  V30 COUNTS 19 19 0 0 0
M  V30 BEGIN ATOM
M  V30 1 O 12.437000 7.282000 18.687000 0
M  V30 2 N 14.580000 1.470000 19.598000 0 CHG=1
M  V30 3 N 16.431000 2.456000 20.377000 0
M  V30 4 C 12.535000 4.935000 19.038000 0
M  V30 5 C 14.514000 6.267000 19.341000 0
M  V30 6 C 13.254000 3.798000 19.360000 0
M  V30 7 C 15.227000 5.123000 19.663000 0
M  V30 8 C 13.164000 6.173000 19.022000 0
M  V30 9 C 15.267000 2.575000 19.901000 0
M  V30 10 C 14.607000 3.872000 19.663000 0
M  V30 11 H 12.875000 8.180800 18.670700 0
M  V30 12 H 13.657000 1.542900 19.220200 0
M  V30 13 H 14.988800 0.569900 19.749000 0
M  V30 14 H 16.961500 3.270900 20.610300 0
M  V30 15 H 11.562300 4.865500 18.816700 0
M  V30 16 H 14.969200 7.157400 19.338100 0
M  V30 17 H 12.793100 2.910700 19.374800 0
M  V30 18 H 16.196400 5.194400 19.898000 0
M  V30 19 H 16.822000 1.546900 20.520600 0
M  V30 END ATOM
M  V30 BEGIN BOND
M  V30 1 1 1 8
M  V30 2 2 2 9
M  V30 3 1 3 9
M  V30 4 2 4 6
M  V30 5 1 4 8
M  V30 6 1 5 7
M  V30 7 2 5 8
M  V30 8 1 6 10
M  V30 9 2 7 10
M  V30 10 1 9 10
M  V30 11 1 1 11
M  V30 12 1 2 12
M  V30 13 1 2 13
M  V30 14 1 3 14
M  V30 15 1 4 15
M  V30 16 1 5 16
M  V30 17 1 6 17
M  V30 18 1 7 18
M  V30 19 1 3 19
M  V30 END BOND
M  V30 END CTAB
M  END
>  <Ligand_Instance>  (238) 
6YPS_P72_A_402

>  <Dataset>  (238) 
PDB

>  <PDB_ID>  (238) 
6YPS

>  <Chain>  (238) 
A

>  <Resi>  (238) 
402

>  <Num_Resolved_Atoms>  (238) 
10

>  <Num_H_Atoms_ProtBoundConf>  (238) 
9

>  <Pocket>  (238) 
A

>  <Name>  (238) 
4-oxidanylbenzenecarboximidamide

>  <Num_Not_Resolved_Atoms>  (238) 
0

>  <ATP_Site>  (238) 
True

>  <Peripheral>  (238) 
False

>  <Standardized_SMILES>  (238) 
[H]OC1=C([H])C([H])=C(C(N([H])[H])=[N+]([H])[H])C([H])=C1[H]

>  <2D_Mol_H>  (238) 
<rdkit.Chem.rdchem.Mol object at 0x77059d81f220>

>  <MW>  (238) 
137.162

>  <HBA>  (238) 
1

>  <HBD>  (238) 
3

>  <LogP>  (238) 
-1.1434

>  <NRB>  (238) 
2

>  <TPSA>  (238) 
71.84

>  <Num_Heavy_Atoms>  (238) 
10

>  <Ro5>  (238) 
[True, True, True, True, True, True]

>  <Ro5_Fulfilled>  (238) 
True

>  <Ro3>  (238) 
[True, True, True, True]

>  <Ro3_Fulfilled>  (238) 
True

>  <Fsp3>  (238) 
0.0

>  <Fsp3_0.42>  (238) 
False

>  <Fsp3_0.45>  (238) 
False

>  <Stereogenic_Carbons>  (238) 
0

>  <C_Atoms>  (238) 
7

>  <FCStereo>  (238) 
0.0

>  <SPS>  (238) 
92

>  <nSPS>  (238) 
9.2

>  <PBF>  (238) 
0.118027

>  <PBF_0.6>  (238) 
False

>  <nPBF>  (238) 
0.011803

>  <nPBF_0.016>  (238) 
False

>  <PMI1>  (238) 
132.763322

>  <PMI2>  (238) 
641.710923

>  <PMI3>  (238) 
771.685564

>  <NPR1>  (238) 
0.172043

>  <NPR2>  (238) 
0.83157

>  <Sum_NPR>  (238) 
1.003614

>  <Sum_NPR_1.07>  (238) 
False

>  <Sum_NPR_1.2>  (238) 
False

>  <MaxAbsEStateIndex>  (238) 
8.847559

>  <MaxEStateIndex>  (238) 
8.847559

>  <MinAbsEStateIndex>  (238) 
0.212963

>  <MinEStateIndex>  (238) 
0.212963

>  <qed>  (238) 
0.337853

>  <MolWt>  (238) 
137.162

>  <HeavyAtomMolWt>  (238) 
128.09

>  <ExactMolWt>  (238) 
137.070939

>  <NumValenceElectrons>  (238) 
52

>  <NumRadicalElectrons>  (238) 
0

>  <MaxPartialCharge>  (238) 
0.270176

>  <MinPartialCharge>  (238) 
-0.507966

>  <MaxAbsPartialCharge>  (238) 
0.507966

>  <MinAbsPartialCharge>  (238) 
0.270176

>  <FpDensityMorgan1>  (238) 
1.3

>  <FpDensityMorgan2>  (238) 
1.8

>  <FpDensityMorgan3>  (238) 
2.2

>  <BCUT2D_MWHI>  (238) 
16.254636

>  <BCUT2D_MWLOW>  (238) 
10.183582

>  <BCUT2D_CHGHI>  (238) 
1.980153

>  <BCUT2D_CHGLO>  (238) 
-1.914734

>  <BCUT2D_LOGPHI>  (238) 
2.071566

>  <BCUT2D_LOGPLOW>  (238) 
-2.455985

>  <BCUT2D_MRHI>  (238) 
5.920618

>  <BCUT2D_MRLOW>  (238) 
-0.113728

>  <AvgIpc>  (238) 
1.884505

>  <BalabanJ>  (238) 
3.003401

>  <BertzCT>  (238) 
240.287949

>  <Chi0>  (238) 
7.560478

>  <Chi0n>  (238) 
5.411315

>  <Chi0v>  (238) 
5.411315

>  <Chi1>  (238) 
4.698377

>  <Chi1n>  (238) 
2.872324

>  <Chi1v>  (238) 
2.872324

>  <Chi2n>  (238) 
2.002216

>  <Chi2v>  (238) 
2.002216

>  <Chi3n>  (238) 
1.200638

>  <Chi3v>  (238) 
1.200638

>  <Chi4n>  (238) 
0.65388

>  <Chi4v>  (238) 
0.65388

>  <HallKierAlpha>  (238) 
-1.51

>  <Ipc>  (238) 
180.912515

>  <Kappa1>  (238) 
6.607786

>  <Kappa2>  (238) 
2.389633

>  <Kappa3>  (238) 
1.253905

>  <LabuteASA>  (238) 
58.615821

>  <PEOE_VSA1>  (238) 
5.106527

>  <PEOE_VSA10>  (238) 
5.749512

>  <PEOE_VSA11>  (238) 
0.0

>  <PEOE_VSA12>  (238) 
0.0

>  <PEOE_VSA13>  (238) 
5.83562

>  <PEOE_VSA14>  (238) 
0.0

>  <PEOE_VSA2>  (238) 
11.142951

>  <PEOE_VSA3>  (238) 
0.0

>  <PEOE_VSA4>  (238) 
0.0

>  <PEOE_VSA5>  (238) 
0.0

>  <PEOE_VSA6>  (238) 
0.0

>  <PEOE_VSA7>  (238) 
24.265468

>  <PEOE_VSA8>  (238) 
0.0

>  <PEOE_VSA9>  (238) 
5.563451

>  <SMR_VSA1>  (238) 
10.515811

>  <SMR_VSA10>  (238) 
5.83562

>  <SMR_VSA2>  (238) 
0.0

>  <SMR_VSA3>  (238) 
0.0

>  <SMR_VSA4>  (238) 
5.733667

>  <SMR_VSA5>  (238) 
0.0

>  <SMR_VSA6>  (238) 
0.0

>  <SMR_VSA7>  (238) 
29.82892

>  <SMR_VSA8>  (238) 
0.0

>  <SMR_VSA9>  (238) 
5.749512

>  <SlogP_VSA1>  (238) 
11.142951

>  <SlogP_VSA10>  (238) 
0.0

>  <SlogP_VSA11>  (238) 
5.749512

>  <SlogP_VSA12>  (238) 
0.0

>  <SlogP_VSA2>  (238) 
10.942147

>  <SlogP_VSA3>  (238) 
0.0

>  <SlogP_VSA4>  (238) 
0.0

>  <SlogP_VSA5>  (238) 
5.563451

>  <SlogP_VSA6>  (238) 
24.265468

>  <SlogP_VSA7>  (238) 
0.0

>  <SlogP_VSA8>  (238) 
0.0

>  <SlogP_VSA9>  (238) 
0.0

>  <EState_VSA1>  (238) 
0.0

>  <EState_VSA10>  (238) 
0.0

>  <EState_VSA11>  (238) 
0.0

>  <EState_VSA2>  (238) 
11.585132

>  <EState_VSA3>  (238) 
0.0

>  <EState_VSA4>  (238) 
5.563451

>  <EState_VSA5>  (238) 
12.132734

>  <EState_VSA6>  (238) 
12.132734

>  <EState_VSA7>  (238) 
0.0

>  <EState_VSA8>  (238) 
0.0

>  <EState_VSA9>  (238) 
16.249478

>  <VSA_EState1>  (238) 
0.0

>  <VSA_EState10>  (238) 
0.0

>  <VSA_EState2>  (238) 
0.0

>  <VSA_EState3>  (238) 
14.12415

>  <VSA_EState4>  (238) 
6.010665

>  <VSA_EState5>  (238) 
0.476852

>  <VSA_EState6>  (238) 
6.388333

>  <VSA_EState7>  (238) 
0.0

>  <VSA_EState8>  (238) 
0.0

>  <VSA_EState9>  (238) 
0.0

>  <FractionCSP3>  (238) 
0.0

>  <HeavyAtomCount>  (238) 
10

>  <NHOHCount>  (238) 
5

>  <NOCount>  (238) 
3

>  <NumAliphaticCarbocycles>  (238) 
0

>  <NumAliphaticHeterocycles>  (238) 
0

>  <NumAliphaticRings>  (238) 
0

>  <NumAromaticCarbocycles>  (238) 
1

>  <NumAromaticHeterocycles>  (238) 
0

>  <NumAromaticRings>  (238) 
1

>  <NumHAcceptors>  (238) 
1

>  <NumHDonors>  (238) 
3

>  <NumHeteroatoms>  (238) 
3

>  <NumRotatableBonds>  (238) 
1

>  <NumSaturatedCarbocycles>  (238) 
0

>  <NumSaturatedHeterocycles>  (238) 
0

>  <NumSaturatedRings>  (238) 
0

>  <RingCount>  (238) 
1

>  <MolLogP>  (238) 
-1.1434

>  <MolMR>  (238) 
38.3286

>  <fr_Al_COO>  (238) 
0

>  <fr_Al_OH>  (238) 
0

>  <fr_Al_OH_noTert>  (238) 
0

>  <fr_ArN>  (238) 
0

>  <fr_Ar_COO>  (238) 
0

>  <fr_Ar_N>  (238) 
0

>  <fr_Ar_NH>  (238) 
0

>  <fr_Ar_OH>  (238) 
1

>  <fr_COO>  (238) 
0

>  <fr_COO2>  (238) 
0

>  <fr_C_O>  (238) 
0

>  <fr_C_O_noCOO>  (238) 
0

>  <fr_C_S>  (238) 
0

>  <fr_HOCCN>  (238) 
0

>  <fr_Imine>  (238) 
0

>  <fr_NH0>  (238) 
0

>  <fr_NH1>  (238) 
0

>  <fr_NH2>  (238) 
2

>  <fr_N_O>  (238) 
0

>  <fr_Ndealkylation1>  (238) 
0

>  <fr_Ndealkylation2>  (238) 
0

>  <fr_Nhpyrrole>  (238) 
0

>  <fr_SH>  (238) 
0

>  <fr_aldehyde>  (238) 
0

>  <fr_alkyl_carbamate>  (238) 
0

>  <fr_alkyl_halide>  (238) 
0

>  <fr_allylic_oxid>  (238) 
0

>  <fr_amide>  (238) 
0

>  <fr_amidine>  (238) 
1

>  <fr_aniline>  (238) 
0

>  <fr_aryl_methyl>  (238) 
0

>  <fr_azide>  (238) 
0

>  <fr_azo>  (238) 
0

>  <fr_barbitur>  (238) 
0

>  <fr_benzene>  (238) 
1

>  <fr_benzodiazepine>  (238) 
0

>  <fr_bicyclic>  (238) 
0

>  <fr_diazo>  (238) 
0

>  <fr_dihydropyridine>  (238) 
0

>  <fr_epoxide>  (238) 
0

>  <fr_ester>  (238) 
0

>  <fr_ether>  (238) 
0

>  <fr_furan>  (238) 
0

>  <fr_guanido>  (238) 
0

>  <fr_halogen>  (238) 
0

>  <fr_hdrzine>  (238) 
0

>  <fr_hdrzone>  (238) 
0

>  <fr_imidazole>  (238) 
0

>  <fr_imide>  (238) 
0

>  <fr_isocyan>  (238) 
0

>  <fr_isothiocyan>  (238) 
0

>  <fr_ketone>  (238) 
0

>  <fr_ketone_Topliss>  (238) 
0

>  <fr_lactam>  (238) 
0

>  <fr_lactone>  (238) 
0

>  <fr_methoxy>  (238) 
0

>  <fr_morpholine>  (238) 
0

>  <fr_nitrile>  (238) 
0

>  <fr_nitro>  (238) 
0

>  <fr_nitro_arom>  (238) 
0

>  <fr_nitro_arom_nonortho>  (238) 
0

>  <fr_nitroso>  (238) 
0

>  <fr_oxazole>  (238) 
0

>  <fr_oxime>  (238) 
0

>  <fr_para_hydroxylation>  (238) 
0

>  <fr_phenol>  (238) 
1

>  <fr_phenol_noOrthoHbond>  (238) 
1

>  <fr_phos_acid>  (238) 
0

>  <fr_phos_ester>  (238) 
0

>  <fr_piperdine>  (238) 
0

>  <fr_piperzine>  (238) 
0

>  <fr_priamide>  (238) 
0

>  <fr_prisulfonamd>  (238) 
0

>  <fr_pyridine>  (238) 
0

>  <fr_quatN>  (238) 
0

>  <fr_sulfide>  (238) 
0

>  <fr_sulfonamd>  (238) 
0

>  <fr_sulfone>  (238) 
0

>  <fr_term_acetylene>  (238) 
0

>  <fr_tetrazole>  (238) 
0

>  <fr_thiazole>  (238) 
0

>  <fr_thiocyan>  (238) 
0

>  <fr_thiophene>  (238) 
0

>  <fr_unbrch_alkane>  (238) 
0

>  <fr_urea>  (238) 
0

>  <NP_Likeness>  (238) 
0.272127

$$$$
PTV
     RDKit          3D

  0  0  0  0  0  0  0  0  0  0999 V3000
M  V30 BEGIN CTAB
M  V30 COUNTS 31 33 0 0 0
M  V30 BEGIN ATOM
M  V30 1 S 12.725000 13.498000 0.157000 0
M  V30 2 S 10.643000 9.911000 3.775000 0
M  V30 3 O 11.340000 12.404000 2.664000 0
M  V30 4 N 2.871000 9.649000 3.890000 0 CHG=-1
M  V30 5 N 8.685000 9.718000 1.805000 0
M  V30 6 N 7.454000 9.715000 1.723000 0
M  V30 7 N 7.919000 9.898000 3.810000 0
M  V30 8 C 13.551000 13.088000 -1.256000 0
M  V30 9 C 11.724000 10.056000 2.326000 0
M  V30 10 C 3.758000 9.696000 4.882000 0
M  V30 11 C 3.235000 9.666000 2.609000 0
M  V30 12 C 13.611000 11.741000 -1.299000 0
M  V30 13 C 13.051000 11.095000 -0.259000 0
M  V30 14 C 5.128000 9.792000 4.608000 0
M  V30 15 C 4.584000 9.774000 2.264000 0
M  V30 16 C 9.021000 9.843000 3.085000 0
M  V30 17 C 12.517000 11.919000 0.643000 0
M  V30 18 C 11.805000 11.528000 1.931000 0
M  V30 19 C 6.915000 9.843000 2.945000 0
M  V30 20 C 5.553000 9.832000 3.271000 0
M  V30 21 H 6.935200 9.629800 0.872400 0
M  V30 22 H 7.854600 9.966900 4.805500 0
M  V30 23 H 13.924800 13.722500 -1.932500 0
M  V30 24 H 11.346700 9.523300 1.568500 0
M  V30 25 H 12.637200 9.715800 2.550500 0
M  V30 26 H 3.443200 9.662500 5.830600 0
M  V30 27 H 2.540600 9.601300 1.892300 0
M  V30 28 H 14.044500 11.252600 -2.056300 0
M  V30 29 H 13.037000 10.098900 -0.171900 0
M  V30 30 H 5.793300 9.831400 5.353600 0
M  V30 31 H 4.855700 9.809700 1.302300 0
M  V30 END ATOM
M  V30 BEGIN BOND
M  V30 1 1 1 8
M  V30 2 1 1 17
M  V30 3 1 2 9
M  V30 4 1 2 16
M  V30 5 2 3 18
M  V30 6 1 4 10
M  V30 7 1 4 11
M  V30 8 1 5 6
M  V30 9 2 5 16
M  V30 10 1 6 19
M  V30 11 1 7 16
M  V30 12 1 7 19
M  V30 13 2 8 12
M  V30 14 1 9 18
M  V30 15 2 10 14
M  V30 16 2 11 15
M  V30 17 1 12 13
M  V30 18 2 13 17
M  V30 19 1 14 20
M  V30 20 1 15 20
M  V30 21 1 17 18
M  V30 22 2 19 20
M  V30 23 1 15 31
M  V30 24 1 6 21
M  V30 25 1 7 22
M  V30 26 1 8 23
M  V30 27 1 9 24
M  V30 28 1 9 25
M  V30 29 1 10 26
M  V30 30 1 11 27
M  V30 31 1 12 28
M  V30 32 1 13 29
M  V30 33 1 14 30
M  V30 END BOND
M  V30 END CTAB
M  END
>  <Ligand_Instance>  (239) 
4IJ9_PTV_A_401

>  <Dataset>  (239) 
PDB

>  <PDB_ID>  (239) 
4IJ9

>  <Chain>  (239) 
A

>  <Resi>  (239) 
401

>  <Num_Resolved_Atoms>  (239) 
20

>  <Num_H_Atoms_ProtBoundConf>  (239) 
11

>  <Pocket>  (239) 
A

>  <Name>  (239) 
2-[[5-(4-pyridyl)-1H-1,2,4-triazol-3-yl]sulfanyl]-1-(2-thiophenyl)ethanone

>  <Num_Not_Resolved_Atoms>  (239) 
0

>  <ATP_Site>  (239) 
True

>  <Peripheral>  (239) 
False

>  <Standardized_SMILES>  (239) 
[H]C1=C([H])C(=C2N([H])N=C(SC([H])([H])C(=O)C3=C([H])C([H])=C([H])S3)N2[H])C([H])=C([H])[N-]1

>  <2D_Mol_H>  (239) 
<rdkit.Chem.rdchem.Mol object at 0x77059d81f300>

>  <MW>  (239) 
303.392

>  <HBA>  (239) 
6

>  <HBD>  (239) 
2

>  <LogP>  (239) 
2.7541

>  <NRB>  (239) 
3

>  <TPSA>  (239) 
67.59

>  <Num_Heavy_Atoms>  (239) 
20

>  <Ro5>  (239) 
[True, True, True, True, True, True]

>  <Ro5_Fulfilled>  (239) 
True

>  <Ro3>  (239) 
[False, False, True, True]

>  <Ro3_Fulfilled>  (239) 
False

>  <Fsp3>  (239) 
0.076923

>  <Fsp3_0.42>  (239) 
False

>  <Fsp3_0.45>  (239) 
False

>  <Stereogenic_Carbons>  (239) 
0

>  <C_Atoms>  (239) 
13

>  <FCStereo>  (239) 
0.0

>  <SPS>  (239) 
330

>  <nSPS>  (239) 
16.5

>  <PBF>  (239) 
0.66619

>  <PBF_0.6>  (239) 
True

>  <nPBF>  (239) 
0.03331

>  <nPBF_0.016>  (239) 
True

>  <PMI1>  (239) 
652.343299

>  <PMI2>  (239) 
4811.845077

>  <PMI3>  (239) 
5092.077084

>  <NPR1>  (239) 
0.128109

>  <NPR2>  (239) 
0.944967

>  <Sum_NPR>  (239) 
1.073077

>  <Sum_NPR_1.07>  (239) 
True

>  <Sum_NPR_1.2>  (239) 
False

>  <MaxAbsEStateIndex>  (239) 
11.885343

>  <MaxEStateIndex>  (239) 
11.885343

>  <MinAbsEStateIndex>  (239) 
0.117464

>  <MinEStateIndex>  (239) 
0.117464

>  <qed>  (239) 
0.84261

>  <MolWt>  (239) 
303.392

>  <HeavyAtomMolWt>  (239) 
292.304

>  <ExactMolWt>  (239) 
303.037977

>  <NumValenceElectrons>  (239) 
102

>  <NumRadicalElectrons>  (239) 
0

>  <MaxPartialCharge>  (239) 
0.186347

>  <MinPartialCharge>  (239) 
-0.670313

>  <MaxAbsPartialCharge>  (239) 
0.670313

>  <MinAbsPartialCharge>  (239) 
0.186347

>  <FpDensityMorgan1>  (239) 
1.4

>  <FpDensityMorgan2>  (239) 
2.25

>  <FpDensityMorgan3>  (239) 
3.0

>  <BCUT2D_MWHI>  (239) 
32.166629

>  <BCUT2D_MWLOW>  (239) 
10.200885

>  <BCUT2D_CHGHI>  (239) 
2.153903

>  <BCUT2D_CHGLO>  (239) 
-2.142954

>  <BCUT2D_LOGPHI>  (239) 
2.174692

>  <BCUT2D_LOGPLOW>  (239) 
-2.191149

>  <BCUT2D_MRHI>  (239) 
8.139514

>  <BCUT2D_MRLOW>  (239) 
0.102166

>  <AvgIpc>  (239) 
3.17064

>  <BalabanJ>  (239) 
1.55627

>  <BertzCT>  (239) 
614.806163

>  <Chi0>  (239) 
13.786246

>  <Chi0n>  (239) 
10.367731

>  <Chi0v>  (239) 
12.000724

>  <Chi1>  (239) 
9.8265

>  <Chi1n>  (239) 
5.903273

>  <Chi1v>  (239) 
7.768525

>  <Chi2n>  (239) 
3.953801

>  <Chi2v>  (239) 
5.865544

>  <Chi3n>  (239) 
2.606159

>  <Chi3v>  (239) 
4.390377

>  <Chi4n>  (239) 
1.635424

>  <Chi4v>  (239) 
3.099021

>  <HallKierAlpha>  (239) 
-1.99

>  <Ipc>  (239) 
85087.295482

>  <Kappa1>  (239) 
13.01452

>  <Kappa2>  (239) 
5.976375

>  <Kappa3>  (239) 
2.942852

>  <LabuteASA>  (239) 
124.075451

>  <PEOE_VSA1>  (239) 
10.633577

>  <PEOE_VSA10>  (239) 
5.820974

>  <PEOE_VSA11>  (239) 
10.950897

>  <PEOE_VSA12>  (239) 
0.0

>  <PEOE_VSA13>  (239) 
0.0

>  <PEOE_VSA14>  (239) 
0.0

>  <PEOE_VSA2>  (239) 
10.220329

>  <PEOE_VSA3>  (239) 
0.0

>  <PEOE_VSA4>  (239) 
12.39991

>  <PEOE_VSA5>  (239) 
16.438193

>  <PEOE_VSA6>  (239) 
29.980292

>  <PEOE_VSA7>  (239) 
11.44643

>  <PEOE_VSA8>  (239) 
5.573105

>  <PEOE_VSA9>  (239) 
10.630001

>  <SMR_VSA1>  (239) 
4.794537

>  <SMR_VSA10>  (239) 
34.049568

>  <SMR_VSA2>  (239) 
0.0

>  <SMR_VSA3>  (239) 
10.74258

>  <SMR_VSA4>  (239) 
5.101408

>  <SMR_VSA5>  (239) 
0.0

>  <SMR_VSA6>  (239) 
5.752854

>  <SMR_VSA7>  (239) 
63.652761

>  <SMR_VSA8>  (239) 
0.0

>  <SMR_VSA9>  (239) 
0.0

>  <SlogP_VSA1>  (239) 
10.74258

>  <SlogP_VSA10>  (239) 
0.0

>  <SlogP_VSA11>  (239) 
0.0

>  <SlogP_VSA12>  (239) 
23.098671

>  <SlogP_VSA2>  (239) 
16.70375

>  <SlogP_VSA3>  (239) 
0.0

>  <SlogP_VSA4>  (239) 
0.0

>  <SlogP_VSA5>  (239) 
9.671684

>  <SlogP_VSA6>  (239) 
58.560233

>  <SlogP_VSA7>  (239) 
0.0

>  <SlogP_VSA8>  (239) 
5.316789

>  <SlogP_VSA9>  (239) 
0.0

>  <EState_VSA1>  (239) 
0.0

>  <EState_VSA10>  (239) 
4.794537

>  <EState_VSA11>  (239) 
0.0

>  <EState_VSA2>  (239) 
5.783245

>  <EState_VSA3>  (239) 
10.920505

>  <EState_VSA4>  (239) 
16.271226

>  <EState_VSA5>  (239) 
23.098671

>  <EState_VSA6>  (239) 
12.39991

>  <EState_VSA7>  (239) 
29.664837

>  <EState_VSA8>  (239) 
21.160776

>  <EState_VSA9>  (239) 
0.0

>  <VSA_EState1>  (239) 
0.0

>  <VSA_EState10>  (239) 
2.845849

>  <VSA_EState2>  (239) 
12.665337

>  <VSA_EState3>  (239) 
13.876564

>  <VSA_EState4>  (239) 
3.893554

>  <VSA_EState5>  (239) 
1.294276

>  <VSA_EState6>  (239) 
3.717261

>  <VSA_EState7>  (239) 
7.20716

>  <VSA_EState8>  (239) 
0.0

>  <VSA_EState9>  (239) 
0.0

>  <FractionCSP3>  (239) 
0.076923

>  <HeavyAtomCount>  (239) 
20

>  <NHOHCount>  (239) 
2

>  <NOCount>  (239) 
5

>  <NumAliphaticCarbocycles>  (239) 
0

>  <NumAliphaticHeterocycles>  (239) 
2

>  <NumAliphaticRings>  (239) 
2

>  <NumAromaticCarbocycles>  (239) 
0

>  <NumAromaticHeterocycles>  (239) 
1

>  <NumAromaticRings>  (239) 
1

>  <NumHAcceptors>  (239) 
6

>  <NumHDonors>  (239) 
2

>  <NumHeteroatoms>  (239) 
7

>  <NumRotatableBonds>  (239) 
3

>  <NumSaturatedCarbocycles>  (239) 
0

>  <NumSaturatedHeterocycles>  (239) 
0

>  <NumSaturatedRings>  (239) 
0

>  <RingCount>  (239) 
3

>  <MolLogP>  (239) 
2.7541

>  <MolMR>  (239) 
83.4789

>  <fr_Al_COO>  (239) 
0

>  <fr_Al_OH>  (239) 
0

>  <fr_Al_OH_noTert>  (239) 
0

>  <fr_ArN>  (239) 
0

>  <fr_Ar_COO>  (239) 
0

>  <fr_Ar_N>  (239) 
0

>  <fr_Ar_NH>  (239) 
0

>  <fr_Ar_OH>  (239) 
0

>  <fr_COO>  (239) 
0

>  <fr_COO2>  (239) 
0

>  <fr_C_O>  (239) 
1

>  <fr_C_O_noCOO>  (239) 
1

>  <fr_C_S>  (239) 
0

>  <fr_HOCCN>  (239) 
0

>  <fr_Imine>  (239) 
0

>  <fr_NH0>  (239) 
2

>  <fr_NH1>  (239) 
2

>  <fr_NH2>  (239) 
0

>  <fr_N_O>  (239) 
0

>  <fr_Ndealkylation1>  (239) 
0

>  <fr_Ndealkylation2>  (239) 
0

>  <fr_Nhpyrrole>  (239) 
0

>  <fr_SH>  (239) 
0

>  <fr_aldehyde>  (239) 
0

>  <fr_alkyl_carbamate>  (239) 
0

>  <fr_alkyl_halide>  (239) 
0

>  <fr_allylic_oxid>  (239) 
3

>  <fr_amide>  (239) 
0

>  <fr_amidine>  (239) 
1

>  <fr_aniline>  (239) 
0

>  <fr_aryl_methyl>  (239) 
0

>  <fr_azide>  (239) 
0

>  <fr_azo>  (239) 
0

>  <fr_barbitur>  (239) 
0

>  <fr_benzene>  (239) 
0

>  <fr_benzodiazepine>  (239) 
0

>  <fr_bicyclic>  (239) 
0

>  <fr_diazo>  (239) 
0

>  <fr_dihydropyridine>  (239) 
0

>  <fr_epoxide>  (239) 
0

>  <fr_ester>  (239) 
0

>  <fr_ether>  (239) 
0

>  <fr_furan>  (239) 
0

>  <fr_guanido>  (239) 
0

>  <fr_halogen>  (239) 
0

>  <fr_hdrzine>  (239) 
0

>  <fr_hdrzone>  (239) 
1

>  <fr_imidazole>  (239) 
0

>  <fr_imide>  (239) 
0

>  <fr_isocyan>  (239) 
0

>  <fr_isothiocyan>  (239) 
0

>  <fr_ketone>  (239) 
1

>  <fr_ketone_Topliss>  (239) 
1

>  <fr_lactam>  (239) 
0

>  <fr_lactone>  (239) 
0

>  <fr_methoxy>  (239) 
0

>  <fr_morpholine>  (239) 
0

>  <fr_nitrile>  (239) 
0

>  <fr_nitro>  (239) 
0

>  <fr_nitro_arom>  (239) 
0

>  <fr_nitro_arom_nonortho>  (239) 
0

>  <fr_nitroso>  (239) 
0

>  <fr_oxazole>  (239) 
0

>  <fr_oxime>  (239) 
0

>  <fr_para_hydroxylation>  (239) 
0

>  <fr_phenol>  (239) 
0

>  <fr_phenol_noOrthoHbond>  (239) 
0

>  <fr_phos_acid>  (239) 
0

>  <fr_phos_ester>  (239) 
0

>  <fr_piperdine>  (239) 
0

>  <fr_piperzine>  (239) 
0

>  <fr_priamide>  (239) 
0

>  <fr_prisulfonamd>  (239) 
0

>  <fr_pyridine>  (239) 
0

>  <fr_quatN>  (239) 
0

>  <fr_sulfide>  (239) 
1

>  <fr_sulfonamd>  (239) 
0

>  <fr_sulfone>  (239) 
0

>  <fr_term_acetylene>  (239) 
0

>  <fr_tetrazole>  (239) 
0

>  <fr_thiazole>  (239) 
0

>  <fr_thiocyan>  (239) 
0

>  <fr_thiophene>  (239) 
1

>  <fr_unbrch_alkane>  (239) 
0

>  <fr_urea>  (239) 
0

>  <NP_Likeness>  (239) 
-1.410021

$$$$
PZX
     RDKit          3D

  0  0  0  0  0  0  0  0  0  0999 V3000
M  V30 BEGIN CTAB
M  V30 COUNTS 27 28 0 0 0
M  V30 BEGIN ATOM
M  V30 1 O 29.510000 -11.163000 -0.696000 0
M  V30 2 O 30.014000 -9.896000 1.120000 0
M  V30 3 N 25.764000 -9.364000 -0.225000 0
M  V30 4 N 26.796000 -9.890000 -0.680000 0
M  V30 5 N 33.549000 -9.987000 4.233000 0
M  V30 6 C 25.055000 -8.145000 1.925000 0
M  V30 7 C 31.307000 -10.453000 1.421000 0
M  V30 8 C 32.738000 -10.084000 5.288000 0
M  V30 9 C 33.117000 -10.073000 2.980000 0
M  V30 10 C 31.357000 -10.311000 5.115000 0
M  V30 11 C 30.864000 -10.464000 3.808000 0
M  V30 12 C 27.263000 -9.234000 1.356000 0
M  V30 13 C 29.148000 -10.416000 0.211000 0
M  V30 14 C 26.020000 -8.919000 1.012000 0
M  V30 15 C 27.729000 -9.862000 0.285000 0
M  V30 16 C 31.756000 -10.333000 2.732000 0
M  V30 17 H 25.509100 -7.939200 2.791900 0
M  V30 18 H 24.786200 -7.291500 1.478700 0
M  V30 19 H 24.242000 -8.700900 2.098300 0
M  V30 20 H 31.975300 -10.000600 0.830500 0
M  V30 21 H 31.274100 -11.428000 1.201300 0
M  V30 22 H 33.113200 -9.994800 6.210600 0
M  V30 23 H 33.754000 -9.953900 2.218400 0
M  V30 24 H 30.743600 -10.361800 5.903100 0
M  V30 25 H 29.897100 -10.662200 3.647600 0
M  V30 26 H 27.734900 -9.043300 2.216800 0
M  V30 27 H 24.889300 -9.286500 -0.703300 0
M  V30 END ATOM
M  V30 BEGIN BOND
M  V30 1 2 1 13
M  V30 2 1 2 7
M  V30 3 1 2 13
M  V30 4 1 3 4
M  V30 5 1 3 14
M  V30 6 2 4 15
M  V30 7 2 5 8
M  V30 8 1 5 9
M  V30 9 1 6 14
M  V30 10 1 7 16
M  V30 11 1 8 10
M  V30 12 2 9 16
M  V30 13 2 10 11
M  V30 14 1 11 16
M  V30 15 2 12 14
M  V30 16 1 12 15
M  V30 17 1 13 15
M  V30 18 1 3 27
M  V30 19 1 6 17
M  V30 20 1 6 18
M  V30 21 1 6 19
M  V30 22 1 7 20
M  V30 23 1 7 21
M  V30 24 1 8 22
M  V30 25 1 9 23
M  V30 26 1 10 24
M  V30 27 1 11 25
M  V30 28 1 12 26
M  V30 END BOND
M  V30 END CTAB
M  END
>  <Ligand_Instance>  (240) 
4IE9_PZX_A_401

>  <Dataset>  (240) 
PDB

>  <PDB_ID>  (240) 
4IE9

>  <Chain>  (240) 
A

>  <Resi>  (240) 
401

>  <Num_Resolved_Atoms>  (240) 
16

>  <Num_H_Atoms_ProtBoundConf>  (240) 
11

>  <Pocket>  (240) 
A

>  <Name>  (240) 
pyridin-3-ylmethyl 5-methyl-1H-pyrazole-3-carboxylate

>  <Num_Not_Resolved_Atoms>  (240) 
0

>  <ATP_Site>  (240) 
True

>  <Peripheral>  (240) 
False

>  <Standardized_SMILES>  (240) 
[H]C1=NC([H])=C(C([H])([H])OC(=O)C2=NN([H])C(C([H])([H])[H])=C2[H])C([H])=C1[H]

>  <2D_Mol_H>  (240) 
<rdkit.Chem.rdchem.Mol object at 0x77059d81f3e0>

>  <MW>  (240) 
217.228

>  <HBA>  (240) 
4

>  <HBD>  (240) 
1

>  <LogP>  (240) 
1.47012

>  <NRB>  (240) 
4

>  <TPSA>  (240) 
67.87

>  <Num_Heavy_Atoms>  (240) 
16

>  <Ro5>  (240) 
[True, True, True, True, True, True]

>  <Ro5_Fulfilled>  (240) 
True

>  <Ro3>  (240) 
[True, False, True, True]

>  <Ro3_Fulfilled>  (240) 
True

>  <Fsp3>  (240) 
0.181818

>  <Fsp3_0.42>  (240) 
False

>  <Fsp3_0.45>  (240) 
False

>  <Stereogenic_Carbons>  (240) 
0

>  <C_Atoms>  (240) 
11

>  <FCStereo>  (240) 
0.0

>  <SPS>  (240) 
161

>  <nSPS>  (240) 
10.0625

>  <PBF>  (240) 
0.44331

>  <PBF_0.6>  (240) 
False

>  <nPBF>  (240) 
0.027707

>  <nPBF_0.016>  (240) 
True

>  <PMI1>  (240) 
440.430508

>  <PMI2>  (240) 
2108.011424

>  <PMI3>  (240) 
2482.956369

>  <NPR1>  (240) 
0.177381

>  <NPR2>  (240) 
0.848993

>  <Sum_NPR>  (240) 
1.026374

>  <Sum_NPR_1.07>  (240) 
False

>  <Sum_NPR_1.2>  (240) 
False

>  <MaxAbsEStateIndex>  (240) 
11.506197

>  <MaxEStateIndex>  (240) 
11.506197

>  <MinAbsEStateIndex>  (240) 
0.206926

>  <MinEStateIndex>  (240) 
-0.436849

>  <qed>  (240) 
0.79032

>  <MolWt>  (240) 
217.228

>  <HeavyAtomMolWt>  (240) 
206.14

>  <ExactMolWt>  (240) 
217.085127

>  <NumValenceElectrons>  (240) 
82

>  <NumRadicalElectrons>  (240) 
0

>  <MaxPartialCharge>  (240) 
0.358674

>  <MinPartialCharge>  (240) 
-0.455986

>  <MaxAbsPartialCharge>  (240) 
0.455986

>  <MinAbsPartialCharge>  (240) 
0.358674

>  <FpDensityMorgan1>  (240) 
1.5625

>  <FpDensityMorgan2>  (240) 
2.4375

>  <FpDensityMorgan3>  (240) 
3.0625

>  <BCUT2D_MWHI>  (240) 
16.53358

>  <BCUT2D_MWLOW>  (240) 
10.290743

>  <BCUT2D_CHGHI>  (240) 
2.099466

>  <BCUT2D_CHGLO>  (240) 
-2.010795

>  <BCUT2D_LOGPHI>  (240) 
2.035829

>  <BCUT2D_LOGPLOW>  (240) 
-2.052915

>  <BCUT2D_MRHI>  (240) 
5.867129

>  <BCUT2D_MRLOW>  (240) 
0.04651

>  <AvgIpc>  (240) 
2.741526

>  <BalabanJ>  (240) 
1.940125

>  <BertzCT>  (240) 
478.984714

>  <Chi0>  (240) 
11.380469

>  <Chi0n>  (240) 
8.804782

>  <Chi0v>  (240) 
8.804782

>  <Chi1>  (240) 
7.75402

>  <Chi1n>  (240) 
4.835455

>  <Chi1v>  (240) 
4.835455

>  <Chi2n>  (240) 
3.373604

>  <Chi2v>  (240) 
3.373604

>  <Chi3n>  (240) 
2.007791

>  <Chi3v>  (240) 
2.007791

>  <Chi4n>  (240) 
1.228926

>  <Chi4v>  (240) 
1.228926

>  <HallKierAlpha>  (240) 
-2.17

>  <Ipc>  (240) 
7040.237916

>  <Kappa1>  (240) 
10.351259

>  <Kappa2>  (240) 
4.566156

>  <Kappa3>  (240) 
2.443394

>  <LabuteASA>  (240) 
92.475301

>  <PEOE_VSA1>  (240) 
4.736863

>  <PEOE_VSA10>  (240) 
6.606882

>  <PEOE_VSA11>  (240) 
5.693928

>  <PEOE_VSA12>  (240) 
0.0

>  <PEOE_VSA13>  (240) 
0.0

>  <PEOE_VSA14>  (240) 
5.969305

>  <PEOE_VSA2>  (240) 
10.08266

>  <PEOE_VSA3>  (240) 
4.794537

>  <PEOE_VSA4>  (240) 
5.098682

>  <PEOE_VSA5>  (240) 
0.0

>  <PEOE_VSA6>  (240) 
6.066367

>  <PEOE_VSA7>  (240) 
19.056471

>  <PEOE_VSA8>  (240) 
23.651067

>  <PEOE_VSA9>  (240) 
0.0

>  <SMR_VSA1>  (240) 
9.5314

>  <SMR_VSA10>  (240) 
5.969305

>  <SMR_VSA2>  (240) 
0.0

>  <SMR_VSA3>  (240) 
15.181342

>  <SMR_VSA4>  (240) 
0.0

>  <SMR_VSA5>  (240) 
13.530619

>  <SMR_VSA6>  (240) 
0.0

>  <SMR_VSA7>  (240) 
47.544096

>  <SMR_VSA8>  (240) 
0.0

>  <SMR_VSA9>  (240) 
0.0

>  <SlogP_VSA1>  (240) 
0.0

>  <SlogP_VSA10>  (240) 
0.0

>  <SlogP_VSA11>  (240) 
0.0

>  <SlogP_VSA12>  (240) 
0.0

>  <SlogP_VSA2>  (240) 
21.150647

>  <SlogP_VSA3>  (240) 
11.343745

>  <SlogP_VSA4>  (240) 
6.923737

>  <SlogP_VSA5>  (240) 
21.745845

>  <SlogP_VSA6>  (240) 
30.592788

>  <SlogP_VSA7>  (240) 
0.0

>  <SlogP_VSA8>  (240) 
0.0

>  <SlogP_VSA9>  (240) 
0.0

>  <EState_VSA1>  (240) 
5.969305

>  <EState_VSA10>  (240) 
4.794537

>  <EState_VSA11>  (240) 
0.0

>  <EState_VSA2>  (240) 
6.606882

>  <EState_VSA3>  (240) 
5.693928

>  <EState_VSA4>  (240) 
11.257379

>  <EState_VSA5>  (240) 
0.0

>  <EState_VSA6>  (240) 
24.526421

>  <EState_VSA7>  (240) 
12.990104

>  <EState_VSA8>  (240) 
15.181342

>  <EState_VSA9>  (240) 
4.736863

>  <VSA_EState1>  (240) 
5.066019

>  <VSA_EState10>  (240) 
0.0

>  <VSA_EState2>  (240) 
15.43258

>  <VSA_EState3>  (240) 
6.497345

>  <VSA_EState4>  (240) 
1.970209

>  <VSA_EState5>  (240) 
-0.436849

>  <VSA_EState6>  (240) 
5.281266

>  <VSA_EState7>  (240) 
3.324871

>  <VSA_EState8>  (240) 
2.031227

>  <VSA_EState9>  (240) 
0.0

>  <FractionCSP3>  (240) 
0.181818

>  <HeavyAtomCount>  (240) 
16

>  <NHOHCount>  (240) 
1

>  <NOCount>  (240) 
5

>  <NumAliphaticCarbocycles>  (240) 
0

>  <NumAliphaticHeterocycles>  (240) 
0

>  <NumAliphaticRings>  (240) 
0

>  <NumAromaticCarbocycles>  (240) 
0

>  <NumAromaticHeterocycles>  (240) 
2

>  <NumAromaticRings>  (240) 
2

>  <NumHAcceptors>  (240) 
4

>  <NumHDonors>  (240) 
1

>  <NumHeteroatoms>  (240) 
5

>  <NumRotatableBonds>  (240) 
3

>  <NumSaturatedCarbocycles>  (240) 
0

>  <NumSaturatedHeterocycles>  (240) 
0

>  <NumSaturatedRings>  (240) 
0

>  <RingCount>  (240) 
2

>  <MolLogP>  (240) 
1.47012

>  <MolMR>  (240) 
56.6812

>  <fr_Al_COO>  (240) 
0

>  <fr_Al_OH>  (240) 
0

>  <fr_Al_OH_noTert>  (240) 
0

>  <fr_ArN>  (240) 
0

>  <fr_Ar_COO>  (240) 
0

>  <fr_Ar_N>  (240) 
3

>  <fr_Ar_NH>  (240) 
1

>  <fr_Ar_OH>  (240) 
0

>  <fr_COO>  (240) 
0

>  <fr_COO2>  (240) 
0

>  <fr_C_O>  (240) 
1

>  <fr_C_O_noCOO>  (240) 
1

>  <fr_C_S>  (240) 
0

>  <fr_HOCCN>  (240) 
0

>  <fr_Imine>  (240) 
0

>  <fr_NH0>  (240) 
2

>  <fr_NH1>  (240) 
1

>  <fr_NH2>  (240) 
0

>  <fr_N_O>  (240) 
0

>  <fr_Ndealkylation1>  (240) 
0

>  <fr_Ndealkylation2>  (240) 
0

>  <fr_Nhpyrrole>  (240) 
1

>  <fr_SH>  (240) 
0

>  <fr_aldehyde>  (240) 
0

>  <fr_alkyl_carbamate>  (240) 
0

>  <fr_alkyl_halide>  (240) 
0

>  <fr_allylic_oxid>  (240) 
0

>  <fr_amide>  (240) 
0

>  <fr_amidine>  (240) 
0

>  <fr_aniline>  (240) 
0

>  <fr_aryl_methyl>  (240) 
1

>  <fr_azide>  (240) 
0

>  <fr_azo>  (240) 
0

>  <fr_barbitur>  (240) 
0

>  <fr_benzene>  (240) 
0

>  <fr_benzodiazepine>  (240) 
0

>  <fr_bicyclic>  (240) 
0

>  <fr_diazo>  (240) 
0

>  <fr_dihydropyridine>  (240) 
0

>  <fr_epoxide>  (240) 
0

>  <fr_ester>  (240) 
1

>  <fr_ether>  (240) 
1

>  <fr_furan>  (240) 
0

>  <fr_guanido>  (240) 
0

>  <fr_halogen>  (240) 
0

>  <fr_hdrzine>  (240) 
0

>  <fr_hdrzone>  (240) 
0

>  <fr_imidazole>  (240) 
0

>  <fr_imide>  (240) 
0

>  <fr_isocyan>  (240) 
0

>  <fr_isothiocyan>  (240) 
0

>  <fr_ketone>  (240) 
0

>  <fr_ketone_Topliss>  (240) 
0

>  <fr_lactam>  (240) 
0

>  <fr_lactone>  (240) 
0

>  <fr_methoxy>  (240) 
0

>  <fr_morpholine>  (240) 
0

>  <fr_nitrile>  (240) 
0

>  <fr_nitro>  (240) 
0

>  <fr_nitro_arom>  (240) 
0

>  <fr_nitro_arom_nonortho>  (240) 
0

>  <fr_nitroso>  (240) 
0

>  <fr_oxazole>  (240) 
0

>  <fr_oxime>  (240) 
0

>  <fr_para_hydroxylation>  (240) 
0

>  <fr_phenol>  (240) 
0

>  <fr_phenol_noOrthoHbond>  (240) 
0

>  <fr_phos_acid>  (240) 
0

>  <fr_phos_ester>  (240) 
0

>  <fr_piperdine>  (240) 
0

>  <fr_piperzine>  (240) 
0

>  <fr_priamide>  (240) 
0

>  <fr_prisulfonamd>  (240) 
0

>  <fr_pyridine>  (240) 
1

>  <fr_quatN>  (240) 
0

>  <fr_sulfide>  (240) 
0

>  <fr_sulfonamd>  (240) 
0

>  <fr_sulfone>  (240) 
0

>  <fr_term_acetylene>  (240) 
0

>  <fr_tetrazole>  (240) 
0

>  <fr_thiazole>  (240) 
0

>  <fr_thiocyan>  (240) 
0

>  <fr_thiophene>  (240) 
0

>  <fr_unbrch_alkane>  (240) 
0

>  <fr_urea>  (240) 
0

>  <NP_Likeness>  (240) 
-1.696472

$$$$
QNI
     RDKit          3D

  0  0  0  0  0  0  0  0  0  0999 V3000
M  V30 BEGIN CTAB
M  V30 COUNTS 41 44 0 0 0
M  V30 BEGIN ATOM
M  V30 1 N -25.745000 -7.054000 -2.473000 0 CHG=1
M  V30 2 N -33.319000 -9.983000 -4.335000 0
M  V30 3 N -33.070000 -9.942000 -1.918000 0
M  V30 4 N -31.279000 -10.338000 -5.572000 0
M  V30 5 N -30.856000 -10.246000 -1.759000 0
M  V30 6 N -29.243000 -10.539000 -4.521000 0
M  V30 7 C -32.599000 -10.162000 -5.448000 0
M  V30 8 C -31.991000 -10.090000 -1.110000 0
M  V30 9 C -25.091000 -8.367000 -2.633000 0
M  V30 10 C -26.857000 -6.859000 -3.450000 0
M  V30 11 C -28.623000 -10.755000 -5.832000 0
M  V30 12 C -27.571000 -9.702000 -6.151000 0
M  V30 13 C -28.229000 -10.487000 -3.384000 0
M  V30 14 C -26.081000 -9.509000 -2.543000 0
M  V30 15 C -27.843000 -8.006000 -3.499000 0
M  V30 16 C -26.547000 -9.611000 -5.013000 0
M  V30 17 C -32.598000 -10.008000 -3.200000 0
M  V30 18 C -30.624000 -10.342000 -4.388000 0
M  V30 19 C -31.227000 -10.191000 -3.090000 0
M  V30 20 C -27.180000 -9.394000 -3.617000 0
M  V30 21 H -25.063800 -6.335200 -2.611800 0
M  V30 22 H -33.117800 -10.164600 -6.302900 0
M  V30 23 H -32.051800 -10.081400 -0.111900 0
M  V30 24 H -24.405900 -8.476200 -1.912800 0
M  V30 25 H -24.643100 -8.397800 -3.526600 0
M  V30 26 H -26.459200 -6.747400 -4.360700 0
M  V30 27 H -27.353700 -6.028100 -3.199100 0
M  V30 28 H -29.334400 -10.722500 -6.534000 0
M  V30 29 H -28.189200 -11.656000 -5.838600 0
M  V30 30 H -28.016900 -8.814200 -6.265300 0
M  V30 31 H -27.101500 -9.950800 -6.998200 0
M  V30 32 H -27.767600 -11.371800 -3.319300 0
M  V30 33 H -28.710100 -10.298500 -2.527800 0
M  V30 34 H -26.508400 -9.497300 -1.639000 0
M  V30 35 H -25.592700 -10.372400 -2.669700 0
M  V30 36 H -28.440700 -7.874100 -4.289800 0
M  V30 37 H -28.389200 -7.987900 -2.661600 0
M  V30 38 H -25.932400 -8.845300 -5.202700 0
M  V30 39 H -26.022600 -10.462200 -4.992300 0
M  V30 40 H -26.114600 -6.988500 -1.546100 0
M  V30 41 H -34.019700 -9.811000 -1.633700 0
M  V30 END ATOM
M  V30 BEGIN BOND
M  V30 1 1 1 9
M  V30 2 1 1 10
M  V30 3 2 2 7
M  V30 4 1 2 17
M  V30 5 1 3 8
M  V30 6 1 3 17
M  V30 7 1 4 7
M  V30 8 2 4 18
M  V30 9 2 5 8
M  V30 10 1 5 19
M  V30 11 1 6 11
M  V30 12 1 6 13
M  V30 13 1 6 18
M  V30 14 1 9 14
M  V30 15 1 10 15
M  V30 16 1 11 12
M  V30 17 1 12 16
M  V30 18 1 20 13
M  V30 19 1 14 20
M  V30 20 1 15 20
M  V30 21 1 16 20
M  V30 22 2 17 19
M  V30 23 1 18 19
M  V30 24 1 1 21
M  V30 25 1 3 41
M  V30 26 1 7 22
M  V30 27 1 8 23
M  V30 28 1 9 24
M  V30 29 1 9 25
M  V30 30 1 10 26
M  V30 31 1 10 27
M  V30 32 1 11 28
M  V30 33 1 11 29
M  V30 34 1 12 30
M  V30 35 1 12 31
M  V30 36 1 13 32
M  V30 37 1 13 33
M  V30 38 1 14 34
M  V30 39 1 14 35
M  V30 40 1 15 36
M  V30 41 1 15 37
M  V30 42 1 16 38
M  V30 43 1 16 39
M  V30 44 1 1 40
M  V30 END BOND
M  V30 END CTAB
M  END
>  <Ligand_Instance>  (241) 
3ZO3_QNI_A_1351

>  <Dataset>  (241) 
PDB

>  <PDB_ID>  (241) 
3ZO3

>  <Chain>  (241) 
A

>  <Resi>  (241) 
1351

>  <Num_Resolved_Atoms>  (241) 
20

>  <Num_H_Atoms_ProtBoundConf>  (241) 
21

>  <Pocket>  (241) 
A

>  <Name>  (241) 
6-(2,9-DIAZASPIRO[5.5]UNDECAN-2-YL)-9H-PURINE

>  <Num_Not_Resolved_Atoms>  (241) 
0

>  <ATP_Site>  (241) 
True

>  <Peripheral>  (241) 
False

>  <Standardized_SMILES>  (241) 
[H]C1=NC2=C(N=C([H])N2[H])C(N2C([H])([H])C([H])([H])C([H])([H])C3(C2([H])[H])C([H])([H])C([H])([H])[N+]([H])([H])C([H])([H])C3([H])[H])=N1

>  <2D_Mol_H>  (241) 
<rdkit.Chem.rdchem.Mol object at 0x77059d81f4c0>

>  <MW>  (241) 
273.364

>  <HBA>  (241) 
4

>  <HBD>  (241) 
2

>  <LogP>  (241) 
0.2967

>  <NRB>  (241) 
1

>  <TPSA>  (241) 
74.31

>  <Num_Heavy_Atoms>  (241) 
20

>  <Ro5>  (241) 
[True, True, True, True, True, True]

>  <Ro5_Fulfilled>  (241) 
True

>  <Ro3>  (241) 
[True, False, True, True]

>  <Ro3_Fulfilled>  (241) 
True

>  <Fsp3>  (241) 
0.642857

>  <Fsp3_0.42>  (241) 
True

>  <Fsp3_0.45>  (241) 
True

>  <Stereogenic_Carbons>  (241) 
0

>  <C_Atoms>  (241) 
14

>  <FCStereo>  (241) 
0.0

>  <SPS>  (241) 
450

>  <nSPS>  (241) 
22.5

>  <PBF>  (241) 
0.907125

>  <PBF_0.6>  (241) 
True

>  <nPBF>  (241) 
0.045356

>  <nPBF_0.016>  (241) 
True

>  <PMI1>  (241) 
795.196562

>  <PMI2>  (241) 
2250.706079

>  <PMI3>  (241) 
2672.831529

>  <NPR1>  (241) 
0.297511

>  <NPR2>  (241) 
0.842068

>  <Sum_NPR>  (241) 
1.139579

>  <Sum_NPR_1.07>  (241) 
True

>  <Sum_NPR_1.2>  (241) 
False

>  <MaxAbsEStateIndex>  (241) 
4.505275

>  <MaxEStateIndex>  (241) 
4.505275

>  <MinAbsEStateIndex>  (241) 
0.500576

>  <MinEStateIndex>  (241) 
0.500576

>  <qed>  (241) 
0.783339

>  <MolWt>  (241) 
273.364

>  <HeavyAtomMolWt>  (241) 
252.196

>  <ExactMolWt>  (241) 
273.182221

>  <NumValenceElectrons>  (241) 
106

>  <NumRadicalElectrons>  (241) 
0

>  <MaxPartialCharge>  (241) 
0.16229

>  <MinPartialCharge>  (241) 
-0.354094

>  <MaxAbsPartialCharge>  (241) 
0.354094

>  <MinAbsPartialCharge>  (241) 
0.16229

>  <FpDensityMorgan1>  (241) 
1.15

>  <FpDensityMorgan2>  (241) 
2.05

>  <FpDensityMorgan3>  (241) 
2.95

>  <BCUT2D_MWHI>  (241) 
15.223329

>  <BCUT2D_MWLOW>  (241) 
9.727085

>  <BCUT2D_CHGHI>  (241) 
2.383232

>  <BCUT2D_CHGLO>  (241) 
-2.441904

>  <BCUT2D_LOGPHI>  (241) 
2.3845

>  <BCUT2D_LOGPLOW>  (241) 
-2.871311

>  <BCUT2D_MRHI>  (241) 
5.822208

>  <BCUT2D_MRLOW>  (241) 
-0.667482

>  <AvgIpc>  (241) 
2.962006

>  <BalabanJ>  (241) 
1.659547

>  <BertzCT>  (241) 
594.97509

>  <Chi0>  (241) 
13.416003

>  <Chi0n>  (241) 
11.677759

>  <Chi0v>  (241) 
11.677759

>  <Chi1>  (241) 
9.863703

>  <Chi1n>  (241) 
7.570865

>  <Chi1v>  (241) 
7.570865

>  <Chi2n>  (241) 
6.18816

>  <Chi2v>  (241) 
6.18816

>  <Chi3n>  (241) 
4.916406

>  <Chi3v>  (241) 
4.916406

>  <Chi4n>  (241) 
3.866006

>  <Chi4v>  (241) 
3.866006

>  <HallKierAlpha>  (241) 
-1.69

>  <Ipc>  (241) 
97165.631401

>  <Kappa1>  (241) 
12.081353

>  <Kappa2>  (241) 
4.697198

>  <Kappa3>  (241) 
1.947156

>  <LabuteASA>  (241) 
117.563685

>  <PEOE_VSA1>  (241) 
15.200677

>  <PEOE_VSA10>  (241) 
11.844021

>  <PEOE_VSA11>  (241) 
11.46504

>  <PEOE_VSA12>  (241) 
0.0

>  <PEOE_VSA13>  (241) 
0.0

>  <PEOE_VSA14>  (241) 
0.0

>  <PEOE_VSA2>  (241) 
0.0

>  <PEOE_VSA3>  (241) 
14.951936

>  <PEOE_VSA4>  (241) 
0.0

>  <PEOE_VSA5>  (241) 
0.0

>  <PEOE_VSA6>  (241) 
0.0

>  <PEOE_VSA7>  (241) 
18.256634

>  <PEOE_VSA8>  (241) 
25.931156

>  <PEOE_VSA9>  (241) 
19.416833

>  <SMR_VSA1>  (241) 
5.316789

>  <SMR_VSA10>  (241) 
16.981741

>  <SMR_VSA2>  (241) 
0.0

>  <SMR_VSA3>  (241) 
19.935914

>  <SMR_VSA4>  (241) 
5.41499

>  <SMR_VSA5>  (241) 
25.683286

>  <SMR_VSA6>  (241) 
31.078935

>  <SMR_VSA7>  (241) 
12.65464

>  <SMR_VSA8>  (241) 
0.0

>  <SMR_VSA9>  (241) 
0.0

>  <SlogP_VSA1>  (241) 
10.216698

>  <SlogP_VSA10>  (241) 
5.817863

>  <SlogP_VSA11>  (241) 
0.0

>  <SlogP_VSA12>  (241) 
0.0

>  <SlogP_VSA2>  (241) 
46.11494

>  <SlogP_VSA3>  (241) 
0.0

>  <SlogP_VSA4>  (241) 
5.41499

>  <SlogP_VSA5>  (241) 
25.683286

>  <SlogP_VSA6>  (241) 
12.65464

>  <SlogP_VSA7>  (241) 
0.0

>  <SlogP_VSA8>  (241) 
11.163878

>  <SlogP_VSA9>  (241) 
0.0

>  <EState_VSA1>  (241) 
0.0

>  <EState_VSA10>  (241) 
0.0

>  <EState_VSA11>  (241) 
0.0

>  <EState_VSA2>  (241) 
0.0

>  <EState_VSA3>  (241) 
5.41499

>  <EState_VSA4>  (241) 
30.071254

>  <EState_VSA5>  (241) 
38.772799

>  <EState_VSA6>  (241) 
12.65464

>  <EState_VSA7>  (241) 
0.0

>  <EState_VSA8>  (241) 
30.152612

>  <EState_VSA9>  (241) 
0.0

>  <VSA_EState1>  (241) 
0.0

>  <VSA_EState10>  (241) 
0.0

>  <VSA_EState2>  (241) 
18.650595

>  <VSA_EState3>  (241) 
2.445235

>  <VSA_EState4>  (241) 
2.249208

>  <VSA_EState5>  (241) 
1.004517

>  <VSA_EState6>  (241) 
0.0

>  <VSA_EState7>  (241) 
8.641408

>  <VSA_EState8>  (241) 
4.759037

>  <VSA_EState9>  (241) 
0.0

>  <FractionCSP3>  (241) 
0.642857

>  <HeavyAtomCount>  (241) 
20

>  <NHOHCount>  (241) 
3

>  <NOCount>  (241) 
6

>  <NumAliphaticCarbocycles>  (241) 
0

>  <NumAliphaticHeterocycles>  (241) 
2

>  <NumAliphaticRings>  (241) 
2

>  <NumAromaticCarbocycles>  (241) 
0

>  <NumAromaticHeterocycles>  (241) 
2

>  <NumAromaticRings>  (241) 
2

>  <NumHAcceptors>  (241) 
4

>  <NumHDonors>  (241) 
2

>  <NumHeteroatoms>  (241) 
6

>  <NumRotatableBonds>  (241) 
1

>  <NumSaturatedCarbocycles>  (241) 
0

>  <NumSaturatedHeterocycles>  (241) 
2

>  <NumSaturatedRings>  (241) 
2

>  <RingCount>  (241) 
4

>  <MolLogP>  (241) 
0.2967

>  <MolMR>  (241) 
76.4571

>  <fr_Al_COO>  (241) 
0

>  <fr_Al_OH>  (241) 
0

>  <fr_Al_OH_noTert>  (241) 
0

>  <fr_ArN>  (241) 
0

>  <fr_Ar_COO>  (241) 
0

>  <fr_Ar_N>  (241) 
4

>  <fr_Ar_NH>  (241) 
1

>  <fr_Ar_OH>  (241) 
0

>  <fr_COO>  (241) 
0

>  <fr_COO2>  (241) 
0

>  <fr_C_O>  (241) 
0

>  <fr_C_O_noCOO>  (241) 
0

>  <fr_C_S>  (241) 
0

>  <fr_HOCCN>  (241) 
0

>  <fr_Imine>  (241) 
0

>  <fr_NH0>  (241) 
4

>  <fr_NH1>  (241) 
1

>  <fr_NH2>  (241) 
1

>  <fr_N_O>  (241) 
0

>  <fr_Ndealkylation1>  (241) 
0

>  <fr_Ndealkylation2>  (241) 
0

>  <fr_Nhpyrrole>  (241) 
1

>  <fr_SH>  (241) 
0

>  <fr_aldehyde>  (241) 
0

>  <fr_alkyl_carbamate>  (241) 
0

>  <fr_alkyl_halide>  (241) 
0

>  <fr_allylic_oxid>  (241) 
0

>  <fr_amide>  (241) 
0

>  <fr_amidine>  (241) 
0

>  <fr_aniline>  (241) 
1

>  <fr_aryl_methyl>  (241) 
0

>  <fr_azide>  (241) 
0

>  <fr_azo>  (241) 
0

>  <fr_barbitur>  (241) 
0

>  <fr_benzene>  (241) 
0

>  <fr_benzodiazepine>  (241) 
0

>  <fr_bicyclic>  (241) 
1

>  <fr_diazo>  (241) 
0

>  <fr_dihydropyridine>  (241) 
0

>  <fr_epoxide>  (241) 
0

>  <fr_ester>  (241) 
0

>  <fr_ether>  (241) 
0

>  <fr_furan>  (241) 
0

>  <fr_guanido>  (241) 
0

>  <fr_halogen>  (241) 
0

>  <fr_hdrzine>  (241) 
0

>  <fr_hdrzone>  (241) 
0

>  <fr_imidazole>  (241) 
1

>  <fr_imide>  (241) 
0

>  <fr_isocyan>  (241) 
0

>  <fr_isothiocyan>  (241) 
0

>  <fr_ketone>  (241) 
0

>  <fr_ketone_Topliss>  (241) 
0

>  <fr_lactam>  (241) 
0

>  <fr_lactone>  (241) 
0

>  <fr_methoxy>  (241) 
0

>  <fr_morpholine>  (241) 
0

>  <fr_nitrile>  (241) 
0

>  <fr_nitro>  (241) 
0

>  <fr_nitro_arom>  (241) 
0

>  <fr_nitro_arom_nonortho>  (241) 
0

>  <fr_nitroso>  (241) 
0

>  <fr_oxazole>  (241) 
0

>  <fr_oxime>  (241) 
0

>  <fr_para_hydroxylation>  (241) 
0

>  <fr_phenol>  (241) 
0

>  <fr_phenol_noOrthoHbond>  (241) 
0

>  <fr_phos_acid>  (241) 
0

>  <fr_phos_ester>  (241) 
0

>  <fr_piperdine>  (241) 
2

>  <fr_piperzine>  (241) 
0

>  <fr_priamide>  (241) 
0

>  <fr_prisulfonamd>  (241) 
0

>  <fr_pyridine>  (241) 
0

>  <fr_quatN>  (241) 
1

>  <fr_sulfide>  (241) 
0

>  <fr_sulfonamd>  (241) 
0

>  <fr_sulfone>  (241) 
0

>  <fr_term_acetylene>  (241) 
0

>  <fr_tetrazole>  (241) 
0

>  <fr_thiazole>  (241) 
0

>  <fr_thiocyan>  (241) 
0

>  <fr_thiophene>  (241) 
0

>  <fr_unbrch_alkane>  (241) 
0

>  <fr_urea>  (241) 
0

>  <NP_Likeness>  (241) 
-0.557885

$$$$
QWI
     RDKit          3D

  0  0  0  0  0  0  0  0  0  0999 V3000
M  V30 BEGIN CTAB
M  V30 COUNTS 51 55 0 0 0
M  V30 BEGIN ATOM
M  V30 1 N 33.533000 -9.824000 4.227000 0
M  V30 2 N 33.567000 -9.838000 1.789000 0
M  V30 3 N 31.331000 -9.671000 5.205000 0
M  V30 4 N 31.369000 -9.690000 1.373000 0
M  V30 5 N 25.424000 -7.748000 4.144000 0 CHG=1
M  V30 6 N 29.438000 -9.270000 3.898000 0
M  V30 7 C 32.666000 -9.789000 5.246000 0
M  V30 8 C 32.581000 -9.793000 0.861000 0
M  V30 9 C 24.182000 -8.404000 4.588000 0
M  V30 10 C 28.815000 -8.707000 2.691000 0
M  V30 11 C 28.580000 -9.241000 5.095000 0
M  V30 12 C 23.005000 -12.700000 -0.292000 0
M  V30 13 C 23.069000 -11.329000 -0.433000 0
M  V30 14 C 23.433000 -13.286000 0.882000 0
M  V30 15 C 23.543000 -9.233000 3.488000 0
M  V30 16 C 23.560000 -10.540000 0.602000 0
M  V30 17 C 23.925000 -12.499000 1.919000 0
M  V30 18 C 27.557000 -7.884000 2.921000 0
M  V30 19 C 27.117000 -9.538000 4.800000 0
M  V30 20 C 25.871000 -9.613000 2.559000 0
M  V30 21 C 32.953000 -9.768000 3.009000 0
M  V30 22 C 30.831000 -9.581000 3.951000 0
M  V30 23 C 31.592000 -9.663000 2.741000 0
M  V30 24 C 23.993000 -11.116000 1.793000 0
M  V30 25 C 24.535000 -10.268000 2.932000 0 CFG=2
M  V30 26 C 26.491000 -8.712000 3.662000 0
M  V30 27 H 25.795500 -7.225400 4.911400 0
M  V30 28 H 33.067100 -9.860300 6.159200 0
M  V30 29 H 32.755700 -9.834100 -0.122800 0
M  V30 30 H 23.533200 -7.700800 4.878800 0
M  V30 31 H 24.393100 -9.002800 5.360600 0
M  V30 32 H 28.578900 -9.466200 2.084500 0
M  V30 33 H 29.488900 -8.119500 2.242900 0
M  V30 34 H 28.641700 -8.331800 5.506800 0
M  V30 35 H 28.917300 -9.924000 5.742900 0
M  V30 36 H 22.650500 -13.266000 -1.036300 0
M  V30 37 H 22.761200 -10.900800 -1.282700 0
M  V30 38 H 23.389400 -14.279400 0.987800 0
M  V30 39 H 23.253700 -8.626500 2.747400 0
M  V30 40 H 22.746100 -9.710000 3.858800 0
M  V30 41 H 23.602400 -9.547300 0.489200 0
M  V30 42 H 24.233400 -12.933500 2.765200 0
M  V30 43 H 27.190000 -7.592000 2.037800 0
M  V30 44 H 27.786900 -7.079600 3.468900 0
M  V30 45 H 26.592600 -9.362200 5.633100 0
M  V30 46 H 27.041700 -10.505000 4.556600 0
M  V30 47 H 25.724300 -9.050600 1.745200 0
M  V30 48 H 26.524700 -10.339800 2.348400 0
M  V30 49 H 24.731900 -10.899000 3.682400 0
M  V30 50 H 34.549400 -9.908500 1.616100 0
M  V30 51 H 25.200300 -7.125500 3.394000 0
M  V30 END ATOM
M  V30 BEGIN BOND
M  V30 1 2 1 7
M  V30 2 1 1 21
M  V30 3 1 2 8
M  V30 4 1 2 21
M  V30 5 1 3 7
M  V30 6 2 3 22
M  V30 7 2 4 8
M  V30 8 1 4 23
M  V30 9 1 5 9
M  V30 10 1 5 26
M  V30 11 1 6 10
M  V30 12 1 6 11
M  V30 13 1 6 22
M  V30 14 1 9 15
M  V30 15 1 10 18
M  V30 16 1 11 19
M  V30 17 2 12 13
M  V30 18 1 12 14
M  V30 19 1 13 16
M  V30 20 2 14 17
M  V30 21 1 15 25
M  V30 22 2 16 24
M  V30 23 1 17 24
M  V30 24 1 26 18
M  V30 25 1 19 26
M  V30 26 1 20 25
M  V30 27 1 20 26
M  V30 28 2 21 23
M  V30 29 1 22 23
M  V30 30 1 24 25
M  V30 31 1 2 50
M  V30 32 1 5 27
M  V30 33 1 7 28
M  V30 34 1 8 29
M  V30 35 1 9 30
M  V30 36 1 9 31
M  V30 37 1 10 32
M  V30 38 1 10 33
M  V30 39 1 11 34
M  V30 40 1 11 35
M  V30 41 1 12 36
M  V30 42 1 13 37
M  V30 43 1 14 38
M  V30 44 1 15 39
M  V30 45 1 15 40
M  V30 46 1 16 41
M  V30 47 1 17 42
M  V30 48 1 18 43
M  V30 49 1 18 44
M  V30 50 1 19 45
M  V30 51 1 19 46
M  V30 52 1 20 47
M  V30 53 1 20 48
M  V30 54 1 25 49 CFG=1
M  V30 55 1 5 51
M  V30 END BOND
M  V30 END CTAB
M  END
>  <Ligand_Instance>  (242) 
3ZO4_QWI_A_1352

>  <Dataset>  (242) 
PDB

>  <PDB_ID>  (242) 
3ZO4

>  <Chain>  (242) 
A

>  <Resi>  (242) 
1352

>  <Num_Resolved_Atoms>  (242) 
26

>  <Num_H_Atoms_ProtBoundConf>  (242) 
25

>  <Pocket>  (242) 
A

>  <Name>  (242) 
6-(4-PHENYL-1,9-DIAZASPIRO[5.5]UNDECAN-9-YL)-9H-PURINE

>  <Num_Not_Resolved_Atoms>  (242) 
0

>  <ATP_Site>  (242) 
True

>  <Peripheral>  (242) 
False

>  <Standardized_SMILES>  (242) 
[H]C1=NC2=C(N=C([H])N2[H])C(N2C([H])([H])C([H])([H])C3(C([H])([H])C2([H])[H])C([H])([H])[C@]([H])(C2=C([H])C([H])=C([H])C([H])=C2[H])C([H])([H])C([H])([H])[N+]3([H])[H])=N1

>  <2D_Mol_H>  (242) 
<rdkit.Chem.rdchem.Mol object at 0x77059d81f5a0>

>  <MW>  (242) 
349.462

>  <HBA>  (242) 
4

>  <HBD>  (242) 
2

>  <LogP>  (242) 
1.8329

>  <NRB>  (242) 
2

>  <TPSA>  (242) 
74.31

>  <Num_Heavy_Atoms>  (242) 
26

>  <Ro5>  (242) 
[True, True, True, True, True, True]

>  <Ro5_Fulfilled>  (242) 
True

>  <Ro3>  (242) 
[False, False, True, True]

>  <Ro3_Fulfilled>  (242) 
False

>  <Fsp3>  (242) 
0.45

>  <Fsp3_0.42>  (242) 
True

>  <Fsp3_0.45>  (242) 
True

>  <Stereogenic_Carbons>  (242) 
1

>  <C_Atoms>  (242) 
20

>  <FCStereo>  (242) 
0.05

>  <SPS>  (242) 
592

>  <nSPS>  (242) 
22.769231

>  <PBF>  (242) 
1.022913

>  <PBF_0.6>  (242) 
True

>  <nPBF>  (242) 
0.039343

>  <nPBF_0.016>  (242) 
True

>  <PMI1>  (242) 
1387.309652

>  <PMI2>  (242) 
5335.029624

>  <PMI3>  (242) 
6113.188411

>  <NPR1>  (242) 
0.226937

>  <NPR2>  (242) 
0.872708

>  <Sum_NPR>  (242) 
1.099645

>  <Sum_NPR_1.07>  (242) 
True

>  <Sum_NPR_1.2>  (242) 
False

>  <MaxAbsEStateIndex>  (242) 
4.520989

>  <MaxEStateIndex>  (242) 
4.520989

>  <MinAbsEStateIndex>  (242) 
0.381924

>  <MinEStateIndex>  (242) 
0.381924

>  <qed>  (242) 
0.740214

>  <MolWt>  (242) 
349.462

>  <HeavyAtomMolWt>  (242) 
324.262

>  <ExactMolWt>  (242) 
349.213521

>  <NumValenceElectrons>  (242) 
134

>  <NumRadicalElectrons>  (242) 
0

>  <MaxPartialCharge>  (242) 
0.16229

>  <MinPartialCharge>  (242) 
-0.354156

>  <MaxAbsPartialCharge>  (242) 
0.354156

>  <MinAbsPartialCharge>  (242) 
0.16229

>  <FpDensityMorgan1>  (242) 
1.076923

>  <FpDensityMorgan2>  (242) 
1.923077

>  <FpDensityMorgan3>  (242) 
2.769231

>  <BCUT2D_MWHI>  (242) 
15.228635

>  <BCUT2D_MWLOW>  (242) 
9.735052

>  <BCUT2D_CHGHI>  (242) 
2.427315

>  <BCUT2D_CHGLO>  (242) 
-2.442994

>  <BCUT2D_LOGPHI>  (242) 
2.357943

>  <BCUT2D_LOGPLOW>  (242) 
-2.991625

>  <BCUT2D_MRHI>  (242) 
5.82191

>  <BCUT2D_MRLOW>  (242) 
-0.738532

>  <AvgIpc>  (242) 
3.18492

>  <BalabanJ>  (242) 
1.324279

>  <BertzCT>  (242) 
881.467502

>  <Chi0>  (242) 
17.39913

>  <Chi0n>  (242) 
14.934754

>  <Chi0v>  (242) 
14.934754

>  <Chi1>  (242) 
12.83003

>  <Chi1n>  (242) 
9.613593

>  <Chi1v>  (242) 
9.613593

>  <Chi2n>  (242) 
7.739652

>  <Chi2v>  (242) 
7.739652

>  <Chi3n>  (242) 
6.273019

>  <Chi3v>  (242) 
6.273019

>  <Chi4n>  (242) 
4.832007

>  <Chi4v>  (242) 
4.832007

>  <HallKierAlpha>  (242) 
-2.47

>  <Ipc>  (242) 
2459675.349764

>  <Kappa1>  (242) 
15.759117

>  <Kappa2>  (242) 
6.357642

>  <Kappa3>  (242) 
2.741784

>  <LabuteASA>  (242) 
152.620779

>  <PEOE_VSA1>  (242) 
15.200677

>  <PEOE_VSA10>  (242) 
17.382946

>  <PEOE_VSA11>  (242) 
11.46504

>  <PEOE_VSA12>  (242) 
0.0

>  <PEOE_VSA13>  (242) 
0.0

>  <PEOE_VSA14>  (242) 
0.0

>  <PEOE_VSA2>  (242) 
0.0

>  <PEOE_VSA3>  (242) 
14.951936

>  <PEOE_VSA4>  (242) 
0.0

>  <PEOE_VSA5>  (242) 
0.0

>  <PEOE_VSA6>  (242) 
30.331835

>  <PEOE_VSA7>  (242) 
11.481358

>  <PEOE_VSA8>  (242) 
38.772799

>  <PEOE_VSA9>  (242) 
12.872076

>  <SMR_VSA1>  (242) 
5.316789

>  <SMR_VSA10>  (242) 
16.981741

>  <SMR_VSA2>  (242) 
0.0

>  <SMR_VSA3>  (242) 
19.935914

>  <SMR_VSA4>  (242) 
0.0

>  <SMR_VSA5>  (242) 
37.140118

>  <SMR_VSA6>  (242) 
24.534179

>  <SMR_VSA7>  (242) 
48.549927

>  <SMR_VSA8>  (242) 
0.0

>  <SMR_VSA9>  (242) 
0.0

>  <SlogP_VSA1>  (242) 
10.216698

>  <SlogP_VSA10>  (242) 
5.817863

>  <SlogP_VSA11>  (242) 
0.0

>  <SlogP_VSA12>  (242) 
0.0

>  <SlogP_VSA2>  (242) 
45.109109

>  <SlogP_VSA3>  (242) 
0.0

>  <SlogP_VSA4>  (242) 
0.0

>  <SlogP_VSA5>  (242) 
37.164644

>  <SlogP_VSA6>  (242) 
42.986475

>  <SlogP_VSA7>  (242) 
0.0

>  <SlogP_VSA8>  (242) 
11.163878

>  <SlogP_VSA9>  (242) 
0.0

>  <EState_VSA1>  (242) 
0.0

>  <EState_VSA10>  (242) 
0.0

>  <EState_VSA11>  (242) 
0.0

>  <EState_VSA2>  (242) 
0.0

>  <EState_VSA3>  (242) 
11.456831

>  <EState_VSA4>  (242) 
30.071254

>  <EState_VSA5>  (242) 
37.791494

>  <EState_VSA6>  (242) 
12.65464

>  <EState_VSA7>  (242) 
0.0

>  <EState_VSA8>  (242) 
60.484448

>  <EState_VSA9>  (242) 
0.0

>  <VSA_EState1>  (242) 
0.0

>  <VSA_EState10>  (242) 
0.0

>  <VSA_EState2>  (242) 
18.671885

>  <VSA_EState3>  (242) 
2.618941

>  <VSA_EState4>  (242) 
3.602599

>  <VSA_EState5>  (242) 
1.672561

>  <VSA_EState6>  (242) 
11.062072

>  <VSA_EState7>  (242) 
8.311778

>  <VSA_EState8>  (242) 
3.310164

>  <VSA_EState9>  (242) 
0.0

>  <FractionCSP3>  (242) 
0.45

>  <HeavyAtomCount>  (242) 
26

>  <NHOHCount>  (242) 
3

>  <NOCount>  (242) 
6

>  <NumAliphaticCarbocycles>  (242) 
0

>  <NumAliphaticHeterocycles>  (242) 
2

>  <NumAliphaticRings>  (242) 
2

>  <NumAromaticCarbocycles>  (242) 
1

>  <NumAromaticHeterocycles>  (242) 
2

>  <NumAromaticRings>  (242) 
3

>  <NumHAcceptors>  (242) 
4

>  <NumHDonors>  (242) 
2

>  <NumHeteroatoms>  (242) 
6

>  <NumRotatableBonds>  (242) 
2

>  <NumSaturatedCarbocycles>  (242) 
0

>  <NumSaturatedHeterocycles>  (242) 
2

>  <NumSaturatedRings>  (242) 
2

>  <RingCount>  (242) 
5

>  <MolLogP>  (242) 
1.8329

>  <MolMR>  (242) 
101.0711

>  <fr_Al_COO>  (242) 
0

>  <fr_Al_OH>  (242) 
0

>  <fr_Al_OH_noTert>  (242) 
0

>  <fr_ArN>  (242) 
0

>  <fr_Ar_COO>  (242) 
0

>  <fr_Ar_N>  (242) 
4

>  <fr_Ar_NH>  (242) 
1

>  <fr_Ar_OH>  (242) 
0

>  <fr_COO>  (242) 
0

>  <fr_COO2>  (242) 
0

>  <fr_C_O>  (242) 
0

>  <fr_C_O_noCOO>  (242) 
0

>  <fr_C_S>  (242) 
0

>  <fr_HOCCN>  (242) 
0

>  <fr_Imine>  (242) 
0

>  <fr_NH0>  (242) 
4

>  <fr_NH1>  (242) 
1

>  <fr_NH2>  (242) 
1

>  <fr_N_O>  (242) 
0

>  <fr_Ndealkylation1>  (242) 
0

>  <fr_Ndealkylation2>  (242) 
0

>  <fr_Nhpyrrole>  (242) 
1

>  <fr_SH>  (242) 
0

>  <fr_aldehyde>  (242) 
0

>  <fr_alkyl_carbamate>  (242) 
0

>  <fr_alkyl_halide>  (242) 
0

>  <fr_allylic_oxid>  (242) 
0

>  <fr_amide>  (242) 
0

>  <fr_amidine>  (242) 
0

>  <fr_aniline>  (242) 
1

>  <fr_aryl_methyl>  (242) 
0

>  <fr_azide>  (242) 
0

>  <fr_azo>  (242) 
0

>  <fr_barbitur>  (242) 
0

>  <fr_benzene>  (242) 
1

>  <fr_benzodiazepine>  (242) 
0

>  <fr_bicyclic>  (242) 
1

>  <fr_diazo>  (242) 
0

>  <fr_dihydropyridine>  (242) 
0

>  <fr_epoxide>  (242) 
0

>  <fr_ester>  (242) 
0

>  <fr_ether>  (242) 
0

>  <fr_furan>  (242) 
0

>  <fr_guanido>  (242) 
0

>  <fr_halogen>  (242) 
0

>  <fr_hdrzine>  (242) 
0

>  <fr_hdrzone>  (242) 
0

>  <fr_imidazole>  (242) 
1

>  <fr_imide>  (242) 
0

>  <fr_isocyan>  (242) 
0

>  <fr_isothiocyan>  (242) 
0

>  <fr_ketone>  (242) 
0

>  <fr_ketone_Topliss>  (242) 
0

>  <fr_lactam>  (242) 
0

>  <fr_lactone>  (242) 
0

>  <fr_methoxy>  (242) 
0

>  <fr_morpholine>  (242) 
0

>  <fr_nitrile>  (242) 
0

>  <fr_nitro>  (242) 
0

>  <fr_nitro_arom>  (242) 
0

>  <fr_nitro_arom_nonortho>  (242) 
0

>  <fr_nitroso>  (242) 
0

>  <fr_oxazole>  (242) 
0

>  <fr_oxime>  (242) 
0

>  <fr_para_hydroxylation>  (242) 
0

>  <fr_phenol>  (242) 
0

>  <fr_phenol_noOrthoHbond>  (242) 
0

>  <fr_phos_acid>  (242) 
0

>  <fr_phos_ester>  (242) 
0

>  <fr_piperdine>  (242) 
2

>  <fr_piperzine>  (242) 
0

>  <fr_priamide>  (242) 
0

>  <fr_prisulfonamd>  (242) 
0

>  <fr_pyridine>  (242) 
0

>  <fr_quatN>  (242) 
1

>  <fr_sulfide>  (242) 
0

>  <fr_sulfonamd>  (242) 
0

>  <fr_sulfone>  (242) 
0

>  <fr_term_acetylene>  (242) 
0

>  <fr_tetrazole>  (242) 
0

>  <fr_thiazole>  (242) 
0

>  <fr_thiocyan>  (242) 
0

>  <fr_thiophene>  (242) 
0

>  <fr_unbrch_alkane>  (242) 
0

>  <fr_urea>  (242) 
0

>  <NP_Likeness>  (242) 
-0.459803

$$$$
RKD
     RDKit          3D

  0  0  0  0  0  0  0  0  0  0999 V3000
M  V30 BEGIN CTAB
M  V30 COUNTS 39 41 0 0 0
M  V30 BEGIN ATOM
M  V30 1 Cl 13.424000 13.315000 -0.732000 0
M  V30 2 O 11.270000 9.932000 4.583000 0
M  V30 3 N 10.367000 7.205000 3.854000 0 CHG=1
M  V30 4 N 2.835000 10.077000 3.934000 0
M  V30 5 N 2.871000 10.041000 2.584000 0
M  V30 6 C 11.095000 8.163000 2.980000 0
M  V30 7 C 4.110000 10.026000 4.300000 0
M  V30 8 C 4.125000 9.970000 2.120000 0
M  V30 9 C 12.495000 12.672000 1.707000 0
M  V30 10 C 12.236000 11.015000 0.016000 0
M  V30 11 C 7.147000 9.510000 2.091000 0
M  V30 12 C 7.157000 10.189000 4.381000 0
M  V30 13 C 11.894000 11.841000 2.619000 0
M  V30 14 C 11.630000 10.175000 0.929000 0
M  V30 15 C 8.530000 9.439000 2.105000 0
M  V30 16 C 8.536000 10.117000 4.392000 0
M  V30 17 C 12.661000 12.255000 0.418000 0
M  V30 18 C 4.957000 9.960000 3.207000 0
M  V30 19 C 6.436000 9.888000 3.229000 0
M  V30 20 C 11.451000 10.579000 2.247000 0
M  V30 21 C 9.245000 9.741000 3.255000 0
M  V30 22 C 10.782000 9.660000 3.271000 0 CFG=2
M  V30 23 H 12.056800 9.345200 4.774300 0
M  V30 24 H 9.494800 6.962700 3.429100 0
M  V30 25 H 10.918700 6.380000 3.976400 0
M  V30 26 H 10.848400 7.970300 2.030300 0
M  V30 27 H 12.076400 8.018000 3.105500 0
M  V30 28 H 4.421000 10.034300 5.250400 0
M  V30 29 H 4.401700 9.931500 1.159800 0
M  V30 30 H 12.810000 13.579300 1.985700 0
M  V30 31 H 12.364000 10.721200 -0.931300 0
M  V30 32 H 6.650900 9.286800 1.251900 0
M  V30 33 H 6.670200 10.460800 5.211100 0
M  V30 34 H 11.773700 12.148300 3.563000 0
M  V30 35 H 11.317800 9.270000 0.640200 0
M  V30 36 H 9.019100 9.166800 1.276300 0
M  V30 37 H 9.033300 10.338700 5.230800 0
M  V30 38 H 10.198000 7.628100 4.744200 0
M  V30 39 H 2.058700 10.064500 2.001200 0
M  V30 END ATOM
M  V30 BEGIN BOND
M  V30 1 1 1 17
M  V30 2 1 22 2 CFG=1
M  V30 3 1 3 6
M  V30 4 1 4 5
M  V30 5 2 4 7
M  V30 6 1 5 8
M  V30 7 1 6 22
M  V30 8 1 7 18
M  V30 9 2 8 18
M  V30 10 2 9 13
M  V30 11 1 9 17
M  V30 12 1 10 14
M  V30 13 2 10 17
M  V30 14 2 11 15
M  V30 15 1 11 19
M  V30 16 1 12 16
M  V30 17 2 12 19
M  V30 18 1 13 20
M  V30 19 2 14 20
M  V30 20 1 15 21
M  V30 21 2 16 21
M  V30 22 1 18 19
M  V30 23 1 20 22
M  V30 24 1 21 22
M  V30 25 1 2 23
M  V30 26 1 3 24
M  V30 27 1 3 25
M  V30 28 1 3 38
M  V30 29 1 6 26
M  V30 30 1 6 27
M  V30 31 1 7 28
M  V30 32 1 8 29
M  V30 33 1 9 30
M  V30 34 1 10 31
M  V30 35 1 11 32
M  V30 36 1 12 33
M  V30 37 1 13 34
M  V30 38 1 14 35
M  V30 39 1 15 36
M  V30 40 1 16 37
M  V30 41 1 5 39
M  V30 END BOND
M  V30 END CTAB
M  END
>  <Ligand_Instance>  (243) 
4AXA_RKD_A_1351

>  <Dataset>  (243) 
PDB

>  <PDB_ID>  (243) 
4AXA

>  <Chain>  (243) 
A

>  <Resi>  (243) 
1351

>  <Num_Resolved_Atoms>  (243) 
22

>  <Num_H_Atoms_ProtBoundConf>  (243) 
17

>  <Pocket>  (243) 
A

>  <Name>  (243) 
(2S)-2-(4-chlorophenyl)-2-hydroxy-2-[4-(1H-pyrazol-4-yl)phenyl]ethanaminium

>  <Num_Not_Resolved_Atoms>  (243) 
0

>  <ATP_Site>  (243) 
True

>  <Peripheral>  (243) 
False

>  <Standardized_SMILES>  (243) 
[H]O[C@](C1=C([H])C([H])=C(Cl)C([H])=C1[H])(C1=C([H])C([H])=C(C2=C([H])N([H])N=C2[H])C([H])=C1[H])C([H])([H])[N+]([H])([H])[H]

>  <2D_Mol_H>  (243) 
<rdkit.Chem.rdchem.Mol object at 0x77059d81f680>

>  <MW>  (243) 
314.796

>  <HBA>  (243) 
2

>  <HBD>  (243) 
3

>  <LogP>  (243) 
2.2079

>  <NRB>  (243) 
6

>  <TPSA>  (243) 
76.55

>  <Num_Heavy_Atoms>  (243) 
22

>  <Ro5>  (243) 
[True, True, True, True, True, True]

>  <Ro5_Fulfilled>  (243) 
True

>  <Ro3>  (243) 
[False, True, True, True]

>  <Ro3_Fulfilled>  (243) 
True

>  <Fsp3>  (243) 
0.117647

>  <Fsp3_0.42>  (243) 
False

>  <Fsp3_0.45>  (243) 
False

>  <Stereogenic_Carbons>  (243) 
1

>  <C_Atoms>  (243) 
17

>  <FCStereo>  (243) 
0.058824

>  <SPS>  (243) 
303

>  <nSPS>  (243) 
13.772727

>  <PBF>  (243) 
1.095414

>  <PBF_0.6>  (243) 
True

>  <nPBF>  (243) 
0.049792

>  <nPBF_0.016>  (243) 
True

>  <PMI1>  (243) 
1123.850293

>  <PMI2>  (243) 
4491.710115

>  <PMI3>  (243) 
5110.801162

>  <NPR1>  (243) 
0.219897

>  <NPR2>  (243) 
0.878866

>  <Sum_NPR>  (243) 
1.098763

>  <Sum_NPR_1.07>  (243) 
True

>  <Sum_NPR_1.2>  (243) 
False

>  <MaxAbsEStateIndex>  (243) 
11.050935

>  <MaxEStateIndex>  (243) 
11.050935

>  <MinAbsEStateIndex>  (243) 
0.333025

>  <MinEStateIndex>  (243) 
-1.125481

>  <qed>  (243) 
0.690264

>  <MolWt>  (243) 
314.796

>  <HeavyAtomMolWt>  (243) 
297.66

>  <ExactMolWt>  (243) 
314.105466

>  <NumValenceElectrons>  (243) 
112

>  <NumRadicalElectrons>  (243) 
0

>  <MaxPartialCharge>  (243) 
0.163222

>  <MinPartialCharge>  (243) 
-0.374678

>  <MaxAbsPartialCharge>  (243) 
0.374678

>  <MinAbsPartialCharge>  (243) 
0.163222

>  <FpDensityMorgan1>  (243) 
1.0

>  <FpDensityMorgan2>  (243) 
1.590909

>  <FpDensityMorgan3>  (243) 
2.090909

>  <BCUT2D_MWHI>  (243) 
35.495691

>  <BCUT2D_MWLOW>  (243) 
9.855888

>  <BCUT2D_CHGHI>  (243) 
2.317788

>  <BCUT2D_CHGLO>  (243) 
-2.256146

>  <BCUT2D_LOGPHI>  (243) 
2.303271

>  <BCUT2D_LOGPLOW>  (243) 
-2.600414

>  <BCUT2D_MRHI>  (243) 
6.300936

>  <BCUT2D_MRLOW>  (243) 
-0.396692

>  <AvgIpc>  (243) 
3.093014

>  <BalabanJ>  (243) 
1.977146

>  <BertzCT>  (243) 
738.589932

>  <Chi0>  (243) 
15.57914

>  <Chi0n>  (243) 
11.960108

>  <Chi0v>  (243) 
12.716037

>  <Chi1>  (243) 
10.631177

>  <Chi1n>  (243) 
7.006708

>  <Chi1v>  (243) 
7.384672

>  <Chi2n>  (243) 
5.181495

>  <Chi2v>  (243) 
5.617931

>  <Chi3n>  (243) 
3.877603

>  <Chi3v>  (243) 
4.12958

>  <Chi4n>  (243) 
2.528106

>  <Chi4v>  (243) 
2.654094

>  <HallKierAlpha>  (243) 
-2.14

>  <Ipc>  (243) 
173654.206016

>  <Kappa1>  (243) 
14.782991

>  <Kappa2>  (243) 
5.926702

>  <Kappa3>  (243) 
2.639121

>  <LabuteASA>  (243) 
133.110128

>  <PEOE_VSA1>  (243) 
10.840195

>  <PEOE_VSA10>  (243) 
6.544756

>  <PEOE_VSA11>  (243) 
5.601051

>  <PEOE_VSA12>  (243) 
0.0

>  <PEOE_VSA13>  (243) 
0.0

>  <PEOE_VSA14>  (243) 
0.0

>  <PEOE_VSA2>  (243) 
5.098682

>  <PEOE_VSA3>  (243) 
0.0

>  <PEOE_VSA4>  (243) 
5.098682

>  <PEOE_VSA5>  (243) 
0.0

>  <PEOE_VSA6>  (243) 
47.999142

>  <PEOE_VSA7>  (243) 
28.823089

>  <PEOE_VSA8>  (243) 
16.782928

>  <PEOE_VSA9>  (243) 
6.196844

>  <SMR_VSA1>  (243) 
10.840195

>  <SMR_VSA10>  (243) 
11.60094

>  <SMR_VSA2>  (243) 
0.0

>  <SMR_VSA3>  (243) 
10.197364

>  <SMR_VSA4>  (243) 
0.0

>  <SMR_VSA5>  (243) 
5.601051

>  <SMR_VSA6>  (243) 
6.544756

>  <SMR_VSA7>  (243) 
77.07416

>  <SMR_VSA8>  (243) 
0.0

>  <SMR_VSA9>  (243) 
11.126903

>  <SlogP_VSA1>  (243) 
5.733667

>  <SlogP_VSA10>  (243) 
0.0

>  <SlogP_VSA11>  (243) 
0.0

>  <SlogP_VSA12>  (243) 
11.60094

>  <SlogP_VSA2>  (243) 
21.848647

>  <SlogP_VSA3>  (243) 
5.601051

>  <SlogP_VSA4>  (243) 
0.0

>  <SlogP_VSA5>  (243) 
11.126903

>  <SlogP_VSA6>  (243) 
60.924624

>  <SlogP_VSA7>  (243) 
5.022633

>  <SlogP_VSA8>  (243) 
11.126903

>  <SlogP_VSA9>  (243) 
0.0

>  <EState_VSA1>  (243) 
5.601051

>  <EState_VSA10>  (243) 
5.106527

>  <EState_VSA11>  (243) 
0.0

>  <EState_VSA2>  (243) 
0.0

>  <EState_VSA3>  (243) 
11.56739

>  <EState_VSA4>  (243) 
22.253806

>  <EState_VSA5>  (243) 
0.0

>  <EState_VSA6>  (243) 
18.329578

>  <EState_VSA7>  (243) 
42.595046

>  <EState_VSA8>  (243) 
15.931031

>  <EState_VSA9>  (243) 
11.60094

>  <VSA_EState1>  (243) 
0.0

>  <VSA_EState10>  (243) 
5.922661

>  <VSA_EState2>  (243) 
0.0

>  <VSA_EState3>  (243) 
18.433235

>  <VSA_EState4>  (243) 
6.417246

>  <VSA_EState5>  (243) 
0.0

>  <VSA_EState6>  (243) 
14.987534

>  <VSA_EState7>  (243) 
3.600744

>  <VSA_EState8>  (243) 
0.333025

>  <VSA_EState9>  (243) 
0.0

>  <FractionCSP3>  (243) 
0.117647

>  <HeavyAtomCount>  (243) 
22

>  <NHOHCount>  (243) 
5

>  <NOCount>  (243) 
4

>  <NumAliphaticCarbocycles>  (243) 
0

>  <NumAliphaticHeterocycles>  (243) 
0

>  <NumAliphaticRings>  (243) 
0

>  <NumAromaticCarbocycles>  (243) 
2

>  <NumAromaticHeterocycles>  (243) 
1

>  <NumAromaticRings>  (243) 
3

>  <NumHAcceptors>  (243) 
2

>  <NumHDonors>  (243) 
3

>  <NumHeteroatoms>  (243) 
5

>  <NumRotatableBonds>  (243) 
4

>  <NumSaturatedCarbocycles>  (243) 
0

>  <NumSaturatedHeterocycles>  (243) 
0

>  <NumSaturatedRings>  (243) 
0

>  <RingCount>  (243) 
3

>  <MolLogP>  (243) 
2.2079

>  <MolMR>  (243) 
86.2296

>  <fr_Al_COO>  (243) 
0

>  <fr_Al_OH>  (243) 
1

>  <fr_Al_OH_noTert>  (243) 
0

>  <fr_ArN>  (243) 
0

>  <fr_Ar_COO>  (243) 
0

>  <fr_Ar_N>  (243) 
2

>  <fr_Ar_NH>  (243) 
1

>  <fr_Ar_OH>  (243) 
0

>  <fr_COO>  (243) 
0

>  <fr_COO2>  (243) 
0

>  <fr_C_O>  (243) 
0

>  <fr_C_O_noCOO>  (243) 
0

>  <fr_C_S>  (243) 
0

>  <fr_HOCCN>  (243) 
0

>  <fr_Imine>  (243) 
0

>  <fr_NH0>  (243) 
1

>  <fr_NH1>  (243) 
1

>  <fr_NH2>  (243) 
0

>  <fr_N_O>  (243) 
0

>  <fr_Ndealkylation1>  (243) 
0

>  <fr_Ndealkylation2>  (243) 
0

>  <fr_Nhpyrrole>  (243) 
1

>  <fr_SH>  (243) 
0

>  <fr_aldehyde>  (243) 
0

>  <fr_alkyl_carbamate>  (243) 
0

>  <fr_alkyl_halide>  (243) 
0

>  <fr_allylic_oxid>  (243) 
0

>  <fr_amide>  (243) 
0

>  <fr_amidine>  (243) 
0

>  <fr_aniline>  (243) 
0

>  <fr_aryl_methyl>  (243) 
0

>  <fr_azide>  (243) 
0

>  <fr_azo>  (243) 
0

>  <fr_barbitur>  (243) 
0

>  <fr_benzene>  (243) 
2

>  <fr_benzodiazepine>  (243) 
0

>  <fr_bicyclic>  (243) 
0

>  <fr_diazo>  (243) 
0

>  <fr_dihydropyridine>  (243) 
0

>  <fr_epoxide>  (243) 
0

>  <fr_ester>  (243) 
0

>  <fr_ether>  (243) 
0

>  <fr_furan>  (243) 
0

>  <fr_guanido>  (243) 
0

>  <fr_halogen>  (243) 
1

>  <fr_hdrzine>  (243) 
0

>  <fr_hdrzone>  (243) 
0

>  <fr_imidazole>  (243) 
0

>  <fr_imide>  (243) 
0

>  <fr_isocyan>  (243) 
0

>  <fr_isothiocyan>  (243) 
0

>  <fr_ketone>  (243) 
0

>  <fr_ketone_Topliss>  (243) 
0

>  <fr_lactam>  (243) 
0

>  <fr_lactone>  (243) 
0

>  <fr_methoxy>  (243) 
0

>  <fr_morpholine>  (243) 
0

>  <fr_nitrile>  (243) 
0

>  <fr_nitro>  (243) 
0

>  <fr_nitro_arom>  (243) 
0

>  <fr_nitro_arom_nonortho>  (243) 
0

>  <fr_nitroso>  (243) 
0

>  <fr_oxazole>  (243) 
0

>  <fr_oxime>  (243) 
0

>  <fr_para_hydroxylation>  (243) 
0

>  <fr_phenol>  (243) 
0

>  <fr_phenol_noOrthoHbond>  (243) 
0

>  <fr_phos_acid>  (243) 
0

>  <fr_phos_ester>  (243) 
0

>  <fr_piperdine>  (243) 
0

>  <fr_piperzine>  (243) 
0

>  <fr_priamide>  (243) 
0

>  <fr_prisulfonamd>  (243) 
0

>  <fr_pyridine>  (243) 
0

>  <fr_quatN>  (243) 
1

>  <fr_sulfide>  (243) 
0

>  <fr_sulfonamd>  (243) 
0

>  <fr_sulfone>  (243) 
0

>  <fr_term_acetylene>  (243) 
0

>  <fr_tetrazole>  (243) 
0

>  <fr_thiazole>  (243) 
0

>  <fr_thiocyan>  (243) 
0

>  <fr_thiophene>  (243) 
0

>  <fr_unbrch_alkane>  (243) 
0

>  <fr_urea>  (243) 
0

>  <NP_Likeness>  (243) 
-1.019823

$$$$
S3N
     RDKit          3D

  0  0  0  0  0  0  0  0  0  0999 V3000
M  V30 BEGIN CTAB
M  V30 COUNTS 45 48 0 0 0
M  V30 BEGIN ATOM
M  V30 1 F 20.756000 12.912000 1.436000 0
M  V30 2 F 22.406000 13.152000 2.597000 0
M  V30 3 F 22.025000 14.660000 1.266000 0
M  V30 4 O 32.917000 10.146000 -4.596000 0
M  V30 5 O 25.535000 11.417000 -3.705000 0
M  V30 6 N 25.207000 7.181000 -3.069000 0 CHG=1
M  V30 7 N 32.934000 9.937000 -2.304000 0
M  V30 8 N 30.774000 9.534000 -1.117000 0
M  V30 9 C 32.204000 9.716000 -1.094000 0
M  V30 10 C 24.533000 8.401000 -2.637000 0
M  V30 11 C 26.493000 7.601000 -3.695000 0
M  V30 12 C 23.867000 12.826000 -1.824000 0
M  V30 13 C 24.015000 10.794000 -0.505000 0
M  V30 14 C 28.697000 9.626000 -4.872000 0
M  V30 15 C 23.095000 13.430000 -0.823000 0
M  V30 16 C 23.224000 11.407000 0.495000 0
M  V30 17 C 30.087000 9.819000 -4.833000 0
M  V30 18 C 28.714000 9.350000 -2.465000 0
M  V30 19 C 32.298000 9.980000 -3.563000 0
M  V30 20 C 25.191000 10.815000 -2.679000 0
M  V30 21 C 30.123000 9.547000 -2.419000 0
M  V30 22 C 24.332000 11.516000 -1.640000 0
M  V30 23 C 28.001000 9.374000 -3.667000 0
M  V30 24 C 22.775000 12.709000 0.329000 0
M  V30 25 C 30.809000 9.780000 -3.584000 0
M  V30 26 C 25.654000 9.406000 -2.494000 0 CFG=2
M  V30 27 C 26.535000 9.128000 -3.657000 0 CFG=2
M  V30 28 C 21.970000 13.368000 1.389000 0
M  V30 29 H 24.642800 6.692800 -3.734900 0
M  V30 30 H 33.924600 10.064900 -2.256400 0
M  V30 31 H 32.691500 9.687400 -0.221300 0
M  V30 32 H 24.068100 8.260000 -1.762900 0
M  V30 33 H 23.870100 8.702800 -3.322200 0
M  V30 34 H 26.534500 7.280300 -4.641300 0
M  V30 35 H 27.263600 7.224000 -3.181200 0
M  V30 36 H 24.084600 13.325000 -2.662800 0
M  V30 37 H 24.339100 9.854700 -0.392600 0
M  V30 38 H 28.204900 9.666200 -5.741600 0
M  V30 39 H 22.775300 14.371100 -0.932900 0
M  V30 40 H 22.987800 10.900200 1.324100 0
M  V30 41 H 30.584700 9.986100 -5.684100 0
M  V30 42 H 28.219000 9.189500 -1.611100 0
M  V30 43 H 26.141700 9.290800 -1.628600 0
M  V30 44 H 26.123700 9.498900 -4.489600 0
M  V30 45 H 25.383600 6.588100 -2.283300 0
M  V30 END ATOM
M  V30 BEGIN BOND
M  V30 1 1 28 1
M  V30 2 1 2 28
M  V30 3 1 3 28
M  V30 4 2 4 19
M  V30 5 2 5 20
M  V30 6 1 6 10
M  V30 7 1 6 11
M  V30 8 1 7 9
M  V30 9 1 7 19
M  V30 10 2 8 9
M  V30 11 1 8 21
M  V30 12 1 10 26
M  V30 13 1 11 27
M  V30 14 2 12 15
M  V30 15 1 12 22
M  V30 16 1 13 16
M  V30 17 2 13 22
M  V30 18 1 14 17
M  V30 19 2 14 23
M  V30 20 1 15 24
M  V30 21 2 16 24
M  V30 22 2 17 25
M  V30 23 2 18 21
M  V30 24 1 18 23
M  V30 25 1 19 25
M  V30 26 1 20 22
M  V30 27 1 20 26
M  V30 28 1 21 25
M  V30 29 1 23 27
M  V30 30 1 24 28
M  V30 31 1 26 27
M  V30 32 1 6 29
M  V30 33 1 7 30
M  V30 34 1 9 31
M  V30 35 1 10 32
M  V30 36 1 10 33
M  V30 37 1 11 34
M  V30 38 1 11 35
M  V30 39 1 12 36
M  V30 40 1 13 37
M  V30 41 1 14 38
M  V30 42 1 15 39
M  V30 43 1 16 40
M  V30 44 1 17 41
M  V30 45 1 18 42
M  V30 46 1 26 43 CFG=1
M  V30 47 1 27 44 CFG=3
M  V30 48 1 6 45
M  V30 END BOND
M  V30 END CTAB
M  END
>  <Ligand_Instance>  (244) 
4UJ9_S3N_A_1351

>  <Dataset>  (244) 
PDB

>  <PDB_ID>  (244) 
4UJ9

>  <Chain>  (244) 
A

>  <Resi>  (244) 
1351

>  <Num_Resolved_Atoms>  (244) 
28

>  <Num_H_Atoms_ProtBoundConf>  (244) 
17

>  <Pocket>  (244) 
A

>  <Name>  (244) 
7-[(3S,4R)-4-[4-(trifluoromethyl)phenyl]carbonylpyrrolidin-3-yl]-3H-quinazolin-4-one

>  <Num_Not_Resolved_Atoms>  (244) 
0

>  <ATP_Site>  (244) 
True

>  <Peripheral>  (244) 
False

>  <Standardized_SMILES>  (244) 
[H]C1=NC2=C([H])C([C@@]3([H])C([H])([H])[N+]([H])([H])C([H])([H])[C@]3([H])C(=O)C3=C([H])C([H])=C(C(F)(F)F)C([H])=C3[H])=C([H])C([H])=C2C(=O)N1[H]

>  <2D_Mol_H>  (244) 
<rdkit.Chem.rdchem.Mol object at 0x77059d81f760>

>  <MW>  (244) 
388.369

>  <HBA>  (244) 
3

>  <HBD>  (244) 
2

>  <LogP>  (244) 
2.1016

>  <NRB>  (244) 
3

>  <TPSA>  (244) 
79.43

>  <Num_Heavy_Atoms>  (244) 
28

>  <Ro5>  (244) 
[True, True, True, True, True, True]

>  <Ro5_Fulfilled>  (244) 
True

>  <Ro3>  (244) 
[False, True, True, True]

>  <Ro3_Fulfilled>  (244) 
True

>  <Fsp3>  (244) 
0.25

>  <Fsp3_0.42>  (244) 
False

>  <Fsp3_0.45>  (244) 
False

>  <Stereogenic_Carbons>  (244) 
2

>  <C_Atoms>  (244) 
20

>  <FCStereo>  (244) 
0.1

>  <SPS>  (244) 
555

>  <nSPS>  (244) 
19.821429

>  <PBF>  (244) 
1.08776

>  <PBF_0.6>  (244) 
True

>  <nPBF>  (244) 
0.038849

>  <nPBF_0.016>  (244) 
True

>  <PMI1>  (244) 
1578.160691

>  <PMI2>  (244) 
7542.227039

>  <PMI3>  (244) 
8259.104812

>  <NPR1>  (244) 
0.191081

>  <NPR2>  (244) 
0.913202

>  <Sum_NPR>  (244) 
1.104283

>  <Sum_NPR_1.07>  (244) 
True

>  <Sum_NPR_1.2>  (244) 
False

>  <MaxAbsEStateIndex>  (244) 
12.937493

>  <MaxEStateIndex>  (244) 
12.937493

>  <MinAbsEStateIndex>  (244) 
0.096963

>  <MinEStateIndex>  (244) 
-4.429376

>  <qed>  (244) 
0.674773

>  <MolWt>  (244) 
388.369

>  <HeavyAtomMolWt>  (244) 
371.233

>  <ExactMolWt>  (244) 
388.126738

>  <NumValenceElectrons>  (244) 
144

>  <NumRadicalElectrons>  (244) 
0

>  <MaxPartialCharge>  (244) 
0.41591

>  <MinPartialCharge>  (244) 
-0.345089

>  <MaxAbsPartialCharge>  (244) 
0.41591

>  <MinAbsPartialCharge>  (244) 
0.345089

>  <FpDensityMorgan1>  (244) 
1.107143

>  <FpDensityMorgan2>  (244) 
1.857143

>  <FpDensityMorgan3>  (244) 
2.571429

>  <BCUT2D_MWHI>  (244) 
19.413182

>  <BCUT2D_MWLOW>  (244) 
9.832069

>  <BCUT2D_CHGHI>  (244) 
2.379947

>  <BCUT2D_CHGLO>  (244) 
-2.160334

>  <BCUT2D_LOGPHI>  (244) 
2.31771

>  <BCUT2D_LOGPLOW>  (244) 
-2.813071

>  <BCUT2D_MRHI>  (244) 
5.984014

>  <BCUT2D_MRLOW>  (244) 
-0.637602

>  <AvgIpc>  (244) 
3.164226

>  <BalabanJ>  (244) 
1.628591

>  <BertzCT>  (244) 
1090.286489

>  <Chi0>  (244) 
19.888541

>  <Chi0n>  (244) 
14.66267

>  <Chi0v>  (244) 
14.66267

>  <Chi1>  (244) 
13.342355

>  <Chi1n>  (244) 
8.848754

>  <Chi1v>  (244) 
8.848754

>  <Chi2n>  (244) 
6.920673

>  <Chi2v>  (244) 
6.920673

>  <Chi3n>  (244) 
5.254264

>  <Chi3v>  (244) 
5.254264

>  <Chi4n>  (244) 
3.795901

>  <Chi4v>  (244) 
3.795901

>  <HallKierAlpha>  (244) 
-3.0

>  <Ipc>  (244) 
2902518.918634

>  <Kappa1>  (244) 
18.367347

>  <Kappa2>  (244) 
6.866414

>  <Kappa3>  (244) 
3.309156

>  <LabuteASA>  (244) 
157.162792

>  <PEOE_VSA1>  (244) 
10.300767

>  <PEOE_VSA10>  (244) 
0.0

>  <PEOE_VSA11>  (244) 
5.783245

>  <PEOE_VSA12>  (244) 
0.0

>  <PEOE_VSA13>  (244) 
5.559267

>  <PEOE_VSA14>  (244) 
6.176299

>  <PEOE_VSA2>  (244) 
9.589074

>  <PEOE_VSA3>  (244) 
4.983979

>  <PEOE_VSA4>  (244) 
13.171245

>  <PEOE_VSA5>  (244) 
0.0

>  <PEOE_VSA6>  (244) 
18.199101

>  <PEOE_VSA7>  (244) 
29.82892

>  <PEOE_VSA8>  (244) 
11.481358

>  <PEOE_VSA9>  (244) 
41.801115

>  <SMR_VSA1>  (244) 
23.282571

>  <SMR_VSA10>  (244) 
16.68617

>  <SMR_VSA2>  (244) 
0.0

>  <SMR_VSA3>  (244) 
9.967957

>  <SMR_VSA4>  (244) 
5.917906

>  <SMR_VSA5>  (244) 
12.094205

>  <SMR_VSA6>  (244) 
13.089513

>  <SMR_VSA7>  (244) 
75.836048

>  <SMR_VSA8>  (244) 
0.0

>  <SMR_VSA9>  (244) 
0.0

>  <SlogP_VSA1>  (244) 
10.876055

>  <SlogP_VSA10>  (244) 
13.171245

>  <SlogP_VSA11>  (244) 
0.0

>  <SlogP_VSA12>  (244) 
0.0

>  <SlogP_VSA2>  (244) 
28.840715

>  <SlogP_VSA3>  (244) 
6.176299

>  <SlogP_VSA4>  (244) 
5.917906

>  <SlogP_VSA5>  (244) 
27.402798

>  <SlogP_VSA6>  (244) 
53.586427

>  <SlogP_VSA7>  (244) 
0.0

>  <SlogP_VSA8>  (244) 
10.902925

>  <SlogP_VSA9>  (244) 
0.0

>  <EState_VSA1>  (244) 
11.73975

>  <EState_VSA10>  (244) 
22.76032

>  <EState_VSA11>  (244) 
0.0

>  <EState_VSA2>  (244) 
28.741775

>  <EState_VSA3>  (244) 
23.992438

>  <EState_VSA4>  (244) 
17.696186

>  <EState_VSA5>  (244) 
18.460054

>  <EState_VSA6>  (244) 
12.132734

>  <EState_VSA7>  (244) 
11.383156

>  <EState_VSA8>  (244) 
9.967957

>  <EState_VSA9>  (244) 
0.0

>  <VSA_EState1>  (244) 
38.222264

>  <VSA_EState10>  (244) 
0.0

>  <VSA_EState2>  (244) 
31.465938

>  <VSA_EState3>  (244) 
2.491727

>  <VSA_EState4>  (244) 
0.71155

>  <VSA_EState5>  (244) 
-0.622312

>  <VSA_EState6>  (244) 
9.663026

>  <VSA_EState7>  (244) 
-3.095983

>  <VSA_EState8>  (244) 
1.247123

>  <VSA_EState9>  (244) 
0.0

>  <FractionCSP3>  (244) 
0.25

>  <HeavyAtomCount>  (244) 
28

>  <NHOHCount>  (244) 
3

>  <NOCount>  (244) 
5

>  <NumAliphaticCarbocycles>  (244) 
0

>  <NumAliphaticHeterocycles>  (244) 
1

>  <NumAliphaticRings>  (244) 
1

>  <NumAromaticCarbocycles>  (244) 
2

>  <NumAromaticHeterocycles>  (244) 
1

>  <NumAromaticRings>  (244) 
3

>  <NumHAcceptors>  (244) 
3

>  <NumHDonors>  (244) 
2

>  <NumHeteroatoms>  (244) 
8

>  <NumRotatableBonds>  (244) 
3

>  <NumSaturatedCarbocycles>  (244) 
0

>  <NumSaturatedHeterocycles>  (244) 
1

>  <NumSaturatedRings>  (244) 
1

>  <RingCount>  (244) 
4

>  <MolLogP>  (244) 
2.1016

>  <MolMR>  (244) 
96.0286

>  <fr_Al_COO>  (244) 
0

>  <fr_Al_OH>  (244) 
0

>  <fr_Al_OH_noTert>  (244) 
0

>  <fr_ArN>  (244) 
0

>  <fr_Ar_COO>  (244) 
0

>  <fr_Ar_N>  (244) 
2

>  <fr_Ar_NH>  (244) 
1

>  <fr_Ar_OH>  (244) 
0

>  <fr_COO>  (244) 
0

>  <fr_COO2>  (244) 
0

>  <fr_C_O>  (244) 
1

>  <fr_C_O_noCOO>  (244) 
1

>  <fr_C_S>  (244) 
0

>  <fr_HOCCN>  (244) 
0

>  <fr_Imine>  (244) 
0

>  <fr_NH0>  (244) 
1

>  <fr_NH1>  (244) 
1

>  <fr_NH2>  (244) 
1

>  <fr_N_O>  (244) 
0

>  <fr_Ndealkylation1>  (244) 
0

>  <fr_Ndealkylation2>  (244) 
0

>  <fr_Nhpyrrole>  (244) 
1

>  <fr_SH>  (244) 
0

>  <fr_aldehyde>  (244) 
0

>  <fr_alkyl_carbamate>  (244) 
0

>  <fr_alkyl_halide>  (244) 
3

>  <fr_allylic_oxid>  (244) 
0

>  <fr_amide>  (244) 
0

>  <fr_amidine>  (244) 
0

>  <fr_aniline>  (244) 
0

>  <fr_aryl_methyl>  (244) 
0

>  <fr_azide>  (244) 
0

>  <fr_azo>  (244) 
0

>  <fr_barbitur>  (244) 
0

>  <fr_benzene>  (244) 
2

>  <fr_benzodiazepine>  (244) 
0

>  <fr_bicyclic>  (244) 
1

>  <fr_diazo>  (244) 
0

>  <fr_dihydropyridine>  (244) 
0

>  <fr_epoxide>  (244) 
0

>  <fr_ester>  (244) 
0

>  <fr_ether>  (244) 
0

>  <fr_furan>  (244) 
0

>  <fr_guanido>  (244) 
0

>  <fr_halogen>  (244) 
3

>  <fr_hdrzine>  (244) 
0

>  <fr_hdrzone>  (244) 
0

>  <fr_imidazole>  (244) 
0

>  <fr_imide>  (244) 
0

>  <fr_isocyan>  (244) 
0

>  <fr_isothiocyan>  (244) 
0

>  <fr_ketone>  (244) 
1

>  <fr_ketone_Topliss>  (244) 
1

>  <fr_lactam>  (244) 
0

>  <fr_lactone>  (244) 
0

>  <fr_methoxy>  (244) 
0

>  <fr_morpholine>  (244) 
0

>  <fr_nitrile>  (244) 
0

>  <fr_nitro>  (244) 
0

>  <fr_nitro_arom>  (244) 
0

>  <fr_nitro_arom_nonortho>  (244) 
0

>  <fr_nitroso>  (244) 
0

>  <fr_oxazole>  (244) 
0

>  <fr_oxime>  (244) 
0

>  <fr_para_hydroxylation>  (244) 
0

>  <fr_phenol>  (244) 
0

>  <fr_phenol_noOrthoHbond>  (244) 
0

>  <fr_phos_acid>  (244) 
0

>  <fr_phos_ester>  (244) 
0

>  <fr_piperdine>  (244) 
0

>  <fr_piperzine>  (244) 
0

>  <fr_priamide>  (244) 
0

>  <fr_prisulfonamd>  (244) 
0

>  <fr_pyridine>  (244) 
0

>  <fr_quatN>  (244) 
1

>  <fr_sulfide>  (244) 
0

>  <fr_sulfonamd>  (244) 
0

>  <fr_sulfone>  (244) 
0

>  <fr_term_acetylene>  (244) 
0

>  <fr_tetrazole>  (244) 
0

>  <fr_thiazole>  (244) 
0

>  <fr_thiocyan>  (244) 
0

>  <fr_thiophene>  (244) 
0

>  <fr_unbrch_alkane>  (244) 
0

>  <fr_urea>  (244) 
0

>  <NP_Likeness>  (244) 
-0.602094

$$$$
S69
     RDKit          3D

  0  0  0  0  0  0  0  0  0  0999 V3000
M  V30 BEGIN CTAB
M  V30 COUNTS 43 44 0 0 0
M  V30 BEGIN ATOM
M  V30 1 O 26.194000 10.274000 1.060000 0
M  V30 2 O 33.700000 10.312000 -3.394000 0
M  V30 3 O 29.998000 10.131000 -0.335000 0
M  V30 4 O 20.941000 13.337000 2.126000 0
M  V30 5 N 27.640000 10.118000 -1.196000 0
M  V30 6 N 26.308000 10.160000 -1.273000 0
M  V30 7 C 20.378000 12.236000 2.821000 0
M  V30 8 C 29.133000 10.475000 -5.205000 0
M  V30 9 C 28.094000 10.289000 -2.520000 0
M  V30 10 C 23.495000 13.983000 -0.334000 0
M  V30 11 C 22.473000 14.173000 0.565000 0
M  V30 12 C 24.013000 12.697000 -0.545000 0
M  V30 13 C 31.872000 10.215000 -1.834000 0
M  V30 14 C 24.061000 10.292000 -0.100000 0
M  V30 15 C 31.494000 10.390000 -4.237000 0
M  V30 16 C 22.485000 11.804000 1.042000 0
M  V30 17 C 25.566000 10.243000 -0.031000 0
M  V30 18 C 32.354000 10.307000 -3.155000 0
M  V30 19 C 30.454000 10.205000 -1.612000 0
M  V30 20 C 21.972000 13.108000 1.237000 0
M  V30 21 C 30.103000 10.378000 -4.014000 0
M  V30 22 C 23.497000 11.624000 0.141000 0
M  V30 23 C 29.608000 10.283000 -2.685000 0
M  V30 24 H 34.343500 10.250300 -2.631100 0
M  V30 25 H 30.645800 10.085000 0.425400 0
M  V30 26 H 27.980600 10.854000 -0.611000 0
M  V30 27 H 25.839100 10.135100 -2.155900 0
M  V30 28 H 19.648000 12.559800 3.422900 0
M  V30 29 H 20.002600 11.583200 2.163100 0
M  V30 30 H 21.086500 11.788900 3.367000 0
M  V30 31 H 28.190900 10.452500 -4.870300 0
M  V30 32 H 29.292100 11.331800 -5.695600 0
M  V30 33 H 29.285700 9.703800 -5.823000 0
M  V30 34 H 27.748400 11.165200 -2.856100 0
M  V30 35 H 27.718100 9.547200 -3.075400 0
M  V30 36 H 23.869200 14.761700 -0.837600 0
M  V30 37 H 22.102500 15.088500 0.721800 0
M  V30 38 H 24.759600 12.560500 -1.196200 0
M  V30 39 H 32.507400 10.157600 -1.064000 0
M  V30 40 H 23.693900 9.665700 0.587800 0
M  V30 41 H 23.777800 9.990400 -1.010400 0
M  V30 42 H 31.856300 10.457700 -5.166600 0
M  V30 43 H 22.114300 11.028800 1.553600 0
M  V30 END ATOM
M  V30 BEGIN BOND
M  V30 1 2 1 17
M  V30 2 1 2 18
M  V30 3 1 3 19
M  V30 4 1 4 7
M  V30 5 1 4 20
M  V30 6 1 5 6
M  V30 7 1 5 9
M  V30 8 1 6 17
M  V30 9 1 8 21
M  V30 10 1 9 23
M  V30 11 2 10 11
M  V30 12 1 10 12
M  V30 13 1 11 20
M  V30 14 2 12 22
M  V30 15 2 13 18
M  V30 16 1 13 19
M  V30 17 1 14 17
M  V30 18 1 14 22
M  V30 19 1 15 18
M  V30 20 2 15 21
M  V30 21 2 16 20
M  V30 22 1 16 22
M  V30 23 2 19 23
M  V30 24 1 21 23
M  V30 25 1 2 24
M  V30 26 1 3 25
M  V30 27 1 5 26
M  V30 28 1 6 27
M  V30 29 1 7 28
M  V30 30 1 7 29
M  V30 31 1 7 30
M  V30 32 1 8 31
M  V30 33 1 8 32
M  V30 34 1 8 33
M  V30 35 1 9 34
M  V30 36 1 9 35
M  V30 37 1 10 36
M  V30 38 1 11 37
M  V30 39 1 12 38
M  V30 40 1 13 39
M  V30 41 1 14 40
M  V30 42 1 14 41
M  V30 43 1 15 42
M  V30 44 1 16 43
M  V30 END BOND
M  V30 END CTAB
M  END
>  <Ligand_Instance>  (245) 
3POO_S69_A_2001

>  <Dataset>  (245) 
PDB

>  <PDB_ID>  (245) 
3POO

>  <Chain>  (245) 
A

>  <Resi>  (245) 
2001

>  <Num_Resolved_Atoms>  (245) 
23

>  <Num_H_Atoms_ProtBoundConf>  (245) 
20

>  <Pocket>  (245) 
A

>  <Name>  (245) 
N'-[(E)-(2,4-dihydroxy-6-methylphenyl)methylidene]-2-(3-methoxyphenyl)acetohydrazide

>  <Num_Not_Resolved_Atoms>  (245) 
0

>  <ATP_Site>  (245) 
True

>  <Peripheral>  (245) 
False

>  <Standardized_SMILES>  (245) 
[H]OC1=C([H])C(O[H])=C(C([H])([H])N([H])N([H])C(=O)C([H])([H])C2=C([H])C([H])=C([H])C(OC([H])([H])[H])=C2[H])C(C([H])([H])[H])=C1[H]

>  <2D_Mol_H>  (245) 
<rdkit.Chem.rdchem.Mol object at 0x77059d81f840>

>  <MW>  (245) 
316.357

>  <HBA>  (245) 
5

>  <HBD>  (245) 
4

>  <LogP>  (245) 
1.77832

>  <NRB>  (245) 
10

>  <TPSA>  (245) 
90.82

>  <Num_Heavy_Atoms>  (245) 
23

>  <Ro5>  (245) 
[True, True, True, True, True, True]

>  <Ro5_Fulfilled>  (245) 
True

>  <Ro3>  (245) 
[False, False, False, True]

>  <Ro3_Fulfilled>  (245) 
False

>  <Fsp3>  (245) 
0.235294

>  <Fsp3_0.42>  (245) 
False

>  <Fsp3_0.45>  (245) 
False

>  <Stereogenic_Carbons>  (245) 
0

>  <C_Atoms>  (245) 
17

>  <FCStereo>  (245) 
0.0

>  <SPS>  (245) 
238

>  <nSPS>  (245) 
10.347826

>  <PBF>  (245) 
0.853658

>  <PBF_0.6>  (245) 
True

>  <nPBF>  (245) 
0.037116

>  <nPBF_0.016>  (245) 
True

>  <PMI1>  (245) 
656.978566

>  <PMI2>  (245) 
6525.725882

>  <PMI3>  (245) 
6717.566486

>  <NPR1>  (245) 
0.0978

>  <NPR2>  (245) 
0.971442

>  <Sum_NPR>  (245) 
1.069242

>  <Sum_NPR_1.07>  (245) 
False

>  <Sum_NPR_1.2>  (245) 
False

>  <MaxAbsEStateIndex>  (245) 
11.909338

>  <MaxEStateIndex>  (245) 
11.909338

>  <MinAbsEStateIndex>  (245) 
0.00538

>  <MinEStateIndex>  (245) 
-0.199839

>  <qed>  (245) 
0.60993

>  <MolWt>  (245) 
316.357

>  <HeavyAtomMolWt>  (245) 
296.197

>  <ExactMolWt>  (245) 
316.142307

>  <NumValenceElectrons>  (245) 
122

>  <NumRadicalElectrons>  (245) 
0

>  <MaxPartialCharge>  (245) 
0.238008

>  <MinPartialCharge>  (245) 
-0.507813

>  <MaxAbsPartialCharge>  (245) 
0.507813

>  <MinAbsPartialCharge>  (245) 
0.238008

>  <FpDensityMorgan1>  (245) 
1.217391

>  <FpDensityMorgan2>  (245) 
2.0

>  <FpDensityMorgan3>  (245) 
2.695652

>  <BCUT2D_MWHI>  (245) 
16.465345

>  <BCUT2D_MWLOW>  (245) 
10.077378

>  <BCUT2D_CHGHI>  (245) 
2.082474

>  <BCUT2D_CHGLO>  (245) 
-2.115311

>  <BCUT2D_LOGPHI>  (245) 
2.257794

>  <BCUT2D_LOGPLOW>  (245) 
-2.374984

>  <BCUT2D_MRHI>  (245) 
5.777106

>  <BCUT2D_MRLOW>  (245) 
-0.120993

>  <AvgIpc>  (245) 
2.496712

>  <BalabanJ>  (245) 
1.875348

>  <BertzCT>  (245) 
677.737877

>  <Chi0>  (245) 
16.819626

>  <Chi0n>  (245) 
13.089239

>  <Chi0v>  (245) 
13.089239

>  <Chi1>  (245) 
10.990402

>  <Chi1n>  (245) 
7.153991

>  <Chi1v>  (245) 
7.153991

>  <Chi2n>  (245) 
5.190383

>  <Chi2v>  (245) 
5.190383

>  <Chi3n>  (245) 
3.425991

>  <Chi3v>  (245) 
3.425991

>  <Chi4n>  (245) 
2.252969

>  <Chi4v>  (245) 
2.252969

>  <HallKierAlpha>  (245) 
-2.73

>  <Ipc>  (245) 
123961.763239

>  <Kappa1>  (245) 
16.637275

>  <Kappa2>  (245) 
7.507812

>  <Kappa3>  (245) 
4.620144

>  <LabuteASA>  (245) 
134.246603

>  <PEOE_VSA1>  (245) 
14.949918

>  <PEOE_VSA10>  (245) 
17.248535

>  <PEOE_VSA11>  (245) 
0.0

>  <PEOE_VSA12>  (245) 
5.90718

>  <PEOE_VSA13>  (245) 
0.0

>  <PEOE_VSA14>  (245) 
0.0

>  <PEOE_VSA2>  (245) 
10.220329

>  <PEOE_VSA3>  (245) 
5.425791

>  <PEOE_VSA4>  (245) 
0.0

>  <PEOE_VSA5>  (245) 
0.0

>  <PEOE_VSA6>  (245) 
12.132734

>  <PEOE_VSA7>  (245) 
36.249741

>  <PEOE_VSA8>  (245) 
18.174575

>  <PEOE_VSA9>  (245) 
13.530619

>  <SMR_VSA1>  (245) 
19.744455

>  <SMR_VSA10>  (245) 
5.90718

>  <SMR_VSA2>  (245) 
0.0

>  <SMR_VSA3>  (245) 
10.851583

>  <SMR_VSA4>  (245) 
0.0

>  <SMR_VSA5>  (245) 
19.889315

>  <SMR_VSA6>  (245) 
7.109798

>  <SMR_VSA7>  (245) 
53.088557

>  <SMR_VSA8>  (245) 
0.0

>  <SMR_VSA9>  (245) 
17.248535

>  <SlogP_VSA1>  (245) 
15.588446

>  <SlogP_VSA10>  (245) 
0.0

>  <SlogP_VSA11>  (245) 
17.248535

>  <SlogP_VSA12>  (245) 
0.0

>  <SlogP_VSA2>  (245) 
23.230032

>  <SlogP_VSA3>  (245) 
17.760115

>  <SlogP_VSA4>  (245) 
6.923737

>  <SlogP_VSA5>  (245) 
16.690354

>  <SlogP_VSA6>  (245) 
36.398202

>  <SlogP_VSA7>  (245) 
0.0

>  <SlogP_VSA8>  (245) 
0.0

>  <SlogP_VSA9>  (245) 
0.0

>  <EState_VSA1>  (245) 
0.0

>  <EState_VSA10>  (245) 
15.007592

>  <EState_VSA11>  (245) 
0.0

>  <EState_VSA2>  (245) 
30.371781

>  <EState_VSA3>  (245) 
11.312963

>  <EState_VSA4>  (245) 
11.126903

>  <EState_VSA5>  (245) 
6.066367

>  <EState_VSA6>  (245) 
26.166269

>  <EState_VSA7>  (245) 
18.199101

>  <EState_VSA8>  (245) 
10.851583

>  <EState_VSA9>  (245) 
4.736863

>  <VSA_EState1>  (245) 
5.11584

>  <VSA_EState10>  (245) 
0.0

>  <VSA_EState2>  (245) 
11.909338

>  <VSA_EState3>  (245) 
19.182152

>  <VSA_EState4>  (245) 
7.550539

>  <VSA_EState5>  (245) 
0.490675

>  <VSA_EState6>  (245) 
10.104369

>  <VSA_EState7>  (245) 
0.213038

>  <VSA_EState8>  (245) 
2.024125

>  <VSA_EState9>  (245) 
1.57659

>  <FractionCSP3>  (245) 
0.235294

>  <HeavyAtomCount>  (245) 
23

>  <NHOHCount>  (245) 
4

>  <NOCount>  (245) 
6

>  <NumAliphaticCarbocycles>  (245) 
0

>  <NumAliphaticHeterocycles>  (245) 
0

>  <NumAliphaticRings>  (245) 
0

>  <NumAromaticCarbocycles>  (245) 
2

>  <NumAromaticHeterocycles>  (245) 
0

>  <NumAromaticRings>  (245) 
2

>  <NumHAcceptors>  (245) 
5

>  <NumHDonors>  (245) 
4

>  <NumHeteroatoms>  (245) 
6

>  <NumRotatableBonds>  (245) 
6

>  <NumSaturatedCarbocycles>  (245) 
0

>  <NumSaturatedHeterocycles>  (245) 
0

>  <NumSaturatedRings>  (245) 
0

>  <RingCount>  (245) 
2

>  <MolLogP>  (245) 
1.77832

>  <MolMR>  (245) 
86.189

>  <fr_Al_COO>  (245) 
0

>  <fr_Al_OH>  (245) 
0

>  <fr_Al_OH_noTert>  (245) 
0

>  <fr_ArN>  (245) 
0

>  <fr_Ar_COO>  (245) 
0

>  <fr_Ar_N>  (245) 
0

>  <fr_Ar_NH>  (245) 
0

>  <fr_Ar_OH>  (245) 
2

>  <fr_COO>  (245) 
0

>  <fr_COO2>  (245) 
0

>  <fr_C_O>  (245) 
1

>  <fr_C_O_noCOO>  (245) 
1

>  <fr_C_S>  (245) 
0

>  <fr_HOCCN>  (245) 
0

>  <fr_Imine>  (245) 
0

>  <fr_NH0>  (245) 
0

>  <fr_NH1>  (245) 
2

>  <fr_NH2>  (245) 
0

>  <fr_N_O>  (245) 
0

>  <fr_Ndealkylation1>  (245) 
0

>  <fr_Ndealkylation2>  (245) 
0

>  <fr_Nhpyrrole>  (245) 
0

>  <fr_SH>  (245) 
0

>  <fr_aldehyde>  (245) 
0

>  <fr_alkyl_carbamate>  (245) 
0

>  <fr_alkyl_halide>  (245) 
0

>  <fr_allylic_oxid>  (245) 
0

>  <fr_amide>  (245) 
1

>  <fr_amidine>  (245) 
0

>  <fr_aniline>  (245) 
0

>  <fr_aryl_methyl>  (245) 
1

>  <fr_azide>  (245) 
0

>  <fr_azo>  (245) 
0

>  <fr_barbitur>  (245) 
0

>  <fr_benzene>  (245) 
2

>  <fr_benzodiazepine>  (245) 
0

>  <fr_bicyclic>  (245) 
0

>  <fr_diazo>  (245) 
0

>  <fr_dihydropyridine>  (245) 
0

>  <fr_epoxide>  (245) 
0

>  <fr_ester>  (245) 
0

>  <fr_ether>  (245) 
1

>  <fr_furan>  (245) 
0

>  <fr_guanido>  (245) 
0

>  <fr_halogen>  (245) 
0

>  <fr_hdrzine>  (245) 
1

>  <fr_hdrzone>  (245) 
0

>  <fr_imidazole>  (245) 
0

>  <fr_imide>  (245) 
0

>  <fr_isocyan>  (245) 
0

>  <fr_isothiocyan>  (245) 
0

>  <fr_ketone>  (245) 
0

>  <fr_ketone_Topliss>  (245) 
0

>  <fr_lactam>  (245) 
0

>  <fr_lactone>  (245) 
0

>  <fr_methoxy>  (245) 
1

>  <fr_morpholine>  (245) 
0

>  <fr_nitrile>  (245) 
0

>  <fr_nitro>  (245) 
0

>  <fr_nitro_arom>  (245) 
0

>  <fr_nitro_arom_nonortho>  (245) 
0

>  <fr_nitroso>  (245) 
0

>  <fr_oxazole>  (245) 
0

>  <fr_oxime>  (245) 
0

>  <fr_para_hydroxylation>  (245) 
0

>  <fr_phenol>  (245) 
2

>  <fr_phenol_noOrthoHbond>  (245) 
2

>  <fr_phos_acid>  (245) 
0

>  <fr_phos_ester>  (245) 
0

>  <fr_piperdine>  (245) 
0

>  <fr_piperzine>  (245) 
0

>  <fr_priamide>  (245) 
0

>  <fr_prisulfonamd>  (245) 
0

>  <fr_pyridine>  (245) 
0

>  <fr_quatN>  (245) 
0

>  <fr_sulfide>  (245) 
0

>  <fr_sulfonamd>  (245) 
0

>  <fr_sulfone>  (245) 
0

>  <fr_term_acetylene>  (245) 
0

>  <fr_tetrazole>  (245) 
0

>  <fr_thiazole>  (245) 
0

>  <fr_thiocyan>  (245) 
0

>  <fr_thiophene>  (245) 
0

>  <fr_unbrch_alkane>  (245) 
0

>  <fr_urea>  (245) 
0

>  <NP_Likeness>  (245) 
-0.306508

$$$$
S95
     RDKit          3D

  0  0  0  0  0  0  0  0  0  0999 V3000
M  V30 BEGIN CTAB
M  V30 COUNTS 20 21 0 0 0
M  V30 BEGIN ATOM
M  V30 1 S 9.413000 -3.905000 -36.820000 0
M  V30 2 O 10.207000 -2.780000 -37.290000 0
M  V30 3 O 9.672000 -4.220000 -35.421000 0
M  V30 4 O 9.538000 -5.066000 -37.685000 0 CHG=-1
M  V30 5 N 5.786000 -2.324000 -40.541000 0
M  V30 6 C 7.070000 -2.716000 -40.535000 0
M  V30 7 C 5.674000 -2.909000 -35.739000 0
M  V30 8 C 5.151000 -2.281000 -39.376000 0
M  V30 9 C 7.754000 -3.085000 -39.415000 0
M  V30 10 C 6.999000 -3.319000 -35.738000 0
M  V30 11 C 5.052000 -2.563000 -36.901000 0
M  V30 12 C 7.706000 -3.389000 -36.909000 0
M  V30 13 C 5.743000 -2.624000 -38.137000 0
M  V30 14 C 7.100000 -3.047000 -38.159000 0
M  V30 15 H 7.556100 -2.738800 -41.408600 0
M  V30 16 H 5.169200 -2.866800 -34.876800 0
M  V30 17 H 4.194900 -1.988000 -39.373700 0
M  V30 18 H 8.707500 -3.379400 -39.479400 0
M  V30 19 H 7.441500 -3.565400 -34.875700 0
M  V30 20 H 4.098300 -2.263000 -36.881500 0
M  V30 END ATOM
M  V30 BEGIN BOND
M  V30 1 2 1 2
M  V30 2 2 1 3
M  V30 3 1 1 4
M  V30 4 1 1 12
M  V30 5 2 5 6
M  V30 6 1 5 8
M  V30 7 1 6 9
M  V30 8 1 7 10
M  V30 9 2 7 11
M  V30 10 2 8 13
M  V30 11 2 9 14
M  V30 12 2 10 12
M  V30 13 1 11 13
M  V30 14 1 12 14
M  V30 15 1 13 14
M  V30 16 1 11 20
M  V30 17 1 6 15
M  V30 18 1 7 16
M  V30 19 1 8 17
M  V30 20 1 9 18
M  V30 21 1 10 19
M  V30 END BOND
M  V30 END CTAB
M  END
>  <Ligand_Instance>  (246) 
7AXV_S95_A_401

>  <Dataset>  (246) 
PDB

>  <PDB_ID>  (246) 
7AXV

>  <Chain>  (246) 
A

>  <Resi>  (246) 
401

>  <Num_Resolved_Atoms>  (246) 
14

>  <Num_H_Atoms_ProtBoundConf>  (246) 
6

>  <Pocket>  (246) 
X

>  <Name>  (246) 
isoquinoline-5-sulfonic acid

>  <Num_Not_Resolved_Atoms>  (246) 
0

>  <ATP_Site>  (246) 
True

>  <Peripheral>  (246) 
True

>  <Standardized_SMILES>  (246) 
[H]C1=NC([H])=C2C([H])=C([H])C([H])=C(S(=O)(=O)[O-])C2=C1[H]

>  <2D_Mol_H>  (246) 
<rdkit.Chem.rdchem.Mol object at 0x77059d81f920>

>  <MW>  (246) 
208.218

>  <HBA>  (246) 
4

>  <HBD>  (246) 
0

>  <LogP>  (246) 
1.1389

>  <NRB>  (246) 
1

>  <TPSA>  (246) 
70.09

>  <Num_Heavy_Atoms>  (246) 
14

>  <Ro5>  (246) 
[True, True, True, True, True, True]

>  <Ro5_Fulfilled>  (246) 
True

>  <Ro3>  (246) 
[True, False, True, True]

>  <Ro3_Fulfilled>  (246) 
True

>  <Fsp3>  (246) 
0.0

>  <Fsp3_0.42>  (246) 
False

>  <Fsp3_0.45>  (246) 
False

>  <Stereogenic_Carbons>  (246) 
0

>  <C_Atoms>  (246) 
9

>  <FCStereo>  (246) 
0.0

>  <SPS>  (246) 
165

>  <nSPS>  (246) 
11.785714

>  <PBF>  (246) 
0.129334

>  <PBF_0.6>  (246) 
False

>  <nPBF>  (246) 
0.009238

>  <nPBF_0.016>  (246) 
False

>  <PMI1>  (246) 
437.289048

>  <PMI2>  (246) 
941.903024

>  <PMI3>  (246) 
1285.914769

>  <NPR1>  (246) 
0.340061

>  <NPR2>  (246) 
0.732477

>  <Sum_NPR>  (246) 
1.072538

>  <Sum_NPR_1.07>  (246) 
True

>  <Sum_NPR_1.2>  (246) 
False

>  <MaxAbsEStateIndex>  (246) 
10.870892

>  <MaxEStateIndex>  (246) 
10.870892

>  <MinAbsEStateIndex>  (246) 
0.196852

>  <MinEStateIndex>  (246) 
-4.407199

>  <qed>  (246) 
0.658687

>  <MolWt>  (246) 
208.218

>  <HeavyAtomMolWt>  (246) 
202.17

>  <ExactMolWt>  (246) 
208.007388

>  <NumValenceElectrons>  (246) 
72

>  <NumRadicalElectrons>  (246) 
0

>  <MaxPartialCharge>  (246) 
0.124547

>  <MinPartialCharge>  (246) 
-0.744019

>  <MaxAbsPartialCharge>  (246) 
0.744019

>  <MinAbsPartialCharge>  (246) 
0.124547

>  <FpDensityMorgan1>  (246) 
1.214286

>  <FpDensityMorgan2>  (246) 
2.0

>  <FpDensityMorgan3>  (246) 
2.714286

>  <BCUT2D_MWHI>  (246) 
32.239783

>  <BCUT2D_MWLOW>  (246) 
10.168386

>  <BCUT2D_CHGHI>  (246) 
2.051038

>  <BCUT2D_CHGLO>  (246) 
-2.088928

>  <BCUT2D_LOGPHI>  (246) 
2.205855

>  <BCUT2D_LOGPLOW>  (246) 
-1.987169

>  <BCUT2D_MRHI>  (246) 
7.855758

>  <BCUT2D_MRLOW>  (246) 
0.463778

>  <AvgIpc>  (246) 
2.153976

>  <BalabanJ>  (246) 
2.916803

>  <BertzCT>  (246) 
572.13169

>  <Chi0>  (246) 
10.181798

>  <Chi0n>  (246) 
7.044308

>  <Chi0v>  (246) 
7.860805

>  <Chi1>  (246) 
6.588335

>  <Chi1n>  (246) 
3.875222

>  <Chi1v>  (246) 
5.283471

>  <Chi2n>  (246) 
2.807084

>  <Chi2v>  (246) 
4.155158

>  <Chi3n>  (246) 
1.910073

>  <Chi3v>  (246) 
2.804744

>  <Chi4n>  (246) 
1.310833

>  <Chi4v>  (246) 
2.011297

>  <HallKierAlpha>  (246) 
-1.46

>  <Ipc>  (246) 
1628.40582

>  <Kappa1>  (246) 
9.109024

>  <Kappa2>  (246) 
3.038688

>  <Kappa3>  (246) 
1.470603

>  <LabuteASA>  (246) 
80.961352

>  <PEOE_VSA1>  (246) 
4.55275

>  <PEOE_VSA10>  (246) 
10.118127

>  <PEOE_VSA11>  (246) 
0.0

>  <PEOE_VSA12>  (246) 
0.0

>  <PEOE_VSA13>  (246) 
0.0

>  <PEOE_VSA14>  (246) 
0.0

>  <PEOE_VSA2>  (246) 
4.983979

>  <PEOE_VSA3>  (246) 
8.417797

>  <PEOE_VSA4>  (246) 
0.0

>  <PEOE_VSA5>  (246) 
0.0

>  <PEOE_VSA6>  (246) 
12.132734

>  <PEOE_VSA7>  (246) 
12.132734

>  <PEOE_VSA8>  (246) 
23.166136

>  <PEOE_VSA9>  (246) 
4.895483

>  <SMR_VSA1>  (246) 
12.970547

>  <SMR_VSA10>  (246) 
20.890575

>  <SMR_VSA2>  (246) 
0.0

>  <SMR_VSA3>  (246) 
4.983979

>  <SMR_VSA4>  (246) 
0.0

>  <SMR_VSA5>  (246) 
4.895483

>  <SMR_VSA6>  (246) 
0.0

>  <SMR_VSA7>  (246) 
36.659155

>  <SMR_VSA8>  (246) 
0.0

>  <SMR_VSA9>  (246) 
0.0

>  <SlogP_VSA1>  (246) 
0.0

>  <SlogP_VSA10>  (246) 
0.0

>  <SlogP_VSA11>  (246) 
0.0

>  <SlogP_VSA12>  (246) 
0.0

>  <SlogP_VSA2>  (246) 
17.954525

>  <SlogP_VSA3>  (246) 
10.118127

>  <SlogP_VSA4>  (246) 
0.0

>  <SlogP_VSA5>  (246) 
0.0

>  <SlogP_VSA6>  (246) 
41.554639

>  <SlogP_VSA7>  (246) 
0.0

>  <SlogP_VSA8>  (246) 
10.772448

>  <SlogP_VSA9>  (246) 
0.0

>  <EState_VSA1>  (246) 
10.118127

>  <EState_VSA10>  (246) 
12.970547

>  <EState_VSA11>  (246) 
0.0

>  <EState_VSA2>  (246) 
4.895483

>  <EState_VSA3>  (246) 
10.772448

>  <EState_VSA4>  (246) 
0.0

>  <EState_VSA5>  (246) 
30.592788

>  <EState_VSA6>  (246) 
6.066367

>  <EState_VSA7>  (246) 
0.0

>  <EState_VSA8>  (246) 
4.983979

>  <EState_VSA9>  (246) 
0.0

>  <VSA_EState1>  (246) 
32.612676

>  <VSA_EState10>  (246) 
0.0

>  <VSA_EState2>  (246) 
3.642324

>  <VSA_EState3>  (246) 
1.057338

>  <VSA_EState4>  (246) 
0.0

>  <VSA_EState5>  (246) 
0.0

>  <VSA_EState6>  (246) 
6.038287

>  <VSA_EState7>  (246) 
2.973241

>  <VSA_EState8>  (246) 
0.0

>  <VSA_EState9>  (246) 
-4.407199

>  <FractionCSP3>  (246) 
0.0

>  <HeavyAtomCount>  (246) 
14

>  <NHOHCount>  (246) 
0

>  <NOCount>  (246) 
4

>  <NumAliphaticCarbocycles>  (246) 
0

>  <NumAliphaticHeterocycles>  (246) 
0

>  <NumAliphaticRings>  (246) 
0

>  <NumAromaticCarbocycles>  (246) 
1

>  <NumAromaticHeterocycles>  (246) 
1

>  <NumAromaticRings>  (246) 
2

>  <NumHAcceptors>  (246) 
4

>  <NumHDonors>  (246) 
0

>  <NumHeteroatoms>  (246) 
5

>  <NumRotatableBonds>  (246) 
1

>  <NumSaturatedCarbocycles>  (246) 
0

>  <NumSaturatedHeterocycles>  (246) 
0

>  <NumSaturatedRings>  (246) 
0

>  <RingCount>  (246) 
2

>  <MolLogP>  (246) 
1.1389

>  <MolMR>  (246) 
49.7062

>  <fr_Al_COO>  (246) 
0

>  <fr_Al_OH>  (246) 
0

>  <fr_Al_OH_noTert>  (246) 
0

>  <fr_ArN>  (246) 
0

>  <fr_Ar_COO>  (246) 
0

>  <fr_Ar_N>  (246) 
1

>  <fr_Ar_NH>  (246) 
0

>  <fr_Ar_OH>  (246) 
0

>  <fr_COO>  (246) 
0

>  <fr_COO2>  (246) 
0

>  <fr_C_O>  (246) 
0

>  <fr_C_O_noCOO>  (246) 
0

>  <fr_C_S>  (246) 
0

>  <fr_HOCCN>  (246) 
0

>  <fr_Imine>  (246) 
0

>  <fr_NH0>  (246) 
1

>  <fr_NH1>  (246) 
0

>  <fr_NH2>  (246) 
0

>  <fr_N_O>  (246) 
0

>  <fr_Ndealkylation1>  (246) 
0

>  <fr_Ndealkylation2>  (246) 
0

>  <fr_Nhpyrrole>  (246) 
0

>  <fr_SH>  (246) 
0

>  <fr_aldehyde>  (246) 
0

>  <fr_alkyl_carbamate>  (246) 
0

>  <fr_alkyl_halide>  (246) 
0

>  <fr_allylic_oxid>  (246) 
0

>  <fr_amide>  (246) 
0

>  <fr_amidine>  (246) 
0

>  <fr_aniline>  (246) 
0

>  <fr_aryl_methyl>  (246) 
0

>  <fr_azide>  (246) 
0

>  <fr_azo>  (246) 
0

>  <fr_barbitur>  (246) 
0

>  <fr_benzene>  (246) 
1

>  <fr_benzodiazepine>  (246) 
0

>  <fr_bicyclic>  (246) 
1

>  <fr_diazo>  (246) 
0

>  <fr_dihydropyridine>  (246) 
0

>  <fr_epoxide>  (246) 
0

>  <fr_ester>  (246) 
0

>  <fr_ether>  (246) 
0

>  <fr_furan>  (246) 
0

>  <fr_guanido>  (246) 
0

>  <fr_halogen>  (246) 
0

>  <fr_hdrzine>  (246) 
0

>  <fr_hdrzone>  (246) 
0

>  <fr_imidazole>  (246) 
0

>  <fr_imide>  (246) 
0

>  <fr_isocyan>  (246) 
0

>  <fr_isothiocyan>  (246) 
0

>  <fr_ketone>  (246) 
0

>  <fr_ketone_Topliss>  (246) 
0

>  <fr_lactam>  (246) 
0

>  <fr_lactone>  (246) 
0

>  <fr_methoxy>  (246) 
0

>  <fr_morpholine>  (246) 
0

>  <fr_nitrile>  (246) 
0

>  <fr_nitro>  (246) 
0

>  <fr_nitro_arom>  (246) 
0

>  <fr_nitro_arom_nonortho>  (246) 
0

>  <fr_nitroso>  (246) 
0

>  <fr_oxazole>  (246) 
0

>  <fr_oxime>  (246) 
0

>  <fr_para_hydroxylation>  (246) 
0

>  <fr_phenol>  (246) 
0

>  <fr_phenol_noOrthoHbond>  (246) 
0

>  <fr_phos_acid>  (246) 
0

>  <fr_phos_ester>  (246) 
0

>  <fr_piperdine>  (246) 
0

>  <fr_piperzine>  (246) 
0

>  <fr_priamide>  (246) 
0

>  <fr_prisulfonamd>  (246) 
0

>  <fr_pyridine>  (246) 
1

>  <fr_quatN>  (246) 
0

>  <fr_sulfide>  (246) 
0

>  <fr_sulfonamd>  (246) 
0

>  <fr_sulfone>  (246) 
0

>  <fr_term_acetylene>  (246) 
0

>  <fr_tetrazole>  (246) 
0

>  <fr_thiazole>  (246) 
0

>  <fr_thiocyan>  (246) 
0

>  <fr_thiophene>  (246) 
0

>  <fr_unbrch_alkane>  (246) 
0

>  <fr_urea>  (246) 
0

>  <NP_Likeness>  (246) 
-1.091596

$$$$
S95
     RDKit          3D

  0  0  0  0  0  0  0  0  0  0999 V3000
M  V30 BEGIN CTAB
M  V30 COUNTS 20 21 0 0 0
M  V30 BEGIN ATOM
M  V30 1 S 13.649000 -25.190000 -27.768000 0
M  V30 2 O 13.101000 -24.261000 -28.745000 0
M  V30 3 O 12.617000 -25.827000 -26.966000 0
M  V30 4 O 14.558000 -26.154000 -28.366000 0 CHG=-1
M  V30 5 N 17.255000 -25.910000 -23.775000 0
M  V30 6 C 16.534000 -26.696000 -24.588000 0
M  V30 7 C 15.292000 -22.033000 -25.923000 0
M  V30 8 C 17.118000 -24.595000 -23.910000 0
M  V30 9 C 15.669000 -26.230000 -25.534000 0
M  V30 10 C 14.534000 -22.849000 -26.745000 0
M  V30 11 C 16.138000 -22.571000 -24.996000 0
M  V30 12 C 14.630000 -24.211000 -26.648000 0
M  V30 13 C 16.265000 -23.977000 -24.856000 0
M  V30 14 C 15.504000 -24.831000 -25.698000 0
M  V30 15 H 16.637100 -27.686300 -24.494700 0
M  V30 16 H 15.219300 -21.039400 -26.008900 0
M  V30 17 H 17.651500 -24.004300 -23.304700 0
M  V30 18 H 15.155700 -26.869100 -26.106800 0
M  V30 19 H 13.912500 -22.441000 -27.413800 0
M  V30 20 H 16.675100 -21.966000 -24.408100 0
M  V30 END ATOM
M  V30 BEGIN BOND
M  V30 1 2 1 2
M  V30 2 2 1 3
M  V30 3 1 1 4
M  V30 4 1 1 12
M  V30 5 2 5 6
M  V30 6 1 5 8
M  V30 7 1 6 9
M  V30 8 1 7 10
M  V30 9 2 7 11
M  V30 10 2 8 13
M  V30 11 2 9 14
M  V30 12 2 10 12
M  V30 13 1 11 13
M  V30 14 1 12 14
M  V30 15 1 13 14
M  V30 16 1 11 20
M  V30 17 1 6 15
M  V30 18 1 7 16
M  V30 19 1 8 17
M  V30 20 1 9 18
M  V30 21 1 10 19
M  V30 END BOND
M  V30 END CTAB
M  END
>  <Ligand_Instance>  (247) 
7AXV_S95_A_402

>  <Dataset>  (247) 
PDB

>  <PDB_ID>  (247) 
7AXV

>  <Chain>  (247) 
A

>  <Resi>  (247) 
402

>  <Num_Resolved_Atoms>  (247) 
14

>  <Num_H_Atoms_ProtBoundConf>  (247) 
6

>  <Pocket>  (247) 
A

>  <Name>  (247) 
isoquinoline-5-sulfonic acid

>  <Num_Not_Resolved_Atoms>  (247) 
0

>  <ATP_Site>  (247) 
True

>  <Peripheral>  (247) 
True

>  <Standardized_SMILES>  (247) 
[H]C1=NC([H])=C2C([H])=C([H])C([H])=C(S(=O)(=O)[O-])C2=C1[H]

>  <2D_Mol_H>  (247) 
<rdkit.Chem.rdchem.Mol object at 0x77059d81fa00>

>  <MW>  (247) 
208.218

>  <HBA>  (247) 
4

>  <HBD>  (247) 
0

>  <LogP>  (247) 
1.1389

>  <NRB>  (247) 
1

>  <TPSA>  (247) 
70.09

>  <Num_Heavy_Atoms>  (247) 
14

>  <Ro5>  (247) 
[True, True, True, True, True, True]

>  <Ro5_Fulfilled>  (247) 
True

>  <Ro3>  (247) 
[True, False, True, True]

>  <Ro3_Fulfilled>  (247) 
True

>  <Fsp3>  (247) 
0.0

>  <Fsp3_0.42>  (247) 
False

>  <Fsp3_0.45>  (247) 
False

>  <Stereogenic_Carbons>  (247) 
0

>  <C_Atoms>  (247) 
9

>  <FCStereo>  (247) 
0.0

>  <SPS>  (247) 
165

>  <nSPS>  (247) 
11.785714

>  <PBF>  (247) 
0.138632

>  <PBF_0.6>  (247) 
False

>  <nPBF>  (247) 
0.009902

>  <nPBF_0.016>  (247) 
False

>  <PMI1>  (247) 
437.619572

>  <PMI2>  (247) 
939.561026

>  <PMI3>  (247) 
1283.816302

>  <NPR1>  (247) 
0.340874

>  <NPR2>  (247) 
0.73185

>  <Sum_NPR>  (247) 
1.072724

>  <Sum_NPR_1.07>  (247) 
True

>  <Sum_NPR_1.2>  (247) 
False

>  <MaxAbsEStateIndex>  (247) 
10.870892

>  <MaxEStateIndex>  (247) 
10.870892

>  <MinAbsEStateIndex>  (247) 
0.196852

>  <MinEStateIndex>  (247) 
-4.407199

>  <qed>  (247) 
0.658687

>  <MolWt>  (247) 
208.218

>  <HeavyAtomMolWt>  (247) 
202.17

>  <ExactMolWt>  (247) 
208.007388

>  <NumValenceElectrons>  (247) 
72

>  <NumRadicalElectrons>  (247) 
0

>  <MaxPartialCharge>  (247) 
0.124547

>  <MinPartialCharge>  (247) 
-0.744019

>  <MaxAbsPartialCharge>  (247) 
0.744019

>  <MinAbsPartialCharge>  (247) 
0.124547

>  <FpDensityMorgan1>  (247) 
1.214286

>  <FpDensityMorgan2>  (247) 
2.0

>  <FpDensityMorgan3>  (247) 
2.714286

>  <BCUT2D_MWHI>  (247) 
32.239783

>  <BCUT2D_MWLOW>  (247) 
10.168386

>  <BCUT2D_CHGHI>  (247) 
2.051038

>  <BCUT2D_CHGLO>  (247) 
-2.088928

>  <BCUT2D_LOGPHI>  (247) 
2.205855

>  <BCUT2D_LOGPLOW>  (247) 
-1.987169

>  <BCUT2D_MRHI>  (247) 
7.855758

>  <BCUT2D_MRLOW>  (247) 
0.463778

>  <AvgIpc>  (247) 
2.153976

>  <BalabanJ>  (247) 
2.916803

>  <BertzCT>  (247) 
572.13169

>  <Chi0>  (247) 
10.181798

>  <Chi0n>  (247) 
7.044308

>  <Chi0v>  (247) 
7.860805

>  <Chi1>  (247) 
6.588335

>  <Chi1n>  (247) 
3.875222

>  <Chi1v>  (247) 
5.283471

>  <Chi2n>  (247) 
2.807084

>  <Chi2v>  (247) 
4.155158

>  <Chi3n>  (247) 
1.910073

>  <Chi3v>  (247) 
2.804744

>  <Chi4n>  (247) 
1.310833

>  <Chi4v>  (247) 
2.011297

>  <HallKierAlpha>  (247) 
-1.46

>  <Ipc>  (247) 
1628.40582

>  <Kappa1>  (247) 
9.109024

>  <Kappa2>  (247) 
3.038688

>  <Kappa3>  (247) 
1.470603

>  <LabuteASA>  (247) 
80.961352

>  <PEOE_VSA1>  (247) 
4.55275

>  <PEOE_VSA10>  (247) 
10.118127

>  <PEOE_VSA11>  (247) 
0.0

>  <PEOE_VSA12>  (247) 
0.0

>  <PEOE_VSA13>  (247) 
0.0

>  <PEOE_VSA14>  (247) 
0.0

>  <PEOE_VSA2>  (247) 
4.983979

>  <PEOE_VSA3>  (247) 
8.417797

>  <PEOE_VSA4>  (247) 
0.0

>  <PEOE_VSA5>  (247) 
0.0

>  <PEOE_VSA6>  (247) 
12.132734

>  <PEOE_VSA7>  (247) 
12.132734

>  <PEOE_VSA8>  (247) 
23.166136

>  <PEOE_VSA9>  (247) 
4.895483

>  <SMR_VSA1>  (247) 
12.970547

>  <SMR_VSA10>  (247) 
20.890575

>  <SMR_VSA2>  (247) 
0.0

>  <SMR_VSA3>  (247) 
4.983979

>  <SMR_VSA4>  (247) 
0.0

>  <SMR_VSA5>  (247) 
4.895483

>  <SMR_VSA6>  (247) 
0.0

>  <SMR_VSA7>  (247) 
36.659155

>  <SMR_VSA8>  (247) 
0.0

>  <SMR_VSA9>  (247) 
0.0

>  <SlogP_VSA1>  (247) 
0.0

>  <SlogP_VSA10>  (247) 
0.0

>  <SlogP_VSA11>  (247) 
0.0

>  <SlogP_VSA12>  (247) 
0.0

>  <SlogP_VSA2>  (247) 
17.954525

>  <SlogP_VSA3>  (247) 
10.118127

>  <SlogP_VSA4>  (247) 
0.0

>  <SlogP_VSA5>  (247) 
0.0

>  <SlogP_VSA6>  (247) 
41.554639

>  <SlogP_VSA7>  (247) 
0.0

>  <SlogP_VSA8>  (247) 
10.772448

>  <SlogP_VSA9>  (247) 
0.0

>  <EState_VSA1>  (247) 
10.118127

>  <EState_VSA10>  (247) 
12.970547

>  <EState_VSA11>  (247) 
0.0

>  <EState_VSA2>  (247) 
4.895483

>  <EState_VSA3>  (247) 
10.772448

>  <EState_VSA4>  (247) 
0.0

>  <EState_VSA5>  (247) 
30.592788

>  <EState_VSA6>  (247) 
6.066367

>  <EState_VSA7>  (247) 
0.0

>  <EState_VSA8>  (247) 
4.983979

>  <EState_VSA9>  (247) 
0.0

>  <VSA_EState1>  (247) 
32.612676

>  <VSA_EState10>  (247) 
0.0

>  <VSA_EState2>  (247) 
3.642324

>  <VSA_EState3>  (247) 
1.057338

>  <VSA_EState4>  (247) 
0.0

>  <VSA_EState5>  (247) 
0.0

>  <VSA_EState6>  (247) 
6.038287

>  <VSA_EState7>  (247) 
2.973241

>  <VSA_EState8>  (247) 
0.0

>  <VSA_EState9>  (247) 
-4.407199

>  <FractionCSP3>  (247) 
0.0

>  <HeavyAtomCount>  (247) 
14

>  <NHOHCount>  (247) 
0

>  <NOCount>  (247) 
4

>  <NumAliphaticCarbocycles>  (247) 
0

>  <NumAliphaticHeterocycles>  (247) 
0

>  <NumAliphaticRings>  (247) 
0

>  <NumAromaticCarbocycles>  (247) 
1

>  <NumAromaticHeterocycles>  (247) 
1

>  <NumAromaticRings>  (247) 
2

>  <NumHAcceptors>  (247) 
4

>  <NumHDonors>  (247) 
0

>  <NumHeteroatoms>  (247) 
5

>  <NumRotatableBonds>  (247) 
1

>  <NumSaturatedCarbocycles>  (247) 
0

>  <NumSaturatedHeterocycles>  (247) 
0

>  <NumSaturatedRings>  (247) 
0

>  <RingCount>  (247) 
2

>  <MolLogP>  (247) 
1.1389

>  <MolMR>  (247) 
49.7062

>  <fr_Al_COO>  (247) 
0

>  <fr_Al_OH>  (247) 
0

>  <fr_Al_OH_noTert>  (247) 
0

>  <fr_ArN>  (247) 
0

>  <fr_Ar_COO>  (247) 
0

>  <fr_Ar_N>  (247) 
1

>  <fr_Ar_NH>  (247) 
0

>  <fr_Ar_OH>  (247) 
0

>  <fr_COO>  (247) 
0

>  <fr_COO2>  (247) 
0

>  <fr_C_O>  (247) 
0

>  <fr_C_O_noCOO>  (247) 
0

>  <fr_C_S>  (247) 
0

>  <fr_HOCCN>  (247) 
0

>  <fr_Imine>  (247) 
0

>  <fr_NH0>  (247) 
1

>  <fr_NH1>  (247) 
0

>  <fr_NH2>  (247) 
0

>  <fr_N_O>  (247) 
0

>  <fr_Ndealkylation1>  (247) 
0

>  <fr_Ndealkylation2>  (247) 
0

>  <fr_Nhpyrrole>  (247) 
0

>  <fr_SH>  (247) 
0

>  <fr_aldehyde>  (247) 
0

>  <fr_alkyl_carbamate>  (247) 
0

>  <fr_alkyl_halide>  (247) 
0

>  <fr_allylic_oxid>  (247) 
0

>  <fr_amide>  (247) 
0

>  <fr_amidine>  (247) 
0

>  <fr_aniline>  (247) 
0

>  <fr_aryl_methyl>  (247) 
0

>  <fr_azide>  (247) 
0

>  <fr_azo>  (247) 
0

>  <fr_barbitur>  (247) 
0

>  <fr_benzene>  (247) 
1

>  <fr_benzodiazepine>  (247) 
0

>  <fr_bicyclic>  (247) 
1

>  <fr_diazo>  (247) 
0

>  <fr_dihydropyridine>  (247) 
0

>  <fr_epoxide>  (247) 
0

>  <fr_ester>  (247) 
0

>  <fr_ether>  (247) 
0

>  <fr_furan>  (247) 
0

>  <fr_guanido>  (247) 
0

>  <fr_halogen>  (247) 
0

>  <fr_hdrzine>  (247) 
0

>  <fr_hdrzone>  (247) 
0

>  <fr_imidazole>  (247) 
0

>  <fr_imide>  (247) 
0

>  <fr_isocyan>  (247) 
0

>  <fr_isothiocyan>  (247) 
0

>  <fr_ketone>  (247) 
0

>  <fr_ketone_Topliss>  (247) 
0

>  <fr_lactam>  (247) 
0

>  <fr_lactone>  (247) 
0

>  <fr_methoxy>  (247) 
0

>  <fr_morpholine>  (247) 
0

>  <fr_nitrile>  (247) 
0

>  <fr_nitro>  (247) 
0

>  <fr_nitro_arom>  (247) 
0

>  <fr_nitro_arom_nonortho>  (247) 
0

>  <fr_nitroso>  (247) 
0

>  <fr_oxazole>  (247) 
0

>  <fr_oxime>  (247) 
0

>  <fr_para_hydroxylation>  (247) 
0

>  <fr_phenol>  (247) 
0

>  <fr_phenol_noOrthoHbond>  (247) 
0

>  <fr_phos_acid>  (247) 
0

>  <fr_phos_ester>  (247) 
0

>  <fr_piperdine>  (247) 
0

>  <fr_piperzine>  (247) 
0

>  <fr_priamide>  (247) 
0

>  <fr_prisulfonamd>  (247) 
0

>  <fr_pyridine>  (247) 
1

>  <fr_quatN>  (247) 
0

>  <fr_sulfide>  (247) 
0

>  <fr_sulfonamd>  (247) 
0

>  <fr_sulfone>  (247) 
0

>  <fr_term_acetylene>  (247) 
0

>  <fr_tetrazole>  (247) 
0

>  <fr_thiazole>  (247) 
0

>  <fr_thiocyan>  (247) 
0

>  <fr_thiophene>  (247) 
0

>  <fr_unbrch_alkane>  (247) 
0

>  <fr_urea>  (247) 
0

>  <NP_Likeness>  (247) 
-1.091596

$$$$
S9B
     RDKit          3D

  0  0  0  0  0  0  0  0  0  0999 V3000
M  V30 BEGIN CTAB
M  V30 COUNTS 19 20 0 0 0
M  V30 BEGIN ATOM
M  V30 1 O -13.926000 22.046000 -27.094000 0
M  V30 2 O -15.557000 21.773000 -25.607000 0 CHG=-1
M  V30 3 N -17.381000 26.085000 -23.483000 0
M  V30 4 C -17.285000 24.744000 -23.446000 0
M  V30 5 C -16.749000 26.714000 -24.454000 0
M  V30 6 C -14.476000 26.081000 -27.343000 0
M  V30 7 C -16.575000 24.002000 -24.337000 0
M  V30 8 C -15.256000 26.760000 -26.447000 0
M  V30 9 C -14.368000 24.702000 -27.289000 0
M  V30 10 C -14.821000 22.481000 -26.343000 0
M  V30 11 C -15.963000 26.069000 -25.438000 0
M  V30 12 C -15.045000 23.979000 -26.328000 0
M  V30 13 C -15.871000 24.654000 -25.371000 0
M  V30 14 H -17.767400 24.261000 -22.715300 0
M  V30 15 H -16.830200 27.709700 -24.497900 0
M  V30 16 H -13.977300 26.587700 -28.046200 0
M  V30 17 H -16.552100 23.005200 -24.260200 0
M  V30 18 H -15.326300 27.755700 -26.507100 0
M  V30 19 H -13.793200 24.224500 -27.953500 0
M  V30 END ATOM
M  V30 BEGIN BOND
M  V30 1 2 1 10
M  V30 2 1 2 10
M  V30 3 2 3 4
M  V30 4 1 3 5
M  V30 5 1 4 7
M  V30 6 2 5 11
M  V30 7 2 6 8
M  V30 8 1 6 9
M  V30 9 2 7 13
M  V30 10 1 8 11
M  V30 11 2 9 12
M  V30 12 1 10 12
M  V30 13 1 11 13
M  V30 14 1 12 13
M  V30 15 1 9 19
M  V30 16 1 4 14
M  V30 17 1 5 15
M  V30 18 1 6 16
M  V30 19 1 7 17
M  V30 20 1 8 18
M  V30 END BOND
M  V30 END CTAB
M  END
>  <Ligand_Instance>  (248) 
7AXT_S9B_A_401

>  <Dataset>  (248) 
PDB

>  <PDB_ID>  (248) 
7AXT

>  <Chain>  (248) 
A

>  <Resi>  (248) 
401

>  <Num_Resolved_Atoms>  (248) 
13

>  <Num_H_Atoms_ProtBoundConf>  (248) 
6

>  <Pocket>  (248) 
A

>  <Name>  (248) 
isoquinoline-5-carboxylic acid

>  <Num_Not_Resolved_Atoms>  (248) 
0

>  <ATP_Site>  (248) 
True

>  <Peripheral>  (248) 
False

>  <Standardized_SMILES>  (248) 
[H]C1=NC([H])=C2C([H])=C([H])C([H])=C(C(=O)[O-])C2=C1[H]

>  <2D_Mol_H>  (248) 
<rdkit.Chem.rdchem.Mol object at 0x77059d81fae0>

>  <MW>  (248) 
172.163

>  <HBA>  (248) 
3

>  <HBD>  (248) 
0

>  <LogP>  (248) 
0.5983

>  <NRB>  (248) 
1

>  <TPSA>  (248) 
53.02

>  <Num_Heavy_Atoms>  (248) 
13

>  <Ro5>  (248) 
[True, True, True, True, True, True]

>  <Ro5_Fulfilled>  (248) 
True

>  <Ro3>  (248) 
[True, True, True, True]

>  <Ro3_Fulfilled>  (248) 
True

>  <Fsp3>  (248) 
0.0

>  <Fsp3_0.42>  (248) 
False

>  <Fsp3_0.45>  (248) 
False

>  <Stereogenic_Carbons>  (248) 
0

>  <C_Atoms>  (248) 
10

>  <FCStereo>  (248) 
0.0

>  <SPS>  (248) 
132

>  <nSPS>  (248) 
10.153846

>  <PBF>  (248) 
0.041468

>  <PBF_0.6>  (248) 
False

>  <nPBF>  (248) 
0.00319

>  <nPBF_0.016>  (248) 
False

>  <PMI1>  (248) 
361.191145

>  <PMI2>  (248) 
672.976392

>  <PMI3>  (248) 
1031.401506

>  <NPR1>  (248) 
0.350195

>  <NPR2>  (248) 
0.652487

>  <Sum_NPR>  (248) 
1.002682

>  <Sum_NPR_1.07>  (248) 
False

>  <Sum_NPR_1.2>  (248) 
False

>  <MaxAbsEStateIndex>  (248) 
10.683392

>  <MaxEStateIndex>  (248) 
10.683392

>  <MinAbsEStateIndex>  (248) 
0.208241

>  <MinEStateIndex>  (248) 
-1.155741

>  <qed>  (248) 
0.632437

>  <MolWt>  (248) 
172.163

>  <HeavyAtomMolWt>  (248) 
166.115

>  <ExactMolWt>  (248) 
172.040402

>  <NumValenceElectrons>  (248) 
64

>  <NumRadicalElectrons>  (248) 
0

>  <MaxPartialCharge>  (248) 
0.072108

>  <MinPartialCharge>  (248) 
-0.544792

>  <MaxAbsPartialCharge>  (248) 
0.544792

>  <MinAbsPartialCharge>  (248) 
0.072108

>  <FpDensityMorgan1>  (248) 
1.307692

>  <FpDensityMorgan2>  (248) 
2.153846

>  <FpDensityMorgan3>  (248) 
2.923077

>  <BCUT2D_MWHI>  (248) 
16.365587

>  <BCUT2D_MWLOW>  (248) 
10.076245

>  <BCUT2D_CHGHI>  (248) 
1.990568

>  <BCUT2D_CHGLO>  (248) 
-2.050974

>  <BCUT2D_LOGPHI>  (248) 
2.156552

>  <BCUT2D_LOGPLOW>  (248) 
-2.218857

>  <BCUT2D_MRHI>  (248) 
6.017856

>  <BCUT2D_MRLOW>  (248) 
-0.254366

>  <AvgIpc>  (248) 
2.165908

>  <BalabanJ>  (248) 
2.830976

>  <BertzCT>  (248) 
459.936329

>  <Chi0>  (248) 
9.259149

>  <Chi0n>  (248) 
6.727812

>  <Chi0v>  (248) 
6.727812

>  <Chi1>  (248) 
6.287694

>  <Chi1n>  (248) 
3.829347

>  <Chi1v>  (248) 
3.829347

>  <Chi2n>  (248) 
2.689841

>  <Chi2v>  (248) 
2.689841

>  <Chi3n>  (248) 
1.900653

>  <Chi3v>  (248) 
1.900653

>  <Chi4n>  (248) 
1.300547

>  <Chi4v>  (248) 
1.300547

>  <HallKierAlpha>  (248) 
-1.9

>  <Ipc>  (248) 
1269.222327

>  <Kappa1>  (248) 
7.733836

>  <Kappa2>  (248) 
2.860302

>  <Kappa3>  (248) 
1.241845

>  <LabuteASA>  (248) 
74.653414

>  <PEOE_VSA1>  (248) 
9.901065

>  <PEOE_VSA10>  (248) 
0.0

>  <PEOE_VSA11>  (248) 
0.0

>  <PEOE_VSA12>  (248) 
0.0

>  <PEOE_VSA13>  (248) 
0.0

>  <PEOE_VSA14>  (248) 
0.0

>  <PEOE_VSA2>  (248) 
4.983979

>  <PEOE_VSA3>  (248) 
0.0

>  <PEOE_VSA4>  (248) 
0.0

>  <PEOE_VSA5>  (248) 
0.0

>  <PEOE_VSA6>  (248) 
18.199101

>  <PEOE_VSA7>  (248) 
11.452591

>  <PEOE_VSA8>  (248) 
23.343363

>  <PEOE_VSA9>  (248) 
5.969305

>  <SMR_VSA1>  (248) 
9.901065

>  <SMR_VSA10>  (248) 
16.741754

>  <SMR_VSA2>  (248) 
0.0

>  <SMR_VSA3>  (248) 
4.983979

>  <SMR_VSA4>  (248) 
0.0

>  <SMR_VSA5>  (248) 
0.0

>  <SMR_VSA6>  (248) 
0.0

>  <SMR_VSA7>  (248) 
42.222607

>  <SMR_VSA8>  (248) 
0.0

>  <SMR_VSA9>  (248) 
0.0

>  <SlogP_VSA1>  (248) 
5.106527

>  <SlogP_VSA10>  (248) 
0.0

>  <SlogP_VSA11>  (248) 
0.0

>  <SlogP_VSA12>  (248) 
0.0

>  <SlogP_VSA2>  (248) 
10.953284

>  <SlogP_VSA3>  (248) 
0.0

>  <SlogP_VSA4>  (248) 
0.0

>  <SlogP_VSA5>  (248) 
10.357989

>  <SlogP_VSA6>  (248) 
36.659155

>  <SlogP_VSA7>  (248) 
0.0

>  <SlogP_VSA8>  (248) 
10.772448

>  <SlogP_VSA9>  (248) 
0.0

>  <EState_VSA1>  (248) 
5.969305

>  <EState_VSA10>  (248) 
9.901065

>  <EState_VSA11>  (248) 
0.0

>  <EState_VSA2>  (248) 
5.563451

>  <EState_VSA3>  (248) 
5.386224

>  <EState_VSA4>  (248) 
5.386224

>  <EState_VSA5>  (248) 
6.066367

>  <EState_VSA6>  (248) 
24.526421

>  <EState_VSA7>  (248) 
6.066367

>  <EState_VSA8>  (248) 
4.983979

>  <EState_VSA9>  (248) 
0.0

>  <VSA_EState1>  (248) 
0.0

>  <VSA_EState10>  (248) 
0.0

>  <VSA_EState2>  (248) 
14.583367

>  <VSA_EState3>  (248) 
12.157188

>  <VSA_EState4>  (248) 
0.208241

>  <VSA_EState5>  (248) 
-1.155741

>  <VSA_EState6>  (248) 
6.682593

>  <VSA_EState7>  (248) 
3.191019

>  <VSA_EState8>  (248) 
0.0

>  <VSA_EState9>  (248) 
0.0

>  <FractionCSP3>  (248) 
0.0

>  <HeavyAtomCount>  (248) 
13

>  <NHOHCount>  (248) 
0

>  <NOCount>  (248) 
3

>  <NumAliphaticCarbocycles>  (248) 
0

>  <NumAliphaticHeterocycles>  (248) 
0

>  <NumAliphaticRings>  (248) 
0

>  <NumAromaticCarbocycles>  (248) 
1

>  <NumAromaticHeterocycles>  (248) 
1

>  <NumAromaticRings>  (248) 
2

>  <NumHAcceptors>  (248) 
3

>  <NumHDonors>  (248) 
0

>  <NumHeteroatoms>  (248) 
3

>  <NumRotatableBonds>  (248) 
1

>  <NumSaturatedCarbocycles>  (248) 
0

>  <NumSaturatedHeterocycles>  (248) 
0

>  <NumSaturatedRings>  (248) 
0

>  <RingCount>  (248) 
2

>  <MolLogP>  (248) 
0.5983

>  <MolMR>  (248) 
46.0735

>  <fr_Al_COO>  (248) 
0

>  <fr_Al_OH>  (248) 
0

>  <fr_Al_OH_noTert>  (248) 
0

>  <fr_ArN>  (248) 
0

>  <fr_Ar_COO>  (248) 
1

>  <fr_Ar_N>  (248) 
1

>  <fr_Ar_NH>  (248) 
0

>  <fr_Ar_OH>  (248) 
0

>  <fr_COO>  (248) 
1

>  <fr_COO2>  (248) 
1

>  <fr_C_O>  (248) 
1

>  <fr_C_O_noCOO>  (248) 
1

>  <fr_C_S>  (248) 
0

>  <fr_HOCCN>  (248) 
0

>  <fr_Imine>  (248) 
0

>  <fr_NH0>  (248) 
1

>  <fr_NH1>  (248) 
0

>  <fr_NH2>  (248) 
0

>  <fr_N_O>  (248) 
0

>  <fr_Ndealkylation1>  (248) 
0

>  <fr_Ndealkylation2>  (248) 
0

>  <fr_Nhpyrrole>  (248) 
0

>  <fr_SH>  (248) 
0

>  <fr_aldehyde>  (248) 
0

>  <fr_alkyl_carbamate>  (248) 
0

>  <fr_alkyl_halide>  (248) 
0

>  <fr_allylic_oxid>  (248) 
0

>  <fr_amide>  (248) 
0

>  <fr_amidine>  (248) 
0

>  <fr_aniline>  (248) 
0

>  <fr_aryl_methyl>  (248) 
0

>  <fr_azide>  (248) 
0

>  <fr_azo>  (248) 
0

>  <fr_barbitur>  (248) 
0

>  <fr_benzene>  (248) 
1

>  <fr_benzodiazepine>  (248) 
0

>  <fr_bicyclic>  (248) 
1

>  <fr_diazo>  (248) 
0

>  <fr_dihydropyridine>  (248) 
0

>  <fr_epoxide>  (248) 
0

>  <fr_ester>  (248) 
0

>  <fr_ether>  (248) 
0

>  <fr_furan>  (248) 
0

>  <fr_guanido>  (248) 
0

>  <fr_halogen>  (248) 
0

>  <fr_hdrzine>  (248) 
0

>  <fr_hdrzone>  (248) 
0

>  <fr_imidazole>  (248) 
0

>  <fr_imide>  (248) 
0

>  <fr_isocyan>  (248) 
0

>  <fr_isothiocyan>  (248) 
0

>  <fr_ketone>  (248) 
0

>  <fr_ketone_Topliss>  (248) 
0

>  <fr_lactam>  (248) 
0

>  <fr_lactone>  (248) 
0

>  <fr_methoxy>  (248) 
0

>  <fr_morpholine>  (248) 
0

>  <fr_nitrile>  (248) 
0

>  <fr_nitro>  (248) 
0

>  <fr_nitro_arom>  (248) 
0

>  <fr_nitro_arom_nonortho>  (248) 
0

>  <fr_nitroso>  (248) 
0

>  <fr_oxazole>  (248) 
0

>  <fr_oxime>  (248) 
0

>  <fr_para_hydroxylation>  (248) 
0

>  <fr_phenol>  (248) 
0

>  <fr_phenol_noOrthoHbond>  (248) 
0

>  <fr_phos_acid>  (248) 
0

>  <fr_phos_ester>  (248) 
0

>  <fr_piperdine>  (248) 
0

>  <fr_piperzine>  (248) 
0

>  <fr_priamide>  (248) 
0

>  <fr_prisulfonamd>  (248) 
0

>  <fr_pyridine>  (248) 
1

>  <fr_quatN>  (248) 
0

>  <fr_sulfide>  (248) 
0

>  <fr_sulfonamd>  (248) 
0

>  <fr_sulfone>  (248) 
0

>  <fr_term_acetylene>  (248) 
0

>  <fr_tetrazole>  (248) 
0

>  <fr_thiazole>  (248) 
0

>  <fr_thiocyan>  (248) 
0

>  <fr_thiophene>  (248) 
0

>  <fr_unbrch_alkane>  (248) 
0

>  <fr_urea>  (248) 
0

>  <NP_Likeness>  (248) 
-0.898153

$$$$
SIJ
     RDKit          3D

  0  0  0  0  0  0  0  0  0  0999 V3000
M  V30 BEGIN CTAB
M  V30 COUNTS 41 44 0 0 0
M  V30 BEGIN ATOM
M  V30 1 N -33.477000 -10.045000 -4.281000 0
M  V30 2 N -33.402000 -10.115000 -1.852000 0
M  V30 3 N -31.339000 -10.180000 -5.381000 0
M  V30 4 N -31.197000 -10.364000 -1.541000 0
M  V30 5 N -26.123000 -7.611000 -4.210000 0 CHG=1
M  V30 6 N -29.367000 -10.455000 -4.217000 0
M  V30 7 C -32.671000 -10.078000 -5.345000 0
M  V30 8 C -32.381000 -10.255000 -0.971000 0
M  V30 9 C -25.008000 -7.398000 -3.273000 0
M  V30 10 C -28.485000 -10.436000 -3.041000 0
M  V30 11 C -28.612000 -10.267000 -5.465000 0
M  V30 12 C -23.912000 -8.419000 -3.477000 0
M  V30 13 C -24.445000 -9.843000 -3.392000 0
M  V30 14 C -27.617000 -9.190000 -2.951000 0
M  V30 15 C -27.700000 -9.046000 -5.402000 0
M  V30 16 C -25.622000 -10.061000 -4.349000 0
M  V30 17 C -32.844000 -10.136000 -3.097000 0
M  V30 18 C -30.773000 -10.291000 -4.155000 0
M  V30 19 C -31.476000 -10.282000 -2.898000 0
M  V30 20 C -26.739000 -9.005000 -4.200000 0
M  V30 21 H -25.786100 -7.430800 -5.134100 0
M  V30 22 H -33.124900 -10.018400 -6.234100 0
M  V30 23 H -32.513700 -10.273900 0.020000 0
M  V30 24 H -25.351400 -7.472200 -2.336700 0
M  V30 25 H -24.631300 -6.483100 -3.418400 0
M  V30 26 H -27.886400 -11.236000 -3.081800 0
M  V30 27 H -29.052600 -10.485900 -2.219200 0
M  V30 28 H -29.258400 -10.148700 -6.218800 0
M  V30 29 H -28.052900 -11.079600 -5.629700 0
M  V30 30 H -23.214900 -8.291300 -2.771500 0
M  V30 31 H -23.503000 -8.279500 -4.378800 0
M  V30 32 H -24.750000 -10.020400 -2.456300 0
M  V30 33 H -23.711000 -10.479300 -3.629600 0
M  V30 34 H -27.024700 -9.266900 -2.149000 0
M  V30 35 H -28.209700 -8.390600 -2.852200 0
M  V30 36 H -28.277500 -8.230500 -5.364000 0
M  V30 37 H -27.150900 -9.026900 -6.237500 0
M  V30 38 H -26.013300 -10.963500 -4.169400 0
M  V30 39 H -25.277700 -10.027700 -5.287300 0
M  V30 40 H -34.372600 -10.015900 -1.632600 0
M  V30 41 H -26.843400 -6.955300 -3.984100 0
M  V30 END ATOM
M  V30 BEGIN BOND
M  V30 1 2 1 7
M  V30 2 1 1 17
M  V30 3 1 2 8
M  V30 4 1 2 17
M  V30 5 1 3 7
M  V30 6 2 3 18
M  V30 7 2 4 8
M  V30 8 1 4 19
M  V30 9 1 5 9
M  V30 10 1 5 20
M  V30 11 1 6 10
M  V30 12 1 6 11
M  V30 13 1 6 18
M  V30 14 1 9 12
M  V30 15 1 10 14
M  V30 16 1 11 15
M  V30 17 1 12 13
M  V30 18 1 13 16
M  V30 19 1 20 14
M  V30 20 1 15 20
M  V30 21 1 16 20
M  V30 22 2 17 19
M  V30 23 1 18 19
M  V30 24 1 2 40
M  V30 25 1 5 21
M  V30 26 1 7 22
M  V30 27 1 8 23
M  V30 28 1 9 24
M  V30 29 1 9 25
M  V30 30 1 10 26
M  V30 31 1 10 27
M  V30 32 1 11 28
M  V30 33 1 11 29
M  V30 34 1 12 30
M  V30 35 1 12 31
M  V30 36 1 13 32
M  V30 37 1 13 33
M  V30 38 1 14 34
M  V30 39 1 14 35
M  V30 40 1 15 36
M  V30 41 1 15 37
M  V30 42 1 16 38
M  V30 43 1 16 39
M  V30 44 1 5 41
M  V30 END BOND
M  V30 END CTAB
M  END
>  <Ligand_Instance>  (249) 
3ZO1_SIJ_A_1351

>  <Dataset>  (249) 
PDB

>  <PDB_ID>  (249) 
3ZO1

>  <Chain>  (249) 
A

>  <Resi>  (249) 
1351

>  <Num_Resolved_Atoms>  (249) 
20

>  <Num_H_Atoms_ProtBoundConf>  (249) 
21

>  <Pocket>  (249) 
A

>  <Name>  (249) 
6-(1,9-DIAZASPIRO[5.5]UNDECAN-9-YL)-9H-PURINE

>  <Num_Not_Resolved_Atoms>  (249) 
0

>  <ATP_Site>  (249) 
True

>  <Peripheral>  (249) 
False

>  <Standardized_SMILES>  (249) 
[H]C1=NC2=C(N=C([H])N2[H])C(N2C([H])([H])C([H])([H])C3(C([H])([H])C2([H])[H])C([H])([H])C([H])([H])C([H])([H])C([H])([H])[N+]3([H])[H])=N1

>  <2D_Mol_H>  (249) 
<rdkit.Chem.rdchem.Mol object at 0x77059d81fbc0>

>  <MW>  (249) 
273.364

>  <HBA>  (249) 
4

>  <HBD>  (249) 
2

>  <LogP>  (249) 
0.4392

>  <NRB>  (249) 
1

>  <TPSA>  (249) 
74.31

>  <Num_Heavy_Atoms>  (249) 
20

>  <Ro5>  (249) 
[True, True, True, True, True, True]

>  <Ro5_Fulfilled>  (249) 
True

>  <Ro3>  (249) 
[True, False, True, True]

>  <Ro3_Fulfilled>  (249) 
True

>  <Fsp3>  (249) 
0.642857

>  <Fsp3_0.42>  (249) 
True

>  <Fsp3_0.45>  (249) 
True

>  <Stereogenic_Carbons>  (249) 
0

>  <C_Atoms>  (249) 
14

>  <FCStereo>  (249) 
0.0

>  <SPS>  (249) 
450

>  <nSPS>  (249) 
22.5

>  <PBF>  (249) 
0.799967

>  <PBF_0.6>  (249) 
True

>  <nPBF>  (249) 
0.039998

>  <nPBF_0.016>  (249) 
True

>  <PMI1>  (249) 
587.435518

>  <PMI2>  (249) 
2920.509645

>  <PMI3>  (249) 
3208.856696

>  <NPR1>  (249) 
0.183067

>  <NPR2>  (249) 
0.91014

>  <Sum_NPR>  (249) 
1.093207

>  <Sum_NPR_1.07>  (249) 
True

>  <Sum_NPR_1.2>  (249) 
False

>  <MaxAbsEStateIndex>  (249) 
4.458451

>  <MaxEStateIndex>  (249) 
4.458451

>  <MinAbsEStateIndex>  (249) 
0.506419

>  <MinEStateIndex>  (249) 
0.506419

>  <qed>  (249) 
0.790422

>  <MolWt>  (249) 
273.364

>  <HeavyAtomMolWt>  (249) 
252.196

>  <ExactMolWt>  (249) 
273.182221

>  <NumValenceElectrons>  (249) 
106

>  <NumRadicalElectrons>  (249) 
0

>  <MaxPartialCharge>  (249) 
0.16229

>  <MinPartialCharge>  (249) 
-0.354156

>  <MaxAbsPartialCharge>  (249) 
0.354156

>  <MinAbsPartialCharge>  (249) 
0.16229

>  <FpDensityMorgan1>  (249) 
1.1

>  <FpDensityMorgan2>  (249) 
2.0

>  <FpDensityMorgan3>  (249) 
2.8

>  <BCUT2D_MWHI>  (249) 
15.228073

>  <BCUT2D_MWLOW>  (249) 
9.803211

>  <BCUT2D_CHGHI>  (249) 
2.391145

>  <BCUT2D_CHGLO>  (249) 
-2.418664

>  <BCUT2D_LOGPHI>  (249) 
2.293586

>  <BCUT2D_LOGPLOW>  (249) 
-2.987069

>  <BCUT2D_MRHI>  (249) 
5.821769

>  <BCUT2D_MRLOW>  (249) 
-0.737509

>  <AvgIpc>  (249) 
2.974442

>  <BalabanJ>  (249) 
1.55189

>  <BertzCT>  (249) 
590.484865

>  <Chi0>  (249) 
13.416003

>  <Chi0n>  (249) 
11.677759

>  <Chi0v>  (249) 
11.677759

>  <Chi1>  (249) 
9.863703

>  <Chi1n>  (249) 
7.597738

>  <Chi1v>  (249) 
7.597738

>  <Chi2n>  (249) 
6.096352

>  <Chi2v>  (249) 
6.096352

>  <Chi3n>  (249) 
4.962779

>  <Chi3v>  (249) 
4.962779

>  <Chi4n>  (249) 
3.733051

>  <Chi4v>  (249) 
3.733051

>  <HallKierAlpha>  (249) 
-1.69

>  <Ipc>  (249) 
99322.572112

>  <Kappa1>  (249) 
12.081353

>  <Kappa2>  (249) 
4.697198

>  <Kappa3>  (249) 
1.947156

>  <LabuteASA>  (249) 
117.563685

>  <PEOE_VSA1>  (249) 
15.200677

>  <PEOE_VSA10>  (249) 
11.844021

>  <PEOE_VSA11>  (249) 
11.46504

>  <PEOE_VSA12>  (249) 
0.0

>  <PEOE_VSA13>  (249) 
0.0

>  <PEOE_VSA14>  (249) 
0.0

>  <PEOE_VSA2>  (249) 
0.0

>  <PEOE_VSA3>  (249) 
14.951936

>  <PEOE_VSA4>  (249) 
0.0

>  <PEOE_VSA5>  (249) 
0.0

>  <PEOE_VSA6>  (249) 
0.0

>  <PEOE_VSA7>  (249) 
12.841643

>  <PEOE_VSA8>  (249) 
32.351978

>  <PEOE_VSA9>  (249) 
18.411002

>  <SMR_VSA1>  (249) 
5.316789

>  <SMR_VSA10>  (249) 
16.981741

>  <SMR_VSA2>  (249) 
0.0

>  <SMR_VSA3>  (249) 
19.935914

>  <SMR_VSA4>  (249) 
0.0

>  <SMR_VSA5>  (249) 
37.643033

>  <SMR_VSA6>  (249) 
24.534179

>  <SMR_VSA7>  (249) 
12.65464

>  <SMR_VSA8>  (249) 
0.0

>  <SMR_VSA9>  (249) 
0.0

>  <SlogP_VSA1>  (249) 
10.216698

>  <SlogP_VSA10>  (249) 
5.817863

>  <SlogP_VSA11>  (249) 
0.0

>  <SlogP_VSA12>  (249) 
0.0

>  <SlogP_VSA2>  (249) 
45.109109

>  <SlogP_VSA3>  (249) 
0.0

>  <SlogP_VSA4>  (249) 
0.0

>  <SlogP_VSA5>  (249) 
32.104108

>  <SlogP_VSA6>  (249) 
12.65464

>  <SlogP_VSA7>  (249) 
0.0

>  <SlogP_VSA8>  (249) 
11.163878

>  <SlogP_VSA9>  (249) 
0.0

>  <EState_VSA1>  (249) 
0.0

>  <EState_VSA10>  (249) 
0.0

>  <EState_VSA11>  (249) 
0.0

>  <EState_VSA2>  (249) 
0.0

>  <EState_VSA3>  (249) 
5.538925

>  <EState_VSA4>  (249) 
30.071254

>  <EState_VSA5>  (249) 
38.648865

>  <EState_VSA6>  (249) 
12.65464

>  <EState_VSA7>  (249) 
0.0

>  <EState_VSA8>  (249) 
30.152612

>  <EState_VSA9>  (249) 
0.0

>  <VSA_EState1>  (249) 
0.0

>  <VSA_EState10>  (249) 
0.0

>  <VSA_EState2>  (249) 
18.478711

>  <VSA_EState3>  (249) 
2.595191

>  <VSA_EState4>  (249) 
2.238447

>  <VSA_EState5>  (249) 
0.987879

>  <VSA_EState6>  (249) 
0.0

>  <VSA_EState7>  (249) 
9.98939

>  <VSA_EState8>  (249) 
3.460382

>  <VSA_EState9>  (249) 
0.0

>  <FractionCSP3>  (249) 
0.642857

>  <HeavyAtomCount>  (249) 
20

>  <NHOHCount>  (249) 
3

>  <NOCount>  (249) 
6

>  <NumAliphaticCarbocycles>  (249) 
0

>  <NumAliphaticHeterocycles>  (249) 
2

>  <NumAliphaticRings>  (249) 
2

>  <NumAromaticCarbocycles>  (249) 
0

>  <NumAromaticHeterocycles>  (249) 
2

>  <NumAromaticRings>  (249) 
2

>  <NumHAcceptors>  (249) 
4

>  <NumHDonors>  (249) 
2

>  <NumHeteroatoms>  (249) 
6

>  <NumRotatableBonds>  (249) 
1

>  <NumSaturatedCarbocycles>  (249) 
0

>  <NumSaturatedHeterocycles>  (249) 
2

>  <NumSaturatedRings>  (249) 
2

>  <RingCount>  (249) 
4

>  <MolLogP>  (249) 
0.4392

>  <MolMR>  (249) 
76.5051

>  <fr_Al_COO>  (249) 
0

>  <fr_Al_OH>  (249) 
0

>  <fr_Al_OH_noTert>  (249) 
0

>  <fr_ArN>  (249) 
0

>  <fr_Ar_COO>  (249) 
0

>  <fr_Ar_N>  (249) 
4

>  <fr_Ar_NH>  (249) 
1

>  <fr_Ar_OH>  (249) 
0

>  <fr_COO>  (249) 
0

>  <fr_COO2>  (249) 
0

>  <fr_C_O>  (249) 
0

>  <fr_C_O_noCOO>  (249) 
0

>  <fr_C_S>  (249) 
0

>  <fr_HOCCN>  (249) 
0

>  <fr_Imine>  (249) 
0

>  <fr_NH0>  (249) 
4

>  <fr_NH1>  (249) 
1

>  <fr_NH2>  (249) 
1

>  <fr_N_O>  (249) 
0

>  <fr_Ndealkylation1>  (249) 
0

>  <fr_Ndealkylation2>  (249) 
0

>  <fr_Nhpyrrole>  (249) 
1

>  <fr_SH>  (249) 
0

>  <fr_aldehyde>  (249) 
0

>  <fr_alkyl_carbamate>  (249) 
0

>  <fr_alkyl_halide>  (249) 
0

>  <fr_allylic_oxid>  (249) 
0

>  <fr_amide>  (249) 
0

>  <fr_amidine>  (249) 
0

>  <fr_aniline>  (249) 
1

>  <fr_aryl_methyl>  (249) 
0

>  <fr_azide>  (249) 
0

>  <fr_azo>  (249) 
0

>  <fr_barbitur>  (249) 
0

>  <fr_benzene>  (249) 
0

>  <fr_benzodiazepine>  (249) 
0

>  <fr_bicyclic>  (249) 
1

>  <fr_diazo>  (249) 
0

>  <fr_dihydropyridine>  (249) 
0

>  <fr_epoxide>  (249) 
0

>  <fr_ester>  (249) 
0

>  <fr_ether>  (249) 
0

>  <fr_furan>  (249) 
0

>  <fr_guanido>  (249) 
0

>  <fr_halogen>  (249) 
0

>  <fr_hdrzine>  (249) 
0

>  <fr_hdrzone>  (249) 
0

>  <fr_imidazole>  (249) 
1

>  <fr_imide>  (249) 
0

>  <fr_isocyan>  (249) 
0

>  <fr_isothiocyan>  (249) 
0

>  <fr_ketone>  (249) 
0

>  <fr_ketone_Topliss>  (249) 
0

>  <fr_lactam>  (249) 
0

>  <fr_lactone>  (249) 
0

>  <fr_methoxy>  (249) 
0

>  <fr_morpholine>  (249) 
0

>  <fr_nitrile>  (249) 
0

>  <fr_nitro>  (249) 
0

>  <fr_nitro_arom>  (249) 
0

>  <fr_nitro_arom_nonortho>  (249) 
0

>  <fr_nitroso>  (249) 
0

>  <fr_oxazole>  (249) 
0

>  <fr_oxime>  (249) 
0

>  <fr_para_hydroxylation>  (249) 
0

>  <fr_phenol>  (249) 
0

>  <fr_phenol_noOrthoHbond>  (249) 
0

>  <fr_phos_acid>  (249) 
0

>  <fr_phos_ester>  (249) 
0

>  <fr_piperdine>  (249) 
2

>  <fr_piperzine>  (249) 
0

>  <fr_priamide>  (249) 
0

>  <fr_prisulfonamd>  (249) 
0

>  <fr_pyridine>  (249) 
0

>  <fr_quatN>  (249) 
1

>  <fr_sulfide>  (249) 
0

>  <fr_sulfonamd>  (249) 
0

>  <fr_sulfone>  (249) 
0

>  <fr_term_acetylene>  (249) 
0

>  <fr_tetrazole>  (249) 
0

>  <fr_thiazole>  (249) 
0

>  <fr_thiocyan>  (249) 
0

>  <fr_thiophene>  (249) 
0

>  <fr_unbrch_alkane>  (249) 
0

>  <fr_urea>  (249) 
0

>  <NP_Likeness>  (249) 
-0.713281

$$$$
SKE
     RDKit          3D

  0  0  0  0  0  0  0  0  0  0999 V3000
M  V30 BEGIN CTAB
M  V30 COUNTS 39 41 0 0 0
M  V30 BEGIN ATOM
M  V30 1 S -28.683000 10.097000 11.922000 0
M  V30 2 F -28.760000 11.768000 5.163000 0
M  V30 3 F -28.077000 7.787000 2.643000 0
M  V30 4 O -29.520000 10.072000 13.144000 0
M  V30 5 O -27.941000 11.400000 11.795000 0
M  V30 6 O -29.941000 10.009000 1.988000 0
M  V30 7 N -27.601000 8.889000 11.962000 0
M  V30 8 N -32.705000 9.984000 2.527000 0
M  V30 9 N -30.718000 9.766000 5.314000 0
M  V30 10 N -32.847000 9.761000 4.884000 0
M  V30 11 N -32.244000 9.578000 7.180000 0
M  V30 12 N -30.852000 9.900000 4.069000 0
M  V30 13 C -25.977000 9.402000 5.164000 0
M  V30 14 C -29.185000 9.856000 9.230000 0
M  V30 15 C -31.138000 9.894000 10.641000 0
M  V30 16 C -26.761000 10.513000 5.489000 0
M  V30 17 C -26.419000 8.488000 4.201000 0
M  V30 18 C -30.006000 9.734000 8.100000 0
M  V30 19 C -31.964000 9.769000 9.519000 0
M  V30 20 C -29.749000 9.928000 10.500000 0
M  V30 21 C -27.994000 10.700000 4.854000 0
M  V30 22 C -27.645000 8.681000 3.563000 0
M  V30 23 C -32.156000 9.883000 3.754000 0
M  V30 24 C -29.805000 9.972000 3.219000 0
M  V30 25 C -31.935000 9.710000 5.865000 0
M  V30 26 C -31.404000 9.689000 8.232000 0
M  V30 27 C -28.426000 9.791000 3.883000 0
M  V30 28 H -27.995000 8.074300 11.536500 0
M  V30 29 H -26.778700 9.161400 11.462400 0
M  V30 30 H -32.118000 10.073200 1.722400 0
M  V30 31 H -33.699300 9.969800 2.421400 0
M  V30 32 H -33.199800 9.376100 7.393800 0
M  V30 33 H -25.098700 9.260200 5.620600 0
M  V30 34 H -28.191400 9.891400 9.122900 0
M  V30 35 H -31.545600 9.959600 11.551800 0
M  V30 36 H -26.442400 11.170600 6.171700 0
M  V30 37 H -25.855300 7.695100 3.969600 0
M  V30 38 H -29.592500 9.678500 7.191200 0
M  V30 39 H -32.957000 9.736400 9.632900 0
M  V30 END ATOM
M  V30 BEGIN BOND
M  V30 1 2 1 4
M  V30 2 2 1 5
M  V30 3 1 1 7
M  V30 4 1 1 20
M  V30 5 1 2 21
M  V30 6 1 3 22
M  V30 7 2 6 24
M  V30 8 1 8 23
M  V30 9 1 9 12
M  V30 10 2 9 25
M  V30 11 2 10 23
M  V30 12 1 10 25
M  V30 13 1 11 25
M  V30 14 1 11 26
M  V30 15 1 12 23
M  V30 16 1 12 24
M  V30 17 2 13 16
M  V30 18 1 13 17
M  V30 19 2 14 18
M  V30 20 1 14 20
M  V30 21 1 15 19
M  V30 22 2 15 20
M  V30 23 1 16 21
M  V30 24 2 17 22
M  V30 25 1 18 26
M  V30 26 2 19 26
M  V30 27 2 21 27
M  V30 28 1 22 27
M  V30 29 1 24 27
M  V30 30 1 7 28
M  V30 31 1 7 29
M  V30 32 1 8 30
M  V30 33 1 8 31
M  V30 34 1 11 32
M  V30 35 1 13 33
M  V30 36 1 14 34
M  V30 37 1 15 35
M  V30 38 1 16 36
M  V30 39 1 17 37
M  V30 40 1 18 38
M  V30 41 1 19 39
M  V30 END BOND
M  V30 END CTAB
M  END
>  <Ligand_Instance>  (250) 
3AMA_SKE_A_351

>  <Dataset>  (250) 
PDB

>  <PDB_ID>  (250) 
3AMA

>  <Chain>  (250) 
A

>  <Resi>  (250) 
351

>  <Num_Resolved_Atoms>  (250) 
27

>  <Num_H_Atoms_ProtBoundConf>  (250) 
12

>  <Pocket>  (250) 
A

>  <Name>  (250) 
4-({5-amino-1-[(2,6-difluorophenyl)carbonyl]-1H-1,2,4-triazol-3-yl}amino)benzenesulfonamide

>  <Num_Not_Resolved_Atoms>  (250) 
0

>  <ATP_Site>  (250) 
True

>  <Peripheral>  (250) 
False

>  <Standardized_SMILES>  (250) 
[H]C1=C([H])C(F)=C(C(=O)N2N=C(N([H])C3=C([H])C([H])=C(S(=O)(=O)N([H])[H])C([H])=C3[H])N=C2N([H])[H])C(F)=C1[H]

>  <2D_Mol_H>  (250) 
<rdkit.Chem.rdchem.Mol object at 0x77059d81fca0>

>  <MW>  (250) 
394.363

>  <HBA>  (250) 
8

>  <HBD>  (250) 
3

>  <LogP>  (250) 
1.218

>  <NRB>  (250) 
6

>  <TPSA>  (250) 
145.99

>  <Num_Heavy_Atoms>  (250) 
27

>  <Ro5>  (250) 
[True, True, True, True, True, False]

>  <Ro5_Fulfilled>  (250) 
True

>  <Ro3>  (250) 
[False, False, True, True]

>  <Ro3_Fulfilled>  (250) 
False

>  <Fsp3>  (250) 
0.0

>  <Fsp3_0.42>  (250) 
False

>  <Fsp3_0.45>  (250) 
False

>  <Stereogenic_Carbons>  (250) 
0

>  <C_Atoms>  (250) 
15

>  <FCStereo>  (250) 
0.0

>  <SPS>  (250) 
307

>  <nSPS>  (250) 
11.37037

>  <PBF>  (250) 
0.525987

>  <PBF_0.6>  (250) 
False

>  <nPBF>  (250) 
0.019481

>  <nPBF_0.016>  (250) 
True

>  <PMI1>  (250) 
1710.720939

>  <PMI2>  (250) 
5101.547869

>  <PMI3>  (250) 
6303.378339

>  <NPR1>  (250) 
0.271397

>  <NPR2>  (250) 
0.809336

>  <Sum_NPR>  (250) 
1.080733

>  <Sum_NPR_1.07>  (250) 
True

>  <Sum_NPR_1.2>  (250) 
False

>  <MaxAbsEStateIndex>  (250) 
13.767918

>  <MaxEStateIndex>  (250) 
13.767918

>  <MinAbsEStateIndex>  (250) 
0.100687

>  <MinEStateIndex>  (250) 
-3.843914

>  <qed>  (250) 
0.602789

>  <MolWt>  (250) 
394.363

>  <HeavyAtomMolWt>  (250) 
382.267

>  <ExactMolWt>  (250) 
394.065966

>  <NumValenceElectrons>  (250) 
140

>  <NumRadicalElectrons>  (250) 
0

>  <MaxPartialCharge>  (250) 
0.286935

>  <MinPartialCharge>  (250) 
-0.367547

>  <MaxAbsPartialCharge>  (250) 
0.367547

>  <MinAbsPartialCharge>  (250) 
0.286935

>  <FpDensityMorgan1>  (250) 
1.074074

>  <FpDensityMorgan2>  (250) 
1.666667

>  <FpDensityMorgan3>  (250) 
2.222222

>  <BCUT2D_MWHI>  (250) 
32.233117

>  <BCUT2D_MWLOW>  (250) 
10.161666

>  <BCUT2D_CHGHI>  (250) 
2.225331

>  <BCUT2D_CHGLO>  (250) 
-2.042489

>  <BCUT2D_LOGPHI>  (250) 
2.190032

>  <BCUT2D_LOGPLOW>  (250) 
-2.18941

>  <BCUT2D_MRHI>  (250) 
7.887609

>  <BCUT2D_MRLOW>  (250) 
0.093923

>  <AvgIpc>  (250) 
2.942983

>  <BalabanJ>  (250) 
1.875941

>  <BertzCT>  (250) 
1108.704064

>  <Chi0>  (250) 
19.76722

>  <Chi0n>  (250) 
13.426715

>  <Chi0v>  (250) 
14.243212

>  <Chi1>  (250) 
12.663722

>  <Chi1n>  (250) 
7.277342

>  <Chi1v>  (250) 
8.823661

>  <Chi2n>  (250) 
5.30161

>  <Chi2v>  (250) 
6.863033

>  <Chi3n>  (250) 
3.440167

>  <Chi3v>  (250) 
4.369398

>  <Chi4n>  (250) 
2.191656

>  <Chi4v>  (250) 
2.707096

>  <HallKierAlpha>  (250) 
-3.38

>  <Ipc>  (250) 
973939.012545

>  <Kappa1>  (250) 
18.412249

>  <Kappa2>  (250) 
6.735581

>  <Kappa3>  (250) 
3.753407

>  <LabuteASA>  (250) 
151.220427

>  <PEOE_VSA1>  (250) 
11.050456

>  <PEOE_VSA10>  (250) 
17.197893

>  <PEOE_VSA11>  (250) 
0.0

>  <PEOE_VSA12>  (250) 
21.91997

>  <PEOE_VSA13>  (250) 
5.90718

>  <PEOE_VSA14>  (250) 
0.0

>  <PEOE_VSA2>  (250) 
4.794537

>  <PEOE_VSA3>  (250) 
22.337601

>  <PEOE_VSA4>  (250) 
9.665781

>  <PEOE_VSA5>  (250) 
5.098682

>  <PEOE_VSA6>  (250) 
6.066367

>  <PEOE_VSA7>  (250) 
36.398202

>  <PEOE_VSA8>  (250) 
5.687386

>  <PEOE_VSA9>  (250) 
4.895483

>  <SMR_VSA1>  (250) 
21.993164

>  <SMR_VSA10>  (250) 
33.514536

>  <SMR_VSA2>  (250) 
0.0

>  <SMR_VSA3>  (250) 
14.764463

>  <SMR_VSA4>  (250) 
5.138974

>  <SMR_VSA5>  (250) 
4.895483

>  <SMR_VSA6>  (250) 
11.050456

>  <SMR_VSA7>  (250) 
59.662463

>  <SMR_VSA8>  (250) 
0.0

>  <SMR_VSA9>  (250) 
0.0

>  <SlogP_VSA1>  (250) 
16.18943

>  <SlogP_VSA10>  (250) 
26.364895

>  <SlogP_VSA11>  (250) 
0.0

>  <SlogP_VSA12>  (250) 
0.0

>  <SlogP_VSA2>  (250) 
29.08944

>  <SlogP_VSA3>  (250) 
10.023291

>  <SlogP_VSA4>  (250) 
11.634442

>  <SlogP_VSA5>  (250) 
10.357989

>  <SlogP_VSA6>  (250) 
47.360053

>  <SlogP_VSA7>  (250) 
0.0

>  <SlogP_VSA8>  (250) 
0.0

>  <SlogP_VSA9>  (250) 
0.0

>  <EState_VSA1>  (250) 
39.076703

>  <EState_VSA10>  (250) 
21.993164

>  <EState_VSA11>  (250) 
0.0

>  <EState_VSA2>  (250) 
10.843823

>  <EState_VSA3>  (250) 
10.369189

>  <EState_VSA4>  (250) 
18.199101

>  <EState_VSA5>  (250) 
24.265468

>  <EState_VSA6>  (250) 
0.0

>  <EState_VSA7>  (250) 
0.0

>  <EState_VSA8>  (250) 
15.399449

>  <EState_VSA9>  (250) 
10.872641

>  <VSA_EState1>  (250) 
50.538497

>  <VSA_EState10>  (250) 
0.0

>  <VSA_EState2>  (250) 
16.013873

>  <VSA_EState3>  (250) 
11.463443

>  <VSA_EState4>  (250) 
5.146143

>  <VSA_EState5>  (250) 
-3.799566

>  <VSA_EState6>  (250) 
8.231524

>  <VSA_EState7>  (250) 
0.0

>  <VSA_EState8>  (250) 
0.0

>  <VSA_EState9>  (250) 
-3.843914

>  <FractionCSP3>  (250) 
0.0

>  <HeavyAtomCount>  (250) 
27

>  <NHOHCount>  (250) 
5

>  <NOCount>  (250) 
9

>  <NumAliphaticCarbocycles>  (250) 
0

>  <NumAliphaticHeterocycles>  (250) 
0

>  <NumAliphaticRings>  (250) 
0

>  <NumAromaticCarbocycles>  (250) 
2

>  <NumAromaticHeterocycles>  (250) 
1

>  <NumAromaticRings>  (250) 
3

>  <NumHAcceptors>  (250) 
8

>  <NumHDonors>  (250) 
3

>  <NumHeteroatoms>  (250) 
12

>  <NumRotatableBonds>  (250) 
4

>  <NumSaturatedCarbocycles>  (250) 
0

>  <NumSaturatedHeterocycles>  (250) 
0

>  <NumSaturatedRings>  (250) 
0

>  <RingCount>  (250) 
3

>  <MolLogP>  (250) 
1.218

>  <MolMR>  (250) 
91.6188

>  <fr_Al_COO>  (250) 
0

>  <fr_Al_OH>  (250) 
0

>  <fr_Al_OH_noTert>  (250) 
0

>  <fr_ArN>  (250) 
1

>  <fr_Ar_COO>  (250) 
0

>  <fr_Ar_N>  (250) 
3

>  <fr_Ar_NH>  (250) 
0

>  <fr_Ar_OH>  (250) 
0

>  <fr_COO>  (250) 
0

>  <fr_COO2>  (250) 
0

>  <fr_C_O>  (250) 
1

>  <fr_C_O_noCOO>  (250) 
1

>  <fr_C_S>  (250) 
0

>  <fr_HOCCN>  (250) 
0

>  <fr_Imine>  (250) 
0

>  <fr_NH0>  (250) 
3

>  <fr_NH1>  (250) 
1

>  <fr_NH2>  (250) 
2

>  <fr_N_O>  (250) 
0

>  <fr_Ndealkylation1>  (250) 
0

>  <fr_Ndealkylation2>  (250) 
0

>  <fr_Nhpyrrole>  (250) 
0

>  <fr_SH>  (250) 
0

>  <fr_aldehyde>  (250) 
0

>  <fr_alkyl_carbamate>  (250) 
0

>  <fr_alkyl_halide>  (250) 
0

>  <fr_allylic_oxid>  (250) 
0

>  <fr_amide>  (250) 
0

>  <fr_amidine>  (250) 
0

>  <fr_aniline>  (250) 
3

>  <fr_aryl_methyl>  (250) 
0

>  <fr_azide>  (250) 
0

>  <fr_azo>  (250) 
0

>  <fr_barbitur>  (250) 
0

>  <fr_benzene>  (250) 
2

>  <fr_benzodiazepine>  (250) 
0

>  <fr_bicyclic>  (250) 
0

>  <fr_diazo>  (250) 
0

>  <fr_dihydropyridine>  (250) 
0

>  <fr_epoxide>  (250) 
0

>  <fr_ester>  (250) 
0

>  <fr_ether>  (250) 
0

>  <fr_furan>  (250) 
0

>  <fr_guanido>  (250) 
0

>  <fr_halogen>  (250) 
2

>  <fr_hdrzine>  (250) 
0

>  <fr_hdrzone>  (250) 
0

>  <fr_imidazole>  (250) 
0

>  <fr_imide>  (250) 
0

>  <fr_isocyan>  (250) 
0

>  <fr_isothiocyan>  (250) 
0

>  <fr_ketone>  (250) 
0

>  <fr_ketone_Topliss>  (250) 
0

>  <fr_lactam>  (250) 
0

>  <fr_lactone>  (250) 
0

>  <fr_methoxy>  (250) 
0

>  <fr_morpholine>  (250) 
0

>  <fr_nitrile>  (250) 
0

>  <fr_nitro>  (250) 
0

>  <fr_nitro_arom>  (250) 
0

>  <fr_nitro_arom_nonortho>  (250) 
0

>  <fr_nitroso>  (250) 
0

>  <fr_oxazole>  (250) 
0

>  <fr_oxime>  (250) 
0

>  <fr_para_hydroxylation>  (250) 
0

>  <fr_phenol>  (250) 
0

>  <fr_phenol_noOrthoHbond>  (250) 
0

>  <fr_phos_acid>  (250) 
0

>  <fr_phos_ester>  (250) 
0

>  <fr_piperdine>  (250) 
0

>  <fr_piperzine>  (250) 
0

>  <fr_priamide>  (250) 
0

>  <fr_prisulfonamd>  (250) 
0

>  <fr_pyridine>  (250) 
0

>  <fr_quatN>  (250) 
0

>  <fr_sulfide>  (250) 
0

>  <fr_sulfonamd>  (250) 
1

>  <fr_sulfone>  (250) 
0

>  <fr_term_acetylene>  (250) 
0

>  <fr_tetrazole>  (250) 
0

>  <fr_thiazole>  (250) 
0

>  <fr_thiocyan>  (250) 
0

>  <fr_thiophene>  (250) 
0

>  <fr_unbrch_alkane>  (250) 
0

>  <fr_urea>  (250) 
0

>  <NP_Likeness>  (250) 
-1.744004

$$$$
SMY
     RDKit          3D

  0  0  0  0  0  0  0  0  0  0999 V3000
M  V30 BEGIN CTAB
M  V30 COUNTS 57 61 0 0 0
M  V30 BEGIN ATOM
M  V30 1 S 12.044000 30.014000 36.510000 0
M  V30 2 O 4.366000 34.854000 36.078000 0
M  V30 3 N 3.534000 34.635000 33.548000 0 CHG=1
M  V30 4 N 11.182000 34.753000 36.867000 0
M  V30 5 N 13.308000 33.655000 36.997000 0
M  V30 6 N 3.304000 29.148000 36.788000 0
M  V30 7 N 6.357000 33.836000 35.640000 0
M  V30 8 N 9.177000 33.614000 36.422000 0
M  V30 9 C 9.530000 30.441000 37.311000 0
M  V30 10 C 13.441000 31.210000 36.691000 0
M  V30 11 C 12.528000 34.737000 37.006000 0
M  V30 12 C 2.725000 30.354000 36.370000 0
M  V30 13 C 7.029000 34.590000 36.717000 0
M  V30 14 C 7.222000 32.955000 34.837000 0
M  V30 15 C 8.204000 33.932000 37.414000 0
M  V30 16 C 8.678000 32.809000 35.294000 0
M  V30 17 C 6.815000 28.314000 35.618000 0
M  V30 18 C 6.999000 29.483000 34.851000 0
M  V30 19 C 5.574000 28.166000 36.282000 0
M  V30 20 C 5.953000 30.442000 34.780000 0
M  V30 21 C 3.095000 32.472000 34.926000 0
M  V30 22 C 10.596000 31.065000 36.323000 0 CFG=1
M  V30 23 C 5.012000 34.059000 35.390000 0
M  V30 24 C 10.537000 33.606000 36.642000 0
M  V30 25 C 4.121000 33.449000 34.295000 0 CFG=2
M  V30 26 C 12.684000 32.493000 36.752000 0
M  V30 27 C 4.538000 29.127000 36.212000 0
M  V30 28 C 3.514000 31.116000 35.547000 0
M  V30 29 C 4.721000 30.277000 35.463000 0
M  V30 30 C 11.274000 32.406000 36.612000 0
M  V30 31 H 4.274800 35.198500 33.182500 0
M  V30 32 H 2.963300 34.305800 32.795700 0
M  V30 33 H 2.898400 28.452700 37.381400 0
M  V30 34 H 8.684200 30.972800 37.267900 0
M  V30 35 H 9.343000 29.495200 37.045500 0
M  V30 36 H 9.888900 30.460500 38.244200 0
M  V30 37 H 14.057700 31.180900 35.904300 0
M  V30 38 H 13.961800 31.047100 37.529000 0
M  V30 39 H 12.980900 35.620300 37.127000 0
M  V30 40 H 1.807700 30.636900 36.650200 0
M  V30 41 H 6.341500 34.789300 37.415300 0
M  V30 42 H 7.359100 35.446500 36.320200 0
M  V30 43 H 7.232800 33.311900 33.902900 0
M  V30 44 H 6.811300 32.043200 34.840700 0
M  V30 45 H 8.596100 34.560200 38.086000 0
M  V30 46 H 7.902300 33.097200 37.874500 0
M  V30 47 H 8.808000 31.849400 35.543600 0
M  V30 48 H 9.252100 33.029000 34.505300 0
M  V30 49 H 7.530800 27.619400 35.689600 0
M  V30 50 H 7.857600 29.635600 34.361600 0
M  V30 51 H 5.421900 27.341700 36.827400 0
M  V30 52 H 6.090700 31.264200 34.227700 0
M  V30 53 H 2.436500 32.256200 34.205000 0
M  V30 54 H 2.636900 32.981800 35.654200 0
M  V30 55 H 10.260800 31.036700 35.381300 0
M  V30 56 H 4.702000 32.934100 33.664700 0
M  V30 57 H 2.977600 35.181100 34.174200 0
M  V30 END ATOM
M  V30 BEGIN BOND
M  V30 1 1 1 10
M  V30 2 1 1 22
M  V30 3 2 2 23
M  V30 4 1 3 25
M  V30 5 2 4 11
M  V30 6 1 4 24
M  V30 7 1 5 11
M  V30 8 2 5 26
M  V30 9 1 6 12
M  V30 10 1 6 27
M  V30 11 1 7 13
M  V30 12 1 7 14
M  V30 13 1 7 23
M  V30 14 1 8 15
M  V30 15 1 8 16
M  V30 16 1 8 24
M  V30 17 1 9 22
M  V30 18 1 10 26
M  V30 19 2 12 28
M  V30 20 1 13 15
M  V30 21 1 14 16
M  V30 22 2 17 18
M  V30 23 1 17 19
M  V30 24 1 18 20
M  V30 25 2 19 27
M  V30 26 2 20 29
M  V30 27 1 21 25
M  V30 28 1 21 28
M  V30 29 1 22 30
M  V30 30 1 23 25
M  V30 31 2 24 30
M  V30 32 1 26 30
M  V30 33 1 27 29
M  V30 34 1 28 29
M  V30 35 1 3 31
M  V30 36 1 3 32
M  V30 37 1 6 33
M  V30 38 1 9 34
M  V30 39 1 9 35
M  V30 40 1 9 36
M  V30 41 1 10 37
M  V30 42 1 10 38
M  V30 43 1 11 39
M  V30 44 1 12 40
M  V30 45 1 13 41
M  V30 46 1 13 42
M  V30 47 1 14 43
M  V30 48 1 14 44
M  V30 49 1 15 45
M  V30 50 1 15 46
M  V30 51 1 16 47
M  V30 52 1 16 48
M  V30 53 1 17 49
M  V30 54 1 18 50
M  V30 55 1 19 51
M  V30 56 1 20 52
M  V30 57 1 21 53
M  V30 58 1 21 54
M  V30 59 1 22 55 CFG=3
M  V30 60 1 25 56 CFG=3
M  V30 61 1 3 57
M  V30 END BOND
M  V30 END CTAB
M  END
>  <Ligand_Instance>  (251) 
3OW3_SMY_A_401

>  <Dataset>  (251) 
PDB

>  <PDB_ID>  (251) 
3OW3

>  <Chain>  (251) 
A

>  <Resi>  (251) 
401

>  <Num_Resolved_Atoms>  (251) 
30

>  <Num_H_Atoms_ProtBoundConf>  (251) 
27

>  <Pocket>  (251) 
A

>  <Name>  (251) 
(2R)-3-(1H-indol-3-yl)-1-{4-[(5S)-5-methyl-5,7-dihydrothieno[3,4-d]pyrimidin-4-yl]piperazin-1-yl}-1-oxopropan-2-amine

>  <Num_Not_Resolved_Atoms>  (251) 
0

>  <ATP_Site>  (251) 
True

>  <Peripheral>  (251) 
False

>  <Standardized_SMILES>  (251) 
[H]C1=NC(N2C([H])([H])C([H])([H])N(C(=O)[C@@]([H])(C([H])([H])C3=C([H])N([H])C4=C([H])C([H])=C([H])C([H])=C43)[N+]([H])([H])[H])C([H])([H])C2([H])[H])=C2C(=N1)C([H])([H])S[C@@]2([H])C([H])([H])[H]

>  <2D_Mol_H>  (251) 
<rdkit.Chem.rdchem.Mol object at 0x77059d81fd80>

>  <MW>  (251) 
423.566

>  <HBA>  (251) 
5

>  <HBD>  (251) 
2

>  <LogP>  (251) 
1.7675

>  <NRB>  (251) 
6

>  <TPSA>  (251) 
92.76

>  <Num_Heavy_Atoms>  (251) 
30

>  <Ro5>  (251) 
[True, True, True, True, True, True]

>  <Ro5_Fulfilled>  (251) 
True

>  <Ro3>  (251) 
[False, False, True, True]

>  <Ro3_Fulfilled>  (251) 
False

>  <Fsp3>  (251) 
0.409091

>  <Fsp3_0.42>  (251) 
False

>  <Fsp3_0.45>  (251) 
False

>  <Stereogenic_Carbons>  (251) 
2

>  <C_Atoms>  (251) 
22

>  <FCStereo>  (251) 
0.090909

>  <SPS>  (251) 
596

>  <nSPS>  (251) 
19.866667

>  <PBF>  (251) 
0.911841

>  <PBF_0.6>  (251) 
True

>  <nPBF>  (251) 
0.030395

>  <nPBF_0.016>  (251) 
True

>  <PMI1>  (251) 
2101.604652

>  <PMI2>  (251) 
5430.440373

>  <PMI3>  (251) 
7003.15428

>  <NPR1>  (251) 
0.300094

>  <NPR2>  (251) 
0.775428

>  <Sum_NPR>  (251) 
1.075522

>  <Sum_NPR_1.07>  (251) 
True

>  <Sum_NPR_1.2>  (251) 
False

>  <MaxAbsEStateIndex>  (251) 
13.048602

>  <MaxEStateIndex>  (251) 
13.048602

>  <MinAbsEStateIndex>  (251) 
0.135899

>  <MinEStateIndex>  (251) 
-0.281967

>  <qed>  (251) 
0.667184

>  <MolWt>  (251) 
423.566

>  <HeavyAtomMolWt>  (251) 
396.35

>  <ExactMolWt>  (251) 
423.196157

>  <NumValenceElectrons>  (251) 
156

>  <NumRadicalElectrons>  (251) 
0

>  <MaxPartialCharge>  (251) 
0.2807

>  <MinPartialCharge>  (251) 
-0.360886

>  <MaxAbsPartialCharge>  (251) 
0.360886

>  <MinAbsPartialCharge>  (251) 
0.2807

>  <FpDensityMorgan1>  (251) 
1.266667

>  <FpDensityMorgan2>  (251) 
2.066667

>  <FpDensityMorgan3>  (251) 
2.9

>  <BCUT2D_MWHI>  (251) 
32.16663

>  <BCUT2D_MWLOW>  (251) 
10.041069

>  <BCUT2D_CHGHI>  (251) 
2.315927

>  <BCUT2D_CHGLO>  (251) 
-2.36346

>  <BCUT2D_LOGPHI>  (251) 
2.436151

>  <BCUT2D_LOGPLOW>  (251) 
-2.695714

>  <BCUT2D_MRHI>  (251) 
7.985964

>  <BCUT2D_MRLOW>  (251) 
-0.404822

>  <AvgIpc>  (251) 
3.369793

>  <BalabanJ>  (251) 
1.235323

>  <BertzCT>  (251) 
1074.429936

>  <Chi0>  (251) 
20.664561

>  <Chi0n>  (251) 
17.173901

>  <Chi0v>  (251) 
17.990397

>  <Chi1>  (251) 
14.614194

>  <Chi1n>  (251) 
10.487242

>  <Chi1v>  (251) 
11.535997

>  <Chi2n>  (251) 
8.083756

>  <Chi2v>  (251) 
9.412872

>  <Chi3n>  (251) 
6.203326

>  <Chi3v>  (251) 
7.379132

>  <Chi4n>  (251) 
4.542209

>  <Chi4v>  (251) 
5.58823

>  <HallKierAlpha>  (251) 
-2.58

>  <Ipc>  (251) 
14437446.12774

>  <Kappa1>  (251) 
19.387451

>  <Kappa2>  (251) 
7.922708

>  <Kappa3>  (251) 
3.436126

>  <LabuteASA>  (251) 
179.600567

>  <PEOE_VSA1>  (251) 
20.517465

>  <PEOE_VSA10>  (251) 
12.145183

>  <PEOE_VSA11>  (251) 
6.041841

>  <PEOE_VSA12>  (251) 
0.0

>  <PEOE_VSA13>  (251) 
5.90718

>  <PEOE_VSA14>  (251) 
0.0

>  <PEOE_VSA2>  (251) 
4.794537

>  <PEOE_VSA3>  (251) 
9.967957

>  <PEOE_VSA4>  (251) 
0.0

>  <PEOE_VSA5>  (251) 
11.761885

>  <PEOE_VSA6>  (251) 
18.199101

>  <PEOE_VSA7>  (251) 
18.553556

>  <PEOE_VSA8>  (251) 
66.265859

>  <PEOE_VSA9>  (251) 
5.693928

>  <SMR_VSA1>  (251) 
10.528205

>  <SMR_VSA10>  (251) 
34.389852

>  <SMR_VSA2>  (251) 
0.0

>  <SMR_VSA3>  (251) 
19.851845

>  <SMR_VSA4>  (251) 
0.0

>  <SMR_VSA5>  (251) 
30.389191

>  <SMR_VSA6>  (251) 
31.078935

>  <SMR_VSA7>  (251) 
53.610463

>  <SMR_VSA8>  (251) 
0.0

>  <SMR_VSA9>  (251) 
0.0

>  <SlogP_VSA1>  (251) 
10.633577

>  <SlogP_VSA10>  (251) 
5.817863

>  <SlogP_VSA11>  (251) 
0.0

>  <SlogP_VSA12>  (251) 
11.761885

>  <SlogP_VSA2>  (251) 
57.979891

>  <SlogP_VSA3>  (251) 
16.968212

>  <SlogP_VSA4>  (251) 
0.0

>  <SlogP_VSA5>  (251) 
28.994506

>  <SlogP_VSA6>  (251) 
36.789632

>  <SlogP_VSA7>  (251) 
0.0

>  <SlogP_VSA8>  (251) 
10.902925

>  <SlogP_VSA9>  (251) 
0.0

>  <EState_VSA1>  (251) 
0.0

>  <EState_VSA10>  (251) 
4.794537

>  <EState_VSA11>  (251) 
0.0

>  <EState_VSA2>  (251) 
11.949021

>  <EState_VSA3>  (251) 
24.760272

>  <EState_VSA4>  (251) 
41.434309

>  <EState_VSA5>  (251) 
10.949676

>  <EState_VSA6>  (251) 
6.32732

>  <EState_VSA7>  (251) 
34.991372

>  <EState_VSA8>  (251) 
44.641984

>  <EState_VSA9>  (251) 
0.0

>  <VSA_EState1>  (251) 
0.0

>  <VSA_EState10>  (251) 
1.911332

>  <VSA_EState2>  (251) 
29.651406

>  <VSA_EState3>  (251) 
1.601512

>  <VSA_EState4>  (251) 
8.877284

>  <VSA_EState5>  (251) 
2.146236

>  <VSA_EState6>  (251) 
7.913742

>  <VSA_EState7>  (251) 
4.330982

>  <VSA_EState8>  (251) 
5.234172

>  <VSA_EState9>  (251) 
0.0

>  <FractionCSP3>  (251) 
0.409091

>  <HeavyAtomCount>  (251) 
30

>  <NHOHCount>  (251) 
4

>  <NOCount>  (251) 
7

>  <NumAliphaticCarbocycles>  (251) 
0

>  <NumAliphaticHeterocycles>  (251) 
2

>  <NumAliphaticRings>  (251) 
2

>  <NumAromaticCarbocycles>  (251) 
1

>  <NumAromaticHeterocycles>  (251) 
2

>  <NumAromaticRings>  (251) 
3

>  <NumHAcceptors>  (251) 
5

>  <NumHDonors>  (251) 
2

>  <NumHeteroatoms>  (251) 
8

>  <NumRotatableBonds>  (251) 
4

>  <NumSaturatedCarbocycles>  (251) 
0

>  <NumSaturatedHeterocycles>  (251) 
1

>  <NumSaturatedRings>  (251) 
1

>  <RingCount>  (251) 
5

>  <MolLogP>  (251) 
1.7675

>  <MolMR>  (251) 
119.2138

>  <fr_Al_COO>  (251) 
0

>  <fr_Al_OH>  (251) 
0

>  <fr_Al_OH_noTert>  (251) 
0

>  <fr_ArN>  (251) 
0

>  <fr_Ar_COO>  (251) 
0

>  <fr_Ar_N>  (251) 
3

>  <fr_Ar_NH>  (251) 
1

>  <fr_Ar_OH>  (251) 
0

>  <fr_COO>  (251) 
0

>  <fr_COO2>  (251) 
0

>  <fr_C_O>  (251) 
1

>  <fr_C_O_noCOO>  (251) 
1

>  <fr_C_S>  (251) 
0

>  <fr_HOCCN>  (251) 
0

>  <fr_Imine>  (251) 
0

>  <fr_NH0>  (251) 
4

>  <fr_NH1>  (251) 
1

>  <fr_NH2>  (251) 
0

>  <fr_N_O>  (251) 
0

>  <fr_Ndealkylation1>  (251) 
0

>  <fr_Ndealkylation2>  (251) 
0

>  <fr_Nhpyrrole>  (251) 
1

>  <fr_SH>  (251) 
0

>  <fr_aldehyde>  (251) 
0

>  <fr_alkyl_carbamate>  (251) 
0

>  <fr_alkyl_halide>  (251) 
0

>  <fr_allylic_oxid>  (251) 
0

>  <fr_amide>  (251) 
1

>  <fr_amidine>  (251) 
0

>  <fr_aniline>  (251) 
1

>  <fr_aryl_methyl>  (251) 
0

>  <fr_azide>  (251) 
0

>  <fr_azo>  (251) 
0

>  <fr_barbitur>  (251) 
0

>  <fr_benzene>  (251) 
1

>  <fr_benzodiazepine>  (251) 
0

>  <fr_bicyclic>  (251) 
2

>  <fr_diazo>  (251) 
0

>  <fr_dihydropyridine>  (251) 
0

>  <fr_epoxide>  (251) 
0

>  <fr_ester>  (251) 
0

>  <fr_ether>  (251) 
0

>  <fr_furan>  (251) 
0

>  <fr_guanido>  (251) 
0

>  <fr_halogen>  (251) 
0

>  <fr_hdrzine>  (251) 
0

>  <fr_hdrzone>  (251) 
0

>  <fr_imidazole>  (251) 
0

>  <fr_imide>  (251) 
0

>  <fr_isocyan>  (251) 
0

>  <fr_isothiocyan>  (251) 
0

>  <fr_ketone>  (251) 
0

>  <fr_ketone_Topliss>  (251) 
0

>  <fr_lactam>  (251) 
0

>  <fr_lactone>  (251) 
0

>  <fr_methoxy>  (251) 
0

>  <fr_morpholine>  (251) 
0

>  <fr_nitrile>  (251) 
0

>  <fr_nitro>  (251) 
0

>  <fr_nitro_arom>  (251) 
0

>  <fr_nitro_arom_nonortho>  (251) 
0

>  <fr_nitroso>  (251) 
0

>  <fr_oxazole>  (251) 
0

>  <fr_oxime>  (251) 
0

>  <fr_para_hydroxylation>  (251) 
1

>  <fr_phenol>  (251) 
0

>  <fr_phenol_noOrthoHbond>  (251) 
0

>  <fr_phos_acid>  (251) 
0

>  <fr_phos_ester>  (251) 
0

>  <fr_piperdine>  (251) 
0

>  <fr_piperzine>  (251) 
1

>  <fr_priamide>  (251) 
0

>  <fr_prisulfonamd>  (251) 
0

>  <fr_pyridine>  (251) 
0

>  <fr_quatN>  (251) 
1

>  <fr_sulfide>  (251) 
1

>  <fr_sulfonamd>  (251) 
0

>  <fr_sulfone>  (251) 
0

>  <fr_term_acetylene>  (251) 
0

>  <fr_tetrazole>  (251) 
0

>  <fr_thiazole>  (251) 
0

>  <fr_thiocyan>  (251) 
0

>  <fr_thiophene>  (251) 
0

>  <fr_unbrch_alkane>  (251) 
0

>  <fr_urea>  (251) 
0

>  <NP_Likeness>  (251) 
-0.855624

$$$$
SS3
     RDKit          3D

  0  0  0  0  0  0  0  0  0  0999 V3000
M  V30 BEGIN CTAB
M  V30 COUNTS 50 53 0 0 0
M  V30 BEGIN ATOM
M  V30 1 O 24.141000 9.225000 35.098000 0
M  V30 2 N 26.100000 7.956000 33.473000 0 CHG=1
M  V30 3 N 16.057000 6.617000 37.911000 0
M  V30 4 N 15.746000 7.926000 37.944000 0
M  V30 5 N 22.680000 11.803000 37.286000 0
M  V30 6 C 18.043000 5.091000 37.571000 0
M  V30 7 C 23.760000 8.266000 34.106000 0
M  V30 8 C 23.535000 11.084000 36.497000 0
M  V30 9 C 21.410000 11.354000 37.515000 0
M  V30 10 C 21.951000 4.095000 36.842000 0
M  V30 11 C 22.225000 5.383000 37.359000 0
M  V30 12 C 22.753000 3.566000 35.803000 0
M  V30 13 C 23.298000 6.140000 36.835000 0
M  V30 14 C 23.829000 4.324000 35.274000 0
M  V30 15 C 17.097000 10.098000 37.655000 0
M  V30 16 C 18.425000 10.560000 37.404000 0
M  V30 17 C 21.822000 9.417000 36.139000 0
M  V30 18 C 25.262000 6.432000 35.218000 0
M  V30 19 C 19.228000 8.256000 37.303000 0
M  V30 20 C 23.160000 9.869000 35.887000 0
M  V30 21 C 24.913000 7.237000 33.929000 0 CFG=2
M  V30 22 C 17.363000 6.437000 37.675000 0
M  V30 23 C 16.843000 8.731000 37.728000 0
M  V30 24 C 24.112000 5.620000 35.784000 0
M  V30 25 C 20.922000 10.148000 36.958000 0
M  V30 26 C 19.514000 9.656000 37.222000 0
M  V30 27 C 17.932000 7.781000 37.548000 0
M  V30 28 H 26.854700 7.311000 33.352700 0
M  V30 29 H 25.903300 8.405200 32.601500 0
M  V30 30 H 14.823100 8.274900 38.106900 0
M  V30 31 H 19.017700 5.223000 37.390800 0
M  V30 32 H 17.927400 4.591900 38.429800 0
M  V30 33 H 17.633800 4.567700 36.823600 0
M  V30 34 H 23.589500 8.731400 33.237500 0
M  V30 35 H 22.929500 7.792200 34.399000 0
M  V30 36 H 24.460200 11.432700 36.347100 0
M  V30 37 H 20.804000 11.896700 38.096600 0
M  V30 38 H 21.191400 3.559000 37.210400 0
M  V30 39 H 21.660300 5.757700 38.094400 0
M  V30 40 H 22.560400 2.654200 35.440300 0
M  V30 41 H 23.488700 7.049400 37.204600 0
M  V30 42 H 24.391000 3.944700 34.538900 0
M  V30 43 H 16.352300 10.754000 37.777900 0
M  V30 44 H 18.596300 11.544000 37.354400 0
M  V30 45 H 21.513800 8.560500 35.724900 0
M  V30 46 H 25.561800 7.079300 35.918800 0
M  V30 47 H 26.010200 5.804900 35.001500 0
M  V30 48 H 19.972300 7.599300 37.181600 0
M  V30 49 H 24.646900 6.587700 33.216500 0
M  V30 50 H 26.354600 8.644000 34.152600 0
M  V30 END ATOM
M  V30 BEGIN BOND
M  V30 1 1 1 7
M  V30 2 1 1 20
M  V30 3 1 2 21
M  V30 4 1 3 4
M  V30 5 2 3 22
M  V30 6 1 4 23
M  V30 7 2 5 8
M  V30 8 1 5 9
M  V30 9 1 6 22
M  V30 10 1 7 21
M  V30 11 1 8 20
M  V30 12 2 9 25
M  V30 13 2 10 11
M  V30 14 1 10 12
M  V30 15 1 11 13
M  V30 16 2 12 14
M  V30 17 2 13 24
M  V30 18 1 14 24
M  V30 19 1 15 16
M  V30 20 2 15 23
M  V30 21 2 16 26
M  V30 22 2 17 20
M  V30 23 1 17 25
M  V30 24 1 18 21
M  V30 25 1 18 24
M  V30 26 1 19 26
M  V30 27 2 19 27
M  V30 28 1 22 27
M  V30 29 1 23 27
M  V30 30 1 25 26
M  V30 31 1 2 28
M  V30 32 1 2 29
M  V30 33 1 4 30
M  V30 34 1 6 31
M  V30 35 1 6 32
M  V30 36 1 6 33
M  V30 37 1 7 34
M  V30 38 1 7 35
M  V30 39 1 8 36
M  V30 40 1 9 37
M  V30 41 1 10 38
M  V30 42 1 11 39
M  V30 43 1 12 40
M  V30 44 1 13 41
M  V30 45 1 14 42
M  V30 46 1 15 43
M  V30 47 1 16 44
M  V30 48 1 17 45
M  V30 49 1 18 46
M  V30 50 1 18 47
M  V30 51 1 19 48
M  V30 52 1 21 49 CFG=3
M  V30 53 1 2 50
M  V30 END BOND
M  V30 END CTAB
M  END
>  <Ligand_Instance>  (252) 
2UZT_SS3_A_1351

>  <Dataset>  (252) 
PDB

>  <PDB_ID>  (252) 
2UZT

>  <Chain>  (252) 
A

>  <Resi>  (252) 
1351

>  <Num_Resolved_Atoms>  (252) 
27

>  <Num_H_Atoms_ProtBoundConf>  (252) 
23

>  <Pocket>  (252) 
A

>  <Name>  (252) 
(2S)-1-{[5-(3-METHYL-1H-INDAZOL-5-YL)PYRIDIN-3-YL]OXY}-3-PHENYLPROPAN-2-AMINE

>  <Num_Not_Resolved_Atoms>  (252) 
0

>  <ATP_Site>  (252) 
True

>  <Peripheral>  (252) 
False

>  <Standardized_SMILES>  (252) 
[H]C1=NC([H])=C(C2=C([H])C([H])=C3C(=C2[H])C(C([H])([H])[H])=NN3[H])C([H])=C1OC([H])([H])[C@]([H])(C([H])([H])C1=C([H])C([H])=C([H])C([H])=C1[H])[N+]([H])([H])[H]

>  <2D_Mol_H>  (252) 
<rdkit.Chem.rdchem.Mol object at 0x77059d81fe60>

>  <MW>  (252) 
359.453

>  <HBA>  (252) 
3

>  <HBD>  (252) 
2

>  <LogP>  (252) 
3.16532

>  <NRB>  (252) 
8

>  <TPSA>  (252) 
78.44

>  <Num_Heavy_Atoms>  (252) 
27

>  <Ro5>  (252) 
[True, True, True, True, True, True]

>  <Ro5_Fulfilled>  (252) 
True

>  <Ro3>  (252) 
[False, True, True, False]

>  <Ro3_Fulfilled>  (252) 
False

>  <Fsp3>  (252) 
0.181818

>  <Fsp3_0.42>  (252) 
False

>  <Fsp3_0.45>  (252) 
False

>  <Stereogenic_Carbons>  (252) 
1

>  <C_Atoms>  (252) 
22

>  <FCStereo>  (252) 
0.045455

>  <SPS>  (252) 
330

>  <nSPS>  (252) 
12.222222

>  <PBF>  (252) 
0.704519

>  <PBF_0.6>  (252) 
True

>  <nPBF>  (252) 
0.026093

>  <nPBF_0.016>  (252) 
True

>  <PMI1>  (252) 
2037.463048

>  <PMI2>  (252) 
4109.041558

>  <PMI3>  (252) 
5799.641757

>  <NPR1>  (252) 
0.351308

>  <NPR2>  (252) 
0.708499

>  <Sum_NPR>  (252) 
1.059808

>  <Sum_NPR_1.07>  (252) 
False

>  <Sum_NPR_1.2>  (252) 
False

>  <MaxAbsEStateIndex>  (252) 
5.954842

>  <MaxEStateIndex>  (252) 
5.954842

>  <MinAbsEStateIndex>  (252) 
0.181469

>  <MinEStateIndex>  (252) 
0.181469

>  <qed>  (252) 
0.554951

>  <MolWt>  (252) 
359.453

>  <HeavyAtomMolWt>  (252) 
336.269

>  <ExactMolWt>  (252) 
359.186638

>  <NumValenceElectrons>  (252) 
136

>  <NumRadicalElectrons>  (252) 
0

>  <MaxPartialCharge>  (252) 
0.140112

>  <MinPartialCharge>  (252) 
-0.485747

>  <MaxAbsPartialCharge>  (252) 
0.485747

>  <MinAbsPartialCharge>  (252) 
0.140112

>  <FpDensityMorgan1>  (252) 
1.037037

>  <FpDensityMorgan2>  (252) 
1.888889

>  <FpDensityMorgan3>  (252) 
2.740741

>  <BCUT2D_MWHI>  (252) 
16.478397

>  <BCUT2D_MWLOW>  (252) 
10.047579

>  <BCUT2D_CHGHI>  (252) 
2.09997

>  <BCUT2D_CHGLO>  (252) 
-2.114134

>  <BCUT2D_LOGPHI>  (252) 
2.265115

>  <BCUT2D_LOGPLOW>  (252) 
-2.641643

>  <BCUT2D_MRHI>  (252) 
5.859562

>  <BCUT2D_MRLOW>  (252) 
-0.422718

>  <AvgIpc>  (252) 
3.076927

>  <BalabanJ>  (252) 
1.458361

>  <BertzCT>  (252) 
1042.568588

>  <Chi0>  (252) 
18.639617

>  <Chi0n>  (252) 
15.352199

>  <Chi0v>  (252) 
15.352199

>  <Chi1>  (252) 
13.186673

>  <Chi1n>  (252) 
9.088127

>  <Chi1v>  (252) 
9.088127

>  <Chi2n>  (252) 
6.845451

>  <Chi2v>  (252) 
6.845451

>  <Chi3n>  (252) 
4.652812

>  <Chi3v>  (252) 
4.652812

>  <Chi4n>  (252) 
3.201012

>  <Chi4v>  (252) 
3.201012

>  <HallKierAlpha>  (252) 
-3.18

>  <Ipc>  (252) 
2486009.665688

>  <Kappa1>  (252) 
17.244694

>  <Kappa2>  (252) 
7.59595

>  <Kappa3>  (252) 
3.985379

>  <LabuteASA>  (252) 
157.75737

>  <PEOE_VSA1>  (252) 
10.47053

>  <PEOE_VSA10>  (252) 
18.398235

>  <PEOE_VSA11>  (252) 
0.0

>  <PEOE_VSA12>  (252) 
0.0

>  <PEOE_VSA13>  (252) 
0.0

>  <PEOE_VSA14>  (252) 
0.0

>  <PEOE_VSA2>  (252) 
10.08266

>  <PEOE_VSA3>  (252) 
0.0

>  <PEOE_VSA4>  (252) 
5.098682

>  <PEOE_VSA5>  (252) 
0.0

>  <PEOE_VSA6>  (252) 
36.398202

>  <PEOE_VSA7>  (252) 
36.249741

>  <PEOE_VSA8>  (252) 
23.567341

>  <PEOE_VSA9>  (252) 
17.407472

>  <SMR_VSA1>  (252) 
10.47053

>  <SMR_VSA10>  (252) 
10.902925

>  <SMR_VSA2>  (252) 
0.0

>  <SMR_VSA3>  (252) 
15.181342

>  <SMR_VSA4>  (252) 
0.0

>  <SMR_VSA5>  (252) 
19.3864

>  <SMR_VSA6>  (252) 
6.606882

>  <SMR_VSA7>  (252) 
78.24837

>  <SMR_VSA8>  (252) 
0.0

>  <SMR_VSA9>  (252) 
16.876415

>  <SlogP_VSA1>  (252) 
10.47053

>  <SlogP_VSA10>  (252) 
0.0

>  <SlogP_VSA11>  (252) 
5.749512

>  <SlogP_VSA12>  (252) 
0.0

>  <SlogP_VSA2>  (252) 
27.830065

>  <SlogP_VSA3>  (252) 
6.420822

>  <SlogP_VSA4>  (252) 
6.923737

>  <SlogP_VSA5>  (252) 
11.257379

>  <SlogP_VSA6>  (252) 
66.990991

>  <SlogP_VSA7>  (252) 
0.0

>  <SlogP_VSA8>  (252) 
22.029828

>  <SlogP_VSA9>  (252) 
0.0

>  <EState_VSA1>  (252) 
0.0

>  <EState_VSA10>  (252) 
0.0

>  <EState_VSA11>  (252) 
0.0

>  <EState_VSA2>  (252) 
6.041841

>  <EState_VSA3>  (252) 
6.606882

>  <EState_VSA4>  (252) 
39.894089

>  <EState_VSA5>  (252) 
5.563451

>  <EState_VSA6>  (252) 
6.196844

>  <EState_VSA7>  (252) 
31.319682

>  <EState_VSA8>  (252) 
57.313212

>  <EState_VSA9>  (252) 
4.736863

>  <VSA_EState1>  (252) 
5.954842

>  <VSA_EState10>  (252) 
0.0

>  <VSA_EState2>  (252) 
4.344251

>  <VSA_EState3>  (252) 
8.416848

>  <VSA_EState4>  (252) 
9.642836

>  <VSA_EState5>  (252) 
0.762245

>  <VSA_EState6>  (252) 
18.822158

>  <VSA_EState7>  (252) 
4.499852

>  <VSA_EState8>  (252) 
2.556968

>  <VSA_EState9>  (252) 
0.0

>  <FractionCSP3>  (252) 
0.181818

>  <HeavyAtomCount>  (252) 
27

>  <NHOHCount>  (252) 
4

>  <NOCount>  (252) 
5

>  <NumAliphaticCarbocycles>  (252) 
0

>  <NumAliphaticHeterocycles>  (252) 
0

>  <NumAliphaticRings>  (252) 
0

>  <NumAromaticCarbocycles>  (252) 
2

>  <NumAromaticHeterocycles>  (252) 
2

>  <NumAromaticRings>  (252) 
4

>  <NumHAcceptors>  (252) 
3

>  <NumHDonors>  (252) 
2

>  <NumHeteroatoms>  (252) 
5

>  <NumRotatableBonds>  (252) 
6

>  <NumSaturatedCarbocycles>  (252) 
0

>  <NumSaturatedHeterocycles>  (252) 
0

>  <NumSaturatedRings>  (252) 
0

>  <RingCount>  (252) 
4

>  <MolLogP>  (252) 
3.16532

>  <MolMR>  (252) 
106.3788

>  <fr_Al_COO>  (252) 
0

>  <fr_Al_OH>  (252) 
0

>  <fr_Al_OH_noTert>  (252) 
0

>  <fr_ArN>  (252) 
0

>  <fr_Ar_COO>  (252) 
0

>  <fr_Ar_N>  (252) 
3

>  <fr_Ar_NH>  (252) 
1

>  <fr_Ar_OH>  (252) 
0

>  <fr_COO>  (252) 
0

>  <fr_COO2>  (252) 
0

>  <fr_C_O>  (252) 
0

>  <fr_C_O_noCOO>  (252) 
0

>  <fr_C_S>  (252) 
0

>  <fr_HOCCN>  (252) 
0

>  <fr_Imine>  (252) 
0

>  <fr_NH0>  (252) 
2

>  <fr_NH1>  (252) 
1

>  <fr_NH2>  (252) 
0

>  <fr_N_O>  (252) 
0

>  <fr_Ndealkylation1>  (252) 
0

>  <fr_Ndealkylation2>  (252) 
0

>  <fr_Nhpyrrole>  (252) 
1

>  <fr_SH>  (252) 
0

>  <fr_aldehyde>  (252) 
0

>  <fr_alkyl_carbamate>  (252) 
0

>  <fr_alkyl_halide>  (252) 
0

>  <fr_allylic_oxid>  (252) 
0

>  <fr_amide>  (252) 
0

>  <fr_amidine>  (252) 
0

>  <fr_aniline>  (252) 
0

>  <fr_aryl_methyl>  (252) 
1

>  <fr_azide>  (252) 
0

>  <fr_azo>  (252) 
0

>  <fr_barbitur>  (252) 
0

>  <fr_benzene>  (252) 
2

>  <fr_benzodiazepine>  (252) 
0

>  <fr_bicyclic>  (252) 
1

>  <fr_diazo>  (252) 
0

>  <fr_dihydropyridine>  (252) 
0

>  <fr_epoxide>  (252) 
0

>  <fr_ester>  (252) 
0

>  <fr_ether>  (252) 
1

>  <fr_furan>  (252) 
0

>  <fr_guanido>  (252) 
0

>  <fr_halogen>  (252) 
0

>  <fr_hdrzine>  (252) 
0

>  <fr_hdrzone>  (252) 
0

>  <fr_imidazole>  (252) 
0

>  <fr_imide>  (252) 
0

>  <fr_isocyan>  (252) 
0

>  <fr_isothiocyan>  (252) 
0

>  <fr_ketone>  (252) 
0

>  <fr_ketone_Topliss>  (252) 
0

>  <fr_lactam>  (252) 
0

>  <fr_lactone>  (252) 
0

>  <fr_methoxy>  (252) 
0

>  <fr_morpholine>  (252) 
0

>  <fr_nitrile>  (252) 
0

>  <fr_nitro>  (252) 
0

>  <fr_nitro_arom>  (252) 
0

>  <fr_nitro_arom_nonortho>  (252) 
0

>  <fr_nitroso>  (252) 
0

>  <fr_oxazole>  (252) 
0

>  <fr_oxime>  (252) 
0

>  <fr_para_hydroxylation>  (252) 
0

>  <fr_phenol>  (252) 
0

>  <fr_phenol_noOrthoHbond>  (252) 
0

>  <fr_phos_acid>  (252) 
0

>  <fr_phos_ester>  (252) 
0

>  <fr_piperdine>  (252) 
0

>  <fr_piperzine>  (252) 
0

>  <fr_priamide>  (252) 
0

>  <fr_prisulfonamd>  (252) 
0

>  <fr_pyridine>  (252) 
1

>  <fr_quatN>  (252) 
1

>  <fr_sulfide>  (252) 
0

>  <fr_sulfonamd>  (252) 
0

>  <fr_sulfone>  (252) 
0

>  <fr_term_acetylene>  (252) 
0

>  <fr_tetrazole>  (252) 
0

>  <fr_thiazole>  (252) 
0

>  <fr_thiocyan>  (252) 
0

>  <fr_thiophene>  (252) 
0

>  <fr_unbrch_alkane>  (252) 
0

>  <fr_urea>  (252) 
0

>  <NP_Likeness>  (252) 
-0.962362

$$$$
SS4
     RDKit          3D

  0  0  0  0  0  0  0  0  0  0999 V3000
M  V30 BEGIN CTAB
M  V30 COUNTS 50 53 0 0 0
M  V30 BEGIN ATOM
M  V30 1 Br 13.421000 13.766000 -0.258000 0
M  V30 2 O 11.536000 8.270000 1.302000 0
M  V30 3 N 13.630000 6.916000 2.145000 0 CHG=1
M  V30 4 N 3.564000 10.139000 4.622000 0
M  V30 5 N 3.135000 10.064000 3.351000 0
M  V30 6 N 9.554000 10.053000 -1.137000 0
M  V30 7 C 5.699000 10.128000 5.957000 0
M  V30 8 C 11.564000 8.164000 2.713000 0
M  V30 9 C 10.556000 9.438000 -0.508000 0
M  V30 10 C 8.356000 10.130000 -0.540000 0
M  V30 11 C 13.245000 12.449000 2.251000 0
M  V30 12 C 14.064000 11.093000 0.439000 0
M  V30 13 C 4.311000 9.823000 1.109000 0
M  V30 14 C 13.355000 11.361000 3.107000 0
M  V30 15 C 14.176000 10.012000 1.302000 0
M  V30 16 C 5.587000 9.707000 0.548000 0
M  V30 17 C 13.880000 8.945000 3.574000 0
M  V30 18 C 9.151000 8.954000 1.356000 0
M  V30 19 C 6.582000 9.818000 2.717000 0
M  V30 20 C 13.592000 12.309000 0.913000 0
M  V30 21 C 10.405000 8.871000 0.747000 0
M  V30 22 C 12.986000 7.756000 3.153000 0 CFG=2
M  V30 23 C 4.894000 10.069000 4.680000 0
M  V30 24 C 4.178000 9.935000 2.461000 0
M  V30 25 C 13.808000 10.129000 2.639000 0
M  V30 26 C 8.099000 9.591000 0.713000 0
M  V30 27 C 6.739000 9.703000 1.336000 0
M  V30 28 C 5.342000 9.934000 3.295000 0
M  V30 29 H 14.547500 6.667100 2.455300 0
M  V30 30 H 13.088500 6.086800 2.006700 0
M  V30 31 H 2.172200 10.097800 3.082900 0
M  V30 32 H 6.672700 10.055600 5.740900 0
M  V30 33 H 5.524200 10.996200 6.421400 0
M  V30 34 H 5.432900 9.371200 6.554000 0
M  V30 35 H 10.908000 7.470500 3.011000 0
M  V30 36 H 11.325800 9.045300 3.121000 0
M  V30 37 H 11.447500 9.384200 -0.957800 0
M  V30 38 H 7.613300 10.597300 -1.019600 0
M  V30 39 H 12.917700 13.328700 2.595900 0
M  V30 40 H 14.322800 10.996000 -0.522100 0
M  V30 41 H 3.501400 9.823800 0.522000 0
M  V30 42 H 13.106300 11.462800 4.070200 0
M  V30 43 H 14.524900 9.139700 0.959500 0
M  V30 44 H 5.676300 9.624700 -0.444600 0
M  V30 45 H 14.828100 8.628800 3.608500 0
M  V30 46 H 13.595500 9.245500 4.484400 0
M  V30 47 H 9.010300 8.552000 2.260800 0
M  V30 48 H 7.393500 9.815900 3.301300 0
M  V30 49 H 12.875800 7.184900 3.966500 0
M  V30 50 H 13.694600 7.419500 1.283400 0
M  V30 END ATOM
M  V30 BEGIN BOND
M  V30 1 1 1 20
M  V30 2 1 2 8
M  V30 3 1 2 21
M  V30 4 1 3 22
M  V30 5 1 4 5
M  V30 6 2 4 23
M  V30 7 1 5 24
M  V30 8 2 6 9
M  V30 9 1 6 10
M  V30 10 1 7 23
M  V30 11 1 8 22
M  V30 12 1 9 21
M  V30 13 2 10 26
M  V30 14 2 11 14
M  V30 15 1 11 20
M  V30 16 1 12 15
M  V30 17 2 12 20
M  V30 18 1 13 16
M  V30 19 2 13 24
M  V30 20 1 14 25
M  V30 21 2 15 25
M  V30 22 2 16 27
M  V30 23 1 17 22
M  V30 24 1 17 25
M  V30 25 2 18 21
M  V30 26 1 18 26
M  V30 27 1 19 27
M  V30 28 2 19 28
M  V30 29 1 23 28
M  V30 30 1 24 28
M  V30 31 1 26 27
M  V30 32 1 3 29
M  V30 33 1 3 30
M  V30 34 1 5 31
M  V30 35 1 7 32
M  V30 36 1 7 33
M  V30 37 1 7 34
M  V30 38 1 8 35
M  V30 39 1 8 36
M  V30 40 1 9 37
M  V30 41 1 10 38
M  V30 42 1 11 39
M  V30 43 1 12 40
M  V30 44 1 13 41
M  V30 45 1 14 42
M  V30 46 1 15 43
M  V30 47 1 16 44
M  V30 48 1 17 45
M  V30 49 1 17 46
M  V30 50 1 18 47
M  V30 51 1 19 48
M  V30 52 1 22 49 CFG=1
M  V30 53 1 3 50
M  V30 END BOND
M  V30 END CTAB
M  END
>  <Ligand_Instance>  (253) 
2UZW_SS4_E_1351

>  <Dataset>  (253) 
PDB

>  <PDB_ID>  (253) 
2UZW

>  <Chain>  (253) 
E

>  <Resi>  (253) 
1351

>  <Num_Resolved_Atoms>  (253) 
28

>  <Num_H_Atoms_ProtBoundConf>  (253) 
22

>  <Pocket>  (253) 
A

>  <Name>  (253) 
3-PYRIDIN-4-YL-2,4-DIHYDRO-INDENO[1,2-.C.] PYRAZOLE

>  <Num_Not_Resolved_Atoms>  (253) 
0

>  <ATP_Site>  (253) 
True

>  <Peripheral>  (253) 
False

>  <Standardized_SMILES>  (253) 
[H]C1=NC([H])=C(C2=C([H])C([H])=C3C(=C2[H])C(C([H])([H])[H])=NN3[H])C([H])=C1OC([H])([H])[C@]([H])(C([H])([H])C1=C([H])C([H])=C(Br)C([H])=C1[H])[N+]([H])([H])[H]

>  <2D_Mol_H>  (253) 
<rdkit.Chem.rdchem.Mol object at 0x77059d81ff40>

>  <MW>  (253) 
438.349

>  <HBA>  (253) 
3

>  <HBD>  (253) 
2

>  <LogP>  (253) 
3.92782

>  <NRB>  (253) 
8

>  <TPSA>  (253) 
78.44

>  <Num_Heavy_Atoms>  (253) 
28

>  <Ro5>  (253) 
[True, True, True, True, True, True]

>  <Ro5_Fulfilled>  (253) 
True

>  <Ro3>  (253) 
[False, True, True, False]

>  <Ro3_Fulfilled>  (253) 
False

>  <Fsp3>  (253) 
0.181818

>  <Fsp3_0.42>  (253) 
False

>  <Fsp3_0.45>  (253) 
False

>  <Stereogenic_Carbons>  (253) 
1

>  <C_Atoms>  (253) 
22

>  <FCStereo>  (253) 
0.045455

>  <SPS>  (253) 
343

>  <nSPS>  (253) 
12.25

>  <PBF>  (253) 
1.129945

>  <PBF_0.6>  (253) 
True

>  <nPBF>  (253) 
0.040355

>  <nPBF_0.016>  (253) 
True

>  <PMI1>  (253) 
2502.830443

>  <PMI2>  (253) 
7577.492015

>  <PMI3>  (253) 
8405.183333

>  <NPR1>  (253) 
0.297772

>  <NPR2>  (253) 
0.901526

>  <Sum_NPR>  (253) 
1.199298

>  <Sum_NPR_1.07>  (253) 
True

>  <Sum_NPR_1.2>  (253) 
False

>  <MaxAbsEStateIndex>  (253) 
5.96931

>  <MaxEStateIndex>  (253) 
5.96931

>  <MinAbsEStateIndex>  (253) 
0.161816

>  <MinEStateIndex>  (253) 
0.161816

>  <qed>  (253) 
0.479027

>  <MolWt>  (253) 
438.349

>  <HeavyAtomMolWt>  (253) 
416.173

>  <ExactMolWt>  (253) 
437.09715

>  <NumValenceElectrons>  (253) 
142

>  <NumRadicalElectrons>  (253) 
0

>  <MaxPartialCharge>  (253) 
0.140112

>  <MinPartialCharge>  (253) 
-0.485747

>  <MaxAbsPartialCharge>  (253) 
0.485747

>  <MinAbsPartialCharge>  (253) 
0.140112

>  <FpDensityMorgan1>  (253) 
1.071429

>  <FpDensityMorgan2>  (253) 
1.892857

>  <FpDensityMorgan3>  (253) 
2.714286

>  <BCUT2D_MWHI>  (253) 
79.918731

>  <BCUT2D_MWLOW>  (253) 
10.04757

>  <BCUT2D_CHGHI>  (253) 
2.103203

>  <BCUT2D_CHGLO>  (253) 
-2.115822

>  <BCUT2D_LOGPHI>  (253) 
2.265815

>  <BCUT2D_LOGPLOW>  (253) 
-2.641659

>  <BCUT2D_MRHI>  (253) 
9.102997

>  <BCUT2D_MRLOW>  (253) 
-0.422719

>  <AvgIpc>  (253) 
3.086531

>  <BalabanJ>  (253) 
1.439279

>  <BertzCT>  (253) 
1091.351078

>  <Chi0>  (253) 
19.509861

>  <Chi0n>  (253) 
15.652813

>  <Chi0v>  (253) 
17.23881

>  <Chi1>  (253) 
13.58052

>  <Chi1n>  (253) 
9.187793

>  <Chi1v>  (253) 
9.980791

>  <Chi2n>  (253) 
6.986318

>  <Chi2v>  (253) 
7.901994

>  <Chi3n>  (253) 
4.723244

>  <Chi3v>  (253) 
5.25191

>  <Chi4n>  (253) 
3.207408

>  <Chi4v>  (253) 
3.471741

>  <HallKierAlpha>  (253) 
-2.7

>  <Ipc>  (253) 
3547090.371751

>  <Kappa1>  (253) 
18.653494

>  <Kappa2>  (253) 
8.122842

>  <Kappa3>  (253) 
4.236062

>  <LabuteASA>  (253) 
171.624918

>  <PEOE_VSA1>  (253) 
10.47053

>  <PEOE_VSA10>  (253) 
18.398235

>  <PEOE_VSA11>  (253) 
0.0

>  <PEOE_VSA12>  (253) 
0.0

>  <PEOE_VSA13>  (253) 
0.0

>  <PEOE_VSA14>  (253) 
0.0

>  <PEOE_VSA2>  (253) 
10.08266

>  <PEOE_VSA3>  (253) 
0.0

>  <PEOE_VSA4>  (253) 
5.098682

>  <PEOE_VSA5>  (253) 
0.0

>  <PEOE_VSA6>  (253) 
34.129045

>  <PEOE_VSA7>  (253) 
48.382476

>  <PEOE_VSA8>  (253) 
28.04006

>  <PEOE_VSA9>  (253) 
17.407472

>  <SMR_VSA1>  (253) 
10.47053

>  <SMR_VSA10>  (253) 
26.832869

>  <SMR_VSA2>  (253) 
0.0

>  <SMR_VSA3>  (253) 
15.181342

>  <SMR_VSA4>  (253) 
0.0

>  <SMR_VSA5>  (253) 
19.3864

>  <SMR_VSA6>  (253) 
6.606882

>  <SMR_VSA7>  (253) 
76.654723

>  <SMR_VSA8>  (253) 
0.0

>  <SMR_VSA9>  (253) 
16.876415

>  <SlogP_VSA1>  (253) 
10.47053

>  <SlogP_VSA10>  (253) 
0.0

>  <SlogP_VSA11>  (253) 
5.749512

>  <SlogP_VSA12>  (253) 
15.929944

>  <SlogP_VSA2>  (253) 
27.830065

>  <SlogP_VSA3>  (253) 
6.420822

>  <SlogP_VSA4>  (253) 
6.923737

>  <SlogP_VSA5>  (253) 
11.257379

>  <SlogP_VSA6>  (253) 
65.397343

>  <SlogP_VSA7>  (253) 
0.0

>  <SlogP_VSA8>  (253) 
22.029828

>  <SlogP_VSA9>  (253) 
0.0

>  <EState_VSA1>  (253) 
0.0

>  <EState_VSA10>  (253) 
0.0

>  <EState_VSA11>  (253) 
0.0

>  <EState_VSA2>  (253) 
6.041841

>  <EState_VSA3>  (253) 
6.606882

>  <EState_VSA4>  (253) 
44.366809

>  <EState_VSA5>  (253) 
5.563451

>  <EState_VSA6>  (253) 
6.196844

>  <EState_VSA7>  (253) 
25.253315

>  <EState_VSA8>  (253) 
73.243156

>  <EState_VSA9>  (253) 
4.736863

>  <VSA_EState1>  (253) 
7.052461

>  <VSA_EState10>  (253) 
3.461308

>  <VSA_EState2>  (253) 
4.348742

>  <VSA_EState3>  (253) 
8.416339

>  <VSA_EState4>  (253) 
9.61668

>  <VSA_EState5>  (253) 
0.755527

>  <VSA_EState6>  (253) 
16.749189

>  <VSA_EState7>  (253) 
4.473475

>  <VSA_EState8>  (253) 
2.542946

>  <VSA_EState9>  (253) 
0.0

>  <FractionCSP3>  (253) 
0.181818

>  <HeavyAtomCount>  (253) 
28

>  <NHOHCount>  (253) 
4

>  <NOCount>  (253) 
5

>  <NumAliphaticCarbocycles>  (253) 
0

>  <NumAliphaticHeterocycles>  (253) 
0

>  <NumAliphaticRings>  (253) 
0

>  <NumAromaticCarbocycles>  (253) 
2

>  <NumAromaticHeterocycles>  (253) 
2

>  <NumAromaticRings>  (253) 
4

>  <NumHAcceptors>  (253) 
3

>  <NumHDonors>  (253) 
2

>  <NumHeteroatoms>  (253) 
6

>  <NumRotatableBonds>  (253) 
6

>  <NumSaturatedCarbocycles>  (253) 
0

>  <NumSaturatedHeterocycles>  (253) 
0

>  <NumSaturatedRings>  (253) 
0

>  <RingCount>  (253) 
4

>  <MolLogP>  (253) 
3.92782

>  <MolMR>  (253) 
114.0788

>  <fr_Al_COO>  (253) 
0

>  <fr_Al_OH>  (253) 
0

>  <fr_Al_OH_noTert>  (253) 
0

>  <fr_ArN>  (253) 
0

>  <fr_Ar_COO>  (253) 
0

>  <fr_Ar_N>  (253) 
3

>  <fr_Ar_NH>  (253) 
1

>  <fr_Ar_OH>  (253) 
0

>  <fr_COO>  (253) 
0

>  <fr_COO2>  (253) 
0

>  <fr_C_O>  (253) 
0

>  <fr_C_O_noCOO>  (253) 
0

>  <fr_C_S>  (253) 
0

>  <fr_HOCCN>  (253) 
0

>  <fr_Imine>  (253) 
0

>  <fr_NH0>  (253) 
2

>  <fr_NH1>  (253) 
1

>  <fr_NH2>  (253) 
0

>  <fr_N_O>  (253) 
0

>  <fr_Ndealkylation1>  (253) 
0

>  <fr_Ndealkylation2>  (253) 
0

>  <fr_Nhpyrrole>  (253) 
1

>  <fr_SH>  (253) 
0

>  <fr_aldehyde>  (253) 
0

>  <fr_alkyl_carbamate>  (253) 
0

>  <fr_alkyl_halide>  (253) 
0

>  <fr_allylic_oxid>  (253) 
0

>  <fr_amide>  (253) 
0

>  <fr_amidine>  (253) 
0

>  <fr_aniline>  (253) 
0

>  <fr_aryl_methyl>  (253) 
1

>  <fr_azide>  (253) 
0

>  <fr_azo>  (253) 
0

>  <fr_barbitur>  (253) 
0

>  <fr_benzene>  (253) 
2

>  <fr_benzodiazepine>  (253) 
0

>  <fr_bicyclic>  (253) 
1

>  <fr_diazo>  (253) 
0

>  <fr_dihydropyridine>  (253) 
0

>  <fr_epoxide>  (253) 
0

>  <fr_ester>  (253) 
0

>  <fr_ether>  (253) 
1

>  <fr_furan>  (253) 
0

>  <fr_guanido>  (253) 
0

>  <fr_halogen>  (253) 
1

>  <fr_hdrzine>  (253) 
0

>  <fr_hdrzone>  (253) 
0

>  <fr_imidazole>  (253) 
0

>  <fr_imide>  (253) 
0

>  <fr_isocyan>  (253) 
0

>  <fr_isothiocyan>  (253) 
0

>  <fr_ketone>  (253) 
0

>  <fr_ketone_Topliss>  (253) 
0

>  <fr_lactam>  (253) 
0

>  <fr_lactone>  (253) 
0

>  <fr_methoxy>  (253) 
0

>  <fr_morpholine>  (253) 
0

>  <fr_nitrile>  (253) 
0

>  <fr_nitro>  (253) 
0

>  <fr_nitro_arom>  (253) 
0

>  <fr_nitro_arom_nonortho>  (253) 
0

>  <fr_nitroso>  (253) 
0

>  <fr_oxazole>  (253) 
0

>  <fr_oxime>  (253) 
0

>  <fr_para_hydroxylation>  (253) 
0

>  <fr_phenol>  (253) 
0

>  <fr_phenol_noOrthoHbond>  (253) 
0

>  <fr_phos_acid>  (253) 
0

>  <fr_phos_ester>  (253) 
0

>  <fr_piperdine>  (253) 
0

>  <fr_piperzine>  (253) 
0

>  <fr_priamide>  (253) 
0

>  <fr_prisulfonamd>  (253) 
0

>  <fr_pyridine>  (253) 
1

>  <fr_quatN>  (253) 
1

>  <fr_sulfide>  (253) 
0

>  <fr_sulfonamd>  (253) 
0

>  <fr_sulfone>  (253) 
0

>  <fr_term_acetylene>  (253) 
0

>  <fr_tetrazole>  (253) 
0

>  <fr_thiazole>  (253) 
0

>  <fr_thiocyan>  (253) 
0

>  <fr_thiophene>  (253) 
0

>  <fr_unbrch_alkane>  (253) 
0

>  <fr_urea>  (253) 
0

>  <NP_Likeness>  (253) 
-1.019966

$$$$
SS5
     RDKit          3D

  0  0  0  0  0  0  0  0  0  0999 V3000
M  V30 BEGIN CTAB
M  V30 COUNTS 70 74 0 0 0
M  V30 BEGIN ATOM
M  V30 1 O 11.113000 9.008000 1.685000 0
M  V30 2 O 18.453000 10.033000 4.122000 0
M  V30 3 N 12.866000 7.207000 3.013000 0 CHG=1
M  V30 4 N 2.714000 10.097000 3.883000 0
M  V30 5 N 2.436000 9.855000 2.594000 0
M  V30 6 N 9.292000 10.016000 -1.429000 0
M  V30 7 C 4.656000 10.484000 5.431000 0
M  V30 8 C 12.382000 8.665000 1.151000 0
M  V30 9 C 19.557000 10.017000 5.016000 0
M  V30 10 C 10.314000 9.683000 -0.615000 0
M  V30 11 C 8.017000 10.052000 -0.943000 0
M  V30 12 C 21.270000 14.056000 4.216000 0
M  V30 13 C 22.231000 12.884000 4.541000 0
M  V30 14 C 19.931000 13.955000 4.980000 0
M  V30 15 C 17.164000 6.412000 4.171000 0
M  V30 16 C 17.986000 7.536000 4.502000 0
M  V30 17 C 21.549000 11.504000 4.363000 0
M  V30 18 C 19.274000 12.569000 4.804000 0
M  V30 19 C 16.099000 6.557000 3.256000 0
M  V30 20 C 3.835000 9.569000 0.486000 0
M  V30 21 C 5.179000 9.566000 0.036000 0
M  V30 22 C 16.661000 8.928000 3.000000 0
M  V30 23 C 8.786000 9.410000 1.243000 0
M  V30 24 C 14.730000 8.047000 1.670000 0
M  V30 25 C 5.964000 10.014000 2.313000 0
M  V30 26 C 10.109000 9.361000 0.767000 0
M  V30 27 C 17.732000 8.824000 3.905000 0
M  V30 28 C 13.367000 8.361000 2.277000 0 CFG=2
M  V30 29 C 4.027000 10.212000 4.083000 0
M  V30 30 C 3.559000 9.788000 1.827000 0
M  V30 31 C 20.237000 11.400000 5.182000 0
M  V30 32 C 15.839000 7.821000 2.662000 0
M  V30 33 C 7.700000 9.755000 0.406000 0
M  V30 34 C 6.275000 9.785000 0.921000 0
M  V30 35 C 4.640000 10.018000 2.773000 0
M  V30 36 H 13.495900 6.987700 3.758000 0
M  V30 37 H 11.964200 7.418100 3.390200 0
M  V30 38 H 1.509500 9.737100 2.236600 0
M  V30 39 H 5.650100 10.527700 5.332200 0
M  V30 40 H 4.317800 11.355100 5.787000 0
M  V30 41 H 4.416000 9.749000 6.065200 0
M  V30 42 H 12.728500 9.429400 0.607200 0
M  V30 43 H 12.287400 7.857500 0.568700 0
M  V30 44 H 20.235900 9.369900 4.669200 0
M  V30 45 H 19.234200 9.713200 5.912400 0
M  V30 46 H 11.242300 9.659900 -0.986100 0
M  V30 47 H 7.274500 10.298600 -1.565800 0
M  V30 48 H 21.079800 14.051500 3.234300 0
M  V30 49 H 21.716900 14.915200 4.465000 0
M  V30 50 H 22.537900 12.972100 5.488600 0
M  V30 51 H 23.020100 12.935000 3.928900 0
M  V30 52 H 19.307000 14.655400 4.633600 0
M  V30 53 H 20.100800 14.111600 5.953000 0
M  V30 54 H 17.344600 5.521700 4.589000 0
M  V30 55 H 18.739800 7.427700 5.150100 0
M  V30 56 H 22.178800 10.789900 4.668700 0
M  V30 57 H 21.337600 11.369900 3.394800 0
M  V30 58 H 19.000100 12.462800 3.848100 0
M  V30 59 H 18.465100 12.520600 5.389900 0
M  V30 60 H 15.527200 5.769500 3.025800 0
M  V30 61 H 3.088700 9.413800 -0.161200 0
M  V30 62 H 5.364400 9.405100 -0.933400 0
M  V30 63 H 16.471200 9.814800 2.578700 0
M  V30 64 H 8.608200 9.194100 2.203100 0
M  V30 65 H 14.991300 8.813900 1.083900 0
M  V30 66 H 14.638100 7.219900 1.115500 0
M  V30 67 H 6.708400 10.172900 2.961600 0
M  V30 68 H 13.439700 9.149300 2.888000 0
M  V30 69 H 20.474900 11.505300 6.147600 0
M  V30 70 H 12.794100 6.423500 2.395700 0
M  V30 END ATOM
M  V30 BEGIN BOND
M  V30 1 1 1 8
M  V30 2 1 1 26
M  V30 3 1 2 9
M  V30 4 1 2 27
M  V30 5 1 3 28
M  V30 6 1 4 5
M  V30 7 2 4 29
M  V30 8 1 5 30
M  V30 9 2 6 10
M  V30 10 1 6 11
M  V30 11 1 7 29
M  V30 12 1 8 28
M  V30 13 1 9 31
M  V30 14 1 10 26
M  V30 15 2 11 33
M  V30 16 1 12 13
M  V30 17 1 12 14
M  V30 18 1 13 17
M  V30 19 1 14 18
M  V30 20 2 15 16
M  V30 21 1 15 19
M  V30 22 1 16 27
M  V30 23 1 17 31
M  V30 24 1 18 31
M  V30 25 2 19 32
M  V30 26 1 20 21
M  V30 27 2 20 30
M  V30 28 2 21 34
M  V30 29 2 22 27
M  V30 30 1 22 32
M  V30 31 2 23 26
M  V30 32 1 23 33
M  V30 33 1 24 28
M  V30 34 1 24 32
M  V30 35 1 25 34
M  V30 36 2 25 35
M  V30 37 1 29 35
M  V30 38 1 30 35
M  V30 39 1 33 34
M  V30 40 1 3 36
M  V30 41 1 3 37
M  V30 42 1 5 38
M  V30 43 1 7 39
M  V30 44 1 7 40
M  V30 45 1 7 41
M  V30 46 1 8 42
M  V30 47 1 8 43
M  V30 48 1 9 44
M  V30 49 1 9 45
M  V30 50 1 10 46
M  V30 51 1 11 47
M  V30 52 1 12 48
M  V30 53 1 12 49
M  V30 54 1 13 50
M  V30 55 1 13 51
M  V30 56 1 14 52
M  V30 57 1 14 53
M  V30 58 1 15 54
M  V30 59 1 16 55
M  V30 60 1 17 56
M  V30 61 1 17 57
M  V30 62 1 18 58
M  V30 63 1 18 59
M  V30 64 1 19 60
M  V30 65 1 20 61
M  V30 66 1 21 62
M  V30 67 1 22 63
M  V30 68 1 23 64
M  V30 69 1 24 65
M  V30 70 1 24 66
M  V30 71 1 25 67
M  V30 72 1 28 68 CFG=1
M  V30 73 1 31 69
M  V30 74 1 3 70
M  V30 END BOND
M  V30 END CTAB
M  END
>  <Ligand_Instance>  (254) 
2UZV_SS5_A_1351

>  <Dataset>  (254) 
PDB

>  <PDB_ID>  (254) 
2UZV

>  <Chain>  (254) 
A

>  <Resi>  (254) 
1351

>  <Num_Resolved_Atoms>  (254) 
35

>  <Num_H_Atoms_ProtBoundConf>  (254) 
35

>  <Pocket>  (254) 
A

>  <Name>  (254) 
(2S)-1-[3-(CYCLOHEXYLMETHOXY)PHENYL]-3-{[5-(3-METHYL-1H-INDAZOL-5-YL)PYRIDIN-3-YL]OXY}PROPAN-2-AMINE

>  <Num_Not_Resolved_Atoms>  (254) 
0

>  <ATP_Site>  (254) 
True

>  <Peripheral>  (254) 
False

>  <Standardized_SMILES>  (254) 
[H]C1=NC([H])=C(C2=C([H])C([H])=C3C(=C2[H])C(C([H])([H])[H])=NN3[H])C([H])=C1OC([H])([H])[C@]([H])(C([H])([H])C1=C([H])C([H])=C([H])C(OC([H])([H])C2([H])C([H])([H])C([H])([H])C([H])([H])C([H])([H])C2([H])[H])=C1[H])[N+]([H])([H])[H]

>  <2D_Mol_H>  (254) 
<rdkit.Chem.rdchem.Mol object at 0x77059d84c0b0>

>  <MW>  (254) 
471.625

>  <HBA>  (254) 
4

>  <HBD>  (254) 
2

>  <LogP>  (254) 
5.12442

>  <NRB>  (254) 
11

>  <TPSA>  (254) 
87.67

>  <Num_Heavy_Atoms>  (254) 
35

>  <Ro5>  (254) 
[True, True, True, False, False, True]

>  <Ro5_Fulfilled>  (254) 
False

>  <Ro3>  (254) 
[False, False, True, False]

>  <Ro3_Fulfilled>  (254) 
False

>  <Fsp3>  (254) 
0.37931

>  <Fsp3_0.42>  (254) 
False

>  <Fsp3_0.45>  (254) 
False

>  <Stereogenic_Carbons>  (254) 
1

>  <C_Atoms>  (254) 
29

>  <FCStereo>  (254) 
0.034483

>  <SPS>  (254) 
534

>  <nSPS>  (254) 
15.257143

>  <PBF>  (254) 
1.347036

>  <PBF_0.6>  (254) 
True

>  <nPBF>  (254) 
0.038487

>  <nPBF_0.016>  (254) 
True

>  <PMI1>  (254) 
2627.625473

>  <PMI2>  (254) 
20354.795436

>  <PMI3>  (254) 
20888.951833

>  <NPR1>  (254) 
0.12579

>  <NPR2>  (254) 
0.974429

>  <Sum_NPR>  (254) 
1.100219

>  <Sum_NPR_1.07>  (254) 
True

>  <Sum_NPR_1.2>  (254) 
False

>  <MaxAbsEStateIndex>  (254) 
6.115341

>  <MaxEStateIndex>  (254) 
6.115341

>  <MinAbsEStateIndex>  (254) 
0.12239

>  <MinEStateIndex>  (254) 
0.12239

>  <qed>  (254) 
0.354455

>  <MolWt>  (254) 
471.625

>  <HeavyAtomMolWt>  (254) 
436.345

>  <ExactMolWt>  (254) 
471.275453

>  <NumValenceElectrons>  (254) 
182

>  <NumRadicalElectrons>  (254) 
0

>  <MaxPartialCharge>  (254) 
0.140112

>  <MinPartialCharge>  (254) 
-0.493302

>  <MaxAbsPartialCharge>  (254) 
0.493302

>  <MinAbsPartialCharge>  (254) 
0.140112

>  <FpDensityMorgan1>  (254) 
0.971429

>  <FpDensityMorgan2>  (254) 
1.857143

>  <FpDensityMorgan3>  (254) 
2.742857

>  <BCUT2D_MWHI>  (254) 
16.480723

>  <BCUT2D_MWLOW>  (254) 
9.899229

>  <BCUT2D_CHGHI>  (254) 
2.147782

>  <BCUT2D_CHGLO>  (254) 
-2.214145

>  <BCUT2D_LOGPHI>  (254) 
2.273757

>  <BCUT2D_LOGPLOW>  (254) 
-2.641673

>  <BCUT2D_MRHI>  (254) 
5.859664

>  <BCUT2D_MRLOW>  (254) 
-0.422719

>  <AvgIpc>  (254) 
3.270752

>  <BalabanJ>  (254) 
1.15888

>  <BertzCT>  (254) 
1262.524118

>  <Chi0>  (254) 
24.036959

>  <Chi0n>  (254) 
20.503088

>  <Chi0v>  (254) 
20.503088

>  <Chi1>  (254) 
17.136163

>  <Chi1n>  (254) 
12.716355

>  <Chi1v>  (254) 
12.716355

>  <Chi2n>  (254) 
9.822297

>  <Chi2v>  (254) 
9.822297

>  <Chi3n>  (254) 
6.918881

>  <Chi3v>  (254) 
6.918881

>  <Chi4n>  (254) 
4.917047

>  <Chi4v>  (254) 
4.917047

>  <HallKierAlpha>  (254) 
-3.38

>  <Ipc>  (254) 
156028516.540848

>  <Kappa1>  (254) 
23.366002

>  <Kappa2>  (254) 
10.91093

>  <Kappa3>  (254) 
6.006349

>  <LabuteASA>  (254) 
206.419679

>  <PEOE_VSA1>  (254) 
15.207393

>  <PEOE_VSA10>  (254) 
24.147746

>  <PEOE_VSA11>  (254) 
0.0

>  <PEOE_VSA12>  (254) 
0.0

>  <PEOE_VSA13>  (254) 
0.0

>  <PEOE_VSA14>  (254) 
0.0

>  <PEOE_VSA2>  (254) 
10.08266

>  <PEOE_VSA3>  (254) 
0.0

>  <PEOE_VSA4>  (254) 
5.098682

>  <PEOE_VSA5>  (254) 
0.0

>  <PEOE_VSA6>  (254) 
37.461566

>  <PEOE_VSA7>  (254) 
67.142025

>  <PEOE_VSA8>  (254) 
23.567341

>  <PEOE_VSA9>  (254) 
24.014354

>  <SMR_VSA1>  (254) 
15.207393

>  <SMR_VSA10>  (254) 
10.902925

>  <SMR_VSA2>  (254) 
0.0

>  <SMR_VSA3>  (254) 
15.181342

>  <SMR_VSA4>  (254) 
5.917906

>  <SMR_VSA5>  (254) 
51.490508

>  <SMR_VSA6>  (254) 
13.213764

>  <SMR_VSA7>  (254) 
72.182003

>  <SMR_VSA8>  (254) 
0.0

>  <SMR_VSA9>  (254) 
22.625927

>  <SlogP_VSA1>  (254) 
15.207393

>  <SlogP_VSA10>  (254) 
0.0

>  <SlogP_VSA11>  (254) 
11.499024

>  <SlogP_VSA12>  (254) 
0.0

>  <SlogP_VSA2>  (254) 
34.436947

>  <SlogP_VSA3>  (254) 
6.420822

>  <SlogP_VSA4>  (254) 
12.841643

>  <SlogP_VSA5>  (254) 
43.361488

>  <SlogP_VSA6>  (254) 
60.924624

>  <SlogP_VSA7>  (254) 
0.0

>  <SlogP_VSA8>  (254) 
22.029828

>  <SlogP_VSA9>  (254) 
0.0

>  <EState_VSA1>  (254) 
0.0

>  <EState_VSA10>  (254) 
0.0

>  <EState_VSA11>  (254) 
0.0

>  <EState_VSA2>  (254) 
6.041841

>  <EState_VSA3>  (254) 
12.524788

>  <EState_VSA4>  (254) 
52.250483

>  <EState_VSA5>  (254) 
37.66756

>  <EState_VSA6>  (254) 
6.196844

>  <EState_VSA7>  (254) 
19.186948

>  <EState_VSA8>  (254) 
63.379579

>  <EState_VSA9>  (254) 
9.473726

>  <VSA_EState1>  (254) 
12.196014

>  <VSA_EState10>  (254) 
0.0

>  <VSA_EState2>  (254) 
4.39823

>  <VSA_EState3>  (254) 
8.460672

>  <VSA_EState4>  (254) 
9.69023

>  <VSA_EState5>  (254) 
2.420412

>  <VSA_EState6>  (254) 
16.853018

>  <VSA_EState7>  (254) 
11.117976

>  <VSA_EState8>  (254) 
3.363449

>  <VSA_EState9>  (254) 
0.0

>  <FractionCSP3>  (254) 
0.37931

>  <HeavyAtomCount>  (254) 
35

>  <NHOHCount>  (254) 
4

>  <NOCount>  (254) 
6

>  <NumAliphaticCarbocycles>  (254) 
1

>  <NumAliphaticHeterocycles>  (254) 
0

>  <NumAliphaticRings>  (254) 
1

>  <NumAromaticCarbocycles>  (254) 
2

>  <NumAromaticHeterocycles>  (254) 
2

>  <NumAromaticRings>  (254) 
4

>  <NumHAcceptors>  (254) 
4

>  <NumHDonors>  (254) 
2

>  <NumHeteroatoms>  (254) 
6

>  <NumRotatableBonds>  (254) 
9

>  <NumSaturatedCarbocycles>  (254) 
1

>  <NumSaturatedHeterocycles>  (254) 
0

>  <NumSaturatedRings>  (254) 
1

>  <RingCount>  (254) 
5

>  <MolLogP>  (254) 
5.12442

>  <MolMR>  (254) 
138.4488

>  <fr_Al_COO>  (254) 
0

>  <fr_Al_OH>  (254) 
0

>  <fr_Al_OH_noTert>  (254) 
0

>  <fr_ArN>  (254) 
0

>  <fr_Ar_COO>  (254) 
0

>  <fr_Ar_N>  (254) 
3

>  <fr_Ar_NH>  (254) 
1

>  <fr_Ar_OH>  (254) 
0

>  <fr_COO>  (254) 
0

>  <fr_COO2>  (254) 
0

>  <fr_C_O>  (254) 
0

>  <fr_C_O_noCOO>  (254) 
0

>  <fr_C_S>  (254) 
0

>  <fr_HOCCN>  (254) 
0

>  <fr_Imine>  (254) 
0

>  <fr_NH0>  (254) 
2

>  <fr_NH1>  (254) 
1

>  <fr_NH2>  (254) 
0

>  <fr_N_O>  (254) 
0

>  <fr_Ndealkylation1>  (254) 
0

>  <fr_Ndealkylation2>  (254) 
0

>  <fr_Nhpyrrole>  (254) 
1

>  <fr_SH>  (254) 
0

>  <fr_aldehyde>  (254) 
0

>  <fr_alkyl_carbamate>  (254) 
0

>  <fr_alkyl_halide>  (254) 
0

>  <fr_allylic_oxid>  (254) 
0

>  <fr_amide>  (254) 
0

>  <fr_amidine>  (254) 
0

>  <fr_aniline>  (254) 
0

>  <fr_aryl_methyl>  (254) 
1

>  <fr_azide>  (254) 
0

>  <fr_azo>  (254) 
0

>  <fr_barbitur>  (254) 
0

>  <fr_benzene>  (254) 
2

>  <fr_benzodiazepine>  (254) 
0

>  <fr_bicyclic>  (254) 
1

>  <fr_diazo>  (254) 
0

>  <fr_dihydropyridine>  (254) 
0

>  <fr_epoxide>  (254) 
0

>  <fr_ester>  (254) 
0

>  <fr_ether>  (254) 
2

>  <fr_furan>  (254) 
0

>  <fr_guanido>  (254) 
0

>  <fr_halogen>  (254) 
0

>  <fr_hdrzine>  (254) 
0

>  <fr_hdrzone>  (254) 
0

>  <fr_imidazole>  (254) 
0

>  <fr_imide>  (254) 
0

>  <fr_isocyan>  (254) 
0

>  <fr_isothiocyan>  (254) 
0

>  <fr_ketone>  (254) 
0

>  <fr_ketone_Topliss>  (254) 
0

>  <fr_lactam>  (254) 
0

>  <fr_lactone>  (254) 
0

>  <fr_methoxy>  (254) 
0

>  <fr_morpholine>  (254) 
0

>  <fr_nitrile>  (254) 
0

>  <fr_nitro>  (254) 
0

>  <fr_nitro_arom>  (254) 
0

>  <fr_nitro_arom_nonortho>  (254) 
0

>  <fr_nitroso>  (254) 
0

>  <fr_oxazole>  (254) 
0

>  <fr_oxime>  (254) 
0

>  <fr_para_hydroxylation>  (254) 
0

>  <fr_phenol>  (254) 
0

>  <fr_phenol_noOrthoHbond>  (254) 
0

>  <fr_phos_acid>  (254) 
0

>  <fr_phos_ester>  (254) 
0

>  <fr_piperdine>  (254) 
0

>  <fr_piperzine>  (254) 
0

>  <fr_priamide>  (254) 
0

>  <fr_prisulfonamd>  (254) 
0

>  <fr_pyridine>  (254) 
1

>  <fr_quatN>  (254) 
1

>  <fr_sulfide>  (254) 
0

>  <fr_sulfonamd>  (254) 
0

>  <fr_sulfone>  (254) 
0

>  <fr_term_acetylene>  (254) 
0

>  <fr_tetrazole>  (254) 
0

>  <fr_thiazole>  (254) 
0

>  <fr_thiocyan>  (254) 
0

>  <fr_thiophene>  (254) 
0

>  <fr_unbrch_alkane>  (254) 
0

>  <fr_urea>  (254) 
0

>  <NP_Likeness>  (254) 
-0.907711

$$$$
STU
     RDKit          3D

  0  0  0  0  0  0  0  0  0  0999 V3000
M  V30 BEGIN CTAB
M  V30 COUNTS 62 69 0 0 0
M  V30 BEGIN ATOM
M  V30 1 O 12.833000 -9.425000 -7.210000 0
M  V30 2 O 6.728000 -11.950000 -10.422000 0
M  V30 3 O 5.701000 -10.572000 -7.550000 0
M  V30 4 N 4.557000 -10.402000 -11.588000 0 CHG=1
M  V30 5 N 12.862000 -11.742000 -7.183000 0
M  V30 6 N 7.620000 -9.303000 -8.036000 0
M  V30 7 N 7.084000 -12.493000 -7.870000 0
M  V30 8 C 6.889000 -13.175000 -11.154000 0
M  V30 9 C 3.122000 -10.395000 -11.833000 0
M  V30 10 C 4.594000 -12.519000 -7.376000 0
M  V30 11 C 11.927000 -12.867000 -7.256000 0
M  V30 12 C 8.865000 -5.784000 -8.390000 0
M  V30 13 C 7.200000 -16.253000 -7.999000 0
M  V30 14 C 10.215000 -6.056000 -8.186000 0
M  V30 15 C 8.564000 -16.391000 -7.797000 0
M  V30 16 C 7.920000 -6.803000 -8.337000 0
M  V30 17 C 6.610000 -14.996000 -8.016000 0
M  V30 18 C 9.372000 -15.273000 -7.634000 0
M  V30 19 C 10.644000 -7.355000 -7.935000 0
M  V30 20 C 5.816000 -9.336000 -9.724000 0
M  V30 21 C 12.262000 -10.503000 -7.330000 0
M  V30 22 C 6.148000 -9.416000 -8.254000 0 CFG=1
M  V30 23 C 5.494000 -11.850000 -9.717000 0 CFG=2
M  V30 24 C 4.867000 -10.468000 -10.128000 0 CFG=2
M  V30 25 C 8.351000 -8.105000 -8.087000 0
M  V30 26 C 7.418000 -13.874000 -7.834000 0
M  V30 27 C 8.493000 -10.347000 -7.804000 0
M  V30 28 C 8.270000 -11.757000 -7.739000 0
M  V30 29 C 10.652000 -12.140000 -7.489000 0
M  V30 30 C 8.807000 -14.000000 -7.658000 0
M  V30 31 C 9.713000 -8.397000 -7.882000 0
M  V30 32 C 10.841000 -10.762000 -7.535000 0
M  V30 33 C 9.351000 -12.651000 -7.602000 0
M  V30 34 C 9.804000 -9.838000 -7.703000 0
M  V30 35 C 5.740000 -11.867000 -8.121000 0 CFG=1
M  V30 36 H 4.954600 -9.566100 -11.966400 0
M  V30 37 H 13.844900 -11.858300 -7.039900 0
M  V30 38 H 7.773900 -13.171200 -11.619700 0
M  V30 39 H 6.848300 -13.948800 -10.521900 0
M  V30 40 H 6.156900 -13.258000 -11.830100 0
M  V30 41 H 2.952100 -10.350400 -12.817500 0
M  V30 42 H 2.716500 -11.230500 -11.462300 0
M  V30 43 H 2.711700 -9.599300 -11.387500 0
M  V30 44 H 4.494600 -13.466300 -7.680400 0
M  V30 45 H 4.782400 -12.502400 -6.394100 0
M  V30 46 H 3.748200 -12.018800 -7.561600 0
M  V30 47 H 11.905800 -13.386200 -6.401600 0
M  V30 48 H 12.146200 -13.481300 -8.014000 0
M  V30 49 H 8.571800 -4.846300 -8.576600 0
M  V30 50 H 6.634800 -17.066900 -8.133900 0
M  V30 51 H 10.881600 -5.311400 -8.220200 0
M  V30 52 H 8.970500 -17.304200 -7.768300 0
M  V30 53 H 6.949600 -6.605500 -8.475600 0
M  V30 54 H 5.624800 -14.897300 -8.156000 0
M  V30 55 H 10.357000 -15.381700 -7.499700 0
M  V30 56 H 11.615800 -7.543300 -7.792800 0
M  V30 57 H 6.659900 -9.409900 -10.255400 0
M  V30 58 H 5.378200 -8.457300 -9.914100 0
M  V30 59 H 5.725000 -8.623500 -7.814500 0
M  V30 60 H 4.884400 -12.597700 -9.980300 0
M  V30 61 H 4.011800 -10.352000 -9.622900 0
M  V30 62 H 4.959400 -11.197400 -12.041200 0
M  V30 END ATOM
M  V30 BEGIN BOND
M  V30 1 2 1 21
M  V30 2 1 2 8
M  V30 3 1 2 23
M  V30 4 1 3 22
M  V30 5 1 3 35
M  V30 6 1 4 9
M  V30 7 1 4 24
M  V30 8 1 5 11
M  V30 9 1 5 21
M  V30 10 1 6 22
M  V30 11 1 6 25
M  V30 12 1 6 27
M  V30 13 1 7 26
M  V30 14 1 7 28
M  V30 15 1 35 7
M  V30 16 1 35 10 CFG=1
M  V30 17 1 11 29
M  V30 18 2 12 14
M  V30 19 1 12 16
M  V30 20 2 13 15
M  V30 21 1 13 17
M  V30 22 1 14 19
M  V30 23 1 15 18
M  V30 24 2 16 25
M  V30 25 2 17 26
M  V30 26 2 18 30
M  V30 27 2 19 31
M  V30 28 1 20 22
M  V30 29 1 20 24
M  V30 30 1 21 32
M  V30 31 1 23 24
M  V30 32 1 23 35
M  V30 33 1 25 31
M  V30 34 1 26 30
M  V30 35 2 27 28
M  V30 36 1 27 34
M  V30 37 1 28 33
M  V30 38 1 29 32
M  V30 39 2 29 33
M  V30 40 1 30 33
M  V30 41 1 31 34
M  V30 42 2 32 34
M  V30 43 1 4 36
M  V30 44 1 5 37
M  V30 45 1 8 38
M  V30 46 1 8 39
M  V30 47 1 8 40
M  V30 48 1 9 41
M  V30 49 1 9 42
M  V30 50 1 9 43
M  V30 51 1 10 44
M  V30 52 1 10 45
M  V30 53 1 10 46
M  V30 54 1 11 47
M  V30 55 1 11 48
M  V30 56 1 12 49
M  V30 57 1 13 50
M  V30 58 1 14 51
M  V30 59 1 15 52
M  V30 60 1 16 53
M  V30 61 1 17 54
M  V30 62 1 18 55
M  V30 63 1 19 56
M  V30 64 1 20 57
M  V30 65 1 20 58
M  V30 66 1 22 59 CFG=1
M  V30 67 1 23 60 CFG=1
M  V30 68 1 24 61 CFG=1
M  V30 69 1 4 62
M  V30 END BOND
M  V30 END CTAB
M  END
>  <Ligand_Instance>  (255) 
4C34_STU_A_1351

>  <Dataset>  (255) 
PDB

>  <PDB_ID>  (255) 
4C34

>  <Chain>  (255) 
A

>  <Resi>  (255) 
1351

>  <Num_Resolved_Atoms>  (255) 
35

>  <Num_H_Atoms_ProtBoundConf>  (255) 
27

>  <Pocket>  (255) 
A

>  <Name>  (255) 
STAUROSPORINE

>  <Num_Not_Resolved_Atoms>  (255) 
0

>  <ATP_Site>  (255) 
True

>  <Peripheral>  (255) 
False

>  <Standardized_SMILES>  (255) 
[H]C1=C([H])C([H])=C2C(=C1[H])C1=C3C4=C(C5=C([H])C([H])=C([H])C([H])=C5N4[C@@]4(C([H])([H])[H])O[C@@]([H])(N23)C([H])([H])[C@@]([H])([N+]([H])([H])C([H])([H])[H])[C@@]4([H])OC([H])([H])[H])C2=C1C(=O)N([H])C2([H])[H]

>  <2D_Mol_H>  (255) 
<rdkit.Chem.rdchem.Mol object at 0x77059d84c190>

>  <MW>  (255) 
467.549

>  <HBA>  (255) 
5

>  <HBD>  (255) 
2

>  <LogP>  (255) 
3.3278

>  <NRB>  (255) 
5

>  <TPSA>  (255) 
74.03

>  <Num_Heavy_Atoms>  (255) 
35

>  <Ro5>  (255) 
[True, True, True, True, True, True]

>  <Ro5_Fulfilled>  (255) 
True

>  <Ro3>  (255) 
[False, False, True, False]

>  <Ro3_Fulfilled>  (255) 
False

>  <Fsp3>  (255) 
0.321429

>  <Fsp3_0.42>  (255) 
False

>  <Fsp3_0.45>  (255) 
False

>  <Stereogenic_Carbons>  (255) 
4

>  <C_Atoms>  (255) 
28

>  <FCStereo>  (255) 
0.142857

>  <SPS>  (255) 
955

>  <nSPS>  (255) 
27.285714

>  <PBF>  (255) 
0.86103

>  <PBF_0.6>  (255) 
True

>  <nPBF>  (255) 
0.024601

>  <nPBF_0.016>  (255) 
True

>  <PMI1>  (255) 
3396.495149

>  <PMI2>  (255) 
3971.872729

>  <PMI3>  (255) 
6581.125207

>  <NPR1>  (255) 
0.516096

>  <NPR2>  (255) 
0.603525

>  <Sum_NPR>  (255) 
1.119621

>  <Sum_NPR_1.07>  (255) 
True

>  <Sum_NPR_1.2>  (255) 
False

>  <MaxAbsEStateIndex>  (255) 
13.327081

>  <MaxEStateIndex>  (255) 
13.327081

>  <MinAbsEStateIndex>  (255) 
0.00974

>  <MinEStateIndex>  (255) 
-0.728642

>  <qed>  (255) 
0.418357

>  <MolWt>  (255) 
467.549

>  <HeavyAtomMolWt>  (255) 
440.333

>  <ExactMolWt>  (255) 
467.207767

>  <NumValenceElectrons>  (255) 
176

>  <NumRadicalElectrons>  (255) 
0

>  <MaxPartialCharge>  (255) 
0.252133

>  <MinPartialCharge>  (255) 
-0.370162

>  <MaxAbsPartialCharge>  (255) 
0.370162

>  <MinAbsPartialCharge>  (255) 
0.252133

>  <FpDensityMorgan1>  (255) 
1.057143

>  <FpDensityMorgan2>  (255) 
1.771429

>  <FpDensityMorgan3>  (255) 
2.514286

>  <BCUT2D_MWHI>  (255) 
16.577317

>  <BCUT2D_MWLOW>  (255) 
9.926623

>  <BCUT2D_CHGHI>  (255) 
2.541862

>  <BCUT2D_CHGLO>  (255) 
-2.463188

>  <BCUT2D_LOGPHI>  (255) 
2.528041

>  <BCUT2D_LOGPLOW>  (255) 
-2.912364

>  <BCUT2D_MRHI>  (255) 
6.305056

>  <BCUT2D_MRLOW>  (255) 
-0.683015

>  <AvgIpc>  (255) 
3.508144

>  <BalabanJ>  (255) 
1.722908

>  <BertzCT>  (255) 
1748.012575

>  <Chi0>  (255) 
23.637099

>  <Chi0n>  (255) 
19.961589

>  <Chi0v>  (255) 
19.961589

>  <Chi1>  (255) 
17.079865

>  <Chi1n>  (255) 
12.37513

>  <Chi1v>  (255) 
12.37513

>  <Chi2n>  (255) 
10.239493

>  <Chi2v>  (255) 
10.239493

>  <Chi3n>  (255) 
8.695251

>  <Chi3v>  (255) 
8.695251

>  <Chi4n>  (255) 
7.425979

>  <Chi4v>  (255) 
7.425979

>  <HallKierAlpha>  (255) 
-3.39

>  <Ipc>  (255) 
283668581.964229

>  <Kappa1>  (255) 
19.867881

>  <Kappa2>  (255) 
6.428959

>  <Kappa3>  (255) 
2.124024

>  <LabuteASA>  (255) 
201.11659

>  <PEOE_VSA1>  (255) 
29.241502

>  <PEOE_VSA10>  (255) 
12.269742

>  <PEOE_VSA11>  (255) 
11.828952

>  <PEOE_VSA12>  (255) 
0.0

>  <PEOE_VSA13>  (255) 
5.90718

>  <PEOE_VSA14>  (255) 
0.0

>  <PEOE_VSA2>  (255) 
4.794537

>  <PEOE_VSA3>  (255) 
0.0

>  <PEOE_VSA4>  (255) 
0.0

>  <PEOE_VSA5>  (255) 
0.0

>  <PEOE_VSA6>  (255) 
36.398202

>  <PEOE_VSA7>  (255) 
24.619923

>  <PEOE_VSA8>  (255) 
41.620272

>  <PEOE_VSA9>  (255) 
34.677926

>  <SMR_VSA1>  (255) 
19.585052

>  <SMR_VSA10>  (255) 
49.518879

>  <SMR_VSA2>  (255) 
0.0

>  <SMR_VSA3>  (255) 
14.450988

>  <SMR_VSA4>  (255) 
0.0

>  <SMR_VSA5>  (255) 
43.988009

>  <SMR_VSA6>  (255) 
14.15747

>  <SMR_VSA7>  (255) 
59.65784

>  <SMR_VSA8>  (255) 
0.0

>  <SMR_VSA9>  (255) 
0.0

>  <SlogP_VSA1>  (255) 
10.633577

>  <SlogP_VSA10>  (255) 
0.0

>  <SlogP_VSA11>  (255) 
0.0

>  <SlogP_VSA12>  (255) 
0.0

>  <SlogP_VSA2>  (255) 
41.344656

>  <SlogP_VSA3>  (255) 
21.743468

>  <SlogP_VSA4>  (255) 
0.0

>  <SlogP_VSA5>  (255) 
35.4939

>  <SlogP_VSA6>  (255) 
48.530937

>  <SlogP_VSA7>  (255) 
0.0

>  <SlogP_VSA8>  (255) 
43.6117

>  <SlogP_VSA9>  (255) 
0.0

>  <EState_VSA1>  (255) 
5.724986

>  <EState_VSA10>  (255) 
4.794537

>  <EState_VSA11>  (255) 
0.0

>  <EState_VSA2>  (255) 
24.280888

>  <EState_VSA3>  (255) 
6.544756

>  <EState_VSA4>  (255) 
61.159424

>  <EState_VSA5>  (255) 
0.0

>  <EState_VSA6>  (255) 
7.109798

>  <EState_VSA7>  (255) 
0.0

>  <EState_VSA8>  (255) 
82.270122

>  <EState_VSA9>  (255) 
9.473726

>  <VSA_EState1>  (255) 
18.049047

>  <VSA_EState10>  (255) 
0.0

>  <VSA_EState2>  (255) 
13.327081

>  <VSA_EState3>  (255) 
9.827044

>  <VSA_EState4>  (255) 
5.61005

>  <VSA_EState5>  (255) 
0.00974

>  <VSA_EState6>  (255) 
17.158739

>  <VSA_EState7>  (255) 
0.479073

>  <VSA_EState8>  (255) 
2.709315

>  <VSA_EState9>  (255) 
3.913244

>  <FractionCSP3>  (255) 
0.321429

>  <HeavyAtomCount>  (255) 
35

>  <NHOHCount>  (255) 
3

>  <NOCount>  (255) 
7

>  <NumAliphaticCarbocycles>  (255) 
0

>  <NumAliphaticHeterocycles>  (255) 
3

>  <NumAliphaticRings>  (255) 
3

>  <NumAromaticCarbocycles>  (255) 
3

>  <NumAromaticHeterocycles>  (255) 
2

>  <NumAromaticRings>  (255) 
5

>  <NumHAcceptors>  (255) 
5

>  <NumHDonors>  (255) 
2

>  <NumHeteroatoms>  (255) 
7

>  <NumRotatableBonds>  (255) 
2

>  <NumSaturatedCarbocycles>  (255) 
0

>  <NumSaturatedHeterocycles>  (255) 
1

>  <NumSaturatedRings>  (255) 
1

>  <RingCount>  (255) 
8

>  <MolLogP>  (255) 
3.3278

>  <MolMR>  (255) 
134.4376

>  <fr_Al_COO>  (255) 
0

>  <fr_Al_OH>  (255) 
0

>  <fr_Al_OH_noTert>  (255) 
0

>  <fr_ArN>  (255) 
0

>  <fr_Ar_COO>  (255) 
0

>  <fr_Ar_N>  (255) 
2

>  <fr_Ar_NH>  (255) 
0

>  <fr_Ar_OH>  (255) 
0

>  <fr_COO>  (255) 
0

>  <fr_COO2>  (255) 
0

>  <fr_C_O>  (255) 
1

>  <fr_C_O_noCOO>  (255) 
1

>  <fr_C_S>  (255) 
0

>  <fr_HOCCN>  (255) 
0

>  <fr_Imine>  (255) 
0

>  <fr_NH0>  (255) 
2

>  <fr_NH1>  (255) 
1

>  <fr_NH2>  (255) 
1

>  <fr_N_O>  (255) 
0

>  <fr_Ndealkylation1>  (255) 
1

>  <fr_Ndealkylation2>  (255) 
0

>  <fr_Nhpyrrole>  (255) 
0

>  <fr_SH>  (255) 
0

>  <fr_aldehyde>  (255) 
0

>  <fr_alkyl_carbamate>  (255) 
0

>  <fr_alkyl_halide>  (255) 
0

>  <fr_allylic_oxid>  (255) 
0

>  <fr_amide>  (255) 
1

>  <fr_amidine>  (255) 
0

>  <fr_aniline>  (255) 
0

>  <fr_aryl_methyl>  (255) 
0

>  <fr_azide>  (255) 
0

>  <fr_azo>  (255) 
0

>  <fr_barbitur>  (255) 
0

>  <fr_benzene>  (255) 
3

>  <fr_benzodiazepine>  (255) 
0

>  <fr_bicyclic>  (255) 
13

>  <fr_diazo>  (255) 
0

>  <fr_dihydropyridine>  (255) 
0

>  <fr_epoxide>  (255) 
0

>  <fr_ester>  (255) 
0

>  <fr_ether>  (255) 
2

>  <fr_furan>  (255) 
0

>  <fr_guanido>  (255) 
0

>  <fr_halogen>  (255) 
0

>  <fr_hdrzine>  (255) 
0

>  <fr_hdrzone>  (255) 
0

>  <fr_imidazole>  (255) 
0

>  <fr_imide>  (255) 
0

>  <fr_isocyan>  (255) 
0

>  <fr_isothiocyan>  (255) 
0

>  <fr_ketone>  (255) 
0

>  <fr_ketone_Topliss>  (255) 
0

>  <fr_lactam>  (255) 
0

>  <fr_lactone>  (255) 
0

>  <fr_methoxy>  (255) 
1

>  <fr_morpholine>  (255) 
0

>  <fr_nitrile>  (255) 
0

>  <fr_nitro>  (255) 
0

>  <fr_nitro_arom>  (255) 
0

>  <fr_nitro_arom_nonortho>  (255) 
0

>  <fr_nitroso>  (255) 
0

>  <fr_oxazole>  (255) 
0

>  <fr_oxime>  (255) 
0

>  <fr_para_hydroxylation>  (255) 
2

>  <fr_phenol>  (255) 
0

>  <fr_phenol_noOrthoHbond>  (255) 
0

>  <fr_phos_acid>  (255) 
0

>  <fr_phos_ester>  (255) 
0

>  <fr_piperdine>  (255) 
0

>  <fr_piperzine>  (255) 
0

>  <fr_priamide>  (255) 
0

>  <fr_prisulfonamd>  (255) 
0

>  <fr_pyridine>  (255) 
0

>  <fr_quatN>  (255) 
1

>  <fr_sulfide>  (255) 
0

>  <fr_sulfonamd>  (255) 
0

>  <fr_sulfone>  (255) 
0

>  <fr_term_acetylene>  (255) 
0

>  <fr_tetrazole>  (255) 
0

>  <fr_thiazole>  (255) 
0

>  <fr_thiocyan>  (255) 
0

>  <fr_thiophene>  (255) 
0

>  <fr_unbrch_alkane>  (255) 
0

>  <fr_urea>  (255) 
0

>  <NP_Likeness>  (255) 
1.062346

$$$$
T7W
     RDKit          3D

  0  0  0  0  0  0  0  0  0  0999 V3000
M  V30 BEGIN CTAB
M  V30 COUNTS 52 55 0 0 0
M  V30 BEGIN ATOM
M  V30 1 O 11.804000 -20.490000 -35.488000 0
M  V30 2 O 11.136000 -18.645000 -34.447000 0 CHG=-1
M  V30 3 O 13.284000 -23.712000 -32.429000 0
M  V30 4 O 14.489000 -22.607000 -28.407000 0
M  V30 5 N 15.293000 -22.753000 -27.251000 0
M  V30 6 N 17.413000 -25.893000 -23.862000 0
M  V30 7 N 10.069000 -21.770000 -27.998000 0 CHG=1
M  V30 8 N 9.923000 -23.953000 -27.626000 0
M  V30 9 N 14.425000 -24.742000 -27.863000 0
M  V30 10 N 12.658000 -22.806000 -30.486000 0
M  V30 11 C 14.352000 -21.674000 -34.324000 0
M  V30 12 C 14.861000 -20.447000 -32.205000 0
M  V30 13 C 9.430000 -22.753000 -27.341000 0
M  V30 14 C 16.710000 -26.609000 -24.745000 0
M  V30 15 C 17.383000 -24.564000 -23.996000 0
M  V30 16 C 12.040000 -21.739000 -29.700000 0
M  V30 17 C 15.980000 -26.049000 -25.773000 0
M  V30 18 C 16.689000 -23.913000 -24.996000 0
M  V30 19 C 11.768000 -24.725000 -29.230000 0
M  V30 20 C 13.262000 -19.457000 -33.876000 0
M  V30 21 C 12.571000 -21.439000 -32.537000 0
M  V30 22 C 12.001000 -19.592000 -34.690000 0
M  V30 23 C 12.877000 -22.736000 -31.819000 0
M  V30 24 C 14.011000 -23.834000 -28.679000 0
M  V30 25 C 15.214000 -24.025000 -26.991000 0
M  V30 26 C 11.043000 -22.360000 -28.766000 0
M  V30 27 C 10.938000 -23.692000 -28.535000 0
M  V30 28 C 13.026000 -24.049000 -29.793000 0 CFG=2
M  V30 29 C 15.973000 -24.668000 -25.910000 0
M  V30 30 C 13.777000 -20.767000 -33.235000 0
M  V30 31 H 9.872000 -20.791400 -27.938700 0
M  V30 32 H 13.640500 -21.881000 -34.995500 0
M  V30 33 H 15.113000 -21.209600 -34.777100 0
M  V30 34 H 14.678500 -22.524400 -33.911500 0
M  V30 35 H 14.481400 -19.854000 -31.494900 0
M  V30 36 H 15.188000 -21.296200 -31.790500 0
M  V30 37 H 15.622400 -19.981500 -32.656100 0
M  V30 38 H 8.670100 -22.598600 -26.709600 0
M  V30 39 H 16.713400 -27.605000 -24.655600 0
M  V30 40 H 17.891000 -24.010700 -23.335800 0
M  V30 41 H 11.577400 -21.094700 -30.309000 0
M  V30 42 H 12.740800 -21.256500 -29.174600 0
M  V30 43 H 15.466000 -26.626800 -26.407000 0
M  V30 44 H 16.703000 -22.915100 -25.059300 0
M  V30 45 H 11.242200 -25.132400 -29.976700 0
M  V30 46 H 12.031400 -25.437900 -28.580100 0
M  V30 47 H 13.087100 -18.801400 -33.141500 0
M  V30 48 H 13.980200 -19.102800 -34.475000 0
M  V30 49 H 12.204000 -20.794300 -31.866500 0
M  V30 50 H 11.877600 -21.627400 -33.232500 0
M  V30 51 H 13.440300 -24.667500 -30.460700 0
M  V30 52 H 9.630200 -24.839700 -27.268100 0
M  V30 END ATOM
M  V30 BEGIN BOND
M  V30 1 2 1 22
M  V30 2 1 2 22
M  V30 3 2 3 23
M  V30 4 1 4 5
M  V30 5 1 4 24
M  V30 6 2 5 25
M  V30 7 2 6 14
M  V30 8 1 6 15
M  V30 9 2 7 13
M  V30 10 1 7 26
M  V30 11 1 8 13
M  V30 12 1 8 27
M  V30 13 2 9 24
M  V30 14 1 9 25
M  V30 15 1 10 16
M  V30 16 1 10 23
M  V30 17 1 10 28
M  V30 18 1 11 30
M  V30 19 1 12 30
M  V30 20 1 14 17
M  V30 21 2 15 18
M  V30 22 1 16 26
M  V30 23 2 17 29
M  V30 24 1 18 29
M  V30 25 1 19 27
M  V30 26 1 19 28
M  V30 27 1 20 22
M  V30 28 1 30 20
M  V30 29 1 21 23
M  V30 30 1 21 30
M  V30 31 1 24 28
M  V30 32 1 25 29
M  V30 33 2 26 27
M  V30 34 1 28 51 CFG=3
M  V30 35 1 7 31
M  V30 36 1 11 32
M  V30 37 1 11 33
M  V30 38 1 11 34
M  V30 39 1 12 35
M  V30 40 1 12 36
M  V30 41 1 12 37
M  V30 42 1 13 38
M  V30 43 1 14 39
M  V30 44 1 15 40
M  V30 45 1 16 41
M  V30 46 1 16 42
M  V30 47 1 17 43
M  V30 48 1 18 44
M  V30 49 1 19 45
M  V30 50 1 19 46
M  V30 51 1 20 47
M  V30 52 1 20 48
M  V30 53 1 21 49
M  V30 54 1 21 50
M  V30 55 1 8 52
M  V30 END BOND
M  V30 END CTAB
M  END
>  <Ligand_Instance>  (256) 
7BB0_T7W_A_401

>  <Dataset>  (256) 
PDB

>  <PDB_ID>  (256) 
7BB0

>  <Chain>  (256) 
A

>  <Resi>  (256) 
401

>  <Num_Resolved_Atoms>  (256) 
30

>  <Num_H_Atoms_ProtBoundConf>  (256) 
22

>  <Pocket>  (256) 
A

>  <Name>  (256) 
(R)-3,3-dimethyl-5-oxo-5-(6-(3-(pyridin-4-yl)-1,2,4-oxadiazol-5-yl)-1,4,6,7-tetrahydro-5H-imidazo[4,5-c]pyridin-5-yl)pentanoic acid

>  <Num_Not_Resolved_Atoms>  (256) 
0

>  <ATP_Site>  (256) 
True

>  <Peripheral>  (256) 
False

>  <Standardized_SMILES>  (256) 
[H]C1=NC([H])=C([H])C(C2=NOC([C@]3([H])N(C(=O)C([H])([H])C(C([H])([H])[H])(C([H])([H])[H])C([H])([H])C(=O)[O-])C([H])([H])C4=C(N([H])C([H])=[N+]4[H])C3([H])[H])=N2)=C1[H]

>  <2D_Mol_H>  (256) 
<rdkit.Chem.rdchem.Mol object at 0x77059d84c270>

>  <MW>  (256) 
410.434

>  <HBA>  (256) 
7

>  <HBD>  (256) 
1

>  <LogP>  (256) 
0.4561

>  <NRB>  (256) 
8

>  <TPSA>  (256) 
142.18

>  <Num_Heavy_Atoms>  (256) 
30

>  <Ro5>  (256) 
[True, True, True, True, True, False]

>  <Ro5_Fulfilled>  (256) 
True

>  <Ro3>  (256) 
[False, False, True, True]

>  <Ro3_Fulfilled>  (256) 
False

>  <Fsp3>  (256) 
0.4

>  <Fsp3_0.42>  (256) 
False

>  <Fsp3_0.45>  (256) 
False

>  <Stereogenic_Carbons>  (256) 
1

>  <C_Atoms>  (256) 
20

>  <FCStereo>  (256) 
0.05

>  <SPS>  (256) 
490

>  <nSPS>  (256) 
16.333333

>  <PBF>  (256) 
1.120371

>  <PBF_0.6>  (256) 
True

>  <nPBF>  (256) 
0.037346

>  <nPBF_0.016>  (256) 
True

>  <PMI1>  (256) 
1838.558903

>  <PMI2>  (256) 
6904.354424

>  <PMI3>  (256) 
7876.91116

>  <NPR1>  (256) 
0.233411

>  <NPR2>  (256) 
0.876531

>  <Sum_NPR>  (256) 
1.109942

>  <Sum_NPR_1.07>  (256) 
True

>  <Sum_NPR_1.2>  (256) 
False

>  <MaxAbsEStateIndex>  (256) 
13.17779

>  <MaxEStateIndex>  (256) 
13.17779

>  <MinAbsEStateIndex>  (256) 
0.05812

>  <MinEStateIndex>  (256) 
-1.177646

>  <qed>  (256) 
0.621661

>  <MolWt>  (256) 
410.434

>  <HeavyAtomMolWt>  (256) 
388.258

>  <ExactMolWt>  (256) 
410.170253

>  <NumValenceElectrons>  (256) 
156

>  <NumRadicalElectrons>  (256) 
0

>  <MaxPartialCharge>  (256) 
0.249777

>  <MinPartialCharge>  (256) 
-0.55015

>  <MaxAbsPartialCharge>  (256) 
0.55015

>  <MinAbsPartialCharge>  (256) 
0.249777

>  <FpDensityMorgan1>  (256) 
1.333333

>  <FpDensityMorgan2>  (256) 
2.1

>  <FpDensityMorgan3>  (256) 
2.833333

>  <BCUT2D_MWHI>  (256) 
16.47045

>  <BCUT2D_MWLOW>  (256) 
9.84374

>  <BCUT2D_CHGHI>  (256) 
2.391518

>  <BCUT2D_CHGLO>  (256) 
-2.339333

>  <BCUT2D_LOGPHI>  (256) 
2.341338

>  <BCUT2D_LOGPLOW>  (256) 
-2.423556

>  <BCUT2D_MRHI>  (256) 
5.782213

>  <BCUT2D_MRLOW>  (256) 
-0.391112

>  <AvgIpc>  (256) 
3.34965

>  <BalabanJ>  (256) 
1.619756

>  <BertzCT>  (256) 
1058.203328

>  <Chi0>  (256) 
21.302754

>  <Chi0n>  (256) 
16.714376

>  <Chi0v>  (256) 
16.714376

>  <Chi1>  (256) 
14.3213

>  <Chi1n>  (256) 
9.623933

>  <Chi1v>  (256) 
9.623933

>  <Chi2n>  (256) 
8.213568

>  <Chi2v>  (256) 
8.213568

>  <Chi3n>  (256) 
5.197561

>  <Chi3v>  (256) 
5.197561

>  <Chi4n>  (256) 
3.727393

>  <Chi4v>  (256) 
3.727393

>  <HallKierAlpha>  (256) 
-3.56

>  <Ipc>  (256) 
7556207.809083

>  <Kappa1>  (256) 
19.743314

>  <Kappa2>  (256) 
7.694341

>  <Kappa3>  (256) 
4.069936

>  <LabuteASA>  (256) 
171.899731

>  <PEOE_VSA1>  (256) 
19.324069

>  <PEOE_VSA10>  (256) 
11.735769

>  <PEOE_VSA11>  (256) 
5.693928

>  <PEOE_VSA12>  (256) 
23.949628

>  <PEOE_VSA13>  (256) 
0.0

>  <PEOE_VSA14>  (256) 
0.0

>  <PEOE_VSA2>  (256) 
9.778516

>  <PEOE_VSA3>  (256) 
9.967957

>  <PEOE_VSA4>  (256) 
4.983979

>  <PEOE_VSA5>  (256) 
0.0

>  <PEOE_VSA6>  (256) 
19.004138

>  <PEOE_VSA7>  (256) 
23.968546

>  <PEOE_VSA8>  (256) 
36.768087

>  <PEOE_VSA9>  (256) 
6.544756

>  <SMR_VSA1>  (256) 
24.202675

>  <SMR_VSA10>  (256) 
11.876485

>  <SMR_VSA2>  (256) 
0.0

>  <SMR_VSA3>  (256) 
25.008509

>  <SMR_VSA4>  (256) 
5.41499

>  <SMR_VSA5>  (256) 
45.696537

>  <SMR_VSA6>  (256) 
0.0

>  <SMR_VSA7>  (256) 
48.132321

>  <SMR_VSA8>  (256) 
0.0

>  <SMR_VSA9>  (256) 
11.387856

>  <SlogP_VSA1>  (256) 
10.090506

>  <SlogP_VSA10>  (256) 
0.0

>  <SlogP_VSA11>  (256) 
0.0

>  <SlogP_VSA12>  (256) 
0.0

>  <SlogP_VSA2>  (256) 
36.884994

>  <SlogP_VSA3>  (256) 
22.554652

>  <SlogP_VSA4>  (256) 
5.41499

>  <SlogP_VSA5>  (256) 
50.009538

>  <SlogP_VSA6>  (256) 
35.376836

>  <SlogP_VSA7>  (256) 
0.0

>  <SlogP_VSA8>  (256) 
11.387856

>  <SlogP_VSA9>  (256) 
0.0

>  <EState_VSA1>  (256) 
17.426137

>  <EState_VSA10>  (256) 
14.695602

>  <EState_VSA11>  (256) 
0.0

>  <EState_VSA2>  (256) 
18.748823

>  <EState_VSA3>  (256) 
24.680706

>  <EState_VSA4>  (256) 
16.951307

>  <EState_VSA5>  (256) 
0.0

>  <EState_VSA6>  (256) 
49.601125

>  <EState_VSA7>  (256) 
0.0

>  <EState_VSA8>  (256) 
25.092577

>  <EState_VSA9>  (256) 
4.523095

>  <VSA_EState1>  (256) 
5.521605

>  <VSA_EState10>  (256) 
0.0

>  <VSA_EState2>  (256) 
40.640409

>  <VSA_EState3>  (256) 
15.099204

>  <VSA_EState4>  (256) 
1.879797

>  <VSA_EState5>  (256) 
-0.618196

>  <VSA_EState6>  (256) 
3.094052

>  <VSA_EState7>  (256) 
5.327381

>  <VSA_EState8>  (256) 
3.805746

>  <VSA_EState9>  (256) 
0.0

>  <FractionCSP3>  (256) 
0.4

>  <HeavyAtomCount>  (256) 
30

>  <NHOHCount>  (256) 
2

>  <NOCount>  (256) 
10

>  <NumAliphaticCarbocycles>  (256) 
0

>  <NumAliphaticHeterocycles>  (256) 
1

>  <NumAliphaticRings>  (256) 
1

>  <NumAromaticCarbocycles>  (256) 
0

>  <NumAromaticHeterocycles>  (256) 
3

>  <NumAromaticRings>  (256) 
3

>  <NumHAcceptors>  (256) 
7

>  <NumHDonors>  (256) 
1

>  <NumHeteroatoms>  (256) 
10

>  <NumRotatableBonds>  (256) 
6

>  <NumSaturatedCarbocycles>  (256) 
0

>  <NumSaturatedHeterocycles>  (256) 
0

>  <NumSaturatedRings>  (256) 
0

>  <RingCount>  (256) 
4

>  <MolLogP>  (256) 
0.4561

>  <MolMR>  (256) 
99.8944

>  <fr_Al_COO>  (256) 
1

>  <fr_Al_OH>  (256) 
0

>  <fr_Al_OH_noTert>  (256) 
0

>  <fr_ArN>  (256) 
0

>  <fr_Ar_COO>  (256) 
0

>  <fr_Ar_N>  (256) 
5

>  <fr_Ar_NH>  (256) 
2

>  <fr_Ar_OH>  (256) 
0

>  <fr_COO>  (256) 
1

>  <fr_COO2>  (256) 
1

>  <fr_C_O>  (256) 
2

>  <fr_C_O_noCOO>  (256) 
2

>  <fr_C_S>  (256) 
0

>  <fr_HOCCN>  (256) 
0

>  <fr_Imine>  (256) 
0

>  <fr_NH0>  (256) 
4

>  <fr_NH1>  (256) 
2

>  <fr_NH2>  (256) 
0

>  <fr_N_O>  (256) 
0

>  <fr_Ndealkylation1>  (256) 
0

>  <fr_Ndealkylation2>  (256) 
0

>  <fr_Nhpyrrole>  (256) 
2

>  <fr_SH>  (256) 
0

>  <fr_aldehyde>  (256) 
0

>  <fr_alkyl_carbamate>  (256) 
0

>  <fr_alkyl_halide>  (256) 
0

>  <fr_allylic_oxid>  (256) 
0

>  <fr_amide>  (256) 
1

>  <fr_amidine>  (256) 
0

>  <fr_aniline>  (256) 
0

>  <fr_aryl_methyl>  (256) 
0

>  <fr_azide>  (256) 
0

>  <fr_azo>  (256) 
0

>  <fr_barbitur>  (256) 
0

>  <fr_benzene>  (256) 
0

>  <fr_benzodiazepine>  (256) 
0

>  <fr_bicyclic>  (256) 
1

>  <fr_diazo>  (256) 
0

>  <fr_dihydropyridine>  (256) 
0

>  <fr_epoxide>  (256) 
0

>  <fr_ester>  (256) 
0

>  <fr_ether>  (256) 
0

>  <fr_furan>  (256) 
0

>  <fr_guanido>  (256) 
0

>  <fr_halogen>  (256) 
0

>  <fr_hdrzine>  (256) 
0

>  <fr_hdrzone>  (256) 
0

>  <fr_imidazole>  (256) 
1

>  <fr_imide>  (256) 
0

>  <fr_isocyan>  (256) 
0

>  <fr_isothiocyan>  (256) 
0

>  <fr_ketone>  (256) 
0

>  <fr_ketone_Topliss>  (256) 
0

>  <fr_lactam>  (256) 
0

>  <fr_lactone>  (256) 
0

>  <fr_methoxy>  (256) 
0

>  <fr_morpholine>  (256) 
0

>  <fr_nitrile>  (256) 
0

>  <fr_nitro>  (256) 
0

>  <fr_nitro_arom>  (256) 
0

>  <fr_nitro_arom_nonortho>  (256) 
0

>  <fr_nitroso>  (256) 
0

>  <fr_oxazole>  (256) 
0

>  <fr_oxime>  (256) 
0

>  <fr_para_hydroxylation>  (256) 
0

>  <fr_phenol>  (256) 
0

>  <fr_phenol_noOrthoHbond>  (256) 
0

>  <fr_phos_acid>  (256) 
0

>  <fr_phos_ester>  (256) 
0

>  <fr_piperdine>  (256) 
0

>  <fr_piperzine>  (256) 
0

>  <fr_priamide>  (256) 
0

>  <fr_prisulfonamd>  (256) 
0

>  <fr_pyridine>  (256) 
1

>  <fr_quatN>  (256) 
0

>  <fr_sulfide>  (256) 
0

>  <fr_sulfonamd>  (256) 
0

>  <fr_sulfone>  (256) 
0

>  <fr_term_acetylene>  (256) 
0

>  <fr_tetrazole>  (256) 
0

>  <fr_thiazole>  (256) 
0

>  <fr_thiocyan>  (256) 
0

>  <fr_thiophene>  (256) 
0

>  <fr_unbrch_alkane>  (256) 
0

>  <fr_urea>  (256) 
0

>  <NP_Likeness>  (256) 
-1.085378

$$$$
T82
     RDKit          3D

  0  0  0  0  0  0  0  0  0  0999 V3000
M  V30 BEGIN CTAB
M  V30 COUNTS 39 40 0 0 0
M  V30 BEGIN ATOM
M  V30 1 Br -11.407000 8.961000 -7.015000 0
M  V30 2 Cl -2.998000 16.317000 -4.065000 0
M  V30 3 O -5.594000 12.206000 -8.523000 0
M  V30 4 O -13.813000 10.758000 -6.801000 0
M  V30 5 N -4.802000 14.157000 -11.069000 0 CHG=1
M  V30 6 N -8.023000 13.131000 -7.906000 0
M  V30 7 N -6.947000 13.967000 -8.127000 0
M  V30 8 C -3.883000 14.085000 -9.899000 0
M  V30 9 C -2.332000 12.898000 -5.977000 0
M  V30 10 C -9.111000 13.719000 -7.599000 0
M  V30 11 C -2.285000 13.905000 -5.029000 0
M  V30 12 C -3.061000 13.071000 -7.143000 0
M  V30 13 C -12.695000 12.886000 -6.995000 0
M  V30 14 C -11.528000 13.603000 -7.162000 0
M  V30 15 C -10.294000 11.557000 -7.290000 0
M  V30 16 C -3.699000 15.257000 -6.431000 0
M  V30 17 C -11.466000 10.858000 -7.102000 0
M  V30 18 C -2.983000 15.077000 -5.267000 0
M  V30 19 C -5.768000 13.415000 -8.434000 0
M  V30 20 C -12.689000 11.497000 -6.957000 0
M  V30 21 C -10.318000 12.957000 -7.325000 0
M  V30 22 C -3.758000 14.257000 -7.382000 0
M  V30 23 C -4.628000 14.416000 -8.610000 0 CFG=1
M  V30 24 H -14.699800 11.210500 -6.706800 0
M  V30 25 H -4.794800 15.084800 -11.441900 0
M  V30 26 H -4.498500 13.513100 -11.771300 0
M  V30 27 H -7.046400 14.959700 -8.059300 0
M  V30 28 H -3.138000 14.740000 -10.025500 0
M  V30 29 H -3.506700 13.160800 -9.833100 0
M  V30 30 H -1.838300 12.042600 -5.820200 0
M  V30 31 H -9.134700 14.717300 -7.545900 0
M  V30 32 H -1.756900 13.788500 -4.187900 0
M  V30 33 H -3.088100 12.337100 -7.821700 0
M  V30 34 H -13.561800 13.375400 -6.899500 0
M  V30 35 H -11.558600 14.602500 -7.165100 0
M  V30 36 H -9.429500 11.066800 -7.401100 0
M  V30 37 H -4.180100 16.119400 -6.588400 0
M  V30 38 H -4.992300 15.346200 -8.653900 0
M  V30 39 H -5.729600 13.921400 -10.779200 0
M  V30 END ATOM
M  V30 BEGIN BOND
M  V30 1 1 1 17
M  V30 2 1 2 18
M  V30 3 2 3 19
M  V30 4 1 4 20
M  V30 5 1 5 8
M  V30 6 1 6 7
M  V30 7 2 6 10
M  V30 8 1 7 19
M  V30 9 1 8 23
M  V30 10 2 9 11
M  V30 11 1 9 12
M  V30 12 1 10 21
M  V30 13 1 11 18
M  V30 14 2 12 22
M  V30 15 2 13 14
M  V30 16 1 13 20
M  V30 17 1 14 21
M  V30 18 1 15 17
M  V30 19 2 15 21
M  V30 20 2 16 18
M  V30 21 1 16 22
M  V30 22 2 17 20
M  V30 23 1 19 23
M  V30 24 1 22 23
M  V30 25 1 4 24
M  V30 26 1 5 25
M  V30 27 1 5 26
M  V30 28 1 7 27
M  V30 29 1 8 28
M  V30 30 1 8 29
M  V30 31 1 9 30
M  V30 32 1 10 31
M  V30 33 1 11 32
M  V30 34 1 12 33
M  V30 35 1 13 34
M  V30 36 1 14 35
M  V30 37 1 15 36
M  V30 38 1 16 37
M  V30 39 1 23 38 CFG=3
M  V30 40 1 5 39
M  V30 END BOND
M  V30 END CTAB
M  END
>  <Ligand_Instance>  (257) 
7BAQ_T82_A_401

>  <Dataset>  (257) 
PDB

>  <PDB_ID>  (257) 
7BAQ

>  <Chain>  (257) 
A

>  <Resi>  (257) 
401

>  <Num_Resolved_Atoms>  (257) 
23

>  <Num_H_Atoms_ProtBoundConf>  (257) 
16

>  <Pocket>  (257) 
A

>  <Name>  (257) 
(S,E)-3-(2-(3-bromo-4-hydroxybenzylidene)hydrazineyl)-2-(3-chlorophenyl)-3-oxopropan-1-aminium

>  <Num_Not_Resolved_Atoms>  (257) 
0

>  <ATP_Site>  (257) 
True

>  <Peripheral>  (257) 
False

>  <Standardized_SMILES>  (257) 
[H]OC1=C([H])C([H])=C(/C([H])=N/N([H])C(=O)[C@@]([H])(C2=C([H])C([H])=C([H])C(Cl)=C2[H])C([H])([H])[N+]([H])([H])[H])C([H])=C1Br

>  <2D_Mol_H>  (257) 
<rdkit.Chem.rdchem.Mol object at 0x77059d84c350>

>  <MW>  (257) 
397.68

>  <HBA>  (257) 
3

>  <HBD>  (257) 
3

>  <LogP>  (257) 
2.2839

>  <NRB>  (257) 
7

>  <TPSA>  (257) 
89.33

>  <Num_Heavy_Atoms>  (257) 
23

>  <Ro5>  (257) 
[True, True, True, True, True, True]

>  <Ro5_Fulfilled>  (257) 
True

>  <Ro3>  (257) 
[False, True, True, True]

>  <Ro3_Fulfilled>  (257) 
True

>  <Fsp3>  (257) 
0.125

>  <Fsp3_0.42>  (257) 
False

>  <Fsp3_0.45>  (257) 
False

>  <Stereogenic_Carbons>  (257) 
1

>  <C_Atoms>  (257) 
16

>  <FCStereo>  (257) 
0.0625

>  <SPS>  (257) 
283

>  <nSPS>  (257) 
12.304348

>  <PBF>  (257) 
1.053081

>  <PBF_0.6>  (257) 
True

>  <nPBF>  (257) 
0.045786

>  <nPBF_0.016>  (257) 
True

>  <PMI1>  (257) 
1657.575856

>  <PMI2>  (257) 
8130.655777

>  <PMI3>  (257) 
8370.848074

>  <NPR1>  (257) 
0.198018

>  <NPR2>  (257) 
0.971306

>  <Sum_NPR>  (257) 
1.169324

>  <Sum_NPR_1.07>  (257) 
True

>  <Sum_NPR_1.2>  (257) 
False

>  <MaxAbsEStateIndex>  (257) 
12.240082

>  <MaxEStateIndex>  (257) 
12.240082

>  <MinAbsEStateIndex>  (257) 
0.142836

>  <MinEStateIndex>  (257) 
-0.41907

>  <qed>  (257) 
0.533605

>  <MolWt>  (257) 
397.68

>  <HeavyAtomMolWt>  (257) 
381.552

>  <ExactMolWt>  (257) 
396.010893

>  <NumValenceElectrons>  (257) 
120

>  <NumRadicalElectrons>  (257) 
0

>  <MaxPartialCharge>  (257) 
0.252841

>  <MinPartialCharge>  (257) 
-0.506775

>  <MaxAbsPartialCharge>  (257) 
0.506775

>  <MinAbsPartialCharge>  (257) 
0.252841

>  <FpDensityMorgan1>  (257) 
1.391304

>  <FpDensityMorgan2>  (257) 
2.173913

>  <FpDensityMorgan3>  (257) 
2.826087

>  <BCUT2D_MWHI>  (257) 
79.918731

>  <BCUT2D_MWLOW>  (257) 
9.986562

>  <BCUT2D_CHGHI>  (257) 
2.203683

>  <BCUT2D_CHGLO>  (257) 
-2.112569

>  <BCUT2D_LOGPHI>  (257) 
2.231931

>  <BCUT2D_LOGPLOW>  (257) 
-2.549751

>  <BCUT2D_MRHI>  (257) 
9.103463

>  <BCUT2D_MRLOW>  (257) 
-0.369546

>  <AvgIpc>  (257) 
2.515329

>  <BalabanJ>  (257) 
2.045914

>  <BertzCT>  (257) 
737.015329

>  <Chi0>  (257) 
16.819626

>  <Chi0n>  (257) 
12.16897

>  <Chi0v>  (257) 
14.510896

>  <Chi1>  (257) 
11.007239

>  <Chi1n>  (257) 
6.871176

>  <Chi1v>  (257) 
8.042139

>  <Chi2n>  (257) 
4.841369

>  <Chi2v>  (257) 
6.132141

>  <Chi3n>  (257) 
3.216309

>  <Chi3v>  (257) 
4.086564

>  <Chi4n>  (257) 
2.024275

>  <Chi4v>  (257) 
2.619502

>  <HallKierAlpha>  (257) 
-1.89

>  <Ipc>  (257) 
132230.855394

>  <Kappa1>  (257) 
17.463645

>  <Kappa2>  (257) 
8.100502

>  <Kappa3>  (257) 
4.789245

>  <LabuteASA>  (257) 
146.830047

>  <PEOE_VSA1>  (257) 
10.840195

>  <PEOE_VSA10>  (257) 
11.667418

>  <PEOE_VSA11>  (257) 
0.0

>  <PEOE_VSA12>  (257) 
0.0

>  <PEOE_VSA13>  (257) 
5.90718

>  <PEOE_VSA14>  (257) 
0.0

>  <PEOE_VSA2>  (257) 
4.794537

>  <PEOE_VSA3>  (257) 
5.425791

>  <PEOE_VSA4>  (257) 
5.101408

>  <PEOE_VSA5>  (257) 
0.0

>  <PEOE_VSA6>  (257) 
23.733674

>  <PEOE_VSA7>  (257) 
57.388682

>  <PEOE_VSA8>  (257) 
5.022633

>  <PEOE_VSA9>  (257) 
17.232077

>  <SMR_VSA1>  (257) 
15.634732

>  <SMR_VSA10>  (257) 
39.652664

>  <SMR_VSA2>  (257) 
0.0

>  <SMR_VSA3>  (257) 
5.425791

>  <SMR_VSA4>  (257) 
5.101408

>  <SMR_VSA5>  (257) 
5.917906

>  <SMR_VSA6>  (257) 
6.544756

>  <SMR_VSA7>  (257) 
63.086825

>  <SMR_VSA8>  (257) 
0.0

>  <SMR_VSA9>  (257) 
5.749512

>  <SlogP_VSA1>  (257) 
11.159459

>  <SlogP_VSA10>  (257) 
0.0

>  <SlogP_VSA11>  (257) 
5.749512

>  <SlogP_VSA12>  (257) 
27.530884

>  <SlogP_VSA2>  (257) 
23.773064

>  <SlogP_VSA3>  (257) 
4.794537

>  <SlogP_VSA4>  (257) 
0.0

>  <SlogP_VSA5>  (257) 
17.044809

>  <SlogP_VSA6>  (257) 
52.038697

>  <SlogP_VSA7>  (257) 
5.022633

>  <SlogP_VSA8>  (257) 
0.0

>  <SlogP_VSA9>  (257) 
0.0

>  <EState_VSA1>  (257) 
5.917906

>  <EState_VSA10>  (257) 
9.901065

>  <EState_VSA11>  (257) 
0.0

>  <EState_VSA2>  (257) 
11.656692

>  <EState_VSA3>  (257) 
16.040109

>  <EState_VSA4>  (257) 
11.126903

>  <EState_VSA5>  (257) 
12.280968

>  <EState_VSA6>  (257) 
30.331835

>  <EState_VSA7>  (257) 
6.066367

>  <EState_VSA8>  (257) 
32.19081

>  <EState_VSA9>  (257) 
11.60094

>  <VSA_EState1>  (257) 
0.557721

>  <VSA_EState10>  (257) 
9.174826

>  <VSA_EState2>  (257) 
12.240082

>  <VSA_EState3>  (257) 
13.948157

>  <VSA_EState4>  (257) 
7.853127

>  <VSA_EState5>  (257) 
-0.529604

>  <VSA_EState6>  (257) 
12.054625

>  <VSA_EState7>  (257) 
1.500219

>  <VSA_EState8>  (257) 
0.395291

>  <VSA_EState9>  (257) 
0.0

>  <FractionCSP3>  (257) 
0.125

>  <HeavyAtomCount>  (257) 
23

>  <NHOHCount>  (257) 
5

>  <NOCount>  (257) 
5

>  <NumAliphaticCarbocycles>  (257) 
0

>  <NumAliphaticHeterocycles>  (257) 
0

>  <NumAliphaticRings>  (257) 
0

>  <NumAromaticCarbocycles>  (257) 
2

>  <NumAromaticHeterocycles>  (257) 
0

>  <NumAromaticRings>  (257) 
2

>  <NumHAcceptors>  (257) 
3

>  <NumHDonors>  (257) 
3

>  <NumHeteroatoms>  (257) 
7

>  <NumRotatableBonds>  (257) 
5

>  <NumSaturatedCarbocycles>  (257) 
0

>  <NumSaturatedHeterocycles>  (257) 
0

>  <NumSaturatedRings>  (257) 
0

>  <RingCount>  (257) 
2

>  <MolLogP>  (257) 
2.2839

>  <MolMR>  (257) 
93.4916

>  <fr_Al_COO>  (257) 
0

>  <fr_Al_OH>  (257) 
0

>  <fr_Al_OH_noTert>  (257) 
0

>  <fr_ArN>  (257) 
0

>  <fr_Ar_COO>  (257) 
0

>  <fr_Ar_N>  (257) 
0

>  <fr_Ar_NH>  (257) 
0

>  <fr_Ar_OH>  (257) 
1

>  <fr_COO>  (257) 
0

>  <fr_COO2>  (257) 
0

>  <fr_C_O>  (257) 
1

>  <fr_C_O_noCOO>  (257) 
1

>  <fr_C_S>  (257) 
0

>  <fr_HOCCN>  (257) 
0

>  <fr_Imine>  (257) 
0

>  <fr_NH0>  (257) 
1

>  <fr_NH1>  (257) 
1

>  <fr_NH2>  (257) 
0

>  <fr_N_O>  (257) 
0

>  <fr_Ndealkylation1>  (257) 
0

>  <fr_Ndealkylation2>  (257) 
0

>  <fr_Nhpyrrole>  (257) 
0

>  <fr_SH>  (257) 
0

>  <fr_aldehyde>  (257) 
0

>  <fr_alkyl_carbamate>  (257) 
0

>  <fr_alkyl_halide>  (257) 
0

>  <fr_allylic_oxid>  (257) 
0

>  <fr_amide>  (257) 
1

>  <fr_amidine>  (257) 
0

>  <fr_aniline>  (257) 
0

>  <fr_aryl_methyl>  (257) 
0

>  <fr_azide>  (257) 
0

>  <fr_azo>  (257) 
0

>  <fr_barbitur>  (257) 
0

>  <fr_benzene>  (257) 
2

>  <fr_benzodiazepine>  (257) 
0

>  <fr_bicyclic>  (257) 
0

>  <fr_diazo>  (257) 
0

>  <fr_dihydropyridine>  (257) 
0

>  <fr_epoxide>  (257) 
0

>  <fr_ester>  (257) 
0

>  <fr_ether>  (257) 
0

>  <fr_furan>  (257) 
0

>  <fr_guanido>  (257) 
0

>  <fr_halogen>  (257) 
2

>  <fr_hdrzine>  (257) 
0

>  <fr_hdrzone>  (257) 
1

>  <fr_imidazole>  (257) 
0

>  <fr_imide>  (257) 
0

>  <fr_isocyan>  (257) 
0

>  <fr_isothiocyan>  (257) 
0

>  <fr_ketone>  (257) 
0

>  <fr_ketone_Topliss>  (257) 
0

>  <fr_lactam>  (257) 
0

>  <fr_lactone>  (257) 
0

>  <fr_methoxy>  (257) 
0

>  <fr_morpholine>  (257) 
0

>  <fr_nitrile>  (257) 
0

>  <fr_nitro>  (257) 
0

>  <fr_nitro_arom>  (257) 
0

>  <fr_nitro_arom_nonortho>  (257) 
0

>  <fr_nitroso>  (257) 
0

>  <fr_oxazole>  (257) 
0

>  <fr_oxime>  (257) 
0

>  <fr_para_hydroxylation>  (257) 
0

>  <fr_phenol>  (257) 
1

>  <fr_phenol_noOrthoHbond>  (257) 
1

>  <fr_phos_acid>  (257) 
0

>  <fr_phos_ester>  (257) 
0

>  <fr_piperdine>  (257) 
0

>  <fr_piperzine>  (257) 
0

>  <fr_priamide>  (257) 
0

>  <fr_prisulfonamd>  (257) 
0

>  <fr_pyridine>  (257) 
0

>  <fr_quatN>  (257) 
1

>  <fr_sulfide>  (257) 
0

>  <fr_sulfonamd>  (257) 
0

>  <fr_sulfone>  (257) 
0

>  <fr_term_acetylene>  (257) 
0

>  <fr_tetrazole>  (257) 
0

>  <fr_thiazole>  (257) 
0

>  <fr_thiocyan>  (257) 
0

>  <fr_thiophene>  (257) 
0

>  <fr_unbrch_alkane>  (257) 
0

>  <fr_urea>  (257) 
0

>  <NP_Likeness>  (257) 
-0.96257

$$$$
T82
     RDKit          3D

  0  0  0  0  0  0  0  0  0  0999 V3000
M  V30 BEGIN CTAB
M  V30 COUNTS 39 40 0 0 0
M  V30 BEGIN ATOM
M  V30 1 Br 15.402000 1.209000 19.910000 0
M  V30 2 Cl 8.025000 5.823000 12.884000 0
M  V30 3 O 9.268000 2.670000 17.145000 0
M  V30 4 O 17.182000 3.603000 20.291000 0
M  V30 5 N 6.807000 2.034000 18.866000 0 CHG=1
M  V30 6 N 11.152000 4.160000 18.413000 0
M  V30 7 N 9.827000 4.518000 18.347000 0
M  V30 8 C 6.580000 2.975000 17.738000 0
M  V30 9 C 6.319000 7.376000 16.126000 0
M  V30 10 C 11.976000 5.073000 18.756000 0
M  V30 11 C 6.752000 7.196000 14.824000 0
M  V30 12 C 6.564000 6.406000 17.084000 0
M  V30 13 C 15.580000 5.350000 19.776000 0
M  V30 14 C 14.293000 5.696000 19.410000 0
M  V30 15 C 13.679000 3.383000 19.332000 0
M  V30 16 C 7.673000 5.059000 15.448000 0
M  V30 17 C 14.966000 3.040000 19.700000 0
M  V30 18 C 7.431000 6.041000 14.507000 0
M  V30 19 C 8.947000 3.699000 17.747000 0
M  V30 20 C 15.939000 4.005000 19.931000 0
M  V30 21 C 13.325000 4.724000 19.189000 0
M  V30 22 C 7.236000 5.238000 16.756000 0
M  V30 23 C 7.502000 4.190000 17.827000 0 CFG=1
M  V30 24 H 5.961600 1.931900 19.390200 0
M  V30 25 H 7.085800 1.143500 18.506300 0
M  V30 26 H 11.455800 3.230700 18.202900 0
M  V30 27 H 9.519500 5.383100 18.743300 0
M  V30 28 H 5.629800 3.286000 17.760600 0
M  V30 29 H 6.754100 2.497600 16.876700 0
M  V30 30 H 5.827100 8.209900 16.376300 0
M  V30 31 H 11.695300 6.032400 18.727700 0
M  V30 32 H 6.575200 7.891100 14.127200 0
M  V30 33 H 6.252600 6.549600 18.023400 0
M  V30 34 H 16.260700 6.065900 19.931500 0
M  V30 35 H 14.054700 6.661200 19.302500 0
M  V30 36 H 12.999800 2.667600 19.167800 0
M  V30 37 H 8.159600 4.224300 15.190100 0
M  V30 38 H 7.367700 4.617600 18.720900 0
M  V30 39 H 7.526400 2.393500 19.460400 0
M  V30 END ATOM
M  V30 BEGIN BOND
M  V30 1 1 1 17
M  V30 2 1 2 18
M  V30 3 2 3 19
M  V30 4 2 4 20
M  V30 5 1 5 8
M  V30 6 1 6 7
M  V30 7 1 6 10
M  V30 8 1 7 19
M  V30 9 1 8 23
M  V30 10 2 9 11
M  V30 11 1 9 12
M  V30 12 2 10 21
M  V30 13 1 11 18
M  V30 14 2 12 22
M  V30 15 2 13 14
M  V30 16 1 13 20
M  V30 17 1 14 21
M  V30 18 2 15 17
M  V30 19 1 15 21
M  V30 20 2 16 18
M  V30 21 1 16 22
M  V30 22 1 17 20
M  V30 23 1 19 23
M  V30 24 1 22 23
M  V30 25 1 5 24
M  V30 26 1 5 25
M  V30 27 1 6 26
M  V30 28 1 7 27
M  V30 29 1 8 28
M  V30 30 1 8 29
M  V30 31 1 9 30
M  V30 32 1 10 31
M  V30 33 1 11 32
M  V30 34 1 12 33
M  V30 35 1 13 34
M  V30 36 1 14 35
M  V30 37 1 15 36
M  V30 38 1 16 37
M  V30 39 1 23 38 CFG=1
M  V30 40 1 5 39
M  V30 END BOND
M  V30 END CTAB
M  END
>  <Ligand_Instance>  (258) 
7BAR_T82_A_401

>  <Dataset>  (258) 
PDB

>  <PDB_ID>  (258) 
7BAR

>  <Chain>  (258) 
A

>  <Resi>  (258) 
401

>  <Num_Resolved_Atoms>  (258) 
23

>  <Num_H_Atoms_ProtBoundConf>  (258) 
16

>  <Pocket>  (258) 
A

>  <Name>  (258) 
(S,E)-3-(2-(3-bromo-4-hydroxybenzylidene)hydrazineyl)-2-(3-chlorophenyl)-3-oxopropan-1-aminium

>  <Num_Not_Resolved_Atoms>  (258) 
0

>  <ATP_Site>  (258) 
True

>  <Peripheral>  (258) 
False

>  <Standardized_SMILES>  (258) 
[H]C1=C([H])C(Cl)=C([H])C([C@]([H])(C(=O)N([H])N([H])/C([H])=C2/C([H])=C([H])C(=O)C(Br)=C2[H])C([H])([H])[N+]([H])([H])[H])=C1[H]

>  <2D_Mol_H>  (258) 
<rdkit.Chem.rdchem.Mol object at 0x77059d84c430>

>  <MW>  (258) 
397.68

>  <HBA>  (258) 
3

>  <HBD>  (258) 
3

>  <LogP>  (258) 
1.5879

>  <NRB>  (258) 
6

>  <TPSA>  (258) 
85.84

>  <Num_Heavy_Atoms>  (258) 
23

>  <Ro5>  (258) 
[True, True, True, True, True, True]

>  <Ro5_Fulfilled>  (258) 
True

>  <Ro3>  (258) 
[False, True, True, True]

>  <Ro3_Fulfilled>  (258) 
True

>  <Fsp3>  (258) 
0.125

>  <Fsp3_0.42>  (258) 
False

>  <Fsp3_0.45>  (258) 
False

>  <Stereogenic_Carbons>  (258) 
1

>  <C_Atoms>  (258) 
16

>  <FCStereo>  (258) 
0.0625

>  <SPS>  (258) 
389

>  <nSPS>  (258) 
16.913043

>  <PBF>  (258) 
0.834882

>  <PBF_0.6>  (258) 
True

>  <nPBF>  (258) 
0.036299

>  <nPBF_0.016>  (258) 
True

>  <PMI1>  (258) 
1507.669573

>  <PMI2>  (258) 
8017.67414

>  <PMI3>  (258) 
8548.069611

>  <NPR1>  (258) 
0.176375

>  <NPR2>  (258) 
0.937951

>  <Sum_NPR>  (258) 
1.114327

>  <Sum_NPR_1.07>  (258) 
True

>  <Sum_NPR_1.2>  (258) 
False

>  <MaxAbsEStateIndex>  (258) 
12.261332

>  <MaxEStateIndex>  (258) 
12.261332

>  <MinAbsEStateIndex>  (258) 
0.093275

>  <MinEStateIndex>  (258) 
-0.39782

>  <qed>  (258) 
0.659587

>  <MolWt>  (258) 
397.68

>  <HeavyAtomMolWt>  (258) 
381.552

>  <ExactMolWt>  (258) 
396.010893

>  <NumValenceElectrons>  (258) 
120

>  <NumRadicalElectrons>  (258) 
0

>  <MaxPartialCharge>  (258) 
0.251069

>  <MinPartialCharge>  (258) 
-0.356616

>  <MaxAbsPartialCharge>  (258) 
0.356616

>  <MinAbsPartialCharge>  (258) 
0.251069

>  <FpDensityMorgan1>  (258) 
1.391304

>  <FpDensityMorgan2>  (258) 
2.173913

>  <FpDensityMorgan3>  (258) 
2.826087

>  <BCUT2D_MWHI>  (258) 
79.918732

>  <BCUT2D_MWLOW>  (258) 
9.986335

>  <BCUT2D_CHGHI>  (258) 
2.204818

>  <BCUT2D_CHGLO>  (258) 
-2.140067

>  <BCUT2D_LOGPHI>  (258) 
2.189102

>  <BCUT2D_LOGPLOW>  (258) 
-2.5602

>  <BCUT2D_MRHI>  (258) 
9.117547

>  <BCUT2D_MRLOW>  (258) 
-0.369571

>  <AvgIpc>  (258) 
2.515329

>  <BalabanJ>  (258) 
1.98442

>  <BertzCT>  (258) 
713.031829

>  <Chi0>  (258) 
16.819626

>  <Chi0n>  (258) 
12.182792

>  <Chi0v>  (258) 
14.524717

>  <Chi1>  (258) 
11.007239

>  <Chi1n>  (258) 
6.908563

>  <Chi1v>  (258) 
8.079525

>  <Chi2n>  (258) 
4.864052

>  <Chi2v>  (258) 
6.154824

>  <Chi3n>  (258) 
3.246349

>  <Chi3v>  (258) 
4.101154

>  <Chi4n>  (258) 
2.057008

>  <Chi4v>  (258) 
2.652235

>  <HallKierAlpha>  (258) 
-1.89

>  <Ipc>  (258) 
132230.855394

>  <Kappa1>  (258) 
17.463645

>  <Kappa2>  (258) 
8.100502

>  <Kappa3>  (258) 
4.789245

>  <LabuteASA>  (258) 
146.909793

>  <PEOE_VSA1>  (258) 
11.159459

>  <PEOE_VSA10>  (258) 
5.917906

>  <PEOE_VSA11>  (258) 
5.783245

>  <PEOE_VSA12>  (258) 
0.0

>  <PEOE_VSA13>  (258) 
5.90718

>  <PEOE_VSA14>  (258) 
0.0

>  <PEOE_VSA2>  (258) 
15.014866

>  <PEOE_VSA3>  (258) 
0.0

>  <PEOE_VSA4>  (258) 
0.0

>  <PEOE_VSA5>  (258) 
0.0

>  <PEOE_VSA6>  (258) 
23.733674

>  <PEOE_VSA7>  (258) 
57.427294

>  <PEOE_VSA8>  (258) 
11.222588

>  <PEOE_VSA9>  (258) 
11.027129

>  <SMR_VSA1>  (258) 
15.322742

>  <SMR_VSA10>  (258) 
39.221308

>  <SMR_VSA2>  (258) 
0.0

>  <SMR_VSA3>  (258) 
10.851583

>  <SMR_VSA4>  (258) 
0.0

>  <SMR_VSA5>  (258) 
5.917906

>  <SMR_VSA6>  (258) 
6.544756

>  <SMR_VSA7>  (258) 
69.335045

>  <SMR_VSA8>  (258) 
0.0

>  <SMR_VSA9>  (258) 
0.0

>  <SlogP_VSA1>  (258) 
16.58525

>  <SlogP_VSA10>  (258) 
0.0

>  <SlogP_VSA11>  (258) 
0.0

>  <SlogP_VSA12>  (258) 
27.530884

>  <SlogP_VSA2>  (258) 
18.235181

>  <SlogP_VSA3>  (258) 
9.589074

>  <SlogP_VSA4>  (258) 
0.0

>  <SlogP_VSA5>  (258) 
11.481358

>  <SlogP_VSA6>  (258) 
58.748961

>  <SlogP_VSA7>  (258) 
5.022633

>  <SlogP_VSA8>  (258) 
0.0

>  <SlogP_VSA9>  (258) 
0.0

>  <EState_VSA1>  (258) 
5.917906

>  <EState_VSA10>  (258) 
9.589074

>  <EState_VSA11>  (258) 
0.0

>  <EState_VSA2>  (258) 
11.690425

>  <EState_VSA3>  (258) 
16.049762

>  <EState_VSA4>  (258) 
11.136556

>  <EState_VSA5>  (258) 
6.07602

>  <EState_VSA6>  (258) 
36.551096

>  <EState_VSA7>  (258) 
6.066367

>  <EState_VSA8>  (258) 
32.515194

>  <EState_VSA9>  (258) 
11.60094

>  <VSA_EState1>  (258) 
0.46661

>  <VSA_EState10>  (258) 
9.128926

>  <VSA_EState2>  (258) 
23.558467

>  <VSA_EState3>  (258) 
0.579467

>  <VSA_EState4>  (258) 
10.735862

>  <VSA_EState5>  (258) 
-0.701255

>  <VSA_EState6>  (258) 
7.154491

>  <VSA_EState7>  (258) 
6.36485

>  <VSA_EState8>  (258) 
0.407026

>  <VSA_EState9>  (258) 
0.0

>  <FractionCSP3>  (258) 
0.125

>  <HeavyAtomCount>  (258) 
23

>  <NHOHCount>  (258) 
5

>  <NOCount>  (258) 
5

>  <NumAliphaticCarbocycles>  (258) 
1

>  <NumAliphaticHeterocycles>  (258) 
0

>  <NumAliphaticRings>  (258) 
1

>  <NumAromaticCarbocycles>  (258) 
1

>  <NumAromaticHeterocycles>  (258) 
0

>  <NumAromaticRings>  (258) 
1

>  <NumHAcceptors>  (258) 
3

>  <NumHDonors>  (258) 
3

>  <NumHeteroatoms>  (258) 
7

>  <NumRotatableBonds>  (258) 
5

>  <NumSaturatedCarbocycles>  (258) 
0

>  <NumSaturatedHeterocycles>  (258) 
0

>  <NumSaturatedRings>  (258) 
0

>  <RingCount>  (258) 
2

>  <MolLogP>  (258) 
1.5879

>  <MolMR>  (258) 
92.4665

>  <fr_Al_COO>  (258) 
0

>  <fr_Al_OH>  (258) 
0

>  <fr_Al_OH_noTert>  (258) 
0

>  <fr_ArN>  (258) 
0

>  <fr_Ar_COO>  (258) 
0

>  <fr_Ar_N>  (258) 
0

>  <fr_Ar_NH>  (258) 
0

>  <fr_Ar_OH>  (258) 
0

>  <fr_COO>  (258) 
0

>  <fr_COO2>  (258) 
0

>  <fr_C_O>  (258) 
2

>  <fr_C_O_noCOO>  (258) 
2

>  <fr_C_S>  (258) 
0

>  <fr_HOCCN>  (258) 
0

>  <fr_Imine>  (258) 
0

>  <fr_NH0>  (258) 
0

>  <fr_NH1>  (258) 
2

>  <fr_NH2>  (258) 
0

>  <fr_N_O>  (258) 
0

>  <fr_Ndealkylation1>  (258) 
0

>  <fr_Ndealkylation2>  (258) 
0

>  <fr_Nhpyrrole>  (258) 
0

>  <fr_SH>  (258) 
0

>  <fr_aldehyde>  (258) 
0

>  <fr_alkyl_carbamate>  (258) 
0

>  <fr_alkyl_halide>  (258) 
0

>  <fr_allylic_oxid>  (258) 
5

>  <fr_amide>  (258) 
1

>  <fr_amidine>  (258) 
0

>  <fr_aniline>  (258) 
0

>  <fr_aryl_methyl>  (258) 
0

>  <fr_azide>  (258) 
0

>  <fr_azo>  (258) 
0

>  <fr_barbitur>  (258) 
0

>  <fr_benzene>  (258) 
1

>  <fr_benzodiazepine>  (258) 
0

>  <fr_bicyclic>  (258) 
0

>  <fr_diazo>  (258) 
0

>  <fr_dihydropyridine>  (258) 
0

>  <fr_epoxide>  (258) 
0

>  <fr_ester>  (258) 
0

>  <fr_ether>  (258) 
0

>  <fr_furan>  (258) 
0

>  <fr_guanido>  (258) 
0

>  <fr_halogen>  (258) 
2

>  <fr_hdrzine>  (258) 
1

>  <fr_hdrzone>  (258) 
0

>  <fr_imidazole>  (258) 
0

>  <fr_imide>  (258) 
0

>  <fr_isocyan>  (258) 
0

>  <fr_isothiocyan>  (258) 
0

>  <fr_ketone>  (258) 
1

>  <fr_ketone_Topliss>  (258) 
0

>  <fr_lactam>  (258) 
0

>  <fr_lactone>  (258) 
0

>  <fr_methoxy>  (258) 
0

>  <fr_morpholine>  (258) 
0

>  <fr_nitrile>  (258) 
0

>  <fr_nitro>  (258) 
0

>  <fr_nitro_arom>  (258) 
0

>  <fr_nitro_arom_nonortho>  (258) 
0

>  <fr_nitroso>  (258) 
0

>  <fr_oxazole>  (258) 
0

>  <fr_oxime>  (258) 
0

>  <fr_para_hydroxylation>  (258) 
0

>  <fr_phenol>  (258) 
0

>  <fr_phenol_noOrthoHbond>  (258) 
0

>  <fr_phos_acid>  (258) 
0

>  <fr_phos_ester>  (258) 
0

>  <fr_piperdine>  (258) 
0

>  <fr_piperzine>  (258) 
0

>  <fr_priamide>  (258) 
0

>  <fr_prisulfonamd>  (258) 
0

>  <fr_pyridine>  (258) 
0

>  <fr_quatN>  (258) 
1

>  <fr_sulfide>  (258) 
0

>  <fr_sulfonamd>  (258) 
0

>  <fr_sulfone>  (258) 
0

>  <fr_term_acetylene>  (258) 
0

>  <fr_tetrazole>  (258) 
0

>  <fr_thiazole>  (258) 
0

>  <fr_thiocyan>  (258) 
0

>  <fr_thiophene>  (258) 
0

>  <fr_unbrch_alkane>  (258) 
0

>  <fr_urea>  (258) 
0

>  <NP_Likeness>  (258) 
-0.586272

$$$$
UNU
     RDKit          3D

  0  0  0  0  0  0  0  0  0  0999 V3000
M  V30 BEGIN CTAB
M  V30 COUNTS 16 16 0 0 0
M  V30 BEGIN ATOM
M  V30 1 O 16.741000 2.457000 20.276000 0
M  V30 2 N 16.393000 4.704000 20.258000 0
M  V30 3 C 12.003000 2.692000 18.673000 0
M  V30 4 C 12.413000 3.989000 18.923000 0
M  V30 5 C 12.891000 1.646000 18.849000 0
M  V30 6 C 13.711000 4.245000 19.328000 0
M  V30 7 C 14.188000 1.896000 19.276000 0
M  V30 8 C 16.005000 3.435000 20.035000 0
M  V30 9 C 14.611000 3.199000 19.516000 0
M  V30 10 H 15.772400 5.460300 20.051100 0
M  V30 11 H 17.302000 4.890800 20.630600 0
M  V30 12 H 11.068500 2.511100 18.366300 0
M  V30 13 H 11.768400 4.745200 18.810500 0
M  V30 14 H 12.597800 0.707200 18.668100 0
M  V30 15 H 14.004900 5.187600 19.486800 0
M  V30 16 H 14.822000 1.134700 19.411800 0
M  V30 END ATOM
M  V30 BEGIN BOND
M  V30 1 2 1 8
M  V30 2 1 2 8
M  V30 3 2 3 4
M  V30 4 1 3 5
M  V30 5 1 4 6
M  V30 6 2 5 7
M  V30 7 2 6 9
M  V30 8 1 7 9
M  V30 9 1 8 9
M  V30 10 1 2 10
M  V30 11 1 2 11
M  V30 12 1 3 12
M  V30 13 1 4 13
M  V30 14 1 5 14
M  V30 15 1 6 15
M  V30 16 1 7 16
M  V30 END BOND
M  V30 END CTAB
M  END
>  <Ligand_Instance>  (259) 
6SNX_UNU_A_401

>  <Dataset>  (259) 
PDB

>  <PDB_ID>  (259) 
6SNX

>  <Chain>  (259) 
A

>  <Resi>  (259) 
401

>  <Num_Resolved_Atoms>  (259) 
9

>  <Num_H_Atoms_ProtBoundConf>  (259) 
7

>  <Pocket>  (259) 
A

>  <Name>  (259) 
BENZAMIDE

>  <Num_Not_Resolved_Atoms>  (259) 
0

>  <ATP_Site>  (259) 
True

>  <Peripheral>  (259) 
True

>  <Standardized_SMILES>  (259) 
[H]C1=C([H])C([H])=C(C(=O)N([H])[H])C([H])=C1[H]

>  <2D_Mol_H>  (259) 
<rdkit.Chem.rdchem.Mol object at 0x77059d84c510>

>  <MW>  (259) 
121.139

>  <HBA>  (259) 
1

>  <HBD>  (259) 
1

>  <LogP>  (259) 
0.7855

>  <NRB>  (259) 
1

>  <TPSA>  (259) 
43.09

>  <Num_Heavy_Atoms>  (259) 
9

>  <Ro5>  (259) 
[True, True, True, True, True, True]

>  <Ro5_Fulfilled>  (259) 
True

>  <Ro3>  (259) 
[True, True, True, True]

>  <Ro3_Fulfilled>  (259) 
True

>  <Fsp3>  (259) 
0.0

>  <Fsp3_0.42>  (259) 
False

>  <Fsp3_0.45>  (259) 
False

>  <Stereogenic_Carbons>  (259) 
0

>  <C_Atoms>  (259) 
7

>  <FCStereo>  (259) 
0.0

>  <SPS>  (259) 
80

>  <nSPS>  (259) 
8.888889

>  <PBF>  (259) 
0.031712

>  <PBF_0.6>  (259) 
False

>  <nPBF>  (259) 
0.003524

>  <nPBF_0.016>  (259) 
False

>  <PMI1>  (259) 
130.224323

>  <PMI2>  (259) 
409.935649

>  <PMI3>  (259) 
539.880566

>  <NPR1>  (259) 
0.24121

>  <NPR2>  (259) 
0.759308

>  <Sum_NPR>  (259) 
1.000518

>  <Sum_NPR_1.07>  (259) 
False

>  <Sum_NPR_1.2>  (259) 
False

>  <MaxAbsEStateIndex>  (259) 
10.423148

>  <MaxEStateIndex>  (259) 
10.423148

>  <MinAbsEStateIndex>  (259) 
0.379074

>  <MinEStateIndex>  (259) 
-0.379074

>  <qed>  (259) 
0.585937

>  <MolWt>  (259) 
121.139

>  <HeavyAtomMolWt>  (259) 
114.083

>  <ExactMolWt>  (259) 
121.052764

>  <NumValenceElectrons>  (259) 
46

>  <NumRadicalElectrons>  (259) 
0

>  <MaxPartialCharge>  (259) 
0.248195

>  <MinPartialCharge>  (259) 
-0.3656

>  <MaxAbsPartialCharge>  (259) 
0.3656

>  <MinAbsPartialCharge>  (259) 
0.248195

>  <FpDensityMorgan1>  (259) 
1.222222

>  <FpDensityMorgan2>  (259) 
1.777778

>  <FpDensityMorgan3>  (259) 
2.111111

>  <BCUT2D_MWHI>  (259) 
16.146256

>  <BCUT2D_MWLOW>  (259) 
10.203416

>  <BCUT2D_CHGHI>  (259) 
1.932353

>  <BCUT2D_CHGLO>  (259) 
-1.889749

>  <BCUT2D_LOGPHI>  (259) 
1.942031

>  <BCUT2D_LOGPLOW>  (259) 
-2.094426

>  <BCUT2D_MRHI>  (259) 
5.920744

>  <BCUT2D_MRLOW>  (259) 
0.100007

>  <AvgIpc>  (259) 
1.900373

>  <BalabanJ>  (259) 
2.981455

>  <BertzCT>  (259) 
205.415953

>  <Chi0>  (259) 
6.690234

>  <Chi0n>  (259) 
4.87235

>  <Chi0v>  (259) 
4.87235

>  <Chi1>  (259) 
4.30453

>  <Chi1n>  (259) 
2.653483

>  <Chi1v>  (259) 
2.653483

>  <Chi2n>  (259) 
1.730276

>  <Chi2v>  (259) 
1.730276

>  <Chi3n>  (259) 
1.058307

>  <Chi3v>  (259) 
1.058307

>  <Chi4n>  (259) 
0.602419

>  <Chi4v>  (259) 
0.602419

>  <HallKierAlpha>  (259) 
-1.31

>  <Ipc>  (259) 
129.225339

>  <Kappa1>  (259) 
5.820039

>  <Kappa2>  (259) 
2.306764

>  <Kappa3>  (259) 
1.287705

>  <LabuteASA>  (259) 
53.297758

>  <PEOE_VSA1>  (259) 
5.733667

>  <PEOE_VSA10>  (259) 
0.0

>  <PEOE_VSA11>  (259) 
0.0

>  <PEOE_VSA12>  (259) 
5.90718

>  <PEOE_VSA13>  (259) 
0.0

>  <PEOE_VSA14>  (259) 
0.0

>  <PEOE_VSA2>  (259) 
4.794537

>  <PEOE_VSA3>  (259) 
0.0

>  <PEOE_VSA4>  (259) 
0.0

>  <PEOE_VSA5>  (259) 
0.0

>  <PEOE_VSA6>  (259) 
18.199101

>  <PEOE_VSA7>  (259) 
12.132734

>  <PEOE_VSA8>  (259) 
5.563451

>  <PEOE_VSA9>  (259) 
0.0

>  <SMR_VSA1>  (259) 
4.794537

>  <SMR_VSA10>  (259) 
5.90718

>  <SMR_VSA2>  (259) 
0.0

>  <SMR_VSA3>  (259) 
0.0

>  <SMR_VSA4>  (259) 
5.733667

>  <SMR_VSA5>  (259) 
0.0

>  <SMR_VSA6>  (259) 
0.0

>  <SMR_VSA7>  (259) 
35.895287

>  <SMR_VSA8>  (259) 
0.0

>  <SMR_VSA9>  (259) 
0.0

>  <SlogP_VSA1>  (259) 
5.733667

>  <SlogP_VSA10>  (259) 
0.0

>  <SlogP_VSA11>  (259) 
0.0

>  <SlogP_VSA12>  (259) 
0.0

>  <SlogP_VSA2>  (259) 
5.90718

>  <SlogP_VSA3>  (259) 
0.0

>  <SlogP_VSA4>  (259) 
0.0

>  <SlogP_VSA5>  (259) 
10.357989

>  <SlogP_VSA6>  (259) 
30.331835

>  <SlogP_VSA7>  (259) 
0.0

>  <SlogP_VSA8>  (259) 
0.0

>  <SlogP_VSA9>  (259) 
0.0

>  <EState_VSA1>  (259) 
0.0

>  <EState_VSA10>  (259) 
4.794537

>  <EState_VSA11>  (259) 
0.0

>  <EState_VSA2>  (259) 
5.90718

>  <EState_VSA3>  (259) 
5.563451

>  <EState_VSA4>  (259) 
0.0

>  <EState_VSA5>  (259) 
0.0

>  <EState_VSA6>  (259) 
24.265468

>  <EState_VSA7>  (259) 
6.066367

>  <EState_VSA8>  (259) 
0.0

>  <EState_VSA9>  (259) 
5.733667

>  <VSA_EState1>  (259) 
0.0

>  <VSA_EState10>  (259) 
0.0

>  <VSA_EState2>  (259) 
10.423148

>  <VSA_EState3>  (259) 
0.0

>  <VSA_EState4>  (259) 
5.528056

>  <VSA_EState5>  (259) 
-0.379074

>  <VSA_EState6>  (259) 
8.761204

>  <VSA_EState7>  (259) 
0.0

>  <VSA_EState8>  (259) 
0.0

>  <VSA_EState9>  (259) 
0.0

>  <FractionCSP3>  (259) 
0.0

>  <HeavyAtomCount>  (259) 
9

>  <NHOHCount>  (259) 
2

>  <NOCount>  (259) 
2

>  <NumAliphaticCarbocycles>  (259) 
0

>  <NumAliphaticHeterocycles>  (259) 
0

>  <NumAliphaticRings>  (259) 
0

>  <NumAromaticCarbocycles>  (259) 
1

>  <NumAromaticHeterocycles>  (259) 
0

>  <NumAromaticRings>  (259) 
1

>  <NumHAcceptors>  (259) 
1

>  <NumHDonors>  (259) 
1

>  <NumHeteroatoms>  (259) 
2

>  <NumRotatableBonds>  (259) 
1

>  <NumSaturatedCarbocycles>  (259) 
0

>  <NumSaturatedHeterocycles>  (259) 
0

>  <NumSaturatedRings>  (259) 
0

>  <RingCount>  (259) 
1

>  <MolLogP>  (259) 
0.7855

>  <MolMR>  (259) 
34.9599

>  <fr_Al_COO>  (259) 
0

>  <fr_Al_OH>  (259) 
0

>  <fr_Al_OH_noTert>  (259) 
0

>  <fr_ArN>  (259) 
0

>  <fr_Ar_COO>  (259) 
0

>  <fr_Ar_N>  (259) 
0

>  <fr_Ar_NH>  (259) 
0

>  <fr_Ar_OH>  (259) 
0

>  <fr_COO>  (259) 
0

>  <fr_COO2>  (259) 
0

>  <fr_C_O>  (259) 
1

>  <fr_C_O_noCOO>  (259) 
1

>  <fr_C_S>  (259) 
0

>  <fr_HOCCN>  (259) 
0

>  <fr_Imine>  (259) 
0

>  <fr_NH0>  (259) 
0

>  <fr_NH1>  (259) 
0

>  <fr_NH2>  (259) 
1

>  <fr_N_O>  (259) 
0

>  <fr_Ndealkylation1>  (259) 
0

>  <fr_Ndealkylation2>  (259) 
0

>  <fr_Nhpyrrole>  (259) 
0

>  <fr_SH>  (259) 
0

>  <fr_aldehyde>  (259) 
0

>  <fr_alkyl_carbamate>  (259) 
0

>  <fr_alkyl_halide>  (259) 
0

>  <fr_allylic_oxid>  (259) 
0

>  <fr_amide>  (259) 
1

>  <fr_amidine>  (259) 
0

>  <fr_aniline>  (259) 
0

>  <fr_aryl_methyl>  (259) 
0

>  <fr_azide>  (259) 
0

>  <fr_azo>  (259) 
0

>  <fr_barbitur>  (259) 
0

>  <fr_benzene>  (259) 
1

>  <fr_benzodiazepine>  (259) 
0

>  <fr_bicyclic>  (259) 
0

>  <fr_diazo>  (259) 
0

>  <fr_dihydropyridine>  (259) 
0

>  <fr_epoxide>  (259) 
0

>  <fr_ester>  (259) 
0

>  <fr_ether>  (259) 
0

>  <fr_furan>  (259) 
0

>  <fr_guanido>  (259) 
0

>  <fr_halogen>  (259) 
0

>  <fr_hdrzine>  (259) 
0

>  <fr_hdrzone>  (259) 
0

>  <fr_imidazole>  (259) 
0

>  <fr_imide>  (259) 
0

>  <fr_isocyan>  (259) 
0

>  <fr_isothiocyan>  (259) 
0

>  <fr_ketone>  (259) 
0

>  <fr_ketone_Topliss>  (259) 
0

>  <fr_lactam>  (259) 
0

>  <fr_lactone>  (259) 
0

>  <fr_methoxy>  (259) 
0

>  <fr_morpholine>  (259) 
0

>  <fr_nitrile>  (259) 
0

>  <fr_nitro>  (259) 
0

>  <fr_nitro_arom>  (259) 
0

>  <fr_nitro_arom_nonortho>  (259) 
0

>  <fr_nitroso>  (259) 
0

>  <fr_oxazole>  (259) 
0

>  <fr_oxime>  (259) 
0

>  <fr_para_hydroxylation>  (259) 
0

>  <fr_phenol>  (259) 
0

>  <fr_phenol_noOrthoHbond>  (259) 
0

>  <fr_phos_acid>  (259) 
0

>  <fr_phos_ester>  (259) 
0

>  <fr_piperdine>  (259) 
0

>  <fr_piperzine>  (259) 
0

>  <fr_priamide>  (259) 
1

>  <fr_prisulfonamd>  (259) 
0

>  <fr_pyridine>  (259) 
0

>  <fr_quatN>  (259) 
0

>  <fr_sulfide>  (259) 
0

>  <fr_sulfonamd>  (259) 
0

>  <fr_sulfone>  (259) 
0

>  <fr_term_acetylene>  (259) 
0

>  <fr_tetrazole>  (259) 
0

>  <fr_thiazole>  (259) 
0

>  <fr_thiocyan>  (259) 
0

>  <fr_thiophene>  (259) 
0

>  <fr_unbrch_alkane>  (259) 
0

>  <fr_urea>  (259) 
0

>  <NP_Likeness>  (259) 
-0.889778

$$$$
UNU
     RDKit          3D

  0  0  0  0  0  0  0  0  0  0999 V3000
M  V30 BEGIN CTAB
M  V30 COUNTS 16 16 0 0 0
M  V30 BEGIN ATOM
M  V30 1 O 19.447500 2.097800 1.618800 0
M  V30 2 N 21.167700 3.172400 2.627700 0
M  V30 3 C 17.987000 2.423000 6.436000 0
M  V30 4 C 19.356000 2.593000 6.374000 0
M  V30 5 C 17.265000 2.240000 5.272000 0
M  V30 6 C 20.004000 2.600000 5.150000 0
M  V30 7 C 17.907000 2.247000 4.045000 0
M  V30 8 C 19.988000 2.563000 2.648000 0
M  V30 9 C 19.284000 2.443000 3.971000 0
M  V30 10 H 21.561100 3.528600 3.475300 0
M  V30 11 H 21.662700 3.275000 1.764900 0
M  V30 12 H 17.519700 2.432300 7.320100 0
M  V30 13 H 19.881700 2.711500 7.216400 0
M  V30 14 H 16.275500 2.102000 5.315900 0
M  V30 15 H 20.996300 2.718800 5.114000 0
M  V30 16 H 17.378700 2.110500 3.207000 0
M  V30 END ATOM
M  V30 BEGIN BOND
M  V30 1 2 1 8
M  V30 2 1 2 8
M  V30 3 2 3 4
M  V30 4 1 3 5
M  V30 5 1 4 6
M  V30 6 2 5 7
M  V30 7 2 6 9
M  V30 8 1 7 9
M  V30 9 1 8 9
M  V30 10 1 2 10
M  V30 11 1 2 11
M  V30 12 1 3 12
M  V30 13 1 4 13
M  V30 14 1 5 14
M  V30 15 1 6 15
M  V30 16 1 7 16
M  V30 END BOND
M  V30 END CTAB
M  END
>  <Ligand_Instance>  (260) 
6SNX_UNU_A_402

>  <Dataset>  (260) 
PDB

>  <PDB_ID>  (260) 
6SNX

>  <Chain>  (260) 
A

>  <Resi>  (260) 
402

>  <Num_Resolved_Atoms>  (260) 
9

>  <Num_H_Atoms_ProtBoundConf>  (260) 
7

>  <Pocket>  (260) 
F

>  <Name>  (260) 
BENZAMIDE

>  <Num_Not_Resolved_Atoms>  (260) 
0

>  <ATP_Site>  (260) 
True

>  <Peripheral>  (260) 
True

>  <Standardized_SMILES>  (260) 
[H]C1=C([H])C([H])=C(C(=O)N([H])[H])C([H])=C1[H]

>  <2D_Mol_H>  (260) 
<rdkit.Chem.rdchem.Mol object at 0x77059d84c5f0>

>  <MW>  (260) 
121.139

>  <HBA>  (260) 
1

>  <HBD>  (260) 
1

>  <LogP>  (260) 
0.7855

>  <NRB>  (260) 
1

>  <TPSA>  (260) 
43.09

>  <Num_Heavy_Atoms>  (260) 
9

>  <Ro5>  (260) 
[True, True, True, True, True, True]

>  <Ro5_Fulfilled>  (260) 
True

>  <Ro3>  (260) 
[True, True, True, True]

>  <Ro3_Fulfilled>  (260) 
True

>  <Fsp3>  (260) 
0.0

>  <Fsp3_0.42>  (260) 
False

>  <Fsp3_0.45>  (260) 
False

>  <Stereogenic_Carbons>  (260) 
0

>  <C_Atoms>  (260) 
7

>  <FCStereo>  (260) 
0.0

>  <SPS>  (260) 
80

>  <nSPS>  (260) 
8.888889

>  <PBF>  (260) 
0.168858

>  <PBF_0.6>  (260) 
False

>  <nPBF>  (260) 
0.018762

>  <nPBF_0.016>  (260) 
True

>  <PMI1>  (260) 
129.988949

>  <PMI2>  (260) 
411.291534

>  <PMI3>  (260) 
534.005553

>  <NPR1>  (260) 
0.243422

>  <NPR2>  (260) 
0.770201

>  <Sum_NPR>  (260) 
1.013623

>  <Sum_NPR_1.07>  (260) 
False

>  <Sum_NPR_1.2>  (260) 
False

>  <MaxAbsEStateIndex>  (260) 
10.423148

>  <MaxEStateIndex>  (260) 
10.423148

>  <MinAbsEStateIndex>  (260) 
0.379074

>  <MinEStateIndex>  (260) 
-0.379074

>  <qed>  (260) 
0.585937

>  <MolWt>  (260) 
121.139

>  <HeavyAtomMolWt>  (260) 
114.083

>  <ExactMolWt>  (260) 
121.052764

>  <NumValenceElectrons>  (260) 
46

>  <NumRadicalElectrons>  (260) 
0

>  <MaxPartialCharge>  (260) 
0.248195

>  <MinPartialCharge>  (260) 
-0.3656

>  <MaxAbsPartialCharge>  (260) 
0.3656

>  <MinAbsPartialCharge>  (260) 
0.248195

>  <FpDensityMorgan1>  (260) 
1.222222

>  <FpDensityMorgan2>  (260) 
1.777778

>  <FpDensityMorgan3>  (260) 
2.111111

>  <BCUT2D_MWHI>  (260) 
16.146256

>  <BCUT2D_MWLOW>  (260) 
10.203416

>  <BCUT2D_CHGHI>  (260) 
1.932353

>  <BCUT2D_CHGLO>  (260) 
-1.889749

>  <BCUT2D_LOGPHI>  (260) 
1.942031

>  <BCUT2D_LOGPLOW>  (260) 
-2.094426

>  <BCUT2D_MRHI>  (260) 
5.920744

>  <BCUT2D_MRLOW>  (260) 
0.100007

>  <AvgIpc>  (260) 
1.900373

>  <BalabanJ>  (260) 
2.981455

>  <BertzCT>  (260) 
205.415953

>  <Chi0>  (260) 
6.690234

>  <Chi0n>  (260) 
4.87235

>  <Chi0v>  (260) 
4.87235

>  <Chi1>  (260) 
4.30453

>  <Chi1n>  (260) 
2.653483

>  <Chi1v>  (260) 
2.653483

>  <Chi2n>  (260) 
1.730276

>  <Chi2v>  (260) 
1.730276

>  <Chi3n>  (260) 
1.058307

>  <Chi3v>  (260) 
1.058307

>  <Chi4n>  (260) 
0.602419

>  <Chi4v>  (260) 
0.602419

>  <HallKierAlpha>  (260) 
-1.31

>  <Ipc>  (260) 
129.225339

>  <Kappa1>  (260) 
5.820039

>  <Kappa2>  (260) 
2.306764

>  <Kappa3>  (260) 
1.287705

>  <LabuteASA>  (260) 
53.297758

>  <PEOE_VSA1>  (260) 
5.733667

>  <PEOE_VSA10>  (260) 
0.0

>  <PEOE_VSA11>  (260) 
0.0

>  <PEOE_VSA12>  (260) 
5.90718

>  <PEOE_VSA13>  (260) 
0.0

>  <PEOE_VSA14>  (260) 
0.0

>  <PEOE_VSA2>  (260) 
4.794537

>  <PEOE_VSA3>  (260) 
0.0

>  <PEOE_VSA4>  (260) 
0.0

>  <PEOE_VSA5>  (260) 
0.0

>  <PEOE_VSA6>  (260) 
18.199101

>  <PEOE_VSA7>  (260) 
12.132734

>  <PEOE_VSA8>  (260) 
5.563451

>  <PEOE_VSA9>  (260) 
0.0

>  <SMR_VSA1>  (260) 
4.794537

>  <SMR_VSA10>  (260) 
5.90718

>  <SMR_VSA2>  (260) 
0.0

>  <SMR_VSA3>  (260) 
0.0

>  <SMR_VSA4>  (260) 
5.733667

>  <SMR_VSA5>  (260) 
0.0

>  <SMR_VSA6>  (260) 
0.0

>  <SMR_VSA7>  (260) 
35.895287

>  <SMR_VSA8>  (260) 
0.0

>  <SMR_VSA9>  (260) 
0.0

>  <SlogP_VSA1>  (260) 
5.733667

>  <SlogP_VSA10>  (260) 
0.0

>  <SlogP_VSA11>  (260) 
0.0

>  <SlogP_VSA12>  (260) 
0.0

>  <SlogP_VSA2>  (260) 
5.90718

>  <SlogP_VSA3>  (260) 
0.0

>  <SlogP_VSA4>  (260) 
0.0

>  <SlogP_VSA5>  (260) 
10.357989

>  <SlogP_VSA6>  (260) 
30.331835

>  <SlogP_VSA7>  (260) 
0.0

>  <SlogP_VSA8>  (260) 
0.0

>  <SlogP_VSA9>  (260) 
0.0

>  <EState_VSA1>  (260) 
0.0

>  <EState_VSA10>  (260) 
4.794537

>  <EState_VSA11>  (260) 
0.0

>  <EState_VSA2>  (260) 
5.90718

>  <EState_VSA3>  (260) 
5.563451

>  <EState_VSA4>  (260) 
0.0

>  <EState_VSA5>  (260) 
0.0

>  <EState_VSA6>  (260) 
24.265468

>  <EState_VSA7>  (260) 
6.066367

>  <EState_VSA8>  (260) 
0.0

>  <EState_VSA9>  (260) 
5.733667

>  <VSA_EState1>  (260) 
0.0

>  <VSA_EState10>  (260) 
0.0

>  <VSA_EState2>  (260) 
10.423148

>  <VSA_EState3>  (260) 
0.0

>  <VSA_EState4>  (260) 
5.528056

>  <VSA_EState5>  (260) 
-0.379074

>  <VSA_EState6>  (260) 
8.761204

>  <VSA_EState7>  (260) 
0.0

>  <VSA_EState8>  (260) 
0.0

>  <VSA_EState9>  (260) 
0.0

>  <FractionCSP3>  (260) 
0.0

>  <HeavyAtomCount>  (260) 
9

>  <NHOHCount>  (260) 
2

>  <NOCount>  (260) 
2

>  <NumAliphaticCarbocycles>  (260) 
0

>  <NumAliphaticHeterocycles>  (260) 
0

>  <NumAliphaticRings>  (260) 
0

>  <NumAromaticCarbocycles>  (260) 
1

>  <NumAromaticHeterocycles>  (260) 
0

>  <NumAromaticRings>  (260) 
1

>  <NumHAcceptors>  (260) 
1

>  <NumHDonors>  (260) 
1

>  <NumHeteroatoms>  (260) 
2

>  <NumRotatableBonds>  (260) 
1

>  <NumSaturatedCarbocycles>  (260) 
0

>  <NumSaturatedHeterocycles>  (260) 
0

>  <NumSaturatedRings>  (260) 
0

>  <RingCount>  (260) 
1

>  <MolLogP>  (260) 
0.7855

>  <MolMR>  (260) 
34.9599

>  <fr_Al_COO>  (260) 
0

>  <fr_Al_OH>  (260) 
0

>  <fr_Al_OH_noTert>  (260) 
0

>  <fr_ArN>  (260) 
0

>  <fr_Ar_COO>  (260) 
0

>  <fr_Ar_N>  (260) 
0

>  <fr_Ar_NH>  (260) 
0

>  <fr_Ar_OH>  (260) 
0

>  <fr_COO>  (260) 
0

>  <fr_COO2>  (260) 
0

>  <fr_C_O>  (260) 
1

>  <fr_C_O_noCOO>  (260) 
1

>  <fr_C_S>  (260) 
0

>  <fr_HOCCN>  (260) 
0

>  <fr_Imine>  (260) 
0

>  <fr_NH0>  (260) 
0

>  <fr_NH1>  (260) 
0

>  <fr_NH2>  (260) 
1

>  <fr_N_O>  (260) 
0

>  <fr_Ndealkylation1>  (260) 
0

>  <fr_Ndealkylation2>  (260) 
0

>  <fr_Nhpyrrole>  (260) 
0

>  <fr_SH>  (260) 
0

>  <fr_aldehyde>  (260) 
0

>  <fr_alkyl_carbamate>  (260) 
0

>  <fr_alkyl_halide>  (260) 
0

>  <fr_allylic_oxid>  (260) 
0

>  <fr_amide>  (260) 
1

>  <fr_amidine>  (260) 
0

>  <fr_aniline>  (260) 
0

>  <fr_aryl_methyl>  (260) 
0

>  <fr_azide>  (260) 
0

>  <fr_azo>  (260) 
0

>  <fr_barbitur>  (260) 
0

>  <fr_benzene>  (260) 
1

>  <fr_benzodiazepine>  (260) 
0

>  <fr_bicyclic>  (260) 
0

>  <fr_diazo>  (260) 
0

>  <fr_dihydropyridine>  (260) 
0

>  <fr_epoxide>  (260) 
0

>  <fr_ester>  (260) 
0

>  <fr_ether>  (260) 
0

>  <fr_furan>  (260) 
0

>  <fr_guanido>  (260) 
0

>  <fr_halogen>  (260) 
0

>  <fr_hdrzine>  (260) 
0

>  <fr_hdrzone>  (260) 
0

>  <fr_imidazole>  (260) 
0

>  <fr_imide>  (260) 
0

>  <fr_isocyan>  (260) 
0

>  <fr_isothiocyan>  (260) 
0

>  <fr_ketone>  (260) 
0

>  <fr_ketone_Topliss>  (260) 
0

>  <fr_lactam>  (260) 
0

>  <fr_lactone>  (260) 
0

>  <fr_methoxy>  (260) 
0

>  <fr_morpholine>  (260) 
0

>  <fr_nitrile>  (260) 
0

>  <fr_nitro>  (260) 
0

>  <fr_nitro_arom>  (260) 
0

>  <fr_nitro_arom_nonortho>  (260) 
0

>  <fr_nitroso>  (260) 
0

>  <fr_oxazole>  (260) 
0

>  <fr_oxime>  (260) 
0

>  <fr_para_hydroxylation>  (260) 
0

>  <fr_phenol>  (260) 
0

>  <fr_phenol_noOrthoHbond>  (260) 
0

>  <fr_phos_acid>  (260) 
0

>  <fr_phos_ester>  (260) 
0

>  <fr_piperdine>  (260) 
0

>  <fr_piperzine>  (260) 
0

>  <fr_priamide>  (260) 
1

>  <fr_prisulfonamd>  (260) 
0

>  <fr_pyridine>  (260) 
0

>  <fr_quatN>  (260) 
0

>  <fr_sulfide>  (260) 
0

>  <fr_sulfonamd>  (260) 
0

>  <fr_sulfone>  (260) 
0

>  <fr_term_acetylene>  (260) 
0

>  <fr_tetrazole>  (260) 
0

>  <fr_thiazole>  (260) 
0

>  <fr_thiocyan>  (260) 
0

>  <fr_thiophene>  (260) 
0

>  <fr_unbrch_alkane>  (260) 
0

>  <fr_urea>  (260) 
0

>  <NP_Likeness>  (260) 
-0.889778

$$$$
VUP
     RDKit          3D

  0  0  0  0  0  0  0  0  0  0999 V3000
M  V30 BEGIN CTAB
M  V30 COUNTS 30 32 0 0 0
M  V30 BEGIN ATOM
M  V30 1 O 31.640000 -10.370000 5.329000 0
M  V30 2 N 32.243000 -9.825000 1.981000 0
M  V30 3 N 32.526000 -10.229000 4.266000 0
M  V30 4 N 30.319000 -10.244000 4.911000 0
M  V30 5 N 26.226000 -10.194000 -0.657000 0
M  V30 6 N 29.415000 -10.082000 1.381000 0
M  V30 7 N 27.949000 -9.845000 3.087000 0
M  V30 8 C 27.023000 -10.892000 5.124000 0
M  V30 9 C 23.913000 -10.078000 0.047000 0
M  V30 10 C 27.390000 -9.614000 4.435000 0
M  V30 11 C 27.538000 -10.196000 -0.390000 0
M  V30 12 C 25.808000 -9.927000 1.694000 0
M  V30 13 C 31.773000 -10.034000 3.214000 0
M  V30 14 C 29.262000 -9.945000 2.685000 0
M  V30 15 C 25.373000 -10.067000 0.384000 0
M  V30 16 C 28.115000 -10.086000 0.876000 0
M  V30 17 C 30.393000 -10.039000 3.618000 0
M  V30 18 C 27.188000 -9.940000 1.915000 0
M  V30 19 H 31.608300 -9.682900 1.221400 0
M  V30 20 H 33.229500 -9.810700 1.817700 0
M  V30 21 H 26.650500 -10.687600 6.029200 0
M  V30 22 H 26.336300 -11.377200 4.582700 0
M  V30 23 H 27.837200 -11.464600 5.220100 0
M  V30 24 H 23.376700 -9.978400 0.885100 0
M  V30 25 H 23.708100 -9.319800 -0.572000 0
M  V30 26 H 23.679900 -10.943200 -0.397000 0
M  V30 27 H 26.570500 -9.047200 4.350600 0
M  V30 28 H 28.071400 -9.134600 4.988000 0
M  V30 29 H 28.160500 -10.284200 -1.167600 0
M  V30 30 H 25.160800 -9.821200 2.449000 0
M  V30 END ATOM
M  V30 BEGIN BOND
M  V30 1 1 1 3
M  V30 2 1 1 4
M  V30 3 1 2 13
M  V30 4 2 3 13
M  V30 5 2 4 17
M  V30 6 2 5 11
M  V30 7 1 5 15
M  V30 8 2 6 14
M  V30 9 1 6 16
M  V30 10 1 7 10
M  V30 11 1 7 14
M  V30 12 1 7 18
M  V30 13 1 8 10
M  V30 14 1 9 15
M  V30 15 1 11 16
M  V30 16 2 12 15
M  V30 17 1 12 18
M  V30 18 1 13 17
M  V30 19 1 14 17
M  V30 20 2 16 18
M  V30 21 1 2 19
M  V30 22 1 2 20
M  V30 23 1 8 21
M  V30 24 1 8 22
M  V30 25 1 8 23
M  V30 26 1 9 24
M  V30 27 1 9 25
M  V30 28 1 9 26
M  V30 29 1 10 27
M  V30 30 1 10 28
M  V30 31 1 11 29
M  V30 32 1 12 30
M  V30 END BOND
M  V30 END CTAB
M  END
>  <Ligand_Instance>  (261) 
4C38_VUP_A_1351

>  <Dataset>  (261) 
PDB

>  <PDB_ID>  (261) 
4C38

>  <Chain>  (261) 
A

>  <Resi>  (261) 
1351

>  <Num_Resolved_Atoms>  (261) 
18

>  <Num_H_Atoms_ProtBoundConf>  (261) 
12

>  <Pocket>  (261) 
A

>  <Name>  (261) 
4-(1-ethyl-6-methyl-imidazo[4,5-c]pyridin-2-yl)-1,2,5-oxadiazol-3-amine

>  <Num_Not_Resolved_Atoms>  (261) 
0

>  <ATP_Site>  (261) 
True

>  <Peripheral>  (261) 
False

>  <Standardized_SMILES>  (261) 
[H]C1=C2N=C(C3=NON=C3N([H])[H])N(C([H])([H])C([H])([H])[H])C2=C([H])C(C([H])([H])[H])=N1

>  <2D_Mol_H>  (261) 
<rdkit.Chem.rdchem.Mol object at 0x77059d84c6d0>

>  <MW>  (261) 
244.258

>  <HBA>  (261) 
7

>  <HBD>  (261) 
1

>  <LogP>  (261) 
1.39182

>  <NRB>  (261) 
5

>  <TPSA>  (261) 
95.65

>  <Num_Heavy_Atoms>  (261) 
18

>  <Ro5>  (261) 
[True, True, True, True, True, True]

>  <Ro5_Fulfilled>  (261) 
True

>  <Ro3>  (261) 
[True, False, True, True]

>  <Ro3_Fulfilled>  (261) 
True

>  <Fsp3>  (261) 
0.272727

>  <Fsp3_0.42>  (261) 
False

>  <Fsp3_0.45>  (261) 
False

>  <Stereogenic_Carbons>  (261) 
0

>  <C_Atoms>  (261) 
11

>  <FCStereo>  (261) 
0.0

>  <SPS>  (261) 
202

>  <nSPS>  (261) 
11.222222

>  <PBF>  (261) 
0.368775

>  <PBF_0.6>  (261) 
False

>  <nPBF>  (261) 
0.020487

>  <nPBF_0.016>  (261) 
True

>  <PMI1>  (261) 
532.241407

>  <PMI2>  (261) 
1973.574079

>  <PMI3>  (261) 
2463.418289

>  <NPR1>  (261) 
0.216058

>  <NPR2>  (261) 
0.801153

>  <Sum_NPR>  (261) 
1.017211

>  <Sum_NPR_1.07>  (261) 
False

>  <Sum_NPR_1.2>  (261) 
False

>  <MaxAbsEStateIndex>  (261) 
5.711585

>  <MaxEStateIndex>  (261) 
5.711585

>  <MinAbsEStateIndex>  (261) 
0.240451

>  <MinEStateIndex>  (261) 
0.240451

>  <qed>  (261) 
0.731401

>  <MolWt>  (261) 
244.258

>  <HeavyAtomMolWt>  (261) 
232.162

>  <ExactMolWt>  (261) 
244.107259

>  <NumValenceElectrons>  (261) 
92

>  <NumRadicalElectrons>  (261) 
0

>  <MaxPartialCharge>  (261) 
0.199153

>  <MinPartialCharge>  (261) 
-0.378861

>  <MaxAbsPartialCharge>  (261) 
0.378861

>  <MinAbsPartialCharge>  (261) 
0.199153

>  <FpDensityMorgan1>  (261) 
1.388889

>  <FpDensityMorgan2>  (261) 
2.222222

>  <FpDensityMorgan3>  (261) 
2.888889

>  <BCUT2D_MWHI>  (261) 
16.564437

>  <BCUT2D_MWLOW>  (261) 
10.311046

>  <BCUT2D_CHGHI>  (261) 
2.178368

>  <BCUT2D_CHGLO>  (261) 
-2.02845

>  <BCUT2D_LOGPHI>  (261) 
2.257472

>  <BCUT2D_LOGPLOW>  (261) 
-1.996305

>  <BCUT2D_MRHI>  (261) 
5.806924

>  <BCUT2D_MRLOW>  (261) 
0.309783

>  <AvgIpc>  (261) 
2.911524

>  <BalabanJ>  (261) 
2.330373

>  <BertzCT>  (261) 
713.468242

>  <Chi0>  (261) 
12.698306

>  <Chi0n>  (261) 
10.083474

>  <Chi0v>  (261) 
10.083474

>  <Chi1>  (261) 
8.702709

>  <Chi1n>  (261) 
5.61663

>  <Chi1v>  (261) 
5.61663

>  <Chi2n>  (261) 
3.992139

>  <Chi2v>  (261) 
3.992139

>  <Chi3n>  (261) 
2.813262

>  <Chi3v>  (261) 
2.813262

>  <Chi4n>  (261) 
1.980532

>  <Chi4v>  (261) 
1.980532

>  <HallKierAlpha>  (261) 
-2.44

>  <Ipc>  (261) 
22861.286895

>  <Kappa1>  (261) 
10.697525

>  <Kappa2>  (261) 
3.795112

>  <Kappa3>  (261) 
1.438682

>  <LabuteASA>  (261) 
102.599645

>  <PEOE_VSA1>  (261) 
10.300767

>  <PEOE_VSA10>  (261) 
5.516701

>  <PEOE_VSA11>  (261) 
17.336195

>  <PEOE_VSA12>  (261) 
0.0

>  <PEOE_VSA13>  (261) 
0.0

>  <PEOE_VSA14>  (261) 
0.0

>  <PEOE_VSA2>  (261) 
4.983979

>  <PEOE_VSA3>  (261) 
9.613017

>  <PEOE_VSA4>  (261) 
0.0

>  <PEOE_VSA5>  (261) 
0.0

>  <PEOE_VSA6>  (261) 
0.0

>  <PEOE_VSA7>  (261) 
30.227168

>  <PEOE_VSA8>  (261) 
12.238684

>  <PEOE_VSA9>  (261) 
11.713544

>  <SMR_VSA1>  (261) 
4.629039

>  <SMR_VSA10>  (261) 
16.851264

>  <SMR_VSA2>  (261) 
0.0

>  <SMR_VSA3>  (261) 
24.848383

>  <SMR_VSA4>  (261) 
0.0

>  <SMR_VSA5>  (261) 
20.392231

>  <SMR_VSA6>  (261) 
5.733667

>  <SMR_VSA7>  (261) 
17.957139

>  <SMR_VSA8>  (261) 
0.0

>  <SMR_VSA9>  (261) 
11.518332

>  <SlogP_VSA1>  (261) 
5.733667

>  <SlogP_VSA10>  (261) 
5.817863

>  <SlogP_VSA11>  (261) 
0.0

>  <SlogP_VSA12>  (261) 
0.0

>  <SlogP_VSA2>  (261) 
24.848383

>  <SlogP_VSA3>  (261) 
6.544756

>  <SlogP_VSA4>  (261) 
6.923737

>  <SlogP_VSA5>  (261) 
12.617665

>  <SlogP_VSA6>  (261) 
16.89225

>  <SlogP_VSA7>  (261) 
0.0

>  <SlogP_VSA8>  (261) 
22.551734

>  <SlogP_VSA9>  (261) 
0.0

>  <EState_VSA1>  (261) 
0.0

>  <EState_VSA10>  (261) 
0.0

>  <EState_VSA11>  (261) 
0.0

>  <EState_VSA2>  (261) 
5.817863

>  <EState_VSA3>  (261) 
11.518332

>  <EState_VSA4>  (261) 
23.272086

>  <EState_VSA5>  (261) 
0.0

>  <EState_VSA6>  (261) 
6.196844

>  <EState_VSA7>  (261) 
24.480941

>  <EState_VSA8>  (261) 
24.910322

>  <EState_VSA9>  (261) 
5.733667

>  <VSA_EState1>  (261) 
6.638758

>  <VSA_EState10>  (261) 
0.0

>  <VSA_EState2>  (261) 
8.719135

>  <VSA_EState3>  (261) 
7.376313

>  <VSA_EState4>  (261) 
8.92256

>  <VSA_EState5>  (261) 
0.891979

>  <VSA_EState6>  (261) 
1.985154

>  <VSA_EState7>  (261) 
1.740108

>  <VSA_EState8>  (261) 
4.725993

>  <VSA_EState9>  (261) 
0.0

>  <FractionCSP3>  (261) 
0.272727

>  <HeavyAtomCount>  (261) 
18

>  <NHOHCount>  (261) 
2

>  <NOCount>  (261) 
7

>  <NumAliphaticCarbocycles>  (261) 
0

>  <NumAliphaticHeterocycles>  (261) 
0

>  <NumAliphaticRings>  (261) 
0

>  <NumAromaticCarbocycles>  (261) 
0

>  <NumAromaticHeterocycles>  (261) 
3

>  <NumAromaticRings>  (261) 
3

>  <NumHAcceptors>  (261) 
7

>  <NumHDonors>  (261) 
1

>  <NumHeteroatoms>  (261) 
7

>  <NumRotatableBonds>  (261) 
2

>  <NumSaturatedCarbocycles>  (261) 
0

>  <NumSaturatedHeterocycles>  (261) 
0

>  <NumSaturatedRings>  (261) 
0

>  <RingCount>  (261) 
3

>  <MolLogP>  (261) 
1.39182

>  <MolMR>  (261) 
65.6434

>  <fr_Al_COO>  (261) 
0

>  <fr_Al_OH>  (261) 
0

>  <fr_Al_OH_noTert>  (261) 
0

>  <fr_ArN>  (261) 
1

>  <fr_Ar_COO>  (261) 
0

>  <fr_Ar_N>  (261) 
5

>  <fr_Ar_NH>  (261) 
0

>  <fr_Ar_OH>  (261) 
0

>  <fr_COO>  (261) 
0

>  <fr_COO2>  (261) 
0

>  <fr_C_O>  (261) 
0

>  <fr_C_O_noCOO>  (261) 
0

>  <fr_C_S>  (261) 
0

>  <fr_HOCCN>  (261) 
0

>  <fr_Imine>  (261) 
0

>  <fr_NH0>  (261) 
5

>  <fr_NH1>  (261) 
0

>  <fr_NH2>  (261) 
1

>  <fr_N_O>  (261) 
0

>  <fr_Ndealkylation1>  (261) 
0

>  <fr_Ndealkylation2>  (261) 
0

>  <fr_Nhpyrrole>  (261) 
0

>  <fr_SH>  (261) 
0

>  <fr_aldehyde>  (261) 
0

>  <fr_alkyl_carbamate>  (261) 
0

>  <fr_alkyl_halide>  (261) 
0

>  <fr_allylic_oxid>  (261) 
0

>  <fr_amide>  (261) 
0

>  <fr_amidine>  (261) 
0

>  <fr_aniline>  (261) 
1

>  <fr_aryl_methyl>  (261) 
2

>  <fr_azide>  (261) 
0

>  <fr_azo>  (261) 
0

>  <fr_barbitur>  (261) 
0

>  <fr_benzene>  (261) 
0

>  <fr_benzodiazepine>  (261) 
0

>  <fr_bicyclic>  (261) 
1

>  <fr_diazo>  (261) 
0

>  <fr_dihydropyridine>  (261) 
0

>  <fr_epoxide>  (261) 
0

>  <fr_ester>  (261) 
0

>  <fr_ether>  (261) 
0

>  <fr_furan>  (261) 
0

>  <fr_guanido>  (261) 
0

>  <fr_halogen>  (261) 
0

>  <fr_hdrzine>  (261) 
0

>  <fr_hdrzone>  (261) 
0

>  <fr_imidazole>  (261) 
1

>  <fr_imide>  (261) 
0

>  <fr_isocyan>  (261) 
0

>  <fr_isothiocyan>  (261) 
0

>  <fr_ketone>  (261) 
0

>  <fr_ketone_Topliss>  (261) 
0

>  <fr_lactam>  (261) 
0

>  <fr_lactone>  (261) 
0

>  <fr_methoxy>  (261) 
0

>  <fr_morpholine>  (261) 
0

>  <fr_nitrile>  (261) 
0

>  <fr_nitro>  (261) 
0

>  <fr_nitro_arom>  (261) 
0

>  <fr_nitro_arom_nonortho>  (261) 
0

>  <fr_nitroso>  (261) 
0

>  <fr_oxazole>  (261) 
0

>  <fr_oxime>  (261) 
0

>  <fr_para_hydroxylation>  (261) 
0

>  <fr_phenol>  (261) 
0

>  <fr_phenol_noOrthoHbond>  (261) 
0

>  <fr_phos_acid>  (261) 
0

>  <fr_phos_ester>  (261) 
0

>  <fr_piperdine>  (261) 
0

>  <fr_piperzine>  (261) 
0

>  <fr_priamide>  (261) 
0

>  <fr_prisulfonamd>  (261) 
0

>  <fr_pyridine>  (261) 
1

>  <fr_quatN>  (261) 
0

>  <fr_sulfide>  (261) 
0

>  <fr_sulfonamd>  (261) 
0

>  <fr_sulfone>  (261) 
0

>  <fr_term_acetylene>  (261) 
0

>  <fr_tetrazole>  (261) 
0

>  <fr_thiazole>  (261) 
0

>  <fr_thiocyan>  (261) 
0

>  <fr_thiophene>  (261) 
0

>  <fr_unbrch_alkane>  (261) 
0

>  <fr_urea>  (261) 
0

>  <NP_Likeness>  (261) 
-1.471822

$$$$
VX6
     RDKit          3D

  0  0  0  0  0  0  0  0  0  0999 V3000
M  V30 BEGIN CTAB
M  V30 COUNTS 62 66 0 0 0
M  V30 BEGIN ATOM
M  V30 1 S -27.647000 -10.277000 -8.587000 0
M  V30 2 O -27.365000 -11.304000 -1.798000 0
M  V30 3 N -33.448000 -9.708000 -5.167000 0
M  V30 4 N -33.124000 -9.883000 -3.994000 0
M  V30 5 N -30.257000 -9.980000 -7.947000 0
M  V30 6 N -32.502000 -9.734000 -7.289000 0
M  V30 7 N -29.690000 -9.929000 -10.222000 0
M  V30 8 N -27.094000 -9.243000 -2.764000 0
M  V30 9 N -31.751000 -8.481000 -14.485000 0 CHG=1
M  V30 10 N -31.282000 -9.631000 -11.961000 0
M  V30 11 C -31.818000 -7.373000 -15.442000 0
M  V30 12 C -31.084000 -10.397000 -2.618000 0
M  V30 13 C -30.341000 -8.625000 -14.049000 0
M  V30 14 C -32.681000 -8.169000 -13.373000 0
M  V30 15 C -30.198000 -9.738000 -13.002000 0
M  V30 16 C -32.687000 -9.355000 -12.402000 0
M  V30 17 C -27.455000 -8.680000 -6.342000 0
M  V30 18 C -27.385000 -11.057000 -5.961000 0
M  V30 19 C -27.336000 -8.444000 -4.964000 0
M  V30 20 C -27.250000 -10.822000 -4.588000 0
M  V30 21 C -27.811000 -9.928000 0.748000 0
M  V30 22 C -26.310000 -10.276000 0.706000 0
M  V30 23 C -31.939000 -9.690000 -9.580000 0
M  V30 24 C -31.316000 -10.134000 -5.175000 0
M  V30 25 C -29.341000 -10.038000 -8.929000 0
M  V30 26 C -27.142000 -10.087000 -1.735000 0
M  V30 27 C -32.390000 -9.865000 -5.952000 0
M  V30 28 C -31.557000 -9.807000 -8.236000 0
M  V30 29 C -27.498000 -9.983000 -6.840000 0
M  V30 30 C -30.969000 -9.757000 -10.585000 0
M  V30 31 C -31.823000 -10.142000 -3.940000 0
M  V30 32 C -27.235000 -9.517000 -4.076000 0
M  V30 33 C -26.920000 -9.406000 -0.399000 0
M  V30 34 H -33.427400 -9.556000 -7.623500 0
M  V30 35 H -26.932700 -8.283300 -2.533800 0
M  V30 36 H -32.761800 -7.256200 -15.751200 0
M  V30 37 H -31.505300 -6.531900 -15.000600 0
M  V30 38 H -31.232600 -7.574900 -16.227200 0
M  V30 39 H -30.117000 -10.570500 -2.804800 0
M  V30 40 H -31.170700 -9.594600 -2.027500 0
M  V30 41 H -31.483100 -11.191900 -2.161000 0
M  V30 42 H -30.032100 -7.760900 -13.651600 0
M  V30 43 H -29.774800 -8.848200 -14.842500 0
M  V30 44 H -33.602200 -8.022900 -13.733700 0
M  V30 45 H -32.374600 -7.344400 -12.897400 0
M  V30 46 H -30.265100 -10.626500 -13.455900 0
M  V30 47 H -29.306100 -9.657600 -12.556900 0
M  V30 48 H -33.250900 -9.134100 -11.606300 0
M  V30 49 H -33.059200 -10.162000 -12.860600 0
M  V30 50 H -27.509600 -7.906700 -6.973700 0
M  V30 51 H -27.400300 -11.994000 -6.310000 0
M  V30 52 H -27.323500 -7.506100 -4.617300 0
M  V30 53 H -27.162900 -11.597200 -3.962300 0
M  V30 54 H -28.159400 -9.295200 1.439500 0
M  V30 55 H -28.494600 -10.635600 0.569100 0
M  V30 56 H -26.019700 -11.211000 0.502300 0
M  V30 57 H -25.684600 -9.870600 1.372700 0
M  V30 58 H -32.901200 -9.559200 -9.818900 0
M  V30 59 H -30.369500 -10.289500 -5.457700 0
M  V30 60 H -26.691200 -8.432500 -0.404900 0
M  V30 61 H -32.045300 -9.324200 -14.934900 0
M  V30 62 H -33.740500 -9.837600 -3.208000 0
M  V30 END ATOM
M  V30 BEGIN BOND
M  V30 1 1 1 25
M  V30 2 1 1 29
M  V30 3 2 2 26
M  V30 4 1 3 4
M  V30 5 2 3 27
M  V30 6 1 4 31
M  V30 7 2 5 25
M  V30 8 1 5 28
M  V30 9 1 6 27
M  V30 10 1 6 28
M  V30 11 1 7 25
M  V30 12 2 7 30
M  V30 13 1 8 26
M  V30 14 1 8 32
M  V30 15 1 9 11
M  V30 16 1 9 13
M  V30 17 1 9 14
M  V30 18 1 10 15
M  V30 19 1 10 16
M  V30 20 1 10 30
M  V30 21 1 12 31
M  V30 22 1 13 15
M  V30 23 1 14 16
M  V30 24 2 17 19
M  V30 25 1 17 29
M  V30 26 1 18 20
M  V30 27 2 18 29
M  V30 28 1 19 32
M  V30 29 2 20 32
M  V30 30 1 21 22
M  V30 31 1 21 33
M  V30 32 1 22 33
M  V30 33 2 23 28
M  V30 34 1 23 30
M  V30 35 1 24 27
M  V30 36 2 24 31
M  V30 37 1 26 33
M  V30 38 1 9 61
M  V30 39 1 6 34
M  V30 40 1 8 35
M  V30 41 1 11 36
M  V30 42 1 11 37
M  V30 43 1 11 38
M  V30 44 1 12 39
M  V30 45 1 12 40
M  V30 46 1 12 41
M  V30 47 1 13 42
M  V30 48 1 13 43
M  V30 49 1 14 44
M  V30 50 1 14 45
M  V30 51 1 15 46
M  V30 52 1 15 47
M  V30 53 1 16 48
M  V30 54 1 16 49
M  V30 55 1 17 50
M  V30 56 1 18 51
M  V30 57 1 19 52
M  V30 58 1 20 53
M  V30 59 1 21 54
M  V30 60 1 21 55
M  V30 61 1 22 56
M  V30 62 1 22 57
M  V30 63 1 23 58
M  V30 64 1 24 59
M  V30 65 1 33 60
M  V30 66 1 4 62
M  V30 END BOND
M  V30 END CTAB
M  END
>  <Ligand_Instance>  (262) 
3AMB_VX6_A_351

>  <Dataset>  (262) 
PDB

>  <PDB_ID>  (262) 
3AMB

>  <Chain>  (262) 
A

>  <Resi>  (262) 
351

>  <Num_Resolved_Atoms>  (262) 
33

>  <Num_H_Atoms_ProtBoundConf>  (262) 
29

>  <Pocket>  (262) 
A

>  <Name>  (262) 
CYCLOPROPANECARBOXYLIC ACID {4-[4-(4-METHYL-PIPERAZIN-1-YL)-6-(5-METHYL-2H-PYRAZOL-3-YLAMINO)-PYRIMIDIN-2-YLSULFANYL]-PHENYL}-AMIDE

>  <Num_Not_Resolved_Atoms>  (262) 
0

>  <ATP_Site>  (262) 
True

>  <Peripheral>  (262) 
False

>  <Standardized_SMILES>  (262) 
[H]C1=C([H])C(N([H])C(=O)C2([H])C([H])([H])C2([H])[H])=C([H])C([H])=C1SC1=NC(N([H])C2=NN([H])C(C([H])([H])[H])=C2[H])=C([H])C(N2C([H])([H])C([H])([H])[N+]([H])(C([H])([H])[H])C([H])([H])C2([H])[H])=N1

>  <2D_Mol_H>  (262) 
<rdkit.Chem.rdchem.Mol object at 0x77059d84c7b0>

>  <MW>  (262) 
465.607

>  <HBA>  (262) 
7

>  <HBD>  (262) 
4

>  <LogP>  (262) 
2.08612

>  <NRB>  (262) 
9

>  <TPSA>  (262) 
103.27

>  <Num_Heavy_Atoms>  (262) 
33

>  <Ro5>  (262) 
[True, True, True, True, True, True]

>  <Ro5_Fulfilled>  (262) 
True

>  <Ro3>  (262) 
[False, False, False, True]

>  <Ro3_Fulfilled>  (262) 
False

>  <Fsp3>  (262) 
0.391304

>  <Fsp3_0.42>  (262) 
False

>  <Fsp3_0.45>  (262) 
False

>  <Stereogenic_Carbons>  (262) 
0

>  <C_Atoms>  (262) 
23

>  <FCStereo>  (262) 
0.0

>  <SPS>  (262) 
548

>  <nSPS>  (262) 
16.606061

>  <PBF>  (262) 
0.781722

>  <PBF_0.6>  (262) 
True

>  <nPBF>  (262) 
0.023689

>  <nPBF_0.016>  (262) 
True

>  <PMI1>  (262) 
1894.814245

>  <PMI2>  (262) 
10306.841872

>  <PMI3>  (262) 
11715.549999

>  <NPR1>  (262) 
0.161735

>  <NPR2>  (262) 
0.879757

>  <Sum_NPR>  (262) 
1.041492

>  <Sum_NPR_1.07>  (262) 
False

>  <Sum_NPR_1.2>  (262) 
False

>  <MaxAbsEStateIndex>  (262) 
11.990997

>  <MaxEStateIndex>  (262) 
11.990997

>  <MinAbsEStateIndex>  (262) 
0.115528

>  <MinEStateIndex>  (262) 
0.115528

>  <qed>  (262) 
0.396314

>  <MolWt>  (262) 
465.607

>  <HeavyAtomMolWt>  (262) 
436.375

>  <ExactMolWt>  (262) 
465.217955

>  <NumValenceElectrons>  (262) 
172

>  <NumRadicalElectrons>  (262) 
0

>  <MaxPartialCharge>  (262) 
0.226983

>  <MinPartialCharge>  (262) 
-0.345119

>  <MaxAbsPartialCharge>  (262) 
0.345119

>  <MinAbsPartialCharge>  (262) 
0.226983

>  <FpDensityMorgan1>  (262) 
1.121212

>  <FpDensityMorgan2>  (262) 
1.878788

>  <FpDensityMorgan3>  (262) 
2.545455

>  <BCUT2D_MWHI>  (262) 
32.166599

>  <BCUT2D_MWLOW>  (262) 
10.273881

>  <BCUT2D_CHGHI>  (262) 
2.290816

>  <BCUT2D_CHGLO>  (262) 
-2.306927

>  <BCUT2D_LOGPHI>  (262) 
2.317936

>  <BCUT2D_LOGPLOW>  (262) 
-3.116065

>  <BCUT2D_MRHI>  (262) 
7.987844

>  <BCUT2D_MRLOW>  (262) 
-0.879626

>  <AvgIpc>  (262) 
3.579565

>  <BalabanJ>  (262) 
1.346604

>  <BertzCT>  (262) 
1119.745005

>  <Chi0>  (262) 
22.785882

>  <Chi0n>  (262) 
18.889444

>  <Chi0v>  (262) 
19.70594

>  <Chi1>  (262) 
16.013173

>  <Chi1n>  (262) 
11.348422

>  <Chi1v>  (262) 
12.164918

>  <Chi2n>  (262) 
8.789274

>  <Chi2v>  (262) 
9.829951

>  <Chi3n>  (262) 
5.874302

>  <Chi3v>  (262) 
6.747318

>  <Chi4n>  (262) 
3.716931

>  <Chi4v>  (262) 
4.483079

>  <HallKierAlpha>  (262) 
-3.11

>  <Ipc>  (262) 
61462440.921375

>  <Kappa1>  (262) 
21.720902

>  <Kappa2>  (262) 
9.401659

>  <Kappa3>  (262) 
5.634264

>  <LabuteASA>  (262) 
196.923932

>  <PEOE_VSA1>  (262) 
20.433397

>  <PEOE_VSA10>  (262) 
11.635726

>  <PEOE_VSA11>  (262) 
10.974299

>  <PEOE_VSA12>  (262) 
5.90718

>  <PEOE_VSA13>  (262) 
0.0

>  <PEOE_VSA14>  (262) 
0.0

>  <PEOE_VSA2>  (262) 
9.893219

>  <PEOE_VSA3>  (262) 
9.967957

>  <PEOE_VSA4>  (262) 
5.098682

>  <PEOE_VSA5>  (262) 
0.0

>  <PEOE_VSA6>  (262) 
0.0

>  <PEOE_VSA7>  (262) 
55.792734

>  <PEOE_VSA8>  (262) 
34.327438

>  <PEOE_VSA9>  (262) 
33.226698

>  <SMR_VSA1>  (262) 
9.694447

>  <SMR_VSA10>  (262) 
40.810039

>  <SMR_VSA2>  (262) 
0.0

>  <SMR_VSA3>  (262) 
20.165321

>  <SMR_VSA4>  (262) 
5.917906

>  <SMR_VSA5>  (262) 
29.8173

>  <SMR_VSA6>  (262) 
48.760185

>  <SMR_VSA7>  (262) 
42.09213

>  <SMR_VSA8>  (262) 
0.0

>  <SMR_VSA9>  (262) 
0.0

>  <SlogP_VSA1>  (262) 
20.433397

>  <SlogP_VSA10>  (262) 
23.140975

>  <SlogP_VSA11>  (262) 
0.0

>  <SlogP_VSA12>  (262) 
11.761885

>  <SlogP_VSA2>  (262) 
59.299198

>  <SlogP_VSA3>  (262) 
4.794537

>  <SlogP_VSA4>  (262) 
12.841643

>  <SlogP_VSA5>  (262) 
18.535571

>  <SlogP_VSA6>  (262) 
46.450122

>  <SlogP_VSA7>  (262) 
0.0

>  <SlogP_VSA8>  (262) 
0.0

>  <SlogP_VSA9>  (262) 
0.0

>  <EState_VSA1>  (262) 
0.0

>  <EState_VSA10>  (262) 
4.794537

>  <EState_VSA11>  (262) 
0.0

>  <EState_VSA2>  (262) 
11.825086

>  <EState_VSA3>  (262) 
10.974299

>  <EState_VSA4>  (262) 
66.933192

>  <EState_VSA5>  (262) 
16.661795

>  <EState_VSA6>  (262) 
0.0

>  <EState_VSA7>  (262) 
43.32194

>  <EState_VSA8>  (262) 
32.778523

>  <EState_VSA9>  (262) 
9.967957

>  <VSA_EState1>  (262) 
0.0

>  <VSA_EState10>  (262) 
1.507453

>  <VSA_EState2>  (262) 
26.445293

>  <VSA_EState3>  (262) 
14.174456

>  <VSA_EState4>  (262) 
1.805001

>  <VSA_EState5>  (262) 
2.670099

>  <VSA_EState6>  (262) 
11.78735

>  <VSA_EState7>  (262) 
1.992618

>  <VSA_EState8>  (262) 
6.059964

>  <VSA_EState9>  (262) 
2.224432

>  <FractionCSP3>  (262) 
0.391304

>  <HeavyAtomCount>  (262) 
33

>  <NHOHCount>  (262) 
4

>  <NOCount>  (262) 
9

>  <NumAliphaticCarbocycles>  (262) 
1

>  <NumAliphaticHeterocycles>  (262) 
1

>  <NumAliphaticRings>  (262) 
2

>  <NumAromaticCarbocycles>  (262) 
1

>  <NumAromaticHeterocycles>  (262) 
2

>  <NumAromaticRings>  (262) 
3

>  <NumHAcceptors>  (262) 
7

>  <NumHDonors>  (262) 
4

>  <NumHeteroatoms>  (262) 
10

>  <NumRotatableBonds>  (262) 
7

>  <NumSaturatedCarbocycles>  (262) 
1

>  <NumSaturatedHeterocycles>  (262) 
1

>  <NumSaturatedRings>  (262) 
2

>  <RingCount>  (262) 
5

>  <MolLogP>  (262) 
2.08612

>  <MolMR>  (262) 
129.3918

>  <fr_Al_COO>  (262) 
0

>  <fr_Al_OH>  (262) 
0

>  <fr_Al_OH_noTert>  (262) 
0

>  <fr_ArN>  (262) 
0

>  <fr_Ar_COO>  (262) 
0

>  <fr_Ar_N>  (262) 
4

>  <fr_Ar_NH>  (262) 
1

>  <fr_Ar_OH>  (262) 
0

>  <fr_COO>  (262) 
0

>  <fr_COO2>  (262) 
0

>  <fr_C_O>  (262) 
1

>  <fr_C_O_noCOO>  (262) 
1

>  <fr_C_S>  (262) 
0

>  <fr_HOCCN>  (262) 
0

>  <fr_Imine>  (262) 
0

>  <fr_NH0>  (262) 
4

>  <fr_NH1>  (262) 
4

>  <fr_NH2>  (262) 
0

>  <fr_N_O>  (262) 
0

>  <fr_Ndealkylation1>  (262) 
1

>  <fr_Ndealkylation2>  (262) 
0

>  <fr_Nhpyrrole>  (262) 
1

>  <fr_SH>  (262) 
0

>  <fr_aldehyde>  (262) 
0

>  <fr_alkyl_carbamate>  (262) 
0

>  <fr_alkyl_halide>  (262) 
0

>  <fr_allylic_oxid>  (262) 
0

>  <fr_amide>  (262) 
1

>  <fr_amidine>  (262) 
0

>  <fr_aniline>  (262) 
4

>  <fr_aryl_methyl>  (262) 
1

>  <fr_azide>  (262) 
0

>  <fr_azo>  (262) 
0

>  <fr_barbitur>  (262) 
0

>  <fr_benzene>  (262) 
1

>  <fr_benzodiazepine>  (262) 
0

>  <fr_bicyclic>  (262) 
0

>  <fr_diazo>  (262) 
0

>  <fr_dihydropyridine>  (262) 
0

>  <fr_epoxide>  (262) 
0

>  <fr_ester>  (262) 
0

>  <fr_ether>  (262) 
0

>  <fr_furan>  (262) 
0

>  <fr_guanido>  (262) 
0

>  <fr_halogen>  (262) 
0

>  <fr_hdrzine>  (262) 
0

>  <fr_hdrzone>  (262) 
0

>  <fr_imidazole>  (262) 
0

>  <fr_imide>  (262) 
0

>  <fr_isocyan>  (262) 
0

>  <fr_isothiocyan>  (262) 
0

>  <fr_ketone>  (262) 
0

>  <fr_ketone_Topliss>  (262) 
0

>  <fr_lactam>  (262) 
0

>  <fr_lactone>  (262) 
0

>  <fr_methoxy>  (262) 
0

>  <fr_morpholine>  (262) 
0

>  <fr_nitrile>  (262) 
0

>  <fr_nitro>  (262) 
0

>  <fr_nitro_arom>  (262) 
0

>  <fr_nitro_arom_nonortho>  (262) 
0

>  <fr_nitroso>  (262) 
0

>  <fr_oxazole>  (262) 
0

>  <fr_oxime>  (262) 
0

>  <fr_para_hydroxylation>  (262) 
0

>  <fr_phenol>  (262) 
0

>  <fr_phenol_noOrthoHbond>  (262) 
0

>  <fr_phos_acid>  (262) 
0

>  <fr_phos_ester>  (262) 
0

>  <fr_piperdine>  (262) 
0

>  <fr_piperzine>  (262) 
1

>  <fr_priamide>  (262) 
0

>  <fr_prisulfonamd>  (262) 
0

>  <fr_pyridine>  (262) 
0

>  <fr_quatN>  (262) 
1

>  <fr_sulfide>  (262) 
0

>  <fr_sulfonamd>  (262) 
0

>  <fr_sulfone>  (262) 
0

>  <fr_term_acetylene>  (262) 
0

>  <fr_tetrazole>  (262) 
0

>  <fr_thiazole>  (262) 
0

>  <fr_thiocyan>  (262) 
0

>  <fr_thiophene>  (262) 
0

>  <fr_unbrch_alkane>  (262) 
0

>  <fr_urea>  (262) 
0

>  <NP_Likeness>  (262) 
-1.813171

$$$$
XFE
     RDKit          3D

  0  0  0  0  0  0  0  0  0  0999 V3000
M  V30 BEGIN CTAB
M  V30 COUNTS 32 34 0 0 0
M  V30 BEGIN ATOM
M  V30 1 N 14.700000 14.825000 14.782000 0 CHG=1
M  V30 2 N 21.486000 17.568000 15.441000 0
M  V30 3 N 20.199000 15.592000 15.689000 0
M  V30 4 N 20.657000 19.051000 13.662000 0
M  V30 5 N 18.276000 14.927000 14.463000 0
M  V30 6 C 17.739000 17.515000 12.142000 0
M  V30 7 C 21.247000 16.389000 16.030000 0
M  V30 8 C 19.632000 19.033000 12.763000 0
M  V30 9 C 18.166000 13.818000 15.441000 0
M  V30 10 C 16.963000 15.325000 13.921000 0
M  V30 11 C 16.672000 13.541000 15.542000 0
M  V30 12 C 20.643000 17.938000 14.429000 0
M  V30 13 C 19.308000 15.882000 14.710000 0
M  V30 14 C 15.982000 14.238000 14.373000 0 CFG=1
M  V30 15 C 18.936000 17.885000 12.964000 0
M  V30 16 C 19.544000 17.107000 14.042000 0
M  V30 17 H 13.962900 14.173100 14.603800 0
M  V30 18 H 14.727500 15.038300 15.758600 0
M  V30 19 H 21.328200 19.787800 13.743000 0
M  V30 20 H 17.379300 16.635700 12.454000 0
M  V30 21 H 17.035000 18.218000 12.243100 0
M  V30 22 H 18.003900 17.444400 11.180300 0
M  V30 23 H 21.866400 16.081200 16.752300 0
M  V30 24 H 19.430100 19.736100 12.081100 0
M  V30 25 H 18.534900 14.092600 16.329000 0
M  V30 26 H 18.653600 13.008800 15.113300 0
M  V30 27 H 16.997100 15.370800 12.922600 0
M  V30 28 H 16.690100 16.215000 14.286400 0
M  V30 29 H 16.318500 13.898300 16.406500 0
M  V30 30 H 16.505800 12.556000 15.495600 0
M  V30 31 H 15.833700 13.585600 13.629800 0
M  V30 32 H 14.536400 15.663500 14.262200 0
M  V30 END ATOM
M  V30 BEGIN BOND
M  V30 1 1 1 14
M  V30 2 2 2 7
M  V30 3 1 2 12
M  V30 4 1 3 7
M  V30 5 2 3 13
M  V30 6 1 4 8
M  V30 7 1 4 12
M  V30 8 1 5 9
M  V30 9 1 5 10
M  V30 10 1 5 13
M  V30 11 1 6 15
M  V30 12 2 8 15
M  V30 13 1 9 11
M  V30 14 1 10 14
M  V30 15 1 11 14
M  V30 16 2 12 16
M  V30 17 1 13 16
M  V30 18 1 15 16
M  V30 19 1 1 17
M  V30 20 1 1 18
M  V30 21 1 4 19
M  V30 22 1 6 20
M  V30 23 1 6 21
M  V30 24 1 6 22
M  V30 25 1 7 23
M  V30 26 1 8 24
M  V30 27 1 9 25
M  V30 28 1 9 26
M  V30 29 1 10 27
M  V30 30 1 10 28
M  V30 31 1 11 29
M  V30 32 1 11 30
M  V30 33 1 14 31 CFG=3
M  V30 34 1 1 32
M  V30 END BOND
M  V30 END CTAB
M  END
>  <Ligand_Instance>  (263) 
3MVJ_XFE_A_351

>  <Dataset>  (263) 
PDB

>  <PDB_ID>  (263) 
3MVJ

>  <Chain>  (263) 
A

>  <Resi>  (263) 
351

>  <Num_Resolved_Atoms>  (263) 
16

>  <Num_H_Atoms_ProtBoundConf>  (263) 
16

>  <Pocket>  (263) 
A

>  <Name>  (263) 
(3R)-1-(5-methyl-7H-pyrrolo[2,3-d]pyrimidin-4-yl)pyrrolidin-3-amine

>  <Num_Not_Resolved_Atoms>  (263) 
0

>  <ATP_Site>  (263) 
True

>  <Peripheral>  (263) 
False

>  <Standardized_SMILES>  (263) 
[H]C1=NC2=C(C(N3C([H])([H])C([H])([H])[C@@]([H])([N+]([H])([H])[H])C3([H])[H])=N1)C(C([H])([H])[H])=C([H])N2[H]

>  <2D_Mol_H>  (263) 
<rdkit.Chem.rdchem.Mol object at 0x77059d84c890>

>  <MW>  (263) 
218.284

>  <HBA>  (263) 
3

>  <HBD>  (263) 
2

>  <LogP>  (263) 
0.08692

>  <NRB>  (263) 
3

>  <TPSA>  (263) 
72.45

>  <Num_Heavy_Atoms>  (263) 
16

>  <Ro5>  (263) 
[True, True, True, True, True, True]

>  <Ro5_Fulfilled>  (263) 
True

>  <Ro3>  (263) 
[True, True, True, True]

>  <Ro3_Fulfilled>  (263) 
True

>  <Fsp3>  (263) 
0.454545

>  <Fsp3_0.42>  (263) 
True

>  <Fsp3_0.45>  (263) 
True

>  <Stereogenic_Carbons>  (263) 
1

>  <C_Atoms>  (263) 
11

>  <FCStereo>  (263) 
0.090909

>  <SPS>  (263) 
334

>  <nSPS>  (263) 
20.875

>  <PBF>  (263) 
0.555318

>  <PBF_0.6>  (263) 
False

>  <nPBF>  (263) 
0.034707

>  <nPBF_0.016>  (263) 
True

>  <PMI1>  (263) 
539.033059

>  <PMI2>  (263) 
1323.741769

>  <PMI3>  (263) 
1772.883398

>  <NPR1>  (263) 
0.304043

>  <NPR2>  (263) 
0.74666

>  <Sum_NPR>  (263) 
1.050704

>  <Sum_NPR_1.07>  (263) 
False

>  <Sum_NPR_1.2>  (263) 
False

>  <MaxAbsEStateIndex>  (263) 
4.423426

>  <MaxEStateIndex>  (263) 
4.423426

>  <MinAbsEStateIndex>  (263) 
0.517836

>  <MinEStateIndex>  (263) 
0.517836

>  <qed>  (263) 
0.712056

>  <MolWt>  (263) 
218.284

>  <HeavyAtomMolWt>  (263) 
202.156

>  <ExactMolWt>  (263) 
218.140022

>  <NumValenceElectrons>  (263) 
84

>  <NumRadicalElectrons>  (263) 
0

>  <MaxPartialCharge>  (263) 
0.142625

>  <MinPartialCharge>  (263) 
-0.353604

>  <MaxAbsPartialCharge>  (263) 
0.353604

>  <MinAbsPartialCharge>  (263) 
0.142625

>  <FpDensityMorgan1>  (263) 
1.5

>  <FpDensityMorgan2>  (263) 
2.375

>  <FpDensityMorgan3>  (263) 
3.125

>  <BCUT2D_MWHI>  (263) 
15.225946

>  <BCUT2D_MWLOW>  (263) 
10.223823

>  <BCUT2D_CHGHI>  (263) 
2.246257

>  <BCUT2D_CHGLO>  (263) 
-2.162619

>  <BCUT2D_LOGPHI>  (263) 
2.269821

>  <BCUT2D_LOGPLOW>  (263) 
-2.614533

>  <BCUT2D_MRHI>  (263) 
5.901635

>  <BCUT2D_MRLOW>  (263) 
-0.411732

>  <AvgIpc>  (263) 
2.859732

>  <BalabanJ>  (263) 
2.11915

>  <BertzCT>  (263) 
518.069321

>  <Chi0>  (263) 
11.120956

>  <Chi0n>  (263) 
9.402119

>  <Chi0v>  (263) 
9.402119

>  <Chi1>  (263) 
7.75402

>  <Chi1n>  (263) 
5.621769

>  <Chi1v>  (263) 
5.621769

>  <Chi2n>  (263) 
4.493286

>  <Chi2v>  (263) 
4.493286

>  <Chi3n>  (263) 
3.232381

>  <Chi3v>  (263) 
3.232381

>  <Chi4n>  (263) 
2.362415

>  <Chi4v>  (263) 
2.362415

>  <HallKierAlpha>  (263) 
-1.62

>  <Ipc>  (263) 
9305.566665

>  <Kappa1>  (263) 
9.594963

>  <Kappa2>  (263) 
3.450087

>  <Kappa3>  (263) 
1.356418

>  <LabuteASA>  (263) 
93.680128

>  <PEOE_VSA1>  (263) 
15.617556

>  <PEOE_VSA10>  (263) 
23.834201

>  <PEOE_VSA11>  (263) 
0.0

>  <PEOE_VSA12>  (263) 
0.0

>  <PEOE_VSA13>  (263) 
0.0

>  <PEOE_VSA14>  (263) 
0.0

>  <PEOE_VSA2>  (263) 
0.0

>  <PEOE_VSA3>  (263) 
9.967957

>  <PEOE_VSA4>  (263) 
0.0

>  <PEOE_VSA5>  (263) 
0.0

>  <PEOE_VSA6>  (263) 
0.0

>  <PEOE_VSA7>  (263) 
12.487189

>  <PEOE_VSA8>  (263) 
19.162422

>  <PEOE_VSA9>  (263) 
11.930981

>  <SMR_VSA1>  (263) 
5.733667

>  <SMR_VSA10>  (263) 
16.851264

>  <SMR_VSA2>  (263) 
0.0

>  <SMR_VSA3>  (263) 
14.951936

>  <SMR_VSA4>  (263) 
0.0

>  <SMR_VSA5>  (263) 
19.3864

>  <SMR_VSA6>  (263) 
17.989423

>  <SMR_VSA7>  (263) 
18.087615

>  <SMR_VSA8>  (263) 
0.0

>  <SMR_VSA9>  (263) 
0.0

>  <SlogP_VSA1>  (263) 
10.633577

>  <SlogP_VSA10>  (263) 
5.817863

>  <SlogP_VSA11>  (263) 
0.0

>  <SlogP_VSA12>  (263) 
0.0

>  <SlogP_VSA2>  (263) 
34.083289

>  <SlogP_VSA3>  (263) 
0.0

>  <SlogP_VSA4>  (263) 
6.923737

>  <SlogP_VSA5>  (263) 
11.984273

>  <SlogP_VSA6>  (263) 
12.524164

>  <SlogP_VSA7>  (263) 
0.0

>  <SlogP_VSA8>  (263) 
11.033401

>  <SlogP_VSA9>  (263) 
0.0

>  <EState_VSA1>  (263) 
0.0

>  <EState_VSA10>  (263) 
0.0

>  <EState_VSA11>  (263) 
0.0

>  <EState_VSA2>  (263) 
0.0

>  <EState_VSA3>  (263) 
6.041841

>  <EState_VSA4>  (263) 
36.361599

>  <EState_VSA5>  (263) 
5.563451

>  <EState_VSA6>  (263) 
6.32732

>  <EState_VSA7>  (263) 
6.196844

>  <EState_VSA8>  (263) 
32.50925

>  <EState_VSA9>  (263) 
0.0

>  <VSA_EState1>  (263) 
0.0

>  <VSA_EState10>  (263) 
0.0

>  <VSA_EState2>  (263) 
14.145151

>  <VSA_EState3>  (263) 
1.14963

>  <VSA_EState4>  (263) 
6.243035

>  <VSA_EState5>  (263) 
1.050833

>  <VSA_EState6>  (263) 
0.517836

>  <VSA_EState7>  (263) 
4.763477

>  <VSA_EState8>  (263) 
4.130036

>  <VSA_EState9>  (263) 
0.0

>  <FractionCSP3>  (263) 
0.454545

>  <HeavyAtomCount>  (263) 
16

>  <NHOHCount>  (263) 
4

>  <NOCount>  (263) 
5

>  <NumAliphaticCarbocycles>  (263) 
0

>  <NumAliphaticHeterocycles>  (263) 
1

>  <NumAliphaticRings>  (263) 
1

>  <NumAromaticCarbocycles>  (263) 
0

>  <NumAromaticHeterocycles>  (263) 
2

>  <NumAromaticRings>  (263) 
2

>  <NumHAcceptors>  (263) 
3

>  <NumHDonors>  (263) 
2

>  <NumHeteroatoms>  (263) 
5

>  <NumRotatableBonds>  (263) 
1

>  <NumSaturatedCarbocycles>  (263) 
0

>  <NumSaturatedHeterocycles>  (263) 
1

>  <NumSaturatedRings>  (263) 
1

>  <RingCount>  (263) 
3

>  <MolLogP>  (263) 
0.08692

>  <MolMR>  (263) 
62.1318

>  <fr_Al_COO>  (263) 
0

>  <fr_Al_OH>  (263) 
0

>  <fr_Al_OH_noTert>  (263) 
0

>  <fr_ArN>  (263) 
0

>  <fr_Ar_COO>  (263) 
0

>  <fr_Ar_N>  (263) 
3

>  <fr_Ar_NH>  (263) 
1

>  <fr_Ar_OH>  (263) 
0

>  <fr_COO>  (263) 
0

>  <fr_COO2>  (263) 
0

>  <fr_C_O>  (263) 
0

>  <fr_C_O_noCOO>  (263) 
0

>  <fr_C_S>  (263) 
0

>  <fr_HOCCN>  (263) 
0

>  <fr_Imine>  (263) 
0

>  <fr_NH0>  (263) 
3

>  <fr_NH1>  (263) 
1

>  <fr_NH2>  (263) 
0

>  <fr_N_O>  (263) 
0

>  <fr_Ndealkylation1>  (263) 
0

>  <fr_Ndealkylation2>  (263) 
0

>  <fr_Nhpyrrole>  (263) 
1

>  <fr_SH>  (263) 
0

>  <fr_aldehyde>  (263) 
0

>  <fr_alkyl_carbamate>  (263) 
0

>  <fr_alkyl_halide>  (263) 
0

>  <fr_allylic_oxid>  (263) 
0

>  <fr_amide>  (263) 
0

>  <fr_amidine>  (263) 
0

>  <fr_aniline>  (263) 
1

>  <fr_aryl_methyl>  (263) 
1

>  <fr_azide>  (263) 
0

>  <fr_azo>  (263) 
0

>  <fr_barbitur>  (263) 
0

>  <fr_benzene>  (263) 
0

>  <fr_benzodiazepine>  (263) 
0

>  <fr_bicyclic>  (263) 
1

>  <fr_diazo>  (263) 
0

>  <fr_dihydropyridine>  (263) 
0

>  <fr_epoxide>  (263) 
0

>  <fr_ester>  (263) 
0

>  <fr_ether>  (263) 
0

>  <fr_furan>  (263) 
0

>  <fr_guanido>  (263) 
0

>  <fr_halogen>  (263) 
0

>  <fr_hdrzine>  (263) 
0

>  <fr_hdrzone>  (263) 
0

>  <fr_imidazole>  (263) 
0

>  <fr_imide>  (263) 
0

>  <fr_isocyan>  (263) 
0

>  <fr_isothiocyan>  (263) 
0

>  <fr_ketone>  (263) 
0

>  <fr_ketone_Topliss>  (263) 
0

>  <fr_lactam>  (263) 
0

>  <fr_lactone>  (263) 
0

>  <fr_methoxy>  (263) 
0

>  <fr_morpholine>  (263) 
0

>  <fr_nitrile>  (263) 
0

>  <fr_nitro>  (263) 
0

>  <fr_nitro_arom>  (263) 
0

>  <fr_nitro_arom_nonortho>  (263) 
0

>  <fr_nitroso>  (263) 
0

>  <fr_oxazole>  (263) 
0

>  <fr_oxime>  (263) 
0

>  <fr_para_hydroxylation>  (263) 
0

>  <fr_phenol>  (263) 
0

>  <fr_phenol_noOrthoHbond>  (263) 
0

>  <fr_phos_acid>  (263) 
0

>  <fr_phos_ester>  (263) 
0

>  <fr_piperdine>  (263) 
0

>  <fr_piperzine>  (263) 
0

>  <fr_priamide>  (263) 
0

>  <fr_prisulfonamd>  (263) 
0

>  <fr_pyridine>  (263) 
0

>  <fr_quatN>  (263) 
1

>  <fr_sulfide>  (263) 
0

>  <fr_sulfonamd>  (263) 
0

>  <fr_sulfone>  (263) 
0

>  <fr_term_acetylene>  (263) 
0

>  <fr_tetrazole>  (263) 
0

>  <fr_thiazole>  (263) 
0

>  <fr_thiocyan>  (263) 
0

>  <fr_thiophene>  (263) 
0

>  <fr_unbrch_alkane>  (263) 
0

>  <fr_urea>  (263) 
0

>  <NP_Likeness>  (263) 
-0.920582

$$$$
XFE
     RDKit          3D

  0  0  0  0  0  0  0  0  0  0999 V3000
M  V30 BEGIN CTAB
M  V30 COUNTS 32 34 0 0 0
M  V30 BEGIN ATOM
M  V30 1 N -2.621000 -14.787000 19.815000 0 CHG=1
M  V30 2 N -1.714000 -17.601000 13.288000 0
M  V30 3 N -1.637000 -16.055000 15.033000 0
M  V30 4 N -2.885000 -19.736000 13.816000 0
M  V30 5 N -2.644000 -16.394000 17.176000 0
M  V30 6 C -4.057000 -19.495000 17.266000 0
M  V30 7 C -1.348000 -16.412000 13.779000 0
M  V30 8 C -3.527000 -20.271000 14.894000 0
M  V30 9 C -3.932000 -16.750000 17.816000 0
M  V30 10 C -2.312000 -14.978000 17.412000 0
M  V30 11 C -4.476000 -15.454000 18.447000 0
M  V30 12 C -2.404000 -18.483000 14.065000 0
M  V30 13 C -2.343000 -16.858000 15.871000 0
M  V30 14 C -3.256000 -14.552000 18.535000 0 CFG=1
M  V30 15 C -3.470000 -19.310000 15.880000 0
M  V30 16 C -2.739000 -18.118000 15.379000 0
M  V30 17 H -2.953800 -14.118400 20.480000 0
M  V30 18 H -2.840700 -15.709800 20.131700 0
M  V30 19 H -2.778600 -20.208700 12.941200 0
M  V30 20 H -3.897100 -18.670300 17.808500 0
M  V30 21 H -5.040500 -19.659900 17.192200 0
M  V30 22 H -3.620400 -20.276800 17.711300 0
M  V30 23 H -0.846200 -15.775400 13.193400 0
M  V30 24 H -3.951500 -21.174300 14.956000 0
M  V30 25 H -3.787700 -17.444100 18.521200 0
M  V30 26 H -4.573600 -17.097800 17.132300 0
M  V30 27 H -2.473000 -14.434200 16.588300 0
M  V30 28 H -1.357800 -14.880100 17.694900 0
M  V30 29 H -4.853600 -15.631700 19.355700 0
M  V30 30 H -5.180600 -15.044400 17.867500 0
M  V30 31 H -3.515500 -13.591200 18.437100 0
M  V30 32 H -1.630000 -14.695200 19.717300 0
M  V30 END ATOM
M  V30 BEGIN BOND
M  V30 1 1 1 14
M  V30 2 2 2 7
M  V30 3 1 2 12
M  V30 4 1 3 7
M  V30 5 2 3 13
M  V30 6 1 4 8
M  V30 7 1 4 12
M  V30 8 1 5 9
M  V30 9 1 5 10
M  V30 10 1 5 13
M  V30 11 1 6 15
M  V30 12 2 8 15
M  V30 13 1 9 11
M  V30 14 1 10 14
M  V30 15 1 11 14
M  V30 16 2 12 16
M  V30 17 1 13 16
M  V30 18 1 15 16
M  V30 19 1 1 17
M  V30 20 1 1 18
M  V30 21 1 4 19
M  V30 22 1 6 20
M  V30 23 1 6 21
M  V30 24 1 6 22
M  V30 25 1 7 23
M  V30 26 1 8 24
M  V30 27 1 9 25
M  V30 28 1 9 26
M  V30 29 1 10 27
M  V30 30 1 10 28
M  V30 31 1 11 29
M  V30 32 1 11 30
M  V30 33 1 14 31 CFG=3
M  V30 34 1 1 32
M  V30 END BOND
M  V30 END CTAB
M  END
>  <Ligand_Instance>  (264) 
3MVJ_XFE_E_351

>  <Dataset>  (264) 
PDB

>  <PDB_ID>  (264) 
3MVJ

>  <Chain>  (264) 
E

>  <Resi>  (264) 
351

>  <Num_Resolved_Atoms>  (264) 
16

>  <Num_H_Atoms_ProtBoundConf>  (264) 
16

>  <Pocket>  (264) 
A

>  <Name>  (264) 
(3R)-1-(5-methyl-7H-pyrrolo[2,3-d]pyrimidin-4-yl)pyrrolidin-3-amine

>  <Num_Not_Resolved_Atoms>  (264) 
0

>  <ATP_Site>  (264) 
True

>  <Peripheral>  (264) 
False

>  <Standardized_SMILES>  (264) 
[H]C1=NC2=C(C(N3C([H])([H])C([H])([H])[C@@]([H])([N+]([H])([H])[H])C3([H])[H])=N1)C(C([H])([H])[H])=C([H])N2[H]

>  <2D_Mol_H>  (264) 
<rdkit.Chem.rdchem.Mol object at 0x77059d84c970>

>  <MW>  (264) 
218.284

>  <HBA>  (264) 
3

>  <HBD>  (264) 
2

>  <LogP>  (264) 
0.08692

>  <NRB>  (264) 
3

>  <TPSA>  (264) 
72.45

>  <Num_Heavy_Atoms>  (264) 
16

>  <Ro5>  (264) 
[True, True, True, True, True, True]

>  <Ro5_Fulfilled>  (264) 
True

>  <Ro3>  (264) 
[True, True, True, True]

>  <Ro3_Fulfilled>  (264) 
True

>  <Fsp3>  (264) 
0.454545

>  <Fsp3_0.42>  (264) 
True

>  <Fsp3_0.45>  (264) 
True

>  <Stereogenic_Carbons>  (264) 
1

>  <C_Atoms>  (264) 
11

>  <FCStereo>  (264) 
0.090909

>  <SPS>  (264) 
334

>  <nSPS>  (264) 
20.875

>  <PBF>  (264) 
0.513606

>  <PBF_0.6>  (264) 
False

>  <nPBF>  (264) 
0.0321

>  <nPBF_0.016>  (264) 
True

>  <PMI1>  (264) 
501.350066

>  <PMI2>  (264) 
1331.108805

>  <PMI3>  (264) 
1745.653878

>  <NPR1>  (264) 
0.287199

>  <NPR2>  (264) 
0.762527

>  <Sum_NPR>  (264) 
1.049726

>  <Sum_NPR_1.07>  (264) 
False

>  <Sum_NPR_1.2>  (264) 
False

>  <MaxAbsEStateIndex>  (264) 
4.423426

>  <MaxEStateIndex>  (264) 
4.423426

>  <MinAbsEStateIndex>  (264) 
0.517836

>  <MinEStateIndex>  (264) 
0.517836

>  <qed>  (264) 
0.712056

>  <MolWt>  (264) 
218.284

>  <HeavyAtomMolWt>  (264) 
202.156

>  <ExactMolWt>  (264) 
218.140022

>  <NumValenceElectrons>  (264) 
84

>  <NumRadicalElectrons>  (264) 
0

>  <MaxPartialCharge>  (264) 
0.142625

>  <MinPartialCharge>  (264) 
-0.353604

>  <MaxAbsPartialCharge>  (264) 
0.353604

>  <MinAbsPartialCharge>  (264) 
0.142625

>  <FpDensityMorgan1>  (264) 
1.5

>  <FpDensityMorgan2>  (264) 
2.375

>  <FpDensityMorgan3>  (264) 
3.125

>  <BCUT2D_MWHI>  (264) 
15.225946

>  <BCUT2D_MWLOW>  (264) 
10.223823

>  <BCUT2D_CHGHI>  (264) 
2.246257

>  <BCUT2D_CHGLO>  (264) 
-2.162619

>  <BCUT2D_LOGPHI>  (264) 
2.269821

>  <BCUT2D_LOGPLOW>  (264) 
-2.614533

>  <BCUT2D_MRHI>  (264) 
5.901635

>  <BCUT2D_MRLOW>  (264) 
-0.411732

>  <AvgIpc>  (264) 
2.859732

>  <BalabanJ>  (264) 
2.11915

>  <BertzCT>  (264) 
518.069321

>  <Chi0>  (264) 
11.120956

>  <Chi0n>  (264) 
9.402119

>  <Chi0v>  (264) 
9.402119

>  <Chi1>  (264) 
7.75402

>  <Chi1n>  (264) 
5.621769

>  <Chi1v>  (264) 
5.621769

>  <Chi2n>  (264) 
4.493286

>  <Chi2v>  (264) 
4.493286

>  <Chi3n>  (264) 
3.232381

>  <Chi3v>  (264) 
3.232381

>  <Chi4n>  (264) 
2.362415

>  <Chi4v>  (264) 
2.362415

>  <HallKierAlpha>  (264) 
-1.62

>  <Ipc>  (264) 
9305.566665

>  <Kappa1>  (264) 
9.594963

>  <Kappa2>  (264) 
3.450087

>  <Kappa3>  (264) 
1.356418

>  <LabuteASA>  (264) 
93.680128

>  <PEOE_VSA1>  (264) 
15.617556

>  <PEOE_VSA10>  (264) 
23.834201

>  <PEOE_VSA11>  (264) 
0.0

>  <PEOE_VSA12>  (264) 
0.0

>  <PEOE_VSA13>  (264) 
0.0

>  <PEOE_VSA14>  (264) 
0.0

>  <PEOE_VSA2>  (264) 
0.0

>  <PEOE_VSA3>  (264) 
9.967957

>  <PEOE_VSA4>  (264) 
0.0

>  <PEOE_VSA5>  (264) 
0.0

>  <PEOE_VSA6>  (264) 
0.0

>  <PEOE_VSA7>  (264) 
12.487189

>  <PEOE_VSA8>  (264) 
19.162422

>  <PEOE_VSA9>  (264) 
11.930981

>  <SMR_VSA1>  (264) 
5.733667

>  <SMR_VSA10>  (264) 
16.851264

>  <SMR_VSA2>  (264) 
0.0

>  <SMR_VSA3>  (264) 
14.951936

>  <SMR_VSA4>  (264) 
0.0

>  <SMR_VSA5>  (264) 
19.3864

>  <SMR_VSA6>  (264) 
17.989423

>  <SMR_VSA7>  (264) 
18.087615

>  <SMR_VSA8>  (264) 
0.0

>  <SMR_VSA9>  (264) 
0.0

>  <SlogP_VSA1>  (264) 
10.633577

>  <SlogP_VSA10>  (264) 
5.817863

>  <SlogP_VSA11>  (264) 
0.0

>  <SlogP_VSA12>  (264) 
0.0

>  <SlogP_VSA2>  (264) 
34.083289

>  <SlogP_VSA3>  (264) 
0.0

>  <SlogP_VSA4>  (264) 
6.923737

>  <SlogP_VSA5>  (264) 
11.984273

>  <SlogP_VSA6>  (264) 
12.524164

>  <SlogP_VSA7>  (264) 
0.0

>  <SlogP_VSA8>  (264) 
11.033401

>  <SlogP_VSA9>  (264) 
0.0

>  <EState_VSA1>  (264) 
0.0

>  <EState_VSA10>  (264) 
0.0

>  <EState_VSA11>  (264) 
0.0

>  <EState_VSA2>  (264) 
0.0

>  <EState_VSA3>  (264) 
6.041841

>  <EState_VSA4>  (264) 
36.361599

>  <EState_VSA5>  (264) 
5.563451

>  <EState_VSA6>  (264) 
6.32732

>  <EState_VSA7>  (264) 
6.196844

>  <EState_VSA8>  (264) 
32.50925

>  <EState_VSA9>  (264) 
0.0

>  <VSA_EState1>  (264) 
0.0

>  <VSA_EState10>  (264) 
0.0

>  <VSA_EState2>  (264) 
14.145151

>  <VSA_EState3>  (264) 
1.14963

>  <VSA_EState4>  (264) 
6.243035

>  <VSA_EState5>  (264) 
1.050833

>  <VSA_EState6>  (264) 
0.517836

>  <VSA_EState7>  (264) 
4.763477

>  <VSA_EState8>  (264) 
4.130036

>  <VSA_EState9>  (264) 
0.0

>  <FractionCSP3>  (264) 
0.454545

>  <HeavyAtomCount>  (264) 
16

>  <NHOHCount>  (264) 
4

>  <NOCount>  (264) 
5

>  <NumAliphaticCarbocycles>  (264) 
0

>  <NumAliphaticHeterocycles>  (264) 
1

>  <NumAliphaticRings>  (264) 
1

>  <NumAromaticCarbocycles>  (264) 
0

>  <NumAromaticHeterocycles>  (264) 
2

>  <NumAromaticRings>  (264) 
2

>  <NumHAcceptors>  (264) 
3

>  <NumHDonors>  (264) 
2

>  <NumHeteroatoms>  (264) 
5

>  <NumRotatableBonds>  (264) 
1

>  <NumSaturatedCarbocycles>  (264) 
0

>  <NumSaturatedHeterocycles>  (264) 
1

>  <NumSaturatedRings>  (264) 
1

>  <RingCount>  (264) 
3

>  <MolLogP>  (264) 
0.08692

>  <MolMR>  (264) 
62.1318

>  <fr_Al_COO>  (264) 
0

>  <fr_Al_OH>  (264) 
0

>  <fr_Al_OH_noTert>  (264) 
0

>  <fr_ArN>  (264) 
0

>  <fr_Ar_COO>  (264) 
0

>  <fr_Ar_N>  (264) 
3

>  <fr_Ar_NH>  (264) 
1

>  <fr_Ar_OH>  (264) 
0

>  <fr_COO>  (264) 
0

>  <fr_COO2>  (264) 
0

>  <fr_C_O>  (264) 
0

>  <fr_C_O_noCOO>  (264) 
0

>  <fr_C_S>  (264) 
0

>  <fr_HOCCN>  (264) 
0

>  <fr_Imine>  (264) 
0

>  <fr_NH0>  (264) 
3

>  <fr_NH1>  (264) 
1

>  <fr_NH2>  (264) 
0

>  <fr_N_O>  (264) 
0

>  <fr_Ndealkylation1>  (264) 
0

>  <fr_Ndealkylation2>  (264) 
0

>  <fr_Nhpyrrole>  (264) 
1

>  <fr_SH>  (264) 
0

>  <fr_aldehyde>  (264) 
0

>  <fr_alkyl_carbamate>  (264) 
0

>  <fr_alkyl_halide>  (264) 
0

>  <fr_allylic_oxid>  (264) 
0

>  <fr_amide>  (264) 
0

>  <fr_amidine>  (264) 
0

>  <fr_aniline>  (264) 
1

>  <fr_aryl_methyl>  (264) 
1

>  <fr_azide>  (264) 
0

>  <fr_azo>  (264) 
0

>  <fr_barbitur>  (264) 
0

>  <fr_benzene>  (264) 
0

>  <fr_benzodiazepine>  (264) 
0

>  <fr_bicyclic>  (264) 
1

>  <fr_diazo>  (264) 
0

>  <fr_dihydropyridine>  (264) 
0

>  <fr_epoxide>  (264) 
0

>  <fr_ester>  (264) 
0

>  <fr_ether>  (264) 
0

>  <fr_furan>  (264) 
0

>  <fr_guanido>  (264) 
0

>  <fr_halogen>  (264) 
0

>  <fr_hdrzine>  (264) 
0

>  <fr_hdrzone>  (264) 
0

>  <fr_imidazole>  (264) 
0

>  <fr_imide>  (264) 
0

>  <fr_isocyan>  (264) 
0

>  <fr_isothiocyan>  (264) 
0

>  <fr_ketone>  (264) 
0

>  <fr_ketone_Topliss>  (264) 
0

>  <fr_lactam>  (264) 
0

>  <fr_lactone>  (264) 
0

>  <fr_methoxy>  (264) 
0

>  <fr_morpholine>  (264) 
0

>  <fr_nitrile>  (264) 
0

>  <fr_nitro>  (264) 
0

>  <fr_nitro_arom>  (264) 
0

>  <fr_nitro_arom_nonortho>  (264) 
0

>  <fr_nitroso>  (264) 
0

>  <fr_oxazole>  (264) 
0

>  <fr_oxime>  (264) 
0

>  <fr_para_hydroxylation>  (264) 
0

>  <fr_phenol>  (264) 
0

>  <fr_phenol_noOrthoHbond>  (264) 
0

>  <fr_phos_acid>  (264) 
0

>  <fr_phos_ester>  (264) 
0

>  <fr_piperdine>  (264) 
0

>  <fr_piperzine>  (264) 
0

>  <fr_priamide>  (264) 
0

>  <fr_prisulfonamd>  (264) 
0

>  <fr_pyridine>  (264) 
0

>  <fr_quatN>  (264) 
1

>  <fr_sulfide>  (264) 
0

>  <fr_sulfonamd>  (264) 
0

>  <fr_sulfone>  (264) 
0

>  <fr_term_acetylene>  (264) 
0

>  <fr_tetrazole>  (264) 
0

>  <fr_thiazole>  (264) 
0

>  <fr_thiocyan>  (264) 
0

>  <fr_thiophene>  (264) 
0

>  <fr_unbrch_alkane>  (264) 
0

>  <fr_urea>  (264) 
0

>  <NP_Likeness>  (264) 
-0.920582

$$$$
Y27
     RDKit          3D

  0  0  0  0  0  0  0  0  0  0999 V3000
M  V30 BEGIN CTAB
M  V30 COUNTS 40 41 0 0 0
M  V30 BEGIN ATOM
M  V30 1 O 7.517000 10.060000 41.926000 0
M  V30 2 N 13.750000 7.117000 40.903000 0 CHG=1
M  V30 3 N 3.063000 10.264000 44.544000 0
M  V30 4 N 7.219000 9.813000 44.252000 0
M  V30 5 C 13.964000 7.406000 43.356000 0
M  V30 6 C 3.820000 10.131000 45.667000 0
M  V30 7 C 3.564000 10.262000 43.294000 0
M  V30 8 C 5.198000 9.989000 45.584000 0
M  V30 9 C 4.934000 10.135000 43.107000 0
M  V30 10 C 9.604000 7.999000 42.554000 0
M  V30 11 C 10.462000 10.370000 42.907000 0
M  V30 12 C 11.061000 7.485000 42.613000 0
M  V30 13 C 11.902000 9.772000 43.077000 0
M  V30 14 C 7.988000 9.781000 43.066000 0
M  V30 15 C 13.523000 8.065000 42.041000 0 CFG=2
M  V30 16 C 5.777000 9.974000 44.275000 0
M  V30 17 C 9.402000 9.323000 43.305000 0 CFG=1
M  V30 18 C 12.044000 8.572000 42.127000 0 CFG=1
M  V30 19 H 13.462200 7.547900 40.047700 0
M  V30 20 H 14.721700 6.886700 40.849800 0
M  V30 21 H 7.696500 9.719300 45.125600 0
M  V30 22 H 13.811700 8.040100 44.114100 0
M  V30 23 H 13.431700 6.572900 43.506300 0
M  V30 24 H 14.935800 7.175800 43.304000 0
M  V30 25 H 3.377500 10.135600 46.563800 0
M  V30 26 H 2.954100 10.351300 42.506600 0
M  V30 27 H 5.762900 9.900800 46.404400 0
M  V30 28 H 5.329500 10.154200 42.188700 0
M  V30 29 H 9.006000 7.308100 42.960300 0
M  V30 30 H 9.353000 8.135100 41.595600 0
M  V30 31 H 10.324100 10.633600 41.952300 0
M  V30 32 H 10.367300 11.175300 43.492200 0
M  V30 33 H 11.148400 6.678500 42.028300 0
M  V30 34 H 11.284200 7.238700 43.556200 0
M  V30 35 H 12.033900 9.472200 44.021900 0
M  V30 36 H 12.585000 10.465900 42.849000 0
M  V30 37 H 14.107700 8.862300 41.891500 0
M  V30 38 H 9.503900 9.139700 44.282800 0
M  V30 39 H 11.760500 8.862600 41.213100 0
M  V30 40 H 13.217600 6.283700 41.052000 0
M  V30 END ATOM
M  V30 BEGIN BOND
M  V30 1 2 1 14
M  V30 2 1 2 15
M  V30 3 2 3 6
M  V30 4 1 3 7
M  V30 5 1 4 14
M  V30 6 1 4 16
M  V30 7 1 5 15
M  V30 8 1 6 8
M  V30 9 2 7 9
M  V30 10 2 8 16
M  V30 11 1 9 16
M  V30 12 1 10 12
M  V30 13 1 10 17
M  V30 14 1 11 13
M  V30 15 1 11 17
M  V30 16 1 12 18
M  V30 17 1 13 18
M  V30 18 1 14 17
M  V30 19 1 15 18
M  V30 20 1 2 19
M  V30 21 1 2 20
M  V30 22 1 4 21
M  V30 23 1 5 22
M  V30 24 1 5 23
M  V30 25 1 5 24
M  V30 26 1 6 25
M  V30 27 1 7 26
M  V30 28 1 8 27
M  V30 29 1 9 28
M  V30 30 1 10 29
M  V30 31 1 10 30
M  V30 32 1 11 31
M  V30 33 1 11 32
M  V30 34 1 12 33
M  V30 35 1 12 34
M  V30 36 1 13 35
M  V30 37 1 13 36
M  V30 38 1 15 37 CFG=3
M  V30 39 1 17 38 CFG=1
M  V30 40 1 18 39 CFG=3
M  V30 41 1 2 40
M  V30 END BOND
M  V30 END CTAB
M  END
>  <Ligand_Instance>  (265) 
2GNF_Y27_A_501

>  <Dataset>  (265) 
PDB

>  <PDB_ID>  (265) 
2GNF

>  <Chain>  (265) 
A

>  <Resi>  (265) 
501

>  <Num_Resolved_Atoms>  (265) 
18

>  <Num_H_Atoms_ProtBoundConf>  (265) 
22

>  <Pocket>  (265) 
A

>  <Name>  (265) 
(R)-TRANS-4-(1-AMINOETHYL)-N-(4-PYRIDYL) CYCLOHEXANECARBOXAMIDE

>  <Num_Not_Resolved_Atoms>  (265) 
0

>  <ATP_Site>  (265) 
True

>  <Peripheral>  (265) 
False

>  <Standardized_SMILES>  (265) 
[H]C1=NC([H])=C([H])C(N([H])C(=O)[C@]2([H])C([H])([H])C([H])([H])[C@@]([H])([C@@]([H])(C([H])([H])[H])[N+]([H])([H])[H])C([H])([H])C2([H])[H])=C1[H]

>  <2D_Mol_H>  (265) 
<rdkit.Chem.rdchem.Mol object at 0x77059d84ca50>

>  <MW>  (265) 
248.35

>  <HBA>  (265) 
2

>  <HBD>  (265) 
2

>  <LogP>  (265) 
1.4569

>  <NRB>  (265) 
5

>  <TPSA>  (265) 
69.63

>  <Num_Heavy_Atoms>  (265) 
18

>  <Ro5>  (265) 
[True, True, True, True, True, True]

>  <Ro5_Fulfilled>  (265) 
True

>  <Ro3>  (265) 
[True, True, True, True]

>  <Ro3_Fulfilled>  (265) 
True

>  <Fsp3>  (265) 
0.571429

>  <Fsp3_0.42>  (265) 
True

>  <Fsp3_0.45>  (265) 
True

>  <Stereogenic_Carbons>  (265) 
3

>  <C_Atoms>  (265) 
14

>  <FCStereo>  (265) 
0.214286

>  <SPS>  (265) 
458

>  <nSPS>  (265) 
25.444444

>  <PBF>  (265) 
0.746879

>  <PBF_0.6>  (265) 
True

>  <nPBF>  (265) 
0.041493

>  <nPBF_0.016>  (265) 
True

>  <PMI1>  (265) 
339.394667

>  <PMI2>  (265) 
3734.078955

>  <PMI3>  (265) 
3813.734925

>  <NPR1>  (265) 
0.088993

>  <NPR2>  (265) 
0.979113

>  <Sum_NPR>  (265) 
1.068106

>  <Sum_NPR_1.07>  (265) 
False

>  <Sum_NPR_1.2>  (265) 
False

>  <MaxAbsEStateIndex>  (265) 
12.096885

>  <MaxEStateIndex>  (265) 
12.096885

>  <MinAbsEStateIndex>  (265) 
0.149412

>  <MinEStateIndex>  (265) 
0.149412

>  <qed>  (265) 
0.849822

>  <MolWt>  (265) 
248.35

>  <HeavyAtomMolWt>  (265) 
226.174

>  <ExactMolWt>  (265) 
248.175739

>  <NumValenceElectrons>  (265) 
98

>  <NumRadicalElectrons>  (265) 
0

>  <MaxPartialCharge>  (265) 
0.226985

>  <MinPartialCharge>  (265) 
-0.35513

>  <MaxAbsPartialCharge>  (265) 
0.35513

>  <MinAbsPartialCharge>  (265) 
0.226985

>  <FpDensityMorgan1>  (265) 
1.333333

>  <FpDensityMorgan2>  (265) 
1.944444

>  <FpDensityMorgan3>  (265) 
2.5

>  <BCUT2D_MWHI>  (265) 
16.149739

>  <BCUT2D_MWLOW>  (265) 
9.785787

>  <BCUT2D_CHGHI>  (265) 
2.28551

>  <BCUT2D_CHGLO>  (265) 
-2.279162

>  <BCUT2D_LOGPHI>  (265) 
2.300703

>  <BCUT2D_LOGPLOW>  (265) 
-2.625591

>  <BCUT2D_MRHI>  (265) 
5.919535

>  <BCUT2D_MRLOW>  (265) 
-0.428413

>  <AvgIpc>  (265) 
2.397096

>  <BalabanJ>  (265) 
1.845511

>  <BertzCT>  (265) 
383.285394

>  <Chi0>  (265) 
12.957819

>  <Chi0n>  (265) 
10.932448

>  <Chi0v>  (265) 
10.932448

>  <Chi1>  (265) 
8.664704

>  <Chi1n>  (265) 
6.705139

>  <Chi1v>  (265) 
6.705139

>  <Chi2n>  (265) 
5.314127

>  <Chi2v>  (265) 
5.314127

>  <Chi3n>  (265) 
3.895225

>  <Chi3v>  (265) 
3.895225

>  <Chi4n>  (265) 
2.629989

>  <Chi4v>  (265) 
2.629989

>  <HallKierAlpha>  (265) 
-1.42

>  <Ipc>  (265) 
14267.517678

>  <Kappa1>  (265) 
13.02212

>  <Kappa2>  (265) 
5.956551

>  <Kappa3>  (265) 
3.291794

>  <LabuteASA>  (265) 
107.980974

>  <PEOE_VSA1>  (265) 
11.050456

>  <PEOE_VSA10>  (265) 
0.0

>  <PEOE_VSA11>  (265) 
0.0

>  <PEOE_VSA12>  (265) 
5.90718

>  <PEOE_VSA13>  (265) 
0.0

>  <PEOE_VSA14>  (265) 
0.0

>  <PEOE_VSA2>  (265) 
9.778516

>  <PEOE_VSA3>  (265) 
0.0

>  <PEOE_VSA4>  (265) 
0.0

>  <PEOE_VSA5>  (265) 
0.0

>  <PEOE_VSA6>  (265) 
0.0

>  <PEOE_VSA7>  (265) 
44.739758

>  <PEOE_VSA8>  (265) 
29.916886

>  <PEOE_VSA9>  (265) 
6.041841

>  <SMR_VSA1>  (265) 
10.528205

>  <SMR_VSA10>  (265) 
11.594566

>  <SMR_VSA2>  (265) 
0.0

>  <SMR_VSA3>  (265) 
4.983979

>  <SMR_VSA4>  (265) 
11.835812

>  <SMR_VSA5>  (265) 
38.648865

>  <SMR_VSA6>  (265) 
5.316789

>  <SMR_VSA7>  (265) 
24.526421

>  <SMR_VSA8>  (265) 
0.0

>  <SMR_VSA9>  (265) 
0.0

>  <SlogP_VSA1>  (265) 
11.050456

>  <SlogP_VSA10>  (265) 
5.687386

>  <SlogP_VSA11>  (265) 
0.0

>  <SlogP_VSA12>  (265) 
0.0

>  <SlogP_VSA2>  (265) 
16.932999

>  <SlogP_VSA3>  (265) 
4.794537

>  <SlogP_VSA4>  (265) 
11.835812

>  <SlogP_VSA5>  (265) 
32.607024

>  <SlogP_VSA6>  (265) 
24.526421

>  <SlogP_VSA7>  (265) 
0.0

>  <SlogP_VSA8>  (265) 
0.0

>  <SlogP_VSA9>  (265) 
0.0

>  <EState_VSA1>  (265) 
0.0

>  <EState_VSA10>  (265) 
4.794537

>  <EState_VSA11>  (265) 
0.0

>  <EState_VSA2>  (265) 
11.825086

>  <EState_VSA3>  (265) 
11.959747

>  <EState_VSA4>  (265) 
31.370673

>  <EState_VSA5>  (265) 
0.0

>  <EState_VSA6>  (265) 
12.393687

>  <EState_VSA7>  (265) 
12.132734

>  <EState_VSA8>  (265) 
22.958172

>  <EState_VSA9>  (265) 
0.0

>  <VSA_EState1>  (265) 
0.0

>  <VSA_EState10>  (265) 
0.0

>  <VSA_EState2>  (265) 
16.033156

>  <VSA_EState3>  (265) 
2.961124

>  <VSA_EState4>  (265) 
4.928059

>  <VSA_EState5>  (265) 
0.999542

>  <VSA_EState6>  (265) 
4.136637

>  <VSA_EState7>  (265) 
7.60613

>  <VSA_EState8>  (265) 
2.168684

>  <VSA_EState9>  (265) 
0.0

>  <FractionCSP3>  (265) 
0.571429

>  <HeavyAtomCount>  (265) 
18

>  <NHOHCount>  (265) 
4

>  <NOCount>  (265) 
4

>  <NumAliphaticCarbocycles>  (265) 
1

>  <NumAliphaticHeterocycles>  (265) 
0

>  <NumAliphaticRings>  (265) 
1

>  <NumAromaticCarbocycles>  (265) 
0

>  <NumAromaticHeterocycles>  (265) 
1

>  <NumAromaticRings>  (265) 
1

>  <NumHAcceptors>  (265) 
2

>  <NumHDonors>  (265) 
2

>  <NumHeteroatoms>  (265) 
4

>  <NumRotatableBonds>  (265) 
3

>  <NumSaturatedCarbocycles>  (265) 
1

>  <NumSaturatedHeterocycles>  (265) 
0

>  <NumSaturatedRings>  (265) 
1

>  <RingCount>  (265) 
2

>  <MolLogP>  (265) 
1.4569

>  <MolMR>  (265) 
70.6648

>  <fr_Al_COO>  (265) 
0

>  <fr_Al_OH>  (265) 
0

>  <fr_Al_OH_noTert>  (265) 
0

>  <fr_ArN>  (265) 
0

>  <fr_Ar_COO>  (265) 
0

>  <fr_Ar_N>  (265) 
1

>  <fr_Ar_NH>  (265) 
0

>  <fr_Ar_OH>  (265) 
0

>  <fr_COO>  (265) 
0

>  <fr_COO2>  (265) 
0

>  <fr_C_O>  (265) 
1

>  <fr_C_O_noCOO>  (265) 
1

>  <fr_C_S>  (265) 
0

>  <fr_HOCCN>  (265) 
0

>  <fr_Imine>  (265) 
0

>  <fr_NH0>  (265) 
1

>  <fr_NH1>  (265) 
1

>  <fr_NH2>  (265) 
0

>  <fr_N_O>  (265) 
0

>  <fr_Ndealkylation1>  (265) 
0

>  <fr_Ndealkylation2>  (265) 
0

>  <fr_Nhpyrrole>  (265) 
0

>  <fr_SH>  (265) 
0

>  <fr_aldehyde>  (265) 
0

>  <fr_alkyl_carbamate>  (265) 
0

>  <fr_alkyl_halide>  (265) 
0

>  <fr_allylic_oxid>  (265) 
0

>  <fr_amide>  (265) 
1

>  <fr_amidine>  (265) 
0

>  <fr_aniline>  (265) 
1

>  <fr_aryl_methyl>  (265) 
0

>  <fr_azide>  (265) 
0

>  <fr_azo>  (265) 
0

>  <fr_barbitur>  (265) 
0

>  <fr_benzene>  (265) 
0

>  <fr_benzodiazepine>  (265) 
0

>  <fr_bicyclic>  (265) 
0

>  <fr_diazo>  (265) 
0

>  <fr_dihydropyridine>  (265) 
0

>  <fr_epoxide>  (265) 
0

>  <fr_ester>  (265) 
0

>  <fr_ether>  (265) 
0

>  <fr_furan>  (265) 
0

>  <fr_guanido>  (265) 
0

>  <fr_halogen>  (265) 
0

>  <fr_hdrzine>  (265) 
0

>  <fr_hdrzone>  (265) 
0

>  <fr_imidazole>  (265) 
0

>  <fr_imide>  (265) 
0

>  <fr_isocyan>  (265) 
0

>  <fr_isothiocyan>  (265) 
0

>  <fr_ketone>  (265) 
0

>  <fr_ketone_Topliss>  (265) 
0

>  <fr_lactam>  (265) 
0

>  <fr_lactone>  (265) 
0

>  <fr_methoxy>  (265) 
0

>  <fr_morpholine>  (265) 
0

>  <fr_nitrile>  (265) 
0

>  <fr_nitro>  (265) 
0

>  <fr_nitro_arom>  (265) 
0

>  <fr_nitro_arom_nonortho>  (265) 
0

>  <fr_nitroso>  (265) 
0

>  <fr_oxazole>  (265) 
0

>  <fr_oxime>  (265) 
0

>  <fr_para_hydroxylation>  (265) 
0

>  <fr_phenol>  (265) 
0

>  <fr_phenol_noOrthoHbond>  (265) 
0

>  <fr_phos_acid>  (265) 
0

>  <fr_phos_ester>  (265) 
0

>  <fr_piperdine>  (265) 
0

>  <fr_piperzine>  (265) 
0

>  <fr_priamide>  (265) 
0

>  <fr_prisulfonamd>  (265) 
0

>  <fr_pyridine>  (265) 
1

>  <fr_quatN>  (265) 
1

>  <fr_sulfide>  (265) 
0

>  <fr_sulfonamd>  (265) 
0

>  <fr_sulfone>  (265) 
0

>  <fr_term_acetylene>  (265) 
0

>  <fr_tetrazole>  (265) 
0

>  <fr_thiazole>  (265) 
0

>  <fr_thiocyan>  (265) 
0

>  <fr_thiophene>  (265) 
0

>  <fr_unbrch_alkane>  (265) 
0

>  <fr_urea>  (265) 
0

>  <NP_Likeness>  (265) 
-1.378858

$$$$
Y27
     RDKit          3D

  0  0  0  0  0  0  0  0  0  0999 V3000
M  V30 BEGIN CTAB
M  V30 COUNTS 40 41 0 0 0
M  V30 BEGIN ATOM
M  V30 1 O 7.352000 9.887000 1.479000 0
M  V30 2 N 13.538000 6.838000 0.663000 0 CHG=1
M  V30 3 N 2.748000 10.007000 4.189000 0
M  V30 4 N 6.921000 9.460000 3.729000 0
M  V30 5 C 13.636000 6.961000 3.160000 0
M  V30 6 C 3.536000 9.828000 5.229000 0
M  V30 7 C 3.251000 10.048000 2.955000 0
M  V30 8 C 4.907000 9.646000 5.069000 0
M  V30 9 C 4.600000 9.922000 2.703000 0
M  V30 10 C 9.337000 7.630000 1.905000 0
M  V30 11 C 10.186000 9.978000 2.487000 0
M  V30 12 C 10.773000 7.106000 2.093000 0
M  V30 13 C 11.584000 9.398000 2.821000 0
M  V30 14 C 7.739000 9.466000 2.567000 0
M  V30 15 C 13.270000 7.704000 1.866000 0 CFG=2
M  V30 16 C 5.469000 9.684000 3.793000 0
M  V30 17 C 9.118000 8.901000 2.755000 0 CFG=1
M  V30 18 C 11.809000 8.224000 1.851000 0 CFG=1
M  V30 19 H 13.294200 7.337500 -0.168300 0
M  V30 20 H 14.508200 6.597500 0.634900 0
M  V30 21 H 7.383300 9.284300 4.598200 0
M  V30 22 H 13.451700 7.550500 3.946400 0
M  V30 23 H 13.087900 6.127700 3.232300 0
M  V30 24 H 14.606700 6.721100 3.143500 0
M  V30 25 H 3.143200 9.822700 6.148600 0
M  V30 26 H 2.626700 10.174800 2.184200 0
M  V30 27 H 5.487900 9.488300 5.867600 0
M  V30 28 H 4.955900 9.997100 1.771500 0
M  V30 29 H 8.688000 6.925200 2.191300 0
M  V30 30 H 9.188400 7.847900 0.940400 0
M  V30 31 H 10.156200 10.247300 1.524400 0
M  V30 32 H 10.008400 10.776500 3.062200 0
M  V30 33 H 10.937000 6.362900 1.444200 0
M  V30 34 H 10.875600 6.762300 3.026400 0
M  V30 35 H 11.607500 9.074700 3.767000 0
M  V30 36 H 12.288500 10.095500 2.689500 0
M  V30 37 H 13.870700 8.500700 1.799600 0
M  V30 38 H 9.200700 8.633700 3.715100 0
M  V30 39 H 11.640000 8.576600 0.930600 0
M  V30 40 H 12.989500 6.004100 0.723700 0
M  V30 END ATOM
M  V30 BEGIN BOND
M  V30 1 2 1 14
M  V30 2 1 2 15
M  V30 3 2 3 6
M  V30 4 1 3 7
M  V30 5 1 4 14
M  V30 6 1 4 16
M  V30 7 1 5 15
M  V30 8 1 6 8
M  V30 9 2 7 9
M  V30 10 2 8 16
M  V30 11 1 9 16
M  V30 12 1 10 12
M  V30 13 1 10 17
M  V30 14 1 11 13
M  V30 15 1 11 17
M  V30 16 1 12 18
M  V30 17 1 13 18
M  V30 18 1 14 17
M  V30 19 1 15 18
M  V30 20 1 2 19
M  V30 21 1 2 20
M  V30 22 1 4 21
M  V30 23 1 5 22
M  V30 24 1 5 23
M  V30 25 1 5 24
M  V30 26 1 6 25
M  V30 27 1 7 26
M  V30 28 1 8 27
M  V30 29 1 9 28
M  V30 30 1 10 29
M  V30 31 1 10 30
M  V30 32 1 11 31
M  V30 33 1 11 32
M  V30 34 1 12 33
M  V30 35 1 12 34
M  V30 36 1 13 35
M  V30 37 1 13 36
M  V30 38 1 15 37 CFG=3
M  V30 39 1 17 38 CFG=1
M  V30 40 1 18 39 CFG=3
M  V30 41 1 2 40
M  V30 END BOND
M  V30 END CTAB
M  END
>  <Ligand_Instance>  (266) 
2GNJ_Y27_A_501

>  <Dataset>  (266) 
PDB

>  <PDB_ID>  (266) 
2GNJ

>  <Chain>  (266) 
A

>  <Resi>  (266) 
501

>  <Num_Resolved_Atoms>  (266) 
18

>  <Num_H_Atoms_ProtBoundConf>  (266) 
22

>  <Pocket>  (266) 
A

>  <Name>  (266) 
(R)-TRANS-4-(1-AMINOETHYL)-N-(4-PYRIDYL) CYCLOHEXANECARBOXAMIDE

>  <Num_Not_Resolved_Atoms>  (266) 
0

>  <ATP_Site>  (266) 
True

>  <Peripheral>  (266) 
False

>  <Standardized_SMILES>  (266) 
[H]C1=NC([H])=C([H])C(N([H])C(=O)[C@]2([H])C([H])([H])C([H])([H])[C@@]([H])([C@@]([H])(C([H])([H])[H])[N+]([H])([H])[H])C([H])([H])C2([H])[H])=C1[H]

>  <2D_Mol_H>  (266) 
<rdkit.Chem.rdchem.Mol object at 0x77059d84cb30>

>  <MW>  (266) 
248.35

>  <HBA>  (266) 
2

>  <HBD>  (266) 
2

>  <LogP>  (266) 
1.4569

>  <NRB>  (266) 
5

>  <TPSA>  (266) 
69.63

>  <Num_Heavy_Atoms>  (266) 
18

>  <Ro5>  (266) 
[True, True, True, True, True, True]

>  <Ro5_Fulfilled>  (266) 
True

>  <Ro3>  (266) 
[True, True, True, True]

>  <Ro3_Fulfilled>  (266) 
True

>  <Fsp3>  (266) 
0.571429

>  <Fsp3_0.42>  (266) 
True

>  <Fsp3_0.45>  (266) 
True

>  <Stereogenic_Carbons>  (266) 
3

>  <C_Atoms>  (266) 
14

>  <FCStereo>  (266) 
0.214286

>  <SPS>  (266) 
458

>  <nSPS>  (266) 
25.444444

>  <PBF>  (266) 
0.742514

>  <PBF_0.6>  (266) 
True

>  <nPBF>  (266) 
0.041251

>  <nPBF_0.016>  (266) 
True

>  <PMI1>  (266) 
339.981482

>  <PMI2>  (266) 
3751.170962

>  <PMI3>  (266) 
3832.845618

>  <NPR1>  (266) 
0.088702

>  <NPR2>  (266) 
0.978691

>  <Sum_NPR>  (266) 
1.067393

>  <Sum_NPR_1.07>  (266) 
False

>  <Sum_NPR_1.2>  (266) 
False

>  <MaxAbsEStateIndex>  (266) 
12.096885

>  <MaxEStateIndex>  (266) 
12.096885

>  <MinAbsEStateIndex>  (266) 
0.149412

>  <MinEStateIndex>  (266) 
0.149412

>  <qed>  (266) 
0.849822

>  <MolWt>  (266) 
248.35

>  <HeavyAtomMolWt>  (266) 
226.174

>  <ExactMolWt>  (266) 
248.175739

>  <NumValenceElectrons>  (266) 
98

>  <NumRadicalElectrons>  (266) 
0

>  <MaxPartialCharge>  (266) 
0.226985

>  <MinPartialCharge>  (266) 
-0.35513

>  <MaxAbsPartialCharge>  (266) 
0.35513

>  <MinAbsPartialCharge>  (266) 
0.226985

>  <FpDensityMorgan1>  (266) 
1.333333

>  <FpDensityMorgan2>  (266) 
1.944444

>  <FpDensityMorgan3>  (266) 
2.5

>  <BCUT2D_MWHI>  (266) 
16.149739

>  <BCUT2D_MWLOW>  (266) 
9.785787

>  <BCUT2D_CHGHI>  (266) 
2.28551

>  <BCUT2D_CHGLO>  (266) 
-2.279162

>  <BCUT2D_LOGPHI>  (266) 
2.300703

>  <BCUT2D_LOGPLOW>  (266) 
-2.625591

>  <BCUT2D_MRHI>  (266) 
5.919535

>  <BCUT2D_MRLOW>  (266) 
-0.428413

>  <AvgIpc>  (266) 
2.397096

>  <BalabanJ>  (266) 
1.845511

>  <BertzCT>  (266) 
383.285394

>  <Chi0>  (266) 
12.957819

>  <Chi0n>  (266) 
10.932448

>  <Chi0v>  (266) 
10.932448

>  <Chi1>  (266) 
8.664704

>  <Chi1n>  (266) 
6.705139

>  <Chi1v>  (266) 
6.705139

>  <Chi2n>  (266) 
5.314127

>  <Chi2v>  (266) 
5.314127

>  <Chi3n>  (266) 
3.895225

>  <Chi3v>  (266) 
3.895225

>  <Chi4n>  (266) 
2.629989

>  <Chi4v>  (266) 
2.629989

>  <HallKierAlpha>  (266) 
-1.42

>  <Ipc>  (266) 
14267.517678

>  <Kappa1>  (266) 
13.02212

>  <Kappa2>  (266) 
5.956551

>  <Kappa3>  (266) 
3.291794

>  <LabuteASA>  (266) 
107.980974

>  <PEOE_VSA1>  (266) 
11.050456

>  <PEOE_VSA10>  (266) 
0.0

>  <PEOE_VSA11>  (266) 
0.0

>  <PEOE_VSA12>  (266) 
5.90718

>  <PEOE_VSA13>  (266) 
0.0

>  <PEOE_VSA14>  (266) 
0.0

>  <PEOE_VSA2>  (266) 
9.778516

>  <PEOE_VSA3>  (266) 
0.0

>  <PEOE_VSA4>  (266) 
0.0

>  <PEOE_VSA5>  (266) 
0.0

>  <PEOE_VSA6>  (266) 
0.0

>  <PEOE_VSA7>  (266) 
44.739758

>  <PEOE_VSA8>  (266) 
29.916886

>  <PEOE_VSA9>  (266) 
6.041841

>  <SMR_VSA1>  (266) 
10.528205

>  <SMR_VSA10>  (266) 
11.594566

>  <SMR_VSA2>  (266) 
0.0

>  <SMR_VSA3>  (266) 
4.983979

>  <SMR_VSA4>  (266) 
11.835812

>  <SMR_VSA5>  (266) 
38.648865

>  <SMR_VSA6>  (266) 
5.316789

>  <SMR_VSA7>  (266) 
24.526421

>  <SMR_VSA8>  (266) 
0.0

>  <SMR_VSA9>  (266) 
0.0

>  <SlogP_VSA1>  (266) 
11.050456

>  <SlogP_VSA10>  (266) 
5.687386

>  <SlogP_VSA11>  (266) 
0.0

>  <SlogP_VSA12>  (266) 
0.0

>  <SlogP_VSA2>  (266) 
16.932999

>  <SlogP_VSA3>  (266) 
4.794537

>  <SlogP_VSA4>  (266) 
11.835812

>  <SlogP_VSA5>  (266) 
32.607024

>  <SlogP_VSA6>  (266) 
24.526421

>  <SlogP_VSA7>  (266) 
0.0

>  <SlogP_VSA8>  (266) 
0.0

>  <SlogP_VSA9>  (266) 
0.0

>  <EState_VSA1>  (266) 
0.0

>  <EState_VSA10>  (266) 
4.794537

>  <EState_VSA11>  (266) 
0.0

>  <EState_VSA2>  (266) 
11.825086

>  <EState_VSA3>  (266) 
11.959747

>  <EState_VSA4>  (266) 
31.370673

>  <EState_VSA5>  (266) 
0.0

>  <EState_VSA6>  (266) 
12.393687

>  <EState_VSA7>  (266) 
12.132734

>  <EState_VSA8>  (266) 
22.958172

>  <EState_VSA9>  (266) 
0.0

>  <VSA_EState1>  (266) 
0.0

>  <VSA_EState10>  (266) 
0.0

>  <VSA_EState2>  (266) 
16.033156

>  <VSA_EState3>  (266) 
2.961124

>  <VSA_EState4>  (266) 
4.928059

>  <VSA_EState5>  (266) 
0.999542

>  <VSA_EState6>  (266) 
4.136637

>  <VSA_EState7>  (266) 
7.60613

>  <VSA_EState8>  (266) 
2.168684

>  <VSA_EState9>  (266) 
0.0

>  <FractionCSP3>  (266) 
0.571429

>  <HeavyAtomCount>  (266) 
18

>  <NHOHCount>  (266) 
4

>  <NOCount>  (266) 
4

>  <NumAliphaticCarbocycles>  (266) 
1

>  <NumAliphaticHeterocycles>  (266) 
0

>  <NumAliphaticRings>  (266) 
1

>  <NumAromaticCarbocycles>  (266) 
0

>  <NumAromaticHeterocycles>  (266) 
1

>  <NumAromaticRings>  (266) 
1

>  <NumHAcceptors>  (266) 
2

>  <NumHDonors>  (266) 
2

>  <NumHeteroatoms>  (266) 
4

>  <NumRotatableBonds>  (266) 
3

>  <NumSaturatedCarbocycles>  (266) 
1

>  <NumSaturatedHeterocycles>  (266) 
0

>  <NumSaturatedRings>  (266) 
1

>  <RingCount>  (266) 
2

>  <MolLogP>  (266) 
1.4569

>  <MolMR>  (266) 
70.6648

>  <fr_Al_COO>  (266) 
0

>  <fr_Al_OH>  (266) 
0

>  <fr_Al_OH_noTert>  (266) 
0

>  <fr_ArN>  (266) 
0

>  <fr_Ar_COO>  (266) 
0

>  <fr_Ar_N>  (266) 
1

>  <fr_Ar_NH>  (266) 
0

>  <fr_Ar_OH>  (266) 
0

>  <fr_COO>  (266) 
0

>  <fr_COO2>  (266) 
0

>  <fr_C_O>  (266) 
1

>  <fr_C_O_noCOO>  (266) 
1

>  <fr_C_S>  (266) 
0

>  <fr_HOCCN>  (266) 
0

>  <fr_Imine>  (266) 
0

>  <fr_NH0>  (266) 
1

>  <fr_NH1>  (266) 
1

>  <fr_NH2>  (266) 
0

>  <fr_N_O>  (266) 
0

>  <fr_Ndealkylation1>  (266) 
0

>  <fr_Ndealkylation2>  (266) 
0

>  <fr_Nhpyrrole>  (266) 
0

>  <fr_SH>  (266) 
0

>  <fr_aldehyde>  (266) 
0

>  <fr_alkyl_carbamate>  (266) 
0

>  <fr_alkyl_halide>  (266) 
0

>  <fr_allylic_oxid>  (266) 
0

>  <fr_amide>  (266) 
1

>  <fr_amidine>  (266) 
0

>  <fr_aniline>  (266) 
1

>  <fr_aryl_methyl>  (266) 
0

>  <fr_azide>  (266) 
0

>  <fr_azo>  (266) 
0

>  <fr_barbitur>  (266) 
0

>  <fr_benzene>  (266) 
0

>  <fr_benzodiazepine>  (266) 
0

>  <fr_bicyclic>  (266) 
0

>  <fr_diazo>  (266) 
0

>  <fr_dihydropyridine>  (266) 
0

>  <fr_epoxide>  (266) 
0

>  <fr_ester>  (266) 
0

>  <fr_ether>  (266) 
0

>  <fr_furan>  (266) 
0

>  <fr_guanido>  (266) 
0

>  <fr_halogen>  (266) 
0

>  <fr_hdrzine>  (266) 
0

>  <fr_hdrzone>  (266) 
0

>  <fr_imidazole>  (266) 
0

>  <fr_imide>  (266) 
0

>  <fr_isocyan>  (266) 
0

>  <fr_isothiocyan>  (266) 
0

>  <fr_ketone>  (266) 
0

>  <fr_ketone_Topliss>  (266) 
0

>  <fr_lactam>  (266) 
0

>  <fr_lactone>  (266) 
0

>  <fr_methoxy>  (266) 
0

>  <fr_morpholine>  (266) 
0

>  <fr_nitrile>  (266) 
0

>  <fr_nitro>  (266) 
0

>  <fr_nitro_arom>  (266) 
0

>  <fr_nitro_arom_nonortho>  (266) 
0

>  <fr_nitroso>  (266) 
0

>  <fr_oxazole>  (266) 
0

>  <fr_oxime>  (266) 
0

>  <fr_para_hydroxylation>  (266) 
0

>  <fr_phenol>  (266) 
0

>  <fr_phenol_noOrthoHbond>  (266) 
0

>  <fr_phos_acid>  (266) 
0

>  <fr_phos_ester>  (266) 
0

>  <fr_piperdine>  (266) 
0

>  <fr_piperzine>  (266) 
0

>  <fr_priamide>  (266) 
0

>  <fr_prisulfonamd>  (266) 
0

>  <fr_pyridine>  (266) 
1

>  <fr_quatN>  (266) 
1

>  <fr_sulfide>  (266) 
0

>  <fr_sulfonamd>  (266) 
0

>  <fr_sulfone>  (266) 
0

>  <fr_term_acetylene>  (266) 
0

>  <fr_tetrazole>  (266) 
0

>  <fr_thiazole>  (266) 
0

>  <fr_thiocyan>  (266) 
0

>  <fr_thiophene>  (266) 
0

>  <fr_unbrch_alkane>  (266) 
0

>  <fr_urea>  (266) 
0

>  <NP_Likeness>  (266) 
-1.378858

$$$$
YTP
     RDKit          3D

  0  0  0  0  0  0  0  0  0  0999 V3000
M  V30 BEGIN CTAB
M  V30 COUNTS 21 21 0 0 0
M  V30 BEGIN ATOM
M  V30 1 O 28.167000 9.916000 -0.110000 0
M  V30 2 O 33.718000 10.226000 -3.314000 0
M  V30 3 C 27.237000 9.964000 -2.273000 0
M  V30 4 C 31.591000 10.400000 -5.187000 0
M  V30 5 C 32.202000 10.040000 -1.426000 0
M  V30 6 C 30.894000 9.994000 -0.924000 0
M  V30 7 C 30.036000 10.224000 -3.189000 0
M  V30 8 C 28.389000 9.984000 -1.304000 0
M  V30 9 C 32.422000 10.174000 -2.797000 0
M  V30 10 C 31.341000 10.262000 -3.682000 0
M  V30 11 C 29.812000 10.085000 -1.813000 0
M  V30 12 H 34.504400 10.167000 -2.699100 0
M  V30 13 H 27.586600 10.027200 -3.207800 0
M  V30 14 H 26.725600 9.111500 -2.165300 0
M  V30 15 H 26.633700 10.740100 -2.089600 0
M  V30 16 H 32.575600 10.410400 -5.361800 0
M  V30 17 H 31.175500 9.626800 -5.666200 0
M  V30 18 H 31.185100 11.252800 -5.515500 0
M  V30 19 H 32.979200 9.976600 -0.799900 0
M  V30 20 H 30.733500 9.897300 0.058300 0
M  V30 21 H 29.261400 10.295900 -3.817300 0
M  V30 END ATOM
M  V30 BEGIN BOND
M  V30 1 2 1 8
M  V30 2 1 2 9
M  V30 3 1 3 8
M  V30 4 1 4 10
M  V30 5 2 5 6
M  V30 6 1 5 9
M  V30 7 1 6 11
M  V30 8 1 7 10
M  V30 9 2 7 11
M  V30 10 1 8 11
M  V30 11 2 9 10
M  V30 12 1 2 12
M  V30 13 1 3 13
M  V30 14 1 3 14
M  V30 15 1 3 15
M  V30 16 1 4 16
M  V30 17 1 4 17
M  V30 18 1 4 18
M  V30 19 1 5 19
M  V30 20 1 6 20
M  V30 21 1 7 21
M  V30 END BOND
M  V30 END CTAB
M  END
>  <Ligand_Instance>  (267) 
3OOG_YTP_A_2001

>  <Dataset>  (267) 
PDB

>  <PDB_ID>  (267) 
3OOG

>  <Chain>  (267) 
A

>  <Resi>  (267) 
2001

>  <Num_Resolved_Atoms>  (267) 
11

>  <Num_H_Atoms_ProtBoundConf>  (267) 
10

>  <Pocket>  (267) 
A

>  <Name>  (267) 
1-(4-hydroxy-3-methylphenyl)ethanone

>  <Num_Not_Resolved_Atoms>  (267) 
0

>  <ATP_Site>  (267) 
True

>  <Peripheral>  (267) 
False

>  <Standardized_SMILES>  (267) 
[H]OC1=C([H])C([H])=C(C(=O)C([H])([H])[H])C([H])=C1C([H])([H])[H]

>  <2D_Mol_H>  (267) 
<rdkit.Chem.rdchem.Mol object at 0x77059d84cc10>

>  <MW>  (267) 
150.177

>  <HBA>  (267) 
2

>  <HBD>  (267) 
1

>  <LogP>  (267) 
1.90322

>  <NRB>  (267) 
4

>  <TPSA>  (267) 
37.3

>  <Num_Heavy_Atoms>  (267) 
11

>  <Ro5>  (267) 
[True, True, True, True, True, True]

>  <Ro5_Fulfilled>  (267) 
True

>  <Ro3>  (267) 
[True, True, True, True]

>  <Ro3_Fulfilled>  (267) 
True

>  <Fsp3>  (267) 
0.222222

>  <Fsp3_0.42>  (267) 
False

>  <Fsp3_0.45>  (267) 
False

>  <Stereogenic_Carbons>  (267) 
0

>  <C_Atoms>  (267) 
9

>  <FCStereo>  (267) 
0.0

>  <SPS>  (267) 
106

>  <nSPS>  (267) 
9.636364

>  <PBF>  (267) 
0.188088

>  <PBF_0.6>  (267) 
False

>  <nPBF>  (267) 
0.017099

>  <nPBF_0.016>  (267) 
True

>  <PMI1>  (267) 
217.882401

>  <PMI2>  (267) 
721.346222

>  <PMI3>  (267) 
933.423116

>  <NPR1>  (267) 
0.233423

>  <NPR2>  (267) 
0.772797

>  <Sum_NPR>  (267) 
1.00622

>  <Sum_NPR_1.07>  (267) 
False

>  <Sum_NPR_1.2>  (267) 
False

>  <MaxAbsEStateIndex>  (267) 
10.82726

>  <MaxEStateIndex>  (267) 
10.82726

>  <MinAbsEStateIndex>  (267) 
0.021389

>  <MinEStateIndex>  (267) 
0.021389

>  <qed>  (267) 
0.620631

>  <MolWt>  (267) 
150.177

>  <HeavyAtomMolWt>  (267) 
140.097

>  <ExactMolWt>  (267) 
150.06808

>  <NumValenceElectrons>  (267) 
58

>  <NumRadicalElectrons>  (267) 
0

>  <MaxPartialCharge>  (267) 
0.159313

>  <MinPartialCharge>  (267) 
-0.507687

>  <MaxAbsPartialCharge>  (267) 
0.507687

>  <MinAbsPartialCharge>  (267) 
0.159313

>  <FpDensityMorgan1>  (267) 
1.454545

>  <FpDensityMorgan2>  (267) 
2.090909

>  <FpDensityMorgan3>  (267) 
2.545455

>  <BCUT2D_MWHI>  (267) 
16.255338

>  <BCUT2D_MWLOW>  (267) 
10.088069

>  <BCUT2D_CHGHI>  (267) 
2.003013

>  <BCUT2D_CHGLO>  (267) 
-1.989344

>  <BCUT2D_LOGPHI>  (267) 
2.162754

>  <BCUT2D_LOGPLOW>  (267) 
-1.90995

>  <BCUT2D_MRHI>  (267) 
5.938805

>  <BCUT2D_MRLOW>  (267) 
0.101289

>  <AvgIpc>  (267) 
1.941518

>  <BalabanJ>  (267) 
3.15155

>  <BertzCT>  (267) 
289.614249

>  <Chi0>  (267) 
8.430721

>  <Chi0n>  (267) 
6.587513

>  <Chi0v>  (267) 
6.587513

>  <Chi1>  (267) 
5.109061

>  <Chi1n>  (267) 
3.415765

>  <Chi1v>  (267) 
3.415765

>  <Chi2n>  (267) 
2.557452

>  <Chi2v>  (267) 
2.557452

>  <Chi3n>  (267) 
1.603319

>  <Chi3v>  (267) 
1.603319

>  <Chi4n>  (267) 
0.874452

>  <Chi4v>  (267) 
0.874452

>  <HallKierAlpha>  (267) 
-1.31

>  <Ipc>  (267) 
271.812571

>  <Kappa1>  (267) 
7.793199

>  <Kappa2>  (267) 
2.741988

>  <Kappa3>  (267) 
1.579887

>  <LabuteASA>  (267) 
65.481985

>  <PEOE_VSA1>  (267) 
5.106527

>  <PEOE_VSA10>  (267) 
5.749512

>  <PEOE_VSA11>  (267) 
5.783245

>  <PEOE_VSA12>  (267) 
0.0

>  <PEOE_VSA13>  (267) 
0.0

>  <PEOE_VSA14>  (267) 
0.0

>  <PEOE_VSA2>  (267) 
4.794537

>  <PEOE_VSA3>  (267) 
0.0

>  <PEOE_VSA4>  (267) 
0.0

>  <PEOE_VSA5>  (267) 
0.0

>  <PEOE_VSA6>  (267) 
0.0

>  <PEOE_VSA7>  (267) 
37.610027

>  <PEOE_VSA8>  (267) 
5.563451

>  <PEOE_VSA9>  (267) 
0.0

>  <SMR_VSA1>  (267) 
9.901065

>  <SMR_VSA10>  (267) 
5.783245

>  <SMR_VSA2>  (267) 
0.0

>  <SMR_VSA3>  (267) 
0.0

>  <SMR_VSA4>  (267) 
0.0

>  <SMR_VSA5>  (267) 
13.847474

>  <SMR_VSA6>  (267) 
0.0

>  <SMR_VSA7>  (267) 
29.326004

>  <SMR_VSA8>  (267) 
0.0

>  <SMR_VSA9>  (267) 
5.749512

>  <SlogP_VSA1>  (267) 
0.0

>  <SlogP_VSA10>  (267) 
0.0

>  <SlogP_VSA11>  (267) 
5.749512

>  <SlogP_VSA12>  (267) 
0.0

>  <SlogP_VSA2>  (267) 
10.889772

>  <SlogP_VSA3>  (267) 
0.0

>  <SlogP_VSA4>  (267) 
6.923737

>  <SlogP_VSA5>  (267) 
22.845177

>  <SlogP_VSA6>  (267) 
18.199101

>  <SlogP_VSA7>  (267) 
0.0

>  <SlogP_VSA8>  (267) 
0.0

>  <SlogP_VSA9>  (267) 
0.0

>  <EState_VSA1>  (267) 
0.0

>  <EState_VSA10>  (267) 
4.794537

>  <EState_VSA11>  (267) 
0.0

>  <EState_VSA2>  (267) 
11.532757

>  <EState_VSA3>  (267) 
5.563451

>  <EState_VSA4>  (267) 
5.563451

>  <EState_VSA5>  (267) 
12.990104

>  <EState_VSA6>  (267) 
19.056471

>  <EState_VSA7>  (267) 
0.0

>  <EState_VSA8>  (267) 
0.0

>  <EState_VSA9>  (267) 
5.106527

>  <VSA_EState1>  (267) 
0.0

>  <VSA_EState10>  (267) 
0.0

>  <VSA_EState2>  (267) 
10.82726

>  <VSA_EState3>  (267) 
9.114187

>  <VSA_EState4>  (267) 
1.373148

>  <VSA_EState5>  (267) 
0.25287

>  <VSA_EState6>  (267) 
4.827778

>  <VSA_EState7>  (267) 
0.0

>  <VSA_EState8>  (267) 
3.271423

>  <VSA_EState9>  (267) 
0.0

>  <FractionCSP3>  (267) 
0.222222

>  <HeavyAtomCount>  (267) 
11

>  <NHOHCount>  (267) 
1

>  <NOCount>  (267) 
2

>  <NumAliphaticCarbocycles>  (267) 
0

>  <NumAliphaticHeterocycles>  (267) 
0

>  <NumAliphaticRings>  (267) 
0

>  <NumAromaticCarbocycles>  (267) 
1

>  <NumAromaticHeterocycles>  (267) 
0

>  <NumAromaticRings>  (267) 
1

>  <NumHAcceptors>  (267) 
2

>  <NumHDonors>  (267) 
1

>  <NumHeteroatoms>  (267) 
2

>  <NumRotatableBonds>  (267) 
1

>  <NumSaturatedCarbocycles>  (267) 
0

>  <NumSaturatedHeterocycles>  (267) 
0

>  <NumSaturatedRings>  (267) 
0

>  <RingCount>  (267) 
1

>  <MolLogP>  (267) 
1.90322

>  <MolMR>  (267) 
42.8483

>  <fr_Al_COO>  (267) 
0

>  <fr_Al_OH>  (267) 
0

>  <fr_Al_OH_noTert>  (267) 
0

>  <fr_ArN>  (267) 
0

>  <fr_Ar_COO>  (267) 
0

>  <fr_Ar_N>  (267) 
0

>  <fr_Ar_NH>  (267) 
0

>  <fr_Ar_OH>  (267) 
1

>  <fr_COO>  (267) 
0

>  <fr_COO2>  (267) 
0

>  <fr_C_O>  (267) 
1

>  <fr_C_O_noCOO>  (267) 
1

>  <fr_C_S>  (267) 
0

>  <fr_HOCCN>  (267) 
0

>  <fr_Imine>  (267) 
0

>  <fr_NH0>  (267) 
0

>  <fr_NH1>  (267) 
0

>  <fr_NH2>  (267) 
0

>  <fr_N_O>  (267) 
0

>  <fr_Ndealkylation1>  (267) 
0

>  <fr_Ndealkylation2>  (267) 
0

>  <fr_Nhpyrrole>  (267) 
0

>  <fr_SH>  (267) 
0

>  <fr_aldehyde>  (267) 
0

>  <fr_alkyl_carbamate>  (267) 
0

>  <fr_alkyl_halide>  (267) 
0

>  <fr_allylic_oxid>  (267) 
0

>  <fr_amide>  (267) 
0

>  <fr_amidine>  (267) 
0

>  <fr_aniline>  (267) 
0

>  <fr_aryl_methyl>  (267) 
1

>  <fr_azide>  (267) 
0

>  <fr_azo>  (267) 
0

>  <fr_barbitur>  (267) 
0

>  <fr_benzene>  (267) 
1

>  <fr_benzodiazepine>  (267) 
0

>  <fr_bicyclic>  (267) 
0

>  <fr_diazo>  (267) 
0

>  <fr_dihydropyridine>  (267) 
0

>  <fr_epoxide>  (267) 
0

>  <fr_ester>  (267) 
0

>  <fr_ether>  (267) 
0

>  <fr_furan>  (267) 
0

>  <fr_guanido>  (267) 
0

>  <fr_halogen>  (267) 
0

>  <fr_hdrzine>  (267) 
0

>  <fr_hdrzone>  (267) 
0

>  <fr_imidazole>  (267) 
0

>  <fr_imide>  (267) 
0

>  <fr_isocyan>  (267) 
0

>  <fr_isothiocyan>  (267) 
0

>  <fr_ketone>  (267) 
1

>  <fr_ketone_Topliss>  (267) 
1

>  <fr_lactam>  (267) 
0

>  <fr_lactone>  (267) 
0

>  <fr_methoxy>  (267) 
0

>  <fr_morpholine>  (267) 
0

>  <fr_nitrile>  (267) 
0

>  <fr_nitro>  (267) 
0

>  <fr_nitro_arom>  (267) 
0

>  <fr_nitro_arom_nonortho>  (267) 
0

>  <fr_nitroso>  (267) 
0

>  <fr_oxazole>  (267) 
0

>  <fr_oxime>  (267) 
0

>  <fr_para_hydroxylation>  (267) 
0

>  <fr_phenol>  (267) 
1

>  <fr_phenol_noOrthoHbond>  (267) 
1

>  <fr_phos_acid>  (267) 
0

>  <fr_phos_ester>  (267) 
0

>  <fr_piperdine>  (267) 
0

>  <fr_piperzine>  (267) 
0

>  <fr_priamide>  (267) 
0

>  <fr_prisulfonamd>  (267) 
0

>  <fr_pyridine>  (267) 
0

>  <fr_quatN>  (267) 
0

>  <fr_sulfide>  (267) 
0

>  <fr_sulfonamd>  (267) 
0

>  <fr_sulfone>  (267) 
0

>  <fr_term_acetylene>  (267) 
0

>  <fr_tetrazole>  (267) 
0

>  <fr_thiazole>  (267) 
0

>  <fr_thiocyan>  (267) 
0

>  <fr_thiophene>  (267) 
0

>  <fr_unbrch_alkane>  (267) 
0

>  <fr_urea>  (267) 
0

>  <NP_Likeness>  (267) 
0.118484

$$$$
Z21
     RDKit          3D

  0  0  0  0  0  0  0  0  0  0999 V3000
M  V30 BEGIN CTAB
M  V30 COUNTS 27 29 0 0 0
M  V30 BEGIN ATOM
M  V30 1 Br 24.065000 -9.628000 -0.046000 0
M  V30 2 O 32.049000 -10.342000 5.379000 0
M  V30 3 N 32.669000 -9.778000 2.052000 0
M  V30 4 N 32.927000 -10.156000 4.337000 0
M  V30 5 N 30.714000 -10.264000 4.953000 0
M  V30 6 N 26.717000 -9.927000 -0.623000 0
M  V30 7 N 29.814000 -10.006000 1.448000 0
M  V30 8 N 28.363000 -9.686000 3.155000 0
M  V30 9 C 27.351000 -10.732000 5.144000 0
M  V30 10 C 28.029000 -10.035000 -0.385000 0
M  V30 11 C 27.803000 -9.449000 4.499000 0
M  V30 12 C 26.234000 -9.606000 1.781000 0
M  V30 13 C 25.897000 -9.729000 0.443000 0
M  V30 14 C 32.179000 -9.977000 3.282000 0
M  V30 15 C 29.667000 -9.876000 2.753000 0
M  V30 16 C 28.518000 -9.935000 0.949000 0
M  V30 17 C 30.789000 -10.037000 3.662000 0
M  V30 18 C 27.604000 -9.729000 1.992000 0
M  V30 19 H 32.046100 -9.646600 1.280800 0
M  V30 20 H 33.657900 -9.760800 1.904500 0
M  V30 21 H 26.977900 -10.535800 6.050800 0
M  V30 22 H 26.645300 -11.158900 4.578400 0
M  V30 23 H 28.129500 -11.353600 5.231200 0
M  V30 24 H 28.664900 -10.185600 -1.141900 0
M  V30 25 H 27.020200 -8.831700 4.420400 0
M  V30 26 H 28.504300 -9.026500 5.073100 0
M  V30 27 H 25.569400 -9.447100 2.511100 0
M  V30 END ATOM
M  V30 BEGIN BOND
M  V30 1 1 1 13
M  V30 2 1 2 4
M  V30 3 1 2 5
M  V30 4 1 3 14
M  V30 5 2 4 14
M  V30 6 2 5 17
M  V30 7 2 6 10
M  V30 8 1 6 13
M  V30 9 2 7 15
M  V30 10 1 7 16
M  V30 11 1 8 11
M  V30 12 1 8 15
M  V30 13 1 8 18
M  V30 14 1 9 11
M  V30 15 1 10 16
M  V30 16 2 12 13
M  V30 17 1 12 18
M  V30 18 1 14 17
M  V30 19 1 15 17
M  V30 20 2 16 18
M  V30 21 1 3 19
M  V30 22 1 3 20
M  V30 23 1 9 21
M  V30 24 1 9 22
M  V30 25 1 9 23
M  V30 26 1 10 24
M  V30 27 1 11 25
M  V30 28 1 11 26
M  V30 29 1 12 27
M  V30 END BOND
M  V30 END CTAB
M  END
>  <Ligand_Instance>  (268) 
4C37_Z21_A_1351

>  <Dataset>  (268) 
PDB

>  <PDB_ID>  (268) 
4C37

>  <Chain>  (268) 
A

>  <Resi>  (268) 
1351

>  <Num_Resolved_Atoms>  (268) 
18

>  <Num_H_Atoms_ProtBoundConf>  (268) 
9

>  <Pocket>  (268) 
A

>  <Name>  (268) 
4-(6-bromo-1-ethyl-1H-imidazo[4,5-c]pyridin-2-yl)-1,2,5-oxadiazol-3-amine

>  <Num_Not_Resolved_Atoms>  (268) 
0

>  <ATP_Site>  (268) 
True

>  <Peripheral>  (268) 
False

>  <Standardized_SMILES>  (268) 
[H]C1=C2N=C(C3=NON=C3N([H])[H])N(C([H])([H])C([H])([H])[H])C2=C([H])C(Br)=N1

>  <2D_Mol_H>  (268) 
<rdkit.Chem.rdchem.Mol object at 0x77059d84ccf0>

>  <MW>  (268) 
309.127

>  <HBA>  (268) 
7

>  <HBD>  (268) 
1

>  <LogP>  (268) 
1.8459

>  <NRB>  (268) 
4

>  <TPSA>  (268) 
95.65

>  <Num_Heavy_Atoms>  (268) 
18

>  <Ro5>  (268) 
[True, True, True, True, True, True]

>  <Ro5_Fulfilled>  (268) 
True

>  <Ro3>  (268) 
[False, False, True, True]

>  <Ro3_Fulfilled>  (268) 
False

>  <Fsp3>  (268) 
0.2

>  <Fsp3_0.42>  (268) 
False

>  <Fsp3_0.45>  (268) 
False

>  <Stereogenic_Carbons>  (268) 
0

>  <C_Atoms>  (268) 
10

>  <FCStereo>  (268) 
0.0

>  <SPS>  (268) 
202

>  <nSPS>  (268) 
11.222222

>  <PBF>  (268) 
0.364583

>  <PBF_0.6>  (268) 
False

>  <nPBF>  (268) 
0.020255

>  <nPBF_0.016>  (268) 
True

>  <PMI1>  (268) 
541.306724

>  <PMI2>  (268) 
3587.764456

>  <PMI3>  (268) 
4086.545616

>  <NPR1>  (268) 
0.132461

>  <NPR2>  (268) 
0.877946

>  <Sum_NPR>  (268) 
1.010406

>  <Sum_NPR_1.07>  (268) 
False

>  <Sum_NPR_1.2>  (268) 
False

>  <MaxAbsEStateIndex>  (268) 
5.702326

>  <MaxEStateIndex>  (268) 
5.702326

>  <MinAbsEStateIndex>  (268) 
0.228732

>  <MinEStateIndex>  (268) 
0.228732

>  <qed>  (268) 
0.725735

>  <MolWt>  (268) 
309.127

>  <HeavyAtomMolWt>  (268) 
300.055

>  <ExactMolWt>  (268) 
308.002121

>  <NumValenceElectrons>  (268) 
92

>  <NumRadicalElectrons>  (268) 
0

>  <MaxPartialCharge>  (268) 
0.199153

>  <MinPartialCharge>  (268) 
-0.378861

>  <MaxAbsPartialCharge>  (268) 
0.378861

>  <MinAbsPartialCharge>  (268) 
0.199153

>  <FpDensityMorgan1>  (268) 
1.444444

>  <FpDensityMorgan2>  (268) 
2.277778

>  <FpDensityMorgan3>  (268) 
2.944444

>  <BCUT2D_MWHI>  (268) 
79.918731

>  <BCUT2D_MWLOW>  (268) 
10.363099

>  <BCUT2D_CHGHI>  (268) 
2.179819

>  <BCUT2D_CHGLO>  (268) 
-2.025743

>  <BCUT2D_LOGPHI>  (268) 
2.266532

>  <BCUT2D_LOGPLOW>  (268) 
-1.99479

>  <BCUT2D_MRHI>  (268) 
9.10241

>  <BCUT2D_MRLOW>  (268) 
0.309783

>  <AvgIpc>  (268) 
2.911524

>  <BalabanJ>  (268) 
2.330373

>  <BertzCT>  (268) 
718.302709

>  <Chi0>  (268) 
12.698306

>  <Chi0n>  (268) 
9.461438

>  <Chi0v>  (268) 
11.047435

>  <Chi1>  (268) 
8.702709

>  <Chi1n>  (268) 
5.305612

>  <Chi1v>  (268) 
6.09861

>  <Chi2n>  (268) 
3.673481

>  <Chi2v>  (268) 
4.485959

>  <Chi3n>  (268) 
2.643175

>  <Chi3v>  (268) 
3.076845

>  <Chi4n>  (268) 
1.855336

>  <Chi4v>  (268) 
2.174547

>  <HallKierAlpha>  (268) 
-1.96

>  <Ipc>  (268) 
22861.286895

>  <Kappa1>  (268) 
11.14877

>  <Kappa2>  (268) 
4.054793

>  <Kappa3>  (268) 
1.5664

>  <LabuteASA>  (268) 
110.10225

>  <PEOE_VSA1>  (268) 
10.300767

>  <PEOE_VSA10>  (268) 
10.119897

>  <PEOE_VSA11>  (268) 
17.336195

>  <PEOE_VSA12>  (268) 
0.0

>  <PEOE_VSA13>  (268) 
0.0

>  <PEOE_VSA14>  (268) 
0.0

>  <PEOE_VSA2>  (268) 
0.0

>  <PEOE_VSA3>  (268) 
14.596996

>  <PEOE_VSA4>  (268) 
0.0

>  <PEOE_VSA5>  (268) 
0.0

>  <PEOE_VSA6>  (268) 
0.0

>  <PEOE_VSA7>  (268) 
39.233375

>  <PEOE_VSA8>  (268) 
6.544756

>  <PEOE_VSA9>  (268) 
11.713544

>  <SMR_VSA1>  (268) 
4.629039

>  <SMR_VSA10>  (268) 
32.781208

>  <SMR_VSA2>  (268) 
0.0

>  <SMR_VSA3>  (268) 
24.848383

>  <SMR_VSA4>  (268) 
0.0

>  <SMR_VSA5>  (268) 
13.468494

>  <SMR_VSA6>  (268) 
5.733667

>  <SMR_VSA7>  (268) 
16.866407

>  <SMR_VSA8>  (268) 
0.0

>  <SMR_VSA9>  (268) 
11.518332

>  <SlogP_VSA1>  (268) 
5.733667

>  <SlogP_VSA10>  (268) 
5.817863

>  <SlogP_VSA11>  (268) 
0.0

>  <SlogP_VSA12>  (268) 
15.929944

>  <SlogP_VSA2>  (268) 
24.848383

>  <SlogP_VSA3>  (268) 
6.544756

>  <SlogP_VSA4>  (268) 
0.0

>  <SlogP_VSA5>  (268) 
6.923737

>  <SlogP_VSA6>  (268) 
21.495446

>  <SlogP_VSA7>  (268) 
0.0

>  <SlogP_VSA8>  (268) 
22.551734

>  <SlogP_VSA9>  (268) 
0.0

>  <EState_VSA1>  (268) 
0.0

>  <EState_VSA10>  (268) 
0.0

>  <EState_VSA11>  (268) 
0.0

>  <EState_VSA2>  (268) 
5.817863

>  <EState_VSA3>  (268) 
11.518332

>  <EState_VSA4>  (268) 
22.181354

>  <EState_VSA5>  (268) 
0.0

>  <EState_VSA6>  (268) 
6.196844

>  <EState_VSA7>  (268) 
17.557204

>  <EState_VSA8>  (268) 
40.840266

>  <EState_VSA9>  (268) 
5.733667

>  <VSA_EState1>  (268) 
7.351721

>  <VSA_EState10>  (268) 
3.344834

>  <VSA_EState2>  (268) 
8.614969

>  <VSA_EState3>  (268) 
7.355335

>  <VSA_EState4>  (268) 
7.881397

>  <VSA_EState5>  (268) 
0.859427

>  <VSA_EState6>  (268) 
1.901821

>  <VSA_EState7>  (268) 
1.693233

>  <VSA_EState8>  (268) 
2.747264

>  <VSA_EState9>  (268) 
0.0

>  <FractionCSP3>  (268) 
0.2

>  <HeavyAtomCount>  (268) 
18

>  <NHOHCount>  (268) 
2

>  <NOCount>  (268) 
7

>  <NumAliphaticCarbocycles>  (268) 
0

>  <NumAliphaticHeterocycles>  (268) 
0

>  <NumAliphaticRings>  (268) 
0

>  <NumAromaticCarbocycles>  (268) 
0

>  <NumAromaticHeterocycles>  (268) 
3

>  <NumAromaticRings>  (268) 
3

>  <NumHAcceptors>  (268) 
7

>  <NumHDonors>  (268) 
1

>  <NumHeteroatoms>  (268) 
8

>  <NumRotatableBonds>  (268) 
2

>  <NumSaturatedCarbocycles>  (268) 
0

>  <NumSaturatedHeterocycles>  (268) 
0

>  <NumSaturatedRings>  (268) 
0

>  <RingCount>  (268) 
3

>  <MolLogP>  (268) 
1.8459

>  <MolMR>  (268) 
68.6064

>  <fr_Al_COO>  (268) 
0

>  <fr_Al_OH>  (268) 
0

>  <fr_Al_OH_noTert>  (268) 
0

>  <fr_ArN>  (268) 
1

>  <fr_Ar_COO>  (268) 
0

>  <fr_Ar_N>  (268) 
5

>  <fr_Ar_NH>  (268) 
0

>  <fr_Ar_OH>  (268) 
0

>  <fr_COO>  (268) 
0

>  <fr_COO2>  (268) 
0

>  <fr_C_O>  (268) 
0

>  <fr_C_O_noCOO>  (268) 
0

>  <fr_C_S>  (268) 
0

>  <fr_HOCCN>  (268) 
0

>  <fr_Imine>  (268) 
0

>  <fr_NH0>  (268) 
5

>  <fr_NH1>  (268) 
0

>  <fr_NH2>  (268) 
1

>  <fr_N_O>  (268) 
0

>  <fr_Ndealkylation1>  (268) 
0

>  <fr_Ndealkylation2>  (268) 
0

>  <fr_Nhpyrrole>  (268) 
0

>  <fr_SH>  (268) 
0

>  <fr_aldehyde>  (268) 
0

>  <fr_alkyl_carbamate>  (268) 
0

>  <fr_alkyl_halide>  (268) 
0

>  <fr_allylic_oxid>  (268) 
0

>  <fr_amide>  (268) 
0

>  <fr_amidine>  (268) 
0

>  <fr_aniline>  (268) 
1

>  <fr_aryl_methyl>  (268) 
1

>  <fr_azide>  (268) 
0

>  <fr_azo>  (268) 
0

>  <fr_barbitur>  (268) 
0

>  <fr_benzene>  (268) 
0

>  <fr_benzodiazepine>  (268) 
0

>  <fr_bicyclic>  (268) 
1

>  <fr_diazo>  (268) 
0

>  <fr_dihydropyridine>  (268) 
0

>  <fr_epoxide>  (268) 
0

>  <fr_ester>  (268) 
0

>  <fr_ether>  (268) 
0

>  <fr_furan>  (268) 
0

>  <fr_guanido>  (268) 
0

>  <fr_halogen>  (268) 
1

>  <fr_hdrzine>  (268) 
0

>  <fr_hdrzone>  (268) 
0

>  <fr_imidazole>  (268) 
1

>  <fr_imide>  (268) 
0

>  <fr_isocyan>  (268) 
0

>  <fr_isothiocyan>  (268) 
0

>  <fr_ketone>  (268) 
0

>  <fr_ketone_Topliss>  (268) 
0

>  <fr_lactam>  (268) 
0

>  <fr_lactone>  (268) 
0

>  <fr_methoxy>  (268) 
0

>  <fr_morpholine>  (268) 
0

>  <fr_nitrile>  (268) 
0

>  <fr_nitro>  (268) 
0

>  <fr_nitro_arom>  (268) 
0

>  <fr_nitro_arom_nonortho>  (268) 
0

>  <fr_nitroso>  (268) 
0

>  <fr_oxazole>  (268) 
0

>  <fr_oxime>  (268) 
0

>  <fr_para_hydroxylation>  (268) 
0

>  <fr_phenol>  (268) 
0

>  <fr_phenol_noOrthoHbond>  (268) 
0

>  <fr_phos_acid>  (268) 
0

>  <fr_phos_ester>  (268) 
0

>  <fr_piperdine>  (268) 
0

>  <fr_piperzine>  (268) 
0

>  <fr_priamide>  (268) 
0

>  <fr_prisulfonamd>  (268) 
0

>  <fr_pyridine>  (268) 
1

>  <fr_quatN>  (268) 
0

>  <fr_sulfide>  (268) 
0

>  <fr_sulfonamd>  (268) 
0

>  <fr_sulfone>  (268) 
0

>  <fr_term_acetylene>  (268) 
0

>  <fr_tetrazole>  (268) 
0

>  <fr_thiazole>  (268) 
0

>  <fr_thiocyan>  (268) 
0

>  <fr_thiophene>  (268) 
0

>  <fr_unbrch_alkane>  (268) 
0

>  <fr_urea>  (268) 
0

>  <NP_Likeness>  (268) 
-1.512424

$$$$
ZO9
     RDKit          3D

  0  0  0  0  0  0  0  0  0  0999 V3000
M  V30 BEGIN CTAB
M  V30 COUNTS 32 35 0 0 0
M  V30 BEGIN ATOM
M  V30 1 O -32.165000 -10.223000 -5.468000 0
M  V30 2 N -32.636000 -9.745000 -2.073000 0
M  V30 3 N -33.013000 -10.092000 -4.356000 0
M  V30 4 N -30.829000 -10.120000 -5.100000 0
M  V30 5 N -29.806000 -10.039000 -1.613000 0
M  V30 6 N -28.375000 -9.509000 -3.279000 0
M  V30 7 C -27.891000 -9.066000 -4.601000 0
M  V30 8 C -26.709000 -9.901000 0.473000 0
M  V30 9 C -25.817000 -9.578000 -0.547000 0
M  V30 10 C -28.059000 -10.083000 0.207000 0
M  V30 11 C -26.257000 -9.431000 -1.860000 0
M  V30 12 C -26.144000 -10.830000 -5.329000 0
M  V30 13 C -26.499000 -10.061000 -6.558000 0
M  V30 14 C -32.219000 -9.931000 -3.330000 0
M  V30 15 C -29.678000 -9.763000 -2.899000 0
M  V30 16 C -28.513000 -9.946000 -1.105000 0
M  V30 17 C -30.847000 -9.916000 -3.795000 0
M  V30 18 C -27.612000 -9.623000 -2.118000 0
M  V30 19 C -27.512000 -10.245000 -5.472000 0
M  V30 20 H -31.969100 -9.628700 -1.337000 0
M  V30 21 H -33.614700 -9.722200 -1.869100 0
M  V30 22 H -27.088500 -8.482700 -4.475300 0
M  V30 23 H -28.614000 -8.545000 -5.054700 0
M  V30 24 H -26.372300 -10.003100 1.409100 0
M  V30 25 H -24.848400 -9.450100 -0.333700 0
M  V30 26 H -28.696100 -10.308700 0.944000 0
M  V30 27 H -25.620300 -9.195100 -2.594200 0
M  V30 28 H -25.502400 -10.444200 -4.666100 0
M  V30 29 H -26.016400 -11.820600 -5.378800 0
M  V30 30 H -26.609700 -10.536500 -7.430700 0
M  V30 31 H -26.095600 -9.160100 -6.718000 0
M  V30 32 H -28.245700 -10.896000 -5.666800 0
M  V30 END ATOM
M  V30 BEGIN BOND
M  V30 1 1 1 3
M  V30 2 1 1 4
M  V30 3 1 2 14
M  V30 4 2 3 14
M  V30 5 2 4 17
M  V30 6 2 5 15
M  V30 7 1 5 16
M  V30 8 1 6 7
M  V30 9 1 6 15
M  V30 10 1 6 18
M  V30 11 1 7 19
M  V30 12 2 8 9
M  V30 13 1 8 10
M  V30 14 1 9 11
M  V30 15 2 10 16
M  V30 16 2 11 18
M  V30 17 1 12 13
M  V30 18 1 12 19
M  V30 19 1 13 19
M  V30 20 1 14 17
M  V30 21 1 15 17
M  V30 22 1 16 18
M  V30 23 1 2 20
M  V30 24 1 2 21
M  V30 25 1 7 22
M  V30 26 1 7 23
M  V30 27 1 8 24
M  V30 28 1 9 25
M  V30 29 1 10 26
M  V30 30 1 11 27
M  V30 31 1 12 28
M  V30 32 1 12 29
M  V30 33 1 13 30
M  V30 34 1 13 31
M  V30 35 1 19 32
M  V30 END BOND
M  V30 END CTAB
M  END
>  <Ligand_Instance>  (269) 
4C36_ZO9_A_1351

>  <Dataset>  (269) 
PDB

>  <PDB_ID>  (269) 
4C36

>  <Chain>  (269) 
A

>  <Resi>  (269) 
1351

>  <Num_Resolved_Atoms>  (269) 
19

>  <Num_H_Atoms_ProtBoundConf>  (269) 
13

>  <Pocket>  (269) 
A

>  <Name>  (269) 
4-[1-(cyclopropylmethyl)-1H-benzimidazol-2-yl]-1,2,5-oxadiazol-3-amine

>  <Num_Not_Resolved_Atoms>  (269) 
0

>  <ATP_Site>  (269) 
True

>  <Peripheral>  (269) 
False

>  <Standardized_SMILES>  (269) 
[H]C1=C([H])C([H])=C2C(=C1[H])N=C(C1=NON=C1N([H])[H])N2C([H])([H])C1([H])C([H])([H])C1([H])[H]

>  <2D_Mol_H>  (269) 
<rdkit.Chem.rdchem.Mol object at 0x77059d84cdd0>

>  <MW>  (269) 
255.281

>  <HBA>  (269) 
6

>  <HBD>  (269) 
1

>  <LogP>  (269) 
2.0785

>  <NRB>  (269) 
4

>  <TPSA>  (269) 
82.76

>  <Num_Heavy_Atoms>  (269) 
19

>  <Ro5>  (269) 
[True, True, True, True, True, True]

>  <Ro5_Fulfilled>  (269) 
True

>  <Ro3>  (269) 
[True, False, True, True]

>  <Ro3_Fulfilled>  (269) 
True

>  <Fsp3>  (269) 
0.307692

>  <Fsp3_0.42>  (269) 
False

>  <Fsp3_0.45>  (269) 
False

>  <Stereogenic_Carbons>  (269) 
0

>  <C_Atoms>  (269) 
13

>  <FCStereo>  (269) 
0.0

>  <SPS>  (269) 
288

>  <nSPS>  (269) 
15.157895

>  <PBF>  (269) 
0.452484

>  <PBF_0.6>  (269) 
False

>  <nPBF>  (269) 
0.023815

>  <nPBF_0.016>  (269) 
True

>  <PMI1>  (269) 
992.683058

>  <PMI2>  (269) 
1584.635629

>  <PMI3>  (269) 
2500.28713

>  <NPR1>  (269) 
0.397028

>  <NPR2>  (269) 
0.633781

>  <Sum_NPR>  (269) 
1.030809

>  <Sum_NPR_1.07>  (269) 
False

>  <Sum_NPR_1.2>  (269) 
False

>  <MaxAbsEStateIndex>  (269) 
5.789041

>  <MaxEStateIndex>  (269) 
5.789041

>  <MinAbsEStateIndex>  (269) 
0.284586

>  <MinEStateIndex>  (269) 
0.284586

>  <qed>  (269) 
0.774276

>  <MolWt>  (269) 
255.281

>  <HeavyAtomMolWt>  (269) 
242.177

>  <ExactMolWt>  (269) 
255.11201

>  <NumValenceElectrons>  (269) 
96

>  <NumRadicalElectrons>  (269) 
0

>  <MaxPartialCharge>  (269) 
0.199153

>  <MinPartialCharge>  (269) 
-0.378861

>  <MaxAbsPartialCharge>  (269) 
0.378861

>  <MinAbsPartialCharge>  (269) 
0.199153

>  <FpDensityMorgan1>  (269) 
1.263158

>  <FpDensityMorgan2>  (269) 
2.105263

>  <FpDensityMorgan3>  (269) 
2.842105

>  <BCUT2D_MWHI>  (269) 
16.564438

>  <BCUT2D_MWLOW>  (269) 
10.277649

>  <BCUT2D_CHGHI>  (269) 
2.258626

>  <BCUT2D_CHGLO>  (269) 
-2.056563

>  <BCUT2D_LOGPHI>  (269) 
2.343976

>  <BCUT2D_LOGPLOW>  (269) 
-2.032953

>  <BCUT2D_MRHI>  (269) 
5.810419

>  <BCUT2D_MRLOW>  (269) 
0.309741

>  <AvgIpc>  (269) 
3.029763

>  <BalabanJ>  (269) 
1.948221

>  <BertzCT>  (269) 
740.414365

>  <Chi0>  (269) 
12.819626

>  <Chi0n>  (269) 
10.282525

>  <Chi0v>  (269) 
10.282525

>  <Chi1>  (269) 
9.3265

>  <Chi1n>  (269) 
6.363787

>  <Chi1v>  (269) 
6.363787

>  <Chi2n>  (269) 
4.976177

>  <Chi2v>  (269) 
4.976177

>  <Chi3n>  (269) 
3.517955

>  <Chi3v>  (269) 
3.517955

>  <Chi4n>  (269) 
2.350313

>  <Chi4v>  (269) 
2.350313

>  <HallKierAlpha>  (269) 
-2.37

>  <Ipc>  (269) 
57759.407346

>  <Kappa1>  (269) 
10.543131

>  <Kappa2>  (269) 
3.810521

>  <Kappa3>  (269) 
1.675475

>  <LabuteASA>  (269) 
108.739108

>  <PEOE_VSA1>  (269) 
10.300767

>  <PEOE_VSA10>  (269) 
0.0

>  <PEOE_VSA11>  (269) 
17.336195

>  <PEOE_VSA12>  (269) 
0.0

>  <PEOE_VSA13>  (269) 
0.0

>  <PEOE_VSA14>  (269) 
0.0

>  <PEOE_VSA2>  (269) 
0.0

>  <PEOE_VSA3>  (269) 
9.613017

>  <PEOE_VSA4>  (269) 
0.0

>  <PEOE_VSA5>  (269) 
0.0

>  <PEOE_VSA6>  (269) 
12.132734

>  <PEOE_VSA7>  (269) 
41.20561

>  <PEOE_VSA8>  (269) 
6.544756

>  <PEOE_VSA9>  (269) 
11.033401

>  <SMR_VSA1>  (269) 
4.629039

>  <SMR_VSA10>  (269) 
16.851264

>  <SMR_VSA2>  (269) 
0.0

>  <SMR_VSA3>  (269) 
19.864405

>  <SMR_VSA4>  (269) 
5.917906

>  <SMR_VSA5>  (269) 
19.3864

>  <SMR_VSA6>  (269) 
5.733667

>  <SMR_VSA7>  (269) 
24.265468

>  <SMR_VSA8>  (269) 
0.0

>  <SMR_VSA9>  (269) 
11.518332

>  <SlogP_VSA1>  (269) 
5.733667

>  <SlogP_VSA10>  (269) 
5.817863

>  <SlogP_VSA11>  (269) 
0.0

>  <SlogP_VSA12>  (269) 
0.0

>  <SlogP_VSA2>  (269) 
19.864405

>  <SlogP_VSA3>  (269) 
6.544756

>  <SlogP_VSA4>  (269) 
5.917906

>  <SlogP_VSA5>  (269) 
12.841643

>  <SlogP_VSA6>  (269) 
28.894507

>  <SlogP_VSA7>  (269) 
0.0

>  <SlogP_VSA8>  (269) 
22.551734

>  <SlogP_VSA9>  (269) 
0.0

>  <EState_VSA1>  (269) 
0.0

>  <EState_VSA10>  (269) 
0.0

>  <EState_VSA11>  (269) 
0.0

>  <EState_VSA2>  (269) 
5.817863

>  <EState_VSA3>  (269) 
5.693928

>  <EState_VSA4>  (269) 
29.320468

>  <EState_VSA5>  (269) 
12.841643

>  <EState_VSA6>  (269) 
0.0

>  <EState_VSA7>  (269) 
18.199101

>  <EState_VSA8>  (269) 
25.930772

>  <EState_VSA9>  (269) 
10.362706

>  <VSA_EState1>  (269) 
6.862502

>  <VSA_EState10>  (269) 
0.0

>  <VSA_EState2>  (269) 
4.617269

>  <VSA_EState3>  (269) 
7.512588

>  <VSA_EState4>  (269) 
8.362374

>  <VSA_EState5>  (269) 
1.760781

>  <VSA_EState6>  (269) 
8.05201

>  <VSA_EState7>  (269) 
2.552568

>  <VSA_EState8>  (269) 
0.946574

>  <VSA_EState9>  (269) 
0.0

>  <FractionCSP3>  (269) 
0.307692

>  <HeavyAtomCount>  (269) 
19

>  <NHOHCount>  (269) 
2

>  <NOCount>  (269) 
6

>  <NumAliphaticCarbocycles>  (269) 
1

>  <NumAliphaticHeterocycles>  (269) 
0

>  <NumAliphaticRings>  (269) 
1

>  <NumAromaticCarbocycles>  (269) 
1

>  <NumAromaticHeterocycles>  (269) 
2

>  <NumAromaticRings>  (269) 
3

>  <NumHAcceptors>  (269) 
6

>  <NumHDonors>  (269) 
1

>  <NumHeteroatoms>  (269) 
6

>  <NumRotatableBonds>  (269) 
3

>  <NumSaturatedCarbocycles>  (269) 
1

>  <NumSaturatedHeterocycles>  (269) 
0

>  <NumSaturatedRings>  (269) 
1

>  <RingCount>  (269) 
4

>  <MolLogP>  (269) 
2.0785

>  <MolMR>  (269) 
70.1614

>  <fr_Al_COO>  (269) 
0

>  <fr_Al_OH>  (269) 
0

>  <fr_Al_OH_noTert>  (269) 
0

>  <fr_ArN>  (269) 
1

>  <fr_Ar_COO>  (269) 
0

>  <fr_Ar_N>  (269) 
4

>  <fr_Ar_NH>  (269) 
0

>  <fr_Ar_OH>  (269) 
0

>  <fr_COO>  (269) 
0

>  <fr_COO2>  (269) 
0

>  <fr_C_O>  (269) 
0

>  <fr_C_O_noCOO>  (269) 
0

>  <fr_C_S>  (269) 
0

>  <fr_HOCCN>  (269) 
0

>  <fr_Imine>  (269) 
0

>  <fr_NH0>  (269) 
4

>  <fr_NH1>  (269) 
0

>  <fr_NH2>  (269) 
1

>  <fr_N_O>  (269) 
0

>  <fr_Ndealkylation1>  (269) 
0

>  <fr_Ndealkylation2>  (269) 
0

>  <fr_Nhpyrrole>  (269) 
0

>  <fr_SH>  (269) 
0

>  <fr_aldehyde>  (269) 
0

>  <fr_alkyl_carbamate>  (269) 
0

>  <fr_alkyl_halide>  (269) 
0

>  <fr_allylic_oxid>  (269) 
0

>  <fr_amide>  (269) 
0

>  <fr_amidine>  (269) 
0

>  <fr_aniline>  (269) 
1

>  <fr_aryl_methyl>  (269) 
0

>  <fr_azide>  (269) 
0

>  <fr_azo>  (269) 
0

>  <fr_barbitur>  (269) 
0

>  <fr_benzene>  (269) 
1

>  <fr_benzodiazepine>  (269) 
0

>  <fr_bicyclic>  (269) 
1

>  <fr_diazo>  (269) 
0

>  <fr_dihydropyridine>  (269) 
0

>  <fr_epoxide>  (269) 
0

>  <fr_ester>  (269) 
0

>  <fr_ether>  (269) 
0

>  <fr_furan>  (269) 
0

>  <fr_guanido>  (269) 
0

>  <fr_halogen>  (269) 
0

>  <fr_hdrzine>  (269) 
0

>  <fr_hdrzone>  (269) 
0

>  <fr_imidazole>  (269) 
1

>  <fr_imide>  (269) 
0

>  <fr_isocyan>  (269) 
0

>  <fr_isothiocyan>  (269) 
0

>  <fr_ketone>  (269) 
0

>  <fr_ketone_Topliss>  (269) 
0

>  <fr_lactam>  (269) 
0

>  <fr_lactone>  (269) 
0

>  <fr_methoxy>  (269) 
0

>  <fr_morpholine>  (269) 
0

>  <fr_nitrile>  (269) 
0

>  <fr_nitro>  (269) 
0

>  <fr_nitro_arom>  (269) 
0

>  <fr_nitro_arom_nonortho>  (269) 
0

>  <fr_nitroso>  (269) 
0

>  <fr_oxazole>  (269) 
0

>  <fr_oxime>  (269) 
0

>  <fr_para_hydroxylation>  (269) 
2

>  <fr_phenol>  (269) 
0

>  <fr_phenol_noOrthoHbond>  (269) 
0

>  <fr_phos_acid>  (269) 
0

>  <fr_phos_ester>  (269) 
0

>  <fr_piperdine>  (269) 
0

>  <fr_piperzine>  (269) 
0

>  <fr_priamide>  (269) 
0

>  <fr_prisulfonamd>  (269) 
0

>  <fr_pyridine>  (269) 
0

>  <fr_quatN>  (269) 
0

>  <fr_sulfide>  (269) 
0

>  <fr_sulfonamd>  (269) 
0

>  <fr_sulfone>  (269) 
0

>  <fr_term_acetylene>  (269) 
0

>  <fr_tetrazole>  (269) 
0

>  <fr_thiazole>  (269) 
0

>  <fr_thiocyan>  (269) 
0

>  <fr_thiophene>  (269) 
0

>  <fr_unbrch_alkane>  (269) 
0

>  <fr_urea>  (269) 
0

>  <NP_Likeness>  (269) 
-1.557716

$$$$
ZWG
     RDKit          3D

  0  0  0  0  0  0  0  0  0  0999 V3000
M  V30 BEGIN CTAB
M  V30 COUNTS 47 49 0 0 0
M  V30 BEGIN ATOM
M  V30 1 O -12.377000 11.029000 -4.157000 0
M  V30 2 N -14.794000 10.265000 -3.575000 0 CHG=1
M  V30 3 N -2.812000 9.872000 -2.537000 0
M  V30 4 N -3.230000 9.847000 -4.966000 0
M  V30 5 N -11.335000 9.855000 -2.439000 0
M  V30 6 C -14.410000 11.949000 0.881000 0
M  V30 7 C -12.216000 12.382000 -0.288000 0
M  V30 8 C -3.564000 9.947000 -1.450000 0
M  V30 9 C -4.178000 9.888000 -5.877000 0
M  V30 10 C -4.895000 10.036000 -1.809000 0
M  V30 11 C -5.543000 9.987000 -5.520000 0
M  V30 12 C -8.982000 9.247000 -2.255000 0
M  V30 13 C -9.604000 10.707000 -4.055000 0
M  V30 14 C -7.662000 9.313000 -2.694000 0
M  V30 15 C -8.276000 10.775000 -4.480000 0
M  V30 16 C -14.121000 11.725000 -1.712000 0
M  V30 17 C -12.468000 10.482000 -3.113000 0
M  V30 18 C -3.569000 9.913000 -3.644000 0
M  V30 19 C -13.856000 10.416000 -2.489000 0 CFG=2
M  V30 20 C -13.526000 11.593000 -0.316000 0
M  V30 21 C -9.970000 9.922000 -2.949000 0
M  V30 22 C -7.288000 10.095000 -3.787000 0
M  V30 23 C -4.885000 10.009000 -3.231000 0
M  V30 24 C -5.935000 10.063000 -4.187000 0
M  V30 25 H -14.420600 10.690100 -4.399500 0
M  V30 26 H -14.953900 9.292500 -3.744500 0
M  V30 27 H -1.815000 9.795200 -2.533500 0
M  V30 28 H -11.502400 9.356500 -1.588400 0
M  V30 29 H -15.257800 11.420400 0.838200 0
M  V30 30 H -13.925500 11.733900 1.728900 0
M  V30 31 H -14.624500 12.925500 0.858200 0
M  V30 32 H -11.658600 12.130800 -1.079300 0
M  V30 33 H -12.416000 13.361300 -0.318500 0
M  V30 34 H -11.716900 12.169700 0.552200 0
M  V30 35 H -3.220400 9.940200 -0.510900 0
M  V30 36 H -3.927800 9.848300 -6.844400 0
M  V30 37 H -5.688400 10.104200 -1.204100 0
M  V30 38 H -6.238700 10.002700 -6.238200 0
M  V30 39 H -9.214600 8.713900 -1.441500 0
M  V30 40 H -10.305200 11.224800 -4.545200 0
M  V30 41 H -6.962600 8.785000 -2.212200 0
M  V30 42 H -8.037400 11.315900 -5.286600 0
M  V30 43 H -15.106200 11.882700 -1.644400 0
M  V30 44 H -13.692600 12.492300 -2.189300 0
M  V30 45 H -13.917400 9.632000 -1.871200 0
M  V30 46 H -13.277300 10.630700 -0.205900 0
M  V30 47 H -15.657500 10.707700 -3.333600 0
M  V30 END ATOM
M  V30 BEGIN BOND
M  V30 1 2 1 17
M  V30 2 1 2 19
M  V30 3 1 3 8
M  V30 4 1 3 18
M  V30 5 1 4 9
M  V30 6 2 4 18
M  V30 7 1 5 17
M  V30 8 1 5 21
M  V30 9 1 6 20
M  V30 10 1 7 20
M  V30 11 2 8 10
M  V30 12 2 9 11
M  V30 13 1 10 23
M  V30 14 1 11 24
M  V30 15 2 12 14
M  V30 16 1 12 21
M  V30 17 1 13 15
M  V30 18 2 13 21
M  V30 19 1 14 22
M  V30 20 2 15 22
M  V30 21 1 16 19
M  V30 22 1 16 20
M  V30 23 1 17 19
M  V30 24 1 18 23
M  V30 25 1 22 24
M  V30 26 2 23 24
M  V30 27 1 2 25
M  V30 28 1 2 26
M  V30 29 1 3 27
M  V30 30 1 5 28
M  V30 31 1 6 29
M  V30 32 1 6 30
M  V30 33 1 6 31
M  V30 34 1 7 32
M  V30 35 1 7 33
M  V30 36 1 7 34
M  V30 37 1 8 35
M  V30 38 1 9 36
M  V30 39 1 10 37
M  V30 40 1 11 38
M  V30 41 1 12 39
M  V30 42 1 13 40
M  V30 43 1 14 41
M  V30 44 1 15 42
M  V30 45 1 16 43
M  V30 46 1 16 44
M  V30 47 1 19 45 CFG=1
M  V30 48 1 20 46
M  V30 49 1 2 47
M  V30 END BOND
M  V30 END CTAB
M  END
>  <Ligand_Instance>  (270) 
8SF8_ZWG_A_401

>  <Dataset>  (270) 
PDB

>  <PDB_ID>  (270) 
8SF8

>  <Chain>  (270) 
A

>  <Resi>  (270) 
401

>  <Num_Resolved_Atoms>  (270) 
24

>  <Num_H_Atoms_ProtBoundConf>  (270) 
23

>  <Pocket>  (270) 
A

>  <Name>  (270) 
N-[4-(1H-pyrrolo[2,3-b]pyridin-4-yl)phenyl]-D-leucinamide

>  <Num_Not_Resolved_Atoms>  (270) 
0

>  <ATP_Site>  (270) 
True

>  <Peripheral>  (270) 
False

>  <Standardized_SMILES>  (270) 
[H]C1=NC2=C(C([H])=C([H])N2[H])C(C2=C([H])C([H])=C(N([H])C(=O)[C@@]([H])(C([H])([H])C([H])(C([H])([H])[H])C([H])([H])[H])[N+]([H])([H])[H])C([H])=C2[H])=C1[H]

>  <2D_Mol_H>  (270) 
<rdkit.Chem.rdchem.Mol object at 0x77059d84ceb0>

>  <MW>  (270) 
323.42

>  <HBA>  (270) 
2

>  <HBD>  (270) 
3

>  <LogP>  (270) 
2.825

>  <NRB>  (270) 
8

>  <TPSA>  (270) 
85.42

>  <Num_Heavy_Atoms>  (270) 
24

>  <Ro5>  (270) 
[True, True, True, True, True, True]

>  <Ro5_Fulfilled>  (270) 
True

>  <Ro3>  (270) 
[False, True, True, True]

>  <Ro3_Fulfilled>  (270) 
True

>  <Fsp3>  (270) 
0.263158

>  <Fsp3_0.42>  (270) 
False

>  <Fsp3_0.45>  (270) 
False

>  <Stereogenic_Carbons>  (270) 
1

>  <C_Atoms>  (270) 
19

>  <FCStereo>  (270) 
0.052632

>  <SPS>  (270) 
300

>  <nSPS>  (270) 
12.5

>  <PBF>  (270) 
0.674646

>  <PBF_0.6>  (270) 
True

>  <nPBF>  (270) 
0.02811

>  <nPBF_0.016>  (270) 
True

>  <PMI1>  (270) 
833.636181

>  <PMI2>  (270) 
5819.017749

>  <PMI3>  (270) 
6406.239732

>  <NPR1>  (270) 
0.130129

>  <NPR2>  (270) 
0.908336

>  <Sum_NPR>  (270) 
1.038465

>  <Sum_NPR_1.07>  (270) 
False

>  <Sum_NPR_1.2>  (270) 
False

>  <MaxAbsEStateIndex>  (270) 
12.156921

>  <MaxEStateIndex>  (270) 
12.156921

>  <MinAbsEStateIndex>  (270) 
0.033902

>  <MinEStateIndex>  (270) 
-0.232079

>  <qed>  (270) 
0.674207

>  <MolWt>  (270) 
323.42

>  <HeavyAtomMolWt>  (270) 
300.236

>  <ExactMolWt>  (270) 
323.186638

>  <NumValenceElectrons>  (270) 
124

>  <NumRadicalElectrons>  (270) 
0

>  <MaxPartialCharge>  (270) 
0.282027

>  <MinPartialCharge>  (270) 
-0.347315

>  <MaxAbsPartialCharge>  (270) 
0.347315

>  <MinAbsPartialCharge>  (270) 
0.282027

>  <FpDensityMorgan1>  (270) 
1.208333

>  <FpDensityMorgan2>  (270) 
1.958333

>  <FpDensityMorgan3>  (270) 
2.666667

>  <BCUT2D_MWHI>  (270) 
16.150494

>  <BCUT2D_MWLOW>  (270) 
10.025944

>  <BCUT2D_CHGHI>  (270) 
2.1816

>  <BCUT2D_CHGLO>  (270) 
-2.117837

>  <BCUT2D_LOGPHI>  (270) 
2.273906

>  <BCUT2D_LOGPLOW>  (270) 
-2.66189

>  <BCUT2D_MRHI>  (270) 
5.951779

>  <BCUT2D_MRLOW>  (270) 
-0.404986

>  <AvgIpc>  (270) 
3.032311

>  <BalabanJ>  (270) 
1.762855

>  <BertzCT>  (270) 
835.95389

>  <Chi0>  (270) 
17.104084

>  <Chi0n>  (270) 
14.043178

>  <Chi0v>  (270) 
14.043178

>  <Chi1>  (270) 
11.541714

>  <Chi1n>  (270) 
8.20811

>  <Chi1v>  (270) 
8.20811

>  <Chi2n>  (270) 
6.491539

>  <Chi2v>  (270) 
6.491539

>  <Chi3n>  (270) 
4.050335

>  <Chi3v>  (270) 
4.050335

>  <Chi4n>  (270) 
2.866129

>  <Chi4v>  (270) 
2.866129

>  <HallKierAlpha>  (270) 
-2.66

>  <Ipc>  (270) 
372768.033292

>  <Kappa1>  (270) 
16.206701

>  <Kappa2>  (270) 
6.844358

>  <Kappa3>  (270) 
3.463198

>  <LabuteASA>  (270) 
140.839898

>  <PEOE_VSA1>  (270) 
16.034435

>  <PEOE_VSA10>  (270) 
5.647177

>  <PEOE_VSA11>  (270) 
6.041841

>  <PEOE_VSA12>  (270) 
0.0

>  <PEOE_VSA13>  (270) 
5.90718

>  <PEOE_VSA14>  (270) 
0.0

>  <PEOE_VSA2>  (270) 
4.794537

>  <PEOE_VSA3>  (270) 
4.983979

>  <PEOE_VSA4>  (270) 
0.0

>  <PEOE_VSA5>  (270) 
0.0

>  <PEOE_VSA6>  (270) 
25.980209

>  <PEOE_VSA7>  (270) 
41.310277

>  <PEOE_VSA8>  (270) 
29.888119

>  <PEOE_VSA9>  (270) 
0.0

>  <SMR_VSA1>  (270) 
10.528205

>  <SMR_VSA10>  (270) 
22.627967

>  <SMR_VSA2>  (270) 
0.0

>  <SMR_VSA3>  (270) 
9.967957

>  <SMR_VSA4>  (270) 
5.917906

>  <SMR_VSA5>  (270) 
26.310137

>  <SMR_VSA6>  (270) 
5.316789

>  <SMR_VSA7>  (270) 
48.79189

>  <SMR_VSA8>  (270) 
0.0

>  <SMR_VSA9>  (270) 
11.126903

>  <SlogP_VSA1>  (270) 
11.050456

>  <SlogP_VSA10>  (270) 
5.687386

>  <SlogP_VSA11>  (270) 
0.0

>  <SlogP_VSA12>  (270) 
0.0

>  <SlogP_VSA2>  (270) 
21.916978

>  <SlogP_VSA3>  (270) 
4.794537

>  <SlogP_VSA4>  (270) 
5.917906

>  <SlogP_VSA5>  (270) 
20.268296

>  <SlogP_VSA6>  (270) 
48.79189

>  <SlogP_VSA7>  (270) 
0.0

>  <SlogP_VSA8>  (270) 
22.160304

>  <SlogP_VSA9>  (270) 
0.0

>  <EState_VSA1>  (270) 
0.0

>  <EState_VSA10>  (270) 
4.794537

>  <EState_VSA11>  (270) 
0.0

>  <EState_VSA2>  (270) 
11.949021

>  <EState_VSA3>  (270) 
5.917906

>  <EState_VSA4>  (270) 
34.268512

>  <EState_VSA5>  (270) 
0.0

>  <EState_VSA6>  (270) 
6.196844

>  <EState_VSA7>  (270) 
42.595046

>  <EState_VSA8>  (270) 
34.865888

>  <EState_VSA9>  (270) 
0.0

>  <VSA_EState1>  (270) 
0.0

>  <VSA_EState10>  (270) 
0.0

>  <VSA_EState2>  (270) 
19.584708

>  <VSA_EState3>  (270) 
4.025015

>  <VSA_EState4>  (270) 
7.821409

>  <VSA_EState5>  (270) 
0.420798

>  <VSA_EState6>  (270) 
11.660137

>  <VSA_EState7>  (270) 
4.46666

>  <VSA_EState8>  (270) 
4.187939

>  <VSA_EState9>  (270) 
0.0

>  <FractionCSP3>  (270) 
0.263158

>  <HeavyAtomCount>  (270) 
24

>  <NHOHCount>  (270) 
5

>  <NOCount>  (270) 
5

>  <NumAliphaticCarbocycles>  (270) 
0

>  <NumAliphaticHeterocycles>  (270) 
0

>  <NumAliphaticRings>  (270) 
0

>  <NumAromaticCarbocycles>  (270) 
1

>  <NumAromaticHeterocycles>  (270) 
2

>  <NumAromaticRings>  (270) 
3

>  <NumHAcceptors>  (270) 
2

>  <NumHDonors>  (270) 
3

>  <NumHeteroatoms>  (270) 
5

>  <NumRotatableBonds>  (270) 
5

>  <NumSaturatedCarbocycles>  (270) 
0

>  <NumSaturatedHeterocycles>  (270) 
0

>  <NumSaturatedRings>  (270) 
0

>  <RingCount>  (270) 
3

>  <MolLogP>  (270) 
2.825

>  <MolMR>  (270) 
96.2905

>  <fr_Al_COO>  (270) 
0

>  <fr_Al_OH>  (270) 
0

>  <fr_Al_OH_noTert>  (270) 
0

>  <fr_ArN>  (270) 
0

>  <fr_Ar_COO>  (270) 
0

>  <fr_Ar_N>  (270) 
2

>  <fr_Ar_NH>  (270) 
1

>  <fr_Ar_OH>  (270) 
0

>  <fr_COO>  (270) 
0

>  <fr_COO2>  (270) 
0

>  <fr_C_O>  (270) 
1

>  <fr_C_O_noCOO>  (270) 
1

>  <fr_C_S>  (270) 
0

>  <fr_HOCCN>  (270) 
0

>  <fr_Imine>  (270) 
0

>  <fr_NH0>  (270) 
1

>  <fr_NH1>  (270) 
2

>  <fr_NH2>  (270) 
0

>  <fr_N_O>  (270) 
0

>  <fr_Ndealkylation1>  (270) 
0

>  <fr_Ndealkylation2>  (270) 
0

>  <fr_Nhpyrrole>  (270) 
1

>  <fr_SH>  (270) 
0

>  <fr_aldehyde>  (270) 
0

>  <fr_alkyl_carbamate>  (270) 
0

>  <fr_alkyl_halide>  (270) 
0

>  <fr_allylic_oxid>  (270) 
0

>  <fr_amide>  (270) 
1

>  <fr_amidine>  (270) 
0

>  <fr_aniline>  (270) 
1

>  <fr_aryl_methyl>  (270) 
0

>  <fr_azide>  (270) 
0

>  <fr_azo>  (270) 
0

>  <fr_barbitur>  (270) 
0

>  <fr_benzene>  (270) 
1

>  <fr_benzodiazepine>  (270) 
0

>  <fr_bicyclic>  (270) 
1

>  <fr_diazo>  (270) 
0

>  <fr_dihydropyridine>  (270) 
0

>  <fr_epoxide>  (270) 
0

>  <fr_ester>  (270) 
0

>  <fr_ether>  (270) 
0

>  <fr_furan>  (270) 
0

>  <fr_guanido>  (270) 
0

>  <fr_halogen>  (270) 
0

>  <fr_hdrzine>  (270) 
0

>  <fr_hdrzone>  (270) 
0

>  <fr_imidazole>  (270) 
0

>  <fr_imide>  (270) 
0

>  <fr_isocyan>  (270) 
0

>  <fr_isothiocyan>  (270) 
0

>  <fr_ketone>  (270) 
0

>  <fr_ketone_Topliss>  (270) 
0

>  <fr_lactam>  (270) 
0

>  <fr_lactone>  (270) 
0

>  <fr_methoxy>  (270) 
0

>  <fr_morpholine>  (270) 
0

>  <fr_nitrile>  (270) 
0

>  <fr_nitro>  (270) 
0

>  <fr_nitro_arom>  (270) 
0

>  <fr_nitro_arom_nonortho>  (270) 
0

>  <fr_nitroso>  (270) 
0

>  <fr_oxazole>  (270) 
0

>  <fr_oxime>  (270) 
0

>  <fr_para_hydroxylation>  (270) 
0

>  <fr_phenol>  (270) 
0

>  <fr_phenol_noOrthoHbond>  (270) 
0

>  <fr_phos_acid>  (270) 
0

>  <fr_phos_ester>  (270) 
0

>  <fr_piperdine>  (270) 
0

>  <fr_piperzine>  (270) 
0

>  <fr_priamide>  (270) 
0

>  <fr_prisulfonamd>  (270) 
0

>  <fr_pyridine>  (270) 
1

>  <fr_quatN>  (270) 
1

>  <fr_sulfide>  (270) 
0

>  <fr_sulfonamd>  (270) 
0

>  <fr_sulfone>  (270) 
0

>  <fr_term_acetylene>  (270) 
0

>  <fr_tetrazole>  (270) 
0

>  <fr_thiazole>  (270) 
0

>  <fr_thiocyan>  (270) 
0

>  <fr_thiophene>  (270) 
0

>  <fr_unbrch_alkane>  (270) 
0

>  <fr_urea>  (270) 
0

>  <NP_Likeness>  (270) 
-0.689369

$$$$
