F001
     RDKit          3D

  0  0  0  0  0  0  0  0  0  0999 V3000
M  V30 BEGIN CTAB
M  V30 COUNTS 31 33 0 0 0
M  V30 BEGIN ATOM
M  V30 1 F -26.389000 -7.709000 -11.495000 0
M  V30 2 O -37.159000 -10.191000 -15.037000 0
M  V30 3 O -32.459000 -7.676000 -16.169000 0
M  V30 4 N -31.083000 -7.257000 -15.634000 0
M  V30 5 N -34.767000 -9.258000 -16.790000 0 CFG=2 CHG=1
M  V30 6 N -32.077000 -8.735000 -14.147000 0
M  V30 7 C -35.644000 -10.443000 -16.932000 0 CFG=2
M  V30 8 C -28.702000 -7.927000 -11.577000 0
M  V30 9 C -27.450000 -7.586000 -13.532000 0
M  V30 10 C -29.845000 -7.985000 -12.301000 0
M  V30 11 C -28.583000 -7.629000 -14.259000 0
M  V30 12 C -34.710000 -10.525000 -14.715000 0 CFG=2
M  V30 13 C -27.521000 -7.744000 -12.207000 0
M  V30 14 C -35.984000 -10.893000 -15.501000 0 CFG=1
M  V30 15 C -32.970000 -8.570000 -15.179000 0
M  V30 16 C -30.993000 -7.919000 -14.440000 0
M  V30 17 C -34.360000 -9.163000 -15.355000 0 CFG=1
M  V30 18 C -29.796000 -7.834000 -13.641000 0
M  V30 19 H -37.377600 -10.485500 -14.106700 0
M  V30 20 H -35.263700 -8.432600 -17.058500 0
M  V30 21 H -35.165900 -11.172400 -17.421200 0
M  V30 22 H -36.478200 -10.200500 -17.427400 0
M  V30 23 H -28.732000 -8.019100 -10.581700 0
M  V30 24 H -26.567300 -7.437800 -13.977900 0
M  V30 25 H -30.721400 -8.139000 -11.844600 0
M  V30 26 H -28.543000 -7.511600 -15.251300 0
M  V30 27 H -33.982700 -11.196400 -14.857300 0
M  V30 28 H -34.894200 -10.435400 -13.736200 0
M  V30 29 H -36.136000 -11.881000 -15.474100 0
M  V30 30 H -34.987400 -8.503200 -14.941400 0
M  V30 31 H -33.957300 -9.362400 -17.367400 0
M  V30 END ATOM
M  V30 BEGIN BOND
M  V30 1 1 1 13
M  V30 2 1 2 14
M  V30 3 1 3 4
M  V30 4 1 3 15
M  V30 5 2 4 16
M  V30 6 1 5 7
M  V30 7 1 5 17
M  V30 8 2 6 15
M  V30 9 1 6 16
M  V30 10 1 7 14
M  V30 11 1 8 10
M  V30 12 2 8 13
M  V30 13 2 9 11
M  V30 14 1 9 13
M  V30 15 2 10 18
M  V30 16 1 11 18
M  V30 17 1 12 14
M  V30 18 1 12 17
M  V30 19 1 15 17
M  V30 20 1 16 18
M  V30 21 1 2 19
M  V30 22 1 5 20 CFG=3
M  V30 23 1 7 21 CFG=3
M  V30 24 1 7 22
M  V30 25 1 8 23
M  V30 26 1 9 24
M  V30 27 1 10 25
M  V30 28 1 11 26
M  V30 29 1 12 27 CFG=1
M  V30 30 1 12 28
M  V30 31 1 14 29 CFG=3
M  V30 32 1 17 30 CFG=1
M  V30 33 1 5 31
M  V30 END BOND
M  V30 END CTAB
M  END
>  <Ligand_Instance>  (1) 
001_B_2

>  <Dataset>  (1) 
CF

>  <PDB_ID>  (1) 
None

>  <Chain>  (1) 
B

>  <Resi>  (1) 
2

>  <Num_Resolved_Atoms>  (1) 
18

>  <Num_H_Atoms_ProtBoundConf>  (1) 
13

>  <Pocket>  (1) 
X

>  <SMILES>  (1) 
O[C@H](C1)CN[C@@H]1c1nc(-c(cc2)ccc2F)n[o]1

>  <Name>  (1) 
(3R,5S)‐5‐[3‐(4‐fluorophenyl)‐1,2,4‐oxadiazol‐5‐yl]pyrrolidin‐3‐ol

>  <Num_Heavy_Atoms>  (1) 
18

>  <Num_Not_Resolved_Atoms>  (1) 
0

>  <ATP_Site>  (1) 
True

>  <Peripheral>  (1) 
True

>  <Standardized_SMILES>  (1) 
[H]O[C@]1([H])C([H])([H])[C@@]([H])(C2=NC(C3=C([H])C([H])=C(F)C([H])=C3[H])=NO2)[N+]([H])([H])C1([H])[H]

$$$$
F005
     RDKit          3D

  0  0  0  0  0  0  0  0  0  0999 V3000
M  V30 BEGIN CTAB
M  V30 COUNTS 29 31 0 0 0
M  V30 BEGIN ATOM
M  V30 1 O -18.920000 2.195000 -32.380000 0
M  V30 2 O -14.371000 0.577000 -30.486000 0
M  V30 3 N -12.984000 0.875000 -30.078000 0
M  V30 4 N -9.514000 2.914000 -28.681000 0
M  V30 5 N -11.837000 4.259000 -29.590000 0
M  V30 6 N -17.378000 1.285000 -29.986000 0 CFG=2 CHG=1
M  V30 7 N -14.173000 2.783000 -30.255000 0
M  V30 8 C -9.556000 4.319000 -28.720000 0
M  V30 9 C -10.710000 4.907000 -29.184000 0
M  V30 10 C -10.622000 2.276000 -29.071000 0
M  V30 11 C -18.556000 2.199000 -29.959000 0 CFG=2
M  V30 12 C -16.957000 3.190000 -31.386000 0 CFG=2
M  V30 13 C -18.456000 2.992000 -31.253000 0 CFG=1
M  V30 14 C -15.035000 1.794000 -30.578000 0
M  V30 15 C -12.968000 2.226000 -29.954000 0
M  V30 16 C -11.758000 2.851000 -29.535000 0
M  V30 17 C -16.446000 1.779000 -31.050000 0 CFG=1
M  V30 18 H -18.847000 2.731900 -33.220500 0
M  V30 19 H -17.673900 0.353500 -30.197400 0
M  V30 20 H -8.776600 4.869900 -28.421800 0
M  V30 21 H -10.722500 5.906000 -29.227300 0
M  V30 22 H -10.611600 1.277600 -29.014900 0
M  V30 23 H -18.512000 2.808300 -29.167300 0
M  V30 24 H -19.407900 1.676100 -29.930300 0
M  V30 25 H -16.616700 3.868800 -30.735300 0
M  V30 26 H -16.703000 3.461500 -32.314300 0
M  V30 27 H -18.941000 3.864400 -31.191400 0
M  V30 28 H -16.521800 1.194900 -31.858100 0
M  V30 29 H -16.918000 1.295200 -29.098100 0
M  V30 END ATOM
M  V30 BEGIN BOND
M  V30 1 1 1 13
M  V30 2 1 2 3
M  V30 3 1 2 14
M  V30 4 2 3 15
M  V30 5 1 4 8
M  V30 6 2 4 10
M  V30 7 1 5 9
M  V30 8 2 5 16
M  V30 9 1 6 11
M  V30 10 1 6 17
M  V30 11 2 7 14
M  V30 12 1 7 15
M  V30 13 2 8 9
M  V30 14 1 10 16
M  V30 15 1 11 13
M  V30 16 1 12 13
M  V30 17 1 12 17
M  V30 18 1 14 17
M  V30 19 1 15 16
M  V30 20 1 1 18
M  V30 21 1 6 19 CFG=3
M  V30 22 1 8 20
M  V30 23 1 9 21
M  V30 24 1 10 22
M  V30 25 1 11 23 CFG=1
M  V30 26 1 11 24
M  V30 27 1 12 25 CFG=1
M  V30 28 1 12 26
M  V30 29 1 13 27 CFG=1
M  V30 30 1 17 28 CFG=3
M  V30 31 1 6 29
M  V30 END BOND
M  V30 END CTAB
M  END
>  <Ligand_Instance>  (2) 
005_D_3

>  <Dataset>  (2) 
CF

>  <PDB_ID>  (2) 
None

>  <Chain>  (2) 
D

>  <Resi>  (2) 
3

>  <Num_Resolved_Atoms>  (2) 
17

>  <Num_H_Atoms_ProtBoundConf>  (2) 
12

>  <Pocket>  (2) 
A

>  <SMILES>  (2) 
O[C@H](C1)CN[C@@H]1c1nc(-c2nccnc2)n[o]1

>  <Name>  (2) 
(3R,5S)‐5‐[3‐(pyrazin‐2‐yl)‐1,2,4‐oxadiazol‐5‐yl]pyrrolidin‐3‐ol

>  <Num_Heavy_Atoms>  (2) 
17

>  <Num_Not_Resolved_Atoms>  (2) 
0

>  <ATP_Site>  (2) 
True

>  <Peripheral>  (2) 
True

>  <Standardized_SMILES>  (2) 
[H]O[C@]1([H])C([H])([H])[C@@]([H])(C2=NC(C3=NC([H])=C([H])N=C3[H])=NO2)[N+]([H])([H])C1([H])[H]

$$$$
F009
     RDKit          3D

  0  0  0  0  0  0  0  0  0  0999 V3000
M  V30 BEGIN CTAB
M  V30 COUNTS 24 25 0 0 0
M  V30 BEGIN ATOM
M  V30 1 O -17.662000 1.616000 -30.615000 0
M  V30 2 O -10.400000 4.134000 -29.440000 0
M  V30 3 N -16.548000 2.703000 -30.583000 0
M  V30 4 N -15.617000 0.649000 -30.143000 0
M  V30 5 C -9.361000 3.517000 -28.627000 0 CFG=1
M  V30 6 C -17.569000 -0.911000 -30.199000 0 CFG=1
M  V30 7 C -12.679000 4.325000 -29.780000 0
M  V30 8 C -11.804000 2.153000 -29.801000 0
M  V30 9 C -13.909000 3.864000 -30.009000 0
M  V30 10 C -13.049000 1.670000 -30.026000 0
M  V30 11 C -16.944000 0.441000 -30.314000 0
M  V30 12 C -11.617000 3.505000 -29.671000 0
M  V30 13 C -15.410000 1.978000 -30.331000 0
M  V30 14 C -14.104000 2.524000 -30.145000 0
M  V30 15 H -8.568100 4.124700 -28.582100 0
M  V30 16 H -9.711000 3.356900 -27.704000 0
M  V30 17 H -9.090500 2.645800 -29.036700 0
M  V30 18 H -16.864800 -1.586200 -29.979500 0
M  V30 19 H -18.257300 -0.899400 -29.473700 0
M  V30 20 H -18.003300 -1.152400 -31.066800 0
M  V30 21 H -12.541100 5.311000 -29.686300 0
M  V30 22 H -11.026600 1.528000 -29.730200 0
M  V30 23 H -14.680300 4.496400 -30.080100 0
M  V30 24 H -13.194500 0.683800 -30.105000 0
M  V30 END ATOM
M  V30 BEGIN BOND
M  V30 1 1 1 3
M  V30 2 1 1 11
M  V30 3 1 2 5
M  V30 4 1 2 12
M  V30 5 2 3 13
M  V30 6 2 4 11
M  V30 7 1 4 13
M  V30 8 1 6 11
M  V30 9 1 7 9
M  V30 10 2 7 12
M  V30 11 2 8 10
M  V30 12 1 8 12
M  V30 13 2 9 14
M  V30 14 1 10 14
M  V30 15 1 13 14
M  V30 16 1 5 15 CFG=1
M  V30 17 1 5 16
M  V30 18 1 5 17
M  V30 19 1 6 18 CFG=1
M  V30 20 1 6 19
M  V30 21 1 6 20
M  V30 22 1 7 21
M  V30 23 1 8 22
M  V30 24 1 9 23
M  V30 25 1 10 24
M  V30 END BOND
M  V30 END CTAB
M  END
>  <Ligand_Instance>  (3) 
009_B_2

>  <Dataset>  (3) 
CF

>  <PDB_ID>  (3) 
None

>  <Chain>  (3) 
B

>  <Resi>  (3) 
2

>  <Num_Resolved_Atoms>  (3) 
14

>  <Num_H_Atoms_ProtBoundConf>  (3) 
10

>  <Pocket>  (3) 
A

>  <SMILES>  (3) 
COc(cc1)ccc1-c1n[o]c([C@H](C2)NC[C@@H]2O)n1

>  <Name>  (3) 
(3R,5S)‐5‐[3‐(4‐methoxyphenyl)‐1,2,4‐oxadiazol‐5‐yl]pyrrolidin‐3‐ol

>  <Num_Heavy_Atoms>  (3) 
19

>  <Num_Not_Resolved_Atoms>  (3) 
5

>  <ATP_Site>  (3) 
True

>  <Peripheral>  (3) 
True

>  <Standardized_SMILES>  (3) 
[H]C1=C([H])C(C2=NOC(C([H])([H])[H])=N2)=C([H])C([H])=C1OC([H])([H])[H]

$$$$
F012
     RDKit          3D

  0  0  0  0  0  0  0  0  0  0999 V3000
M  V30 BEGIN CTAB
M  V30 COUNTS 34 36 0 0 0
M  V30 BEGIN ATOM
M  V30 1 O -11.632000 6.336000 -19.106000 0
M  V30 2 N -5.581000 3.750000 -19.993000 0
M  V30 3 N -7.149000 2.031000 -20.007000 0
M  V30 4 N -13.143000 6.052000 -19.110000 0
M  V30 5 N -16.918000 2.873000 -20.660000 0
M  V30 6 N -8.735000 5.838000 -19.236000 0 CFG=2 CHG=1
M  V30 7 N -12.066000 4.268000 -20.044000 0
M  V30 8 C -16.854000 4.240000 -20.558000 0
M  V30 9 C -15.797000 2.106000 -20.411000 0
M  V30 10 C -7.323000 5.685000 -19.640000 0 CFG=2
M  V30 11 C -15.729000 4.893000 -20.230000 0
M  V30 12 C -14.601000 2.657000 -20.079000 0
M  V30 13 C -9.248000 3.418000 -19.675000 0 CFG=2
M  V30 14 C -11.095000 5.158000 -19.702000 0
M  V30 15 C -6.911000 4.271000 -19.814000 0
M  V30 16 C -7.780000 3.245000 -19.830000 0
M  V30 17 C -13.258000 4.802000 -19.665000 0
M  V30 18 C -9.632000 4.894000 -19.961000 0 CFG=1
M  V30 19 C -14.505000 4.123000 -19.946000 0
M  V30 20 H -5.439700 2.765800 -20.099900 0
M  V30 21 H -4.798400 4.372300 -20.010400 0
M  V30 22 H -6.154400 1.993900 -20.104300 0
M  V30 23 H -7.686200 1.188100 -20.038000 0
M  V30 24 H -9.026600 6.774300 -19.431800 0
M  V30 25 H -17.681700 4.772300 -20.735800 0
M  V30 26 H -15.868400 1.110800 -20.477400 0
M  V30 27 H -6.745300 6.099400 -18.936800 0
M  V30 28 H -7.187700 6.163800 -20.507400 0
M  V30 29 H -15.721000 5.891700 -20.178800 0
M  V30 30 H -13.799200 2.078900 -19.927300 0
M  V30 31 H -9.514300 3.180000 -18.740900 0
M  V30 32 H -9.723400 2.819600 -20.319900 0
M  V30 33 H -9.480800 5.046400 -20.937700 0
M  V30 34 H -8.810000 5.664000 -18.254100 0
M  V30 END ATOM
M  V30 BEGIN BOND
M  V30 1 1 1 4
M  V30 2 1 1 14
M  V30 3 1 2 15
M  V30 4 1 3 16
M  V30 5 2 4 17
M  V30 6 2 5 8
M  V30 7 1 5 9
M  V30 8 1 6 10
M  V30 9 1 6 18
M  V30 10 2 7 14
M  V30 11 1 7 17
M  V30 12 1 8 11
M  V30 13 2 9 12
M  V30 14 1 10 15
M  V30 15 2 11 19
M  V30 16 1 12 19
M  V30 17 1 13 16
M  V30 18 1 13 18
M  V30 19 1 14 18
M  V30 20 2 15 16
M  V30 21 1 17 19
M  V30 22 1 2 20
M  V30 23 1 2 21
M  V30 24 1 3 22
M  V30 25 1 3 23
M  V30 26 1 6 24 CFG=1
M  V30 27 1 8 25
M  V30 28 1 9 26
M  V30 29 1 10 27 CFG=1
M  V30 30 1 10 28
M  V30 31 1 11 29
M  V30 32 1 12 30
M  V30 33 1 13 31 CFG=1
M  V30 34 1 13 32
M  V30 35 1 18 33 CFG=3
M  V30 36 1 6 34
M  V30 END BOND
M  V30 END CTAB
M  END
>  <Ligand_Instance>  (4) 
012_B_1

>  <Dataset>  (4) 
CF

>  <PDB_ID>  (4) 
None

>  <Chain>  (4) 
B

>  <Resi>  (4) 
1

>  <Num_Resolved_Atoms>  (4) 
19

>  <Num_H_Atoms_ProtBoundConf>  (4) 
15

>  <Pocket>  (4) 
A

>  <SMILES>  (4) 
C([C@@H](c1nc(-c2ccncc2)n[o]1)NC1)c2c1[nH]cn2

>  <Name>  (4) 
4‐{5‐[(6S)‐3H,4H,5H,6H,7H‐imidazo[4,5‐c]pyridin‐6‐yl]‐1,2,4‐oxadiazol‐3‐yl}pyridine

>  <Num_Heavy_Atoms>  (4) 
20

>  <Num_Not_Resolved_Atoms>  (4) 
1

>  <ATP_Site>  (4) 
True

>  <Peripheral>  (4) 
False

>  <Standardized_SMILES>  (4) 
[H]C1=NC([H])=C([H])C(C2=NOC([C@]3([H])C([H])([H])C(N([H])[H])=C(N([H])[H])C([H])([H])[N+]3([H])[H])=N2)=C1[H]

$$$$
F024
     RDKit          3D

  0  0  0  0  0  0  0  0  0  0999 V3000
M  V30 BEGIN CTAB
M  V30 COUNTS 27 28 0 0 0
M  V30 BEGIN ATOM
M  V30 1 O -10.613000 0.795000 -20.858000 0
M  V30 2 N -16.647000 4.205000 -20.602000 0
M  V30 3 N -16.698000 2.885000 -20.951000 0
M  V30 4 C -15.020000 5.748000 -19.470000 0 CFG=1
M  V30 5 C -15.230000 0.891000 -20.974000 0 CFG=1
M  V30 6 C -11.906000 1.121000 -18.851000 0
M  V30 7 C -13.053000 1.819000 -18.615000 0
M  V30 8 C -12.117000 2.711000 -20.596000 0 CFG=2
M  V30 9 C -11.089000 1.792000 -19.925000 0 CFG=2
M  V30 10 C -15.377000 4.380000 -20.020000 0
M  V30 11 C -15.447000 2.330000 -20.616000 0
M  V30 12 C -13.177000 3.046000 -19.493000 0 CFG=1
M  V30 13 C -14.601000 3.250000 -20.021000 0
M  V30 14 H -11.393400 0.328300 -21.274100 0
M  V30 15 H -17.357500 4.896700 -20.731800 0
M  V30 16 H -14.095100 5.723700 -19.090600 0
M  V30 17 H -15.060900 6.424100 -20.205700 0
M  V30 18 H -15.668700 5.997900 -18.751200 0
M  V30 19 H -14.313200 0.611200 -20.689100 0
M  V30 20 H -15.910800 0.325400 -20.508600 0
M  V30 21 H -15.321300 0.776200 -21.963200 0
M  V30 22 H -11.643200 0.280500 -18.377200 0
M  V30 23 H -13.736900 1.550200 -17.936800 0
M  V30 24 H -12.551700 2.243400 -21.365700 0
M  V30 25 H -11.676100 3.547900 -20.920400 0
M  V30 26 H -10.332400 2.315800 -19.533700 0
M  V30 27 H -12.887700 3.855900 -18.982800 0
M  V30 END ATOM
M  V30 BEGIN BOND
M  V30 1 1 1 9
M  V30 2 1 2 3
M  V30 3 1 2 10
M  V30 4 2 3 11
M  V30 5 1 4 10
M  V30 6 1 5 11
M  V30 7 2 6 7
M  V30 8 1 6 9
M  V30 9 1 7 12
M  V30 10 1 8 9
M  V30 11 1 8 12
M  V30 12 2 10 13
M  V30 13 1 11 13
M  V30 14 1 12 13
M  V30 15 1 1 14
M  V30 16 1 2 15
M  V30 17 1 4 16 CFG=1
M  V30 18 1 4 17
M  V30 19 1 4 18
M  V30 20 1 5 19 CFG=1
M  V30 21 1 5 20
M  V30 22 1 5 21
M  V30 23 1 6 22
M  V30 24 1 7 23
M  V30 25 1 8 24 CFG=3
M  V30 26 1 8 25
M  V30 27 1 9 26 CFG=1
M  V30 28 1 12 27 CFG=1
M  V30 END BOND
M  V30 END CTAB
M  END
>  <Ligand_Instance>  (5) 
024_B_1

>  <Dataset>  (5) 
CF

>  <PDB_ID>  (5) 
None

>  <Chain>  (5) 
B

>  <Resi>  (5) 
1

>  <Num_Resolved_Atoms>  (5) 
13

>  <Num_H_Atoms_ProtBoundConf>  (5) 
14

>  <Pocket>  (5) 
A

>  <SMILES>  (5) 
Cc1c([C@H](C2)C=C[C@H]2O)c(C)n[nH]1

>  <Name>  (5) 
(1S,4R)‐4‐(3,5‐dimethyl‐1H‐pyrazol‐4‐yl)cyclopent‐2‐en‐1‐ol

>  <Num_Heavy_Atoms>  (5) 
13

>  <Num_Not_Resolved_Atoms>  (5) 
0

>  <ATP_Site>  (5) 
True

>  <Peripheral>  (5) 
False

>  <Standardized_SMILES>  (5) 
[H]O[C@]1([H])C([H])=C([H])[C@]([H])(C2=C(C([H])([H])[H])N([H])N=C2C([H])([H])[H])C1([H])[H]

$$$$
F030
     RDKit          3D

  0  0  0  0  0  0  0  0  0  0999 V3000
M  V30 BEGIN CTAB
M  V30 COUNTS 36 38 0 0 0
M  V30 BEGIN ATOM
M  V30 1 O 5.450000 -0.104000 -28.511000 0
M  V30 2 O 1.752000 0.428000 -25.318000 0
M  V30 3 O 2.343000 0.736000 -28.577000 0
M  V30 4 O 3.971000 -0.663000 -26.886000 0
M  V30 5 N -0.633000 1.029000 -28.036000 0 CFG=1 CHG=1
M  V30 6 N 4.373000 -2.143000 -28.472000 0
M  V30 7 C 3.144000 0.727000 -25.116000 0 CFG=2
M  V30 8 C 1.431000 -0.343000 -28.320000 0 CFG=2
M  V30 9 C 6.171000 -4.496000 -31.454000 0
M  V30 10 C 6.737000 -3.276000 -31.135000 0
M  V30 11 C 5.030000 -4.911000 -30.802000 0
M  V30 12 C 6.165000 -2.467000 -30.165000 0
M  V30 13 C 4.447000 -4.112000 -29.831000 0
M  V30 14 C 4.683000 -0.899000 -28.011000 0
M  V30 15 C 3.718000 0.730000 -26.522000 0 CFG=2
M  V30 16 C 2.587000 1.383000 -27.326000 0 CFG=2
M  V30 17 C 1.328000 1.146000 -26.480000 0 CFG=1
M  V30 18 C 0.424000 0.268000 -27.351000 0 CFG=1
M  V30 19 C 5.014000 -2.885000 -29.502000 0
M  V30 20 H -1.264000 1.406900 -27.358500 0
M  V30 21 H -0.220900 1.774400 -28.560000 0
M  V30 22 H 3.596000 -2.591200 -28.029900 0
M  V30 23 H 3.581600 0.025500 -24.553500 0
M  V30 24 H 3.257600 1.620900 -24.682300 0
M  V30 25 H 1.903600 -1.119200 -27.902600 0
M  V30 26 H 0.981800 -0.640200 -29.162600 0
M  V30 27 H 6.587600 -5.075000 -32.154800 0
M  V30 28 H 7.565300 -2.974500 -31.607300 0
M  V30 29 H 4.620200 -5.794000 -31.030800 0
M  V30 30 H 6.578600 -1.584300 -29.941800 0
M  V30 31 H 3.616600 -4.418400 -29.365700 0
M  V30 32 H 4.555800 1.273900 -26.569300 0
M  V30 33 H 2.755100 2.360400 -27.453900 0
M  V30 34 H 0.880800 2.006900 -26.237300 0
M  V30 35 H 0.013200 -0.452400 -26.792200 0
M  V30 36 H -1.132400 0.422800 -28.655000 0
M  V30 END ATOM
M  V30 BEGIN BOND
M  V30 1 2 1 14
M  V30 2 1 2 7
M  V30 3 1 2 17
M  V30 4 1 3 8
M  V30 5 1 3 16
M  V30 6 1 4 14
M  V30 7 1 4 15
M  V30 8 1 5 18
M  V30 9 1 6 14
M  V30 10 1 6 19
M  V30 11 1 7 15
M  V30 12 1 8 18
M  V30 13 2 9 10
M  V30 14 1 9 11
M  V30 15 1 10 12
M  V30 16 2 11 13
M  V30 17 2 12 19
M  V30 18 1 13 19
M  V30 19 1 15 16
M  V30 20 1 16 17
M  V30 21 1 17 18
M  V30 22 1 5 20 CFG=1
M  V30 23 1 5 21
M  V30 24 1 6 22
M  V30 25 1 7 23 CFG=1
M  V30 26 1 7 24
M  V30 27 1 8 25 CFG=1
M  V30 28 1 8 26
M  V30 29 1 9 27
M  V30 30 1 10 28
M  V30 31 1 11 29
M  V30 32 1 12 30
M  V30 33 1 13 31
M  V30 34 1 15 32 CFG=1
M  V30 35 1 16 33 CFG=3
M  V30 36 1 17 34 CFG=1
M  V30 37 1 18 35 CFG=1
M  V30 38 1 5 36
M  V30 END BOND
M  V30 END CTAB
M  END
>  <Ligand_Instance>  (6) 
030_B_2

>  <Dataset>  (6) 
CF

>  <PDB_ID>  (6) 
None

>  <Chain>  (6) 
B

>  <Resi>  (6) 
2

>  <Num_Resolved_Atoms>  (6) 
19

>  <Num_H_Atoms_ProtBoundConf>  (6) 
17

>  <Pocket>  (6) 
G

>  <SMILES>  (6) 
N[C@@H](CO[C@@H]12)[C@H]1OC[C@H]2OC(Nc1ccccc1)=O

>  <Name>  (6) 
(3R,3aS,6S,6aR)‐6‐amino‐hexahydrofuro[3,2‐b]furan‐3‐yl N‐phenylcarbamate

>  <Num_Heavy_Atoms>  (6) 
19

>  <Num_Not_Resolved_Atoms>  (6) 
0

>  <ATP_Site>  (6) 
False

>  <Peripheral>  (6) 
True

>  <Standardized_SMILES>  (6) 
[H]C1=C([H])C([H])=C(N([H])C(=O)O[C@]2([H])C([H])([H])O[C@@]3([H])[C@]2([H])OC([H])([H])[C@]3([H])[N+]([H])([H])[H])C([H])=C1[H]

$$$$
F030
     RDKit          3D

  0  0  0  0  0  0  0  0  0  0999 V3000
M  V30 BEGIN CTAB
M  V30 COUNTS 36 38 0 0 0
M  V30 BEGIN ATOM
M  V30 1 O -25.514000 12.739000 -30.218000 0
M  V30 2 O -24.466000 11.867000 -25.588000 0
M  V30 3 O -23.517000 11.159000 -28.607000 0
M  V30 4 O -25.160000 13.249000 -28.034000 0
M  V30 5 N -21.754000 9.583000 -26.656000 0 CFG=1 CHG=1
M  V30 6 N -24.378000 14.629000 -29.556000 0
M  V30 7 C -25.794000 12.075000 -26.076000 0 CFG=2
M  V30 8 C -22.400000 11.653000 -27.847000 0 CFG=2
M  V30 9 C -23.776000 16.789000 -33.100000 0
M  V30 10 C -23.162000 17.166000 -31.926000 0
M  V30 11 C -24.641000 15.714000 -33.108000 0
M  V30 12 C -23.399000 16.466000 -30.753000 0
M  V30 13 C -24.885000 15.002000 -31.945000 0
M  V30 14 C -25.065000 13.473000 -29.362000 0
M  V30 15 C -25.637000 11.946000 -27.582000 0 CFG=2
M  V30 16 C -24.583000 10.835000 -27.706000 0 CFG=2
M  V30 17 C -23.956000 10.744000 -26.312000 0 CFG=1
M  V30 18 C -22.445000 10.875000 -26.535000 0 CFG=1
M  V30 19 C -24.250000 15.366000 -30.761000 0
M  V30 20 H -21.800000 9.097300 -25.783100 0
M  V30 21 H -22.195000 9.034400 -27.366300 0
M  V30 22 H -23.908200 15.003600 -28.756600 0
M  V30 23 H -26.128800 12.983800 -25.827300 0
M  V30 24 H -26.419300 11.380500 -25.720200 0
M  V30 25 H -22.495400 12.634000 -27.678100 0
M  V30 26 H -21.541500 11.479800 -28.329700 0
M  V30 27 H -23.595300 17.293200 -33.944500 0
M  V30 28 H -22.541100 17.949900 -31.919700 0
M  V30 29 H -25.094500 15.447300 -33.958400 0
M  V30 30 H -22.958500 16.751800 -29.902000 0
M  V30 31 H -25.516900 14.227000 -31.956100 0
M  V30 32 H -26.497300 11.692100 -28.024200 0
M  V30 33 H -25.010500 9.967400 -27.959900 0
M  V30 34 H -24.186900 9.881600 -25.861500 0
M  V30 35 H -22.035200 11.416100 -25.800700 0
M  V30 36 H -20.797000 9.738500 -26.900900 0
M  V30 END ATOM
M  V30 BEGIN BOND
M  V30 1 2 1 14
M  V30 2 1 2 7
M  V30 3 1 2 17
M  V30 4 1 3 8
M  V30 5 1 3 16
M  V30 6 1 4 14
M  V30 7 1 4 15
M  V30 8 1 5 18
M  V30 9 1 6 14
M  V30 10 1 6 19
M  V30 11 1 7 15
M  V30 12 1 8 18
M  V30 13 2 9 10
M  V30 14 1 9 11
M  V30 15 1 10 12
M  V30 16 2 11 13
M  V30 17 2 12 19
M  V30 18 1 13 19
M  V30 19 1 15 16
M  V30 20 1 16 17
M  V30 21 1 17 18
M  V30 22 1 5 20 CFG=1
M  V30 23 1 5 21
M  V30 24 1 6 22
M  V30 25 1 7 23 CFG=3
M  V30 26 1 7 24
M  V30 27 1 8 25 CFG=1
M  V30 28 1 8 26
M  V30 29 1 9 27
M  V30 30 1 10 28
M  V30 31 1 11 29
M  V30 32 1 12 30
M  V30 33 1 13 31
M  V30 34 1 15 32 CFG=3
M  V30 35 1 16 33 CFG=3
M  V30 36 1 17 34 CFG=1
M  V30 37 1 18 35 CFG=1
M  V30 38 1 5 36
M  V30 END BOND
M  V30 END CTAB
M  END
>  <Ligand_Instance>  (7) 
030_B_3

>  <Dataset>  (7) 
CF

>  <PDB_ID>  (7) 
None

>  <Chain>  (7) 
B

>  <Resi>  (7) 
3

>  <Num_Resolved_Atoms>  (7) 
19

>  <Num_H_Atoms_ProtBoundConf>  (7) 
17

>  <Pocket>  (7) 
X

>  <SMILES>  (7) 
N[C@@H](CO[C@@H]12)[C@H]1OC[C@H]2OC(Nc1ccccc1)=O

>  <Name>  (7) 
(3R,3aS,6S,6aR)‐6‐amino‐hexahydrofuro[3,2‐b]furan‐3‐yl N‐phenylcarbamate

>  <Num_Heavy_Atoms>  (7) 
19

>  <Num_Not_Resolved_Atoms>  (7) 
0

>  <ATP_Site>  (7) 
False

>  <Peripheral>  (7) 
True

>  <Standardized_SMILES>  (7) 
[H]C1=C([H])C([H])=C(N([H])C(=O)O[C@]2([H])C([H])([H])O[C@@]3([H])[C@]2([H])OC([H])([H])[C@]3([H])[N+]([H])([H])[H])C([H])=C1[H]

$$$$
F032
     RDKit          3D

  0  0  0  0  0  0  0  0  0  0999 V3000
M  V30 BEGIN CTAB
M  V30 COUNTS 36 38 0 0 0
M  V30 BEGIN ATOM
M  V30 1 F -16.636000 2.215000 -20.501000 0
M  V30 2 O -12.311000 1.161000 -18.739000 0
M  V30 3 O -7.472000 0.819000 -17.103000 0
M  V30 4 O -8.314000 1.601000 -20.104000 0
M  V30 5 O -10.392000 2.382000 -18.496000 0
M  V30 6 N -5.876000 -0.421000 -20.282000 0 CFG=1 CHG=1
M  V30 7 N -12.268000 3.485000 -18.939000 0
M  V30 8 C -8.642000 1.668000 -16.978000 0 CFG=2
M  V30 9 C -6.927000 1.860000 -19.794000 0 CFG=2
M  V30 10 C -15.122000 5.429000 -20.037000 0
M  V30 11 C -16.035000 4.471000 -20.350000 0
M  V30 12 C -13.891000 5.083000 -19.577000 0
M  V30 13 C -14.494000 2.808000 -19.697000 0
M  V30 14 C -11.723000 2.238000 -18.729000 0
M  V30 15 C -15.711000 3.165000 -20.172000 0
M  V30 16 C -9.662000 1.223000 -18.030000 0 CFG=2
M  V30 17 C -8.748000 0.654000 -19.102000 0 CFG=2
M  V30 18 C -7.516000 0.141000 -18.367000 0 CFG=1
M  V30 19 C -6.346000 0.561000 -19.261000 0 CFG=1
M  V30 20 C -13.558000 3.766000 -19.399000 0
M  V30 21 H -5.515600 -1.232800 -19.822600 0
M  V30 22 H -6.641500 -0.682800 -20.869800 0
M  V30 23 H -11.680800 4.270200 -18.742300 0
M  V30 24 H -8.387400 2.622300 -17.134200 0
M  V30 25 H -9.034300 1.573100 -16.063100 0
M  V30 26 H -6.857300 2.578000 -19.101400 0
M  V30 27 H -6.437200 2.143500 -20.618400 0
M  V30 28 H -15.358100 6.394600 -20.146100 0
M  V30 29 H -16.933800 4.725500 -20.706800 0
M  V30 30 H -13.222200 5.796000 -19.366500 0
M  V30 31 H -14.276400 1.841200 -19.562800 0
M  V30 32 H -10.278900 0.524300 -17.667700 0
M  V30 33 H -9.206000 -0.113100 -19.551200 0
M  V30 34 H -7.547800 -0.851500 -18.248600 0
M  V30 35 H -5.571500 0.787900 -18.670500 0
M  V30 36 H -5.156000 -0.005300 -20.837700 0
M  V30 END ATOM
M  V30 BEGIN BOND
M  V30 1 1 1 15
M  V30 2 2 2 14
M  V30 3 1 3 8
M  V30 4 1 3 18
M  V30 5 1 4 9
M  V30 6 1 4 17
M  V30 7 1 5 14
M  V30 8 1 5 16
M  V30 9 1 6 19
M  V30 10 1 7 14
M  V30 11 1 7 20
M  V30 12 1 8 16
M  V30 13 1 9 19
M  V30 14 2 10 11
M  V30 15 1 10 12
M  V30 16 1 11 15
M  V30 17 2 12 20
M  V30 18 2 13 15
M  V30 19 1 13 20
M  V30 20 1 16 17
M  V30 21 1 17 18
M  V30 22 1 18 19
M  V30 23 1 6 21 CFG=1
M  V30 24 1 6 22
M  V30 25 1 7 23
M  V30 26 1 8 24 CFG=3
M  V30 27 1 8 25
M  V30 28 1 9 26 CFG=1
M  V30 29 1 9 27
M  V30 30 1 10 28
M  V30 31 1 11 29
M  V30 32 1 12 30
M  V30 33 1 13 31
M  V30 34 1 16 32 CFG=1
M  V30 35 1 17 33 CFG=3
M  V30 36 1 18 34 CFG=1
M  V30 37 1 19 35 CFG=1
M  V30 38 1 6 36
M  V30 END BOND
M  V30 END CTAB
M  END
>  <Ligand_Instance>  (8) 
032_B_1

>  <Dataset>  (8) 
CF

>  <PDB_ID>  (8) 
None

>  <Chain>  (8) 
B

>  <Resi>  (8) 
1

>  <Num_Resolved_Atoms>  (8) 
20

>  <Num_H_Atoms_ProtBoundConf>  (8) 
16

>  <Pocket>  (8) 
A

>  <SMILES>  (8) 
N[C@@H](CO[C@@H]12)[C@H]1OC[C@H]2OC(Nc1cccc(F)c1)=O

>  <Name>  (8) 
(3R,3aS,6S,6aR)‐6‐amino‐hexahydrofuro[3,2‐b]furan‐3‐yl N‐(3‐fluorophenyl)carbamate

>  <Num_Heavy_Atoms>  (8) 
20

>  <Num_Not_Resolved_Atoms>  (8) 
0

>  <ATP_Site>  (8) 
True

>  <Peripheral>  (8) 
True

>  <Standardized_SMILES>  (8) 
[H]C1=C([H])C(F)=C([H])C(N([H])C(=O)O[C@]2([H])C([H])([H])O[C@@]3([H])[C@]2([H])OC([H])([H])[C@]3([H])[N+]([H])([H])[H])=C1[H]

$$$$
F032
     RDKit          3D

  0  0  0  0  0  0  0  0  0  0999 V3000
M  V30 BEGIN CTAB
M  V30 COUNTS 36 38 0 0 0
M  V30 BEGIN ATOM
M  V30 1 F -22.372000 17.967000 -32.583000 0
M  V30 2 O -25.470000 12.626000 -30.420000 0
M  V30 3 O -24.388000 11.883000 -25.753000 0
M  V30 4 O -23.452000 11.151000 -28.828000 0
M  V30 5 O -25.226000 13.244000 -28.251000 0
M  V30 6 N -21.678000 9.606000 -26.955000 0 CFG=1 CHG=1
M  V30 7 N -24.336000 14.577000 -29.806000 0
M  V30 8 C -25.734000 12.019000 -26.239000 0 CFG=2
M  V30 9 C -22.396000 11.750000 -28.041000 0 CFG=2
M  V30 10 C -25.051000 15.676000 -33.148000 0
M  V30 11 C -24.143000 16.668000 -33.322000 0
M  V30 12 C -25.082000 15.031000 -31.975000 0
M  V30 13 C -23.313000 16.329000 -31.173000 0
M  V30 14 C -25.051000 13.421000 -29.593000 0
M  V30 15 C -23.263000 16.975000 -32.377000 0
M  V30 16 C -25.599000 11.928000 -27.762000 0 CFG=2
M  V30 17 C -24.502000 10.858000 -27.889000 0 CFG=2
M  V30 18 C -23.869000 10.772000 -26.503000 0 CFG=1
M  V30 19 C -22.364000 10.887000 -26.777000 0 CFG=1
M  V30 20 C -24.210000 15.333000 -30.967000 0
M  V30 21 H -21.694600 9.096600 -26.094600 0
M  V30 22 H -22.141000 9.075800 -27.665300 0
M  V30 23 H -23.835200 14.923400 -29.012700 0
M  V30 24 H -26.120100 12.901300 -25.969900 0
M  V30 25 H -26.312500 11.281700 -25.890200 0
M  V30 26 H -22.610200 12.701400 -27.819600 0
M  V30 27 H -21.521700 11.709000 -28.524700 0
M  V30 28 H -25.685100 15.430900 -33.881400 0
M  V30 29 H -24.136300 17.179500 -34.181200 0
M  V30 30 H -25.760300 14.310100 -31.833000 0
M  V30 31 H -22.685000 16.592300 -30.440700 0
M  V30 32 H -26.452900 11.618200 -28.180300 0
M  V30 33 H -24.919300 9.979000 -28.119600 0
M  V30 34 H -24.089300 9.903300 -26.059400 0
M  V30 35 H -21.928600 11.397900 -26.035800 0
M  V30 36 H -20.729800 9.770600 -27.226700 0
M  V30 END ATOM
M  V30 BEGIN BOND
M  V30 1 1 1 15
M  V30 2 2 2 14
M  V30 3 1 3 8
M  V30 4 1 3 18
M  V30 5 1 4 9
M  V30 6 1 4 17
M  V30 7 1 5 14
M  V30 8 1 5 16
M  V30 9 1 6 19
M  V30 10 1 7 14
M  V30 11 1 7 20
M  V30 12 1 8 16
M  V30 13 1 9 19
M  V30 14 2 10 11
M  V30 15 1 10 12
M  V30 16 1 11 15
M  V30 17 2 12 20
M  V30 18 2 13 15
M  V30 19 1 13 20
M  V30 20 1 16 17
M  V30 21 1 17 18
M  V30 22 1 18 19
M  V30 23 1 6 21 CFG=1
M  V30 24 1 6 22
M  V30 25 1 7 23
M  V30 26 1 8 24 CFG=3
M  V30 27 1 8 25
M  V30 28 1 9 26 CFG=1
M  V30 29 1 9 27
M  V30 30 1 10 28
M  V30 31 1 11 29
M  V30 32 1 12 30
M  V30 33 1 13 31
M  V30 34 1 16 32 CFG=3
M  V30 35 1 17 33 CFG=3
M  V30 36 1 18 34 CFG=1
M  V30 37 1 19 35 CFG=1
M  V30 38 1 6 36
M  V30 END BOND
M  V30 END CTAB
M  END
>  <Ligand_Instance>  (9) 
032_B_2

>  <Dataset>  (9) 
CF

>  <PDB_ID>  (9) 
None

>  <Chain>  (9) 
B

>  <Resi>  (9) 
2

>  <Num_Resolved_Atoms>  (9) 
20

>  <Num_H_Atoms_ProtBoundConf>  (9) 
16

>  <Pocket>  (9) 
X

>  <SMILES>  (9) 
N[C@@H](CO[C@@H]12)[C@H]1OC[C@H]2OC(Nc1cccc(F)c1)=O

>  <Name>  (9) 
(3R,3aS,6S,6aR)‐6‐amino‐hexahydrofuro[3,2‐b]furan‐3‐yl N‐(3‐fluorophenyl)carbamate

>  <Num_Heavy_Atoms>  (9) 
20

>  <Num_Not_Resolved_Atoms>  (9) 
0

>  <ATP_Site>  (9) 
True

>  <Peripheral>  (9) 
True

>  <Standardized_SMILES>  (9) 
[H]C1=C([H])C(F)=C([H])C(N([H])C(=O)O[C@]2([H])C([H])([H])O[C@@]3([H])[C@]2([H])OC([H])([H])[C@]3([H])[N+]([H])([H])[H])=C1[H]

$$$$
F055
     RDKit          3D

  0  0  0  0  0  0  0  0  0  0999 V3000
M  V30 BEGIN CTAB
M  V30 COUNTS 42 44 0 0 0
M  V30 BEGIN ATOM
M  V30 1 O -16.584000 2.486000 -20.609000 0
M  V30 2 O -10.086000 3.894000 -21.044000 0
M  V30 3 O -9.145000 2.578000 -16.799000 0
M  V30 4 O -9.334000 1.024000 -18.462000 0
M  V30 5 N -7.619000 2.335000 -21.121000 0 CFG=1 CHG=1
M  V30 6 N -14.753000 3.427000 -19.633000 0
M  V30 7 N -12.022000 3.201000 -18.824000 0 CFG=1 CHG=1
M  V30 8 C -16.468000 4.901000 -20.641000 0 CFG=1
M  V30 9 C -7.849000 2.440000 -17.385000 0 CFG=2
M  V30 10 C -14.006000 4.619000 -19.203000 0 CFG=2
M  V30 11 C -14.208000 2.101000 -19.277000 0 CFG=2
M  V30 12 C -12.479000 4.498000 -19.359000 0 CFG=2
M  V30 13 C -12.679000 2.049000 -19.495000 0 CFG=2
M  V30 14 C -10.073000 1.988000 -17.723000 0 CFG=2
M  V30 15 C -15.963000 3.514000 -20.294000 0
M  V30 16 C -9.835000 2.852000 -20.081000 0 CFG=1
M  V30 17 C -8.083000 1.730000 -18.704000 0 CFG=2
M  V30 18 C -8.305000 2.735000 -19.854000 0 CFG=1
M  V30 19 C -10.544000 3.081000 -18.709000 0 CFG=1
M  V30 20 H -10.559600 3.508800 -21.836100 0
M  V30 21 H -6.634800 2.263800 -20.959000 0
M  V30 22 H -7.971500 1.450300 -21.425900 0
M  V30 23 H -15.824200 5.585400 -20.298800 0
M  V30 24 H -16.549700 4.987200 -21.633900 0
M  V30 25 H -17.363100 5.045100 -20.219100 0
M  V30 26 H -7.253300 1.895600 -16.794500 0
M  V30 27 H -7.436100 3.337700 -17.538400 0
M  V30 28 H -14.210300 4.786000 -18.238400 0
M  V30 29 H -14.316200 5.397200 -19.749000 0
M  V30 30 H -14.642900 1.405300 -19.848700 0
M  V30 31 H -14.407000 1.914000 -18.315000 0
M  V30 32 H -12.238400 4.560700 -20.327600 0
M  V30 33 H -12.034400 5.239400 -18.856400 0
M  V30 34 H -12.320300 1.196900 -19.113700 0
M  V30 35 H -12.484300 2.083500 -20.475300 0
M  V30 36 H -10.845800 1.568700 -17.246500 0
M  V30 37 H -10.162200 1.987400 -20.462400 0
M  V30 38 H -7.339800 1.094400 -18.913200 0
M  V30 39 H -7.955300 3.627700 -19.569800 0
M  V30 40 H -10.210100 3.954000 -18.353500 0
M  V30 41 H -7.791900 3.023400 -21.825400 0
M  V30 42 H -12.357400 3.177200 -17.882200 0
M  V30 END ATOM
M  V30 BEGIN BOND
M  V30 1 2 1 15
M  V30 2 1 2 16
M  V30 3 1 3 9
M  V30 4 1 3 14
M  V30 5 1 4 14
M  V30 6 1 4 17
M  V30 7 1 5 18
M  V30 8 1 6 10
M  V30 9 1 6 11
M  V30 10 1 6 15
M  V30 11 1 7 12
M  V30 12 1 7 13
M  V30 13 1 7 19
M  V30 14 1 8 15
M  V30 15 1 9 17
M  V30 16 1 10 12
M  V30 17 1 11 13
M  V30 18 1 14 19
M  V30 19 1 16 18
M  V30 20 1 16 19
M  V30 21 1 17 18
M  V30 22 1 2 20
M  V30 23 1 5 21 CFG=1
M  V30 24 1 5 22
M  V30 25 1 8 23 CFG=1
M  V30 26 1 8 24
M  V30 27 1 8 25
M  V30 28 1 9 26 CFG=1
M  V30 29 1 9 27
M  V30 30 1 10 28 CFG=1
M  V30 31 1 10 29
M  V30 32 1 11 30 CFG=3
M  V30 33 1 11 31
M  V30 34 1 12 32 CFG=3
M  V30 35 1 12 33
M  V30 36 1 13 34 CFG=1
M  V30 37 1 13 35
M  V30 38 1 14 36 CFG=1
M  V30 39 1 16 37 CFG=3
M  V30 40 1 17 38 CFG=3
M  V30 41 1 18 39 CFG=1
M  V30 42 1 19 40 CFG=1
M  V30 43 1 5 41
M  V30 44 1 7 42 CFG=1
M  V30 END BOND
M  V30 END CTAB
M  END
>  <Ligand_Instance>  (10) 
055_B_1

>  <Dataset>  (10) 
CF

>  <PDB_ID>  (10) 
None

>  <Chain>  (10) 
B

>  <Resi>  (10) 
1

>  <Num_Resolved_Atoms>  (10) 
19

>  <Num_H_Atoms_ProtBoundConf>  (10) 
23

>  <Pocket>  (10) 
A

>  <SMILES>  (10) 
CC(N(CC1)CCN1[C@@H]([C@H](OC1)O[C@H]1[C@H]1N)[C@H]1O)=O

>  <Name>  (10) 
1‐{4‐[(1S,2S,3S,4R,5R)‐2‐amino‐3‐hydroxy‐6,8‐dioxabicyclo[3.2.1]octan‐4‐yl]piperazin‐1‐yl}ethan‐1‐one

>  <Num_Heavy_Atoms>  (10) 
19

>  <Num_Not_Resolved_Atoms>  (10) 
0

>  <ATP_Site>  (10) 
True

>  <Peripheral>  (10) 
True

>  <Standardized_SMILES>  (10) 
[H]O[C@@]1([H])[C@]([H])([N+]([H])([H])[H])[C@]2([H])O[C@@]([H])(OC2([H])[H])[C@]1([H])[N+]1([H])C([H])([H])C([H])([H])N(C(=O)C([H])([H])[H])C([H])([H])C1([H])[H]

$$$$
F055
     RDKit          3D

  0  0  0  0  0  0  0  0  0  0999 V3000
M  V30 BEGIN CTAB
M  V30 COUNTS 42 44 0 0 0
M  V30 BEGIN ATOM
M  V30 1 O -0.295000 -9.697000 -3.788000 0
M  V30 2 O -8.231000 -10.506000 -4.416000 0
M  V30 3 O -8.524000 -11.485000 -1.739000 0
M  V30 4 O -7.262000 -9.774000 -0.792000 0
M  V30 5 N -6.875000 -7.625000 -2.569000 0 CFG=1 CHG=1
M  V30 6 N -2.223000 -9.948000 -2.548000 0
M  V30 7 N -5.047000 -10.385000 -2.602000 0 CFG=1 CHG=1
M  V30 8 C -0.058000 -10.342000 -1.492000 0 CFG=1
M  V30 9 C -9.354000 -10.341000 -1.561000 0 CFG=2
M  V30 10 C -2.909000 -10.227000 -1.269000 0 CFG=2
M  V30 11 C -3.053000 -9.591000 -3.693000 0 CFG=2
M  V30 12 C -4.323000 -10.848000 -1.396000 0 CFG=2
M  V30 13 C -4.227000 -10.571000 -3.813000 0 CFG=2
M  V30 14 C -7.191000 -11.061000 -1.420000 0 CFG=2
M  V30 15 C -0.849000 -9.968000 -2.718000 0
M  V30 16 C -7.214000 -9.853000 -3.634000 0 CFG=1
M  V30 17 C -8.387000 -9.180000 -1.452000 0 CFG=2
M  V30 18 C -7.874000 -8.692000 -2.820000 0 CFG=1
M  V30 19 C -6.435000 -10.881000 -2.753000 0 CFG=1
M  V30 20 H -8.632900 -11.251500 -3.884400 0
M  V30 21 H -7.338600 -6.740700 -2.513200 0
M  V30 22 H -6.401200 -7.807900 -1.707600 0
M  V30 23 H -0.684300 -10.523600 -0.733800 0
M  V30 24 H 0.482700 -11.161600 -1.681400 0
M  V30 25 H 0.552700 -9.589100 -1.246800 0
M  V30 26 H -9.898500 -10.426400 -0.726600 0
M  V30 27 H -9.962600 -10.221000 -2.345400 0
M  V30 28 H -2.994300 -9.364600 -0.769900 0
M  V30 29 H -2.339600 -10.860400 -0.745100 0
M  V30 30 H -2.502200 -9.629900 -4.526700 0
M  V30 31 H -3.406500 -8.663700 -3.569900 0
M  V30 32 H -4.232200 -11.842900 -1.440200 0
M  V30 33 H -4.855800 -10.597400 -0.587700 0
M  V30 34 H -4.765700 -10.367500 -4.630500 0
M  V30 35 H -3.889600 -11.511100 -3.861600 0
M  V30 36 H -6.731600 -11.725700 -0.830900 0
M  V30 37 H -6.560200 -9.442900 -4.269900 0
M  V30 38 H -8.773200 -8.429500 -0.915700 0
M  V30 39 H -8.637400 -8.313600 -3.343500 0
M  V30 40 H -6.411700 -11.759700 -3.229900 0
M  V30 41 H -6.211500 -7.606900 -3.317000 0
M  V30 42 H -5.132700 -9.394700 -2.492600 0
M  V30 END ATOM
M  V30 BEGIN BOND
M  V30 1 2 1 15
M  V30 2 1 2 16
M  V30 3 1 3 9
M  V30 4 1 3 14
M  V30 5 1 4 14
M  V30 6 1 4 17
M  V30 7 1 5 18
M  V30 8 1 6 10
M  V30 9 1 6 11
M  V30 10 1 6 15
M  V30 11 1 7 12
M  V30 12 1 7 13
M  V30 13 1 7 19
M  V30 14 1 8 15
M  V30 15 1 9 17
M  V30 16 1 10 12
M  V30 17 1 11 13
M  V30 18 1 14 19
M  V30 19 1 16 18
M  V30 20 1 16 19
M  V30 21 1 17 18
M  V30 22 1 2 20
M  V30 23 1 5 21 CFG=1
M  V30 24 1 5 22
M  V30 25 1 8 23 CFG=1
M  V30 26 1 8 24
M  V30 27 1 8 25
M  V30 28 1 9 26 CFG=1
M  V30 29 1 9 27
M  V30 30 1 10 28 CFG=1
M  V30 31 1 10 29
M  V30 32 1 11 30 CFG=3
M  V30 33 1 11 31
M  V30 34 1 12 32 CFG=3
M  V30 35 1 12 33
M  V30 36 1 13 34 CFG=3
M  V30 37 1 13 35
M  V30 38 1 14 36 CFG=1
M  V30 39 1 16 37 CFG=3
M  V30 40 1 17 38 CFG=1
M  V30 41 1 18 39 CFG=3
M  V30 42 1 19 40 CFG=3
M  V30 43 1 5 41
M  V30 44 1 7 42 CFG=1
M  V30 END BOND
M  V30 END CTAB
M  END
>  <Ligand_Instance>  (11) 
055_B_2

>  <Dataset>  (11) 
CF

>  <PDB_ID>  (11) 
None

>  <Chain>  (11) 
B

>  <Resi>  (11) 
2

>  <Num_Resolved_Atoms>  (11) 
19

>  <Num_H_Atoms_ProtBoundConf>  (11) 
23

>  <Pocket>  (11) 
X

>  <SMILES>  (11) 
CC(N(CC1)CCN1[C@@H]([C@H](OC1)O[C@H]1[C@H]1N)[C@H]1O)=O

>  <Name>  (11) 
1‐{4‐[(1S,2S,3S,4R,5R)‐2‐amino‐3‐hydroxy‐6,8‐dioxabicyclo[3.2.1]octan‐4‐yl]piperazin‐1‐yl}ethan‐1‐one

>  <Num_Heavy_Atoms>  (11) 
19

>  <Num_Not_Resolved_Atoms>  (11) 
0

>  <ATP_Site>  (11) 
True

>  <Peripheral>  (11) 
True

>  <Standardized_SMILES>  (11) 
[H]O[C@@]1([H])[C@]([H])([N+]([H])([H])[H])[C@]2([H])O[C@@]([H])(OC2([H])[H])[C@]1([H])[N+]1([H])C([H])([H])C([H])([H])N(C(=O)C([H])([H])[H])C([H])([H])C1([H])[H]

$$$$
F058
     RDKit          3D

  0  0  0  0  0  0  0  0  0  0999 V3000
M  V30 BEGIN CTAB
M  V30 COUNTS 36 38 0 0 0
M  V30 BEGIN ATOM
M  V30 1 O 8.257000 25.422000 -45.033000 0
M  V30 2 O 2.212000 25.460000 -46.675000 0
M  V30 3 O 8.621000 24.558000 -47.724000 0
M  V30 4 O 7.269000 26.141000 -48.685000 0
M  V30 5 N 6.727000 28.299000 -47.002000 0 CFG=1 CHG=1
M  V30 6 N 5.101000 25.476000 -46.818000 0 CFG=1 CHG=1
M  V30 7 C 2.827000 24.986000 -47.894000 0 CFG=2
M  V30 8 C 3.035000 26.002000 -45.635000 0 CFG=2
M  V30 9 C 9.375000 25.751000 -47.886000 0 CFG=2
M  V30 10 C 4.361000 24.872000 -47.947000 0 CFG=2
M  V30 11 C 4.416000 25.348000 -45.528000 0 CFG=2
M  V30 12 C 7.263000 24.864000 -48.049000 0 CFG=2
M  V30 13 C 7.228000 26.078000 -45.829000 0 CFG=1
M  V30 14 C 8.327000 26.832000 -47.992000 0 CFG=2
M  V30 15 C 7.776000 27.296000 -46.645000 0 CFG=1
M  V30 16 C 6.499000 25.025000 -46.713000 0 CFG=1
M  V30 17 H 7.854000 24.654600 -44.534400 0
M  V30 18 H 7.140400 29.207800 -47.059000 0
M  V30 19 H 6.324300 28.060000 -47.885600 0
M  V30 20 H 2.552000 25.610100 -48.625300 0
M  V30 21 H 2.456900 24.075100 -48.076400 0
M  V30 22 H 2.560900 25.879800 -44.763100 0
M  V30 23 H 3.162200 26.978100 -45.811300 0
M  V30 24 H 9.930000 25.710900 -48.716900 0
M  V30 25 H 9.968200 25.906900 -47.096200 0
M  V30 26 H 4.593600 23.899900 -47.978800 0
M  V30 27 H 4.670900 25.316600 -48.787400 0
M  V30 28 H 4.950200 25.805300 -44.817000 0
M  V30 29 H 4.312700 24.380600 -45.296900 0
M  V30 30 H 6.852300 24.161200 -48.629900 0
M  V30 31 H 6.550400 26.438700 -45.188000 0
M  V30 32 H 8.662400 27.606100 -48.528900 0
M  V30 33 H 8.502600 27.745100 -46.125100 0
M  V30 34 H 6.512300 24.147300 -46.234000 0
M  V30 35 H 6.014500 28.300300 -46.300300 0
M  V30 36 H 5.142700 26.456400 -47.010400 0
M  V30 END ATOM
M  V30 BEGIN BOND
M  V30 1 1 1 13
M  V30 2 1 2 7
M  V30 3 1 2 8
M  V30 4 1 3 9
M  V30 5 1 3 12
M  V30 6 1 4 12
M  V30 7 1 4 14
M  V30 8 1 5 15
M  V30 9 1 6 10
M  V30 10 1 6 11
M  V30 11 1 6 16
M  V30 12 1 7 10
M  V30 13 1 8 11
M  V30 14 1 9 14
M  V30 15 1 12 16
M  V30 16 1 13 15
M  V30 17 1 13 16
M  V30 18 1 14 15
M  V30 19 1 1 17
M  V30 20 1 5 18 CFG=3
M  V30 21 1 5 19
M  V30 22 1 7 20 CFG=3
M  V30 23 1 7 21
M  V30 24 1 8 22 CFG=1
M  V30 25 1 8 23
M  V30 26 1 9 24 CFG=3
M  V30 27 1 9 25
M  V30 28 1 10 26 CFG=3
M  V30 29 1 10 27
M  V30 30 1 11 28 CFG=1
M  V30 31 1 11 29
M  V30 32 1 12 30 CFG=3
M  V30 33 1 13 31 CFG=1
M  V30 34 1 14 32 CFG=3
M  V30 35 1 15 33 CFG=1
M  V30 36 1 16 34 CFG=1
M  V30 37 1 5 35
M  V30 38 1 6 36 CFG=3
M  V30 END BOND
M  V30 END CTAB
M  END
>  <Ligand_Instance>  (12) 
058_A_603

>  <Dataset>  (12) 
CF

>  <PDB_ID>  (12) 
None

>  <Chain>  (12) 
A

>  <Resi>  (12) 
603

>  <Num_Resolved_Atoms>  (12) 
16

>  <Num_H_Atoms_ProtBoundConf>  (12) 
20

>  <Pocket>  (12) 
X

>  <SMILES>  (12) 
N[C@H]([C@@H]1O[C@H]([C@@H]2N3CCOCC3)OC1)[C@@H]2O

>  <Name>  (12) 
(1S,2S,3S,4R,5R)‐2‐amino‐4‐(morpholin‐4‐yl)‐6,8‐dioxabicyclo[3.2.1]octan‐3‐ol

>  <Num_Heavy_Atoms>  (12) 
16

>  <Num_Not_Resolved_Atoms>  (12) 
0

>  <ATP_Site>  (12) 
False

>  <Peripheral>  (12) 
True

>  <Standardized_SMILES>  (12) 
[H]O[C@@]1([H])[C@]([H])([N+]([H])([H])[H])[C@]2([H])O[C@@]([H])(OC2([H])[H])[C@]1([H])[N+]1([H])C([H])([H])C([H])([H])OC([H])([H])C1([H])[H]

$$$$
F070
     RDKit          3D

  0  0  0  0  0  0  0  0  0  0999 V3000
M  V30 BEGIN CTAB
M  V30 COUNTS 34 36 0 0 0
M  V30 BEGIN ATOM
M  V30 1 O 11.381000 22.841000 -13.297000 0
M  V30 2 O 5.079000 22.753000 -14.350000 0
M  V30 3 N 4.381000 21.569000 -16.170000 0
M  V30 4 N 5.669000 21.471000 -16.140000 0
M  V30 5 N 0.949000 23.558000 -16.240000 0 CFG=2 CHG=1
M  V30 6 C 11.735000 22.408000 -11.990000 0 CFG=1
M  V30 7 C 2.134000 24.439000 -16.196000 0 CFG=2
M  V30 8 C 1.414000 22.318000 -15.560000 0 CFG=2
M  V30 9 C 2.576000 24.284000 -14.762000 0 CFG=2
M  V30 10 C 9.794000 22.296000 -14.935000 0
M  V30 11 C 8.987000 22.925000 -12.835000 0
M  V30 12 C 8.532000 22.126000 -15.381000 0
M  V30 13 C 7.715000 22.751000 -13.272000 0
M  V30 14 C 4.001000 22.339000 -15.098000 0
M  V30 15 C 6.104000 22.171000 -15.023000 0
M  V30 16 C 10.045000 22.702000 -13.660000 0
M  V30 17 C 2.619000 22.754000 -14.709000 0 CFG=2
M  V30 18 C 7.473000 22.346000 -14.564000 0
M  V30 19 H 0.679100 23.368500 -17.184100 0
M  V30 20 H 12.713100 22.556000 -11.843300 0
M  V30 21 H 11.214000 22.928800 -11.313800 0
M  V30 22 H 11.527000 21.434600 -11.893600 0
M  V30 23 H 1.891500 25.386900 -16.402400 0
M  V30 24 H 2.841900 24.130100 -16.831200 0
M  V30 25 H 1.689600 21.631200 -16.232600 0
M  V30 26 H 0.691000 21.944200 -14.979000 0
M  V30 27 H 1.912300 24.665800 -14.118800 0
M  V30 28 H 3.473500 24.693100 -14.597000 0
M  V30 29 H 10.560100 22.120300 -15.553200 0
M  V30 30 H 9.149200 23.221200 -11.893700 0
M  V30 31 H 8.376200 21.834500 -16.324800 0
M  V30 32 H 6.948800 22.918100 -12.651500 0
M  V30 33 H 2.458000 22.466900 -13.764700 0
M  V30 34 H 0.180100 23.968000 -15.749400 0
M  V30 END ATOM
M  V30 BEGIN BOND
M  V30 1 1 1 6
M  V30 2 1 1 16
M  V30 3 1 2 14
M  V30 4 1 2 15
M  V30 5 1 3 4
M  V30 6 2 3 14
M  V30 7 2 4 15
M  V30 8 1 5 7
M  V30 9 1 5 8
M  V30 10 1 7 9
M  V30 11 1 8 17
M  V30 12 1 9 17
M  V30 13 1 10 12
M  V30 14 2 10 16
M  V30 15 2 11 13
M  V30 16 1 11 16
M  V30 17 2 12 18
M  V30 18 1 13 18
M  V30 19 1 14 17
M  V30 20 1 15 18
M  V30 21 1 5 19 CFG=3
M  V30 22 1 6 20 CFG=1
M  V30 23 1 6 21
M  V30 24 1 6 22
M  V30 25 1 7 23 CFG=3
M  V30 26 1 7 24
M  V30 27 1 8 25 CFG=3
M  V30 28 1 8 26
M  V30 29 1 9 27 CFG=1
M  V30 30 1 9 28
M  V30 31 1 10 29
M  V30 32 1 11 30
M  V30 33 1 12 31
M  V30 34 1 13 32
M  V30 35 1 17 33 CFG=1
M  V30 36 1 5 34
M  V30 END BOND
M  V30 END CTAB
M  END
>  <Ligand_Instance>  (13) 
070_A_1602

>  <Dataset>  (13) 
CF

>  <PDB_ID>  (13) 
None

>  <Chain>  (13) 
A

>  <Resi>  (13) 
1602

>  <Num_Resolved_Atoms>  (13) 
18

>  <Num_H_Atoms_ProtBoundConf>  (13) 
16

>  <Pocket>  (13) 
X

>  <SMILES>  (13) 
COc(cc1)ccc1-c1nnc([C@@H]2CNCC2)[o]1

>  <Name>  (13) 
2‐(4‐methoxyphenyl)‐5‐[(3S)‐pyrrolidin‐3‐yl]‐1,3,4‐oxadiazole

>  <Num_Heavy_Atoms>  (13) 
18

>  <Num_Not_Resolved_Atoms>  (13) 
0

>  <ATP_Site>  (13) 
True

>  <Peripheral>  (13) 
True

>  <Standardized_SMILES>  (13) 
[H]C1=C([H])C(C2=NN=C([C@@]3([H])C([H])([H])C([H])([H])[N+]([H])([H])C3([H])[H])O2)=C([H])C([H])=C1OC([H])([H])[H]

$$$$
F070
     RDKit          3D

  0  0  0  0  0  0  0  0  0  0999 V3000
M  V30 BEGIN CTAB
M  V30 COUNTS 34 36 0 0 0
M  V30 BEGIN ATOM
M  V30 1 O -17.104000 3.686000 -20.824000 0
M  V30 2 O -10.841000 3.392000 -19.070000 0
M  V30 3 N -10.125000 1.327000 -18.497000 0
M  V30 4 N -11.374000 1.250000 -18.769000 0
M  V30 5 N -6.721000 1.914000 -19.793000 0 CFG=2 CHG=1
M  V30 6 C -17.243000 5.011000 -21.317000 0 CFG=1
M  V30 7 C -6.731000 1.222000 -18.499000 0 CFG=2
M  V30 8 C -7.491000 3.169000 -19.687000 0 CFG=2
M  V30 9 C -7.486000 2.163000 -17.555000 0 CFG=2
M  V30 10 C -14.890000 4.339000 -20.053000 0
M  V30 11 C -15.350000 2.076000 -20.139000 0
M  V30 12 C -13.598000 4.061000 -19.678000 0
M  V30 13 C -14.102000 1.804000 -19.671000 0
M  V30 14 C -9.759000 2.626000 -18.652000 0
M  V30 15 C -11.845000 2.489000 -19.076000 0
M  V30 16 C -15.796000 3.364000 -20.363000 0
M  V30 17 C -8.341000 3.093000 -18.425000 0 CFG=2
M  V30 18 C -13.204000 2.789000 -19.473000 0
M  V30 19 H -7.135400 1.326600 -20.488100 0
M  V30 20 H -18.184900 5.157000 -21.619400 0
M  V30 21 H -17.021400 5.661800 -20.590800 0
M  V30 22 H -16.620600 5.146900 -22.087800 0
M  V30 23 H -5.797600 1.071300 -18.173300 0
M  V30 24 H -7.204000 0.344000 -18.573100 0
M  V30 25 H -8.080700 3.274300 -20.487800 0
M  V30 26 H -6.865700 3.947200 -19.628900 0
M  V30 27 H -6.837000 2.699700 -17.015800 0
M  V30 28 H -8.072100 1.634000 -16.941200 0
M  V30 29 H -15.179700 5.294900 -20.101200 0
M  V30 30 H -15.968800 1.313600 -20.328300 0
M  V30 31 H -12.944900 4.808500 -19.556200 0
M  V30 32 H -13.846900 0.858000 -19.470700 0
M  V30 33 H -8.365400 3.997700 -17.999600 0
M  V30 34 H -5.777900 2.122600 -20.052000 0
M  V30 END ATOM
M  V30 BEGIN BOND
M  V30 1 1 1 6
M  V30 2 1 1 16
M  V30 3 1 2 14
M  V30 4 1 2 15
M  V30 5 1 3 4
M  V30 6 2 3 14
M  V30 7 2 4 15
M  V30 8 1 5 7
M  V30 9 1 5 8
M  V30 10 1 7 9
M  V30 11 1 8 17
M  V30 12 1 9 17
M  V30 13 1 10 12
M  V30 14 2 10 16
M  V30 15 2 11 13
M  V30 16 1 11 16
M  V30 17 2 12 18
M  V30 18 1 13 18
M  V30 19 1 14 17
M  V30 20 1 15 18
M  V30 21 1 5 19 CFG=3
M  V30 22 1 6 20 CFG=3
M  V30 23 1 6 21
M  V30 24 1 6 22
M  V30 25 1 7 23 CFG=1
M  V30 26 1 7 24
M  V30 27 1 8 25 CFG=3
M  V30 28 1 8 26
M  V30 29 1 9 27 CFG=1
M  V30 30 1 9 28
M  V30 31 1 10 29
M  V30 32 1 11 30
M  V30 33 1 12 31
M  V30 34 1 13 32
M  V30 35 1 17 33 CFG=1
M  V30 36 1 5 34
M  V30 END BOND
M  V30 END CTAB
M  END
>  <Ligand_Instance>  (14) 
070_A_1605

>  <Dataset>  (14) 
CF

>  <PDB_ID>  (14) 
None

>  <Chain>  (14) 
A

>  <Resi>  (14) 
1605

>  <Num_Resolved_Atoms>  (14) 
18

>  <Num_H_Atoms_ProtBoundConf>  (14) 
16

>  <Pocket>  (14) 
A

>  <SMILES>  (14) 
COc(cc1)ccc1-c1nnc([C@@H]2CNCC2)[o]1

>  <Name>  (14) 
2‐(4‐methoxyphenyl)‐5‐[(3S)‐pyrrolidin‐3‐yl]‐1,3,4‐oxadiazole

>  <Num_Heavy_Atoms>  (14) 
18

>  <Num_Not_Resolved_Atoms>  (14) 
0

>  <ATP_Site>  (14) 
True

>  <Peripheral>  (14) 
True

>  <Standardized_SMILES>  (14) 
[H]C1=C([H])C(C2=NN=C([C@@]3([H])C([H])([H])C([H])([H])[N+]([H])([H])C3([H])[H])O2)=C([H])C([H])=C1OC([H])([H])[H]

$$$$
F073
     RDKit          3D

  0  0  0  0  0  0  0  0  0  0999 V3000
M  V30 BEGIN CTAB
M  V30 COUNTS 30 32 0 0 0
M  V30 BEGIN ATOM
M  V30 1 Cl -17.236000 4.441000 -20.536000 0
M  V30 2 O -10.803000 3.449000 -18.862000 0
M  V30 3 N -7.272000 2.775000 -20.283000 0 CFG=2 CHG=1
M  V30 4 N -10.095000 1.469000 -18.221000 0
M  V30 5 N -11.469000 1.384000 -18.469000 0
M  V30 6 C -6.754000 1.821000 -19.257000 0 CFG=2
M  V30 7 C -7.872000 3.955000 -19.579000 0 CFG=2
M  V30 8 C -7.279000 2.359000 -17.945000 0 CFG=2
M  V30 9 C -15.440000 2.540000 -19.898000 0
M  V30 10 C -14.687000 4.823000 -19.764000 0
M  V30 11 C -14.191000 2.106000 -19.490000 0
M  V30 12 C -13.439000 4.381000 -19.358000 0
M  V30 13 C -15.674000 3.896000 -20.031000 0
M  V30 14 C -9.749000 2.682000 -18.460000 0
M  V30 15 C -11.842000 2.560000 -18.839000 0
M  V30 16 C -8.416000 3.320000 -18.339000 0 CFG=2
M  V30 17 C -13.174000 3.020000 -19.218000 0
M  V30 18 H -7.969600 2.324500 -20.840100 0
M  V30 19 H -5.754100 1.807400 -19.259200 0
M  V30 20 H -7.100300 0.898100 -19.425000 0
M  V30 21 H -8.598600 4.374100 -20.123400 0
M  V30 22 H -7.178600 4.642400 -19.363000 0
M  V30 23 H -6.559500 2.848200 -17.452000 0
M  V30 24 H -7.628100 1.615800 -17.374200 0
M  V30 25 H -16.165200 1.880100 -20.094400 0
M  V30 26 H -14.870700 5.801000 -19.862400 0
M  V30 27 H -14.016100 1.126600 -19.389200 0
M  V30 28 H -12.718900 5.046800 -19.162800 0
M  V30 29 H -8.477500 4.027000 -17.634400 0
M  V30 30 H -6.521500 3.078700 -20.870000 0
M  V30 END ATOM
M  V30 BEGIN BOND
M  V30 1 1 1 13
M  V30 2 1 2 14
M  V30 3 1 2 15
M  V30 4 1 3 6
M  V30 5 1 3 7
M  V30 6 1 4 5
M  V30 7 2 4 14
M  V30 8 2 5 15
M  V30 9 1 6 8
M  V30 10 1 7 16
M  V30 11 1 8 16
M  V30 12 1 9 11
M  V30 13 2 9 13
M  V30 14 2 10 12
M  V30 15 1 10 13
M  V30 16 2 11 17
M  V30 17 1 12 17
M  V30 18 1 14 16
M  V30 19 1 15 17
M  V30 20 1 3 18 CFG=3
M  V30 21 1 6 19 CFG=1
M  V30 22 1 6 20
M  V30 23 1 7 21 CFG=3
M  V30 24 1 7 22
M  V30 25 1 8 23 CFG=1
M  V30 26 1 8 24
M  V30 27 1 9 25
M  V30 28 1 10 26
M  V30 29 1 11 27
M  V30 30 1 12 28
M  V30 31 1 16 29 CFG=1
M  V30 32 1 3 30
M  V30 END BOND
M  V30 END CTAB
M  END
>  <Ligand_Instance>  (15) 
073_B_6

>  <Dataset>  (15) 
CF

>  <PDB_ID>  (15) 
None

>  <Chain>  (15) 
B

>  <Resi>  (15) 
6

>  <Num_Resolved_Atoms>  (15) 
17

>  <Num_H_Atoms_ProtBoundConf>  (15) 
13

>  <Pocket>  (15) 
A

>  <SMILES>  (15) 
Clc(cc1)ccc1-c1nnc([C@@H]2CNCC2)[o]1

>  <Name>  (15) 
2‐(4‐chlorophenyl)‐5‐[(3S)‐pyrrolidin‐3‐yl]‐1,3,4‐oxadiazole

>  <Num_Heavy_Atoms>  (15) 
17

>  <Num_Not_Resolved_Atoms>  (15) 
0

>  <ATP_Site>  (15) 
True

>  <Peripheral>  (15) 
True

>  <Standardized_SMILES>  (15) 
[H]C1=C([H])C(C2=NN=C([C@@]3([H])C([H])([H])C([H])([H])[N+]([H])([H])C3([H])[H])O2)=C([H])C([H])=C1Cl

$$$$
F073
     RDKit          3D

  0  0  0  0  0  0  0  0  0  0999 V3000
M  V30 BEGIN CTAB
M  V30 COUNTS 30 32 0 0 0
M  V30 BEGIN ATOM
M  V30 1 Cl -16.133000 17.892000 -37.062000 0
M  V30 2 O -22.199000 18.654000 -39.932000 0
M  V30 3 N -25.694000 17.164000 -39.508000 0 CFG=2 CHG=1
M  V30 4 N -22.512000 20.251000 -41.413000 0
M  V30 5 N -21.180000 20.298000 -40.995000 0
M  V30 6 C -25.078000 16.457000 -40.667000 0 CFG=2
M  V30 7 C -25.159000 18.563000 -39.470000 0 CFG=2
M  V30 8 C -24.769000 17.563000 -41.647000 0 CFG=2
M  V30 9 C -18.688000 17.519000 -37.855000 0
M  V30 10 C -17.546000 19.419000 -38.778000 0
M  V30 11 C -19.827000 17.860000 -38.563000 0
M  V30 12 C -18.688000 19.754000 -39.484000 0
M  V30 13 C -17.561000 18.305000 -37.972000 0
M  V30 14 C -23.071000 19.287000 -40.775000 0
M  V30 15 C -21.038000 19.350000 -40.133000 0
M  V30 16 C -24.484000 18.838000 -40.819000 0 CFG=2
M  V30 17 C -19.840000 18.980000 -39.384000 0
M  V30 18 H -25.459800 16.689500 -38.659500 0
M  V30 19 H -25.718500 15.799400 -41.063500 0
M  V30 20 H -24.241900 15.983000 -40.390700 0
M  V30 21 H -24.492100 18.653100 -38.730300 0
M  V30 22 H -25.907200 19.210400 -39.324800 0
M  V30 23 H -25.551200 17.714200 -42.251400 0
M  V30 24 H -23.966900 17.322700 -42.193700 0
M  V30 25 H -18.682200 16.711600 -37.265100 0
M  V30 26 H -16.721100 19.979300 -38.852900 0
M  V30 27 H -20.648100 17.294900 -38.482700 0
M  V30 28 H -18.685300 20.562000 -40.073100 0
M  V30 29 H -25.002500 19.576800 -41.249500 0
M  V30 30 H -26.688100 17.185200 -39.614600 0
M  V30 END ATOM
M  V30 BEGIN BOND
M  V30 1 1 1 13
M  V30 2 1 2 14
M  V30 3 1 2 15
M  V30 4 1 3 6
M  V30 5 1 3 7
M  V30 6 1 4 5
M  V30 7 2 4 14
M  V30 8 2 5 15
M  V30 9 1 6 8
M  V30 10 1 7 16
M  V30 11 1 8 16
M  V30 12 1 9 11
M  V30 13 2 9 13
M  V30 14 2 10 12
M  V30 15 1 10 13
M  V30 16 2 11 17
M  V30 17 1 12 17
M  V30 18 1 14 16
M  V30 19 1 15 17
M  V30 20 1 3 18 CFG=1
M  V30 21 1 6 19 CFG=3
M  V30 22 1 6 20
M  V30 23 1 7 21 CFG=1
M  V30 24 1 7 22
M  V30 25 1 8 23 CFG=3
M  V30 26 1 8 24
M  V30 27 1 9 25
M  V30 28 1 10 26
M  V30 29 1 11 27
M  V30 30 1 12 28
M  V30 31 1 16 29 CFG=3
M  V30 32 1 3 30
M  V30 END BOND
M  V30 END CTAB
M  END
>  <Ligand_Instance>  (16) 
073_B_7

>  <Dataset>  (16) 
CF

>  <PDB_ID>  (16) 
None

>  <Chain>  (16) 
B

>  <Resi>  (16) 
7

>  <Num_Resolved_Atoms>  (16) 
17

>  <Num_H_Atoms_ProtBoundConf>  (16) 
13

>  <Pocket>  (16) 
X

>  <SMILES>  (16) 
Clc(cc1)ccc1-c1nnc([C@@H]2CNCC2)[o]1

>  <Name>  (16) 
2‐(4‐chlorophenyl)‐5‐[(3S)‐pyrrolidin‐3‐yl]‐1,3,4‐oxadiazole

>  <Num_Heavy_Atoms>  (16) 
17

>  <Num_Not_Resolved_Atoms>  (16) 
0

>  <ATP_Site>  (16) 
True

>  <Peripheral>  (16) 
True

>  <Standardized_SMILES>  (16) 
[H]C1=C([H])C(C2=NN=C([C@@]3([H])C([H])([H])C([H])([H])[N+]([H])([H])C3([H])[H])O2)=C([H])C([H])=C1Cl

$$$$
F073
     RDKit          3D

  0  0  0  0  0  0  0  0  0  0999 V3000
M  V30 BEGIN CTAB
M  V30 COUNTS 30 32 0 0 0
M  V30 BEGIN ATOM
M  V30 1 Cl 0.583000 26.711000 -11.443000 0
M  V30 2 O -5.541000 28.447000 -13.656000 0
M  V30 3 N -7.989000 29.241000 -11.858000 0 CFG=2 CHG=1
M  V30 4 N -5.872000 28.917000 -15.780000 0
M  V30 5 N -4.525000 28.578000 -15.609000 0
M  V30 6 C -8.219000 27.813000 -12.235000 0 CFG=2
M  V30 7 C -7.998000 30.077000 -13.102000 0 CFG=2
M  V30 8 C -8.601000 27.870000 -13.697000 0 CFG=2
M  V30 9 C -0.781000 27.527000 -13.624000 0
M  V30 10 C -2.054000 27.263000 -11.603000 0
M  V30 11 C -1.935000 27.889000 -14.298000 0
M  V30 12 C -3.203000 27.626000 -12.283000 0
M  V30 13 C -0.856000 27.218000 -12.284000 0
M  V30 14 C -6.425000 28.829000 -14.623000 0
M  V30 15 C -4.374000 28.312000 -14.357000 0
M  V30 16 C -7.828000 29.090000 -14.226000 0 CFG=2
M  V30 17 C -3.158000 27.943000 -13.638000 0
M  V30 18 H -7.104400 29.329400 -11.400200 0
M  V30 19 H -8.958800 27.417600 -11.690600 0
M  V30 20 H -7.386300 27.274200 -12.107100 0
M  V30 21 H -7.243400 30.733100 -13.091500 0
M  V30 22 H -8.864900 30.567400 -13.191200 0
M  V30 23 H -9.587000 27.998500 -13.803600 0
M  V30 24 H -8.320200 27.036100 -14.172100 0
M  V30 25 H 0.095500 27.490400 -14.103900 0
M  V30 26 H -2.092000 27.036100 -10.629800 0
M  V30 27 H -1.888500 28.114400 -15.271200 0
M  V30 28 H -4.075600 27.661100 -11.795800 0
M  V30 29 H -8.315400 29.443100 -15.024600 0
M  V30 30 H -8.715000 29.547100 -11.242200 0
M  V30 END ATOM
M  V30 BEGIN BOND
M  V30 1 1 1 13
M  V30 2 1 2 14
M  V30 3 1 2 15
M  V30 4 1 3 6
M  V30 5 1 3 7
M  V30 6 1 4 5
M  V30 7 2 4 14
M  V30 8 2 5 15
M  V30 9 1 6 8
M  V30 10 1 7 16
M  V30 11 1 8 16
M  V30 12 1 9 11
M  V30 13 2 9 13
M  V30 14 2 10 12
M  V30 15 1 10 13
M  V30 16 2 11 17
M  V30 17 1 12 17
M  V30 18 1 14 16
M  V30 19 1 15 17
M  V30 20 1 3 18 CFG=1
M  V30 21 1 6 19 CFG=1
M  V30 22 1 6 20
M  V30 23 1 7 21 CFG=1
M  V30 24 1 7 22
M  V30 25 1 8 23 CFG=1
M  V30 26 1 8 24
M  V30 27 1 9 25
M  V30 28 1 10 26
M  V30 29 1 11 27
M  V30 30 1 12 28
M  V30 31 1 16 29 CFG=3
M  V30 32 1 3 30
M  V30 END BOND
M  V30 END CTAB
M  END
>  <Ligand_Instance>  (17) 
073_B_8

>  <Dataset>  (17) 
CF

>  <PDB_ID>  (17) 
None

>  <Chain>  (17) 
B

>  <Resi>  (17) 
8

>  <Num_Resolved_Atoms>  (17) 
17

>  <Num_H_Atoms_ProtBoundConf>  (17) 
13

>  <Pocket>  (17) 
X

>  <SMILES>  (17) 
Clc(cc1)ccc1-c1nnc([C@@H]2CNCC2)[o]1

>  <Name>  (17) 
2‐(4‐chlorophenyl)‐5‐[(3S)‐pyrrolidin‐3‐yl]‐1,3,4‐oxadiazole

>  <Num_Heavy_Atoms>  (17) 
17

>  <Num_Not_Resolved_Atoms>  (17) 
0

>  <ATP_Site>  (17) 
True

>  <Peripheral>  (17) 
True

>  <Standardized_SMILES>  (17) 
[H]C1=C([H])C(C2=NN=C([C@@]3([H])C([H])([H])C([H])([H])[N+]([H])([H])C3([H])[H])O2)=C([H])C([H])=C1Cl

$$$$
F074
     RDKit          3D

  0  0  0  0  0  0  0  0  0  0999 V3000
M  V30 BEGIN CTAB
M  V30 COUNTS 29 31 0 0 0
M  V30 BEGIN ATOM
M  V30 1 O -14.297000 3.622000 -29.456000 0
M  V30 2 N -14.667000 5.801000 -30.056000 0
M  V30 3 N -13.414000 5.654000 -29.935000 0
M  V30 4 N -9.375000 2.677000 -28.539000 0
M  V30 5 N -18.279000 3.076000 -28.516000 0 CFG=2 CHG=1
M  V30 6 C -10.443000 1.841000 -28.805000 0
M  V30 7 C -9.517000 4.043000 -28.636000 0
M  V30 8 C -18.196000 2.428000 -29.841000 0 CFG=2
M  V30 9 C -17.086000 3.920000 -28.358000 0 CFG=2
M  V30 10 C -16.992000 3.013000 -30.565000 0 CFG=2
M  V30 11 C -11.664000 2.300000 -29.162000 0
M  V30 12 C -10.700000 4.604000 -28.978000 0
M  V30 13 C -15.207000 4.582000 -29.787000 0
M  V30 14 C -13.173000 4.338000 -29.591000 0
M  V30 15 C -16.654000 4.274000 -29.788000 0 CFG=2
M  V30 16 C -11.868000 3.756000 -29.283000 0
M  V30 17 H -18.302500 2.380900 -27.797400 0
M  V30 18 H -10.306900 0.853100 -28.730200 0
M  V30 19 H -8.730600 4.632100 -28.450100 0
M  V30 20 H -19.029400 2.610600 -30.362700 0
M  V30 21 H -18.081200 1.440700 -29.731100 0
M  V30 22 H -16.360900 3.418200 -27.886300 0
M  V30 23 H -17.307600 4.748100 -27.843100 0
M  V30 24 H -17.222600 3.233400 -31.512800 0
M  V30 25 H -16.224600 2.372000 -30.549000 0
M  V30 26 H -12.414800 1.664100 -29.340700 0
M  V30 27 H -10.783000 5.599500 -29.024300 0
M  V30 28 H -17.179600 5.051800 -30.132600 0
M  V30 29 H -19.104100 3.638500 -28.462700 0
M  V30 END ATOM
M  V30 BEGIN BOND
M  V30 1 1 1 13
M  V30 2 1 1 14
M  V30 3 1 2 3
M  V30 4 2 2 13
M  V30 5 2 3 14
M  V30 6 2 4 6
M  V30 7 1 4 7
M  V30 8 1 5 8
M  V30 9 1 5 9
M  V30 10 1 6 11
M  V30 11 2 7 12
M  V30 12 1 8 10
M  V30 13 1 9 15
M  V30 14 1 10 15
M  V30 15 2 11 16
M  V30 16 1 12 16
M  V30 17 1 13 15
M  V30 18 1 14 16
M  V30 19 1 5 17 CFG=1
M  V30 20 1 6 18
M  V30 21 1 7 19
M  V30 22 1 8 20 CFG=3
M  V30 23 1 8 21
M  V30 24 1 9 22 CFG=1
M  V30 25 1 9 23
M  V30 26 1 10 24 CFG=3
M  V30 27 1 10 25
M  V30 28 1 11 26
M  V30 29 1 12 27
M  V30 30 1 15 28 CFG=3
M  V30 31 1 5 29
M  V30 END BOND
M  V30 END CTAB
M  END
>  <Ligand_Instance>  (18) 
074_B_7

>  <Dataset>  (18) 
CF

>  <PDB_ID>  (18) 
None

>  <Chain>  (18) 
B

>  <Resi>  (18) 
7

>  <Num_Resolved_Atoms>  (18) 
16

>  <Num_H_Atoms_ProtBoundConf>  (18) 
13

>  <Pocket>  (18) 
A

>  <SMILES>  (18) 
C(CNC1)[C@@H]1c1nnc(-c2ccncc2)[o]1

>  <Name>  (18) 
 4‐{5‐[(3S)‐pyrrolidin‐3‐yl]‐1,3,4‐oxadiazol‐2‐yl}pyridine

>  <Num_Heavy_Atoms>  (18) 
16

>  <Num_Not_Resolved_Atoms>  (18) 
0

>  <ATP_Site>  (18) 
True

>  <Peripheral>  (18) 
True

>  <Standardized_SMILES>  (18) 
[H]C1=NC([H])=C([H])C(C2=NN=C([C@@]3([H])C([H])([H])C([H])([H])[N+]([H])([H])C3([H])[H])O2)=C1[H]

$$$$
F074
     RDKit          3D

  0  0  0  0  0  0  0  0  0  0999 V3000
M  V30 BEGIN CTAB
M  V30 COUNTS 29 31 0 0 0
M  V30 BEGIN ATOM
M  V30 1 O -29.757000 20.049000 -34.657000 0
M  V30 2 N -28.235000 18.395000 -35.036000 0
M  V30 3 N -27.563000 19.427000 -34.756000 0
M  V30 4 N -27.575000 24.371000 -33.288000 0
M  V30 5 N -31.631000 16.215000 -36.681000 0 CFG=2 CHG=1
M  V30 6 C -26.675000 23.367000 -33.027000 0
M  V30 7 C -28.745000 24.122000 -33.969000 0
M  V30 8 C -32.313000 17.472000 -37.011000 0 CFG=2
M  V30 9 C -30.331000 16.617000 -36.136000 0 CFG=2
M  V30 10 C -31.937000 18.425000 -35.886000 0 CFG=2
M  V30 11 C -26.893000 22.094000 -33.425000 0
M  V30 12 C -29.082000 22.894000 -34.388000 0
M  V30 13 C -29.566000 18.738000 -34.988000 0
M  V30 14 C -28.466000 20.436000 -34.544000 0
M  V30 15 C -30.697000 17.796000 -35.235000 0 CFG=2
M  V30 16 C -28.140000 21.786000 -34.148000 0
M  V30 17 H -31.510000 15.655600 -37.501000 0
M  V30 18 H -25.835400 23.583800 -32.528900 0
M  V30 19 H -29.365100 24.883500 -34.157700 0
M  V30 20 H -33.303400 17.337700 -37.042700 0
M  V30 21 H -31.996100 17.824100 -37.891700 0
M  V30 22 H -29.706200 16.899400 -36.863900 0
M  V30 23 H -29.915600 15.875500 -35.609200 0
M  V30 24 H -32.682600 18.499600 -35.223800 0
M  V30 25 H -31.722200 19.331500 -36.249600 0
M  V30 26 H -26.223000 21.376800 -33.233200 0
M  V30 27 H -29.952700 22.733300 -34.852800 0
M  V30 28 H -30.977400 17.423400 -34.350400 0
M  V30 29 H -32.153000 15.700600 -36.000600 0
M  V30 END ATOM
M  V30 BEGIN BOND
M  V30 1 1 1 13
M  V30 2 1 1 14
M  V30 3 1 2 3
M  V30 4 2 2 13
M  V30 5 2 3 14
M  V30 6 2 4 6
M  V30 7 1 4 7
M  V30 8 1 5 8
M  V30 9 1 5 9
M  V30 10 1 6 11
M  V30 11 2 7 12
M  V30 12 1 8 10
M  V30 13 1 9 15
M  V30 14 1 10 15
M  V30 15 2 11 16
M  V30 16 1 12 16
M  V30 17 1 13 15
M  V30 18 1 14 16
M  V30 19 1 5 17 CFG=3
M  V30 20 1 6 18
M  V30 21 1 7 19
M  V30 22 1 8 20 CFG=3
M  V30 23 1 8 21
M  V30 24 1 9 22 CFG=3
M  V30 25 1 9 23
M  V30 26 1 10 24 CFG=1
M  V30 27 1 10 25
M  V30 28 1 11 26
M  V30 29 1 12 27
M  V30 30 1 15 28 CFG=1
M  V30 31 1 5 29
M  V30 END BOND
M  V30 END CTAB
M  END
>  <Ligand_Instance>  (19) 
074_B_8

>  <Dataset>  (19) 
CF

>  <PDB_ID>  (19) 
None

>  <Chain>  (19) 
B

>  <Resi>  (19) 
8

>  <Num_Resolved_Atoms>  (19) 
16

>  <Num_H_Atoms_ProtBoundConf>  (19) 
13

>  <Pocket>  (19) 
X

>  <SMILES>  (19) 
C(CNC1)[C@@H]1c1nnc(-c2ccncc2)[o]1

>  <Name>  (19) 
 4‐{5‐[(3S)‐pyrrolidin‐3‐yl]‐1,3,4‐oxadiazol‐2‐yl}pyridine

>  <Num_Heavy_Atoms>  (19) 
16

>  <Num_Not_Resolved_Atoms>  (19) 
0

>  <ATP_Site>  (19) 
True

>  <Peripheral>  (19) 
True

>  <Standardized_SMILES>  (19) 
[H]C1=NC([H])=C([H])C(C2=NN=C([C@@]3([H])C([H])([H])C([H])([H])[N+]([H])([H])C3([H])[H])O2)=C1[H]

$$$$
F102
     RDKit          3D

  0  0  0  0  0  0  0  0  0  0999 V3000
M  V30 BEGIN CTAB
M  V30 COUNTS 36 39 0 0 0
M  V30 BEGIN ATOM
M  V30 1 O -14.046000 0.853000 -18.429000 0
M  V30 2 O -8.940000 2.598000 -17.059000 0
M  V30 3 N -16.797000 2.997000 -20.681000 0
M  V30 4 N -15.400000 4.909000 -20.099000 0
M  V30 5 N -9.058000 4.472000 -18.455000 0
M  V30 6 N -12.288000 1.945000 -19.204000 0
M  V30 7 C -16.579000 4.375000 -20.619000 0
M  V30 8 C -15.807000 2.208000 -20.179000 0
M  V30 9 C -14.431000 4.046000 -19.628000 0
M  V30 10 C -11.486000 0.916000 -18.537000 0 CFG=2
M  V30 11 C -11.465000 2.904000 -19.981000 0 CFG=2
M  V30 12 C -7.345000 5.052000 -14.825000 0
M  V30 13 C -7.415000 6.135000 -15.649000 0
M  V30 14 C -10.156000 0.939000 -19.203000 0 CFG=2
M  V30 15 C -7.815000 3.848000 -15.235000 0
M  V30 16 C -7.968000 6.023000 -16.891000 0
M  V30 17 C -13.630000 1.784000 -19.125000 0
M  V30 18 C -9.371000 3.152000 -18.413000 0
M  V30 19 C -8.373000 3.750000 -16.463000 0
M  V30 20 C -8.456000 4.826000 -17.266000 0
M  V30 21 C -14.633000 2.700000 -19.712000 0
M  V30 22 C -10.035000 2.423000 -19.535000 0 CFG=2
M  V30 23 H -17.287000 4.995400 -20.956400 0
M  V30 24 H -15.952800 1.219000 -20.153600 0
M  V30 25 H -13.587600 4.405000 -19.228400 0
M  V30 26 H -11.913200 0.018300 -18.644500 0
M  V30 27 H -11.391200 1.125600 -17.563800 0
M  V30 28 H -11.641700 3.851400 -19.714100 0
M  V30 29 H -11.603500 2.804000 -20.966300 0
M  V30 30 H -6.945000 5.145600 -13.913300 0
M  V30 31 H -7.058800 7.017300 -15.341400 0
M  V30 32 H -10.146900 0.374400 -20.028300 0
M  V30 33 H -9.429000 0.638600 -18.585600 0
M  V30 34 H -7.750200 3.046900 -14.640000 0
M  V30 35 H -8.009700 6.809800 -17.506800 0
M  V30 36 H -9.436000 2.499300 -20.332100 0
M  V30 END ATOM
M  V30 BEGIN BOND
M  V30 1 2 1 17
M  V30 2 1 2 18
M  V30 3 1 2 19
M  V30 4 2 3 7
M  V30 5 1 3 8
M  V30 6 1 4 7
M  V30 7 2 4 9
M  V30 8 2 5 18
M  V30 9 1 5 20
M  V30 10 1 6 10
M  V30 11 1 6 11
M  V30 12 1 6 17
M  V30 13 2 8 21
M  V30 14 1 9 21
M  V30 15 1 10 14
M  V30 16 1 11 22
M  V30 17 2 12 13
M  V30 18 1 12 15
M  V30 19 1 13 16
M  V30 20 1 14 22
M  V30 21 2 15 19
M  V30 22 2 16 20
M  V30 23 1 17 21
M  V30 24 1 18 22
M  V30 25 1 19 20
M  V30 26 1 7 23
M  V30 27 1 8 24
M  V30 28 1 9 25
M  V30 29 1 10 26 CFG=1
M  V30 30 1 10 27
M  V30 31 1 11 28 CFG=1
M  V30 32 1 11 29
M  V30 33 1 12 30
M  V30 34 1 13 31
M  V30 35 1 14 32 CFG=3
M  V30 36 1 14 33
M  V30 37 1 15 34
M  V30 38 1 16 35
M  V30 39 1 22 36 CFG=3
M  V30 END BOND
M  V30 END CTAB
M  END
>  <Ligand_Instance>  (20) 
102_B_1

>  <Dataset>  (20) 
CF

>  <PDB_ID>  (20) 
None

>  <Chain>  (20) 
B

>  <Resi>  (20) 
1

>  <Num_Resolved_Atoms>  (20) 
22

>  <Num_H_Atoms_ProtBoundConf>  (20) 
14

>  <Pocket>  (20) 
A

>  <SMILES>  (20) 
O=C(c1cncnc1)N(CC1)C[C@H]1c1nc2ccccc2[o]1

>  <Name>  (20) 
2‐[(3S)‐1‐(pyrimidine‐5‐carbonyl)pyrrolidin‐3‐yl]‐1,3‐benzoxazole

>  <Num_Heavy_Atoms>  (20) 
22

>  <Num_Not_Resolved_Atoms>  (20) 
0

>  <ATP_Site>  (20) 
True

>  <Peripheral>  (20) 
False

>  <Standardized_SMILES>  (20) 
[H]C1=NC([H])=C(C(=O)N2C([H])([H])C([H])([H])[C@]([H])(C3=NC4=C([H])C([H])=C([H])C([H])=C4O3)C2([H])[H])C([H])=N1

$$$$
F134
     RDKit          3D

  0  0  0  0  0  0  0  0  0  0999 V3000
M  V30 BEGIN CTAB
M  V30 COUNTS 28 30 0 0 0
M  V30 BEGIN ATOM
M  V30 1 N -8.017000 3.364000 -20.757000 0 CFG=2 CHG=1
M  V30 2 N -12.175000 2.447000 -19.586000 0
M  V30 3 N -12.397000 4.703000 -19.582000 0
M  V30 4 C -7.743000 3.278000 -19.311000 0 CFG=2
M  V30 5 C -15.860000 2.539000 -19.943000 0
M  V30 6 C -15.968000 3.944000 -19.963000 0
M  V30 7 C -9.482000 3.522000 -20.881000 0 CFG=2
M  V30 8 C -9.077000 3.006000 -18.635000 0 CFG=2
M  V30 9 C -14.632000 1.926000 -19.794000 0
M  V30 10 C -14.866000 4.750000 -19.842000 0
M  V30 11 C -11.455000 3.635000 -19.485000 0
M  V30 12 C -13.528000 2.743000 -19.690000 0
M  V30 13 C -13.682000 4.106000 -19.700000 0
M  V30 14 C -9.995000 3.864000 -19.452000 0 CFG=2
M  V30 15 H -7.716500 2.529300 -21.218600 0
M  V30 16 H -11.780800 1.528000 -19.584000 0
M  V30 17 H -7.357400 4.139500 -18.980500 0
M  V30 18 H -7.102700 2.532900 -19.124300 0
M  V30 19 H -16.683100 1.979100 -20.037900 0
M  V30 20 H -16.870000 4.362800 -20.068000 0
M  V30 21 H -9.897500 2.672400 -21.205900 0
M  V30 22 H -9.699600 4.263500 -21.515700 0
M  V30 23 H -9.066800 3.289300 -17.676000 0
M  V30 24 H -9.328100 2.039900 -18.694500 0
M  V30 25 H -14.547500 0.930100 -19.762900 0
M  V30 26 H -14.931300 5.747700 -19.857500 0
M  V30 27 H -9.813500 4.827400 -19.254900 0
M  V30 28 H -7.546900 4.152200 -21.154200 0
M  V30 END ATOM
M  V30 BEGIN BOND
M  V30 1 1 1 4
M  V30 2 1 1 7
M  V30 3 1 2 11
M  V30 4 1 2 12
M  V30 5 2 3 11
M  V30 6 1 3 13
M  V30 7 1 4 8
M  V30 8 2 5 6
M  V30 9 1 5 9
M  V30 10 1 6 10
M  V30 11 1 7 14
M  V30 12 1 8 14
M  V30 13 2 9 12
M  V30 14 2 10 13
M  V30 15 1 11 14
M  V30 16 1 12 13
M  V30 17 1 1 15 CFG=3
M  V30 18 1 2 16
M  V30 19 1 4 17 CFG=1
M  V30 20 1 4 18
M  V30 21 1 5 19
M  V30 22 1 6 20
M  V30 23 1 7 21 CFG=3
M  V30 24 1 7 22
M  V30 25 1 8 23 CFG=1
M  V30 26 1 8 24
M  V30 27 1 9 25
M  V30 28 1 10 26
M  V30 29 1 14 27 CFG=1
M  V30 30 1 1 28
M  V30 END BOND
M  V30 END CTAB
M  END
>  <Ligand_Instance>  (21) 
134_B_6

>  <Dataset>  (21) 
CF

>  <PDB_ID>  (21) 
None

>  <Chain>  (21) 
B

>  <Resi>  (21) 
6

>  <Num_Resolved_Atoms>  (21) 
14

>  <Num_H_Atoms_ProtBoundConf>  (21) 
14

>  <Pocket>  (21) 
A

>  <SMILES>  (21) 
C(CNC1)[C@@H]1c1nc(cccc2)c2[nH]1

>  <Name>  (21) 
2‐[(3S)‐pyrrolidin‐3‐yl]‐1H‐1,3‐benzodiazole

>  <Num_Heavy_Atoms>  (21) 
14

>  <Num_Not_Resolved_Atoms>  (21) 
0

>  <ATP_Site>  (21) 
True

>  <Peripheral>  (21) 
True

>  <Standardized_SMILES>  (21) 
[H]C1=C([H])C([H])=C2C(=C1[H])N=C([C@@]1([H])C([H])([H])C([H])([H])[N+]([H])([H])C1([H])[H])N2[H]

$$$$
F134
     RDKit          3D

  0  0  0  0  0  0  0  0  0  0999 V3000
M  V30 BEGIN CTAB
M  V30 COUNTS 28 30 0 0 0
M  V30 BEGIN ATOM
M  V30 1 N -22.002000 4.174000 0.004000 0 CFG=2 CHG=1
M  V30 2 N -19.235000 2.611000 -2.908000 0
M  V30 3 N -20.922000 2.950000 -4.439000 0
M  V30 4 C -22.302000 2.739000 0.225000 0 CFG=2
M  V30 5 C -17.207000 2.296000 -5.965000 0
M  V30 6 C -18.198000 2.490000 -6.878000 0
M  V30 7 C -21.311000 4.363000 -1.277000 0 CFG=2
M  V30 8 C -21.693000 1.983000 -0.938000 0 CFG=2
M  V30 9 C -17.461000 2.316000 -4.615000 0
M  V30 10 C -19.490000 2.728000 -6.494000 0
M  V30 11 C -20.584000 2.853000 -3.052000 0
M  V30 12 C -18.733000 2.539000 -4.209000 0
M  V30 13 C -19.714000 2.754000 -5.153000 0
M  V30 14 C -21.615000 3.058000 -2.023000 0 CFG=2
M  V30 15 H -21.418300 4.506100 0.745000 0
M  V30 16 H -23.291000 2.593600 0.250600 0
M  V30 17 H -21.897400 2.430900 1.086100 0
M  V30 18 H -16.273000 2.135300 -6.284200 0
M  V30 19 H -17.976700 2.457800 -7.852700 0
M  V30 20 H -20.327100 4.479700 -1.141700 0
M  V30 21 H -21.675700 5.153000 -1.769900 0
M  V30 22 H -22.278400 1.223700 -1.222300 0
M  V30 23 H -20.784300 1.635100 -0.707300 0
M  V30 24 H -16.727300 2.170000 -3.951300 0
M  V30 25 H -20.223400 2.873700 -7.158100 0
M  V30 26 H -22.507300 3.137300 -2.467400 0
M  V30 27 H -22.857500 4.691700 -0.004000 0
M  V30 28 H -21.827900 3.121500 -4.826200 0
M  V30 END ATOM
M  V30 BEGIN BOND
M  V30 1 1 1 4
M  V30 2 1 1 7
M  V30 3 2 2 11
M  V30 4 1 2 12
M  V30 5 1 3 11
M  V30 6 1 3 13
M  V30 7 1 4 8
M  V30 8 2 5 6
M  V30 9 1 5 9
M  V30 10 1 6 10
M  V30 11 1 7 14
M  V30 12 1 8 14
M  V30 13 2 9 12
M  V30 14 2 10 13
M  V30 15 1 11 14
M  V30 16 1 12 13
M  V30 17 1 1 15 CFG=1
M  V30 18 1 1 27
M  V30 19 1 4 16 CFG=1
M  V30 20 1 4 17
M  V30 21 1 5 18
M  V30 22 1 6 19
M  V30 23 1 7 20 CFG=1
M  V30 24 1 7 21
M  V30 25 1 8 22 CFG=3
M  V30 26 1 8 23
M  V30 27 1 9 24
M  V30 28 1 10 25
M  V30 29 1 14 26 CFG=3
M  V30 30 1 3 28
M  V30 END BOND
M  V30 END CTAB
M  END
>  <Ligand_Instance>  (22) 
134_B_7

>  <Dataset>  (22) 
CF

>  <PDB_ID>  (22) 
None

>  <Chain>  (22) 
B

>  <Resi>  (22) 
7

>  <Num_Resolved_Atoms>  (22) 
14

>  <Num_H_Atoms_ProtBoundConf>  (22) 
14

>  <Pocket>  (22) 
F

>  <SMILES>  (22) 
C(CNC1)[C@@H]1c1nc(cccc2)c2[nH]1

>  <Name>  (22) 
2‐[(3S)‐pyrrolidin‐3‐yl]‐1H‐1,3‐benzodiazole

>  <Num_Heavy_Atoms>  (22) 
14

>  <Num_Not_Resolved_Atoms>  (22) 
0

>  <ATP_Site>  (22) 
True

>  <Peripheral>  (22) 
True

>  <Standardized_SMILES>  (22) 
[H]C1=C([H])C([H])=C2C(=C1[H])N=C([C@@]1([H])C([H])([H])C([H])([H])[N+]([H])([H])C1([H])[H])N2[H]

$$$$
F134
     RDKit          3D

  0  0  0  0  0  0  0  0  0  0999 V3000
M  V30 BEGIN CTAB
M  V30 COUNTS 28 30 0 0 0
M  V30 BEGIN ATOM
M  V30 1 N -6.332000 6.598000 6.368000 0 CFG=2 CHG=1
M  V30 2 N -8.921000 3.137000 6.205000 0
M  V30 3 N -9.972000 4.035000 4.406000 0
M  V30 4 C -7.338000 6.956000 7.391000 0 CFG=2
M  V30 5 C -11.038000 0.196000 5.400000 0
M  V30 6 C -11.658000 0.715000 4.286000 0
M  V30 7 C -6.787000 5.280000 5.860000 0 CFG=2
M  V30 8 C -8.639000 6.320000 6.878000 0 CFG=2
M  V30 9 C -10.103000 0.927000 6.120000 0
M  V30 10 C -11.355000 1.993000 3.879000 0
M  V30 11 C -8.996000 4.272000 5.425000 0
M  V30 12 C -9.813000 2.195000 5.691000 0
M  V30 13 C -10.448000 2.699000 4.591000 0
M  V30 14 C -8.258000 5.539000 5.605000 0 CFG=2
M  V30 15 H -5.421400 6.526600 6.775100 0
M  V30 16 H -8.329500 3.010900 7.001400 0
M  V30 17 H -7.432900 7.948900 7.463100 0
M  V30 18 H -7.086700 6.579600 8.282700 0
M  V30 19 H -11.266800 -0.730700 5.698000 0
M  V30 20 H -12.322600 0.167700 3.777400 0
M  V30 21 H -6.656600 4.561400 6.543100 0
M  V30 22 H -6.309700 5.029700 5.017700 0
M  V30 23 H -9.310700 7.028800 6.662600 0
M  V30 24 H -9.017300 5.700200 7.565600 0
M  V30 25 H -9.655400 0.540100 6.926200 0
M  V30 26 H -11.795600 2.391300 3.074500 0
M  V30 27 H -8.370200 6.119800 4.798700 0
M  V30 28 H -6.316300 7.275800 5.632900 0
M  V30 END ATOM
M  V30 BEGIN BOND
M  V30 1 1 1 4
M  V30 2 1 1 7
M  V30 3 1 2 11
M  V30 4 1 2 12
M  V30 5 2 3 11
M  V30 6 1 3 13
M  V30 7 1 4 8
M  V30 8 2 5 6
M  V30 9 1 5 9
M  V30 10 1 6 10
M  V30 11 1 7 14
M  V30 12 1 8 14
M  V30 13 2 9 12
M  V30 14 2 10 13
M  V30 15 1 11 14
M  V30 16 1 12 13
M  V30 17 1 1 15 CFG=1
M  V30 18 1 2 16
M  V30 19 1 4 17 CFG=1
M  V30 20 1 4 18
M  V30 21 1 5 19
M  V30 22 1 6 20
M  V30 23 1 7 21 CFG=1
M  V30 24 1 7 22
M  V30 25 1 8 23 CFG=3
M  V30 26 1 8 24
M  V30 27 1 9 25
M  V30 28 1 10 26
M  V30 29 1 14 27 CFG=3
M  V30 30 1 1 28
M  V30 END BOND
M  V30 END CTAB
M  END
>  <Ligand_Instance>  (23) 
134_B_8

>  <Dataset>  (23) 
CF

>  <PDB_ID>  (23) 
None

>  <Chain>  (23) 
B

>  <Resi>  (23) 
8

>  <Num_Resolved_Atoms>  (23) 
14

>  <Num_H_Atoms_ProtBoundConf>  (23) 
14

>  <Pocket>  (23) 
X

>  <SMILES>  (23) 
C(CNC1)[C@@H]1c1nc(cccc2)c2[nH]1

>  <Name>  (23) 
2‐[(3S)‐pyrrolidin‐3‐yl]‐1H‐1,3‐benzodiazole

>  <Num_Heavy_Atoms>  (23) 
14

>  <Num_Not_Resolved_Atoms>  (23) 
0

>  <ATP_Site>  (23) 
True

>  <Peripheral>  (23) 
True

>  <Standardized_SMILES>  (23) 
[H]C1=C([H])C([H])=C2C(=C1[H])N=C([C@@]1([H])C([H])([H])C([H])([H])[N+]([H])([H])C1([H])[H])N2[H]

$$$$
F134
     RDKit          3D

  0  0  0  0  0  0  0  0  0  0999 V3000
M  V30 BEGIN CTAB
M  V30 COUNTS 27 29 0 0 0
M  V30 BEGIN ATOM
M  V30 1 N -21.108000 9.176000 -26.976000 0
M  V30 2 N -24.041000 11.150000 -29.489000 0
M  V30 3 N -23.045000 12.842000 -28.265000 0
M  V30 4 C -22.065000 8.376000 -27.773000 0 CFG=2
M  V30 5 C -24.615000 13.835000 -31.881000 0
M  V30 6 C -24.043000 14.848000 -31.187000 0
M  V30 7 C -21.554000 10.558000 -26.966000 0 CFG=2
M  V30 8 C -23.398000 9.008000 -27.506000 0 CFG=2
M  V30 9 C -24.657000 12.576000 -31.378000 0
M  V30 10 C -23.447000 14.619000 -29.982000 0
M  V30 11 C -23.387000 11.430000 -28.301000 0
M  V30 12 C -24.112000 12.346000 -30.184000 0
M  V30 13 C -23.531000 13.360000 -29.494000 0
M  V30 14 C -23.066000 10.480000 -27.206000 0 CFG=2
M  V30 15 H -24.391900 10.261900 -29.785800 0
M  V30 16 H -22.060800 7.421200 -27.475800 0
M  V30 17 H -21.840300 8.423100 -28.746300 0
M  V30 18 H -25.013200 14.018600 -32.779700 0
M  V30 19 H -24.058000 15.774600 -31.562700 0
M  V30 20 H -21.107600 11.078000 -27.694200 0
M  V30 21 H -21.358500 10.985400 -26.083300 0
M  V30 22 H -23.843300 8.577900 -26.720700 0
M  V30 23 H -23.991900 8.934800 -28.307200 0
M  V30 24 H -25.088400 11.835200 -31.892900 0
M  V30 25 H -22.972000 15.344800 -29.484400 0
M  V30 26 H -23.545500 10.762200 -26.375100 0
M  V30 27 H -21.074400 8.826200 -26.039800 0
M  V30 END ATOM
M  V30 BEGIN BOND
M  V30 1 1 1 4
M  V30 2 1 1 7
M  V30 3 1 2 11
M  V30 4 1 2 12
M  V30 5 2 3 11
M  V30 6 1 3 13
M  V30 7 1 4 8
M  V30 8 2 5 6
M  V30 9 1 5 9
M  V30 10 1 6 10
M  V30 11 1 7 14
M  V30 12 1 8 14
M  V30 13 2 9 12
M  V30 14 2 10 13
M  V30 15 1 11 14
M  V30 16 1 12 13
M  V30 17 1 1 27
M  V30 18 1 2 15
M  V30 19 1 4 16 CFG=1
M  V30 20 1 4 17
M  V30 21 1 5 18
M  V30 22 1 6 19
M  V30 23 1 7 20 CFG=3
M  V30 24 1 7 21
M  V30 25 1 8 22 CFG=1
M  V30 26 1 8 23
M  V30 27 1 9 24
M  V30 28 1 10 25
M  V30 29 1 14 26 CFG=1
M  V30 END BOND
M  V30 END CTAB
M  END
>  <Ligand_Instance>  (24) 
134_B_9

>  <Dataset>  (24) 
CF

>  <PDB_ID>  (24) 
None

>  <Chain>  (24) 
B

>  <Resi>  (24) 
9

>  <Num_Resolved_Atoms>  (24) 
14

>  <Num_H_Atoms_ProtBoundConf>  (24) 
13

>  <Pocket>  (24) 
X

>  <SMILES>  (24) 
C(CNC1)[C@@H]1c1nc(cccc2)c2[nH]1

>  <Name>  (24) 
2‐[(3S)‐pyrrolidin‐3‐yl]‐1H‐1,3‐benzodiazole

>  <Num_Heavy_Atoms>  (24) 
14

>  <Num_Not_Resolved_Atoms>  (24) 
0

>  <ATP_Site>  (24) 
True

>  <Peripheral>  (24) 
True

>  <Standardized_SMILES>  (24) 
[H]C1=C([H])C([H])=C2C(=C1[H])N=C([C@]1([H])C([H])([H])N([H])C([H])([H])C1([H])[H])N2[H]

$$$$
F138
     RDKit          3D

  0  0  0  0  0  0  0  0  0  0999 V3000
M  V30 BEGIN CTAB
M  V30 COUNTS 34 36 0 0 0
M  V30 BEGIN ATOM
M  V30 1 O -16.855000 2.998000 -20.164000 0
M  V30 2 O -15.932000 5.082000 -19.992000 0
M  V30 3 N -7.174000 4.651000 -20.042000 0 CFG=2 CHG=1
M  V30 4 N -10.737000 2.038000 -18.731000 0
M  V30 5 N -11.050000 4.300000 -19.045000 0
M  V30 6 C -17.138000 5.669000 -20.443000 0 CFG=1
M  V30 7 C -7.541000 3.331000 -20.551000 0 CFG=2
M  V30 8 C -8.223000 4.965000 -19.070000 0 CFG=2
M  V30 9 C -7.786000 2.588000 -19.253000 0 CFG=2
M  V30 10 C -13.108000 1.429000 -19.055000 0
M  V30 11 C -14.339000 1.920000 -19.331000 0
M  V30 12 C -13.476000 4.150000 -19.439000 0
M  V30 13 C -15.902000 3.727000 -19.888000 0
M  V30 14 C -10.109000 3.336000 -18.763000 0
M  V30 15 C -12.099000 2.307000 -18.986000 0
M  V30 16 C -12.263000 3.640000 -19.173000 0
M  V30 17 C -8.665000 3.601000 -18.523000 0 CFG=2
M  V30 18 C -14.527000 3.274000 -19.522000 0
M  V30 19 H -7.161400 5.325100 -20.780600 0
M  V30 20 H -17.033000 6.662900 -20.476100 0
M  V30 21 H -17.354200 5.326100 -21.357100 0
M  V30 22 H -17.879100 5.432800 -19.814500 0
M  V30 23 H -6.796900 2.918800 -21.076800 0
M  V30 24 H -8.366000 3.369700 -21.114800 0
M  V30 25 H -8.987700 5.431800 -19.514300 0
M  V30 26 H -7.862900 5.540100 -18.335400 0
M  V30 27 H -6.933900 2.413700 -18.759600 0
M  V30 28 H -8.265500 1.723900 -19.405800 0
M  V30 29 H -12.958200 0.451200 -18.908700 0
M  V30 30 H -15.118300 1.296800 -19.397000 0
M  V30 31 H -13.607900 5.132300 -19.571600 0
M  V30 32 H -8.477200 3.558900 -17.541700 0
M  V30 33 H -6.277400 4.624100 -19.600000 0
M  V30 34 H -10.306200 1.150800 -18.566000 0
M  V30 END ATOM
M  V30 BEGIN BOND
M  V30 1 2 1 13
M  V30 2 1 2 6
M  V30 3 1 2 13
M  V30 4 1 3 7
M  V30 5 1 3 8
M  V30 6 1 4 14
M  V30 7 1 4 15
M  V30 8 2 5 14
M  V30 9 1 5 16
M  V30 10 1 7 9
M  V30 11 1 8 17
M  V30 12 1 9 17
M  V30 13 1 10 11
M  V30 14 2 10 15
M  V30 15 2 11 18
M  V30 16 2 12 16
M  V30 17 1 12 18
M  V30 18 1 13 18
M  V30 19 1 14 17
M  V30 20 1 15 16
M  V30 21 1 3 19 CFG=3
M  V30 22 1 4 34
M  V30 23 1 6 20 CFG=3
M  V30 24 1 6 21
M  V30 25 1 6 22
M  V30 26 1 7 23 CFG=3
M  V30 27 1 7 24
M  V30 28 1 8 25 CFG=3
M  V30 29 1 8 26
M  V30 30 1 9 27 CFG=1
M  V30 31 1 9 28
M  V30 32 1 10 29
M  V30 33 1 11 30
M  V30 34 1 12 31
M  V30 35 1 17 32 CFG=1
M  V30 36 1 3 33
M  V30 END BOND
M  V30 END CTAB
M  END
>  <Ligand_Instance>  (25) 
138_B_1

>  <Dataset>  (25) 
CF

>  <PDB_ID>  (25) 
None

>  <Chain>  (25) 
B

>  <Resi>  (25) 
1

>  <Num_Resolved_Atoms>  (25) 
18

>  <Num_H_Atoms_ProtBoundConf>  (25) 
16

>  <Pocket>  (25) 
A

>  <SMILES>  (25) 
COC(c(cc1)cc2c1[nH]c([C@@H]1CNCC1)n2)=O

>  <Name>  (25) 
methyl 2‐[(3S)‐pyrrolidin‐3‐yl]‐1H‐1,3‐benzodiazole‐5‐carboxylate

>  <Num_Heavy_Atoms>  (25) 
18

>  <Num_Not_Resolved_Atoms>  (25) 
0

>  <ATP_Site>  (25) 
True

>  <Peripheral>  (25) 
True

>  <Standardized_SMILES>  (25) 
[H]C1=C2N=C([C@@]3([H])C([H])([H])C([H])([H])[N+]([H])([H])C3([H])[H])N([H])C2=C([H])C([H])=C1C(=O)OC([H])([H])[H]

$$$$
F145
     RDKit          3D

  0  0  0  0  0  0  0  0  0  0999 V3000
M  V30 BEGIN CTAB
M  V30 COUNTS 30 32 0 0 0
M  V30 BEGIN ATOM
M  V30 1 Cl -10.032000 2.137000 -28.599000 0
M  V30 2 S -12.506000 3.571000 -29.288000 0
M  V30 3 O -19.775000 5.476000 -29.163000 0
M  V30 4 N -18.213000 5.457000 -31.721000 0 CFG=2 CHG=1
M  V30 5 N -15.617000 7.356000 -30.462000 0
M  V30 6 N -15.168000 5.185000 -29.887000 0
M  V30 7 C -20.464000 5.571000 -30.448000 0 CFG=2
M  V30 8 C -18.360000 5.259000 -29.191000 0 CFG=2
M  V30 9 C -19.665000 5.707000 -31.777000 0 CFG=2
M  V30 10 C -14.226000 7.206000 -30.214000 0
M  V30 11 C -10.390000 4.916000 -28.987000 0
M  V30 12 C -11.384000 5.798000 -29.325000 0
M  V30 13 C -10.833000 3.630000 -28.942000 0
M  V30 14 C -12.638000 5.289000 -29.540000 0
M  V30 15 C -16.194000 6.078000 -30.253000 0
M  V30 16 C -17.691000 5.935000 -30.412000 0 CFG=1
M  V30 17 C -13.951000 5.904000 -29.887000 0
M  V30 18 H -17.758800 5.949500 -32.463400 0
M  V30 19 H -21.061300 6.371100 -30.392000 0
M  V30 20 H -21.020700 4.744800 -30.534100 0
M  V30 21 H -18.185500 4.275200 -29.231400 0
M  V30 22 H -17.959700 5.634500 -28.355100 0
M  V30 23 H -20.056500 5.059200 -32.430600 0
M  V30 24 H -19.796600 6.639800 -32.112600 0
M  V30 25 H -13.549400 7.940200 -30.269700 0
M  V30 26 H -9.446700 5.187000 -28.795300 0
M  V30 27 H -11.200500 6.777200 -29.411500 0
M  V30 28 H -18.019700 6.878200 -30.362700 0
M  V30 29 H -18.037400 4.477000 -31.814700 0
M  V30 30 H -15.280400 4.216100 -29.666700 0
M  V30 END ATOM
M  V30 BEGIN BOND
M  V30 1 1 1 13
M  V30 2 1 2 13
M  V30 3 1 2 14
M  V30 4 1 3 7
M  V30 5 1 3 8
M  V30 6 1 4 9
M  V30 7 1 4 16
M  V30 8 1 5 10
M  V30 9 2 5 15
M  V30 10 1 6 15
M  V30 11 1 6 17
M  V30 12 1 7 9
M  V30 13 1 8 16
M  V30 14 2 10 17
M  V30 15 1 11 12
M  V30 16 2 11 13
M  V30 17 2 12 14
M  V30 18 1 14 17
M  V30 19 1 15 16
M  V30 20 1 4 18 CFG=3
M  V30 21 1 6 30
M  V30 22 1 7 19 CFG=1
M  V30 23 1 7 20
M  V30 24 1 8 21 CFG=3
M  V30 25 1 8 22
M  V30 26 1 9 23 CFG=3
M  V30 27 1 9 24
M  V30 28 1 10 25
M  V30 29 1 11 26
M  V30 30 1 12 27
M  V30 31 1 16 28 CFG=1
M  V30 32 1 4 29
M  V30 END BOND
M  V30 END CTAB
M  END
>  <Ligand_Instance>  (26) 
145_B_5

>  <Dataset>  (26) 
CF

>  <PDB_ID>  (26) 
None

>  <Chain>  (26) 
B

>  <Resi>  (26) 
5

>  <Num_Resolved_Atoms>  (26) 
17

>  <Num_H_Atoms_ProtBoundConf>  (26) 
13

>  <Pocket>  (26) 
A

>  <SMILES>  (26) 
Clc1ccc(-c2c[nH]c([C@H]3NCCOC3)n2)[s]1

>  <Name>  (26) 
(3R)‐3‐[4‐(5‐chlorothiophen‐2‐yl)‐1H‐imidazol‐2‐yl]morpholine

>  <Num_Heavy_Atoms>  (26) 
17

>  <Num_Not_Resolved_Atoms>  (26) 
0

>  <ATP_Site>  (26) 
True

>  <Peripheral>  (26) 
True

>  <Standardized_SMILES>  (26) 
[H]C1=C(C2=C([H])C([H])=C(Cl)S2)N([H])C([C@]2([H])C([H])([H])OC([H])([H])C([H])([H])[N+]2([H])[H])=N1

$$$$
F145
     RDKit          3D

  0  0  0  0  0  0  0  0  0  0999 V3000
M  V30 BEGIN CTAB
M  V30 COUNTS 30 32 0 0 0
M  V30 BEGIN ATOM
M  V30 1 Cl -9.803000 17.989000 -11.874000 0
M  V30 2 S -7.008000 17.613000 -10.897000 0
M  V30 3 O 0.199000 16.155000 -8.238000 0
M  V30 4 N -0.656000 18.215000 -9.686000 0 CFG=2 CHG=1
M  V30 5 N -3.249000 18.969000 -7.952000 0
M  V30 6 N -4.162000 17.797000 -9.692000 0
M  V30 7 C 0.578000 16.068000 -9.627000 0 CFG=2
M  V30 8 C -1.191000 16.442000 -8.017000 0 CFG=2
M  V30 9 C 0.309000 17.373000 -10.402000 0 CFG=2
M  V30 10 C -4.611000 19.357000 -8.118000 0
M  V30 11 C -8.554000 19.474000 -10.011000 0
M  V30 12 C -7.393000 19.626000 -9.359000 0
M  V30 13 C -8.517000 18.440000 -10.863000 0
M  V30 14 C -6.450000 18.737000 -9.672000 0
M  V30 15 C -2.998000 17.979000 -8.955000 0
M  V30 16 C -1.710000 17.281000 -9.211000 0 CFG=1
M  V30 17 C -5.117000 18.654000 -9.144000 0
M  V30 18 H -1.046100 18.901200 -10.299900 0
M  V30 19 H 0.057200 15.329200 -10.054700 0
M  V30 20 H 1.554900 15.860800 -9.679300 0
M  V30 21 H -1.298700 16.959300 -7.168000 0
M  V30 22 H -1.706900 15.587600 -7.954400 0
M  V30 23 H 1.167500 17.874900 -10.506900 0
M  V30 24 H -0.058200 17.148500 -11.304600 0
M  V30 25 H -5.102100 20.032600 -7.568100 0
M  V30 26 H -9.352100 20.061600 -9.877800 0
M  V30 27 H -7.245000 20.352200 -8.687700 0
M  V30 28 H -1.878400 16.638300 -9.958400 0
M  V30 29 H -0.216900 18.671300 -8.912000 0
M  V30 30 H -2.601800 19.317100 -7.273900 0
M  V30 END ATOM
M  V30 BEGIN BOND
M  V30 1 1 1 13
M  V30 2 1 2 13
M  V30 3 1 2 14
M  V30 4 1 3 7
M  V30 5 1 3 8
M  V30 6 1 4 9
M  V30 7 1 4 16
M  V30 8 1 5 10
M  V30 9 1 5 15
M  V30 10 2 6 15
M  V30 11 1 6 17
M  V30 12 1 7 9
M  V30 13 1 8 16
M  V30 14 2 10 17
M  V30 15 1 11 12
M  V30 16 2 11 13
M  V30 17 2 12 14
M  V30 18 1 14 17
M  V30 19 1 15 16
M  V30 20 1 4 18 CFG=3
M  V30 21 1 5 30
M  V30 22 1 7 19 CFG=3
M  V30 23 1 7 20
M  V30 24 1 8 21 CFG=1
M  V30 25 1 8 22
M  V30 26 1 9 23 CFG=3
M  V30 27 1 9 24
M  V30 28 1 10 25
M  V30 29 1 11 26
M  V30 30 1 12 27
M  V30 31 1 16 28 CFG=3
M  V30 32 1 4 29
M  V30 END BOND
M  V30 END CTAB
M  END
>  <Ligand_Instance>  (27) 
145_B_6

>  <Dataset>  (27) 
CF

>  <PDB_ID>  (27) 
None

>  <Chain>  (27) 
B

>  <Resi>  (27) 
6

>  <Num_Resolved_Atoms>  (27) 
17

>  <Num_H_Atoms_ProtBoundConf>  (27) 
13

>  <Pocket>  (27) 
X

>  <SMILES>  (27) 
Clc1ccc(-c2c[nH]c([C@H]3NCCOC3)n2)[s]1

>  <Name>  (27) 
(3R)‐3‐[4‐(5‐chlorothiophen‐2‐yl)‐1H‐imidazol‐2‐yl]morpholine

>  <Num_Heavy_Atoms>  (27) 
17

>  <Num_Not_Resolved_Atoms>  (27) 
0

>  <ATP_Site>  (27) 
True

>  <Peripheral>  (27) 
True

>  <Standardized_SMILES>  (27) 
[H]C1=C(Cl)SC(C2=C([H])N([H])C([C@]3([H])C([H])([H])OC([H])([H])C([H])([H])[N+]3([H])[H])=N2)=C1[H]

$$$$
F168
     RDKit          3D

  0  0  0  0  0  0  0  0  0  0999 V3000
M  V30 BEGIN CTAB
M  V30 COUNTS 42 44 0 0 0
M  V30 BEGIN ATOM
M  V30 1 O 0.053000 15.652000 -9.436000 0
M  V30 2 O -5.568000 19.557000 -8.708000 0
M  V30 3 O -0.312000 18.624000 -7.881000 0
M  V30 4 N 2.953000 17.490000 -7.780000 0 CFG=1 CHG=1
M  V30 5 N -4.124000 19.363000 -8.277000 0
M  V30 6 C 1.739000 17.667000 -6.973000 0 CFG=2
M  V30 7 C -9.354000 17.846000 -11.574000 0
M  V30 8 C -9.206000 18.878000 -10.703000 0
M  V30 9 C -8.308000 17.022000 -11.785000 0
M  V30 10 C 0.609000 17.744000 -10.430000 0 CFG=2
M  V30 11 C -0.593000 18.689000 -10.334000 0 CFG=2
M  V30 12 C -8.037000 19.083000 -10.052000 0
M  V30 13 C -7.133000 17.219000 -11.148000 0
M  V30 14 C -2.354000 17.703000 -8.808000 0 CFG=2
M  V30 15 C -4.653000 17.704000 -9.742000 0
M  V30 16 C 0.849000 16.827000 -9.221000 0 CFG=1
M  V30 17 C -1.244000 18.757000 -8.954000 0 CFG=1
M  V30 18 C 0.486000 17.427000 -7.845000 0 CFG=2
M  V30 19 C -5.748000 18.446000 -9.616000 0
M  V30 20 C -3.720000 18.247000 -8.967000 0
M  V30 21 C -6.998000 18.246000 -10.276000 0
M  V30 22 H 0.338600 15.206600 -10.284500 0
M  V30 23 H 3.679000 18.078000 -7.423400 0
M  V30 24 H 3.246000 16.534900 -7.736400 0
M  V30 25 H 1.716000 18.598100 -6.609100 0
M  V30 26 H 1.746100 17.013400 -6.216200 0
M  V30 27 H -10.221700 17.700400 -12.049300 0
M  V30 28 H -9.974200 19.497100 -10.539900 0
M  V30 29 H -8.403000 16.255800 -12.420600 0
M  V30 30 H 1.428000 18.303900 -10.555600 0
M  V30 31 H 0.476500 17.162300 -11.232600 0
M  V30 32 H -1.283400 18.382100 -10.989100 0
M  V30 33 H -0.286300 19.608700 -10.579200 0
M  V30 34 H -7.942400 19.845500 -9.411900 0
M  V30 35 H -6.362200 16.605700 -11.320700 0
M  V30 36 H -2.281900 17.293400 -7.898600 0
M  V30 37 H -2.212700 16.998200 -9.503200 0
M  V30 38 H -4.550200 16.889500 -10.313000 0
M  V30 39 H 1.813000 16.561300 -9.208700 0
M  V30 40 H -1.672200 19.656700 -8.868900 0
M  V30 41 H -0.060600 16.736800 -7.370800 0
M  V30 42 H 2.760700 17.736600 -8.729900 0
M  V30 END ATOM
M  V30 BEGIN BOND
M  V30 1 1 1 16
M  V30 2 1 2 5
M  V30 3 1 2 19
M  V30 4 1 3 17
M  V30 5 1 3 18
M  V30 6 1 4 6
M  V30 7 2 5 20
M  V30 8 1 6 18
M  V30 9 2 7 8
M  V30 10 1 7 9
M  V30 11 1 8 12
M  V30 12 2 9 13
M  V30 13 1 10 11
M  V30 14 1 10 16
M  V30 15 1 11 17
M  V30 16 2 12 21
M  V30 17 1 13 21
M  V30 18 1 14 17
M  V30 19 1 14 20
M  V30 20 2 15 19
M  V30 21 1 15 20
M  V30 22 1 16 18
M  V30 23 1 19 21
M  V30 24 1 1 22
M  V30 25 1 4 23 CFG=1
M  V30 26 1 4 24
M  V30 27 1 6 25 CFG=1
M  V30 28 1 6 26
M  V30 29 1 7 27
M  V30 30 1 8 28
M  V30 31 1 9 29
M  V30 32 1 10 30 CFG=3
M  V30 33 1 10 31
M  V30 34 1 11 32 CFG=3
M  V30 35 1 11 33
M  V30 36 1 12 34
M  V30 37 1 13 35
M  V30 38 1 14 36 CFG=1
M  V30 39 1 14 37
M  V30 40 1 15 38
M  V30 41 1 16 39 CFG=1
M  V30 42 1 17 40 CFG=1
M  V30 43 1 18 41 CFG=1
M  V30 44 1 4 42
M  V30 END BOND
M  V30 END CTAB
M  END
>  <Ligand_Instance>  (28) 
168_B_4

>  <Dataset>  (28) 
CF

>  <PDB_ID>  (28) 
None

>  <Chain>  (28) 
B

>  <Resi>  (28) 
4

>  <Num_Resolved_Atoms>  (28) 
21

>  <Num_H_Atoms_ProtBoundConf>  (28) 
21

>  <Pocket>  (28) 
X

>  <SMILES>  (28) 
NC[C@H]1O[C@H](Cc2n[o]c(-c3ccccc3)c2)CC[C@@H]1O

>  <Name>  (28) 
(2R,3S,6S)‐2‐(aminomethyl)‐6‐[(5‐phenyl‐1,2‐oxazol‐3‐yl)methyl]oxan‐3‐ol

>  <Num_Heavy_Atoms>  (28) 
21

>  <Num_Not_Resolved_Atoms>  (28) 
0

>  <ATP_Site>  (28) 
True

>  <Peripheral>  (28) 
True

>  <Standardized_SMILES>  (28) 
[H]O[C@@]1([H])C([H])([H])C([H])([H])[C@@]([H])(C([H])([H])C2=NOC(C3=C([H])C([H])=C([H])C([H])=C3[H])=C2[H])O[C@]1([H])C([H])([H])[N+]([H])([H])[H]

$$$$
F184
     RDKit          3D

  0  0  0  0  0  0  0  0  0  0999 V3000
M  V30 BEGIN CTAB
M  V30 COUNTS 38 39 0 0 0
M  V30 BEGIN ATOM
M  V30 1 O -6.658000 4.464000 -20.417000 0
M  V30 2 O -8.714000 6.118000 -15.275000 0
M  V30 3 O -6.983000 4.970000 -14.363000 0
M  V30 4 O -13.626000 2.017000 -19.498000 0
M  V30 5 O -6.728000 2.638000 -17.776000 0
M  V30 6 N -8.406000 4.326000 -17.578000 0
M  V30 7 N -9.770000 3.700000 -19.992000 0 CFG=2 CHG=1
M  V30 8 C -7.100000 5.907000 -13.277000 0 CFG=1
M  V30 9 C -7.421000 3.316000 -20.811000 0 CFG=2
M  V30 10 C -12.524000 1.263000 -18.981000 0 CFG=2
M  V30 11 C -13.546000 3.422000 -19.250000 0 CFG=2
M  V30 12 C -6.677000 3.407000 -16.474000 0
M  V30 13 C -11.128000 1.773000 -19.329000 0 CFG=2
M  V30 14 C -12.207000 4.034000 -19.661000 0 CFG=2
M  V30 15 C -7.851000 5.246000 -15.330000 0
M  V30 16 C -7.903000 3.337000 -18.377000 0
M  V30 17 C -10.953000 3.291000 -19.192000 0 CFG=2
M  V30 18 C -8.464000 3.032000 -19.715000 0 CFG=1
M  V30 19 C -7.642000 4.332000 -16.448000 0
M  V30 20 H -6.760600 5.184000 -21.103300 0
M  V30 21 H -9.638100 4.680400 -19.845800 0
M  V30 22 H -6.436900 5.676400 -12.564900 0
M  V30 23 H -6.920000 6.831300 -13.613400 0
M  V30 24 H -8.024400 5.864300 -12.898100 0
M  V30 25 H -6.815800 2.526800 -20.915000 0
M  V30 26 H -7.883100 3.498300 -21.678900 0
M  V30 27 H -12.602900 0.329900 -19.331800 0
M  V30 28 H -12.604000 1.252300 -17.984300 0
M  V30 29 H -13.679900 3.579600 -18.271600 0
M  V30 30 H -14.273700 3.876800 -19.763500 0
M  V30 31 H -6.017400 3.246700 -15.739700 0
M  V30 32 H -10.930100 1.519900 -20.276000 0
M  V30 33 H -10.471700 1.326700 -18.720600 0
M  V30 34 H -12.168700 4.961900 -19.290100 0
M  V30 35 H -12.183000 4.073100 -20.659900 0
M  V30 36 H -10.786100 3.512200 -18.231100 0
M  V30 37 H -8.637300 2.047300 -19.734200 0
M  V30 38 H -9.990200 3.533000 -20.953000 0
M  V30 END ATOM
M  V30 BEGIN BOND
M  V30 1 1 1 9
M  V30 2 2 2 15
M  V30 3 1 3 8
M  V30 4 1 3 15
M  V30 5 1 4 10
M  V30 6 1 4 11
M  V30 7 1 5 12
M  V30 8 1 5 16
M  V30 9 2 6 16
M  V30 10 1 6 19
M  V30 11 1 7 17
M  V30 12 1 7 18
M  V30 13 1 9 18
M  V30 14 1 10 13
M  V30 15 1 11 14
M  V30 16 2 12 19
M  V30 17 1 13 17
M  V30 18 1 14 17
M  V30 19 1 15 19
M  V30 20 1 16 18
M  V30 21 1 1 20
M  V30 22 1 7 21 CFG=3
M  V30 23 1 8 22 CFG=1
M  V30 24 1 8 23
M  V30 25 1 8 24
M  V30 26 1 9 25 CFG=3
M  V30 27 1 9 26
M  V30 28 1 10 27 CFG=3
M  V30 29 1 10 28
M  V30 30 1 11 29 CFG=1
M  V30 31 1 11 30
M  V30 32 1 12 31
M  V30 33 1 13 32 CFG=3
M  V30 34 1 13 33
M  V30 35 1 14 34 CFG=1
M  V30 36 1 14 35
M  V30 37 1 17 36 CFG=1
M  V30 38 1 18 37 CFG=1
M  V30 39 1 7 38
M  V30 END BOND
M  V30 END CTAB
M  END
>  <Ligand_Instance>  (29) 
184_A_401

>  <Dataset>  (29) 
CF

>  <PDB_ID>  (29) 
None

>  <Chain>  (29) 
A

>  <Resi>  (29) 
401

>  <Num_Resolved_Atoms>  (29) 
19

>  <Num_H_Atoms_ProtBoundConf>  (29) 
19

>  <Pocket>  (29) 
A

>  <SMILES>  (29) 
COC(c1c[o]c([C@H](CO)NC2CCOCC2)n1)=O

>  <Name>  (29) 
methyl 2‐[(1S)‐2‐hydroxy‐1‐[(oxan‐4‐yl)amino]ethyl]‐1,3‐oxazole‐4‐carboxylate

>  <Num_Heavy_Atoms>  (29) 
19

>  <Num_Not_Resolved_Atoms>  (29) 
0

>  <ATP_Site>  (29) 
True

>  <Peripheral>  (29) 
False

>  <Standardized_SMILES>  (29) 
[H]OC([H])([H])[C@@]([H])(C1=NC(C(=O)OC([H])([H])[H])=C([H])O1)[N+]([H])([H])C1([H])C([H])([H])C([H])([H])OC([H])([H])C1([H])[H]

$$$$
F186
     RDKit          3D

  0  0  0  0  0  0  0  0  0  0999 V3000
M  V30 BEGIN CTAB
M  V30 COUNTS 37 37 0 0 0
M  V30 BEGIN ATOM
M  V30 1 O -8.665000 0.372000 -18.641000 0
M  V30 2 O -16.247000 2.669000 -20.293000 0
M  V30 3 O -9.228000 2.344000 -16.158000 0
M  V30 4 O -14.825000 4.386000 -19.929000 0
M  V30 5 O -12.863000 0.541000 -18.944000 0
M  V30 6 N -9.949000 2.715000 -18.252000 0
M  V30 7 N -12.833000 2.746000 -19.130000 0
M  V30 8 C -15.844000 5.289000 -20.401000 0 CFG=1
M  V30 9 C -8.737000 5.349000 -18.045000 0 CFG=1
M  V30 10 C -6.983000 3.609000 -18.086000 0 CFG=1
M  V30 11 C -7.688000 4.597000 -15.926000 0 CFG=1
M  V30 12 C -10.003000 0.428000 -19.092000 0 CFG=2
M  V30 13 C -14.106000 0.898000 -19.406000 0
M  V30 14 C -15.168000 3.098000 -19.946000 0
M  V30 15 C -9.157000 2.985000 -17.196000 0
M  V30 16 C -12.128000 1.679000 -18.799000 0
M  V30 17 C -14.064000 2.243000 -19.497000 0
M  V30 18 C -10.736000 1.476000 -18.276000 0 CFG=2
M  V30 19 C -8.166000 4.147000 -17.309000 0 CFG=1
M  V30 20 H -8.589400 -0.299900 -17.904200 0
M  V30 21 H -10.000600 3.356700 -19.017200 0
M  V30 22 H -15.504500 6.228500 -20.354300 0
M  V30 23 H -16.075500 5.064900 -21.347700 0
M  V30 24 H -16.659100 5.200300 -19.828600 0
M  V30 25 H -9.519300 5.710000 -17.537300 0
M  V30 26 H -8.034800 6.056700 -18.122700 0
M  V30 27 H -9.032400 5.070800 -18.959000 0
M  V30 28 H -6.602000 2.817800 -17.607700 0
M  V30 29 H -7.281700 3.334000 -18.999900 0
M  V30 30 H -6.284000 4.319900 -18.163600 0
M  V30 31 H -7.310100 3.813500 -15.432700 0
M  V30 32 H -6.982300 5.297900 -16.029000 0
M  V30 33 H -8.459400 4.973500 -15.412900 0
M  V30 34 H -10.439300 -0.463200 -18.968300 0
M  V30 35 H -10.023500 0.677700 -20.060100 0
M  V30 36 H -14.872400 0.294500 -19.626100 0
M  V30 37 H -10.807000 1.139400 -17.337000 0
M  V30 END ATOM
M  V30 BEGIN BOND
M  V30 1 1 1 12
M  V30 2 2 2 14
M  V30 3 2 3 15
M  V30 4 1 4 8
M  V30 5 1 4 14
M  V30 6 1 5 13
M  V30 7 1 5 16
M  V30 8 1 6 15
M  V30 9 1 6 18
M  V30 10 2 7 16
M  V30 11 1 7 17
M  V30 12 1 9 19
M  V30 13 1 10 19
M  V30 14 1 11 19
M  V30 15 1 12 18
M  V30 16 2 13 17
M  V30 17 1 14 17
M  V30 18 1 19 15 CFG=1
M  V30 19 1 16 18
M  V30 20 1 1 20
M  V30 21 1 6 21
M  V30 22 1 8 22 CFG=3
M  V30 23 1 8 23
M  V30 24 1 8 24
M  V30 25 1 9 25 CFG=1
M  V30 26 1 9 26
M  V30 27 1 9 27
M  V30 28 1 10 28 CFG=1
M  V30 29 1 10 29
M  V30 30 1 10 30
M  V30 31 1 11 31 CFG=1
M  V30 32 1 11 32
M  V30 33 1 11 33
M  V30 34 1 12 34 CFG=3
M  V30 35 1 12 35
M  V30 36 1 13 36
M  V30 37 1 18 37 CFG=1
M  V30 END BOND
M  V30 END CTAB
M  END
>  <Ligand_Instance>  (30) 
186_A_402

>  <Dataset>  (30) 
CF

>  <PDB_ID>  (30) 
None

>  <Chain>  (30) 
A

>  <Resi>  (30) 
402

>  <Num_Resolved_Atoms>  (30) 
19

>  <Num_H_Atoms_ProtBoundConf>  (30) 
18

>  <Pocket>  (30) 
A

>  <SMILES>  (30) 
CC(C)(C)C(N[C@H](CO)c1nc(C(OC)=O)c[o]1)=O

>  <Name>  (30) 
methyl 2‐[(1R)‐1‐(2,2‐dimethylpropanamido)‐2‐hydroxyethyl]‐1,3‐oxazole‐4‐carboxylate

>  <Num_Heavy_Atoms>  (30) 
19

>  <Num_Not_Resolved_Atoms>  (30) 
0

>  <ATP_Site>  (30) 
True

>  <Peripheral>  (30) 
False

>  <Standardized_SMILES>  (30) 
[H]OC([H])([H])[C@]([H])(C1=NC(C(=O)OC([H])([H])[H])=C([H])O1)N([H])C(=O)C(C([H])([H])[H])(C([H])([H])[H])C([H])([H])[H]

$$$$
F188
     RDKit          3D

  0  0  0  0  0  0  0  0  0  0999 V3000
M  V30 BEGIN CTAB
M  V30 COUNTS 37 38 0 0 0
M  V30 BEGIN ATOM
M  V30 1 Cl -16.381000 17.950000 -36.520000 0
M  V30 2 O -18.462000 15.343000 -41.141000 0
M  V30 3 O -17.025000 16.531000 -42.394000 0 CHG=-1
M  V30 4 O -22.060000 19.636000 -40.686000 0
M  V30 5 N -22.518000 17.446000 -40.179000 0
M  V30 6 N -20.510000 17.097000 -42.304000 0 CFG=1 CHG=1
M  V30 7 C -23.860000 17.659000 -39.688000 0 CFG=1
M  V30 8 C -21.210000 17.961000 -43.298000 0 CFG=2
M  V30 9 C -20.340000 18.091000 -44.543000 0 CFG=2
M  V30 10 C -18.622000 17.060000 -37.746000 0
M  V30 11 C -17.327000 18.612000 -38.882000 0
M  V30 12 C -18.979000 17.579000 -44.075000 0 CFG=2
M  V30 13 C -19.525000 17.012000 -38.761000 0
M  V30 14 C -18.218000 18.562000 -39.870000 0
M  V30 15 C -18.148000 16.165000 -42.184000 0
M  V30 16 C -21.678000 18.464000 -40.641000 0
M  V30 17 C -17.532000 17.855000 -37.794000 0
M  V30 18 C -19.345000 16.529000 -43.025000 0 CFG=1
M  V30 19 C -20.244000 18.009000 -41.146000 0 CFG=1
M  V30 20 C -19.327000 17.787000 -39.878000 0
M  V30 21 H -22.167000 16.509700 -40.189100 0
M  V30 22 H -24.258400 16.783000 -39.416100 0
M  V30 23 H -23.832700 18.272200 -38.898500 0
M  V30 24 H -24.417800 18.069200 -40.409600 0
M  V30 25 H -21.367600 18.866100 -42.903200 0
M  V30 26 H -22.086600 17.547100 -43.543400 0
M  V30 27 H -20.281200 19.043700 -44.841200 0
M  V30 28 H -20.696700 17.529400 -45.289600 0
M  V30 29 H -18.769700 16.488700 -36.938700 0
M  V30 30 H -16.522000 19.201400 -38.949700 0
M  V30 31 H -18.437500 18.316500 -43.671500 0
M  V30 32 H -18.470700 17.167900 -44.831700 0
M  V30 33 H -20.326500 16.417700 -38.695200 0
M  V30 34 H -18.054900 19.142200 -40.668000 0
M  V30 35 H -19.648900 15.705300 -43.503800 0
M  V30 36 H -19.868200 18.832200 -41.571500 0
M  V30 37 H -21.118400 16.357700 -42.015400 0
M  V30 END ATOM
M  V30 BEGIN BOND
M  V30 1 1 1 17
M  V30 2 2 2 15
M  V30 3 1 3 15
M  V30 4 2 4 16
M  V30 5 1 5 7
M  V30 6 1 5 16
M  V30 7 1 6 8
M  V30 8 1 6 18
M  V30 9 1 6 19
M  V30 10 1 8 9
M  V30 11 1 9 12
M  V30 12 2 10 13
M  V30 13 1 10 17
M  V30 14 1 11 14
M  V30 15 2 11 17
M  V30 16 1 12 18
M  V30 17 1 13 20
M  V30 18 2 14 20
M  V30 19 1 15 18
M  V30 20 1 16 19
M  V30 21 1 19 20
M  V30 22 1 19 36 CFG=3
M  V30 23 1 5 21
M  V30 24 1 7 22 CFG=1
M  V30 25 1 7 23
M  V30 26 1 7 24
M  V30 27 1 8 25 CFG=1
M  V30 28 1 8 26
M  V30 29 1 9 27 CFG=3
M  V30 30 1 9 28
M  V30 31 1 10 29
M  V30 32 1 11 30
M  V30 33 1 12 31 CFG=1
M  V30 34 1 12 32
M  V30 35 1 13 33
M  V30 36 1 14 34
M  V30 37 1 18 35 CFG=3
M  V30 38 1 6 37 CFG=1
M  V30 END BOND
M  V30 END CTAB
M  END
>  <Ligand_Instance>  (31) 
188_A_401

>  <Dataset>  (31) 
CF

>  <PDB_ID>  (31) 
None

>  <Chain>  (31) 
A

>  <Resi>  (31) 
401

>  <Num_Resolved_Atoms>  (31) 
20

>  <Num_H_Atoms_ProtBoundConf>  (31) 
17

>  <Pocket>  (31) 
X

>  <SMILES>  (31) 
CNC([C@@H](c(cc1)ccc1Cl)N(CCC1)[C@@H]1C(O)=O)=O

>  <Name>  (31) 
(2S)‐1‐[(R)‐(4‐chlorophenyl)(methylcarbamoyl)methyl]pyrrolidine‐2‐carboxylic acid

>  <Num_Heavy_Atoms>  (31) 
20

>  <Num_Not_Resolved_Atoms>  (31) 
0

>  <ATP_Site>  (31) 
False

>  <Peripheral>  (31) 
True

>  <Standardized_SMILES>  (31) 
[H]C1=C([H])C([C@]([H])(C(=O)N([H])C([H])([H])[H])[N@@+]2([H])C([H])([H])C([H])([H])C([H])([H])[C@@]2([H])C(=O)[O-])=C([H])C([H])=C1Cl

$$$$
F188
     RDKit          3D

  0  0  0  0  0  0  0  0  0  0999 V3000
M  V30 BEGIN CTAB
M  V30 COUNTS 37 38 0 0 0
M  V30 BEGIN ATOM
M  V30 1 Cl -7.332000 7.054000 -13.092000 0
M  V30 2 O -7.615000 -0.348000 -18.679000 0
M  V30 3 O -6.188000 0.290000 -17.083000 0 CHG=-1
M  V30 4 O -9.266000 2.292000 -17.796000 0
M  V30 5 N -9.942000 4.266000 -18.769000 0
M  V30 6 N -6.403000 2.994000 -18.202000 0 CFG=2 CHG=1
M  V30 7 C -9.747000 5.610000 -19.251000 0 CFG=1
M  V30 8 C -5.068000 3.558000 -18.482000 0 CFG=2
M  V30 9 C -4.632000 2.944000 -19.810000 0 CFG=2
M  V30 10 C -7.352000 4.718000 -14.430000 0
M  V30 11 C -7.421000 6.719000 -15.637000 0
M  V30 12 C -5.427000 1.662000 -19.974000 0 CFG=2
M  V30 13 C -7.409000 3.999000 -15.555000 0
M  V30 14 C -7.460000 6.019000 -16.764000 0
M  V30 15 C -6.746000 0.536000 -18.140000 0
M  V30 16 C -8.981000 3.419000 -18.205000 0
M  V30 17 C -7.371000 6.061000 -14.483000 0
M  V30 18 C -6.614000 1.775000 -19.016000 0 CFG=1
M  V30 19 C -7.516000 3.983000 -18.091000 0 CFG=1
M  V30 20 C -7.461000 4.673000 -16.741000 0
M  V30 21 H -10.868200 3.897000 -18.846200 0
M  V30 22 H -10.613100 5.968000 -19.599800 0
M  V30 23 H -9.424300 6.189100 -18.502300 0
M  V30 24 H -9.068200 5.605600 -19.985300 0
M  V30 25 H -4.425900 3.311500 -17.756100 0
M  V30 26 H -5.118900 4.553800 -18.558000 0
M  V30 27 H -3.652500 2.743200 -19.792700 0
M  V30 28 H -4.830200 3.572000 -20.562500 0
M  V30 29 H -7.295000 4.255200 -13.545400 0
M  V30 30 H -7.429000 7.718800 -15.655600 0
M  V30 31 H -4.863200 0.871000 -19.736500 0
M  V30 32 H -5.748800 1.571100 -20.916400 0
M  V30 33 H -7.413400 2.999400 -15.528900 0
M  V30 34 H -7.489000 6.497600 -17.641500 0
M  V30 35 H -7.452000 1.884000 -19.550600 0
M  V30 36 H -7.391200 4.675500 -18.801600 0
M  V30 37 H -6.314400 2.639000 -17.271300 0
M  V30 END ATOM
M  V30 BEGIN BOND
M  V30 1 1 1 17
M  V30 2 2 2 15
M  V30 3 1 3 15
M  V30 4 2 4 16
M  V30 5 1 5 7
M  V30 6 1 5 16
M  V30 7 1 6 8
M  V30 8 1 6 18
M  V30 9 1 6 19
M  V30 10 1 8 9
M  V30 11 1 9 12
M  V30 12 2 10 13
M  V30 13 1 10 17
M  V30 14 1 11 14
M  V30 15 2 11 17
M  V30 16 1 12 18
M  V30 17 1 13 20
M  V30 18 2 14 20
M  V30 19 1 15 18
M  V30 20 1 16 19
M  V30 21 1 19 20
M  V30 22 1 19 36 CFG=3
M  V30 23 1 5 21
M  V30 24 1 7 22 CFG=3
M  V30 25 1 7 23
M  V30 26 1 7 24
M  V30 27 1 8 25 CFG=1
M  V30 28 1 8 26
M  V30 29 1 9 27 CFG=1
M  V30 30 1 9 28
M  V30 31 1 10 29
M  V30 32 1 11 30
M  V30 33 1 12 31 CFG=1
M  V30 34 1 12 32
M  V30 35 1 13 33
M  V30 36 1 14 34
M  V30 37 1 18 35 CFG=3
M  V30 38 1 6 37 CFG=1
M  V30 END BOND
M  V30 END CTAB
M  END
>  <Ligand_Instance>  (32) 
188_A_501

>  <Dataset>  (32) 
CF

>  <PDB_ID>  (32) 
None

>  <Chain>  (32) 
A

>  <Resi>  (32) 
501

>  <Num_Resolved_Atoms>  (32) 
20

>  <Num_H_Atoms_ProtBoundConf>  (32) 
17

>  <Pocket>  (32) 
X

>  <SMILES>  (32) 
CNC([C@@H](c(cc1)ccc1Cl)N(CCC1)[C@@H]1C(O)=O)=O

>  <Name>  (32) 
(2S)‐1‐[(R)‐(4‐chlorophenyl)(methylcarbamoyl)methyl]pyrrolidine‐2‐carboxylic acid

>  <Num_Heavy_Atoms>  (32) 
20

>  <Num_Not_Resolved_Atoms>  (32) 
0

>  <ATP_Site>  (32) 
False

>  <Peripheral>  (32) 
True

>  <Standardized_SMILES>  (32) 
[H]C1=C([H])C([C@]([H])(C(=O)N([H])C([H])([H])[H])[N@+]2([H])C([H])([H])C([H])([H])C([H])([H])[C@@]2([H])C(=O)[O-])=C([H])C([H])=C1Cl

$$$$
F189
     RDKit          3D

  0  0  0  0  0  0  0  0  0  0999 V3000
M  V30 BEGIN CTAB
M  V30 COUNTS 36 37 0 0 0
M  V30 BEGIN ATOM
M  V30 1 S -19.058000 -0.989000 0.729000 0 CFG=1
M  V30 2 O -17.831000 -0.384000 0.274000 0
M  V30 3 O -20.304000 -0.287000 0.551000 0
M  V30 4 O -19.876000 -3.651000 -2.702000 0
M  V30 5 O -23.098000 -2.819000 -0.024000 0
M  V30 6 O -20.601000 -5.156000 -0.252000 0
M  V30 7 N -19.410000 -2.346000 -0.182000 0
M  V30 8 C -18.616000 -2.944000 6.370000 0 CFG=1
M  V30 9 C -21.054000 -4.427000 -2.570000 0 CFG=2
M  V30 10 C -20.469000 -4.318000 0.904000 0 CFG=2
M  V30 11 C -17.721000 -1.907000 2.887000 0
M  V30 12 C -20.021000 -1.647000 3.176000 0
M  V30 13 C -17.616000 -2.350000 4.166000 0
M  V30 14 C -19.923000 -2.113000 4.438000 0
M  V30 15 C -18.927000 -1.562000 2.383000 0
M  V30 16 C -21.798000 -3.030000 -0.612000 0 CFG=2
M  V30 17 C -21.545000 -4.449000 -1.130000 0 CFG=2
M  V30 18 C -20.658000 -2.902000 0.401000 0 CFG=2
M  V30 19 C -18.719000 -2.464000 4.950000 0
M  V30 20 H -19.618800 -3.281000 -1.809300 0
M  V30 21 H -23.806100 -3.006000 -0.704900 0
M  V30 22 H -18.667100 -3.012400 -0.118000 0
M  V30 23 H -19.526600 -2.961100 6.783000 0
M  V30 24 H -18.226700 -3.865000 6.383100 0
M  V30 25 H -18.026200 -2.325300 6.889000 0
M  V30 26 H -20.861200 -5.363600 -2.862500 0
M  V30 27 H -21.767800 -4.036500 -3.151300 0
M  V30 28 H -19.562500 -4.425800 1.312100 0
M  V30 29 H -21.168700 -4.544500 1.581600 0
M  V30 30 H -16.903400 -1.835600 2.315700 0
M  V30 31 H -20.911600 -1.361100 2.822200 0
M  V30 32 H -16.718800 -2.594400 4.533900 0
M  V30 33 H -20.745500 -2.200000 5.000000 0
M  V30 34 H -21.658400 -2.374900 -1.354500 0
M  V30 35 H -22.413900 -4.943500 -1.108900 0
M  V30 36 H -20.954800 -2.320600 1.158600 0
M  V30 END ATOM
M  V30 BEGIN BOND
M  V30 1 2 1 2
M  V30 2 2 1 3
M  V30 3 1 1 7 CFG=3
M  V30 4 1 1 15
M  V30 5 1 4 9
M  V30 6 1 5 16
M  V30 7 1 6 10
M  V30 8 1 6 17
M  V30 9 1 7 18
M  V30 10 1 8 19
M  V30 11 1 9 17
M  V30 12 1 10 18
M  V30 13 1 11 13
M  V30 14 2 11 15
M  V30 15 2 12 14
M  V30 16 1 12 15
M  V30 17 2 13 19
M  V30 18 1 14 19
M  V30 19 1 16 17
M  V30 20 1 16 18
M  V30 21 1 4 20
M  V30 22 1 5 21
M  V30 23 1 7 22
M  V30 24 1 8 23 CFG=1
M  V30 25 1 8 24
M  V30 26 1 8 25
M  V30 27 1 9 26 CFG=3
M  V30 28 1 9 27
M  V30 29 1 10 28 CFG=1
M  V30 30 1 10 29
M  V30 31 1 11 30
M  V30 32 1 12 31
M  V30 33 1 13 32
M  V30 34 1 14 33
M  V30 35 1 16 34 CFG=3
M  V30 36 1 17 35 CFG=3
M  V30 37 1 18 36 CFG=1
M  V30 END BOND
M  V30 END CTAB
M  END
>  <Ligand_Instance>  (33) 
189_A_401

>  <Dataset>  (33) 
CF

>  <PDB_ID>  (33) 
None

>  <Chain>  (33) 
A

>  <Resi>  (33) 
401

>  <Num_Resolved_Atoms>  (33) 
19

>  <Num_H_Atoms_ProtBoundConf>  (33) 
17

>  <Pocket>  (33) 
E

>  <SMILES>  (33) 
Cc(cc1)ccc1S(N[C@H](CO[C@@H]1CO)[C@@H]1O)(=O)=O

>  <Name>  (33) 
N‐[(3R,4S,5R)‐4‐hydroxy‐5‐(hydroxymethyl)oxolan‐3‐yl]‐4‐methylbenzene‐1‐sulfonamide

>  <Num_Heavy_Atoms>  (33) 
19

>  <Num_Not_Resolved_Atoms>  (33) 
0

>  <ATP_Site>  (33) 
False

>  <Peripheral>  (33) 
True

>  <Standardized_SMILES>  (33) 
[H]OC([H])([H])[C@@]1([H])OC([H])([H])[C@@]([H])(N([H])S(=O)(=O)C2=C([H])C([H])=C(C([H])([H])[H])C([H])=C2[H])[C@]1([H])O[H]

$$$$
F203
     RDKit          3D

  0  0  0  0  0  0  0  0  0  0999 V3000
M  V30 BEGIN CTAB
M  V30 COUNTS 34 35 0 0 0
M  V30 BEGIN ATOM
M  V30 1 F -16.532000 2.105000 -20.364000 0
M  V30 2 O -11.652000 5.959000 -19.436000 0
M  V30 3 O -7.360000 6.810000 -16.801000 0
M  V30 4 O -8.758000 3.631000 -16.411000 0
M  V30 5 N -5.677000 3.656000 -16.650000 0 CFG=1 CHG=1
M  V30 6 N -10.598000 4.034000 -18.851000 0
M  V30 7 C -7.824000 3.904000 -15.353000 0 CFG=2
M  V30 8 C -9.282000 4.666000 -18.649000 0 CFG=2
M  V30 9 C -15.357000 4.126000 -20.036000 0
M  V30 10 C -14.281000 2.026000 -19.833000 0
M  V30 11 C -14.169000 4.773000 -19.757000 0
M  V30 12 C -13.099000 2.664000 -19.560000 0
M  V30 13 C -15.386000 2.765000 -20.078000 0
M  V30 14 C -11.722000 4.758000 -19.249000 0
M  V30 15 C -7.368000 5.431000 -17.143000 0 CFG=2
M  V30 16 C -8.783000 4.854000 -17.214000 0 CFG=2
M  V30 17 C -6.669000 4.570000 -16.077000 0 CFG=2
M  V30 18 C -13.027000 4.037000 -19.518000 0
M  V30 19 H -6.927700 7.333100 -17.535500 0
M  V30 20 H -4.959500 4.184600 -17.103600 0
M  V30 21 H -5.273400 3.102800 -15.921300 0
M  V30 22 H -10.688500 3.050100 -18.697100 0
M  V30 23 H -7.528900 3.058700 -14.907600 0
M  V30 24 H -8.222600 4.518100 -14.671800 0
M  V30 25 H -9.320100 5.571900 -19.070800 0
M  V30 26 H -8.606700 4.104100 -19.126600 0
M  V30 27 H -16.189700 4.653000 -20.205900 0
M  V30 28 H -14.325300 1.027100 -19.850700 0
M  V30 29 H -14.136800 5.772100 -19.728300 0
M  V30 30 H -12.275800 2.122700 -19.388600 0
M  V30 31 H -6.912500 5.304200 -18.024100 0
M  V30 32 H -9.397100 5.500900 -16.761900 0
M  V30 33 H -6.203300 5.179100 -15.435000 0
M  V30 34 H -6.121300 3.056900 -17.316100 0
M  V30 END ATOM
M  V30 BEGIN BOND
M  V30 1 1 1 13
M  V30 2 2 2 14
M  V30 3 1 3 15
M  V30 4 1 4 7
M  V30 5 1 4 16
M  V30 6 1 5 17
M  V30 7 1 6 8
M  V30 8 1 6 14
M  V30 9 1 7 17
M  V30 10 1 8 16
M  V30 11 1 9 11
M  V30 12 2 9 13
M  V30 13 2 10 12
M  V30 14 1 10 13
M  V30 15 2 11 18
M  V30 16 1 12 18
M  V30 17 1 14 18
M  V30 18 1 15 16
M  V30 19 1 15 17
M  V30 20 1 3 19
M  V30 21 1 5 20 CFG=3
M  V30 22 1 5 21
M  V30 23 1 6 22
M  V30 24 1 7 23 CFG=1
M  V30 25 1 7 24
M  V30 26 1 8 25 CFG=3
M  V30 27 1 8 26
M  V30 28 1 9 27
M  V30 29 1 10 28
M  V30 30 1 11 29
M  V30 31 1 12 30
M  V30 32 1 15 31 CFG=3
M  V30 33 1 16 32 CFG=1
M  V30 34 1 17 33 CFG=1
M  V30 35 1 5 34
M  V30 END BOND
M  V30 END CTAB
M  END
>  <Ligand_Instance>  (34) 
203_B_1

>  <Dataset>  (34) 
CF

>  <PDB_ID>  (34) 
None

>  <Chain>  (34) 
B

>  <Resi>  (34) 
1

>  <Num_Resolved_Atoms>  (34) 
18

>  <Num_H_Atoms_ProtBoundConf>  (34) 
16

>  <Pocket>  (34) 
A

>  <SMILES>  (34) 
N[C@H](CO[C@@H]1CNC(c(cc2)ccc2F)=O)[C@@H]1O

>  <Name>  (34) 
N‐{[(2R,3S,4R)‐4‐amino‐3‐hydroxyoxolan‐2‐yl]methyl}‐4‐fluorobenzamide

>  <Num_Heavy_Atoms>  (34) 
18

>  <Num_Not_Resolved_Atoms>  (34) 
0

>  <ATP_Site>  (34) 
True

>  <Peripheral>  (34) 
False

>  <Standardized_SMILES>  (34) 
[H]O[C@]1([H])[C@@]([H])(C([H])([H])N([H])C(=O)C2=C([H])C([H])=C(F)C([H])=C2[H])OC([H])([H])[C@@]1([H])[N+]([H])([H])[H]

$$$$
F225
     RDKit          3D

  0  0  0  0  0  0  0  0  0  0999 V3000
M  V30 BEGIN CTAB
M  V30 COUNTS 36 37 0 0 0
M  V30 BEGIN ATOM
M  V30 1 O -14.303000 5.600000 -29.644000 0
M  V30 2 O -17.841000 6.087000 -34.266000 0
M  V30 3 O -17.377000 3.674000 -32.347000 0
M  V30 4 N -19.758000 5.107000 -31.281000 0 CFG=1 CHG=1
M  V30 5 N -15.773000 3.871000 -29.940000 0
M  V30 6 N -13.546000 3.421000 -29.489000 0
M  V30 7 C -18.140000 3.844000 -33.550000 0 CFG=2
M  V30 8 C -16.970000 4.723000 -30.160000 0 CFG=2
M  V30 9 C -9.474000 3.697000 -28.514000 0
M  V30 10 C -10.185000 4.833000 -28.860000 0
M  V30 11 C -10.102000 2.477000 -28.536000 0
M  V30 12 C -11.528000 4.767000 -29.188000 0
M  V30 13 C -11.427000 2.406000 -28.874000 0
M  V30 14 C -14.509000 4.384000 -29.664000 0
M  V30 15 C -18.698000 5.236000 -33.484000 0 CFG=1
M  V30 16 C -17.252000 4.966000 -31.649000 0 CFG=2
M  V30 17 C -18.596000 5.606000 -31.995000 0 CFG=2
M  V30 18 C -12.178000 3.540000 -29.192000 0
M  V30 19 H -18.377900 6.838100 -34.650300 0
M  V30 20 H -19.685200 5.351000 -30.314000 0
M  V30 21 H -20.586100 5.514300 -31.666100 0
M  V30 22 H -13.871800 2.480900 -29.589400 0
M  V30 23 H -18.880500 3.173100 -33.590900 0
M  V30 24 H -17.552600 3.741600 -34.352800 0
M  V30 25 H -16.822200 5.605400 -29.713300 0
M  V30 26 H -17.764100 4.272000 -29.752500 0
M  V30 27 H -8.511700 3.764600 -28.250500 0
M  V30 28 H -9.719600 5.718000 -28.873200 0
M  V30 29 H -9.595500 1.645700 -28.306800 0
M  V30 30 H -12.028800 5.600500 -29.421400 0
M  V30 31 H -11.872600 1.511000 -28.893900 0
M  V30 32 H -19.643700 5.269000 -33.807400 0
M  V30 33 H -16.508400 5.499100 -32.052600 0
M  V30 34 H -18.535700 6.599100 -31.894600 0
M  V30 35 H -19.802800 4.112100 -31.371300 0
M  V30 36 H -15.051500 6.237000 -29.828200 0
M  V30 END ATOM
M  V30 BEGIN BOND
M  V30 1 1 1 14
M  V30 2 1 2 15
M  V30 3 1 3 7
M  V30 4 1 3 16
M  V30 5 1 4 17
M  V30 6 1 5 8
M  V30 7 2 5 14
M  V30 8 1 6 14
M  V30 9 1 6 18
M  V30 10 1 7 15
M  V30 11 1 8 16
M  V30 12 2 9 10
M  V30 13 1 9 11
M  V30 14 1 10 12
M  V30 15 2 11 13
M  V30 16 2 12 18
M  V30 17 1 13 18
M  V30 18 1 15 17
M  V30 19 1 16 17
M  V30 20 1 2 19
M  V30 21 1 4 20 CFG=1
M  V30 22 1 4 21
M  V30 23 1 1 36
M  V30 24 1 6 22
M  V30 25 1 7 23 CFG=3
M  V30 26 1 7 24
M  V30 27 1 8 25 CFG=1
M  V30 28 1 8 26
M  V30 29 1 9 27
M  V30 30 1 10 28
M  V30 31 1 11 29
M  V30 32 1 12 30
M  V30 33 1 13 31
M  V30 34 1 15 32 CFG=3
M  V30 35 1 16 33 CFG=3
M  V30 36 1 17 34 CFG=3
M  V30 37 1 4 35
M  V30 END BOND
M  V30 END CTAB
M  END
>  <Ligand_Instance>  (35) 
225_L_401

>  <Dataset>  (35) 
CF

>  <PDB_ID>  (35) 
None

>  <Chain>  (35) 
L

>  <Resi>  (35) 
401

>  <Num_Resolved_Atoms>  (35) 
18

>  <Num_H_Atoms_ProtBoundConf>  (35) 
18

>  <Pocket>  (35) 
A

>  <SMILES>  (35) 
N[C@@H]([C@@H](CNC(Nc1ccccc1)=O)OC1)[C@H]1O

>  <Name>  (35) 
3‐{[(2R,3R,4R)‐3‐amino‐4‐hydroxyoxolan‐2‐yl]methyl}‐1‐phenylurea

>  <Num_Heavy_Atoms>  (35) 
18

>  <Num_Not_Resolved_Atoms>  (35) 
0

>  <ATP_Site>  (35) 
True

>  <Peripheral>  (35) 
True

>  <Standardized_SMILES>  (35) 
[H]O/C(=N\C([H])([H])[C@@]1([H])OC([H])([H])[C@]([H])(O[H])[C@@]1([H])[N+]([H])([H])[H])N([H])C1=C([H])C([H])=C([H])C([H])=C1[H]

$$$$
F225
     RDKit          3D

  0  0  0  0  0  0  0  0  0  0999 V3000
M  V30 BEGIN CTAB
M  V30 COUNTS 36 37 0 0 0
M  V30 BEGIN ATOM
M  V30 1 O -8.369000 -4.192000 -5.553000 0
M  V30 2 O -5.699000 -6.653000 -9.937000 0
M  V30 3 O -5.261000 -7.263000 -6.713000 0
M  V30 4 N -8.029000 -6.218000 -7.157000 0 CFG=1 CHG=1
M  V30 5 N -6.138000 -3.790000 -5.567000 0
M  V30 6 N -7.553000 -1.992000 -5.506000 0
M  V30 7 C -5.548000 -8.010000 -7.922000 0 CFG=2
M  V30 8 C -5.720000 -5.213000 -5.568000 0 CFG=2
M  V30 9 C -10.907000 0.476000 -5.251000 0
M  V30 10 C -11.023000 -0.870000 -5.198000 0
M  V30 11 C -9.658000 1.001000 -5.388000 0
M  V30 12 C -9.908000 -1.663000 -5.303000 0
M  V30 13 C -8.554000 0.211000 -5.463000 0
M  V30 14 C -7.450000 -3.388000 -5.522000 0
M  V30 15 C -6.421000 -7.123000 -8.789000 0 CFG=1
M  V30 16 C -5.541000 -5.867000 -6.953000 0 CFG=2
M  V30 17 C -6.776000 -5.963000 -7.856000 0 CFG=2
M  V30 18 C -8.651000 -1.143000 -5.442000 0
M  V30 19 H -5.011400 -7.330300 -10.198600 0
M  V30 20 H -8.237900 -5.447100 -6.555300 0
M  V30 21 H -8.765900 -6.329700 -7.823700 0
M  V30 22 H -5.427600 -3.087100 -5.600800 0
M  V30 23 H -6.673500 -1.518100 -5.548500 0
M  V30 24 H -6.032300 -8.855600 -7.697300 0
M  V30 25 H -4.698000 -8.229800 -8.400700 0
M  V30 26 H -6.412900 -5.735200 -5.070900 0
M  V30 27 H -4.846200 -5.275000 -5.085700 0
M  V30 28 H -11.711800 1.066500 -5.191600 0
M  V30 29 H -11.923700 -1.288700 -5.082000 0
M  V30 30 H -9.549900 1.994000 -5.434700 0
M  V30 31 H -10.018700 -2.656500 -5.276900 0
M  V30 32 H -7.651700 0.636100 -5.535100 0
M  V30 33 H -7.246800 -7.611700 -9.070400 0
M  V30 34 H -4.782500 -5.439200 -7.444700 0
M  V30 35 H -6.860800 -5.122300 -8.390900 0
M  V30 36 H -7.943000 -7.052200 -6.612300 0
M  V30 END ATOM
M  V30 BEGIN BOND
M  V30 1 2 1 14
M  V30 2 1 2 15
M  V30 3 1 3 7
M  V30 4 1 3 16
M  V30 5 1 4 17
M  V30 6 1 5 8
M  V30 7 1 5 14
M  V30 8 1 6 14
M  V30 9 1 6 18
M  V30 10 1 7 15
M  V30 11 1 8 16
M  V30 12 2 9 10
M  V30 13 1 9 11
M  V30 14 1 10 12
M  V30 15 2 11 13
M  V30 16 2 12 18
M  V30 17 1 13 18
M  V30 18 1 15 17
M  V30 19 1 16 17
M  V30 20 1 2 19
M  V30 21 1 4 20 CFG=1
M  V30 22 1 4 21
M  V30 23 1 5 22
M  V30 24 1 6 23
M  V30 25 1 7 24 CFG=1
M  V30 26 1 7 25
M  V30 27 1 8 26 CFG=1
M  V30 28 1 8 27
M  V30 29 1 9 28
M  V30 30 1 10 29
M  V30 31 1 11 30
M  V30 32 1 12 31
M  V30 33 1 13 32
M  V30 34 1 15 33 CFG=3
M  V30 35 1 16 34 CFG=3
M  V30 36 1 17 35 CFG=3
M  V30 37 1 4 36
M  V30 END BOND
M  V30 END CTAB
M  END
>  <Ligand_Instance>  (36) 
225_L_501

>  <Dataset>  (36) 
CF

>  <PDB_ID>  (36) 
None

>  <Chain>  (36) 
L

>  <Resi>  (36) 
501

>  <Num_Resolved_Atoms>  (36) 
18

>  <Num_H_Atoms_ProtBoundConf>  (36) 
18

>  <Pocket>  (36) 
X

>  <SMILES>  (36) 
N[C@@H]([C@@H](CNC(Nc1ccccc1)=O)OC1)[C@H]1O

>  <Name>  (36) 
3‐{[(2R,3R,4R)‐3‐amino‐4‐hydroxyoxolan‐2‐yl]methyl}‐1‐phenylurea

>  <Num_Heavy_Atoms>  (36) 
18

>  <Num_Not_Resolved_Atoms>  (36) 
0

>  <ATP_Site>  (36) 
True

>  <Peripheral>  (36) 
True

>  <Standardized_SMILES>  (36) 
[H]O[C@@]1([H])C([H])([H])O[C@]([H])(C([H])([H])N([H])C(=O)N([H])C2=C([H])C([H])=C([H])C([H])=C2[H])[C@]1([H])[N+]([H])([H])[H]

$$$$
F236
     RDKit          3D

  0  0  0  0  0  0  0  0  0  0999 V3000
M  V30 BEGIN CTAB
M  V30 COUNTS 36 37 0 0 0
M  V30 BEGIN ATOM
M  V30 1 S -5.710000 7.127000 -13.252000 0 CFG=1
M  V30 2 O -4.464000 6.787000 -12.533000 0
M  V30 3 O -6.919000 7.382000 -12.482000 0
M  V30 4 O -5.689000 0.125000 -16.942000 0
M  V30 5 O -7.084000 2.789000 -16.831000 0
M  V30 6 N -6.794000 0.508000 -19.650000 0 CFG=2 CHG=1
M  V30 7 C -5.408000 8.516000 -14.296000 0 CFG=1
M  V30 8 C -5.634000 -0.878000 -17.929000 0 CFG=2
M  V30 9 C -5.167000 1.385000 -17.338000 0 CFG=2
M  V30 10 C -6.768000 -0.768000 -18.942000 0 CFG=2
M  V30 11 C -7.262000 1.575000 -18.802000 0 CFG=2
M  V30 12 C -7.242000 5.187000 -14.231000 0
M  V30 13 C -5.175000 5.464000 -15.348000 0
M  V30 14 C -7.556000 4.186000 -15.052000 0
M  V30 15 C -5.506000 4.448000 -16.200000 0
M  V30 16 C -6.060000 5.826000 -14.365000 0
M  V30 17 C -6.266000 2.321000 -17.891000 0 CFG=1
M  V30 18 C -6.709000 3.812000 -16.021000 0
M  V30 19 H -7.403500 0.429200 -20.438900 0
M  V30 20 H -6.246600 8.752900 -14.786600 0
M  V30 21 H -5.116200 9.294000 -13.739600 0
M  V30 22 H -4.689900 8.288700 -14.953800 0
M  V30 23 H -5.689800 -1.770600 -17.481700 0
M  V30 24 H -4.762900 -0.802200 -18.414200 0
M  V30 25 H -4.478900 1.240100 -18.049000 0
M  V30 26 H -4.740700 1.821000 -16.545500 0
M  V30 27 H -6.664200 -1.501000 -19.614300 0
M  V30 28 H -7.636300 -0.879600 -18.458600 0
M  V30 29 H -7.963800 1.184900 -18.205900 0
M  V30 30 H -7.676500 2.260400 -19.400700 0
M  V30 31 H -7.882100 5.465400 -13.514900 0
M  V30 32 H -4.298900 5.937300 -15.440200 0
M  V30 33 H -8.429200 3.710600 -14.944600 0
M  V30 34 H -4.886700 4.174600 -16.936000 0
M  V30 35 H -5.855100 3.090400 -18.380100 0
M  V30 36 H -5.869300 0.724200 -19.963500 0
M  V30 END ATOM
M  V30 BEGIN BOND
M  V30 1 2 1 2
M  V30 2 2 1 3
M  V30 3 1 1 7
M  V30 4 1 1 16 CFG=3
M  V30 5 1 4 8
M  V30 6 1 4 9
M  V30 7 1 5 17
M  V30 8 1 5 18
M  V30 9 1 6 10
M  V30 10 1 6 11
M  V30 11 1 8 10
M  V30 12 1 9 17
M  V30 13 1 11 17
M  V30 14 2 12 14
M  V30 15 1 12 16
M  V30 16 1 13 15
M  V30 17 2 13 16
M  V30 18 1 14 18
M  V30 19 2 15 18
M  V30 20 1 6 19 CFG=3
M  V30 21 1 7 20 CFG=3
M  V30 22 1 7 21
M  V30 23 1 7 22
M  V30 24 1 8 23 CFG=1
M  V30 25 1 8 24
M  V30 26 1 9 25 CFG=3
M  V30 27 1 9 26
M  V30 28 1 10 27 CFG=3
M  V30 29 1 10 28
M  V30 30 1 11 29 CFG=1
M  V30 31 1 11 30
M  V30 32 1 12 31
M  V30 33 1 13 32
M  V30 34 1 14 33
M  V30 35 1 15 34
M  V30 36 1 17 35 CFG=3
M  V30 37 1 6 36
M  V30 END BOND
M  V30 END CTAB
M  END
>  <Ligand_Instance>  (37) 
236_L_401

>  <Dataset>  (37) 
CF

>  <PDB_ID>  (37) 
None

>  <Chain>  (37) 
L

>  <Resi>  (37) 
401

>  <Num_Resolved_Atoms>  (37) 
18

>  <Num_H_Atoms_ProtBoundConf>  (37) 
18

>  <Pocket>  (37) 
X

>  <SMILES>  (37) 
CS(c(cc1)ccc1O[C@H]1COCCNC1)(=O)=O

>  <Name>  (37) 
(6R)‐6‐(4‐methanesulfonylphenoxy)‐1,4‐oxazepane

>  <Num_Heavy_Atoms>  (37) 
18

>  <Num_Not_Resolved_Atoms>  (37) 
0

>  <ATP_Site>  (37) 
False

>  <Peripheral>  (37) 
True

>  <Standardized_SMILES>  (37) 
[H]C1=C([H])C(S(=O)(=O)C([H])([H])[H])=C([H])C([H])=C1O[C@@]1([H])C([H])([H])OC([H])([H])C([H])([H])[N+]([H])([H])C1([H])[H]

$$$$
F248
     RDKit          3D

  0  0  0  0  0  0  0  0  0  0999 V3000
M  V30 BEGIN CTAB
M  V30 COUNTS 32 34 0 0 0
M  V30 BEGIN ATOM
M  V30 1 O -4.417000 3.161000 -21.099000 0
M  V30 2 O -10.780000 5.476000 -18.881000 0
M  V30 3 O -4.621000 5.295000 -20.296000 0
M  V30 4 N -9.188000 4.363000 -20.101000 0
M  V30 5 N -6.405000 3.957000 -20.184000 0
M  V30 6 C -5.776000 6.119000 -20.105000 0 CFG=2
M  V30 7 C -8.645000 3.182000 -20.811000 0 CFG=2
M  V30 8 C -7.256000 2.792000 -20.294000 0 CFG=2
M  V30 9 C -12.982000 1.124000 -19.092000 0
M  V30 10 C -13.425000 2.243000 -19.707000 0
M  V30 11 C -11.727000 1.074000 -18.607000 0
M  V30 12 C -8.303000 5.546000 -20.120000 0 CFG=2
M  V30 13 C -12.620000 3.328000 -19.824000 0
M  V30 14 C -10.923000 2.153000 -18.718000 0
M  V30 15 C -5.085000 4.040000 -20.580000 0
M  V30 16 C -10.421000 4.445000 -19.434000 0
M  V30 17 C -6.873000 5.193000 -19.618000 0 CFG=1
M  V30 18 C -11.356000 3.274000 -19.348000 0
M  V30 19 H -6.042100 6.549800 -20.967300 0
M  V30 20 H -5.589600 6.826000 -19.422800 0
M  V30 21 H -8.579200 3.393300 -21.786200 0
M  V30 22 H -9.267500 2.410700 -20.678300 0
M  V30 23 H -7.348400 2.366900 -19.393600 0
M  V30 24 H -6.840400 2.140800 -20.929000 0
M  V30 25 H -13.586500 0.333000 -18.997200 0
M  V30 26 H -14.353000 2.271000 -20.078400 0
M  V30 27 H -11.391800 0.241200 -18.166400 0
M  V30 28 H -8.690800 6.252100 -19.527500 0
M  V30 29 H -8.243000 5.892500 -21.056100 0
M  V30 30 H -12.959000 4.162000 -20.259300 0
M  V30 31 H -10.000600 2.125700 -18.332700 0
M  V30 32 H -6.861600 5.140700 -18.619400 0
M  V30 END ATOM
M  V30 BEGIN BOND
M  V30 1 2 1 15
M  V30 2 2 2 16
M  V30 3 1 3 6
M  V30 4 1 3 15
M  V30 5 1 4 7
M  V30 6 1 4 12
M  V30 7 1 4 16
M  V30 8 1 5 8
M  V30 9 1 5 15
M  V30 10 1 5 17
M  V30 11 1 6 17
M  V30 12 1 7 8
M  V30 13 2 9 10
M  V30 14 1 9 11
M  V30 15 1 10 13
M  V30 16 2 11 14
M  V30 17 1 12 17
M  V30 18 2 13 18
M  V30 19 1 14 18
M  V30 20 1 16 18
M  V30 21 1 6 19 CFG=3
M  V30 22 1 6 20
M  V30 23 1 7 21 CFG=3
M  V30 24 1 7 22
M  V30 25 1 8 23 CFG=1
M  V30 26 1 8 24
M  V30 27 1 9 25
M  V30 28 1 10 26
M  V30 29 1 11 27
M  V30 30 1 12 28 CFG=1
M  V30 31 1 12 29
M  V30 32 1 13 30
M  V30 33 1 14 31
M  V30 34 1 17 32 CFG=1
M  V30 END BOND
M  V30 END CTAB
M  END
>  <Ligand_Instance>  (38) 
248_B_1

>  <Dataset>  (38) 
CF

>  <PDB_ID>  (38) 
None

>  <Chain>  (38) 
B

>  <Resi>  (38) 
1

>  <Num_Resolved_Atoms>  (38) 
18

>  <Num_H_Atoms_ProtBoundConf>  (38) 
14

>  <Pocket>  (38) 
A

>  <SMILES>  (38) 
O=C(c1ccccc1)N(CC1)C[C@H](CO2)N1C2=O

>  <Name>  (38) 
(8aR)‐7‐benzoyl‐hexahydro‐1H‐[1,3]oxazolo[3,4‐a]pyrazin‐3‐one

>  <Num_Heavy_Atoms>  (38) 
18

>  <Num_Not_Resolved_Atoms>  (38) 
0

>  <ATP_Site>  (38) 
True

>  <Peripheral>  (38) 
True

>  <Standardized_SMILES>  (38) 
[H]C1=C([H])C([H])=C(C(=O)N2C([H])([H])C([H])([H])N3C(=O)OC([H])([H])[C@@]3([H])C2([H])[H])C([H])=C1[H]

$$$$
F264
     RDKit          3D

  0  0  0  0  0  0  0  0  0  0999 V3000
M  V30 BEGIN CTAB
M  V30 COUNTS 38 40 0 0 0
M  V30 BEGIN ATOM
M  V30 1 F -8.578000 2.176000 -40.921000 0
M  V30 2 O -4.330000 -1.466000 -45.010000 0
M  V30 3 O -6.331000 1.955000 -48.571000 0
M  V30 4 N -5.973000 -2.217000 -46.415000 0
M  V30 5 N -5.247000 -0.060000 -46.528000 0
M  V30 6 N -8.680000 2.128000 -45.750000 0
M  V30 7 N -6.383000 2.429000 -45.858000 0
M  V30 8 C -6.722000 -4.490000 -46.715000 0 CFG=1
M  V30 9 C -5.926000 -3.559000 -45.853000 0 CFG=2
M  V30 10 C -7.686000 2.221000 -48.109000 0 CFG=2
M  V30 11 C -5.331000 2.809000 -47.978000 0 CFG=2
M  V30 12 C -4.418000 1.092000 -46.180000 0 CFG=2
M  V30 13 C -6.658000 2.412000 -42.197000 0
M  V30 14 C -6.024000 2.464000 -43.384000 0
M  V30 15 C -8.787000 2.141000 -43.257000 0
M  V30 16 C -5.116000 -1.273000 -45.925000 0
M  V30 17 C -8.018000 2.246000 -42.165000 0
M  V30 18 C -7.640000 2.225000 -46.620000 0
M  V30 19 C -8.145000 2.184000 -44.452000 0
M  V30 20 C -5.069000 2.482000 -46.480000 0 CFG=2
M  V30 21 C -6.787000 2.342000 -44.472000 0
M  V30 22 H -6.618900 -1.991000 -47.144200 0
M  V30 23 H -5.940700 0.047600 -47.240200 0
M  V30 24 H -6.689500 -5.411800 -46.328600 0
M  V30 25 H -7.671400 -4.178300 -46.754200 0
M  V30 26 H -6.336600 -4.501500 -47.637700 0
M  V30 27 H -6.311500 -3.547600 -44.930300 0
M  V30 28 H -4.976700 -3.870800 -45.813800 0
M  V30 29 H -8.306500 1.506500 -48.432300 0
M  V30 30 H -7.996500 3.109800 -48.446200 0
M  V30 31 H -5.638800 3.757800 -48.048600 0
M  V30 32 H -4.475400 2.697600 -48.483500 0
M  V30 33 H -3.565000 1.029500 -46.698200 0
M  V30 34 H -4.217600 1.046900 -45.201300 0
M  V30 35 H -6.140300 2.493900 -41.345400 0
M  V30 36 H -5.033600 2.587500 -43.446800 0
M  V30 37 H -9.779600 2.036700 -43.195000 0
M  V30 38 H -4.524400 3.209800 -46.063100 0
M  V30 END ATOM
M  V30 BEGIN BOND
M  V30 1 1 1 17
M  V30 2 2 2 16
M  V30 3 1 3 10
M  V30 4 1 3 11
M  V30 5 1 4 9
M  V30 6 1 4 16
M  V30 7 1 5 12
M  V30 8 1 5 16
M  V30 9 2 6 18
M  V30 10 1 6 19
M  V30 11 1 7 18
M  V30 12 1 7 20
M  V30 13 1 7 21
M  V30 14 1 8 9
M  V30 15 1 10 18
M  V30 16 1 11 20
M  V30 17 1 12 20
M  V30 18 1 13 14
M  V30 19 2 13 17
M  V30 20 2 14 21
M  V30 21 1 15 17
M  V30 22 2 15 19
M  V30 23 1 19 21
M  V30 24 1 4 22
M  V30 25 1 5 23
M  V30 26 1 8 24 CFG=1
M  V30 27 1 8 25
M  V30 28 1 8 26
M  V30 29 1 9 27 CFG=1
M  V30 30 1 9 28
M  V30 31 1 10 29 CFG=1
M  V30 32 1 10 30
M  V30 33 1 11 31 CFG=1
M  V30 34 1 11 32
M  V30 35 1 12 33 CFG=3
M  V30 36 1 12 34
M  V30 37 1 13 35
M  V30 38 1 14 36
M  V30 39 1 15 37
M  V30 40 1 20 38 CFG=1
M  V30 END BOND
M  V30 END CTAB
M  END
>  <Ligand_Instance>  (39) 
264_B_3

>  <Dataset>  (39) 
CF

>  <PDB_ID>  (39) 
None

>  <Chain>  (39) 
B

>  <Resi>  (39) 
3

>  <Num_Resolved_Atoms>  (39) 
21

>  <Num_H_Atoms_ProtBoundConf>  (39) 
17

>  <Pocket>  (39) 
F

>  <SMILES>  (39) 
CCNC(NC[C@@H]1[n]2c(ccc(F)c3)c3nc2COC1)=O

>  <Name>  (39) 
3‐ethyl‐1‐{[(13S)‐5‐fluoro‐11-oxa-1.8-diazatricyclo[7.4.0.0]trideca-2,4,6,8-tetraen-13-yl]methyl}urea

>  <Num_Heavy_Atoms>  (39) 
21

>  <Num_Not_Resolved_Atoms>  (39) 
0

>  <ATP_Site>  (39) 
True

>  <Peripheral>  (39) 
True

>  <Standardized_SMILES>  (39) 
[H]C1=C(F)C([H])=C2N=C3N(C2=C1[H])[C@@]([H])(C([H])([H])N([H])C(=O)N([H])C([H])([H])C([H])([H])[H])C([H])([H])OC3([H])[H]

$$$$
F274
     RDKit          3D

  0  0  0  0  0  0  0  0  0  0999 V3000
M  V30 BEGIN CTAB
M  V30 COUNTS 36 37 0 0 0
M  V30 BEGIN ATOM
M  V30 1 O -9.406000 6.508000 -18.083000 0
M  V30 2 N -7.450000 1.406000 -19.484000 0 CFG=2 CHG=1
M  V30 3 N -11.876000 2.902000 -19.317000 0
M  V30 4 N -9.807000 4.018000 -19.455000 0
M  V30 5 C -10.342000 4.795000 -20.562000 0 CFG=1
M  V30 6 C -14.156000 1.929000 -19.342000 0 CFG=1
M  V30 7 C -8.418000 5.976000 -18.976000 0 CFG=2
M  V30 8 C -7.579000 2.497000 -20.454000 0 CFG=2
M  V30 9 C -8.442000 1.345000 -18.382000 0 CFG=2
M  V30 10 C -7.340000 3.871000 -19.845000 0 CFG=2
M  V30 11 C -12.098000 0.692000 -18.639000 0
M  V30 12 C -10.763000 0.644000 -18.463000 0
M  V30 13 C -10.501000 2.814000 -19.107000 0
M  V30 14 C -12.682000 1.811000 -19.099000 0
M  V30 15 C -8.496000 4.455000 -19.015000 0 CFG=2
M  V30 16 C -9.907000 1.679000 -18.652000 0
M  V30 17 H -9.340600 7.505800 -18.069700 0
M  V30 18 H -6.544200 1.481900 -19.067200 0
M  V30 19 H -9.774000 5.605400 -20.705700 0
M  V30 20 H -10.342200 4.236800 -21.391700 0
M  V30 21 H -11.277600 5.077100 -20.349800 0
M  V30 22 H -14.598300 1.055400 -19.138900 0
M  V30 23 H -14.535500 2.640300 -18.750300 0
M  V30 24 H -14.317800 2.170000 -20.298900 0
M  V30 25 H -7.509100 6.250800 -18.662300 0
M  V30 26 H -8.576700 6.337100 -19.894900 0
M  V30 27 H -8.502800 2.475000 -20.836300 0
M  V30 28 H -6.912200 2.352900 -21.185100 0
M  V30 29 H -8.127300 1.978700 -17.675300 0
M  V30 30 H -8.420100 0.410900 -18.025700 0
M  V30 31 H -7.149000 4.507200 -20.592500 0
M  V30 32 H -6.539100 3.806000 -19.249700 0
M  V30 33 H -12.656900 -0.109400 -18.426100 0
M  V30 34 H -10.370600 -0.227400 -18.168500 0
M  V30 35 H -8.377500 4.130400 -18.076600 0
M  V30 36 H -7.512700 0.546200 -19.990800 0
M  V30 END ATOM
M  V30 BEGIN BOND
M  V30 1 1 1 7
M  V30 2 1 2 8
M  V30 3 1 2 9
M  V30 4 2 3 13
M  V30 5 1 3 14
M  V30 6 1 4 5
M  V30 7 1 4 13
M  V30 8 1 4 15
M  V30 9 1 6 14
M  V30 10 1 7 15
M  V30 11 1 8 10
M  V30 12 1 9 16
M  V30 13 1 10 15
M  V30 14 1 11 12
M  V30 15 2 11 14
M  V30 16 2 12 16
M  V30 17 1 13 16
M  V30 18 1 1 17
M  V30 19 1 2 18 CFG=1
M  V30 20 1 5 19 CFG=3
M  V30 21 1 5 20
M  V30 22 1 5 21
M  V30 23 1 6 22 CFG=1
M  V30 24 1 6 23
M  V30 25 1 6 24
M  V30 26 1 7 25 CFG=1
M  V30 27 1 7 26
M  V30 28 1 8 27 CFG=3
M  V30 29 1 8 28
M  V30 30 1 9 29 CFG=1
M  V30 31 1 9 30
M  V30 32 1 10 31 CFG=3
M  V30 33 1 10 32
M  V30 34 1 11 33
M  V30 35 1 12 34
M  V30 36 1 15 35 CFG=1
M  V30 37 1 2 36
M  V30 END BOND
M  V30 END CTAB
M  END
>  <Ligand_Instance>  (40) 
274_A_401

>  <Dataset>  (40) 
CF

>  <PDB_ID>  (40) 
None

>  <Chain>  (40) 
A

>  <Resi>  (40) 
401

>  <Num_Resolved_Atoms>  (40) 
16

>  <Num_H_Atoms_ProtBoundConf>  (40) 
20

>  <Pocket>  (40) 
A

>  <SMILES>  (40) 
Cc1ccc(CNCC[C@@H](CO)N2C)c2n1

>  <Name>  (40) 
[(2S)‐1,9‐dimethyl‐1H,2H,3H,4H,5H,6H‐pyrido[2,3‐b][1,5]diazocin‐2‐yl]methanol

>  <Num_Heavy_Atoms>  (40) 
16

>  <Num_Not_Resolved_Atoms>  (40) 
0

>  <ATP_Site>  (40) 
True

>  <Peripheral>  (40) 
True

>  <Standardized_SMILES>  (40) 
[H]OC([H])([H])[C@@]1([H])N(C([H])([H])[H])C2=NC(C([H])([H])[H])=C([H])C([H])=C2C([H])([H])[N+]([H])([H])C([H])([H])C1([H])[H]

$$$$
F274
     RDKit          3D

  0  0  0  0  0  0  0  0  0  0999 V3000
M  V30 BEGIN CTAB
M  V30 COUNTS 36 37 0 0 0
M  V30 BEGIN ATOM
M  V30 1 O -17.924000 17.444000 -39.698000 0
M  V30 2 N -23.138000 18.464000 -41.298000 0 CFG=2 CHG=1
M  V30 3 N -19.510000 17.015000 -43.700000 0
M  V30 4 N -20.028000 16.832000 -41.415000 0
M  V30 5 C -19.642000 15.398000 -41.474000 0 CFG=1
M  V30 6 C -18.737000 16.928000 -46.046000 0 CFG=1
M  V30 7 C -19.175000 17.158000 -39.088000 0 CFG=2
M  V30 8 C -22.753000 17.202000 -40.670000 0 CFG=2
M  V30 9 C -22.103000 19.277000 -41.943000 0 CFG=2
M  V30 10 C -21.688000 17.392000 -39.581000 0 CFG=2
M  V30 11 C -20.461000 18.550000 -45.207000 0
M  V30 12 C -21.213000 19.025000 -44.191000 0
M  V30 13 C -20.272000 17.531000 -42.667000 0
M  V30 14 C -19.604000 17.534000 -44.976000 0
M  V30 15 C -20.257000 17.488000 -40.119000 0 CFG=2
M  V30 16 C -21.148000 18.567000 -42.893000 0
M  V30 17 H -17.185500 17.241200 -39.055000 0
M  V30 18 H -23.556000 19.030200 -40.587600 0
M  V30 19 H -19.507400 15.050600 -40.546000 0
M  V30 20 H -20.366800 14.875900 -41.923500 0
M  V30 21 H -18.792100 15.302600 -41.992200 0
M  V30 22 H -18.904100 17.394800 -46.914500 0
M  V30 23 H -17.775000 17.029500 -45.792700 0
M  V30 24 H -18.955700 15.956900 -46.142000 0
M  V30 25 H -19.295800 17.720900 -38.270400 0
M  V30 26 H -19.222300 16.191200 -38.837000 0
M  V30 27 H -22.388300 16.591500 -41.373000 0
M  V30 28 H -23.564300 16.788000 -40.257200 0
M  V30 29 H -21.552600 19.692400 -41.218700 0
M  V30 30 H -22.565700 19.994800 -42.463200 0
M  V30 31 H -21.736800 16.614200 -38.954300 0
M  V30 32 H -21.894000 18.234500 -39.083300 0
M  V30 33 H -20.538600 18.947300 -46.121400 0
M  V30 34 H -21.861000 19.758900 -44.394400 0
M  V30 35 H -20.129000 18.461500 -40.308700 0
M  V30 36 H -23.820100 18.248400 -41.996700 0
M  V30 END ATOM
M  V30 BEGIN BOND
M  V30 1 1 1 7
M  V30 2 1 2 8
M  V30 3 1 2 9
M  V30 4 2 3 13
M  V30 5 1 3 14
M  V30 6 1 4 5
M  V30 7 1 4 13
M  V30 8 1 4 15
M  V30 9 1 6 14
M  V30 10 1 7 15
M  V30 11 1 8 10
M  V30 12 1 9 16
M  V30 13 1 10 15
M  V30 14 1 11 12
M  V30 15 2 11 14
M  V30 16 2 12 16
M  V30 17 1 13 16
M  V30 18 1 1 17
M  V30 19 1 2 18 CFG=1
M  V30 20 1 5 19 CFG=1
M  V30 21 1 5 20
M  V30 22 1 5 21
M  V30 23 1 6 22 CFG=3
M  V30 24 1 6 23
M  V30 25 1 6 24
M  V30 26 1 7 25 CFG=1
M  V30 27 1 7 26
M  V30 28 1 8 27 CFG=3
M  V30 29 1 8 28
M  V30 30 1 9 29 CFG=1
M  V30 31 1 9 30
M  V30 32 1 10 31 CFG=1
M  V30 33 1 10 32
M  V30 34 1 11 33
M  V30 35 1 12 34
M  V30 36 1 15 35 CFG=3
M  V30 37 1 2 36
M  V30 END BOND
M  V30 END CTAB
M  END
>  <Ligand_Instance>  (41) 
274_A_501

>  <Dataset>  (41) 
CF

>  <PDB_ID>  (41) 
None

>  <Chain>  (41) 
A

>  <Resi>  (41) 
501

>  <Num_Resolved_Atoms>  (41) 
16

>  <Num_H_Atoms_ProtBoundConf>  (41) 
20

>  <Pocket>  (41) 
X

>  <SMILES>  (41) 
Cc1ccc(CNCC[C@@H](CO)N2C)c2n1

>  <Name>  (41) 
[(2S)‐1,9‐dimethyl‐1H,2H,3H,4H,5H,6H‐pyrido[2,3‐b][1,5]diazocin‐2‐yl]methanol

>  <Num_Heavy_Atoms>  (41) 
16

>  <Num_Not_Resolved_Atoms>  (41) 
0

>  <ATP_Site>  (41) 
True

>  <Peripheral>  (41) 
True

>  <Standardized_SMILES>  (41) 
[H]OC([H])([H])[C@@]1([H])N(C([H])([H])[H])C2=NC(C([H])([H])[H])=C([H])C([H])=C2C([H])([H])[N+]([H])([H])C([H])([H])C1([H])[H]

$$$$
F274
     RDKit          3D

  0  0  0  0  0  0  0  0  0  0999 V3000
M  V30 BEGIN CTAB
M  V30 COUNTS 36 37 0 0 0
M  V30 BEGIN ATOM
M  V30 1 O -4.539000 5.689000 4.859000 0
M  V30 2 N -9.043000 7.365000 6.819000 0 CFG=2 CHG=1
M  V30 3 N -9.207000 3.002000 5.053000 0
M  V30 4 N -7.555000 4.579000 5.405000 0
M  V30 5 C -6.702000 3.461000 5.788000 0 CFG=1
M  V30 6 C -10.693000 1.093000 4.607000 0 CFG=1
M  V30 7 C -5.746000 5.809000 4.116000 0 CFG=2
M  V30 8 C -7.841000 6.698000 7.306000 0 CFG=2
M  V30 9 C -10.057000 6.656000 6.046000 0 CFG=2
M  V30 10 C -6.718000 6.797000 6.296000 0 CFG=2
M  V30 11 C -11.494000 3.371000 5.232000 0
M  V30 12 C -11.255000 4.658000 5.553000 0
M  V30 13 C -8.976000 4.330000 5.385000 0
M  V30 14 C -10.491000 2.528000 4.976000 0
M  V30 15 C -6.940000 5.876000 5.094000 0 CFG=2
M  V30 16 C -10.004000 5.188000 5.647000 0
M  V30 17 H -3.763100 5.645300 4.229700 0
M  V30 18 H -8.730800 8.121900 6.244900 0
M  V30 19 H -5.744700 3.749300 5.766200 0
M  V30 20 H -6.939100 3.162200 6.712400 0
M  V30 21 H -6.836900 2.704400 5.148200 0
M  V30 22 H -11.671600 0.887900 4.589300 0
M  V30 23 H -10.300300 0.922800 3.703200 0
M  V30 24 H -10.242100 0.508700 5.281700 0
M  V30 25 H -5.849500 5.016000 3.515700 0
M  V30 26 H -5.717900 6.642900 3.564800 0
M  V30 27 H -8.046900 5.733700 7.472500 0
M  V30 28 H -7.551200 7.129300 8.160400 0
M  V30 29 H -10.133000 7.160300 5.185800 0
M  V30 30 H -10.904300 6.756900 6.567500 0
M  V30 31 H -5.859900 6.543100 6.742300 0
M  V30 32 H -6.658500 7.741100 5.971900 0
M  V30 33 H -12.437300 3.042500 5.184900 0
M  V30 34 H -12.037200 5.255000 5.731500 0
M  V30 35 H -7.646500 6.348000 4.566600 0
M  V30 36 H -9.508600 7.728600 7.625800 0
M  V30 END ATOM
M  V30 BEGIN BOND
M  V30 1 1 1 7
M  V30 2 1 2 8
M  V30 3 1 2 9
M  V30 4 2 3 13
M  V30 5 1 3 14
M  V30 6 1 4 5
M  V30 7 1 4 13
M  V30 8 1 4 15
M  V30 9 1 6 14
M  V30 10 1 7 15
M  V30 11 1 8 10
M  V30 12 1 9 16
M  V30 13 1 10 15
M  V30 14 1 11 12
M  V30 15 2 11 14
M  V30 16 2 12 16
M  V30 17 1 13 16
M  V30 18 1 1 17
M  V30 19 1 2 18 CFG=3
M  V30 20 1 5 19 CFG=1
M  V30 21 1 5 20
M  V30 22 1 5 21
M  V30 23 1 6 22 CFG=3
M  V30 24 1 6 23
M  V30 25 1 6 24
M  V30 26 1 7 25 CFG=3
M  V30 27 1 7 26
M  V30 28 1 8 27 CFG=1
M  V30 29 1 8 28
M  V30 30 1 9 29 CFG=3
M  V30 31 1 9 30
M  V30 32 1 10 31 CFG=1
M  V30 33 1 10 32
M  V30 34 1 11 33
M  V30 35 1 12 34
M  V30 36 1 15 35 CFG=3
M  V30 37 1 2 36
M  V30 END BOND
M  V30 END CTAB
M  END
>  <Ligand_Instance>  (42) 
274_A_601

>  <Dataset>  (42) 
CF

>  <PDB_ID>  (42) 
None

>  <Chain>  (42) 
A

>  <Resi>  (42) 
601

>  <Num_Resolved_Atoms>  (42) 
16

>  <Num_H_Atoms_ProtBoundConf>  (42) 
20

>  <Pocket>  (42) 
X

>  <SMILES>  (42) 
Cc1ccc(CNCC[C@@H](CO)N2C)c2n1

>  <Name>  (42) 
[(2S)‐1,9‐dimethyl‐1H,2H,3H,4H,5H,6H‐pyrido[2,3‐b][1,5]diazocin‐2‐yl]methanol

>  <Num_Heavy_Atoms>  (42) 
16

>  <Num_Not_Resolved_Atoms>  (42) 
0

>  <ATP_Site>  (42) 
True

>  <Peripheral>  (42) 
True

>  <Standardized_SMILES>  (42) 
[H]OC([H])([H])[C@@]1([H])N(C([H])([H])[H])C2=NC(C([H])([H])[H])=C([H])C([H])=C2C([H])([H])[N+]([H])([H])C([H])([H])C1([H])[H]

$$$$
F274
     RDKit          3D

  0  0  0  0  0  0  0  0  0  0999 V3000
M  V30 BEGIN CTAB
M  V30 COUNTS 36 37 0 0 0
M  V30 BEGIN ATOM
M  V30 1 O 3.186000 21.411000 -15.238000 0
M  V30 2 N 0.543000 24.679000 -16.971000 0 CFG=2 CHG=1
M  V30 3 N -0.084000 24.950000 -12.368000 0
M  V30 4 N 0.247000 22.976000 -13.527000 0
M  V30 5 C -0.204000 22.289000 -12.323000 0 CFG=1
M  V30 6 C -0.317000 26.807000 -10.796000 0 CFG=1
M  V30 7 C 2.508000 21.964000 -14.105000 0 CFG=2
M  V30 8 C 1.546000 23.754000 -16.460000 0 CFG=2
M  V30 9 C -0.666000 24.771000 -16.164000 0 CFG=2
M  V30 10 C 0.922000 22.450000 -15.991000 0 CFG=2
M  V30 11 C -0.784000 27.016000 -13.239000 0
M  V30 12 C -0.836000 26.442000 -14.454000 0
M  V30 13 C -0.135000 24.377000 -13.627000 0
M  V30 14 C -0.408000 26.274000 -12.187000 0
M  V30 15 C 1.022000 22.167000 -14.488000 0 CFG=2
M  V30 16 C -0.530000 25.128000 -14.697000 0
M  V30 17 H 4.150400 21.270800 -15.013600 0
M  V30 18 H 0.282800 24.380500 -17.889300 0
M  V30 19 H 0.105400 21.338300 -12.346000 0
M  V30 20 H 0.176000 22.743800 -11.517600 0
M  V30 21 H -1.202800 22.313500 -12.279500 0
M  V30 22 H -0.574900 27.773200 -10.791700 0
M  V30 23 H -0.936100 26.294100 -10.201300 0
M  V30 24 H 0.621000 26.710900 -10.462900 0
M  V30 25 H 2.918100 22.842400 -13.859700 0
M  V30 26 H 2.575700 21.336300 -13.329500 0
M  V30 27 H 2.019100 24.182100 -15.690000 0
M  V30 28 H 2.203700 23.555500 -17.186600 0
M  V30 29 H -1.120600 23.881500 -16.210600 0
M  V30 30 H -1.249400 25.466000 -16.584200 0
M  V30 31 H 1.374800 21.701300 -16.475200 0
M  V30 32 H -0.047300 22.467700 -16.236300 0
M  V30 33 H -1.021800 27.980200 -13.121800 0
M  V30 34 H -1.115400 27.009200 -15.228800 0
M  V30 35 H 0.628900 21.252200 -14.395000 0
M  V30 36 H 0.954700 25.589000 -17.020500 0
M  V30 END ATOM
M  V30 BEGIN BOND
M  V30 1 1 1 7
M  V30 2 1 2 8
M  V30 3 1 2 9
M  V30 4 2 3 13
M  V30 5 1 3 14
M  V30 6 1 4 5
M  V30 7 1 4 13
M  V30 8 1 4 15
M  V30 9 1 6 14
M  V30 10 1 7 15
M  V30 11 1 8 10
M  V30 12 1 9 16
M  V30 13 1 10 15
M  V30 14 1 11 12
M  V30 15 2 11 14
M  V30 16 2 12 16
M  V30 17 1 13 16
M  V30 18 1 1 17
M  V30 19 1 2 18 CFG=3
M  V30 20 1 5 19 CFG=3
M  V30 21 1 5 20
M  V30 22 1 5 21
M  V30 23 1 6 22 CFG=3
M  V30 24 1 6 23
M  V30 25 1 6 24
M  V30 26 1 7 25 CFG=1
M  V30 27 1 7 26
M  V30 28 1 8 27 CFG=1
M  V30 29 1 8 28
M  V30 30 1 9 29 CFG=1
M  V30 31 1 9 30
M  V30 32 1 10 31 CFG=3
M  V30 33 1 10 32
M  V30 34 1 11 33
M  V30 35 1 12 34
M  V30 36 1 15 35 CFG=3
M  V30 37 1 2 36
M  V30 END BOND
M  V30 END CTAB
M  END
>  <Ligand_Instance>  (43) 
274_A_701

>  <Dataset>  (43) 
CF

>  <PDB_ID>  (43) 
None

>  <Chain>  (43) 
A

>  <Resi>  (43) 
701

>  <Num_Resolved_Atoms>  (43) 
16

>  <Num_H_Atoms_ProtBoundConf>  (43) 
20

>  <Pocket>  (43) 
X

>  <SMILES>  (43) 
Cc1ccc(CNCC[C@@H](CO)N2C)c2n1

>  <Name>  (43) 
[(2S)‐1,9‐dimethyl‐1H,2H,3H,4H,5H,6H‐pyrido[2,3‐b][1,5]diazocin‐2‐yl]methanol

>  <Num_Heavy_Atoms>  (43) 
16

>  <Num_Not_Resolved_Atoms>  (43) 
0

>  <ATP_Site>  (43) 
True

>  <Peripheral>  (43) 
True

>  <Standardized_SMILES>  (43) 
[H]OC([H])([H])[C@@]1([H])N(C([H])([H])[H])C2=NC(C([H])([H])[H])=C([H])C([H])=C2C([H])([H])[N+]([H])([H])C([H])([H])C1([H])[H]

$$$$
F283
     RDKit          3D

  0  0  0  0  0  0  0  0  0  0999 V3000
M  V30 BEGIN CTAB
M  V30 COUNTS 39 40 0 0 0
M  V30 BEGIN ATOM
M  V30 1 S 4.238000 22.481000 -10.535000 0
M  V30 2 O 3.043000 21.495000 -14.815000 0
M  V30 3 N 0.680000 23.625000 -16.248000 0 CFG=2 CHG=1
M  V30 4 N 2.560000 23.808000 -11.944000 0
M  V30 5 N 3.909000 25.179000 -8.708000 0 CFG=1 CHG=1
M  V30 6 C 5.098000 25.799000 -9.305000 0 CFG=1
M  V30 7 C 1.668000 24.362000 -6.315000 0
M  V30 8 C 3.875000 21.883000 -12.140000 0
M  V30 9 C 0.413000 22.310000 -15.626000 0 CFG=2
M  V30 10 C 2.142000 23.914000 -16.295000 0 CFG=2
M  V30 11 C 3.426000 25.956000 -7.551000 0 CFG=2
M  V30 12 C 2.853000 24.906000 -9.696000 0 CFG=2
M  V30 13 C 2.464000 25.095000 -6.845000 0
M  V30 14 C 0.879000 22.396000 -14.159000 0 CFG=2
M  V30 15 C 2.785000 23.917000 -14.889000 0 CFG=2
M  V30 16 C 3.151000 23.840000 -10.734000 0
M  V30 17 C 2.962000 22.699000 -12.711000 0
M  V30 18 C 2.412000 22.605000 -14.110000 0 CFG=2
M  V30 19 H 4.036200 21.609500 -14.795900 0
M  V30 20 H 0.224100 24.336800 -15.713800 0
M  V30 21 H 5.402800 25.252500 -10.085000 0
M  V30 22 H 4.872800 26.723300 -9.613200 0
M  V30 23 H 5.828400 25.843600 -8.623500 0
M  V30 24 H 1.007400 23.753700 -5.875100 0
M  V30 25 H 4.277000 21.071500 -12.564100 0
M  V30 26 H 0.921400 21.594700 -16.105500 0
M  V30 27 H -0.565200 22.105700 -15.663300 0
M  V30 28 H 2.279000 24.812000 -16.713200 0
M  V30 29 H 2.590200 23.214900 -16.852100 0
M  V30 30 H 2.977500 26.794500 -7.860400 0
M  V30 31 H 4.189000 26.189000 -6.948000 0
M  V30 32 H 2.665500 25.759100 -10.182800 0
M  V30 33 H 2.035600 24.621400 -9.195200 0
M  V30 34 H 0.643900 21.547300 -13.685200 0
M  V30 35 H 0.424100 23.165200 -13.710300 0
M  V30 36 H 2.452900 24.709200 -14.377100 0
M  V30 37 H 3.779100 23.973000 -14.982000 0
M  V30 38 H 0.317800 23.624200 -17.180100 0
M  V30 39 H 4.200600 24.291300 -8.351800 0
M  V30 END ATOM
M  V30 BEGIN BOND
M  V30 1 1 1 8
M  V30 2 1 1 16
M  V30 3 1 18 2 CFG=3
M  V30 4 1 3 9
M  V30 5 1 3 10
M  V30 6 2 4 16
M  V30 7 1 4 17
M  V30 8 1 5 6
M  V30 9 1 5 11
M  V30 10 1 5 12
M  V30 11 3 7 13
M  V30 12 2 8 17
M  V30 13 1 9 14
M  V30 14 1 10 15
M  V30 15 1 11 13
M  V30 16 1 12 16
M  V30 17 1 14 18
M  V30 18 1 15 18
M  V30 19 1 17 18
M  V30 20 1 2 19
M  V30 21 1 3 20 CFG=1
M  V30 22 1 6 21 CFG=3
M  V30 23 1 6 22
M  V30 24 1 6 23
M  V30 25 1 7 24
M  V30 26 1 8 25
M  V30 27 1 9 26 CFG=3
M  V30 28 1 9 27
M  V30 29 1 10 28 CFG=3
M  V30 30 1 10 29
M  V30 31 1 11 30 CFG=3
M  V30 32 1 11 31
M  V30 33 1 12 32 CFG=3
M  V30 34 1 12 33
M  V30 35 1 14 34 CFG=1
M  V30 36 1 14 35
M  V30 37 1 15 36 CFG=1
M  V30 38 1 15 37
M  V30 39 1 3 38
M  V30 40 1 5 39 CFG=1
M  V30 END BOND
M  V30 END CTAB
M  END
>  <Ligand_Instance>  (44) 
283_B_1

>  <Dataset>  (44) 
CF

>  <PDB_ID>  (44) 
None

>  <Chain>  (44) 
B

>  <Resi>  (44) 
1

>  <Num_Resolved_Atoms>  (44) 
18

>  <Num_H_Atoms_ProtBoundConf>  (44) 
21

>  <Pocket>  (44) 
X

>  <SMILES>  (44) 
CN(Cc1nc(C2(CCNCC2)O)c[s]1)CC#C

>  <Name>  (44) 
4‐(2‐{[methyl(prop‐2‐yn‐1‐yl)amino]methyl}‐1,3‐thiazol‐4‐yl)piperidin‐4‐ol

>  <Num_Heavy_Atoms>  (44) 
18

>  <Num_Not_Resolved_Atoms>  (44) 
0

>  <ATP_Site>  (44) 
False

>  <Peripheral>  (44) 
True

>  <Standardized_SMILES>  (44) 
[H]C#CC([H])([H])[N@+]([H])(C([H])([H])[H])C([H])([H])C1=NC(C2(O[H])C([H])([H])C([H])([H])[N+]([H])([H])C([H])([H])C2([H])[H])=C([H])S1

$$$$
F283
     RDKit          3D

  0  0  0  0  0  0  0  0  0  0999 V3000
M  V30 BEGIN CTAB
M  V30 COUNTS 39 40 0 0 0
M  V30 BEGIN ATOM
M  V30 1 S 6.247000 -1.188000 -28.085000 0
M  V30 2 O 2.074000 -0.843000 -25.969000 0
M  V30 3 N 0.065000 1.763000 -26.966000 0 CFG=2 CHG=1
M  V30 4 N 3.711000 -1.501000 -28.714000 0
M  V30 5 N 6.128000 -4.083000 -29.954000 0 CFG=2 CHG=1
M  V30 6 C 7.563000 -3.808000 -30.049000 0 CFG=1
M  V30 7 C 3.241000 -5.239000 -31.683000 0
M  V30 8 C 4.990000 -0.320000 -27.217000 0
M  V30 9 C 1.234000 1.989000 -26.103000 0 CFG=2
M  V30 10 C -0.011000 0.482000 -27.708000 0 CFG=2
M  V30 11 C 5.792000 -5.195000 -30.852000 0 CFG=2
M  V30 12 C 5.258000 -2.897000 -30.189000 0 CFG=2
M  V30 13 C 4.389000 -5.218000 -31.307000 0
M  V30 14 C 2.560000 1.424000 -26.618000 0 CFG=2
M  V30 15 C 1.304000 -0.148000 -28.172000 0 CFG=2
M  V30 16 C 4.987000 -1.914000 -29.064000 0
M  V30 17 C 3.742000 -0.590000 -27.667000 0
M  V30 18 C 2.431000 -0.033000 -27.125000 0 CFG=2
M  V30 19 H 1.978800 -1.798500 -26.248100 0
M  V30 20 H 0.046300 2.500100 -27.641500 0
M  V30 21 H 7.798400 -3.051100 -29.439300 0
M  V30 22 H 8.077000 -4.623200 -29.782100 0
M  V30 23 H 7.793600 -3.561900 -30.990400 0
M  V30 24 H 2.290800 -5.256400 -31.994200 0
M  V30 25 H 5.177900 0.311300 -26.464600 0
M  V30 26 H 1.045700 1.569400 -25.215000 0
M  V30 27 H 1.344800 2.976200 -25.988500 0
M  V30 28 H -0.570100 0.640500 -28.521800 0
M  V30 29 H -0.467000 -0.180900 -27.114200 0
M  V30 30 H 5.977100 -6.051400 -30.370000 0
M  V30 31 H 6.379900 -5.132600 -31.658500 0
M  V30 32 H 4.369400 -3.246200 -30.486400 0
M  V30 33 H 5.676900 -2.375500 -30.932300 0
M  V30 34 H 3.227800 1.446000 -25.874000 0
M  V30 35 H 2.881300 1.997800 -27.371400 0
M  V30 36 H 1.599300 0.311600 -29.009600 0
M  V30 37 H 1.143500 -1.116600 -28.362100 0
M  V30 38 H -0.748300 1.820700 -26.387100 0
M  V30 39 H 5.950800 -4.396100 -29.020900 0
M  V30 END ATOM
M  V30 BEGIN BOND
M  V30 1 1 1 8
M  V30 2 1 1 16
M  V30 3 1 18 2 CFG=1
M  V30 4 1 3 9
M  V30 5 1 3 10
M  V30 6 2 4 16
M  V30 7 1 4 17
M  V30 8 1 5 6
M  V30 9 1 5 11
M  V30 10 1 5 12
M  V30 11 3 7 13
M  V30 12 2 8 17
M  V30 13 1 9 14
M  V30 14 1 10 15
M  V30 15 1 11 13
M  V30 16 1 12 16
M  V30 17 1 14 18
M  V30 18 1 15 18
M  V30 19 1 17 18
M  V30 20 1 2 19
M  V30 21 1 3 20 CFG=3
M  V30 22 1 6 21 CFG=1
M  V30 23 1 6 22
M  V30 24 1 6 23
M  V30 25 1 7 24
M  V30 26 1 8 25
M  V30 27 1 9 26 CFG=1
M  V30 28 1 9 27
M  V30 29 1 10 28 CFG=3
M  V30 30 1 10 29
M  V30 31 1 11 30 CFG=1
M  V30 32 1 11 31
M  V30 33 1 12 32 CFG=3
M  V30 34 1 12 33
M  V30 35 1 14 34 CFG=1
M  V30 36 1 14 35
M  V30 37 1 15 36 CFG=3
M  V30 38 1 15 37
M  V30 39 1 3 38
M  V30 40 1 5 39 CFG=1
M  V30 END BOND
M  V30 END CTAB
M  END
>  <Ligand_Instance>  (45) 
283_B_2

>  <Dataset>  (45) 
CF

>  <PDB_ID>  (45) 
None

>  <Chain>  (45) 
B

>  <Resi>  (45) 
2

>  <Num_Resolved_Atoms>  (45) 
18

>  <Num_H_Atoms_ProtBoundConf>  (45) 
21

>  <Pocket>  (45) 
G

>  <SMILES>  (45) 
CN(Cc1nc(C2(CCNCC2)O)c[s]1)CC#C

>  <Name>  (45) 
4‐(2‐{[methyl(prop‐2‐yn‐1‐yl)amino]methyl}‐1,3‐thiazol‐4‐yl)piperidin‐4‐ol

>  <Num_Heavy_Atoms>  (45) 
18

>  <Num_Not_Resolved_Atoms>  (45) 
0

>  <ATP_Site>  (45) 
False

>  <Peripheral>  (45) 
True

>  <Standardized_SMILES>  (45) 
[H]C#CC([H])([H])[N@@+]([H])(C([H])([H])[H])C([H])([H])C1=NC(C2(O[H])C([H])([H])C([H])([H])[N+]([H])([H])C([H])([H])C2([H])[H])=C([H])S1

$$$$
F294
     RDKit          3D

  0  0  0  0  0  0  0  0  0  0999 V3000
M  V30 BEGIN CTAB
M  V30 COUNTS 42 44 0 0 0
M  V30 BEGIN ATOM
M  V30 1 S -30.389000 22.201000 -38.589000 0
M  V30 2 O -32.619000 24.942000 -41.502000 0
M  V30 3 O -29.102000 21.400000 -34.377000 0
M  V30 4 N -26.826000 23.518000 -32.966000 0 CFG=2 CHG=1
M  V30 5 N -28.659000 23.489000 -37.214000 0
M  V30 6 N -29.874000 24.733000 -40.453000 0 CFG=1 CHG=1
M  V30 7 C -30.065000 21.654000 -36.959000 0
M  V30 8 C -28.276000 23.722000 -32.850000 0 CFG=2
M  V30 9 C -26.549000 22.174000 -33.514000 0 CFG=2
M  V30 10 C -29.411000 25.676000 -41.490000 0 CFG=2
M  V30 11 C -28.837000 24.506000 -39.453000 0 CFG=2
M  V30 12 C -30.992000 25.423000 -39.804000 0 CFG=2
M  V30 13 C -30.695000 26.282000 -42.048000 0 CFG=2
M  V30 14 C -28.950000 23.686000 -34.236000 0 CFG=2
M  V30 15 C -27.054000 22.149000 -34.950000 0 CFG=2
M  V30 16 C -29.226000 23.486000 -38.418000 0
M  V30 17 C -31.756000 25.969000 -40.997000 0 CFG=1
M  V30 18 C -29.119000 22.442000 -36.421000 0
M  V30 19 C -28.475000 22.553000 -35.116000 0 CFG=1
M  V30 20 H -33.127700 25.291200 -42.289000 0
M  V30 21 H -30.094800 21.518100 -34.355600 0
M  V30 22 H -26.406300 23.600400 -32.062100 0
M  V30 23 H -30.510000 20.883000 -36.503500 0
M  V30 24 H -28.448500 24.610700 -32.425200 0
M  V30 25 H -28.663600 22.998600 -32.278700 0
M  V30 26 H -27.024900 21.480500 -32.973100 0
M  V30 27 H -25.565500 21.994200 -33.495300 0
M  V30 28 H -28.905800 25.194800 -42.206400 0
M  V30 29 H -28.829300 26.384500 -41.090400 0
M  V30 30 H -28.646500 25.371800 -38.990300 0
M  V30 31 H -28.010900 24.187900 -39.918200 0
M  V30 32 H -30.669400 26.160000 -39.210100 0
M  V30 33 H -31.552500 24.787900 -39.272600 0
M  V30 34 H -30.931600 25.862600 -42.924400 0
M  V30 35 H -30.596500 27.270000 -42.167000 0
M  V30 36 H -28.757900 24.549400 -34.702500 0
M  V30 37 H -29.936700 23.590600 -34.104400 0
M  V30 38 H -26.952000 21.217800 -35.299900 0
M  V30 39 H -26.488000 22.771800 -35.490100 0
M  V30 40 H -32.274000 26.788200 -40.750800 0
M  V30 41 H -26.441600 24.210600 -33.576400 0
M  V30 42 H -30.173400 23.870500 -40.860900 0
M  V30 END ATOM
M  V30 BEGIN BOND
M  V30 1 1 1 7
M  V30 2 1 1 16
M  V30 3 1 2 17
M  V30 4 1 19 3 CFG=1
M  V30 5 1 4 8
M  V30 6 1 4 9
M  V30 7 2 5 16
M  V30 8 1 5 18
M  V30 9 1 6 10
M  V30 10 1 6 11
M  V30 11 1 6 12
M  V30 12 2 7 18
M  V30 13 1 8 14
M  V30 14 1 9 15
M  V30 15 1 10 13
M  V30 16 1 11 16
M  V30 17 1 12 17
M  V30 18 1 13 17
M  V30 19 1 14 19
M  V30 20 1 15 19
M  V30 21 1 18 19
M  V30 22 1 2 20
M  V30 23 1 3 21
M  V30 24 1 4 22 CFG=1
M  V30 25 1 7 23
M  V30 26 1 8 24 CFG=1
M  V30 27 1 8 25
M  V30 28 1 9 26 CFG=1
M  V30 29 1 9 27
M  V30 30 1 10 28 CFG=3
M  V30 31 1 10 29
M  V30 32 1 11 30 CFG=1
M  V30 33 1 11 31
M  V30 34 1 12 32 CFG=1
M  V30 35 1 12 33
M  V30 36 1 13 34 CFG=3
M  V30 37 1 13 35
M  V30 38 1 14 36 CFG=3
M  V30 39 1 14 37
M  V30 40 1 15 38 CFG=3
M  V30 41 1 15 39
M  V30 42 1 17 40 CFG=1
M  V30 43 1 4 41
M  V30 44 1 6 42 CFG=3
M  V30 END BOND
M  V30 END CTAB
M  END
>  <Ligand_Instance>  (46) 
294_L_401

>  <Dataset>  (46) 
CF

>  <PDB_ID>  (46) 
None

>  <Chain>  (46) 
L

>  <Resi>  (46) 
401

>  <Num_Resolved_Atoms>  (46) 
19

>  <Num_H_Atoms_ProtBoundConf>  (46) 
23

>  <Pocket>  (46) 
X

>  <SMILES>  (46) 
O[C@H]1CN(Cc2nc(C3(CCNCC3)O)c[s]2)CC1

>  <Name>  (46) 
4‐(2‐{[(3R)‐3‐hydroxypyrrolidin‐1‐yl]methyl}‐1,3‐thiazol‐4‐yl)piperidin‐4‐ol

>  <Num_Heavy_Atoms>  (46) 
19

>  <Num_Not_Resolved_Atoms>  (46) 
0

>  <ATP_Site>  (46) 
False

>  <Peripheral>  (46) 
True

>  <Standardized_SMILES>  (46) 
[H]OC1(C2=C([H])SC(C([H])([H])[N@+]3([H])C([H])([H])C([H])([H])[C@@]([H])(O[H])C3([H])[H])=N2)C([H])([H])C([H])([H])[N+]([H])([H])C([H])([H])C1([H])[H]

$$$$
F296
     RDKit          3D

  0  0  0  0  0  0  0  0  0  0999 V3000
M  V30 BEGIN CTAB
M  V30 COUNTS 31 33 0 0 0
M  V30 BEGIN ATOM
M  V30 1 F -16.677000 2.472000 -19.978000 0
M  V30 2 O -12.251000 6.453000 -18.107000 0
M  V30 3 O -12.229000 2.555000 -18.611000 0
M  V30 4 N -8.807000 2.600000 -19.826000 0 CFG=2 CHG=1
M  V30 5 N -10.887000 5.042000 -19.132000 0
M  V30 6 C -9.714000 5.824000 -18.706000 0 CFG=1
M  V30 7 C -9.877000 2.022000 -18.993000 0 CFG=2
M  V30 8 C -9.403000 3.657000 -20.701000 0 CFG=2
M  V30 9 C -15.633000 4.572000 -19.712000 0
M  V30 10 C -14.498000 5.305000 -19.436000 0
M  V30 11 C -14.455000 2.530000 -19.286000 0
M  V30 12 C -15.582000 3.196000 -19.645000 0
M  V30 13 C -12.130000 5.443000 -18.766000 0
M  V30 14 C -11.114000 2.662000 -19.412000 0 CFG=2
M  V30 15 C -13.346000 3.263000 -19.001000 0
M  V30 16 C -10.614000 3.884000 -19.915000 0 CFG=1
M  V30 17 C -13.341000 4.631000 -19.120000 0
M  V30 18 H -8.397400 1.884900 -20.392500 0
M  V30 19 H -8.881900 5.395100 -19.057600 0
M  V30 20 H -9.786100 6.754900 -19.064000 0
M  V30 21 H -9.677500 5.852900 -17.707100 0
M  V30 22 H -9.701500 2.208100 -18.026300 0
M  V30 23 H -9.932400 1.034100 -19.137600 0
M  V30 24 H -9.602700 3.322400 -21.622000 0
M  V30 25 H -8.827700 4.472800 -20.760200 0
M  V30 26 H -16.484900 5.034200 -19.958400 0
M  V30 27 H -14.515500 6.304400 -19.464900 0
M  V30 28 H -14.440900 1.531500 -19.232800 0
M  V30 29 H -11.369900 2.157600 -20.236700 0
M  V30 30 H -11.265600 4.032900 -20.658800 0
M  V30 31 H -8.104700 3.004100 -19.239900 0
M  V30 END ATOM
M  V30 BEGIN BOND
M  V30 1 1 1 12
M  V30 2 2 2 13
M  V30 3 1 3 14
M  V30 4 1 3 15
M  V30 5 1 4 7
M  V30 6 1 4 8
M  V30 7 1 5 6
M  V30 8 1 5 13
M  V30 9 1 5 16
M  V30 10 1 7 14
M  V30 11 1 8 16
M  V30 12 1 9 10
M  V30 13 2 9 12
M  V30 14 2 10 17
M  V30 15 1 11 12
M  V30 16 2 11 15
M  V30 17 1 13 17
M  V30 18 1 14 16
M  V30 19 1 15 17
M  V30 20 1 4 18 CFG=3
M  V30 21 1 6 19 CFG=3
M  V30 22 1 6 20
M  V30 23 1 6 21
M  V30 24 1 7 22 CFG=1
M  V30 25 1 7 23
M  V30 26 1 8 24 CFG=3
M  V30 27 1 8 25
M  V30 28 1 9 26
M  V30 29 1 10 27
M  V30 30 1 11 28
M  V30 31 1 14 29 CFG=3
M  V30 32 1 16 30 CFG=3
M  V30 33 1 4 31
M  V30 END BOND
M  V30 END CTAB
M  END
>  <Ligand_Instance>  (47) 
296_B_1

>  <Dataset>  (47) 
CF

>  <PDB_ID>  (47) 
None

>  <Chain>  (47) 
B

>  <Resi>  (47) 
1

>  <Num_Resolved_Atoms>  (47) 
17

>  <Num_H_Atoms_ProtBoundConf>  (47) 
14

>  <Pocket>  (47) 
A

>  <SMILES>  (47) 
CN([C@H](CNC1)[C@H]1Oc1c2ccc(F)c1)C2=O

>  <Name>  (47) 
(3S,7R)‐13‐fluoro‐8‐methyl‐2‐oxa‐5,8‐diazatricyclo[8.4.0.0]tetradeca‐1(10),11,13‐trien‐9‐one

>  <Num_Heavy_Atoms>  (47) 
17

>  <Num_Not_Resolved_Atoms>  (47) 
0

>  <ATP_Site>  (47) 
True

>  <Peripheral>  (47) 
False

>  <Standardized_SMILES>  (47) 
[H]C1=C(F)C([H])=C2O[C@]3([H])C([H])([H])[N+]([H])([H])C([H])([H])[C@]3([H])N(C([H])([H])[H])C(=O)C2=C1[H]

$$$$
F299
     RDKit          3D

  0  0  0  0  0  0  0  0  0  0999 V3000
M  V30 BEGIN CTAB
M  V30 COUNTS 28 30 0 0 0
M  V30 BEGIN ATOM
M  V30 1 S -29.921000 21.804000 -36.655000 0 CFG=1
M  V30 2 O -29.411000 20.636000 -37.349000 0
M  V30 3 O -31.354000 21.972000 -36.486000 0
M  V30 4 O -28.737000 24.315000 -35.397000 0
M  V30 5 N -29.311000 21.719000 -35.081000 0
M  V30 6 N -27.909000 22.622000 -32.654000 0 CFG=2 CHG=1
M  V30 7 N -28.288000 25.367000 -37.432000 0
M  V30 8 C -28.307000 25.402000 -38.808000 0
M  V30 9 C -27.617000 23.891000 -33.331000 0 CFG=2
M  V30 10 C -27.405000 21.576000 -33.545000 0 CFG=2
M  V30 11 C -28.801000 24.374000 -39.517000 0
M  V30 12 C -29.318000 23.227000 -38.801000 0
M  V30 13 C -29.293000 23.207000 -37.451000 0
M  V30 14 C -28.785000 24.256000 -36.767000 0
M  V30 15 C -27.649000 23.575000 -34.838000 0 CFG=1
M  V30 16 C -27.875000 22.051000 -34.921000 0 CFG=2
M  V30 17 H -29.447800 20.785300 -34.750000 0
M  V30 18 H -28.894000 22.518400 -32.516100 0
M  V30 19 H -27.948100 26.203700 -39.286100 0
M  V30 20 H -26.714300 24.228900 -33.064500 0
M  V30 21 H -28.309700 24.575300 -33.103300 0
M  V30 22 H -27.800100 20.686300 -33.316300 0
M  V30 23 H -26.407500 21.518000 -33.504900 0
M  V30 24 H -28.811500 24.400300 -40.516600 0
M  V30 25 H -29.693500 22.449800 -39.305900 0
M  V30 26 H -26.785400 23.830200 -35.272800 0
M  V30 27 H -27.326300 21.643400 -35.650900 0
M  V30 28 H -27.442700 22.582400 -31.770300 0
M  V30 END ATOM
M  V30 BEGIN BOND
M  V30 1 2 1 2
M  V30 2 2 1 3
M  V30 3 1 1 5 CFG=1
M  V30 4 1 1 13
M  V30 5 1 4 14
M  V30 6 1 4 15
M  V30 7 1 5 16
M  V30 8 1 6 9
M  V30 9 1 6 10
M  V30 10 1 7 8
M  V30 11 2 7 14
M  V30 12 2 8 11
M  V30 13 1 9 15
M  V30 14 1 10 16
M  V30 15 1 11 12
M  V30 16 2 12 13
M  V30 17 1 13 14
M  V30 18 1 15 16
M  V30 19 1 5 17
M  V30 20 1 6 18 CFG=1
M  V30 21 1 8 19
M  V30 22 1 9 20 CFG=1
M  V30 23 1 9 21
M  V30 24 1 10 22 CFG=1
M  V30 25 1 10 23
M  V30 26 1 11 24
M  V30 27 1 12 25
M  V30 28 1 15 26 CFG=3
M  V30 29 1 16 27 CFG=3
M  V30 30 1 6 28
M  V30 END BOND
M  V30 END CTAB
M  END
>  <Ligand_Instance>  (48) 
299_B_5

>  <Dataset>  (48) 
CF

>  <PDB_ID>  (48) 
None

>  <Chain>  (48) 
B

>  <Resi>  (48) 
5

>  <Num_Resolved_Atoms>  (48) 
16

>  <Num_H_Atoms_ProtBoundConf>  (48) 
12

>  <Pocket>  (48) 
X

>  <SMILES>  (48) 
O=S1(N[C@H](CNC2)[C@H]2Oc2c1cccn2)=O

>  <Name>  (48) 
(3S,7R)‐2‐oxa‐9lambda6‐thia‐5,8,14‐triazatricyclo[8.4.0.0]tetradeca‐1(10),11,13‐triene‐9,9‐dione

>  <Num_Heavy_Atoms>  (48) 
16

>  <Num_Not_Resolved_Atoms>  (48) 
0

>  <ATP_Site>  (48) 
True

>  <Peripheral>  (48) 
True

>  <Standardized_SMILES>  (48) 
[H]C1=C([H])C([H])=C2C(=N1)O[C@@]1([H])C([H])([H])[N+]([H])([H])C([H])([H])[C@@]1([H])N([H])S2(=O)=O

$$$$
F299
     RDKit          3D

  0  0  0  0  0  0  0  0  0  0999 V3000
M  V30 BEGIN CTAB
M  V30 COUNTS 28 30 0 0 0
M  V30 BEGIN ATOM
M  V30 1 S -1.347000 4.014000 -19.201000 0 CFG=2
M  V30 2 O -0.225000 3.477000 -19.952000 0
M  V30 3 O -2.219000 3.101000 -18.496000 0
M  V30 4 O -1.363000 7.031000 -19.507000 0
M  V30 5 N -2.233000 4.709000 -20.463000 0
M  V30 6 N -3.090000 7.454000 -21.787000 0 CFG=2 CHG=1
M  V30 7 N -0.290000 7.463000 -17.489000 0
M  V30 8 C 0.303000 7.051000 -16.317000 0
M  V30 9 C -3.168000 8.115000 -20.478000 0 CFG=2
M  V30 10 C -3.810000 6.199000 -21.554000 0 CFG=2
M  V30 11 C 0.399000 5.747000 -16.022000 0
M  V30 12 C -0.139000 4.790000 -16.968000 0
M  V30 13 C -0.724000 5.208000 -18.111000 0
M  V30 14 C -0.804000 6.525000 -18.370000 0
M  V30 15 C -2.778000 6.992000 -19.516000 0 CFG=1
M  V30 16 C -3.290000 5.708000 -20.204000 0 CFG=2
M  V30 17 H -2.671800 3.953400 -20.949400 0
M  V30 18 H -2.140300 7.282200 -22.048800 0
M  V30 19 H 0.665600 7.731000 -15.679700 0
M  V30 20 H -4.094400 8.443300 -20.293600 0
M  V30 21 H -2.525900 8.879400 -20.420400 0
M  V30 22 H -3.606900 5.535500 -22.274100 0
M  V30 23 H -4.796500 6.358600 -21.516500 0
M  V30 24 H 0.830000 5.442900 -15.172500 0
M  V30 25 H -0.076400 3.811300 -16.772600 0
M  V30 26 H -3.168800 7.117900 -18.604200 0
M  V30 27 H -4.032200 5.300100 -19.672200 0
M  V30 28 H -3.537200 8.000800 -22.494900 0
M  V30 END ATOM
M  V30 BEGIN BOND
M  V30 1 2 1 2
M  V30 2 2 1 3
M  V30 3 1 1 5 CFG=3
M  V30 4 1 1 13
M  V30 5 1 4 14
M  V30 6 1 4 15
M  V30 7 1 5 16
M  V30 8 1 6 9
M  V30 9 1 6 10
M  V30 10 1 7 8
M  V30 11 2 7 14
M  V30 12 2 8 11
M  V30 13 1 9 15
M  V30 14 1 10 16
M  V30 15 1 11 12
M  V30 16 2 12 13
M  V30 17 1 13 14
M  V30 18 1 15 16
M  V30 19 1 5 17
M  V30 20 1 6 18 CFG=3
M  V30 21 1 8 19
M  V30 22 1 9 20 CFG=1
M  V30 23 1 9 21
M  V30 24 1 10 22 CFG=3
M  V30 25 1 10 23
M  V30 26 1 11 24
M  V30 27 1 12 25
M  V30 28 1 15 26 CFG=1
M  V30 29 1 16 27 CFG=1
M  V30 30 1 6 28
M  V30 END BOND
M  V30 END CTAB
M  END
>  <Ligand_Instance>  (49) 
299_B_6

>  <Dataset>  (49) 
CF

>  <PDB_ID>  (49) 
None

>  <Chain>  (49) 
B

>  <Resi>  (49) 
6

>  <Num_Resolved_Atoms>  (49) 
16

>  <Num_H_Atoms_ProtBoundConf>  (49) 
12

>  <Pocket>  (49) 
X

>  <SMILES>  (49) 
O=S1(N[C@H](CNC2)[C@H]2Oc2c1cccn2)=O

>  <Name>  (49) 
(3S,7R)‐2‐oxa‐9lambda6‐thia‐5,8,14‐triazatricyclo[8.4.0.0]tetradeca‐1(10),11,13‐triene‐9,9‐dione

>  <Num_Heavy_Atoms>  (49) 
16

>  <Num_Not_Resolved_Atoms>  (49) 
0

>  <ATP_Site>  (49) 
True

>  <Peripheral>  (49) 
True

>  <Standardized_SMILES>  (49) 
[H]C1=C([H])C([H])=C2C(=N1)O[C@@]1([H])C([H])([H])[N+]([H])([H])C([H])([H])[C@@]1([H])N([H])S2(=O)=O

$$$$
F299
     RDKit          3D

  0  0  0  0  0  0  0  0  0  0999 V3000
M  V30 BEGIN CTAB
M  V30 COUNTS 28 30 0 0 0
M  V30 BEGIN ATOM
M  V30 1 S -15.156000 1.682000 -29.684000 0 CFG=1
M  V30 2 O -14.599000 0.397000 -29.287000 0
M  V30 3 O -15.776000 1.793000 -30.999000 0
M  V30 4 O -15.522000 4.748000 -29.511000 0
M  V30 5 N -16.382000 1.977000 -28.568000 0
M  V30 6 N -18.029000 4.871000 -29.972000 0 CFG=2 CHG=1
M  V30 7 N -13.247000 5.176000 -29.327000 0
M  V30 8 C -11.935000 4.777000 -29.262000 0
M  V30 9 C -17.549000 5.473000 -28.717000 0 CFG=2
M  V30 10 C -18.067000 3.429000 -29.675000 0 CFG=2
M  V30 11 C -11.600000 3.480000 -29.330000 0
M  V30 12 C -12.659000 2.503000 -29.460000 0
M  V30 13 C -13.946000 2.911000 -29.515000 0
M  V30 14 C -14.250000 4.228000 -29.441000 0
M  V30 15 C -16.376000 4.556000 -28.383000 0 CFG=1
M  V30 16 C -17.166000 3.237000 -28.456000 0 CFG=2
M  V30 17 H -17.059100 1.257700 -28.723300 0
M  V30 18 H -17.398600 5.063800 -30.724000 0
M  V30 19 H -11.216500 5.465400 -29.162200 0
M  V30 20 H -18.250600 5.445800 -28.004900 0
M  V30 21 H -17.249400 6.417200 -28.853800 0
M  V30 22 H -17.720200 2.903300 -30.451800 0
M  V30 23 H -19.001500 3.139800 -29.467400 0
M  V30 24 H -10.642100 3.195400 -29.291800 0
M  V30 25 H -12.439200 1.528700 -29.509000 0
M  V30 26 H -15.945200 4.735500 -27.498600 0
M  V30 27 H -17.746400 3.173900 -27.644100 0
M  V30 28 H -18.940000 5.211200 -30.205200 0
M  V30 END ATOM
M  V30 BEGIN BOND
M  V30 1 2 1 2
M  V30 2 2 1 3
M  V30 3 1 1 5 CFG=1
M  V30 4 1 1 13
M  V30 5 1 4 14
M  V30 6 1 4 15
M  V30 7 1 5 16
M  V30 8 1 6 9
M  V30 9 1 6 10
M  V30 10 1 7 8
M  V30 11 2 7 14
M  V30 12 2 8 11
M  V30 13 1 9 15
M  V30 14 1 10 16
M  V30 15 1 11 12
M  V30 16 2 12 13
M  V30 17 1 13 14
M  V30 18 1 15 16
M  V30 19 1 5 17
M  V30 20 1 6 18 CFG=3
M  V30 21 1 8 19
M  V30 22 1 9 20 CFG=1
M  V30 23 1 9 21
M  V30 24 1 10 22 CFG=3
M  V30 25 1 10 23
M  V30 26 1 11 24
M  V30 27 1 12 25
M  V30 28 1 15 26 CFG=1
M  V30 29 1 16 27 CFG=1
M  V30 30 1 6 28
M  V30 END BOND
M  V30 END CTAB
M  END
>  <Ligand_Instance>  (50) 
299_B_7

>  <Dataset>  (50) 
CF

>  <PDB_ID>  (50) 
None

>  <Chain>  (50) 
B

>  <Resi>  (50) 
7

>  <Num_Resolved_Atoms>  (50) 
16

>  <Num_H_Atoms_ProtBoundConf>  (50) 
12

>  <Pocket>  (50) 
A

>  <SMILES>  (50) 
O=S1(N[C@H](CNC2)[C@H]2Oc2c1cccn2)=O

>  <Name>  (50) 
(3S,7R)‐2‐oxa‐9lambda6‐thia‐5,8,14‐triazatricyclo[8.4.0.0]tetradeca‐1(10),11,13‐triene‐9,9‐dione

>  <Num_Heavy_Atoms>  (50) 
16

>  <Num_Not_Resolved_Atoms>  (50) 
0

>  <ATP_Site>  (50) 
True

>  <Peripheral>  (50) 
True

>  <Standardized_SMILES>  (50) 
[H]C1=C([H])C([H])=C2C(=N1)O[C@@]1([H])C([H])([H])[N+]([H])([H])C([H])([H])[C@@]1([H])N([H])S2(=O)=O

$$$$
F299
     RDKit          3D

  0  0  0  0  0  0  0  0  0  0999 V3000
M  V30 BEGIN CTAB
M  V30 COUNTS 28 30 0 0 0
M  V30 BEGIN ATOM
M  V30 1 S 1.730000 -3.099000 -23.091000 0 CFG=2
M  V30 2 O 1.500000 -2.744000 -21.698000 0
M  V30 3 O 0.854000 -4.034000 -23.749000 0
M  V30 4 O 3.962000 -0.901000 -23.907000 0
M  V30 5 N 3.252000 -3.820000 -23.117000 0
M  V30 6 N 5.600000 -1.244000 -21.918000 0 CFG=2 CHG=1
M  V30 7 N 2.391000 0.306000 -25.089000 0
M  V30 8 C 1.132000 0.591000 -25.563000 0
M  V30 9 C 6.085000 -1.512000 -23.289000 0 CFG=2
M  V30 10 C 4.569000 -2.262000 -21.636000 0 CFG=2
M  V30 11 C 0.101000 -0.206000 -25.284000 0
M  V30 12 C 0.375000 -1.375000 -24.477000 0
M  V30 13 C 1.617000 -1.645000 -24.018000 0
M  V30 14 C 2.647000 -0.832000 -24.333000 0
M  V30 15 C 4.824000 -2.030000 -23.981000 0 CFG=1
M  V30 16 C 4.530000 -3.091000 -22.914000 0 CFG=2
M  V30 17 H 3.329100 -4.253600 -24.014800 0
M  V30 18 H 5.204900 -0.327000 -21.863700 0
M  V30 19 H 0.988300 1.406300 -26.123900 0
M  V30 20 H 6.808500 -2.202300 -23.289400 0
M  V30 21 H 6.420800 -0.676900 -23.724700 0
M  V30 22 H 3.682500 -1.834000 -21.460200 0
M  V30 23 H 4.828200 -2.825800 -20.851800 0
M  V30 24 H -0.820200 -0.005100 -25.617300 0
M  V30 25 H -0.373600 -1.999100 -24.253200 0
M  V30 26 H 4.967900 -2.389500 -24.903000 0
M  V30 27 H 5.281200 -3.750900 -22.896300 0
M  V30 28 H 6.351900 -1.322300 -21.263400 0
M  V30 END ATOM
M  V30 BEGIN BOND
M  V30 1 2 1 2
M  V30 2 2 1 3
M  V30 3 1 1 5 CFG=1
M  V30 4 1 1 13
M  V30 5 1 4 14
M  V30 6 1 4 15
M  V30 7 1 5 16
M  V30 8 1 6 9
M  V30 9 1 6 10
M  V30 10 1 7 8
M  V30 11 2 7 14
M  V30 12 2 8 11
M  V30 13 1 9 15
M  V30 14 1 10 16
M  V30 15 1 11 12
M  V30 16 2 12 13
M  V30 17 1 13 14
M  V30 18 1 15 16
M  V30 19 1 5 17
M  V30 20 1 6 18 CFG=3
M  V30 21 1 8 19
M  V30 22 1 9 20 CFG=1
M  V30 23 1 9 21
M  V30 24 1 10 22 CFG=1
M  V30 25 1 10 23
M  V30 26 1 11 24
M  V30 27 1 12 25
M  V30 28 1 15 26 CFG=3
M  V30 29 1 16 27 CFG=1
M  V30 30 1 6 28
M  V30 END BOND
M  V30 END CTAB
M  END
>  <Ligand_Instance>  (51) 
299_B_8

>  <Dataset>  (51) 
CF

>  <PDB_ID>  (51) 
None

>  <Chain>  (51) 
B

>  <Resi>  (51) 
8

>  <Num_Resolved_Atoms>  (51) 
16

>  <Num_H_Atoms_ProtBoundConf>  (51) 
12

>  <Pocket>  (51) 
X

>  <SMILES>  (51) 
O=S1(N[C@H](CNC2)[C@H]2Oc2c1cccn2)=O

>  <Name>  (51) 
(3S,7R)‐2‐oxa‐9lambda6‐thia‐5,8,14‐triazatricyclo[8.4.0.0]tetradeca‐1(10),11,13‐triene‐9,9‐dione

>  <Num_Heavy_Atoms>  (51) 
16

>  <Num_Not_Resolved_Atoms>  (51) 
0

>  <ATP_Site>  (51) 
True

>  <Peripheral>  (51) 
True

>  <Standardized_SMILES>  (51) 
[H]C1=C([H])C([H])=C2C(=N1)O[C@@]1([H])C([H])([H])[N+]([H])([H])C([H])([H])[C@@]1([H])N([H])S2(=O)=O

$$$$
F304
     RDKit          3D

  0  0  0  0  0  0  0  0  0  0999 V3000
M  V30 BEGIN CTAB
M  V30 COUNTS 31 32 0 0 0
M  V30 BEGIN ATOM
M  V30 1 O -12.365000 -11.136000 -31.627000 0
M  V30 2 O -11.605000 -9.181000 -30.682000 0 CHG=-1
M  V30 3 O -12.649000 -11.894000 -34.154000 0
M  V30 4 O -11.262000 -7.972000 -32.948000 0
M  V30 5 O -12.314000 -7.462000 -40.640000 0
M  V30 6 N -11.313000 -7.506000 -34.326000 0
M  V30 7 C -13.566000 -7.331000 -41.258000 0 CFG=1
M  V30 8 C -14.721000 -10.625000 -34.168000 0 CFG=1
M  V30 9 C -11.152000 -7.625000 -38.596000 0
M  V30 10 C -13.441000 -8.024000 -38.512000 0
M  V30 11 C -11.083000 -7.838000 -37.258000 0
M  V30 12 C -13.365000 -8.264000 -37.157000 0
M  V30 13 C -12.006000 -9.812000 -31.655000 0
M  V30 14 C -13.257000 -10.688000 -34.632000 0 CFG=1
M  V30 15 C -12.335000 -7.696000 -39.248000 0
M  V30 16 C -12.009000 -9.182000 -32.975000 0
M  V30 17 C -12.040000 -8.444000 -35.030000 0
M  V30 18 C -12.184000 -8.168000 -36.483000 0
M  V30 19 C -12.443000 -9.490000 -34.230000 0
M  V30 20 H -12.239300 -11.727900 -33.257000 0
M  V30 21 H -13.439300 -7.168900 -42.236600 0
M  V30 22 H -14.093000 -8.170300 -41.124600 0
M  V30 23 H -14.058400 -6.560400 -40.853500 0
M  V30 24 H -15.141100 -9.782000 -34.503800 0
M  V30 25 H -15.219500 -11.412900 -34.529600 0
M  V30 26 H -14.754900 -10.639200 -33.168700 0
M  V30 27 H -10.318500 -7.413000 -39.106200 0
M  V30 28 H -14.327700 -8.091300 -38.969400 0
M  V30 29 H -10.193800 -7.752700 -36.808500 0
M  V30 30 H -14.194300 -8.514000 -36.657300 0
M  V30 31 H -13.259700 -10.728200 -35.631200 0
M  V30 END ATOM
M  V30 BEGIN BOND
M  V30 1 2 1 13
M  V30 2 1 2 13
M  V30 3 1 3 14
M  V30 4 1 4 6
M  V30 5 1 4 16
M  V30 6 1 5 7
M  V30 7 1 5 15
M  V30 8 2 6 17
M  V30 9 1 8 14
M  V30 10 2 9 11
M  V30 11 1 9 15
M  V30 12 1 10 12
M  V30 13 2 10 15
M  V30 14 1 11 18
M  V30 15 2 12 18
M  V30 16 1 13 16
M  V30 17 1 14 19
M  V30 18 2 16 19
M  V30 19 1 17 18
M  V30 20 1 17 19
M  V30 21 1 14 31 CFG=3
M  V30 22 1 3 20
M  V30 23 1 7 21 CFG=3
M  V30 24 1 7 22
M  V30 25 1 7 23
M  V30 26 1 8 24 CFG=3
M  V30 27 1 8 25
M  V30 28 1 8 26
M  V30 29 1 9 27
M  V30 30 1 10 28
M  V30 31 1 11 29
M  V30 32 1 12 30
M  V30 END BOND
M  V30 END CTAB
M  END
>  <Ligand_Instance>  (52) 
304_B_2

>  <Dataset>  (52) 
CF

>  <PDB_ID>  (52) 
None

>  <Chain>  (52) 
B

>  <Resi>  (52) 
2

>  <Num_Resolved_Atoms>  (52) 
19

>  <Num_H_Atoms_ProtBoundConf>  (52) 
12

>  <Pocket>  (52) 
X

>  <SMILES>  (52) 
C[C@@H](c1c(C(O)=O)[o]nc1-c(cc1)ccc1OC)O

>  <Name>  (52) 
4‐[(1S)‐1‐hydroxyethyl]‐3‐(4‐methoxyphenyl)‐1,2‐oxazole‐5‐carboxylic acid

>  <Num_Heavy_Atoms>  (52) 
19

>  <Num_Not_Resolved_Atoms>  (52) 
0

>  <ATP_Site>  (52) 
True

>  <Peripheral>  (52) 
True

>  <Standardized_SMILES>  (52) 
[H]O[C@]([H])(C1=C(C(=O)[O-])ON=C1C1=C([H])C([H])=C(OC([H])([H])[H])C([H])=C1[H])C([H])([H])[H]

$$$$
F304
     RDKit          3D

  0  0  0  0  0  0  0  0  0  0999 V3000
M  V30 BEGIN CTAB
M  V30 COUNTS 31 32 0 0 0
M  V30 BEGIN ATOM
M  V30 1 O -26.408000 19.258000 -42.265000 0
M  V30 2 O -25.506000 19.219000 -44.294000 0 CHG=-1
M  V30 3 O -25.600000 18.573000 -39.943000 0
M  V30 4 O -22.919000 19.697000 -43.123000 0
M  V30 5 O -18.100000 17.208000 -37.779000 0
M  V30 6 N -21.777000 19.425000 -42.262000 0
M  V30 7 C -16.851000 17.893000 -37.573000 0 CFG=1
M  V30 8 C -24.997000 16.397000 -40.799000 0 CFG=1
M  V30 9 C -19.025000 18.703000 -39.372000 0
M  V30 10 C -20.302000 16.885000 -38.716000 0
M  V30 11 C -20.037000 19.084000 -40.198000 0
M  V30 12 C -21.306000 17.236000 -39.535000 0
M  V30 13 C -25.344000 19.188000 -43.079000 0
M  V30 14 C -24.491000 17.742000 -40.268000 0 CFG=1
M  V30 15 C -19.145000 17.600000 -38.612000 0
M  V30 16 C -24.022000 19.086000 -42.404000 0
M  V30 17 C -22.275000 18.735000 -41.184000 0
M  V30 18 C -21.202000 18.372000 -40.265000 0
M  V30 19 C -23.610000 18.479000 -41.250000 0
M  V30 20 H -26.153600 18.725400 -40.761700 0
M  V30 21 H -16.293200 17.380100 -36.920500 0
M  V30 22 H -16.363500 17.966200 -38.443100 0
M  V30 23 H -17.028500 18.808600 -37.212300 0
M  V30 24 H -24.217200 15.814000 -41.027000 0
M  V30 25 H -25.553700 15.950300 -40.098600 0
M  V30 26 H -25.550400 16.548800 -41.618000 0
M  V30 27 H -18.186700 19.246600 -39.329800 0
M  V30 28 H -20.407000 16.062500 -38.157100 0
M  V30 29 H -19.926500 19.899400 -40.766200 0
M  V30 30 H -22.123200 16.664000 -39.605500 0
M  V30 31 H -23.965000 17.575500 -39.434000 0
M  V30 END ATOM
M  V30 BEGIN BOND
M  V30 1 2 1 13
M  V30 2 1 2 13
M  V30 3 1 3 14
M  V30 4 1 4 6
M  V30 5 1 4 16
M  V30 6 1 5 7
M  V30 7 1 5 15
M  V30 8 2 6 17
M  V30 9 1 8 14
M  V30 10 1 9 11
M  V30 11 2 9 15
M  V30 12 2 10 12
M  V30 13 1 10 15
M  V30 14 2 11 18
M  V30 15 1 12 18
M  V30 16 1 13 16
M  V30 17 1 14 19
M  V30 18 2 16 19
M  V30 19 1 17 18
M  V30 20 1 17 19
M  V30 21 1 14 31 CFG=1
M  V30 22 1 3 20
M  V30 23 1 7 21 CFG=1
M  V30 24 1 7 22
M  V30 25 1 7 23
M  V30 26 1 8 24 CFG=3
M  V30 27 1 8 25
M  V30 28 1 8 26
M  V30 29 1 9 27
M  V30 30 1 10 28
M  V30 31 1 11 29
M  V30 32 1 12 30
M  V30 END BOND
M  V30 END CTAB
M  END
>  <Ligand_Instance>  (53) 
304_B_5

>  <Dataset>  (53) 
CF

>  <PDB_ID>  (53) 
None

>  <Chain>  (53) 
B

>  <Resi>  (53) 
5

>  <Num_Resolved_Atoms>  (53) 
19

>  <Num_H_Atoms_ProtBoundConf>  (53) 
12

>  <Pocket>  (53) 
X

>  <SMILES>  (53) 
C[C@@H](c1c(C(O)=O)[o]nc1-c(cc1)ccc1OC)O

>  <Name>  (53) 
4‐[(1S)‐1‐hydroxyethyl]‐3‐(4‐methoxyphenyl)‐1,2‐oxazole‐5‐carboxylic acid

>  <Num_Heavy_Atoms>  (53) 
19

>  <Num_Not_Resolved_Atoms>  (53) 
0

>  <ATP_Site>  (53) 
True

>  <Peripheral>  (53) 
True

>  <Standardized_SMILES>  (53) 
[H]O[C@]([H])(C1=C(C(=O)[O-])ON=C1C1=C([H])C([H])=C(OC([H])([H])[H])C([H])=C1[H])C([H])([H])[H]

$$$$
F310
     RDKit          3D

  0  0  0  0  0  0  0  0  0  0999 V3000
M  V30 BEGIN CTAB
M  V30 COUNTS 43 44 0 0 0
M  V30 BEGIN ATOM
M  V30 1 O -19.541000 8.015000 -35.816000 0
M  V30 2 O -14.054000 5.868000 -30.127000 0
M  V30 3 O -19.071000 3.568000 -30.050000 0
M  V30 4 O -17.294000 5.410000 -32.737000 0
M  V30 5 N -15.719000 4.346000 -30.193000 0
M  V30 6 N -13.497000 3.652000 -29.909000 0
M  V30 7 C -18.825000 6.813000 -35.596000 0 CFG=2
M  V30 8 C -9.406000 3.677000 -28.830000 0
M  V30 9 C -10.092000 2.501000 -28.986000 0
M  V30 10 C -10.058000 4.863000 -29.105000 0
M  V30 11 C -16.673000 5.460000 -30.401000 0 CFG=2
M  V30 12 C -18.993000 6.360000 -34.155000 0 CFG=2
M  V30 13 C -18.936000 3.842000 -33.822000 0 CFG=2
M  V30 14 C -11.438000 2.493000 -29.365000 0
M  V30 15 C -11.388000 4.852000 -29.487000 0
M  V30 16 C -19.523000 3.593000 -32.437000 0 CFG=2
M  V30 17 C -14.385000 4.707000 -30.056000 0
M  V30 18 C -18.123000 5.123000 -33.886000 0 CFG=2
M  V30 19 C -18.474000 3.810000 -31.332000 0 CFG=1
M  V30 20 C -17.815000 5.196000 -31.406000 0 CFG=2
M  V30 21 C -12.111000 3.677000 -29.638000 0
M  V30 22 H -19.081200 8.552200 -36.523100 0
M  V30 23 H -18.375200 3.228700 -29.417000 0
M  V30 24 H -16.017300 3.392300 -30.153600 0
M  V30 25 H -13.896100 2.740600 -30.009500 0
M  V30 26 H -17.854800 6.967200 -35.783100 0
M  V30 27 H -19.173900 6.103600 -36.208300 0
M  V30 28 H -8.454100 3.676400 -28.523700 0
M  V30 29 H -9.621700 1.633100 -28.826000 0
M  V30 30 H -9.568100 5.731300 -29.027900 0
M  V30 31 H -16.154200 6.249700 -30.728300 0
M  V30 32 H -17.087600 5.676600 -29.517100 0
M  V30 33 H -19.952500 6.131900 -33.989700 0
M  V30 34 H -18.715600 7.099300 -33.541400 0
M  V30 35 H -19.685100 3.904000 -34.481600 0
M  V30 36 H -18.343200 3.073300 -34.062200 0
M  V30 37 H -11.923300 1.621900 -29.440600 0
M  V30 38 H -11.845600 5.724000 -29.660900 0
M  V30 39 H -19.854900 2.650900 -32.389400 0
M  V30 40 H -20.285500 4.222900 -32.289300 0
M  V30 41 H -17.506300 5.031600 -34.667900 0
M  V30 42 H -17.754600 3.127700 -31.462200 0
M  V30 43 H -18.526400 5.879900 -31.244400 0
M  V30 END ATOM
M  V30 BEGIN BOND
M  V30 1 1 1 7
M  V30 2 2 2 17
M  V30 3 1 3 19
M  V30 4 1 4 18
M  V30 5 1 4 20
M  V30 6 1 5 11
M  V30 7 1 5 17
M  V30 8 1 6 17
M  V30 9 1 6 21
M  V30 10 1 7 12
M  V30 11 2 8 9
M  V30 12 1 8 10
M  V30 13 1 9 14
M  V30 14 2 10 15
M  V30 15 1 11 20
M  V30 16 1 12 18
M  V30 17 1 13 16
M  V30 18 1 13 18
M  V30 19 2 14 21
M  V30 20 1 15 21
M  V30 21 1 16 19
M  V30 22 1 19 20
M  V30 23 1 1 22
M  V30 24 1 3 23
M  V30 25 1 5 24
M  V30 26 1 6 25
M  V30 27 1 7 26 CFG=3
M  V30 28 1 7 27
M  V30 29 1 8 28
M  V30 30 1 9 29
M  V30 31 1 10 30
M  V30 32 1 11 31 CFG=3
M  V30 33 1 11 32
M  V30 34 1 12 33 CFG=1
M  V30 35 1 12 34
M  V30 36 1 13 35 CFG=3
M  V30 37 1 13 36
M  V30 38 1 14 37
M  V30 39 1 15 38
M  V30 40 1 16 39 CFG=3
M  V30 41 1 16 40
M  V30 42 1 18 41 CFG=3
M  V30 43 1 19 42 CFG=3
M  V30 44 1 20 43 CFG=1
M  V30 END BOND
M  V30 END CTAB
M  END
>  <Ligand_Instance>  (54) 
310_B_1

>  <Dataset>  (54) 
CF

>  <PDB_ID>  (54) 
None

>  <Chain>  (54) 
B

>  <Resi>  (54) 
1

>  <Num_Resolved_Atoms>  (54) 
21

>  <Num_H_Atoms_ProtBoundConf>  (54) 
22

>  <Pocket>  (54) 
A

>  <SMILES>  (54) 
OCC[C@H](CC1)O[C@H](CNC(Nc2ccccc2)=O)[C@H]1O

>  <Name>  (54) 
3‐{[(2R,3S,6S)‐3‐hydroxy‐6‐(2‐hydroxyethyl)oxan‐2‐yl]methyl}‐1‐phenylurea

>  <Num_Heavy_Atoms>  (54) 
21

>  <Num_Not_Resolved_Atoms>  (54) 
0

>  <ATP_Site>  (54) 
True

>  <Peripheral>  (54) 
False

>  <Standardized_SMILES>  (54) 
[H]OC([H])([H])C([H])([H])[C@@]1([H])O[C@]([H])(C([H])([H])N([H])C(=O)N([H])C2=C([H])C([H])=C([H])C([H])=C2[H])[C@@]([H])(O[H])C([H])([H])C1([H])[H]

$$$$
F312
     RDKit          3D

  0  0  0  0  0  0  0  0  0  0999 V3000
M  V30 BEGIN CTAB
M  V30 COUNTS 34 35 0 0 0
M  V30 BEGIN ATOM
M  V30 1 O -14.868000 1.676000 -28.382000 0
M  V30 2 O -9.351000 2.829000 -28.559000 0
M  V30 3 O -15.437000 4.267000 -30.619000 0
M  V30 4 N -17.350000 4.088000 -27.971000 0 CFG=1 CHG=1
M  V30 5 N -12.049000 3.854000 -28.990000 0 CFG=2 CHG=1
M  V30 6 C -9.630000 4.216000 -28.302000 0 CFG=2
M  V30 7 C -10.485000 1.958000 -28.719000 0 CFG=2
M  V30 8 C -16.720000 3.679000 -30.341000 0 CFG=2
M  V30 9 C -10.898000 4.781000 -28.971000 0 CFG=2
M  V30 10 C -11.664000 2.528000 -29.521000 0 CFG=2
M  V30 11 C -13.229000 4.470000 -29.627000 0 CFG=2
M  V30 12 C -15.159000 3.064000 -28.607000 0 CFG=1
M  V30 13 C -14.433000 3.528000 -29.874000 0 CFG=1
M  V30 14 C -16.664000 3.176000 -28.896000 0 CFG=1
M  V30 15 H -15.641800 1.244000 -27.918700 0
M  V30 16 H -17.291400 3.725600 -27.040800 0
M  V30 17 H -16.915100 4.987800 -28.006200 0
M  V30 18 H -8.848900 4.750800 -28.624400 0
M  V30 19 H -9.727600 4.331100 -27.313500 0
M  V30 20 H -10.820800 1.722400 -27.807000 0
M  V30 21 H -10.171400 1.129600 -29.183100 0
M  V30 22 H -16.893500 2.917400 -30.965400 0
M  V30 23 H -17.442500 4.363200 -30.440900 0
M  V30 24 H -11.170300 5.606200 -28.476200 0
M  V30 25 H -10.672800 5.018000 -29.916000 0
M  V30 26 H -11.396900 2.621100 -30.480200 0
M  V30 27 H -12.443200 1.905100 -29.450900 0
M  V30 28 H -12.942300 4.839100 -30.511100 0
M  V30 29 H -13.539800 5.216800 -29.039000 0
M  V30 30 H -14.900000 3.620400 -27.817500 0
M  V30 31 H -14.136700 2.733200 -30.403600 0
M  V30 32 H -17.082400 2.269300 -28.842000 0
M  V30 33 H -18.310600 4.171500 -28.236300 0
M  V30 34 H -12.298700 3.705500 -28.033100 0
M  V30 END ATOM
M  V30 BEGIN BOND
M  V30 1 1 1 12
M  V30 2 1 2 6
M  V30 3 1 2 7
M  V30 4 1 3 8
M  V30 5 1 3 13
M  V30 6 1 4 14
M  V30 7 1 5 9
M  V30 8 1 5 10
M  V30 9 1 5 11
M  V30 10 1 6 9
M  V30 11 1 7 10
M  V30 12 1 8 14
M  V30 13 1 11 13
M  V30 14 1 12 13
M  V30 15 1 12 14
M  V30 16 1 1 15
M  V30 17 1 4 16 CFG=1
M  V30 18 1 4 17
M  V30 19 1 6 18 CFG=3
M  V30 20 1 6 19
M  V30 21 1 7 20 CFG=1
M  V30 22 1 7 21
M  V30 23 1 8 22 CFG=3
M  V30 24 1 8 23
M  V30 25 1 9 24 CFG=1
M  V30 26 1 9 25
M  V30 27 1 10 26 CFG=3
M  V30 28 1 10 27
M  V30 29 1 11 28 CFG=3
M  V30 30 1 11 29
M  V30 31 1 12 30 CFG=1
M  V30 32 1 13 31 CFG=3
M  V30 33 1 14 32 CFG=3
M  V30 34 1 4 33
M  V30 35 1 5 34 CFG=1
M  V30 END BOND
M  V30 END CTAB
M  END
>  <Ligand_Instance>  (55) 
312_A_401

>  <Dataset>  (55) 
CF

>  <PDB_ID>  (55) 
None

>  <Chain>  (55) 
A

>  <Resi>  (55) 
401

>  <Num_Resolved_Atoms>  (55) 
14

>  <Num_H_Atoms_ProtBoundConf>  (55) 
20

>  <Pocket>  (55) 
A

>  <SMILES>  (55) 
N[C@@H](CO[C@H]1CN2CCOCC2)[C@H]1O

>  <Name>  (55) 
(2S,3R,4S)‐4‐amino‐2‐[(morpholin‐4‐yl)methyl]oxolan‐3‐ol

>  <Num_Heavy_Atoms>  (55) 
14

>  <Num_Not_Resolved_Atoms>  (55) 
0

>  <ATP_Site>  (55) 
True

>  <Peripheral>  (55) 
False

>  <Standardized_SMILES>  (55) 
[H]O[C@@]1([H])[C@]([H])(C([H])([H])[N+]2([H])C([H])([H])C([H])([H])OC([H])([H])C2([H])[H])OC([H])([H])[C@]1([H])[N+]([H])([H])[H]

$$$$
F313
     RDKit          3D

  0  0  0  0  0  0  0  0  0  0999 V3000
M  V30 BEGIN CTAB
M  V30 COUNTS 35 35 0 0 0
M  V30 BEGIN ATOM
M  V30 1 O -2.369000 9.028000 -16.971000 0
M  V30 2 O -4.099000 11.989000 -17.829000 0
M  V30 3 N -3.648000 8.832000 -19.687000 0 CFG=1 CHG=1
M  V30 4 N -3.526000 12.705000 -14.710000 0 CFG=1 CHG=1
M  V30 5 C -5.578000 14.134000 -15.232000 0 CFG=1
M  V30 6 C -3.164000 13.692000 -12.464000 0 CFG=1
M  V30 7 C -3.976000 11.314000 -19.106000 0 CFG=2
M  V30 8 C -4.074000 13.932000 -15.371000 0 CFG=2
M  V30 9 C -3.921000 12.651000 -13.282000 0 CFG=2
M  V30 10 C -3.943000 11.465000 -15.410000 0 CFG=2
M  V30 11 C -3.563000 9.819000 -17.242000 0 CFG=1
M  V30 12 C -3.380000 11.268000 -16.835000 0 CFG=1
M  V30 13 C -4.093000 9.843000 -18.704000 0 CFG=2
M  V30 14 H -1.559600 9.610800 -17.043100 0
M  V30 15 H -3.775800 7.916700 -19.305000 0
M  V30 16 H -4.186800 8.921800 -20.524700 0
M  V30 17 H -5.846500 14.974100 -15.703300 0
M  V30 18 H -6.057700 13.356200 -15.638000 0
M  V30 19 H -5.816800 14.204300 -14.263500 0
M  V30 20 H -3.448000 13.634800 -11.506900 0
M  V30 21 H -2.181400 13.518500 -12.531100 0
M  V30 22 H -3.366200 14.605300 -12.817700 0
M  V30 23 H -3.092200 11.504200 -19.533400 0
M  V30 24 H -4.711600 11.579500 -19.729200 0
M  V30 25 H -3.858800 13.879200 -16.346100 0
M  V30 26 H -3.617900 14.727200 -14.971600 0
M  V30 27 H -3.717800 11.740900 -12.921000 0
M  V30 28 H -4.902500 12.827600 -13.207600 0
M  V30 29 H -4.941000 11.470800 -15.473700 0
M  V30 30 H -3.648900 10.687000 -14.854900 0
M  V30 31 H -4.295400 9.446200 -16.672300 0
M  V30 32 H -2.411300 11.515000 -16.861400 0
M  V30 33 H -5.076700 9.687000 -18.614600 0
M  V30 34 H -2.680400 8.973700 -19.896200 0
M  V30 35 H -2.528100 12.756900 -14.749100 0
M  V30 END ATOM
M  V30 BEGIN BOND
M  V30 1 1 1 11
M  V30 2 1 2 7
M  V30 3 1 2 12
M  V30 4 1 3 13
M  V30 5 1 4 8
M  V30 6 1 4 9
M  V30 7 1 4 10
M  V30 8 1 5 8
M  V30 9 1 6 9
M  V30 10 1 7 13
M  V30 11 1 10 12
M  V30 12 1 11 12
M  V30 13 1 11 13
M  V30 14 1 1 14
M  V30 15 1 3 15 CFG=1
M  V30 16 1 3 16
M  V30 17 1 5 17 CFG=3
M  V30 18 1 5 18
M  V30 19 1 5 19
M  V30 20 1 6 20 CFG=1
M  V30 21 1 6 21
M  V30 22 1 6 22
M  V30 23 1 7 23 CFG=3
M  V30 24 1 7 24
M  V30 25 1 8 25 CFG=3
M  V30 26 1 8 26
M  V30 27 1 9 27 CFG=1
M  V30 28 1 9 28
M  V30 29 1 10 29 CFG=3
M  V30 30 1 10 30
M  V30 31 1 11 31 CFG=1
M  V30 32 1 12 32 CFG=1
M  V30 33 1 13 33 CFG=1
M  V30 34 1 3 34
M  V30 35 1 4 35 CFG=1
M  V30 END BOND
M  V30 END CTAB
M  END
>  <Ligand_Instance>  (56) 
313_A_401

>  <Dataset>  (56) 
CF

>  <PDB_ID>  (56) 
None

>  <Chain>  (56) 
A

>  <Resi>  (56) 
401

>  <Num_Resolved_Atoms>  (56) 
13

>  <Num_H_Atoms_ProtBoundConf>  (56) 
22

>  <Pocket>  (56) 
X

>  <SMILES>  (56) 
CCN(CC)C[C@@H]([C@@H]1O)OCC1N

>  <Name>  (56) 
(2S,3R)‐4‐amino‐2‐[(diethylamino)methyl]oxolan‐3‐ol

>  <Num_Heavy_Atoms>  (56) 
13

>  <Num_Not_Resolved_Atoms>  (56) 
0

>  <ATP_Site>  (56) 
False

>  <Peripheral>  (56) 
True

>  <Standardized_SMILES>  (56) 
[H]O[C@@]1([H])[C@]([H])(C([H])([H])[N+]([H])(C([H])([H])C([H])([H])[H])C([H])([H])C([H])([H])[H])OC([H])([H])[C@@]1([H])[N+]([H])([H])[H]

$$$$
F322
     RDKit          3D

  0  0  0  0  0  0  0  0  0  0999 V3000
M  V30 BEGIN CTAB
M  V30 COUNTS 42 43 0 0 0
M  V30 BEGIN ATOM
M  V30 1 O -2.031000 9.528000 -16.842000 0
M  V30 2 O -4.417000 11.933000 -17.733000 0
M  V30 3 N -3.862000 8.935000 -19.571000 0 CFG=1 CHG=1
M  V30 4 N -3.722000 12.827000 -14.640000 0 CFG=1 CHG=1
M  V30 5 C -4.653000 13.819000 -15.207000 0 CFG=1
M  V30 6 C -4.169000 11.375000 -19.088000 0 CFG=2
M  V30 7 C -4.031000 12.550000 -13.202000 0 CFG=2
M  V30 8 C -3.793000 11.503000 -15.324000 0 CFG=2
M  V30 9 C -3.993000 12.836000 -8.085000 0
M  V30 10 C -5.022000 13.445000 -8.706000 0
M  V30 11 C -2.867000 12.509000 -8.779000 0
M  V30 12 C -3.577000 13.696000 -12.272000 0 CFG=2
M  V30 13 C -4.878000 13.704000 -10.052000 0
M  V30 14 C -2.728000 12.792000 -10.101000 0
M  V30 15 C -3.308000 9.989000 -17.314000 0 CFG=1
M  V30 16 C -3.385000 11.436000 -16.833000 0 CFG=1
M  V30 17 C -3.308000 10.112000 -18.875000 0 CFG=1
M  V30 18 C -3.748000 13.392000 -10.769000 0
M  V30 19 H -2.000600 9.594000 -15.844600 0
M  V30 20 H -3.274300 8.142900 -19.405900 0
M  V30 21 H -4.781200 8.745700 -19.225800 0
M  V30 22 H -4.422000 13.982900 -16.166100 0
M  V30 23 H -5.588800 13.472000 -15.144100 0
M  V30 24 H -4.579900 14.675200 -14.695500 0
M  V30 25 H -3.678900 12.038700 -19.653000 0
M  V30 26 H -5.033900 11.135900 -19.529200 0
M  V30 27 H -3.562600 11.709800 -12.928800 0
M  V30 28 H -5.018600 12.428200 -13.103300 0
M  V30 29 H -4.738100 11.183200 -15.256500 0
M  V30 30 H -3.193000 10.877500 -14.825200 0
M  V30 31 H -4.056000 12.623000 -7.110000 0
M  V30 32 H -5.853800 13.698000 -8.211900 0
M  V30 33 H -2.120100 12.046700 -8.301100 0
M  V30 34 H -4.114800 14.510100 -12.491000 0
M  V30 35 H -2.609600 13.878500 -12.447500 0
M  V30 36 H -5.637000 14.142800 -10.533000 0
M  V30 37 H -1.880800 12.560200 -10.579000 0
M  V30 38 H -4.065600 9.431800 -16.974000 0
M  V30 39 H -2.518200 11.909700 -16.988900 0
M  V30 40 H -2.377000 10.283600 -19.197100 0
M  V30 41 H -3.906000 9.118600 -20.553000 0
M  V30 42 H -2.788800 13.179600 -14.710000 0
M  V30 END ATOM
M  V30 BEGIN BOND
M  V30 1 1 1 15
M  V30 2 1 2 6
M  V30 3 1 2 16
M  V30 4 1 3 17
M  V30 5 1 4 5
M  V30 6 1 4 7
M  V30 7 1 4 8
M  V30 8 1 6 17
M  V30 9 1 7 12
M  V30 10 1 8 16
M  V30 11 2 9 10
M  V30 12 1 9 11
M  V30 13 1 10 13
M  V30 14 2 11 14
M  V30 15 1 12 18
M  V30 16 2 13 18
M  V30 17 1 14 18
M  V30 18 1 15 16
M  V30 19 1 15 17
M  V30 20 1 1 19
M  V30 21 1 3 20 CFG=3
M  V30 22 1 3 21
M  V30 23 1 5 22 CFG=3
M  V30 24 1 5 23
M  V30 25 1 5 24
M  V30 26 1 6 25 CFG=3
M  V30 27 1 6 26
M  V30 28 1 7 27 CFG=1
M  V30 29 1 7 28
M  V30 30 1 8 29 CFG=3
M  V30 31 1 8 30
M  V30 32 1 9 31
M  V30 33 1 10 32
M  V30 34 1 11 33
M  V30 35 1 12 34 CFG=3
M  V30 36 1 12 35
M  V30 37 1 13 36
M  V30 38 1 14 37
M  V30 39 1 15 38 CFG=3
M  V30 40 1 16 39 CFG=1
M  V30 41 1 17 40 CFG=3
M  V30 42 1 3 41
M  V30 43 1 4 42 CFG=1
M  V30 END BOND
M  V30 END CTAB
M  END
>  <Ligand_Instance>  (57) 
322_A_501

>  <Dataset>  (57) 
CF

>  <PDB_ID>  (57) 
None

>  <Chain>  (57) 
A

>  <Resi>  (57) 
501

>  <Num_Resolved_Atoms>  (57) 
18

>  <Num_H_Atoms_ProtBoundConf>  (57) 
24

>  <Pocket>  (57) 
X

>  <SMILES>  (57) 
CN(CCc1ccccc1)C[C@@H]([C@@H]1O)OC[C@@H]1N

>  <Name>  (57) 
(2S,3R,4S)‐4‐amino‐2‐{[methyl(2‐phenylethyl)amino]methyl}oxolan‐3‐ol

>  <Num_Heavy_Atoms>  (57) 
18

>  <Num_Not_Resolved_Atoms>  (57) 
0

>  <ATP_Site>  (57) 
False

>  <Peripheral>  (57) 
True

>  <Standardized_SMILES>  (57) 
[H]O[C@@]1([H])[C@]([H])(C([H])([H])[N@@+]([H])(C([H])([H])[H])C([H])([H])C([H])([H])C2=C([H])C([H])=C([H])C([H])=C2[H])OC([H])([H])[C@]1([H])[N+]([H])([H])[H]

$$$$
0RW
     RDKit          3D

  0  0  0  0  0  0  0  0  0  0999 V3000
M  V30 BEGIN CTAB
M  V30 COUNTS 18 19 0 0 0
M  V30 BEGIN ATOM
M  V30 1 N 2.856000 9.936000 3.768000 0
M  V30 2 N 2.910000 9.900000 2.426000 0
M  V30 3 C 4.384000 10.042000 5.769000 0 CFG=1
M  V30 4 C 6.194000 9.959000 0.616000 0
M  V30 5 C 6.980000 10.008000 1.776000 0
M  V30 6 C 4.798000 9.918000 0.715000 0
M  V30 7 C 6.372000 10.021000 3.046000 0
M  V30 8 C 4.084000 9.989000 4.289000 0
M  V30 9 C 4.206000 9.930000 1.954000 0
M  V30 10 C 4.998000 9.982000 3.154000 0
M  V30 11 H 2.103200 9.856400 1.836800 0
M  V30 12 H 5.373800 10.076400 5.907500 0
M  V30 13 H 3.963400 10.858100 6.165300 0
M  V30 14 H 4.013300 9.226600 6.213700 0
M  V30 15 H 6.631100 9.953300 -0.283400 0
M  V30 16 H 7.976900 10.033800 1.701100 0
M  V30 17 H 4.235700 9.880200 -0.111100 0
M  V30 18 H 6.937100 10.058500 3.870200 0
M  V30 END ATOM
M  V30 BEGIN BOND
M  V30 1 1 1 2
M  V30 2 2 1 8
M  V30 3 1 2 9
M  V30 4 1 3 8
M  V30 5 2 4 5
M  V30 6 1 4 6
M  V30 7 1 5 7
M  V30 8 2 6 9
M  V30 9 2 7 10
M  V30 10 1 8 10
M  V30 11 1 9 10
M  V30 12 1 2 11
M  V30 13 1 3 12 CFG=3
M  V30 14 1 3 13
M  V30 15 1 3 14
M  V30 16 1 4 15
M  V30 17 1 5 16
M  V30 18 1 6 17
M  V30 19 1 7 18
M  V30 END BOND
M  V30 END CTAB
M  END
>  <Ligand_Instance>  (58) 
4YXR_0RW_A_401

>  <Dataset>  (58) 
PDB

>  <PDB_ID>  (58) 
4YXR

>  <Chain>  (58) 
A

>  <Resi>  (58) 
401

>  <Num_Resolved_Atoms>  (58) 
10

>  <Num_H_Atoms_ProtBoundConf>  (58) 
8

>  <Pocket>  (58) 
A

>  <SMILES>  (58) 
Cc1c2ccccc2n[nH]1

>  <Name>  (58) 
3-methyl-2H-indazole

>  <Num_Heavy_Atoms>  (58) 
10

>  <Num_Not_Resolved_Atoms>  (58) 
0

>  <ATP_Site>  (58) 
True

>  <Peripheral>  (58) 
False

>  <Standardized_SMILES>  (58) 
[H]C1=C([H])C([H])=C2C(=C1[H])C(C([H])([H])[H])=NN2[H]

$$$$
152
     RDKit          3D

  0  0  0  0  0  0  0  0  0  0999 V3000
M  V30 BEGIN CTAB
M  V30 COUNTS 26 25 0 0 0
M  V30 BEGIN ATOM
M  V30 1 O 1.953000 -1.497000 -30.715000 0
M  V30 2 O 1.067000 0.449000 -30.186000 0 CHG=-1
M  V30 3 O 4.160000 -2.326000 -29.357000 0
M  V30 4 N 6.404000 -0.668000 -30.919000 0 CFG=1 CHG=1
M  V30 5 C 6.789000 -2.108000 -30.783000 0 CFG=1
M  V30 6 C 7.214000 0.154000 -29.970000 0 CFG=1
M  V30 7 C 6.721000 -0.238000 -32.308000 0 CFG=1
M  V30 8 C 4.914000 -0.480000 -30.697000 0 CFG=2
M  V30 9 C 3.048000 -0.200000 -29.039000 0 CFG=2
M  V30 10 C 1.948000 -0.432000 -30.071000 0
M  V30 11 C 4.372000 -0.912000 -29.304000 0 CFG=1
M  V30 12 H 3.228000 -2.511900 -29.668200 0
M  V30 13 H 6.247500 -2.659200 -31.417800 0
M  V30 14 H 7.760600 -2.214600 -30.994200 0
M  V30 15 H 6.616100 -2.412200 -29.846200 0
M  V30 16 H 6.957600 1.116400 -30.060000 0
M  V30 17 H 7.041000 -0.150900 -29.033500 0
M  V30 18 H 8.185500 0.046700 -30.181400 0
M  V30 19 H 6.472100 0.723500 -32.424300 0
M  V30 20 H 7.700100 -0.351600 -32.476900 0
M  V30 21 H 6.203900 -0.796900 -32.956200 0
M  V30 22 H 4.431500 -1.013300 -31.391800 0
M  V30 23 H 4.706700 0.490700 -30.818300 0
M  V30 24 H 2.705900 -0.509500 -28.151800 0
M  V30 25 H 3.230600 0.782500 -29.001500 0
M  V30 26 H 5.034900 -0.687700 -28.589700 0
M  V30 END ATOM
M  V30 BEGIN BOND
M  V30 1 2 1 10
M  V30 2 1 2 10
M  V30 3 1 3 11
M  V30 4 1 4 5
M  V30 5 1 4 6
M  V30 6 1 4 7
M  V30 7 1 4 8 CFG=1
M  V30 8 1 8 11
M  V30 9 1 9 10
M  V30 10 1 9 11
M  V30 11 1 11 26 CFG=1
M  V30 12 1 3 12
M  V30 13 1 5 13 CFG=3
M  V30 14 1 5 14
M  V30 15 1 5 15
M  V30 16 1 6 16 CFG=1
M  V30 17 1 6 17
M  V30 18 1 6 18
M  V30 19 1 7 19 CFG=1
M  V30 20 1 7 20
M  V30 21 1 7 21
M  V30 22 1 8 22 CFG=3
M  V30 23 1 8 23
M  V30 24 1 9 24 CFG=1
M  V30 25 1 9 25
M  V30 END BOND
M  V30 END CTAB
M  END
>  <Ligand_Instance>  (59) 
5N3N_152_A_403

>  <Dataset>  (59) 
PDB

>  <PDB_ID>  (59) 
5N3N

>  <Chain>  (59) 
A

>  <Resi>  (59) 
403

>  <Num_Resolved_Atoms>  (59) 
11

>  <Num_H_Atoms_ProtBoundConf>  (59) 
15

>  <Pocket>  (59) 
X

>  <SMILES>  (59) 
C[N+](C)(C)C[C@@H](CC(=O)O)O

>  <Name>  (59) 
CARNITINE

>  <Num_Heavy_Atoms>  (59) 
11

>  <Num_Not_Resolved_Atoms>  (59) 
0

>  <ATP_Site>  (59) 
False

>  <Peripheral>  (59) 
True

>  <Standardized_SMILES>  (59) 
[H]O[C@]([H])(C([H])([H])C(=O)[O-])C([H])([H])[N+](C([H])([H])[H])(C([H])([H])[H])C([H])([H])[H]

$$$$
15I
     RDKit          3D

  0  0  0  0  0  0  0  0  0  0999 V3000
M  V30 BEGIN CTAB
M  V30 COUNTS 41 44 0 0 0
M  V30 BEGIN ATOM
M  V30 1 N -25.210000 -7.122000 -2.720000 0 CFG=2 CHG=1
M  V30 2 N -33.393000 -9.859000 -4.245000 0
M  V30 3 N -33.448000 -9.869000 -1.813000 0
M  V30 4 N -31.206000 -10.135000 -5.211000 0
M  V30 5 N -31.257000 -10.029000 -1.378000 0
M  V30 6 N -29.299000 -10.313000 -3.950000 0
M  V30 7 C -32.533000 -9.990000 -5.258000 0
M  V30 8 C -32.476000 -9.969000 -0.878000 0
M  V30 9 C -24.018000 -7.984000 -2.752000 0 CFG=2
M  V30 10 C -28.466000 -10.368000 -2.745000 0 CFG=2
M  V30 11 C -28.481000 -10.219000 -5.166000 0 CFG=2
M  V30 12 C -26.203000 -7.371000 -3.820000 0 CFG=2
M  V30 13 C -24.461000 -9.489000 -2.783000 0 CFG=2
M  V30 14 C -27.648000 -9.087000 -2.650000 0 CFG=2
M  V30 15 C -27.539000 -9.024000 -5.158000 0 CFG=2
M  V30 16 C -25.495000 -9.802000 -3.869000 0 CFG=2
M  V30 17 C -32.820000 -9.890000 -3.026000 0
M  V30 18 C -30.705000 -10.129000 -3.954000 0
M  V30 19 C -31.465000 -10.004000 -2.750000 0
M  V30 20 C -26.718000 -8.859000 -3.862000 0 CFG=1
M  V30 21 H -24.907100 -6.171200 -2.784800 0
M  V30 22 H -32.935800 -9.978000 -6.173200 0
M  V30 23 H -32.664500 -9.995100 0.103700 0
M  V30 24 H -23.463600 -7.816500 -1.936800 0
M  V30 25 H -23.479700 -7.778100 -3.569200 0
M  V30 26 H -27.851600 -11.155200 -2.797600 0
M  V30 27 H -29.049500 -10.454000 -1.937500 0
M  V30 28 H -29.090600 -10.139000 -5.954700 0
M  V30 29 H -27.936400 -11.053500 -5.249000 0
M  V30 30 H -25.768000 -7.159900 -4.695300 0
M  V30 31 H -26.987700 -6.766300 -3.683400 0
M  V30 32 H -24.856300 -9.720500 -1.894100 0
M  V30 33 H -23.651600 -10.053500 -2.945100 0
M  V30 34 H -27.086400 -9.130600 -1.823800 0
M  V30 35 H -28.278000 -8.313200 -2.584400 0
M  V30 36 H -28.084700 -8.196300 -5.288500 0
M  V30 37 H -26.900200 -9.125800 -5.920600 0
M  V30 38 H -25.819100 -10.738400 -3.734200 0
M  V30 39 H -25.047000 -9.729400 -4.760100 0
M  V30 40 H -25.673300 -7.265400 -1.845500 0
M  V30 41 H -34.431600 -9.794400 -1.648900 0
M  V30 END ATOM
M  V30 BEGIN BOND
M  V30 1 1 1 9
M  V30 2 1 1 12
M  V30 3 2 2 7
M  V30 4 1 2 17
M  V30 5 1 3 8
M  V30 6 1 3 17
M  V30 7 1 4 7
M  V30 8 2 4 18
M  V30 9 2 5 8
M  V30 10 1 5 19
M  V30 11 1 6 10
M  V30 12 1 6 11
M  V30 13 1 6 18
M  V30 14 1 9 13
M  V30 15 1 10 14
M  V30 16 1 11 15
M  V30 17 1 20 12 CFG=1
M  V30 18 1 13 16
M  V30 19 1 14 20
M  V30 20 1 15 20
M  V30 21 1 16 20
M  V30 22 2 17 19
M  V30 23 1 18 19
M  V30 24 1 1 21 CFG=1
M  V30 25 1 3 41
M  V30 26 1 7 22
M  V30 27 1 8 23
M  V30 28 1 9 24 CFG=1
M  V30 29 1 9 25
M  V30 30 1 10 26 CFG=3
M  V30 31 1 10 27
M  V30 32 1 11 28 CFG=3
M  V30 33 1 11 29
M  V30 34 1 12 30 CFG=3
M  V30 35 1 12 31
M  V30 36 1 13 32 CFG=1
M  V30 37 1 13 33
M  V30 38 1 14 34 CFG=1
M  V30 39 1 14 35
M  V30 40 1 15 36 CFG=3
M  V30 41 1 15 37
M  V30 42 1 16 38 CFG=1
M  V30 43 1 16 39
M  V30 44 1 1 40
M  V30 END BOND
M  V30 END CTAB
M  END
>  <Ligand_Instance>  (60) 
3ZO2_15I_A_1351

>  <Dataset>  (60) 
PDB

>  <PDB_ID>  (60) 
3ZO2

>  <Chain>  (60) 
A

>  <Resi>  (60) 
1351

>  <Num_Resolved_Atoms>  (60) 
20

>  <Num_H_Atoms_ProtBoundConf>  (60) 
21

>  <Pocket>  (60) 
A

>  <SMILES>  (60) 
c1[nH]c2c(n1)c(ncn2)N3CCC4(CCCNC4)CC3

>  <Name>  (60) 
6-(2,9-Diazaspiro[5.5]undecan-9-yl)-9H-purine

>  <Num_Heavy_Atoms>  (60) 
20

>  <Num_Not_Resolved_Atoms>  (60) 
0

>  <ATP_Site>  (60) 
True

>  <Peripheral>  (60) 
False

>  <Standardized_SMILES>  (60) 
[H]C1=NC2=C(N=C([H])N2[H])C(N2C([H])([H])C([H])([H])C3(C([H])([H])C2([H])[H])C([H])([H])C([H])([H])C([H])([H])[N+]([H])([H])C3([H])[H])=N1

$$$$
1LQ
     RDKit          3D

  0  0  0  0  0  0  0  0  0  0999 V3000
M  V30 BEGIN CTAB
M  V30 COUNTS 18 19 0 0 0
M  V30 BEGIN ATOM
M  V30 1 N -17.564000 -24.044000 23.343000 0
M  V30 2 N -17.280000 -26.329000 23.559000 0
M  V30 3 N -15.841000 -27.303000 25.204000 0
M  V30 4 C -16.702000 -27.347000 24.201000 0
M  V30 5 C -14.094000 -24.677000 27.037000 0
M  V30 6 C -14.625000 -23.526000 26.472000 0
M  V30 7 C -14.515000 -25.915000 26.635000 0
M  V30 8 C -15.573000 -23.608000 25.495000 0
M  V30 9 C -16.972000 -25.081000 23.957000 0
M  V30 10 C -15.493000 -26.042000 25.620000 0
M  V30 11 C -16.031000 -24.867000 25.034000 0
M  V30 12 H -17.349500 -23.108300 23.623100 0
M  V30 13 H -18.219400 -24.207400 22.605600 0
M  V30 14 H -16.952500 -28.261100 23.882200 0
M  V30 15 H -13.394400 -24.600400 27.747400 0
M  V30 16 H -14.310100 -22.629500 26.783700 0
M  V30 17 H -14.129900 -26.734000 27.060300 0
M  V30 18 H -15.949100 -22.770100 25.099500 0
M  V30 END ATOM
M  V30 BEGIN BOND
M  V30 1 1 1 9
M  V30 2 1 2 4
M  V30 3 2 2 9
M  V30 4 2 3 4
M  V30 5 1 3 10
M  V30 6 2 5 6
M  V30 7 1 5 7
M  V30 8 1 6 8
M  V30 9 2 7 10
M  V30 10 2 8 11
M  V30 11 1 9 11
M  V30 12 1 10 11
M  V30 13 1 1 12
M  V30 14 1 1 13
M  V30 15 1 4 14
M  V30 16 1 5 15
M  V30 17 1 6 16
M  V30 18 1 7 17
M  V30 19 1 8 18
M  V30 END BOND
M  V30 END CTAB
M  END
>  <Ligand_Instance>  (61) 
6Y0B_1LQ_A_401

>  <Dataset>  (61) 
PDB

>  <PDB_ID>  (61) 
6Y0B

>  <Chain>  (61) 
A

>  <Resi>  (61) 
401

>  <Num_Resolved_Atoms>  (61) 
11

>  <Num_H_Atoms_ProtBoundConf>  (61) 
7

>  <Pocket>  (61) 
A

>  <SMILES>  (61) 
c1ccc2c(c1)c(ncn2)N

>  <Name>  (61) 
quinazolin-4-amine

>  <Num_Heavy_Atoms>  (61) 
11

>  <Num_Not_Resolved_Atoms>  (61) 
0

>  <ATP_Site>  (61) 
True

>  <Peripheral>  (61) 
False

>  <Standardized_SMILES>  (61) 
[H]C1=NC2=C([H])C([H])=C([H])C([H])=C2C(N([H])[H])=N1

$$$$
1SB
     RDKit          3D

  0  0  0  0  0  0  0  0  0  0999 V3000
M  V30 BEGIN CTAB
M  V30 COUNTS 37 38 0 0 0
M  V30 BEGIN ATOM
M  V30 1 O -8.664000 -8.040000 20.992000 0
M  V30 2 O -8.751000 -15.748000 16.537000 0
M  V30 3 O -5.532000 -2.884000 21.978000 0
M  V30 4 N -8.806000 -9.651000 18.750000 0
M  V30 5 N -8.817000 -8.250000 18.813000 0
M  V30 6 C -6.645000 -2.174000 22.603000 0 CFG=1
M  V30 7 C -8.945000 -10.121000 17.562000 0
M  V30 8 C -4.826000 -5.493000 19.666000 0
M  V30 9 C -8.877000 -13.957000 18.141000 0
M  V30 10 C -8.789000 -13.464000 15.854000 0
M  V30 11 C -4.643000 -4.486000 20.551000 0
M  V30 12 C -6.103000 -5.926000 19.479000 0
M  V30 13 C -8.960000 -12.575000 18.475000 0
M  V30 14 C -8.845000 -12.096000 16.164000 0
M  V30 15 C -8.503000 -5.955000 19.825000 0 CFG=2
M  V30 16 C -7.048000 -4.326000 20.992000 0
M  V30 17 C -8.661000 -7.485000 19.901000 0
M  V30 18 C -8.807000 -14.425000 16.859000 0
M  V30 19 C -5.735000 -3.922000 21.152000 0
M  V30 20 C -8.924000 -11.627000 17.470000 0
M  V30 21 C -7.195000 -5.383000 20.112000 0
M  V30 22 H -8.760000 -16.439300 17.259500 0
M  V30 23 H -8.957100 -7.768000 17.948100 0
M  V30 24 H -6.289500 -1.437700 23.178800 0
M  V30 25 H -7.234200 -1.787400 21.893500 0
M  V30 26 H -7.173300 -2.810800 23.164600 0
M  V30 27 H -9.058300 -9.534000 16.760400 0
M  V30 28 H -4.058100 -5.900600 19.171800 0
M  V30 29 H -8.869500 -14.622800 18.887100 0
M  V30 30 H -8.735400 -13.751300 14.897700 0
M  V30 31 H -3.722200 -4.158500 20.762900 0
M  V30 32 H -6.255200 -6.683400 18.844000 0
M  V30 33 H -9.043800 -12.292400 19.430600 0
M  V30 34 H -8.827400 -11.432800 15.415700 0
M  V30 35 H -9.149700 -5.557500 20.476000 0
M  V30 36 H -8.750900 -5.677100 18.896900 0
M  V30 37 H -7.816200 -3.895900 21.466300 0
M  V30 END ATOM
M  V30 BEGIN BOND
M  V30 1 2 1 17
M  V30 2 1 2 18
M  V30 3 1 3 6
M  V30 4 1 3 19
M  V30 5 1 4 5
M  V30 6 2 4 7
M  V30 7 1 5 17
M  V30 8 1 7 20
M  V30 9 2 8 11
M  V30 10 1 8 12
M  V30 11 1 9 13
M  V30 12 2 9 18
M  V30 13 2 10 14
M  V30 14 1 10 18
M  V30 15 1 11 19
M  V30 16 2 12 21
M  V30 17 2 13 20
M  V30 18 1 14 20
M  V30 19 1 15 17
M  V30 20 1 15 21
M  V30 21 2 16 19
M  V30 22 1 16 21
M  V30 23 1 2 22
M  V30 24 1 5 23
M  V30 25 1 6 24 CFG=1
M  V30 26 1 6 25
M  V30 27 1 6 26
M  V30 28 1 7 27
M  V30 29 1 8 28
M  V30 30 1 9 29
M  V30 31 1 10 30
M  V30 32 1 11 31
M  V30 33 1 12 32
M  V30 34 1 13 33
M  V30 35 1 14 34
M  V30 36 1 15 35 CFG=1
M  V30 37 1 15 36
M  V30 38 1 16 37
M  V30 END BOND
M  V30 END CTAB
M  END
>  <Ligand_Instance>  (62) 
3OVV_1SB_A_2001

>  <Dataset>  (62) 
PDB

>  <PDB_ID>  (62) 
3OVV

>  <Chain>  (62) 
A

>  <Resi>  (62) 
2001

>  <Num_Resolved_Atoms>  (62) 
21

>  <Num_H_Atoms_ProtBoundConf>  (62) 
16

>  <Pocket>  (62) 
A

>  <SMILES>  (62) 
COc1cccc(c1)CC(=O)N/N=C/c2ccc(cc2)O

>  <Name>  (62) 
N'-[(1E)-(4-hydroxyphenyl)methylidene]-2-(3-methoxyphenyl)acetohydrazide

>  <Num_Heavy_Atoms>  (62) 
21

>  <Num_Not_Resolved_Atoms>  (62) 
0

>  <ATP_Site>  (62) 
True

>  <Peripheral>  (62) 
False

>  <Standardized_SMILES>  (62) 
[H]OC1=C([H])C([H])=C(/C([H])=N/N([H])C(=O)C([H])([H])C2=C([H])C([H])=C([H])C(OC([H])([H])[H])=C2[H])C([H])=C1[H]

$$$$
1SQ
     RDKit          3D

  0  0  0  0  0  0  0  0  0  0999 V3000
M  V30 BEGIN CTAB
M  V30 COUNTS 19 20 0 0 0
M  V30 BEGIN ATOM
M  V30 1 N -24.060000 23.385000 -17.530000 0
M  V30 2 N -26.360000 23.581000 -17.303000 0
M  V30 3 C -27.476000 24.127000 -16.765000 0
M  V30 4 C -24.727000 26.977000 -14.016000 0
M  V30 5 C -23.585000 26.414000 -14.569000 0
M  V30 6 C -27.387000 25.143000 -15.863000 0
M  V30 7 C -25.969000 26.609000 -14.457000 0
M  V30 8 C -23.681000 25.467000 -15.551000 0
M  V30 9 C -25.100000 23.981000 -16.986000 0
M  V30 10 C -26.114000 25.620000 -15.462000 0
M  V30 11 C -24.945000 25.032000 -16.026000 0
M  V30 12 H -23.134300 23.681400 -17.294900 0
M  V30 13 H -24.195600 22.635800 -18.178400 0
M  V30 14 H -28.375000 23.780500 -17.032900 0
M  V30 15 H -24.641200 27.657800 -13.288600 0
M  V30 16 H -22.683800 26.703500 -14.246400 0
M  V30 17 H -28.217500 25.551600 -15.484500 0
M  V30 18 H -26.781700 27.041700 -14.066700 0
M  V30 19 H -22.847400 25.075100 -15.940200 0
M  V30 END ATOM
M  V30 BEGIN BOND
M  V30 1 1 1 9
M  V30 2 1 2 3
M  V30 3 2 2 9
M  V30 4 2 3 6
M  V30 5 2 4 5
M  V30 6 1 4 7
M  V30 7 1 5 8
M  V30 8 1 6 10
M  V30 9 2 7 10
M  V30 10 2 8 11
M  V30 11 1 9 11
M  V30 12 1 10 11
M  V30 13 1 1 12
M  V30 14 1 1 13
M  V30 15 1 3 14
M  V30 16 1 4 15
M  V30 17 1 5 16
M  V30 18 1 6 17
M  V30 19 1 7 18
M  V30 20 1 8 19
M  V30 END BOND
M  V30 END CTAB
M  END
>  <Ligand_Instance>  (63) 
7AXW_1SQ_A_401

>  <Dataset>  (63) 
PDB

>  <PDB_ID>  (63) 
7AXW

>  <Chain>  (63) 
A

>  <Resi>  (63) 
401

>  <Num_Resolved_Atoms>  (63) 
11

>  <Num_H_Atoms_ProtBoundConf>  (63) 
8

>  <Pocket>  (63) 
A

>  <SMILES>  (63) 
c1ccc2c(c1)ccnc2N

>  <Name>  (63) 
ISOQUINOLIN-1-AMINE

>  <Num_Heavy_Atoms>  (63) 
11

>  <Num_Not_Resolved_Atoms>  (63) 
0

>  <ATP_Site>  (63) 
True

>  <Peripheral>  (63) 
False

>  <Standardized_SMILES>  (63) 
[H]C1=C([H])C2=C([H])C([H])=C([H])C([H])=C2C(N([H])[H])=N1

$$$$
2PY
     RDKit          3D

  0  0  0  0  0  0  0  0  0  0999 V3000
M  V30 BEGIN CTAB
M  V30 COUNTS 51 55 0 0 0
M  V30 BEGIN ATOM
M  V30 1 O 11.675000 8.855000 1.463000 0
M  V30 2 N 13.581000 7.008000 1.544000 0 CFG=1 CHG=1
M  V30 3 N 3.325000 10.201000 4.858000 0
M  V30 4 N 9.506000 10.530000 -0.905000 0
M  V30 5 N 2.958000 10.102000 3.576000 0
M  V30 6 N 15.580000 10.448000 -0.133000 0
M  V30 7 C 11.804000 8.220000 2.723000 0 CFG=2
M  V30 8 C 13.449000 13.544000 0.279000 0
M  V30 9 C 12.819000 13.179000 1.508000 0
M  V30 10 C 4.667000 10.238000 4.968000 0
M  V30 11 C 10.565000 9.971000 -0.286000 0
M  V30 12 C 8.292000 10.548000 -0.280000 0
M  V30 13 C 15.543000 9.432000 0.788000 0
M  V30 14 C 14.400000 12.669000 -0.340000 0
M  V30 15 C 13.129000 11.937000 2.131000 0
M  V30 16 C 4.210000 9.971000 1.351000 0
M  V30 17 C 5.526000 9.960000 0.810000 0
M  V30 18 C 9.197000 9.424000 1.644000 0
M  V30 19 C 14.305000 8.888000 3.022000 0 CFG=2
M  V30 20 C 6.486000 10.142000 3.059000 0
M  V30 21 C 10.473000 9.398000 0.997000 0
M  V30 22 C 13.277000 7.743000 2.797000 0 CFG=2
M  V30 23 C 4.027000 10.065000 2.723000 0
M  V30 24 C 14.704000 11.449000 0.272000 0
M  V30 25 C 5.180000 10.154000 3.606000 0
M  V30 26 C 8.073000 10.008000 1.006000 0
M  V30 27 C 14.651000 9.749000 1.801000 0
M  V30 28 C 6.695000 10.044000 1.639000 0
M  V30 29 C 14.102000 11.045000 1.489000 0
M  V30 30 H 14.528300 6.688600 1.566400 0
M  V30 31 H 12.966600 6.223500 1.460300 0
M  V30 32 H 2.005800 10.059600 3.273600 0
M  V30 33 H 16.143600 10.465800 -0.958800 0
M  V30 34 H 11.180600 7.440700 2.787200 0
M  V30 35 H 11.608000 8.865300 3.461300 0
M  V30 36 H 13.224500 14.417500 -0.153000 0
M  V30 37 H 12.158000 13.798000 1.932200 0
M  V30 38 H 5.201300 10.308600 5.810400 0
M  V30 39 H 11.448100 9.962900 -0.755000 0
M  V30 40 H 7.518600 10.964900 -0.757500 0
M  V30 41 H 16.078900 8.589300 0.736500 0
M  V30 42 H 14.841000 12.927700 -1.199400 0
M  V30 43 H 12.691200 11.676700 2.991600 0
M  V30 44 H 3.418200 9.911100 0.743200 0
M  V30 45 H 5.640400 9.891400 -0.181100 0
M  V30 46 H 9.096700 9.026100 2.555900 0
M  V30 47 H 15.153400 8.473700 3.351500 0
M  V30 48 H 13.934800 9.494300 3.725800 0
M  V30 49 H 7.275700 10.202600 3.669500 0
M  V30 50 H 13.356700 7.101100 3.559600 0
M  V30 51 H 13.452900 7.616700 0.761000 0
M  V30 END ATOM
M  V30 BEGIN BOND
M  V30 1 1 1 7
M  V30 2 1 1 21
M  V30 3 1 2 22
M  V30 4 1 3 5
M  V30 5 2 3 10
M  V30 6 2 4 11
M  V30 7 1 4 12
M  V30 8 1 5 23
M  V30 9 1 6 13
M  V30 10 1 6 24
M  V30 11 1 7 22
M  V30 12 2 8 9
M  V30 13 1 8 14
M  V30 14 1 9 15
M  V30 15 1 10 25
M  V30 16 1 11 21
M  V30 17 2 12 26
M  V30 18 2 13 27
M  V30 19 2 14 24
M  V30 20 2 15 29
M  V30 21 1 16 17
M  V30 22 2 16 23
M  V30 23 2 17 28
M  V30 24 2 18 21
M  V30 25 1 18 26
M  V30 26 1 19 22
M  V30 27 1 19 27
M  V30 28 2 20 25
M  V30 29 1 20 28
M  V30 30 1 23 25
M  V30 31 1 24 29
M  V30 32 1 26 28
M  V30 33 1 27 29
M  V30 34 1 2 30 CFG=1
M  V30 35 1 2 31
M  V30 36 1 5 32
M  V30 37 1 6 33
M  V30 38 1 7 34 CFG=3
M  V30 39 1 7 35
M  V30 40 1 8 36
M  V30 41 1 9 37
M  V30 42 1 10 38
M  V30 43 1 11 39
M  V30 44 1 12 40
M  V30 45 1 13 41
M  V30 46 1 14 42
M  V30 47 1 15 43
M  V30 48 1 16 44
M  V30 49 1 17 45
M  V30 50 1 18 46
M  V30 51 1 19 47 CFG=1
M  V30 52 1 19 48
M  V30 53 1 20 49
M  V30 54 1 22 50 CFG=1
M  V30 55 1 2 51
M  V30 END BOND
M  V30 END CTAB
M  END
>  <Ligand_Instance>  (64) 
2OH0_2PY_E_351

>  <Dataset>  (64) 
PDB

>  <PDB_ID>  (64) 
2OH0

>  <Chain>  (64) 
E

>  <Resi>  (64) 
351

>  <Num_Resolved_Atoms>  (64) 
29

>  <Num_H_Atoms_ProtBoundConf>  (64) 
22

>  <Pocket>  (64) 
A

>  <SMILES>  (64) 
c1cc2c(cc1c3cc(cnc3)OC[C@H](CC4=C5C=CC=CC5N=C4)N)cn[nH]2

>  <Name>  (64) 
(2S)-1-{[5-(1H-INDAZOL-5-YL)PYRIDIN-3-YL]OXY}-3-[(7AS)-7AH-INDOL-3-YL]PROPAN-2-AMINE

>  <Num_Heavy_Atoms>  (64) 
29

>  <Num_Not_Resolved_Atoms>  (64) 
0

>  <ATP_Site>  (64) 
True

>  <Peripheral>  (64) 
False

>  <Standardized_SMILES>  (64) 
[H]C1=NC([H])=C(C2=C([H])C([H])=C3C(=C2[H])C([H])=NN3[H])C([H])=C1OC([H])([H])[C@]([H])(C([H])([H])C1=C([H])N([H])C2=C([H])C([H])=C([H])C([H])=C21)[N+]([H])([H])[H]

$$$$
2SB
     RDKit          3D

  0  0  0  0  0  0  0  0  0  0999 V3000
M  V30 BEGIN CTAB
M  V30 COUNTS 36 37 0 0 0
M  V30 BEGIN ATOM
M  V30 1 Br 32.395000 -9.942000 5.723000 0
M  V30 2 O 25.956000 -9.374000 -0.510000 0
M  V30 3 O 34.040000 -9.968000 3.213000 0
M  V30 4 N 23.449000 -8.586000 0.512000 0 CFG=1 CHG=1
M  V30 5 N 27.847000 -9.729000 1.328000 0
M  V30 6 N 26.545000 -9.799000 1.647000 0
M  V30 7 C 28.540000 -9.963000 2.369000 0
M  V30 8 C 22.749000 -13.439000 -0.510000 0
M  V30 9 C 22.748000 -12.309000 -1.312000 0
M  V30 10 C 23.199000 -13.353000 0.795000 0
M  V30 11 C 32.246000 -9.980000 1.547000 0
M  V30 12 C 23.210000 -11.096000 -0.816000 0
M  V30 13 C 23.656000 -12.144000 1.295000 0
M  V30 14 C 30.863000 -9.975000 1.305000 0
M  V30 15 C 30.464000 -9.944000 3.690000 0
M  V30 16 C 25.590000 -9.603000 0.638000 0
M  V30 17 C 31.808000 -9.951000 3.898000 0
M  V30 18 C 32.707000 -9.967000 2.868000 0
M  V30 19 C 24.160000 -9.715000 1.033000 0 CFG=2
M  V30 20 C 30.009000 -9.958000 2.407000 0
M  V30 21 C 23.658000 -11.012000 0.486000 0
M  V30 22 H 34.741000 -9.978500 2.499900 0
M  V30 23 H 22.485400 -8.650300 0.771400 0
M  V30 24 H 23.839400 -7.744700 0.885900 0
M  V30 25 H 26.260800 -9.987500 2.587000 0
M  V30 26 H 28.052200 -10.163800 3.218500 0
M  V30 27 H 22.425800 -14.312900 -0.873200 0
M  V30 28 H 22.413100 -12.366800 -2.252500 0
M  V30 29 H 23.194600 -14.164800 1.378900 0
M  V30 30 H 32.893300 -9.992700 0.784900 0
M  V30 31 H 23.217700 -10.285500 -1.401700 0
M  V30 32 H 23.984500 -12.085200 2.237700 0
M  V30 33 H 30.502100 -9.983400 0.372400 0
M  V30 34 H 29.826100 -9.929000 4.460000 0
M  V30 35 H 24.088700 -9.723300 2.030400 0
M  V30 36 H 23.525800 -8.574800 -0.485000 0
M  V30 END ATOM
M  V30 BEGIN BOND
M  V30 1 1 1 17
M  V30 2 2 2 16
M  V30 3 1 3 18
M  V30 4 1 4 19
M  V30 5 1 5 6
M  V30 6 2 5 7
M  V30 7 1 6 16
M  V30 8 1 7 20
M  V30 9 2 8 9
M  V30 10 1 8 10
M  V30 11 1 9 12
M  V30 12 2 10 13
M  V30 13 1 11 14
M  V30 14 2 11 18
M  V30 15 2 12 21
M  V30 16 1 13 21
M  V30 17 2 14 20
M  V30 18 2 15 17
M  V30 19 1 15 20
M  V30 20 1 16 19
M  V30 21 1 17 18
M  V30 22 1 19 21
M  V30 23 1 3 22
M  V30 24 1 4 23 CFG=3
M  V30 25 1 4 24
M  V30 26 1 6 25
M  V30 27 1 7 26
M  V30 28 1 8 27
M  V30 29 1 9 28
M  V30 30 1 10 29
M  V30 31 1 11 30
M  V30 32 1 12 31
M  V30 33 1 13 32
M  V30 34 1 14 33
M  V30 35 1 15 34
M  V30 36 1 19 35 CFG=1
M  V30 37 1 4 36
M  V30 END BOND
M  V30 END CTAB
M  END
>  <Ligand_Instance>  (65) 
3OWP_2SB_A_2001

>  <Dataset>  (65) 
PDB

>  <PDB_ID>  (65) 
3OWP

>  <Chain>  (65) 
A

>  <Resi>  (65) 
2001

>  <Num_Resolved_Atoms>  (65) 
21

>  <Num_H_Atoms_ProtBoundConf>  (65) 
15

>  <Pocket>  (65) 
A

>  <SMILES>  (65) 
c1ccc(cc1)[C@@H](C(=O)N/N=C/c2ccc(c(c2)Br)O)N

>  <Name>  (65) 
(2S)-2-amino-N'-[(1E)-(3-bromo-4-hydroxyphenyl)methylidene]-2-phenylethanehydrazide

>  <Num_Heavy_Atoms>  (65) 
21

>  <Num_Not_Resolved_Atoms>  (65) 
0

>  <ATP_Site>  (65) 
True

>  <Peripheral>  (65) 
False

>  <Standardized_SMILES>  (65) 
[H]OC1=C([H])C([H])=C(/C([H])=N/N([H])C(=O)[C@]([H])(C2=C([H])C([H])=C([H])C([H])=C2[H])[N+]([H])([H])[H])C([H])=C1Br

$$$$
35R
     RDKit          3D

  0  0  0  0  0  0  0  0  0  0999 V3000
M  V30 BEGIN CTAB
M  V30 COUNTS 52 56 0 0 0
M  V30 BEGIN ATOM
M  V30 1 O -28.711000 10.487000 1.841000 0
M  V30 2 O -27.329000 6.824000 13.508000 0
M  V30 3 N -32.822000 10.078000 2.919000 0
M  V30 4 N -32.962000 10.018000 4.245000 0
M  V30 5 N -26.969000 10.205000 3.337000 0
M  V30 6 N -29.368000 10.078000 4.012000 0
M  V30 7 N -32.271000 9.817000 7.317000 0
M  V30 8 N -30.181000 10.103000 6.759000 0
M  V30 9 N -28.443000 9.136000 12.361000 0 CFG=2 CHG=1
M  V30 10 C -27.194000 8.048000 14.150000 0 CFG=2
M  V30 11 C -28.490000 6.766000 12.755000 0 CFG=2
M  V30 12 C -31.547000 10.114000 2.591000 0
M  V30 13 C -27.337000 9.240000 13.190000 0 CFG=2
M  V30 14 C -28.508000 7.907000 11.731000 0 CFG=2
M  V30 15 C -28.411000 10.091000 11.515000 0 CFG=2
M  V30 16 C -26.774000 11.064000 5.735000 0 CFG=2
M  V30 17 C -25.371000 10.813000 5.179000 0 CFG=2
M  V30 18 C -31.895000 9.741000 9.862000 0
M  V30 19 C -30.897000 9.816000 10.844000 0
M  V30 20 C -29.208000 10.112000 9.111000 0
M  V30 21 C -28.380000 10.269000 2.962000 0
M  V30 22 C -31.426000 9.970000 6.306000 0
M  V30 23 C -26.543000 9.944000 4.715000 0 CFG=2
M  V30 24 C -30.812000 10.089000 3.791000 0
M  V30 25 C -31.542000 9.849000 8.476000 0
M  V30 26 C -30.223000 10.035000 8.116000 0
M  V30 27 C -31.782000 10.013000 4.817000 0
M  V30 28 C -29.549000 9.993000 10.462000 0
M  V30 29 H -33.579200 10.093500 2.266000 0
M  V30 30 H -26.273200 10.343400 2.632300 0
M  V30 31 H -29.038000 9.929800 4.944300 0
M  V30 32 H -33.261500 9.699500 7.245800 0
M  V30 33 H -26.290500 8.087500 14.576800 0
M  V30 34 H -27.899300 8.118800 14.855400 0
M  V30 35 H -29.281700 6.851300 13.359900 0
M  V30 36 H -28.530100 5.889600 12.275100 0
M  V30 37 H -31.172100 10.151900 1.664700 0
M  V30 38 H -27.421400 10.076800 13.730900 0
M  V30 39 H -26.516000 9.291900 12.621500 0
M  V30 40 H -27.722700 7.810600 11.119500 0
M  V30 41 H -29.353100 7.856100 11.198800 0
M  V30 42 H -27.531600 10.068600 11.039500 0
M  V30 43 H -28.502500 10.957300 12.006000 0
M  V30 44 H -27.277400 11.886200 5.469400 0
M  V30 45 H -26.982400 10.838400 6.686700 0
M  V30 46 H -24.662400 10.423700 5.767500 0
M  V30 47 H -24.957400 11.471500 4.550200 0
M  V30 48 H -32.850600 9.612500 10.127300 0
M  V30 49 H -31.138900 9.744400 11.811600 0
M  V30 50 H -28.254100 10.250700 8.844800 0
M  V30 51 H -26.581300 9.000200 5.043300 0
M  V30 52 H -29.264200 9.243100 12.921500 0
M  V30 END ATOM
M  V30 BEGIN BOND
M  V30 1 2 1 21
M  V30 2 1 2 10
M  V30 3 1 2 11
M  V30 4 1 3 4
M  V30 5 1 3 12
M  V30 6 2 4 27
M  V30 7 1 5 21
M  V30 8 1 5 23
M  V30 9 1 6 21
M  V30 10 1 6 24
M  V30 11 1 7 22
M  V30 12 1 7 25
M  V30 13 2 8 22
M  V30 14 1 8 26
M  V30 15 1 9 13
M  V30 16 1 9 14
M  V30 17 1 9 15
M  V30 18 1 10 13
M  V30 19 1 11 14
M  V30 20 2 12 24
M  V30 21 1 15 28
M  V30 22 1 16 17
M  V30 23 1 16 23
M  V30 24 1 17 23
M  V30 25 1 18 19
M  V30 26 2 18 25
M  V30 27 2 19 28
M  V30 28 2 20 26
M  V30 29 1 20 28
M  V30 30 1 22 27
M  V30 31 1 24 27
M  V30 32 1 25 26
M  V30 33 1 3 29
M  V30 34 1 5 30
M  V30 35 1 6 31
M  V30 36 1 7 32
M  V30 37 1 10 33 CFG=1
M  V30 38 1 10 34
M  V30 39 1 11 35 CFG=1
M  V30 40 1 11 36
M  V30 41 1 12 37
M  V30 42 1 13 38 CFG=1
M  V30 43 1 13 39
M  V30 44 1 14 40 CFG=3
M  V30 45 1 14 41
M  V30 46 1 15 42 CFG=3
M  V30 47 1 15 43
M  V30 48 1 16 44 CFG=3
M  V30 49 1 16 45
M  V30 50 1 17 46 CFG=1
M  V30 51 1 17 47
M  V30 52 1 18 48
M  V30 53 1 19 49
M  V30 54 1 20 50
M  V30 55 1 23 51 CFG=1
M  V30 56 1 9 52 CFG=1
M  V30 END BOND
M  V30 END CTAB
M  END
>  <Ligand_Instance>  (66) 
5N23_35R_A_401

>  <Dataset>  (66) 
PDB

>  <PDB_ID>  (66) 
5N23

>  <Chain>  (66) 
A

>  <Resi>  (66) 
401

>  <Num_Resolved_Atoms>  (66) 
28

>  <Num_H_Atoms_ProtBoundConf>  (66) 
24

>  <Pocket>  (66) 
A

>  <SMILES>  (66) 
c1cc2c(cc1CN3CCOCC3)nc([nH]2)c4c(c[nH]n4)NC(=O)NC5CC5

>  <Name>  (66) 
1-cyclopropyl-3-{3-[5-(morpholin-4-ylmethyl)-1H-benzimidazol-2-yl]-1H-pyrazol-4-yl}urea

>  <Num_Heavy_Atoms>  (66) 
28

>  <Num_Not_Resolved_Atoms>  (66) 
0

>  <ATP_Site>  (66) 
True

>  <Peripheral>  (66) 
False

>  <Standardized_SMILES>  (66) 
[H]C1=C2N=C(C3=NN([H])C([H])=C3N([H])C(=O)N([H])C3([H])C([H])([H])C3([H])[H])N([H])C2=C([H])C([H])=C1C([H])([H])[N+]1([H])C([H])([H])C([H])([H])OC([H])([H])C1([H])[H]

$$$$
3AB
     RDKit          3D

  0  0  0  0  0  0  0  0  0  0999 V3000
M  V30 BEGIN CTAB
M  V30 COUNTS 18 18 0 0 0
M  V30 BEGIN ATOM
M  V30 1 O -9.237000 2.280000 -28.367000 0
M  V30 2 N -9.477000 4.540000 -28.464000 0
M  V30 3 N -14.390000 5.111000 -29.642000 0
M  V30 4 C -13.084000 1.690000 -29.980000 0
M  V30 5 C -13.950000 2.770000 -30.023000 0
M  V30 6 C -11.779000 1.863000 -29.546000 0
M  V30 7 C -12.199000 4.204000 -29.211000 0
M  V30 8 C -9.925000 3.295000 -28.632000 0
M  V30 9 C -13.522000 4.035000 -29.629000 0
M  V30 10 C -11.330000 3.119000 -29.163000 0
M  V30 11 H -10.064100 5.317400 -28.689900 0
M  V30 12 H -8.554100 4.696100 -28.112100 0
M  V30 13 H -14.070500 6.014600 -29.356700 0
M  V30 14 H -15.337300 4.985700 -29.936700 0
M  V30 15 H -13.400500 0.784400 -30.262400 0
M  V30 16 H -14.889700 2.640300 -30.339400 0
M  V30 17 H -11.158600 1.079600 -29.508700 0
M  V30 18 H -11.874800 5.111700 -28.944500 0
M  V30 END ATOM
M  V30 BEGIN BOND
M  V30 1 2 1 8
M  V30 2 1 2 8
M  V30 3 1 3 9
M  V30 4 2 4 5
M  V30 5 1 4 6
M  V30 6 1 5 9
M  V30 7 2 6 10
M  V30 8 2 7 9
M  V30 9 1 7 10
M  V30 10 1 8 10
M  V30 11 1 2 11
M  V30 12 1 2 12
M  V30 13 1 3 13
M  V30 14 1 3 14
M  V30 15 1 4 15
M  V30 16 1 5 16
M  V30 17 1 6 17
M  V30 18 1 7 18
M  V30 END BOND
M  V30 END CTAB
M  END
>  <Ligand_Instance>  (67) 
5N3Q_3AB_A_402

>  <Dataset>  (67) 
PDB

>  <PDB_ID>  (67) 
5N3Q

>  <Chain>  (67) 
A

>  <Resi>  (67) 
402

>  <Num_Resolved_Atoms>  (67) 
10

>  <Num_H_Atoms_ProtBoundConf>  (67) 
8

>  <Pocket>  (67) 
A

>  <SMILES>  (67) 
c1cc(cc(c1)N)C(=O)N

>  <Name>  (67) 
3-aminobenzamide

>  <Num_Heavy_Atoms>  (67) 
10

>  <Num_Not_Resolved_Atoms>  (67) 
0

>  <ATP_Site>  (67) 
True

>  <Peripheral>  (67) 
True

>  <Standardized_SMILES>  (67) 
[H]C1=C([H])C(N([H])[H])=C([H])C(C(=O)N([H])[H])=C1[H]

$$$$
3AB
     RDKit          3D

  0  0  0  0  0  0  0  0  0  0999 V3000
M  V30 BEGIN CTAB
M  V30 COUNTS 18 18 0 0 0
M  V30 BEGIN ATOM
M  V30 1 O -10.610000 1.126000 -44.955000 0
M  V30 2 N -9.730000 2.286000 -46.678000 0
M  V30 3 N -4.843000 2.667000 -45.122000 0
M  V30 4 C -7.387000 2.306000 -42.480000 0
M  V30 5 C -6.158000 2.456000 -43.098000 0
M  V30 6 C -8.530000 2.117000 -43.236000 0
M  V30 7 C -7.218000 2.235000 -45.245000 0
M  V30 8 C -9.684000 1.793000 -45.446000 0
M  V30 9 C -6.061000 2.437000 -44.493000 0
M  V30 10 C -8.453000 2.065000 -44.623000 0
M  V30 11 H -8.961000 2.817700 -47.032800 0
M  V30 12 H -10.533600 2.125600 -47.251100 0
M  V30 13 H -4.784900 2.651100 -46.120200 0
M  V30 14 H -4.024900 2.848400 -44.576300 0
M  V30 15 H -7.449200 2.334400 -41.482300 0
M  V30 16 H -5.334600 2.578700 -42.544000 0
M  V30 17 H -9.415700 2.017300 -42.782600 0
M  V30 18 H -7.160500 2.211900 -46.243100 0
M  V30 END ATOM
M  V30 BEGIN BOND
M  V30 1 2 1 8
M  V30 2 1 2 8
M  V30 3 1 3 9
M  V30 4 2 4 5
M  V30 5 1 4 6
M  V30 6 1 5 9
M  V30 7 2 6 10
M  V30 8 2 7 9
M  V30 9 1 7 10
M  V30 10 1 8 10
M  V30 11 1 2 11
M  V30 12 1 2 12
M  V30 13 1 3 13
M  V30 14 1 3 14
M  V30 15 1 4 15
M  V30 16 1 5 16
M  V30 17 1 6 17
M  V30 18 1 7 18
M  V30 END BOND
M  V30 END CTAB
M  END
>  <Ligand_Instance>  (68) 
5N3Q_3AB_A_403

>  <Dataset>  (68) 
PDB

>  <PDB_ID>  (68) 
5N3Q

>  <Chain>  (68) 
A

>  <Resi>  (68) 
403

>  <Num_Resolved_Atoms>  (68) 
10

>  <Num_H_Atoms_ProtBoundConf>  (68) 
8

>  <Pocket>  (68) 
F

>  <SMILES>  (68) 
c1cc(cc(c1)N)C(=O)N

>  <Name>  (68) 
3-aminobenzamide

>  <Num_Heavy_Atoms>  (68) 
10

>  <Num_Not_Resolved_Atoms>  (68) 
0

>  <ATP_Site>  (68) 
True

>  <Peripheral>  (68) 
True

>  <Standardized_SMILES>  (68) 
[H]C1=C([H])C(N([H])[H])=C([H])C(C(=O)N([H])[H])=C1[H]

$$$$
3AE
     RDKit          3D

  0  0  0  0  0  0  0  0  0  0999 V3000
M  V30 BEGIN CTAB
M  V30 COUNTS 18 18 0 0 0
M  V30 BEGIN ATOM
M  V30 1 F 10.439000 1.448000 17.311000 0
M  V30 2 F 9.881000 1.242000 19.316000 0
M  V30 3 F 9.685000 3.133000 18.364000 0
M  V30 4 O 16.174000 4.551000 20.182000 0
M  V30 5 O 16.610000 2.384000 20.471000 0
M  V30 6 C 14.073000 1.673000 19.539000 0
M  V30 7 C 13.541000 4.010000 19.525000 0
M  V30 8 C 12.785000 1.380000 19.133000 0
M  V30 9 C 12.250000 3.711000 19.128000 0
M  V30 10 C 15.864000 3.284000 20.130000 0
M  V30 11 C 14.472000 2.991000 19.719000 0
M  V30 12 C 11.859000 2.393000 18.914000 0
M  V30 13 C 10.473000 2.061000 18.480000 0 CFG=2
M  V30 14 H 14.722400 0.930700 19.704400 0
M  V30 15 H 13.807700 4.962300 19.673600 0
M  V30 16 H 12.515800 0.426900 18.995000 0
M  V30 17 H 11.590400 4.450400 18.993300 0
M  V30 18 H 17.072800 4.832500 20.518200 0
M  V30 END ATOM
M  V30 BEGIN BOND
M  V30 1 1 13 1 CFG=3
M  V30 2 1 2 13
M  V30 3 1 3 13
M  V30 4 1 4 10
M  V30 5 2 5 10
M  V30 6 1 6 8
M  V30 7 2 6 11
M  V30 8 2 7 9
M  V30 9 1 7 11
M  V30 10 2 8 12
M  V30 11 1 9 12
M  V30 12 1 10 11
M  V30 13 1 12 13
M  V30 14 1 9 17
M  V30 15 1 6 14
M  V30 16 1 7 15
M  V30 17 1 8 16
M  V30 18 1 4 18
M  V30 END BOND
M  V30 END CTAB
M  END
>  <Ligand_Instance>  (69) 
6SPM_3AE_A_401

>  <Dataset>  (69) 
PDB

>  <PDB_ID>  (69) 
6SPM

>  <Chain>  (69) 
A

>  <Resi>  (69) 
401

>  <Num_Resolved_Atoms>  (69) 
13

>  <Num_H_Atoms_ProtBoundConf>  (69) 
5

>  <Pocket>  (69) 
A

>  <SMILES>  (69) 
c1cc(ccc1C(=O)O)C(F)(F)F

>  <Name>  (69) 
4-(trifluoromethyl)benzoic acid

>  <Num_Heavy_Atoms>  (69) 
13

>  <Num_Not_Resolved_Atoms>  (69) 
0

>  <ATP_Site>  (69) 
True

>  <Peripheral>  (69) 
False

>  <Standardized_SMILES>  (69) 
[H]OC(=O)C1=C([H])C([H])=C(C(F)(F)F)C([H])=C1[H]

$$$$
3SB
     RDKit          3D

  0  0  0  0  0  0  0  0  0  0999 V3000
M  V30 BEGIN CTAB
M  V30 COUNTS 40 41 0 0 0
M  V30 BEGIN ATOM
M  V30 1 O 26.968000 -8.936000 -0.222000 0
M  V30 2 O 35.148000 -9.831000 3.469000 0
M  V30 3 O 31.254000 -9.682000 0.689000 0
M  V30 4 N 24.381000 -8.321000 0.473000 0 CFG=1 CHG=1
M  V30 5 N 28.793000 -9.510000 1.876000 0
M  V30 6 N 27.417000 -9.610000 1.959000 0
M  V30 7 C 30.611000 -10.067000 5.513000 0 CFG=1
M  V30 8 C 29.478000 -9.889000 2.959000 0
M  V30 9 C 23.720000 -13.128000 -0.795000 0
M  V30 10 C 23.711000 -11.936000 -1.521000 0
M  V30 11 C 24.154000 -13.133000 0.522000 0
M  V30 12 C 24.134000 -10.752000 -0.913000 0
M  V30 13 C 24.572000 -11.953000 1.134000 0
M  V30 14 C 33.194000 -9.746000 2.091000 0
M  V30 15 C 32.951000 -9.941000 4.481000 0
M  V30 16 C 26.516000 -9.302000 0.859000 0
M  V30 17 C 33.765000 -9.842000 3.356000 0
M  V30 18 C 31.805000 -9.759000 1.948000 0
M  V30 19 C 25.019000 -9.460000 1.057000 0 CFG=2
M  V30 20 C 31.555000 -9.959000 4.328000 0
M  V30 21 C 24.558000 -10.755000 0.412000 0
M  V30 22 C 30.989000 -9.862000 3.059000 0
M  V30 23 H 35.716000 -9.755000 2.649500 0
M  V30 24 H 30.260400 -9.690600 0.576700 0
M  V30 25 H 23.390700 -8.397900 0.588700 0
M  V30 26 H 24.705700 -7.489500 0.923700 0
M  V30 27 H 27.017800 -9.911400 2.824900 0
M  V30 28 H 29.665500 -10.062700 5.187400 0
M  V30 29 H 30.790100 -10.918800 6.005300 0
M  V30 30 H 30.755900 -9.290600 6.126400 0
M  V30 31 H 28.961000 -10.210300 3.752400 0
M  V30 32 H 23.413700 -13.977700 -1.224200 0
M  V30 33 H 23.403000 -11.929800 -2.472400 0
M  V30 34 H 24.167100 -13.990300 1.036700 0
M  V30 35 H 24.132100 -9.897700 -1.432700 0
M  V30 36 H 24.880600 -11.962600 2.085100 0
M  V30 37 H 33.778700 -9.667600 1.283500 0
M  V30 38 H 33.357800 -9.999000 5.392700 0
M  V30 39 H 24.815800 -9.487300 2.035800 0
M  V30 40 H 24.600500 -8.279300 -0.501700 0
M  V30 END ATOM
M  V30 BEGIN BOND
M  V30 1 2 1 16
M  V30 2 1 2 17
M  V30 3 1 3 18
M  V30 4 1 4 19
M  V30 5 1 5 6
M  V30 6 2 5 8
M  V30 7 1 6 16
M  V30 8 1 7 20
M  V30 9 1 8 22
M  V30 10 2 9 10
M  V30 11 1 9 11
M  V30 12 1 10 12
M  V30 13 2 11 13
M  V30 14 2 12 21
M  V30 15 1 13 21
M  V30 16 2 14 17
M  V30 17 1 14 18
M  V30 18 1 15 17
M  V30 19 2 15 20
M  V30 20 1 16 19
M  V30 21 2 18 22
M  V30 22 1 19 21
M  V30 23 1 20 22
M  V30 24 1 2 23
M  V30 25 1 3 24
M  V30 26 1 4 25 CFG=3
M  V30 27 1 4 26
M  V30 28 1 6 27
M  V30 29 1 7 28 CFG=3
M  V30 30 1 7 29
M  V30 31 1 7 30
M  V30 32 1 8 31
M  V30 33 1 9 32
M  V30 34 1 10 33
M  V30 35 1 11 34
M  V30 36 1 12 35
M  V30 37 1 13 36
M  V30 38 1 14 37
M  V30 39 1 15 38
M  V30 40 1 19 39 CFG=1
M  V30 41 1 4 40
M  V30 END BOND
M  V30 END CTAB
M  END
>  <Ligand_Instance>  (70) 
3OXT_3SB_A_2001

>  <Dataset>  (70) 
PDB

>  <PDB_ID>  (70) 
3OXT

>  <Chain>  (70) 
A

>  <Resi>  (70) 
2001

>  <Num_Resolved_Atoms>  (70) 
22

>  <Num_H_Atoms_ProtBoundConf>  (70) 
18

>  <Pocket>  (70) 
A

>  <SMILES>  (70) 
Cc1cc(cc(c1/C=N/NC(=O)[C@H](c2ccccc2)N)O)O

>  <Name>  (70) 
(2S)-2-amino-N'-[(1E)-(2,4-dihydroxy-6-methylphenyl)methylidene]-2-phenylethanehydrazide

>  <Num_Heavy_Atoms>  (70) 
22

>  <Num_Not_Resolved_Atoms>  (70) 
0

>  <ATP_Site>  (70) 
True

>  <Peripheral>  (70) 
False

>  <Standardized_SMILES>  (70) 
[H]OC1=C([H])C(O[H])=C(/C([H])=N/N([H])C(=O)[C@]([H])(C2=C([H])C([H])=C([H])C([H])=C2[H])[N+]([H])([H])[H])C(C([H])([H])[H])=C1[H]

$$$$
463
     RDKit          3D

  0  0  0  0  0  0  0  0  0  0999 V3000
M  V30 BEGIN CTAB
M  V30 COUNTS 25 25 0 0 0
M  V30 BEGIN ATOM
M  V30 1 O -15.757000 24.963000 -24.400000 0
M  V30 2 N -8.836000 24.116000 -26.249000 0 CFG=1 CHG=1
M  V30 3 N -14.173000 23.589000 -25.240000 0
M  V30 4 C -16.033000 22.607000 -24.066000 0 CFG=1
M  V30 5 C -9.799000 24.570000 -27.283000 0 CFG=2
M  V30 6 C -12.720000 26.807000 -26.374000 0
M  V30 7 C -13.624000 25.894000 -25.859000 0
M  V30 8 C -11.473000 26.385000 -26.799000 0
M  V30 9 C -12.005000 24.146000 -26.160000 0
M  V30 10 C -15.324000 23.829000 -24.581000 0
M  V30 11 C -13.265000 24.554000 -25.748000 0
M  V30 12 C -11.104000 25.049000 -26.710000 0
M  V30 13 H -8.249900 23.401100 -26.630300 0
M  V30 14 H -8.272300 24.888400 -25.956400 0
M  V30 15 H -13.933500 22.629200 -25.386500 0
M  V30 16 H -15.516000 21.789700 -24.320300 0
M  V30 17 H -16.105900 22.658900 -23.070000 0
M  V30 18 H -16.948600 22.559800 -24.465300 0
M  V30 19 H -9.984900 23.806100 -27.901000 0
M  V30 20 H -9.383100 25.320600 -27.796500 0
M  V30 21 H -12.968800 27.773400 -26.439000 0
M  V30 22 H -14.531700 26.196200 -25.567800 0
M  V30 23 H -10.828700 27.050800 -27.175300 0
M  V30 24 H -11.741000 23.186700 -26.059500 0
M  V30 25 H -9.337000 23.752600 -25.463500 0
M  V30 END ATOM
M  V30 BEGIN BOND
M  V30 1 2 1 10
M  V30 2 1 2 5
M  V30 3 1 3 10
M  V30 4 1 3 11
M  V30 5 1 4 10
M  V30 6 1 5 12
M  V30 7 1 6 7
M  V30 8 2 6 8
M  V30 9 2 7 11
M  V30 10 1 8 12
M  V30 11 1 9 11
M  V30 12 2 9 12
M  V30 13 1 2 13 CFG=3
M  V30 14 1 2 14
M  V30 15 1 3 15
M  V30 16 1 4 16 CFG=1
M  V30 17 1 4 17
M  V30 18 1 4 18
M  V30 19 1 5 19 CFG=3
M  V30 20 1 5 20
M  V30 21 1 6 21
M  V30 22 1 7 22
M  V30 23 1 8 23
M  V30 24 1 9 24
M  V30 25 1 2 25
M  V30 END BOND
M  V30 END CTAB
M  END
>  <Ligand_Instance>  (71) 
5N3F_463_A_403

>  <Dataset>  (71) 
PDB

>  <PDB_ID>  (71) 
5N3F

>  <Chain>  (71) 
A

>  <Resi>  (71) 
403

>  <Num_Resolved_Atoms>  (71) 
12

>  <Num_H_Atoms_ProtBoundConf>  (71) 
13

>  <Pocket>  (71) 
A

>  <SMILES>  (71) 
CC(=O)Nc1cccc(c1)CN

>  <Name>  (71) 
N-[3-(aminomethyl)phenyl]acetamide

>  <Num_Heavy_Atoms>  (71) 
12

>  <Num_Not_Resolved_Atoms>  (71) 
0

>  <ATP_Site>  (71) 
True

>  <Peripheral>  (71) 
True

>  <Standardized_SMILES>  (71) 
[H]C1=C([H])C(C([H])([H])[N+]([H])([H])[H])=C([H])C(N([H])C(=O)C([H])([H])[H])=C1[H]

$$$$
463
     RDKit          3D

  0  0  0  0  0  0  0  0  0  0999 V3000
M  V30 BEGIN CTAB
M  V30 COUNTS 25 25 0 0 0
M  V30 BEGIN ATOM
M  V30 1 O -18.670000 3.740000 3.207000 0
M  V30 2 N -12.654000 4.085000 7.207000 0 CFG=1 CHG=1
M  V30 3 N -17.597000 3.144000 5.148000 0
M  V30 4 C -20.020000 3.193000 5.100000 0 CFG=1
M  V30 5 C -12.739000 2.884000 6.326000 0 CFG=2
M  V30 6 C -14.631000 2.501000 3.069000 0
M  V30 7 C -15.941000 2.737000 3.449000 0
M  V30 8 C -13.602000 2.585000 3.992000 0
M  V30 9 C -15.182000 3.171000 5.690000 0
M  V30 10 C -18.714000 3.383000 4.385000 0
M  V30 11 C -16.226000 3.066000 4.771000 0
M  V30 12 C -13.859000 2.912000 5.319000 0
M  V30 13 H -13.206100 3.936300 8.027400 0
M  V30 14 H -11.701500 4.239000 7.469600 0
M  V30 15 H -17.774600 3.002500 6.121900 0
M  V30 16 H -19.845700 2.903400 6.041100 0
M  V30 17 H -20.525900 4.055600 5.104900 0
M  V30 18 H -20.558500 2.493400 4.630300 0
M  V30 19 H -12.864900 2.080500 6.907900 0
M  V30 20 H -11.875700 2.802800 5.827800 0
M  V30 21 H -14.425700 2.267500 2.118600 0
M  V30 22 H -16.678800 2.671400 2.777100 0
M  V30 23 H -12.661900 2.408200 3.700500 0
M  V30 24 H -15.383700 3.436700 6.632700 0
M  V30 25 H -12.997500 4.884700 6.714500 0
M  V30 END ATOM
M  V30 BEGIN BOND
M  V30 1 2 1 10
M  V30 2 1 2 5
M  V30 3 1 3 10
M  V30 4 1 3 11
M  V30 5 1 4 10
M  V30 6 1 5 12
M  V30 7 1 6 7
M  V30 8 2 6 8
M  V30 9 2 7 11
M  V30 10 1 8 12
M  V30 11 1 9 11
M  V30 12 2 9 12
M  V30 13 1 2 13 CFG=1
M  V30 14 1 2 14
M  V30 15 1 3 15
M  V30 16 1 4 16 CFG=1
M  V30 17 1 4 17
M  V30 18 1 4 18
M  V30 19 1 5 19 CFG=1
M  V30 20 1 5 20
M  V30 21 1 6 21
M  V30 22 1 7 22
M  V30 23 1 8 23
M  V30 24 1 9 24
M  V30 25 1 2 25
M  V30 END BOND
M  V30 END CTAB
M  END
>  <Ligand_Instance>  (72) 
5N3F_463_A_404

>  <Dataset>  (72) 
PDB

>  <PDB_ID>  (72) 
5N3F

>  <Chain>  (72) 
A

>  <Resi>  (72) 
404

>  <Num_Resolved_Atoms>  (72) 
12

>  <Num_H_Atoms_ProtBoundConf>  (72) 
13

>  <Pocket>  (72) 
X

>  <SMILES>  (72) 
CC(=O)Nc1cccc(c1)CN

>  <Name>  (72) 
N-[3-(aminomethyl)phenyl]acetamide

>  <Num_Heavy_Atoms>  (72) 
12

>  <Num_Not_Resolved_Atoms>  (72) 
0

>  <ATP_Site>  (72) 
True

>  <Peripheral>  (72) 
True

>  <Standardized_SMILES>  (72) 
[H]C1=C([H])C(C([H])([H])[N+]([H])([H])[H])=C([H])C(N([H])C(=O)C([H])([H])[H])=C1[H]

$$$$
46L
     RDKit          3D

  0  0  0  0  0  0  0  0  0  0999 V3000
M  V30 BEGIN CTAB
M  V30 COUNTS 22 22 0 0 0
M  V30 BEGIN ATOM
M  V30 1 O -17.148000 26.607000 -22.858000 0
M  V30 2 O -16.977000 24.386000 -22.737000 0
M  V30 3 N -13.895000 24.387000 -25.518000 0
M  V30 4 N -12.365000 25.499000 -26.866000 0
M  V30 5 C -11.556000 24.294000 -26.924000 0 CFG=1
M  V30 6 C -11.704000 26.720000 -27.303000 0 CFG=1
M  V30 7 C -14.905000 24.401000 -24.641000 0
M  V30 8 C -14.057000 26.787000 -25.653000 0
M  V30 9 C -15.093000 26.764000 -24.742000 0
M  V30 10 C -16.639000 25.514000 -23.194000 0
M  V30 11 C -13.481000 25.568000 -26.000000 0
M  V30 12 C -15.533000 25.560000 -24.212000 0
M  V30 13 H -12.095600 23.514600 -26.605700 0
M  V30 14 H -11.263400 24.134000 -27.866800 0
M  V30 15 H -10.752100 24.403800 -26.339500 0
M  V30 16 H -12.339000 27.488700 -27.226200 0
M  V30 17 H -10.903800 26.890000 -26.727900 0
M  V30 18 H -11.415100 26.620200 -28.255100 0
M  V30 19 H -15.224700 23.527200 -24.274600 0
M  V30 20 H -13.732400 27.646100 -26.048700 0
M  V30 21 H -15.528800 27.619500 -24.462400 0
M  V30 22 H -17.703200 24.321000 -22.052600 0
M  V30 END ATOM
M  V30 BEGIN BOND
M  V30 1 2 1 10
M  V30 2 1 2 10
M  V30 3 1 3 7
M  V30 4 2 3 11
M  V30 5 1 4 5
M  V30 6 1 4 6
M  V30 7 1 4 11
M  V30 8 2 7 12
M  V30 9 2 8 9
M  V30 10 1 8 11
M  V30 11 1 9 12
M  V30 12 1 10 12
M  V30 13 1 9 21
M  V30 14 1 5 13 CFG=1
M  V30 15 1 5 14
M  V30 16 1 5 15
M  V30 17 1 6 16 CFG=3
M  V30 18 1 6 17
M  V30 19 1 6 18
M  V30 20 1 7 19
M  V30 21 1 8 20
M  V30 22 1 2 22
M  V30 END BOND
M  V30 END CTAB
M  END
>  <Ligand_Instance>  (73) 
5N3E_46L_A_401

>  <Dataset>  (73) 
PDB

>  <PDB_ID>  (73) 
5N3E

>  <Chain>  (73) 
A

>  <Resi>  (73) 
401

>  <Num_Resolved_Atoms>  (73) 
12

>  <Num_H_Atoms_ProtBoundConf>  (73) 
10

>  <Pocket>  (73) 
A

>  <SMILES>  (73) 
CN(C)c1ccc(cn1)C(=O)O

>  <Name>  (73) 
6-(dimethylamino)pyridine-3-carboxylic acid

>  <Num_Heavy_Atoms>  (73) 
12

>  <Num_Not_Resolved_Atoms>  (73) 
0

>  <ATP_Site>  (73) 
True

>  <Peripheral>  (73) 
False

>  <Standardized_SMILES>  (73) 
[H]OC(=O)C1=C([H])N=C(N(C([H])([H])[H])C([H])([H])[H])C([H])=C1[H]

$$$$
46P
     RDKit          3D

  0  0  0  0  0  0  0  0  0  0999 V3000
M  V30 BEGIN CTAB
M  V30 COUNTS 19 19 0 0 0
M  V30 BEGIN ATOM
M  V30 1 S -10.470000 25.447000 -25.636000 0
M  V30 2 N -8.727000 23.581000 -26.488000 0
M  V30 3 N -14.359000 25.599000 -25.067000 0 CHG=1
M  V30 4 N -13.217000 27.292000 -25.950000 0
M  V30 5 N -11.007000 23.249000 -26.890000 0
M  V30 6 C -12.328000 28.019000 -26.854000 0 CFG=1
M  V30 7 C -12.211000 23.881000 -26.667000 0
M  V30 8 C -10.009000 23.953000 -26.408000 0
M  V30 9 C -13.229000 25.958000 -25.661000 0
M  V30 10 C -12.129000 25.080000 -26.006000 0
M  V30 11 H -8.483100 22.720300 -26.934800 0
M  V30 12 H -8.012300 24.163500 -26.101000 0
M  V30 13 H -14.502200 24.646300 -24.798900 0
M  V30 14 H -15.067900 26.281000 -24.887200 0
M  V30 15 H -12.570700 28.989100 -26.851500 0
M  V30 16 H -11.381800 27.911300 -26.549000 0
M  V30 17 H -12.423200 27.654000 -27.780100 0
M  V30 18 H -13.082800 23.493000 -26.965900 0
M  V30 19 H -13.906900 27.844200 -25.481900 0
M  V30 END ATOM
M  V30 BEGIN BOND
M  V30 1 1 1 8
M  V30 2 1 1 10
M  V30 3 1 2 8
M  V30 4 2 3 9
M  V30 5 1 4 6
M  V30 6 1 4 9
M  V30 7 1 5 7
M  V30 8 2 5 8
M  V30 9 2 7 10
M  V30 10 1 9 10
M  V30 11 1 2 11
M  V30 12 1 2 12
M  V30 13 1 3 13
M  V30 14 1 3 14
M  V30 15 1 6 15 CFG=3
M  V30 16 1 6 16
M  V30 17 1 6 17
M  V30 18 1 7 18
M  V30 19 1 4 19
M  V30 END BOND
M  V30 END CTAB
M  END
>  <Ligand_Instance>  (74) 
5N3A_46P_A_404

>  <Dataset>  (74) 
PDB

>  <PDB_ID>  (74) 
5N3A

>  <Chain>  (74) 
A

>  <Resi>  (74) 
404

>  <Num_Resolved_Atoms>  (74) 
10

>  <Num_H_Atoms_ProtBoundConf>  (74) 
9

>  <Pocket>  (74) 
A

>  <SMILES>  (74) 
Cc1c(sc(n1)N)c2nccn2C

>  <Name>  (74) 
4-methyl-5-(1-methyl-1H-imidazol-2-yl)-1,3-thiazol-2-amine

>  <Num_Heavy_Atoms>  (74) 
13

>  <Num_Not_Resolved_Atoms>  (74) 
3

>  <ATP_Site>  (74) 
True

>  <Peripheral>  (74) 
False

>  <Standardized_SMILES>  (74) 
[H]C1=C(C(N([H])C([H])([H])[H])=[N+]([H])[H])SC(N([H])[H])=N1

$$$$
47V
     RDKit          3D

  0  0  0  0  0  0  0  0  0  0999 V3000
M  V30 BEGIN CTAB
M  V30 COUNTS 28 29 0 0 0
M  V30 BEGIN ATOM
M  V30 1 O -28.625000 -1.722000 4.901000 0
M  V30 2 O -25.895000 1.398000 4.880000 0
M  V30 3 N -31.360000 -4.387000 8.352000 0
M  V30 4 N -28.388000 -1.684000 7.152000 0
M  V30 5 C -25.008000 2.692000 6.734000 0 CFG=1
M  V30 6 C -26.995000 0.040000 3.203000 0 CFG=1
M  V30 7 C -30.586000 -3.753000 9.239000 0
M  V30 8 C -31.149000 -4.115000 7.062000 0
M  V30 9 C -29.573000 -2.880000 8.892000 0
M  V30 10 C -30.193000 -3.226000 6.611000 0
M  V30 11 C -26.593000 0.629000 6.841000 0
M  V30 12 C -28.111000 -1.265000 5.909000 0
M  V30 13 C -25.842000 1.565000 6.245000 0
M  V30 14 C -26.720000 0.329000 4.634000 0
M  V30 15 C -29.378000 -2.607000 7.549000 0
M  V30 16 C -27.171000 -0.181000 5.809000 0
M  V30 17 H -27.826900 -1.296700 7.883600 0
M  V30 18 H -25.040100 2.721400 7.733100 0
M  V30 19 H -24.062800 2.561700 6.434500 0
M  V30 20 H -25.359400 3.551900 6.363700 0
M  V30 21 H -27.601800 -0.751800 3.133500 0
M  V30 22 H -27.433000 0.833700 2.780800 0
M  V30 23 H -26.135300 -0.156400 2.731400 0
M  V30 24 H -30.750100 -3.920700 10.211100 0
M  V30 25 H -31.715800 -4.581900 6.383200 0
M  V30 26 H -28.996800 -2.457200 9.591400 0
M  V30 27 H -30.090700 -3.033400 5.635100 0
M  V30 28 H -26.726000 0.516100 7.825700 0
M  V30 END ATOM
M  V30 BEGIN BOND
M  V30 1 2 1 12
M  V30 2 1 2 13
M  V30 3 1 2 14
M  V30 4 2 3 7
M  V30 5 1 3 8
M  V30 6 1 4 12
M  V30 7 1 4 15
M  V30 8 1 5 13
M  V30 9 1 6 14
M  V30 10 1 7 9
M  V30 11 2 8 10
M  V30 12 2 9 15
M  V30 13 1 10 15
M  V30 14 2 11 13
M  V30 15 1 11 16
M  V30 16 1 12 16
M  V30 17 2 14 16
M  V30 18 1 4 17
M  V30 19 1 5 18 CFG=1
M  V30 20 1 5 19
M  V30 21 1 5 20
M  V30 22 1 6 21 CFG=1
M  V30 23 1 6 22
M  V30 24 1 6 23
M  V30 25 1 7 24
M  V30 26 1 8 25
M  V30 27 1 9 26
M  V30 28 1 10 27
M  V30 29 1 11 28
M  V30 END BOND
M  V30 END CTAB
M  END
>  <Ligand_Instance>  (75) 
5N1L_47V_A_401

>  <Dataset>  (75) 
PDB

>  <PDB_ID>  (75) 
5N1L

>  <Chain>  (75) 
A

>  <Resi>  (75) 
401

>  <Num_Resolved_Atoms>  (75) 
16

>  <Num_H_Atoms_ProtBoundConf>  (75) 
12

>  <Pocket>  (75) 
A

>  <SMILES>  (75) 
Cc1cc(c(o1)C)C(=O)Nc2ccncc2

>  <Name>  (75) 
2,5-dimethyl-N-(pyridin-4-yl)furan-3-carboxamide

>  <Num_Heavy_Atoms>  (75) 
16

>  <Num_Not_Resolved_Atoms>  (75) 
0

>  <ATP_Site>  (75) 
True

>  <Peripheral>  (75) 
False

>  <Standardized_SMILES>  (75) 
[H]C1=NC([H])=C([H])C(N([H])C(=O)C2=C(C([H])([H])[H])OC(C([H])([H])[H])=C2[H])=C1[H]

$$$$
489
     RDKit          3D

  0  0  0  0  0  0  0  0  0  0999 V3000
M  V30 BEGIN CTAB
M  V30 COUNTS 22 22 0 0 0
M  V30 BEGIN ATOM
M  V30 1 F 74.427000 98.211000 23.463000 0
M  V30 2 O 69.714000 96.139000 27.119000 0
M  V30 3 N 67.346000 96.837000 25.941000 0 CFG=1 CHG=1
M  V30 4 C 68.613000 97.240000 25.381000 0 CFG=2
M  V30 5 C 72.748000 99.064000 24.855000 0
M  V30 6 C 72.881000 96.716000 24.403000 0
M  V30 7 C 71.591000 98.849000 25.578000 0
M  V30 8 C 71.728000 96.517000 25.141000 0
M  V30 9 C 73.350000 97.992000 24.277000 0
M  V30 10 C 69.727000 97.363000 26.410000 0 CFG=2
M  V30 11 C 71.053000 97.575000 25.721000 0
M  V30 12 H 69.395100 95.407800 26.515900 0
M  V30 13 H 66.663700 96.776600 25.212500 0
M  V30 14 H 67.444600 95.944000 26.380200 0
M  V30 15 H 68.493600 98.128400 24.937700 0
M  V30 16 H 68.886700 96.561400 24.699400 0
M  V30 17 H 73.131600 99.982500 24.759700 0
M  V30 18 H 73.356900 95.948000 23.974500 0
M  V30 19 H 71.130700 99.625900 26.007600 0
M  V30 20 H 71.375400 95.588500 25.257400 0
M  V30 21 H 69.537700 98.122600 27.032200 0
M  V30 22 H 67.051500 97.511000 26.618500 0
M  V30 END ATOM
M  V30 BEGIN BOND
M  V30 1 1 1 9
M  V30 2 1 2 10
M  V30 3 1 3 4
M  V30 4 1 4 10
M  V30 5 2 5 7
M  V30 6 1 5 9
M  V30 7 1 6 8
M  V30 8 2 6 9
M  V30 9 1 7 11
M  V30 10 2 8 11
M  V30 11 1 10 11
M  V30 12 1 2 12
M  V30 13 1 3 13 CFG=3
M  V30 14 1 3 14
M  V30 15 1 4 15 CFG=3
M  V30 16 1 4 16
M  V30 17 1 5 17
M  V30 18 1 6 18
M  V30 19 1 7 19
M  V30 20 1 8 20
M  V30 21 1 10 21 CFG=1
M  V30 22 1 3 22
M  V30 END BOND
M  V30 END CTAB
M  END
>  <Ligand_Instance>  (76) 
5N1K_489_A_401

>  <Dataset>  (76) 
PDB

>  <PDB_ID>  (76) 
5N1K

>  <Chain>  (76) 
A

>  <Resi>  (76) 
401

>  <Num_Resolved_Atoms>  (76) 
11

>  <Num_H_Atoms_ProtBoundConf>  (76) 
11

>  <Pocket>  (76) 
A

>  <SMILES>  (76) 
c1cc(ccc1[C@@H](CN)O)F

>  <Name>  (76) 
(1S)-2-amino-1-(4-fluorophenyl)ethanol

>  <Num_Heavy_Atoms>  (76) 
11

>  <Num_Not_Resolved_Atoms>  (76) 
0

>  <ATP_Site>  (76) 
True

>  <Peripheral>  (76) 
True

>  <Standardized_SMILES>  (76) 
[H]O[C@@]([H])(C1=C([H])C([H])=C(F)C([H])=C1[H])C([H])([H])[N+]([H])([H])[H]

$$$$
495
     RDKit          3D

  0  0  0  0  0  0  0  0  0  0999 V3000
M  V30 BEGIN CTAB
M  V30 COUNTS 17 18 0 0 0
M  V30 BEGIN ATOM
M  V30 1 Cl 6.080000 10.013000 0.143000 0
M  V30 2 O 2.967000 9.958000 4.899000 0
M  V30 3 N 3.832000 9.946000 1.548000 0
M  V30 4 N 3.111000 9.924000 2.623000 0
M  V30 5 C 7.881000 10.104000 4.118000 0
M  V30 6 C 7.132000 10.096000 5.290000 0
M  V30 7 C 7.235000 10.072000 2.883000 0
M  V30 8 C 5.732000 10.050000 5.229000 0
M  V30 9 C 5.178000 9.992000 1.596000 0
M  V30 10 C 3.690000 9.969000 3.896000 0
M  V30 11 C 5.839000 10.026000 2.821000 0
M  V30 12 C 5.086000 10.013000 3.994000 0
M  V30 13 H 2.115600 9.873600 2.541600 0
M  V30 14 H 8.879700 10.132600 4.161100 0
M  V30 15 H 7.592600 10.123100 6.177200 0
M  V30 16 H 7.771600 10.082000 2.039200 0
M  V30 17 H 5.195700 10.043700 6.073000 0
M  V30 END ATOM
M  V30 BEGIN BOND
M  V30 1 1 1 9
M  V30 2 2 2 10
M  V30 3 1 3 4
M  V30 4 2 3 9
M  V30 5 1 4 10
M  V30 6 2 5 6
M  V30 7 1 5 7
M  V30 8 1 6 8
M  V30 9 2 7 11
M  V30 10 2 8 12
M  V30 11 1 9 11
M  V30 12 1 10 12
M  V30 13 1 11 12
M  V30 14 1 4 13
M  V30 15 1 5 14
M  V30 16 1 6 15
M  V30 17 1 7 16
M  V30 18 1 8 17
M  V30 END BOND
M  V30 END CTAB
M  END
>  <Ligand_Instance>  (77) 
5BX6_495_A_401

>  <Dataset>  (77) 
PDB

>  <PDB_ID>  (77) 
5BX6

>  <Chain>  (77) 
A

>  <Resi>  (77) 
401

>  <Num_Resolved_Atoms>  (77) 
12

>  <Num_H_Atoms_ProtBoundConf>  (77) 
5

>  <Pocket>  (77) 
A

>  <SMILES>  (77) 
c1ccc2c(c1)C(=O)NN=C2Cl

>  <Name>  (77) 
4-chlorophthalazin-1(2H)-one

>  <Num_Heavy_Atoms>  (77) 
12

>  <Num_Not_Resolved_Atoms>  (77) 
0

>  <ATP_Site>  (77) 
True

>  <Peripheral>  (77) 
False

>  <Standardized_SMILES>  (77) 
[H]C1=C([H])C([H])=C2C(Cl)=NN([H])C(=O)C2=C1[H]

$$$$
4L7
     RDKit          3D

  0  0  0  0  0  0  0  0  0  0999 V3000
M  V30 BEGIN CTAB
M  V30 COUNTS 39 42 0 0 0
M  V30 BEGIN ATOM
M  V30 1 Br -22.121000 14.358000 -0.752000 0
M  V30 2 S -23.676000 13.083000 1.638000 0
M  V30 3 O -32.922000 10.139000 4.657000 0
M  V30 4 O -25.392000 11.659000 3.640000 0
M  V30 5 N -25.051000 7.252000 3.122000 0 CFG=2 CHG=1
M  V30 6 N -32.798000 9.823000 2.412000 0
M  V30 7 N -30.769000 9.392000 1.276000 0
M  V30 8 C -32.073000 9.541000 1.302000 0
M  V30 9 C -24.495000 8.513000 2.666000 0 CFG=2
M  V30 10 C -26.359000 7.568000 3.716000 0 CFG=2
M  V30 11 C -23.197000 11.690000 -0.475000 0
M  V30 12 C -23.965000 10.859000 0.378000 0
M  V30 13 C -28.691000 9.858000 4.873000 0
M  V30 14 C -30.059000 10.059000 4.864000 0
M  V30 15 C -28.714000 9.389000 2.520000 0
M  V30 16 C -22.982000 12.905000 0.066000 0
M  V30 17 C -24.321000 11.467000 1.564000 0
M  V30 18 C -32.239000 9.997000 3.647000 0
M  V30 19 C -25.136000 10.965000 2.672000 0
M  V30 20 C -30.099000 9.571000 2.496000 0
M  V30 21 C -28.007000 9.503000 3.715000 0
M  V30 22 C -30.776000 9.889000 3.679000 0
M  V30 23 C -25.644000 9.538000 2.584000 0 CFG=2
M  V30 24 C -26.548000 9.097000 3.779000 0 CFG=2
M  V30 25 H -24.451400 6.836400 3.806000 0
M  V30 26 H -33.790400 9.907900 2.323000 0
M  V30 27 H -32.568000 9.438900 0.439100 0
M  V30 28 H -24.080600 8.394700 1.763600 0
M  V30 29 H -23.801400 8.831600 3.312100 0
M  V30 30 H -26.404000 7.189500 4.640500 0
M  V30 31 H -27.083700 7.166700 3.155900 0
M  V30 32 H -22.855400 11.408200 -1.371600 0
M  V30 33 H -24.223900 9.922200 0.142900 0
M  V30 34 H -28.184100 9.969900 5.727700 0
M  V30 35 H -30.532700 10.325200 5.703500 0
M  V30 36 H -28.226700 9.175400 1.673300 0
M  V30 37 H -26.141600 9.413400 1.725600 0
M  V30 38 H -26.151700 9.439400 4.630900 0
M  V30 39 H -25.163200 6.624300 2.351600 0
M  V30 END ATOM
M  V30 BEGIN BOND
M  V30 1 1 1 16
M  V30 2 1 2 16
M  V30 3 1 2 17
M  V30 4 2 3 18
M  V30 5 2 4 19
M  V30 6 1 5 9
M  V30 7 1 5 10
M  V30 8 1 6 8
M  V30 9 1 6 18
M  V30 10 2 7 8
M  V30 11 1 7 20
M  V30 12 1 9 23
M  V30 13 1 10 24
M  V30 14 1 11 12
M  V30 15 2 11 16
M  V30 16 2 12 17
M  V30 17 1 13 14
M  V30 18 2 13 21
M  V30 19 2 14 22
M  V30 20 2 15 20
M  V30 21 1 15 21
M  V30 22 1 17 19
M  V30 23 1 18 22
M  V30 24 1 19 23
M  V30 25 1 20 22
M  V30 26 1 21 24
M  V30 27 1 23 24
M  V30 28 1 5 25 CFG=1
M  V30 29 1 6 26
M  V30 30 1 8 27
M  V30 31 1 9 28 CFG=3
M  V30 32 1 9 29
M  V30 33 1 10 30 CFG=1
M  V30 34 1 10 31
M  V30 35 1 11 32
M  V30 36 1 12 33
M  V30 37 1 13 34
M  V30 38 1 14 35
M  V30 39 1 15 36
M  V30 40 1 23 37 CFG=3
M  V30 41 1 24 38 CFG=1
M  V30 42 1 5 39
M  V30 END BOND
M  V30 END CTAB
M  END
>  <Ligand_Instance>  (78) 
4UJA_4L7_A_1351

>  <Dataset>  (78) 
PDB

>  <PDB_ID>  (78) 
4UJA

>  <Chain>  (78) 
A

>  <Resi>  (78) 
1351

>  <Num_Resolved_Atoms>  (78) 
24

>  <Num_H_Atoms_ProtBoundConf>  (78) 
15

>  <Pocket>  (78) 
A

>  <SMILES>  (78) 
c1cc2c(cc1[C@H]3CNC[C@@H]3C(=O)c4ccc(s4)Br)N=CNC2=O

>  <Name>  (78) 
7-{(3S,4R)-4-[(5-bromothiophen-2-yl)carbonyl]pyrrolidin-3-yl}quinazolin-4(3H)-one

>  <Num_Heavy_Atoms>  (78) 
24

>  <Num_Not_Resolved_Atoms>  (78) 
0

>  <ATP_Site>  (78) 
True

>  <Peripheral>  (78) 
False

>  <Standardized_SMILES>  (78) 
[H]C1=NC2=C([H])C([C@@]3([H])C([H])([H])[N+]([H])([H])C([H])([H])[C@]3([H])C(=O)C3=C([H])C([H])=C(Br)S3)=C([H])C([H])=C2C(=O)N1[H]

$$$$
4L7
     RDKit          3D

  0  0  0  0  0  0  0  0  0  0999 V3000
M  V30 BEGIN CTAB
M  V30 COUNTS 39 42 0 0 0
M  V30 BEGIN ATOM
M  V30 1 Br -17.660000 -14.430000 3.081000 0
M  V30 2 S -15.877000 -13.415000 5.441000 0
M  V30 3 O -6.264000 -11.062000 8.561000 0
M  V30 4 O -13.975000 -12.168000 7.432000 0
M  V30 5 N -13.933000 -7.784000 6.871000 0 CFG=2 CHG=1
M  V30 6 N -6.299000 -10.778000 6.288000 0
M  V30 7 N -8.320000 -10.381000 5.086000 0
M  V30 8 C -6.999000 -10.567000 5.148000 0
M  V30 9 C -14.541000 -8.999000 6.304000 0 CFG=2
M  V30 10 C -12.591000 -8.141000 7.284000 0 CFG=2
M  V30 11 C -16.008000 -12.071000 3.250000 0
M  V30 12 C -15.113000 -11.374000 4.082000 0
M  V30 13 C -10.510000 -10.597000 8.637000 0
M  V30 14 C -9.142000 -10.800000 8.684000 0
M  V30 15 C -10.398000 -10.214000 6.272000 0
M  V30 16 C -16.486000 -13.181000 3.838000 0
M  V30 17 C -14.926000 -11.954000 5.304000 0
M  V30 18 C -6.916000 -10.861000 7.538000 0
M  V30 19 C -14.123000 -11.486000 6.435000 0
M  V30 20 C -9.017000 -10.431000 6.301000 0
M  V30 21 C -11.143000 -10.242000 7.451000 0
M  V30 22 C -8.381000 -10.691000 7.523000 0
M  V30 23 C -13.478000 -10.114000 6.305000 0 CFG=2
M  V30 24 C -12.551000 -9.683000 7.480000 0 CFG=2
M  V30 25 H -14.463100 -7.469000 7.658200 0
M  V30 26 H -5.305500 -10.877900 6.232700 0
M  V30 27 H -6.488500 -10.549100 4.288300 0
M  V30 28 H -14.843900 -8.820800 5.367800 0
M  V30 29 H -15.324000 -9.277100 6.860400 0
M  V30 30 H -12.365900 -7.682500 8.143700 0
M  V30 31 H -11.934600 -7.870100 6.579900 0
M  V30 32 H -16.259300 -11.775000 2.328400 0
M  V30 33 H -14.655000 -10.529800 3.803600 0
M  V30 34 H -11.052400 -10.707500 9.469900 0
M  V30 35 H -8.699700 -11.025100 9.552200 0
M  V30 36 H -10.854700 -10.037500 5.400100 0
M  V30 37 H -12.961700 -10.074800 5.449500 0
M  V30 38 H -12.984700 -9.919100 8.349600 0
M  V30 39 H -13.899900 -7.061300 6.180700 0
M  V30 END ATOM
M  V30 BEGIN BOND
M  V30 1 1 1 16
M  V30 2 1 2 16
M  V30 3 1 2 17
M  V30 4 2 3 18
M  V30 5 2 4 19
M  V30 6 1 5 9
M  V30 7 1 5 10
M  V30 8 1 6 8
M  V30 9 1 6 18
M  V30 10 2 7 8
M  V30 11 1 7 20
M  V30 12 1 9 23
M  V30 13 1 10 24
M  V30 14 1 11 12
M  V30 15 2 11 16
M  V30 16 2 12 17
M  V30 17 1 13 14
M  V30 18 2 13 21
M  V30 19 2 14 22
M  V30 20 2 15 20
M  V30 21 1 15 21
M  V30 22 1 17 19
M  V30 23 1 18 22
M  V30 24 1 19 23
M  V30 25 1 20 22
M  V30 26 1 21 24
M  V30 27 1 23 24
M  V30 28 1 5 25 CFG=1
M  V30 29 1 6 26
M  V30 30 1 8 27
M  V30 31 1 9 28 CFG=3
M  V30 32 1 9 29
M  V30 33 1 10 30 CFG=1
M  V30 34 1 10 31
M  V30 35 1 11 32
M  V30 36 1 12 33
M  V30 37 1 13 34
M  V30 38 1 14 35
M  V30 39 1 15 36
M  V30 40 1 23 37 CFG=3
M  V30 41 1 24 38 CFG=1
M  V30 42 1 5 39
M  V30 END BOND
M  V30 END CTAB
M  END
>  <Ligand_Instance>  (79) 
4Z83_4L7_E_401

>  <Dataset>  (79) 
PDB

>  <PDB_ID>  (79) 
4Z83

>  <Chain>  (79) 
E

>  <Resi>  (79) 
401

>  <Num_Resolved_Atoms>  (79) 
24

>  <Num_H_Atoms_ProtBoundConf>  (79) 
15

>  <Pocket>  (79) 
A

>  <SMILES>  (79) 
c1cc2c(cc1[C@H]3CNC[C@@H]3C(=O)c4ccc(s4)Br)N=CNC2=O

>  <Name>  (79) 
7-{(3S,4R)-4-[(5-bromothiophen-2-yl)carbonyl]pyrrolidin-3-yl}quinazolin-4(3H)-one

>  <Num_Heavy_Atoms>  (79) 
24

>  <Num_Not_Resolved_Atoms>  (79) 
0

>  <ATP_Site>  (79) 
True

>  <Peripheral>  (79) 
True

>  <Standardized_SMILES>  (79) 
[H]C1=NC2=C([H])C([C@@]3([H])C([H])([H])[N+]([H])([H])C([H])([H])[C@]3([H])C(=O)C3=C([H])C([H])=C(Br)S3)=C([H])C([H])=C2C(=O)N1[H]

$$$$
4NB
     RDKit          3D

  0  0  0  0  0  0  0  0  0  0999 V3000
M  V30 BEGIN CTAB
M  V30 COUNTS 16 16 0 0 0
M  V30 BEGIN ATOM
M  V30 1 O -11.071000 1.603000 -29.422000 0
M  V30 2 O -9.493000 2.652000 -28.375000 0 CHG=-1
M  V30 3 O -12.974000 8.542000 -29.026000 0
M  V30 4 O -14.592000 7.523000 -30.163000 0 CHG=-1
M  V30 5 N -10.580000 2.627000 -28.965000 0 CHG=1
M  V30 6 C -12.614000 3.849000 -29.638000 0
M  V30 7 C -10.685000 5.079000 -28.858000 0
M  V30 8 C -13.308000 5.034000 -29.786000 0
M  V30 9 C -11.392000 6.256000 -29.017000 0
M  V30 10 C -13.477000 7.542000 -29.578000 0
M  V30 11 C -11.308000 3.894000 -29.173000 0
M  V30 12 C -12.707000 6.250000 -29.480000 0
M  V30 13 H -13.045100 2.974900 -29.861900 0
M  V30 14 H -9.743200 5.088800 -28.522000 0
M  V30 15 H -14.251700 5.017300 -30.116400 0
M  V30 16 H -10.952700 7.126800 -28.796100 0
M  V30 END ATOM
M  V30 BEGIN BOND
M  V30 1 2 1 5
M  V30 2 1 2 5
M  V30 3 2 3 10
M  V30 4 1 4 10
M  V30 5 1 5 11
M  V30 6 1 6 8
M  V30 7 2 6 11
M  V30 8 2 7 9
M  V30 9 1 7 11
M  V30 10 2 8 12
M  V30 11 1 9 12
M  V30 12 1 10 12
M  V30 13 1 9 16
M  V30 14 1 6 13
M  V30 15 1 7 14
M  V30 16 1 8 15
M  V30 END BOND
M  V30 END CTAB
M  END
>  <Ligand_Instance>  (80) 
5N3J_4NB_A_402

>  <Dataset>  (80) 
PDB

>  <PDB_ID>  (80) 
5N3J

>  <Chain>  (80) 
A

>  <Resi>  (80) 
402

>  <Num_Resolved_Atoms>  (80) 
12

>  <Num_H_Atoms_ProtBoundConf>  (80) 
4

>  <Pocket>  (80) 
A

>  <SMILES>  (80) 
c1cc(ccc1C(=O)O)[N+](=O)[O-]

>  <Name>  (80) 
4-NITROBENZOIC ACID

>  <Num_Heavy_Atoms>  (80) 
12

>  <Num_Not_Resolved_Atoms>  (80) 
0

>  <ATP_Site>  (80) 
True

>  <Peripheral>  (80) 
False

>  <Standardized_SMILES>  (80) 
[H]C1=C([H])C([N+](=O)[O-])=C([H])C([H])=C1C(=O)[O-]

$$$$
4PY
     RDKit          3D

  0  0  0  0  0  0  0  0  0  0999 V3000
M  V30 BEGIN CTAB
M  V30 COUNTS 50 54 0 0 0
M  V30 BEGIN ATOM
M  V30 1 O 12.009000 9.858000 1.894000 0
M  V30 2 N 14.005000 8.354000 3.333000 0 CFG=1 CHG=1
M  V30 3 N 3.367000 10.098000 4.298000 0
M  V30 4 N 9.847000 10.297000 -1.069000 0
M  V30 5 N 3.104000 9.974000 2.980000 0
M  V30 6 N 5.892000 9.936000 0.503000 0
M  V30 7 N 15.617000 10.596000 -0.011000 0
M  V30 8 C 11.952000 9.693000 3.318000 0 CFG=2
M  V30 9 C 13.633000 13.702000 -1.008000 0
M  V30 10 C 13.065000 13.955000 0.275000 0
M  V30 11 C 4.675000 10.194000 4.524000 0
M  V30 12 C 10.942000 10.160000 -0.271000 0
M  V30 13 C 8.594000 10.267000 -0.515000 0
M  V30 14 C 4.581000 9.891000 0.880000 0
M  V30 15 C 15.574000 10.131000 1.272000 0
M  V30 16 C 14.505000 12.590000 -1.197000 0
M  V30 17 C 13.374000 13.089000 1.365000 0
M  V30 18 C 9.522000 9.956000 1.696000 0
M  V30 19 C 14.398000 10.790000 3.536000 0 CFG=2
M  V30 20 C 6.643000 10.166000 2.797000 0
M  V30 21 C 10.835000 9.987000 1.130000 0
M  V30 22 C 13.415000 9.598000 3.841000 0 CFG=2
M  V30 23 C 4.250000 9.980000 2.219000 0
M  V30 24 C 6.962000 10.070000 1.411000 0
M  V30 25 C 14.810000 11.740000 -0.128000 0
M  V30 26 C 5.309000 10.123000 3.208000 0
M  V30 27 C 8.366000 10.099000 0.869000 0
M  V30 28 C 14.729000 10.964000 2.051000 0
M  V30 29 C 14.238000 11.993000 1.171000 0
M  V30 30 H 14.947100 8.274500 3.658900 0
M  V30 31 H 13.471900 7.574000 3.660900 0
M  V30 32 H 2.182800 9.887800 2.600600 0
M  V30 33 H 16.143400 10.184400 -0.755000 0
M  V30 34 H 11.454100 8.855800 3.544400 0
M  V30 35 H 11.491700 10.477400 3.733800 0
M  V30 36 H 13.419500 14.305300 -1.776400 0
M  V30 37 H 12.453700 14.734900 0.409700 0
M  V30 38 H 5.129500 10.293900 5.409100 0
M  V30 39 H 11.850700 10.182300 -0.688000 0
M  V30 40 H 7.803600 10.368900 -1.119000 0
M  V30 41 H 3.863200 9.794100 0.190600 0
M  V30 42 H 16.062700 9.327100 1.610800 0
M  V30 43 H 14.901000 12.416400 -2.098700 0
M  V30 44 H 12.977500 13.259600 2.267000 0
M  V30 45 H 9.411800 9.832800 2.682200 0
M  V30 46 H 15.251600 10.627500 4.030900 0
M  V30 47 H 13.977700 11.635600 3.865100 0
M  V30 48 H 7.372900 10.263900 3.473600 0
M  V30 49 H 13.363400 9.510600 4.835800 0
M  V30 50 H 13.998000 8.365800 2.333100 0
M  V30 END ATOM
M  V30 BEGIN BOND
M  V30 1 1 1 8
M  V30 2 1 1 21
M  V30 3 1 2 22
M  V30 4 1 3 5
M  V30 5 2 3 11
M  V30 6 2 4 12
M  V30 7 1 4 13
M  V30 8 1 5 23
M  V30 9 1 6 14
M  V30 10 2 6 24
M  V30 11 1 7 15
M  V30 12 1 7 25
M  V30 13 1 8 22
M  V30 14 2 9 10
M  V30 15 1 9 16
M  V30 16 1 10 17
M  V30 17 1 11 26
M  V30 18 1 12 21
M  V30 19 2 13 27
M  V30 20 2 14 23
M  V30 21 2 15 28
M  V30 22 2 16 25
M  V30 23 2 17 29
M  V30 24 2 18 21
M  V30 25 1 18 27
M  V30 26 1 19 22
M  V30 27 1 19 28
M  V30 28 1 20 24
M  V30 29 2 20 26
M  V30 30 1 23 26
M  V30 31 1 24 27
M  V30 32 1 25 29
M  V30 33 1 28 29
M  V30 34 1 2 30 CFG=3
M  V30 35 1 2 31
M  V30 36 1 5 32
M  V30 37 1 7 33
M  V30 38 1 8 34 CFG=3
M  V30 39 1 8 35
M  V30 40 1 9 36
M  V30 41 1 10 37
M  V30 42 1 11 38
M  V30 43 1 12 39
M  V30 44 1 13 40
M  V30 45 1 14 41
M  V30 46 1 15 42
M  V30 47 1 16 43
M  V30 48 1 17 44
M  V30 49 1 18 45
M  V30 50 1 19 46 CFG=1
M  V30 51 1 19 47
M  V30 52 1 20 48
M  V30 53 1 22 49 CFG=1
M  V30 54 1 2 50
M  V30 END BOND
M  V30 END CTAB
M  END
>  <Ligand_Instance>  (81) 
2OJF_4PY_E_1000

>  <Dataset>  (81) 
PDB

>  <PDB_ID>  (81) 
2OJF

>  <Chain>  (81) 
E

>  <Resi>  (81) 
1000

>  <Num_Resolved_Atoms>  (81) 
29

>  <Num_H_Atoms_ProtBoundConf>  (81) 
21

>  <Pocket>  (81) 
A

>  <SMILES>  (81) 
c1c(cncc1OC[C@H](CC2=C3C=CCC=C3N=C2)N)C4=NCC5=NN=CC5=C4

>  <Name>  (81) 
(2S)-1-(6H-INDOL-3-YL)-3-{[5-(7H-PYRAZOLO[3,4-C]PYRIDIN-5-YL)PYRIDIN-3-YL]OXY}PROPAN-2-AMINE

>  <Num_Heavy_Atoms>  (81) 
29

>  <Num_Not_Resolved_Atoms>  (81) 
0

>  <ATP_Site>  (81) 
True

>  <Peripheral>  (81) 
False

>  <Standardized_SMILES>  (81) 
[H]C1=NC([H])=C(C2=NC([H])=C3C(=C2[H])C([H])=NN3[H])C([H])=C1OC([H])([H])[C@]([H])(C([H])([H])C1=C([H])N([H])C2=C([H])C([H])=C([H])C([H])=C21)[N+]([H])([H])[H]

$$$$
4SB
     RDKit          3D

  0  0  0  0  0  0  0  0  0  0999 V3000
M  V30 BEGIN CTAB
M  V30 COUNTS 42 43 0 0 0
M  V30 BEGIN ATOM
M  V30 1 Br 31.843000 10.062000 -5.586000 0
M  V30 2 O 25.681000 10.210000 1.061000 0
M  V30 3 O 33.518000 10.141000 -3.108000 0
M  V30 4 N 22.373000 7.438000 -0.873000 0 CFG=1 CHG=1
M  V30 5 N 27.320000 10.126000 -0.941000 0
M  V30 6 N 25.884000 10.173000 -1.052000 0
M  V30 7 C 21.936000 8.742000 -1.275000 0 CFG=2
M  V30 8 C 27.948000 10.115000 -2.097000 0
M  V30 9 C 22.363000 14.300000 0.602000 0
M  V30 10 C 23.116000 13.953000 -0.504000 0
M  V30 11 C 21.976000 13.277000 1.556000 0
M  V30 12 C 23.151000 9.677000 -1.462000 0 CFG=2
M  V30 13 C 23.542000 12.561000 -0.725000 0
M  V30 14 C 22.384000 11.951000 1.337000 0
M  V30 15 C 31.656000 10.168000 -1.403000 0
M  V30 16 C 30.331000 10.167000 -1.151000 0
M  V30 17 C 29.937000 10.095000 -3.534000 0
M  V30 18 C 25.158000 10.208000 0.062000 0
M  V30 19 C 31.280000 10.107000 -3.777000 0
M  V30 20 C 32.138000 10.134000 -2.783000 0
M  V30 21 C 29.462000 10.126000 -2.215000 0
M  V30 22 C 23.202000 11.610000 0.152000 0
M  V30 23 C 23.630000 10.249000 -0.080000 0 CFG=1
M  V30 24 H 34.203000 10.170100 -2.380000 0
M  V30 25 H 21.578800 6.841900 -0.755100 0
M  V30 26 H 22.974500 7.056900 -1.575100 0
M  V30 27 H 25.442000 10.179200 -1.949000 0
M  V30 28 H 21.333400 9.119800 -0.572000 0
M  V30 29 H 21.437200 8.671600 -2.138900 0
M  V30 30 H 27.403800 10.098700 -2.935800 0
M  V30 31 H 22.086500 15.250500 0.744000 0
M  V30 32 H 23.375400 14.658000 -1.164000 0
M  V30 33 H 21.426800 13.512800 2.357700 0
M  V30 34 H 22.892100 10.436000 -2.059300 0
M  V30 35 H 23.899200 9.162900 -1.881500 0
M  V30 36 H 24.085600 12.326500 -1.530900 0
M  V30 37 H 22.120900 11.235200 1.983800 0
M  V30 38 H 32.308900 10.192000 -0.645900 0
M  V30 39 H 29.988800 10.195400 -0.211800 0
M  V30 40 H 29.291400 10.064100 -4.297000 0
M  V30 41 H 23.239100 9.677000 0.641200 0
M  V30 42 H 22.870700 7.505100 -0.008300 0
M  V30 END ATOM
M  V30 BEGIN BOND
M  V30 1 1 1 19
M  V30 2 2 2 18
M  V30 3 1 3 20
M  V30 4 1 4 7
M  V30 5 1 5 6
M  V30 6 2 5 8
M  V30 7 1 6 18
M  V30 8 1 7 12
M  V30 9 1 8 21
M  V30 10 2 9 10
M  V30 11 1 9 11
M  V30 12 1 10 13
M  V30 13 2 11 14
M  V30 14 1 12 23
M  V30 15 2 13 22
M  V30 16 1 14 22
M  V30 17 1 15 16
M  V30 18 2 15 20
M  V30 19 2 16 21
M  V30 20 2 17 19
M  V30 21 1 17 21
M  V30 22 1 18 23
M  V30 23 1 19 20
M  V30 24 1 22 23
M  V30 25 1 3 24
M  V30 26 1 4 25 CFG=1
M  V30 27 1 4 26
M  V30 28 1 6 27
M  V30 29 1 7 28 CFG=1
M  V30 30 1 7 29
M  V30 31 1 8 30
M  V30 32 1 9 31
M  V30 33 1 10 32
M  V30 34 1 11 33
M  V30 35 1 12 34 CFG=3
M  V30 36 1 12 35
M  V30 37 1 13 36
M  V30 38 1 14 37
M  V30 39 1 15 38
M  V30 40 1 16 39
M  V30 41 1 17 40
M  V30 42 1 23 41 CFG=1
M  V30 43 1 4 42
M  V30 END BOND
M  V30 END CTAB
M  END
>  <Ligand_Instance>  (82) 
3P0M_4SB_A_351

>  <Dataset>  (82) 
PDB

>  <PDB_ID>  (82) 
3P0M

>  <Chain>  (82) 
A

>  <Resi>  (82) 
351

>  <Num_Resolved_Atoms>  (82) 
23

>  <Num_H_Atoms_ProtBoundConf>  (82) 
19

>  <Pocket>  (82) 
A

>  <SMILES>  (82) 
c1ccc(cc1)[C@@H](CCN)C(=O)N/N=C/c2ccc(c(c2)Br)O

>  <Name>  (82) 
(2R)-4-amino-N'-[(1E)-(3-bromo-4-hydroxyphenyl)methylidene]-2-phenylbutanehydrazide

>  <Num_Heavy_Atoms>  (82) 
23

>  <Num_Not_Resolved_Atoms>  (82) 
0

>  <ATP_Site>  (82) 
True

>  <Peripheral>  (82) 
False

>  <Standardized_SMILES>  (82) 
[H]OC1=C([H])C([H])=C(/C([H])=N/N([H])C(=O)[C@@]([H])(C2=C([H])C([H])=C([H])C([H])=C2[H])C([H])([H])C([H])([H])[N+]([H])([H])[H])C([H])=C1Br

$$$$
4W1
     RDKit          3D

  0  0  0  0  0  0  0  0  0  0999 V3000
M  V30 BEGIN CTAB
M  V30 COUNTS 19 20 0 0 0
M  V30 BEGIN ATOM
M  V30 1 S -29.858000 9.888000 1.492000 0
M  V30 2 O -27.914000 8.587000 5.415000 0
M  V30 3 C -28.615000 9.918000 2.605000 0
M  V30 4 C -28.337000 9.921000 5.098000 0 CFG=2
M  V30 5 C -33.290000 9.788000 3.546000 0
M  V30 6 C -32.735000 9.808000 4.828000 0
M  V30 7 C -32.438000 9.811000 2.442000 0
M  V30 8 C -31.343000 9.845000 4.945000 0
M  V30 9 C -31.110000 9.851000 2.621000 0
M  V30 10 C -29.191000 9.902000 3.819000 0
M  V30 11 C -30.548000 9.867000 3.858000 0
M  V30 12 H -27.031900 8.619800 5.885000 0
M  V30 13 H -27.635000 9.943000 2.407600 0
M  V30 14 H -27.534000 10.499100 4.953300 0
M  V30 15 H -28.879100 10.286800 5.854600 0
M  V30 16 H -34.281800 9.757700 3.422000 0
M  V30 17 H -33.318300 9.796200 5.640200 0
M  V30 18 H -32.817700 9.797700 1.517000 0
M  V30 19 H -30.928400 9.855400 5.854900 0
M  V30 END ATOM
M  V30 BEGIN BOND
M  V30 1 1 1 3
M  V30 2 1 1 9
M  V30 3 1 2 4
M  V30 4 2 3 10
M  V30 5 1 4 10
M  V30 6 2 5 6
M  V30 7 1 5 7
M  V30 8 1 6 8
M  V30 9 2 7 9
M  V30 10 2 8 11
M  V30 11 1 9 11
M  V30 12 1 10 11
M  V30 13 1 2 12
M  V30 14 1 3 13
M  V30 15 1 4 14 CFG=3
M  V30 16 1 4 15
M  V30 17 1 5 16
M  V30 18 1 6 17
M  V30 19 1 7 18
M  V30 20 1 8 19
M  V30 END BOND
M  V30 END CTAB
M  END
>  <Ligand_Instance>  (83) 
5BX7_4W1_A_401

>  <Dataset>  (83) 
PDB

>  <PDB_ID>  (83) 
5BX7

>  <Chain>  (83) 
A

>  <Resi>  (83) 
401

>  <Num_Resolved_Atoms>  (83) 
11

>  <Num_H_Atoms_ProtBoundConf>  (83) 
8

>  <Pocket>  (83) 
A

>  <SMILES>  (83) 
c1ccc2c(c1)c(cs2)CO

>  <Name>  (83) 
1-benzothiophen-3-ylmethanol

>  <Num_Heavy_Atoms>  (83) 
11

>  <Num_Not_Resolved_Atoms>  (83) 
0

>  <ATP_Site>  (83) 
True

>  <Peripheral>  (83) 
False

>  <Standardized_SMILES>  (83) 
[H]OC([H])([H])C1=C([H])SC2=C([H])C([H])=C([H])C([H])=C21

$$$$
504
     RDKit          3D

  0  0  0  0  0  0  0  0  0  0999 V3000
M  V30 BEGIN CTAB
M  V30 COUNTS 64 68 0 0 0
M  V30 BEGIN ATOM
M  V30 1 S 28.086000 10.339000 1.123000 0
M  V30 2 O 25.156000 10.649000 1.016000 0
M  V30 3 O 20.526000 13.550000 1.677000 0
M  V30 4 N 20.833000 6.869000 3.728000 0 CFG=2 CHG=1
M  V30 5 N 33.189000 10.512000 -4.440000 0
M  V30 6 N 33.271000 10.347000 -1.960000 0
M  V30 7 N 26.251000 10.634000 -0.955000 0
M  V30 8 N 28.595000 10.575000 -1.303000 0
M  V30 9 C 29.758000 10.317000 0.582000 0
M  V30 10 C 20.241000 12.451000 2.531000 0 CFG=2
M  V30 11 C 21.202000 8.004000 4.599000 0 CFG=2
M  V30 12 C 20.535000 7.230000 2.322000 0 CFG=2
M  V30 13 C 32.396000 10.631000 -5.499000 0
M  V30 14 C 32.319000 10.349000 -0.975000 0
M  V30 15 C 18.959000 11.750000 2.099000 0 CFG=2
M  V30 16 C 31.000000 10.727000 -5.359000 0
M  V30 17 C 23.462000 14.681000 -0.092000 0
M  V30 18 C 20.210000 9.175000 4.537000 0 CFG=2
M  V30 19 C 19.510000 8.357000 2.206000 0 CFG=2
M  V30 20 C 22.309000 14.702000 0.667000 0
M  V30 21 C 18.716000 10.578000 3.061000 0 CFG=2
M  V30 22 C 23.930000 13.485000 -0.621000 0
M  V30 23 C 30.414000 10.700000 -4.085000 0
M  V30 24 C 23.816000 10.972000 -0.886000 0 CFG=2
M  V30 25 C 22.144000 12.299000 0.433000 0
M  V30 26 C 27.566000 10.487000 -0.505000 0
M  V30 27 C 25.136000 10.722000 -0.196000 0
M  V30 28 C 21.668000 13.505000 0.953000 0
M  V30 29 C 32.686000 10.468000 -3.193000 0
M  V30 30 C 29.801000 10.502000 -0.751000 0
M  V30 31 C 19.880000 9.567000 3.080000 0 CFG=1
M  V30 32 C 23.279000 12.285000 -0.357000 0
M  V30 33 C 31.084000 10.496000 -1.510000 0
M  V30 34 C 31.276000 10.567000 -2.970000 0
M  V30 35 H 20.020900 6.432200 4.115000 0
M  V30 36 H 34.255200 10.268200 -1.801300 0
M  V30 37 H 26.121000 10.678900 -1.945500 0
M  V30 38 H 30.554300 10.187200 1.172800 0
M  V30 39 H 20.133600 12.783000 3.468100 0
M  V30 40 H 20.999500 11.800500 2.492700 0
M  V30 41 H 22.102400 8.337300 4.319300 0
M  V30 42 H 21.246100 7.676800 5.542900 0
M  V30 43 H 20.176600 6.422400 1.853600 0
M  V30 44 H 21.383200 7.522500 1.880400 0
M  V30 45 H 32.799600 10.652700 -6.413700 0
M  V30 46 H 32.509500 10.255100 0.002200 0
M  V30 47 H 19.056900 11.408000 1.164400 0
M  V30 48 H 18.191200 12.389300 2.141300 0
M  V30 49 H 30.422900 10.814900 -6.170900 0
M  V30 50 H 23.962200 15.530200 -0.261600 0
M  V30 51 H 20.610800 9.964300 5.002200 0
M  V30 52 H 19.364800 8.908700 5.000400 0
M  V30 53 H 18.617000 8.011700 2.494600 0
M  V30 54 H 19.461000 8.651500 1.251600 0
M  V30 55 H 21.940900 15.567800 1.006000 0
M  V30 56 H 17.883500 10.101000 2.779100 0
M  V30 57 H 18.594900 10.942700 3.984200 0
M  V30 58 H 24.745800 13.487000 -1.199300 0
M  V30 59 H 29.423400 10.772100 -3.968600 0
M  V30 60 H 23.175800 10.231800 -0.680400 0
M  V30 61 H 23.951600 11.030400 -1.875000 0
M  V30 62 H 21.663500 11.444900 0.632200 0
M  V30 63 H 20.685300 10.007200 2.682800 0
M  V30 64 H 21.592800 6.218800 3.727000 0
M  V30 END ATOM
M  V30 BEGIN BOND
M  V30 1 1 1 9
M  V30 2 1 1 26
M  V30 3 2 2 27
M  V30 4 1 3 10
M  V30 5 1 3 28
M  V30 6 1 4 11
M  V30 7 1 4 12
M  V30 8 1 5 13
M  V30 9 2 5 29
M  V30 10 1 6 14
M  V30 11 1 6 29
M  V30 12 1 7 26
M  V30 13 1 7 27
M  V30 14 2 8 26
M  V30 15 1 8 30
M  V30 16 2 9 30
M  V30 17 1 10 15
M  V30 18 1 11 18
M  V30 19 1 12 19
M  V30 20 2 13 16
M  V30 21 2 14 33
M  V30 22 1 15 21
M  V30 23 1 16 23
M  V30 24 2 17 20
M  V30 25 1 17 22
M  V30 26 1 18 31
M  V30 27 1 19 31
M  V30 28 1 20 28
M  V30 29 1 21 31
M  V30 30 2 22 32
M  V30 31 2 23 34
M  V30 32 1 24 27
M  V30 33 1 24 32
M  V30 34 2 25 28
M  V30 35 1 25 32
M  V30 36 1 29 34
M  V30 37 1 30 33
M  V30 38 1 33 34
M  V30 39 1 4 35 CFG=1
M  V30 40 1 6 36
M  V30 41 1 7 37
M  V30 42 1 9 38
M  V30 43 1 10 39 CFG=1
M  V30 44 1 10 40
M  V30 45 1 11 41 CFG=3
M  V30 46 1 11 42
M  V30 47 1 12 43 CFG=3
M  V30 48 1 12 44
M  V30 49 1 13 45
M  V30 50 1 14 46
M  V30 51 1 15 47 CFG=3
M  V30 52 1 15 48
M  V30 53 1 16 49
M  V30 54 1 17 50
M  V30 55 1 18 51 CFG=1
M  V30 56 1 18 52
M  V30 57 1 19 53 CFG=1
M  V30 58 1 19 54
M  V30 59 1 20 55
M  V30 60 1 21 56 CFG=3
M  V30 61 1 21 57
M  V30 62 1 22 58
M  V30 63 1 23 59
M  V30 64 1 24 60 CFG=3
M  V30 65 1 24 61
M  V30 66 1 25 62
M  V30 67 1 31 63 CFG=3
M  V30 68 1 4 64
M  V30 END BOND
M  V30 END CTAB
M  END
>  <Ligand_Instance>  (84) 
5UZK_504_A_401

>  <Dataset>  (84) 
PDB

>  <PDB_ID>  (84) 
5UZK

>  <Chain>  (84) 
A

>  <Resi>  (84) 
401

>  <Num_Resolved_Atoms>  (84) 
34

>  <Num_H_Atoms_ProtBoundConf>  (84) 
30

>  <Pocket>  (84) 
A

>  <SMILES>  (84) 
c1cc(cc(c1)OCCCC2CCNCC2)CC(=O)Nc3nc(cs3)c4c[nH]c5c4cccn5

>  <Name>  (84) 
2-{3-[3-(piperidin-4-yl)propoxy]phenyl}-N-[4-(1H-pyrrolo[2,3-b]pyridin-3-yl)-1,3-thiazol-2-yl]acetamide

>  <Num_Heavy_Atoms>  (84) 
34

>  <Num_Not_Resolved_Atoms>  (84) 
0

>  <ATP_Site>  (84) 
True

>  <Peripheral>  (84) 
False

>  <Standardized_SMILES>  (84) 
[H]C1=C([H])C([H])=C2C(=N1)N([H])C([H])=C2C1=C([H])SC(N([H])C(=O)C([H])([H])C2=C([H])C([H])=C([H])C(OC([H])([H])C([H])([H])C([H])([H])C3([H])C([H])([H])C([H])([H])[N+]([H])([H])C([H])([H])C3([H])[H])=C2[H])=N1

$$$$
5AO
     RDKit          3D

  0  0  0  0  0  0  0  0  0  0999 V3000
M  V30 BEGIN CTAB
M  V30 COUNTS 20 21 0 0 0
M  V30 BEGIN ATOM
M  V30 1 O -20.955000 33.377000 -29.240000 0
M  V30 2 N -22.330000 27.494000 -29.874000 0
M  V30 3 N -18.997000 33.141000 -28.206000 0
M  V30 4 C -19.883000 33.958000 -28.648000 0
M  V30 5 C -23.722000 30.728000 -30.936000 0
M  V30 6 C -19.512000 31.904000 -28.532000 0
M  V30 7 C -23.588000 29.365000 -30.743000 0
M  V30 8 C -22.778000 31.600000 -30.428000 0
M  V30 9 C -21.528000 29.739000 -29.560000 0
M  V30 10 C -22.484000 28.851000 -30.052000 0
M  V30 11 C -20.697000 32.030000 -29.154000 0
M  V30 12 C -21.673000 31.112000 -29.736000 0
M  V30 13 H -21.536200 27.141600 -29.378300 0
M  V30 14 H -23.012000 26.861100 -30.240500 0
M  V30 15 H -19.789200 34.949900 -28.561900 0
M  V30 16 H -24.505400 31.084000 -31.445400 0
M  V30 17 H -19.064800 31.032000 -28.332800 0
M  V30 18 H -24.284500 28.742200 -31.099500 0
M  V30 19 H -22.889000 32.585300 -30.558000 0
M  V30 20 H -20.728500 29.385000 -29.074800 0
M  V30 END ATOM
M  V30 BEGIN BOND
M  V30 1 1 1 4
M  V30 2 1 1 11
M  V30 3 1 2 10
M  V30 4 2 3 4
M  V30 5 1 3 6
M  V30 6 1 5 7
M  V30 7 2 5 8
M  V30 8 2 6 11
M  V30 9 2 7 10
M  V30 10 1 8 12
M  V30 11 1 9 10
M  V30 12 2 9 12
M  V30 13 1 11 12
M  V30 14 1 2 13
M  V30 15 1 2 14
M  V30 16 1 4 15
M  V30 17 1 5 16
M  V30 18 1 6 17
M  V30 19 1 7 18
M  V30 20 1 8 19
M  V30 21 1 9 20
M  V30 END BOND
M  V30 END CTAB
M  END
>  <Ligand_Instance>  (85) 
5N3O_5AO_A_403

>  <Dataset>  (85) 
PDB

>  <PDB_ID>  (85) 
5N3O

>  <Chain>  (85) 
A

>  <Resi>  (85) 
403

>  <Num_Resolved_Atoms>  (85) 
12

>  <Num_H_Atoms_ProtBoundConf>  (85) 
8

>  <Pocket>  (85) 
X

>  <SMILES>  (85) 
c1cc(cc(c1)N)c2cnco2

>  <Name>  (85) 
3-(1,3-oxazol-5-yl)aniline

>  <Num_Heavy_Atoms>  (85) 
12

>  <Num_Not_Resolved_Atoms>  (85) 
0

>  <ATP_Site>  (85) 
True

>  <Peripheral>  (85) 
True

>  <Standardized_SMILES>  (85) 
[H]C1=NC([H])=C(C2=C([H])C(N([H])[H])=C([H])C([H])=C2[H])O1

$$$$
5AO
     RDKit          3D

  0  0  0  0  0  0  0  0  0  0999 V3000
M  V30 BEGIN CTAB
M  V30 COUNTS 20 21 0 0 0
M  V30 BEGIN ATOM
M  V30 1 O -10.463000 4.021000 -28.664000 0
M  V30 2 N -15.370000 4.858000 -29.295000 0
M  V30 3 N -8.893000 2.550000 -28.119000 0
M  V30 4 C -9.202000 3.787000 -28.235000 0
M  V30 5 C -14.283000 1.426000 -30.034000 0
M  V30 6 C -10.040000 1.892000 -28.518000 0
M  V30 7 C -15.084000 2.547000 -29.934000 0
M  V30 8 C -12.942000 1.496000 -29.699000 0
M  V30 9 C -13.193000 3.829000 -29.195000 0
M  V30 10 C -14.552000 3.759000 -29.492000 0
M  V30 11 C -10.995000 2.773000 -28.859000 0
M  V30 12 C -12.382000 2.703000 -29.296000 0
M  V30 13 H -14.978900 5.722000 -28.978000 0
M  V30 14 H -16.352100 4.788000 -29.469600 0
M  V30 15 H -8.559800 4.524100 -28.024400 0
M  V30 16 H -14.673400 0.561100 -30.349500 0
M  V30 17 H -10.144900 0.898000 -28.548700 0
M  V30 18 H -16.051600 2.489600 -30.180000 0
M  V30 19 H -12.373400 0.674800 -29.747000 0
M  V30 20 H -12.795100 4.699600 -28.905500 0
M  V30 END ATOM
M  V30 BEGIN BOND
M  V30 1 1 1 4
M  V30 2 1 1 11
M  V30 3 1 2 10
M  V30 4 2 3 4
M  V30 5 1 3 6
M  V30 6 1 5 7
M  V30 7 2 5 8
M  V30 8 2 6 11
M  V30 9 2 7 10
M  V30 10 1 8 12
M  V30 11 1 9 10
M  V30 12 2 9 12
M  V30 13 1 11 12
M  V30 14 1 2 13
M  V30 15 1 2 14
M  V30 16 1 4 15
M  V30 17 1 5 16
M  V30 18 1 6 17
M  V30 19 1 7 18
M  V30 20 1 8 19
M  V30 21 1 9 20
M  V30 END BOND
M  V30 END CTAB
M  END
>  <Ligand_Instance>  (86) 
5N3O_5AO_A_404

>  <Dataset>  (86) 
PDB

>  <PDB_ID>  (86) 
5N3O

>  <Chain>  (86) 
A

>  <Resi>  (86) 
404

>  <Num_Resolved_Atoms>  (86) 
12

>  <Num_H_Atoms_ProtBoundConf>  (86) 
8

>  <Pocket>  (86) 
A

>  <SMILES>  (86) 
c1cc(cc(c1)N)c2cnco2

>  <Name>  (86) 
3-(1,3-oxazol-5-yl)aniline

>  <Num_Heavy_Atoms>  (86) 
12

>  <Num_Not_Resolved_Atoms>  (86) 
0

>  <ATP_Site>  (86) 
True

>  <Peripheral>  (86) 
True

>  <Standardized_SMILES>  (86) 
[H]C1=NC([H])=C(C2=C([H])C(N([H])[H])=C([H])C([H])=C2[H])O1

$$$$
5AO
     RDKit          3D

  0  0  0  0  0  0  0  0  0  0999 V3000
M  V30 BEGIN CTAB
M  V30 COUNTS 20 21 0 0 0
M  V30 BEGIN ATOM
M  V30 1 O -16.854000 30.634000 -24.787000 0
M  V30 2 N -15.070000 30.163000 -29.518000 0
M  V30 3 N -18.222000 29.853000 -23.212000 0
M  V30 4 C -17.269000 30.666000 -23.495000 0
M  V30 5 C -18.076000 28.168000 -28.784000 0
M  V30 6 C -18.471000 29.221000 -24.413000 0
M  V30 7 C -17.045000 28.764000 -29.485000 0
M  V30 8 C -18.279000 28.471000 -27.450000 0
M  V30 9 C -16.415000 29.988000 -27.512000 0
M  V30 10 C -16.184000 29.664000 -28.851000 0
M  V30 11 C -17.654000 29.688000 -25.378000 0
M  V30 12 C -17.456000 29.390000 -26.803000 0
M  V30 13 H -14.458500 30.806600 -29.057800 0
M  V30 14 H -14.880700 29.878100 -30.457700 0
M  V30 15 H -16.863300 31.276600 -22.814900 0
M  V30 16 H -18.677900 27.514800 -29.243300 0
M  V30 17 H -19.163600 28.512600 -24.549000 0
M  V30 18 H -16.914000 28.549800 -30.453000 0
M  V30 19 H -19.020900 28.027800 -26.946900 0
M  V30 20 H -15.827000 30.656500 -27.056700 0
M  V30 END ATOM
M  V30 BEGIN BOND
M  V30 1 1 1 4
M  V30 2 1 1 11
M  V30 3 1 2 10
M  V30 4 2 3 4
M  V30 5 1 3 6
M  V30 6 1 5 7
M  V30 7 2 5 8
M  V30 8 2 6 11
M  V30 9 2 7 10
M  V30 10 1 8 12
M  V30 11 1 9 10
M  V30 12 2 9 12
M  V30 13 1 11 12
M  V30 14 1 2 13
M  V30 15 1 2 14
M  V30 16 1 4 15
M  V30 17 1 5 16
M  V30 18 1 6 17
M  V30 19 1 7 18
M  V30 20 1 8 19
M  V30 21 1 9 20
M  V30 END BOND
M  V30 END CTAB
M  END
>  <Ligand_Instance>  (87) 
5N3O_5AO_A_405

>  <Dataset>  (87) 
PDB

>  <PDB_ID>  (87) 
5N3O

>  <Chain>  (87) 
A

>  <Resi>  (87) 
405

>  <Num_Resolved_Atoms>  (87) 
12

>  <Num_H_Atoms_ProtBoundConf>  (87) 
8

>  <Pocket>  (87) 
K

>  <SMILES>  (87) 
c1cc(cc(c1)N)c2cnco2

>  <Name>  (87) 
3-(1,3-oxazol-5-yl)aniline

>  <Num_Heavy_Atoms>  (87) 
12

>  <Num_Not_Resolved_Atoms>  (87) 
0

>  <ATP_Site>  (87) 
True

>  <Peripheral>  (87) 
True

>  <Standardized_SMILES>  (87) 
[H]C1=NC([H])=C(C2=C([H])C(N([H])[H])=C([H])C([H])=C2[H])O1

$$$$
5H1
     RDKit          3D

  0  0  0  0  0  0  0  0  0  0999 V3000
M  V30 BEGIN CTAB
M  V30 COUNTS 17 18 0 0 0
M  V30 BEGIN ATOM
M  V30 1 O -8.827000 3.141000 -28.347000 0
M  V30 2 N -13.987000 3.643000 -30.113000 0
M  V30 3 C -14.318000 2.322000 -30.267000 0
M  V30 4 C -10.589000 4.626000 -28.975000 0
M  V30 5 C -13.265000 1.540000 -29.931000 0
M  V30 6 C -11.887000 4.829000 -29.423000 0
M  V30 7 C -10.894000 2.230000 -29.099000 0
M  V30 8 C -10.096000 3.332000 -28.812000 0
M  V30 9 C -12.683000 3.725000 -29.683000 0
M  V30 10 C -12.198000 2.413000 -29.541000 0
M  V30 11 H -8.252500 3.928500 -28.123800 0
M  V30 12 H -14.593500 4.419300 -30.284900 0
M  V30 13 H -15.205800 1.985500 -30.581000 0
M  V30 14 H -10.005100 5.411000 -28.768300 0
M  V30 15 H -13.237200 0.540600 -29.951200 0
M  V30 16 H -12.241100 5.754800 -29.555600 0
M  V30 17 H -10.529100 1.305700 -28.987200 0
M  V30 END ATOM
M  V30 BEGIN BOND
M  V30 1 1 1 8
M  V30 2 1 2 3
M  V30 3 1 2 9
M  V30 4 2 3 5
M  V30 5 1 4 6
M  V30 6 2 4 8
M  V30 7 1 5 10
M  V30 8 2 6 9
M  V30 9 1 7 8
M  V30 10 2 7 10
M  V30 11 1 9 10
M  V30 12 1 1 11
M  V30 13 1 2 12
M  V30 14 1 3 13
M  V30 15 1 4 14
M  V30 16 1 5 15
M  V30 17 1 6 16
M  V30 18 1 7 17
M  V30 END BOND
M  V30 END CTAB
M  END
>  <Ligand_Instance>  (88) 
5N3P_5H1_A_403

>  <Dataset>  (88) 
PDB

>  <PDB_ID>  (88) 
5N3P

>  <Chain>  (88) 
A

>  <Resi>  (88) 
403

>  <Num_Resolved_Atoms>  (88) 
10

>  <Num_H_Atoms_ProtBoundConf>  (88) 
7

>  <Pocket>  (88) 
A

>  <SMILES>  (88) 
c1cc2c(cc[nH]2)cc1O

>  <Name>  (88) 
1H-indol-5-ol

>  <Num_Heavy_Atoms>  (88) 
10

>  <Num_Not_Resolved_Atoms>  (88) 
0

>  <ATP_Site>  (88) 
True

>  <Peripheral>  (88) 
False

>  <Standardized_SMILES>  (88) 
[H]OC1=C([H])C([H])=C2C(=C1[H])C([H])=C([H])N2[H]

$$$$
6J9
     RDKit          3D

  0  0  0  0  0  0  0  0  0  0999 V3000
M  V30 BEGIN CTAB
M  V30 COUNTS 29 31 0 0 0
M  V30 BEGIN ATOM
M  V30 1 N 12.561000 -34.504000 79.084000 0 CFG=2 CHG=1
M  V30 2 N 9.297000 -30.555000 83.622000 0
M  V30 3 N 9.752000 -31.739000 81.618000 0
M  V30 4 N 11.267000 -30.306000 85.146000 0
M  V30 5 N 11.899000 -32.653000 81.031000 0
M  V30 6 C 8.909000 -31.069000 82.435000 0
M  V30 7 C 12.228000 -34.971000 80.449000 0 CFG=2
M  V30 8 C 11.772000 -33.309000 78.712000 0 CFG=2
M  V30 9 C 12.571000 -30.712000 85.068000 0
M  V30 10 C 12.574000 -33.882000 81.469000 0 CFG=2
M  V30 11 C 12.083000 -32.149000 79.664000 0 CFG=2
M  V30 12 C 12.828000 -31.402000 83.890000 0
M  V30 13 C 10.581000 -30.689000 84.053000 0
M  V30 14 C 11.064000 -31.947000 81.923000 0
M  V30 15 C 11.568000 -31.401000 83.223000 0
M  V30 16 H 12.366000 -35.237600 78.433000 0
M  V30 17 H 10.876400 -29.794200 85.911100 0
M  V30 18 H 7.958500 -30.948900 82.148500 0
M  V30 19 H 12.752800 -35.797100 80.654500 0
M  V30 20 H 11.250500 -35.175600 80.500600 0
M  V30 21 H 10.797600 -33.527300 78.765300 0
M  V30 22 H 12.002600 -33.039400 77.777000 0
M  V30 23 H 13.256600 -30.533600 85.773800 0
M  V30 24 H 12.249900 -34.146700 82.377200 0
M  V30 25 H 13.563400 -33.739200 81.496600 0
M  V30 26 H 13.026200 -31.842600 79.535200 0
M  V30 27 H 11.458600 -31.387000 79.492100 0
M  V30 28 H 13.690900 -31.803600 83.583100 0
M  V30 29 H 13.533800 -34.275400 79.047100 0
M  V30 END ATOM
M  V30 BEGIN BOND
M  V30 1 1 1 7
M  V30 2 1 1 8
M  V30 3 2 2 6
M  V30 4 1 2 13
M  V30 5 1 3 6
M  V30 6 2 3 14
M  V30 7 1 4 9
M  V30 8 1 4 13
M  V30 9 1 5 10
M  V30 10 1 5 11
M  V30 11 1 5 14
M  V30 12 1 7 10
M  V30 13 1 8 11
M  V30 14 2 9 12
M  V30 15 1 12 15
M  V30 16 2 13 15
M  V30 17 1 14 15
M  V30 18 1 1 16 CFG=3
M  V30 19 1 4 17
M  V30 20 1 6 18
M  V30 21 1 7 19 CFG=1
M  V30 22 1 7 20
M  V30 23 1 8 21 CFG=3
M  V30 24 1 8 22
M  V30 25 1 9 23
M  V30 26 1 10 24 CFG=1
M  V30 27 1 10 25
M  V30 28 1 11 26 CFG=1
M  V30 29 1 11 27
M  V30 30 1 12 28
M  V30 31 1 1 29
M  V30 END BOND
M  V30 END CTAB
M  END
>  <Ligand_Instance>  (89) 
5IZJ_6J9_A_414

>  <Dataset>  (89) 
PDB

>  <PDB_ID>  (89) 
5IZJ

>  <Chain>  (89) 
A

>  <Resi>  (89) 
414

>  <Num_Resolved_Atoms>  (89) 
15

>  <Num_H_Atoms_ProtBoundConf>  (89) 
14

>  <Pocket>  (89) 
X

>  <SMILES>  (89) 
c1c[nH]c2c1c(ncn2)N3CCNCC3

>  <Name>  (89) 
4-(piperazin-1-yl)-7H-pyrrolo[2,3-d]pyrimidine

>  <Num_Heavy_Atoms>  (89) 
15

>  <Num_Not_Resolved_Atoms>  (89) 
0

>  <ATP_Site>  (89) 
False

>  <Peripheral>  (89) 
True

>  <Standardized_SMILES>  (89) 
[H]C1=NC2=C(C(N3C([H])([H])C([H])([H])[N+]([H])([H])C([H])([H])C3([H])[H])=N1)C([H])=C([H])N2[H]

$$$$
6J9
     RDKit          3D

  0  0  0  0  0  0  0  0  0  0999 V3000
M  V30 BEGIN CTAB
M  V30 COUNTS 29 31 0 0 0
M  V30 BEGIN ATOM
M  V30 1 N 15.880000 37.299000 113.394000 0 CFG=2 CHG=1
M  V30 2 N 11.694000 33.245000 109.606000 0
M  V30 3 N 11.943000 34.542000 111.577000 0
M  V30 4 N 13.686000 33.278000 108.090000 0
M  V30 5 N 13.907000 35.808000 112.132000 0
M  V30 6 C 11.223000 33.722000 110.778000 0
M  V30 7 C 15.534000 37.588000 111.987000 0 CFG=2
M  V30 8 C 15.812000 35.849000 113.669000 0 CFG=2
M  V30 9 C 14.904000 33.895000 108.160000 0
M  V30 10 C 14.074000 37.211000 111.730000 0 CFG=2
M  V30 11 C 14.403000 35.296000 113.419000 0 CFG=2
M  V30 12 C 15.042000 34.653000 109.319000 0
M  V30 13 C 12.941000 33.573000 109.171000 0
M  V30 14 C 13.206000 34.947000 111.266000 0
M  V30 15 C 13.795000 34.460000 109.982000 0
M  V30 16 H 15.237200 37.776000 113.993400 0
M  V30 17 H 13.389500 32.688500 107.338700 0
M  V30 18 H 10.303000 33.457900 111.067500 0
M  V30 19 H 16.126600 37.055700 111.382400 0
M  V30 20 H 15.662800 38.563000 111.806100 0
M  V30 21 H 16.060000 35.687200 114.624200 0
M  V30 22 H 16.458400 35.374100 113.071700 0
M  V30 23 H 15.613200 33.811400 107.459900 0
M  V30 24 H 13.469400 37.796000 112.270600 0
M  V30 25 H 13.859300 37.316500 110.759000 0
M  V30 26 H 14.435200 34.296900 113.392100 0
M  V30 27 H 13.792400 35.590100 114.154300 0
M  V30 28 H 15.825300 35.199900 109.614700 0
M  V30 29 H 16.808400 37.623100 113.575600 0
M  V30 END ATOM
M  V30 BEGIN BOND
M  V30 1 1 1 7
M  V30 2 1 1 8
M  V30 3 2 2 6
M  V30 4 1 2 13
M  V30 5 1 3 6
M  V30 6 2 3 14
M  V30 7 1 4 9
M  V30 8 1 4 13
M  V30 9 1 5 10
M  V30 10 1 5 11
M  V30 11 1 5 14
M  V30 12 1 7 10
M  V30 13 1 8 11
M  V30 14 2 9 12
M  V30 15 1 12 15
M  V30 16 2 13 15
M  V30 17 1 14 15
M  V30 18 1 1 16 CFG=1
M  V30 19 1 4 17
M  V30 20 1 6 18
M  V30 21 1 7 19 CFG=3
M  V30 22 1 7 20
M  V30 23 1 8 21 CFG=1
M  V30 24 1 8 22
M  V30 25 1 9 23
M  V30 26 1 10 24 CFG=1
M  V30 27 1 10 25
M  V30 28 1 11 26 CFG=3
M  V30 29 1 11 27
M  V30 30 1 12 28
M  V30 31 1 1 29
M  V30 END BOND
M  V30 END CTAB
M  END
>  <Ligand_Instance>  (90) 
5IZJ_6J9_B_413

>  <Dataset>  (90) 
PDB

>  <PDB_ID>  (90) 
5IZJ

>  <Chain>  (90) 
B

>  <Resi>  (90) 
413

>  <Num_Resolved_Atoms>  (90) 
15

>  <Num_H_Atoms_ProtBoundConf>  (90) 
14

>  <Pocket>  (90) 
X

>  <SMILES>  (90) 
c1c[nH]c2c1c(ncn2)N3CCNCC3

>  <Name>  (90) 
4-(piperazin-1-yl)-7H-pyrrolo[2,3-d]pyrimidine

>  <Num_Heavy_Atoms>  (90) 
15

>  <Num_Not_Resolved_Atoms>  (90) 
0

>  <ATP_Site>  (90) 
False

>  <Peripheral>  (90) 
True

>  <Standardized_SMILES>  (90) 
[H]C1=NC2=C(C(N3C([H])([H])C([H])([H])[N+]([H])([H])C([H])([H])C3([H])[H])=N1)C([H])=C([H])N2[H]

$$$$
6J9
     RDKit          3D

  0  0  0  0  0  0  0  0  0  0999 V3000
M  V30 BEGIN CTAB
M  V30 COUNTS 29 31 0 0 0
M  V30 BEGIN ATOM
M  V30 1 N -3.842000 23.043000 -5.206000 0 CFG=2 CHG=1
M  V30 2 N -8.983000 26.469000 -7.591000 0
M  V30 3 N -7.190000 24.944000 -7.285000 0
M  V30 4 N -9.447000 27.952000 -5.614000 0
M  V30 5 N -5.881000 24.775000 -5.266000 0
M  V30 6 C -8.183000 25.476000 -8.037000 0
M  V30 7 C -4.869000 22.804000 -4.183000 0 CFG=2
M  V30 8 C -3.416000 24.454000 -5.159000 0 CFG=2
M  V30 9 C -8.875000 28.076000 -4.374000 0
M  V30 10 C -6.167000 23.511000 -4.576000 0 CFG=2
M  V30 11 C -4.586000 25.449000 -5.163000 0 CFG=2
M  V30 12 C -7.837000 27.165000 -4.256000 0
M  V30 13 C -8.830000 26.987000 -6.341000 0
M  V30 14 C -6.915000 25.362000 -6.024000 0
M  V30 15 C -7.767000 26.452000 -5.474000 0
M  V30 16 H -4.218500 22.839000 -6.109600 0
M  V30 17 H -10.217200 28.500500 -5.939500 0
M  V30 18 H -8.329900 25.119300 -8.959600 0
M  V30 19 H -4.550800 23.159000 -3.304000 0
M  V30 20 H -5.036900 21.821300 -4.104600 0
M  V30 21 H -2.841800 24.637800 -5.956800 0
M  V30 22 H -2.883000 24.595900 -4.324900 0
M  V30 23 H -9.161500 28.721900 -3.666400 0
M  V30 24 H -6.693300 22.916800 -5.184200 0
M  V30 25 H -6.700300 23.700400 -3.751500 0
M  V30 26 H -4.563600 25.976600 -4.313800 0
M  V30 27 H -4.481200 26.067000 -5.942200 0
M  V30 28 H -7.247900 27.036400 -3.458200 0
M  V30 29 H -3.054600 22.451700 -5.031700 0
M  V30 END ATOM
M  V30 BEGIN BOND
M  V30 1 1 1 7
M  V30 2 1 1 8
M  V30 3 2 2 6
M  V30 4 1 2 13
M  V30 5 1 3 6
M  V30 6 2 3 14
M  V30 7 1 4 9
M  V30 8 1 4 13
M  V30 9 1 5 10
M  V30 10 1 5 11
M  V30 11 1 5 14
M  V30 12 1 7 10
M  V30 13 1 8 11
M  V30 14 2 9 12
M  V30 15 1 12 15
M  V30 16 2 13 15
M  V30 17 1 14 15
M  V30 18 1 1 16 CFG=3
M  V30 19 1 4 17
M  V30 20 1 6 18
M  V30 21 1 7 19 CFG=1
M  V30 22 1 7 20
M  V30 23 1 8 21 CFG=3
M  V30 24 1 8 22
M  V30 25 1 9 23
M  V30 26 1 10 24 CFG=3
M  V30 27 1 10 25
M  V30 28 1 11 26 CFG=1
M  V30 29 1 11 27
M  V30 30 1 12 28
M  V30 31 1 1 29
M  V30 END BOND
M  V30 END CTAB
M  END
>  <Ligand_Instance>  (91) 
5J5X_6J9_A_404

>  <Dataset>  (91) 
PDB

>  <PDB_ID>  (91) 
5J5X

>  <Chain>  (91) 
A

>  <Resi>  (91) 
404

>  <Num_Resolved_Atoms>  (91) 
15

>  <Num_H_Atoms_ProtBoundConf>  (91) 
14

>  <Pocket>  (91) 
X

>  <SMILES>  (91) 
c1c[nH]c2c1c(ncn2)N3CCNCC3

>  <Name>  (91) 
4-(piperazin-1-yl)-7H-pyrrolo[2,3-d]pyrimidine

>  <Num_Heavy_Atoms>  (91) 
15

>  <Num_Not_Resolved_Atoms>  (91) 
0

>  <ATP_Site>  (91) 
False

>  <Peripheral>  (91) 
True

>  <Standardized_SMILES>  (91) 
[H]C1=NC2=C(C(N3C([H])([H])C([H])([H])[N+]([H])([H])C([H])([H])C3([H])[H])=N1)C([H])=C([H])N2[H]

$$$$
6TV
     RDKit          3D

  0  0  0  0  0  0  0  0  0  0999 V3000
M  V30 BEGIN CTAB
M  V30 COUNTS 40 41 0 0 0
M  V30 BEGIN ATOM
M  V30 1 S 13.064000 -24.023000 -27.911000 0 CFG=1
M  V30 2 O 12.602000 -25.199000 -27.229000 0
M  V30 3 O 13.812000 -24.154000 -29.126000 0
M  V30 4 N 11.745000 -23.157000 -28.242000 0
M  V30 5 N 8.780000 -22.783000 -28.620000 0 CFG=2 CHG=1
M  V30 6 N 16.736000 -24.740000 -23.997000 0
M  V30 7 C 5.618000 -21.550000 -30.364000 0 CFG=1
M  V30 8 C 10.776000 -22.897000 -27.169000 0 CFG=2
M  V30 9 C 9.626000 -22.045000 -27.638000 0 CFG=2
M  V30 10 C 7.615000 -21.961000 -29.061000 0 CFG=2
M  V30 11 C 16.032000 -25.526000 -24.825000 0
M  V30 12 C 16.570000 -23.435000 -24.102000 0
M  V30 13 C 6.654000 -22.577000 -29.945000 0 CFG=2
M  V30 14 C 14.649000 -20.877000 -26.019000 0
M  V30 15 C 15.150000 -25.062000 -25.753000 0
M  V30 16 C 13.899000 -21.693000 -26.850000 0
M  V30 17 C 15.527000 -21.413000 -25.122000 0
M  V30 18 C 14.034000 -23.056000 -26.787000 0
M  V30 19 C 15.692000 -22.815000 -25.024000 0
M  V30 20 C 14.946000 -23.670000 -25.873000 0
M  V30 21 H 12.055100 -22.267900 -28.578600 0
M  V30 22 H 8.443100 -23.622300 -28.193200 0
M  V30 23 H 4.953100 -21.977900 -30.976200 0
M  V30 24 H 5.148100 -21.200600 -29.553300 0
M  V30 25 H 6.070200 -20.794800 -30.838500 0
M  V30 26 H 11.242400 -22.425400 -26.420700 0
M  V30 27 H 10.417000 -23.770500 -26.840200 0
M  V30 28 H 9.065500 -21.789800 -26.850200 0
M  V30 29 H 9.986400 -21.219400 -28.072200 0
M  V30 30 H 7.978200 -21.155700 -29.529600 0
M  V30 31 H 7.123400 -21.674700 -28.238600 0
M  V30 32 H 16.163100 -26.515000 -24.756500 0
M  V30 33 H 17.098500 -22.845800 -23.490900 0
M  V30 34 H 7.123500 -22.926300 -30.755900 0
M  V30 35 H 6.201400 -23.332100 -29.470700 0
M  V30 36 H 14.546000 -19.884000 -26.077000 0
M  V30 37 H 14.653000 -25.699100 -26.342100 0
M  V30 38 H 13.256100 -21.286100 -27.498900 0
M  V30 39 H 16.058800 -20.809100 -24.528300 0
M  V30 40 H 9.335500 -23.014900 -29.418500 0
M  V30 END ATOM
M  V30 BEGIN BOND
M  V30 1 2 1 2
M  V30 2 2 1 3
M  V30 3 1 1 4 CFG=3
M  V30 4 1 1 18
M  V30 5 1 4 8
M  V30 6 1 5 9
M  V30 7 1 5 10
M  V30 8 2 6 11
M  V30 9 1 6 12
M  V30 10 1 7 13
M  V30 11 1 8 9
M  V30 12 1 10 13
M  V30 13 1 11 15
M  V30 14 2 12 19
M  V30 15 1 14 16
M  V30 16 2 14 17
M  V30 17 2 15 20
M  V30 18 2 16 18
M  V30 19 1 17 19
M  V30 20 1 18 20
M  V30 21 1 19 20
M  V30 22 1 4 21
M  V30 23 1 5 22 CFG=1
M  V30 24 1 7 23 CFG=3
M  V30 25 1 7 24
M  V30 26 1 7 25
M  V30 27 1 8 26 CFG=1
M  V30 28 1 8 27
M  V30 29 1 9 28 CFG=1
M  V30 30 1 9 29
M  V30 31 1 10 30 CFG=3
M  V30 32 1 10 31
M  V30 33 1 11 32
M  V30 34 1 12 33
M  V30 35 1 13 34 CFG=3
M  V30 36 1 13 35
M  V30 37 1 14 36
M  V30 38 1 15 37
M  V30 39 1 16 38
M  V30 40 1 17 39
M  V30 41 1 5 40
M  V30 END BOND
M  V30 END CTAB
M  END
>  <Ligand_Instance>  (92) 
5LCQ_6TV_A_401

>  <Dataset>  (92) 
PDB

>  <PDB_ID>  (92) 
5LCQ

>  <Chain>  (92) 
A

>  <Resi>  (92) 
401

>  <Num_Resolved_Atoms>  (92) 
20

>  <Num_H_Atoms_ProtBoundConf>  (92) 
20

>  <Pocket>  (92) 
A

>  <SMILES>  (92) 
CCCNCCNS(=O)(=O)c1cccc2c1ccnc2

>  <Name>  (92) 
~{N}-[2-(propylamino)ethyl]isoquinoline-5-sulfonamide

>  <Num_Heavy_Atoms>  (92) 
20

>  <Num_Not_Resolved_Atoms>  (92) 
0

>  <ATP_Site>  (92) 
True

>  <Peripheral>  (92) 
False

>  <Standardized_SMILES>  (92) 
[H]C1=NC([H])=C2C([H])=C([H])C([H])=C(S(=O)(=O)N([H])C([H])([H])C([H])([H])[N+]([H])([H])C([H])([H])C([H])([H])C([H])([H])[H])C2=C1[H]

$$$$
6TV
     RDKit          3D

  0  0  0  0  0  0  0  0  0  0999 V3000
M  V30 BEGIN CTAB
M  V30 COUNTS 40 41 0 0 0
M  V30 BEGIN ATOM
M  V30 1 S -12.808000 -25.998000 26.920000 0 CFG=1
M  V30 2 O -13.412000 -27.244000 27.274000 0
M  V30 3 O -12.393000 -25.108000 27.962000 0
M  V30 4 N -11.481000 -26.327000 26.057000 0
M  V30 5 N -8.712000 -25.690000 27.274000 0 CFG=2 CHG=1
M  V30 6 N -16.638000 -26.742000 23.101000 0
M  V30 7 C -5.517000 -25.212000 29.458000 0 CFG=1
M  V30 8 C -10.545000 -25.277000 25.618000 0 CFG=2
M  V30 9 C -9.668000 -24.704000 26.706000 0 CFG=2
M  V30 10 C -7.629000 -25.052000 28.093000 0 CFG=2
M  V30 11 C -15.866000 -27.535000 23.869000 0
M  V30 12 C -16.522000 -25.432000 23.266000 0
M  V30 13 C -6.657000 -25.962000 28.769000 0 CFG=2
M  V30 14 C -14.692000 -22.880000 25.281000 0
M  V30 15 C -14.974000 -27.076000 24.796000 0
M  V30 16 C -13.864000 -23.693000 26.035000 0
M  V30 17 C -15.556000 -23.417000 24.375000 0
M  V30 18 C -13.920000 -25.054000 25.906000 0
M  V30 19 C -15.644000 -24.822000 24.197000 0
M  V30 20 C -14.826000 -25.680000 24.987000 0
M  V30 21 H -10.943600 -26.967000 26.606100 0
M  V30 22 H -8.287700 -26.192700 26.520900 0
M  V30 23 H -4.900000 -25.868700 29.891600 0
M  V30 24 H -5.012000 -24.677500 28.780300 0
M  V30 25 H -5.893200 -24.599100 30.152900 0
M  V30 26 H -11.080500 -24.529000 25.225800 0
M  V30 27 H -9.950800 -25.666300 24.914200 0
M  V30 28 H -9.146700 -23.940900 26.324000 0
M  V30 29 H -10.255100 -24.370500 27.443600 0
M  V30 30 H -8.072000 -24.504500 28.803000 0
M  V30 31 H -7.107300 -24.452100 27.486400 0
M  V30 32 H -15.951600 -28.524500 23.752800 0
M  V30 33 H -17.089700 -24.836300 22.697800 0
M  V30 34 H -7.147200 -26.498000 29.456300 0
M  V30 35 H -6.266000 -26.576400 28.083700 0
M  V30 36 H -14.655700 -21.888100 25.402500 0
M  V30 37 H -14.430400 -27.719400 25.334900 0
M  V30 38 H -13.219200 -23.282300 26.679600 0
M  V30 39 H -16.135900 -22.813100 23.828200 0
M  V30 40 H -9.218600 -26.326200 27.855900 0
M  V30 END ATOM
M  V30 BEGIN BOND
M  V30 1 2 1 2
M  V30 2 2 1 3
M  V30 3 1 1 4 CFG=3
M  V30 4 1 1 18
M  V30 5 1 4 8
M  V30 6 1 5 9
M  V30 7 1 5 10
M  V30 8 2 6 11
M  V30 9 1 6 12
M  V30 10 1 7 13
M  V30 11 1 8 9
M  V30 12 1 10 13
M  V30 13 1 11 15
M  V30 14 2 12 19
M  V30 15 1 14 16
M  V30 16 2 14 17
M  V30 17 2 15 20
M  V30 18 2 16 18
M  V30 19 1 17 19
M  V30 20 1 18 20
M  V30 21 1 19 20
M  V30 22 1 4 21
M  V30 23 1 5 22 CFG=3
M  V30 24 1 7 23 CFG=1
M  V30 25 1 7 24
M  V30 26 1 7 25
M  V30 27 1 8 26 CFG=3
M  V30 28 1 8 27
M  V30 29 1 9 28 CFG=3
M  V30 30 1 9 29
M  V30 31 1 10 30 CFG=1
M  V30 32 1 10 31
M  V30 33 1 11 32
M  V30 34 1 12 33
M  V30 35 1 13 34 CFG=1
M  V30 36 1 13 35
M  V30 37 1 14 36
M  V30 38 1 15 37
M  V30 39 1 16 38
M  V30 40 1 17 39
M  V30 41 1 5 40
M  V30 END BOND
M  V30 END CTAB
M  END
>  <Ligand_Instance>  (93) 
6YQI_6TV_A_401

>  <Dataset>  (93) 
PDB

>  <PDB_ID>  (93) 
6YQI

>  <Chain>  (93) 
A

>  <Resi>  (93) 
401

>  <Num_Resolved_Atoms>  (93) 
20

>  <Num_H_Atoms_ProtBoundConf>  (93) 
20

>  <Pocket>  (93) 
A

>  <SMILES>  (93) 
CCCNCCNS(=O)(=O)c1cccc2c1ccnc2

>  <Name>  (93) 
~{N}-[2-(propylamino)ethyl]isoquinoline-5-sulfonamide

>  <Num_Heavy_Atoms>  (93) 
20

>  <Num_Not_Resolved_Atoms>  (93) 
0

>  <ATP_Site>  (93) 
True

>  <Peripheral>  (93) 
False

>  <Standardized_SMILES>  (93) 
[H]C1=NC([H])=C2C([H])=C([H])C([H])=C(S(=O)(=O)N([H])C([H])([H])C([H])([H])[N+]([H])([H])C([H])([H])C([H])([H])C([H])([H])[H])C2=C1[H]

$$$$
6TX
     RDKit          3D

  0  0  0  0  0  0  0  0  0  0999 V3000
M  V30 BEGIN CTAB
M  V30 COUNTS 40 41 0 0 0
M  V30 BEGIN ATOM
M  V30 1 S -13.848000 -25.066000 27.474000 0 CFG=1
M  V30 2 O -13.058000 -25.854000 26.587000 0
M  V30 3 O -14.602000 -25.700000 28.509000 0
M  V30 4 N -9.586000 -22.768000 26.769000 0 CFG=1 CHG=1
M  V30 5 N -17.475000 -26.037000 23.596000 0
M  V30 6 N -12.849000 -23.995000 28.191000 0
M  V30 7 C -12.636000 -22.967000 31.818000 0 CFG=1
M  V30 8 C -10.556000 -23.762000 27.283000 0 CFG=2
M  V30 9 C -16.716000 -26.773000 24.421000 0
M  V30 10 C -17.441000 -24.718000 23.739000 0
M  V30 11 C -11.951000 -23.181000 27.342000 0 CFG=2
M  V30 12 C -13.242000 -23.405000 29.488000 0 CFG=2
M  V30 13 C -12.176000 -23.618000 30.530000 0 CFG=2
M  V30 14 C -15.807000 -22.037000 25.757000 0
M  V30 15 C -15.899000 -26.249000 25.377000 0
M  V30 16 C -14.973000 -22.800000 26.560000 0
M  V30 17 C -16.627000 -22.632000 24.845000 0
M  V30 18 C -14.977000 -24.164000 26.463000 0
M  V30 19 C -16.647000 -24.043000 24.697000 0
M  V30 20 C -15.827000 -24.841000 25.533000 0
M  V30 21 H -8.673700 -23.176600 26.740100 0
M  V30 22 H -9.854200 -22.485900 25.847900 0
M  V30 23 H -11.940300 -23.097500 32.524400 0
M  V30 24 H -12.776600 -21.988800 31.665300 0
M  V30 25 H -13.494700 -23.384900 32.114600 0
M  V30 26 H -10.279900 -24.042700 28.202200 0
M  V30 27 H -10.559100 -24.558300 26.678200 0
M  V30 28 H -16.751900 -27.768100 24.328800 0
M  V30 29 H -18.012400 -24.166100 23.131600 0
M  V30 30 H -11.900800 -22.255700 27.717900 0
M  V30 31 H -12.326100 -23.144600 26.415700 0
M  V30 32 H -14.090700 -23.834000 29.797500 0
M  V30 33 H -13.389200 -22.423200 29.368200 0
M  V30 34 H -12.036900 -24.597400 30.676600 0
M  V30 35 H -11.318800 -23.201200 30.227400 0
M  V30 36 H -15.806900 -21.041100 25.847700 0
M  V30 37 H -15.355800 -26.850700 25.962600 0
M  V30 38 H -14.364900 -22.350100 27.214000 0
M  V30 39 H -17.221800 -22.067000 24.273200 0
M  V30 40 H -9.575000 -21.970300 27.372000 0
M  V30 END ATOM
M  V30 BEGIN BOND
M  V30 1 2 1 2
M  V30 2 2 1 3
M  V30 3 1 1 6 CFG=1
M  V30 4 1 1 18
M  V30 5 1 4 8
M  V30 6 2 5 9
M  V30 7 1 5 10
M  V30 8 1 6 11
M  V30 9 1 6 12
M  V30 10 1 7 13
M  V30 11 1 8 11
M  V30 12 1 9 15
M  V30 13 2 10 19
M  V30 14 1 12 13
M  V30 15 1 14 16
M  V30 16 2 14 17
M  V30 17 2 15 20
M  V30 18 2 16 18
M  V30 19 1 17 19
M  V30 20 1 18 20
M  V30 21 1 19 20
M  V30 22 1 4 21 CFG=3
M  V30 23 1 4 22
M  V30 24 1 7 23 CFG=1
M  V30 25 1 7 24
M  V30 26 1 7 25
M  V30 27 1 8 26 CFG=1
M  V30 28 1 8 27
M  V30 29 1 9 28
M  V30 30 1 10 29
M  V30 31 1 11 30 CFG=1
M  V30 32 1 11 31
M  V30 33 1 12 32 CFG=1
M  V30 34 1 12 33
M  V30 35 1 13 34 CFG=1
M  V30 36 1 13 35
M  V30 37 1 14 36
M  V30 38 1 15 37
M  V30 39 1 16 38
M  V30 40 1 17 39
M  V30 41 1 4 40
M  V30 END BOND
M  V30 END CTAB
M  END
>  <Ligand_Instance>  (94) 
5LCR_6TX_A_401

>  <Dataset>  (94) 
PDB

>  <PDB_ID>  (94) 
5LCR

>  <Chain>  (94) 
A

>  <Resi>  (94) 
401

>  <Num_Resolved_Atoms>  (94) 
20

>  <Num_H_Atoms_ProtBoundConf>  (94) 
20

>  <Pocket>  (94) 
A

>  <SMILES>  (94) 
CCCN(CC[NH3+])S(=O)(=O)c1cccc2c1ccnc2

>  <Name>  (94) 
2-[isoquinolin-5-ylsulfonyl(propyl)amino]ethylazanium

>  <Num_Heavy_Atoms>  (94) 
20

>  <Num_Not_Resolved_Atoms>  (94) 
0

>  <ATP_Site>  (94) 
True

>  <Peripheral>  (94) 
False

>  <Standardized_SMILES>  (94) 
[H]C1=NC([H])=C2C([H])=C([H])C([H])=C(S(=O)(=O)N(C([H])([H])C([H])([H])C([H])([H])[H])C([H])([H])C([H])([H])[N+]([H])([H])[H])C2=C1[H]

$$$$
6TX
     RDKit          3D

  0  0  0  0  0  0  0  0  0  0999 V3000
M  V30 BEGIN CTAB
M  V30 COUNTS 40 41 0 0 0
M  V30 BEGIN ATOM
M  V30 1 S -12.728000 -25.793000 26.797000 0 CFG=2
M  V30 2 O -13.408000 -26.366000 27.915000 0
M  V30 3 O -12.033000 -26.639000 25.877000 0
M  V30 4 N -9.022000 -25.971000 26.818000 0 CFG=1 CHG=1
M  V30 5 N -16.788000 -26.663000 23.270000 0
M  V30 6 N -11.624000 -24.746000 27.401000 0
M  V30 7 C -11.339000 -23.691000 31.077000 0 CFG=1
M  V30 8 C -9.210000 -24.498000 26.825000 0 CFG=2
M  V30 9 C -16.010000 -27.423000 24.058000 0
M  V30 10 C -16.652000 -25.339000 23.366000 0
M  V30 11 C -10.639000 -24.124000 26.486000 0 CFG=2
M  V30 12 C -11.942000 -24.011000 28.646000 0 CFG=2
M  V30 13 C -11.109000 -24.512000 29.817000 0 CFG=2
M  V30 14 C -14.734000 -22.728000 25.223000 0
M  V30 15 C -15.080000 -26.930000 24.928000 0
M  V30 16 C -13.885000 -23.521000 25.981000 0
M  V30 17 C -15.638000 -23.288000 24.371000 0
M  V30 18 C -13.947000 -24.884000 25.889000 0
M  V30 19 C -15.742000 -24.695000 24.246000 0
M  V30 20 C -14.905000 -25.527000 25.039000 0
M  V30 21 H -8.330600 -26.215600 26.138200 0
M  V30 22 H -8.721500 -26.273000 27.722700 0
M  V30 23 H -10.774300 -24.053200 31.818600 0
M  V30 24 H -11.090600 -22.737900 30.903800 0
M  V30 25 H -12.303300 -23.742200 31.336800 0
M  V30 26 H -8.597000 -24.088100 26.149600 0
M  V30 27 H -8.987900 -24.145500 27.734100 0
M  V30 28 H -16.119000 -28.415600 24.004100 0
M  V30 29 H -17.226200 -24.764800 22.782400 0
M  V30 30 H -10.732000 -23.130000 26.543400 0
M  V30 31 H -10.835500 -24.423800 25.552500 0
M  V30 32 H -12.910900 -24.136500 28.859100 0
M  V30 33 H -11.754700 -23.038700 28.506300 0
M  V30 34 H -11.354100 -25.463500 30.003100 0
M  V30 35 H -10.141400 -24.459200 29.570100 0
M  V30 36 H -14.681900 -21.732600 25.302900 0
M  V30 37 H -14.527300 -27.552700 25.481900 0
M  V30 38 H -13.224100 -23.093700 26.598000 0
M  V30 39 H -16.235300 -22.698400 23.827300 0
M  V30 40 H -9.887400 -26.416400 26.588400 0
M  V30 END ATOM
M  V30 BEGIN BOND
M  V30 1 2 1 2
M  V30 2 2 1 3
M  V30 3 1 1 6 CFG=1
M  V30 4 1 1 18
M  V30 5 1 4 8
M  V30 6 2 5 9
M  V30 7 1 5 10
M  V30 8 1 6 11
M  V30 9 1 6 12
M  V30 10 1 7 13
M  V30 11 1 8 11
M  V30 12 1 9 15
M  V30 13 2 10 19
M  V30 14 1 12 13
M  V30 15 1 14 16
M  V30 16 2 14 17
M  V30 17 2 15 20
M  V30 18 2 16 18
M  V30 19 1 17 19
M  V30 20 1 18 20
M  V30 21 1 19 20
M  V30 22 1 4 21 CFG=3
M  V30 23 1 4 22
M  V30 24 1 7 23 CFG=1
M  V30 25 1 7 24
M  V30 26 1 7 25
M  V30 27 1 8 26 CFG=3
M  V30 28 1 8 27
M  V30 29 1 9 28
M  V30 30 1 10 29
M  V30 31 1 11 30 CFG=3
M  V30 32 1 11 31
M  V30 33 1 12 32 CFG=1
M  V30 34 1 12 33
M  V30 35 1 13 34 CFG=1
M  V30 36 1 13 35
M  V30 37 1 14 36
M  V30 38 1 15 37
M  V30 39 1 16 38
M  V30 40 1 17 39
M  V30 41 1 4 40
M  V30 END BOND
M  V30 END CTAB
M  END
>  <Ligand_Instance>  (95) 
6YQJ_6TX_A_401

>  <Dataset>  (95) 
PDB

>  <PDB_ID>  (95) 
6YQJ

>  <Chain>  (95) 
A

>  <Resi>  (95) 
401

>  <Num_Resolved_Atoms>  (95) 
20

>  <Num_H_Atoms_ProtBoundConf>  (95) 
20

>  <Pocket>  (95) 
A

>  <SMILES>  (95) 
CCCN(CC[NH3+])S(=O)(=O)c1cccc2c1ccnc2

>  <Name>  (95) 
2-[isoquinolin-5-ylsulfonyl(propyl)amino]ethylazanium

>  <Num_Heavy_Atoms>  (95) 
20

>  <Num_Not_Resolved_Atoms>  (95) 
0

>  <ATP_Site>  (95) 
True

>  <Peripheral>  (95) 
False

>  <Standardized_SMILES>  (95) 
[H]C1=NC([H])=C2C([H])=C([H])C([H])=C(S(=O)(=O)N(C([H])([H])C([H])([H])C([H])([H])[H])C([H])([H])C([H])([H])[N+]([H])([H])[H])C2=C1[H]

$$$$
6TY
     RDKit          3D

  0  0  0  0  0  0  0  0  0  0999 V3000
M  V30 BEGIN CTAB
M  V30 COUNTS 38 40 0 0 0
M  V30 BEGIN ATOM
M  V30 1 S -13.909000 25.243000 -27.607000 0 CFG=1
M  V30 2 O -13.399000 26.351000 -26.864000 0
M  V30 3 O -14.498000 25.446000 -28.890000 0
M  V30 4 N -10.673000 22.276000 -28.022000 0 CFG=2 CHG=1
M  V30 5 N -17.575000 26.419000 -23.809000 0
M  V30 6 N -12.654000 24.213000 -27.787000 0
M  V30 7 C -10.431000 25.061000 -27.027000 0 CFG=1
M  V30 8 C -11.817000 22.261000 -28.965000 0 CFG=2
M  V30 9 C -16.818000 27.112000 -24.677000 0
M  V30 10 C -11.093000 22.671000 -26.678000 0 CFG=2
M  V30 11 C -17.551000 25.091000 -23.897000 0
M  V30 12 C -12.355000 23.655000 -29.120000 0 CFG=2
M  V30 13 C -15.918000 22.312000 -25.791000 0
M  V30 14 C -16.007000 26.539000 -25.618000 0
M  V30 15 C -15.098000 23.038000 -26.643000 0
M  V30 16 C -16.741000 22.953000 -24.904000 0
M  V30 17 C -15.097000 24.406000 -26.607000 0
M  V30 18 C -11.582000 24.104000 -26.747000 0 CFG=2
M  V30 19 C -16.767000 24.369000 -24.831000 0
M  V30 20 C -15.945000 25.128000 -25.711000 0
M  V30 21 H -9.987700 22.925000 -28.352400 0
M  V30 22 H -9.735000 24.962500 -26.315700 0
M  V30 23 H -10.029700 24.848100 -27.917800 0
M  V30 24 H -10.772500 26.000900 -27.031300 0
M  V30 25 H -12.535500 21.664000 -28.608200 0
M  V30 26 H -11.511700 21.920500 -29.854300 0
M  V30 27 H -16.849700 28.110500 -24.632000 0
M  V30 28 H -10.319900 22.605500 -26.047100 0
M  V30 29 H -11.831400 22.074500 -26.363400 0
M  V30 30 H -18.122700 24.569500 -23.263600 0
M  V30 31 H -11.673700 24.227200 -29.576600 0
M  V30 32 H -13.191400 23.631400 -29.667600 0
M  V30 33 H -15.907800 21.312600 -25.825000 0
M  V30 34 H -15.464100 27.110600 -26.233200 0
M  V30 35 H -14.503400 22.558000 -27.288100 0
M  V30 36 H -17.330700 22.416300 -24.300500 0
M  V30 37 H -11.979500 24.342600 -25.860900 0
M  V30 38 H -10.272800 21.360400 -27.981700 0
M  V30 END ATOM
M  V30 BEGIN BOND
M  V30 1 2 1 2
M  V30 2 2 1 3
M  V30 3 1 1 6 CFG=3
M  V30 4 1 1 17
M  V30 5 1 4 8
M  V30 6 1 4 10
M  V30 7 2 5 9
M  V30 8 1 5 11
M  V30 9 1 6 12
M  V30 10 1 6 18
M  V30 11 1 7 18
M  V30 12 1 8 12
M  V30 13 1 9 14
M  V30 14 1 10 18
M  V30 15 2 11 19
M  V30 16 1 13 15
M  V30 17 2 13 16
M  V30 18 2 14 20
M  V30 19 2 15 17
M  V30 20 1 16 19
M  V30 21 1 17 20
M  V30 22 1 19 20
M  V30 23 1 4 21 CFG=3
M  V30 24 1 7 22 CFG=1
M  V30 25 1 7 23
M  V30 26 1 7 24
M  V30 27 1 8 25 CFG=1
M  V30 28 1 8 26
M  V30 29 1 9 27
M  V30 30 1 10 28 CFG=1
M  V30 31 1 10 29
M  V30 32 1 11 30
M  V30 33 1 12 31 CFG=3
M  V30 34 1 12 32
M  V30 35 1 13 33
M  V30 36 1 14 34
M  V30 37 1 15 35
M  V30 38 1 16 36
M  V30 39 1 18 37 CFG=1
M  V30 40 1 4 38
M  V30 END BOND
M  V30 END CTAB
M  END
>  <Ligand_Instance>  (96) 
5LCT_6TY_A_401

>  <Dataset>  (96) 
PDB

>  <PDB_ID>  (96) 
5LCT

>  <Chain>  (96) 
A

>  <Resi>  (96) 
401

>  <Num_Resolved_Atoms>  (96) 
20

>  <Num_H_Atoms_ProtBoundConf>  (96) 
18

>  <Pocket>  (96) 
A

>  <SMILES>  (96) 
C[C@@H]1CNCCN1S(=O)(=O)c2cccc3c2ccnc3

>  <Name>  (96) 
5-[(2~{R})-2-methylpiperazin-1-yl]sulfonylisoquinoline

>  <Num_Heavy_Atoms>  (96) 
20

>  <Num_Not_Resolved_Atoms>  (96) 
0

>  <ATP_Site>  (96) 
True

>  <Peripheral>  (96) 
False

>  <Standardized_SMILES>  (96) 
[H]C1=NC([H])=C2C([H])=C([H])C([H])=C(S(=O)(=O)N3C([H])([H])C([H])([H])[N+]([H])([H])C([H])([H])[C@@]3([H])C([H])([H])[H])C2=C1[H]

$$$$
7CB
     RDKit          3D

  0  0  0  0  0  0  0  0  0  0999 V3000
M  V30 BEGIN CTAB
M  V30 COUNTS 22 23 0 0 0
M  V30 BEGIN ATOM
M  V30 1 S -27.683000 9.933000 4.482000 0 CFG=1
M  V30 2 O -27.953000 10.828000 5.570000 0
M  V30 3 O -26.478000 10.132000 3.720000 0
M  V30 4 N -27.638000 8.439000 5.082000 0
M  V30 5 N -33.118000 9.851000 4.489000 0
M  V30 6 C -32.148000 9.863000 5.414000 0
M  V30 7 C -32.754000 9.888000 3.209000 0
M  V30 8 C -29.722000 10.068000 1.046000 0
M  V30 9 C -30.813000 9.912000 5.126000 0
M  V30 10 C -28.721000 10.065000 2.001000 0
M  V30 11 C -31.033000 10.004000 1.405000 0
M  V30 12 C -29.035000 10.010000 3.334000 0
M  V30 13 C -31.407000 9.953000 2.770000 0
M  V30 14 C -30.397000 9.961000 3.772000 0
M  V30 15 H -27.450900 7.789400 4.345100 0
M  V30 16 H -26.916100 8.378200 5.771300 0
M  V30 17 H -32.418500 9.834300 6.376300 0
M  V30 18 H -33.473800 9.868800 2.515100 0
M  V30 19 H -29.478500 10.117900 0.077400 0
M  V30 20 H -30.136800 9.913300 5.862700 0
M  V30 21 H -27.762900 10.103200 1.717100 0
M  V30 22 H -31.739700 9.992900 0.697600 0
M  V30 END ATOM
M  V30 BEGIN BOND
M  V30 1 2 1 2
M  V30 2 2 1 3
M  V30 3 1 1 4 CFG=1
M  V30 4 1 1 12
M  V30 5 2 5 6
M  V30 6 1 5 7
M  V30 7 1 6 9
M  V30 8 2 7 13
M  V30 9 1 8 10
M  V30 10 2 8 11
M  V30 11 2 9 14
M  V30 12 2 10 12
M  V30 13 1 11 13
M  V30 14 1 12 14
M  V30 15 1 13 14
M  V30 16 1 4 15
M  V30 17 1 4 16
M  V30 18 1 6 17
M  V30 19 1 7 18
M  V30 20 1 8 19
M  V30 21 1 9 20
M  V30 22 1 10 21
M  V30 23 1 11 22
M  V30 END BOND
M  V30 END CTAB
M  END
>  <Ligand_Instance>  (97) 
5M0C_7CB_A_401

>  <Dataset>  (97) 
PDB

>  <PDB_ID>  (97) 
5M0C

>  <Chain>  (97) 
A

>  <Resi>  (97) 
401

>  <Num_Resolved_Atoms>  (97) 
14

>  <Num_H_Atoms_ProtBoundConf>  (97) 
8

>  <Pocket>  (97) 
A

>  <SMILES>  (97) 
c1cc2cnccc2c(c1)S(=O)(=O)N

>  <Name>  (97) 
isoquinoline-5-sulfonamide

>  <Num_Heavy_Atoms>  (97) 
14

>  <Num_Not_Resolved_Atoms>  (97) 
0

>  <ATP_Site>  (97) 
True

>  <Peripheral>  (97) 
False

>  <Standardized_SMILES>  (97) 
[H]C1=NC([H])=C2C([H])=C([H])C([H])=C(S(=O)(=O)N([H])[H])C2=C1[H]

$$$$
7CT
     RDKit          3D

  0  0  0  0  0  0  0  0  0  0999 V3000
M  V30 BEGIN CTAB
M  V30 COUNTS 25 26 0 0 0
M  V30 BEGIN ATOM
M  V30 1 S 13.838000 -27.486000 -20.204000 0 CFG=1
M  V30 2 O 14.566000 -28.669000 -20.516000 0
M  V30 3 O 13.275000 -26.703000 -21.257000 0
M  V30 4 N 12.634000 -27.948000 -19.239000 0
M  V30 5 N 17.373000 -27.700000 -16.079000 0
M  V30 6 C 11.623000 -26.970000 -18.856000 0 CFG=1
M  V30 7 C 16.719000 -28.592000 -16.845000 0
M  V30 8 C 17.200000 -26.411000 -16.356000 0
M  V30 9 C 15.400000 -24.131000 -18.695000 0
M  V30 10 C 15.899000 -28.256000 -17.880000 0
M  V30 11 C 14.691000 -25.050000 -19.454000 0
M  V30 12 C 16.214000 -24.543000 -17.681000 0
M  V30 13 C 14.828000 -26.393000 -19.220000 0
M  V30 14 C 16.377000 -25.924000 -17.400000 0
M  V30 15 C 15.690000 -26.885000 -18.191000 0
M  V30 16 H 12.158200 -28.696300 -19.701200 0
M  V30 17 H 10.947800 -27.404500 -18.259900 0
M  V30 18 H 12.059000 -26.212900 -18.369400 0
M  V30 19 H 11.168700 -26.621700 -19.675900 0
M  V30 20 H 16.842600 -29.563300 -16.641800 0
M  V30 21 H 17.682500 -25.742300 -15.790300 0
M  V30 22 H 15.313400 -23.154700 -18.893500 0
M  V30 23 H 15.447600 -28.968800 -18.416800 0
M  V30 24 H 14.076700 -24.730900 -20.175700 0
M  V30 25 H 16.700700 -23.864900 -17.130200 0
M  V30 END ATOM
M  V30 BEGIN BOND
M  V30 1 2 1 2
M  V30 2 2 1 3
M  V30 3 1 1 4 CFG=1
M  V30 4 1 1 13
M  V30 5 1 4 6
M  V30 6 2 5 7
M  V30 7 1 5 8
M  V30 8 1 7 10
M  V30 9 2 8 14
M  V30 10 1 9 11
M  V30 11 2 9 12
M  V30 12 2 10 15
M  V30 13 2 11 13
M  V30 14 1 12 14
M  V30 15 1 13 15
M  V30 16 1 14 15
M  V30 17 1 4 16
M  V30 18 1 6 17 CFG=1
M  V30 19 1 6 18
M  V30 20 1 6 19
M  V30 21 1 7 20
M  V30 22 1 8 21
M  V30 23 1 9 22
M  V30 24 1 10 23
M  V30 25 1 11 24
M  V30 26 1 12 25
M  V30 END BOND
M  V30 END CTAB
M  END
>  <Ligand_Instance>  (98) 
5M0L_7CT_A_401

>  <Dataset>  (98) 
PDB

>  <PDB_ID>  (98) 
5M0L

>  <Chain>  (98) 
A

>  <Resi>  (98) 
401

>  <Num_Resolved_Atoms>  (98) 
15

>  <Num_H_Atoms_ProtBoundConf>  (98) 
10

>  <Pocket>  (98) 
A

>  <SMILES>  (98) 
CNS(=O)(=O)c1cccc2c1ccnc2

>  <Name>  (98) 
~{N}-methylisoquinoline-5-sulfonamide

>  <Num_Heavy_Atoms>  (98) 
15

>  <Num_Not_Resolved_Atoms>  (98) 
0

>  <ATP_Site>  (98) 
True

>  <Peripheral>  (98) 
True

>  <Standardized_SMILES>  (98) 
[H]C1=NC([H])=C2C([H])=C([H])C([H])=C(S(=O)(=O)N([H])C([H])([H])[H])C2=C1[H]

$$$$
7CT
     RDKit          3D

  0  0  0  0  0  0  0  0  0  0999 V3000
M  V30 BEGIN CTAB
M  V30 COUNTS 25 26 0 0 0
M  V30 BEGIN ATOM
M  V30 1 S 10.661000 -14.763000 4.892000 0 CFG=2
M  V30 2 O 10.382000 -16.054000 5.452000 0
M  V30 3 O 12.016000 -14.383000 4.641000 0
M  V30 4 N 10.031000 -13.665000 5.894000 0
M  V30 5 N 5.586000 -15.292000 3.087000 0
M  V30 6 C 10.036000 -12.268000 5.481000 0 CFG=1
M  V30 7 C 6.249000 -15.573000 4.219000 0
M  V30 8 C 6.289000 -14.808000 2.068000 0
M  V30 9 C 9.761000 -13.833000 1.116000 0
M  V30 10 C 7.587000 -15.381000 4.391000 0
M  V30 11 C 10.430000 -14.098000 2.298000 0
M  V30 12 C 8.419000 -14.058000 1.012000 0
M  V30 13 C 9.754000 -14.595000 3.386000 0
M  V30 14 C 7.682000 -14.576000 2.106000 0
M  V30 15 C 8.356000 -14.866000 3.320000 0
M  V30 16 H 10.540300 -13.721400 6.752700 0
M  V30 17 H 9.617300 -11.707600 6.195600 0
M  V30 18 H 10.978100 -11.968000 5.331300 0
M  V30 19 H 9.516000 -12.169400 4.632600 0
M  V30 20 H 5.727700 -15.947400 4.985800 0
M  V30 21 H 5.801300 -14.594700 1.221500 0
M  V30 22 H 10.265400 -13.473400 0.331000 0
M  V30 23 H 8.021000 -15.601600 5.264500 0
M  V30 24 H 11.413200 -13.926400 2.360800 0
M  V30 25 H 7.949600 -13.854700 0.152700 0
M  V30 END ATOM
M  V30 BEGIN BOND
M  V30 1 2 1 2
M  V30 2 2 1 3
M  V30 3 1 1 4 CFG=1
M  V30 4 1 1 13
M  V30 5 1 4 6
M  V30 6 2 5 7
M  V30 7 1 5 8
M  V30 8 1 7 10
M  V30 9 2 8 14
M  V30 10 1 9 11
M  V30 11 2 9 12
M  V30 12 2 10 15
M  V30 13 2 11 13
M  V30 14 1 12 14
M  V30 15 1 13 15
M  V30 16 1 14 15
M  V30 17 1 4 16
M  V30 18 1 6 17 CFG=1
M  V30 19 1 6 18
M  V30 20 1 6 19
M  V30 21 1 7 20
M  V30 22 1 8 21
M  V30 23 1 9 22
M  V30 24 1 10 23
M  V30 25 1 11 24
M  V30 26 1 12 25
M  V30 END BOND
M  V30 END CTAB
M  END
>  <Ligand_Instance>  (99) 
5M0L_7CT_A_402

>  <Dataset>  (99) 
PDB

>  <PDB_ID>  (99) 
5M0L

>  <Chain>  (99) 
A

>  <Resi>  (99) 
402

>  <Num_Resolved_Atoms>  (99) 
15

>  <Num_H_Atoms_ProtBoundConf>  (99) 
10

>  <Pocket>  (99) 
X

>  <SMILES>  (99) 
CNS(=O)(=O)c1cccc2c1ccnc2

>  <Name>  (99) 
~{N}-methylisoquinoline-5-sulfonamide

>  <Num_Heavy_Atoms>  (99) 
15

>  <Num_Not_Resolved_Atoms>  (99) 
0

>  <ATP_Site>  (99) 
True

>  <Peripheral>  (99) 
True

>  <Standardized_SMILES>  (99) 
[H]C1=NC([H])=C2C([H])=C([H])C([H])=C(S(=O)(=O)N([H])C([H])([H])[H])C2=C1[H]

$$$$
7CT
     RDKit          3D

  0  0  0  0  0  0  0  0  0  0999 V3000
M  V30 BEGIN CTAB
M  V30 COUNTS 25 26 0 0 0
M  V30 BEGIN ATOM
M  V30 1 S -12.864000 -26.403000 27.053000 0 CFG=1
M  V30 2 O -13.575000 -27.550000 27.526000 0
M  V30 3 O -12.252000 -25.515000 27.995000 0
M  V30 4 N -11.700000 -26.939000 26.071000 0
M  V30 5 N -16.634000 -27.079000 23.205000 0
M  V30 6 C -10.638000 -26.025000 25.650000 0 CFG=1
M  V30 7 C -15.907000 -27.878000 24.006000 0
M  V30 8 C -16.502000 -25.770000 23.365000 0
M  V30 9 C -14.628000 -23.237000 25.365000 0
M  V30 10 C -15.032000 -27.428000 24.946000 0
M  V30 11 C -13.832000 -24.063000 26.141000 0
M  V30 12 C -15.508000 -23.762000 24.462000 0
M  V30 13 C -13.941000 -25.426000 26.039000 0
M  V30 14 C -15.634000 -25.166000 24.305000 0
M  V30 15 C -14.855000 -26.031000 25.119000 0
M  V30 16 H -11.257100 -27.705800 26.535600 0
M  V30 17 H -10.001500 -26.508000 25.048700 0
M  V30 18 H -11.039000 -25.251800 25.158800 0
M  V30 19 H -10.147600 -25.690500 26.454800 0
M  V30 20 H -16.016500 -28.866800 23.904300 0
M  V30 21 H -17.051600 -25.170200 22.783500 0
M  V30 22 H -14.557600 -22.244700 25.467000 0
M  V30 23 H -14.518800 -28.075600 25.509300 0
M  V30 24 H -13.174100 -23.663200 26.779200 0
M  V30 25 H -16.069600 -23.149800 23.905400 0
M  V30 END ATOM
M  V30 BEGIN BOND
M  V30 1 2 1 2
M  V30 2 2 1 3
M  V30 3 1 1 4 CFG=3
M  V30 4 1 1 13
M  V30 5 1 4 6
M  V30 6 2 5 7
M  V30 7 1 5 8
M  V30 8 1 7 10
M  V30 9 2 8 14
M  V30 10 1 9 11
M  V30 11 2 9 12
M  V30 12 2 10 15
M  V30 13 2 11 13
M  V30 14 1 12 14
M  V30 15 1 13 15
M  V30 16 1 14 15
M  V30 17 1 4 16
M  V30 18 1 6 17 CFG=3
M  V30 19 1 6 18
M  V30 20 1 6 19
M  V30 21 1 7 20
M  V30 22 1 8 21
M  V30 23 1 9 22
M  V30 24 1 10 23
M  V30 25 1 11 24
M  V30 26 1 12 25
M  V30 END BOND
M  V30 END CTAB
M  END
>  <Ligand_Instance>  (100) 
6YNC_7CT_A_401

>  <Dataset>  (100) 
PDB

>  <PDB_ID>  (100) 
6YNC

>  <Chain>  (100) 
A

>  <Resi>  (100) 
401

>  <Num_Resolved_Atoms>  (100) 
15

>  <Num_H_Atoms_ProtBoundConf>  (100) 
10

>  <Pocket>  (100) 
A

>  <SMILES>  (100) 
CNS(=O)(=O)c1cccc2c1ccnc2

>  <Name>  (100) 
~{N}-methylisoquinoline-5-sulfonamide

>  <Num_Heavy_Atoms>  (100) 
15

>  <Num_Not_Resolved_Atoms>  (100) 
0

>  <ATP_Site>  (100) 
True

>  <Peripheral>  (100) 
False

>  <Standardized_SMILES>  (100) 
[H]C1=NC([H])=C2C([H])=C([H])C([H])=C(S(=O)(=O)N([H])C([H])([H])[H])C2=C1[H]

$$$$
7K7
     RDKit          3D

  0  0  0  0  0  0  0  0  0  0999 V3000
M  V30 BEGIN CTAB
M  V30 COUNTS 41 43 0 0 0
M  V30 BEGIN ATOM
M  V30 1 S -13.790000 24.981000 -27.494000 0 CFG=1
M  V30 2 O -13.145000 26.015000 -26.746000 0
M  V30 3 O -14.431000 25.291000 -28.729000 0
M  V30 4 N -9.980000 23.730000 -29.053000 0 CFG=2 CHG=1
M  V30 5 N -17.424000 26.393000 -23.739000 0
M  V30 6 N -12.646000 23.840000 -27.799000 0
M  V30 7 C -13.247000 21.808000 -29.103000 0 CFG=1
M  V30 8 C -9.466000 23.679000 -27.651000 0 CFG=2
M  V30 9 C -16.666000 27.039000 -24.641000 0
M  V30 10 C -11.013000 22.719000 -29.415000 0 CFG=2
M  V30 11 C -17.415000 25.068000 -23.769000 0
M  V30 12 C -11.770000 23.420000 -26.688000 0 CFG=2
M  V30 13 C -10.472000 24.196000 -26.644000 0 CFG=2
M  V30 14 C -15.857000 22.191000 -25.560000 0
M  V30 15 C -15.875000 26.419000 -25.559000 0
M  V30 16 C -15.010000 22.862000 -26.427000 0
M  V30 17 C -16.654000 22.881000 -24.694000 0
M  V30 18 C -14.979000 24.229000 -26.442000 0
M  V30 19 C -12.491000 23.125000 -29.091000 0 CFG=2
M  V30 20 C -16.648000 24.298000 -24.672000 0
M  V30 21 C -15.822000 25.005000 -25.588000 0
M  V30 22 H -9.201400 23.603500 -29.667700 0
M  V30 23 H -13.118500 21.357900 -29.986700 0
M  V30 24 H -12.899600 21.217600 -28.374500 0
M  V30 25 H -14.220800 21.981300 -28.955700 0
M  V30 26 H -8.638300 24.237100 -27.592600 0
M  V30 27 H -9.244900 22.730300 -27.425000 0
M  V30 28 H -16.684100 28.038800 -24.637700 0
M  V30 29 H -10.808100 21.876300 -28.917200 0
M  V30 30 H -10.947900 22.549500 -30.398400 0
M  V30 31 H -17.988300 24.581600 -23.109700 0
M  V30 32 H -11.558700 22.448600 -26.796600 0
M  V30 33 H -12.256600 23.560900 -25.825800 0
M  V30 34 H -10.663700 25.156900 -26.843700 0
M  V30 35 H -10.080200 24.117700 -25.727300 0
M  V30 36 H -15.884400 21.191400 -25.569000 0
M  V30 37 H -15.336300 26.957600 -26.206900 0
M  V30 38 H -14.418400 22.344100 -27.044900 0
M  V30 39 H -17.250300 22.380300 -24.066500 0
M  V30 40 H -12.837700 23.705700 -29.827600 0
M  V30 41 H -10.376400 24.636300 -29.199300 0
M  V30 END ATOM
M  V30 BEGIN BOND
M  V30 1 2 1 2
M  V30 2 2 1 3
M  V30 3 1 1 6 CFG=3
M  V30 4 1 1 18
M  V30 5 1 4 8
M  V30 6 1 4 10
M  V30 7 2 5 9
M  V30 8 1 5 11
M  V30 9 1 6 12
M  V30 10 1 6 19
M  V30 11 1 7 19
M  V30 12 1 8 13
M  V30 13 1 9 15
M  V30 14 1 10 19
M  V30 15 2 11 20
M  V30 16 1 12 13
M  V30 17 1 14 16
M  V30 18 2 14 17
M  V30 19 2 15 21
M  V30 20 2 16 18
M  V30 21 1 17 20
M  V30 22 1 18 21
M  V30 23 1 20 21
M  V30 24 1 4 22 CFG=3
M  V30 25 1 7 23 CFG=3
M  V30 26 1 7 24
M  V30 27 1 7 25
M  V30 28 1 8 26 CFG=3
M  V30 29 1 8 27
M  V30 30 1 9 28
M  V30 31 1 10 29 CFG=1
M  V30 32 1 10 30
M  V30 33 1 11 31
M  V30 34 1 12 32 CFG=3
M  V30 35 1 12 33
M  V30 36 1 13 34 CFG=3
M  V30 37 1 13 35
M  V30 38 1 14 36
M  V30 39 1 15 37
M  V30 40 1 16 38
M  V30 41 1 17 39
M  V30 42 1 19 40 CFG=3
M  V30 43 1 4 41
M  V30 END BOND
M  V30 END CTAB
M  END
>  <Ligand_Instance>  (101) 
5M71_7K7_A_401

>  <Dataset>  (101) 
PDB

>  <PDB_ID>  (101) 
5M71

>  <Chain>  (101) 
A

>  <Resi>  (101) 
401

>  <Num_Resolved_Atoms>  (101) 
21

>  <Num_H_Atoms_ProtBoundConf>  (101) 
20

>  <Pocket>  (101) 
A

>  <SMILES>  (101) 
C[C@@H]1C[NH2+]CCCN1S(=O)(=O)c2cccc3c2ccnc3

>  <Name>  (101) 
5-[[(2~{R})-2-methyl-1,4-diazepan-4-ium-1-yl]sulfonyl]isoquinoline

>  <Num_Heavy_Atoms>  (101) 
21

>  <Num_Not_Resolved_Atoms>  (101) 
0

>  <ATP_Site>  (101) 
True

>  <Peripheral>  (101) 
False

>  <Standardized_SMILES>  (101) 
[H]C1=NC([H])=C2C([H])=C([H])C([H])=C(S(=O)(=O)N3C([H])([H])C([H])([H])C([H])([H])[N+]([H])([H])C([H])([H])[C@@]3([H])C([H])([H])[H])C2=C1[H]

$$$$
7KB
     RDKit          3D

  0  0  0  0  0  0  0  0  0  0999 V3000
M  V30 BEGIN CTAB
M  V30 COUNTS 41 43 0 0 0
M  V30 BEGIN ATOM
M  V30 1 S -13.737000 24.562000 -27.395000 0 CFG=2
M  V30 2 O -14.142000 24.939000 -28.714000 0
M  V30 3 O -13.111000 25.529000 -26.549000 0
M  V30 4 N -9.744000 22.422000 -27.078000 0 CFG=2 CHG=1
M  V30 5 N -17.523000 26.038000 -23.718000 0
M  V30 6 N -12.655000 23.352000 -27.574000 0
M  V30 7 C -15.660000 26.992000 -26.831000 0 CFG=1
M  V30 8 C -10.628000 23.192000 -26.155000 0 CFG=2
M  V30 9 C -10.067000 22.602000 -28.524000 0 CFG=2
M  V30 10 C -16.885000 26.704000 -24.684000 0
M  V30 11 C -17.474000 24.724000 -23.750000 0
M  V30 12 C -12.066000 22.786000 -26.344000 0 CFG=2
M  V30 13 C -12.607000 22.564000 -28.820000 0 CFG=2
M  V30 14 C -11.300000 21.802000 -28.973000 0 CFG=2
M  V30 15 C -16.019000 21.858000 -25.609000 0
M  V30 16 C -15.188000 22.518000 -26.502000 0
M  V30 17 C -16.758000 22.560000 -24.711000 0
M  V30 18 C -15.107000 23.884000 -26.502000 0
M  V30 19 C -16.156000 26.116000 -25.710000 0
M  V30 20 C -16.745000 23.976000 -24.707000 0
M  V30 21 C -15.945000 24.695000 -25.654000 0
M  V30 22 H -9.828600 21.450600 -26.856000 0
M  V30 23 H -15.155700 26.435200 -27.491000 0
M  V30 24 H -16.438700 27.424400 -27.285700 0
M  V30 25 H -15.056400 27.697900 -26.460300 0
M  V30 26 H -10.533600 24.168800 -26.347000 0
M  V30 27 H -10.355800 23.010100 -25.210100 0
M  V30 28 H -9.280500 22.303900 -29.064900 0
M  V30 29 H -10.239100 23.572500 -28.692800 0
M  V30 30 H -16.936000 27.702600 -24.667500 0
M  V30 31 H -17.984700 24.220100 -23.053300 0
M  V30 32 H -12.113800 21.788400 -26.394900 0
M  V30 33 H -12.595600 23.105400 -25.558200 0
M  V30 34 H -12.709700 23.185000 -29.597000 0
M  V30 35 H -13.362300 21.908600 -28.815000 0
M  V30 36 H -11.353600 20.968300 -28.423400 0
M  V30 37 H -11.186100 21.559400 -29.936400 0
M  V30 38 H -16.074500 20.859700 -25.626300 0
M  V30 39 H -14.642300 21.990000 -27.152700 0
M  V30 40 H -17.318900 22.070100 -24.043600 0
M  V30 41 H -8.800400 22.717300 -26.928000 0
M  V30 END ATOM
M  V30 BEGIN BOND
M  V30 1 2 1 2
M  V30 2 2 1 3
M  V30 3 1 1 6 CFG=3
M  V30 4 1 1 18
M  V30 5 1 4 8
M  V30 6 1 4 9
M  V30 7 2 5 10
M  V30 8 1 5 11
M  V30 9 1 6 12
M  V30 10 1 6 13
M  V30 11 1 7 19
M  V30 12 1 8 12
M  V30 13 1 9 14
M  V30 14 1 10 19
M  V30 15 2 11 20
M  V30 16 1 13 14
M  V30 17 1 15 16
M  V30 18 2 15 17
M  V30 19 2 16 18
M  V30 20 1 17 20
M  V30 21 1 18 21
M  V30 22 2 19 21
M  V30 23 1 20 21
M  V30 24 1 4 22 CFG=1
M  V30 25 1 7 23 CFG=3
M  V30 26 1 7 24
M  V30 27 1 7 25
M  V30 28 1 8 26 CFG=3
M  V30 29 1 8 27
M  V30 30 1 9 28 CFG=3
M  V30 31 1 9 29
M  V30 32 1 10 30
M  V30 33 1 11 31
M  V30 34 1 12 32 CFG=3
M  V30 35 1 12 33
M  V30 36 1 13 34 CFG=3
M  V30 37 1 13 35
M  V30 38 1 14 36 CFG=1
M  V30 39 1 14 37
M  V30 40 1 15 38
M  V30 41 1 16 39
M  V30 42 1 17 40
M  V30 43 1 4 41
M  V30 END BOND
M  V30 END CTAB
M  END
>  <Ligand_Instance>  (102) 
5M6Y_7KB_A_401

>  <Dataset>  (102) 
PDB

>  <PDB_ID>  (102) 
5M6Y

>  <Chain>  (102) 
A

>  <Resi>  (102) 
401

>  <Num_Resolved_Atoms>  (102) 
21

>  <Num_H_Atoms_ProtBoundConf>  (102) 
20

>  <Pocket>  (102) 
A

>  <SMILES>  (102) 
Cc1cncc2c1c(ccc2)S(=O)(=O)N3CCCNCC3

>  <Name>  (102) 
5-(1,4-diazepan-1-ylsulfonyl)-4-methyl-isoquinoline

>  <Num_Heavy_Atoms>  (102) 
21

>  <Num_Not_Resolved_Atoms>  (102) 
0

>  <ATP_Site>  (102) 
True

>  <Peripheral>  (102) 
False

>  <Standardized_SMILES>  (102) 
[H]C1=NC([H])=C2C([H])=C([H])C([H])=C(S(=O)(=O)N3C([H])([H])C([H])([H])C([H])([H])[N+]([H])([H])C([H])([H])C3([H])[H])C2=C1C([H])([H])[H]

$$$$
7KB
     RDKit          3D

  0  0  0  0  0  0  0  0  0  0999 V3000
M  V30 BEGIN CTAB
M  V30 COUNTS 41 43 0 0 0
M  V30 BEGIN ATOM
M  V30 1 S -13.363000 26.145000 -26.979000 0 CFG=2
M  V30 2 O -13.815000 26.534000 -28.280000 0
M  V30 3 O -12.804000 27.117000 -26.090000 0
M  V30 4 N -9.196000 24.441000 -26.675000 0 CFG=2 CHG=1
M  V30 5 N -17.188000 27.053000 -23.185000 0
M  V30 6 N -12.216000 25.000000 -27.195000 0
M  V30 7 C -15.498000 28.313000 -26.290000 0 CFG=1
M  V30 8 C -10.202000 25.039000 -25.751000 0 CFG=2
M  V30 9 C -9.485000 24.805000 -28.095000 0 CFG=2
M  V30 10 C -16.564000 27.820000 -24.080000 0
M  V30 11 C -17.077000 25.748000 -23.322000 0
M  V30 12 C -11.565000 24.429000 -26.001000 0 CFG=2
M  V30 13 C -11.961000 24.395000 -28.519000 0 CFG=2
M  V30 14 C -10.546000 23.860000 -28.667000 0 CFG=2
M  V30 15 C -15.348000 23.136000 -25.321000 0
M  V30 16 C -14.567000 23.916000 -26.159000 0
M  V30 17 C -16.182000 23.711000 -24.414000 0
M  V30 18 C -14.634000 25.280000 -26.099000 0
M  V30 19 C -15.870000 27.355000 -25.186000 0
M  V30 20 C -16.297000 25.116000 -24.328000 0
M  V30 21 C -15.553000 25.952000 -25.221000 0
M  V30 22 H -9.218600 23.445600 -26.582100 0
M  V30 23 H -15.005000 27.820100 -27.006900 0
M  V30 24 H -16.328000 28.717600 -26.674000 0
M  V30 25 H -14.914400 29.036400 -25.921000 0
M  V30 26 H -10.247800 26.025900 -25.905800 0
M  V30 27 H -9.928900 24.862200 -24.805400 0
M  V30 28 H -8.646600 24.728400 -28.634600 0
M  V30 29 H -9.822100 25.745600 -28.134600 0
M  V30 30 H -16.599700 28.809800 -23.942100 0
M  V30 31 H -17.572500 25.165200 -22.677900 0
M  V30 32 H -11.458400 23.443300 -26.131800 0
M  V30 33 H -12.145500 24.598700 -25.204600 0
M  V30 34 H -12.113600 25.090200 -29.221400 0
M  V30 35 H -12.602500 23.639700 -28.652700 0
M  V30 36 H -10.484700 22.984600 -28.187400 0
M  V30 37 H -10.358000 23.721300 -29.639300 0
M  V30 38 H -15.297600 22.139300 -25.384100 0
M  V30 39 H -13.949800 23.477700 -26.812500 0
M  V30 40 H -16.720000 23.132500 -23.800900 0
M  V30 41 H -8.286900 24.778100 -26.430200 0
M  V30 END ATOM
M  V30 BEGIN BOND
M  V30 1 2 1 2
M  V30 2 2 1 3
M  V30 3 1 1 6 CFG=3
M  V30 4 1 1 18
M  V30 5 1 4 8
M  V30 6 1 4 9
M  V30 7 2 5 10
M  V30 8 1 5 11
M  V30 9 1 6 12
M  V30 10 1 6 13
M  V30 11 1 7 19
M  V30 12 1 8 12
M  V30 13 1 9 14
M  V30 14 1 10 19
M  V30 15 2 11 20
M  V30 16 1 13 14
M  V30 17 1 15 16
M  V30 18 2 15 17
M  V30 19 2 16 18
M  V30 20 1 17 20
M  V30 21 1 18 21
M  V30 22 2 19 21
M  V30 23 1 20 21
M  V30 24 1 4 22 CFG=3
M  V30 25 1 7 23 CFG=3
M  V30 26 1 7 24
M  V30 27 1 7 25
M  V30 28 1 8 26 CFG=1
M  V30 29 1 8 27
M  V30 30 1 9 28 CFG=3
M  V30 31 1 9 29
M  V30 32 1 10 30
M  V30 33 1 11 31
M  V30 34 1 12 32 CFG=3
M  V30 35 1 12 33
M  V30 36 1 13 34 CFG=3
M  V30 37 1 13 35
M  V30 38 1 14 36 CFG=1
M  V30 39 1 14 37
M  V30 40 1 15 38
M  V30 41 1 16 39
M  V30 42 1 17 40
M  V30 43 1 4 41
M  V30 END BOND
M  V30 END CTAB
M  END
>  <Ligand_Instance>  (103) 
6YQK_7KB_A_401

>  <Dataset>  (103) 
PDB

>  <PDB_ID>  (103) 
6YQK

>  <Chain>  (103) 
A

>  <Resi>  (103) 
401

>  <Num_Resolved_Atoms>  (103) 
21

>  <Num_H_Atoms_ProtBoundConf>  (103) 
20

>  <Pocket>  (103) 
A

>  <SMILES>  (103) 
Cc1cncc2c1c(ccc2)S(=O)(=O)N3CCCNCC3

>  <Name>  (103) 
5-(1,4-diazepan-1-ylsulfonyl)-4-methyl-isoquinoline

>  <Num_Heavy_Atoms>  (103) 
21

>  <Num_Not_Resolved_Atoms>  (103) 
0

>  <ATP_Site>  (103) 
True

>  <Peripheral>  (103) 
False

>  <Standardized_SMILES>  (103) 
[H]C1=NC([H])=C2C([H])=C([H])C([H])=C(S(=O)(=O)N3C([H])([H])C([H])([H])C([H])([H])[N+]([H])([H])C([H])([H])C3([H])[H])C2=C1C([H])([H])[H]

$$$$
7N9
     RDKit          3D

  0  0  0  0  0  0  0  0  0  0999 V3000
M  V30 BEGIN CTAB
M  V30 COUNTS 22 22 0 0 0
M  V30 BEGIN ATOM
M  V30 1 Cl -16.686000 24.917000 -22.885000 0
M  V30 2 O -12.555000 26.132000 -26.849000 0
M  V30 3 N -11.460000 23.782000 -25.650000 0 CFG=1 CHG=1
M  V30 4 C -12.335000 27.468000 -27.292000 0 CFG=1
M  V30 5 C -12.838000 23.516000 -26.144000 0 CFG=2
M  V30 6 C -15.401000 26.602000 -24.565000 0
M  V30 7 C -14.407000 26.911000 -25.479000 0
M  V30 8 C -14.794000 24.283000 -24.705000 0
M  V30 9 C -15.565000 25.292000 -24.175000 0
M  V30 10 C -13.589000 25.909000 -25.981000 0
M  V30 11 C -13.771000 24.578000 -25.605000 0
M  V30 12 H -11.320300 23.308000 -24.780600 0
M  V30 13 H -10.795900 23.451200 -26.320500 0
M  V30 14 H -11.554800 27.487700 -27.917200 0
M  V30 15 H -13.150400 27.800600 -27.765900 0
M  V30 16 H -12.145500 28.053600 -26.503900 0
M  V30 17 H -13.138400 22.615500 -25.829600 0
M  V30 18 H -12.845700 23.539600 -27.143700 0
M  V30 19 H -15.990500 27.319600 -24.194100 0
M  V30 20 H -14.278900 27.856900 -25.777200 0
M  V30 21 H -14.968300 23.333700 -24.443400 0
M  V30 22 H -11.337700 24.765500 -25.516900 0
M  V30 END ATOM
M  V30 BEGIN BOND
M  V30 1 1 1 9
M  V30 2 1 2 4
M  V30 3 1 2 10
M  V30 4 1 3 5
M  V30 5 1 5 11
M  V30 6 2 6 7
M  V30 7 1 6 9
M  V30 8 1 7 10
M  V30 9 2 8 9
M  V30 10 1 8 11
M  V30 11 2 10 11
M  V30 12 1 3 12 CFG=1
M  V30 13 1 3 13
M  V30 14 1 4 14 CFG=3
M  V30 15 1 4 15
M  V30 16 1 4 16
M  V30 17 1 5 17 CFG=3
M  V30 18 1 5 18
M  V30 19 1 6 19
M  V30 20 1 7 20
M  V30 21 1 8 21
M  V30 22 1 3 22
M  V30 END BOND
M  V30 END CTAB
M  END
>  <Ligand_Instance>  (104) 
5MHI_7N9_A_402

>  <Dataset>  (104) 
PDB

>  <PDB_ID>  (104) 
5MHI

>  <Chain>  (104) 
A

>  <Resi>  (104) 
402

>  <Num_Resolved_Atoms>  (104) 
11

>  <Num_H_Atoms_ProtBoundConf>  (104) 
11

>  <Pocket>  (104) 
A

>  <SMILES>  (104) 
COc1ccc(cc1C[NH3+])Cl

>  <Name>  (104) 
(5-chloranyl-2-methoxy-phenyl)methylazanium

>  <Num_Heavy_Atoms>  (104) 
11

>  <Num_Not_Resolved_Atoms>  (104) 
0

>  <ATP_Site>  (104) 
True

>  <Peripheral>  (104) 
True

>  <Standardized_SMILES>  (104) 
[H]C1=C([H])C(OC([H])([H])[H])=C(C([H])([H])[N+]([H])([H])[H])C([H])=C1Cl

$$$$
7QF
     RDKit          3D

  0  0  0  0  0  0  0  0  0  0999 V3000
M  V30 BEGIN CTAB
M  V30 COUNTS 39 41 0 0 0
M  V30 BEGIN ATOM
M  V30 1 O 10.108000 -23.128000 -30.670000 0
M  V30 2 N 17.365000 -26.696000 -23.699000 0
M  V30 3 N 17.547000 -23.084000 -23.738000 0
M  V30 4 N 9.721000 -22.158000 -27.927000 0 CFG=2 CHG=1
M  V30 5 C 8.825000 -22.833000 -30.091000 0 CFG=2
M  V30 6 C 16.920000 -25.824000 -24.261000 0
M  V30 7 C 8.834000 -23.103000 -28.610000 0 CFG=2
M  V30 8 C 12.388000 -26.085000 -28.937000 0
M  V30 9 C 10.630000 -21.556000 -28.906000 0 CFG=2
M  V30 10 C 11.614000 -25.077000 -29.487000 0
M  V30 11 C 13.403000 -25.772000 -28.047000 0
M  V30 12 C 15.937000 -22.436000 -25.444000 0
M  V30 13 C 14.983000 -22.768000 -26.390000 0
M  V30 14 C 15.370000 -25.094000 -25.988000 0
M  V30 15 C 12.830000 -23.449000 -28.222000 0
M  V30 16 C 11.169000 -22.603000 -29.861000 0 CFG=1
M  V30 17 C 16.613000 -23.419000 -24.713000 0
M  V30 18 C 16.301000 -24.766000 -25.008000 0
M  V30 19 C 11.850000 -23.749000 -29.156000 0
M  V30 20 C 13.631000 -24.450000 -27.668000 0
M  V30 21 C 14.675000 -24.100000 -26.675000 0
M  V30 22 H 18.017800 -23.804000 -23.228200 0
M  V30 23 H 17.747600 -22.123100 -23.546900 0
M  V30 24 H 10.251800 -22.641100 -27.230700 0
M  V30 25 H 8.129700 -23.406000 -30.524800 0
M  V30 26 H 8.608100 -21.869500 -30.247600 0
M  V30 27 H 7.906100 -23.003300 -28.250700 0
M  V30 28 H 9.156400 -24.035400 -28.446500 0
M  V30 29 H 12.214500 -27.038800 -29.182100 0
M  V30 30 H 11.394600 -21.128900 -28.423200 0
M  V30 31 H 10.135300 -20.861000 -29.427700 0
M  V30 32 H 10.880400 -25.306800 -30.126600 0
M  V30 33 H 13.976900 -26.500800 -27.673400 0
M  V30 34 H 16.147800 -21.472400 -25.279300 0
M  V30 35 H 14.504400 -22.039100 -26.879500 0
M  V30 36 H 15.197000 -26.055300 -26.202500 0
M  V30 37 H 12.965600 -22.499200 -27.940100 0
M  V30 38 H 11.835700 -22.164500 -30.463700 0
M  V30 39 H 9.175300 -21.441400 -27.492500 0
M  V30 END ATOM
M  V30 BEGIN BOND
M  V30 1 1 1 5
M  V30 2 1 1 16
M  V30 3 3 2 6
M  V30 4 1 3 17
M  V30 5 1 4 7
M  V30 6 1 4 9
M  V30 7 1 5 7
M  V30 8 1 6 18
M  V30 9 2 8 10
M  V30 10 1 8 11
M  V30 11 1 9 16
M  V30 12 1 10 19
M  V30 13 2 11 20
M  V30 14 1 12 13
M  V30 15 2 12 17
M  V30 16 2 13 21
M  V30 17 2 14 18
M  V30 18 1 14 21
M  V30 19 2 15 19
M  V30 20 1 15 20
M  V30 21 1 16 19
M  V30 22 1 17 18
M  V30 23 1 20 21
M  V30 24 1 3 22
M  V30 25 1 3 23
M  V30 26 1 4 24 CFG=1
M  V30 27 1 5 25 CFG=3
M  V30 28 1 5 26
M  V30 29 1 7 27 CFG=1
M  V30 30 1 7 28
M  V30 31 1 8 29
M  V30 32 1 9 30 CFG=1
M  V30 33 1 9 31
M  V30 34 1 10 32
M  V30 35 1 11 33
M  V30 36 1 12 34
M  V30 37 1 13 35
M  V30 38 1 14 36
M  V30 39 1 15 37
M  V30 40 1 16 38 CFG=3
M  V30 41 1 4 39
M  V30 END BOND
M  V30 END CTAB
M  END
>  <Ligand_Instance>  (105) 
7PIE_7QF_A_401

>  <Dataset>  (105) 
PDB

>  <PDB_ID>  (105) 
7PIE

>  <Chain>  (105) 
A

>  <Resi>  (105) 
401

>  <Num_Resolved_Atoms>  (105) 
21

>  <Num_H_Atoms_ProtBoundConf>  (105) 
18

>  <Pocket>  (105) 
A

>  <SMILES>  (105) 
c1cc(cc(c1)[C@@H]2CNCCO2)c3ccc(c(c3)C#N)N

>  <Name>  (105) 
2-azanyl-5-[3-[(2R)-morpholin-2-yl]phenyl]benzenecarbonitrile

>  <Num_Heavy_Atoms>  (105) 
21

>  <Num_Not_Resolved_Atoms>  (105) 
0

>  <ATP_Site>  (105) 
True

>  <Peripheral>  (105) 
False

>  <Standardized_SMILES>  (105) 
[H]C1=C([H])C([C@@]2([H])OC([H])([H])C([H])([H])[N+]([H])([H])C2([H])[H])=C([H])C(C2=C([H])C([H])=C(N([H])[H])C(C#N)=C2[H])=C1[H]

$$$$
7QI
     RDKit          3D

  0  0  0  0  0  0  0  0  0  0999 V3000
M  V30 BEGIN CTAB
M  V30 COUNTS 39 41 0 0 0
M  V30 BEGIN ATOM
M  V30 1 O 9.301000 -22.217000 -30.232000 0
M  V30 2 N 17.381000 -26.867000 -23.702000 0
M  V30 3 N 17.208000 -23.267000 -23.879000 0
M  V30 4 N 9.374000 -24.220000 -28.241000 0 CFG=2 CHG=1
M  V30 5 C 8.168000 -23.046000 -29.989000 0 CFG=2
M  V30 6 C 10.510000 -22.913000 -29.922000 0 CFG=2
M  V30 7 C 16.861000 -26.063000 -24.308000 0
M  V30 8 C 8.122000 -23.528000 -28.569000 0 CFG=2
M  V30 9 C 13.054000 -26.855000 -29.534000 0
M  V30 10 C 11.857000 -26.210000 -29.789000 0
M  V30 11 C 13.939000 -26.333000 -28.607000 0
M  V30 12 C 15.602000 -22.827000 -25.656000 0
M  V30 13 C 14.721000 -23.283000 -26.623000 0
M  V30 14 C 15.309000 -25.545000 -26.111000 0
M  V30 15 C 12.436000 -24.505000 -28.204000 0
M  V30 16 C 16.356000 -23.716000 -24.875000 0
M  V30 17 C 10.230000 -24.321000 -29.440000 0 CFG=1
M  V30 18 C 16.183000 -25.097000 -25.123000 0
M  V30 19 C 11.538000 -25.031000 -29.134000 0
M  V30 20 C 13.638000 -25.158000 -27.918000 0
M  V30 21 C 14.558000 -24.648000 -26.867000 0
M  V30 22 H 17.733600 -23.923000 -23.337400 0
M  V30 23 H 17.297300 -22.286900 -23.701700 0
M  V30 24 H 9.165600 -25.138700 -27.905600 0
M  V30 25 H 8.210300 -23.838000 -30.598100 0
M  V30 26 H 7.337500 -22.522600 -30.179900 0
M  V30 27 H 10.997400 -22.414700 -29.205000 0
M  V30 28 H 11.079300 -22.957500 -30.742900 0
M  V30 29 H 8.003700 -22.746600 -27.956300 0
M  V30 30 H 7.354200 -24.158800 -28.456700 0
M  V30 31 H 13.279900 -27.699200 -30.020000 0
M  V30 32 H 11.216400 -26.597800 -30.451700 0
M  V30 33 H 14.803500 -26.803100 -28.429200 0
M  V30 34 H 15.702800 -21.842700 -25.511400 0
M  V30 35 H 14.192200 -22.622500 -27.156000 0
M  V30 36 H 15.219300 -26.526500 -26.280200 0
M  V30 37 H 12.216300 -23.649100 -27.735900 0
M  V30 38 H 9.741000 -24.823000 -30.153400 0
M  V30 39 H 9.858300 -23.708100 -27.531500 0
M  V30 END ATOM
M  V30 BEGIN BOND
M  V30 1 1 1 5
M  V30 2 1 1 6
M  V30 3 3 2 7
M  V30 4 1 3 16
M  V30 5 1 4 8
M  V30 6 1 4 17
M  V30 7 1 5 8
M  V30 8 1 6 17
M  V30 9 1 7 18
M  V30 10 2 9 10
M  V30 11 1 9 11
M  V30 12 1 10 19
M  V30 13 2 11 20
M  V30 14 1 12 13
M  V30 15 2 12 16
M  V30 16 2 13 21
M  V30 17 2 14 18
M  V30 18 1 14 21
M  V30 19 2 15 19
M  V30 20 1 15 20
M  V30 21 1 16 18
M  V30 22 1 17 19
M  V30 23 1 20 21
M  V30 24 1 3 22
M  V30 25 1 3 23
M  V30 26 1 4 24 CFG=1
M  V30 27 1 5 25 CFG=3
M  V30 28 1 5 26
M  V30 29 1 6 27 CFG=1
M  V30 30 1 6 28
M  V30 31 1 8 29 CFG=1
M  V30 32 1 8 30
M  V30 33 1 9 31
M  V30 34 1 10 32
M  V30 35 1 11 33
M  V30 36 1 12 34
M  V30 37 1 13 35
M  V30 38 1 14 36
M  V30 39 1 15 37
M  V30 40 1 17 38 CFG=3
M  V30 41 1 4 39
M  V30 END BOND
M  V30 END CTAB
M  END
>  <Ligand_Instance>  (106) 
7PID_7QI_A_401

>  <Dataset>  (106) 
PDB

>  <PDB_ID>  (106) 
7PID

>  <Chain>  (106) 
A

>  <Resi>  (106) 
401

>  <Num_Resolved_Atoms>  (106) 
21

>  <Num_H_Atoms_ProtBoundConf>  (106) 
18

>  <Pocket>  (106) 
A

>  <SMILES>  (106) 
c1cc(cc(c1)[C@@H]2COCCN2)c3ccc(c(c3)C#N)N

>  <Name>  (106) 
2-azanyl-5-[3-[(3R)-morpholin-3-yl]phenyl]benzenecarbonitrile

>  <Num_Heavy_Atoms>  (106) 
21

>  <Num_Not_Resolved_Atoms>  (106) 
0

>  <ATP_Site>  (106) 
True

>  <Peripheral>  (106) 
False

>  <Standardized_SMILES>  (106) 
[H]C1=C([H])C([C@]2([H])C([H])([H])OC([H])([H])C([H])([H])[N+]2([H])[H])=C([H])C(C2=C([H])C([H])=C(N([H])[H])C(C#N)=C2[H])=C1[H]

$$$$
7QL
     RDKit          3D

  0  0  0  0  0  0  0  0  0  0999 V3000
M  V30 BEGIN CTAB
M  V30 COUNTS 45 47 0 0 0
M  V30 BEGIN ATOM
M  V30 1 O -12.278000 21.154000 -31.587000 0
M  V30 2 N -17.504000 26.527000 -23.588000 0
M  V30 3 N -9.496000 22.508000 -27.505000 0 CFG=1 CHG=1
M  V30 4 N -17.642000 22.936000 -23.706000 0
M  V30 5 C -11.913000 22.517000 -31.850000 0 CFG=2
M  V30 6 C -12.540000 20.948000 -30.197000 0 CFG=2
M  V30 7 C -17.011000 25.675000 -24.162000 0
M  V30 8 C -12.351000 26.044000 -28.676000 0
M  V30 9 C -9.442000 22.865000 -28.918000 0 CFG=2
M  V30 10 C -13.353000 25.688000 -27.792000 0
M  V30 11 C -11.574000 25.070000 -29.276000 0
M  V30 12 C -15.994000 22.307000 -25.380000 0
M  V30 13 C -14.995000 22.644000 -26.281000 0
M  V30 14 C -15.369000 24.969000 -25.840000 0
M  V30 15 C -12.793000 23.372000 -28.100000 0
M  V30 16 C -10.657000 22.918000 -31.100000 0 CFG=2
M  V30 17 C -11.324000 21.244000 -29.341000 0 CFG=2
M  V30 18 C -16.689000 23.286000 -24.658000 0
M  V30 19 C -16.354000 24.634000 -24.907000 0
M  V30 20 C -13.598000 24.348000 -27.493000 0
M  V30 21 C -14.667000 23.978000 -26.532000 0
M  V30 22 C -11.772000 23.727000 -28.984000 0
M  V30 23 C -10.819000 22.679000 -29.585000 0 CFG=1
M  V30 24 H -8.593400 22.636300 -27.094000 0
M  V30 25 H -10.160600 23.092000 -27.038800 0
M  V30 26 H -18.128400 23.648300 -23.200100 0
M  V30 27 H -17.840300 21.972200 -23.527900 0
M  V30 28 H -12.663800 23.113700 -31.566600 0
M  V30 29 H -11.752900 22.625800 -32.831100 0
M  V30 30 H -12.809600 19.995300 -30.056800 0
M  V30 31 H -13.287100 21.550600 -29.916300 0
M  V30 32 H -12.187700 27.008800 -28.882100 0
M  V30 33 H -8.773700 22.280500 -29.378100 0
M  V30 34 H -9.163200 23.821500 -29.003600 0
M  V30 35 H -13.908500 26.399800 -27.362100 0
M  V30 36 H -10.862500 25.335500 -29.926600 0
M  V30 37 H -16.223400 21.343400 -25.242600 0
M  V30 38 H -14.500500 21.918500 -26.759700 0
M  V30 39 H -15.163400 25.931800 -26.015100 0
M  V30 40 H -12.953200 22.406200 -27.896100 0
M  V30 41 H -10.475700 23.888200 -31.260600 0
M  V30 42 H -9.887600 22.375000 -31.436400 0
M  V30 43 H -10.596600 20.597100 -29.570000 0
M  V30 44 H -11.569200 21.142300 -28.376900 0
M  V30 45 H -9.771000 21.551000 -27.413300 0
M  V30 END ATOM
M  V30 BEGIN BOND
M  V30 1 1 1 5
M  V30 2 1 1 6
M  V30 3 3 2 7
M  V30 4 1 3 9
M  V30 5 1 4 18
M  V30 6 1 5 16
M  V30 7 1 6 17
M  V30 8 1 7 19
M  V30 9 1 8 10
M  V30 10 2 8 11
M  V30 11 1 9 23
M  V30 12 2 10 20
M  V30 13 1 11 22
M  V30 14 1 12 13
M  V30 15 2 12 18
M  V30 16 2 13 21
M  V30 17 2 14 19
M  V30 18 1 14 21
M  V30 19 1 15 20
M  V30 20 2 15 22
M  V30 21 1 16 23
M  V30 22 1 17 23
M  V30 23 1 18 19
M  V30 24 1 20 21
M  V30 25 1 23 22 CFG=1
M  V30 26 1 3 24 CFG=1
M  V30 27 1 3 25
M  V30 28 1 4 26
M  V30 29 1 4 27
M  V30 30 1 5 28 CFG=1
M  V30 31 1 5 29
M  V30 32 1 6 30 CFG=3
M  V30 33 1 6 31
M  V30 34 1 8 32
M  V30 35 1 9 33 CFG=3
M  V30 36 1 9 34
M  V30 37 1 10 35
M  V30 38 1 11 36
M  V30 39 1 12 37
M  V30 40 1 13 38
M  V30 41 1 14 39
M  V30 42 1 15 40
M  V30 43 1 16 41 CFG=1
M  V30 44 1 16 42
M  V30 45 1 17 43 CFG=3
M  V30 46 1 17 44
M  V30 47 1 3 45
M  V30 END BOND
M  V30 END CTAB
M  END
>  <Ligand_Instance>  (107) 
7PIF_7QL_A_401

>  <Dataset>  (107) 
PDB

>  <PDB_ID>  (107) 
7PIF

>  <Chain>  (107) 
A

>  <Resi>  (107) 
401

>  <Num_Resolved_Atoms>  (107) 
23

>  <Num_H_Atoms_ProtBoundConf>  (107) 
22

>  <Pocket>  (107) 
A

>  <SMILES>  (107) 
c1cc(cc(c1)C2(CCOCC2)CN)c3ccc(c(c3)C#N)N

>  <Name>  (107) 
5-[3-[4-(aminomethyl)oxan-4-yl]phenyl]-2-azanyl-benzenecarbonitrile

>  <Num_Heavy_Atoms>  (107) 
23

>  <Num_Not_Resolved_Atoms>  (107) 
0

>  <ATP_Site>  (107) 
True

>  <Peripheral>  (107) 
False

>  <Standardized_SMILES>  (107) 
[H]C1=C([H])C(C2(C([H])([H])[N+]([H])([H])[H])C([H])([H])C([H])([H])OC([H])([H])C2([H])[H])=C([H])C(C2=C([H])C([H])=C(N([H])[H])C(C#N)=C2[H])=C1[H]

$$$$
7QR
     RDKit          3D

  0  0  0  0  0  0  0  0  0  0999 V3000
M  V30 BEGIN CTAB
M  V30 COUNTS 32 33 0 0 0
M  V30 BEGIN ATOM
M  V30 1 Cl 14.848000 -24.471000 -26.991000 0
M  V30 2 N 17.202000 -24.687000 -24.346000 0
M  V30 3 N 17.377000 -21.181000 -24.073000 0
M  V30 4 N 10.589000 -20.242000 -27.591000 0 CFG=2 CHG=1
M  V30 5 C 16.711000 -23.787000 -24.847000 0
M  V30 6 C 9.864000 -20.291000 -28.864000 0 CFG=2
M  V30 7 C 10.287000 -21.567000 -29.657000 0 CFG=2
M  V30 8 C 12.044000 -20.145000 -27.826000 0 CFG=2
M  V30 9 C 11.804000 -21.558000 -29.899000 0 CFG=2
M  V30 10 C 15.815000 -20.302000 -25.743000 0
M  V30 11 C 14.902000 -20.519000 -26.760000 0
M  V30 12 C 13.625000 -22.056000 -28.294000 0
M  V30 13 C 16.446000 -21.373000 -25.087000 0
M  V30 14 C 15.197000 -22.866000 -26.524000 0
M  V30 15 C 12.548000 -21.338000 -28.612000 0
M  V30 16 C 14.575000 -21.807000 -27.185000 0
M  V30 17 C 16.116000 -22.671000 -25.506000 0
M  V30 18 H 17.804200 -21.969500 -23.630600 0
M  V30 19 H 17.619700 -20.254300 -23.785900 0
M  V30 20 H 10.394800 -21.073000 -27.069800 0
M  V30 21 H 10.081300 -19.476900 -29.402600 0
M  V30 22 H 8.880400 -20.320300 -28.686100 0
M  V30 23 H 9.811600 -21.582700 -30.536700 0
M  V30 24 H 10.040700 -22.380700 -29.130400 0
M  V30 25 H 12.515900 -20.110800 -26.945000 0
M  V30 26 H 12.237200 -19.309400 -28.340200 0
M  V30 27 H 12.029800 -20.822700 -30.538100 0
M  V30 28 H 12.078800 -22.436100 -30.290600 0
M  V30 29 H 16.030100 -19.364500 -25.469400 0
M  V30 30 H 14.466300 -19.734100 -27.200700 0
M  V30 31 H 13.812900 -22.852400 -28.868800 0
M  V30 32 H 10.286000 -19.443700 -27.070600 0
M  V30 END ATOM
M  V30 BEGIN BOND
M  V30 1 1 1 14
M  V30 2 3 2 5
M  V30 3 1 3 13
M  V30 4 1 4 6
M  V30 5 1 4 8
M  V30 6 1 5 17
M  V30 7 1 6 7
M  V30 8 1 7 9
M  V30 9 1 8 15
M  V30 10 1 9 15
M  V30 11 2 10 11
M  V30 12 1 10 13
M  V30 13 1 11 16
M  V30 14 2 12 15
M  V30 15 1 12 16
M  V30 16 2 13 17
M  V30 17 2 14 16
M  V30 18 1 14 17
M  V30 19 1 3 18
M  V30 20 1 3 19
M  V30 21 1 4 20 CFG=1
M  V30 22 1 6 21 CFG=3
M  V30 23 1 6 22
M  V30 24 1 7 23 CFG=3
M  V30 25 1 7 24
M  V30 26 1 8 25 CFG=1
M  V30 27 1 8 26
M  V30 28 1 9 27 CFG=3
M  V30 29 1 9 28
M  V30 30 1 10 29
M  V30 31 1 11 30
M  V30 32 1 12 31
M  V30 33 1 4 32
M  V30 END BOND
M  V30 END CTAB
M  END
>  <Ligand_Instance>  (108) 
7PIG_7QR_A_401

>  <Dataset>  (108) 
PDB

>  <PDB_ID>  (108) 
7PIG

>  <Chain>  (108) 
A

>  <Resi>  (108) 
401

>  <Num_Resolved_Atoms>  (108) 
17

>  <Num_H_Atoms_ProtBoundConf>  (108) 
15

>  <Pocket>  (108) 
A

>  <SMILES>  (108) 
c1cc(c(c(c1/C=C\2/CCCNC2)Cl)C#N)N

>  <Name>  (108) 
6-azanyl-2-chloranyl-3-[(Z)-piperidin-3-ylidenemethyl]benzenecarbonitrile

>  <Num_Heavy_Atoms>  (108) 
17

>  <Num_Not_Resolved_Atoms>  (108) 
0

>  <ATP_Site>  (108) 
True

>  <Peripheral>  (108) 
False

>  <Standardized_SMILES>  (108) 
[H]C1=C([H])C(N([H])[H])=C(C#N)C(Cl)=C1/C([H])=C1/C([H])([H])C([H])([H])C([H])([H])[N+]([H])([H])C1([H])[H]

$$$$
7QW
     RDKit          3D

  0  0  0  0  0  0  0  0  0  0999 V3000
M  V30 BEGIN CTAB
M  V30 COUNTS 47 50 0 0 0
M  V30 BEGIN ATOM
M  V30 1 O 17.566000 -26.690000 -23.709000 0
M  V30 2 N 7.895000 -20.223000 -28.623000 0 CFG=1 CHG=1
M  V30 3 N 17.453000 -24.444000 -23.529000 0
M  V30 4 N 10.115000 -22.660000 -29.457000 0 CFG=2 CHG=1
M  V30 5 C 16.906000 -23.291000 -23.980000 0
M  V30 6 C 8.942000 -23.534000 -29.330000 0 CFG=2
M  V30 7 C 9.582000 -21.377000 -29.929000 0 CFG=2
M  V30 8 C 11.152000 -23.222000 -30.337000 0 CFG=2
M  V30 9 C 11.263000 -26.856000 -29.312000 0
M  V30 10 C 15.958000 -23.228000 -24.964000 0
M  V30 11 C 7.827000 -22.643000 -28.829000 0 CFG=2
M  V30 12 C 10.959000 -25.711000 -30.026000 0
M  V30 13 C 12.284000 -26.836000 -28.377000 0
M  V30 14 C 14.741000 -26.835000 -26.770000 0
M  V30 15 C 15.700000 -26.847000 -25.805000 0
M  V30 16 C 12.707000 -24.538000 -28.895000 0
M  V30 17 C 14.524000 -24.458000 -26.580000 0
M  V30 18 C 17.068000 -25.580000 -24.109000 0
M  V30 19 C 8.101000 -21.329000 -29.556000 0 CFG=1
M  V30 20 C 11.657000 -24.534000 -29.802000 0
M  V30 21 C 13.024000 -25.673000 -28.157000 0
M  V30 22 C 14.121000 -25.648000 -27.164000 0
M  V30 23 C 15.527000 -24.428000 -25.582000 0
M  V30 24 C 16.117000 -25.653000 -25.170000 0
M  V30 25 H 6.970400 -19.859300 -28.736100 0
M  V30 26 H 8.011700 -20.551500 -27.685700 0
M  V30 27 H 18.122700 -24.443200 -22.786400 0
M  V30 28 H 17.213700 -22.433000 -23.568800 0
M  V30 29 H 9.122700 -24.268800 -28.676300 0
M  V30 30 H 8.702400 -23.928500 -30.217100 0
M  V30 31 H 9.686500 -21.308200 -30.921100 0
M  V30 32 H 10.069300 -20.622500 -29.489400 0
M  V30 33 H 11.914500 -22.577800 -30.397300 0
M  V30 34 H 10.765200 -23.366900 -31.247700 0
M  V30 35 H 10.746000 -27.697100 -29.470900 0
M  V30 36 H 15.574600 -22.347600 -25.243200 0
M  V30 37 H 7.877200 -22.524500 -27.837300 0
M  V30 38 H 6.931000 -23.012300 -29.075600 0
M  V30 39 H 10.229500 -25.732200 -30.709700 0
M  V30 40 H 12.493300 -27.662500 -27.854400 0
M  V30 41 H 14.474700 -27.694500 -27.206200 0
M  V30 42 H 16.118000 -27.715800 -25.539500 0
M  V30 43 H 13.247700 -23.706200 -28.769300 0
M  V30 44 H 14.096800 -23.601600 -26.870000 0
M  V30 45 H 7.523800 -21.234000 -30.367000 0
M  V30 46 H 8.562000 -19.501500 -28.808800 0
M  V30 47 H 10.509500 -22.524500 -28.548200 0
M  V30 END ATOM
M  V30 BEGIN BOND
M  V30 1 2 1 18
M  V30 2 1 2 19
M  V30 3 1 3 5
M  V30 4 1 3 18
M  V30 5 1 4 6
M  V30 6 1 4 7
M  V30 7 1 4 8
M  V30 8 2 5 10
M  V30 9 1 6 11
M  V30 10 1 7 19
M  V30 11 1 8 20
M  V30 12 2 9 12
M  V30 13 1 9 13
M  V30 14 1 10 23
M  V30 15 1 11 19
M  V30 16 1 12 20
M  V30 17 2 13 21
M  V30 18 1 14 15
M  V30 19 2 14 22
M  V30 20 2 15 24
M  V30 21 2 16 20
M  V30 22 1 16 21
M  V30 23 1 17 22
M  V30 24 2 17 23
M  V30 25 1 18 24
M  V30 26 1 21 22
M  V30 27 1 23 24
M  V30 28 1 2 25 CFG=1
M  V30 29 1 2 26
M  V30 30 1 3 27
M  V30 31 1 5 28
M  V30 32 1 6 29 CFG=1
M  V30 33 1 6 30
M  V30 34 1 7 31 CFG=3
M  V30 35 1 7 32
M  V30 36 1 8 33 CFG=3
M  V30 37 1 8 34
M  V30 38 1 9 35
M  V30 39 1 10 36
M  V30 40 1 11 37 CFG=1
M  V30 41 1 11 38
M  V30 42 1 12 39
M  V30 43 1 13 40
M  V30 44 1 14 41
M  V30 45 1 15 42
M  V30 46 1 16 43
M  V30 47 1 17 44
M  V30 48 1 19 45 CFG=3
M  V30 49 1 2 46
M  V30 50 1 4 47 CFG=1
M  V30 END BOND
M  V30 END CTAB
M  END
>  <Ligand_Instance>  (109) 
7PIH_7QW_A_401

>  <Dataset>  (109) 
PDB

>  <PDB_ID>  (109) 
7PIH

>  <Chain>  (109) 
A

>  <Resi>  (109) 
401

>  <Num_Resolved_Atoms>  (109) 
24

>  <Num_H_Atoms_ProtBoundConf>  (109) 
23

>  <Pocket>  (109) 
A

>  <SMILES>  (109) 
c1cc(cc(c1)c2ccc3c(c2)ccnc3O)CN4CCC(C4)N

>  <Name>  (109) 
6-[3-[[(3~{R})-3-azanylpyrrolidin-1-yl]methyl]phenyl]-4~{H}-isoquinolin-1-one

>  <Num_Heavy_Atoms>  (109) 
24

>  <Num_Not_Resolved_Atoms>  (109) 
0

>  <ATP_Site>  (109) 
True

>  <Peripheral>  (109) 
False

>  <Standardized_SMILES>  (109) 
[H]C1=C([H])C(C([H])([H])[N@+]2([H])C([H])([H])C([H])([H])[C@@]([H])([N+]([H])([H])[H])C2([H])[H])=C([H])C(C2=C([H])C([H])=C3C(=O)N([H])C([H])=C([H])C3=C2[H])=C1[H]

$$$$
7W8
     RDKit          3D

  0  0  0  0  0  0  0  0  0  0999 V3000
M  V30 BEGIN CTAB
M  V30 COUNTS 32 34 0 0 0
M  V30 BEGIN ATOM
M  V30 1 F -5.067000 9.173000 -8.935000 0
M  V30 2 N -12.711000 9.505000 -6.985000 0
M  V30 3 N -12.274000 13.393000 -7.186000 0
M  V30 4 N -9.867000 13.309000 -7.488000 0
M  V30 5 C -2.499000 13.824000 -7.077000 0 CFG=1
M  V30 6 C -11.959000 10.353000 -7.082000 0
M  V30 7 C -3.101000 10.382000 -8.563000 0
M  V30 8 C -2.466000 11.521000 -8.098000 0
M  V30 9 C -7.386000 9.992000 -7.529000 0
M  V30 10 C -8.758000 9.911000 -7.351000 0
M  V30 11 C -7.502000 12.395000 -7.705000 0
M  V30 12 C -4.560000 12.395000 -7.354000 0
M  V30 13 C -11.104000 12.719000 -7.286000 0
M  V30 14 C -4.466000 10.286000 -8.430000 0
M  V30 15 C -8.888000 12.305000 -7.532000 0
M  V30 16 C -3.182000 12.545000 -7.499000 0
M  V30 17 C -6.736000 11.219000 -7.700000 0
M  V30 18 C -10.936000 11.346000 -7.193000 0
M  V30 19 C -5.246000 11.274000 -7.828000 0
M  V30 20 C -9.529000 11.067000 -7.350000 0
M  V30 21 H -13.127900 12.893500 -7.039700 0
M  V30 22 H -12.284300 14.390300 -7.258400 0
M  V30 23 H -9.699300 14.289900 -7.586400 0
M  V30 24 H -3.170600 14.440800 -6.666500 0
M  V30 25 H -1.785200 13.615800 -6.408300 0
M  V30 26 H -2.088900 14.262400 -7.876700 0
M  V30 27 H -2.577000 9.643500 -8.987300 0
M  V30 28 H -1.474500 11.606100 -8.196000 0
M  V30 29 H -6.845900 9.150400 -7.535400 0
M  V30 30 H -9.193500 9.019900 -7.223200 0
M  V30 31 H -7.063600 13.285000 -7.830400 0
M  V30 32 H -5.077000 13.116600 -6.893500 0
M  V30 END ATOM
M  V30 BEGIN BOND
M  V30 1 1 1 14
M  V30 2 3 2 6
M  V30 3 1 3 13
M  V30 4 1 4 13
M  V30 5 1 4 15
M  V30 6 1 5 16
M  V30 7 1 6 18
M  V30 8 1 7 8
M  V30 9 2 7 14
M  V30 10 2 8 16
M  V30 11 1 9 10
M  V30 12 2 9 17
M  V30 13 2 10 20
M  V30 14 2 11 15
M  V30 15 1 11 17
M  V30 16 1 12 16
M  V30 17 2 12 19
M  V30 18 2 13 18
M  V30 19 1 14 19
M  V30 20 1 15 20
M  V30 21 1 17 19
M  V30 22 1 18 20
M  V30 23 1 3 21
M  V30 24 1 3 22
M  V30 25 1 4 23
M  V30 26 1 5 24 CFG=1
M  V30 27 1 5 25
M  V30 28 1 5 26
M  V30 29 1 7 27
M  V30 30 1 8 28
M  V30 31 1 9 29
M  V30 32 1 10 30
M  V30 33 1 11 31
M  V30 34 1 12 32
M  V30 END BOND
M  V30 END CTAB
M  END
>  <Ligand_Instance>  (110) 
7PNS_7W8_A_402

>  <Dataset>  (110) 
PDB

>  <PDB_ID>  (110) 
7PNS

>  <Chain>  (110) 
A

>  <Resi>  (110) 
402

>  <Num_Resolved_Atoms>  (110) 
20

>  <Num_H_Atoms_ProtBoundConf>  (110) 
12

>  <Pocket>  (110) 
A

>  <SMILES>  (110) 
CN(C)Cc1ccc(c(c1)c2ccc3c(c2)[nH]c(c3C#N)N)F

>  <Name>  (110) 
2-azanyl-6-[5-[(dimethylamino)methyl]-2-fluoranyl-phenyl]-1H-indole-3-carbonitrile

>  <Num_Heavy_Atoms>  (110) 
23

>  <Num_Not_Resolved_Atoms>  (110) 
3

>  <ATP_Site>  (110) 
True

>  <Peripheral>  (110) 
False

>  <Standardized_SMILES>  (110) 
[H]C1=C(F)C(C2=C([H])C([H])=C3C(C#N)=C(N([H])[H])N([H])C3=C2[H])=C([H])C(C([H])([H])[H])=C1[H]

$$$$
8BQ
     RDKit          3D

  0  0  0  0  0  0  0  0  0  0999 V3000
M  V30 BEGIN CTAB
M  V30 COUNTS 39 42 0 0 0
M  V30 BEGIN ATOM
M  V30 1 F -23.342000 10.837000 -1.707000 0
M  V30 2 O -32.977000 10.260000 4.596000 0
M  V30 3 O -25.476000 11.632000 3.778000 0
M  V30 4 N -25.099000 7.353000 3.161000 0
M  V30 5 N -32.943000 9.973000 2.337000 0
M  V30 6 N -30.774000 9.507000 1.197000 0
M  V30 7 C -32.200000 9.710000 1.132000 0
M  V30 8 C -23.169000 13.488000 0.689000 0
M  V30 9 C -24.498000 8.417000 2.692000 0
M  V30 10 C -26.511000 7.813000 3.733000 0 CFG=2
M  V30 11 C -22.988000 12.742000 -0.511000 0
M  V30 12 C -23.872000 12.905000 1.750000 0
M  V30 13 C -28.763000 9.711000 4.961000 0
M  V30 14 C -30.119000 9.898000 4.909000 0
M  V30 15 C -24.218000 10.919000 0.474000 0
M  V30 16 C -28.709000 9.385000 2.546000 0
M  V30 17 C -23.494000 11.522000 -0.612000 0
M  V30 18 C -32.314000 10.041000 3.580000 0
M  V30 19 C -25.170000 10.969000 2.757000 0
M  V30 20 C -30.116000 9.577000 2.490000 0
M  V30 21 C -24.388000 11.622000 1.627000 0
M  V30 22 C -28.053000 9.439000 3.746000 0
M  V30 23 C -30.815000 9.834000 3.654000 0
M  V30 24 C -25.639000 9.517000 2.579000 0 CFG=2
M  V30 25 C -26.509000 9.180000 3.748000 0 CFG=2
M  V30 26 H -33.932000 10.109900 2.281400 0
M  V30 27 H -32.672200 9.668200 0.251500 0
M  V30 28 H -22.799700 14.413600 0.772200 0
M  V30 29 H -23.531300 8.516000 2.456200 0
M  V30 30 H -26.638000 7.459400 4.659700 0
M  V30 31 H -27.246200 7.476900 3.144300 0
M  V30 32 H -22.480000 13.138500 -1.275600 0
M  V30 33 H -24.003100 13.414900 2.600200 0
M  V30 34 H -28.276100 9.763400 5.832900 0
M  V30 35 H -30.627800 10.080300 5.750300 0
M  V30 36 H -24.591500 9.995800 0.383500 0
M  V30 37 H -28.196300 9.209800 1.705500 0
M  V30 38 H -26.144600 9.413000 1.722500 0
M  V30 39 H -26.100100 9.518400 4.595500 0
M  V30 END ATOM
M  V30 BEGIN BOND
M  V30 1 1 1 17
M  V30 2 2 2 18
M  V30 3 2 3 19
M  V30 4 2 4 9
M  V30 5 1 4 10
M  V30 6 1 5 7
M  V30 7 1 5 18
M  V30 8 2 6 7
M  V30 9 1 6 20
M  V30 10 2 8 11
M  V30 11 1 8 12
M  V30 12 1 9 24
M  V30 13 1 10 25
M  V30 14 1 11 17
M  V30 15 2 12 21
M  V30 16 1 13 14
M  V30 17 2 13 22
M  V30 18 2 14 23
M  V30 19 2 15 17
M  V30 20 1 15 21
M  V30 21 2 16 20
M  V30 22 1 16 22
M  V30 23 1 18 23
M  V30 24 1 19 21
M  V30 25 1 19 24
M  V30 26 1 20 23
M  V30 27 1 22 25
M  V30 28 1 24 25
M  V30 29 1 5 26
M  V30 30 1 7 27
M  V30 31 1 8 28
M  V30 32 1 9 29
M  V30 33 1 10 30 CFG=1
M  V30 34 1 10 31
M  V30 35 1 11 32
M  V30 36 1 12 33
M  V30 37 1 13 34
M  V30 38 1 14 35
M  V30 39 1 15 36
M  V30 40 1 16 37
M  V30 41 1 24 38 CFG=3
M  V30 42 1 25 39 CFG=1
M  V30 END BOND
M  V30 END CTAB
M  END
>  <Ligand_Instance>  (111) 
4UJB_8BQ_A_1351

>  <Dataset>  (111) 
PDB

>  <PDB_ID>  (111) 
4UJB

>  <Chain>  (111) 
A

>  <Resi>  (111) 
1351

>  <Num_Resolved_Atoms>  (111) 
25

>  <Num_H_Atoms_ProtBoundConf>  (111) 
14

>  <Pocket>  (111) 
A

>  <SMILES>  (111) 
c1cc(cc(c1)F)C(=O)[C@H]2CNC[C@@H]2c3ccc4c(c3)N=CNC4=O

>  <Name>  (111) 
7-[(3S,4R)-4-(3-fluorophenyl)carbonylpyrrolidin-3-yl]-3H-quinazolin-4-one

>  <Num_Heavy_Atoms>  (111) 
25

>  <Num_Not_Resolved_Atoms>  (111) 
0

>  <ATP_Site>  (111) 
True

>  <Peripheral>  (111) 
False

>  <Standardized_SMILES>  (111) 
[H]C1=NC2=C([H])C([C@@]3([H])C([H])([H])N=C([H])[C@]3([H])C(=O)C3=C([H])C([H])=C([H])C(F)=C3[H])=C([H])C([H])=C2C(=O)N1[H]

$$$$
8ET
     RDKit          3D

  0  0  0  0  0  0  0  0  0  0999 V3000
M  V30 BEGIN CTAB
M  V30 COUNTS 30 32 0 0 0
M  V30 BEGIN ATOM
M  V30 1 O -12.877000 7.093000 -30.724000 0
M  V30 2 N -16.969000 7.367000 -31.276000 0
M  V30 3 N -9.697000 1.714000 -28.518000 0
M  V30 4 N -13.062000 5.051000 -29.685000 0
M  V30 5 C -17.701000 6.260000 -31.101000 0
M  V30 6 C -10.554000 0.763000 -28.850000 0
M  V30 7 C -15.671000 7.301000 -30.968000 0
M  V30 8 C -17.179000 5.073000 -30.632000 0
M  V30 9 C -11.819000 0.991000 -29.377000 0
M  V30 10 C -9.550000 5.322000 -28.560000 0
M  V30 11 C -9.199000 4.024000 -28.374000 0
M  V30 12 C -10.801000 5.675000 -29.034000 0
M  V30 13 C -15.833000 5.024000 -30.335000 0
M  V30 14 C -12.233000 2.271000 -29.555000 0
M  V30 15 C -13.563000 6.149000 -30.316000 0
M  V30 16 C -10.093000 3.000000 -28.713000 0
M  V30 17 C -11.722000 4.715000 -29.336000 0
M  V30 18 C -15.045000 6.152000 -30.508000 0
M  V30 19 C -11.375000 3.334000 -29.221000 0
M  V30 20 H -13.745900 4.369700 -29.424100 0
M  V30 21 H -18.675700 6.295700 -31.321600 0
M  V30 22 H -10.271700 -0.186400 -28.712100 0
M  V30 23 H -15.118700 8.127700 -31.075300 0
M  V30 24 H -17.761000 4.268900 -30.510400 0
M  V30 25 H -12.414100 0.225300 -29.620900 0
M  V30 26 H -8.887800 6.041100 -28.349200 0
M  V30 27 H -8.301600 3.798500 -27.994700 0
M  V30 28 H -11.031600 6.640400 -29.156000 0
M  V30 29 H -15.425800 4.176200 -29.995300 0
M  V30 30 H -13.144300 2.457600 -29.922100 0
M  V30 END ATOM
M  V30 BEGIN BOND
M  V30 1 2 1 15
M  V30 2 2 2 5
M  V30 3 1 2 7
M  V30 4 1 3 6
M  V30 5 2 3 16
M  V30 6 1 4 15
M  V30 7 1 4 17
M  V30 8 1 5 8
M  V30 9 2 6 9
M  V30 10 2 7 18
M  V30 11 2 8 13
M  V30 12 1 9 14
M  V30 13 2 10 11
M  V30 14 1 10 12
M  V30 15 1 11 16
M  V30 16 2 12 17
M  V30 17 1 13 18
M  V30 18 2 14 19
M  V30 19 1 15 18
M  V30 20 1 16 19
M  V30 21 1 17 19
M  V30 22 1 4 20
M  V30 23 1 5 21
M  V30 24 1 6 22
M  V30 25 1 7 23
M  V30 26 1 8 24
M  V30 27 1 9 25
M  V30 28 1 10 26
M  V30 29 1 11 27
M  V30 30 1 12 28
M  V30 31 1 13 29
M  V30 32 1 14 30
M  V30 END BOND
M  V30 END CTAB
M  END
>  <Ligand_Instance>  (112) 
5N1F_8ET_A_403

>  <Dataset>  (112) 
PDB

>  <PDB_ID>  (112) 
5N1F

>  <Chain>  (112) 
A

>  <Resi>  (112) 
403

>  <Num_Resolved_Atoms>  (112) 
19

>  <Num_H_Atoms_ProtBoundConf>  (112) 
11

>  <Pocket>  (112) 
A

>  <SMILES>  (112) 
c1cc2c(cccn2)c(c1)NC(=O)c3cccnc3

>  <Name>  (112) 
~{N}-quinolin-5-ylpyridine-3-carboxamide

>  <Num_Heavy_Atoms>  (112) 
19

>  <Num_Not_Resolved_Atoms>  (112) 
0

>  <ATP_Site>  (112) 
True

>  <Peripheral>  (112) 
False

>  <Standardized_SMILES>  (112) 
[H]C1=NC([H])=C(C(=O)N([H])C2=C([H])C([H])=C([H])C3=NC([H])=C([H])C([H])=C32)C([H])=C1[H]

$$$$
8FZ
     RDKit          3D

  0  0  0  0  0  0  0  0  0  0999 V3000
M  V30 BEGIN CTAB
M  V30 COUNTS 25 26 0 0 0
M  V30 BEGIN ATOM
M  V30 1 O 13.232000 99.106000 26.097000 0
M  V30 2 O 15.121000 100.423000 26.107000 0
M  V30 3 N 11.138000 96.651000 26.767000 0 CFG=1 CHG=1
M  V30 4 N 17.365000 99.595000 23.383000 0
M  V30 5 C 11.036000 98.030000 26.277000 0 CFG=2
M  V30 6 C 17.386000 98.255000 23.491000 0
M  V30 7 C 16.671000 97.560000 24.441000 0
M  V30 8 C 16.605000 100.264000 24.246000 0
M  V30 9 C 15.878000 98.269000 25.319000 0
M  V30 10 C 13.516000 100.171000 28.009000 0
M  V30 11 C 12.275000 99.492000 28.057000 0
M  V30 12 C 14.045000 99.919000 26.776000 0
M  V30 13 C 12.122000 98.877000 26.880000 0
M  V30 14 C 15.859000 99.630000 25.230000 0
M  V30 15 H 10.593400 96.552000 27.599800 0
M  V30 16 H 10.795700 96.022800 26.068300 0
M  V30 17 H 10.144700 98.405700 26.530900 0
M  V30 18 H 11.128200 98.034400 25.281300 0
M  V30 19 H 17.949900 97.736200 22.848400 0
M  V30 20 H 16.725600 96.562900 24.493100 0
M  V30 21 H 16.569800 101.261400 24.183400 0
M  V30 22 H 15.328200 97.794900 26.006800 0
M  V30 23 H 13.924200 100.725300 28.734300 0
M  V30 24 H 11.634700 99.475500 28.825000 0
M  V30 25 H 12.094400 96.438200 26.966900 0
M  V30 END ATOM
M  V30 BEGIN BOND
M  V30 1 1 1 12
M  V30 2 1 1 13
M  V30 3 1 2 12
M  V30 4 1 2 14
M  V30 5 1 3 5
M  V30 6 2 4 6
M  V30 7 1 4 8
M  V30 8 1 5 13
M  V30 9 1 6 7
M  V30 10 2 7 9
M  V30 11 2 8 14
M  V30 12 1 9 14
M  V30 13 1 10 11
M  V30 14 2 10 12
M  V30 15 2 11 13
M  V30 16 1 3 15 CFG=1
M  V30 17 1 3 16
M  V30 18 1 5 17 CFG=3
M  V30 19 1 5 18
M  V30 20 1 6 19
M  V30 21 1 7 20
M  V30 22 1 8 21
M  V30 23 1 9 22
M  V30 24 1 10 23
M  V30 25 1 11 24
M  V30 26 1 3 25
M  V30 END BOND
M  V30 END CTAB
M  END
>  <Ligand_Instance>  (113) 
5N1D_8FZ_A_403

>  <Dataset>  (113) 
PDB

>  <PDB_ID>  (113) 
5N1D

>  <Chain>  (113) 
A

>  <Resi>  (113) 
403

>  <Num_Resolved_Atoms>  (113) 
14

>  <Num_H_Atoms_ProtBoundConf>  (113) 
11

>  <Pocket>  (113) 
A

>  <SMILES>  (113) 
c1cc(cnc1)Oc2ccc(o2)CN

>  <Name>  (113) 
(5-pyridin-3-yloxyfuran-2-yl)methanamine

>  <Num_Heavy_Atoms>  (113) 
14

>  <Num_Not_Resolved_Atoms>  (113) 
0

>  <ATP_Site>  (113) 
True

>  <Peripheral>  (113) 
False

>  <Standardized_SMILES>  (113) 
[H]C1=NC([H])=C(OC2=C([H])C([H])=C(C([H])([H])[N+]([H])([H])[H])O2)C([H])=C1[H]

$$$$
8G2
     RDKit          3D

  0  0  0  0  0  0  0  0  0  0999 V3000
M  V30 BEGIN CTAB
M  V30 COUNTS 24 24 0 0 0
M  V30 BEGIN ATOM
M  V30 1 O -9.771000 2.342000 -28.673000 0
M  V30 2 O -10.635000 4.406000 -28.770000 0
M  V30 3 N -16.477000 0.225000 -29.730000 0 CFG=1 CHG=1
M  V30 4 C -9.402000 4.933000 -28.238000 0 CFG=1
M  V30 5 C -15.960000 1.342000 -30.562000 0 CFG=2
M  V30 6 C -14.316000 3.136000 -29.934000 0
M  V30 7 C -13.575000 0.875000 -29.923000 0
M  V30 8 C -13.056000 3.555000 -29.546000 0
M  V30 9 C -12.313000 1.285000 -29.534000 0
M  V30 10 C -10.697000 3.083000 -28.904000 0
M  V30 11 C -14.592000 1.793000 -30.130000 0
M  V30 12 C -12.037000 2.632000 -29.339000 0
M  V30 13 H -16.984500 0.595900 -28.952300 0
M  V30 14 H -17.083500 -0.348100 -30.281100 0
M  V30 15 H -9.463000 5.929400 -28.179700 0
M  V30 16 H -9.243900 4.554800 -27.325900 0
M  V30 17 H -8.644300 4.680100 -28.839600 0
M  V30 18 H -16.590600 2.114800 -30.489800 0
M  V30 19 H -15.912400 1.038300 -31.513600 0
M  V30 20 H -15.038400 3.812900 -30.075100 0
M  V30 21 H -13.756500 -0.099200 -30.057000 0
M  V30 22 H -12.876600 4.529800 -29.413300 0
M  V30 23 H -11.593000 0.605800 -29.391900 0
M  V30 24 H -15.711000 -0.324600 -29.396600 0
M  V30 END ATOM
M  V30 BEGIN BOND
M  V30 1 2 1 10
M  V30 2 1 2 4
M  V30 3 1 2 10
M  V30 4 1 3 5
M  V30 5 1 5 11
M  V30 6 1 6 8
M  V30 7 2 6 11
M  V30 8 2 7 9
M  V30 9 1 7 11
M  V30 10 2 8 12
M  V30 11 1 9 12
M  V30 12 1 10 12
M  V30 13 1 3 13 CFG=1
M  V30 14 1 3 14
M  V30 15 1 4 15 CFG=1
M  V30 16 1 4 16
M  V30 17 1 4 17
M  V30 18 1 5 18 CFG=3
M  V30 19 1 5 19
M  V30 20 1 6 20
M  V30 21 1 7 21
M  V30 22 1 8 22
M  V30 23 1 9 23
M  V30 24 1 3 24
M  V30 END BOND
M  V30 END CTAB
M  END
>  <Ligand_Instance>  (114) 
5N1H_8G2_A_403

>  <Dataset>  (114) 
PDB

>  <PDB_ID>  (114) 
5N1H

>  <Chain>  (114) 
A

>  <Resi>  (114) 
403

>  <Num_Resolved_Atoms>  (114) 
12

>  <Num_H_Atoms_ProtBoundConf>  (114) 
12

>  <Pocket>  (114) 
A

>  <SMILES>  (114) 
COC(=O)c1ccc(cc1)C[NH3+]

>  <Name>  (114) 
(4-methoxycarbonylphenyl)methylazanium

>  <Num_Heavy_Atoms>  (114) 
12

>  <Num_Not_Resolved_Atoms>  (114) 
0

>  <ATP_Site>  (114) 
True

>  <Peripheral>  (114) 
False

>  <Standardized_SMILES>  (114) 
[H]C1=C([H])C(C([H])([H])[N+]([H])([H])[H])=C([H])C([H])=C1C(=O)OC([H])([H])[H]

$$$$
8G5
     RDKit          3D

  0  0  0  0  0  0  0  0  0  0999 V3000
M  V30 BEGIN CTAB
M  V30 COUNTS 33 35 0 0 0
M  V30 BEGIN ATOM
M  V30 1 S 22.491000 19.551000 41.414000 0
M  V30 2 O 17.259000 16.049000 42.148000 0
M  V30 3 O 17.493000 17.280000 40.293000 0
M  V30 4 N 21.343000 19.408000 43.834000 0
M  V30 5 N 20.444000 18.135000 42.086000 0
M  V30 6 C 21.763000 18.529000 40.233000 0
M  V30 7 C 16.867000 18.661000 37.161000 0 CFG=2
M  V30 8 C 17.225000 19.460000 38.407000 0 CFG=2
M  V30 9 C 16.834000 17.184000 37.460000 0 CFG=2
M  V30 10 C 18.550000 19.000000 38.994000 0 CFG=2
M  V30 11 C 18.172000 16.715000 38.025000 0 CFG=2
M  V30 12 C 19.207000 15.788000 40.697000 0 CFG=2
M  V30 13 C 21.307000 18.997000 42.563000 0
M  V30 14 C 17.884000 16.293000 41.136000 0
M  V30 15 C 20.704000 17.869000 40.749000 0
M  V30 16 C 19.742000 17.016000 40.042000 0 CFG=2
M  V30 17 C 18.551000 17.507000 39.270000 0 CFG=2
M  V30 18 H 20.656800 19.082300 44.484400 0
M  V30 19 H 22.056100 20.041300 44.134700 0
M  V30 20 H 22.082600 18.436800 39.289900 0
M  V30 21 H 17.550200 18.836300 36.452200 0
M  V30 22 H 15.966700 18.949200 36.834800 0
M  V30 23 H 16.505500 19.337800 39.090700 0
M  V30 24 H 17.294000 20.427800 38.165100 0
M  V30 25 H 16.640700 16.683000 36.616400 0
M  V30 26 H 16.113500 17.001000 38.128900 0
M  V30 27 H 18.712200 19.488600 39.851300 0
M  V30 28 H 19.282400 19.210800 38.346500 0
M  V30 29 H 18.881000 16.839200 37.330800 0
M  V30 30 H 18.104300 15.746000 38.262700 0
M  V30 31 H 19.120000 15.029600 40.051000 0
M  V30 32 H 19.772100 15.503100 41.471300 0
M  V30 33 H 20.309500 16.628300 39.315600 0
M  V30 END ATOM
M  V30 BEGIN BOND
M  V30 1 1 1 6
M  V30 2 1 1 13
M  V30 3 2 2 14
M  V30 4 1 3 14
M  V30 5 1 17 3 CFG=1
M  V30 6 1 4 13
M  V30 7 2 5 13
M  V30 8 1 5 15
M  V30 9 2 6 15
M  V30 10 1 7 8
M  V30 11 1 7 9
M  V30 12 1 8 10
M  V30 13 1 9 11
M  V30 14 1 10 17
M  V30 15 1 11 17
M  V30 16 1 12 14
M  V30 17 1 12 16
M  V30 18 1 15 16
M  V30 19 1 16 17
M  V30 20 1 4 18
M  V30 21 1 4 19
M  V30 22 1 6 20
M  V30 23 1 7 21 CFG=3
M  V30 24 1 7 22
M  V30 25 1 8 23 CFG=1
M  V30 26 1 8 24
M  V30 27 1 9 25 CFG=3
M  V30 28 1 9 26
M  V30 29 1 10 27 CFG=1
M  V30 30 1 10 28
M  V30 31 1 11 29 CFG=3
M  V30 32 1 11 30
M  V30 33 1 12 31 CFG=3
M  V30 34 1 12 32
M  V30 35 1 16 33 CFG=3
M  V30 END BOND
M  V30 END CTAB
M  END
>  <Ligand_Instance>  (115) 
5N1G_8G5_A_403

>  <Dataset>  (115) 
PDB

>  <PDB_ID>  (115) 
5N1G

>  <Chain>  (115) 
A

>  <Resi>  (115) 
403

>  <Num_Resolved_Atoms>  (115) 
17

>  <Num_H_Atoms_ProtBoundConf>  (115) 
16

>  <Pocket>  (115) 
X

>  <SMILES>  (115) 
c1c(nc(s1)N)[C@H]2CC(=O)OC23CCCCC3

>  <Name>  (115) 
(4R)-4-(2-amino-1,3-thiazol-4-yl)-1-oxaspiro[4.5]decan-2-one

>  <Num_Heavy_Atoms>  (115) 
17

>  <Num_Not_Resolved_Atoms>  (115) 
0

>  <ATP_Site>  (115) 
False

>  <Peripheral>  (115) 
True

>  <Standardized_SMILES>  (115) 
[H]C1=C([C@@]2([H])C([H])([H])C(=O)OC23C([H])([H])C([H])([H])C([H])([H])C([H])([H])C3([H])[H])N=C(N([H])[H])S1

$$$$
8G8
     RDKit          3D

  0  0  0  0  0  0  0  0  0  0999 V3000
M  V30 BEGIN CTAB
M  V30 COUNTS 16 17 0 0 0
M  V30 BEGIN ATOM
M  V30 1 Cl -4.662000 36.810000 -15.034000 0
M  V30 2 N -6.136000 38.763000 -14.219000 0
M  V30 3 N -6.278000 40.326000 -10.782000 0
M  V30 4 N -4.616000 37.780000 -12.656000 0
M  V30 5 N -4.631000 38.830000 -10.475000 0
M  V30 6 C -3.512000 38.102000 -9.840000 0 CFG=1
M  V30 7 C -5.402000 39.828000 -9.945000 0
M  V30 8 C -6.559000 39.587000 -13.253000 0
M  V30 9 C -5.201000 37.919000 -13.828000 0
M  V30 10 C -5.071000 38.663000 -11.769000 0
M  V30 11 C -6.074000 39.609000 -11.958000 0
M  V30 12 H -3.146000 37.428000 -10.481700 0
M  V30 13 H -2.792200 38.749600 -9.590100 0
M  V30 14 H -3.840900 37.635900 -9.018700 0
M  V30 15 H -5.305500 40.148700 -9.002800 0
M  V30 16 H -7.282000 40.237400 -13.485700 0
M  V30 END ATOM
M  V30 BEGIN BOND
M  V30 1 1 1 9
M  V30 2 2 2 8
M  V30 3 1 2 9
M  V30 4 2 3 7
M  V30 5 1 3 11
M  V30 6 2 4 9
M  V30 7 1 4 10
M  V30 8 1 5 6
M  V30 9 1 5 7
M  V30 10 1 5 10
M  V30 11 1 8 11
M  V30 12 2 10 11
M  V30 13 1 6 12 CFG=3
M  V30 14 1 6 13
M  V30 15 1 6 14
M  V30 16 1 7 15
M  V30 17 1 8 16
M  V30 END BOND
M  V30 END CTAB
M  END
>  <Ligand_Instance>  (116) 
5N1N_8G8_A_402

>  <Dataset>  (116) 
PDB

>  <PDB_ID>  (116) 
5N1N

>  <Chain>  (116) 
A

>  <Resi>  (116) 
402

>  <Num_Resolved_Atoms>  (116) 
11

>  <Num_H_Atoms_ProtBoundConf>  (116) 
5

>  <Pocket>  (116) 
X

>  <SMILES>  (116) 
Cn1cnc2c1nc(nc2)Cl

>  <Name>  (116) 
2-chloranyl-9-methyl-purine

>  <Num_Heavy_Atoms>  (116) 
11

>  <Num_Not_Resolved_Atoms>  (116) 
0

>  <ATP_Site>  (116) 
False

>  <Peripheral>  (116) 
True

>  <Standardized_SMILES>  (116) 
[H]C1=NC(Cl)=NC2=C1N=C([H])N2C([H])([H])[H]

$$$$
8GB
     RDKit          3D

  0  0  0  0  0  0  0  0  0  0999 V3000
M  V30 BEGIN CTAB
M  V30 COUNTS 21 21 0 0 0
M  V30 BEGIN ATOM
M  V30 1 Cl -10.935000 26.956000 -25.908000 0
M  V30 2 Cl -13.338000 22.032000 -26.108000 0
M  V30 3 O -16.527000 26.511000 -22.923000 0
M  V30 4 O -14.843000 27.490000 -24.515000 0
M  V30 5 C -16.738000 24.189000 -22.501000 0 CFG=1
M  V30 6 C -12.666000 27.172000 -26.342000 0 CFG=2
M  V30 7 C -13.112000 24.736000 -26.152000 0
M  V30 8 C -14.793000 23.835000 -24.682000 0
M  V30 9 C -13.780000 23.659000 -25.607000 0
M  V30 10 C -16.147000 25.361000 -23.204000 0
M  V30 11 C -14.501000 26.227000 -24.883000 0
M  V30 12 C -13.473000 26.036000 -25.808000 0
M  V30 13 C -15.141000 25.128000 -24.285000 0
M  V30 14 H -15.578100 27.636200 -23.853000 0
M  V30 15 H -16.321500 23.348100 -22.846700 0
M  V30 16 H -16.565300 24.267300 -21.519200 0
M  V30 17 H -17.724100 24.164400 -22.665000 0
M  V30 18 H -12.756200 27.202900 -27.337400 0
M  V30 19 H -13.001000 28.028900 -25.950200 0
M  V30 20 H -12.364200 24.582100 -26.797800 0
M  V30 21 H -15.271700 23.044000 -24.301100 0
M  V30 END ATOM
M  V30 BEGIN BOND
M  V30 1 1 1 6
M  V30 2 1 2 9
M  V30 3 2 3 10
M  V30 4 1 4 11
M  V30 5 1 5 10
M  V30 6 1 6 12
M  V30 7 2 7 9
M  V30 8 1 7 12
M  V30 9 1 8 9
M  V30 10 2 8 13
M  V30 11 1 10 13
M  V30 12 2 11 12
M  V30 13 1 11 13
M  V30 14 1 4 14
M  V30 15 1 5 15 CFG=3
M  V30 16 1 5 16
M  V30 17 1 5 17
M  V30 18 1 6 18 CFG=3
M  V30 19 1 6 19
M  V30 20 1 7 20
M  V30 21 1 8 21
M  V30 END BOND
M  V30 END CTAB
M  END
>  <Ligand_Instance>  (117) 
5N1O_8GB_A_402

>  <Dataset>  (117) 
PDB

>  <PDB_ID>  (117) 
5N1O

>  <Chain>  (117) 
A

>  <Resi>  (117) 
402

>  <Num_Resolved_Atoms>  (117) 
13

>  <Num_H_Atoms_ProtBoundConf>  (117) 
8

>  <Pocket>  (117) 
A

>  <SMILES>  (117) 
CC(=O)c1cc(cc(c1O)CCl)Cl

>  <Name>  (117) 
1-[5-chloranyl-3-(chloromethyl)-2-oxidanyl-phenyl]ethanone

>  <Num_Heavy_Atoms>  (117) 
13

>  <Num_Not_Resolved_Atoms>  (117) 
0

>  <ATP_Site>  (117) 
True

>  <Peripheral>  (117) 
False

>  <Standardized_SMILES>  (117) 
[H]OC1=C(C([H])([H])Cl)C([H])=C(Cl)C([H])=C1C(=O)C([H])([H])[H]

$$$$
8JT
     RDKit          3D

  0  0  0  0  0  0  0  0  0  0999 V3000
M  V30 BEGIN CTAB
M  V30 COUNTS 34 36 0 0 0
M  V30 BEGIN ATOM
M  V30 1 O -12.231000 20.359000 -31.999000 0
M  V30 2 O -12.925000 22.536000 -32.340000 0
M  V30 3 N -10.231000 24.528000 -27.549000 0 CFG=2 CHG=1
M  V30 4 C -13.047000 21.195000 -32.814000 0 CFG=2
M  V30 5 C -9.794000 24.413000 -28.974000 0 CFG=2
M  V30 6 C -12.750000 27.019000 -26.796000 0 CFG=2
M  V30 7 C -12.217000 26.488000 -25.601000 0 CFG=2
M  V30 8 C -10.533000 20.916000 -30.267000 0
M  V30 9 C -12.037000 26.268000 -27.898000 0 CFG=2
M  V30 10 C -12.065000 24.997000 -25.878000 0 CFG=2
M  V30 11 C -10.002000 21.962000 -29.528000 0
M  V30 12 C -11.441000 23.531000 -30.635000 0
M  V30 13 C -11.508000 21.218000 -31.197000 0
M  V30 14 C -11.955000 22.495000 -31.366000 0
M  V30 15 C -11.681000 24.890000 -27.351000 0 CFG=2
M  V30 16 C -10.442000 23.271000 -29.705000 0
M  V30 17 H -9.673300 25.232400 -27.110000 0
M  V30 18 H -14.000600 20.900000 -32.753500 0
M  V30 19 H -12.741600 21.142900 -33.764800 0
M  V30 20 H -8.803100 24.279900 -28.992200 0
M  V30 21 H -10.024800 25.263700 -29.446200 0
M  V30 22 H -12.564900 27.999600 -26.860000 0
M  V30 23 H -13.736500 26.862200 -26.842900 0
M  V30 24 H -12.842000 26.643100 -24.836000 0
M  V30 25 H -11.329800 26.901300 -25.395700 0
M  V30 26 H -10.220800 19.975700 -30.131300 0
M  V30 27 H -11.205500 26.756500 -28.162400 0
M  V30 28 H -12.636700 26.176100 -28.692900 0
M  V30 29 H -12.927300 24.520500 -25.706600 0
M  V30 30 H -11.347800 24.606200 -25.301100 0
M  V30 31 H -9.288200 21.772300 -28.853900 0
M  V30 32 H -11.779600 24.462400 -30.768200 0
M  V30 33 H -12.256100 24.201300 -27.792500 0
M  V30 34 H -10.067900 23.647900 -27.103200 0
M  V30 END ATOM
M  V30 BEGIN BOND
M  V30 1 1 1 4
M  V30 2 1 1 13
M  V30 3 1 2 4
M  V30 4 1 2 14
M  V30 5 1 3 5
M  V30 6 1 3 15
M  V30 7 1 5 16
M  V30 8 1 6 7
M  V30 9 1 6 9
M  V30 10 1 7 10
M  V30 11 2 8 11
M  V30 12 1 8 13
M  V30 13 1 9 15
M  V30 14 1 10 15
M  V30 15 1 11 16
M  V30 16 1 12 14
M  V30 17 2 12 16
M  V30 18 2 13 14
M  V30 19 1 3 17 CFG=1
M  V30 20 1 4 18 CFG=3
M  V30 21 1 4 19
M  V30 22 1 5 20 CFG=1
M  V30 23 1 5 21
M  V30 24 1 6 22 CFG=3
M  V30 25 1 6 23
M  V30 26 1 7 24 CFG=1
M  V30 27 1 7 25
M  V30 28 1 8 26
M  V30 29 1 9 27 CFG=3
M  V30 30 1 9 28
M  V30 31 1 10 29 CFG=3
M  V30 32 1 10 30
M  V30 33 1 11 31
M  V30 34 1 12 32
M  V30 35 1 15 33 CFG=3
M  V30 36 1 3 34
M  V30 END BOND
M  V30 END CTAB
M  END
>  <Ligand_Instance>  (118) 
5N37_8JT_A_402

>  <Dataset>  (118) 
PDB

>  <PDB_ID>  (118) 
5N37

>  <Chain>  (118) 
A

>  <Resi>  (118) 
402

>  <Num_Resolved_Atoms>  (118) 
16

>  <Num_H_Atoms_ProtBoundConf>  (118) 
18

>  <Pocket>  (118) 
A

>  <SMILES>  (118) 
c1cc2c(cc1C[NH2+]C3CCCC3)OCO2

>  <Name>  (118) 
1,3-benzodioxol-5-ylmethyl(cyclopentyl)azanium

>  <Num_Heavy_Atoms>  (118) 
16

>  <Num_Not_Resolved_Atoms>  (118) 
0

>  <ATP_Site>  (118) 
True

>  <Peripheral>  (118) 
True

>  <Standardized_SMILES>  (118) 
[H]C1=C([H])C(C([H])([H])[N+]([H])([H])C2([H])C([H])([H])C([H])([H])C([H])([H])C2([H])[H])=C([H])C2=C1OC([H])([H])O2

$$$$
8JW
     RDKit          3D

  0  0  0  0  0  0  0  0  0  0999 V3000
M  V30 BEGIN CTAB
M  V30 COUNTS 17 17 0 0 0
M  V30 BEGIN ATOM
M  V30 1 F -14.852000 21.313000 -24.598000 0
M  V30 2 F -13.347000 22.451000 -25.524000 0
M  V30 3 F -15.166000 22.194000 -26.536000 0
M  V30 4 O -16.630000 26.991000 -23.004000 0
M  V30 5 N -14.836000 27.288000 -25.029000 0
M  V30 6 N -16.519000 24.710000 -23.105000 0
M  V30 7 C -16.041000 23.575000 -23.665000 0
M  V30 8 C -14.692000 24.879000 -25.182000 0
M  V30 9 C -16.154000 25.991000 -23.529000 0
M  V30 10 C -15.180000 26.037000 -24.634000 0
M  V30 11 C -15.157000 23.611000 -24.680000 0
M  V30 12 C -14.634000 22.393000 -25.338000 0 CFG=1
M  V30 13 H -15.238500 28.083700 -24.576300 0
M  V30 14 H -14.179900 27.414700 -25.772900 0
M  V30 15 H -17.167400 24.628300 -22.348100 0
M  V30 16 H -16.351000 22.690000 -23.317500 0
M  V30 17 H -14.020500 24.914000 -25.922200 0
M  V30 END ATOM
M  V30 BEGIN BOND
M  V30 1 1 12 1 CFG=1
M  V30 2 1 2 12
M  V30 3 1 3 12
M  V30 4 2 4 9
M  V30 5 1 5 10
M  V30 6 1 6 7
M  V30 7 1 6 9
M  V30 8 2 7 11
M  V30 9 2 8 10
M  V30 10 1 8 11
M  V30 11 1 9 10
M  V30 12 1 11 12
M  V30 13 1 5 13
M  V30 14 1 5 14
M  V30 15 1 6 15
M  V30 16 1 7 16
M  V30 17 1 8 17
M  V30 END BOND
M  V30 END CTAB
M  END
>  <Ligand_Instance>  (119) 
5N33_8JW_A_401

>  <Dataset>  (119) 
PDB

>  <PDB_ID>  (119) 
5N33

>  <Chain>  (119) 
A

>  <Resi>  (119) 
401

>  <Num_Resolved_Atoms>  (119) 
12

>  <Num_H_Atoms_ProtBoundConf>  (119) 
5

>  <Pocket>  (119) 
A

>  <SMILES>  (119) 
C1=C(C(=O)NC=C1C(F)(F)F)N

>  <Name>  (119) 
3-azanyl-5-(trifluoromethyl)-1~{H}-pyridin-2-one

>  <Num_Heavy_Atoms>  (119) 
12

>  <Num_Not_Resolved_Atoms>  (119) 
0

>  <ATP_Site>  (119) 
True

>  <Peripheral>  (119) 
False

>  <Standardized_SMILES>  (119) 
[H]C1=C(N([H])[H])C(=O)N([H])C([H])=C1C(F)(F)F

$$$$
8K2
     RDKit          3D

  0  0  0  0  0  0  0  0  0  0999 V3000
M  V30 BEGIN CTAB
M  V30 COUNTS 14 14 0 0 0
M  V30 BEGIN ATOM
M  V30 1 Cl 32.001000 18.020000 -15.527000 0
M  V30 2 S 30.877000 20.685000 -16.149000 0
M  V30 3 S 31.599000 23.728000 -16.462000 0 CFG=2
M  V30 4 O 30.478000 23.809000 -17.344000 0
M  V30 5 O 31.699000 24.572000 -15.316000 0
M  V30 6 N 32.926000 23.880000 -17.328000 0
M  V30 7 C 33.304000 20.425000 -15.331000 0
M  V30 8 C 33.112000 21.779000 -15.554000 0
M  V30 9 C 32.186000 19.716000 -15.616000 0
M  V30 10 C 31.871000 22.071000 -16.006000 0
M  V30 11 H 33.640300 24.304700 -16.771700 0
M  V30 12 H 33.231800 22.977300 -17.630600 0
M  V30 13 H 34.158400 20.023000 -15.001900 0
M  V30 14 H 33.818300 22.469300 -15.396900 0
M  V30 END ATOM
M  V30 BEGIN BOND
M  V30 1 1 1 9
M  V30 2 1 2 9
M  V30 3 1 2 10
M  V30 4 2 3 4
M  V30 5 2 3 5
M  V30 6 1 3 6 CFG=3
M  V30 7 1 3 10
M  V30 8 1 7 8
M  V30 9 2 7 9
M  V30 10 2 8 10
M  V30 11 1 6 11
M  V30 12 1 6 12
M  V30 13 1 7 13
M  V30 14 1 8 14
M  V30 END BOND
M  V30 END CTAB
M  END
>  <Ligand_Instance>  (120) 
5N3T_8K2_A_401

>  <Dataset>  (120) 
PDB

>  <PDB_ID>  (120) 
5N3T

>  <Chain>  (120) 
A

>  <Resi>  (120) 
401

>  <Num_Resolved_Atoms>  (120) 
10

>  <Num_H_Atoms_ProtBoundConf>  (120) 
4

>  <Pocket>  (120) 
F

>  <SMILES>  (120) 
c1cc(sc1S(=O)(=O)N)Cl

>  <Name>  (120) 
5-chloranylthiophene-2-sulfonamide

>  <Num_Heavy_Atoms>  (120) 
10

>  <Num_Not_Resolved_Atoms>  (120) 
0

>  <ATP_Site>  (120) 
False

>  <Peripheral>  (120) 
True

>  <Standardized_SMILES>  (120) 
[H]C1=C(Cl)SC(S(=O)(=O)N([H])[H])=C1[H]

$$$$
8K2
     RDKit          3D

  0  0  0  0  0  0  0  0  0  0999 V3000
M  V30 BEGIN CTAB
M  V30 COUNTS 14 14 0 0 0
M  V30 BEGIN ATOM
M  V30 1 Cl 27.001000 -18.899000 -18.830000 0
M  V30 2 S 26.841000 -19.598000 -15.947000 0
M  V30 3 S 28.329000 -19.989000 -13.305000 0 CFG=2
M  V30 4 O 29.490000 -19.351000 -12.776000 0
M  V30 5 O 27.039000 -19.732000 -12.748000 0
M  V30 6 N 28.583000 -21.557000 -13.304000 0
M  V30 7 C 29.107000 -19.116000 -17.078000 0
M  V30 8 C 29.384000 -19.358000 -15.728000 0
M  V30 9 C 27.779000 -19.200000 -17.334000 0
M  V30 10 C 28.261000 -19.632000 -15.007000 0
M  V30 11 H 27.712600 -22.035600 -13.188600 0
M  V30 12 H 28.999700 -21.827700 -14.171800 0
M  V30 13 H 29.801300 -18.907400 -17.766800 0
M  V30 14 H 30.303700 -19.332700 -15.336100 0
M  V30 END ATOM
M  V30 BEGIN BOND
M  V30 1 1 1 9
M  V30 2 1 2 9
M  V30 3 1 2 10
M  V30 4 2 3 4
M  V30 5 2 3 5
M  V30 6 1 3 6 CFG=3
M  V30 7 1 3 10
M  V30 8 1 7 8
M  V30 9 2 7 9
M  V30 10 2 8 10
M  V30 11 1 6 11
M  V30 12 1 6 12
M  V30 13 1 7 13
M  V30 14 1 8 14
M  V30 END BOND
M  V30 END CTAB
M  END
>  <Ligand_Instance>  (121) 
5N3T_8K2_A_402

>  <Dataset>  (121) 
PDB

>  <PDB_ID>  (121) 
5N3T

>  <Chain>  (121) 
A

>  <Resi>  (121) 
402

>  <Num_Resolved_Atoms>  (121) 
10

>  <Num_H_Atoms_ProtBoundConf>  (121) 
4

>  <Pocket>  (121) 
X

>  <SMILES>  (121) 
c1cc(sc1S(=O)(=O)N)Cl

>  <Name>  (121) 
5-chloranylthiophene-2-sulfonamide

>  <Num_Heavy_Atoms>  (121) 
10

>  <Num_Not_Resolved_Atoms>  (121) 
0

>  <ATP_Site>  (121) 
False

>  <Peripheral>  (121) 
True

>  <Standardized_SMILES>  (121) 
[H]C1=C(Cl)SC(S(=O)(=O)N([H])[H])=C1[H]

$$$$
8K5
     RDKit          3D

  0  0  0  0  0  0  0  0  0  0999 V3000
M  V30 BEGIN CTAB
M  V30 COUNTS 21 21 0 0 0
M  V30 BEGIN ATOM
M  V30 1 Cl -16.716000 24.785000 -22.801000 0
M  V30 2 S -11.736000 25.195000 -27.631000 0
M  V30 3 N -9.802000 25.504000 -25.853000 0
M  V30 4 N -10.062000 23.393000 -26.677000 0
M  V30 5 C -12.537000 26.572000 -26.743000 0 CFG=2
M  V30 6 C -15.386000 26.643000 -24.240000 0
M  V30 7 C -14.812000 24.355000 -24.667000 0
M  V30 8 C -14.414000 27.046000 -25.140000 0
M  V30 9 C -13.842000 24.773000 -25.562000 0
M  V30 10 C -10.421000 24.650000 -26.632000 0
M  V30 11 C -15.563000 25.299000 -24.007000 0
M  V30 12 C -13.624000 26.121000 -25.804000 0
M  V30 13 H -9.045100 25.196900 -25.276100 0
M  V30 14 H -10.086800 26.462400 -25.835800 0
M  V30 15 H -9.307300 23.067800 -26.107200 0
M  V30 16 H -12.936700 27.194300 -27.416100 0
M  V30 17 H -11.840600 27.056400 -26.213500 0
M  V30 18 H -15.950800 27.318900 -23.766500 0
M  V30 19 H -14.964300 23.380400 -24.502800 0
M  V30 20 H -14.279700 28.021600 -25.313900 0
M  V30 21 H -13.289400 24.091600 -26.041900 0
M  V30 END ATOM
M  V30 BEGIN BOND
M  V30 1 1 1 11
M  V30 2 1 2 5
M  V30 3 1 2 10
M  V30 4 1 3 10
M  V30 5 2 4 10
M  V30 6 1 5 12
M  V30 7 1 6 8
M  V30 8 2 6 11
M  V30 9 2 7 9
M  V30 10 1 7 11
M  V30 11 2 8 12
M  V30 12 1 9 12
M  V30 13 1 3 13
M  V30 14 1 3 14
M  V30 15 1 4 15
M  V30 16 1 5 16 CFG=3
M  V30 17 1 5 17
M  V30 18 1 6 18
M  V30 19 1 7 19
M  V30 20 1 8 20
M  V30 21 1 9 21
M  V30 END BOND
M  V30 END CTAB
M  END
>  <Ligand_Instance>  (122) 
5N32_8K5_A_401

>  <Dataset>  (122) 
PDB

>  <PDB_ID>  (122) 
5N32

>  <Chain>  (122) 
A

>  <Resi>  (122) 
401

>  <Num_Resolved_Atoms>  (122) 
12

>  <Num_H_Atoms_ProtBoundConf>  (122) 
9

>  <Pocket>  (122) 
A

>  <SMILES>  (122) 
c1cc(ccc1CSC(=[NH2+])N)Cl

>  <Name>  (122) 
[azanyl-[(4-chlorophenyl)methylsulfanyl]methylidene]azanium

>  <Num_Heavy_Atoms>  (122) 
12

>  <Num_Not_Resolved_Atoms>  (122) 
0

>  <ATP_Site>  (122) 
True

>  <Peripheral>  (122) 
True

>  <Standardized_SMILES>  (122) 
[H]/N=C(/SC([H])([H])C1=C([H])C([H])=C(Cl)C([H])=C1[H])N([H])[H]

$$$$
8K5
     RDKit          3D

  0  0  0  0  0  0  0  0  0  0999 V3000
M  V30 BEGIN CTAB
M  V30 COUNTS 21 21 0 0 0
M  V30 BEGIN ATOM
M  V30 1 Cl -4.608000 2.801000 -41.910000 0
M  V30 2 S -4.928000 4.158000 -35.079000 0
M  V30 3 N -3.300000 5.916000 -33.984000 0
M  V30 4 N -3.568000 6.108000 -36.242000 0
M  V30 5 C -6.204000 4.451000 -36.347000 0 CFG=2
M  V30 6 C -6.373000 3.645000 -40.047000 0
M  V30 7 C -4.158000 3.159000 -39.270000 0
M  V30 8 C -6.732000 4.022000 -38.766000 0
M  V30 9 C -4.532000 3.536000 -37.993000 0
M  V30 10 C -3.839000 5.512000 -35.104000 0
M  V30 11 C -5.084000 3.226000 -40.286000 0
M  V30 12 C -5.817000 3.983000 -37.725000 0
M  V30 13 H -2.671600 6.693900 -33.983600 0
M  V30 14 H -2.942000 6.887500 -36.261500 0
M  V30 15 H -6.386600 5.433300 -36.388300 0
M  V30 16 H -7.036000 3.968500 -36.073200 0
M  V30 17 H -7.041300 3.676400 -40.790200 0
M  V30 18 H -3.227300 2.842000 -39.452700 0
M  V30 19 H -7.667200 4.327900 -38.587400 0
M  V30 20 H -3.864300 3.485400 -37.250200 0
M  V30 21 H -3.987600 5.782400 -37.089300 0
M  V30 END ATOM
M  V30 BEGIN BOND
M  V30 1 1 1 11
M  V30 2 1 2 5
M  V30 3 1 2 10
M  V30 4 2 3 10
M  V30 5 1 4 10
M  V30 6 1 5 12
M  V30 7 1 6 8
M  V30 8 2 6 11
M  V30 9 2 7 9
M  V30 10 1 7 11
M  V30 11 2 8 12
M  V30 12 1 9 12
M  V30 13 1 9 20
M  V30 14 1 3 13
M  V30 15 1 4 14
M  V30 16 1 5 15 CFG=3
M  V30 17 1 5 16
M  V30 18 1 6 17
M  V30 19 1 7 18
M  V30 20 1 8 19
M  V30 21 1 4 21
M  V30 END BOND
M  V30 END CTAB
M  END
>  <Ligand_Instance>  (123) 
5N32_8K5_A_402

>  <Dataset>  (123) 
PDB

>  <PDB_ID>  (123) 
5N32

>  <Chain>  (123) 
A

>  <Resi>  (123) 
402

>  <Num_Resolved_Atoms>  (123) 
12

>  <Num_H_Atoms_ProtBoundConf>  (123) 
9

>  <Pocket>  (123) 
X

>  <SMILES>  (123) 
c1cc(ccc1CSC(=[NH2+])N)Cl

>  <Name>  (123) 
[azanyl-[(4-chlorophenyl)methylsulfanyl]methylidene]azanium

>  <Num_Heavy_Atoms>  (123) 
12

>  <Num_Not_Resolved_Atoms>  (123) 
0

>  <ATP_Site>  (123) 
True

>  <Peripheral>  (123) 
True

>  <Standardized_SMILES>  (123) 
[H]/N=C(/SC([H])([H])C1=C([H])C([H])=C(Cl)C([H])=C1[H])N([H])[H]

$$$$
8KB
     RDKit          3D

  0  0  0  0  0  0  0  0  0  0999 V3000
M  V30 BEGIN CTAB
M  V30 COUNTS 20 20 0 0 0
M  V30 BEGIN ATOM
M  V30 1 O -20.168000 10.106000 -31.515000 0
M  V30 2 O -23.331000 9.203000 -32.010000 0
M  V30 3 N -21.713000 8.909000 -29.486000 0 CFG=2 CHG=1
M  V30 4 C -22.825000 7.978000 -31.494000 0 CFG=2
M  V30 5 C -22.380000 10.183000 -32.427000 0 CFG=2
M  V30 6 C -22.719000 7.984000 -29.990000 0 CFG=2
M  V30 7 C -21.848000 10.312000 -29.876000 0 CFG=2
M  V30 8 C -21.465000 10.684000 -31.335000 0 CFG=1
M  V30 9 H -19.554800 10.432500 -30.795700 0
M  V30 10 H -20.821600 8.590500 -29.808300 0
M  V30 11 H -21.915700 7.819300 -31.878800 0
M  V30 12 H -23.437400 7.236900 -31.769200 0
M  V30 13 H -22.881400 10.965600 -32.795800 0
M  V30 14 H -21.814000 9.780600 -33.146600 0
M  V30 15 H -23.607000 8.243500 -29.610400 0
M  V30 16 H -22.482800 7.061400 -29.685000 0
M  V30 17 H -21.267200 10.850900 -29.265900 0
M  V30 18 H -22.804400 10.571000 -29.740800 0
M  V30 19 H -21.389300 11.678600 -31.406600 0
M  V30 20 H -21.739900 8.869400 -28.487100 0
M  V30 END ATOM
M  V30 BEGIN BOND
M  V30 1 1 1 8
M  V30 2 1 2 4
M  V30 3 1 2 5
M  V30 4 1 3 6
M  V30 5 1 3 7
M  V30 6 1 4 6
M  V30 7 1 5 8
M  V30 8 1 7 8
M  V30 9 1 1 9
M  V30 10 1 3 10 CFG=3
M  V30 11 1 4 11 CFG=3
M  V30 12 1 4 12
M  V30 13 1 5 13 CFG=3
M  V30 14 1 5 14
M  V30 15 1 6 15 CFG=1
M  V30 16 1 6 16
M  V30 17 1 7 17 CFG=1
M  V30 18 1 7 18
M  V30 19 1 8 19 CFG=1
M  V30 20 1 3 20
M  V30 END BOND
M  V30 END CTAB
M  END
>  <Ligand_Instance>  (124) 
5N3G_8KB_A_401

>  <Dataset>  (124) 
PDB

>  <PDB_ID>  (124) 
5N3G

>  <Chain>  (124) 
A

>  <Resi>  (124) 
401

>  <Num_Resolved_Atoms>  (124) 
8

>  <Num_H_Atoms_ProtBoundConf>  (124) 
12

>  <Pocket>  (124) 
B

>  <SMILES>  (124) 
C1COC[C@@H](CN1)O

>  <Name>  (124) 
(6~{R})-1,4-oxazepan-6-ol

>  <Num_Heavy_Atoms>  (124) 
8

>  <Num_Not_Resolved_Atoms>  (124) 
0

>  <ATP_Site>  (124) 
False

>  <Peripheral>  (124) 
True

>  <Standardized_SMILES>  (124) 
[H]O[C@@]1([H])C([H])([H])OC([H])([H])C([H])([H])[N+]([H])([H])C1([H])[H]

$$$$
8KB
     RDKit          3D

  0  0  0  0  0  0  0  0  0  0999 V3000
M  V30 BEGIN CTAB
M  V30 COUNTS 20 20 0 0 0
M  V30 BEGIN ATOM
M  V30 1 O -26.821000 24.660000 -34.892000 0
M  V30 2 O -27.665000 21.922000 -35.401000 0
M  V30 3 N -26.270000 22.786000 -32.996000 0 CFG=2 CHG=1
M  V30 4 C -27.547000 21.038000 -34.292000 0 CFG=2
M  V30 5 C -28.535000 23.038000 -35.224000 0 CFG=2
M  V30 6 C -26.371000 21.367000 -33.405000 0 CFG=2
M  V30 7 C -27.521000 23.539000 -32.926000 0 CFG=2
M  V30 8 C -27.988000 24.094000 -34.290000 0 CFG=1
M  V30 9 H -26.442400 25.362400 -34.289300 0
M  V30 10 H -25.673900 23.248900 -33.652000 0
M  V30 11 H -27.436400 20.105800 -34.636700 0
M  V30 12 H -28.383800 21.094900 -33.747500 0
M  V30 13 H -29.402000 22.706400 -34.852200 0
M  V30 14 H -28.694400 23.458600 -36.117100 0
M  V30 15 H -26.442100 20.810400 -32.577300 0
M  V30 16 H -25.534700 21.126400 -33.897600 0
M  V30 17 H -27.392300 24.307800 -32.299500 0
M  V30 18 H -28.233900 22.934700 -32.570100 0
M  V30 19 H -28.674300 24.807200 -34.147500 0
M  V30 20 H -25.850100 22.810800 -32.088800 0
M  V30 END ATOM
M  V30 BEGIN BOND
M  V30 1 1 1 8
M  V30 2 1 2 4
M  V30 3 1 2 5
M  V30 4 1 3 6
M  V30 5 1 3 7
M  V30 6 1 4 6
M  V30 7 1 5 8
M  V30 8 1 7 8
M  V30 9 1 1 9
M  V30 10 1 3 10 CFG=3
M  V30 11 1 4 11 CFG=3
M  V30 12 1 4 12
M  V30 13 1 5 13 CFG=1
M  V30 14 1 5 14
M  V30 15 1 6 15 CFG=1
M  V30 16 1 6 16
M  V30 17 1 7 17 CFG=1
M  V30 18 1 7 18
M  V30 19 1 8 19 CFG=1
M  V30 20 1 3 20
M  V30 END BOND
M  V30 END CTAB
M  END
>  <Ligand_Instance>  (125) 
5N3G_8KB_A_402

>  <Dataset>  (125) 
PDB

>  <PDB_ID>  (125) 
5N3G

>  <Chain>  (125) 
A

>  <Resi>  (125) 
402

>  <Num_Resolved_Atoms>  (125) 
8

>  <Num_H_Atoms_ProtBoundConf>  (125) 
12

>  <Pocket>  (125) 
X

>  <SMILES>  (125) 
C1COC[C@@H](CN1)O

>  <Name>  (125) 
(6~{R})-1,4-oxazepan-6-ol

>  <Num_Heavy_Atoms>  (125) 
8

>  <Num_Not_Resolved_Atoms>  (125) 
0

>  <ATP_Site>  (125) 
False

>  <Peripheral>  (125) 
True

>  <Standardized_SMILES>  (125) 
[H]O[C@@]1([H])C([H])([H])OC([H])([H])C([H])([H])[N+]([H])([H])C1([H])[H]

$$$$
8LZ
     RDKit          3D

  0  0  0  0  0  0  0  0  0  0999 V3000
M  V30 BEGIN CTAB
M  V30 COUNTS 31 33 0 0 0
M  V30 BEGIN ATOM
M  V30 1 O -16.153000 25.456000 -23.846000 0
M  V30 2 O -14.594000 23.141000 -24.533000 0
M  V30 3 N -10.225000 25.820000 -26.090000 0 CFG=2 CHG=1
M  V30 4 C -16.345000 24.212000 -23.123000 0 CFG=2
M  V30 5 C -15.928000 23.040000 -23.976000 0 CFG=2
M  V30 6 C -9.300000 24.798000 -26.695000 0 CFG=2
M  V30 7 C -9.733000 24.703000 -28.152000 0 CFG=2
M  V30 8 C -14.697000 26.766000 -25.185000 0
M  V30 9 C -11.221000 25.002000 -28.150000 0 CFG=2
M  V30 10 C -13.533000 26.898000 -25.929000 0
M  V30 11 C -13.085000 24.551000 -25.695000 0
M  V30 12 C -15.059000 25.521000 -24.683000 0
M  V30 13 C -14.260000 24.401000 -24.968000 0
M  V30 14 C -11.444000 25.984000 -26.990000 0 CFG=1
M  V30 15 C -12.708000 25.805000 -26.181000 0
M  V30 16 H -9.749000 26.695600 -26.008100 0
M  V30 17 H -17.310600 24.116800 -22.881200 0
M  V30 18 H -15.792500 24.226300 -22.289600 0
M  V30 19 H -15.968800 22.214700 -23.412800 0
M  V30 20 H -16.576400 22.959300 -24.733000 0
M  V30 21 H -9.402600 23.914500 -26.237900 0
M  V30 22 H -8.348800 25.099400 -26.628300 0
M  V30 23 H -9.561000 23.784900 -28.509000 0
M  V30 24 H -9.242000 25.374100 -28.707500 0
M  V30 25 H -15.273700 27.564100 -25.010400 0
M  V30 26 H -11.745300 24.163300 -28.002900 0
M  V30 27 H -11.494500 25.418300 -29.017100 0
M  V30 28 H -13.281800 27.795600 -26.291200 0
M  V30 29 H -12.505400 23.755400 -25.871400 0
M  V30 30 H -11.437700 26.913000 -27.360100 0
M  V30 31 H -10.516500 25.513100 -25.184000 0
M  V30 END ATOM
M  V30 BEGIN BOND
M  V30 1 1 1 4
M  V30 2 1 1 12
M  V30 3 1 2 5
M  V30 4 1 2 13
M  V30 5 1 3 6
M  V30 6 1 3 14
M  V30 7 1 4 5
M  V30 8 1 6 7
M  V30 9 1 7 9
M  V30 10 2 8 10
M  V30 11 1 8 12
M  V30 12 1 9 14
M  V30 13 1 10 15
M  V30 14 1 11 13
M  V30 15 2 11 15
M  V30 16 2 12 13
M  V30 17 1 14 15
M  V30 18 1 3 16 CFG=1
M  V30 19 1 4 17 CFG=1
M  V30 20 1 4 18
M  V30 21 1 5 19 CFG=1
M  V30 22 1 5 20
M  V30 23 1 6 21 CFG=1
M  V30 24 1 6 22
M  V30 25 1 7 23 CFG=3
M  V30 26 1 7 24
M  V30 27 1 8 25
M  V30 28 1 9 26 CFG=1
M  V30 29 1 9 27
M  V30 30 1 10 28
M  V30 31 1 11 29
M  V30 32 1 14 30 CFG=3
M  V30 33 1 3 31
M  V30 END BOND
M  V30 END CTAB
M  END
>  <Ligand_Instance>  (126) 
5N39_8LZ_A_401

>  <Dataset>  (126) 
PDB

>  <PDB_ID>  (126) 
5N39

>  <Chain>  (126) 
A

>  <Resi>  (126) 
401

>  <Num_Resolved_Atoms>  (126) 
15

>  <Num_H_Atoms_ProtBoundConf>  (126) 
16

>  <Pocket>  (126) 
A

>  <SMILES>  (126) 
c1cc2c(cc1[C@@H]3CCC[NH2+]3)OCCO2

>  <Name>  (126) 
(2~{S})-2-(2,3-dihydro-1,4-benzodioxin-6-yl)pyrrolidin-1-ium

>  <Num_Heavy_Atoms>  (126) 
15

>  <Num_Not_Resolved_Atoms>  (126) 
0

>  <ATP_Site>  (126) 
True

>  <Peripheral>  (126) 
False

>  <Standardized_SMILES>  (126) 
[H]C1=C([H])C([C@]2([H])C([H])([H])C([H])([H])C([H])([H])[N+]2([H])[H])=C([H])C2=C1OC([H])([H])C([H])([H])O2

$$$$
8M2
     RDKit          3D

  0  0  0  0  0  0  0  0  0  0999 V3000
M  V30 BEGIN CTAB
M  V30 COUNTS 15 15 0 0 0
M  V30 BEGIN ATOM
M  V30 1 S -14.127000 27.348000 -26.141000 0
M  V30 2 N -10.422000 24.164000 -26.379000 0 CHG=1
M  V30 3 N -12.442000 23.109000 -26.436000 0
M  V30 4 C -12.554000 27.782000 -26.697000 0
M  V30 5 C -13.691000 25.708000 -26.003000 0
M  V30 6 C -11.745000 26.701000 -26.760000 0
M  V30 7 C -11.733000 24.209000 -26.388000 0
M  V30 8 C -12.389000 25.484000 -26.367000 0
M  V30 9 H -9.892800 25.011700 -26.342100 0
M  V30 10 H -9.951800 23.282000 -26.409000 0
M  V30 11 H -13.440800 23.157800 -26.442300 0
M  V30 12 H -12.276500 28.711300 -26.940800 0
M  V30 13 H -14.313900 24.990200 -25.691900 0
M  V30 14 H -10.789800 26.746700 -27.052600 0
M  V30 15 H -11.984600 22.220300 -26.466400 0
M  V30 END ATOM
M  V30 BEGIN BOND
M  V30 1 1 1 4
M  V30 2 1 1 5
M  V30 3 2 2 7
M  V30 4 1 3 7
M  V30 5 2 4 6
M  V30 6 2 5 8
M  V30 7 1 6 8
M  V30 8 1 7 8
M  V30 9 1 2 9
M  V30 10 1 2 10
M  V30 11 1 3 11
M  V30 12 1 4 12
M  V30 13 1 5 13
M  V30 14 1 6 14
M  V30 15 1 3 15
M  V30 END BOND
M  V30 END CTAB
M  END
>  <Ligand_Instance>  (127) 
5N3C_8M2_A_401

>  <Dataset>  (127) 
PDB

>  <PDB_ID>  (127) 
5N3C

>  <Chain>  (127) 
A

>  <Resi>  (127) 
401

>  <Num_Resolved_Atoms>  (127) 
8

>  <Num_H_Atoms_ProtBoundConf>  (127) 
7

>  <Pocket>  (127) 
A

>  <SMILES>  (127) 
c1cscc1C(=[NH2+])N

>  <Name>  (127) 
[azanyl(thiophen-3-yl)methylidene]azanium

>  <Num_Heavy_Atoms>  (127) 
8

>  <Num_Not_Resolved_Atoms>  (127) 
0

>  <ATP_Site>  (127) 
True

>  <Peripheral>  (127) 
False

>  <Standardized_SMILES>  (127) 
[H]C1=C([H])C(C(N([H])[H])=[N+]([H])[H])=C([H])S1

$$$$
8NE
     RDKit          3D

  0  0  0  0  0  0  0  0  0  0999 V3000
M  V30 BEGIN CTAB
M  V30 COUNTS 20 20 0 0 0
M  V30 BEGIN ATOM
M  V30 1 F -11.702000 25.420000 -27.760000 0
M  V30 2 F -12.014000 27.500000 -27.564000 0
M  V30 3 F -10.882000 26.477000 -26.084000 0
M  V30 4 N -16.588000 24.322000 -22.815000 0
M  V30 5 N -16.960000 26.559000 -22.781000 0
M  V30 6 C -15.069000 26.985000 -24.837000 0
M  V30 7 C -14.617000 24.636000 -24.842000 0
M  V30 8 C -14.004000 27.190000 -25.693000 0
M  V30 9 C -13.550000 24.847000 -25.694000 0
M  V30 10 C -16.354000 25.519000 -23.294000 0
M  V30 11 C -15.370000 25.708000 -24.374000 0
M  V30 12 C -13.212000 26.129000 -26.108000 0
M  V30 13 C -11.961000 26.378000 -26.879000 0 CFG=2
M  V30 14 H -16.124800 23.527200 -23.207100 0
M  V30 15 H -17.229800 24.203300 -22.057300 0
M  V30 16 H -15.628600 27.761600 -24.547600 0
M  V30 17 H -14.849800 23.705400 -24.559500 0
M  V30 18 H -13.801600 28.114000 -26.017300 0
M  V30 19 H -13.014200 24.066700 -26.016700 0
M  V30 20 H -16.781400 27.472500 -23.146600 0
M  V30 END ATOM
M  V30 BEGIN BOND
M  V30 1 1 13 1 CFG=3
M  V30 2 1 2 13
M  V30 3 1 3 13
M  V30 4 1 4 10
M  V30 5 2 5 10
M  V30 6 1 6 8
M  V30 7 2 6 11
M  V30 8 2 7 9
M  V30 9 1 7 11
M  V30 10 2 8 12
M  V30 11 1 9 12
M  V30 12 1 10 11
M  V30 13 1 12 13
M  V30 14 1 4 14
M  V30 15 1 4 15
M  V30 16 1 5 20
M  V30 17 1 6 16
M  V30 18 1 7 17
M  V30 19 1 8 18
M  V30 20 1 9 19
M  V30 END BOND
M  V30 END CTAB
M  END
>  <Ligand_Instance>  (128) 
5N3D_8NE_A_401

>  <Dataset>  (128) 
PDB

>  <PDB_ID>  (128) 
5N3D

>  <Chain>  (128) 
A

>  <Resi>  (128) 
401

>  <Num_Resolved_Atoms>  (128) 
13

>  <Num_H_Atoms_ProtBoundConf>  (128) 
7

>  <Pocket>  (128) 
A

>  <SMILES>  (128) 
c1cc(ccc1C(=[NH2+])N)C(F)(F)F

>  <Name>  (128) 
[azanyl-[4-(trifluoromethyl)phenyl]methylidene]azanium

>  <Num_Heavy_Atoms>  (128) 
13

>  <Num_Not_Resolved_Atoms>  (128) 
0

>  <ATP_Site>  (128) 
True

>  <Peripheral>  (128) 
False

>  <Standardized_SMILES>  (128) 
[H]/N=C(\C1=C([H])C([H])=C(C(F)(F)F)C([H])=C1[H])N([H])[H]

$$$$
8PQ
     RDKit          3D

  0  0  0  0  0  0  0  0  0  0999 V3000
M  V30 BEGIN CTAB
M  V30 COUNTS 15 15 0 0 0
M  V30 BEGIN ATOM
M  V30 1 Br 132.905000 27.677000 23.653000 0
M  V30 2 N 130.650000 24.957000 25.459000 0
M  V30 3 N 131.465000 24.107000 24.737000 0
M  V30 4 C 130.284000 27.356000 25.999000 0 CFG=1
M  V30 5 C 133.280000 24.398000 23.077000 0 CFG=1
M  V30 6 C 132.025000 26.240000 24.415000 0
M  V30 7 C 130.987000 26.242000 25.290000 0
M  V30 8 C 132.303000 24.918000 24.085000 0
M  V30 9 H 129.896600 24.648900 26.039900 0
M  V30 10 H 130.690200 28.229900 25.731900 0
M  V30 11 H 129.315000 27.349400 25.751900 0
M  V30 12 H 130.376900 27.233400 26.987100 0
M  V30 13 H 133.811800 25.158800 22.704900 0
M  V30 14 H 133.896000 23.744200 23.516300 0
M  V30 15 H 132.784900 23.943700 22.336400 0
M  V30 END ATOM
M  V30 BEGIN BOND
M  V30 1 1 1 6
M  V30 2 1 2 3
M  V30 3 1 2 7
M  V30 4 2 3 8
M  V30 5 1 4 7
M  V30 6 1 5 8
M  V30 7 2 6 7
M  V30 8 1 6 8
M  V30 9 1 2 9
M  V30 10 1 4 10 CFG=3
M  V30 11 1 4 11
M  V30 12 1 4 12
M  V30 13 1 5 13 CFG=3
M  V30 14 1 5 14
M  V30 15 1 5 15
M  V30 END BOND
M  V30 END CTAB
M  END
>  <Ligand_Instance>  (129) 
5N7U_8PQ_A_402

>  <Dataset>  (129) 
PDB

>  <PDB_ID>  (129) 
5N7U

>  <Chain>  (129) 
A

>  <Resi>  (129) 
402

>  <Num_Resolved_Atoms>  (129) 
8

>  <Num_H_Atoms_ProtBoundConf>  (129) 
7

>  <Pocket>  (129) 
A

>  <SMILES>  (129) 
Cc1c(c(n[nH]1)C)Br

>  <Name>  (129) 
4-bromanyl-3,5-dimethyl-1~{H}-pyrazole

>  <Num_Heavy_Atoms>  (129) 
8

>  <Num_Not_Resolved_Atoms>  (129) 
0

>  <ATP_Site>  (129) 
True

>  <Peripheral>  (129) 
False

>  <Standardized_SMILES>  (129) 
[H]N1N=C(C([H])([H])[H])C(Br)=C1C([H])([H])[H]

$$$$
9CY
     RDKit          3D

  0  0  0  0  0  0  0  0  0  0999 V3000
M  V30 BEGIN CTAB
M  V30 COUNTS 45 47 0 0 0
M  V30 BEGIN ATOM
M  V30 1 O -24.059000 7.925000 0.965000 0
M  V30 2 O -26.079000 9.991000 -1.117000 0
M  V30 3 N -33.767000 9.965000 4.110000 0
M  V30 4 N -25.008000 10.447000 0.904000 0
M  V30 5 C -23.111000 8.965000 1.116000 0 CFG=2
M  V30 6 C -33.647000 9.885000 2.760000 0
M  V30 7 C -32.639000 10.138000 4.829000 0
M  V30 8 C -22.912000 15.055000 -1.141000 0
M  V30 9 C -23.699000 14.861000 -0.023000 0
M  V30 10 C -22.107000 14.020000 -1.591000 0
M  V30 11 C -32.431000 9.952000 2.085000 0
M  V30 12 C -31.366000 10.256000 4.226000 0
M  V30 13 C -23.654000 13.671000 0.678000 0
M  V30 14 C -22.090000 12.812000 -0.929000 0
M  V30 15 C -28.586000 10.628000 0.134000 0
M  V30 16 C -27.552000 9.782000 2.147000 0
M  V30 17 C -29.825000 10.636000 0.808000 0
M  V30 18 C -28.763000 9.789000 2.810000 0
M  V30 19 C -22.693000 11.419000 0.994000 0 CFG=2
M  V30 20 C -26.139000 10.154000 0.101000 0
M  V30 21 C -23.603000 10.281000 0.459000 0 CFG=2
M  V30 22 C -22.839000 12.632000 0.215000 0
M  V30 23 C -27.455000 10.203000 0.814000 0
M  V30 24 C -31.259000 10.151000 2.831000 0
M  V30 25 C -29.925000 10.212000 2.138000 0
M  V30 26 H -23.875200 7.426900 0.117600 0
M  V30 27 H -25.167900 10.787700 1.830500 0
M  V30 28 H -22.252500 8.687500 0.684800 0
M  V30 29 H -22.957500 9.126000 2.091000 0
M  V30 30 H -34.480300 9.771400 2.219000 0
M  V30 31 H -32.705800 10.184500 5.825700 0
M  V30 32 H -22.922700 15.932400 -1.620700 0
M  V30 33 H -24.309500 15.591300 0.283400 0
M  V30 34 H -21.535300 14.151000 -2.400900 0
M  V30 35 H -32.393600 9.860300 1.089900 0
M  V30 36 H -30.552500 10.412200 4.786200 0
M  V30 37 H -24.198700 13.553400 1.508300 0
M  V30 38 H -21.531000 12.060800 -1.280200 0
M  V30 39 H -28.524300 10.924200 -0.819100 0
M  V30 40 H -26.730800 9.471500 2.625800 0
M  V30 41 H -30.644500 10.949400 0.328200 0
M  V30 42 H -28.814300 9.494600 3.764300 0
M  V30 43 H -21.740000 11.119100 0.951500 0
M  V30 44 H -22.939600 11.612000 1.943700 0
M  V30 45 H -23.550200 10.222300 -0.537900 0
M  V30 END ATOM
M  V30 BEGIN BOND
M  V30 1 1 1 5
M  V30 2 2 2 20
M  V30 3 2 3 6
M  V30 4 1 3 7
M  V30 5 1 4 20
M  V30 6 1 4 21
M  V30 7 1 5 21
M  V30 8 1 6 11
M  V30 9 2 7 12
M  V30 10 2 8 9
M  V30 11 1 8 10
M  V30 12 1 9 13
M  V30 13 2 10 14
M  V30 14 2 11 24
M  V30 15 1 12 24
M  V30 16 2 13 22
M  V30 17 1 14 22
M  V30 18 1 15 17
M  V30 19 2 15 23
M  V30 20 2 16 18
M  V30 21 1 16 23
M  V30 22 2 17 25
M  V30 23 1 18 25
M  V30 24 1 19 21
M  V30 25 1 19 22
M  V30 26 1 20 23
M  V30 27 1 24 25
M  V30 28 1 1 26
M  V30 29 1 4 27
M  V30 30 1 5 28 CFG=3
M  V30 31 1 5 29
M  V30 32 1 6 30
M  V30 33 1 7 31
M  V30 34 1 8 32
M  V30 35 1 9 33
M  V30 36 1 10 34
M  V30 37 1 11 35
M  V30 38 1 12 36
M  V30 39 1 13 37
M  V30 40 1 14 38
M  V30 41 1 15 39
M  V30 42 1 16 40
M  V30 43 1 17 41
M  V30 44 1 18 42
M  V30 45 1 19 43 CFG=1
M  V30 46 1 19 44
M  V30 47 1 21 45 CFG=3
M  V30 END BOND
M  V30 END CTAB
M  END
>  <Ligand_Instance>  (130) 
5VHB_9CY_A_401

>  <Dataset>  (130) 
PDB

>  <PDB_ID>  (130) 
5VHB

>  <Chain>  (130) 
A

>  <Resi>  (130) 
401

>  <Num_Resolved_Atoms>  (130) 
25

>  <Num_H_Atoms_ProtBoundConf>  (130) 
20

>  <Pocket>  (130) 
A

>  <SMILES>  (130) 
c1ccc(cc1)C[C@@H](CO)NC(=O)c2ccc(cc2)c3ccncc3

>  <Name>  (130) 
N-[(2S)-1-hydroxy-3-phenylpropan-2-yl]-4-(pyridin-4-yl)benzamide

>  <Num_Heavy_Atoms>  (130) 
25

>  <Num_Not_Resolved_Atoms>  (130) 
0

>  <ATP_Site>  (130) 
True

>  <Peripheral>  (130) 
False

>  <Standardized_SMILES>  (130) 
[H]OC([H])([H])[C@@]([H])(N([H])C(=O)C1=C([H])C([H])=C(C2=C([H])C([H])=NC([H])=C2[H])C([H])=C1[H])C([H])([H])C1=C([H])C([H])=C([H])C([H])=C1[H]

$$$$
9D1
     RDKit          3D

  0  0  0  0  0  0  0  0  0  0999 V3000
M  V30 BEGIN CTAB
M  V30 COUNTS 58 62 0 0 0
M  V30 BEGIN ATOM
M  V30 1 S 5.264000 12.058000 8.574000 0
M  V30 2 O 1.358000 18.602000 5.169000 0
M  V30 3 N 12.767000 9.363000 7.537000 0
M  V30 4 N 6.017000 14.584000 8.391000 0
M  V30 5 N 2.279000 13.598000 11.690000 0 CFG=2 CHG=1
M  V30 6 N 3.612000 14.350000 8.732000 0
M  V30 7 C 12.878000 10.686000 7.656000 0
M  V30 8 C 11.527000 8.862000 7.470000 0
M  V30 9 C 1.621000 13.835000 10.392000 0 CFG=2
M  V30 10 C 2.393000 13.551000 9.070000 0 CFG=2
M  V30 11 C 2.759000 12.217000 11.948000 0 CFG=2
M  V30 12 C 1.447000 13.958000 12.865000 0 CFG=2
M  V30 13 C 3.394000 15.766000 8.394000 0 CFG=2
M  V30 14 C 1.663000 11.519000 12.746000 0 CFG=2
M  V30 15 C 0.923000 12.658000 13.465000 0 CFG=2
M  V30 16 C 2.979000 15.382000 4.626000 0
M  V30 17 C 11.818000 11.556000 7.723000 0
M  V30 18 C 10.358000 9.644000 7.562000 0
M  V30 19 C 2.313000 16.558000 4.314000 0
M  V30 20 C 8.410000 14.282000 7.985000 0
M  V30 21 C 3.327000 15.105000 5.935000 0
M  V30 22 C 9.475000 13.401000 7.809000 0
M  V30 23 C 7.997000 11.463000 8.145000 0
M  V30 24 C 2.362000 17.202000 6.668000 0
M  V30 25 C 4.917000 13.829000 8.584000 0
M  V30 26 C 6.934000 12.374000 8.310000 0
M  V30 27 C 2.006000 17.446000 5.349000 0
M  V30 28 C 7.138000 13.771000 8.237000 0
M  V30 29 C 3.014000 16.042000 6.971000 0
M  V30 30 C 10.496000 11.060000 7.703000 0
M  V30 31 C 9.308000 11.976000 7.890000 0
M  V30 32 H 1.167500 19.195500 5.951000 0
M  V30 33 H 13.799300 11.072500 7.699600 0
M  V30 34 H 11.424300 7.874900 7.347500 0
M  V30 35 H 1.358300 14.799700 10.372400 0
M  V30 36 H 0.799300 13.265300 10.375600 0
M  V30 37 H 2.675000 12.592100 9.100100 0
M  V30 38 H 1.743400 13.684000 8.321500 0
M  V30 39 H 3.608700 12.239500 12.474800 0
M  V30 40 H 2.915100 11.738500 11.083900 0
M  V30 41 H 0.682400 14.535500 12.578900 0
M  V30 42 H 2.000300 14.447400 13.539000 0
M  V30 43 H 4.240200 16.262200 8.588100 0
M  V30 44 H 2.662100 16.113000 8.980500 0
M  V30 45 H 2.058900 10.882100 13.407500 0
M  V30 46 H 1.043200 11.024300 12.136800 0
M  V30 47 H -0.062400 12.579800 13.313900 0
M  V30 48 H 1.113100 12.628700 14.446300 0
M  V30 49 H 3.208300 14.732100 3.901400 0
M  V30 50 H 11.982000 12.540400 7.785900 0
M  V30 51 H 9.453600 9.218500 7.529400 0
M  V30 52 H 2.058100 16.766000 3.369700 0
M  V30 53 H 8.556600 15.269700 7.931100 0
M  V30 54 H 3.796900 14.250900 6.157900 0
M  V30 55 H 10.384300 13.772000 7.620400 0
M  V30 56 H 7.837900 10.477600 8.205000 0
M  V30 57 H 2.144400 17.865000 7.384300 0
M  V30 58 H 3.083800 14.190900 11.716000 0
M  V30 END ATOM
M  V30 BEGIN BOND
M  V30 1 1 1 25
M  V30 2 1 1 26
M  V30 3 1 2 27
M  V30 4 2 3 7
M  V30 5 1 3 8
M  V30 6 2 4 25
M  V30 7 1 4 28
M  V30 8 1 5 9
M  V30 9 1 5 11
M  V30 10 1 5 12
M  V30 11 1 6 10
M  V30 12 1 6 13
M  V30 13 1 6 25
M  V30 14 1 7 17
M  V30 15 2 8 18
M  V30 16 1 9 10
M  V30 17 1 11 14
M  V30 18 1 12 15
M  V30 19 1 13 29
M  V30 20 1 14 15
M  V30 21 1 16 19
M  V30 22 2 16 21
M  V30 23 2 17 30
M  V30 24 1 18 30
M  V30 25 2 19 27
M  V30 26 1 20 22
M  V30 27 2 20 28
M  V30 28 1 21 29
M  V30 29 2 22 31
M  V30 30 2 23 26
M  V30 31 1 23 31
M  V30 32 1 24 27
M  V30 33 2 24 29
M  V30 34 1 26 28
M  V30 35 1 30 31
M  V30 36 1 2 32
M  V30 37 1 7 33
M  V30 38 1 8 34
M  V30 39 1 9 35 CFG=3
M  V30 40 1 9 36
M  V30 41 1 10 37 CFG=1
M  V30 42 1 10 38
M  V30 43 1 11 39 CFG=1
M  V30 44 1 11 40
M  V30 45 1 12 41 CFG=3
M  V30 46 1 12 42
M  V30 47 1 13 43 CFG=1
M  V30 48 1 13 44
M  V30 49 1 14 45 CFG=1
M  V30 50 1 14 46
M  V30 51 1 15 47 CFG=1
M  V30 52 1 15 48
M  V30 53 1 16 49
M  V30 54 1 17 50
M  V30 55 1 18 51
M  V30 56 1 19 52
M  V30 57 1 20 53
M  V30 58 1 21 54
M  V30 59 1 22 55
M  V30 60 1 23 56
M  V30 61 1 24 57
M  V30 62 1 5 58 CFG=3
M  V30 END BOND
M  V30 END CTAB
M  END
>  <Ligand_Instance>  (131) 
5VIB_9D1_A_401

>  <Dataset>  (131) 
PDB

>  <PDB_ID>  (131) 
5VIB

>  <Chain>  (131) 
A

>  <Resi>  (131) 
401

>  <Num_Resolved_Atoms>  (131) 
31

>  <Num_H_Atoms_ProtBoundConf>  (131) 
27

>  <Pocket>  (131) 
A

>  <SMILES>  (131) 
c1cc(cc(c1)O)CN(CCN2CCCC2)c3nc4ccc(cc4s3)c5ccncc5

>  <Name>  (131) 
3-({[6-(pyridin-4-yl)-1,3-benzothiazol-2-yl][2-(pyrrolidin-1-yl)ethyl]amino}methyl)phenol

>  <Num_Heavy_Atoms>  (131) 
31

>  <Num_Not_Resolved_Atoms>  (131) 
0

>  <ATP_Site>  (131) 
True

>  <Peripheral>  (131) 
False

>  <Standardized_SMILES>  (131) 
[H]OC1=C([H])C([H])=C([H])C(C([H])([H])N(C2=NC3=C([H])C([H])=C(C4=C([H])C([H])=NC([H])=C4[H])C([H])=C3S2)C([H])([H])C([H])([H])[N+]2([H])C([H])([H])C([H])([H])C([H])([H])C2([H])[H])=C1[H]

$$$$
9K6
     RDKit          3D

  0  0  0  0  0  0  0  0  0  0999 V3000
M  V30 BEGIN CTAB
M  V30 COUNTS 41 43 0 0 0
M  V30 BEGIN ATOM
M  V30 1 S -13.393000 -25.598000 27.268000 0 CFG=2
M  V30 2 O -14.057000 -25.983000 28.471000 0
M  V30 3 O -12.808000 -26.591000 26.426000 0
M  V30 4 N -9.406000 -24.682000 28.768000 0 CFG=2 CHG=1
M  V30 5 N -17.264000 -26.437000 23.568000 0
M  V30 6 N -12.192000 -24.582000 27.671000 0
M  V30 7 C -11.250000 -23.468000 25.651000 0 CFG=1
M  V30 8 C -10.042000 -24.109000 29.971000 0 CFG=2
M  V30 9 C -16.484000 -27.200000 24.348000 0
M  V30 10 C -9.751000 -23.975000 27.536000 0 CFG=2
M  V30 11 C -17.185000 -25.123000 23.721000 0
M  V30 12 C -12.296000 -23.738000 28.879000 0 CFG=2
M  V30 13 C -11.534000 -24.306000 30.059000 0 CFG=2
M  V30 14 C -15.345000 -22.512000 25.651000 0
M  V30 15 C -15.609000 -26.709000 25.271000 0
M  V30 16 C -14.490000 -23.305000 26.402000 0
M  V30 17 C -16.239000 -23.074000 24.779000 0
M  V30 18 C -14.545000 -24.670000 26.302000 0
M  V30 19 C -10.997000 -24.430000 26.798000 0 CFG=1
M  V30 20 C -16.317000 -24.482000 24.634000 0
M  V30 21 C -15.480000 -25.313000 25.425000 0
M  V30 22 H -9.697000 -25.634600 28.678900 0
M  V30 23 H -10.425500 -23.394000 25.090000 0
M  V30 24 H -12.005000 -23.808600 25.090600 0
M  V30 25 H -11.486200 -22.567800 26.016900 0
M  V30 26 H -9.857900 -23.126100 29.980700 0
M  V30 27 H -9.625200 -24.534200 30.774400 0
M  V30 28 H -16.548400 -28.192700 24.246000 0
M  V30 29 H -8.978400 -24.070600 26.908400 0
M  V30 30 H -9.874700 -23.010200 27.767900 0
M  V30 31 H -17.776600 -24.548900 23.155000 0
M  V30 32 H -13.260500 -23.657300 29.130400 0
M  V30 33 H -11.929500 -22.831800 28.668200 0
M  V30 34 H -11.862500 -23.859200 30.891100 0
M  V30 35 H -11.720000 -25.287100 30.111800 0
M  V30 36 H -15.308200 -21.517400 25.747500 0
M  V30 37 H -15.064500 -27.331900 25.832700 0
M  V30 38 H -13.829800 -22.877900 27.019800 0
M  V30 39 H -16.842000 -22.486000 24.239900 0
M  V30 40 H -10.799900 -25.326100 26.400300 0
M  V30 41 H -8.413700 -24.646300 28.886600 0
M  V30 END ATOM
M  V30 BEGIN BOND
M  V30 1 2 1 2
M  V30 2 2 1 3
M  V30 3 1 1 6 CFG=1
M  V30 4 1 1 18
M  V30 5 1 4 8
M  V30 6 1 4 10
M  V30 7 2 5 9
M  V30 8 1 5 11
M  V30 9 1 6 12
M  V30 10 1 6 19
M  V30 11 1 7 19
M  V30 12 1 8 13
M  V30 13 1 9 15
M  V30 14 1 10 19
M  V30 15 2 11 20
M  V30 16 1 12 13
M  V30 17 1 14 16
M  V30 18 2 14 17
M  V30 19 2 15 21
M  V30 20 2 16 18
M  V30 21 1 17 20
M  V30 22 1 18 21
M  V30 23 1 20 21
M  V30 24 1 4 22 CFG=3
M  V30 25 1 7 23 CFG=3
M  V30 26 1 7 24
M  V30 27 1 7 25
M  V30 28 1 8 26 CFG=1
M  V30 29 1 8 27
M  V30 30 1 9 28
M  V30 31 1 10 29 CFG=3
M  V30 32 1 10 30
M  V30 33 1 11 31
M  V30 34 1 12 32 CFG=1
M  V30 35 1 12 33
M  V30 36 1 13 34 CFG=1
M  V30 37 1 13 35
M  V30 38 1 14 36
M  V30 39 1 15 37
M  V30 40 1 16 38
M  V30 41 1 17 39
M  V30 42 1 19 40 CFG=3
M  V30 43 1 4 41
M  V30 END BOND
M  V30 END CTAB
M  END
>  <Ligand_Instance>  (132) 
5M75_9K6_A_402

>  <Dataset>  (132) 
PDB

>  <PDB_ID>  (132) 
5M75

>  <Chain>  (132) 
A

>  <Resi>  (132) 
402

>  <Num_Resolved_Atoms>  (132) 
21

>  <Num_H_Atoms_ProtBoundConf>  (132) 
20

>  <Pocket>  (132) 
A

>  <SMILES>  (132) 
C[C@H]1CNCCCN1S(=O)(=O)c2cccc3c2ccnc3

>  <Name>  (132) 
5-[[(2~{S})-2-methyl-1,4-diazepan-1-yl]sulfonyl]isoquinoline

>  <Num_Heavy_Atoms>  (132) 
21

>  <Num_Not_Resolved_Atoms>  (132) 
0

>  <ATP_Site>  (132) 
True

>  <Peripheral>  (132) 
False

>  <Standardized_SMILES>  (132) 
[H]C1=NC([H])=C2C([H])=C([H])C([H])=C(S(=O)(=O)N3C([H])([H])C([H])([H])C([H])([H])[N+]([H])([H])C([H])([H])[C@]3([H])C([H])([H])[H])C2=C1[H]

$$$$
9LQ
     RDKit          3D

  0  0  0  0  0  0  0  0  0  0999 V3000
M  V30 BEGIN CTAB
M  V30 COUNTS 55 58 0 0 0
M  V30 BEGIN ATOM
M  V30 1 S -8.069000 10.993000 -8.184000 0 CFG=2
M  V30 2 O -7.418000 10.579000 -6.982000 0
M  V30 3 O -8.334000 10.034000 -9.212000 0
M  V30 4 O -4.610000 16.200000 -8.752000 0
M  V30 5 O -3.335000 18.039000 -8.026000 0
M  V30 6 N -13.011000 9.428000 -6.766000 0
M  V30 7 N -7.124000 12.147000 -8.859000 0
M  V30 8 N -4.352000 13.488000 -8.767000 0 CFG=2 CHG=1
M  V30 9 C -11.819000 8.840000 -6.957000 0
M  V30 10 C -13.063000 10.746000 -6.844000 0
M  V30 11 C -6.637000 13.189000 -7.937000 0 CFG=2
M  V30 12 C -5.223000 13.039000 -7.681000 0 CFG=2
M  V30 13 C -7.149000 12.478000 -10.299000 0 CFG=2
M  V30 14 C -4.628000 12.861000 -10.062000 0 CFG=2
M  V30 15 C -2.932000 13.696000 -8.440000 0 CFG=2
M  V30 16 C -5.920000 13.250000 -10.767000 0 CFG=2
M  V30 17 C -2.044000 14.123000 -4.793000 0
M  V30 18 C -2.284000 15.458000 -4.578000 0
M  V30 19 C -10.945000 13.706000 -7.618000 0
M  V30 20 C -10.672000 9.515000 -7.234000 0
M  V30 21 C -9.732000 13.089000 -7.868000 0
M  V30 22 C -2.244000 13.579000 -6.047000 0
M  V30 23 C -12.038000 12.973000 -7.262000 0
M  V30 24 C -2.739000 16.255000 -5.611000 0
M  V30 25 C -9.608000 11.732000 -7.744000 0
M  V30 26 C -11.951000 11.568000 -7.118000 0
M  V30 27 C -2.714000 14.364000 -7.103000 0
M  V30 28 C -10.709000 10.923000 -7.339000 0
M  V30 29 C -2.986000 15.734000 -6.888000 0
M  V30 30 B -3.647000 16.712000 -7.940000 0
M  V30 31 H -4.974400 16.925700 -9.335600 0
M  V30 32 H -3.015700 18.247100 -8.950500 0
M  V30 33 H -11.772100 7.843300 -6.891400 0
M  V30 34 H -13.947900 11.188800 -6.699400 0
M  V30 35 H -7.134500 13.118300 -7.072400 0
M  V30 36 H -6.801500 14.087600 -8.343800 0
M  V30 37 H -4.997300 13.567300 -6.862500 0
M  V30 38 H -5.038100 12.070500 -7.514100 0
M  V30 39 H -7.960300 13.033200 -10.482100 0
M  V30 40 H -7.204200 11.625500 -10.818800 0
M  V30 41 H -4.651100 11.871800 -9.917500 0
M  V30 42 H -3.871300 13.090900 -10.674000 0
M  V30 43 H -2.524100 14.269200 -9.150600 0
M  V30 44 H -2.476300 12.806000 -8.427300 0
M  V30 45 H -6.082600 14.223700 -10.607400 0
M  V30 46 H -5.802900 13.087800 -11.746800 0
M  V30 47 H -1.724600 13.544900 -4.042100 0
M  V30 48 H -2.129300 15.853800 -3.672800 0
M  V30 49 H -11.020700 14.699800 -7.699300 0
M  V30 50 H -9.812300 9.020500 -7.361900 0
M  V30 51 H -8.941800 13.637800 -8.140800 0
M  V30 52 H -2.049800 12.610200 -6.201000 0
M  V30 53 H -12.911000 13.433400 -7.100800 0
M  V30 54 H -2.896000 17.228200 -5.442900 0
M  V30 55 H -4.670800 14.424000 -8.916400 0
M  V30 END ATOM
M  V30 BEGIN BOND
M  V30 1 2 1 2
M  V30 2 2 1 3
M  V30 3 1 1 7 CFG=3
M  V30 4 1 1 25
M  V30 5 1 4 30
M  V30 6 1 5 30
M  V30 7 2 6 9
M  V30 8 1 6 10
M  V30 9 1 7 11
M  V30 10 1 7 13
M  V30 11 1 8 12
M  V30 12 1 8 14
M  V30 13 1 8 15
M  V30 14 1 9 20
M  V30 15 2 10 26
M  V30 16 1 11 12
M  V30 17 1 13 16
M  V30 18 1 14 16
M  V30 19 1 15 27
M  V30 20 2 17 18
M  V30 21 1 17 22
M  V30 22 1 18 24
M  V30 23 1 19 21
M  V30 24 2 19 23
M  V30 25 2 20 28
M  V30 26 2 21 25
M  V30 27 2 22 27
M  V30 28 1 23 26
M  V30 29 2 24 29
M  V30 30 1 25 28
M  V30 31 1 26 28
M  V30 32 1 27 29
M  V30 33 1 29 30
M  V30 34 1 4 31
M  V30 35 1 5 32
M  V30 36 1 9 33
M  V30 37 1 10 34
M  V30 38 1 11 35 CFG=1
M  V30 39 1 11 36
M  V30 40 1 12 37 CFG=1
M  V30 41 1 12 38
M  V30 42 1 13 39 CFG=1
M  V30 43 1 13 40
M  V30 44 1 14 41 CFG=1
M  V30 45 1 14 42
M  V30 46 1 15 43 CFG=3
M  V30 47 1 15 44
M  V30 48 1 16 45 CFG=3
M  V30 49 1 16 46
M  V30 50 1 17 47
M  V30 51 1 18 48
M  V30 52 1 19 49
M  V30 53 1 20 50
M  V30 54 1 21 51
M  V30 55 1 22 52
M  V30 56 1 23 53
M  V30 57 1 24 54
M  V30 58 1 8 55 CFG=3
M  V30 END BOND
M  V30 END CTAB
M  END
>  <Ligand_Instance>  (133) 
5O5M_9LQ_A_401

>  <Dataset>  (133) 
PDB

>  <PDB_ID>  (133) 
5O5M

>  <Chain>  (133) 
A

>  <Resi>  (133) 
401

>  <Num_Resolved_Atoms>  (133) 
30

>  <Num_H_Atoms_ProtBoundConf>  (133) 
25

>  <Pocket>  (133) 
A

>  <SMILES>  (133) 
B(c1ccccc1CN2CCCN(CC2)S(=O)(=O)c3cccc4c3ccnc4)(O)O

>  <Name>  (133) 
[2-[(4-isoquinolin-5-ylsulfonyl-1,4-diazepan-1-yl)methyl]phenyl]boronic acid

>  <Num_Heavy_Atoms>  (133) 
30

>  <Num_Not_Resolved_Atoms>  (133) 
0

>  <ATP_Site>  (133) 
True

>  <Peripheral>  (133) 
False

>  <Standardized_SMILES>  (133) 
[H]OB(O[H])C1=C([H])C([H])=C([H])C([H])=C1C([H])([H])[N@+]1([H])C([H])([H])C([H])([H])N(S(=O)(=O)C2=C([H])C([H])=C([H])C3=C([H])N=C([H])C([H])=C32)C([H])([H])C([H])([H])C1([H])[H]

$$$$
9LQ
     RDKit          3D

  0  0  0  0  0  0  0  0  0  0999 V3000
M  V30 BEGIN CTAB
M  V30 COUNTS 55 58 0 0 0
M  V30 BEGIN ATOM
M  V30 1 S 8.147000 10.936000 8.106000 0 CFG=1
M  V30 2 O 8.394000 9.967000 9.128000 0
M  V30 3 O 7.530000 10.530000 6.882000 0
M  V30 4 O 4.642000 15.967000 8.659000 0
M  V30 5 O 3.253000 17.778000 8.096000 0
M  V30 6 N 13.151000 9.550000 6.680000 0
M  V30 7 N 7.165000 12.061000 8.772000 0
M  V30 8 N 4.331000 13.317000 8.757000 0 CFG=2 CHG=1
M  V30 9 C 11.984000 8.919000 6.868000 0
M  V30 10 C 13.158000 10.870000 6.774000 0
M  V30 11 C 6.629000 13.094000 7.866000 0 CFG=2
M  V30 12 C 5.182000 12.929000 7.623000 0 CFG=2
M  V30 13 C 7.170000 12.329000 10.224000 0 CFG=2
M  V30 14 C 4.644000 12.688000 10.045000 0 CFG=2
M  V30 15 C 2.896000 13.469000 8.477000 0 CFG=2
M  V30 16 C 5.952000 13.110000 10.701000 0 CFG=2
M  V30 17 C 1.833000 13.884000 4.873000 0
M  V30 18 C 2.093000 15.209000 4.636000 0
M  V30 19 C 10.947000 13.742000 7.617000 0
M  V30 20 C 10.814000 9.547000 7.166000 0
M  V30 21 C 9.755000 13.080000 7.855000 0
M  V30 22 C 2.079000 13.344000 6.121000 0
M  V30 23 C 12.062000 13.054000 7.246000 0
M  V30 24 C 2.610000 16.006000 5.642000 0
M  V30 25 C 9.673000 11.721000 7.706000 0
M  V30 26 C 12.023000 11.646000 7.081000 0
M  V30 27 C 2.615000 14.127000 7.148000 0
M  V30 28 C 10.804000 10.957000 7.296000 0
M  V30 29 C 2.898000 15.489000 6.912000 0
M  V30 30 B 3.603000 16.468000 7.937000 0
M  V30 31 H 5.021300 16.686600 9.240700 0
M  V30 32 H 2.478100 17.990600 7.500800 0
M  V30 33 H 11.972000 7.922600 6.783900 0
M  V30 34 H 14.023100 11.346500 6.617300 0
M  V30 35 H 7.110700 13.036300 6.991600 0
M  V30 36 H 6.786200 13.993100 8.274500 0
M  V30 37 H 4.930400 13.491600 6.835500 0
M  V30 38 H 5.007000 11.966700 7.414700 0
M  V30 39 H 7.990700 12.855500 10.446000 0
M  V30 40 H 7.194400 11.454000 10.707500 0
M  V30 41 H 4.680700 11.699200 9.900400 0
M  V30 42 H 3.901400 12.904900 10.678600 0
M  V30 43 H 2.488600 14.026800 9.200100 0
M  V30 44 H 2.474400 12.562200 8.478000 0
M  V30 45 H 6.103600 14.078600 10.503900 0
M  V30 46 H 5.863600 12.980700 11.688700 0
M  V30 47 H 1.465300 13.308200 4.142700 0
M  V30 48 H 1.908700 15.600200 3.734400 0
M  V30 49 H 10.989800 14.735900 7.718600 0
M  V30 50 H 9.973300 9.020200 7.291400 0
M  V30 51 H 8.947600 13.597800 8.137900 0
M  V30 52 H 1.871000 12.380900 6.291800 0
M  V30 53 H 12.917600 13.546900 7.088200 0
M  V30 54 H 2.782100 16.973800 5.458300 0
M  V30 55 H 4.613200 14.263400 8.914100 0
M  V30 END ATOM
M  V30 BEGIN BOND
M  V30 1 2 1 2
M  V30 2 2 1 3
M  V30 3 1 1 7 CFG=1
M  V30 4 1 1 25
M  V30 5 1 4 30
M  V30 6 1 5 30
M  V30 7 2 6 9
M  V30 8 1 6 10
M  V30 9 1 7 11
M  V30 10 1 7 13
M  V30 11 1 8 12
M  V30 12 1 8 14
M  V30 13 1 8 15
M  V30 14 1 9 20
M  V30 15 2 10 26
M  V30 16 1 11 12
M  V30 17 1 13 16
M  V30 18 1 14 16
M  V30 19 1 15 27
M  V30 20 2 17 18
M  V30 21 1 17 22
M  V30 22 1 18 24
M  V30 23 1 19 21
M  V30 24 2 19 23
M  V30 25 2 20 28
M  V30 26 2 21 25
M  V30 27 2 22 27
M  V30 28 1 23 26
M  V30 29 2 24 29
M  V30 30 1 25 28
M  V30 31 1 26 28
M  V30 32 1 27 29
M  V30 33 1 29 30
M  V30 34 1 4 31
M  V30 35 1 5 32
M  V30 36 1 9 33
M  V30 37 1 10 34
M  V30 38 1 11 35 CFG=3
M  V30 39 1 11 36
M  V30 40 1 12 37 CFG=3
M  V30 41 1 12 38
M  V30 42 1 13 39 CFG=3
M  V30 43 1 13 40
M  V30 44 1 14 41 CFG=3
M  V30 45 1 14 42
M  V30 46 1 15 43 CFG=1
M  V30 47 1 15 44
M  V30 48 1 16 45 CFG=1
M  V30 49 1 16 46
M  V30 50 1 17 47
M  V30 51 1 18 48
M  V30 52 1 19 49
M  V30 53 1 20 50
M  V30 54 1 21 51
M  V30 55 1 22 52
M  V30 56 1 23 53
M  V30 57 1 24 54
M  V30 58 1 8 55 CFG=1
M  V30 END BOND
M  V30 END CTAB
M  END
>  <Ligand_Instance>  (134) 
5OL3_9LQ_A_401

>  <Dataset>  (134) 
PDB

>  <PDB_ID>  (134) 
5OL3

>  <Chain>  (134) 
A

>  <Resi>  (134) 
401

>  <Num_Resolved_Atoms>  (134) 
30

>  <Num_H_Atoms_ProtBoundConf>  (134) 
25

>  <Pocket>  (134) 
A

>  <SMILES>  (134) 
B(c1ccccc1CN2CCCN(CC2)S(=O)(=O)c3cccc4c3ccnc4)(O)O

>  <Name>  (134) 
[2-[(4-isoquinolin-5-ylsulfonyl-1,4-diazepan-1-yl)methyl]phenyl]boronic acid

>  <Num_Heavy_Atoms>  (134) 
30

>  <Num_Not_Resolved_Atoms>  (134) 
0

>  <ATP_Site>  (134) 
True

>  <Peripheral>  (134) 
False

>  <Standardized_SMILES>  (134) 
[H]OB(O[H])C1=C([H])C([H])=C([H])C([H])=C1C([H])([H])[N@+]1([H])C([H])([H])C([H])([H])N(S(=O)(=O)C2=C([H])C([H])=C([H])C3=C([H])N=C([H])C([H])=C32)C([H])([H])C([H])([H])C1([H])[H]

$$$$
9LQ
     RDKit          3D

  0  0  0  0  0  0  0  0  0  0999 V3000
M  V30 BEGIN CTAB
M  V30 COUNTS 55 58 0 0 0
M  V30 BEGIN ATOM
M  V30 1 S 7.901000 11.033000 8.018000 0 CFG=1
M  V30 2 O 8.234000 10.097000 9.044000 0
M  V30 3 O 7.162000 10.606000 6.872000 0
M  V30 4 O 2.536000 16.325000 9.537000 0
M  V30 5 O 3.002000 18.031000 8.031000 0
M  V30 6 N 12.970000 9.559000 6.845000 0
M  V30 7 N 7.023000 12.214000 8.730000 0
M  V30 8 N 4.114000 13.194000 8.784000 0 CFG=1 CHG=1
M  V30 9 C 11.789000 8.937000 6.977000 0
M  V30 10 C 12.972000 10.886000 6.882000 0
M  V30 11 C 6.393000 13.251000 7.889000 0 CFG=2
M  V30 12 C 5.023000 12.997000 7.668000 0 CFG=2
M  V30 13 C 7.037000 12.497000 10.180000 0 CFG=2
M  V30 14 C 4.694000 13.536000 10.081000 0 CFG=2
M  V30 15 C 2.729000 13.583000 8.462000 0 CFG=2
M  V30 16 C 5.635000 12.563000 10.778000 0 CFG=2
M  V30 17 C 2.342000 14.125000 4.736000 0
M  V30 18 C 2.492000 15.484000 4.617000 0
M  V30 19 C 10.689000 13.797000 7.323000 0
M  V30 20 C 10.602000 9.577000 7.171000 0
M  V30 21 C 9.483000 13.147000 7.521000 0
M  V30 22 C 2.380000 13.532000 5.986000 0
M  V30 23 C 11.835000 13.090000 7.108000 0
M  V30 24 C 2.654000 16.264000 5.747000 0
M  V30 25 C 9.421000 11.779000 7.503000 0
M  V30 26 C 11.815000 11.674000 7.063000 0
M  V30 27 C 2.578000 14.299000 7.135000 0
M  V30 28 C 10.582000 10.990000 7.236000 0
M  V30 29 C 2.685000 15.705000 7.034000 0
M  V30 30 B 2.751000 16.712000 8.250000 0
M  V30 31 H 3.342500 16.538400 10.088400 0
M  V30 32 H 2.985400 18.522500 8.901700 0
M  V30 33 H 11.779100 7.938200 6.929900 0
M  V30 34 H 13.847800 11.356700 6.775000 0
M  V30 35 H 6.862000 13.278700 7.006300 0
M  V30 36 H 6.487200 14.136300 8.344500 0
M  V30 37 H 4.722800 13.598600 6.927800 0
M  V30 38 H 4.938400 12.043800 7.377900 0
M  V30 39 H 7.491200 13.375100 10.330600 0
M  V30 40 H 7.548900 11.773200 10.642700 0
M  V30 41 H 3.929400 13.694800 10.705600 0
M  V30 42 H 5.202700 14.387500 9.953600 0
M  V30 43 H 2.397200 14.189000 9.185000 0
M  V30 44 H 2.168300 12.755300 8.437400 0
M  V30 45 H 5.716900 12.840000 11.735400 0
M  V30 46 H 5.231500 11.649300 10.728700 0
M  V30 47 H 2.205300 13.563500 3.919900 0
M  V30 48 H 2.484100 15.910300 3.712500 0
M  V30 49 H 10.720200 14.796400 7.337800 0
M  V30 50 H 9.754900 9.054100 7.266300 0
M  V30 51 H 8.651500 13.679900 7.678200 0
M  V30 52 H 2.264200 12.542000 6.066800 0
M  V30 53 H 12.699400 13.576400 6.980600 0
M  V30 54 H 2.751800 17.253900 5.644500 0
M  V30 55 H 3.934600 12.228900 8.974700 0
M  V30 END ATOM
M  V30 BEGIN BOND
M  V30 1 2 1 2
M  V30 2 2 1 3
M  V30 3 1 1 7 CFG=1
M  V30 4 1 1 25
M  V30 5 1 4 30
M  V30 6 1 5 30
M  V30 7 2 6 9
M  V30 8 1 6 10
M  V30 9 1 7 11
M  V30 10 1 7 13
M  V30 11 1 8 12
M  V30 12 1 8 14
M  V30 13 1 8 15
M  V30 14 1 9 20
M  V30 15 2 10 26
M  V30 16 1 11 12
M  V30 17 1 13 16
M  V30 18 1 14 16
M  V30 19 1 15 27
M  V30 20 2 17 18
M  V30 21 1 17 22
M  V30 22 1 18 24
M  V30 23 1 19 21
M  V30 24 2 19 23
M  V30 25 2 20 28
M  V30 26 2 21 25
M  V30 27 2 22 27
M  V30 28 1 23 26
M  V30 29 2 24 29
M  V30 30 1 25 28
M  V30 31 1 26 28
M  V30 32 1 27 29
M  V30 33 1 29 30
M  V30 34 1 4 31
M  V30 35 1 5 32
M  V30 36 1 9 33
M  V30 37 1 10 34
M  V30 38 1 11 35 CFG=3
M  V30 39 1 11 36
M  V30 40 1 12 37 CFG=3
M  V30 41 1 12 38
M  V30 42 1 13 39 CFG=3
M  V30 43 1 13 40
M  V30 44 1 14 41 CFG=1
M  V30 45 1 14 42
M  V30 46 1 15 43 CFG=1
M  V30 47 1 15 44
M  V30 48 1 16 45 CFG=1
M  V30 49 1 16 46
M  V30 50 1 17 47
M  V30 51 1 18 48
M  V30 52 1 19 49
M  V30 53 1 20 50
M  V30 54 1 21 51
M  V30 55 1 22 52
M  V30 56 1 23 53
M  V30 57 1 24 54
M  V30 58 1 8 55 CFG=1
M  V30 END BOND
M  V30 END CTAB
M  END
>  <Ligand_Instance>  (135) 
5OT3_9LQ_A_401

>  <Dataset>  (135) 
PDB

>  <PDB_ID>  (135) 
5OT3

>  <Chain>  (135) 
A

>  <Resi>  (135) 
401

>  <Num_Resolved_Atoms>  (135) 
30

>  <Num_H_Atoms_ProtBoundConf>  (135) 
25

>  <Pocket>  (135) 
A

>  <SMILES>  (135) 
B(c1ccccc1CN2CCCN(CC2)S(=O)(=O)c3cccc4c3ccnc4)(O)O

>  <Name>  (135) 
[2-[(4-isoquinolin-5-ylsulfonyl-1,4-diazepan-1-yl)methyl]phenyl]boronic acid

>  <Num_Heavy_Atoms>  (135) 
30

>  <Num_Not_Resolved_Atoms>  (135) 
0

>  <ATP_Site>  (135) 
True

>  <Peripheral>  (135) 
False

>  <Standardized_SMILES>  (135) 
[H]OB(O[H])C1=C([H])C([H])=C([H])C([H])=C1C([H])([H])[N@@+]1([H])C([H])([H])C([H])([H])N(S(=O)(=O)C2=C([H])C([H])=C([H])C3=C([H])N=C([H])C([H])=C32)C([H])([H])C([H])([H])C1([H])[H]

$$$$
9LQ
     RDKit          3D

  0  0  0  0  0  0  0  0  0  0999 V3000
M  V30 BEGIN CTAB
M  V30 COUNTS 55 58 0 0 0
M  V30 BEGIN ATOM
M  V30 1 S 21.713000 -19.471000 8.397000 0 CFG=1
M  V30 2 O 22.709000 -19.685000 7.396000 0
M  V30 3 O 22.000000 -18.638000 9.521000 0
M  V30 4 O 14.306000 -15.739000 8.259000 0
M  V30 5 O 15.408000 -14.646000 6.503000 0
M  V30 6 N 24.261000 -23.736000 10.514000 0
M  V30 7 N 20.397000 -18.843000 7.637000 0
M  V30 8 N 19.292000 -15.866000 7.431000 0 CFG=2 CHG=1
M  V30 9 C 24.586000 -22.485000 10.159000 0
M  V30 10 C 22.992000 -24.099000 10.392000 0
M  V30 11 C 20.460000 -18.082000 6.369000 0 CFG=2
M  V30 12 C 19.488000 -16.714000 6.242000 0 CFG=2
M  V30 13 C 19.021000 -18.760000 8.172000 0 CFG=2
M  V30 14 C 19.747000 -16.429000 8.696000 0 CFG=2
M  V30 15 C 18.461000 -14.651000 7.370000 0 CFG=2
M  V30 16 C 18.863000 -17.584000 9.071000 0 CFG=2
M  V30 17 C 18.012000 -13.344000 10.890000 0
M  V30 18 C 16.683000 -13.570000 11.130000 0
M  V30 19 C 19.673000 -22.793000 9.320000 0
M  V30 20 C 23.700000 -21.574000 9.668000 0
M  V30 21 C 20.020000 -21.509000 8.931000 0
M  V30 22 C 18.561000 -13.684000 9.668000 0
M  V30 23 C 20.615000 -23.653000 9.799000 0
M  V30 24 C 15.888000 -14.134000 10.149000 0
M  V30 25 C 21.317000 -21.082000 9.024000 0
M  V30 26 C 21.968000 -23.253000 9.915000 0
M  V30 27 C 17.782000 -14.271000 8.672000 0
M  V30 28 C 22.340000 -21.939000 9.531000 0
M  V30 29 C 16.408000 -14.486000 8.891000 0
M  V30 30 B 15.370000 -15.009000 7.818000 0
M  V30 31 H 13.957500 -16.305100 7.511900 0
M  V30 32 H 15.898900 -13.779700 6.410400 0
M  V30 33 H 25.539800 -22.202300 10.261100 0
M  V30 34 H 22.744500 -25.031600 10.654600 0
M  V30 35 H 20.199900 -18.705000 5.631300 0
M  V30 36 H 21.407800 -17.790300 6.240300 0
M  V30 37 H 19.887800 -16.135000 5.531400 0
M  V30 38 H 18.583000 -17.023300 5.949900 0
M  V30 39 H 18.820400 -19.593500 8.686900 0
M  V30 40 H 18.379100 -18.676400 7.409700 0
M  V30 41 H 19.702400 -15.728900 9.408600 0
M  V30 42 H 20.690100 -16.747400 8.600100 0
M  V30 43 H 17.751000 -14.795400 6.680800 0
M  V30 44 H 19.045800 -13.889100 7.091600 0
M  V30 45 H 19.086400 -17.865200 10.004300 0
M  V30 46 H 17.910800 -17.280800 9.033100 0
M  V30 47 H 18.585300 -12.933000 11.598800 0
M  V30 48 H 16.286900 -13.327000 12.015500 0
M  V30 49 H 18.721300 -23.091500 9.248400 0
M  V30 50 H 24.007100 -20.658600 9.407700 0
M  V30 51 H 19.317600 -20.889900 8.579800 0
M  V30 52 H 19.530000 -13.506600 9.496000 0
M  V30 53 H 20.347600 -24.577200 10.071700 0
M  V30 54 H 14.919600 -14.295400 10.339000 0
M  V30 55 H 20.142700 -15.361600 7.283000 0
M  V30 END ATOM
M  V30 BEGIN BOND
M  V30 1 2 1 2
M  V30 2 2 1 3
M  V30 3 1 1 7 CFG=3
M  V30 4 1 1 25
M  V30 5 1 4 30
M  V30 6 1 5 30
M  V30 7 2 6 9
M  V30 8 1 6 10
M  V30 9 1 7 11
M  V30 10 1 7 13
M  V30 11 1 8 12
M  V30 12 1 8 14
M  V30 13 1 8 15
M  V30 14 1 9 20
M  V30 15 2 10 26
M  V30 16 1 11 12
M  V30 17 1 13 16
M  V30 18 1 14 16
M  V30 19 1 15 27
M  V30 20 2 17 18
M  V30 21 1 17 22
M  V30 22 1 18 24
M  V30 23 1 19 21
M  V30 24 2 19 23
M  V30 25 2 20 28
M  V30 26 2 21 25
M  V30 27 2 22 27
M  V30 28 1 23 26
M  V30 29 2 24 29
M  V30 30 1 25 28
M  V30 31 1 26 28
M  V30 32 1 27 29
M  V30 33 1 29 30
M  V30 34 1 4 31
M  V30 35 1 5 32
M  V30 36 1 9 33
M  V30 37 1 10 34
M  V30 38 1 11 35 CFG=3
M  V30 39 1 11 36
M  V30 40 1 12 37 CFG=3
M  V30 41 1 12 38
M  V30 42 1 13 39 CFG=1
M  V30 43 1 13 40
M  V30 44 1 14 41 CFG=1
M  V30 45 1 14 42
M  V30 46 1 15 43 CFG=3
M  V30 47 1 15 44
M  V30 48 1 16 45 CFG=1
M  V30 49 1 16 46
M  V30 50 1 17 47
M  V30 51 1 18 48
M  V30 52 1 19 49
M  V30 53 1 20 50
M  V30 54 1 21 51
M  V30 55 1 22 52
M  V30 56 1 23 53
M  V30 57 1 24 54
M  V30 58 1 8 55 CFG=3
M  V30 END BOND
M  V30 END CTAB
M  END
>  <Ligand_Instance>  (136) 
6I2B_9LQ_A_401

>  <Dataset>  (136) 
PDB

>  <PDB_ID>  (136) 
6I2B

>  <Chain>  (136) 
A

>  <Resi>  (136) 
401

>  <Num_Resolved_Atoms>  (136) 
30

>  <Num_H_Atoms_ProtBoundConf>  (136) 
25

>  <Pocket>  (136) 
A

>  <SMILES>  (136) 
B(c1ccccc1CN2CCCN(CC2)S(=O)(=O)c3cccc4c3ccnc4)(O)O

>  <Name>  (136) 
[2-[(4-isoquinolin-5-ylsulfonyl-1,4-diazepan-1-yl)methyl]phenyl]boronic acid

>  <Num_Heavy_Atoms>  (136) 
30

>  <Num_Not_Resolved_Atoms>  (136) 
0

>  <ATP_Site>  (136) 
True

>  <Peripheral>  (136) 
True

>  <Standardized_SMILES>  (136) 
[H]OB(O[H])C1=C([H])C([H])=C([H])C([H])=C1C([H])([H])[N@+]1([H])C([H])([H])C([H])([H])N(S(=O)(=O)C2=C([H])C([H])=C([H])C3=C([H])N=C([H])C([H])=C32)C([H])([H])C([H])([H])C1([H])[H]

$$$$
9LQ
     RDKit          3D

  0  0  0  0  0  0  0  0  0  0999 V3000
M  V30 BEGIN CTAB
M  V30 COUNTS 55 58 0 0 0
M  V30 BEGIN ATOM
M  V30 1 S -19.288000 21.793000 -7.466000 0 CFG=1
M  V30 2 O -19.560000 22.770000 -6.460000 0
M  V30 3 O -18.421000 22.124000 -8.552000 0
M  V30 4 O -13.729000 14.609000 -5.877000 0
M  V30 5 O -15.250000 16.191000 -5.376000 0
M  V30 6 N -23.647000 24.107000 -9.560000 0
M  V30 7 N -18.629000 20.499000 -6.710000 0
M  V30 8 N -15.717000 18.856000 -6.050000 0 CFG=1 CHG=1
M  V30 9 C -22.406000 24.487000 -9.224000 0
M  V30 10 C -23.960000 22.823000 -9.422000 0
M  V30 11 C -18.015000 20.266000 -5.383000 0 CFG=2
M  V30 12 C -16.352000 19.912000 -5.252000 0 CFG=2
M  V30 13 C -18.322000 19.584000 -7.823000 0 CFG=2
M  V30 14 C -16.660000 18.106000 -6.809000 0 CFG=2
M  V30 15 C -14.317000 18.899000 -6.494000 0 CFG=2
M  V30 16 C -16.912000 19.146000 -7.844000 0 CFG=2
M  V30 17 C -13.283000 17.864000 -9.980000 0
M  V30 18 C -13.456000 16.502000 -9.955000 0
M  V30 19 C -22.494000 19.559000 -8.370000 0
M  V30 20 C -21.455000 23.640000 -8.740000 0
M  V30 21 C -21.217000 19.964000 -8.003000 0
M  V30 22 C -13.557000 18.614000 -8.846000 0
M  V30 23 C -23.402000 20.462000 -8.837000 0
M  V30 24 C -13.867000 15.877000 -8.789000 0
M  V30 25 C -20.854000 21.282000 -8.100000 0
M  V30 26 C -23.065000 21.835000 -8.956000 0
M  V30 27 C -13.992000 18.005000 -7.672000 0
M  V30 28 C -21.762000 22.265000 -8.593000 0
M  V30 29 C -14.107000 16.596000 -7.608000 0
M  V30 30 B -14.347000 15.756000 -6.284000 0
M  V30 31 H -13.071100 14.320000 -6.572400 0
M  V30 32 H -15.949600 15.489700 -5.239200 0
M  V30 33 H -22.163600 25.450800 -9.335400 0
M  V30 34 H -24.887800 22.538400 -9.663300 0
M  V30 35 H -18.505200 19.498000 -4.970900 0
M  V30 36 H -18.175900 21.092300 -4.843300 0
M  V30 37 H -15.867300 20.758700 -5.471500 0
M  V30 38 H -16.190900 19.674400 -4.294100 0
M  V30 39 H -18.522200 20.052100 -8.683700 0
M  V30 40 H -18.904700 18.775600 -7.739800 0
M  V30 41 H -17.480900 17.878600 -6.285100 0
M  V30 42 H -16.266900 17.270100 -7.192100 0
M  V30 43 H -13.739300 18.622600 -5.726000 0
M  V30 44 H -14.101700 19.841200 -6.750800 0
M  V30 45 H -16.322300 19.933800 -7.666100 0
M  V30 46 H -16.700500 18.768100 -8.745400 0
M  V30 47 H -12.960500 18.313600 -10.813000 0
M  V30 48 H -13.285300 15.961200 -10.778600 0
M  V30 49 H -22.749700 18.595500 -8.290800 0
M  V30 50 H -20.550100 23.985200 -8.491200 0
M  V30 51 H -20.559100 19.290400 -7.666300 0
M  V30 52 H -13.440400 19.606800 -8.872000 0
M  V30 53 H -24.316400 20.153100 -9.098800 0
M  V30 54 H -13.996300 14.885400 -8.788900 0
M  V30 55 H -15.595000 18.194300 -5.310200 0
M  V30 END ATOM
M  V30 BEGIN BOND
M  V30 1 2 1 2
M  V30 2 2 1 3
M  V30 3 1 1 7 CFG=1
M  V30 4 1 1 25
M  V30 5 1 4 30
M  V30 6 1 5 30
M  V30 7 2 6 9
M  V30 8 1 6 10
M  V30 9 1 7 11
M  V30 10 1 7 13
M  V30 11 1 8 12
M  V30 12 1 8 14
M  V30 13 1 8 15
M  V30 14 1 9 20
M  V30 15 2 10 26
M  V30 16 1 11 12
M  V30 17 1 13 16
M  V30 18 1 14 16
M  V30 19 1 15 27
M  V30 20 2 17 18
M  V30 21 1 17 22
M  V30 22 1 18 24
M  V30 23 1 19 21
M  V30 24 2 19 23
M  V30 25 2 20 28
M  V30 26 2 21 25
M  V30 27 2 22 27
M  V30 28 1 23 26
M  V30 29 2 24 29
M  V30 30 1 25 28
M  V30 31 1 26 28
M  V30 32 1 27 29
M  V30 33 1 29 30
M  V30 34 1 4 31
M  V30 35 1 5 32
M  V30 36 1 9 33
M  V30 37 1 10 34
M  V30 38 1 11 35 CFG=1
M  V30 39 1 11 36
M  V30 40 1 12 37 CFG=3
M  V30 41 1 12 38
M  V30 42 1 13 39 CFG=3
M  V30 43 1 13 40
M  V30 44 1 14 41 CFG=1
M  V30 45 1 14 42
M  V30 46 1 15 43 CFG=1
M  V30 47 1 15 44
M  V30 48 1 16 45 CFG=1
M  V30 49 1 16 46
M  V30 50 1 17 47
M  V30 51 1 18 48
M  V30 52 1 19 49
M  V30 53 1 20 50
M  V30 54 1 21 51
M  V30 55 1 22 52
M  V30 56 1 23 53
M  V30 57 1 24 54
M  V30 58 1 8 55 CFG=1
M  V30 END BOND
M  V30 END CTAB
M  END
>  <Ligand_Instance>  (137) 
6I2D_9LQ_A_401

>  <Dataset>  (137) 
PDB

>  <PDB_ID>  (137) 
6I2D

>  <Chain>  (137) 
A

>  <Resi>  (137) 
401

>  <Num_Resolved_Atoms>  (137) 
30

>  <Num_H_Atoms_ProtBoundConf>  (137) 
25

>  <Pocket>  (137) 
A

>  <SMILES>  (137) 
B(c1ccccc1CN2CCCN(CC2)S(=O)(=O)c3cccc4c3ccnc4)(O)O

>  <Name>  (137) 
[2-[(4-isoquinolin-5-ylsulfonyl-1,4-diazepan-1-yl)methyl]phenyl]boronic acid

>  <Num_Heavy_Atoms>  (137) 
30

>  <Num_Not_Resolved_Atoms>  (137) 
0

>  <ATP_Site>  (137) 
True

>  <Peripheral>  (137) 
False

>  <Standardized_SMILES>  (137) 
[H]OB(O[H])C1=C([H])C([H])=C([H])C([H])=C1C([H])([H])[N@@+]1([H])C([H])([H])C([H])([H])N(S(=O)(=O)C2=C([H])C([H])=C([H])C3=C([H])N=C([H])C([H])=C32)C([H])([H])C([H])([H])C1([H])[H]

$$$$
9NT
     RDKit          3D

  0  0  0  0  0  0  0  0  0  0999 V3000
M  V30 BEGIN CTAB
M  V30 COUNTS 28 29 0 0 0
M  V30 BEGIN ATOM
M  V30 1 O -12.431000 23.767000 -26.113000 0
M  V30 2 O -17.133000 25.912000 -22.478000 0
M  V30 3 O -16.327000 23.849000 -23.168000 0
M  V30 4 N -10.227000 24.115000 -27.608000 0 CFG=2 CHG=1
M  V30 5 N -13.000000 25.973000 -26.110000 0
M  V30 6 C -9.304000 24.097000 -26.433000 0 CFG=1
M  V30 7 C -17.219000 24.485000 -22.291000 0 CFG=2
M  V30 8 C -11.192000 25.258000 -27.536000 0 CFG=2
M  V30 9 C -15.623000 27.275000 -23.874000 0
M  V30 10 C -14.562000 27.201000 -24.760000 0
M  V30 11 C -14.669000 24.789000 -24.759000 0
M  V30 12 C -12.271000 24.920000 -26.514000 0
M  V30 13 C -16.165000 26.094000 -23.418000 0
M  V30 14 C -15.684000 24.873000 -23.836000 0
M  V30 15 C -14.087000 25.969000 -25.204000 0
M  V30 16 H -10.741100 23.257500 -27.629600 0
M  V30 17 H -12.745700 26.861100 -26.493000 0
M  V30 18 H -8.675900 23.323200 -26.514400 0
M  V30 19 H -8.781400 24.949200 -26.406500 0
M  V30 20 H -9.837000 24.006600 -25.591800 0
M  V30 21 H -18.151400 24.178400 -22.482200 0
M  V30 22 H -16.979900 24.256500 -21.347300 0
M  V30 23 H -11.610600 25.402400 -28.432600 0
M  V30 24 H -10.710400 26.088300 -27.255400 0
M  V30 25 H -15.984400 28.158000 -23.574600 0
M  V30 26 H -14.131000 28.042600 -25.085500 0
M  V30 27 H -14.358000 23.902200 -25.100900 0
M  V30 28 H -9.685500 24.200100 -28.444400 0
M  V30 END ATOM
M  V30 BEGIN BOND
M  V30 1 2 1 12
M  V30 2 1 2 7
M  V30 3 1 2 13
M  V30 4 1 3 7
M  V30 5 1 3 14
M  V30 6 1 4 6
M  V30 7 1 4 8
M  V30 8 1 5 12
M  V30 9 1 5 15
M  V30 10 1 8 12
M  V30 11 1 9 10
M  V30 12 2 9 13
M  V30 13 2 10 15
M  V30 14 2 11 14
M  V30 15 1 11 15
M  V30 16 1 13 14
M  V30 17 1 4 16 CFG=3
M  V30 18 1 5 17
M  V30 19 1 6 18 CFG=3
M  V30 20 1 6 19
M  V30 21 1 6 20
M  V30 22 1 7 21 CFG=3
M  V30 23 1 7 22
M  V30 24 1 8 23 CFG=3
M  V30 25 1 8 24
M  V30 26 1 9 25
M  V30 27 1 10 26
M  V30 28 1 11 27
M  V30 29 1 4 28
M  V30 END BOND
M  V30 END CTAB
M  END
>  <Ligand_Instance>  (138) 
5N1E_9NT_A_402

>  <Dataset>  (138) 
PDB

>  <PDB_ID>  (138) 
5N1E

>  <Chain>  (138) 
A

>  <Resi>  (138) 
402

>  <Num_Resolved_Atoms>  (138) 
15

>  <Num_H_Atoms_ProtBoundConf>  (138) 
13

>  <Pocket>  (138) 
A

>  <SMILES>  (138) 
c1cc2c(cc1NC(=O)C[NH+]3CCCCC3)OCO2

>  <Name>  (138) 
~{N}-(1,3-benzodioxol-5-yl)-2-piperidin-1-ium-1-yl-ethanamide

>  <Num_Heavy_Atoms>  (138) 
19

>  <Num_Not_Resolved_Atoms>  (138) 
4

>  <ATP_Site>  (138) 
True

>  <Peripheral>  (138) 
False

>  <Standardized_SMILES>  (138) 
[H]C1=C2OC([H])([H])OC2=C([H])C(N([H])C(=O)C([H])([H])[N+]([H])([H])C([H])([H])[H])=C1[H]

$$$$
A02
     RDKit          3D

  0  0  0  0  0  0  0  0  0  0999 V3000
M  V30 BEGIN CTAB
M  V30 COUNTS 140 142 0 0 0
M  V30 BEGIN ATOM
M  V30 1 O 14.818000 17.037000 3.109000 0
M  V30 2 O 15.948000 1.304000 4.678000 0
M  V30 3 O 17.531000 11.424000 1.274000 0
M  V30 4 O 11.519000 4.303000 10.537000 0
M  V30 5 O 15.731000 4.685000 5.008000 0
M  V30 6 O 16.280000 14.154000 1.455000 0
M  V30 7 O 9.735000 8.068000 12.479000 0
M  V30 8 O 8.391000 7.599000 10.228000 0
M  V30 9 O 8.910000 4.817000 11.234000 0
M  V30 10 N 20.210000 8.202000 8.227000 0 CFG=1 CHG=1
M  V30 11 N 16.150000 17.951000 1.530000 0
M  V30 12 N 16.967000 17.909000 9.101000 0 CHG=1
M  V30 13 N 18.178000 19.816000 8.648000 0
M  V30 14 N 12.255000 15.444000 1.040000 0 CHG=1
M  V30 15 N 12.312000 13.620000 -0.352000 0
M  V30 16 N 10.190000 3.130000 17.681000 0
M  V30 17 N 8.133000 4.103000 17.198000 0
M  V30 18 N 18.343000 18.071000 7.213000 0
M  V30 19 N 12.756000 13.316000 1.878000 0
M  V30 20 N 7.733000 5.107000 15.141000 0
M  V30 21 N 11.175000 4.898000 8.366000 0
M  V30 22 N 16.952000 4.645000 3.112000 0
M  V30 23 N 10.987000 3.930000 14.943000 0
M  V30 24 N 17.172000 2.585000 6.114000 0
M  V30 25 N 15.541000 11.690000 2.345000 0
M  V30 26 N 16.769000 14.985000 3.502000 0
M  V30 27 N 9.626000 5.008000 13.588000 0
M  V30 28 C 7.326000 4.763000 16.356000 0
M  V30 29 C 19.814000 6.785000 8.317000 0 CFG=2
M  V30 30 C 10.847000 4.467000 13.726000 0
M  V30 31 C 18.052000 16.745000 6.677000 0 CFG=2
M  V30 32 C 12.921000 13.754000 3.277000 0 CFG=2
M  V30 33 C 12.469000 4.444000 7.827000 0 CFG=2
M  V30 34 C 16.023000 5.486000 2.323000 0 CFG=2
M  V30 35 C 19.963000 6.110000 6.945000 0 CFG=2
M  V30 36 C 12.593000 2.919000 7.797000 0 CFG=2
M  V30 37 C 16.619000 6.880000 2.097000 0 CFG=2
M  V30 38 C 17.088000 16.925000 5.509000 0 CFG=2
M  V30 39 C 13.528000 12.591000 4.078000 0 CFG=2
M  V30 40 C 13.976000 2.580000 7.234000 0 CFG=2
M  V30 41 C 15.632000 7.769000 1.331000 0 CFG=2
M  V30 42 C 18.676000 5.354000 6.553000 0 CFG=2
M  V30 43 C 14.284000 1.079000 7.273000 0 CFG=2
M  V30 44 C 16.353000 8.796000 0.452000 0 CFG=2
M  V30 45 C 15.784000 0.810000 7.041000 0 CFG=2
M  V30 46 C 15.639000 10.158000 0.465000 0 CFG=2
M  V30 47 C 17.841000 17.095000 4.188000 0 CFG=2
M  V30 48 C 14.985000 12.864000 4.490000 0 CFG=2
M  V30 49 C 19.006000 4.214000 5.584000 0 CFG=2
M  V30 50 C 15.917000 17.140000 2.560000 0
M  V30 51 C 17.812000 18.584000 8.322000 0
M  V30 52 C 12.438000 14.136000 0.867000 0
M  V30 53 C 16.325000 1.585000 5.822000 0
M  V30 54 C 16.333000 11.155000 1.408000 0
M  V30 55 C 10.826000 4.824000 9.651000 0
M  V30 56 C 16.723000 4.327000 4.385000 0
M  V30 57 C 16.370000 14.016000 2.675000 0
M  V30 58 C 9.081000 5.728000 12.359000 0 CFG=1
M  V30 59 C 10.024000 6.832000 11.842000 0 CFG=1
M  V30 60 C 9.651000 6.915000 10.373000 0 CFG=1
M  V30 61 C 9.385000 3.773000 16.842000 0
M  V30 62 C 9.464000 5.438000 10.026000 0 CFG=2
M  V30 63 C 8.969000 4.792000 14.723000 0
M  V30 64 C 17.148000 16.341000 3.046000 0 CFG=2
M  V30 65 C 17.788000 3.424000 5.054000 0 CFG=2
M  V30 66 C 16.022000 12.668000 3.352000 0 CFG=2
M  V30 67 C 9.831000 4.117000 15.577000 0
M  V30 68 H 9.050400 8.565500 11.946300 0
M  V30 69 H 7.644800 6.934200 10.263400 0
M  V30 70 H 19.411400 8.757200 7.994700 0
M  V30 71 H 20.579600 8.501300 9.106700 0
M  V30 72 H 17.062700 17.993700 1.123700 0
M  V30 73 H 15.412200 18.517400 1.162700 0
M  V30 74 H 16.692200 16.979900 8.853400 0
M  V30 75 H 16.607800 18.331600 9.933100 0
M  V30 76 H 18.812100 20.320800 8.062200 0
M  V30 77 H 12.346600 15.845500 1.951300 0
M  V30 78 H 12.026000 16.024500 0.258600 0
M  V30 79 H 12.446600 12.639700 -0.496400 0
M  V30 80 H 12.082600 14.212300 -1.124400 0
M  V30 81 H 11.119400 2.892200 17.398800 0
M  V30 82 H 9.866400 2.883800 18.594600 0
M  V30 83 H 18.992400 18.639500 6.707800 0
M  V30 84 H 10.513900 5.287900 7.725000 0
M  V30 85 H 17.782600 4.302900 2.672500 0
M  V30 86 H 17.394300 2.770100 7.071200 0
M  V30 87 H 14.579100 11.417600 2.367500 0
M  V30 88 H 16.814200 14.784200 4.480600 0
M  V30 89 H 6.399900 5.000600 16.648900 0
M  V30 90 H 18.860800 6.725700 8.613600 0
M  V30 91 H 20.399200 6.319100 8.980700 0
M  V30 92 H 11.553100 4.465700 13.017900 0
M  V30 93 H 17.630500 16.176100 7.383200 0
M  V30 94 H 18.895800 16.312100 6.359800 0
M  V30 95 H 12.031400 14.001300 3.661100 0
M  V30 96 H 13.531600 14.545100 3.313900 0
M  V30 97 H 13.201300 4.813500 8.399000 0
M  V30 98 H 12.566900 4.791500 6.894400 0
M  V30 99 H 15.158500 5.574200 2.817800 0
M  V30 100 H 15.857500 5.051600 1.437600 0
M  V30 101 H 20.723900 5.462100 6.981000 0
M  V30 102 H 20.153200 6.809500 6.256100 0
M  V30 103 H 11.881500 2.530200 7.211700 0
M  V30 104 H 12.501500 2.550900 8.722300 0
M  V30 105 H 17.463600 6.794900 1.568500 0
M  V30 106 H 16.820500 7.299100 2.982300 0
M  V30 107 H 16.527600 17.737100 5.671400 0
M  V30 108 H 16.498100 16.120000 5.446400 0
M  V30 109 H 13.502300 11.764800 3.515200 0
M  V30 110 H 12.981500 12.449200 4.903400 0
M  V30 111 H 14.666900 3.061700 7.773200 0
M  V30 112 H 14.018700 2.890000 6.284200 0
M  V30 113 H 15.055800 8.254000 1.988900 0
M  V30 114 H 15.059800 7.190600 0.749600 0
M  V30 115 H 18.041300 5.988800 6.112300 0
M  V30 116 H 18.251600 4.975700 7.375700 0
M  V30 117 H 13.756100 0.619300 6.558800 0
M  V30 118 H 14.022200 0.715700 8.167100 0
M  V30 119 H 16.382400 8.454600 -0.487500 0
M  V30 120 H 17.285600 8.915900 0.792400 0
M  V30 121 H 15.916900 -0.169100 6.886700 0
M  V30 122 H 16.292600 1.091300 7.854700 0
M  V30 123 H 14.695700 10.026500 0.769800 0
M  V30 124 H 15.640600 10.533600 -0.461800 0
M  V30 125 H 18.769800 16.740300 4.295200 0
M  V30 126 H 17.880000 18.067600 3.958900 0
M  V30 127 H 15.220100 12.242700 5.237500 0
M  V30 128 H 15.047300 13.809300 4.810200 0
M  V30 129 H 19.609000 3.571500 6.056800 0
M  V30 130 H 19.485900 4.605200 4.798700 0
M  V30 131 H 8.196300 6.135200 12.585700 0
M  V30 132 H 10.983500 6.576600 11.960500 0
M  V30 133 H 10.372900 7.339700 9.826600 0
M  V30 134 H 8.822400 5.342200 9.265000 0
M  V30 135 H 17.791400 16.253200 2.285500 0
M  V30 136 H 18.127800 2.801400 4.349100 0
M  V30 137 H 16.859500 12.303300 3.758900 0
M  V30 138 H 20.907700 8.308800 7.518600 0
M  V30 139 H 17.820000 20.240400 9.479700 0
M  V30 140 H 12.889800 12.346800 1.671300 0
M  V30 END ATOM
M  V30 BEGIN BOND
M  V30 1 2 1 50
M  V30 2 2 2 53
M  V30 3 2 3 54
M  V30 4 2 4 55
M  V30 5 2 5 56
M  V30 6 2 6 57
M  V30 7 1 7 59
M  V30 8 1 8 60
M  V30 9 1 9 58
M  V30 10 1 9 62
M  V30 11 1 10 29
M  V30 12 1 11 50
M  V30 13 2 12 51
M  V30 14 1 13 51
M  V30 15 2 14 52
M  V30 16 1 15 52
M  V30 17 1 16 61
M  V30 18 1 17 28
M  V30 19 2 17 61
M  V30 20 1 18 31
M  V30 21 1 18 51
M  V30 22 1 19 32
M  V30 23 1 19 52
M  V30 24 2 20 28
M  V30 25 1 20 63
M  V30 26 1 21 33
M  V30 27 1 21 55
M  V30 28 1 22 34
M  V30 29 1 22 56
M  V30 30 2 23 30
M  V30 31 1 23 67
M  V30 32 1 24 53
M  V30 33 1 24 65
M  V30 34 1 25 54
M  V30 35 1 25 66
M  V30 36 1 26 57
M  V30 37 1 26 64
M  V30 38 1 27 30
M  V30 39 1 27 58
M  V30 40 1 27 63
M  V30 41 1 29 35
M  V30 42 1 31 38
M  V30 43 1 32 39
M  V30 44 1 33 36
M  V30 45 1 34 37
M  V30 46 1 35 42
M  V30 47 1 36 40
M  V30 48 1 37 41
M  V30 49 1 38 47
M  V30 50 1 39 48
M  V30 51 1 40 43
M  V30 52 1 41 44
M  V30 53 1 42 49
M  V30 54 1 43 45
M  V30 55 1 44 46
M  V30 56 1 45 53
M  V30 57 1 46 54
M  V30 58 1 47 64
M  V30 59 1 48 66
M  V30 60 1 49 65
M  V30 61 1 50 64
M  V30 62 1 55 62
M  V30 63 1 56 65
M  V30 64 1 57 66
M  V30 65 1 58 59
M  V30 66 1 59 60
M  V30 67 1 60 62
M  V30 68 1 61 67
M  V30 69 2 63 67
M  V30 70 1 7 68
M  V30 71 1 8 69
M  V30 72 1 10 70 CFG=3
M  V30 73 1 10 71
M  V30 74 1 11 72
M  V30 75 1 11 73
M  V30 76 1 12 74
M  V30 77 1 12 75
M  V30 78 1 13 76
M  V30 79 1 14 77
M  V30 80 1 14 78
M  V30 81 1 15 79
M  V30 82 1 15 80
M  V30 83 1 16 81
M  V30 84 1 16 82
M  V30 85 1 18 83
M  V30 86 1 21 84
M  V30 87 1 22 85
M  V30 88 1 24 86
M  V30 89 1 25 87
M  V30 90 1 26 88
M  V30 91 1 28 89
M  V30 92 1 29 90 CFG=1
M  V30 93 1 29 91
M  V30 94 1 30 92
M  V30 95 1 31 93 CFG=1
M  V30 96 1 31 94
M  V30 97 1 32 95 CFG=1
M  V30 98 1 32 96
M  V30 99 1 33 97 CFG=1
M  V30 100 1 33 98
M  V30 101 1 34 99 CFG=1
M  V30 102 1 34 100
M  V30 103 1 35 101 CFG=1
M  V30 104 1 35 102
M  V30 105 1 36 103 CFG=3
M  V30 106 1 36 104
M  V30 107 1 37 105 CFG=3
M  V30 108 1 37 106
M  V30 109 1 38 107 CFG=1
M  V30 110 1 38 108
M  V30 111 1 39 109 CFG=3
M  V30 112 1 39 110
M  V30 113 1 40 111 CFG=1
M  V30 114 1 40 112
M  V30 115 1 41 113 CFG=1
M  V30 116 1 41 114
M  V30 117 1 42 115 CFG=3
M  V30 118 1 42 116
M  V30 119 1 43 117 CFG=3
M  V30 120 1 43 118
M  V30 121 1 44 119 CFG=3
M  V30 122 1 44 120
M  V30 123 1 45 121 CFG=3
M  V30 124 1 45 122
M  V30 125 1 46 123 CFG=1
M  V30 126 1 46 124
M  V30 127 1 47 125 CFG=1
M  V30 128 1 47 126
M  V30 129 1 48 127 CFG=1
M  V30 130 1 48 128
M  V30 131 1 49 129 CFG=1
M  V30 132 1 49 130
M  V30 133 1 58 131 CFG=1
M  V30 134 1 59 132 CFG=3
M  V30 135 1 60 133 CFG=3
M  V30 136 1 62 134 CFG=3
M  V30 137 1 64 135 CFG=3
M  V30 138 1 65 136 CFG=3
M  V30 139 1 66 137 CFG=1
M  V30 140 1 10 138
M  V30 141 1 13 139
M  V30 142 1 19 140
M  V30 END BOND
M  V30 END CTAB
M  END
>  <Ligand_Instance>  (139) 
3AG9_A02_B_351

>  <Dataset>  (139) 
PDB

>  <PDB_ID>  (139) 
3AG9

>  <Chain>  (139) 
B

>  <Resi>  (139) 
351

>  <Num_Resolved_Atoms>  (139) 
67

>  <Num_H_Atoms_ProtBoundConf>  (139) 
73

>  <Pocket>  (139) 
A

>  <SMILES>  (139) 
[H]/N=C(\N)/NCCC[C@H](C(=O)N)NC(=O)[C@@H](CCCN/C(=N/[H])/N)NC(=O)CCCCCNC(=O)[C@@H](CCCCN)NC(=O)CCCCCNC(=O)[C@@H]1[C@H]([C@H]([C@@H](O1)n2cnc3c2ncnc3N)O)O

>  <Name>  (139) 
(10R,20R,23R)-10-(4-aminobutyl)-1-[(2S,3S,4R,5R)-5-(6-amino-9H-purin-9-yl)-3,4-dihydroxytetrahydrofuran-2-yl]-20,23-bis(3-carbamimidamidopropyl)-1,8,11,18,21-pentaoxo-2,9,12,19,22-pentaazatetracosan-24-amide

>  <Num_Heavy_Atoms>  (139) 
67

>  <Num_Not_Resolved_Atoms>  (139) 
0

>  <ATP_Site>  (139) 
True

>  <Peripheral>  (139) 
False

>  <Standardized_SMILES>  (139) 
[H]O[C@@]1([H])[C@@]([H])(O[H])[C@]([H])(N2C([H])=NC3=C2N=C([H])N=C3N([H])[H])O[C@]1([H])C(=O)N([H])C([H])([H])C([H])([H])C([H])([H])C([H])([H])C([H])([H])C(=O)N([H])[C@@]([H])(C(=O)N([H])C([H])([H])C([H])([H])C([H])([H])C([H])([H])C([H])([H])C(=O)N([H])[C@@]([H])(C(=O)N([H])[C@@]([H])(C(=O)N([H])[H])C([H])([H])C([H])([H])C([H])([H])N([H])C(N([H])[H])=[N+]([H])[H])C([H])([H])C([H])([H])C([H])([H])N([H])C(N([H])[H])=[N+]([H])[H])C([H])([H])C([H])([H])C([H])([H])C([H])([H])[N+]([H])([H])[H]

$$$$
A03
     RDKit          3D

  0  0  0  0  0  0  0  0  0  0999 V3000
M  V30 BEGIN CTAB
M  V30 COUNTS 128 130 0 0 0
M  V30 BEGIN ATOM
M  V30 1 O -25.069000 2.352000 17.222000 0
M  V30 2 O -14.738000 13.531000 12.173000 0
M  V30 3 O -19.462000 5.298000 17.722000 0
M  V30 4 O -16.582000 7.541000 6.964000 0
M  V30 5 O -15.305000 11.635000 15.007000 0
M  V30 6 O -22.332000 5.390000 18.735000 0
M  V30 7 O -20.976000 5.068000 5.980000 0
M  V30 8 O -19.049000 4.660000 7.931000 0
M  V30 9 O -19.102000 7.415000 5.686000 0
M  V30 10 N -20.281000 -2.242000 18.056000 0 CHG=1
M  V30 11 N -19.732000 -2.232000 15.829000 0
M  V30 12 N -21.491000 5.131000 10.638000 0 CHG=1
M  V30 13 N -23.165000 3.926000 11.729000 0
M  V30 14 N -24.818000 1.457000 19.266000 0
M  V30 15 N -16.102000 5.498000 -0.193000 0
M  V30 16 N -18.422000 5.221000 -0.190000 0
M  V30 17 N -19.607000 -0.272000 17.028000 0
M  V30 18 N -22.502000 6.012000 12.497000 0
M  V30 19 N -19.694000 5.528000 1.734000 0
M  V30 20 N -17.779000 8.017000 8.836000 0
M  V30 21 N -15.231000 9.970000 13.482000 0
M  V30 22 N -16.440000 6.177000 2.713000 0
M  V30 23 N -13.368000 11.716000 12.143000 0
M  V30 24 N -20.928000 6.809000 16.738000 0
M  V30 25 N -22.623000 3.653000 17.307000 0
M  V30 26 N -18.375000 6.194000 3.704000 0
M  V30 27 C -12.262000 10.530000 14.017000 0 CFG=1
M  V30 28 C -19.591000 5.226000 0.445000 0
M  V30 29 C -17.065000 6.389000 3.866000 0
M  V30 30 C -19.728000 0.467000 18.310000 0 CFG=2
M  V30 31 C -23.469000 6.014000 13.595000 0 CFG=2
M  V30 32 C -16.692000 8.718000 9.538000 0 CFG=2
M  V30 33 C -16.518000 9.381000 13.875000 0 CFG=2
M  V30 34 C -16.702000 10.208000 9.174000 0 CFG=2
M  V30 35 C -16.255000 8.279000 14.891000 0 CFG=2
M  V30 36 C -15.367000 10.783000 9.638000 0 CFG=2
M  V30 37 C -16.865000 8.573000 16.265000 0 CFG=2
M  V30 38 C -20.522000 1.767000 18.062000 0 CFG=2
M  V30 39 C -23.128000 7.146000 14.572000 0 CFG=2
M  V30 40 C -15.195000 12.273000 9.336000 0 CFG=2
M  V30 41 C -18.351000 8.212000 16.272000 0 CFG=2
M  V30 42 C -13.936000 12.793000 10.038000 0 CFG=2
M  V30 43 C -18.813000 7.642000 17.599000 0 CFG=2
M  V30 44 C -22.017000 1.418000 18.168000 0 CFG=2
M  V30 45 C -23.258000 6.622000 16.006000 0 CFG=2
M  V30 46 C -19.875000 -1.579000 16.975000 0
M  V30 47 C -22.388000 5.003000 11.628000 0
M  V30 48 C -24.387000 2.140000 18.223000 0
M  V30 49 C -14.052000 12.715000 11.564000 0
M  V30 50 C -19.776000 6.465000 17.360000 0
M  V30 51 C -17.633000 7.501000 7.613000 0
M  V30 52 C -14.743000 11.053000 14.080000 0
M  V30 53 C -22.341000 4.930000 17.600000 0
M  V30 54 C -19.426000 6.339000 4.753000 0 CFG=1
M  V30 55 C -17.279000 5.512000 0.451000 0
M  V30 56 C -19.605000 5.090000 5.595000 0 CFG=1
M  V30 57 C -18.652000 5.360000 6.777000 0 CFG=1
M  V30 58 C -18.872000 6.842000 7.006000 0 CFG=2
M  V30 59 C -18.589000 5.853000 2.436000 0
M  V30 60 C -13.363000 11.525000 13.587000 0 CFG=2
M  V30 61 C -22.933000 2.637000 18.328000 0 CFG=2
M  V30 62 C -22.007000 5.837000 16.413000 0 CFG=2
M  V30 63 C -17.351000 5.849000 1.804000 0
M  V30 64 H -21.066100 4.613400 6.866100 0
M  V30 65 H -18.610900 3.761100 7.942800 0
M  V30 66 H -20.392400 -1.760500 18.925300 0
M  V30 67 H -20.474500 -3.221400 17.998500 0
M  V30 68 H -19.427700 -1.744700 15.010500 0
M  V30 69 H -20.919200 5.949600 10.584100 0
M  V30 70 H -21.394400 4.407700 9.954200 0
M  V30 71 H -23.825800 3.854500 12.476100 0
M  V30 72 H -23.087600 3.188900 11.057700 0
M  V30 73 H -24.218300 1.315700 20.053700 0
M  V30 74 H -25.744400 1.080500 19.269000 0
M  V30 75 H -15.259900 5.717300 0.299600 0
M  V30 76 H -16.066900 5.268300 -1.165600 0
M  V30 77 H -19.323300 0.211600 16.199900 0
M  V30 78 H -18.663200 7.923200 9.293600 0
M  V30 79 H -14.707100 9.544700 12.744000 0
M  V30 80 H -12.847500 11.085400 11.567300 0
M  V30 81 H -21.061000 7.766900 16.483400 0
M  V30 82 H -22.623000 3.375500 16.346300 0
M  V30 83 H -12.282600 10.419100 15.010600 0
M  V30 84 H -12.422800 9.645300 13.579400 0
M  V30 85 H -11.368000 10.881600 13.739300 0
M  V30 86 H -20.419400 4.994700 -0.065200 0
M  V30 87 H -16.622200 6.653700 4.722700 0
M  V30 88 H -18.816900 0.690600 18.656300 0
M  V30 89 H -20.209600 -0.098400 18.979600 0
M  V30 90 H -23.431500 5.137100 14.074200 0
M  V30 91 H -24.388900 6.154900 13.229100 0
M  V30 92 H -15.814800 8.318600 9.271500 0
M  V30 93 H -16.817600 8.618100 10.525000 0
M  V30 94 H -16.972700 8.997200 13.071300 0
M  V30 95 H -17.100100 10.084200 14.283300 0
M  V30 96 H -17.456700 10.671100 9.638800 0
M  V30 97 H -16.800400 10.320400 8.185200 0
M  V30 98 H -15.266300 8.173100 14.997400 0
M  V30 99 H -16.646200 7.426400 14.544600 0
M  V30 100 H -14.632400 10.282200 9.180300 0
M  V30 101 H -15.294300 10.651700 10.626700 0
M  V30 102 H -16.760600 9.545900 16.471300 0
M  V30 103 H -16.390500 8.032200 16.959500 0
M  V30 104 H -20.317800 2.124000 17.150500 0
M  V30 105 H -20.280900 2.451600 18.749800 0
M  V30 106 H -23.759800 7.908900 14.435100 0
M  V30 107 H -22.190900 7.456300 14.411900 0
M  V30 108 H -15.993500 12.775000 9.668100 0
M  V30 109 H -15.105100 12.405100 8.348800 0
M  V30 110 H -18.517800 7.532600 15.557400 0
M  V30 111 H -18.880900 9.037400 16.077400 0
M  V30 112 H -13.790400 13.746500 9.774200 0
M  V30 113 H -13.153600 12.243100 9.745700 0
M  V30 114 H -19.283600 8.354400 18.119500 0
M  V30 115 H -18.019400 7.320800 18.115700 0
M  V30 116 H -22.145200 0.822300 18.960900 0
M  V30 117 H -22.285500 0.930000 17.337500 0
M  V30 118 H -24.055500 6.021600 16.064700 0
M  V30 119 H -23.376700 7.395700 16.628400 0
M  V30 120 H -20.295600 6.552300 4.307700 0
M  V30 121 H -19.347800 4.264400 5.092700 0
M  V30 122 H -17.701900 5.162300 6.535800 0
M  V30 123 H -19.667900 6.989400 7.593200 0
M  V30 124 H -13.166800 12.407200 14.015000 0
M  V30 125 H -22.790100 3.033700 19.234700 0
M  V30 126 H -21.713500 5.270400 15.643000 0
M  V30 127 H -19.928500 -3.211500 15.783700 0
M  V30 128 H -21.898300 6.802300 12.391900 0
M  V30 END ATOM
M  V30 BEGIN BOND
M  V30 1 2 1 48
M  V30 2 2 2 49
M  V30 3 2 3 50
M  V30 4 2 4 51
M  V30 5 2 5 52
M  V30 6 2 6 53
M  V30 7 1 7 56
M  V30 8 1 8 57
M  V30 9 1 9 54
M  V30 10 1 9 58
M  V30 11 2 10 46
M  V30 12 1 11 46
M  V30 13 2 12 47
M  V30 14 1 13 47
M  V30 15 1 14 48
M  V30 16 1 15 55
M  V30 17 1 16 28
M  V30 18 2 16 55
M  V30 19 1 17 30
M  V30 20 1 17 46
M  V30 21 1 18 31
M  V30 22 1 18 47
M  V30 23 2 19 28
M  V30 24 1 19 59
M  V30 25 1 20 32
M  V30 26 1 20 51
M  V30 27 1 21 33
M  V30 28 1 21 52
M  V30 29 2 22 29
M  V30 30 1 22 63
M  V30 31 1 23 49
M  V30 32 1 23 60
M  V30 33 1 24 50
M  V30 34 1 24 62
M  V30 35 1 25 53
M  V30 36 1 25 61
M  V30 37 1 26 29
M  V30 38 1 26 54
M  V30 39 1 26 59
M  V30 40 1 27 60
M  V30 41 1 30 38
M  V30 42 1 31 39
M  V30 43 1 32 34
M  V30 44 1 33 35
M  V30 45 1 34 36
M  V30 46 1 35 37
M  V30 47 1 36 40
M  V30 48 1 37 41
M  V30 49 1 38 44
M  V30 50 1 39 45
M  V30 51 1 40 42
M  V30 52 1 41 43
M  V30 53 1 42 49
M  V30 54 1 43 50
M  V30 55 1 44 61
M  V30 56 1 45 62
M  V30 57 1 48 61
M  V30 58 1 51 58
M  V30 59 1 52 60
M  V30 60 1 53 62
M  V30 61 1 54 56
M  V30 62 1 55 63
M  V30 63 1 56 57
M  V30 64 1 57 58
M  V30 65 2 59 63
M  V30 66 1 7 64
M  V30 67 1 8 65
M  V30 68 1 10 66
M  V30 69 1 10 67
M  V30 70 1 11 68
M  V30 71 1 12 69
M  V30 72 1 12 70
M  V30 73 1 13 71
M  V30 74 1 13 72
M  V30 75 1 14 73
M  V30 76 1 14 74
M  V30 77 1 15 75
M  V30 78 1 15 76
M  V30 79 1 17 77
M  V30 80 1 20 78
M  V30 81 1 21 79
M  V30 82 1 23 80
M  V30 83 1 24 81
M  V30 84 1 25 82
M  V30 85 1 27 83 CFG=1
M  V30 86 1 27 84
M  V30 87 1 27 85
M  V30 88 1 28 86
M  V30 89 1 29 87
M  V30 90 1 30 88 CFG=1
M  V30 91 1 30 89
M  V30 92 1 31 90 CFG=1
M  V30 93 1 31 91
M  V30 94 1 32 92 CFG=3
M  V30 95 1 32 93
M  V30 96 1 33 94 CFG=3
M  V30 97 1 33 95
M  V30 98 1 34 96 CFG=1
M  V30 99 1 34 97
M  V30 100 1 35 98 CFG=1
M  V30 101 1 35 99
M  V30 102 1 36 100 CFG=3
M  V30 103 1 36 101
M  V30 104 1 37 102 CFG=1
M  V30 105 1 37 103
M  V30 106 1 38 104 CFG=3
M  V30 107 1 38 105
M  V30 108 1 39 106 CFG=1
M  V30 109 1 39 107
M  V30 110 1 40 108 CFG=1
M  V30 111 1 40 109
M  V30 112 1 41 110 CFG=3
M  V30 113 1 41 111
M  V30 114 1 42 112 CFG=1
M  V30 115 1 42 113
M  V30 116 1 43 114 CFG=1
M  V30 117 1 43 115
M  V30 118 1 44 116 CFG=1
M  V30 119 1 44 117
M  V30 120 1 45 118 CFG=3
M  V30 121 1 45 119
M  V30 122 1 54 120 CFG=3
M  V30 123 1 56 121 CFG=3
M  V30 124 1 57 122 CFG=3
M  V30 125 1 58 123 CFG=1
M  V30 126 1 60 124 CFG=1
M  V30 127 1 61 125 CFG=1
M  V30 128 1 62 126 CFG=3
M  V30 129 1 11 127
M  V30 130 1 18 128
M  V30 END BOND
M  V30 END CTAB
M  END
>  <Ligand_Instance>  (140) 
3AGL_A03_A_351

>  <Dataset>  (140) 
PDB

>  <PDB_ID>  (140) 
3AGL

>  <Chain>  (140) 
A

>  <Resi>  (140) 
351

>  <Num_Resolved_Atoms>  (140) 
63

>  <Num_H_Atoms_ProtBoundConf>  (140) 
65

>  <Pocket>  (140) 
A

>  <SMILES>  (140) 
[H]/N=C(\N)/NCCC[C@H](C(=O)N)NC(=O)[C@@H](CCCN/C(=N/[H])/N)NC(=O)CCCCCNC(=O)[C@@H](C)NC(=O)CCCCCNC(=O)[C@@H]1[C@H]([C@H]([C@@H](O1)n2cnc3c2ncnc3N)O)O

>  <Name>  (140) 
(10R,20R,23R)-1-[(2S,3S,4R,5R)-5-(6-amino-9H-purin-9-yl)-3,4-dihydroxytetrahydrofuran-2-yl]-20,23-bis(3-carbamimidamido
propyl)-10-methyl-1,8,11,18,21-pentaoxo-2,9,12,19,22-pentaazatetracosan-24-amide

>  <Num_Heavy_Atoms>  (140) 
63

>  <Num_Not_Resolved_Atoms>  (140) 
0

>  <ATP_Site>  (140) 
True

>  <Peripheral>  (140) 
False

>  <Standardized_SMILES>  (140) 
[H]O[C@@]1([H])[C@@]([H])(O[H])[C@]([H])(N2C([H])=NC3=C2N=C([H])N=C3N([H])[H])O[C@]1([H])C(=O)N([H])C([H])([H])C([H])([H])C([H])([H])C([H])([H])C([H])([H])C(=O)N([H])[C@@]([H])(C(=O)N([H])C([H])([H])C([H])([H])C([H])([H])C([H])([H])C([H])([H])C(=O)N([H])[C@@]([H])(C(=O)N([H])[C@@]([H])(C(=O)N([H])[H])C([H])([H])C([H])([H])C([H])([H])N([H])C(N([H])[H])=[N+]([H])[H])C([H])([H])C([H])([H])C([H])([H])N([H])C(N([H])[H])=[N+]([H])[H])C([H])([H])[H]

$$$$
A03
     RDKit          3D

  0  0  0  0  0  0  0  0  0  0999 V3000
M  V30 BEGIN CTAB
M  V30 COUNTS 128 130 0 0 0
M  V30 BEGIN ATOM
M  V30 1 O -25.403000 51.462000 -15.708000 0
M  V30 2 O -15.547000 62.918000 -20.676000 0
M  V30 3 O -19.596000 54.581000 -15.793000 0
M  V30 4 O -17.062000 56.791000 -25.771000 0
M  V30 5 O -16.021000 61.012000 -17.882000 0
M  V30 6 O -22.598000 54.464000 -14.190000 0
M  V30 7 O -21.283000 54.466000 -27.072000 0
M  V30 8 O -19.372000 54.167000 -25.161000 0
M  V30 9 O -19.561000 56.994000 -27.398000 0
M  V30 10 N -20.358000 46.832000 -15.241000 0 CHG=1
M  V30 11 N -20.033000 47.111000 -17.498000 0
M  V30 12 N -21.761000 54.439000 -22.451000 0 CHG=1
M  V30 13 N -23.562000 53.222000 -21.670000 0
M  V30 14 N -24.961000 50.668000 -13.639000 0
M  V30 15 N -16.271000 55.029000 -33.183000 0
M  V30 16 N -18.584000 54.720000 -33.256000 0
M  V30 17 N -20.020000 48.961000 -16.119000 0
M  V30 18 N -22.809000 55.132000 -20.545000 0
M  V30 19 N -19.932000 55.115000 -31.394000 0
M  V30 20 N -18.436000 57.665000 -24.212000 0
M  V30 21 N -15.934000 59.380000 -19.451000 0
M  V30 22 N -16.712000 55.766000 -30.298000 0
M  V30 23 N -14.059000 61.184000 -20.712000 0
M  V30 24 N -21.295000 56.084000 -16.014000 0
M  V30 25 N -22.934000 52.872000 -15.774000 0
M  V30 26 N -18.700000 55.798000 -29.386000 0
M  V30 27 C -13.009000 59.855000 -18.876000 0 CFG=1
M  V30 28 C -19.783000 54.764000 -32.669000 0
M  V30 29 C -17.394000 55.989000 -29.173000 0
M  V30 30 C -20.033000 49.605000 -14.786000 0 CFG=2
M  V30 31 C -23.807000 55.082000 -19.462000 0 CFG=2
M  V30 32 C -17.340000 58.285000 -23.448000 0 CFG=2
M  V30 33 C -17.241000 58.766000 -19.120000 0 CFG=2
M  V30 34 C -17.337000 59.793000 -23.730000 0 CFG=2
M  V30 35 C -17.027000 57.548000 -18.187000 0 CFG=2
M  V30 36 C -15.923000 60.339000 -23.619000 0 CFG=2
M  V30 37 C -17.288000 57.864000 -16.703000 0 CFG=2
M  V30 38 C -20.822000 50.904000 -14.813000 0 CFG=2
M  V30 39 C -23.485000 56.220000 -18.466000 0 CFG=2
M  V30 40 C -15.894000 61.869000 -23.532000 0 CFG=2
M  V30 41 C -18.782000 57.826000 -16.367000 0 CFG=2
M  V30 42 C -14.621000 62.297000 -22.799000 0 CFG=2
M  V30 43 C -19.115000 56.858000 -15.216000 0 CFG=2
M  V30 44 C -22.268000 50.603000 -15.207000 0 CFG=2
M  V30 45 C -23.587000 55.776000 -16.995000 0 CFG=2
M  V30 46 C -20.142000 47.637000 -16.282000 0
M  V30 47 C -22.729000 54.261000 -21.554000 0
M  V30 48 C -24.634000 51.292000 -14.766000 0
M  V30 49 C -14.783000 62.161000 -21.279000 0
M  V30 50 C -20.040000 55.728000 -15.695000 0
M  V30 51 C -18.194000 56.977000 -25.327000 0
M  V30 52 C -15.441000 60.429000 -18.789000 0
M  V30 53 C -22.623000 54.104000 -15.369000 0
M  V30 54 C -19.831000 55.931000 -28.366000 0 CFG=1
M  V30 55 C -17.467000 55.052000 -32.579000 0
M  V30 56 C -19.944000 54.629000 -27.532000 0 CFG=1
M  V30 57 C -19.035000 54.926000 -26.335000 0 CFG=1
M  V30 58 C -19.381000 56.384000 -26.074000 0 CFG=2
M  V30 59 C -18.851000 55.446000 -30.658000 0
M  V30 60 C -14.063000 60.904000 -19.252000 0 CFG=2
M  V30 61 C -23.172000 51.770000 -14.819000 0 CFG=2
M  V30 62 C -22.296000 55.102000 -16.500000 0 CFG=2
M  V30 63 C -17.588000 55.427000 -31.239000 0
M  V30 64 H -21.278800 53.974200 -26.201300 0
M  V30 65 H -19.295000 53.190400 -25.361900 0
M  V30 66 H -20.441800 47.215500 -14.321300 0
M  V30 67 H -20.436100 45.844800 -15.380100 0
M  V30 68 H -19.871000 47.704100 -18.286700 0
M  V30 69 H -21.137000 55.215700 -22.365700 0
M  V30 70 H -21.658100 53.795900 -23.209900 0
M  V30 71 H -24.289500 53.086800 -20.997300 0
M  V30 72 H -23.457700 52.579900 -22.429500 0
M  V30 73 H -24.284000 50.564200 -12.910400 0
M  V30 74 H -25.884000 50.302300 -13.519700 0
M  V30 75 H -15.448000 55.277100 -32.672000 0
M  V30 76 H -16.201500 54.763800 -34.144700 0
M  V30 77 H -19.916000 49.537100 -16.929700 0
M  V30 78 H -19.377200 57.762000 -23.888500 0
M  V30 79 H -15.398900 58.992400 -20.201600 0
M  V30 80 H -13.486900 60.614500 -21.302200 0
M  V30 81 H -21.564000 57.042600 -15.921000 0
M  V30 82 H -23.008400 52.688400 -16.754200 0
M  V30 83 H -13.038800 59.691000 -17.890000 0
M  V30 84 H -13.199700 59.001900 -19.361700 0
M  V30 85 H -12.101300 60.188100 -19.131200 0
M  V30 86 H -20.593600 54.525900 -33.204000 0
M  V30 87 H -16.988300 56.259000 -28.299800 0
M  V30 88 H -19.092300 49.800000 -14.508400 0
M  V30 89 H -20.452800 48.981600 -14.126300 0
M  V30 90 H -23.758500 54.198600 -18.995800 0
M  V30 91 H -24.724300 55.210000 -19.839100 0
M  V30 92 H -16.466500 57.888000 -23.729900 0
M  V30 93 H -17.478700 58.125500 -22.470600 0
M  V30 94 H -17.689000 58.464800 -19.961800 0
M  V30 95 H -17.817400 59.440500 -18.658600 0
M  V30 96 H -17.923800 60.255500 -23.065400 0
M  V30 97 H -17.684400 59.958100 -24.653100 0
M  V30 98 H -16.081700 57.236400 -18.283600 0
M  V30 99 H -17.649100 56.818100 -18.470200 0
M  V30 100 H -15.403900 60.053000 -24.424500 0
M  V30 101 H -15.496700 59.962200 -22.796600 0
M  V30 102 H -16.933600 58.776600 -16.499300 0
M  V30 103 H -16.812400 57.188300 -16.139800 0
M  V30 104 H -20.416200 51.528500 -15.480400 0
M  V30 105 H -20.802900 51.326300 -13.906700 0
M  V30 106 H -24.129400 56.969300 -18.618500 0
M  V30 107 H -22.553800 56.541000 -18.638500 0
M  V30 108 H -16.695900 62.192400 -23.029700 0
M  V30 109 H -15.898400 62.258200 -24.453200 0
M  V30 110 H -19.284700 57.537300 -17.181800 0
M  V30 111 H -19.073100 58.745900 -16.104200 0
M  V30 112 H -14.421700 63.251300 -23.021600 0
M  V30 113 H -13.862000 61.719200 -23.099100 0
M  V30 114 H -19.570300 57.364900 -14.484100 0
M  V30 115 H -18.266200 56.460100 -14.867800 0
M  V30 116 H -22.574100 49.776400 -14.734700 0
M  V30 117 H -22.318400 50.460200 -16.195500 0
M  V30 118 H -24.343100 55.127700 -16.906100 0
M  V30 119 H -23.768500 56.579500 -16.428000 0
M  V30 120 H -20.694900 56.110200 -28.836700 0
M  V30 121 H -19.629700 53.831300 -28.046600 0
M  V30 122 H -18.070100 54.817700 -26.574400 0
M  V30 123 H -20.217100 56.459600 -25.530700 0
M  V30 124 H -13.846000 61.752800 -18.769800 0
M  V30 125 H -22.909300 52.082000 -13.906000 0
M  V30 126 H -21.894200 54.593800 -17.261800 0
M  V30 127 H -20.113000 46.122200 -17.624100 0
M  V30 128 H -22.140300 55.875200 -20.522600 0
M  V30 END ATOM
M  V30 BEGIN BOND
M  V30 1 2 1 48
M  V30 2 2 2 49
M  V30 3 2 3 50
M  V30 4 2 4 51
M  V30 5 2 5 52
M  V30 6 2 6 53
M  V30 7 1 7 56
M  V30 8 1 8 57
M  V30 9 1 9 54
M  V30 10 1 9 58
M  V30 11 2 10 46
M  V30 12 1 11 46
M  V30 13 2 12 47
M  V30 14 1 13 47
M  V30 15 1 14 48
M  V30 16 1 15 55
M  V30 17 1 16 28
M  V30 18 2 16 55
M  V30 19 1 17 30
M  V30 20 1 17 46
M  V30 21 1 18 31
M  V30 22 1 18 47
M  V30 23 2 19 28
M  V30 24 1 19 59
M  V30 25 1 20 32
M  V30 26 1 20 51
M  V30 27 1 21 33
M  V30 28 1 21 52
M  V30 29 2 22 29
M  V30 30 1 22 63
M  V30 31 1 23 49
M  V30 32 1 23 60
M  V30 33 1 24 50
M  V30 34 1 24 62
M  V30 35 1 25 53
M  V30 36 1 25 61
M  V30 37 1 26 29
M  V30 38 1 26 54
M  V30 39 1 26 59
M  V30 40 1 27 60
M  V30 41 1 30 38
M  V30 42 1 31 39
M  V30 43 1 32 34
M  V30 44 1 33 35
M  V30 45 1 34 36
M  V30 46 1 35 37
M  V30 47 1 36 40
M  V30 48 1 37 41
M  V30 49 1 38 44
M  V30 50 1 39 45
M  V30 51 1 40 42
M  V30 52 1 41 43
M  V30 53 1 42 49
M  V30 54 1 43 50
M  V30 55 1 44 61
M  V30 56 1 45 62
M  V30 57 1 48 61
M  V30 58 1 51 58
M  V30 59 1 52 60
M  V30 60 1 53 62
M  V30 61 1 54 56
M  V30 62 1 55 63
M  V30 63 1 56 57
M  V30 64 1 57 58
M  V30 65 2 59 63
M  V30 66 1 7 64
M  V30 67 1 8 65
M  V30 68 1 10 66
M  V30 69 1 10 67
M  V30 70 1 11 68
M  V30 71 1 12 69
M  V30 72 1 12 70
M  V30 73 1 13 71
M  V30 74 1 13 72
M  V30 75 1 14 73
M  V30 76 1 14 74
M  V30 77 1 15 75
M  V30 78 1 15 76
M  V30 79 1 17 77
M  V30 80 1 20 78
M  V30 81 1 21 79
M  V30 82 1 23 80
M  V30 83 1 24 81
M  V30 84 1 25 82
M  V30 85 1 27 83 CFG=1
M  V30 86 1 27 84
M  V30 87 1 27 85
M  V30 88 1 28 86
M  V30 89 1 29 87
M  V30 90 1 30 88 CFG=1
M  V30 91 1 30 89
M  V30 92 1 31 90 CFG=1
M  V30 93 1 31 91
M  V30 94 1 32 92 CFG=3
M  V30 95 1 32 93
M  V30 96 1 33 94 CFG=3
M  V30 97 1 33 95
M  V30 98 1 34 96 CFG=1
M  V30 99 1 34 97
M  V30 100 1 35 98 CFG=1
M  V30 101 1 35 99
M  V30 102 1 36 100 CFG=3
M  V30 103 1 36 101
M  V30 104 1 37 102 CFG=1
M  V30 105 1 37 103
M  V30 106 1 38 104 CFG=3
M  V30 107 1 38 105
M  V30 108 1 39 106 CFG=1
M  V30 109 1 39 107
M  V30 110 1 40 108 CFG=1
M  V30 111 1 40 109
M  V30 112 1 41 110 CFG=3
M  V30 113 1 41 111
M  V30 114 1 42 112 CFG=1
M  V30 115 1 42 113
M  V30 116 1 43 114 CFG=1
M  V30 117 1 43 115
M  V30 118 1 44 116 CFG=1
M  V30 119 1 44 117
M  V30 120 1 45 118 CFG=3
M  V30 121 1 45 119
M  V30 122 1 54 120 CFG=3
M  V30 123 1 56 121 CFG=3
M  V30 124 1 57 122 CFG=3
M  V30 125 1 58 123 CFG=1
M  V30 126 1 60 124 CFG=1
M  V30 127 1 61 125 CFG=1
M  V30 128 1 62 126 CFG=3
M  V30 129 1 11 127
M  V30 130 1 18 128
M  V30 END BOND
M  V30 END CTAB
M  END
>  <Ligand_Instance>  (141) 
3AGL_A03_B_351

>  <Dataset>  (141) 
PDB

>  <PDB_ID>  (141) 
3AGL

>  <Chain>  (141) 
B

>  <Resi>  (141) 
351

>  <Num_Resolved_Atoms>  (141) 
63

>  <Num_H_Atoms_ProtBoundConf>  (141) 
65

>  <Pocket>  (141) 
A

>  <SMILES>  (141) 
[H]/N=C(\N)/NCCC[C@H](C(=O)N)NC(=O)[C@@H](CCCN/C(=N/[H])/N)NC(=O)CCCCCNC(=O)[C@@H](C)NC(=O)CCCCCNC(=O)[C@@H]1[C@H]([C@H]([C@@H](O1)n2cnc3c2ncnc3N)O)O

>  <Name>  (141) 
(10R,20R,23R)-1-[(2S,3S,4R,5R)-5-(6-amino-9H-purin-9-yl)-3,4-dihydroxytetrahydrofuran-2-yl]-20,23-bis(3-carbamimidamido
propyl)-10-methyl-1,8,11,18,21-pentaoxo-2,9,12,19,22-pentaazatetracosan-24-amide

>  <Num_Heavy_Atoms>  (141) 
63

>  <Num_Not_Resolved_Atoms>  (141) 
0

>  <ATP_Site>  (141) 
True

>  <Peripheral>  (141) 
False

>  <Standardized_SMILES>  (141) 
[H]O[C@@]1([H])[C@@]([H])(O[H])[C@]([H])(N2C([H])=NC3=C2N=C([H])N=C3N([H])[H])O[C@]1([H])C(=O)N([H])C([H])([H])C([H])([H])C([H])([H])C([H])([H])C([H])([H])C(=O)N([H])[C@@]([H])(C(=O)N([H])C([H])([H])C([H])([H])C([H])([H])C([H])([H])C([H])([H])C(=O)N([H])[C@@]([H])(C(=O)N([H])[C@@]([H])(C(=O)N([H])[H])C([H])([H])C([H])([H])C([H])([H])N([H])C(N([H])[H])=[N+]([H])[H])C([H])([H])C([H])([H])C([H])([H])N([H])C(N([H])[H])=[N+]([H])[H])C([H])([H])[H]

$$$$
ACP
     RDKit          3D

  0  0  0  0  0  0  0  0  0  0999 V3000
M  V30 BEGIN CTAB
M  V30 COUNTS 45 47 0 0 0
M  V30 BEGIN ATOM
M  V30 1 P -5.076000 10.503000 -13.658000 0 CFG=1
M  V30 2 P -0.789000 11.049000 -16.013000 0 CFG=2
M  V30 3 P -2.330000 11.498000 -13.343000 0 CFG=1
M  V30 4 O -6.035000 11.613000 -13.367000 0
M  V30 5 O -4.834000 10.170000 -15.070000 0 CHG=-1
M  V30 6 O 0.609000 10.507000 -16.154000 0
M  V30 7 O -1.563000 10.596000 -17.203000 0 CHG=-1
M  V30 8 O -0.710000 12.522000 -15.896000 0 CHG=-1
M  V30 9 O -2.826000 12.688000 -14.048000 0
M  V30 10 O -1.460000 11.675000 -12.139000 0 CHG=-1
M  V30 11 O -7.058000 4.471000 -14.483000 0
M  V30 12 O -5.600000 6.490000 -15.799000 0
M  V30 13 O -3.674000 10.735000 -12.865000 0
M  V30 14 O -5.595000 9.160000 -12.944000 0
M  V30 15 O -6.667000 6.637000 -12.322000 0
M  V30 16 N -13.215000 8.999000 -12.068000 0
M  V30 17 N -12.973000 6.639000 -12.142000 0
M  V30 18 N -10.876000 5.569000 -12.470000 0
M  V30 19 N -10.082000 9.053000 -12.535000 0
M  V30 20 N -8.953000 7.121000 -12.732000 0
M  V30 21 C -1.557000 10.315000 -14.519000 0 CFG=2
M  V30 22 C -4.782000 7.981000 -13.029000 0 CFG=2
M  V30 23 C -12.217000 5.516000 -12.273000 0
M  V30 24 C -8.870000 8.481000 -12.724000 0
M  V30 25 C -7.521000 5.826000 -14.347000 0 CFG=2
M  V30 26 C -6.420000 6.808000 -14.663000 0 CFG=1
M  V30 27 C -7.861000 6.116000 -12.907000 0 CFG=1
M  V30 28 C -12.436000 7.899000 -12.202000 0
M  V30 29 C -5.643000 6.768000 -13.329000 0 CFG=2
M  V30 30 C -10.215000 6.774000 -12.550000 0
M  V30 31 C -10.973000 8.042000 -12.417000 0
M  V30 32 H -6.750300 4.316500 -15.421900 0
M  V30 33 H -6.170900 6.439600 -16.618500 0
M  V30 34 H -12.805700 9.910200 -12.114500 0
M  V30 35 H -14.199400 8.899900 -11.922600 0
M  V30 36 H -0.846600 9.813500 -14.025200 0
M  V30 37 H -2.265800 9.677700 -14.821500 0
M  V30 38 H -4.309200 7.842900 -12.158700 0
M  V30 39 H -4.108800 8.096500 -13.759400 0
M  V30 40 H -12.664000 4.622900 -12.222500 0
M  V30 41 H -8.019300 8.992900 -12.843000 0
M  V30 42 H -8.314200 5.986700 -14.934400 0
M  V30 43 H -6.815700 7.718000 -14.786700 0
M  V30 44 H -8.114100 5.265200 -12.446400 0
M  V30 45 H -5.067300 5.950400 -13.313800 0
M  V30 END ATOM
M  V30 BEGIN BOND
M  V30 1 2 1 4
M  V30 2 1 1 5 CFG=3
M  V30 3 1 1 13
M  V30 4 1 1 14
M  V30 5 2 2 6
M  V30 6 1 2 7 CFG=3
M  V30 7 1 2 8
M  V30 8 1 2 21
M  V30 9 2 3 9
M  V30 10 1 3 10 CFG=1
M  V30 11 1 3 13
M  V30 12 1 3 21
M  V30 13 1 11 25
M  V30 14 1 12 26
M  V30 15 1 14 22
M  V30 16 1 15 27
M  V30 17 1 15 29
M  V30 18 1 16 28
M  V30 19 1 17 23
M  V30 20 2 17 28
M  V30 21 2 18 23
M  V30 22 1 18 30
M  V30 23 2 19 24
M  V30 24 1 19 31
M  V30 25 1 20 24
M  V30 26 1 20 27
M  V30 27 1 20 30
M  V30 28 1 22 29
M  V30 29 1 25 26
M  V30 30 1 25 27
M  V30 31 1 26 29
M  V30 32 1 28 31
M  V30 33 2 30 31
M  V30 34 1 29 45 CFG=3
M  V30 35 1 27 44 CFG=1
M  V30 36 1 26 43 CFG=3
M  V30 37 1 25 42 CFG=3
M  V30 38 1 11 32
M  V30 39 1 12 33
M  V30 40 1 16 34
M  V30 41 1 16 35
M  V30 42 1 21 36 CFG=1
M  V30 43 1 21 37
M  V30 44 1 22 38 CFG=1
M  V30 45 1 22 39
M  V30 46 1 23 40
M  V30 47 1 24 41
M  V30 END BOND
M  V30 END CTAB
M  END
>  <Ligand_Instance>  (142) 
4IAC_ACP_A_403

>  <Dataset>  (142) 
PDB

>  <PDB_ID>  (142) 
4IAC

>  <Chain>  (142) 
A

>  <Resi>  (142) 
403

>  <Num_Resolved_Atoms>  (142) 
31

>  <Num_H_Atoms_ProtBoundConf>  (142) 
14

>  <Pocket>  (142) 
A

>  <SMILES>  (142) 
c1nc(c2c(n1)n(cn2)[C@H]3[C@@H]([C@@H]([C@H](O3)CO[P@@](=O)(O)O[P@](=O)(CP(=O)(O)O)O)O)O)N

>  <Name>  (142) 
PHOSPHOMETHYLPHOSPHONIC ACID ADENYLATE ESTER

>  <Num_Heavy_Atoms>  (142) 
31

>  <Num_Not_Resolved_Atoms>  (142) 
0

>  <ATP_Site>  (142) 
True

>  <Peripheral>  (142) 
False

>  <Standardized_SMILES>  (142) 
[H]O[C@@]1([H])[C@@]([H])(O[H])[C@]([H])(N2C([H])=NC3=C2N=C([H])N=C3N([H])[H])O[C@]1([H])C([H])([H])O[P@](=O)([O-])O[P@@](=O)([O-])C([H])([H])P(=O)([O-])[O-]

$$$$
ADE
     RDKit          3D

  0  0  0  0  0  0  0  0  0  0999 V3000
M  V30 BEGIN CTAB
M  V30 COUNTS 15 16 0 0 0
M  V30 BEGIN ATOM
M  V30 1 N -29.329000 9.827000 4.073000 0
M  V30 2 N -31.306000 9.872000 5.279000 0
M  V30 3 N -33.488000 9.910000 4.257000 0
M  V30 4 N -33.372000 9.952000 1.835000 0
M  V30 5 N -31.144000 9.925000 1.568000 0
M  V30 6 C -32.642000 9.894000 5.293000 0
M  V30 7 C -32.323000 9.968000 0.974000 0
M  V30 8 C -30.670000 9.860000 4.084000 0
M  V30 9 C -32.836000 9.904000 3.091000 0
M  V30 10 C -31.461000 9.884000 2.917000 0
M  V30 11 H -28.836200 9.817500 3.202900 0
M  V30 12 H -28.822100 9.811900 4.934900 0
M  V30 13 H -34.343200 9.971500 1.597600 0
M  V30 14 H -33.065900 9.899200 6.198700 0
M  V30 15 H -32.432600 10.008600 -0.019100 0
M  V30 END ATOM
M  V30 BEGIN BOND
M  V30 1 1 1 8
M  V30 2 1 2 6
M  V30 3 2 2 8
M  V30 4 2 3 6
M  V30 5 1 3 9
M  V30 6 1 4 7
M  V30 7 1 4 9
M  V30 8 2 5 7
M  V30 9 1 5 10
M  V30 10 1 8 10
M  V30 11 2 9 10
M  V30 12 1 1 11
M  V30 13 1 1 12
M  V30 14 1 4 13
M  V30 15 1 6 14
M  V30 16 1 7 15
M  V30 END BOND
M  V30 END CTAB
M  END
>  <Ligand_Instance>  (143) 
6Y05_ADE_A_401

>  <Dataset>  (143) 
PDB

>  <PDB_ID>  (143) 
6Y05

>  <Chain>  (143) 
A

>  <Resi>  (143) 
401

>  <Num_Resolved_Atoms>  (143) 
10

>  <Num_H_Atoms_ProtBoundConf>  (143) 
5

>  <Pocket>  (143) 
A

>  <SMILES>  (143) 
c1[nH]c2c(n1)c(ncn2)N

>  <Name>  (143) 
ADENINE

>  <Num_Heavy_Atoms>  (143) 
10

>  <Num_Not_Resolved_Atoms>  (143) 
0

>  <ATP_Site>  (143) 
True

>  <Peripheral>  (143) 
False

>  <Standardized_SMILES>  (143) 
[H]C1=NC2=C(N=C([H])N2[H])C(N([H])[H])=N1

$$$$
ADP
     RDKit          3D

  0  0  0  0  0  0  0  0  0  0999 V3000
M  V30 BEGIN CTAB
M  V30 COUNTS 39 41 0 0 0
M  V30 BEGIN ATOM
M  V30 1 P 25.209000 8.353000 34.470000 0 CFG=2
M  V30 2 P 25.799000 6.701000 36.627000 0 CFG=1
M  V30 3 O 25.330000 7.914000 33.046000 0
M  V30 4 O 24.151000 9.406000 34.557000 0 CHG=-1
M  V30 5 O 26.629000 8.954000 34.959000 0 CHG=-1
M  V30 6 O 27.158000 6.374000 36.093000 0
M  V30 7 O 25.888000 7.829000 37.590000 0 CHG=-1
M  V30 8 O 21.310000 2.649000 35.653000 0
M  V30 9 O 23.514000 4.188000 35.030000 0
M  V30 10 O 24.774000 7.071000 35.395000 0
M  V30 11 O 25.223000 5.437000 37.401000 0
M  V30 12 O 21.767000 4.462000 38.136000 0
M  V30 13 N 16.014000 8.016000 38.117000 0
M  V30 14 N 15.796000 5.732000 37.938000 0
M  V30 15 N 17.641000 4.230000 37.574000 0
M  V30 16 N 19.021000 7.530000 37.677000 0
M  V30 17 N 19.763000 5.423000 37.422000 0
M  V30 18 C 23.934000 5.498000 38.005000 0 CFG=2
M  V30 19 C 16.363000 4.536000 37.761000 0
M  V30 20 C 20.064000 6.763000 37.483000 0
M  V30 21 C 21.222000 4.046000 35.860000 0 CFG=2
M  V30 22 C 22.579000 4.739000 35.946000 0 CFG=1
M  V30 23 C 20.669000 4.282000 37.264000 0 CFG=1
M  V30 24 C 16.581000 6.826000 37.934000 0
M  V30 25 C 23.007000 4.470000 37.382000 0 CFG=2
M  V30 26 C 18.398000 5.341000 37.571000 0
M  V30 27 C 17.958000 6.640000 37.737000 0
M  V30 28 H 20.389800 2.260300 35.606700 0
M  V30 29 H 23.168000 4.291800 34.097500 0
M  V30 30 H 16.576300 8.842900 38.118100 0
M  V30 31 H 15.025600 8.083300 38.253400 0
M  V30 32 H 23.550300 6.411600 37.870600 0
M  V30 33 H 24.020100 5.313300 38.984000 0
M  V30 34 H 15.734000 3.758700 37.770700 0
M  V30 35 H 20.993700 7.118900 37.388000 0
M  V30 36 H 20.641900 4.476100 35.168200 0
M  V30 37 H 22.478200 5.721800 35.791300 0
M  V30 38 H 20.180400 3.456800 37.547300 0
M  V30 39 H 23.432100 3.566500 37.436000 0
M  V30 END ATOM
M  V30 BEGIN BOND
M  V30 1 2 1 3
M  V30 2 1 1 4 CFG=3
M  V30 3 1 1 5
M  V30 4 1 1 10
M  V30 5 2 2 6
M  V30 6 1 2 7 CFG=1
M  V30 7 1 2 10
M  V30 8 1 2 11
M  V30 9 1 8 21
M  V30 10 1 9 22
M  V30 11 1 11 18
M  V30 12 1 12 23
M  V30 13 1 12 25
M  V30 14 1 13 24
M  V30 15 1 14 19
M  V30 16 2 14 24
M  V30 17 2 15 19
M  V30 18 1 15 26
M  V30 19 2 16 20
M  V30 20 1 16 27
M  V30 21 1 17 20
M  V30 22 1 17 23
M  V30 23 1 17 26
M  V30 24 1 18 25
M  V30 25 1 21 22
M  V30 26 1 21 23
M  V30 27 1 22 25
M  V30 28 1 24 27
M  V30 29 2 26 27
M  V30 30 1 25 39 CFG=3
M  V30 31 1 23 38 CFG=1
M  V30 32 1 22 37 CFG=1
M  V30 33 1 8 28
M  V30 34 1 9 29
M  V30 35 1 13 30
M  V30 36 1 13 31
M  V30 37 1 18 32 CFG=1
M  V30 38 1 18 33
M  V30 39 1 19 34
M  V30 40 1 20 35
M  V30 41 1 21 36 CFG=3
M  V30 END BOND
M  V30 END CTAB
M  END
>  <Ligand_Instance>  (144) 
2QUR_ADP_B_1

>  <Dataset>  (144) 
PDB

>  <PDB_ID>  (144) 
2QUR

>  <Chain>  (144) 
B

>  <Resi>  (144) 
1

>  <Num_Resolved_Atoms>  (144) 
27

>  <Num_H_Atoms_ProtBoundConf>  (144) 
12

>  <Pocket>  (144) 
A

>  <SMILES>  (144) 
c1nc(c2c(n1)n(cn2)[C@H]3[C@@H]([C@@H]([C@H](O3)CO[P@](=O)(O)OP(=O)(O)O)O)O)N

>  <Name>  (144) 
ADENOSINE-5'-DIPHOSPHATE

>  <Num_Heavy_Atoms>  (144) 
27

>  <Num_Not_Resolved_Atoms>  (144) 
0

>  <ATP_Site>  (144) 
True

>  <Peripheral>  (144) 
False

>  <Standardized_SMILES>  (144) 
[H]O[C@@]1([H])[C@@]([H])(O[H])[C@]([H])(N2C([H])=NC3=C2N=C([H])N=C3N([H])[H])O[C@]1([H])C([H])([H])O[P@](=O)([O-])OP(=O)([O-])[O-]

$$$$
ADP
     RDKit          3D

  0  0  0  0  0  0  0  0  0  0999 V3000
M  V30 BEGIN CTAB
M  V30 COUNTS 39 41 0 0 0
M  V30 BEGIN ATOM
M  V30 1 P -2.790000 11.359000 -13.613000 0 CFG=2
M  V30 2 P -5.600000 10.602000 -13.831000 0 CFG=1
M  V30 3 O -3.154000 12.745000 -14.050000 0
M  V30 4 O -1.698000 11.215000 -12.577000 0 CHG=-1
M  V30 5 O -2.472000 10.586000 -14.830000 0 CHG=-1
M  V30 6 O -6.371000 11.792000 -13.480000 0
M  V30 7 O -5.491000 10.363000 -15.284000 0 CHG=-1
M  V30 8 O -7.400000 4.311000 -14.560000 0
M  V30 9 O -6.017000 6.457000 -15.975000 0
M  V30 10 O -4.133000 10.702000 -13.142000 0
M  V30 11 O -6.131000 9.276000 -13.155000 0
M  V30 12 O -6.950000 6.722000 -12.481000 0
M  V30 13 N -13.440000 8.990000 -12.117000 0
M  V30 14 N -13.315000 6.648000 -12.148000 0
M  V30 15 N -11.244000 5.383000 -12.474000 0
M  V30 16 N -10.341000 8.880000 -12.594000 0
M  V30 17 N -9.289000 6.881000 -12.764000 0
M  V30 18 C -5.231000 8.152000 -13.322000 0 CFG=2
M  V30 19 C -12.577000 5.490000 -12.268000 0
M  V30 20 C -9.204000 8.256000 -12.769000 0
M  V30 21 C -7.787000 5.652000 -14.380000 0 CFG=2
M  V30 22 C -6.781000 6.726000 -14.818000 0 CFG=1
M  V30 23 C -8.088000 5.996000 -12.950000 0 CFG=1
M  V30 24 C -12.691000 7.872000 -12.239000 0
M  V30 25 C -5.956000 6.858000 -13.542000 0 CFG=2
M  V30 26 C -10.629000 6.621000 -12.562000 0
M  V30 27 C -11.261000 7.878000 -12.457000 0
M  V30 28 H -6.786900 4.243800 -15.347100 0
M  V30 29 H -6.628500 6.328000 -16.755700 0
M  V30 30 H -13.008700 9.890100 -12.179600 0
M  V30 31 H -14.425600 8.917300 -11.964100 0
M  V30 32 H -4.668400 8.067700 -12.499600 0
M  V30 33 H -4.643000 8.327500 -14.111600 0
M  V30 34 H -13.084400 4.631400 -12.194500 0
M  V30 35 H -8.338700 8.740800 -12.896700 0
M  V30 36 H -8.625700 5.794900 -14.905500 0
M  V30 37 H -7.277600 7.582100 -14.961200 0
M  V30 38 H -8.198800 5.157800 -12.416000 0
M  V30 39 H -5.306100 6.100000 -13.487100 0
M  V30 END ATOM
M  V30 BEGIN BOND
M  V30 1 2 1 3
M  V30 2 1 1 4 CFG=1
M  V30 3 1 1 5
M  V30 4 1 1 10
M  V30 5 2 2 6
M  V30 6 1 2 7 CFG=3
M  V30 7 1 2 10
M  V30 8 1 2 11
M  V30 9 1 8 21
M  V30 10 1 9 22
M  V30 11 1 11 18
M  V30 12 1 12 23
M  V30 13 1 12 25
M  V30 14 1 13 24
M  V30 15 1 14 19
M  V30 16 2 14 24
M  V30 17 2 15 19
M  V30 18 1 15 26
M  V30 19 2 16 20
M  V30 20 1 16 27
M  V30 21 1 17 20
M  V30 22 1 17 23
M  V30 23 1 17 26
M  V30 24 1 18 25
M  V30 25 1 21 22
M  V30 26 1 21 23
M  V30 27 1 22 25
M  V30 28 1 24 27
M  V30 29 2 26 27
M  V30 30 1 25 39 CFG=1
M  V30 31 1 23 38 CFG=1
M  V30 32 1 22 37 CFG=3
M  V30 33 1 8 28
M  V30 34 1 9 29
M  V30 35 1 13 30
M  V30 36 1 13 31
M  V30 37 1 18 32 CFG=1
M  V30 38 1 18 33
M  V30 39 1 19 34
M  V30 40 1 20 35
M  V30 41 1 21 36 CFG=3
M  V30 END BOND
M  V30 END CTAB
M  END
>  <Ligand_Instance>  (145) 
4DH5_ADP_A_403

>  <Dataset>  (145) 
PDB

>  <PDB_ID>  (145) 
4DH5

>  <Chain>  (145) 
A

>  <Resi>  (145) 
403

>  <Num_Resolved_Atoms>  (145) 
27

>  <Num_H_Atoms_ProtBoundConf>  (145) 
12

>  <Pocket>  (145) 
A

>  <SMILES>  (145) 
c1nc(c2c(n1)n(cn2)[C@H]3[C@@H]([C@@H]([C@H](O3)CO[P@](=O)(O)OP(=O)(O)O)O)O)N

>  <Name>  (145) 
ADENOSINE-5'-DIPHOSPHATE

>  <Num_Heavy_Atoms>  (145) 
27

>  <Num_Not_Resolved_Atoms>  (145) 
0

>  <ATP_Site>  (145) 
True

>  <Peripheral>  (145) 
False

>  <Standardized_SMILES>  (145) 
[H]O[C@@]1([H])[C@@]([H])(O[H])[C@]([H])(N2C([H])=NC3=C2N=C([H])N=C3N([H])[H])O[C@]1([H])C([H])([H])O[P@](=O)([O-])OP(=O)([O-])[O-]

$$$$
ADP
     RDKit          3D

  0  0  0  0  0  0  0  0  0  0999 V3000
M  V30 BEGIN CTAB
M  V30 COUNTS 39 41 0 0 0
M  V30 BEGIN ATOM
M  V30 1 P -3.123000 11.471000 -13.730000 0 CFG=2
M  V30 2 P -5.757000 10.667000 -13.901000 0 CFG=1
M  V30 3 O -3.060000 12.944000 -14.030000 0
M  V30 4 O -1.985000 11.171000 -12.624000 0 CHG=-1
M  V30 5 O -2.826000 10.649000 -15.063000 0 CHG=-1
M  V30 6 O -6.899000 11.603000 -13.730000 0
M  V30 7 O -5.489000 10.371000 -15.428000 0 CHG=-1
M  V30 8 O -7.236000 4.605000 -14.559000 0
M  V30 9 O -5.861000 6.724000 -15.836000 0
M  V30 10 O -4.518000 11.125000 -13.067000 0
M  V30 11 O -6.324000 9.310000 -13.172000 0
M  V30 12 O -6.988000 6.769000 -12.405000 0
M  V30 13 N -13.563000 8.887000 -12.338000 0
M  V30 14 N -13.240000 6.552000 -12.223000 0
M  V30 15 N -11.181000 5.549000 -12.490000 0
M  V30 16 N -10.503000 8.938000 -12.861000 0
M  V30 17 N -9.302000 7.115000 -12.934000 0
M  V30 18 C -5.284000 8.340000 -13.175000 0 CFG=2
M  V30 19 C -12.477000 5.477000 -12.271000 0
M  V30 20 C -9.294000 8.470000 -13.018000 0
M  V30 21 C -7.806000 5.923000 -14.497000 0 CFG=2
M  V30 22 C -6.740000 7.027000 -14.755000 0 CFG=1
M  V30 23 C -8.159000 6.203000 -13.012000 0 CFG=1
M  V30 24 C -12.734000 7.773000 -12.411000 0
M  V30 25 C -5.966000 6.984000 -13.410000 0 CFG=2
M  V30 26 C -10.587000 6.727000 -12.638000 0
M  V30 27 C -11.351000 7.904000 -12.599000 0
M  V30 28 H -6.841700 4.454600 -15.465600 0
M  V30 29 H -6.391500 6.616500 -16.676900 0
M  V30 30 H -13.184600 9.801900 -12.478700 0
M  V30 31 H -14.537500 8.773200 -12.144800 0
M  V30 32 H -4.806500 8.340600 -12.296400 0
M  V30 33 H -4.632300 8.532300 -13.908700 0
M  V30 34 H -12.896300 4.579100 -12.136800 0
M  V30 35 H -8.480100 9.028800 -13.177100 0
M  V30 36 H -8.600000 6.018500 -15.097300 0
M  V30 37 H -7.174500 7.917800 -14.887900 0
M  V30 38 H -8.387600 5.342800 -12.556200 0
M  V30 39 H -5.296900 6.240800 -13.405300 0
M  V30 END ATOM
M  V30 BEGIN BOND
M  V30 1 2 1 3
M  V30 2 1 1 4 CFG=1
M  V30 3 1 1 5
M  V30 4 1 1 10
M  V30 5 2 2 6
M  V30 6 1 2 7 CFG=3
M  V30 7 1 2 10
M  V30 8 1 2 11
M  V30 9 1 8 21
M  V30 10 1 9 22
M  V30 11 1 11 18
M  V30 12 1 12 23
M  V30 13 1 12 25
M  V30 14 1 13 24
M  V30 15 1 14 19
M  V30 16 2 14 24
M  V30 17 2 15 19
M  V30 18 1 15 26
M  V30 19 2 16 20
M  V30 20 1 16 27
M  V30 21 1 17 20
M  V30 22 1 17 23
M  V30 23 1 17 26
M  V30 24 1 18 25
M  V30 25 1 21 22
M  V30 26 1 21 23
M  V30 27 1 22 25
M  V30 28 1 24 27
M  V30 29 2 26 27
M  V30 30 1 25 39 CFG=3
M  V30 31 1 23 38 CFG=1
M  V30 32 1 22 37 CFG=3
M  V30 33 1 8 28
M  V30 34 1 9 29
M  V30 35 1 13 30
M  V30 36 1 13 31
M  V30 37 1 18 32 CFG=1
M  V30 38 1 18 33
M  V30 39 1 19 34
M  V30 40 1 20 35
M  V30 41 1 21 36 CFG=3
M  V30 END BOND
M  V30 END CTAB
M  END
>  <Ligand_Instance>  (146) 
4IAD_ADP_A_403

>  <Dataset>  (146) 
PDB

>  <PDB_ID>  (146) 
4IAD

>  <Chain>  (146) 
A

>  <Resi>  (146) 
403

>  <Num_Resolved_Atoms>  (146) 
27

>  <Num_H_Atoms_ProtBoundConf>  (146) 
12

>  <Pocket>  (146) 
A

>  <SMILES>  (146) 
c1nc(c2c(n1)n(cn2)[C@H]3[C@@H]([C@@H]([C@H](O3)CO[P@](=O)(O)OP(=O)(O)O)O)O)N

>  <Name>  (146) 
ADENOSINE-5'-DIPHOSPHATE

>  <Num_Heavy_Atoms>  (146) 
27

>  <Num_Not_Resolved_Atoms>  (146) 
0

>  <ATP_Site>  (146) 
True

>  <Peripheral>  (146) 
False

>  <Standardized_SMILES>  (146) 
[H]O[C@@]1([H])[C@@]([H])(O[H])[C@]([H])(N2C([H])=NC3=C2N=C([H])N=C3N([H])[H])O[C@]1([H])C([H])([H])O[P@](=O)([O-])OP(=O)([O-])[O-]

$$$$
ADP
     RDKit          3D

  0  0  0  0  0  0  0  0  0  0999 V3000
M  V30 BEGIN CTAB
M  V30 COUNTS 39 41 0 0 0
M  V30 BEGIN ATOM
M  V30 1 P -2.524000 11.356000 -13.647000 0 CFG=2
M  V30 2 P -5.329000 10.621000 -13.922000 0 CFG=1
M  V30 3 O -2.596000 12.822000 -13.943000 0
M  V30 4 O -1.490000 10.894000 -12.657000 0 CHG=-1
M  V30 5 O -2.377000 10.655000 -14.940000 0 CHG=-1
M  V30 6 O -6.236000 11.751000 -13.729000 0
M  V30 7 O -5.080000 10.282000 -15.347000 0 CHG=-1
M  V30 8 O -7.101000 4.340000 -14.473000 0
M  V30 9 O -5.700000 6.421000 -15.948000 0
M  V30 10 O -3.954000 10.939000 -13.159000 0
M  V30 11 O -5.789000 9.316000 -13.149000 0
M  V30 12 O -6.611000 6.781000 -12.446000 0
M  V30 13 N -13.090000 9.153000 -12.034000 0
M  V30 14 N -12.973000 6.809000 -12.008000 0
M  V30 15 N -10.924000 5.513000 -12.339000 0
M  V30 16 N -9.984000 9.005000 -12.568000 0
M  V30 17 N -8.955000 6.981000 -12.703000 0
M  V30 18 C -4.887000 8.190000 -13.313000 0 CFG=2
M  V30 19 C -12.250000 5.636000 -12.111000 0
M  V30 20 C -8.855000 8.358000 -12.748000 0
M  V30 21 C -7.481000 5.687000 -14.320000 0 CFG=2
M  V30 22 C -6.458000 6.735000 -14.788000 0 CFG=1
M  V30 23 C -7.763000 6.069000 -12.893000 0 CFG=1
M  V30 24 C -12.343000 8.025000 -12.142000 0
M  V30 25 C -5.621000 6.889000 -13.513000 0 CFG=2
M  V30 26 C -10.299000 6.743000 -12.474000 0
M  V30 27 C -10.917000 8.012000 -12.387000 0
M  V30 28 H -6.490100 4.253300 -15.260000 0
M  V30 29 H -6.317500 6.282800 -16.722400 0
M  V30 30 H -12.657600 10.049900 -12.127200 0
M  V30 31 H -14.072800 9.087200 -11.861200 0
M  V30 32 H -4.316300 8.114200 -12.495300 0
M  V30 33 H -4.306800 8.357000 -14.110100 0
M  V30 34 H -12.764500 4.785000 -12.005200 0
M  V30 35 H -7.986600 8.828000 -12.906100 0
M  V30 36 H -8.321200 5.827200 -14.843900 0
M  V30 37 H -6.941700 7.594700 -14.952000 0
M  V30 38 H -7.881500 5.243000 -12.341900 0
M  V30 39 H -4.974900 6.128800 -13.445400 0
M  V30 END ATOM
M  V30 BEGIN BOND
M  V30 1 2 1 3
M  V30 2 1 1 4 CFG=1
M  V30 3 1 1 5
M  V30 4 1 1 10
M  V30 5 2 2 6
M  V30 6 1 2 7 CFG=3
M  V30 7 1 2 10
M  V30 8 1 2 11
M  V30 9 1 8 21
M  V30 10 1 9 22
M  V30 11 1 11 18
M  V30 12 1 12 23
M  V30 13 1 12 25
M  V30 14 1 13 24
M  V30 15 1 14 19
M  V30 16 2 14 24
M  V30 17 2 15 19
M  V30 18 1 15 26
M  V30 19 2 16 20
M  V30 20 1 16 27
M  V30 21 1 17 20
M  V30 22 1 17 23
M  V30 23 1 17 26
M  V30 24 1 18 25
M  V30 25 1 21 22
M  V30 26 1 21 23
M  V30 27 1 22 25
M  V30 28 1 24 27
M  V30 29 2 26 27
M  V30 30 1 25 39 CFG=1
M  V30 31 1 23 38 CFG=1
M  V30 32 1 22 37 CFG=3
M  V30 33 1 8 28
M  V30 34 1 9 29
M  V30 35 1 13 30
M  V30 36 1 13 31
M  V30 37 1 18 32 CFG=1
M  V30 38 1 18 33
M  V30 39 1 19 34
M  V30 40 1 20 35
M  V30 41 1 21 36 CFG=3
M  V30 END BOND
M  V30 END CTAB
M  END
>  <Ligand_Instance>  (147) 
4IAF_ADP_A_403

>  <Dataset>  (147) 
PDB

>  <PDB_ID>  (147) 
4IAF

>  <Chain>  (147) 
A

>  <Resi>  (147) 
403

>  <Num_Resolved_Atoms>  (147) 
27

>  <Num_H_Atoms_ProtBoundConf>  (147) 
12

>  <Pocket>  (147) 
A

>  <SMILES>  (147) 
c1nc(c2c(n1)n(cn2)[C@H]3[C@@H]([C@@H]([C@H](O3)CO[P@](=O)(O)OP(=O)(O)O)O)O)N

>  <Name>  (147) 
ADENOSINE-5'-DIPHOSPHATE

>  <Num_Heavy_Atoms>  (147) 
27

>  <Num_Not_Resolved_Atoms>  (147) 
0

>  <ATP_Site>  (147) 
True

>  <Peripheral>  (147) 
False

>  <Standardized_SMILES>  (147) 
[H]O[C@@]1([H])[C@@]([H])(O[H])[C@]([H])(N2C([H])=NC3=C2N=C([H])N=C3N([H])[H])O[C@]1([H])C([H])([H])O[P@](=O)([O-])OP(=O)([O-])[O-]

$$$$
ADP
     RDKit          3D

  0  0  0  0  0  0  0  0  0  0999 V3000
M  V30 BEGIN CTAB
M  V30 COUNTS 39 41 0 0 0
M  V30 BEGIN ATOM
M  V30 1 P -2.852000 11.430000 -13.486000 0 CFG=2
M  V30 2 P -5.536000 10.557000 -13.816000 0 CFG=1
M  V30 3 O -2.930000 12.914000 -13.699000 0
M  V30 4 O -1.860000 11.153000 -12.247000 0 CHG=-1
M  V30 5 O -2.410000 10.578000 -14.720000 0 CHG=-1
M  V30 6 O -6.582000 11.598000 -13.562000 0
M  V30 7 O -5.198000 10.321000 -15.318000 0 CHG=-1
M  V30 8 O -7.152000 4.405000 -14.436000 0
M  V30 9 O -5.857000 6.505000 -15.887000 0
M  V30 10 O -4.273000 10.945000 -12.945000 0
M  V30 11 O -6.083000 9.219000 -13.116000 0
M  V30 12 O -6.930000 6.597000 -12.429000 0
M  V30 13 N -13.353000 9.017000 -12.242000 0
M  V30 14 N -13.123000 6.639000 -12.185000 0
M  V30 15 N -11.133000 5.535000 -12.460000 0
M  V30 16 N -10.357000 8.918000 -12.897000 0
M  V30 17 N -9.218000 7.038000 -12.930000 0
M  V30 18 C -5.167000 8.137000 -13.199000 0 CFG=2
M  V30 19 C -12.432000 5.506000 -12.226000 0
M  V30 20 C -9.166000 8.395000 -13.037000 0
M  V30 21 C -7.750000 5.728000 -14.467000 0 CFG=2
M  V30 22 C -6.722000 6.831000 -14.784000 0 CFG=1
M  V30 23 C -8.125000 6.061000 -13.004000 0 CFG=1
M  V30 24 C -12.591000 7.852000 -12.278000 0
M  V30 25 C -5.931000 6.843000 -13.458000 0 CFG=2
M  V30 26 C -10.514000 6.708000 -12.602000 0
M  V30 27 C -11.222000 7.918000 -12.585000 0
M  V30 28 H -6.746300 4.201600 -15.327100 0
M  V30 29 H -6.406300 6.360600 -16.710000 0
M  V30 30 H -12.906700 9.908800 -12.315800 0
M  V30 31 H -14.346500 8.961800 -12.142300 0
M  V30 32 H -4.663100 8.060100 -12.338700 0
M  V30 33 H -4.524900 8.300600 -13.947900 0
M  V30 34 H -12.894900 4.631700 -12.079800 0
M  V30 35 H -8.330800 8.920100 -13.200400 0
M  V30 36 H -8.542400 5.767400 -15.075700 0
M  V30 37 H -7.176700 7.708700 -14.935400 0
M  V30 38 H -8.386100 5.224200 -12.522800 0
M  V30 39 H -5.281900 6.082300 -13.464100 0
M  V30 END ATOM
M  V30 BEGIN BOND
M  V30 1 2 1 3
M  V30 2 1 1 4 CFG=1
M  V30 3 1 1 5
M  V30 4 1 1 10
M  V30 5 2 2 6
M  V30 6 1 2 7 CFG=3
M  V30 7 1 2 10
M  V30 8 1 2 11
M  V30 9 1 8 21
M  V30 10 1 9 22
M  V30 11 1 11 18
M  V30 12 1 12 23
M  V30 13 1 12 25
M  V30 14 1 13 24
M  V30 15 1 14 19
M  V30 16 2 14 24
M  V30 17 2 15 19
M  V30 18 1 15 26
M  V30 19 2 16 20
M  V30 20 1 16 27
M  V30 21 1 17 20
M  V30 22 1 17 23
M  V30 23 1 17 26
M  V30 24 1 18 25
M  V30 25 1 21 22
M  V30 26 1 21 23
M  V30 27 1 22 25
M  V30 28 1 24 27
M  V30 29 2 26 27
M  V30 30 1 25 39 CFG=3
M  V30 31 1 23 38 CFG=1
M  V30 32 1 22 37 CFG=3
M  V30 33 1 8 28
M  V30 34 1 9 29
M  V30 35 1 13 30
M  V30 36 1 13 31
M  V30 37 1 18 32 CFG=1
M  V30 38 1 18 33
M  V30 39 1 19 34
M  V30 40 1 20 35
M  V30 41 1 21 36 CFG=3
M  V30 END BOND
M  V30 END CTAB
M  END
>  <Ligand_Instance>  (148) 
4IAI_ADP_A_403

>  <Dataset>  (148) 
PDB

>  <PDB_ID>  (148) 
4IAI

>  <Chain>  (148) 
A

>  <Resi>  (148) 
403

>  <Num_Resolved_Atoms>  (148) 
27

>  <Num_H_Atoms_ProtBoundConf>  (148) 
12

>  <Pocket>  (148) 
A

>  <SMILES>  (148) 
c1nc(c2c(n1)n(cn2)[C@H]3[C@@H]([C@@H]([C@H](O3)CO[P@](=O)(O)OP(=O)(O)O)O)O)N

>  <Name>  (148) 
ADENOSINE-5'-DIPHOSPHATE

>  <Num_Heavy_Atoms>  (148) 
27

>  <Num_Not_Resolved_Atoms>  (148) 
0

>  <ATP_Site>  (148) 
True

>  <Peripheral>  (148) 
False

>  <Standardized_SMILES>  (148) 
[H]O[C@@]1([H])[C@@]([H])(O[H])[C@]([H])(N2C([H])=NC3=C2N=C([H])N=C3N([H])[H])O[C@]1([H])C([H])([H])O[P@](=O)([O-])OP(=O)([O-])[O-]

$$$$
ADP
     RDKit          3D

  0  0  0  0  0  0  0  0  0  0999 V3000
M  V30 BEGIN CTAB
M  V30 COUNTS 39 41 0 0 0
M  V30 BEGIN ATOM
M  V30 1 P -2.585000 -11.478000 13.226000 0 CFG=2
M  V30 2 P -5.233000 -10.633000 13.475000 0 CFG=1
M  V30 3 O -2.749000 -12.764000 13.961000 0
M  V30 4 O -1.591000 -11.723000 11.981000 0 CHG=-1
M  V30 5 O -1.973000 -10.348000 14.167000 0 CHG=-1
M  V30 6 O -6.284000 -11.640000 13.207000 0
M  V30 7 O -4.840000 -10.422000 14.971000 0 CHG=-1
M  V30 8 O -6.903000 -4.524000 14.266000 0
M  V30 9 O -5.687000 -6.636000 15.581000 0
M  V30 10 O -3.961000 -11.011000 12.598000 0
M  V30 11 O -5.802000 -9.259000 12.784000 0
M  V30 12 O -6.623000 -6.678000 12.141000 0
M  V30 13 N -13.106000 -9.028000 11.994000 0
M  V30 14 N -12.872000 -6.673000 11.951000 0
M  V30 15 N -10.858000 -5.558000 12.219000 0
M  V30 16 N -10.029000 -8.946000 12.352000 0
M  V30 17 N -8.924000 -7.091000 12.572000 0
M  V30 18 C -4.880000 -8.190000 12.996000 0 CFG=2
M  V30 19 C -12.165000 -5.553000 12.029000 0
M  V30 20 C -8.830000 -8.444000 12.527000 0
M  V30 21 C -7.550000 -5.827000 14.186000 0 CFG=2
M  V30 22 C -6.529000 -6.958000 14.471000 0 CFG=1
M  V30 23 C -7.830000 -6.114000 12.692000 0 CFG=1
M  V30 24 C -12.336000 -7.877000 12.126000 0
M  V30 25 C -5.652000 -6.882000 13.195000 0 CFG=2
M  V30 26 C -10.238000 -6.743000 12.403000 0
M  V30 27 C -10.947000 -7.941000 12.288000 0
M  V30 28 H -6.523600 -4.395900 15.182300 0
M  V30 29 H -6.248500 -6.503200 16.397800 0
M  V30 30 H -12.688800 -9.926800 12.128600 0
M  V30 31 H -14.076700 -8.956600 11.764500 0
M  V30 32 H -4.279500 -8.105000 12.200900 0
M  V30 33 H -4.330700 -8.380000 13.809700 0
M  V30 34 H -12.637400 -4.676000 11.941000 0
M  V30 35 H -7.985000 -8.971800 12.613100 0
M  V30 36 H -8.369900 -5.890200 14.755000 0
M  V30 37 H -6.969900 -7.849400 14.575600 0
M  V30 38 H -8.066800 -5.267800 12.214700 0
M  V30 39 H -5.022300 -6.106900 13.247300 0
M  V30 END ATOM
M  V30 BEGIN BOND
M  V30 1 2 1 3
M  V30 2 1 1 4 CFG=3
M  V30 3 1 1 5
M  V30 4 1 1 10
M  V30 5 2 2 6
M  V30 6 1 2 7 CFG=1
M  V30 7 1 2 10
M  V30 8 1 2 11
M  V30 9 1 8 21
M  V30 10 1 9 22
M  V30 11 1 11 18
M  V30 12 1 12 23
M  V30 13 1 12 25
M  V30 14 1 13 24
M  V30 15 1 14 19
M  V30 16 2 14 24
M  V30 17 2 15 19
M  V30 18 1 15 26
M  V30 19 2 16 20
M  V30 20 1 16 27
M  V30 21 1 17 20
M  V30 22 1 17 23
M  V30 23 1 17 26
M  V30 24 1 18 25
M  V30 25 1 21 22
M  V30 26 1 21 23
M  V30 27 1 22 25
M  V30 28 1 24 27
M  V30 29 2 26 27
M  V30 30 1 25 39 CFG=1
M  V30 31 1 23 38 CFG=3
M  V30 32 1 22 37 CFG=1
M  V30 33 1 8 28
M  V30 34 1 9 29
M  V30 35 1 13 30
M  V30 36 1 13 31
M  V30 37 1 18 32 CFG=3
M  V30 38 1 18 33
M  V30 39 1 19 34
M  V30 40 1 20 35
M  V30 41 1 21 36 CFG=1
M  V30 END BOND
M  V30 END CTAB
M  END
>  <Ligand_Instance>  (149) 
4IAK_ADP_A_403

>  <Dataset>  (149) 
PDB

>  <PDB_ID>  (149) 
4IAK

>  <Chain>  (149) 
A

>  <Resi>  (149) 
403

>  <Num_Resolved_Atoms>  (149) 
27

>  <Num_H_Atoms_ProtBoundConf>  (149) 
12

>  <Pocket>  (149) 
A

>  <SMILES>  (149) 
c1nc(c2c(n1)n(cn2)[C@H]3[C@@H]([C@@H]([C@H](O3)CO[P@](=O)(O)OP(=O)(O)O)O)O)N

>  <Name>  (149) 
ADENOSINE-5'-DIPHOSPHATE

>  <Num_Heavy_Atoms>  (149) 
27

>  <Num_Not_Resolved_Atoms>  (149) 
0

>  <ATP_Site>  (149) 
True

>  <Peripheral>  (149) 
False

>  <Standardized_SMILES>  (149) 
[H]O[C@@]1([H])[C@@]([H])(O[H])[C@]([H])(N2C([H])=NC3=C2N=C([H])N=C3N([H])[H])O[C@]1([H])C([H])([H])O[P@](=O)([O-])OP(=O)([O-])[O-]

$$$$
ADP
     RDKit          3D

  0  0  0  0  0  0  0  0  0  0999 V3000
M  V30 BEGIN CTAB
M  V30 COUNTS 39 41 0 0 0
M  V30 BEGIN ATOM
M  V30 1 P -2.340000 11.004000 -13.572000 0 CFG=2
M  V30 2 P -4.965000 10.249000 -13.717000 0 CFG=1
M  V30 3 O -1.891000 10.159000 -14.701000 0
M  V30 4 O -2.489000 12.542000 -14.024000 0 CHG=-1
M  V30 5 O -1.155000 10.963000 -12.458000 0 CHG=-1
M  V30 6 O -5.917000 11.356000 -13.446000 0
M  V30 7 O -4.702000 10.083000 -15.270000 0 CHG=-1
M  V30 8 O -7.059000 4.327000 -14.280000 0
M  V30 9 O -5.798000 6.254000 -15.769000 0
M  V30 10 O -3.644000 10.477000 -12.858000 0
M  V30 11 O -5.673000 8.924000 -13.105000 0
M  V30 12 O -6.351000 6.413000 -12.196000 0
M  V30 13 N -12.911000 8.885000 -11.883000 0
M  V30 14 N -12.671000 6.547000 -11.800000 0
M  V30 15 N -10.661000 5.443000 -12.054000 0
M  V30 16 N -9.845000 8.793000 -12.450000 0
M  V30 17 N -8.698000 6.937000 -12.367000 0
M  V30 18 C -4.689000 7.884000 -13.148000 0 CFG=2
M  V30 19 C -11.960000 5.435000 -11.848000 0
M  V30 20 C -8.656000 8.279000 -12.584000 0
M  V30 21 C -7.536000 5.672000 -14.133000 0 CFG=2
M  V30 22 C -6.423000 6.681000 -14.553000 0 CFG=1
M  V30 23 C -7.637000 5.965000 -12.613000 0 CFG=1
M  V30 24 C -12.112000 7.753000 -11.902000 0
M  V30 25 C -5.479000 6.579000 -13.343000 0 CFG=2
M  V30 26 C -10.012000 6.603000 -12.137000 0
M  V30 27 C -10.725000 7.814000 -12.111000 0
M  V30 28 H -6.389500 4.290000 -15.021900 0
M  V30 29 H -6.458300 5.746800 -16.322900 0
M  V30 30 H -12.495700 9.791500 -11.959200 0
M  V30 31 H -13.902900 8.795400 -11.793000 0
M  V30 32 H -4.172900 7.855500 -12.292000 0
M  V30 33 H -4.060100 8.029300 -13.911800 0
M  V30 34 H -12.424500 4.558200 -11.723600 0
M  V30 35 H -7.831400 8.796200 -12.813300 0
M  V30 36 H -8.398900 5.829000 -14.613400 0
M  V30 37 H -6.792100 7.605900 -14.644000 0
M  V30 38 H -7.856600 5.115900 -12.132500 0
M  V30 39 H -4.861000 5.798500 -13.437300 0
M  V30 END ATOM
M  V30 BEGIN BOND
M  V30 1 2 1 3
M  V30 2 1 1 4 CFG=3
M  V30 3 1 1 5
M  V30 4 1 1 10
M  V30 5 2 2 6
M  V30 6 1 2 7 CFG=3
M  V30 7 1 2 10
M  V30 8 1 2 11
M  V30 9 1 8 21
M  V30 10 1 9 22
M  V30 11 1 11 18
M  V30 12 1 12 23
M  V30 13 1 12 25
M  V30 14 1 13 24
M  V30 15 1 14 19
M  V30 16 2 14 24
M  V30 17 2 15 19
M  V30 18 1 15 26
M  V30 19 2 16 20
M  V30 20 1 16 27
M  V30 21 1 17 20
M  V30 22 1 17 23
M  V30 23 1 17 26
M  V30 24 1 18 25
M  V30 25 1 21 22
M  V30 26 1 21 23
M  V30 27 1 22 25
M  V30 28 1 24 27
M  V30 29 2 26 27
M  V30 30 1 25 39 CFG=3
M  V30 31 1 23 38 CFG=1
M  V30 32 1 22 37 CFG=3
M  V30 33 1 8 28
M  V30 34 1 9 29
M  V30 35 1 13 30
M  V30 36 1 13 31
M  V30 37 1 18 32 CFG=1
M  V30 38 1 18 33
M  V30 39 1 19 34
M  V30 40 1 20 35
M  V30 41 1 21 36 CFG=3
M  V30 END BOND
M  V30 END CTAB
M  END
>  <Ligand_Instance>  (150) 
4IAY_ADP_A_403

>  <Dataset>  (150) 
PDB

>  <PDB_ID>  (150) 
4IAY

>  <Chain>  (150) 
A

>  <Resi>  (150) 
403

>  <Num_Resolved_Atoms>  (150) 
27

>  <Num_H_Atoms_ProtBoundConf>  (150) 
12

>  <Pocket>  (150) 
A

>  <SMILES>  (150) 
c1nc(c2c(n1)n(cn2)[C@H]3[C@@H]([C@@H]([C@H](O3)CO[P@](=O)(O)OP(=O)(O)O)O)O)N

>  <Name>  (150) 
ADENOSINE-5'-DIPHOSPHATE

>  <Num_Heavy_Atoms>  (150) 
27

>  <Num_Not_Resolved_Atoms>  (150) 
0

>  <ATP_Site>  (150) 
True

>  <Peripheral>  (150) 
False

>  <Standardized_SMILES>  (150) 
[H]O[C@@]1([H])[C@@]([H])(O[H])[C@]([H])(N2C([H])=NC3=C2N=C([H])N=C3N([H])[H])O[C@]1([H])C([H])([H])O[P@](=O)([O-])OP(=O)([O-])[O-]

$$$$
ADP
     RDKit          3D

  0  0  0  0  0  0  0  0  0  0999 V3000
M  V30 BEGIN CTAB
M  V30 COUNTS 39 41 0 0 0
M  V30 BEGIN ATOM
M  V30 1 P -2.754000 11.204000 -13.299000 0 CFG=2
M  V30 2 P -5.284000 10.318000 -13.545000 0 CFG=1
M  V30 3 O -2.904000 12.614000 -13.696000 0
M  V30 4 O -1.603000 11.134000 -12.159000 0 CHG=-1
M  V30 5 O -2.279000 10.262000 -14.502000 0 CHG=-1
M  V30 6 O -6.294000 11.398000 -13.425000 0
M  V30 7 O -4.889000 10.089000 -15.059000 0 CHG=-1
M  V30 8 O -7.030000 4.235000 -13.960000 0
M  V30 9 O -6.075000 6.337000 -15.544000 0
M  V30 10 O -4.066000 10.653000 -12.582000 0
M  V30 11 O -5.992000 8.986000 -12.942000 0
M  V30 12 O -6.683000 6.334000 -11.958000 0
M  V30 13 N -13.159000 8.862000 -11.922000 0
M  V30 14 N -13.019000 6.499000 -11.905000 0
M  V30 15 N -11.028000 5.354000 -12.096000 0
M  V30 16 N -10.115000 8.704000 -12.266000 0
M  V30 17 N -9.019000 6.811000 -12.335000 0
M  V30 18 C -5.062000 7.916000 -12.882000 0 CFG=2
M  V30 19 C -12.337000 5.371000 -11.959000 0
M  V30 20 C -8.931000 8.170000 -12.387000 0
M  V30 21 C -7.722000 5.490000 -13.922000 0 CFG=2
M  V30 22 C -6.734000 6.633000 -14.309000 0 CFG=1
M  V30 23 C -7.937000 5.835000 -12.422000 0 CFG=1
M  V30 24 C -12.428000 7.686000 -11.962000 0
M  V30 25 C -5.804000 6.585000 -13.074000 0 CFG=2
M  V30 26 C -10.348000 6.495000 -12.172000 0
M  V30 27 C -11.029000 7.721000 -12.076000 0
M  V30 28 H -6.678100 4.076200 -14.882500 0
M  V30 29 H -6.676900 5.782200 -16.118400 0
M  V30 30 H -12.689900 9.744000 -11.966500 0
M  V30 31 H -14.155800 8.828900 -11.848600 0
M  V30 32 H -4.606800 7.919000 -11.991600 0
M  V30 33 H -4.380200 8.025400 -13.605300 0
M  V30 34 H -12.829200 4.503000 -11.893900 0
M  V30 35 H -8.080900 8.684000 -12.501500 0
M  V30 36 H -8.566800 5.495500 -14.457100 0
M  V30 37 H -7.209600 7.511100 -14.361700 0
M  V30 38 H -8.182800 5.008900 -11.915000 0
M  V30 39 H -5.147200 5.836800 -13.168200 0
M  V30 END ATOM
M  V30 BEGIN BOND
M  V30 1 2 1 3
M  V30 2 1 1 4 CFG=1
M  V30 3 1 1 5
M  V30 4 1 1 10
M  V30 5 2 2 6
M  V30 6 1 2 7 CFG=3
M  V30 7 1 2 10
M  V30 8 1 2 11
M  V30 9 1 8 21
M  V30 10 1 9 22
M  V30 11 1 11 18
M  V30 12 1 12 23
M  V30 13 1 12 25
M  V30 14 1 13 24
M  V30 15 1 14 19
M  V30 16 2 14 24
M  V30 17 2 15 19
M  V30 18 1 15 26
M  V30 19 2 16 20
M  V30 20 1 16 27
M  V30 21 1 17 20
M  V30 22 1 17 23
M  V30 23 1 17 26
M  V30 24 1 18 25
M  V30 25 1 21 22
M  V30 26 1 21 23
M  V30 27 1 22 25
M  V30 28 1 24 27
M  V30 29 2 26 27
M  V30 30 1 25 39 CFG=3
M  V30 31 1 23 38 CFG=1
M  V30 32 1 22 37 CFG=3
M  V30 33 1 8 28
M  V30 34 1 9 29
M  V30 35 1 13 30
M  V30 36 1 13 31
M  V30 37 1 18 32 CFG=1
M  V30 38 1 18 33
M  V30 39 1 19 34
M  V30 40 1 20 35
M  V30 41 1 21 36 CFG=3
M  V30 END BOND
M  V30 END CTAB
M  END
>  <Ligand_Instance>  (151) 
4IAZ_ADP_A_403

>  <Dataset>  (151) 
PDB

>  <PDB_ID>  (151) 
4IAZ

>  <Chain>  (151) 
A

>  <Resi>  (151) 
403

>  <Num_Resolved_Atoms>  (151) 
27

>  <Num_H_Atoms_ProtBoundConf>  (151) 
12

>  <Pocket>  (151) 
A

>  <SMILES>  (151) 
c1nc(c2c(n1)n(cn2)[C@H]3[C@@H]([C@@H]([C@H](O3)CO[P@](=O)(O)OP(=O)(O)O)O)O)N

>  <Name>  (151) 
ADENOSINE-5'-DIPHOSPHATE

>  <Num_Heavy_Atoms>  (151) 
27

>  <Num_Not_Resolved_Atoms>  (151) 
0

>  <ATP_Site>  (151) 
True

>  <Peripheral>  (151) 
False

>  <Standardized_SMILES>  (151) 
[H]O[C@@]1([H])[C@@]([H])(O[H])[C@]([H])(N2C([H])=NC3=C2N=C([H])N=C3N([H])[H])O[C@]1([H])C([H])([H])O[P@](=O)([O-])OP(=O)([O-])[O-]

$$$$
ADP
     RDKit          3D

  0  0  0  0  0  0  0  0  0  0999 V3000
M  V30 BEGIN CTAB
M  V30 COUNTS 39 41 0 0 0
M  V30 BEGIN ATOM
M  V30 1 P -3.017000 11.398000 -13.465000 0 CFG=2
M  V30 2 P -5.609000 10.575000 -13.797000 0 CFG=1
M  V30 3 O -3.041000 12.873000 -13.728000 0
M  V30 4 O -1.873000 11.143000 -12.348000 0 CHG=-1
M  V30 5 O -2.619000 10.616000 -14.814000 0 CHG=-1
M  V30 6 O -6.709000 11.564000 -13.674000 0
M  V30 7 O -5.162000 10.347000 -15.328000 0 CHG=-1
M  V30 8 O -7.019000 4.416000 -14.451000 0
M  V30 9 O -5.898000 6.485000 -15.875000 0
M  V30 10 O -4.400000 10.927000 -12.853000 0
M  V30 11 O -6.276000 9.188000 -13.249000 0
M  V30 12 O -6.909000 6.559000 -12.439000 0
M  V30 13 N -13.403000 8.897000 -12.342000 0
M  V30 14 N -13.196000 6.549000 -12.271000 0
M  V30 15 N -11.187000 5.433000 -12.515000 0
M  V30 16 N -10.377000 8.784000 -12.916000 0
M  V30 17 N -9.234000 6.917000 -12.935000 0
M  V30 18 C -5.265000 8.183000 -13.271000 0 CFG=2
M  V30 19 C -12.482000 5.441000 -12.312000 0
M  V30 20 C -9.183000 8.278000 -13.038000 0
M  V30 21 C -7.754000 5.657000 -14.474000 0 CFG=2
M  V30 22 C -6.752000 6.814000 -14.783000 0 CFG=1
M  V30 23 C -8.095000 6.008000 -13.003000 0 CFG=1
M  V30 24 C -12.614000 7.753000 -12.284000 0
M  V30 25 C -5.929000 6.809000 -13.463000 0 CFG=2
M  V30 26 C -10.535000 6.582000 -12.670000 0
M  V30 27 C -11.253000 7.794000 -12.614000 0
M  V30 28 H -6.587500 4.267600 -15.340800 0
M  V30 29 H -6.319600 6.786000 -16.730300 0
M  V30 30 H -12.974000 9.800300 -12.352000 0
M  V30 31 H -14.399200 8.816200 -12.373700 0
M  V30 32 H -4.762000 8.194500 -12.406800 0
M  V30 33 H -4.633800 8.358900 -14.026400 0
M  V30 34 H -12.950000 4.566800 -12.182300 0
M  V30 35 H -8.349000 8.809500 -13.185800 0
M  V30 36 H -8.550100 5.641900 -15.079000 0
M  V30 37 H -7.221400 7.685300 -14.926300 0
M  V30 38 H -8.324000 5.165900 -12.514600 0
M  V30 39 H -5.241100 6.083300 -13.478300 0
M  V30 END ATOM
M  V30 BEGIN BOND
M  V30 1 2 1 3
M  V30 2 1 1 4 CFG=1
M  V30 3 1 1 5
M  V30 4 1 1 10
M  V30 5 2 2 6
M  V30 6 1 2 7 CFG=3
M  V30 7 1 2 10
M  V30 8 1 2 11
M  V30 9 1 8 21
M  V30 10 1 9 22
M  V30 11 1 11 18
M  V30 12 1 12 23
M  V30 13 1 12 25
M  V30 14 1 13 24
M  V30 15 1 14 19
M  V30 16 2 14 24
M  V30 17 2 15 19
M  V30 18 1 15 26
M  V30 19 2 16 20
M  V30 20 1 16 27
M  V30 21 1 17 20
M  V30 22 1 17 23
M  V30 23 1 17 26
M  V30 24 1 18 25
M  V30 25 1 21 22
M  V30 26 1 21 23
M  V30 27 1 22 25
M  V30 28 1 24 27
M  V30 29 2 26 27
M  V30 30 1 25 39 CFG=3
M  V30 31 1 23 38 CFG=1
M  V30 32 1 22 37 CFG=3
M  V30 33 1 8 28
M  V30 34 1 9 29
M  V30 35 1 13 30
M  V30 36 1 13 31
M  V30 37 1 18 32 CFG=1
M  V30 38 1 18 33
M  V30 39 1 19 34
M  V30 40 1 20 35
M  V30 41 1 21 36 CFG=3
M  V30 END BOND
M  V30 END CTAB
M  END
>  <Ligand_Instance>  (152) 
4IB0_ADP_A_403

>  <Dataset>  (152) 
PDB

>  <PDB_ID>  (152) 
4IB0

>  <Chain>  (152) 
A

>  <Resi>  (152) 
403

>  <Num_Resolved_Atoms>  (152) 
27

>  <Num_H_Atoms_ProtBoundConf>  (152) 
12

>  <Pocket>  (152) 
A

>  <SMILES>  (152) 
c1nc(c2c(n1)n(cn2)[C@H]3[C@@H]([C@@H]([C@H](O3)CO[P@](=O)(O)OP(=O)(O)O)O)O)N

>  <Name>  (152) 
ADENOSINE-5'-DIPHOSPHATE

>  <Num_Heavy_Atoms>  (152) 
27

>  <Num_Not_Resolved_Atoms>  (152) 
0

>  <ATP_Site>  (152) 
True

>  <Peripheral>  (152) 
False

>  <Standardized_SMILES>  (152) 
[H]O[C@@]1([H])[C@@]([H])(O[H])[C@]([H])(N2C([H])=NC3=C2N=C([H])N=C3N([H])[H])O[C@]1([H])C([H])([H])O[P@](=O)([O-])OP(=O)([O-])[O-]

$$$$
ADP
     RDKit          3D

  0  0  0  0  0  0  0  0  0  0999 V3000
M  V30 BEGIN CTAB
M  V30 COUNTS 39 41 0 0 0
M  V30 BEGIN ATOM
M  V30 1 P -2.900000 11.440000 -13.491000 0 CFG=2
M  V30 2 P -5.506000 10.531000 -13.793000 0 CFG=1
M  V30 3 O -2.951000 12.913000 -13.765000 0
M  V30 4 O -1.818000 11.188000 -12.298000 0 CHG=-1
M  V30 5 O -2.432000 10.572000 -14.742000 0 CHG=-1
M  V30 6 O -6.515000 11.633000 -13.656000 0
M  V30 7 O -5.171000 10.268000 -15.339000 0 CHG=-1
M  V30 8 O -7.128000 4.414000 -14.405000 0
M  V30 9 O -5.915000 6.434000 -15.834000 0
M  V30 10 O -4.269000 10.903000 -12.893000 0
M  V30 11 O -6.174000 9.201000 -13.178000 0
M  V30 12 O -6.915000 6.620000 -12.369000 0
M  V30 13 N -13.365000 8.964000 -12.215000 0
M  V30 14 N -13.173000 6.614000 -12.148000 0
M  V30 15 N -11.165000 5.519000 -12.416000 0
M  V30 16 N -10.321000 8.875000 -12.743000 0
M  V30 17 N -9.202000 6.987000 -12.830000 0
M  V30 18 C -5.199000 8.160000 -13.214000 0 CFG=2
M  V30 19 C -12.468000 5.504000 -12.204000 0
M  V30 20 C -9.134000 8.345000 -12.916000 0
M  V30 21 C -7.781000 5.698000 -14.392000 0 CFG=2
M  V30 22 C -6.754000 6.820000 -14.733000 0 CFG=1
M  V30 23 C -8.104000 6.020000 -12.913000 0 CFG=1
M  V30 24 C -12.594000 7.808000 -12.241000 0
M  V30 25 C -5.946000 6.843000 -13.411000 0 CFG=2
M  V30 26 C -10.497000 6.661000 -12.508000 0
M  V30 27 C -11.218000 7.869000 -12.519000 0
M  V30 28 H -6.744000 4.244500 -15.312700 0
M  V30 29 H -6.481100 6.262100 -16.640200 0
M  V30 30 H -12.925800 9.859600 -12.285200 0
M  V30 31 H -14.359000 8.900200 -12.126100 0
M  V30 32 H -4.689400 8.138800 -12.353800 0
M  V30 33 H -4.565600 8.310800 -13.973000 0
M  V30 34 H -12.931500 4.626200 -12.082800 0
M  V30 35 H -8.296800 8.864500 -13.087000 0
M  V30 36 H -8.590600 5.725000 -14.978300 0
M  V30 37 H -7.206900 7.695100 -14.903600 0
M  V30 38 H -8.334500 5.184300 -12.414500 0
M  V30 39 H -5.288400 6.089700 -13.414800 0
M  V30 END ATOM
M  V30 BEGIN BOND
M  V30 1 2 1 3
M  V30 2 1 1 4 CFG=1
M  V30 3 1 1 5
M  V30 4 1 1 10
M  V30 5 2 2 6
M  V30 6 1 2 7 CFG=3
M  V30 7 1 2 10
M  V30 8 1 2 11
M  V30 9 1 8 21
M  V30 10 1 9 22
M  V30 11 1 11 18
M  V30 12 1 12 23
M  V30 13 1 12 25
M  V30 14 1 13 24
M  V30 15 1 14 19
M  V30 16 2 14 24
M  V30 17 2 15 19
M  V30 18 1 15 26
M  V30 19 2 16 20
M  V30 20 1 16 27
M  V30 21 1 17 20
M  V30 22 1 17 23
M  V30 23 1 17 26
M  V30 24 1 18 25
M  V30 25 1 21 22
M  V30 26 1 21 23
M  V30 27 1 22 25
M  V30 28 1 24 27
M  V30 29 2 26 27
M  V30 30 1 25 39 CFG=3
M  V30 31 1 23 38 CFG=1
M  V30 32 1 22 37 CFG=3
M  V30 33 1 8 28
M  V30 34 1 9 29
M  V30 35 1 13 30
M  V30 36 1 13 31
M  V30 37 1 18 32 CFG=1
M  V30 38 1 18 33
M  V30 39 1 19 34
M  V30 40 1 20 35
M  V30 41 1 21 36 CFG=3
M  V30 END BOND
M  V30 END CTAB
M  END
>  <Ligand_Instance>  (153) 
4IB1_ADP_A_403

>  <Dataset>  (153) 
PDB

>  <PDB_ID>  (153) 
4IB1

>  <Chain>  (153) 
A

>  <Resi>  (153) 
403

>  <Num_Resolved_Atoms>  (153) 
27

>  <Num_H_Atoms_ProtBoundConf>  (153) 
12

>  <Pocket>  (153) 
A

>  <SMILES>  (153) 
c1nc(c2c(n1)n(cn2)[C@H]3[C@@H]([C@@H]([C@H](O3)CO[P@](=O)(O)OP(=O)(O)O)O)O)N

>  <Name>  (153) 
ADENOSINE-5'-DIPHOSPHATE

>  <Num_Heavy_Atoms>  (153) 
27

>  <Num_Not_Resolved_Atoms>  (153) 
0

>  <ATP_Site>  (153) 
True

>  <Peripheral>  (153) 
False

>  <Standardized_SMILES>  (153) 
[H]O[C@@]1([H])[C@@]([H])(O[H])[C@]([H])(N2C([H])=NC3=C2N=C([H])N=C3N([H])[H])O[C@]1([H])C([H])([H])O[P@](=O)([O-])OP(=O)([O-])[O-]

$$$$
ADP
     RDKit          3D

  0  0  0  0  0  0  0  0  0  0999 V3000
M  V30 BEGIN CTAB
M  V30 COUNTS 39 41 0 0 0
M  V30 BEGIN ATOM
M  V30 1 P -2.755000 10.904000 -12.359000 0 CFG=2
M  V30 2 P -5.391000 10.705000 -13.567000 0 CFG=1
M  V30 3 O -2.398000 12.355000 -12.124000 0
M  V30 4 O -2.171000 9.883000 -11.404000 0 CHG=-1
M  V30 5 O -2.398000 10.618000 -13.788000 0 CHG=-1
M  V30 6 O -6.304000 11.832000 -13.466000 0
M  V30 7 O -4.721000 10.604000 -14.881000 0 CHG=-1
M  V30 8 O -7.225000 4.197000 -14.494000 0
M  V30 9 O -5.916000 6.356000 -15.972000 0
M  V30 10 O -4.325000 10.830000 -12.370000 0
M  V30 11 O -6.078000 9.299000 -13.253000 0
M  V30 12 O -6.876000 6.684000 -12.475000 0
M  V30 13 N -13.454000 8.779000 -12.359000 0
M  V30 14 N -13.243000 6.454000 -12.305000 0
M  V30 15 N -11.138000 5.245000 -12.519000 0
M  V30 16 N -10.332000 8.764000 -12.738000 0
M  V30 17 N -9.223000 6.775000 -12.811000 0
M  V30 18 C -5.171000 8.165000 -13.343000 0 CFG=2
M  V30 19 C -12.472000 5.316000 -12.360000 0
M  V30 20 C -9.172000 8.158000 -12.861000 0
M  V30 21 C -7.663000 5.533000 -14.353000 0 CFG=2
M  V30 22 C -6.687000 6.629000 -14.812000 0 CFG=1
M  V30 23 C -7.991000 5.911000 -12.937000 0 CFG=1
M  V30 24 C -12.661000 7.690000 -12.418000 0
M  V30 25 C -5.874000 6.830000 -13.529000 0 CFG=2
M  V30 26 C -10.558000 6.491000 -12.634000 0
M  V30 27 C -11.230000 7.736000 -12.593000 0
M  V30 28 H -6.601900 4.131000 -15.273300 0
M  V30 29 H -6.526300 6.195700 -16.747800 0
M  V30 30 H -13.055400 9.692700 -12.438700 0
M  V30 31 H -14.440700 8.672900 -12.235600 0
M  V30 32 H -4.633500 8.123600 -12.500700 0
M  V30 33 H -4.560300 8.310800 -14.121300 0
M  V30 34 H -12.956500 4.445700 -12.272100 0
M  V30 35 H -8.315100 8.659200 -12.981900 0
M  V30 36 H -8.499900 5.632400 -14.891200 0
M  V30 37 H -7.213500 7.462600 -14.979000 0
M  V30 38 H -8.091800 5.088000 -12.377900 0
M  V30 39 H -5.203400 6.092700 -13.447500 0
M  V30 END ATOM
M  V30 BEGIN BOND
M  V30 1 2 1 3
M  V30 2 1 1 4 CFG=1
M  V30 3 1 1 5
M  V30 4 1 1 10
M  V30 5 2 2 6
M  V30 6 1 2 7 CFG=3
M  V30 7 1 2 10
M  V30 8 1 2 11
M  V30 9 1 8 21
M  V30 10 1 9 22
M  V30 11 1 11 18
M  V30 12 1 12 23
M  V30 13 1 12 25
M  V30 14 1 13 24
M  V30 15 1 14 19
M  V30 16 2 14 24
M  V30 17 2 15 19
M  V30 18 1 15 26
M  V30 19 2 16 20
M  V30 20 1 16 27
M  V30 21 1 17 20
M  V30 22 1 17 23
M  V30 23 1 17 26
M  V30 24 1 18 25
M  V30 25 1 21 22
M  V30 26 1 21 23
M  V30 27 1 22 25
M  V30 28 1 24 27
M  V30 29 2 26 27
M  V30 30 1 25 39 CFG=1
M  V30 31 1 23 38 CFG=1
M  V30 32 1 22 37 CFG=3
M  V30 33 1 8 28
M  V30 34 1 9 29
M  V30 35 1 13 30
M  V30 36 1 13 31
M  V30 37 1 18 32 CFG=1
M  V30 38 1 18 33
M  V30 39 1 19 34
M  V30 40 1 20 35
M  V30 41 1 21 36 CFG=3
M  V30 END BOND
M  V30 END CTAB
M  END
>  <Ligand_Instance>  (154) 
4IB3_ADP_A_401

>  <Dataset>  (154) 
PDB

>  <PDB_ID>  (154) 
4IB3

>  <Chain>  (154) 
A

>  <Resi>  (154) 
401

>  <Num_Resolved_Atoms>  (154) 
27

>  <Num_H_Atoms_ProtBoundConf>  (154) 
12

>  <Pocket>  (154) 
A

>  <SMILES>  (154) 
c1nc(c2c(n1)n(cn2)[C@H]3[C@@H]([C@@H]([C@H](O3)CO[P@](=O)(O)OP(=O)(O)O)O)O)N

>  <Name>  (154) 
ADENOSINE-5'-DIPHOSPHATE

>  <Num_Heavy_Atoms>  (154) 
27

>  <Num_Not_Resolved_Atoms>  (154) 
0

>  <ATP_Site>  (154) 
True

>  <Peripheral>  (154) 
False

>  <Standardized_SMILES>  (154) 
[H]O[C@@]1([H])[C@@]([H])(O[H])[C@]([H])(N2C([H])=NC3=C2N=C([H])N=C3N([H])[H])O[C@]1([H])C([H])([H])O[P@](=O)([O-])OP(=O)([O-])[O-]

$$$$
ADP
     RDKit          3D

  0  0  0  0  0  0  0  0  0  0999 V3000
M  V30 BEGIN CTAB
M  V30 COUNTS 39 41 0 0 0
M  V30 BEGIN ATOM
M  V30 1 P 34.746000 49.073000 27.211000 0 CFG=2
M  V30 2 P 32.523000 47.461000 26.549000 0 CFG=1
M  V30 3 O 35.063000 50.529000 26.952000 0
M  V30 4 O 34.719000 48.703000 28.674000 0 CHG=-1
M  V30 5 O 35.541000 48.120000 26.348000 0 CHG=-1
M  V30 6 O 31.156000 47.703000 25.952000 0
M  V30 7 O 33.472000 46.526000 25.837000 0 CHG=-1
M  V30 8 O 29.936000 42.475000 28.403000 0
M  V30 9 O 32.348000 42.816000 27.677000 0
M  V30 10 O 33.218000 48.899000 26.743000 0
M  V30 11 O 32.342000 46.975000 28.078000 0
M  V30 12 O 31.317000 45.180000 30.018000 0
M  V30 13 N 24.757000 47.664000 29.601000 0
M  V30 14 N 24.893000 45.386000 30.182000 0
M  V30 15 N 26.947000 44.194000 30.217000 0
M  V30 16 N 27.876000 47.448000 29.234000 0
M  V30 17 N 28.961000 45.529000 29.595000 0
M  V30 18 C 33.183000 45.978000 28.667000 0 CFG=2
M  V30 19 C 25.609000 44.261000 30.380000 0
M  V30 20 C 29.080000 46.821000 29.235000 0
M  V30 21 C 30.253000 43.871000 28.329000 0 CFG=2
M  V30 22 C 31.708000 44.071000 27.936000 0 CFG=1
M  V30 23 C 30.074000 44.544000 29.689000 0 CFG=1
M  V30 24 C 25.482000 46.542000 29.797000 0
M  V30 25 C 32.360000 44.774000 29.121000 0 CFG=2
M  V30 26 C 27.667000 45.280000 29.834000 0
M  V30 27 C 26.951000 46.545000 29.598000 0
M  V30 28 H 30.748000 41.936400 28.178100 0
M  V30 29 H 32.680300 42.799600 26.734000 0
M  V30 30 H 25.210200 48.508800 29.316500 0
M  V30 31 H 23.766800 47.650200 29.740300 0
M  V30 32 H 33.653000 46.370800 29.457400 0
M  V30 33 H 33.858000 45.678400 27.992800 0
M  V30 34 H 25.123600 43.433500 30.662200 0
M  V30 35 H 29.945500 47.262600 28.998400 0
M  V30 36 H 29.660500 44.313600 27.655900 0
M  V30 37 H 31.762900 44.653100 27.124700 0
M  V30 38 H 29.855700 43.854500 30.379600 0
M  V30 39 H 32.960900 44.128200 29.591900 0
M  V30 END ATOM
M  V30 BEGIN BOND
M  V30 1 2 1 3
M  V30 2 1 1 4 CFG=1
M  V30 3 1 1 5
M  V30 4 1 1 10
M  V30 5 2 2 6
M  V30 6 1 2 7 CFG=3
M  V30 7 1 2 10
M  V30 8 1 2 11
M  V30 9 1 8 21
M  V30 10 1 9 22
M  V30 11 1 11 18
M  V30 12 1 12 23
M  V30 13 1 12 25
M  V30 14 1 13 24
M  V30 15 1 14 19
M  V30 16 2 14 24
M  V30 17 2 15 19
M  V30 18 1 15 26
M  V30 19 2 16 20
M  V30 20 1 16 27
M  V30 21 1 17 20
M  V30 22 1 17 23
M  V30 23 1 17 26
M  V30 24 1 18 25
M  V30 25 1 21 22
M  V30 26 1 21 23
M  V30 27 1 22 25
M  V30 28 1 24 27
M  V30 29 2 26 27
M  V30 30 1 25 39 CFG=1
M  V30 31 1 23 38 CFG=1
M  V30 32 1 22 37 CFG=3
M  V30 33 1 8 28
M  V30 34 1 9 29
M  V30 35 1 13 30
M  V30 36 1 13 31
M  V30 37 1 18 32 CFG=1
M  V30 38 1 18 33
M  V30 39 1 19 34
M  V30 40 1 20 35
M  V30 41 1 21 36 CFG=3
M  V30 END BOND
M  V30 END CTAB
M  END
>  <Ligand_Instance>  (155) 
4NTT_ADP_A_401

>  <Dataset>  (155) 
PDB

>  <PDB_ID>  (155) 
4NTT

>  <Chain>  (155) 
A

>  <Resi>  (155) 
401

>  <Num_Resolved_Atoms>  (155) 
27

>  <Num_H_Atoms_ProtBoundConf>  (155) 
12

>  <Pocket>  (155) 
A

>  <SMILES>  (155) 
c1nc(c2c(n1)n(cn2)[C@H]3[C@@H]([C@@H]([C@H](O3)CO[P@](=O)(O)OP(=O)(O)O)O)O)N

>  <Name>  (155) 
ADENOSINE-5'-DIPHOSPHATE

>  <Num_Heavy_Atoms>  (155) 
27

>  <Num_Not_Resolved_Atoms>  (155) 
0

>  <ATP_Site>  (155) 
True

>  <Peripheral>  (155) 
False

>  <Standardized_SMILES>  (155) 
[H]O[C@@]1([H])[C@@]([H])(O[H])[C@]([H])(N2C([H])=NC3=C2N=C([H])N=C3N([H])[H])O[C@]1([H])C([H])([H])O[P@](=O)([O-])OP(=O)([O-])[O-]

$$$$
ADP
     RDKit          3D

  0  0  0  0  0  0  0  0  0  0999 V3000
M  V30 BEGIN CTAB
M  V30 COUNTS 39 41 0 0 0
M  V30 BEGIN ATOM
M  V30 1 P 0.548000 15.225000 -14.871000 0 CFG=2
M  V30 2 P 1.855000 17.779000 -14.705000 0 CFG=1
M  V30 3 O 1.174000 13.846000 -14.817000 0
M  V30 4 O -0.629000 15.396000 -13.933000 0 CHG=-1
M  V30 5 O 0.288000 15.708000 -16.281000 0 CHG=-1
M  V30 6 O 3.291000 17.992000 -15.107000 0
M  V30 7 O 0.756000 18.227000 -15.639000 0 CHG=-1
M  V30 8 O 0.087000 23.349000 -12.463000 0
M  V30 9 O -0.154000 21.563000 -14.367000 0
M  V30 10 O 1.670000 16.229000 -14.274000 0
M  V30 11 O 1.651000 18.531000 -13.303000 0
M  V30 12 O 0.433000 20.462000 -11.079000 0
M  V30 13 N 6.818000 22.131000 -8.766000 0
M  V30 14 N 5.338000 23.973000 -8.836000 0
M  V30 15 N 3.130000 23.815000 -9.704000 0
M  V30 16 N 4.430000 20.554000 -10.074000 0
M  V30 17 N 2.488000 21.549000 -10.535000 0
M  V30 18 C 0.345000 18.689000 -12.751000 0 CFG=2
M  V30 19 C 4.141000 24.514000 -9.145000 0
M  V30 20 C 3.182000 20.398000 -10.579000 0
M  V30 21 C 1.081000 22.326000 -12.409000 0 CFG=2
M  V30 22 C 0.731000 21.164000 -13.322000 0 CFG=1
M  V30 23 C 1.091000 21.732000 -11.009000 0 CFG=1
M  V30 24 C 5.615000 22.668000 -9.077000 0
M  V30 25 C 0.037000 20.152000 -12.420000 0 CFG=2
M  V30 26 C 3.269000 22.493000 -9.996000 0
M  V30 27 C 4.552000 21.835000 -9.691000 0
M  V30 28 H -0.636000 23.078000 -13.098400 0
M  V30 29 H -0.362100 20.775100 -14.946600 0
M  V30 30 H 6.998100 21.165400 -8.953700 0
M  V30 31 H 7.526600 22.699900 -8.348600 0
M  V30 32 H 0.280900 18.147600 -11.912700 0
M  V30 33 H -0.327800 18.359000 -13.413200 0
M  V30 34 H 3.995000 25.483800 -8.949700 0
M  V30 35 H 2.823000 19.536700 -10.938500 0
M  V30 36 H 1.980400 22.696800 -12.640400 0
M  V30 37 H 1.563400 20.766900 -13.708500 0
M  V30 38 H 0.597300 22.334800 -10.382200 0
M  V30 39 H -0.950600 20.289700 -12.495400 0
M  V30 END ATOM
M  V30 BEGIN BOND
M  V30 1 2 1 3
M  V30 2 1 1 4 CFG=1
M  V30 3 1 1 5
M  V30 4 1 1 10
M  V30 5 2 2 6
M  V30 6 1 2 7 CFG=3
M  V30 7 1 2 10
M  V30 8 1 2 11
M  V30 9 1 8 21
M  V30 10 1 9 22
M  V30 11 1 11 18
M  V30 12 1 12 23
M  V30 13 1 12 25
M  V30 14 1 13 24
M  V30 15 1 14 19
M  V30 16 2 14 24
M  V30 17 2 15 19
M  V30 18 1 15 26
M  V30 19 2 16 20
M  V30 20 1 16 27
M  V30 21 1 17 20
M  V30 22 1 17 23
M  V30 23 1 17 26
M  V30 24 1 18 25
M  V30 25 1 21 22
M  V30 26 1 21 23
M  V30 27 1 22 25
M  V30 28 1 24 27
M  V30 29 2 26 27
M  V30 30 1 25 39 CFG=1
M  V30 31 1 23 38 CFG=1
M  V30 32 1 22 37 CFG=3
M  V30 33 1 8 28
M  V30 34 1 9 29
M  V30 35 1 13 30
M  V30 36 1 13 31
M  V30 37 1 18 32 CFG=1
M  V30 38 1 18 33
M  V30 39 1 19 34
M  V30 40 1 20 35
M  V30 41 1 21 36 CFG=3
M  V30 END BOND
M  V30 END CTAB
M  END
>  <Ligand_Instance>  (156) 
4NTT_ADP_B_401

>  <Dataset>  (156) 
PDB

>  <PDB_ID>  (156) 
4NTT

>  <Chain>  (156) 
B

>  <Resi>  (156) 
401

>  <Num_Resolved_Atoms>  (156) 
27

>  <Num_H_Atoms_ProtBoundConf>  (156) 
12

>  <Pocket>  (156) 
A

>  <SMILES>  (156) 
c1nc(c2c(n1)n(cn2)[C@H]3[C@@H]([C@@H]([C@H](O3)CO[P@](=O)(O)OP(=O)(O)O)O)O)N

>  <Name>  (156) 
ADENOSINE-5'-DIPHOSPHATE

>  <Num_Heavy_Atoms>  (156) 
27

>  <Num_Not_Resolved_Atoms>  (156) 
0

>  <ATP_Site>  (156) 
True

>  <Peripheral>  (156) 
False

>  <Standardized_SMILES>  (156) 
[H]O[C@@]1([H])[C@@]([H])(O[H])[C@]([H])(N2C([H])=NC3=C2N=C([H])N=C3N([H])[H])O[C@]1([H])C([H])([H])O[P@](=O)([O-])OP(=O)([O-])[O-]

$$$$
ADP
     RDKit          3D

  0  0  0  0  0  0  0  0  0  0999 V3000
M  V30 BEGIN CTAB
M  V30 COUNTS 39 41 0 0 0
M  V30 BEGIN ATOM
M  V30 1 P -2.754000 -11.791000 12.175000 0 CFG=1
M  V30 2 P -5.095000 -10.818000 13.476000 0 CFG=1
M  V30 3 O -2.231000 -11.526000 10.781000 0
M  V30 4 O -3.030000 -13.238000 12.501000 0 CHG=-1
M  V30 5 O -1.975000 -11.124000 13.275000 0 CHG=-1
M  V30 6 O -6.133000 -11.919000 13.523000 0
M  V30 7 O -4.169000 -10.565000 14.641000 0 CHG=-1
M  V30 8 O -7.320000 -4.502000 14.597000 0
M  V30 9 O -5.940000 -6.309000 15.935000 0
M  V30 10 O -4.180000 -11.027000 12.163000 0
M  V30 11 O -5.807000 -9.403000 13.177000 0
M  V30 12 O -6.829000 -6.784000 12.487000 0
M  V30 13 N -13.568000 -8.726000 12.360000 0
M  V30 14 N -13.229000 -6.394000 12.347000 0
M  V30 15 N -11.082000 -5.393000 12.570000 0
M  V30 16 N -10.412000 -8.844000 12.724000 0
M  V30 17 N -9.183000 -6.977000 12.823000 0
M  V30 18 C -5.070000 -8.224000 13.510000 0 CFG=2
M  V30 19 C -12.421000 -5.319000 12.413000 0
M  V30 20 C -9.163000 -8.324000 12.858000 0
M  V30 21 C -7.800000 -5.836000 14.428000 0 CFG=2
M  V30 22 C -6.716000 -6.811000 14.838000 0 CFG=1
M  V30 23 C -7.999000 -6.091000 12.947000 0 CFG=1
M  V30 24 C -12.738000 -7.654000 12.427000 0
M  V30 25 C -5.891000 -6.932000 13.565000 0 CFG=2
M  V30 26 C -10.452000 -6.585000 12.670000 0
M  V30 27 C -11.268000 -7.812000 12.598000 0
M  V30 28 H -6.657800 -4.478400 15.346000 0
M  V30 29 H -6.537200 -6.152500 16.721700 0
M  V30 30 H -13.194800 -9.651800 12.420100 0
M  V30 31 H -14.552600 -8.589900 12.250500 0
M  V30 32 H -4.351900 -8.104700 12.824400 0
M  V30 33 H -4.653300 -8.363600 14.408300 0
M  V30 34 H -12.837100 -4.412500 12.341500 0
M  V30 35 H -8.333900 -8.872000 12.968600 0
M  V30 36 H -8.643800 -5.989300 14.942400 0
M  V30 37 H -7.118000 -7.695500 15.074900 0
M  V30 38 H -8.133100 -5.235400 12.447100 0
M  V30 39 H -5.256500 -6.159800 13.532100 0
M  V30 END ATOM
M  V30 BEGIN BOND
M  V30 1 2 1 3
M  V30 2 1 1 4 CFG=1
M  V30 3 1 1 5
M  V30 4 1 1 10
M  V30 5 2 2 6
M  V30 6 1 2 7 CFG=1
M  V30 7 1 2 10
M  V30 8 1 2 11
M  V30 9 1 8 21
M  V30 10 1 9 22
M  V30 11 1 11 18
M  V30 12 1 12 23
M  V30 13 1 12 25
M  V30 14 1 13 24
M  V30 15 1 14 19
M  V30 16 2 14 24
M  V30 17 2 15 19
M  V30 18 1 15 26
M  V30 19 2 16 20
M  V30 20 1 16 27
M  V30 21 1 17 20
M  V30 22 1 17 23
M  V30 23 1 17 26
M  V30 24 1 18 25
M  V30 25 1 21 22
M  V30 26 1 21 23
M  V30 27 1 22 25
M  V30 28 1 24 27
M  V30 29 2 26 27
M  V30 30 1 25 39 CFG=1
M  V30 31 1 23 38 CFG=3
M  V30 32 1 22 37 CFG=1
M  V30 33 1 8 28
M  V30 34 1 9 29
M  V30 35 1 13 30
M  V30 36 1 13 31
M  V30 37 1 18 32 CFG=3
M  V30 38 1 18 33
M  V30 39 1 19 34
M  V30 40 1 20 35
M  V30 41 1 21 36 CFG=1
M  V30 END BOND
M  V30 END CTAB
M  END
>  <Ligand_Instance>  (157) 
4O21_ADP_A_401

>  <Dataset>  (157) 
PDB

>  <PDB_ID>  (157) 
4O21

>  <Chain>  (157) 
A

>  <Resi>  (157) 
401

>  <Num_Resolved_Atoms>  (157) 
27

>  <Num_H_Atoms_ProtBoundConf>  (157) 
12

>  <Pocket>  (157) 
A

>  <SMILES>  (157) 
c1nc(c2c(n1)n(cn2)[C@H]3[C@@H]([C@@H]([C@H](O3)CO[P@](=O)(O)OP(=O)(O)O)O)O)N

>  <Name>  (157) 
ADENOSINE-5'-DIPHOSPHATE

>  <Num_Heavy_Atoms>  (157) 
27

>  <Num_Not_Resolved_Atoms>  (157) 
0

>  <ATP_Site>  (157) 
True

>  <Peripheral>  (157) 
False

>  <Standardized_SMILES>  (157) 
[H]O[C@@]1([H])[C@@]([H])(O[H])[C@]([H])(N2C([H])=NC3=C2N=C([H])N=C3N([H])[H])O[C@]1([H])C([H])([H])O[P@](=O)([O-])OP(=O)([O-])[O-]

$$$$
ADP
     RDKit          3D

  0  0  0  0  0  0  0  0  0  0999 V3000
M  V30 BEGIN CTAB
M  V30 COUNTS 39 41 0 0 0
M  V30 BEGIN ATOM
M  V30 1 P -3.072000 11.704000 -13.707000 0 CFG=2
M  V30 2 P -5.788000 10.747000 -13.783000 0 CFG=1
M  V30 3 O -3.518000 13.063000 -14.020000 0
M  V30 4 O -1.984000 11.707000 -12.695000 0 CHG=-1
M  V30 5 O -2.805000 10.885000 -14.895000 0 CHG=-1
M  V30 6 O -6.779000 11.749000 -13.546000 0
M  V30 7 O -5.502000 10.392000 -15.165000 0 CHG=-1
M  V30 8 O -7.158000 4.570000 -14.448000 0
M  V30 9 O -5.961000 6.721000 -15.775000 0
M  V30 10 O -4.393000 11.029000 -13.057000 0
M  V30 11 O -6.295000 9.416000 -13.142000 0
M  V30 12 O -7.072000 6.703000 -12.337000 0
M  V30 13 N -13.613000 8.761000 -12.380000 0
M  V30 14 N -13.283000 6.469000 -12.245000 0
M  V30 15 N -11.213000 5.451000 -12.433000 0
M  V30 16 N -10.541000 8.830000 -12.859000 0
M  V30 17 N -9.351000 6.979000 -12.858000 0
M  V30 18 C -5.423000 8.318000 -13.014000 0 CFG=2
M  V30 19 C -12.504000 5.422000 -12.247000 0
M  V30 20 C -9.334000 8.294000 -12.973000 0
M  V30 21 C -7.782000 5.821000 -14.368000 0 CFG=2
M  V30 22 C -6.798000 6.936000 -14.655000 0 CFG=1
M  V30 23 C -8.181000 6.092000 -12.938000 0 CFG=1
M  V30 24 C -12.828000 7.703000 -12.396000 0
M  V30 25 C -6.102000 7.002000 -13.306000 0 CFG=2
M  V30 26 C -10.588000 6.606000 -12.661000 0
M  V30 27 C -11.383000 7.837000 -12.641000 0
M  V30 28 H -6.785900 4.441300 -15.367200 0
M  V30 29 H -6.522700 6.616400 -16.595700 0
M  V30 30 H -13.223500 9.674400 -12.498300 0
M  V30 31 H -14.598300 8.650600 -12.249600 0
M  V30 32 H -5.070500 8.296100 -12.078500 0
M  V30 33 H -4.663500 8.435600 -13.653800 0
M  V30 34 H -12.928900 4.529700 -12.094400 0
M  V30 35 H -8.502300 8.827000 -13.128900 0
M  V30 36 H -8.572100 5.870300 -14.979000 0
M  V30 37 H -7.307700 7.785000 -14.794300 0
M  V30 38 H -8.381200 5.228500 -12.475200 0
M  V30 39 H -5.407400 6.283100 -13.280700 0
M  V30 END ATOM
M  V30 BEGIN BOND
M  V30 1 2 1 3
M  V30 2 1 1 4 CFG=1
M  V30 3 1 1 5
M  V30 4 1 1 10
M  V30 5 2 2 6
M  V30 6 1 2 7 CFG=3
M  V30 7 1 2 10
M  V30 8 1 2 11
M  V30 9 1 8 21
M  V30 10 1 9 22
M  V30 11 1 11 18
M  V30 12 1 12 23
M  V30 13 1 12 25
M  V30 14 1 13 24
M  V30 15 1 14 19
M  V30 16 2 14 24
M  V30 17 2 15 19
M  V30 18 1 15 26
M  V30 19 2 16 20
M  V30 20 1 16 27
M  V30 21 1 17 20
M  V30 22 1 17 23
M  V30 23 1 17 26
M  V30 24 1 18 25
M  V30 25 1 21 22
M  V30 26 1 21 23
M  V30 27 1 22 25
M  V30 28 1 24 27
M  V30 29 2 26 27
M  V30 30 1 25 39 CFG=3
M  V30 31 1 23 38 CFG=1
M  V30 32 1 22 37 CFG=3
M  V30 33 1 8 28
M  V30 34 1 9 29
M  V30 35 1 13 30
M  V30 36 1 13 31
M  V30 37 1 18 32 CFG=1
M  V30 38 1 18 33
M  V30 39 1 19 34
M  V30 40 1 20 35
M  V30 41 1 21 36 CFG=3
M  V30 END BOND
M  V30 END CTAB
M  END
>  <Ligand_Instance>  (158) 
4XW6_ADP_A_403

>  <Dataset>  (158) 
PDB

>  <PDB_ID>  (158) 
4XW6

>  <Chain>  (158) 
A

>  <Resi>  (158) 
403

>  <Num_Resolved_Atoms>  (158) 
27

>  <Num_H_Atoms_ProtBoundConf>  (158) 
12

>  <Pocket>  (158) 
A

>  <SMILES>  (158) 
c1nc(c2c(n1)n(cn2)[C@H]3[C@@H]([C@@H]([C@H](O3)CO[P@](=O)(O)OP(=O)(O)O)O)O)N

>  <Name>  (158) 
ADENOSINE-5'-DIPHOSPHATE

>  <Num_Heavy_Atoms>  (158) 
27

>  <Num_Not_Resolved_Atoms>  (158) 
0

>  <ATP_Site>  (158) 
True

>  <Peripheral>  (158) 
False

>  <Standardized_SMILES>  (158) 
[H]O[C@@]1([H])[C@@]([H])(O[H])[C@]([H])(N2C([H])=NC3=C2N=C([H])N=C3N([H])[H])O[C@]1([H])C([H])([H])O[P@](=O)([O-])OP(=O)([O-])[O-]

$$$$
ADP
     RDKit          3D

  0  0  0  0  0  0  0  0  0  0999 V3000
M  V30 BEGIN CTAB
M  V30 COUNTS 39 41 0 0 0
M  V30 BEGIN ATOM
M  V30 1 P -2.447000 10.985000 -13.334000 0 CFG=2
M  V30 2 P -5.123000 10.222000 -13.661000 0 CFG=2
M  V30 3 O -1.907000 10.375000 -14.546000 0
M  V30 4 O -2.558000 12.566000 -13.446000 0 CHG=-1
M  V30 5 O -1.422000 10.597000 -12.164000 0 CHG=-1
M  V30 6 O -4.907000 10.078000 -15.175000 0
M  V30 7 O -6.023000 11.353000 -13.361000 0 CHG=-1
M  V30 8 O -7.061000 4.236000 -14.370000 0
M  V30 9 O -5.743000 6.179000 -15.796000 0
M  V30 10 O -3.798000 10.398000 -12.799000 0
M  V30 11 O -5.798000 8.895000 -13.048000 0
M  V30 12 O -6.510000 6.389000 -12.232000 0
M  V30 13 N -12.993000 8.943000 -11.793000 0
M  V30 14 N -12.828000 6.584000 -11.788000 0
M  V30 15 N -10.853000 5.421000 -12.139000 0
M  V30 16 N -9.942000 8.794000 -12.409000 0
M  V30 17 N -8.868000 6.894000 -12.550000 0
M  V30 18 C -4.810000 7.854000 -13.150000 0 CFG=2
M  V30 19 C -12.159000 5.436000 -11.894000 0
M  V30 20 C -8.787000 8.262000 -12.603000 0
M  V30 21 C -7.566000 5.577000 -14.207000 0 CFG=2
M  V30 22 C -6.450000 6.570000 -14.613000 0 CFG=1
M  V30 23 C -7.769000 5.905000 -12.708000 0 CFG=1
M  V30 24 C -12.241000 7.789000 -11.930000 0
M  V30 25 C -5.571000 6.544000 -13.350000 0 CFG=2
M  V30 26 C -10.180000 6.580000 -12.291000 0
M  V30 27 C -10.856000 7.821000 -12.198000 0
M  V30 28 H -6.386600 4.221200 -15.108200 0
M  V30 29 H -6.196300 6.566700 -16.598700 0
M  V30 30 H -12.559200 9.837900 -11.898000 0
M  V30 31 H -13.970100 8.881800 -11.589000 0
M  V30 32 H -4.265900 7.812000 -12.312000 0
M  V30 33 H -4.208100 8.025400 -13.930000 0
M  V30 34 H -12.648600 4.570600 -11.787300 0
M  V30 35 H -7.945300 8.775600 -12.769600 0
M  V30 36 H -8.402500 5.724300 -14.734800 0
M  V30 37 H -6.838000 7.483300 -14.736700 0
M  V30 38 H -8.006800 5.067100 -12.216800 0
M  V30 39 H -4.935800 5.772400 -13.382300 0
M  V30 END ATOM
M  V30 BEGIN BOND
M  V30 1 2 1 3
M  V30 2 1 1 4 CFG=3
M  V30 3 1 1 5
M  V30 4 1 1 10
M  V30 5 2 2 6
M  V30 6 1 2 7 CFG=3
M  V30 7 1 2 10
M  V30 8 1 2 11
M  V30 9 1 8 21
M  V30 10 1 9 22
M  V30 11 1 11 18
M  V30 12 1 12 23
M  V30 13 1 12 25
M  V30 14 1 13 24
M  V30 15 1 14 19
M  V30 16 2 14 24
M  V30 17 2 15 19
M  V30 18 1 15 26
M  V30 19 2 16 20
M  V30 20 1 16 27
M  V30 21 1 17 20
M  V30 22 1 17 23
M  V30 23 1 17 26
M  V30 24 1 18 25
M  V30 25 1 21 22
M  V30 26 1 21 23
M  V30 27 1 22 25
M  V30 28 1 24 27
M  V30 29 2 26 27
M  V30 30 1 25 39 CFG=3
M  V30 31 1 23 38 CFG=1
M  V30 32 1 22 37 CFG=3
M  V30 33 1 8 28
M  V30 34 1 9 29
M  V30 35 1 13 30
M  V30 36 1 13 31
M  V30 37 1 18 32 CFG=1
M  V30 38 1 18 33
M  V30 39 1 19 34
M  V30 40 1 20 35
M  V30 41 1 21 36 CFG=3
M  V30 END BOND
M  V30 END CTAB
M  END
>  <Ligand_Instance>  (159) 
6E21_ADP_A_403

>  <Dataset>  (159) 
PDB

>  <PDB_ID>  (159) 
6E21

>  <Chain>  (159) 
A

>  <Resi>  (159) 
403

>  <Num_Resolved_Atoms>  (159) 
27

>  <Num_H_Atoms_ProtBoundConf>  (159) 
12

>  <Pocket>  (159) 
A

>  <SMILES>  (159) 
c1nc(c2c(n1)n(cn2)[C@H]3[C@@H]([C@@H]([C@H](O3)CO[P@](=O)(O)OP(=O)(O)O)O)O)N

>  <Name>  (159) 
ADENOSINE-5'-DIPHOSPHATE

>  <Num_Heavy_Atoms>  (159) 
27

>  <Num_Not_Resolved_Atoms>  (159) 
0

>  <ATP_Site>  (159) 
True

>  <Peripheral>  (159) 
False

>  <Standardized_SMILES>  (159) 
[H]O[C@@]1([H])[C@@]([H])(O[H])[C@]([H])(N2C([H])=NC3=C2N=C([H])N=C3N([H])[H])O[C@]1([H])C([H])([H])O[P@@](=O)([O-])OP(=O)([O-])[O-]

$$$$
ADP
     RDKit          3D

  0  0  0  0  0  0  0  0  0  0999 V3000
M  V30 BEGIN CTAB
M  V30 COUNTS 39 41 0 0 0
M  V30 BEGIN ATOM
M  V30 1 P -4.167000 16.248000 -7.440000 0 CFG=1
M  V30 2 P -6.257000 14.734000 -9.012000 0 CFG=2
M  V30 3 O -3.285000 15.689000 -8.515000 0
M  V30 4 O -3.926000 15.769000 -6.025000 0 CHG=-1
M  V30 5 O -4.333000 17.759000 -7.530000 0 CHG=-1
M  V30 6 O -5.370000 14.521000 -10.218000 0
M  V30 7 O -7.669000 15.177000 -9.263000 0 CHG=-1
M  V30 8 O -6.661000 8.303000 -8.524000 0
M  V30 9 O -5.846000 10.244000 -10.366000 0
M  V30 10 O -5.662000 15.714000 -7.861000 0
M  V30 11 O -6.334000 13.311000 -8.234000 0
M  V30 12 O -6.554000 10.852000 -6.894000 0
M  V30 13 N -13.287000 12.036000 -7.023000 0
M  V30 14 N -12.800000 9.721000 -7.051000 0
M  V30 15 N -10.560000 8.937000 -7.122000 0
M  V30 16 N -10.322000 12.488000 -7.095000 0
M  V30 17 N -8.903000 10.776000 -7.143000 0
M  V30 18 C -5.217000 12.433000 -8.142000 0 CFG=2
M  V30 19 C -11.889000 8.728000 -7.091000 0
M  V30 20 C -9.028000 12.128000 -7.134000 0
M  V30 21 C -7.428000 9.502000 -8.609000 0 CFG=2
M  V30 22 C -6.616000 10.624000 -9.216000 0 CFG=1
M  V30 23 C -7.656000 9.999000 -7.191000 0 CFG=1
M  V30 24 C -12.432000 11.014000 -7.057000 0
M  V30 25 C -5.733000 11.006000 -8.045000 0 CFG=2
M  V30 26 C -10.102000 10.220000 -7.120000 0
M  V30 27 C -11.022000 11.332000 -7.078000 0
M  V30 28 H -6.972200 7.762900 -7.742000 0
M  V30 29 H -6.312600 9.503600 -10.849800 0
M  V30 30 H -12.944000 12.975300 -7.029900 0
M  V30 31 H -14.271500 11.863400 -6.990600 0
M  V30 32 H -4.680300 12.653900 -7.327700 0
M  V30 33 H -4.643600 12.530000 -8.955500 0
M  V30 34 H -12.219100 7.784100 -7.098000 0
M  V30 35 H -8.260800 12.769100 -7.153700 0
M  V30 36 H -8.289300 9.359400 -9.096700 0
M  V30 37 H -7.217200 11.388300 -9.449300 0
M  V30 38 H -7.692400 9.232600 -6.549600 0
M  V30 39 H -4.959600 10.374400 -7.990200 0
M  V30 END ATOM
M  V30 BEGIN BOND
M  V30 1 2 1 3
M  V30 2 1 1 4 CFG=1
M  V30 3 1 1 5
M  V30 4 1 1 10
M  V30 5 2 2 6
M  V30 6 1 2 7 CFG=3
M  V30 7 1 2 10
M  V30 8 1 2 11
M  V30 9 1 8 21
M  V30 10 1 9 22
M  V30 11 1 11 18
M  V30 12 1 12 23
M  V30 13 1 12 25
M  V30 14 1 13 24
M  V30 15 1 14 19
M  V30 16 2 14 24
M  V30 17 2 15 19
M  V30 18 1 15 26
M  V30 19 2 16 20
M  V30 20 1 16 27
M  V30 21 1 17 20
M  V30 22 1 17 23
M  V30 23 1 17 26
M  V30 24 1 18 25
M  V30 25 1 21 22
M  V30 26 1 21 23
M  V30 27 1 22 25
M  V30 28 1 24 27
M  V30 29 2 26 27
M  V30 30 1 25 39 CFG=1
M  V30 31 1 23 38 CFG=1
M  V30 32 1 22 37 CFG=3
M  V30 33 1 8 28
M  V30 34 1 9 29
M  V30 35 1 13 30
M  V30 36 1 13 31
M  V30 37 1 18 32 CFG=1
M  V30 38 1 18 33
M  V30 39 1 19 34
M  V30 40 1 20 35
M  V30 41 1 21 36 CFG=3
M  V30 END BOND
M  V30 END CTAB
M  END
>  <Ligand_Instance>  (160) 
6EM6_ADP_A_401

>  <Dataset>  (160) 
PDB

>  <PDB_ID>  (160) 
6EM6

>  <Chain>  (160) 
A

>  <Resi>  (160) 
401

>  <Num_Resolved_Atoms>  (160) 
27

>  <Num_H_Atoms_ProtBoundConf>  (160) 
12

>  <Pocket>  (160) 
A

>  <SMILES>  (160) 
c1nc(c2c(n1)n(cn2)[C@H]3[C@@H]([C@@H]([C@H](O3)CO[P@](=O)(O)OP(=O)(O)O)O)O)N

>  <Name>  (160) 
ADENOSINE-5'-DIPHOSPHATE

>  <Num_Heavy_Atoms>  (160) 
27

>  <Num_Not_Resolved_Atoms>  (160) 
0

>  <ATP_Site>  (160) 
True

>  <Peripheral>  (160) 
False

>  <Standardized_SMILES>  (160) 
[H]O[C@@]1([H])[C@@]([H])(O[H])[C@]([H])(N2C([H])=NC3=C2N=C([H])N=C3N([H])[H])O[C@]1([H])C([H])([H])O[P@@](=O)([O-])OP(=O)([O-])[O-]

$$$$
ADP
     RDKit          3D

  0  0  0  0  0  0  0  0  0  0999 V3000
M  V30 BEGIN CTAB
M  V30 COUNTS 39 41 0 0 0
M  V30 BEGIN ATOM
M  V30 1 P -2.768000 11.413000 -13.710000 0 CFG=2
M  V30 2 P -5.550000 10.629000 -13.789000 0 CFG=2
M  V30 3 O -2.635000 10.586000 -14.965000 0
M  V30 4 O -2.893000 12.899000 -13.994000 0 CHG=-1
M  V30 5 O -1.747000 11.128000 -12.643000 0 CHG=-1
M  V30 6 O -5.362000 10.263000 -15.246000 0
M  V30 7 O -6.538000 11.693000 -13.405000 0 CHG=-1
M  V30 8 O -7.311000 4.527000 -14.490000 0
M  V30 9 O -5.756000 6.366000 -15.823000 0
M  V30 10 O -4.134000 10.859000 -13.034000 0
M  V30 11 O -5.982000 9.289000 -13.035000 0
M  V30 12 O -6.817000 6.709000 -12.394000 0
M  V30 13 N -13.376000 9.049000 -12.286000 0
M  V30 14 N -13.195000 6.704000 -12.105000 0
M  V30 15 N -11.115000 5.598000 -12.368000 0
M  V30 16 N -10.315000 8.980000 -12.819000 0
M  V30 17 N -9.173000 7.094000 -12.827000 0
M  V30 18 C -5.074000 8.220000 -13.113000 0 CFG=2
M  V30 19 C -12.442000 5.588000 -12.140000 0
M  V30 20 C -9.092000 8.423000 -12.964000 0
M  V30 21 C -7.711000 5.898000 -14.420000 0 CFG=2
M  V30 22 C -6.572000 6.853000 -14.774000 0 CFG=1
M  V30 23 C -8.034000 6.167000 -12.948000 0 CFG=1
M  V30 24 C -12.644000 7.922000 -12.303000 0
M  V30 25 C -5.831000 6.945000 -13.428000 0 CFG=2
M  V30 26 C -10.441000 6.750000 -12.580000 0
M  V30 27 C -11.195000 8.003000 -12.566000 0
M  V30 28 H -6.595000 4.423500 -15.180400 0
M  V30 29 H -6.311600 6.234700 -16.644000 0
M  V30 30 H -12.935100 9.933900 -12.436400 0
M  V30 31 H -14.361500 9.002700 -12.123000 0
M  V30 32 H -4.599400 8.119800 -12.238500 0
M  V30 33 H -4.406700 8.400000 -13.835700 0
M  V30 34 H -12.891100 4.707400 -11.989000 0
M  V30 35 H -8.249600 8.929900 -13.146900 0
M  V30 36 H -8.510100 6.066400 -14.997100 0
M  V30 37 H -6.943100 7.748500 -15.019700 0
M  V30 38 H -8.254400 5.305200 -12.491200 0
M  V30 39 H -5.175100 6.190900 -13.394600 0
M  V30 END ATOM
M  V30 BEGIN BOND
M  V30 1 2 1 3
M  V30 2 1 1 4 CFG=3
M  V30 3 1 1 5
M  V30 4 1 1 10
M  V30 5 2 2 6
M  V30 6 1 2 7 CFG=3
M  V30 7 1 2 10
M  V30 8 1 2 11
M  V30 9 1 8 21
M  V30 10 1 9 22
M  V30 11 1 11 18
M  V30 12 1 12 23
M  V30 13 1 12 25
M  V30 14 1 13 24
M  V30 15 1 14 19
M  V30 16 2 14 24
M  V30 17 2 15 19
M  V30 18 1 15 26
M  V30 19 2 16 20
M  V30 20 1 16 27
M  V30 21 1 17 20
M  V30 22 1 17 23
M  V30 23 1 17 26
M  V30 24 1 18 25
M  V30 25 1 21 22
M  V30 26 1 21 23
M  V30 27 1 22 25
M  V30 28 1 24 27
M  V30 29 2 26 27
M  V30 30 1 25 39 CFG=3
M  V30 31 1 23 38 CFG=1
M  V30 32 1 22 37 CFG=3
M  V30 33 1 8 28
M  V30 34 1 9 29
M  V30 35 1 13 30
M  V30 36 1 13 31
M  V30 37 1 18 32 CFG=1
M  V30 38 1 18 33
M  V30 39 1 19 34
M  V30 40 1 20 35
M  V30 41 1 21 36 CFG=3
M  V30 END BOND
M  V30 END CTAB
M  END
>  <Ligand_Instance>  (161) 
7UJX_ADP_E_401

>  <Dataset>  (161) 
PDB

>  <PDB_ID>  (161) 
7UJX

>  <Chain>  (161) 
E

>  <Resi>  (161) 
401

>  <Num_Resolved_Atoms>  (161) 
27

>  <Num_H_Atoms_ProtBoundConf>  (161) 
12

>  <Pocket>  (161) 
A

>  <SMILES>  (161) 
c1nc(c2c(n1)n(cn2)[C@H]3[C@@H]([C@@H]([C@H](O3)CO[P@](=O)(O)OP(=O)(O)O)O)O)N

>  <Name>  (161) 
ADENOSINE-5'-DIPHOSPHATE

>  <Num_Heavy_Atoms>  (161) 
27

>  <Num_Not_Resolved_Atoms>  (161) 
0

>  <ATP_Site>  (161) 
True

>  <Peripheral>  (161) 
False

>  <Standardized_SMILES>  (161) 
[H]O[C@@]1([H])[C@@]([H])(O[H])[C@]([H])(N2C([H])=NC3=C2N=C([H])N=C3N([H])[H])O[C@]1([H])C([H])([H])O[P@@](=O)([O-])OP(=O)([O-])[O-]

$$$$
ADP
     RDKit          3D

  0  0  0  0  0  0  0  0  0  0999 V3000
M  V30 BEGIN CTAB
M  V30 COUNTS 39 41 0 0 0
M  V30 BEGIN ATOM
M  V30 1 P -2.764000 11.389000 -13.681000 0 CFG=2
M  V30 2 P -5.558000 10.590000 -13.786000 0 CFG=2
M  V30 3 O -2.540000 10.603000 -14.959000 0
M  V30 4 O -2.929000 12.874000 -13.890000 0 CHG=-1
M  V30 5 O -1.765000 11.046000 -12.632000 0 CHG=-1
M  V30 6 O -5.279000 10.258000 -15.226000 0
M  V30 7 O -6.555000 11.659000 -13.436000 0 CHG=-1
M  V30 8 O -7.204000 4.573000 -14.465000 0
M  V30 9 O -5.761000 6.555000 -15.789000 0
M  V30 10 O -4.148000 10.881000 -13.048000 0
M  V30 11 O -6.008000 9.254000 -13.009000 0
M  V30 12 O -6.954000 6.683000 -12.383000 0
M  V30 13 N -13.330000 9.008000 -12.211000 0
M  V30 14 N -13.152000 6.667000 -12.063000 0
M  V30 15 N -11.095000 5.554000 -12.390000 0
M  V30 16 N -10.347000 9.002000 -12.790000 0
M  V30 17 N -9.222000 7.072000 -12.862000 0
M  V30 18 C -5.144000 8.134000 -13.085000 0 CFG=2
M  V30 19 C -12.409000 5.550000 -12.130000 0
M  V30 20 C -9.135000 8.423000 -12.984000 0
M  V30 21 C -7.732000 5.880000 -14.441000 0 CFG=2
M  V30 22 C -6.633000 6.891000 -14.726000 0 CFG=1
M  V30 23 C -8.113000 6.112000 -12.989000 0 CFG=1
M  V30 24 C -12.616000 7.885000 -12.260000 0
M  V30 25 C -5.928000 6.875000 -13.366000 0 CFG=2
M  V30 26 C -10.459000 6.728000 -12.593000 0
M  V30 27 C -11.196000 7.985000 -12.536000 0
M  V30 28 H -6.812900 4.388000 -15.366600 0
M  V30 29 H -6.286600 6.462100 -16.634600 0
M  V30 30 H -12.885200 9.890400 -12.364500 0
M  V30 31 H -14.310900 8.968900 -12.020700 0
M  V30 32 H -4.660400 8.032600 -12.215600 0
M  V30 33 H -4.481600 8.279400 -13.819900 0
M  V30 34 H -12.859900 4.670500 -11.978000 0
M  V30 35 H -8.293000 8.922100 -13.188700 0
M  V30 36 H -8.511800 5.984600 -15.058200 0
M  V30 37 H -7.035000 7.792000 -14.889000 0
M  V30 38 H -8.347900 5.246400 -12.546800 0
M  V30 39 H -5.304000 6.094200 -13.336400 0
M  V30 END ATOM
M  V30 BEGIN BOND
M  V30 1 2 1 3
M  V30 2 1 1 4 CFG=3
M  V30 3 1 1 5
M  V30 4 1 1 10
M  V30 5 2 2 6
M  V30 6 1 2 7 CFG=3
M  V30 7 1 2 10
M  V30 8 1 2 11
M  V30 9 1 8 21
M  V30 10 1 9 22
M  V30 11 1 11 18
M  V30 12 1 12 23
M  V30 13 1 12 25
M  V30 14 1 13 24
M  V30 15 1 14 19
M  V30 16 2 14 24
M  V30 17 2 15 19
M  V30 18 1 15 26
M  V30 19 2 16 20
M  V30 20 1 16 27
M  V30 21 1 17 20
M  V30 22 1 17 23
M  V30 23 1 17 26
M  V30 24 1 18 25
M  V30 25 1 21 22
M  V30 26 1 21 23
M  V30 27 1 22 25
M  V30 28 1 24 27
M  V30 29 2 26 27
M  V30 30 1 25 39 CFG=3
M  V30 31 1 23 38 CFG=1
M  V30 32 1 22 37 CFG=3
M  V30 33 1 8 28
M  V30 34 1 9 29
M  V30 35 1 13 30
M  V30 36 1 13 31
M  V30 37 1 18 32 CFG=1
M  V30 38 1 18 33
M  V30 39 1 19 34
M  V30 40 1 20 35
M  V30 41 1 21 36 CFG=3
M  V30 END BOND
M  V30 END CTAB
M  END
>  <Ligand_Instance>  (162) 
7V0G_ADP_E_401

>  <Dataset>  (162) 
PDB

>  <PDB_ID>  (162) 
7V0G

>  <Chain>  (162) 
E

>  <Resi>  (162) 
401

>  <Num_Resolved_Atoms>  (162) 
27

>  <Num_H_Atoms_ProtBoundConf>  (162) 
12

>  <Pocket>  (162) 
A

>  <SMILES>  (162) 
c1nc(c2c(n1)n(cn2)[C@H]3[C@@H]([C@@H]([C@H](O3)CO[P@](=O)(O)OP(=O)(O)O)O)O)N

>  <Name>  (162) 
ADENOSINE-5'-DIPHOSPHATE

>  <Num_Heavy_Atoms>  (162) 
27

>  <Num_Not_Resolved_Atoms>  (162) 
0

>  <ATP_Site>  (162) 
True

>  <Peripheral>  (162) 
False

>  <Standardized_SMILES>  (162) 
[H]O[C@@]1([H])[C@@]([H])(O[H])[C@]([H])(N2C([H])=NC3=C2N=C([H])N=C3N([H])[H])O[C@]1([H])C([H])([H])O[P@@](=O)([O-])OP(=O)([O-])[O-]

$$$$
AMP
     RDKit          3D

  0  0  0  0  0  0  0  0  0  0999 V3000
M  V30 BEGIN CTAB
M  V30 COUNTS 35 37 0 0 0
M  V30 BEGIN ATOM
M  V30 1 P -11.918000 -21.454000 28.143000 0 CFG=1
M  V30 2 O -12.990000 -20.959000 27.198000 0
M  V30 3 O -10.495000 -21.228000 27.682000 0 CHG=-1
M  V30 4 O -12.179000 -21.124000 29.595000 0 CHG=-1
M  V30 5 O -12.315000 -28.080000 28.052000 0
M  V30 6 O -10.437000 -26.077000 27.601000 0
M  V30 7 O -12.057000 -23.039000 28.088000 0
M  V30 8 O -13.754000 -25.570000 28.924000 0
M  V30 9 N -17.451000 -24.112000 23.379000 0
M  V30 10 N -17.228000 -26.448000 23.672000 0
M  V30 11 N -15.892000 -27.336000 25.406000 0
M  V30 12 N -15.614000 -23.850000 25.811000 0
M  V30 13 N -14.796000 -25.646000 26.852000 0
M  V30 14 C -12.126000 -23.818000 29.275000 0 CFG=2
M  V30 15 C -16.702000 -27.483000 24.343000 0
M  V30 16 C -14.830000 -24.300000 26.824000 0
M  V30 17 C -12.718000 -26.940000 27.302000 0 CFG=2
M  V30 18 C -11.817000 -25.755000 27.596000 0 CFG=1
M  V30 19 C -14.049000 -26.434000 27.849000 0 CFG=1
M  V30 20 C -16.967000 -25.173000 24.027000 0
M  V30 21 C -12.332000 -25.278000 28.954000 0 CFG=2
M  V30 22 C -15.549000 -26.112000 25.855000 0
M  V30 23 C -16.085000 -24.935000 25.177000 0
M  V30 24 H -13.113100 -28.650300 28.246300 0
M  V30 25 H -9.903600 -25.254900 27.800200 0
M  V30 26 H -17.222300 -23.189300 23.689500 0
M  V30 27 H -18.042500 -24.239400 22.582800 0
M  V30 28 H -12.890000 -23.495300 29.833700 0
M  V30 29 H -11.272300 -23.712800 29.785000 0
M  V30 30 H -16.923000 -28.409300 24.037900 0
M  V30 31 H -14.341400 -23.708900 27.465800 0
M  V30 32 H -12.767900 -27.136500 26.322800 0
M  V30 33 H -11.983200 -25.041800 26.915100 0
M  V30 34 H -14.604700 -27.202100 28.167200 0
M  V30 35 H -11.905400 -25.828600 29.671500 0
M  V30 END ATOM
M  V30 BEGIN BOND
M  V30 1 2 1 2
M  V30 2 1 1 3 CFG=3
M  V30 3 1 1 4
M  V30 4 1 1 7
M  V30 5 1 5 17
M  V30 6 1 6 18
M  V30 7 1 7 14
M  V30 8 1 8 19
M  V30 9 1 8 21
M  V30 10 1 9 20
M  V30 11 1 10 15
M  V30 12 2 10 20
M  V30 13 2 11 15
M  V30 14 1 11 22
M  V30 15 2 12 16
M  V30 16 1 12 23
M  V30 17 1 13 16
M  V30 18 1 13 19
M  V30 19 1 13 22
M  V30 20 1 14 21
M  V30 21 1 17 18
M  V30 22 1 17 19
M  V30 23 1 18 21
M  V30 24 1 20 23
M  V30 25 2 22 23
M  V30 26 1 21 35 CFG=1
M  V30 27 1 19 34 CFG=1
M  V30 28 1 5 24
M  V30 29 1 6 25
M  V30 30 1 9 26
M  V30 31 1 9 27
M  V30 32 1 14 28 CFG=1
M  V30 33 1 14 29
M  V30 34 1 15 30
M  V30 35 1 16 31
M  V30 36 1 17 32 CFG=3
M  V30 37 1 18 33 CFG=3
M  V30 END BOND
M  V30 END CTAB
M  END
>  <Ligand_Instance>  (163) 
6EH2_AMP_A_401

>  <Dataset>  (163) 
PDB

>  <PDB_ID>  (163) 
6EH2

>  <Chain>  (163) 
A

>  <Resi>  (163) 
401

>  <Num_Resolved_Atoms>  (163) 
23

>  <Num_H_Atoms_ProtBoundConf>  (163) 
12

>  <Pocket>  (163) 
A

>  <SMILES>  (163) 
c1nc(c2c(n1)n(cn2)[C@H]3[C@@H]([C@@H]([C@H](O3)COP(=O)(O)O)O)O)N

>  <Name>  (163) 
ADENOSINE MONOPHOSPHATE

>  <Num_Heavy_Atoms>  (163) 
23

>  <Num_Not_Resolved_Atoms>  (163) 
0

>  <ATP_Site>  (163) 
True

>  <Peripheral>  (163) 
False

>  <Standardized_SMILES>  (163) 
[H]O[C@@]1([H])[C@@]([H])(O[H])[C@]([H])(N2C([H])=NC3=C2N=C([H])N=C3N([H])[H])O[C@]1([H])C([H])([H])OP(=O)([O-])[O-]

$$$$
ANP
     RDKit          3D

  0  0  0  0  0  0  0  0  0  0999 V3000
M  V30 BEGIN CTAB
M  V30 COUNTS 44 46 0 0 0
M  V30 BEGIN ATOM
M  V30 1 P 72.683000 29.286000 35.386000 0 CFG=1
M  V30 2 P 73.708000 28.509000 30.819000 0 CFG=1
M  V30 3 P 71.699000 28.269000 32.907000 0 CFG=2
M  V30 4 O 72.680000 28.199000 36.380000 0
M  V30 5 O 73.977000 29.669000 34.721000 0 CHG=-1
M  V30 6 O 73.464000 26.989000 30.818000 0
M  V30 7 O 75.079000 28.934000 31.200000 0 CHG=-1
M  V30 8 O 73.233000 29.138000 29.596000 0 CHG=-1
M  V30 9 O 70.452000 28.406000 32.183000 0
M  V30 10 O 72.212000 26.929000 33.256000 0 CHG=-1
M  V30 11 O 74.301000 34.973000 37.266000 0
M  V30 12 O 74.727000 33.149000 35.351000 0
M  V30 13 O 71.528000 29.079000 34.285000 0
M  V30 14 O 72.092000 30.565000 36.156000 0
M  V30 15 O 71.827000 33.098000 37.487000 0
M  V30 16 N 73.588000 30.634000 43.655000 0
M  V30 17 N 72.848000 29.111000 32.068000 0
M  V30 18 N 73.508000 32.961000 43.463000 0
M  V30 19 N 73.132000 34.097000 41.390000 0
M  V30 20 N 73.257000 30.596000 40.619000 0
M  V30 21 N 72.939000 32.529000 39.532000 0
M  V30 22 C 71.831000 31.782000 35.442000 0 CFG=2
M  V30 23 C 73.333000 34.036000 42.699000 0
M  V30 24 C 72.997000 31.155000 39.477000 0
M  V30 25 C 74.154000 33.605000 37.672000 0 CFG=2
M  V30 26 C 73.922000 32.754000 36.457000 0 CFG=1
M  V30 27 C 72.838000 33.486000 38.436000 0 CFG=1
M  V30 28 C 73.495000 31.729000 42.893000 0
M  V30 29 C 72.435000 32.951000 36.190000 0 CFG=2
M  V30 30 C 73.149000 32.850000 40.850000 0
M  V30 31 C 73.330000 31.669000 41.506000 0
M  V30 32 H 74.695600 35.007600 36.347800 0
M  V30 33 H 75.693000 33.074500 35.598400 0
M  V30 34 H 73.578100 29.728000 43.231800 0
M  V30 35 H 73.667400 30.721200 44.648000 0
M  V30 36 H 72.380100 29.918100 31.707800 0
M  V30 37 H 70.843200 31.914200 35.360200 0
M  V30 38 H 72.236500 31.725800 34.529600 0
M  V30 39 H 73.356200 34.914900 43.175500 0
M  V30 40 H 72.852200 30.635500 38.634900 0
M  V30 41 H 74.933200 33.286500 38.211900 0
M  V30 42 H 74.100400 31.795200 36.678200 0
M  V30 43 H 72.601000 34.382100 38.811300 0
M  V30 44 H 72.299900 33.789500 35.662100 0
M  V30 END ATOM
M  V30 BEGIN BOND
M  V30 1 2 1 4
M  V30 2 1 1 5 CFG=3
M  V30 3 1 1 13
M  V30 4 1 1 14
M  V30 5 2 2 6
M  V30 6 1 2 7 CFG=1
M  V30 7 1 2 8
M  V30 8 1 2 17
M  V30 9 2 3 9
M  V30 10 1 3 10 CFG=1
M  V30 11 1 3 13
M  V30 12 1 3 17
M  V30 13 1 11 25
M  V30 14 1 12 26
M  V30 15 1 14 22
M  V30 16 1 15 27
M  V30 17 1 15 29
M  V30 18 1 16 28
M  V30 19 1 18 23
M  V30 20 2 18 28
M  V30 21 2 19 23
M  V30 22 1 19 30
M  V30 23 2 20 24
M  V30 24 1 20 31
M  V30 25 1 21 24
M  V30 26 1 21 27
M  V30 27 1 21 30
M  V30 28 1 22 29
M  V30 29 1 25 26
M  V30 30 1 25 27
M  V30 31 1 26 29
M  V30 32 1 28 31
M  V30 33 2 30 31
M  V30 34 1 29 44 CFG=3
M  V30 35 1 27 43 CFG=1
M  V30 36 1 26 42 CFG=1
M  V30 37 1 25 41 CFG=1
M  V30 38 1 11 32
M  V30 39 1 12 33
M  V30 40 1 16 34
M  V30 41 1 16 35
M  V30 42 1 17 36
M  V30 43 1 22 37 CFG=3
M  V30 44 1 22 38
M  V30 45 1 23 39
M  V30 46 1 24 40
M  V30 END BOND
M  V30 END CTAB
M  END
>  <Ligand_Instance>  (164) 
1CDK_ANP_A_400

>  <Dataset>  (164) 
PDB

>  <PDB_ID>  (164) 
1CDK

>  <Chain>  (164) 
A

>  <Resi>  (164) 
400

>  <Num_Resolved_Atoms>  (164) 
31

>  <Num_H_Atoms_ProtBoundConf>  (164) 
13

>  <Pocket>  (164) 
A

>  <SMILES>  (164) 
c1nc(c2c(n1)n(cn2)[C@H]3[C@@H]([C@@H]([C@H](O3)CO[P@](=O)(O)O[P@@](=O)(NP(=O)(O)O)O)O)O)N

>  <Name>  (164) 
PHOSPHOAMINOPHOSPHONIC ACID-ADENYLATE ESTER

>  <Num_Heavy_Atoms>  (164) 
31

>  <Num_Not_Resolved_Atoms>  (164) 
0

>  <ATP_Site>  (164) 
True

>  <Peripheral>  (164) 
False

>  <Standardized_SMILES>  (164) 
[H]O[C@@]1([H])[C@@]([H])(O[H])[C@]([H])(N2C([H])=NC3=C2N=C([H])N=C3N([H])[H])O[C@]1([H])C([H])([H])O[P@](=O)([O-])O[P@](=O)([O-])N([H])P(=O)([O-])[O-]

$$$$
ANP
     RDKit          3D

  0  0  0  0  0  0  0  0  0  0999 V3000
M  V30 BEGIN CTAB
M  V30 COUNTS 44 46 0 0 0
M  V30 BEGIN ATOM
M  V30 1 P 18.662000 2.063000 35.108000 0 CFG=1
M  V30 2 P 19.856000 1.322000 30.600000 0 CFG=1
M  V30 3 P 17.748000 1.033000 32.587000 0 CFG=2
M  V30 4 O 18.607000 0.981000 36.114000 0
M  V30 5 O 19.979000 2.473000 34.514000 0 CHG=-1
M  V30 6 O 19.624000 -0.185000 30.604000 0
M  V30 7 O 21.237000 1.803000 30.942000 0 CHG=-1
M  V30 8 O 19.335000 1.937000 29.376000 0 CHG=-1
M  V30 9 O 16.520000 1.253000 31.821000 0
M  V30 10 O 18.183000 -0.335000 32.911000 0 CHG=-1
M  V30 11 O 20.066000 7.931000 36.805000 0
M  V30 12 O 20.547000 6.109000 34.897000 0
M  V30 13 O 17.542000 1.802000 33.963000 0
M  V30 14 O 18.007000 3.349000 35.810000 0
M  V30 15 O 17.664000 5.878000 37.083000 0
M  V30 16 N 19.258000 3.640000 43.295000 0
M  V30 17 N 18.994000 1.872000 31.872000 0
M  V30 18 N 19.225000 5.971000 43.054000 0
M  V30 19 N 18.998000 7.081000 40.944000 0
M  V30 20 N 19.060000 3.550000 40.242000 0
M  V30 21 N 18.844000 5.464000 39.101000 0
M  V30 22 C 17.758000 4.536000 35.042000 0 CFG=2
M  V30 23 C 19.148000 7.038000 42.259000 0
M  V30 24 C 18.891000 4.090000 39.068000 0
M  V30 25 C 19.959000 6.561000 37.230000 0 CFG=2
M  V30 26 C 19.774000 5.675000 36.026000 0 CFG=1
M  V30 27 C 18.654000 6.387000 38.006000 0 CFG=1
M  V30 28 C 19.198000 4.724000 42.505000 0
M  V30 29 C 18.280000 5.752000 35.777000 0 CFG=2
M  V30 30 C 19.001000 5.813000 40.424000 0
M  V30 31 C 19.108000 4.636000 41.110000 0
M  V30 32 H 20.851600 8.030100 36.194200 0
M  V30 33 H 21.518000 6.103400 35.135900 0
M  V30 34 H 19.238100 2.725300 42.891300 0
M  V30 35 H 19.322600 3.747300 44.287100 0
M  V30 36 H 18.599600 2.741900 31.575800 0
M  V30 37 H 16.773600 4.635100 34.896500 0
M  V30 38 H 18.219600 4.460700 34.158100 0
M  V30 39 H 19.212100 7.924700 42.716800 0
M  V30 40 H 18.804100 3.557600 38.226000 0
M  V30 41 H 20.750300 6.281800 37.773900 0
M  V30 42 H 20.025100 4.736000 36.261100 0
M  V30 43 H 18.355700 7.272500 38.362300 0
M  V30 44 H 18.079100 6.571000 35.239500 0
M  V30 END ATOM
M  V30 BEGIN BOND
M  V30 1 2 1 4
M  V30 2 1 1 5 CFG=3
M  V30 3 1 1 13
M  V30 4 1 1 14
M  V30 5 2 2 6
M  V30 6 1 2 7 CFG=1
M  V30 7 1 2 8
M  V30 8 1 2 17
M  V30 9 2 3 9
M  V30 10 1 3 10 CFG=1
M  V30 11 1 3 13
M  V30 12 1 3 17
M  V30 13 1 11 25
M  V30 14 1 12 26
M  V30 15 1 14 22
M  V30 16 1 15 27
M  V30 17 1 15 29
M  V30 18 1 16 28
M  V30 19 1 18 23
M  V30 20 2 18 28
M  V30 21 2 19 23
M  V30 22 1 19 30
M  V30 23 2 20 24
M  V30 24 1 20 31
M  V30 25 1 21 24
M  V30 26 1 21 27
M  V30 27 1 21 30
M  V30 28 1 22 29
M  V30 29 1 25 26
M  V30 30 1 25 27
M  V30 31 1 26 29
M  V30 32 1 28 31
M  V30 33 2 30 31
M  V30 34 1 29 44 CFG=3
M  V30 35 1 27 43 CFG=1
M  V30 36 1 26 42 CFG=1
M  V30 37 1 25 41 CFG=1
M  V30 38 1 11 32
M  V30 39 1 12 33
M  V30 40 1 16 34
M  V30 41 1 16 35
M  V30 42 1 17 36
M  V30 43 1 22 37 CFG=3
M  V30 44 1 22 38
M  V30 45 1 23 39
M  V30 46 1 24 40
M  V30 END BOND
M  V30 END CTAB
M  END
>  <Ligand_Instance>  (165) 
1CDK_ANP_B_400

>  <Dataset>  (165) 
PDB

>  <PDB_ID>  (165) 
1CDK

>  <Chain>  (165) 
B

>  <Resi>  (165) 
400

>  <Num_Resolved_Atoms>  (165) 
31

>  <Num_H_Atoms_ProtBoundConf>  (165) 
13

>  <Pocket>  (165) 
A

>  <SMILES>  (165) 
c1nc(c2c(n1)n(cn2)[C@H]3[C@@H]([C@@H]([C@H](O3)CO[P@](=O)(O)O[P@@](=O)(NP(=O)(O)O)O)O)O)N

>  <Name>  (165) 
PHOSPHOAMINOPHOSPHONIC ACID-ADENYLATE ESTER

>  <Num_Heavy_Atoms>  (165) 
31

>  <Num_Not_Resolved_Atoms>  (165) 
0

>  <ATP_Site>  (165) 
True

>  <Peripheral>  (165) 
False

>  <Standardized_SMILES>  (165) 
[H]O[C@@]1([H])[C@@]([H])(O[H])[C@]([H])(N2C([H])=NC3=C2N=C([H])N=C3N([H])[H])O[C@]1([H])C([H])([H])O[P@](=O)([O-])O[P@](=O)([O-])N([H])P(=O)([O-])[O-]

$$$$
ANP
     RDKit          3D

  0  0  0  0  0  0  0  0  0  0999 V3000
M  V30 BEGIN CTAB
M  V30 COUNTS 44 46 0 0 0
M  V30 BEGIN ATOM
M  V30 1 P -2.347000 2.100000 -17.803000 0 CFG=1
M  V30 2 P 1.125000 2.500000 -21.112000 0 CFG=2
M  V30 3 P 0.438000 2.937000 -18.222000 0 CFG=1
M  V30 4 O -3.108000 3.253000 -17.261000 0
M  V30 5 O -2.510000 1.726000 -19.235000 0 CHG=-1
M  V30 6 O 2.434000 1.809000 -21.423000 0
M  V30 7 O -0.014000 2.061000 -22.037000 0 CHG=-1
M  V30 8 O 1.269000 4.014000 -21.065000 0 CHG=-1
M  V30 9 O 0.034000 4.332000 -18.573000 0
M  V30 10 O 1.600000 2.764000 -17.285000 0 CHG=-1
M  V30 11 O -4.490000 -3.826000 -17.960000 0
M  V30 12 O -3.371000 -1.834000 -19.590000 0
M  V30 13 O -0.783000 2.257000 -17.423000 0
M  V30 14 O -2.737000 0.857000 -16.887000 0
M  V30 15 O -3.627000 -1.699000 -15.990000 0
M  V30 16 N -9.709000 0.784000 -14.079000 0
M  V30 17 N 0.614000 2.050000 -19.591000 0
M  V30 18 N -9.509000 -1.559000 -14.126000 0
M  V30 19 N -7.636000 -2.728000 -14.988000 0
M  V30 20 N -6.889000 0.732000 -15.437000 0
M  V30 21 N -5.898000 -1.223000 -15.869000 0
M  V30 22 C -1.973000 -0.334000 -17.074000 0 CFG=2
M  V30 23 C -8.855000 -2.697000 -14.422000 0
M  V30 24 C -5.791000 0.126000 -15.942000 0
M  V30 25 C -4.953000 -2.483000 -17.795000 0 CFG=2
M  V30 26 C -3.936000 -1.477000 -18.319000 0 CFG=1
M  V30 27 C -4.915000 -2.225000 -16.303000 0 CFG=1
M  V30 28 C -9.013000 -0.333000 -14.380000 0
M  V30 29 C -2.889000 -1.539000 -17.210000 0 CFG=2
M  V30 30 C -7.053000 -1.540000 -15.290000 0
M  V30 31 C -7.703000 -0.266000 -15.019000 0
M  V30 32 H -4.334500 -4.008000 -18.930900 0
M  V30 33 H -4.099700 -1.902200 -20.271400 0
M  V30 34 H -9.320300 1.683900 -14.276900 0
M  V30 35 H -10.613200 0.711500 -13.658200 0
M  V30 36 H 1.247700 1.322400 -19.328200 0
M  V30 37 H -1.370900 -0.465700 -16.286500 0
M  V30 38 H -1.421900 -0.244400 -17.903600 0
M  V30 39 H -9.299900 -3.567000 -14.209400 0
M  V30 40 H -5.002200 0.610400 -16.320300 0
M  V30 41 H -5.863700 -2.342800 -18.183500 0
M  V30 42 H -4.341500 -0.564000 -18.363200 0
M  V30 43 H -5.061500 -3.080900 -15.807000 0
M  V30 44 H -2.325200 -2.353000 -17.349900 0
M  V30 END ATOM
M  V30 BEGIN BOND
M  V30 1 2 1 4
M  V30 2 1 1 5 CFG=3
M  V30 3 1 1 13
M  V30 4 1 1 14
M  V30 5 2 2 6
M  V30 6 1 2 7 CFG=3
M  V30 7 1 2 8
M  V30 8 1 2 17
M  V30 9 2 3 9
M  V30 10 1 3 10 CFG=1
M  V30 11 1 3 13
M  V30 12 1 3 17
M  V30 13 1 11 25
M  V30 14 1 12 26
M  V30 15 1 14 22
M  V30 16 1 15 27
M  V30 17 1 15 29
M  V30 18 1 16 28
M  V30 19 1 18 23
M  V30 20 2 18 28
M  V30 21 2 19 23
M  V30 22 1 19 30
M  V30 23 2 20 24
M  V30 24 1 20 31
M  V30 25 1 21 24
M  V30 26 1 21 27
M  V30 27 1 21 30
M  V30 28 1 22 29
M  V30 29 1 25 26
M  V30 30 1 25 27
M  V30 31 1 26 29
M  V30 32 1 28 31
M  V30 33 2 30 31
M  V30 34 1 29 44 CFG=3
M  V30 35 1 27 43 CFG=1
M  V30 36 1 26 42 CFG=3
M  V30 37 1 25 41 CFG=3
M  V30 38 1 11 32
M  V30 39 1 12 33
M  V30 40 1 16 34
M  V30 41 1 16 35
M  V30 42 1 17 36
M  V30 43 1 22 37 CFG=1
M  V30 44 1 22 38
M  V30 45 1 23 39
M  V30 46 1 24 40
M  V30 END BOND
M  V30 END CTAB
M  END
>  <Ligand_Instance>  (166) 
4DFX_ANP_E_402

>  <Dataset>  (166) 
PDB

>  <PDB_ID>  (166) 
4DFX

>  <Chain>  (166) 
E

>  <Resi>  (166) 
402

>  <Num_Resolved_Atoms>  (166) 
31

>  <Num_H_Atoms_ProtBoundConf>  (166) 
13

>  <Pocket>  (166) 
A

>  <SMILES>  (166) 
c1nc(c2c(n1)n(cn2)[C@H]3[C@@H]([C@@H]([C@H](O3)CO[P@](=O)(O)O[P@@](=O)(NP(=O)(O)O)O)O)O)N

>  <Name>  (166) 
PHOSPHOAMINOPHOSPHONIC ACID-ADENYLATE ESTER

>  <Num_Heavy_Atoms>  (166) 
31

>  <Num_Not_Resolved_Atoms>  (166) 
0

>  <ATP_Site>  (166) 
True

>  <Peripheral>  (166) 
False

>  <Standardized_SMILES>  (166) 
[H]O[C@@]1([H])[C@@]([H])(O[H])[C@]([H])(N2C([H])=NC3=C2N=C([H])N=C3N([H])[H])O[C@]1([H])C([H])([H])O[P@](=O)([O-])O[P@@](=O)([O-])N([H])P(=O)([O-])[O-]

$$$$
ANP
     RDKit          3D

  0  0  0  0  0  0  0  0  0  0999 V3000
M  V30 BEGIN CTAB
M  V30 COUNTS 44 46 0 0 0
M  V30 BEGIN ATOM
M  V30 1 P -5.422000 -10.268000 14.052000 0 CFG=1
M  V30 2 P -1.298000 -10.844000 16.425000 0 CFG=2
M  V30 3 P -2.690000 -11.091000 13.901000 0 CFG=1
M  V30 4 O -6.326000 -11.435000 13.726000 0
M  V30 5 O -5.151000 -9.880000 15.485000 0 CHG=-1
M  V30 6 O 0.008000 -10.086000 16.348000 0
M  V30 7 O -2.069000 -10.510000 17.681000 0 CHG=-1
M  V30 8 O -1.127000 -12.326000 16.194000 0 CHG=-1
M  V30 9 O -3.043000 -12.508000 14.279000 0
M  V30 10 O -1.646000 -10.893000 12.831000 0 CHG=-1
M  V30 11 O -7.432000 -4.298000 14.832000 0
M  V30 12 O -5.811000 -6.163000 15.937000 0
M  V30 13 O -4.024000 -10.451000 13.266000 0
M  V30 14 O -5.994000 -8.961000 13.311000 0
M  V30 15 O -6.970000 -6.340000 12.542000 0
M  V30 16 N -13.435000 -8.856000 12.224000 0
M  V30 17 N -2.230000 -10.265000 15.221000 0
M  V30 18 N -13.285000 -6.498000 12.197000 0
M  V30 19 N -11.243000 -5.335000 12.562000 0
M  V30 20 N -10.352000 -8.746000 12.816000 0
M  V30 21 N -9.268000 -6.797000 12.976000 0
M  V30 22 C -5.156000 -7.811000 13.207000 0 CFG=2
M  V30 23 C -12.568000 -5.360000 12.308000 0
M  V30 24 C -9.160000 -8.141000 13.027000 0
M  V30 25 C -7.830000 -5.657000 14.636000 0 CFG=2
M  V30 26 C -6.656000 -6.589000 14.864000 0 CFG=1
M  V30 27 C -8.154000 -5.829000 13.163000 0 CFG=1
M  V30 28 C -12.713000 -7.718000 12.337000 0
M  V30 29 C -5.943000 -6.546000 13.519000 0 CFG=2
M  V30 30 C -10.542000 -6.488000 12.722000 0
M  V30 31 C -11.257000 -7.773000 12.613000 0
M  V30 32 H -6.694600 -4.260600 15.506500 0
M  V30 33 H -6.341000 -6.126100 16.784200 0
M  V30 34 H -12.988400 -9.744200 12.331800 0
M  V30 35 H -14.415400 -8.809200 12.032700 0
M  V30 36 H -1.744600 -9.462400 14.874200 0
M  V30 37 H -4.793100 -7.751600 12.277100 0
M  V30 38 H -4.399300 -7.895800 13.855300 0
M  V30 39 H -13.044500 -4.488000 12.195900 0
M  V30 40 H -8.304700 -8.629700 13.199400 0
M  V30 41 H -8.609100 -5.898900 15.214400 0
M  V30 42 H -6.988300 -7.515300 15.041800 0
M  V30 43 H -8.397100 -4.946200 12.761100 0
M  V30 44 H -5.320100 -5.763800 13.506000 0
M  V30 END ATOM
M  V30 BEGIN BOND
M  V30 1 2 1 4
M  V30 2 1 1 5 CFG=1
M  V30 3 1 1 13
M  V30 4 1 1 14
M  V30 5 2 2 6
M  V30 6 1 2 7 CFG=1
M  V30 7 1 2 8
M  V30 8 1 2 17
M  V30 9 2 3 9
M  V30 10 1 3 10 CFG=3
M  V30 11 1 3 13
M  V30 12 1 3 17
M  V30 13 1 11 25
M  V30 14 1 12 26
M  V30 15 1 14 22
M  V30 16 1 15 27
M  V30 17 1 15 29
M  V30 18 1 16 28
M  V30 19 1 18 23
M  V30 20 2 18 28
M  V30 21 2 19 23
M  V30 22 1 19 30
M  V30 23 2 20 24
M  V30 24 1 20 31
M  V30 25 1 21 24
M  V30 26 1 21 27
M  V30 27 1 21 30
M  V30 28 1 22 29
M  V30 29 1 25 26
M  V30 30 1 25 27
M  V30 31 1 26 29
M  V30 32 1 28 31
M  V30 33 2 30 31
M  V30 34 1 29 44 CFG=1
M  V30 35 1 27 43 CFG=3
M  V30 36 1 26 42 CFG=1
M  V30 37 1 25 41 CFG=1
M  V30 38 1 11 32
M  V30 39 1 12 33
M  V30 40 1 16 34
M  V30 41 1 16 35
M  V30 42 1 17 36
M  V30 43 1 22 37 CFG=3
M  V30 44 1 22 38
M  V30 45 1 23 39
M  V30 46 1 24 40
M  V30 END BOND
M  V30 END CTAB
M  END
>  <Ligand_Instance>  (167) 
4DG0_ANP_E_402

>  <Dataset>  (167) 
PDB

>  <PDB_ID>  (167) 
4DG0

>  <Chain>  (167) 
E

>  <Resi>  (167) 
402

>  <Num_Resolved_Atoms>  (167) 
31

>  <Num_H_Atoms_ProtBoundConf>  (167) 
13

>  <Pocket>  (167) 
A

>  <SMILES>  (167) 
c1nc(c2c(n1)n(cn2)[C@H]3[C@@H]([C@@H]([C@H](O3)CO[P@](=O)(O)O[P@@](=O)(NP(=O)(O)O)O)O)O)N

>  <Name>  (167) 
PHOSPHOAMINOPHOSPHONIC ACID-ADENYLATE ESTER

>  <Num_Heavy_Atoms>  (167) 
31

>  <Num_Not_Resolved_Atoms>  (167) 
0

>  <ATP_Site>  (167) 
True

>  <Peripheral>  (167) 
False

>  <Standardized_SMILES>  (167) 
[H]O[C@@]1([H])[C@@]([H])(O[H])[C@]([H])(N2C([H])=NC3=C2N=C([H])N=C3N([H])[H])O[C@]1([H])C([H])([H])O[P@](=O)([O-])O[P@@](=O)([O-])N([H])P(=O)([O-])[O-]

$$$$
ANP
     RDKit          3D

  0  0  0  0  0  0  0  0  0  0999 V3000
M  V30 BEGIN CTAB
M  V30 COUNTS 44 46 0 0 0
M  V30 BEGIN ATOM
M  V30 1 P -24.799000 9.576000 0.055000 0 CFG=1
M  V30 2 P -20.267000 7.866000 -0.414000 0 CFG=2
M  V30 3 P -22.131000 10.236000 -0.848000 0 CFG=1
M  V30 4 O -25.715000 9.773000 -1.126000 0
M  V30 5 O -24.376000 8.216000 0.502000 0 CHG=-1
M  V30 6 O -18.968000 8.151000 0.268000 0
M  V30 7 O -20.857000 6.461000 0.047000 0 CHG=-1
M  V30 8 O -20.178000 7.992000 -1.989000 0 CHG=-1
M  V30 9 O -22.313000 9.833000 -2.247000 0
M  V30 10 O -21.279000 11.579000 -0.744000 0 CHG=-1
M  V30 11 O -26.499000 8.652000 6.046000 0
M  V30 12 O -24.893000 7.583000 4.087000 0
M  V30 13 O -23.553000 10.569000 -0.150000 0
M  V30 14 O -25.473000 10.285000 1.337000 0
M  V30 15 O -26.530000 10.791000 3.898000 0
M  V30 16 N -32.962000 10.110000 1.485000 0
M  V30 17 N -21.404000 9.040000 0.180000 0
M  V30 18 N -32.766000 10.174000 3.850000 0
M  V30 19 N -30.666000 10.138000 4.972000 0
M  V30 20 N -29.814000 9.970000 1.516000 0
M  V30 21 N -28.691000 9.987000 3.460000 0
M  V30 22 C -24.625000 10.409000 2.482000 0 CFG=2
M  V30 23 C -32.018000 10.192000 4.982000 0
M  V30 24 C -28.584000 9.943000 2.112000 0
M  V30 25 C -27.012000 8.620000 4.707000 0 CFG=2
M  V30 26 C -25.881000 8.544000 3.703000 0 CFG=1
M  V30 27 C -27.584000 10.004000 4.454000 0 CFG=1
M  V30 28 C -32.205000 10.116000 2.610000 0
M  V30 29 C -25.366000 9.975000 3.729000 0 CFG=2
M  V30 30 C -29.983000 10.068000 3.791000 0
M  V30 31 C -30.727000 10.053000 2.515000 0
M  V30 32 H -25.967800 7.822700 6.219400 0
M  V30 33 H -25.315300 6.678900 4.153000 0
M  V30 34 H -32.523300 10.066800 0.587400 0
M  V30 35 H -33.958900 10.148800 1.553000 0
M  V30 36 H -20.930800 9.544700 0.902000 0
M  V30 37 H -24.341000 11.362700 2.581300 0
M  V30 38 H -23.817600 9.831800 2.359500 0
M  V30 39 H -32.487100 10.247700 5.863400 0
M  V30 40 H -27.717100 9.896700 1.615700 0
M  V30 41 H -27.689600 7.896500 4.574700 0
M  V30 42 H -26.240400 8.324200 2.796100 0
M  V30 43 H -27.898900 10.408300 5.312700 0
M  V30 44 H -24.767500 10.092100 4.521600 0
M  V30 END ATOM
M  V30 BEGIN BOND
M  V30 1 2 1 4
M  V30 2 1 1 5 CFG=1
M  V30 3 1 1 13
M  V30 4 1 1 14
M  V30 5 2 2 6
M  V30 6 1 2 7 CFG=3
M  V30 7 1 2 8
M  V30 8 1 2 17
M  V30 9 2 3 9
M  V30 10 1 3 10 CFG=3
M  V30 11 1 3 13
M  V30 12 1 3 17
M  V30 13 1 11 25
M  V30 14 1 12 26
M  V30 15 1 14 22
M  V30 16 1 15 27
M  V30 17 1 15 29
M  V30 18 1 16 28
M  V30 19 1 18 23
M  V30 20 2 18 28
M  V30 21 2 19 23
M  V30 22 1 19 30
M  V30 23 2 20 24
M  V30 24 1 20 31
M  V30 25 1 21 24
M  V30 26 1 21 27
M  V30 27 1 21 30
M  V30 28 1 22 29
M  V30 29 1 25 26
M  V30 30 1 25 27
M  V30 31 1 26 29
M  V30 32 1 28 31
M  V30 33 2 30 31
M  V30 34 1 29 44 CFG=1
M  V30 35 1 27 43 CFG=1
M  V30 36 1 26 42 CFG=3
M  V30 37 1 25 41 CFG=1
M  V30 38 1 11 32
M  V30 39 1 12 33
M  V30 40 1 16 34
M  V30 41 1 16 35
M  V30 42 1 17 36
M  V30 43 1 22 37 CFG=1
M  V30 44 1 22 38
M  V30 45 1 23 39
M  V30 46 1 24 40
M  V30 END BOND
M  V30 END CTAB
M  END
>  <Ligand_Instance>  (168) 
4DG3_ANP_E_401

>  <Dataset>  (168) 
PDB

>  <PDB_ID>  (168) 
4DG3

>  <Chain>  (168) 
E

>  <Resi>  (168) 
401

>  <Num_Resolved_Atoms>  (168) 
31

>  <Num_H_Atoms_ProtBoundConf>  (168) 
13

>  <Pocket>  (168) 
A

>  <SMILES>  (168) 
c1nc(c2c(n1)n(cn2)[C@H]3[C@@H]([C@@H]([C@H](O3)CO[P@](=O)(O)O[P@@](=O)(NP(=O)(O)O)O)O)O)N

>  <Name>  (168) 
PHOSPHOAMINOPHOSPHONIC ACID-ADENYLATE ESTER

>  <Num_Heavy_Atoms>  (168) 
31

>  <Num_Not_Resolved_Atoms>  (168) 
0

>  <ATP_Site>  (168) 
True

>  <Peripheral>  (168) 
False

>  <Standardized_SMILES>  (168) 
[H]O[C@@]1([H])[C@@]([H])(O[H])[C@]([H])(N2C([H])=NC3=C2N=C([H])N=C3N([H])[H])O[C@]1([H])C([H])([H])O[P@](=O)([O-])O[P@@](=O)([O-])N([H])P(=O)([O-])[O-]

$$$$
ANP
     RDKit          3D

  0  0  0  0  0  0  0  0  0  0999 V3000
M  V30 BEGIN CTAB
M  V30 COUNTS 44 46 0 0 0
M  V30 BEGIN ATOM
M  V30 1 P -5.173000 10.567000 -13.675000 0 CFG=1
M  V30 2 P -1.050000 11.136000 -16.211000 0 CFG=2
M  V30 3 P -2.508000 11.450000 -13.643000 0 CFG=1
M  V30 4 O -6.057000 11.758000 -13.484000 0
M  V30 5 O -4.979000 10.323000 -15.111000 0 CHG=-1
M  V30 6 O 0.295000 10.467000 -16.127000 0
M  V30 7 O -1.649000 10.823000 -17.557000 0 CHG=-1
M  V30 8 O -0.851000 12.583000 -16.082000 0 CHG=-1
M  V30 9 O -2.840000 12.842000 -13.993000 0
M  V30 10 O -1.360000 11.459000 -12.680000 0 CHG=-1
M  V30 11 O -7.021000 4.506000 -14.493000 0
M  V30 12 O -5.556000 6.534000 -15.789000 0
M  V30 13 O -3.757000 10.778000 -12.845000 0
M  V30 14 O -5.877000 9.278000 -13.041000 0
M  V30 15 O -6.778000 6.723000 -12.373000 0
M  V30 16 N -13.279000 9.007000 -12.195000 0
M  V30 17 N -2.098000 10.459000 -14.999000 0
M  V30 18 N -13.046000 6.644000 -12.124000 0
M  V30 19 N -10.950000 5.568000 -12.442000 0
M  V30 20 N -10.200000 9.053000 -12.740000 0
M  V30 21 N -9.048000 7.131000 -12.848000 0
M  V30 22 C -4.978000 8.172000 -13.036000 0 CFG=2
M  V30 23 C -12.286000 5.519000 -12.205000 0
M  V30 24 C -8.990000 8.494000 -12.925000 0
M  V30 25 C -7.535000 5.852000 -14.410000 0 CFG=2
M  V30 26 C -6.447000 6.863000 -14.710000 0 CFG=1
M  V30 27 C -7.933000 6.154000 -12.991000 0 CFG=1
M  V30 28 C -12.513000 7.901000 -12.278000 0
M  V30 29 C -5.731000 6.894000 -13.345000 0 CFG=2
M  V30 30 C -10.301000 6.775000 -12.614000 0
M  V30 31 C -11.067000 8.039000 -12.539000 0
M  V30 32 H -6.671200 4.339000 -15.414800 0
M  V30 33 H -6.079800 6.432900 -16.634800 0
M  V30 34 H -12.866700 9.910600 -12.310900 0
M  V30 35 H -14.259600 8.923900 -12.017600 0
M  V30 36 H -1.651800 9.637500 -14.644000 0
M  V30 37 H -4.551100 8.095700 -12.134900 0
M  V30 38 H -4.271200 8.316100 -13.728600 0
M  V30 39 H -12.724700 4.628300 -12.086300 0
M  V30 40 H -8.152200 9.011900 -13.097500 0
M  V30 41 H -8.311200 5.973200 -15.028700 0
M  V30 42 H -6.863600 7.755000 -14.885300 0
M  V30 43 H -8.174500 5.302900 -12.524900 0
M  V30 44 H -5.100600 6.119900 -13.287700 0
M  V30 END ATOM
M  V30 BEGIN BOND
M  V30 1 2 1 4
M  V30 2 1 1 5 CFG=3
M  V30 3 1 1 13
M  V30 4 1 1 14
M  V30 5 2 2 6
M  V30 6 1 2 7 CFG=3
M  V30 7 1 2 8
M  V30 8 1 2 17
M  V30 9 2 3 9
M  V30 10 1 3 10 CFG=1
M  V30 11 1 3 13
M  V30 12 1 3 17
M  V30 13 1 11 25
M  V30 14 1 12 26
M  V30 15 1 14 22
M  V30 16 1 15 27
M  V30 17 1 15 29
M  V30 18 1 16 28
M  V30 19 1 18 23
M  V30 20 2 18 28
M  V30 21 2 19 23
M  V30 22 1 19 30
M  V30 23 2 20 24
M  V30 24 1 20 31
M  V30 25 1 21 24
M  V30 26 1 21 27
M  V30 27 1 21 30
M  V30 28 1 22 29
M  V30 29 1 25 26
M  V30 30 1 25 27
M  V30 31 1 26 29
M  V30 32 1 28 31
M  V30 33 2 30 31
M  V30 34 1 29 44 CFG=3
M  V30 35 1 27 43 CFG=1
M  V30 36 1 26 42 CFG=3
M  V30 37 1 25 41 CFG=3
M  V30 38 1 11 32
M  V30 39 1 12 33
M  V30 40 1 16 34
M  V30 41 1 16 35
M  V30 42 1 17 36
M  V30 43 1 22 37 CFG=1
M  V30 44 1 22 38
M  V30 45 1 23 39
M  V30 46 1 24 40
M  V30 END BOND
M  V30 END CTAB
M  END
>  <Ligand_Instance>  (169) 
4DH7_ANP_A_403

>  <Dataset>  (169) 
PDB

>  <PDB_ID>  (169) 
4DH7

>  <Chain>  (169) 
A

>  <Resi>  (169) 
403

>  <Num_Resolved_Atoms>  (169) 
31

>  <Num_H_Atoms_ProtBoundConf>  (169) 
13

>  <Pocket>  (169) 
A

>  <SMILES>  (169) 
c1nc(c2c(n1)n(cn2)[C@H]3[C@@H]([C@@H]([C@H](O3)CO[P@](=O)(O)O[P@@](=O)(NP(=O)(O)O)O)O)O)N

>  <Name>  (169) 
PHOSPHOAMINOPHOSPHONIC ACID-ADENYLATE ESTER

>  <Num_Heavy_Atoms>  (169) 
31

>  <Num_Not_Resolved_Atoms>  (169) 
0

>  <ATP_Site>  (169) 
True

>  <Peripheral>  (169) 
False

>  <Standardized_SMILES>  (169) 
[H]O[C@@]1([H])[C@@]([H])(O[H])[C@]([H])(N2C([H])=NC3=C2N=C([H])N=C3N([H])[H])O[C@]1([H])C([H])([H])O[P@](=O)([O-])O[P@@](=O)([O-])N([H])P(=O)([O-])[O-]

$$$$
ANP
     RDKit          3D

  0  0  0  0  0  0  0  0  0  0999 V3000
M  V30 BEGIN CTAB
M  V30 COUNTS 44 46 0 0 0
M  V30 BEGIN ATOM
M  V30 1 P -4.934000 10.524000 -13.594000 0 CFG=1
M  V30 2 P -0.910000 10.979000 -16.267000 0 CFG=2
M  V30 3 P -2.308000 11.352000 -13.717000 0 CFG=1
M  V30 4 O -5.785000 11.747000 -13.403000 0
M  V30 5 O -4.766000 10.319000 -15.010000 0 CHG=-1
M  V30 6 O 0.442000 10.299000 -16.172000 0
M  V30 7 O -1.485000 10.672000 -17.624000 0 CHG=-1
M  V30 8 O -0.706000 12.425000 -16.140000 0 CHG=-1
M  V30 9 O -2.710000 12.704000 -14.099000 0
M  V30 10 O -1.087000 11.442000 -12.858000 0 CHG=-1
M  V30 11 O -7.021000 4.524000 -14.516000 0
M  V30 12 O -5.577000 6.513000 -15.858000 0
M  V30 13 O -3.494000 10.699000 -12.807000 0
M  V30 14 O -5.667000 9.224000 -12.984000 0
M  V30 15 O -6.651000 6.698000 -12.387000 0
M  V30 16 N -13.149000 9.060000 -12.040000 0
M  V30 17 N -1.989000 10.332000 -15.068000 0
M  V30 18 N -12.917000 6.693000 -11.986000 0
M  V30 19 N -10.830000 5.613000 -12.344000 0
M  V30 20 N -10.065000 9.092000 -12.642000 0
M  V30 21 N -8.935000 7.163000 -12.783000 0
M  V30 22 C -4.814000 8.076000 -13.102000 0 CFG=2
M  V30 23 C -12.160000 5.565000 -12.083000 0
M  V30 24 C -8.865000 8.523000 -12.855000 0
M  V30 25 C -7.497000 5.867000 -14.396000 0 CFG=2
M  V30 26 C -6.401000 6.849000 -14.727000 0 CFG=1
M  V30 27 C -7.838000 6.164000 -12.960000 0 CFG=1
M  V30 28 C -12.382000 7.952000 -12.140000 0
M  V30 29 C -5.632000 6.840000 -13.395000 0 CFG=2
M  V30 30 C -10.182000 6.816000 -12.522000 0
M  V30 31 C -10.938000 8.085000 -12.429000 0
M  V30 32 H -6.305700 4.485000 -15.213800 0
M  V30 33 H -6.146700 6.444900 -16.677000 0
M  V30 34 H -12.738400 9.964500 -12.155600 0
M  V30 35 H -14.127200 8.975500 -11.850400 0
M  V30 36 H -1.590400 9.482100 -14.723300 0
M  V30 37 H -4.316000 7.946000 -12.244600 0
M  V30 38 H -4.162900 8.224400 -13.846400 0
M  V30 39 H -12.597900 4.674700 -11.958000 0
M  V30 40 H -8.026000 9.033700 -13.042800 0
M  V30 41 H -8.291800 6.013600 -14.984900 0
M  V30 42 H -6.802000 7.754000 -14.869300 0
M  V30 43 H -8.081500 5.314400 -12.492200 0
M  V30 44 H -5.033700 6.039100 -13.369100 0
M  V30 END ATOM
M  V30 BEGIN BOND
M  V30 1 2 1 4
M  V30 2 1 1 5 CFG=3
M  V30 3 1 1 13
M  V30 4 1 1 14
M  V30 5 2 2 6
M  V30 6 1 2 7 CFG=3
M  V30 7 1 2 8
M  V30 8 1 2 17
M  V30 9 2 3 9
M  V30 10 1 3 10 CFG=1
M  V30 11 1 3 13
M  V30 12 1 3 17
M  V30 13 1 11 25
M  V30 14 1 12 26
M  V30 15 1 14 22
M  V30 16 1 15 27
M  V30 17 1 15 29
M  V30 18 1 16 28
M  V30 19 1 18 23
M  V30 20 2 18 28
M  V30 21 2 19 23
M  V30 22 1 19 30
M  V30 23 2 20 24
M  V30 24 1 20 31
M  V30 25 1 21 24
M  V30 26 1 21 27
M  V30 27 1 21 30
M  V30 28 1 22 29
M  V30 29 1 25 26
M  V30 30 1 25 27
M  V30 31 1 26 29
M  V30 32 1 28 31
M  V30 33 2 30 31
M  V30 34 1 29 44 CFG=3
M  V30 35 1 27 43 CFG=1
M  V30 36 1 26 42 CFG=3
M  V30 37 1 25 41 CFG=3
M  V30 38 1 11 32
M  V30 39 1 12 33
M  V30 40 1 16 34
M  V30 41 1 16 35
M  V30 42 1 17 36
M  V30 43 1 22 37 CFG=1
M  V30 44 1 22 38
M  V30 45 1 23 39
M  V30 46 1 24 40
M  V30 END BOND
M  V30 END CTAB
M  END
>  <Ligand_Instance>  (170) 
4DH8_ANP_A_403

>  <Dataset>  (170) 
PDB

>  <PDB_ID>  (170) 
4DH8

>  <Chain>  (170) 
A

>  <Resi>  (170) 
403

>  <Num_Resolved_Atoms>  (170) 
31

>  <Num_H_Atoms_ProtBoundConf>  (170) 
13

>  <Pocket>  (170) 
A

>  <SMILES>  (170) 
c1nc(c2c(n1)n(cn2)[C@H]3[C@@H]([C@@H]([C@H](O3)CO[P@](=O)(O)O[P@@](=O)(NP(=O)(O)O)O)O)O)N

>  <Name>  (170) 
PHOSPHOAMINOPHOSPHONIC ACID-ADENYLATE ESTER

>  <Num_Heavy_Atoms>  (170) 
31

>  <Num_Not_Resolved_Atoms>  (170) 
0

>  <ATP_Site>  (170) 
True

>  <Peripheral>  (170) 
False

>  <Standardized_SMILES>  (170) 
[H]O[C@@]1([H])[C@@]([H])(O[H])[C@]([H])(N2C([H])=NC3=C2N=C([H])N=C3N([H])[H])O[C@]1([H])C([H])([H])O[P@](=O)([O-])O[P@@](=O)([O-])N([H])P(=O)([O-])[O-]

$$$$
ANP
     RDKit          3D

  0  0  0  0  0  0  0  0  0  0999 V3000
M  V30 BEGIN CTAB
M  V30 COUNTS 44 46 0 0 0
M  V30 BEGIN ATOM
M  V30 1 P -5.163000 10.753000 -13.473000 0 CFG=2
M  V30 2 P -0.914000 10.525000 -14.817000 0 CFG=1
M  V30 3 P -2.484000 11.612000 -12.645000 0 CFG=1
M  V30 4 O -4.856000 10.512000 -14.890000 0
M  V30 5 O -6.240000 11.796000 -13.340000 0 CHG=-1
M  V30 6 O -1.518000 9.363000 -15.556000 0
M  V30 7 O 0.577000 10.496000 -14.951000 0 CHG=-1
M  V30 8 O -1.413000 11.806000 -15.356000 0 CHG=-1
M  V30 9 O -2.517000 12.848000 -13.444000 0
M  V30 10 O -2.008000 11.938000 -11.240000 0 CHG=-1
M  V30 11 O -6.990000 4.685000 -14.205000 0
M  V30 12 O -5.798000 6.820000 -15.630000 0
M  V30 13 O -3.971000 11.061000 -12.422000 0
M  V30 14 O -5.832000 9.384000 -12.918000 0
M  V30 15 O -6.667000 6.914000 -12.081000 0
M  V30 16 N -13.281000 9.004000 -12.178000 0
M  V30 17 N -1.406000 10.357000 -13.159000 0
M  V30 18 N -13.026000 6.642000 -12.104000 0
M  V30 19 N -10.890000 5.625000 -12.271000 0
M  V30 20 N -10.187000 9.129000 -12.413000 0
M  V30 21 N -8.981000 7.233000 -12.453000 0
M  V30 22 C -4.892000 8.319000 -12.871000 0 CFG=2
M  V30 23 C -12.229000 5.546000 -12.150000 0
M  V30 24 C -8.946000 8.602000 -12.499000 0
M  V30 25 C -7.547000 6.007000 -14.050000 0 CFG=2
M  V30 26 C -6.535000 7.069000 -14.419000 0 CFG=1
M  V30 27 C -7.844000 6.285000 -12.597000 0 CFG=1
M  V30 28 C -12.496000 7.912000 -12.134000 0
M  V30 29 C -5.671000 7.026000 -13.131000 0 CFG=2
M  V30 30 C -10.244000 6.841000 -12.369000 0
M  V30 31 C -11.039000 8.087000 -12.295000 0
M  V30 32 H -6.715000 4.548600 -15.156700 0
M  V30 33 H -6.433500 6.753400 -16.399200 0
M  V30 34 H -12.869400 9.915100 -12.199100 0
M  V30 35 H -14.276000 8.904400 -12.189600 0
M  V30 36 H -0.590700 10.379900 -12.580400 0
M  V30 37 H -4.457300 8.283500 -11.971100 0
M  V30 38 H -4.192600 8.446400 -13.574300 0
M  V30 39 H -12.652800 4.642100 -12.091700 0
M  V30 40 H -8.108800 9.142100 -12.585200 0
M  V30 41 H -8.375100 6.105200 -14.601900 0
M  V30 42 H -6.992000 7.956100 -14.483900 0
M  V30 43 H -8.031500 5.433600 -12.107100 0
M  V30 44 H -5.061100 6.233500 -13.133700 0
M  V30 END ATOM
M  V30 BEGIN BOND
M  V30 1 2 1 4
M  V30 2 1 1 5 CFG=3
M  V30 3 1 1 13
M  V30 4 1 1 14
M  V30 5 2 2 6
M  V30 6 1 2 7 CFG=1
M  V30 7 1 2 8
M  V30 8 1 2 17
M  V30 9 2 3 9
M  V30 10 1 3 10 CFG=1
M  V30 11 1 3 13
M  V30 12 1 3 17
M  V30 13 1 11 25
M  V30 14 1 12 26
M  V30 15 1 14 22
M  V30 16 1 15 27
M  V30 17 1 15 29
M  V30 18 1 16 28
M  V30 19 1 18 23
M  V30 20 2 18 28
M  V30 21 2 19 23
M  V30 22 1 19 30
M  V30 23 2 20 24
M  V30 24 1 20 31
M  V30 25 1 21 24
M  V30 26 1 21 27
M  V30 27 1 21 30
M  V30 28 1 22 29
M  V30 29 1 25 26
M  V30 30 1 25 27
M  V30 31 1 26 29
M  V30 32 1 28 31
M  V30 33 2 30 31
M  V30 34 1 29 44 CFG=3
M  V30 35 1 27 43 CFG=1
M  V30 36 1 26 42 CFG=3
M  V30 37 1 25 41 CFG=3
M  V30 38 1 11 32
M  V30 39 1 12 33
M  V30 40 1 16 34
M  V30 41 1 16 35
M  V30 42 1 17 36
M  V30 43 1 22 37 CFG=1
M  V30 44 1 22 38
M  V30 45 1 23 39
M  V30 46 1 24 40
M  V30 END BOND
M  V30 END CTAB
M  END
>  <Ligand_Instance>  (171) 
4XW4_ANP_A_403

>  <Dataset>  (171) 
PDB

>  <PDB_ID>  (171) 
4XW4

>  <Chain>  (171) 
A

>  <Resi>  (171) 
403

>  <Num_Resolved_Atoms>  (171) 
31

>  <Num_H_Atoms_ProtBoundConf>  (171) 
13

>  <Pocket>  (171) 
A

>  <SMILES>  (171) 
c1nc(c2c(n1)n(cn2)[C@H]3[C@@H]([C@@H]([C@H](O3)CO[P@](=O)(O)O[P@@](=O)(NP(=O)(O)O)O)O)O)N

>  <Name>  (171) 
PHOSPHOAMINOPHOSPHONIC ACID-ADENYLATE ESTER

>  <Num_Heavy_Atoms>  (171) 
31

>  <Num_Not_Resolved_Atoms>  (171) 
0

>  <ATP_Site>  (171) 
True

>  <Peripheral>  (171) 
False

>  <Standardized_SMILES>  (171) 
[H]O[C@@]1([H])[C@@]([H])(O[H])[C@]([H])(N2C([H])=NC3=C2N=C([H])N=C3N([H])[H])O[C@]1([H])C([H])([H])O[P@@](=O)([O-])O[P@@](=O)([O-])N([H])P(=O)([O-])[O-]

$$$$
ANP
     RDKit          3D

  0  0  0  0  0  0  0  0  0  0999 V3000
M  V30 BEGIN CTAB
M  V30 COUNTS 44 46 0 0 0
M  V30 BEGIN ATOM
M  V30 1 P 7.654000 16.729000 18.975000 0 CFG=1
M  V30 2 P 10.891000 20.077000 19.485000 0 CFG=2
M  V30 3 P 9.684000 18.163000 17.672000 0 CFG=1
M  V30 4 O 7.941000 15.272000 19.042000 0
M  V30 5 O 8.058000 17.521000 20.232000 0 CHG=-1
M  V30 6 O 10.665000 20.121000 20.977000 0
M  V30 7 O 12.171000 19.185000 19.245000 0 CHG=-1
M  V30 8 O 11.193000 21.541000 18.995000 0 CHG=-1
M  V30 9 O 10.847000 17.291000 18.070000 0
M  V30 10 O 9.894000 18.660000 16.222000 0 CHG=-1
M  V30 11 O 2.230000 18.960000 21.338000 0
M  V30 12 O 5.012000 19.140000 21.612000 0
M  V30 13 O 8.353000 17.342000 17.663000 0
M  V30 14 O 6.101000 16.908000 18.722000 0
M  V30 15 O 3.282000 17.512000 18.888000 0
M  V30 16 N 1.785000 11.066000 20.544000 0
M  V30 17 N 9.495000 19.478000 18.720000 0
M  V30 18 N 0.051000 12.583000 20.789000 0
M  V30 19 N 0.324000 14.969000 20.564000 0
M  V30 20 N 3.566000 13.541000 20.031000 0
M  V30 21 N 2.630000 15.590000 20.069000 0
M  V30 22 C 5.552000 18.246000 18.516000 0 CFG=2
M  V30 23 C -0.376000 13.850000 20.782000 0
M  V30 24 C 3.761000 14.831000 19.906000 0
M  V30 25 C 3.008000 17.778000 21.233000 0 CFG=2
M  V30 26 C 4.456000 18.075000 20.845000 0 CFG=1
M  V30 27 C 2.509000 17.042000 19.985000 0 CFG=1
M  V30 28 C 1.367000 12.335000 20.550000 0
M  V30 29 C 4.313000 18.410000 19.361000 0 CFG=2
M  V30 30 C 1.623000 14.695000 20.333000 0
M  V30 31 C 2.205000 13.441000 20.310000 0
M  V30 32 H 2.623400 19.557000 22.037200 0
M  V30 33 H 4.994200 18.896900 22.581800 0
M  V30 34 H 2.747500 10.857400 20.370800 0
M  V30 35 H 1.135300 10.324800 20.712700 0
M  V30 36 H 9.097600 20.228000 18.191300 0
M  V30 37 H 5.317200 18.366200 17.551400 0
M  V30 38 H 6.230900 18.930500 18.781600 0
M  V30 39 H -1.350800 13.978600 20.964500 0
M  V30 40 H 4.657400 15.227900 19.708700 0
M  V30 41 H 2.946300 17.211600 22.054800 0
M  V30 42 H 5.012400 17.251400 20.954800 0
M  V30 43 H 1.549800 17.279000 19.830800 0
M  V30 44 H 3.985600 19.350800 19.273300 0
M  V30 END ATOM
M  V30 BEGIN BOND
M  V30 1 2 1 4
M  V30 2 1 1 5 CFG=1
M  V30 3 1 1 13
M  V30 4 1 1 14
M  V30 5 2 2 6
M  V30 6 1 2 7 CFG=1
M  V30 7 1 2 8
M  V30 8 1 2 17
M  V30 9 2 3 9
M  V30 10 1 3 10 CFG=3
M  V30 11 1 3 13
M  V30 12 1 3 17
M  V30 13 1 11 25
M  V30 14 1 12 26
M  V30 15 1 14 22
M  V30 16 1 15 27
M  V30 17 1 15 29
M  V30 18 1 16 28
M  V30 19 1 18 23
M  V30 20 2 18 28
M  V30 21 2 19 23
M  V30 22 1 19 30
M  V30 23 2 20 24
M  V30 24 1 20 31
M  V30 25 1 21 24
M  V30 26 1 21 27
M  V30 27 1 21 30
M  V30 28 1 22 29
M  V30 29 1 25 26
M  V30 30 1 25 27
M  V30 31 1 26 29
M  V30 32 1 28 31
M  V30 33 2 30 31
M  V30 34 1 29 44 CFG=1
M  V30 35 1 27 43 CFG=3
M  V30 36 1 26 42 CFG=3
M  V30 37 1 25 41 CFG=1
M  V30 38 1 11 32
M  V30 39 1 12 33
M  V30 40 1 16 34
M  V30 41 1 16 35
M  V30 42 1 17 36
M  V30 43 1 22 37 CFG=3
M  V30 44 1 22 38
M  V30 45 1 23 39
M  V30 46 1 24 40
M  V30 END BOND
M  V30 END CTAB
M  END
>  <Ligand_Instance>  (172) 
7E0Z_ANP_A_401

>  <Dataset>  (172) 
PDB

>  <PDB_ID>  (172) 
7E0Z

>  <Chain>  (172) 
A

>  <Resi>  (172) 
401

>  <Num_Resolved_Atoms>  (172) 
31

>  <Num_H_Atoms_ProtBoundConf>  (172) 
13

>  <Pocket>  (172) 
A

>  <SMILES>  (172) 
c1nc(c2c(n1)n(cn2)[C@H]3[C@@H]([C@@H]([C@H](O3)CO[P@](=O)(O)O[P@@](=O)(NP(=O)(O)O)O)O)O)N

>  <Name>  (172) 
PHOSPHOAMINOPHOSPHONIC ACID-ADENYLATE ESTER

>  <Num_Heavy_Atoms>  (172) 
31

>  <Num_Not_Resolved_Atoms>  (172) 
0

>  <ATP_Site>  (172) 
True

>  <Peripheral>  (172) 
False

>  <Standardized_SMILES>  (172) 
[H]O[C@@]1([H])[C@@]([H])(O[H])[C@]([H])(N2C([H])=NC3=C2N=C([H])N=C3N([H])[H])O[C@]1([H])C([H])([H])O[P@](=O)([O-])O[P@@](=O)([O-])N([H])P(=O)([O-])[O-]

$$$$
ANP
     RDKit          3D

  0  0  0  0  0  0  0  0  0  0999 V3000
M  V30 BEGIN CTAB
M  V30 COUNTS 44 46 0 0 0
M  V30 BEGIN ATOM
M  V30 1 P 11.554000 28.884000 -22.394000 0 CFG=1
M  V30 2 P 12.719000 29.656000 -18.042000 0 CFG=2
M  V30 3 P 12.955000 30.452000 -20.676000 0 CFG=1
M  V30 4 O 12.365000 28.046000 -23.306000 0
M  V30 5 O 11.232000 28.223000 -21.051000 0 CHG=-1
M  V30 6 O 12.064000 28.527000 -17.312000 0
M  V30 7 O 14.218000 29.279000 -18.355000 0 CHG=-1
M  V30 8 O 12.680000 30.960000 -17.147000 0 CHG=-1
M  V30 9 O 14.212000 29.647000 -20.605000 0
M  V30 10 O 13.294000 31.957000 -20.467000 0 CHG=-1
M  V30 11 O 5.256000 27.876000 -23.053000 0
M  V30 12 O 7.163000 27.950000 -21.149000 0
M  V30 13 O 12.287000 30.254000 -22.069000 0
M  V30 14 O 10.234000 29.296000 -23.157000 0
M  V30 15 O 7.747000 29.475000 -24.333000 0
M  V30 16 N 8.638000 25.065000 -29.471000 0
M  V30 17 N 11.888000 29.946000 -19.486000 0
M  V30 18 N 6.426000 25.514000 -28.979000 0
M  V30 19 N 5.716000 26.845000 -27.099000 0
M  V30 20 N 9.288000 26.755000 -26.970000 0
M  V30 21 N 7.598000 27.655000 -25.788000 0
M  V30 22 C 9.200000 30.057000 -22.502000 0 CFG=2
M  V30 23 C 5.521000 26.102000 -28.191000 0
M  V30 24 C 8.950000 27.485000 -25.934000 0
M  V30 25 C 6.573000 27.575000 -23.497000 0 CFG=2
M  V30 26 C 7.631000 28.034000 -22.490000 0 CFG=1
M  V30 27 C 6.912000 28.407000 -24.743000 0 CFG=1
M  V30 28 C 7.738000 25.655000 -28.681000 0
M  V30 29 C 7.863000 29.482000 -22.898000 0 CFG=2
M  V30 30 C 7.022000 26.966000 -26.828000 0
M  V30 31 C 8.071000 26.420000 -27.545000 0
M  V30 32 H 5.229500 27.860500 -22.053500 0
M  V30 33 H 7.380200 27.047900 -20.776000 0
M  V30 34 H 9.613700 25.154700 -29.271300 0
M  V30 35 H 8.336400 24.533300 -30.262400 0
M  V30 36 H 11.200700 30.656500 -19.334700 0
M  V30 37 H 9.253600 31.014300 -22.786200 0
M  V30 38 H 9.313200 29.996900 -21.510200 0
M  V30 39 H 4.566200 25.966900 -28.455700 0
M  V30 40 H 9.619500 27.882300 -25.306300 0
M  V30 41 H 6.667000 26.597900 -23.688000 0
M  V30 42 H 8.470700 27.502200 -22.600000 0
M  V30 43 H 6.065900 28.784600 -25.119300 0
M  V30 44 H 7.135600 30.050600 -22.513800 0
M  V30 END ATOM
M  V30 BEGIN BOND
M  V30 1 2 1 4
M  V30 2 1 1 5 CFG=1
M  V30 3 1 1 13
M  V30 4 1 1 14
M  V30 5 2 2 6
M  V30 6 1 2 7 CFG=3
M  V30 7 1 2 8
M  V30 8 1 2 17
M  V30 9 2 3 9
M  V30 10 1 3 10 CFG=1
M  V30 11 1 3 13
M  V30 12 1 3 17
M  V30 13 1 11 25
M  V30 14 1 12 26
M  V30 15 1 14 22
M  V30 16 1 15 27
M  V30 17 1 15 29
M  V30 18 1 16 28
M  V30 19 1 18 23
M  V30 20 2 18 28
M  V30 21 2 19 23
M  V30 22 1 19 30
M  V30 23 2 20 24
M  V30 24 1 20 31
M  V30 25 1 21 24
M  V30 26 1 21 27
M  V30 27 1 21 30
M  V30 28 1 22 29
M  V30 29 1 25 26
M  V30 30 1 25 27
M  V30 31 1 26 29
M  V30 32 1 28 31
M  V30 33 2 30 31
M  V30 34 1 29 44 CFG=1
M  V30 35 1 27 43 CFG=3
M  V30 36 1 26 42 CFG=1
M  V30 37 1 25 41 CFG=3
M  V30 38 1 11 32
M  V30 39 1 12 33
M  V30 40 1 16 34
M  V30 41 1 16 35
M  V30 42 1 17 36
M  V30 43 1 22 37 CFG=3
M  V30 44 1 22 38
M  V30 45 1 23 39
M  V30 46 1 24 40
M  V30 END BOND
M  V30 END CTAB
M  END
>  <Ligand_Instance>  (173) 
7E11_ANP_A_401

>  <Dataset>  (173) 
PDB

>  <PDB_ID>  (173) 
7E11

>  <Chain>  (173) 
A

>  <Resi>  (173) 
401

>  <Num_Resolved_Atoms>  (173) 
31

>  <Num_H_Atoms_ProtBoundConf>  (173) 
13

>  <Pocket>  (173) 
A

>  <SMILES>  (173) 
c1nc(c2c(n1)n(cn2)[C@H]3[C@@H]([C@@H]([C@H](O3)CO[P@](=O)(O)O[P@@](=O)(NP(=O)(O)O)O)O)O)N

>  <Name>  (173) 
PHOSPHOAMINOPHOSPHONIC ACID-ADENYLATE ESTER

>  <Num_Heavy_Atoms>  (173) 
31

>  <Num_Not_Resolved_Atoms>  (173) 
0

>  <ATP_Site>  (173) 
True

>  <Peripheral>  (173) 
False

>  <Standardized_SMILES>  (173) 
[H]O[C@@]1([H])[C@@]([H])(O[H])[C@]([H])(N2C([H])=NC3=C2N=C([H])N=C3N([H])[H])O[C@]1([H])C([H])([H])O[P@](=O)([O-])O[P@@](=O)([O-])N([H])P(=O)([O-])[O-]

$$$$
ANP
     RDKit          3D

  0  0  0  0  0  0  0  0  0  0999 V3000
M  V30 BEGIN CTAB
M  V30 COUNTS 44 46 0 0 0
M  V30 BEGIN ATOM
M  V30 1 P 2.828000 -13.773000 25.970000 0 CFG=1
M  V30 2 P -0.031000 -16.421000 24.006000 0 CFG=2
M  V30 3 P 2.261000 -16.375000 25.554000 0 CFG=1
M  V30 4 O 4.184000 -13.197000 25.820000 0
M  V30 5 O 1.982000 -13.776000 24.695000 0 CHG=-1
M  V30 6 O -0.285000 -15.107000 23.338000 0
M  V30 7 O 0.996000 -17.260000 23.152000 0 CHG=-1
M  V30 8 O -1.385000 -17.222000 24.157000 0 CHG=-1
M  V30 9 O 2.803000 -16.266000 24.166000 0
M  V30 10 O 2.609000 -17.773000 26.136000 0 CHG=-1
M  V30 11 O 0.110000 -9.266000 29.634000 0
M  V30 12 O -0.077000 -10.974000 27.536000 0
M  V30 13 O 2.894000 -15.275000 26.451000 0
M  V30 14 O 2.040000 -12.981000 27.083000 0
M  V30 15 O 2.494000 -11.155000 30.016000 0
M  V30 16 N 7.725000 -7.120000 28.440000 0
M  V30 17 N 0.600000 -16.158000 25.553000 0
M  V30 18 N 6.219000 -6.231000 29.949000 0
M  V30 19 N 4.116000 -7.266000 30.509000 0
M  V30 20 N 5.679000 -9.409000 28.114000 0
M  V30 21 N 3.770000 -9.344000 29.297000 0
M  V30 22 C 2.324000 -13.009000 28.489000 0 CFG=2
M  V30 23 C 5.051000 -6.316000 30.593000 0
M  V30 24 C 4.546000 -10.010000 28.385000 0
M  V30 25 C 1.297000 -9.460000 28.877000 0 CFG=2
M  V30 26 C 1.228000 -10.747000 28.057000 0 CFG=1
M  V30 27 C 2.468000 -9.754000 29.815000 0 CFG=1
M  V30 28 C 6.556000 -7.210000 29.080000 0
M  V30 29 C 1.618000 -11.814000 29.077000 0 CFG=2
M  V30 30 C 4.475000 -8.221000 29.643000 0
M  V30 31 C 5.648000 -8.271000 28.905000 0
M  V30 32 H -0.663800 -9.676300 29.151500 0
M  V30 33 H -0.337000 -10.211000 26.944200 0
M  V30 34 H 7.996500 -7.831800 27.792300 0
M  V30 35 H 8.328600 -6.340800 28.608600 0
M  V30 36 H 0.183400 -16.804100 26.192500 0
M  V30 37 H 3.309400 -12.943000 28.646200 0
M  V30 38 H 1.977200 -13.853500 28.897200 0
M  V30 39 H 4.849800 -5.566400 31.223500 0
M  V30 40 H 4.273000 -10.875300 27.964600 0
M  V30 41 H 1.488700 -8.669700 28.295100 0
M  V30 42 H 1.896500 -10.719100 27.313800 0
M  V30 43 H 2.307000 -9.300500 30.691600 0
M  V30 44 H 0.797000 -12.122900 29.557100 0
M  V30 END ATOM
M  V30 BEGIN BOND
M  V30 1 2 1 4
M  V30 2 1 1 5 CFG=3
M  V30 3 1 1 13
M  V30 4 1 1 14
M  V30 5 2 2 6
M  V30 6 1 2 7 CFG=3
M  V30 7 1 2 8
M  V30 8 1 2 17
M  V30 9 2 3 9
M  V30 10 1 3 10 CFG=1
M  V30 11 1 3 13
M  V30 12 1 3 17
M  V30 13 1 11 25
M  V30 14 1 12 26
M  V30 15 1 14 22
M  V30 16 1 15 27
M  V30 17 1 15 29
M  V30 18 1 16 28
M  V30 19 1 18 23
M  V30 20 2 18 28
M  V30 21 2 19 23
M  V30 22 1 19 30
M  V30 23 2 20 24
M  V30 24 1 20 31
M  V30 25 1 21 24
M  V30 26 1 21 27
M  V30 27 1 21 30
M  V30 28 1 22 29
M  V30 29 1 25 26
M  V30 30 1 25 27
M  V30 31 1 26 29
M  V30 32 1 28 31
M  V30 33 2 30 31
M  V30 34 1 29 44 CFG=1
M  V30 35 1 27 43 CFG=1
M  V30 36 1 26 42 CFG=3
M  V30 37 1 25 41 CFG=3
M  V30 38 1 11 32
M  V30 39 1 12 33
M  V30 40 1 16 34
M  V30 41 1 16 35
M  V30 42 1 17 36
M  V30 43 1 22 37 CFG=3
M  V30 44 1 22 38
M  V30 45 1 23 39
M  V30 46 1 24 40
M  V30 END BOND
M  V30 END CTAB
M  END
>  <Ligand_Instance>  (174) 
7E12_ANP_A_401

>  <Dataset>  (174) 
PDB

>  <PDB_ID>  (174) 
7E12

>  <Chain>  (174) 
A

>  <Resi>  (174) 
401

>  <Num_Resolved_Atoms>  (174) 
31

>  <Num_H_Atoms_ProtBoundConf>  (174) 
13

>  <Pocket>  (174) 
A

>  <SMILES>  (174) 
c1nc(c2c(n1)n(cn2)[C@H]3[C@@H]([C@@H]([C@H](O3)CO[P@](=O)(O)O[P@@](=O)(NP(=O)(O)O)O)O)O)N

>  <Name>  (174) 
PHOSPHOAMINOPHOSPHONIC ACID-ADENYLATE ESTER

>  <Num_Heavy_Atoms>  (174) 
31

>  <Num_Not_Resolved_Atoms>  (174) 
0

>  <ATP_Site>  (174) 
True

>  <Peripheral>  (174) 
False

>  <Standardized_SMILES>  (174) 
[H]O[C@@]1([H])[C@@]([H])(O[H])[C@]([H])(N2C([H])=NC3=C2N=C([H])N=C3N([H])[H])O[C@]1([H])C([H])([H])O[P@](=O)([O-])O[P@@](=O)([O-])N([H])P(=O)([O-])[O-]

$$$$
AO8
     RDKit          3D

  0  0  0  0  0  0  0  0  0  0999 V3000
M  V30 BEGIN CTAB
M  V30 COUNTS 44 46 0 0 0
M  V30 BEGIN ATOM
M  V30 1 S -27.685000 -13.903000 25.378000 0 CFG=1
M  V30 2 O -26.944000 -13.352000 26.471000 0
M  V30 3 O -28.948000 -14.528000 25.627000 0
M  V30 4 N -27.948000 -12.704000 24.327000 0
M  V30 5 N -27.954000 -9.860000 24.728000 0 CFG=2 CHG=1
M  V30 6 N -23.882000 -17.605000 26.509000 0
M  V30 7 C -26.830000 -11.863000 23.870000 0 CFG=2
M  V30 8 C -26.688000 -10.595000 24.685000 0 CFG=2
M  V30 9 C -24.700000 -16.806000 27.211000 0
M  V30 10 C -31.208000 -6.068000 23.897000 0
M  V30 11 C -29.987000 -5.778000 23.346000 0
M  V30 12 C -31.486000 -7.354000 24.326000 0
M  V30 13 C -25.928000 -15.969000 22.439000 0
M  V30 14 C -28.227000 -9.133000 23.489000 0 CFG=2
M  V30 15 C -23.993000 -17.587000 25.188000 0
M  V30 16 C -26.735000 -15.107000 23.168000 0
M  V30 17 C -29.033000 -6.770000 23.217000 0
M  V30 18 C -30.544000 -8.387000 24.214000 0
M  V30 19 C -25.035000 -16.788000 23.067000 0
M  V30 20 C -25.619000 -15.968000 26.651000 0
M  V30 21 C -26.654000 -15.074000 24.533000 0
M  V30 22 C -29.292000 -8.073000 23.644000 0
M  V30 23 C -24.915000 -16.782000 24.478000 0
M  V30 24 C -25.750000 -15.925000 25.244000 0
M  V30 25 H -28.348400 -13.119500 23.510300 0
M  V30 26 H -27.917800 -9.204400 25.482200 0
M  V30 27 H -26.985700 -11.614100 22.914100 0
M  V30 28 H -25.982300 -12.388400 23.943800 0
M  V30 29 H -26.415400 -10.833200 25.617200 0
M  V30 30 H -25.986400 -10.015500 24.270300 0
M  V30 31 H -24.631500 -16.826200 28.208400 0
M  V30 32 H -31.898100 -5.350200 23.989000 0
M  V30 33 H -29.786200 -4.848300 23.037200 0
M  V30 34 H -32.381000 -7.551700 24.725900 0
M  V30 35 H -26.001600 -15.990300 21.441900 0
M  V30 36 H -28.528700 -9.787800 22.796000 0
M  V30 37 H -27.381900 -8.692600 23.186000 0
M  V30 38 H -23.386100 -18.180500 24.659400 0
M  V30 39 H -27.378900 -14.507100 22.693100 0
M  V30 40 H -28.145200 -6.550900 22.812200 0
M  V30 41 H -30.752300 -9.313600 24.527100 0
M  V30 42 H -24.458800 -17.399300 22.524500 0
M  V30 43 H -26.194200 -15.389900 27.229800 0
M  V30 44 H -28.696400 -10.510700 24.887300 0
M  V30 END ATOM
M  V30 BEGIN BOND
M  V30 1 2 1 2
M  V30 2 2 1 3
M  V30 3 1 1 4 CFG=3
M  V30 4 1 1 21
M  V30 5 1 4 7
M  V30 6 1 5 8
M  V30 7 1 5 14
M  V30 8 2 6 9
M  V30 9 1 6 15
M  V30 10 1 7 8
M  V30 11 1 9 20
M  V30 12 2 10 11
M  V30 13 1 10 12
M  V30 14 1 11 17
M  V30 15 2 12 18
M  V30 16 1 13 16
M  V30 17 2 13 19
M  V30 18 1 14 22
M  V30 19 2 15 23
M  V30 20 2 16 21
M  V30 21 2 17 22
M  V30 22 1 18 22
M  V30 23 1 19 23
M  V30 24 2 20 24
M  V30 25 1 21 24
M  V30 26 1 23 24
M  V30 27 1 4 25
M  V30 28 1 5 26 CFG=1
M  V30 29 1 7 27 CFG=3
M  V30 30 1 7 28
M  V30 31 1 8 29 CFG=1
M  V30 32 1 8 30
M  V30 33 1 9 31
M  V30 34 1 10 32
M  V30 35 1 11 33
M  V30 36 1 12 34
M  V30 37 1 13 35
M  V30 38 1 14 36 CFG=3
M  V30 39 1 14 37
M  V30 40 1 15 38
M  V30 41 1 16 39
M  V30 42 1 17 40
M  V30 43 1 18 41
M  V30 44 1 19 42
M  V30 45 1 20 43
M  V30 46 1 5 44
M  V30 END BOND
M  V30 END CTAB
M  END
>  <Ligand_Instance>  (175) 
5OTG_AO8_A_401

>  <Dataset>  (175) 
PDB

>  <PDB_ID>  (175) 
5OTG

>  <Chain>  (175) 
A

>  <Resi>  (175) 
401

>  <Num_Resolved_Atoms>  (175) 
24

>  <Num_H_Atoms_ProtBoundConf>  (175) 
20

>  <Pocket>  (175) 
A

>  <SMILES>  (175) 
B(c1ccccc1CNCCNS(=O)(=O)c2cccc3c2ccnc3)(O)O

>  <Name>  (175) 
[2-[[2-(isoquinolin-5-ylsulfonylamino)ethylamino]methyl]phenyl]boronic acid

>  <Num_Heavy_Atoms>  (175) 
27

>  <Num_Not_Resolved_Atoms>  (175) 
3

>  <ATP_Site>  (175) 
True

>  <Peripheral>  (175) 
False

>  <Standardized_SMILES>  (175) 
[H]C1=NC([H])=C2C([H])=C([H])C([H])=C(S(=O)(=O)N([H])C([H])([H])C([H])([H])[N+]([H])([H])C([H])([H])C3=C([H])C([H])=C([H])C([H])=C3[H])C2=C1[H]

$$$$
AO8
     RDKit          3D

  0  0  0  0  0  0  0  0  0  0999 V3000
M  V30 BEGIN CTAB
M  V30 COUNTS 44 46 0 0 0
M  V30 BEGIN ATOM
M  V30 1 S -13.754000 -25.042000 27.437000 0 CFG=1
M  V30 2 O -13.209000 -26.134000 26.686000 0
M  V30 3 O -14.352000 -25.294000 28.708000 0
M  V30 4 N -12.537000 -24.008000 27.677000 0
M  V30 5 N -9.781000 -24.274000 27.634000 0 CFG=2 CHG=1
M  V30 6 N -17.413000 -26.218000 23.642000 0
M  V30 7 C -11.823000 -23.428000 26.536000 0 CFG=2
M  V30 8 C -10.466000 -24.071000 26.350000 0 CFG=2
M  V30 9 C -16.661000 -26.909000 24.507000 0
M  V30 10 C -5.370000 -24.003000 30.122000 0
M  V30 11 C -5.610000 -22.737000 29.656000 0
M  V30 12 C -6.315000 -24.998000 29.942000 0
M  V30 13 C -15.844000 -22.126000 25.678000 0
M  V30 14 C -9.053000 -23.095000 28.101000 0 CFG=2
M  V30 15 C -17.400000 -24.897000 23.735000 0
M  V30 16 C -14.979000 -22.844000 26.488000 0
M  V30 17 C -6.796000 -22.452000 29.006000 0
M  V30 18 C -7.532000 -24.749000 29.288000 0
M  V30 19 C -16.653000 -22.766000 24.784000 0
M  V30 20 C -15.855000 -26.338000 25.444000 0
M  V30 21 C -14.951000 -24.211000 26.431000 0
M  V30 22 C -7.763000 -23.438000 28.815000 0
M  V30 23 C -16.637000 -24.178000 24.677000 0
M  V30 24 C -15.806000 -24.931000 25.543000 0
M  V30 25 H -12.909500 -23.242700 28.201900 0
M  V30 26 H -9.130800 -25.026600 27.530100 0
M  V30 27 H -11.700100 -22.448100 26.693000 0
M  V30 28 H -12.365500 -23.567400 25.707600 0
M  V30 29 H -10.585800 -24.957400 25.902800 0
M  V30 30 H -9.903400 -23.479500 25.772400 0
M  V30 31 H -16.693100 -27.907500 24.462300 0
M  V30 32 H -4.511700 -24.208100 30.592300 0
M  V30 33 H -4.926600 -22.018700 29.786300 0
M  V30 34 H -6.126100 -25.917600 30.286500 0
M  V30 35 H -15.875900 -21.129000 25.749000 0
M  V30 36 H -9.640300 -22.587300 28.731300 0
M  V30 37 H -8.836700 -22.521000 27.311200 0
M  V30 38 H -17.967300 -24.376800 23.096600 0
M  V30 39 H -14.371500 -22.360300 27.118100 0
M  V30 40 H -6.962800 -21.525700 28.668000 0
M  V30 41 H -8.210300 -25.472800 29.161600 0
M  V30 42 H -17.263300 -22.232300 24.198600 0
M  V30 43 H -15.304900 -26.908100 26.054200 0
M  V30 44 H -10.464600 -24.516800 28.322300 0
M  V30 END ATOM
M  V30 BEGIN BOND
M  V30 1 2 1 2
M  V30 2 2 1 3
M  V30 3 1 1 4 CFG=1
M  V30 4 1 1 21
M  V30 5 1 4 7
M  V30 6 1 5 8
M  V30 7 1 5 14
M  V30 8 2 6 9
M  V30 9 1 6 15
M  V30 10 1 7 8
M  V30 11 1 9 20
M  V30 12 2 10 11
M  V30 13 1 10 12
M  V30 14 1 11 17
M  V30 15 2 12 18
M  V30 16 1 13 16
M  V30 17 2 13 19
M  V30 18 1 14 22
M  V30 19 2 15 23
M  V30 20 2 16 21
M  V30 21 2 17 22
M  V30 22 1 18 22
M  V30 23 1 19 23
M  V30 24 2 20 24
M  V30 25 1 21 24
M  V30 26 1 23 24
M  V30 27 1 4 25
M  V30 28 1 5 26 CFG=3
M  V30 29 1 7 27 CFG=1
M  V30 30 1 7 28
M  V30 31 1 8 29 CFG=3
M  V30 32 1 8 30
M  V30 33 1 9 31
M  V30 34 1 10 32
M  V30 35 1 11 33
M  V30 36 1 12 34
M  V30 37 1 13 35
M  V30 38 1 14 36 CFG=1
M  V30 39 1 14 37
M  V30 40 1 15 38
M  V30 41 1 16 39
M  V30 42 1 17 40
M  V30 43 1 18 41
M  V30 44 1 19 42
M  V30 45 1 20 43
M  V30 46 1 5 44
M  V30 END BOND
M  V30 END CTAB
M  END
>  <Ligand_Instance>  (176) 
5OUC_AO8_A_401

>  <Dataset>  (176) 
PDB

>  <PDB_ID>  (176) 
5OUC

>  <Chain>  (176) 
A

>  <Resi>  (176) 
401

>  <Num_Resolved_Atoms>  (176) 
24

>  <Num_H_Atoms_ProtBoundConf>  (176) 
20

>  <Pocket>  (176) 
A

>  <SMILES>  (176) 
B(c1ccccc1CNCCNS(=O)(=O)c2cccc3c2ccnc3)(O)O

>  <Name>  (176) 
[2-[[2-(isoquinolin-5-ylsulfonylamino)ethylamino]methyl]phenyl]boronic acid

>  <Num_Heavy_Atoms>  (176) 
27

>  <Num_Not_Resolved_Atoms>  (176) 
3

>  <ATP_Site>  (176) 
True

>  <Peripheral>  (176) 
False

>  <Standardized_SMILES>  (176) 
[H]C1=NC([H])=C2C([H])=C([H])C([H])=C(S(=O)(=O)N([H])C([H])([H])C([H])([H])[N+]([H])([H])C([H])([H])C3=C([H])C([H])=C([H])C([H])=C3[H])C2=C1[H]

$$$$
AO8
     RDKit          3D

  0  0  0  0  0  0  0  0  0  0999 V3000
M  V30 BEGIN CTAB
M  V30 COUNTS 44 46 0 0 0
M  V30 BEGIN ATOM
M  V30 1 S 13.437000 -22.838000 -27.970000 0 CFG=1
M  V30 2 O 12.694000 -23.886000 -27.343000 0
M  V30 3 O 14.145000 -23.096000 -29.185000 0
M  V30 4 N 12.419000 -21.616000 -28.234000 0
M  V30 5 N 9.493000 -22.172000 -27.924000 0 CFG=2 CHG=1
M  V30 6 N 16.962000 -24.441000 -24.154000 0
M  V30 7 C 11.568000 -21.119000 -27.131000 0 CFG=2
M  V30 8 C 10.391000 -22.000000 -26.779000 0 CFG=2
M  V30 9 C 16.150000 -25.042000 -25.046000 0
M  V30 10 C 5.755000 -21.088000 -31.211000 0
M  V30 11 C 5.686000 -20.341000 -30.066000 0
M  V30 12 C 6.903000 -21.801000 -31.507000 0
M  V30 13 C 15.427000 -20.158000 -25.784000 0
M  V30 14 C 9.110000 -20.903000 -28.540000 0 CFG=2
M  V30 15 C 16.989000 -23.120000 -24.151000 0
M  V30 16 C 14.610000 -20.773000 -26.713000 0
M  V30 17 C 6.767000 -20.294000 -29.205000 0
M  V30 18 C 8.022000 -21.779000 -30.660000 0
M  V30 19 C 16.216000 -20.893000 -24.952000 0
M  V30 20 C 15.364000 -24.375000 -25.941000 0
M  V30 21 C 14.570000 -22.138000 -26.797000 0
M  V30 22 C 7.936000 -21.000000 -29.483000 0
M  V30 23 C 16.217000 -22.305000 -25.016000 0
M  V30 24 C 15.375000 -22.960000 -25.951000 0
M  V30 25 H 11.803600 -21.904700 -28.967400 0
M  V30 26 H 8.665100 -22.638900 -27.613300 0
M  V30 27 H 11.214700 -20.221000 -27.393300 0
M  V30 28 H 12.140200 -21.027000 -26.316100 0
M  V30 29 H 10.729300 -22.896500 -26.492900 0
M  V30 30 H 9.883100 -21.579800 -26.027000 0
M  V30 31 H 16.121400 -26.041600 -25.052700 0
M  V30 32 H 4.974000 -21.118400 -31.834800 0
M  V30 33 H 4.853900 -19.829300 -29.852200 0
M  V30 34 H 6.936400 -22.345500 -32.345100 0
M  V30 35 H 15.439200 -19.160000 -25.721600 0
M  V30 36 H 9.894900 -20.553800 -29.051900 0
M  V30 37 H 8.874300 -20.259800 -27.811500 0
M  V30 38 H 17.593200 -22.666000 -23.496100 0
M  V30 39 H 14.046400 -20.219000 -27.325700 0
M  V30 40 H 6.709100 -19.745500 -28.370800 0
M  V30 41 H 8.849500 -22.295200 -30.880800 0
M  V30 42 H 16.801600 -20.428100 -24.287900 0
M  V30 43 H 14.787000 -24.880700 -26.582300 0
M  V30 44 H 9.954800 -22.733700 -28.610500 0
M  V30 END ATOM
M  V30 BEGIN BOND
M  V30 1 2 1 2
M  V30 2 2 1 3
M  V30 3 1 1 4 CFG=3
M  V30 4 1 1 21
M  V30 5 1 4 7
M  V30 6 1 5 8
M  V30 7 1 5 14
M  V30 8 2 6 9
M  V30 9 1 6 15
M  V30 10 1 7 8
M  V30 11 1 9 20
M  V30 12 2 10 11
M  V30 13 1 10 12
M  V30 14 1 11 17
M  V30 15 2 12 18
M  V30 16 1 13 16
M  V30 17 2 13 19
M  V30 18 1 14 22
M  V30 19 2 15 23
M  V30 20 2 16 21
M  V30 21 2 17 22
M  V30 22 1 18 22
M  V30 23 1 19 23
M  V30 24 2 20 24
M  V30 25 1 21 24
M  V30 26 1 23 24
M  V30 27 1 4 25
M  V30 28 1 5 26 CFG=1
M  V30 29 1 7 27 CFG=3
M  V30 30 1 7 28
M  V30 31 1 8 29 CFG=1
M  V30 32 1 8 30
M  V30 33 1 9 31
M  V30 34 1 10 32
M  V30 35 1 11 33
M  V30 36 1 12 34
M  V30 37 1 13 35
M  V30 38 1 14 36 CFG=3
M  V30 39 1 14 37
M  V30 40 1 15 38
M  V30 41 1 16 39
M  V30 42 1 17 40
M  V30 43 1 18 41
M  V30 44 1 19 42
M  V30 45 1 20 43
M  V30 46 1 5 44
M  V30 END BOND
M  V30 END CTAB
M  END
>  <Ligand_Instance>  (177) 
6I2H_AO8_A_401

>  <Dataset>  (177) 
PDB

>  <PDB_ID>  (177) 
6I2H

>  <Chain>  (177) 
A

>  <Resi>  (177) 
401

>  <Num_Resolved_Atoms>  (177) 
24

>  <Num_H_Atoms_ProtBoundConf>  (177) 
20

>  <Pocket>  (177) 
A

>  <SMILES>  (177) 
B(c1ccccc1CNCCNS(=O)(=O)c2cccc3c2ccnc3)(O)O

>  <Name>  (177) 
[2-[[2-(isoquinolin-5-ylsulfonylamino)ethylamino]methyl]phenyl]boronic acid

>  <Num_Heavy_Atoms>  (177) 
27

>  <Num_Not_Resolved_Atoms>  (177) 
3

>  <ATP_Site>  (177) 
True

>  <Peripheral>  (177) 
False

>  <Standardized_SMILES>  (177) 
[H]C1=NC([H])=C2C([H])=C([H])C([H])=C(S(=O)(=O)N([H])C([H])([H])C([H])([H])[N+]([H])([H])C([H])([H])C3=C([H])C([H])=C([H])C([H])=C3[H])C2=C1[H]

$$$$
ARX
     RDKit          3D

  0  0  0  0  0  0  0  0  0  0999 V3000
M  V30 BEGIN CTAB
M  V30 COUNTS 99 101 0 0 0
M  V30 BEGIN ATOM
M  V30 1 O 35.406000 21.360000 13.500000 0
M  V30 2 O 36.726000 20.106000 6.922000 0
M  V30 3 O 29.663000 22.845000 9.492000 0
M  V30 4 O 38.571000 21.028000 10.321000 0
M  V30 5 O 29.007000 27.910000 10.137000 0
M  V30 6 O 29.964000 26.152000 11.903000 0
M  V30 7 O 29.484000 25.521000 8.344000 0
M  V30 8 N 37.473000 22.224000 13.637000 0
M  V30 9 N 40.277000 27.444000 9.282000 0 CHG=1
M  V30 10 N 40.551000 25.820000 7.754000 0
M  V30 11 N 35.959000 19.023000 15.793000 0 CHG=1
M  V30 12 N 35.153000 18.026000 13.931000 0
M  V30 13 N 22.743000 23.995000 7.609000 0
M  V30 14 N 40.001000 25.304000 9.965000 0
M  V30 15 N 37.400000 18.134000 14.202000 0
M  V30 16 N 23.171000 26.369000 7.556000 0
M  V30 17 N 31.846000 23.418000 9.594000 0
M  V30 18 N 25.355000 27.237000 7.945000 0
M  V30 19 N 25.780000 23.763000 8.272000 0
M  V30 20 N 35.827000 19.374000 8.872000 0
M  V30 21 N 36.350000 21.533000 10.437000 0
M  V30 22 N 27.096000 25.519000 8.428000 0
M  V30 23 C 24.043000 27.381000 7.662000 0
M  V30 24 C 27.027000 24.186000 8.513000 0
M  V30 25 C 38.789000 25.325000 10.768000 0 CFG=2
M  V30 26 C 38.024000 18.842000 13.085000 0 CFG=2
M  V30 27 C 32.231000 22.029000 9.672000 0 CFG=2
M  V30 28 C 32.440000 21.435000 8.283000 0 CFG=2
M  V30 29 C 38.228000 23.925000 11.012000 0 CFG=2
M  V30 30 C 38.034000 18.083000 11.741000 0 CFG=2
M  V30 31 C 33.571000 22.092000 7.487000 0 CFG=2
M  V30 32 C 34.094000 21.160000 6.405000 0 CFG=2
M  V30 33 C 34.401000 19.765000 6.955000 0 CFG=2
M  V30 34 C 36.707000 23.910000 11.219000 0 CFG=2
M  V30 35 C 36.803000 18.372000 10.875000 0 CFG=2
M  V30 36 C 36.322000 21.996000 12.965000 0
M  V30 37 C 40.269000 26.209000 9.007000 0
M  V30 38 C 36.153000 18.392000 14.626000 0
M  V30 39 C 35.764000 19.764000 7.601000 0
M  V30 40 C 30.539000 23.715000 9.538000 0
M  V30 41 C 37.390000 20.716000 10.189000 0
M  V30 42 C 28.328000 26.321000 8.635000 0 CFG=1
M  V30 43 C 28.391000 26.648000 10.103000 0 CFG=1
M  V30 44 C 29.282000 25.603000 10.742000 0 CFG=1
M  V30 45 C 23.581000 25.069000 7.713000 0
M  V30 46 C 30.197000 25.185000 9.559000 0 CFG=2
M  V30 47 C 25.884000 26.006000 8.128000 0
M  V30 48 C 36.113000 22.514000 11.527000 0 CFG=2
M  V30 49 C 37.035000 19.332000 9.692000 0 CFG=2
M  V30 50 C 25.013000 24.841000 8.020000 0
M  V30 51 H 29.523500 28.006000 10.987900 0
M  V30 52 H 29.405000 26.004000 12.718800 0
M  V30 53 H 38.212200 22.738500 13.202400 0
M  V30 54 H 37.585000 21.878100 14.568600 0
M  V30 55 H 40.069100 27.750800 10.210800 0
M  V30 56 H 40.491200 28.113300 8.570600 0
M  V30 57 H 40.549000 24.847800 7.519900 0
M  V30 58 H 36.743500 19.312000 16.341600 0
M  V30 59 H 35.029800 19.204700 16.114800 0
M  V30 60 H 35.294700 17.555200 13.060200 0
M  V30 61 H 23.099200 23.068900 7.733600 0
M  V30 62 H 21.773400 24.134900 7.408300 0
M  V30 63 H 40.669400 24.579600 10.133700 0
M  V30 64 H 37.926500 17.425200 14.671400 0
M  V30 65 H 32.536600 24.141100 9.582000 0
M  V30 66 H 34.972500 19.084400 9.303300 0
M  V30 67 H 35.606700 21.468500 9.771100 0
M  V30 68 H 23.697200 28.308700 7.521500 0
M  V30 69 H 27.799700 23.588300 8.726900 0
M  V30 70 H 38.098100 25.869500 10.292500 0
M  V30 71 H 38.995900 25.746500 11.650900 0
M  V30 72 H 38.972100 19.038100 13.335400 0
M  V30 73 H 37.530300 19.701100 12.950200 0
M  V30 74 H 31.511200 21.517000 10.140700 0
M  V30 75 H 33.083400 21.955500 10.189700 0
M  V30 76 H 31.590400 21.538700 7.765800 0
M  V30 77 H 32.651400 20.463000 8.385500 0
M  V30 78 H 38.663500 23.546100 11.828500 0
M  V30 79 H 38.446700 23.352900 10.221600 0
M  V30 80 H 38.065900 17.101600 11.930500 0
M  V30 81 H 38.851400 18.350800 11.230900 0
M  V30 82 H 34.318800 22.320500 8.110400 0
M  V30 83 H 33.226400 22.927700 7.059300 0
M  V30 84 H 34.931900 21.548000 6.021000 0
M  V30 85 H 33.403800 21.079600 5.685900 0
M  V30 86 H 34.387000 19.101800 6.206700 0
M  V30 87 H 33.710700 19.515800 7.634200 0
M  V30 88 H 36.275300 24.255900 10.386000 0
M  V30 89 H 36.490100 24.517000 11.983600 0
M  V30 90 H 36.099700 18.771700 11.462800 0
M  V30 91 H 36.474600 17.502400 10.506300 0
M  V30 92 H 28.315200 27.152700 8.079900 0
M  V30 93 H 27.481900 26.666500 10.519300 0
M  V30 94 H 28.726100 24.820800 11.023400 0
M  V30 95 H 31.043400 25.716200 9.597900 0
M  V30 96 H 35.126400 22.670900 11.482200 0
M  V30 97 H 37.790600 18.984200 9.136900 0
M  V30 98 H 40.763100 26.502300 7.054400 0
M  V30 99 H 34.224900 18.209000 14.255200 0
M  V30 END ATOM
M  V30 BEGIN BOND
M  V30 1 2 1 36
M  V30 2 2 2 39
M  V30 3 2 3 40
M  V30 4 2 4 41
M  V30 5 1 5 43
M  V30 6 1 6 44
M  V30 7 1 7 42
M  V30 8 1 7 46
M  V30 9 1 8 36
M  V30 10 2 9 37
M  V30 11 1 10 37
M  V30 12 2 11 38
M  V30 13 1 12 38
M  V30 14 1 13 45
M  V30 15 1 14 25
M  V30 16 1 14 37
M  V30 17 1 15 26
M  V30 18 1 15 38
M  V30 19 1 16 23
M  V30 20 2 16 45
M  V30 21 1 17 27
M  V30 22 1 17 40
M  V30 23 2 18 23
M  V30 24 1 18 47
M  V30 25 2 19 24
M  V30 26 1 19 50
M  V30 27 1 20 39
M  V30 28 1 20 49
M  V30 29 1 21 41
M  V30 30 1 21 48
M  V30 31 1 22 24
M  V30 32 1 22 42
M  V30 33 1 22 47
M  V30 34 1 25 29
M  V30 35 1 26 30
M  V30 36 1 27 28
M  V30 37 1 28 31
M  V30 38 1 29 34
M  V30 39 1 30 35
M  V30 40 1 31 32
M  V30 41 1 32 33
M  V30 42 1 33 39
M  V30 43 1 34 48
M  V30 44 1 35 49
M  V30 45 1 36 48
M  V30 46 1 40 46
M  V30 47 1 41 49
M  V30 48 1 42 43
M  V30 49 1 43 44
M  V30 50 1 44 46
M  V30 51 1 45 50
M  V30 52 2 47 50
M  V30 53 1 5 51
M  V30 54 1 6 52
M  V30 55 1 8 53
M  V30 56 1 8 54
M  V30 57 1 9 55
M  V30 58 1 9 56
M  V30 59 1 10 57
M  V30 60 1 11 58
M  V30 61 1 11 59
M  V30 62 1 12 60
M  V30 63 1 13 61
M  V30 64 1 13 62
M  V30 65 1 14 63
M  V30 66 1 15 64
M  V30 67 1 17 65
M  V30 68 1 20 66
M  V30 69 1 21 67
M  V30 70 1 23 68
M  V30 71 1 24 69
M  V30 72 1 25 70 CFG=3
M  V30 73 1 25 71
M  V30 74 1 26 72 CFG=1
M  V30 75 1 26 73
M  V30 76 1 27 74 CFG=1
M  V30 77 1 27 75
M  V30 78 1 28 76 CFG=3
M  V30 79 1 28 77
M  V30 80 1 29 78 CFG=1
M  V30 81 1 29 79
M  V30 82 1 30 80 CFG=1
M  V30 83 1 30 81
M  V30 84 1 31 82 CFG=1
M  V30 85 1 31 83
M  V30 86 1 32 84 CFG=3
M  V30 87 1 32 85
M  V30 88 1 33 86 CFG=3
M  V30 89 1 33 87
M  V30 90 1 34 88 CFG=3
M  V30 91 1 34 89
M  V30 92 1 35 90 CFG=1
M  V30 93 1 35 91
M  V30 94 1 42 92 CFG=3
M  V30 95 1 43 93 CFG=1
M  V30 96 1 44 94 CFG=1
M  V30 97 1 46 95 CFG=1
M  V30 98 1 48 96 CFG=1
M  V30 99 1 49 97 CFG=3
M  V30 100 1 10 98
M  V30 101 1 12 99
M  V30 END BOND
M  V30 END CTAB
M  END
>  <Ligand_Instance>  (178) 
3BWJ_ARX_A_351

>  <Dataset>  (178) 
PDB

>  <PDB_ID>  (178) 
3BWJ

>  <Chain>  (178) 
A

>  <Resi>  (178) 
351

>  <Num_Resolved_Atoms>  (178) 
50

>  <Num_H_Atoms_ProtBoundConf>  (178) 
49

>  <Pocket>  (178) 
A

>  <SMILES>  (178) 
[H]/N=C(\N)/NCCC[C@H](C(=O)N)NC(=O)[C@@H](CCCN/C(=N/[H])/N)NC(=O)CCCCCNC(=O)[C@@H]1[C@H]([C@H]([C@@H](O1)n2cnc3c2ncnc3N)O)O

>  <Name>  (178) 
(2S,3S,4R,5R)-5-(6-amino-9H-purin-9-yl)-N-(6-{[(1R)-4-carbamimidamido-1-{[(1R)-4-carbamimidamido-1-carbamoylbutyl]carbamoyl}butyl]amino}-6-oxohexyl)-3,4-dihydroxytetrahydrofuran-2-carboxamide

>  <Num_Heavy_Atoms>  (178) 
50

>  <Num_Not_Resolved_Atoms>  (178) 
0

>  <ATP_Site>  (178) 
True

>  <Peripheral>  (178) 
True

>  <Standardized_SMILES>  (178) 
[H]O[C@@]1([H])[C@@]([H])(O[H])[C@]([H])(N2C([H])=NC3=C2N=C([H])N=C3N([H])[H])O[C@]1([H])C(=O)N([H])C([H])([H])C([H])([H])C([H])([H])C([H])([H])C([H])([H])C(=O)N([H])[C@@]([H])(C(=O)N([H])[C@@]([H])(C(=O)N([H])[H])C([H])([H])C([H])([H])C([H])([H])N([H])C(N([H])[H])=[N+]([H])[H])C([H])([H])C([H])([H])C([H])([H])N([H])C(N([H])[H])=[N+]([H])[H]

$$$$
ARX
     RDKit          3D

  0  0  0  0  0  0  0  0  0  0999 V3000
M  V30 BEGIN CTAB
M  V30 COUNTS 99 101 0 0 0
M  V30 BEGIN ATOM
M  V30 1 O 33.548000 42.035000 30.833000 0
M  V30 2 O 34.561000 37.581000 33.146000 0
M  V30 3 O 42.492000 35.853000 31.663000 0
M  V30 4 O 31.422000 37.911000 31.866000 0
M  V30 5 O 40.789000 39.191000 27.590000 0
M  V30 6 O 42.829000 38.836000 29.214000 0
M  V30 7 O 41.898000 35.915000 28.147000 0
M  V30 8 N 31.980000 43.020000 32.112000 0
M  V30 9 N 25.149000 38.483000 29.752000 0 CHG=1
M  V30 10 N 25.976000 39.872000 31.341000 0
M  V30 11 N 35.419000 38.542000 25.075000 0 CHG=1
M  V30 12 N 33.864000 36.946000 24.759000 0
M  V30 13 N 36.047000 33.391000 25.560000 0
M  V30 14 N 27.185000 39.504000 29.420000 0
M  V30 15 N 34.920000 37.061000 26.761000 0
M  V30 16 N 37.235000 34.933000 24.178000 0
M  V30 17 N 40.764000 34.880000 30.576000 0
M  V30 18 N 39.129000 36.224000 24.983000 0
M  V30 19 N 38.052000 34.304000 27.766000 0
M  V30 20 N 34.783000 37.917000 30.977000 0
M  V30 21 N 32.489000 39.617000 30.865000 0
M  V30 22 N 39.680000 35.828000 27.341000 0
M  V30 23 C 38.243000 35.837000 24.028000 0
M  V30 24 C 39.108000 34.998000 28.259000 0
M  V30 25 C 28.148000 40.504000 29.827000 0 CFG=2
M  V30 26 C 34.225000 35.923000 27.305000 0 CFG=2
M  V30 27 C 40.044000 34.411000 31.763000 0 CFG=2
M  V30 28 C 38.547000 34.747000 31.745000 0 CFG=2
M  V30 29 C 29.426000 39.995000 30.460000 0 CFG=2
M  V30 30 C 34.179000 36.013000 28.800000 0 CFG=2
M  V30 31 C 38.108000 35.946000 32.611000 0 CFG=2
M  V30 32 C 37.583000 37.055000 31.716000 0 CFG=2
M  V30 33 C 36.767000 38.127000 32.444000 0 CFG=2
M  V30 34 C 30.570000 40.951000 30.171000 0 CFG=2
M  V30 35 C 33.216000 37.114000 29.224000 0 CFG=2
M  V30 36 C 32.455000 41.986000 31.399000 0
M  V30 37 C 26.084000 39.267000 30.156000 0
M  V30 38 C 34.705000 37.508000 25.522000 0
M  V30 39 C 35.282000 37.865000 32.203000 0
M  V30 40 C 41.837000 35.702000 30.640000 0
M  V30 41 C 32.349000 38.337000 31.186000 0
M  V30 42 C 40.881000 36.719000 27.520000 0 CFG=1
M  V30 43 C 40.681000 37.982000 28.378000 0 CFG=1
M  V30 44 C 41.745000 37.917000 29.457000 0 CFG=1
M  V30 45 C 37.037000 34.314000 25.368000 0
M  V30 46 C 42.282000 36.484000 29.418000 0 CFG=2
M  V30 47 C 39.022000 35.670000 26.208000 0
M  V30 48 C 31.625000 40.729000 31.256000 0 CFG=2
M  V30 49 C 33.432000 37.409000 30.699000 0 CFG=2
M  V30 50 C 37.945000 34.672000 26.484000 0
M  V30 51 H 39.931500 39.702500 27.645100 0
M  V30 52 H 42.655900 39.339200 28.367300 0
M  V30 53 H 31.088900 42.950700 32.560500 0
M  V30 54 H 32.517400 43.859300 32.194500 0
M  V30 55 H 25.226500 38.028000 28.864900 0
M  V30 56 H 24.344100 38.328000 30.324800 0
M  V30 57 H 26.701400 40.482600 31.658600 0
M  V30 58 H 36.083500 38.987500 25.675000 0
M  V30 59 H 35.289900 38.871800 24.139800 0
M  V30 60 H 33.327300 36.170500 25.091500 0
M  V30 61 H 33.736900 37.277900 23.824300 0
M  V30 62 H 35.934500 32.957100 26.453900 0
M  V30 63 H 35.435400 33.149700 24.806500 0
M  V30 64 H 27.339700 38.982300 28.581000 0
M  V30 65 H 40.447600 34.578500 29.676600 0
M  V30 66 H 35.329700 38.304900 30.234900 0
M  V30 67 H 33.274600 39.846700 30.290500 0
M  V30 68 H 38.340600 36.257400 23.125900 0
M  V30 69 H 39.433900 34.909800 29.200300 0
M  V30 70 H 27.700000 41.105300 30.488700 0
M  V30 71 H 28.400200 41.030800 29.015200 0
M  V30 72 H 34.702500 35.085700 27.038700 0
M  V30 73 H 33.291800 35.903000 26.946100 0
M  V30 74 H 40.453900 34.836100 32.570000 0
M  V30 75 H 40.144500 33.417800 31.822000 0
M  V30 76 H 38.049400 33.940900 32.065200 0
M  V30 77 H 38.289700 34.943500 30.798900 0
M  V30 78 H 29.645000 39.094400 30.084400 0
M  V30 79 H 29.298500 39.921600 31.449100 0
M  V30 80 H 35.093300 36.220200 29.147900 0
M  V30 81 H 33.869600 35.139300 29.175300 0
M  V30 82 H 38.890700 36.283000 33.134300 0
M  V30 83 H 37.386500 35.656000 33.239800 0
M  V30 84 H 37.001100 36.641800 31.015600 0
M  V30 85 H 38.364800 37.500500 31.279600 0
M  V30 86 H 37.010100 39.030900 32.092000 0
M  V30 87 H 36.960200 38.088100 33.424400 0
M  V30 88 H 30.243100 41.895700 30.198300 0
M  V30 89 H 30.958700 40.758700 29.269900 0
M  V30 90 H 32.274100 36.812800 29.075500 0
M  V30 91 H 33.390700 37.939100 28.686700 0
M  V30 92 H 41.207800 36.997000 26.616700 0
M  V30 93 H 39.777600 37.948600 28.805500 0
M  V30 94 H 41.335500 38.102600 30.350200 0
M  V30 95 H 43.280500 36.534300 29.437900 0
M  V30 96 H 31.176900 40.519300 32.125100 0
M  V30 97 H 33.330100 36.546000 31.193800 0
M  V30 98 H 25.169700 39.714600 31.911100 0
M  V30 99 H 35.589300 37.534400 27.333600 0
M  V30 END ATOM
M  V30 BEGIN BOND
M  V30 1 2 1 36
M  V30 2 2 2 39
M  V30 3 2 3 40
M  V30 4 2 4 41
M  V30 5 1 5 43
M  V30 6 1 6 44
M  V30 7 1 7 42
M  V30 8 1 7 46
M  V30 9 1 8 36
M  V30 10 2 9 37
M  V30 11 1 10 37
M  V30 12 2 11 38
M  V30 13 1 12 38
M  V30 14 1 13 45
M  V30 15 1 14 25
M  V30 16 1 14 37
M  V30 17 1 15 26
M  V30 18 1 15 38
M  V30 19 1 16 23
M  V30 20 2 16 45
M  V30 21 1 17 27
M  V30 22 1 17 40
M  V30 23 2 18 23
M  V30 24 1 18 47
M  V30 25 2 19 24
M  V30 26 1 19 50
M  V30 27 1 20 39
M  V30 28 1 20 49
M  V30 29 1 21 41
M  V30 30 1 21 48
M  V30 31 1 22 24
M  V30 32 1 22 42
M  V30 33 1 22 47
M  V30 34 1 25 29
M  V30 35 1 26 30
M  V30 36 1 27 28
M  V30 37 1 28 31
M  V30 38 1 29 34
M  V30 39 1 30 35
M  V30 40 1 31 32
M  V30 41 1 32 33
M  V30 42 1 33 39
M  V30 43 1 34 48
M  V30 44 1 35 49
M  V30 45 1 36 48
M  V30 46 1 40 46
M  V30 47 1 41 49
M  V30 48 1 42 43
M  V30 49 1 43 44
M  V30 50 1 44 46
M  V30 51 1 45 50
M  V30 52 2 47 50
M  V30 53 1 5 51
M  V30 54 1 6 52
M  V30 55 1 8 53
M  V30 56 1 8 54
M  V30 57 1 9 55
M  V30 58 1 9 56
M  V30 59 1 10 57
M  V30 60 1 11 58
M  V30 61 1 11 59
M  V30 62 1 12 60
M  V30 63 1 12 61
M  V30 64 1 13 62
M  V30 65 1 13 63
M  V30 66 1 14 64
M  V30 67 1 17 65
M  V30 68 1 20 66
M  V30 69 1 21 67
M  V30 70 1 23 68
M  V30 71 1 24 69
M  V30 72 1 25 70 CFG=1
M  V30 73 1 25 71
M  V30 74 1 26 72 CFG=1
M  V30 75 1 26 73
M  V30 76 1 27 74 CFG=1
M  V30 77 1 27 75
M  V30 78 1 28 76 CFG=1
M  V30 79 1 28 77
M  V30 80 1 29 78 CFG=3
M  V30 81 1 29 79
M  V30 82 1 30 80 CFG=1
M  V30 83 1 30 81
M  V30 84 1 31 82 CFG=1
M  V30 85 1 31 83
M  V30 86 1 32 84 CFG=3
M  V30 87 1 32 85
M  V30 88 1 33 86 CFG=3
M  V30 89 1 33 87
M  V30 90 1 34 88 CFG=3
M  V30 91 1 34 89
M  V30 92 1 35 90 CFG=1
M  V30 93 1 35 91
M  V30 94 1 42 92 CFG=3
M  V30 95 1 43 93 CFG=1
M  V30 96 1 44 94 CFG=1
M  V30 97 1 46 95 CFG=3
M  V30 98 1 48 96 CFG=1
M  V30 99 1 49 97 CFG=1
M  V30 100 1 10 98
M  V30 101 1 15 99
M  V30 END BOND
M  V30 END CTAB
M  END
>  <Ligand_Instance>  (179) 
3BWJ_ARX_A_352

>  <Dataset>  (179) 
PDB

>  <PDB_ID>  (179) 
3BWJ

>  <Chain>  (179) 
A

>  <Resi>  (179) 
352

>  <Num_Resolved_Atoms>  (179) 
50

>  <Num_H_Atoms_ProtBoundConf>  (179) 
49

>  <Pocket>  (179) 
G

>  <SMILES>  (179) 
[H]/N=C(\N)/NCCC[C@H](C(=O)N)NC(=O)[C@@H](CCCN/C(=N/[H])/N)NC(=O)CCCCCNC(=O)[C@@H]1[C@H]([C@H]([C@@H](O1)n2cnc3c2ncnc3N)O)O

>  <Name>  (179) 
(2S,3S,4R,5R)-5-(6-amino-9H-purin-9-yl)-N-(6-{[(1R)-4-carbamimidamido-1-{[(1R)-4-carbamimidamido-1-carbamoylbutyl]carbamoyl}butyl]amino}-6-oxohexyl)-3,4-dihydroxytetrahydrofuran-2-carboxamide

>  <Num_Heavy_Atoms>  (179) 
50

>  <Num_Not_Resolved_Atoms>  (179) 
0

>  <ATP_Site>  (179) 
True

>  <Peripheral>  (179) 
True

>  <Standardized_SMILES>  (179) 
[H]O[C@@]1([H])[C@@]([H])(O[H])[C@]([H])(N2C([H])=NC3=C2N=C([H])N=C3N([H])[H])O[C@]1([H])C(=O)N([H])C([H])([H])C([H])([H])C([H])([H])C([H])([H])C([H])([H])C(=O)N([H])[C@@]([H])(C(=O)N([H])[C@@]([H])(C(=O)N([H])[H])C([H])([H])C([H])([H])C([H])([H])N([H])C(N([H])[H])=[N+]([H])[H])C([H])([H])C([H])([H])C([H])([H])N([H])C(N([H])[H])=[N+]([H])[H]

$$$$
ATP
     RDKit          3D

  0  0  0  0  0  0  0  0  0  0999 V3000
M  V30 BEGIN CTAB
M  V30 COUNTS 43 45 0 0 0
M  V30 BEGIN ATOM
M  V30 1 P 27.691000 11.242000 32.664000 0 CFG=2
M  V30 2 P 26.311000 11.562000 35.306000 0 CFG=2
M  V30 3 P 23.543000 10.615000 35.104000 0 CFG=1
M  V30 4 O 29.028000 10.574000 32.878000 0
M  V30 5 O 27.035000 10.759000 31.391000 0 CHG=-1
M  V30 6 O 27.835000 12.726000 32.738000 0 CHG=-1
M  V30 7 O 25.836000 12.936000 34.973000 0
M  V30 8 O 27.370000 11.366000 36.349000 0 CHG=-1
M  V30 9 O 22.596000 11.726000 35.472000 0
M  V30 10 O 23.664000 10.233000 33.664000 0 CHG=-1
M  V30 11 O 21.664000 4.637000 34.230000 0
M  V30 12 O 23.174000 6.657000 33.044000 0
M  V30 13 O 26.702000 10.759000 33.905000 0
M  V30 14 O 24.987000 10.783000 35.823000 0
M  V30 15 O 23.023000 9.299000 35.872000 0
M  V30 16 O 21.913000 6.759000 36.418000 0
M  V30 17 N 15.430000 9.063000 36.480000 0
M  V30 18 N 15.673000 6.720000 36.568000 0
M  V30 19 N 17.756000 5.651000 36.294000 0
M  V30 20 N 18.516000 9.095000 35.951000 0
M  V30 21 N 19.657000 7.182000 35.882000 0
M  V30 22 C 23.825000 8.125000 35.830000 0 CFG=2
M  V30 23 C 16.435000 5.617000 36.515000 0
M  V30 24 C 19.732000 8.527000 35.787000 0
M  V30 25 C 21.172000 5.981000 34.322000 0 CFG=2
M  V30 26 C 22.280000 6.990000 34.112000 0 CFG=1
M  V30 27 C 20.768000 6.216000 35.765000 0 CFG=1
M  V30 28 C 16.202000 7.960000 36.415000 0
M  V30 29 C 22.968000 6.925000 35.470000 0 CFG=2
M  V30 30 C 18.403000 6.833000 36.116000 0
M  V30 31 C 17.640000 8.087000 36.165000 0
M  V30 32 H 22.060900 4.488600 33.324200 0
M  V30 33 H 22.662000 6.597400 32.187100 0
M  V30 34 H 15.840000 9.967800 36.364500 0
M  V30 35 H 14.447300 8.976600 36.643700 0
M  V30 36 H 24.242800 7.976900 36.726400 0
M  V30 37 H 24.542300 8.238100 35.142500 0
M  V30 38 H 15.996500 4.728000 36.646600 0
M  V30 39 H 20.575900 9.036000 35.617600 0
M  V30 40 H 20.408200 6.137200 33.695700 0
M  V30 41 H 21.893100 7.900400 33.965600 0
M  V30 42 H 20.511700 5.349000 36.192300 0
M  V30 43 H 23.544000 6.107900 35.492900 0
M  V30 END ATOM
M  V30 BEGIN BOND
M  V30 1 2 1 4
M  V30 2 1 1 5 CFG=3
M  V30 3 1 1 6
M  V30 4 1 1 13
M  V30 5 2 2 7
M  V30 6 1 2 8 CFG=1
M  V30 7 1 2 13
M  V30 8 1 2 14
M  V30 9 2 3 9
M  V30 10 1 3 10 CFG=3
M  V30 11 1 3 14
M  V30 12 1 3 15
M  V30 13 1 11 25
M  V30 14 1 12 26
M  V30 15 1 15 22
M  V30 16 1 16 27
M  V30 17 1 16 29
M  V30 18 1 17 28
M  V30 19 1 18 23
M  V30 20 2 18 28
M  V30 21 2 19 23
M  V30 22 1 19 30
M  V30 23 2 20 24
M  V30 24 1 20 31
M  V30 25 1 21 24
M  V30 26 1 21 27
M  V30 27 1 21 30
M  V30 28 1 22 29
M  V30 29 1 25 26
M  V30 30 1 25 27
M  V30 31 1 26 29
M  V30 32 1 28 31
M  V30 33 2 30 31
M  V30 34 1 29 43 CFG=3
M  V30 35 1 27 42 CFG=1
M  V30 36 1 26 41 CFG=3
M  V30 37 1 25 40 CFG=3
M  V30 38 1 11 32
M  V30 39 1 12 33
M  V30 40 1 17 34
M  V30 41 1 17 35
M  V30 42 1 22 36 CFG=1
M  V30 43 1 22 37
M  V30 44 1 23 38
M  V30 45 1 24 39
M  V30 END BOND
M  V30 END CTAB
M  END
>  <Ligand_Instance>  (180) 
3FJQ_ATP_E_403

>  <Dataset>  (180) 
PDB

>  <PDB_ID>  (180) 
3FJQ

>  <Chain>  (180) 
E

>  <Resi>  (180) 
403

>  <Num_Resolved_Atoms>  (180) 
31

>  <Num_H_Atoms_ProtBoundConf>  (180) 
12

>  <Pocket>  (180) 
A

>  <SMILES>  (180) 
c1nc(c2c(n1)n(cn2)[C@H]3[C@@H]([C@@H]([C@H](O3)CO[P@@](=O)(O)O[P@](=O)(O)OP(=O)(O)O)O)O)N

>  <Name>  (180) 
ADENOSINE-5'-TRIPHOSPHATE

>  <Num_Heavy_Atoms>  (180) 
31

>  <Num_Not_Resolved_Atoms>  (180) 
0

>  <ATP_Site>  (180) 
True

>  <Peripheral>  (180) 
False

>  <Standardized_SMILES>  (180) 
[H]O[C@@]1([H])[C@@]([H])(O[H])[C@]([H])(N2C([H])=NC3=C2N=C([H])N=C3N([H])[H])O[C@]1([H])C([H])([H])O[P@](=O)([O-])O[P@@](=O)([O-])OP(=O)([O-])[O-]

$$$$
ATP
     RDKit          3D

  0  0  0  0  0  0  0  0  0  0999 V3000
M  V30 BEGIN CTAB
M  V30 COUNTS 43 45 0 0 0
M  V30 BEGIN ATOM
M  V30 1 P 27.654000 28.703000 16.074000 0 CFG=2
M  V30 2 P 26.311000 28.413000 13.602000 0 CFG=2
M  V30 3 P 23.757000 29.497000 13.702000 0 CFG=1
M  V30 4 O 29.039000 29.306000 16.009000 0
M  V30 5 O 26.994000 29.135000 17.368000 0 CHG=-1
M  V30 6 O 27.730000 27.191000 16.022000 0 CHG=-1
M  V30 7 O 25.797000 27.060000 13.953000 0
M  V30 8 O 27.419000 28.336000 12.626000 0 CHG=-1
M  V30 9 O 22.879000 28.307000 13.546000 0
M  V30 10 O 23.882000 29.846000 15.143000 0 CHG=-1
M  V30 11 O 21.649000 35.392000 14.623000 0
M  V30 12 O 23.252000 33.425000 15.727000 0
M  V30 13 O 26.769000 29.327000 14.875000 0
M  V30 14 O 25.205000 29.377000 12.975000 0
M  V30 15 O 23.107000 30.690000 12.898000 0
M  V30 16 O 21.896000 33.264000 12.397000 0
M  V30 17 N 15.495000 30.975000 12.302000 0
M  V30 18 N 15.736000 33.273000 12.273000 0
M  V30 19 N 17.845000 34.404000 12.572000 0
M  V30 20 N 18.525000 30.897000 12.827000 0
M  V30 21 N 19.668000 32.832000 12.941000 0
M  V30 22 C 23.837000 31.927000 12.868000 0 CFG=2
M  V30 23 C 16.531000 34.345000 12.363000 0
M  V30 24 C 19.695000 31.456000 12.999000 0
M  V30 25 C 21.211000 34.046000 14.531000 0 CFG=2
M  V30 26 C 22.345000 33.037000 14.694000 0 CFG=1
M  V30 27 C 20.775000 33.781000 13.087000 0 CFG=1
M  V30 28 C 16.286000 32.047000 12.404000 0
M  V30 29 C 22.996000 33.094000 13.320000 0 CFG=2
M  V30 30 C 18.358000 33.169000 12.705000 0
M  V30 31 C 17.667000 31.973000 12.637000 0
M  V30 32 H 22.066300 35.546300 15.518600 0
M  V30 33 H 22.760400 33.489300 16.595400 0
M  V30 34 H 15.881700 30.057600 12.395800 0
M  V30 35 H 14.516300 31.090100 12.131900 0
M  V30 36 H 24.146400 32.096000 11.932200 0
M  V30 37 H 24.629900 31.848000 13.472100 0
M  V30 38 H 16.073500 35.228000 12.258400 0
M  V30 39 H 20.532100 30.932600 13.158000 0
M  V30 40 H 20.467200 33.862200 15.173700 0
M  V30 41 H 21.979600 32.123400 14.872100 0
M  V30 42 H 20.511400 34.649200 12.666600 0
M  V30 43 H 23.562700 33.917000 13.280400 0
M  V30 END ATOM
M  V30 BEGIN BOND
M  V30 1 2 1 4
M  V30 2 1 1 5 CFG=1
M  V30 3 1 1 6
M  V30 4 1 1 13
M  V30 5 2 2 7
M  V30 6 1 2 8 CFG=3
M  V30 7 1 2 13
M  V30 8 1 2 14
M  V30 9 2 3 9
M  V30 10 1 3 10 CFG=1
M  V30 11 1 3 14
M  V30 12 1 3 15
M  V30 13 1 11 25
M  V30 14 1 12 26
M  V30 15 1 15 22
M  V30 16 1 16 27
M  V30 17 1 16 29
M  V30 18 1 17 28
M  V30 19 1 18 23
M  V30 20 2 18 28
M  V30 21 2 19 23
M  V30 22 1 19 30
M  V30 23 2 20 24
M  V30 24 1 20 31
M  V30 25 1 21 24
M  V30 26 1 21 27
M  V30 27 1 21 30
M  V30 28 1 22 29
M  V30 29 1 25 26
M  V30 30 1 25 27
M  V30 31 1 26 29
M  V30 32 1 28 31
M  V30 33 2 30 31
M  V30 34 1 29 43 CFG=1
M  V30 35 1 27 42 CFG=3
M  V30 36 1 26 41 CFG=1
M  V30 37 1 25 40 CFG=1
M  V30 38 1 11 32
M  V30 39 1 12 33
M  V30 40 1 17 34
M  V30 41 1 17 35
M  V30 42 1 22 36 CFG=3
M  V30 43 1 22 37
M  V30 44 1 23 38
M  V30 45 1 24 39
M  V30 END BOND
M  V30 END CTAB
M  END
>  <Ligand_Instance>  (181) 
3QAL_ATP_E_351

>  <Dataset>  (181) 
PDB

>  <PDB_ID>  (181) 
3QAL

>  <Chain>  (181) 
E

>  <Resi>  (181) 
351

>  <Num_Resolved_Atoms>  (181) 
31

>  <Num_H_Atoms_ProtBoundConf>  (181) 
12

>  <Pocket>  (181) 
A

>  <SMILES>  (181) 
c1nc(c2c(n1)n(cn2)[C@H]3[C@@H]([C@@H]([C@H](O3)CO[P@@](=O)(O)O[P@](=O)(O)OP(=O)(O)O)O)O)N

>  <Name>  (181) 
ADENOSINE-5'-TRIPHOSPHATE

>  <Num_Heavy_Atoms>  (181) 
31

>  <Num_Not_Resolved_Atoms>  (181) 
0

>  <ATP_Site>  (181) 
True

>  <Peripheral>  (181) 
False

>  <Standardized_SMILES>  (181) 
[H]O[C@@]1([H])[C@@]([H])(O[H])[C@]([H])(N2C([H])=NC3=C2N=C([H])N=C3N([H])[H])O[C@]1([H])C([H])([H])O[P@](=O)([O-])O[P@@](=O)([O-])OP(=O)([O-])[O-]

$$$$
ATP
     RDKit          3D

  0  0  0  0  0  0  0  0  0  0999 V3000
M  V30 BEGIN CTAB
M  V30 COUNTS 43 45 0 0 0
M  V30 BEGIN ATOM
M  V30 1 P -13.495000 -1.980000 19.749000 0 CFG=2
M  V30 2 P -12.870000 -1.743000 17.009000 0 CFG=2
M  V30 3 P -10.398000 -2.761000 16.328000 0 CFG=1
M  V30 4 O -14.811000 -2.620000 20.182000 0
M  V30 5 O -12.457000 -2.279000 20.819000 0 CHG=-1
M  V30 6 O -13.687000 -0.481000 19.594000 0 CHG=-1
M  V30 7 O -12.265000 -0.420000 17.233000 0
M  V30 8 O -14.225000 -1.620000 16.405000 0 CHG=-1
M  V30 9 O -9.640000 -1.545000 15.947000 0
M  V30 10 O -10.096000 -3.070000 17.744000 0 CHG=-1
M  V30 11 O -7.959000 -8.538000 16.696000 0
M  V30 12 O -9.225000 -6.526000 18.119000 0
M  V30 13 O -12.977000 -2.673000 18.371000 0
M  V30 14 O -12.001000 -2.678000 16.059000 0
M  V30 15 O -9.963000 -3.935000 15.364000 0
M  V30 16 O -8.902000 -6.532000 14.538000 0
M  V30 17 N -2.808000 -4.297000 12.487000 0
M  V30 18 N -3.052000 -6.594000 12.586000 0
M  V30 19 N -4.980000 -7.695000 13.536000 0
M  V30 20 N -5.555000 -4.173000 13.848000 0
M  V30 21 N -6.614000 -6.088000 14.371000 0
M  V30 22 C -10.642000 -5.188000 15.521000 0 CFG=2
M  V30 23 C -3.789000 -7.657000 12.944000 0
M  V30 24 C -6.622000 -4.712000 14.380000 0
M  V30 25 C -7.599000 -7.198000 16.411000 0 CFG=2
M  V30 26 C -8.659000 -6.192000 16.854000 0 CFG=1
M  V30 27 C -7.622000 -7.016000 14.888000 0 CFG=1
M  V30 28 C -3.538000 -5.358000 12.837000 0
M  V30 29 C -9.683000 -6.326000 15.737000 0 CFG=2
M  V30 30 C -5.432000 -6.449000 13.769000 0
M  V30 31 C -4.791000 -5.262000 13.458000 0
M  V30 32 H -8.538100 -8.561500 17.511000 0
M  V30 33 H -8.504700 -6.543000 18.812400 0
M  V30 34 H -3.150100 -3.374200 12.664200 0
M  V30 35 H -1.918900 -4.424800 12.047600 0
M  V30 36 H -11.178300 -5.369900 14.696800 0
M  V30 37 H -11.253500 -5.127100 16.309900 0
M  V30 38 H -3.385300 -8.547900 12.736100 0
M  V30 39 H -7.374600 -4.173200 14.758600 0
M  V30 40 H -6.701900 -6.973100 16.791200 0
M  V30 41 H -8.279100 -5.267200 16.872700 0
M  V30 42 H -7.487700 -7.908100 14.456500 0
M  V30 43 H -10.217700 -7.154200 15.904600 0
M  V30 END ATOM
M  V30 BEGIN BOND
M  V30 1 2 1 4
M  V30 2 1 1 5 CFG=1
M  V30 3 1 1 6
M  V30 4 1 1 13
M  V30 5 2 2 7
M  V30 6 1 2 8 CFG=3
M  V30 7 1 2 13
M  V30 8 1 2 14
M  V30 9 2 3 9
M  V30 10 1 3 10 CFG=1
M  V30 11 1 3 14
M  V30 12 1 3 15
M  V30 13 1 11 25
M  V30 14 1 12 26
M  V30 15 1 15 22
M  V30 16 1 16 27
M  V30 17 1 16 29
M  V30 18 1 17 28
M  V30 19 1 18 23
M  V30 20 2 18 28
M  V30 21 2 19 23
M  V30 22 1 19 30
M  V30 23 2 20 24
M  V30 24 1 20 31
M  V30 25 1 21 24
M  V30 26 1 21 27
M  V30 27 1 21 30
M  V30 28 1 22 29
M  V30 29 1 25 26
M  V30 30 1 25 27
M  V30 31 1 26 29
M  V30 32 1 28 31
M  V30 33 2 30 31
M  V30 34 1 29 43 CFG=1
M  V30 35 1 27 42 CFG=3
M  V30 36 1 26 41 CFG=1
M  V30 37 1 25 40 CFG=1
M  V30 38 1 11 32
M  V30 39 1 12 33
M  V30 40 1 17 34
M  V30 41 1 17 35
M  V30 42 1 22 36 CFG=3
M  V30 43 1 22 37
M  V30 44 1 23 38
M  V30 45 1 24 39
M  V30 END BOND
M  V30 END CTAB
M  END
>  <Ligand_Instance>  (182) 
3QAM_ATP_E_351

>  <Dataset>  (182) 
PDB

>  <PDB_ID>  (182) 
3QAM

>  <Chain>  (182) 
E

>  <Resi>  (182) 
351

>  <Num_Resolved_Atoms>  (182) 
31

>  <Num_H_Atoms_ProtBoundConf>  (182) 
12

>  <Pocket>  (182) 
A

>  <SMILES>  (182) 
c1nc(c2c(n1)n(cn2)[C@H]3[C@@H]([C@@H]([C@H](O3)CO[P@@](=O)(O)O[P@](=O)(O)OP(=O)(O)O)O)O)N

>  <Name>  (182) 
ADENOSINE-5'-TRIPHOSPHATE

>  <Num_Heavy_Atoms>  (182) 
31

>  <Num_Not_Resolved_Atoms>  (182) 
0

>  <ATP_Site>  (182) 
True

>  <Peripheral>  (182) 
False

>  <Standardized_SMILES>  (182) 
[H]O[C@@]1([H])[C@@]([H])(O[H])[C@]([H])(N2C([H])=NC3=C2N=C([H])N=C3N([H])[H])O[C@]1([H])C([H])([H])O[P@](=O)([O-])O[P@@](=O)([O-])OP(=O)([O-])[O-]

$$$$
ATP
     RDKit          3D

  0  0  0  0  0  0  0  0  0  0999 V3000
M  V30 BEGIN CTAB
M  V30 COUNTS 43 45 0 0 0
M  V30 BEGIN ATOM
M  V30 1 P -20.496000 -8.655000 0.550000 0 CFG=2
M  V30 2 P -22.423000 -10.744000 0.267000 0 CFG=2
M  V30 3 P -24.850000 -9.613000 -0.362000 0 CFG=1
M  V30 4 O -19.273000 -8.956000 -0.301000 0
M  V30 5 O -20.969000 -7.231000 0.621000 0 CHG=-1
M  V30 6 O -20.400000 -9.267000 1.915000 0 CHG=-1
M  V30 7 O -22.506000 -10.787000 1.769000 0
M  V30 8 O -21.833000 -11.831000 -0.594000 0 CHG=-1
M  V30 9 O -25.789000 -9.732000 0.603000 0
M  V30 10 O -24.156000 -8.449000 -0.330000 0 CHG=-1
M  V30 11 O -26.885000 -9.103000 -6.239000 0
M  V30 12 O -25.609000 -7.790000 -4.768000 0
M  V30 13 O -21.769000 -9.341000 -0.182000 0
M  V30 14 O -23.829000 -10.726000 -0.301000 0
M  V30 15 O -25.499000 -10.013000 -1.665000 0
M  V30 16 O -26.650000 -10.874000 -3.958000 0
M  V30 17 N -32.906000 -9.734000 -1.670000 0
M  V30 18 N -32.871000 -9.862000 -3.962000 0
M  V30 19 N -30.882000 -10.097000 -5.097000 0
M  V30 20 N -29.984000 -10.020000 -1.801000 0
M  V30 21 N -28.915000 -10.223000 -3.676000 0
M  V30 22 C -24.758000 -10.176000 -2.782000 0 CFG=2
M  V30 23 C -32.198000 -9.981000 -5.092000 0
M  V30 24 C -28.783000 -10.160000 -2.365000 0
M  V30 25 C -27.446000 -8.985000 -5.029000 0 CFG=2
M  V30 26 C -26.334000 -8.663000 -4.087000 0 CFG=1
M  V30 27 C -27.803000 -10.371000 -4.618000 0 CFG=1
M  V30 28 C -32.223000 -9.861000 -2.807000 0
M  V30 29 C -25.625000 -9.994000 -4.009000 0 CFG=2
M  V30 30 C -30.193000 -10.109000 -3.959000 0
M  V30 31 C -30.869000 -9.994000 -2.785000 0
M  V30 32 H -26.081900 -8.509700 -6.293300 0
M  V30 33 H -26.169100 -6.991400 -4.988300 0
M  V30 34 H -32.423300 -9.732400 -0.794200 0
M  V30 35 H -33.901300 -9.640300 -1.692400 0
M  V30 36 H -24.365000 -11.095500 -2.787500 0
M  V30 37 H -24.022100 -9.499000 -2.793000 0
M  V30 38 H -32.693900 -9.983400 -5.960400 0
M  V30 39 H -27.915700 -10.209600 -1.869800 0
M  V30 40 H -28.209400 -8.340000 -4.994500 0
M  V30 41 H -26.645300 -8.321400 -3.200200 0
M  V30 42 H -28.056000 -10.936200 -5.403200 0
M  V30 43 H -25.084400 -10.144100 -4.836800 0
M  V30 END ATOM
M  V30 BEGIN BOND
M  V30 1 2 1 4
M  V30 2 1 1 5 CFG=1
M  V30 3 1 1 6
M  V30 4 1 1 13
M  V30 5 2 2 7
M  V30 6 1 2 8 CFG=3
M  V30 7 1 2 13
M  V30 8 1 2 14
M  V30 9 2 3 9
M  V30 10 1 3 10 CFG=3
M  V30 11 1 3 14
M  V30 12 1 3 15
M  V30 13 1 11 25
M  V30 14 1 12 26
M  V30 15 1 15 22
M  V30 16 1 16 27
M  V30 17 1 16 29
M  V30 18 1 17 28
M  V30 19 1 18 23
M  V30 20 2 18 28
M  V30 21 2 19 23
M  V30 22 1 19 30
M  V30 23 2 20 24
M  V30 24 1 20 31
M  V30 25 1 21 24
M  V30 26 1 21 27
M  V30 27 1 21 30
M  V30 28 1 22 29
M  V30 29 1 25 26
M  V30 30 1 25 27
M  V30 31 1 26 29
M  V30 32 1 28 31
M  V30 33 2 30 31
M  V30 34 1 29 43 CFG=3
M  V30 35 1 27 42 CFG=3
M  V30 36 1 26 41 CFG=1
M  V30 37 1 25 40 CFG=3
M  V30 38 1 11 32
M  V30 39 1 12 33
M  V30 40 1 17 34
M  V30 41 1 17 35
M  V30 42 1 22 36 CFG=1
M  V30 43 1 22 37
M  V30 44 1 23 38
M  V30 45 1 24 39
M  V30 END BOND
M  V30 END CTAB
M  END
>  <Ligand_Instance>  (183) 
3X2U_ATP_A_501

>  <Dataset>  (183) 
PDB

>  <PDB_ID>  (183) 
3X2U

>  <Chain>  (183) 
A

>  <Resi>  (183) 
501

>  <Num_Resolved_Atoms>  (183) 
31

>  <Num_H_Atoms_ProtBoundConf>  (183) 
12

>  <Pocket>  (183) 
A

>  <SMILES>  (183) 
c1nc(c2c(n1)n(cn2)[C@H]3[C@@H]([C@@H]([C@H](O3)CO[P@@](=O)(O)O[P@](=O)(O)OP(=O)(O)O)O)O)N

>  <Name>  (183) 
ADENOSINE-5'-TRIPHOSPHATE

>  <Num_Heavy_Atoms>  (183) 
31

>  <Num_Not_Resolved_Atoms>  (183) 
0

>  <ATP_Site>  (183) 
True

>  <Peripheral>  (183) 
False

>  <Standardized_SMILES>  (183) 
[H]O[C@@]1([H])[C@@]([H])(O[H])[C@]([H])(N2C([H])=NC3=C2N=C([H])N=C3N([H])[H])O[C@]1([H])C([H])([H])O[P@](=O)([O-])O[P@@](=O)([O-])OP(=O)([O-])[O-]

$$$$
ATP
     RDKit          3D

  0  0  0  0  0  0  0  0  0  0999 V3000
M  V30 BEGIN CTAB
M  V30 COUNTS 43 45 0 0 0
M  V30 BEGIN ATOM
M  V30 1 P -23.284000 -1.633000 18.344000 0 CFG=2
M  V30 2 P -25.716000 -3.327000 17.941000 0 CFG=2
M  V30 3 P -25.167000 -6.025000 18.854000 0 CFG=1
M  V30 4 O -23.539000 -0.309000 19.041000 0
M  V30 5 O -22.041000 -2.359000 18.835000 0 CHG=-1
M  V30 6 O -23.373000 -1.572000 16.853000 0 CHG=-1
M  V30 7 O -25.238000 -3.656000 16.555000 0
M  V30 8 O -26.990000 -2.516000 18.088000 0 CHG=-1
M  V30 9 O -25.417000 -6.891000 17.664000 0
M  V30 10 O -23.758000 -5.701000 19.278000 0 CHG=-1
M  V30 11 O -24.111000 -8.006000 24.714000 0
M  V30 12 O -23.029000 -6.314000 22.728000 0
M  V30 13 O -24.518000 -2.621000 18.823000 0
M  V30 14 O -26.059000 -4.693000 18.716000 0
M  V30 15 O -25.871000 -6.664000 20.146000 0
M  V30 16 O -26.318000 -7.888000 22.676000 0
M  V30 17 N -25.922000 -14.141000 20.183000 0
M  V30 18 N -25.887000 -14.046000 22.542000 0
M  V30 19 N -25.725000 -12.007000 23.696000 0
M  V30 20 N -25.708000 -11.133000 20.310000 0
M  V30 21 N -25.603000 -10.061000 22.208000 0
M  V30 22 C -25.960000 -5.889000 21.338000 0 CFG=2
M  V30 23 C -25.829000 -13.346000 23.683000 0
M  V30 24 C -25.621000 -9.917000 20.869000 0
M  V30 25 C -24.130000 -8.434000 23.362000 0 CFG=2
M  V30 26 C -24.076000 -7.271000 22.405000 0 CFG=1
M  V30 27 C -25.546000 -8.961000 23.194000 0 CFG=1
M  V30 28 C -25.860000 -13.421000 21.340000 0
M  V30 29 C -25.493000 -6.721000 22.520000 0 CFG=2
M  V30 30 C -25.703000 -11.343000 22.512000 0
M  V30 31 C -25.763000 -12.041000 21.316000 0
M  V30 32 H -23.270200 -7.494000 24.889800 0
M  V30 33 H -22.139800 -6.770700 22.700000 0
M  V30 34 H -25.901500 -13.671600 19.300300 0
M  V30 35 H -25.988000 -15.138200 20.217600 0
M  V30 36 H -26.908700 -5.607800 21.482600 0
M  V30 37 H -25.381400 -5.078000 21.252100 0
M  V30 38 H -25.864300 -13.836700 24.553600 0
M  V30 39 H -25.576900 -9.048900 20.374500 0
M  V30 40 H -23.435300 -9.126300 23.167000 0
M  V30 41 H -23.931500 -7.615300 21.477300 0
M  V30 42 H -25.913100 -9.261900 24.074200 0
M  V30 43 H -25.557600 -6.167000 23.350000 0
M  V30 END ATOM
M  V30 BEGIN BOND
M  V30 1 2 1 4
M  V30 2 1 1 5 CFG=3
M  V30 3 1 1 6
M  V30 4 1 1 13
M  V30 5 2 2 7
M  V30 6 1 2 8 CFG=3
M  V30 7 1 2 13
M  V30 8 1 2 14
M  V30 9 2 3 9
M  V30 10 1 3 10 CFG=1
M  V30 11 1 3 14
M  V30 12 1 3 15
M  V30 13 1 11 25
M  V30 14 1 12 26
M  V30 15 1 15 22
M  V30 16 1 16 27
M  V30 17 1 16 29
M  V30 18 1 17 28
M  V30 19 1 18 23
M  V30 20 2 18 28
M  V30 21 2 19 23
M  V30 22 1 19 30
M  V30 23 2 20 24
M  V30 24 1 20 31
M  V30 25 1 21 24
M  V30 26 1 21 27
M  V30 27 1 21 30
M  V30 28 1 22 29
M  V30 29 1 25 26
M  V30 30 1 25 27
M  V30 31 1 26 29
M  V30 32 1 28 31
M  V30 33 2 30 31
M  V30 34 1 29 43 CFG=1
M  V30 35 1 27 42 CFG=1
M  V30 36 1 26 41 CFG=3
M  V30 37 1 25 40 CFG=1
M  V30 38 1 11 32
M  V30 39 1 12 33
M  V30 40 1 17 34
M  V30 41 1 17 35
M  V30 42 1 22 36 CFG=1
M  V30 43 1 22 37
M  V30 44 1 23 38
M  V30 45 1 24 39
M  V30 END BOND
M  V30 END CTAB
M  END
>  <Ligand_Instance>  (184) 
3X2V_ATP_A_403

>  <Dataset>  (184) 
PDB

>  <PDB_ID>  (184) 
3X2V

>  <Chain>  (184) 
A

>  <Resi>  (184) 
403

>  <Num_Resolved_Atoms>  (184) 
31

>  <Num_H_Atoms_ProtBoundConf>  (184) 
12

>  <Pocket>  (184) 
A

>  <SMILES>  (184) 
c1nc(c2c(n1)n(cn2)[C@H]3[C@@H]([C@@H]([C@H](O3)CO[P@@](=O)(O)O[P@](=O)(O)OP(=O)(O)O)O)O)N

>  <Name>  (184) 
ADENOSINE-5'-TRIPHOSPHATE

>  <Num_Heavy_Atoms>  (184) 
31

>  <Num_Not_Resolved_Atoms>  (184) 
0

>  <ATP_Site>  (184) 
True

>  <Peripheral>  (184) 
False

>  <Standardized_SMILES>  (184) 
[H]O[C@@]1([H])[C@@]([H])(O[H])[C@]([H])(N2C([H])=NC3=C2N=C([H])N=C3N([H])[H])O[C@]1([H])C([H])([H])O[P@](=O)([O-])O[P@@](=O)([O-])OP(=O)([O-])[O-]

$$$$
ATP
     RDKit          3D

  0  0  0  0  0  0  0  0  0  0999 V3000
M  V30 BEGIN CTAB
M  V30 COUNTS 43 45 0 0 0
M  V30 BEGIN ATOM
M  V30 1 P -1.037000 -11.445000 16.220000 0 CFG=2
M  V30 2 P -2.344000 -11.727000 13.561000 0 CFG=2
M  V30 3 P -5.003000 -10.704000 13.767000 0 CFG=1
M  V30 4 O 0.333000 -10.750000 16.185000 0
M  V30 5 O -1.863000 -10.902000 17.400000 0 CHG=-1
M  V30 6 O -0.911000 -12.955000 16.134000 0 CHG=-1
M  V30 7 O -2.767000 -13.091000 14.106000 0
M  V30 8 O -1.466000 -11.665000 12.358000 0 CHG=-1
M  V30 9 O -6.005000 -11.816000 13.421000 0
M  V30 10 O -4.763000 -10.320000 15.208000 0 CHG=-1
M  V30 11 O -6.845000 -4.761000 14.535000 0
M  V30 12 O -5.466000 -6.836000 15.755000 0
M  V30 13 O -1.759000 -10.880000 14.838000 0
M  V30 14 O -3.645000 -10.943000 12.978000 0
M  V30 15 O -5.558000 -9.385000 13.010000 0
M  V30 16 O -6.499000 -6.818000 12.280000 0
M  V30 17 N -12.983000 -9.028000 12.127000 0
M  V30 18 N -12.738000 -6.683000 12.094000 0
M  V30 19 N -10.656000 -5.654000 12.368000 0
M  V30 20 N -9.971000 -9.101000 12.612000 0
M  V30 21 N -8.804000 -7.235000 12.716000 0
M  V30 22 C -4.701000 -8.267000 12.991000 0 CFG=2
M  V30 23 C -11.976000 -5.589000 12.173000 0
M  V30 24 C -8.733000 -8.581000 12.774000 0
M  V30 25 C -7.369000 -6.077000 14.341000 0 CFG=2
M  V30 26 C -6.303000 -7.118000 14.609000 0 CFG=1
M  V30 27 C -7.679000 -6.267000 12.871000 0 CFG=1
M  V30 28 C -12.198000 -7.933000 12.219000 0
M  V30 29 C -5.528000 -7.043000 13.318000 0 CFG=2
M  V30 30 C -10.076000 -6.883000 12.497000 0
M  V30 31 C -10.831000 -8.050000 12.430000 0
M  V30 32 H -6.125800 -4.787600 15.229200 0
M  V30 33 H -6.033200 -6.781600 16.576800 0
M  V30 34 H -12.582400 -9.939600 12.219200 0
M  V30 35 H -13.964900 -8.927200 11.966600 0
M  V30 36 H -4.291300 -8.168100 12.084200 0
M  V30 37 H -3.978300 -8.381000 13.672700 0
M  V30 38 H -12.407800 -4.691500 12.083200 0
M  V30 39 H -7.896600 -9.110800 12.914600 0
M  V30 40 H -8.179100 -6.232600 14.906300 0
M  V30 41 H -6.722300 -8.020800 14.704900 0
M  V30 42 H -7.908400 -5.391800 12.445200 0
M  V30 43 H -4.919000 -6.250900 13.359500 0
M  V30 END ATOM
M  V30 BEGIN BOND
M  V30 1 2 1 4
M  V30 2 1 1 5 CFG=1
M  V30 3 1 1 6
M  V30 4 1 1 13
M  V30 5 2 2 7
M  V30 6 1 2 8 CFG=3
M  V30 7 1 2 13
M  V30 8 1 2 14
M  V30 9 2 3 9
M  V30 10 1 3 10 CFG=1
M  V30 11 1 3 14
M  V30 12 1 3 15
M  V30 13 1 11 25
M  V30 14 1 12 26
M  V30 15 1 15 22
M  V30 16 1 16 27
M  V30 17 1 16 29
M  V30 18 1 17 28
M  V30 19 1 18 23
M  V30 20 2 18 28
M  V30 21 2 19 23
M  V30 22 1 19 30
M  V30 23 2 20 24
M  V30 24 1 20 31
M  V30 25 1 21 24
M  V30 26 1 21 27
M  V30 27 1 21 30
M  V30 28 1 22 29
M  V30 29 1 25 26
M  V30 30 1 25 27
M  V30 31 1 26 29
M  V30 32 1 28 31
M  V30 33 2 30 31
M  V30 34 1 29 43 CFG=1
M  V30 35 1 27 42 CFG=3
M  V30 36 1 26 41 CFG=1
M  V30 37 1 25 40 CFG=1
M  V30 38 1 11 32
M  V30 39 1 12 33
M  V30 40 1 17 34
M  V30 41 1 17 35
M  V30 42 1 22 36 CFG=3
M  V30 43 1 22 37
M  V30 44 1 23 38
M  V30 45 1 24 39
M  V30 END BOND
M  V30 END CTAB
M  END
>  <Ligand_Instance>  (185) 
3X2W_ATP_A_403

>  <Dataset>  (185) 
PDB

>  <PDB_ID>  (185) 
3X2W

>  <Chain>  (185) 
A

>  <Resi>  (185) 
403

>  <Num_Resolved_Atoms>  (185) 
31

>  <Num_H_Atoms_ProtBoundConf>  (185) 
12

>  <Pocket>  (185) 
A

>  <SMILES>  (185) 
c1nc(c2c(n1)n(cn2)[C@H]3[C@@H]([C@@H]([C@H](O3)CO[P@@](=O)(O)O[P@](=O)(O)OP(=O)(O)O)O)O)N

>  <Name>  (185) 
ADENOSINE-5'-TRIPHOSPHATE

>  <Num_Heavy_Atoms>  (185) 
31

>  <Num_Not_Resolved_Atoms>  (185) 
0

>  <ATP_Site>  (185) 
True

>  <Peripheral>  (185) 
False

>  <Standardized_SMILES>  (185) 
[H]O[C@@]1([H])[C@@]([H])(O[H])[C@]([H])(N2C([H])=NC3=C2N=C([H])N=C3N([H])[H])O[C@]1([H])C([H])([H])O[P@](=O)([O-])O[P@@](=O)([O-])OP(=O)([O-])[O-]

$$$$
ATP
     RDKit          3D

  0  0  0  0  0  0  0  0  0  0999 V3000
M  V30 BEGIN CTAB
M  V30 COUNTS 43 45 0 0 0
M  V30 BEGIN ATOM
M  V30 1 P -0.736000 11.726000 -16.141000 0 CFG=2
M  V30 2 P -2.391000 11.750000 -13.581000 0 CFG=2
M  V30 3 P -5.098000 10.553000 -13.123000 0 CFG=1
M  V30 4 O 0.349000 10.678000 -16.244000 0
M  V30 5 O -1.424000 11.941000 -17.471000 0 CHG=-1
M  V30 6 O -0.137000 12.976000 -15.596000 0 CHG=-1
M  V30 7 O -3.195000 12.991000 -13.808000 0
M  V30 8 O -1.243000 11.779000 -12.611000 0 CHG=-1
M  V30 9 O -5.653000 11.346000 -11.981000 0
M  V30 10 O -5.611000 10.842000 -14.497000 0 CHG=-1
M  V30 11 O -7.321000 4.344000 -14.474000 0
M  V30 12 O -6.094000 6.301000 -16.137000 0
M  V30 13 O -1.888000 11.161000 -15.069000 0
M  V30 14 O -3.454000 10.601000 -13.072000 0
M  V30 15 O -5.421000 8.990000 -12.809000 0
M  V30 16 O -6.965000 6.811000 -12.659000 0
M  V30 17 N -13.652000 8.836000 -12.403000 0
M  V30 18 N -13.319000 6.496000 -12.231000 0
M  V30 19 N -11.187000 5.487000 -12.503000 0
M  V30 20 N -10.546000 8.964000 -12.969000 0
M  V30 21 N -9.321000 7.086000 -12.986000 0
M  V30 22 C -5.046000 7.993000 -13.748000 0 CFG=2
M  V30 23 C -12.521000 5.404000 -12.264000 0
M  V30 24 C -9.313000 8.437000 -13.127000 0
M  V30 25 C -7.878000 5.672000 -14.489000 0 CFG=2
M  V30 26 C -6.870000 6.679000 -14.996000 0 CFG=1
M  V30 27 C -8.166000 6.135000 -13.078000 0 CFG=1
M  V30 28 C -12.834000 7.758000 -12.443000 0
M  V30 29 C -6.010000 6.810000 -13.749000 0 CFG=2
M  V30 30 C -10.574000 6.698000 -12.732000 0
M  V30 31 C -11.384000 7.936000 -12.716000 0
M  V30 32 H -7.049500 4.085900 -15.401200 0
M  V30 33 H -6.703200 6.117900 -16.908600 0
M  V30 34 H -13.281000 9.751200 -12.560200 0
M  V30 35 H -14.627200 8.717000 -12.216300 0
M  V30 36 H -4.130700 7.662300 -13.518200 0
M  V30 37 H -5.034000 8.399400 -14.661600 0
M  V30 38 H -12.927900 4.504200 -12.106900 0
M  V30 39 H -8.493800 8.975600 -13.323800 0
M  V30 40 H -8.709600 5.697800 -15.043700 0
M  V30 41 H -7.329200 7.548500 -15.177700 0
M  V30 42 H -8.331700 5.343700 -12.489500 0
M  V30 43 H -5.463800 5.976000 -13.670500 0
M  V30 END ATOM
M  V30 BEGIN BOND
M  V30 1 2 1 4
M  V30 2 1 1 5 CFG=3
M  V30 3 1 1 6
M  V30 4 1 1 13
M  V30 5 2 2 7
M  V30 6 1 2 8 CFG=1
M  V30 7 1 2 13
M  V30 8 1 2 14
M  V30 9 2 3 9
M  V30 10 1 3 10 CFG=3
M  V30 11 1 3 14
M  V30 12 1 3 15
M  V30 13 1 11 25
M  V30 14 1 12 26
M  V30 15 1 15 22
M  V30 16 1 16 27
M  V30 17 1 16 29
M  V30 18 1 17 28
M  V30 19 1 18 23
M  V30 20 2 18 28
M  V30 21 2 19 23
M  V30 22 1 19 30
M  V30 23 2 20 24
M  V30 24 1 20 31
M  V30 25 1 21 24
M  V30 26 1 21 27
M  V30 27 1 21 30
M  V30 28 1 22 29
M  V30 29 1 25 26
M  V30 30 1 25 27
M  V30 31 1 26 29
M  V30 32 1 28 31
M  V30 33 2 30 31
M  V30 34 1 29 43 CFG=1
M  V30 35 1 27 42 CFG=1
M  V30 36 1 26 41 CFG=3
M  V30 37 1 25 40 CFG=3
M  V30 38 1 11 32
M  V30 39 1 12 33
M  V30 40 1 17 34
M  V30 41 1 17 35
M  V30 42 1 22 36 CFG=1
M  V30 43 1 22 37
M  V30 44 1 23 38
M  V30 45 1 24 39
M  V30 END BOND
M  V30 END CTAB
M  END
>  <Ligand_Instance>  (186) 
4DH1_ATP_A_402

>  <Dataset>  (186) 
PDB

>  <PDB_ID>  (186) 
4DH1

>  <Chain>  (186) 
A

>  <Resi>  (186) 
402

>  <Num_Resolved_Atoms>  (186) 
31

>  <Num_H_Atoms_ProtBoundConf>  (186) 
12

>  <Pocket>  (186) 
A

>  <SMILES>  (186) 
c1nc(c2c(n1)n(cn2)[C@H]3[C@@H]([C@@H]([C@H](O3)CO[P@@](=O)(O)O[P@](=O)(O)OP(=O)(O)O)O)O)N

>  <Name>  (186) 
ADENOSINE-5'-TRIPHOSPHATE

>  <Num_Heavy_Atoms>  (186) 
31

>  <Num_Not_Resolved_Atoms>  (186) 
0

>  <ATP_Site>  (186) 
True

>  <Peripheral>  (186) 
False

>  <Standardized_SMILES>  (186) 
[H]O[C@@]1([H])[C@@]([H])(O[H])[C@]([H])(N2C([H])=NC3=C2N=C([H])N=C3N([H])[H])O[C@]1([H])C([H])([H])O[P@](=O)([O-])O[P@@](=O)([O-])OP(=O)([O-])[O-]

$$$$
ATP
     RDKit          3D

  0  0  0  0  0  0  0  0  0  0999 V3000
M  V30 BEGIN CTAB
M  V30 COUNTS 43 45 0 0 0
M  V30 BEGIN ATOM
M  V30 1 P -0.947000 11.431000 -16.154000 0 CFG=2
M  V30 2 P -2.518000 11.645000 -13.530000 0 CFG=2
M  V30 3 P -5.325000 10.675000 -13.679000 0 CFG=1
M  V30 4 O 0.222000 10.567000 -15.735000 0
M  V30 5 O -1.440000 11.066000 -17.538000 0 CHG=-1
M  V30 6 O -0.529000 12.864000 -16.059000 0 CHG=-1
M  V30 7 O -3.026000 13.037000 -13.549000 0
M  V30 8 O -1.359000 11.309000 -12.646000 0 CHG=-1
M  V30 9 O -6.130000 11.820000 -13.130000 0
M  V30 10 O -5.323000 10.471000 -15.150000 0 CHG=-1
M  V30 11 O -7.257000 4.551000 -14.601000 0
M  V30 12 O -5.825000 6.571000 -15.914000 0
M  V30 13 O -2.224000 11.136000 -15.100000 0
M  V30 14 O -3.792000 10.734000 -13.073000 0
M  V30 15 O -5.865000 9.301000 -13.028000 0
M  V30 16 O -7.042000 6.789000 -12.495000 0
M  V30 17 N -13.653000 8.960000 -12.399000 0
M  V30 18 N -13.315000 6.608000 -12.313000 0
M  V30 19 N -11.193000 5.595000 -12.592000 0
M  V30 20 N -10.533000 9.093000 -12.917000 0
M  V30 21 N -9.330000 7.185000 -12.990000 0
M  V30 22 C -5.093000 8.112000 -13.193000 0 CFG=2
M  V30 23 C -12.524000 5.512000 -12.375000 0
M  V30 24 C -9.299000 8.550000 -13.082000 0
M  V30 25 C -7.785000 5.891000 -14.521000 0 CFG=2
M  V30 26 C -6.705000 6.900000 -14.823000 0 CFG=1
M  V30 27 C -8.198000 6.206000 -13.103000 0 CFG=1
M  V30 28 C -12.831000 7.882000 -12.467000 0
M  V30 29 C -5.982000 6.909000 -13.471000 0 CFG=2
M  V30 30 C -10.575000 6.810000 -12.767000 0
M  V30 31 C -11.380000 8.064000 -12.715000 0
M  V30 32 H -6.905200 4.385800 -15.522400 0
M  V30 33 H -6.358100 6.473400 -16.754400 0
M  V30 34 H -13.280500 9.880900 -12.514000 0
M  V30 35 H -14.631100 8.833300 -12.233900 0
M  V30 36 H -4.570400 7.944400 -12.357100 0
M  V30 37 H -4.463800 8.236100 -13.960200 0
M  V30 38 H -12.938600 4.609800 -12.256200 0
M  V30 39 H -8.469400 9.082500 -13.250100 0
M  V30 40 H -8.557300 6.003500 -15.146300 0
M  V30 41 H -7.119900 7.795100 -14.986300 0
M  V30 42 H -8.437100 5.359700 -12.627000 0
M  V30 43 H -5.416100 6.086300 -13.416700 0
M  V30 END ATOM
M  V30 BEGIN BOND
M  V30 1 2 1 4
M  V30 2 1 1 5 CFG=3
M  V30 3 1 1 6
M  V30 4 1 1 13
M  V30 5 2 2 7
M  V30 6 1 2 8 CFG=1
M  V30 7 1 2 13
M  V30 8 1 2 14
M  V30 9 2 3 9
M  V30 10 1 3 10 CFG=3
M  V30 11 1 3 14
M  V30 12 1 3 15
M  V30 13 1 11 25
M  V30 14 1 12 26
M  V30 15 1 15 22
M  V30 16 1 16 27
M  V30 17 1 16 29
M  V30 18 1 17 28
M  V30 19 1 18 23
M  V30 20 2 18 28
M  V30 21 2 19 23
M  V30 22 1 19 30
M  V30 23 2 20 24
M  V30 24 1 20 31
M  V30 25 1 21 24
M  V30 26 1 21 27
M  V30 27 1 21 30
M  V30 28 1 22 29
M  V30 29 1 25 26
M  V30 30 1 25 27
M  V30 31 1 26 29
M  V30 32 1 28 31
M  V30 33 2 30 31
M  V30 34 1 29 43 CFG=3
M  V30 35 1 27 42 CFG=1
M  V30 36 1 26 41 CFG=3
M  V30 37 1 25 40 CFG=3
M  V30 38 1 11 32
M  V30 39 1 12 33
M  V30 40 1 17 34
M  V30 41 1 17 35
M  V30 42 1 22 36 CFG=1
M  V30 43 1 22 37
M  V30 44 1 23 38
M  V30 45 1 24 39
M  V30 END BOND
M  V30 END CTAB
M  END
>  <Ligand_Instance>  (187) 
4DH3_ATP_A_403

>  <Dataset>  (187) 
PDB

>  <PDB_ID>  (187) 
4DH3

>  <Chain>  (187) 
A

>  <Resi>  (187) 
403

>  <Num_Resolved_Atoms>  (187) 
31

>  <Num_H_Atoms_ProtBoundConf>  (187) 
12

>  <Pocket>  (187) 
A

>  <SMILES>  (187) 
c1nc(c2c(n1)n(cn2)[C@H]3[C@@H]([C@@H]([C@H](O3)CO[P@@](=O)(O)O[P@](=O)(O)OP(=O)(O)O)O)O)N

>  <Name>  (187) 
ADENOSINE-5'-TRIPHOSPHATE

>  <Num_Heavy_Atoms>  (187) 
31

>  <Num_Not_Resolved_Atoms>  (187) 
0

>  <ATP_Site>  (187) 
True

>  <Peripheral>  (187) 
False

>  <Standardized_SMILES>  (187) 
[H]O[C@@]1([H])[C@@]([H])(O[H])[C@]([H])(N2C([H])=NC3=C2N=C([H])N=C3N([H])[H])O[C@]1([H])C([H])([H])O[P@](=O)([O-])O[P@@](=O)([O-])OP(=O)([O-])[O-]

$$$$
ATP
     RDKit          3D

  0  0  0  0  0  0  0  0  0  0999 V3000
M  V30 BEGIN CTAB
M  V30 COUNTS 43 45 0 0 0
M  V30 BEGIN ATOM
M  V30 1 P -20.629000 -7.911000 0.592000 0 CFG=2
M  V30 2 P -22.510000 -10.289000 0.857000 0 CFG=1
M  V30 3 P -25.217000 -9.649000 -0.068000 0 CFG=2
M  V30 4 O -19.288000 -8.294000 -0.034000 0
M  V30 5 O -21.198000 -6.583000 -0.006000 0 CHG=-1
M  V30 6 O -20.523000 -7.994000 2.140000 0 CHG=-1
M  V30 7 O -21.604000 -11.501000 0.799000 0
M  V30 8 O -22.749000 -9.958000 2.308000 0 CHG=-1
M  V30 9 O -24.738000 -8.241000 -0.443000 0
M  V30 10 O -26.263000 -9.794000 1.030000 0 CHG=-1
M  V30 11 O -26.900000 -8.711000 -6.137000 0
M  V30 12 O -25.239000 -7.623000 -4.115000 0
M  V30 13 O -21.861000 -8.991000 0.066000 0
M  V30 14 O -23.952000 -10.599000 0.244000 0
M  V30 15 O -25.841000 -10.288000 -1.416000 0
M  V30 16 O -26.967000 -10.775000 -3.880000 0
M  V30 17 N -33.342000 -9.781000 -1.521000 0
M  V30 18 N -33.170000 -9.853000 -3.871000 0
M  V30 19 N -31.081000 -9.944000 -5.014000 0
M  V30 20 N -30.227000 -9.804000 -1.561000 0
M  V30 21 N -29.111000 -9.913000 -3.504000 0
M  V30 22 C -24.985000 -10.335000 -2.563000 0 CFG=2
M  V30 23 C -32.439000 -9.914000 -5.015000 0
M  V30 24 C -29.004000 -9.863000 -2.155000 0
M  V30 25 C -27.425000 -8.609000 -4.778000 0 CFG=2
M  V30 26 C -26.304000 -8.534000 -3.788000 0 CFG=1
M  V30 27 C -28.001000 -9.988000 -4.494000 0 CFG=1
M  V30 28 C -32.596000 -9.816000 -2.644000 0
M  V30 29 C -25.786000 -9.964000 -3.797000 0 CFG=2
M  V30 30 C -30.403000 -9.900000 -3.837000 0
M  V30 31 C -31.134000 -9.843000 -2.574000 0
M  V30 32 H -26.340700 -7.907200 -6.339500 0
M  V30 33 H -25.605500 -6.695800 -4.192600 0
M  V30 34 H -32.897100 -9.754000 -0.625800 0
M  V30 35 H -34.340000 -9.782000 -1.583500 0
M  V30 36 H -24.616800 -11.258800 -2.668200 0
M  V30 37 H -24.232100 -9.687400 -2.445500 0
M  V30 38 H -32.919500 -9.937700 -5.891600 0
M  V30 39 H -28.136200 -9.868700 -1.658200 0
M  V30 40 H -28.094300 -7.874000 -4.669700 0
M  V30 41 H -26.668600 -8.314100 -2.883200 0
M  V30 42 H -28.314100 -10.418700 -5.340400 0
M  V30 43 H -25.225700 -10.109000 -4.612500 0
M  V30 END ATOM
M  V30 BEGIN BOND
M  V30 1 2 1 4
M  V30 2 1 1 5 CFG=1
M  V30 3 1 1 6
M  V30 4 1 1 13
M  V30 5 2 2 7
M  V30 6 1 2 8 CFG=1
M  V30 7 1 2 13
M  V30 8 1 2 14
M  V30 9 2 3 9
M  V30 10 1 3 10 CFG=1
M  V30 11 1 3 14
M  V30 12 1 3 15
M  V30 13 1 11 25
M  V30 14 1 12 26
M  V30 15 1 15 22
M  V30 16 1 16 27
M  V30 17 1 16 29
M  V30 18 1 17 28
M  V30 19 1 18 23
M  V30 20 2 18 28
M  V30 21 2 19 23
M  V30 22 1 19 30
M  V30 23 2 20 24
M  V30 24 1 20 31
M  V30 25 1 21 24
M  V30 26 1 21 27
M  V30 27 1 21 30
M  V30 28 1 22 29
M  V30 29 1 25 26
M  V30 30 1 25 27
M  V30 31 1 26 29
M  V30 32 1 28 31
M  V30 33 2 30 31
M  V30 34 1 29 43 CFG=3
M  V30 35 1 27 42 CFG=3
M  V30 36 1 26 41 CFG=1
M  V30 37 1 25 40 CFG=3
M  V30 38 1 11 32
M  V30 39 1 12 33
M  V30 40 1 17 34
M  V30 41 1 17 35
M  V30 42 1 22 36 CFG=3
M  V30 43 1 22 37
M  V30 44 1 23 38
M  V30 45 1 24 39
M  V30 END BOND
M  V30 END CTAB
M  END
>  <Ligand_Instance>  (188) 
4WB5_ATP_A_401

>  <Dataset>  (188) 
PDB

>  <PDB_ID>  (188) 
4WB5

>  <Chain>  (188) 
A

>  <Resi>  (188) 
401

>  <Num_Resolved_Atoms>  (188) 
31

>  <Num_H_Atoms_ProtBoundConf>  (188) 
12

>  <Pocket>  (188) 
A

>  <SMILES>  (188) 
c1nc(c2c(n1)n(cn2)[C@H]3[C@@H]([C@@H]([C@H](O3)CO[P@@](=O)(O)O[P@](=O)(O)OP(=O)(O)O)O)O)N

>  <Name>  (188) 
ADENOSINE-5'-TRIPHOSPHATE

>  <Num_Heavy_Atoms>  (188) 
31

>  <Num_Not_Resolved_Atoms>  (188) 
0

>  <ATP_Site>  (188) 
True

>  <Peripheral>  (188) 
False

>  <Standardized_SMILES>  (188) 
[H]O[C@@]1([H])[C@@]([H])(O[H])[C@]([H])(N2C([H])=NC3=C2N=C([H])N=C3N([H])[H])O[C@]1([H])C([H])([H])O[P@@](=O)([O-])O[P@](=O)([O-])OP(=O)([O-])[O-]

$$$$
ATP
     RDKit          3D

  0  0  0  0  0  0  0  0  0  0999 V3000
M  V30 BEGIN CTAB
M  V30 COUNTS 43 45 0 0 0
M  V30 BEGIN ATOM
M  V30 1 P -10.412000 -14.068000 -31.851000 0 CFG=1
M  V30 2 P -8.113000 -13.261000 -30.324000 0 CFG=1
M  V30 3 P -5.749000 -14.609000 -31.231000 0 CFG=2
M  V30 4 O -10.362000 -15.246000 -32.817000 0
M  V30 5 O -11.165000 -12.869000 -32.373000 0 CHG=-1
M  V30 6 O -10.802000 -14.483000 -30.445000 0 CHG=-1
M  V30 7 O -8.495000 -11.847000 -30.002000 0
M  V30 8 O -8.357000 -14.357000 -29.318000 0 CHG=-1
M  V30 9 O -6.655000 -15.373000 -32.182000 0
M  V30 10 O -5.122000 -15.379000 -30.084000 0 CHG=-1
M  V30 11 O -2.831000 -14.229000 -36.812000 0
M  V30 12 O -5.230000 -14.862000 -35.683000 0
M  V30 13 O -8.858000 -13.628000 -31.717000 0
M  V30 14 O -6.545000 -13.289000 -30.727000 0
M  V30 15 O -4.513000 -14.013000 -32.085000 0
M  V30 16 O -2.500000 -13.291000 -34.020000 0
M  V30 17 N 1.814000 -18.167000 -31.641000 0
M  V30 18 N 2.448000 -17.066000 -33.617000 0
M  V30 19 N 1.052000 -15.564000 -34.811000 0
M  V30 20 N -0.899000 -16.607000 -32.065000 0
M  V30 21 N -1.168000 -15.231000 -33.792000 0
M  V30 22 C -4.755000 -13.054000 -33.121000 0 CFG=2
M  V30 23 C 2.206000 -16.228000 -34.644000 0
M  V30 24 C -1.742000 -15.759000 -32.697000 0
M  V30 25 C -2.776000 -15.003000 -35.605000 0 CFG=2
M  V30 26 C -4.068000 -14.789000 -34.860000 0 CFG=1
M  V30 27 C -1.771000 -14.280000 -34.737000 0 CFG=1
M  V30 28 C 1.536000 -17.323000 -32.658000 0
M  V30 29 C -3.888000 -13.370000 -34.340000 0 CFG=2
M  V30 30 C 0.054000 -15.728000 -33.912000 0
M  V30 31 C 0.239000 -16.634000 -32.769000 0
M  V30 32 H -3.605500 -14.532000 -37.367300 0
M  V30 33 H -5.280700 -15.765400 -36.108800 0
M  V30 34 H 1.125900 -18.346500 -30.937900 0
M  V30 35 H 2.707900 -18.612400 -31.591100 0
M  V30 36 H -4.531700 -12.139300 -32.784100 0
M  V30 37 H -5.719400 -13.086400 -33.383400 0
M  V30 38 H 2.928900 -16.093000 -35.321600 0
M  V30 39 H -2.670900 -15.551800 -32.389900 0
M  V30 40 H -2.555300 -15.966500 -35.756300 0
M  V30 41 H -4.140600 -15.432200 -34.097800 0
M  V30 42 H -1.064700 -13.852900 -35.301600 0
M  V30 43 H -4.096400 -12.720700 -35.071400 0
M  V30 END ATOM
M  V30 BEGIN BOND
M  V30 1 2 1 4
M  V30 2 1 1 5 CFG=3
M  V30 3 1 1 6
M  V30 4 1 1 13
M  V30 5 2 2 7
M  V30 6 1 2 8 CFG=1
M  V30 7 1 2 13
M  V30 8 1 2 14
M  V30 9 2 3 9
M  V30 10 1 3 10 CFG=1
M  V30 11 1 3 14
M  V30 12 1 3 15
M  V30 13 1 11 25
M  V30 14 1 12 26
M  V30 15 1 15 22
M  V30 16 1 16 27
M  V30 17 1 16 29
M  V30 18 1 17 28
M  V30 19 1 18 23
M  V30 20 2 18 28
M  V30 21 2 19 23
M  V30 22 1 19 30
M  V30 23 2 20 24
M  V30 24 1 20 31
M  V30 25 1 21 24
M  V30 26 1 21 27
M  V30 27 1 21 30
M  V30 28 1 22 29
M  V30 29 1 25 26
M  V30 30 1 25 27
M  V30 31 1 26 29
M  V30 32 1 28 31
M  V30 33 2 30 31
M  V30 34 1 29 43 CFG=3
M  V30 35 1 27 42 CFG=3
M  V30 36 1 26 41 CFG=1
M  V30 37 1 25 40 CFG=3
M  V30 38 1 11 32
M  V30 39 1 12 33
M  V30 40 1 17 34
M  V30 41 1 17 35
M  V30 42 1 22 36 CFG=1
M  V30 43 1 22 37
M  V30 44 1 23 38
M  V30 45 1 24 39
M  V30 END BOND
M  V30 END CTAB
M  END
>  <Ligand_Instance>  (189) 
4WB6_ATP_A_401

>  <Dataset>  (189) 
PDB

>  <PDB_ID>  (189) 
4WB6

>  <Chain>  (189) 
A

>  <Resi>  (189) 
401

>  <Num_Resolved_Atoms>  (189) 
31

>  <Num_H_Atoms_ProtBoundConf>  (189) 
12

>  <Pocket>  (189) 
A

>  <SMILES>  (189) 
c1nc(c2c(n1)n(cn2)[C@H]3[C@@H]([C@@H]([C@H](O3)CO[P@@](=O)(O)O[P@](=O)(O)OP(=O)(O)O)O)O)N

>  <Name>  (189) 
ADENOSINE-5'-TRIPHOSPHATE

>  <Num_Heavy_Atoms>  (189) 
31

>  <Num_Not_Resolved_Atoms>  (189) 
0

>  <ATP_Site>  (189) 
True

>  <Peripheral>  (189) 
False

>  <Standardized_SMILES>  (189) 
[H]O[C@@]1([H])[C@@]([H])(O[H])[C@]([H])(N2C([H])=NC3=C2N=C([H])N=C3N([H])[H])O[C@]1([H])C([H])([H])O[P@@](=O)([O-])O[P@](=O)([O-])OP(=O)([O-])[O-]

$$$$
ATP
     RDKit          3D

  0  0  0  0  0  0  0  0  0  0999 V3000
M  V30 BEGIN CTAB
M  V30 COUNTS 43 45 0 0 0
M  V30 BEGIN ATOM
M  V30 1 P -26.312000 -19.977000 7.244000 0 CFG=1
M  V30 2 P -27.403000 -22.300000 5.954000 0 CFG=2
M  V30 3 P -26.892000 -24.675000 7.497000 0 CFG=1
M  V30 4 O -25.560000 -20.030000 5.925000 0
M  V30 5 O -25.421000 -20.113000 8.459000 0 CHG=-1
M  V30 6 O -27.307000 -18.848000 7.348000 0 CHG=-1
M  V30 7 O -26.112000 -22.490000 5.185000 0
M  V30 8 O -28.623000 -21.733000 5.283000 0 CHG=-1
M  V30 9 O -26.043000 -25.621000 6.672000 0
M  V30 10 O -26.248000 -23.812000 8.561000 0 CHG=-1
M  V30 11 O -28.707000 -26.451000 13.217000 0
M  V30 12 O -27.682000 -24.398000 11.898000 0
M  V30 13 O -27.180000 -21.348000 7.262000 0
M  V30 14 O -27.841000 -23.723000 6.589000 0
M  V30 15 O -27.934000 -25.623000 8.262000 0
M  V30 16 O -29.393000 -27.080000 10.258000 0
M  V30 17 N -25.431000 -32.730000 9.623000 0
M  V30 18 N -26.859000 -32.728000 11.498000 0
M  V30 19 N -28.136000 -30.824000 12.126000 0
M  V30 20 N -26.403000 -29.755000 9.251000 0
M  V30 21 N -27.854000 -28.833000 10.666000 0
M  V30 22 C -28.978000 -25.009000 9.012000 0 CFG=2
M  V30 23 C -27.740000 -32.101000 12.300000 0
M  V30 24 C -27.103000 -28.639000 9.562000 0
M  V30 25 C -27.926000 -26.827000 12.079000 0 CFG=2
M  V30 26 C -27.795000 -25.627000 11.176000 0 CFG=1
M  V30 27 C -28.744000 -27.826000 11.284000 0 CFG=1
M  V30 28 C -26.311000 -32.098000 10.426000 0
M  V30 29 C -29.089000 -25.686000 10.381000 0 CFG=2
M  V30 30 C -27.657000 -30.080000 11.104000 0
M  V30 31 C -26.700000 -30.695000 10.172000 0
M  V30 32 H -28.569400 -25.479400 13.409500 0
M  V30 33 H -26.872000 -24.428700 12.483600 0
M  V30 34 H -25.037200 -32.251400 8.838200 0
M  V30 35 H -25.172300 -33.677200 9.812300 0
M  V30 36 H -29.843400 -25.106800 8.520600 0
M  V30 37 H -28.772900 -24.038100 9.135900 0
M  V30 38 H -28.122900 -32.612100 13.069500 0
M  V30 39 H -27.068200 -27.785000 9.042900 0
M  V30 40 H -27.035000 -27.197100 12.341800 0
M  V30 41 H -27.011100 -25.740200 10.565500 0
M  V30 42 H -29.419200 -28.271000 11.872300 0
M  V30 43 H -29.813900 -25.240300 10.906300 0
M  V30 END ATOM
M  V30 BEGIN BOND
M  V30 1 2 1 4
M  V30 2 1 1 5 CFG=1
M  V30 3 1 1 6
M  V30 4 1 1 13
M  V30 5 2 2 7
M  V30 6 1 2 8 CFG=3
M  V30 7 1 2 13
M  V30 8 1 2 14
M  V30 9 2 3 9
M  V30 10 1 3 10 CFG=1
M  V30 11 1 3 14
M  V30 12 1 3 15
M  V30 13 1 11 25
M  V30 14 1 12 26
M  V30 15 1 15 22
M  V30 16 1 16 27
M  V30 17 1 16 29
M  V30 18 1 17 28
M  V30 19 1 18 23
M  V30 20 2 18 28
M  V30 21 2 19 23
M  V30 22 1 19 30
M  V30 23 2 20 24
M  V30 24 1 20 31
M  V30 25 1 21 24
M  V30 26 1 21 27
M  V30 27 1 21 30
M  V30 28 1 22 29
M  V30 29 1 25 26
M  V30 30 1 25 27
M  V30 31 1 26 29
M  V30 32 1 28 31
M  V30 33 2 30 31
M  V30 34 1 29 43 CFG=1
M  V30 35 1 27 42 CFG=1
M  V30 36 1 26 41 CFG=3
M  V30 37 1 25 40 CFG=1
M  V30 38 1 11 32
M  V30 39 1 12 33
M  V30 40 1 17 34
M  V30 41 1 17 35
M  V30 42 1 22 36 CFG=3
M  V30 43 1 22 37
M  V30 44 1 23 38
M  V30 45 1 24 39
M  V30 END BOND
M  V30 END CTAB
M  END
>  <Ligand_Instance>  (190) 
4WB6_ATP_B_401

>  <Dataset>  (190) 
PDB

>  <PDB_ID>  (190) 
4WB6

>  <Chain>  (190) 
B

>  <Resi>  (190) 
401

>  <Num_Resolved_Atoms>  (190) 
31

>  <Num_H_Atoms_ProtBoundConf>  (190) 
12

>  <Pocket>  (190) 
A

>  <SMILES>  (190) 
c1nc(c2c(n1)n(cn2)[C@H]3[C@@H]([C@@H]([C@H](O3)CO[P@@](=O)(O)O[P@](=O)(O)OP(=O)(O)O)O)O)N

>  <Name>  (190) 
ADENOSINE-5'-TRIPHOSPHATE

>  <Num_Heavy_Atoms>  (190) 
31

>  <Num_Not_Resolved_Atoms>  (190) 
0

>  <ATP_Site>  (190) 
True

>  <Peripheral>  (190) 
False

>  <Standardized_SMILES>  (190) 
[H]O[C@@]1([H])[C@@]([H])(O[H])[C@]([H])(N2C([H])=NC3=C2N=C([H])N=C3N([H])[H])O[C@]1([H])C([H])([H])O[P@](=O)([O-])O[P@@](=O)([O-])OP(=O)([O-])[O-]

$$$$
ATP
     RDKit          3D

  0  0  0  0  0  0  0  0  0  0999 V3000
M  V30 BEGIN CTAB
M  V30 COUNTS 43 45 0 0 0
M  V30 BEGIN ATOM
M  V30 1 P 52.435000 7.993000 -0.753000 0 CFG=1
M  V30 2 P 50.708000 10.347000 -1.079000 0 CFG=2
M  V30 3 P 48.066000 9.765000 -0.030000 0 CFG=1
M  V30 4 O 52.454000 8.023000 -2.273000 0
M  V30 5 O 51.813000 6.792000 -0.163000 0 CHG=-1
M  V30 6 O 53.761000 8.375000 -0.097000 0 CHG=-1
M  V30 7 O 50.300000 9.914000 -2.480000 0
M  V30 8 O 51.597000 11.545000 -0.999000 0 CHG=-1
M  V30 9 O 47.078000 9.969000 -1.156000 0
M  V30 10 O 48.428000 8.390000 0.362000 0 CHG=-1
M  V30 11 O 46.230000 8.724000 5.868000 0
M  V30 12 O 47.925000 7.705000 3.889000 0
M  V30 13 O 51.328000 9.117000 -0.253000 0
M  V30 14 O 49.338000 10.680000 -0.277000 0
M  V30 15 O 47.379000 10.482000 1.223000 0
M  V30 16 O 46.146000 10.877000 3.758000 0
M  V30 17 N 39.773000 9.986000 1.409000 0
M  V30 18 N 39.990000 10.079000 3.787000 0
M  V30 19 N 42.125000 10.094000 4.893000 0
M  V30 20 N 42.868000 9.900000 1.440000 0
M  V30 21 N 44.035000 9.985000 3.331000 0
M  V30 22 C 48.199000 10.551000 2.423000 0 CFG=2
M  V30 23 C 40.774000 10.085000 4.891000 0
M  V30 24 C 44.108000 9.931000 1.985000 0
M  V30 25 C 45.690000 8.631000 4.540000 0 CFG=2
M  V30 26 C 46.867000 8.634000 3.573000 0 CFG=1
M  V30 27 C 45.140000 10.024000 4.298000 0 CFG=1
M  V30 28 C 40.531000 10.013000 2.539000 0
M  V30 29 C 47.351000 10.089000 3.621000 0 CFG=2
M  V30 30 C 42.761000 10.024000 3.691000 0
M  V30 31 C 41.989000 9.986000 2.463000 0
M  V30 32 H 46.828300 7.941400 6.040100 0
M  V30 33 H 47.561100 6.773600 3.891200 0
M  V30 34 H 40.213400 9.937200 0.512500 0
M  V30 35 H 38.775600 10.014900 1.475200 0
M  V30 36 H 48.504800 11.491900 2.569000 0
M  V30 37 H 48.994700 9.953700 2.322600 0
M  V30 38 H 40.314600 10.082600 5.779200 0
M  V30 39 H 44.960000 9.915900 1.461600 0
M  V30 40 H 45.033700 7.889000 4.402900 0
M  V30 41 H 46.528900 8.436800 2.652800 0
M  V30 42 H 44.811000 10.405200 5.162000 0
M  V30 43 H 47.895700 10.207800 4.451200 0
M  V30 END ATOM
M  V30 BEGIN BOND
M  V30 1 2 1 4
M  V30 2 1 1 5 CFG=3
M  V30 3 1 1 6
M  V30 4 1 1 13
M  V30 5 2 2 7
M  V30 6 1 2 8 CFG=3
M  V30 7 1 2 13
M  V30 8 1 2 14
M  V30 9 2 3 9
M  V30 10 1 3 10 CFG=1
M  V30 11 1 3 14
M  V30 12 1 3 15
M  V30 13 1 11 25
M  V30 14 1 12 26
M  V30 15 1 15 22
M  V30 16 1 16 27
M  V30 17 1 16 29
M  V30 18 1 17 28
M  V30 19 1 18 23
M  V30 20 2 18 28
M  V30 21 2 19 23
M  V30 22 1 19 30
M  V30 23 2 20 24
M  V30 24 1 20 31
M  V30 25 1 21 24
M  V30 26 1 21 27
M  V30 27 1 21 30
M  V30 28 1 22 29
M  V30 29 1 25 26
M  V30 30 1 25 27
M  V30 31 1 26 29
M  V30 32 1 28 31
M  V30 33 2 30 31
M  V30 34 1 29 43 CFG=1
M  V30 35 1 27 42 CFG=1
M  V30 36 1 26 41 CFG=3
M  V30 37 1 25 40 CFG=1
M  V30 38 1 11 32
M  V30 39 1 12 33
M  V30 40 1 17 34
M  V30 41 1 17 35
M  V30 42 1 22 36 CFG=1
M  V30 43 1 22 37
M  V30 44 1 23 38
M  V30 45 1 24 39
M  V30 END BOND
M  V30 END CTAB
M  END
>  <Ligand_Instance>  (191) 
4WB8_ATP_A_401

>  <Dataset>  (191) 
PDB

>  <PDB_ID>  (191) 
4WB8

>  <Chain>  (191) 
A

>  <Resi>  (191) 
401

>  <Num_Resolved_Atoms>  (191) 
31

>  <Num_H_Atoms_ProtBoundConf>  (191) 
12

>  <Pocket>  (191) 
A

>  <SMILES>  (191) 
c1nc(c2c(n1)n(cn2)[C@H]3[C@@H]([C@@H]([C@H](O3)CO[P@@](=O)(O)O[P@](=O)(O)OP(=O)(O)O)O)O)N

>  <Name>  (191) 
ADENOSINE-5'-TRIPHOSPHATE

>  <Num_Heavy_Atoms>  (191) 
31

>  <Num_Not_Resolved_Atoms>  (191) 
0

>  <ATP_Site>  (191) 
True

>  <Peripheral>  (191) 
False

>  <Standardized_SMILES>  (191) 
[H]O[C@@]1([H])[C@@]([H])(O[H])[C@]([H])(N2C([H])=NC3=C2N=C([H])N=C3N([H])[H])O[C@]1([H])C([H])([H])O[P@](=O)([O-])O[P@@](=O)([O-])OP(=O)([O-])[O-]

$$$$
ATP
     RDKit          3D

  0  0  0  0  0  0  0  0  0  0999 V3000
M  V30 BEGIN CTAB
M  V30 COUNTS 43 45 0 0 0
M  V30 BEGIN ATOM
M  V30 1 P -0.809000 11.009000 -14.614000 0 CFG=1
M  V30 2 P -2.775000 11.631000 -12.419000 0 CFG=2
M  V30 3 P -5.281000 10.394000 -13.519000 0 CFG=2
M  V30 4 O -1.568000 9.960000 -15.385000 0
M  V30 5 O 0.671000 10.738000 -14.533000 0 CHG=-1
M  V30 6 O -1.049000 12.401000 -15.111000 0 CHG=-1
M  V30 7 O -3.150000 12.793000 -13.270000 0
M  V30 8 O -2.539000 11.824000 -10.946000 0 CHG=-1
M  V30 9 O -5.037000 10.165000 -14.969000 0
M  V30 10 O -6.251000 11.482000 -13.169000 0 CHG=-1
M  V30 11 O -7.133000 4.312000 -14.111000 0
M  V30 12 O -6.071000 6.429000 -15.652000 0
M  V30 13 O -1.407000 10.904000 -13.047000 0
M  V30 14 O -3.906000 10.505000 -12.645000 0
M  V30 15 O -5.844000 9.002000 -12.902000 0
M  V30 16 O -6.774000 6.476000 -12.085000 0
M  V30 17 N -13.290000 8.950000 -11.939000 0
M  V30 18 N -13.053000 6.568000 -11.893000 0
M  V30 19 N -10.968000 5.469000 -12.120000 0
M  V30 20 N -10.176000 8.942000 -12.351000 0
M  V30 21 N -9.058000 6.997000 -12.408000 0
M  V30 22 C -4.977000 7.860000 -12.924000 0 CFG=2
M  V30 23 C -12.309000 5.445000 -11.949000 0
M  V30 24 C -8.966000 8.351000 -12.517000 0
M  V30 25 C -7.753000 5.617000 -14.018000 0 CFG=2
M  V30 26 C -6.760000 6.687000 -14.415000 0 CFG=1
M  V30 27 C -8.005000 5.944000 -12.556000 0 CFG=1
M  V30 28 C -12.524000 7.829000 -11.974000 0
M  V30 29 C -5.836000 6.612000 -13.185000 0 CFG=2
M  V30 30 C -10.306000 6.670000 -12.136000 0
M  V30 31 C -11.062000 7.948000 -12.157000 0
M  V30 32 H -6.833200 4.151700 -15.051400 0
M  V30 33 H -6.661700 5.895800 -16.257600 0
M  V30 34 H -12.860800 9.851000 -12.001300 0
M  V30 35 H -14.283200 8.874300 -11.850900 0
M  V30 36 H -4.510200 7.772000 -12.044000 0
M  V30 37 H -4.299300 7.963100 -13.652000 0
M  V30 38 H -12.766600 4.560200 -11.860700 0
M  V30 39 H -8.115900 8.846200 -12.696300 0
M  V30 40 H -8.591700 5.669200 -14.560100 0
M  V30 41 H -7.211500 7.578500 -14.452200 0
M  V30 42 H -8.253300 5.120300 -12.046300 0
M  V30 43 H -5.254100 5.800700 -13.242000 0
M  V30 END ATOM
M  V30 BEGIN BOND
M  V30 1 2 1 4
M  V30 2 1 1 5 CFG=1
M  V30 3 1 1 6
M  V30 4 1 1 13
M  V30 5 2 2 7
M  V30 6 1 2 8 CFG=1
M  V30 7 1 2 13
M  V30 8 1 2 14
M  V30 9 2 3 9
M  V30 10 1 3 10 CFG=3
M  V30 11 1 3 14
M  V30 12 1 3 15
M  V30 13 1 11 25
M  V30 14 1 12 26
M  V30 15 1 15 22
M  V30 16 1 16 27
M  V30 17 1 16 29
M  V30 18 1 17 28
M  V30 19 1 18 23
M  V30 20 2 18 28
M  V30 21 2 19 23
M  V30 22 1 19 30
M  V30 23 2 20 24
M  V30 24 1 20 31
M  V30 25 1 21 24
M  V30 26 1 21 27
M  V30 27 1 21 30
M  V30 28 1 22 29
M  V30 29 1 25 26
M  V30 30 1 25 27
M  V30 31 1 26 29
M  V30 32 1 28 31
M  V30 33 2 30 31
M  V30 34 1 29 43 CFG=3
M  V30 35 1 27 42 CFG=1
M  V30 36 1 26 41 CFG=3
M  V30 37 1 25 40 CFG=3
M  V30 38 1 11 32
M  V30 39 1 12 33
M  V30 40 1 17 34
M  V30 41 1 17 35
M  V30 42 1 22 36 CFG=1
M  V30 43 1 22 37
M  V30 44 1 23 38
M  V30 45 1 24 39
M  V30 END BOND
M  V30 END CTAB
M  END
>  <Ligand_Instance>  (192) 
4XW5_ATP_A_403

>  <Dataset>  (192) 
PDB

>  <PDB_ID>  (192) 
4XW5

>  <Chain>  (192) 
A

>  <Resi>  (192) 
403

>  <Num_Resolved_Atoms>  (192) 
31

>  <Num_H_Atoms_ProtBoundConf>  (192) 
12

>  <Pocket>  (192) 
A

>  <SMILES>  (192) 
c1nc(c2c(n1)n(cn2)[C@H]3[C@@H]([C@@H]([C@H](O3)CO[P@@](=O)(O)O[P@](=O)(O)OP(=O)(O)O)O)O)N

>  <Name>  (192) 
ADENOSINE-5'-TRIPHOSPHATE

>  <Num_Heavy_Atoms>  (192) 
31

>  <Num_Not_Resolved_Atoms>  (192) 
0

>  <ATP_Site>  (192) 
True

>  <Peripheral>  (192) 
False

>  <Standardized_SMILES>  (192) 
[H]O[C@@]1([H])[C@@]([H])(O[H])[C@]([H])(N2C([H])=NC3=C2N=C([H])N=C3N([H])[H])O[C@]1([H])C([H])([H])O[P@@](=O)([O-])O[P@@](=O)([O-])OP(=O)([O-])[O-]

$$$$
B4Z
     RDKit          3D

  0  0  0  0  0  0  0  0  0  0999 V3000
M  V30 BEGIN CTAB
M  V30 COUNTS 44 46 0 0 0
M  V30 BEGIN ATOM
M  V30 1 S -13.773000 -25.110000 27.488000 0 CFG=1
M  V30 2 O -13.213000 -26.210000 26.767000 0
M  V30 3 O -14.407000 -25.347000 28.749000 0
M  V30 4 N -12.597000 -24.033000 27.736000 0
M  V30 5 N -9.663000 -24.333000 27.591000 0 CFG=2 CHG=1
M  V30 6 N -17.422000 -26.280000 23.647000 0
M  V30 7 C -11.791000 -23.519000 26.616000 0 CFG=2
M  V30 8 C -10.490000 -24.258000 26.382000 0 CFG=2
M  V30 9 C -16.654000 -26.974000 24.500000 0
M  V30 10 C -6.023000 -23.337000 30.951000 0
M  V30 11 C -5.706000 -23.134000 29.631000 0
M  V30 12 C -7.350000 -23.427000 31.340000 0
M  V30 13 C -15.789000 -22.187000 25.653000 0
M  V30 14 C -9.129000 -23.034000 27.999000 0 CFG=2
M  V30 15 C -17.401000 -24.959000 23.743000 0
M  V30 16 C -14.942000 -22.910000 26.481000 0
M  V30 17 C -6.713000 -23.020000 28.690000 0
M  V30 18 C -8.398000 -23.312000 30.414000 0
M  V30 19 C -16.612000 -22.827000 24.769000 0
M  V30 20 C -15.847000 -26.406000 25.443000 0
M  V30 21 C -14.933000 -24.279000 26.439000 0
M  V30 22 C -8.055000 -23.115000 29.059000 0
M  V30 23 C -16.625000 -24.242000 24.683000 0
M  V30 24 C -15.792000 -24.998000 25.549000 0
M  V30 25 H -13.025300 -23.238400 28.166300 0
M  V30 26 H -8.897100 -24.951600 27.415400 0
M  V30 27 H -11.575800 -22.560200 26.801300 0
M  V30 28 H -12.339700 -23.582400 25.782400 0
M  V30 29 H -10.699000 -25.187400 26.078000 0
M  V30 30 H -9.974300 -23.782300 25.669400 0
M  V30 31 H -16.673900 -27.972100 24.441300 0
M  V30 32 H -5.295800 -23.420000 31.632400 0
M  V30 33 H -4.748500 -23.068600 29.350200 0
M  V30 34 H -7.566100 -23.577700 32.304700 0
M  V30 35 H -15.797300 -21.188300 25.703500 0
M  V30 36 H -9.882700 -22.482800 28.356800 0
M  V30 37 H -8.741900 -22.586200 27.193000 0
M  V30 38 H -17.970700 -24.434900 23.109900 0
M  V30 39 H -14.334300 -22.428400 27.112400 0
M  V30 40 H -6.475600 -22.867200 27.730700 0
M  V30 41 H -9.353500 -23.367600 30.703600 0
M  V30 42 H -17.212200 -22.290600 24.175700 0
M  V30 43 H -15.300400 -26.980300 26.052500 0
M  V30 44 H -10.221000 -24.696700 28.336800 0
M  V30 END ATOM
M  V30 BEGIN BOND
M  V30 1 2 1 2
M  V30 2 2 1 3
M  V30 3 1 1 4 CFG=1
M  V30 4 1 1 21
M  V30 5 1 4 7
M  V30 6 1 5 8
M  V30 7 1 5 14
M  V30 8 2 6 9
M  V30 9 1 6 15
M  V30 10 1 7 8
M  V30 11 1 9 20
M  V30 12 2 10 11
M  V30 13 1 10 12
M  V30 14 1 11 17
M  V30 15 2 12 18
M  V30 16 1 13 16
M  V30 17 2 13 19
M  V30 18 1 14 22
M  V30 19 2 15 23
M  V30 20 2 16 21
M  V30 21 2 17 22
M  V30 22 1 18 22
M  V30 23 1 19 23
M  V30 24 2 20 24
M  V30 25 1 21 24
M  V30 26 1 23 24
M  V30 27 1 4 25
M  V30 28 1 5 26 CFG=3
M  V30 29 1 7 27 CFG=1
M  V30 30 1 7 28
M  V30 31 1 8 29 CFG=3
M  V30 32 1 8 30
M  V30 33 1 9 31
M  V30 34 1 10 32
M  V30 35 1 11 33
M  V30 36 1 12 34
M  V30 37 1 13 35
M  V30 38 1 14 36 CFG=1
M  V30 39 1 14 37
M  V30 40 1 15 38
M  V30 41 1 16 39
M  V30 42 1 17 40
M  V30 43 1 18 41
M  V30 44 1 19 42
M  V30 45 1 20 43
M  V30 46 1 5 44
M  V30 END BOND
M  V30 END CTAB
M  END
>  <Ligand_Instance>  (193) 
6EH3_B4Z_A_401

>  <Dataset>  (193) 
PDB

>  <PDB_ID>  (193) 
6EH3

>  <Chain>  (193) 
A

>  <Resi>  (193) 
401

>  <Num_Resolved_Atoms>  (193) 
24

>  <Num_H_Atoms_ProtBoundConf>  (193) 
20

>  <Pocket>  (193) 
A

>  <SMILES>  (193) 
c1ccc(cc1)CNCCNS(=O)(=O)c2cccc3c2ccnc3

>  <Name>  (193) 
~{N}-[2-[(phenylmethyl)amino]ethyl]isoquinoline-5-sulfonamide

>  <Num_Heavy_Atoms>  (193) 
24

>  <Num_Not_Resolved_Atoms>  (193) 
0

>  <ATP_Site>  (193) 
True

>  <Peripheral>  (193) 
False

>  <Standardized_SMILES>  (193) 
[H]C1=NC([H])=C2C([H])=C([H])C([H])=C(S(=O)(=O)N([H])C([H])([H])C([H])([H])[N+]([H])([H])C([H])([H])C3=C([H])C([H])=C([H])C([H])=C3[H])C2=C1[H]

$$$$
B99
     RDKit          3D

  0  0  0  0  0  0  0  0  0  0999 V3000
M  V30 BEGIN CTAB
M  V30 COUNTS 61 66 0 0 0
M  V30 BEGIN ATOM
M  V30 1 O -30.064000 -13.177000 2.352000 0
M  V30 2 O -24.970000 -8.493000 -0.644000 0
M  V30 3 N -23.040000 -7.199000 -1.298000 0 CFG=1 CHG=1
M  V30 4 N -32.727000 -10.244000 -4.061000 0
M  V30 5 N -33.154000 -10.065000 -2.799000 0
M  V30 6 N -21.461000 -10.335000 0.477000 0
M  V30 7 N -26.678000 -11.191000 1.048000 0
M  V30 8 C -30.692000 -10.555000 -5.456000 0 CFG=1
M  V30 9 C -30.430000 -13.576000 1.103000 0
M  V30 10 C -29.092000 -12.235000 2.208000 0
M  V30 11 C -24.846000 -8.629000 -2.045000 0 CFG=2
M  V30 12 C -25.760000 -10.310000 0.653000 0
M  V30 13 C -21.575000 -9.294000 -0.395000 0
M  V30 14 C -22.619000 -13.677000 -0.307000 0
M  V30 15 C -23.081000 -13.388000 -1.566000 0
M  V30 16 C -29.696000 -12.900000 0.154000 0
M  V30 17 C -22.043000 -12.728000 0.499000 0
M  V30 18 C -31.902000 -9.906000 -0.684000 0
M  V30 19 C -30.573000 -9.961000 -0.312000 0
M  V30 20 C -23.008000 -12.132000 -2.116000 0
M  V30 21 C -22.503000 -9.006000 -2.741000 0 CFG=2
M  V30 22 C -27.210000 -9.273000 -0.939000 0
M  V30 23 C -29.596000 -10.291000 -2.514000 0
M  V30 24 C -25.987000 -9.362000 -0.315000 0
M  V30 25 C -23.554000 -7.964000 -2.458000 0 CFG=2
M  V30 26 C -31.371000 -10.355000 -4.164000 0
M  V30 27 C -32.047000 -10.057000 -2.043000 0
M  V30 28 C -21.974000 -11.478000 -0.064000 0
M  V30 29 C -27.856000 -11.087000 0.430000 0
M  V30 30 C -28.835000 -12.035000 0.872000 0
M  V30 31 C -22.180000 -9.776000 -1.533000 0
M  V30 32 C -29.482000 -10.142000 -1.145000 0
M  V30 33 C -30.923000 -10.235000 -2.869000 0
M  V30 34 C -22.433000 -11.156000 -1.328000 0
M  V30 35 C -28.177000 -10.170000 -0.547000 0
M  V30 36 H -22.041300 -7.165300 -1.337000 0
M  V30 37 H -23.406100 -6.268800 -1.323500 0
M  V30 38 H -34.099000 -9.959900 -2.489200 0
M  V30 39 H -21.056500 -10.270200 1.389200 0
M  V30 40 H -29.704500 -10.609900 -5.308600 0
M  V30 41 H -31.014400 -11.404300 -5.874000 0
M  V30 42 H -30.896300 -9.786500 -6.062400 0
M  V30 43 H -31.130700 -14.261000 0.903500 0
M  V30 44 H -28.634200 -11.760400 2.959800 0
M  V30 45 H -25.618100 -8.185300 -2.500000 0
M  V30 46 H -24.824900 -9.597600 -2.292700 0
M  V30 47 H -24.858100 -10.340400 1.083900 0
M  V30 48 H -21.274400 -8.353400 -0.237000 0
M  V30 49 H -22.705200 -14.612600 0.035300 0
M  V30 50 H -23.488600 -14.124000 -2.106600 0
M  V30 51 H -29.758300 -12.999600 -0.839100 0
M  V30 52 H -21.702700 -12.929500 1.417500 0
M  V30 53 H -32.661200 -9.773400 -0.046800 0
M  V30 54 H -30.377900 -9.859200 0.663500 0
M  V30 55 H -23.351600 -11.935900 -3.034400 0
M  V30 56 H -21.674600 -8.552800 -3.070200 0
M  V30 57 H -22.843400 -9.630100 -3.444300 0
M  V30 58 H -27.388000 -8.587700 -1.645200 0
M  V30 59 H -28.832800 -10.419400 -3.147300 0
M  V30 60 H -23.692600 -7.368300 -3.249200 0
M  V30 61 H -23.325600 -7.646500 -0.450600 0
M  V30 END ATOM
M  V30 BEGIN BOND
M  V30 1 1 1 9
M  V30 2 1 1 10
M  V30 3 1 2 11
M  V30 4 1 2 24
M  V30 5 1 3 25
M  V30 6 1 4 5
M  V30 7 2 4 26
M  V30 8 1 5 27
M  V30 9 1 6 13
M  V30 10 1 6 28
M  V30 11 2 7 12
M  V30 12 1 7 29
M  V30 13 1 8 26
M  V30 14 2 9 16
M  V30 15 2 10 30
M  V30 16 1 11 25
M  V30 17 1 12 24
M  V30 18 2 13 31
M  V30 19 2 14 15
M  V30 20 1 14 17
M  V30 21 1 15 20
M  V30 22 1 16 30
M  V30 23 2 17 28
M  V30 24 1 18 19
M  V30 25 2 18 27
M  V30 26 2 19 32
M  V30 27 2 20 34
M  V30 28 1 21 25
M  V30 29 1 21 31
M  V30 30 2 22 24
M  V30 31 1 22 35
M  V30 32 1 23 32
M  V30 33 2 23 33
M  V30 34 1 26 33
M  V30 35 1 27 33
M  V30 36 1 28 34
M  V30 37 1 29 30
M  V30 38 2 29 35
M  V30 39 1 31 34
M  V30 40 1 32 35
M  V30 41 1 3 36 CFG=3
M  V30 42 1 3 37
M  V30 43 1 5 38
M  V30 44 1 6 39
M  V30 45 1 8 40 CFG=1
M  V30 46 1 8 41
M  V30 47 1 8 42
M  V30 48 1 9 43
M  V30 49 1 10 44
M  V30 50 1 11 45 CFG=3
M  V30 51 1 11 46
M  V30 52 1 12 47
M  V30 53 1 13 48
M  V30 54 1 14 49
M  V30 55 1 15 50
M  V30 56 1 16 51
M  V30 57 1 17 52
M  V30 58 1 18 53
M  V30 59 1 19 54
M  V30 60 1 20 55
M  V30 61 1 21 56 CFG=3
M  V30 62 1 21 57
M  V30 63 1 22 58
M  V30 64 1 23 59
M  V30 65 1 25 60 CFG=3
M  V30 66 1 3 61
M  V30 END BOND
M  V30 END CTAB
M  END
>  <Ligand_Instance>  (194) 
3KKV_B99_A_351

>  <Dataset>  (194) 
PDB

>  <PDB_ID>  (194) 
3KKV

>  <Chain>  (194) 
A

>  <Resi>  (194) 
351

>  <Num_Resolved_Atoms>  (194) 
35

>  <Num_H_Atoms_ProtBoundConf>  (194) 
26

>  <Pocket>  (194) 
A

>  <SMILES>  (194) 
Cc1c2cc(ccc2n[nH]1)c3cc(cnc3c4ccoc4)OC[C@H](Cc5c[nH]c6c5cccc6)N

>  <Name>  (194) 
(2S)-1-{[6-furan-3-yl-5-(3-methyl-2H-indazol-5-yl)pyridin-3-yl]oxy}-3-(1H-indol-3-yl)propan-2-amine

>  <Num_Heavy_Atoms>  (194) 
35

>  <Num_Not_Resolved_Atoms>  (194) 
0

>  <ATP_Site>  (194) 
True

>  <Peripheral>  (194) 
False

>  <Standardized_SMILES>  (194) 
[H]C1=NC(C2=C([H])OC([H])=C2[H])=C(C2=C([H])C([H])=C3C(=C2[H])C(C([H])([H])[H])=NN3[H])C([H])=C1OC([H])([H])[C@]([H])(C([H])([H])C1=C([H])N([H])C2=C([H])C([H])=C([H])C([H])=C21)[N+]([H])([H])[H]

$$$$
BEZ
     RDKit          3D

  0  0  0  0  0  0  0  0  0  0999 V3000
M  V30 BEGIN CTAB
M  V30 COUNTS 15 15 0 0 0
M  V30 BEGIN ATOM
M  V30 1 O -16.824000 2.507000 -20.539000 0
M  V30 2 O -16.623000 4.710000 -20.290000 0
M  V30 3 C -12.099000 3.047000 -18.966000 0
M  V30 4 C -12.611000 4.307000 -19.202000 0
M  V30 5 C -12.895000 1.937000 -19.158000 0
M  V30 6 C -13.925000 4.462000 -19.616000 0
M  V30 7 C -14.202000 2.080000 -19.593000 0
M  V30 8 C -16.159000 3.489000 -20.234000 0
M  V30 9 C -14.734000 3.348000 -19.824000 0
M  V30 10 H -11.154100 2.939300 -18.656900 0
M  V30 11 H -12.031400 5.111700 -19.073700 0
M  V30 12 H -12.526400 1.024200 -18.982200 0
M  V30 13 H -14.293900 5.379200 -19.766100 0
M  V30 14 H -14.767600 1.269000 -19.742300 0
M  V30 15 H -17.561700 4.874800 -20.592900 0
M  V30 END ATOM
M  V30 BEGIN BOND
M  V30 1 2 1 8
M  V30 2 1 2 8
M  V30 3 2 3 4
M  V30 4 1 3 5
M  V30 5 1 4 6
M  V30 6 2 5 7
M  V30 7 2 6 9
M  V30 8 1 7 9
M  V30 9 1 8 9
M  V30 10 1 7 14
M  V30 11 1 3 10
M  V30 12 1 4 11
M  V30 13 1 5 12
M  V30 14 1 6 13
M  V30 15 1 2 15
M  V30 END BOND
M  V30 END CTAB
M  END
>  <Ligand_Instance>  (195) 
6SNN_BEZ_A_401

>  <Dataset>  (195) 
PDB

>  <PDB_ID>  (195) 
6SNN

>  <Chain>  (195) 
A

>  <Resi>  (195) 
401

>  <Num_Resolved_Atoms>  (195) 
9

>  <Num_H_Atoms_ProtBoundConf>  (195) 
6

>  <Pocket>  (195) 
A

>  <SMILES>  (195) 
c1ccc(cc1)C(=O)O

>  <Name>  (195) 
BENZOIC ACID

>  <Num_Heavy_Atoms>  (195) 
9

>  <Num_Not_Resolved_Atoms>  (195) 
0

>  <ATP_Site>  (195) 
True

>  <Peripheral>  (195) 
True

>  <Standardized_SMILES>  (195) 
[H]OC(=O)C1=C([H])C([H])=C([H])C([H])=C1[H]

$$$$
BEZ
     RDKit          3D

  0  0  0  0  0  0  0  0  0  0999 V3000
M  V30 BEGIN CTAB
M  V30 COUNTS 14 14 0 0 0
M  V30 BEGIN ATOM
M  V30 1 O -5.895000 -2.163000 -51.361000 0
M  V30 2 O -8.095000 -1.949000 -51.046000 0 CHG=-1
M  V30 3 C -7.869000 -2.540000 -55.967000 0
M  V30 4 C -8.898000 -2.314000 -55.074000 0
M  V30 5 C -6.569000 -2.610000 -55.508000 0
M  V30 6 C -8.634000 -2.167000 -53.722000 0
M  V30 7 C -6.293000 -2.457000 -54.158000 0
M  V30 8 C -7.039000 -2.115000 -51.797000 0
M  V30 9 C -7.327000 -2.240000 -53.253000 0
M  V30 10 H -8.064700 -2.652400 -56.941200 0
M  V30 11 H -9.839700 -2.256100 -55.405500 0
M  V30 12 H -5.822100 -2.772000 -56.152900 0
M  V30 13 H -9.385400 -2.008000 -53.081600 0
M  V30 14 H -5.348100 -2.502800 -53.833900 0
M  V30 END ATOM
M  V30 BEGIN BOND
M  V30 1 2 1 8
M  V30 2 1 2 8
M  V30 3 2 3 4
M  V30 4 1 3 5
M  V30 5 1 4 6
M  V30 6 2 5 7
M  V30 7 2 6 9
M  V30 8 1 7 9
M  V30 9 1 8 9
M  V30 10 1 7 14
M  V30 11 1 3 10
M  V30 12 1 4 11
M  V30 13 1 5 12
M  V30 14 1 6 13
M  V30 END BOND
M  V30 END CTAB
M  END
>  <Ligand_Instance>  (196) 
6SNN_BEZ_A_402

>  <Dataset>  (196) 
PDB

>  <PDB_ID>  (196) 
6SNN

>  <Chain>  (196) 
A

>  <Resi>  (196) 
402

>  <Num_Resolved_Atoms>  (196) 
9

>  <Num_H_Atoms_ProtBoundConf>  (196) 
5

>  <Pocket>  (196) 
X

>  <SMILES>  (196) 
c1ccc(cc1)C(=O)O

>  <Name>  (196) 
BENZOIC ACID

>  <Num_Heavy_Atoms>  (196) 
9

>  <Num_Not_Resolved_Atoms>  (196) 
0

>  <ATP_Site>  (196) 
True

>  <Peripheral>  (196) 
True

>  <Standardized_SMILES>  (196) 
[H]C1=C([H])C([H])=C(C(=O)[O-])C([H])=C1[H]

$$$$
BJK
     RDKit          3D

  0  0  0  0  0  0  0  0  0  0999 V3000
M  V30 BEGIN CTAB
M  V30 COUNTS 23 23 0 0 0
M  V30 BEGIN ATOM
M  V30 1 O -13.598000 22.009000 -26.196000 0
M  V30 2 O -15.445000 22.987000 -24.522000 0
M  V30 3 N -10.437000 26.411000 -26.006000 0 CFG=1 CHG=1
M  V30 4 C -16.261000 23.458000 -23.448000 0 CFG=1
M  V30 5 C -11.646000 26.432000 -26.870000 0 CFG=2
M  V30 6 C -14.738000 25.273000 -25.005000 0
M  V30 7 C -13.782000 26.086000 -25.586000 0
M  V30 8 C -12.697000 24.179000 -26.527000 0
M  V30 9 C -13.649000 23.349000 -25.964000 0
M  V30 10 C -14.662000 23.901000 -25.171000 0
M  V30 11 C -12.742000 25.552000 -26.334000 0
M  V30 12 H -12.874200 21.628400 -26.771500 0
M  V30 13 H -9.736600 27.007300 -26.398300 0
M  V30 14 H -10.675900 26.734800 -25.090500 0
M  V30 15 H -16.779000 22.694100 -23.063100 0
M  V30 16 H -15.680400 23.857900 -22.738800 0
M  V30 17 H -16.894800 24.151700 -23.790300 0
M  V30 18 H -11.394500 26.112900 -27.783800 0
M  V30 19 H -11.985400 27.371000 -26.926500 0
M  V30 20 H -15.480100 25.674100 -24.467900 0
M  V30 21 H -13.841100 27.076900 -25.465000 0
M  V30 22 H -11.965000 23.783500 -27.081700 0
M  V30 23 H -10.085000 25.476800 -25.947800 0
M  V30 END ATOM
M  V30 BEGIN BOND
M  V30 1 1 1 9
M  V30 2 1 2 4
M  V30 3 1 2 10
M  V30 4 1 3 5
M  V30 5 1 5 11
M  V30 6 1 6 7
M  V30 7 2 6 10
M  V30 8 2 7 11
M  V30 9 2 8 9
M  V30 10 1 8 11
M  V30 11 1 9 10
M  V30 12 1 1 12
M  V30 13 1 3 13 CFG=3
M  V30 14 1 3 14
M  V30 15 1 4 15 CFG=1
M  V30 16 1 4 16
M  V30 17 1 4 17
M  V30 18 1 5 18 CFG=3
M  V30 19 1 5 19
M  V30 20 1 6 20
M  V30 21 1 7 21
M  V30 22 1 8 22
M  V30 23 1 3 23
M  V30 END BOND
M  V30 END CTAB
M  END
>  <Ligand_Instance>  (197) 
5N1M_BJK_A_403

>  <Dataset>  (197) 
PDB

>  <PDB_ID>  (197) 
5N1M

>  <Chain>  (197) 
A

>  <Resi>  (197) 
403

>  <Num_Resolved_Atoms>  (197) 
11

>  <Num_H_Atoms_ProtBoundConf>  (197) 
12

>  <Pocket>  (197) 
A

>  <SMILES>  (197) 
COc1ccc(cc1O)C[NH3+]

>  <Name>  (197) 
(4-methoxy-3-oxidanyl-phenyl)methylazanium

>  <Num_Heavy_Atoms>  (197) 
11

>  <Num_Not_Resolved_Atoms>  (197) 
0

>  <ATP_Site>  (197) 
True

>  <Peripheral>  (197) 
False

>  <Standardized_SMILES>  (197) 
[H]OC1=C([H])C(C([H])([H])[N+]([H])([H])[H])=C([H])C([H])=C1OC([H])([H])[H]

$$$$
BJN
     RDKit          3D

  0  0  0  0  0  0  0  0  0  0999 V3000
M  V30 BEGIN CTAB
M  V30 COUNTS 20 20 0 0 0
M  V30 BEGIN ATOM
M  V30 1 N -23.578000 -0.592000 6.347000 0 CFG=1 CHG=1
M  V30 2 N -29.232000 -2.108000 6.637000 0
M  V30 3 C -24.827000 -1.241000 6.828000 0 CFG=2
M  V30 4 C -29.602000 -2.175000 7.921000 0
M  V30 5 C -28.083000 -1.478000 6.364000 0
M  V30 6 C -28.862000 -1.625000 8.949000 0
M  V30 7 C -25.955000 -0.237000 6.956000 0 CFG=2
M  V30 8 C -27.676000 -0.987000 8.639000 0
M  V30 9 C -27.260000 -0.903000 7.319000 0
M  V30 10 H -23.044000 -0.274800 7.130700 0
M  V30 11 H -23.040200 -1.251900 5.822400 0
M  V30 12 H -24.655800 -1.654400 7.722300 0
M  V30 13 H -25.095800 -1.951900 6.178100 0
M  V30 14 H -30.454900 -2.645700 8.147000 0
M  V30 15 H -27.799600 -1.418300 5.406900 0
M  V30 16 H -29.177100 -1.687000 9.896000 0
M  V30 17 H -26.066000 0.238200 6.083100 0
M  V30 18 H -25.720200 0.424600 7.668200 0
M  V30 19 H -27.118400 -0.586300 9.366000 0
M  V30 20 H -23.810100 0.187000 5.764500 0
M  V30 END ATOM
M  V30 BEGIN BOND
M  V30 1 1 1 3
M  V30 2 2 2 4
M  V30 3 1 2 5
M  V30 4 1 3 7
M  V30 5 1 4 6
M  V30 6 2 5 9
M  V30 7 2 6 8
M  V30 8 1 7 9
M  V30 9 1 8 9
M  V30 10 1 1 10 CFG=1
M  V30 11 1 1 11
M  V30 12 1 3 12 CFG=1
M  V30 13 1 3 13
M  V30 14 1 4 14
M  V30 15 1 5 15
M  V30 16 1 6 16
M  V30 17 1 7 17 CFG=3
M  V30 18 1 7 18
M  V30 19 1 8 19
M  V30 20 1 1 20
M  V30 END BOND
M  V30 END CTAB
M  END
>  <Ligand_Instance>  (198) 
5N3B_BJN_A_402

>  <Dataset>  (198) 
PDB

>  <PDB_ID>  (198) 
5N3B

>  <Chain>  (198) 
A

>  <Resi>  (198) 
402

>  <Num_Resolved_Atoms>  (198) 
9

>  <Num_H_Atoms_ProtBoundConf>  (198) 
11

>  <Pocket>  (198) 
A

>  <SMILES>  (198) 
c1cc(cnc1)CC[NH3+]

>  <Name>  (198) 
2-pyridin-3-ylethylazanium

>  <Num_Heavy_Atoms>  (198) 
9

>  <Num_Not_Resolved_Atoms>  (198) 
0

>  <ATP_Site>  (198) 
True

>  <Peripheral>  (198) 
False

>  <Standardized_SMILES>  (198) 
[H]C1=NC([H])=C(C([H])([H])C([H])([H])[N+]([H])([H])[H])C([H])=C1[H]

$$$$
BJQ
     RDKit          3D

  0  0  0  0  0  0  0  0  0  0999 V3000
M  V30 BEGIN CTAB
M  V30 COUNTS 27 27 0 0 0
M  V30 BEGIN ATOM
M  V30 1 O -31.156000 23.065000 -3.466000 0
M  V30 2 O -29.512000 23.142000 -1.961000 0
M  V30 3 N -30.483000 25.445000 -4.549000 0 CFG=1 CHG=1
M  V30 4 C -29.856000 21.803000 -1.536000 0 CFG=1
M  V30 5 C -34.511000 26.504000 -1.725000 0
M  V30 6 C -33.888000 25.406000 -1.176000 0
M  V30 7 C -33.765000 27.436000 -2.412000 0
M  V30 8 C -32.518000 25.248000 -1.298000 0
M  V30 9 C -32.393000 27.281000 -2.531000 0
M  V30 10 C -30.257000 26.003000 -2.118000 0 CFG=2
M  V30 11 C -30.263000 23.646000 -2.927000 0
M  V30 12 C -29.841000 25.065000 -3.259000 0 CFG=1
M  V30 13 C -31.749000 26.186000 -1.973000 0
M  V30 14 H -30.189100 24.813400 -5.266400 0
M  V30 15 H -31.477300 25.400300 -4.452400 0
M  V30 16 H -29.234500 21.514500 -0.807600 0
M  V30 17 H -30.796200 21.792600 -1.195600 0
M  V30 18 H -29.775100 21.176200 -2.311000 0
M  V30 19 H -35.498800 26.624200 -1.625700 0
M  V30 20 H -34.427000 24.720000 -0.687300 0
M  V30 21 H -34.214900 28.227200 -2.826300 0
M  V30 22 H -32.076200 24.446900 -0.894200 0
M  V30 23 H -31.860000 27.967500 -3.025600 0
M  V30 24 H -29.846700 26.899600 -2.284900 0
M  V30 25 H -29.903100 25.628900 -1.260800 0
M  V30 26 H -28.847100 25.096300 -3.364600 0
M  V30 27 H -30.213400 26.376300 -4.793900 0
M  V30 END ATOM
M  V30 BEGIN BOND
M  V30 1 2 1 11
M  V30 2 1 2 4
M  V30 3 1 2 11
M  V30 4 1 3 12
M  V30 5 2 5 6
M  V30 6 1 5 7
M  V30 7 1 6 8
M  V30 8 2 7 9
M  V30 9 2 8 13
M  V30 10 1 9 13
M  V30 11 1 10 12
M  V30 12 1 10 13
M  V30 13 1 11 12
M  V30 14 1 3 14 CFG=3
M  V30 15 1 3 15
M  V30 16 1 4 16 CFG=1
M  V30 17 1 4 17
M  V30 18 1 4 18
M  V30 19 1 5 19
M  V30 20 1 6 20
M  V30 21 1 7 21
M  V30 22 1 8 22
M  V30 23 1 9 23
M  V30 24 1 10 24 CFG=3
M  V30 25 1 10 25
M  V30 26 1 12 26 CFG=3
M  V30 27 1 3 27
M  V30 END BOND
M  V30 END CTAB
M  END
>  <Ligand_Instance>  (199) 
5N3I_BJQ_A_404

>  <Dataset>  (199) 
PDB

>  <PDB_ID>  (199) 
5N3I

>  <Chain>  (199) 
A

>  <Resi>  (199) 
404

>  <Num_Resolved_Atoms>  (199) 
13

>  <Num_H_Atoms_ProtBoundConf>  (199) 
14

>  <Pocket>  (199) 
X

>  <SMILES>  (199) 
COC(=O)[C@H](Cc1ccccc1)[NH3+]

>  <Name>  (199) 
[(2~{S})-1-methoxy-1-oxidanylidene-3-phenyl-propan-2-yl]azanium

>  <Num_Heavy_Atoms>  (199) 
13

>  <Num_Not_Resolved_Atoms>  (199) 
0

>  <ATP_Site>  (199) 
False

>  <Peripheral>  (199) 
True

>  <Standardized_SMILES>  (199) 
[H]C1=C([H])C([H])=C(C([H])([H])[C@@]([H])(C(=O)OC([H])([H])[H])[N+]([H])([H])[H])C([H])=C1[H]

$$$$
BVZ
     RDKit          3D

  0  0  0  0  0  0  0  0  0  0999 V3000
M  V30 BEGIN CTAB
M  V30 COUNTS 56 59 0 0 0
M  V30 BEGIN ATOM
M  V30 1 S 7.824000 11.219000 7.635000 0 CFG=2
M  V30 2 O 7.086000 10.814000 6.476000 0
M  V30 3 O 8.125000 10.281000 8.656000 0
M  V30 4 O 2.911000 8.404000 11.154000 0
M  V30 5 O 3.941000 10.130000 9.800000 0
M  V30 6 N 13.060000 9.921000 6.792000 0
M  V30 7 N 6.931000 12.393000 8.342000 0
M  V30 8 N 4.964000 12.495000 10.645000 0 CFG=2 CHG=1
M  V30 9 C 11.912000 9.244000 6.949000 0
M  V30 10 C 12.987000 11.243000 6.744000 0
M  V30 11 C 7.378000 12.848000 9.671000 0 CFG=2
M  V30 12 C 6.507000 12.458000 10.813000 0 CFG=2
M  V30 13 C 5.880000 13.163000 7.642000 0 CFG=2
M  V30 14 C 4.527000 13.593000 9.765000 0 CFG=2
M  V30 15 C 4.415000 12.659000 11.999000 0 CFG=2
M  V30 16 C 4.513000 13.232000 8.296000 0 CFG=2
M  V30 17 C 0.794000 12.748000 13.020000 0
M  V30 18 C 0.373000 11.469000 12.727000 0
M  V30 19 C 10.517000 14.047000 6.848000 0
M  V30 20 C 10.685000 9.830000 7.079000 0
M  V30 21 C 9.340000 13.346000 7.062000 0
M  V30 22 C 2.091000 13.127000 12.730000 0
M  V30 23 C 11.715000 13.393000 6.758000 0
M  V30 24 C 1.249000 10.561000 12.145000 0
M  V30 25 C 9.358000 11.982000 7.178000 0
M  V30 26 C 11.779000 11.979000 6.848000 0
M  V30 27 C 2.982000 12.217000 12.165000 0
M  V30 28 C 10.582000 11.242000 7.047000 0
M  V30 29 C 2.575000 10.900000 11.853000 0
M  V30 30 B 3.534000 9.798000 11.193000 0 CFG=1 CHG=-1
M  V30 31 H 11.957800 8.245300 6.972300 0
M  V30 32 H 13.838100 11.754700 6.626900 0
M  V30 33 H 7.431300 13.846400 9.652100 0
M  V30 34 H 8.288500 12.468700 9.835500 0
M  V30 35 H 6.750600 11.519400 11.057300 0
M  V30 36 H 6.731700 13.069000 11.572100 0
M  V30 37 H 5.759700 12.753100 6.737900 0
M  V30 38 H 6.212000 14.100900 7.541200 0
M  V30 39 H 5.148400 14.365900 9.893500 0
M  V30 40 H 3.601500 13.861400 10.032200 0
M  V30 41 H 4.470600 13.627700 12.240900 0
M  V30 42 H 4.979000 12.125200 12.629000 0
M  V30 43 H 4.077300 12.337000 8.200200 0
M  V30 44 H 3.971600 13.919700 7.812300 0
M  V30 45 H 0.163100 13.399700 13.441000 0
M  V30 46 H -0.565800 11.193500 12.933900 0
M  V30 47 H 10.489700 15.042600 6.758400 0
M  V30 48 H 9.866800 9.267000 7.195700 0
M  V30 49 H 8.473100 13.839500 7.132000 0
M  V30 50 H 2.391800 14.060100 12.926900 0
M  V30 51 H 12.555900 13.918200 6.627200 0
M  V30 52 H 0.923200 9.640600 11.929000 0
M  V30 53 H 2.622600 8.141900 12.074900 0
M  V30 54 H 3.136600 10.118300 9.206000 0
M  V30 55 H 4.652200 11.623900 10.265600 0
M  V30 56 R# 4.932000 9.609000 11.758000 0 RGROUPS=(1 1)
M  V30 END ATOM
M  V30 BEGIN BOND
M  V30 1 1 5 54
M  V30 2 1 4 53
M  V30 3 1 22 50
M  V30 4 1 21 49
M  V30 5 1 20 48
M  V30 6 1 19 47
M  V30 7 1 18 46
M  V30 8 1 17 45
M  V30 9 1 16 44 CFG=3
M  V30 10 1 16 43
M  V30 11 1 15 42 CFG=1
M  V30 12 1 15 41
M  V30 13 1 14 40 CFG=1
M  V30 14 1 14 39
M  V30 15 1 30 56 CFG=1
M  V30 16 2 1 2
M  V30 17 2 1 3
M  V30 18 1 1 7 CFG=1
M  V30 19 1 1 25
M  V30 20 1 4 30
M  V30 21 1 5 30
M  V30 22 2 6 9
M  V30 23 1 6 10
M  V30 24 1 7 11
M  V30 25 1 7 13
M  V30 26 1 8 12
M  V30 27 1 8 14
M  V30 28 1 8 15
M  V30 29 1 9 20
M  V30 30 2 10 26
M  V30 31 1 11 12
M  V30 32 1 13 16
M  V30 33 1 14 16
M  V30 34 1 15 27
M  V30 35 2 17 18
M  V30 36 1 17 22
M  V30 37 1 18 24
M  V30 38 1 19 21
M  V30 39 2 19 23
M  V30 40 2 20 28
M  V30 41 2 21 25
M  V30 42 2 22 27
M  V30 43 1 23 26
M  V30 44 2 24 29
M  V30 45 1 25 28
M  V30 46 1 26 28
M  V30 47 1 27 29
M  V30 48 1 29 30
M  V30 49 1 24 52
M  V30 50 1 23 51
M  V30 51 1 9 31
M  V30 52 1 10 32
M  V30 53 1 11 33 CFG=3
M  V30 54 1 11 34
M  V30 55 1 12 35 CFG=1
M  V30 56 1 12 36
M  V30 57 1 13 37 CFG=3
M  V30 58 1 13 38
M  V30 59 1 8 55 CFG=3
M  V30 END BOND
M  V30 END CTAB
M  END
>  <Ligand_Instance>  (200) 
6ERT_BVZ_A_401

>  <Dataset>  (200) 
PDB

>  <PDB_ID>  (200) 
6ERT

>  <Chain>  (200) 
A

>  <Resi>  (200) 
401

>  <Num_Resolved_Atoms>  (200) 
30

>  <Num_H_Atoms_ProtBoundConf>  (200) 
25

>  <Pocket>  (200) 
A

>  <SMILES>  (200) 
[B-](c1ccccc1CN2CCCN(CC2)S(=O)(=O)c3cccc4c3ccnc4)(O)(O)O

>  <Name>  (200) 
[2-[(4-isoquinolin-5-ylsulfonyl-1,4-diazepan-1-yl)methyl]phenyl]-tris(oxidanyl)boranuide

>  <Num_Heavy_Atoms>  (200) 
31

>  <Num_Not_Resolved_Atoms>  (200) 
1

>  <ATP_Site>  (200) 
True

>  <Peripheral>  (200) 
False

>  <Standardized_SMILES>  (200) 
[1*][B-](O[H])(O[H])C1=C([H])C([H])=C([H])C([H])=C1C([H])([H])[N@+]1([H])C([H])([H])C([H])([H])N(S(=O)(=O)C2=C([H])C([H])=C([H])C3=C([H])N=C([H])C([H])=C32)C([H])([H])C([H])([H])C1([H])[H]

$$$$
CDT
     RDKit          3D

  0  0  0  0  0  0  0  0  0  0999 V3000
M  V30 BEGIN CTAB
M  V30 COUNTS 23 22 0 0 0
M  V30 BEGIN ATOM
M  V30 1 S 17.891000 2.647000 5.559000 0
M  V30 2 O 18.954000 3.597000 -0.304000 0
M  V30 3 O 17.316000 -0.047000 0.184000 0
M  V30 4 O 19.382000 0.628000 0.554000 0 CHG=-1
M  V30 5 N 16.892000 4.336000 -0.865000 0
M  V30 6 N 17.172000 2.980000 0.944000 0
M  V30 7 C 19.652000 2.559000 5.816000 0 CFG=1
M  V30 8 C 17.835000 3.074000 3.811000 0 CFG=2
M  V30 9 C 18.431000 2.040000 2.869000 0 CFG=2
M  V30 10 C 17.736000 3.635000 -0.100000 0
M  V30 11 C 18.136000 0.697000 0.703000 0
M  V30 12 C 17.558000 1.763000 1.645000 0 CFG=2
M  V30 13 H 15.913300 4.335700 -0.659700 0
M  V30 14 H 17.239700 4.860400 -1.642300 0
M  V30 15 H 16.340800 3.409900 1.296600 0
M  V30 16 H 19.838300 2.323700 6.769900 0
M  V30 17 H 20.041600 1.858800 5.217800 0
M  V30 18 H 20.064400 3.445100 5.604600 0
M  V30 19 H 18.335900 3.930400 3.686200 0
M  V30 20 H 16.877300 3.207900 3.556400 0
M  V30 21 H 18.552400 1.184600 3.372500 0
M  V30 22 H 19.320900 2.371600 2.555700 0
M  V30 23 H 16.707900 1.375700 2.001800 0
M  V30 END ATOM
M  V30 BEGIN BOND
M  V30 1 1 1 7
M  V30 2 1 1 8
M  V30 3 2 2 10
M  V30 4 2 3 11
M  V30 5 1 4 11
M  V30 6 1 5 10
M  V30 7 1 6 10
M  V30 8 1 6 12
M  V30 9 1 8 9
M  V30 10 1 9 12
M  V30 11 1 11 12
M  V30 12 1 12 23 CFG=1
M  V30 13 1 5 13
M  V30 14 1 5 14
M  V30 15 1 6 15
M  V30 16 1 7 16 CFG=1
M  V30 17 1 7 17
M  V30 18 1 7 18
M  V30 19 1 8 19 CFG=1
M  V30 20 1 8 20
M  V30 21 1 9 21 CFG=1
M  V30 22 1 9 22
M  V30 END BOND
M  V30 END CTAB
M  END
>  <Ligand_Instance>  (201) 
5N3R_CDT_A_401

>  <Dataset>  (201) 
PDB

>  <PDB_ID>  (201) 
5N3R

>  <Chain>  (201) 
A

>  <Resi>  (201) 
401

>  <Num_Resolved_Atoms>  (201) 
12

>  <Num_H_Atoms_ProtBoundConf>  (201) 
11

>  <Pocket>  (201) 
F

>  <SMILES>  (201) 
CSCC[C@H](C(=O)O)NC(=O)N

>  <Name>  (201) 
4-METHYLSULFANYL-2-UREIDO-BUTYRIC ACID

>  <Num_Heavy_Atoms>  (201) 
12

>  <Num_Not_Resolved_Atoms>  (201) 
0

>  <ATP_Site>  (201) 
False

>  <Peripheral>  (201) 
True

>  <Standardized_SMILES>  (201) 
[H]N([H])C(=O)N([H])[C@@]([H])(C(=O)[O-])C([H])([H])C([H])([H])SC([H])([H])[H]

$$$$
E3Z
     RDKit          3D

  0  0  0  0  0  0  0  0  0  0999 V3000
M  V30 BEGIN CTAB
M  V30 COUNTS 44 46 0 0 0
M  V30 BEGIN ATOM
M  V30 1 Cl -15.277000 7.004000 -17.176000 0
M  V30 2 O -6.563000 4.378000 -18.554000 0
M  V30 3 N -17.015000 3.585000 -18.180000 0
M  V30 4 N -14.832000 3.077000 -17.631000 0
M  V30 5 N -16.384000 1.388000 -18.347000 0
M  V30 6 N -8.788000 4.143000 -18.074000 0
M  V30 7 N -13.338000 4.830000 -16.932000 0
M  V30 8 C -5.490000 2.952000 -16.500000 0 CFG=1
M  V30 9 C -16.808000 4.929000 -17.917000 0
M  V30 10 C -7.012000 3.061000 -16.649000 0 CFG=2
M  V30 11 C -14.178000 -2.139000 -17.815000 0
M  V30 12 C -15.550000 -2.166000 -18.031000 0
M  V30 13 C -13.523000 -0.912000 -17.779000 0
M  V30 14 C -11.160000 1.974000 -16.199000 0
M  V30 15 C -16.251000 -0.972000 -18.209000 0
M  V30 16 C -14.233000 0.275000 -17.947000 0
M  V30 17 C -9.977000 2.406000 -16.797000 0
M  V30 18 C -12.297000 2.778000 -16.239000 0
M  V30 19 C -11.050000 4.437000 -17.467000 0
M  V30 20 C -16.046000 2.671000 -18.040000 0
M  V30 21 C -7.458000 3.900000 -17.843000 0
M  V30 22 C -15.548000 5.328000 -17.493000 0
M  V30 23 C -14.550000 4.370000 -17.340000 0
M  V30 24 C -15.613000 0.270000 -18.162000 0
M  V30 25 C -9.890000 3.656000 -17.422000 0
M  V30 26 C -12.257000 4.019000 -16.883000 0
M  V30 27 H -17.288600 1.246900 -18.749200 0
M  V30 28 H -8.981900 4.768000 -18.830100 0
M  V30 29 H -13.243600 5.788300 -16.662400 0
M  V30 30 H -5.272600 2.391000 -15.701300 0
M  V30 31 H -5.104300 2.528600 -17.319700 0
M  V30 32 H -5.100400 3.865400 -16.381800 0
M  V30 33 H -17.546400 5.593900 -18.029500 0
M  V30 34 H -7.380800 3.476000 -15.817300 0
M  V30 35 H -7.384800 2.139200 -16.755200 0
M  V30 36 H -13.668200 -2.989700 -17.687100 0
M  V30 37 H -16.035100 -3.040000 -18.059000 0
M  V30 38 H -12.534400 -0.881800 -17.631300 0
M  V30 39 H -11.192400 1.085800 -15.740700 0
M  V30 40 H -17.236600 -1.006600 -18.374600 0
M  V30 41 H -13.745100 1.147300 -17.913000 0
M  V30 42 H -9.173700 1.810700 -16.779200 0
M  V30 43 H -13.143400 2.467300 -15.806500 0
M  V30 44 H -11.018700 5.322500 -17.930500 0
M  V30 END ATOM
M  V30 BEGIN BOND
M  V30 1 1 1 22
M  V30 2 2 2 21
M  V30 3 2 3 9
M  V30 4 1 3 20
M  V30 5 2 4 20
M  V30 6 1 4 23
M  V30 7 1 5 20
M  V30 8 1 5 24
M  V30 9 1 6 21
M  V30 10 1 6 25
M  V30 11 1 7 23
M  V30 12 1 7 26
M  V30 13 1 8 10
M  V30 14 1 9 22
M  V30 15 1 10 21
M  V30 16 2 11 12
M  V30 17 1 11 13
M  V30 18 1 12 15
M  V30 19 2 13 16
M  V30 20 1 14 17
M  V30 21 2 14 18
M  V30 22 2 15 24
M  V30 23 1 16 24
M  V30 24 2 17 25
M  V30 25 1 18 26
M  V30 26 1 19 25
M  V30 27 2 19 26
M  V30 28 2 22 23
M  V30 29 1 5 27
M  V30 30 1 6 28
M  V30 31 1 7 29
M  V30 32 1 8 30 CFG=1
M  V30 33 1 8 31
M  V30 34 1 8 32
M  V30 35 1 9 33
M  V30 36 1 10 34 CFG=1
M  V30 37 1 10 35
M  V30 38 1 11 36
M  V30 39 1 12 37
M  V30 40 1 13 38
M  V30 41 1 14 39
M  V30 42 1 15 40
M  V30 43 1 16 41
M  V30 44 1 17 42
M  V30 45 1 18 43
M  V30 46 1 19 44
M  V30 END BOND
M  V30 END CTAB
M  END
>  <Ligand_Instance>  (202) 
6FRX_E3Z_A_401

>  <Dataset>  (202) 
PDB

>  <PDB_ID>  (202) 
6FRX

>  <Chain>  (202) 
A

>  <Resi>  (202) 
401

>  <Num_Resolved_Atoms>  (202) 
26

>  <Num_H_Atoms_ProtBoundConf>  (202) 
18

>  <Pocket>  (202) 
A

>  <SMILES>  (202) 
C=CC(=O)Nc1cccc(c1)Nc2c(cnc(n2)Nc3ccccc3)Cl

>  <Name>  (202) 
~{N}-[3-[(5-chloranyl-2-phenylazanyl-pyrimidin-4-yl)amino]phenyl]prop-2-enamide

>  <Num_Heavy_Atoms>  (202) 
26

>  <Num_Not_Resolved_Atoms>  (202) 
0

>  <ATP_Site>  (202) 
True

>  <Peripheral>  (202) 
False

>  <Standardized_SMILES>  (202) 
[H]C1=NC(N([H])C2=C([H])C([H])=C([H])C([H])=C2[H])=NC(N([H])C2=C([H])C(N([H])C(=O)C([H])([H])C([H])([H])[H])=C([H])C([H])=C2[H])=C1Cl

$$$$
E5E
     RDKit          3D

  0  0  0  0  0  0  0  0  0  0999 V3000
M  V30 BEGIN CTAB
M  V30 COUNTS 24 24 0 0 0
M  V30 BEGIN ATOM
M  V30 1 O -15.530000 2.673000 -30.150000 0
M  V30 2 O -9.347000 3.272000 -28.421000 0
M  V30 3 O -10.557000 5.647000 -28.671000 0
M  V30 4 N -17.014000 3.617000 -27.765000 0 CFG=1 CHG=1
M  V30 5 C -15.568000 3.258000 -27.840000 0 CFG=2
M  V30 6 C -11.431000 2.143000 -28.913000 0
M  V30 7 C -12.797000 2.224000 -29.120000 0
M  V30 8 C -12.682000 4.618000 -29.051000 0
M  V30 9 C -14.961000 3.578000 -29.204000 0 CFG=1
M  V30 10 C -10.683000 3.302000 -28.749000 0
M  V30 11 C -11.319000 4.546000 -28.833000 0
M  V30 12 C -13.445000 3.463000 -29.169000 0
M  V30 13 H -14.871300 2.498100 -30.881800 0
M  V30 14 H -8.839900 4.126800 -28.311000 0
M  V30 15 H -9.573400 5.555800 -28.515100 0
M  V30 16 H -17.367000 3.390500 -26.857200 0
M  V30 17 H -17.123100 4.597200 -27.930000 0
M  V30 18 H -15.470600 2.278000 -27.666700 0
M  V30 19 H -15.072500 3.771200 -27.139200 0
M  V30 20 H -10.982300 1.249900 -28.881500 0
M  V30 21 H -13.328500 1.384900 -29.236200 0
M  V30 22 H -13.124100 5.511900 -29.124600 0
M  V30 23 H -15.209700 4.512500 -29.458700 0
M  V30 24 H -17.521200 3.103900 -28.457500 0
M  V30 END ATOM
M  V30 BEGIN BOND
M  V30 1 1 1 9
M  V30 2 1 2 10
M  V30 3 1 3 11
M  V30 4 1 4 5
M  V30 5 1 5 9
M  V30 6 1 6 7
M  V30 7 2 6 10
M  V30 8 2 7 12
M  V30 9 2 8 11
M  V30 10 1 8 12
M  V30 11 1 9 12
M  V30 12 1 10 11
M  V30 13 1 1 13
M  V30 14 1 2 14
M  V30 15 1 3 15
M  V30 16 1 4 16 CFG=1
M  V30 17 1 4 17
M  V30 18 1 5 18 CFG=1
M  V30 19 1 5 19
M  V30 20 1 6 20
M  V30 21 1 7 21
M  V30 22 1 8 22
M  V30 23 1 9 23 CFG=3
M  V30 24 1 4 24
M  V30 END BOND
M  V30 END CTAB
M  END
>  <Ligand_Instance>  (203) 
5N3L_E5E_A_403

>  <Dataset>  (203) 
PDB

>  <PDB_ID>  (203) 
5N3L

>  <Chain>  (203) 
A

>  <Resi>  (203) 
403

>  <Num_Resolved_Atoms>  (203) 
12

>  <Num_H_Atoms_ProtBoundConf>  (203) 
12

>  <Pocket>  (203) 
A

>  <SMILES>  (203) 
c1cc(c(cc1[C@H](C[NH3+])O)O)O

>  <Name>  (203) 
Noradrenaline

>  <Num_Heavy_Atoms>  (203) 
12

>  <Num_Not_Resolved_Atoms>  (203) 
0

>  <ATP_Site>  (203) 
True

>  <Peripheral>  (203) 
False

>  <Standardized_SMILES>  (203) 
[H]OC1=C([H])C([H])=C([C@@]([H])(O[H])C([H])([H])[N+]([H])([H])[H])C([H])=C1O[H]

$$$$
E9Q
     RDKit          3D

  0  0  0  0  0  0  0  0  0  0999 V3000
M  V30 BEGIN CTAB
M  V30 COUNTS 24 25 0 0 0
M  V30 BEGIN ATOM
M  V30 1 N 133.630000 27.337000 23.139000 0
M  V30 2 N 133.565000 23.564000 23.137000 0
M  V30 3 N 131.839000 23.317000 24.717000 0
M  V30 4 N 130.966000 24.071000 25.472000 0
M  V30 5 N 130.664000 26.362000 25.828000 0
M  V30 6 C 133.078000 26.498000 23.690000 0
M  V30 7 C 129.620000 26.168000 26.848000 0 CFG=2
M  V30 8 C 130.946000 27.783000 25.613000 0 CFG=2
M  V30 9 C 129.356000 27.567000 27.362000 0 CFG=2
M  V30 10 C 129.746000 28.468000 26.230000 0 CFG=2
M  V30 11 C 132.697000 24.061000 24.011000 0
M  V30 12 C 131.315000 25.310000 25.231000 0
M  V30 13 C 132.422000 25.390000 24.311000 0
M  V30 14 H 134.180600 24.176000 22.640500 0
M  V30 15 H 133.602900 22.577900 22.975500 0
M  V30 16 H 131.831400 22.317200 24.699200 0
M  V30 17 H 129.945800 25.573600 27.583200 0
M  V30 18 H 128.794400 25.775200 26.443000 0
M  V30 19 H 131.016200 27.991500 24.637500 0
M  V30 20 H 131.790900 28.055100 26.073600 0
M  V30 21 H 129.912300 27.756300 28.171100 0
M  V30 22 H 128.388800 27.683000 27.587900 0
M  V30 23 H 129.002100 28.547400 25.566500 0
M  V30 24 H 129.990300 29.377100 26.567400 0
M  V30 END ATOM
M  V30 BEGIN BOND
M  V30 1 3 1 6
M  V30 2 1 2 11
M  V30 3 1 3 4
M  V30 4 1 3 11
M  V30 5 2 4 12
M  V30 6 1 5 7
M  V30 7 1 5 8
M  V30 8 1 5 12
M  V30 9 1 6 13
M  V30 10 1 7 9
M  V30 11 1 8 10
M  V30 12 1 9 10
M  V30 13 2 11 13
M  V30 14 1 12 13
M  V30 15 1 2 14
M  V30 16 1 2 15
M  V30 17 1 3 16
M  V30 18 1 7 17 CFG=1
M  V30 19 1 7 18
M  V30 20 1 8 19 CFG=3
M  V30 21 1 8 20
M  V30 22 1 9 21 CFG=1
M  V30 23 1 9 22
M  V30 24 1 10 23 CFG=3
M  V30 25 1 10 24
M  V30 END BOND
M  V30 END CTAB
M  END
>  <Ligand_Instance>  (204) 
5N7P_E9Q_A_401

>  <Dataset>  (204) 
PDB

>  <PDB_ID>  (204) 
5N7P

>  <Chain>  (204) 
A

>  <Resi>  (204) 
401

>  <Num_Resolved_Atoms>  (204) 
13

>  <Num_H_Atoms_ProtBoundConf>  (204) 
11

>  <Pocket>  (204) 
A

>  <SMILES>  (204) 
C1CCN(C1)c2c(c([nH]n2)N)C#N

>  <Name>  (204) 
5-azanyl-3-pyrrolidin-1-yl-1~{H}-pyrazole-4-carbonitrile

>  <Num_Heavy_Atoms>  (204) 
13

>  <Num_Not_Resolved_Atoms>  (204) 
0

>  <ATP_Site>  (204) 
True

>  <Peripheral>  (204) 
False

>  <Standardized_SMILES>  (204) 
[H]N([H])C1=C(C#N)C(N2C([H])([H])C([H])([H])C([H])([H])C2([H])[H])=NN1[H]

$$$$
EE4
     RDKit          3D

  0  0  0  0  0  0  0  0  0  0999 V3000
M  V30 BEGIN CTAB
M  V30 COUNTS 69 73 0 0 0
M  V30 BEGIN ATOM
M  V30 1 F -9.185000 55.412000 95.947000 0
M  V30 2 O -9.484000 59.671000 88.844000 0
M  V30 3 O -13.672000 61.198000 90.106000 0
M  V30 4 O -6.743000 55.544000 93.985000 0
M  V30 5 O -9.469000 56.088000 98.642000 0
M  V30 6 O -5.539000 58.642000 95.424000 0
M  V30 7 N -17.348000 61.996000 84.241000 0
M  V30 8 N -17.867000 61.287000 85.282000 0
M  V30 9 N -9.710000 64.618000 89.349000 0
M  V30 10 N -9.727000 61.518000 90.218000 0
M  V30 11 N -12.706000 62.750000 88.743000 0
M  V30 12 C -10.895000 56.345000 98.268000 0 CFG=1
M  V30 13 C -2.988000 61.335000 95.780000 0 CFG=1
M  V30 14 C -4.584000 59.301000 96.085000 0 CFG=2
M  V30 15 C -16.141000 62.463000 84.606000 0
M  V30 16 C -9.163000 63.465000 88.949000 0 CFG=2
M  V30 17 C -11.261000 64.360000 89.699000 0
M  V30 18 C -3.973000 60.405000 95.093000 0 CFG=2
M  V30 19 C -7.679000 57.676000 98.384000 0
M  V30 20 C -6.714000 58.302000 97.596000 0
M  V30 21 C -17.080000 60.671000 87.646000 0
M  V30 22 C -8.693000 59.669000 92.338000 0
M  V30 23 C -8.460000 57.778000 90.802000 0
M  V30 24 C -16.010000 60.834000 88.545000 0
M  V30 25 C -8.200000 58.843000 93.390000 0
M  V30 26 C -7.984000 56.977000 91.821000 0
M  V30 27 C -14.798000 62.183000 86.869000 0
M  V30 28 C -9.368000 60.087000 89.917000 0
M  V30 29 C -13.728000 61.784000 89.102000 0
M  V30 30 C -8.387000 56.358000 96.511000 0
M  V30 31 C -7.299000 56.584000 94.275000 0
M  V30 32 C -8.519000 56.701000 97.837000 0
M  V30 33 C -6.586000 57.968000 96.298000 0
M  V30 34 C -17.008000 61.276000 86.337000 0
M  V30 35 C -10.205000 62.344000 89.203000 0 CFG=2
M  V30 36 C -11.494000 63.037000 89.693000 0 CFG=2
M  V30 37 C -8.824000 59.165000 91.080000 0
M  V30 38 C -14.865000 61.582000 88.159000 0
M  V30 39 C -7.849000 57.505000 93.127000 0
M  V30 40 C -15.875000 62.018000 85.959000 0
M  V30 41 C -7.441000 56.974000 95.737000 0
M  V30 42 H -18.759200 60.835400 85.272100 0
M  V30 43 H -9.622400 61.875300 91.146100 0
M  V30 44 H -12.776800 63.240600 87.874500 0
M  V30 45 H -11.498300 55.863200 98.903500 0
M  V30 46 H -11.079600 57.326800 98.312600 0
M  V30 47 H -11.060000 56.016700 97.338000 0
M  V30 48 H -2.640100 61.999500 95.118600 0
M  V30 49 H -3.448700 61.816600 96.525500 0
M  V30 50 H -2.226700 60.801200 96.148100 0
M  V30 51 H -3.866600 58.665200 96.369600 0
M  V30 52 H -4.973600 59.746400 96.891100 0
M  V30 53 H -15.532500 63.020700 84.041500 0
M  V30 54 H -8.330300 63.282300 89.471700 0
M  V30 55 H -8.941700 63.511500 87.974900 0
M  V30 56 H -11.939800 65.069100 89.889700 0
M  V30 57 H -3.501800 59.936700 94.345500 0
M  V30 58 H -4.723800 60.952100 94.722900 0
M  V30 59 H -7.771100 57.926200 99.347800 0
M  V30 60 H -6.117400 58.998500 97.994600 0
M  V30 61 H -17.884600 60.139900 87.911800 0
M  V30 62 H -8.942800 60.619200 92.524100 0
M  V30 63 H -8.555200 57.409900 89.877100 0
M  V30 64 H -16.055200 60.423400 89.455700 0
M  V30 65 H -8.103500 59.213400 94.313800 0
M  V30 66 H -7.735300 56.026100 91.636600 0
M  V30 67 H -13.995700 62.718800 86.605700 0
M  V30 68 H -10.376600 61.820700 88.368300 0
M  V30 69 H -11.711300 62.728800 90.619200 0
M  V30 END ATOM
M  V30 BEGIN BOND
M  V30 1 1 1 30
M  V30 2 2 2 28
M  V30 3 2 3 29
M  V30 4 2 4 31
M  V30 5 1 5 12
M  V30 6 1 5 32
M  V30 7 1 6 14
M  V30 8 1 6 33
M  V30 9 1 7 8
M  V30 10 2 7 15
M  V30 11 1 8 34
M  V30 12 1 9 16
M  V30 13 2 9 17
M  V30 14 1 10 28
M  V30 15 1 10 35
M  V30 16 1 11 29
M  V30 17 1 11 36
M  V30 18 1 13 18
M  V30 19 1 14 18
M  V30 20 1 15 40
M  V30 21 1 16 35
M  V30 22 1 17 36
M  V30 23 2 19 20
M  V30 24 1 19 32
M  V30 25 1 20 33
M  V30 26 1 21 24
M  V30 27 2 21 34
M  V30 28 1 22 25
M  V30 29 2 22 37
M  V30 30 2 23 26
M  V30 31 1 23 37
M  V30 32 2 24 38
M  V30 33 2 25 39
M  V30 34 1 26 39
M  V30 35 1 27 38
M  V30 36 2 27 40
M  V30 37 1 28 37
M  V30 38 1 29 38
M  V30 39 2 30 32
M  V30 40 1 30 41
M  V30 41 1 31 39
M  V30 42 1 31 41
M  V30 43 2 33 41
M  V30 44 1 34 40
M  V30 45 1 35 36
M  V30 46 1 8 42
M  V30 47 1 10 43
M  V30 48 1 11 44
M  V30 49 1 12 45 CFG=1
M  V30 50 1 12 46
M  V30 51 1 12 47
M  V30 52 1 13 48 CFG=3
M  V30 53 1 13 49
M  V30 54 1 13 50
M  V30 55 1 14 51 CFG=1
M  V30 56 1 14 52
M  V30 57 1 15 53
M  V30 58 1 16 54 CFG=1
M  V30 59 1 16 55
M  V30 60 1 17 56
M  V30 61 1 18 57 CFG=3
M  V30 62 1 18 58
M  V30 63 1 19 59
M  V30 64 1 20 60
M  V30 65 1 21 61
M  V30 66 1 22 62
M  V30 67 1 23 63
M  V30 68 1 24 64
M  V30 69 1 25 65
M  V30 70 1 26 66
M  V30 71 1 27 67
M  V30 72 1 35 68 CFG=3
M  V30 73 1 36 69 CFG=1
M  V30 END BOND
M  V30 END CTAB
M  END
>  <Ligand_Instance>  (205) 
6C0U_EE4_A_400

>  <Dataset>  (205) 
PDB

>  <PDB_ID>  (205) 
6C0U

>  <Chain>  (205) 
A

>  <Resi>  (205) 
400

>  <Num_Resolved_Atoms>  (205) 
41

>  <Num_H_Atoms_ProtBoundConf>  (205) 
28

>  <Pocket>  (205) 
A

>  <SMILES>  (205) 
CCCOc1ccc(c(c1C(=O)c2ccc(cc2)C(=O)N[C@@H]3CNC[C@H]3NC(=O)c4ccc5c(c4)cn[nH]5)F)OC

>  <Name>  (205) 
N-[(3R,4R)-4-{[4-(2-fluoro-3-methoxy-6-propoxybenzene-1-carbonyl)benzene-1-carbonyl]amino}pyrrolidin-3-yl]-1H-indazole-5-carboxamide

>  <Num_Heavy_Atoms>  (205) 
41

>  <Num_Not_Resolved_Atoms>  (205) 
0

>  <ATP_Site>  (205) 
True

>  <Peripheral>  (205) 
False

>  <Standardized_SMILES>  (205) 
[H]C1=NN([H])C2=C([H])C([H])=C(C(=O)N([H])[C@]3([H])C([H])=NC([H])([H])[C@@]3([H])N([H])C(=O)C3=C([H])C([H])=C(C(=O)C4=C(OC([H])([H])C([H])([H])C([H])([H])[H])C([H])=C([H])C(OC([H])([H])[H])=C4F)C([H])=C3[H])C([H])=C12

$$$$
EMU
     RDKit          3D

  0  0  0  0  0  0  0  0  0  0999 V3000
M  V30 BEGIN CTAB
M  V30 COUNTS 28 30 0 0 0
M  V30 BEGIN ATOM
M  V30 1 N 33.376000 -9.907000 4.498000 0
M  V30 2 N 31.235000 -9.905000 5.405000 0
M  V30 3 N 33.470000 -9.862000 1.964000 0
M  V30 4 N 31.346000 -9.857000 1.624000 0
M  V30 5 N 29.245000 -9.826000 3.994000 0
M  V30 6 C 32.584000 -9.930000 5.560000 0
M  V30 7 C 32.518000 -10.133000 1.071000 0
M  V30 8 C 24.742000 -8.659000 2.580000 0
M  V30 9 C 25.527000 -7.539000 3.000000 0
M  V30 10 C 25.070000 -10.054000 2.983000 0
M  V30 11 C 28.268000 -9.476000 5.125000 0 CFG=2
M  V30 12 C 26.678000 -7.820000 3.857000 0
M  V30 13 C 26.207000 -10.339000 3.814000 0
M  V30 14 C 32.879000 -9.891000 3.199000 0
M  V30 15 C 30.613000 -9.868000 4.128000 0
M  V30 16 C 27.016000 -9.199000 4.270000 0
M  V30 17 C 31.490000 -9.885000 2.972000 0
M  V30 18 H 28.859400 -10.038500 3.096100 0
M  V30 19 H 32.980300 -9.965800 6.477400 0
M  V30 20 H 32.663000 -10.483300 0.145700 0
M  V30 21 H 23.946100 -8.499300 1.996000 0
M  V30 22 H 25.298900 -6.606400 2.720200 0
M  V30 23 H 24.489200 -10.805500 2.670100 0
M  V30 24 H 28.559700 -8.668800 5.638200 0
M  V30 25 H 28.132000 -10.240500 5.755200 0
M  V30 26 H 27.249800 -7.062100 4.171000 0
M  V30 27 H 26.439200 -11.276700 4.072300 0
M  V30 28 H 34.432500 -9.673400 1.769100 0
M  V30 END ATOM
M  V30 BEGIN BOND
M  V30 1 2 1 6
M  V30 2 1 1 14
M  V30 3 1 2 6
M  V30 4 2 2 15
M  V30 5 1 3 7
M  V30 6 1 3 14
M  V30 7 2 4 7
M  V30 8 1 4 17
M  V30 9 1 5 11
M  V30 10 1 5 15
M  V30 11 2 8 9
M  V30 12 1 8 10
M  V30 13 1 9 12
M  V30 14 2 10 13
M  V30 15 1 11 16
M  V30 16 2 12 16
M  V30 17 1 13 16
M  V30 18 2 14 17
M  V30 19 1 15 17
M  V30 20 1 3 28
M  V30 21 1 5 18
M  V30 22 1 6 19
M  V30 23 1 7 20
M  V30 24 1 8 21
M  V30 25 1 9 22
M  V30 26 1 10 23
M  V30 27 1 11 24 CFG=1
M  V30 28 1 11 25
M  V30 29 1 12 26
M  V30 30 1 13 27
M  V30 END BOND
M  V30 END CTAB
M  END
>  <Ligand_Instance>  (206) 
4YXS_EMU_A_401

>  <Dataset>  (206) 
PDB

>  <PDB_ID>  (206) 
4YXS

>  <Chain>  (206) 
A

>  <Resi>  (206) 
401

>  <Num_Resolved_Atoms>  (206) 
17

>  <Num_H_Atoms_ProtBoundConf>  (206) 
11

>  <Pocket>  (206) 
A

>  <SMILES>  (206) 
c1ccc(cc1)CNc2c3c([nH]cn3)ncn2

>  <Name>  (206) 
N-BENZYL-9H-PURIN-6-AMINE

>  <Num_Heavy_Atoms>  (206) 
17

>  <Num_Not_Resolved_Atoms>  (206) 
0

>  <ATP_Site>  (206) 
True

>  <Peripheral>  (206) 
False

>  <Standardized_SMILES>  (206) 
[H]C1=NC2=C(N=C([H])N2[H])C(N([H])C([H])([H])C2=C([H])C([H])=C([H])C([H])=C2[H])=N1

$$$$
F05
     RDKit          3D

  0  0  0  0  0  0  0  0  0  0999 V3000
M  V30 BEGIN CTAB
M  V30 COUNTS 18 19 0 0 0
M  V30 BEGIN ATOM
M  V30 1 N -9.738000 24.502000 -25.935000 0
M  V30 2 N -10.589000 26.726000 -26.166000 0
M  V30 3 C -11.865000 27.440000 -26.194000 0 CFG=2
M  V30 4 C -14.920000 25.195000 -25.536000 0
M  V30 5 C -14.265000 23.975000 -25.584000 0
M  V30 6 C -14.215000 26.371000 -25.725000 0
M  V30 7 C -12.896000 23.921000 -25.800000 0
M  V30 8 C -10.731000 25.421000 -26.030000 0
M  V30 9 C -12.842000 26.329000 -25.937000 0
M  V30 10 C -12.179000 25.108000 -25.951000 0
M  V30 11 H -9.961900 23.532600 -25.833900 0
M  V30 12 H -8.782000 24.793800 -25.966100 0
M  V30 13 H -12.024300 27.866700 -27.084200 0
M  V30 14 H -11.908600 28.136600 -25.477800 0
M  V30 15 H -15.904700 25.226000 -25.364400 0
M  V30 16 H -14.782600 23.128100 -25.462100 0
M  V30 17 H -14.692700 27.249400 -25.709000 0
M  V30 18 H -12.427100 23.039000 -25.847100 0
M  V30 END ATOM
M  V30 BEGIN BOND
M  V30 1 1 1 8
M  V30 2 1 2 3
M  V30 3 2 2 8
M  V30 4 1 3 9
M  V30 5 2 4 5
M  V30 6 1 4 6
M  V30 7 1 5 7
M  V30 8 2 6 9
M  V30 9 2 7 10
M  V30 10 1 8 10
M  V30 11 1 9 10
M  V30 12 1 1 11
M  V30 13 1 1 12
M  V30 14 1 3 13 CFG=3
M  V30 15 1 3 14
M  V30 16 1 4 15
M  V30 17 1 5 16
M  V30 18 1 6 17
M  V30 19 1 7 18
M  V30 END BOND
M  V30 END CTAB
M  END
>  <Ligand_Instance>  (207) 
5N36_F05_A_402

>  <Dataset>  (207) 
PDB

>  <PDB_ID>  (207) 
5N36

>  <Chain>  (207) 
A

>  <Resi>  (207) 
402

>  <Num_Resolved_Atoms>  (207) 
10

>  <Num_H_Atoms_ProtBoundConf>  (207) 
8

>  <Pocket>  (207) 
A

>  <SMILES>  (207) 
c1ccc2c(c1)CN=C2N

>  <Name>  (207) 
1H-isoindol-3-amine

>  <Num_Heavy_Atoms>  (207) 
10

>  <Num_Not_Resolved_Atoms>  (207) 
0

>  <ATP_Site>  (207) 
True

>  <Peripheral>  (207) 
False

>  <Standardized_SMILES>  (207) 
[H]C1=C([H])C([H])=C2C(=C1[H])C(N([H])[H])=NC2([H])[H]

$$$$
G96
     RDKit          3D

  0  0  0  0  0  0  0  0  0  0999 V3000
M  V30 BEGIN CTAB
M  V30 COUNTS 62 65 0 0 0
M  V30 BEGIN ATOM
M  V30 1 O 4.035000 -8.192000 21.596000 0
M  V30 2 O 14.194000 -6.175000 23.139000 0
M  V30 3 O 8.635000 -13.363000 22.580000 0
M  V30 4 N 10.919000 -5.495000 22.257000 0
M  V30 5 N 7.215000 -15.367000 23.900000 0 CFG=1 CHG=1
M  V30 6 N 13.218000 -5.194000 22.775000 0
M  V30 7 N 13.696000 -7.522000 23.181000 0
M  V30 8 N 8.040000 -11.145000 22.125000 0
M  V30 9 N 10.195000 -8.138000 22.345000 0
M  V30 10 N 11.741000 -9.654000 22.980000 0
M  V30 11 C 13.776000 -10.791000 22.218000 0 CFG=1
M  V30 12 C 5.057000 -7.592000 19.497000 0 CFG=1
M  V30 13 C 5.422000 -6.215000 21.556000 0 CFG=1
M  V30 14 C 7.386000 -13.816000 22.074000 0 CFG=2
M  V30 15 C 12.991000 -10.303000 23.417000 0 CFG=2
M  V30 16 C 8.036000 -15.731000 17.544000 0
M  V30 17 C 8.996000 -15.021000 18.256000 0
M  V30 18 C 7.163000 -16.578000 18.215000 0
M  V30 19 C 9.085000 -15.163000 19.636000 0
M  V30 20 C 7.243000 -16.714000 19.600000 0
M  V30 21 C 7.358000 -9.057000 21.668000 0
M  V30 22 C 10.261000 -11.641000 22.817000 0
M  V30 23 C 8.283000 -16.150000 21.819000 0 CFG=2
M  V30 24 C 6.413000 -8.416000 21.356000 0
M  V30 25 C 8.967000 -12.046000 22.504000 0
M  V30 26 C 12.141000 -5.986000 22.606000 0
M  V30 27 C 7.197000 -15.278000 22.449000 0 CFG=1
M  V30 28 C 11.464000 -8.366000 22.738000 0
M  V30 29 C 8.326000 -9.828000 22.033000 0
M  V30 30 C 12.402000 -7.329000 22.853000 0
M  V30 31 C 9.618000 -9.367000 22.339000 0
M  V30 32 C 10.592000 -10.294000 22.738000 0
M  V30 33 C 8.209000 -16.012000 20.312000 0
M  V30 34 C 5.219000 -7.621000 21.013000 0 CFG=1
M  V30 35 H 3.632100 -8.847900 20.957600 0
M  V30 36 H 10.144600 -6.117100 22.141400 0
M  V30 37 H 10.796500 -4.512500 22.116400 0
M  V30 38 H 7.092500 -16.320000 24.177100 0
M  V30 39 H 8.091500 -15.030000 24.243800 0
M  V30 40 H 14.620200 -11.228500 22.527900 0
M  V30 41 H 13.226600 -11.451600 21.706300 0
M  V30 42 H 13.999700 -10.015300 21.627900 0
M  V30 43 H 5.876100 -7.196200 19.081800 0
M  V30 44 H 4.928300 -8.523800 19.157600 0
M  V30 45 H 4.260400 -7.037000 19.257500 0
M  V30 46 H 6.245200 -5.817000 21.151200 0
M  V30 47 H 4.629900 -5.650400 21.323900 0
M  V30 48 H 5.524300 -6.253100 22.550000 0
M  V30 49 H 7.374000 -13.721500 21.078500 0
M  V30 50 H 6.646900 -13.270700 22.469600 0
M  V30 51 H 12.770700 -11.080600 24.005900 0
M  V30 52 H 13.543800 -9.644400 23.927500 0
M  V30 53 H 7.974000 -15.632200 16.550800 0
M  V30 54 H 9.622800 -14.407800 17.775200 0
M  V30 55 H 6.474900 -17.091900 17.702700 0
M  V30 56 H 9.779300 -14.654800 20.145600 0
M  V30 57 H 6.605900 -17.316200 20.081200 0
M  V30 58 H 10.946500 -12.313400 23.096300 0
M  V30 59 H 8.137900 -17.105400 22.076300 0
M  V30 60 H 9.181800 -15.851200 22.139900 0
M  V30 61 H 6.304400 -15.583800 22.117600 0
M  V30 62 H 6.473400 -14.812200 24.277200 0
M  V30 END ATOM
M  V30 BEGIN BOND
M  V30 1 1 1 34
M  V30 2 1 2 6
M  V30 3 1 2 7
M  V30 4 1 3 14
M  V30 5 1 3 25
M  V30 6 1 4 26
M  V30 7 1 5 27
M  V30 8 2 6 26
M  V30 9 2 7 30
M  V30 10 2 8 25
M  V30 11 1 8 29
M  V30 12 2 9 28
M  V30 13 1 9 31
M  V30 14 1 10 15
M  V30 15 1 10 28
M  V30 16 1 10 32
M  V30 17 1 11 15
M  V30 18 1 12 34
M  V30 19 1 13 34
M  V30 20 1 14 27
M  V30 21 2 16 17
M  V30 22 1 16 18
M  V30 23 1 17 19
M  V30 24 2 18 20
M  V30 25 2 19 33
M  V30 26 1 20 33
M  V30 27 3 21 24
M  V30 28 1 21 29
M  V30 29 1 22 25
M  V30 30 2 22 32
M  V30 31 1 23 27
M  V30 32 1 23 33
M  V30 33 1 34 24 CFG=3
M  V30 34 1 26 30
M  V30 35 1 28 30
M  V30 36 2 29 31
M  V30 37 1 31 32
M  V30 38 1 1 35
M  V30 39 1 4 36
M  V30 40 1 4 37
M  V30 41 1 5 38 CFG=3
M  V30 42 1 5 39
M  V30 43 1 11 40 CFG=1
M  V30 44 1 11 41
M  V30 45 1 11 42
M  V30 46 1 12 43 CFG=3
M  V30 47 1 12 44
M  V30 48 1 12 45
M  V30 49 1 13 46 CFG=3
M  V30 50 1 13 47
M  V30 51 1 13 48
M  V30 52 1 14 49 CFG=3
M  V30 53 1 14 50
M  V30 54 1 15 51 CFG=1
M  V30 55 1 15 52
M  V30 56 1 16 53
M  V30 57 1 17 54
M  V30 58 1 18 55
M  V30 59 1 19 56
M  V30 60 1 20 57
M  V30 61 1 22 58
M  V30 62 1 23 59 CFG=3
M  V30 63 1 23 60
M  V30 64 1 27 61 CFG=3
M  V30 65 1 5 62
M  V30 END BOND
M  V30 END CTAB
M  END
>  <Ligand_Instance>  (208) 
3E8C_G96_A_351

>  <Dataset>  (208) 
PDB

>  <PDB_ID>  (208) 
3E8C

>  <Chain>  (208) 
A

>  <Resi>  (208) 
351

>  <Num_Resolved_Atoms>  (208) 
34

>  <Num_H_Atoms_ProtBoundConf>  (208) 
28

>  <Pocket>  (208) 
A, B

>  <SMILES>  (208) 
CCn1c2cc(nc(c2nc1c3c(non3)N)C#CC(C)(C)O)OC[C@@H](Cc4ccccc4)N

>  <Name>  (208) 
4-[2-(4-amino-1,2,5-oxadiazol-3-yl)-6-{[(2R)-2-amino-3-phenylpropyl]oxy}-1-ethyl-1H-imidazo[4,5-c]pyridin-4-yl]-2-methylbut-3-yn-2-ol

>  <Num_Heavy_Atoms>  (208) 
34

>  <Num_Not_Resolved_Atoms>  (208) 
0

>  <ATP_Site>  (208) 
True

>  <Peripheral>  (208) 
False

>  <Standardized_SMILES>  (208) 
[H]OC(C#CC1=C2N=C(C3=NON=C3N([H])[H])N(C([H])([H])C([H])([H])[H])C2=C([H])C(OC([H])([H])[C@@]([H])(C([H])([H])C2=C([H])C([H])=C([H])C([H])=C2[H])[N+]([H])([H])[H])=N1)(C([H])([H])[H])C([H])([H])[H]

$$$$
G96
     RDKit          3D

  0  0  0  0  0  0  0  0  0  0999 V3000
M  V30 BEGIN CTAB
M  V30 COUNTS 62 65 0 0 0
M  V30 BEGIN ATOM
M  V30 1 O -32.674000 -11.412000 13.919000 0
M  V30 2 O -42.889000 -11.460000 12.757000 0
M  V30 3 O -35.772000 -17.041000 11.232000 0
M  V30 4 N -39.797000 -10.341000 13.850000 0
M  V30 5 N -34.081000 -18.105000 9.198000 0 CFG=1 CHG=1
M  V30 6 N -42.115000 -10.435000 13.403000 0
M  V30 7 N -42.107000 -12.596000 12.339000 0
M  V30 8 N -35.678000 -14.957000 12.338000 0
M  V30 9 N -38.502000 -12.627000 12.970000 0
M  V30 10 N -39.688000 -14.217000 11.915000 0
M  V30 11 C -41.014000 -16.262000 12.084000 0 CFG=1
M  V30 12 C -33.927000 -11.297000 15.976000 0 CFG=1
M  V30 13 C -34.374000 -9.745000 14.046000 0 CFG=1
M  V30 14 C -34.384000 -17.301000 11.462000 0 CFG=2
M  V30 15 C -40.759000 -15.003000 11.291000 0 CFG=2
M  V30 16 C -34.011000 -20.789000 15.005000 0
M  V30 17 C -35.178000 -20.129000 14.632000 0
M  V30 18 C -33.063000 -21.115000 14.044000 0
M  V30 19 C -35.389000 -19.795000 13.300000 0
M  V30 20 C -33.271000 -20.785000 12.709000 0
M  V30 21 C -35.561000 -12.959000 13.390000 0
M  V30 22 C -37.757000 -15.754000 11.503000 0
M  V30 23 C -34.666000 -19.752000 10.894000 0 CFG=2
M  V30 24 C -34.872000 -12.147000 13.891000 0
M  V30 25 C -36.385000 -15.911000 11.700000 0
M  V30 26 C -40.887000 -10.985000 13.351000 0
M  V30 27 C -33.908000 -18.464000 10.592000 0 CFG=1
M  V30 28 C -39.711000 -13.022000 12.526000 0
M  V30 29 C -36.280000 -13.838000 12.800000 0
M  V30 30 C -40.862000 -12.229000 12.721000 0
M  V30 31 C -37.656000 -13.632000 12.625000 0
M  V30 32 C -38.406000 -14.609000 11.966000 0
M  V30 33 C -34.437000 -20.125000 12.338000 0
M  V30 34 C -33.966000 -11.148000 14.458000 0 CFG=1
M  V30 35 H -32.398600 -12.344000 14.154600 0
M  V30 36 H -38.895500 -10.770900 13.799200 0
M  V30 37 H -39.897500 -9.437900 14.267400 0
M  V30 38 H -33.384700 -18.564400 8.646600 0
M  V30 39 H -34.989600 -18.388300 8.891100 0
M  V30 40 H -41.744900 -16.787800 11.648800 0
M  V30 41 H -40.179500 -16.812300 12.113300 0
M  V30 42 H -41.286500 -16.020000 13.015200 0
M  V30 43 H -34.834600 -11.111400 16.352600 0
M  V30 44 H -33.652200 -12.229000 16.212500 0
M  V30 45 H -33.268600 -10.648300 16.357800 0
M  V30 46 H -35.280400 -9.539500 14.415200 0
M  V30 47 H -33.711400 -9.086700 14.403300 0
M  V30 48 H -34.399000 -9.684600 13.048100 0
M  V30 49 H -34.247400 -17.532700 12.425200 0
M  V30 50 H -33.854000 -16.483200 11.237500 0
M  V30 51 H -40.488700 -15.248400 10.360000 0
M  V30 52 H -41.595700 -14.456100 11.262000 0
M  V30 53 H -33.855300 -21.028100 15.963400 0
M  V30 54 H -35.863600 -19.895500 15.321500 0
M  V30 55 H -32.225400 -21.590100 14.313600 0
M  V30 56 H -36.225400 -19.317100 13.031500 0
M  V30 57 H -32.585800 -21.021100 12.020000 0
M  V30 58 H -38.277000 -16.464300 11.028500 0
M  V30 59 H -34.332700 -20.484900 10.300800 0
M  V30 60 H -35.643200 -19.612100 10.734100 0
M  V30 61 H -32.935000 -18.616600 10.765300 0
M  V30 62 H -33.988000 -17.114700 9.094800 0
M  V30 END ATOM
M  V30 BEGIN BOND
M  V30 1 1 1 34
M  V30 2 1 2 6
M  V30 3 1 2 7
M  V30 4 1 3 14
M  V30 5 1 3 25
M  V30 6 1 4 26
M  V30 7 1 5 27
M  V30 8 2 6 26
M  V30 9 2 7 30
M  V30 10 2 8 25
M  V30 11 1 8 29
M  V30 12 2 9 28
M  V30 13 1 9 31
M  V30 14 1 10 15
M  V30 15 1 10 28
M  V30 16 1 10 32
M  V30 17 1 11 15
M  V30 18 1 12 34
M  V30 19 1 13 34
M  V30 20 1 14 27
M  V30 21 2 16 17
M  V30 22 1 16 18
M  V30 23 1 17 19
M  V30 24 2 18 20
M  V30 25 2 19 33
M  V30 26 1 20 33
M  V30 27 3 21 24
M  V30 28 1 21 29
M  V30 29 1 22 25
M  V30 30 2 22 32
M  V30 31 1 23 27
M  V30 32 1 23 33
M  V30 33 1 34 24 CFG=3
M  V30 34 1 26 30
M  V30 35 1 28 30
M  V30 36 2 29 31
M  V30 37 1 31 32
M  V30 38 1 1 35
M  V30 39 1 4 36
M  V30 40 1 4 37
M  V30 41 1 5 38 CFG=3
M  V30 42 1 5 39
M  V30 43 1 11 40 CFG=3
M  V30 44 1 11 41
M  V30 45 1 11 42
M  V30 46 1 12 43 CFG=1
M  V30 47 1 12 44
M  V30 48 1 12 45
M  V30 49 1 13 46 CFG=1
M  V30 50 1 13 47
M  V30 51 1 13 48
M  V30 52 1 14 49 CFG=1
M  V30 53 1 14 50
M  V30 54 1 15 51 CFG=3
M  V30 55 1 15 52
M  V30 56 1 16 53
M  V30 57 1 17 54
M  V30 58 1 18 55
M  V30 59 1 19 56
M  V30 60 1 20 57
M  V30 61 1 22 58
M  V30 62 1 23 59 CFG=3
M  V30 63 1 23 60
M  V30 64 1 27 61 CFG=3
M  V30 65 1 5 62
M  V30 END BOND
M  V30 END CTAB
M  END
>  <Ligand_Instance>  (209) 
3E8C_G96_B_351

>  <Dataset>  (209) 
PDB

>  <PDB_ID>  (209) 
3E8C

>  <Chain>  (209) 
B

>  <Resi>  (209) 
351

>  <Num_Resolved_Atoms>  (209) 
34

>  <Num_H_Atoms_ProtBoundConf>  (209) 
28

>  <Pocket>  (209) 
A, B

>  <SMILES>  (209) 
CCn1c2cc(nc(c2nc1c3c(non3)N)C#CC(C)(C)O)OC[C@@H](Cc4ccccc4)N

>  <Name>  (209) 
4-[2-(4-amino-1,2,5-oxadiazol-3-yl)-6-{[(2R)-2-amino-3-phenylpropyl]oxy}-1-ethyl-1H-imidazo[4,5-c]pyridin-4-yl]-2-methylbut-3-yn-2-ol

>  <Num_Heavy_Atoms>  (209) 
34

>  <Num_Not_Resolved_Atoms>  (209) 
0

>  <ATP_Site>  (209) 
True

>  <Peripheral>  (209) 
False

>  <Standardized_SMILES>  (209) 
[H]OC(C#CC1=C2N=C(C3=NON=C3N([H])[H])N(C([H])([H])C([H])([H])[H])C2=C([H])C(OC([H])([H])[C@@]([H])(C([H])([H])C2=C([H])C([H])=C([H])C([H])=C2[H])[N+]([H])([H])[H])=N1)(C([H])([H])[H])C([H])([H])[H]

$$$$
G96
     RDKit          3D

  0  0  0  0  0  0  0  0  0  0999 V3000
M  V30 BEGIN CTAB
M  V30 COUNTS 62 65 0 0 0
M  V30 BEGIN ATOM
M  V30 1 O -17.619000 39.398000 37.071000 0
M  V30 2 O -27.808000 41.278000 35.556000 0
M  V30 3 O -22.045000 34.282000 36.544000 0
M  V30 4 N -24.519000 42.133000 36.231000 0
M  V30 5 N -20.637000 32.056000 35.495000 0 CFG=1 CHG=1
M  V30 6 N -26.838000 42.313000 35.772000 0
M  V30 7 N -27.270000 39.946000 35.627000 0
M  V30 8 N -21.486000 36.561000 36.809000 0
M  V30 9 N -23.735000 39.473000 36.384000 0
M  V30 10 N -25.255000 37.878000 35.918000 0
M  V30 11 C -27.342000 36.891000 36.792000 0 CFG=1
M  V30 12 C -18.537000 40.640000 38.908000 0 CFG=1
M  V30 13 C -18.771000 41.460000 36.562000 0 CFG=1
M  V30 14 C -20.776000 33.890000 37.051000 0 CFG=2
M  V30 15 C -26.500000 37.172000 35.562000 0 CFG=2
M  V30 16 C -21.505000 32.679000 41.823000 0
M  V30 17 C -22.421000 33.299000 40.977000 0
M  V30 18 C -20.642000 31.709000 41.322000 0
M  V30 19 C -22.482000 32.951000 39.635000 0
M  V30 20 C -20.694000 31.363000 39.975000 0
M  V30 21 C -20.893000 38.732000 37.062000 0
M  V30 22 C -23.710000 35.948000 36.209000 0
M  V30 23 C -21.672000 31.615000 37.668000 0 CFG=2
M  V30 24 C -19.962000 39.437000 37.285000 0
M  V30 25 C -22.399000 35.603000 36.525000 0
M  V30 26 C -25.735000 41.567000 35.974000 0
M  V30 27 C -20.594000 32.384000 36.909000 0 CFG=1
M  V30 28 C -25.007000 39.191000 36.049000 0
M  V30 29 C -21.817000 37.875000 36.794000 0
M  V30 30 C -25.969000 40.199000 35.874000 0
M  V30 31 C -23.127000 38.266000 36.476000 0
M  V30 32 C -24.083000 37.287000 36.183000 0
M  V30 33 C -21.616000 31.984000 39.134000 0
M  V30 34 C -18.725000 40.223000 37.452000 0 CFG=1
M  V30 35 H -17.589500 38.588500 37.657300 0
M  V30 36 H -23.718000 41.552400 36.376700 0
M  V30 37 H -24.429600 43.128100 36.273500 0
M  V30 38 H -20.069500 31.251000 35.322100 0
M  V30 39 H -21.580600 31.862600 35.226200 0
M  V30 40 H -28.177700 36.412900 36.521800 0
M  V30 41 H -26.822600 36.320600 37.428300 0
M  V30 42 H -27.580800 37.754200 37.236800 0
M  V30 43 H -19.302500 41.218000 39.190700 0
M  V30 44 H -18.503300 39.825000 39.486500 0
M  V30 45 H -17.682000 41.150300 39.000900 0
M  V30 46 H -19.544200 42.034800 36.829900 0
M  V30 47 H -17.920700 41.976200 36.664500 0
M  V30 48 H -18.878300 41.180400 35.607900 0
M  V30 49 H -20.714800 34.140300 38.017200 0
M  V30 50 H -20.056600 34.359200 36.538900 0
M  V30 51 H -26.268600 36.305300 35.120100 0
M  V30 52 H -27.026800 37.738900 34.928600 0
M  V30 53 H -21.467400 32.930700 42.790100 0
M  V30 54 H -23.037800 33.998300 41.338300 0
M  V30 55 H -19.985400 31.261200 41.929000 0
M  V30 56 H -23.145100 33.393100 39.031000 0
M  V30 57 H -20.071200 30.670300 39.611200 0
M  V30 58 H -24.380600 35.235800 36.001600 0
M  V30 59 H -21.515700 30.632700 37.565200 0
M  V30 60 H -22.571300 31.849800 37.299200 0
M  V30 61 H -19.697900 32.130300 37.273300 0
M  V30 62 H -20.290500 32.828600 34.962900 0
M  V30 END ATOM
M  V30 BEGIN BOND
M  V30 1 1 1 34
M  V30 2 1 2 6
M  V30 3 1 2 7
M  V30 4 1 3 14
M  V30 5 1 3 25
M  V30 6 1 4 26
M  V30 7 1 5 27
M  V30 8 2 6 26
M  V30 9 2 7 30
M  V30 10 2 8 25
M  V30 11 1 8 29
M  V30 12 2 9 28
M  V30 13 1 9 31
M  V30 14 1 10 15
M  V30 15 1 10 28
M  V30 16 1 10 32
M  V30 17 1 11 15
M  V30 18 1 12 34
M  V30 19 1 13 34
M  V30 20 1 14 27
M  V30 21 2 16 17
M  V30 22 1 16 18
M  V30 23 1 17 19
M  V30 24 2 18 20
M  V30 25 2 19 33
M  V30 26 1 20 33
M  V30 27 3 21 24
M  V30 28 1 21 29
M  V30 29 1 22 25
M  V30 30 2 22 32
M  V30 31 1 23 27
M  V30 32 1 23 33
M  V30 33 1 34 24 CFG=1
M  V30 34 1 26 30
M  V30 35 1 28 30
M  V30 36 2 29 31
M  V30 37 1 31 32
M  V30 38 1 1 35
M  V30 39 1 4 36
M  V30 40 1 4 37
M  V30 41 1 5 38 CFG=1
M  V30 42 1 5 39
M  V30 43 1 11 40 CFG=3
M  V30 44 1 11 41
M  V30 45 1 11 42
M  V30 46 1 12 43 CFG=1
M  V30 47 1 12 44
M  V30 48 1 12 45
M  V30 49 1 13 46 CFG=1
M  V30 50 1 13 47
M  V30 51 1 13 48
M  V30 52 1 14 49 CFG=1
M  V30 53 1 14 50
M  V30 54 1 15 51 CFG=3
M  V30 55 1 15 52
M  V30 56 1 16 53
M  V30 57 1 17 54
M  V30 58 1 18 55
M  V30 59 1 19 56
M  V30 60 1 20 57
M  V30 61 1 22 58
M  V30 62 1 23 59 CFG=1
M  V30 63 1 23 60
M  V30 64 1 27 61 CFG=1
M  V30 65 1 5 62
M  V30 END BOND
M  V30 END CTAB
M  END
>  <Ligand_Instance>  (210) 
3E8C_G96_C_351

>  <Dataset>  (210) 
PDB

>  <PDB_ID>  (210) 
3E8C

>  <Chain>  (210) 
C

>  <Resi>  (210) 
351

>  <Num_Resolved_Atoms>  (210) 
34

>  <Num_H_Atoms_ProtBoundConf>  (210) 
28

>  <Pocket>  (210) 
A, B

>  <SMILES>  (210) 
CCn1c2cc(nc(c2nc1c3c(non3)N)C#CC(C)(C)O)OC[C@@H](Cc4ccccc4)N

>  <Name>  (210) 
4-[2-(4-amino-1,2,5-oxadiazol-3-yl)-6-{[(2R)-2-amino-3-phenylpropyl]oxy}-1-ethyl-1H-imidazo[4,5-c]pyridin-4-yl]-2-methylbut-3-yn-2-ol

>  <Num_Heavy_Atoms>  (210) 
34

>  <Num_Not_Resolved_Atoms>  (210) 
0

>  <ATP_Site>  (210) 
True

>  <Peripheral>  (210) 
False

>  <Standardized_SMILES>  (210) 
[H]OC(C#CC1=C2N=C(C3=NON=C3N([H])[H])N(C([H])([H])C([H])([H])[H])C2=C([H])C(OC([H])([H])[C@@]([H])(C([H])([H])C2=C([H])C([H])=C([H])C([H])=C2[H])[N+]([H])([H])[H])=N1)(C([H])([H])[H])C([H])([H])[H]

$$$$
G96
     RDKit          3D

  0  0  0  0  0  0  0  0  0  0999 V3000
M  V30 BEGIN CTAB
M  V30 COUNTS 62 65 0 0 0
M  V30 BEGIN ATOM
M  V30 1 O 19.096000 36.676000 44.758000 0
M  V30 2 O 29.414000 36.678000 46.218000 0
M  V30 3 O 22.164000 31.462000 48.132000 0
M  V30 4 N 26.380000 37.830000 44.996000 0
M  V30 5 N 20.490000 30.571000 50.236000 0 CFG=1 CHG=1
M  V30 6 N 28.692000 37.689000 45.492000 0
M  V30 7 N 28.591000 35.607000 46.713000 0
M  V30 8 N 22.117000 33.445000 46.845000 0
M  V30 9 N 24.994000 35.647000 46.034000 0
M  V30 10 N 26.136000 34.125000 47.243000 0
M  V30 11 C 27.616000 32.169000 47.127000 0 CFG=1
M  V30 12 C 20.510000 36.768000 42.816000 0 CFG=1
M  V30 13 C 20.718000 38.440000 44.698000 0 CFG=1
M  V30 14 C 20.772000 31.217000 47.926000 0 CFG=2
M  V30 15 C 27.181000 33.366000 47.947000 0 CFG=2
M  V30 16 C 20.379000 27.465000 44.625000 0
M  V30 17 C 21.557000 28.130000 44.951000 0
M  V30 18 C 19.416000 27.237000 45.602000 0
M  V30 19 C 21.769000 28.566000 46.256000 0
M  V30 20 C 19.623000 27.672000 46.906000 0
M  V30 21 C 22.032000 35.341000 45.612000 0
M  V30 22 C 24.169000 32.681000 47.764000 0
M  V30 23 C 21.022000 28.810000 48.650000 0 CFG=2
M  V30 24 C 21.342000 36.091000 45.020000 0
M  V30 25 C 22.798000 32.538000 47.575000 0
M  V30 26 C 27.441000 37.188000 45.564000 0
M  V30 27 C 20.281000 30.125000 48.873000 0 CFG=1
M  V30 28 C 26.192000 35.257000 46.522000 0
M  V30 29 C 22.741000 34.510000 46.286000 0
M  V30 30 C 27.368000 35.993000 46.283000 0
M  V30 31 C 24.120000 34.698000 46.454000 0
M  V30 32 C 24.843000 33.765000 47.206000 0
M  V30 33 C 20.800000 28.335000 47.235000 0
M  V30 34 C 20.418000 36.993000 44.325000 0 CFG=1
M  V30 35 H 18.896000 35.719500 44.545400 0
M  V30 36 H 25.463000 37.437000 45.064000 0
M  V30 37 H 26.519200 38.693700 44.511600 0
M  V30 38 H 19.792600 30.168600 50.829000 0
M  V30 39 H 21.396600 30.284000 50.545300 0
M  V30 40 H 28.325500 31.666500 47.621100 0
M  V30 41 H 26.831100 31.569600 46.969800 0
M  V30 42 H 27.978600 32.480600 46.248700 0
M  V30 43 H 21.433700 36.987600 42.501900 0
M  V30 44 H 20.306000 35.811200 42.608600 0
M  V30 45 H 19.850500 37.358000 42.350200 0
M  V30 46 H 21.642900 38.676200 44.400000 0
M  V30 47 H 20.058900 39.043400 44.249200 0
M  V30 48 H 20.649000 38.549800 45.689600 0
M  V30 49 H 20.624700 30.925000 46.981000 0
M  V30 50 H 20.259800 32.058300 48.098700 0
M  V30 51 H 26.822000 33.049700 48.825100 0
M  V30 52 H 27.969500 33.960700 48.104000 0
M  V30 53 H 20.224900 27.151000 43.688200 0
M  V30 54 H 22.250100 28.294400 44.249100 0
M  V30 55 H 18.570700 26.757900 45.365400 0
M  V30 56 H 22.614700 29.044400 46.492400 0
M  V30 57 H 18.927300 27.508500 47.605500 0
M  V30 58 H 24.671700 32.004100 48.301600 0
M  V30 59 H 20.678300 28.122200 49.289400 0
M  V30 60 H 22.000200 28.949300 48.804300 0
M  V30 61 H 19.303200 29.978400 48.723600 0
M  V30 62 H 20.425000 31.568200 50.274100 0
M  V30 END ATOM
M  V30 BEGIN BOND
M  V30 1 1 1 34
M  V30 2 1 2 6
M  V30 3 1 2 7
M  V30 4 1 3 14
M  V30 5 1 3 25
M  V30 6 1 4 26
M  V30 7 1 5 27
M  V30 8 2 6 26
M  V30 9 2 7 30
M  V30 10 2 8 25
M  V30 11 1 8 29
M  V30 12 2 9 28
M  V30 13 1 9 31
M  V30 14 1 10 15
M  V30 15 1 10 28
M  V30 16 1 10 32
M  V30 17 1 11 15
M  V30 18 1 12 34
M  V30 19 1 13 34
M  V30 20 1 14 27
M  V30 21 2 16 17
M  V30 22 1 16 18
M  V30 23 1 17 19
M  V30 24 2 18 20
M  V30 25 2 19 33
M  V30 26 1 20 33
M  V30 27 3 21 24
M  V30 28 1 21 29
M  V30 29 1 22 25
M  V30 30 2 22 32
M  V30 31 1 23 27
M  V30 32 1 23 33
M  V30 33 1 34 24 CFG=1
M  V30 34 1 26 30
M  V30 35 1 28 30
M  V30 36 2 29 31
M  V30 37 1 31 32
M  V30 38 1 1 35
M  V30 39 1 4 36
M  V30 40 1 4 37
M  V30 41 1 5 38 CFG=1
M  V30 42 1 5 39
M  V30 43 1 11 40 CFG=1
M  V30 44 1 11 41
M  V30 45 1 11 42
M  V30 46 1 12 43 CFG=3
M  V30 47 1 12 44
M  V30 48 1 12 45
M  V30 49 1 13 46 CFG=3
M  V30 50 1 13 47
M  V30 51 1 13 48
M  V30 52 1 14 49 CFG=3
M  V30 53 1 14 50
M  V30 54 1 15 51 CFG=1
M  V30 55 1 15 52
M  V30 56 1 16 53
M  V30 57 1 17 54
M  V30 58 1 18 55
M  V30 59 1 19 56
M  V30 60 1 20 57
M  V30 61 1 22 58
M  V30 62 1 23 59 CFG=1
M  V30 63 1 23 60
M  V30 64 1 27 61 CFG=1
M  V30 65 1 5 62
M  V30 END BOND
M  V30 END CTAB
M  END
>  <Ligand_Instance>  (211) 
3E8C_G96_D_351

>  <Dataset>  (211) 
PDB

>  <PDB_ID>  (211) 
3E8C

>  <Chain>  (211) 
D

>  <Resi>  (211) 
351

>  <Num_Resolved_Atoms>  (211) 
34

>  <Num_H_Atoms_ProtBoundConf>  (211) 
28

>  <Pocket>  (211) 
A, B

>  <SMILES>  (211) 
CCn1c2cc(nc(c2nc1c3c(non3)N)C#CC(C)(C)O)OC[C@@H](Cc4ccccc4)N

>  <Name>  (211) 
4-[2-(4-amino-1,2,5-oxadiazol-3-yl)-6-{[(2R)-2-amino-3-phenylpropyl]oxy}-1-ethyl-1H-imidazo[4,5-c]pyridin-4-yl]-2-methylbut-3-yn-2-ol

>  <Num_Heavy_Atoms>  (211) 
34

>  <Num_Not_Resolved_Atoms>  (211) 
0

>  <ATP_Site>  (211) 
True

>  <Peripheral>  (211) 
False

>  <Standardized_SMILES>  (211) 
[H]OC(C#CC1=C2N=C(C3=NON=C3N([H])[H])N(C([H])([H])C([H])([H])[H])C2=C([H])C(OC([H])([H])[C@@]([H])(C([H])([H])C2=C([H])C([H])=C([H])C([H])=C2[H])[N+]([H])([H])[H])=N1)(C([H])([H])[H])C([H])([H])[H]

$$$$
G96
     RDKit          3D

  0  0  0  0  0  0  0  0  0  0999 V3000
M  V30 BEGIN CTAB
M  V30 COUNTS 62 65 0 0 0
M  V30 BEGIN ATOM
M  V30 1 O -46.100000 -7.023000 72.438000 0
M  V30 2 O -56.284000 -7.490000 71.280000 0
M  V30 3 O -49.024000 -12.915000 70.020000 0
M  V30 4 N -53.184000 -6.245000 72.219000 0
M  V30 5 N -47.389000 -14.154000 68.069000 0 CFG=1 CHG=1
M  V30 6 N -55.524000 -6.403000 71.829000 0
M  V30 7 N -55.496000 -8.645000 70.928000 0
M  V30 8 N -49.001000 -10.775000 71.028000 0
M  V30 9 N -51.896000 -8.535000 71.539000 0
M  V30 10 N -53.031000 -10.206000 70.551000 0
M  V30 11 C -54.882000 -11.736000 71.053000 0 CFG=1
M  V30 12 C -47.148000 -7.352000 74.571000 0 CFG=1
M  V30 13 C -47.930000 -5.552000 73.001000 0 CFG=1
M  V30 14 C -47.638000 -13.141000 70.254000 0 CFG=2
M  V30 15 C -54.101000 -11.026000 69.969000 0 CFG=2
M  V30 16 C -47.377000 -16.177000 74.144000 0
M  V30 17 C -48.519000 -15.519000 73.691000 0
M  V30 18 C -46.438000 -16.655000 73.231000 0
M  V30 19 C -48.727000 -15.344000 72.322000 0
M  V30 20 C -46.637000 -16.478000 71.863000 0
M  V30 21 C -48.957000 -8.737000 71.987000 0
M  V30 22 C -51.046000 -11.689000 70.222000 0
M  V30 23 C -47.997000 -15.622000 69.924000 0 CFG=2
M  V30 24 C -48.273000 -7.926000 72.495000 0
M  V30 25 C -49.672000 -11.784000 70.432000 0
M  V30 26 C -54.284000 -6.933000 71.791000 0
M  V30 27 C -47.204000 -14.390000 69.488000 0 CFG=1
M  V30 28 C -53.087000 -8.990000 71.111000 0
M  V30 29 C -49.647000 -9.661000 71.434000 0
M  V30 30 C -54.255000 -8.222000 71.263000 0
M  V30 31 C -51.022000 -9.522000 71.241000 0
M  V30 32 C -51.736000 -10.553000 70.627000 0
M  V30 33 C -47.784000 -15.826000 71.407000 0
M  V30 34 C -47.358000 -6.960000 73.115000 0 CFG=1
M  V30 35 H -45.526800 -7.722900 72.864100 0
M  V30 36 H -52.280100 -6.670500 72.175700 0
M  V30 37 H -53.282800 -5.316000 72.575600 0
M  V30 38 H -46.712600 -14.679400 67.552700 0
M  V30 39 H -48.308900 -14.440100 67.800700 0
M  V30 40 H -55.604400 -12.287900 70.636300 0
M  V30 41 H -54.267200 -12.329200 71.572700 0
M  V30 42 H -55.290700 -11.060200 71.666400 0
M  V30 43 H -48.021400 -7.312000 75.056300 0
M  V30 44 H -46.783700 -8.282200 74.616600 0
M  V30 45 H -46.500900 -6.719400 74.996500 0
M  V30 46 H -48.809500 -5.510100 73.475000 0
M  V30 47 H -47.295900 -4.900000 73.416700 0
M  V30 48 H -48.059800 -5.322000 72.036500 0
M  V30 49 H -47.480300 -13.275500 71.232300 0
M  V30 50 H -47.111000 -12.352600 69.936700 0
M  V30 51 H -53.697200 -11.705800 69.356800 0
M  V30 52 H -54.720700 -10.436800 69.450500 0
M  V30 53 H -47.231000 -16.306400 75.124800 0
M  V30 54 H -49.189500 -15.172200 74.346900 0
M  V30 55 H -45.619200 -17.126300 73.558700 0
M  V30 56 H -49.547900 -14.875300 71.995700 0
M  V30 57 H -45.960000 -16.817100 71.209900 0
M  V30 58 H -51.536400 -12.439600 69.779100 0
M  V30 59 H -47.675500 -16.425400 69.422900 0
M  V30 60 H -48.969500 -15.480700 69.738700 0
M  V30 61 H -46.233100 -14.553700 69.663100 0
M  V30 62 H -47.273000 -13.179800 67.875200 0
M  V30 END ATOM
M  V30 BEGIN BOND
M  V30 1 1 1 34
M  V30 2 1 2 6
M  V30 3 1 2 7
M  V30 4 1 3 14
M  V30 5 1 3 25
M  V30 6 1 4 26
M  V30 7 1 5 27
M  V30 8 2 6 26
M  V30 9 2 7 30
M  V30 10 2 8 25
M  V30 11 1 8 29
M  V30 12 2 9 28
M  V30 13 1 9 31
M  V30 14 1 10 15
M  V30 15 1 10 28
M  V30 16 1 10 32
M  V30 17 1 11 15
M  V30 18 1 12 34
M  V30 19 1 13 34
M  V30 20 1 14 27
M  V30 21 2 16 17
M  V30 22 1 16 18
M  V30 23 1 17 19
M  V30 24 2 18 20
M  V30 25 2 19 33
M  V30 26 1 20 33
M  V30 27 3 21 24
M  V30 28 1 21 29
M  V30 29 1 22 25
M  V30 30 2 22 32
M  V30 31 1 23 27
M  V30 32 1 23 33
M  V30 33 1 34 24 CFG=3
M  V30 34 1 26 30
M  V30 35 1 28 30
M  V30 36 2 29 31
M  V30 37 1 31 32
M  V30 38 1 1 35
M  V30 39 1 4 36
M  V30 40 1 4 37
M  V30 41 1 5 38 CFG=3
M  V30 42 1 5 39
M  V30 43 1 11 40 CFG=3
M  V30 44 1 11 41
M  V30 45 1 11 42
M  V30 46 1 12 43 CFG=1
M  V30 47 1 12 44
M  V30 48 1 12 45
M  V30 49 1 13 46 CFG=1
M  V30 50 1 13 47
M  V30 51 1 13 48
M  V30 52 1 14 49 CFG=1
M  V30 53 1 14 50
M  V30 54 1 15 51 CFG=3
M  V30 55 1 15 52
M  V30 56 1 16 53
M  V30 57 1 17 54
M  V30 58 1 18 55
M  V30 59 1 19 56
M  V30 60 1 20 57
M  V30 61 1 22 58
M  V30 62 1 23 59 CFG=3
M  V30 63 1 23 60
M  V30 64 1 27 61 CFG=3
M  V30 65 1 5 62
M  V30 END BOND
M  V30 END CTAB
M  END
>  <Ligand_Instance>  (212) 
3E8C_G96_E_351

>  <Dataset>  (212) 
PDB

>  <PDB_ID>  (212) 
3E8C

>  <Chain>  (212) 
E

>  <Resi>  (212) 
351

>  <Num_Resolved_Atoms>  (212) 
34

>  <Num_H_Atoms_ProtBoundConf>  (212) 
28

>  <Pocket>  (212) 
A, B

>  <SMILES>  (212) 
CCn1c2cc(nc(c2nc1c3c(non3)N)C#CC(C)(C)O)OC[C@@H](Cc4ccccc4)N

>  <Name>  (212) 
4-[2-(4-amino-1,2,5-oxadiazol-3-yl)-6-{[(2R)-2-amino-3-phenylpropyl]oxy}-1-ethyl-1H-imidazo[4,5-c]pyridin-4-yl]-2-methylbut-3-yn-2-ol

>  <Num_Heavy_Atoms>  (212) 
34

>  <Num_Not_Resolved_Atoms>  (212) 
0

>  <ATP_Site>  (212) 
True

>  <Peripheral>  (212) 
False

>  <Standardized_SMILES>  (212) 
[H]OC(C#CC1=C2N=C(C3=NON=C3N([H])[H])N(C([H])([H])C([H])([H])[H])C2=C([H])C(OC([H])([H])[C@@]([H])(C([H])([H])C2=C([H])C([H])=C([H])C([H])=C2[H])[N+]([H])([H])[H])=N1)(C([H])([H])[H])C([H])([H])[H]

$$$$
G96
     RDKit          3D

  0  0  0  0  0  0  0  0  0  0999 V3000
M  V30 BEGIN CTAB
M  V30 COUNTS 62 65 0 0 0
M  V30 BEGIN ATOM
M  V30 1 O -9.314000 -3.114000 80.047000 0
M  V30 2 O 0.845000 -1.336000 80.997000 0
M  V30 3 O -4.864000 -8.473000 81.265000 0
M  V30 4 N -2.520000 -0.677000 80.460000 0
M  V30 5 N -6.226000 -10.541000 82.669000 0 CFG=1 CHG=1
M  V30 6 N -0.178000 -0.362000 80.719000 0
M  V30 7 N 0.358000 -2.687000 81.117000 0
M  V30 8 N -5.429000 -6.255000 80.674000 0
M  V30 9 N -3.193000 -3.312000 80.596000 0
M  V30 10 N -1.647000 -4.811000 81.262000 0
M  V30 11 C 0.468000 -5.804000 80.488000 0 CFG=1
M  V30 12 C -8.269000 -2.391000 78.003000 0 CFG=1
M  V30 13 C -7.868000 -1.209000 80.185000 0 CFG=1
M  V30 14 C -6.118000 -8.965000 80.801000 0 CFG=2
M  V30 15 C -0.385000 -5.437000 81.686000 0 CFG=2
M  V30 16 C -5.766000 -11.231000 76.309000 0
M  V30 17 C -4.768000 -10.458000 76.900000 0
M  V30 18 C -6.584000 -12.036000 77.093000 0
M  V30 19 C -4.586000 -10.488000 78.280000 0
M  V30 20 C -6.412000 -12.063000 78.474000 0
M  V30 21 C -6.033000 -4.132000 80.102000 0
M  V30 22 C -3.195000 -6.774000 81.306000 0
M  V30 23 C -5.231000 -11.315000 80.570000 0 CFG=2
M  V30 24 C -6.951000 -3.444000 79.782000 0
M  V30 25 C -4.512000 -7.163000 81.080000 0
M  V30 26 C -1.263000 -1.161000 80.688000 0
M  V30 27 C -6.292000 -10.424000 81.219000 0 CFG=1
M  V30 28 C -1.912000 -3.535000 80.941000 0
M  V30 29 C -5.106000 -4.951000 80.478000 0
M  V30 30 C -0.966000 -2.500000 80.929000 0
M  V30 31 C -3.793000 -4.519000 80.701000 0
M  V30 32 C -2.825000 -5.443000 81.120000 0
M  V30 33 C -5.411000 -11.292000 79.068000 0
M  V30 34 C -8.102000 -2.555000 79.512000 0 CFG=1
M  V30 35 H -9.485900 -4.003700 79.623900 0
M  V30 36 H -3.301000 -1.301400 80.444400 0
M  V30 37 H -2.659100 0.301600 80.308700 0
M  V30 38 H -6.789900 -11.311100 82.967300 0
M  V30 39 H -5.278100 -10.694100 82.948300 0
M  V30 40 H 1.318300 -6.226800 80.801200 0
M  V30 41 H -0.030900 -6.448300 79.908400 0
M  V30 42 H 0.679300 -4.978900 79.964000 0
M  V30 43 H -7.433000 -2.002600 77.615400 0
M  V30 44 H -8.445300 -3.283700 77.588200 0
M  V30 45 H -9.038000 -1.779400 77.817300 0
M  V30 46 H -7.028300 -0.799500 79.828300 0
M  V30 47 H -8.640800 -0.603100 79.996100 0
M  V30 48 H -7.781300 -1.340700 81.172500 0
M  V30 49 H -6.151100 -8.899800 79.803700 0
M  V30 50 H -6.855600 -8.417000 81.195600 0
M  V30 51 H -0.589800 -6.265100 82.207800 0
M  V30 52 H 0.120500 -4.795700 82.263300 0
M  V30 53 H -5.893900 -11.206300 75.317500 0
M  V30 54 H -4.181600 -9.880800 76.331700 0
M  V30 55 H -7.294800 -12.594800 76.665700 0
M  V30 56 H -3.867900 -9.936400 78.704400 0
M  V30 57 H -7.005400 -12.634600 79.040700 0
M  V30 58 H -2.516600 -7.446900 81.600800 0
M  V30 59 H -5.331500 -12.252100 80.904300 0
M  V30 60 H -4.320200 -10.973900 80.802700 0
M  V30 61 H -7.193500 -10.734300 80.917200 0
M  V30 62 H -6.564700 -9.698100 83.087200 0
M  V30 END ATOM
M  V30 BEGIN BOND
M  V30 1 1 1 34
M  V30 2 1 2 6
M  V30 3 1 2 7
M  V30 4 1 3 14
M  V30 5 1 3 25
M  V30 6 1 4 26
M  V30 7 1 5 27
M  V30 8 2 6 26
M  V30 9 2 7 30
M  V30 10 2 8 25
M  V30 11 1 8 29
M  V30 12 2 9 28
M  V30 13 1 9 31
M  V30 14 1 10 15
M  V30 15 1 10 28
M  V30 16 1 10 32
M  V30 17 1 11 15
M  V30 18 1 12 34
M  V30 19 1 13 34
M  V30 20 1 14 27
M  V30 21 2 16 17
M  V30 22 1 16 18
M  V30 23 1 17 19
M  V30 24 2 18 20
M  V30 25 2 19 33
M  V30 26 1 20 33
M  V30 27 3 21 24
M  V30 28 1 21 29
M  V30 29 1 22 25
M  V30 30 2 22 32
M  V30 31 1 23 27
M  V30 32 1 23 33
M  V30 33 1 34 24 CFG=3
M  V30 34 1 26 30
M  V30 35 1 28 30
M  V30 36 2 29 31
M  V30 37 1 31 32
M  V30 38 1 1 35
M  V30 39 1 4 36
M  V30 40 1 4 37
M  V30 41 1 5 38 CFG=1
M  V30 42 1 5 39
M  V30 43 1 11 40 CFG=1
M  V30 44 1 11 41
M  V30 45 1 11 42
M  V30 46 1 12 43 CFG=3
M  V30 47 1 12 44
M  V30 48 1 12 45
M  V30 49 1 13 46 CFG=3
M  V30 50 1 13 47
M  V30 51 1 13 48
M  V30 52 1 14 49 CFG=3
M  V30 53 1 14 50
M  V30 54 1 15 51 CFG=1
M  V30 55 1 15 52
M  V30 56 1 16 53
M  V30 57 1 17 54
M  V30 58 1 18 55
M  V30 59 1 19 56
M  V30 60 1 20 57
M  V30 61 1 22 58
M  V30 62 1 23 59 CFG=1
M  V30 63 1 23 60
M  V30 64 1 27 61 CFG=3
M  V30 65 1 5 62
M  V30 END BOND
M  V30 END CTAB
M  END
>  <Ligand_Instance>  (213) 
3E8C_G96_F_351

>  <Dataset>  (213) 
PDB

>  <PDB_ID>  (213) 
3E8C

>  <Chain>  (213) 
F

>  <Resi>  (213) 
351

>  <Num_Resolved_Atoms>  (213) 
34

>  <Num_H_Atoms_ProtBoundConf>  (213) 
28

>  <Pocket>  (213) 
A, B

>  <SMILES>  (213) 
CCn1c2cc(nc(c2nc1c3c(non3)N)C#CC(C)(C)O)OC[C@@H](Cc4ccccc4)N

>  <Name>  (213) 
4-[2-(4-amino-1,2,5-oxadiazol-3-yl)-6-{[(2R)-2-amino-3-phenylpropyl]oxy}-1-ethyl-1H-imidazo[4,5-c]pyridin-4-yl]-2-methylbut-3-yn-2-ol

>  <Num_Heavy_Atoms>  (213) 
34

>  <Num_Not_Resolved_Atoms>  (213) 
0

>  <ATP_Site>  (213) 
True

>  <Peripheral>  (213) 
False

>  <Standardized_SMILES>  (213) 
[H]OC(C#CC1=C2N=C(C3=NON=C3N([H])[H])N(C([H])([H])C([H])([H])[H])C2=C([H])C(OC([H])([H])[C@@]([H])(C([H])([H])C2=C([H])C([H])=C([H])C([H])=C2[H])[N+]([H])([H])[H])=N1)(C([H])([H])[H])C([H])([H])[H]

$$$$
G98
     RDKit          3D

  0  0  0  0  0  0  0  0  0  0999 V3000
M  V30 BEGIN CTAB
M  V30 COUNTS 62 65 0 0 0
M  V30 BEGIN ATOM
M  V30 1 O 3.990000 -8.800000 21.245000 0
M  V30 2 O 14.319000 -6.758000 22.605000 0
M  V30 3 O 8.493000 -13.877000 22.514000 0
M  V30 4 N 7.560000 -15.721000 23.886000 0 CFG=1 CHG=1
M  V30 5 N 11.027000 -5.777000 22.110000 0
M  V30 6 N 13.374000 -5.696000 22.380000 0
M  V30 7 N 13.735000 -8.051000 22.668000 0
M  V30 8 N 7.941000 -11.649000 22.015000 0
M  V30 9 N 10.131000 -8.653000 22.086000 0
M  V30 10 N 11.675000 -10.144000 22.735000 0
M  V30 11 C 13.526000 -11.583000 22.053000 0 CFG=1
M  V30 12 C 5.198000 -7.748000 19.423000 0 CFG=1
M  V30 13 C 5.283000 -6.821000 21.751000 0 CFG=1
M  V30 14 C 8.529000 -16.703000 23.436000 0 CFG=2
M  V30 15 C 12.921000 -10.786000 23.185000 0 CFG=2
M  V30 16 C 7.272000 -16.375000 18.289000 0
M  V30 17 C 6.624000 -16.439000 19.518000 0
M  V30 18 C 8.546000 -15.820000 18.214000 0
M  V30 19 C 9.661000 -16.025000 22.682000 0 CFG=2
M  V30 20 C 7.245000 -15.952000 20.666000 0
M  V30 21 C 9.176000 -15.332000 19.351000 0
M  V30 22 C 7.293000 -9.578000 21.502000 0
M  V30 23 C 10.169000 -12.137000 22.672000 0
M  V30 24 C 6.363000 -8.915000 21.216000 0
M  V30 25 C 8.860000 -12.555000 22.402000 0
M  V30 26 C 12.222000 -6.404000 22.314000 0
M  V30 27 C 9.241000 -14.861000 21.784000 0 CFG=1
M  V30 28 C 11.400000 -8.864000 22.467000 0
M  V30 29 C 8.250000 -10.341000 21.869000 0
M  V30 30 C 12.424000 -7.772000 22.514000 0
M  V30 31 C 9.547000 -9.876000 22.129000 0
M  V30 32 C 10.515000 -10.792000 22.539000 0
M  V30 33 C 8.527000 -15.389000 20.587000 0
M  V30 34 C 5.193000 -8.088000 20.906000 0 CFG=1
M  V30 35 H 3.942500 -9.646000 20.713900 0
M  V30 36 H 6.666900 -15.926200 23.485600 0
M  V30 37 H 7.493200 -15.751400 24.883300 0
M  V30 38 H 10.183300 -6.311800 22.063300 0
M  V30 39 H 10.995100 -4.782800 22.007200 0
M  V30 40 H 14.371500 -12.016300 22.365000 0
M  V30 41 H 12.879800 -12.287000 21.758400 0
M  V30 42 H 13.727100 -10.973300 21.286300 0
M  V30 43 H 6.037400 -7.253600 19.197200 0
M  V30 44 H 5.153500 -8.591400 18.887500 0
M  V30 45 H 4.406300 -7.175500 19.209600 0
M  V30 46 H 6.118500 -6.323400 21.517800 0
M  V30 47 H 4.488300 -6.241900 21.569100 0
M  V30 48 H 5.301200 -7.067200 22.720000 0
M  V30 49 H 8.076900 -17.358700 22.831300 0
M  V30 50 H 8.903100 -17.183900 24.229000 0
M  V30 51 H 12.721400 -11.396900 23.951100 0
M  V30 52 H 13.568800 -10.083200 23.479100 0
M  V30 53 H 6.825800 -16.725200 17.465400 0
M  V30 54 H 5.708300 -16.836300 19.577800 0
M  V30 55 H 9.013100 -15.772100 17.331100 0
M  V30 56 H 10.106200 -16.712800 22.108700 0
M  V30 57 H 10.315000 -15.677000 23.353700 0
M  V30 58 H 6.776000 -16.003900 21.547600 0
M  V30 59 H 10.093600 -14.940000 19.285300 0
M  V30 60 H 10.856600 -12.803400 22.960500 0
M  V30 61 H 10.077300 -14.418600 21.460100 0
M  V30 62 H 7.852200 -14.808700 23.599200 0
M  V30 END ATOM
M  V30 BEGIN BOND
M  V30 1 1 1 34
M  V30 2 1 2 6
M  V30 3 1 2 7
M  V30 4 1 3 25
M  V30 5 1 3 27
M  V30 6 1 4 14
M  V30 7 1 5 26
M  V30 8 2 6 26
M  V30 9 2 7 30
M  V30 10 2 8 25
M  V30 11 1 8 29
M  V30 12 2 9 28
M  V30 13 1 9 31
M  V30 14 1 10 15
M  V30 15 1 10 28
M  V30 16 1 10 32
M  V30 17 1 11 15
M  V30 18 1 12 34
M  V30 19 1 13 34
M  V30 20 1 14 19
M  V30 21 2 16 17
M  V30 22 1 16 18
M  V30 23 1 17 20
M  V30 24 2 18 21
M  V30 25 1 19 27
M  V30 26 2 20 33
M  V30 27 1 21 33
M  V30 28 3 22 24
M  V30 29 1 22 29
M  V30 30 1 23 25
M  V30 31 2 23 32
M  V30 32 1 34 24 CFG=3
M  V30 33 1 26 30
M  V30 34 1 27 33
M  V30 35 1 28 30
M  V30 36 2 29 31
M  V30 37 1 31 32
M  V30 38 1 1 35
M  V30 39 1 4 36 CFG=3
M  V30 40 1 4 37
M  V30 41 1 5 38
M  V30 42 1 5 39
M  V30 43 1 11 40 CFG=1
M  V30 44 1 11 41
M  V30 45 1 11 42
M  V30 46 1 12 43 CFG=3
M  V30 47 1 12 44
M  V30 48 1 12 45
M  V30 49 1 13 46 CFG=3
M  V30 50 1 13 47
M  V30 51 1 13 48
M  V30 52 1 14 49 CFG=3
M  V30 53 1 14 50
M  V30 54 1 15 51 CFG=1
M  V30 55 1 15 52
M  V30 56 1 16 53
M  V30 57 1 17 54
M  V30 58 1 18 55
M  V30 59 1 19 56 CFG=3
M  V30 60 1 19 57
M  V30 61 1 20 58
M  V30 62 1 21 59
M  V30 63 1 23 60
M  V30 64 1 27 61 CFG=3
M  V30 65 1 4 62
M  V30 END BOND
M  V30 END CTAB
M  END
>  <Ligand_Instance>  (214) 
3E8E_G98_A_351

>  <Dataset>  (214) 
PDB

>  <PDB_ID>  (214) 
3E8E

>  <Chain>  (214) 
A

>  <Resi>  (214) 
351

>  <Num_Resolved_Atoms>  (214) 
34

>  <Num_H_Atoms_ProtBoundConf>  (214) 
28

>  <Pocket>  (214) 
A, B

>  <SMILES>  (214) 
CCn1c2cc(nc(c2nc1C3=C(NON3)N)C#CC(C)(C)O)O[C@@H](CCN)c4ccccc4

>  <Name>  (214) 
4-[2-(4-amino-2,5-dihydro-1,2,5-oxadiazol-3-yl)-6-{[(1S)-3-amino-1-phenylpropyl]oxy}-1-ethyl-1H-imidazo[4,5-c]pyridin-4-yl]-2-methylbut-3-yn-2-ol

>  <Num_Heavy_Atoms>  (214) 
34

>  <Num_Not_Resolved_Atoms>  (214) 
0

>  <ATP_Site>  (214) 
True

>  <Peripheral>  (214) 
False

>  <Standardized_SMILES>  (214) 
[H]OC(C#CC1=C2N=C(C3=NON=C3N([H])[H])N(C([H])([H])C([H])([H])[H])C2=C([H])C(O[C@]([H])(C2=C([H])C([H])=C([H])C([H])=C2[H])C([H])([H])C([H])([H])[N+]([H])([H])[H])=N1)(C([H])([H])[H])C([H])([H])[H]

$$$$
G98
     RDKit          3D

  0  0  0  0  0  0  0  0  0  0999 V3000
M  V30 BEGIN CTAB
M  V30 COUNTS 62 65 0 0 0
M  V30 BEGIN ATOM
M  V30 1 O -17.279000 38.782000 37.025000 0
M  V30 2 O -27.713000 40.577000 35.651000 0
M  V30 3 O -21.644000 33.663000 36.343000 0
M  V30 4 N -21.674000 32.573000 33.877000 0 CFG=1 CHG=1
M  V30 5 N -24.442000 41.703000 36.035000 0
M  V30 6 N -26.780000 41.663000 35.748000 0
M  V30 7 N -27.099000 39.292000 35.755000 0
M  V30 8 N -21.213000 35.922000 36.718000 0
M  V30 9 N -23.488000 38.825000 36.415000 0
M  V30 10 N -24.976000 37.237000 35.841000 0
M  V30 11 C -26.701000 35.593000 36.497000 0 CFG=1
M  V30 12 C -18.259000 39.873000 38.924000 0 CFG=1
M  V30 13 C -18.544000 40.772000 36.577000 0 CFG=1
M  V30 14 C -21.666000 31.411000 34.766000 0 CFG=2
M  V30 15 C -26.188000 36.514000 35.412000 0 CFG=2
M  V30 16 C -20.725000 31.107000 40.555000 0
M  V30 17 C -20.113000 30.825000 39.334000 0
M  V30 18 C -21.886000 31.881000 40.583000 0
M  V30 19 C -22.697000 31.510000 35.898000 0 CFG=2
M  V30 20 C -20.657000 31.318000 38.148000 0
M  V30 21 C -22.433000 32.367000 39.400000 0
M  V30 22 C -20.604000 38.024000 37.101000 0
M  V30 23 C -23.407000 35.312000 36.044000 0
M  V30 24 C -19.648000 38.721000 37.260000 0
M  V30 25 C -22.088000 34.965000 36.365000 0
M  V30 26 C -25.615000 41.002000 35.902000 0
M  V30 27 C -22.441000 32.625000 36.923000 0 CFG=1
M  V30 28 C -24.749000 38.546000 36.040000 0
M  V30 29 C -21.550000 37.225000 36.758000 0
M  V30 30 C -25.792000 39.612000 35.890000 0
M  V30 31 C -22.861000 37.624000 36.451000 0
M  V30 32 C -23.798000 36.650000 36.090000 0
M  V30 33 C -21.824000 32.093000 38.174000 0
M  V30 34 C -18.429000 39.524000 37.445000 0 CFG=1
M  V30 35 H -17.204800 37.946100 37.568900 0
M  V30 36 H -20.775000 33.010600 33.892400 0
M  V30 37 H -21.885400 32.278300 32.945100 0
M  V30 38 H -23.577400 41.213800 36.149300 0
M  V30 39 H -24.452300 42.702800 36.017600 0
M  V30 40 H -27.520600 35.120500 36.173100 0
M  V30 41 H -25.996500 34.920700 36.724200 0
M  V30 42 H -26.925000 36.129100 37.310900 0
M  V30 43 H -19.053800 40.392700 39.237300 0
M  V30 44 H -18.179400 39.031300 39.458100 0
M  V30 45 H -17.432600 40.423200 39.043800 0
M  V30 46 H -19.344100 41.301500 36.858900 0
M  V30 47 H -17.720700 41.329500 36.684000 0
M  V30 48 H -18.642600 40.503600 35.618700 0
M  V30 49 H -20.755700 31.327100 35.171400 0
M  V30 50 H -21.866100 30.594700 34.224100 0
M  V30 51 H -25.971600 35.970700 34.600800 0
M  V30 52 H -26.900200 37.179100 35.187500 0
M  V30 53 H -20.334000 30.756400 41.406000 0
M  V30 54 H -19.282600 30.268300 39.308700 0
M  V30 55 H -22.326300 32.087000 41.456900 0
M  V30 56 H -22.704600 30.637300 36.386200 0
M  V30 57 H -23.594100 31.669200 35.485800 0
M  V30 58 H -20.212100 31.117400 37.275200 0
M  V30 59 H -23.268100 32.916400 39.427900 0
M  V30 60 H -24.064100 34.604600 35.783500 0
M  V30 61 H -23.325900 33.022200 37.166400 0
M  V30 62 H -22.367100 33.224300 34.185900 0
M  V30 END ATOM
M  V30 BEGIN BOND
M  V30 1 1 1 34
M  V30 2 1 2 6
M  V30 3 1 2 7
M  V30 4 1 3 25
M  V30 5 1 3 27
M  V30 6 1 4 14
M  V30 7 1 5 26
M  V30 8 2 6 26
M  V30 9 2 7 30
M  V30 10 2 8 25
M  V30 11 1 8 29
M  V30 12 2 9 28
M  V30 13 1 9 31
M  V30 14 1 10 15
M  V30 15 1 10 28
M  V30 16 1 10 32
M  V30 17 1 11 15
M  V30 18 1 12 34
M  V30 19 1 13 34
M  V30 20 1 14 19
M  V30 21 2 16 17
M  V30 22 1 16 18
M  V30 23 1 17 20
M  V30 24 2 18 21
M  V30 25 1 19 27
M  V30 26 2 20 33
M  V30 27 1 21 33
M  V30 28 3 22 24
M  V30 29 1 22 29
M  V30 30 1 23 25
M  V30 31 2 23 32
M  V30 32 1 34 24 CFG=1
M  V30 33 1 26 30
M  V30 34 1 27 33
M  V30 35 1 28 30
M  V30 36 2 29 31
M  V30 37 1 31 32
M  V30 38 1 1 35
M  V30 39 1 4 36 CFG=3
M  V30 40 1 4 37
M  V30 41 1 5 38
M  V30 42 1 5 39
M  V30 43 1 11 40 CFG=3
M  V30 44 1 11 41
M  V30 45 1 11 42
M  V30 46 1 12 43 CFG=1
M  V30 47 1 12 44
M  V30 48 1 12 45
M  V30 49 1 13 46 CFG=1
M  V30 50 1 13 47
M  V30 51 1 13 48
M  V30 52 1 14 49 CFG=1
M  V30 53 1 14 50
M  V30 54 1 15 51 CFG=3
M  V30 55 1 15 52
M  V30 56 1 16 53
M  V30 57 1 17 54
M  V30 58 1 18 55
M  V30 59 1 19 56 CFG=1
M  V30 60 1 19 57
M  V30 61 1 20 58
M  V30 62 1 21 59
M  V30 63 1 23 60
M  V30 64 1 27 61 CFG=1
M  V30 65 1 4 62
M  V30 END BOND
M  V30 END CTAB
M  END
>  <Ligand_Instance>  (215) 
3E8E_G98_B_351

>  <Dataset>  (215) 
PDB

>  <PDB_ID>  (215) 
3E8E

>  <Chain>  (215) 
B

>  <Resi>  (215) 
351

>  <Num_Resolved_Atoms>  (215) 
34

>  <Num_H_Atoms_ProtBoundConf>  (215) 
28

>  <Pocket>  (215) 
A, B

>  <SMILES>  (215) 
CCn1c2cc(nc(c2nc1C3=C(NON3)N)C#CC(C)(C)O)O[C@@H](CCN)c4ccccc4

>  <Name>  (215) 
4-[2-(4-amino-2,5-dihydro-1,2,5-oxadiazol-3-yl)-6-{[(1S)-3-amino-1-phenylpropyl]oxy}-1-ethyl-1H-imidazo[4,5-c]pyridin-4-yl]-2-methylbut-3-yn-2-ol

>  <Num_Heavy_Atoms>  (215) 
34

>  <Num_Not_Resolved_Atoms>  (215) 
0

>  <ATP_Site>  (215) 
True

>  <Peripheral>  (215) 
False

>  <Standardized_SMILES>  (215) 
[H]OC(C#CC1=C2N=C(C3=NON=C3N([H])[H])N(C([H])([H])C([H])([H])[H])C2=C([H])C(O[C@]([H])(C2=C([H])C([H])=C([H])C([H])=C2[H])C([H])([H])C([H])([H])[N+]([H])([H])[H])=N1)(C([H])([H])[H])C([H])([H])[H]

$$$$
G98
     RDKit          3D

  0  0  0  0  0  0  0  0  0  0999 V3000
M  V30 BEGIN CTAB
M  V30 COUNTS 62 65 0 0 0
M  V30 BEGIN ATOM
M  V30 1 O -32.561000 -11.927000 14.007000 0
M  V30 2 O -43.033000 -11.928000 12.808000 0
M  V30 3 O -35.650000 -17.251000 10.996000 0
M  V30 4 N -34.522000 -18.200000 8.980000 0 CFG=1 CHG=1
M  V30 5 N -40.067000 -10.643000 14.018000 0
M  V30 6 N -42.331000 -10.900000 13.504000 0
M  V30 7 N -42.188000 -13.000000 12.368000 0
M  V30 8 N -35.655000 -15.275000 12.302000 0
M  V30 9 N -38.523000 -13.043000 13.075000 0
M  V30 10 N -39.653000 -14.507000 11.801000 0
M  V30 11 C -41.071000 -16.488000 11.818000 0 CFG=1
M  V30 12 C -33.671000 -11.952000 16.152000 0 CFG=1
M  V30 13 C -34.229000 -10.245000 14.414000 0 CFG=1
M  V30 14 C -35.125000 -19.511000 9.124000 0 CFG=2
M  V30 15 C -40.690000 -15.236000 11.058000 0 CFG=2
M  V30 16 C -33.830000 -20.701000 14.152000 0
M  V30 17 C -33.204000 -20.129000 13.048000 0
M  V30 18 C -35.208000 -20.580000 14.301000 0
M  V30 19 C -36.365000 -19.409000 10.002000 0 CFG=2
M  V30 20 C -33.951000 -19.426000 12.107000 0
M  V30 21 C -35.962000 -19.892000 13.359000 0
M  V30 22 C -35.536000 -13.416000 13.566000 0
M  V30 23 C -37.687000 -15.982000 11.314000 0
M  V30 24 C -34.827000 -12.611000 14.081000 0
M  V30 25 C -36.316000 -16.161000 11.536000 0
M  V30 26 C -41.072000 -11.366000 13.452000 0
M  V30 27 C -36.176000 -18.568000 11.272000 0 CFG=1
M  V30 28 C -39.714000 -13.386000 12.534000 0
M  V30 29 C -36.270000 -14.205000 12.860000 0
M  V30 30 C -40.970000 -12.582000 12.773000 0
M  V30 31 C -37.650000 -13.983000 12.654000 0
M  V30 32 C -38.364000 -14.891000 11.871000 0
M  V30 33 C -35.337000 -19.311000 12.255000 0
M  V30 34 C -33.823000 -11.699000 14.652000 0 CFG=1
M  V30 35 H -32.273800 -12.872400 14.161300 0
M  V30 36 H -33.534400 -18.298900 8.858300 0
M  V30 37 H -34.911700 -17.739700 8.182400 0
M  V30 38 H -39.126800 -10.982000 13.984200 0
M  V30 39 H -40.268900 -9.772900 14.467600 0
M  V30 40 H -41.776800 -16.983500 11.311700 0
M  V30 41 H -40.265700 -17.071200 11.924700 0
M  V30 42 H -41.422300 -16.236600 12.719900 0
M  V30 43 H -34.547400 -11.794700 16.607100 0
M  V30 44 H -33.382000 -12.897300 16.303000 0
M  V30 45 H -32.984200 -11.329500 16.527100 0
M  V30 46 H -35.107700 -10.067500 14.857100 0
M  V30 47 H -33.533500 -9.637600 14.797800 0
M  V30 48 H -34.311500 -10.078500 13.431400 0
M  V30 49 H -34.468000 -20.134900 9.547100 0
M  V30 50 H -35.383000 -19.859500 8.222900 0
M  V30 51 H -40.338900 -15.487700 10.156100 0
M  V30 52 H -41.495400 -14.653000 10.951300 0
M  V30 53 H -33.292200 -21.196200 14.834300 0
M  V30 54 H -32.215400 -20.223300 12.930700 0
M  V30 55 H -35.659300 -20.991700 15.092700 0
M  V30 56 H -36.631100 -20.333200 10.275800 0
M  V30 57 H -37.098300 -18.997500 9.460800 0
M  V30 58 H -33.495800 -19.002400 11.323800 0
M  V30 59 H -36.952500 -19.813100 13.472000 0
M  V30 60 H -38.187400 -16.640400 10.751800 0
M  V30 61 H -37.078800 -18.446500 11.684500 0
M  V30 62 H -34.704200 -17.657400 9.800000 0
M  V30 END ATOM
M  V30 BEGIN BOND
M  V30 1 1 1 34
M  V30 2 1 2 6
M  V30 3 1 2 7
M  V30 4 1 3 25
M  V30 5 1 3 27
M  V30 6 1 4 14
M  V30 7 1 5 26
M  V30 8 2 6 26
M  V30 9 2 7 30
M  V30 10 2 8 25
M  V30 11 1 8 29
M  V30 12 2 9 28
M  V30 13 1 9 31
M  V30 14 1 10 15
M  V30 15 1 10 28
M  V30 16 1 10 32
M  V30 17 1 11 15
M  V30 18 1 12 34
M  V30 19 1 13 34
M  V30 20 1 14 19
M  V30 21 2 16 17
M  V30 22 1 16 18
M  V30 23 1 17 20
M  V30 24 2 18 21
M  V30 25 1 19 27
M  V30 26 2 20 33
M  V30 27 1 21 33
M  V30 28 3 22 24
M  V30 29 1 22 29
M  V30 30 1 23 25
M  V30 31 2 23 32
M  V30 32 1 34 24 CFG=3
M  V30 33 1 26 30
M  V30 34 1 27 33
M  V30 35 1 28 30
M  V30 36 2 29 31
M  V30 37 1 31 32
M  V30 38 1 1 35
M  V30 39 1 4 36 CFG=3
M  V30 40 1 4 37
M  V30 41 1 5 38
M  V30 42 1 5 39
M  V30 43 1 11 40 CFG=3
M  V30 44 1 11 41
M  V30 45 1 11 42
M  V30 46 1 12 43 CFG=1
M  V30 47 1 12 44
M  V30 48 1 12 45
M  V30 49 1 13 46 CFG=1
M  V30 50 1 13 47
M  V30 51 1 13 48
M  V30 52 1 14 49 CFG=1
M  V30 53 1 14 50
M  V30 54 1 15 51 CFG=3
M  V30 55 1 15 52
M  V30 56 1 16 53
M  V30 57 1 17 54
M  V30 58 1 18 55
M  V30 59 1 19 56 CFG=1
M  V30 60 1 19 57
M  V30 61 1 20 58
M  V30 62 1 21 59
M  V30 63 1 23 60
M  V30 64 1 27 61 CFG=1
M  V30 65 1 4 62
M  V30 END BOND
M  V30 END CTAB
M  END
>  <Ligand_Instance>  (216) 
3E8E_G98_E_351

>  <Dataset>  (216) 
PDB

>  <PDB_ID>  (216) 
3E8E

>  <Chain>  (216) 
E

>  <Resi>  (216) 
351

>  <Num_Resolved_Atoms>  (216) 
34

>  <Num_H_Atoms_ProtBoundConf>  (216) 
28

>  <Pocket>  (216) 
A, B

>  <SMILES>  (216) 
CCn1c2cc(nc(c2nc1C3=C(NON3)N)C#CC(C)(C)O)O[C@@H](CCN)c4ccccc4

>  <Name>  (216) 
4-[2-(4-amino-2,5-dihydro-1,2,5-oxadiazol-3-yl)-6-{[(1S)-3-amino-1-phenylpropyl]oxy}-1-ethyl-1H-imidazo[4,5-c]pyridin-4-yl]-2-methylbut-3-yn-2-ol

>  <Num_Heavy_Atoms>  (216) 
34

>  <Num_Not_Resolved_Atoms>  (216) 
0

>  <ATP_Site>  (216) 
True

>  <Peripheral>  (216) 
False

>  <Standardized_SMILES>  (216) 
[H]OC(C#CC1=C2N=C(C3=NON=C3N([H])[H])N(C([H])([H])C([H])([H])[H])C2=C([H])C(O[C@]([H])(C2=C([H])C([H])=C([H])C([H])=C2[H])C([H])([H])C([H])([H])[N+]([H])([H])[H])=N1)(C([H])([H])[H])C([H])([H])[H]

$$$$
G98
     RDKit          3D

  0  0  0  0  0  0  0  0  0  0999 V3000
M  V30 BEGIN CTAB
M  V30 COUNTS 62 65 0 0 0
M  V30 BEGIN ATOM
M  V30 1 O 19.288000 35.905000 44.712000 0
M  V30 2 O 29.722000 35.656000 45.928000 0
M  V30 3 O 22.283000 30.720000 48.199000 0
M  V30 4 N 21.050000 29.575000 50.261000 0 CFG=1 CHG=1
M  V30 5 N 26.730000 36.950000 44.703000 0
M  V30 6 N 29.024000 36.666000 45.180000 0
M  V30 7 N 28.854000 34.649000 46.468000 0
M  V30 8 N 22.280000 32.607000 46.749000 0
M  V30 9 N 25.192000 34.699000 45.809000 0
M  V30 10 N 26.295000 33.271000 47.159000 0
M  V30 11 C 27.578000 31.177000 47.391000 0 CFG=1
M  V30 12 C 20.380000 35.475000 42.612000 0 CFG=1
M  V30 13 C 21.055000 37.410000 44.098000 0 CFG=1
M  V30 14 C 21.829000 28.359000 50.133000 0 CFG=2
M  V30 15 C 27.315000 32.561000 47.947000 0 CFG=2
M  V30 16 C 20.086000 27.073000 45.506000 0
M  V30 17 C 19.564000 28.048000 46.358000 0
M  V30 18 C 21.460000 26.866000 45.461000 0
M  V30 19 C 23.053000 28.637000 49.271000 0 CFG=2
M  V30 20 C 20.415000 28.807000 47.166000 0
M  V30 21 C 22.314000 27.618000 46.259000 0
M  V30 22 C 22.260000 34.425000 45.366000 0
M  V30 23 C 24.309000 31.899000 47.764000 0
M  V30 24 C 21.515000 35.089000 44.726000 0
M  V30 25 C 22.937000 31.751000 47.568000 0
M  V30 26 C 27.750000 36.249000 45.289000 0
M  V30 27 C 22.746000 29.374000 47.956000 0 CFG=1
M  V30 28 C 26.372000 34.343000 46.356000 0
M  V30 29 C 22.932000 33.619000 46.112000 0
M  V30 30 C 27.641000 35.085000 46.054000 0
M  V30 31 C 24.304000 33.804000 46.295000 0
M  V30 32 C 25.000000 32.927000 47.128000 0
M  V30 33 C 21.796000 28.590000 47.118000 0
M  V30 34 C 20.553000 35.966000 44.045000 0 CFG=1
M  V30 35 H 18.958300 34.960900 44.715700 0
M  V30 36 H 20.083600 29.341900 50.369300 0
M  V30 37 H 21.361000 30.087400 51.061500 0
M  V30 38 H 25.787100 36.629000 44.791800 0
M  V30 39 H 26.928000 37.783000 44.186300 0
M  V30 40 H 28.273600 30.721300 47.946400 0
M  V30 41 H 26.732600 30.643300 47.411700 0
M  V30 42 H 27.901400 31.252600 46.447800 0
M  V30 43 H 21.259500 35.514100 42.137800 0
M  V30 44 H 20.047600 34.531900 42.620600 0
M  V30 45 H 19.719400 36.057000 42.137700 0
M  V30 46 H 21.939700 37.472500 43.636000 0
M  V30 47 H 20.397200 38.008600 43.640900 0
M  V30 48 H 21.156300 37.692900 45.051800 0
M  V30 49 H 21.271700 27.648500 49.703400 0
M  V30 50 H 22.120600 28.051700 51.038800 0
M  V30 51 H 26.996700 32.477200 48.891300 0
M  V30 52 H 28.165500 33.086600 47.927300 0
M  V30 53 H 19.475700 26.527200 44.931900 0
M  V30 54 H 18.576800 28.204000 46.390300 0
M  V30 55 H 21.836900 26.170300 44.849500 0
M  V30 56 H 23.483600 27.762700 49.047000 0
M  V30 57 H 23.689900 29.195900 49.802100 0
M  V30 58 H 20.037700 29.503200 47.776700 0
M  V30 59 H 23.301100 27.462900 46.218100 0
M  V30 60 H 24.798400 31.265200 48.363000 0
M  V30 61 H 23.604000 29.442600 47.446900 0
M  V30 62 H 21.168100 30.134400 49.440600 0
M  V30 END ATOM
M  V30 BEGIN BOND
M  V30 1 1 1 34
M  V30 2 1 2 6
M  V30 3 1 2 7
M  V30 4 1 3 25
M  V30 5 1 3 27
M  V30 6 1 4 14
M  V30 7 1 5 26
M  V30 8 2 6 26
M  V30 9 2 7 30
M  V30 10 2 8 25
M  V30 11 1 8 29
M  V30 12 2 9 28
M  V30 13 1 9 31
M  V30 14 1 10 15
M  V30 15 1 10 28
M  V30 16 1 10 32
M  V30 17 1 11 15
M  V30 18 1 12 34
M  V30 19 1 13 34
M  V30 20 1 14 19
M  V30 21 2 16 17
M  V30 22 1 16 18
M  V30 23 1 17 20
M  V30 24 2 18 21
M  V30 25 1 19 27
M  V30 26 2 20 33
M  V30 27 1 21 33
M  V30 28 3 22 24
M  V30 29 1 22 29
M  V30 30 1 23 25
M  V30 31 2 23 32
M  V30 32 1 34 24 CFG=1
M  V30 33 1 26 30
M  V30 34 1 27 33
M  V30 35 1 28 30
M  V30 36 2 29 31
M  V30 37 1 31 32
M  V30 38 1 1 35
M  V30 39 1 4 36 CFG=1
M  V30 40 1 4 37
M  V30 41 1 5 38
M  V30 42 1 5 39
M  V30 43 1 11 40 CFG=1
M  V30 44 1 11 41
M  V30 45 1 11 42
M  V30 46 1 12 43 CFG=3
M  V30 47 1 12 44
M  V30 48 1 12 45
M  V30 49 1 13 46 CFG=3
M  V30 50 1 13 47
M  V30 51 1 13 48
M  V30 52 1 14 49 CFG=3
M  V30 53 1 14 50
M  V30 54 1 15 51 CFG=1
M  V30 55 1 15 52
M  V30 56 1 16 53
M  V30 57 1 17 54
M  V30 58 1 18 55
M  V30 59 1 19 56 CFG=3
M  V30 60 1 19 57
M  V30 61 1 20 58
M  V30 62 1 21 59
M  V30 63 1 23 60
M  V30 64 1 27 61 CFG=3
M  V30 65 1 4 62
M  V30 END BOND
M  V30 END CTAB
M  END
>  <Ligand_Instance>  (217) 
3E8E_G98_I_351

>  <Dataset>  (217) 
PDB

>  <PDB_ID>  (217) 
3E8E

>  <Chain>  (217) 
I

>  <Resi>  (217) 
351

>  <Num_Resolved_Atoms>  (217) 
34

>  <Num_H_Atoms_ProtBoundConf>  (217) 
28

>  <Pocket>  (217) 
A, B

>  <SMILES>  (217) 
CCn1c2cc(nc(c2nc1C3=C(NON3)N)C#CC(C)(C)O)O[C@@H](CCN)c4ccccc4

>  <Name>  (217) 
4-[2-(4-amino-2,5-dihydro-1,2,5-oxadiazol-3-yl)-6-{[(1S)-3-amino-1-phenylpropyl]oxy}-1-ethyl-1H-imidazo[4,5-c]pyridin-4-yl]-2-methylbut-3-yn-2-ol

>  <Num_Heavy_Atoms>  (217) 
34

>  <Num_Not_Resolved_Atoms>  (217) 
0

>  <ATP_Site>  (217) 
True

>  <Peripheral>  (217) 
False

>  <Standardized_SMILES>  (217) 
[H]OC(C#CC1=C2N=C(C3=NON=C3N([H])[H])N(C([H])([H])C([H])([H])[H])C2=C([H])C(O[C@]([H])(C2=C([H])C([H])=C([H])C([H])=C2[H])C([H])([H])C([H])([H])[N+]([H])([H])[H])=N1)(C([H])([H])[H])C([H])([H])[H]

$$$$
G98
     RDKit          3D

  0  0  0  0  0  0  0  0  0  0999 V3000
M  V30 BEGIN CTAB
M  V30 COUNTS 62 65 0 0 0
M  V30 BEGIN ATOM
M  V30 1 O -46.072000 -7.536000 72.552000 0
M  V30 2 O -56.360000 -8.116000 71.390000 0
M  V30 3 O -48.970000 -13.251000 69.488000 0
M  V30 4 N -47.558000 -15.304000 67.666000 0 CFG=1 CHG=1
M  V30 5 N -53.368000 -6.512000 72.127000 0
M  V30 6 N -55.670000 -6.953000 71.880000 0
M  V30 7 N -55.487000 -9.179000 70.989000 0
M  V30 8 N -48.925000 -11.222000 70.732000 0
M  V30 9 N -51.818000 -9.021000 71.484000 0
M  V30 10 N -52.953000 -10.555000 70.301000 0
M  V30 11 C -54.718000 -12.233000 70.569000 0 CFG=1
M  V30 12 C -47.287000 -7.837000 74.606000 0 CFG=1
M  V30 13 C -47.940000 -6.058000 72.940000 0 CFG=1
M  V30 14 C -48.526000 -16.236000 68.206000 0 CFG=2
M  V30 15 C -54.016000 -11.296000 69.611000 0 CFG=2
M  V30 16 C -46.920000 -16.160000 73.004000 0
M  V30 17 C -46.346000 -15.641000 71.847000 0
M  V30 18 C -48.305000 -16.142000 73.154000 0
M  V30 19 C -49.723000 -15.474000 68.773000 0 CFG=2
M  V30 20 C -47.160000 -15.103000 70.849000 0
M  V30 21 C -49.121000 -15.612000 72.158000 0
M  V30 22 C -48.884000 -9.290000 71.931000 0
M  V30 23 C -50.978000 -12.006000 69.816000 0
M  V30 24 C -48.276000 -8.419000 72.452000 0
M  V30 25 C -49.602000 -12.146000 70.010000 0
M  V30 26 C -54.389000 -7.352000 71.767000 0
M  V30 27 C -49.451000 -14.525000 69.950000 0 CFG=1
M  V30 28 C -53.006000 -9.404000 70.981000 0
M  V30 29 C -49.566000 -10.149000 71.263000 0
M  V30 30 C -54.275000 -8.634000 71.223000 0
M  V30 31 C -50.942000 -9.970000 71.078000 0
M  V30 32 C -51.659000 -10.916000 70.345000 0
M  V30 33 C -48.552000 -15.094000 70.993000 0
M  V30 34 C -47.382000 -7.467000 73.130000 0 CFG=1
M  V30 35 H -45.532000 -8.227600 73.031600 0
M  V30 36 H -46.639800 -15.691100 67.749800 0
M  V30 37 H -47.761200 -15.133700 66.701800 0
M  V30 38 H -52.418500 -6.813600 72.041000 0
M  V30 39 H -53.572400 -5.597400 72.475800 0
M  V30 40 H -55.437800 -12.728800 70.083000 0
M  V30 41 H -54.057600 -12.884800 70.941800 0
M  V30 42 H -55.122700 -11.704800 71.315400 0
M  V30 43 H -48.196100 -7.792200 75.020100 0
M  V30 44 H -46.925800 -8.765300 74.694400 0
M  V30 45 H -46.676700 -7.196200 75.071700 0
M  V30 46 H -48.854200 -6.004600 73.341700 0
M  V30 47 H -47.338900 -5.397900 73.390400 0
M  V30 48 H -47.992300 -5.849000 71.963500 0
M  V30 49 H -48.099300 -16.772200 68.934300 0
M  V30 50 H -48.837100 -16.848700 67.479500 0
M  V30 51 H -53.615200 -11.827900 68.865100 0
M  V30 52 H -54.680400 -10.647900 69.238700 0
M  V30 53 H -46.341400 -16.543700 73.723700 0
M  V30 54 H -45.352800 -15.653600 71.731100 0
M  V30 55 H -48.717400 -16.513600 73.985700 0
M  V30 56 H -50.393500 -16.149900 69.079000 0
M  V30 57 H -50.113400 -14.929700 68.030500 0
M  V30 58 H -46.744800 -14.720500 70.023600 0
M  V30 59 H -50.113800 -15.602400 72.277000 0
M  V30 60 H -51.477500 -12.695900 69.292000 0
M  V30 61 H -50.332100 -14.356000 70.391800 0
M  V30 62 H -47.604600 -14.443600 68.173500 0
M  V30 END ATOM
M  V30 BEGIN BOND
M  V30 1 1 1 34
M  V30 2 1 2 6
M  V30 3 1 2 7
M  V30 4 1 3 25
M  V30 5 1 3 27
M  V30 6 1 4 14
M  V30 7 1 5 26
M  V30 8 2 6 26
M  V30 9 2 7 30
M  V30 10 2 8 25
M  V30 11 1 8 29
M  V30 12 2 9 28
M  V30 13 1 9 31
M  V30 14 1 10 15
M  V30 15 1 10 28
M  V30 16 1 10 32
M  V30 17 1 11 15
M  V30 18 1 12 34
M  V30 19 1 13 34
M  V30 20 1 14 19
M  V30 21 2 16 17
M  V30 22 1 16 18
M  V30 23 1 17 20
M  V30 24 2 18 21
M  V30 25 1 19 27
M  V30 26 2 20 33
M  V30 27 1 21 33
M  V30 28 3 22 24
M  V30 29 1 22 29
M  V30 30 1 23 25
M  V30 31 2 23 32
M  V30 32 1 34 24 CFG=3
M  V30 33 1 26 30
M  V30 34 1 27 33
M  V30 35 1 28 30
M  V30 36 2 29 31
M  V30 37 1 31 32
M  V30 38 1 1 35
M  V30 39 1 4 36 CFG=3
M  V30 40 1 4 37
M  V30 41 1 5 38
M  V30 42 1 5 39
M  V30 43 1 11 40 CFG=3
M  V30 44 1 11 41
M  V30 45 1 11 42
M  V30 46 1 12 43 CFG=1
M  V30 47 1 12 44
M  V30 48 1 12 45
M  V30 49 1 13 46 CFG=1
M  V30 50 1 13 47
M  V30 51 1 13 48
M  V30 52 1 14 49 CFG=1
M  V30 53 1 14 50
M  V30 54 1 15 51 CFG=3
M  V30 55 1 15 52
M  V30 56 1 16 53
M  V30 57 1 17 54
M  V30 58 1 18 55
M  V30 59 1 19 56 CFG=1
M  V30 60 1 19 57
M  V30 61 1 20 58
M  V30 62 1 21 59
M  V30 63 1 23 60
M  V30 64 1 27 61 CFG=1
M  V30 65 1 4 62
M  V30 END BOND
M  V30 END CTAB
M  END
>  <Ligand_Instance>  (218) 
3E8E_G98_L_351

>  <Dataset>  (218) 
PDB

>  <PDB_ID>  (218) 
3E8E

>  <Chain>  (218) 
L

>  <Resi>  (218) 
351

>  <Num_Resolved_Atoms>  (218) 
34

>  <Num_H_Atoms_ProtBoundConf>  (218) 
28

>  <Pocket>  (218) 
A, B

>  <SMILES>  (218) 
CCn1c2cc(nc(c2nc1C3=C(NON3)N)C#CC(C)(C)O)O[C@@H](CCN)c4ccccc4

>  <Name>  (218) 
4-[2-(4-amino-2,5-dihydro-1,2,5-oxadiazol-3-yl)-6-{[(1S)-3-amino-1-phenylpropyl]oxy}-1-ethyl-1H-imidazo[4,5-c]pyridin-4-yl]-2-methylbut-3-yn-2-ol

>  <Num_Heavy_Atoms>  (218) 
34

>  <Num_Not_Resolved_Atoms>  (218) 
0

>  <ATP_Site>  (218) 
True

>  <Peripheral>  (218) 
False

>  <Standardized_SMILES>  (218) 
[H]OC(C#CC1=C2N=C(C3=NON=C3N([H])[H])N(C([H])([H])C([H])([H])[H])C2=C([H])C(O[C@]([H])(C2=C([H])C([H])=C([H])C([H])=C2[H])C([H])([H])C([H])([H])[N+]([H])([H])[H])=N1)(C([H])([H])[H])C([H])([H])[H]

$$$$
G98
     RDKit          3D

  0  0  0  0  0  0  0  0  0  0999 V3000
M  V30 BEGIN CTAB
M  V30 COUNTS 62 65 0 0 0
M  V30 BEGIN ATOM
M  V30 1 O -9.262000 -3.753000 79.608000 0
M  V30 2 O 0.972000 -1.632000 80.457000 0
M  V30 3 O -4.772000 -8.811000 80.926000 0
M  V30 4 N -5.159000 -10.302000 82.789000 0 CFG=1 CHG=1
M  V30 5 N -2.360000 -0.783000 80.032000 0
M  V30 6 N -0.018000 -0.622000 80.223000 0
M  V30 7 N 0.443000 -2.960000 80.588000 0
M  V30 8 N -5.370000 -6.621000 80.283000 0
M  V30 9 N -3.164000 -3.650000 80.134000 0
M  V30 10 N -1.607000 -5.093000 80.854000 0
M  V30 11 C 0.434000 -6.230000 80.158000 0 CFG=1
M  V30 12 C -8.267000 -2.981000 77.554000 0 CFG=1
M  V30 13 C -8.002000 -1.693000 79.706000 0 CFG=1
M  V30 14 C -4.266000 -11.325000 82.275000 0 CFG=2
M  V30 15 C -0.353000 -5.692000 81.323000 0 CFG=2
M  V30 16 C -6.100000 -11.784000 77.084000 0
M  V30 17 C -6.590000 -11.833000 78.386000 0
M  V30 18 C -4.932000 -11.082000 76.816000 0
M  V30 19 C -3.330000 -10.756000 81.211000 0 CFG=2
M  V30 20 C -5.913000 -11.184000 79.420000 0
M  V30 21 C -4.250000 -10.438000 77.843000 0
M  V30 22 C -5.959000 -4.506000 79.658000 0
M  V30 23 C -3.126000 -7.074000 80.948000 0
M  V30 24 C -6.907000 -3.851000 79.361000 0
M  V30 25 C -4.440000 -7.495000 80.727000 0
M  V30 26 C -1.139000 -1.369000 80.220000 0
M  V30 27 C -3.975000 -9.777000 80.225000 0 CFG=1
M  V30 28 C -1.886000 -3.832000 80.499000 0
M  V30 29 C -5.049000 -5.322000 80.056000 0
M  V30 30 C -0.882000 -2.722000 80.461000 0
M  V30 31 C -3.748000 -4.860000 80.279000 0
M  V30 32 C -2.773000 -5.748000 80.729000 0
M  V30 33 C -4.735000 -10.484000 79.154000 0
M  V30 34 C -8.118000 -3.072000 79.070000 0 CFG=1
M  V30 35 H -9.317100 -4.671900 79.217400 0
M  V30 36 H -6.021100 -10.723100 83.071000 0
M  V30 37 H -4.734300 -9.853300 83.575300 0
M  V30 38 H -3.188500 -1.343000 80.030800 0
M  V30 39 H -2.424500 0.205600 79.895700 0
M  V30 40 H 1.285800 -6.635400 80.489900 0
M  V30 41 H -0.104900 -6.927200 79.685200 0
M  V30 42 H 0.643900 -5.484900 79.525000 0
M  V30 43 H -7.474600 -2.507900 77.169000 0
M  V30 44 H -8.324900 -3.902000 77.168900 0
M  V30 45 H -9.099200 -2.473400 77.330700 0
M  V30 46 H -7.205200 -1.219000 79.331200 0
M  V30 47 H -8.827600 -1.164400 79.508700 0
M  V30 48 H -7.896900 -1.790100 80.695700 0
M  V30 49 H -4.810300 -12.060400 81.871300 0
M  V30 50 H -3.719600 -11.689900 83.028800 0
M  V30 51 H -0.559800 -6.438900 81.955000 0
M  V30 52 H 0.189000 -4.996600 81.794800 0
M  V30 53 H -6.586200 -12.251600 76.345800 0
M  V30 54 H -7.431800 -12.336000 78.581700 0
M  V30 55 H -4.580000 -11.039400 75.881000 0
M  V30 56 H -2.957300 -11.521500 80.686600 0
M  V30 57 H -2.585900 -10.278300 81.678100 0
M  V30 58 H -6.272400 -11.220600 80.352500 0
M  V30 59 H -3.407100 -9.938700 77.642600 0
M  V30 60 H -2.438700 -7.727900 81.264200 0
M  V30 61 H -3.232700 -9.277500 79.778300 0
M  V30 62 H -5.336600 -9.625100 82.074700 0
M  V30 END ATOM
M  V30 BEGIN BOND
M  V30 1 1 1 34
M  V30 2 1 2 6
M  V30 3 1 2 7
M  V30 4 1 3 25
M  V30 5 1 3 27
M  V30 6 1 4 14
M  V30 7 1 5 26
M  V30 8 2 6 26
M  V30 9 2 7 30
M  V30 10 2 8 25
M  V30 11 1 8 29
M  V30 12 2 9 28
M  V30 13 1 9 31
M  V30 14 1 10 15
M  V30 15 1 10 28
M  V30 16 1 10 32
M  V30 17 1 11 15
M  V30 18 1 12 34
M  V30 19 1 13 34
M  V30 20 1 14 19
M  V30 21 2 16 17
M  V30 22 1 16 18
M  V30 23 1 17 20
M  V30 24 2 18 21
M  V30 25 1 19 27
M  V30 26 2 20 33
M  V30 27 1 21 33
M  V30 28 3 22 24
M  V30 29 1 22 29
M  V30 30 1 23 25
M  V30 31 2 23 32
M  V30 32 1 34 24 CFG=3
M  V30 33 1 26 30
M  V30 34 1 27 33
M  V30 35 1 28 30
M  V30 36 2 29 31
M  V30 37 1 31 32
M  V30 38 1 1 35
M  V30 39 1 4 36 CFG=1
M  V30 40 1 4 37
M  V30 41 1 5 38
M  V30 42 1 5 39
M  V30 43 1 11 40 CFG=1
M  V30 44 1 11 41
M  V30 45 1 11 42
M  V30 46 1 12 43 CFG=3
M  V30 47 1 12 44
M  V30 48 1 12 45
M  V30 49 1 13 46 CFG=3
M  V30 50 1 13 47
M  V30 51 1 13 48
M  V30 52 1 14 49 CFG=3
M  V30 53 1 14 50
M  V30 54 1 15 51 CFG=1
M  V30 55 1 15 52
M  V30 56 1 16 53
M  V30 57 1 17 54
M  V30 58 1 18 55
M  V30 59 1 19 56 CFG=3
M  V30 60 1 19 57
M  V30 61 1 20 58
M  V30 62 1 21 59
M  V30 63 1 23 60
M  V30 64 1 27 61 CFG=3
M  V30 65 1 4 62
M  V30 END BOND
M  V30 END CTAB
M  END
>  <Ligand_Instance>  (219) 
3E8E_G98_P_351

>  <Dataset>  (219) 
PDB

>  <PDB_ID>  (219) 
3E8E

>  <Chain>  (219) 
P

>  <Resi>  (219) 
351

>  <Num_Resolved_Atoms>  (219) 
34

>  <Num_H_Atoms_ProtBoundConf>  (219) 
28

>  <Pocket>  (219) 
A, B

>  <SMILES>  (219) 
CCn1c2cc(nc(c2nc1C3=C(NON3)N)C#CC(C)(C)O)O[C@@H](CCN)c4ccccc4

>  <Name>  (219) 
4-[2-(4-amino-2,5-dihydro-1,2,5-oxadiazol-3-yl)-6-{[(1S)-3-amino-1-phenylpropyl]oxy}-1-ethyl-1H-imidazo[4,5-c]pyridin-4-yl]-2-methylbut-3-yn-2-ol

>  <Num_Heavy_Atoms>  (219) 
34

>  <Num_Not_Resolved_Atoms>  (219) 
0

>  <ATP_Site>  (219) 
True

>  <Peripheral>  (219) 
False

>  <Standardized_SMILES>  (219) 
[H]OC(C#CC1=C2N=C(C3=NON=C3N([H])[H])N(C([H])([H])C([H])([H])[H])C2=C([H])C(O[C@]([H])(C2=C([H])C([H])=C([H])C([H])=C2[H])C([H])([H])C([H])([H])[N+]([H])([H])[H])=N1)(C([H])([H])[H])C([H])([H])[H]

$$$$
GAB
     RDKit          3D

  0  0  0  0  0  0  0  0  0  0999 V3000
M  V30 BEGIN CTAB
M  V30 COUNTS 17 17 0 0 0
M  V30 BEGIN ATOM
M  V30 1 O 16.404000 4.713000 20.265000 0
M  V30 2 O 16.596000 2.509000 20.386000 0
M  V30 3 N 11.650000 5.626000 18.984000 0
M  V30 4 C 12.637000 2.073000 18.989000 0
M  V30 5 C 11.873000 3.217000 18.846000 0
M  V30 6 C 13.955000 2.164000 19.420000 0
M  V30 7 C 13.762000 4.560000 19.511000 0
M  V30 8 C 15.940000 3.510000 20.124000 0
M  V30 9 C 12.411000 4.471000 19.107000 0
M  V30 10 C 14.524000 3.409000 19.664000 0
M  V30 11 H 12.059500 6.517600 19.177400 0
M  V30 12 H 10.692400 5.566200 18.702000 0
M  V30 13 H 12.240200 1.178800 18.781900 0
M  V30 14 H 10.920600 3.140500 18.550800 0
M  V30 15 H 14.494800 1.333100 19.554800 0
M  V30 16 H 14.171100 5.455300 19.687500 0
M  V30 17 H 17.335400 4.853500 20.600800 0
M  V30 END ATOM
M  V30 BEGIN BOND
M  V30 1 1 1 8
M  V30 2 2 2 8
M  V30 3 1 3 9
M  V30 4 2 4 5
M  V30 5 1 4 6
M  V30 6 1 5 9
M  V30 7 2 6 10
M  V30 8 2 7 9
M  V30 9 1 7 10
M  V30 10 1 8 10
M  V30 11 1 7 16
M  V30 12 1 3 11
M  V30 13 1 3 12
M  V30 14 1 4 13
M  V30 15 1 5 14
M  V30 16 1 6 15
M  V30 17 1 1 17
M  V30 END BOND
M  V30 END CTAB
M  END
>  <Ligand_Instance>  (220) 
6SPU_GAB_A_405

>  <Dataset>  (220) 
PDB

>  <PDB_ID>  (220) 
6SPU

>  <Chain>  (220) 
A

>  <Resi>  (220) 
405

>  <Num_Resolved_Atoms>  (220) 
10

>  <Num_H_Atoms_ProtBoundConf>  (220) 
7

>  <Pocket>  (220) 
A

>  <SMILES>  (220) 
c1cc(cc(c1)N)C(=O)O

>  <Name>  (220) 
3-AMINOBENZOIC ACID

>  <Num_Heavy_Atoms>  (220) 
10

>  <Num_Not_Resolved_Atoms>  (220) 
0

>  <ATP_Site>  (220) 
True

>  <Peripheral>  (220) 
False

>  <Standardized_SMILES>  (220) 
[H]OC(=O)C1=C([H])C([H])=C([H])C(N([H])[H])=C1[H]

$$$$
GGB
     RDKit          3D

  0  0  0  0  0  0  0  0  0  0999 V3000
M  V30 BEGIN CTAB
M  V30 COUNTS 13 12 0 0 0
M  V30 BEGIN ATOM
M  V30 1 O -27.633000 0.623000 -23.096000 0
M  V30 2 N -25.246000 1.613000 -20.706000 0
M  V30 3 N -27.352000 0.702000 -20.507000 0
M  V30 4 N -26.576000 1.418000 -22.618000 0
M  V30 5 C -28.480000 1.415000 -23.956000 0 CFG=1
M  V30 6 C -26.388000 1.237000 -21.236000 0
M  V30 7 H -24.535100 2.014800 -21.283200 0
M  V30 8 H -25.087700 1.497300 -19.725400 0
M  V30 9 H -29.231600 0.849700 -24.295900 0
M  V30 10 H -28.850600 2.187000 -23.439600 0
M  V30 11 H -27.944400 1.756900 -24.728200 0
M  V30 12 H -27.222800 0.573800 -19.523700 0
M  V30 13 H -26.029100 2.032200 -23.186900 0
M  V30 END ATOM
M  V30 BEGIN BOND
M  V30 1 1 1 4
M  V30 2 1 1 5
M  V30 3 1 2 6
M  V30 4 2 3 6
M  V30 5 1 4 6
M  V30 6 1 2 7
M  V30 7 1 2 8
M  V30 8 1 4 13
M  V30 9 1 3 12
M  V30 10 1 5 9 CFG=3
M  V30 11 1 5 10
M  V30 12 1 5 11
M  V30 END BOND
M  V30 END CTAB
M  END
>  <Ligand_Instance>  (221) 
5N3K_GGB_A_401

>  <Dataset>  (221) 
PDB

>  <PDB_ID>  (221) 
5N3K

>  <Chain>  (221) 
A

>  <Resi>  (221) 
401

>  <Num_Resolved_Atoms>  (221) 
6

>  <Num_H_Atoms_ProtBoundConf>  (221) 
7

>  <Pocket>  (221) 
X

>  <SMILES>  (221) 
[H]/N=C(\N)/NOCC[C@@H](C(=O)O)N

>  <Name>  (221) 
L-CANAVANINE

>  <Num_Heavy_Atoms>  (221) 
12

>  <Num_Not_Resolved_Atoms>  (221) 
6

>  <ATP_Site>  (221) 
False

>  <Peripheral>  (221) 
True

>  <Standardized_SMILES>  (221) 
[H]/N=C(\N([H])[H])N([H])OC([H])([H])[H]

$$$$
GVG
     RDKit          3D

  0  0  0  0  0  0  0  0  0  0999 V3000
M  V30 BEGIN CTAB
M  V30 COUNTS 22 23 0 0 0
M  V30 BEGIN ATOM
M  V30 1 N 2.911000 9.471000 4.178000 0
M  V30 2 N 3.007000 9.762000 2.859000 0
M  V30 3 C 4.625000 10.355000 1.085000 0 CFG=1
M  V30 4 C 4.157000 9.530000 4.650000 0
M  V30 5 C 9.268000 10.070000 4.177000 0
M  V30 6 C 8.742000 9.851000 2.924000 0
M  V30 7 C 8.430000 10.253000 5.253000 0
M  V30 8 C 7.378000 9.774000 2.750000 0
M  V30 9 C 7.064000 10.181000 5.086000 0
M  V30 10 C 4.293000 10.019000 2.495000 0
M  V30 11 C 6.519000 9.959000 3.828000 0
M  V30 12 C 5.065000 9.865000 3.653000 0
M  V30 13 H 5.609200 10.511500 1.002500 0
M  V30 14 H 4.356900 9.597500 0.489800 0
M  V30 15 H 4.132100 11.182000 0.814500 0
M  V30 16 H 4.406600 9.355000 5.602400 0
M  V30 17 H 10.259400 10.096100 4.305400 0
M  V30 18 H 9.351700 9.747600 2.138200 0
M  V30 19 H 8.813000 10.438600 6.157900 0
M  V30 20 H 7.002800 9.583900 1.842700 0
M  V30 21 H 6.460900 10.289400 5.876200 0
M  V30 22 H 2.229600 9.785200 2.230500 0
M  V30 END ATOM
M  V30 BEGIN BOND
M  V30 1 1 1 2
M  V30 2 2 1 4
M  V30 3 1 2 10
M  V30 4 1 3 10
M  V30 5 1 4 12
M  V30 6 2 5 6
M  V30 7 1 5 7
M  V30 8 1 6 8
M  V30 9 2 7 9
M  V30 10 2 8 11
M  V30 11 1 9 11
M  V30 12 2 10 12
M  V30 13 1 11 12
M  V30 14 1 9 21
M  V30 15 1 3 13 CFG=1
M  V30 16 1 3 14
M  V30 17 1 3 15
M  V30 18 1 4 16
M  V30 19 1 5 17
M  V30 20 1 6 18
M  V30 21 1 7 19
M  V30 22 1 8 20
M  V30 23 1 2 22
M  V30 END BOND
M  V30 END CTAB
M  END
>  <Ligand_Instance>  (222) 
2UW3_GVG_A_1351

>  <Dataset>  (222) 
PDB

>  <PDB_ID>  (222) 
2UW3

>  <Chain>  (222) 
A

>  <Resi>  (222) 
1351

>  <Num_Resolved_Atoms>  (222) 
12

>  <Num_H_Atoms_ProtBoundConf>  (222) 
10

>  <Pocket>  (222) 
A

>  <SMILES>  (222) 
Cc1c(c[nH]n1)c2ccccc2

>  <Name>  (222) 
3-METHYL-4-PHENYL-1H-PYRAZOLE

>  <Num_Heavy_Atoms>  (222) 
12

>  <Num_Not_Resolved_Atoms>  (222) 
0

>  <ATP_Site>  (222) 
True

>  <Peripheral>  (222) 
False

>  <Standardized_SMILES>  (222) 
[H]C1=NN([H])C(C([H])([H])[H])=C1C1=C([H])C([H])=C([H])C([H])=C1[H]

$$$$
GVN
     RDKit          3D

  0  0  0  0  0  0  0  0  0  0999 V3000
M  V30 BEGIN CTAB
M  V30 COUNTS 38 40 0 0 0
M  V30 BEGIN ATOM
M  V30 1 Cl 13.424000 13.253000 -0.242000 0
M  V30 2 N 12.521000 7.491000 3.052000 0 CFG=1 CHG=1
M  V30 3 N 2.849000 9.896000 4.005000 0
M  V30 4 N 2.891000 9.869000 2.649000 0
M  V30 5 C 11.055000 7.740000 2.999000 0 CFG=2
M  V30 6 C 4.121000 9.849000 4.390000 0
M  V30 7 C 4.158000 9.808000 2.210000 0
M  V30 8 C 12.174000 10.891000 0.229000 0
M  V30 9 C 12.498000 12.319000 2.128000 0
M  V30 10 C 11.558000 9.957000 1.037000 0
M  V30 11 C 11.883000 11.387000 2.935000 0
M  V30 12 C 7.152000 9.752000 4.492000 0
M  V30 13 C 7.127000 9.466000 2.116000 0
M  V30 14 C 8.523000 9.600000 4.496000 0
M  V30 15 C 8.497000 9.315000 2.119000 0
M  V30 16 C 12.648000 12.076000 0.772000 0
M  V30 17 C 4.978000 9.813000 3.296000 0
M  V30 18 C 6.440000 9.700000 3.301000 0
M  V30 19 C 11.410000 10.195000 2.401000 0
M  V30 20 C 9.211000 9.385000 3.308000 0
M  V30 21 C 10.718000 9.197000 3.312000 0 CFG=1
M  V30 22 H 12.780200 7.222400 3.979700 0
M  V30 23 H 12.757900 6.758000 2.414400 0
M  V30 24 H 10.601800 7.151500 3.668500 0
M  V30 25 H 10.721800 7.520000 2.082200 0
M  V30 26 H 4.422200 9.840600 5.343500 0
M  V30 27 H 4.448100 9.766300 1.253900 0
M  V30 28 H 12.278800 10.713100 -0.749500 0
M  V30 29 H 12.837100 13.173300 2.521900 0
M  V30 30 H 11.216100 9.104800 0.640800 0
M  V30 31 H 11.776300 11.569900 3.912300 0
M  V30 32 H 6.667000 9.900800 5.353700 0
M  V30 33 H 6.623400 9.406700 1.254100 0
M  V30 34 H 9.025200 9.644800 5.359600 0
M  V30 35 H 8.980400 9.153800 1.258600 0
M  V30 36 H 11.034900 9.379100 4.242800 0
M  V30 37 H 13.010200 8.325200 2.797500 0
M  V30 38 H 2.086000 9.891500 2.056200 0
M  V30 END ATOM
M  V30 BEGIN BOND
M  V30 1 1 1 16
M  V30 2 1 2 5
M  V30 3 1 3 4
M  V30 4 2 3 6
M  V30 5 1 4 7
M  V30 6 1 5 21
M  V30 7 1 6 17
M  V30 8 2 7 17
M  V30 9 2 8 10
M  V30 10 1 8 16
M  V30 11 1 9 11
M  V30 12 2 9 16
M  V30 13 1 10 19
M  V30 14 2 11 19
M  V30 15 1 12 14
M  V30 16 2 12 18
M  V30 17 2 13 15
M  V30 18 1 13 18
M  V30 19 2 14 20
M  V30 20 1 15 20
M  V30 21 1 17 18
M  V30 22 1 19 21
M  V30 23 1 20 21
M  V30 24 1 2 22 CFG=1
M  V30 25 1 2 23
M  V30 26 1 2 37
M  V30 27 1 5 24 CFG=1
M  V30 28 1 5 25
M  V30 29 1 6 26
M  V30 30 1 7 27
M  V30 31 1 8 28
M  V30 32 1 9 29
M  V30 33 1 10 30
M  V30 34 1 11 31
M  V30 35 1 12 32
M  V30 36 1 13 33
M  V30 37 1 14 34
M  V30 38 1 15 35
M  V30 39 1 21 36 CFG=1
M  V30 40 1 4 38
M  V30 END BOND
M  V30 END CTAB
M  END
>  <Ligand_Instance>  (223) 
2UW5_GVN_A_1351

>  <Dataset>  (223) 
PDB

>  <PDB_ID>  (223) 
2UW5

>  <Chain>  (223) 
A

>  <Resi>  (223) 
1351

>  <Num_Resolved_Atoms>  (223) 
21

>  <Num_H_Atoms_ProtBoundConf>  (223) 
17

>  <Pocket>  (223) 
A

>  <SMILES>  (223) 
c1cc(ccc1c2c[nH]nc2)[C@@H](CN)c3ccc(cc3)Cl

>  <Name>  (223) 
(2R)-2-(4-CHLOROPHENYL)-2-[4-(1H-PYRAZOL-4-YL)PHENYL]ETHANAMINE

>  <Num_Heavy_Atoms>  (223) 
21

>  <Num_Not_Resolved_Atoms>  (223) 
0

>  <ATP_Site>  (223) 
True

>  <Peripheral>  (223) 
False

>  <Standardized_SMILES>  (223) 
[H]C1=NN([H])C([H])=C1C1=C([H])C([H])=C([C@]([H])(C2=C([H])C([H])=C(Cl)C([H])=C2[H])C([H])([H])[N+]([H])([H])[H])C([H])=C1[H]

$$$$
GVQ
     RDKit          3D

  0  0  0  0  0  0  0  0  0  0999 V3000
M  V30 BEGIN CTAB
M  V30 COUNTS 31 32 0 0 0
M  V30 BEGIN ATOM
M  V30 1 Cl 13.827000 13.246000 1.396000 0
M  V30 2 N 11.504000 7.298000 2.798000 0 CFG=1 CHG=1
M  V30 3 C 10.149000 7.848000 2.960000 0 CFG=2
M  V30 4 C 6.416000 10.990000 4.529000 0
M  V30 5 C 6.696000 10.447000 3.278000 0
M  V30 6 C 7.368000 10.921000 5.532000 0
M  V30 7 C 7.924000 9.839000 3.037000 0
M  V30 8 C 8.597000 10.316000 5.293000 0
M  V30 9 C 11.814000 11.451000 1.284000 0
M  V30 10 C 12.930000 11.709000 3.405000 0
M  V30 11 C 10.979000 10.496000 1.839000 0
M  V30 12 C 12.096000 10.757000 3.955000 0
M  V30 13 C 12.781000 12.051000 2.075000 0
M  V30 14 C 8.878000 9.770000 4.047000 0
M  V30 15 C 11.127000 10.149000 3.174000 0
M  V30 16 C 10.230000 9.122000 3.816000 0 CFG=2
M  V30 17 H 11.462500 6.467900 2.241900 0
M  V30 18 H 12.086100 7.973600 2.345500 0
M  V30 19 H 9.565200 7.174800 3.413800 0
M  V30 20 H 9.766900 8.069700 2.062900 0
M  V30 21 H 5.533300 11.426900 4.702000 0
M  V30 22 H 6.012000 10.494100 2.550000 0
M  V30 23 H 7.170800 11.308100 6.432700 0
M  V30 24 H 8.121000 9.451100 2.136600 0
M  V30 25 H 9.281300 10.273800 6.021000 0
M  V30 26 H 11.720200 11.705400 0.321500 0
M  V30 27 H 13.634800 12.146600 3.963400 0
M  V30 28 H 10.273600 10.059100 1.280900 0
M  V30 29 H 12.191300 10.505900 4.918200 0
M  V30 30 H 10.617500 8.878700 4.705200 0
M  V30 31 H 11.884300 7.078700 3.696500 0
M  V30 END ATOM
M  V30 BEGIN BOND
M  V30 1 1 1 13
M  V30 2 1 2 3
M  V30 3 1 3 16
M  V30 4 2 4 5
M  V30 5 1 4 6
M  V30 6 1 5 7
M  V30 7 2 6 8
M  V30 8 2 7 14
M  V30 9 1 8 14
M  V30 10 2 9 11
M  V30 11 1 9 13
M  V30 12 1 10 12
M  V30 13 2 10 13
M  V30 14 1 11 15
M  V30 15 2 12 15
M  V30 16 1 14 16
M  V30 17 1 15 16
M  V30 18 1 2 17 CFG=3
M  V30 19 1 2 18
M  V30 20 1 3 19 CFG=1
M  V30 21 1 3 20
M  V30 22 1 4 21
M  V30 23 1 5 22
M  V30 24 1 6 23
M  V30 25 1 7 24
M  V30 26 1 8 25
M  V30 27 1 9 26
M  V30 28 1 10 27
M  V30 29 1 11 28
M  V30 30 1 12 29
M  V30 31 1 16 30 CFG=1
M  V30 32 1 2 31
M  V30 END BOND
M  V30 END CTAB
M  END
>  <Ligand_Instance>  (224) 
2UW8_GVQ_A_1351

>  <Dataset>  (224) 
PDB

>  <PDB_ID>  (224) 
2UW8

>  <Chain>  (224) 
A

>  <Resi>  (224) 
1351

>  <Num_Resolved_Atoms>  (224) 
16

>  <Num_H_Atoms_ProtBoundConf>  (224) 
15

>  <Pocket>  (224) 
A

>  <SMILES>  (224) 
c1ccc(cc1)[C@@H](CN)c2ccc(cc2)Cl

>  <Name>  (224) 
(2R)-2-(4-CHLOROPHENYL)-2-PHENYLETHANAMINE

>  <Num_Heavy_Atoms>  (224) 
16

>  <Num_Not_Resolved_Atoms>  (224) 
0

>  <ATP_Site>  (224) 
True

>  <Peripheral>  (224) 
False

>  <Standardized_SMILES>  (224) 
[H]C1=C([H])C([H])=C([C@]([H])(C2=C([H])C([H])=C(Cl)C([H])=C2[H])C([H])([H])[N+]([H])([H])[H])C([H])=C1[H]

$$$$
H52
     RDKit          3D

  0  0  0  0  0  0  0  0  0  0999 V3000
M  V30 BEGIN CTAB
M  V30 COUNTS 44 46 0 0 0
M  V30 BEGIN ATOM
M  V30 1 S 8.986000 9.726000 4.060000 0 CFG=2
M  V30 2 O 9.341000 11.010000 4.549000 0
M  V30 3 O 8.811000 8.712000 5.026000 0
M  V30 4 N 12.843000 8.361000 3.314000 0 CFG=2 CHG=1
M  V30 5 N 3.513000 9.972000 4.806000 0
M  V30 6 N 10.123000 9.201000 3.098000 0
M  V30 7 C 9.558000 6.998000 2.090000 0 CFG=1
M  V30 8 C 6.808000 10.019000 6.441000 0 CFG=1
M  V30 9 C 13.240000 9.645000 2.760000 0 CFG=2
M  V30 10 C 11.937000 7.523000 2.564000 0 CFG=2
M  V30 11 C 4.504000 9.994000 5.707000 0
M  V30 12 C 3.772000 9.898000 3.502000 0
M  V30 13 C 10.837000 10.094000 2.176000 0 CFG=2
M  V30 14 C 12.087000 10.639000 2.872000 0 CFG=2
M  V30 15 C 6.443000 9.724000 1.057000 0
M  V30 16 C 7.575000 9.725000 1.883000 0
M  V30 17 C 5.198000 9.768000 1.629000 0
M  V30 18 C 7.513000 9.783000 3.295000 0
M  V30 19 C 10.491000 7.753000 3.020000 0 CFG=1
M  V30 20 C 5.842000 9.982000 5.266000 0
M  V30 21 C 5.085000 9.867000 3.018000 0
M  V30 22 C 6.192000 9.892000 3.884000 0
M  V30 23 H 12.409600 8.544300 4.196300 0
M  V30 24 H 9.827000 6.035400 2.057400 0
M  V30 25 H 8.619700 7.070600 2.428100 0
M  V30 26 H 9.612800 7.390700 1.172000 0
M  V30 27 H 7.748100 10.009600 6.100100 0
M  V30 28 H 6.654500 10.852000 6.972600 0
M  V30 29 H 6.656300 9.219700 7.022500 0
M  V30 30 H 13.485400 9.529100 1.797500 0
M  V30 31 H 14.029000 9.994300 3.265400 0
M  V30 32 H 12.179300 6.563800 2.709400 0
M  V30 33 H 12.014300 7.742600 1.591500 0
M  V30 34 H 4.295800 10.018700 6.684800 0
M  V30 35 H 3.011300 9.863800 2.853800 0
M  V30 36 H 10.240500 10.853500 1.916500 0
M  V30 37 H 11.104500 9.585500 1.357500 0
M  V30 38 H 12.353400 11.501400 2.441400 0
M  V30 39 H 11.882600 10.797900 3.837900 0
M  V30 40 H 6.542200 9.691600 0.062500 0
M  V30 41 H 8.475700 9.682400 1.450700 0
M  V30 42 H 4.378300 9.729600 1.057400 0
M  V30 43 H 10.392900 7.362400 3.935300 0
M  V30 44 H 13.679900 7.832600 3.457100 0
M  V30 END ATOM
M  V30 BEGIN BOND
M  V30 1 2 1 2
M  V30 2 2 1 3
M  V30 3 1 1 6 CFG=3
M  V30 4 1 1 18
M  V30 5 1 4 9
M  V30 6 1 4 10
M  V30 7 2 5 11
M  V30 8 1 5 12
M  V30 9 1 6 13
M  V30 10 1 6 19
M  V30 11 1 7 19
M  V30 12 1 8 20
M  V30 13 1 9 14
M  V30 14 1 10 19
M  V30 15 1 11 20
M  V30 16 2 12 21
M  V30 17 1 13 14
M  V30 18 1 15 16
M  V30 19 2 15 17
M  V30 20 2 16 18
M  V30 21 1 17 21
M  V30 22 1 18 22
M  V30 23 2 20 22
M  V30 24 1 21 22
M  V30 25 1 4 23 CFG=1
M  V30 26 1 7 24 CFG=3
M  V30 27 1 7 25
M  V30 28 1 7 26
M  V30 29 1 8 27 CFG=3
M  V30 30 1 8 28
M  V30 31 1 8 29
M  V30 32 1 9 30 CFG=3
M  V30 33 1 9 31
M  V30 34 1 10 32 CFG=3
M  V30 35 1 10 33
M  V30 36 1 11 34
M  V30 37 1 12 35
M  V30 38 1 13 36 CFG=3
M  V30 39 1 13 37
M  V30 40 1 14 38 CFG=3
M  V30 41 1 14 39
M  V30 42 1 15 40
M  V30 43 1 16 41
M  V30 44 1 17 42
M  V30 45 1 19 43 CFG=1
M  V30 46 1 4 44
M  V30 END BOND
M  V30 END CTAB
M  END
>  <Ligand_Instance>  (225) 
2GNH_H52_A_501

>  <Dataset>  (225) 
PDB

>  <PDB_ID>  (225) 
2GNH

>  <Chain>  (225) 
A

>  <Resi>  (225) 
501

>  <Num_Resolved_Atoms>  (225) 
22

>  <Num_H_Atoms_ProtBoundConf>  (225) 
22

>  <Pocket>  (225) 
A

>  <SMILES>  (225) 
Cc1cncc2c1c(ccc2)S(=O)(=O)[N@]3CCCNC[C@@H]3C

>  <Name>  (225) 
(S)-2-METHYL-1-[(4-METHYL-5-ISOQUINOLINE)SULFONYL]-HOMOPIPERAZINE

>  <Num_Heavy_Atoms>  (225) 
22

>  <Num_Not_Resolved_Atoms>  (225) 
0

>  <ATP_Site>  (225) 
True

>  <Peripheral>  (225) 
True

>  <Standardized_SMILES>  (225) 
[H]C1=NC([H])=C2C([H])=C([H])C([H])=C(S(=O)(=O)N3C([H])([H])C([H])([H])C([H])([H])[N+]([H])([H])C([H])([H])[C@]3([H])C([H])([H])[H])C2=C1C([H])([H])[H]

$$$$
H52
     RDKit          3D

  0  0  0  0  0  0  0  0  0  0999 V3000
M  V30 BEGIN CTAB
M  V30 COUNTS 44 46 0 0 0
M  V30 BEGIN ATOM
M  V30 1 S 19.078000 8.215000 -18.653000 0 CFG=2
M  V30 2 O 18.647000 8.537000 -17.316000 0
M  V30 3 O 18.531000 7.000000 -19.203000 0
M  V30 4 N 22.584000 6.412000 -17.077000 0 CFG=2 CHG=1
M  V30 5 N 14.980000 11.512000 -20.219000 0
M  V30 6 N 20.641000 8.056000 -18.523000 0
M  V30 7 C 21.516000 7.148000 -20.669000 0 CFG=1
M  V30 8 C 15.929000 8.521000 -18.293000 0 CFG=1
M  V30 9 C 22.752000 7.492000 -16.130000 0 CFG=2
M  V30 10 C 22.725000 6.651000 -18.500000 0 CFG=2
M  V30 11 C 14.995000 10.437000 -19.444000 0
M  V30 12 C 16.109000 11.960000 -20.763000 0
M  V30 13 C 21.483000 9.053000 -17.801000 0 CFG=2
M  V30 14 C 21.715000 8.600000 -16.340000 0 CFG=2
M  V30 15 C 19.678000 11.292000 -21.058000 0
M  V30 16 C 19.777000 10.149000 -20.270000 0
M  V30 17 C 18.437000 11.869000 -21.207000 0
M  V30 18 C 18.695000 9.534000 -19.591000 0
M  V30 19 C 21.344000 6.918000 -19.148000 0 CFG=1
M  V30 20 C 16.168000 9.713000 -19.195000 0
M  V30 21 C 17.321000 11.300000 -20.563000 0
M  V30 22 C 17.410000 10.142000 -19.749000 0
M  V30 23 H 21.662400 6.049700 -16.937500 0
M  V30 24 H 21.993400 6.367300 -21.072300 0
M  V30 25 H 20.616600 7.245200 -21.095200 0
M  V30 26 H 22.049100 7.980100 -20.822100 0
M  V30 27 H 16.791500 8.037200 -18.144400 0
M  V30 28 H 15.567200 8.834600 -17.415100 0
M  V30 29 H 15.270500 7.903800 -18.723700 0
M  V30 30 H 23.667000 7.880000 -16.240600 0
M  V30 31 H 22.653900 7.128300 -15.203700 0
M  V30 32 H 23.139300 5.848000 -18.928500 0
M  V30 33 H 23.314200 7.446300 -18.642800 0
M  V30 34 H 14.140500 10.132600 -19.023000 0
M  V30 35 H 16.087700 12.786100 -21.326200 0
M  V30 36 H 21.019600 9.939100 -17.802200 0
M  V30 37 H 22.365100 9.137500 -18.264500 0
M  V30 38 H 22.012200 9.398700 -15.816800 0
M  V30 39 H 20.841500 8.272000 -15.980200 0
M  V30 40 H 20.484200 11.682400 -21.502600 0
M  V30 41 H 20.679900 9.729700 -20.175600 0
M  V30 42 H 18.328400 12.688400 -21.769900 0
M  V30 43 H 20.781200 6.101100 -19.021600 0
M  V30 44 H 23.257100 5.712700 -16.836100 0
M  V30 END ATOM
M  V30 BEGIN BOND
M  V30 1 2 1 2
M  V30 2 2 1 3
M  V30 3 1 1 6 CFG=1
M  V30 4 1 1 18
M  V30 5 1 4 9
M  V30 6 1 4 10
M  V30 7 2 5 11
M  V30 8 1 5 12
M  V30 9 1 6 13
M  V30 10 1 6 19
M  V30 11 1 7 19
M  V30 12 1 8 20
M  V30 13 1 9 14
M  V30 14 1 10 19
M  V30 15 1 11 20
M  V30 16 2 12 21
M  V30 17 1 13 14
M  V30 18 1 15 16
M  V30 19 2 15 17
M  V30 20 2 16 18
M  V30 21 1 17 21
M  V30 22 1 18 22
M  V30 23 2 20 22
M  V30 24 1 21 22
M  V30 25 1 4 23 CFG=3
M  V30 26 1 7 24 CFG=3
M  V30 27 1 7 25
M  V30 28 1 7 26
M  V30 29 1 8 27 CFG=1
M  V30 30 1 8 28
M  V30 31 1 8 29
M  V30 32 1 9 30 CFG=1
M  V30 33 1 9 31
M  V30 34 1 10 32 CFG=3
M  V30 35 1 10 33
M  V30 36 1 11 34
M  V30 37 1 12 35
M  V30 38 1 13 36 CFG=1
M  V30 39 1 13 37
M  V30 40 1 14 38 CFG=1
M  V30 41 1 14 39
M  V30 42 1 15 40
M  V30 43 1 16 41
M  V30 44 1 17 42
M  V30 45 1 19 43 CFG=3
M  V30 46 1 4 44
M  V30 END BOND
M  V30 END CTAB
M  END
>  <Ligand_Instance>  (226) 
2GNH_H52_A_502

>  <Dataset>  (226) 
PDB

>  <PDB_ID>  (226) 
2GNH

>  <Chain>  (226) 
A

>  <Resi>  (226) 
502

>  <Num_Resolved_Atoms>  (226) 
22

>  <Num_H_Atoms_ProtBoundConf>  (226) 
22

>  <Pocket>  (226) 
X

>  <SMILES>  (226) 
Cc1cncc2c1c(ccc2)S(=O)(=O)[N@]3CCCNC[C@@H]3C

>  <Name>  (226) 
(S)-2-METHYL-1-[(4-METHYL-5-ISOQUINOLINE)SULFONYL]-HOMOPIPERAZINE

>  <Num_Heavy_Atoms>  (226) 
22

>  <Num_Not_Resolved_Atoms>  (226) 
0

>  <ATP_Site>  (226) 
True

>  <Peripheral>  (226) 
True

>  <Standardized_SMILES>  (226) 
[H]C1=NC([H])=C2C([H])=C([H])C([H])=C(S(=O)(=O)N3C([H])([H])C([H])([H])C([H])([H])[N+]([H])([H])C([H])([H])[C@]3([H])C([H])([H])[H])C2=C1C([H])([H])[H]

$$$$
H52
     RDKit          3D

  0  0  0  0  0  0  0  0  0  0999 V3000
M  V30 BEGIN CTAB
M  V30 COUNTS 44 46 0 0 0
M  V30 BEGIN ATOM
M  V30 1 S 8.856000 9.781000 4.071000 0 CFG=2
M  V30 2 O 9.298000 11.013000 4.625000 0
M  V30 3 O 8.670000 8.885000 5.156000 0
M  V30 4 N 12.471000 8.251000 3.653000 0 CFG=2 CHG=1
M  V30 5 N 3.387000 10.312000 4.285000 0
M  V30 6 N 9.983000 9.181000 3.194000 0
M  V30 7 C 9.350000 7.029000 2.007000 0 CFG=1
M  V30 8 C 6.530000 10.186000 6.195000 0 CFG=1
M  V30 9 C 13.123000 9.427000 3.174000 0 CFG=2
M  V30 10 C 11.657000 7.459000 2.774000 0 CFG=2
M  V30 11 C 4.303000 10.299000 5.249000 0
M  V30 12 C 3.745000 10.214000 3.017000 0
M  V30 13 C 10.866000 10.068000 2.423000 0 CFG=2
M  V30 14 C 12.048000 10.468000 3.305000 0 CFG=2
M  V30 15 C 6.603000 9.833000 0.881000 0
M  V30 16 C 7.642000 9.807000 1.798000 0
M  V30 17 C 5.320000 9.963000 1.317000 0
M  V30 18 C 7.469000 9.902000 3.189000 0
M  V30 19 C 10.193000 7.729000 3.085000 0 CFG=1
M  V30 20 C 5.663000 10.185000 4.971000 0
M  V30 21 C 5.083000 10.083000 2.673000 0
M  V30 22 C 6.117000 10.056000 3.637000 0
M  V30 23 H 11.881700 8.537700 4.408300 0
M  V30 24 H 9.557200 6.050700 2.004900 0
M  V30 25 H 8.378800 7.163600 2.203700 0
M  V30 26 H 9.565500 7.417300 1.111000 0
M  V30 27 H 7.489000 10.101700 5.924300 0
M  V30 28 H 6.399000 11.041700 6.695600 0
M  V30 29 H 6.280100 9.415300 6.781100 0
M  V30 30 H 13.408700 9.319800 2.221700 0
M  V30 31 H 13.917600 9.654800 3.736800 0
M  V30 32 H 11.856900 6.489200 2.913700 0
M  V30 33 H 11.849800 7.705600 1.824300 0
M  V30 34 H 4.006700 10.373200 6.201200 0
M  V30 35 H 3.047500 10.234400 2.300700 0
M  V30 36 H 10.362000 10.885500 2.144400 0
M  V30 37 H 11.198900 9.588700 1.610900 0
M  V30 38 H 12.402000 11.355700 3.010500 0
M  V30 39 H 11.751400 10.526900 4.258200 0
M  V30 40 H 6.795200 9.756500 -0.097400 0
M  V30 41 H 8.573900 9.714800 1.447300 0
M  V30 42 H 4.560900 9.971500 0.666100 0
M  V30 43 H 9.978600 7.314000 3.969200 0
M  V30 44 H 13.188400 7.647200 4.000600 0
M  V30 END ATOM
M  V30 BEGIN BOND
M  V30 1 2 1 2
M  V30 2 2 1 3
M  V30 3 1 1 6 CFG=3
M  V30 4 1 1 18
M  V30 5 1 4 9
M  V30 6 1 4 10
M  V30 7 2 5 11
M  V30 8 1 5 12
M  V30 9 1 6 13
M  V30 10 1 6 19
M  V30 11 1 7 19
M  V30 12 1 8 20
M  V30 13 1 9 14
M  V30 14 1 10 19
M  V30 15 1 11 20
M  V30 16 2 12 21
M  V30 17 1 13 14
M  V30 18 1 15 16
M  V30 19 2 15 17
M  V30 20 2 16 18
M  V30 21 1 17 21
M  V30 22 1 18 22
M  V30 23 2 20 22
M  V30 24 1 21 22
M  V30 25 1 4 23 CFG=1
M  V30 26 1 7 24 CFG=3
M  V30 27 1 7 25
M  V30 28 1 7 26
M  V30 29 1 8 27 CFG=3
M  V30 30 1 8 28
M  V30 31 1 8 29
M  V30 32 1 9 30 CFG=3
M  V30 33 1 9 31
M  V30 34 1 10 32 CFG=3
M  V30 35 1 10 33
M  V30 36 1 11 34
M  V30 37 1 12 35
M  V30 38 1 13 36 CFG=3
M  V30 39 1 13 37
M  V30 40 1 14 38 CFG=3
M  V30 41 1 14 39
M  V30 42 1 15 40
M  V30 43 1 16 41
M  V30 44 1 17 42
M  V30 45 1 19 43 CFG=1
M  V30 46 1 4 44
M  V30 END BOND
M  V30 END CTAB
M  END
>  <Ligand_Instance>  (227) 
2GNL_H52_A_501

>  <Dataset>  (227) 
PDB

>  <PDB_ID>  (227) 
2GNL

>  <Chain>  (227) 
A

>  <Resi>  (227) 
501

>  <Num_Resolved_Atoms>  (227) 
22

>  <Num_H_Atoms_ProtBoundConf>  (227) 
22

>  <Pocket>  (227) 
A

>  <SMILES>  (227) 
Cc1cncc2c1c(ccc2)S(=O)(=O)[N@]3CCCNC[C@@H]3C

>  <Name>  (227) 
(S)-2-METHYL-1-[(4-METHYL-5-ISOQUINOLINE)SULFONYL]-HOMOPIPERAZINE

>  <Num_Heavy_Atoms>  (227) 
22

>  <Num_Not_Resolved_Atoms>  (227) 
0

>  <ATP_Site>  (227) 
True

>  <Peripheral>  (227) 
False

>  <Standardized_SMILES>  (227) 
[H]C1=NC([H])=C2C([H])=C([H])C([H])=C(S(=O)(=O)N3C([H])([H])C([H])([H])C([H])([H])[N+]([H])([H])C([H])([H])[C@]3([H])C([H])([H])[H])C2=C1C([H])([H])[H]

$$$$
H52
     RDKit          3D

  0  0  0  0  0  0  0  0  0  0999 V3000
M  V30 BEGIN CTAB
M  V30 COUNTS 44 46 0 0 0
M  V30 BEGIN ATOM
M  V30 1 S -13.452000 -25.020000 27.318000 0 CFG=2
M  V30 2 O -14.042000 -25.444000 28.546000 0
M  V30 3 O -12.809000 -25.980000 26.475000 0
M  V30 4 N -9.835000 -21.868000 28.025000 0 CFG=2 CHG=1
M  V30 5 N -17.342000 -26.220000 23.637000 0
M  V30 6 N -12.300000 -23.936000 27.715000 0
M  V30 7 C -11.221000 -22.768000 25.785000 0 CFG=1
M  V30 8 C -15.292000 -27.329000 26.572000 0 CFG=1
M  V30 9 C -10.675000 -21.420000 29.175000 0 CFG=2
M  V30 10 C -9.838000 -23.327000 27.721000 0 CFG=2
M  V30 11 C -16.659000 -26.933000 24.532000 0
M  V30 12 C -17.241000 -24.910000 23.691000 0
M  V30 13 C -12.530000 -23.148000 28.942000 0 CFG=2
M  V30 14 C -12.147000 -21.681000 28.893000 0 CFG=2
M  V30 15 C -15.475000 -22.156000 25.442000 0
M  V30 16 C -14.670000 -22.866000 26.315000 0
M  V30 17 C -16.325000 -22.801000 24.599000 0
M  V30 18 C -14.717000 -24.233000 26.350000 0
M  V30 19 C -11.056000 -23.759000 26.923000 0 CFG=1
M  V30 20 C -15.830000 -26.406000 25.509000 0
M  V30 21 C -16.419000 -24.211000 24.608000 0
M  V30 22 C -15.636000 -24.980000 25.529000 0
M  V30 23 H -8.890800 -21.600700 28.217400 0
M  V30 24 H -10.358100 -22.686500 25.286200 0
M  V30 25 H -11.935900 -23.089500 25.164000 0
M  V30 26 H -11.477700 -21.875200 26.155100 0
M  V30 27 H -14.713900 -26.810600 27.202100 0
M  V30 28 H -16.053400 -27.736100 27.076500 0
M  V30 29 H -14.751700 -28.052700 26.142700 0
M  V30 30 H -10.536600 -20.440500 29.321700 0
M  V30 31 H -10.403200 -21.921700 29.996200 0
M  V30 32 H -9.824900 -23.833100 28.583300 0
M  V30 33 H -9.016700 -23.545300 27.193900 0
M  V30 34 H -16.752300 -27.928000 24.495500 0
M  V30 35 H -17.779700 -24.372500 23.042300 0
M  V30 36 H -12.004100 -23.573800 29.678300 0
M  V30 37 H -13.505400 -23.199300 29.156300 0
M  V30 38 H -12.360300 -21.329900 27.981300 0
M  V30 39 H -12.690200 -21.190600 29.574500 0
M  V30 40 H -15.431300 -21.157000 25.430800 0
M  V30 41 H -14.048300 -22.375700 26.925800 0
M  V30 42 H -16.889700 -22.271800 23.965800 0
M  V30 43 H -10.839900 -24.644900 26.512700 0
M  V30 44 H -10.157700 -21.388000 27.209200 0
M  V30 END ATOM
M  V30 BEGIN BOND
M  V30 1 2 1 2
M  V30 2 2 1 3
M  V30 3 1 1 6 CFG=1
M  V30 4 1 1 18
M  V30 5 1 4 9
M  V30 6 1 4 10
M  V30 7 2 5 11
M  V30 8 1 5 12
M  V30 9 1 6 13
M  V30 10 1 6 19
M  V30 11 1 7 19
M  V30 12 1 8 20
M  V30 13 1 9 14
M  V30 14 1 10 19
M  V30 15 1 11 20
M  V30 16 2 12 21
M  V30 17 1 13 14
M  V30 18 1 15 16
M  V30 19 2 15 17
M  V30 20 2 16 18
M  V30 21 1 17 21
M  V30 22 1 18 22
M  V30 23 2 20 22
M  V30 24 1 21 22
M  V30 25 1 4 23 CFG=1
M  V30 26 1 7 24 CFG=3
M  V30 27 1 7 25
M  V30 28 1 7 26
M  V30 29 1 8 27 CFG=1
M  V30 30 1 8 28
M  V30 31 1 8 29
M  V30 32 1 9 30 CFG=1
M  V30 33 1 9 31
M  V30 34 1 10 32 CFG=1
M  V30 35 1 10 33
M  V30 36 1 11 34
M  V30 37 1 12 35
M  V30 38 1 13 36 CFG=1
M  V30 39 1 13 37
M  V30 40 1 14 38 CFG=3
M  V30 41 1 14 39
M  V30 42 1 15 40
M  V30 43 1 16 41
M  V30 44 1 17 42
M  V30 45 1 19 43 CFG=3
M  V30 46 1 4 44
M  V30 END BOND
M  V30 END CTAB
M  END
>  <Ligand_Instance>  (228) 
5M6V_H52_A_401

>  <Dataset>  (228) 
PDB

>  <PDB_ID>  (228) 
5M6V

>  <Chain>  (228) 
A

>  <Resi>  (228) 
401

>  <Num_Resolved_Atoms>  (228) 
22

>  <Num_H_Atoms_ProtBoundConf>  (228) 
22

>  <Pocket>  (228) 
A

>  <SMILES>  (228) 
Cc1cncc2c1c(ccc2)S(=O)(=O)[N@]3CCCNC[C@@H]3C

>  <Name>  (228) 
(S)-2-METHYL-1-[(4-METHYL-5-ISOQUINOLINE)SULFONYL]-HOMOPIPERAZINE

>  <Num_Heavy_Atoms>  (228) 
22

>  <Num_Not_Resolved_Atoms>  (228) 
0

>  <ATP_Site>  (228) 
True

>  <Peripheral>  (228) 
False

>  <Standardized_SMILES>  (228) 
[H]C1=NC([H])=C2C([H])=C([H])C([H])=C(S(=O)(=O)N3C([H])([H])C([H])([H])C([H])([H])[N+]([H])([H])C([H])([H])[C@]3([H])C([H])([H])[H])C2=C1C([H])([H])[H]

$$$$
HBD
     RDKit          3D

  0  0  0  0  0  0  0  0  0  0999 V3000
M  V30 BEGIN CTAB
M  V30 COUNTS 17 17 0 0 0
M  V30 BEGIN ATOM
M  V30 1 O -9.139000 2.465000 -28.334000 0
M  V30 2 O -15.168000 2.367000 -30.262000 0
M  V30 3 N -9.502000 4.670000 -28.432000 0
M  V30 4 C -12.994000 1.582000 -29.698000 0
M  V30 5 C -13.489000 3.928000 -29.599000 0
M  V30 6 C -11.696000 1.842000 -29.294000 0
M  V30 7 C -12.192000 4.182000 -29.204000 0
M  V30 8 C -9.881000 3.408000 -28.577000 0
M  V30 9 C -13.896000 2.627000 -29.847000 0
M  V30 10 C -11.279000 3.146000 -29.045000 0
M  V30 11 H -15.821400 3.116200 -30.370900 0
M  V30 12 H -10.140000 5.410900 -28.641800 0
M  V30 13 H -8.578100 4.881100 -28.112800 0
M  V30 14 H -13.281900 0.642300 -29.882400 0
M  V30 15 H -14.135700 4.683100 -29.706400 0
M  V30 16 H -11.051800 1.085700 -29.180000 0
M  V30 17 H -11.904800 5.123900 -29.029700 0
M  V30 END ATOM
M  V30 BEGIN BOND
M  V30 1 2 1 8
M  V30 2 1 2 9
M  V30 3 1 3 8
M  V30 4 1 4 6
M  V30 5 2 4 9
M  V30 6 2 5 7
M  V30 7 1 5 9
M  V30 8 2 6 10
M  V30 9 1 7 10
M  V30 10 1 8 10
M  V30 11 1 2 11
M  V30 12 1 3 12
M  V30 13 1 3 13
M  V30 14 1 4 14
M  V30 15 1 5 15
M  V30 16 1 6 16
M  V30 17 1 7 17
M  V30 END BOND
M  V30 END CTAB
M  END
>  <Ligand_Instance>  (229) 
5N3S_HBD_A_401

>  <Dataset>  (229) 
PDB

>  <PDB_ID>  (229) 
5N3S

>  <Chain>  (229) 
A

>  <Resi>  (229) 
401

>  <Num_Resolved_Atoms>  (229) 
10

>  <Num_H_Atoms_ProtBoundConf>  (229) 
7

>  <Pocket>  (229) 
A

>  <SMILES>  (229) 
c1cc(ccc1C(=O)N)O

>  <Name>  (229) 
4-HYDROXYBENZAMIDE

>  <Num_Heavy_Atoms>  (229) 
10

>  <Num_Not_Resolved_Atoms>  (229) 
0

>  <ATP_Site>  (229) 
True

>  <Peripheral>  (229) 
False

>  <Standardized_SMILES>  (229) 
[H]OC1=C([H])C([H])=C(C(=O)N([H])[H])C([H])=C1[H]

$$$$
I5G
     RDKit          3D

  0  0  0  0  0  0  0  0  0  0999 V3000
M  V30 BEGIN CTAB
M  V30 COUNTS 53 56 0 0 0
M  V30 BEGIN ATOM
M  V30 1 Cl -74.376000 -5.630000 9.580000 0
M  V30 2 Cl -70.362000 -15.088000 9.032000 0
M  V30 3 O -75.838000 -12.789000 11.359000 0
M  V30 4 O -70.582000 -13.813000 16.143000 0
M  V30 5 O -72.457000 -10.238000 10.953000 0
M  V30 6 N -70.774000 -18.873000 9.140000 0
M  V30 7 N -76.884000 -6.279000 9.710000 0
M  V30 8 N -73.409000 -12.965000 15.176000 0 CFG=2 CHG=1
M  V30 9 N -73.766000 -12.467000 12.193000 0
M  V30 10 C -71.311000 -9.429000 10.667000 0 CFG=1
M  V30 11 C -71.284000 -18.027000 9.751000 0
M  V30 12 C -77.894000 -7.121000 9.951000 0
M  V30 13 C -72.381000 -12.277000 15.950000 0 CFG=2
M  V30 14 C -77.691000 -8.435000 10.332000 0
M  V30 15 C -72.779000 -17.213000 11.488000 0
M  V30 16 C -73.374000 -16.170000 12.210000 0
M  V30 17 C -71.366000 -13.138000 13.934000 0 CFG=2
M  V30 18 C -72.087000 -14.522000 10.965000 0
M  V30 19 C -74.013000 -8.463000 10.361000 0
M  V30 20 C -76.166000 -10.203000 10.883000 0
M  V30 21 C -75.651000 -6.738000 9.858000 0
M  V30 22 C -74.835000 -12.074000 11.509000 0
M  V30 23 C -71.506000 -15.562000 10.239000 0
M  V30 24 C -71.048000 -12.716000 15.369000 0 CFG=2
M  V30 25 C -73.752000 -9.791000 10.792000 0
M  V30 26 C -72.785000 -13.735000 14.082000 0 CFG=2
M  V30 27 C -73.660000 -13.781000 12.784000 0 CFG=2
M  V30 28 C -71.860000 -16.912000 10.486000 0
M  V30 29 C -73.040000 -14.841000 11.928000 0
M  V30 30 C -76.395000 -8.897000 10.482000 0
M  V30 31 C -74.861000 -10.664000 11.023000 0
M  V30 32 C -75.336000 -8.046000 10.222000 0
M  V30 33 H -69.702700 -14.125200 15.783200 0
M  V30 34 H -74.039200 -12.291500 14.789600 0
M  V30 35 H -73.004700 -11.828000 12.303100 0
M  V30 36 H -70.479100 -9.951400 10.854100 0
M  V30 37 H -71.325500 -9.158900 9.704300 0
M  V30 38 H -71.327900 -8.611600 11.242800 0
M  V30 39 H -78.831800 -6.788200 9.852100 0
M  V30 40 H -72.441200 -12.536300 16.913900 0
M  V30 41 H -72.487200 -11.286400 15.864000 0
M  V30 42 H -78.468600 -9.041900 10.496500 0
M  V30 43 H -73.012000 -18.164200 11.690300 0
M  V30 44 H -74.038600 -16.375900 12.928200 0
M  V30 45 H -70.716200 -13.822800 13.604100 0
M  V30 46 H -71.365000 -12.352300 13.315400 0
M  V30 47 H -71.825400 -13.571400 10.797800 0
M  V30 48 H -73.259500 -7.836900 10.160400 0
M  V30 49 H -76.936200 -10.812400 11.071200 0
M  V30 50 H -70.388400 -11.964500 15.382000 0
M  V30 51 H -72.679700 -14.676100 14.403200 0
M  V30 52 H -74.578700 -14.083400 13.038100 0
M  V30 53 H -73.912800 -13.588100 15.774300 0
M  V30 END ATOM
M  V30 BEGIN BOND
M  V30 1 1 1 21
M  V30 2 1 2 23
M  V30 3 2 3 22
M  V30 4 1 4 24
M  V30 5 1 5 10
M  V30 6 1 5 25
M  V30 7 3 6 11
M  V30 8 2 7 12
M  V30 9 1 7 21
M  V30 10 1 8 13
M  V30 11 1 8 26
M  V30 12 1 9 22
M  V30 13 1 9 27
M  V30 14 1 11 28
M  V30 15 1 12 14
M  V30 16 1 13 24
M  V30 17 2 14 30
M  V30 18 1 15 16
M  V30 19 2 15 28
M  V30 20 2 16 29
M  V30 21 1 17 24
M  V30 22 1 17 26
M  V30 23 2 18 23
M  V30 24 1 18 29
M  V30 25 2 19 25
M  V30 26 1 19 32
M  V30 27 1 20 30
M  V30 28 2 20 31
M  V30 29 2 21 32
M  V30 30 1 22 31
M  V30 31 1 23 28
M  V30 32 1 25 31
M  V30 33 1 26 27
M  V30 34 1 27 29
M  V30 35 1 30 32
M  V30 36 1 4 33
M  V30 37 1 8 34 CFG=3
M  V30 38 1 9 35
M  V30 39 1 10 36 CFG=3
M  V30 40 1 10 37
M  V30 41 1 10 38
M  V30 42 1 12 39
M  V30 43 1 13 40 CFG=1
M  V30 44 1 13 41
M  V30 45 1 14 42
M  V30 46 1 15 43
M  V30 47 1 16 44
M  V30 48 1 17 45 CFG=3
M  V30 49 1 17 46
M  V30 50 1 18 47
M  V30 51 1 19 48
M  V30 52 1 20 49
M  V30 53 1 24 50 CFG=3
M  V30 54 1 26 51 CFG=1
M  V30 55 1 27 52 CFG=1
M  V30 56 1 8 53
M  V30 END BOND
M  V30 END CTAB
M  END
>  <Ligand_Instance>  (230) 
7Y1G_I5G_A_500

>  <Dataset>  (230) 
PDB

>  <PDB_ID>  (230) 
7Y1G

>  <Chain>  (230) 
A

>  <Resi>  (230) 
500

>  <Num_Resolved_Atoms>  (230) 
32

>  <Num_H_Atoms_ProtBoundConf>  (230) 
21

>  <Pocket>  (230) 
A

>  <SMILES>  (230) 
COc1cc2c(ccnc2Cl)cc1C(=O)N[C@@H](c3ccc(c(c3)Cl)C#N)[C@H]4C[C@@H](CN4)O

>  <Name>  (230) 
1-chloranyl-~{N}-[(~{S})-(3-chloranyl-4-cyano-phenyl)-[(2~{R},4~{S})-4-oxidanylpyrrolidin-2-yl]methyl]-7-methoxy-isoquinoline-6-carboxamide

>  <Num_Heavy_Atoms>  (230) 
32

>  <Num_Not_Resolved_Atoms>  (230) 
0

>  <ATP_Site>  (230) 
True

>  <Peripheral>  (230) 
False

>  <Standardized_SMILES>  (230) 
[H]O[C@@]1([H])C([H])([H])[C@]([H])([C@]([H])(C2=C([H])C([H])=C(C#N)C(Cl)=C2[H])N([H])C(=O)C2=C([H])C3=C([H])C([H])=NC(Cl)=C3C([H])=C2OC([H])([H])[H])[N+]([H])([H])C1([H])[H]

$$$$
I5G
     RDKit          3D

  0  0  0  0  0  0  0  0  0  0999 V3000
M  V30 BEGIN CTAB
M  V30 COUNTS 53 56 0 0 0
M  V30 BEGIN ATOM
M  V30 1 Cl -47.859000 -4.961000 42.569000 0
M  V30 2 Cl -51.862000 -13.914000 43.901000 0
M  V30 3 O -47.255000 -12.323000 40.918000 0
M  V30 4 O -52.869000 -13.357000 36.660000 0
M  V30 5 O -50.111000 -9.562000 41.744000 0
M  V30 6 N -51.924000 -17.737000 43.823000 0
M  V30 7 N -45.355000 -5.596000 41.870000 0
M  V30 8 N -49.929000 -12.197000 37.166000 0 CFG=2 CHG=1
M  V30 9 N -49.147000 -11.638000 39.976000 0
M  V30 10 C -51.160000 -8.732000 42.266000 0 CFG=1
M  V30 11 C -51.511000 -16.897000 43.117000 0
M  V30 12 C -44.444000 -6.462000 41.412000 0
M  V30 13 C -51.061000 -12.036000 36.251000 0 CFG=2
M  V30 14 C -44.749000 -7.802000 41.095000 0
M  V30 15 C -50.349000 -16.292000 41.034000 0
M  V30 16 C -49.859000 -15.319000 40.173000 0
M  V30 17 C -51.799000 -12.275000 38.541000 0 CFG=2
M  V30 18 C -50.596000 -13.505000 41.632000 0
M  V30 19 C -48.397000 -7.773000 41.862000 0
M  V30 20 C -46.436000 -9.584000 40.931000 0
M  V30 21 C -46.624000 -6.059000 42.025000 0
M  V30 22 C -48.050000 -11.416000 40.678000 0
M  V30 23 C -51.096000 -14.493000 42.489000 0
M  V30 24 C -52.313000 -12.155000 37.097000 0 CFG=2
M  V30 25 C -48.803000 -9.110000 41.568000 0
M  V30 26 C -50.442000 -12.950000 38.302000 0 CFG=2
M  V30 27 C -49.435000 -12.970000 39.472000 0 CFG=2
M  V30 28 C -50.979000 -15.876000 42.216000 0
M  V30 29 C -49.966000 -13.952000 40.476000 0
M  V30 30 C -46.059000 -8.266000 41.246000 0
M  V30 31 C -47.793000 -10.004000 41.094000 0
M  V30 32 C -47.040000 -7.372000 41.721000 0
M  V30 33 H -53.715000 -13.535100 37.162600 0
M  V30 34 H -49.592000 -11.303800 37.463700 0
M  V30 35 H -49.781000 -10.887100 39.791000 0
M  V30 36 H -52.010600 -9.256200 42.306900 0
M  V30 37 H -50.914400 -8.422800 43.184800 0
M  V30 38 H -51.285500 -7.939000 41.669900 0
M  V30 39 H -43.503700 -6.144700 41.288800 0
M  V30 40 H -51.045900 -12.751500 35.552500 0
M  V30 41 H -51.025000 -11.139100 35.810300 0
M  V30 42 H -44.032600 -8.416400 40.764300 0
M  V30 43 H -50.255200 -17.263700 40.817000 0
M  V30 44 H -49.420400 -15.597800 39.318600 0
M  V30 45 H -52.400900 -12.844700 39.100600 0
M  V30 46 H -51.694300 -11.378200 38.971000 0
M  V30 47 H -50.687100 -12.531100 41.840000 0
M  V30 48 H -49.077200 -7.108600 42.171700 0
M  V30 49 H -45.752200 -10.229900 40.591700 0
M  V30 50 H -52.932700 -11.379800 36.974600 0
M  V30 51 H -50.604900 -13.892200 38.009100 0
M  V30 52 H -48.577800 -13.343700 39.117800 0
M  V30 53 H -49.189200 -12.700600 36.719700 0
M  V30 END ATOM
M  V30 BEGIN BOND
M  V30 1 1 1 21
M  V30 2 1 2 23
M  V30 3 2 3 22
M  V30 4 1 4 24
M  V30 5 1 5 10
M  V30 6 1 5 25
M  V30 7 3 6 11
M  V30 8 2 7 12
M  V30 9 1 7 21
M  V30 10 1 8 13
M  V30 11 1 8 26
M  V30 12 1 9 22
M  V30 13 1 9 27
M  V30 14 1 11 28
M  V30 15 1 12 14
M  V30 16 1 13 24
M  V30 17 2 14 30
M  V30 18 1 15 16
M  V30 19 2 15 28
M  V30 20 2 16 29
M  V30 21 1 17 24
M  V30 22 1 17 26
M  V30 23 2 18 23
M  V30 24 1 18 29
M  V30 25 2 19 25
M  V30 26 1 19 32
M  V30 27 1 20 30
M  V30 28 2 20 31
M  V30 29 2 21 32
M  V30 30 1 22 31
M  V30 31 1 23 28
M  V30 32 1 25 31
M  V30 33 1 26 27
M  V30 34 1 27 29
M  V30 35 1 30 32
M  V30 36 1 4 33
M  V30 37 1 8 34 CFG=1
M  V30 38 1 9 35
M  V30 39 1 10 36 CFG=1
M  V30 40 1 10 37
M  V30 41 1 10 38
M  V30 42 1 12 39
M  V30 43 1 13 40 CFG=3
M  V30 44 1 13 41
M  V30 45 1 14 42
M  V30 46 1 15 43
M  V30 47 1 16 44
M  V30 48 1 17 45 CFG=1
M  V30 49 1 17 46
M  V30 50 1 18 47
M  V30 51 1 19 48
M  V30 52 1 20 49
M  V30 53 1 24 50 CFG=1
M  V30 54 1 26 51 CFG=3
M  V30 55 1 27 52 CFG=3
M  V30 56 1 8 53
M  V30 END BOND
M  V30 END CTAB
M  END
>  <Ligand_Instance>  (231) 
7Y1G_I5G_B_401

>  <Dataset>  (231) 
PDB

>  <PDB_ID>  (231) 
7Y1G

>  <Chain>  (231) 
B

>  <Resi>  (231) 
401

>  <Num_Resolved_Atoms>  (231) 
32

>  <Num_H_Atoms_ProtBoundConf>  (231) 
21

>  <Pocket>  (231) 
A

>  <SMILES>  (231) 
COc1cc2c(ccnc2Cl)cc1C(=O)N[C@@H](c3ccc(c(c3)Cl)C#N)[C@H]4C[C@@H](CN4)O

>  <Name>  (231) 
1-chloranyl-~{N}-[(~{S})-(3-chloranyl-4-cyano-phenyl)-[(2~{R},4~{S})-4-oxidanylpyrrolidin-2-yl]methyl]-7-methoxy-isoquinoline-6-carboxamide

>  <Num_Heavy_Atoms>  (231) 
32

>  <Num_Not_Resolved_Atoms>  (231) 
0

>  <ATP_Site>  (231) 
True

>  <Peripheral>  (231) 
False

>  <Standardized_SMILES>  (231) 
[H]O[C@@]1([H])C([H])([H])[C@]([H])([C@]([H])(C2=C([H])C([H])=C(C#N)C(Cl)=C2[H])N([H])C(=O)C2=C([H])C3=C([H])C([H])=NC(Cl)=C3C([H])=C2OC([H])([H])[H])[N+]([H])([H])C1([H])[H]

$$$$
I5S
     RDKit          3D

  0  0  0  0  0  0  0  0  0  0999 V3000
M  V30 BEGIN CTAB
M  V30 COUNTS 51 53 0 0 0
M  V30 BEGIN ATOM
M  V30 1 Cl 13.231000 14.597000 -0.226000 0
M  V30 2 S 8.833000 10.526000 3.698000 0 CFG=1
M  V30 3 O 8.697000 11.380000 4.817000 0
M  V30 4 O 9.854000 10.737000 2.746000 0
M  V30 5 O 13.983000 9.034000 2.751000 0
M  V30 6 N 9.051000 9.062000 4.361000 0
M  V30 7 N 11.683000 7.323000 2.847000 0 CFG=2 CHG=1
M  V30 8 N 3.629000 10.170000 4.812000 0
M  V30 9 C 14.299000 7.697000 3.198000 0 CFG=2
M  V30 10 C 14.832000 10.116000 3.314000 0 CFG=2
M  V30 11 C 13.010000 6.791000 3.355000 0 CFG=2
M  V30 12 C 9.555000 8.025000 3.514000 0 CFG=2
M  V30 13 C 11.007000 7.929000 3.885000 0 CFG=2
M  V30 14 C 4.742000 10.304000 5.525000 0
M  V30 15 C 6.146000 10.150000 0.751000 0
M  V30 16 C 3.665000 10.083000 3.486000 0
M  V30 17 C 7.318000 10.284000 1.477000 0
M  V30 18 C 5.980000 10.392000 4.946000 0
M  V30 19 C 13.056000 13.147000 1.991000 0
M  V30 20 C 14.701000 12.464000 0.353000 0
M  V30 21 C 4.944000 10.072000 1.388000 0
M  V30 22 C 13.440000 12.109000 2.811000 0
M  V30 23 C 15.088000 11.422000 1.180000 0
M  V30 24 C 13.697000 13.309000 0.780000 0
M  V30 25 C 7.316000 10.378000 2.845000 0
M  V30 26 C 14.457000 11.271000 2.413000 0
M  V30 27 C 4.897000 10.148000 2.796000 0
M  V30 28 C 6.096000 10.320000 3.537000 0
M  V30 29 H 8.166300 8.757700 4.714000 0
M  V30 30 H 11.135500 6.567100 2.488100 0
M  V30 31 H 14.760100 7.755300 4.083400 0
M  V30 32 H 14.910800 7.271800 2.530900 0
M  V30 33 H 15.804600 9.894900 3.242800 0
M  V30 34 H 14.602000 10.304700 4.268700 0
M  V30 35 H 13.190000 5.935400 2.869600 0
M  V30 36 H 12.898400 6.603500 4.330900 0
M  V30 37 H 9.449500 8.270100 2.550300 0
M  V30 38 H 9.084600 7.160600 3.691500 0
M  V30 39 H 11.377200 8.845000 4.039800 0
M  V30 40 H 11.107500 7.383800 4.717300 0
M  V30 41 H 4.673200 10.342000 6.521900 0
M  V30 42 H 6.182300 10.110200 -0.247600 0
M  V30 43 H 2.814100 9.970700 2.972800 0
M  V30 44 H 8.190600 10.313000 0.989500 0
M  V30 45 H 6.795200 10.506200 5.513800 0
M  V30 46 H 12.326000 13.771700 2.268300 0
M  V30 47 H 15.140100 12.600900 -0.534900 0
M  V30 48 H 4.101200 9.961700 0.861200 0
M  V30 49 H 12.983400 11.965200 3.689000 0
M  V30 50 H 15.808300 10.788800 0.896700 0
M  V30 51 H 11.846800 7.990300 2.120400 0
M  V30 END ATOM
M  V30 BEGIN BOND
M  V30 1 1 1 24
M  V30 2 2 2 3
M  V30 3 2 2 4
M  V30 4 1 2 6 CFG=1
M  V30 5 1 2 25
M  V30 6 1 5 9
M  V30 7 1 5 10
M  V30 8 1 6 12
M  V30 9 1 7 11
M  V30 10 1 7 13
M  V30 11 2 8 14
M  V30 12 1 8 16
M  V30 13 1 9 11
M  V30 14 1 10 26
M  V30 15 1 12 13
M  V30 16 1 14 18
M  V30 17 1 15 17
M  V30 18 2 15 21
M  V30 19 2 16 27
M  V30 20 2 17 25
M  V30 21 2 18 28
M  V30 22 2 19 22
M  V30 23 1 19 24
M  V30 24 1 20 23
M  V30 25 2 20 24
M  V30 26 1 21 27
M  V30 27 1 22 26
M  V30 28 2 23 26
M  V30 29 1 25 28
M  V30 30 1 27 28
M  V30 31 1 6 29
M  V30 32 1 7 30 CFG=3
M  V30 33 1 9 31 CFG=1
M  V30 34 1 9 32
M  V30 35 1 10 33 CFG=1
M  V30 36 1 10 34
M  V30 37 1 11 35 CFG=3
M  V30 38 1 11 36
M  V30 39 1 12 37 CFG=3
M  V30 40 1 12 38
M  V30 41 1 13 39 CFG=1
M  V30 42 1 13 40
M  V30 43 1 14 41
M  V30 44 1 15 42
M  V30 45 1 16 43
M  V30 46 1 17 44
M  V30 47 1 18 45
M  V30 48 1 19 46
M  V30 49 1 20 47
M  V30 50 1 21 48
M  V30 51 1 22 49
M  V30 52 1 23 50
M  V30 53 1 7 51
M  V30 END BOND
M  V30 END CTAB
M  END
>  <Ligand_Instance>  (232) 
2JDT_I5S_A_1351

>  <Dataset>  (232) 
PDB

>  <PDB_ID>  (232) 
2JDT

>  <Chain>  (232) 
A

>  <Resi>  (232) 
1351

>  <Num_Resolved_Atoms>  (232) 
28

>  <Num_H_Atoms_ProtBoundConf>  (232) 
23

>  <Pocket>  (232) 
A

>  <SMILES>  (232) 
c1cc2cnccc2c(c1)S(=O)(=O)NCCNCCOCc3ccc(cc3)Cl

>  <Name>  (232) 
ISOQUINOLINE-5-SULFONIC ACID (2-(2-(4-CHLOROBENZYLOXY)ETHYLAMINO)ETHYL)AMIDE

>  <Num_Heavy_Atoms>  (232) 
28

>  <Num_Not_Resolved_Atoms>  (232) 
0

>  <ATP_Site>  (232) 
True

>  <Peripheral>  (232) 
False

>  <Standardized_SMILES>  (232) 
[H]C1=NC([H])=C2C([H])=C([H])C([H])=C(S(=O)(=O)N([H])C([H])([H])C([H])([H])[N+]([H])([H])C([H])([H])C([H])([H])OC([H])([H])C3=C([H])C([H])=C(Cl)C([H])=C3[H])C2=C1[H]

$$$$
IPH
     RDKit          3D

  0  0  0  0  0  0  0  0  0  0999 V3000
M  V30 BEGIN CTAB
M  V30 COUNTS 13 13 0 0 0
M  V30 BEGIN ATOM
M  V30 1 O 33.656000 10.340000 -3.946000 0
M  V30 2 C 29.617000 9.942000 -3.091000 0
M  V30 3 C 30.545000 9.953000 -2.037000 0
M  V30 4 C 30.040000 9.973000 -4.417000 0
M  V30 5 C 31.905000 10.078000 -2.322000 0
M  V30 6 C 31.406000 10.034000 -4.712000 0
M  V30 7 C 32.320000 10.145000 -3.657000 0
M  V30 8 H 34.319800 10.432300 -3.203800 0
M  V30 9 H 28.638700 9.911500 -2.886200 0
M  V30 10 H 30.233600 9.871900 -1.090200 0
M  V30 11 H 29.368300 9.951700 -5.157500 0
M  V30 12 H 32.575400 10.119200 -1.581200 0
M  V30 13 H 31.724100 9.999000 -5.659400 0
M  V30 END ATOM
M  V30 BEGIN BOND
M  V30 1 1 1 7
M  V30 2 2 2 3
M  V30 3 1 2 4
M  V30 4 1 3 5
M  V30 5 2 4 6
M  V30 6 2 5 7
M  V30 7 1 6 7
M  V30 8 1 1 8
M  V30 9 1 2 9
M  V30 10 1 3 10
M  V30 11 1 4 11
M  V30 12 1 5 12
M  V30 13 1 6 13
M  V30 END BOND
M  V30 END CTAB
M  END
>  <Ligand_Instance>  (233) 
3NX8_IPH_A_351

>  <Dataset>  (233) 
PDB

>  <PDB_ID>  (233) 
3NX8

>  <Chain>  (233) 
A

>  <Resi>  (233) 
351

>  <Num_Resolved_Atoms>  (233) 
7

>  <Num_H_Atoms_ProtBoundConf>  (233) 
6

>  <Pocket>  (233) 
A

>  <SMILES>  (233) 
c1ccc(cc1)O

>  <Name>  (233) 
PHENOL

>  <Num_Heavy_Atoms>  (233) 
7

>  <Num_Not_Resolved_Atoms>  (233) 
0

>  <ATP_Site>  (233) 
True

>  <Peripheral>  (233) 
True

>  <Standardized_SMILES>  (233) 
[H]OC1=C([H])C([H])=C([H])C([H])=C1[H]

$$$$
IPH
     RDKit          3D

  0  0  0  0  0  0  0  0  0  0999 V3000
M  V30 BEGIN CTAB
M  V30 COUNTS 13 13 0 0 0
M  V30 BEGIN ATOM
M  V30 1 O 26.927000 8.869000 -5.945000 0
M  V30 2 C 25.467000 8.782000 -2.055000 0
M  V30 3 C 25.770000 7.584000 -2.707000 0
M  V30 4 C 25.638000 10.015000 -2.691000 0
M  V30 5 C 26.256000 7.609000 -4.015000 0
M  V30 6 C 26.101000 10.044000 -4.008000 0
M  V30 7 C 26.424000 8.843000 -4.651000 0
M  V30 8 H 27.162700 8.014100 -6.407100 0
M  V30 9 H 25.121700 8.756900 -1.116800 0
M  V30 10 H 25.639000 6.710800 -2.237600 0
M  V30 11 H 25.431200 10.866200 -2.208500 0
M  V30 12 H 26.480500 6.758000 -4.489800 0
M  V30 13 H 26.201100 10.915500 -4.488000 0
M  V30 END ATOM
M  V30 BEGIN BOND
M  V30 1 1 1 7
M  V30 2 2 2 3
M  V30 3 1 2 4
M  V30 4 1 3 5
M  V30 5 2 4 6
M  V30 6 2 5 7
M  V30 7 1 6 7
M  V30 8 1 1 8
M  V30 9 1 2 9
M  V30 10 1 3 10
M  V30 11 1 4 11
M  V30 12 1 5 12
M  V30 13 1 6 13
M  V30 END BOND
M  V30 END CTAB
M  END
>  <Ligand_Instance>  (234) 
3NX8_IPH_A_352

>  <Dataset>  (234) 
PDB

>  <PDB_ID>  (234) 
3NX8

>  <Chain>  (234) 
A

>  <Resi>  (234) 
352

>  <Num_Resolved_Atoms>  (234) 
7

>  <Num_H_Atoms_ProtBoundConf>  (234) 
6

>  <Pocket>  (234) 
X

>  <SMILES>  (234) 
c1ccc(cc1)O

>  <Name>  (234) 
PHENOL

>  <Num_Heavy_Atoms>  (234) 
7

>  <Num_Not_Resolved_Atoms>  (234) 
0

>  <ATP_Site>  (234) 
True

>  <Peripheral>  (234) 
True

>  <Standardized_SMILES>  (234) 
[H]OC1=C([H])C([H])=C([H])C([H])=C1[H]

$$$$
IPH
     RDKit          3D

  0  0  0  0  0  0  0  0  0  0999 V3000
M  V30 BEGIN CTAB
M  V30 COUNTS 13 13 0 0 0
M  V30 BEGIN ATOM
M  V30 1 O 30.482000 27.832000 -3.100000 0
M  V30 2 C 31.417000 23.788000 -3.466000 0
M  V30 3 C 30.081000 24.186000 -3.541000 0
M  V30 4 C 32.445000 24.724000 -3.299000 0
M  V30 5 C 29.772000 25.547000 -3.421000 0
M  V30 6 C 32.127000 26.073000 -3.137000 0
M  V30 7 C 30.795000 26.483000 -3.234000 0
M  V30 8 H 31.210800 28.503500 -2.966200 0
M  V30 9 H 31.644100 22.816400 -3.532800 0
M  V30 10 H 29.356500 23.510600 -3.678100 0
M  V30 11 H 33.400100 24.427800 -3.295900 0
M  V30 12 H 28.820100 25.849700 -3.469000 0
M  V30 13 H 32.847500 26.741600 -2.952800 0
M  V30 END ATOM
M  V30 BEGIN BOND
M  V30 1 1 1 7
M  V30 2 2 2 3
M  V30 3 1 2 4
M  V30 4 1 3 5
M  V30 5 2 4 6
M  V30 6 2 5 7
M  V30 7 1 6 7
M  V30 8 1 1 8
M  V30 9 1 2 9
M  V30 10 1 3 10
M  V30 11 1 4 11
M  V30 12 1 5 12
M  V30 13 1 6 13
M  V30 END BOND
M  V30 END CTAB
M  END
>  <Ligand_Instance>  (235) 
3NX8_IPH_A_353

>  <Dataset>  (235) 
PDB

>  <PDB_ID>  (235) 
3NX8

>  <Chain>  (235) 
A

>  <Resi>  (235) 
353

>  <Num_Resolved_Atoms>  (235) 
7

>  <Num_H_Atoms_ProtBoundConf>  (235) 
6

>  <Pocket>  (235) 
F

>  <SMILES>  (235) 
c1ccc(cc1)O

>  <Name>  (235) 
PHENOL

>  <Num_Heavy_Atoms>  (235) 
7

>  <Num_Not_Resolved_Atoms>  (235) 
0

>  <ATP_Site>  (235) 
True

>  <Peripheral>  (235) 
True

>  <Standardized_SMILES>  (235) 
[H]OC1=C([H])C([H])=C([H])C([H])=C1[H]

$$$$
IPH
     RDKit          3D

  0  0  0  0  0  0  0  0  0  0999 V3000
M  V30 BEGIN CTAB
M  V30 COUNTS 13 13 0 0 0
M  V30 BEGIN ATOM
M  V30 1 O 17.238000 3.342000 20.570000 0
M  V30 2 C 13.373000 3.783000 19.188000 0
M  V30 3 C 13.890000 2.505000 19.437000 0
M  V30 4 C 14.159000 4.921000 19.397000 0
M  V30 5 C 15.194000 2.356000 19.908000 0
M  V30 6 C 15.472000 4.786000 19.851000 0
M  V30 7 C 15.969000 3.501000 20.111000 0
M  V30 8 H 17.817500 4.142100 20.725300 0
M  V30 9 H 12.434200 3.882500 18.858100 0
M  V30 10 H 13.322400 1.697500 19.276500 0
M  V30 11 H 13.780800 5.829900 19.221400 0
M  V30 12 H 15.567200 1.447700 20.096800 0
M  V30 13 H 16.048100 5.591700 19.988400 0
M  V30 END ATOM
M  V30 BEGIN BOND
M  V30 1 1 1 7
M  V30 2 2 2 3
M  V30 3 1 2 4
M  V30 4 1 3 5
M  V30 5 2 4 6
M  V30 6 2 5 7
M  V30 7 1 6 7
M  V30 8 1 1 8
M  V30 9 1 2 9
M  V30 10 1 3 10
M  V30 11 1 4 11
M  V30 12 1 5 12
M  V30 13 1 6 13
M  V30 END BOND
M  V30 END CTAB
M  END
>  <Ligand_Instance>  (236) 
6Z44_IPH_A_401

>  <Dataset>  (236) 
PDB

>  <PDB_ID>  (236) 
6Z44

>  <Chain>  (236) 
A

>  <Resi>  (236) 
401

>  <Num_Resolved_Atoms>  (236) 
7

>  <Num_H_Atoms_ProtBoundConf>  (236) 
6

>  <Pocket>  (236) 
A

>  <SMILES>  (236) 
c1ccc(cc1)O

>  <Name>  (236) 
PHENOL

>  <Num_Heavy_Atoms>  (236) 
7

>  <Num_Not_Resolved_Atoms>  (236) 
0

>  <ATP_Site>  (236) 
True

>  <Peripheral>  (236) 
False

>  <Standardized_SMILES>  (236) 
[H]OC1=C([H])C([H])=C([H])C([H])=C1[H]

$$$$
IQB
     RDKit          3D

  0  0  0  0  0  0  0  0  0  0999 V3000
M  V30 BEGIN CTAB
M  V30 COUNTS 48 50 0 0 0
M  V30 BEGIN ATOM
M  V30 1 Br -15.076000 13.616000 1.725000 0
M  V30 2 S -8.489000 9.993000 -4.108000 0 CFG=1
M  V30 3 O -8.218000 10.851000 -5.286000 0
M  V30 4 O -9.611000 10.603000 -3.339000 0
M  V30 5 N -8.911000 8.493000 -4.608000 0
M  V30 6 N -11.564000 7.601000 -4.257000 0 CFG=2 CHG=1
M  V30 7 N -3.148000 9.691000 -4.475000 0
M  V30 8 C -9.183000 7.520000 -3.511000 0 CFG=2
M  V30 9 C -10.668000 7.500000 -3.095000 0 CFG=2
M  V30 10 C -11.932000 9.014000 -4.474000 0 CFG=2
M  V30 11 C -4.153000 9.720000 -5.340000 0
M  V30 12 C -3.368000 9.747000 -3.163000 0
M  V30 13 C -12.605000 9.544000 -3.369000 0
M  V30 14 C -6.187000 9.986000 -0.777000 0
M  V30 15 C -5.478000 9.806000 -4.902000 0
M  V30 16 C -7.265000 10.017000 -1.659000 0
M  V30 17 C -14.513000 11.430000 -0.045000 0
M  V30 18 C -13.291000 13.449000 -0.531000 0
M  V30 19 C -12.361000 10.867000 -2.999000 0
M  V30 20 C -4.883000 9.896000 -1.268000 0
M  V30 21 C -13.906000 10.796000 -1.126000 0
M  V30 22 C -12.693000 12.810000 -1.613000 0
M  V30 23 C -14.210000 12.757000 0.259000 0
M  V30 24 C -7.062000 9.949000 -3.038000 0
M  V30 25 C -12.989000 11.487000 -1.912000 0
M  V30 26 C -4.666000 9.839000 -2.652000 0
M  V30 27 C -5.750000 9.866000 -3.531000 0
M  V30 28 H -8.165400 8.130500 -5.167200 0
M  V30 29 H -12.390300 7.063600 -4.088400 0
M  V30 30 H -8.630500 7.770200 -2.716000 0
M  V30 31 H -8.924600 6.605400 -3.822000 0
M  V30 32 H -10.857600 6.644100 -2.613900 0
M  V30 33 H -10.843000 8.271800 -2.483700 0
M  V30 34 H -12.525800 9.075600 -5.276300 0
M  V30 35 H -11.100100 9.545600 -4.633400 0
M  V30 36 H -3.960100 9.679700 -6.320400 0
M  V30 37 H -2.592000 9.722900 -2.532800 0
M  V30 38 H -13.251500 8.983300 -2.851600 0
M  V30 39 H -6.347400 10.028300 0.209200 0
M  V30 40 H -6.226700 9.824500 -5.564700 0
M  V30 41 H -8.195400 10.088800 -1.299600 0
M  V30 42 H -15.171300 10.930000 0.517700 0
M  V30 43 H -13.063200 14.399700 -0.320500 0
M  V30 44 H -11.705800 11.398100 -3.536200 0
M  V30 45 H -4.108300 9.872300 -0.636100 0
M  V30 46 H -14.129000 9.844400 -1.337400 0
M  V30 47 H -12.041300 13.310600 -2.182800 0
M  V30 48 H -11.097700 7.249600 -5.068900 0
M  V30 END ATOM
M  V30 BEGIN BOND
M  V30 1 1 1 23
M  V30 2 2 2 3
M  V30 3 2 2 4
M  V30 4 1 2 5 CFG=3
M  V30 5 1 2 24
M  V30 6 1 5 8
M  V30 7 1 6 9
M  V30 8 1 6 10
M  V30 9 2 7 11
M  V30 10 1 7 12
M  V30 11 1 8 9
M  V30 12 1 10 13
M  V30 13 1 11 15
M  V30 14 2 12 26
M  V30 15 2 13 19
M  V30 16 1 14 16
M  V30 17 2 14 20
M  V30 18 2 15 27
M  V30 19 2 16 24
M  V30 20 1 17 21
M  V30 21 2 17 23
M  V30 22 2 18 22
M  V30 23 1 18 23
M  V30 24 1 19 25
M  V30 25 1 20 26
M  V30 26 2 21 25
M  V30 27 1 22 25
M  V30 28 1 24 27
M  V30 29 1 26 27
M  V30 30 1 5 28
M  V30 31 1 6 29 CFG=1
M  V30 32 1 8 30 CFG=1
M  V30 33 1 8 31
M  V30 34 1 9 32 CFG=1
M  V30 35 1 9 33
M  V30 36 1 10 34 CFG=3
M  V30 37 1 10 35
M  V30 38 1 11 36
M  V30 39 1 12 37
M  V30 40 1 13 38
M  V30 41 1 14 39
M  V30 42 1 15 40
M  V30 43 1 16 41
M  V30 44 1 17 42
M  V30 45 1 18 43
M  V30 46 1 19 44
M  V30 47 1 20 45
M  V30 48 1 21 46
M  V30 49 1 22 47
M  V30 50 1 6 48
M  V30 END BOND
M  V30 END CTAB
M  END
>  <Ligand_Instance>  (237) 
3VQH_IQB_A_401

>  <Dataset>  (237) 
PDB

>  <PDB_ID>  (237) 
3VQH

>  <Chain>  (237) 
A

>  <Resi>  (237) 
401

>  <Num_Resolved_Atoms>  (237) 
27

>  <Num_H_Atoms_ProtBoundConf>  (237) 
21

>  <Pocket>  (237) 
A

>  <SMILES>  (237) 
c1cc2cnccc2c(c1)S(=O)(=O)NCCNC\C=C\c3ccc(cc3)Br

>  <Name>  (237) 
N-[2-(4-BROMOCINNAMYLAMINO)ETHYL]-5-ISOQUINOLINE SULFONAMIDE

>  <Num_Heavy_Atoms>  (237) 
27

>  <Num_Not_Resolved_Atoms>  (237) 
0

>  <ATP_Site>  (237) 
True

>  <Peripheral>  (237) 
False

>  <Standardized_SMILES>  (237) 
[H]C1=NC([H])=C2C([H])=C([H])C([H])=C(S(=O)(=O)N([H])C([H])([H])C([H])([H])[N+]([H])([H])C([H])([H])/C([H])=C(\[H])C3=C([H])C([H])=C(Br)C([H])=C3[H])C2=C1[H]

$$$$
IQP
     RDKit          3D

  0  0  0  0  0  0  0  0  0  0999 V3000
M  V30 BEGIN CTAB
M  V30 COUNTS 38 40 0 0 0
M  V30 BEGIN ATOM
M  V30 1 S -13.750000 25.102000 -27.557000 0 CFG=1
M  V30 2 O -13.288000 26.271000 -26.875000 0
M  V30 3 O -14.355000 25.223000 -28.842000 0
M  V30 4 N -10.519000 22.094000 -27.829000 0 CFG=2 CHG=1
M  V30 5 N -17.401000 26.229000 -23.702000 0
M  V30 6 N -12.467000 24.103000 -27.705000 0
M  V30 7 C -11.160000 24.252000 -29.798000 0 CFG=1
M  V30 8 C -10.892000 22.652000 -26.524000 0 CFG=2
M  V30 9 C -16.670000 26.937000 -24.581000 0
M  V30 10 C -11.670000 22.019000 -28.733000 0 CFG=2
M  V30 11 C -17.335000 24.903000 -23.775000 0
M  V30 12 C -11.403000 24.072000 -26.682000 0 CFG=2
M  V30 13 C -15.642000 22.155000 -25.653000 0
M  V30 14 C -15.841000 26.382000 -25.513000 0
M  V30 15 C -14.839000 22.893000 -26.511000 0
M  V30 16 C -16.465000 22.780000 -24.765000 0
M  V30 17 C -14.865000 24.260000 -26.480000 0
M  V30 18 C -12.162000 23.427000 -29.002000 0 CFG=1
M  V30 19 C -16.521000 24.196000 -24.697000 0
M  V30 20 C -15.724000 24.972000 -25.582000 0
M  V30 21 H -10.151000 21.173800 -27.695200 0
M  V30 22 H -10.962300 23.791900 -30.663600 0
M  V30 23 H -11.544300 25.156800 -29.981600 0
M  V30 24 H -10.315300 24.349100 -29.271600 0
M  V30 25 H -10.090700 22.654900 -25.925800 0
M  V30 26 H -11.609700 22.087000 -26.117100 0
M  V30 27 H -16.738000 27.934200 -24.550000 0
M  V30 28 H -12.398800 21.482400 -28.307600 0
M  V30 29 H -11.396400 21.587200 -29.592500 0
M  V30 30 H -17.894500 24.370500 -23.139900 0
M  V30 31 H -11.770800 24.392700 -25.809100 0
M  V30 32 H -10.650900 24.667000 -26.965600 0
M  V30 33 H -15.616400 21.155900 -25.686700 0
M  V30 34 H -15.322500 26.964000 -26.139500 0
M  V30 35 H -14.237300 22.422200 -27.156200 0
M  V30 36 H -17.037000 22.233500 -24.153300 0
M  V30 37 H -13.008700 23.367200 -29.530700 0
M  V30 38 H -9.818900 22.676100 -28.242600 0
M  V30 END ATOM
M  V30 BEGIN BOND
M  V30 1 2 1 2
M  V30 2 2 1 3
M  V30 3 1 1 6 CFG=3
M  V30 4 1 1 17
M  V30 5 1 4 8
M  V30 6 1 4 10
M  V30 7 2 5 9
M  V30 8 1 5 11
M  V30 9 1 6 12
M  V30 10 1 6 18
M  V30 11 1 7 18
M  V30 12 1 8 12
M  V30 13 1 9 14
M  V30 14 1 10 18
M  V30 15 2 11 19
M  V30 16 1 13 15
M  V30 17 2 13 16
M  V30 18 2 14 20
M  V30 19 2 15 17
M  V30 20 1 16 19
M  V30 21 1 17 20
M  V30 22 1 19 20
M  V30 23 1 4 21 CFG=1
M  V30 24 1 7 22 CFG=3
M  V30 25 1 7 23
M  V30 26 1 7 24
M  V30 27 1 8 25 CFG=1
M  V30 28 1 8 26
M  V30 29 1 9 27
M  V30 30 1 10 28 CFG=1
M  V30 31 1 10 29
M  V30 32 1 11 30
M  V30 33 1 12 31 CFG=1
M  V30 34 1 12 32
M  V30 35 1 13 33
M  V30 36 1 14 34
M  V30 37 1 15 35
M  V30 38 1 16 36
M  V30 39 1 18 37 CFG=3
M  V30 40 1 4 38
M  V30 END BOND
M  V30 END CTAB
M  END
>  <Ligand_Instance>  (238) 
5LCU_IQP_A_401

>  <Dataset>  (238) 
PDB

>  <PDB_ID>  (238) 
5LCU

>  <Chain>  (238) 
A

>  <Resi>  (238) 
401

>  <Num_Resolved_Atoms>  (238) 
20

>  <Num_H_Atoms_ProtBoundConf>  (238) 
18

>  <Pocket>  (238) 
A

>  <SMILES>  (238) 
C[C@H]1CNCC[N@]1S(=O)(=O)c2cccc3c2ccnc3

>  <Name>  (238) 
1-(5-ISOQUINOLINESULFONYL)-2-METHYLPIPERAZINE

>  <Num_Heavy_Atoms>  (238) 
20

>  <Num_Not_Resolved_Atoms>  (238) 
0

>  <ATP_Site>  (238) 
True

>  <Peripheral>  (238) 
False

>  <Standardized_SMILES>  (238) 
[H]C1=NC([H])=C2C([H])=C([H])C([H])=C(S(=O)(=O)N3C([H])([H])C([H])([H])[N+]([H])([H])C([H])([H])[C@]3([H])C([H])([H])[H])C2=C1[H]

$$$$
IQU
     RDKit          3D

  0  0  0  0  0  0  0  0  0  0999 V3000
M  V30 BEGIN CTAB
M  V30 COUNTS 31 32 0 0 0
M  V30 BEGIN ATOM
M  V30 1 S 13.017000 -23.897000 -27.953000 0 CFG=2
M  V30 2 O 13.768000 -24.073000 -29.154000 0
M  V30 3 O 12.540000 -25.049000 -27.245000 0
M  V30 4 N 8.773000 -23.101000 -28.967000 0 CFG=1 CHG=1
M  V30 5 N 11.707000 -23.032000 -28.353000 0
M  V30 6 N 16.745000 -24.653000 -24.089000 0
M  V30 7 C 9.434000 -22.144000 -28.034000 0 CFG=2
M  V30 8 C 10.648000 -22.766000 -27.372000 0 CFG=2
M  V30 9 C 16.020000 -25.429000 -24.912000 0
M  V30 10 C 16.592000 -23.340000 -24.193000 0
M  V30 11 C 14.681000 -20.757000 -26.105000 0
M  V30 12 C 15.130000 -24.949000 -25.827000 0
M  V30 13 C 13.901000 -21.572000 -26.917000 0
M  V30 14 C 15.562000 -21.302000 -25.211000 0
M  V30 15 C 14.016000 -22.932000 -26.851000 0
M  V30 16 C 15.707000 -22.711000 -25.101000 0
M  V30 17 C 14.933000 -23.556000 -25.945000 0
M  V30 18 H 7.978200 -22.662400 -29.386500 0
M  V30 19 H 9.419600 -23.371600 -29.680200 0
M  V30 20 H 12.038500 -22.140600 -28.662200 0
M  V30 21 H 8.780100 -21.874700 -27.327000 0
M  V30 22 H 9.721800 -21.335500 -28.547300 0
M  V30 23 H 10.997600 -22.138800 -26.676000 0
M  V30 24 H 10.379200 -23.626900 -26.940100 0
M  V30 25 H 16.140500 -26.419800 -24.849700 0
M  V30 26 H 17.137100 -22.756500 -23.591000 0
M  V30 27 H 14.597500 -19.762900 -26.174800 0
M  V30 28 H 14.619700 -25.580200 -26.411100 0
M  V30 29 H 13.250400 -21.159700 -27.554700 0
M  V30 30 H 16.110000 -20.701700 -24.628500 0
M  V30 31 H 8.477900 -23.910800 -28.460000 0
M  V30 END ATOM
M  V30 BEGIN BOND
M  V30 1 2 1 2
M  V30 2 2 1 3
M  V30 3 1 1 5 CFG=3
M  V30 4 1 1 15
M  V30 5 1 4 7
M  V30 6 1 5 8
M  V30 7 2 6 9
M  V30 8 1 6 10
M  V30 9 1 7 8
M  V30 10 1 9 12
M  V30 11 2 10 16
M  V30 12 1 11 13
M  V30 13 2 11 14
M  V30 14 2 12 17
M  V30 15 2 13 15
M  V30 16 1 14 16
M  V30 17 1 15 17
M  V30 18 1 16 17
M  V30 19 1 4 18 CFG=3
M  V30 20 1 4 19
M  V30 21 1 5 20
M  V30 22 1 7 21 CFG=1
M  V30 23 1 7 22
M  V30 24 1 8 23 CFG=1
M  V30 25 1 8 24
M  V30 26 1 9 25
M  V30 27 1 10 26
M  V30 28 1 11 27
M  V30 29 1 12 28
M  V30 30 1 13 29
M  V30 31 1 14 30
M  V30 32 1 4 31
M  V30 END BOND
M  V30 END CTAB
M  END
>  <Ligand_Instance>  (239) 
5M0B_IQU_A_401

>  <Dataset>  (239) 
PDB

>  <PDB_ID>  (239) 
5M0B

>  <Chain>  (239) 
A

>  <Resi>  (239) 
401

>  <Num_Resolved_Atoms>  (239) 
17

>  <Num_H_Atoms_ProtBoundConf>  (239) 
14

>  <Pocket>  (239) 
A

>  <SMILES>  (239) 
c1cc2cnccc2c(c1)S(=O)(=O)NCCN

>  <Name>  (239) 
N-(2-AMINOETHYL)ISOQUINOLINE-5-SULFONAMIDE

>  <Num_Heavy_Atoms>  (239) 
17

>  <Num_Not_Resolved_Atoms>  (239) 
0

>  <ATP_Site>  (239) 
True

>  <Peripheral>  (239) 
False

>  <Standardized_SMILES>  (239) 
[H]C1=NC([H])=C2C([H])=C([H])C([H])=C(S(=O)(=O)N([H])C([H])([H])C([H])([H])[N+]([H])([H])[H])C2=C1[H]

$$$$
IQU
     RDKit          3D

  0  0  0  0  0  0  0  0  0  0999 V3000
M  V30 BEGIN CTAB
M  V30 COUNTS 31 32 0 0 0
M  V30 BEGIN ATOM
M  V30 1 S -12.930000 -25.805000 26.965000 0 CFG=2
M  V30 2 O -12.434000 -24.801000 27.858000 0
M  V30 3 O -13.534000 -26.984000 27.486000 0
M  V30 4 N -8.964000 -23.949000 26.960000 0 CFG=1 CHG=1
M  V30 5 N -11.679000 -26.279000 26.058000 0
M  V30 6 N -16.607000 -26.881000 23.094000 0
M  V30 7 C -9.580000 -25.289000 26.863000 0 CFG=2
M  V30 8 C -10.608000 -25.339000 25.753000 0 CFG=2
M  V30 9 C -15.781000 -27.599000 23.879000 0
M  V30 10 C -16.587000 -25.560000 23.232000 0
M  V30 11 C -14.853000 -22.843000 25.108000 0
M  V30 12 C -14.953000 -27.060000 24.817000 0
M  V30 13 C -14.025000 -23.585000 25.931000 0
M  V30 14 C -15.700000 -23.458000 24.239000 0
M  V30 15 C -14.039000 -24.952000 25.878000 0
M  V30 16 C -15.750000 -24.871000 24.145000 0
M  V30 17 C -14.905000 -25.653000 24.976000 0
M  V30 18 H -8.697200 -23.772600 27.907500 0
M  V30 19 H -8.155100 -23.910700 26.373300 0
M  V30 20 H -11.258100 -27.054800 26.528100 0
M  V30 21 H -10.026200 -25.506600 27.731100 0
M  V30 22 H -8.865800 -25.963800 26.677000 0
M  V30 23 H -11.000600 -24.427200 25.632500 0
M  V30 24 H -10.158100 -25.622800 24.906200 0
M  V30 25 H -15.775100 -28.592600 23.765900 0
M  V30 26 H -17.199900 -25.018600 22.656600 0
M  V30 27 H -14.828700 -21.844300 25.152300 0
M  V30 28 H -14.384300 -27.652000 25.388100 0
M  V30 29 H -13.412000 -23.119000 26.569100 0
M  V30 30 H -16.296400 -22.904500 23.657700 0
M  V30 31 H -9.622900 -23.257100 26.664900 0
M  V30 END ATOM
M  V30 BEGIN BOND
M  V30 1 2 1 2
M  V30 2 2 1 3
M  V30 3 1 1 5 CFG=3
M  V30 4 1 1 15
M  V30 5 1 4 7
M  V30 6 1 5 8
M  V30 7 2 6 9
M  V30 8 1 6 10
M  V30 9 1 7 8
M  V30 10 1 9 12
M  V30 11 2 10 16
M  V30 12 1 11 13
M  V30 13 2 11 14
M  V30 14 2 12 17
M  V30 15 2 13 15
M  V30 16 1 14 16
M  V30 17 1 15 17
M  V30 18 1 16 17
M  V30 19 1 4 18 CFG=1
M  V30 20 1 4 19
M  V30 21 1 5 20
M  V30 22 1 7 21 CFG=1
M  V30 23 1 7 22
M  V30 24 1 8 23 CFG=3
M  V30 25 1 8 24
M  V30 26 1 9 25
M  V30 27 1 10 26
M  V30 28 1 11 27
M  V30 29 1 12 28
M  V30 30 1 13 29
M  V30 31 1 14 30
M  V30 32 1 4 31
M  V30 END BOND
M  V30 END CTAB
M  END
>  <Ligand_Instance>  (240) 
6YNB_IQU_A_401

>  <Dataset>  (240) 
PDB

>  <PDB_ID>  (240) 
6YNB

>  <Chain>  (240) 
A

>  <Resi>  (240) 
401

>  <Num_Resolved_Atoms>  (240) 
17

>  <Num_H_Atoms_ProtBoundConf>  (240) 
14

>  <Pocket>  (240) 
A

>  <SMILES>  (240) 
c1cc2cnccc2c(c1)S(=O)(=O)NCCN

>  <Name>  (240) 
N-(2-AMINOETHYL)ISOQUINOLINE-5-SULFONAMIDE

>  <Num_Heavy_Atoms>  (240) 
17

>  <Num_Not_Resolved_Atoms>  (240) 
0

>  <ATP_Site>  (240) 
True

>  <Peripheral>  (240) 
False

>  <Standardized_SMILES>  (240) 
[H]C1=NC([H])=C2C([H])=C([H])C([H])=C(S(=O)(=O)N([H])C([H])([H])C([H])([H])[N+]([H])([H])[H])C2=C1[H]

$$$$
ISQ
     RDKit          3D

  0  0  0  0  0  0  0  0  0  0999 V3000
M  V30 BEGIN CTAB
M  V30 COUNTS 17 18 0 0 0
M  V30 BEGIN ATOM
M  V30 1 N -33.498000 9.833000 4.191000 0
M  V30 2 C -33.229000 9.795000 2.881000 0
M  V30 3 C -28.744000 10.147000 5.036000 0
M  V30 4 C -28.492000 10.082000 3.677000 0
M  V30 5 C -32.473000 9.927000 5.025000 0
M  V30 6 C -31.972000 9.840000 2.355000 0
M  V30 7 C -30.026000 10.103000 5.508000 0
M  V30 8 C -29.520000 9.985000 2.784000 0
M  V30 9 C -31.118000 9.995000 4.616000 0
M  V30 10 C -30.865000 9.943000 3.230000 0
M  V30 11 H -33.999400 9.729400 2.246900 0
M  V30 12 H -27.981700 10.226800 5.678300 0
M  V30 13 H -27.548600 10.106300 3.346100 0
M  V30 14 H -32.667900 9.951500 6.005500 0
M  V30 15 H -31.834500 9.800800 1.365300 0
M  V30 16 H -30.193200 10.147600 6.492900 0
M  V30 17 H -29.322100 9.943100 1.804700 0
M  V30 END ATOM
M  V30 BEGIN BOND
M  V30 1 2 1 2
M  V30 2 1 1 5
M  V30 3 1 2 6
M  V30 4 1 3 4
M  V30 5 2 3 7
M  V30 6 2 4 8
M  V30 7 2 5 9
M  V30 8 2 6 10
M  V30 9 1 7 9
M  V30 10 1 8 10
M  V30 11 1 9 10
M  V30 12 1 2 11
M  V30 13 1 3 12
M  V30 14 1 4 13
M  V30 15 1 5 14
M  V30 16 1 6 15
M  V30 17 1 7 16
M  V30 18 1 8 17
M  V30 END BOND
M  V30 END CTAB
M  END
>  <Ligand_Instance>  (241) 
6F14_ISQ_A_401

>  <Dataset>  (241) 
PDB

>  <PDB_ID>  (241) 
6F14

>  <Chain>  (241) 
A

>  <Resi>  (241) 
401

>  <Num_Resolved_Atoms>  (241) 
10

>  <Num_H_Atoms_ProtBoundConf>  (241) 
7

>  <Pocket>  (241) 
A

>  <SMILES>  (241) 
c1ccc2cnccc2c1

>  <Name>  (241) 
ISOQUINOLINE

>  <Num_Heavy_Atoms>  (241) 
10

>  <Num_Not_Resolved_Atoms>  (241) 
0

>  <ATP_Site>  (241) 
True

>  <Peripheral>  (241) 
False

>  <Standardized_SMILES>  (241) 
[H]C1=NC([H])=C2C([H])=C([H])C([H])=C([H])C2=C1[H]

$$$$
ISQ
     RDKit          3D

  0  0  0  0  0  0  0  0  0  0999 V3000
M  V30 BEGIN CTAB
M  V30 COUNTS 17 18 0 0 0
M  V30 BEGIN ATOM
M  V30 1 N 16.966000 2.618000 20.941000 0
M  V30 2 C 16.713000 3.927000 20.762000 0
M  V30 3 C 12.449000 1.675000 19.508000 0
M  V30 4 C 12.213000 3.024000 19.338000 0
M  V30 5 C 16.005000 1.761000 20.628000 0
M  V30 6 C 15.531000 4.419000 20.299000 0
M  V30 7 C 13.681000 1.228000 19.900000 0
M  V30 8 C 13.202000 3.937000 19.565000 0
M  V30 9 C 14.730000 2.137000 20.147000 0
M  V30 10 C 14.489000 3.521000 19.982000 0
M  V30 11 H 17.438200 4.579200 20.982700 0
M  V30 12 H 11.712900 1.018500 19.343200 0
M  V30 13 H 11.308900 3.335600 19.045700 0
M  V30 14 H 16.193900 0.785300 20.739200 0
M  V30 15 H 15.402600 5.404100 20.184900 0
M  V30 16 H 13.839100 0.247000 20.012500 0
M  V30 17 H 13.015100 4.910800 19.435200 0
M  V30 END ATOM
M  V30 BEGIN BOND
M  V30 1 2 1 2
M  V30 2 1 1 5
M  V30 3 1 2 6
M  V30 4 1 3 4
M  V30 5 2 3 7
M  V30 6 2 4 8
M  V30 7 2 5 9
M  V30 8 2 6 10
M  V30 9 1 7 9
M  V30 10 1 8 10
M  V30 11 1 9 10
M  V30 12 1 2 11
M  V30 13 1 3 12
M  V30 14 1 4 13
M  V30 15 1 5 14
M  V30 16 1 6 15
M  V30 17 1 7 16
M  V30 18 1 8 17
M  V30 END BOND
M  V30 END CTAB
M  END
>  <Ligand_Instance>  (242) 
6YPP_ISQ_A_401

>  <Dataset>  (242) 
PDB

>  <PDB_ID>  (242) 
6YPP

>  <Chain>  (242) 
A

>  <Resi>  (242) 
401

>  <Num_Resolved_Atoms>  (242) 
10

>  <Num_H_Atoms_ProtBoundConf>  (242) 
7

>  <Pocket>  (242) 
A

>  <SMILES>  (242) 
c1ccc2cnccc2c1

>  <Name>  (242) 
ISOQUINOLINE

>  <Num_Heavy_Atoms>  (242) 
10

>  <Num_Not_Resolved_Atoms>  (242) 
0

>  <ATP_Site>  (242) 
True

>  <Peripheral>  (242) 
False

>  <Standardized_SMILES>  (242) 
[H]C1=NC([H])=C2C([H])=C([H])C([H])=C([H])C2=C1[H]

$$$$
J0G
     RDKit          3D

  0  0  0  0  0  0  0  0  0  0999 V3000
M  V30 BEGIN CTAB
M  V30 COUNTS 56 58 0 0 0
M  V30 BEGIN ATOM
M  V30 1 O -5.311000 12.001000 -14.162000 0
M  V30 2 O 0.737000 13.241000 -11.530000 0
M  V30 3 N -3.714000 6.340000 -16.590000 0 CFG=1 CHG=1
M  V30 4 N -12.351000 6.375000 -12.791000 0
M  V30 5 N -5.718000 8.332000 -15.744000 0
M  V30 6 N -3.952000 10.127000 -14.050000 0
M  V30 7 C 0.988000 14.041000 -12.685000 0 CFG=1
M  V30 8 C -1.690000 9.980000 -14.925000 0 CFG=1
M  V30 9 C -4.803000 6.811000 -17.425000 0 CFG=2
M  V30 10 C -5.986000 7.141000 -16.541000 0 CFG=2
M  V30 11 C -12.310000 7.709000 -12.881000 0
M  V30 12 C -11.182000 5.743000 -12.960000 0
M  V30 13 C -1.773000 10.847000 -10.495000 0
M  V30 14 C -0.730000 11.747000 -10.488000 0
M  V30 15 C -11.164000 8.437000 -13.124000 0
M  V30 16 C -9.982000 6.383000 -13.205000 0
M  V30 17 C -2.421000 10.550000 -11.674000 0
M  V30 18 C -8.455000 9.640000 -12.801000 0
M  V30 19 C -7.294000 10.345000 -13.025000 0
M  V30 20 C -0.995000 12.059000 -12.844000 0
M  V30 21 C -7.815000 8.093000 -14.489000 0
M  V30 22 C -5.172000 10.783000 -14.087000 0
M  V30 23 C -0.344000 12.366000 -11.660000 0
M  V30 24 C -2.686000 10.836000 -14.164000 0 CFG=2
M  V30 25 C -6.630000 8.785000 -14.743000 0
M  V30 26 C -2.038000 11.155000 -12.852000 0
M  V30 27 C -9.966000 7.764000 -13.287000 0
M  V30 28 C -8.729000 8.501000 -13.531000 0
M  V30 29 C -6.383000 9.926000 -13.976000 0
M  V30 30 H -3.777600 5.347300 -16.487900 0
M  V30 31 H -2.840800 6.576000 -17.016500 0
M  V30 32 H -4.874100 8.844600 -15.902400 0
M  V30 33 H -3.941000 9.133000 -13.941300 0
M  V30 34 H 1.772400 14.637100 -12.513600 0
M  V30 35 H 1.184700 13.447400 -13.465300 0
M  V30 36 H 0.182800 14.599100 -12.885400 0
M  V30 37 H -0.821000 10.468700 -15.002300 0
M  V30 38 H -1.546500 9.120200 -14.434900 0
M  V30 39 H -2.046400 9.787100 -15.839200 0
M  V30 40 H -5.059300 6.097800 -18.077400 0
M  V30 41 H -4.515800 7.629800 -17.922000 0
M  V30 42 H -6.788900 7.303700 -17.114500 0
M  V30 43 H -6.163900 6.370000 -15.929400 0
M  V30 44 H -13.166700 8.211500 -12.764400 0
M  V30 45 H -11.177400 4.744500 -12.905400 0
M  V30 46 H -2.060100 10.408700 -9.643200 0
M  V30 47 H -0.252400 11.952000 -9.633700 0
M  V30 48 H -11.198300 9.434800 -13.181400 0
M  V30 49 H -9.139500 5.856900 -13.321000 0
M  V30 50 H -3.173700 9.891600 -11.675200 0
M  V30 51 H -9.102400 9.954300 -12.106700 0
M  V30 52 H -7.107500 11.170800 -12.492800 0
M  V30 53 H -0.707700 12.494600 -13.697100 0
M  V30 54 H -8.012500 7.269000 -15.020100 0
M  V30 55 H -2.834600 11.686800 -14.668000 0
M  V30 56 H -3.773000 6.772100 -15.690100 0
M  V30 END ATOM
M  V30 BEGIN BOND
M  V30 1 2 1 22
M  V30 2 1 2 7
M  V30 3 1 2 23
M  V30 4 1 3 9
M  V30 5 2 4 11
M  V30 6 1 4 12
M  V30 7 1 5 10
M  V30 8 1 5 25
M  V30 9 1 6 22
M  V30 10 1 6 24
M  V30 11 1 8 24
M  V30 12 1 9 10
M  V30 13 1 11 15
M  V30 14 2 12 16
M  V30 15 2 13 14
M  V30 16 1 13 17
M  V30 17 1 14 23
M  V30 18 2 15 27
M  V30 19 1 16 27
M  V30 20 2 17 26
M  V30 21 1 18 19
M  V30 22 2 18 28
M  V30 23 2 19 29
M  V30 24 2 20 23
M  V30 25 1 20 26
M  V30 26 2 21 25
M  V30 27 1 21 28
M  V30 28 1 22 29
M  V30 29 1 24 26
M  V30 30 1 25 29
M  V30 31 1 27 28
M  V30 32 1 3 30 CFG=1
M  V30 33 1 3 31
M  V30 34 1 5 32
M  V30 35 1 6 33
M  V30 36 1 7 34 CFG=1
M  V30 37 1 7 35
M  V30 38 1 7 36
M  V30 39 1 8 37 CFG=3
M  V30 40 1 8 38
M  V30 41 1 8 39
M  V30 42 1 9 40 CFG=3
M  V30 43 1 9 41
M  V30 44 1 10 42 CFG=3
M  V30 45 1 10 43
M  V30 46 1 11 44
M  V30 47 1 12 45
M  V30 48 1 13 46
M  V30 49 1 14 47
M  V30 50 1 15 48
M  V30 51 1 16 49
M  V30 52 1 17 50
M  V30 53 1 18 51
M  V30 54 1 19 52
M  V30 55 1 20 53
M  V30 56 1 21 54
M  V30 57 1 24 55 CFG=3
M  V30 58 1 3 56
M  V30 END BOND
M  V30 END CTAB
M  END
>  <Ligand_Instance>  (243) 
6E99_J0G_A_601

>  <Dataset>  (243) 
PDB

>  <PDB_ID>  (243) 
6E99

>  <Chain>  (243) 
A

>  <Resi>  (243) 
601

>  <Num_Resolved_Atoms>  (243) 
29

>  <Num_H_Atoms_ProtBoundConf>  (243) 
27

>  <Pocket>  (243) 
A

>  <SMILES>  (243) 
C[C@H](c1cccc(c1)OC)NC(=O)c2ccc(cc2NCCN)c3ccncc3

>  <Name>  (243) 
2-[(2-aminoethyl)amino]-N-[(1R)-1-(3-methoxyphenyl)ethyl]-4-(pyridin-4-yl)benzamide

>  <Num_Heavy_Atoms>  (243) 
29

>  <Num_Not_Resolved_Atoms>  (243) 
0

>  <ATP_Site>  (243) 
True

>  <Peripheral>  (243) 
False

>  <Standardized_SMILES>  (243) 
[H]C1=NC([H])=C([H])C(C2=C([H])C([H])=C(C(=O)N([H])[C@@]([H])(C3=C([H])C([H])=C([H])C(OC([H])([H])[H])=C3[H])C([H])([H])[H])C(N([H])C([H])([H])C([H])([H])[N+]([H])([H])[H])=C2[H])=C1[H]

$$$$
J0P
     RDKit          3D

  0  0  0  0  0  0  0  0  0  0999 V3000
M  V30 BEGIN CTAB
M  V30 COUNTS 44 47 0 0 0
M  V30 BEGIN ATOM
M  V30 1 O -26.296000 -10.134000 1.377000 0
M  V30 2 O -19.674000 -13.285000 1.139000 0
M  V30 3 O -21.041000 -10.770000 0.966000 0
M  V30 4 N -33.167000 -9.975000 -4.453000 0
M  V30 5 N -24.950000 -10.643000 -0.483000 0
M  V30 6 C -19.423000 -12.190000 2.011000 0 CFG=2
M  V30 7 C -19.652000 -10.925000 1.237000 0 CFG=2
M  V30 8 C -33.108000 -9.715000 -3.143000 0
M  V30 9 C -32.005000 -10.318000 -5.021000 0
M  V30 10 C -23.000000 -14.330000 0.107000 0
M  V30 11 C -23.681000 -10.610000 0.200000 0 CFG=2
M  V30 12 C -21.680000 -14.362000 0.486000 0
M  V30 13 C -31.959000 -9.783000 -2.389000 0
M  V30 14 C -30.802000 -10.422000 -4.356000 0
M  V30 15 C -23.649000 -13.121000 0.004000 0
M  V30 16 C -27.296000 -9.585000 -1.870000 0
M  V30 17 C -28.443000 -10.955000 -0.267000 0
M  V30 18 C -28.431000 -9.568000 -2.648000 0
M  V30 19 C -29.571000 -10.913000 -1.044000 0
M  V30 20 C -26.131000 -10.336000 0.180000 0
M  V30 21 C -21.008000 -13.193000 0.760000 0
M  V30 22 C -21.661000 -11.981000 0.654000 0
M  V30 23 C -27.319000 -10.280000 -0.682000 0
M  V30 24 C -22.992000 -11.938000 0.280000 0
M  V30 25 C -30.778000 -10.152000 -3.005000 0
M  V30 26 C -29.571000 -10.223000 -2.235000 0
M  V30 27 H -24.980400 -10.891300 -1.451200 0
M  V30 28 H -18.477800 -12.223600 2.335800 0
M  V30 29 H -20.045600 -12.228000 2.792600 0
M  V30 30 H -19.329300 -10.144900 1.773000 0
M  V30 31 H -19.148200 -10.967900 0.374200 0
M  V30 32 H -33.955200 -9.453700 -2.680300 0
M  V30 33 H -32.009600 -10.513600 -6.001700 0
M  V30 34 H -23.486500 -15.180500 -0.092900 0
M  V30 35 H -23.834600 -10.279800 1.131300 0
M  V30 36 H -23.080500 -9.973800 -0.284500 0
M  V30 37 H -21.205400 -15.238800 0.563100 0
M  V30 38 H -31.978100 -9.569200 -1.412300 0
M  V30 39 H -29.968600 -10.686400 -4.841300 0
M  V30 40 H -24.609200 -13.098700 -0.274400 0
M  V30 41 H -26.470600 -9.101900 -2.162000 0
M  V30 42 H -28.437300 -11.469600 0.590400 0
M  V30 43 H -28.428500 -9.076900 -3.519100 0
M  V30 44 H -30.399100 -11.386500 -0.743900 0
M  V30 END ATOM
M  V30 BEGIN BOND
M  V30 1 2 1 20
M  V30 2 1 2 6
M  V30 3 1 2 21
M  V30 4 1 3 7
M  V30 5 1 3 22
M  V30 6 2 4 8
M  V30 7 1 4 9
M  V30 8 1 5 11
M  V30 9 1 5 20
M  V30 10 1 6 7
M  V30 11 1 8 13
M  V30 12 2 9 14
M  V30 13 2 10 12
M  V30 14 1 10 15
M  V30 15 1 11 24
M  V30 16 1 12 21
M  V30 17 2 13 25
M  V30 18 1 14 25
M  V30 19 2 15 24
M  V30 20 2 16 18
M  V30 21 1 16 23
M  V30 22 1 17 19
M  V30 23 2 17 23
M  V30 24 1 18 26
M  V30 25 2 19 26
M  V30 26 1 20 23
M  V30 27 2 21 22
M  V30 28 1 22 24
M  V30 29 1 25 26
M  V30 30 1 5 27
M  V30 31 1 6 28 CFG=1
M  V30 32 1 6 29
M  V30 33 1 7 30 CFG=1
M  V30 34 1 7 31
M  V30 35 1 8 32
M  V30 36 1 9 33
M  V30 37 1 10 34
M  V30 38 1 11 35 CFG=1
M  V30 39 1 11 36
M  V30 40 1 12 37
M  V30 41 1 13 38
M  V30 42 1 14 39
M  V30 43 1 15 40
M  V30 44 1 16 41
M  V30 45 1 17 42
M  V30 46 1 18 43
M  V30 47 1 19 44
M  V30 END BOND
M  V30 END CTAB
M  END
>  <Ligand_Instance>  (244) 
6E9L_J0P_A_401

>  <Dataset>  (244) 
PDB

>  <PDB_ID>  (244) 
6E9L

>  <Chain>  (244) 
A

>  <Resi>  (244) 
401

>  <Num_Resolved_Atoms>  (244) 
26

>  <Num_H_Atoms_ProtBoundConf>  (244) 
18

>  <Pocket>  (244) 
A

>  <SMILES>  (244) 
c1cc(c2c(c1)OCCO2)CNC(=O)c3ccc(cc3)c4ccncc4

>  <Name>  (244) 
N-[(2,3-dihydro-1,4-benzodioxin-5-yl)methyl]-4-(pyridin-4-yl)benzamide

>  <Num_Heavy_Atoms>  (244) 
26

>  <Num_Not_Resolved_Atoms>  (244) 
0

>  <ATP_Site>  (244) 
True

>  <Peripheral>  (244) 
False

>  <Standardized_SMILES>  (244) 
[H]C1=NC([H])=C([H])C(C2=C([H])C([H])=C(C(=O)N([H])C([H])([H])C3=C([H])C([H])=C([H])C4=C3OC([H])([H])C([H])([H])O4)C([H])=C2[H])=C1[H]

$$$$
J4B
     RDKit          3D

  0  0  0  0  0  0  0  0  0  0999 V3000
M  V30 BEGIN CTAB
M  V30 COUNTS 44 45 0 0 0
M  V30 BEGIN ATOM
M  V30 1 F -22.054000 -14.486000 1.384000 0
M  V30 2 F -23.368000 -13.593000 -3.021000 0
M  V30 3 O -26.362000 -10.725000 0.996000 0
M  V30 4 O -27.033000 -10.810000 -2.860000 0
M  V30 5 O -33.336000 -10.202000 -3.744000 0
M  V30 6 O -23.948000 -10.106000 1.802000 0
M  V30 7 N -26.137000 -9.491000 -0.836000 0
M  V30 8 N -27.484000 -9.413000 -1.199000 0
M  V30 9 C -28.246000 -11.046000 -5.928000 0 CFG=1
M  V30 10 C -31.588000 -9.911000 -5.863000 0 CFG=1
M  V30 11 C -28.640000 -9.754000 -5.220000 0 CFG=2
M  V30 12 C -31.622000 -10.270000 -2.075000 0
M  V30 13 C -30.274000 -10.279000 -1.754000 0
M  V30 14 C -22.710000 -14.040000 -0.828000 0
M  V30 15 C -23.039000 -12.395000 0.885000 0
M  V30 16 C -23.724000 -11.921000 -1.393000 0
M  V30 17 C -25.645000 -10.159000 0.208000 0
M  V30 18 C -27.862000 -10.099000 -2.308000 0
M  V30 19 C -22.584000 -13.640000 0.490000 0
M  V30 20 C -23.275000 -13.182000 -1.756000 0
M  V30 21 C -32.010000 -10.169000 -3.419000 0
M  V30 22 C -24.145000 -10.184000 0.392000 0 CFG=2
M  V30 23 C -31.058000 -10.032000 -4.443000 0
M  V30 24 C -23.628000 -11.533000 -0.052000 0
M  V30 25 C -29.288000 -10.086000 -2.758000 0
M  V30 26 C -29.678000 -9.980000 -4.128000 0
M  V30 27 H -34.024700 -10.297800 -3.025300 0
M  V30 28 H -24.349200 -9.258000 2.148200 0
M  V30 29 H -25.482200 -9.001200 -1.411600 0
M  V30 30 H -28.139200 -8.876800 -0.666700 0
M  V30 31 H -27.565500 -10.845700 -6.632800 0
M  V30 32 H -27.859400 -11.685700 -5.263600 0
M  V30 33 H -29.054700 -11.453800 -6.351800 0
M  V30 34 H -30.821200 -9.819400 -6.498300 0
M  V30 35 H -32.115400 -10.728900 -6.092800 0
M  V30 36 H -32.176000 -9.105000 -5.931800 0
M  V30 37 H -29.017800 -9.120600 -5.895400 0
M  V30 38 H -27.822500 -9.352400 -4.807200 0
M  V30 39 H -32.312300 -10.335000 -1.354400 0
M  V30 40 H -29.992400 -10.422900 -0.805300 0
M  V30 41 H -22.394000 -14.946000 -1.109700 0
M  V30 42 H -22.948100 -12.109200 1.839000 0
M  V30 43 H -24.109000 -11.300900 -2.076600 0
M  V30 44 H -23.695500 -9.432800 -0.091400 0
M  V30 END ATOM
M  V30 BEGIN BOND
M  V30 1 1 1 19
M  V30 2 1 2 20
M  V30 3 2 3 17
M  V30 4 2 4 18
M  V30 5 1 5 21
M  V30 6 1 6 22
M  V30 7 1 7 8
M  V30 8 1 7 17
M  V30 9 1 8 18
M  V30 10 1 9 11
M  V30 11 1 10 23
M  V30 12 1 11 26
M  V30 13 1 12 13
M  V30 14 2 12 21
M  V30 15 2 13 25
M  V30 16 2 14 19
M  V30 17 1 14 20
M  V30 18 1 15 19
M  V30 19 2 15 24
M  V30 20 2 16 20
M  V30 21 1 16 24
M  V30 22 1 17 22
M  V30 23 1 18 25
M  V30 24 1 21 23
M  V30 25 1 22 24
M  V30 26 2 23 26
M  V30 27 1 25 26
M  V30 28 1 5 27
M  V30 29 1 6 28
M  V30 30 1 7 29
M  V30 31 1 8 30
M  V30 32 1 9 31 CFG=3
M  V30 33 1 9 32
M  V30 34 1 9 33
M  V30 35 1 10 34 CFG=3
M  V30 36 1 10 35
M  V30 37 1 10 36
M  V30 38 1 11 37 CFG=3
M  V30 39 1 11 38
M  V30 40 1 12 39
M  V30 41 1 13 40
M  V30 42 1 14 41
M  V30 43 1 15 42
M  V30 44 1 16 43
M  V30 45 1 22 44 CFG=3
M  V30 END BOND
M  V30 END CTAB
M  END
>  <Ligand_Instance>  (245) 
6QJ7_J4B_A_401

>  <Dataset>  (245) 
PDB

>  <PDB_ID>  (245) 
6QJ7

>  <Chain>  (245) 
A

>  <Resi>  (245) 
401

>  <Num_Resolved_Atoms>  (245) 
26

>  <Num_H_Atoms_ProtBoundConf>  (245) 
18

>  <Pocket>  (245) 
A

>  <SMILES>  (245) 
CCc1c(c(ccc1C(=O)NNC(=O)[C@H](c2cc(cc(c2)F)F)O)O)C

>  <Name>  (245) 
~{N}'-[(2~{S})-2-[3,5-bis(fluoranyl)phenyl]-2-oxidanyl-ethanoyl]-2-ethyl-3-methyl-4-oxidanyl-benzohydrazide

>  <Num_Heavy_Atoms>  (245) 
26

>  <Num_Not_Resolved_Atoms>  (245) 
0

>  <ATP_Site>  (245) 
True

>  <Peripheral>  (245) 
False

>  <Standardized_SMILES>  (245) 
[H]OC1=C([H])C([H])=C(C(=O)N([H])N([H])C(=O)[C@@]([H])(O[H])C2=C([H])C(F)=C([H])C(F)=C2[H])C(C([H])([H])C([H])([H])[H])=C1C([H])([H])[H]

$$$$
L15
     RDKit          3D

  0  0  0  0  0  0  0  0  0  0999 V3000
M  V30 BEGIN CTAB
M  V30 COUNTS 31 32 0 0 0
M  V30 BEGIN ATOM
M  V30 1 N 10.736000 7.609000 2.627000 0 CFG=1 CHG=1
M  V30 2 N 2.795000 9.698000 4.299000 0
M  V30 3 N 2.825000 9.809000 2.944000 0
M  V30 4 C 4.399000 10.045000 1.027000 0 CFG=1
M  V30 5 C 11.294000 8.498000 3.682000 0 CFG=2
M  V30 6 C 4.083000 9.730000 4.690000 0
M  V30 7 C 10.708000 9.897000 3.687000 0 CFG=2
M  V30 8 C 8.475000 10.206000 4.813000 0
M  V30 9 C 8.514000 9.588000 2.503000 0
M  V30 10 C 7.093000 10.206000 4.789000 0
M  V30 11 C 7.137000 9.585000 2.479000 0
M  V30 12 C 4.107000 9.909000 2.480000 0
M  V30 13 C 9.200000 9.897000 3.669000 0
M  V30 14 C 6.409000 9.902000 3.619000 0
M  V30 15 C 4.941000 9.866000 3.596000 0
M  V30 16 H 11.284400 7.694100 1.795100 0
M  V30 17 H 10.756900 6.661000 2.944600 0
M  V30 18 H 5.387800 10.103600 0.889800 0
M  V30 19 H 4.041400 9.248700 0.539200 0
M  V30 20 H 3.964000 10.874100 0.675800 0
M  V30 21 H 12.281200 8.571600 3.540700 0
M  V30 22 H 11.115000 8.079400 4.572300 0
M  V30 23 H 4.386200 9.664800 5.640700 0
M  V30 24 H 11.037500 10.384700 2.878500 0
M  V30 25 H 11.018000 10.370700 4.511300 0
M  V30 26 H 8.956600 10.430100 5.660300 0
M  V30 27 H 9.024300 9.365400 1.672300 0
M  V30 28 H 6.582000 10.426400 5.619800 0
M  V30 29 H 6.656800 9.352500 1.633200 0
M  V30 30 H 9.791800 7.874600 2.432400 0
M  V30 31 H 2.012500 9.816500 2.361100 0
M  V30 END ATOM
M  V30 BEGIN BOND
M  V30 1 1 1 5
M  V30 2 1 2 3
M  V30 3 2 2 6
M  V30 4 1 3 12
M  V30 5 1 4 12
M  V30 6 1 5 7
M  V30 7 1 6 15
M  V30 8 1 7 13
M  V30 9 1 8 10
M  V30 10 2 8 13
M  V30 11 2 9 11
M  V30 12 1 9 13
M  V30 13 2 10 14
M  V30 14 1 11 14
M  V30 15 2 12 15
M  V30 16 1 14 15
M  V30 17 1 1 16 CFG=3
M  V30 18 1 1 17
M  V30 19 1 1 30
M  V30 20 1 4 18 CFG=1
M  V30 21 1 4 19
M  V30 22 1 4 20
M  V30 23 1 5 21 CFG=3
M  V30 24 1 5 22
M  V30 25 1 6 23
M  V30 26 1 7 24 CFG=3
M  V30 27 1 7 25
M  V30 28 1 8 26
M  V30 29 1 9 27
M  V30 30 1 10 28
M  V30 31 1 11 29
M  V30 32 1 3 31
M  V30 END BOND
M  V30 END CTAB
M  END
>  <Ligand_Instance>  (246) 
2UW4_L15_A_1351

>  <Dataset>  (246) 
PDB

>  <PDB_ID>  (246) 
2UW4

>  <Chain>  (246) 
A

>  <Resi>  (246) 
1351

>  <Num_Resolved_Atoms>  (246) 
15

>  <Num_H_Atoms_ProtBoundConf>  (246) 
16

>  <Pocket>  (246) 
A

>  <SMILES>  (246) 
Cc1c(c[nH]n1)c2ccc(cc2)CCN

>  <Name>  (246) 
2-[4-(3-METHYL-1H-PYRAZOL-4-YL)PHENYL]ETHANAMINE

>  <Num_Heavy_Atoms>  (246) 
15

>  <Num_Not_Resolved_Atoms>  (246) 
0

>  <ATP_Site>  (246) 
True

>  <Peripheral>  (246) 
False

>  <Standardized_SMILES>  (246) 
[H]C1=NN([H])C(C([H])([H])[H])=C1C1=C([H])C([H])=C(C([H])([H])C([H])([H])[N+]([H])([H])[H])C([H])=C1[H]

$$$$
L20
     RDKit          3D

  0  0  0  0  0  0  0  0  0  0999 V3000
M  V30 BEGIN CTAB
M  V30 COUNTS 54 58 0 0 0
M  V30 BEGIN ATOM
M  V30 1 O 11.846000 9.122000 1.432000 0
M  V30 2 N 13.678000 6.953000 1.009000 0 CFG=1 CHG=1
M  V30 3 N 3.291000 10.213000 3.952000 0
M  V30 4 N 3.047000 10.055000 2.633000 0
M  V30 5 N 9.794000 10.490000 -1.224000 0
M  V30 6 N 15.287000 10.640000 -0.680000 0
M  V30 7 C 5.266000 10.440000 5.525000 0 CFG=1
M  V30 8 C 11.978000 8.124000 2.435000 0 CFG=2
M  V30 9 C 10.820000 10.054000 -0.489000 0
M  V30 10 C 8.593000 10.450000 -0.635000 0
M  V30 11 C 15.369000 9.575000 0.216000 0
M  V30 12 C 13.260000 13.716000 0.123000 0
M  V30 13 C 12.840000 13.279000 1.407000 0
M  V30 14 C 14.080000 12.900000 -0.661000 0
M  V30 15 C 13.222000 12.046000 1.929000 0
M  V30 16 C 4.559000 9.868000 0.562000 0
M  V30 17 C 5.881000 9.878000 0.184000 0
M  V30 18 C 9.423000 9.497000 1.434000 0
M  V30 19 C 14.485000 8.909000 2.536000 0 CFG=2
M  V30 20 C 6.650000 10.137000 2.505000 0
M  V30 21 C 10.684000 9.548000 0.802000 0
M  V30 22 C 13.477000 7.706000 2.325000 0 CFG=2
M  V30 23 C 4.621000 10.265000 4.186000 0
M  V30 24 C 4.251000 10.017000 1.921000 0
M  V30 25 C 14.479000 11.651000 -0.126000 0
M  V30 26 C 8.330000 9.981000 0.668000 0
M  V30 27 C 14.642000 9.841000 1.387000 0
M  V30 28 C 6.939000 9.997000 1.145000 0
M  V30 29 C 5.313000 10.162000 2.907000 0
M  V30 30 C 14.059000 11.189000 1.186000 0
M  V30 31 H 14.635900 6.678500 0.925000 0
M  V30 32 H 13.096100 6.139800 0.998000 0
M  V30 33 H 2.137600 9.976500 2.224400 0
M  V30 34 H 15.731800 10.679500 -1.574800 0
M  V30 35 H 6.260300 10.444400 5.418000 0
M  V30 36 H 4.970100 11.306600 5.926800 0
M  V30 37 H 4.998600 9.685900 6.124900 0
M  V30 38 H 11.374700 7.348100 2.250700 0
M  V30 39 H 11.774900 8.496400 3.340600 0
M  V30 40 H 11.736500 10.092800 -0.887100 0
M  V30 41 H 7.813500 10.782100 -1.166100 0
M  V30 42 H 15.879100 8.731700 0.046600 0
M  V30 43 H 12.968700 14.608700 -0.220700 0
M  V30 44 H 12.251700 13.875200 1.953300 0
M  V30 45 H 14.375800 13.189100 -1.571500 0
M  V30 46 H 12.901400 11.767400 2.834300 0
M  V30 47 H 3.833700 9.756900 -0.117500 0
M  V30 48 H 6.110700 9.800300 -0.786100 0
M  V30 49 H 9.306900 9.142700 2.361900 0
M  V30 50 H 15.384100 8.521900 2.740400 0
M  V30 51 H 14.165300 9.441500 3.319800 0
M  V30 52 H 7.386100 10.217700 3.177000 0
M  V30 53 H 13.649400 7.051900 3.061500 0
M  V30 54 H 13.433400 7.548300 0.243600 0
M  V30 END ATOM
M  V30 BEGIN BOND
M  V30 1 1 1 8
M  V30 2 1 1 21
M  V30 3 1 2 22
M  V30 4 1 3 4
M  V30 5 2 3 23
M  V30 6 1 4 24
M  V30 7 2 5 9
M  V30 8 1 5 10
M  V30 9 1 6 11
M  V30 10 1 6 25
M  V30 11 1 7 23
M  V30 12 1 8 22
M  V30 13 1 9 21
M  V30 14 2 10 26
M  V30 15 2 11 27
M  V30 16 2 12 13
M  V30 17 1 12 14
M  V30 18 1 13 15
M  V30 19 2 14 25
M  V30 20 2 15 30
M  V30 21 1 16 17
M  V30 22 2 16 24
M  V30 23 2 17 28
M  V30 24 2 18 21
M  V30 25 1 18 26
M  V30 26 1 19 22
M  V30 27 1 19 27
M  V30 28 1 20 28
M  V30 29 2 20 29
M  V30 30 1 23 29
M  V30 31 1 24 29
M  V30 32 1 25 30
M  V30 33 1 26 28
M  V30 34 1 27 30
M  V30 35 1 2 31 CFG=3
M  V30 36 1 2 32
M  V30 37 1 4 33
M  V30 38 1 6 34
M  V30 39 1 7 35 CFG=3
M  V30 40 1 7 36
M  V30 41 1 7 37
M  V30 42 1 8 38 CFG=3
M  V30 43 1 8 39
M  V30 44 1 9 40
M  V30 45 1 10 41
M  V30 46 1 11 42
M  V30 47 1 12 43
M  V30 48 1 13 44
M  V30 49 1 14 45
M  V30 50 1 15 46
M  V30 51 1 16 47
M  V30 52 1 17 48
M  V30 53 1 18 49
M  V30 54 1 19 50 CFG=1
M  V30 55 1 19 51
M  V30 56 1 20 52
M  V30 57 1 22 53 CFG=1
M  V30 58 1 2 54
M  V30 END BOND
M  V30 END CTAB
M  END
>  <Ligand_Instance>  (247) 
2JDS_L20_A_1351

>  <Dataset>  (247) 
PDB

>  <PDB_ID>  (247) 
2JDS

>  <Chain>  (247) 
A

>  <Resi>  (247) 
1351

>  <Num_Resolved_Atoms>  (247) 
30

>  <Num_H_Atoms_ProtBoundConf>  (247) 
24

>  <Pocket>  (247) 
A

>  <SMILES>  (247) 
Cc1c2cc(ccc2[nH]n1)c3cc(cnc3)OC[C@H](Cc4c[nH]c5c4cccc5)N

>  <Name>  (247) 
(2S)-1-(1H-INDOL-3-YL)-3-{[5-(3-METHYL-1H-INDAZOL-5-YL)PYRIDIN-3-YL]OXY}PROPAN-2-AMINE

>  <Num_Heavy_Atoms>  (247) 
30

>  <Num_Not_Resolved_Atoms>  (247) 
0

>  <ATP_Site>  (247) 
True

>  <Peripheral>  (247) 
False

>  <Standardized_SMILES>  (247) 
[H]C1=NC([H])=C(C2=C([H])C([H])=C3C(=C2[H])C(C([H])([H])[H])=NN3[H])C([H])=C1OC([H])([H])[C@]([H])(C([H])([H])C1=C([H])N([H])C2=C([H])C([H])=C([H])C([H])=C21)[N+]([H])([H])[H]

$$$$
L20
     RDKit          3D

  0  0  0  0  0  0  0  0  0  0999 V3000
M  V30 BEGIN CTAB
M  V30 COUNTS 54 58 0 0 0
M  V30 BEGIN ATOM
M  V30 1 O 11.158000 8.846000 1.687000 0
M  V30 2 N 13.366000 7.254000 1.753000 0 CFG=1 CHG=1
M  V30 3 N 2.660000 9.543000 3.927000 0
M  V30 4 N 2.494000 9.532000 2.590000 0
M  V30 5 N 9.389000 10.754000 -0.851000 0
M  V30 6 N 11.412000 8.247000 7.186000 0
M  V30 7 C 4.630000 9.646000 5.483000 0 CFG=1
M  V30 8 C 11.035000 7.598000 2.361000 0 CFG=2
M  V30 9 C 10.362000 10.175000 -0.168000 0
M  V30 10 C 8.118000 10.609000 -0.438000 0
M  V30 11 C 12.413000 7.987000 6.265000 0
M  V30 12 C 8.545000 10.453000 6.338000 0
M  V30 13 C 8.944000 10.710000 5.006000 0
M  V30 14 C 9.297000 9.628000 7.146000 0
M  V30 15 C 10.113000 10.206000 4.459000 0
M  V30 16 C 3.982000 9.639000 0.515000 0
M  V30 17 C 5.330000 9.718000 0.200000 0
M  V30 18 C 8.798000 9.287000 1.452000 0
M  V30 19 C 12.971000 8.560000 3.847000 0 CFG=2
M  V30 20 C 6.038000 9.761000 2.541000 0
M  V30 21 C 10.112000 9.419000 0.986000 0
M  V30 22 C 12.458000 7.399000 2.927000 0 CFG=2
M  V30 23 C 3.982000 9.617000 4.162000 0
M  V30 24 C 3.674000 9.610000 1.901000 0
M  V30 25 C 10.470000 9.092000 6.609000 0
M  V30 26 C 7.761000 9.890000 0.736000 0
M  V30 27 C 12.155000 8.655000 5.068000 0
M  V30 28 C 6.362000 9.783000 1.168000 0
M  V30 29 C 4.693000 9.682000 2.908000 0
M  V30 30 C 10.914000 9.383000 5.254000 0
M  V30 31 H 14.273500 7.602000 1.988500 0
M  V30 32 H 13.434100 6.288500 1.501500 0
M  V30 33 H 1.599800 9.472900 2.146300 0
M  V30 34 H 11.372800 7.884900 8.117300 0
M  V30 35 H 5.621600 9.703300 5.366700 0
M  V30 36 H 4.307900 10.442400 5.994900 0
M  V30 37 H 4.400900 8.812100 5.985000 0
M  V30 38 H 10.790200 6.864800 1.726600 0
M  V30 39 H 10.355800 7.645700 3.093400 0
M  V30 40 H 11.304900 10.279500 -0.484200 0
M  V30 41 H 7.389600 11.026100 -0.981600 0
M  V30 42 H 13.207400 7.403600 6.434000 0
M  V30 43 H 7.711100 10.872900 6.696200 0
M  V30 44 H 8.356100 11.281100 4.433100 0
M  V30 45 H 9.013500 9.420600 8.082300 0
M  V30 46 H 10.376300 10.425700 3.519600 0
M  V30 47 H 3.272300 9.604700 -0.188600 0
M  V30 48 H 5.588400 9.729800 -0.766000 0
M  V30 49 H 8.604800 8.768700 2.285100 0
M  V30 50 H 12.915400 9.424200 3.346900 0
M  V30 51 H 13.921800 8.382200 4.100600 0
M  V30 52 H 6.755800 9.801100 3.236100 0
M  V30 53 H 12.476000 6.547000 3.450200 0
M  V30 54 H 12.999300 7.774300 0.981700 0
M  V30 END ATOM
M  V30 BEGIN BOND
M  V30 1 1 1 8
M  V30 2 1 1 21
M  V30 3 1 2 22
M  V30 4 1 3 4
M  V30 5 2 3 23
M  V30 6 1 4 24
M  V30 7 2 5 9
M  V30 8 1 5 10
M  V30 9 1 6 11
M  V30 10 1 6 25
M  V30 11 1 7 23
M  V30 12 1 8 22
M  V30 13 1 9 21
M  V30 14 2 10 26
M  V30 15 2 11 27
M  V30 16 2 12 13
M  V30 17 1 12 14
M  V30 18 1 13 15
M  V30 19 2 14 25
M  V30 20 2 15 30
M  V30 21 1 16 17
M  V30 22 2 16 24
M  V30 23 2 17 28
M  V30 24 2 18 21
M  V30 25 1 18 26
M  V30 26 1 19 22
M  V30 27 1 19 27
M  V30 28 1 20 28
M  V30 29 2 20 29
M  V30 30 1 23 29
M  V30 31 1 24 29
M  V30 32 1 25 30
M  V30 33 1 26 28
M  V30 34 1 27 30
M  V30 35 1 2 31 CFG=1
M  V30 36 1 2 32
M  V30 37 1 4 33
M  V30 38 1 6 34
M  V30 39 1 7 35 CFG=3
M  V30 40 1 7 36
M  V30 41 1 7 37
M  V30 42 1 8 38 CFG=3
M  V30 43 1 8 39
M  V30 44 1 9 40
M  V30 45 1 10 41
M  V30 46 1 11 42
M  V30 47 1 12 43
M  V30 48 1 13 44
M  V30 49 1 14 45
M  V30 50 1 15 46
M  V30 51 1 16 47
M  V30 52 1 17 48
M  V30 53 1 18 49
M  V30 54 1 19 50 CFG=3
M  V30 55 1 19 51
M  V30 56 1 20 52
M  V30 57 1 22 53 CFG=1
M  V30 58 1 2 54
M  V30 END BOND
M  V30 END CTAB
M  END
>  <Ligand_Instance>  (248) 
2JDV_L20_A_1351

>  <Dataset>  (248) 
PDB

>  <PDB_ID>  (248) 
2JDV

>  <Chain>  (248) 
A

>  <Resi>  (248) 
1351

>  <Num_Resolved_Atoms>  (248) 
30

>  <Num_H_Atoms_ProtBoundConf>  (248) 
24

>  <Pocket>  (248) 
A

>  <SMILES>  (248) 
Cc1c2cc(ccc2[nH]n1)c3cc(cnc3)OC[C@H](Cc4c[nH]c5c4cccc5)N

>  <Name>  (248) 
(2S)-1-(1H-INDOL-3-YL)-3-{[5-(3-METHYL-1H-INDAZOL-5-YL)PYRIDIN-3-YL]OXY}PROPAN-2-AMINE

>  <Num_Heavy_Atoms>  (248) 
30

>  <Num_Not_Resolved_Atoms>  (248) 
0

>  <ATP_Site>  (248) 
True

>  <Peripheral>  (248) 
False

>  <Standardized_SMILES>  (248) 
[H]C1=NC([H])=C(C2=C([H])C([H])=C3C(=C2[H])C(C([H])([H])[H])=NN3[H])C([H])=C1OC([H])([H])[C@]([H])(C([H])([H])C1=C([H])N([H])C2=C([H])C([H])=C([H])C([H])=C21)[N+]([H])([H])[H]

$$$$
L20
     RDKit          3D

  0  0  0  0  0  0  0  0  0  0999 V3000
M  V30 BEGIN CTAB
M  V30 COUNTS 54 58 0 0 0
M  V30 BEGIN ATOM
M  V30 1 O 11.900000 9.759000 2.948000 0
M  V30 2 N 15.030000 10.444000 1.171000 0 CFG=1 CHG=1
M  V30 3 N 3.345000 10.007000 4.153000 0
M  V30 4 N 3.140000 9.926000 2.825000 0
M  V30 5 N 10.378000 9.636000 -0.532000 0
M  V30 6 N 13.258000 14.532000 -0.960000 0
M  V30 7 C 5.222000 10.108000 5.813000 0 CFG=1
M  V30 8 C 13.365000 9.706000 2.820000 0 CFG=2
M  V30 9 C 11.325000 9.651000 0.463000 0
M  V30 10 C 9.051000 9.690000 -0.227000 0
M  V30 11 C 13.208000 14.171000 0.342000 0
M  V30 12 C 13.815000 11.997000 -3.746000 0
M  V30 13 C 13.914000 10.867000 -2.917000 0
M  V30 14 C 13.593000 13.281000 -3.147000 0
M  V30 15 C 13.789000 11.021000 -1.491000 0
M  V30 16 C 4.681000 9.799000 0.785000 0
M  V30 17 C 6.070000 9.772000 0.443000 0
M  V30 18 C 9.593000 9.788000 2.113000 0
M  V30 19 C 13.359000 12.204000 1.894000 0 CFG=2
M  V30 20 C 6.666000 9.903000 2.804000 0
M  V30 21 C 10.989000 9.729000 1.826000 0
M  V30 22 C 14.200000 10.952000 2.278000 0 CFG=2
M  V30 23 C 4.639000 10.020000 4.429000 0
M  V30 24 C 4.309000 9.878000 2.120000 0
M  V30 25 C 13.473000 13.422000 -1.756000 0
M  V30 26 C 8.581000 9.768000 1.104000 0
M  V30 27 C 13.390000 12.806000 0.488000 0
M  V30 28 C 7.104000 9.818000 1.445000 0
M  V30 29 C 5.322000 9.935000 3.155000 0
M  V30 30 C 13.569000 12.280000 -0.888000 0
M  V30 31 H 15.182900 11.175200 0.506200 0
M  V30 32 H 15.909200 10.130800 1.530100 0
M  V30 33 H 2.234000 9.903500 2.402300 0
M  V30 34 H 13.154400 15.467200 -1.298600 0
M  V30 35 H 6.220300 10.100400 5.755300 0
M  V30 36 H 4.919800 10.955800 6.248700 0
M  V30 37 H 4.913500 9.326300 6.355000 0
M  V30 38 H 13.567100 8.942700 2.206400 0
M  V30 39 H 13.720700 9.503500 3.732400 0
M  V30 40 H 12.290800 9.604600 0.208000 0
M  V30 41 H 8.384700 9.673900 -0.972500 0
M  V30 42 H 13.059200 14.806200 1.099900 0
M  V30 43 H 13.898100 11.907300 -4.738500 0
M  V30 44 H 14.070100 9.962700 -3.314400 0
M  V30 45 H 13.522500 14.089900 -3.730700 0
M  V30 46 H 13.860100 10.211200 -0.908600 0
M  V30 47 H 3.984300 9.761300 0.068600 0
M  V30 48 H 6.331000 9.719600 -0.520900 0
M  V30 49 H 9.307700 9.846400 3.069600 0
M  V30 50 H 13.643800 12.933200 2.516200 0
M  V30 51 H 12.404800 11.965500 2.074600 0
M  V30 52 H 7.353400 9.940800 3.529300 0
M  V30 53 H 14.823000 11.229200 3.009500 0
M  V30 54 H 14.561100 9.681300 0.725600 0
M  V30 END ATOM
M  V30 BEGIN BOND
M  V30 1 1 1 8
M  V30 2 1 1 21
M  V30 3 1 2 22
M  V30 4 1 3 4
M  V30 5 2 3 23
M  V30 6 1 4 24
M  V30 7 2 5 9
M  V30 8 1 5 10
M  V30 9 1 6 11
M  V30 10 1 6 25
M  V30 11 1 7 23
M  V30 12 1 8 22
M  V30 13 1 9 21
M  V30 14 2 10 26
M  V30 15 2 11 27
M  V30 16 2 12 13
M  V30 17 1 12 14
M  V30 18 1 13 15
M  V30 19 2 14 25
M  V30 20 2 15 30
M  V30 21 1 16 17
M  V30 22 2 16 24
M  V30 23 2 17 28
M  V30 24 2 18 21
M  V30 25 1 18 26
M  V30 26 1 19 22
M  V30 27 1 19 27
M  V30 28 1 20 28
M  V30 29 2 20 29
M  V30 30 1 23 29
M  V30 31 1 24 29
M  V30 32 1 25 30
M  V30 33 1 26 28
M  V30 34 1 27 30
M  V30 35 1 2 31 CFG=3
M  V30 36 1 2 32
M  V30 37 1 4 33
M  V30 38 1 6 34
M  V30 39 1 7 35 CFG=3
M  V30 40 1 7 36
M  V30 41 1 7 37
M  V30 42 1 8 38 CFG=3
M  V30 43 1 8 39
M  V30 44 1 9 40
M  V30 45 1 10 41
M  V30 46 1 11 42
M  V30 47 1 12 43
M  V30 48 1 13 44
M  V30 49 1 14 45
M  V30 50 1 15 46
M  V30 51 1 16 47
M  V30 52 1 17 48
M  V30 53 1 18 49
M  V30 54 1 19 50 CFG=1
M  V30 55 1 19 51
M  V30 56 1 20 52
M  V30 57 1 22 53 CFG=1
M  V30 58 1 2 54
M  V30 END BOND
M  V30 END CTAB
M  END
>  <Ligand_Instance>  (249) 
2UZU_L20_E_1351

>  <Dataset>  (249) 
PDB

>  <PDB_ID>  (249) 
2UZU

>  <Chain>  (249) 
E

>  <Resi>  (249) 
1351

>  <Num_Resolved_Atoms>  (249) 
30

>  <Num_H_Atoms_ProtBoundConf>  (249) 
24

>  <Pocket>  (249) 
A

>  <SMILES>  (249) 
Cc1c2cc(ccc2[nH]n1)c3cc(cnc3)OC[C@H](Cc4c[nH]c5c4cccc5)N

>  <Name>  (249) 
(2S)-1-(1H-INDOL-3-YL)-3-{[5-(3-METHYL-1H-INDAZOL-5-YL)PYRIDIN-3-YL]OXY}PROPAN-2-AMINE

>  <Num_Heavy_Atoms>  (249) 
30

>  <Num_Not_Resolved_Atoms>  (249) 
0

>  <ATP_Site>  (249) 
True

>  <Peripheral>  (249) 
False

>  <Standardized_SMILES>  (249) 
[H]C1=NC([H])=C(C2=C([H])C([H])=C3C(=C2[H])C(C([H])([H])[H])=NN3[H])C([H])=C1OC([H])([H])[C@]([H])(C([H])([H])C1=C([H])N([H])C2=C([H])C([H])=C([H])C([H])=C21)[N+]([H])([H])[H]

$$$$
L9L
     RDKit          3D

  0  0  0  0  0  0  0  0  0  0999 V3000
M  V30 BEGIN CTAB
M  V30 COUNTS 50 53 0 0 0
M  V30 BEGIN ATOM
M  V30 1 S 30.485000 3.324000 7.459000 0
M  V30 2 F 28.655000 3.799000 11.845000 0
M  V30 3 F 27.335000 2.290000 12.809000 0
M  V30 4 F 26.433000 3.647000 11.191000 0
M  V30 5 O 25.340000 8.490000 10.718000 0
M  V30 6 N 30.548000 -1.039000 5.366000 0 CFG=1 CHG=1
M  V30 7 N 31.903000 3.786000 5.327000 0
M  V30 8 N 32.041000 1.453000 6.144000 0
M  V30 9 N 26.581000 8.567000 8.835000 0
M  V30 10 C 31.202000 4.958000 5.564000 0
M  V30 11 C 31.490000 0.468000 7.071000 0 CFG=2
M  V30 12 C 27.838000 0.896000 8.295000 0
M  V30 13 C 29.561000 0.023000 9.960000 0
M  V30 14 C 28.041000 8.032000 6.896000 0
M  V30 15 C 28.943000 7.025000 6.434000 0
M  V30 16 C 27.418000 1.889000 9.258000 0
M  V30 17 C 29.146000 1.040000 10.890000 0
M  V30 18 C 29.406000 -0.917000 7.586000 0 CFG=2
M  V30 19 C 27.122000 6.833000 10.354000 0 CFG=2
M  V30 20 C 28.778000 5.738000 8.577000 0
M  V30 21 C 31.623000 2.836000 6.255000 0
M  V30 22 C 30.357000 4.860000 6.727000 0
M  V30 23 C 26.233000 8.043000 10.024000 0
M  V30 24 C 30.201000 -0.150000 6.522000 0 CFG=2
M  V30 25 C 28.907000 0.033000 8.673000 0
M  V30 26 C 27.523000 7.848000 8.233000 0
M  V30 27 C 29.360000 5.868000 7.227000 0
M  V30 28 C 27.871000 6.748000 9.043000 0
M  V30 29 C 28.029000 1.974000 10.596000 0
M  V30 30 C 27.565000 3.004000 11.688000 0 CFG=1
M  V30 31 H 29.713200 -1.449000 4.998400 0
M  V30 32 H 30.996100 -0.499400 4.653300 0
M  V30 33 H 32.697700 1.176800 5.442300 0
M  V30 34 H 26.179200 9.397900 8.450100 0
M  V30 35 H 31.274300 5.776500 4.994100 0
M  V30 36 H 31.291300 0.916000 7.942600 0
M  V30 37 H 32.163600 -0.256900 7.214800 0
M  V30 38 H 27.396800 0.818000 7.401000 0
M  V30 39 H 30.261800 -0.651600 10.191900 0
M  V30 40 H 27.784000 8.815200 6.329900 0
M  V30 41 H 29.313100 7.116700 5.509500 0
M  V30 42 H 26.695100 2.533900 9.010000 0
M  V30 43 H 29.625900 1.120600 11.763600 0
M  V30 44 H 29.995600 -1.610100 8.000600 0
M  V30 45 H 28.622000 -1.362000 7.153200 0
M  V30 46 H 26.585600 6.009000 10.536500 0
M  V30 47 H 27.731600 7.011800 11.126300 0
M  V30 48 H 29.011900 4.958400 9.157900 0
M  V30 49 H 29.624000 0.591500 6.179600 0
M  V30 50 H 31.166100 -1.761700 5.675100 0
M  V30 END ATOM
M  V30 BEGIN BOND
M  V30 1 1 1 21
M  V30 2 1 1 22
M  V30 3 1 30 2 CFG=1
M  V30 4 1 3 30
M  V30 5 1 4 30
M  V30 6 2 5 23
M  V30 7 1 6 24
M  V30 8 1 7 10
M  V30 9 2 7 21
M  V30 10 1 8 11
M  V30 11 1 8 21
M  V30 12 1 9 23
M  V30 13 1 9 26
M  V30 14 2 10 22
M  V30 15 1 11 24
M  V30 16 2 12 16
M  V30 17 1 12 25
M  V30 18 1 13 17
M  V30 19 2 13 25
M  V30 20 1 14 15
M  V30 21 2 14 26
M  V30 22 2 15 27
M  V30 23 1 16 29
M  V30 24 2 17 29
M  V30 25 1 18 24
M  V30 26 1 18 25
M  V30 27 1 19 23
M  V30 28 1 19 28
M  V30 29 1 20 27
M  V30 30 2 20 28
M  V30 31 1 22 27
M  V30 32 1 26 28
M  V30 33 1 29 30
M  V30 34 1 6 31 CFG=3
M  V30 35 1 6 32
M  V30 36 1 8 33
M  V30 37 1 9 34
M  V30 38 1 10 35
M  V30 39 1 11 36 CFG=1
M  V30 40 1 11 37
M  V30 41 1 12 38
M  V30 42 1 13 39
M  V30 43 1 14 40
M  V30 44 1 15 41
M  V30 45 1 16 42
M  V30 46 1 17 43
M  V30 47 1 18 44 CFG=1
M  V30 48 1 18 45
M  V30 49 1 19 46 CFG=1
M  V30 50 1 19 47
M  V30 51 1 20 48
M  V30 52 1 24 49 CFG=3
M  V30 53 1 6 50
M  V30 END BOND
M  V30 END CTAB
M  END
>  <Ligand_Instance>  (250) 
3L9L_L9L_A_351

>  <Dataset>  (250) 
PDB

>  <PDB_ID>  (250) 
3L9L

>  <Chain>  (250) 
A

>  <Resi>  (250) 
351

>  <Num_Resolved_Atoms>  (250) 
30

>  <Num_H_Atoms_ProtBoundConf>  (250) 
20

>  <Pocket>  (250) 
A

>  <SMILES>  (250) 
c1cc(ccc1C[C@@H](CNc2ncc(s2)c3ccc4c(c3)CC(=O)N4)N)C(F)(F)F

>  <Name>  (250) 
5-[2-({(2S)-2-amino-3-[4-(trifluoromethyl)phenyl]propyl}amino)-1,3-thiazol-5-yl]-1,3-dihydro-2H-indol-2-one

>  <Num_Heavy_Atoms>  (250) 
30

>  <Num_Not_Resolved_Atoms>  (250) 
0

>  <ATP_Site>  (250) 
True

>  <Peripheral>  (250) 
False

>  <Standardized_SMILES>  (250) 
[H]C1=C(C2=C([H])C([H])=C3C(=C2[H])C([H])([H])C(=O)N3[H])SC(N([H])C([H])([H])[C@]([H])(C([H])([H])C2=C([H])C([H])=C(C(F)(F)F)C([H])=C2[H])[N+]([H])([H])[H])=N1

$$$$
L9L
     RDKit          3D

  0  0  0  0  0  0  0  0  0  0999 V3000
M  V30 BEGIN CTAB
M  V30 COUNTS 50 53 0 0 0
M  V30 BEGIN ATOM
M  V30 1 S 74.497000 94.276000 27.391000 0
M  V30 2 F 78.446000 93.732000 24.384000 0
M  V30 3 F 78.577000 95.311000 22.689000 0
M  V30 4 F 76.929000 93.735000 22.683000 0
M  V30 5 O 76.108000 88.970000 21.629000 0
M  V30 6 N 72.648000 98.617000 28.016000 0 CFG=1 CHG=1
M  V30 7 N 72.965000 93.707000 29.442000 0
M  V30 8 N 73.821000 96.085000 29.376000 0
M  V30 9 N 74.640000 88.917000 23.340000 0
M  V30 10 C 73.025000 92.562000 28.673000 0
M  V30 11 C 74.491000 97.077000 28.537000 0 CFG=2
M  V30 12 C 74.580000 96.555000 24.633000 0
M  V30 13 C 76.627000 97.517000 25.824000 0
M  V30 14 C 73.331000 89.380000 25.400000 0
M  V30 15 C 73.195000 90.401000 26.408000 0
M  V30 16 C 75.419000 95.535000 24.072000 0
M  V30 17 C 77.453000 96.535000 25.167000 0
M  V30 18 C 74.310000 98.348000 26.283000 0 CFG=2
M  V30 19 C 76.179000 90.727000 23.323000 0 CFG=2
M  V30 20 C 75.015000 91.810000 25.438000 0
M  V30 21 C 73.724000 94.712000 28.871000 0
M  V30 22 C 73.823000 92.696000 27.510000 0
M  V30 23 C 75.660000 89.443000 22.648000 0
M  V30 24 C 73.587000 97.638000 27.431000 0 CFG=2
M  V30 25 C 75.223000 97.447000 25.539000 0
M  V30 26 C 74.347000 89.645000 24.417000 0
M  V30 27 C 73.996000 91.619000 26.469000 0
M  V30 28 C 75.169000 90.802000 24.435000 0
M  V30 29 C 76.882000 95.512000 24.254000 0
M  V30 30 C 77.771000 94.497000 23.454000 0 CFG=1
M  V30 31 H 72.057900 98.983800 27.296800 0
M  V30 32 H 72.086700 98.166700 28.710300 0
M  V30 33 H 73.440800 96.335000 30.266500 0
M  V30 34 H 74.157700 88.080500 23.080000 0
M  V30 35 H 72.549200 91.716300 28.914500 0
M  V30 36 H 75.287100 96.647700 28.110400 0
M  V30 37 H 74.791400 97.834000 29.117200 0
M  V30 38 H 73.609900 96.634400 24.403600 0
M  V30 39 H 77.009500 98.205000 26.440800 0
M  V30 40 H 72.765600 88.555300 25.385200 0
M  V30 41 H 72.502200 90.264900 27.116200 0
M  V30 42 H 74.992700 94.807800 23.534000 0
M  V30 43 H 78.439500 96.542800 25.330800 0
M  V30 44 H 74.844100 99.104500 26.660300 0
M  V30 45 H 73.626400 98.706900 25.647500 0
M  V30 46 H 76.132700 91.519700 22.715200 0
M  V30 47 H 77.112700 90.623900 23.665800 0
M  V30 48 H 75.591400 92.627200 25.434200 0
M  V30 49 H 73.054900 96.883100 27.047600 0
M  V30 50 H 73.163800 99.363200 28.436900 0
M  V30 END ATOM
M  V30 BEGIN BOND
M  V30 1 1 1 21
M  V30 2 1 1 22
M  V30 3 1 30 2 CFG=1
M  V30 4 1 3 30
M  V30 5 1 4 30
M  V30 6 2 5 23
M  V30 7 1 6 24
M  V30 8 1 7 10
M  V30 9 2 7 21
M  V30 10 1 8 11
M  V30 11 1 8 21
M  V30 12 1 9 23
M  V30 13 1 9 26
M  V30 14 2 10 22
M  V30 15 1 11 24
M  V30 16 2 12 16
M  V30 17 1 12 25
M  V30 18 1 13 17
M  V30 19 2 13 25
M  V30 20 1 14 15
M  V30 21 2 14 26
M  V30 22 2 15 27
M  V30 23 1 16 29
M  V30 24 2 17 29
M  V30 25 1 18 24
M  V30 26 1 18 25
M  V30 27 1 19 23
M  V30 28 1 19 28
M  V30 29 1 20 27
M  V30 30 2 20 28
M  V30 31 1 22 27
M  V30 32 1 26 28
M  V30 33 1 29 30
M  V30 34 1 6 31 CFG=3
M  V30 35 1 6 32
M  V30 36 1 8 33
M  V30 37 1 9 34
M  V30 38 1 10 35
M  V30 39 1 11 36 CFG=3
M  V30 40 1 11 37
M  V30 41 1 12 38
M  V30 42 1 13 39
M  V30 43 1 14 40
M  V30 44 1 15 41
M  V30 45 1 16 42
M  V30 46 1 17 43
M  V30 47 1 18 44 CFG=1
M  V30 48 1 18 45
M  V30 49 1 19 46 CFG=3
M  V30 50 1 19 47
M  V30 51 1 20 48
M  V30 52 1 24 49 CFG=3
M  V30 53 1 6 50
M  V30 END BOND
M  V30 END CTAB
M  END
>  <Ligand_Instance>  (251) 
3L9L_L9L_B_351

>  <Dataset>  (251) 
PDB

>  <PDB_ID>  (251) 
3L9L

>  <Chain>  (251) 
B

>  <Resi>  (251) 
351

>  <Num_Resolved_Atoms>  (251) 
30

>  <Num_H_Atoms_ProtBoundConf>  (251) 
20

>  <Pocket>  (251) 
A

>  <SMILES>  (251) 
c1cc(ccc1C[C@@H](CNc2ncc(s2)c3ccc4c(c3)CC(=O)N4)N)C(F)(F)F

>  <Name>  (251) 
5-[2-({(2S)-2-amino-3-[4-(trifluoromethyl)phenyl]propyl}amino)-1,3-thiazol-5-yl]-1,3-dihydro-2H-indol-2-one

>  <Num_Heavy_Atoms>  (251) 
30

>  <Num_Not_Resolved_Atoms>  (251) 
0

>  <ATP_Site>  (251) 
True

>  <Peripheral>  (251) 
False

>  <Standardized_SMILES>  (251) 
[H]C1=C(C2=C([H])C([H])=C3C(=C2[H])C([H])([H])C(=O)N3[H])SC(N([H])C([H])([H])[C@]([H])(C([H])([H])C2=C([H])C([H])=C(C(F)(F)F)C([H])=C2[H])[N+]([H])([H])[H])=N1

$$$$
L9M
     RDKit          3D

  0  0  0  0  0  0  0  0  0  0999 V3000
M  V30 BEGIN CTAB
M  V30 COUNTS 50 53 0 0 0
M  V30 BEGIN ATOM
M  V30 1 S 30.054000 3.502000 7.610000 0
M  V30 2 N 30.530000 -0.893000 5.705000 0 CFG=1 CHG=1
M  V30 3 N 31.537000 4.045000 5.652000 0
M  V30 4 N 30.812000 5.050000 5.747000 0
M  V30 5 N 25.697000 8.482000 9.397000 0
M  V30 6 N 26.275000 9.060000 8.341000 0
M  V30 7 N 31.966000 1.763000 6.314000 0
M  V30 8 C 25.747000 6.417000 10.763000 0 CFG=1
M  V30 9 C 27.680000 3.160000 12.380000 0 CFG=1
M  V30 10 C 31.497000 0.734000 7.285000 0 CFG=2
M  V30 11 C 28.139000 8.411000 6.621000 0
M  V30 12 C 27.381000 2.045000 9.904000 0
M  V30 13 C 29.364000 1.225000 11.335000 0
M  V30 14 C 27.781000 1.150000 8.842000 0
M  V30 15 C 29.752000 0.344000 10.274000 0
M  V30 16 C 29.036000 7.323000 6.297000 0
M  V30 17 C 29.416000 -0.621000 7.933000 0 CFG=2
M  V30 18 C 28.092000 5.970000 8.275000 0
M  V30 19 C 31.303000 2.993000 6.454000 0
M  V30 20 C 29.922000 5.040000 6.761000 0
M  V30 21 C 30.203000 0.063000 6.804000 0 CFG=2
M  V30 22 C 26.177000 7.275000 9.645000 0
M  V30 23 C 27.233000 8.264000 7.762000 0
M  V30 24 C 28.187000 2.053000 11.116000 0
M  V30 25 C 28.960000 0.325000 9.057000 0
M  V30 26 C 29.003000 6.115000 7.123000 0
M  V30 27 C 27.186000 7.051000 8.616000 0
M  V30 28 H 29.691100 -1.334200 5.386400 0
M  V30 29 H 30.954400 -0.397300 4.947300 0
M  V30 30 H 26.036500 9.972400 8.008200 0
M  V30 31 H 32.679000 1.594900 5.633300 0
M  V30 32 H 26.255300 5.556200 10.737200 0
M  V30 33 H 25.925600 6.883700 11.629200 0
M  V30 34 H 24.768300 6.228700 10.681400 0
M  V30 35 H 28.300800 3.082000 13.160100 0
M  V30 36 H 27.700000 4.096700 12.030500 0
M  V30 37 H 26.750400 2.932000 12.669600 0
M  V30 38 H 31.328200 1.172100 8.167900 0
M  V30 39 H 32.206400 0.036900 7.389000 0
M  V30 40 H 28.137800 9.248900 6.075200 0
M  V30 41 H 26.580400 2.636700 9.809600 0
M  V30 42 H 29.880200 1.269300 12.190300 0
M  V30 43 H 27.264300 1.099400 7.987300 0
M  V30 44 H 30.553200 -0.246800 10.369700 0
M  V30 45 H 29.666200 7.394900 5.523900 0
M  V30 46 H 29.998200 -1.327100 8.336100 0
M  V30 47 H 28.603700 -1.046400 7.534100 0
M  V30 48 H 28.099000 5.130400 8.818200 0
M  V30 49 H 29.618400 0.776900 6.418600 0
M  V30 50 H 31.163600 -1.587900 6.045200 0
M  V30 END ATOM
M  V30 BEGIN BOND
M  V30 1 1 1 19
M  V30 2 1 1 20
M  V30 3 1 2 21
M  V30 4 1 3 4
M  V30 5 2 3 19
M  V30 6 2 4 20
M  V30 7 1 5 6
M  V30 8 2 5 22
M  V30 9 1 6 23
M  V30 10 1 7 10
M  V30 11 1 7 19
M  V30 12 1 8 22
M  V30 13 1 9 24
M  V30 14 1 10 21
M  V30 15 1 11 16
M  V30 16 2 11 23
M  V30 17 1 12 14
M  V30 18 2 12 24
M  V30 19 2 13 15
M  V30 20 1 13 24
M  V30 21 2 14 25
M  V30 22 1 15 25
M  V30 23 2 16 26
M  V30 24 1 17 21
M  V30 25 1 17 25
M  V30 26 1 18 26
M  V30 27 2 18 27
M  V30 28 1 20 26
M  V30 29 1 22 27
M  V30 30 1 23 27
M  V30 31 1 2 28 CFG=3
M  V30 32 1 2 29
M  V30 33 1 6 30
M  V30 34 1 7 31
M  V30 35 1 8 32 CFG=1
M  V30 36 1 8 33
M  V30 37 1 8 34
M  V30 38 1 9 35 CFG=1
M  V30 39 1 9 36
M  V30 40 1 9 37
M  V30 41 1 10 38 CFG=1
M  V30 42 1 10 39
M  V30 43 1 11 40
M  V30 44 1 12 41
M  V30 45 1 13 42
M  V30 46 1 14 43
M  V30 47 1 15 44
M  V30 48 1 16 45
M  V30 49 1 17 46 CFG=1
M  V30 50 1 17 47
M  V30 51 1 18 48
M  V30 52 1 21 49 CFG=3
M  V30 53 1 2 50
M  V30 END BOND
M  V30 END CTAB
M  END
>  <Ligand_Instance>  (252) 
3L9M_L9M_A_351

>  <Dataset>  (252) 
PDB

>  <PDB_ID>  (252) 
3L9M

>  <Chain>  (252) 
A

>  <Resi>  (252) 
351

>  <Num_Resolved_Atoms>  (252) 
27

>  <Num_H_Atoms_ProtBoundConf>  (252) 
23

>  <Pocket>  (252) 
A

>  <SMILES>  (252) 
Cc1ccc(cc1)C[C@@H](CNc2nnc(s2)c3ccc4c(c3)c(n[nH]4)C)N

>  <Name>  (252) 
(2S)-N~1~-[5-(3-methyl-1H-indazol-5-yl)-1,3,4-thiadiazol-2-yl]-3-(4-methylphenyl)propane-1,2-diamine

>  <Num_Heavy_Atoms>  (252) 
27

>  <Num_Not_Resolved_Atoms>  (252) 
0

>  <ATP_Site>  (252) 
True

>  <Peripheral>  (252) 
False

>  <Standardized_SMILES>  (252) 
[H]C1=C([H])C(C([H])([H])[C@@]([H])(C([H])([H])N([H])C2=NN=C(C3=C([H])C([H])=C4C(=C3[H])C(C([H])([H])[H])=NN4[H])S2)[N+]([H])([H])[H])=C([H])C([H])=C1C([H])([H])[H]

$$$$
L9M
     RDKit          3D

  0  0  0  0  0  0  0  0  0  0999 V3000
M  V30 BEGIN CTAB
M  V30 COUNTS 50 53 0 0 0
M  V30 BEGIN ATOM
M  V30 1 S 74.436000 94.625000 27.107000 0
M  V30 2 N 72.776000 99.052000 28.024000 0 CFG=1 CHG=1
M  V30 3 N 73.028000 94.148000 29.077000 0
M  V30 4 N 72.974000 93.081000 28.436000 0
M  V30 5 N 74.856000 89.551000 22.455000 0
M  V30 6 N 73.937000 89.035000 23.269000 0
M  V30 7 N 73.796000 96.495000 29.177000 0
M  V30 8 C 76.334000 91.558000 22.240000 0 CFG=1
M  V30 9 C 78.043000 95.122000 23.227000 0 CFG=1
M  V30 10 C 74.625000 97.446000 28.395000 0 CFG=2
M  V30 11 C 72.768000 89.731000 25.525000 0
M  V30 12 C 75.671000 96.167000 23.851000 0
M  V30 13 C 77.737000 97.109000 25.082000 0
M  V30 14 C 74.834000 97.077000 24.570000 0
M  V30 15 C 76.882000 98.013000 25.793000 0
M  V30 16 C 72.787000 90.826000 26.478000 0
M  V30 17 C 74.560000 98.898000 26.292000 0 CFG=2
M  V30 18 C 74.557000 92.055000 25.099000 0
M  V30 19 C 73.700000 95.203000 28.591000 0
M  V30 20 C 73.631000 93.060000 27.264000 0
M  V30 21 C 73.747000 98.141000 27.349000 0 CFG=2
M  V30 22 C 75.300000 90.732000 22.889000 0
M  V30 23 C 73.658000 89.827000 24.360000 0
M  V30 24 C 77.088000 96.219000 24.135000 0
M  V30 25 C 75.465000 97.960000 25.511000 0
M  V30 26 C 73.664000 91.968000 26.270000 0
M  V30 27 C 74.568000 90.980000 24.120000 0
M  V30 28 H 72.206900 99.501700 27.335600 0
M  V30 29 H 72.195400 98.521600 28.641800 0
M  V30 30 H 73.491500 88.155200 23.103400 0
M  V30 31 H 73.346800 96.740100 30.036100 0
M  V30 32 H 76.476500 92.392600 22.772200 0
M  V30 33 H 77.190000 91.043300 22.191600 0
M  V30 34 H 76.037000 91.798500 21.315900 0
M  V30 35 H 79.003800 95.224200 23.484600 0
M  V30 36 H 77.745200 94.186100 23.415100 0
M  V30 37 H 77.936900 95.315900 22.251700 0
M  V30 38 H 75.361100 96.948400 27.936000 0
M  V30 39 H 75.017800 98.130300 29.009400 0
M  V30 40 H 72.170700 88.939900 25.656800 0
M  V30 41 H 75.294100 95.525000 23.183300 0
M  V30 42 H 78.725900 97.091800 25.229700 0
M  V30 43 H 73.845100 97.097800 24.422900 0
M  V30 44 H 77.252700 98.658200 26.461100 0
M  V30 45 H 72.193600 90.795100 27.282300 0
M  V30 46 H 75.122300 99.588400 26.747100 0
M  V30 47 H 73.930700 99.346200 25.657200 0
M  V30 48 H 75.152100 92.849700 24.979100 0
M  V30 49 H 73.220800 97.433600 26.877000 0
M  V30 50 H 73.275200 99.742900 28.546800 0
M  V30 END ATOM
M  V30 BEGIN BOND
M  V30 1 1 1 19
M  V30 2 1 1 20
M  V30 3 1 2 21
M  V30 4 1 3 4
M  V30 5 2 3 19
M  V30 6 2 4 20
M  V30 7 1 5 6
M  V30 8 2 5 22
M  V30 9 1 6 23
M  V30 10 1 7 10
M  V30 11 1 7 19
M  V30 12 1 8 22
M  V30 13 1 9 24
M  V30 14 1 10 21
M  V30 15 1 11 16
M  V30 16 2 11 23
M  V30 17 1 12 14
M  V30 18 2 12 24
M  V30 19 2 13 15
M  V30 20 1 13 24
M  V30 21 2 14 25
M  V30 22 1 15 25
M  V30 23 2 16 26
M  V30 24 1 17 21
M  V30 25 1 17 25
M  V30 26 1 18 26
M  V30 27 2 18 27
M  V30 28 1 20 26
M  V30 29 1 22 27
M  V30 30 1 23 27
M  V30 31 1 2 28 CFG=3
M  V30 32 1 2 29
M  V30 33 1 6 30
M  V30 34 1 7 31
M  V30 35 1 8 32 CFG=1
M  V30 36 1 8 33
M  V30 37 1 8 34
M  V30 38 1 9 35 CFG=1
M  V30 39 1 9 36
M  V30 40 1 9 37
M  V30 41 1 10 38 CFG=3
M  V30 42 1 10 39
M  V30 43 1 11 40
M  V30 44 1 12 41
M  V30 45 1 13 42
M  V30 46 1 14 43
M  V30 47 1 15 44
M  V30 48 1 16 45
M  V30 49 1 17 46 CFG=1
M  V30 50 1 17 47
M  V30 51 1 18 48
M  V30 52 1 21 49 CFG=3
M  V30 53 1 2 50
M  V30 END BOND
M  V30 END CTAB
M  END
>  <Ligand_Instance>  (253) 
3L9M_L9M_B_351

>  <Dataset>  (253) 
PDB

>  <PDB_ID>  (253) 
3L9M

>  <Chain>  (253) 
B

>  <Resi>  (253) 
351

>  <Num_Resolved_Atoms>  (253) 
27

>  <Num_H_Atoms_ProtBoundConf>  (253) 
23

>  <Pocket>  (253) 
A

>  <SMILES>  (253) 
Cc1ccc(cc1)C[C@@H](CNc2nnc(s2)c3ccc4c(c3)c(n[nH]4)C)N

>  <Name>  (253) 
(2S)-N~1~-[5-(3-methyl-1H-indazol-5-yl)-1,3,4-thiadiazol-2-yl]-3-(4-methylphenyl)propane-1,2-diamine

>  <Num_Heavy_Atoms>  (253) 
27

>  <Num_Not_Resolved_Atoms>  (253) 
0

>  <ATP_Site>  (253) 
True

>  <Peripheral>  (253) 
False

>  <Standardized_SMILES>  (253) 
[H]C1=C([H])C(C([H])([H])[C@@]([H])(C([H])([H])N([H])C2=NN=C(C3=C([H])C([H])=C4C(=C3[H])C(C([H])([H])[H])=NN4[H])S2)[N+]([H])([H])[H])=C([H])C([H])=C1C([H])([H])[H]

$$$$
L9N
     RDKit          3D

  0  0  0  0  0  0  0  0  0  0999 V3000
M  V30 BEGIN CTAB
M  V30 COUNTS 47 50 0 0 0
M  V30 BEGIN ATOM
M  V30 1 S 31.086000 17.654000 58.940000 0
M  V30 2 N 29.600000 22.269000 58.568000 0 CFG=1 CHG=1
M  V30 3 N 34.785000 12.636000 55.932000 0
M  V30 4 N 28.684000 17.384000 59.300000 0
M  V30 5 N 33.541000 12.119000 55.861000 0
M  V30 6 N 28.993000 16.207000 58.698000 0
M  V30 7 N 29.430000 19.627000 60.175000 0
M  V30 8 C 36.180000 17.363000 59.012000 0 CFG=1
M  V30 9 C 34.646000 13.842000 56.568000 0
M  V30 10 C 30.460000 20.652000 60.192000 0 CFG=2
M  V30 11 C 31.083000 12.720000 56.552000 0
M  V30 12 C 34.257000 18.770000 57.556000 0
M  V30 13 C 34.813000 19.512000 59.951000 0
M  V30 14 C 33.285000 19.842000 57.466000 0
M  V30 15 C 33.851000 20.570000 59.856000 0
M  V30 16 C 30.358000 13.828000 57.229000 0
M  V30 17 C 32.045000 21.818000 58.533000 0 CFG=2
M  V30 18 C 32.520000 15.097000 57.544000 0
M  V30 19 C 29.628000 18.322000 59.540000 0
M  V30 20 C 30.339000 16.175000 58.413000 0
M  V30 21 C 30.636000 21.227000 58.769000 0 CFG=2
M  V30 22 C 32.525000 12.837000 56.386000 0
M  V30 23 C 34.985000 18.646000 58.807000 0
M  V30 24 C 33.104000 20.711000 58.618000 0
M  V30 25 C 31.055000 15.035000 57.738000 0
M  V30 26 C 33.265000 14.039000 56.886000 0
M  V30 27 H 29.692300 22.658400 57.651600 0
M  V30 28 H 28.692700 21.860400 58.666700 0
M  V30 29 H 33.376200 11.230700 55.432400 0
M  V30 30 H 28.552300 19.820000 60.613700 0
M  V30 31 H 36.581900 17.424700 59.925600 0
M  V30 32 H 35.736300 16.473600 58.902400 0
M  V30 33 H 36.898800 17.463900 58.324100 0
M  V30 34 H 35.387900 14.479500 56.775700 0
M  V30 35 H 31.323500 20.252100 60.499300 0
M  V30 36 H 30.191000 21.384800 60.817000 0
M  V30 37 H 30.592500 11.914700 56.219100 0
M  V30 38 H 34.418800 18.145000 56.792400 0
M  V30 39 H 35.349300 19.377000 60.784200 0
M  V30 40 H 32.751700 19.980600 56.631500 0
M  V30 41 H 33.698000 21.194700 60.621700 0
M  V30 42 H 29.367300 13.757200 57.345100 0
M  V30 43 H 32.233900 22.510200 59.229500 0
M  V30 44 H 32.079200 22.239100 57.626600 0
M  V30 45 H 33.016100 15.898100 57.878800 0
M  V30 46 H 30.482900 20.493100 58.107200 0
M  V30 47 H 29.716500 22.990900 59.250200 0
M  V30 END ATOM
M  V30 BEGIN BOND
M  V30 1 1 1 19
M  V30 2 1 1 20
M  V30 3 1 2 21
M  V30 4 1 3 5
M  V30 5 2 3 9
M  V30 6 1 4 6
M  V30 7 2 4 19
M  V30 8 1 5 22
M  V30 9 2 6 20
M  V30 10 1 7 10
M  V30 11 1 7 19
M  V30 12 1 8 23
M  V30 13 1 9 26
M  V30 14 1 10 21
M  V30 15 1 11 16
M  V30 16 2 11 22
M  V30 17 1 12 14
M  V30 18 2 12 23
M  V30 19 2 13 15
M  V30 20 1 13 23
M  V30 21 2 14 24
M  V30 22 1 15 24
M  V30 23 2 16 25
M  V30 24 1 17 21
M  V30 25 1 17 24
M  V30 26 1 18 25
M  V30 27 2 18 26
M  V30 28 1 20 25
M  V30 29 1 22 26
M  V30 30 1 2 27 CFG=3
M  V30 31 1 2 28
M  V30 32 1 5 29
M  V30 33 1 7 30
M  V30 34 1 8 31 CFG=1
M  V30 35 1 8 32
M  V30 36 1 8 33
M  V30 37 1 9 34
M  V30 38 1 10 35 CFG=1
M  V30 39 1 10 36
M  V30 40 1 11 37
M  V30 41 1 12 38
M  V30 42 1 13 39
M  V30 43 1 14 40
M  V30 44 1 15 41
M  V30 45 1 16 42
M  V30 46 1 17 43 CFG=1
M  V30 47 1 17 44
M  V30 48 1 18 45
M  V30 49 1 21 46 CFG=3
M  V30 50 1 2 47
M  V30 END BOND
M  V30 END CTAB
M  END
>  <Ligand_Instance>  (254) 
3L9N_L9N_A_351

>  <Dataset>  (254) 
PDB

>  <PDB_ID>  (254) 
3L9N

>  <Chain>  (254) 
A

>  <Resi>  (254) 
351

>  <Num_Resolved_Atoms>  (254) 
26

>  <Num_H_Atoms_ProtBoundConf>  (254) 
21

>  <Pocket>  (254) 
A

>  <SMILES>  (254) 
Cc1ccc(cc1)C[C@@H](CNc2nnc(s2)c3ccc4c(c3)cn[nH]4)N

>  <Name>  (254) 
(2S)-N~1~-[5-(1H-indazol-5-yl)-1,3,4-thiadiazol-2-yl]-3-(4-methylphenyl)propane-1,2-diamine

>  <Num_Heavy_Atoms>  (254) 
26

>  <Num_Not_Resolved_Atoms>  (254) 
0

>  <ATP_Site>  (254) 
True

>  <Peripheral>  (254) 
False

>  <Standardized_SMILES>  (254) 
[H]C1=NN([H])C2=C([H])C([H])=C(C3=NN=C(N([H])C([H])([H])[C@]([H])(C([H])([H])C4=C([H])C([H])=C(C([H])([H])[H])C([H])=C4[H])[N+]([H])([H])[H])S3)C([H])=C12

$$$$
LL1
     RDKit          3D

  0  0  0  0  0  0  0  0  0  0999 V3000
M  V30 BEGIN CTAB
M  V30 COUNTS 24 26 0 0 0
M  V30 BEGIN ATOM
M  V30 1 N 2.907000 10.209000 4.003000 0
M  V30 2 N 8.675000 9.922000 1.452000 0
M  V30 3 N 7.423000 9.851000 1.607000 0
M  V30 4 C 3.209000 10.258000 2.686000 0
M  V30 5 C 3.795000 10.112000 5.001000 0
M  V30 6 C 10.884000 10.975000 4.363000 0
M  V30 7 C 9.832000 11.148000 5.300000 0
M  V30 8 C 4.577000 10.269000 2.332000 0
M  V30 9 C 5.203000 10.099000 4.669000 0
M  V30 10 C 10.577000 10.505000 3.031000 0
M  V30 11 C 8.490000 10.906000 4.898000 0
M  V30 12 C 9.246000 10.278000 2.640000 0
M  V30 13 C 5.603000 10.185000 3.295000 0
M  V30 14 C 6.989000 10.156000 2.855000 0
M  V30 15 C 8.177000 10.453000 3.588000 0
M  V30 16 H 9.166900 9.746300 0.599200 0
M  V30 17 H 2.492000 10.285400 1.989400 0
M  V30 18 H 3.492200 10.050100 5.952000 0
M  V30 19 H 11.828700 11.176400 4.621900 0
M  V30 20 H 10.033200 11.437900 6.235700 0
M  V30 21 H 4.825600 10.338700 1.365900 0
M  V30 22 H 5.891100 10.030600 5.391400 0
M  V30 23 H 11.318900 10.339700 2.381200 0
M  V30 24 H 7.749200 11.058100 5.552200 0
M  V30 END ATOM
M  V30 BEGIN BOND
M  V30 1 2 1 4
M  V30 2 1 1 5
M  V30 3 1 2 3
M  V30 4 1 2 12
M  V30 5 2 3 14
M  V30 6 1 4 8
M  V30 7 2 5 9
M  V30 8 2 6 7
M  V30 9 1 6 10
M  V30 10 1 7 11
M  V30 11 2 8 13
M  V30 12 1 9 13
M  V30 13 2 10 12
M  V30 14 2 11 15
M  V30 15 1 12 15
M  V30 16 1 13 14
M  V30 17 1 14 15
M  V30 18 1 2 16
M  V30 19 1 4 17
M  V30 20 1 5 18
M  V30 21 1 6 19
M  V30 22 1 7 20
M  V30 23 1 8 21
M  V30 24 1 9 22
M  V30 25 1 10 23
M  V30 26 1 11 24
M  V30 END BOND
M  V30 END CTAB
M  END
>  <Ligand_Instance>  (255) 
3DNE_LL1_A_351

>  <Dataset>  (255) 
PDB

>  <PDB_ID>  (255) 
3DNE

>  <Chain>  (255) 
A

>  <Resi>  (255) 
351

>  <Num_Resolved_Atoms>  (255) 
15

>  <Num_H_Atoms_ProtBoundConf>  (255) 
9

>  <Pocket>  (255) 
A

>  <SMILES>  (255) 
c1ccc2c(c1)c(n[nH]2)c3ccncc3

>  <Name>  (255) 
3-pyridin-4-yl-1H-indazole

>  <Num_Heavy_Atoms>  (255) 
15

>  <Num_Not_Resolved_Atoms>  (255) 
0

>  <ATP_Site>  (255) 
True

>  <Peripheral>  (255) 
False

>  <Standardized_SMILES>  (255) 
[H]C1=NC([H])=C([H])C(C2=NN([H])C3=C([H])C([H])=C([H])C([H])=C23)=C1[H]

$$$$
LL2
     RDKit          3D

  0  0  0  0  0  0  0  0  0  0999 V3000
M  V30 BEGIN CTAB
M  V30 COUNTS 23 24 0 0 0
M  V30 BEGIN ATOM
M  V30 1 S 5.885000 10.823000 3.145000 0
M  V30 2 N 3.297000 10.444000 2.410000 0
M  V30 3 N 3.972000 10.487000 4.748000 0
M  V30 4 C 10.144000 7.873000 3.096000 0
M  V30 5 C 9.668000 8.991000 2.390000 0
M  V30 6 C 9.837000 7.805000 4.464000 0
M  V30 7 C 5.143000 10.646000 5.471000 0
M  V30 8 C 8.910000 9.983000 3.043000 0
M  V30 9 C 9.087000 8.797000 5.139000 0
M  V30 10 C 7.784000 11.015000 5.123000 0 CFG=2
M  V30 11 C 4.189000 10.552000 3.397000 0
M  V30 12 C 6.295000 10.829000 4.747000 0
M  V30 13 C 8.613000 9.908000 4.423000 0
M  V30 14 H 2.332400 10.287700 2.622700 0
M  V30 15 H 3.593200 10.519300 1.457900 0
M  V30 16 H 10.677500 7.158000 2.644100 0
M  V30 17 H 9.869200 9.083300 1.414800 0
M  V30 18 H 10.164000 7.017700 4.986700 0
M  V30 19 H 5.148900 10.628300 6.470800 0
M  V30 20 H 8.572500 10.762400 2.515200 0
M  V30 21 H 8.896400 8.707700 6.116600 0
M  V30 22 H 7.892800 10.941300 6.114300 0
M  V30 23 H 8.098400 11.914300 4.819100 0
M  V30 END ATOM
M  V30 BEGIN BOND
M  V30 1 1 1 11
M  V30 2 1 1 12
M  V30 3 1 2 11
M  V30 4 1 3 7
M  V30 5 2 3 11
M  V30 6 2 4 5
M  V30 7 1 4 6
M  V30 8 1 5 8
M  V30 9 2 6 9
M  V30 10 2 7 12
M  V30 11 2 8 13
M  V30 12 1 9 13
M  V30 13 1 10 12
M  V30 14 1 10 13
M  V30 15 1 2 14
M  V30 16 1 2 15
M  V30 17 1 4 16
M  V30 18 1 5 17
M  V30 19 1 6 18
M  V30 20 1 7 19
M  V30 21 1 8 20
M  V30 22 1 9 21
M  V30 23 1 10 22 CFG=1
M  V30 24 1 10 23
M  V30 END BOND
M  V30 END CTAB
M  END
>  <Ligand_Instance>  (256) 
3DND_LL2_A_351

>  <Dataset>  (256) 
PDB

>  <PDB_ID>  (256) 
3DND

>  <Chain>  (256) 
A

>  <Resi>  (256) 
351

>  <Num_Resolved_Atoms>  (256) 
13

>  <Num_H_Atoms_ProtBoundConf>  (256) 
10

>  <Pocket>  (256) 
A

>  <SMILES>  (256) 
c1ccc(cc1)Cc2cnc(s2)N

>  <Name>  (256) 
5-benzyl-1,3-thiazol-2-amine

>  <Num_Heavy_Atoms>  (256) 
13

>  <Num_Not_Resolved_Atoms>  (256) 
0

>  <ATP_Site>  (256) 
True

>  <Peripheral>  (256) 
False

>  <Standardized_SMILES>  (256) 
[H]C1=C(C([H])([H])C2=C([H])C([H])=C([H])C([H])=C2[H])SC(N([H])[H])=N1

$$$$
LQ2
     RDKit          3D

  0  0  0  0  0  0  0  0  0  0999 V3000
M  V30 BEGIN CTAB
M  V30 COUNTS 18 18 0 0 0
M  V30 BEGIN ATOM
M  V30 1 O 10.083000 1.141000 18.085000 0
M  V30 2 O 9.699000 3.337000 18.134000 0 CHG=-1
M  V30 3 O 16.525000 2.374000 20.463000 0
M  V30 4 N 16.224000 4.587000 20.254000 0
M  V30 5 C 12.709000 1.520000 19.042000 0
M  V30 6 C 12.248000 3.873000 19.069000 0
M  V30 7 C 14.002000 1.768000 19.467000 0
M  V30 8 C 13.539000 4.120000 19.499000 0
M  V30 9 C 10.451000 2.291000 18.313000 0
M  V30 10 C 15.820000 3.324000 20.168000 0
M  V30 11 C 11.819000 2.571000 18.826000 0
M  V30 12 C 14.430000 3.073000 19.701000 0
M  V30 13 H 15.603800 5.328800 19.998800 0
M  V30 14 H 17.148200 4.795700 20.573900 0
M  V30 15 H 12.410100 0.578200 18.888300 0
M  V30 16 H 11.617000 4.636500 18.931400 0
M  V30 17 H 14.633600 1.005500 19.607200 0
M  V30 18 H 13.834000 5.060800 19.666100 0
M  V30 END ATOM
M  V30 BEGIN BOND
M  V30 1 2 1 9
M  V30 2 1 2 9
M  V30 3 2 3 10
M  V30 4 1 4 10
M  V30 5 1 5 7
M  V30 6 2 5 11
M  V30 7 2 6 8
M  V30 8 1 6 11
M  V30 9 2 7 12
M  V30 10 1 8 12
M  V30 11 1 9 11
M  V30 12 1 10 12
M  V30 13 1 8 18
M  V30 14 1 4 13
M  V30 15 1 4 14
M  V30 16 1 5 15
M  V30 17 1 6 16
M  V30 18 1 7 17
M  V30 END BOND
M  V30 END CTAB
M  END
>  <Ligand_Instance>  (257) 
6SOX_LQ2_A_401

>  <Dataset>  (257) 
PDB

>  <PDB_ID>  (257) 
6SOX

>  <Chain>  (257) 
A

>  <Resi>  (257) 
401

>  <Num_Resolved_Atoms>  (257) 
12

>  <Num_H_Atoms_ProtBoundConf>  (257) 
6

>  <Pocket>  (257) 
A

>  <SMILES>  (257) 
c1cc(ccc1C(=O)N)C(=O)O

>  <Name>  (257) 
4-aminocarbonylbenzoic acid

>  <Num_Heavy_Atoms>  (257) 
12

>  <Num_Not_Resolved_Atoms>  (257) 
0

>  <ATP_Site>  (257) 
True

>  <Peripheral>  (257) 
False

>  <Standardized_SMILES>  (257) 
[H]C1=C([H])C(C(=O)N([H])[H])=C([H])C([H])=C1C(=O)[O-]

$$$$
LR5
     RDKit          3D

  0  0  0  0  0  0  0  0  0  0999 V3000
M  V30 BEGIN CTAB
M  V30 COUNTS 19 19 0 0 0
M  V30 BEGIN ATOM
M  V30 1 F 9.681000 2.597000 18.440000 0
M  V30 2 F 10.120000 0.671000 19.205000 0
M  V30 3 F 10.594000 1.140000 17.206000 0
M  V30 4 O 16.658000 2.426000 20.438000 0
M  V30 5 N 16.143000 4.616000 20.255000 0
M  V30 6 C 13.463000 3.867000 19.456000 0
M  V30 7 C 14.200000 1.593000 19.519000 0
M  V30 8 C 12.210000 3.449000 19.041000 0
M  V30 9 C 12.949000 1.178000 19.106000 0
M  V30 10 C 15.848000 3.319000 20.166000 0
M  V30 11 C 14.474000 2.940000 19.700000 0
M  V30 12 C 11.937000 2.098000 18.865000 0
M  V30 13 C 10.585000 1.632000 18.433000 0 CFG=1
M  V30 14 H 15.453600 5.302600 20.024000 0
M  V30 15 H 17.053700 4.902400 20.552800 0
M  V30 16 H 13.643800 4.842500 19.581700 0
M  V30 17 H 14.915200 0.915100 19.689200 0
M  V30 18 H 11.494800 4.125700 18.866300 0
M  V30 19 H 12.769700 0.202500 18.978900 0
M  V30 END ATOM
M  V30 BEGIN BOND
M  V30 1 1 13 1 CFG=3
M  V30 2 1 2 13
M  V30 3 1 3 13
M  V30 4 2 4 10
M  V30 5 1 5 10
M  V30 6 1 6 8
M  V30 7 2 6 11
M  V30 8 2 7 9
M  V30 9 1 7 11
M  V30 10 2 8 12
M  V30 11 1 9 12
M  V30 12 1 10 11
M  V30 13 1 12 13
M  V30 14 1 5 14
M  V30 15 1 5 15
M  V30 16 1 6 16
M  V30 17 1 7 17
M  V30 18 1 8 18
M  V30 19 1 9 19
M  V30 END BOND
M  V30 END CTAB
M  END
>  <Ligand_Instance>  (258) 
6SPS_LR5_A_403

>  <Dataset>  (258) 
PDB

>  <PDB_ID>  (258) 
6SPS

>  <Chain>  (258) 
A

>  <Resi>  (258) 
403

>  <Num_Resolved_Atoms>  (258) 
13

>  <Num_H_Atoms_ProtBoundConf>  (258) 
6

>  <Pocket>  (258) 
A

>  <SMILES>  (258) 
c1cc(ccc1C(=O)N)C(F)(F)F

>  <Name>  (258) 
4-(trifluoromethyl)benzamide

>  <Num_Heavy_Atoms>  (258) 
13

>  <Num_Not_Resolved_Atoms>  (258) 
0

>  <ATP_Site>  (258) 
True

>  <Peripheral>  (258) 
False

>  <Standardized_SMILES>  (258) 
[H]C1=C([H])C(C(F)(F)F)=C([H])C([H])=C1C(=O)N([H])[H]

$$$$
LR8
     RDKit          3D

  0  0  0  0  0  0  0  0  0  0999 V3000
M  V30 BEGIN CTAB
M  V30 COUNTS 28 29 0 0 0
M  V30 BEGIN ATOM
M  V30 1 O 16.612000 2.477000 20.326000 0
M  V30 2 O 7.985000 0.935000 17.848000 0
M  V30 3 N 16.028000 4.667000 20.245000 0
M  V30 4 N 12.085000 3.511000 19.119000 0
M  V30 5 N 10.565000 1.821000 18.651000 0
M  V30 6 C 8.199000 2.281000 18.276000 0 CFG=2
M  V30 7 C 8.863000 0.069000 18.542000 0 CFG=2
M  V30 8 C 13.331000 3.887000 19.462000 0
M  V30 9 C 9.616000 2.735000 18.009000 0 CFG=2
M  V30 10 C 10.305000 0.422000 18.293000 0 CFG=2
M  V30 11 C 12.872000 1.240000 19.010000 0
M  V30 12 C 14.136000 1.660000 19.372000 0
M  V30 13 C 15.765000 3.377000 20.092000 0
M  V30 14 C 11.866000 2.201000 18.915000 0
M  V30 15 C 14.387000 2.994000 19.626000 0
M  V30 16 H 15.323000 5.348000 20.046700 0
M  V30 17 H 16.931400 4.959300 20.558700 0
M  V30 18 H 8.019200 2.341200 19.257900 0
M  V30 19 H 7.568400 2.881400 17.784200 0
M  V30 20 H 8.701600 -0.869300 18.236200 0
M  V30 21 H 8.677300 0.136700 19.522300 0
M  V30 22 H 13.508100 4.860500 19.607000 0
M  V30 23 H 9.780500 2.743900 17.022700 0
M  V30 24 H 9.743300 3.656300 18.376500 0
M  V30 25 H 10.888800 -0.172400 18.846000 0
M  V30 26 H 10.513700 0.286700 17.324400 0
M  V30 27 H 12.683400 0.276200 18.821600 0
M  V30 28 H 14.876400 0.992500 19.451000 0
M  V30 END ATOM
M  V30 BEGIN BOND
M  V30 1 2 1 13
M  V30 2 1 2 6
M  V30 3 1 2 7
M  V30 4 1 3 13
M  V30 5 1 4 8
M  V30 6 2 4 14
M  V30 7 1 5 9
M  V30 8 1 5 10
M  V30 9 1 5 14
M  V30 10 1 6 9
M  V30 11 1 7 10
M  V30 12 2 8 15
M  V30 13 2 11 12
M  V30 14 1 11 14
M  V30 15 1 12 15
M  V30 16 1 13 15
M  V30 17 1 3 16
M  V30 18 1 3 17
M  V30 19 1 6 18 CFG=1
M  V30 20 1 6 19
M  V30 21 1 7 20 CFG=3
M  V30 22 1 7 21
M  V30 23 1 8 22
M  V30 24 1 9 23 CFG=3
M  V30 25 1 9 24
M  V30 26 1 10 25 CFG=1
M  V30 27 1 10 26
M  V30 28 1 11 27
M  V30 29 1 12 28
M  V30 END BOND
M  V30 END CTAB
M  END
>  <Ligand_Instance>  (259) 
6SPY_LR8_A_401

>  <Dataset>  (259) 
PDB

>  <PDB_ID>  (259) 
6SPY

>  <Chain>  (259) 
A

>  <Resi>  (259) 
401

>  <Num_Resolved_Atoms>  (259) 
15

>  <Num_H_Atoms_ProtBoundConf>  (259) 
13

>  <Pocket>  (259) 
A

>  <SMILES>  (259) 
c1cc(ncc1C(=O)N)N2CCOCC2

>  <Name>  (259) 
6-morpholin-4-ylpyridine-3-carboxamide

>  <Num_Heavy_Atoms>  (259) 
15

>  <Num_Not_Resolved_Atoms>  (259) 
0

>  <ATP_Site>  (259) 
True

>  <Peripheral>  (259) 
False

>  <Standardized_SMILES>  (259) 
[H]C1=C(C(=O)N([H])[H])C([H])=C([H])C(N2C([H])([H])C([H])([H])OC([H])([H])C2([H])[H])=N1

$$$$
LRT
     RDKit          3D

  0  0  0  0  0  0  0  0  0  0999 V3000
M  V30 BEGIN CTAB
M  V30 COUNTS 40 42 0 0 0
M  V30 BEGIN ATOM
M  V30 1 S 11.128000 1.520000 18.815000 0 CFG=2
M  V30 2 O 11.087000 1.151000 17.435000 0
M  V30 3 O 11.428000 0.537000 19.807000 0
M  V30 4 N 16.509000 4.911000 20.169000 0
M  V30 5 N 6.846000 2.013000 20.600000 0 CFG=2 CHG=1
M  V30 6 N 16.271000 2.607000 20.283000 0
M  V30 7 N 9.663000 2.126000 19.176000 0
M  V30 8 C 7.929000 3.012000 20.674000 0 CFG=2
M  V30 9 C 6.406000 1.644000 19.236000 0 CFG=2
M  V30 10 C 15.506000 1.512000 20.122000 0
M  V30 11 C 9.253000 2.275000 20.586000 0 CFG=2
M  V30 12 C 8.651000 1.887000 18.127000 0 CFG=2
M  V30 13 C 7.532000 0.948000 18.517000 0 CFG=2
M  V30 14 C 12.439000 5.286000 18.888000 0
M  V30 15 C 14.213000 1.534000 19.696000 0
M  V30 16 C 11.677000 4.138000 18.751000 0
M  V30 17 C 13.745000 5.217000 19.266000 0
M  V30 18 C 12.223000 2.905000 18.997000 0
M  V30 19 C 15.729000 3.832000 19.993000 0
M  V30 20 C 13.591000 2.777000 19.397000 0
M  V30 21 C 14.364000 3.969000 19.538000 0
M  V30 22 H 16.152500 5.823700 19.969200 0
M  V30 23 H 17.446300 4.801800 20.499900 0
M  V30 24 H 6.055000 2.380400 21.089200 0
M  V30 25 H 7.874000 3.508800 21.540100 0
M  V30 26 H 7.848400 3.657000 19.914100 0
M  V30 27 H 6.149500 2.469700 18.733600 0
M  V30 28 H 5.618100 1.030900 19.294200 0
M  V30 29 H 15.914200 0.622900 20.329000 0
M  V30 30 H 9.952000 2.792100 21.080000 0
M  V30 31 H 9.154600 1.369400 20.998500 0
M  V30 32 H 9.115900 1.500800 17.330300 0
M  V30 33 H 8.245200 2.767400 17.881800 0
M  V30 34 H 7.167400 0.524400 17.687800 0
M  V30 35 H 7.904300 0.239900 19.117000 0
M  V30 36 H 12.024400 6.177800 18.706800 0
M  V30 37 H 13.703200 0.679800 19.593900 0
M  V30 38 H 10.719900 4.209100 18.470100 0
M  V30 39 H 14.276900 6.059300 19.353500 0
M  V30 40 H 7.163200 1.181500 21.056100 0
M  V30 END ATOM
M  V30 BEGIN BOND
M  V30 1 2 1 2
M  V30 2 2 1 3
M  V30 3 1 1 7 CFG=1
M  V30 4 1 1 18
M  V30 5 1 4 19
M  V30 6 1 5 8
M  V30 7 1 5 9
M  V30 8 1 6 10
M  V30 9 2 6 19
M  V30 10 1 7 11
M  V30 11 1 7 12
M  V30 12 1 8 11
M  V30 13 1 9 13
M  V30 14 2 10 15
M  V30 15 1 12 13
M  V30 16 2 14 16
M  V30 17 1 14 17
M  V30 18 1 15 20
M  V30 19 1 16 18
M  V30 20 2 17 21
M  V30 21 2 18 20
M  V30 22 1 19 21
M  V30 23 1 20 21
M  V30 24 1 4 22
M  V30 25 1 4 23
M  V30 26 1 5 24 CFG=1
M  V30 27 1 8 25 CFG=1
M  V30 28 1 8 26
M  V30 29 1 9 27 CFG=3
M  V30 30 1 9 28
M  V30 31 1 10 29
M  V30 32 1 11 30 CFG=1
M  V30 33 1 11 31
M  V30 34 1 12 32 CFG=3
M  V30 35 1 12 33
M  V30 36 1 13 34 CFG=3
M  V30 37 1 13 35
M  V30 38 1 14 36
M  V30 39 1 15 37
M  V30 40 1 16 38
M  V30 41 1 17 39
M  V30 42 1 5 40
M  V30 END BOND
M  V30 END CTAB
M  END
>  <Ligand_Instance>  (260) 
6SQ1_LRT_A_403

>  <Dataset>  (260) 
PDB

>  <PDB_ID>  (260) 
6SQ1

>  <Chain>  (260) 
A

>  <Resi>  (260) 
403

>  <Num_Resolved_Atoms>  (260) 
21

>  <Num_H_Atoms_ProtBoundConf>  (260) 
19

>  <Pocket>  (260) 
A

>  <SMILES>  (260) 
c1cc2c(ccnc2N)c(c1)S(=O)(=O)N3CCCNCC3

>  <Name>  (260) 
5-(1,4-diazepan-1-ylsulfonyl)isoquinolin-1-amine

>  <Num_Heavy_Atoms>  (260) 
21

>  <Num_Not_Resolved_Atoms>  (260) 
0

>  <ATP_Site>  (260) 
True

>  <Peripheral>  (260) 
False

>  <Standardized_SMILES>  (260) 
[H]C1=C([H])C2=C(S(=O)(=O)N3C([H])([H])C([H])([H])C([H])([H])[N+]([H])([H])C([H])([H])C3([H])[H])C([H])=C([H])C([H])=C2C(N([H])[H])=N1

$$$$
LRT
     RDKit          3D

  0  0  0  0  0  0  0  0  0  0999 V3000
M  V30 BEGIN CTAB
M  V30 COUNTS 40 42 0 0 0
M  V30 BEGIN ATOM
M  V30 1 S 13.664000 -24.250000 -27.781000 0 CFG=1
M  V30 2 O 13.246000 -25.395000 -27.035000 0
M  V30 3 O 14.227000 -24.413000 -29.084000 0
M  V30 4 N 18.069000 -22.811000 -23.257000 0
M  V30 5 N 9.888000 -21.472000 -26.993000 0 CFG=2 CHG=1
M  V30 6 N 17.458000 -24.923000 -23.964000 0
M  V30 7 N 12.352000 -23.295000 -27.942000 0
M  V30 8 C 10.749000 -22.430000 -26.247000 0 CFG=2
M  V30 9 C 9.837000 -21.692000 -28.460000 0 CFG=2
M  V30 10 C 16.739000 -25.711000 -24.779000 0
M  V30 11 C 11.180000 -23.615000 -27.102000 0 CFG=2
M  V30 12 C 12.047000 -22.675000 -29.247000 0 CFG=2
M  V30 13 C 11.186000 -21.432000 -29.101000 0 CFG=2
M  V30 14 C 15.385000 -21.066000 -26.118000 0
M  V30 15 C 15.873000 -25.248000 -25.721000 0
M  V30 16 C 14.638000 -21.912000 -26.919000 0
M  V30 17 C 16.258000 -21.566000 -25.195000 0
M  V30 18 C 14.763000 -23.270000 -26.801000 0
M  V30 19 C 17.330000 -23.570000 -24.078000 0
M  V30 20 C 15.683000 -23.848000 -25.873000 0
M  V30 21 C 16.435000 -22.966000 -25.043000 0
M  V30 22 H 18.006600 -21.814200 -23.306200 0
M  V30 23 H 18.682800 -23.241500 -22.595300 0
M  V30 24 H 10.235500 -20.548800 -26.828900 0
M  V30 25 H 10.238800 -22.772500 -25.458100 0
M  V30 26 H 11.566400 -21.948000 -25.931600 0
M  V30 27 H 9.161300 -21.072400 -28.859400 0
M  V30 28 H 9.568000 -22.638400 -28.638700 0
M  V30 29 H 16.846600 -26.701000 -24.688100 0
M  V30 30 H 11.413000 -24.379100 -26.500500 0
M  V30 31 H 10.419600 -23.878100 -27.695800 0
M  V30 32 H 11.560500 -23.339600 -29.814000 0
M  V30 33 H 12.905800 -22.422000 -29.692500 0
M  V30 34 H 11.680500 -20.770700 -28.537000 0
M  V30 35 H 11.033300 -21.045900 -30.010700 0
M  V30 36 H 15.284100 -20.076000 -26.216500 0
M  V30 37 H 15.373100 -25.889400 -26.303000 0
M  V30 38 H 14.002300 -21.528400 -27.588900 0
M  V30 39 H 16.779700 -20.937400 -24.618300 0
M  V30 40 H 8.957300 -21.546400 -26.634900 0
M  V30 END ATOM
M  V30 BEGIN BOND
M  V30 1 2 1 2
M  V30 2 2 1 3
M  V30 3 1 1 7 CFG=3
M  V30 4 1 1 18
M  V30 5 1 4 19
M  V30 6 1 5 8
M  V30 7 1 5 9
M  V30 8 1 6 10
M  V30 9 2 6 19
M  V30 10 1 7 11
M  V30 11 1 7 12
M  V30 12 1 8 11
M  V30 13 1 9 13
M  V30 14 2 10 15
M  V30 15 1 12 13
M  V30 16 2 14 16
M  V30 17 1 14 17
M  V30 18 1 15 20
M  V30 19 1 16 18
M  V30 20 2 17 21
M  V30 21 2 18 20
M  V30 22 1 19 21
M  V30 23 1 20 21
M  V30 24 1 4 22
M  V30 25 1 4 23
M  V30 26 1 5 24 CFG=3
M  V30 27 1 8 25 CFG=1
M  V30 28 1 8 26
M  V30 29 1 9 27 CFG=3
M  V30 30 1 9 28
M  V30 31 1 10 29
M  V30 32 1 11 30 CFG=1
M  V30 33 1 11 31
M  V30 34 1 12 32 CFG=3
M  V30 35 1 12 33
M  V30 36 1 13 34 CFG=1
M  V30 37 1 13 35
M  V30 38 1 14 36
M  V30 39 1 15 37
M  V30 40 1 16 38
M  V30 41 1 17 39
M  V30 42 1 5 40
M  V30 END BOND
M  V30 END CTAB
M  END
>  <Ligand_Instance>  (261) 
6Y2U_LRT_A_401

>  <Dataset>  (261) 
PDB

>  <PDB_ID>  (261) 
6Y2U

>  <Chain>  (261) 
A

>  <Resi>  (261) 
401

>  <Num_Resolved_Atoms>  (261) 
21

>  <Num_H_Atoms_ProtBoundConf>  (261) 
19

>  <Pocket>  (261) 
A

>  <SMILES>  (261) 
c1cc2c(ccnc2N)c(c1)S(=O)(=O)N3CCCNCC3

>  <Name>  (261) 
5-(1,4-diazepan-1-ylsulfonyl)isoquinolin-1-amine

>  <Num_Heavy_Atoms>  (261) 
21

>  <Num_Not_Resolved_Atoms>  (261) 
0

>  <ATP_Site>  (261) 
True

>  <Peripheral>  (261) 
False

>  <Standardized_SMILES>  (261) 
[H]C1=C([H])C2=C(S(=O)(=O)N3C([H])([H])C([H])([H])C([H])([H])[N+]([H])([H])C([H])([H])C3([H])[H])C([H])=C([H])C([H])=C2C(N([H])[H])=N1

$$$$
LRT
     RDKit          3D

  0  0  0  0  0  0  0  0  0  0999 V3000
M  V30 BEGIN CTAB
M  V30 COUNTS 40 42 0 0 0
M  V30 BEGIN ATOM
M  V30 1 S -27.888000 -9.929000 -4.895000 0 CFG=2
M  V30 2 O -27.593000 -11.261000 -5.318000 0
M  V30 3 O -28.216000 -8.926000 -5.860000 0
M  V30 4 N -33.631000 -9.755000 -1.935000 0
M  V30 5 N -24.187000 -7.522000 -3.011000 0 CFG=2 CHG=1
M  V30 6 N -33.315000 -9.918000 -4.271000 0
M  V30 7 N -26.579000 -9.389000 -4.086000 0
M  V30 8 C -25.640000 -7.455000 -2.792000 0 CFG=2
M  V30 9 C -23.642000 -8.892000 -2.941000 0 CFG=2
M  V30 10 C -32.450000 -9.950000 -5.292000 0
M  V30 11 C -26.362000 -7.927000 -4.073000 0 CFG=2
M  V30 12 C -25.435000 -10.324000 -4.024000 0 CFG=2
M  V30 13 C -24.058000 -9.702000 -4.150000 0 CFG=2
M  V30 14 C -29.459000 -10.095000 -1.248000 0
M  V30 15 C -31.093000 -9.986000 -5.151000 0
M  V30 16 C -28.603000 -10.047000 -2.334000 0
M  V30 17 C -30.810000 -10.080000 -1.422000 0
M  V30 18 C -29.098000 -10.010000 -3.608000 0
M  V30 19 C -32.798000 -9.928000 -2.965000 0
M  V30 20 C -30.511000 -10.016000 -3.851000 0
M  V30 21 C -31.376000 -10.020000 -2.720000 0
M  V30 22 H -33.277300 -9.759700 -0.999600 0
M  V30 23 H -34.608200 -9.620800 -2.099400 0
M  V30 24 H -23.736000 -6.966200 -2.312700 0
M  V30 25 H -25.905100 -6.513200 -2.585000 0
M  V30 26 H -25.891800 -8.047900 -2.027100 0
M  V30 27 H -23.984300 -9.338600 -2.114300 0
M  V30 28 H -22.643700 -8.845700 -2.905800 0
M  V30 29 H -32.822900 -9.947400 -6.219900 0
M  V30 30 H -27.249300 -7.469300 -4.129600 0
M  V30 31 H -25.806800 -7.676900 -4.866200 0
M  V30 32 H -25.540500 -10.985700 -4.766300 0
M  V30 33 H -25.476300 -10.799500 -3.145300 0
M  V30 34 H -23.391400 -10.435500 -4.282900 0
M  V30 35 H -24.055400 -9.100500 -4.948900 0
M  V30 36 H -29.081000 -10.141300 -0.323400 0
M  V30 37 H -30.506600 -9.991300 -5.961000 0
M  V30 38 H -27.614100 -10.039300 -2.185900 0
M  V30 39 H -31.410600 -10.111800 -0.623100 0
M  V30 40 H -23.986000 -7.147600 -3.916200 0
M  V30 END ATOM
M  V30 BEGIN BOND
M  V30 1 2 1 2
M  V30 2 2 1 3
M  V30 3 1 1 7 CFG=1
M  V30 4 1 1 18
M  V30 5 1 4 19
M  V30 6 1 5 8
M  V30 7 1 5 9
M  V30 8 1 6 10
M  V30 9 2 6 19
M  V30 10 1 7 11
M  V30 11 1 7 12
M  V30 12 1 8 11
M  V30 13 1 9 13
M  V30 14 2 10 15
M  V30 15 1 12 13
M  V30 16 2 14 16
M  V30 17 1 14 17
M  V30 18 1 15 20
M  V30 19 1 16 18
M  V30 20 2 17 21
M  V30 21 2 18 20
M  V30 22 1 19 21
M  V30 23 1 20 21
M  V30 24 1 4 22
M  V30 25 1 4 23
M  V30 26 1 5 24 CFG=1
M  V30 27 1 8 25 CFG=1
M  V30 28 1 8 26
M  V30 29 1 9 27 CFG=1
M  V30 30 1 9 28
M  V30 31 1 10 29
M  V30 32 1 11 30 CFG=3
M  V30 33 1 11 31
M  V30 34 1 12 32 CFG=3
M  V30 35 1 12 33
M  V30 36 1 13 34 CFG=3
M  V30 37 1 13 35
M  V30 38 1 14 36
M  V30 39 1 15 37
M  V30 40 1 16 38
M  V30 41 1 17 39
M  V30 42 1 5 40
M  V30 END BOND
M  V30 END CTAB
M  END
>  <Ligand_Instance>  (262) 
6YNT_LRT_A_405

>  <Dataset>  (262) 
PDB

>  <PDB_ID>  (262) 
6YNT

>  <Chain>  (262) 
A

>  <Resi>  (262) 
405

>  <Num_Resolved_Atoms>  (262) 
21

>  <Num_H_Atoms_ProtBoundConf>  (262) 
19

>  <Pocket>  (262) 
A

>  <SMILES>  (262) 
c1cc2c(ccnc2N)c(c1)S(=O)(=O)N3CCCNCC3

>  <Name>  (262) 
5-(1,4-diazepan-1-ylsulfonyl)isoquinolin-1-amine

>  <Num_Heavy_Atoms>  (262) 
21

>  <Num_Not_Resolved_Atoms>  (262) 
0

>  <ATP_Site>  (262) 
True

>  <Peripheral>  (262) 
False

>  <Standardized_SMILES>  (262) 
[H]C1=C([H])C2=C(S(=O)(=O)N3C([H])([H])C([H])([H])C([H])([H])[N+]([H])([H])C([H])([H])C3([H])[H])C([H])=C([H])C([H])=C2C(N([H])[H])=N1

$$$$
M01
     RDKit          3D

  0  0  0  0  0  0  0  0  0  0999 V3000
M  V30 BEGIN CTAB
M  V30 COUNTS 34 36 0 0 0
M  V30 BEGIN ATOM
M  V30 1 N 11.166000 6.968000 2.795000 0 CFG=1 CHG=1
M  V30 2 N 2.940000 9.613000 3.955000 0
M  V30 3 N 2.955000 9.548000 1.521000 0
M  V30 4 N 5.152000 9.889000 4.865000 0
M  V30 5 N 5.133000 9.782000 1.145000 0
M  V30 6 N 7.105000 10.055000 3.565000 0
M  V30 7 C 3.822000 9.765000 4.945000 0
M  V30 8 C 3.934000 9.630000 0.596000 0
M  V30 9 C 10.405000 7.411000 3.995000 0 CFG=2
M  V30 10 C 7.900000 9.807000 2.355000 0 CFG=2
M  V30 11 C 7.977000 10.300000 4.715000 0 CFG=2
M  V30 12 C 8.807000 8.610000 2.529000 0 CFG=2
M  V30 13 C 8.850000 9.095000 4.990000 0 CFG=2
M  V30 14 C 3.526000 9.650000 2.753000 0
M  V30 15 C 5.705000 9.911000 3.639000 0
M  V30 16 C 9.698000 8.726000 3.770000 0 CFG=1
M  V30 17 C 4.878000 9.789000 2.525000 0
M  V30 18 H 11.616300 6.096400 2.988900 0
M  V30 19 H 10.538000 6.854800 2.025100 0
M  V30 20 H 3.438500 9.789400 5.868200 0
M  V30 21 H 3.774600 9.581800 -0.390000 0
M  V30 22 H 11.041200 7.514300 4.759500 0
M  V30 23 H 9.724200 6.713900 4.219800 0
M  V30 24 H 8.458600 10.613500 2.161400 0
M  V30 25 H 7.281300 9.638000 1.587800 0
M  V30 26 H 7.414000 10.488100 5.519800 0
M  V30 27 H 8.559000 11.090200 4.523300 0
M  V30 28 H 9.390900 8.529700 1.721100 0
M  V30 29 H 8.242200 7.789300 2.615000 0
M  V30 30 H 8.266400 8.318300 5.227000 0
M  V30 31 H 9.457200 9.302000 5.757100 0
M  V30 32 H 10.379600 9.441600 3.617200 0
M  V30 33 H 11.855000 7.655200 2.564800 0
M  V30 34 H 1.979400 9.432400 1.334200 0
M  V30 END ATOM
M  V30 BEGIN BOND
M  V30 1 1 1 9
M  V30 2 2 2 7
M  V30 3 1 2 14
M  V30 4 1 3 8
M  V30 5 1 3 14
M  V30 6 1 4 7
M  V30 7 2 4 15
M  V30 8 2 5 8
M  V30 9 1 5 17
M  V30 10 1 6 10
M  V30 11 1 6 11
M  V30 12 1 6 15
M  V30 13 1 9 16
M  V30 14 1 10 12
M  V30 15 1 11 13
M  V30 16 1 12 16
M  V30 17 1 13 16
M  V30 18 2 14 17
M  V30 19 1 15 17
M  V30 20 1 1 18 CFG=1
M  V30 21 1 1 19
M  V30 22 1 3 34
M  V30 23 1 7 20
M  V30 24 1 8 21
M  V30 25 1 9 22 CFG=1
M  V30 26 1 9 23
M  V30 27 1 10 24 CFG=3
M  V30 28 1 10 25
M  V30 29 1 11 26 CFG=1
M  V30 30 1 11 27
M  V30 31 1 12 28 CFG=3
M  V30 32 1 12 29
M  V30 33 1 13 30 CFG=1
M  V30 34 1 13 31
M  V30 35 1 16 32 CFG=3
M  V30 36 1 1 33
M  V30 END BOND
M  V30 END CTAB
M  END
>  <Ligand_Instance>  (263) 
2VNW_M01_A_1351

>  <Dataset>  (263) 
PDB

>  <PDB_ID>  (263) 
2VNW

>  <Chain>  (263) 
A

>  <Resi>  (263) 
1351

>  <Num_Resolved_Atoms>  (263) 
17

>  <Num_H_Atoms_ProtBoundConf>  (263) 
17

>  <Pocket>  (263) 
A

>  <SMILES>  (263) 
c1[nH]c2c(n1)c(ncn2)N3CCC(CC3)CN

>  <Name>  (263) 
1-[1-(9H-purin-6-yl)piperidin-4-yl]methanamine

>  <Num_Heavy_Atoms>  (263) 
17

>  <Num_Not_Resolved_Atoms>  (263) 
0

>  <ATP_Site>  (263) 
True

>  <Peripheral>  (263) 
False

>  <Standardized_SMILES>  (263) 
[H]C1=NC2=C(N=C([H])N2[H])C(N2C([H])([H])C([H])([H])C([H])(C([H])([H])[N+]([H])([H])[H])C([H])([H])C2([H])[H])=N1

$$$$
M02
     RDKit          3D

  0  0  0  0  0  0  0  0  0  0999 V3000
M  V30 BEGIN CTAB
M  V30 COUNTS 31 33 0 0 0
M  V30 BEGIN ATOM
M  V30 1 N 10.264000 7.081000 4.547000 0 CFG=1 CHG=1
M  V30 2 N 3.169000 9.738000 3.894000 0
M  V30 3 N 3.173000 9.651000 1.468000 0
M  V30 4 N 5.392000 9.918000 4.804000 0
M  V30 5 N 5.363000 9.776000 1.078000 0
M  V30 6 N 7.378000 9.990000 3.528000 0
M  V30 7 C 4.058000 9.849000 4.883000 0
M  V30 8 C 4.148000 9.660000 0.531000 0
M  V30 9 C 8.248000 9.536000 2.438000 0 CFG=2
M  V30 10 C 8.178000 10.284000 4.721000 0 CFG=2
M  V30 11 C 9.013000 8.285000 2.821000 0 CFG=2
M  V30 12 C 8.863000 9.023000 5.213000 0 CFG=2
M  V30 13 C 9.777000 8.441000 4.138000 0 CFG=1
M  V30 14 C 3.767000 9.733000 2.690000 0
M  V30 15 C 5.960000 9.904000 3.572000 0
M  V30 16 C 5.119000 9.812000 2.453000 0
M  V30 17 H 10.768500 7.152500 5.407400 0
M  V30 18 H 9.482100 6.469700 4.668900 0
M  V30 19 H 3.676300 9.885500 5.806600 0
M  V30 20 H 3.980800 9.588500 -0.452300 0
M  V30 21 H 8.900500 10.261600 2.219600 0
M  V30 22 H 7.686200 9.339900 1.634300 0
M  V30 23 H 7.580800 10.638300 5.440600 0
M  V30 24 H 8.870000 10.969500 4.494500 0
M  V30 25 H 9.667200 8.074800 2.094400 0
M  V30 26 H 8.364700 7.529400 2.914600 0
M  V30 27 H 8.167600 8.345500 5.452700 0
M  V30 28 H 9.408200 9.241700 6.022300 0
M  V30 29 H 10.559400 9.048400 4.000300 0
M  V30 30 H 10.865800 6.715000 3.837100 0
M  V30 31 H 2.189900 9.594200 1.294000 0
M  V30 END ATOM
M  V30 BEGIN BOND
M  V30 1 1 1 13
M  V30 2 2 2 7
M  V30 3 1 2 14
M  V30 4 1 3 8
M  V30 5 1 3 14
M  V30 6 1 4 7
M  V30 7 2 4 15
M  V30 8 2 5 8
M  V30 9 1 5 16
M  V30 10 1 6 9
M  V30 11 1 6 10
M  V30 12 1 6 15
M  V30 13 1 9 11
M  V30 14 1 10 12
M  V30 15 1 11 13
M  V30 16 1 12 13
M  V30 17 2 14 16
M  V30 18 1 15 16
M  V30 19 1 1 17 CFG=1
M  V30 20 1 1 18
M  V30 21 1 3 31
M  V30 22 1 7 19
M  V30 23 1 8 20
M  V30 24 1 9 21 CFG=3
M  V30 25 1 9 22
M  V30 26 1 10 23 CFG=1
M  V30 27 1 10 24
M  V30 28 1 11 25 CFG=3
M  V30 29 1 11 26
M  V30 30 1 12 27 CFG=1
M  V30 31 1 12 28
M  V30 32 1 13 29 CFG=3
M  V30 33 1 1 30
M  V30 END BOND
M  V30 END CTAB
M  END
>  <Ligand_Instance>  (264) 
2VNY_M02_A_1351

>  <Dataset>  (264) 
PDB

>  <PDB_ID>  (264) 
2VNY

>  <Chain>  (264) 
A

>  <Resi>  (264) 
1351

>  <Num_Resolved_Atoms>  (264) 
16

>  <Num_H_Atoms_ProtBoundConf>  (264) 
15

>  <Pocket>  (264) 
A

>  <SMILES>  (264) 
c1[nH]c2c(n1)c(ncn2)N3CCC(CC3)N

>  <Name>  (264) 
1-(9H-purin-6-yl)piperidin-4-amine

>  <Num_Heavy_Atoms>  (264) 
16

>  <Num_Not_Resolved_Atoms>  (264) 
0

>  <ATP_Site>  (264) 
True

>  <Peripheral>  (264) 
False

>  <Standardized_SMILES>  (264) 
[H]C1=NC2=C(N=C([H])N2[H])C(N2C([H])([H])C([H])([H])C([H])([N+]([H])([H])[H])C([H])([H])C2([H])[H])=N1

$$$$
M03
     RDKit          3D

  0  0  0  0  0  0  0  0  0  0999 V3000
M  V30 BEGIN CTAB
M  V30 COUNTS 45 48 0 0 0
M  V30 BEGIN ATOM
M  V30 1 Cl 13.248000 12.973000 1.583000 0
M  V30 2 N 11.231000 6.798000 2.390000 0 CFG=1 CHG=1
M  V30 3 N 2.746000 9.214000 3.838000 0
M  V30 4 N 5.007000 9.625000 4.553000 0
M  V30 5 N 2.481000 8.947000 1.461000 0
M  V30 6 N 6.849000 9.678000 3.154000 0
M  V30 7 C 3.692000 9.471000 4.742000 0
M  V30 8 C 10.295000 7.152000 3.495000 0 CFG=2
M  V30 9 C 3.301000 8.959000 0.388000 0
M  V30 10 C 7.546000 9.315000 1.920000 0 CFG=2
M  V30 11 C 7.795000 10.014000 4.237000 0 CFG=2
M  V30 12 C 12.133000 11.249000 3.353000 0
M  V30 13 C 11.447000 11.007000 1.068000 0
M  V30 14 C 4.591000 9.169000 0.824000 0
M  V30 15 C 11.272000 10.233000 3.725000 0
M  V30 16 C 10.593000 9.977000 1.436000 0
M  V30 17 C 8.471000 8.147000 2.162000 0 CFG=2
M  V30 18 C 8.755000 8.860000 4.495000 0 CFG=2
M  V30 19 C 12.215000 11.649000 2.027000 0
M  V30 20 C 3.223000 9.150000 2.595000 0
M  V30 21 C 5.475000 9.527000 3.297000 0
M  V30 22 C 4.557000 9.317000 2.225000 0
M  V30 23 C 10.476000 9.592000 2.777000 0
M  V30 24 C 9.527000 8.455000 3.227000 0 CFG=1
M  V30 25 H 11.703600 5.945600 2.613700 0
M  V30 26 H 10.715500 6.680500 1.541200 0
M  V30 27 H 1.490600 8.811600 1.432500 0
M  V30 28 H 3.376300 9.560500 5.686600 0
M  V30 29 H 10.821600 7.258700 4.338400 0
M  V30 30 H 9.635200 6.408800 3.605800 0
M  V30 31 H 3.019100 8.836100 -0.563500 0
M  V30 32 H 8.080300 10.097800 1.600900 0
M  V30 33 H 6.873700 9.064100 1.223500 0
M  V30 34 H 7.281200 10.206000 5.073100 0
M  V30 35 H 8.319300 10.824100 3.974500 0
M  V30 36 H 12.699800 11.698100 4.043700 0
M  V30 37 H 11.508500 11.286500 0.109800 0
M  V30 38 H 5.407400 9.209300 0.247900 0
M  V30 39 H 11.219800 9.955100 4.684200 0
M  V30 40 H 10.056000 9.505200 0.736700 0
M  V30 41 H 8.934400 7.920600 1.305300 0
M  V30 42 H 7.927900 7.363600 2.464300 0
M  V30 43 H 8.232000 8.071900 4.819700 0
M  V30 44 H 9.410900 9.137000 5.197200 0
M  V30 45 H 11.901800 7.530500 2.273900 0
M  V30 END ATOM
M  V30 BEGIN BOND
M  V30 1 1 1 19
M  V30 2 1 2 8
M  V30 3 2 3 7
M  V30 4 1 3 20
M  V30 5 1 4 7
M  V30 6 2 4 21
M  V30 7 1 5 9
M  V30 8 1 5 20
M  V30 9 1 6 10
M  V30 10 1 6 11
M  V30 11 1 6 21
M  V30 12 1 8 24
M  V30 13 2 9 14
M  V30 14 1 10 17
M  V30 15 1 11 18
M  V30 16 2 12 15
M  V30 17 1 12 19
M  V30 18 1 13 16
M  V30 19 2 13 19
M  V30 20 1 14 22
M  V30 21 1 15 23
M  V30 22 2 16 23
M  V30 23 1 17 24
M  V30 24 1 18 24
M  V30 25 2 20 22
M  V30 26 1 21 22
M  V30 27 1 24 23 CFG=3
M  V30 28 1 2 25 CFG=1
M  V30 29 1 2 26
M  V30 30 1 5 27
M  V30 31 1 7 28
M  V30 32 1 8 29 CFG=1
M  V30 33 1 8 30
M  V30 34 1 9 31
M  V30 35 1 10 32 CFG=3
M  V30 36 1 10 33
M  V30 37 1 11 34 CFG=1
M  V30 38 1 11 35
M  V30 39 1 12 36
M  V30 40 1 13 37
M  V30 41 1 14 38
M  V30 42 1 15 39
M  V30 43 1 16 40
M  V30 44 1 17 41 CFG=3
M  V30 45 1 17 42
M  V30 46 1 18 43 CFG=1
M  V30 47 1 18 44
M  V30 48 1 2 45
M  V30 END BOND
M  V30 END CTAB
M  END
>  <Ligand_Instance>  (265) 
2VO0_M03_A_1354

>  <Dataset>  (265) 
PDB

>  <PDB_ID>  (265) 
2VO0

>  <Chain>  (265) 
A

>  <Resi>  (265) 
1354

>  <Num_Resolved_Atoms>  (265) 
24

>  <Num_H_Atoms_ProtBoundConf>  (265) 
21

>  <Pocket>  (265) 
A

>  <SMILES>  (265) 
c1cc(ccc1C2(CCN(CC2)c3c4cc[nH]c4ncn3)CN)Cl

>  <Name>  (265) 
1-[4-(4-chlorophenyl)-1-(7H-pyrrolo[2,3-d]pyrimidin-4-yl)piperidin-4-yl]methanamine

>  <Num_Heavy_Atoms>  (265) 
24

>  <Num_Not_Resolved_Atoms>  (265) 
0

>  <ATP_Site>  (265) 
True

>  <Peripheral>  (265) 
True

>  <Standardized_SMILES>  (265) 
[H]C1=NC2=C(C(N3C([H])([H])C([H])([H])C(C4=C([H])C([H])=C(Cl)C([H])=C4[H])(C([H])([H])[N+]([H])([H])[H])C([H])([H])C3([H])[H])=N1)C([H])=C([H])N2[H]

$$$$
M03
     RDKit          3D

  0  0  0  0  0  0  0  0  0  0999 V3000
M  V30 BEGIN CTAB
M  V30 COUNTS 45 48 0 0 0
M  V30 BEGIN ATOM
M  V30 1 Cl -12.957000 -6.156000 -7.571000 0
M  V30 2 N -10.158000 -10.822000 -11.119000 0 CFG=1 CHG=1
M  V30 3 N -2.575000 -11.475000 -8.943000 0
M  V30 4 N -4.874000 -11.171000 -8.288000 0
M  V30 5 N -1.502000 -9.425000 -9.681000 0
M  V30 6 N -5.995000 -9.127000 -8.328000 0
M  V30 7 C -3.767000 -11.888000 -8.500000 0
M  V30 8 C -8.999000 -9.903000 -11.322000 0 CFG=2
M  V30 9 C -1.860000 -8.126000 -9.769000 0
M  V30 10 C -7.173000 -9.877000 -7.874000 0 CFG=2
M  V30 11 C -6.446000 -7.979000 -9.136000 0 CFG=2
M  V30 12 C -10.926000 -6.526000 -9.309000 0
M  V30 13 C -11.345000 -8.309000 -7.762000 0
M  V30 14 C -3.178000 -8.006000 -9.387000 0
M  V30 15 C -9.887000 -7.240000 -9.857000 0
M  V30 16 C -10.308000 -9.029000 -8.312000 0
M  V30 17 C -7.938000 -10.423000 -9.075000 0 CFG=2
M  V30 18 C -7.208000 -8.444000 -10.364000 0 CFG=2
M  V30 19 C -11.655000 -7.058000 -8.260000 0
M  V30 20 C -2.564000 -10.151000 -9.203000 0
M  V30 21 C -4.837000 -9.844000 -8.570000 0
M  V30 22 C -3.636000 -9.280000 -9.029000 0
M  V30 23 C -9.555000 -8.495000 -9.357000 0
M  V30 24 C -8.434000 -9.305000 -10.006000 0 CFG=1
M  V30 25 H -11.008800 -10.297600 -11.151000 0
M  V30 26 H -10.165400 -11.513700 -11.841100 0
M  V30 27 H -0.606800 -9.798100 -9.924900 0
M  V30 28 H -3.839600 -12.865200 -8.300500 0
M  V30 29 H -9.293700 -9.149300 -11.909500 0
M  V30 30 H -8.268200 -10.413100 -11.775500 0
M  V30 31 H -1.267100 -7.376100 -10.062600 0
M  V30 32 H -7.769900 -9.270200 -7.349100 0
M  V30 33 H -6.878600 -10.637500 -7.295200 0
M  V30 34 H -5.648500 -7.450300 -9.426700 0
M  V30 35 H -7.043600 -7.402000 -8.579400 0
M  V30 36 H -11.155200 -5.621500 -9.668700 0
M  V30 37 H -11.872900 -8.690900 -7.003400 0
M  V30 38 H -3.712000 -7.160700 -9.368600 0
M  V30 39 H -9.366900 -6.855100 -10.619400 0
M  V30 40 H -10.093700 -9.940100 -7.959900 0
M  V30 41 H -8.727200 -10.941200 -8.745400 0
M  V30 42 H -7.334100 -11.028900 -9.592900 0
M  V30 43 H -6.592700 -8.984800 -10.937600 0
M  V30 44 H -7.517700 -7.640600 -10.872600 0
M  V30 45 H -10.076000 -11.270300 -10.228900 0
M  V30 END ATOM
M  V30 BEGIN BOND
M  V30 1 1 1 19
M  V30 2 1 2 8
M  V30 3 2 3 7
M  V30 4 1 3 20
M  V30 5 1 4 7
M  V30 6 2 4 21
M  V30 7 1 5 9
M  V30 8 1 5 20
M  V30 9 1 6 10
M  V30 10 1 6 11
M  V30 11 1 6 21
M  V30 12 1 8 24
M  V30 13 2 9 14
M  V30 14 1 10 17
M  V30 15 1 11 18
M  V30 16 2 12 15
M  V30 17 1 12 19
M  V30 18 1 13 16
M  V30 19 2 13 19
M  V30 20 1 14 22
M  V30 21 1 15 23
M  V30 22 2 16 23
M  V30 23 1 17 24
M  V30 24 1 18 24
M  V30 25 2 20 22
M  V30 26 1 21 22
M  V30 27 1 24 23 CFG=1
M  V30 28 1 2 25 CFG=1
M  V30 29 1 2 26
M  V30 30 1 5 27
M  V30 31 1 7 28
M  V30 32 1 8 29 CFG=3
M  V30 33 1 8 30
M  V30 34 1 9 31
M  V30 35 1 10 32 CFG=1
M  V30 36 1 10 33
M  V30 37 1 11 34 CFG=3
M  V30 38 1 11 35
M  V30 39 1 12 36
M  V30 40 1 13 37
M  V30 41 1 14 38
M  V30 42 1 15 39
M  V30 43 1 16 40
M  V30 44 1 17 41 CFG=1
M  V30 45 1 17 42
M  V30 46 1 18 43 CFG=3
M  V30 47 1 18 44
M  V30 48 1 2 45
M  V30 END BOND
M  V30 END CTAB
M  END
>  <Ligand_Instance>  (266) 
2VO0_M03_A_1355

>  <Dataset>  (266) 
PDB

>  <PDB_ID>  (266) 
2VO0

>  <Chain>  (266) 
A

>  <Resi>  (266) 
1355

>  <Num_Resolved_Atoms>  (266) 
24

>  <Num_H_Atoms_ProtBoundConf>  (266) 
21

>  <Pocket>  (266) 
X

>  <SMILES>  (266) 
c1cc(ccc1C2(CCN(CC2)c3c4cc[nH]c4ncn3)CN)Cl

>  <Name>  (266) 
1-[4-(4-chlorophenyl)-1-(7H-pyrrolo[2,3-d]pyrimidin-4-yl)piperidin-4-yl]methanamine

>  <Num_Heavy_Atoms>  (266) 
24

>  <Num_Not_Resolved_Atoms>  (266) 
0

>  <ATP_Site>  (266) 
True

>  <Peripheral>  (266) 
True

>  <Standardized_SMILES>  (266) 
[H]C1=NC2=C(C(N3C([H])([H])C([H])([H])C(C4=C([H])C([H])=C(Cl)C([H])=C4[H])(C([H])([H])[N+]([H])([H])[H])C([H])([H])C3([H])[H])=N1)C([H])=C([H])N2[H]

$$$$
M04
     RDKit          3D

  0  0  0  0  0  0  0  0  0  0999 V3000
M  V30 BEGIN CTAB
M  V30 COUNTS 48 51 0 0 0
M  V30 BEGIN ATOM
M  V30 1 Cl 13.016000 14.193000 -0.734000 0
M  V30 2 N 10.967000 6.884000 3.131000 0 CFG=1 CHG=1
M  V30 3 N 3.201000 9.721000 3.936000 0
M  V30 4 N 5.490000 9.858000 4.668000 0
M  V30 5 N 2.971000 9.529000 1.547000 0
M  V30 6 N 7.383000 9.830000 3.238000 0
M  V30 7 C 4.166000 9.827000 4.851000 0
M  V30 8 C 10.290000 7.913000 3.967000 0 CFG=2
M  V30 9 C 3.804000 9.503000 0.478000 0
M  V30 10 C 8.005000 8.922000 2.259000 0 CFG=2
M  V30 11 C 8.142000 9.929000 4.496000 0 CFG=2
M  V30 12 C 12.503000 11.611000 -0.115000 0
M  V30 13 C 12.426000 13.162000 1.702000 0
M  V30 14 C 5.096000 9.598000 0.930000 0
M  V30 15 C 12.216000 10.579000 0.755000 0
M  V30 16 C 12.138000 12.130000 2.570000 0
M  V30 17 C 9.463000 9.277000 2.000000 0 CFG=2
M  V30 18 C 9.601000 10.282000 4.235000 0 CFG=2
M  V30 19 C 11.757000 9.698000 3.059000 0 CFG=2
M  V30 20 C 12.602000 12.906000 0.354000 0
M  V30 21 C 3.699000 9.653000 2.694000 0
M  V30 22 C 5.956000 9.786000 3.408000 0
M  V30 23 C 12.018000 10.831000 2.104000 0
M  V30 24 C 5.038000 9.698000 2.353000 0
M  V30 25 C 10.292000 9.295000 3.286000 0 CFG=1
M  V30 26 H 11.940300 6.857000 3.358900 0
M  V30 27 H 10.558100 5.988800 3.308200 0
M  V30 28 H 1.974000 9.466700 1.501700 0
M  V30 29 H 3.858000 9.891900 5.800200 0
M  V30 30 H 10.766800 7.983200 4.843200 0
M  V30 31 H 9.343600 7.630900 4.124200 0
M  V30 32 H 3.524000 9.427300 -0.479000 0
M  V30 33 H 7.500300 8.980700 1.397700 0
M  V30 34 H 7.957600 7.986900 2.610100 0
M  V30 35 H 8.099400 9.050700 4.972300 0
M  V30 36 H 7.732400 10.639000 5.068700 0
M  V30 37 H 12.639600 11.420600 -1.087200 0
M  V30 38 H 12.507800 14.096900 2.047500 0
M  V30 39 H 5.923200 9.597300 0.368100 0
M  V30 40 H 12.150400 9.642700 0.410100 0
M  V30 41 H 12.014800 12.320900 3.543800 0
M  V30 42 H 9.503700 10.182800 1.578200 0
M  V30 43 H 9.852900 8.600500 1.375200 0
M  V30 44 H 10.090400 10.282300 5.107100 0
M  V30 45 H 9.641000 11.195500 3.830100 0
M  V30 46 H 12.138400 9.958200 3.946000 0
M  V30 47 H 12.239800 8.894200 2.711400 0
M  V30 48 H 10.857300 7.115000 2.164300 0
M  V30 END ATOM
M  V30 BEGIN BOND
M  V30 1 1 1 20
M  V30 2 1 2 8
M  V30 3 2 3 7
M  V30 4 1 3 21
M  V30 5 1 4 7
M  V30 6 2 4 22
M  V30 7 1 5 9
M  V30 8 1 5 21
M  V30 9 1 6 10
M  V30 10 1 6 11
M  V30 11 1 6 22
M  V30 12 1 8 25
M  V30 13 2 9 14
M  V30 14 1 10 17
M  V30 15 1 11 18
M  V30 16 2 12 15
M  V30 17 1 12 20
M  V30 18 1 13 16
M  V30 19 2 13 20
M  V30 20 1 14 24
M  V30 21 1 15 23
M  V30 22 2 16 23
M  V30 23 1 17 25
M  V30 24 1 18 25
M  V30 25 1 19 23
M  V30 26 1 25 19 CFG=3
M  V30 27 2 21 24
M  V30 28 1 22 24
M  V30 29 1 2 26 CFG=1
M  V30 30 1 2 27
M  V30 31 1 5 28
M  V30 32 1 7 29
M  V30 33 1 8 30 CFG=1
M  V30 34 1 8 31
M  V30 35 1 9 32
M  V30 36 1 10 33 CFG=3
M  V30 37 1 10 34
M  V30 38 1 11 35 CFG=1
M  V30 39 1 11 36
M  V30 40 1 12 37
M  V30 41 1 13 38
M  V30 42 1 14 39
M  V30 43 1 15 40
M  V30 44 1 16 41
M  V30 45 1 17 42 CFG=3
M  V30 46 1 17 43
M  V30 47 1 18 44 CFG=1
M  V30 48 1 18 45
M  V30 49 1 19 46 CFG=1
M  V30 50 1 19 47
M  V30 51 1 2 48
M  V30 END BOND
M  V30 END CTAB
M  END
>  <Ligand_Instance>  (267) 
2VO3_M04_A_1352

>  <Dataset>  (267) 
PDB

>  <PDB_ID>  (267) 
2VO3

>  <Chain>  (267) 
A

>  <Resi>  (267) 
1352

>  <Num_Resolved_Atoms>  (267) 
25

>  <Num_H_Atoms_ProtBoundConf>  (267) 
23

>  <Pocket>  (267) 
A

>  <SMILES>  (267) 
c1cc(ccc1CC2(CCN(CC2)c3c4cc[nH]c4ncn3)CN)Cl

>  <Name>  (267) 
1-[4-(4-chlorobenzyl)-1-(7H-pyrrolo[2,3-d]pyrimidin-4-yl)piperidin-4-yl]methanamine

>  <Num_Heavy_Atoms>  (267) 
25

>  <Num_Not_Resolved_Atoms>  (267) 
0

>  <ATP_Site>  (267) 
True

>  <Peripheral>  (267) 
False

>  <Standardized_SMILES>  (267) 
[H]C1=NC2=C(C(N3C([H])([H])C([H])([H])C(C([H])([H])C4=C([H])C([H])=C(Cl)C([H])=C4[H])(C([H])([H])[N+]([H])([H])[H])C([H])([H])C3([H])[H])=N1)C([H])=C([H])N2[H]

$$$$
M05
     RDKit          3D

  0  0  0  0  0  0  0  0  0  0999 V3000
M  V30 BEGIN CTAB
M  V30 COUNTS 45 48 0 0 0
M  V30 BEGIN ATOM
M  V30 1 Cl 13.315000 13.472000 -0.348000 0
M  V30 2 N 9.930000 7.398000 3.986000 0 CFG=1 CHG=1
M  V30 3 N 3.153000 9.919000 3.699000 0
M  V30 4 N 5.426000 9.892000 4.480000 0
M  V30 5 N 2.936000 9.738000 1.318000 0
M  V30 6 N 7.322000 9.653000 3.119000 0
M  V30 7 C 4.100000 9.930000 4.634000 0
M  V30 8 C 3.789000 9.640000 0.254000 0
M  V30 9 C 8.046000 9.690000 4.401000 0 CFG=2
M  V30 10 C 7.847000 8.667000 2.162000 0 CFG=2
M  V30 11 C 12.776000 12.288000 2.015000 0
M  V30 12 C 12.480000 10.925000 0.061000 0
M  V30 13 C 5.095000 9.615000 0.737000 0
M  V30 14 C 12.386000 11.238000 2.808000 0
M  V30 15 C 12.096000 9.861000 0.860000 0
M  V30 16 C 9.546000 9.830000 4.205000 0 CFG=2
M  V30 17 C 9.357000 8.779000 1.998000 0 CFG=2
M  V30 18 C 11.627000 8.875000 3.124000 0 CFG=2
M  V30 19 C 12.816000 12.140000 0.642000 0
M  V30 20 C 3.656000 9.793000 2.473000 0
M  V30 21 C 5.914000 9.721000 3.233000 0
M  V30 22 C 12.053000 10.011000 2.243000 0
M  V30 23 C 5.016000 9.716000 2.154000 0
M  V30 24 C 10.115000 8.713000 3.327000 0 CFG=2
M  V30 25 H 10.305400 6.677300 3.403200 0
M  V30 26 H 10.405100 7.396300 4.865900 0
M  V30 27 H 1.938200 9.765100 1.257600 0
M  V30 28 H 3.775000 9.972400 5.578800 0
M  V30 29 H 3.520600 9.594000 -0.708200 0
M  V30 30 H 7.863400 8.842400 4.899200 0
M  V30 31 H 7.716400 10.468400 4.935300 0
M  V30 32 H 7.413700 8.817200 1.273300 0
M  V30 33 H 7.625100 7.748800 2.490100 0
M  V30 34 H 13.031400 13.160700 2.431200 0
M  V30 35 H 12.515100 10.818200 -0.932700 0
M  V30 36 H 5.929800 9.540300 0.191500 0
M  V30 37 H 12.340800 11.355800 3.800000 0
M  V30 38 H 11.849900 8.985800 0.443600 0
M  V30 39 H 9.993000 9.797700 5.098900 0
M  V30 40 H 9.734200 10.710500 3.769900 0
M  V30 41 H 9.564800 9.651900 1.556700 0
M  V30 42 H 9.670000 8.028400 1.416100 0
M  V30 43 H 12.043600 9.011700 4.022700 0
M  V30 44 H 11.974200 8.028200 2.721000 0
M  V30 45 H 8.954700 7.233300 4.133400 0
M  V30 END ATOM
M  V30 BEGIN BOND
M  V30 1 1 1 19
M  V30 2 1 2 24
M  V30 3 2 3 7
M  V30 4 1 3 20
M  V30 5 1 4 7
M  V30 6 2 4 21
M  V30 7 1 5 8
M  V30 8 1 5 20
M  V30 9 1 6 9
M  V30 10 1 6 10
M  V30 11 1 6 21
M  V30 12 2 8 13
M  V30 13 1 9 16
M  V30 14 1 10 17
M  V30 15 2 11 14
M  V30 16 1 11 19
M  V30 17 1 12 15
M  V30 18 2 12 19
M  V30 19 1 13 23
M  V30 20 1 14 22
M  V30 21 2 15 22
M  V30 22 1 16 24
M  V30 23 1 17 24
M  V30 24 1 18 22
M  V30 25 1 24 18 CFG=3
M  V30 26 2 20 23
M  V30 27 1 21 23
M  V30 28 1 2 25 CFG=3
M  V30 29 1 2 26
M  V30 30 1 5 27
M  V30 31 1 7 28
M  V30 32 1 8 29
M  V30 33 1 9 30 CFG=1
M  V30 34 1 9 31
M  V30 35 1 10 32 CFG=3
M  V30 36 1 10 33
M  V30 37 1 11 34
M  V30 38 1 12 35
M  V30 39 1 13 36
M  V30 40 1 14 37
M  V30 41 1 15 38
M  V30 42 1 16 39 CFG=1
M  V30 43 1 16 40
M  V30 44 1 17 41 CFG=3
M  V30 45 1 17 42
M  V30 46 1 18 43 CFG=1
M  V30 47 1 18 44
M  V30 48 1 2 45
M  V30 END BOND
M  V30 END CTAB
M  END
>  <Ligand_Instance>  (268) 
2VO6_M05_A_1352

>  <Dataset>  (268) 
PDB

>  <PDB_ID>  (268) 
2VO6

>  <Chain>  (268) 
A

>  <Resi>  (268) 
1352

>  <Num_Resolved_Atoms>  (268) 
24

>  <Num_H_Atoms_ProtBoundConf>  (268) 
21

>  <Pocket>  (268) 
A

>  <SMILES>  (268) 
c1cc(ccc1CC2(CCN(CC2)c3c4cc[nH]c4ncn3)[NH3+])Cl

>  <Name>  (268) 
4-(4-chlorobenzyl)-1-(7H-pyrrolo[2,3-d]pyrimidin-4-yl)piperidin-4-aminium

>  <Num_Heavy_Atoms>  (268) 
24

>  <Num_Not_Resolved_Atoms>  (268) 
0

>  <ATP_Site>  (268) 
True

>  <Peripheral>  (268) 
False

>  <Standardized_SMILES>  (268) 
[H]C1=NC2=C(C(N3C([H])([H])C([H])([H])C(C([H])([H])C4=C([H])C([H])=C(Cl)C([H])=C4[H])([N+]([H])([H])[H])C([H])([H])C3([H])[H])=N1)C([H])=C([H])N2[H]

$$$$
M05
     RDKit          3D

  0  0  0  0  0  0  0  0  0  0999 V3000
M  V30 BEGIN CTAB
M  V30 COUNTS 45 48 0 0 0
M  V30 BEGIN ATOM
M  V30 1 Cl -15.451000 -8.197000 -6.402000 0
M  V30 2 N -10.073000 -9.203000 -10.713000 0 CFG=1 CHG=1
M  V30 3 N -3.390000 -10.870000 -8.469000 0
M  V30 4 N -5.704000 -10.463000 -7.920000 0
M  V30 5 N -2.258000 -8.892000 -9.322000 0
M  V30 6 N -6.809000 -8.394000 -8.200000 0
M  V30 7 C -4.602000 -11.218000 -8.032000 0
M  V30 8 C -2.608000 -7.606000 -9.571000 0
M  V30 9 C -8.030000 -8.805000 -7.494000 0 CFG=2
M  V30 10 C -7.124000 -7.329000 -9.157000 0 CFG=2
M  V30 11 C -13.751000 -8.372000 -8.503000 0
M  V30 12 C -12.928000 -7.223000 -6.561000 0
M  V30 13 C -3.928000 -7.441000 -9.250000 0
M  V30 14 C -12.554000 -8.138000 -9.148000 0
M  V30 15 C -11.729000 -6.994000 -7.201000 0
M  V30 16 C -9.058000 -9.356000 -8.471000 0 CFG=2
M  V30 17 C -8.071000 -7.859000 -10.218000 0 CFG=2
M  V30 18 C -10.216000 -7.185000 -9.193000 0 CFG=2
M  V30 19 C -13.942000 -7.913000 -7.209000 0
M  V30 20 C -3.346000 -9.569000 -8.844000 0
M  V30 21 C -5.636000 -9.177000 -8.330000 0
M  V30 22 C -11.523000 -7.460000 -8.496000 0
M  V30 23 C -4.410000 -8.671000 -8.789000 0
M  V30 24 C -9.383000 -8.408000 -9.639000 0 CFG=1
M  V30 25 H -10.701400 -8.609200 -11.215500 0
M  V30 26 H -9.390900 -9.575200 -11.342500 0
M  V30 27 H -1.348900 -9.283300 -9.465100 0
M  V30 28 H -4.701700 -12.172100 -7.749600 0
M  V30 29 H -2.002100 -6.895900 -9.929700 0
M  V30 30 H -8.417800 -8.013700 -7.021400 0
M  V30 31 H -7.800200 -9.512600 -6.825900 0
M  V30 32 H -6.280900 -7.012700 -9.591900 0
M  V30 33 H -7.557000 -6.566900 -8.675700 0
M  V30 34 H -14.480600 -8.872600 -8.968900 0
M  V30 35 H -13.067200 -6.891200 -5.628000 0
M  V30 36 H -4.453400 -6.594000 -9.330400 0
M  V30 37 H -12.424500 -8.455800 -10.087300 0
M  V30 38 H -11.003300 -6.490300 -6.732300 0
M  V30 39 H -9.903500 -9.537400 -7.968700 0
M  V30 40 H -8.705000 -10.211700 -8.849500 0
M  V30 41 H -7.611100 -8.594400 -10.715600 0
M  V30 42 H -8.289200 -7.114900 -10.849400 0
M  V30 43 H -9.649700 -6.646500 -8.569000 0
M  V30 44 H -10.418400 -6.644700 -10.009800 0
M  V30 45 H -10.585500 -9.953200 -10.295200 0
M  V30 END ATOM
M  V30 BEGIN BOND
M  V30 1 1 1 19
M  V30 2 1 2 24
M  V30 3 2 3 7
M  V30 4 1 3 20
M  V30 5 1 4 7
M  V30 6 2 4 21
M  V30 7 1 5 8
M  V30 8 1 5 20
M  V30 9 1 6 9
M  V30 10 1 6 10
M  V30 11 1 6 21
M  V30 12 2 8 13
M  V30 13 1 9 16
M  V30 14 1 10 17
M  V30 15 2 11 14
M  V30 16 1 11 19
M  V30 17 1 12 15
M  V30 18 2 12 19
M  V30 19 1 13 23
M  V30 20 1 14 22
M  V30 21 2 15 22
M  V30 22 1 16 24
M  V30 23 1 17 24
M  V30 24 1 18 22
M  V30 25 1 24 18 CFG=1
M  V30 26 2 20 23
M  V30 27 1 21 23
M  V30 28 1 2 25 CFG=3
M  V30 29 1 2 26
M  V30 30 1 5 27
M  V30 31 1 7 28
M  V30 32 1 8 29
M  V30 33 1 9 30 CFG=1
M  V30 34 1 9 31
M  V30 35 1 10 32 CFG=3
M  V30 36 1 10 33
M  V30 37 1 11 34
M  V30 38 1 12 35
M  V30 39 1 13 36
M  V30 40 1 14 37
M  V30 41 1 15 38
M  V30 42 1 16 39 CFG=1
M  V30 43 1 16 40
M  V30 44 1 17 41 CFG=3
M  V30 45 1 17 42
M  V30 46 1 18 43 CFG=1
M  V30 47 1 18 44
M  V30 48 1 2 45
M  V30 END BOND
M  V30 END CTAB
M  END
>  <Ligand_Instance>  (269) 
2VO7_M05_A_1351

>  <Dataset>  (269) 
PDB

>  <PDB_ID>  (269) 
2VO7

>  <Chain>  (269) 
A

>  <Resi>  (269) 
1351

>  <Num_Resolved_Atoms>  (269) 
24

>  <Num_H_Atoms_ProtBoundConf>  (269) 
21

>  <Pocket>  (269) 
X

>  <SMILES>  (269) 
c1cc(ccc1CC2(CCN(CC2)c3c4cc[nH]c4ncn3)[NH3+])Cl

>  <Name>  (269) 
4-(4-chlorobenzyl)-1-(7H-pyrrolo[2,3-d]pyrimidin-4-yl)piperidin-4-aminium

>  <Num_Heavy_Atoms>  (269) 
24

>  <Num_Not_Resolved_Atoms>  (269) 
0

>  <ATP_Site>  (269) 
True

>  <Peripheral>  (269) 
True

>  <Standardized_SMILES>  (269) 
[H]C1=NC2=C(C(N3C([H])([H])C([H])([H])C(C([H])([H])C4=C([H])C([H])=C(Cl)C([H])=C4[H])([N+]([H])([H])[H])C([H])([H])C3([H])[H])=N1)C([H])=C([H])N2[H]

$$$$
M05
     RDKit          3D

  0  0  0  0  0  0  0  0  0  0999 V3000
M  V30 BEGIN CTAB
M  V30 COUNTS 45 48 0 0 0
M  V30 BEGIN ATOM
M  V30 1 Cl 15.137000 9.467000 -0.966000 0
M  V30 2 N 11.091000 7.734000 3.937000 0 CFG=1 CHG=1
M  V30 3 N 3.201000 10.089000 4.238000 0
M  V30 4 N 5.440000 9.887000 5.101000 0
M  V30 5 N 3.050000 10.109000 1.829000 0
M  V30 6 N 7.371000 9.747000 3.742000 0
M  V30 7 C 4.110000 10.000000 5.214000 0
M  V30 8 C 3.923000 10.094000 0.805000 0
M  V30 9 C 8.073000 9.577000 2.461000 0 CFG=2
M  V30 10 C 8.259000 10.142000 4.834000 0 CFG=2
M  V30 11 C 14.309000 9.395000 1.630000 0
M  V30 12 C 12.680000 10.111000 0.007000 0
M  V30 13 C 5.198000 9.983000 1.316000 0
M  V30 14 C 13.366000 9.548000 2.639000 0
M  V30 15 C 11.750000 10.283000 1.017000 0
M  V30 16 C 9.227000 8.593000 2.583000 0 CFG=2
M  V30 17 C 9.366000 9.116000 5.015000 0 CFG=2
M  V30 18 C 11.053000 10.162000 3.438000 0 CFG=2
M  V30 19 C 13.965000 9.668000 0.307000 0
M  V30 20 C 3.738000 10.072000 3.018000 0
M  V30 21 C 5.962000 9.880000 3.843000 0
M  V30 22 C 12.078000 9.995000 2.344000 0
M  V30 23 C 5.093000 9.978000 2.733000 0
M  V30 24 C 10.189000 8.917000 3.740000 0 CFG=1
M  V30 25 H 11.976100 8.043800 4.284300 0
M  V30 26 H 10.676600 7.104700 4.594500 0
M  V30 27 H 2.054600 10.142000 1.738700 0
M  V30 28 H 3.751500 10.020400 6.147300 0
M  V30 29 H 3.686100 10.153500 -0.164700 0
M  V30 30 H 8.431400 10.463100 2.166900 0
M  V30 31 H 7.426100 9.236000 1.778900 0
M  V30 32 H 7.730600 10.209300 5.680300 0
M  V30 33 H 8.665200 11.031100 4.623100 0
M  V30 34 H 15.234600 9.089000 1.853000 0
M  V30 35 H 12.428300 10.305500 -0.941000 0
M  V30 36 H 6.043400 9.917800 0.785900 0
M  V30 37 H 13.612800 9.335900 3.584600 0
M  V30 38 H 10.833900 10.616800 0.794800 0
M  V30 39 H 9.745000 8.604800 1.727700 0
M  V30 40 H 8.849500 7.679000 2.731500 0
M  V30 41 H 8.954800 8.241400 5.271900 0
M  V30 42 H 9.974800 9.425500 5.745500 0
M  V30 43 H 10.439000 10.905600 3.173300 0
M  V30 44 H 11.536500 10.411700 4.277000 0
M  V30 45 H 11.221400 7.265100 3.063400 0
M  V30 END ATOM
M  V30 BEGIN BOND
M  V30 1 1 1 19
M  V30 2 1 2 24
M  V30 3 2 3 7
M  V30 4 1 3 20
M  V30 5 1 4 7
M  V30 6 2 4 21
M  V30 7 1 5 8
M  V30 8 1 5 20
M  V30 9 1 6 9
M  V30 10 1 6 10
M  V30 11 1 6 21
M  V30 12 2 8 13
M  V30 13 1 9 16
M  V30 14 1 10 17
M  V30 15 2 11 14
M  V30 16 1 11 19
M  V30 17 1 12 15
M  V30 18 2 12 19
M  V30 19 1 13 23
M  V30 20 1 14 22
M  V30 21 2 15 22
M  V30 22 1 16 24
M  V30 23 1 17 24
M  V30 24 1 18 22
M  V30 25 1 24 18 CFG=3
M  V30 26 2 20 23
M  V30 27 1 21 23
M  V30 28 1 2 25 CFG=1
M  V30 29 1 2 26
M  V30 30 1 5 27
M  V30 31 1 7 28
M  V30 32 1 8 29
M  V30 33 1 9 30 CFG=3
M  V30 34 1 9 31
M  V30 35 1 10 32 CFG=1
M  V30 36 1 10 33
M  V30 37 1 11 34
M  V30 38 1 12 35
M  V30 39 1 13 36
M  V30 40 1 14 37
M  V30 41 1 15 38
M  V30 42 1 16 39 CFG=3
M  V30 43 1 16 40
M  V30 44 1 17 41 CFG=1
M  V30 45 1 17 42
M  V30 46 1 18 43 CFG=3
M  V30 47 1 18 44
M  V30 48 1 2 45
M  V30 END BOND
M  V30 END CTAB
M  END
>  <Ligand_Instance>  (270) 
2VO7_M05_A_1352

>  <Dataset>  (270) 
PDB

>  <PDB_ID>  (270) 
2VO7

>  <Chain>  (270) 
A

>  <Resi>  (270) 
1352

>  <Num_Resolved_Atoms>  (270) 
24

>  <Num_H_Atoms_ProtBoundConf>  (270) 
21

>  <Pocket>  (270) 
A

>  <SMILES>  (270) 
c1cc(ccc1CC2(CCN(CC2)c3c4cc[nH]c4ncn3)[NH3+])Cl

>  <Name>  (270) 
4-(4-chlorobenzyl)-1-(7H-pyrrolo[2,3-d]pyrimidin-4-yl)piperidin-4-aminium

>  <Num_Heavy_Atoms>  (270) 
24

>  <Num_Not_Resolved_Atoms>  (270) 
0

>  <ATP_Site>  (270) 
True

>  <Peripheral>  (270) 
True

>  <Standardized_SMILES>  (270) 
[H]C1=NC2=C(C(N3C([H])([H])C([H])([H])C(C([H])([H])C4=C([H])C([H])=C(Cl)C([H])=C4[H])([N+]([H])([H])[H])C([H])([H])C3([H])[H])=N1)C([H])=C([H])N2[H]

$$$$
M77
     RDKit          3D

  0  0  0  0  0  0  0  0  0  0999 V3000
M  V30 BEGIN CTAB
M  V30 COUNTS 38 40 0 0 0
M  V30 BEGIN ATOM
M  V30 1 S 8.563000 10.075000 4.078000 0 CFG=1
M  V30 2 O 8.663000 11.083000 5.139000 0
M  V30 3 O 9.579000 10.222000 3.061000 0
M  V30 4 N 11.115000 7.145000 3.466000 0 CFG=2 CHG=1
M  V30 5 N 3.188000 9.925000 4.830000 0
M  V30 6 N 8.747000 8.590000 4.661000 0
M  V30 7 C 9.816000 7.411000 2.717000 0 CFG=2
M  V30 8 C 11.348000 7.920000 4.747000 0 CFG=2
M  V30 9 C 4.255000 9.932000 5.680000 0
M  V30 10 C 3.389000 10.008000 3.514000 0
M  V30 11 C 8.640000 7.443000 3.702000 0 CFG=2
M  V30 12 C 9.174000 8.430000 6.043000 0 CFG=2
M  V30 13 C 10.464000 7.571000 5.947000 0 CFG=2
M  V30 14 C 6.079000 10.134000 0.924000 0
M  V30 15 C 5.529000 9.971000 5.176000 0
M  V30 16 C 7.229000 10.147000 1.768000 0
M  V30 17 C 4.817000 10.103000 1.512000 0
M  V30 18 C 7.082000 10.085000 3.146000 0
M  V30 19 C 4.653000 10.068000 2.912000 0
M  V30 20 C 5.784000 10.028000 3.764000 0
M  V30 21 H 11.869200 7.357400 2.844700 0
M  V30 22 H 9.666100 6.685200 2.045700 0
M  V30 23 H 9.878800 8.291600 2.247400 0
M  V30 24 H 11.208200 8.888700 4.542100 0
M  V30 25 H 12.298400 7.770900 5.020100 0
M  V30 26 H 4.107900 9.908700 6.668900 0
M  V30 27 H 2.585900 10.028700 2.918600 0
M  V30 28 H 7.788000 7.531200 3.185900 0
M  V30 29 H 8.628800 6.587900 4.220300 0
M  V30 30 H 8.473100 7.958500 6.578300 0
M  V30 31 H 9.369600 9.318200 6.458700 0
M  V30 32 H 10.997000 7.707500 6.782000 0
M  V30 33 H 10.198400 6.609600 5.874500 0
M  V30 34 H 6.177200 10.146900 -0.071100 0
M  V30 35 H 6.302700 9.959400 5.809400 0
M  V30 36 H 8.142800 10.200900 1.365500 0
M  V30 37 H 4.006400 10.105600 0.926400 0
M  V30 38 H 11.136000 6.171900 3.695300 0
M  V30 END ATOM
M  V30 BEGIN BOND
M  V30 1 2 1 2
M  V30 2 2 1 3
M  V30 3 1 1 6 CFG=1
M  V30 4 1 1 18
M  V30 5 1 4 7
M  V30 6 1 4 8
M  V30 7 2 5 9
M  V30 8 1 5 10
M  V30 9 1 6 11
M  V30 10 1 6 12
M  V30 11 1 7 11
M  V30 12 1 8 13
M  V30 13 1 9 15
M  V30 14 2 10 19
M  V30 15 1 12 13
M  V30 16 1 14 16
M  V30 17 2 14 17
M  V30 18 2 15 20
M  V30 19 2 16 18
M  V30 20 1 17 19
M  V30 21 1 18 20
M  V30 22 1 19 20
M  V30 23 1 4 21 CFG=3
M  V30 24 1 7 22 CFG=3
M  V30 25 1 7 23
M  V30 26 1 8 24 CFG=3
M  V30 27 1 8 25
M  V30 28 1 9 26
M  V30 29 1 10 27
M  V30 30 1 11 28 CFG=3
M  V30 31 1 11 29
M  V30 32 1 12 30 CFG=1
M  V30 33 1 12 31
M  V30 34 1 13 32 CFG=1
M  V30 35 1 13 33
M  V30 36 1 14 34
M  V30 37 1 15 35
M  V30 38 1 16 36
M  V30 39 1 17 37
M  V30 40 1 4 38
M  V30 END BOND
M  V30 END CTAB
M  END
>  <Ligand_Instance>  (271) 
2GNI_M77_A_601

>  <Dataset>  (271) 
PDB

>  <PDB_ID>  (271) 
2GNI

>  <Chain>  (271) 
A

>  <Resi>  (271) 
601

>  <Num_Resolved_Atoms>  (271) 
20

>  <Num_H_Atoms_ProtBoundConf>  (271) 
18

>  <Pocket>  (271) 
A

>  <SMILES>  (271) 
c1cc2cnccc2c(c1)S(=O)(=O)N3CCCNCC3

>  <Name>  (271) 
5-(1,4-DIAZEPAN-1-SULFONYL)ISOQUINOLINE

>  <Num_Heavy_Atoms>  (271) 
20

>  <Num_Not_Resolved_Atoms>  (271) 
0

>  <ATP_Site>  (271) 
True

>  <Peripheral>  (271) 
False

>  <Standardized_SMILES>  (271) 
[H]C1=NC([H])=C2C([H])=C([H])C([H])=C(S(=O)(=O)N3C([H])([H])C([H])([H])C([H])([H])[N+]([H])([H])C([H])([H])C3([H])[H])C2=C1[H]

$$$$
M77
     RDKit          3D

  0  0  0  0  0  0  0  0  0  0999 V3000
M  V30 BEGIN CTAB
M  V30 COUNTS 38 40 0 0 0
M  V30 BEGIN ATOM
M  V30 1 S -13.663000 -24.930000 27.296000 0 CFG=1
M  V30 2 O -13.087000 -25.994000 26.539000 0
M  V30 3 O -14.193000 -25.197000 28.594000 0
M  V30 4 N -9.524000 -22.917000 26.967000 0 CFG=2 CHG=1
M  V30 5 N -17.350000 -26.309000 23.599000 0
M  V30 6 N -12.493000 -23.806000 27.481000 0
M  V30 7 C -10.435000 -23.695000 26.075000 0 CFG=2
M  V30 8 C -9.796000 -23.079000 28.426000 0 CFG=2
M  V30 9 C -16.582000 -26.958000 24.486000 0
M  V30 10 C -17.364000 -24.981000 23.653000 0
M  V30 11 C -11.880000 -23.295000 26.243000 0 CFG=2
M  V30 12 C -12.386000 -23.033000 28.731000 0 CFG=2
M  V30 13 C -11.038000 -22.338000 28.885000 0 CFG=2
M  V30 14 C -15.834000 -22.115000 25.480000 0
M  V30 15 C -15.777000 -26.340000 25.398000 0
M  V30 16 C -14.964000 -22.788000 26.324000 0
M  V30 17 C -16.630000 -22.800000 24.612000 0
M  V30 18 C -14.904000 -24.156000 26.304000 0
M  V30 19 C -16.601000 -24.217000 24.564000 0
M  V30 20 C -15.748000 -24.926000 25.450000 0
M  V30 21 H -9.616100 -21.947900 26.738200 0
M  V30 22 H -10.343300 -24.667100 26.290800 0
M  V30 23 H -10.166200 -23.537600 25.124800 0
M  V30 24 H -9.010200 -22.730500 28.937000 0
M  V30 25 H -9.915500 -24.052400 28.621400 0
M  V30 26 H -16.600400 -27.957800 24.478700 0
M  V30 27 H -17.951500 -24.492000 23.008300 0
M  V30 28 H -11.932500 -22.296400 26.253000 0
M  V30 29 H -12.398400 -23.648300 25.464300 0
M  V30 30 H -12.514100 -23.655500 29.503100 0
M  V30 31 H -13.105700 -22.338800 28.739500 0
M  V30 32 H -11.083100 -21.484100 28.366500 0
M  V30 33 H -10.919100 -22.132200 29.856400 0
M  V30 34 H -15.877700 -21.116400 25.508600 0
M  V30 35 H -15.213600 -26.880400 26.022900 0
M  V30 36 H -14.378200 -22.272700 26.949600 0
M  V30 37 H -17.242100 -22.297500 24.001400 0
M  V30 38 H -8.585600 -23.213600 26.789800 0
M  V30 END ATOM
M  V30 BEGIN BOND
M  V30 1 2 1 2
M  V30 2 2 1 3
M  V30 3 1 1 6 CFG=1
M  V30 4 1 1 18
M  V30 5 1 4 7
M  V30 6 1 4 8
M  V30 7 2 5 9
M  V30 8 1 5 10
M  V30 9 1 6 11
M  V30 10 1 6 12
M  V30 11 1 7 11
M  V30 12 1 8 13
M  V30 13 1 9 15
M  V30 14 2 10 19
M  V30 15 1 12 13
M  V30 16 1 14 16
M  V30 17 2 14 17
M  V30 18 2 15 20
M  V30 19 2 16 18
M  V30 20 1 17 19
M  V30 21 1 18 20
M  V30 22 1 19 20
M  V30 23 1 4 21 CFG=3
M  V30 24 1 7 22 CFG=1
M  V30 25 1 7 23
M  V30 26 1 8 24 CFG=1
M  V30 27 1 8 25
M  V30 28 1 9 26
M  V30 29 1 10 27
M  V30 30 1 11 28 CFG=1
M  V30 31 1 11 29
M  V30 32 1 12 30 CFG=1
M  V30 33 1 12 31
M  V30 34 1 13 32 CFG=3
M  V30 35 1 13 33
M  V30 36 1 14 34
M  V30 37 1 15 35
M  V30 38 1 16 36
M  V30 39 1 17 37
M  V30 40 1 4 38
M  V30 END BOND
M  V30 END CTAB
M  END
>  <Ligand_Instance>  (272) 
5LCP_M77_A_401

>  <Dataset>  (272) 
PDB

>  <PDB_ID>  (272) 
5LCP

>  <Chain>  (272) 
A

>  <Resi>  (272) 
401

>  <Num_Resolved_Atoms>  (272) 
20

>  <Num_H_Atoms_ProtBoundConf>  (272) 
18

>  <Pocket>  (272) 
A

>  <SMILES>  (272) 
c1cc2cnccc2c(c1)S(=O)(=O)N3CCCNCC3

>  <Name>  (272) 
5-(1,4-DIAZEPAN-1-SULFONYL)ISOQUINOLINE

>  <Num_Heavy_Atoms>  (272) 
20

>  <Num_Not_Resolved_Atoms>  (272) 
0

>  <ATP_Site>  (272) 
True

>  <Peripheral>  (272) 
False

>  <Standardized_SMILES>  (272) 
[H]C1=NC([H])=C2C([H])=C([H])C([H])=C(S(=O)(=O)N3C([H])([H])C([H])([H])C([H])([H])[N+]([H])([H])C([H])([H])C3([H])[H])C2=C1[H]

$$$$
M77
     RDKit          3D

  0  0  0  0  0  0  0  0  0  0999 V3000
M  V30 BEGIN CTAB
M  V30 COUNTS 38 40 0 0 0
M  V30 BEGIN ATOM
M  V30 1 S 7.787000 10.831000 7.996000 0 CFG=2
M  V30 2 O 7.038000 10.511000 6.824000 0
M  V30 3 O 8.140000 9.796000 8.918000 0
M  V30 4 N 4.533000 12.733000 10.447000 0 CFG=2 CHG=1
M  V30 5 N 12.982000 9.737000 7.037000 0
M  V30 6 N 6.913000 11.919000 8.842000 0
M  V30 7 C 4.961000 13.460000 9.241000 0 CFG=2
M  V30 8 C 5.483000 12.764000 11.567000 0 CFG=2
M  V30 9 C 11.854000 9.026000 7.194000 0
M  V30 10 C 12.875000 11.058000 6.985000 0
M  V30 11 C 5.773000 12.633000 8.231000 0 CFG=2
M  V30 12 C 7.506000 12.463000 10.080000 0 CFG=2
M  V30 13 C 6.785000 12.034000 11.338000 0 CFG=2
M  V30 14 C 10.351000 13.795000 7.237000 0
M  V30 15 C 10.614000 9.577000 7.312000 0
M  V30 16 C 9.200000 13.055000 7.457000 0
M  V30 17 C 11.557000 13.174000 7.064000 0
M  V30 18 C 9.253000 11.686000 7.504000 0
M  V30 19 C 11.653000 11.759000 7.090000 0
M  V30 20 C 10.477000 10.986000 7.283000 0
M  V30 21 H 4.383200 11.777000 10.194900 0
M  V30 22 H 5.523800 14.234400 9.530100 0
M  V30 23 H 4.142300 13.797900 8.776800 0
M  V30 24 H 5.035600 12.353400 12.361500 0
M  V30 25 H 5.697000 13.721000 11.762600 0
M  V30 26 H 11.928900 8.029300 7.226300 0
M  V30 27 H 13.712100 11.591400 6.863800 0
M  V30 28 H 5.165000 11.959300 7.810800 0
M  V30 29 H 6.125300 13.249200 7.526600 0
M  V30 30 H 7.484200 13.461400 10.028400 0
M  V30 31 H 8.454900 12.152900 10.138500 0
M  V30 32 H 6.591500 11.055000 11.273300 0
M  V30 33 H 7.384700 12.204300 12.119900 0
M  V30 34 H 10.299100 14.793100 7.204400 0
M  V30 35 H 9.809300 8.992900 7.417900 0
M  V30 36 H 8.325100 13.522800 7.582300 0
M  V30 37 H 12.379800 13.723100 6.917600 0
M  V30 38 H 3.672200 13.133800 10.760500 0
M  V30 END ATOM
M  V30 BEGIN BOND
M  V30 1 2 1 2
M  V30 2 2 1 3
M  V30 3 1 1 6 CFG=1
M  V30 4 1 1 18
M  V30 5 1 4 7
M  V30 6 1 4 8
M  V30 7 2 5 9
M  V30 8 1 5 10
M  V30 9 1 6 11
M  V30 10 1 6 12
M  V30 11 1 7 11
M  V30 12 1 8 13
M  V30 13 1 9 15
M  V30 14 2 10 19
M  V30 15 1 12 13
M  V30 16 1 14 16
M  V30 17 2 14 17
M  V30 18 2 15 20
M  V30 19 2 16 18
M  V30 20 1 17 19
M  V30 21 1 18 20
M  V30 22 1 19 20
M  V30 23 1 4 21 CFG=3
M  V30 24 1 7 22 CFG=1
M  V30 25 1 7 23
M  V30 26 1 8 24 CFG=1
M  V30 27 1 8 25
M  V30 28 1 9 26
M  V30 29 1 10 27
M  V30 30 1 11 28 CFG=3
M  V30 31 1 11 29
M  V30 32 1 12 30 CFG=3
M  V30 33 1 12 31
M  V30 34 1 13 32 CFG=3
M  V30 35 1 13 33
M  V30 36 1 14 34
M  V30 37 1 15 35
M  V30 38 1 16 36
M  V30 39 1 17 37
M  V30 40 1 4 38
M  V30 END BOND
M  V30 END CTAB
M  END
>  <Ligand_Instance>  (273) 
5NW8_M77_A_402

>  <Dataset>  (273) 
PDB

>  <PDB_ID>  (273) 
5NW8

>  <Chain>  (273) 
A

>  <Resi>  (273) 
402

>  <Num_Resolved_Atoms>  (273) 
20

>  <Num_H_Atoms_ProtBoundConf>  (273) 
18

>  <Pocket>  (273) 
A

>  <SMILES>  (273) 
c1cc2cnccc2c(c1)S(=O)(=O)N3CCCNCC3

>  <Name>  (273) 
5-(1,4-DIAZEPAN-1-SULFONYL)ISOQUINOLINE

>  <Num_Heavy_Atoms>  (273) 
20

>  <Num_Not_Resolved_Atoms>  (273) 
0

>  <ATP_Site>  (273) 
True

>  <Peripheral>  (273) 
False

>  <Standardized_SMILES>  (273) 
[H]C1=NC([H])=C2C([H])=C([H])C([H])=C(S(=O)(=O)N3C([H])([H])C([H])([H])C([H])([H])[N+]([H])([H])C([H])([H])C3([H])[H])C2=C1[H]

$$$$
M77
     RDKit          3D

  0  0  0  0  0  0  0  0  0  0999 V3000
M  V30 BEGIN CTAB
M  V30 COUNTS 38 40 0 0 0
M  V30 BEGIN ATOM
M  V30 1 S -13.592000 -25.153000 27.179000 0 CFG=2
M  V30 2 O -14.106000 -25.433000 28.480000 0
M  V30 3 O -13.050000 -26.211000 26.386000 0
M  V30 4 N -9.425000 -23.263000 26.811000 0 CFG=2 CHG=1
M  V30 5 N -17.333000 -26.476000 23.512000 0
M  V30 6 N -12.414000 -24.049000 27.361000 0
M  V30 7 C -10.364000 -23.978000 25.958000 0 CFG=2
M  V30 8 C -9.723000 -23.330000 28.239000 0 CFG=2
M  V30 9 C -16.557000 -27.135000 24.386000 0
M  V30 10 C -17.327000 -25.152000 23.565000 0
M  V30 11 C -11.795000 -23.519000 26.131000 0 CFG=2
M  V30 12 C -12.249000 -23.283000 28.614000 0 CFG=2
M  V30 13 C -10.919000 -22.549000 28.727000 0 CFG=2
M  V30 14 C -15.788000 -22.311000 25.420000 0
M  V30 15 C -15.736000 -26.529000 25.289000 0
M  V30 16 C -14.908000 -22.996000 26.247000 0
M  V30 17 C -16.585000 -22.983000 24.542000 0
M  V30 18 C -14.846000 -24.364000 26.211000 0
M  V30 19 C -16.552000 -24.401000 24.472000 0
M  V30 20 C -15.696000 -25.119000 25.347000 0
M  V30 21 H -9.426300 -22.301100 26.537600 0
M  V30 22 H -10.314100 -24.952400 26.177300 0
M  V30 23 H -10.098100 -23.836900 25.004400 0
M  V30 24 H -8.920700 -22.991600 28.730800 0
M  V30 25 H -9.875200 -24.290800 28.470600 0
M  V30 26 H -16.582800 -28.134600 24.373900 0
M  V30 27 H -17.908600 -24.654500 22.921400 0
M  V30 28 H -11.808700 -22.519900 26.170000 0
M  V30 29 H -12.328600 -23.829200 25.344200 0
M  V30 30 H -12.322400 -23.918900 29.382200 0
M  V30 31 H -12.985100 -22.608300 28.668300 0
M  V30 32 H -10.981300 -21.707400 28.190400 0
M  V30 33 H -10.770200 -22.320600 29.689100 0
M  V30 34 H -15.837600 -21.313400 25.469100 0
M  V30 35 H -15.168300 -27.076700 25.903600 0
M  V30 36 H -14.316000 -22.487800 26.872500 0
M  V30 37 H -17.199500 -22.472100 23.940800 0
M  V30 38 H -8.514600 -23.649900 26.664500 0
M  V30 END ATOM
M  V30 BEGIN BOND
M  V30 1 2 1 2
M  V30 2 2 1 3
M  V30 3 1 1 6 CFG=1
M  V30 4 1 1 18
M  V30 5 1 4 7
M  V30 6 1 4 8
M  V30 7 2 5 9
M  V30 8 1 5 10
M  V30 9 1 6 11
M  V30 10 1 6 12
M  V30 11 1 7 11
M  V30 12 1 8 13
M  V30 13 1 9 15
M  V30 14 2 10 19
M  V30 15 1 12 13
M  V30 16 1 14 16
M  V30 17 2 14 17
M  V30 18 2 15 20
M  V30 19 2 16 18
M  V30 20 1 17 19
M  V30 21 1 18 20
M  V30 22 1 19 20
M  V30 23 1 4 21 CFG=3
M  V30 24 1 7 22 CFG=1
M  V30 25 1 7 23
M  V30 26 1 8 24 CFG=1
M  V30 27 1 8 25
M  V30 28 1 9 26
M  V30 29 1 10 27
M  V30 30 1 11 28 CFG=1
M  V30 31 1 11 29
M  V30 32 1 12 30 CFG=1
M  V30 33 1 12 31
M  V30 34 1 13 32 CFG=3
M  V30 35 1 13 33
M  V30 36 1 14 34
M  V30 37 1 15 35
M  V30 38 1 16 36
M  V30 39 1 17 37
M  V30 40 1 4 38
M  V30 END BOND
M  V30 END CTAB
M  END
>  <Ligand_Instance>  (274) 
5O0E_M77_A_401

>  <Dataset>  (274) 
PDB

>  <PDB_ID>  (274) 
5O0E

>  <Chain>  (274) 
A

>  <Resi>  (274) 
401

>  <Num_Resolved_Atoms>  (274) 
20

>  <Num_H_Atoms_ProtBoundConf>  (274) 
18

>  <Pocket>  (274) 
A

>  <SMILES>  (274) 
c1cc2cnccc2c(c1)S(=O)(=O)N3CCCNCC3

>  <Name>  (274) 
5-(1,4-DIAZEPAN-1-SULFONYL)ISOQUINOLINE

>  <Num_Heavy_Atoms>  (274) 
20

>  <Num_Not_Resolved_Atoms>  (274) 
0

>  <ATP_Site>  (274) 
True

>  <Peripheral>  (274) 
False

>  <Standardized_SMILES>  (274) 
[H]C1=NC([H])=C2C([H])=C([H])C([H])=C(S(=O)(=O)N3C([H])([H])C([H])([H])C([H])([H])[N+]([H])([H])C([H])([H])C3([H])[H])C2=C1[H]

$$$$
M77
     RDKit          3D

  0  0  0  0  0  0  0  0  0  0999 V3000
M  V30 BEGIN CTAB
M  V30 COUNTS 38 40 0 0 0
M  V30 BEGIN ATOM
M  V30 1 S -13.615000 -25.408000 27.138000 0 CFG=2
M  V30 2 O -14.134000 -25.676000 28.441000 0
M  V30 3 O -13.060000 -26.471000 26.366000 0
M  V30 4 N -9.408000 -23.506000 26.861000 0 CFG=2 CHG=1
M  V30 5 N -17.347000 -26.649000 23.384000 0
M  V30 6 N -12.431000 -24.307000 27.329000 0
M  V30 7 C -10.392000 -24.155000 25.943000 0 CFG=2
M  V30 8 C -9.741000 -23.548000 28.281000 0 CFG=2
M  V30 9 C -16.576000 -27.337000 24.242000 0
M  V30 10 C -17.340000 -25.330000 23.477000 0
M  V30 11 C -11.817000 -23.741000 26.111000 0 CFG=2
M  V30 12 C -12.279000 -23.580000 28.605000 0 CFG=2
M  V30 13 C -10.984000 -22.791000 28.711000 0 CFG=2
M  V30 14 C -15.769000 -22.545000 25.384000 0
M  V30 15 C -15.771000 -26.761000 25.180000 0
M  V30 16 C -14.915000 -23.252000 26.220000 0
M  V30 17 C -16.571000 -23.191000 24.495000 0
M  V30 18 C -14.873000 -24.618000 26.165000 0
M  V30 19 C -16.564000 -24.604000 24.410000 0
M  V30 20 C -15.724000 -25.354000 25.280000 0
M  V30 21 H -9.325700 -22.546000 26.593400 0
M  V30 22 H -10.341300 -25.142900 26.089400 0
M  V30 23 H -10.120500 -23.942700 25.004300 0
M  V30 24 H -8.965400 -23.169000 28.785700 0
M  V30 25 H -9.867100 -24.507000 28.534600 0
M  V30 26 H -16.593400 -28.335500 24.189600 0
M  V30 27 H -17.920300 -24.813100 22.847600 0
M  V30 28 H -11.856700 -22.743300 26.165900 0
M  V30 29 H -12.337100 -24.052000 25.315600 0
M  V30 30 H -12.305200 -24.244700 29.351700 0
M  V30 31 H -13.044600 -22.943500 28.698300 0
M  V30 32 H -11.067400 -21.977300 28.135700 0
M  V30 33 H -10.865400 -22.514200 29.664600 0
M  V30 34 H -15.794900 -21.546700 25.436100 0
M  V30 35 H -15.219800 -27.329600 25.790600 0
M  V30 36 H -14.328800 -22.760900 26.864300 0
M  V30 37 H -17.171700 -22.662200 23.895400 0
M  V30 38 H -8.526900 -23.962800 26.738800 0
M  V30 END ATOM
M  V30 BEGIN BOND
M  V30 1 2 1 2
M  V30 2 2 1 3
M  V30 3 1 1 6 CFG=1
M  V30 4 1 1 18
M  V30 5 1 4 7
M  V30 6 1 4 8
M  V30 7 2 5 9
M  V30 8 1 5 10
M  V30 9 1 6 11
M  V30 10 1 6 12
M  V30 11 1 7 11
M  V30 12 1 8 13
M  V30 13 1 9 15
M  V30 14 2 10 19
M  V30 15 1 12 13
M  V30 16 1 14 16
M  V30 17 2 14 17
M  V30 18 2 15 20
M  V30 19 2 16 18
M  V30 20 1 17 19
M  V30 21 1 18 20
M  V30 22 1 19 20
M  V30 23 1 4 21 CFG=3
M  V30 24 1 7 22 CFG=3
M  V30 25 1 7 23
M  V30 26 1 8 24 CFG=1
M  V30 27 1 8 25
M  V30 28 1 9 26
M  V30 29 1 10 27
M  V30 30 1 11 28 CFG=1
M  V30 31 1 11 29
M  V30 32 1 12 30 CFG=1
M  V30 33 1 12 31
M  V30 34 1 13 32 CFG=3
M  V30 35 1 13 33
M  V30 36 1 14 34
M  V30 37 1 15 35
M  V30 38 1 16 36
M  V30 39 1 17 37
M  V30 40 1 4 38
M  V30 END BOND
M  V30 END CTAB
M  END
>  <Ligand_Instance>  (275) 
5OK3_M77_A_401

>  <Dataset>  (275) 
PDB

>  <PDB_ID>  (275) 
5OK3

>  <Chain>  (275) 
A

>  <Resi>  (275) 
401

>  <Num_Resolved_Atoms>  (275) 
20

>  <Num_H_Atoms_ProtBoundConf>  (275) 
18

>  <Pocket>  (275) 
A

>  <SMILES>  (275) 
c1cc2cnccc2c(c1)S(=O)(=O)N3CCCNCC3

>  <Name>  (275) 
5-(1,4-DIAZEPAN-1-SULFONYL)ISOQUINOLINE

>  <Num_Heavy_Atoms>  (275) 
20

>  <Num_Not_Resolved_Atoms>  (275) 
0

>  <ATP_Site>  (275) 
True

>  <Peripheral>  (275) 
False

>  <Standardized_SMILES>  (275) 
[H]C1=NC([H])=C2C([H])=C([H])C([H])=C(S(=O)(=O)N3C([H])([H])C([H])([H])C([H])([H])[N+]([H])([H])C([H])([H])C3([H])[H])C2=C1[H]

$$$$
M77
     RDKit          3D

  0  0  0  0  0  0  0  0  0  0999 V3000
M  V30 BEGIN CTAB
M  V30 COUNTS 38 40 0 0 0
M  V30 BEGIN ATOM
M  V30 1 S -14.766000 2.319000 -30.441000 0 CFG=2
M  V30 2 O -15.798000 3.144000 -31.007000 0
M  V30 3 O -14.239000 1.257000 -31.225000 0
M  V30 4 N -18.372000 1.632000 -28.575000 0 CFG=2 CHG=1
M  V30 5 N -9.634000 2.214000 -28.467000 0
M  V30 6 N -15.386000 1.636000 -29.092000 0
M  V30 7 C -17.515000 2.821000 -28.325000 0 CFG=2
M  V30 8 C -18.141000 1.010000 -29.897000 0 CFG=2
M  V30 9 C -10.581000 1.300000 -28.737000 0
M  V30 10 C -9.932000 3.483000 -28.693000 0
M  V30 11 C -16.019000 2.488000 -28.062000 0 CFG=2
M  V30 12 C -15.828000 0.225000 -29.102000 0 CFG=2
M  V30 13 C -17.056000 -0.048000 -29.973000 0 CFG=2
M  V30 14 C -12.708000 5.685000 -29.840000 0
M  V30 15 C -11.824000 1.598000 -29.221000 0
M  V30 16 C -13.698000 4.748000 -30.092000 0
M  V30 17 C -11.480000 5.302000 -29.406000 0
M  V30 18 C -13.448000 3.413000 -29.933000 0
M  V30 19 C -11.184000 3.936000 -29.192000 0
M  V30 20 C -12.172000 2.951000 -29.462000 0
M  V30 21 H -19.329800 1.914300 -28.520300 0
M  V30 22 H -17.873700 3.303000 -27.525600 0
M  V30 23 H -17.566800 3.418200 -29.125400 0
M  V30 24 H -17.898200 1.739300 -30.536600 0
M  V30 25 H -18.999000 0.585300 -30.185900 0
M  V30 26 H -10.362000 0.338200 -28.573000 0
M  V30 27 H -9.230400 4.168900 -28.500100 0
M  V30 28 H -15.511800 3.348600 -28.014700 0
M  V30 29 H -15.954900 2.014600 -27.183500 0
M  V30 30 H -16.045600 -0.041000 -28.162900 0
M  V30 31 H -15.073200 -0.336500 -29.441100 0
M  V30 32 H -16.753700 -0.115200 -30.923800 0
M  V30 33 H -17.452200 -0.920400 -29.686700 0
M  V30 34 H -12.901000 6.656200 -29.979800 0
M  V30 35 H -12.482400 0.867800 -29.403600 0
M  V30 36 H -14.602400 5.050800 -30.392500 0
M  V30 37 H -10.777500 5.993100 -29.235900 0
M  V30 38 H -18.184200 0.951200 -27.867000 0
M  V30 END ATOM
M  V30 BEGIN BOND
M  V30 1 2 1 2
M  V30 2 2 1 3
M  V30 3 1 1 6 CFG=1
M  V30 4 1 1 18
M  V30 5 1 4 7
M  V30 6 1 4 8
M  V30 7 2 5 9
M  V30 8 1 5 10
M  V30 9 1 6 11
M  V30 10 1 6 12
M  V30 11 1 7 11
M  V30 12 1 8 13
M  V30 13 1 9 15
M  V30 14 2 10 19
M  V30 15 1 12 13
M  V30 16 1 14 16
M  V30 17 2 14 17
M  V30 18 2 15 20
M  V30 19 2 16 18
M  V30 20 1 17 19
M  V30 21 1 18 20
M  V30 22 1 19 20
M  V30 23 1 4 21 CFG=3
M  V30 24 1 7 22 CFG=1
M  V30 25 1 7 23
M  V30 26 1 8 24 CFG=3
M  V30 27 1 8 25
M  V30 28 1 9 26
M  V30 29 1 10 27
M  V30 30 1 11 28 CFG=1
M  V30 31 1 11 29
M  V30 32 1 12 30 CFG=1
M  V30 33 1 12 31
M  V30 34 1 13 32 CFG=3
M  V30 35 1 13 33
M  V30 36 1 14 34
M  V30 37 1 15 35
M  V30 38 1 16 36
M  V30 39 1 17 37
M  V30 40 1 4 38
M  V30 END BOND
M  V30 END CTAB
M  END
>  <Ligand_Instance>  (276) 
6EM2_M77_A_401

>  <Dataset>  (276) 
PDB

>  <PDB_ID>  (276) 
6EM2

>  <Chain>  (276) 
A

>  <Resi>  (276) 
401

>  <Num_Resolved_Atoms>  (276) 
20

>  <Num_H_Atoms_ProtBoundConf>  (276) 
18

>  <Pocket>  (276) 
A

>  <SMILES>  (276) 
c1cc2cnccc2c(c1)S(=O)(=O)N3CCCNCC3

>  <Name>  (276) 
5-(1,4-DIAZEPAN-1-SULFONYL)ISOQUINOLINE

>  <Num_Heavy_Atoms>  (276) 
20

>  <Num_Not_Resolved_Atoms>  (276) 
0

>  <ATP_Site>  (276) 
True

>  <Peripheral>  (276) 
False

>  <Standardized_SMILES>  (276) 
[H]C1=NC([H])=C2C([H])=C([H])C([H])=C(S(=O)(=O)N3C([H])([H])C([H])([H])C([H])([H])[N+]([H])([H])C([H])([H])C3([H])[H])C2=C1[H]

$$$$
M77
     RDKit          3D

  0  0  0  0  0  0  0  0  0  0999 V3000
M  V30 BEGIN CTAB
M  V30 COUNTS 38 40 0 0 0
M  V30 BEGIN ATOM
M  V30 1 S 13.563000 -23.199000 -27.751000 0 CFG=2
M  V30 2 O 14.115000 -23.342000 -29.061000 0
M  V30 3 O 13.020000 -24.337000 -27.079000 0
M  V30 4 N 9.337000 -21.512000 -27.471000 0 CFG=2 CHG=1
M  V30 5 N 17.232000 -24.720000 -24.052000 0
M  V30 6 N 12.362000 -22.103000 -27.867000 0
M  V30 7 C 10.271000 -22.174000 -26.568000 0 CFG=2
M  V30 8 C 9.870000 -20.545000 -28.435000 0 CFG=2
M  V30 9 C 16.460000 -25.339000 -24.961000 0
M  V30 10 C 17.218000 -23.396000 -24.038000 0
M  V30 11 C 11.664000 -21.647000 -26.647000 0 CFG=2
M  V30 12 C 12.229000 -21.259000 -29.070000 0 CFG=2
M  V30 13 C 10.782000 -21.085000 -29.509000 0 CFG=2
M  V30 14 C 15.691000 -20.469000 -25.773000 0
M  V30 15 C 15.653000 -24.691000 -25.849000 0
M  V30 16 C 14.853000 -21.111000 -26.668000 0
M  V30 17 C 16.465000 -21.184000 -24.905000 0
M  V30 18 C 14.790000 -22.479000 -26.700000 0
M  V30 19 C 16.446000 -22.601000 -24.916000 0
M  V30 20 C 15.615000 -23.277000 -25.845000 0
M  V30 21 H 8.669800 -21.028300 -26.904500 0
M  V30 22 H 10.289600 -23.148200 -26.793000 0
M  V30 23 H 9.941700 -22.054500 -25.631400 0
M  V30 24 H 10.382400 -19.857000 -27.921100 0
M  V30 25 H 9.092100 -20.110800 -28.889200 0
M  V30 26 H 16.478400 -26.338500 -24.988100 0
M  V30 27 H 17.789800 -22.928800 -23.363600 0
M  V30 28 H 11.631100 -20.647500 -26.648700 0
M  V30 29 H 12.174000 -21.962300 -25.846700 0
M  V30 30 H 12.740900 -21.683600 -29.816800 0
M  V30 31 H 12.613900 -20.357400 -28.872300 0
M  V30 32 H 10.763200 -20.452600 -30.283400 0
M  V30 33 H 10.432700 -21.976300 -29.798000 0
M  V30 34 H 15.730000 -19.469800 -25.762000 0
M  V30 35 H 15.094200 -25.209800 -26.496000 0
M  V30 36 H 14.290000 -20.572900 -27.295200 0
M  V30 37 H 17.051900 -20.702500 -24.254100 0
M  V30 38 H 8.873800 -22.227200 -27.994300 0
M  V30 END ATOM
M  V30 BEGIN BOND
M  V30 1 2 1 2
M  V30 2 2 1 3
M  V30 3 1 1 6 CFG=3
M  V30 4 1 1 18
M  V30 5 1 4 7
M  V30 6 1 4 8
M  V30 7 2 5 9
M  V30 8 1 5 10
M  V30 9 1 6 11
M  V30 10 1 6 12
M  V30 11 1 7 11
M  V30 12 1 8 13
M  V30 13 1 9 15
M  V30 14 2 10 19
M  V30 15 1 12 13
M  V30 16 1 14 16
M  V30 17 2 14 17
M  V30 18 2 15 20
M  V30 19 2 16 18
M  V30 20 1 17 19
M  V30 21 1 18 20
M  V30 22 1 19 20
M  V30 23 1 4 21 CFG=1
M  V30 24 1 7 22 CFG=3
M  V30 25 1 7 23
M  V30 26 1 8 24 CFG=1
M  V30 27 1 8 25
M  V30 28 1 9 26
M  V30 29 1 10 27
M  V30 30 1 11 28 CFG=3
M  V30 31 1 11 29
M  V30 32 1 12 30 CFG=3
M  V30 33 1 12 31
M  V30 34 1 13 32 CFG=3
M  V30 35 1 13 33
M  V30 36 1 14 34
M  V30 37 1 15 35
M  V30 38 1 16 36
M  V30 39 1 17 37
M  V30 40 1 4 38
M  V30 END BOND
M  V30 END CTAB
M  END
>  <Ligand_Instance>  (277) 
6ERW_M77_A_401

>  <Dataset>  (277) 
PDB

>  <PDB_ID>  (277) 
6ERW

>  <Chain>  (277) 
A

>  <Resi>  (277) 
401

>  <Num_Resolved_Atoms>  (277) 
20

>  <Num_H_Atoms_ProtBoundConf>  (277) 
18

>  <Pocket>  (277) 
A

>  <SMILES>  (277) 
c1cc2cnccc2c(c1)S(=O)(=O)N3CCCNCC3

>  <Name>  (277) 
5-(1,4-DIAZEPAN-1-SULFONYL)ISOQUINOLINE

>  <Num_Heavy_Atoms>  (277) 
20

>  <Num_Not_Resolved_Atoms>  (277) 
0

>  <ATP_Site>  (277) 
True

>  <Peripheral>  (277) 
False

>  <Standardized_SMILES>  (277) 
[H]C1=NC([H])=C2C([H])=C([H])C([H])=C(S(=O)(=O)N3C([H])([H])C([H])([H])C([H])([H])[N+]([H])([H])C([H])([H])C3([H])[H])C2=C1[H]

$$$$
M77
     RDKit          3D

  0  0  0  0  0  0  0  0  0  0999 V3000
M  V30 BEGIN CTAB
M  V30 COUNTS 38 40 0 0 0
M  V30 BEGIN ATOM
M  V30 1 S -13.517000 -25.160000 27.252000 0 CFG=2
M  V30 2 O -14.078000 -25.404000 28.548000 0
M  V30 3 O -13.002000 -26.247000 26.490000 0
M  V30 4 N -9.302000 -23.164000 26.905000 0 CFG=2 CHG=1
M  V30 5 N -17.357000 -26.424000 23.603000 0
M  V30 6 N -12.287000 -24.095000 27.464000 0
M  V30 7 C -10.215000 -23.874000 25.980000 0 CFG=2
M  V30 8 C -9.668000 -23.407000 28.308000 0 CFG=2
M  V30 9 C -16.539000 -27.102000 24.424000 0
M  V30 10 C -17.339000 -25.101000 23.680000 0
M  V30 11 C -11.663000 -23.509000 26.256000 0 CFG=2
M  V30 12 C -12.176000 -23.330000 28.719000 0 CFG=2
M  V30 13 C -10.831000 -22.619000 28.858000 0 CFG=2
M  V30 14 C -15.691000 -22.300000 25.507000 0
M  V30 15 C -15.693000 -26.517000 25.325000 0
M  V30 16 C -14.812000 -23.002000 26.313000 0
M  V30 17 C -16.515000 -22.953000 24.641000 0
M  V30 18 C -14.764000 -24.369000 26.271000 0
M  V30 19 C -16.513000 -24.368000 24.566000 0
M  V30 20 C -15.642000 -25.107000 25.412000 0
M  V30 21 H -9.350600 -22.182300 26.721000 0
M  V30 22 H -10.098200 -24.860100 26.098400 0
M  V30 23 H -9.988000 -23.622000 25.039300 0
M  V30 24 H -8.867900 -23.195900 28.869500 0
M  V30 25 H -9.891600 -24.377500 28.397800 0
M  V30 26 H -16.549100 -28.100700 24.373200 0
M  V30 27 H -17.947200 -24.588200 23.074100 0
M  V30 28 H -11.711500 -22.514100 26.344200 0
M  V30 29 H -12.203000 -23.800300 25.466400 0
M  V30 30 H -12.286400 -23.959300 29.488300 0
M  V30 31 H -12.904100 -22.644900 28.741700 0
M  V30 32 H -10.882100 -21.748500 28.368400 0
M  V30 33 H -10.664200 -22.446200 29.828700 0
M  V30 34 H -15.721600 -21.301900 25.561000 0
M  V30 35 H -15.116300 -27.080800 25.916300 0
M  V30 36 H -14.205100 -22.504800 26.933100 0
M  V30 37 H -17.128500 -22.427700 24.051300 0
M  V30 38 H -8.367800 -23.486000 26.751600 0
M  V30 END ATOM
M  V30 BEGIN BOND
M  V30 1 2 1 2
M  V30 2 2 1 3
M  V30 3 1 1 6 CFG=1
M  V30 4 1 1 18
M  V30 5 1 4 7
M  V30 6 1 4 8
M  V30 7 2 5 9
M  V30 8 1 5 10
M  V30 9 1 6 11
M  V30 10 1 6 12
M  V30 11 1 7 11
M  V30 12 1 8 13
M  V30 13 1 9 15
M  V30 14 2 10 19
M  V30 15 1 12 13
M  V30 16 1 14 16
M  V30 17 2 14 17
M  V30 18 2 15 20
M  V30 19 2 16 18
M  V30 20 1 17 19
M  V30 21 1 18 20
M  V30 22 1 19 20
M  V30 23 1 4 21 CFG=3
M  V30 24 1 7 22 CFG=3
M  V30 25 1 7 23
M  V30 26 1 8 24 CFG=1
M  V30 27 1 8 25
M  V30 28 1 9 26
M  V30 29 1 10 27
M  V30 30 1 11 28 CFG=1
M  V30 31 1 11 29
M  V30 32 1 12 30 CFG=1
M  V30 33 1 12 31
M  V30 34 1 13 32 CFG=3
M  V30 35 1 13 33
M  V30 36 1 14 34
M  V30 37 1 15 35
M  V30 38 1 16 36
M  V30 39 1 17 37
M  V30 40 1 4 38
M  V30 END BOND
M  V30 END CTAB
M  END
>  <Ligand_Instance>  (278) 
6I2A_M77_A_401

>  <Dataset>  (278) 
PDB

>  <PDB_ID>  (278) 
6I2A

>  <Chain>  (278) 
A

>  <Resi>  (278) 
401

>  <Num_Resolved_Atoms>  (278) 
20

>  <Num_H_Atoms_ProtBoundConf>  (278) 
18

>  <Pocket>  (278) 
A

>  <SMILES>  (278) 
c1cc2cnccc2c(c1)S(=O)(=O)N3CCCNCC3

>  <Name>  (278) 
5-(1,4-DIAZEPAN-1-SULFONYL)ISOQUINOLINE

>  <Num_Heavy_Atoms>  (278) 
20

>  <Num_Not_Resolved_Atoms>  (278) 
0

>  <ATP_Site>  (278) 
True

>  <Peripheral>  (278) 
False

>  <Standardized_SMILES>  (278) 
[H]C1=NC([H])=C2C([H])=C([H])C([H])=C(S(=O)(=O)N3C([H])([H])C([H])([H])C([H])([H])[N+]([H])([H])C([H])([H])C3([H])[H])C2=C1[H]

$$$$
M77
     RDKit          3D

  0  0  0  0  0  0  0  0  0  0999 V3000
M  V30 BEGIN CTAB
M  V30 COUNTS 38 40 0 0 0
M  V30 BEGIN ATOM
M  V30 1 S 7.828000 10.921000 8.026000 0 CFG=2
M  V30 2 O 7.091000 10.566000 6.852000 0
M  V30 3 O 8.198000 9.908000 8.952000 0
M  V30 4 N 5.695000 13.112000 11.516000 0 CFG=2 CHG=1
M  V30 5 N 12.999000 9.764000 6.937000 0
M  V30 6 N 6.926000 12.013000 8.849000 0
M  V30 7 C 6.883000 12.265000 11.343000 0 CFG=2
M  V30 8 C 4.699000 12.913000 10.430000 0 CFG=2
M  V30 9 C 11.866000 9.062000 7.117000 0
M  V30 10 C 12.903000 11.085000 6.918000 0
M  V30 11 C 7.600000 12.562000 10.045000 0 CFG=2
M  V30 12 C 5.905000 12.853000 8.190000 0 CFG=2
M  V30 13 C 5.050000 13.657000 9.167000 0 CFG=2
M  V30 14 C 10.401000 13.848000 7.179000 0
M  V30 15 C 10.637000 9.629000 7.318000 0
M  V30 16 C 9.262000 13.125000 7.478000 0
M  V30 17 C 11.604000 13.210000 7.012000 0
M  V30 18 C 9.305000 11.760000 7.565000 0
M  V30 19 C 11.694000 11.799000 7.090000 0
M  V30 20 C 10.521000 11.040000 7.332000 0
M  V30 21 H 5.980700 14.070300 11.519100 0
M  V30 22 H 6.599800 11.305900 11.344300 0
M  V30 23 H 7.510600 12.428300 12.104200 0
M  V30 24 H 3.808100 13.233500 10.751800 0
M  V30 25 H 4.646300 11.936600 10.220700 0
M  V30 26 H 11.925400 8.063900 7.103100 0
M  V30 27 H 13.740200 11.612200 6.772500 0
M  V30 28 H 7.665800 13.554500 9.941600 0
M  V30 29 H 8.518800 12.170600 10.096100 0
M  V30 30 H 5.302200 12.258500 7.657800 0
M  V30 31 H 6.369300 13.491900 7.576700 0
M  V30 32 H 5.553200 14.483800 9.418500 0
M  V30 33 H 4.200200 13.911500 8.705400 0
M  V30 34 H 10.348100 14.842100 7.083800 0
M  V30 35 H 9.830400 9.053600 7.453400 0
M  V30 36 H 8.397800 13.604000 7.632300 0
M  V30 37 H 12.427600 13.748100 6.832900 0
M  V30 38 H 5.265600 12.889300 12.391300 0
M  V30 END ATOM
M  V30 BEGIN BOND
M  V30 1 2 1 2
M  V30 2 2 1 3
M  V30 3 1 1 6 CFG=1
M  V30 4 1 1 18
M  V30 5 1 4 7
M  V30 6 1 4 8
M  V30 7 2 5 9
M  V30 8 1 5 10
M  V30 9 1 6 11
M  V30 10 1 6 12
M  V30 11 1 7 11
M  V30 12 1 8 13
M  V30 13 1 9 15
M  V30 14 2 10 19
M  V30 15 1 12 13
M  V30 16 1 14 16
M  V30 17 2 14 17
M  V30 18 2 15 20
M  V30 19 2 16 18
M  V30 20 1 17 19
M  V30 21 1 18 20
M  V30 22 1 19 20
M  V30 23 1 4 21 CFG=1
M  V30 24 1 7 22 CFG=3
M  V30 25 1 7 23
M  V30 26 1 8 24 CFG=1
M  V30 27 1 8 25
M  V30 28 1 9 26
M  V30 29 1 10 27
M  V30 30 1 11 28 CFG=3
M  V30 31 1 11 29
M  V30 32 1 12 30 CFG=3
M  V30 33 1 12 31
M  V30 34 1 13 32 CFG=1
M  V30 35 1 13 33
M  V30 36 1 14 34
M  V30 37 1 15 35
M  V30 38 1 16 36
M  V30 39 1 17 37
M  V30 40 1 4 38
M  V30 END BOND
M  V30 END CTAB
M  END
>  <Ligand_Instance>  (279) 
6I2C_M77_A_401

>  <Dataset>  (279) 
PDB

>  <PDB_ID>  (279) 
6I2C

>  <Chain>  (279) 
A

>  <Resi>  (279) 
401

>  <Num_Resolved_Atoms>  (279) 
20

>  <Num_H_Atoms_ProtBoundConf>  (279) 
18

>  <Pocket>  (279) 
A

>  <SMILES>  (279) 
c1cc2cnccc2c(c1)S(=O)(=O)N3CCCNCC3

>  <Name>  (279) 
5-(1,4-DIAZEPAN-1-SULFONYL)ISOQUINOLINE

>  <Num_Heavy_Atoms>  (279) 
20

>  <Num_Not_Resolved_Atoms>  (279) 
0

>  <ATP_Site>  (279) 
True

>  <Peripheral>  (279) 
False

>  <Standardized_SMILES>  (279) 
[H]C1=NC([H])=C2C([H])=C([H])C([H])=C(S(=O)(=O)N3C([H])([H])C([H])([H])C([H])([H])[N+]([H])([H])C([H])([H])C3([H])[H])C2=C1[H]

$$$$
M77
     RDKit          3D

  0  0  0  0  0  0  0  0  0  0999 V3000
M  V30 BEGIN CTAB
M  V30 COUNTS 38 40 0 0 0
M  V30 BEGIN ATOM
M  V30 1 S -13.057000 -26.561000 26.622000 0 CFG=1
M  V30 2 O -12.530000 -27.521000 25.702000 0
M  V30 3 O -13.712000 -26.998000 27.814000 0
M  V30 4 N -8.757000 -24.720000 27.543000 0 CFG=2 CHG=1
M  V30 5 N -17.007000 -26.939000 22.937000 0
M  V30 6 N -11.807000 -25.626000 27.082000 0
M  V30 7 C -9.693000 -24.460000 26.411000 0 CFG=2
M  V30 8 C -9.364000 -24.441000 28.878000 0 CFG=2
M  V30 9 C -16.279000 -27.793000 23.668000 0
M  V30 10 C -16.827000 -25.642000 23.147000 0
M  V30 11 C -10.639000 -25.610000 26.178000 0 CFG=2
M  V30 12 C -11.784000 -25.074000 28.451000 0 CFG=2
M  V30 13 C -10.522000 -25.389000 29.228000 0 CFG=2
M  V30 14 C -14.805000 -23.271000 25.194000 0
M  V30 15 C -15.359000 -27.414000 24.596000 0
M  V30 16 C -14.008000 -24.158000 25.898000 0
M  V30 17 C -15.732000 -23.722000 24.304000 0
M  V30 18 C -14.159000 -25.508000 25.727000 0
M  V30 19 C -15.916000 -25.110000 24.088000 0
M  V30 20 C -15.136000 -26.036000 24.828000 0
M  V30 21 H -7.952000 -24.137400 27.431000 0
M  V30 22 H -9.158500 -24.309300 25.579400 0
M  V30 23 H -10.227400 -23.640200 26.616900 0
M  V30 24 H -9.710000 -23.502800 28.879800 0
M  V30 25 H -8.654000 -24.535700 29.575800 0
M  V30 26 H -16.420700 -28.772100 23.522400 0
M  V30 27 H -17.369800 -24.999900 22.605600 0
M  V30 28 H -10.971800 -25.556500 25.236500 0
M  V30 29 H -10.132800 -26.463100 26.304600 0
M  V30 30 H -12.563100 -25.449100 28.953300 0
M  V30 31 H -11.874300 -24.080000 28.389600 0
M  V30 32 H -10.718400 -25.308400 30.205200 0
M  V30 33 H -10.243000 -26.326600 29.020300 0
M  V30 34 H -14.698600 -22.287600 25.340900 0
M  V30 35 H -14.845700 -28.102200 25.108800 0
M  V30 36 H -13.319000 -23.810900 26.534200 0
M  V30 37 H -16.289800 -23.065200 23.796600 0
M  V30 38 H -8.480100 -25.680500 27.513300 0
M  V30 END ATOM
M  V30 BEGIN BOND
M  V30 1 2 1 2
M  V30 2 2 1 3
M  V30 3 1 1 6 CFG=1
M  V30 4 1 1 18
M  V30 5 1 4 7
M  V30 6 1 4 8
M  V30 7 2 5 9
M  V30 8 1 5 10
M  V30 9 1 6 11
M  V30 10 1 6 12
M  V30 11 1 7 11
M  V30 12 1 8 13
M  V30 13 1 9 15
M  V30 14 2 10 19
M  V30 15 1 12 13
M  V30 16 1 14 16
M  V30 17 2 14 17
M  V30 18 2 15 20
M  V30 19 2 16 18
M  V30 20 1 17 19
M  V30 21 1 18 20
M  V30 22 1 19 20
M  V30 23 1 4 21 CFG=3
M  V30 24 1 7 22 CFG=3
M  V30 25 1 7 23
M  V30 26 1 8 24 CFG=3
M  V30 27 1 8 25
M  V30 28 1 9 26
M  V30 29 1 10 27
M  V30 30 1 11 28 CFG=3
M  V30 31 1 11 29
M  V30 32 1 12 30 CFG=1
M  V30 33 1 12 31
M  V30 34 1 13 32 CFG=1
M  V30 35 1 13 33
M  V30 36 1 14 34
M  V30 37 1 15 35
M  V30 38 1 16 36
M  V30 39 1 17 37
M  V30 40 1 4 38
M  V30 END BOND
M  V30 END CTAB
M  END
>  <Ligand_Instance>  (280) 
6YNA_M77_A_402

>  <Dataset>  (280) 
PDB

>  <PDB_ID>  (280) 
6YNA

>  <Chain>  (280) 
A

>  <Resi>  (280) 
402

>  <Num_Resolved_Atoms>  (280) 
20

>  <Num_H_Atoms_ProtBoundConf>  (280) 
18

>  <Pocket>  (280) 
A

>  <SMILES>  (280) 
c1cc2cnccc2c(c1)S(=O)(=O)N3CCCNCC3

>  <Name>  (280) 
5-(1,4-DIAZEPAN-1-SULFONYL)ISOQUINOLINE

>  <Num_Heavy_Atoms>  (280) 
20

>  <Num_Not_Resolved_Atoms>  (280) 
0

>  <ATP_Site>  (280) 
True

>  <Peripheral>  (280) 
False

>  <Standardized_SMILES>  (280) 
[H]C1=NC([H])=C2C([H])=C([H])C([H])=C(S(=O)(=O)N3C([H])([H])C([H])([H])C([H])([H])[N+]([H])([H])C([H])([H])C3([H])[H])C2=C1[H]

$$$$
NCA
     RDKit          3D

  0  0  0  0  0  0  0  0  0  0999 V3000
M  V30 BEGIN CTAB
M  V30 COUNTS 15 15 0 0 0
M  V30 BEGIN ATOM
M  V30 1 O -11.922000 5.934000 -29.410000 0
M  V30 2 N -9.853000 6.430000 -28.676000 0
M  V30 3 N -9.036000 2.314000 -28.254000 0
M  V30 4 C -10.014000 1.444000 -28.531000 0
M  V30 5 C -11.259000 1.825000 -28.996000 0
M  V30 6 C -9.304000 3.616000 -28.426000 0
M  V30 7 C -11.512000 3.173000 -29.154000 0
M  V30 8 C -10.811000 5.569000 -29.010000 0
M  V30 9 C -10.523000 4.098000 -28.865000 0
M  V30 10 H -8.967200 6.093300 -28.356700 0
M  V30 11 H -10.018800 7.413800 -28.744300 0
M  V30 12 H -9.835500 0.469500 -28.394900 0
M  V30 13 H -11.957400 1.142700 -29.212100 0
M  V30 14 H -8.580600 4.276600 -28.225200 0
M  V30 15 H -12.407300 3.480600 -29.476300 0
M  V30 END ATOM
M  V30 BEGIN BOND
M  V30 1 2 1 8
M  V30 2 1 2 8
M  V30 3 2 3 4
M  V30 4 1 3 6
M  V30 5 1 4 5
M  V30 6 2 5 7
M  V30 7 2 6 9
M  V30 8 1 7 9
M  V30 9 1 8 9
M  V30 10 1 2 10
M  V30 11 1 2 11
M  V30 12 1 4 12
M  V30 13 1 5 13
M  V30 14 1 6 14
M  V30 15 1 7 15
M  V30 END BOND
M  V30 END CTAB
M  END
>  <Ligand_Instance>  (281) 
5N3H_NCA_A_401

>  <Dataset>  (281) 
PDB

>  <PDB_ID>  (281) 
5N3H

>  <Chain>  (281) 
A

>  <Resi>  (281) 
401

>  <Num_Resolved_Atoms>  (281) 
9

>  <Num_H_Atoms_ProtBoundConf>  (281) 
6

>  <Pocket>  (281) 
A

>  <SMILES>  (281) 
c1cc(cnc1)C(=O)N

>  <Name>  (281) 
NICOTINAMIDE

>  <Num_Heavy_Atoms>  (281) 
9

>  <Num_Not_Resolved_Atoms>  (281) 
0

>  <ATP_Site>  (281) 
True

>  <Peripheral>  (281) 
False

>  <Standardized_SMILES>  (281) 
[H]C1=NC([H])=C(C(=O)N([H])[H])C([H])=C1[H]

$$$$
NPO
     RDKit          3D

  0  0  0  0  0  0  0  0  0  0999 V3000
M  V30 BEGIN CTAB
M  V30 COUNTS 15 15 0 0 0
M  V30 BEGIN ATOM
M  V30 1 O 9.982000 7.505000 18.328000 0
M  V30 2 O 12.100000 7.256000 17.783000 0 CHG=-1
M  V30 3 O 11.182000 1.798000 20.700000 0
M  V30 4 N 11.081000 6.838000 18.323000 0 CHG=1
M  V30 5 C 10.003000 3.791000 20.152000 0
M  V30 6 C 12.320000 3.557000 19.544000 0
M  V30 7 C 9.973000 5.040000 19.557000 0
M  V30 8 C 12.298000 4.811000 18.964000 0
M  V30 9 C 11.174000 3.044000 20.139000 0
M  V30 10 C 11.121000 5.534000 18.972000 0
M  V30 11 H 10.349500 1.431200 21.115200 0
M  V30 12 H 9.181900 3.426300 20.591200 0
M  V30 13 H 13.162100 3.017800 19.535500 0
M  V30 14 H 9.130000 5.577800 19.551000 0
M  V30 15 H 13.122800 5.189900 18.544300 0
M  V30 END ATOM
M  V30 BEGIN BOND
M  V30 1 2 1 4
M  V30 2 1 2 4
M  V30 3 1 3 9
M  V30 4 1 4 10
M  V30 5 1 5 7
M  V30 6 2 5 9
M  V30 7 2 6 8
M  V30 8 1 6 9
M  V30 9 2 7 10
M  V30 10 1 8 10
M  V30 11 1 3 11
M  V30 12 1 5 12
M  V30 13 1 6 13
M  V30 14 1 7 14
M  V30 15 1 8 15
M  V30 END BOND
M  V30 END CTAB
M  END
>  <Ligand_Instance>  (282) 
6Z08_NPO_A_401

>  <Dataset>  (282) 
PDB

>  <PDB_ID>  (282) 
6Z08

>  <Chain>  (282) 
A

>  <Resi>  (282) 
401

>  <Num_Resolved_Atoms>  (282) 
10

>  <Num_H_Atoms_ProtBoundConf>  (282) 
5

>  <Pocket>  (282) 
A

>  <SMILES>  (282) 
c1cc(ccc1[N+](=O)[O-])O

>  <Name>  (282) 
P-NITROPHENOL

>  <Num_Heavy_Atoms>  (282) 
10

>  <Num_Not_Resolved_Atoms>  (282) 
0

>  <ATP_Site>  (282) 
True

>  <Peripheral>  (282) 
False

>  <Standardized_SMILES>  (282) 
[H]OC1=C([H])C([H])=C([N+](=O)[O-])C([H])=C1[H]

$$$$
NTN
     RDKit          3D

  0  0  0  0  0  0  0  0  0  0999 V3000
M  V30 BEGIN CTAB
M  V30 COUNTS 17 17 0 0 0
M  V30 BEGIN ATOM
M  V30 1 N 11.777000 3.732000 19.009000 0 CHG=1
M  V30 2 N 12.837000 5.721000 18.729000 0
M  V30 3 N 16.496000 2.710000 20.426000 0
M  V30 4 C 16.328000 4.037000 20.358000 0
M  V30 5 C 15.465000 1.948000 20.039000 0
M  V30 6 C 15.165000 4.642000 19.918000 0
M  V30 7 C 14.261000 2.456000 19.590000 0
M  V30 8 C 12.828000 4.432000 19.081000 0
M  V30 9 C 14.100000 3.838000 19.530000 0
M  V30 10 H 11.798000 2.769300 19.278900 0
M  V30 11 H 10.925100 4.141200 18.682200 0
M  V30 12 H 13.682000 6.251600 18.795700 0
M  V30 13 H 17.086700 4.623600 20.641500 0
M  V30 14 H 15.572600 0.954500 20.077100 0
M  V30 15 H 15.091800 5.638600 19.879800 0
M  V30 16 H 13.520200 1.843700 19.313700 0
M  V30 17 H 11.998800 6.155000 18.398900 0
M  V30 END ATOM
M  V30 BEGIN BOND
M  V30 1 2 1 8
M  V30 2 1 2 8
M  V30 3 2 3 4
M  V30 4 1 3 5
M  V30 5 1 4 6
M  V30 6 2 5 7
M  V30 7 2 6 9
M  V30 8 1 7 9
M  V30 9 1 8 9
M  V30 10 1 1 10
M  V30 11 1 1 11
M  V30 12 1 2 12
M  V30 13 1 4 13
M  V30 14 1 5 14
M  V30 15 1 6 15
M  V30 16 1 7 16
M  V30 17 1 2 17
M  V30 END BOND
M  V30 END CTAB
M  END
>  <Ligand_Instance>  (283) 
6ZN0_NTN_A_404

>  <Dataset>  (283) 
PDB

>  <PDB_ID>  (283) 
6ZN0

>  <Chain>  (283) 
A

>  <Resi>  (283) 
404

>  <Num_Resolved_Atoms>  (283) 
9

>  <Num_H_Atoms_ProtBoundConf>  (283) 
8

>  <Pocket>  (283) 
A

>  <SMILES>  (283) 
c1cnccc1C(=N)N

>  <Name>  (283) 
ISONICOTINAMIDINE

>  <Num_Heavy_Atoms>  (283) 
9

>  <Num_Not_Resolved_Atoms>  (283) 
0

>  <ATP_Site>  (283) 
True

>  <Peripheral>  (283) 
True

>  <Standardized_SMILES>  (283) 
[H]C1=NC([H])=C([H])C(C(N([H])[H])=[N+]([H])[H])=C1[H]

$$$$
NTN
     RDKit          3D

  0  0  0  0  0  0  0  0  0  0999 V3000
M  V30 BEGIN CTAB
M  V30 COUNTS 17 17 0 0 0
M  V30 BEGIN ATOM
M  V30 1 N 19.910000 6.651000 51.224000 0 CHG=1
M  V30 2 N 17.914000 5.960000 50.358000 0
M  V30 3 N 17.501000 10.978000 50.285000 0
M  V30 4 C 16.614000 10.012000 50.545000 0
M  V30 5 C 18.785000 10.613000 50.206000 0
M  V30 6 C 16.955000 8.685000 50.723000 0
M  V30 7 C 19.225000 9.313000 50.367000 0
M  V30 8 C 18.697000 6.908000 50.731000 0
M  V30 9 C 18.289000 8.319000 50.621000 0
M  V30 10 H 20.503800 7.403600 51.508500 0
M  V30 11 H 20.225200 5.705800 51.308900 0
M  V30 12 H 17.008700 6.174300 49.991200 0
M  V30 13 H 15.648900 10.264300 50.614600 0
M  V30 14 H 19.465800 11.321400 50.019700 0
M  V30 15 H 16.253000 8.001100 50.921700 0
M  V30 16 H 20.198200 9.092300 50.301900 0
M  V30 17 H 18.209900 5.007800 50.434500 0
M  V30 END ATOM
M  V30 BEGIN BOND
M  V30 1 2 1 8
M  V30 2 1 2 8
M  V30 3 2 3 4
M  V30 4 1 3 5
M  V30 5 1 4 6
M  V30 6 2 5 7
M  V30 7 2 6 9
M  V30 8 1 7 9
M  V30 9 1 8 9
M  V30 10 1 1 10
M  V30 11 1 1 11
M  V30 12 1 2 12
M  V30 13 1 4 13
M  V30 14 1 5 14
M  V30 15 1 6 15
M  V30 16 1 7 16
M  V30 17 1 2 17
M  V30 END BOND
M  V30 END CTAB
M  END
>  <Ligand_Instance>  (284) 
6ZN0_NTN_A_405

>  <Dataset>  (284) 
PDB

>  <PDB_ID>  (284) 
6ZN0

>  <Chain>  (284) 
A

>  <Resi>  (284) 
405

>  <Num_Resolved_Atoms>  (284) 
9

>  <Num_H_Atoms_ProtBoundConf>  (284) 
8

>  <Pocket>  (284) 
X

>  <SMILES>  (284) 
c1cnccc1C(=N)N

>  <Name>  (284) 
ISONICOTINAMIDINE

>  <Num_Heavy_Atoms>  (284) 
9

>  <Num_Not_Resolved_Atoms>  (284) 
0

>  <ATP_Site>  (284) 
True

>  <Peripheral>  (284) 
True

>  <Standardized_SMILES>  (284) 
[H]C1=NC([H])=C([H])C(C(N([H])[H])=[N+]([H])[H])=C1[H]

$$$$
NU3
     RDKit          3D

  0  0  0  0  0  0  0  0  0  0999 V3000
M  V30 BEGIN CTAB
M  V30 COUNTS 30 32 0 0 0
M  V30 BEGIN ATOM
M  V30 1 O 12.556000 82.745000 84.489000 0
M  V30 2 O 9.123000 92.814000 85.699000 0
M  V30 3 N 12.680000 84.997000 84.745000 0
M  V30 4 N 8.045000 86.416000 85.178000 0
M  V30 5 N 10.287000 86.472000 85.017000 0
M  V30 6 C 8.366000 82.753000 84.558000 0
M  V30 7 C 7.693000 83.939000 84.805000 0
M  V30 8 C 10.306000 90.749000 85.705000 0
M  V30 9 C 7.930000 90.754000 85.345000 0
M  V30 10 C 9.752000 82.740000 84.450000 0
M  V30 11 C 10.318000 89.367000 85.600000 0
M  V30 12 C 7.946000 89.370000 85.252000 0
M  V30 13 C 11.991000 83.841000 84.625000 0
M  V30 14 C 9.112000 91.447000 85.572000 0
M  V30 15 C 9.177000 87.187000 85.197000 0
M  V30 16 C 8.443000 85.107000 84.944000 0
M  V30 17 C 9.143000 88.658000 85.362000 0
M  V30 18 C 9.872000 85.150000 84.852000 0
M  V30 19 C 10.493000 83.914000 84.619000 0
M  V30 20 H 8.272500 93.331600 85.606100 0
M  V30 21 H 12.190200 85.862100 84.853100 0
M  V30 22 H 13.679800 84.987500 84.725700 0
M  V30 23 H 7.106800 86.736400 85.308400 0
M  V30 24 H 7.851600 81.901400 84.456800 0
M  V30 25 H 6.696100 83.957100 84.881600 0
M  V30 26 H 11.157600 91.244300 85.876700 0
M  V30 27 H 7.068300 91.252200 85.248700 0
M  V30 28 H 10.224300 81.881700 84.249300 0
M  V30 29 H 11.181700 88.872400 85.696400 0
M  V30 30 H 7.089500 88.875400 85.104300 0
M  V30 END ATOM
M  V30 BEGIN BOND
M  V30 1 2 1 13
M  V30 2 1 2 14
M  V30 3 1 3 13
M  V30 4 1 4 15
M  V30 5 1 4 16
M  V30 6 2 5 15
M  V30 7 1 5 18
M  V30 8 1 6 7
M  V30 9 2 6 10
M  V30 10 2 7 16
M  V30 11 1 8 11
M  V30 12 2 8 14
M  V30 13 2 9 12
M  V30 14 1 9 14
M  V30 15 1 10 19
M  V30 16 2 11 17
M  V30 17 1 12 17
M  V30 18 1 13 19
M  V30 19 1 15 17
M  V30 20 1 16 18
M  V30 21 2 18 19
M  V30 22 1 2 20
M  V30 23 1 3 21
M  V30 24 1 3 22
M  V30 25 1 4 23
M  V30 26 1 6 24
M  V30 27 1 7 25
M  V30 28 1 8 26
M  V30 29 1 9 27
M  V30 30 1 10 28
M  V30 31 1 11 29
M  V30 32 1 12 30
M  V30 END BOND
M  V30 END CTAB
M  END
>  <Ligand_Instance>  (285) 
4C35_NU3_A_1351

>  <Dataset>  (285) 
PDB

>  <PDB_ID>  (285) 
4C35

>  <Chain>  (285) 
A

>  <Resi>  (285) 
1351

>  <Num_Resolved_Atoms>  (285) 
19

>  <Num_H_Atoms_ProtBoundConf>  (285) 
11

>  <Pocket>  (285) 
A, B

>  <SMILES>  (285) 
c1cc(c2c(c1)[nH]c(n2)c3ccc(cc3)O)C(=O)N

>  <Name>  (285) 
2-(4-hydroxyphenyl)-1H-benzimidazole-4-carboxamide

>  <Num_Heavy_Atoms>  (285) 
19

>  <Num_Not_Resolved_Atoms>  (285) 
0

>  <ATP_Site>  (285) 
True

>  <Peripheral>  (285) 
False

>  <Standardized_SMILES>  (285) 
[H]OC1=C([H])C([H])=C(C2=NC3=C(C(=O)N([H])[H])C([H])=C([H])C([H])=C3N2[H])C([H])=C1[H]

$$$$
NVV
     RDKit          3D

  0  0  0  0  0  0  0  0  0  0999 V3000
M  V30 BEGIN CTAB
M  V30 COUNTS 42 45 0 0 0
M  V30 BEGIN ATOM
M  V30 1 I 22.699000 10.169000 2.247000 0
M  V30 2 O 32.596000 10.417000 -4.527000 0
M  V30 3 O 25.230000 11.757000 -3.585000 0
M  V30 4 N 24.984000 7.424000 -2.982000 0 CFG=2 CHG=1
M  V30 5 N 32.583000 10.067000 -2.306000 0
M  V30 6 N 30.507000 9.586000 -1.221000 0
M  V30 7 C 31.895000 9.794000 -1.198000 0
M  V30 8 C 22.909000 13.440000 -0.603000 0
M  V30 9 C 24.320000 8.721000 -2.768000 0 CFG=2
M  V30 10 C 26.227000 7.755000 -3.732000 0 CFG=2
M  V30 11 C 22.623000 12.657000 0.523000 0
M  V30 12 C 23.699000 12.911000 -1.623000 0
M  V30 13 C 28.460000 9.868000 -4.805000 0
M  V30 14 C 29.841000 10.075000 -4.777000 0
M  V30 15 C 23.919000 10.835000 -0.419000 0
M  V30 16 C 28.458000 9.476000 -2.432000 0
M  V30 17 C 23.130000 11.361000 0.611000 0
M  V30 18 C 31.930000 10.174000 -3.521000 0
M  V30 19 C 25.001000 11.094000 -2.579000 0
M  V30 20 C 29.842000 9.673000 -2.393000 0
M  V30 21 C 24.214000 11.610000 -1.536000 0
M  V30 22 C 27.747000 9.579000 -3.631000 0
M  V30 23 C 30.542000 9.979000 -3.569000 0
M  V30 24 C 25.492000 9.639000 -2.482000 0 CFG=2
M  V30 25 C 26.351000 9.305000 -3.697000 0 CFG=2
M  V30 26 H 24.400800 6.813400 -3.517800 0
M  V30 27 H 33.573700 10.194800 -2.259200 0
M  V30 28 H 32.380900 9.735700 -0.326000 0
M  V30 29 H 22.549600 14.370400 -0.674600 0
M  V30 30 H 23.691700 8.682600 -1.990900 0
M  V30 31 H 23.822300 9.012500 -3.584900 0
M  V30 32 H 26.158700 7.433400 -4.676400 0
M  V30 33 H 27.020200 7.333200 -3.292800 0
M  V30 34 H 22.057600 13.026000 1.260600 0
M  V30 35 H 23.901200 13.467900 -2.428600 0
M  V30 36 H 27.971300 9.926600 -5.675500 0
M  V30 37 H 30.330100 10.292300 -5.621700 0
M  V30 38 H 24.270800 9.901400 -0.351700 0
M  V30 39 H 27.968700 9.257700 -1.587700 0
M  V30 40 H 25.945600 9.436000 -1.614200 0
M  V30 41 H 25.955900 9.705100 -4.523900 0
M  V30 42 H 25.204300 6.992000 -2.107400 0
M  V30 END ATOM
M  V30 BEGIN BOND
M  V30 1 1 1 17
M  V30 2 2 2 18
M  V30 3 2 3 19
M  V30 4 1 4 9
M  V30 5 1 4 10
M  V30 6 1 5 7
M  V30 7 1 5 18
M  V30 8 2 6 7
M  V30 9 1 6 20
M  V30 10 2 8 11
M  V30 11 1 8 12
M  V30 12 1 9 24
M  V30 13 1 10 25
M  V30 14 1 11 17
M  V30 15 2 12 21
M  V30 16 1 13 14
M  V30 17 2 13 22
M  V30 18 2 14 23
M  V30 19 2 15 17
M  V30 20 1 15 21
M  V30 21 2 16 20
M  V30 22 1 16 22
M  V30 23 1 18 23
M  V30 24 1 19 21
M  V30 25 1 19 24
M  V30 26 1 20 23
M  V30 27 1 22 25
M  V30 28 1 24 25
M  V30 29 1 4 26 CFG=3
M  V30 30 1 5 27
M  V30 31 1 7 28
M  V30 32 1 8 29
M  V30 33 1 9 30 CFG=1
M  V30 34 1 9 31
M  V30 35 1 10 32 CFG=3
M  V30 36 1 10 33
M  V30 37 1 11 34
M  V30 38 1 12 35
M  V30 39 1 13 36
M  V30 40 1 14 37
M  V30 41 1 15 38
M  V30 42 1 16 39
M  V30 43 1 24 40 CFG=1
M  V30 44 1 25 41 CFG=3
M  V30 45 1 4 42
M  V30 END BOND
M  V30 END CTAB
M  END
>  <Ligand_Instance>  (286) 
4UJ2_NVV_A_1351

>  <Dataset>  (286) 
PDB

>  <PDB_ID>  (286) 
4UJ2

>  <Chain>  (286) 
A

>  <Resi>  (286) 
1351

>  <Num_Resolved_Atoms>  (286) 
25

>  <Num_H_Atoms_ProtBoundConf>  (286) 
17

>  <Pocket>  (286) 
A

>  <SMILES>  (286) 
c1cc(cc(c1)I)C(=O)[C@H]2CNC[C@@H]2c3ccc4c(c3)N=CNC4=O

>  <Name>  (286) 
7-[(3S,4R)-4-(3-iodanylphenyl)carbonylpyrrolidin-3-yl]-3H-quinazolin-4-one

>  <Num_Heavy_Atoms>  (286) 
25

>  <Num_Not_Resolved_Atoms>  (286) 
0

>  <ATP_Site>  (286) 
True

>  <Peripheral>  (286) 
False

>  <Standardized_SMILES>  (286) 
[H]C1=NC2=C([H])C([C@@]3([H])C([H])([H])[N+]([H])([H])C([H])([H])[C@]3([H])C(=O)C3=C([H])C([H])=C([H])C(I)=C3[H])=C([H])C([H])=C2C(=O)N1[H]

$$$$
NVX
     RDKit          3D

  0  0  0  0  0  0  0  0  0  0999 V3000
M  V30 BEGIN CTAB
M  V30 COUNTS 42 45 0 0 0
M  V30 BEGIN ATOM
M  V30 1 Cl -22.588000 14.573000 -0.139000 0
M  V30 2 O -32.942000 10.371000 4.669000 0
M  V30 3 O -25.020000 11.588000 3.520000 0
M  V30 4 N -25.304000 7.172000 3.099000 0 CFG=2 CHG=1
M  V30 5 N -33.046000 10.054000 2.410000 0
M  V30 6 N -30.943000 9.563000 1.232000 0
M  V30 7 C -32.347000 9.785000 1.285000 0
M  V30 8 C -23.244000 10.932000 -0.874000 0
M  V30 9 C -24.582000 8.447000 2.793000 0 CFG=2
M  V30 10 C -26.692000 7.584000 3.432000 0 CFG=2
M  V30 11 C -22.798000 12.245000 -0.972000 0
M  V30 12 C -23.942000 10.549000 0.288000 0
M  V30 13 C -28.781000 9.767000 4.729000 0
M  V30 14 C -30.172000 10.005000 4.738000 0
M  V30 15 C -23.796000 12.718000 1.235000 0
M  V30 16 C -28.851000 9.387000 2.391000 0
M  V30 17 C -23.095000 13.096000 0.071000 0
M  V30 18 C -32.332000 10.157000 3.593000 0
M  V30 19 C -24.980000 10.939000 2.479000 0
M  V30 20 C -30.246000 9.629000 2.373000 0
M  V30 21 C -24.269000 11.401000 1.346000 0
M  V30 22 C -28.092000 9.494000 3.529000 0
M  V30 23 C -30.937000 9.957000 3.554000 0
M  V30 24 C -25.693000 9.551000 2.445000 0 CFG=2
M  V30 25 C -26.665000 9.205000 3.566000 0 CFG=2
M  V30 26 H -24.880100 6.706100 3.875700 0
M  V30 27 H -34.038600 10.173900 2.389400 0
M  V30 28 H -32.855200 9.738500 0.425000 0
M  V30 29 H -23.073700 10.276300 -1.609500 0
M  V30 30 H -23.972500 8.316200 2.011100 0
M  V30 31 H -24.047900 8.737100 3.587100 0
M  V30 32 H -26.978800 7.169600 4.295700 0
M  V30 33 H -27.319800 7.306800 2.704600 0
M  V30 34 H -22.281700 12.560000 -1.768300 0
M  V30 35 H -24.225600 9.592900 0.361400 0
M  V30 36 H -28.273800 9.792400 5.590500 0
M  V30 37 H -30.626100 10.212600 5.604400 0
M  V30 38 H -23.953600 13.377800 1.969700 0
M  V30 39 H -28.399500 9.126900 1.537500 0
M  V30 40 H -26.102100 9.379000 1.548900 0
M  V30 41 H -26.281500 9.472000 4.450100 0
M  V30 42 H -25.298900 6.566000 2.303600 0
M  V30 END ATOM
M  V30 BEGIN BOND
M  V30 1 1 1 17
M  V30 2 2 2 18
M  V30 3 2 3 19
M  V30 4 1 4 9
M  V30 5 1 4 10
M  V30 6 1 5 7
M  V30 7 1 5 18
M  V30 8 2 6 7
M  V30 9 1 6 20
M  V30 10 2 8 11
M  V30 11 1 8 12
M  V30 12 1 9 24
M  V30 13 1 10 25
M  V30 14 1 11 17
M  V30 15 2 12 21
M  V30 16 1 13 14
M  V30 17 2 13 22
M  V30 18 2 14 23
M  V30 19 2 15 17
M  V30 20 1 15 21
M  V30 21 2 16 20
M  V30 22 1 16 22
M  V30 23 1 18 23
M  V30 24 1 19 21
M  V30 25 1 19 24
M  V30 26 1 20 23
M  V30 27 1 22 25
M  V30 28 1 24 25
M  V30 29 1 4 26 CFG=1
M  V30 30 1 5 27
M  V30 31 1 7 28
M  V30 32 1 8 29
M  V30 33 1 9 30 CFG=3
M  V30 34 1 9 31
M  V30 35 1 10 32 CFG=1
M  V30 36 1 10 33
M  V30 37 1 11 34
M  V30 38 1 12 35
M  V30 39 1 13 36
M  V30 40 1 14 37
M  V30 41 1 15 38
M  V30 42 1 16 39
M  V30 43 1 24 40 CFG=3
M  V30 44 1 25 41 CFG=1
M  V30 45 1 4 42
M  V30 END BOND
M  V30 END CTAB
M  END
>  <Ligand_Instance>  (287) 
4UJ1_NVX_A_1351

>  <Dataset>  (287) 
PDB

>  <PDB_ID>  (287) 
4UJ1

>  <Chain>  (287) 
A

>  <Resi>  (287) 
1351

>  <Num_Resolved_Atoms>  (287) 
25

>  <Num_H_Atoms_ProtBoundConf>  (287) 
17

>  <Pocket>  (287) 
A

>  <SMILES>  (287) 
c1cc(cc(c1)Cl)C(=O)[C@H]2CNC[C@@H]2c3ccc4c(c3)N=CNC4=O

>  <Name>  (287) 
7-[(3S,4R)-4-(3-chlorophenyl)carbonylpyrrolidin-3-yl]-3H-quinazolin-4-one

>  <Num_Heavy_Atoms>  (287) 
25

>  <Num_Not_Resolved_Atoms>  (287) 
0

>  <ATP_Site>  (287) 
True

>  <Peripheral>  (287) 
False

>  <Standardized_SMILES>  (287) 
[H]C1=NC2=C([H])C([C@@]3([H])C([H])([H])[N+]([H])([H])C([H])([H])[C@]3([H])C(=O)C3=C([H])C([H])=C([H])C(Cl)=C3[H])=C([H])C([H])=C2C(=O)N1[H]

$$$$
NVX
     RDKit          3D

  0  0  0  0  0  0  0  0  0  0999 V3000
M  V30 BEGIN CTAB
M  V30 COUNTS 42 45 0 0 0
M  V30 BEGIN ATOM
M  V30 1 Cl -30.472000 -3.608000 18.930000 0
M  V30 2 O -26.357000 -14.348000 23.374000 0
M  V30 3 O -27.520000 -6.644000 22.326000 0
M  V30 4 N -23.173000 -6.584000 22.081000 0 CFG=2 CHG=1
M  V30 5 N -26.057000 -14.248000 21.111000 0
M  V30 6 N -25.723000 -12.210000 19.955000 0
M  V30 7 C -25.852000 -13.521000 19.991000 0
M  V30 8 C -26.864000 -4.916000 17.932000 0
M  V30 9 C -24.331000 -6.028000 21.363000 0 CFG=2
M  V30 10 C -23.539000 -7.945000 22.489000 0 CFG=2
M  V30 11 C -28.076000 -4.252000 17.906000 0
M  V30 12 C -26.491000 -5.649000 19.043000 0
M  V30 13 C -25.919000 -10.125000 23.563000 0
M  V30 14 C -26.147000 -11.487000 23.569000 0
M  V30 15 C -28.549000 -5.060000 20.133000 0
M  V30 16 C -25.567000 -10.161000 21.191000 0
M  V30 17 C -28.907000 -4.353000 19.001000 0
M  V30 18 C -26.186000 -13.674000 22.362000 0
M  V30 19 C -26.828000 -6.500000 21.330000 0
M  V30 20 C -25.800000 -11.541000 21.179000 0
M  V30 21 C -27.320000 -5.720000 20.158000 0
M  V30 22 C -25.590000 -9.456000 22.395000 0
M  V30 23 C -26.058000 -12.210000 22.382000 0
M  V30 24 C -25.434000 -7.101000 21.275000 0 CFG=2
M  V30 25 C -25.085000 -8.030000 22.472000 0 CFG=2
M  V30 26 H -22.967400 -6.027100 22.885800 0
M  V30 27 H -26.118000 -15.243000 21.031800 0
M  V30 28 H -25.793700 -14.015100 19.123500 0
M  V30 29 H -26.253000 -4.865800 17.141900 0
M  V30 30 H -24.054300 -5.756100 20.441300 0
M  V30 31 H -24.678700 -5.230200 21.855600 0
M  V30 32 H -23.196100 -8.130200 23.409900 0
M  V30 33 H -23.152600 -8.609600 21.849500 0
M  V30 34 H -28.344200 -3.709900 17.109700 0
M  V30 35 H -25.616100 -6.133300 19.045300 0
M  V30 36 H -25.992700 -9.611700 24.418000 0
M  V30 37 H -26.375500 -11.953100 24.423700 0
M  V30 38 H -29.161600 -5.098000 20.922500 0
M  V30 39 H -25.383500 -9.678900 20.334300 0
M  V30 40 H -25.329200 -7.611100 20.421300 0
M  V30 41 H -25.435600 -7.613300 23.310700 0
M  V30 42 H -22.374500 -6.608200 21.479500 0
M  V30 END ATOM
M  V30 BEGIN BOND
M  V30 1 1 1 17
M  V30 2 2 2 18
M  V30 3 2 3 19
M  V30 4 1 4 9
M  V30 5 1 4 10
M  V30 6 1 5 7
M  V30 7 1 5 18
M  V30 8 2 6 7
M  V30 9 1 6 20
M  V30 10 2 8 11
M  V30 11 1 8 12
M  V30 12 1 9 24
M  V30 13 1 10 25
M  V30 14 1 11 17
M  V30 15 2 12 21
M  V30 16 1 13 14
M  V30 17 2 13 22
M  V30 18 2 14 23
M  V30 19 2 15 17
M  V30 20 1 15 21
M  V30 21 2 16 20
M  V30 22 1 16 22
M  V30 23 1 18 23
M  V30 24 1 19 21
M  V30 25 1 19 24
M  V30 26 1 20 23
M  V30 27 1 22 25
M  V30 28 1 24 25
M  V30 29 1 4 26 CFG=1
M  V30 30 1 5 27
M  V30 31 1 7 28
M  V30 32 1 8 29
M  V30 33 1 9 30 CFG=3
M  V30 34 1 9 31
M  V30 35 1 10 32 CFG=1
M  V30 36 1 10 33
M  V30 37 1 11 34
M  V30 38 1 12 35
M  V30 39 1 13 36
M  V30 40 1 14 37
M  V30 41 1 15 38
M  V30 42 1 16 39
M  V30 43 1 24 40 CFG=3
M  V30 44 1 25 41 CFG=1
M  V30 45 1 4 42
M  V30 END BOND
M  V30 END CTAB
M  END
>  <Ligand_Instance>  (288) 
4Z84_NVX_A_401

>  <Dataset>  (288) 
PDB

>  <PDB_ID>  (288) 
4Z84

>  <Chain>  (288) 
A

>  <Resi>  (288) 
401

>  <Num_Resolved_Atoms>  (288) 
25

>  <Num_H_Atoms_ProtBoundConf>  (288) 
17

>  <Pocket>  (288) 
A

>  <SMILES>  (288) 
c1cc(cc(c1)Cl)C(=O)[C@H]2CNC[C@@H]2c3ccc4c(c3)N=CNC4=O

>  <Name>  (288) 
7-[(3S,4R)-4-(3-chlorophenyl)carbonylpyrrolidin-3-yl]-3H-quinazolin-4-one

>  <Num_Heavy_Atoms>  (288) 
25

>  <Num_Not_Resolved_Atoms>  (288) 
0

>  <ATP_Site>  (288) 
True

>  <Peripheral>  (288) 
False

>  <Standardized_SMILES>  (288) 
[H]C1=NC2=C([H])C([C@@]3([H])C([H])([H])[N+]([H])([H])C([H])([H])[C@]3([H])C(=O)C3=C([H])C([H])=C([H])C(Cl)=C3[H])=C([H])C([H])=C2C(=O)N1[H]

$$$$
O72
     RDKit          3D

  0  0  0  0  0  0  0  0  0  0999 V3000
M  V30 BEGIN CTAB
M  V30 COUNTS 18 19 0 0 0
M  V30 BEGIN ATOM
M  V30 1 N 17.668000 -25.347000 -22.730000 0
M  V30 2 N 17.649000 -27.645000 -22.680000 0
M  V30 3 N 15.696000 -25.268000 -24.708000 0
M  V30 4 C 14.791000 -25.316000 -25.672000 0
M  V30 5 C 17.159000 -28.803000 -23.145000 0
M  V30 6 C 14.267000 -26.482000 -26.191000 0
M  V30 7 C 16.200000 -28.889000 -24.102000 0
M  V30 8 C 14.697000 -27.675000 -25.691000 0
M  V30 9 C 17.161000 -26.491000 -23.196000 0
M  V30 10 C 16.148000 -26.456000 -24.207000 0
M  V30 11 C 15.668000 -27.705000 -24.666000 0
M  V30 12 H 17.336200 -24.472400 -23.083500 0
M  V30 13 H 18.379500 -25.364900 -22.027500 0
M  V30 14 H 14.465100 -24.449300 -26.049600 0
M  V30 15 H 17.521400 -29.653800 -22.764400 0
M  V30 16 H 13.584000 -26.452500 -26.920900 0
M  V30 17 H 15.871600 -29.783100 -24.406500 0
M  V30 18 H 14.324200 -28.530400 -26.050600 0
M  V30 END ATOM
M  V30 BEGIN BOND
M  V30 1 1 1 9
M  V30 2 1 2 5
M  V30 3 2 2 9
M  V30 4 1 3 4
M  V30 5 2 3 10
M  V30 6 2 4 6
M  V30 7 2 5 7
M  V30 8 1 6 8
M  V30 9 1 7 11
M  V30 10 2 8 11
M  V30 11 1 9 10
M  V30 12 1 10 11
M  V30 13 1 1 12
M  V30 14 1 1 13
M  V30 15 1 4 14
M  V30 16 1 5 15
M  V30 17 1 6 16
M  V30 18 1 7 17
M  V30 19 1 8 18
M  V30 END BOND
M  V30 END CTAB
M  END
>  <Ligand_Instance>  (289) 
6Y2O_O72_A_406

>  <Dataset>  (289) 
PDB

>  <PDB_ID>  (289) 
6Y2O

>  <Chain>  (289) 
A

>  <Resi>  (289) 
406

>  <Num_Resolved_Atoms>  (289) 
11

>  <Num_H_Atoms_ProtBoundConf>  (289) 
7

>  <Pocket>  (289) 
A

>  <SMILES>  (289) 
c1cc2ccnc(c2nc1)N

>  <Name>  (289) 
1,7-naphthyridin-8-amine

>  <Num_Heavy_Atoms>  (289) 
11

>  <Num_Not_Resolved_Atoms>  (289) 
0

>  <ATP_Site>  (289) 
True

>  <Peripheral>  (289) 
False

>  <Standardized_SMILES>  (289) 
[H]C1=C([H])C([H])=C2C(=N1)C(N([H])[H])=NC([H])=C2[H]

$$$$
O72
     RDKit          3D

  0  0  0  0  0  0  0  0  0  0999 V3000
M  V30 BEGIN CTAB
M  V30 COUNTS 18 19 0 0 0
M  V30 BEGIN ATOM
M  V30 1 N -33.041000 -9.702000 -1.862000 0
M  V30 2 N -33.232000 -9.836000 -4.127000 0
M  V30 3 N -30.208000 -9.944000 -2.016000 0
M  V30 4 C -28.897000 -9.999000 -2.188000 0
M  V30 5 C -32.668000 -9.908000 -5.342000 0
M  V30 6 C -28.273000 -10.051000 -3.419000 0
M  V30 7 C -31.329000 -9.987000 -5.552000 0
M  V30 8 C -29.040000 -10.062000 -4.545000 0
M  V30 9 C -32.433000 -9.841000 -3.043000 0
M  V30 10 C -30.990000 -9.938000 -3.135000 0
M  V30 11 C -30.448000 -10.005000 -4.442000 0
M  V30 12 H -32.502100 -9.697900 -1.019600 0
M  V30 13 H -34.035100 -9.602100 -1.820100 0
M  V30 14 H -28.319300 -10.003200 -1.371800 0
M  V30 15 H -33.269700 -9.903200 -6.140700 0
M  V30 16 H -27.275500 -10.080100 -3.482800 0
M  V30 17 H -30.967000 -10.032200 -6.483100 0
M  V30 18 H -28.606200 -10.110400 -5.444700 0
M  V30 END ATOM
M  V30 BEGIN BOND
M  V30 1 1 1 9
M  V30 2 1 2 5
M  V30 3 2 2 9
M  V30 4 1 3 4
M  V30 5 2 3 10
M  V30 6 2 4 6
M  V30 7 2 5 7
M  V30 8 1 6 8
M  V30 9 1 7 11
M  V30 10 2 8 11
M  V30 11 1 9 10
M  V30 12 1 10 11
M  V30 13 1 1 12
M  V30 14 1 1 13
M  V30 15 1 4 14
M  V30 16 1 5 15
M  V30 17 1 6 16
M  V30 18 1 7 17
M  V30 19 1 8 18
M  V30 END BOND
M  V30 END CTAB
M  END
>  <Ligand_Instance>  (290) 
6YNR_O72_A_403

>  <Dataset>  (290) 
PDB

>  <PDB_ID>  (290) 
6YNR

>  <Chain>  (290) 
A

>  <Resi>  (290) 
403

>  <Num_Resolved_Atoms>  (290) 
11

>  <Num_H_Atoms_ProtBoundConf>  (290) 
7

>  <Pocket>  (290) 
A

>  <SMILES>  (290) 
c1cc2ccnc(c2nc1)N

>  <Name>  (290) 
1,7-naphthyridin-8-amine

>  <Num_Heavy_Atoms>  (290) 
11

>  <Num_Not_Resolved_Atoms>  (290) 
0

>  <ATP_Site>  (290) 
True

>  <Peripheral>  (290) 
False

>  <Standardized_SMILES>  (290) 
[H]C1=C([H])C([H])=C2C(=N1)C(N([H])[H])=NC([H])=C2[H]

$$$$
OGB
     RDKit          3D

  0  0  0  0  0  0  0  0  0  0999 V3000
M  V30 BEGIN CTAB
M  V30 COUNTS 23 24 0 0 0
M  V30 BEGIN ATOM
M  V30 1 O 14.367000 -26.740000 -20.814000 0
M  V30 2 O 13.663000 -27.831000 -18.998000 0
M  V30 3 N 17.063000 -27.118000 -15.183000 0
M  V30 4 C 13.071000 -28.832000 -19.859000 0 CFG=1
M  V30 5 C 16.583000 -28.019000 -16.050000 0
M  V30 6 C 16.851000 -25.839000 -15.450000 0
M  V30 7 C 15.250000 -23.608000 -17.971000 0
M  V30 8 C 15.894000 -27.702000 -17.181000 0
M  V30 9 C 15.942000 -23.997000 -16.860000 0
M  V30 10 C 14.740000 -24.546000 -18.855000 0
M  V30 11 C 14.304000 -26.841000 -19.614000 0
M  V30 12 C 16.156000 -25.370000 -16.588000 0
M  V30 13 C 14.919000 -25.894000 -18.637000 0
M  V30 14 C 15.648000 -26.341000 -17.489000 0
M  V30 15 H 12.616900 -29.525900 -19.300200 0
M  V30 16 H 12.401100 -28.398900 -20.462100 0
M  V30 17 H 13.785900 -29.262900 -20.409700 0
M  V30 18 H 16.740800 -28.986900 -15.854200 0
M  V30 19 H 17.205100 -25.161300 -14.805500 0
M  V30 20 H 15.109400 -22.634100 -18.149200 0
M  V30 21 H 15.564300 -28.424000 -17.789300 0
M  V30 22 H 16.300900 -23.305900 -16.232700 0
M  V30 23 H 14.235200 -24.239700 -19.662100 0
M  V30 END ATOM
M  V30 BEGIN BOND
M  V30 1 2 1 11
M  V30 2 1 2 4
M  V30 3 1 2 11
M  V30 4 2 3 5
M  V30 5 1 3 6
M  V30 6 1 5 8
M  V30 7 2 6 12
M  V30 8 2 7 9
M  V30 9 1 7 10
M  V30 10 2 8 14
M  V30 11 1 9 12
M  V30 12 2 10 13
M  V30 13 1 11 13
M  V30 14 1 12 14
M  V30 15 1 13 14
M  V30 16 1 4 15 CFG=1
M  V30 17 1 4 16
M  V30 18 1 4 17
M  V30 19 1 5 18
M  V30 20 1 6 19
M  V30 21 1 7 20
M  V30 22 1 8 21
M  V30 23 1 9 22
M  V30 24 1 10 23
M  V30 END BOND
M  V30 END CTAB
M  END
>  <Ligand_Instance>  (291) 
6Y89_OGB_A_401

>  <Dataset>  (291) 
PDB

>  <PDB_ID>  (291) 
6Y89

>  <Chain>  (291) 
A

>  <Resi>  (291) 
401

>  <Num_Resolved_Atoms>  (291) 
14

>  <Num_H_Atoms_ProtBoundConf>  (291) 
9

>  <Pocket>  (291) 
A

>  <SMILES>  (291) 
COC(=O)c1cccc2c1ccnc2

>  <Name>  (291) 
methyl isoquinoline-5-carboxylate

>  <Num_Heavy_Atoms>  (291) 
14

>  <Num_Not_Resolved_Atoms>  (291) 
0

>  <ATP_Site>  (291) 
True

>  <Peripheral>  (291) 
False

>  <Standardized_SMILES>  (291) 
[H]C1=NC([H])=C2C([H])=C([H])C([H])=C(C(=O)OC([H])([H])[H])C2=C1[H]

$$$$
P4Q
     RDKit          3D

  0  0  0  0  0  0  0  0  0  0999 V3000
M  V30 BEGIN CTAB
M  V30 COUNTS 17 18 0 0 0
M  V30 BEGIN ATOM
M  V30 1 N 16.338000 5.128000 20.171000 0
M  V30 2 N 16.558000 2.830000 20.434000 0
M  V30 3 N 14.781000 1.322000 19.927000 0
M  V30 4 N 13.673000 4.791000 19.356000 0
M  V30 5 C 15.994000 1.624000 20.335000 0
M  V30 6 C 12.432000 4.532000 18.974000 0
M  V30 7 C 11.894000 3.252000 18.855000 0
M  V30 8 C 12.677000 2.177000 19.156000 0
M  V30 9 C 15.814000 3.905000 20.098000 0
M  V30 10 C 14.004000 2.392000 19.578000 0
M  V30 11 C 14.467000 3.724000 19.656000 0
M  V30 12 H 15.786300 5.924000 19.921900 0
M  V30 13 H 17.282900 5.249800 20.474800 0
M  V30 14 H 16.567700 0.851000 20.605900 0
M  V30 15 H 11.840200 5.308100 18.755900 0
M  V30 16 H 10.949100 3.123900 18.553800 0
M  V30 17 H 12.314200 1.248400 19.078300 0
M  V30 END ATOM
M  V30 BEGIN BOND
M  V30 1 1 1 9
M  V30 2 1 2 5
M  V30 3 2 2 9
M  V30 4 2 3 5
M  V30 5 1 3 10
M  V30 6 1 4 6
M  V30 7 2 4 11
M  V30 8 2 6 7
M  V30 9 1 7 8
M  V30 10 2 8 10
M  V30 11 1 9 11
M  V30 12 1 10 11
M  V30 13 1 1 12
M  V30 14 1 1 13
M  V30 15 1 5 14
M  V30 16 1 6 15
M  V30 17 1 7 16
M  V30 18 1 8 17
M  V30 END BOND
M  V30 END CTAB
M  END
>  <Ligand_Instance>  (292) 
6YOU_P4Q_A_401

>  <Dataset>  (292) 
PDB

>  <PDB_ID>  (292) 
6YOU

>  <Chain>  (292) 
A

>  <Resi>  (292) 
401

>  <Num_Resolved_Atoms>  (292) 
11

>  <Num_H_Atoms_ProtBoundConf>  (292) 
6

>  <Pocket>  (292) 
A

>  <SMILES>  (292) 
c1cc2c(c(ncn2)N)nc1

>  <Name>  (292) 
pyrido[3,2-d]pyrimidin-4-amine

>  <Num_Heavy_Atoms>  (292) 
11

>  <Num_Not_Resolved_Atoms>  (292) 
0

>  <ATP_Site>  (292) 
True

>  <Peripheral>  (292) 
False

>  <Standardized_SMILES>  (292) 
[H]C1=NC2=C([H])C([H])=C([H])N=C2C(N([H])[H])=N1

$$$$
P4W
     RDKit          3D

  0  0  0  0  0  0  0  0  0  0999 V3000
M  V30 BEGIN CTAB
M  V30 COUNTS 28 29 0 0 0
M  V30 BEGIN ATOM
M  V30 1 S 13.803000 -25.841000 -27.436000 0 CFG=1
M  V30 2 O 14.669000 -26.872000 -27.914000 0
M  V30 3 O 13.233000 -24.911000 -28.359000 0
M  V30 4 N 17.106000 -26.590000 -23.179000 0
M  V30 5 N 12.583000 -26.578000 -26.670000 0
M  V30 6 C 11.529000 -25.718000 -26.116000 0 CFG=1
M  V30 7 C 12.109000 -27.838000 -27.250000 0 CFG=1
M  V30 8 C 16.442000 -27.375000 -24.039000 0
M  V30 9 C 16.990000 -25.275000 -23.329000 0
M  V30 10 C 15.179000 -22.730000 -25.354000 0
M  V30 11 C 15.656000 -26.911000 -25.052000 0
M  V30 12 C 14.478000 -23.545000 -26.228000 0
M  V30 13 C 16.042000 -23.260000 -24.440000 0
M  V30 14 C 14.648000 -24.904000 -26.192000 0
M  V30 15 C 16.213000 -24.662000 -24.336000 0
M  V30 16 C 15.509000 -25.517000 -25.229000 0
M  V30 17 H 10.836200 -26.284900 -25.670300 0
M  V30 18 H 11.927800 -25.091100 -25.446700 0
M  V30 19 H 11.105500 -25.192500 -26.853900 0
M  V30 20 H 11.358900 -28.198700 -26.695700 0
M  V30 21 H 11.786200 -27.675200 -28.182300 0
M  V30 22 H 12.858600 -28.499700 -27.267600 0
M  V30 23 H 16.528700 -28.365300 -23.930600 0
M  V30 24 H 17.482600 -24.683900 -22.690300 0
M  V30 25 H 15.050500 -21.739100 -25.393700 0
M  V30 26 H 15.188800 -27.550200 -25.662800 0
M  V30 27 H 13.845300 -23.139600 -26.887900 0
M  V30 28 H 16.559200 -22.652300 -23.837300 0
M  V30 END ATOM
M  V30 BEGIN BOND
M  V30 1 2 1 2
M  V30 2 2 1 3
M  V30 3 1 1 5 CFG=1
M  V30 4 1 1 14
M  V30 5 2 4 8
M  V30 6 1 4 9
M  V30 7 1 5 6
M  V30 8 1 5 7
M  V30 9 1 8 11
M  V30 10 2 9 15
M  V30 11 1 10 12
M  V30 12 2 10 13
M  V30 13 2 11 16
M  V30 14 2 12 14
M  V30 15 1 13 15
M  V30 16 1 14 16
M  V30 17 1 15 16
M  V30 18 1 6 17 CFG=1
M  V30 19 1 6 18
M  V30 20 1 6 19
M  V30 21 1 7 20 CFG=1
M  V30 22 1 7 21
M  V30 23 1 7 22
M  V30 24 1 8 23
M  V30 25 1 9 24
M  V30 26 1 10 25
M  V30 27 1 11 26
M  V30 28 1 12 27
M  V30 29 1 13 28
M  V30 END BOND
M  V30 END CTAB
M  END
>  <Ligand_Instance>  (293) 
6YOT_P4W_A_401

>  <Dataset>  (293) 
PDB

>  <PDB_ID>  (293) 
6YOT

>  <Chain>  (293) 
A

>  <Resi>  (293) 
401

>  <Num_Resolved_Atoms>  (293) 
16

>  <Num_H_Atoms_ProtBoundConf>  (293) 
12

>  <Pocket>  (293) 
A

>  <SMILES>  (293) 
CN(C)S(=O)(=O)c1cccc2c1ccnc2

>  <Name>  (293) 
~{N},~{N}-dimethylisoquinoline-5-sulfonamide

>  <Num_Heavy_Atoms>  (293) 
16

>  <Num_Not_Resolved_Atoms>  (293) 
0

>  <ATP_Site>  (293) 
True

>  <Peripheral>  (293) 
True

>  <Standardized_SMILES>  (293) 
[H]C1=NC([H])=C2C([H])=C([H])C([H])=C(S(=O)(=O)N(C([H])([H])[H])C([H])([H])[H])C2=C1[H]

$$$$
P4W
     RDKit          3D

  0  0  0  0  0  0  0  0  0  0999 V3000
M  V30 BEGIN CTAB
M  V30 COUNTS 28 29 0 0 0
M  V30 BEGIN ATOM
M  V30 1 S 13.188000 -15.153000 -0.686000 0 CFG=1
M  V30 2 O 14.546000 -15.036000 -1.118000 0
M  V30 3 O 12.749000 -16.344000 -0.032000 0
M  V30 4 N 7.950000 -15.489000 -2.213000 0
M  V30 5 N 12.924000 -13.920000 0.341000 0
M  V30 6 C 11.708000 -13.963000 1.163000 0 CFG=1
M  V30 7 C 13.324000 -12.578000 -0.097000 0 CFG=1
M  V30 8 C 8.673000 -15.871000 -1.150000 0
M  V30 9 C 8.603000 -14.921000 -3.223000 0
M  V30 10 C 12.050000 -14.062000 -4.349000 0
M  V30 11 C 10.023000 -15.700000 -1.033000 0
M  V30 12 C 12.784000 -14.403000 -3.225000 0
M  V30 13 C 10.694000 -14.187000 -4.363000 0
M  V30 14 C 12.158000 -14.887000 -2.111000 0
M  V30 15 C 10.004000 -14.706000 -3.242000 0
M  V30 16 C 10.739000 -15.093000 -2.090000 0
M  V30 17 H 11.669900 -13.150400 1.744600 0
M  V30 18 H 10.904300 -13.985200 0.568400 0
M  V30 19 H 11.721700 -14.782600 1.735800 0
M  V30 20 H 13.109000 -11.915300 0.620400 0
M  V30 21 H 14.307400 -12.565800 -0.278200 0
M  V30 22 H 12.828200 -12.338200 -0.931700 0
M  V30 23 H 8.191200 -16.310700 -0.392000 0
M  V30 24 H 8.072700 -14.627400 -4.018300 0
M  V30 25 H 12.522200 -13.719400 -5.161200 0
M  V30 26 H 10.500300 -16.001300 -0.207600 0
M  V30 27 H 13.778100 -14.294300 -3.228800 0
M  V30 28 H 10.180200 -13.908900 -5.174600 0
M  V30 END ATOM
M  V30 BEGIN BOND
M  V30 1 2 1 2
M  V30 2 2 1 3
M  V30 3 1 1 5 CFG=1
M  V30 4 1 1 14
M  V30 5 2 4 8
M  V30 6 1 4 9
M  V30 7 1 5 6
M  V30 8 1 5 7
M  V30 9 1 8 11
M  V30 10 2 9 15
M  V30 11 1 10 12
M  V30 12 2 10 13
M  V30 13 2 11 16
M  V30 14 2 12 14
M  V30 15 1 13 15
M  V30 16 1 14 16
M  V30 17 1 15 16
M  V30 18 1 6 17 CFG=1
M  V30 19 1 6 18
M  V30 20 1 6 19
M  V30 21 1 7 20 CFG=1
M  V30 22 1 7 21
M  V30 23 1 7 22
M  V30 24 1 8 23
M  V30 25 1 9 24
M  V30 26 1 10 25
M  V30 27 1 11 26
M  V30 28 1 12 27
M  V30 29 1 13 28
M  V30 END BOND
M  V30 END CTAB
M  END
>  <Ligand_Instance>  (294) 
6YOT_P4W_A_402

>  <Dataset>  (294) 
PDB

>  <PDB_ID>  (294) 
6YOT

>  <Chain>  (294) 
A

>  <Resi>  (294) 
402

>  <Num_Resolved_Atoms>  (294) 
16

>  <Num_H_Atoms_ProtBoundConf>  (294) 
12

>  <Pocket>  (294) 
X

>  <SMILES>  (294) 
CN(C)S(=O)(=O)c1cccc2c1ccnc2

>  <Name>  (294) 
~{N},~{N}-dimethylisoquinoline-5-sulfonamide

>  <Num_Heavy_Atoms>  (294) 
16

>  <Num_Not_Resolved_Atoms>  (294) 
0

>  <ATP_Site>  (294) 
True

>  <Peripheral>  (294) 
True

>  <Standardized_SMILES>  (294) 
[H]C1=NC([H])=C2C([H])=C([H])C([H])=C(S(=O)(=O)N(C([H])([H])[H])C([H])([H])[H])C2=C1[H]

$$$$
P72
     RDKit          3D

  0  0  0  0  0  0  0  0  0  0999 V3000
M  V30 BEGIN CTAB
M  V30 COUNTS 19 19 0 0 0
M  V30 BEGIN ATOM
M  V30 1 O 12.437000 7.282000 18.687000 0
M  V30 2 N 14.580000 1.470000 19.598000 0 CHG=1
M  V30 3 N 16.431000 2.456000 20.377000 0
M  V30 4 C 12.535000 4.935000 19.038000 0
M  V30 5 C 14.514000 6.267000 19.341000 0
M  V30 6 C 13.254000 3.798000 19.360000 0
M  V30 7 C 15.227000 5.123000 19.663000 0
M  V30 8 C 13.164000 6.173000 19.022000 0
M  V30 9 C 15.267000 2.575000 19.901000 0
M  V30 10 C 14.607000 3.872000 19.663000 0
M  V30 11 H 12.875000 8.180800 18.670700 0
M  V30 12 H 13.657000 1.542900 19.220200 0
M  V30 13 H 14.988800 0.569900 19.749000 0
M  V30 14 H 16.961500 3.270900 20.610300 0
M  V30 15 H 11.562300 4.865500 18.816700 0
M  V30 16 H 14.969200 7.157400 19.338100 0
M  V30 17 H 12.793100 2.910700 19.374800 0
M  V30 18 H 16.196400 5.194400 19.898000 0
M  V30 19 H 16.822000 1.546900 20.520600 0
M  V30 END ATOM
M  V30 BEGIN BOND
M  V30 1 1 1 8
M  V30 2 2 2 9
M  V30 3 1 3 9
M  V30 4 1 4 6
M  V30 5 2 4 8
M  V30 6 2 5 7
M  V30 7 1 5 8
M  V30 8 2 6 10
M  V30 9 1 7 10
M  V30 10 1 9 10
M  V30 11 1 1 11
M  V30 12 1 2 12
M  V30 13 1 2 13
M  V30 14 1 3 14
M  V30 15 1 4 15
M  V30 16 1 5 16
M  V30 17 1 6 17
M  V30 18 1 7 18
M  V30 19 1 3 19
M  V30 END BOND
M  V30 END CTAB
M  END
>  <Ligand_Instance>  (295) 
6YPS_P72_A_402

>  <Dataset>  (295) 
PDB

>  <PDB_ID>  (295) 
6YPS

>  <Chain>  (295) 
A

>  <Resi>  (295) 
402

>  <Num_Resolved_Atoms>  (295) 
10

>  <Num_H_Atoms_ProtBoundConf>  (295) 
9

>  <Pocket>  (295) 
A

>  <SMILES>  (295) 
[H]/N=C(\c1ccc(cc1)O)/N

>  <Name>  (295) 
4-oxidanylbenzenecarboximidamide

>  <Num_Heavy_Atoms>  (295) 
10

>  <Num_Not_Resolved_Atoms>  (295) 
0

>  <ATP_Site>  (295) 
True

>  <Peripheral>  (295) 
False

>  <Standardized_SMILES>  (295) 
[H]OC1=C([H])C([H])=C(C(N([H])[H])=[N+]([H])[H])C([H])=C1[H]

$$$$
PTV
     RDKit          3D

  0  0  0  0  0  0  0  0  0  0999 V3000
M  V30 BEGIN CTAB
M  V30 COUNTS 31 33 0 0 0
M  V30 BEGIN ATOM
M  V30 1 S 12.725000 13.498000 0.157000 0
M  V30 2 S 10.643000 9.911000 3.775000 0
M  V30 3 O 11.340000 12.404000 2.664000 0
M  V30 4 N 2.871000 9.649000 3.890000 0 CHG=-1
M  V30 5 N 8.685000 9.718000 1.805000 0
M  V30 6 N 7.454000 9.715000 1.723000 0
M  V30 7 N 7.919000 9.898000 3.810000 0
M  V30 8 C 13.551000 13.088000 -1.256000 0
M  V30 9 C 11.724000 10.056000 2.326000 0 CFG=2
M  V30 10 C 3.758000 9.696000 4.882000 0
M  V30 11 C 3.235000 9.666000 2.609000 0
M  V30 12 C 13.611000 11.741000 -1.299000 0
M  V30 13 C 13.051000 11.095000 -0.259000 0
M  V30 14 C 5.128000 9.792000 4.608000 0
M  V30 15 C 4.584000 9.774000 2.264000 0
M  V30 16 C 9.021000 9.843000 3.085000 0
M  V30 17 C 12.517000 11.919000 0.643000 0
M  V30 18 C 11.805000 11.528000 1.931000 0
M  V30 19 C 6.915000 9.843000 2.945000 0
M  V30 20 C 5.553000 9.832000 3.271000 0
M  V30 21 H 6.935200 9.629800 0.872400 0
M  V30 22 H 7.854600 9.966900 4.805500 0
M  V30 23 H 13.924800 13.722500 -1.932500 0
M  V30 24 H 11.346700 9.523300 1.568500 0
M  V30 25 H 12.637200 9.715800 2.550500 0
M  V30 26 H 3.443200 9.662500 5.830600 0
M  V30 27 H 2.540600 9.601300 1.892300 0
M  V30 28 H 14.044500 11.252600 -2.056300 0
M  V30 29 H 13.037000 10.098900 -0.171900 0
M  V30 30 H 5.793300 9.831400 5.353600 0
M  V30 31 H 4.855700 9.809700 1.302300 0
M  V30 END ATOM
M  V30 BEGIN BOND
M  V30 1 1 1 8
M  V30 2 1 1 17
M  V30 3 1 2 9
M  V30 4 1 2 16
M  V30 5 2 3 18
M  V30 6 1 4 10
M  V30 7 1 4 11
M  V30 8 1 5 6
M  V30 9 2 5 16
M  V30 10 1 6 19
M  V30 11 1 7 16
M  V30 12 1 7 19
M  V30 13 2 8 12
M  V30 14 1 9 18
M  V30 15 2 10 14
M  V30 16 2 11 15
M  V30 17 1 12 13
M  V30 18 2 13 17
M  V30 19 1 14 20
M  V30 20 1 15 20
M  V30 21 1 17 18
M  V30 22 2 19 20
M  V30 23 1 15 31
M  V30 24 1 6 21
M  V30 25 1 7 22
M  V30 26 1 8 23
M  V30 27 1 9 24 CFG=3
M  V30 28 1 9 25
M  V30 29 1 10 26
M  V30 30 1 11 27
M  V30 31 1 12 28
M  V30 32 1 13 29
M  V30 33 1 14 30
M  V30 END BOND
M  V30 END CTAB
M  END
>  <Ligand_Instance>  (296) 
4IJ9_PTV_A_401

>  <Dataset>  (296) 
PDB

>  <PDB_ID>  (296) 
4IJ9

>  <Chain>  (296) 
A

>  <Resi>  (296) 
401

>  <Num_Resolved_Atoms>  (296) 
20

>  <Num_H_Atoms_ProtBoundConf>  (296) 
11

>  <Pocket>  (296) 
A

>  <SMILES>  (296) 
c1cc(sc1)C(=O)CSc2nc([nH]n2)c3ccncc3

>  <Name>  (296) 
2-[[5-(4-pyridyl)-1H-1,2,4-triazol-3-yl]sulfanyl]-1-(2-thiophenyl)ethanone

>  <Num_Heavy_Atoms>  (296) 
20

>  <Num_Not_Resolved_Atoms>  (296) 
0

>  <ATP_Site>  (296) 
True

>  <Peripheral>  (296) 
False

>  <Standardized_SMILES>  (296) 
[H]C1=C([H])C(=C2N([H])N=C(SC([H])([H])C(=O)C3=C([H])C([H])=C([H])S3)N2[H])C([H])=C([H])[N-]1

$$$$
PZX
     RDKit          3D

  0  0  0  0  0  0  0  0  0  0999 V3000
M  V30 BEGIN CTAB
M  V30 COUNTS 27 28 0 0 0
M  V30 BEGIN ATOM
M  V30 1 O 29.510000 -11.163000 -0.696000 0
M  V30 2 O 30.014000 -9.896000 1.120000 0
M  V30 3 N 25.764000 -9.364000 -0.225000 0
M  V30 4 N 26.796000 -9.890000 -0.680000 0
M  V30 5 N 33.549000 -9.987000 4.233000 0
M  V30 6 C 25.055000 -8.145000 1.925000 0 CFG=1
M  V30 7 C 31.307000 -10.453000 1.421000 0 CFG=2
M  V30 8 C 32.738000 -10.084000 5.288000 0
M  V30 9 C 33.117000 -10.073000 2.980000 0
M  V30 10 C 31.357000 -10.311000 5.115000 0
M  V30 11 C 30.864000 -10.464000 3.808000 0
M  V30 12 C 27.263000 -9.234000 1.356000 0
M  V30 13 C 29.148000 -10.416000 0.211000 0
M  V30 14 C 26.020000 -8.919000 1.012000 0
M  V30 15 C 27.729000 -9.862000 0.285000 0
M  V30 16 C 31.756000 -10.333000 2.732000 0
M  V30 17 H 25.509100 -7.939200 2.791900 0
M  V30 18 H 24.786200 -7.291500 1.478700 0
M  V30 19 H 24.242000 -8.700900 2.098300 0
M  V30 20 H 31.975300 -10.000600 0.830500 0
M  V30 21 H 31.274100 -11.428000 1.201300 0
M  V30 22 H 33.113200 -9.994800 6.210600 0
M  V30 23 H 33.754000 -9.953900 2.218400 0
M  V30 24 H 30.743600 -10.361800 5.903100 0
M  V30 25 H 29.897100 -10.662200 3.647600 0
M  V30 26 H 27.734900 -9.043300 2.216800 0
M  V30 27 H 24.889300 -9.286500 -0.703300 0
M  V30 END ATOM
M  V30 BEGIN BOND
M  V30 1 2 1 13
M  V30 2 1 2 7
M  V30 3 1 2 13
M  V30 4 1 3 4
M  V30 5 1 3 14
M  V30 6 2 4 15
M  V30 7 2 5 8
M  V30 8 1 5 9
M  V30 9 1 6 14
M  V30 10 1 7 16
M  V30 11 1 8 10
M  V30 12 2 9 16
M  V30 13 2 10 11
M  V30 14 1 11 16
M  V30 15 2 12 14
M  V30 16 1 12 15
M  V30 17 1 13 15
M  V30 18 1 3 27
M  V30 19 1 6 17 CFG=1
M  V30 20 1 6 18
M  V30 21 1 6 19
M  V30 22 1 7 20 CFG=3
M  V30 23 1 7 21
M  V30 24 1 8 22
M  V30 25 1 9 23
M  V30 26 1 10 24
M  V30 27 1 11 25
M  V30 28 1 12 26
M  V30 END BOND
M  V30 END CTAB
M  END
>  <Ligand_Instance>  (297) 
4IE9_PZX_A_401

>  <Dataset>  (297) 
PDB

>  <PDB_ID>  (297) 
4IE9

>  <Chain>  (297) 
A

>  <Resi>  (297) 
401

>  <Num_Resolved_Atoms>  (297) 
16

>  <Num_H_Atoms_ProtBoundConf>  (297) 
11

>  <Pocket>  (297) 
A

>  <SMILES>  (297) 
Cc1cc(n[nH]1)C(=O)OCc2cccnc2

>  <Name>  (297) 
pyridin-3-ylmethyl 5-methyl-1H-pyrazole-3-carboxylate

>  <Num_Heavy_Atoms>  (297) 
16

>  <Num_Not_Resolved_Atoms>  (297) 
0

>  <ATP_Site>  (297) 
True

>  <Peripheral>  (297) 
False

>  <Standardized_SMILES>  (297) 
[H]C1=NC([H])=C(C([H])([H])OC(=O)C2=NN([H])C(C([H])([H])[H])=C2[H])C([H])=C1[H]

$$$$
QNI
     RDKit          3D

  0  0  0  0  0  0  0  0  0  0999 V3000
M  V30 BEGIN CTAB
M  V30 COUNTS 41 44 0 0 0
M  V30 BEGIN ATOM
M  V30 1 N -25.745000 -7.054000 -2.473000 0 CFG=2 CHG=1
M  V30 2 N -33.319000 -9.983000 -4.335000 0
M  V30 3 N -33.070000 -9.942000 -1.918000 0
M  V30 4 N -31.279000 -10.338000 -5.572000 0
M  V30 5 N -30.856000 -10.246000 -1.759000 0
M  V30 6 N -29.243000 -10.539000 -4.521000 0
M  V30 7 C -32.599000 -10.162000 -5.448000 0
M  V30 8 C -31.991000 -10.090000 -1.110000 0
M  V30 9 C -25.091000 -8.367000 -2.633000 0 CFG=2
M  V30 10 C -26.857000 -6.859000 -3.450000 0 CFG=2
M  V30 11 C -28.623000 -10.755000 -5.832000 0 CFG=2
M  V30 12 C -27.571000 -9.702000 -6.151000 0 CFG=2
M  V30 13 C -28.229000 -10.487000 -3.384000 0 CFG=2
M  V30 14 C -26.081000 -9.509000 -2.543000 0 CFG=2
M  V30 15 C -27.843000 -8.006000 -3.499000 0 CFG=2
M  V30 16 C -26.547000 -9.611000 -5.013000 0 CFG=2
M  V30 17 C -32.598000 -10.008000 -3.200000 0
M  V30 18 C -30.624000 -10.342000 -4.388000 0
M  V30 19 C -31.227000 -10.191000 -3.090000 0
M  V30 20 C -27.180000 -9.394000 -3.617000 0 CFG=2
M  V30 21 H -25.063800 -6.335200 -2.611800 0
M  V30 22 H -33.117800 -10.164600 -6.302900 0
M  V30 23 H -32.051800 -10.081400 -0.111900 0
M  V30 24 H -24.405900 -8.476200 -1.912800 0
M  V30 25 H -24.643100 -8.397800 -3.526600 0
M  V30 26 H -26.459200 -6.747400 -4.360700 0
M  V30 27 H -27.353700 -6.028100 -3.199100 0
M  V30 28 H -29.334400 -10.722500 -6.534000 0
M  V30 29 H -28.189200 -11.656000 -5.838600 0
M  V30 30 H -28.016900 -8.814200 -6.265300 0
M  V30 31 H -27.101500 -9.950800 -6.998200 0
M  V30 32 H -27.767600 -11.371800 -3.319300 0
M  V30 33 H -28.710100 -10.298500 -2.527800 0
M  V30 34 H -26.508400 -9.497300 -1.639000 0
M  V30 35 H -25.592700 -10.372400 -2.669700 0
M  V30 36 H -28.440700 -7.874100 -4.289800 0
M  V30 37 H -28.389200 -7.987900 -2.661600 0
M  V30 38 H -25.932400 -8.845300 -5.202700 0
M  V30 39 H -26.022600 -10.462200 -4.992300 0
M  V30 40 H -26.114600 -6.988500 -1.546100 0
M  V30 41 H -34.019700 -9.811000 -1.633700 0
M  V30 END ATOM
M  V30 BEGIN BOND
M  V30 1 1 1 9
M  V30 2 1 1 10
M  V30 3 2 2 7
M  V30 4 1 2 17
M  V30 5 1 3 8
M  V30 6 1 3 17
M  V30 7 1 4 7
M  V30 8 2 4 18
M  V30 9 2 5 8
M  V30 10 1 5 19
M  V30 11 1 6 11
M  V30 12 1 6 13
M  V30 13 1 6 18
M  V30 14 1 9 14
M  V30 15 1 10 15
M  V30 16 1 11 12
M  V30 17 1 12 16
M  V30 18 1 20 13 CFG=1
M  V30 19 1 14 20
M  V30 20 1 15 20
M  V30 21 1 16 20
M  V30 22 2 17 19
M  V30 23 1 18 19
M  V30 24 1 1 21 CFG=3
M  V30 25 1 3 41
M  V30 26 1 7 22
M  V30 27 1 8 23
M  V30 28 1 9 24 CFG=1
M  V30 29 1 9 25
M  V30 30 1 10 26 CFG=3
M  V30 31 1 10 27
M  V30 32 1 11 28 CFG=3
M  V30 33 1 11 29
M  V30 34 1 12 30 CFG=3
M  V30 35 1 12 31
M  V30 36 1 13 32 CFG=1
M  V30 37 1 13 33
M  V30 38 1 14 34 CFG=1
M  V30 39 1 14 35
M  V30 40 1 15 36 CFG=3
M  V30 41 1 15 37
M  V30 42 1 16 38 CFG=3
M  V30 43 1 16 39
M  V30 44 1 1 40
M  V30 END BOND
M  V30 END CTAB
M  END
>  <Ligand_Instance>  (298) 
3ZO3_QNI_A_1351

>  <Dataset>  (298) 
PDB

>  <PDB_ID>  (298) 
3ZO3

>  <Chain>  (298) 
A

>  <Resi>  (298) 
1351

>  <Num_Resolved_Atoms>  (298) 
20

>  <Num_H_Atoms_ProtBoundConf>  (298) 
21

>  <Pocket>  (298) 
A

>  <SMILES>  (298) 
c1[nH]c2c(n1)c(ncn2)N3CCCC4(C3)CCNCC4

>  <Name>  (298) 
6-(2,9-DIAZASPIRO[5.5]UNDECAN-2-YL)-9H-PURINE

>  <Num_Heavy_Atoms>  (298) 
20

>  <Num_Not_Resolved_Atoms>  (298) 
0

>  <ATP_Site>  (298) 
True

>  <Peripheral>  (298) 
False

>  <Standardized_SMILES>  (298) 
[H]C1=NC2=C(N=C([H])N2[H])C(N2C([H])([H])C([H])([H])C([H])([H])C3(C2([H])[H])C([H])([H])C([H])([H])[N+]([H])([H])C([H])([H])C3([H])[H])=N1

$$$$
QWI
     RDKit          3D

  0  0  0  0  0  0  0  0  0  0999 V3000
M  V30 BEGIN CTAB
M  V30 COUNTS 51 55 0 0 0
M  V30 BEGIN ATOM
M  V30 1 N 33.533000 -9.824000 4.227000 0
M  V30 2 N 33.567000 -9.838000 1.789000 0
M  V30 3 N 31.331000 -9.671000 5.205000 0
M  V30 4 N 31.369000 -9.690000 1.373000 0
M  V30 5 N 25.424000 -7.748000 4.144000 0 CFG=2 CHG=1
M  V30 6 N 29.438000 -9.270000 3.898000 0
M  V30 7 C 32.666000 -9.789000 5.246000 0
M  V30 8 C 32.581000 -9.793000 0.861000 0
M  V30 9 C 24.182000 -8.404000 4.588000 0 CFG=2
M  V30 10 C 28.815000 -8.707000 2.691000 0 CFG=2
M  V30 11 C 28.580000 -9.241000 5.095000 0 CFG=2
M  V30 12 C 23.005000 -12.700000 -0.292000 0
M  V30 13 C 23.069000 -11.329000 -0.433000 0
M  V30 14 C 23.433000 -13.286000 0.882000 0
M  V30 15 C 23.543000 -9.233000 3.488000 0 CFG=2
M  V30 16 C 23.560000 -10.540000 0.602000 0
M  V30 17 C 23.925000 -12.499000 1.919000 0
M  V30 18 C 27.557000 -7.884000 2.921000 0 CFG=2
M  V30 19 C 27.117000 -9.538000 4.800000 0 CFG=2
M  V30 20 C 25.871000 -9.613000 2.559000 0 CFG=2
M  V30 21 C 32.953000 -9.768000 3.009000 0
M  V30 22 C 30.831000 -9.581000 3.951000 0
M  V30 23 C 31.592000 -9.663000 2.741000 0
M  V30 24 C 23.993000 -11.116000 1.793000 0
M  V30 25 C 24.535000 -10.268000 2.932000 0 CFG=2
M  V30 26 C 26.491000 -8.712000 3.662000 0 CFG=1
M  V30 27 H 25.795500 -7.225400 4.911400 0
M  V30 28 H 33.067100 -9.860300 6.159200 0
M  V30 29 H 32.755700 -9.834100 -0.122800 0
M  V30 30 H 23.533200 -7.700800 4.878800 0
M  V30 31 H 24.393100 -9.002800 5.360600 0
M  V30 32 H 28.578900 -9.466200 2.084500 0
M  V30 33 H 29.488900 -8.119500 2.242900 0
M  V30 34 H 28.641700 -8.331800 5.506800 0
M  V30 35 H 28.917300 -9.924000 5.742900 0
M  V30 36 H 22.650500 -13.266000 -1.036300 0
M  V30 37 H 22.761200 -10.900800 -1.282700 0
M  V30 38 H 23.389400 -14.279400 0.987800 0
M  V30 39 H 23.253700 -8.626500 2.747400 0
M  V30 40 H 22.746100 -9.710000 3.858800 0
M  V30 41 H 23.602400 -9.547300 0.489200 0
M  V30 42 H 24.233400 -12.933500 2.765200 0
M  V30 43 H 27.190000 -7.592000 2.037800 0
M  V30 44 H 27.786900 -7.079600 3.468900 0
M  V30 45 H 26.592600 -9.362200 5.633100 0
M  V30 46 H 27.041700 -10.505000 4.556600 0
M  V30 47 H 25.724300 -9.050600 1.745200 0
M  V30 48 H 26.524700 -10.339800 2.348400 0
M  V30 49 H 24.731900 -10.899000 3.682400 0
M  V30 50 H 34.549400 -9.908500 1.616100 0
M  V30 51 H 25.200300 -7.125500 3.394000 0
M  V30 END ATOM
M  V30 BEGIN BOND
M  V30 1 2 1 7
M  V30 2 1 1 21
M  V30 3 1 2 8
M  V30 4 1 2 21
M  V30 5 1 3 7
M  V30 6 2 3 22
M  V30 7 2 4 8
M  V30 8 1 4 23
M  V30 9 1 5 9
M  V30 10 1 5 26
M  V30 11 1 6 10
M  V30 12 1 6 11
M  V30 13 1 6 22
M  V30 14 1 9 15
M  V30 15 1 10 18
M  V30 16 1 11 19
M  V30 17 2 12 13
M  V30 18 1 12 14
M  V30 19 1 13 16
M  V30 20 2 14 17
M  V30 21 1 15 25
M  V30 22 2 16 24
M  V30 23 1 17 24
M  V30 24 1 26 18 CFG=3
M  V30 25 1 19 26
M  V30 26 1 20 25
M  V30 27 1 20 26
M  V30 28 2 21 23
M  V30 29 1 22 23
M  V30 30 1 24 25
M  V30 31 1 2 50
M  V30 32 1 5 27 CFG=1
M  V30 33 1 7 28
M  V30 34 1 8 29
M  V30 35 1 9 30 CFG=1
M  V30 36 1 9 31
M  V30 37 1 10 32 CFG=3
M  V30 38 1 10 33
M  V30 39 1 11 34 CFG=1
M  V30 40 1 11 35
M  V30 41 1 12 36
M  V30 42 1 13 37
M  V30 43 1 14 38
M  V30 44 1 15 39 CFG=3
M  V30 45 1 15 40
M  V30 46 1 16 41
M  V30 47 1 17 42
M  V30 48 1 18 43 CFG=3
M  V30 49 1 18 44
M  V30 50 1 19 45 CFG=1
M  V30 51 1 19 46
M  V30 52 1 20 47 CFG=3
M  V30 53 1 20 48
M  V30 54 1 25 49 CFG=1
M  V30 55 1 5 51
M  V30 END BOND
M  V30 END CTAB
M  END
>  <Ligand_Instance>  (299) 
3ZO4_QWI_A_1352

>  <Dataset>  (299) 
PDB

>  <PDB_ID>  (299) 
3ZO4

>  <Chain>  (299) 
A

>  <Resi>  (299) 
1352

>  <Num_Resolved_Atoms>  (299) 
26

>  <Num_H_Atoms_ProtBoundConf>  (299) 
25

>  <Pocket>  (299) 
A

>  <SMILES>  (299) 
c1ccc(cc1)[C@@H]2CCNC3(C2)CCN(CC3)c4c5c([nH]cn5)ncn4

>  <Name>  (299) 
6-(4-PHENYL-1,9-DIAZASPIRO[5.5]UNDECAN-9-YL)-9H-PURINE

>  <Num_Heavy_Atoms>  (299) 
26

>  <Num_Not_Resolved_Atoms>  (299) 
0

>  <ATP_Site>  (299) 
True

>  <Peripheral>  (299) 
False

>  <Standardized_SMILES>  (299) 
[H]C1=NC2=C(N=C([H])N2[H])C(N2C([H])([H])C([H])([H])C3(C([H])([H])C2([H])[H])C([H])([H])[C@]([H])(C2=C([H])C([H])=C([H])C([H])=C2[H])C([H])([H])C([H])([H])[N+]3([H])[H])=N1

$$$$
RKD
     RDKit          3D

  0  0  0  0  0  0  0  0  0  0999 V3000
M  V30 BEGIN CTAB
M  V30 COUNTS 39 41 0 0 0
M  V30 BEGIN ATOM
M  V30 1 Cl 13.424000 13.315000 -0.732000 0
M  V30 2 O 11.270000 9.932000 4.583000 0
M  V30 3 N 10.367000 7.205000 3.854000 0 CFG=1 CHG=1
M  V30 4 N 2.835000 10.077000 3.934000 0
M  V30 5 N 2.871000 10.041000 2.584000 0
M  V30 6 C 11.095000 8.163000 2.980000 0 CFG=2
M  V30 7 C 4.110000 10.026000 4.300000 0
M  V30 8 C 4.125000 9.970000 2.120000 0
M  V30 9 C 12.495000 12.672000 1.707000 0
M  V30 10 C 12.236000 11.015000 0.016000 0
M  V30 11 C 7.147000 9.510000 2.091000 0
M  V30 12 C 7.157000 10.189000 4.381000 0
M  V30 13 C 11.894000 11.841000 2.619000 0
M  V30 14 C 11.630000 10.175000 0.929000 0
M  V30 15 C 8.530000 9.439000 2.105000 0
M  V30 16 C 8.536000 10.117000 4.392000 0
M  V30 17 C 12.661000 12.255000 0.418000 0
M  V30 18 C 4.957000 9.960000 3.207000 0
M  V30 19 C 6.436000 9.888000 3.229000 0
M  V30 20 C 11.451000 10.579000 2.247000 0
M  V30 21 C 9.245000 9.741000 3.255000 0
M  V30 22 C 10.782000 9.660000 3.271000 0 CFG=2
M  V30 23 H 12.056800 9.345200 4.774300 0
M  V30 24 H 9.494800 6.962700 3.429100 0
M  V30 25 H 10.918700 6.380000 3.976400 0
M  V30 26 H 10.848400 7.970300 2.030300 0
M  V30 27 H 12.076400 8.018000 3.105500 0
M  V30 28 H 4.421000 10.034300 5.250400 0
M  V30 29 H 4.401700 9.931500 1.159800 0
M  V30 30 H 12.810000 13.579300 1.985700 0
M  V30 31 H 12.364000 10.721200 -0.931300 0
M  V30 32 H 6.650900 9.286800 1.251900 0
M  V30 33 H 6.670200 10.460800 5.211100 0
M  V30 34 H 11.773700 12.148300 3.563000 0
M  V30 35 H 11.317800 9.270000 0.640200 0
M  V30 36 H 9.019100 9.166800 1.276300 0
M  V30 37 H 9.033300 10.338700 5.230800 0
M  V30 38 H 10.198000 7.628100 4.744200 0
M  V30 39 H 2.058700 10.064500 2.001200 0
M  V30 END ATOM
M  V30 BEGIN BOND
M  V30 1 1 1 17
M  V30 2 1 22 2 CFG=1
M  V30 3 1 3 6
M  V30 4 1 4 5
M  V30 5 2 4 7
M  V30 6 1 5 8
M  V30 7 1 6 22
M  V30 8 1 7 18
M  V30 9 2 8 18
M  V30 10 2 9 13
M  V30 11 1 9 17
M  V30 12 1 10 14
M  V30 13 2 10 17
M  V30 14 1 11 15
M  V30 15 2 11 19
M  V30 16 2 12 16
M  V30 17 1 12 19
M  V30 18 1 13 20
M  V30 19 2 14 20
M  V30 20 2 15 21
M  V30 21 1 16 21
M  V30 22 1 18 19
M  V30 23 1 20 22
M  V30 24 1 21 22
M  V30 25 1 2 23
M  V30 26 1 3 24 CFG=3
M  V30 27 1 3 25
M  V30 28 1 3 38
M  V30 29 1 6 26 CFG=3
M  V30 30 1 6 27
M  V30 31 1 7 28
M  V30 32 1 8 29
M  V30 33 1 9 30
M  V30 34 1 10 31
M  V30 35 1 11 32
M  V30 36 1 12 33
M  V30 37 1 13 34
M  V30 38 1 14 35
M  V30 39 1 15 36
M  V30 40 1 16 37
M  V30 41 1 5 39
M  V30 END BOND
M  V30 END CTAB
M  END
>  <Ligand_Instance>  (300) 
4AXA_RKD_A_1351

>  <Dataset>  (300) 
PDB

>  <PDB_ID>  (300) 
4AXA

>  <Chain>  (300) 
A

>  <Resi>  (300) 
1351

>  <Num_Resolved_Atoms>  (300) 
22

>  <Num_H_Atoms_ProtBoundConf>  (300) 
17

>  <Pocket>  (300) 
A

>  <SMILES>  (300) 
c1cc(ccc1c2c[nH]nc2)[C@@](C[NH3+])(c3ccc(cc3)Cl)O

>  <Name>  (300) 
(2S)-2-(4-chlorophenyl)-2-hydroxy-2-[4-(1H-pyrazol-4-yl)phenyl]ethanaminium

>  <Num_Heavy_Atoms>  (300) 
22

>  <Num_Not_Resolved_Atoms>  (300) 
0

>  <ATP_Site>  (300) 
True

>  <Peripheral>  (300) 
False

>  <Standardized_SMILES>  (300) 
[H]O[C@](C1=C([H])C([H])=C(Cl)C([H])=C1[H])(C1=C([H])C([H])=C(C2=C([H])N([H])N=C2[H])C([H])=C1[H])C([H])([H])[N+]([H])([H])[H]

$$$$
S3N
     RDKit          3D

  0  0  0  0  0  0  0  0  0  0999 V3000
M  V30 BEGIN CTAB
M  V30 COUNTS 45 48 0 0 0
M  V30 BEGIN ATOM
M  V30 1 F 20.756000 12.912000 1.436000 0
M  V30 2 F 22.406000 13.152000 2.597000 0
M  V30 3 F 22.025000 14.660000 1.266000 0
M  V30 4 O 32.917000 10.146000 -4.596000 0
M  V30 5 O 25.535000 11.417000 -3.705000 0
M  V30 6 N 25.207000 7.181000 -3.069000 0 CFG=2 CHG=1
M  V30 7 N 32.934000 9.937000 -2.304000 0
M  V30 8 N 30.774000 9.534000 -1.117000 0
M  V30 9 C 32.204000 9.716000 -1.094000 0
M  V30 10 C 24.533000 8.401000 -2.637000 0 CFG=2
M  V30 11 C 26.493000 7.601000 -3.695000 0 CFG=2
M  V30 12 C 23.867000 12.826000 -1.824000 0
M  V30 13 C 24.015000 10.794000 -0.505000 0
M  V30 14 C 28.697000 9.626000 -4.872000 0
M  V30 15 C 23.095000 13.430000 -0.823000 0
M  V30 16 C 23.224000 11.407000 0.495000 0
M  V30 17 C 30.087000 9.819000 -4.833000 0
M  V30 18 C 28.714000 9.350000 -2.465000 0
M  V30 19 C 32.298000 9.980000 -3.563000 0
M  V30 20 C 25.191000 10.815000 -2.679000 0
M  V30 21 C 30.123000 9.547000 -2.419000 0
M  V30 22 C 24.332000 11.516000 -1.640000 0
M  V30 23 C 28.001000 9.374000 -3.667000 0
M  V30 24 C 22.775000 12.709000 0.329000 0
M  V30 25 C 30.809000 9.780000 -3.584000 0
M  V30 26 C 25.654000 9.406000 -2.494000 0 CFG=2
M  V30 27 C 26.535000 9.128000 -3.657000 0 CFG=2
M  V30 28 C 21.970000 13.368000 1.389000 0 CFG=2
M  V30 29 H 24.642800 6.692800 -3.734900 0
M  V30 30 H 33.924600 10.064900 -2.256400 0
M  V30 31 H 32.691500 9.687400 -0.221300 0
M  V30 32 H 24.068100 8.260000 -1.762900 0
M  V30 33 H 23.870100 8.702800 -3.322200 0
M  V30 34 H 26.534500 7.280300 -4.641300 0
M  V30 35 H 27.263600 7.224000 -3.181200 0
M  V30 36 H 24.084600 13.325000 -2.662800 0
M  V30 37 H 24.339100 9.854700 -0.392600 0
M  V30 38 H 28.204900 9.666200 -5.741600 0
M  V30 39 H 22.775300 14.371100 -0.932900 0
M  V30 40 H 22.987800 10.900200 1.324100 0
M  V30 41 H 30.584700 9.986100 -5.684100 0
M  V30 42 H 28.219000 9.189500 -1.611100 0
M  V30 43 H 26.141700 9.290800 -1.628600 0
M  V30 44 H 26.123700 9.498900 -4.489600 0
M  V30 45 H 25.383600 6.588100 -2.283300 0
M  V30 END ATOM
M  V30 BEGIN BOND
M  V30 1 1 28 1 CFG=1
M  V30 2 1 2 28
M  V30 3 1 3 28
M  V30 4 2 4 19
M  V30 5 2 5 20
M  V30 6 1 6 10
M  V30 7 1 6 11
M  V30 8 1 7 9
M  V30 9 1 7 19
M  V30 10 2 8 9
M  V30 11 1 8 21
M  V30 12 1 10 26
M  V30 13 1 11 27
M  V30 14 1 12 15
M  V30 15 2 12 22
M  V30 16 2 13 16
M  V30 17 1 13 22
M  V30 18 1 14 17
M  V30 19 2 14 23
M  V30 20 2 15 24
M  V30 21 1 16 24
M  V30 22 2 17 25
M  V30 23 2 18 21
M  V30 24 1 18 23
M  V30 25 1 19 25
M  V30 26 1 20 22
M  V30 27 1 20 26
M  V30 28 1 21 25
M  V30 29 1 23 27
M  V30 30 1 24 28
M  V30 31 1 26 27
M  V30 32 1 6 29 CFG=3
M  V30 33 1 7 30
M  V30 34 1 9 31
M  V30 35 1 10 32 CFG=1
M  V30 36 1 10 33
M  V30 37 1 11 34 CFG=3
M  V30 38 1 11 35
M  V30 39 1 12 36
M  V30 40 1 13 37
M  V30 41 1 14 38
M  V30 42 1 15 39
M  V30 43 1 16 40
M  V30 44 1 17 41
M  V30 45 1 18 42
M  V30 46 1 26 43 CFG=1
M  V30 47 1 27 44 CFG=3
M  V30 48 1 6 45
M  V30 END BOND
M  V30 END CTAB
M  END
>  <Ligand_Instance>  (301) 
4UJ9_S3N_A_1351

>  <Dataset>  (301) 
PDB

>  <PDB_ID>  (301) 
4UJ9

>  <Chain>  (301) 
A

>  <Resi>  (301) 
1351

>  <Num_Resolved_Atoms>  (301) 
28

>  <Num_H_Atoms_ProtBoundConf>  (301) 
17

>  <Pocket>  (301) 
A

>  <SMILES>  (301) 
c1cc(ccc1C(=O)[C@H]2CNC[C@@H]2c3ccc4c(c3)N=CNC4=O)C(F)(F)F

>  <Name>  (301) 
7-[(3S,4R)-4-[4-(trifluoromethyl)phenyl]carbonylpyrrolidin-3-yl]-3H-quinazolin-4-one

>  <Num_Heavy_Atoms>  (301) 
28

>  <Num_Not_Resolved_Atoms>  (301) 
0

>  <ATP_Site>  (301) 
True

>  <Peripheral>  (301) 
False

>  <Standardized_SMILES>  (301) 
[H]C1=NC2=C([H])C([C@@]3([H])C([H])([H])[N+]([H])([H])C([H])([H])[C@]3([H])C(=O)C3=C([H])C([H])=C(C(F)(F)F)C([H])=C3[H])=C([H])C([H])=C2C(=O)N1[H]

$$$$
S69
     RDKit          3D

  0  0  0  0  0  0  0  0  0  0999 V3000
M  V30 BEGIN CTAB
M  V30 COUNTS 43 44 0 0 0
M  V30 BEGIN ATOM
M  V30 1 O 26.194000 10.274000 1.060000 0
M  V30 2 O 33.700000 10.312000 -3.394000 0
M  V30 3 O 29.998000 10.131000 -0.335000 0
M  V30 4 O 20.941000 13.337000 2.126000 0
M  V30 5 N 27.640000 10.118000 -1.196000 0
M  V30 6 N 26.308000 10.160000 -1.273000 0
M  V30 7 C 20.378000 12.236000 2.821000 0 CFG=1
M  V30 8 C 29.133000 10.475000 -5.205000 0 CFG=1
M  V30 9 C 28.094000 10.289000 -2.520000 0 CFG=2
M  V30 10 C 23.495000 13.983000 -0.334000 0
M  V30 11 C 22.473000 14.173000 0.565000 0
M  V30 12 C 24.013000 12.697000 -0.545000 0
M  V30 13 C 31.872000 10.215000 -1.834000 0
M  V30 14 C 24.061000 10.292000 -0.100000 0 CFG=2
M  V30 15 C 31.494000 10.390000 -4.237000 0
M  V30 16 C 22.485000 11.804000 1.042000 0
M  V30 17 C 25.566000 10.243000 -0.031000 0
M  V30 18 C 32.354000 10.307000 -3.155000 0
M  V30 19 C 30.454000 10.205000 -1.612000 0
M  V30 20 C 21.972000 13.108000 1.237000 0
M  V30 21 C 30.103000 10.378000 -4.014000 0
M  V30 22 C 23.497000 11.624000 0.141000 0
M  V30 23 C 29.608000 10.283000 -2.685000 0
M  V30 24 H 34.343500 10.250300 -2.631100 0
M  V30 25 H 30.645800 10.085000 0.425400 0
M  V30 26 H 27.980600 10.854000 -0.611000 0
M  V30 27 H 25.839100 10.135100 -2.155900 0
M  V30 28 H 19.648000 12.559800 3.422900 0
M  V30 29 H 20.002600 11.583200 2.163100 0
M  V30 30 H 21.086500 11.788900 3.367000 0
M  V30 31 H 28.190900 10.452500 -4.870300 0
M  V30 32 H 29.292100 11.331800 -5.695600 0
M  V30 33 H 29.285700 9.703800 -5.823000 0
M  V30 34 H 27.748400 11.165200 -2.856100 0
M  V30 35 H 27.718100 9.547200 -3.075400 0
M  V30 36 H 23.869200 14.761700 -0.837600 0
M  V30 37 H 22.102500 15.088500 0.721800 0
M  V30 38 H 24.759600 12.560500 -1.196200 0
M  V30 39 H 32.507400 10.157600 -1.064000 0
M  V30 40 H 23.693900 9.665700 0.587800 0
M  V30 41 H 23.777800 9.990400 -1.010400 0
M  V30 42 H 31.856300 10.457700 -5.166600 0
M  V30 43 H 22.114300 11.028800 1.553600 0
M  V30 END ATOM
M  V30 BEGIN BOND
M  V30 1 2 1 17
M  V30 2 1 2 18
M  V30 3 1 3 19
M  V30 4 1 4 7
M  V30 5 1 4 20
M  V30 6 1 5 6
M  V30 7 1 5 9
M  V30 8 1 6 17
M  V30 9 1 8 21
M  V30 10 1 9 23
M  V30 11 2 10 11
M  V30 12 1 10 12
M  V30 13 1 11 20
M  V30 14 2 12 22
M  V30 15 2 13 18
M  V30 16 1 13 19
M  V30 17 1 14 17
M  V30 18 1 14 22
M  V30 19 1 15 18
M  V30 20 2 15 21
M  V30 21 2 16 20
M  V30 22 1 16 22
M  V30 23 2 19 23
M  V30 24 1 21 23
M  V30 25 1 2 24
M  V30 26 1 3 25
M  V30 27 1 5 26
M  V30 28 1 6 27
M  V30 29 1 7 28 CFG=1
M  V30 30 1 7 29
M  V30 31 1 7 30
M  V30 32 1 8 31 CFG=1
M  V30 33 1 8 32
M  V30 34 1 8 33
M  V30 35 1 9 34 CFG=3
M  V30 36 1 9 35
M  V30 37 1 10 36
M  V30 38 1 11 37
M  V30 39 1 12 38
M  V30 40 1 13 39
M  V30 41 1 14 40 CFG=1
M  V30 42 1 14 41
M  V30 43 1 15 42
M  V30 44 1 16 43
M  V30 END BOND
M  V30 END CTAB
M  END
>  <Ligand_Instance>  (302) 
3POO_S69_A_2001

>  <Dataset>  (302) 
PDB

>  <PDB_ID>  (302) 
3POO

>  <Chain>  (302) 
A

>  <Resi>  (302) 
2001

>  <Num_Resolved_Atoms>  (302) 
23

>  <Num_H_Atoms_ProtBoundConf>  (302) 
20

>  <Pocket>  (302) 
A

>  <SMILES>  (302) 
Cc1cc(cc(c1/C=N/NC(=O)Cc2cccc(c2)OC)O)O

>  <Name>  (302) 
N'-[(E)-(2,4-dihydroxy-6-methylphenyl)methylidene]-2-(3-methoxyphenyl)acetohydrazide

>  <Num_Heavy_Atoms>  (302) 
23

>  <Num_Not_Resolved_Atoms>  (302) 
0

>  <ATP_Site>  (302) 
True

>  <Peripheral>  (302) 
False

>  <Standardized_SMILES>  (302) 
[H]OC1=C([H])C(O[H])=C(C([H])([H])N([H])N([H])C(=O)C([H])([H])C2=C([H])C([H])=C([H])C(OC([H])([H])[H])=C2[H])C(C([H])([H])[H])=C1[H]

$$$$
S95
     RDKit          3D

  0  0  0  0  0  0  0  0  0  0999 V3000
M  V30 BEGIN CTAB
M  V30 COUNTS 20 21 0 0 0
M  V30 BEGIN ATOM
M  V30 1 S 9.413000 -3.905000 -36.820000 0 CFG=2
M  V30 2 O 10.207000 -2.780000 -37.290000 0
M  V30 3 O 9.672000 -4.220000 -35.421000 0
M  V30 4 O 9.538000 -5.066000 -37.685000 0 CHG=-1
M  V30 5 N 5.786000 -2.324000 -40.541000 0
M  V30 6 C 7.070000 -2.716000 -40.535000 0
M  V30 7 C 5.674000 -2.909000 -35.739000 0
M  V30 8 C 5.151000 -2.281000 -39.376000 0
M  V30 9 C 7.754000 -3.085000 -39.415000 0
M  V30 10 C 6.999000 -3.319000 -35.738000 0
M  V30 11 C 5.052000 -2.563000 -36.901000 0
M  V30 12 C 7.706000 -3.389000 -36.909000 0
M  V30 13 C 5.743000 -2.624000 -38.137000 0
M  V30 14 C 7.100000 -3.047000 -38.159000 0
M  V30 15 H 7.556100 -2.738800 -41.408600 0
M  V30 16 H 5.169200 -2.866800 -34.876800 0
M  V30 17 H 4.194900 -1.988000 -39.373700 0
M  V30 18 H 8.707500 -3.379400 -39.479400 0
M  V30 19 H 7.441500 -3.565400 -34.875700 0
M  V30 20 H 4.098300 -2.263000 -36.881500 0
M  V30 END ATOM
M  V30 BEGIN BOND
M  V30 1 2 1 2
M  V30 2 2 1 3
M  V30 3 1 1 4 CFG=3
M  V30 4 1 1 12
M  V30 5 2 5 6
M  V30 6 1 5 8
M  V30 7 1 6 9
M  V30 8 1 7 10
M  V30 9 2 7 11
M  V30 10 2 8 13
M  V30 11 2 9 14
M  V30 12 2 10 12
M  V30 13 1 11 13
M  V30 14 1 12 14
M  V30 15 1 13 14
M  V30 16 1 11 20
M  V30 17 1 6 15
M  V30 18 1 7 16
M  V30 19 1 8 17
M  V30 20 1 9 18
M  V30 21 1 10 19
M  V30 END BOND
M  V30 END CTAB
M  END
>  <Ligand_Instance>  (303) 
7AXV_S95_A_401

>  <Dataset>  (303) 
PDB

>  <PDB_ID>  (303) 
7AXV

>  <Chain>  (303) 
A

>  <Resi>  (303) 
401

>  <Num_Resolved_Atoms>  (303) 
14

>  <Num_H_Atoms_ProtBoundConf>  (303) 
6

>  <Pocket>  (303) 
X

>  <SMILES>  (303) 
c1cc2cnccc2c(c1)S(=O)(=O)O

>  <Name>  (303) 
isoquinoline-5-sulfonic acid

>  <Num_Heavy_Atoms>  (303) 
14

>  <Num_Not_Resolved_Atoms>  (303) 
0

>  <ATP_Site>  (303) 
True

>  <Peripheral>  (303) 
True

>  <Standardized_SMILES>  (303) 
[H]C1=NC([H])=C2C([H])=C([H])C([H])=C(S(=O)(=O)[O-])C2=C1[H]

$$$$
S95
     RDKit          3D

  0  0  0  0  0  0  0  0  0  0999 V3000
M  V30 BEGIN CTAB
M  V30 COUNTS 20 21 0 0 0
M  V30 BEGIN ATOM
M  V30 1 S 13.649000 -25.190000 -27.768000 0 CFG=1
M  V30 2 O 13.101000 -24.261000 -28.745000 0
M  V30 3 O 12.617000 -25.827000 -26.966000 0
M  V30 4 O 14.558000 -26.154000 -28.366000 0 CHG=-1
M  V30 5 N 17.255000 -25.910000 -23.775000 0
M  V30 6 C 16.534000 -26.696000 -24.588000 0
M  V30 7 C 15.292000 -22.033000 -25.923000 0
M  V30 8 C 17.118000 -24.595000 -23.910000 0
M  V30 9 C 15.669000 -26.230000 -25.534000 0
M  V30 10 C 14.534000 -22.849000 -26.745000 0
M  V30 11 C 16.138000 -22.571000 -24.996000 0
M  V30 12 C 14.630000 -24.211000 -26.648000 0
M  V30 13 C 16.265000 -23.977000 -24.856000 0
M  V30 14 C 15.504000 -24.831000 -25.698000 0
M  V30 15 H 16.637100 -27.686300 -24.494700 0
M  V30 16 H 15.219300 -21.039400 -26.008900 0
M  V30 17 H 17.651500 -24.004300 -23.304700 0
M  V30 18 H 15.155700 -26.869100 -26.106800 0
M  V30 19 H 13.912500 -22.441000 -27.413800 0
M  V30 20 H 16.675100 -21.966000 -24.408100 0
M  V30 END ATOM
M  V30 BEGIN BOND
M  V30 1 2 1 2
M  V30 2 2 1 3
M  V30 3 1 1 4 CFG=3
M  V30 4 1 1 12
M  V30 5 2 5 6
M  V30 6 1 5 8
M  V30 7 1 6 9
M  V30 8 1 7 10
M  V30 9 2 7 11
M  V30 10 2 8 13
M  V30 11 2 9 14
M  V30 12 2 10 12
M  V30 13 1 11 13
M  V30 14 1 12 14
M  V30 15 1 13 14
M  V30 16 1 11 20
M  V30 17 1 6 15
M  V30 18 1 7 16
M  V30 19 1 8 17
M  V30 20 1 9 18
M  V30 21 1 10 19
M  V30 END BOND
M  V30 END CTAB
M  END
>  <Ligand_Instance>  (304) 
7AXV_S95_A_402

>  <Dataset>  (304) 
PDB

>  <PDB_ID>  (304) 
7AXV

>  <Chain>  (304) 
A

>  <Resi>  (304) 
402

>  <Num_Resolved_Atoms>  (304) 
14

>  <Num_H_Atoms_ProtBoundConf>  (304) 
6

>  <Pocket>  (304) 
A

>  <SMILES>  (304) 
c1cc2cnccc2c(c1)S(=O)(=O)O

>  <Name>  (304) 
isoquinoline-5-sulfonic acid

>  <Num_Heavy_Atoms>  (304) 
14

>  <Num_Not_Resolved_Atoms>  (304) 
0

>  <ATP_Site>  (304) 
True

>  <Peripheral>  (304) 
True

>  <Standardized_SMILES>  (304) 
[H]C1=NC([H])=C2C([H])=C([H])C([H])=C(S(=O)(=O)[O-])C2=C1[H]

$$$$
S9B
     RDKit          3D

  0  0  0  0  0  0  0  0  0  0999 V3000
M  V30 BEGIN CTAB
M  V30 COUNTS 19 20 0 0 0
M  V30 BEGIN ATOM
M  V30 1 O -13.926000 22.046000 -27.094000 0
M  V30 2 O -15.557000 21.773000 -25.607000 0 CHG=-1
M  V30 3 N -17.381000 26.085000 -23.483000 0
M  V30 4 C -17.285000 24.744000 -23.446000 0
M  V30 5 C -16.749000 26.714000 -24.454000 0
M  V30 6 C -14.476000 26.081000 -27.343000 0
M  V30 7 C -16.575000 24.002000 -24.337000 0
M  V30 8 C -15.256000 26.760000 -26.447000 0
M  V30 9 C -14.368000 24.702000 -27.289000 0
M  V30 10 C -14.821000 22.481000 -26.343000 0
M  V30 11 C -15.963000 26.069000 -25.438000 0
M  V30 12 C -15.045000 23.979000 -26.328000 0
M  V30 13 C -15.871000 24.654000 -25.371000 0
M  V30 14 H -17.767400 24.261000 -22.715300 0
M  V30 15 H -16.830200 27.709700 -24.497900 0
M  V30 16 H -13.977300 26.587700 -28.046200 0
M  V30 17 H -16.552100 23.005200 -24.260200 0
M  V30 18 H -15.326300 27.755700 -26.507100 0
M  V30 19 H -13.793200 24.224500 -27.953500 0
M  V30 END ATOM
M  V30 BEGIN BOND
M  V30 1 2 1 10
M  V30 2 1 2 10
M  V30 3 2 3 4
M  V30 4 1 3 5
M  V30 5 1 4 7
M  V30 6 2 5 11
M  V30 7 2 6 8
M  V30 8 1 6 9
M  V30 9 2 7 13
M  V30 10 1 8 11
M  V30 11 2 9 12
M  V30 12 1 10 12
M  V30 13 1 11 13
M  V30 14 1 12 13
M  V30 15 1 9 19
M  V30 16 1 4 14
M  V30 17 1 5 15
M  V30 18 1 6 16
M  V30 19 1 7 17
M  V30 20 1 8 18
M  V30 END BOND
M  V30 END CTAB
M  END
>  <Ligand_Instance>  (305) 
7AXT_S9B_A_401

>  <Dataset>  (305) 
PDB

>  <PDB_ID>  (305) 
7AXT

>  <Chain>  (305) 
A

>  <Resi>  (305) 
401

>  <Num_Resolved_Atoms>  (305) 
13

>  <Num_H_Atoms_ProtBoundConf>  (305) 
6

>  <Pocket>  (305) 
A

>  <SMILES>  (305) 
c1cc2cnccc2c(c1)C(=O)O

>  <Name>  (305) 
isoquinoline-5-carboxylic acid

>  <Num_Heavy_Atoms>  (305) 
13

>  <Num_Not_Resolved_Atoms>  (305) 
0

>  <ATP_Site>  (305) 
True

>  <Peripheral>  (305) 
False

>  <Standardized_SMILES>  (305) 
[H]C1=NC([H])=C2C([H])=C([H])C([H])=C(C(=O)[O-])C2=C1[H]

$$$$
SIJ
     RDKit          3D

  0  0  0  0  0  0  0  0  0  0999 V3000
M  V30 BEGIN CTAB
M  V30 COUNTS 41 44 0 0 0
M  V30 BEGIN ATOM
M  V30 1 N -33.477000 -10.045000 -4.281000 0
M  V30 2 N -33.402000 -10.115000 -1.852000 0
M  V30 3 N -31.339000 -10.180000 -5.381000 0
M  V30 4 N -31.197000 -10.364000 -1.541000 0
M  V30 5 N -26.123000 -7.611000 -4.210000 0 CFG=2 CHG=1
M  V30 6 N -29.367000 -10.455000 -4.217000 0
M  V30 7 C -32.671000 -10.078000 -5.345000 0
M  V30 8 C -32.381000 -10.255000 -0.971000 0
M  V30 9 C -25.008000 -7.398000 -3.273000 0 CFG=2
M  V30 10 C -28.485000 -10.436000 -3.041000 0 CFG=2
M  V30 11 C -28.612000 -10.267000 -5.465000 0 CFG=2
M  V30 12 C -23.912000 -8.419000 -3.477000 0 CFG=2
M  V30 13 C -24.445000 -9.843000 -3.392000 0 CFG=2
M  V30 14 C -27.617000 -9.190000 -2.951000 0 CFG=2
M  V30 15 C -27.700000 -9.046000 -5.402000 0 CFG=2
M  V30 16 C -25.622000 -10.061000 -4.349000 0 CFG=2
M  V30 17 C -32.844000 -10.136000 -3.097000 0
M  V30 18 C -30.773000 -10.291000 -4.155000 0
M  V30 19 C -31.476000 -10.282000 -2.898000 0
M  V30 20 C -26.739000 -9.005000 -4.200000 0 CFG=1
M  V30 21 H -25.786100 -7.430800 -5.134100 0
M  V30 22 H -33.124900 -10.018400 -6.234100 0
M  V30 23 H -32.513700 -10.273900 0.020000 0
M  V30 24 H -25.351400 -7.472200 -2.336700 0
M  V30 25 H -24.631300 -6.483100 -3.418400 0
M  V30 26 H -27.886400 -11.236000 -3.081800 0
M  V30 27 H -29.052600 -10.485900 -2.219200 0
M  V30 28 H -29.258400 -10.148700 -6.218800 0
M  V30 29 H -28.052900 -11.079600 -5.629700 0
M  V30 30 H -23.214900 -8.291300 -2.771500 0
M  V30 31 H -23.503000 -8.279500 -4.378800 0
M  V30 32 H -24.750000 -10.020400 -2.456300 0
M  V30 33 H -23.711000 -10.479300 -3.629600 0
M  V30 34 H -27.024700 -9.266900 -2.149000 0
M  V30 35 H -28.209700 -8.390600 -2.852200 0
M  V30 36 H -28.277500 -8.230500 -5.364000 0
M  V30 37 H -27.150900 -9.026900 -6.237500 0
M  V30 38 H -26.013300 -10.963500 -4.169400 0
M  V30 39 H -25.277700 -10.027700 -5.287300 0
M  V30 40 H -34.372600 -10.015900 -1.632600 0
M  V30 41 H -26.843400 -6.955300 -3.984100 0
M  V30 END ATOM
M  V30 BEGIN BOND
M  V30 1 2 1 7
M  V30 2 1 1 17
M  V30 3 1 2 8
M  V30 4 1 2 17
M  V30 5 1 3 7
M  V30 6 2 3 18
M  V30 7 2 4 8
M  V30 8 1 4 19
M  V30 9 1 5 9
M  V30 10 1 5 20
M  V30 11 1 6 10
M  V30 12 1 6 11
M  V30 13 1 6 18
M  V30 14 1 9 12
M  V30 15 1 10 14
M  V30 16 1 11 15
M  V30 17 1 12 13
M  V30 18 1 13 16
M  V30 19 1 20 14 CFG=1
M  V30 20 1 15 20
M  V30 21 1 16 20
M  V30 22 2 17 19
M  V30 23 1 18 19
M  V30 24 1 2 40
M  V30 25 1 5 21 CFG=3
M  V30 26 1 7 22
M  V30 27 1 8 23
M  V30 28 1 9 24 CFG=1
M  V30 29 1 9 25
M  V30 30 1 10 26 CFG=3
M  V30 31 1 10 27
M  V30 32 1 11 28 CFG=3
M  V30 33 1 11 29
M  V30 34 1 12 30 CFG=1
M  V30 35 1 12 31
M  V30 36 1 13 32 CFG=1
M  V30 37 1 13 33
M  V30 38 1 14 34 CFG=1
M  V30 39 1 14 35
M  V30 40 1 15 36 CFG=3
M  V30 41 1 15 37
M  V30 42 1 16 38 CFG=1
M  V30 43 1 16 39
M  V30 44 1 5 41
M  V30 END BOND
M  V30 END CTAB
M  END
>  <Ligand_Instance>  (306) 
3ZO1_SIJ_A_1351

>  <Dataset>  (306) 
PDB

>  <PDB_ID>  (306) 
3ZO1

>  <Chain>  (306) 
A

>  <Resi>  (306) 
1351

>  <Num_Resolved_Atoms>  (306) 
20

>  <Num_H_Atoms_ProtBoundConf>  (306) 
21

>  <Pocket>  (306) 
A

>  <SMILES>  (306) 
c1[nH]c2c(n1)c(ncn2)N3CCC4(CCCCN4)CC3

>  <Name>  (306) 
6-(1,9-DIAZASPIRO[5.5]UNDECAN-9-YL)-9H-PURINE

>  <Num_Heavy_Atoms>  (306) 
20

>  <Num_Not_Resolved_Atoms>  (306) 
0

>  <ATP_Site>  (306) 
True

>  <Peripheral>  (306) 
False

>  <Standardized_SMILES>  (306) 
[H]C1=NC2=C(N=C([H])N2[H])C(N2C([H])([H])C([H])([H])C3(C([H])([H])C2([H])[H])C([H])([H])C([H])([H])C([H])([H])C([H])([H])[N+]3([H])[H])=N1

$$$$
SKE
     RDKit          3D

  0  0  0  0  0  0  0  0  0  0999 V3000
M  V30 BEGIN CTAB
M  V30 COUNTS 39 41 0 0 0
M  V30 BEGIN ATOM
M  V30 1 S -28.683000 10.097000 11.922000 0 CFG=1
M  V30 2 F -28.760000 11.768000 5.163000 0
M  V30 3 F -28.077000 7.787000 2.643000 0
M  V30 4 O -29.520000 10.072000 13.144000 0
M  V30 5 O -27.941000 11.400000 11.795000 0
M  V30 6 O -29.941000 10.009000 1.988000 0
M  V30 7 N -27.601000 8.889000 11.962000 0
M  V30 8 N -32.705000 9.984000 2.527000 0
M  V30 9 N -30.718000 9.766000 5.314000 0
M  V30 10 N -32.847000 9.761000 4.884000 0
M  V30 11 N -32.244000 9.578000 7.180000 0
M  V30 12 N -30.852000 9.900000 4.069000 0
M  V30 13 C -25.977000 9.402000 5.164000 0
M  V30 14 C -29.185000 9.856000 9.230000 0
M  V30 15 C -31.138000 9.894000 10.641000 0
M  V30 16 C -26.761000 10.513000 5.489000 0
M  V30 17 C -26.419000 8.488000 4.201000 0
M  V30 18 C -30.006000 9.734000 8.100000 0
M  V30 19 C -31.964000 9.769000 9.519000 0
M  V30 20 C -29.749000 9.928000 10.500000 0
M  V30 21 C -27.994000 10.700000 4.854000 0
M  V30 22 C -27.645000 8.681000 3.563000 0
M  V30 23 C -32.156000 9.883000 3.754000 0
M  V30 24 C -29.805000 9.972000 3.219000 0
M  V30 25 C -31.935000 9.710000 5.865000 0
M  V30 26 C -31.404000 9.689000 8.232000 0
M  V30 27 C -28.426000 9.791000 3.883000 0
M  V30 28 H -27.995000 8.074300 11.536500 0
M  V30 29 H -26.778700 9.161400 11.462400 0
M  V30 30 H -32.118000 10.073200 1.722400 0
M  V30 31 H -33.699300 9.969800 2.421400 0
M  V30 32 H -33.199800 9.376100 7.393800 0
M  V30 33 H -25.098700 9.260200 5.620600 0
M  V30 34 H -28.191400 9.891400 9.122900 0
M  V30 35 H -31.545600 9.959600 11.551800 0
M  V30 36 H -26.442400 11.170600 6.171700 0
M  V30 37 H -25.855300 7.695100 3.969600 0
M  V30 38 H -29.592500 9.678500 7.191200 0
M  V30 39 H -32.957000 9.736400 9.632900 0
M  V30 END ATOM
M  V30 BEGIN BOND
M  V30 1 2 1 4
M  V30 2 2 1 5
M  V30 3 1 1 7 CFG=1
M  V30 4 1 1 20
M  V30 5 1 2 21
M  V30 6 1 3 22
M  V30 7 2 6 24
M  V30 8 1 8 23
M  V30 9 1 9 12
M  V30 10 2 9 25
M  V30 11 2 10 23
M  V30 12 1 10 25
M  V30 13 1 11 25
M  V30 14 1 11 26
M  V30 15 1 12 23
M  V30 16 1 12 24
M  V30 17 2 13 16
M  V30 18 1 13 17
M  V30 19 1 14 18
M  V30 20 2 14 20
M  V30 21 2 15 19
M  V30 22 1 15 20
M  V30 23 1 16 21
M  V30 24 2 17 22
M  V30 25 2 18 26
M  V30 26 1 19 26
M  V30 27 2 21 27
M  V30 28 1 22 27
M  V30 29 1 24 27
M  V30 30 1 7 28
M  V30 31 1 7 29
M  V30 32 1 8 30
M  V30 33 1 8 31
M  V30 34 1 11 32
M  V30 35 1 13 33
M  V30 36 1 14 34
M  V30 37 1 15 35
M  V30 38 1 16 36
M  V30 39 1 17 37
M  V30 40 1 18 38
M  V30 41 1 19 39
M  V30 END BOND
M  V30 END CTAB
M  END
>  <Ligand_Instance>  (307) 
3AMA_SKE_A_351

>  <Dataset>  (307) 
PDB

>  <PDB_ID>  (307) 
3AMA

>  <Chain>  (307) 
A

>  <Resi>  (307) 
351

>  <Num_Resolved_Atoms>  (307) 
27

>  <Num_H_Atoms_ProtBoundConf>  (307) 
12

>  <Pocket>  (307) 
A

>  <SMILES>  (307) 
c1cc(c(c(c1)F)C(=O)n2c(nc(n2)Nc3ccc(cc3)S(=O)(=O)N)N)F

>  <Name>  (307) 
4-({5-amino-1-[(2,6-difluorophenyl)carbonyl]-1H-1,2,4-triazol-3-yl}amino)benzenesulfonamide

>  <Num_Heavy_Atoms>  (307) 
27

>  <Num_Not_Resolved_Atoms>  (307) 
0

>  <ATP_Site>  (307) 
True

>  <Peripheral>  (307) 
False

>  <Standardized_SMILES>  (307) 
[H]C1=C([H])C(F)=C(C(=O)N2N=C(N([H])C3=C([H])C([H])=C(S(=O)(=O)N([H])[H])C([H])=C3[H])N=C2N([H])[H])C(F)=C1[H]

$$$$
SMY
     RDKit          3D

  0  0  0  0  0  0  0  0  0  0999 V3000
M  V30 BEGIN CTAB
M  V30 COUNTS 57 61 0 0 0
M  V30 BEGIN ATOM
M  V30 1 S 12.044000 30.014000 36.510000 0
M  V30 2 O 4.366000 34.854000 36.078000 0
M  V30 3 N 3.534000 34.635000 33.548000 0 CFG=1 CHG=1
M  V30 4 N 11.182000 34.753000 36.867000 0
M  V30 5 N 13.308000 33.655000 36.997000 0
M  V30 6 N 3.304000 29.148000 36.788000 0
M  V30 7 N 6.357000 33.836000 35.640000 0
M  V30 8 N 9.177000 33.614000 36.422000 0
M  V30 9 C 9.530000 30.441000 37.311000 0 CFG=1
M  V30 10 C 13.441000 31.210000 36.691000 0 CFG=2
M  V30 11 C 12.528000 34.737000 37.006000 0
M  V30 12 C 2.725000 30.354000 36.370000 0
M  V30 13 C 7.029000 34.590000 36.717000 0 CFG=2
M  V30 14 C 7.222000 32.955000 34.837000 0 CFG=2
M  V30 15 C 8.204000 33.932000 37.414000 0 CFG=2
M  V30 16 C 8.678000 32.809000 35.294000 0 CFG=2
M  V30 17 C 6.815000 28.314000 35.618000 0
M  V30 18 C 6.999000 29.483000 34.851000 0
M  V30 19 C 5.574000 28.166000 36.282000 0
M  V30 20 C 5.953000 30.442000 34.780000 0
M  V30 21 C 3.095000 32.472000 34.926000 0 CFG=2
M  V30 22 C 10.596000 31.065000 36.323000 0 CFG=1
M  V30 23 C 5.012000 34.059000 35.390000 0
M  V30 24 C 10.537000 33.606000 36.642000 0
M  V30 25 C 4.121000 33.449000 34.295000 0 CFG=2
M  V30 26 C 12.684000 32.493000 36.752000 0
M  V30 27 C 4.538000 29.127000 36.212000 0
M  V30 28 C 3.514000 31.116000 35.547000 0
M  V30 29 C 4.721000 30.277000 35.463000 0
M  V30 30 C 11.274000 32.406000 36.612000 0
M  V30 31 H 4.274800 35.198500 33.182500 0
M  V30 32 H 2.963300 34.305800 32.795700 0
M  V30 33 H 2.898400 28.452700 37.381400 0
M  V30 34 H 8.684200 30.972800 37.267900 0
M  V30 35 H 9.343000 29.495200 37.045500 0
M  V30 36 H 9.888900 30.460500 38.244200 0
M  V30 37 H 14.057700 31.180900 35.904300 0
M  V30 38 H 13.961800 31.047100 37.529000 0
M  V30 39 H 12.980900 35.620300 37.127000 0
M  V30 40 H 1.807700 30.636900 36.650200 0
M  V30 41 H 6.341500 34.789300 37.415300 0
M  V30 42 H 7.359100 35.446500 36.320200 0
M  V30 43 H 7.232800 33.311900 33.902900 0
M  V30 44 H 6.811300 32.043200 34.840700 0
M  V30 45 H 8.596100 34.560200 38.086000 0
M  V30 46 H 7.902300 33.097200 37.874500 0
M  V30 47 H 8.808000 31.849400 35.543600 0
M  V30 48 H 9.252100 33.029000 34.505300 0
M  V30 49 H 7.530800 27.619400 35.689600 0
M  V30 50 H 7.857600 29.635600 34.361600 0
M  V30 51 H 5.421900 27.341700 36.827400 0
M  V30 52 H 6.090700 31.264200 34.227700 0
M  V30 53 H 2.436500 32.256200 34.205000 0
M  V30 54 H 2.636900 32.981800 35.654200 0
M  V30 55 H 10.260800 31.036700 35.381300 0
M  V30 56 H 4.702000 32.934100 33.664700 0
M  V30 57 H 2.977600 35.181100 34.174200 0
M  V30 END ATOM
M  V30 BEGIN BOND
M  V30 1 1 1 10
M  V30 2 1 1 22
M  V30 3 2 2 23
M  V30 4 1 3 25
M  V30 5 2 4 11
M  V30 6 1 4 24
M  V30 7 1 5 11
M  V30 8 2 5 26
M  V30 9 1 6 12
M  V30 10 1 6 27
M  V30 11 1 7 13
M  V30 12 1 7 14
M  V30 13 1 7 23
M  V30 14 1 8 15
M  V30 15 1 8 16
M  V30 16 1 8 24
M  V30 17 1 9 22
M  V30 18 1 10 26
M  V30 19 2 12 28
M  V30 20 1 13 15
M  V30 21 1 14 16
M  V30 22 2 17 18
M  V30 23 1 17 19
M  V30 24 1 18 20
M  V30 25 2 19 27
M  V30 26 2 20 29
M  V30 27 1 21 25
M  V30 28 1 21 28
M  V30 29 1 22 30
M  V30 30 1 23 25
M  V30 31 2 24 30
M  V30 32 1 26 30
M  V30 33 1 27 29
M  V30 34 1 28 29
M  V30 35 1 3 31 CFG=3
M  V30 36 1 3 32
M  V30 37 1 6 33
M  V30 38 1 9 34 CFG=1
M  V30 39 1 9 35
M  V30 40 1 9 36
M  V30 41 1 10 37 CFG=3
M  V30 42 1 10 38
M  V30 43 1 11 39
M  V30 44 1 12 40
M  V30 45 1 13 41 CFG=1
M  V30 46 1 13 42
M  V30 47 1 14 43 CFG=3
M  V30 48 1 14 44
M  V30 49 1 15 45 CFG=1
M  V30 50 1 15 46
M  V30 51 1 16 47 CFG=1
M  V30 52 1 16 48
M  V30 53 1 17 49
M  V30 54 1 18 50
M  V30 55 1 19 51
M  V30 56 1 20 52
M  V30 57 1 21 53 CFG=3
M  V30 58 1 21 54
M  V30 59 1 22 55 CFG=3
M  V30 60 1 25 56 CFG=3
M  V30 61 1 3 57
M  V30 END BOND
M  V30 END CTAB
M  END
>  <Ligand_Instance>  (308) 
3OW3_SMY_A_401

>  <Dataset>  (308) 
PDB

>  <PDB_ID>  (308) 
3OW3

>  <Chain>  (308) 
A

>  <Resi>  (308) 
401

>  <Num_Resolved_Atoms>  (308) 
30

>  <Num_H_Atoms_ProtBoundConf>  (308) 
27

>  <Pocket>  (308) 
A

>  <SMILES>  (308) 
C[C@H]1c2c(ncnc2N3CCN(CC3)C(=O)[C@@H](Cc4c[nH]c5c4cccc5)N)CS1

>  <Name>  (308) 
(2R)-3-(1H-indol-3-yl)-1-{4-[(5S)-5-methyl-5,7-dihydrothieno[3,4-d]pyrimidin-4-yl]piperazin-1-yl}-1-oxopropan-2-amine

>  <Num_Heavy_Atoms>  (308) 
30

>  <Num_Not_Resolved_Atoms>  (308) 
0

>  <ATP_Site>  (308) 
True

>  <Peripheral>  (308) 
False

>  <Standardized_SMILES>  (308) 
[H]C1=NC(N2C([H])([H])C([H])([H])N(C(=O)[C@@]([H])(C([H])([H])C3=C([H])N([H])C4=C([H])C([H])=C([H])C([H])=C43)[N+]([H])([H])[H])C([H])([H])C2([H])[H])=C2C(=N1)C([H])([H])S[C@@]2([H])C([H])([H])[H]

$$$$
SS3
     RDKit          3D

  0  0  0  0  0  0  0  0  0  0999 V3000
M  V30 BEGIN CTAB
M  V30 COUNTS 50 53 0 0 0
M  V30 BEGIN ATOM
M  V30 1 O 24.141000 9.225000 35.098000 0
M  V30 2 N 26.100000 7.956000 33.473000 0 CFG=1 CHG=1
M  V30 3 N 16.057000 6.617000 37.911000 0
M  V30 4 N 15.746000 7.926000 37.944000 0
M  V30 5 N 22.680000 11.803000 37.286000 0
M  V30 6 C 18.043000 5.091000 37.571000 0 CFG=1
M  V30 7 C 23.760000 8.266000 34.106000 0 CFG=2
M  V30 8 C 23.535000 11.084000 36.497000 0
M  V30 9 C 21.410000 11.354000 37.515000 0
M  V30 10 C 21.951000 4.095000 36.842000 0
M  V30 11 C 22.225000 5.383000 37.359000 0
M  V30 12 C 22.753000 3.566000 35.803000 0
M  V30 13 C 23.298000 6.140000 36.835000 0
M  V30 14 C 23.829000 4.324000 35.274000 0
M  V30 15 C 17.097000 10.098000 37.655000 0
M  V30 16 C 18.425000 10.560000 37.404000 0
M  V30 17 C 21.822000 9.417000 36.139000 0
M  V30 18 C 25.262000 6.432000 35.218000 0 CFG=2
M  V30 19 C 19.228000 8.256000 37.303000 0
M  V30 20 C 23.160000 9.869000 35.887000 0
M  V30 21 C 24.913000 7.237000 33.929000 0 CFG=2
M  V30 22 C 17.363000 6.437000 37.675000 0
M  V30 23 C 16.843000 8.731000 37.728000 0
M  V30 24 C 24.112000 5.620000 35.784000 0
M  V30 25 C 20.922000 10.148000 36.958000 0
M  V30 26 C 19.514000 9.656000 37.222000 0
M  V30 27 C 17.932000 7.781000 37.548000 0
M  V30 28 H 26.854700 7.311000 33.352700 0
M  V30 29 H 25.903300 8.405200 32.601500 0
M  V30 30 H 14.823100 8.274900 38.106900 0
M  V30 31 H 19.017700 5.223000 37.390800 0
M  V30 32 H 17.927400 4.591900 38.429800 0
M  V30 33 H 17.633800 4.567700 36.823600 0
M  V30 34 H 23.589500 8.731400 33.237500 0
M  V30 35 H 22.929500 7.792200 34.399000 0
M  V30 36 H 24.460200 11.432700 36.347100 0
M  V30 37 H 20.804000 11.896700 38.096600 0
M  V30 38 H 21.191400 3.559000 37.210400 0
M  V30 39 H 21.660300 5.757700 38.094400 0
M  V30 40 H 22.560400 2.654200 35.440300 0
M  V30 41 H 23.488700 7.049400 37.204600 0
M  V30 42 H 24.391000 3.944700 34.538900 0
M  V30 43 H 16.352300 10.754000 37.777900 0
M  V30 44 H 18.596300 11.544000 37.354400 0
M  V30 45 H 21.513800 8.560500 35.724900 0
M  V30 46 H 25.561800 7.079300 35.918800 0
M  V30 47 H 26.010200 5.804900 35.001500 0
M  V30 48 H 19.972300 7.599300 37.181600 0
M  V30 49 H 24.646900 6.587700 33.216500 0
M  V30 50 H 26.354600 8.644000 34.152600 0
M  V30 END ATOM
M  V30 BEGIN BOND
M  V30 1 1 1 7
M  V30 2 1 1 20
M  V30 3 1 2 21
M  V30 4 1 3 4
M  V30 5 2 3 22
M  V30 6 1 4 23
M  V30 7 2 5 8
M  V30 8 1 5 9
M  V30 9 1 6 22
M  V30 10 1 7 21
M  V30 11 1 8 20
M  V30 12 2 9 25
M  V30 13 2 10 11
M  V30 14 1 10 12
M  V30 15 1 11 13
M  V30 16 2 12 14
M  V30 17 2 13 24
M  V30 18 1 14 24
M  V30 19 1 15 16
M  V30 20 2 15 23
M  V30 21 2 16 26
M  V30 22 2 17 20
M  V30 23 1 17 25
M  V30 24 1 18 21
M  V30 25 1 18 24
M  V30 26 1 19 26
M  V30 27 2 19 27
M  V30 28 1 22 27
M  V30 29 1 23 27
M  V30 30 1 25 26
M  V30 31 1 2 28 CFG=3
M  V30 32 1 2 29
M  V30 33 1 4 30
M  V30 34 1 6 31 CFG=3
M  V30 35 1 6 32
M  V30 36 1 6 33
M  V30 37 1 7 34 CFG=3
M  V30 38 1 7 35
M  V30 39 1 8 36
M  V30 40 1 9 37
M  V30 41 1 10 38
M  V30 42 1 11 39
M  V30 43 1 12 40
M  V30 44 1 13 41
M  V30 45 1 14 42
M  V30 46 1 15 43
M  V30 47 1 16 44
M  V30 48 1 17 45
M  V30 49 1 18 46 CFG=1
M  V30 50 1 18 47
M  V30 51 1 19 48
M  V30 52 1 21 49 CFG=3
M  V30 53 1 2 50
M  V30 END BOND
M  V30 END CTAB
M  END
>  <Ligand_Instance>  (309) 
2UZT_SS3_A_1351

>  <Dataset>  (309) 
PDB

>  <PDB_ID>  (309) 
2UZT

>  <Chain>  (309) 
A

>  <Resi>  (309) 
1351

>  <Num_Resolved_Atoms>  (309) 
27

>  <Num_H_Atoms_ProtBoundConf>  (309) 
23

>  <Pocket>  (309) 
A

>  <SMILES>  (309) 
Cc1c2cc(ccc2[nH]n1)c3cc(cnc3)OC[C@H](Cc4ccccc4)N

>  <Name>  (309) 
(2S)-1-{[5-(3-METHYL-1H-INDAZOL-5-YL)PYRIDIN-3-YL]OXY}-3-PHENYLPROPAN-2-AMINE

>  <Num_Heavy_Atoms>  (309) 
27

>  <Num_Not_Resolved_Atoms>  (309) 
0

>  <ATP_Site>  (309) 
True

>  <Peripheral>  (309) 
False

>  <Standardized_SMILES>  (309) 
[H]C1=NC([H])=C(C2=C([H])C([H])=C3C(=C2[H])C(C([H])([H])[H])=NN3[H])C([H])=C1OC([H])([H])[C@]([H])(C([H])([H])C1=C([H])C([H])=C([H])C([H])=C1[H])[N+]([H])([H])[H]

$$$$
SS4
     RDKit          3D

  0  0  0  0  0  0  0  0  0  0999 V3000
M  V30 BEGIN CTAB
M  V30 COUNTS 50 53 0 0 0
M  V30 BEGIN ATOM
M  V30 1 Br 13.421000 13.766000 -0.258000 0
M  V30 2 O 11.536000 8.270000 1.302000 0
M  V30 3 N 13.630000 6.916000 2.145000 0 CFG=1 CHG=1
M  V30 4 N 3.564000 10.139000 4.622000 0
M  V30 5 N 3.135000 10.064000 3.351000 0
M  V30 6 N 9.554000 10.053000 -1.137000 0
M  V30 7 C 5.699000 10.128000 5.957000 0 CFG=1
M  V30 8 C 11.564000 8.164000 2.713000 0 CFG=2
M  V30 9 C 10.556000 9.438000 -0.508000 0
M  V30 10 C 8.356000 10.130000 -0.540000 0
M  V30 11 C 13.245000 12.449000 2.251000 0
M  V30 12 C 14.064000 11.093000 0.439000 0
M  V30 13 C 4.311000 9.823000 1.109000 0
M  V30 14 C 13.355000 11.361000 3.107000 0
M  V30 15 C 14.176000 10.012000 1.302000 0
M  V30 16 C 5.587000 9.707000 0.548000 0
M  V30 17 C 13.880000 8.945000 3.574000 0 CFG=2
M  V30 18 C 9.151000 8.954000 1.356000 0
M  V30 19 C 6.582000 9.818000 2.717000 0
M  V30 20 C 13.592000 12.309000 0.913000 0
M  V30 21 C 10.405000 8.871000 0.747000 0
M  V30 22 C 12.986000 7.756000 3.153000 0 CFG=2
M  V30 23 C 4.894000 10.069000 4.680000 0
M  V30 24 C 4.178000 9.935000 2.461000 0
M  V30 25 C 13.808000 10.129000 2.639000 0
M  V30 26 C 8.099000 9.591000 0.713000 0
M  V30 27 C 6.739000 9.703000 1.336000 0
M  V30 28 C 5.342000 9.934000 3.295000 0
M  V30 29 H 14.547500 6.667100 2.455300 0
M  V30 30 H 13.088500 6.086800 2.006700 0
M  V30 31 H 2.172200 10.097800 3.082900 0
M  V30 32 H 6.672700 10.055600 5.740900 0
M  V30 33 H 5.524200 10.996200 6.421400 0
M  V30 34 H 5.432900 9.371200 6.554000 0
M  V30 35 H 10.908000 7.470500 3.011000 0
M  V30 36 H 11.325800 9.045300 3.121000 0
M  V30 37 H 11.447500 9.384200 -0.957800 0
M  V30 38 H 7.613300 10.597300 -1.019600 0
M  V30 39 H 12.917700 13.328700 2.595900 0
M  V30 40 H 14.322800 10.996000 -0.522100 0
M  V30 41 H 3.501400 9.823800 0.522000 0
M  V30 42 H 13.106300 11.462800 4.070200 0
M  V30 43 H 14.524900 9.139700 0.959500 0
M  V30 44 H 5.676300 9.624700 -0.444600 0
M  V30 45 H 14.828100 8.628800 3.608500 0
M  V30 46 H 13.595500 9.245500 4.484400 0
M  V30 47 H 9.010300 8.552000 2.260800 0
M  V30 48 H 7.393500 9.815900 3.301300 0
M  V30 49 H 12.875800 7.184900 3.966500 0
M  V30 50 H 13.694600 7.419500 1.283400 0
M  V30 END ATOM
M  V30 BEGIN BOND
M  V30 1 1 1 20
M  V30 2 1 2 8
M  V30 3 1 2 21
M  V30 4 1 3 22
M  V30 5 1 4 5
M  V30 6 2 4 23
M  V30 7 1 5 24
M  V30 8 2 6 9
M  V30 9 1 6 10
M  V30 10 1 7 23
M  V30 11 1 8 22
M  V30 12 1 9 21
M  V30 13 2 10 26
M  V30 14 2 11 14
M  V30 15 1 11 20
M  V30 16 1 12 15
M  V30 17 2 12 20
M  V30 18 1 13 16
M  V30 19 2 13 24
M  V30 20 1 14 25
M  V30 21 2 15 25
M  V30 22 2 16 27
M  V30 23 1 17 22
M  V30 24 1 17 25
M  V30 25 2 18 21
M  V30 26 1 18 26
M  V30 27 1 19 27
M  V30 28 2 19 28
M  V30 29 1 23 28
M  V30 30 1 24 28
M  V30 31 1 26 27
M  V30 32 1 3 29 CFG=1
M  V30 33 1 3 30
M  V30 34 1 5 31
M  V30 35 1 7 32 CFG=3
M  V30 36 1 7 33
M  V30 37 1 7 34
M  V30 38 1 8 35 CFG=3
M  V30 39 1 8 36
M  V30 40 1 9 37
M  V30 41 1 10 38
M  V30 42 1 11 39
M  V30 43 1 12 40
M  V30 44 1 13 41
M  V30 45 1 14 42
M  V30 46 1 15 43
M  V30 47 1 16 44
M  V30 48 1 17 45 CFG=1
M  V30 49 1 17 46
M  V30 50 1 18 47
M  V30 51 1 19 48
M  V30 52 1 22 49 CFG=1
M  V30 53 1 3 50
M  V30 END BOND
M  V30 END CTAB
M  END
>  <Ligand_Instance>  (310) 
2UZW_SS4_E_1351

>  <Dataset>  (310) 
PDB

>  <PDB_ID>  (310) 
2UZW

>  <Chain>  (310) 
E

>  <Resi>  (310) 
1351

>  <Num_Resolved_Atoms>  (310) 
28

>  <Num_H_Atoms_ProtBoundConf>  (310) 
22

>  <Pocket>  (310) 
A

>  <SMILES>  (310) 
Cc1c2cc(ccc2[nH]n1)c3cc(cnc3)OC[C@H](Cc4ccc(cc4)Br)N

>  <Name>  (310) 
3-PYRIDIN-4-YL-2,4-DIHYDRO-INDENO[1,2-.C.] PYRAZOLE

>  <Num_Heavy_Atoms>  (310) 
28

>  <Num_Not_Resolved_Atoms>  (310) 
0

>  <ATP_Site>  (310) 
True

>  <Peripheral>  (310) 
False

>  <Standardized_SMILES>  (310) 
[H]C1=NC([H])=C(C2=C([H])C([H])=C3C(=C2[H])C(C([H])([H])[H])=NN3[H])C([H])=C1OC([H])([H])[C@]([H])(C([H])([H])C1=C([H])C([H])=C(Br)C([H])=C1[H])[N+]([H])([H])[H]

$$$$
SS5
     RDKit          3D

  0  0  0  0  0  0  0  0  0  0999 V3000
M  V30 BEGIN CTAB
M  V30 COUNTS 70 74 0 0 0
M  V30 BEGIN ATOM
M  V30 1 O 11.113000 9.008000 1.685000 0
M  V30 2 O 18.453000 10.033000 4.122000 0
M  V30 3 N 12.866000 7.207000 3.013000 0 CFG=1 CHG=1
M  V30 4 N 2.714000 10.097000 3.883000 0
M  V30 5 N 2.436000 9.855000 2.594000 0
M  V30 6 N 9.292000 10.016000 -1.429000 0
M  V30 7 C 4.656000 10.484000 5.431000 0 CFG=1
M  V30 8 C 12.382000 8.665000 1.151000 0 CFG=2
M  V30 9 C 19.557000 10.017000 5.016000 0 CFG=2
M  V30 10 C 10.314000 9.683000 -0.615000 0
M  V30 11 C 8.017000 10.052000 -0.943000 0
M  V30 12 C 21.270000 14.056000 4.216000 0 CFG=2
M  V30 13 C 22.231000 12.884000 4.541000 0 CFG=2
M  V30 14 C 19.931000 13.955000 4.980000 0 CFG=2
M  V30 15 C 17.164000 6.412000 4.171000 0
M  V30 16 C 17.986000 7.536000 4.502000 0
M  V30 17 C 21.549000 11.504000 4.363000 0 CFG=2
M  V30 18 C 19.274000 12.569000 4.804000 0 CFG=2
M  V30 19 C 16.099000 6.557000 3.256000 0
M  V30 20 C 3.835000 9.569000 0.486000 0
M  V30 21 C 5.179000 9.566000 0.036000 0
M  V30 22 C 16.661000 8.928000 3.000000 0
M  V30 23 C 8.786000 9.410000 1.243000 0
M  V30 24 C 14.730000 8.047000 1.670000 0 CFG=2
M  V30 25 C 5.964000 10.014000 2.313000 0
M  V30 26 C 10.109000 9.361000 0.767000 0
M  V30 27 C 17.732000 8.824000 3.905000 0
M  V30 28 C 13.367000 8.361000 2.277000 0 CFG=2
M  V30 29 C 4.027000 10.212000 4.083000 0
M  V30 30 C 3.559000 9.788000 1.827000 0
M  V30 31 C 20.237000 11.400000 5.182000 0 CFG=1
M  V30 32 C 15.839000 7.821000 2.662000 0
M  V30 33 C 7.700000 9.755000 0.406000 0
M  V30 34 C 6.275000 9.785000 0.921000 0
M  V30 35 C 4.640000 10.018000 2.773000 0
M  V30 36 H 13.495900 6.987700 3.758000 0
M  V30 37 H 11.964200 7.418100 3.390200 0
M  V30 38 H 1.509500 9.737100 2.236600 0
M  V30 39 H 5.650100 10.527700 5.332200 0
M  V30 40 H 4.317800 11.355100 5.787000 0
M  V30 41 H 4.416000 9.749000 6.065200 0
M  V30 42 H 12.728500 9.429400 0.607200 0
M  V30 43 H 12.287400 7.857500 0.568700 0
M  V30 44 H 20.235900 9.369900 4.669200 0
M  V30 45 H 19.234200 9.713200 5.912400 0
M  V30 46 H 11.242300 9.659900 -0.986100 0
M  V30 47 H 7.274500 10.298600 -1.565800 0
M  V30 48 H 21.079800 14.051500 3.234300 0
M  V30 49 H 21.716900 14.915200 4.465000 0
M  V30 50 H 22.537900 12.972100 5.488600 0
M  V30 51 H 23.020100 12.935000 3.928900 0
M  V30 52 H 19.307000 14.655400 4.633600 0
M  V30 53 H 20.100800 14.111600 5.953000 0
M  V30 54 H 17.344600 5.521700 4.589000 0
M  V30 55 H 18.739800 7.427700 5.150100 0
M  V30 56 H 22.178800 10.789900 4.668700 0
M  V30 57 H 21.337600 11.369900 3.394800 0
M  V30 58 H 19.000100 12.462800 3.848100 0
M  V30 59 H 18.465100 12.520600 5.389900 0
M  V30 60 H 15.527200 5.769500 3.025800 0
M  V30 61 H 3.088700 9.413800 -0.161200 0
M  V30 62 H 5.364400 9.405100 -0.933400 0
M  V30 63 H 16.471200 9.814800 2.578700 0
M  V30 64 H 8.608200 9.194100 2.203100 0
M  V30 65 H 14.991300 8.813900 1.083900 0
M  V30 66 H 14.638100 7.219900 1.115500 0
M  V30 67 H 6.708400 10.172900 2.961600 0
M  V30 68 H 13.439700 9.149300 2.888000 0
M  V30 69 H 20.474900 11.505300 6.147600 0
M  V30 70 H 12.794100 6.423500 2.395700 0
M  V30 END ATOM
M  V30 BEGIN BOND
M  V30 1 1 1 8
M  V30 2 1 1 26
M  V30 3 1 2 9
M  V30 4 1 2 27
M  V30 5 1 3 28
M  V30 6 1 4 5
M  V30 7 2 4 29
M  V30 8 1 5 30
M  V30 9 2 6 10
M  V30 10 1 6 11
M  V30 11 1 7 29
M  V30 12 1 8 28
M  V30 13 1 9 31
M  V30 14 1 10 26
M  V30 15 2 11 33
M  V30 16 1 12 13
M  V30 17 1 12 14
M  V30 18 1 13 17
M  V30 19 1 14 18
M  V30 20 2 15 16
M  V30 21 1 15 19
M  V30 22 1 16 27
M  V30 23 1 17 31
M  V30 24 1 18 31
M  V30 25 2 19 32
M  V30 26 1 20 21
M  V30 27 2 20 30
M  V30 28 2 21 34
M  V30 29 2 22 27
M  V30 30 1 22 32
M  V30 31 2 23 26
M  V30 32 1 23 33
M  V30 33 1 24 28
M  V30 34 1 24 32
M  V30 35 1 25 34
M  V30 36 2 25 35
M  V30 37 1 29 35
M  V30 38 1 30 35
M  V30 39 1 33 34
M  V30 40 1 3 36 CFG=1
M  V30 41 1 3 37
M  V30 42 1 5 38
M  V30 43 1 7 39 CFG=3
M  V30 44 1 7 40
M  V30 45 1 7 41
M  V30 46 1 8 42 CFG=3
M  V30 47 1 8 43
M  V30 48 1 9 44 CFG=3
M  V30 49 1 9 45
M  V30 50 1 10 46
M  V30 51 1 11 47
M  V30 52 1 12 48 CFG=3
M  V30 53 1 12 49
M  V30 54 1 13 50 CFG=1
M  V30 55 1 13 51
M  V30 56 1 14 52 CFG=3
M  V30 57 1 14 53
M  V30 58 1 15 54
M  V30 59 1 16 55
M  V30 60 1 17 56 CFG=1
M  V30 61 1 17 57
M  V30 62 1 18 58 CFG=3
M  V30 63 1 18 59
M  V30 64 1 19 60
M  V30 65 1 20 61
M  V30 66 1 21 62
M  V30 67 1 22 63
M  V30 68 1 23 64
M  V30 69 1 24 65 CFG=3
M  V30 70 1 24 66
M  V30 71 1 25 67
M  V30 72 1 28 68 CFG=1
M  V30 73 1 31 69 CFG=1
M  V30 74 1 3 70
M  V30 END BOND
M  V30 END CTAB
M  END
>  <Ligand_Instance>  (311) 
2UZV_SS5_A_1351

>  <Dataset>  (311) 
PDB

>  <PDB_ID>  (311) 
2UZV

>  <Chain>  (311) 
A

>  <Resi>  (311) 
1351

>  <Num_Resolved_Atoms>  (311) 
35

>  <Num_H_Atoms_ProtBoundConf>  (311) 
35

>  <Pocket>  (311) 
A

>  <SMILES>  (311) 
Cc1c2cc(ccc2[nH]n1)c3cc(cnc3)OC[C@H](Cc4cccc(c4)OCC5CCCCC5)N

>  <Name>  (311) 
(2S)-1-[3-(CYCLOHEXYLMETHOXY)PHENYL]-3-{[5-(3-METHYL-1H-INDAZOL-5-YL)PYRIDIN-3-YL]OXY}PROPAN-2-AMINE

>  <Num_Heavy_Atoms>  (311) 
35

>  <Num_Not_Resolved_Atoms>  (311) 
0

>  <ATP_Site>  (311) 
True

>  <Peripheral>  (311) 
False

>  <Standardized_SMILES>  (311) 
[H]C1=NC([H])=C(C2=C([H])C([H])=C3C(=C2[H])C(C([H])([H])[H])=NN3[H])C([H])=C1OC([H])([H])[C@]([H])(C([H])([H])C1=C([H])C([H])=C([H])C(OC([H])([H])C2([H])C([H])([H])C([H])([H])C([H])([H])C([H])([H])C2([H])[H])=C1[H])[N+]([H])([H])[H]

$$$$
STU
     RDKit          3D

  0  0  0  0  0  0  0  0  0  0999 V3000
M  V30 BEGIN CTAB
M  V30 COUNTS 62 69 0 0 0
M  V30 BEGIN ATOM
M  V30 1 O 12.833000 -9.425000 -7.210000 0
M  V30 2 O 6.728000 -11.950000 -10.422000 0
M  V30 3 O 5.701000 -10.572000 -7.550000 0
M  V30 4 N 4.557000 -10.402000 -11.588000 0 CFG=2 CHG=1
M  V30 5 N 12.862000 -11.742000 -7.183000 0
M  V30 6 N 7.620000 -9.303000 -8.036000 0
M  V30 7 N 7.084000 -12.493000 -7.870000 0
M  V30 8 C 6.889000 -13.175000 -11.154000 0 CFG=1
M  V30 9 C 3.122000 -10.395000 -11.833000 0 CFG=1
M  V30 10 C 4.594000 -12.519000 -7.376000 0 CFG=1
M  V30 11 C 11.927000 -12.867000 -7.256000 0 CFG=2
M  V30 12 C 8.865000 -5.784000 -8.390000 0
M  V30 13 C 7.200000 -16.253000 -7.999000 0
M  V30 14 C 10.215000 -6.056000 -8.186000 0
M  V30 15 C 8.564000 -16.391000 -7.797000 0
M  V30 16 C 7.920000 -6.803000 -8.337000 0
M  V30 17 C 6.610000 -14.996000 -8.016000 0
M  V30 18 C 9.372000 -15.273000 -7.634000 0
M  V30 19 C 10.644000 -7.355000 -7.935000 0
M  V30 20 C 5.816000 -9.336000 -9.724000 0 CFG=2
M  V30 21 C 12.262000 -10.503000 -7.330000 0
M  V30 22 C 6.148000 -9.416000 -8.254000 0 CFG=1
M  V30 23 C 5.494000 -11.850000 -9.717000 0 CFG=2
M  V30 24 C 4.867000 -10.468000 -10.128000 0 CFG=2
M  V30 25 C 8.351000 -8.105000 -8.087000 0
M  V30 26 C 7.418000 -13.874000 -7.834000 0
M  V30 27 C 8.493000 -10.347000 -7.804000 0
M  V30 28 C 8.270000 -11.757000 -7.739000 0
M  V30 29 C 10.652000 -12.140000 -7.489000 0
M  V30 30 C 8.807000 -14.000000 -7.658000 0
M  V30 31 C 9.713000 -8.397000 -7.882000 0
M  V30 32 C 10.841000 -10.762000 -7.535000 0
M  V30 33 C 9.351000 -12.651000 -7.602000 0
M  V30 34 C 9.804000 -9.838000 -7.703000 0
M  V30 35 C 5.740000 -11.867000 -8.121000 0 CFG=1
M  V30 36 H 4.954600 -9.566100 -11.966400 0
M  V30 37 H 13.844900 -11.858300 -7.039900 0
M  V30 38 H 7.773900 -13.171200 -11.619700 0
M  V30 39 H 6.848300 -13.948800 -10.521900 0
M  V30 40 H 6.156900 -13.258000 -11.830100 0
M  V30 41 H 2.952100 -10.350400 -12.817500 0
M  V30 42 H 2.716500 -11.230500 -11.462300 0
M  V30 43 H 2.711700 -9.599300 -11.387500 0
M  V30 44 H 4.494600 -13.466300 -7.680400 0
M  V30 45 H 4.782400 -12.502400 -6.394100 0
M  V30 46 H 3.748200 -12.018800 -7.561600 0
M  V30 47 H 11.905800 -13.386200 -6.401600 0
M  V30 48 H 12.146200 -13.481300 -8.014000 0
M  V30 49 H 8.571800 -4.846300 -8.576600 0
M  V30 50 H 6.634800 -17.066900 -8.133900 0
M  V30 51 H 10.881600 -5.311400 -8.220200 0
M  V30 52 H 8.970500 -17.304200 -7.768300 0
M  V30 53 H 6.949600 -6.605500 -8.475600 0
M  V30 54 H 5.624800 -14.897300 -8.156000 0
M  V30 55 H 10.357000 -15.381700 -7.499700 0
M  V30 56 H 11.615800 -7.543300 -7.792800 0
M  V30 57 H 6.659900 -9.409900 -10.255400 0
M  V30 58 H 5.378200 -8.457300 -9.914100 0
M  V30 59 H 5.725000 -8.623500 -7.814500 0
M  V30 60 H 4.884400 -12.597700 -9.980300 0
M  V30 61 H 4.011800 -10.352000 -9.622900 0
M  V30 62 H 4.959400 -11.197400 -12.041200 0
M  V30 END ATOM
M  V30 BEGIN BOND
M  V30 1 2 1 21
M  V30 2 1 2 8
M  V30 3 1 2 23
M  V30 4 1 3 22
M  V30 5 1 3 35
M  V30 6 1 4 9
M  V30 7 1 4 24
M  V30 8 1 5 11
M  V30 9 1 5 21
M  V30 10 1 6 22
M  V30 11 1 6 25
M  V30 12 1 6 27
M  V30 13 1 7 26
M  V30 14 1 7 28
M  V30 15 1 35 7 CFG=3
M  V30 16 1 10 35
M  V30 17 1 11 29
M  V30 18 2 12 14
M  V30 19 1 12 16
M  V30 20 2 13 15
M  V30 21 1 13 17
M  V30 22 1 14 19
M  V30 23 1 15 18
M  V30 24 2 16 25
M  V30 25 2 17 26
M  V30 26 2 18 30
M  V30 27 2 19 31
M  V30 28 1 20 22
M  V30 29 1 20 24
M  V30 30 1 21 32
M  V30 31 1 23 24
M  V30 32 1 23 35
M  V30 33 1 25 31
M  V30 34 1 26 30
M  V30 35 1 27 28
M  V30 36 2 27 34
M  V30 37 2 28 33
M  V30 38 2 29 32
M  V30 39 1 29 33
M  V30 40 1 30 33
M  V30 41 1 31 34
M  V30 42 1 32 34
M  V30 43 1 4 36 CFG=3
M  V30 44 1 5 37
M  V30 45 1 8 38 CFG=3
M  V30 46 1 8 39
M  V30 47 1 8 40
M  V30 48 1 9 41 CFG=3
M  V30 49 1 9 42
M  V30 50 1 9 43
M  V30 51 1 10 44 CFG=3
M  V30 52 1 10 45
M  V30 53 1 10 46
M  V30 54 1 11 47 CFG=1
M  V30 55 1 11 48
M  V30 56 1 12 49
M  V30 57 1 13 50
M  V30 58 1 14 51
M  V30 59 1 15 52
M  V30 60 1 16 53
M  V30 61 1 17 54
M  V30 62 1 18 55
M  V30 63 1 19 56
M  V30 64 1 20 57 CFG=3
M  V30 65 1 20 58
M  V30 66 1 22 59 CFG=1
M  V30 67 1 23 60 CFG=1
M  V30 68 1 24 61 CFG=1
M  V30 69 1 4 62
M  V30 END BOND
M  V30 END CTAB
M  END
>  <Ligand_Instance>  (312) 
4C34_STU_A_1351

>  <Dataset>  (312) 
PDB

>  <PDB_ID>  (312) 
4C34

>  <Chain>  (312) 
A

>  <Resi>  (312) 
1351

>  <Num_Resolved_Atoms>  (312) 
35

>  <Num_H_Atoms_ProtBoundConf>  (312) 
27

>  <Pocket>  (312) 
A

>  <SMILES>  (312) 
C[C@@]12[C@@H]([C@@H](C[C@@H](O1)n3c4ccccc4c5c3c6n2c7ccccc7c6c8c5C(=O)NC8)NC)OC

>  <Name>  (312) 
STAUROSPORINE

>  <Num_Heavy_Atoms>  (312) 
35

>  <Num_Not_Resolved_Atoms>  (312) 
0

>  <ATP_Site>  (312) 
True

>  <Peripheral>  (312) 
False

>  <Standardized_SMILES>  (312) 
[H]C1=C([H])C([H])=C2C(=C1[H])C1=C3C4=C(C5=C([H])C([H])=C([H])C([H])=C5N4[C@@]4(C([H])([H])[H])O[C@@]([H])(N23)C([H])([H])[C@@]([H])([N+]([H])([H])C([H])([H])[H])[C@@]4([H])OC([H])([H])[H])C2=C1C(=O)N([H])C2([H])[H]

$$$$
T7W
     RDKit          3D

  0  0  0  0  0  0  0  0  0  0999 V3000
M  V30 BEGIN CTAB
M  V30 COUNTS 52 55 0 0 0
M  V30 BEGIN ATOM
M  V30 1 O 11.804000 -20.490000 -35.488000 0
M  V30 2 O 11.136000 -18.645000 -34.447000 0 CHG=-1
M  V30 3 O 13.284000 -23.712000 -32.429000 0
M  V30 4 O 14.489000 -22.607000 -28.407000 0
M  V30 5 N 15.293000 -22.753000 -27.251000 0
M  V30 6 N 17.413000 -25.893000 -23.862000 0
M  V30 7 N 10.069000 -21.770000 -27.998000 0 CHG=1
M  V30 8 N 9.923000 -23.953000 -27.626000 0
M  V30 9 N 14.425000 -24.742000 -27.863000 0
M  V30 10 N 12.658000 -22.806000 -30.486000 0
M  V30 11 C 14.352000 -21.674000 -34.324000 0 CFG=1
M  V30 12 C 14.861000 -20.447000 -32.205000 0 CFG=1
M  V30 13 C 9.430000 -22.753000 -27.341000 0
M  V30 14 C 16.710000 -26.609000 -24.745000 0
M  V30 15 C 17.383000 -24.564000 -23.996000 0
M  V30 16 C 12.040000 -21.739000 -29.700000 0 CFG=2
M  V30 17 C 15.980000 -26.049000 -25.773000 0
M  V30 18 C 16.689000 -23.913000 -24.996000 0
M  V30 19 C 11.768000 -24.725000 -29.230000 0 CFG=2
M  V30 20 C 13.262000 -19.457000 -33.876000 0 CFG=2
M  V30 21 C 12.571000 -21.439000 -32.537000 0 CFG=2
M  V30 22 C 12.001000 -19.592000 -34.690000 0
M  V30 23 C 12.877000 -22.736000 -31.819000 0
M  V30 24 C 14.011000 -23.834000 -28.679000 0
M  V30 25 C 15.214000 -24.025000 -26.991000 0
M  V30 26 C 11.043000 -22.360000 -28.766000 0
M  V30 27 C 10.938000 -23.692000 -28.535000 0
M  V30 28 C 13.026000 -24.049000 -29.793000 0 CFG=2
M  V30 29 C 15.973000 -24.668000 -25.910000 0
M  V30 30 C 13.777000 -20.767000 -33.235000 0 CFG=1
M  V30 31 H 9.872000 -20.791400 -27.938700 0
M  V30 32 H 13.640500 -21.881000 -34.995500 0
M  V30 33 H 15.113000 -21.209600 -34.777100 0
M  V30 34 H 14.678500 -22.524400 -33.911500 0
M  V30 35 H 14.481400 -19.854000 -31.494900 0
M  V30 36 H 15.188000 -21.296200 -31.790500 0
M  V30 37 H 15.622400 -19.981500 -32.656100 0
M  V30 38 H 8.670100 -22.598600 -26.709600 0
M  V30 39 H 16.713400 -27.605000 -24.655600 0
M  V30 40 H 17.891000 -24.010700 -23.335800 0
M  V30 41 H 11.577400 -21.094700 -30.309000 0
M  V30 42 H 12.740800 -21.256500 -29.174600 0
M  V30 43 H 15.466000 -26.626800 -26.407000 0
M  V30 44 H 16.703000 -22.915100 -25.059300 0
M  V30 45 H 11.242200 -25.132400 -29.976700 0
M  V30 46 H 12.031400 -25.437900 -28.580100 0
M  V30 47 H 13.087100 -18.801400 -33.141500 0
M  V30 48 H 13.980200 -19.102800 -34.475000 0
M  V30 49 H 12.204000 -20.794300 -31.866500 0
M  V30 50 H 11.877600 -21.627400 -33.232500 0
M  V30 51 H 13.440300 -24.667500 -30.460700 0
M  V30 52 H 9.630200 -24.839700 -27.268100 0
M  V30 END ATOM
M  V30 BEGIN BOND
M  V30 1 2 1 22
M  V30 2 1 2 22
M  V30 3 2 3 23
M  V30 4 1 4 5
M  V30 5 1 4 24
M  V30 6 2 5 25
M  V30 7 2 6 14
M  V30 8 1 6 15
M  V30 9 2 7 13
M  V30 10 1 7 26
M  V30 11 1 8 13
M  V30 12 1 8 27
M  V30 13 2 9 24
M  V30 14 1 9 25
M  V30 15 1 10 16
M  V30 16 1 10 23
M  V30 17 1 10 28
M  V30 18 1 11 30
M  V30 19 1 12 30
M  V30 20 1 14 17
M  V30 21 2 15 18
M  V30 22 1 16 26
M  V30 23 2 17 29
M  V30 24 1 18 29
M  V30 25 1 19 27
M  V30 26 1 19 28
M  V30 27 1 20 22
M  V30 28 1 30 20 CFG=3
M  V30 29 1 21 23
M  V30 30 1 21 30
M  V30 31 1 24 28
M  V30 32 1 25 29
M  V30 33 2 26 27
M  V30 34 1 28 51 CFG=3
M  V30 35 1 7 31
M  V30 36 1 11 32 CFG=3
M  V30 37 1 11 33
M  V30 38 1 11 34
M  V30 39 1 12 35 CFG=1
M  V30 40 1 12 36
M  V30 41 1 12 37
M  V30 42 1 13 38
M  V30 43 1 14 39
M  V30 44 1 15 40
M  V30 45 1 16 41 CFG=3
M  V30 46 1 16 42
M  V30 47 1 17 43
M  V30 48 1 18 44
M  V30 49 1 19 45 CFG=3
M  V30 50 1 19 46
M  V30 51 1 20 47 CFG=1
M  V30 52 1 20 48
M  V30 53 1 21 49 CFG=1
M  V30 54 1 21 50
M  V30 55 1 8 52
M  V30 END BOND
M  V30 END CTAB
M  END
>  <Ligand_Instance>  (313) 
7BB0_T7W_A_401

>  <Dataset>  (313) 
PDB

>  <PDB_ID>  (313) 
7BB0

>  <Chain>  (313) 
A

>  <Resi>  (313) 
401

>  <Num_Resolved_Atoms>  (313) 
30

>  <Num_H_Atoms_ProtBoundConf>  (313) 
22

>  <Pocket>  (313) 
A

>  <SMILES>  (313) 
CC(C)(CC(=O)N1Cc2c([nH]cn2)C[C@@H]1c3nc(no3)c4ccncc4)CC(=O)O

>  <Name>  (313) 
(R)-3,3-dimethyl-5-oxo-5-(6-(3-(pyridin-4-yl)-1,2,4-oxadiazol-5-yl)-1,4,6,7-tetrahydro-5H-imidazo[4,5-c]pyridin-5-yl)pentanoic acid

>  <Num_Heavy_Atoms>  (313) 
30

>  <Num_Not_Resolved_Atoms>  (313) 
0

>  <ATP_Site>  (313) 
True

>  <Peripheral>  (313) 
False

>  <Standardized_SMILES>  (313) 
[H]C1=NC([H])=C([H])C(C2=NOC([C@]3([H])N(C(=O)C([H])([H])C(C([H])([H])[H])(C([H])([H])[H])C([H])([H])C(=O)[O-])C([H])([H])C4=C(N([H])C([H])=[N+]4[H])C3([H])[H])=N2)=C1[H]

$$$$
T82
     RDKit          3D

  0  0  0  0  0  0  0  0  0  0999 V3000
M  V30 BEGIN CTAB
M  V30 COUNTS 39 40 0 0 0
M  V30 BEGIN ATOM
M  V30 1 Br -11.407000 8.961000 -7.015000 0
M  V30 2 Cl -2.998000 16.317000 -4.065000 0
M  V30 3 O -5.594000 12.206000 -8.523000 0
M  V30 4 O -13.813000 10.758000 -6.801000 0
M  V30 5 N -4.802000 14.157000 -11.069000 0 CFG=1 CHG=1
M  V30 6 N -8.023000 13.131000 -7.906000 0
M  V30 7 N -6.947000 13.967000 -8.127000 0
M  V30 8 C -3.883000 14.085000 -9.899000 0 CFG=2
M  V30 9 C -2.332000 12.898000 -5.977000 0
M  V30 10 C -9.111000 13.719000 -7.599000 0
M  V30 11 C -2.285000 13.905000 -5.029000 0
M  V30 12 C -3.061000 13.071000 -7.143000 0
M  V30 13 C -12.695000 12.886000 -6.995000 0
M  V30 14 C -11.528000 13.603000 -7.162000 0
M  V30 15 C -10.294000 11.557000 -7.290000 0
M  V30 16 C -3.699000 15.257000 -6.431000 0
M  V30 17 C -11.466000 10.858000 -7.102000 0
M  V30 18 C -2.983000 15.077000 -5.267000 0
M  V30 19 C -5.768000 13.415000 -8.434000 0
M  V30 20 C -12.689000 11.497000 -6.957000 0
M  V30 21 C -10.318000 12.957000 -7.325000 0
M  V30 22 C -3.758000 14.257000 -7.382000 0
M  V30 23 C -4.628000 14.416000 -8.610000 0 CFG=1
M  V30 24 H -14.699800 11.210500 -6.706800 0
M  V30 25 H -4.794800 15.084800 -11.441900 0
M  V30 26 H -4.498500 13.513100 -11.771300 0
M  V30 27 H -7.046400 14.959700 -8.059300 0
M  V30 28 H -3.138000 14.740000 -10.025500 0
M  V30 29 H -3.506700 13.160800 -9.833100 0
M  V30 30 H -1.838300 12.042600 -5.820200 0
M  V30 31 H -9.134700 14.717300 -7.545900 0
M  V30 32 H -1.756900 13.788500 -4.187900 0
M  V30 33 H -3.088100 12.337100 -7.821700 0
M  V30 34 H -13.561800 13.375400 -6.899500 0
M  V30 35 H -11.558600 14.602500 -7.165100 0
M  V30 36 H -9.429500 11.066800 -7.401100 0
M  V30 37 H -4.180100 16.119400 -6.588400 0
M  V30 38 H -4.992300 15.346200 -8.653900 0
M  V30 39 H -5.729600 13.921400 -10.779200 0
M  V30 END ATOM
M  V30 BEGIN BOND
M  V30 1 1 1 17
M  V30 2 1 2 18
M  V30 3 2 3 19
M  V30 4 1 4 20
M  V30 5 1 5 8
M  V30 6 1 6 7
M  V30 7 2 6 10
M  V30 8 1 7 19
M  V30 9 1 8 23
M  V30 10 2 9 11
M  V30 11 1 9 12
M  V30 12 1 10 21
M  V30 13 1 11 18
M  V30 14 2 12 22
M  V30 15 1 13 14
M  V30 16 2 13 20
M  V30 17 2 14 21
M  V30 18 2 15 17
M  V30 19 1 15 21
M  V30 20 2 16 18
M  V30 21 1 16 22
M  V30 22 1 17 20
M  V30 23 1 19 23
M  V30 24 1 22 23
M  V30 25 1 4 24
M  V30 26 1 5 25 CFG=3
M  V30 27 1 5 26
M  V30 28 1 7 27
M  V30 29 1 8 28 CFG=3
M  V30 30 1 8 29
M  V30 31 1 9 30
M  V30 32 1 10 31
M  V30 33 1 11 32
M  V30 34 1 12 33
M  V30 35 1 13 34
M  V30 36 1 14 35
M  V30 37 1 15 36
M  V30 38 1 16 37
M  V30 39 1 23 38 CFG=3
M  V30 40 1 5 39
M  V30 END BOND
M  V30 END CTAB
M  END
>  <Ligand_Instance>  (314) 
7BAQ_T82_A_401

>  <Dataset>  (314) 
PDB

>  <PDB_ID>  (314) 
7BAQ

>  <Chain>  (314) 
A

>  <Resi>  (314) 
401

>  <Num_Resolved_Atoms>  (314) 
23

>  <Num_H_Atoms_ProtBoundConf>  (314) 
16

>  <Pocket>  (314) 
A

>  <SMILES>  (314) 
c1cc(cc(c1)Cl)[C@@H](CN)C(=O)N/N=C/c2ccc(c(c2)Br)O

>  <Name>  (314) 
(S,E)-3-(2-(3-bromo-4-hydroxybenzylidene)hydrazineyl)-2-(3-chlorophenyl)-3-oxopropan-1-aminium

>  <Num_Heavy_Atoms>  (314) 
23

>  <Num_Not_Resolved_Atoms>  (314) 
0

>  <ATP_Site>  (314) 
True

>  <Peripheral>  (314) 
False

>  <Standardized_SMILES>  (314) 
[H]OC1=C([H])C([H])=C(/C([H])=N/N([H])C(=O)[C@@]([H])(C2=C([H])C([H])=C([H])C(Cl)=C2[H])C([H])([H])[N+]([H])([H])[H])C([H])=C1Br

$$$$
T82
     RDKit          3D

  0  0  0  0  0  0  0  0  0  0999 V3000
M  V30 BEGIN CTAB
M  V30 COUNTS 39 40 0 0 0
M  V30 BEGIN ATOM
M  V30 1 Br 15.402000 1.209000 19.910000 0
M  V30 2 Cl 8.025000 5.823000 12.884000 0
M  V30 3 O 9.268000 2.670000 17.145000 0
M  V30 4 O 17.182000 3.603000 20.291000 0
M  V30 5 N 6.807000 2.034000 18.866000 0 CFG=1 CHG=1
M  V30 6 N 11.152000 4.160000 18.413000 0
M  V30 7 N 9.827000 4.518000 18.347000 0
M  V30 8 C 6.580000 2.975000 17.738000 0 CFG=2
M  V30 9 C 6.319000 7.376000 16.126000 0
M  V30 10 C 11.976000 5.073000 18.756000 0
M  V30 11 C 6.752000 7.196000 14.824000 0
M  V30 12 C 6.564000 6.406000 17.084000 0
M  V30 13 C 15.580000 5.350000 19.776000 0
M  V30 14 C 14.293000 5.696000 19.410000 0
M  V30 15 C 13.679000 3.383000 19.332000 0
M  V30 16 C 7.673000 5.059000 15.448000 0
M  V30 17 C 14.966000 3.040000 19.700000 0
M  V30 18 C 7.431000 6.041000 14.507000 0
M  V30 19 C 8.947000 3.699000 17.747000 0
M  V30 20 C 15.939000 4.005000 19.931000 0
M  V30 21 C 13.325000 4.724000 19.189000 0
M  V30 22 C 7.236000 5.238000 16.756000 0
M  V30 23 C 7.502000 4.190000 17.827000 0 CFG=1
M  V30 24 H 5.961600 1.931900 19.390200 0
M  V30 25 H 7.085800 1.143500 18.506300 0
M  V30 26 H 11.455800 3.230700 18.202900 0
M  V30 27 H 9.519500 5.383100 18.743300 0
M  V30 28 H 5.629800 3.286000 17.760600 0
M  V30 29 H 6.754100 2.497600 16.876700 0
M  V30 30 H 5.827100 8.209900 16.376300 0
M  V30 31 H 11.695300 6.032400 18.727700 0
M  V30 32 H 6.575200 7.891100 14.127200 0
M  V30 33 H 6.252600 6.549600 18.023400 0
M  V30 34 H 16.260700 6.065900 19.931500 0
M  V30 35 H 14.054700 6.661200 19.302500 0
M  V30 36 H 12.999800 2.667600 19.167800 0
M  V30 37 H 8.159600 4.224300 15.190100 0
M  V30 38 H 7.367700 4.617600 18.720900 0
M  V30 39 H 7.526400 2.393500 19.460400 0
M  V30 END ATOM
M  V30 BEGIN BOND
M  V30 1 1 1 17
M  V30 2 1 2 18
M  V30 3 2 3 19
M  V30 4 2 4 20
M  V30 5 1 5 8
M  V30 6 1 6 7
M  V30 7 1 6 10
M  V30 8 1 7 19
M  V30 9 1 8 23
M  V30 10 2 9 11
M  V30 11 1 9 12
M  V30 12 2 10 21
M  V30 13 1 11 18
M  V30 14 2 12 22
M  V30 15 2 13 14
M  V30 16 1 13 20
M  V30 17 1 14 21
M  V30 18 2 15 17
M  V30 19 1 15 21
M  V30 20 2 16 18
M  V30 21 1 16 22
M  V30 22 1 17 20
M  V30 23 1 19 23
M  V30 24 1 22 23
M  V30 25 1 5 24 CFG=1
M  V30 26 1 5 25
M  V30 27 1 6 26
M  V30 28 1 7 27
M  V30 29 1 8 28 CFG=3
M  V30 30 1 8 29
M  V30 31 1 9 30
M  V30 32 1 10 31
M  V30 33 1 11 32
M  V30 34 1 12 33
M  V30 35 1 13 34
M  V30 36 1 14 35
M  V30 37 1 15 36
M  V30 38 1 16 37
M  V30 39 1 23 38 CFG=1
M  V30 40 1 5 39
M  V30 END BOND
M  V30 END CTAB
M  END
>  <Ligand_Instance>  (315) 
7BAR_T82_A_401

>  <Dataset>  (315) 
PDB

>  <PDB_ID>  (315) 
7BAR

>  <Chain>  (315) 
A

>  <Resi>  (315) 
401

>  <Num_Resolved_Atoms>  (315) 
23

>  <Num_H_Atoms_ProtBoundConf>  (315) 
16

>  <Pocket>  (315) 
A

>  <SMILES>  (315) 
c1cc(cc(c1)Cl)[C@@H](CN)C(=O)N/N=C/c2ccc(c(c2)Br)O

>  <Name>  (315) 
(S,E)-3-(2-(3-bromo-4-hydroxybenzylidene)hydrazineyl)-2-(3-chlorophenyl)-3-oxopropan-1-aminium

>  <Num_Heavy_Atoms>  (315) 
23

>  <Num_Not_Resolved_Atoms>  (315) 
0

>  <ATP_Site>  (315) 
True

>  <Peripheral>  (315) 
False

>  <Standardized_SMILES>  (315) 
[H]C1=C([H])C(Cl)=C([H])C([C@]([H])(C(=O)N([H])N([H])/C([H])=C2/C([H])=C([H])C(=O)C(Br)=C2[H])C([H])([H])[N+]([H])([H])[H])=C1[H]

$$$$
UNU
     RDKit          3D

  0  0  0  0  0  0  0  0  0  0999 V3000
M  V30 BEGIN CTAB
M  V30 COUNTS 16 16 0 0 0
M  V30 BEGIN ATOM
M  V30 1 O 16.741000 2.457000 20.276000 0
M  V30 2 N 16.393000 4.704000 20.258000 0
M  V30 3 C 12.003000 2.692000 18.673000 0
M  V30 4 C 12.413000 3.989000 18.923000 0
M  V30 5 C 12.891000 1.646000 18.849000 0
M  V30 6 C 13.711000 4.245000 19.328000 0
M  V30 7 C 14.188000 1.896000 19.276000 0
M  V30 8 C 16.005000 3.435000 20.035000 0
M  V30 9 C 14.611000 3.199000 19.516000 0
M  V30 10 H 15.772400 5.460300 20.051100 0
M  V30 11 H 17.302000 4.890800 20.630600 0
M  V30 12 H 11.068500 2.511100 18.366300 0
M  V30 13 H 11.768400 4.745200 18.810500 0
M  V30 14 H 12.597800 0.707200 18.668100 0
M  V30 15 H 14.004900 5.187600 19.486800 0
M  V30 16 H 14.822000 1.134700 19.411800 0
M  V30 END ATOM
M  V30 BEGIN BOND
M  V30 1 2 1 8
M  V30 2 1 2 8
M  V30 3 2 3 4
M  V30 4 1 3 5
M  V30 5 1 4 6
M  V30 6 2 5 7
M  V30 7 2 6 9
M  V30 8 1 7 9
M  V30 9 1 8 9
M  V30 10 1 2 10
M  V30 11 1 2 11
M  V30 12 1 3 12
M  V30 13 1 4 13
M  V30 14 1 5 14
M  V30 15 1 6 15
M  V30 16 1 7 16
M  V30 END BOND
M  V30 END CTAB
M  END
>  <Ligand_Instance>  (316) 
6SNX_UNU_A_401

>  <Dataset>  (316) 
PDB

>  <PDB_ID>  (316) 
6SNX

>  <Chain>  (316) 
A

>  <Resi>  (316) 
401

>  <Num_Resolved_Atoms>  (316) 
9

>  <Num_H_Atoms_ProtBoundConf>  (316) 
7

>  <Pocket>  (316) 
A

>  <SMILES>  (316) 
c1ccc(cc1)C(=O)N

>  <Name>  (316) 
BENZAMIDE

>  <Num_Heavy_Atoms>  (316) 
9

>  <Num_Not_Resolved_Atoms>  (316) 
0

>  <ATP_Site>  (316) 
True

>  <Peripheral>  (316) 
True

>  <Standardized_SMILES>  (316) 
[H]C1=C([H])C([H])=C(C(=O)N([H])[H])C([H])=C1[H]

$$$$
UNU
     RDKit          3D

  0  0  0  0  0  0  0  0  0  0999 V3000
M  V30 BEGIN CTAB
M  V30 COUNTS 16 16 0 0 0
M  V30 BEGIN ATOM
M  V30 1 O 19.447500 2.097800 1.618800 0
M  V30 2 N 21.167700 3.172400 2.627700 0
M  V30 3 C 17.987000 2.423000 6.436000 0
M  V30 4 C 19.356000 2.593000 6.374000 0
M  V30 5 C 17.265000 2.240000 5.272000 0
M  V30 6 C 20.004000 2.600000 5.150000 0
M  V30 7 C 17.907000 2.247000 4.045000 0
M  V30 8 C 19.988000 2.563000 2.648000 0
M  V30 9 C 19.284000 2.443000 3.971000 0
M  V30 10 H 21.561100 3.528600 3.475300 0
M  V30 11 H 21.662700 3.275000 1.764900 0
M  V30 12 H 17.519700 2.432300 7.320100 0
M  V30 13 H 19.881700 2.711500 7.216400 0
M  V30 14 H 16.275500 2.102000 5.315900 0
M  V30 15 H 20.996300 2.718800 5.114000 0
M  V30 16 H 17.378700 2.110500 3.207000 0
M  V30 END ATOM
M  V30 BEGIN BOND
M  V30 1 2 1 8
M  V30 2 1 2 8
M  V30 3 2 3 4
M  V30 4 1 3 5
M  V30 5 1 4 6
M  V30 6 2 5 7
M  V30 7 2 6 9
M  V30 8 1 7 9
M  V30 9 1 8 9
M  V30 10 1 2 10
M  V30 11 1 2 11
M  V30 12 1 3 12
M  V30 13 1 4 13
M  V30 14 1 5 14
M  V30 15 1 6 15
M  V30 16 1 7 16
M  V30 END BOND
M  V30 END CTAB
M  END
>  <Ligand_Instance>  (317) 
6SNX_UNU_A_402

>  <Dataset>  (317) 
PDB

>  <PDB_ID>  (317) 
6SNX

>  <Chain>  (317) 
A

>  <Resi>  (317) 
402

>  <Num_Resolved_Atoms>  (317) 
9

>  <Num_H_Atoms_ProtBoundConf>  (317) 
7

>  <Pocket>  (317) 
F

>  <SMILES>  (317) 
c1ccc(cc1)C(=O)N

>  <Name>  (317) 
BENZAMIDE

>  <Num_Heavy_Atoms>  (317) 
9

>  <Num_Not_Resolved_Atoms>  (317) 
0

>  <ATP_Site>  (317) 
True

>  <Peripheral>  (317) 
True

>  <Standardized_SMILES>  (317) 
[H]C1=C([H])C([H])=C(C(=O)N([H])[H])C([H])=C1[H]

$$$$
VUP
     RDKit          3D

  0  0  0  0  0  0  0  0  0  0999 V3000
M  V30 BEGIN CTAB
M  V30 COUNTS 30 32 0 0 0
M  V30 BEGIN ATOM
M  V30 1 O 31.640000 -10.370000 5.329000 0
M  V30 2 N 32.243000 -9.825000 1.981000 0
M  V30 3 N 32.526000 -10.229000 4.266000 0
M  V30 4 N 30.319000 -10.244000 4.911000 0
M  V30 5 N 26.226000 -10.194000 -0.657000 0
M  V30 6 N 29.415000 -10.082000 1.381000 0
M  V30 7 N 27.949000 -9.845000 3.087000 0
M  V30 8 C 27.023000 -10.892000 5.124000 0 CFG=1
M  V30 9 C 23.913000 -10.078000 0.047000 0 CFG=1
M  V30 10 C 27.390000 -9.614000 4.435000 0 CFG=2
M  V30 11 C 27.538000 -10.196000 -0.390000 0
M  V30 12 C 25.808000 -9.927000 1.694000 0
M  V30 13 C 31.773000 -10.034000 3.214000 0
M  V30 14 C 29.262000 -9.945000 2.685000 0
M  V30 15 C 25.373000 -10.067000 0.384000 0
M  V30 16 C 28.115000 -10.086000 0.876000 0
M  V30 17 C 30.393000 -10.039000 3.618000 0
M  V30 18 C 27.188000 -9.940000 1.915000 0
M  V30 19 H 31.608300 -9.682900 1.221400 0
M  V30 20 H 33.229500 -9.810700 1.817700 0
M  V30 21 H 26.650500 -10.687600 6.029200 0
M  V30 22 H 26.336300 -11.377200 4.582700 0
M  V30 23 H 27.837200 -11.464600 5.220100 0
M  V30 24 H 23.376700 -9.978400 0.885100 0
M  V30 25 H 23.708100 -9.319800 -0.572000 0
M  V30 26 H 23.679900 -10.943200 -0.397000 0
M  V30 27 H 26.570500 -9.047200 4.350600 0
M  V30 28 H 28.071400 -9.134600 4.988000 0
M  V30 29 H 28.160500 -10.284200 -1.167600 0
M  V30 30 H 25.160800 -9.821200 2.449000 0
M  V30 END ATOM
M  V30 BEGIN BOND
M  V30 1 1 1 3
M  V30 2 1 1 4
M  V30 3 1 2 13
M  V30 4 2 3 13
M  V30 5 2 4 17
M  V30 6 1 5 11
M  V30 7 2 5 15
M  V30 8 2 6 14
M  V30 9 1 6 16
M  V30 10 1 7 10
M  V30 11 1 7 14
M  V30 12 1 7 18
M  V30 13 1 8 10
M  V30 14 1 9 15
M  V30 15 2 11 16
M  V30 16 1 12 15
M  V30 17 2 12 18
M  V30 18 1 13 17
M  V30 19 1 14 17
M  V30 20 1 16 18
M  V30 21 1 2 19
M  V30 22 1 2 20
M  V30 23 1 8 21 CFG=1
M  V30 24 1 8 22
M  V30 25 1 8 23
M  V30 26 1 9 24 CFG=1
M  V30 27 1 9 25
M  V30 28 1 9 26
M  V30 29 1 10 27 CFG=3
M  V30 30 1 10 28
M  V30 31 1 11 29
M  V30 32 1 12 30
M  V30 END BOND
M  V30 END CTAB
M  END
>  <Ligand_Instance>  (318) 
4C38_VUP_A_1351

>  <Dataset>  (318) 
PDB

>  <PDB_ID>  (318) 
4C38

>  <Chain>  (318) 
A

>  <Resi>  (318) 
1351

>  <Num_Resolved_Atoms>  (318) 
18

>  <Num_H_Atoms_ProtBoundConf>  (318) 
12

>  <Pocket>  (318) 
A

>  <SMILES>  (318) 
CCn1c2cc(ncc2nc1c3c(non3)N)C

>  <Name>  (318) 
4-(1-ethyl-6-methyl-imidazo[4,5-c]pyridin-2-yl)-1,2,5-oxadiazol-3-amine

>  <Num_Heavy_Atoms>  (318) 
18

>  <Num_Not_Resolved_Atoms>  (318) 
0

>  <ATP_Site>  (318) 
True

>  <Peripheral>  (318) 
False

>  <Standardized_SMILES>  (318) 
[H]C1=C2N=C(C3=NON=C3N([H])[H])N(C([H])([H])C([H])([H])[H])C2=C([H])C(C([H])([H])[H])=N1

$$$$
VX6
     RDKit          3D

  0  0  0  0  0  0  0  0  0  0999 V3000
M  V30 BEGIN CTAB
M  V30 COUNTS 62 66 0 0 0
M  V30 BEGIN ATOM
M  V30 1 S -27.647000 -10.277000 -8.587000 0
M  V30 2 O -27.365000 -11.304000 -1.798000 0
M  V30 3 N -33.448000 -9.708000 -5.167000 0
M  V30 4 N -33.124000 -9.883000 -3.994000 0
M  V30 5 N -30.257000 -9.980000 -7.947000 0
M  V30 6 N -32.502000 -9.734000 -7.289000 0
M  V30 7 N -29.690000 -9.929000 -10.222000 0
M  V30 8 N -27.094000 -9.243000 -2.764000 0
M  V30 9 N -31.751000 -8.481000 -14.485000 0 CFG=1 CHG=1
M  V30 10 N -31.282000 -9.631000 -11.961000 0
M  V30 11 C -31.818000 -7.373000 -15.442000 0 CFG=1
M  V30 12 C -31.084000 -10.397000 -2.618000 0 CFG=1
M  V30 13 C -30.341000 -8.625000 -14.049000 0 CFG=2
M  V30 14 C -32.681000 -8.169000 -13.373000 0 CFG=2
M  V30 15 C -30.198000 -9.738000 -13.002000 0 CFG=2
M  V30 16 C -32.687000 -9.355000 -12.402000 0 CFG=2
M  V30 17 C -27.455000 -8.680000 -6.342000 0
M  V30 18 C -27.385000 -11.057000 -5.961000 0
M  V30 19 C -27.336000 -8.444000 -4.964000 0
M  V30 20 C -27.250000 -10.822000 -4.588000 0
M  V30 21 C -27.811000 -9.928000 0.748000 0 CFG=2
M  V30 22 C -26.310000 -10.276000 0.706000 0 CFG=2
M  V30 23 C -31.939000 -9.690000 -9.580000 0
M  V30 24 C -31.316000 -10.134000 -5.175000 0
M  V30 25 C -29.341000 -10.038000 -8.929000 0
M  V30 26 C -27.142000 -10.087000 -1.735000 0
M  V30 27 C -32.390000 -9.865000 -5.952000 0
M  V30 28 C -31.557000 -9.807000 -8.236000 0
M  V30 29 C -27.498000 -9.983000 -6.840000 0
M  V30 30 C -30.969000 -9.757000 -10.585000 0
M  V30 31 C -31.823000 -10.142000 -3.940000 0
M  V30 32 C -27.235000 -9.517000 -4.076000 0
M  V30 33 C -26.920000 -9.406000 -0.399000 0 CFG=1
M  V30 34 H -33.427400 -9.556000 -7.623500 0
M  V30 35 H -26.932700 -8.283300 -2.533800 0
M  V30 36 H -32.761800 -7.256200 -15.751200 0
M  V30 37 H -31.505300 -6.531900 -15.000600 0
M  V30 38 H -31.232600 -7.574900 -16.227200 0
M  V30 39 H -30.117000 -10.570500 -2.804800 0
M  V30 40 H -31.170700 -9.594600 -2.027500 0
M  V30 41 H -31.483100 -11.191900 -2.161000 0
M  V30 42 H -30.032100 -7.760900 -13.651600 0
M  V30 43 H -29.774800 -8.848200 -14.842500 0
M  V30 44 H -33.602200 -8.022900 -13.733700 0
M  V30 45 H -32.374600 -7.344400 -12.897400 0
M  V30 46 H -30.265100 -10.626500 -13.455900 0
M  V30 47 H -29.306100 -9.657600 -12.556900 0
M  V30 48 H -33.250900 -9.134100 -11.606300 0
M  V30 49 H -33.059200 -10.162000 -12.860600 0
M  V30 50 H -27.509600 -7.906700 -6.973700 0
M  V30 51 H -27.400300 -11.994000 -6.310000 0
M  V30 52 H -27.323500 -7.506100 -4.617300 0
M  V30 53 H -27.162900 -11.597200 -3.962300 0
M  V30 54 H -28.159400 -9.295200 1.439500 0
M  V30 55 H -28.494600 -10.635600 0.569100 0
M  V30 56 H -26.019700 -11.211000 0.502300 0
M  V30 57 H -25.684600 -9.870600 1.372700 0
M  V30 58 H -32.901200 -9.559200 -9.818900 0
M  V30 59 H -30.369500 -10.289500 -5.457700 0
M  V30 60 H -26.691200 -8.432500 -0.404900 0
M  V30 61 H -32.045300 -9.324200 -14.934900 0
M  V30 62 H -33.740500 -9.837600 -3.208000 0
M  V30 END ATOM
M  V30 BEGIN BOND
M  V30 1 1 1 25
M  V30 2 1 1 29
M  V30 3 2 2 26
M  V30 4 1 3 4
M  V30 5 2 3 27
M  V30 6 1 4 31
M  V30 7 2 5 25
M  V30 8 1 5 28
M  V30 9 1 6 27
M  V30 10 1 6 28
M  V30 11 1 7 25
M  V30 12 2 7 30
M  V30 13 1 8 26
M  V30 14 1 8 32
M  V30 15 1 9 11
M  V30 16 1 9 13
M  V30 17 1 9 14
M  V30 18 1 10 15
M  V30 19 1 10 16
M  V30 20 1 10 30
M  V30 21 1 12 31
M  V30 22 1 13 15
M  V30 23 1 14 16
M  V30 24 1 17 19
M  V30 25 2 17 29
M  V30 26 2 18 20
M  V30 27 1 18 29
M  V30 28 2 19 32
M  V30 29 1 20 32
M  V30 30 1 21 22
M  V30 31 1 21 33
M  V30 32 1 22 33
M  V30 33 2 23 28
M  V30 34 1 23 30
M  V30 35 1 24 27
M  V30 36 2 24 31
M  V30 37 1 26 33
M  V30 38 1 9 61 CFG=3
M  V30 39 1 6 34
M  V30 40 1 8 35
M  V30 41 1 11 36 CFG=3
M  V30 42 1 11 37
M  V30 43 1 11 38
M  V30 44 1 12 39 CFG=3
M  V30 45 1 12 40
M  V30 46 1 12 41
M  V30 47 1 13 42 CFG=1
M  V30 48 1 13 43
M  V30 49 1 14 44 CFG=3
M  V30 50 1 14 45
M  V30 51 1 15 46 CFG=3
M  V30 52 1 15 47
M  V30 53 1 16 48 CFG=1
M  V30 54 1 16 49
M  V30 55 1 17 50
M  V30 56 1 18 51
M  V30 57 1 19 52
M  V30 58 1 20 53
M  V30 59 1 21 54 CFG=1
M  V30 60 1 21 55
M  V30 61 1 22 56 CFG=3
M  V30 62 1 22 57
M  V30 63 1 23 58
M  V30 64 1 24 59
M  V30 65 1 33 60 CFG=3
M  V30 66 1 4 62
M  V30 END BOND
M  V30 END CTAB
M  END
>  <Ligand_Instance>  (319) 
3AMB_VX6_A_351

>  <Dataset>  (319) 
PDB

>  <PDB_ID>  (319) 
3AMB

>  <Chain>  (319) 
A

>  <Resi>  (319) 
351

>  <Num_Resolved_Atoms>  (319) 
33

>  <Num_H_Atoms_ProtBoundConf>  (319) 
29

>  <Pocket>  (319) 
A

>  <SMILES>  (319) 
Cc1cc([nH]n1)Nc2cc(nc(n2)Sc3ccc(cc3)NC(=O)C4CC4)N5CCN(CC5)C

>  <Name>  (319) 
CYCLOPROPANECARBOXYLIC ACID {4-[4-(4-METHYL-PIPERAZIN-1-YL)-6-(5-METHYL-2H-PYRAZOL-3-YLAMINO)-PYRIMIDIN-2-YLSULFANYL]-PHENYL}-AMIDE

>  <Num_Heavy_Atoms>  (319) 
33

>  <Num_Not_Resolved_Atoms>  (319) 
0

>  <ATP_Site>  (319) 
True

>  <Peripheral>  (319) 
False

>  <Standardized_SMILES>  (319) 
[H]C1=C([H])C(N([H])C(=O)C2([H])C([H])([H])C2([H])[H])=C([H])C([H])=C1SC1=NC(N([H])C2=NN([H])C(C([H])([H])[H])=C2[H])=C([H])C(N2C([H])([H])C([H])([H])[N+]([H])(C([H])([H])[H])C([H])([H])C2([H])[H])=N1

$$$$
XFE
     RDKit          3D

  0  0  0  0  0  0  0  0  0  0999 V3000
M  V30 BEGIN CTAB
M  V30 COUNTS 32 34 0 0 0
M  V30 BEGIN ATOM
M  V30 1 N 14.700000 14.825000 14.782000 0 CFG=1 CHG=1
M  V30 2 N 21.486000 17.568000 15.441000 0
M  V30 3 N 20.199000 15.592000 15.689000 0
M  V30 4 N 20.657000 19.051000 13.662000 0
M  V30 5 N 18.276000 14.927000 14.463000 0
M  V30 6 C 17.739000 17.515000 12.142000 0 CFG=1
M  V30 7 C 21.247000 16.389000 16.030000 0
M  V30 8 C 19.632000 19.033000 12.763000 0
M  V30 9 C 18.166000 13.818000 15.441000 0 CFG=2
M  V30 10 C 16.963000 15.325000 13.921000 0 CFG=2
M  V30 11 C 16.672000 13.541000 15.542000 0 CFG=2
M  V30 12 C 20.643000 17.938000 14.429000 0
M  V30 13 C 19.308000 15.882000 14.710000 0
M  V30 14 C 15.982000 14.238000 14.373000 0 CFG=1
M  V30 15 C 18.936000 17.885000 12.964000 0
M  V30 16 C 19.544000 17.107000 14.042000 0
M  V30 17 H 13.962900 14.173100 14.603800 0
M  V30 18 H 14.727500 15.038300 15.758600 0
M  V30 19 H 21.328200 19.787800 13.743000 0
M  V30 20 H 17.379300 16.635700 12.454000 0
M  V30 21 H 17.035000 18.218000 12.243100 0
M  V30 22 H 18.003900 17.444400 11.180300 0
M  V30 23 H 21.866400 16.081200 16.752300 0
M  V30 24 H 19.430100 19.736100 12.081100 0
M  V30 25 H 18.534900 14.092600 16.329000 0
M  V30 26 H 18.653600 13.008800 15.113300 0
M  V30 27 H 16.997100 15.370800 12.922600 0
M  V30 28 H 16.690100 16.215000 14.286400 0
M  V30 29 H 16.318500 13.898300 16.406500 0
M  V30 30 H 16.505800 12.556000 15.495600 0
M  V30 31 H 15.833700 13.585600 13.629800 0
M  V30 32 H 14.536400 15.663500 14.262200 0
M  V30 END ATOM
M  V30 BEGIN BOND
M  V30 1 1 1 14
M  V30 2 2 2 7
M  V30 3 1 2 12
M  V30 4 1 3 7
M  V30 5 2 3 13
M  V30 6 1 4 8
M  V30 7 1 4 12
M  V30 8 1 5 9
M  V30 9 1 5 10
M  V30 10 1 5 13
M  V30 11 1 6 15
M  V30 12 2 8 15
M  V30 13 1 9 11
M  V30 14 1 10 14
M  V30 15 1 11 14
M  V30 16 2 12 16
M  V30 17 1 13 16
M  V30 18 1 15 16
M  V30 19 1 1 17 CFG=1
M  V30 20 1 1 18
M  V30 21 1 4 19
M  V30 22 1 6 20 CFG=1
M  V30 23 1 6 21
M  V30 24 1 6 22
M  V30 25 1 7 23
M  V30 26 1 8 24
M  V30 27 1 9 25 CFG=1
M  V30 28 1 9 26
M  V30 29 1 10 27 CFG=3
M  V30 30 1 10 28
M  V30 31 1 11 29 CFG=1
M  V30 32 1 11 30
M  V30 33 1 14 31 CFG=3
M  V30 34 1 1 32
M  V30 END BOND
M  V30 END CTAB
M  END
>  <Ligand_Instance>  (320) 
3MVJ_XFE_A_351

>  <Dataset>  (320) 
PDB

>  <PDB_ID>  (320) 
3MVJ

>  <Chain>  (320) 
A

>  <Resi>  (320) 
351

>  <Num_Resolved_Atoms>  (320) 
16

>  <Num_H_Atoms_ProtBoundConf>  (320) 
16

>  <Pocket>  (320) 
A

>  <SMILES>  (320) 
Cc1c[nH]c2c1c(ncn2)[N@]3CC[C@H](C3)N

>  <Name>  (320) 
(3R)-1-(5-methyl-7H-pyrrolo[2,3-d]pyrimidin-4-yl)pyrrolidin-3-amine

>  <Num_Heavy_Atoms>  (320) 
16

>  <Num_Not_Resolved_Atoms>  (320) 
0

>  <ATP_Site>  (320) 
True

>  <Peripheral>  (320) 
False

>  <Standardized_SMILES>  (320) 
[H]C1=NC2=C(C(N3C([H])([H])C([H])([H])[C@@]([H])([N+]([H])([H])[H])C3([H])[H])=N1)C(C([H])([H])[H])=C([H])N2[H]

$$$$
XFE
     RDKit          3D

  0  0  0  0  0  0  0  0  0  0999 V3000
M  V30 BEGIN CTAB
M  V30 COUNTS 32 34 0 0 0
M  V30 BEGIN ATOM
M  V30 1 N -2.621000 -14.787000 19.815000 0 CFG=1 CHG=1
M  V30 2 N -1.714000 -17.601000 13.288000 0
M  V30 3 N -1.637000 -16.055000 15.033000 0
M  V30 4 N -2.885000 -19.736000 13.816000 0
M  V30 5 N -2.644000 -16.394000 17.176000 0
M  V30 6 C -4.057000 -19.495000 17.266000 0 CFG=1
M  V30 7 C -1.348000 -16.412000 13.779000 0
M  V30 8 C -3.527000 -20.271000 14.894000 0
M  V30 9 C -3.932000 -16.750000 17.816000 0 CFG=2
M  V30 10 C -2.312000 -14.978000 17.412000 0 CFG=2
M  V30 11 C -4.476000 -15.454000 18.447000 0 CFG=2
M  V30 12 C -2.404000 -18.483000 14.065000 0
M  V30 13 C -2.343000 -16.858000 15.871000 0
M  V30 14 C -3.256000 -14.552000 18.535000 0 CFG=1
M  V30 15 C -3.470000 -19.310000 15.880000 0
M  V30 16 C -2.739000 -18.118000 15.379000 0
M  V30 17 H -2.953800 -14.118400 20.480000 0
M  V30 18 H -2.840700 -15.709800 20.131700 0
M  V30 19 H -2.778600 -20.208700 12.941200 0
M  V30 20 H -3.897100 -18.670300 17.808500 0
M  V30 21 H -5.040500 -19.659900 17.192200 0
M  V30 22 H -3.620400 -20.276800 17.711300 0
M  V30 23 H -0.846200 -15.775400 13.193400 0
M  V30 24 H -3.951500 -21.174300 14.956000 0
M  V30 25 H -3.787700 -17.444100 18.521200 0
M  V30 26 H -4.573600 -17.097800 17.132300 0
M  V30 27 H -2.473000 -14.434200 16.588300 0
M  V30 28 H -1.357800 -14.880100 17.694900 0
M  V30 29 H -4.853600 -15.631700 19.355700 0
M  V30 30 H -5.180600 -15.044400 17.867500 0
M  V30 31 H -3.515500 -13.591200 18.437100 0
M  V30 32 H -1.630000 -14.695200 19.717300 0
M  V30 END ATOM
M  V30 BEGIN BOND
M  V30 1 1 1 14
M  V30 2 2 2 7
M  V30 3 1 2 12
M  V30 4 1 3 7
M  V30 5 2 3 13
M  V30 6 1 4 8
M  V30 7 1 4 12
M  V30 8 1 5 9
M  V30 9 1 5 10
M  V30 10 1 5 13
M  V30 11 1 6 15
M  V30 12 2 8 15
M  V30 13 1 9 11
M  V30 14 1 10 14
M  V30 15 1 11 14
M  V30 16 2 12 16
M  V30 17 1 13 16
M  V30 18 1 15 16
M  V30 19 1 1 17 CFG=1
M  V30 20 1 1 18
M  V30 21 1 4 19
M  V30 22 1 6 20 CFG=1
M  V30 23 1 6 21
M  V30 24 1 6 22
M  V30 25 1 7 23
M  V30 26 1 8 24
M  V30 27 1 9 25 CFG=1
M  V30 28 1 9 26
M  V30 29 1 10 27 CFG=3
M  V30 30 1 10 28
M  V30 31 1 11 29 CFG=1
M  V30 32 1 11 30
M  V30 33 1 14 31 CFG=3
M  V30 34 1 1 32
M  V30 END BOND
M  V30 END CTAB
M  END
>  <Ligand_Instance>  (321) 
3MVJ_XFE_E_351

>  <Dataset>  (321) 
PDB

>  <PDB_ID>  (321) 
3MVJ

>  <Chain>  (321) 
E

>  <Resi>  (321) 
351

>  <Num_Resolved_Atoms>  (321) 
16

>  <Num_H_Atoms_ProtBoundConf>  (321) 
16

>  <Pocket>  (321) 
A

>  <SMILES>  (321) 
Cc1c[nH]c2c1c(ncn2)[N@]3CC[C@H](C3)N

>  <Name>  (321) 
(3R)-1-(5-methyl-7H-pyrrolo[2,3-d]pyrimidin-4-yl)pyrrolidin-3-amine

>  <Num_Heavy_Atoms>  (321) 
16

>  <Num_Not_Resolved_Atoms>  (321) 
0

>  <ATP_Site>  (321) 
True

>  <Peripheral>  (321) 
False

>  <Standardized_SMILES>  (321) 
[H]C1=NC2=C(C(N3C([H])([H])C([H])([H])[C@@]([H])([N+]([H])([H])[H])C3([H])[H])=N1)C(C([H])([H])[H])=C([H])N2[H]

$$$$
Y27
     RDKit          3D

  0  0  0  0  0  0  0  0  0  0999 V3000
M  V30 BEGIN CTAB
M  V30 COUNTS 40 41 0 0 0
M  V30 BEGIN ATOM
M  V30 1 O 7.517000 10.060000 41.926000 0
M  V30 2 N 13.750000 7.117000 40.903000 0 CFG=1 CHG=1
M  V30 3 N 3.063000 10.264000 44.544000 0
M  V30 4 N 7.219000 9.813000 44.252000 0
M  V30 5 C 13.964000 7.406000 43.356000 0 CFG=1
M  V30 6 C 3.820000 10.131000 45.667000 0
M  V30 7 C 3.564000 10.262000 43.294000 0
M  V30 8 C 5.198000 9.989000 45.584000 0
M  V30 9 C 4.934000 10.135000 43.107000 0
M  V30 10 C 9.604000 7.999000 42.554000 0 CFG=2
M  V30 11 C 10.462000 10.370000 42.907000 0 CFG=2
M  V30 12 C 11.061000 7.485000 42.613000 0 CFG=2
M  V30 13 C 11.902000 9.772000 43.077000 0 CFG=2
M  V30 14 C 7.988000 9.781000 43.066000 0
M  V30 15 C 13.523000 8.065000 42.041000 0 CFG=2
M  V30 16 C 5.777000 9.974000 44.275000 0
M  V30 17 C 9.402000 9.323000 43.305000 0 CFG=1
M  V30 18 C 12.044000 8.572000 42.127000 0 CFG=1
M  V30 19 H 13.462200 7.547900 40.047700 0
M  V30 20 H 14.721700 6.886700 40.849800 0
M  V30 21 H 7.696500 9.719300 45.125600 0
M  V30 22 H 13.811700 8.040100 44.114100 0
M  V30 23 H 13.431700 6.572900 43.506300 0
M  V30 24 H 14.935800 7.175800 43.304000 0
M  V30 25 H 3.377500 10.135600 46.563800 0
M  V30 26 H 2.954100 10.351300 42.506600 0
M  V30 27 H 5.762900 9.900800 46.404400 0
M  V30 28 H 5.329500 10.154200 42.188700 0
M  V30 29 H 9.006000 7.308100 42.960300 0
M  V30 30 H 9.353000 8.135100 41.595600 0
M  V30 31 H 10.324100 10.633600 41.952300 0
M  V30 32 H 10.367300 11.175300 43.492200 0
M  V30 33 H 11.148400 6.678500 42.028300 0
M  V30 34 H 11.284200 7.238700 43.556200 0
M  V30 35 H 12.033900 9.472200 44.021900 0
M  V30 36 H 12.585000 10.465900 42.849000 0
M  V30 37 H 14.107700 8.862300 41.891500 0
M  V30 38 H 9.503900 9.139700 44.282800 0
M  V30 39 H 11.760500 8.862600 41.213100 0
M  V30 40 H 13.217600 6.283700 41.052000 0
M  V30 END ATOM
M  V30 BEGIN BOND
M  V30 1 2 1 14
M  V30 2 1 2 15
M  V30 3 2 3 6
M  V30 4 1 3 7
M  V30 5 1 4 14
M  V30 6 1 4 16
M  V30 7 1 5 15
M  V30 8 1 6 8
M  V30 9 2 7 9
M  V30 10 2 8 16
M  V30 11 1 9 16
M  V30 12 1 10 12
M  V30 13 1 10 17
M  V30 14 1 11 13
M  V30 15 1 11 17
M  V30 16 1 12 18
M  V30 17 1 13 18
M  V30 18 1 14 17
M  V30 19 1 15 18
M  V30 20 1 2 19 CFG=3
M  V30 21 1 2 20
M  V30 22 1 4 21
M  V30 23 1 5 22 CFG=1
M  V30 24 1 5 23
M  V30 25 1 5 24
M  V30 26 1 6 25
M  V30 27 1 7 26
M  V30 28 1 8 27
M  V30 29 1 9 28
M  V30 30 1 10 29 CFG=1
M  V30 31 1 10 30
M  V30 32 1 11 31 CFG=3
M  V30 33 1 11 32
M  V30 34 1 12 33 CFG=3
M  V30 35 1 12 34
M  V30 36 1 13 35 CFG=1
M  V30 37 1 13 36
M  V30 38 1 15 37 CFG=3
M  V30 39 1 17 38 CFG=1
M  V30 40 1 18 39 CFG=3
M  V30 41 1 2 40
M  V30 END BOND
M  V30 END CTAB
M  END
>  <Ligand_Instance>  (322) 
2GNF_Y27_A_501

>  <Dataset>  (322) 
PDB

>  <PDB_ID>  (322) 
2GNF

>  <Chain>  (322) 
A

>  <Resi>  (322) 
501

>  <Num_Resolved_Atoms>  (322) 
18

>  <Num_H_Atoms_ProtBoundConf>  (322) 
22

>  <Pocket>  (322) 
A

>  <SMILES>  (322) 
C[C@H](C1CCC(CC1)C(=O)Nc2ccncc2)N

>  <Name>  (322) 
(R)-TRANS-4-(1-AMINOETHYL)-N-(4-PYRIDYL) CYCLOHEXANECARBOXAMIDE

>  <Num_Heavy_Atoms>  (322) 
18

>  <Num_Not_Resolved_Atoms>  (322) 
0

>  <ATP_Site>  (322) 
True

>  <Peripheral>  (322) 
False

>  <Standardized_SMILES>  (322) 
[H]C1=NC([H])=C([H])C(N([H])C(=O)[C@]2([H])C([H])([H])C([H])([H])[C@@]([H])([C@@]([H])(C([H])([H])[H])[N+]([H])([H])[H])C([H])([H])C2([H])[H])=C1[H]

$$$$
Y27
     RDKit          3D

  0  0  0  0  0  0  0  0  0  0999 V3000
M  V30 BEGIN CTAB
M  V30 COUNTS 40 41 0 0 0
M  V30 BEGIN ATOM
M  V30 1 O 7.352000 9.887000 1.479000 0
M  V30 2 N 13.538000 6.838000 0.663000 0 CFG=1 CHG=1
M  V30 3 N 2.748000 10.007000 4.189000 0
M  V30 4 N 6.921000 9.460000 3.729000 0
M  V30 5 C 13.636000 6.961000 3.160000 0 CFG=1
M  V30 6 C 3.536000 9.828000 5.229000 0
M  V30 7 C 3.251000 10.048000 2.955000 0
M  V30 8 C 4.907000 9.646000 5.069000 0
M  V30 9 C 4.600000 9.922000 2.703000 0
M  V30 10 C 9.337000 7.630000 1.905000 0 CFG=2
M  V30 11 C 10.186000 9.978000 2.487000 0 CFG=2
M  V30 12 C 10.773000 7.106000 2.093000 0 CFG=2
M  V30 13 C 11.584000 9.398000 2.821000 0 CFG=2
M  V30 14 C 7.739000 9.466000 2.567000 0
M  V30 15 C 13.270000 7.704000 1.866000 0 CFG=2
M  V30 16 C 5.469000 9.684000 3.793000 0
M  V30 17 C 9.118000 8.901000 2.755000 0 CFG=1
M  V30 18 C 11.809000 8.224000 1.851000 0 CFG=1
M  V30 19 H 13.294200 7.337500 -0.168300 0
M  V30 20 H 14.508200 6.597500 0.634900 0
M  V30 21 H 7.383300 9.284300 4.598200 0
M  V30 22 H 13.451700 7.550500 3.946400 0
M  V30 23 H 13.087900 6.127700 3.232300 0
M  V30 24 H 14.606700 6.721100 3.143500 0
M  V30 25 H 3.143200 9.822700 6.148600 0
M  V30 26 H 2.626700 10.174800 2.184200 0
M  V30 27 H 5.487900 9.488300 5.867600 0
M  V30 28 H 4.955900 9.997100 1.771500 0
M  V30 29 H 8.688000 6.925200 2.191300 0
M  V30 30 H 9.188400 7.847900 0.940400 0
M  V30 31 H 10.156200 10.247300 1.524400 0
M  V30 32 H 10.008400 10.776500 3.062200 0
M  V30 33 H 10.937000 6.362900 1.444200 0
M  V30 34 H 10.875600 6.762300 3.026400 0
M  V30 35 H 11.607500 9.074700 3.767000 0
M  V30 36 H 12.288500 10.095500 2.689500 0
M  V30 37 H 13.870700 8.500700 1.799600 0
M  V30 38 H 9.200700 8.633700 3.715100 0
M  V30 39 H 11.640000 8.576600 0.930600 0
M  V30 40 H 12.989500 6.004100 0.723700 0
M  V30 END ATOM
M  V30 BEGIN BOND
M  V30 1 2 1 14
M  V30 2 1 2 15
M  V30 3 2 3 6
M  V30 4 1 3 7
M  V30 5 1 4 14
M  V30 6 1 4 16
M  V30 7 1 5 15
M  V30 8 1 6 8
M  V30 9 2 7 9
M  V30 10 2 8 16
M  V30 11 1 9 16
M  V30 12 1 10 12
M  V30 13 1 10 17
M  V30 14 1 11 13
M  V30 15 1 11 17
M  V30 16 1 12 18
M  V30 17 1 13 18
M  V30 18 1 14 17
M  V30 19 1 15 18
M  V30 20 1 2 19 CFG=3
M  V30 21 1 2 20
M  V30 22 1 4 21
M  V30 23 1 5 22 CFG=1
M  V30 24 1 5 23
M  V30 25 1 5 24
M  V30 26 1 6 25
M  V30 27 1 7 26
M  V30 28 1 8 27
M  V30 29 1 9 28
M  V30 30 1 10 29 CFG=1
M  V30 31 1 10 30
M  V30 32 1 11 31 CFG=3
M  V30 33 1 11 32
M  V30 34 1 12 33 CFG=3
M  V30 35 1 12 34
M  V30 36 1 13 35 CFG=1
M  V30 37 1 13 36
M  V30 38 1 15 37 CFG=3
M  V30 39 1 17 38 CFG=1
M  V30 40 1 18 39 CFG=3
M  V30 41 1 2 40
M  V30 END BOND
M  V30 END CTAB
M  END
>  <Ligand_Instance>  (323) 
2GNJ_Y27_A_501

>  <Dataset>  (323) 
PDB

>  <PDB_ID>  (323) 
2GNJ

>  <Chain>  (323) 
A

>  <Resi>  (323) 
501

>  <Num_Resolved_Atoms>  (323) 
18

>  <Num_H_Atoms_ProtBoundConf>  (323) 
22

>  <Pocket>  (323) 
A

>  <SMILES>  (323) 
C[C@H](C1CCC(CC1)C(=O)Nc2ccncc2)N

>  <Name>  (323) 
(R)-TRANS-4-(1-AMINOETHYL)-N-(4-PYRIDYL) CYCLOHEXANECARBOXAMIDE

>  <Num_Heavy_Atoms>  (323) 
18

>  <Num_Not_Resolved_Atoms>  (323) 
0

>  <ATP_Site>  (323) 
True

>  <Peripheral>  (323) 
False

>  <Standardized_SMILES>  (323) 
[H]C1=NC([H])=C([H])C(N([H])C(=O)[C@]2([H])C([H])([H])C([H])([H])[C@@]([H])([C@@]([H])(C([H])([H])[H])[N+]([H])([H])[H])C([H])([H])C2([H])[H])=C1[H]

$$$$
YTP
     RDKit          3D

  0  0  0  0  0  0  0  0  0  0999 V3000
M  V30 BEGIN CTAB
M  V30 COUNTS 21 21 0 0 0
M  V30 BEGIN ATOM
M  V30 1 O 28.167000 9.916000 -0.110000 0
M  V30 2 O 33.718000 10.226000 -3.314000 0
M  V30 3 C 27.237000 9.964000 -2.273000 0 CFG=1
M  V30 4 C 31.591000 10.400000 -5.187000 0 CFG=1
M  V30 5 C 32.202000 10.040000 -1.426000 0
M  V30 6 C 30.894000 9.994000 -0.924000 0
M  V30 7 C 30.036000 10.224000 -3.189000 0
M  V30 8 C 28.389000 9.984000 -1.304000 0
M  V30 9 C 32.422000 10.174000 -2.797000 0
M  V30 10 C 31.341000 10.262000 -3.682000 0
M  V30 11 C 29.812000 10.085000 -1.813000 0
M  V30 12 H 34.504400 10.167000 -2.699100 0
M  V30 13 H 27.586600 10.027200 -3.207800 0
M  V30 14 H 26.725600 9.111500 -2.165300 0
M  V30 15 H 26.633700 10.740100 -2.089600 0
M  V30 16 H 32.575600 10.410400 -5.361800 0
M  V30 17 H 31.175500 9.626800 -5.666200 0
M  V30 18 H 31.185100 11.252800 -5.515500 0
M  V30 19 H 32.979200 9.976600 -0.799900 0
M  V30 20 H 30.733500 9.897300 0.058300 0
M  V30 21 H 29.261400 10.295900 -3.817300 0
M  V30 END ATOM
M  V30 BEGIN BOND
M  V30 1 2 1 8
M  V30 2 1 2 9
M  V30 3 1 3 8
M  V30 4 1 4 10
M  V30 5 1 5 6
M  V30 6 2 5 9
M  V30 7 2 6 11
M  V30 8 2 7 10
M  V30 9 1 7 11
M  V30 10 1 8 11
M  V30 11 1 9 10
M  V30 12 1 2 12
M  V30 13 1 3 13 CFG=3
M  V30 14 1 3 14
M  V30 15 1 3 15
M  V30 16 1 4 16 CFG=1
M  V30 17 1 4 17
M  V30 18 1 4 18
M  V30 19 1 5 19
M  V30 20 1 6 20
M  V30 21 1 7 21
M  V30 END BOND
M  V30 END CTAB
M  END
>  <Ligand_Instance>  (324) 
3OOG_YTP_A_2001

>  <Dataset>  (324) 
PDB

>  <PDB_ID>  (324) 
3OOG

>  <Chain>  (324) 
A

>  <Resi>  (324) 
2001

>  <Num_Resolved_Atoms>  (324) 
11

>  <Num_H_Atoms_ProtBoundConf>  (324) 
10

>  <Pocket>  (324) 
A

>  <SMILES>  (324) 
Cc1cc(ccc1O)C(=O)C

>  <Name>  (324) 
1-(4-hydroxy-3-methylphenyl)ethanone

>  <Num_Heavy_Atoms>  (324) 
11

>  <Num_Not_Resolved_Atoms>  (324) 
0

>  <ATP_Site>  (324) 
True

>  <Peripheral>  (324) 
False

>  <Standardized_SMILES>  (324) 
[H]OC1=C([H])C([H])=C(C(=O)C([H])([H])[H])C([H])=C1C([H])([H])[H]

$$$$
Z21
     RDKit          3D

  0  0  0  0  0  0  0  0  0  0999 V3000
M  V30 BEGIN CTAB
M  V30 COUNTS 27 29 0 0 0
M  V30 BEGIN ATOM
M  V30 1 Br 24.065000 -9.628000 -0.046000 0
M  V30 2 O 32.049000 -10.342000 5.379000 0
M  V30 3 N 32.669000 -9.778000 2.052000 0
M  V30 4 N 32.927000 -10.156000 4.337000 0
M  V30 5 N 30.714000 -10.264000 4.953000 0
M  V30 6 N 26.717000 -9.927000 -0.623000 0
M  V30 7 N 29.814000 -10.006000 1.448000 0
M  V30 8 N 28.363000 -9.686000 3.155000 0
M  V30 9 C 27.351000 -10.732000 5.144000 0 CFG=1
M  V30 10 C 28.029000 -10.035000 -0.385000 0
M  V30 11 C 27.803000 -9.449000 4.499000 0 CFG=2
M  V30 12 C 26.234000 -9.606000 1.781000 0
M  V30 13 C 25.897000 -9.729000 0.443000 0
M  V30 14 C 32.179000 -9.977000 3.282000 0
M  V30 15 C 29.667000 -9.876000 2.753000 0
M  V30 16 C 28.518000 -9.935000 0.949000 0
M  V30 17 C 30.789000 -10.037000 3.662000 0
M  V30 18 C 27.604000 -9.729000 1.992000 0
M  V30 19 H 32.046100 -9.646600 1.280800 0
M  V30 20 H 33.657900 -9.760800 1.904500 0
M  V30 21 H 26.977900 -10.535800 6.050800 0
M  V30 22 H 26.645300 -11.158900 4.578400 0
M  V30 23 H 28.129500 -11.353600 5.231200 0
M  V30 24 H 28.664900 -10.185600 -1.141900 0
M  V30 25 H 27.020200 -8.831700 4.420400 0
M  V30 26 H 28.504300 -9.026500 5.073100 0
M  V30 27 H 25.569400 -9.447100 2.511100 0
M  V30 END ATOM
M  V30 BEGIN BOND
M  V30 1 1 1 13
M  V30 2 1 2 4
M  V30 3 1 2 5
M  V30 4 1 3 14
M  V30 5 2 4 14
M  V30 6 2 5 17
M  V30 7 1 6 10
M  V30 8 2 6 13
M  V30 9 2 7 15
M  V30 10 1 7 16
M  V30 11 1 8 11
M  V30 12 1 8 15
M  V30 13 1 8 18
M  V30 14 1 9 11
M  V30 15 2 10 16
M  V30 16 1 12 13
M  V30 17 2 12 18
M  V30 18 1 14 17
M  V30 19 1 15 17
M  V30 20 1 16 18
M  V30 21 1 3 19
M  V30 22 1 3 20
M  V30 23 1 9 21 CFG=1
M  V30 24 1 9 22
M  V30 25 1 9 23
M  V30 26 1 10 24
M  V30 27 1 11 25 CFG=3
M  V30 28 1 11 26
M  V30 29 1 12 27
M  V30 END BOND
M  V30 END CTAB
M  END
>  <Ligand_Instance>  (325) 
4C37_Z21_A_1351

>  <Dataset>  (325) 
PDB

>  <PDB_ID>  (325) 
4C37

>  <Chain>  (325) 
A

>  <Resi>  (325) 
1351

>  <Num_Resolved_Atoms>  (325) 
18

>  <Num_H_Atoms_ProtBoundConf>  (325) 
9

>  <Pocket>  (325) 
A

>  <SMILES>  (325) 
CCn1c2cc(ncc2nc1c3c(non3)N)Br

>  <Name>  (325) 
4-(6-bromo-1-ethyl-1H-imidazo[4,5-c]pyridin-2-yl)-1,2,5-oxadiazol-3-amine

>  <Num_Heavy_Atoms>  (325) 
18

>  <Num_Not_Resolved_Atoms>  (325) 
0

>  <ATP_Site>  (325) 
True

>  <Peripheral>  (325) 
False

>  <Standardized_SMILES>  (325) 
[H]C1=C2N=C(C3=NON=C3N([H])[H])N(C([H])([H])C([H])([H])[H])C2=C([H])C(Br)=N1

$$$$
ZO9
     RDKit          3D

  0  0  0  0  0  0  0  0  0  0999 V3000
M  V30 BEGIN CTAB
M  V30 COUNTS 32 35 0 0 0
M  V30 BEGIN ATOM
M  V30 1 O -32.165000 -10.223000 -5.468000 0
M  V30 2 N -32.636000 -9.745000 -2.073000 0
M  V30 3 N -33.013000 -10.092000 -4.356000 0
M  V30 4 N -30.829000 -10.120000 -5.100000 0
M  V30 5 N -29.806000 -10.039000 -1.613000 0
M  V30 6 N -28.375000 -9.509000 -3.279000 0
M  V30 7 C -27.891000 -9.066000 -4.601000 0 CFG=2
M  V30 8 C -26.709000 -9.901000 0.473000 0
M  V30 9 C -25.817000 -9.578000 -0.547000 0
M  V30 10 C -28.059000 -10.083000 0.207000 0
M  V30 11 C -26.257000 -9.431000 -1.860000 0
M  V30 12 C -26.144000 -10.830000 -5.329000 0 CFG=2
M  V30 13 C -26.499000 -10.061000 -6.558000 0 CFG=2
M  V30 14 C -32.219000 -9.931000 -3.330000 0
M  V30 15 C -29.678000 -9.763000 -2.899000 0
M  V30 16 C -28.513000 -9.946000 -1.105000 0
M  V30 17 C -30.847000 -9.916000 -3.795000 0
M  V30 18 C -27.612000 -9.623000 -2.118000 0
M  V30 19 C -27.512000 -10.245000 -5.472000 0 CFG=2
M  V30 20 H -31.969100 -9.628700 -1.337000 0
M  V30 21 H -33.614700 -9.722200 -1.869100 0
M  V30 22 H -27.088500 -8.482700 -4.475300 0
M  V30 23 H -28.614000 -8.545000 -5.054700 0
M  V30 24 H -26.372300 -10.003100 1.409100 0
M  V30 25 H -24.848400 -9.450100 -0.333700 0
M  V30 26 H -28.696100 -10.308700 0.944000 0
M  V30 27 H -25.620300 -9.195100 -2.594200 0
M  V30 28 H -25.502400 -10.444200 -4.666100 0
M  V30 29 H -26.016400 -11.820600 -5.378800 0
M  V30 30 H -26.609700 -10.536500 -7.430700 0
M  V30 31 H -26.095600 -9.160100 -6.718000 0
M  V30 32 H -28.245700 -10.896000 -5.666800 0
M  V30 END ATOM
M  V30 BEGIN BOND
M  V30 1 1 1 3
M  V30 2 1 1 4
M  V30 3 1 2 14
M  V30 4 2 3 14
M  V30 5 2 4 17
M  V30 6 2 5 15
M  V30 7 1 5 16
M  V30 8 1 6 7
M  V30 9 1 6 15
M  V30 10 1 6 18
M  V30 11 1 7 19
M  V30 12 2 8 9
M  V30 13 1 8 10
M  V30 14 1 9 11
M  V30 15 2 10 16
M  V30 16 2 11 18
M  V30 17 1 12 13
M  V30 18 1 12 19
M  V30 19 1 13 19
M  V30 20 1 14 17
M  V30 21 1 15 17
M  V30 22 1 16 18
M  V30 23 1 2 20
M  V30 24 1 2 21
M  V30 25 1 7 22 CFG=1
M  V30 26 1 7 23
M  V30 27 1 8 24
M  V30 28 1 9 25
M  V30 29 1 10 26
M  V30 30 1 11 27
M  V30 31 1 12 28 CFG=1
M  V30 32 1 12 29
M  V30 33 1 13 30 CFG=3
M  V30 34 1 13 31
M  V30 35 1 19 32 CFG=3
M  V30 END BOND
M  V30 END CTAB
M  END
>  <Ligand_Instance>  (326) 
4C36_ZO9_A_1351

>  <Dataset>  (326) 
PDB

>  <PDB_ID>  (326) 
4C36

>  <Chain>  (326) 
A

>  <Resi>  (326) 
1351

>  <Num_Resolved_Atoms>  (326) 
19

>  <Num_H_Atoms_ProtBoundConf>  (326) 
13

>  <Pocket>  (326) 
A

>  <SMILES>  (326) 
c1ccc2c(c1)nc(n2CC3CC3)c4c(non4)N

>  <Name>  (326) 
4-[1-(cyclopropylmethyl)-1H-benzimidazol-2-yl]-1,2,5-oxadiazol-3-amine

>  <Num_Heavy_Atoms>  (326) 
19

>  <Num_Not_Resolved_Atoms>  (326) 
0

>  <ATP_Site>  (326) 
True

>  <Peripheral>  (326) 
False

>  <Standardized_SMILES>  (326) 
[H]C1=C([H])C([H])=C2C(=C1[H])N=C(C1=NON=C1N([H])[H])N2C([H])([H])C1([H])C([H])([H])C1([H])[H]

$$$$
ZWG
     RDKit          3D

  0  0  0  0  0  0  0  0  0  0999 V3000
M  V30 BEGIN CTAB
M  V30 COUNTS 47 49 0 0 0
M  V30 BEGIN ATOM
M  V30 1 O -12.377000 11.029000 -4.157000 0
M  V30 2 N -14.794000 10.265000 -3.575000 0 CFG=1 CHG=1
M  V30 3 N -2.812000 9.872000 -2.537000 0
M  V30 4 N -3.230000 9.847000 -4.966000 0
M  V30 5 N -11.335000 9.855000 -2.439000 0
M  V30 6 C -14.410000 11.949000 0.881000 0 CFG=1
M  V30 7 C -12.216000 12.382000 -0.288000 0 CFG=1
M  V30 8 C -3.564000 9.947000 -1.450000 0
M  V30 9 C -4.178000 9.888000 -5.877000 0
M  V30 10 C -4.895000 10.036000 -1.809000 0
M  V30 11 C -5.543000 9.987000 -5.520000 0
M  V30 12 C -8.982000 9.247000 -2.255000 0
M  V30 13 C -9.604000 10.707000 -4.055000 0
M  V30 14 C -7.662000 9.313000 -2.694000 0
M  V30 15 C -8.276000 10.775000 -4.480000 0
M  V30 16 C -14.121000 11.725000 -1.712000 0 CFG=2
M  V30 17 C -12.468000 10.482000 -3.113000 0
M  V30 18 C -3.569000 9.913000 -3.644000 0
M  V30 19 C -13.856000 10.416000 -2.489000 0 CFG=2
M  V30 20 C -13.526000 11.593000 -0.316000 0 CFG=2
M  V30 21 C -9.970000 9.922000 -2.949000 0
M  V30 22 C -7.288000 10.095000 -3.787000 0
M  V30 23 C -4.885000 10.009000 -3.231000 0
M  V30 24 C -5.935000 10.063000 -4.187000 0
M  V30 25 H -14.420600 10.690100 -4.399500 0
M  V30 26 H -14.953900 9.292500 -3.744500 0
M  V30 27 H -1.815000 9.795200 -2.533500 0
M  V30 28 H -11.502400 9.356500 -1.588400 0
M  V30 29 H -15.257800 11.420400 0.838200 0
M  V30 30 H -13.925500 11.733900 1.728900 0
M  V30 31 H -14.624500 12.925500 0.858200 0
M  V30 32 H -11.658600 12.130800 -1.079300 0
M  V30 33 H -12.416000 13.361300 -0.318500 0
M  V30 34 H -11.716900 12.169700 0.552200 0
M  V30 35 H -3.220400 9.940200 -0.510900 0
M  V30 36 H -3.927800 9.848300 -6.844400 0
M  V30 37 H -5.688400 10.104200 -1.204100 0
M  V30 38 H -6.238700 10.002700 -6.238200 0
M  V30 39 H -9.214600 8.713900 -1.441500 0
M  V30 40 H -10.305200 11.224800 -4.545200 0
M  V30 41 H -6.962600 8.785000 -2.212200 0
M  V30 42 H -8.037400 11.315900 -5.286600 0
M  V30 43 H -15.106200 11.882700 -1.644400 0
M  V30 44 H -13.692600 12.492300 -2.189300 0
M  V30 45 H -13.917400 9.632000 -1.871200 0
M  V30 46 H -13.277300 10.630700 -0.205900 0
M  V30 47 H -15.657500 10.707700 -3.333600 0
M  V30 END ATOM
M  V30 BEGIN BOND
M  V30 1 2 1 17
M  V30 2 1 2 19
M  V30 3 1 3 8
M  V30 4 1 3 18
M  V30 5 2 4 9
M  V30 6 1 4 18
M  V30 7 1 5 17
M  V30 8 1 5 21
M  V30 9 1 6 20
M  V30 10 1 7 20
M  V30 11 2 8 10
M  V30 12 1 9 11
M  V30 13 1 10 23
M  V30 14 2 11 24
M  V30 15 1 12 14
M  V30 16 2 12 21
M  V30 17 2 13 15
M  V30 18 1 13 21
M  V30 19 2 14 22
M  V30 20 1 15 22
M  V30 21 1 16 19
M  V30 22 1 16 20
M  V30 23 1 17 19
M  V30 24 2 18 23
M  V30 25 1 22 24
M  V30 26 1 23 24
M  V30 27 1 2 25 CFG=3
M  V30 28 1 2 26
M  V30 29 1 3 27
M  V30 30 1 5 28
M  V30 31 1 6 29 CFG=3
M  V30 32 1 6 30
M  V30 33 1 6 31
M  V30 34 1 7 32 CFG=3
M  V30 35 1 7 33
M  V30 36 1 7 34
M  V30 37 1 8 35
M  V30 38 1 9 36
M  V30 39 1 10 37
M  V30 40 1 11 38
M  V30 41 1 12 39
M  V30 42 1 13 40
M  V30 43 1 14 41
M  V30 44 1 15 42
M  V30 45 1 16 43 CFG=1
M  V30 46 1 16 44
M  V30 47 1 19 45 CFG=1
M  V30 48 1 20 46 CFG=1
M  V30 49 1 2 47
M  V30 END BOND
M  V30 END CTAB
M  END
>  <Ligand_Instance>  (327) 
8SF8_ZWG_A_401

>  <Dataset>  (327) 
PDB

>  <PDB_ID>  (327) 
8SF8

>  <Chain>  (327) 
A

>  <Resi>  (327) 
401

>  <Num_Resolved_Atoms>  (327) 
24

>  <Num_H_Atoms_ProtBoundConf>  (327) 
23

>  <Pocket>  (327) 
A

>  <SMILES>  (327) 
CC(C)C[C@H](C(=O)Nc1ccc(cc1)c2ccnc3c2cc[nH]3)N

>  <Name>  (327) 
N-[4-(1H-pyrrolo[2,3-b]pyridin-4-yl)phenyl]-D-leucinamide

>  <Num_Heavy_Atoms>  (327) 
24

>  <Num_Not_Resolved_Atoms>  (327) 
0

>  <ATP_Site>  (327) 
True

>  <Peripheral>  (327) 
False

>  <Standardized_SMILES>  (327) 
[H]C1=NC2=C(C([H])=C([H])N2[H])C(C2=C([H])C([H])=C(N([H])C(=O)[C@@]([H])(C([H])([H])C([H])(C([H])([H])[H])C([H])([H])[H])[N+]([H])([H])[H])C([H])=C2[H])=C1[H]

$$$$
