F001
     RDKit          3D

  0  0  0  0  0  0  0  0  0  0999 V3000
M  V30 BEGIN CTAB
M  V30 COUNTS 31 33 0 0 0
M  V30 BEGIN ATOM
M  V30 1 O -1.767766 -3.689541 2.575064 0
M  V30 2 C -0.912286 -2.667259 2.233943 0 CFG=2
M  V30 3 C 0.402497 -3.280032 1.785420 0
M  V30 4 C 1.397443 -2.328135 2.460270 0 CFG=1
M  V30 5 C 1.311170 -0.997573 1.790359 0
M  V30 6 N 0.931760 -0.770095 0.505617 0
M  V30 7 C 0.980706 0.569408 0.266991 0
M  V30 8 C 0.619224 1.095179 -1.048356 0
M  V30 9 C -0.728844 1.462711 -1.107395 0
M  V30 10 C -1.260492 1.988727 -2.289809 0
M  V30 11 C -0.441715 2.139104 -3.390374 0
M  V30 12 F -0.921377 2.649543 -4.566219 0
M  V30 13 C 0.891235 1.771470 -3.319150 0
M  V30 14 C 1.438115 1.245636 -2.149253 0
M  V30 15 N 1.397060 1.137488 1.435269 0
M  V30 16 O 1.582811 0.188632 2.311649 0
M  V30 17 N 0.798597 -2.278993 3.802727 0 CHG=1 VAL=4
M  V30 18 C -0.554946 -1.844757 3.458376 0
M  V30 19 H -2.651958 -3.534300 2.177224 0
M  V30 20 H -1.362076 -2.042742 1.462252 0
M  V30 21 H 0.545443 -4.304006 2.141345 0
M  V30 22 H 0.526314 -3.143676 0.690192 0
M  V30 23 H 2.402860 -2.743335 2.447895 0
M  V30 24 H -1.437873 1.378428 -0.294039 0
M  V30 25 H -2.312086 2.286455 -2.369418 0
M  V30 26 H 1.584435 1.863497 -4.143591 0
M  V30 27 H 2.444993 0.933247 -1.989954 0
M  V30 28 H 1.265618 -1.595245 4.417029 0
M  V30 29 H 0.756449 -3.245444 4.141222 0
M  V30 30 H -1.284301 -2.006995 4.258611 0
M  V30 31 H -0.486373 -0.761709 3.221567 0
M  V30 END ATOM
M  V30 BEGIN BOND
M  V30 1 1 1 2
M  V30 2 1 2 3
M  V30 3 1 3 4
M  V30 4 1 4 5
M  V30 5 2 5 6
M  V30 6 1 6 7
M  V30 7 1 7 8
M  V30 8 2 8 9
M  V30 9 1 9 10
M  V30 10 2 10 11
M  V30 11 1 11 12
M  V30 12 1 11 13
M  V30 13 2 13 14
M  V30 14 2 7 15
M  V30 15 1 15 16
M  V30 16 1 4 17
M  V30 17 1 17 18
M  V30 18 1 18 2
M  V30 19 1 16 5
M  V30 20 1 14 8
M  V30 21 1 1 19
M  V30 22 1 2 20 CFG=3
M  V30 23 1 3 21
M  V30 24 1 3 22
M  V30 25 1 4 23 CFG=1
M  V30 26 1 9 24
M  V30 27 1 10 25
M  V30 28 1 13 26
M  V30 29 1 14 27
M  V30 30 1 17 28
M  V30 31 1 17 29
M  V30 32 1 18 30
M  V30 33 1 18 31
M  V30 END BOND
M  V30 END CTAB
M  END
>  <Dataset>  (1) 
CF

>  <Ligand_Instance>  (1) 
001_B_2

>  <PDB_ID>  (1) 
nan

>  <Standardized_SMILES>  (1) 
[H]O[C@]1([H])C([H])([H])[C@@]([H])(C2=NC(C3=C([H])C([H])=C(F)C([H])=C3[H])=NO2)[N+]([H])([H])C1([H])[H]

>  <Name>  (1) 
(3R,5S)‐5‐[3‐(4‐fluorophenyl)‐1,2,4‐oxadiazol‐5‐yl]pyrrolidin‐3‐ol

>  <Pocket>  (1) 
X

>  <ATP_Site>  (1) 
1.0

>  <Peripheral>  (1) 
1.0

>  <Num_H_Atoms_ProtBoundConf>  (1) 
13.0

>  <Num_Resolved_Atoms>  (1) 
18.0

>  <Num_Not_Resolved_Atoms>  (1) 
0.0

>  <2D_Mol_H>  (1) 
<rdkit.Chem.rdchem.Mol object at 0x72a2caad2110>

>  <MW>  (1) 
250.253

>  <HBA>  (1) 
4

>  <HBD>  (1) 
2

>  <LogP>  (1) 
0.2448

>  <NRB>  (1) 
3

>  <TPSA>  (1) 
75.76

>  <Num_Heavy_Atoms>  (1) 
18

>  <Ro5>  (1) 
[True, True, True, True, True, True]

>  <Ro5_Fulfilled>  (1) 
True

>  <Ro3>  (1) 
[True, False, True, True]

>  <Ro3_Fulfilled>  (1) 
True

>  <Fsp3>  (1) 
0.333333

>  <Fsp3_0.42>  (1) 
False

>  <Fsp3_0.45>  (1) 
False

>  <Stereogenic_Carbons>  (1) 
2

>  <C_Atoms>  (1) 
12

>  <FCStereo>  (1) 
0.166667

>  <SPS>  (1) 
422

>  <nSPS>  (1) 
23.444444

>  <PBF>  (1) 
0.851736

>  <PBF_0.6>  (1) 
True

>  <nPBF>  (1) 
0.047319

>  <nPBF_0.016>  (1) 
True

>  <PMI1>  (1) 
512.827466

>  <PMI2>  (1) 
2672.79127

>  <PMI3>  (1) 
2916.441733

>  <NPR1>  (1) 
0.17584

>  <NPR2>  (1) 
0.916456

>  <Sum_NPR>  (1) 
1.092296

>  <Sum_NPR_1.07>  (1) 
True

>  <Sum_NPR_1.2>  (1) 
False

>  <MaxAbsEStateIndex>  (1) 
12.799287

>  <MaxEStateIndex>  (1) 
12.799287

>  <MinAbsEStateIndex>  (1) 
0.015461

>  <MinEStateIndex>  (1) 
-0.32299

>  <qed>  (1) 
0.800487

>  <MolWt>  (1) 
250.253

>  <HeavyAtomMolWt>  (1) 
237.149

>  <ExactMolWt>  (1) 
250.098631

>  <NumValenceElectrons>  (1) 
94

>  <NumRadicalElectrons>  (1) 
0

>  <MaxPartialCharge>  (1) 
0.284787

>  <MinPartialCharge>  (1) 
-0.386989

>  <MaxAbsPartialCharge>  (1) 
0.386989

>  <MinAbsPartialCharge>  (1) 
0.284787

>  <FpDensityMorgan1>  (1) 
1.333333

>  <FpDensityMorgan2>  (1) 
2.111111

>  <FpDensityMorgan3>  (1) 
2.777778

>  <BCUT2D_MWHI>  (1) 
19.142142

>  <BCUT2D_MWLOW>  (1) 
10.169405

>  <BCUT2D_CHGHI>  (1) 
2.318699

>  <BCUT2D_CHGLO>  (1) 
-1.975495

>  <BCUT2D_LOGPHI>  (1) 
2.205953

>  <BCUT2D_LOGPLOW>  (1) 
-2.822694

>  <BCUT2D_MRHI>  (1) 
5.532103

>  <BCUT2D_MRLOW>  (1) 
-0.680379

>  <AvgIpc>  (1) 
2.982762

>  <BalabanJ>  (1) 
1.827384

>  <BertzCT>  (1) 
540.510481

>  <Chi0>  (1) 
12.535169

>  <Chi0n>  (1) 
9.583519

>  <Chi0v>  (1) 
9.583519

>  <Chi1>  (1) 
8.720347

>  <Chi1n>  (1) 
5.831069

>  <Chi1v>  (1) 
5.831069

>  <Chi2n>  (1) 
4.430538

>  <Chi2v>  (1) 
4.430538

>  <Chi3n>  (1) 
3.080041

>  <Chi3v>  (1) 
3.080041

>  <Chi4n>  (1) 
2.110578

>  <Chi4v>  (1) 
2.110578

>  <HallKierAlpha>  (1) 
-1.79

>  <Ipc>  (1) 
25520.514803

>  <Kappa1>  (1) 
11.308931

>  <Kappa2>  (1) 
4.47078

>  <Kappa3>  (1) 
2.118818

>  <LabuteASA>  (1) 
102.637048

>  <PEOE_VSA1>  (1) 
14.946411

>  <PEOE_VSA10>  (1) 
18.465944

>  <PEOE_VSA11>  (1) 
6.041841

>  <PEOE_VSA12>  (1) 
5.824404

>  <PEOE_VSA13>  (1) 
5.890724

>  <PEOE_VSA14>  (1) 
0.0

>  <PEOE_VSA2>  (1) 
0.0

>  <PEOE_VSA3>  (1) 
4.390415

>  <PEOE_VSA4>  (1) 
4.983979

>  <PEOE_VSA5>  (1) 
0.0

>  <PEOE_VSA6>  (1) 
5.156663

>  <PEOE_VSA7>  (1) 
24.265468

>  <PEOE_VSA8>  (1) 
11.984273

>  <PEOE_VSA9>  (1) 
0.0

>  <SMR_VSA1>  (1) 
19.336826

>  <SMR_VSA10>  (1) 
0.0

>  <SMR_VSA2>  (1) 
0.0

>  <SMR_VSA3>  (1) 
10.140642

>  <SMR_VSA4>  (1) 
0.0

>  <SMR_VSA5>  (1) 
18.566629

>  <SMR_VSA6>  (1) 
6.544756

>  <SMR_VSA7>  (1) 
35.973413

>  <SMR_VSA8>  (1) 
0.0

>  <SMR_VSA9>  (1) 
11.387856

>  <SlogP_VSA1>  (1) 
5.316789

>  <SlogP_VSA10>  (1) 
4.390415

>  <SlogP_VSA11>  (1) 
0.0

>  <SlogP_VSA12>  (1) 
0.0

>  <SlogP_VSA2>  (1) 
27.895892

>  <SlogP_VSA3>  (1) 
0.0

>  <SlogP_VSA4>  (1) 
5.817221

>  <SlogP_VSA5>  (1) 
18.353386

>  <SlogP_VSA6>  (1) 
28.788563

>  <SlogP_VSA7>  (1) 
0.0

>  <SlogP_VSA8>  (1) 
11.387856

>  <SlogP_VSA9>  (1) 
0.0

>  <EState_VSA1>  (1) 
0.0

>  <EState_VSA10>  (1) 
9.496942

>  <EState_VSA11>  (1) 
0.0

>  <EState_VSA2>  (1) 
17.963028

>  <EState_VSA3>  (1) 
30.244158

>  <EState_VSA4>  (1) 
0.0

>  <EState_VSA5>  (1) 
12.132734

>  <EState_VSA6>  (1) 
12.132734

>  <EState_VSA7>  (1) 
5.316789

>  <EState_VSA8>  (1) 
10.140642

>  <EState_VSA9>  (1) 
4.523095

>  <VSA_EState1>  (1) 
17.983612

>  <VSA_EState10>  (1) 
0.0

>  <VSA_EState2>  (1) 
4.284024

>  <VSA_EState3>  (1) 
15.306824

>  <VSA_EState4>  (1) 
0.712912

>  <VSA_EState5>  (1) 
0.653131

>  <VSA_EState6>  (1) 
5.947983

>  <VSA_EState7>  (1) 
0.293133

>  <VSA_EState8>  (1) 
0.651715

>  <VSA_EState9>  (1) 
0.0

>  <FractionCSP3>  (1) 
0.333333

>  <HeavyAtomCount>  (1) 
18

>  <NHOHCount>  (1) 
3

>  <NOCount>  (1) 
5

>  <NumAliphaticCarbocycles>  (1) 
0

>  <NumAliphaticHeterocycles>  (1) 
1

>  <NumAliphaticRings>  (1) 
1

>  <NumAromaticCarbocycles>  (1) 
1

>  <NumAromaticHeterocycles>  (1) 
1

>  <NAR>  (1) 
2

>  <NumHAcceptors>  (1) 
4

>  <NumHDonors>  (1) 
2

>  <NumHeteroatoms>  (1) 
6

>  <NumRotatableBonds>  (1) 
2

>  <NumSaturatedCarbocycles>  (1) 
0

>  <NumSaturatedHeterocycles>  (1) 
1

>  <NumSaturatedRings>  (1) 
1

>  <RingCount>  (1) 
3

>  <MolLogP>  (1) 
0.2448

>  <MolMR>  (1) 
59.8492

>  <fr_Al_COO>  (1) 
0

>  <fr_Al_OH>  (1) 
1

>  <fr_Al_OH_noTert>  (1) 
1

>  <fr_ArN>  (1) 
0

>  <fr_Ar_COO>  (1) 
0

>  <fr_Ar_N>  (1) 
2

>  <fr_Ar_NH>  (1) 
0

>  <fr_Ar_OH>  (1) 
0

>  <fr_COO>  (1) 
0

>  <fr_COO2>  (1) 
0

>  <fr_C_O>  (1) 
0

>  <fr_C_O_noCOO>  (1) 
0

>  <fr_C_S>  (1) 
0

>  <fr_HOCCN>  (1) 
0

>  <fr_Imine>  (1) 
0

>  <fr_NH0>  (1) 
2

>  <fr_NH1>  (1) 
0

>  <fr_NH2>  (1) 
1

>  <fr_N_O>  (1) 
0

>  <fr_Ndealkylation1>  (1) 
0

>  <fr_Ndealkylation2>  (1) 
0

>  <fr_Nhpyrrole>  (1) 
0

>  <fr_SH>  (1) 
0

>  <fr_aldehyde>  (1) 
0

>  <fr_alkyl_carbamate>  (1) 
0

>  <fr_alkyl_halide>  (1) 
0

>  <fr_allylic_oxid>  (1) 
0

>  <fr_amide>  (1) 
0

>  <fr_amidine>  (1) 
0

>  <fr_aniline>  (1) 
0

>  <fr_aryl_methyl>  (1) 
0

>  <fr_azide>  (1) 
0

>  <fr_azo>  (1) 
0

>  <fr_barbitur>  (1) 
0

>  <fr_benzene>  (1) 
1

>  <fr_benzodiazepine>  (1) 
0

>  <fr_bicyclic>  (1) 
0

>  <fr_diazo>  (1) 
0

>  <fr_dihydropyridine>  (1) 
0

>  <fr_epoxide>  (1) 
0

>  <fr_ester>  (1) 
0

>  <fr_ether>  (1) 
0

>  <fr_furan>  (1) 
0

>  <fr_guanido>  (1) 
0

>  <fr_halogen>  (1) 
1

>  <fr_hdrzine>  (1) 
0

>  <fr_hdrzone>  (1) 
0

>  <fr_imidazole>  (1) 
0

>  <fr_imide>  (1) 
0

>  <fr_isocyan>  (1) 
0

>  <fr_isothiocyan>  (1) 
0

>  <fr_ketone>  (1) 
0

>  <fr_ketone_Topliss>  (1) 
0

>  <fr_lactam>  (1) 
0

>  <fr_lactone>  (1) 
0

>  <fr_methoxy>  (1) 
0

>  <fr_morpholine>  (1) 
0

>  <fr_nitrile>  (1) 
0

>  <fr_nitro>  (1) 
0

>  <fr_nitro_arom>  (1) 
0

>  <fr_nitro_arom_nonortho>  (1) 
0

>  <fr_nitroso>  (1) 
0

>  <fr_oxazole>  (1) 
0

>  <fr_oxime>  (1) 
0

>  <fr_para_hydroxylation>  (1) 
0

>  <fr_phenol>  (1) 
0

>  <fr_phenol_noOrthoHbond>  (1) 
0

>  <fr_phos_acid>  (1) 
0

>  <fr_phos_ester>  (1) 
0

>  <fr_piperdine>  (1) 
0

>  <fr_piperzine>  (1) 
0

>  <fr_priamide>  (1) 
0

>  <fr_prisulfonamd>  (1) 
0

>  <fr_pyridine>  (1) 
0

>  <fr_quatN>  (1) 
1

>  <fr_sulfide>  (1) 
0

>  <fr_sulfonamd>  (1) 
0

>  <fr_sulfone>  (1) 
0

>  <fr_term_acetylene>  (1) 
0

>  <fr_tetrazole>  (1) 
0

>  <fr_thiazole>  (1) 
0

>  <fr_thiocyan>  (1) 
0

>  <fr_thiophene>  (1) 
0

>  <fr_unbrch_alkane>  (1) 
0

>  <fr_urea>  (1) 
0

>  <NP-Likeness>  (1) 
-1.393853

$$$$
F005
     RDKit          3D

  0  0  0  0  0  0  0  0  0  0999 V3000
M  V30 BEGIN CTAB
M  V30 COUNTS 29 31 0 0 0
M  V30 BEGIN ATOM
M  V30 1 O -1.045371 -1.256996 5.196868 0
M  V30 2 C -0.512317 -0.464471 4.159836 0 CFG=2
M  V30 3 C -1.058989 -0.984992 2.871049 0
M  V30 4 C -0.024540 -2.012450 2.422995 0 CFG=1
M  V30 5 C -0.031722 -2.096116 0.938454 0
M  V30 6 N 0.329391 -1.017968 0.215328 0
M  V30 7 C 0.257490 -1.293269 -1.100383 0
M  V30 8 C 0.596288 -0.295901 -2.120416 0
M  V30 9 N 1.810905 -0.242204 -2.736930 0
M  V30 10 C 2.065811 0.703115 -3.672674 0
M  V30 11 C 1.074351 1.621480 -4.000090 0
M  V30 12 N -0.126118 1.550411 -3.375217 0
M  V30 13 C -0.388964 0.615093 -2.444377 0
M  V30 14 N -0.158415 -2.571575 -1.148084 0
M  V30 15 O -0.322848 -3.026063 0.058509 0
M  V30 16 N 1.210477 -1.363582 2.803892 0 CHG=1 VAL=4
M  V30 17 C 0.959910 -0.686005 4.050423 0
M  V30 18 H -2.037867 -1.246910 5.143777 0
M  V30 19 H -0.750748 0.601632 4.347420 0
M  V30 20 H -2.039770 -1.442328 3.003258 0
M  V30 21 H -1.058549 -0.162464 2.128495 0
M  V30 22 H -0.179751 -2.989388 2.898588 0
M  V30 23 H 3.018790 0.762112 -4.170941 0
M  V30 24 H 1.287440 2.381243 -4.756001 0
M  V30 25 H -1.363609 0.639536 -2.007950 0
M  V30 26 H 1.396513 -0.624233 2.090353 0
M  V30 27 H 1.938516 -2.098970 2.864555 0
M  V30 28 H 1.345243 -1.328472 4.874873 0
M  V30 29 H 1.531347 0.277336 4.113085 0
M  V30 END ATOM
M  V30 BEGIN BOND
M  V30 1 1 1 2
M  V30 2 1 2 3
M  V30 3 1 3 4
M  V30 4 1 4 5
M  V30 5 2 5 6
M  V30 6 1 6 7
M  V30 7 1 7 8
M  V30 8 2 8 9
M  V30 9 1 9 10
M  V30 10 2 10 11
M  V30 11 1 11 12
M  V30 12 2 12 13
M  V30 13 2 7 14
M  V30 14 1 14 15
M  V30 15 1 4 16
M  V30 16 1 16 17
M  V30 17 1 17 2
M  V30 18 1 15 5
M  V30 19 1 13 8
M  V30 20 1 1 18
M  V30 21 1 2 19 CFG=1
M  V30 22 1 3 20
M  V30 23 1 3 21
M  V30 24 1 4 22 CFG=1
M  V30 25 1 10 23
M  V30 26 1 11 24
M  V30 27 1 13 25
M  V30 28 1 16 26
M  V30 29 1 16 27
M  V30 30 1 17 28
M  V30 31 1 17 29
M  V30 END BOND
M  V30 END CTAB
M  END
>  <Dataset>  (2) 
CF

>  <Ligand_Instance>  (2) 
005_D_3

>  <PDB_ID>  (2) 
nan

>  <Standardized_SMILES>  (2) 
[H]O[C@]1([H])C([H])([H])[C@@]([H])(C2=NC(C3=NC([H])=C([H])N=C3[H])=NO2)[N+]([H])([H])C1([H])[H]

>  <Name>  (2) 
(3R,5S)‐5‐[3‐(pyrazin‐2‐yl)‐1,2,4‐oxadiazol‐5‐yl]pyrrolidin‐3‐ol

>  <Pocket>  (2) 
A

>  <ATP_Site>  (2) 
1.0

>  <Peripheral>  (2) 
1.0

>  <Num_H_Atoms_ProtBoundConf>  (2) 
12.0

>  <Num_Resolved_Atoms>  (2) 
17.0

>  <Num_Not_Resolved_Atoms>  (2) 
0.0

>  <2D_Mol_H>  (2) 
<rdkit.Chem.rdchem.Mol object at 0x72a2caad2260>

>  <MW>  (2) 
234.239

>  <HBA>  (2) 
6

>  <HBD>  (2) 
2

>  <LogP>  (2) 
-1.1043

>  <NRB>  (2) 
3

>  <TPSA>  (2) 
101.54

>  <Num_Heavy_Atoms>  (2) 
17

>  <Ro5>  (2) 
[True, True, True, True, True, True]

>  <Ro5_Fulfilled>  (2) 
True

>  <Ro3>  (2) 
[True, False, True, True]

>  <Ro3_Fulfilled>  (2) 
True

>  <Fsp3>  (2) 
0.4

>  <Fsp3_0.42>  (2) 
False

>  <Fsp3_0.45>  (2) 
False

>  <Stereogenic_Carbons>  (2) 
2

>  <C_Atoms>  (2) 
10

>  <FCStereo>  (2) 
0.2

>  <SPS>  (2) 
409

>  <nSPS>  (2) 
24.058824

>  <PBF>  (2) 
0.950225

>  <PBF_0.6>  (2) 
True

>  <nPBF>  (2) 
0.055896

>  <nPBF_0.016>  (2) 
True

>  <PMI1>  (2) 
442.865537

>  <PMI2>  (2) 
2380.194413

>  <PMI3>  (2) 
2513.394668

>  <NPR1>  (2) 
0.176202

>  <NPR2>  (2) 
0.947004

>  <Sum_NPR>  (2) 
1.123206

>  <Sum_NPR_1.07>  (2) 
True

>  <Sum_NPR_1.2>  (2) 
False

>  <MaxAbsEStateIndex>  (2) 
9.44129

>  <MaxEStateIndex>  (2) 
9.44129

>  <MinAbsEStateIndex>  (2) 
0.044372

>  <MinEStateIndex>  (2) 
-0.299197

>  <qed>  (2) 
0.683271

>  <MolWt>  (2) 
234.239

>  <HeavyAtomMolWt>  (2) 
222.143

>  <ExactMolWt>  (2) 
234.098551

>  <NumValenceElectrons>  (2) 
88

>  <NumRadicalElectrons>  (2) 
0

>  <MaxPartialCharge>  (2) 
0.284836

>  <MinPartialCharge>  (2) 
-0.386989

>  <MaxAbsPartialCharge>  (2) 
0.386989

>  <MinAbsPartialCharge>  (2) 
0.284836

>  <FpDensityMorgan1>  (2) 
1.411765

>  <FpDensityMorgan2>  (2) 
2.352941

>  <FpDensityMorgan3>  (2) 
3.058824

>  <BCUT2D_MWHI>  (2) 
16.470297

>  <BCUT2D_MWLOW>  (2) 
10.184739

>  <BCUT2D_CHGHI>  (2) 
2.320009

>  <BCUT2D_CHGLO>  (2) 
-1.972308

>  <BCUT2D_LOGPHI>  (2) 
2.185579

>  <BCUT2D_LOGPLOW>  (2) 
-2.822695

>  <BCUT2D_MRHI>  (2) 
5.448595

>  <BCUT2D_MRLOW>  (2) 
-0.680379

>  <AvgIpc>  (2) 
2.98278

>  <BalabanJ>  (2) 
1.835741

>  <BertzCT>  (2) 
500.407181

>  <Chi0>  (2) 
11.664926

>  <Chi0n>  (2) 
9.022631

>  <Chi0v>  (2) 
9.022631

>  <Chi1>  (2) 
8.3265

>  <Chi1n>  (2) 
5.440931

>  <Chi1v>  (2) 
5.440931

>  <Chi2n>  (2) 
4.014298

>  <Chi2v>  (2) 
4.014298

>  <Chi3n>  (2) 
2.769894

>  <Chi3v>  (2) 
2.769894

>  <Chi4n>  (2) 
1.912965

>  <Chi4v>  (2) 
1.912965

>  <HallKierAlpha>  (2) 
-1.86

>  <Ipc>  (2) 
18051.785047

>  <Kappa1>  (2) 
10.303934

>  <Kappa2>  (2) 
4.189533

>  <Kappa3>  (2) 
2.017414

>  <LabuteASA>  (2) 
96.910808

>  <PEOE_VSA1>  (2) 
14.946411

>  <PEOE_VSA10>  (2) 
18.342651

>  <PEOE_VSA11>  (2) 
6.041841

>  <PEOE_VSA12>  (2) 
5.824404

>  <PEOE_VSA13>  (2) 
5.890724

>  <PEOE_VSA14>  (2) 
0.0

>  <PEOE_VSA2>  (2) 
4.983979

>  <PEOE_VSA3>  (2) 
4.983979

>  <PEOE_VSA4>  (2) 
4.983979

>  <PEOE_VSA5>  (2) 
0.0

>  <PEOE_VSA6>  (2) 
5.156663

>  <PEOE_VSA7>  (2) 
0.0

>  <PEOE_VSA8>  (2) 
18.814509

>  <PEOE_VSA9>  (2) 
6.196844

>  <SMR_VSA1>  (2) 
14.946411

>  <SMR_VSA10>  (2) 
0.0

>  <SMR_VSA2>  (2) 
0.0

>  <SMR_VSA3>  (2) 
20.108599

>  <SMR_VSA4>  (2) 
0.0

>  <SMR_VSA5>  (2) 
18.566629

>  <SMR_VSA6>  (2) 
6.544756

>  <SMR_VSA7>  (2) 
24.481255

>  <SMR_VSA8>  (2) 
0.0

>  <SMR_VSA9>  (2) 
11.518332

>  <SlogP_VSA1>  (2) 
5.316789

>  <SlogP_VSA10>  (2) 
0.0

>  <SlogP_VSA11>  (2) 
0.0

>  <SlogP_VSA12>  (2) 
0.0

>  <SlogP_VSA2>  (2) 
37.863849

>  <SlogP_VSA3>  (2) 
0.0

>  <SlogP_VSA4>  (2) 
0.0

>  <SlogP_VSA5>  (2) 
18.353386

>  <SlogP_VSA6>  (2) 
23.113626

>  <SlogP_VSA7>  (2) 
0.0

>  <SlogP_VSA8>  (2) 
11.518332

>  <SlogP_VSA9>  (2) 
0.0

>  <EState_VSA1>  (2) 
0.0

>  <EState_VSA10>  (2) 
5.106527

>  <EState_VSA11>  (2) 
0.0

>  <EState_VSA2>  (2) 
12.145807

>  <EState_VSA3>  (2) 
30.374634

>  <EState_VSA4>  (2) 
0.0

>  <EState_VSA5>  (2) 
0.0

>  <EState_VSA6>  (2) 
18.590531

>  <EState_VSA7>  (2) 
5.316789

>  <EState_VSA8>  (2) 
20.108599

>  <EState_VSA9>  (2) 
4.523095

>  <VSA_EState1>  (2) 
5.180057

>  <VSA_EState10>  (2) 
0.0

>  <VSA_EState2>  (2) 
12.319013

>  <VSA_EState3>  (2) 
15.305746

>  <VSA_EState4>  (2) 
0.584301

>  <VSA_EState5>  (2) 
0.963049

>  <VSA_EState6>  (2) 
0.044372

>  <VSA_EState7>  (2) 
5.096

>  <VSA_EState8>  (2) 
0.67413

>  <VSA_EState9>  (2) 
0.0

>  <FractionCSP3>  (2) 
0.4

>  <HeavyAtomCount>  (2) 
17

>  <NHOHCount>  (2) 
3

>  <NOCount>  (2) 
7

>  <NumAliphaticCarbocycles>  (2) 
0

>  <NumAliphaticHeterocycles>  (2) 
1

>  <NumAliphaticRings>  (2) 
1

>  <NumAromaticCarbocycles>  (2) 
0

>  <NumAromaticHeterocycles>  (2) 
2

>  <NAR>  (2) 
2

>  <NumHAcceptors>  (2) 
6

>  <NumHDonors>  (2) 
2

>  <NumHeteroatoms>  (2) 
7

>  <NumRotatableBonds>  (2) 
2

>  <NumSaturatedCarbocycles>  (2) 
0

>  <NumSaturatedHeterocycles>  (2) 
1

>  <NumSaturatedRings>  (2) 
1

>  <RingCount>  (2) 
3

>  <MolLogP>  (2) 
-1.1043

>  <MolMR>  (2) 
55.4812

>  <fr_Al_COO>  (2) 
0

>  <fr_Al_OH>  (2) 
1

>  <fr_Al_OH_noTert>  (2) 
1

>  <fr_ArN>  (2) 
0

>  <fr_Ar_COO>  (2) 
0

>  <fr_Ar_N>  (2) 
4

>  <fr_Ar_NH>  (2) 
0

>  <fr_Ar_OH>  (2) 
0

>  <fr_COO>  (2) 
0

>  <fr_COO2>  (2) 
0

>  <fr_C_O>  (2) 
0

>  <fr_C_O_noCOO>  (2) 
0

>  <fr_C_S>  (2) 
0

>  <fr_HOCCN>  (2) 
0

>  <fr_Imine>  (2) 
0

>  <fr_NH0>  (2) 
4

>  <fr_NH1>  (2) 
0

>  <fr_NH2>  (2) 
1

>  <fr_N_O>  (2) 
0

>  <fr_Ndealkylation1>  (2) 
0

>  <fr_Ndealkylation2>  (2) 
0

>  <fr_Nhpyrrole>  (2) 
0

>  <fr_SH>  (2) 
0

>  <fr_aldehyde>  (2) 
0

>  <fr_alkyl_carbamate>  (2) 
0

>  <fr_alkyl_halide>  (2) 
0

>  <fr_allylic_oxid>  (2) 
0

>  <fr_amide>  (2) 
0

>  <fr_amidine>  (2) 
0

>  <fr_aniline>  (2) 
0

>  <fr_aryl_methyl>  (2) 
0

>  <fr_azide>  (2) 
0

>  <fr_azo>  (2) 
0

>  <fr_barbitur>  (2) 
0

>  <fr_benzene>  (2) 
0

>  <fr_benzodiazepine>  (2) 
0

>  <fr_bicyclic>  (2) 
0

>  <fr_diazo>  (2) 
0

>  <fr_dihydropyridine>  (2) 
0

>  <fr_epoxide>  (2) 
0

>  <fr_ester>  (2) 
0

>  <fr_ether>  (2) 
0

>  <fr_furan>  (2) 
0

>  <fr_guanido>  (2) 
0

>  <fr_halogen>  (2) 
0

>  <fr_hdrzine>  (2) 
0

>  <fr_hdrzone>  (2) 
0

>  <fr_imidazole>  (2) 
0

>  <fr_imide>  (2) 
0

>  <fr_isocyan>  (2) 
0

>  <fr_isothiocyan>  (2) 
0

>  <fr_ketone>  (2) 
0

>  <fr_ketone_Topliss>  (2) 
0

>  <fr_lactam>  (2) 
0

>  <fr_lactone>  (2) 
0

>  <fr_methoxy>  (2) 
0

>  <fr_morpholine>  (2) 
0

>  <fr_nitrile>  (2) 
0

>  <fr_nitro>  (2) 
0

>  <fr_nitro_arom>  (2) 
0

>  <fr_nitro_arom_nonortho>  (2) 
0

>  <fr_nitroso>  (2) 
0

>  <fr_oxazole>  (2) 
0

>  <fr_oxime>  (2) 
0

>  <fr_para_hydroxylation>  (2) 
0

>  <fr_phenol>  (2) 
0

>  <fr_phenol_noOrthoHbond>  (2) 
0

>  <fr_phos_acid>  (2) 
0

>  <fr_phos_ester>  (2) 
0

>  <fr_piperdine>  (2) 
0

>  <fr_piperzine>  (2) 
0

>  <fr_priamide>  (2) 
0

>  <fr_prisulfonamd>  (2) 
0

>  <fr_pyridine>  (2) 
0

>  <fr_quatN>  (2) 
1

>  <fr_sulfide>  (2) 
0

>  <fr_sulfonamd>  (2) 
0

>  <fr_sulfone>  (2) 
0

>  <fr_term_acetylene>  (2) 
0

>  <fr_tetrazole>  (2) 
0

>  <fr_thiazole>  (2) 
0

>  <fr_thiocyan>  (2) 
0

>  <fr_thiophene>  (2) 
0

>  <fr_unbrch_alkane>  (2) 
0

>  <fr_urea>  (2) 
0

>  <NP-Likeness>  (2) 
-1.357471

$$$$
F009
     RDKit          3D

  0  0  0  0  0  0  0  0  0  0999 V3000
M  V30 BEGIN CTAB
M  V30 COUNTS 24 25 0 0 0
M  V30 BEGIN ATOM
M  V30 1 C -0.077541 1.524891 1.958523 0
M  V30 2 C 0.694349 0.400799 1.738514 0
M  V30 3 C 0.565397 -0.303515 0.557883 0
M  V30 4 C 1.389022 -1.489430 0.341617 0
M  V30 5 N 2.561613 -1.254191 -0.274371 0
M  V30 6 O 3.239573 -2.359288 -0.431727 0
M  V30 7 C 2.520373 -3.309579 0.075186 0
M  V30 8 C 2.989522 -4.713781 0.068717 0
M  V30 9 N 1.372538 -2.833905 0.565095 0
M  V30 10 C -0.332207 0.084708 -0.440289 0
M  V30 11 C -1.112837 1.223288 -0.215388 0
M  V30 12 C -0.968403 1.919460 0.980487 0
M  V30 13 O -1.808356 3.032677 1.069795 0
M  V30 14 C -1.721113 3.801917 2.268034 0
M  V30 15 H -0.025171 2.119355 2.858908 0
M  V30 16 H 1.397677 0.075777 2.492231 0
M  V30 17 H 3.964220 -4.737696 0.603506 0
M  V30 18 H 3.181857 -5.032706 -0.988151 0
M  V30 19 H 2.277434 -5.421053 0.548932 0
M  V30 20 H -0.432406 -0.474670 -1.374181 0
M  V30 21 H -1.801957 1.505181 -1.003770 0
M  V30 22 H -1.951179 3.095144 3.100316 0
M  V30 23 H -0.656657 4.092671 2.382449 0
M  V30 24 H -2.413607 4.645691 2.271696 0
M  V30 END ATOM
M  V30 BEGIN BOND
M  V30 1 2 1 2
M  V30 2 1 2 3
M  V30 3 1 3 4
M  V30 4 2 4 5
M  V30 5 1 5 6
M  V30 6 1 6 7
M  V30 7 1 7 8
M  V30 8 2 7 9
M  V30 9 2 3 10
M  V30 10 1 10 11
M  V30 11 2 11 12
M  V30 12 1 12 13
M  V30 13 1 13 14
M  V30 14 1 12 1
M  V30 15 1 9 4
M  V30 16 1 1 15
M  V30 17 1 2 16
M  V30 18 1 8 17
M  V30 19 1 8 18
M  V30 20 1 8 19
M  V30 21 1 10 20
M  V30 22 1 11 21
M  V30 23 1 14 22
M  V30 24 1 14 23
M  V30 25 1 14 24
M  V30 END BOND
M  V30 END CTAB
M  END
>  <Dataset>  (3) 
CF

>  <Ligand_Instance>  (3) 
009_B_2

>  <PDB_ID>  (3) 
nan

>  <Standardized_SMILES>  (3) 
[H]C1=C([H])C(C2=NOC(C([H])([H])[H])=N2)=C([H])C([H])=C1OC([H])([H])[H]

>  <Name>  (3) 
(3R,5S)‐5‐[3‐(4‐methoxyphenyl)‐1,2,4‐oxadiazol‐5‐yl]pyrrolidin‐3‐ol

>  <Pocket>  (3) 
A

>  <ATP_Site>  (3) 
1.0

>  <Peripheral>  (3) 
1.0

>  <Num_H_Atoms_ProtBoundConf>  (3) 
10.0

>  <Num_Resolved_Atoms>  (3) 
14.0

>  <Num_Not_Resolved_Atoms>  (3) 
5.0

>  <2D_Mol_H>  (3) 
<rdkit.Chem.rdchem.Mol object at 0x72a238d5f6f0>

>  <MW>  (3) 
190.202

>  <HBA>  (3) 
4

>  <HBD>  (3) 
0

>  <LogP>  (3) 
2.05362

>  <NRB>  (3) 
4

>  <TPSA>  (3) 
48.15

>  <Num_Heavy_Atoms>  (3) 
14

>  <Ro5>  (3) 
[True, True, True, True, True, True]

>  <Ro5_Fulfilled>  (3) 
True

>  <Ro3>  (3) 
[True, False, True, True]

>  <Ro3_Fulfilled>  (3) 
True

>  <Fsp3>  (3) 
0.2

>  <Fsp3_0.42>  (3) 
False

>  <Fsp3_0.45>  (3) 
False

>  <Stereogenic_Carbons>  (3) 
0

>  <C_Atoms>  (3) 
10

>  <FCStereo>  (3) 
0.0

>  <SPS>  (3) 
142

>  <nSPS>  (3) 
10.142857

>  <PBF>  (3) 
0.340535

>  <PBF_0.6>  (3) 
False

>  <nPBF>  (3) 
0.024324

>  <nPBF_0.016>  (3) 
True

>  <PMI1>  (3) 
167.413786

>  <PMI2>  (3) 
1811.771159

>  <PMI3>  (3) 
1858.937966

>  <NPR1>  (3) 
0.090059

>  <NPR2>  (3) 
0.974627

>  <Sum_NPR>  (3) 
1.064686

>  <Sum_NPR_1.07>  (3) 
False

>  <Sum_NPR_1.2>  (3) 
False

>  <MaxAbsEStateIndex>  (3) 
5.045998

>  <MaxEStateIndex>  (3) 
5.045998

>  <MinAbsEStateIndex>  (3) 
0.565572

>  <MinEStateIndex>  (3) 
0.565572

>  <qed>  (3) 
0.726724

>  <MolWt>  (3) 
190.202

>  <HeavyAtomMolWt>  (3) 
180.122

>  <ExactMolWt>  (3) 
190.074228

>  <NumValenceElectrons>  (3) 
72

>  <NumRadicalElectrons>  (3) 
0

>  <MaxPartialCharge>  (3) 
0.223338

>  <MinPartialCharge>  (3) 
-0.496768

>  <MaxAbsPartialCharge>  (3) 
0.496768

>  <MinAbsPartialCharge>  (3) 
0.223338

>  <FpDensityMorgan1>  (3) 
1.214286

>  <FpDensityMorgan2>  (3) 
1.928571

>  <FpDensityMorgan3>  (3) 
2.428571

>  <BCUT2D_MWHI>  (3) 
16.469901

>  <BCUT2D_MWLOW>  (3) 
10.18421

>  <BCUT2D_CHGHI>  (3) 
2.041569

>  <BCUT2D_CHGLO>  (3) 
-1.982468

>  <BCUT2D_LOGPHI>  (3) 
2.186685

>  <BCUT2D_LOGPLOW>  (3) 
-1.834452

>  <BCUT2D_MRHI>  (3) 
5.548824

>  <BCUT2D_MRLOW>  (3) 
0.394047

>  <AvgIpc>  (3) 
2.650989

>  <BalabanJ>  (3) 
2.332222

>  <BertzCT>  (3) 
419.941971

>  <Chi0>  (3) 
9.966255

>  <Chi0n>  (3) 
8.020325

>  <Chi0v>  (3) 
8.020325

>  <Chi1>  (3) 
6.792025

>  <Chi1n>  (3) 
4.241258

>  <Chi1v>  (3) 
4.241258

>  <Chi2n>  (3) 
2.865504

>  <Chi2v>  (3) 
2.865504

>  <Chi3n>  (3) 
1.87579

>  <Chi3v>  (3) 
1.87579

>  <Chi4n>  (3) 
1.156595

>  <Chi4v>  (3) 
1.156595

>  <HallKierAlpha>  (3) 
-1.84

>  <Ipc>  (3) 
2661.593394

>  <Kappa1>  (3) 
8.744806

>  <Kappa2>  (3) 
3.493172

>  <Kappa3>  (3) 
1.589306

>  <LabuteASA>  (3) 
81.516908

>  <PEOE_VSA1>  (3) 
9.259958

>  <PEOE_VSA10>  (3) 
5.749512

>  <PEOE_VSA11>  (3) 
0.0

>  <PEOE_VSA12>  (3) 
11.715128

>  <PEOE_VSA13>  (3) 
0.0

>  <PEOE_VSA14>  (3) 
0.0

>  <PEOE_VSA2>  (3) 
0.0

>  <PEOE_VSA3>  (3) 
0.0

>  <PEOE_VSA4>  (3) 
4.983979

>  <PEOE_VSA5>  (3) 
0.0

>  <PEOE_VSA6>  (3) 
5.156663

>  <PEOE_VSA7>  (3) 
24.265468

>  <PEOE_VSA8>  (3) 
12.487189

>  <PEOE_VSA9>  (3) 
7.109798

>  <SMR_VSA1>  (3) 
9.259958

>  <SMR_VSA10>  (3) 
0.0

>  <SMR_VSA2>  (3) 
0.0

>  <SMR_VSA3>  (3) 
10.140642

>  <SMR_VSA4>  (3) 
0.0

>  <SMR_VSA5>  (3) 
6.923737

>  <SMR_VSA6>  (3) 
7.109798

>  <SMR_VSA7>  (3) 
30.156192

>  <SMR_VSA8>  (3) 
0.0

>  <SMR_VSA9>  (3) 
17.137368

>  <SlogP_VSA1>  (3) 
4.736863

>  <SlogP_VSA10>  (3) 
0.0

>  <SlogP_VSA11>  (3) 
5.749512

>  <SlogP_VSA12>  (3) 
0.0

>  <SlogP_VSA2>  (3) 
17.250439

>  <SlogP_VSA3>  (3) 
0.0

>  <SlogP_VSA4>  (3) 
6.923737

>  <SlogP_VSA5>  (3) 
5.890724

>  <SlogP_VSA6>  (3) 
28.788563

>  <SlogP_VSA7>  (3) 
0.0

>  <SlogP_VSA8>  (3) 
11.387856

>  <SlogP_VSA9>  (3) 
0.0

>  <EState_VSA1>  (3) 
0.0

>  <EState_VSA10>  (3) 
0.0

>  <EState_VSA11>  (3) 
0.0

>  <EState_VSA2>  (3) 
0.0

>  <EState_VSA3>  (3) 
11.715128

>  <EState_VSA4>  (3) 
11.312963

>  <EState_VSA5>  (3) 
0.0

>  <EState_VSA6>  (3) 
14.033535

>  <EState_VSA7>  (3) 
24.265468

>  <EState_VSA8>  (3) 
10.140642

>  <EState_VSA9>  (3) 
9.259958

>  <VSA_EState1>  (3) 
9.929108

>  <VSA_EState10>  (3) 
0.0

>  <VSA_EState2>  (3) 
4.117828

>  <VSA_EState3>  (3) 
3.814588

>  <VSA_EState4>  (3) 
0.91912

>  <VSA_EState5>  (3) 
1.981424

>  <VSA_EState6>  (3) 
7.508241

>  <VSA_EState7>  (3) 
0.0

>  <VSA_EState8>  (3) 
1.763912

>  <VSA_EState9>  (3) 
1.632446

>  <FractionCSP3>  (3) 
0.2

>  <HeavyAtomCount>  (3) 
14

>  <NHOHCount>  (3) 
0

>  <NOCount>  (3) 
4

>  <NumAliphaticCarbocycles>  (3) 
0

>  <NumAliphaticHeterocycles>  (3) 
0

>  <NumAliphaticRings>  (3) 
0

>  <NumAromaticCarbocycles>  (3) 
1

>  <NumAromaticHeterocycles>  (3) 
1

>  <NAR>  (3) 
2

>  <NumHAcceptors>  (3) 
4

>  <NumHDonors>  (3) 
0

>  <NumHeteroatoms>  (3) 
4

>  <NumRotatableBonds>  (3) 
2

>  <NumSaturatedCarbocycles>  (3) 
0

>  <NumSaturatedHeterocycles>  (3) 
0

>  <NumSaturatedRings>  (3) 
0

>  <RingCount>  (3) 
2

>  <MolLogP>  (3) 
2.05362

>  <MolMR>  (3) 
51.023

>  <fr_Al_COO>  (3) 
0

>  <fr_Al_OH>  (3) 
0

>  <fr_Al_OH_noTert>  (3) 
0

>  <fr_ArN>  (3) 
0

>  <fr_Ar_COO>  (3) 
0

>  <fr_Ar_N>  (3) 
2

>  <fr_Ar_NH>  (3) 
0

>  <fr_Ar_OH>  (3) 
0

>  <fr_COO>  (3) 
0

>  <fr_COO2>  (3) 
0

>  <fr_C_O>  (3) 
0

>  <fr_C_O_noCOO>  (3) 
0

>  <fr_C_S>  (3) 
0

>  <fr_HOCCN>  (3) 
0

>  <fr_Imine>  (3) 
0

>  <fr_NH0>  (3) 
2

>  <fr_NH1>  (3) 
0

>  <fr_NH2>  (3) 
0

>  <fr_N_O>  (3) 
0

>  <fr_Ndealkylation1>  (3) 
0

>  <fr_Ndealkylation2>  (3) 
0

>  <fr_Nhpyrrole>  (3) 
0

>  <fr_SH>  (3) 
0

>  <fr_aldehyde>  (3) 
0

>  <fr_alkyl_carbamate>  (3) 
0

>  <fr_alkyl_halide>  (3) 
0

>  <fr_allylic_oxid>  (3) 
0

>  <fr_amide>  (3) 
0

>  <fr_amidine>  (3) 
0

>  <fr_aniline>  (3) 
0

>  <fr_aryl_methyl>  (3) 
1

>  <fr_azide>  (3) 
0

>  <fr_azo>  (3) 
0

>  <fr_barbitur>  (3) 
0

>  <fr_benzene>  (3) 
1

>  <fr_benzodiazepine>  (3) 
0

>  <fr_bicyclic>  (3) 
0

>  <fr_diazo>  (3) 
0

>  <fr_dihydropyridine>  (3) 
0

>  <fr_epoxide>  (3) 
0

>  <fr_ester>  (3) 
0

>  <fr_ether>  (3) 
1

>  <fr_furan>  (3) 
0

>  <fr_guanido>  (3) 
0

>  <fr_halogen>  (3) 
0

>  <fr_hdrzine>  (3) 
0

>  <fr_hdrzone>  (3) 
0

>  <fr_imidazole>  (3) 
0

>  <fr_imide>  (3) 
0

>  <fr_isocyan>  (3) 
0

>  <fr_isothiocyan>  (3) 
0

>  <fr_ketone>  (3) 
0

>  <fr_ketone_Topliss>  (3) 
0

>  <fr_lactam>  (3) 
0

>  <fr_lactone>  (3) 
0

>  <fr_methoxy>  (3) 
1

>  <fr_morpholine>  (3) 
0

>  <fr_nitrile>  (3) 
0

>  <fr_nitro>  (3) 
0

>  <fr_nitro_arom>  (3) 
0

>  <fr_nitro_arom_nonortho>  (3) 
0

>  <fr_nitroso>  (3) 
0

>  <fr_oxazole>  (3) 
0

>  <fr_oxime>  (3) 
0

>  <fr_para_hydroxylation>  (3) 
0

>  <fr_phenol>  (3) 
0

>  <fr_phenol_noOrthoHbond>  (3) 
0

>  <fr_phos_acid>  (3) 
0

>  <fr_phos_ester>  (3) 
0

>  <fr_piperdine>  (3) 
0

>  <fr_piperzine>  (3) 
0

>  <fr_priamide>  (3) 
0

>  <fr_prisulfonamd>  (3) 
0

>  <fr_pyridine>  (3) 
0

>  <fr_quatN>  (3) 
0

>  <fr_sulfide>  (3) 
0

>  <fr_sulfonamd>  (3) 
0

>  <fr_sulfone>  (3) 
0

>  <fr_term_acetylene>  (3) 
0

>  <fr_tetrazole>  (3) 
0

>  <fr_thiazole>  (3) 
0

>  <fr_thiocyan>  (3) 
0

>  <fr_thiophene>  (3) 
0

>  <fr_unbrch_alkane>  (3) 
0

>  <fr_urea>  (3) 
0

>  <NP-Likeness>  (3) 
-1.808723

$$$$
F012
     RDKit          3D

  0  0  0  0  0  0  0  0  0  0999 V3000
M  V30 BEGIN CTAB
M  V30 COUNTS 34 36 0 0 0
M  V30 BEGIN ATOM
M  V30 1 C 0.123835 -2.849165 5.723776 0
M  V30 2 N -0.164974 -4.159485 5.585345 0
M  V30 3 C -0.009862 -4.776718 4.411938 0
M  V30 4 C 0.452236 -4.077887 3.313197 0
M  V30 5 C 0.756074 -2.719414 3.439911 0
M  V30 6 C 1.248250 -1.920133 2.321575 0
M  V30 7 N 2.437575 -1.642703 1.727019 0
M  V30 8 O 2.230920 -0.832520 0.736404 0
M  V30 9 C 0.955957 -0.530928 0.610408 0
M  V30 10 C 0.318570 0.346621 -0.378774 0 CFG=2
M  V30 11 C 0.200188 -0.294176 -1.748012 0
M  V30 12 C -0.921493 0.432394 -2.409234 0
M  V30 13 N -1.975498 -0.027415 -3.252638 0
M  V30 14 C -0.871013 1.724833 -2.121907 0
M  V30 15 N -1.857879 2.593155 -2.659135 0
M  V30 16 C 0.095328 2.489220 -1.282004 0
M  V30 17 N 1.014954 1.604636 -0.590990 0 CHG=1 VAL=4
M  V30 18 N 0.326410 -1.215453 1.610332 0
M  V30 19 C 0.594813 -2.083416 4.654453 0
M  V30 20 H -0.024689 -2.404515 6.709075 0
M  V30 21 H -0.241839 -5.825051 4.304653 0
M  V30 22 H 0.603225 -4.515346 2.325295 0
M  V30 23 H -0.699294 0.639522 -0.006217 0
M  V30 24 H 1.104018 -0.032830 -2.340574 0
M  V30 25 H 0.033143 -1.384725 -1.681100 0
M  V30 26 H -2.027798 -0.082239 -4.306836 0
M  V30 27 H -2.601696 -0.259228 -2.445343 0
M  V30 28 H -2.473192 3.257227 -3.134995 0
M  V30 29 H -2.733576 2.440840 -2.075902 0
M  V30 30 H -0.473689 3.111389 -0.551888 0
M  V30 31 H 0.653124 3.138265 -1.988440 0
M  V30 32 H 1.300416 1.987729 0.327797 0
M  V30 33 H 1.822564 1.368449 -1.211329 0
M  V30 34 H 0.803285 -1.044417 4.842382 0
M  V30 END ATOM
M  V30 BEGIN BOND
M  V30 1 2 1 2
M  V30 2 1 2 3
M  V30 3 2 3 4
M  V30 4 1 4 5
M  V30 5 1 5 6
M  V30 6 2 6 7
M  V30 7 1 7 8
M  V30 8 1 8 9
M  V30 9 1 9 10
M  V30 10 1 10 11
M  V30 11 1 11 12
M  V30 12 1 12 13
M  V30 13 2 12 14
M  V30 14 1 14 15
M  V30 15 1 14 16
M  V30 16 1 16 17
M  V30 17 2 9 18
M  V30 18 2 5 19
M  V30 19 1 19 1
M  V30 20 1 18 6
M  V30 21 1 17 10
M  V30 22 1 1 20
M  V30 23 1 3 21
M  V30 24 1 4 22
M  V30 25 1 10 23 CFG=1
M  V30 26 1 11 24
M  V30 27 1 11 25
M  V30 28 1 13 26
M  V30 29 1 13 27
M  V30 30 1 15 28
M  V30 31 1 15 29
M  V30 32 1 16 30
M  V30 33 1 16 31
M  V30 34 1 17 32
M  V30 35 1 17 33
M  V30 36 1 19 34
M  V30 END BOND
M  V30 END CTAB
M  END
>  <Dataset>  (4) 
CF

>  <Ligand_Instance>  (4) 
012_B_1

>  <PDB_ID>  (4) 
nan

>  <Standardized_SMILES>  (4) 
[H]C1=NC([H])=C([H])C(C2=NOC([C@]3([H])C([H])([H])C(N([H])[H])=C(N([H])[H])C([H])([H])[N+]3([H])[H])=N2)=C1[H]

>  <Name>  (4) 
4‐{5‐[(6S)‐3H,4H,5H,6H,7H‐imidazo[4,5‐c]pyridin‐6‐yl]‐1,2,4‐oxadiazol‐3‐yl}pyridine

>  <Pocket>  (4) 
A

>  <ATP_Site>  (4) 
1.0

>  <Peripheral>  (4) 
0.0

>  <Num_H_Atoms_ProtBoundConf>  (4) 
15.0

>  <Num_Resolved_Atoms>  (4) 
19.0

>  <Num_Not_Resolved_Atoms>  (4) 
1.0

>  <2D_Mol_H>  (4) 
<rdkit.Chem.rdchem.Mol object at 0x72a238d5f7d0>

>  <MW>  (4) 
259.293

>  <HBA>  (4) 
6

>  <HBD>  (4) 
3

>  <LogP>  (4) 
-0.7312

>  <NRB>  (4) 
4

>  <TPSA>  (4) 
120.46

>  <Num_Heavy_Atoms>  (4) 
19

>  <Ro5>  (4) 
[True, True, True, True, True, True]

>  <Ro5_Fulfilled>  (4) 
True

>  <Ro3>  (4) 
[True, False, True, True]

>  <Ro3_Fulfilled>  (4) 
True

>  <Fsp3>  (4) 
0.25

>  <Fsp3_0.42>  (4) 
False

>  <Fsp3_0.45>  (4) 
False

>  <Stereogenic_Carbons>  (4) 
1

>  <C_Atoms>  (4) 
12

>  <FCStereo>  (4) 
0.083333

>  <SPS>  (4) 
374

>  <nSPS>  (4) 
19.684211

>  <PBF>  (4) 
0.890096

>  <PBF_0.6>  (4) 
True

>  <nPBF>  (4) 
0.046847

>  <nPBF_0.016>  (4) 
True

>  <PMI1>  (4) 
534.358591

>  <PMI2>  (4) 
3368.465944

>  <PMI3>  (4) 
3499.993131

>  <NPR1>  (4) 
0.152674

>  <NPR2>  (4) 
0.962421

>  <Sum_NPR>  (4) 
1.115095

>  <Sum_NPR_1.07>  (4) 
True

>  <Sum_NPR_1.2>  (4) 
False

>  <MaxAbsEStateIndex>  (4) 
5.86042

>  <MaxEStateIndex>  (4) 
5.86042

>  <MinAbsEStateIndex>  (4) 
0.037396

>  <MinEStateIndex>  (4) 
0.037396

>  <qed>  (4) 
0.653491

>  <MolWt>  (4) 
259.293

>  <HeavyAtomMolWt>  (4) 
244.173

>  <ExactMolWt>  (4) 
259.130186

>  <NumValenceElectrons>  (4) 
98

>  <NumRadicalElectrons>  (4) 
0

>  <MaxPartialCharge>  (4) 
0.285106

>  <MinPartialCharge>  (4) 
-0.400265

>  <MaxAbsPartialCharge>  (4) 
0.400265

>  <MinAbsPartialCharge>  (4) 
0.285106

>  <FpDensityMorgan1>  (4) 
1.210526

>  <FpDensityMorgan2>  (4) 
2.0

>  <FpDensityMorgan3>  (4) 
2.736842

>  <BCUT2D_MWHI>  (4) 
16.470003

>  <BCUT2D_MWLOW>  (4) 
10.064372

>  <BCUT2D_CHGHI>  (4) 
2.274359

>  <BCUT2D_CHGLO>  (4) 
-2.182647

>  <BCUT2D_LOGPHI>  (4) 
2.202694

>  <BCUT2D_LOGPLOW>  (4) 
-2.872283

>  <BCUT2D_MRHI>  (4) 
5.521056

>  <BCUT2D_MRLOW>  (4) 
-0.694773

>  <AvgIpc>  (4) 
2.925292

>  <BalabanJ>  (4) 
1.830067

>  <BertzCT>  (4) 
605.691986

>  <Chi0>  (4) 
13.242276

>  <Chi0n>  (4) 
10.282905

>  <Chi0v>  (4) 
10.282905

>  <Chi1>  (4) 
9.237183

>  <Chi1n>  (4) 
6.040896

>  <Chi1v>  (4) 
6.040896

>  <Chi2n>  (4) 
4.493031

>  <Chi2v>  (4) 
4.493031

>  <Chi3n>  (4) 
3.172019

>  <Chi3v>  (4) 
3.172019

>  <Chi4n>  (4) 
2.043847

>  <Chi4v>  (4) 
2.043847

>  <HallKierAlpha>  (4) 
-2.41

>  <Ipc>  (4) 
41749.768898

>  <Kappa1>  (4) 
11.667554

>  <Kappa2>  (4) 
4.693751

>  <Kappa3>  (4) 
2.273155

>  <LabuteASA>  (4) 
109.252047

>  <PEOE_VSA1>  (4) 
21.307218

>  <PEOE_VSA10>  (4) 
6.544756

>  <PEOE_VSA11>  (4) 
6.041841

>  <PEOE_VSA12>  (4) 
5.824404

>  <PEOE_VSA13>  (4) 
5.890724

>  <PEOE_VSA14>  (4) 
0.0

>  <PEOE_VSA2>  (4) 
4.983979

>  <PEOE_VSA3>  (4) 
0.0

>  <PEOE_VSA4>  (4) 
4.983979

>  <PEOE_VSA5>  (4) 
0.0

>  <PEOE_VSA6>  (4) 
5.156663

>  <PEOE_VSA7>  (4) 
12.132734

>  <PEOE_VSA8>  (4) 
23.654178

>  <PEOE_VSA9>  (4) 
12.117861

>  <SMR_VSA1>  (4) 
9.839884

>  <SMR_VSA10>  (4) 
0.0

>  <SMR_VSA2>  (4) 
0.0

>  <SMR_VSA3>  (4) 
15.12462

>  <SMR_VSA4>  (4) 
11.467335

>  <SMR_VSA5>  (4) 
12.462662

>  <SMR_VSA6>  (4) 
6.544756

>  <SMR_VSA7>  (4) 
41.811224

>  <SMR_VSA8>  (4) 
0.0

>  <SMR_VSA9>  (4) 
11.387856

>  <SlogP_VSA1>  (4) 
16.784124

>  <SlogP_VSA10>  (4) 
0.0

>  <SlogP_VSA11>  (4) 
0.0

>  <SlogP_VSA12>  (4) 
0.0

>  <SlogP_VSA2>  (4) 
21.669377

>  <SlogP_VSA3>  (4) 
0.0

>  <SlogP_VSA4>  (4) 
0.0

>  <SlogP_VSA5>  (4) 
18.353386

>  <SlogP_VSA6>  (4) 
40.443595

>  <SlogP_VSA7>  (4) 
0.0

>  <SlogP_VSA8>  (4) 
11.387856

>  <SlogP_VSA9>  (4) 
0.0

>  <EState_VSA1>  (4) 
0.0

>  <EState_VSA10>  (4) 
0.0

>  <EState_VSA11>  (4) 
0.0

>  <EState_VSA2>  (4) 
6.041841

>  <EState_VSA3>  (4) 
30.377746

>  <EState_VSA4>  (4) 
11.260491

>  <EState_VSA5>  (4) 
0.0

>  <EState_VSA6>  (4) 
12.393687

>  <EState_VSA7>  (4) 
12.132734

>  <EState_VSA8>  (4) 
20.441409

>  <EState_VSA9>  (4) 
15.99043

>  <VSA_EState1>  (4) 
5.31037

>  <VSA_EState10>  (4) 
0.0

>  <VSA_EState2>  (4) 
8.364824

>  <VSA_EState3>  (4) 
6.034804

>  <VSA_EState4>  (4) 
13.935323

>  <VSA_EState5>  (4) 
1.13348

>  <VSA_EState6>  (4) 
3.714915

>  <VSA_EState7>  (4) 
4.016728

>  <VSA_EState8>  (4) 
0.656221

>  <VSA_EState9>  (4) 
0.0

>  <FractionCSP3>  (4) 
0.25

>  <HeavyAtomCount>  (4) 
19

>  <NHOHCount>  (4) 
6

>  <NOCount>  (4) 
7

>  <NumAliphaticCarbocycles>  (4) 
0

>  <NumAliphaticHeterocycles>  (4) 
1

>  <NumAliphaticRings>  (4) 
1

>  <NumAromaticCarbocycles>  (4) 
0

>  <NumAromaticHeterocycles>  (4) 
2

>  <NAR>  (4) 
2

>  <NumHAcceptors>  (4) 
6

>  <NumHDonors>  (4) 
3

>  <NumHeteroatoms>  (4) 
7

>  <NumRotatableBonds>  (4) 
2

>  <NumSaturatedCarbocycles>  (4) 
0

>  <NumSaturatedHeterocycles>  (4) 
0

>  <NumSaturatedRings>  (4) 
0

>  <RingCount>  (4) 
3

>  <MolLogP>  (4) 
-0.7312

>  <MolMR>  (4) 
67.0802

>  <fr_Al_COO>  (4) 
0

>  <fr_Al_OH>  (4) 
0

>  <fr_Al_OH_noTert>  (4) 
0

>  <fr_ArN>  (4) 
0

>  <fr_Ar_COO>  (4) 
0

>  <fr_Ar_N>  (4) 
3

>  <fr_Ar_NH>  (4) 
0

>  <fr_Ar_OH>  (4) 
0

>  <fr_COO>  (4) 
0

>  <fr_COO2>  (4) 
0

>  <fr_C_O>  (4) 
0

>  <fr_C_O_noCOO>  (4) 
0

>  <fr_C_S>  (4) 
0

>  <fr_HOCCN>  (4) 
0

>  <fr_Imine>  (4) 
0

>  <fr_NH0>  (4) 
3

>  <fr_NH1>  (4) 
0

>  <fr_NH2>  (4) 
3

>  <fr_N_O>  (4) 
0

>  <fr_Ndealkylation1>  (4) 
0

>  <fr_Ndealkylation2>  (4) 
0

>  <fr_Nhpyrrole>  (4) 
0

>  <fr_SH>  (4) 
0

>  <fr_aldehyde>  (4) 
0

>  <fr_alkyl_carbamate>  (4) 
0

>  <fr_alkyl_halide>  (4) 
0

>  <fr_allylic_oxid>  (4) 
0

>  <fr_amide>  (4) 
0

>  <fr_amidine>  (4) 
0

>  <fr_aniline>  (4) 
0

>  <fr_aryl_methyl>  (4) 
0

>  <fr_azide>  (4) 
0

>  <fr_azo>  (4) 
0

>  <fr_barbitur>  (4) 
0

>  <fr_benzene>  (4) 
0

>  <fr_benzodiazepine>  (4) 
0

>  <fr_bicyclic>  (4) 
0

>  <fr_diazo>  (4) 
0

>  <fr_dihydropyridine>  (4) 
0

>  <fr_epoxide>  (4) 
0

>  <fr_ester>  (4) 
0

>  <fr_ether>  (4) 
0

>  <fr_furan>  (4) 
0

>  <fr_guanido>  (4) 
0

>  <fr_halogen>  (4) 
0

>  <fr_hdrzine>  (4) 
0

>  <fr_hdrzone>  (4) 
0

>  <fr_imidazole>  (4) 
0

>  <fr_imide>  (4) 
0

>  <fr_isocyan>  (4) 
0

>  <fr_isothiocyan>  (4) 
0

>  <fr_ketone>  (4) 
0

>  <fr_ketone_Topliss>  (4) 
0

>  <fr_lactam>  (4) 
0

>  <fr_lactone>  (4) 
0

>  <fr_methoxy>  (4) 
0

>  <fr_morpholine>  (4) 
0

>  <fr_nitrile>  (4) 
0

>  <fr_nitro>  (4) 
0

>  <fr_nitro_arom>  (4) 
0

>  <fr_nitro_arom_nonortho>  (4) 
0

>  <fr_nitroso>  (4) 
0

>  <fr_oxazole>  (4) 
0

>  <fr_oxime>  (4) 
0

>  <fr_para_hydroxylation>  (4) 
0

>  <fr_phenol>  (4) 
0

>  <fr_phenol_noOrthoHbond>  (4) 
0

>  <fr_phos_acid>  (4) 
0

>  <fr_phos_ester>  (4) 
0

>  <fr_piperdine>  (4) 
0

>  <fr_piperzine>  (4) 
0

>  <fr_priamide>  (4) 
0

>  <fr_prisulfonamd>  (4) 
0

>  <fr_pyridine>  (4) 
1

>  <fr_quatN>  (4) 
1

>  <fr_sulfide>  (4) 
0

>  <fr_sulfonamd>  (4) 
0

>  <fr_sulfone>  (4) 
0

>  <fr_term_acetylene>  (4) 
0

>  <fr_tetrazole>  (4) 
0

>  <fr_thiazole>  (4) 
0

>  <fr_thiocyan>  (4) 
0

>  <fr_thiophene>  (4) 
0

>  <fr_unbrch_alkane>  (4) 
0

>  <fr_urea>  (4) 
0

>  <NP-Likeness>  (4) 
-1.268541

$$$$
F024
     RDKit          3D

  0  0  0  0  0  0  0  0  0  0999 V3000
M  V30 BEGIN CTAB
M  V30 COUNTS 27 28 0 0 0
M  V30 BEGIN ATOM
M  V30 1 O -0.195325 1.983651 0.097303 0
M  V30 2 C 0.367016 1.288947 -0.975151 0 CFG=2
M  V30 3 C -0.595566 0.398694 -1.643109 0
M  V30 4 C -0.393408 -0.841880 -1.225386 0
M  V30 5 C 0.696791 -0.939222 -0.254184 0 CFG=2
M  V30 6 C 0.263738 -1.184331 1.138326 0
M  V30 7 C -0.922467 -1.003587 1.829938 0
M  V30 8 C -2.146230 -0.472665 1.210881 0
M  V30 9 N -0.771403 -1.392659 3.129985 0
M  V30 10 N 0.474988 -1.810361 3.265792 0
M  V30 11 C 1.132943 -1.703731 2.097317 0
M  V30 12 C 2.559058 -2.126119 2.041722 0
M  V30 13 C 1.414663 0.376397 -0.411895 0
M  V30 14 H 0.526827 2.158033 0.737168 0
M  V30 15 H 0.807537 2.012848 -1.723506 0
M  V30 16 H -1.333632 0.764359 -2.359016 0
M  V30 17 H -1.008579 -1.655542 -1.604928 0
M  V30 18 H 1.442707 -1.731062 -0.520677 0
M  V30 19 H -3.003832 -0.851384 1.850443 0
M  V30 20 H -2.257692 0.626713 1.263262 0
M  V30 21 H -2.383833 -0.906313 0.211611 0
M  V30 22 H -1.547714 -1.342104 3.840388 0
M  V30 23 H 2.875443 -2.131018 0.988913 0
M  V30 24 H 3.197126 -1.515312 2.709356 0
M  V30 25 H 2.585020 -3.183441 2.391303 0
M  V30 26 H 2.233133 0.288891 -1.156151 0
M  V30 27 H 1.828354 0.747838 0.548530 0
M  V30 END ATOM
M  V30 BEGIN BOND
M  V30 1 1 1 2
M  V30 2 1 2 3
M  V30 3 2 3 4
M  V30 4 1 4 5
M  V30 5 1 5 6
M  V30 6 2 6 7
M  V30 7 1 7 8
M  V30 8 1 7 9
M  V30 9 1 9 10
M  V30 10 2 10 11
M  V30 11 1 11 12
M  V30 12 1 5 13
M  V30 13 1 13 2
M  V30 14 1 11 6
M  V30 15 1 1 14
M  V30 16 1 2 15 CFG=3
M  V30 17 1 3 16
M  V30 18 1 4 17
M  V30 19 1 5 18 CFG=3
M  V30 20 1 8 19
M  V30 21 1 8 20
M  V30 22 1 8 21
M  V30 23 1 9 22
M  V30 24 1 12 23
M  V30 25 1 12 24
M  V30 26 1 12 25
M  V30 27 1 13 26
M  V30 28 1 13 27
M  V30 END BOND
M  V30 END CTAB
M  END
>  <Dataset>  (5) 
CF

>  <Ligand_Instance>  (5) 
024_B_1

>  <PDB_ID>  (5) 
nan

>  <Standardized_SMILES>  (5) 
[H]O[C@]1([H])C([H])=C([H])[C@]([H])(C2=C(C([H])([H])[H])N([H])N=C2C([H])([H])[H])C1([H])[H]

>  <Name>  (5) 
(1S,4R)‐4‐(3,5‐dimethyl‐1H‐pyrazol‐4‐yl)cyclopent‐2‐en‐1‐ol

>  <Pocket>  (5) 
A

>  <ATP_Site>  (5) 
1.0

>  <Peripheral>  (5) 
0.0

>  <Num_H_Atoms_ProtBoundConf>  (5) 
14.0

>  <Num_Resolved_Atoms>  (5) 
13.0

>  <Num_Not_Resolved_Atoms>  (5) 
0.0

>  <2D_Mol_H>  (5) 
<rdkit.Chem.rdchem.Mol object at 0x72a238d5f8b0>

>  <MW>  (5) 
178.235

>  <HBA>  (5) 
2

>  <HBD>  (5) 
2

>  <LogP>  (5) 
1.43094

>  <NRB>  (5) 
4

>  <TPSA>  (5) 
48.91

>  <Num_Heavy_Atoms>  (5) 
13

>  <Ro5>  (5) 
[True, True, True, True, True, True]

>  <Ro5_Fulfilled>  (5) 
True

>  <Ro3>  (5) 
[True, True, True, True]

>  <Ro3_Fulfilled>  (5) 
True

>  <Fsp3>  (5) 
0.5

>  <Fsp3_0.42>  (5) 
True

>  <Fsp3_0.45>  (5) 
True

>  <Stereogenic_Carbons>  (5) 
2

>  <C_Atoms>  (5) 
10

>  <FCStereo>  (5) 
0.2

>  <SPS>  (5) 
351

>  <nSPS>  (5) 
27.0

>  <PBF>  (5) 
0.782856

>  <PBF_0.6>  (5) 
True

>  <nPBF>  (5) 
0.06022

>  <nPBF_0.016>  (5) 
True

>  <PMI1>  (5) 
383.71101

>  <PMI2>  (5) 
741.203959

>  <PMI3>  (5) 
902.509204

>  <NPR1>  (5) 
0.42516

>  <NPR2>  (5) 
0.82127

>  <Sum_NPR>  (5) 
1.24643

>  <Sum_NPR_1.07>  (5) 
True

>  <Sum_NPR_1.2>  (5) 
True

>  <MaxAbsEStateIndex>  (5) 
9.36277

>  <MaxEStateIndex>  (5) 
9.36277

>  <MinAbsEStateIndex>  (5) 
0.278981

>  <MinEStateIndex>  (5) 
-0.278981

>  <qed>  (5) 
0.639013

>  <MolWt>  (5) 
178.235

>  <HeavyAtomMolWt>  (5) 
164.123

>  <ExactMolWt>  (5) 
178.110613

>  <NumValenceElectrons>  (5) 
70

>  <NumRadicalElectrons>  (5) 
0

>  <MaxPartialCharge>  (5) 
0.072952

>  <MinPartialCharge>  (5) 
-0.389014

>  <MaxAbsPartialCharge>  (5) 
0.389014

>  <MinAbsPartialCharge>  (5) 
0.072952

>  <FpDensityMorgan1>  (5) 
1.461538

>  <FpDensityMorgan2>  (5) 
2.230769

>  <FpDensityMorgan3>  (5) 
2.692308

>  <BCUT2D_MWHI>  (5) 
16.265627

>  <BCUT2D_MWLOW>  (5) 
9.964245

>  <BCUT2D_CHGHI>  (5) 
2.221787

>  <BCUT2D_CHGLO>  (5) 
-2.081802

>  <BCUT2D_LOGPHI>  (5) 
2.311354

>  <BCUT2D_LOGPLOW>  (5) 
-2.017629

>  <BCUT2D_MRHI>  (5) 
5.330864

>  <BCUT2D_MRLOW>  (5) 
0.218051

>  <AvgIpc>  (5) 
2.59506

>  <BalabanJ>  (5) 
2.309238

>  <BertzCT>  (5) 
321.193987

>  <Chi0>  (5) 
9.422285

>  <Chi0n>  (5) 
7.910935

>  <Chi0v>  (5) 
7.910935

>  <Chi1>  (5) 
6.181541

>  <Chi1n>  (5) 
4.560584

>  <Chi1v>  (5) 
4.560584

>  <Chi2n>  (5) 
3.642135

>  <Chi2v>  (5) 
3.642135

>  <Chi3n>  (5) 
2.616892

>  <Chi3v>  (5) 
2.616892

>  <Chi4n>  (5) 
1.999672

>  <Chi4v>  (5) 
1.999672

>  <HallKierAlpha>  (5) 
-1.09

>  <Ipc>  (5) 
1383.166936

>  <Kappa1>  (5) 
8.505675

>  <Kappa2>  (5) 
2.996326

>  <Kappa3>  (5) 
1.395831

>  <LabuteASA>  (5) 
77.482059

>  <PEOE_VSA1>  (5) 
5.106527

>  <PEOE_VSA10>  (5) 
0.0

>  <PEOE_VSA11>  (5) 
0.0

>  <PEOE_VSA12>  (5) 
0.0

>  <PEOE_VSA13>  (5) 
0.0

>  <PEOE_VSA14>  (5) 
0.0

>  <PEOE_VSA2>  (5) 
5.098682

>  <PEOE_VSA3>  (5) 
0.0

>  <PEOE_VSA4>  (5) 
5.098682

>  <PEOE_VSA5>  (5) 
0.0

>  <PEOE_VSA6>  (5) 
12.15204

>  <PEOE_VSA7>  (5) 
20.268296

>  <PEOE_VSA8>  (5) 
17.175286

>  <PEOE_VSA9>  (5) 
11.797894

>  <SMR_VSA1>  (5) 
5.106527

>  <SMR_VSA10>  (5) 
0.0

>  <SMR_VSA2>  (5) 
0.0

>  <SMR_VSA3>  (5) 
10.197364

>  <SMR_VSA4>  (5) 
0.0

>  <SMR_VSA5>  (5) 
32.290168

>  <SMR_VSA6>  (5) 
0.0

>  <SMR_VSA7>  (5) 
29.103348

>  <SMR_VSA8>  (5) 
0.0

>  <SMR_VSA9>  (5) 
0.0

>  <SlogP_VSA1>  (5) 
0.0

>  <SlogP_VSA10>  (5) 
0.0

>  <SlogP_VSA11>  (5) 
0.0

>  <SlogP_VSA12>  (5) 
0.0

>  <SlogP_VSA2>  (5) 
21.407857

>  <SlogP_VSA3>  (5) 
0.0

>  <SlogP_VSA4>  (5) 
13.847474

>  <SlogP_VSA5>  (5) 
29.290035

>  <SlogP_VSA6>  (5) 
12.15204

>  <SlogP_VSA7>  (5) 
0.0

>  <SlogP_VSA8>  (5) 
0.0

>  <SlogP_VSA9>  (5) 
0.0

>  <EState_VSA1>  (5) 
0.0

>  <EState_VSA10>  (5) 
5.106527

>  <EState_VSA11>  (5) 
0.0

>  <EState_VSA2>  (5) 
6.103966

>  <EState_VSA3>  (5) 
5.917906

>  <EState_VSA4>  (5) 
17.808678

>  <EState_VSA5>  (5) 
5.563451

>  <EState_VSA6>  (5) 
0.0

>  <EState_VSA7>  (5) 
19.923495

>  <EState_VSA8>  (5) 
16.273384

>  <EState_VSA9>  (5) 
0.0

>  <VSA_EState1>  (5) 
0.0

>  <VSA_EState10>  (5) 
0.0

>  <VSA_EState2>  (5) 
0.0

>  <VSA_EState3>  (5) 
16.471136

>  <VSA_EState4>  (5) 
3.398426

>  <VSA_EState5>  (5) 
0.341435

>  <VSA_EState6>  (5) 
0.0

>  <VSA_EState7>  (5) 
4.436574

>  <VSA_EState8>  (5) 
4.019096

>  <VSA_EState9>  (5) 
0.0

>  <FractionCSP3>  (5) 
0.5

>  <HeavyAtomCount>  (5) 
13

>  <NHOHCount>  (5) 
2

>  <NOCount>  (5) 
3

>  <NumAliphaticCarbocycles>  (5) 
1

>  <NumAliphaticHeterocycles>  (5) 
0

>  <NumAliphaticRings>  (5) 
1

>  <NumAromaticCarbocycles>  (5) 
0

>  <NumAromaticHeterocycles>  (5) 
1

>  <NAR>  (5) 
1

>  <NumHAcceptors>  (5) 
2

>  <NumHDonors>  (5) 
2

>  <NumHeteroatoms>  (5) 
3

>  <NumRotatableBonds>  (5) 
1

>  <NumSaturatedCarbocycles>  (5) 
0

>  <NumSaturatedHeterocycles>  (5) 
0

>  <NumSaturatedRings>  (5) 
0

>  <RingCount>  (5) 
2

>  <MolLogP>  (5) 
1.43094

>  <MolMR>  (5) 
50.5665

>  <fr_Al_COO>  (5) 
0

>  <fr_Al_OH>  (5) 
1

>  <fr_Al_OH_noTert>  (5) 
1

>  <fr_ArN>  (5) 
0

>  <fr_Ar_COO>  (5) 
0

>  <fr_Ar_N>  (5) 
2

>  <fr_Ar_NH>  (5) 
1

>  <fr_Ar_OH>  (5) 
0

>  <fr_COO>  (5) 
0

>  <fr_COO2>  (5) 
0

>  <fr_C_O>  (5) 
0

>  <fr_C_O_noCOO>  (5) 
0

>  <fr_C_S>  (5) 
0

>  <fr_HOCCN>  (5) 
0

>  <fr_Imine>  (5) 
0

>  <fr_NH0>  (5) 
1

>  <fr_NH1>  (5) 
1

>  <fr_NH2>  (5) 
0

>  <fr_N_O>  (5) 
0

>  <fr_Ndealkylation1>  (5) 
0

>  <fr_Ndealkylation2>  (5) 
0

>  <fr_Nhpyrrole>  (5) 
1

>  <fr_SH>  (5) 
0

>  <fr_aldehyde>  (5) 
0

>  <fr_alkyl_carbamate>  (5) 
0

>  <fr_alkyl_halide>  (5) 
0

>  <fr_allylic_oxid>  (5) 
1

>  <fr_amide>  (5) 
0

>  <fr_amidine>  (5) 
0

>  <fr_aniline>  (5) 
0

>  <fr_aryl_methyl>  (5) 
2

>  <fr_azide>  (5) 
0

>  <fr_azo>  (5) 
0

>  <fr_barbitur>  (5) 
0

>  <fr_benzene>  (5) 
0

>  <fr_benzodiazepine>  (5) 
0

>  <fr_bicyclic>  (5) 
0

>  <fr_diazo>  (5) 
0

>  <fr_dihydropyridine>  (5) 
0

>  <fr_epoxide>  (5) 
0

>  <fr_ester>  (5) 
0

>  <fr_ether>  (5) 
0

>  <fr_furan>  (5) 
0

>  <fr_guanido>  (5) 
0

>  <fr_halogen>  (5) 
0

>  <fr_hdrzine>  (5) 
0

>  <fr_hdrzone>  (5) 
0

>  <fr_imidazole>  (5) 
0

>  <fr_imide>  (5) 
0

>  <fr_isocyan>  (5) 
0

>  <fr_isothiocyan>  (5) 
0

>  <fr_ketone>  (5) 
0

>  <fr_ketone_Topliss>  (5) 
0

>  <fr_lactam>  (5) 
0

>  <fr_lactone>  (5) 
0

>  <fr_methoxy>  (5) 
0

>  <fr_morpholine>  (5) 
0

>  <fr_nitrile>  (5) 
0

>  <fr_nitro>  (5) 
0

>  <fr_nitro_arom>  (5) 
0

>  <fr_nitro_arom_nonortho>  (5) 
0

>  <fr_nitroso>  (5) 
0

>  <fr_oxazole>  (5) 
0

>  <fr_oxime>  (5) 
0

>  <fr_para_hydroxylation>  (5) 
0

>  <fr_phenol>  (5) 
0

>  <fr_phenol_noOrthoHbond>  (5) 
0

>  <fr_phos_acid>  (5) 
0

>  <fr_phos_ester>  (5) 
0

>  <fr_piperdine>  (5) 
0

>  <fr_piperzine>  (5) 
0

>  <fr_priamide>  (5) 
0

>  <fr_prisulfonamd>  (5) 
0

>  <fr_pyridine>  (5) 
0

>  <fr_quatN>  (5) 
0

>  <fr_sulfide>  (5) 
0

>  <fr_sulfonamd>  (5) 
0

>  <fr_sulfone>  (5) 
0

>  <fr_term_acetylene>  (5) 
0

>  <fr_tetrazole>  (5) 
0

>  <fr_thiazole>  (5) 
0

>  <fr_thiocyan>  (5) 
0

>  <fr_thiophene>  (5) 
0

>  <fr_unbrch_alkane>  (5) 
0

>  <fr_urea>  (5) 
0

>  <NP-Likeness>  (5) 
0.337358

$$$$
F030
     RDKit          3D

  0  0  0  0  0  0  0  0  0  0999 V3000
M  V30 BEGIN CTAB
M  V30 COUNTS 36 38 0 0 0
M  V30 BEGIN ATOM
M  V30 1 C 0.369496 -5.489543 4.063594 0
M  V30 2 C -0.288972 -4.290832 4.318993 0
M  V30 3 C 0.162994 -3.099473 3.745579 0
M  V30 4 C 1.279918 -3.128319 2.916164 0
M  V30 5 N 1.652825 -1.840833 2.382855 0
M  V30 6 C 1.059784 -1.502813 1.160169 0
M  V30 7 O 0.260468 -2.333523 0.628798 0
M  V30 8 O 1.225162 -0.345718 0.414876 0
M  V30 9 C 0.556687 -0.131878 -0.818231 0 CFG=2
M  V30 10 C 1.440231 0.324430 -1.926026 0
M  V30 11 O 0.808391 1.378872 -2.571467 0
M  V30 12 C -0.459363 1.529006 -2.056935 0 CFG=1
M  V30 13 C -0.293986 1.119767 -0.609382 0 CFG=2
M  V30 14 O 0.511502 2.134692 -0.134884 0
M  V30 15 C -0.011008 3.337119 -0.632127 0
M  V30 16 C -0.744190 2.997593 -1.910485 0 CFG=2
M  V30 17 N -2.170470 3.276640 -1.751534 0 CHG=1 VAL=4
M  V30 18 C 1.939279 -4.312341 2.657195 0
M  V30 19 C 1.488729 -5.489194 3.226683 0
M  V30 20 H 0.067591 -6.443942 4.477964 0
M  V30 21 H -1.146463 -4.372075 4.976189 0
M  V30 22 H -0.422829 -2.230288 4.011792 0
M  V30 23 H 2.308773 -1.102032 2.769356 0
M  V30 24 H -0.079444 -1.010940 -1.051932 0
M  V30 25 H 1.587174 -0.523741 -2.638702 0
M  V30 26 H 2.464962 0.615453 -1.565391 0
M  V30 27 H -1.247931 0.970485 -2.589551 0
M  V30 28 H -1.217820 0.945839 -0.068243 0
M  V30 29 H -0.703878 3.787796 0.113557 0
M  V30 30 H 0.778617 4.053763 -0.884249 0
M  V30 31 H -0.378598 3.526913 -2.795310 0
M  V30 32 H -2.670350 3.066133 -2.627394 0
M  V30 33 H -2.204762 4.315727 -1.535686 0
M  V30 34 H -2.548718 2.807655 -0.900604 0
M  V30 35 H 2.806213 -4.247678 1.996204 0
M  V30 36 H 2.033654 -6.419590 3.003146 0
M  V30 END ATOM
M  V30 BEGIN BOND
M  V30 1 2 1 2
M  V30 2 1 2 3
M  V30 3 2 3 4
M  V30 4 1 4 5
M  V30 5 1 5 6
M  V30 6 2 6 7
M  V30 7 1 6 8
M  V30 8 1 8 9
M  V30 9 1 9 10
M  V30 10 1 10 11
M  V30 11 1 11 12
M  V30 12 1 12 13
M  V30 13 1 13 14
M  V30 14 1 14 15
M  V30 15 1 15 16
M  V30 16 1 16 17
M  V30 17 1 4 18
M  V30 18 2 18 19
M  V30 19 1 19 1
M  V30 20 1 13 9
M  V30 21 1 16 12
M  V30 22 1 1 20
M  V30 23 1 2 21
M  V30 24 1 3 22
M  V30 25 1 5 23
M  V30 26 1 9 24 CFG=3
M  V30 27 1 10 25
M  V30 28 1 10 26
M  V30 29 1 12 27 CFG=3
M  V30 30 1 13 28 CFG=1
M  V30 31 1 15 29
M  V30 32 1 15 30
M  V30 33 1 16 31 CFG=3
M  V30 34 1 17 32
M  V30 35 1 17 33
M  V30 36 1 17 34
M  V30 37 1 18 35
M  V30 38 1 19 36
M  V30 END BOND
M  V30 END CTAB
M  END
>  <Dataset>  (6) 
CF

>  <Ligand_Instance>  (6) 
030_B_2

>  <PDB_ID>  (6) 
nan

>  <Standardized_SMILES>  (6) 
[H]C1=C([H])C([H])=C(N([H])C(=O)O[C@]2([H])C([H])([H])O[C@@]3([H])[C@]2([H])OC([H])([H])[C@]3([H])[N+]([H])([H])[H])C([H])=C1[H]

>  <Name>  (6) 
(3R,3aS,6S,6aR)‐6‐amino‐hexahydrofuro[3,2‐b]furan‐3‐yl N‐phenylcarbamate

>  <Pocket>  (6) 
G

>  <ATP_Site>  (6) 
0.0

>  <Peripheral>  (6) 
1.0

>  <Num_H_Atoms_ProtBoundConf>  (6) 
17.0

>  <Num_Resolved_Atoms>  (6) 
19.0

>  <Num_Not_Resolved_Atoms>  (6) 
0.0

>  <2D_Mol_H>  (6) 
<rdkit.Chem.rdchem.Mol object at 0x72a238d5f990>

>  <MW>  (6) 
265.289

>  <HBA>  (6) 
4

>  <HBD>  (6) 
2

>  <LogP>  (6) 
0.0118

>  <NRB>  (6) 
3

>  <TPSA>  (6) 
84.43

>  <Num_Heavy_Atoms>  (6) 
19

>  <Ro5>  (6) 
[True, True, True, True, True, True]

>  <Ro5_Fulfilled>  (6) 
True

>  <Ro3>  (6) 
[True, False, True, True]

>  <Ro3_Fulfilled>  (6) 
True

>  <Fsp3>  (6) 
0.461538

>  <Fsp3_0.42>  (6) 
True

>  <Fsp3_0.45>  (6) 
True

>  <Stereogenic_Carbons>  (6) 
4

>  <C_Atoms>  (6) 
13

>  <FCStereo>  (6) 
0.307692

>  <SPS>  (6) 
625

>  <nSPS>  (6) 
32.894737

>  <PBF>  (6) 
0.759821

>  <PBF_0.6>  (6) 
True

>  <nPBF>  (6) 
0.039991

>  <nPBF_0.016>  (6) 
True

>  <PMI1>  (6) 
428.547662

>  <PMI2>  (6) 
3527.423865

>  <PMI3>  (6) 
3672.962048

>  <NPR1>  (6) 
0.116676

>  <NPR2>  (6) 
0.960376

>  <Sum_NPR>  (6) 
1.077052

>  <Sum_NPR_1.07>  (6) 
True

>  <Sum_NPR_1.2>  (6) 
False

>  <MaxAbsEStateIndex>  (6) 
11.77845

>  <MaxEStateIndex>  (6) 
11.77845

>  <MinAbsEStateIndex>  (6) 
0.060625

>  <MinEStateIndex>  (6) 
-0.489294

>  <qed>  (6) 
0.788728

>  <MolWt>  (6) 
265.289

>  <HeavyAtomMolWt>  (6) 
248.153

>  <ExactMolWt>  (6) 
265.118283

>  <NumValenceElectrons>  (6) 
102

>  <NumRadicalElectrons>  (6) 
0

>  <MaxPartialCharge>  (6) 
0.411574

>  <MinPartialCharge>  (6) 
-0.440633

>  <MaxAbsPartialCharge>  (6) 
0.440633

>  <MinAbsPartialCharge>  (6) 
0.411574

>  <FpDensityMorgan1>  (6) 
1.210526

>  <FpDensityMorgan2>  (6) 
1.947368

>  <FpDensityMorgan3>  (6) 
2.736842

>  <BCUT2D_MWHI>  (6) 
16.634507

>  <BCUT2D_MWLOW>  (6) 
10.096612

>  <BCUT2D_CHGHI>  (6) 
2.496771

>  <BCUT2D_CHGLO>  (6) 
-2.161055

>  <BCUT2D_LOGPHI>  (6) 
2.269815

>  <BCUT2D_LOGPLOW>  (6) 
-2.662887

>  <BCUT2D_MRHI>  (6) 
5.841396

>  <BCUT2D_MRLOW>  (6) 
-0.430488

>  <AvgIpc>  (6) 
2.955287

>  <BalabanJ>  (6) 
1.558265

>  <BertzCT>  (6) 
453.216256

>  <Chi0>  (6) 
13.242276

>  <Chi0n>  (6) 
10.450466

>  <Chi0v>  (6) 
10.450466

>  <Chi1>  (6) 
9.237183

>  <Chi1n>  (6) 
6.328134

>  <Chi1v>  (6) 
6.328134

>  <Chi2n>  (6) 
4.790763

>  <Chi2v>  (6) 
4.790763

>  <Chi3n>  (6) 
3.389142

>  <Chi3v>  (6) 
3.389142

>  <Chi4n>  (6) 
2.450596

>  <Chi4v>  (6) 
2.450596

>  <HallKierAlpha>  (6) 
-1.63

>  <Ipc>  (6) 
39695.412333

>  <Kappa1>  (6) 
12.406176

>  <Kappa2>  (6) 
5.162343

>  <Kappa3>  (6) 
2.555498

>  <LabuteASA>  (6) 
110.366246

>  <PEOE_VSA1>  (6) 
19.944256

>  <PEOE_VSA10>  (6) 
24.856656

>  <PEOE_VSA11>  (6) 
6.103966

>  <PEOE_VSA12>  (6) 
0.0

>  <PEOE_VSA13>  (6) 
0.0

>  <PEOE_VSA14>  (6) 
6.09324

>  <PEOE_VSA2>  (6) 
5.316789

>  <PEOE_VSA3>  (6) 
4.794537

>  <PEOE_VSA4>  (6) 
0.0

>  <PEOE_VSA5>  (6) 
0.0

>  <PEOE_VSA6>  (6) 
18.199101

>  <PEOE_VSA7>  (6) 
12.132734

>  <PEOE_VSA8>  (6) 
5.687386

>  <PEOE_VSA9>  (6) 
6.606882

>  <SMR_VSA1>  (6) 
24.738794

>  <SMR_VSA10>  (6) 
11.780626

>  <SMR_VSA2>  (6) 
0.0

>  <SMR_VSA3>  (6) 
0.0

>  <SMR_VSA4>  (6) 
0.0

>  <SMR_VSA5>  (6) 
24.35374

>  <SMR_VSA6>  (6) 
18.530553

>  <SMR_VSA7>  (6) 
30.331835

>  <SMR_VSA8>  (6) 
0.0

>  <SMR_VSA9>  (6) 
0.0

>  <SlogP_VSA1>  (6) 
11.050456

>  <SlogP_VSA10>  (6) 
10.481923

>  <SlogP_VSA11>  (6) 
0.0

>  <SlogP_VSA12>  (6) 
0.0

>  <SlogP_VSA2>  (6) 
43.660744

>  <SlogP_VSA3>  (6) 
14.210589

>  <SlogP_VSA4>  (6) 
0.0

>  <SlogP_VSA5>  (6) 
0.0

>  <SlogP_VSA6>  (6) 
30.331835

>  <SlogP_VSA7>  (6) 
0.0

>  <SlogP_VSA8>  (6) 
0.0

>  <SlogP_VSA9>  (6) 
0.0

>  <EState_VSA1>  (6) 
6.09324

>  <EState_VSA10>  (6) 
4.794537

>  <EState_VSA11>  (6) 
0.0

>  <EState_VSA2>  (6) 
24.35374

>  <EState_VSA3>  (6) 
18.90115

>  <EState_VSA4>  (6) 
0.0

>  <EState_VSA5>  (6) 
0.0

>  <EState_VSA6>  (6) 
12.132734

>  <EState_VSA7>  (6) 
18.199101

>  <EState_VSA8>  (6) 
11.050456

>  <EState_VSA9>  (6) 
14.210589

>  <VSA_EState1>  (6) 
16.470396

>  <VSA_EState10>  (6) 
0.0

>  <VSA_EState2>  (6) 
11.77845

>  <VSA_EState3>  (6) 
2.672007

>  <VSA_EState4>  (6) 
4.65481

>  <VSA_EState5>  (6) 
0.0

>  <VSA_EState6>  (6) 
9.27659

>  <VSA_EState7>  (6) 
-1.101321

>  <VSA_EState8>  (6) 
0.915735

>  <VSA_EState9>  (6) 
0.0

>  <FractionCSP3>  (6) 
0.461538

>  <HeavyAtomCount>  (6) 
19

>  <NHOHCount>  (6) 
4

>  <NOCount>  (6) 
6

>  <NumAliphaticCarbocycles>  (6) 
0

>  <NumAliphaticHeterocycles>  (6) 
2

>  <NumAliphaticRings>  (6) 
2

>  <NumAromaticCarbocycles>  (6) 
1

>  <NumAromaticHeterocycles>  (6) 
0

>  <NAR>  (6) 
1

>  <NumHAcceptors>  (6) 
4

>  <NumHDonors>  (6) 
2

>  <NumHeteroatoms>  (6) 
6

>  <NumRotatableBonds>  (6) 
2

>  <NumSaturatedCarbocycles>  (6) 
0

>  <NumSaturatedHeterocycles>  (6) 
2

>  <NumSaturatedRings>  (6) 
2

>  <RingCount>  (6) 
3

>  <MolLogP>  (6) 
0.0118

>  <MolMR>  (6) 
66.4898

>  <fr_Al_COO>  (6) 
0

>  <fr_Al_OH>  (6) 
0

>  <fr_Al_OH_noTert>  (6) 
0

>  <fr_ArN>  (6) 
0

>  <fr_Ar_COO>  (6) 
0

>  <fr_Ar_N>  (6) 
0

>  <fr_Ar_NH>  (6) 
0

>  <fr_Ar_OH>  (6) 
0

>  <fr_COO>  (6) 
0

>  <fr_COO2>  (6) 
0

>  <fr_C_O>  (6) 
1

>  <fr_C_O_noCOO>  (6) 
1

>  <fr_C_S>  (6) 
0

>  <fr_HOCCN>  (6) 
0

>  <fr_Imine>  (6) 
0

>  <fr_NH0>  (6) 
0

>  <fr_NH1>  (6) 
1

>  <fr_NH2>  (6) 
0

>  <fr_N_O>  (6) 
0

>  <fr_Ndealkylation1>  (6) 
0

>  <fr_Ndealkylation2>  (6) 
0

>  <fr_Nhpyrrole>  (6) 
0

>  <fr_SH>  (6) 
0

>  <fr_aldehyde>  (6) 
0

>  <fr_alkyl_carbamate>  (6) 
0

>  <fr_alkyl_halide>  (6) 
0

>  <fr_allylic_oxid>  (6) 
0

>  <fr_amide>  (6) 
1

>  <fr_amidine>  (6) 
0

>  <fr_aniline>  (6) 
1

>  <fr_aryl_methyl>  (6) 
0

>  <fr_azide>  (6) 
0

>  <fr_azo>  (6) 
0

>  <fr_barbitur>  (6) 
0

>  <fr_benzene>  (6) 
1

>  <fr_benzodiazepine>  (6) 
0

>  <fr_bicyclic>  (6) 
1

>  <fr_diazo>  (6) 
0

>  <fr_dihydropyridine>  (6) 
0

>  <fr_epoxide>  (6) 
0

>  <fr_ester>  (6) 
0

>  <fr_ether>  (6) 
3

>  <fr_furan>  (6) 
0

>  <fr_guanido>  (6) 
0

>  <fr_halogen>  (6) 
0

>  <fr_hdrzine>  (6) 
0

>  <fr_hdrzone>  (6) 
0

>  <fr_imidazole>  (6) 
0

>  <fr_imide>  (6) 
0

>  <fr_isocyan>  (6) 
0

>  <fr_isothiocyan>  (6) 
0

>  <fr_ketone>  (6) 
0

>  <fr_ketone_Topliss>  (6) 
0

>  <fr_lactam>  (6) 
0

>  <fr_lactone>  (6) 
0

>  <fr_methoxy>  (6) 
0

>  <fr_morpholine>  (6) 
0

>  <fr_nitrile>  (6) 
0

>  <fr_nitro>  (6) 
0

>  <fr_nitro_arom>  (6) 
0

>  <fr_nitro_arom_nonortho>  (6) 
0

>  <fr_nitroso>  (6) 
0

>  <fr_oxazole>  (6) 
0

>  <fr_oxime>  (6) 
0

>  <fr_para_hydroxylation>  (6) 
1

>  <fr_phenol>  (6) 
0

>  <fr_phenol_noOrthoHbond>  (6) 
0

>  <fr_phos_acid>  (6) 
0

>  <fr_phos_ester>  (6) 
0

>  <fr_piperdine>  (6) 
0

>  <fr_piperzine>  (6) 
0

>  <fr_priamide>  (6) 
0

>  <fr_prisulfonamd>  (6) 
0

>  <fr_pyridine>  (6) 
0

>  <fr_quatN>  (6) 
1

>  <fr_sulfide>  (6) 
0

>  <fr_sulfonamd>  (6) 
0

>  <fr_sulfone>  (6) 
0

>  <fr_term_acetylene>  (6) 
0

>  <fr_tetrazole>  (6) 
0

>  <fr_thiazole>  (6) 
0

>  <fr_thiocyan>  (6) 
0

>  <fr_thiophene>  (6) 
0

>  <fr_unbrch_alkane>  (6) 
0

>  <fr_urea>  (6) 
0

>  <NP-Likeness>  (6) 
-0.360399

$$$$
F030
     RDKit          3D

  0  0  0  0  0  0  0  0  0  0999 V3000
M  V30 BEGIN CTAB
M  V30 COUNTS 36 38 0 0 0
M  V30 BEGIN ATOM
M  V30 1 C 0.369496 -5.489543 4.063594 0
M  V30 2 C -0.288972 -4.290832 4.318993 0
M  V30 3 C 0.162994 -3.099473 3.745579 0
M  V30 4 C 1.279918 -3.128319 2.916164 0
M  V30 5 N 1.652825 -1.840833 2.382855 0
M  V30 6 C 1.059784 -1.502813 1.160169 0
M  V30 7 O 0.260468 -2.333523 0.628798 0
M  V30 8 O 1.225162 -0.345718 0.414876 0
M  V30 9 C 0.556687 -0.131878 -0.818231 0 CFG=2
M  V30 10 C 1.440231 0.324430 -1.926026 0
M  V30 11 O 0.808391 1.378872 -2.571467 0
M  V30 12 C -0.459363 1.529006 -2.056935 0 CFG=1
M  V30 13 C -0.293986 1.119767 -0.609382 0 CFG=2
M  V30 14 O 0.511502 2.134692 -0.134884 0
M  V30 15 C -0.011008 3.337119 -0.632127 0
M  V30 16 C -0.744190 2.997593 -1.910485 0 CFG=2
M  V30 17 N -2.170470 3.276640 -1.751534 0 CHG=1 VAL=4
M  V30 18 C 1.939279 -4.312341 2.657195 0
M  V30 19 C 1.488729 -5.489194 3.226683 0
M  V30 20 H 0.067591 -6.443942 4.477964 0
M  V30 21 H -1.146463 -4.372075 4.976189 0
M  V30 22 H -0.422829 -2.230288 4.011792 0
M  V30 23 H 2.308773 -1.102032 2.769356 0
M  V30 24 H -0.079444 -1.010940 -1.051932 0
M  V30 25 H 1.587174 -0.523741 -2.638702 0
M  V30 26 H 2.464962 0.615453 -1.565391 0
M  V30 27 H -1.247931 0.970485 -2.589551 0
M  V30 28 H -1.217820 0.945839 -0.068243 0
M  V30 29 H -0.703878 3.787796 0.113557 0
M  V30 30 H 0.778617 4.053763 -0.884249 0
M  V30 31 H -0.378598 3.526913 -2.795310 0
M  V30 32 H -2.670350 3.066133 -2.627394 0
M  V30 33 H -2.204762 4.315727 -1.535686 0
M  V30 34 H -2.548718 2.807655 -0.900604 0
M  V30 35 H 2.806213 -4.247678 1.996204 0
M  V30 36 H 2.033654 -6.419590 3.003146 0
M  V30 END ATOM
M  V30 BEGIN BOND
M  V30 1 2 1 2
M  V30 2 1 2 3
M  V30 3 2 3 4
M  V30 4 1 4 5
M  V30 5 1 5 6
M  V30 6 2 6 7
M  V30 7 1 6 8
M  V30 8 1 8 9
M  V30 9 1 9 10
M  V30 10 1 10 11
M  V30 11 1 11 12
M  V30 12 1 12 13
M  V30 13 1 13 14
M  V30 14 1 14 15
M  V30 15 1 15 16
M  V30 16 1 16 17
M  V30 17 1 4 18
M  V30 18 2 18 19
M  V30 19 1 19 1
M  V30 20 1 13 9
M  V30 21 1 16 12
M  V30 22 1 1 20
M  V30 23 1 2 21
M  V30 24 1 3 22
M  V30 25 1 5 23
M  V30 26 1 9 24 CFG=3
M  V30 27 1 10 25
M  V30 28 1 10 26
M  V30 29 1 12 27 CFG=3
M  V30 30 1 13 28 CFG=1
M  V30 31 1 15 29
M  V30 32 1 15 30
M  V30 33 1 16 31 CFG=3
M  V30 34 1 17 32
M  V30 35 1 17 33
M  V30 36 1 17 34
M  V30 37 1 18 35
M  V30 38 1 19 36
M  V30 END BOND
M  V30 END CTAB
M  END
>  <Dataset>  (7) 
CF

>  <Ligand_Instance>  (7) 
030_B_3

>  <PDB_ID>  (7) 
nan

>  <Standardized_SMILES>  (7) 
[H]C1=C([H])C([H])=C(N([H])C(=O)O[C@]2([H])C([H])([H])O[C@@]3([H])[C@]2([H])OC([H])([H])[C@]3([H])[N+]([H])([H])[H])C([H])=C1[H]

>  <Name>  (7) 
(3R,3aS,6S,6aR)‐6‐amino‐hexahydrofuro[3,2‐b]furan‐3‐yl N‐phenylcarbamate

>  <Pocket>  (7) 
X

>  <ATP_Site>  (7) 
0.0

>  <Peripheral>  (7) 
1.0

>  <Num_H_Atoms_ProtBoundConf>  (7) 
17.0

>  <Num_Resolved_Atoms>  (7) 
19.0

>  <Num_Not_Resolved_Atoms>  (7) 
0.0

>  <2D_Mol_H>  (7) 
<rdkit.Chem.rdchem.Mol object at 0x72a238d5fa70>

>  <MW>  (7) 
265.289

>  <HBA>  (7) 
4

>  <HBD>  (7) 
2

>  <LogP>  (7) 
0.0118

>  <NRB>  (7) 
3

>  <TPSA>  (7) 
84.43

>  <Num_Heavy_Atoms>  (7) 
19

>  <Ro5>  (7) 
[True, True, True, True, True, True]

>  <Ro5_Fulfilled>  (7) 
True

>  <Ro3>  (7) 
[True, False, True, True]

>  <Ro3_Fulfilled>  (7) 
True

>  <Fsp3>  (7) 
0.461538

>  <Fsp3_0.42>  (7) 
True

>  <Fsp3_0.45>  (7) 
True

>  <Stereogenic_Carbons>  (7) 
4

>  <C_Atoms>  (7) 
13

>  <FCStereo>  (7) 
0.307692

>  <SPS>  (7) 
625

>  <nSPS>  (7) 
32.894737

>  <PBF>  (7) 
0.759821

>  <PBF_0.6>  (7) 
True

>  <nPBF>  (7) 
0.039991

>  <nPBF_0.016>  (7) 
True

>  <PMI1>  (7) 
428.547662

>  <PMI2>  (7) 
3527.423865

>  <PMI3>  (7) 
3672.962048

>  <NPR1>  (7) 
0.116676

>  <NPR2>  (7) 
0.960376

>  <Sum_NPR>  (7) 
1.077052

>  <Sum_NPR_1.07>  (7) 
True

>  <Sum_NPR_1.2>  (7) 
False

>  <MaxAbsEStateIndex>  (7) 
11.77845

>  <MaxEStateIndex>  (7) 
11.77845

>  <MinAbsEStateIndex>  (7) 
0.060625

>  <MinEStateIndex>  (7) 
-0.489294

>  <qed>  (7) 
0.788728

>  <MolWt>  (7) 
265.289

>  <HeavyAtomMolWt>  (7) 
248.153

>  <ExactMolWt>  (7) 
265.118283

>  <NumValenceElectrons>  (7) 
102

>  <NumRadicalElectrons>  (7) 
0

>  <MaxPartialCharge>  (7) 
0.411574

>  <MinPartialCharge>  (7) 
-0.440633

>  <MaxAbsPartialCharge>  (7) 
0.440633

>  <MinAbsPartialCharge>  (7) 
0.411574

>  <FpDensityMorgan1>  (7) 
1.210526

>  <FpDensityMorgan2>  (7) 
1.947368

>  <FpDensityMorgan3>  (7) 
2.736842

>  <BCUT2D_MWHI>  (7) 
16.634507

>  <BCUT2D_MWLOW>  (7) 
10.096612

>  <BCUT2D_CHGHI>  (7) 
2.496771

>  <BCUT2D_CHGLO>  (7) 
-2.161055

>  <BCUT2D_LOGPHI>  (7) 
2.269815

>  <BCUT2D_LOGPLOW>  (7) 
-2.662887

>  <BCUT2D_MRHI>  (7) 
5.841396

>  <BCUT2D_MRLOW>  (7) 
-0.430488

>  <AvgIpc>  (7) 
2.955287

>  <BalabanJ>  (7) 
1.558265

>  <BertzCT>  (7) 
453.216256

>  <Chi0>  (7) 
13.242276

>  <Chi0n>  (7) 
10.450466

>  <Chi0v>  (7) 
10.450466

>  <Chi1>  (7) 
9.237183

>  <Chi1n>  (7) 
6.328134

>  <Chi1v>  (7) 
6.328134

>  <Chi2n>  (7) 
4.790763

>  <Chi2v>  (7) 
4.790763

>  <Chi3n>  (7) 
3.389142

>  <Chi3v>  (7) 
3.389142

>  <Chi4n>  (7) 
2.450596

>  <Chi4v>  (7) 
2.450596

>  <HallKierAlpha>  (7) 
-1.63

>  <Ipc>  (7) 
39695.412333

>  <Kappa1>  (7) 
12.406176

>  <Kappa2>  (7) 
5.162343

>  <Kappa3>  (7) 
2.555498

>  <LabuteASA>  (7) 
110.366246

>  <PEOE_VSA1>  (7) 
19.944256

>  <PEOE_VSA10>  (7) 
24.856656

>  <PEOE_VSA11>  (7) 
6.103966

>  <PEOE_VSA12>  (7) 
0.0

>  <PEOE_VSA13>  (7) 
0.0

>  <PEOE_VSA14>  (7) 
6.09324

>  <PEOE_VSA2>  (7) 
5.316789

>  <PEOE_VSA3>  (7) 
4.794537

>  <PEOE_VSA4>  (7) 
0.0

>  <PEOE_VSA5>  (7) 
0.0

>  <PEOE_VSA6>  (7) 
18.199101

>  <PEOE_VSA7>  (7) 
12.132734

>  <PEOE_VSA8>  (7) 
5.687386

>  <PEOE_VSA9>  (7) 
6.606882

>  <SMR_VSA1>  (7) 
24.738794

>  <SMR_VSA10>  (7) 
11.780626

>  <SMR_VSA2>  (7) 
0.0

>  <SMR_VSA3>  (7) 
0.0

>  <SMR_VSA4>  (7) 
0.0

>  <SMR_VSA5>  (7) 
24.35374

>  <SMR_VSA6>  (7) 
18.530553

>  <SMR_VSA7>  (7) 
30.331835

>  <SMR_VSA8>  (7) 
0.0

>  <SMR_VSA9>  (7) 
0.0

>  <SlogP_VSA1>  (7) 
11.050456

>  <SlogP_VSA10>  (7) 
10.481923

>  <SlogP_VSA11>  (7) 
0.0

>  <SlogP_VSA12>  (7) 
0.0

>  <SlogP_VSA2>  (7) 
43.660744

>  <SlogP_VSA3>  (7) 
14.210589

>  <SlogP_VSA4>  (7) 
0.0

>  <SlogP_VSA5>  (7) 
0.0

>  <SlogP_VSA6>  (7) 
30.331835

>  <SlogP_VSA7>  (7) 
0.0

>  <SlogP_VSA8>  (7) 
0.0

>  <SlogP_VSA9>  (7) 
0.0

>  <EState_VSA1>  (7) 
6.09324

>  <EState_VSA10>  (7) 
4.794537

>  <EState_VSA11>  (7) 
0.0

>  <EState_VSA2>  (7) 
24.35374

>  <EState_VSA3>  (7) 
18.90115

>  <EState_VSA4>  (7) 
0.0

>  <EState_VSA5>  (7) 
0.0

>  <EState_VSA6>  (7) 
12.132734

>  <EState_VSA7>  (7) 
18.199101

>  <EState_VSA8>  (7) 
11.050456

>  <EState_VSA9>  (7) 
14.210589

>  <VSA_EState1>  (7) 
16.470396

>  <VSA_EState10>  (7) 
0.0

>  <VSA_EState2>  (7) 
11.77845

>  <VSA_EState3>  (7) 
2.672007

>  <VSA_EState4>  (7) 
4.65481

>  <VSA_EState5>  (7) 
0.0

>  <VSA_EState6>  (7) 
9.27659

>  <VSA_EState7>  (7) 
-1.101321

>  <VSA_EState8>  (7) 
0.915735

>  <VSA_EState9>  (7) 
0.0

>  <FractionCSP3>  (7) 
0.461538

>  <HeavyAtomCount>  (7) 
19

>  <NHOHCount>  (7) 
4

>  <NOCount>  (7) 
6

>  <NumAliphaticCarbocycles>  (7) 
0

>  <NumAliphaticHeterocycles>  (7) 
2

>  <NumAliphaticRings>  (7) 
2

>  <NumAromaticCarbocycles>  (7) 
1

>  <NumAromaticHeterocycles>  (7) 
0

>  <NAR>  (7) 
1

>  <NumHAcceptors>  (7) 
4

>  <NumHDonors>  (7) 
2

>  <NumHeteroatoms>  (7) 
6

>  <NumRotatableBonds>  (7) 
2

>  <NumSaturatedCarbocycles>  (7) 
0

>  <NumSaturatedHeterocycles>  (7) 
2

>  <NumSaturatedRings>  (7) 
2

>  <RingCount>  (7) 
3

>  <MolLogP>  (7) 
0.0118

>  <MolMR>  (7) 
66.4898

>  <fr_Al_COO>  (7) 
0

>  <fr_Al_OH>  (7) 
0

>  <fr_Al_OH_noTert>  (7) 
0

>  <fr_ArN>  (7) 
0

>  <fr_Ar_COO>  (7) 
0

>  <fr_Ar_N>  (7) 
0

>  <fr_Ar_NH>  (7) 
0

>  <fr_Ar_OH>  (7) 
0

>  <fr_COO>  (7) 
0

>  <fr_COO2>  (7) 
0

>  <fr_C_O>  (7) 
1

>  <fr_C_O_noCOO>  (7) 
1

>  <fr_C_S>  (7) 
0

>  <fr_HOCCN>  (7) 
0

>  <fr_Imine>  (7) 
0

>  <fr_NH0>  (7) 
0

>  <fr_NH1>  (7) 
1

>  <fr_NH2>  (7) 
0

>  <fr_N_O>  (7) 
0

>  <fr_Ndealkylation1>  (7) 
0

>  <fr_Ndealkylation2>  (7) 
0

>  <fr_Nhpyrrole>  (7) 
0

>  <fr_SH>  (7) 
0

>  <fr_aldehyde>  (7) 
0

>  <fr_alkyl_carbamate>  (7) 
0

>  <fr_alkyl_halide>  (7) 
0

>  <fr_allylic_oxid>  (7) 
0

>  <fr_amide>  (7) 
1

>  <fr_amidine>  (7) 
0

>  <fr_aniline>  (7) 
1

>  <fr_aryl_methyl>  (7) 
0

>  <fr_azide>  (7) 
0

>  <fr_azo>  (7) 
0

>  <fr_barbitur>  (7) 
0

>  <fr_benzene>  (7) 
1

>  <fr_benzodiazepine>  (7) 
0

>  <fr_bicyclic>  (7) 
1

>  <fr_diazo>  (7) 
0

>  <fr_dihydropyridine>  (7) 
0

>  <fr_epoxide>  (7) 
0

>  <fr_ester>  (7) 
0

>  <fr_ether>  (7) 
3

>  <fr_furan>  (7) 
0

>  <fr_guanido>  (7) 
0

>  <fr_halogen>  (7) 
0

>  <fr_hdrzine>  (7) 
0

>  <fr_hdrzone>  (7) 
0

>  <fr_imidazole>  (7) 
0

>  <fr_imide>  (7) 
0

>  <fr_isocyan>  (7) 
0

>  <fr_isothiocyan>  (7) 
0

>  <fr_ketone>  (7) 
0

>  <fr_ketone_Topliss>  (7) 
0

>  <fr_lactam>  (7) 
0

>  <fr_lactone>  (7) 
0

>  <fr_methoxy>  (7) 
0

>  <fr_morpholine>  (7) 
0

>  <fr_nitrile>  (7) 
0

>  <fr_nitro>  (7) 
0

>  <fr_nitro_arom>  (7) 
0

>  <fr_nitro_arom_nonortho>  (7) 
0

>  <fr_nitroso>  (7) 
0

>  <fr_oxazole>  (7) 
0

>  <fr_oxime>  (7) 
0

>  <fr_para_hydroxylation>  (7) 
1

>  <fr_phenol>  (7) 
0

>  <fr_phenol_noOrthoHbond>  (7) 
0

>  <fr_phos_acid>  (7) 
0

>  <fr_phos_ester>  (7) 
0

>  <fr_piperdine>  (7) 
0

>  <fr_piperzine>  (7) 
0

>  <fr_priamide>  (7) 
0

>  <fr_prisulfonamd>  (7) 
0

>  <fr_pyridine>  (7) 
0

>  <fr_quatN>  (7) 
1

>  <fr_sulfide>  (7) 
0

>  <fr_sulfonamd>  (7) 
0

>  <fr_sulfone>  (7) 
0

>  <fr_term_acetylene>  (7) 
0

>  <fr_tetrazole>  (7) 
0

>  <fr_thiazole>  (7) 
0

>  <fr_thiocyan>  (7) 
0

>  <fr_thiophene>  (7) 
0

>  <fr_unbrch_alkane>  (7) 
0

>  <fr_urea>  (7) 
0

>  <NP-Likeness>  (7) 
-0.360399

$$$$
F032
     RDKit          3D

  0  0  0  0  0  0  0  0  0  0999 V3000
M  V30 BEGIN CTAB
M  V30 COUNTS 36 38 0 0 0
M  V30 BEGIN ATOM
M  V30 1 C 4.124081 -2.542426 3.556560 0
M  V30 2 C 3.981642 -3.880176 3.935703 0
M  V30 3 C 3.270613 -4.682734 3.070165 0
M  V30 4 F 3.093377 -6.000591 3.379178 0
M  V30 5 C 2.713488 -4.240609 1.889209 0
M  V30 6 C 2.862653 -2.915637 1.527816 0
M  V30 7 N 2.379651 -2.241814 0.367594 0
M  V30 8 C 1.088161 -1.671135 0.516118 0
M  V30 9 O 0.545913 -1.835045 1.644038 0
M  V30 10 O 0.355635 -0.967097 -0.404032 0
M  V30 11 C -0.918461 -0.447859 -0.141941 0 CFG=2
M  V30 12 C -2.002499 -0.920829 -1.049556 0
M  V30 13 O -2.930220 0.097527 -1.213686 0
M  V30 14 C -2.533768 1.171964 -0.429425 0 CFG=1
M  V30 15 C -1.006366 1.038285 -0.339598 0 CFG=2
M  V30 16 O -0.568413 1.344796 -1.618332 0
M  V30 17 C -1.411242 2.327158 -2.119749 0
M  V30 18 C -2.568515 2.494291 -1.187383 0 CFG=2
M  V30 19 N -2.239555 3.536243 -0.235817 0 CHG=1 VAL=4
M  V30 20 C 3.576477 -2.063842 2.375121 0
M  V30 21 H 4.681896 -1.866470 4.213835 0
M  V30 22 H 4.393985 -4.288878 4.847997 0
M  V30 23 H 2.157990 -4.812785 1.187263 0
M  V30 24 H 2.818919 -2.093477 -0.587148 0
M  V30 25 H -1.185985 -0.718441 0.915566 0
M  V30 26 H -1.641771 -1.262767 -2.025792 0
M  V30 27 H -2.457350 -1.837127 -0.573531 0
M  V30 28 H -3.010605 1.223248 0.550915 0
M  V30 29 H -0.592926 1.648321 0.457732 0
M  V30 30 H -0.772021 3.253687 -2.173244 0
M  V30 31 H -1.719614 2.010605 -3.141452 0
M  V30 32 H -3.552129 2.618325 -1.669294 0
M  V30 33 H -1.239517 3.841515 -0.334672 0
M  V30 34 H -2.892281 4.343070 -0.329273 0
M  V30 35 H -2.336740 3.210377 0.758325 0
M  V30 36 H 3.749161 -0.996541 2.175773 0
M  V30 END ATOM
M  V30 BEGIN BOND
M  V30 1 2 1 2
M  V30 2 1 2 3
M  V30 3 1 3 4
M  V30 4 2 3 5
M  V30 5 1 5 6
M  V30 6 1 6 7
M  V30 7 1 7 8
M  V30 8 2 8 9
M  V30 9 1 8 10
M  V30 10 1 10 11
M  V30 11 1 11 12
M  V30 12 1 12 13
M  V30 13 1 13 14
M  V30 14 1 14 15
M  V30 15 1 15 16
M  V30 16 1 16 17
M  V30 17 1 17 18
M  V30 18 1 18 19
M  V30 19 2 6 20
M  V30 20 1 20 1
M  V30 21 1 15 11
M  V30 22 1 18 14
M  V30 23 1 1 21
M  V30 24 1 2 22
M  V30 25 1 5 23
M  V30 26 1 7 24
M  V30 27 1 11 25 CFG=1
M  V30 28 1 12 26
M  V30 29 1 12 27
M  V30 30 1 14 28 CFG=1
M  V30 31 1 15 29 CFG=1
M  V30 32 1 17 30
M  V30 33 1 17 31
M  V30 34 1 18 32 CFG=3
M  V30 35 1 19 33
M  V30 36 1 19 34
M  V30 37 1 19 35
M  V30 38 1 20 36
M  V30 END BOND
M  V30 END CTAB
M  END
>  <Dataset>  (8) 
CF

>  <Ligand_Instance>  (8) 
032_B_1

>  <PDB_ID>  (8) 
nan

>  <Standardized_SMILES>  (8) 
[H]C1=C([H])C(F)=C([H])C(N([H])C(=O)O[C@]2([H])C([H])([H])O[C@@]3([H])[C@]2([H])OC([H])([H])[C@]3([H])[N+]([H])([H])[H])=C1[H]

>  <Name>  (8) 
(3R,3aS,6S,6aR)‐6‐amino‐hexahydrofuro[3,2‐b]furan‐3‐yl N‐(3‐fluorophenyl)carbamate

>  <Pocket>  (8) 
A

>  <ATP_Site>  (8) 
1.0

>  <Peripheral>  (8) 
1.0

>  <Num_H_Atoms_ProtBoundConf>  (8) 
16.0

>  <Num_Resolved_Atoms>  (8) 
20.0

>  <Num_Not_Resolved_Atoms>  (8) 
0.0

>  <2D_Mol_H>  (8) 
<rdkit.Chem.rdchem.Mol object at 0x72a238d5fb50>

>  <MW>  (8) 
283.279

>  <HBA>  (8) 
4

>  <HBD>  (8) 
2

>  <LogP>  (8) 
0.1509

>  <NRB>  (8) 
3

>  <TPSA>  (8) 
84.43

>  <Num_Heavy_Atoms>  (8) 
20

>  <Ro5>  (8) 
[True, True, True, True, True, True]

>  <Ro5_Fulfilled>  (8) 
True

>  <Ro3>  (8) 
[True, False, True, True]

>  <Ro3_Fulfilled>  (8) 
True

>  <Fsp3>  (8) 
0.461538

>  <Fsp3_0.42>  (8) 
True

>  <Fsp3_0.45>  (8) 
True

>  <Stereogenic_Carbons>  (8) 
4

>  <C_Atoms>  (8) 
13

>  <FCStereo>  (8) 
0.307692

>  <SPS>  (8) 
638

>  <nSPS>  (8) 
31.9

>  <PBF>  (8) 
0.783223

>  <PBF_0.6>  (8) 
True

>  <nPBF>  (8) 
0.039161

>  <nPBF_0.016>  (8) 
True

>  <PMI1>  (8) 
478.595837

>  <PMI2>  (8) 
4217.759291

>  <PMI3>  (8) 
4377.32995

>  <NPR1>  (8) 
0.109335

>  <NPR2>  (8) 
0.963546

>  <Sum_NPR>  (8) 
1.072881

>  <Sum_NPR_1.07>  (8) 
True

>  <Sum_NPR_1.2>  (8) 
False

>  <MaxAbsEStateIndex>  (8) 
13.002593

>  <MaxEStateIndex>  (8) 
13.002593

>  <MinAbsEStateIndex>  (8) 
0.055445

>  <MinEStateIndex>  (8) 
-0.651887

>  <qed>  (8) 
0.808966

>  <MolWt>  (8) 
283.279

>  <HeavyAtomMolWt>  (8) 
267.151

>  <ExactMolWt>  (8) 
283.108862

>  <NumValenceElectrons>  (8) 
108

>  <NumRadicalElectrons>  (8) 
0

>  <MaxPartialCharge>  (8) 
0.411576

>  <MinPartialCharge>  (8) 
-0.440633

>  <MaxAbsPartialCharge>  (8) 
0.440633

>  <MinAbsPartialCharge>  (8) 
0.411576

>  <FpDensityMorgan1>  (8) 
1.35

>  <FpDensityMorgan2>  (8) 
2.15

>  <FpDensityMorgan3>  (8) 
2.95

>  <BCUT2D_MWHI>  (8) 
19.142146

>  <BCUT2D_MWLOW>  (8) 
10.096604

>  <BCUT2D_CHGHI>  (8) 
2.496872

>  <BCUT2D_CHGLO>  (8) 
-2.16162

>  <BCUT2D_LOGPHI>  (8) 
2.270487

>  <BCUT2D_LOGPLOW>  (8) 
-2.662887

>  <BCUT2D_MRHI>  (8) 
5.841879

>  <BCUT2D_MRLOW>  (8) 
-0.430488

>  <AvgIpc>  (8) 
2.942364

>  <BalabanJ>  (8) 
1.570788

>  <BertzCT>  (8) 
512.899453

>  <Chi0>  (8) 
14.11252

>  <Chi0n>  (8) 
10.75108

>  <Chi0v>  (8) 
10.75108

>  <Chi1>  (8) 
9.63103

>  <Chi1n>  (8) 
6.4278

>  <Chi1v>  (8) 
6.4278

>  <Chi2n>  (8) 
4.935085

>  <Chi2v>  (8) 
4.935085

>  <Chi3n>  (8) 
3.439971

>  <Chi3v>  (8) 
3.439971

>  <Chi4n>  (8) 
2.495345

>  <Chi4v>  (8) 
2.495345

>  <HallKierAlpha>  (8) 
-1.7

>  <Ipc>  (8) 
55107.543562

>  <Kappa1>  (8) 
13.290803

>  <Kappa2>  (8) 
5.354095

>  <Kappa3>  (8) 
2.601195

>  <LabuteASA>  (8) 
114.531782

>  <PEOE_VSA1>  (8) 
19.944256

>  <PEOE_VSA10>  (8) 
30.673876

>  <PEOE_VSA11>  (8) 
6.103966

>  <PEOE_VSA12>  (8) 
0.0

>  <PEOE_VSA13>  (8) 
0.0

>  <PEOE_VSA14>  (8) 
6.09324

>  <PEOE_VSA2>  (8) 
5.316789

>  <PEOE_VSA3>  (8) 
9.184952

>  <PEOE_VSA4>  (8) 
0.0

>  <PEOE_VSA5>  (8) 
0.0

>  <PEOE_VSA6>  (8) 
6.066367

>  <PEOE_VSA7>  (8) 
18.199101

>  <PEOE_VSA8>  (8) 
5.687386

>  <PEOE_VSA9>  (8) 
6.606882

>  <SMR_VSA1>  (8) 
29.129209

>  <SMR_VSA10>  (8) 
11.780626

>  <SMR_VSA2>  (8) 
0.0

>  <SMR_VSA3>  (8) 
0.0

>  <SMR_VSA4>  (8) 
0.0

>  <SMR_VSA5>  (8) 
24.35374

>  <SMR_VSA6>  (8) 
18.530553

>  <SMR_VSA7>  (8) 
30.082689

>  <SMR_VSA8>  (8) 
0.0

>  <SMR_VSA9>  (8) 
0.0

>  <SlogP_VSA1>  (8) 
11.050456

>  <SlogP_VSA10>  (8) 
14.872339

>  <SlogP_VSA11>  (8) 
0.0

>  <SlogP_VSA12>  (8) 
0.0

>  <SlogP_VSA2>  (8) 
43.660744

>  <SlogP_VSA3>  (8) 
14.210589

>  <SlogP_VSA4>  (8) 
5.817221

>  <SlogP_VSA5>  (8) 
0.0

>  <SlogP_VSA6>  (8) 
24.265468

>  <SlogP_VSA7>  (8) 
0.0

>  <SlogP_VSA8>  (8) 
0.0

>  <SlogP_VSA9>  (8) 
0.0

>  <EState_VSA1>  (8) 
18.014427

>  <EState_VSA10>  (8) 
9.184952

>  <EState_VSA11>  (8) 
0.0

>  <EState_VSA2>  (8) 
24.856656

>  <EState_VSA3>  (8) 
12.294268

>  <EState_VSA4>  (8) 
0.0

>  <EState_VSA5>  (8) 
18.199101

>  <EState_VSA6>  (8) 
6.066367

>  <EState_VSA7>  (8) 
0.0

>  <EState_VSA8>  (8) 
11.050456

>  <EState_VSA9>  (8) 
14.210589

>  <VSA_EState1>  (8) 
29.308642

>  <VSA_EState10>  (8) 
0.0

>  <VSA_EState2>  (8) 
11.767302

>  <VSA_EState3>  (8) 
2.47284

>  <VSA_EState4>  (8) 
4.264046

>  <VSA_EState5>  (8) 
-0.424917

>  <VSA_EState6>  (8) 
5.656035

>  <VSA_EState7>  (8) 
-1.500925

>  <VSA_EState8>  (8) 
0.790311

>  <VSA_EState9>  (8) 
0.0

>  <FractionCSP3>  (8) 
0.461538

>  <HeavyAtomCount>  (8) 
20

>  <NHOHCount>  (8) 
4

>  <NOCount>  (8) 
6

>  <NumAliphaticCarbocycles>  (8) 
0

>  <NumAliphaticHeterocycles>  (8) 
2

>  <NumAliphaticRings>  (8) 
2

>  <NumAromaticCarbocycles>  (8) 
1

>  <NumAromaticHeterocycles>  (8) 
0

>  <NAR>  (8) 
1

>  <NumHAcceptors>  (8) 
4

>  <NumHDonors>  (8) 
2

>  <NumHeteroatoms>  (8) 
7

>  <NumRotatableBonds>  (8) 
2

>  <NumSaturatedCarbocycles>  (8) 
0

>  <NumSaturatedHeterocycles>  (8) 
2

>  <NumSaturatedRings>  (8) 
2

>  <RingCount>  (8) 
3

>  <MolLogP>  (8) 
0.1509

>  <MolMR>  (8) 
66.4478

>  <fr_Al_COO>  (8) 
0

>  <fr_Al_OH>  (8) 
0

>  <fr_Al_OH_noTert>  (8) 
0

>  <fr_ArN>  (8) 
0

>  <fr_Ar_COO>  (8) 
0

>  <fr_Ar_N>  (8) 
0

>  <fr_Ar_NH>  (8) 
0

>  <fr_Ar_OH>  (8) 
0

>  <fr_COO>  (8) 
0

>  <fr_COO2>  (8) 
0

>  <fr_C_O>  (8) 
1

>  <fr_C_O_noCOO>  (8) 
1

>  <fr_C_S>  (8) 
0

>  <fr_HOCCN>  (8) 
0

>  <fr_Imine>  (8) 
0

>  <fr_NH0>  (8) 
0

>  <fr_NH1>  (8) 
1

>  <fr_NH2>  (8) 
0

>  <fr_N_O>  (8) 
0

>  <fr_Ndealkylation1>  (8) 
0

>  <fr_Ndealkylation2>  (8) 
0

>  <fr_Nhpyrrole>  (8) 
0

>  <fr_SH>  (8) 
0

>  <fr_aldehyde>  (8) 
0

>  <fr_alkyl_carbamate>  (8) 
0

>  <fr_alkyl_halide>  (8) 
0

>  <fr_allylic_oxid>  (8) 
0

>  <fr_amide>  (8) 
1

>  <fr_amidine>  (8) 
0

>  <fr_aniline>  (8) 
1

>  <fr_aryl_methyl>  (8) 
0

>  <fr_azide>  (8) 
0

>  <fr_azo>  (8) 
0

>  <fr_barbitur>  (8) 
0

>  <fr_benzene>  (8) 
1

>  <fr_benzodiazepine>  (8) 
0

>  <fr_bicyclic>  (8) 
1

>  <fr_diazo>  (8) 
0

>  <fr_dihydropyridine>  (8) 
0

>  <fr_epoxide>  (8) 
0

>  <fr_ester>  (8) 
0

>  <fr_ether>  (8) 
3

>  <fr_furan>  (8) 
0

>  <fr_guanido>  (8) 
0

>  <fr_halogen>  (8) 
1

>  <fr_hdrzine>  (8) 
0

>  <fr_hdrzone>  (8) 
0

>  <fr_imidazole>  (8) 
0

>  <fr_imide>  (8) 
0

>  <fr_isocyan>  (8) 
0

>  <fr_isothiocyan>  (8) 
0

>  <fr_ketone>  (8) 
0

>  <fr_ketone_Topliss>  (8) 
0

>  <fr_lactam>  (8) 
0

>  <fr_lactone>  (8) 
0

>  <fr_methoxy>  (8) 
0

>  <fr_morpholine>  (8) 
0

>  <fr_nitrile>  (8) 
0

>  <fr_nitro>  (8) 
0

>  <fr_nitro_arom>  (8) 
0

>  <fr_nitro_arom_nonortho>  (8) 
0

>  <fr_nitroso>  (8) 
0

>  <fr_oxazole>  (8) 
0

>  <fr_oxime>  (8) 
0

>  <fr_para_hydroxylation>  (8) 
0

>  <fr_phenol>  (8) 
0

>  <fr_phenol_noOrthoHbond>  (8) 
0

>  <fr_phos_acid>  (8) 
0

>  <fr_phos_ester>  (8) 
0

>  <fr_piperdine>  (8) 
0

>  <fr_piperzine>  (8) 
0

>  <fr_priamide>  (8) 
0

>  <fr_prisulfonamd>  (8) 
0

>  <fr_pyridine>  (8) 
0

>  <fr_quatN>  (8) 
1

>  <fr_sulfide>  (8) 
0

>  <fr_sulfonamd>  (8) 
0

>  <fr_sulfone>  (8) 
0

>  <fr_term_acetylene>  (8) 
0

>  <fr_tetrazole>  (8) 
0

>  <fr_thiazole>  (8) 
0

>  <fr_thiocyan>  (8) 
0

>  <fr_thiophene>  (8) 
0

>  <fr_unbrch_alkane>  (8) 
0

>  <fr_urea>  (8) 
0

>  <NP-Likeness>  (8) 
-0.871174

$$$$
F032
     RDKit          3D

  0  0  0  0  0  0  0  0  0  0999 V3000
M  V30 BEGIN CTAB
M  V30 COUNTS 36 38 0 0 0
M  V30 BEGIN ATOM
M  V30 1 C 4.124081 -2.542426 3.556560 0
M  V30 2 C 3.981642 -3.880176 3.935703 0
M  V30 3 C 3.270613 -4.682734 3.070165 0
M  V30 4 F 3.093377 -6.000591 3.379178 0
M  V30 5 C 2.713488 -4.240609 1.889209 0
M  V30 6 C 2.862653 -2.915637 1.527816 0
M  V30 7 N 2.379651 -2.241814 0.367594 0
M  V30 8 C 1.088161 -1.671135 0.516118 0
M  V30 9 O 0.545913 -1.835045 1.644038 0
M  V30 10 O 0.355635 -0.967097 -0.404032 0
M  V30 11 C -0.918461 -0.447859 -0.141941 0 CFG=2
M  V30 12 C -2.002499 -0.920829 -1.049556 0
M  V30 13 O -2.930220 0.097527 -1.213686 0
M  V30 14 C -2.533768 1.171964 -0.429425 0 CFG=1
M  V30 15 C -1.006366 1.038285 -0.339598 0 CFG=2
M  V30 16 O -0.568413 1.344796 -1.618332 0
M  V30 17 C -1.411242 2.327158 -2.119749 0
M  V30 18 C -2.568515 2.494291 -1.187383 0 CFG=2
M  V30 19 N -2.239555 3.536243 -0.235817 0 CHG=1 VAL=4
M  V30 20 C 3.576477 -2.063842 2.375121 0
M  V30 21 H 4.681896 -1.866470 4.213835 0
M  V30 22 H 4.393985 -4.288878 4.847997 0
M  V30 23 H 2.157990 -4.812785 1.187263 0
M  V30 24 H 2.818919 -2.093477 -0.587148 0
M  V30 25 H -1.185985 -0.718441 0.915566 0
M  V30 26 H -1.641771 -1.262767 -2.025792 0
M  V30 27 H -2.457350 -1.837127 -0.573531 0
M  V30 28 H -3.010605 1.223248 0.550915 0
M  V30 29 H -0.592926 1.648321 0.457732 0
M  V30 30 H -0.772021 3.253687 -2.173244 0
M  V30 31 H -1.719614 2.010605 -3.141452 0
M  V30 32 H -3.552129 2.618325 -1.669294 0
M  V30 33 H -1.239517 3.841515 -0.334672 0
M  V30 34 H -2.892281 4.343070 -0.329273 0
M  V30 35 H -2.336740 3.210377 0.758325 0
M  V30 36 H 3.749161 -0.996541 2.175773 0
M  V30 END ATOM
M  V30 BEGIN BOND
M  V30 1 2 1 2
M  V30 2 1 2 3
M  V30 3 1 3 4
M  V30 4 2 3 5
M  V30 5 1 5 6
M  V30 6 1 6 7
M  V30 7 1 7 8
M  V30 8 2 8 9
M  V30 9 1 8 10
M  V30 10 1 10 11
M  V30 11 1 11 12
M  V30 12 1 12 13
M  V30 13 1 13 14
M  V30 14 1 14 15
M  V30 15 1 15 16
M  V30 16 1 16 17
M  V30 17 1 17 18
M  V30 18 1 18 19
M  V30 19 2 6 20
M  V30 20 1 20 1
M  V30 21 1 15 11
M  V30 22 1 18 14
M  V30 23 1 1 21
M  V30 24 1 2 22
M  V30 25 1 5 23
M  V30 26 1 7 24
M  V30 27 1 11 25 CFG=1
M  V30 28 1 12 26
M  V30 29 1 12 27
M  V30 30 1 14 28 CFG=1
M  V30 31 1 15 29 CFG=1
M  V30 32 1 17 30
M  V30 33 1 17 31
M  V30 34 1 18 32 CFG=3
M  V30 35 1 19 33
M  V30 36 1 19 34
M  V30 37 1 19 35
M  V30 38 1 20 36
M  V30 END BOND
M  V30 END CTAB
M  END
>  <Dataset>  (9) 
CF

>  <Ligand_Instance>  (9) 
032_B_2

>  <PDB_ID>  (9) 
nan

>  <Standardized_SMILES>  (9) 
[H]C1=C([H])C(F)=C([H])C(N([H])C(=O)O[C@]2([H])C([H])([H])O[C@@]3([H])[C@]2([H])OC([H])([H])[C@]3([H])[N+]([H])([H])[H])=C1[H]

>  <Name>  (9) 
(3R,3aS,6S,6aR)‐6‐amino‐hexahydrofuro[3,2‐b]furan‐3‐yl N‐(3‐fluorophenyl)carbamate

>  <Pocket>  (9) 
X

>  <ATP_Site>  (9) 
1.0

>  <Peripheral>  (9) 
1.0

>  <Num_H_Atoms_ProtBoundConf>  (9) 
16.0

>  <Num_Resolved_Atoms>  (9) 
20.0

>  <Num_Not_Resolved_Atoms>  (9) 
0.0

>  <2D_Mol_H>  (9) 
<rdkit.Chem.rdchem.Mol object at 0x72a238d5fc30>

>  <MW>  (9) 
283.279

>  <HBA>  (9) 
4

>  <HBD>  (9) 
2

>  <LogP>  (9) 
0.1509

>  <NRB>  (9) 
3

>  <TPSA>  (9) 
84.43

>  <Num_Heavy_Atoms>  (9) 
20

>  <Ro5>  (9) 
[True, True, True, True, True, True]

>  <Ro5_Fulfilled>  (9) 
True

>  <Ro3>  (9) 
[True, False, True, True]

>  <Ro3_Fulfilled>  (9) 
True

>  <Fsp3>  (9) 
0.461538

>  <Fsp3_0.42>  (9) 
True

>  <Fsp3_0.45>  (9) 
True

>  <Stereogenic_Carbons>  (9) 
4

>  <C_Atoms>  (9) 
13

>  <FCStereo>  (9) 
0.307692

>  <SPS>  (9) 
638

>  <nSPS>  (9) 
31.9

>  <PBF>  (9) 
0.783223

>  <PBF_0.6>  (9) 
True

>  <nPBF>  (9) 
0.039161

>  <nPBF_0.016>  (9) 
True

>  <PMI1>  (9) 
478.595837

>  <PMI2>  (9) 
4217.759291

>  <PMI3>  (9) 
4377.32995

>  <NPR1>  (9) 
0.109335

>  <NPR2>  (9) 
0.963546

>  <Sum_NPR>  (9) 
1.072881

>  <Sum_NPR_1.07>  (9) 
True

>  <Sum_NPR_1.2>  (9) 
False

>  <MaxAbsEStateIndex>  (9) 
13.002593

>  <MaxEStateIndex>  (9) 
13.002593

>  <MinAbsEStateIndex>  (9) 
0.055445

>  <MinEStateIndex>  (9) 
-0.651887

>  <qed>  (9) 
0.808966

>  <MolWt>  (9) 
283.279

>  <HeavyAtomMolWt>  (9) 
267.151

>  <ExactMolWt>  (9) 
283.108862

>  <NumValenceElectrons>  (9) 
108

>  <NumRadicalElectrons>  (9) 
0

>  <MaxPartialCharge>  (9) 
0.411576

>  <MinPartialCharge>  (9) 
-0.440633

>  <MaxAbsPartialCharge>  (9) 
0.440633

>  <MinAbsPartialCharge>  (9) 
0.411576

>  <FpDensityMorgan1>  (9) 
1.35

>  <FpDensityMorgan2>  (9) 
2.15

>  <FpDensityMorgan3>  (9) 
2.95

>  <BCUT2D_MWHI>  (9) 
19.142146

>  <BCUT2D_MWLOW>  (9) 
10.096604

>  <BCUT2D_CHGHI>  (9) 
2.496872

>  <BCUT2D_CHGLO>  (9) 
-2.16162

>  <BCUT2D_LOGPHI>  (9) 
2.270487

>  <BCUT2D_LOGPLOW>  (9) 
-2.662887

>  <BCUT2D_MRHI>  (9) 
5.841879

>  <BCUT2D_MRLOW>  (9) 
-0.430488

>  <AvgIpc>  (9) 
2.942364

>  <BalabanJ>  (9) 
1.570788

>  <BertzCT>  (9) 
512.899453

>  <Chi0>  (9) 
14.11252

>  <Chi0n>  (9) 
10.75108

>  <Chi0v>  (9) 
10.75108

>  <Chi1>  (9) 
9.63103

>  <Chi1n>  (9) 
6.4278

>  <Chi1v>  (9) 
6.4278

>  <Chi2n>  (9) 
4.935085

>  <Chi2v>  (9) 
4.935085

>  <Chi3n>  (9) 
3.439971

>  <Chi3v>  (9) 
3.439971

>  <Chi4n>  (9) 
2.495345

>  <Chi4v>  (9) 
2.495345

>  <HallKierAlpha>  (9) 
-1.7

>  <Ipc>  (9) 
55107.543562

>  <Kappa1>  (9) 
13.290803

>  <Kappa2>  (9) 
5.354095

>  <Kappa3>  (9) 
2.601195

>  <LabuteASA>  (9) 
114.531782

>  <PEOE_VSA1>  (9) 
19.944256

>  <PEOE_VSA10>  (9) 
30.673876

>  <PEOE_VSA11>  (9) 
6.103966

>  <PEOE_VSA12>  (9) 
0.0

>  <PEOE_VSA13>  (9) 
0.0

>  <PEOE_VSA14>  (9) 
6.09324

>  <PEOE_VSA2>  (9) 
5.316789

>  <PEOE_VSA3>  (9) 
9.184952

>  <PEOE_VSA4>  (9) 
0.0

>  <PEOE_VSA5>  (9) 
0.0

>  <PEOE_VSA6>  (9) 
6.066367

>  <PEOE_VSA7>  (9) 
18.199101

>  <PEOE_VSA8>  (9) 
5.687386

>  <PEOE_VSA9>  (9) 
6.606882

>  <SMR_VSA1>  (9) 
29.129209

>  <SMR_VSA10>  (9) 
11.780626

>  <SMR_VSA2>  (9) 
0.0

>  <SMR_VSA3>  (9) 
0.0

>  <SMR_VSA4>  (9) 
0.0

>  <SMR_VSA5>  (9) 
24.35374

>  <SMR_VSA6>  (9) 
18.530553

>  <SMR_VSA7>  (9) 
30.082689

>  <SMR_VSA8>  (9) 
0.0

>  <SMR_VSA9>  (9) 
0.0

>  <SlogP_VSA1>  (9) 
11.050456

>  <SlogP_VSA10>  (9) 
14.872339

>  <SlogP_VSA11>  (9) 
0.0

>  <SlogP_VSA12>  (9) 
0.0

>  <SlogP_VSA2>  (9) 
43.660744

>  <SlogP_VSA3>  (9) 
14.210589

>  <SlogP_VSA4>  (9) 
5.817221

>  <SlogP_VSA5>  (9) 
0.0

>  <SlogP_VSA6>  (9) 
24.265468

>  <SlogP_VSA7>  (9) 
0.0

>  <SlogP_VSA8>  (9) 
0.0

>  <SlogP_VSA9>  (9) 
0.0

>  <EState_VSA1>  (9) 
18.014427

>  <EState_VSA10>  (9) 
9.184952

>  <EState_VSA11>  (9) 
0.0

>  <EState_VSA2>  (9) 
24.856656

>  <EState_VSA3>  (9) 
12.294268

>  <EState_VSA4>  (9) 
0.0

>  <EState_VSA5>  (9) 
18.199101

>  <EState_VSA6>  (9) 
6.066367

>  <EState_VSA7>  (9) 
0.0

>  <EState_VSA8>  (9) 
11.050456

>  <EState_VSA9>  (9) 
14.210589

>  <VSA_EState1>  (9) 
29.308642

>  <VSA_EState10>  (9) 
0.0

>  <VSA_EState2>  (9) 
11.767302

>  <VSA_EState3>  (9) 
2.47284

>  <VSA_EState4>  (9) 
4.264046

>  <VSA_EState5>  (9) 
-0.424917

>  <VSA_EState6>  (9) 
5.656035

>  <VSA_EState7>  (9) 
-1.500925

>  <VSA_EState8>  (9) 
0.790311

>  <VSA_EState9>  (9) 
0.0

>  <FractionCSP3>  (9) 
0.461538

>  <HeavyAtomCount>  (9) 
20

>  <NHOHCount>  (9) 
4

>  <NOCount>  (9) 
6

>  <NumAliphaticCarbocycles>  (9) 
0

>  <NumAliphaticHeterocycles>  (9) 
2

>  <NumAliphaticRings>  (9) 
2

>  <NumAromaticCarbocycles>  (9) 
1

>  <NumAromaticHeterocycles>  (9) 
0

>  <NAR>  (9) 
1

>  <NumHAcceptors>  (9) 
4

>  <NumHDonors>  (9) 
2

>  <NumHeteroatoms>  (9) 
7

>  <NumRotatableBonds>  (9) 
2

>  <NumSaturatedCarbocycles>  (9) 
0

>  <NumSaturatedHeterocycles>  (9) 
2

>  <NumSaturatedRings>  (9) 
2

>  <RingCount>  (9) 
3

>  <MolLogP>  (9) 
0.1509

>  <MolMR>  (9) 
66.4478

>  <fr_Al_COO>  (9) 
0

>  <fr_Al_OH>  (9) 
0

>  <fr_Al_OH_noTert>  (9) 
0

>  <fr_ArN>  (9) 
0

>  <fr_Ar_COO>  (9) 
0

>  <fr_Ar_N>  (9) 
0

>  <fr_Ar_NH>  (9) 
0

>  <fr_Ar_OH>  (9) 
0

>  <fr_COO>  (9) 
0

>  <fr_COO2>  (9) 
0

>  <fr_C_O>  (9) 
1

>  <fr_C_O_noCOO>  (9) 
1

>  <fr_C_S>  (9) 
0

>  <fr_HOCCN>  (9) 
0

>  <fr_Imine>  (9) 
0

>  <fr_NH0>  (9) 
0

>  <fr_NH1>  (9) 
1

>  <fr_NH2>  (9) 
0

>  <fr_N_O>  (9) 
0

>  <fr_Ndealkylation1>  (9) 
0

>  <fr_Ndealkylation2>  (9) 
0

>  <fr_Nhpyrrole>  (9) 
0

>  <fr_SH>  (9) 
0

>  <fr_aldehyde>  (9) 
0

>  <fr_alkyl_carbamate>  (9) 
0

>  <fr_alkyl_halide>  (9) 
0

>  <fr_allylic_oxid>  (9) 
0

>  <fr_amide>  (9) 
1

>  <fr_amidine>  (9) 
0

>  <fr_aniline>  (9) 
1

>  <fr_aryl_methyl>  (9) 
0

>  <fr_azide>  (9) 
0

>  <fr_azo>  (9) 
0

>  <fr_barbitur>  (9) 
0

>  <fr_benzene>  (9) 
1

>  <fr_benzodiazepine>  (9) 
0

>  <fr_bicyclic>  (9) 
1

>  <fr_diazo>  (9) 
0

>  <fr_dihydropyridine>  (9) 
0

>  <fr_epoxide>  (9) 
0

>  <fr_ester>  (9) 
0

>  <fr_ether>  (9) 
3

>  <fr_furan>  (9) 
0

>  <fr_guanido>  (9) 
0

>  <fr_halogen>  (9) 
1

>  <fr_hdrzine>  (9) 
0

>  <fr_hdrzone>  (9) 
0

>  <fr_imidazole>  (9) 
0

>  <fr_imide>  (9) 
0

>  <fr_isocyan>  (9) 
0

>  <fr_isothiocyan>  (9) 
0

>  <fr_ketone>  (9) 
0

>  <fr_ketone_Topliss>  (9) 
0

>  <fr_lactam>  (9) 
0

>  <fr_lactone>  (9) 
0

>  <fr_methoxy>  (9) 
0

>  <fr_morpholine>  (9) 
0

>  <fr_nitrile>  (9) 
0

>  <fr_nitro>  (9) 
0

>  <fr_nitro_arom>  (9) 
0

>  <fr_nitro_arom_nonortho>  (9) 
0

>  <fr_nitroso>  (9) 
0

>  <fr_oxazole>  (9) 
0

>  <fr_oxime>  (9) 
0

>  <fr_para_hydroxylation>  (9) 
0

>  <fr_phenol>  (9) 
0

>  <fr_phenol_noOrthoHbond>  (9) 
0

>  <fr_phos_acid>  (9) 
0

>  <fr_phos_ester>  (9) 
0

>  <fr_piperdine>  (9) 
0

>  <fr_piperzine>  (9) 
0

>  <fr_priamide>  (9) 
0

>  <fr_prisulfonamd>  (9) 
0

>  <fr_pyridine>  (9) 
0

>  <fr_quatN>  (9) 
1

>  <fr_sulfide>  (9) 
0

>  <fr_sulfonamd>  (9) 
0

>  <fr_sulfone>  (9) 
0

>  <fr_term_acetylene>  (9) 
0

>  <fr_tetrazole>  (9) 
0

>  <fr_thiazole>  (9) 
0

>  <fr_thiocyan>  (9) 
0

>  <fr_thiophene>  (9) 
0

>  <fr_unbrch_alkane>  (9) 
0

>  <fr_urea>  (9) 
0

>  <NP-Likeness>  (9) 
-0.871174

$$$$
F055
     RDKit          3D

  0  0  0  0  0  0  0  0  0  0999 V3000
M  V30 BEGIN CTAB
M  V30 COUNTS 42 44 0 0 0
M  V30 BEGIN ATOM
M  V30 1 O 0.035628 -2.554574 -1.821077 0
M  V30 2 C -0.473515 -2.150287 -0.591620 0 CFG=1
M  V30 3 C -0.769400 -3.347542 0.287556 0 CFG=2
M  V30 4 N -1.844882 -4.137593 -0.284157 0 CHG=1 VAL=4
M  V30 5 C -1.193766 -2.857005 1.654929 0 CFG=2
M  V30 6 O -1.101645 -1.458940 1.740324 0
M  V30 7 C 0.279349 -1.279827 1.536900 0 CFG=1
M  V30 8 O 0.913676 -2.313680 2.254824 0
M  V30 9 C -0.066208 -3.215801 2.632514 0
M  V30 10 C 0.621380 -1.333741 0.086911 0 CFG=2
M  V30 11 N 0.775800 -0.065792 -0.571066 0 CHG=1 VAL=4
M  V30 12 C -0.088841 0.978533 -0.083451 0
M  V30 13 C 0.662130 2.210228 0.355134 0
M  V30 14 N 1.870120 1.896291 1.080193 0
M  V30 15 C 2.235954 2.430697 2.366657 0
M  V30 16 O 3.312618 2.110829 2.945020 0
M  V30 17 C 1.315160 3.393438 3.040079 0
M  V30 18 C 2.774059 0.977173 0.463114 0
M  V30 19 C 2.147843 0.357449 -0.730262 0
M  V30 20 H -0.646424 -3.080127 -2.307890 0
M  V30 21 H -1.349877 -1.478872 -0.695482 0
M  V30 22 H 0.148330 -3.965602 0.318397 0
M  V30 23 H -2.601554 -3.508325 -0.673108 0
M  V30 24 H -1.412795 -4.730246 -1.030580 0
M  V30 25 H -2.319577 -4.692185 0.461056 0
M  V30 26 H -2.166990 -3.234642 1.964808 0
M  V30 27 H 0.536064 -0.360789 2.063988 0
M  V30 28 H 0.208699 -4.268150 2.571261 0
M  V30 29 H -0.468296 -2.902256 3.634877 0
M  V30 30 H 1.595491 -1.893866 0.010315 0
M  V30 31 H 0.463685 -0.237143 -1.577367 0
M  V30 32 H -0.697817 0.641036 0.784411 0
M  V30 33 H -0.838892 1.328172 -0.824805 0
M  V30 34 H 0.008213 2.791125 1.038971 0
M  V30 35 H 0.932276 2.889961 -0.479394 0
M  V30 36 H 0.490008 2.846869 3.540258 0
M  V30 37 H 1.864184 3.913610 3.856418 0
M  V30 38 H 0.900187 4.149063 2.359337 0
M  V30 39 H 3.251018 0.268276 1.169758 0
M  V30 40 H 3.637511 1.602908 0.089991 0
M  V30 41 H 2.212716 1.062365 -1.595975 0
M  V30 42 H 2.713271 -0.573579 -1.010056 0
M  V30 END ATOM
M  V30 BEGIN BOND
M  V30 1 1 1 2
M  V30 2 1 2 3
M  V30 3 1 3 4
M  V30 4 1 3 5
M  V30 5 1 5 6
M  V30 6 1 6 7
M  V30 7 1 7 8
M  V30 8 1 8 9
M  V30 9 1 7 10
M  V30 10 1 10 11
M  V30 11 1 11 12
M  V30 12 1 12 13
M  V30 13 1 13 14
M  V30 14 1 14 15
M  V30 15 2 15 16
M  V30 16 1 15 17
M  V30 17 1 14 18
M  V30 18 1 18 19
M  V30 19 1 10 2
M  V30 20 1 19 11
M  V30 21 1 9 5
M  V30 22 1 1 20
M  V30 23 1 2 21 CFG=3
M  V30 24 1 3 22 CFG=1
M  V30 25 1 4 23
M  V30 26 1 4 24
M  V30 27 1 4 25
M  V30 28 1 5 26 CFG=1
M  V30 29 1 7 27 CFG=1
M  V30 30 1 9 28
M  V30 31 1 9 29
M  V30 32 1 10 30 CFG=1
M  V30 33 1 11 31
M  V30 34 1 12 32
M  V30 35 1 12 33
M  V30 36 1 13 34
M  V30 37 1 13 35
M  V30 38 1 17 36
M  V30 39 1 17 37
M  V30 40 1 17 38
M  V30 41 1 18 39
M  V30 42 1 18 40
M  V30 43 1 19 41
M  V30 44 1 19 42
M  V30 END BOND
M  V30 END CTAB
M  END
>  <Dataset>  (10) 
CF

>  <Ligand_Instance>  (10) 
055_B_1

>  <PDB_ID>  (10) 
nan

>  <Standardized_SMILES>  (10) 
[H]O[C@@]1([H])[C@]([H])([N+]([H])([H])[H])[C@]2([H])O[C@@]([H])(OC2([H])[H])[C@]1([H])[N+]1([H])C([H])([H])C([H])([H])N(C(=O)C([H])([H])[H])C([H])([H])C1([H])[H]

>  <Name>  (10) 
1‐{4‐[(1S,2S,3S,4R,5R)‐2‐amino‐3‐hydroxy‐6,8‐dioxabicyclo[3.2.1]octan‐4‐yl]piperazin‐1‐yl}ethan‐1‐one

>  <Pocket>  (10) 
A

>  <ATP_Site>  (10) 
1.0

>  <Peripheral>  (10) 
1.0

>  <Num_H_Atoms_ProtBoundConf>  (10) 
23.0

>  <Num_Resolved_Atoms>  (10) 
19.0

>  <Num_Not_Resolved_Atoms>  (10) 
0.0

>  <2D_Mol_H>  (10) 
<rdkit.Chem.rdchem.Mol object at 0x72a238d5fd10>

>  <MW>  (10) 
273.333

>  <HBA>  (10) 
4

>  <HBD>  (10) 
3

>  <LogP>  (10) 
-4.1715

>  <NRB>  (10) 
4

>  <TPSA>  (10) 
91.08

>  <Num_Heavy_Atoms>  (10) 
19

>  <Ro5>  (10) 
[True, True, True, True, True, True]

>  <Ro5_Fulfilled>  (10) 
True

>  <Ro3>  (10) 
[True, False, True, True]

>  <Ro3_Fulfilled>  (10) 
True

>  <Fsp3>  (10) 
0.916667

>  <Fsp3_0.42>  (10) 
True

>  <Fsp3_0.45>  (10) 
True

>  <Stereogenic_Carbons>  (10) 
5

>  <C_Atoms>  (10) 
12

>  <FCStereo>  (10) 
0.416667

>  <SPS>  (10) 
827

>  <nSPS>  (10) 
43.526316

>  <PBF>  (10) 
0.939754

>  <PBF_0.6>  (10) 
True

>  <nPBF>  (10) 
0.049461

>  <nPBF_0.016>  (10) 
True

>  <PMI1>  (10) 
695.061345

>  <PMI2>  (10) 
2060.725198

>  <PMI3>  (10) 
2345.641468

>  <NPR1>  (10) 
0.29632

>  <NPR2>  (10) 
0.878534

>  <Sum_NPR>  (10) 
1.174854

>  <Sum_NPR_1.07>  (10) 
True

>  <Sum_NPR_1.2>  (10) 
False

>  <MaxAbsEStateIndex>  (10) 
11.333213

>  <MaxEStateIndex>  (10) 
11.333213

>  <MinAbsEStateIndex>  (10) 
0.074853

>  <MinEStateIndex>  (10) 
-0.495252

>  <qed>  (10) 
0.452028

>  <MolWt>  (10) 
273.333

>  <HeavyAtomMolWt>  (10) 
250.149

>  <ExactMolWt>  (10) 
273.167759

>  <NumValenceElectrons>  (10) 
108

>  <NumRadicalElectrons>  (10) 
0

>  <MaxPartialCharge>  (10) 
0.219356

>  <MinPartialCharge>  (10) 
-0.380906

>  <MaxAbsPartialCharge>  (10) 
0.380906

>  <MinAbsPartialCharge>  (10) 
0.219356

>  <FpDensityMorgan1>  (10) 
1.421053

>  <FpDensityMorgan2>  (10) 
2.105263

>  <FpDensityMorgan3>  (10) 
2.736842

>  <BCUT2D_MWHI>  (10) 
16.730728

>  <BCUT2D_MWLOW>  (10) 
9.950858

>  <BCUT2D_CHGHI>  (10) 
2.552081

>  <BCUT2D_CHGLO>  (10) 
-2.414882

>  <BCUT2D_LOGPHI>  (10) 
2.245896

>  <BCUT2D_LOGPLOW>  (10) 
-3.212004

>  <BCUT2D_MRHI>  (10) 
5.727128

>  <BCUT2D_MRLOW>  (10) 
-0.941488

>  <AvgIpc>  (10) 
2.832225

>  <BalabanJ>  (10) 
1.669651

>  <BertzCT>  (10) 
358.883658

>  <Chi0>  (10) 
13.56855

>  <Chi0n>  (10) 
11.248564

>  <Chi0v>  (10) 
11.248564

>  <Chi1>  (10) 
9.075387

>  <Chi1n>  (10) 
6.959779

>  <Chi1v>  (10) 
6.959779

>  <Chi2n>  (10) 
5.720803

>  <Chi2v>  (10) 
5.720803

>  <Chi3n>  (10) 
4.633442

>  <Chi3v>  (10) 
4.633442

>  <Chi4n>  (10) 
3.376683

>  <Chi4v>  (10) 
3.376683

>  <HallKierAlpha>  (10) 
-0.73

>  <Ipc>  (10) 
32332.684745

>  <Kappa1>  (10) 
13.262205

>  <Kappa2>  (10) 
4.989334

>  <Kappa3>  (10) 
2.253751

>  <LabuteASA>  (10) 
111.778525

>  <PEOE_VSA1>  (10) 
30.11374

>  <PEOE_VSA10>  (10) 
12.145807

>  <PEOE_VSA11>  (10) 
12.145807

>  <PEOE_VSA12>  (10) 
12.197206

>  <PEOE_VSA13>  (10) 
0.0

>  <PEOE_VSA14>  (10) 
0.0

>  <PEOE_VSA2>  (10) 
4.794537

>  <PEOE_VSA3>  (10) 
0.0

>  <PEOE_VSA4>  (10) 
0.0

>  <PEOE_VSA5>  (10) 
0.0

>  <PEOE_VSA6>  (10) 
0.0

>  <PEOE_VSA7>  (10) 
0.0

>  <PEOE_VSA8>  (10) 
6.923737

>  <PEOE_VSA9>  (10) 
32.785908

>  <SMR_VSA1>  (10) 
30.008368

>  <SMR_VSA10>  (10) 
5.90718

>  <SMR_VSA2>  (10) 
0.0

>  <SMR_VSA3>  (10) 
4.89991

>  <SMR_VSA4>  (10) 
0.0

>  <SMR_VSA5>  (10) 
37.505378

>  <SMR_VSA6>  (10) 
32.785908

>  <SMR_VSA7>  (10) 
0.0

>  <SMR_VSA8>  (10) 
0.0

>  <SMR_VSA9>  (10) 
0.0

>  <SlogP_VSA1>  (10) 
10.633577

>  <SlogP_VSA10>  (10) 
0.0

>  <SlogP_VSA11>  (10) 
0.0

>  <SlogP_VSA12>  (10) 
0.0

>  <SlogP_VSA2>  (10) 
79.281166

>  <SlogP_VSA3>  (10) 
14.268263

>  <SlogP_VSA4>  (10) 
0.0

>  <SlogP_VSA5>  (10) 
6.923737

>  <SlogP_VSA6>  (10) 
0.0

>  <SlogP_VSA7>  (10) 
0.0

>  <SlogP_VSA8>  (10) 
0.0

>  <SlogP_VSA9>  (10) 
0.0

>  <EState_VSA1>  (10) 
6.103966

>  <EState_VSA10>  (10) 
9.901065

>  <EState_VSA11>  (10) 
0.0

>  <EState_VSA2>  (10) 
30.384855

>  <EState_VSA3>  (10) 
6.606882

>  <EState_VSA4>  (10) 
26.179026

>  <EState_VSA5>  (10) 
4.89991

>  <EState_VSA6>  (10) 
6.923737

>  <EState_VSA7>  (10) 
4.89991

>  <EState_VSA8>  (10) 
5.733667

>  <EState_VSA9>  (10) 
9.473726

>  <VSA_EState1>  (10) 
11.408208

>  <VSA_EState10>  (10) 
0.0

>  <VSA_EState2>  (10) 
14.433695

>  <VSA_EState3>  (10) 
10.421748

>  <VSA_EState4>  (10) 
4.012847

>  <VSA_EState5>  (10) 
0.117322

>  <VSA_EState6>  (10) 
-0.224588

>  <VSA_EState7>  (10) 
-0.89244

>  <VSA_EState8>  (10) 
5.223208

>  <VSA_EState9>  (10) 
0.0

>  <FractionCSP3>  (10) 
0.916667

>  <HeavyAtomCount>  (10) 
19

>  <NHOHCount>  (10) 
5

>  <NOCount>  (10) 
7

>  <NumAliphaticCarbocycles>  (10) 
0

>  <NumAliphaticHeterocycles>  (10) 
3

>  <NumAliphaticRings>  (10) 
3

>  <NumAromaticCarbocycles>  (10) 
0

>  <NumAromaticHeterocycles>  (10) 
0

>  <NAR>  (10) 
0

>  <NumHAcceptors>  (10) 
4

>  <NumHDonors>  (10) 
3

>  <NumHeteroatoms>  (10) 
7

>  <NumRotatableBonds>  (10) 
1

>  <NumSaturatedCarbocycles>  (10) 
0

>  <NumSaturatedHeterocycles>  (10) 
3

>  <NumSaturatedRings>  (10) 
3

>  <RingCount>  (10) 
3

>  <MolLogP>  (10) 
-4.1715

>  <MolMR>  (10) 
64.0346

>  <fr_Al_COO>  (10) 
0

>  <fr_Al_OH>  (10) 
1

>  <fr_Al_OH_noTert>  (10) 
1

>  <fr_ArN>  (10) 
0

>  <fr_Ar_COO>  (10) 
0

>  <fr_Ar_N>  (10) 
0

>  <fr_Ar_NH>  (10) 
0

>  <fr_Ar_OH>  (10) 
0

>  <fr_COO>  (10) 
0

>  <fr_COO2>  (10) 
0

>  <fr_C_O>  (10) 
1

>  <fr_C_O_noCOO>  (10) 
1

>  <fr_C_S>  (10) 
0

>  <fr_HOCCN>  (10) 
0

>  <fr_Imine>  (10) 
0

>  <fr_NH0>  (10) 
1

>  <fr_NH1>  (10) 
1

>  <fr_NH2>  (10) 
0

>  <fr_N_O>  (10) 
0

>  <fr_Ndealkylation1>  (10) 
0

>  <fr_Ndealkylation2>  (10) 
0

>  <fr_Nhpyrrole>  (10) 
0

>  <fr_SH>  (10) 
0

>  <fr_aldehyde>  (10) 
0

>  <fr_alkyl_carbamate>  (10) 
0

>  <fr_alkyl_halide>  (10) 
0

>  <fr_allylic_oxid>  (10) 
0

>  <fr_amide>  (10) 
1

>  <fr_amidine>  (10) 
0

>  <fr_aniline>  (10) 
0

>  <fr_aryl_methyl>  (10) 
0

>  <fr_azide>  (10) 
0

>  <fr_azo>  (10) 
0

>  <fr_barbitur>  (10) 
0

>  <fr_benzene>  (10) 
0

>  <fr_benzodiazepine>  (10) 
0

>  <fr_bicyclic>  (10) 
2

>  <fr_diazo>  (10) 
0

>  <fr_dihydropyridine>  (10) 
0

>  <fr_epoxide>  (10) 
0

>  <fr_ester>  (10) 
0

>  <fr_ether>  (10) 
2

>  <fr_furan>  (10) 
0

>  <fr_guanido>  (10) 
0

>  <fr_halogen>  (10) 
0

>  <fr_hdrzine>  (10) 
0

>  <fr_hdrzone>  (10) 
0

>  <fr_imidazole>  (10) 
0

>  <fr_imide>  (10) 
0

>  <fr_isocyan>  (10) 
0

>  <fr_isothiocyan>  (10) 
0

>  <fr_ketone>  (10) 
0

>  <fr_ketone_Topliss>  (10) 
0

>  <fr_lactam>  (10) 
0

>  <fr_lactone>  (10) 
0

>  <fr_methoxy>  (10) 
0

>  <fr_morpholine>  (10) 
0

>  <fr_nitrile>  (10) 
0

>  <fr_nitro>  (10) 
0

>  <fr_nitro_arom>  (10) 
0

>  <fr_nitro_arom_nonortho>  (10) 
0

>  <fr_nitroso>  (10) 
0

>  <fr_oxazole>  (10) 
0

>  <fr_oxime>  (10) 
0

>  <fr_para_hydroxylation>  (10) 
0

>  <fr_phenol>  (10) 
0

>  <fr_phenol_noOrthoHbond>  (10) 
0

>  <fr_phos_acid>  (10) 
0

>  <fr_phos_ester>  (10) 
0

>  <fr_piperdine>  (10) 
0

>  <fr_piperzine>  (10) 
1

>  <fr_priamide>  (10) 
0

>  <fr_prisulfonamd>  (10) 
0

>  <fr_pyridine>  (10) 
0

>  <fr_quatN>  (10) 
2

>  <fr_sulfide>  (10) 
0

>  <fr_sulfonamd>  (10) 
0

>  <fr_sulfone>  (10) 
0

>  <fr_term_acetylene>  (10) 
0

>  <fr_tetrazole>  (10) 
0

>  <fr_thiazole>  (10) 
0

>  <fr_thiocyan>  (10) 
0

>  <fr_thiophene>  (10) 
0

>  <fr_unbrch_alkane>  (10) 
0

>  <fr_urea>  (10) 
0

>  <NP-Likeness>  (10) 
0.401717

$$$$
F055
     RDKit          3D

  0  0  0  0  0  0  0  0  0  0999 V3000
M  V30 BEGIN CTAB
M  V30 COUNTS 42 44 0 0 0
M  V30 BEGIN ATOM
M  V30 1 O 0.035628 -2.554574 -1.821077 0
M  V30 2 C -0.473515 -2.150287 -0.591620 0 CFG=1
M  V30 3 C -0.769400 -3.347542 0.287556 0 CFG=2
M  V30 4 N -1.844882 -4.137593 -0.284157 0 CHG=1 VAL=4
M  V30 5 C -1.193766 -2.857005 1.654929 0 CFG=2
M  V30 6 O -1.101645 -1.458940 1.740324 0
M  V30 7 C 0.279349 -1.279827 1.536900 0 CFG=1
M  V30 8 O 0.913676 -2.313680 2.254824 0
M  V30 9 C -0.066208 -3.215801 2.632514 0
M  V30 10 C 0.621380 -1.333741 0.086911 0 CFG=2
M  V30 11 N 0.775800 -0.065792 -0.571066 0 CHG=1 VAL=4
M  V30 12 C -0.088841 0.978533 -0.083451 0
M  V30 13 C 0.662130 2.210228 0.355134 0
M  V30 14 N 1.870120 1.896291 1.080193 0
M  V30 15 C 2.235954 2.430697 2.366657 0
M  V30 16 O 3.312618 2.110829 2.945020 0
M  V30 17 C 1.315160 3.393438 3.040079 0
M  V30 18 C 2.774059 0.977173 0.463114 0
M  V30 19 C 2.147843 0.357449 -0.730262 0
M  V30 20 H -0.646424 -3.080127 -2.307890 0
M  V30 21 H -1.349877 -1.478872 -0.695482 0
M  V30 22 H 0.148330 -3.965602 0.318397 0
M  V30 23 H -2.601554 -3.508325 -0.673108 0
M  V30 24 H -1.412795 -4.730246 -1.030580 0
M  V30 25 H -2.319577 -4.692185 0.461056 0
M  V30 26 H -2.166990 -3.234642 1.964808 0
M  V30 27 H 0.536064 -0.360789 2.063988 0
M  V30 28 H 0.208699 -4.268150 2.571261 0
M  V30 29 H -0.468296 -2.902256 3.634877 0
M  V30 30 H 1.595491 -1.893866 0.010315 0
M  V30 31 H 0.463685 -0.237143 -1.577367 0
M  V30 32 H -0.697817 0.641036 0.784411 0
M  V30 33 H -0.838892 1.328172 -0.824805 0
M  V30 34 H 0.008213 2.791125 1.038971 0
M  V30 35 H 0.932276 2.889961 -0.479394 0
M  V30 36 H 0.490008 2.846869 3.540258 0
M  V30 37 H 1.864184 3.913610 3.856418 0
M  V30 38 H 0.900187 4.149063 2.359337 0
M  V30 39 H 3.251018 0.268276 1.169758 0
M  V30 40 H 3.637511 1.602908 0.089991 0
M  V30 41 H 2.212716 1.062365 -1.595975 0
M  V30 42 H 2.713271 -0.573579 -1.010056 0
M  V30 END ATOM
M  V30 BEGIN BOND
M  V30 1 1 1 2
M  V30 2 1 2 3
M  V30 3 1 3 4
M  V30 4 1 3 5
M  V30 5 1 5 6
M  V30 6 1 6 7
M  V30 7 1 7 8
M  V30 8 1 8 9
M  V30 9 1 7 10
M  V30 10 1 10 11
M  V30 11 1 11 12
M  V30 12 1 12 13
M  V30 13 1 13 14
M  V30 14 1 14 15
M  V30 15 2 15 16
M  V30 16 1 15 17
M  V30 17 1 14 18
M  V30 18 1 18 19
M  V30 19 1 10 2
M  V30 20 1 19 11
M  V30 21 1 9 5
M  V30 22 1 1 20
M  V30 23 1 2 21 CFG=3
M  V30 24 1 3 22 CFG=1
M  V30 25 1 4 23
M  V30 26 1 4 24
M  V30 27 1 4 25
M  V30 28 1 5 26 CFG=1
M  V30 29 1 7 27 CFG=1
M  V30 30 1 9 28
M  V30 31 1 9 29
M  V30 32 1 10 30 CFG=1
M  V30 33 1 11 31
M  V30 34 1 12 32
M  V30 35 1 12 33
M  V30 36 1 13 34
M  V30 37 1 13 35
M  V30 38 1 17 36
M  V30 39 1 17 37
M  V30 40 1 17 38
M  V30 41 1 18 39
M  V30 42 1 18 40
M  V30 43 1 19 41
M  V30 44 1 19 42
M  V30 END BOND
M  V30 END CTAB
M  END
>  <Dataset>  (11) 
CF

>  <Ligand_Instance>  (11) 
055_B_2

>  <PDB_ID>  (11) 
nan

>  <Standardized_SMILES>  (11) 
[H]O[C@@]1([H])[C@]([H])([N+]([H])([H])[H])[C@]2([H])O[C@@]([H])(OC2([H])[H])[C@]1([H])[N+]1([H])C([H])([H])C([H])([H])N(C(=O)C([H])([H])[H])C([H])([H])C1([H])[H]

>  <Name>  (11) 
1‐{4‐[(1S,2S,3S,4R,5R)‐2‐amino‐3‐hydroxy‐6,8‐dioxabicyclo[3.2.1]octan‐4‐yl]piperazin‐1‐yl}ethan‐1‐one

>  <Pocket>  (11) 
X

>  <ATP_Site>  (11) 
1.0

>  <Peripheral>  (11) 
1.0

>  <Num_H_Atoms_ProtBoundConf>  (11) 
23.0

>  <Num_Resolved_Atoms>  (11) 
19.0

>  <Num_Not_Resolved_Atoms>  (11) 
0.0

>  <2D_Mol_H>  (11) 
<rdkit.Chem.rdchem.Mol object at 0x72a238d5fdf0>

>  <MW>  (11) 
273.333

>  <HBA>  (11) 
4

>  <HBD>  (11) 
3

>  <LogP>  (11) 
-4.1715

>  <NRB>  (11) 
4

>  <TPSA>  (11) 
91.08

>  <Num_Heavy_Atoms>  (11) 
19

>  <Ro5>  (11) 
[True, True, True, True, True, True]

>  <Ro5_Fulfilled>  (11) 
True

>  <Ro3>  (11) 
[True, False, True, True]

>  <Ro3_Fulfilled>  (11) 
True

>  <Fsp3>  (11) 
0.916667

>  <Fsp3_0.42>  (11) 
True

>  <Fsp3_0.45>  (11) 
True

>  <Stereogenic_Carbons>  (11) 
5

>  <C_Atoms>  (11) 
12

>  <FCStereo>  (11) 
0.416667

>  <SPS>  (11) 
827

>  <nSPS>  (11) 
43.526316

>  <PBF>  (11) 
0.939754

>  <PBF_0.6>  (11) 
True

>  <nPBF>  (11) 
0.049461

>  <nPBF_0.016>  (11) 
True

>  <PMI1>  (11) 
695.061345

>  <PMI2>  (11) 
2060.725198

>  <PMI3>  (11) 
2345.641468

>  <NPR1>  (11) 
0.29632

>  <NPR2>  (11) 
0.878534

>  <Sum_NPR>  (11) 
1.174854

>  <Sum_NPR_1.07>  (11) 
True

>  <Sum_NPR_1.2>  (11) 
False

>  <MaxAbsEStateIndex>  (11) 
11.333213

>  <MaxEStateIndex>  (11) 
11.333213

>  <MinAbsEStateIndex>  (11) 
0.074853

>  <MinEStateIndex>  (11) 
-0.495252

>  <qed>  (11) 
0.452028

>  <MolWt>  (11) 
273.333

>  <HeavyAtomMolWt>  (11) 
250.149

>  <ExactMolWt>  (11) 
273.167759

>  <NumValenceElectrons>  (11) 
108

>  <NumRadicalElectrons>  (11) 
0

>  <MaxPartialCharge>  (11) 
0.219356

>  <MinPartialCharge>  (11) 
-0.380906

>  <MaxAbsPartialCharge>  (11) 
0.380906

>  <MinAbsPartialCharge>  (11) 
0.219356

>  <FpDensityMorgan1>  (11) 
1.421053

>  <FpDensityMorgan2>  (11) 
2.105263

>  <FpDensityMorgan3>  (11) 
2.736842

>  <BCUT2D_MWHI>  (11) 
16.730728

>  <BCUT2D_MWLOW>  (11) 
9.950858

>  <BCUT2D_CHGHI>  (11) 
2.552081

>  <BCUT2D_CHGLO>  (11) 
-2.414882

>  <BCUT2D_LOGPHI>  (11) 
2.245896

>  <BCUT2D_LOGPLOW>  (11) 
-3.212004

>  <BCUT2D_MRHI>  (11) 
5.727128

>  <BCUT2D_MRLOW>  (11) 
-0.941488

>  <AvgIpc>  (11) 
2.832225

>  <BalabanJ>  (11) 
1.669651

>  <BertzCT>  (11) 
358.883658

>  <Chi0>  (11) 
13.56855

>  <Chi0n>  (11) 
11.248564

>  <Chi0v>  (11) 
11.248564

>  <Chi1>  (11) 
9.075387

>  <Chi1n>  (11) 
6.959779

>  <Chi1v>  (11) 
6.959779

>  <Chi2n>  (11) 
5.720803

>  <Chi2v>  (11) 
5.720803

>  <Chi3n>  (11) 
4.633442

>  <Chi3v>  (11) 
4.633442

>  <Chi4n>  (11) 
3.376683

>  <Chi4v>  (11) 
3.376683

>  <HallKierAlpha>  (11) 
-0.73

>  <Ipc>  (11) 
32332.684745

>  <Kappa1>  (11) 
13.262205

>  <Kappa2>  (11) 
4.989334

>  <Kappa3>  (11) 
2.253751

>  <LabuteASA>  (11) 
111.778525

>  <PEOE_VSA1>  (11) 
30.11374

>  <PEOE_VSA10>  (11) 
12.145807

>  <PEOE_VSA11>  (11) 
12.145807

>  <PEOE_VSA12>  (11) 
12.197206

>  <PEOE_VSA13>  (11) 
0.0

>  <PEOE_VSA14>  (11) 
0.0

>  <PEOE_VSA2>  (11) 
4.794537

>  <PEOE_VSA3>  (11) 
0.0

>  <PEOE_VSA4>  (11) 
0.0

>  <PEOE_VSA5>  (11) 
0.0

>  <PEOE_VSA6>  (11) 
0.0

>  <PEOE_VSA7>  (11) 
0.0

>  <PEOE_VSA8>  (11) 
6.923737

>  <PEOE_VSA9>  (11) 
32.785908

>  <SMR_VSA1>  (11) 
30.008368

>  <SMR_VSA10>  (11) 
5.90718

>  <SMR_VSA2>  (11) 
0.0

>  <SMR_VSA3>  (11) 
4.89991

>  <SMR_VSA4>  (11) 
0.0

>  <SMR_VSA5>  (11) 
37.505378

>  <SMR_VSA6>  (11) 
32.785908

>  <SMR_VSA7>  (11) 
0.0

>  <SMR_VSA8>  (11) 
0.0

>  <SMR_VSA9>  (11) 
0.0

>  <SlogP_VSA1>  (11) 
10.633577

>  <SlogP_VSA10>  (11) 
0.0

>  <SlogP_VSA11>  (11) 
0.0

>  <SlogP_VSA12>  (11) 
0.0

>  <SlogP_VSA2>  (11) 
79.281166

>  <SlogP_VSA3>  (11) 
14.268263

>  <SlogP_VSA4>  (11) 
0.0

>  <SlogP_VSA5>  (11) 
6.923737

>  <SlogP_VSA6>  (11) 
0.0

>  <SlogP_VSA7>  (11) 
0.0

>  <SlogP_VSA8>  (11) 
0.0

>  <SlogP_VSA9>  (11) 
0.0

>  <EState_VSA1>  (11) 
6.103966

>  <EState_VSA10>  (11) 
9.901065

>  <EState_VSA11>  (11) 
0.0

>  <EState_VSA2>  (11) 
30.384855

>  <EState_VSA3>  (11) 
6.606882

>  <EState_VSA4>  (11) 
26.179026

>  <EState_VSA5>  (11) 
4.89991

>  <EState_VSA6>  (11) 
6.923737

>  <EState_VSA7>  (11) 
4.89991

>  <EState_VSA8>  (11) 
5.733667

>  <EState_VSA9>  (11) 
9.473726

>  <VSA_EState1>  (11) 
11.408208

>  <VSA_EState10>  (11) 
0.0

>  <VSA_EState2>  (11) 
14.433695

>  <VSA_EState3>  (11) 
10.421748

>  <VSA_EState4>  (11) 
4.012847

>  <VSA_EState5>  (11) 
0.117322

>  <VSA_EState6>  (11) 
-0.224588

>  <VSA_EState7>  (11) 
-0.89244

>  <VSA_EState8>  (11) 
5.223208

>  <VSA_EState9>  (11) 
0.0

>  <FractionCSP3>  (11) 
0.916667

>  <HeavyAtomCount>  (11) 
19

>  <NHOHCount>  (11) 
5

>  <NOCount>  (11) 
7

>  <NumAliphaticCarbocycles>  (11) 
0

>  <NumAliphaticHeterocycles>  (11) 
3

>  <NumAliphaticRings>  (11) 
3

>  <NumAromaticCarbocycles>  (11) 
0

>  <NumAromaticHeterocycles>  (11) 
0

>  <NAR>  (11) 
0

>  <NumHAcceptors>  (11) 
4

>  <NumHDonors>  (11) 
3

>  <NumHeteroatoms>  (11) 
7

>  <NumRotatableBonds>  (11) 
1

>  <NumSaturatedCarbocycles>  (11) 
0

>  <NumSaturatedHeterocycles>  (11) 
3

>  <NumSaturatedRings>  (11) 
3

>  <RingCount>  (11) 
3

>  <MolLogP>  (11) 
-4.1715

>  <MolMR>  (11) 
64.0346

>  <fr_Al_COO>  (11) 
0

>  <fr_Al_OH>  (11) 
1

>  <fr_Al_OH_noTert>  (11) 
1

>  <fr_ArN>  (11) 
0

>  <fr_Ar_COO>  (11) 
0

>  <fr_Ar_N>  (11) 
0

>  <fr_Ar_NH>  (11) 
0

>  <fr_Ar_OH>  (11) 
0

>  <fr_COO>  (11) 
0

>  <fr_COO2>  (11) 
0

>  <fr_C_O>  (11) 
1

>  <fr_C_O_noCOO>  (11) 
1

>  <fr_C_S>  (11) 
0

>  <fr_HOCCN>  (11) 
0

>  <fr_Imine>  (11) 
0

>  <fr_NH0>  (11) 
1

>  <fr_NH1>  (11) 
1

>  <fr_NH2>  (11) 
0

>  <fr_N_O>  (11) 
0

>  <fr_Ndealkylation1>  (11) 
0

>  <fr_Ndealkylation2>  (11) 
0

>  <fr_Nhpyrrole>  (11) 
0

>  <fr_SH>  (11) 
0

>  <fr_aldehyde>  (11) 
0

>  <fr_alkyl_carbamate>  (11) 
0

>  <fr_alkyl_halide>  (11) 
0

>  <fr_allylic_oxid>  (11) 
0

>  <fr_amide>  (11) 
1

>  <fr_amidine>  (11) 
0

>  <fr_aniline>  (11) 
0

>  <fr_aryl_methyl>  (11) 
0

>  <fr_azide>  (11) 
0

>  <fr_azo>  (11) 
0

>  <fr_barbitur>  (11) 
0

>  <fr_benzene>  (11) 
0

>  <fr_benzodiazepine>  (11) 
0

>  <fr_bicyclic>  (11) 
2

>  <fr_diazo>  (11) 
0

>  <fr_dihydropyridine>  (11) 
0

>  <fr_epoxide>  (11) 
0

>  <fr_ester>  (11) 
0

>  <fr_ether>  (11) 
2

>  <fr_furan>  (11) 
0

>  <fr_guanido>  (11) 
0

>  <fr_halogen>  (11) 
0

>  <fr_hdrzine>  (11) 
0

>  <fr_hdrzone>  (11) 
0

>  <fr_imidazole>  (11) 
0

>  <fr_imide>  (11) 
0

>  <fr_isocyan>  (11) 
0

>  <fr_isothiocyan>  (11) 
0

>  <fr_ketone>  (11) 
0

>  <fr_ketone_Topliss>  (11) 
0

>  <fr_lactam>  (11) 
0

>  <fr_lactone>  (11) 
0

>  <fr_methoxy>  (11) 
0

>  <fr_morpholine>  (11) 
0

>  <fr_nitrile>  (11) 
0

>  <fr_nitro>  (11) 
0

>  <fr_nitro_arom>  (11) 
0

>  <fr_nitro_arom_nonortho>  (11) 
0

>  <fr_nitroso>  (11) 
0

>  <fr_oxazole>  (11) 
0

>  <fr_oxime>  (11) 
0

>  <fr_para_hydroxylation>  (11) 
0

>  <fr_phenol>  (11) 
0

>  <fr_phenol_noOrthoHbond>  (11) 
0

>  <fr_phos_acid>  (11) 
0

>  <fr_phos_ester>  (11) 
0

>  <fr_piperdine>  (11) 
0

>  <fr_piperzine>  (11) 
1

>  <fr_priamide>  (11) 
0

>  <fr_prisulfonamd>  (11) 
0

>  <fr_pyridine>  (11) 
0

>  <fr_quatN>  (11) 
2

>  <fr_sulfide>  (11) 
0

>  <fr_sulfonamd>  (11) 
0

>  <fr_sulfone>  (11) 
0

>  <fr_term_acetylene>  (11) 
0

>  <fr_tetrazole>  (11) 
0

>  <fr_thiazole>  (11) 
0

>  <fr_thiocyan>  (11) 
0

>  <fr_thiophene>  (11) 
0

>  <fr_unbrch_alkane>  (11) 
0

>  <fr_urea>  (11) 
0

>  <NP-Likeness>  (11) 
0.401717

$$$$
F058
     RDKit          3D

  0  0  0  0  0  0  0  0  0  0999 V3000
M  V30 BEGIN CTAB
M  V30 COUNTS 36 38 0 0 0
M  V30 BEGIN ATOM
M  V30 1 O 0.658104 -2.673428 -0.202375 0
M  V30 2 C 0.484713 -1.374546 -0.584273 0 CFG=1
M  V30 3 C -0.689623 -1.320293 -1.556593 0 CFG=2
M  V30 4 N -0.465658 -2.135090 -2.722593 0 CHG=1 VAL=4
M  V30 5 C -0.834837 0.121817 -1.961994 0 CFG=2
M  V30 6 O 0.256476 0.909737 -1.542172 0
M  V30 7 C 0.004313 0.964735 -0.159267 0 CFG=1
M  V30 8 O -1.328247 1.382492 -0.101151 0
M  V30 9 C -1.959771 0.825306 -1.223742 0
M  V30 10 C 0.145241 -0.401098 0.499107 0 CFG=2
M  V30 11 N 1.108096 -0.275341 1.545358 0 CHG=1 VAL=4
M  V30 12 C 0.504697 0.565252 2.574572 0
M  V30 13 C 1.587231 0.971273 3.553719 0
M  V30 14 O 2.243622 -0.145905 4.039081 0
M  V30 15 C 1.615953 -1.330286 3.707711 0
M  V30 16 C 1.457288 -1.504003 2.198806 0
M  V30 17 H -0.044264 -3.290372 -0.478042 0
M  V30 18 H 1.379036 -1.022272 -1.129056 0
M  V30 19 H -1.579220 -1.655743 -0.970219 0
M  V30 20 H -1.347751 -2.105291 -3.274342 0
M  V30 21 H -0.296926 -3.126484 -2.495919 0
M  V30 22 H 0.262811 -1.685751 -3.301907 0
M  V30 23 H -0.955951 0.238295 -3.048006 0
M  V30 24 H 0.707650 1.704337 0.247047 0
M  V30 25 H -2.790099 0.158068 -0.960694 0
M  V30 26 H -2.289589 1.700269 -1.838878 0
M  V30 27 H -0.828478 -0.668168 0.965660 0
M  V30 28 H 1.985067 0.222853 1.266324 0
M  V30 29 H -0.291523 -0.037343 3.051870 0
M  V30 30 H 0.021205 1.456461 2.152204 0
M  V30 31 H 2.340988 1.550145 2.964636 0
M  V30 32 H 1.140157 1.601153 4.356876 0
M  V30 33 H 0.628670 -1.456160 4.208729 0
M  V30 34 H 2.249881 -2.163207 4.074647 0
M  V30 35 H 2.453323 -1.833308 1.834101 0
M  V30 36 H 0.681080 -2.294976 2.105758 0
M  V30 END ATOM
M  V30 BEGIN BOND
M  V30 1 1 1 2
M  V30 2 1 2 3
M  V30 3 1 3 4
M  V30 4 1 3 5
M  V30 5 1 5 6
M  V30 6 1 6 7
M  V30 7 1 7 8
M  V30 8 1 8 9
M  V30 9 1 7 10
M  V30 10 1 10 11
M  V30 11 1 11 12
M  V30 12 1 12 13
M  V30 13 1 13 14
M  V30 14 1 14 15
M  V30 15 1 15 16
M  V30 16 1 10 2
M  V30 17 1 16 11
M  V30 18 1 9 5
M  V30 19 1 1 17
M  V30 20 1 2 18 CFG=3
M  V30 21 1 3 19 CFG=1
M  V30 22 1 4 20
M  V30 23 1 4 21
M  V30 24 1 4 22
M  V30 25 1 5 23 CFG=3
M  V30 26 1 7 24 CFG=1
M  V30 27 1 9 25
M  V30 28 1 9 26
M  V30 29 1 10 27 CFG=1
M  V30 30 1 11 28
M  V30 31 1 12 29
M  V30 32 1 12 30
M  V30 33 1 13 31
M  V30 34 1 13 32
M  V30 35 1 15 33
M  V30 36 1 15 34
M  V30 37 1 16 35
M  V30 38 1 16 36
M  V30 END BOND
M  V30 END CTAB
M  END
>  <Dataset>  (12) 
CF

>  <Ligand_Instance>  (12) 
058_A_603

>  <PDB_ID>  (12) 
nan

>  <Standardized_SMILES>  (12) 
[H]O[C@@]1([H])[C@]([H])([N+]([H])([H])[H])[C@]2([H])O[C@@]([H])(OC2([H])[H])[C@]1([H])[N+]1([H])C([H])([H])C([H])([H])OC([H])([H])C1([H])[H]

>  <Name>  (12) 
(1S,2S,3S,4R,5R)‐2‐amino‐4‐(morpholin‐4‐yl)‐6,8‐dioxabicyclo[3.2.1]octan‐3‐ol

>  <Pocket>  (12) 
X

>  <ATP_Site>  (12) 
0.0

>  <Peripheral>  (12) 
1.0

>  <Num_H_Atoms_ProtBoundConf>  (12) 
20.0

>  <Num_Resolved_Atoms>  (12) 
16.0

>  <Num_Not_Resolved_Atoms>  (12) 
0.0

>  <2D_Mol_H>  (12) 
<rdkit.Chem.rdchem.Mol object at 0x72a238d5fed0>

>  <MW>  (12) 
232.28

>  <HBA>  (12) 
4

>  <HBD>  (12) 
3

>  <LogP>  (12) 
-4.0034

>  <NRB>  (12) 
3

>  <TPSA>  (12) 
80.0

>  <Num_Heavy_Atoms>  (12) 
16

>  <Ro5>  (12) 
[True, True, True, True, True, True]

>  <Ro5_Fulfilled>  (12) 
True

>  <Ro3>  (12) 
[True, False, True, True]

>  <Ro3_Fulfilled>  (12) 
True

>  <Fsp3>  (12) 
1.0

>  <Fsp3_0.42>  (12) 
True

>  <Fsp3_0.45>  (12) 
True

>  <Stereogenic_Carbons>  (12) 
5

>  <C_Atoms>  (12) 
10

>  <FCStereo>  (12) 
0.5

>  <SPS>  (12) 
792

>  <nSPS>  (12) 
49.5

>  <PBF>  (12) 
0.682817

>  <PBF_0.6>  (12) 
True

>  <nPBF>  (12) 
0.042676

>  <nPBF_0.016>  (12) 
True

>  <PMI1>  (12) 
489.043313

>  <PMI2>  (12) 
1350.381495

>  <PMI3>  (12) 
1690.817921

>  <NPR1>  (12) 
0.289235

>  <NPR2>  (12) 
0.798656

>  <Sum_NPR>  (12) 
1.087891

>  <Sum_NPR_1.07>  (12) 
True

>  <Sum_NPR_1.2>  (12) 
False

>  <MaxAbsEStateIndex>  (12) 
10.286391

>  <MaxEStateIndex>  (12) 
10.286391

>  <MinAbsEStateIndex>  (12) 
0.00912

>  <MinEStateIndex>  (12) 
-0.431157

>  <qed>  (12) 
0.430336

>  <MolWt>  (12) 
232.28

>  <HeavyAtomMolWt>  (12) 
212.12

>  <ExactMolWt>  (12) 
232.14121

>  <NumValenceElectrons>  (12) 
92

>  <NumRadicalElectrons>  (12) 
0

>  <MaxPartialCharge>  (12) 
0.213669

>  <MinPartialCharge>  (12) 
-0.380906

>  <MaxAbsPartialCharge>  (12) 
0.380906

>  <MinAbsPartialCharge>  (12) 
0.213669

>  <FpDensityMorgan1>  (12) 
1.25

>  <FpDensityMorgan2>  (12) 
2.0

>  <FpDensityMorgan3>  (12) 
2.75

>  <BCUT2D_MWHI>  (12) 
16.730844

>  <BCUT2D_MWLOW>  (12) 
9.95382

>  <BCUT2D_CHGHI>  (12) 
2.549752

>  <BCUT2D_CHGLO>  (12) 
-2.393408

>  <BCUT2D_LOGPHI>  (12) 
2.244897

>  <BCUT2D_LOGPLOW>  (12) 
-3.206523

>  <BCUT2D_MRHI>  (12) 
4.918874

>  <BCUT2D_MRLOW>  (12) 
-0.944934

>  <AvgIpc>  (12) 
2.743224

>  <BalabanJ>  (12) 
1.760378

>  <BertzCT>  (12) 
259.203584

>  <Chi0>  (12) 
11.120956

>  <Chi0n>  (12) 
9.30135

>  <Chi0v>  (12) 
9.30135

>  <Chi1>  (12) 
7.770857

>  <Chi1n>  (12) 
5.976943

>  <Chi1v>  (12) 
5.976943

>  <Chi2n>  (12) 
4.82711

>  <Chi2v>  (12) 
4.82711

>  <Chi3n>  (12) 
3.917473

>  <Chi3v>  (12) 
3.917473

>  <Chi4n>  (12) 
2.901443

>  <Chi4v>  (12) 
2.901443

>  <HallKierAlpha>  (12) 
-0.24

>  <Ipc>  (12) 
9162.368958

>  <Kappa1>  (12) 
10.885365

>  <Kappa2>  (12) 
4.211449

>  <Kappa3>  (12) 
1.65794

>  <LabuteASA>  (12) 
94.24083

>  <PEOE_VSA1>  (12) 
29.950693

>  <PEOE_VSA10>  (12) 
25.23532

>  <PEOE_VSA11>  (12) 
12.145807

>  <PEOE_VSA12>  (12) 
6.290027

>  <PEOE_VSA13>  (12) 
0.0

>  <PEOE_VSA14>  (12) 
0.0

>  <PEOE_VSA2>  (12) 
0.0

>  <PEOE_VSA3>  (12) 
0.0

>  <PEOE_VSA4>  (12) 
0.0

>  <PEOE_VSA5>  (12) 
0.0

>  <PEOE_VSA6>  (12) 
0.0

>  <PEOE_VSA7>  (12) 
0.0

>  <PEOE_VSA8>  (12) 
0.0

>  <PEOE_VSA9>  (12) 
19.820646

>  <SMR_VSA1>  (12) 
29.950693

>  <SMR_VSA10>  (12) 
0.0

>  <SMR_VSA2>  (12) 
0.0

>  <SMR_VSA3>  (12) 
0.0

>  <SMR_VSA4>  (12) 
0.0

>  <SMR_VSA5>  (12) 
30.581641

>  <SMR_VSA6>  (12) 
32.910159

>  <SMR_VSA7>  (12) 
0.0

>  <SMR_VSA8>  (12) 
0.0

>  <SMR_VSA9>  (12) 
0.0

>  <SlogP_VSA1>  (12) 
10.633577

>  <SlogP_VSA10>  (12) 
0.0

>  <SlogP_VSA11>  (12) 
0.0

>  <SlogP_VSA12>  (12) 
0.0

>  <SlogP_VSA2>  (12) 
68.598327

>  <SlogP_VSA3>  (12) 
14.210589

>  <SlogP_VSA4>  (12) 
0.0

>  <SlogP_VSA5>  (12) 
0.0

>  <SlogP_VSA6>  (12) 
0.0

>  <SlogP_VSA7>  (12) 
0.0

>  <SlogP_VSA8>  (12) 
0.0

>  <SlogP_VSA9>  (12) 
0.0

>  <EState_VSA1>  (12) 
6.103966

>  <EState_VSA10>  (12) 
5.106527

>  <EState_VSA11>  (12) 
0.0

>  <EState_VSA2>  (12) 
24.477675

>  <EState_VSA3>  (12) 
6.606882

>  <EState_VSA4>  (12) 
26.303277

>  <EState_VSA5>  (12) 
4.89991

>  <EState_VSA6>  (12) 
0.0

>  <EState_VSA7>  (12) 
0.0

>  <EState_VSA8>  (12) 
5.733667

>  <EState_VSA9>  (12) 
14.210589

>  <VSA_EState1>  (12) 
16.671253

>  <VSA_EState10>  (12) 
0.0

>  <VSA_EState2>  (12) 
1.317361

>  <VSA_EState3>  (12) 
10.286391

>  <VSA_EState4>  (12) 
4.002949

>  <VSA_EState5>  (12) 
0.0

>  <VSA_EState6>  (12) 
-0.093292

>  <VSA_EState7>  (12) 
-0.72024

>  <VSA_EState8>  (12) 
3.868912

>  <VSA_EState9>  (12) 
0.0

>  <FractionCSP3>  (12) 
1.0

>  <HeavyAtomCount>  (12) 
16

>  <NHOHCount>  (12) 
5

>  <NOCount>  (12) 
6

>  <NumAliphaticCarbocycles>  (12) 
0

>  <NumAliphaticHeterocycles>  (12) 
3

>  <NumAliphaticRings>  (12) 
3

>  <NumAromaticCarbocycles>  (12) 
0

>  <NumAromaticHeterocycles>  (12) 
0

>  <NAR>  (12) 
0

>  <NumHAcceptors>  (12) 
4

>  <NumHDonors>  (12) 
3

>  <NumHeteroatoms>  (12) 
6

>  <NumRotatableBonds>  (12) 
1

>  <NumSaturatedCarbocycles>  (12) 
0

>  <NumSaturatedHeterocycles>  (12) 
3

>  <NumSaturatedRings>  (12) 
3

>  <RingCount>  (12) 
3

>  <MolLogP>  (12) 
-4.0034

>  <MolMR>  (12) 
52.5996

>  <fr_Al_COO>  (12) 
0

>  <fr_Al_OH>  (12) 
1

>  <fr_Al_OH_noTert>  (12) 
1

>  <fr_ArN>  (12) 
0

>  <fr_Ar_COO>  (12) 
0

>  <fr_Ar_N>  (12) 
0

>  <fr_Ar_NH>  (12) 
0

>  <fr_Ar_OH>  (12) 
0

>  <fr_COO>  (12) 
0

>  <fr_COO2>  (12) 
0

>  <fr_C_O>  (12) 
0

>  <fr_C_O_noCOO>  (12) 
0

>  <fr_C_S>  (12) 
0

>  <fr_HOCCN>  (12) 
0

>  <fr_Imine>  (12) 
0

>  <fr_NH0>  (12) 
0

>  <fr_NH1>  (12) 
1

>  <fr_NH2>  (12) 
0

>  <fr_N_O>  (12) 
0

>  <fr_Ndealkylation1>  (12) 
0

>  <fr_Ndealkylation2>  (12) 
0

>  <fr_Nhpyrrole>  (12) 
0

>  <fr_SH>  (12) 
0

>  <fr_aldehyde>  (12) 
0

>  <fr_alkyl_carbamate>  (12) 
0

>  <fr_alkyl_halide>  (12) 
0

>  <fr_allylic_oxid>  (12) 
0

>  <fr_amide>  (12) 
0

>  <fr_amidine>  (12) 
0

>  <fr_aniline>  (12) 
0

>  <fr_aryl_methyl>  (12) 
0

>  <fr_azide>  (12) 
0

>  <fr_azo>  (12) 
0

>  <fr_barbitur>  (12) 
0

>  <fr_benzene>  (12) 
0

>  <fr_benzodiazepine>  (12) 
0

>  <fr_bicyclic>  (12) 
2

>  <fr_diazo>  (12) 
0

>  <fr_dihydropyridine>  (12) 
0

>  <fr_epoxide>  (12) 
0

>  <fr_ester>  (12) 
0

>  <fr_ether>  (12) 
3

>  <fr_furan>  (12) 
0

>  <fr_guanido>  (12) 
0

>  <fr_halogen>  (12) 
0

>  <fr_hdrzine>  (12) 
0

>  <fr_hdrzone>  (12) 
0

>  <fr_imidazole>  (12) 
0

>  <fr_imide>  (12) 
0

>  <fr_isocyan>  (12) 
0

>  <fr_isothiocyan>  (12) 
0

>  <fr_ketone>  (12) 
0

>  <fr_ketone_Topliss>  (12) 
0

>  <fr_lactam>  (12) 
0

>  <fr_lactone>  (12) 
0

>  <fr_methoxy>  (12) 
0

>  <fr_morpholine>  (12) 
1

>  <fr_nitrile>  (12) 
0

>  <fr_nitro>  (12) 
0

>  <fr_nitro_arom>  (12) 
0

>  <fr_nitro_arom_nonortho>  (12) 
0

>  <fr_nitroso>  (12) 
0

>  <fr_oxazole>  (12) 
0

>  <fr_oxime>  (12) 
0

>  <fr_para_hydroxylation>  (12) 
0

>  <fr_phenol>  (12) 
0

>  <fr_phenol_noOrthoHbond>  (12) 
0

>  <fr_phos_acid>  (12) 
0

>  <fr_phos_ester>  (12) 
0

>  <fr_piperdine>  (12) 
0

>  <fr_piperzine>  (12) 
0

>  <fr_priamide>  (12) 
0

>  <fr_prisulfonamd>  (12) 
0

>  <fr_pyridine>  (12) 
0

>  <fr_quatN>  (12) 
2

>  <fr_sulfide>  (12) 
0

>  <fr_sulfonamd>  (12) 
0

>  <fr_sulfone>  (12) 
0

>  <fr_term_acetylene>  (12) 
0

>  <fr_tetrazole>  (12) 
0

>  <fr_thiazole>  (12) 
0

>  <fr_thiocyan>  (12) 
0

>  <fr_thiophene>  (12) 
0

>  <fr_unbrch_alkane>  (12) 
0

>  <fr_urea>  (12) 
0

>  <NP-Likeness>  (12) 
0.681572

$$$$
F070
     RDKit          3D

  0  0  0  0  0  0  0  0  0  0999 V3000
M  V30 BEGIN CTAB
M  V30 COUNTS 34 36 0 0 0
M  V30 BEGIN ATOM
M  V30 1 C -2.854003 0.920015 2.489545 0
M  V30 2 C -1.810872 0.365231 1.745652 0
M  V30 3 C -0.520332 0.560320 2.194139 0
M  V30 4 C 0.553521 -0.033770 1.392793 0
M  V30 5 N 1.884725 -0.011658 1.577035 0
M  V30 6 N 2.476354 -0.691714 0.587903 0
M  V30 7 C 1.485762 -1.139793 -0.219275 0
M  V30 8 C 1.585713 -1.937512 -1.446430 0 CFG=1
M  V30 9 C 2.389149 -1.224631 -2.508577 0
M  V30 10 C 2.637980 -2.379421 -3.479662 0
M  V30 11 N 2.593210 -3.589486 -2.689614 0 CHG=1 VAL=4
M  V30 12 C 2.353164 -3.217018 -1.311393 0
M  V30 13 O 0.356729 -0.726267 0.295558 0
M  V30 14 C -0.228603 1.275795 3.338103 0
M  V30 15 C -1.257473 1.840660 4.099258 0
M  V30 16 C -2.553505 1.634485 3.632936 0
M  V30 17 O -3.572053 2.209419 4.410896 0
M  V30 18 C -4.905499 1.994347 3.926550 0
M  V30 19 H -3.876019 0.780401 2.157482 0
M  V30 20 H -2.083507 -0.185916 0.859050 0
M  V30 21 H 0.591055 -2.162481 -1.907977 0
M  V30 22 H 1.751441 -0.449879 -2.945396 0
M  V30 23 H 3.361076 -0.854647 -2.133950 0
M  V30 24 H 3.550724 -2.250293 -4.072416 0
M  V30 25 H 1.736504 -2.381988 -4.159402 0
M  V30 26 H 3.467803 -4.166495 -2.787933 0
M  V30 27 H 1.806600 -4.217521 -2.995497 0
M  V30 28 H 3.304171 -3.034087 -0.772988 0
M  V30 29 H 1.691767 -3.941222 -0.789090 0
M  V30 30 H 0.799905 1.403999 3.653183 0
M  V30 31 H -1.079979 2.405550 4.996492 0
M  V30 32 H -5.664731 2.421789 4.583174 0
M  V30 33 H -5.004250 0.888052 3.873913 0
M  V30 34 H -4.968132 2.352250 2.864178 0
M  V30 END ATOM
M  V30 BEGIN BOND
M  V30 1 2 1 2
M  V30 2 1 2 3
M  V30 3 1 3 4
M  V30 4 2 4 5
M  V30 5 1 5 6
M  V30 6 2 6 7
M  V30 7 1 7 8
M  V30 8 1 8 9
M  V30 9 1 9 10
M  V30 10 1 10 11
M  V30 11 1 11 12
M  V30 12 1 7 13
M  V30 13 2 3 14
M  V30 14 1 14 15
M  V30 15 2 15 16
M  V30 16 1 16 17
M  V30 17 1 17 18
M  V30 18 1 16 1
M  V30 19 1 13 4
M  V30 20 1 12 8
M  V30 21 1 1 19
M  V30 22 1 2 20
M  V30 23 1 8 21 CFG=3
M  V30 24 1 9 22
M  V30 25 1 9 23
M  V30 26 1 10 24
M  V30 27 1 10 25
M  V30 28 1 11 26
M  V30 29 1 11 27
M  V30 30 1 12 28
M  V30 31 1 12 29
M  V30 32 1 14 30
M  V30 33 1 15 31
M  V30 34 1 18 32
M  V30 35 1 18 33
M  V30 36 1 18 34
M  V30 END BOND
M  V30 END CTAB
M  END
>  <Dataset>  (13) 
CF

>  <Ligand_Instance>  (13) 
070_A_1602

>  <PDB_ID>  (13) 
nan

>  <Standardized_SMILES>  (13) 
[H]C1=C([H])C(C2=NN=C([C@@]3([H])C([H])([H])C([H])([H])[N+]([H])([H])C3([H])[H])O2)=C([H])C([H])=C1OC([H])([H])[H]

>  <Name>  (13) 
2‐(4‐methoxyphenyl)‐5‐[(3S)‐pyrrolidin‐3‐yl]‐1,3,4‐oxadiazole

>  <Pocket>  (13) 
X

>  <ATP_Site>  (13) 
1.0

>  <Peripheral>  (13) 
1.0

>  <Num_H_Atoms_ProtBoundConf>  (13) 
16.0

>  <Num_Resolved_Atoms>  (13) 
18.0

>  <Num_Not_Resolved_Atoms>  (13) 
0.0

>  <2D_Mol_H>  (13) 
<rdkit.Chem.rdchem.Mol object at 0x72a238db4040>

>  <MW>  (13) 
246.29

>  <HBA>  (13) 
4

>  <HBD>  (13) 
1

>  <LogP>  (13) 
0.7959

>  <NRB>  (13) 
4

>  <TPSA>  (13) 
64.76

>  <Num_Heavy_Atoms>  (13) 
18

>  <Ro5>  (13) 
[True, True, True, True, True, True]

>  <Ro5_Fulfilled>  (13) 
True

>  <Ro3>  (13) 
[True, False, True, True]

>  <Ro3_Fulfilled>  (13) 
True

>  <Fsp3>  (13) 
0.384615

>  <Fsp3_0.42>  (13) 
False

>  <Fsp3_0.45>  (13) 
False

>  <Stereogenic_Carbons>  (13) 
1

>  <C_Atoms>  (13) 
13

>  <FCStereo>  (13) 
0.076923

>  <SPS>  (13) 
343

>  <nSPS>  (13) 
19.055556

>  <PBF>  (13) 
0.503511

>  <PBF_0.6>  (13) 
False

>  <nPBF>  (13) 
0.027973

>  <nPBF_0.016>  (13) 
True

>  <PMI1>  (13) 
336.79542

>  <PMI2>  (13) 
3440.514348

>  <PMI3>  (13) 
3648.566936

>  <NPR1>  (13) 
0.092309

>  <NPR2>  (13) 
0.942977

>  <Sum_NPR>  (13) 
1.035286

>  <Sum_NPR_1.07>  (13) 
False

>  <Sum_NPR_1.2>  (13) 
False

>  <MaxAbsEStateIndex>  (13) 
5.744086

>  <MaxEStateIndex>  (13) 
5.744086

>  <MinAbsEStateIndex>  (13) 
0.406943

>  <MinEStateIndex>  (13) 
0.406943

>  <qed>  (13) 
0.86951

>  <MolWt>  (13) 
246.29

>  <HeavyAtomMolWt>  (13) 
230.162

>  <ExactMolWt>  (13) 
246.123703

>  <NumValenceElectrons>  (13) 
94

>  <NumRadicalElectrons>  (13) 
0

>  <MaxPartialCharge>  (13) 
0.247258

>  <MinPartialCharge>  (13) 
-0.496768

>  <MaxAbsPartialCharge>  (13) 
0.496768

>  <MinAbsPartialCharge>  (13) 
0.247258

>  <FpDensityMorgan1>  (13) 
1.277778

>  <FpDensityMorgan2>  (13) 
2.111111

>  <FpDensityMorgan3>  (13) 
2.777778

>  <BCUT2D_MWHI>  (13) 
16.465362

>  <BCUT2D_MWLOW>  (13) 
10.116688

>  <BCUT2D_CHGHI>  (13) 
2.252362

>  <BCUT2D_CHGLO>  (13) 
-1.996533

>  <BCUT2D_LOGPHI>  (13) 
2.245213

>  <BCUT2D_LOGPLOW>  (13) 
-2.806771

>  <BCUT2D_MRHI>  (13) 
5.534828

>  <BCUT2D_MRLOW>  (13) 
-0.636309

>  <AvgIpc>  (13) 
3.092001

>  <BalabanJ>  (13) 
1.824765

>  <BertzCT>  (13) 
515.287556

>  <Chi0>  (13) 
12.372033

>  <Chi0n>  (13) 
10.296346

>  <Chi0v>  (13) 
10.296346

>  <Chi1>  (13) 
8.864505

>  <Chi1n>  (13) 
6.16087

>  <Chi1v>  (13) 
6.16087

>  <Chi2n>  (13) 
4.472605

>  <Chi2v>  (13) 
4.472605

>  <Chi3n>  (13) 
3.297275

>  <Chi3v>  (13) 
3.297275

>  <Chi4n>  (13) 
2.23002

>  <Chi4v>  (13) 
2.23002

>  <HallKierAlpha>  (13) 
-1.88

>  <Ipc>  (13) 
32317.589761

>  <Kappa1>  (13) 
11.224118

>  <Kappa2>  (13) 
4.777293

>  <Kappa3>  (13) 
2.087778

>  <LabuteASA>  (13) 
105.172863

>  <PEOE_VSA1>  (13) 
14.470802

>  <PEOE_VSA10>  (13) 
5.749512

>  <PEOE_VSA11>  (13) 
0.0

>  <PEOE_VSA12>  (13) 
11.781448

>  <PEOE_VSA13>  (13) 
0.0

>  <PEOE_VSA14>  (13) 
0.0

>  <PEOE_VSA2>  (13) 
0.0

>  <PEOE_VSA3>  (13) 
0.0

>  <PEOE_VSA4>  (13) 
0.0

>  <PEOE_VSA5>  (13) 
10.197364

>  <PEOE_VSA6>  (13) 
0.0

>  <PEOE_VSA7>  (13) 
24.265468

>  <PEOE_VSA8>  (13) 
11.984273

>  <PEOE_VSA9>  (13) 
26.117216

>  <SMR_VSA1>  (13) 
14.470802

>  <SMR_VSA10>  (13) 
0.0

>  <SMR_VSA2>  (13) 
0.0

>  <SMR_VSA3>  (13) 
10.197364

>  <SMR_VSA4>  (13) 
0.0

>  <SMR_VSA5>  (13) 
12.338728

>  <SMR_VSA6>  (13) 
20.19931

>  <SMR_VSA7>  (13) 
30.156192

>  <SMR_VSA8>  (13) 
0.0

>  <SMR_VSA9>  (13) 
17.203687

>  <SlogP_VSA1>  (13) 
10.053652

>  <SlogP_VSA10>  (13) 
0.0

>  <SlogP_VSA11>  (13) 
5.749512

>  <SlogP_VSA12>  (13) 
0.0

>  <SlogP_VSA2>  (13) 
30.396674

>  <SlogP_VSA3>  (13) 
0.0

>  <SlogP_VSA4>  (13) 
0.0

>  <SlogP_VSA5>  (13) 
18.229452

>  <SlogP_VSA6>  (13) 
28.682619

>  <SlogP_VSA7>  (13) 
0.0

>  <SlogP_VSA8>  (13) 
11.454175

>  <SlogP_VSA9>  (13) 
0.0

>  <EState_VSA1>  (13) 
0.0

>  <EState_VSA10>  (13) 
0.0

>  <EState_VSA11>  (13) 
0.0

>  <EState_VSA2>  (13) 
0.0

>  <EState_VSA3>  (13) 
11.80863

>  <EState_VSA4>  (13) 
36.714022

>  <EState_VSA5>  (13) 
0.0

>  <EState_VSA6>  (13) 
7.109798

>  <EState_VSA7>  (13) 
24.265468

>  <EState_VSA8>  (13) 
15.514152

>  <EState_VSA9>  (13) 
9.154014

>  <VSA_EState1>  (13) 
10.864849

>  <VSA_EState10>  (13) 
0.0

>  <VSA_EState2>  (13) 
0.0

>  <VSA_EState3>  (13) 
10.544071

>  <VSA_EState4>  (13) 
0.927339

>  <VSA_EState5>  (13) 
2.57176

>  <VSA_EState6>  (13) 
7.637803

>  <VSA_EState7>  (13) 
1.115323

>  <VSA_EState8>  (13) 
2.189645

>  <VSA_EState9>  (13) 
1.649209

>  <FractionCSP3>  (13) 
0.384615

>  <HeavyAtomCount>  (13) 
18

>  <NHOHCount>  (13) 
2

>  <NOCount>  (13) 
5

>  <NumAliphaticCarbocycles>  (13) 
0

>  <NumAliphaticHeterocycles>  (13) 
1

>  <NumAliphaticRings>  (13) 
1

>  <NumAromaticCarbocycles>  (13) 
1

>  <NumAromaticHeterocycles>  (13) 
1

>  <NAR>  (13) 
2

>  <NumHAcceptors>  (13) 
4

>  <NumHDonors>  (13) 
1

>  <NumHeteroatoms>  (13) 
5

>  <NumRotatableBonds>  (13) 
3

>  <NumSaturatedCarbocycles>  (13) 
0

>  <NumSaturatedHeterocycles>  (13) 
1

>  <NumSaturatedRings>  (13) 
1

>  <RingCount>  (13) 
3

>  <MolLogP>  (13) 
0.7959

>  <MolMR>  (13) 
65.3034

>  <fr_Al_COO>  (13) 
0

>  <fr_Al_OH>  (13) 
0

>  <fr_Al_OH_noTert>  (13) 
0

>  <fr_ArN>  (13) 
0

>  <fr_Ar_COO>  (13) 
0

>  <fr_Ar_N>  (13) 
2

>  <fr_Ar_NH>  (13) 
0

>  <fr_Ar_OH>  (13) 
0

>  <fr_COO>  (13) 
0

>  <fr_COO2>  (13) 
0

>  <fr_C_O>  (13) 
0

>  <fr_C_O_noCOO>  (13) 
0

>  <fr_C_S>  (13) 
0

>  <fr_HOCCN>  (13) 
0

>  <fr_Imine>  (13) 
0

>  <fr_NH0>  (13) 
2

>  <fr_NH1>  (13) 
0

>  <fr_NH2>  (13) 
1

>  <fr_N_O>  (13) 
0

>  <fr_Ndealkylation1>  (13) 
0

>  <fr_Ndealkylation2>  (13) 
0

>  <fr_Nhpyrrole>  (13) 
0

>  <fr_SH>  (13) 
0

>  <fr_aldehyde>  (13) 
0

>  <fr_alkyl_carbamate>  (13) 
0

>  <fr_alkyl_halide>  (13) 
0

>  <fr_allylic_oxid>  (13) 
0

>  <fr_amide>  (13) 
0

>  <fr_amidine>  (13) 
0

>  <fr_aniline>  (13) 
0

>  <fr_aryl_methyl>  (13) 
0

>  <fr_azide>  (13) 
0

>  <fr_azo>  (13) 
0

>  <fr_barbitur>  (13) 
0

>  <fr_benzene>  (13) 
1

>  <fr_benzodiazepine>  (13) 
0

>  <fr_bicyclic>  (13) 
0

>  <fr_diazo>  (13) 
0

>  <fr_dihydropyridine>  (13) 
0

>  <fr_epoxide>  (13) 
0

>  <fr_ester>  (13) 
0

>  <fr_ether>  (13) 
1

>  <fr_furan>  (13) 
0

>  <fr_guanido>  (13) 
0

>  <fr_halogen>  (13) 
0

>  <fr_hdrzine>  (13) 
0

>  <fr_hdrzone>  (13) 
0

>  <fr_imidazole>  (13) 
0

>  <fr_imide>  (13) 
0

>  <fr_isocyan>  (13) 
0

>  <fr_isothiocyan>  (13) 
0

>  <fr_ketone>  (13) 
0

>  <fr_ketone_Topliss>  (13) 
0

>  <fr_lactam>  (13) 
0

>  <fr_lactone>  (13) 
0

>  <fr_methoxy>  (13) 
1

>  <fr_morpholine>  (13) 
0

>  <fr_nitrile>  (13) 
0

>  <fr_nitro>  (13) 
0

>  <fr_nitro_arom>  (13) 
0

>  <fr_nitro_arom_nonortho>  (13) 
0

>  <fr_nitroso>  (13) 
0

>  <fr_oxazole>  (13) 
0

>  <fr_oxime>  (13) 
0

>  <fr_para_hydroxylation>  (13) 
0

>  <fr_phenol>  (13) 
0

>  <fr_phenol_noOrthoHbond>  (13) 
0

>  <fr_phos_acid>  (13) 
0

>  <fr_phos_ester>  (13) 
0

>  <fr_piperdine>  (13) 
0

>  <fr_piperzine>  (13) 
0

>  <fr_priamide>  (13) 
0

>  <fr_prisulfonamd>  (13) 
0

>  <fr_pyridine>  (13) 
0

>  <fr_quatN>  (13) 
1

>  <fr_sulfide>  (13) 
0

>  <fr_sulfonamd>  (13) 
0

>  <fr_sulfone>  (13) 
0

>  <fr_term_acetylene>  (13) 
0

>  <fr_tetrazole>  (13) 
0

>  <fr_thiazole>  (13) 
0

>  <fr_thiocyan>  (13) 
0

>  <fr_thiophene>  (13) 
0

>  <fr_unbrch_alkane>  (13) 
0

>  <fr_urea>  (13) 
0

>  <NP-Likeness>  (13) 
-0.979693

$$$$
F070
     RDKit          3D

  0  0  0  0  0  0  0  0  0  0999 V3000
M  V30 BEGIN CTAB
M  V30 COUNTS 34 36 0 0 0
M  V30 BEGIN ATOM
M  V30 1 C -2.854003 0.920015 2.489545 0
M  V30 2 C -1.810872 0.365231 1.745652 0
M  V30 3 C -0.520332 0.560320 2.194139 0
M  V30 4 C 0.553521 -0.033770 1.392793 0
M  V30 5 N 1.884725 -0.011658 1.577035 0
M  V30 6 N 2.476354 -0.691714 0.587903 0
M  V30 7 C 1.485762 -1.139793 -0.219275 0
M  V30 8 C 1.585713 -1.937512 -1.446430 0 CFG=1
M  V30 9 C 2.389149 -1.224631 -2.508577 0
M  V30 10 C 2.637980 -2.379421 -3.479662 0
M  V30 11 N 2.593210 -3.589486 -2.689614 0 CHG=1 VAL=4
M  V30 12 C 2.353164 -3.217018 -1.311393 0
M  V30 13 O 0.356729 -0.726267 0.295558 0
M  V30 14 C -0.228603 1.275795 3.338103 0
M  V30 15 C -1.257473 1.840660 4.099258 0
M  V30 16 C -2.553505 1.634485 3.632936 0
M  V30 17 O -3.572053 2.209419 4.410896 0
M  V30 18 C -4.905499 1.994347 3.926550 0
M  V30 19 H -3.876019 0.780401 2.157482 0
M  V30 20 H -2.083507 -0.185916 0.859050 0
M  V30 21 H 0.591055 -2.162481 -1.907977 0
M  V30 22 H 1.751441 -0.449879 -2.945396 0
M  V30 23 H 3.361076 -0.854647 -2.133950 0
M  V30 24 H 3.550724 -2.250293 -4.072416 0
M  V30 25 H 1.736504 -2.381988 -4.159402 0
M  V30 26 H 3.467803 -4.166495 -2.787933 0
M  V30 27 H 1.806600 -4.217521 -2.995497 0
M  V30 28 H 3.304171 -3.034087 -0.772988 0
M  V30 29 H 1.691767 -3.941222 -0.789090 0
M  V30 30 H 0.799905 1.403999 3.653183 0
M  V30 31 H -1.079979 2.405550 4.996492 0
M  V30 32 H -5.664731 2.421789 4.583174 0
M  V30 33 H -5.004250 0.888052 3.873913 0
M  V30 34 H -4.968132 2.352250 2.864178 0
M  V30 END ATOM
M  V30 BEGIN BOND
M  V30 1 2 1 2
M  V30 2 1 2 3
M  V30 3 1 3 4
M  V30 4 2 4 5
M  V30 5 1 5 6
M  V30 6 2 6 7
M  V30 7 1 7 8
M  V30 8 1 8 9
M  V30 9 1 9 10
M  V30 10 1 10 11
M  V30 11 1 11 12
M  V30 12 1 7 13
M  V30 13 2 3 14
M  V30 14 1 14 15
M  V30 15 2 15 16
M  V30 16 1 16 17
M  V30 17 1 17 18
M  V30 18 1 16 1
M  V30 19 1 13 4
M  V30 20 1 12 8
M  V30 21 1 1 19
M  V30 22 1 2 20
M  V30 23 1 8 21 CFG=3
M  V30 24 1 9 22
M  V30 25 1 9 23
M  V30 26 1 10 24
M  V30 27 1 10 25
M  V30 28 1 11 26
M  V30 29 1 11 27
M  V30 30 1 12 28
M  V30 31 1 12 29
M  V30 32 1 14 30
M  V30 33 1 15 31
M  V30 34 1 18 32
M  V30 35 1 18 33
M  V30 36 1 18 34
M  V30 END BOND
M  V30 END CTAB
M  END
>  <Dataset>  (14) 
CF

>  <Ligand_Instance>  (14) 
070_A_1605

>  <PDB_ID>  (14) 
nan

>  <Standardized_SMILES>  (14) 
[H]C1=C([H])C(C2=NN=C([C@@]3([H])C([H])([H])C([H])([H])[N+]([H])([H])C3([H])[H])O2)=C([H])C([H])=C1OC([H])([H])[H]

>  <Name>  (14) 
2‐(4‐methoxyphenyl)‐5‐[(3S)‐pyrrolidin‐3‐yl]‐1,3,4‐oxadiazole

>  <Pocket>  (14) 
A

>  <ATP_Site>  (14) 
1.0

>  <Peripheral>  (14) 
1.0

>  <Num_H_Atoms_ProtBoundConf>  (14) 
16.0

>  <Num_Resolved_Atoms>  (14) 
18.0

>  <Num_Not_Resolved_Atoms>  (14) 
0.0

>  <2D_Mol_H>  (14) 
<rdkit.Chem.rdchem.Mol object at 0x72a238db4120>

>  <MW>  (14) 
246.29

>  <HBA>  (14) 
4

>  <HBD>  (14) 
1

>  <LogP>  (14) 
0.7959

>  <NRB>  (14) 
4

>  <TPSA>  (14) 
64.76

>  <Num_Heavy_Atoms>  (14) 
18

>  <Ro5>  (14) 
[True, True, True, True, True, True]

>  <Ro5_Fulfilled>  (14) 
True

>  <Ro3>  (14) 
[True, False, True, True]

>  <Ro3_Fulfilled>  (14) 
True

>  <Fsp3>  (14) 
0.384615

>  <Fsp3_0.42>  (14) 
False

>  <Fsp3_0.45>  (14) 
False

>  <Stereogenic_Carbons>  (14) 
1

>  <C_Atoms>  (14) 
13

>  <FCStereo>  (14) 
0.076923

>  <SPS>  (14) 
343

>  <nSPS>  (14) 
19.055556

>  <PBF>  (14) 
0.503511

>  <PBF_0.6>  (14) 
False

>  <nPBF>  (14) 
0.027973

>  <nPBF_0.016>  (14) 
True

>  <PMI1>  (14) 
336.79542

>  <PMI2>  (14) 
3440.514348

>  <PMI3>  (14) 
3648.566936

>  <NPR1>  (14) 
0.092309

>  <NPR2>  (14) 
0.942977

>  <Sum_NPR>  (14) 
1.035286

>  <Sum_NPR_1.07>  (14) 
False

>  <Sum_NPR_1.2>  (14) 
False

>  <MaxAbsEStateIndex>  (14) 
5.744086

>  <MaxEStateIndex>  (14) 
5.744086

>  <MinAbsEStateIndex>  (14) 
0.406943

>  <MinEStateIndex>  (14) 
0.406943

>  <qed>  (14) 
0.86951

>  <MolWt>  (14) 
246.29

>  <HeavyAtomMolWt>  (14) 
230.162

>  <ExactMolWt>  (14) 
246.123703

>  <NumValenceElectrons>  (14) 
94

>  <NumRadicalElectrons>  (14) 
0

>  <MaxPartialCharge>  (14) 
0.247258

>  <MinPartialCharge>  (14) 
-0.496768

>  <MaxAbsPartialCharge>  (14) 
0.496768

>  <MinAbsPartialCharge>  (14) 
0.247258

>  <FpDensityMorgan1>  (14) 
1.277778

>  <FpDensityMorgan2>  (14) 
2.111111

>  <FpDensityMorgan3>  (14) 
2.777778

>  <BCUT2D_MWHI>  (14) 
16.465362

>  <BCUT2D_MWLOW>  (14) 
10.116688

>  <BCUT2D_CHGHI>  (14) 
2.252362

>  <BCUT2D_CHGLO>  (14) 
-1.996533

>  <BCUT2D_LOGPHI>  (14) 
2.245213

>  <BCUT2D_LOGPLOW>  (14) 
-2.806771

>  <BCUT2D_MRHI>  (14) 
5.534828

>  <BCUT2D_MRLOW>  (14) 
-0.636309

>  <AvgIpc>  (14) 
3.092001

>  <BalabanJ>  (14) 
1.824765

>  <BertzCT>  (14) 
515.287556

>  <Chi0>  (14) 
12.372033

>  <Chi0n>  (14) 
10.296346

>  <Chi0v>  (14) 
10.296346

>  <Chi1>  (14) 
8.864505

>  <Chi1n>  (14) 
6.16087

>  <Chi1v>  (14) 
6.16087

>  <Chi2n>  (14) 
4.472605

>  <Chi2v>  (14) 
4.472605

>  <Chi3n>  (14) 
3.297275

>  <Chi3v>  (14) 
3.297275

>  <Chi4n>  (14) 
2.23002

>  <Chi4v>  (14) 
2.23002

>  <HallKierAlpha>  (14) 
-1.88

>  <Ipc>  (14) 
32317.589761

>  <Kappa1>  (14) 
11.224118

>  <Kappa2>  (14) 
4.777293

>  <Kappa3>  (14) 
2.087778

>  <LabuteASA>  (14) 
105.172863

>  <PEOE_VSA1>  (14) 
14.470802

>  <PEOE_VSA10>  (14) 
5.749512

>  <PEOE_VSA11>  (14) 
0.0

>  <PEOE_VSA12>  (14) 
11.781448

>  <PEOE_VSA13>  (14) 
0.0

>  <PEOE_VSA14>  (14) 
0.0

>  <PEOE_VSA2>  (14) 
0.0

>  <PEOE_VSA3>  (14) 
0.0

>  <PEOE_VSA4>  (14) 
0.0

>  <PEOE_VSA5>  (14) 
10.197364

>  <PEOE_VSA6>  (14) 
0.0

>  <PEOE_VSA7>  (14) 
24.265468

>  <PEOE_VSA8>  (14) 
11.984273

>  <PEOE_VSA9>  (14) 
26.117216

>  <SMR_VSA1>  (14) 
14.470802

>  <SMR_VSA10>  (14) 
0.0

>  <SMR_VSA2>  (14) 
0.0

>  <SMR_VSA3>  (14) 
10.197364

>  <SMR_VSA4>  (14) 
0.0

>  <SMR_VSA5>  (14) 
12.338728

>  <SMR_VSA6>  (14) 
20.19931

>  <SMR_VSA7>  (14) 
30.156192

>  <SMR_VSA8>  (14) 
0.0

>  <SMR_VSA9>  (14) 
17.203687

>  <SlogP_VSA1>  (14) 
10.053652

>  <SlogP_VSA10>  (14) 
0.0

>  <SlogP_VSA11>  (14) 
5.749512

>  <SlogP_VSA12>  (14) 
0.0

>  <SlogP_VSA2>  (14) 
30.396674

>  <SlogP_VSA3>  (14) 
0.0

>  <SlogP_VSA4>  (14) 
0.0

>  <SlogP_VSA5>  (14) 
18.229452

>  <SlogP_VSA6>  (14) 
28.682619

>  <SlogP_VSA7>  (14) 
0.0

>  <SlogP_VSA8>  (14) 
11.454175

>  <SlogP_VSA9>  (14) 
0.0

>  <EState_VSA1>  (14) 
0.0

>  <EState_VSA10>  (14) 
0.0

>  <EState_VSA11>  (14) 
0.0

>  <EState_VSA2>  (14) 
0.0

>  <EState_VSA3>  (14) 
11.80863

>  <EState_VSA4>  (14) 
36.714022

>  <EState_VSA5>  (14) 
0.0

>  <EState_VSA6>  (14) 
7.109798

>  <EState_VSA7>  (14) 
24.265468

>  <EState_VSA8>  (14) 
15.514152

>  <EState_VSA9>  (14) 
9.154014

>  <VSA_EState1>  (14) 
10.864849

>  <VSA_EState10>  (14) 
0.0

>  <VSA_EState2>  (14) 
0.0

>  <VSA_EState3>  (14) 
10.544071

>  <VSA_EState4>  (14) 
0.927339

>  <VSA_EState5>  (14) 
2.57176

>  <VSA_EState6>  (14) 
7.637803

>  <VSA_EState7>  (14) 
1.115323

>  <VSA_EState8>  (14) 
2.189645

>  <VSA_EState9>  (14) 
1.649209

>  <FractionCSP3>  (14) 
0.384615

>  <HeavyAtomCount>  (14) 
18

>  <NHOHCount>  (14) 
2

>  <NOCount>  (14) 
5

>  <NumAliphaticCarbocycles>  (14) 
0

>  <NumAliphaticHeterocycles>  (14) 
1

>  <NumAliphaticRings>  (14) 
1

>  <NumAromaticCarbocycles>  (14) 
1

>  <NumAromaticHeterocycles>  (14) 
1

>  <NAR>  (14) 
2

>  <NumHAcceptors>  (14) 
4

>  <NumHDonors>  (14) 
1

>  <NumHeteroatoms>  (14) 
5

>  <NumRotatableBonds>  (14) 
3

>  <NumSaturatedCarbocycles>  (14) 
0

>  <NumSaturatedHeterocycles>  (14) 
1

>  <NumSaturatedRings>  (14) 
1

>  <RingCount>  (14) 
3

>  <MolLogP>  (14) 
0.7959

>  <MolMR>  (14) 
65.3034

>  <fr_Al_COO>  (14) 
0

>  <fr_Al_OH>  (14) 
0

>  <fr_Al_OH_noTert>  (14) 
0

>  <fr_ArN>  (14) 
0

>  <fr_Ar_COO>  (14) 
0

>  <fr_Ar_N>  (14) 
2

>  <fr_Ar_NH>  (14) 
0

>  <fr_Ar_OH>  (14) 
0

>  <fr_COO>  (14) 
0

>  <fr_COO2>  (14) 
0

>  <fr_C_O>  (14) 
0

>  <fr_C_O_noCOO>  (14) 
0

>  <fr_C_S>  (14) 
0

>  <fr_HOCCN>  (14) 
0

>  <fr_Imine>  (14) 
0

>  <fr_NH0>  (14) 
2

>  <fr_NH1>  (14) 
0

>  <fr_NH2>  (14) 
1

>  <fr_N_O>  (14) 
0

>  <fr_Ndealkylation1>  (14) 
0

>  <fr_Ndealkylation2>  (14) 
0

>  <fr_Nhpyrrole>  (14) 
0

>  <fr_SH>  (14) 
0

>  <fr_aldehyde>  (14) 
0

>  <fr_alkyl_carbamate>  (14) 
0

>  <fr_alkyl_halide>  (14) 
0

>  <fr_allylic_oxid>  (14) 
0

>  <fr_amide>  (14) 
0

>  <fr_amidine>  (14) 
0

>  <fr_aniline>  (14) 
0

>  <fr_aryl_methyl>  (14) 
0

>  <fr_azide>  (14) 
0

>  <fr_azo>  (14) 
0

>  <fr_barbitur>  (14) 
0

>  <fr_benzene>  (14) 
1

>  <fr_benzodiazepine>  (14) 
0

>  <fr_bicyclic>  (14) 
0

>  <fr_diazo>  (14) 
0

>  <fr_dihydropyridine>  (14) 
0

>  <fr_epoxide>  (14) 
0

>  <fr_ester>  (14) 
0

>  <fr_ether>  (14) 
1

>  <fr_furan>  (14) 
0

>  <fr_guanido>  (14) 
0

>  <fr_halogen>  (14) 
0

>  <fr_hdrzine>  (14) 
0

>  <fr_hdrzone>  (14) 
0

>  <fr_imidazole>  (14) 
0

>  <fr_imide>  (14) 
0

>  <fr_isocyan>  (14) 
0

>  <fr_isothiocyan>  (14) 
0

>  <fr_ketone>  (14) 
0

>  <fr_ketone_Topliss>  (14) 
0

>  <fr_lactam>  (14) 
0

>  <fr_lactone>  (14) 
0

>  <fr_methoxy>  (14) 
1

>  <fr_morpholine>  (14) 
0

>  <fr_nitrile>  (14) 
0

>  <fr_nitro>  (14) 
0

>  <fr_nitro_arom>  (14) 
0

>  <fr_nitro_arom_nonortho>  (14) 
0

>  <fr_nitroso>  (14) 
0

>  <fr_oxazole>  (14) 
0

>  <fr_oxime>  (14) 
0

>  <fr_para_hydroxylation>  (14) 
0

>  <fr_phenol>  (14) 
0

>  <fr_phenol_noOrthoHbond>  (14) 
0

>  <fr_phos_acid>  (14) 
0

>  <fr_phos_ester>  (14) 
0

>  <fr_piperdine>  (14) 
0

>  <fr_piperzine>  (14) 
0

>  <fr_priamide>  (14) 
0

>  <fr_prisulfonamd>  (14) 
0

>  <fr_pyridine>  (14) 
0

>  <fr_quatN>  (14) 
1

>  <fr_sulfide>  (14) 
0

>  <fr_sulfonamd>  (14) 
0

>  <fr_sulfone>  (14) 
0

>  <fr_term_acetylene>  (14) 
0

>  <fr_tetrazole>  (14) 
0

>  <fr_thiazole>  (14) 
0

>  <fr_thiocyan>  (14) 
0

>  <fr_thiophene>  (14) 
0

>  <fr_unbrch_alkane>  (14) 
0

>  <fr_urea>  (14) 
0

>  <NP-Likeness>  (14) 
-0.979693

$$$$
F073
     RDKit          3D

  0  0  0  0  0  0  0  0  0  0999 V3000
M  V30 BEGIN CTAB
M  V30 COUNTS 30 32 0 0 0
M  V30 BEGIN ATOM
M  V30 1 C -0.049420 0.419967 5.316422 0
M  V30 2 C 0.158743 0.040486 3.993100 0
M  V30 3 C -0.765232 0.420158 3.037118 0
M  V30 4 C -0.524791 0.010176 1.657083 0
M  V30 5 N -1.293754 0.272835 0.582282 0
M  V30 6 N -0.731614 -0.272969 -0.483890 0
M  V30 7 C 0.387265 -0.880430 -0.099227 0
M  V30 8 C 1.394235 -1.643063 -0.883333 0 CFG=1
M  V30 9 C 0.664740 -2.819605 -1.500923 0
M  V30 10 C 1.304770 -2.861139 -2.872642 0
M  V30 11 N 1.529370 -1.459056 -3.226970 0 CHG=1 VAL=4
M  V30 12 C 1.977803 -0.854655 -2.007734 0
M  V30 13 O 0.480776 -0.686516 1.213697 0
M  V30 14 C -1.881434 1.159159 3.349720 0
M  V30 15 C -2.094588 1.541152 4.670278 0
M  V30 16 C -1.175351 1.169728 5.654346 0
M  V30 17 Cl -1.529704 1.697602 7.288670 0
M  V30 18 H 0.622010 0.168430 6.138632 0
M  V30 19 H 1.051733 -0.545701 3.769355 0
M  V30 20 H 2.223795 -2.022862 -0.228327 0
M  V30 21 H 0.875711 -3.712920 -0.901121 0
M  V30 22 H -0.423573 -2.682672 -1.531060 0
M  V30 23 H 0.611995 -3.370021 -3.564436 0
M  V30 24 H 2.259581 -3.420586 -2.768063 0
M  V30 25 H 0.621614 -1.096398 -3.592221 0
M  V30 26 H 2.241725 -1.472171 -3.990035 0
M  V30 27 H 3.101537 -0.930779 -1.997087 0
M  V30 28 H 1.753235 0.230192 -1.953116 0
M  V30 29 H -2.608562 1.457748 2.596390 0
M  V30 30 H -2.979742 2.126773 4.915997 0
M  V30 END ATOM
M  V30 BEGIN BOND
M  V30 1 2 1 2
M  V30 2 1 2 3
M  V30 3 1 3 4
M  V30 4 2 4 5
M  V30 5 1 5 6
M  V30 6 2 6 7
M  V30 7 1 7 8
M  V30 8 1 8 9
M  V30 9 1 9 10
M  V30 10 1 10 11
M  V30 11 1 11 12
M  V30 12 1 7 13
M  V30 13 2 3 14
M  V30 14 1 14 15
M  V30 15 2 15 16
M  V30 16 1 16 17
M  V30 17 1 16 1
M  V30 18 1 13 4
M  V30 19 1 12 8
M  V30 20 1 1 18
M  V30 21 1 2 19
M  V30 22 1 8 20 CFG=1
M  V30 23 1 9 21
M  V30 24 1 9 22
M  V30 25 1 10 23
M  V30 26 1 10 24
M  V30 27 1 11 25
M  V30 28 1 11 26
M  V30 29 1 12 27
M  V30 30 1 12 28
M  V30 31 1 14 29
M  V30 32 1 15 30
M  V30 END BOND
M  V30 END CTAB
M  END
>  <Dataset>  (15) 
CF

>  <Ligand_Instance>  (15) 
073_B_6

>  <PDB_ID>  (15) 
nan

>  <Standardized_SMILES>  (15) 
[H]C1=C([H])C(C2=NN=C([C@@]3([H])C([H])([H])C([H])([H])[N+]([H])([H])C3([H])[H])O2)=C([H])C([H])=C1Cl

>  <Name>  (15) 
2‐(4‐chlorophenyl)‐5‐[(3S)‐pyrrolidin‐3‐yl]‐1,3,4‐oxadiazole

>  <Pocket>  (15) 
A

>  <ATP_Site>  (15) 
1.0

>  <Peripheral>  (15) 
1.0

>  <Num_H_Atoms_ProtBoundConf>  (15) 
13.0

>  <Num_Resolved_Atoms>  (15) 
17.0

>  <Num_Not_Resolved_Atoms>  (15) 
0.0

>  <2D_Mol_H>  (15) 
<rdkit.Chem.rdchem.Mol object at 0x72a238db4200>

>  <MW>  (15) 
250.709

>  <HBA>  (15) 
3

>  <HBD>  (15) 
1

>  <LogP>  (15) 
1.4407

>  <NRB>  (15) 
2

>  <TPSA>  (15) 
55.53

>  <Num_Heavy_Atoms>  (15) 
17

>  <Ro5>  (15) 
[True, True, True, True, True, True]

>  <Ro5_Fulfilled>  (15) 
True

>  <Ro3>  (15) 
[True, True, True, True]

>  <Ro3_Fulfilled>  (15) 
True

>  <Fsp3>  (15) 
0.333333

>  <Fsp3_0.42>  (15) 
False

>  <Fsp3_0.45>  (15) 
False

>  <Stereogenic_Carbons>  (15) 
1

>  <C_Atoms>  (15) 
12

>  <FCStereo>  (15) 
0.083333

>  <SPS>  (15) 
335

>  <nSPS>  (15) 
19.705882

>  <PBF>  (15) 
0.522829

>  <PBF_0.6>  (15) 
False

>  <nPBF>  (15) 
0.030755

>  <nPBF_0.016>  (15) 
True

>  <PMI1>  (15) 
250.540439

>  <PMI2>  (15) 
3671.405479

>  <PMI3>  (15) 
3793.6349

>  <NPR1>  (15) 
0.066042

>  <NPR2>  (15) 
0.96778

>  <Sum_NPR>  (15) 
1.033823

>  <Sum_NPR_1.07>  (15) 
False

>  <Sum_NPR_1.2>  (15) 
False

>  <MaxAbsEStateIndex>  (15) 
5.837171

>  <MaxEStateIndex>  (15) 
5.837171

>  <MinAbsEStateIndex>  (15) 
0.406065

>  <MinEStateIndex>  (15) 
0.406065

>  <qed>  (15) 
0.87763

>  <MolWt>  (15) 
250.709

>  <HeavyAtomMolWt>  (15) 
237.605

>  <ExactMolWt>  (15) 
250.074166

>  <NumValenceElectrons>  (15) 
88

>  <NumRadicalElectrons>  (15) 
0

>  <MaxPartialCharge>  (15) 
0.247255

>  <MinPartialCharge>  (15) 
-0.420158

>  <MaxAbsPartialCharge>  (15) 
0.420158

>  <MinAbsPartialCharge>  (15) 
0.247255

>  <FpDensityMorgan1>  (15) 
1.235294

>  <FpDensityMorgan2>  (15) 
2.058824

>  <FpDensityMorgan3>  (15) 
2.764706

>  <BCUT2D_MWHI>  (15) 
35.495691

>  <BCUT2D_MWLOW>  (15) 
10.116823

>  <BCUT2D_CHGHI>  (15) 
2.252064

>  <BCUT2D_CHGLO>  (15) 
-1.973483

>  <BCUT2D_LOGPHI>  (15) 
2.240458

>  <BCUT2D_LOGPLOW>  (15) 
-2.806771

>  <BCUT2D_MRHI>  (15) 
6.301529

>  <BCUT2D_MRLOW>  (15) 
-0.636309

>  <AvgIpc>  (15) 
3.004675

>  <BalabanJ>  (15) 
1.861125

>  <BertzCT>  (15) 
502.724222

>  <Chi0>  (15) 
11.664926

>  <Chi0n>  (15) 
9.266062

>  <Chi0v>  (15) 
10.021991

>  <Chi1>  (15) 
8.3265

>  <Chi1n>  (15) 
5.73748

>  <Chi1v>  (15) 
6.115444

>  <Chi2n>  (15) 
4.250996

>  <Chi2v>  (15) 
4.687432

>  <Chi3n>  (15) 
3.051478

>  <Chi3v>  (15) 
3.303455

>  <Chi4n>  (15) 
2.08889

>  <Chi4v>  (15) 
2.214879

>  <HallKierAlpha>  (15) 
-1.39

>  <Ipc>  (15) 
18442.695851

>  <Kappa1>  (15) 
10.744461

>  <Kappa2>  (15) 
4.468309

>  <Kappa3>  (15) 
2.184635

>  <LabuteASA>  (15) 
103.997642

>  <PEOE_VSA1>  (15) 
9.73394

>  <PEOE_VSA10>  (15) 
0.0

>  <PEOE_VSA11>  (15) 
0.0

>  <PEOE_VSA12>  (15) 
11.781448

>  <PEOE_VSA13>  (15) 
0.0

>  <PEOE_VSA14>  (15) 
0.0

>  <PEOE_VSA2>  (15) 
0.0

>  <PEOE_VSA3>  (15) 
0.0

>  <PEOE_VSA4>  (15) 
0.0

>  <PEOE_VSA5>  (15) 
10.197364

>  <PEOE_VSA6>  (15) 
11.60094

>  <PEOE_VSA7>  (15) 
24.265468

>  <PEOE_VSA8>  (15) 
17.006906

>  <PEOE_VSA9>  (15) 
19.007419

>  <SMR_VSA1>  (15) 
9.73394

>  <SMR_VSA10>  (15) 
11.60094

>  <SMR_VSA2>  (15) 
0.0

>  <SMR_VSA3>  (15) 
10.197364

>  <SMR_VSA4>  (15) 
0.0

>  <SMR_VSA5>  (15) 
12.338728

>  <SMR_VSA6>  (15) 
13.089513

>  <SMR_VSA7>  (15) 
35.178826

>  <SMR_VSA8>  (15) 
0.0

>  <SMR_VSA9>  (15) 
11.454175

>  <SlogP_VSA1>  (15) 
5.316789

>  <SlogP_VSA10>  (15) 
0.0

>  <SlogP_VSA11>  (15) 
0.0

>  <SlogP_VSA12>  (15) 
11.60094

>  <SlogP_VSA2>  (15) 
23.286876

>  <SlogP_VSA3>  (15) 
0.0

>  <SlogP_VSA4>  (15) 
0.0

>  <SlogP_VSA5>  (15) 
18.229452

>  <SlogP_VSA6>  (15) 
28.682619

>  <SlogP_VSA7>  (15) 
5.022633

>  <SlogP_VSA8>  (15) 
11.454175

>  <SlogP_VSA9>  (15) 
0.0

>  <EState_VSA1>  (15) 
0.0

>  <EState_VSA10>  (15) 
0.0

>  <EState_VSA11>  (15) 
0.0

>  <EState_VSA2>  (15) 
0.0

>  <EState_VSA3>  (15) 
16.831263

>  <EState_VSA4>  (15) 
30.96451

>  <EState_VSA5>  (15) 
0.0

>  <EState_VSA6>  (15) 
0.0

>  <EState_VSA7>  (15) 
24.265468

>  <EState_VSA8>  (15) 
15.514152

>  <EState_VSA9>  (15) 
16.018091

>  <VSA_EState1>  (15) 
5.708176

>  <VSA_EState10>  (15) 
5.837171

>  <VSA_EState2>  (15) 
0.0

>  <VSA_EState3>  (15) 
11.196327

>  <VSA_EState4>  (15) 
0.912154

>  <VSA_EState5>  (15) 
1.732238

>  <VSA_EState6>  (15) 
7.425612

>  <VSA_EState7>  (15) 
1.113344

>  <VSA_EState8>  (15) 
2.186087

>  <VSA_EState9>  (15) 
0.0

>  <FractionCSP3>  (15) 
0.333333

>  <HeavyAtomCount>  (15) 
17

>  <NHOHCount>  (15) 
2

>  <NOCount>  (15) 
4

>  <NumAliphaticCarbocycles>  (15) 
0

>  <NumAliphaticHeterocycles>  (15) 
1

>  <NumAliphaticRings>  (15) 
1

>  <NumAromaticCarbocycles>  (15) 
1

>  <NumAromaticHeterocycles>  (15) 
1

>  <NAR>  (15) 
2

>  <NumHAcceptors>  (15) 
3

>  <NumHDonors>  (15) 
1

>  <NumHeteroatoms>  (15) 
5

>  <NumRotatableBonds>  (15) 
2

>  <NumSaturatedCarbocycles>  (15) 
0

>  <NumSaturatedHeterocycles>  (15) 
1

>  <NumSaturatedRings>  (15) 
1

>  <RingCount>  (15) 
3

>  <MolLogP>  (15) 
1.4407

>  <MolMR>  (15) 
63.7614

>  <fr_Al_COO>  (15) 
0

>  <fr_Al_OH>  (15) 
0

>  <fr_Al_OH_noTert>  (15) 
0

>  <fr_ArN>  (15) 
0

>  <fr_Ar_COO>  (15) 
0

>  <fr_Ar_N>  (15) 
2

>  <fr_Ar_NH>  (15) 
0

>  <fr_Ar_OH>  (15) 
0

>  <fr_COO>  (15) 
0

>  <fr_COO2>  (15) 
0

>  <fr_C_O>  (15) 
0

>  <fr_C_O_noCOO>  (15) 
0

>  <fr_C_S>  (15) 
0

>  <fr_HOCCN>  (15) 
0

>  <fr_Imine>  (15) 
0

>  <fr_NH0>  (15) 
2

>  <fr_NH1>  (15) 
0

>  <fr_NH2>  (15) 
1

>  <fr_N_O>  (15) 
0

>  <fr_Ndealkylation1>  (15) 
0

>  <fr_Ndealkylation2>  (15) 
0

>  <fr_Nhpyrrole>  (15) 
0

>  <fr_SH>  (15) 
0

>  <fr_aldehyde>  (15) 
0

>  <fr_alkyl_carbamate>  (15) 
0

>  <fr_alkyl_halide>  (15) 
0

>  <fr_allylic_oxid>  (15) 
0

>  <fr_amide>  (15) 
0

>  <fr_amidine>  (15) 
0

>  <fr_aniline>  (15) 
0

>  <fr_aryl_methyl>  (15) 
0

>  <fr_azide>  (15) 
0

>  <fr_azo>  (15) 
0

>  <fr_barbitur>  (15) 
0

>  <fr_benzene>  (15) 
1

>  <fr_benzodiazepine>  (15) 
0

>  <fr_bicyclic>  (15) 
0

>  <fr_diazo>  (15) 
0

>  <fr_dihydropyridine>  (15) 
0

>  <fr_epoxide>  (15) 
0

>  <fr_ester>  (15) 
0

>  <fr_ether>  (15) 
0

>  <fr_furan>  (15) 
0

>  <fr_guanido>  (15) 
0

>  <fr_halogen>  (15) 
1

>  <fr_hdrzine>  (15) 
0

>  <fr_hdrzone>  (15) 
0

>  <fr_imidazole>  (15) 
0

>  <fr_imide>  (15) 
0

>  <fr_isocyan>  (15) 
0

>  <fr_isothiocyan>  (15) 
0

>  <fr_ketone>  (15) 
0

>  <fr_ketone_Topliss>  (15) 
0

>  <fr_lactam>  (15) 
0

>  <fr_lactone>  (15) 
0

>  <fr_methoxy>  (15) 
0

>  <fr_morpholine>  (15) 
0

>  <fr_nitrile>  (15) 
0

>  <fr_nitro>  (15) 
0

>  <fr_nitro_arom>  (15) 
0

>  <fr_nitro_arom_nonortho>  (15) 
0

>  <fr_nitroso>  (15) 
0

>  <fr_oxazole>  (15) 
0

>  <fr_oxime>  (15) 
0

>  <fr_para_hydroxylation>  (15) 
0

>  <fr_phenol>  (15) 
0

>  <fr_phenol_noOrthoHbond>  (15) 
0

>  <fr_phos_acid>  (15) 
0

>  <fr_phos_ester>  (15) 
0

>  <fr_piperdine>  (15) 
0

>  <fr_piperzine>  (15) 
0

>  <fr_priamide>  (15) 
0

>  <fr_prisulfonamd>  (15) 
0

>  <fr_pyridine>  (15) 
0

>  <fr_quatN>  (15) 
1

>  <fr_sulfide>  (15) 
0

>  <fr_sulfonamd>  (15) 
0

>  <fr_sulfone>  (15) 
0

>  <fr_term_acetylene>  (15) 
0

>  <fr_tetrazole>  (15) 
0

>  <fr_thiazole>  (15) 
0

>  <fr_thiocyan>  (15) 
0

>  <fr_thiophene>  (15) 
0

>  <fr_unbrch_alkane>  (15) 
0

>  <fr_urea>  (15) 
0

>  <NP-Likeness>  (15) 
-1.349466

$$$$
F073
     RDKit          3D

  0  0  0  0  0  0  0  0  0  0999 V3000
M  V30 BEGIN CTAB
M  V30 COUNTS 30 32 0 0 0
M  V30 BEGIN ATOM
M  V30 1 C -0.049420 0.419967 5.316422 0
M  V30 2 C 0.158743 0.040486 3.993100 0
M  V30 3 C -0.765232 0.420158 3.037118 0
M  V30 4 C -0.524791 0.010176 1.657083 0
M  V30 5 N -1.293754 0.272835 0.582282 0
M  V30 6 N -0.731614 -0.272969 -0.483890 0
M  V30 7 C 0.387265 -0.880430 -0.099227 0
M  V30 8 C 1.394235 -1.643063 -0.883333 0 CFG=1
M  V30 9 C 0.664740 -2.819605 -1.500923 0
M  V30 10 C 1.304770 -2.861139 -2.872642 0
M  V30 11 N 1.529370 -1.459056 -3.226970 0 CHG=1 VAL=4
M  V30 12 C 1.977803 -0.854655 -2.007734 0
M  V30 13 O 0.480776 -0.686516 1.213697 0
M  V30 14 C -1.881434 1.159159 3.349720 0
M  V30 15 C -2.094588 1.541152 4.670278 0
M  V30 16 C -1.175351 1.169728 5.654346 0
M  V30 17 Cl -1.529704 1.697602 7.288670 0
M  V30 18 H 0.622010 0.168430 6.138632 0
M  V30 19 H 1.051733 -0.545701 3.769355 0
M  V30 20 H 2.223795 -2.022862 -0.228327 0
M  V30 21 H 0.875711 -3.712920 -0.901121 0
M  V30 22 H -0.423573 -2.682672 -1.531060 0
M  V30 23 H 0.611995 -3.370021 -3.564436 0
M  V30 24 H 2.259581 -3.420586 -2.768063 0
M  V30 25 H 0.621614 -1.096398 -3.592221 0
M  V30 26 H 2.241725 -1.472171 -3.990035 0
M  V30 27 H 3.101537 -0.930779 -1.997087 0
M  V30 28 H 1.753235 0.230192 -1.953116 0
M  V30 29 H -2.608562 1.457748 2.596390 0
M  V30 30 H -2.979742 2.126773 4.915997 0
M  V30 END ATOM
M  V30 BEGIN BOND
M  V30 1 2 1 2
M  V30 2 1 2 3
M  V30 3 1 3 4
M  V30 4 2 4 5
M  V30 5 1 5 6
M  V30 6 2 6 7
M  V30 7 1 7 8
M  V30 8 1 8 9
M  V30 9 1 9 10
M  V30 10 1 10 11
M  V30 11 1 11 12
M  V30 12 1 7 13
M  V30 13 2 3 14
M  V30 14 1 14 15
M  V30 15 2 15 16
M  V30 16 1 16 17
M  V30 17 1 16 1
M  V30 18 1 13 4
M  V30 19 1 12 8
M  V30 20 1 1 18
M  V30 21 1 2 19
M  V30 22 1 8 20 CFG=1
M  V30 23 1 9 21
M  V30 24 1 9 22
M  V30 25 1 10 23
M  V30 26 1 10 24
M  V30 27 1 11 25
M  V30 28 1 11 26
M  V30 29 1 12 27
M  V30 30 1 12 28
M  V30 31 1 14 29
M  V30 32 1 15 30
M  V30 END BOND
M  V30 END CTAB
M  END
>  <Dataset>  (16) 
CF

>  <Ligand_Instance>  (16) 
073_B_7

>  <PDB_ID>  (16) 
nan

>  <Standardized_SMILES>  (16) 
[H]C1=C([H])C(C2=NN=C([C@@]3([H])C([H])([H])C([H])([H])[N+]([H])([H])C3([H])[H])O2)=C([H])C([H])=C1Cl

>  <Name>  (16) 
2‐(4‐chlorophenyl)‐5‐[(3S)‐pyrrolidin‐3‐yl]‐1,3,4‐oxadiazole

>  <Pocket>  (16) 
X

>  <ATP_Site>  (16) 
1.0

>  <Peripheral>  (16) 
1.0

>  <Num_H_Atoms_ProtBoundConf>  (16) 
13.0

>  <Num_Resolved_Atoms>  (16) 
17.0

>  <Num_Not_Resolved_Atoms>  (16) 
0.0

>  <2D_Mol_H>  (16) 
<rdkit.Chem.rdchem.Mol object at 0x72a238db42e0>

>  <MW>  (16) 
250.709

>  <HBA>  (16) 
3

>  <HBD>  (16) 
1

>  <LogP>  (16) 
1.4407

>  <NRB>  (16) 
2

>  <TPSA>  (16) 
55.53

>  <Num_Heavy_Atoms>  (16) 
17

>  <Ro5>  (16) 
[True, True, True, True, True, True]

>  <Ro5_Fulfilled>  (16) 
True

>  <Ro3>  (16) 
[True, True, True, True]

>  <Ro3_Fulfilled>  (16) 
True

>  <Fsp3>  (16) 
0.333333

>  <Fsp3_0.42>  (16) 
False

>  <Fsp3_0.45>  (16) 
False

>  <Stereogenic_Carbons>  (16) 
1

>  <C_Atoms>  (16) 
12

>  <FCStereo>  (16) 
0.083333

>  <SPS>  (16) 
335

>  <nSPS>  (16) 
19.705882

>  <PBF>  (16) 
0.522829

>  <PBF_0.6>  (16) 
False

>  <nPBF>  (16) 
0.030755

>  <nPBF_0.016>  (16) 
True

>  <PMI1>  (16) 
250.540439

>  <PMI2>  (16) 
3671.405479

>  <PMI3>  (16) 
3793.6349

>  <NPR1>  (16) 
0.066042

>  <NPR2>  (16) 
0.96778

>  <Sum_NPR>  (16) 
1.033823

>  <Sum_NPR_1.07>  (16) 
False

>  <Sum_NPR_1.2>  (16) 
False

>  <MaxAbsEStateIndex>  (16) 
5.837171

>  <MaxEStateIndex>  (16) 
5.837171

>  <MinAbsEStateIndex>  (16) 
0.406065

>  <MinEStateIndex>  (16) 
0.406065

>  <qed>  (16) 
0.87763

>  <MolWt>  (16) 
250.709

>  <HeavyAtomMolWt>  (16) 
237.605

>  <ExactMolWt>  (16) 
250.074166

>  <NumValenceElectrons>  (16) 
88

>  <NumRadicalElectrons>  (16) 
0

>  <MaxPartialCharge>  (16) 
0.247255

>  <MinPartialCharge>  (16) 
-0.420158

>  <MaxAbsPartialCharge>  (16) 
0.420158

>  <MinAbsPartialCharge>  (16) 
0.247255

>  <FpDensityMorgan1>  (16) 
1.235294

>  <FpDensityMorgan2>  (16) 
2.058824

>  <FpDensityMorgan3>  (16) 
2.764706

>  <BCUT2D_MWHI>  (16) 
35.495691

>  <BCUT2D_MWLOW>  (16) 
10.116823

>  <BCUT2D_CHGHI>  (16) 
2.252064

>  <BCUT2D_CHGLO>  (16) 
-1.973483

>  <BCUT2D_LOGPHI>  (16) 
2.240458

>  <BCUT2D_LOGPLOW>  (16) 
-2.806771

>  <BCUT2D_MRHI>  (16) 
6.301529

>  <BCUT2D_MRLOW>  (16) 
-0.636309

>  <AvgIpc>  (16) 
3.004675

>  <BalabanJ>  (16) 
1.861125

>  <BertzCT>  (16) 
502.724222

>  <Chi0>  (16) 
11.664926

>  <Chi0n>  (16) 
9.266062

>  <Chi0v>  (16) 
10.021991

>  <Chi1>  (16) 
8.3265

>  <Chi1n>  (16) 
5.73748

>  <Chi1v>  (16) 
6.115444

>  <Chi2n>  (16) 
4.250996

>  <Chi2v>  (16) 
4.687432

>  <Chi3n>  (16) 
3.051478

>  <Chi3v>  (16) 
3.303455

>  <Chi4n>  (16) 
2.08889

>  <Chi4v>  (16) 
2.214879

>  <HallKierAlpha>  (16) 
-1.39

>  <Ipc>  (16) 
18442.695851

>  <Kappa1>  (16) 
10.744461

>  <Kappa2>  (16) 
4.468309

>  <Kappa3>  (16) 
2.184635

>  <LabuteASA>  (16) 
103.997642

>  <PEOE_VSA1>  (16) 
9.73394

>  <PEOE_VSA10>  (16) 
0.0

>  <PEOE_VSA11>  (16) 
0.0

>  <PEOE_VSA12>  (16) 
11.781448

>  <PEOE_VSA13>  (16) 
0.0

>  <PEOE_VSA14>  (16) 
0.0

>  <PEOE_VSA2>  (16) 
0.0

>  <PEOE_VSA3>  (16) 
0.0

>  <PEOE_VSA4>  (16) 
0.0

>  <PEOE_VSA5>  (16) 
10.197364

>  <PEOE_VSA6>  (16) 
11.60094

>  <PEOE_VSA7>  (16) 
24.265468

>  <PEOE_VSA8>  (16) 
17.006906

>  <PEOE_VSA9>  (16) 
19.007419

>  <SMR_VSA1>  (16) 
9.73394

>  <SMR_VSA10>  (16) 
11.60094

>  <SMR_VSA2>  (16) 
0.0

>  <SMR_VSA3>  (16) 
10.197364

>  <SMR_VSA4>  (16) 
0.0

>  <SMR_VSA5>  (16) 
12.338728

>  <SMR_VSA6>  (16) 
13.089513

>  <SMR_VSA7>  (16) 
35.178826

>  <SMR_VSA8>  (16) 
0.0

>  <SMR_VSA9>  (16) 
11.454175

>  <SlogP_VSA1>  (16) 
5.316789

>  <SlogP_VSA10>  (16) 
0.0

>  <SlogP_VSA11>  (16) 
0.0

>  <SlogP_VSA12>  (16) 
11.60094

>  <SlogP_VSA2>  (16) 
23.286876

>  <SlogP_VSA3>  (16) 
0.0

>  <SlogP_VSA4>  (16) 
0.0

>  <SlogP_VSA5>  (16) 
18.229452

>  <SlogP_VSA6>  (16) 
28.682619

>  <SlogP_VSA7>  (16) 
5.022633

>  <SlogP_VSA8>  (16) 
11.454175

>  <SlogP_VSA9>  (16) 
0.0

>  <EState_VSA1>  (16) 
0.0

>  <EState_VSA10>  (16) 
0.0

>  <EState_VSA11>  (16) 
0.0

>  <EState_VSA2>  (16) 
0.0

>  <EState_VSA3>  (16) 
16.831263

>  <EState_VSA4>  (16) 
30.96451

>  <EState_VSA5>  (16) 
0.0

>  <EState_VSA6>  (16) 
0.0

>  <EState_VSA7>  (16) 
24.265468

>  <EState_VSA8>  (16) 
15.514152

>  <EState_VSA9>  (16) 
16.018091

>  <VSA_EState1>  (16) 
5.708176

>  <VSA_EState10>  (16) 
5.837171

>  <VSA_EState2>  (16) 
0.0

>  <VSA_EState3>  (16) 
11.196327

>  <VSA_EState4>  (16) 
0.912154

>  <VSA_EState5>  (16) 
1.732238

>  <VSA_EState6>  (16) 
7.425612

>  <VSA_EState7>  (16) 
1.113344

>  <VSA_EState8>  (16) 
2.186087

>  <VSA_EState9>  (16) 
0.0

>  <FractionCSP3>  (16) 
0.333333

>  <HeavyAtomCount>  (16) 
17

>  <NHOHCount>  (16) 
2

>  <NOCount>  (16) 
4

>  <NumAliphaticCarbocycles>  (16) 
0

>  <NumAliphaticHeterocycles>  (16) 
1

>  <NumAliphaticRings>  (16) 
1

>  <NumAromaticCarbocycles>  (16) 
1

>  <NumAromaticHeterocycles>  (16) 
1

>  <NAR>  (16) 
2

>  <NumHAcceptors>  (16) 
3

>  <NumHDonors>  (16) 
1

>  <NumHeteroatoms>  (16) 
5

>  <NumRotatableBonds>  (16) 
2

>  <NumSaturatedCarbocycles>  (16) 
0

>  <NumSaturatedHeterocycles>  (16) 
1

>  <NumSaturatedRings>  (16) 
1

>  <RingCount>  (16) 
3

>  <MolLogP>  (16) 
1.4407

>  <MolMR>  (16) 
63.7614

>  <fr_Al_COO>  (16) 
0

>  <fr_Al_OH>  (16) 
0

>  <fr_Al_OH_noTert>  (16) 
0

>  <fr_ArN>  (16) 
0

>  <fr_Ar_COO>  (16) 
0

>  <fr_Ar_N>  (16) 
2

>  <fr_Ar_NH>  (16) 
0

>  <fr_Ar_OH>  (16) 
0

>  <fr_COO>  (16) 
0

>  <fr_COO2>  (16) 
0

>  <fr_C_O>  (16) 
0

>  <fr_C_O_noCOO>  (16) 
0

>  <fr_C_S>  (16) 
0

>  <fr_HOCCN>  (16) 
0

>  <fr_Imine>  (16) 
0

>  <fr_NH0>  (16) 
2

>  <fr_NH1>  (16) 
0

>  <fr_NH2>  (16) 
1

>  <fr_N_O>  (16) 
0

>  <fr_Ndealkylation1>  (16) 
0

>  <fr_Ndealkylation2>  (16) 
0

>  <fr_Nhpyrrole>  (16) 
0

>  <fr_SH>  (16) 
0

>  <fr_aldehyde>  (16) 
0

>  <fr_alkyl_carbamate>  (16) 
0

>  <fr_alkyl_halide>  (16) 
0

>  <fr_allylic_oxid>  (16) 
0

>  <fr_amide>  (16) 
0

>  <fr_amidine>  (16) 
0

>  <fr_aniline>  (16) 
0

>  <fr_aryl_methyl>  (16) 
0

>  <fr_azide>  (16) 
0

>  <fr_azo>  (16) 
0

>  <fr_barbitur>  (16) 
0

>  <fr_benzene>  (16) 
1

>  <fr_benzodiazepine>  (16) 
0

>  <fr_bicyclic>  (16) 
0

>  <fr_diazo>  (16) 
0

>  <fr_dihydropyridine>  (16) 
0

>  <fr_epoxide>  (16) 
0

>  <fr_ester>  (16) 
0

>  <fr_ether>  (16) 
0

>  <fr_furan>  (16) 
0

>  <fr_guanido>  (16) 
0

>  <fr_halogen>  (16) 
1

>  <fr_hdrzine>  (16) 
0

>  <fr_hdrzone>  (16) 
0

>  <fr_imidazole>  (16) 
0

>  <fr_imide>  (16) 
0

>  <fr_isocyan>  (16) 
0

>  <fr_isothiocyan>  (16) 
0

>  <fr_ketone>  (16) 
0

>  <fr_ketone_Topliss>  (16) 
0

>  <fr_lactam>  (16) 
0

>  <fr_lactone>  (16) 
0

>  <fr_methoxy>  (16) 
0

>  <fr_morpholine>  (16) 
0

>  <fr_nitrile>  (16) 
0

>  <fr_nitro>  (16) 
0

>  <fr_nitro_arom>  (16) 
0

>  <fr_nitro_arom_nonortho>  (16) 
0

>  <fr_nitroso>  (16) 
0

>  <fr_oxazole>  (16) 
0

>  <fr_oxime>  (16) 
0

>  <fr_para_hydroxylation>  (16) 
0

>  <fr_phenol>  (16) 
0

>  <fr_phenol_noOrthoHbond>  (16) 
0

>  <fr_phos_acid>  (16) 
0

>  <fr_phos_ester>  (16) 
0

>  <fr_piperdine>  (16) 
0

>  <fr_piperzine>  (16) 
0

>  <fr_priamide>  (16) 
0

>  <fr_prisulfonamd>  (16) 
0

>  <fr_pyridine>  (16) 
0

>  <fr_quatN>  (16) 
1

>  <fr_sulfide>  (16) 
0

>  <fr_sulfonamd>  (16) 
0

>  <fr_sulfone>  (16) 
0

>  <fr_term_acetylene>  (16) 
0

>  <fr_tetrazole>  (16) 
0

>  <fr_thiazole>  (16) 
0

>  <fr_thiocyan>  (16) 
0

>  <fr_thiophene>  (16) 
0

>  <fr_unbrch_alkane>  (16) 
0

>  <fr_urea>  (16) 
0

>  <NP-Likeness>  (16) 
-1.349466

$$$$
F073
     RDKit          3D

  0  0  0  0  0  0  0  0  0  0999 V3000
M  V30 BEGIN CTAB
M  V30 COUNTS 30 32 0 0 0
M  V30 BEGIN ATOM
M  V30 1 C -0.049420 0.419967 5.316422 0
M  V30 2 C 0.158743 0.040486 3.993100 0
M  V30 3 C -0.765232 0.420158 3.037118 0
M  V30 4 C -0.524791 0.010176 1.657083 0
M  V30 5 N -1.293754 0.272835 0.582282 0
M  V30 6 N -0.731614 -0.272969 -0.483890 0
M  V30 7 C 0.387265 -0.880430 -0.099227 0
M  V30 8 C 1.394235 -1.643063 -0.883333 0 CFG=1
M  V30 9 C 0.664740 -2.819605 -1.500923 0
M  V30 10 C 1.304770 -2.861139 -2.872642 0
M  V30 11 N 1.529370 -1.459056 -3.226970 0 CHG=1 VAL=4
M  V30 12 C 1.977803 -0.854655 -2.007734 0
M  V30 13 O 0.480776 -0.686516 1.213697 0
M  V30 14 C -1.881434 1.159159 3.349720 0
M  V30 15 C -2.094588 1.541152 4.670278 0
M  V30 16 C -1.175351 1.169728 5.654346 0
M  V30 17 Cl -1.529704 1.697602 7.288670 0
M  V30 18 H 0.622010 0.168430 6.138632 0
M  V30 19 H 1.051733 -0.545701 3.769355 0
M  V30 20 H 2.223795 -2.022862 -0.228327 0
M  V30 21 H 0.875711 -3.712920 -0.901121 0
M  V30 22 H -0.423573 -2.682672 -1.531060 0
M  V30 23 H 0.611995 -3.370021 -3.564436 0
M  V30 24 H 2.259581 -3.420586 -2.768063 0
M  V30 25 H 0.621614 -1.096398 -3.592221 0
M  V30 26 H 2.241725 -1.472171 -3.990035 0
M  V30 27 H 3.101537 -0.930779 -1.997087 0
M  V30 28 H 1.753235 0.230192 -1.953116 0
M  V30 29 H -2.608562 1.457748 2.596390 0
M  V30 30 H -2.979742 2.126773 4.915997 0
M  V30 END ATOM
M  V30 BEGIN BOND
M  V30 1 2 1 2
M  V30 2 1 2 3
M  V30 3 1 3 4
M  V30 4 2 4 5
M  V30 5 1 5 6
M  V30 6 2 6 7
M  V30 7 1 7 8
M  V30 8 1 8 9
M  V30 9 1 9 10
M  V30 10 1 10 11
M  V30 11 1 11 12
M  V30 12 1 7 13
M  V30 13 2 3 14
M  V30 14 1 14 15
M  V30 15 2 15 16
M  V30 16 1 16 17
M  V30 17 1 16 1
M  V30 18 1 13 4
M  V30 19 1 12 8
M  V30 20 1 1 18
M  V30 21 1 2 19
M  V30 22 1 8 20 CFG=1
M  V30 23 1 9 21
M  V30 24 1 9 22
M  V30 25 1 10 23
M  V30 26 1 10 24
M  V30 27 1 11 25
M  V30 28 1 11 26
M  V30 29 1 12 27
M  V30 30 1 12 28
M  V30 31 1 14 29
M  V30 32 1 15 30
M  V30 END BOND
M  V30 END CTAB
M  END
>  <Dataset>  (17) 
CF

>  <Ligand_Instance>  (17) 
073_B_8

>  <PDB_ID>  (17) 
nan

>  <Standardized_SMILES>  (17) 
[H]C1=C([H])C(C2=NN=C([C@@]3([H])C([H])([H])C([H])([H])[N+]([H])([H])C3([H])[H])O2)=C([H])C([H])=C1Cl

>  <Name>  (17) 
2‐(4‐chlorophenyl)‐5‐[(3S)‐pyrrolidin‐3‐yl]‐1,3,4‐oxadiazole

>  <Pocket>  (17) 
X

>  <ATP_Site>  (17) 
1.0

>  <Peripheral>  (17) 
1.0

>  <Num_H_Atoms_ProtBoundConf>  (17) 
13.0

>  <Num_Resolved_Atoms>  (17) 
17.0

>  <Num_Not_Resolved_Atoms>  (17) 
0.0

>  <2D_Mol_H>  (17) 
<rdkit.Chem.rdchem.Mol object at 0x72a238db43c0>

>  <MW>  (17) 
250.709

>  <HBA>  (17) 
3

>  <HBD>  (17) 
1

>  <LogP>  (17) 
1.4407

>  <NRB>  (17) 
2

>  <TPSA>  (17) 
55.53

>  <Num_Heavy_Atoms>  (17) 
17

>  <Ro5>  (17) 
[True, True, True, True, True, True]

>  <Ro5_Fulfilled>  (17) 
True

>  <Ro3>  (17) 
[True, True, True, True]

>  <Ro3_Fulfilled>  (17) 
True

>  <Fsp3>  (17) 
0.333333

>  <Fsp3_0.42>  (17) 
False

>  <Fsp3_0.45>  (17) 
False

>  <Stereogenic_Carbons>  (17) 
1

>  <C_Atoms>  (17) 
12

>  <FCStereo>  (17) 
0.083333

>  <SPS>  (17) 
335

>  <nSPS>  (17) 
19.705882

>  <PBF>  (17) 
0.522829

>  <PBF_0.6>  (17) 
False

>  <nPBF>  (17) 
0.030755

>  <nPBF_0.016>  (17) 
True

>  <PMI1>  (17) 
250.540439

>  <PMI2>  (17) 
3671.405479

>  <PMI3>  (17) 
3793.6349

>  <NPR1>  (17) 
0.066042

>  <NPR2>  (17) 
0.96778

>  <Sum_NPR>  (17) 
1.033823

>  <Sum_NPR_1.07>  (17) 
False

>  <Sum_NPR_1.2>  (17) 
False

>  <MaxAbsEStateIndex>  (17) 
5.837171

>  <MaxEStateIndex>  (17) 
5.837171

>  <MinAbsEStateIndex>  (17) 
0.406065

>  <MinEStateIndex>  (17) 
0.406065

>  <qed>  (17) 
0.87763

>  <MolWt>  (17) 
250.709

>  <HeavyAtomMolWt>  (17) 
237.605

>  <ExactMolWt>  (17) 
250.074166

>  <NumValenceElectrons>  (17) 
88

>  <NumRadicalElectrons>  (17) 
0

>  <MaxPartialCharge>  (17) 
0.247255

>  <MinPartialCharge>  (17) 
-0.420158

>  <MaxAbsPartialCharge>  (17) 
0.420158

>  <MinAbsPartialCharge>  (17) 
0.247255

>  <FpDensityMorgan1>  (17) 
1.235294

>  <FpDensityMorgan2>  (17) 
2.058824

>  <FpDensityMorgan3>  (17) 
2.764706

>  <BCUT2D_MWHI>  (17) 
35.495691

>  <BCUT2D_MWLOW>  (17) 
10.116823

>  <BCUT2D_CHGHI>  (17) 
2.252064

>  <BCUT2D_CHGLO>  (17) 
-1.973483

>  <BCUT2D_LOGPHI>  (17) 
2.240458

>  <BCUT2D_LOGPLOW>  (17) 
-2.806771

>  <BCUT2D_MRHI>  (17) 
6.301529

>  <BCUT2D_MRLOW>  (17) 
-0.636309

>  <AvgIpc>  (17) 
3.004675

>  <BalabanJ>  (17) 
1.861125

>  <BertzCT>  (17) 
502.724222

>  <Chi0>  (17) 
11.664926

>  <Chi0n>  (17) 
9.266062

>  <Chi0v>  (17) 
10.021991

>  <Chi1>  (17) 
8.3265

>  <Chi1n>  (17) 
5.73748

>  <Chi1v>  (17) 
6.115444

>  <Chi2n>  (17) 
4.250996

>  <Chi2v>  (17) 
4.687432

>  <Chi3n>  (17) 
3.051478

>  <Chi3v>  (17) 
3.303455

>  <Chi4n>  (17) 
2.08889

>  <Chi4v>  (17) 
2.214879

>  <HallKierAlpha>  (17) 
-1.39

>  <Ipc>  (17) 
18442.695851

>  <Kappa1>  (17) 
10.744461

>  <Kappa2>  (17) 
4.468309

>  <Kappa3>  (17) 
2.184635

>  <LabuteASA>  (17) 
103.997642

>  <PEOE_VSA1>  (17) 
9.73394

>  <PEOE_VSA10>  (17) 
0.0

>  <PEOE_VSA11>  (17) 
0.0

>  <PEOE_VSA12>  (17) 
11.781448

>  <PEOE_VSA13>  (17) 
0.0

>  <PEOE_VSA14>  (17) 
0.0

>  <PEOE_VSA2>  (17) 
0.0

>  <PEOE_VSA3>  (17) 
0.0

>  <PEOE_VSA4>  (17) 
0.0

>  <PEOE_VSA5>  (17) 
10.197364

>  <PEOE_VSA6>  (17) 
11.60094

>  <PEOE_VSA7>  (17) 
24.265468

>  <PEOE_VSA8>  (17) 
17.006906

>  <PEOE_VSA9>  (17) 
19.007419

>  <SMR_VSA1>  (17) 
9.73394

>  <SMR_VSA10>  (17) 
11.60094

>  <SMR_VSA2>  (17) 
0.0

>  <SMR_VSA3>  (17) 
10.197364

>  <SMR_VSA4>  (17) 
0.0

>  <SMR_VSA5>  (17) 
12.338728

>  <SMR_VSA6>  (17) 
13.089513

>  <SMR_VSA7>  (17) 
35.178826

>  <SMR_VSA8>  (17) 
0.0

>  <SMR_VSA9>  (17) 
11.454175

>  <SlogP_VSA1>  (17) 
5.316789

>  <SlogP_VSA10>  (17) 
0.0

>  <SlogP_VSA11>  (17) 
0.0

>  <SlogP_VSA12>  (17) 
11.60094

>  <SlogP_VSA2>  (17) 
23.286876

>  <SlogP_VSA3>  (17) 
0.0

>  <SlogP_VSA4>  (17) 
0.0

>  <SlogP_VSA5>  (17) 
18.229452

>  <SlogP_VSA6>  (17) 
28.682619

>  <SlogP_VSA7>  (17) 
5.022633

>  <SlogP_VSA8>  (17) 
11.454175

>  <SlogP_VSA9>  (17) 
0.0

>  <EState_VSA1>  (17) 
0.0

>  <EState_VSA10>  (17) 
0.0

>  <EState_VSA11>  (17) 
0.0

>  <EState_VSA2>  (17) 
0.0

>  <EState_VSA3>  (17) 
16.831263

>  <EState_VSA4>  (17) 
30.96451

>  <EState_VSA5>  (17) 
0.0

>  <EState_VSA6>  (17) 
0.0

>  <EState_VSA7>  (17) 
24.265468

>  <EState_VSA8>  (17) 
15.514152

>  <EState_VSA9>  (17) 
16.018091

>  <VSA_EState1>  (17) 
5.708176

>  <VSA_EState10>  (17) 
5.837171

>  <VSA_EState2>  (17) 
0.0

>  <VSA_EState3>  (17) 
11.196327

>  <VSA_EState4>  (17) 
0.912154

>  <VSA_EState5>  (17) 
1.732238

>  <VSA_EState6>  (17) 
7.425612

>  <VSA_EState7>  (17) 
1.113344

>  <VSA_EState8>  (17) 
2.186087

>  <VSA_EState9>  (17) 
0.0

>  <FractionCSP3>  (17) 
0.333333

>  <HeavyAtomCount>  (17) 
17

>  <NHOHCount>  (17) 
2

>  <NOCount>  (17) 
4

>  <NumAliphaticCarbocycles>  (17) 
0

>  <NumAliphaticHeterocycles>  (17) 
1

>  <NumAliphaticRings>  (17) 
1

>  <NumAromaticCarbocycles>  (17) 
1

>  <NumAromaticHeterocycles>  (17) 
1

>  <NAR>  (17) 
2

>  <NumHAcceptors>  (17) 
3

>  <NumHDonors>  (17) 
1

>  <NumHeteroatoms>  (17) 
5

>  <NumRotatableBonds>  (17) 
2

>  <NumSaturatedCarbocycles>  (17) 
0

>  <NumSaturatedHeterocycles>  (17) 
1

>  <NumSaturatedRings>  (17) 
1

>  <RingCount>  (17) 
3

>  <MolLogP>  (17) 
1.4407

>  <MolMR>  (17) 
63.7614

>  <fr_Al_COO>  (17) 
0

>  <fr_Al_OH>  (17) 
0

>  <fr_Al_OH_noTert>  (17) 
0

>  <fr_ArN>  (17) 
0

>  <fr_Ar_COO>  (17) 
0

>  <fr_Ar_N>  (17) 
2

>  <fr_Ar_NH>  (17) 
0

>  <fr_Ar_OH>  (17) 
0

>  <fr_COO>  (17) 
0

>  <fr_COO2>  (17) 
0

>  <fr_C_O>  (17) 
0

>  <fr_C_O_noCOO>  (17) 
0

>  <fr_C_S>  (17) 
0

>  <fr_HOCCN>  (17) 
0

>  <fr_Imine>  (17) 
0

>  <fr_NH0>  (17) 
2

>  <fr_NH1>  (17) 
0

>  <fr_NH2>  (17) 
1

>  <fr_N_O>  (17) 
0

>  <fr_Ndealkylation1>  (17) 
0

>  <fr_Ndealkylation2>  (17) 
0

>  <fr_Nhpyrrole>  (17) 
0

>  <fr_SH>  (17) 
0

>  <fr_aldehyde>  (17) 
0

>  <fr_alkyl_carbamate>  (17) 
0

>  <fr_alkyl_halide>  (17) 
0

>  <fr_allylic_oxid>  (17) 
0

>  <fr_amide>  (17) 
0

>  <fr_amidine>  (17) 
0

>  <fr_aniline>  (17) 
0

>  <fr_aryl_methyl>  (17) 
0

>  <fr_azide>  (17) 
0

>  <fr_azo>  (17) 
0

>  <fr_barbitur>  (17) 
0

>  <fr_benzene>  (17) 
1

>  <fr_benzodiazepine>  (17) 
0

>  <fr_bicyclic>  (17) 
0

>  <fr_diazo>  (17) 
0

>  <fr_dihydropyridine>  (17) 
0

>  <fr_epoxide>  (17) 
0

>  <fr_ester>  (17) 
0

>  <fr_ether>  (17) 
0

>  <fr_furan>  (17) 
0

>  <fr_guanido>  (17) 
0

>  <fr_halogen>  (17) 
1

>  <fr_hdrzine>  (17) 
0

>  <fr_hdrzone>  (17) 
0

>  <fr_imidazole>  (17) 
0

>  <fr_imide>  (17) 
0

>  <fr_isocyan>  (17) 
0

>  <fr_isothiocyan>  (17) 
0

>  <fr_ketone>  (17) 
0

>  <fr_ketone_Topliss>  (17) 
0

>  <fr_lactam>  (17) 
0

>  <fr_lactone>  (17) 
0

>  <fr_methoxy>  (17) 
0

>  <fr_morpholine>  (17) 
0

>  <fr_nitrile>  (17) 
0

>  <fr_nitro>  (17) 
0

>  <fr_nitro_arom>  (17) 
0

>  <fr_nitro_arom_nonortho>  (17) 
0

>  <fr_nitroso>  (17) 
0

>  <fr_oxazole>  (17) 
0

>  <fr_oxime>  (17) 
0

>  <fr_para_hydroxylation>  (17) 
0

>  <fr_phenol>  (17) 
0

>  <fr_phenol_noOrthoHbond>  (17) 
0

>  <fr_phos_acid>  (17) 
0

>  <fr_phos_ester>  (17) 
0

>  <fr_piperdine>  (17) 
0

>  <fr_piperzine>  (17) 
0

>  <fr_priamide>  (17) 
0

>  <fr_prisulfonamd>  (17) 
0

>  <fr_pyridine>  (17) 
0

>  <fr_quatN>  (17) 
1

>  <fr_sulfide>  (17) 
0

>  <fr_sulfonamd>  (17) 
0

>  <fr_sulfone>  (17) 
0

>  <fr_term_acetylene>  (17) 
0

>  <fr_tetrazole>  (17) 
0

>  <fr_thiazole>  (17) 
0

>  <fr_thiocyan>  (17) 
0

>  <fr_thiophene>  (17) 
0

>  <fr_unbrch_alkane>  (17) 
0

>  <fr_urea>  (17) 
0

>  <NP-Likeness>  (17) 
-1.349466

$$$$
F074
     RDKit          3D

  0  0  0  0  0  0  0  0  0  0999 V3000
M  V30 BEGIN CTAB
M  V30 COUNTS 29 31 0 0 0
M  V30 BEGIN ATOM
M  V30 1 C 2.068539 -1.798499 5.182181 0
M  V30 2 N 2.516275 -2.966709 4.666882 0
M  V30 3 C 2.293914 -3.209881 3.361590 0
M  V30 4 C 1.624487 -2.302930 2.539835 0
M  V30 5 C 1.196654 -1.132530 3.134838 0
M  V30 6 C 0.491772 -0.162133 2.298723 0
M  V30 7 N -0.009993 1.037056 2.667652 0
M  V30 8 N -0.578859 1.610415 1.595061 0
M  V30 9 C -0.417278 0.743861 0.565315 0
M  V30 10 C -0.903631 0.987340 -0.819529 0 CFG=1
M  V30 11 C 0.186502 0.823664 -1.851269 0
M  V30 12 C 0.201030 -0.667425 -2.052796 0
M  V30 13 N -1.215556 -0.952225 -2.159929 0 CHG=1 VAL=4
M  V30 14 C -1.886999 -0.106056 -1.217223 0
M  V30 15 O 0.223777 -0.308305 1.004033 0
M  V30 16 C 1.391075 -0.819821 4.465926 0
M  V30 17 H 2.279826 -1.670659 6.226781 0
M  V30 18 H 2.650556 -4.146311 2.939965 0
M  V30 19 H 1.436294 -2.479120 1.491235 0
M  V30 20 H -1.405474 1.962809 -0.875533 0
M  V30 21 H 1.116820 1.237579 -1.424588 0
M  V30 22 H -0.102987 1.353963 -2.774758 0
M  V30 23 H 0.695887 -0.921140 -3.004990 0
M  V30 24 H 0.631301 -1.173223 -1.183891 0
M  V30 25 H -1.512707 -0.730826 -3.132112 0
M  V30 26 H -1.335727 -1.959402 -1.997154 0
M  V30 27 H -2.832407 0.323273 -1.606970 0
M  V30 28 H -2.140156 -0.712783 -0.320133 0
M  V30 29 H 1.059961 0.087619 4.929553 0
M  V30 END ATOM
M  V30 BEGIN BOND
M  V30 1 2 1 2
M  V30 2 1 2 3
M  V30 3 2 3 4
M  V30 4 1 4 5
M  V30 5 1 5 6
M  V30 6 2 6 7
M  V30 7 1 7 8
M  V30 8 2 8 9
M  V30 9 1 9 10
M  V30 10 1 10 11
M  V30 11 1 11 12
M  V30 12 1 12 13
M  V30 13 1 13 14
M  V30 14 1 9 15
M  V30 15 2 5 16
M  V30 16 1 16 1
M  V30 17 1 15 6
M  V30 18 1 14 10
M  V30 19 1 1 17
M  V30 20 1 3 18
M  V30 21 1 4 19
M  V30 22 1 10 20 CFG=1
M  V30 23 1 11 21
M  V30 24 1 11 22
M  V30 25 1 12 23
M  V30 26 1 12 24
M  V30 27 1 13 25
M  V30 28 1 13 26
M  V30 29 1 14 27
M  V30 30 1 14 28
M  V30 31 1 16 29
M  V30 END BOND
M  V30 END CTAB
M  END
>  <Dataset>  (18) 
CF

>  <Ligand_Instance>  (18) 
074_B_7

>  <PDB_ID>  (18) 
nan

>  <Standardized_SMILES>  (18) 
[H]C1=NC([H])=C([H])C(C2=NN=C([C@@]3([H])C([H])([H])C([H])([H])[N+]([H])([H])C3([H])[H])O2)=C1[H]

>  <Name>  (18) 
 4‐{5‐[(3S)‐pyrrolidin‐3‐yl]‐1,3,4‐oxadiazol‐2‐yl}pyridine

>  <Pocket>  (18) 
A

>  <ATP_Site>  (18) 
1.0

>  <Peripheral>  (18) 
1.0

>  <Num_H_Atoms_ProtBoundConf>  (18) 
13.0

>  <Num_Resolved_Atoms>  (18) 
16.0

>  <Num_Not_Resolved_Atoms>  (18) 
0.0

>  <2D_Mol_H>  (18) 
<rdkit.Chem.rdchem.Mol object at 0x72a238db44a0>

>  <MW>  (18) 
217.252

>  <HBA>  (18) 
4

>  <HBD>  (18) 
1

>  <LogP>  (18) 
0.1823

>  <NRB>  (18) 
2

>  <TPSA>  (18) 
68.42

>  <Num_Heavy_Atoms>  (18) 
16

>  <Ro5>  (18) 
[True, True, True, True, True, True]

>  <Ro5_Fulfilled>  (18) 
True

>  <Ro3>  (18) 
[True, False, True, True]

>  <Ro3_Fulfilled>  (18) 
True

>  <Fsp3>  (18) 
0.363636

>  <Fsp3_0.42>  (18) 
False

>  <Fsp3_0.45>  (18) 
False

>  <Stereogenic_Carbons>  (18) 
1

>  <C_Atoms>  (18) 
11

>  <FCStereo>  (18) 
0.090909

>  <SPS>  (18) 
322

>  <nSPS>  (18) 
20.125

>  <PBF>  (18) 
0.518253

>  <PBF_0.6>  (18) 
False

>  <nPBF>  (18) 
0.032391

>  <nPBF_0.016>  (18) 
True

>  <PMI1>  (18) 
400.72627

>  <PMI2>  (18) 
1767.306811

>  <PMI3>  (18) 
2044.851007

>  <NPR1>  (18) 
0.195968

>  <NPR2>  (18) 
0.864272

>  <Sum_NPR>  (18) 
1.06024

>  <Sum_NPR_1.07>  (18) 
False

>  <Sum_NPR_1.2>  (18) 
False

>  <MaxAbsEStateIndex>  (18) 
5.683611

>  <MaxEStateIndex>  (18) 
5.683611

>  <MinAbsEStateIndex>  (18) 
0.419525

>  <MinEStateIndex>  (18) 
0.419525

>  <qed>  (18) 
0.778904

>  <MolWt>  (18) 
217.252

>  <HeavyAtomMolWt>  (18) 
204.148

>  <ExactMolWt>  (18) 
217.108387

>  <NumValenceElectrons>  (18) 
82

>  <NumRadicalElectrons>  (18) 
0

>  <MaxPartialCharge>  (18) 
0.247366

>  <MinPartialCharge>  (18) 
-0.420156

>  <MaxAbsPartialCharge>  (18) 
0.420156

>  <MinAbsPartialCharge>  (18) 
0.247366

>  <FpDensityMorgan1>  (18) 
1.25

>  <FpDensityMorgan2>  (18) 
2.125

>  <FpDensityMorgan3>  (18) 
2.875

>  <BCUT2D_MWHI>  (18) 
16.363997

>  <BCUT2D_MWLOW>  (18) 
10.117176

>  <BCUT2D_CHGHI>  (18) 
2.251736

>  <BCUT2D_CHGLO>  (18) 
-1.966902

>  <BCUT2D_LOGPHI>  (18) 
2.224091

>  <BCUT2D_LOGPLOW>  (18) 
-2.806771

>  <BCUT2D_MRHI>  (18) 
5.50238

>  <BCUT2D_MRLOW>  (18) 
-0.636309

>  <AvgIpc>  (18) 
3.010179

>  <BalabanJ>  (18) 
1.874039

>  <BertzCT>  (18) 
461.846619

>  <Chi0>  (18) 
10.794682

>  <Chi0n>  (18) 
8.835311

>  <Chi0v>  (18) 
8.835311

>  <Chi1>  (18) 
7.932653

>  <Chi1n>  (18) 
5.487545

>  <Chi1v>  (18) 
5.487545

>  <Chi2n>  (18) 
3.979992

>  <Chi2v>  (18) 
3.979992

>  <Chi3n>  (18) 
2.887577

>  <Chi3v>  (18) 
2.887577

>  <Chi4n>  (18) 
1.990916

>  <Chi4v>  (18) 
1.990916

>  <HallKierAlpha>  (18) 
-1.75

>  <Ipc>  (18) 
13076.216434

>  <Kappa1>  (18) 
9.474142

>  <Kappa2>  (18) 
4.016317

>  <Kappa3>  (18) 
1.6943

>  <LabuteASA>  (18) 
92.914024

>  <PEOE_VSA1>  (18) 
9.73394

>  <PEOE_VSA10>  (18) 
0.0

>  <PEOE_VSA11>  (18) 
0.0

>  <PEOE_VSA12>  (18) 
11.781448

>  <PEOE_VSA13>  (18) 
0.0

>  <PEOE_VSA14>  (18) 
0.0

>  <PEOE_VSA2>  (18) 
4.983979

>  <PEOE_VSA3>  (18) 
0.0

>  <PEOE_VSA4>  (18) 
0.0

>  <PEOE_VSA5>  (18) 
10.197364

>  <PEOE_VSA6>  (18) 
0.0

>  <PEOE_VSA7>  (18) 
12.132734

>  <PEOE_VSA8>  (18) 
24.37796

>  <PEOE_VSA9>  (18) 
19.007419

>  <SMR_VSA1>  (18) 
9.73394

>  <SMR_VSA10>  (18) 
0.0

>  <SMR_VSA2>  (18) 
0.0

>  <SMR_VSA3>  (18) 
15.181342

>  <SMR_VSA4>  (18) 
0.0

>  <SMR_VSA5>  (18) 
12.338728

>  <SMR_VSA6>  (18) 
13.089513

>  <SMR_VSA7>  (18) 
30.417145

>  <SMR_VSA8>  (18) 
0.0

>  <SMR_VSA9>  (18) 
11.454175

>  <SlogP_VSA1>  (18) 
5.316789

>  <SlogP_VSA10>  (18) 
0.0

>  <SlogP_VSA11>  (18) 
0.0

>  <SlogP_VSA12>  (18) 
0.0

>  <SlogP_VSA2>  (18) 
28.270855

>  <SlogP_VSA3>  (18) 
0.0

>  <SlogP_VSA4>  (18) 
0.0

>  <SlogP_VSA5>  (18) 
18.229452

>  <SlogP_VSA6>  (18) 
28.943572

>  <SlogP_VSA7>  (18) 
0.0

>  <SlogP_VSA8>  (18) 
11.454175

>  <SlogP_VSA9>  (18) 
0.0

>  <EState_VSA1>  (18) 
0.0

>  <EState_VSA10>  (18) 
0.0

>  <EState_VSA11>  (18) 
0.0

>  <EState_VSA2>  (18) 
0.0

>  <EState_VSA3>  (18) 
11.80863

>  <EState_VSA4>  (18) 
30.96451

>  <EState_VSA5>  (18) 
0.0

>  <EState_VSA6>  (18) 
12.393687

>  <EState_VSA7>  (18) 
12.132734

>  <EState_VSA8>  (18) 
20.498131

>  <EState_VSA9>  (18) 
4.417151

>  <VSA_EState1>  (18) 
5.683611

>  <VSA_EState10>  (18) 
0.0

>  <VSA_EState2>  (18) 
3.96029

>  <VSA_EState3>  (18) 
10.468932

>  <VSA_EState4>  (18) 
0.926599

>  <VSA_EState5>  (18) 
1.77125

>  <VSA_EState6>  (18) 
3.746164

>  <VSA_EState7>  (18) 
4.572505

>  <VSA_EState8>  (18) 
2.203984

>  <VSA_EState9>  (18) 
0.0

>  <FractionCSP3>  (18) 
0.363636

>  <HeavyAtomCount>  (18) 
16

>  <NHOHCount>  (18) 
2

>  <NOCount>  (18) 
5

>  <NumAliphaticCarbocycles>  (18) 
0

>  <NumAliphaticHeterocycles>  (18) 
1

>  <NumAliphaticRings>  (18) 
1

>  <NumAromaticCarbocycles>  (18) 
0

>  <NumAromaticHeterocycles>  (18) 
2

>  <NAR>  (18) 
2

>  <NumHAcceptors>  (18) 
4

>  <NumHDonors>  (18) 
1

>  <NumHeteroatoms>  (18) 
5

>  <NumRotatableBonds>  (18) 
2

>  <NumSaturatedCarbocycles>  (18) 
0

>  <NumSaturatedHeterocycles>  (18) 
1

>  <NumSaturatedRings>  (18) 
1

>  <RingCount>  (18) 
3

>  <MolLogP>  (18) 
0.1823

>  <MolMR>  (18) 
56.5464

>  <fr_Al_COO>  (18) 
0

>  <fr_Al_OH>  (18) 
0

>  <fr_Al_OH_noTert>  (18) 
0

>  <fr_ArN>  (18) 
0

>  <fr_Ar_COO>  (18) 
0

>  <fr_Ar_N>  (18) 
3

>  <fr_Ar_NH>  (18) 
0

>  <fr_Ar_OH>  (18) 
0

>  <fr_COO>  (18) 
0

>  <fr_COO2>  (18) 
0

>  <fr_C_O>  (18) 
0

>  <fr_C_O_noCOO>  (18) 
0

>  <fr_C_S>  (18) 
0

>  <fr_HOCCN>  (18) 
0

>  <fr_Imine>  (18) 
0

>  <fr_NH0>  (18) 
3

>  <fr_NH1>  (18) 
0

>  <fr_NH2>  (18) 
1

>  <fr_N_O>  (18) 
0

>  <fr_Ndealkylation1>  (18) 
0

>  <fr_Ndealkylation2>  (18) 
0

>  <fr_Nhpyrrole>  (18) 
0

>  <fr_SH>  (18) 
0

>  <fr_aldehyde>  (18) 
0

>  <fr_alkyl_carbamate>  (18) 
0

>  <fr_alkyl_halide>  (18) 
0

>  <fr_allylic_oxid>  (18) 
0

>  <fr_amide>  (18) 
0

>  <fr_amidine>  (18) 
0

>  <fr_aniline>  (18) 
0

>  <fr_aryl_methyl>  (18) 
0

>  <fr_azide>  (18) 
0

>  <fr_azo>  (18) 
0

>  <fr_barbitur>  (18) 
0

>  <fr_benzene>  (18) 
0

>  <fr_benzodiazepine>  (18) 
0

>  <fr_bicyclic>  (18) 
0

>  <fr_diazo>  (18) 
0

>  <fr_dihydropyridine>  (18) 
0

>  <fr_epoxide>  (18) 
0

>  <fr_ester>  (18) 
0

>  <fr_ether>  (18) 
0

>  <fr_furan>  (18) 
0

>  <fr_guanido>  (18) 
0

>  <fr_halogen>  (18) 
0

>  <fr_hdrzine>  (18) 
0

>  <fr_hdrzone>  (18) 
0

>  <fr_imidazole>  (18) 
0

>  <fr_imide>  (18) 
0

>  <fr_isocyan>  (18) 
0

>  <fr_isothiocyan>  (18) 
0

>  <fr_ketone>  (18) 
0

>  <fr_ketone_Topliss>  (18) 
0

>  <fr_lactam>  (18) 
0

>  <fr_lactone>  (18) 
0

>  <fr_methoxy>  (18) 
0

>  <fr_morpholine>  (18) 
0

>  <fr_nitrile>  (18) 
0

>  <fr_nitro>  (18) 
0

>  <fr_nitro_arom>  (18) 
0

>  <fr_nitro_arom_nonortho>  (18) 
0

>  <fr_nitroso>  (18) 
0

>  <fr_oxazole>  (18) 
0

>  <fr_oxime>  (18) 
0

>  <fr_para_hydroxylation>  (18) 
0

>  <fr_phenol>  (18) 
0

>  <fr_phenol_noOrthoHbond>  (18) 
0

>  <fr_phos_acid>  (18) 
0

>  <fr_phos_ester>  (18) 
0

>  <fr_piperdine>  (18) 
0

>  <fr_piperzine>  (18) 
0

>  <fr_priamide>  (18) 
0

>  <fr_prisulfonamd>  (18) 
0

>  <fr_pyridine>  (18) 
1

>  <fr_quatN>  (18) 
1

>  <fr_sulfide>  (18) 
0

>  <fr_sulfonamd>  (18) 
0

>  <fr_sulfone>  (18) 
0

>  <fr_term_acetylene>  (18) 
0

>  <fr_tetrazole>  (18) 
0

>  <fr_thiazole>  (18) 
0

>  <fr_thiocyan>  (18) 
0

>  <fr_thiophene>  (18) 
0

>  <fr_unbrch_alkane>  (18) 
0

>  <fr_urea>  (18) 
0

>  <NP-Likeness>  (18) 
-1.237831

$$$$
F074
     RDKit          3D

  0  0  0  0  0  0  0  0  0  0999 V3000
M  V30 BEGIN CTAB
M  V30 COUNTS 29 31 0 0 0
M  V30 BEGIN ATOM
M  V30 1 C 2.068539 -1.798499 5.182181 0
M  V30 2 N 2.516275 -2.966709 4.666882 0
M  V30 3 C 2.293914 -3.209881 3.361590 0
M  V30 4 C 1.624487 -2.302930 2.539835 0
M  V30 5 C 1.196654 -1.132530 3.134838 0
M  V30 6 C 0.491772 -0.162133 2.298723 0
M  V30 7 N -0.009993 1.037056 2.667652 0
M  V30 8 N -0.578859 1.610415 1.595061 0
M  V30 9 C -0.417278 0.743861 0.565315 0
M  V30 10 C -0.903631 0.987340 -0.819529 0 CFG=1
M  V30 11 C 0.186502 0.823664 -1.851269 0
M  V30 12 C 0.201030 -0.667425 -2.052796 0
M  V30 13 N -1.215556 -0.952225 -2.159929 0 CHG=1 VAL=4
M  V30 14 C -1.886999 -0.106056 -1.217223 0
M  V30 15 O 0.223777 -0.308305 1.004033 0
M  V30 16 C 1.391075 -0.819821 4.465926 0
M  V30 17 H 2.279826 -1.670659 6.226781 0
M  V30 18 H 2.650556 -4.146311 2.939965 0
M  V30 19 H 1.436294 -2.479120 1.491235 0
M  V30 20 H -1.405474 1.962809 -0.875533 0
M  V30 21 H 1.116820 1.237579 -1.424588 0
M  V30 22 H -0.102987 1.353963 -2.774758 0
M  V30 23 H 0.695887 -0.921140 -3.004990 0
M  V30 24 H 0.631301 -1.173223 -1.183891 0
M  V30 25 H -1.512707 -0.730826 -3.132112 0
M  V30 26 H -1.335727 -1.959402 -1.997154 0
M  V30 27 H -2.832407 0.323273 -1.606970 0
M  V30 28 H -2.140156 -0.712783 -0.320133 0
M  V30 29 H 1.059961 0.087619 4.929553 0
M  V30 END ATOM
M  V30 BEGIN BOND
M  V30 1 2 1 2
M  V30 2 1 2 3
M  V30 3 2 3 4
M  V30 4 1 4 5
M  V30 5 1 5 6
M  V30 6 2 6 7
M  V30 7 1 7 8
M  V30 8 2 8 9
M  V30 9 1 9 10
M  V30 10 1 10 11
M  V30 11 1 11 12
M  V30 12 1 12 13
M  V30 13 1 13 14
M  V30 14 1 9 15
M  V30 15 2 5 16
M  V30 16 1 16 1
M  V30 17 1 15 6
M  V30 18 1 14 10
M  V30 19 1 1 17
M  V30 20 1 3 18
M  V30 21 1 4 19
M  V30 22 1 10 20 CFG=1
M  V30 23 1 11 21
M  V30 24 1 11 22
M  V30 25 1 12 23
M  V30 26 1 12 24
M  V30 27 1 13 25
M  V30 28 1 13 26
M  V30 29 1 14 27
M  V30 30 1 14 28
M  V30 31 1 16 29
M  V30 END BOND
M  V30 END CTAB
M  END
>  <Dataset>  (19) 
CF

>  <Ligand_Instance>  (19) 
074_B_8

>  <PDB_ID>  (19) 
nan

>  <Standardized_SMILES>  (19) 
[H]C1=NC([H])=C([H])C(C2=NN=C([C@@]3([H])C([H])([H])C([H])([H])[N+]([H])([H])C3([H])[H])O2)=C1[H]

>  <Name>  (19) 
 4‐{5‐[(3S)‐pyrrolidin‐3‐yl]‐1,3,4‐oxadiazol‐2‐yl}pyridine

>  <Pocket>  (19) 
X

>  <ATP_Site>  (19) 
1.0

>  <Peripheral>  (19) 
1.0

>  <Num_H_Atoms_ProtBoundConf>  (19) 
13.0

>  <Num_Resolved_Atoms>  (19) 
16.0

>  <Num_Not_Resolved_Atoms>  (19) 
0.0

>  <2D_Mol_H>  (19) 
<rdkit.Chem.rdchem.Mol object at 0x72a238db4580>

>  <MW>  (19) 
217.252

>  <HBA>  (19) 
4

>  <HBD>  (19) 
1

>  <LogP>  (19) 
0.1823

>  <NRB>  (19) 
2

>  <TPSA>  (19) 
68.42

>  <Num_Heavy_Atoms>  (19) 
16

>  <Ro5>  (19) 
[True, True, True, True, True, True]

>  <Ro5_Fulfilled>  (19) 
True

>  <Ro3>  (19) 
[True, False, True, True]

>  <Ro3_Fulfilled>  (19) 
True

>  <Fsp3>  (19) 
0.363636

>  <Fsp3_0.42>  (19) 
False

>  <Fsp3_0.45>  (19) 
False

>  <Stereogenic_Carbons>  (19) 
1

>  <C_Atoms>  (19) 
11

>  <FCStereo>  (19) 
0.090909

>  <SPS>  (19) 
322

>  <nSPS>  (19) 
20.125

>  <PBF>  (19) 
0.518253

>  <PBF_0.6>  (19) 
False

>  <nPBF>  (19) 
0.032391

>  <nPBF_0.016>  (19) 
True

>  <PMI1>  (19) 
400.72627

>  <PMI2>  (19) 
1767.306811

>  <PMI3>  (19) 
2044.851007

>  <NPR1>  (19) 
0.195968

>  <NPR2>  (19) 
0.864272

>  <Sum_NPR>  (19) 
1.06024

>  <Sum_NPR_1.07>  (19) 
False

>  <Sum_NPR_1.2>  (19) 
False

>  <MaxAbsEStateIndex>  (19) 
5.683611

>  <MaxEStateIndex>  (19) 
5.683611

>  <MinAbsEStateIndex>  (19) 
0.419525

>  <MinEStateIndex>  (19) 
0.419525

>  <qed>  (19) 
0.778904

>  <MolWt>  (19) 
217.252

>  <HeavyAtomMolWt>  (19) 
204.148

>  <ExactMolWt>  (19) 
217.108387

>  <NumValenceElectrons>  (19) 
82

>  <NumRadicalElectrons>  (19) 
0

>  <MaxPartialCharge>  (19) 
0.247366

>  <MinPartialCharge>  (19) 
-0.420156

>  <MaxAbsPartialCharge>  (19) 
0.420156

>  <MinAbsPartialCharge>  (19) 
0.247366

>  <FpDensityMorgan1>  (19) 
1.25

>  <FpDensityMorgan2>  (19) 
2.125

>  <FpDensityMorgan3>  (19) 
2.875

>  <BCUT2D_MWHI>  (19) 
16.363997

>  <BCUT2D_MWLOW>  (19) 
10.117176

>  <BCUT2D_CHGHI>  (19) 
2.251736

>  <BCUT2D_CHGLO>  (19) 
-1.966902

>  <BCUT2D_LOGPHI>  (19) 
2.224091

>  <BCUT2D_LOGPLOW>  (19) 
-2.806771

>  <BCUT2D_MRHI>  (19) 
5.50238

>  <BCUT2D_MRLOW>  (19) 
-0.636309

>  <AvgIpc>  (19) 
3.010179

>  <BalabanJ>  (19) 
1.874039

>  <BertzCT>  (19) 
461.846619

>  <Chi0>  (19) 
10.794682

>  <Chi0n>  (19) 
8.835311

>  <Chi0v>  (19) 
8.835311

>  <Chi1>  (19) 
7.932653

>  <Chi1n>  (19) 
5.487545

>  <Chi1v>  (19) 
5.487545

>  <Chi2n>  (19) 
3.979992

>  <Chi2v>  (19) 
3.979992

>  <Chi3n>  (19) 
2.887577

>  <Chi3v>  (19) 
2.887577

>  <Chi4n>  (19) 
1.990916

>  <Chi4v>  (19) 
1.990916

>  <HallKierAlpha>  (19) 
-1.75

>  <Ipc>  (19) 
13076.216434

>  <Kappa1>  (19) 
9.474142

>  <Kappa2>  (19) 
4.016317

>  <Kappa3>  (19) 
1.6943

>  <LabuteASA>  (19) 
92.914024

>  <PEOE_VSA1>  (19) 
9.73394

>  <PEOE_VSA10>  (19) 
0.0

>  <PEOE_VSA11>  (19) 
0.0

>  <PEOE_VSA12>  (19) 
11.781448

>  <PEOE_VSA13>  (19) 
0.0

>  <PEOE_VSA14>  (19) 
0.0

>  <PEOE_VSA2>  (19) 
4.983979

>  <PEOE_VSA3>  (19) 
0.0

>  <PEOE_VSA4>  (19) 
0.0

>  <PEOE_VSA5>  (19) 
10.197364

>  <PEOE_VSA6>  (19) 
0.0

>  <PEOE_VSA7>  (19) 
12.132734

>  <PEOE_VSA8>  (19) 
24.37796

>  <PEOE_VSA9>  (19) 
19.007419

>  <SMR_VSA1>  (19) 
9.73394

>  <SMR_VSA10>  (19) 
0.0

>  <SMR_VSA2>  (19) 
0.0

>  <SMR_VSA3>  (19) 
15.181342

>  <SMR_VSA4>  (19) 
0.0

>  <SMR_VSA5>  (19) 
12.338728

>  <SMR_VSA6>  (19) 
13.089513

>  <SMR_VSA7>  (19) 
30.417145

>  <SMR_VSA8>  (19) 
0.0

>  <SMR_VSA9>  (19) 
11.454175

>  <SlogP_VSA1>  (19) 
5.316789

>  <SlogP_VSA10>  (19) 
0.0

>  <SlogP_VSA11>  (19) 
0.0

>  <SlogP_VSA12>  (19) 
0.0

>  <SlogP_VSA2>  (19) 
28.270855

>  <SlogP_VSA3>  (19) 
0.0

>  <SlogP_VSA4>  (19) 
0.0

>  <SlogP_VSA5>  (19) 
18.229452

>  <SlogP_VSA6>  (19) 
28.943572

>  <SlogP_VSA7>  (19) 
0.0

>  <SlogP_VSA8>  (19) 
11.454175

>  <SlogP_VSA9>  (19) 
0.0

>  <EState_VSA1>  (19) 
0.0

>  <EState_VSA10>  (19) 
0.0

>  <EState_VSA11>  (19) 
0.0

>  <EState_VSA2>  (19) 
0.0

>  <EState_VSA3>  (19) 
11.80863

>  <EState_VSA4>  (19) 
30.96451

>  <EState_VSA5>  (19) 
0.0

>  <EState_VSA6>  (19) 
12.393687

>  <EState_VSA7>  (19) 
12.132734

>  <EState_VSA8>  (19) 
20.498131

>  <EState_VSA9>  (19) 
4.417151

>  <VSA_EState1>  (19) 
5.683611

>  <VSA_EState10>  (19) 
0.0

>  <VSA_EState2>  (19) 
3.96029

>  <VSA_EState3>  (19) 
10.468932

>  <VSA_EState4>  (19) 
0.926599

>  <VSA_EState5>  (19) 
1.77125

>  <VSA_EState6>  (19) 
3.746164

>  <VSA_EState7>  (19) 
4.572505

>  <VSA_EState8>  (19) 
2.203984

>  <VSA_EState9>  (19) 
0.0

>  <FractionCSP3>  (19) 
0.363636

>  <HeavyAtomCount>  (19) 
16

>  <NHOHCount>  (19) 
2

>  <NOCount>  (19) 
5

>  <NumAliphaticCarbocycles>  (19) 
0

>  <NumAliphaticHeterocycles>  (19) 
1

>  <NumAliphaticRings>  (19) 
1

>  <NumAromaticCarbocycles>  (19) 
0

>  <NumAromaticHeterocycles>  (19) 
2

>  <NAR>  (19) 
2

>  <NumHAcceptors>  (19) 
4

>  <NumHDonors>  (19) 
1

>  <NumHeteroatoms>  (19) 
5

>  <NumRotatableBonds>  (19) 
2

>  <NumSaturatedCarbocycles>  (19) 
0

>  <NumSaturatedHeterocycles>  (19) 
1

>  <NumSaturatedRings>  (19) 
1

>  <RingCount>  (19) 
3

>  <MolLogP>  (19) 
0.1823

>  <MolMR>  (19) 
56.5464

>  <fr_Al_COO>  (19) 
0

>  <fr_Al_OH>  (19) 
0

>  <fr_Al_OH_noTert>  (19) 
0

>  <fr_ArN>  (19) 
0

>  <fr_Ar_COO>  (19) 
0

>  <fr_Ar_N>  (19) 
3

>  <fr_Ar_NH>  (19) 
0

>  <fr_Ar_OH>  (19) 
0

>  <fr_COO>  (19) 
0

>  <fr_COO2>  (19) 
0

>  <fr_C_O>  (19) 
0

>  <fr_C_O_noCOO>  (19) 
0

>  <fr_C_S>  (19) 
0

>  <fr_HOCCN>  (19) 
0

>  <fr_Imine>  (19) 
0

>  <fr_NH0>  (19) 
3

>  <fr_NH1>  (19) 
0

>  <fr_NH2>  (19) 
1

>  <fr_N_O>  (19) 
0

>  <fr_Ndealkylation1>  (19) 
0

>  <fr_Ndealkylation2>  (19) 
0

>  <fr_Nhpyrrole>  (19) 
0

>  <fr_SH>  (19) 
0

>  <fr_aldehyde>  (19) 
0

>  <fr_alkyl_carbamate>  (19) 
0

>  <fr_alkyl_halide>  (19) 
0

>  <fr_allylic_oxid>  (19) 
0

>  <fr_amide>  (19) 
0

>  <fr_amidine>  (19) 
0

>  <fr_aniline>  (19) 
0

>  <fr_aryl_methyl>  (19) 
0

>  <fr_azide>  (19) 
0

>  <fr_azo>  (19) 
0

>  <fr_barbitur>  (19) 
0

>  <fr_benzene>  (19) 
0

>  <fr_benzodiazepine>  (19) 
0

>  <fr_bicyclic>  (19) 
0

>  <fr_diazo>  (19) 
0

>  <fr_dihydropyridine>  (19) 
0

>  <fr_epoxide>  (19) 
0

>  <fr_ester>  (19) 
0

>  <fr_ether>  (19) 
0

>  <fr_furan>  (19) 
0

>  <fr_guanido>  (19) 
0

>  <fr_halogen>  (19) 
0

>  <fr_hdrzine>  (19) 
0

>  <fr_hdrzone>  (19) 
0

>  <fr_imidazole>  (19) 
0

>  <fr_imide>  (19) 
0

>  <fr_isocyan>  (19) 
0

>  <fr_isothiocyan>  (19) 
0

>  <fr_ketone>  (19) 
0

>  <fr_ketone_Topliss>  (19) 
0

>  <fr_lactam>  (19) 
0

>  <fr_lactone>  (19) 
0

>  <fr_methoxy>  (19) 
0

>  <fr_morpholine>  (19) 
0

>  <fr_nitrile>  (19) 
0

>  <fr_nitro>  (19) 
0

>  <fr_nitro_arom>  (19) 
0

>  <fr_nitro_arom_nonortho>  (19) 
0

>  <fr_nitroso>  (19) 
0

>  <fr_oxazole>  (19) 
0

>  <fr_oxime>  (19) 
0

>  <fr_para_hydroxylation>  (19) 
0

>  <fr_phenol>  (19) 
0

>  <fr_phenol_noOrthoHbond>  (19) 
0

>  <fr_phos_acid>  (19) 
0

>  <fr_phos_ester>  (19) 
0

>  <fr_piperdine>  (19) 
0

>  <fr_piperzine>  (19) 
0

>  <fr_priamide>  (19) 
0

>  <fr_prisulfonamd>  (19) 
0

>  <fr_pyridine>  (19) 
1

>  <fr_quatN>  (19) 
1

>  <fr_sulfide>  (19) 
0

>  <fr_sulfonamd>  (19) 
0

>  <fr_sulfone>  (19) 
0

>  <fr_term_acetylene>  (19) 
0

>  <fr_tetrazole>  (19) 
0

>  <fr_thiazole>  (19) 
0

>  <fr_thiocyan>  (19) 
0

>  <fr_thiophene>  (19) 
0

>  <fr_unbrch_alkane>  (19) 
0

>  <fr_urea>  (19) 
0

>  <NP-Likeness>  (19) 
-1.237831

$$$$
F102
     RDKit          3D

  0  0  0  0  0  0  0  0  0  0999 V3000
M  V30 BEGIN CTAB
M  V30 COUNTS 36 39 0 0 0
M  V30 BEGIN ATOM
M  V30 1 C 1.554391 -5.666655 4.402658 0
M  V30 2 N 2.484519 -5.629072 3.434555 0
M  V30 3 C 2.732703 -4.547830 2.673815 0
M  V30 4 C 1.987354 -3.412049 2.902262 0
M  V30 5 C 1.966216 -2.086330 2.306607 0
M  V30 6 O 2.334601 -1.148881 3.096899 0
M  V30 7 N 1.582294 -1.775178 0.972955 0
M  V30 8 C 1.127245 -2.511155 -0.208919 0
M  V30 9 C 0.049009 -1.633056 -0.862219 0
M  V30 10 C 0.039889 -0.442302 0.068923 0 CFG=2
M  V30 11 C -0.410653 0.806899 -0.531482 0
M  V30 12 N 0.056291 1.595987 -1.521954 0
M  V30 13 C -0.768455 2.654426 -1.669506 0
M  V30 14 C -0.802908 3.757182 -2.494096 0
M  V30 15 C -1.817511 4.709669 -2.405515 0
M  V30 16 C -2.782990 4.494627 -1.454248 0
M  V30 17 C -2.823135 3.403305 -0.577636 0
M  V30 18 C -1.767327 2.495571 -0.734100 0
M  V30 19 O -1.503799 1.382348 -0.087306 0
M  V30 20 C 1.544265 -0.434183 0.397081 0
M  V30 21 C 1.003756 -3.420755 3.909609 0
M  V30 22 N 0.805942 -4.563291 4.648865 0
M  V30 23 H 1.433668 -6.594525 4.963358 0
M  V30 24 H 3.424384 -4.372410 1.881892 0
M  V30 25 H 1.966686 -2.697760 -0.912094 0
M  V30 26 H 0.637106 -3.457750 0.070801 0
M  V30 27 H 0.463793 -1.288357 -1.829155 0
M  V30 28 H -0.920688 -2.137646 -0.932757 0
M  V30 29 H -0.529585 -0.779369 0.965059 0
M  V30 30 H -0.003127 3.879629 -3.237607 0
M  V30 31 H -1.855717 5.585078 -3.052329 0
M  V30 32 H -3.616159 5.179208 -1.306661 0
M  V30 33 H -3.606586 3.279277 0.156214 0
M  V30 34 H 1.829268 0.358882 1.082424 0
M  V30 35 H 2.083479 -0.446071 -0.577949 0
M  V30 36 H 0.315446 -2.664333 4.256536 0
M  V30 END ATOM
M  V30 BEGIN BOND
M  V30 1 2 1 2
M  V30 2 1 2 3
M  V30 3 2 3 4
M  V30 4 1 4 5
M  V30 5 2 5 6
M  V30 6 1 5 7
M  V30 7 1 7 8
M  V30 8 1 8 9
M  V30 9 1 9 10
M  V30 10 1 10 11
M  V30 11 2 11 12
M  V30 12 1 12 13
M  V30 13 2 13 14
M  V30 14 1 14 15
M  V30 15 2 15 16
M  V30 16 1 16 17
M  V30 17 2 17 18
M  V30 18 1 18 19
M  V30 19 1 10 20
M  V30 20 1 4 21
M  V30 21 2 21 22
M  V30 22 1 22 1
M  V30 23 1 20 7
M  V30 24 1 19 11
M  V30 25 1 18 13
M  V30 26 1 1 23
M  V30 27 1 3 24
M  V30 28 1 8 25
M  V30 29 1 8 26
M  V30 30 1 9 27
M  V30 31 1 9 28
M  V30 32 1 10 29 CFG=1
M  V30 33 1 14 30
M  V30 34 1 15 31
M  V30 35 1 16 32
M  V30 36 1 17 33
M  V30 37 1 20 34
M  V30 38 1 20 35
M  V30 39 1 21 36
M  V30 END BOND
M  V30 END CTAB
M  END
>  <Dataset>  (20) 
CF

>  <Ligand_Instance>  (20) 
102_B_1

>  <PDB_ID>  (20) 
nan

>  <Standardized_SMILES>  (20) 
[H]C1=NC([H])=C(C(=O)N2C([H])([H])C([H])([H])[C@]([H])(C3=NC4=C([H])C([H])=C([H])C([H])=C4O3)C2([H])[H])C([H])=N1

>  <Name>  (20) 
2‐[(3S)‐1‐(pyrimidine‐5‐carbonyl)pyrrolidin‐3‐yl]‐1,3‐benzoxazole

>  <Pocket>  (20) 
A

>  <ATP_Site>  (20) 
1.0

>  <Peripheral>  (20) 
0.0

>  <Num_H_Atoms_ProtBoundConf>  (20) 
14.0

>  <Num_Resolved_Atoms>  (20) 
22.0

>  <Num_Not_Resolved_Atoms>  (20) 
0.0

>  <2D_Mol_H>  (20) 
<rdkit.Chem.rdchem.Mol object at 0x72a238db4660>

>  <MW>  (20) 
294.314

>  <HBA>  (20) 
5

>  <HBD>  (20) 
0

>  <LogP>  (20) 
2.2475

>  <NRB>  (20) 
2

>  <TPSA>  (20) 
72.12

>  <Num_Heavy_Atoms>  (20) 
22

>  <Ro5>  (20) 
[True, True, True, True, True, True]

>  <Ro5_Fulfilled>  (20) 
True

>  <Ro3>  (20) 
[True, False, True, True]

>  <Ro3_Fulfilled>  (20) 
True

>  <Fsp3>  (20) 
0.25

>  <Fsp3_0.42>  (20) 
False

>  <Fsp3_0.45>  (20) 
False

>  <Stereogenic_Carbons>  (20) 
1

>  <C_Atoms>  (20) 
16

>  <FCStereo>  (20) 
0.0625

>  <SPS>  (20) 
396

>  <nSPS>  (20) 
18.0

>  <PBF>  (20) 
0.680284

>  <PBF_0.6>  (20) 
True

>  <nPBF>  (20) 
0.030922

>  <nPBF_0.016>  (20) 
True

>  <PMI1>  (20) 
486.288541

>  <PMI2>  (20) 
4993.209207

>  <PMI3>  (20) 
5151.894142

>  <NPR1>  (20) 
0.09439

>  <NPR2>  (20) 
0.969199

>  <Sum_NPR>  (20) 
1.063589

>  <Sum_NPR_1.07>  (20) 
False

>  <Sum_NPR_1.2>  (20) 
False

>  <MaxAbsEStateIndex>  (20) 
12.39087

>  <MaxEStateIndex>  (20) 
12.39087

>  <MinAbsEStateIndex>  (20) 
0.042397

>  <MinEStateIndex>  (20) 
-0.042397

>  <qed>  (20) 
0.724538

>  <MolWt>  (20) 
294.314

>  <HeavyAtomMolWt>  (20) 
280.202

>  <ExactMolWt>  (20) 
294.111676

>  <NumValenceElectrons>  (20) 
110

>  <NumRadicalElectrons>  (20) 
0

>  <MaxPartialCharge>  (20) 
0.256513

>  <MinPartialCharge>  (20) 
-0.440325

>  <MaxAbsPartialCharge>  (20) 
0.440325

>  <MinAbsPartialCharge>  (20) 
0.256513

>  <FpDensityMorgan1>  (20) 
1.227273

>  <FpDensityMorgan2>  (20) 
2.045455

>  <FpDensityMorgan3>  (20) 
2.863636

>  <BCUT2D_MWHI>  (20) 
16.348708

>  <BCUT2D_MWLOW>  (20) 
10.11394

>  <BCUT2D_CHGHI>  (20) 
2.307572

>  <BCUT2D_CHGLO>  (20) 
-2.147036

>  <BCUT2D_LOGPHI>  (20) 
2.29301

>  <BCUT2D_LOGPLOW>  (20) 
-2.281985

>  <BCUT2D_MRHI>  (20) 
5.93364

>  <BCUT2D_MRLOW>  (20) 
0.078883

>  <AvgIpc>  (20) 
3.211608

>  <BalabanJ>  (20) 
1.533987

>  <BertzCT>  (20) 
782.138575

>  <Chi0>  (20) 
14.940947

>  <Chi0n>  (20) 
11.845473

>  <Chi0v>  (20) 
11.845473

>  <Chi1>  (20) 
10.809663

>  <Chi1n>  (20) 
7.208316

>  <Chi1v>  (20) 
7.208316

>  <Chi2n>  (20) 
5.383748

>  <Chi2v>  (20) 
5.383748

>  <Chi3n>  (20) 
3.942659

>  <Chi3v>  (20) 
3.942659

>  <Chi4n>  (20) 
2.803061

>  <Chi4v>  (20) 
2.803061

>  <HallKierAlpha>  (20) 
-2.76

>  <Ipc>  (20) 
283096.811985

>  <Kappa1>  (20) 
12.941516

>  <Kappa2>  (20) 
5.21566

>  <Kappa3>  (20) 
2.221591

>  <LabuteASA>  (20) 
126.36367

>  <PEOE_VSA1>  (20) 
9.317061

>  <PEOE_VSA10>  (20) 
11.844021

>  <PEOE_VSA11>  (20) 
11.473744

>  <PEOE_VSA12>  (20) 
0.0

>  <PEOE_VSA13>  (20) 
5.90718

>  <PEOE_VSA14>  (20) 
0.0

>  <PEOE_VSA2>  (20) 
4.794537

>  <PEOE_VSA3>  (20) 
14.951936

>  <PEOE_VSA4>  (20) 
0.0

>  <PEOE_VSA5>  (20) 
0.0

>  <PEOE_VSA6>  (20) 
12.132734

>  <PEOE_VSA7>  (20) 
18.553556

>  <PEOE_VSA8>  (20) 
25.4832

>  <PEOE_VSA9>  (20) 
11.481358

>  <SMR_VSA1>  (20) 
9.211688

>  <SMR_VSA10>  (20) 
17.006901

>  <SMR_VSA2>  (20) 
0.0

>  <SMR_VSA3>  (20) 
19.851845

>  <SMR_VSA4>  (20) 
0.0

>  <SMR_VSA5>  (20) 
12.338728

>  <SMR_VSA6>  (20) 
13.089513

>  <SMR_VSA7>  (20) 
54.440651

>  <SMR_VSA8>  (20) 
0.0

>  <SMR_VSA9>  (20) 
0.0

>  <SlogP_VSA1>  (20) 
0.0

>  <SlogP_VSA10>  (20) 
0.0

>  <SlogP_VSA11>  (20) 
0.0

>  <SlogP_VSA12>  (20) 
0.0

>  <SlogP_VSA2>  (20) 
38.848538

>  <SlogP_VSA3>  (20) 
0.0

>  <SlogP_VSA4>  (20) 
0.0

>  <SlogP_VSA5>  (20) 
28.58744

>  <SlogP_VSA6>  (20) 
47.403626

>  <SlogP_VSA7>  (20) 
0.0

>  <SlogP_VSA8>  (20) 
11.099721

>  <SlogP_VSA9>  (20) 
0.0

>  <EState_VSA1>  (20) 
0.0

>  <EState_VSA10>  (20) 
4.794537

>  <EState_VSA11>  (20) 
0.0

>  <EState_VSA2>  (20) 
11.825086

>  <EState_VSA3>  (20) 
24.543688

>  <EState_VSA4>  (20) 
17.520542

>  <EState_VSA5>  (20) 
6.32732

>  <EState_VSA6>  (20) 
17.293597

>  <EState_VSA7>  (20) 
24.265468

>  <EState_VSA8>  (20) 
14.951936

>  <EState_VSA9>  (20) 
4.417151

>  <VSA_EState1>  (20) 
5.811966

>  <VSA_EState10>  (20) 
0.0

>  <VSA_EState2>  (20) 
26.513958

>  <VSA_EState3>  (20) 
0.0

>  <VSA_EState4>  (20) 
2.164988

>  <VSA_EState5>  (20) 
0.806485

>  <VSA_EState6>  (20) 
7.706564

>  <VSA_EState7>  (20) 
5.359462

>  <VSA_EState8>  (20) 
1.303243

>  <VSA_EState9>  (20) 
0.0

>  <FractionCSP3>  (20) 
0.25

>  <HeavyAtomCount>  (20) 
22

>  <NHOHCount>  (20) 
0

>  <NOCount>  (20) 
6

>  <NumAliphaticCarbocycles>  (20) 
0

>  <NumAliphaticHeterocycles>  (20) 
1

>  <NumAliphaticRings>  (20) 
1

>  <NumAromaticCarbocycles>  (20) 
1

>  <NumAromaticHeterocycles>  (20) 
2

>  <NAR>  (20) 
3

>  <NumHAcceptors>  (20) 
5

>  <NumHDonors>  (20) 
0

>  <NumHeteroatoms>  (20) 
6

>  <NumRotatableBonds>  (20) 
2

>  <NumSaturatedCarbocycles>  (20) 
0

>  <NumSaturatedHeterocycles>  (20) 
1

>  <NumSaturatedRings>  (20) 
1

>  <RingCount>  (20) 
4

>  <MolLogP>  (20) 
2.2475

>  <MolMR>  (20) 
79.3025

>  <fr_Al_COO>  (20) 
0

>  <fr_Al_OH>  (20) 
0

>  <fr_Al_OH_noTert>  (20) 
0

>  <fr_ArN>  (20) 
0

>  <fr_Ar_COO>  (20) 
0

>  <fr_Ar_N>  (20) 
3

>  <fr_Ar_NH>  (20) 
0

>  <fr_Ar_OH>  (20) 
0

>  <fr_COO>  (20) 
0

>  <fr_COO2>  (20) 
0

>  <fr_C_O>  (20) 
1

>  <fr_C_O_noCOO>  (20) 
1

>  <fr_C_S>  (20) 
0

>  <fr_HOCCN>  (20) 
0

>  <fr_Imine>  (20) 
0

>  <fr_NH0>  (20) 
4

>  <fr_NH1>  (20) 
0

>  <fr_NH2>  (20) 
0

>  <fr_N_O>  (20) 
0

>  <fr_Ndealkylation1>  (20) 
0

>  <fr_Ndealkylation2>  (20) 
1

>  <fr_Nhpyrrole>  (20) 
0

>  <fr_SH>  (20) 
0

>  <fr_aldehyde>  (20) 
0

>  <fr_alkyl_carbamate>  (20) 
0

>  <fr_alkyl_halide>  (20) 
0

>  <fr_allylic_oxid>  (20) 
0

>  <fr_amide>  (20) 
1

>  <fr_amidine>  (20) 
0

>  <fr_aniline>  (20) 
0

>  <fr_aryl_methyl>  (20) 
0

>  <fr_azide>  (20) 
0

>  <fr_azo>  (20) 
0

>  <fr_barbitur>  (20) 
0

>  <fr_benzene>  (20) 
1

>  <fr_benzodiazepine>  (20) 
0

>  <fr_bicyclic>  (20) 
1

>  <fr_diazo>  (20) 
0

>  <fr_dihydropyridine>  (20) 
0

>  <fr_epoxide>  (20) 
0

>  <fr_ester>  (20) 
0

>  <fr_ether>  (20) 
0

>  <fr_furan>  (20) 
0

>  <fr_guanido>  (20) 
0

>  <fr_halogen>  (20) 
0

>  <fr_hdrzine>  (20) 
0

>  <fr_hdrzone>  (20) 
0

>  <fr_imidazole>  (20) 
0

>  <fr_imide>  (20) 
0

>  <fr_isocyan>  (20) 
0

>  <fr_isothiocyan>  (20) 
0

>  <fr_ketone>  (20) 
0

>  <fr_ketone_Topliss>  (20) 
0

>  <fr_lactam>  (20) 
0

>  <fr_lactone>  (20) 
0

>  <fr_methoxy>  (20) 
0

>  <fr_morpholine>  (20) 
0

>  <fr_nitrile>  (20) 
0

>  <fr_nitro>  (20) 
0

>  <fr_nitro_arom>  (20) 
0

>  <fr_nitro_arom_nonortho>  (20) 
0

>  <fr_nitroso>  (20) 
0

>  <fr_oxazole>  (20) 
1

>  <fr_oxime>  (20) 
0

>  <fr_para_hydroxylation>  (20) 
2

>  <fr_phenol>  (20) 
0

>  <fr_phenol_noOrthoHbond>  (20) 
0

>  <fr_phos_acid>  (20) 
0

>  <fr_phos_ester>  (20) 
0

>  <fr_piperdine>  (20) 
0

>  <fr_piperzine>  (20) 
0

>  <fr_priamide>  (20) 
0

>  <fr_prisulfonamd>  (20) 
0

>  <fr_pyridine>  (20) 
0

>  <fr_quatN>  (20) 
0

>  <fr_sulfide>  (20) 
0

>  <fr_sulfonamd>  (20) 
0

>  <fr_sulfone>  (20) 
0

>  <fr_term_acetylene>  (20) 
0

>  <fr_tetrazole>  (20) 
0

>  <fr_thiazole>  (20) 
0

>  <fr_thiocyan>  (20) 
0

>  <fr_thiophene>  (20) 
0

>  <fr_unbrch_alkane>  (20) 
0

>  <fr_urea>  (20) 
0

>  <NP-Likeness>  (20) 
-1.776949

$$$$
F134
     RDKit          3D

  0  0  0  0  0  0  0  0  0  0999 V3000
M  V30 BEGIN CTAB
M  V30 COUNTS 28 30 0 0 0
M  V30 BEGIN ATOM
M  V30 1 C 1.224121 -0.378454 5.074425 0
M  V30 2 C -0.108312 -0.729663 5.277522 0
M  V30 3 C -0.901382 -0.942021 4.143650 0
M  V30 4 C -0.387273 -0.809720 2.848583 0
M  V30 5 C 0.945027 -0.458286 2.741856 0
M  V30 6 C 1.780635 -0.234845 3.821561 0
M  V30 7 N 1.181291 -0.399407 1.418434 0
M  V30 8 C 0.043763 -0.701487 0.742842 0
M  V30 9 C -0.137796 -0.753302 -0.725399 0 CFG=1
M  V30 10 C 0.147606 0.573626 -1.400072 0
M  V30 11 C 0.264898 0.109414 -2.847330 0
M  V30 12 N 0.685393 -1.263811 -2.812214 0 CHG=1 VAL=4
M  V30 13 C 0.815727 -1.664725 -1.423708 0
M  V30 14 N -0.935152 -0.957578 1.626715 0
M  V30 15 H 1.872235 -0.205091 5.938276 0
M  V30 16 H -0.538387 -0.840563 6.273871 0
M  V30 17 H -1.952656 -1.219329 4.225740 0
M  V30 18 H 2.826364 0.040844 3.680981 0
M  V30 19 H -1.178928 -1.028920 -1.018099 0
M  V30 20 H 1.118381 0.957243 -1.060354 0
M  V30 21 H -0.686213 1.287012 -1.251532 0
M  V30 22 H -0.753249 0.240074 -3.275058 0
M  V30 23 H 0.939595 0.776703 -3.428849 0
M  V30 24 H 1.556350 -1.444511 -3.356622 0
M  V30 25 H -0.111503 -1.838791 -3.190957 0
M  V30 26 H 0.596346 -2.742453 -1.278222 0
M  V30 27 H 1.834558 -1.402740 -1.095974 0
M  V30 28 H -1.935834 -1.222206 1.452544 0
M  V30 END ATOM
M  V30 BEGIN BOND
M  V30 1 2 1 2
M  V30 2 1 2 3
M  V30 3 2 3 4
M  V30 4 1 4 5
M  V30 5 2 5 6
M  V30 6 1 5 7
M  V30 7 2 7 8
M  V30 8 1 8 9
M  V30 9 1 9 10
M  V30 10 1 10 11
M  V30 11 1 11 12
M  V30 12 1 12 13
M  V30 13 1 8 14
M  V30 14 1 6 1
M  V30 15 1 13 9
M  V30 16 1 14 4
M  V30 17 1 1 15
M  V30 18 1 2 16
M  V30 19 1 3 17
M  V30 20 1 6 18
M  V30 21 1 9 19 CFG=1
M  V30 22 1 10 20
M  V30 23 1 10 21
M  V30 24 1 11 22
M  V30 25 1 11 23
M  V30 26 1 12 24
M  V30 27 1 12 25
M  V30 28 1 13 26
M  V30 29 1 13 27
M  V30 30 1 14 28
M  V30 END BOND
M  V30 END CTAB
M  END
>  <Dataset>  (21) 
CF

>  <Ligand_Instance>  (21) 
134_B_6

>  <PDB_ID>  (21) 
nan

>  <Standardized_SMILES>  (21) 
[H]C1=C([H])C([H])=C2C(=C1[H])N=C([C@@]1([H])C([H])([H])C([H])([H])[N+]([H])([H])C1([H])[H])N2[H]

>  <Name>  (21) 
2‐[(3S)‐pyrrolidin‐3‐yl]‐1H‐1,3‐benzodiazole

>  <Pocket>  (21) 
A

>  <ATP_Site>  (21) 
1.0

>  <Peripheral>  (21) 
1.0

>  <Num_H_Atoms_ProtBoundConf>  (21) 
14.0

>  <Num_Resolved_Atoms>  (21) 
14.0

>  <Num_Not_Resolved_Atoms>  (21) 
0.0

>  <2D_Mol_H>  (21) 
<rdkit.Chem.rdchem.Mol object at 0x72a238db4740>

>  <MW>  (21) 
188.254

>  <HBA>  (21) 
1

>  <HBD>  (21) 
2

>  <LogP>  (21) 
0.6136

>  <NRB>  (21) 
1

>  <TPSA>  (21) 
45.29

>  <Num_Heavy_Atoms>  (21) 
14

>  <Ro5>  (21) 
[True, True, True, True, True, True]

>  <Ro5_Fulfilled>  (21) 
True

>  <Ro3>  (21) 
[True, True, True, True]

>  <Ro3_Fulfilled>  (21) 
True

>  <Fsp3>  (21) 
0.363636

>  <Fsp3_0.42>  (21) 
False

>  <Fsp3_0.45>  (21) 
False

>  <Stereogenic_Carbons>  (21) 
1

>  <C_Atoms>  (21) 
11

>  <FCStereo>  (21) 
0.090909

>  <SPS>  (21) 
306

>  <nSPS>  (21) 
21.857143

>  <PBF>  (21) 
0.554499

>  <PBF_0.6>  (21) 
False

>  <nPBF>  (21) 
0.039607

>  <nPBF_0.016>  (21) 
True

>  <PMI1>  (21) 
204.183912

>  <PMI2>  (21) 
1501.316127

>  <PMI3>  (21) 
1579.048149

>  <NPR1>  (21) 
0.129308

>  <NPR2>  (21) 
0.950773

>  <Sum_NPR>  (21) 
1.080081

>  <Sum_NPR_1.07>  (21) 
True

>  <Sum_NPR_1.2>  (21) 
False

>  <MaxAbsEStateIndex>  (21) 
4.619167

>  <MaxEStateIndex>  (21) 
4.619167

>  <MinAbsEStateIndex>  (21) 
0.627222

>  <MinEStateIndex>  (21) 
0.627222

>  <qed>  (21) 
0.67653

>  <MolWt>  (21) 
188.254

>  <HeavyAtomMolWt>  (21) 
174.142

>  <ExactMolWt>  (21) 
188.118224

>  <NumValenceElectrons>  (21) 
72

>  <NumRadicalElectrons>  (21) 
0

>  <MaxPartialCharge>  (21) 
0.115769

>  <MinPartialCharge>  (21) 
-0.34562

>  <MaxAbsPartialCharge>  (21) 
0.34562

>  <MinAbsPartialCharge>  (21) 
0.115769

>  <FpDensityMorgan1>  (21) 
1.357143

>  <FpDensityMorgan2>  (21) 
2.285714

>  <FpDensityMorgan3>  (21) 
3.071429

>  <BCUT2D_MWHI>  (21) 
14.973377

>  <BCUT2D_MWLOW>  (21) 
10.105569

>  <BCUT2D_CHGHI>  (21) 
2.222437

>  <BCUT2D_CHGLO>  (21) 
-1.982921

>  <BCUT2D_LOGPHI>  (21) 
2.194562

>  <BCUT2D_LOGPLOW>  (21) 
-2.806873

>  <BCUT2D_MRHI>  (21) 
5.743221

>  <BCUT2D_MRLOW>  (21) 
-0.636231

>  <AvgIpc>  (21) 
2.86207

>  <BalabanJ>  (21) 
2.047396

>  <BertzCT>  (21) 
407.484299

>  <Chi0>  (21) 
9.380469

>  <Chi0n>  (21) 
8.032636

>  <Chi0v>  (21) 
8.032636

>  <Chi1>  (21) 
6.932653

>  <Chi1n>  (21) 
5.196232

>  <Chi1v>  (21) 
5.196232

>  <Chi2n>  (21) 
3.937844

>  <Chi2v>  (21) 
3.937844

>  <Chi3n>  (21) 
2.964828

>  <Chi3v>  (21) 
2.964828

>  <Chi4n>  (21) 
2.170153

>  <Chi4v>  (21) 
2.170153

>  <HallKierAlpha>  (21) 
-1.35

>  <Ipc>  (21) 
4544.967134

>  <Kappa1>  (21) 
7.999579

>  <Kappa2>  (21) 
3.098739

>  <Kappa3>  (21) 
1.208245

>  <LabuteASA>  (21) 
82.545676

>  <PEOE_VSA1>  (21) 
10.300767

>  <PEOE_VSA10>  (21) 
5.824404

>  <PEOE_VSA11>  (21) 
0.0

>  <PEOE_VSA12>  (21) 
0.0

>  <PEOE_VSA13>  (21) 
0.0

>  <PEOE_VSA14>  (21) 
0.0

>  <PEOE_VSA2>  (21) 
0.0

>  <PEOE_VSA3>  (21) 
4.983979

>  <PEOE_VSA4>  (21) 
0.0

>  <PEOE_VSA5>  (21) 
0.0

>  <PEOE_VSA6>  (21) 
12.132734

>  <PEOE_VSA7>  (21) 
12.132734

>  <PEOE_VSA8>  (21) 
6.420822

>  <PEOE_VSA9>  (21) 
30.04082

>  <SMR_VSA1>  (21) 
5.316789

>  <SMR_VSA10>  (21) 
11.033401

>  <SMR_VSA2>  (21) 
0.0

>  <SMR_VSA3>  (21) 
9.967957

>  <SMR_VSA4>  (21) 
0.0

>  <SMR_VSA5>  (21) 
12.338728

>  <SMR_VSA6>  (21) 
13.089513

>  <SMR_VSA7>  (21) 
30.089873

>  <SMR_VSA8>  (21) 
0.0

>  <SMR_VSA9>  (21) 
0.0

>  <SlogP_VSA1>  (21) 
5.316789

>  <SlogP_VSA10>  (21) 
0.0

>  <SlogP_VSA11>  (21) 
0.0

>  <SlogP_VSA12>  (21) 
0.0

>  <SlogP_VSA2>  (21) 
23.05747

>  <SlogP_VSA3>  (21) 
0.0

>  <SlogP_VSA4>  (21) 
0.0

>  <SlogP_VSA5>  (21) 
18.163132

>  <SlogP_VSA6>  (21) 
24.265468

>  <SlogP_VSA7>  (21) 
0.0

>  <SlogP_VSA8>  (21) 
11.033401

>  <SlogP_VSA9>  (21) 
0.0

>  <EState_VSA1>  (21) 
0.0

>  <EState_VSA10>  (21) 
0.0

>  <EState_VSA11>  (21) 
0.0

>  <EState_VSA2>  (21) 
0.0

>  <EState_VSA3>  (21) 
5.917906

>  <EState_VSA4>  (21) 
11.033401

>  <EState_VSA5>  (21) 
25.334739

>  <EState_VSA6>  (21) 
0.0

>  <EState_VSA7>  (21) 
12.132734

>  <EState_VSA8>  (21) 
27.41748

>  <EState_VSA9>  (21) 
0.0

>  <VSA_EState1>  (21) 
0.0

>  <VSA_EState10>  (21) 
0.0

>  <VSA_EState2>  (21) 
8.025556

>  <VSA_EState3>  (21) 
2.358981

>  <VSA_EState4>  (21) 
2.253519

>  <VSA_EState5>  (21) 
1.793843

>  <VSA_EState6>  (21) 
8.233424

>  <VSA_EState7>  (21) 
1.249823

>  <VSA_EState8>  (21) 
2.418188

>  <VSA_EState9>  (21) 
0.0

>  <FractionCSP3>  (21) 
0.363636

>  <HeavyAtomCount>  (21) 
14

>  <NHOHCount>  (21) 
3

>  <NOCount>  (21) 
3

>  <NumAliphaticCarbocycles>  (21) 
0

>  <NumAliphaticHeterocycles>  (21) 
1

>  <NumAliphaticRings>  (21) 
1

>  <NumAromaticCarbocycles>  (21) 
1

>  <NumAromaticHeterocycles>  (21) 
1

>  <NAR>  (21) 
2

>  <NumHAcceptors>  (21) 
1

>  <NumHDonors>  (21) 
2

>  <NumHeteroatoms>  (21) 
3

>  <NumRotatableBonds>  (21) 
1

>  <NumSaturatedCarbocycles>  (21) 
0

>  <NumSaturatedHeterocycles>  (21) 
1

>  <NumSaturatedRings>  (21) 
1

>  <RingCount>  (21) 
3

>  <MolLogP>  (21) 
0.6136

>  <MolMR>  (21) 
55.1111

>  <fr_Al_COO>  (21) 
0

>  <fr_Al_OH>  (21) 
0

>  <fr_Al_OH_noTert>  (21) 
0

>  <fr_ArN>  (21) 
0

>  <fr_Ar_COO>  (21) 
0

>  <fr_Ar_N>  (21) 
2

>  <fr_Ar_NH>  (21) 
1

>  <fr_Ar_OH>  (21) 
0

>  <fr_COO>  (21) 
0

>  <fr_COO2>  (21) 
0

>  <fr_C_O>  (21) 
0

>  <fr_C_O_noCOO>  (21) 
0

>  <fr_C_S>  (21) 
0

>  <fr_HOCCN>  (21) 
0

>  <fr_Imine>  (21) 
0

>  <fr_NH0>  (21) 
1

>  <fr_NH1>  (21) 
1

>  <fr_NH2>  (21) 
1

>  <fr_N_O>  (21) 
0

>  <fr_Ndealkylation1>  (21) 
0

>  <fr_Ndealkylation2>  (21) 
0

>  <fr_Nhpyrrole>  (21) 
1

>  <fr_SH>  (21) 
0

>  <fr_aldehyde>  (21) 
0

>  <fr_alkyl_carbamate>  (21) 
0

>  <fr_alkyl_halide>  (21) 
0

>  <fr_allylic_oxid>  (21) 
0

>  <fr_amide>  (21) 
0

>  <fr_amidine>  (21) 
0

>  <fr_aniline>  (21) 
0

>  <fr_aryl_methyl>  (21) 
0

>  <fr_azide>  (21) 
0

>  <fr_azo>  (21) 
0

>  <fr_barbitur>  (21) 
0

>  <fr_benzene>  (21) 
1

>  <fr_benzodiazepine>  (21) 
0

>  <fr_bicyclic>  (21) 
1

>  <fr_diazo>  (21) 
0

>  <fr_dihydropyridine>  (21) 
0

>  <fr_epoxide>  (21) 
0

>  <fr_ester>  (21) 
0

>  <fr_ether>  (21) 
0

>  <fr_furan>  (21) 
0

>  <fr_guanido>  (21) 
0

>  <fr_halogen>  (21) 
0

>  <fr_hdrzine>  (21) 
0

>  <fr_hdrzone>  (21) 
0

>  <fr_imidazole>  (21) 
1

>  <fr_imide>  (21) 
0

>  <fr_isocyan>  (21) 
0

>  <fr_isothiocyan>  (21) 
0

>  <fr_ketone>  (21) 
0

>  <fr_ketone_Topliss>  (21) 
0

>  <fr_lactam>  (21) 
0

>  <fr_lactone>  (21) 
0

>  <fr_methoxy>  (21) 
0

>  <fr_morpholine>  (21) 
0

>  <fr_nitrile>  (21) 
0

>  <fr_nitro>  (21) 
0

>  <fr_nitro_arom>  (21) 
0

>  <fr_nitro_arom_nonortho>  (21) 
0

>  <fr_nitroso>  (21) 
0

>  <fr_oxazole>  (21) 
0

>  <fr_oxime>  (21) 
0

>  <fr_para_hydroxylation>  (21) 
2

>  <fr_phenol>  (21) 
0

>  <fr_phenol_noOrthoHbond>  (21) 
0

>  <fr_phos_acid>  (21) 
0

>  <fr_phos_ester>  (21) 
0

>  <fr_piperdine>  (21) 
0

>  <fr_piperzine>  (21) 
0

>  <fr_priamide>  (21) 
0

>  <fr_prisulfonamd>  (21) 
0

>  <fr_pyridine>  (21) 
0

>  <fr_quatN>  (21) 
1

>  <fr_sulfide>  (21) 
0

>  <fr_sulfonamd>  (21) 
0

>  <fr_sulfone>  (21) 
0

>  <fr_term_acetylene>  (21) 
0

>  <fr_tetrazole>  (21) 
0

>  <fr_thiazole>  (21) 
0

>  <fr_thiocyan>  (21) 
0

>  <fr_thiophene>  (21) 
0

>  <fr_unbrch_alkane>  (21) 
0

>  <fr_urea>  (21) 
0

>  <NP-Likeness>  (21) 
-1.086621

$$$$
F134
     RDKit          3D

  0  0  0  0  0  0  0  0  0  0999 V3000
M  V30 BEGIN CTAB
M  V30 COUNTS 28 30 0 0 0
M  V30 BEGIN ATOM
M  V30 1 C 1.224121 -0.378454 5.074425 0
M  V30 2 C -0.108312 -0.729663 5.277522 0
M  V30 3 C -0.901382 -0.942021 4.143650 0
M  V30 4 C -0.387273 -0.809720 2.848583 0
M  V30 5 C 0.945027 -0.458286 2.741856 0
M  V30 6 C 1.780635 -0.234845 3.821561 0
M  V30 7 N 1.181291 -0.399407 1.418434 0
M  V30 8 C 0.043763 -0.701487 0.742842 0
M  V30 9 C -0.137796 -0.753302 -0.725399 0 CFG=1
M  V30 10 C 0.147606 0.573626 -1.400072 0
M  V30 11 C 0.264898 0.109414 -2.847330 0
M  V30 12 N 0.685393 -1.263811 -2.812214 0 CHG=1 VAL=4
M  V30 13 C 0.815727 -1.664725 -1.423708 0
M  V30 14 N -0.935152 -0.957578 1.626715 0
M  V30 15 H 1.872235 -0.205091 5.938276 0
M  V30 16 H -0.538387 -0.840563 6.273871 0
M  V30 17 H -1.952656 -1.219329 4.225740 0
M  V30 18 H 2.826364 0.040844 3.680981 0
M  V30 19 H -1.178928 -1.028920 -1.018099 0
M  V30 20 H 1.118381 0.957243 -1.060354 0
M  V30 21 H -0.686213 1.287012 -1.251532 0
M  V30 22 H -0.753249 0.240074 -3.275058 0
M  V30 23 H 0.939595 0.776703 -3.428849 0
M  V30 24 H 1.556350 -1.444511 -3.356622 0
M  V30 25 H -0.111503 -1.838791 -3.190957 0
M  V30 26 H 0.596346 -2.742453 -1.278222 0
M  V30 27 H 1.834558 -1.402740 -1.095974 0
M  V30 28 H -1.935834 -1.222206 1.452544 0
M  V30 END ATOM
M  V30 BEGIN BOND
M  V30 1 2 1 2
M  V30 2 1 2 3
M  V30 3 2 3 4
M  V30 4 1 4 5
M  V30 5 2 5 6
M  V30 6 1 5 7
M  V30 7 2 7 8
M  V30 8 1 8 9
M  V30 9 1 9 10
M  V30 10 1 10 11
M  V30 11 1 11 12
M  V30 12 1 12 13
M  V30 13 1 8 14
M  V30 14 1 6 1
M  V30 15 1 13 9
M  V30 16 1 14 4
M  V30 17 1 1 15
M  V30 18 1 2 16
M  V30 19 1 3 17
M  V30 20 1 6 18
M  V30 21 1 9 19 CFG=1
M  V30 22 1 10 20
M  V30 23 1 10 21
M  V30 24 1 11 22
M  V30 25 1 11 23
M  V30 26 1 12 24
M  V30 27 1 12 25
M  V30 28 1 13 26
M  V30 29 1 13 27
M  V30 30 1 14 28
M  V30 END BOND
M  V30 END CTAB
M  END
>  <Dataset>  (22) 
CF

>  <Ligand_Instance>  (22) 
134_B_7

>  <PDB_ID>  (22) 
nan

>  <Standardized_SMILES>  (22) 
[H]C1=C([H])C([H])=C2C(=C1[H])N=C([C@@]1([H])C([H])([H])C([H])([H])[N+]([H])([H])C1([H])[H])N2[H]

>  <Name>  (22) 
2‐[(3S)‐pyrrolidin‐3‐yl]‐1H‐1,3‐benzodiazole

>  <Pocket>  (22) 
F

>  <ATP_Site>  (22) 
1.0

>  <Peripheral>  (22) 
1.0

>  <Num_H_Atoms_ProtBoundConf>  (22) 
14.0

>  <Num_Resolved_Atoms>  (22) 
14.0

>  <Num_Not_Resolved_Atoms>  (22) 
0.0

>  <2D_Mol_H>  (22) 
<rdkit.Chem.rdchem.Mol object at 0x72a238db4820>

>  <MW>  (22) 
188.254

>  <HBA>  (22) 
1

>  <HBD>  (22) 
2

>  <LogP>  (22) 
0.6136

>  <NRB>  (22) 
1

>  <TPSA>  (22) 
45.29

>  <Num_Heavy_Atoms>  (22) 
14

>  <Ro5>  (22) 
[True, True, True, True, True, True]

>  <Ro5_Fulfilled>  (22) 
True

>  <Ro3>  (22) 
[True, True, True, True]

>  <Ro3_Fulfilled>  (22) 
True

>  <Fsp3>  (22) 
0.363636

>  <Fsp3_0.42>  (22) 
False

>  <Fsp3_0.45>  (22) 
False

>  <Stereogenic_Carbons>  (22) 
1

>  <C_Atoms>  (22) 
11

>  <FCStereo>  (22) 
0.090909

>  <SPS>  (22) 
306

>  <nSPS>  (22) 
21.857143

>  <PBF>  (22) 
0.554499

>  <PBF_0.6>  (22) 
False

>  <nPBF>  (22) 
0.039607

>  <nPBF_0.016>  (22) 
True

>  <PMI1>  (22) 
204.183912

>  <PMI2>  (22) 
1501.316127

>  <PMI3>  (22) 
1579.048149

>  <NPR1>  (22) 
0.129308

>  <NPR2>  (22) 
0.950773

>  <Sum_NPR>  (22) 
1.080081

>  <Sum_NPR_1.07>  (22) 
True

>  <Sum_NPR_1.2>  (22) 
False

>  <MaxAbsEStateIndex>  (22) 
4.619167

>  <MaxEStateIndex>  (22) 
4.619167

>  <MinAbsEStateIndex>  (22) 
0.627222

>  <MinEStateIndex>  (22) 
0.627222

>  <qed>  (22) 
0.67653

>  <MolWt>  (22) 
188.254

>  <HeavyAtomMolWt>  (22) 
174.142

>  <ExactMolWt>  (22) 
188.118224

>  <NumValenceElectrons>  (22) 
72

>  <NumRadicalElectrons>  (22) 
0

>  <MaxPartialCharge>  (22) 
0.115769

>  <MinPartialCharge>  (22) 
-0.34562

>  <MaxAbsPartialCharge>  (22) 
0.34562

>  <MinAbsPartialCharge>  (22) 
0.115769

>  <FpDensityMorgan1>  (22) 
1.357143

>  <FpDensityMorgan2>  (22) 
2.285714

>  <FpDensityMorgan3>  (22) 
3.071429

>  <BCUT2D_MWHI>  (22) 
14.973377

>  <BCUT2D_MWLOW>  (22) 
10.105569

>  <BCUT2D_CHGHI>  (22) 
2.222437

>  <BCUT2D_CHGLO>  (22) 
-1.982921

>  <BCUT2D_LOGPHI>  (22) 
2.194562

>  <BCUT2D_LOGPLOW>  (22) 
-2.806873

>  <BCUT2D_MRHI>  (22) 
5.743221

>  <BCUT2D_MRLOW>  (22) 
-0.636231

>  <AvgIpc>  (22) 
2.86207

>  <BalabanJ>  (22) 
2.047396

>  <BertzCT>  (22) 
407.484299

>  <Chi0>  (22) 
9.380469

>  <Chi0n>  (22) 
8.032636

>  <Chi0v>  (22) 
8.032636

>  <Chi1>  (22) 
6.932653

>  <Chi1n>  (22) 
5.196232

>  <Chi1v>  (22) 
5.196232

>  <Chi2n>  (22) 
3.937844

>  <Chi2v>  (22) 
3.937844

>  <Chi3n>  (22) 
2.964828

>  <Chi3v>  (22) 
2.964828

>  <Chi4n>  (22) 
2.170153

>  <Chi4v>  (22) 
2.170153

>  <HallKierAlpha>  (22) 
-1.35

>  <Ipc>  (22) 
4544.967134

>  <Kappa1>  (22) 
7.999579

>  <Kappa2>  (22) 
3.098739

>  <Kappa3>  (22) 
1.208245

>  <LabuteASA>  (22) 
82.545676

>  <PEOE_VSA1>  (22) 
10.300767

>  <PEOE_VSA10>  (22) 
5.824404

>  <PEOE_VSA11>  (22) 
0.0

>  <PEOE_VSA12>  (22) 
0.0

>  <PEOE_VSA13>  (22) 
0.0

>  <PEOE_VSA14>  (22) 
0.0

>  <PEOE_VSA2>  (22) 
0.0

>  <PEOE_VSA3>  (22) 
4.983979

>  <PEOE_VSA4>  (22) 
0.0

>  <PEOE_VSA5>  (22) 
0.0

>  <PEOE_VSA6>  (22) 
12.132734

>  <PEOE_VSA7>  (22) 
12.132734

>  <PEOE_VSA8>  (22) 
6.420822

>  <PEOE_VSA9>  (22) 
30.04082

>  <SMR_VSA1>  (22) 
5.316789

>  <SMR_VSA10>  (22) 
11.033401

>  <SMR_VSA2>  (22) 
0.0

>  <SMR_VSA3>  (22) 
9.967957

>  <SMR_VSA4>  (22) 
0.0

>  <SMR_VSA5>  (22) 
12.338728

>  <SMR_VSA6>  (22) 
13.089513

>  <SMR_VSA7>  (22) 
30.089873

>  <SMR_VSA8>  (22) 
0.0

>  <SMR_VSA9>  (22) 
0.0

>  <SlogP_VSA1>  (22) 
5.316789

>  <SlogP_VSA10>  (22) 
0.0

>  <SlogP_VSA11>  (22) 
0.0

>  <SlogP_VSA12>  (22) 
0.0

>  <SlogP_VSA2>  (22) 
23.05747

>  <SlogP_VSA3>  (22) 
0.0

>  <SlogP_VSA4>  (22) 
0.0

>  <SlogP_VSA5>  (22) 
18.163132

>  <SlogP_VSA6>  (22) 
24.265468

>  <SlogP_VSA7>  (22) 
0.0

>  <SlogP_VSA8>  (22) 
11.033401

>  <SlogP_VSA9>  (22) 
0.0

>  <EState_VSA1>  (22) 
0.0

>  <EState_VSA10>  (22) 
0.0

>  <EState_VSA11>  (22) 
0.0

>  <EState_VSA2>  (22) 
0.0

>  <EState_VSA3>  (22) 
5.917906

>  <EState_VSA4>  (22) 
11.033401

>  <EState_VSA5>  (22) 
25.334739

>  <EState_VSA6>  (22) 
0.0

>  <EState_VSA7>  (22) 
12.132734

>  <EState_VSA8>  (22) 
27.41748

>  <EState_VSA9>  (22) 
0.0

>  <VSA_EState1>  (22) 
0.0

>  <VSA_EState10>  (22) 
0.0

>  <VSA_EState2>  (22) 
8.025556

>  <VSA_EState3>  (22) 
2.358981

>  <VSA_EState4>  (22) 
2.253519

>  <VSA_EState5>  (22) 
1.793843

>  <VSA_EState6>  (22) 
8.233424

>  <VSA_EState7>  (22) 
1.249823

>  <VSA_EState8>  (22) 
2.418188

>  <VSA_EState9>  (22) 
0.0

>  <FractionCSP3>  (22) 
0.363636

>  <HeavyAtomCount>  (22) 
14

>  <NHOHCount>  (22) 
3

>  <NOCount>  (22) 
3

>  <NumAliphaticCarbocycles>  (22) 
0

>  <NumAliphaticHeterocycles>  (22) 
1

>  <NumAliphaticRings>  (22) 
1

>  <NumAromaticCarbocycles>  (22) 
1

>  <NumAromaticHeterocycles>  (22) 
1

>  <NAR>  (22) 
2

>  <NumHAcceptors>  (22) 
1

>  <NumHDonors>  (22) 
2

>  <NumHeteroatoms>  (22) 
3

>  <NumRotatableBonds>  (22) 
1

>  <NumSaturatedCarbocycles>  (22) 
0

>  <NumSaturatedHeterocycles>  (22) 
1

>  <NumSaturatedRings>  (22) 
1

>  <RingCount>  (22) 
3

>  <MolLogP>  (22) 
0.6136

>  <MolMR>  (22) 
55.1111

>  <fr_Al_COO>  (22) 
0

>  <fr_Al_OH>  (22) 
0

>  <fr_Al_OH_noTert>  (22) 
0

>  <fr_ArN>  (22) 
0

>  <fr_Ar_COO>  (22) 
0

>  <fr_Ar_N>  (22) 
2

>  <fr_Ar_NH>  (22) 
1

>  <fr_Ar_OH>  (22) 
0

>  <fr_COO>  (22) 
0

>  <fr_COO2>  (22) 
0

>  <fr_C_O>  (22) 
0

>  <fr_C_O_noCOO>  (22) 
0

>  <fr_C_S>  (22) 
0

>  <fr_HOCCN>  (22) 
0

>  <fr_Imine>  (22) 
0

>  <fr_NH0>  (22) 
1

>  <fr_NH1>  (22) 
1

>  <fr_NH2>  (22) 
1

>  <fr_N_O>  (22) 
0

>  <fr_Ndealkylation1>  (22) 
0

>  <fr_Ndealkylation2>  (22) 
0

>  <fr_Nhpyrrole>  (22) 
1

>  <fr_SH>  (22) 
0

>  <fr_aldehyde>  (22) 
0

>  <fr_alkyl_carbamate>  (22) 
0

>  <fr_alkyl_halide>  (22) 
0

>  <fr_allylic_oxid>  (22) 
0

>  <fr_amide>  (22) 
0

>  <fr_amidine>  (22) 
0

>  <fr_aniline>  (22) 
0

>  <fr_aryl_methyl>  (22) 
0

>  <fr_azide>  (22) 
0

>  <fr_azo>  (22) 
0

>  <fr_barbitur>  (22) 
0

>  <fr_benzene>  (22) 
1

>  <fr_benzodiazepine>  (22) 
0

>  <fr_bicyclic>  (22) 
1

>  <fr_diazo>  (22) 
0

>  <fr_dihydropyridine>  (22) 
0

>  <fr_epoxide>  (22) 
0

>  <fr_ester>  (22) 
0

>  <fr_ether>  (22) 
0

>  <fr_furan>  (22) 
0

>  <fr_guanido>  (22) 
0

>  <fr_halogen>  (22) 
0

>  <fr_hdrzine>  (22) 
0

>  <fr_hdrzone>  (22) 
0

>  <fr_imidazole>  (22) 
1

>  <fr_imide>  (22) 
0

>  <fr_isocyan>  (22) 
0

>  <fr_isothiocyan>  (22) 
0

>  <fr_ketone>  (22) 
0

>  <fr_ketone_Topliss>  (22) 
0

>  <fr_lactam>  (22) 
0

>  <fr_lactone>  (22) 
0

>  <fr_methoxy>  (22) 
0

>  <fr_morpholine>  (22) 
0

>  <fr_nitrile>  (22) 
0

>  <fr_nitro>  (22) 
0

>  <fr_nitro_arom>  (22) 
0

>  <fr_nitro_arom_nonortho>  (22) 
0

>  <fr_nitroso>  (22) 
0

>  <fr_oxazole>  (22) 
0

>  <fr_oxime>  (22) 
0

>  <fr_para_hydroxylation>  (22) 
2

>  <fr_phenol>  (22) 
0

>  <fr_phenol_noOrthoHbond>  (22) 
0

>  <fr_phos_acid>  (22) 
0

>  <fr_phos_ester>  (22) 
0

>  <fr_piperdine>  (22) 
0

>  <fr_piperzine>  (22) 
0

>  <fr_priamide>  (22) 
0

>  <fr_prisulfonamd>  (22) 
0

>  <fr_pyridine>  (22) 
0

>  <fr_quatN>  (22) 
1

>  <fr_sulfide>  (22) 
0

>  <fr_sulfonamd>  (22) 
0

>  <fr_sulfone>  (22) 
0

>  <fr_term_acetylene>  (22) 
0

>  <fr_tetrazole>  (22) 
0

>  <fr_thiazole>  (22) 
0

>  <fr_thiocyan>  (22) 
0

>  <fr_thiophene>  (22) 
0

>  <fr_unbrch_alkane>  (22) 
0

>  <fr_urea>  (22) 
0

>  <NP-Likeness>  (22) 
-1.086621

$$$$
F134
     RDKit          3D

  0  0  0  0  0  0  0  0  0  0999 V3000
M  V30 BEGIN CTAB
M  V30 COUNTS 28 30 0 0 0
M  V30 BEGIN ATOM
M  V30 1 C 1.224121 -0.378454 5.074425 0
M  V30 2 C -0.108312 -0.729663 5.277522 0
M  V30 3 C -0.901382 -0.942021 4.143650 0
M  V30 4 C -0.387273 -0.809720 2.848583 0
M  V30 5 C 0.945027 -0.458286 2.741856 0
M  V30 6 C 1.780635 -0.234845 3.821561 0
M  V30 7 N 1.181291 -0.399407 1.418434 0
M  V30 8 C 0.043763 -0.701487 0.742842 0
M  V30 9 C -0.137796 -0.753302 -0.725399 0 CFG=1
M  V30 10 C 0.147606 0.573626 -1.400072 0
M  V30 11 C 0.264898 0.109414 -2.847330 0
M  V30 12 N 0.685393 -1.263811 -2.812214 0 CHG=1 VAL=4
M  V30 13 C 0.815727 -1.664725 -1.423708 0
M  V30 14 N -0.935152 -0.957578 1.626715 0
M  V30 15 H 1.872235 -0.205091 5.938276 0
M  V30 16 H -0.538387 -0.840563 6.273871 0
M  V30 17 H -1.952656 -1.219329 4.225740 0
M  V30 18 H 2.826364 0.040844 3.680981 0
M  V30 19 H -1.178928 -1.028920 -1.018099 0
M  V30 20 H 1.118381 0.957243 -1.060354 0
M  V30 21 H -0.686213 1.287012 -1.251532 0
M  V30 22 H -0.753249 0.240074 -3.275058 0
M  V30 23 H 0.939595 0.776703 -3.428849 0
M  V30 24 H 1.556350 -1.444511 -3.356622 0
M  V30 25 H -0.111503 -1.838791 -3.190957 0
M  V30 26 H 0.596346 -2.742453 -1.278222 0
M  V30 27 H 1.834558 -1.402740 -1.095974 0
M  V30 28 H -1.935834 -1.222206 1.452544 0
M  V30 END ATOM
M  V30 BEGIN BOND
M  V30 1 2 1 2
M  V30 2 1 2 3
M  V30 3 2 3 4
M  V30 4 1 4 5
M  V30 5 2 5 6
M  V30 6 1 5 7
M  V30 7 2 7 8
M  V30 8 1 8 9
M  V30 9 1 9 10
M  V30 10 1 10 11
M  V30 11 1 11 12
M  V30 12 1 12 13
M  V30 13 1 8 14
M  V30 14 1 6 1
M  V30 15 1 13 9
M  V30 16 1 14 4
M  V30 17 1 1 15
M  V30 18 1 2 16
M  V30 19 1 3 17
M  V30 20 1 6 18
M  V30 21 1 9 19 CFG=1
M  V30 22 1 10 20
M  V30 23 1 10 21
M  V30 24 1 11 22
M  V30 25 1 11 23
M  V30 26 1 12 24
M  V30 27 1 12 25
M  V30 28 1 13 26
M  V30 29 1 13 27
M  V30 30 1 14 28
M  V30 END BOND
M  V30 END CTAB
M  END
>  <Dataset>  (23) 
CF

>  <Ligand_Instance>  (23) 
134_B_8

>  <PDB_ID>  (23) 
nan

>  <Standardized_SMILES>  (23) 
[H]C1=C([H])C([H])=C2C(=C1[H])N=C([C@@]1([H])C([H])([H])C([H])([H])[N+]([H])([H])C1([H])[H])N2[H]

>  <Name>  (23) 
2‐[(3S)‐pyrrolidin‐3‐yl]‐1H‐1,3‐benzodiazole

>  <Pocket>  (23) 
X

>  <ATP_Site>  (23) 
1.0

>  <Peripheral>  (23) 
1.0

>  <Num_H_Atoms_ProtBoundConf>  (23) 
14.0

>  <Num_Resolved_Atoms>  (23) 
14.0

>  <Num_Not_Resolved_Atoms>  (23) 
0.0

>  <2D_Mol_H>  (23) 
<rdkit.Chem.rdchem.Mol object at 0x72a238db4900>

>  <MW>  (23) 
188.254

>  <HBA>  (23) 
1

>  <HBD>  (23) 
2

>  <LogP>  (23) 
0.6136

>  <NRB>  (23) 
1

>  <TPSA>  (23) 
45.29

>  <Num_Heavy_Atoms>  (23) 
14

>  <Ro5>  (23) 
[True, True, True, True, True, True]

>  <Ro5_Fulfilled>  (23) 
True

>  <Ro3>  (23) 
[True, True, True, True]

>  <Ro3_Fulfilled>  (23) 
True

>  <Fsp3>  (23) 
0.363636

>  <Fsp3_0.42>  (23) 
False

>  <Fsp3_0.45>  (23) 
False

>  <Stereogenic_Carbons>  (23) 
1

>  <C_Atoms>  (23) 
11

>  <FCStereo>  (23) 
0.090909

>  <SPS>  (23) 
306

>  <nSPS>  (23) 
21.857143

>  <PBF>  (23) 
0.554499

>  <PBF_0.6>  (23) 
False

>  <nPBF>  (23) 
0.039607

>  <nPBF_0.016>  (23) 
True

>  <PMI1>  (23) 
204.183912

>  <PMI2>  (23) 
1501.316127

>  <PMI3>  (23) 
1579.048149

>  <NPR1>  (23) 
0.129308

>  <NPR2>  (23) 
0.950773

>  <Sum_NPR>  (23) 
1.080081

>  <Sum_NPR_1.07>  (23) 
True

>  <Sum_NPR_1.2>  (23) 
False

>  <MaxAbsEStateIndex>  (23) 
4.619167

>  <MaxEStateIndex>  (23) 
4.619167

>  <MinAbsEStateIndex>  (23) 
0.627222

>  <MinEStateIndex>  (23) 
0.627222

>  <qed>  (23) 
0.67653

>  <MolWt>  (23) 
188.254

>  <HeavyAtomMolWt>  (23) 
174.142

>  <ExactMolWt>  (23) 
188.118224

>  <NumValenceElectrons>  (23) 
72

>  <NumRadicalElectrons>  (23) 
0

>  <MaxPartialCharge>  (23) 
0.115769

>  <MinPartialCharge>  (23) 
-0.34562

>  <MaxAbsPartialCharge>  (23) 
0.34562

>  <MinAbsPartialCharge>  (23) 
0.115769

>  <FpDensityMorgan1>  (23) 
1.357143

>  <FpDensityMorgan2>  (23) 
2.285714

>  <FpDensityMorgan3>  (23) 
3.071429

>  <BCUT2D_MWHI>  (23) 
14.973377

>  <BCUT2D_MWLOW>  (23) 
10.105569

>  <BCUT2D_CHGHI>  (23) 
2.222437

>  <BCUT2D_CHGLO>  (23) 
-1.982921

>  <BCUT2D_LOGPHI>  (23) 
2.194562

>  <BCUT2D_LOGPLOW>  (23) 
-2.806873

>  <BCUT2D_MRHI>  (23) 
5.743221

>  <BCUT2D_MRLOW>  (23) 
-0.636231

>  <AvgIpc>  (23) 
2.86207

>  <BalabanJ>  (23) 
2.047396

>  <BertzCT>  (23) 
407.484299

>  <Chi0>  (23) 
9.380469

>  <Chi0n>  (23) 
8.032636

>  <Chi0v>  (23) 
8.032636

>  <Chi1>  (23) 
6.932653

>  <Chi1n>  (23) 
5.196232

>  <Chi1v>  (23) 
5.196232

>  <Chi2n>  (23) 
3.937844

>  <Chi2v>  (23) 
3.937844

>  <Chi3n>  (23) 
2.964828

>  <Chi3v>  (23) 
2.964828

>  <Chi4n>  (23) 
2.170153

>  <Chi4v>  (23) 
2.170153

>  <HallKierAlpha>  (23) 
-1.35

>  <Ipc>  (23) 
4544.967134

>  <Kappa1>  (23) 
7.999579

>  <Kappa2>  (23) 
3.098739

>  <Kappa3>  (23) 
1.208245

>  <LabuteASA>  (23) 
82.545676

>  <PEOE_VSA1>  (23) 
10.300767

>  <PEOE_VSA10>  (23) 
5.824404

>  <PEOE_VSA11>  (23) 
0.0

>  <PEOE_VSA12>  (23) 
0.0

>  <PEOE_VSA13>  (23) 
0.0

>  <PEOE_VSA14>  (23) 
0.0

>  <PEOE_VSA2>  (23) 
0.0

>  <PEOE_VSA3>  (23) 
4.983979

>  <PEOE_VSA4>  (23) 
0.0

>  <PEOE_VSA5>  (23) 
0.0

>  <PEOE_VSA6>  (23) 
12.132734

>  <PEOE_VSA7>  (23) 
12.132734

>  <PEOE_VSA8>  (23) 
6.420822

>  <PEOE_VSA9>  (23) 
30.04082

>  <SMR_VSA1>  (23) 
5.316789

>  <SMR_VSA10>  (23) 
11.033401

>  <SMR_VSA2>  (23) 
0.0

>  <SMR_VSA3>  (23) 
9.967957

>  <SMR_VSA4>  (23) 
0.0

>  <SMR_VSA5>  (23) 
12.338728

>  <SMR_VSA6>  (23) 
13.089513

>  <SMR_VSA7>  (23) 
30.089873

>  <SMR_VSA8>  (23) 
0.0

>  <SMR_VSA9>  (23) 
0.0

>  <SlogP_VSA1>  (23) 
5.316789

>  <SlogP_VSA10>  (23) 
0.0

>  <SlogP_VSA11>  (23) 
0.0

>  <SlogP_VSA12>  (23) 
0.0

>  <SlogP_VSA2>  (23) 
23.05747

>  <SlogP_VSA3>  (23) 
0.0

>  <SlogP_VSA4>  (23) 
0.0

>  <SlogP_VSA5>  (23) 
18.163132

>  <SlogP_VSA6>  (23) 
24.265468

>  <SlogP_VSA7>  (23) 
0.0

>  <SlogP_VSA8>  (23) 
11.033401

>  <SlogP_VSA9>  (23) 
0.0

>  <EState_VSA1>  (23) 
0.0

>  <EState_VSA10>  (23) 
0.0

>  <EState_VSA11>  (23) 
0.0

>  <EState_VSA2>  (23) 
0.0

>  <EState_VSA3>  (23) 
5.917906

>  <EState_VSA4>  (23) 
11.033401

>  <EState_VSA5>  (23) 
25.334739

>  <EState_VSA6>  (23) 
0.0

>  <EState_VSA7>  (23) 
12.132734

>  <EState_VSA8>  (23) 
27.41748

>  <EState_VSA9>  (23) 
0.0

>  <VSA_EState1>  (23) 
0.0

>  <VSA_EState10>  (23) 
0.0

>  <VSA_EState2>  (23) 
8.025556

>  <VSA_EState3>  (23) 
2.358981

>  <VSA_EState4>  (23) 
2.253519

>  <VSA_EState5>  (23) 
1.793843

>  <VSA_EState6>  (23) 
8.233424

>  <VSA_EState7>  (23) 
1.249823

>  <VSA_EState8>  (23) 
2.418188

>  <VSA_EState9>  (23) 
0.0

>  <FractionCSP3>  (23) 
0.363636

>  <HeavyAtomCount>  (23) 
14

>  <NHOHCount>  (23) 
3

>  <NOCount>  (23) 
3

>  <NumAliphaticCarbocycles>  (23) 
0

>  <NumAliphaticHeterocycles>  (23) 
1

>  <NumAliphaticRings>  (23) 
1

>  <NumAromaticCarbocycles>  (23) 
1

>  <NumAromaticHeterocycles>  (23) 
1

>  <NAR>  (23) 
2

>  <NumHAcceptors>  (23) 
1

>  <NumHDonors>  (23) 
2

>  <NumHeteroatoms>  (23) 
3

>  <NumRotatableBonds>  (23) 
1

>  <NumSaturatedCarbocycles>  (23) 
0

>  <NumSaturatedHeterocycles>  (23) 
1

>  <NumSaturatedRings>  (23) 
1

>  <RingCount>  (23) 
3

>  <MolLogP>  (23) 
0.6136

>  <MolMR>  (23) 
55.1111

>  <fr_Al_COO>  (23) 
0

>  <fr_Al_OH>  (23) 
0

>  <fr_Al_OH_noTert>  (23) 
0

>  <fr_ArN>  (23) 
0

>  <fr_Ar_COO>  (23) 
0

>  <fr_Ar_N>  (23) 
2

>  <fr_Ar_NH>  (23) 
1

>  <fr_Ar_OH>  (23) 
0

>  <fr_COO>  (23) 
0

>  <fr_COO2>  (23) 
0

>  <fr_C_O>  (23) 
0

>  <fr_C_O_noCOO>  (23) 
0

>  <fr_C_S>  (23) 
0

>  <fr_HOCCN>  (23) 
0

>  <fr_Imine>  (23) 
0

>  <fr_NH0>  (23) 
1

>  <fr_NH1>  (23) 
1

>  <fr_NH2>  (23) 
1

>  <fr_N_O>  (23) 
0

>  <fr_Ndealkylation1>  (23) 
0

>  <fr_Ndealkylation2>  (23) 
0

>  <fr_Nhpyrrole>  (23) 
1

>  <fr_SH>  (23) 
0

>  <fr_aldehyde>  (23) 
0

>  <fr_alkyl_carbamate>  (23) 
0

>  <fr_alkyl_halide>  (23) 
0

>  <fr_allylic_oxid>  (23) 
0

>  <fr_amide>  (23) 
0

>  <fr_amidine>  (23) 
0

>  <fr_aniline>  (23) 
0

>  <fr_aryl_methyl>  (23) 
0

>  <fr_azide>  (23) 
0

>  <fr_azo>  (23) 
0

>  <fr_barbitur>  (23) 
0

>  <fr_benzene>  (23) 
1

>  <fr_benzodiazepine>  (23) 
0

>  <fr_bicyclic>  (23) 
1

>  <fr_diazo>  (23) 
0

>  <fr_dihydropyridine>  (23) 
0

>  <fr_epoxide>  (23) 
0

>  <fr_ester>  (23) 
0

>  <fr_ether>  (23) 
0

>  <fr_furan>  (23) 
0

>  <fr_guanido>  (23) 
0

>  <fr_halogen>  (23) 
0

>  <fr_hdrzine>  (23) 
0

>  <fr_hdrzone>  (23) 
0

>  <fr_imidazole>  (23) 
1

>  <fr_imide>  (23) 
0

>  <fr_isocyan>  (23) 
0

>  <fr_isothiocyan>  (23) 
0

>  <fr_ketone>  (23) 
0

>  <fr_ketone_Topliss>  (23) 
0

>  <fr_lactam>  (23) 
0

>  <fr_lactone>  (23) 
0

>  <fr_methoxy>  (23) 
0

>  <fr_morpholine>  (23) 
0

>  <fr_nitrile>  (23) 
0

>  <fr_nitro>  (23) 
0

>  <fr_nitro_arom>  (23) 
0

>  <fr_nitro_arom_nonortho>  (23) 
0

>  <fr_nitroso>  (23) 
0

>  <fr_oxazole>  (23) 
0

>  <fr_oxime>  (23) 
0

>  <fr_para_hydroxylation>  (23) 
2

>  <fr_phenol>  (23) 
0

>  <fr_phenol_noOrthoHbond>  (23) 
0

>  <fr_phos_acid>  (23) 
0

>  <fr_phos_ester>  (23) 
0

>  <fr_piperdine>  (23) 
0

>  <fr_piperzine>  (23) 
0

>  <fr_priamide>  (23) 
0

>  <fr_prisulfonamd>  (23) 
0

>  <fr_pyridine>  (23) 
0

>  <fr_quatN>  (23) 
1

>  <fr_sulfide>  (23) 
0

>  <fr_sulfonamd>  (23) 
0

>  <fr_sulfone>  (23) 
0

>  <fr_term_acetylene>  (23) 
0

>  <fr_tetrazole>  (23) 
0

>  <fr_thiazole>  (23) 
0

>  <fr_thiocyan>  (23) 
0

>  <fr_thiophene>  (23) 
0

>  <fr_unbrch_alkane>  (23) 
0

>  <fr_urea>  (23) 
0

>  <NP-Likeness>  (23) 
-1.086621

$$$$
F134
     RDKit          3D

  0  0  0  0  0  0  0  0  0  0999 V3000
M  V30 BEGIN CTAB
M  V30 COUNTS 27 29 0 0 0
M  V30 BEGIN ATOM
M  V30 1 C 2.298603 -1.689421 4.237635 0
M  V30 2 C 1.153176 -0.991834 4.562872 0
M  V30 3 C 0.260202 -0.450587 3.660599 0
M  V30 4 C 0.568527 -0.641154 2.328524 0
M  V30 5 C 1.694637 -1.327169 1.924393 0
M  V30 6 C 2.539110 -1.838770 2.888748 0
M  V30 7 N 1.665012 -1.312231 0.558902 0
M  V30 8 C 0.562073 -0.642208 0.132282 0
M  V30 9 C 0.349425 -0.512652 -1.347055 0 CFG=2
M  V30 10 C 0.106098 0.914245 -1.753873 0
M  V30 11 N -1.256425 1.154007 -1.312634 0
M  V30 12 C -1.960732 -0.090113 -1.494310 0
M  V30 13 C -0.947773 -1.177655 -1.736105 0
M  V30 14 N -0.080160 -0.248958 1.217349 0
M  V30 15 H 2.931543 -2.072770 5.006297 0
M  V30 16 H 0.946273 -0.863583 5.624364 0
M  V30 17 H -0.622744 0.087292 3.975777 0
M  V30 18 H 3.418943 -2.374772 2.567661 0
M  V30 19 H 1.216304 -0.957783 -1.885611 0
M  V30 20 H 0.821492 1.627530 -1.322814 0
M  V30 21 H 0.088956 0.918870 -2.865505 0
M  V30 22 H -1.728558 1.917175 -1.837863 0
M  V30 23 H -2.501212 -0.329890 -0.556977 0
M  V30 24 H -2.699948 -0.035024 -2.326166 0
M  V30 25 H -1.107634 -2.072680 -1.102465 0
M  V30 26 H -0.914760 -1.418879 -2.815294 0
M  V30 27 H -0.954769 0.284652 1.149505 0
M  V30 END ATOM
M  V30 BEGIN BOND
M  V30 1 2 1 2
M  V30 2 1 2 3
M  V30 3 2 3 4
M  V30 4 1 4 5
M  V30 5 2 5 6
M  V30 6 1 5 7
M  V30 7 2 7 8
M  V30 8 1 8 9
M  V30 9 1 9 10
M  V30 10 1 10 11
M  V30 11 1 11 12
M  V30 12 1 12 13
M  V30 13 1 8 14
M  V30 14 1 6 1
M  V30 15 1 13 9
M  V30 16 1 14 4
M  V30 17 1 1 15
M  V30 18 1 2 16
M  V30 19 1 3 17
M  V30 20 1 6 18
M  V30 21 1 9 19 CFG=3
M  V30 22 1 10 20
M  V30 23 1 10 21
M  V30 24 1 11 22
M  V30 25 1 12 23
M  V30 26 1 12 24
M  V30 27 1 13 25
M  V30 28 1 13 26
M  V30 29 1 14 27
M  V30 END BOND
M  V30 END CTAB
M  END
>  <Dataset>  (24) 
CF

>  <Ligand_Instance>  (24) 
134_B_9

>  <PDB_ID>  (24) 
nan

>  <Standardized_SMILES>  (24) 
[H]C1=C([H])C([H])=C2C(=C1[H])N=C([C@]1([H])C([H])([H])N([H])C([H])([H])C1([H])[H])N2[H]

>  <Name>  (24) 
2‐[(3S)‐pyrrolidin‐3‐yl]‐1H‐1,3‐benzodiazole

>  <Pocket>  (24) 
X

>  <ATP_Site>  (24) 
1.0

>  <Peripheral>  (24) 
1.0

>  <Num_H_Atoms_ProtBoundConf>  (24) 
13.0

>  <Num_Resolved_Atoms>  (24) 
14.0

>  <Num_Not_Resolved_Atoms>  (24) 
0.0

>  <2D_Mol_H>  (24) 
<rdkit.Chem.rdchem.Mol object at 0x72a238db49e0>

>  <MW>  (24) 
187.246

>  <HBA>  (24) 
2

>  <HBD>  (24) 
2

>  <LogP>  (24) 
1.6398

>  <NRB>  (24) 
1

>  <TPSA>  (24) 
40.71

>  <Num_Heavy_Atoms>  (24) 
14

>  <Ro5>  (24) 
[True, True, True, True, True, True]

>  <Ro5_Fulfilled>  (24) 
True

>  <Ro3>  (24) 
[True, True, True, True]

>  <Ro3_Fulfilled>  (24) 
True

>  <Fsp3>  (24) 
0.363636

>  <Fsp3_0.42>  (24) 
False

>  <Fsp3_0.45>  (24) 
False

>  <Stereogenic_Carbons>  (24) 
1

>  <C_Atoms>  (24) 
11

>  <FCStereo>  (24) 
0.090909

>  <SPS>  (24) 
306

>  <nSPS>  (24) 
21.857143

>  <PBF>  (24) 
0.550116

>  <PBF_0.6>  (24) 
False

>  <nPBF>  (24) 
0.039294

>  <nPBF_0.016>  (24) 
True

>  <PMI1>  (24) 
239.176826

>  <PMI2>  (24) 
1265.14751

>  <PMI3>  (24) 
1380.357863

>  <NPR1>  (24) 
0.173272

>  <NPR2>  (24) 
0.916536

>  <Sum_NPR>  (24) 
1.089807

>  <Sum_NPR_1.07>  (24) 
True

>  <Sum_NPR_1.2>  (24) 
False

>  <MaxAbsEStateIndex>  (24) 
4.599167

>  <MaxEStateIndex>  (24) 
4.599167

>  <MinAbsEStateIndex>  (24) 
0.571667

>  <MinEStateIndex>  (24) 
0.571667

>  <qed>  (24) 
0.712185

>  <MolWt>  (24) 
187.246

>  <HeavyAtomMolWt>  (24) 
174.142

>  <ExactMolWt>  (24) 
187.110947

>  <NumValenceElectrons>  (24) 
72

>  <NumRadicalElectrons>  (24) 
0

>  <MaxPartialCharge>  (24) 
0.111188

>  <MinPartialCharge>  (24) 
-0.341702

>  <MaxAbsPartialCharge>  (24) 
0.341702

>  <MinAbsPartialCharge>  (24) 
0.111188

>  <FpDensityMorgan1>  (24) 
1.285714

>  <FpDensityMorgan2>  (24) 
2.214286

>  <FpDensityMorgan3>  (24) 
3.0

>  <BCUT2D_MWHI>  (24) 
14.973377

>  <BCUT2D_MWLOW>  (24) 
10.105569

>  <BCUT2D_CHGHI>  (24) 
2.1892

>  <BCUT2D_CHGLO>  (24) 
-2.011794

>  <BCUT2D_LOGPHI>  (24) 
2.215294

>  <BCUT2D_LOGPLOW>  (24) 
-2.081802

>  <BCUT2D_MRHI>  (24) 
5.743412

>  <BCUT2D_MRLOW>  (24) 
0.717279

>  <AvgIpc>  (24) 
2.86207

>  <BalabanJ>  (24) 
2.047396

>  <BertzCT>  (24) 
407.484299

>  <Chi0>  (24) 
9.380469

>  <Chi0n>  (24) 
7.955285

>  <Chi0v>  (24) 
7.955285

>  <Chi1>  (24) 
6.932653

>  <Chi1n>  (24) 
5.086842

>  <Chi1v>  (24) 
5.086842

>  <Chi2n>  (24) 
3.828916

>  <Chi2v>  (24) 
3.828916

>  <Chi3n>  (24) 
2.854704

>  <Chi3v>  (24) 
2.854704

>  <Chi4n>  (24) 
2.053923

>  <Chi4v>  (24) 
2.053923

>  <HallKierAlpha>  (24) 
-1.35

>  <Ipc>  (24) 
4544.967134

>  <Kappa1>  (24) 
7.999579

>  <Kappa2>  (24) 
3.098739

>  <Kappa3>  (24) 
1.208245

>  <LabuteASA>  (24) 
82.545676

>  <PEOE_VSA1>  (24) 
10.300767

>  <PEOE_VSA10>  (24) 
5.824404

>  <PEOE_VSA11>  (24) 
0.0

>  <PEOE_VSA12>  (24) 
0.0

>  <PEOE_VSA13>  (24) 
0.0

>  <PEOE_VSA14>  (24) 
0.0

>  <PEOE_VSA2>  (24) 
0.0

>  <PEOE_VSA3>  (24) 
4.983979

>  <PEOE_VSA4>  (24) 
0.0

>  <PEOE_VSA5>  (24) 
0.0

>  <PEOE_VSA6>  (24) 
12.132734

>  <PEOE_VSA7>  (24) 
25.098312

>  <PEOE_VSA8>  (24) 
12.462662

>  <PEOE_VSA9>  (24) 
11.033401

>  <SMR_VSA1>  (24) 
0.0

>  <SMR_VSA10>  (24) 
11.033401

>  <SMR_VSA2>  (24) 
0.0

>  <SMR_VSA3>  (24) 
15.284746

>  <SMR_VSA4>  (24) 
0.0

>  <SMR_VSA5>  (24) 
12.338728

>  <SMR_VSA6>  (24) 
13.089513

>  <SMR_VSA7>  (24) 
30.089873

>  <SMR_VSA8>  (24) 
0.0

>  <SMR_VSA9>  (24) 
0.0

>  <SlogP_VSA1>  (24) 
5.316789

>  <SlogP_VSA10>  (24) 
0.0

>  <SlogP_VSA11>  (24) 
0.0

>  <SlogP_VSA12>  (24) 
0.0

>  <SlogP_VSA2>  (24) 
23.05747

>  <SlogP_VSA3>  (24) 
0.0

>  <SlogP_VSA4>  (24) 
0.0

>  <SlogP_VSA5>  (24) 
18.163132

>  <SlogP_VSA6>  (24) 
24.265468

>  <SlogP_VSA7>  (24) 
0.0

>  <SlogP_VSA8>  (24) 
11.033401

>  <SlogP_VSA9>  (24) 
0.0

>  <EState_VSA1>  (24) 
0.0

>  <EState_VSA10>  (24) 
0.0

>  <EState_VSA11>  (24) 
0.0

>  <EState_VSA2>  (24) 
0.0

>  <EState_VSA3>  (24) 
5.917906

>  <EState_VSA4>  (24) 
29.947319

>  <EState_VSA5>  (24) 
6.420822

>  <EState_VSA6>  (24) 
0.0

>  <EState_VSA7>  (24) 
12.132734

>  <EState_VSA8>  (24) 
27.41748

>  <EState_VSA9>  (24) 
0.0

>  <VSA_EState1>  (24) 
0.0

>  <VSA_EState10>  (24) 
0.0

>  <VSA_EState2>  (24) 
7.985556

>  <VSA_EState3>  (24) 
3.355154

>  <VSA_EState4>  (24) 
2.225741

>  <VSA_EState5>  (24) 
1.707037

>  <VSA_EState6>  (24) 
8.19739

>  <VSA_EState7>  (24) 
1.194268

>  <VSA_EState8>  (24) 
2.168188

>  <VSA_EState9>  (24) 
0.0

>  <FractionCSP3>  (24) 
0.363636

>  <HeavyAtomCount>  (24) 
14

>  <NHOHCount>  (24) 
2

>  <NOCount>  (24) 
3

>  <NumAliphaticCarbocycles>  (24) 
0

>  <NumAliphaticHeterocycles>  (24) 
1

>  <NumAliphaticRings>  (24) 
1

>  <NumAromaticCarbocycles>  (24) 
1

>  <NumAromaticHeterocycles>  (24) 
1

>  <NAR>  (24) 
2

>  <NumHAcceptors>  (24) 
2

>  <NumHDonors>  (24) 
2

>  <NumHeteroatoms>  (24) 
3

>  <NumRotatableBonds>  (24) 
1

>  <NumSaturatedCarbocycles>  (24) 
0

>  <NumSaturatedHeterocycles>  (24) 
1

>  <NumSaturatedRings>  (24) 
1

>  <RingCount>  (24) 
3

>  <MolLogP>  (24) 
1.6398

>  <MolMR>  (24) 
56.3214

>  <fr_Al_COO>  (24) 
0

>  <fr_Al_OH>  (24) 
0

>  <fr_Al_OH_noTert>  (24) 
0

>  <fr_ArN>  (24) 
0

>  <fr_Ar_COO>  (24) 
0

>  <fr_Ar_N>  (24) 
2

>  <fr_Ar_NH>  (24) 
1

>  <fr_Ar_OH>  (24) 
0

>  <fr_COO>  (24) 
0

>  <fr_COO2>  (24) 
0

>  <fr_C_O>  (24) 
0

>  <fr_C_O_noCOO>  (24) 
0

>  <fr_C_S>  (24) 
0

>  <fr_HOCCN>  (24) 
0

>  <fr_Imine>  (24) 
0

>  <fr_NH0>  (24) 
1

>  <fr_NH1>  (24) 
2

>  <fr_NH2>  (24) 
0

>  <fr_N_O>  (24) 
0

>  <fr_Ndealkylation1>  (24) 
0

>  <fr_Ndealkylation2>  (24) 
0

>  <fr_Nhpyrrole>  (24) 
1

>  <fr_SH>  (24) 
0

>  <fr_aldehyde>  (24) 
0

>  <fr_alkyl_carbamate>  (24) 
0

>  <fr_alkyl_halide>  (24) 
0

>  <fr_allylic_oxid>  (24) 
0

>  <fr_amide>  (24) 
0

>  <fr_amidine>  (24) 
0

>  <fr_aniline>  (24) 
0

>  <fr_aryl_methyl>  (24) 
0

>  <fr_azide>  (24) 
0

>  <fr_azo>  (24) 
0

>  <fr_barbitur>  (24) 
0

>  <fr_benzene>  (24) 
1

>  <fr_benzodiazepine>  (24) 
0

>  <fr_bicyclic>  (24) 
1

>  <fr_diazo>  (24) 
0

>  <fr_dihydropyridine>  (24) 
0

>  <fr_epoxide>  (24) 
0

>  <fr_ester>  (24) 
0

>  <fr_ether>  (24) 
0

>  <fr_furan>  (24) 
0

>  <fr_guanido>  (24) 
0

>  <fr_halogen>  (24) 
0

>  <fr_hdrzine>  (24) 
0

>  <fr_hdrzone>  (24) 
0

>  <fr_imidazole>  (24) 
1

>  <fr_imide>  (24) 
0

>  <fr_isocyan>  (24) 
0

>  <fr_isothiocyan>  (24) 
0

>  <fr_ketone>  (24) 
0

>  <fr_ketone_Topliss>  (24) 
0

>  <fr_lactam>  (24) 
0

>  <fr_lactone>  (24) 
0

>  <fr_methoxy>  (24) 
0

>  <fr_morpholine>  (24) 
0

>  <fr_nitrile>  (24) 
0

>  <fr_nitro>  (24) 
0

>  <fr_nitro_arom>  (24) 
0

>  <fr_nitro_arom_nonortho>  (24) 
0

>  <fr_nitroso>  (24) 
0

>  <fr_oxazole>  (24) 
0

>  <fr_oxime>  (24) 
0

>  <fr_para_hydroxylation>  (24) 
2

>  <fr_phenol>  (24) 
0

>  <fr_phenol_noOrthoHbond>  (24) 
0

>  <fr_phos_acid>  (24) 
0

>  <fr_phos_ester>  (24) 
0

>  <fr_piperdine>  (24) 
0

>  <fr_piperzine>  (24) 
0

>  <fr_priamide>  (24) 
0

>  <fr_prisulfonamd>  (24) 
0

>  <fr_pyridine>  (24) 
0

>  <fr_quatN>  (24) 
0

>  <fr_sulfide>  (24) 
0

>  <fr_sulfonamd>  (24) 
0

>  <fr_sulfone>  (24) 
0

>  <fr_term_acetylene>  (24) 
0

>  <fr_tetrazole>  (24) 
0

>  <fr_thiazole>  (24) 
0

>  <fr_thiocyan>  (24) 
0

>  <fr_thiophene>  (24) 
0

>  <fr_unbrch_alkane>  (24) 
0

>  <fr_urea>  (24) 
0

>  <NP-Likeness>  (24) 
-0.982865

$$$$
F138
     RDKit          3D

  0  0  0  0  0  0  0  0  0  0999 V3000
M  V30 BEGIN CTAB
M  V30 COUNTS 34 36 0 0 0
M  V30 BEGIN ATOM
M  V30 1 C -1.242050 0.814492 0.385159 0
M  V30 2 C -0.037271 0.153174 0.513143 0
M  V30 3 N 0.254957 -1.158013 0.605184 0
M  V30 4 C 1.603794 -1.308129 0.717173 0
M  V30 5 C 2.132296 -2.692243 0.831284 0 CFG=1
M  V30 6 C 1.581956 -3.408969 2.028363 0
M  V30 7 C 1.336754 -4.803060 1.488481 0
M  V30 8 N 0.802482 -4.522733 0.164632 0 CHG=1 VAL=4
M  V30 9 C 1.688194 -3.515746 -0.361023 0
M  V30 10 N 2.174660 -0.093578 0.696820 0
M  V30 11 C 1.177513 0.801673 0.572457 0
M  V30 12 C 1.236650 2.177960 0.504058 0
M  V30 13 C 0.049094 2.886977 0.374872 0
M  V30 14 C -1.151278 2.209045 0.318227 0
M  V30 15 C -2.346910 3.036258 0.182163 0
M  V30 16 O -2.325117 4.312211 0.116170 0
M  V30 17 O -3.630991 2.528612 0.110069 0
M  V30 18 C -4.776044 3.377382 -0.023245 0
M  V30 19 H -2.194583 0.334055 0.337166 0
M  V30 20 H 3.224906 -2.624204 0.911993 0
M  V30 21 H 0.582093 -3.020419 2.341160 0
M  V30 22 H 2.289897 -3.413261 2.887157 0
M  V30 23 H 0.614942 -5.368218 2.111867 0
M  V30 24 H 2.301594 -5.351052 1.385995 0
M  V30 25 H -0.147260 -4.127142 0.230656 0
M  V30 26 H 0.812968 -5.396871 -0.438582 0
M  V30 27 H 2.606392 -3.913130 -0.831499 0
M  V30 28 H 1.133231 -2.863504 -1.071932 0
M  V30 29 H 3.210505 0.006629 0.771406 0
M  V30 30 H 2.188556 2.683360 0.550684 0
M  V30 31 H 0.086907 3.966150 0.320565 0
M  V30 32 H -5.456756 2.845995 -0.729625 0
M  V30 33 H -4.498556 4.348772 -0.470933 0
M  V30 34 H -5.285129 3.554041 0.928179 0
M  V30 END ATOM
M  V30 BEGIN BOND
M  V30 1 2 1 2
M  V30 2 1 2 3
M  V30 3 2 3 4
M  V30 4 1 4 5
M  V30 5 1 5 6
M  V30 6 1 6 7
M  V30 7 1 7 8
M  V30 8 1 8 9
M  V30 9 1 4 10
M  V30 10 1 10 11
M  V30 11 2 11 12
M  V30 12 1 12 13
M  V30 13 2 13 14
M  V30 14 1 14 15
M  V30 15 2 15 16
M  V30 16 1 15 17
M  V30 17 1 17 18
M  V30 18 1 14 1
M  V30 19 1 11 2
M  V30 20 1 9 5
M  V30 21 1 1 19
M  V30 22 1 5 20 CFG=1
M  V30 23 1 6 21
M  V30 24 1 6 22
M  V30 25 1 7 23
M  V30 26 1 7 24
M  V30 27 1 8 25
M  V30 28 1 8 26
M  V30 29 1 9 27
M  V30 30 1 9 28
M  V30 31 1 10 29
M  V30 32 1 12 30
M  V30 33 1 13 31
M  V30 34 1 18 32
M  V30 35 1 18 33
M  V30 36 1 18 34
M  V30 END BOND
M  V30 END CTAB
M  END
>  <Dataset>  (25) 
CF

>  <Ligand_Instance>  (25) 
138_B_1

>  <PDB_ID>  (25) 
nan

>  <Standardized_SMILES>  (25) 
[H]C1=C2N=C([C@@]3([H])C([H])([H])C([H])([H])[N+]([H])([H])C3([H])[H])N([H])C2=C([H])C([H])=C1C(=O)OC([H])([H])[H]

>  <Name>  (25) 
methyl 2‐[(3S)‐pyrrolidin‐3‐yl]‐1H‐1,3‐benzodiazole‐5‐carboxylate

>  <Pocket>  (25) 
A

>  <ATP_Site>  (25) 
1.0

>  <Peripheral>  (25) 
1.0

>  <Num_H_Atoms_ProtBoundConf>  (25) 
16.0

>  <Num_Resolved_Atoms>  (25) 
18.0

>  <Num_Not_Resolved_Atoms>  (25) 
0.0

>  <2D_Mol_H>  (25) 
<rdkit.Chem.rdchem.Mol object at 0x72a238db4ac0>

>  <MW>  (25) 
246.29

>  <HBA>  (25) 
3

>  <HBD>  (25) 
2

>  <LogP>  (25) 
0.4002

>  <NRB>  (25) 
3

>  <TPSA>  (25) 
71.59

>  <Num_Heavy_Atoms>  (25) 
18

>  <Ro5>  (25) 
[True, True, True, True, True, True]

>  <Ro5_Fulfilled>  (25) 
True

>  <Ro3>  (25) 
[True, True, True, True]

>  <Ro3_Fulfilled>  (25) 
True

>  <Fsp3>  (25) 
0.384615

>  <Fsp3_0.42>  (25) 
False

>  <Fsp3_0.45>  (25) 
False

>  <Stereogenic_Carbons>  (25) 
1

>  <C_Atoms>  (25) 
13

>  <FCStereo>  (25) 
0.076923

>  <SPS>  (25) 
347

>  <nSPS>  (25) 
19.277778

>  <PBF>  (25) 
0.492955

>  <PBF_0.6>  (25) 
False

>  <nPBF>  (25) 
0.027386

>  <nPBF_0.016>  (25) 
True

>  <PMI1>  (25) 
481.292402

>  <PMI2>  (25) 
2821.168636

>  <PMI3>  (25) 
3176.271787

>  <NPR1>  (25) 
0.151527

>  <NPR2>  (25) 
0.888201

>  <Sum_NPR>  (25) 
1.039729

>  <Sum_NPR_1.07>  (25) 
False

>  <Sum_NPR_1.2>  (25) 
False

>  <MaxAbsEStateIndex>  (25) 
11.454932

>  <MaxEStateIndex>  (25) 
11.454932

>  <MinAbsEStateIndex>  (25) 
0.323472

>  <MinEStateIndex>  (25) 
-0.323472

>  <qed>  (25) 
0.753415

>  <MolWt>  (25) 
246.29

>  <HeavyAtomMolWt>  (25) 
230.162

>  <ExactMolWt>  (25) 
246.123703

>  <NumValenceElectrons>  (25) 
94

>  <NumRadicalElectrons>  (25) 
0

>  <MaxPartialCharge>  (25) 
0.337424

>  <MinPartialCharge>  (25) 
-0.465417

>  <MaxAbsPartialCharge>  (25) 
0.465417

>  <MinAbsPartialCharge>  (25) 
0.337424

>  <FpDensityMorgan1>  (25) 
1.555556

>  <FpDensityMorgan2>  (25) 
2.444444

>  <FpDensityMorgan3>  (25) 
3.166667

>  <BCUT2D_MWHI>  (25) 
16.523281

>  <BCUT2D_MWLOW>  (25) 
10.105516

>  <BCUT2D_CHGHI>  (25) 
2.228301

>  <BCUT2D_CHGLO>  (25) 
-1.982953

>  <BCUT2D_LOGPHI>  (25) 
2.211

>  <BCUT2D_LOGPLOW>  (25) 
-2.806873

>  <BCUT2D_MRHI>  (25) 
5.93058

>  <BCUT2D_MRLOW>  (25) 
-0.636231

>  <AvgIpc>  (25) 
3.044362

>  <BalabanJ>  (25) 
1.98175

>  <BertzCT>  (25) 
584.933924

>  <Chi0>  (25) 
12.535169

>  <Chi0n>  (25) 
10.271782

>  <Chi0v>  (25) 
10.271782

>  <Chi1>  (25) 
8.775188

>  <Chi1n>  (25) 
6.173412

>  <Chi1v>  (25) 
6.173412

>  <Chi2n>  (25) 
4.644205

>  <Chi2v>  (25) 
4.644205

>  <Chi3n>  (25) 
3.479608

>  <Chi3v>  (25) 
3.479608

>  <Chi4n>  (25) 
2.467987

>  <Chi4v>  (25) 
2.467987

>  <HallKierAlpha>  (25) 
-1.88

>  <Ipc>  (25) 
27904.621983

>  <Kappa1>  (25) 
11.224118

>  <Kappa2>  (25) 
4.4185

>  <Kappa3>  (25) 
1.862974

>  <LabuteASA>  (25) 
104.550627

>  <PEOE_VSA1>  (25) 
15.03763

>  <PEOE_VSA10>  (25) 
5.824404

>  <PEOE_VSA11>  (25) 
0.0

>  <PEOE_VSA12>  (25) 
0.0

>  <PEOE_VSA13>  (25) 
0.0

>  <PEOE_VSA14>  (25) 
5.969305

>  <PEOE_VSA2>  (25) 
0.0

>  <PEOE_VSA3>  (25) 
9.778516

>  <PEOE_VSA4>  (25) 
0.0

>  <PEOE_VSA5>  (25) 
0.0

>  <PEOE_VSA6>  (25) 
0.0

>  <PEOE_VSA7>  (25) 
18.199101

>  <PEOE_VSA8>  (25) 
6.420822

>  <PEOE_VSA9>  (25) 
42.714069

>  <SMR_VSA1>  (25) 
14.848189

>  <SMR_VSA10>  (25) 
17.002707

>  <SMR_VSA2>  (25) 
0.0

>  <SMR_VSA3>  (25) 
9.967957

>  <SMR_VSA4>  (25) 
0.0

>  <SMR_VSA5>  (25) 
12.338728

>  <SMR_VSA6>  (25) 
20.19931

>  <SMR_VSA7>  (25) 
29.586957

>  <SMR_VSA8>  (25) 
0.0

>  <SMR_VSA9>  (25) 
0.0

>  <SlogP_VSA1>  (25) 
5.316789

>  <SlogP_VSA10>  (25) 
0.0

>  <SlogP_VSA11>  (25) 
0.0

>  <SlogP_VSA12>  (25) 
0.0

>  <SlogP_VSA2>  (25) 
36.136573

>  <SlogP_VSA3>  (25) 
4.736863

>  <SlogP_VSA4>  (25) 
0.0

>  <SlogP_VSA5>  (25) 
28.521121

>  <SlogP_VSA6>  (25) 
18.199101

>  <SlogP_VSA7>  (25) 
0.0

>  <SlogP_VSA8>  (25) 
11.033401

>  <SlogP_VSA9>  (25) 
0.0

>  <EState_VSA1>  (25) 
0.0

>  <EState_VSA10>  (25) 
4.794537

>  <EState_VSA11>  (25) 
0.0

>  <EState_VSA2>  (25) 
5.969305

>  <EState_VSA3>  (25) 
11.481358

>  <EState_VSA4>  (25) 
36.36814

>  <EState_VSA5>  (25) 
7.109798

>  <EState_VSA6>  (25) 
12.132734

>  <EState_VSA7>  (25) 
6.066367

>  <EState_VSA8>  (25) 
15.284746

>  <EState_VSA9>  (25) 
4.736863

>  <VSA_EState1>  (25) 
4.709856

>  <VSA_EState10>  (25) 
0.0

>  <VSA_EState2>  (25) 
19.382111

>  <VSA_EState3>  (25) 
2.303305

>  <VSA_EState4>  (25) 
2.352211

>  <VSA_EState5>  (25) 
1.204067

>  <VSA_EState6>  (25) 
5.424092

>  <VSA_EState7>  (25) 
1.156429

>  <VSA_EState8>  (25) 
2.248813

>  <VSA_EState9>  (25) 
1.385783

>  <FractionCSP3>  (25) 
0.384615

>  <HeavyAtomCount>  (25) 
18

>  <NHOHCount>  (25) 
3

>  <NOCount>  (25) 
5

>  <NumAliphaticCarbocycles>  (25) 
0

>  <NumAliphaticHeterocycles>  (25) 
1

>  <NumAliphaticRings>  (25) 
1

>  <NumAromaticCarbocycles>  (25) 
1

>  <NumAromaticHeterocycles>  (25) 
1

>  <NAR>  (25) 
2

>  <NumHAcceptors>  (25) 
3

>  <NumHDonors>  (25) 
2

>  <NumHeteroatoms>  (25) 
5

>  <NumRotatableBonds>  (25) 
2

>  <NumSaturatedCarbocycles>  (25) 
0

>  <NumSaturatedHeterocycles>  (25) 
1

>  <NumSaturatedRings>  (25) 
1

>  <RingCount>  (25) 
3

>  <MolLogP>  (25) 
0.4002

>  <MolMR>  (25) 
66.4506

>  <fr_Al_COO>  (25) 
0

>  <fr_Al_OH>  (25) 
0

>  <fr_Al_OH_noTert>  (25) 
0

>  <fr_ArN>  (25) 
0

>  <fr_Ar_COO>  (25) 
0

>  <fr_Ar_N>  (25) 
2

>  <fr_Ar_NH>  (25) 
1

>  <fr_Ar_OH>  (25) 
0

>  <fr_COO>  (25) 
0

>  <fr_COO2>  (25) 
0

>  <fr_C_O>  (25) 
1

>  <fr_C_O_noCOO>  (25) 
1

>  <fr_C_S>  (25) 
0

>  <fr_HOCCN>  (25) 
0

>  <fr_Imine>  (25) 
0

>  <fr_NH0>  (25) 
1

>  <fr_NH1>  (25) 
1

>  <fr_NH2>  (25) 
1

>  <fr_N_O>  (25) 
0

>  <fr_Ndealkylation1>  (25) 
0

>  <fr_Ndealkylation2>  (25) 
0

>  <fr_Nhpyrrole>  (25) 
1

>  <fr_SH>  (25) 
0

>  <fr_aldehyde>  (25) 
0

>  <fr_alkyl_carbamate>  (25) 
0

>  <fr_alkyl_halide>  (25) 
0

>  <fr_allylic_oxid>  (25) 
0

>  <fr_amide>  (25) 
0

>  <fr_amidine>  (25) 
0

>  <fr_aniline>  (25) 
0

>  <fr_aryl_methyl>  (25) 
0

>  <fr_azide>  (25) 
0

>  <fr_azo>  (25) 
0

>  <fr_barbitur>  (25) 
0

>  <fr_benzene>  (25) 
1

>  <fr_benzodiazepine>  (25) 
0

>  <fr_bicyclic>  (25) 
1

>  <fr_diazo>  (25) 
0

>  <fr_dihydropyridine>  (25) 
0

>  <fr_epoxide>  (25) 
0

>  <fr_ester>  (25) 
1

>  <fr_ether>  (25) 
1

>  <fr_furan>  (25) 
0

>  <fr_guanido>  (25) 
0

>  <fr_halogen>  (25) 
0

>  <fr_hdrzine>  (25) 
0

>  <fr_hdrzone>  (25) 
0

>  <fr_imidazole>  (25) 
1

>  <fr_imide>  (25) 
0

>  <fr_isocyan>  (25) 
0

>  <fr_isothiocyan>  (25) 
0

>  <fr_ketone>  (25) 
0

>  <fr_ketone_Topliss>  (25) 
0

>  <fr_lactam>  (25) 
0

>  <fr_lactone>  (25) 
0

>  <fr_methoxy>  (25) 
1

>  <fr_morpholine>  (25) 
0

>  <fr_nitrile>  (25) 
0

>  <fr_nitro>  (25) 
0

>  <fr_nitro_arom>  (25) 
0

>  <fr_nitro_arom_nonortho>  (25) 
0

>  <fr_nitroso>  (25) 
0

>  <fr_oxazole>  (25) 
0

>  <fr_oxime>  (25) 
0

>  <fr_para_hydroxylation>  (25) 
0

>  <fr_phenol>  (25) 
0

>  <fr_phenol_noOrthoHbond>  (25) 
0

>  <fr_phos_acid>  (25) 
0

>  <fr_phos_ester>  (25) 
0

>  <fr_piperdine>  (25) 
0

>  <fr_piperzine>  (25) 
0

>  <fr_priamide>  (25) 
0

>  <fr_prisulfonamd>  (25) 
0

>  <fr_pyridine>  (25) 
0

>  <fr_quatN>  (25) 
1

>  <fr_sulfide>  (25) 
0

>  <fr_sulfonamd>  (25) 
0

>  <fr_sulfone>  (25) 
0

>  <fr_term_acetylene>  (25) 
0

>  <fr_tetrazole>  (25) 
0

>  <fr_thiazole>  (25) 
0

>  <fr_thiocyan>  (25) 
0

>  <fr_thiophene>  (25) 
0

>  <fr_unbrch_alkane>  (25) 
0

>  <fr_urea>  (25) 
0

>  <NP-Likeness>  (25) 
-1.053219

$$$$
F145
     RDKit          3D

  0  0  0  0  0  0  0  0  0  0999 V3000
M  V30 BEGIN CTAB
M  V30 COUNTS 30 32 0 0 0
M  V30 BEGIN ATOM
M  V30 1 C -0.461109 -1.404432 2.483915 0
M  V30 2 C 0.765540 -1.332240 1.883341 0
M  V30 3 C 1.908649 -2.322408 2.033850 0
M  V30 4 C 1.875276 -3.418654 2.785213 0
M  V30 5 C 2.937410 -4.243551 2.861177 0
M  V30 6 C 4.065652 -3.836580 2.079949 0
M  V30 7 Cl 5.680961 -4.724188 1.949050 0
M  V30 8 S 3.445923 -2.229900 1.279723 0
M  V30 9 N 0.884879 -0.245921 1.100079 0
M  V30 10 C -0.318384 0.381430 1.220333 0
M  V30 11 C -0.586932 1.658295 0.483694 0 CFG=2
M  V30 12 C -2.106774 1.733891 0.316317 0
M  V30 13 O -2.506003 0.429639 0.056948 0
M  V30 14 C -1.974326 -0.137000 -1.066033 0
M  V30 15 C -0.589735 0.250646 -1.431105 0
M  V30 16 N -0.100574 1.476013 -0.885236 0 CHG=1 VAL=4
M  V30 17 N -1.130317 -0.305281 2.046951 0
M  V30 18 H -0.790758 -2.189094 3.159248 0
M  V30 19 H 0.984176 -3.698753 3.374471 0
M  V30 20 H 3.086286 -5.161178 3.410542 0
M  V30 21 H 1.715560 0.035775 0.537026 0
M  V30 22 H -0.166971 2.538320 0.962410 0
M  V30 23 H -2.542786 2.018409 1.289730 0
M  V30 24 H -2.406844 2.462143 -0.460030 0
M  V30 25 H -2.706440 -0.018183 -1.913752 0
M  V30 26 H -1.966801 -1.253324 -0.891208 0
M  V30 27 H -0.573328 0.378434 -2.545461 0
M  V30 28 H 0.152510 -0.574173 -1.255887 0
M  V30 29 H 0.943927 1.410604 -0.811589 0
M  V30 30 H -0.315790 2.304121 -1.470760 0
M  V30 END ATOM
M  V30 BEGIN BOND
M  V30 1 2 1 2
M  V30 2 1 2 3
M  V30 3 2 3 4
M  V30 4 1 4 5
M  V30 5 2 5 6
M  V30 6 1 6 7
M  V30 7 1 6 8
M  V30 8 1 2 9
M  V30 9 1 9 10
M  V30 10 1 10 11
M  V30 11 1 11 12
M  V30 12 1 12 13
M  V30 13 1 13 14
M  V30 14 1 14 15
M  V30 15 1 15 16
M  V30 16 2 10 17
M  V30 17 1 17 1
M  V30 18 1 8 3
M  V30 19 1 16 11
M  V30 20 1 1 18
M  V30 21 1 4 19
M  V30 22 1 5 20
M  V30 23 1 9 21
M  V30 24 1 11 22 CFG=1
M  V30 25 1 12 23
M  V30 26 1 12 24
M  V30 27 1 14 25
M  V30 28 1 14 26
M  V30 29 1 15 27
M  V30 30 1 15 28
M  V30 31 1 16 29
M  V30 32 1 16 30
M  V30 END BOND
M  V30 END CTAB
M  END
>  <Dataset>  (26) 
CF

>  <Ligand_Instance>  (26) 
145_B_5

>  <PDB_ID>  (26) 
nan

>  <Standardized_SMILES>  (26) 
[H]C1=C(C2=C([H])C([H])=C(Cl)S2)N([H])C([C@]2([H])C([H])([H])OC([H])([H])C([H])([H])[N+]2([H])[H])=N1

>  <Name>  (26) 
(3R)‐3‐[4‐(5‐chlorothiophen‐2‐yl)‐1H‐imidazol‐2‐yl]morpholine

>  <Pocket>  (26) 
A

>  <ATP_Site>  (26) 
1.0

>  <Peripheral>  (26) 
1.0

>  <Num_H_Atoms_ProtBoundConf>  (26) 
13.0

>  <Num_Resolved_Atoms>  (26) 
17.0

>  <Num_Not_Resolved_Atoms>  (26) 
0.0

>  <2D_Mol_H>  (26) 
<rdkit.Chem.rdchem.Mol object at 0x72a238db4ba0>

>  <MW>  (26) 
270.765

>  <HBA>  (26) 
3

>  <HBD>  (26) 
2

>  <LogP>  (26) 
1.4263

>  <NRB>  (26) 
2

>  <TPSA>  (26) 
54.52

>  <Num_Heavy_Atoms>  (26) 
17

>  <Ro5>  (26) 
[True, True, True, True, True, True]

>  <Ro5_Fulfilled>  (26) 
True

>  <Ro3>  (26) 
[True, True, True, True]

>  <Ro3_Fulfilled>  (26) 
True

>  <Fsp3>  (26) 
0.363636

>  <Fsp3_0.42>  (26) 
False

>  <Fsp3_0.45>  (26) 
False

>  <Stereogenic_Carbons>  (26) 
1

>  <C_Atoms>  (26) 
11

>  <FCStereo>  (26) 
0.090909

>  <SPS>  (26) 
351

>  <nSPS>  (26) 
20.647059

>  <PBF>  (26) 
0.783754

>  <PBF_0.6>  (26) 
True

>  <nPBF>  (26) 
0.046103

>  <nPBF_0.016>  (26) 
True

>  <PMI1>  (26) 
434.097027

>  <PMI2>  (26) 
3186.886491

>  <PMI3>  (26) 
3382.495109

>  <NPR1>  (26) 
0.128336

>  <NPR2>  (26) 
0.94217

>  <Sum_NPR>  (26) 
1.070507

>  <Sum_NPR_1.07>  (26) 
True

>  <Sum_NPR_1.2>  (26) 
False

>  <MaxAbsEStateIndex>  (26) 
5.923837

>  <MaxEStateIndex>  (26) 
5.923837

>  <MinAbsEStateIndex>  (26) 
0.285124

>  <MinEStateIndex>  (26) 
0.285124

>  <qed>  (26) 
0.867375

>  <MolWt>  (26) 
270.765

>  <HeavyAtomMolWt>  (26) 
257.661

>  <ExactMolWt>  (26) 
270.046237

>  <NumValenceElectrons>  (26) 
90

>  <NumRadicalElectrons>  (26) 
0

>  <MaxPartialCharge>  (26) 
0.167964

>  <MinPartialCharge>  (26) 
-0.368901

>  <MaxAbsPartialCharge>  (26) 
0.368901

>  <MinAbsPartialCharge>  (26) 
0.167964

>  <FpDensityMorgan1>  (26) 
1.529412

>  <FpDensityMorgan2>  (26) 
2.470588

>  <FpDensityMorgan3>  (26) 
3.176471

>  <BCUT2D_MWHI>  (26) 
35.496017

>  <BCUT2D_MWLOW>  (26) 
10.24806

>  <BCUT2D_CHGHI>  (26) 
2.218085

>  <BCUT2D_CHGLO>  (26) 
-2.179051

>  <BCUT2D_LOGPHI>  (26) 
2.295943

>  <BCUT2D_LOGPLOW>  (26) 
-2.886169

>  <BCUT2D_MRHI>  (26) 
7.188484

>  <BCUT2D_MRLOW>  (26) 
-0.712322

>  <AvgIpc>  (26) 
2.98278

>  <BalabanJ>  (26) 
1.818531

>  <BertzCT>  (26) 
504.294546

>  <Chi0>  (26) 
11.664926

>  <Chi0n>  (26) 
9.149746

>  <Chi0v>  (26) 
10.722172

>  <Chi1>  (26) 
8.3265

>  <Chi1n>  (26) 
5.54425

>  <Chi1v>  (26) 
6.738711

>  <Chi2n>  (26) 
3.991658

>  <Chi2v>  (26) 
5.706742

>  <Chi3n>  (26) 
2.796135

>  <Chi3v>  (26) 
4.060573

>  <Chi4n>  (26) 
1.930787

>  <Chi4v>  (26) 
2.939083

>  <HallKierAlpha>  (26) 
-0.88

>  <Ipc>  (26) 
18051.785047

>  <Kappa1>  (26) 
11.224118

>  <Kappa2>  (26) 
4.777293

>  <Kappa3>  (26) 
2.372678

>  <LabuteASA>  (26) 
107.97828

>  <PEOE_VSA1>  (26) 
15.03763

>  <PEOE_VSA10>  (26) 
6.606882

>  <PEOE_VSA11>  (26) 
11.866245

>  <PEOE_VSA12>  (26) 
0.0

>  <PEOE_VSA13>  (26) 
0.0

>  <PEOE_VSA14>  (26) 
0.0

>  <PEOE_VSA2>  (26) 
0.0

>  <PEOE_VSA3>  (26) 
4.983979

>  <PEOE_VSA4>  (26) 
0.0

>  <PEOE_VSA5>  (26) 
11.336786

>  <PEOE_VSA6>  (26) 
11.60094

>  <PEOE_VSA7>  (26) 
12.132734

>  <PEOE_VSA8>  (26) 
0.0

>  <PEOE_VSA9>  (26) 
34.255886

>  <SMR_VSA1>  (26) 
10.053652

>  <SMR_VSA10>  (26) 
22.937726

>  <SMR_VSA2>  (26) 
0.0

>  <SMR_VSA3>  (26) 
9.967957

>  <SMR_VSA4>  (26) 
0.0

>  <SMR_VSA5>  (26) 
6.041841

>  <SMR_VSA6>  (26) 
19.75852

>  <SMR_VSA7>  (26) 
28.490311

>  <SMR_VSA8>  (26) 
0.0

>  <SMR_VSA9>  (26) 
10.571075

>  <SlogP_VSA1>  (26) 
5.316789

>  <SlogP_VSA10>  (26) 
0.0

>  <SlogP_VSA11>  (26) 
0.0

>  <SlogP_VSA12>  (26) 
22.937726

>  <SlogP_VSA2>  (26) 
29.726477

>  <SlogP_VSA3>  (26) 
4.736863

>  <SlogP_VSA4>  (26) 
0.0

>  <SlogP_VSA5>  (26) 
11.866245

>  <SlogP_VSA6>  (26) 
18.329578

>  <SlogP_VSA7>  (26) 
4.336329

>  <SlogP_VSA8>  (26) 
10.571075

>  <SlogP_VSA9>  (26) 
0.0

>  <EState_VSA1>  (26) 
0.0

>  <EState_VSA10>  (26) 
0.0

>  <EState_VSA11>  (26) 
0.0

>  <EState_VSA2>  (26) 
6.041841

>  <EState_VSA3>  (26) 
0.0

>  <EState_VSA4>  (26) 
40.490329

>  <EState_VSA5>  (26) 
0.0

>  <EState_VSA6>  (26) 
11.336786

>  <EState_VSA7>  (26) 
18.329578

>  <EState_VSA8>  (26) 
15.284746

>  <EState_VSA9>  (26) 
16.337803

>  <VSA_EState1>  (26) 
6.240928

>  <VSA_EState10>  (26) 
7.477388

>  <VSA_EState2>  (26) 
8.880375

>  <VSA_EState3>  (26) 
2.257454

>  <VSA_EState4>  (26) 
1.023957

>  <VSA_EState5>  (26) 
0.976132

>  <VSA_EState6>  (26) 
4.191168

>  <VSA_EState7>  (26) 
1.861053

>  <VSA_EState8>  (26) 
2.53599

>  <VSA_EState9>  (26) 
0.0

>  <FractionCSP3>  (26) 
0.363636

>  <HeavyAtomCount>  (26) 
17

>  <NHOHCount>  (26) 
3

>  <NOCount>  (26) 
4

>  <NumAliphaticCarbocycles>  (26) 
0

>  <NumAliphaticHeterocycles>  (26) 
1

>  <NumAliphaticRings>  (26) 
1

>  <NumAromaticCarbocycles>  (26) 
0

>  <NumAromaticHeterocycles>  (26) 
2

>  <NAR>  (26) 
2

>  <NumHAcceptors>  (26) 
3

>  <NumHDonors>  (26) 
2

>  <NumHeteroatoms>  (26) 
6

>  <NumRotatableBonds>  (26) 
2

>  <NumSaturatedCarbocycles>  (26) 
0

>  <NumSaturatedHeterocycles>  (26) 
1

>  <NumSaturatedRings>  (26) 
1

>  <RingCount>  (26) 
3

>  <MolLogP>  (26) 
1.4263

>  <MolMR>  (26) 
67.2631

>  <fr_Al_COO>  (26) 
0

>  <fr_Al_OH>  (26) 
0

>  <fr_Al_OH_noTert>  (26) 
0

>  <fr_ArN>  (26) 
0

>  <fr_Ar_COO>  (26) 
0

>  <fr_Ar_N>  (26) 
2

>  <fr_Ar_NH>  (26) 
1

>  <fr_Ar_OH>  (26) 
0

>  <fr_COO>  (26) 
0

>  <fr_COO2>  (26) 
0

>  <fr_C_O>  (26) 
0

>  <fr_C_O_noCOO>  (26) 
0

>  <fr_C_S>  (26) 
0

>  <fr_HOCCN>  (26) 
0

>  <fr_Imine>  (26) 
0

>  <fr_NH0>  (26) 
1

>  <fr_NH1>  (26) 
1

>  <fr_NH2>  (26) 
1

>  <fr_N_O>  (26) 
0

>  <fr_Ndealkylation1>  (26) 
0

>  <fr_Ndealkylation2>  (26) 
0

>  <fr_Nhpyrrole>  (26) 
1

>  <fr_SH>  (26) 
0

>  <fr_aldehyde>  (26) 
0

>  <fr_alkyl_carbamate>  (26) 
0

>  <fr_alkyl_halide>  (26) 
0

>  <fr_allylic_oxid>  (26) 
0

>  <fr_amide>  (26) 
0

>  <fr_amidine>  (26) 
0

>  <fr_aniline>  (26) 
0

>  <fr_aryl_methyl>  (26) 
0

>  <fr_azide>  (26) 
0

>  <fr_azo>  (26) 
0

>  <fr_barbitur>  (26) 
0

>  <fr_benzene>  (26) 
0

>  <fr_benzodiazepine>  (26) 
0

>  <fr_bicyclic>  (26) 
0

>  <fr_diazo>  (26) 
0

>  <fr_dihydropyridine>  (26) 
0

>  <fr_epoxide>  (26) 
0

>  <fr_ester>  (26) 
0

>  <fr_ether>  (26) 
1

>  <fr_furan>  (26) 
0

>  <fr_guanido>  (26) 
0

>  <fr_halogen>  (26) 
1

>  <fr_hdrzine>  (26) 
0

>  <fr_hdrzone>  (26) 
0

>  <fr_imidazole>  (26) 
1

>  <fr_imide>  (26) 
0

>  <fr_isocyan>  (26) 
0

>  <fr_isothiocyan>  (26) 
0

>  <fr_ketone>  (26) 
0

>  <fr_ketone_Topliss>  (26) 
0

>  <fr_lactam>  (26) 
0

>  <fr_lactone>  (26) 
0

>  <fr_methoxy>  (26) 
0

>  <fr_morpholine>  (26) 
1

>  <fr_nitrile>  (26) 
0

>  <fr_nitro>  (26) 
0

>  <fr_nitro_arom>  (26) 
0

>  <fr_nitro_arom_nonortho>  (26) 
0

>  <fr_nitroso>  (26) 
0

>  <fr_oxazole>  (26) 
0

>  <fr_oxime>  (26) 
0

>  <fr_para_hydroxylation>  (26) 
0

>  <fr_phenol>  (26) 
0

>  <fr_phenol_noOrthoHbond>  (26) 
0

>  <fr_phos_acid>  (26) 
0

>  <fr_phos_ester>  (26) 
0

>  <fr_piperdine>  (26) 
0

>  <fr_piperzine>  (26) 
0

>  <fr_priamide>  (26) 
0

>  <fr_prisulfonamd>  (26) 
0

>  <fr_pyridine>  (26) 
0

>  <fr_quatN>  (26) 
1

>  <fr_sulfide>  (26) 
0

>  <fr_sulfonamd>  (26) 
0

>  <fr_sulfone>  (26) 
0

>  <fr_term_acetylene>  (26) 
0

>  <fr_tetrazole>  (26) 
0

>  <fr_thiazole>  (26) 
0

>  <fr_thiocyan>  (26) 
0

>  <fr_thiophene>  (26) 
1

>  <fr_unbrch_alkane>  (26) 
0

>  <fr_urea>  (26) 
0

>  <NP-Likeness>  (26) 
-1.171177

$$$$
F145
     RDKit          3D

  0  0  0  0  0  0  0  0  0  0999 V3000
M  V30 BEGIN CTAB
M  V30 COUNTS 30 32 0 0 0
M  V30 BEGIN ATOM
M  V30 1 C 3.856470 -3.369320 3.430262 0
M  V30 2 C 4.932752 -3.691934 2.561548 0
M  V30 3 Cl 6.448415 -4.595478 3.135342 0
M  V30 4 S 4.334218 -2.978516 0.908312 0
M  V30 5 C 2.823025 -2.386159 1.570461 0
M  V30 6 C 1.879620 -1.694196 0.694926 0
M  V30 7 C 2.053741 -1.445629 -0.648821 0
M  V30 8 N 0.930977 -0.780746 -1.056167 0
M  V30 9 C 0.085860 -0.621535 0.002442 0
M  V30 10 C -1.241173 0.029341 0.060936 0 CFG=2
M  V30 11 C -1.493805 0.793338 -1.206186 0
M  V30 12 O -2.616786 1.613863 -1.072547 0
M  V30 13 C -3.448904 1.197744 -0.037164 0
M  V30 14 C -2.741298 1.295936 1.311935 0
M  V30 15 N -1.371364 0.895683 1.217281 0 CHG=1 VAL=4
M  V30 16 N 0.683357 -1.186573 1.064174 0
M  V30 17 C 2.825391 -2.709175 2.857962 0
M  V30 18 H 3.920144 -3.660766 4.468477 0
M  V30 19 H 2.860116 -1.687917 -1.297346 0
M  V30 20 H 0.740891 -0.444022 -2.021917 0
M  V30 21 H -1.985045 -0.783885 0.118093 0
M  V30 22 H -1.554653 0.106313 -2.061255 0
M  V30 23 H -0.645618 1.481682 -1.375271 0
M  V30 24 H -3.755571 0.161490 -0.256439 0
M  V30 25 H -4.299118 1.895388 -0.002035 0
M  V30 26 H -2.877244 2.321897 1.697035 0
M  V30 27 H -3.314817 0.610144 1.996159 0
M  V30 28 H -1.061958 0.329160 2.050430 0
M  V30 29 H -0.712007 1.694589 1.057964 0
M  V30 30 H 1.947260 -2.407857 3.414313 0
M  V30 END ATOM
M  V30 BEGIN BOND
M  V30 1 2 1 2
M  V30 2 1 2 3
M  V30 3 1 2 4
M  V30 4 1 4 5
M  V30 5 1 5 6
M  V30 6 2 6 7
M  V30 7 1 7 8
M  V30 8 1 8 9
M  V30 9 1 9 10
M  V30 10 1 10 11
M  V30 11 1 11 12
M  V30 12 1 12 13
M  V30 13 1 13 14
M  V30 14 1 14 15
M  V30 15 2 9 16
M  V30 16 2 5 17
M  V30 17 1 17 1
M  V30 18 1 16 6
M  V30 19 1 15 10
M  V30 20 1 1 18
M  V30 21 1 7 19
M  V30 22 1 8 20
M  V30 23 1 10 21 CFG=1
M  V30 24 1 11 22
M  V30 25 1 11 23
M  V30 26 1 13 24
M  V30 27 1 13 25
M  V30 28 1 14 26
M  V30 29 1 14 27
M  V30 30 1 15 28
M  V30 31 1 15 29
M  V30 32 1 17 30
M  V30 END BOND
M  V30 END CTAB
M  END
>  <Dataset>  (27) 
CF

>  <Ligand_Instance>  (27) 
145_B_6

>  <PDB_ID>  (27) 
nan

>  <Standardized_SMILES>  (27) 
[H]C1=C(Cl)SC(C2=C([H])N([H])C([C@]3([H])C([H])([H])OC([H])([H])C([H])([H])[N+]3([H])[H])=N2)=C1[H]

>  <Name>  (27) 
(3R)‐3‐[4‐(5‐chlorothiophen‐2‐yl)‐1H‐imidazol‐2‐yl]morpholine

>  <Pocket>  (27) 
X

>  <ATP_Site>  (27) 
1.0

>  <Peripheral>  (27) 
1.0

>  <Num_H_Atoms_ProtBoundConf>  (27) 
13.0

>  <Num_Resolved_Atoms>  (27) 
17.0

>  <Num_Not_Resolved_Atoms>  (27) 
0.0

>  <2D_Mol_H>  (27) 
<rdkit.Chem.rdchem.Mol object at 0x72a238db4c80>

>  <MW>  (27) 
270.765

>  <HBA>  (27) 
3

>  <HBD>  (27) 
2

>  <LogP>  (27) 
1.4263

>  <NRB>  (27) 
2

>  <TPSA>  (27) 
54.52

>  <Num_Heavy_Atoms>  (27) 
17

>  <Ro5>  (27) 
[True, True, True, True, True, True]

>  <Ro5_Fulfilled>  (27) 
True

>  <Ro3>  (27) 
[True, True, True, True]

>  <Ro3_Fulfilled>  (27) 
True

>  <Fsp3>  (27) 
0.363636

>  <Fsp3_0.42>  (27) 
False

>  <Fsp3_0.45>  (27) 
False

>  <Stereogenic_Carbons>  (27) 
1

>  <C_Atoms>  (27) 
11

>  <FCStereo>  (27) 
0.090909

>  <SPS>  (27) 
351

>  <nSPS>  (27) 
20.647059

>  <PBF>  (27) 
0.391046

>  <PBF_0.6>  (27) 
False

>  <nPBF>  (27) 
0.023003

>  <nPBF_0.016>  (27) 
True

>  <PMI1>  (27) 
319.830139

>  <PMI2>  (27) 
4110.637383

>  <PMI3>  (27) 
4389.112913

>  <NPR1>  (27) 
0.072869

>  <NPR2>  (27) 
0.936553

>  <Sum_NPR>  (27) 
1.009422

>  <Sum_NPR_1.07>  (27) 
False

>  <Sum_NPR_1.2>  (27) 
False

>  <MaxAbsEStateIndex>  (27) 
5.920153

>  <MaxEStateIndex>  (27) 
5.920153

>  <MinAbsEStateIndex>  (27) 
0.285124

>  <MinEStateIndex>  (27) 
0.285124

>  <qed>  (27) 
0.867375

>  <MolWt>  (27) 
270.765

>  <HeavyAtomMolWt>  (27) 
257.661

>  <ExactMolWt>  (27) 
270.046237

>  <NumValenceElectrons>  (27) 
90

>  <NumRadicalElectrons>  (27) 
0

>  <MaxPartialCharge>  (27) 
0.167969

>  <MinPartialCharge>  (27) 
-0.368901

>  <MaxAbsPartialCharge>  (27) 
0.368901

>  <MinAbsPartialCharge>  (27) 
0.167969

>  <FpDensityMorgan1>  (27) 
1.529412

>  <FpDensityMorgan2>  (27) 
2.470588

>  <FpDensityMorgan3>  (27) 
3.176471

>  <BCUT2D_MWHI>  (27) 
35.496017

>  <BCUT2D_MWLOW>  (27) 
10.24806

>  <BCUT2D_CHGHI>  (27) 
2.219583

>  <BCUT2D_CHGLO>  (27) 
-2.178378

>  <BCUT2D_LOGPHI>  (27) 
2.295943

>  <BCUT2D_LOGPLOW>  (27) 
-2.886169

>  <BCUT2D_MRHI>  (27) 
7.188484

>  <BCUT2D_MRLOW>  (27) 
-0.712322

>  <AvgIpc>  (27) 
2.98278

>  <BalabanJ>  (27) 
1.818531

>  <BertzCT>  (27) 
504.294546

>  <Chi0>  (27) 
11.664926

>  <Chi0n>  (27) 
9.149746

>  <Chi0v>  (27) 
10.722172

>  <Chi1>  (27) 
8.3265

>  <Chi1n>  (27) 
5.548333

>  <Chi1v>  (27) 
6.742794

>  <Chi2n>  (27) 
3.980503

>  <Chi2v>  (27) 
5.695587

>  <Chi3n>  (27) 
2.785328

>  <Chi3v>  (27) 
4.038991

>  <Chi4n>  (27) 
1.926214

>  <Chi4v>  (27) 
2.929957

>  <HallKierAlpha>  (27) 
-0.88

>  <Ipc>  (27) 
18051.785047

>  <Kappa1>  (27) 
11.224118

>  <Kappa2>  (27) 
4.777293

>  <Kappa3>  (27) 
2.372678

>  <LabuteASA>  (27) 
107.97828

>  <PEOE_VSA1>  (27) 
15.03763

>  <PEOE_VSA10>  (27) 
6.606882

>  <PEOE_VSA11>  (27) 
11.866245

>  <PEOE_VSA12>  (27) 
0.0

>  <PEOE_VSA13>  (27) 
0.0

>  <PEOE_VSA14>  (27) 
0.0

>  <PEOE_VSA2>  (27) 
0.0

>  <PEOE_VSA3>  (27) 
4.983979

>  <PEOE_VSA4>  (27) 
0.0

>  <PEOE_VSA5>  (27) 
11.336786

>  <PEOE_VSA6>  (27) 
11.60094

>  <PEOE_VSA7>  (27) 
12.132734

>  <PEOE_VSA8>  (27) 
6.196844

>  <PEOE_VSA9>  (27) 
28.059043

>  <SMR_VSA1>  (27) 
10.053652

>  <SMR_VSA10>  (27) 
22.937726

>  <SMR_VSA2>  (27) 
0.0

>  <SMR_VSA3>  (27) 
9.967957

>  <SMR_VSA4>  (27) 
0.0

>  <SMR_VSA5>  (27) 
6.041841

>  <SMR_VSA6>  (27) 
19.75852

>  <SMR_VSA7>  (27) 
28.490311

>  <SMR_VSA8>  (27) 
0.0

>  <SMR_VSA9>  (27) 
10.571075

>  <SlogP_VSA1>  (27) 
5.316789

>  <SlogP_VSA10>  (27) 
0.0

>  <SlogP_VSA11>  (27) 
0.0

>  <SlogP_VSA12>  (27) 
22.937726

>  <SlogP_VSA2>  (27) 
29.726477

>  <SlogP_VSA3>  (27) 
4.736863

>  <SlogP_VSA4>  (27) 
0.0

>  <SlogP_VSA5>  (27) 
11.866245

>  <SlogP_VSA6>  (27) 
18.329578

>  <SlogP_VSA7>  (27) 
4.336329

>  <SlogP_VSA8>  (27) 
10.571075

>  <SlogP_VSA9>  (27) 
0.0

>  <EState_VSA1>  (27) 
0.0

>  <EState_VSA10>  (27) 
0.0

>  <EState_VSA11>  (27) 
0.0

>  <EState_VSA2>  (27) 
6.041841

>  <EState_VSA3>  (27) 
0.0

>  <EState_VSA4>  (27) 
40.490329

>  <EState_VSA5>  (27) 
0.0

>  <EState_VSA6>  (27) 
11.336786

>  <EState_VSA7>  (27) 
18.329578

>  <EState_VSA8>  (27) 
15.284746

>  <EState_VSA9>  (27) 
16.337803

>  <VSA_EState1>  (27) 
6.234817

>  <VSA_EState10>  (27) 
7.462453

>  <VSA_EState2>  (27) 
8.918782

>  <VSA_EState3>  (27) 
2.257454

>  <VSA_EState4>  (27) 
0.954512

>  <VSA_EState5>  (27) 
0.976132

>  <VSA_EState6>  (27) 
4.173806

>  <VSA_EState7>  (27) 
1.930497

>  <VSA_EState8>  (27) 
2.53599

>  <VSA_EState9>  (27) 
0.0

>  <FractionCSP3>  (27) 
0.363636

>  <HeavyAtomCount>  (27) 
17

>  <NHOHCount>  (27) 
3

>  <NOCount>  (27) 
4

>  <NumAliphaticCarbocycles>  (27) 
0

>  <NumAliphaticHeterocycles>  (27) 
1

>  <NumAliphaticRings>  (27) 
1

>  <NumAromaticCarbocycles>  (27) 
0

>  <NumAromaticHeterocycles>  (27) 
2

>  <NAR>  (27) 
2

>  <NumHAcceptors>  (27) 
3

>  <NumHDonors>  (27) 
2

>  <NumHeteroatoms>  (27) 
6

>  <NumRotatableBonds>  (27) 
2

>  <NumSaturatedCarbocycles>  (27) 
0

>  <NumSaturatedHeterocycles>  (27) 
1

>  <NumSaturatedRings>  (27) 
1

>  <RingCount>  (27) 
3

>  <MolLogP>  (27) 
1.4263

>  <MolMR>  (27) 
67.2631

>  <fr_Al_COO>  (27) 
0

>  <fr_Al_OH>  (27) 
0

>  <fr_Al_OH_noTert>  (27) 
0

>  <fr_ArN>  (27) 
0

>  <fr_Ar_COO>  (27) 
0

>  <fr_Ar_N>  (27) 
2

>  <fr_Ar_NH>  (27) 
1

>  <fr_Ar_OH>  (27) 
0

>  <fr_COO>  (27) 
0

>  <fr_COO2>  (27) 
0

>  <fr_C_O>  (27) 
0

>  <fr_C_O_noCOO>  (27) 
0

>  <fr_C_S>  (27) 
0

>  <fr_HOCCN>  (27) 
0

>  <fr_Imine>  (27) 
0

>  <fr_NH0>  (27) 
1

>  <fr_NH1>  (27) 
1

>  <fr_NH2>  (27) 
1

>  <fr_N_O>  (27) 
0

>  <fr_Ndealkylation1>  (27) 
0

>  <fr_Ndealkylation2>  (27) 
0

>  <fr_Nhpyrrole>  (27) 
1

>  <fr_SH>  (27) 
0

>  <fr_aldehyde>  (27) 
0

>  <fr_alkyl_carbamate>  (27) 
0

>  <fr_alkyl_halide>  (27) 
0

>  <fr_allylic_oxid>  (27) 
0

>  <fr_amide>  (27) 
0

>  <fr_amidine>  (27) 
0

>  <fr_aniline>  (27) 
0

>  <fr_aryl_methyl>  (27) 
0

>  <fr_azide>  (27) 
0

>  <fr_azo>  (27) 
0

>  <fr_barbitur>  (27) 
0

>  <fr_benzene>  (27) 
0

>  <fr_benzodiazepine>  (27) 
0

>  <fr_bicyclic>  (27) 
0

>  <fr_diazo>  (27) 
0

>  <fr_dihydropyridine>  (27) 
0

>  <fr_epoxide>  (27) 
0

>  <fr_ester>  (27) 
0

>  <fr_ether>  (27) 
1

>  <fr_furan>  (27) 
0

>  <fr_guanido>  (27) 
0

>  <fr_halogen>  (27) 
1

>  <fr_hdrzine>  (27) 
0

>  <fr_hdrzone>  (27) 
0

>  <fr_imidazole>  (27) 
1

>  <fr_imide>  (27) 
0

>  <fr_isocyan>  (27) 
0

>  <fr_isothiocyan>  (27) 
0

>  <fr_ketone>  (27) 
0

>  <fr_ketone_Topliss>  (27) 
0

>  <fr_lactam>  (27) 
0

>  <fr_lactone>  (27) 
0

>  <fr_methoxy>  (27) 
0

>  <fr_morpholine>  (27) 
1

>  <fr_nitrile>  (27) 
0

>  <fr_nitro>  (27) 
0

>  <fr_nitro_arom>  (27) 
0

>  <fr_nitro_arom_nonortho>  (27) 
0

>  <fr_nitroso>  (27) 
0

>  <fr_oxazole>  (27) 
0

>  <fr_oxime>  (27) 
0

>  <fr_para_hydroxylation>  (27) 
0

>  <fr_phenol>  (27) 
0

>  <fr_phenol_noOrthoHbond>  (27) 
0

>  <fr_phos_acid>  (27) 
0

>  <fr_phos_ester>  (27) 
0

>  <fr_piperdine>  (27) 
0

>  <fr_piperzine>  (27) 
0

>  <fr_priamide>  (27) 
0

>  <fr_prisulfonamd>  (27) 
0

>  <fr_pyridine>  (27) 
0

>  <fr_quatN>  (27) 
1

>  <fr_sulfide>  (27) 
0

>  <fr_sulfonamd>  (27) 
0

>  <fr_sulfone>  (27) 
0

>  <fr_term_acetylene>  (27) 
0

>  <fr_tetrazole>  (27) 
0

>  <fr_thiazole>  (27) 
0

>  <fr_thiocyan>  (27) 
0

>  <fr_thiophene>  (27) 
1

>  <fr_unbrch_alkane>  (27) 
0

>  <fr_urea>  (27) 
0

>  <NP-Likeness>  (27) 
-1.284483

$$$$
F168
     RDKit          3D

  0  0  0  0  0  0  0  0  0  0999 V3000
M  V30 BEGIN CTAB
M  V30 COUNTS 42 44 0 0 0
M  V30 BEGIN ATOM
M  V30 1 O -0.817441 -4.029498 3.937918 0
M  V30 2 C -0.037631 -3.476837 2.901919 0 CFG=1
M  V30 3 C 0.915868 -4.544052 2.402704 0
M  V30 4 C 1.456341 -4.178041 1.037995 0
M  V30 5 C 0.968233 -2.773121 0.723282 0 CFG=1
M  V30 6 C 1.637390 -2.234581 -0.522196 0
M  V30 7 C 1.192924 -0.868760 -0.867838 0
M  V30 8 N 0.138267 -0.609693 -1.674365 0
M  V30 9 O -0.001752 0.696515 -1.787312 0
M  V30 10 C 0.915692 1.317220 -1.089623 0
M  V30 11 C 1.033340 2.770631 -1.006499 0
M  V30 12 C 0.120302 3.533494 -1.707105 0
M  V30 13 C 0.155545 4.922775 -1.686677 0
M  V30 14 C 1.149731 5.479962 -0.930270 0
M  V30 15 C 2.072900 4.753217 -0.222099 0
M  V30 16 C 2.021377 3.373996 -0.255005 0
M  V30 17 C 1.700621 0.355898 -0.485816 0
M  V30 18 O -0.400625 -2.776204 0.611599 0
M  V30 19 C -0.992662 -3.189575 1.774968 0 CFG=2
M  V30 20 C -2.032453 -2.210153 2.288159 0
M  V30 21 N -1.417370 -0.922286 2.547461 0 CHG=1 VAL=4
M  V30 22 H -0.980354 -3.377040 4.673339 0
M  V30 23 H 0.448554 -2.602406 3.334734 0
M  V30 24 H 1.726465 -4.689470 3.147513 0
M  V30 25 H 0.321801 -5.490664 2.335038 0
M  V30 26 H 1.064221 -4.853893 0.250758 0
M  V30 27 H 2.573888 -4.166251 1.031108 0
M  V30 28 H 1.246524 -2.065072 1.535216 0
M  V30 29 H 2.734735 -2.171771 -0.374897 0
M  V30 30 H 1.477138 -2.901988 -1.385735 0
M  V30 31 H -0.668563 3.079457 -2.307233 0
M  V30 32 H -0.586988 5.479490 -2.256167 0
M  V30 33 H 1.191454 6.574844 -0.903519 0
M  V30 34 H 2.805868 5.296533 0.334947 0
M  V30 35 H 2.741610 2.779050 0.297625 0
M  V30 36 H 2.534746 0.512441 0.150411 0
M  V30 37 H -1.558019 -4.154037 1.618141 0
M  V30 38 H -2.836391 -2.024235 1.548334 0
M  V30 39 H -2.438471 -2.568006 3.236643 0
M  V30 40 H -0.733877 -0.732080 1.784931 0
M  V30 41 H -0.852551 -0.954661 3.441748 0
M  V30 42 H -2.125493 -0.153693 2.547579 0
M  V30 END ATOM
M  V30 BEGIN BOND
M  V30 1 1 1 2
M  V30 2 1 2 3
M  V30 3 1 3 4
M  V30 4 1 4 5
M  V30 5 1 5 6
M  V30 6 1 6 7
M  V30 7 2 7 8
M  V30 8 1 8 9
M  V30 9 1 9 10
M  V30 10 1 10 11
M  V30 11 2 11 12
M  V30 12 1 12 13
M  V30 13 2 13 14
M  V30 14 1 14 15
M  V30 15 2 15 16
M  V30 16 2 10 17
M  V30 17 1 5 18
M  V30 18 1 18 19
M  V30 19 1 19 20
M  V30 20 1 20 21
M  V30 21 1 19 2
M  V30 22 1 17 7
M  V30 23 1 16 11
M  V30 24 1 1 22
M  V30 25 1 2 23 CFG=1
M  V30 26 1 3 24
M  V30 27 1 3 25
M  V30 28 1 4 26
M  V30 29 1 4 27
M  V30 30 1 5 28 CFG=1
M  V30 31 1 6 29
M  V30 32 1 6 30
M  V30 33 1 12 31
M  V30 34 1 13 32
M  V30 35 1 14 33
M  V30 36 1 15 34
M  V30 37 1 16 35
M  V30 38 1 17 36
M  V30 39 1 19 37 CFG=3
M  V30 40 1 20 38
M  V30 41 1 20 39
M  V30 42 1 21 40
M  V30 43 1 21 41
M  V30 44 1 21 42
M  V30 END BOND
M  V30 END CTAB
M  END
>  <Dataset>  (28) 
CF

>  <Ligand_Instance>  (28) 
168_B_4

>  <PDB_ID>  (28) 
nan

>  <Standardized_SMILES>  (28) 
[H]O[C@@]1([H])C([H])([H])C([H])([H])[C@@]([H])(C([H])([H])C2=NOC(C3=C([H])C([H])=C([H])C([H])=C3[H])=C2[H])O[C@]1([H])C([H])([H])[N+]([H])([H])[H]

>  <Name>  (28) 
(2R,3S,6S)‐2‐(aminomethyl)‐6‐[(5‐phenyl‐1,2‐oxazol‐3‐yl)methyl]oxan‐3‐ol

>  <Pocket>  (28) 
X

>  <ATP_Site>  (28) 
1.0

>  <Peripheral>  (28) 
1.0

>  <Num_H_Atoms_ProtBoundConf>  (28) 
21.0

>  <Num_Resolved_Atoms>  (28) 
21.0

>  <Num_Not_Resolved_Atoms>  (28) 
0.0

>  <2D_Mol_H>  (28) 
<rdkit.Chem.rdchem.Mol object at 0x72a238db4d60>

>  <MW>  (28) 
289.355

>  <HBA>  (28) 
4

>  <HBD>  (28) 
2

>  <LogP>  (28) 
1.0345

>  <NRB>  (28) 
6

>  <TPSA>  (28) 
83.13

>  <Num_Heavy_Atoms>  (28) 
21

>  <Ro5>  (28) 
[True, True, True, True, True, True]

>  <Ro5_Fulfilled>  (28) 
True

>  <Ro3>  (28) 
[True, False, True, True]

>  <Ro3_Fulfilled>  (28) 
True

>  <Fsp3>  (28) 
0.4375

>  <Fsp3_0.42>  (28) 
True

>  <Fsp3_0.45>  (28) 
False

>  <Stereogenic_Carbons>  (28) 
3

>  <C_Atoms>  (28) 
16

>  <FCStereo>  (28) 
0.1875

>  <SPS>  (28) 
544

>  <nSPS>  (28) 
25.904762

>  <PBF>  (28) 
0.949066

>  <PBF_0.6>  (28) 
True

>  <nPBF>  (28) 
0.045194

>  <nPBF_0.016>  (28) 
True

>  <PMI1>  (28) 
735.232848

>  <PMI2>  (28) 
3746.500643

>  <PMI3>  (28) 
3971.406419

>  <NPR1>  (28) 
0.185132

>  <NPR2>  (28) 
0.943369

>  <Sum_NPR>  (28) 
1.1285

>  <Sum_NPR_1.07>  (28) 
True

>  <Sum_NPR_1.2>  (28) 
False

>  <MaxAbsEStateIndex>  (28) 
9.806448

>  <MaxEStateIndex>  (28) 
9.806448

>  <MinAbsEStateIndex>  (28) 
0.077661

>  <MinEStateIndex>  (28) 
-0.392649

>  <qed>  (28) 
0.880496

>  <MolWt>  (28) 
289.355

>  <HeavyAtomMolWt>  (28) 
268.187

>  <ExactMolWt>  (28) 
289.154669

>  <NumValenceElectrons>  (28) 
112

>  <NumRadicalElectrons>  (28) 
0

>  <MaxPartialCharge>  (28) 
0.166616

>  <MinPartialCharge>  (28) 
-0.390177

>  <MaxAbsPartialCharge>  (28) 
0.390177

>  <MinAbsPartialCharge>  (28) 
0.166616

>  <FpDensityMorgan1>  (28) 
1.238095

>  <FpDensityMorgan2>  (28) 
2.047619

>  <FpDensityMorgan3>  (28) 
2.809524

>  <BCUT2D_MWHI>  (28) 
16.514082

>  <BCUT2D_MWLOW>  (28) 
9.979357

>  <BCUT2D_CHGHI>  (28) 
2.302648

>  <BCUT2D_CHGLO>  (28) 
-2.312696

>  <BCUT2D_LOGPHI>  (28) 
2.242187

>  <BCUT2D_LOGPLOW>  (28) 
-2.604998

>  <BCUT2D_MRHI>  (28) 
5.563728

>  <BCUT2D_MRLOW>  (28) 
-0.396025

>  <AvgIpc>  (28) 
2.98453

>  <BalabanJ>  (28) 
1.650037

>  <BertzCT>  (28) 
569.910883

>  <Chi0>  (28) 
14.65649

>  <Chi0n>  (28) 
11.94261

>  <Chi0v>  (28) 
11.94261

>  <Chi1>  (28) 
10.258351

>  <Chi1n>  (28) 
7.397822

>  <Chi1v>  (28) 
7.397822

>  <Chi2n>  (28) 
5.482566

>  <Chi2v>  (28) 
5.482566

>  <Chi3n>  (28) 
3.919396

>  <Chi3v>  (28) 
3.919396

>  <Chi4n>  (28) 
2.73882

>  <Chi4v>  (28) 
2.73882

>  <HallKierAlpha>  (28) 
-1.69

>  <Ipc>  (28) 
111633.376912

>  <Kappa1>  (28) 
14.255815

>  <Kappa2>  (28) 
6.386322

>  <Kappa3>  (28) 
3.31873

>  <LabuteASA>  (28) 
123.250264

>  <PEOE_VSA1>  (28) 
20.100153

>  <PEOE_VSA10>  (28) 
12.648723

>  <PEOE_VSA11>  (28) 
5.760247

>  <PEOE_VSA12>  (28) 
0.0

>  <PEOE_VSA13>  (28) 
0.0

>  <PEOE_VSA14>  (28) 
0.0

>  <PEOE_VSA2>  (28) 
0.0

>  <PEOE_VSA3>  (28) 
0.0

>  <PEOE_VSA4>  (28) 
0.0

>  <PEOE_VSA5>  (28) 
0.0

>  <PEOE_VSA6>  (28) 
35.488499

>  <PEOE_VSA7>  (28) 
12.841643

>  <PEOE_VSA8>  (28) 
18.05064

>  <PEOE_VSA9>  (28) 
17.901861

>  <SMR_VSA1>  (28) 
20.100153

>  <SMR_VSA10>  (28) 
0.0

>  <SMR_VSA2>  (28) 
0.0

>  <SMR_VSA3>  (28) 
5.156663

>  <SMR_VSA4>  (28) 
0.0

>  <SMR_VSA5>  (28) 
37.574364

>  <SMR_VSA6>  (28) 
6.544756

>  <SMR_VSA7>  (28) 
42.09213

>  <SMR_VSA8>  (28) 
0.0

>  <SMR_VSA9>  (28) 
11.323699

>  <SlogP_VSA1>  (28) 
5.733667

>  <SlogP_VSA10>  (28) 
0.0

>  <SlogP_VSA11>  (28) 
0.0

>  <SlogP_VSA12>  (28) 
0.0

>  <SlogP_VSA2>  (28) 
35.119846

>  <SlogP_VSA3>  (28) 
11.157685

>  <SlogP_VSA4>  (28) 
0.0

>  <SlogP_VSA5>  (28) 
18.535571

>  <SlogP_VSA6>  (28) 
40.921297

>  <SlogP_VSA7>  (28) 
0.0

>  <SlogP_VSA8>  (28) 
11.323699

>  <SlogP_VSA9>  (28) 
0.0

>  <EState_VSA1>  (28) 
6.103966

>  <EState_VSA10>  (28) 
5.106527

>  <EState_VSA11>  (28) 
0.0

>  <EState_VSA2>  (28) 
12.207933

>  <EState_VSA3>  (28) 
12.965578

>  <EState_VSA4>  (28) 
29.85927

>  <EState_VSA5>  (28) 
0.0

>  <EState_VSA6>  (28) 
0.0

>  <EState_VSA7>  (28) 
36.398202

>  <EState_VSA8>  (28) 
10.890331

>  <EState_VSA9>  (28) 
9.259958

>  <VSA_EState1>  (28) 
11.27182

>  <VSA_EState10>  (28) 
0.0

>  <VSA_EState2>  (28) 
0.0

>  <VSA_EState3>  (28) 
13.929884

>  <VSA_EState4>  (28) 
5.733232

>  <VSA_EState5>  (28) 
0.773289

>  <VSA_EState6>  (28) 
11.875903

>  <VSA_EState7>  (28) 
1.826836

>  <VSA_EState8>  (28) 
0.589035

>  <VSA_EState9>  (28) 
0.0

>  <FractionCSP3>  (28) 
0.4375

>  <HeavyAtomCount>  (28) 
21

>  <NHOHCount>  (28) 
4

>  <NOCount>  (28) 
5

>  <NumAliphaticCarbocycles>  (28) 
0

>  <NumAliphaticHeterocycles>  (28) 
1

>  <NumAliphaticRings>  (28) 
1

>  <NumAromaticCarbocycles>  (28) 
1

>  <NumAromaticHeterocycles>  (28) 
1

>  <NAR>  (28) 
2

>  <NumHAcceptors>  (28) 
4

>  <NumHDonors>  (28) 
2

>  <NumHeteroatoms>  (28) 
5

>  <NumRotatableBonds>  (28) 
4

>  <NumSaturatedCarbocycles>  (28) 
0

>  <NumSaturatedHeterocycles>  (28) 
1

>  <NumSaturatedRings>  (28) 
1

>  <RingCount>  (28) 
3

>  <MolLogP>  (28) 
1.0345

>  <MolMR>  (28) 
77.2999

>  <fr_Al_COO>  (28) 
0

>  <fr_Al_OH>  (28) 
1

>  <fr_Al_OH_noTert>  (28) 
1

>  <fr_ArN>  (28) 
0

>  <fr_Ar_COO>  (28) 
0

>  <fr_Ar_N>  (28) 
1

>  <fr_Ar_NH>  (28) 
0

>  <fr_Ar_OH>  (28) 
0

>  <fr_COO>  (28) 
0

>  <fr_COO2>  (28) 
0

>  <fr_C_O>  (28) 
0

>  <fr_C_O_noCOO>  (28) 
0

>  <fr_C_S>  (28) 
0

>  <fr_HOCCN>  (28) 
0

>  <fr_Imine>  (28) 
0

>  <fr_NH0>  (28) 
1

>  <fr_NH1>  (28) 
0

>  <fr_NH2>  (28) 
0

>  <fr_N_O>  (28) 
0

>  <fr_Ndealkylation1>  (28) 
0

>  <fr_Ndealkylation2>  (28) 
0

>  <fr_Nhpyrrole>  (28) 
0

>  <fr_SH>  (28) 
0

>  <fr_aldehyde>  (28) 
0

>  <fr_alkyl_carbamate>  (28) 
0

>  <fr_alkyl_halide>  (28) 
0

>  <fr_allylic_oxid>  (28) 
0

>  <fr_amide>  (28) 
0

>  <fr_amidine>  (28) 
0

>  <fr_aniline>  (28) 
0

>  <fr_aryl_methyl>  (28) 
0

>  <fr_azide>  (28) 
0

>  <fr_azo>  (28) 
0

>  <fr_barbitur>  (28) 
0

>  <fr_benzene>  (28) 
1

>  <fr_benzodiazepine>  (28) 
0

>  <fr_bicyclic>  (28) 
0

>  <fr_diazo>  (28) 
0

>  <fr_dihydropyridine>  (28) 
0

>  <fr_epoxide>  (28) 
0

>  <fr_ester>  (28) 
0

>  <fr_ether>  (28) 
1

>  <fr_furan>  (28) 
0

>  <fr_guanido>  (28) 
0

>  <fr_halogen>  (28) 
0

>  <fr_hdrzine>  (28) 
0

>  <fr_hdrzone>  (28) 
0

>  <fr_imidazole>  (28) 
0

>  <fr_imide>  (28) 
0

>  <fr_isocyan>  (28) 
0

>  <fr_isothiocyan>  (28) 
0

>  <fr_ketone>  (28) 
0

>  <fr_ketone_Topliss>  (28) 
0

>  <fr_lactam>  (28) 
0

>  <fr_lactone>  (28) 
0

>  <fr_methoxy>  (28) 
0

>  <fr_morpholine>  (28) 
0

>  <fr_nitrile>  (28) 
0

>  <fr_nitro>  (28) 
0

>  <fr_nitro_arom>  (28) 
0

>  <fr_nitro_arom_nonortho>  (28) 
0

>  <fr_nitroso>  (28) 
0

>  <fr_oxazole>  (28) 
0

>  <fr_oxime>  (28) 
0

>  <fr_para_hydroxylation>  (28) 
0

>  <fr_phenol>  (28) 
0

>  <fr_phenol_noOrthoHbond>  (28) 
0

>  <fr_phos_acid>  (28) 
0

>  <fr_phos_ester>  (28) 
0

>  <fr_piperdine>  (28) 
0

>  <fr_piperzine>  (28) 
0

>  <fr_priamide>  (28) 
0

>  <fr_prisulfonamd>  (28) 
0

>  <fr_pyridine>  (28) 
0

>  <fr_quatN>  (28) 
1

>  <fr_sulfide>  (28) 
0

>  <fr_sulfonamd>  (28) 
0

>  <fr_sulfone>  (28) 
0

>  <fr_term_acetylene>  (28) 
0

>  <fr_tetrazole>  (28) 
0

>  <fr_thiazole>  (28) 
0

>  <fr_thiocyan>  (28) 
0

>  <fr_thiophene>  (28) 
0

>  <fr_unbrch_alkane>  (28) 
0

>  <fr_urea>  (28) 
0

>  <NP-Likeness>  (28) 
-0.013788

$$$$
F184
     RDKit          3D

  0  0  0  0  0  0  0  0  0  0999 V3000
M  V30 BEGIN CTAB
M  V30 COUNTS 38 39 0 0 0
M  V30 BEGIN ATOM
M  V30 1 O -0.932169 -1.648342 3.984337 0
M  V30 2 C -0.292532 -0.412238 3.865089 0
M  V30 3 C 0.132945 -0.275414 2.411946 0 CFG=1
M  V30 4 C 1.042883 -1.421866 2.141642 0
M  V30 5 N 1.281075 -1.738998 0.846988 0
M  V30 6 C 2.127599 -2.802673 0.803008 0
M  V30 7 C 2.676868 -3.508619 -0.361344 0
M  V30 8 O 3.464720 -4.495228 -0.159959 0
M  V30 9 O 2.275456 -3.021839 -1.609919 0
M  V30 10 C 2.694776 -3.565631 -2.850074 0
M  V30 11 C 2.384234 -3.106268 2.146092 0
M  V30 12 O 1.716894 -2.257768 2.897660 0
M  V30 13 N -1.046014 -0.335609 1.578623 0 CHG=1 VAL=4
M  V30 14 C -1.112633 0.594340 0.513725 0
M  V30 15 C -2.374476 1.441719 0.521120 0
M  V30 16 C -2.077356 2.840574 0.004924 0
M  V30 17 O -1.340546 2.761268 -1.180731 0
M  V30 18 C -0.080692 2.207472 -0.969682 0
M  V30 19 C 0.046448 1.529903 0.383105 0
M  V30 20 H -1.865042 -1.636810 3.669652 0
M  V30 21 H 0.609147 -0.462521 4.499705 0
M  V30 22 H -0.996884 0.386440 4.165029 0
M  V30 23 H 0.673768 0.686490 2.347490 0
M  V30 24 H 3.089170 -4.584746 -2.671140 0
M  V30 25 H 3.411816 -2.929932 -3.395175 0
M  V30 26 H 1.816249 -3.705998 -3.529007 0
M  V30 27 H 3.017263 -3.895722 2.541317 0
M  V30 28 H -1.914389 -0.198301 2.161763 0
M  V30 29 H -1.111041 -1.334220 1.248878 0
M  V30 30 H -1.143311 0.014351 -0.453573 0
M  V30 31 H -2.762088 1.527176 1.564901 0
M  V30 32 H -3.154958 1.025812 -0.180209 0
M  V30 33 H -1.630683 3.490493 0.760065 0
M  V30 34 H -3.051382 3.298852 -0.280394 0
M  V30 35 H 0.087639 1.417070 -1.739664 0
M  V30 36 H 0.722122 2.950873 -1.133934 0
M  V30 37 H 1.026095 1.027985 0.366205 0
M  V30 38 H 0.063746 2.316791 1.173724 0
M  V30 END ATOM
M  V30 BEGIN BOND
M  V30 1 1 1 2
M  V30 2 1 2 3
M  V30 3 1 3 4
M  V30 4 2 4 5
M  V30 5 1 5 6
M  V30 6 1 6 7
M  V30 7 2 7 8
M  V30 8 1 7 9
M  V30 9 1 9 10
M  V30 10 2 6 11
M  V30 11 1 11 12
M  V30 12 1 3 13
M  V30 13 1 13 14
M  V30 14 1 14 15
M  V30 15 1 15 16
M  V30 16 1 16 17
M  V30 17 1 17 18
M  V30 18 1 18 19
M  V30 19 1 12 4
M  V30 20 1 19 14
M  V30 21 1 1 20
M  V30 22 1 2 21
M  V30 23 1 2 22
M  V30 24 1 3 23 CFG=1
M  V30 25 1 10 24
M  V30 26 1 10 25
M  V30 27 1 10 26
M  V30 28 1 11 27
M  V30 29 1 13 28
M  V30 30 1 13 29
M  V30 31 1 14 30
M  V30 32 1 15 31
M  V30 33 1 15 32
M  V30 34 1 16 33
M  V30 35 1 16 34
M  V30 36 1 18 35
M  V30 37 1 18 36
M  V30 38 1 19 37
M  V30 39 1 19 38
M  V30 END BOND
M  V30 END CTAB
M  END
>  <Dataset>  (29) 
CF

>  <Ligand_Instance>  (29) 
184_A_401

>  <PDB_ID>  (29) 
nan

>  <Standardized_SMILES>  (29) 
[H]OC([H])([H])[C@@]([H])(C1=NC(C(=O)OC([H])([H])[H])=C([H])O1)[N+]([H])([H])C1([H])C([H])([H])C([H])([H])OC([H])([H])C1([H])[H]

>  <Name>  (29) 
methyl 2‐[(1S)‐2‐hydroxy‐1‐[(oxan‐4‐yl)amino]ethyl]‐1,3‐oxazole‐4‐carboxylate

>  <Pocket>  (29) 
A

>  <ATP_Site>  (29) 
1.0

>  <Peripheral>  (29) 
0.0

>  <Num_H_Atoms_ProtBoundConf>  (29) 
19.0

>  <Num_Resolved_Atoms>  (29) 
19.0

>  <Num_Not_Resolved_Atoms>  (29) 
0.0

>  <2D_Mol_H>  (29) 
<rdkit.Chem.rdchem.Mol object at 0x72a238db4e40>

>  <MW>  (29) 
271.293

>  <HBA>  (29) 
6

>  <HBD>  (29) 
2

>  <LogP>  (29) 
-0.763

>  <NRB>  (29) 
7

>  <TPSA>  (29) 
98.4

>  <Num_Heavy_Atoms>  (29) 
19

>  <Ro5>  (29) 
[True, True, True, True, True, True]

>  <Ro5_Fulfilled>  (29) 
True

>  <Ro3>  (29) 
[True, False, True, True]

>  <Ro3_Fulfilled>  (29) 
True

>  <Fsp3>  (29) 
0.666667

>  <Fsp3_0.42>  (29) 
True

>  <Fsp3_0.45>  (29) 
True

>  <Stereogenic_Carbons>  (29) 
1

>  <C_Atoms>  (29) 
12

>  <FCStereo>  (29) 
0.083333

>  <SPS>  (29) 
346

>  <nSPS>  (29) 
18.210526

>  <PBF>  (29) 
0.795641

>  <PBF_0.6>  (29) 
True

>  <nPBF>  (29) 
0.041876

>  <nPBF_0.016>  (29) 
True

>  <PMI1>  (29) 
1067.228087

>  <PMI2>  (29) 
2212.024067

>  <PMI3>  (29) 
3065.310776

>  <NPR1>  (29) 
0.348163

>  <NPR2>  (29) 
0.721631

>  <Sum_NPR>  (29) 
1.069794

>  <Sum_NPR_1.07>  (29) 
False

>  <Sum_NPR_1.2>  (29) 
False

>  <MaxAbsEStateIndex>  (29) 
11.293736

>  <MaxEStateIndex>  (29) 
11.293736

>  <MinAbsEStateIndex>  (29) 
0.098727

>  <MinEStateIndex>  (29) 
-0.543744

>  <qed>  (29) 
0.682848

>  <MolWt>  (29) 
271.293

>  <HeavyAtomMolWt>  (29) 
252.141

>  <ExactMolWt>  (29) 
271.128848

>  <NumValenceElectrons>  (29) 
106

>  <NumRadicalElectrons>  (29) 
0

>  <MaxPartialCharge>  (29) 
0.35954

>  <MinPartialCharge>  (29) 
-0.464203

>  <MaxAbsPartialCharge>  (29) 
0.464203

>  <MinAbsPartialCharge>  (29) 
0.35954

>  <FpDensityMorgan1>  (29) 
1.631579

>  <FpDensityMorgan2>  (29) 
2.368421

>  <FpDensityMorgan3>  (29) 
3.0

>  <BCUT2D_MWHI>  (29) 
16.525312

>  <BCUT2D_MWLOW>  (29) 
10.08417

>  <BCUT2D_CHGHI>  (29) 
2.268629

>  <BCUT2D_CHGLO>  (29) 
-2.226715

>  <BCUT2D_LOGPHI>  (29) 
2.110352

>  <BCUT2D_LOGPLOW>  (29) 
-2.917433

>  <BCUT2D_MRHI>  (29) 
5.861136

>  <BCUT2D_MRLOW>  (29) 
-0.734148

>  <AvgIpc>  (29) 
2.943395

>  <BalabanJ>  (29) 
1.996287

>  <BertzCT>  (29) 
414.007171

>  <Chi0>  (29) 
13.664926

>  <Chi0n>  (29) 
10.872355

>  <Chi0v>  (29) 
10.872355

>  <Chi1>  (29) 
9.240713

>  <Chi1n>  (29) 
6.315876

>  <Chi1v>  (29) 
6.315876

>  <Chi2n>  (29) 
4.493885

>  <Chi2v>  (29) 
4.493885

>  <Chi3n>  (29) 
3.200806

>  <Chi3v>  (29) 
3.200806

>  <Chi4n>  (29) 
2.114308

>  <Chi4v>  (29) 
2.114308

>  <HallKierAlpha>  (29) 
-1.44

>  <Ipc>  (29) 
32153.64561

>  <Kappa1>  (29) 
13.979423

>  <Kappa2>  (29) 
6.646956

>  <Kappa3>  (29) 
3.524594

>  <LabuteASA>  (29) 
110.456737

>  <PEOE_VSA1>  (29) 
24.314193

>  <PEOE_VSA10>  (29) 
12.870045

>  <PEOE_VSA11>  (29) 
11.735769

>  <PEOE_VSA12>  (29) 
0.0

>  <PEOE_VSA13>  (29) 
5.890724

>  <PEOE_VSA14>  (29) 
5.969305

>  <PEOE_VSA2>  (29) 
0.0

>  <PEOE_VSA3>  (29) 
9.778516

>  <PEOE_VSA4>  (29) 
0.0

>  <PEOE_VSA5>  (29) 
0.0

>  <PEOE_VSA6>  (29) 
0.0

>  <PEOE_VSA7>  (29) 
0.0

>  <PEOE_VSA8>  (29) 
12.841643

>  <PEOE_VSA9>  (29) 
26.365402

>  <SMR_VSA1>  (29) 
29.10873

>  <SMR_VSA10>  (29) 
5.969305

>  <SMR_VSA2>  (29) 
0.0

>  <SMR_VSA3>  (29) 
4.983979

>  <SMR_VSA4>  (29) 
0.0

>  <SMR_VSA5>  (29) 
24.925325

>  <SMR_VSA6>  (29) 
26.930443

>  <SMR_VSA7>  (29) 
17.847815

>  <SMR_VSA8>  (29) 
0.0

>  <SMR_VSA9>  (29) 
0.0

>  <SlogP_VSA1>  (29) 
5.316789

>  <SlogP_VSA10>  (29) 
0.0

>  <SlogP_VSA11>  (29) 
0.0

>  <SlogP_VSA12>  (29) 
0.0

>  <SlogP_VSA2>  (29) 
49.032095

>  <SlogP_VSA3>  (29) 
9.473726

>  <SlogP_VSA4>  (29) 
0.0

>  <SlogP_VSA5>  (29) 
35.262673

>  <SlogP_VSA6>  (29) 
10.680314

>  <SlogP_VSA7>  (29) 
0.0

>  <SlogP_VSA8>  (29) 
0.0

>  <SlogP_VSA9>  (29) 
0.0

>  <EState_VSA1>  (29) 
5.969305

>  <EState_VSA10>  (29) 
9.901065

>  <EState_VSA11>  (29) 
0.0

>  <EState_VSA2>  (29) 
18.342651

>  <EState_VSA3>  (29) 
11.932565

>  <EState_VSA4>  (29) 
26.055407

>  <EState_VSA5>  (29) 
13.372961

>  <EState_VSA6>  (29) 
0.0

>  <EState_VSA7>  (29) 
5.316789

>  <EState_VSA8>  (29) 
9.720841

>  <EState_VSA9>  (29) 
9.154014

>  <VSA_EState1>  (29) 
15.098018

>  <VSA_EState10>  (29) 
0.0

>  <VSA_EState2>  (29) 
15.347704

>  <VSA_EState3>  (29) 
11.459718

>  <VSA_EState4>  (29) 
0.1216

>  <VSA_EState5>  (29) 
-0.201715

>  <VSA_EState6>  (29) 
0.070262

>  <VSA_EState7>  (29) 
3.114864

>  <VSA_EState8>  (29) 
1.37014

>  <VSA_EState9>  (29) 
1.286076

>  <FractionCSP3>  (29) 
0.666667

>  <HeavyAtomCount>  (29) 
19

>  <NHOHCount>  (29) 
3

>  <NOCount>  (29) 
7

>  <NumAliphaticCarbocycles>  (29) 
0

>  <NumAliphaticHeterocycles>  (29) 
1

>  <NumAliphaticRings>  (29) 
1

>  <NumAromaticCarbocycles>  (29) 
0

>  <NumAromaticHeterocycles>  (29) 
1

>  <NAR>  (29) 
1

>  <NumHAcceptors>  (29) 
6

>  <NumHDonors>  (29) 
2

>  <NumHeteroatoms>  (29) 
7

>  <NumRotatableBonds>  (29) 
5

>  <NumSaturatedCarbocycles>  (29) 
0

>  <NumSaturatedHeterocycles>  (29) 
1

>  <NumSaturatedRings>  (29) 
1

>  <RingCount>  (29) 
2

>  <MolLogP>  (29) 
-0.763

>  <MolMR>  (29) 
63.4357

>  <fr_Al_COO>  (29) 
0

>  <fr_Al_OH>  (29) 
1

>  <fr_Al_OH_noTert>  (29) 
1

>  <fr_ArN>  (29) 
0

>  <fr_Ar_COO>  (29) 
0

>  <fr_Ar_N>  (29) 
1

>  <fr_Ar_NH>  (29) 
0

>  <fr_Ar_OH>  (29) 
0

>  <fr_COO>  (29) 
0

>  <fr_COO2>  (29) 
0

>  <fr_C_O>  (29) 
1

>  <fr_C_O_noCOO>  (29) 
1

>  <fr_C_S>  (29) 
0

>  <fr_HOCCN>  (29) 
0

>  <fr_Imine>  (29) 
0

>  <fr_NH0>  (29) 
1

>  <fr_NH1>  (29) 
0

>  <fr_NH2>  (29) 
1

>  <fr_N_O>  (29) 
0

>  <fr_Ndealkylation1>  (29) 
0

>  <fr_Ndealkylation2>  (29) 
0

>  <fr_Nhpyrrole>  (29) 
0

>  <fr_SH>  (29) 
0

>  <fr_aldehyde>  (29) 
0

>  <fr_alkyl_carbamate>  (29) 
0

>  <fr_alkyl_halide>  (29) 
0

>  <fr_allylic_oxid>  (29) 
0

>  <fr_amide>  (29) 
0

>  <fr_amidine>  (29) 
0

>  <fr_aniline>  (29) 
0

>  <fr_aryl_methyl>  (29) 
0

>  <fr_azide>  (29) 
0

>  <fr_azo>  (29) 
0

>  <fr_barbitur>  (29) 
0

>  <fr_benzene>  (29) 
0

>  <fr_benzodiazepine>  (29) 
0

>  <fr_bicyclic>  (29) 
0

>  <fr_diazo>  (29) 
0

>  <fr_dihydropyridine>  (29) 
0

>  <fr_epoxide>  (29) 
0

>  <fr_ester>  (29) 
1

>  <fr_ether>  (29) 
2

>  <fr_furan>  (29) 
0

>  <fr_guanido>  (29) 
0

>  <fr_halogen>  (29) 
0

>  <fr_hdrzine>  (29) 
0

>  <fr_hdrzone>  (29) 
0

>  <fr_imidazole>  (29) 
0

>  <fr_imide>  (29) 
0

>  <fr_isocyan>  (29) 
0

>  <fr_isothiocyan>  (29) 
0

>  <fr_ketone>  (29) 
0

>  <fr_ketone_Topliss>  (29) 
0

>  <fr_lactam>  (29) 
0

>  <fr_lactone>  (29) 
0

>  <fr_methoxy>  (29) 
1

>  <fr_morpholine>  (29) 
0

>  <fr_nitrile>  (29) 
0

>  <fr_nitro>  (29) 
0

>  <fr_nitro_arom>  (29) 
0

>  <fr_nitro_arom_nonortho>  (29) 
0

>  <fr_nitroso>  (29) 
0

>  <fr_oxazole>  (29) 
1

>  <fr_oxime>  (29) 
0

>  <fr_para_hydroxylation>  (29) 
0

>  <fr_phenol>  (29) 
0

>  <fr_phenol_noOrthoHbond>  (29) 
0

>  <fr_phos_acid>  (29) 
0

>  <fr_phos_ester>  (29) 
0

>  <fr_piperdine>  (29) 
0

>  <fr_piperzine>  (29) 
0

>  <fr_priamide>  (29) 
0

>  <fr_prisulfonamd>  (29) 
0

>  <fr_pyridine>  (29) 
0

>  <fr_quatN>  (29) 
1

>  <fr_sulfide>  (29) 
0

>  <fr_sulfonamd>  (29) 
0

>  <fr_sulfone>  (29) 
0

>  <fr_term_acetylene>  (29) 
0

>  <fr_tetrazole>  (29) 
0

>  <fr_thiazole>  (29) 
0

>  <fr_thiocyan>  (29) 
0

>  <fr_thiophene>  (29) 
0

>  <fr_unbrch_alkane>  (29) 
0

>  <fr_urea>  (29) 
0

>  <NP-Likeness>  (29) 
-0.141111

$$$$
F186
     RDKit          3D

  0  0  0  0  0  0  0  0  0  0999 V3000
M  V30 BEGIN CTAB
M  V30 COUNTS 37 37 0 0 0
M  V30 BEGIN ATOM
M  V30 1 O -1.366782 0.477495 4.152730 0
M  V30 2 C -0.021223 0.413013 3.811533 0
M  V30 3 C 0.166144 -0.501272 2.647263 0 CFG=2
M  V30 4 C 1.607693 -0.643074 2.324135 0
M  V30 5 N 1.884234 -1.250121 1.139033 0
M  V30 6 C 3.244581 -1.289690 1.016659 0
M  V30 7 C 4.092076 -1.832577 -0.063402 0
M  V30 8 O 5.345296 -1.817626 -0.076580 0
M  V30 9 O 3.390554 -2.390126 -1.119783 0
M  V30 10 C 3.967964 -2.971291 -2.264906 0
M  V30 11 C 3.756182 -0.688570 2.163796 0
M  V30 12 O 2.737088 -0.325468 2.901352 0
M  V30 13 N -0.587712 -0.025257 1.480545 0
M  V30 14 C -1.612853 -0.751673 0.805991 0
M  V30 15 O -1.890820 -1.902161 1.256161 0
M  V30 16 C -2.186999 0.001301 -0.341850 0
M  V30 17 C -2.806838 1.304497 0.050121 0
M  V30 18 C -1.077137 0.233236 -1.361305 0
M  V30 19 C -3.198808 -0.923878 -1.021476 0
M  V30 20 H -1.533175 -0.126699 4.926094 0
M  V30 21 H 0.415584 1.397766 3.596411 0
M  V30 22 H 0.546609 -0.009963 4.660251 0
M  V30 23 H -0.223201 -1.522147 2.885972 0
M  V30 24 H 5.062352 -3.018269 -2.242650 0
M  V30 25 H 3.574339 -4.014644 -2.440014 0
M  V30 26 H 3.568258 -2.390240 -3.145125 0
M  V30 27 H 4.776564 -0.507766 2.479710 0
M  V30 28 H -0.204828 0.941784 1.270563 0
M  V30 29 H -3.331188 1.240370 1.018270 0
M  V30 30 H -2.074743 2.125782 0.028384 0
M  V30 31 H -3.601143 1.527282 -0.717324 0
M  V30 32 H -1.533576 0.333597 -2.353964 0
M  V30 33 H -0.448900 -0.684573 -1.357502 0
M  V30 34 H -0.514231 1.122524 -1.020924 0
M  V30 35 H -2.672193 -1.704026 -1.601717 0
M  V30 36 H -3.807441 -0.347227 -1.760339 0
M  V30 37 H -3.844083 -1.436733 -0.283141 0
M  V30 END ATOM
M  V30 BEGIN BOND
M  V30 1 1 1 2
M  V30 2 1 2 3
M  V30 3 1 3 4
M  V30 4 2 4 5
M  V30 5 1 5 6
M  V30 6 1 6 7
M  V30 7 2 7 8
M  V30 8 1 7 9
M  V30 9 1 9 10
M  V30 10 2 6 11
M  V30 11 1 11 12
M  V30 12 1 3 13
M  V30 13 1 13 14
M  V30 14 2 14 15
M  V30 15 1 14 16
M  V30 16 1 16 17
M  V30 17 1 16 18
M  V30 18 1 16 19
M  V30 19 1 12 4
M  V30 20 1 1 20
M  V30 21 1 2 21
M  V30 22 1 2 22
M  V30 23 1 3 23 CFG=1
M  V30 24 1 10 24
M  V30 25 1 10 25
M  V30 26 1 10 26
M  V30 27 1 11 27
M  V30 28 1 13 28
M  V30 29 1 17 29
M  V30 30 1 17 30
M  V30 31 1 17 31
M  V30 32 1 18 32
M  V30 33 1 18 33
M  V30 34 1 18 34
M  V30 35 1 19 35
M  V30 36 1 19 36
M  V30 37 1 19 37
M  V30 END BOND
M  V30 END CTAB
M  END
>  <Dataset>  (30) 
CF

>  <Ligand_Instance>  (30) 
186_A_402

>  <PDB_ID>  (30) 
nan

>  <Standardized_SMILES>  (30) 
[H]OC([H])([H])[C@]([H])(C1=NC(C(=O)OC([H])([H])[H])=C([H])O1)N([H])C(=O)C(C([H])([H])[H])(C([H])([H])[H])C([H])([H])[H]

>  <Name>  (30) 
methyl 2‐[(1R)‐1‐(2,2‐dimethylpropanamido)‐2‐hydroxyethyl]‐1,3‐oxazole‐4‐carboxylate

>  <Pocket>  (30) 
A

>  <ATP_Site>  (30) 
1.0

>  <Peripheral>  (30) 
0.0

>  <Num_H_Atoms_ProtBoundConf>  (30) 
18.0

>  <Num_Resolved_Atoms>  (30) 
19.0

>  <Num_Not_Resolved_Atoms>  (30) 
0.0

>  <2D_Mol_H>  (30) 
<rdkit.Chem.rdchem.Mol object at 0x72a238db4f20>

>  <MW>  (30) 
270.285

>  <HBA>  (30) 
6

>  <HBD>  (30) 
2

>  <LogP>  (30) 
0.6569

>  <NRB>  (30) 
6

>  <TPSA>  (30) 
101.66

>  <Num_Heavy_Atoms>  (30) 
19

>  <Ro5>  (30) 
[True, True, True, True, True, True]

>  <Ro5_Fulfilled>  (30) 
True

>  <Ro3>  (30) 
[True, False, True, True]

>  <Ro3_Fulfilled>  (30) 
True

>  <Fsp3>  (30) 
0.583333

>  <Fsp3_0.42>  (30) 
True

>  <Fsp3_0.45>  (30) 
True

>  <Stereogenic_Carbons>  (30) 
1

>  <C_Atoms>  (30) 
12

>  <FCStereo>  (30) 
0.083333

>  <SPS>  (30) 
245

>  <nSPS>  (30) 
12.894737

>  <PBF>  (30) 
0.744606

>  <PBF_0.6>  (30) 
True

>  <nPBF>  (30) 
0.03919

>  <nPBF_0.016>  (30) 
True

>  <PMI1>  (30) 
1053.826168

>  <PMI2>  (30) 
2220.896216

>  <PMI3>  (30) 
3001.606937

>  <NPR1>  (30) 
0.351087

>  <NPR2>  (30) 
0.739902

>  <Sum_NPR>  (30) 
1.09099

>  <Sum_NPR_1.07>  (30) 
True

>  <Sum_NPR_1.2>  (30) 
False

>  <MaxAbsEStateIndex>  (30) 
11.820761

>  <MaxEStateIndex>  (30) 
11.820761

>  <MinAbsEStateIndex>  (30) 
0.013002

>  <MinEStateIndex>  (30) 
-0.800805

>  <qed>  (30) 
0.779082

>  <MolWt>  (30) 
270.285

>  <HeavyAtomMolWt>  (30) 
252.141

>  <ExactMolWt>  (30) 
270.121572

>  <NumValenceElectrons>  (30) 
106

>  <NumRadicalElectrons>  (30) 
0

>  <MaxPartialCharge>  (30) 
0.359537

>  <MinPartialCharge>  (30) 
-0.464203

>  <MaxAbsPartialCharge>  (30) 
0.464203

>  <MinAbsPartialCharge>  (30) 
0.359537

>  <FpDensityMorgan1>  (30) 
1.526316

>  <FpDensityMorgan2>  (30) 
2.157895

>  <FpDensityMorgan3>  (30) 
2.631579

>  <BCUT2D_MWHI>  (30) 
16.525152

>  <BCUT2D_MWLOW>  (30) 
9.950717

>  <BCUT2D_CHGHI>  (30) 
2.269308

>  <BCUT2D_CHGLO>  (30) 
-2.20717

>  <BCUT2D_LOGPHI>  (30) 
2.176111

>  <BCUT2D_LOGPLOW>  (30) 
-2.384546

>  <BCUT2D_MRHI>  (30) 
5.863053

>  <BCUT2D_MRLOW>  (30) 
-0.129373

>  <AvgIpc>  (30) 
2.82256

>  <BalabanJ>  (30) 
2.834838

>  <BertzCT>  (30) 
460.929954

>  <Chi0>  (30) 
14.629392

>  <Chi0n>  (30) 
11.389228

>  <Chi0v>  (30) 
11.389228

>  <Chi1>  (30) 
8.790242

>  <Chi1n>  (30) 
5.748162

>  <Chi1v>  (30) 
5.748162

>  <Chi2n>  (30) 
5.021187

>  <Chi2v>  (30) 
5.021187

>  <Chi3n>  (30) 
2.383661

>  <Chi3v>  (30) 
2.383661

>  <Chi4n>  (30) 
1.206211

>  <Chi4v>  (30) 
1.206211

>  <HallKierAlpha>  (30) 
-1.89

>  <Ipc>  (30) 
14194.655359

>  <Kappa1>  (30) 
15.168445

>  <Kappa2>  (30) 
5.833525

>  <Kappa3>  (30) 
3.784994

>  <LabuteASA>  (30) 
110.510545

>  <PEOE_VSA1>  (30) 
19.57733

>  <PEOE_VSA10>  (30) 
12.305004

>  <PEOE_VSA11>  (30) 
5.693928

>  <PEOE_VSA12>  (30) 
11.797904

>  <PEOE_VSA13>  (30) 
0.0

>  <PEOE_VSA14>  (30) 
5.969305

>  <PEOE_VSA2>  (30) 
4.794537

>  <PEOE_VSA3>  (30) 
9.778516

>  <PEOE_VSA4>  (30) 
0.0

>  <PEOE_VSA5>  (30) 
0.0

>  <PEOE_VSA6>  (30) 
20.771212

>  <PEOE_VSA7>  (30) 
0.0

>  <PEOE_VSA8>  (30) 
5.41499

>  <PEOE_VSA9>  (30) 
13.71668

>  <SMR_VSA1>  (30) 
23.849616

>  <SMR_VSA10>  (30) 
11.876485

>  <SMR_VSA2>  (30) 
0.0

>  <SMR_VSA3>  (30) 
10.300767

>  <SMR_VSA4>  (30) 
5.41499

>  <SMR_VSA5>  (30) 
26.813052

>  <SMR_VSA6>  (30) 
13.71668

>  <SMR_VSA7>  (30) 
17.847815

>  <SMR_VSA8>  (30) 
0.0

>  <SMR_VSA9>  (30) 
0.0

>  <SlogP_VSA1>  (30) 
5.316789

>  <SlogP_VSA10>  (30) 
0.0

>  <SlogP_VSA11>  (30) 
0.0

>  <SlogP_VSA12>  (30) 
0.0

>  <SlogP_VSA2>  (30) 
35.68367

>  <SlogP_VSA3>  (30) 
9.5314

>  <SlogP_VSA4>  (30) 
5.41499

>  <SlogP_VSA5>  (30) 
43.192242

>  <SlogP_VSA6>  (30) 
10.680314

>  <SlogP_VSA7>  (30) 
0.0

>  <SlogP_VSA8>  (30) 
0.0

>  <SlogP_VSA9>  (30) 
0.0

>  <EState_VSA1>  (30) 
17.426137

>  <EState_VSA10>  (30) 
14.695602

>  <EState_VSA11>  (30) 
0.0

>  <EState_VSA2>  (30) 
24.098714

>  <EState_VSA3>  (30) 
0.0

>  <EState_VSA4>  (30) 
6.263163

>  <EState_VSA5>  (30) 
7.109798

>  <EState_VSA6>  (30) 
20.771212

>  <EState_VSA7>  (30) 
0.0

>  <EState_VSA8>  (30) 
15.03763

>  <EState_VSA9>  (30) 
4.417151

>  <VSA_EState1>  (30) 
9.554574

>  <VSA_EState10>  (30) 
0.0

>  <VSA_EState2>  (30) 
26.916707

>  <VSA_EState3>  (30) 
11.864129

>  <VSA_EState4>  (30) 
-0.618963

>  <VSA_EState5>  (30) 
-0.848421

>  <VSA_EState6>  (30) 
-0.800805

>  <VSA_EState7>  (30) 
1.118126

>  <VSA_EState8>  (30) 
4.840851

>  <VSA_EState9>  (30) 
1.223801

>  <FractionCSP3>  (30) 
0.583333

>  <HeavyAtomCount>  (30) 
19

>  <NHOHCount>  (30) 
2

>  <NOCount>  (30) 
7

>  <NumAliphaticCarbocycles>  (30) 
0

>  <NumAliphaticHeterocycles>  (30) 
0

>  <NumAliphaticRings>  (30) 
0

>  <NumAromaticCarbocycles>  (30) 
0

>  <NumAromaticHeterocycles>  (30) 
1

>  <NAR>  (30) 
1

>  <NumHAcceptors>  (30) 
6

>  <NumHDonors>  (30) 
2

>  <NumHeteroatoms>  (30) 
7

>  <NumRotatableBonds>  (30) 
4

>  <NumSaturatedCarbocycles>  (30) 
0

>  <NumSaturatedHeterocycles>  (30) 
0

>  <NumSaturatedRings>  (30) 
0

>  <RingCount>  (30) 
1

>  <MolLogP>  (30) 
0.6569

>  <MolMR>  (30) 
65.267

>  <fr_Al_COO>  (30) 
0

>  <fr_Al_OH>  (30) 
1

>  <fr_Al_OH_noTert>  (30) 
1

>  <fr_ArN>  (30) 
0

>  <fr_Ar_COO>  (30) 
0

>  <fr_Ar_N>  (30) 
1

>  <fr_Ar_NH>  (30) 
0

>  <fr_Ar_OH>  (30) 
0

>  <fr_COO>  (30) 
0

>  <fr_COO2>  (30) 
0

>  <fr_C_O>  (30) 
2

>  <fr_C_O_noCOO>  (30) 
2

>  <fr_C_S>  (30) 
0

>  <fr_HOCCN>  (30) 
0

>  <fr_Imine>  (30) 
0

>  <fr_NH0>  (30) 
1

>  <fr_NH1>  (30) 
1

>  <fr_NH2>  (30) 
0

>  <fr_N_O>  (30) 
0

>  <fr_Ndealkylation1>  (30) 
0

>  <fr_Ndealkylation2>  (30) 
0

>  <fr_Nhpyrrole>  (30) 
0

>  <fr_SH>  (30) 
0

>  <fr_aldehyde>  (30) 
0

>  <fr_alkyl_carbamate>  (30) 
0

>  <fr_alkyl_halide>  (30) 
0

>  <fr_allylic_oxid>  (30) 
0

>  <fr_amide>  (30) 
1

>  <fr_amidine>  (30) 
0

>  <fr_aniline>  (30) 
0

>  <fr_aryl_methyl>  (30) 
0

>  <fr_azide>  (30) 
0

>  <fr_azo>  (30) 
0

>  <fr_barbitur>  (30) 
0

>  <fr_benzene>  (30) 
0

>  <fr_benzodiazepine>  (30) 
0

>  <fr_bicyclic>  (30) 
0

>  <fr_diazo>  (30) 
0

>  <fr_dihydropyridine>  (30) 
0

>  <fr_epoxide>  (30) 
0

>  <fr_ester>  (30) 
1

>  <fr_ether>  (30) 
1

>  <fr_furan>  (30) 
0

>  <fr_guanido>  (30) 
0

>  <fr_halogen>  (30) 
0

>  <fr_hdrzine>  (30) 
0

>  <fr_hdrzone>  (30) 
0

>  <fr_imidazole>  (30) 
0

>  <fr_imide>  (30) 
0

>  <fr_isocyan>  (30) 
0

>  <fr_isothiocyan>  (30) 
0

>  <fr_ketone>  (30) 
0

>  <fr_ketone_Topliss>  (30) 
0

>  <fr_lactam>  (30) 
0

>  <fr_lactone>  (30) 
0

>  <fr_methoxy>  (30) 
1

>  <fr_morpholine>  (30) 
0

>  <fr_nitrile>  (30) 
0

>  <fr_nitro>  (30) 
0

>  <fr_nitro_arom>  (30) 
0

>  <fr_nitro_arom_nonortho>  (30) 
0

>  <fr_nitroso>  (30) 
0

>  <fr_oxazole>  (30) 
1

>  <fr_oxime>  (30) 
0

>  <fr_para_hydroxylation>  (30) 
0

>  <fr_phenol>  (30) 
0

>  <fr_phenol_noOrthoHbond>  (30) 
0

>  <fr_phos_acid>  (30) 
0

>  <fr_phos_ester>  (30) 
0

>  <fr_piperdine>  (30) 
0

>  <fr_piperzine>  (30) 
0

>  <fr_priamide>  (30) 
0

>  <fr_prisulfonamd>  (30) 
0

>  <fr_pyridine>  (30) 
0

>  <fr_quatN>  (30) 
0

>  <fr_sulfide>  (30) 
0

>  <fr_sulfonamd>  (30) 
0

>  <fr_sulfone>  (30) 
0

>  <fr_term_acetylene>  (30) 
0

>  <fr_tetrazole>  (30) 
0

>  <fr_thiazole>  (30) 
0

>  <fr_thiocyan>  (30) 
0

>  <fr_thiophene>  (30) 
0

>  <fr_unbrch_alkane>  (30) 
0

>  <fr_urea>  (30) 
0

>  <NP-Likeness>  (30) 
-0.425306

$$$$
F188
     RDKit          3D

  0  0  0  0  0  0  0  0  0  0999 V3000
M  V30 BEGIN CTAB
M  V30 COUNTS 37 38 0 0 0
M  V30 BEGIN ATOM
M  V30 1 C -2.394167 -0.946060 2.597841 0
M  V30 2 C -1.714478 -0.765521 1.412125 0
M  V30 3 C -0.322026 -0.909188 1.376524 0
M  V30 4 C 0.414753 -0.725186 0.114473 0 CFG=2
M  V30 5 C 0.907624 -2.057170 -0.408668 0
M  V30 6 O 1.940303 -2.707072 -0.793257 0
M  V30 7 N -0.188792 -2.959146 -0.529417 0
M  V30 8 C 0.086193 -4.313964 -1.024497 0
M  V30 9 N 1.584511 0.092397 0.185094 0 CFG=1 CHG=1 VAL=4
M  V30 10 C 1.940298 0.348700 -1.231016 0
M  V30 11 C 0.898801 1.351108 -1.699111 0
M  V30 12 C 0.459096 2.058051 -0.434967 0
M  V30 13 C 1.374097 1.456050 0.601852 0 CFG=1
M  V30 14 C 0.983141 1.663420 1.982906 0
M  V30 15 O -0.163299 1.982890 2.448615 0
M  V30 16 O 1.998752 1.490430 2.924064 0 CHG=-1 VAL=1
M  V30 17 C 0.303303 -1.231057 2.560040 0
M  V30 18 C -0.372511 -1.414505 3.757369 0
M  V30 19 C -1.761004 -1.268427 3.779724 0
M  V30 20 Cl -2.599320 -1.504368 5.304028 0
M  V30 21 H -3.473190 -0.849904 2.696148 0
M  V30 22 H -2.290773 -0.509118 0.509050 0
M  V30 23 H -0.223434 -0.316386 -0.694760 0
M  V30 24 H -1.203297 -2.782859 -0.305355 0
M  V30 25 H -0.725780 -5.019260 -0.804809 0
M  V30 26 H 0.987951 -4.673845 -0.467219 0
M  V30 27 H 0.380162 -4.288861 -2.104913 0
M  V30 28 H 2.417978 -0.361302 0.601406 0
M  V30 29 H 2.962213 0.763361 -1.316710 0
M  V30 30 H 1.806708 -0.597171 -1.757896 0
M  V30 31 H 0.090520 0.918696 -2.286524 0
M  V30 32 H 1.441017 2.043576 -2.388628 0
M  V30 33 H 0.689627 3.135464 -0.564162 0
M  V30 34 H -0.608464 1.969520 -0.212008 0
M  V30 35 H 2.362928 1.981119 0.445294 0
M  V30 36 H 1.382717 -1.345149 2.545055 0
M  V30 37 H 0.225487 -1.665688 4.625279 0
M  V30 END ATOM
M  V30 BEGIN BOND
M  V30 1 2 1 2
M  V30 2 1 2 3
M  V30 3 1 3 4
M  V30 4 1 4 5
M  V30 5 2 5 6
M  V30 6 1 5 7
M  V30 7 1 7 8
M  V30 8 1 4 9
M  V30 9 1 9 10
M  V30 10 1 10 11
M  V30 11 1 11 12
M  V30 12 1 12 13
M  V30 13 1 13 14
M  V30 14 2 14 15
M  V30 15 1 14 16
M  V30 16 2 3 17
M  V30 17 1 17 18
M  V30 18 2 18 19
M  V30 19 1 19 20
M  V30 20 1 19 1
M  V30 21 1 13 9
M  V30 22 1 1 21
M  V30 23 1 2 22
M  V30 24 1 4 23 CFG=3
M  V30 25 1 7 24
M  V30 26 1 8 25
M  V30 27 1 8 26
M  V30 28 1 8 27
M  V30 29 1 9 28 CFG=1
M  V30 30 1 10 29
M  V30 31 1 10 30
M  V30 32 1 11 31
M  V30 33 1 11 32
M  V30 34 1 12 33
M  V30 35 1 12 34
M  V30 36 1 13 35 CFG=1
M  V30 37 1 17 36
M  V30 38 1 18 37
M  V30 END BOND
M  V30 END CTAB
M  END
>  <Dataset>  (31) 
CF

>  <Ligand_Instance>  (31) 
188_A_401

>  <PDB_ID>  (31) 
nan

>  <Standardized_SMILES>  (31) 
[H]C1=C([H])C([C@]([H])(C(=O)N([H])C([H])([H])[H])[N@@+]2([H])C([H])([H])C([H])([H])C([H])([H])[C@@]2([H])C(=O)[O-])=C([H])C([H])=C1Cl

>  <Name>  (31) 
(2S)‐1‐[(R)‐(4‐chlorophenyl)(methylcarbamoyl)methyl]pyrrolidine‐2‐carboxylic acid

>  <Pocket>  (31) 
X

>  <ATP_Site>  (31) 
0.0

>  <Peripheral>  (31) 
1.0

>  <Num_H_Atoms_ProtBoundConf>  (31) 
17.0

>  <Num_Resolved_Atoms>  (31) 
20.0

>  <Num_Not_Resolved_Atoms>  (31) 
0.0

>  <2D_Mol_H>  (31) 
<rdkit.Chem.rdchem.Mol object at 0x72a238db5000>

>  <MW>  (31) 
296.754

>  <HBA>  (31) 
3

>  <HBD>  (31) 
2

>  <LogP>  (31) 
-1.0757

>  <NRB>  (31) 
5

>  <TPSA>  (31) 
73.67

>  <Num_Heavy_Atoms>  (31) 
20

>  <Ro5>  (31) 
[True, True, True, True, True, True]

>  <Ro5_Fulfilled>  (31) 
True

>  <Ro3>  (31) 
[True, True, True, True]

>  <Ro3_Fulfilled>  (31) 
True

>  <Fsp3>  (31) 
0.428571

>  <Fsp3_0.42>  (31) 
True

>  <Fsp3_0.45>  (31) 
False

>  <Stereogenic_Carbons>  (31) 
2

>  <C_Atoms>  (31) 
14

>  <FCStereo>  (31) 
0.142857

>  <SPS>  (31) 
466

>  <nSPS>  (31) 
23.3

>  <PBF>  (31) 
0.976325

>  <PBF_0.6>  (31) 
True

>  <nPBF>  (31) 
0.048816

>  <nPBF_0.016>  (31) 
True

>  <PMI1>  (31) 
1207.326062

>  <PMI2>  (31) 
2036.532369

>  <PMI3>  (31) 
2777.611516

>  <NPR1>  (31) 
0.434663

>  <NPR2>  (31) 
0.733196

>  <Sum_NPR>  (31) 
1.167859

>  <Sum_NPR_1.07>  (31) 
True

>  <Sum_NPR_1.2>  (31) 
False

>  <MaxAbsEStateIndex>  (31) 
12.17426

>  <MaxEStateIndex>  (31) 
12.17426

>  <MinAbsEStateIndex>  (31) 
0.198637

>  <MinEStateIndex>  (31) 
-1.096883

>  <qed>  (31) 
0.742585

>  <MolWt>  (31) 
296.754

>  <HeavyAtomMolWt>  (31) 
279.618

>  <ExactMolWt>  (31) 
296.09277

>  <NumValenceElectrons>  (31) 
108

>  <NumRadicalElectrons>  (31) 
0

>  <MaxPartialCharge>  (31) 
0.282453

>  <MinPartialCharge>  (31) 
-0.543895

>  <MaxAbsPartialCharge>  (31) 
0.543895

>  <MinAbsPartialCharge>  (31) 
0.282453

>  <FpDensityMorgan1>  (31) 
1.4

>  <FpDensityMorgan2>  (31) 
2.05

>  <FpDensityMorgan3>  (31) 
2.6

>  <BCUT2D_MWHI>  (31) 
35.495691

>  <BCUT2D_MWLOW>  (31) 
10.031646

>  <BCUT2D_CHGHI>  (31) 
2.396524

>  <BCUT2D_CHGLO>  (31) 
-2.291122

>  <BCUT2D_LOGPHI>  (31) 
2.166788

>  <BCUT2D_LOGPLOW>  (31) 
-3.16052

>  <BCUT2D_MRHI>  (31) 
6.301009

>  <BCUT2D_MRLOW>  (31) 
-0.927141

>  <AvgIpc>  (31) 
2.899699

>  <BalabanJ>  (31) 
2.346314

>  <BertzCT>  (31) 
503.645409

>  <Chi0>  (31) 
14.698306

>  <Chi0n>  (31) 
11.188131

>  <Chi0v>  (31) 
11.94406

>  <Chi1>  (31) 
9.540913

>  <Chi1n>  (31) 
6.577899

>  <Chi1v>  (31) 
6.955864

>  <Chi2n>  (31) 
4.93758

>  <Chi2v>  (31) 
5.374015

>  <Chi3n>  (31) 
3.773071

>  <Chi3v>  (31) 
4.025047

>  <Chi4n>  (31) 
2.818088

>  <Chi4v>  (31) 
2.944077

>  <HallKierAlpha>  (31) 
-1.59

>  <Ipc>  (31) 
39969.453918

>  <Kappa1>  (31) 
14.811542

>  <Kappa2>  (31) 
6.240191

>  <Kappa3>  (31) 
2.939493

>  <LabuteASA>  (31) 
122.075349

>  <PEOE_VSA1>  (31) 
20.117763

>  <PEOE_VSA10>  (31) 
6.041841

>  <PEOE_VSA11>  (31) 
6.041841

>  <PEOE_VSA12>  (31) 
0.0

>  <PEOE_VSA13>  (31) 
5.90718

>  <PEOE_VSA14>  (31) 
0.0

>  <PEOE_VSA2>  (31) 
4.794537

>  <PEOE_VSA3>  (31) 
0.0

>  <PEOE_VSA4>  (31) 
0.0

>  <PEOE_VSA5>  (31) 
0.0

>  <PEOE_VSA6>  (31) 
23.733674

>  <PEOE_VSA7>  (31) 
12.132734

>  <PEOE_VSA8>  (31) 
30.4754

>  <PEOE_VSA9>  (31) 
12.514062

>  <SMR_VSA1>  (31) 
19.595511

>  <SMR_VSA10>  (31) 
23.477425

>  <SMR_VSA2>  (31) 
0.0

>  <SMR_VSA3>  (31) 
5.316789

>  <SMR_VSA4>  (31) 
0.0

>  <SMR_VSA5>  (31) 
24.925325

>  <SMR_VSA6>  (31) 
13.592428

>  <SMR_VSA7>  (31) 
34.851553

>  <SMR_VSA8>  (31) 
0.0

>  <SMR_VSA9>  (31) 
0.0

>  <SlogP_VSA1>  (31) 
15.323226

>  <SlogP_VSA10>  (31) 
0.0

>  <SlogP_VSA11>  (31) 
0.0

>  <SlogP_VSA12>  (31) 
11.60094

>  <SlogP_VSA2>  (31) 
31.510754

>  <SlogP_VSA3>  (31) 
9.589074

>  <SlogP_VSA4>  (31) 
0.0

>  <SlogP_VSA5>  (31) 
24.446936

>  <SlogP_VSA6>  (31) 
24.265468

>  <SlogP_VSA7>  (31) 
5.022633

>  <SlogP_VSA8>  (31) 
0.0

>  <SlogP_VSA9>  (31) 
0.0

>  <EState_VSA1>  (31) 
18.052987

>  <EState_VSA10>  (31) 
14.695602

>  <EState_VSA11>  (31) 
0.0

>  <EState_VSA2>  (31) 
5.90718

>  <EState_VSA3>  (31) 
17.988211

>  <EState_VSA4>  (31) 
16.884183

>  <EState_VSA5>  (31) 
0.0

>  <EState_VSA6>  (31) 
31.31314

>  <EState_VSA7>  (31) 
0.0

>  <EState_VSA8>  (31) 
5.316789

>  <EState_VSA9>  (31) 
11.60094

>  <VSA_EState1>  (31) 
0.0

>  <VSA_EState10>  (31) 
5.85713

>  <VSA_EState2>  (31) 
24.130696

>  <VSA_EState3>  (31) 
14.417287

>  <VSA_EState4>  (31) 
0.761019

>  <VSA_EState5>  (31) 
-1.295519

>  <VSA_EState6>  (31) 
5.738553

>  <VSA_EState7>  (31) 
1.313308

>  <VSA_EState8>  (31) 
0.638254

>  <VSA_EState9>  (31) 
1.550384

>  <FractionCSP3>  (31) 
0.428571

>  <HeavyAtomCount>  (31) 
20

>  <NHOHCount>  (31) 
2

>  <NOCount>  (31) 
5

>  <NumAliphaticCarbocycles>  (31) 
0

>  <NumAliphaticHeterocycles>  (31) 
1

>  <NumAliphaticRings>  (31) 
1

>  <NumAromaticCarbocycles>  (31) 
1

>  <NumAromaticHeterocycles>  (31) 
0

>  <NAR>  (31) 
1

>  <NumHAcceptors>  (31) 
3

>  <NumHDonors>  (31) 
2

>  <NumHeteroatoms>  (31) 
6

>  <NumRotatableBonds>  (31) 
4

>  <NumSaturatedCarbocycles>  (31) 
0

>  <NumSaturatedHeterocycles>  (31) 
1

>  <NumSaturatedRings>  (31) 
1

>  <RingCount>  (31) 
2

>  <MolLogP>  (31) 
-1.0757

>  <MolMR>  (31) 
72.1184

>  <fr_Al_COO>  (31) 
1

>  <fr_Al_OH>  (31) 
0

>  <fr_Al_OH_noTert>  (31) 
0

>  <fr_ArN>  (31) 
0

>  <fr_Ar_COO>  (31) 
0

>  <fr_Ar_N>  (31) 
0

>  <fr_Ar_NH>  (31) 
0

>  <fr_Ar_OH>  (31) 
0

>  <fr_COO>  (31) 
1

>  <fr_COO2>  (31) 
1

>  <fr_C_O>  (31) 
2

>  <fr_C_O_noCOO>  (31) 
2

>  <fr_C_S>  (31) 
0

>  <fr_HOCCN>  (31) 
0

>  <fr_Imine>  (31) 
0

>  <fr_NH0>  (31) 
0

>  <fr_NH1>  (31) 
2

>  <fr_NH2>  (31) 
0

>  <fr_N_O>  (31) 
0

>  <fr_Ndealkylation1>  (31) 
1

>  <fr_Ndealkylation2>  (31) 
1

>  <fr_Nhpyrrole>  (31) 
0

>  <fr_SH>  (31) 
0

>  <fr_aldehyde>  (31) 
0

>  <fr_alkyl_carbamate>  (31) 
0

>  <fr_alkyl_halide>  (31) 
0

>  <fr_allylic_oxid>  (31) 
0

>  <fr_amide>  (31) 
1

>  <fr_amidine>  (31) 
0

>  <fr_aniline>  (31) 
0

>  <fr_aryl_methyl>  (31) 
0

>  <fr_azide>  (31) 
0

>  <fr_azo>  (31) 
0

>  <fr_barbitur>  (31) 
0

>  <fr_benzene>  (31) 
1

>  <fr_benzodiazepine>  (31) 
0

>  <fr_bicyclic>  (31) 
0

>  <fr_diazo>  (31) 
0

>  <fr_dihydropyridine>  (31) 
0

>  <fr_epoxide>  (31) 
0

>  <fr_ester>  (31) 
0

>  <fr_ether>  (31) 
0

>  <fr_furan>  (31) 
0

>  <fr_guanido>  (31) 
0

>  <fr_halogen>  (31) 
1

>  <fr_hdrzine>  (31) 
0

>  <fr_hdrzone>  (31) 
0

>  <fr_imidazole>  (31) 
0

>  <fr_imide>  (31) 
0

>  <fr_isocyan>  (31) 
0

>  <fr_isothiocyan>  (31) 
0

>  <fr_ketone>  (31) 
0

>  <fr_ketone_Topliss>  (31) 
0

>  <fr_lactam>  (31) 
0

>  <fr_lactone>  (31) 
0

>  <fr_methoxy>  (31) 
0

>  <fr_morpholine>  (31) 
0

>  <fr_nitrile>  (31) 
0

>  <fr_nitro>  (31) 
0

>  <fr_nitro_arom>  (31) 
0

>  <fr_nitro_arom_nonortho>  (31) 
0

>  <fr_nitroso>  (31) 
0

>  <fr_oxazole>  (31) 
0

>  <fr_oxime>  (31) 
0

>  <fr_para_hydroxylation>  (31) 
0

>  <fr_phenol>  (31) 
0

>  <fr_phenol_noOrthoHbond>  (31) 
0

>  <fr_phos_acid>  (31) 
0

>  <fr_phos_ester>  (31) 
0

>  <fr_piperdine>  (31) 
0

>  <fr_piperzine>  (31) 
0

>  <fr_priamide>  (31) 
0

>  <fr_prisulfonamd>  (31) 
0

>  <fr_pyridine>  (31) 
0

>  <fr_quatN>  (31) 
1

>  <fr_sulfide>  (31) 
0

>  <fr_sulfonamd>  (31) 
0

>  <fr_sulfone>  (31) 
0

>  <fr_term_acetylene>  (31) 
0

>  <fr_tetrazole>  (31) 
0

>  <fr_thiazole>  (31) 
0

>  <fr_thiocyan>  (31) 
0

>  <fr_thiophene>  (31) 
0

>  <fr_unbrch_alkane>  (31) 
0

>  <fr_urea>  (31) 
0

>  <NP-Likeness>  (31) 
-0.491267

$$$$
F188
     RDKit          3D

  0  0  0  0  0  0  0  0  0  0999 V3000
M  V30 BEGIN CTAB
M  V30 COUNTS 37 38 0 0 0
M  V30 BEGIN ATOM
M  V30 1 C -2.025977 -1.155689 3.087047 0
M  V30 2 C -1.016009 -0.746076 2.238190 0
M  V30 3 C -0.799913 -1.364917 1.023642 0
M  V30 4 C 0.274930 -0.963694 0.069596 0 CFG=2
M  V30 5 C 1.586100 -1.581481 0.444680 0
M  V30 6 O 2.791416 -1.239922 0.705754 0
M  V30 7 N 1.530386 -3.019959 0.563592 0
M  V30 8 C 2.807164 -3.647772 0.931246 0
M  V30 9 N 0.301128 0.452212 -0.054308 0 CFG=2 CHG=1 VAL=4
M  V30 10 C -0.337226 0.814287 -1.302261 0
M  V30 11 C -0.045438 2.258630 -1.510523 0
M  V30 12 C 1.271283 2.414926 -0.778948 0
M  V30 13 C 1.591505 1.072106 -0.152495 0 CFG=1
M  V30 14 C 2.148056 1.400362 1.203042 0
M  V30 15 O 2.305294 2.217500 2.172143 0
M  V30 16 O 2.729595 1.535877 2.451734 0 CHG=-1 VAL=1
M  V30 17 C -1.668327 -2.413292 0.735681 0
M  V30 18 C -2.683999 -2.841918 1.564916 0
M  V30 19 C -2.858820 -2.190054 2.768580 0
M  V30 20 Cl -4.146669 -2.735039 3.817873 0
M  V30 21 H -2.177096 -0.654402 4.036558 0
M  V30 22 H -0.385126 0.068369 2.524629 0
M  V30 23 H 0.025363 -1.451726 -0.910446 0
M  V30 24 H 0.666390 -3.606516 0.407917 0
M  V30 25 H 2.596892 -4.711052 1.155392 0
M  V30 26 H 3.302968 -3.122058 1.763809 0
M  V30 27 H 3.528203 -3.654867 0.080826 0
M  V30 28 H -0.209986 0.964965 0.698283 0
M  V30 29 H -1.416726 0.573978 -1.252503 0
M  V30 30 H 0.098270 0.202393 -2.121769 0
M  V30 31 H -0.860036 2.862584 -1.087055 0
M  V30 32 H 0.037915 2.434661 -2.603121 0
M  V30 33 H 2.088755 2.717437 -1.487295 0
M  V30 34 H 1.109596 3.191695 -0.019483 0
M  V30 35 H 2.319674 0.579249 -0.790327 0
M  V30 36 H -1.561733 -2.951157 -0.203500 0
M  V30 37 H -3.320155 -3.666063 1.271874 0
M  V30 END ATOM
M  V30 BEGIN BOND
M  V30 1 2 1 2
M  V30 2 1 2 3
M  V30 3 1 3 4
M  V30 4 1 4 5
M  V30 5 2 5 6
M  V30 6 1 5 7
M  V30 7 1 7 8
M  V30 8 1 4 9
M  V30 9 1 9 10
M  V30 10 1 10 11
M  V30 11 1 11 12
M  V30 12 1 12 13
M  V30 13 1 13 14
M  V30 14 2 14 15
M  V30 15 1 14 16
M  V30 16 2 3 17
M  V30 17 1 17 18
M  V30 18 2 18 19
M  V30 19 1 19 20
M  V30 20 1 19 1
M  V30 21 1 13 9
M  V30 22 1 1 21
M  V30 23 1 2 22
M  V30 24 1 4 23 CFG=3
M  V30 25 1 7 24
M  V30 26 1 8 25
M  V30 27 1 8 26
M  V30 28 1 8 27
M  V30 29 1 9 28 CFG=1
M  V30 30 1 10 29
M  V30 31 1 10 30
M  V30 32 1 11 31
M  V30 33 1 11 32
M  V30 34 1 12 33
M  V30 35 1 12 34
M  V30 36 1 13 35 CFG=3
M  V30 37 1 17 36
M  V30 38 1 18 37
M  V30 END BOND
M  V30 END CTAB
M  END
>  <Dataset>  (32) 
CF

>  <Ligand_Instance>  (32) 
188_A_501

>  <PDB_ID>  (32) 
nan

>  <Standardized_SMILES>  (32) 
[H]C1=C([H])C([C@]([H])(C(=O)N([H])C([H])([H])[H])[N@+]2([H])C([H])([H])C([H])([H])C([H])([H])[C@@]2([H])C(=O)[O-])=C([H])C([H])=C1Cl

>  <Name>  (32) 
(2S)‐1‐[(R)‐(4‐chlorophenyl)(methylcarbamoyl)methyl]pyrrolidine‐2‐carboxylic acid

>  <Pocket>  (32) 
X

>  <ATP_Site>  (32) 
0.0

>  <Peripheral>  (32) 
1.0

>  <Num_H_Atoms_ProtBoundConf>  (32) 
17.0

>  <Num_Resolved_Atoms>  (32) 
20.0

>  <Num_Not_Resolved_Atoms>  (32) 
0.0

>  <2D_Mol_H>  (32) 
<rdkit.Chem.rdchem.Mol object at 0x72a238db50e0>

>  <MW>  (32) 
296.754

>  <HBA>  (32) 
3

>  <HBD>  (32) 
2

>  <LogP>  (32) 
-1.0757

>  <NRB>  (32) 
5

>  <TPSA>  (32) 
73.67

>  <Num_Heavy_Atoms>  (32) 
20

>  <Ro5>  (32) 
[True, True, True, True, True, True]

>  <Ro5_Fulfilled>  (32) 
True

>  <Ro3>  (32) 
[True, True, True, True]

>  <Ro3_Fulfilled>  (32) 
True

>  <Fsp3>  (32) 
0.428571

>  <Fsp3_0.42>  (32) 
True

>  <Fsp3_0.45>  (32) 
False

>  <Stereogenic_Carbons>  (32) 
2

>  <C_Atoms>  (32) 
14

>  <FCStereo>  (32) 
0.142857

>  <SPS>  (32) 
466

>  <nSPS>  (32) 
23.3

>  <PBF>  (32) 
1.062126

>  <PBF_0.6>  (32) 
True

>  <nPBF>  (32) 
0.053106

>  <nPBF_0.016>  (32) 
True

>  <PMI1>  (32) 
1158.002825

>  <PMI2>  (32) 
2725.111244

>  <PMI3>  (32) 
2989.166788

>  <NPR1>  (32) 
0.3874

>  <NPR2>  (32) 
0.911662

>  <Sum_NPR>  (32) 
1.299062

>  <Sum_NPR_1.07>  (32) 
True

>  <Sum_NPR_1.2>  (32) 
True

>  <MaxAbsEStateIndex>  (32) 
12.17426

>  <MaxEStateIndex>  (32) 
12.17426

>  <MinAbsEStateIndex>  (32) 
0.198637

>  <MinEStateIndex>  (32) 
-1.096883

>  <qed>  (32) 
0.742585

>  <MolWt>  (32) 
296.754

>  <HeavyAtomMolWt>  (32) 
279.618

>  <ExactMolWt>  (32) 
296.09277

>  <NumValenceElectrons>  (32) 
108

>  <NumRadicalElectrons>  (32) 
0

>  <MaxPartialCharge>  (32) 
0.282453

>  <MinPartialCharge>  (32) 
-0.543895

>  <MaxAbsPartialCharge>  (32) 
0.543895

>  <MinAbsPartialCharge>  (32) 
0.282453

>  <FpDensityMorgan1>  (32) 
1.4

>  <FpDensityMorgan2>  (32) 
2.05

>  <FpDensityMorgan3>  (32) 
2.6

>  <BCUT2D_MWHI>  (32) 
35.495691

>  <BCUT2D_MWLOW>  (32) 
10.031646

>  <BCUT2D_CHGHI>  (32) 
2.396524

>  <BCUT2D_CHGLO>  (32) 
-2.291122

>  <BCUT2D_LOGPHI>  (32) 
2.166788

>  <BCUT2D_LOGPLOW>  (32) 
-3.16052

>  <BCUT2D_MRHI>  (32) 
6.301009

>  <BCUT2D_MRLOW>  (32) 
-0.927141

>  <AvgIpc>  (32) 
2.899699

>  <BalabanJ>  (32) 
2.346314

>  <BertzCT>  (32) 
503.645409

>  <Chi0>  (32) 
14.698306

>  <Chi0n>  (32) 
11.188131

>  <Chi0v>  (32) 
11.94406

>  <Chi1>  (32) 
9.540913

>  <Chi1n>  (32) 
6.577899

>  <Chi1v>  (32) 
6.955864

>  <Chi2n>  (32) 
4.93758

>  <Chi2v>  (32) 
5.374015

>  <Chi3n>  (32) 
3.773071

>  <Chi3v>  (32) 
4.025047

>  <Chi4n>  (32) 
2.818088

>  <Chi4v>  (32) 
2.944077

>  <HallKierAlpha>  (32) 
-1.59

>  <Ipc>  (32) 
39969.453918

>  <Kappa1>  (32) 
14.811542

>  <Kappa2>  (32) 
6.240191

>  <Kappa3>  (32) 
2.939493

>  <LabuteASA>  (32) 
122.075349

>  <PEOE_VSA1>  (32) 
20.117763

>  <PEOE_VSA10>  (32) 
6.041841

>  <PEOE_VSA11>  (32) 
6.041841

>  <PEOE_VSA12>  (32) 
0.0

>  <PEOE_VSA13>  (32) 
5.90718

>  <PEOE_VSA14>  (32) 
0.0

>  <PEOE_VSA2>  (32) 
4.794537

>  <PEOE_VSA3>  (32) 
0.0

>  <PEOE_VSA4>  (32) 
0.0

>  <PEOE_VSA5>  (32) 
0.0

>  <PEOE_VSA6>  (32) 
23.733674

>  <PEOE_VSA7>  (32) 
12.132734

>  <PEOE_VSA8>  (32) 
30.4754

>  <PEOE_VSA9>  (32) 
12.514062

>  <SMR_VSA1>  (32) 
19.595511

>  <SMR_VSA10>  (32) 
23.477425

>  <SMR_VSA2>  (32) 
0.0

>  <SMR_VSA3>  (32) 
5.316789

>  <SMR_VSA4>  (32) 
0.0

>  <SMR_VSA5>  (32) 
24.925325

>  <SMR_VSA6>  (32) 
13.592428

>  <SMR_VSA7>  (32) 
34.851553

>  <SMR_VSA8>  (32) 
0.0

>  <SMR_VSA9>  (32) 
0.0

>  <SlogP_VSA1>  (32) 
15.323226

>  <SlogP_VSA10>  (32) 
0.0

>  <SlogP_VSA11>  (32) 
0.0

>  <SlogP_VSA12>  (32) 
11.60094

>  <SlogP_VSA2>  (32) 
31.510754

>  <SlogP_VSA3>  (32) 
9.589074

>  <SlogP_VSA4>  (32) 
0.0

>  <SlogP_VSA5>  (32) 
24.446936

>  <SlogP_VSA6>  (32) 
24.265468

>  <SlogP_VSA7>  (32) 
5.022633

>  <SlogP_VSA8>  (32) 
0.0

>  <SlogP_VSA9>  (32) 
0.0

>  <EState_VSA1>  (32) 
18.052987

>  <EState_VSA10>  (32) 
14.695602

>  <EState_VSA11>  (32) 
0.0

>  <EState_VSA2>  (32) 
5.90718

>  <EState_VSA3>  (32) 
17.988211

>  <EState_VSA4>  (32) 
16.884183

>  <EState_VSA5>  (32) 
0.0

>  <EState_VSA6>  (32) 
31.31314

>  <EState_VSA7>  (32) 
0.0

>  <EState_VSA8>  (32) 
5.316789

>  <EState_VSA9>  (32) 
11.60094

>  <VSA_EState1>  (32) 
0.0

>  <VSA_EState10>  (32) 
5.85713

>  <VSA_EState2>  (32) 
24.130696

>  <VSA_EState3>  (32) 
14.417287

>  <VSA_EState4>  (32) 
0.761019

>  <VSA_EState5>  (32) 
-1.295519

>  <VSA_EState6>  (32) 
5.738553

>  <VSA_EState7>  (32) 
1.313308

>  <VSA_EState8>  (32) 
0.638254

>  <VSA_EState9>  (32) 
1.550384

>  <FractionCSP3>  (32) 
0.428571

>  <HeavyAtomCount>  (32) 
20

>  <NHOHCount>  (32) 
2

>  <NOCount>  (32) 
5

>  <NumAliphaticCarbocycles>  (32) 
0

>  <NumAliphaticHeterocycles>  (32) 
1

>  <NumAliphaticRings>  (32) 
1

>  <NumAromaticCarbocycles>  (32) 
1

>  <NumAromaticHeterocycles>  (32) 
0

>  <NAR>  (32) 
1

>  <NumHAcceptors>  (32) 
3

>  <NumHDonors>  (32) 
2

>  <NumHeteroatoms>  (32) 
6

>  <NumRotatableBonds>  (32) 
4

>  <NumSaturatedCarbocycles>  (32) 
0

>  <NumSaturatedHeterocycles>  (32) 
1

>  <NumSaturatedRings>  (32) 
1

>  <RingCount>  (32) 
2

>  <MolLogP>  (32) 
-1.0757

>  <MolMR>  (32) 
72.1184

>  <fr_Al_COO>  (32) 
1

>  <fr_Al_OH>  (32) 
0

>  <fr_Al_OH_noTert>  (32) 
0

>  <fr_ArN>  (32) 
0

>  <fr_Ar_COO>  (32) 
0

>  <fr_Ar_N>  (32) 
0

>  <fr_Ar_NH>  (32) 
0

>  <fr_Ar_OH>  (32) 
0

>  <fr_COO>  (32) 
1

>  <fr_COO2>  (32) 
1

>  <fr_C_O>  (32) 
2

>  <fr_C_O_noCOO>  (32) 
2

>  <fr_C_S>  (32) 
0

>  <fr_HOCCN>  (32) 
0

>  <fr_Imine>  (32) 
0

>  <fr_NH0>  (32) 
0

>  <fr_NH1>  (32) 
2

>  <fr_NH2>  (32) 
0

>  <fr_N_O>  (32) 
0

>  <fr_Ndealkylation1>  (32) 
1

>  <fr_Ndealkylation2>  (32) 
1

>  <fr_Nhpyrrole>  (32) 
0

>  <fr_SH>  (32) 
0

>  <fr_aldehyde>  (32) 
0

>  <fr_alkyl_carbamate>  (32) 
0

>  <fr_alkyl_halide>  (32) 
0

>  <fr_allylic_oxid>  (32) 
0

>  <fr_amide>  (32) 
1

>  <fr_amidine>  (32) 
0

>  <fr_aniline>  (32) 
0

>  <fr_aryl_methyl>  (32) 
0

>  <fr_azide>  (32) 
0

>  <fr_azo>  (32) 
0

>  <fr_barbitur>  (32) 
0

>  <fr_benzene>  (32) 
1

>  <fr_benzodiazepine>  (32) 
0

>  <fr_bicyclic>  (32) 
0

>  <fr_diazo>  (32) 
0

>  <fr_dihydropyridine>  (32) 
0

>  <fr_epoxide>  (32) 
0

>  <fr_ester>  (32) 
0

>  <fr_ether>  (32) 
0

>  <fr_furan>  (32) 
0

>  <fr_guanido>  (32) 
0

>  <fr_halogen>  (32) 
1

>  <fr_hdrzine>  (32) 
0

>  <fr_hdrzone>  (32) 
0

>  <fr_imidazole>  (32) 
0

>  <fr_imide>  (32) 
0

>  <fr_isocyan>  (32) 
0

>  <fr_isothiocyan>  (32) 
0

>  <fr_ketone>  (32) 
0

>  <fr_ketone_Topliss>  (32) 
0

>  <fr_lactam>  (32) 
0

>  <fr_lactone>  (32) 
0

>  <fr_methoxy>  (32) 
0

>  <fr_morpholine>  (32) 
0

>  <fr_nitrile>  (32) 
0

>  <fr_nitro>  (32) 
0

>  <fr_nitro_arom>  (32) 
0

>  <fr_nitro_arom_nonortho>  (32) 
0

>  <fr_nitroso>  (32) 
0

>  <fr_oxazole>  (32) 
0

>  <fr_oxime>  (32) 
0

>  <fr_para_hydroxylation>  (32) 
0

>  <fr_phenol>  (32) 
0

>  <fr_phenol_noOrthoHbond>  (32) 
0

>  <fr_phos_acid>  (32) 
0

>  <fr_phos_ester>  (32) 
0

>  <fr_piperdine>  (32) 
0

>  <fr_piperzine>  (32) 
0

>  <fr_priamide>  (32) 
0

>  <fr_prisulfonamd>  (32) 
0

>  <fr_pyridine>  (32) 
0

>  <fr_quatN>  (32) 
1

>  <fr_sulfide>  (32) 
0

>  <fr_sulfonamd>  (32) 
0

>  <fr_sulfone>  (32) 
0

>  <fr_term_acetylene>  (32) 
0

>  <fr_tetrazole>  (32) 
0

>  <fr_thiazole>  (32) 
0

>  <fr_thiocyan>  (32) 
0

>  <fr_thiophene>  (32) 
0

>  <fr_unbrch_alkane>  (32) 
0

>  <fr_urea>  (32) 
0

>  <NP-Likeness>  (32) 
-0.491267

$$$$
F189
     RDKit          3D

  0  0  0  0  0  0  0  0  0  0999 V3000
M  V30 BEGIN CTAB
M  V30 COUNTS 36 37 0 0 0
M  V30 BEGIN ATOM
M  V30 1 O 1.238958 -2.873291 -2.602601 0
M  V30 2 C 2.319492 -2.791902 -1.726210 0
M  V30 3 C 1.864519 -3.349643 -0.405993 0 CFG=1
M  V30 4 O 2.838366 -3.333775 0.569407 0
M  V30 5 C 2.253429 -2.890560 1.750093 0
M  V30 6 C 1.261126 -1.848019 1.261027 0 CFG=1
M  V30 7 N 2.008616 -0.745548 0.793660 0
M  V30 8 S 1.687103 0.777207 1.452228 0
M  V30 9 O 1.946539 0.703728 2.936046 0
M  V30 10 O 2.714504 1.739835 0.902676 0
M  V30 11 C 0.084738 1.364024 1.199317 0
M  V30 12 C -0.926249 1.093937 2.109372 0
M  V30 13 C -2.224961 1.538152 1.956911 0
M  V30 14 C -2.498467 2.277928 0.845396 0
M  V30 15 C -3.900521 2.765380 0.667656 0
M  V30 16 C -1.522204 2.568403 -0.082948 0
M  V30 17 C -0.229903 2.124416 0.072038 0
M  V30 18 C 0.640665 -2.663574 0.117398 0 CFG=2
M  V30 19 O -0.173224 -3.613833 0.713446 0
M  V30 20 H 0.918313 -1.988363 -2.909873 0
M  V30 21 H 3.091815 -3.502999 -2.121094 0
M  V30 22 H 2.764321 -1.798351 -1.687533 0
M  V30 23 H 1.623925 -4.423981 -0.594036 0
M  V30 24 H 3.053535 -2.454591 2.373120 0
M  V30 25 H 1.759950 -3.728477 2.292420 0
M  V30 26 H 0.512602 -1.622911 2.033949 0
M  V30 27 H 2.981119 -0.916612 0.534664 0
M  V30 28 H -0.641732 0.499872 2.972517 0
M  V30 29 H -2.931804 1.265775 2.732747 0
M  V30 30 H -4.604951 2.060943 1.173995 0
M  V30 31 H -4.200540 2.727626 -0.418979 0
M  V30 32 H -4.051439 3.796650 0.994149 0
M  V30 33 H -1.745428 3.156701 -0.964320 0
M  V30 34 H 0.534084 2.364720 -0.676152 0
M  V30 35 H 0.129144 -2.009143 -0.606614 0
M  V30 36 H -0.361776 -4.396596 0.137105 0
M  V30 END ATOM
M  V30 BEGIN BOND
M  V30 1 1 1 2
M  V30 2 1 2 3
M  V30 3 1 3 4
M  V30 4 1 4 5
M  V30 5 1 5 6
M  V30 6 1 6 7
M  V30 7 1 7 8
M  V30 8 2 8 9
M  V30 9 2 8 10
M  V30 10 1 8 11
M  V30 11 2 11 12
M  V30 12 1 12 13
M  V30 13 2 13 14
M  V30 14 1 14 15
M  V30 15 1 14 16
M  V30 16 2 16 17
M  V30 17 1 6 18
M  V30 18 1 18 19
M  V30 19 1 18 3
M  V30 20 1 17 11
M  V30 21 1 1 20
M  V30 22 1 2 21
M  V30 23 1 2 22
M  V30 24 1 3 23 CFG=3
M  V30 25 1 5 24
M  V30 26 1 5 25
M  V30 27 1 6 26 CFG=1
M  V30 28 1 7 27
M  V30 29 1 12 28
M  V30 30 1 13 29
M  V30 31 1 15 30
M  V30 32 1 15 31
M  V30 33 1 15 32
M  V30 34 1 16 33
M  V30 35 1 17 34
M  V30 36 1 18 35 CFG=3
M  V30 37 1 19 36
M  V30 END BOND
M  V30 END CTAB
M  END
>  <Dataset>  (33) 
CF

>  <Ligand_Instance>  (33) 
189_A_401

>  <PDB_ID>  (33) 
nan

>  <Standardized_SMILES>  (33) 
[H]OC([H])([H])[C@@]1([H])OC([H])([H])[C@@]([H])(N([H])S(=O)(=O)C2=C([H])C([H])=C(C([H])([H])[H])C([H])=C2[H])[C@]1([H])O[H]

>  <Name>  (33) 
N‐[(3R,4S,5R)‐4‐hydroxy‐5‐(hydroxymethyl)oxolan‐3‐yl]‐4‐methylbenzene‐1‐sulfonamide

>  <Pocket>  (33) 
E

>  <ATP_Site>  (33) 
0.0

>  <Peripheral>  (33) 
1.0

>  <Num_H_Atoms_ProtBoundConf>  (33) 
17.0

>  <Num_Resolved_Atoms>  (33) 
19.0

>  <Num_Not_Resolved_Atoms>  (33) 
0.0

>  <2D_Mol_H>  (33) 
<rdkit.Chem.rdchem.Mol object at 0x72a238db51c0>

>  <MW>  (33) 
287.337

>  <HBA>  (33) 
5

>  <HBD>  (33) 
3

>  <LogP>  (33) 
-0.60608

>  <NRB>  (33) 
7

>  <TPSA>  (33) 
95.86

>  <Num_Heavy_Atoms>  (33) 
19

>  <Ro5>  (33) 
[True, True, True, True, True, True]

>  <Ro5_Fulfilled>  (33) 
True

>  <Ro3>  (33) 
[True, False, True, True]

>  <Ro3_Fulfilled>  (33) 
True

>  <Fsp3>  (33) 
0.5

>  <Fsp3_0.42>  (33) 
True

>  <Fsp3_0.45>  (33) 
True

>  <Stereogenic_Carbons>  (33) 
3

>  <C_Atoms>  (33) 
12

>  <FCStereo>  (33) 
0.25

>  <SPS>  (33) 
525

>  <nSPS>  (33) 
27.631579

>  <PBF>  (33) 
1.094998

>  <PBF_0.6>  (33) 
True

>  <nPBF>  (33) 
0.057631

>  <nPBF_0.016>  (33) 
True

>  <PMI1>  (33) 
974.319721

>  <PMI2>  (33) 
2373.553632

>  <PMI3>  (33) 
2671.365681

>  <NPR1>  (33) 
0.364727

>  <NPR2>  (33) 
0.888517

>  <Sum_NPR>  (33) 
1.253244

>  <Sum_NPR_1.07>  (33) 
True

>  <Sum_NPR_1.2>  (33) 
True

>  <MaxAbsEStateIndex>  (33) 
12.099726

>  <MaxEStateIndex>  (33) 
12.099726

>  <MinAbsEStateIndex>  (33) 
0.039171

>  <MinEStateIndex>  (33) 
-3.696658

>  <qed>  (33) 
0.686669

>  <MolWt>  (33) 
287.337

>  <HeavyAtomMolWt>  (33) 
270.201

>  <ExactMolWt>  (33) 
287.082744

>  <NumValenceElectrons>  (33) 
106

>  <NumRadicalElectrons>  (33) 
0

>  <MaxPartialCharge>  (33) 
0.240487

>  <MinPartialCharge>  (33) 
-0.39357

>  <MaxAbsPartialCharge>  (33) 
0.39357

>  <MinAbsPartialCharge>  (33) 
0.240487

>  <FpDensityMorgan1>  (33) 
1.368421

>  <FpDensityMorgan2>  (33) 
2.0

>  <FpDensityMorgan3>  (33) 
2.526316

>  <BCUT2D_MWHI>  (33) 
32.233272

>  <BCUT2D_MWLOW>  (33) 
10.131554

>  <BCUT2D_CHGHI>  (33) 
2.37426

>  <BCUT2D_CHGLO>  (33) 
-2.16841

>  <BCUT2D_LOGPHI>  (33) 
2.171308

>  <BCUT2D_LOGPLOW>  (33) 
-2.443926

>  <BCUT2D_MRHI>  (33) 
7.891338

>  <BCUT2D_MRLOW>  (33) 
0.003111

>  <AvgIpc>  (33) 
2.7032

>  <BalabanJ>  (33) 
2.119022

>  <BertzCT>  (33) 
527.555654

>  <Chi0>  (33) 
14.043606

>  <Chi0n>  (33) 
10.483086

>  <Chi0v>  (33) 
11.299582

>  <Chi1>  (33) 
8.936689

>  <Chi1n>  (33) 
5.933591

>  <Chi1v>  (33) 
7.416755

>  <Chi2n>  (33) 
4.585785

>  <Chi2v>  (33) 
6.299766

>  <Chi3n>  (33) 
3.100784

>  <Chi3v>  (33) 
4.606603

>  <Chi4n>  (33) 
1.932732

>  <Chi4v>  (33) 
3.169238

>  <HallKierAlpha>  (33) 
-0.99

>  <Ipc>  (33) 
19938.803481

>  <Kappa1>  (33) 
14.419762

>  <Kappa2>  (33) 
5.557261

>  <Kappa3>  (33) 
3.126666

>  <LabuteASA>  (33) 
111.627875

>  <PEOE_VSA1>  (33) 
14.949918

>  <PEOE_VSA10>  (33) 
12.207933

>  <PEOE_VSA11>  (33) 
0.0

>  <PEOE_VSA12>  (33) 
10.023291

>  <PEOE_VSA13>  (33) 
0.0

>  <PEOE_VSA14>  (33) 
0.0

>  <PEOE_VSA2>  (33) 
0.0

>  <PEOE_VSA3>  (33) 
13.139892

>  <PEOE_VSA4>  (33) 
0.0

>  <PEOE_VSA5>  (33) 
0.0

>  <PEOE_VSA6>  (33) 
17.696186

>  <PEOE_VSA7>  (33) 
19.056471

>  <PEOE_VSA8>  (33) 
0.0

>  <PEOE_VSA9>  (33) 
24.151088

>  <SMR_VSA1>  (33) 
23.367715

>  <SMR_VSA10>  (33) 
10.023291

>  <SMR_VSA2>  (33) 
0.0

>  <SMR_VSA3>  (33) 
4.722095

>  <SMR_VSA4>  (33) 
0.0

>  <SMR_VSA5>  (33) 
30.068994

>  <SMR_VSA6>  (33) 
13.213764

>  <SMR_VSA7>  (33) 
29.82892

>  <SMR_VSA8>  (33) 
0.0

>  <SMR_VSA9>  (33) 
0.0

>  <SlogP_VSA1>  (33) 
4.722095

>  <SlogP_VSA10>  (33) 
0.0

>  <SlogP_VSA11>  (33) 
0.0

>  <SlogP_VSA12>  (33) 
0.0

>  <SlogP_VSA2>  (33) 
50.094389

>  <SlogP_VSA3>  (33) 
14.760154

>  <SlogP_VSA4>  (33) 
6.923737

>  <SlogP_VSA5>  (33) 
5.563451

>  <SlogP_VSA6>  (33) 
29.160952

>  <SlogP_VSA7>  (33) 
0.0

>  <SlogP_VSA8>  (33) 
0.0

>  <SlogP_VSA9>  (33) 
0.0

>  <EState_VSA1>  (33) 
28.273065

>  <EState_VSA10>  (33) 
13.524324

>  <EState_VSA11>  (33) 
0.0

>  <EState_VSA2>  (33) 
18.109247

>  <EState_VSA3>  (33) 
0.0

>  <EState_VSA4>  (33) 
5.563451

>  <EState_VSA5>  (33) 
12.132734

>  <EState_VSA6>  (33) 
12.132734

>  <EState_VSA7>  (33) 
6.923737

>  <EState_VSA8>  (33) 
4.722095

>  <EState_VSA9>  (33) 
9.84339

>  <VSA_EState1>  (33) 
31.691499

>  <VSA_EState10>  (33) 
0.0

>  <VSA_EState2>  (33) 
0.136804

>  <VSA_EState3>  (33) 
18.728995

>  <VSA_EState4>  (33) 
0.961601

>  <VSA_EState5>  (33) 
0.0

>  <VSA_EState6>  (33) 
5.662025

>  <VSA_EState7>  (33) 
-1.795425

>  <VSA_EState8>  (33) 
1.561159

>  <VSA_EState9>  (33) 
-3.696658

>  <FractionCSP3>  (33) 
0.5

>  <HeavyAtomCount>  (33) 
19

>  <NHOHCount>  (33) 
3

>  <NOCount>  (33) 
6

>  <NumAliphaticCarbocycles>  (33) 
0

>  <NumAliphaticHeterocycles>  (33) 
1

>  <NumAliphaticRings>  (33) 
1

>  <NumAromaticCarbocycles>  (33) 
1

>  <NumAromaticHeterocycles>  (33) 
0

>  <NAR>  (33) 
1

>  <NumHAcceptors>  (33) 
5

>  <NumHDonors>  (33) 
3

>  <NumHeteroatoms>  (33) 
7

>  <NumRotatableBonds>  (33) 
4

>  <NumSaturatedCarbocycles>  (33) 
0

>  <NumSaturatedHeterocycles>  (33) 
1

>  <NumSaturatedRings>  (33) 
1

>  <RingCount>  (33) 
2

>  <MolLogP>  (33) 
-0.60608

>  <MolMR>  (33) 
68.1211

>  <fr_Al_COO>  (33) 
0

>  <fr_Al_OH>  (33) 
2

>  <fr_Al_OH_noTert>  (33) 
2

>  <fr_ArN>  (33) 
0

>  <fr_Ar_COO>  (33) 
0

>  <fr_Ar_N>  (33) 
0

>  <fr_Ar_NH>  (33) 
0

>  <fr_Ar_OH>  (33) 
0

>  <fr_COO>  (33) 
0

>  <fr_COO2>  (33) 
0

>  <fr_C_O>  (33) 
0

>  <fr_C_O_noCOO>  (33) 
0

>  <fr_C_S>  (33) 
0

>  <fr_HOCCN>  (33) 
0

>  <fr_Imine>  (33) 
0

>  <fr_NH0>  (33) 
0

>  <fr_NH1>  (33) 
1

>  <fr_NH2>  (33) 
0

>  <fr_N_O>  (33) 
0

>  <fr_Ndealkylation1>  (33) 
0

>  <fr_Ndealkylation2>  (33) 
0

>  <fr_Nhpyrrole>  (33) 
0

>  <fr_SH>  (33) 
0

>  <fr_aldehyde>  (33) 
0

>  <fr_alkyl_carbamate>  (33) 
0

>  <fr_alkyl_halide>  (33) 
0

>  <fr_allylic_oxid>  (33) 
0

>  <fr_amide>  (33) 
0

>  <fr_amidine>  (33) 
0

>  <fr_aniline>  (33) 
0

>  <fr_aryl_methyl>  (33) 
1

>  <fr_azide>  (33) 
0

>  <fr_azo>  (33) 
0

>  <fr_barbitur>  (33) 
0

>  <fr_benzene>  (33) 
1

>  <fr_benzodiazepine>  (33) 
0

>  <fr_bicyclic>  (33) 
0

>  <fr_diazo>  (33) 
0

>  <fr_dihydropyridine>  (33) 
0

>  <fr_epoxide>  (33) 
0

>  <fr_ester>  (33) 
0

>  <fr_ether>  (33) 
1

>  <fr_furan>  (33) 
0

>  <fr_guanido>  (33) 
0

>  <fr_halogen>  (33) 
0

>  <fr_hdrzine>  (33) 
0

>  <fr_hdrzone>  (33) 
0

>  <fr_imidazole>  (33) 
0

>  <fr_imide>  (33) 
0

>  <fr_isocyan>  (33) 
0

>  <fr_isothiocyan>  (33) 
0

>  <fr_ketone>  (33) 
0

>  <fr_ketone_Topliss>  (33) 
0

>  <fr_lactam>  (33) 
0

>  <fr_lactone>  (33) 
0

>  <fr_methoxy>  (33) 
0

>  <fr_morpholine>  (33) 
0

>  <fr_nitrile>  (33) 
0

>  <fr_nitro>  (33) 
0

>  <fr_nitro_arom>  (33) 
0

>  <fr_nitro_arom_nonortho>  (33) 
0

>  <fr_nitroso>  (33) 
0

>  <fr_oxazole>  (33) 
0

>  <fr_oxime>  (33) 
0

>  <fr_para_hydroxylation>  (33) 
0

>  <fr_phenol>  (33) 
0

>  <fr_phenol_noOrthoHbond>  (33) 
0

>  <fr_phos_acid>  (33) 
0

>  <fr_phos_ester>  (33) 
0

>  <fr_piperdine>  (33) 
0

>  <fr_piperzine>  (33) 
0

>  <fr_priamide>  (33) 
0

>  <fr_prisulfonamd>  (33) 
0

>  <fr_pyridine>  (33) 
0

>  <fr_quatN>  (33) 
0

>  <fr_sulfide>  (33) 
0

>  <fr_sulfonamd>  (33) 
1

>  <fr_sulfone>  (33) 
0

>  <fr_term_acetylene>  (33) 
0

>  <fr_tetrazole>  (33) 
0

>  <fr_thiazole>  (33) 
0

>  <fr_thiocyan>  (33) 
0

>  <fr_thiophene>  (33) 
0

>  <fr_unbrch_alkane>  (33) 
0

>  <fr_urea>  (33) 
0

>  <NP-Likeness>  (33) 
-0.264733

$$$$
F203
     RDKit          3D

  0  0  0  0  0  0  0  0  0  0999 V3000
M  V30 BEGIN CTAB
M  V30 COUNTS 34 35 0 0 0
M  V30 BEGIN ATOM
M  V30 1 O -2.680283 -2.536560 0.683870 0
M  V30 2 C -2.013473 -1.468999 1.250338 0 CFG=2
M  V30 3 C -0.705407 -1.935139 1.801207 0 CFG=1
M  V30 4 C 0.266818 -0.868084 2.112504 0
M  V30 5 N 0.802044 -0.130439 1.002605 0
M  V30 6 C 1.528764 -0.780304 -0.027936 0
M  V30 7 O 1.666602 -2.012686 0.096604 0
M  V30 8 C 2.107356 -0.113148 -1.190184 0
M  V30 9 C 2.779445 -0.924446 -2.082545 0
M  V30 10 C 3.365725 -0.369215 -3.225412 0
M  V30 11 C 3.254621 1.007899 -3.436581 0
M  V30 12 F 3.827304 1.554157 -4.554058 0
M  V30 13 C 2.578867 1.811765 -2.535933 0
M  V30 14 C 2.001436 1.237887 -1.402515 0
M  V30 15 O -1.101768 -2.526085 3.004894 0
M  V30 16 C -1.975525 -1.602239 3.575945 0
M  V30 17 C -2.798851 -1.024437 2.471947 0 CFG=1
M  V30 18 N -2.925116 0.411922 2.499304 0 CHG=1 VAL=4
M  V30 19 H -3.267494 -3.018993 1.323616 0
M  V30 20 H -1.932252 -0.598343 0.573742 0
M  V30 21 H -0.268964 -2.786673 1.225557 0
M  V30 22 H 1.142866 -1.341174 2.609075 0
M  V30 23 H -0.152862 -0.169429 2.836528 0
M  V30 24 H 0.668676 0.917795 0.923705 0
M  V30 25 H 2.930863 -2.000396 -2.025851 0
M  V30 26 H 3.904743 -0.945947 -3.962412 0
M  V30 27 H 2.506933 2.890338 -2.726619 0
M  V30 28 H 1.471104 1.865423 -0.694738 0
M  V30 29 H -2.671240 -2.166170 4.238599 0
M  V30 30 H -1.474578 -0.859612 4.228749 0
M  V30 31 H -3.835144 -1.450259 2.445250 0
M  V30 32 H -3.893235 0.702157 2.165206 0
M  V30 33 H -2.290235 0.857149 1.795269 0
M  V30 34 H -2.819345 0.828798 3.458516 0
M  V30 END ATOM
M  V30 BEGIN BOND
M  V30 1 1 1 2
M  V30 2 1 2 3
M  V30 3 1 3 4
M  V30 4 1 4 5
M  V30 5 1 5 6
M  V30 6 2 6 7
M  V30 7 1 6 8
M  V30 8 2 8 9
M  V30 9 1 9 10
M  V30 10 2 10 11
M  V30 11 1 11 12
M  V30 12 1 11 13
M  V30 13 2 13 14
M  V30 14 1 3 15
M  V30 15 1 15 16
M  V30 16 1 16 17
M  V30 17 1 17 18
M  V30 18 1 17 2
M  V30 19 1 14 8
M  V30 20 1 1 19
M  V30 21 1 2 20 CFG=3
M  V30 22 1 3 21 CFG=3
M  V30 23 1 4 22
M  V30 24 1 4 23
M  V30 25 1 5 24
M  V30 26 1 9 25
M  V30 27 1 10 26
M  V30 28 1 13 27
M  V30 29 1 14 28
M  V30 30 1 16 29
M  V30 31 1 16 30
M  V30 32 1 17 31 CFG=3
M  V30 33 1 18 32
M  V30 34 1 18 33
M  V30 35 1 18 34
M  V30 END BOND
M  V30 END CTAB
M  END
>  <Dataset>  (34) 
CF

>  <Ligand_Instance>  (34) 
203_B_1

>  <PDB_ID>  (34) 
nan

>  <Standardized_SMILES>  (34) 
[H]O[C@]1([H])[C@@]([H])(C([H])([H])N([H])C(=O)C2=C([H])C([H])=C(F)C([H])=C2[H])OC([H])([H])[C@@]1([H])[N+]([H])([H])[H]

>  <Name>  (34) 
N‐{[(2R,3S,4R)‐4‐amino‐3‐hydroxyoxolan‐2‐yl]methyl}‐4‐fluorobenzamide

>  <Pocket>  (34) 
A

>  <ATP_Site>  (34) 
1.0

>  <Peripheral>  (34) 
0.0

>  <Num_H_Atoms_ProtBoundConf>  (34) 
16.0

>  <Num_Resolved_Atoms>  (34) 
18.0

>  <Num_Not_Resolved_Atoms>  (34) 
0.0

>  <2D_Mol_H>  (34) 
<rdkit.Chem.rdchem.Mol object at 0x72a238db52a0>

>  <MW>  (34) 
255.269

>  <HBA>  (34) 
3

>  <HBD>  (34) 
3

>  <LogP>  (34) 
-1.0743

>  <NRB>  (34) 
5

>  <TPSA>  (34) 
86.2

>  <Num_Heavy_Atoms>  (34) 
18

>  <Ro5>  (34) 
[True, True, True, True, True, True]

>  <Ro5_Fulfilled>  (34) 
True

>  <Ro3>  (34) 
[True, True, True, True]

>  <Ro3_Fulfilled>  (34) 
True

>  <Fsp3>  (34) 
0.416667

>  <Fsp3_0.42>  (34) 
False

>  <Fsp3_0.45>  (34) 
False

>  <Stereogenic_Carbons>  (34) 
3

>  <C_Atoms>  (34) 
12

>  <FCStereo>  (34) 
0.25

>  <SPS>  (34) 
489

>  <nSPS>  (34) 
27.166667

>  <PBF>  (34) 
0.771414

>  <PBF_0.6>  (34) 
True

>  <nPBF>  (34) 
0.042856

>  <nPBF_0.016>  (34) 
True

>  <PMI1>  (34) 
465.55914

>  <PMI2>  (34) 
3119.763705

>  <PMI3>  (34) 
3242.625633

>  <NPR1>  (34) 
0.143575

>  <NPR2>  (34) 
0.96211

>  <Sum_NPR>  (34) 
1.105685

>  <Sum_NPR_1.07>  (34) 
True

>  <Sum_NPR_1.2>  (34) 
False

>  <MaxAbsEStateIndex>  (34) 
12.684179

>  <MaxEStateIndex>  (34) 
12.684179

>  <MinAbsEStateIndex>  (34) 
0.168775

>  <MinEStateIndex>  (34) 
-0.668039

>  <qed>  (34) 
0.642291

>  <MolWt>  (34) 
255.269

>  <HeavyAtomMolWt>  (34) 
239.141

>  <ExactMolWt>  (34) 
255.113947

>  <NumValenceElectrons>  (34) 
98

>  <NumRadicalElectrons>  (34) 
0

>  <MaxPartialCharge>  (34) 
0.250874

>  <MinPartialCharge>  (34) 
-0.384007

>  <MaxAbsPartialCharge>  (34) 
0.384007

>  <MinAbsPartialCharge>  (34) 
0.250874

>  <FpDensityMorgan1>  (34) 
1.5

>  <FpDensityMorgan2>  (34) 
2.166667

>  <FpDensityMorgan3>  (34) 
2.722222

>  <BCUT2D_MWHI>  (34) 
19.142142

>  <BCUT2D_MWLOW>  (34) 
10.110611

>  <BCUT2D_CHGHI>  (34) 
2.356647

>  <BCUT2D_CHGLO>  (34) 
-2.141126

>  <BCUT2D_LOGPHI>  (34) 
2.105513

>  <BCUT2D_LOGPLOW>  (34) 
-2.666808

>  <BCUT2D_MRHI>  (34) 
5.936124

>  <BCUT2D_MRLOW>  (34) 
-0.429813

>  <AvgIpc>  (34) 
2.679462

>  <BalabanJ>  (34) 
1.868504

>  <BertzCT>  (34) 
423.835629

>  <Chi0>  (34) 
13.120956

>  <Chi0n>  (34) 
9.804447

>  <Chi0v>  (34) 
9.804447

>  <Chi1>  (34) 
8.575387

>  <Chi1n>  (34) 
5.742015

>  <Chi1v>  (34) 
5.742015

>  <Chi2n>  (34) 
4.339375

>  <Chi2v>  (34) 
4.339375

>  <Chi3n>  (34) 
2.958493

>  <Chi3v>  (34) 
2.958493

>  <Chi4n>  (34) 
1.824219

>  <Chi4v>  (34) 
1.824219

>  <HallKierAlpha>  (34) 
-1.5

>  <Ipc>  (34) 
14511.964019

>  <Kappa1>  (34) 
12.944082

>  <Kappa2>  (34) 
5.429196

>  <Kappa3>  (34) 
2.840769

>  <LabuteASA>  (34) 
103.739814

>  <PEOE_VSA1>  (34) 
20.893846

>  <PEOE_VSA10>  (34) 
30.673876

>  <PEOE_VSA11>  (34) 
0.0

>  <PEOE_VSA12>  (34) 
0.0

>  <PEOE_VSA13>  (34) 
5.90718

>  <PEOE_VSA14>  (34) 
0.0

>  <PEOE_VSA2>  (34) 
4.794537

>  <PEOE_VSA3>  (34) 
4.390415

>  <PEOE_VSA4>  (34) 
0.0

>  <PEOE_VSA5>  (34) 
0.0

>  <PEOE_VSA6>  (34) 
0.0

>  <PEOE_VSA7>  (34) 
24.265468

>  <PEOE_VSA8>  (34) 
12.108208

>  <PEOE_VSA9>  (34) 
0.0

>  <SMR_VSA1>  (34) 
24.76201

>  <SMR_VSA10>  (34) 
5.90718

>  <SMR_VSA2>  (34) 
0.0

>  <SMR_VSA3>  (34) 
5.316789

>  <SMR_VSA4>  (34) 
0.0

>  <SMR_VSA5>  (34) 
18.249774

>  <SMR_VSA6>  (34) 
13.151638

>  <SMR_VSA7>  (34) 
35.646141

>  <SMR_VSA8>  (34) 
0.0

>  <SMR_VSA9>  (34) 
0.0

>  <SlogP_VSA1>  (34) 
11.050456

>  <SlogP_VSA10>  (34) 
4.390415

>  <SlogP_VSA11>  (34) 
0.0

>  <SlogP_VSA12>  (34) 
0.0

>  <SlogP_VSA2>  (34) 
42.415119

>  <SlogP_VSA3>  (34) 
4.736863

>  <SlogP_VSA4>  (34) 
5.817221

>  <SlogP_VSA5>  (34) 
10.357989

>  <SlogP_VSA6>  (34) 
24.265468

>  <SlogP_VSA7>  (34) 
0.0

>  <SlogP_VSA8>  (34) 
0.0

>  <SlogP_VSA9>  (34) 
0.0

>  <EState_VSA1>  (34) 
12.207933

>  <EState_VSA10>  (34) 
14.29148

>  <EState_VSA11>  (34) 
0.0

>  <EState_VSA2>  (34) 
24.310998

>  <EState_VSA3>  (34) 
12.170333

>  <EState_VSA4>  (34) 
0.0

>  <EState_VSA5>  (34) 
24.265468

>  <EState_VSA6>  (34) 
0.0

>  <EState_VSA7>  (34) 
0.0

>  <EState_VSA8>  (34) 
11.050456

>  <EState_VSA9>  (34) 
4.736863

>  <VSA_EState1>  (34) 
17.97982

>  <VSA_EState10>  (34) 
0.0

>  <VSA_EState2>  (34) 
11.714512

>  <VSA_EState3>  (34) 
12.326074

>  <VSA_EState4>  (34) 
4.104783

>  <VSA_EState5>  (34) 
-0.708972

>  <VSA_EState6>  (34) 
5.086393

>  <VSA_EState7>  (34) 
-1.101467

>  <VSA_EState8>  (34) 
0.598858

>  <VSA_EState9>  (34) 
0.0

>  <FractionCSP3>  (34) 
0.416667

>  <HeavyAtomCount>  (34) 
18

>  <NHOHCount>  (34) 
5

>  <NOCount>  (34) 
5

>  <NumAliphaticCarbocycles>  (34) 
0

>  <NumAliphaticHeterocycles>  (34) 
1

>  <NumAliphaticRings>  (34) 
1

>  <NumAromaticCarbocycles>  (34) 
1

>  <NumAromaticHeterocycles>  (34) 
0

>  <NAR>  (34) 
1

>  <NumHAcceptors>  (34) 
3

>  <NumHDonors>  (34) 
3

>  <NumHeteroatoms>  (34) 
6

>  <NumRotatableBonds>  (34) 
3

>  <NumSaturatedCarbocycles>  (34) 
0

>  <NumSaturatedHeterocycles>  (34) 
1

>  <NumSaturatedRings>  (34) 
1

>  <RingCount>  (34) 
2

>  <MolLogP>  (34) 
-1.0743

>  <MolMR>  (34) 
61.1561

>  <fr_Al_COO>  (34) 
0

>  <fr_Al_OH>  (34) 
1

>  <fr_Al_OH_noTert>  (34) 
1

>  <fr_ArN>  (34) 
0

>  <fr_Ar_COO>  (34) 
0

>  <fr_Ar_N>  (34) 
0

>  <fr_Ar_NH>  (34) 
0

>  <fr_Ar_OH>  (34) 
0

>  <fr_COO>  (34) 
0

>  <fr_COO2>  (34) 
0

>  <fr_C_O>  (34) 
1

>  <fr_C_O_noCOO>  (34) 
1

>  <fr_C_S>  (34) 
0

>  <fr_HOCCN>  (34) 
0

>  <fr_Imine>  (34) 
0

>  <fr_NH0>  (34) 
0

>  <fr_NH1>  (34) 
1

>  <fr_NH2>  (34) 
0

>  <fr_N_O>  (34) 
0

>  <fr_Ndealkylation1>  (34) 
0

>  <fr_Ndealkylation2>  (34) 
0

>  <fr_Nhpyrrole>  (34) 
0

>  <fr_SH>  (34) 
0

>  <fr_aldehyde>  (34) 
0

>  <fr_alkyl_carbamate>  (34) 
0

>  <fr_alkyl_halide>  (34) 
0

>  <fr_allylic_oxid>  (34) 
0

>  <fr_amide>  (34) 
1

>  <fr_amidine>  (34) 
0

>  <fr_aniline>  (34) 
0

>  <fr_aryl_methyl>  (34) 
0

>  <fr_azide>  (34) 
0

>  <fr_azo>  (34) 
0

>  <fr_barbitur>  (34) 
0

>  <fr_benzene>  (34) 
1

>  <fr_benzodiazepine>  (34) 
0

>  <fr_bicyclic>  (34) 
0

>  <fr_diazo>  (34) 
0

>  <fr_dihydropyridine>  (34) 
0

>  <fr_epoxide>  (34) 
0

>  <fr_ester>  (34) 
0

>  <fr_ether>  (34) 
1

>  <fr_furan>  (34) 
0

>  <fr_guanido>  (34) 
0

>  <fr_halogen>  (34) 
1

>  <fr_hdrzine>  (34) 
0

>  <fr_hdrzone>  (34) 
0

>  <fr_imidazole>  (34) 
0

>  <fr_imide>  (34) 
0

>  <fr_isocyan>  (34) 
0

>  <fr_isothiocyan>  (34) 
0

>  <fr_ketone>  (34) 
0

>  <fr_ketone_Topliss>  (34) 
0

>  <fr_lactam>  (34) 
0

>  <fr_lactone>  (34) 
0

>  <fr_methoxy>  (34) 
0

>  <fr_morpholine>  (34) 
0

>  <fr_nitrile>  (34) 
0

>  <fr_nitro>  (34) 
0

>  <fr_nitro_arom>  (34) 
0

>  <fr_nitro_arom_nonortho>  (34) 
0

>  <fr_nitroso>  (34) 
0

>  <fr_oxazole>  (34) 
0

>  <fr_oxime>  (34) 
0

>  <fr_para_hydroxylation>  (34) 
0

>  <fr_phenol>  (34) 
0

>  <fr_phenol_noOrthoHbond>  (34) 
0

>  <fr_phos_acid>  (34) 
0

>  <fr_phos_ester>  (34) 
0

>  <fr_piperdine>  (34) 
0

>  <fr_piperzine>  (34) 
0

>  <fr_priamide>  (34) 
0

>  <fr_prisulfonamd>  (34) 
0

>  <fr_pyridine>  (34) 
0

>  <fr_quatN>  (34) 
1

>  <fr_sulfide>  (34) 
0

>  <fr_sulfonamd>  (34) 
0

>  <fr_sulfone>  (34) 
0

>  <fr_term_acetylene>  (34) 
0

>  <fr_tetrazole>  (34) 
0

>  <fr_thiazole>  (34) 
0

>  <fr_thiocyan>  (34) 
0

>  <fr_thiophene>  (34) 
0

>  <fr_unbrch_alkane>  (34) 
0

>  <fr_urea>  (34) 
0

>  <NP-Likeness>  (34) 
-0.434845

$$$$
F225
     RDKit          3D

  0  0  0  0  0  0  0  0  0  0999 V3000
M  V30 BEGIN CTAB
M  V30 COUNTS 36 37 0 0 0
M  V30 BEGIN ATOM
M  V30 1 O -2.816020 -1.862470 0.725136 0
M  V30 2 C -2.002328 -0.744982 0.834191 0
M  V30 3 N -0.907759 -0.648489 0.174598 0
M  V30 4 C -0.438223 -1.660129 -0.708122 0
M  V30 5 C 0.250326 -2.826716 -0.099689 0 CFG=1
M  V30 6 O 0.605172 -3.644025 -1.209484 0
M  V30 7 C 1.651566 -2.956194 -1.830679 0
M  V30 8 C 2.348603 -2.134186 -0.755193 0 CFG=2
M  V30 9 O 3.710813 -2.438351 -0.699157 0
M  V30 10 C 1.607701 -2.617265 0.463651 0 CFG=1
M  V30 11 N 1.725693 -1.828744 1.633870 0 CHG=1 VAL=4
M  V30 12 N -2.303174 0.380675 1.677318 0
M  V30 13 C -1.577758 1.616898 1.523610 0
M  V30 14 C -1.867123 2.765345 0.847198 0
M  V30 15 C -0.957923 3.790014 0.870438 0
M  V30 16 C 0.240776 3.721506 1.545403 0
M  V30 17 C 0.528562 2.566433 2.224309 0
M  V30 18 C -0.372681 1.507988 2.220861 0
M  V30 19 H -2.657108 -2.500847 -0.061760 0
M  V30 20 H 0.266736 -1.124373 -1.412556 0
M  V30 21 H -1.215298 -2.050719 -1.402501 0
M  V30 22 H -0.406808 -3.449872 0.538942 0
M  V30 23 H 1.337718 -2.378648 -2.703105 0
M  V30 24 H 2.380367 -3.737778 -2.152820 0
M  V30 25 H 2.202400 -1.055692 -0.849830 0
M  V30 26 H 4.184615 -1.654554 -0.302513 0
M  V30 27 H 2.023025 -3.658016 0.644597 0
M  V30 28 H 2.352822 -1.008976 1.452954 0
M  V30 29 H 0.840126 -1.503992 2.069668 0
M  V30 30 H 2.215886 -2.395341 2.378425 0
M  V30 31 H -3.069876 0.258570 2.399399 0
M  V30 32 H -2.824854 2.700777 0.361222 0
M  V30 33 H -1.253007 4.679713 0.309233 0
M  V30 34 H 0.912632 4.555290 1.526833 0
M  V30 35 H 1.494355 2.540777 2.754233 0
M  V30 36 H 0.003713 0.669501 2.806305 0
M  V30 END ATOM
M  V30 BEGIN BOND
M  V30 1 1 1 2
M  V30 2 2 2 3
M  V30 3 1 3 4
M  V30 4 1 4 5
M  V30 5 1 5 6
M  V30 6 1 6 7
M  V30 7 1 7 8
M  V30 8 1 8 9
M  V30 9 1 8 10
M  V30 10 1 10 11
M  V30 11 1 2 12
M  V30 12 1 12 13
M  V30 13 2 13 14
M  V30 14 1 14 15
M  V30 15 2 15 16
M  V30 16 1 16 17
M  V30 17 2 17 18
M  V30 18 1 10 5
M  V30 19 1 18 13
M  V30 20 1 1 19
M  V30 21 1 4 20
M  V30 22 1 4 21
M  V30 23 1 5 22 CFG=1
M  V30 24 1 7 23
M  V30 25 1 7 24
M  V30 26 1 8 25 CFG=3
M  V30 27 1 9 26
M  V30 28 1 10 27 CFG=1
M  V30 29 1 11 28
M  V30 30 1 11 29
M  V30 31 1 11 30
M  V30 32 1 12 31
M  V30 33 1 14 32
M  V30 34 1 15 33
M  V30 35 1 16 34
M  V30 36 1 17 35
M  V30 37 1 18 36
M  V30 END BOND
M  V30 END CTAB
M  END
>  <Dataset>  (35) 
CF

>  <Ligand_Instance>  (35) 
225_L_401

>  <PDB_ID>  (35) 
nan

>  <Standardized_SMILES>  (35) 
[H]O/C(=N\C([H])([H])[C@@]1([H])OC([H])([H])[C@]([H])(O[H])[C@@]1([H])[N+]([H])([H])[H])N([H])C1=C([H])C([H])=C([H])C([H])=C1[H]

>  <Name>  (35) 
3‐{[(2R,3R,4R)‐3‐amino‐4‐hydroxyoxolan‐2‐yl]methyl}‐1‐phenylurea

>  <Pocket>  (35) 
A

>  <ATP_Site>  (35) 
1.0

>  <Peripheral>  (35) 
1.0

>  <Num_H_Atoms_ProtBoundConf>  (35) 
18.0

>  <Num_Resolved_Atoms>  (35) 
18.0

>  <Num_Not_Resolved_Atoms>  (35) 
0.0

>  <2D_Mol_H>  (35) 
<rdkit.Chem.rdchem.Mol object at 0x72a238db5380>

>  <MW>  (35) 
252.294

>  <HBA>  (35) 
4

>  <HBD>  (35) 
4

>  <LogP>  (35) 
-0.6173

>  <NRB>  (35) 
5

>  <TPSA>  (35) 
101.72

>  <Num_Heavy_Atoms>  (35) 
18

>  <Ro5>  (35) 
[True, True, True, True, True, True]

>  <Ro5_Fulfilled>  (35) 
True

>  <Ro3>  (35) 
[True, False, False, True]

>  <Ro3_Fulfilled>  (35) 
False

>  <Fsp3>  (35) 
0.416667

>  <Fsp3_0.42>  (35) 
False

>  <Fsp3_0.45>  (35) 
False

>  <Stereogenic_Carbons>  (35) 
3

>  <C_Atoms>  (35) 
12

>  <FCStereo>  (35) 
0.25

>  <SPS>  (35) 
510

>  <nSPS>  (35) 
28.333333

>  <PBF>  (35) 
1.017047

>  <PBF_0.6>  (35) 
True

>  <nPBF>  (35) 
0.056503

>  <nPBF_0.016>  (35) 
True

>  <PMI1>  (35) 
765.744

>  <PMI2>  (35) 
2023.537497

>  <PMI3>  (35) 
2444.030673

>  <NPR1>  (35) 
0.313312

>  <NPR2>  (35) 
0.827951

>  <Sum_NPR>  (35) 
1.141263

>  <Sum_NPR_1.07>  (35) 
True

>  <Sum_NPR_1.2>  (35) 
False

>  <MaxAbsEStateIndex>  (35) 
9.615534

>  <MaxEStateIndex>  (35) 
9.615534

>  <MinAbsEStateIndex>  (35) 
0.168158

>  <MinEStateIndex>  (35) 
-0.546828

>  <qed>  (35) 
0.425238

>  <MolWt>  (35) 
252.294

>  <HeavyAtomMolWt>  (35) 
234.15

>  <ExactMolWt>  (35) 
252.134268

>  <NumValenceElectrons>  (35) 
98

>  <NumRadicalElectrons>  (35) 
0

>  <MaxPartialCharge>  (35) 
0.286259

>  <MinPartialCharge>  (35) 
-0.480614

>  <MaxAbsPartialCharge>  (35) 
0.480614

>  <MinAbsPartialCharge>  (35) 
0.286259

>  <FpDensityMorgan1>  (35) 
1.444444

>  <FpDensityMorgan2>  (35) 
2.166667

>  <FpDensityMorgan3>  (35) 
2.777778

>  <BCUT2D_MWHI>  (35) 
16.511555

>  <BCUT2D_MWLOW>  (35) 
10.113829

>  <BCUT2D_CHGHI>  (35) 
2.357582

>  <BCUT2D_CHGLO>  (35) 
-2.102818

>  <BCUT2D_LOGPHI>  (35) 
2.110347

>  <BCUT2D_LOGPLOW>  (35) 
-2.690764

>  <BCUT2D_MRHI>  (35) 
5.866696

>  <BCUT2D_MRLOW>  (35) 
-0.438443

>  <AvgIpc>  (35) 
2.68777

>  <BalabanJ>  (35) 
1.859741

>  <BertzCT>  (35) 
410.288479

>  <Chi0>  (35) 
12.957819

>  <Chi0n>  (35) 
9.990012

>  <Chi0v>  (35) 
9.990012

>  <Chi1>  (35) 
8.664704

>  <Chi1n>  (35) 
5.848113

>  <Chi1v>  (35) 
5.848113

>  <Chi2n>  (35) 
4.258308

>  <Chi2v>  (35) 
4.258308

>  <Chi3n>  (35) 
2.903758

>  <Chi3v>  (35) 
2.903758

>  <Chi4n>  (35) 
1.771808

>  <Chi4v>  (35) 
1.771808

>  <HallKierAlpha>  (35) 
-1.63

>  <Ipc>  (35) 
15933.101944

>  <Kappa1>  (35) 
12.817307

>  <Kappa2>  (35) 
5.811256

>  <Kappa3>  (35) 
3.191545

>  <LabuteASA>  (35) 
105.102313

>  <PEOE_VSA1>  (35) 
26.000374

>  <PEOE_VSA10>  (35) 
18.249774

>  <PEOE_VSA11>  (35) 
0.0

>  <PEOE_VSA12>  (35) 
0.0

>  <PEOE_VSA13>  (35) 
6.02168

>  <PEOE_VSA14>  (35) 
0.0

>  <PEOE_VSA2>  (35) 
0.0

>  <PEOE_VSA3>  (35) 
4.992405

>  <PEOE_VSA4>  (35) 
0.0

>  <PEOE_VSA5>  (35) 
0.0

>  <PEOE_VSA6>  (35) 
18.199101

>  <PEOE_VSA7>  (35) 
12.132734

>  <PEOE_VSA8>  (35) 
5.687386

>  <PEOE_VSA9>  (35) 
13.151638

>  <SMR_VSA1>  (35) 
20.683585

>  <SMR_VSA10>  (35) 
11.709066

>  <SMR_VSA2>  (35) 
0.0

>  <SMR_VSA3>  (35) 
0.0

>  <SMR_VSA4>  (35) 
4.992405

>  <SMR_VSA5>  (35) 
18.249774

>  <SMR_VSA6>  (35) 
18.468427

>  <SMR_VSA7>  (35) 
30.331835

>  <SMR_VSA8>  (35) 
0.0

>  <SMR_VSA9>  (35) 
0.0

>  <SlogP_VSA1>  (35) 
11.050456

>  <SlogP_VSA10>  (35) 
5.687386

>  <SlogP_VSA11>  (35) 
0.0

>  <SlogP_VSA12>  (35) 
0.0

>  <SlogP_VSA2>  (35) 
47.636147

>  <SlogP_VSA3>  (35) 
4.736863

>  <SlogP_VSA4>  (35) 
0.0

>  <SlogP_VSA5>  (35) 
0.0

>  <SlogP_VSA6>  (35) 
35.32424

>  <SlogP_VSA7>  (35) 
0.0

>  <SlogP_VSA8>  (35) 
0.0

>  <SlogP_VSA9>  (35) 
0.0

>  <EState_VSA1>  (35) 
6.103966

>  <EState_VSA10>  (35) 
10.213055

>  <EState_VSA11>  (35) 
0.0

>  <EState_VSA2>  (35) 
31.319126

>  <EState_VSA3>  (35) 
0.0

>  <EState_VSA4>  (35) 
5.687386

>  <EState_VSA5>  (35) 
0.0

>  <EState_VSA6>  (35) 
0.0

>  <EState_VSA7>  (35) 
30.331835

>  <EState_VSA8>  (35) 
16.042861

>  <EState_VSA9>  (35) 
4.736863

>  <VSA_EState1>  (35) 
5.319614

>  <VSA_EState10>  (35) 
0.0

>  <VSA_EState2>  (35) 
3.971288

>  <VSA_EState3>  (35) 
21.828939

>  <VSA_EState4>  (35) 
4.57698

>  <VSA_EState5>  (35) 
0.0

>  <VSA_EState6>  (35) 
8.879904

>  <VSA_EState7>  (35) 
-0.797085

>  <VSA_EState8>  (35) 
0.553693

>  <VSA_EState9>  (35) 
0.0

>  <FractionCSP3>  (35) 
0.416667

>  <HeavyAtomCount>  (35) 
18

>  <NHOHCount>  (35) 
6

>  <NOCount>  (35) 
6

>  <NumAliphaticCarbocycles>  (35) 
0

>  <NumAliphaticHeterocycles>  (35) 
1

>  <NumAliphaticRings>  (35) 
1

>  <NumAromaticCarbocycles>  (35) 
1

>  <NumAromaticHeterocycles>  (35) 
0

>  <NAR>  (35) 
1

>  <NumHAcceptors>  (35) 
3

>  <NumHDonors>  (35) 
4

>  <NumHeteroatoms>  (35) 
6

>  <NumRotatableBonds>  (35) 
3

>  <NumSaturatedCarbocycles>  (35) 
0

>  <NumSaturatedHeterocycles>  (35) 
1

>  <NumSaturatedRings>  (35) 
1

>  <RingCount>  (35) 
2

>  <MolLogP>  (35) 
-0.6173

>  <MolMR>  (35) 
67.4184

>  <fr_Al_COO>  (35) 
0

>  <fr_Al_OH>  (35) 
2

>  <fr_Al_OH_noTert>  (35) 
2

>  <fr_ArN>  (35) 
0

>  <fr_Ar_COO>  (35) 
0

>  <fr_Ar_N>  (35) 
0

>  <fr_Ar_NH>  (35) 
0

>  <fr_Ar_OH>  (35) 
0

>  <fr_COO>  (35) 
0

>  <fr_COO2>  (35) 
0

>  <fr_C_O>  (35) 
0

>  <fr_C_O_noCOO>  (35) 
0

>  <fr_C_S>  (35) 
0

>  <fr_HOCCN>  (35) 
0

>  <fr_Imine>  (35) 
1

>  <fr_NH0>  (35) 
1

>  <fr_NH1>  (35) 
1

>  <fr_NH2>  (35) 
0

>  <fr_N_O>  (35) 
0

>  <fr_Ndealkylation1>  (35) 
0

>  <fr_Ndealkylation2>  (35) 
0

>  <fr_Nhpyrrole>  (35) 
0

>  <fr_SH>  (35) 
0

>  <fr_aldehyde>  (35) 
0

>  <fr_alkyl_carbamate>  (35) 
0

>  <fr_alkyl_halide>  (35) 
0

>  <fr_allylic_oxid>  (35) 
0

>  <fr_amide>  (35) 
0

>  <fr_amidine>  (35) 
1

>  <fr_aniline>  (35) 
1

>  <fr_aryl_methyl>  (35) 
0

>  <fr_azide>  (35) 
0

>  <fr_azo>  (35) 
0

>  <fr_barbitur>  (35) 
0

>  <fr_benzene>  (35) 
1

>  <fr_benzodiazepine>  (35) 
0

>  <fr_bicyclic>  (35) 
0

>  <fr_diazo>  (35) 
0

>  <fr_dihydropyridine>  (35) 
0

>  <fr_epoxide>  (35) 
0

>  <fr_ester>  (35) 
0

>  <fr_ether>  (35) 
1

>  <fr_furan>  (35) 
0

>  <fr_guanido>  (35) 
0

>  <fr_halogen>  (35) 
0

>  <fr_hdrzine>  (35) 
0

>  <fr_hdrzone>  (35) 
0

>  <fr_imidazole>  (35) 
0

>  <fr_imide>  (35) 
0

>  <fr_isocyan>  (35) 
0

>  <fr_isothiocyan>  (35) 
0

>  <fr_ketone>  (35) 
0

>  <fr_ketone_Topliss>  (35) 
0

>  <fr_lactam>  (35) 
0

>  <fr_lactone>  (35) 
0

>  <fr_methoxy>  (35) 
0

>  <fr_morpholine>  (35) 
0

>  <fr_nitrile>  (35) 
0

>  <fr_nitro>  (35) 
0

>  <fr_nitro_arom>  (35) 
0

>  <fr_nitro_arom_nonortho>  (35) 
0

>  <fr_nitroso>  (35) 
0

>  <fr_oxazole>  (35) 
0

>  <fr_oxime>  (35) 
0

>  <fr_para_hydroxylation>  (35) 
1

>  <fr_phenol>  (35) 
0

>  <fr_phenol_noOrthoHbond>  (35) 
0

>  <fr_phos_acid>  (35) 
0

>  <fr_phos_ester>  (35) 
0

>  <fr_piperdine>  (35) 
0

>  <fr_piperzine>  (35) 
0

>  <fr_priamide>  (35) 
0

>  <fr_prisulfonamd>  (35) 
0

>  <fr_pyridine>  (35) 
0

>  <fr_quatN>  (35) 
1

>  <fr_sulfide>  (35) 
0

>  <fr_sulfonamd>  (35) 
0

>  <fr_sulfone>  (35) 
0

>  <fr_term_acetylene>  (35) 
0

>  <fr_tetrazole>  (35) 
0

>  <fr_thiazole>  (35) 
0

>  <fr_thiocyan>  (35) 
0

>  <fr_thiophene>  (35) 
0

>  <fr_unbrch_alkane>  (35) 
0

>  <fr_urea>  (35) 
0

>  <NP-Likeness>  (35) 
0.236155

$$$$
F225
     RDKit          3D

  0  0  0  0  0  0  0  0  0  0999 V3000
M  V30 BEGIN CTAB
M  V30 COUNTS 36 37 0 0 0
M  V30 BEGIN ATOM
M  V30 1 O 0.514153 -5.435493 -0.294718 0
M  V30 2 C -0.456271 -4.940178 0.575379 0 CFG=1
M  V30 3 C 0.004515 -5.017699 2.018917 0
M  V30 4 O 0.649170 -3.849799 2.311115 0
M  V30 5 C 0.729310 -3.051101 1.204190 0 CFG=2
M  V30 6 C 0.740412 -1.576761 1.521598 0
M  V30 7 N 0.828037 -0.869733 0.254617 0
M  V30 8 C 0.845013 0.523913 0.442231 0
M  V30 9 O 0.786979 1.001862 1.607061 0
M  V30 10 N 0.925646 1.476471 -0.619064 0
M  V30 11 C 0.942272 2.889442 -0.418436 0
M  V30 12 C 2.031912 3.715869 -0.235402 0
M  V30 13 C 1.829518 5.070825 -0.056277 0
M  V30 14 C 0.576117 5.637195 -0.052493 0
M  V30 15 C -0.504764 4.800454 -0.236448 0
M  V30 16 C -0.347146 3.424943 -0.421200 0
M  V30 17 C -0.501737 -3.432833 0.406123 0 CFG=2
M  V30 18 N -1.718043 -2.977130 1.060300 0 CHG=1 VAL=4
M  V30 19 H 0.448391 -5.029461 -1.197362 0
M  V30 20 H -1.453082 -5.400184 0.436890 0
M  V30 21 H 0.570837 -5.947277 2.200883 0
M  V30 22 H -0.935953 -5.030203 2.639730 0
M  V30 23 H 1.612876 -3.267511 0.568290 0
M  V30 24 H 1.598160 -1.365931 2.179277 0
M  V30 25 H -0.174452 -1.263880 2.064176 0
M  V30 26 H 0.877955 -1.244861 -0.734852 0
M  V30 27 H 0.974905 1.103260 -1.596185 0
M  V30 28 H 2.958237 3.179765 -0.254811 0
M  V30 29 H 2.721431 5.655062 0.080493 0
M  V30 30 H 0.443230 6.701350 0.089772 0
M  V30 31 H -1.499334 5.272770 -0.230239 0
M  V30 32 H -1.268775 2.902297 -0.551094 0
M  V30 33 H -0.440813 -3.123603 -0.640554 0
M  V30 34 H -2.535031 -3.557877 0.765455 0
M  V30 35 H -1.943659 -1.981141 0.817812 0
M  V30 36 H -1.616348 -3.119692 2.089812 0
M  V30 END ATOM
M  V30 BEGIN BOND
M  V30 1 1 1 2
M  V30 2 1 2 3
M  V30 3 1 3 4
M  V30 4 1 4 5
M  V30 5 1 5 6
M  V30 6 1 6 7
M  V30 7 1 7 8
M  V30 8 2 8 9
M  V30 9 1 8 10
M  V30 10 1 10 11
M  V30 11 2 11 12
M  V30 12 1 12 13
M  V30 13 2 13 14
M  V30 14 1 14 15
M  V30 15 2 15 16
M  V30 16 1 5 17
M  V30 17 1 17 18
M  V30 18 1 17 2
M  V30 19 1 16 11
M  V30 20 1 1 19
M  V30 21 1 2 20 CFG=1
M  V30 22 1 3 21
M  V30 23 1 3 22
M  V30 24 1 5 23 CFG=3
M  V30 25 1 6 24
M  V30 26 1 6 25
M  V30 27 1 7 26
M  V30 28 1 10 27
M  V30 29 1 12 28
M  V30 30 1 13 29
M  V30 31 1 14 30
M  V30 32 1 15 31
M  V30 33 1 16 32
M  V30 34 1 17 33 CFG=3
M  V30 35 1 18 34
M  V30 36 1 18 35
M  V30 37 1 18 36
M  V30 END BOND
M  V30 END CTAB
M  END
>  <Dataset>  (36) 
CF

>  <Ligand_Instance>  (36) 
225_L_501

>  <PDB_ID>  (36) 
nan

>  <Standardized_SMILES>  (36) 
[H]O[C@@]1([H])C([H])([H])O[C@]([H])(C([H])([H])N([H])C(=O)N([H])C2=C([H])C([H])=C([H])C([H])=C2[H])[C@]1([H])[N+]([H])([H])[H]

>  <Name>  (36) 
3‐{[(2R,3R,4R)‐3‐amino‐4‐hydroxyoxolan‐2‐yl]methyl}‐1‐phenylurea

>  <Pocket>  (36) 
X

>  <ATP_Site>  (36) 
1.0

>  <Peripheral>  (36) 
1.0

>  <Num_H_Atoms_ProtBoundConf>  (36) 
18.0

>  <Num_Resolved_Atoms>  (36) 
18.0

>  <Num_Not_Resolved_Atoms>  (36) 
0.0

>  <2D_Mol_H>  (36) 
<rdkit.Chem.rdchem.Mol object at 0x72a238db5460>

>  <MW>  (36) 
252.294

>  <HBA>  (36) 
3

>  <HBD>  (36) 
4

>  <LogP>  (36) 
-0.8217

>  <NRB>  (36) 
5

>  <TPSA>  (36) 
98.23

>  <Num_Heavy_Atoms>  (36) 
18

>  <Ro5>  (36) 
[True, True, True, True, True, True]

>  <Ro5_Fulfilled>  (36) 
True

>  <Ro3>  (36) 
[True, True, False, True]

>  <Ro3_Fulfilled>  (36) 
True

>  <Fsp3>  (36) 
0.416667

>  <Fsp3_0.42>  (36) 
False

>  <Fsp3_0.45>  (36) 
False

>  <Stereogenic_Carbons>  (36) 
3

>  <C_Atoms>  (36) 
12

>  <FCStereo>  (36) 
0.25

>  <SPS>  (36) 
484

>  <nSPS>  (36) 
26.888889

>  <PBF>  (36) 
0.747303

>  <PBF_0.6>  (36) 
True

>  <nPBF>  (36) 
0.041517

>  <nPBF_0.016>  (36) 
True

>  <PMI1>  (36) 
346.97076

>  <PMI2>  (36) 
3662.377619

>  <PMI3>  (36) 
3700.46111

>  <NPR1>  (36) 
0.093764

>  <NPR2>  (36) 
0.989708

>  <Sum_NPR>  (36) 
1.083473

>  <Sum_NPR_1.07>  (36) 
True

>  <Sum_NPR_1.2>  (36) 
False

>  <MaxAbsEStateIndex>  (36) 
11.59668

>  <MaxEStateIndex>  (36) 
11.59668

>  <MinAbsEStateIndex>  (36) 
0.206458

>  <MinEStateIndex>  (36) 
-0.547237

>  <qed>  (36) 
0.565341

>  <MolWt>  (36) 
252.294

>  <HeavyAtomMolWt>  (36) 
234.15

>  <ExactMolWt>  (36) 
252.134268

>  <NumValenceElectrons>  (36) 
98

>  <NumRadicalElectrons>  (36) 
0

>  <MaxPartialCharge>  (36) 
0.318829

>  <MinPartialCharge>  (36) 
-0.384376

>  <MaxAbsPartialCharge>  (36) 
0.384376

>  <MinAbsPartialCharge>  (36) 
0.318829

>  <FpDensityMorgan1>  (36) 
1.444444

>  <FpDensityMorgan2>  (36) 
2.166667

>  <FpDensityMorgan3>  (36) 
2.777778

>  <BCUT2D_MWHI>  (36) 
16.511587

>  <BCUT2D_MWLOW>  (36) 
10.1111

>  <BCUT2D_CHGHI>  (36) 
2.359385

>  <BCUT2D_CHGLO>  (36) 
-2.138818

>  <BCUT2D_LOGPHI>  (36) 
2.097146

>  <BCUT2D_LOGPLOW>  (36) 
-2.698798

>  <BCUT2D_MRHI>  (36) 
5.886201

>  <BCUT2D_MRLOW>  (36) 
-0.438642

>  <AvgIpc>  (36) 
2.68777

>  <BalabanJ>  (36) 
1.755149

>  <BertzCT>  (36) 
398.813926

>  <Chi0>  (36) 
12.957819

>  <Chi0n>  (36) 
10.003833

>  <Chi0v>  (36) 
10.003833

>  <Chi1>  (36) 
8.664704

>  <Chi1n>  (36) 
5.892349

>  <Chi1v>  (36) 
5.892349

>  <Chi2n>  (36) 
4.304038

>  <Chi2v>  (36) 
4.304038

>  <Chi3n>  (36) 
2.94829

>  <Chi3v>  (36) 
2.94829

>  <Chi4n>  (36) 
1.81752

>  <Chi4v>  (36) 
1.81752

>  <HallKierAlpha>  (36) 
-1.63

>  <Ipc>  (36) 
15933.101944

>  <Kappa1>  (36) 
12.817307

>  <Kappa2>  (36) 
5.811256

>  <Kappa3>  (36) 
3.191545

>  <LabuteASA>  (36) 
105.124141

>  <PEOE_VSA1>  (36) 
26.210635

>  <PEOE_VSA10>  (36) 
18.249774

>  <PEOE_VSA11>  (36) 
0.0

>  <PEOE_VSA12>  (36) 
0.0

>  <PEOE_VSA13>  (36) 
0.0

>  <PEOE_VSA14>  (36) 
6.031115

>  <PEOE_VSA2>  (36) 
0.0

>  <PEOE_VSA3>  (36) 
4.794537

>  <PEOE_VSA4>  (36) 
0.0

>  <PEOE_VSA5>  (36) 
0.0

>  <PEOE_VSA6>  (36) 
18.199101

>  <PEOE_VSA7>  (36) 
12.132734

>  <PEOE_VSA8>  (36) 
5.687386

>  <PEOE_VSA9>  (36) 
13.151638

>  <SMR_VSA1>  (36) 
20.371595

>  <SMR_VSA10>  (36) 
11.718501

>  <SMR_VSA2>  (36) 
0.0

>  <SMR_VSA3>  (36) 
5.316789

>  <SMR_VSA4>  (36) 
0.0

>  <SMR_VSA5>  (36) 
18.249774

>  <SMR_VSA6>  (36) 
18.468427

>  <SMR_VSA7>  (36) 
30.331835

>  <SMR_VSA8>  (36) 
0.0

>  <SMR_VSA9>  (36) 
0.0

>  <SlogP_VSA1>  (36) 
16.367245

>  <SlogP_VSA10>  (36) 
10.481923

>  <SlogP_VSA11>  (36) 
0.0

>  <SlogP_VSA12>  (36) 
0.0

>  <SlogP_VSA2>  (36) 
42.539054

>  <SlogP_VSA3>  (36) 
4.736863

>  <SlogP_VSA4>  (36) 
0.0

>  <SlogP_VSA5>  (36) 
0.0

>  <SlogP_VSA6>  (36) 
30.331835

>  <SlogP_VSA7>  (36) 
0.0

>  <SlogP_VSA8>  (36) 
0.0

>  <SlogP_VSA9>  (36) 
0.0

>  <EState_VSA1>  (36) 
6.103966

>  <EState_VSA10>  (36) 
9.901065

>  <EState_VSA11>  (36) 
0.0

>  <EState_VSA2>  (36) 
24.783804

>  <EState_VSA3>  (36) 
6.544756

>  <EState_VSA4>  (36) 
5.687386

>  <EState_VSA5>  (36) 
0.0

>  <EState_VSA6>  (36) 
12.132734

>  <EState_VSA7>  (36) 
18.199101

>  <EState_VSA8>  (36) 
16.367245

>  <EState_VSA9>  (36) 
4.736863

>  <VSA_EState1>  (36) 
5.323086

>  <VSA_EState10>  (36) 
0.0

>  <VSA_EState2>  (36) 
11.59668

>  <VSA_EState3>  (36) 
14.854003

>  <VSA_EState4>  (36) 
4.545322

>  <VSA_EState5>  (36) 
0.0

>  <VSA_EState6>  (36) 
8.680394

>  <VSA_EState7>  (36) 
-0.781937

>  <VSA_EState8>  (36) 
0.615785

>  <VSA_EState9>  (36) 
0.0

>  <FractionCSP3>  (36) 
0.416667

>  <HeavyAtomCount>  (36) 
18

>  <NHOHCount>  (36) 
6

>  <NOCount>  (36) 
6

>  <NumAliphaticCarbocycles>  (36) 
0

>  <NumAliphaticHeterocycles>  (36) 
1

>  <NumAliphaticRings>  (36) 
1

>  <NumAromaticCarbocycles>  (36) 
1

>  <NumAromaticHeterocycles>  (36) 
0

>  <NAR>  (36) 
1

>  <NumHAcceptors>  (36) 
3

>  <NumHDonors>  (36) 
4

>  <NumHeteroatoms>  (36) 
6

>  <NumRotatableBonds>  (36) 
3

>  <NumSaturatedCarbocycles>  (36) 
0

>  <NumSaturatedHeterocycles>  (36) 
1

>  <NumSaturatedRings>  (36) 
1

>  <RingCount>  (36) 
2

>  <MolLogP>  (36) 
-0.8217

>  <MolMR>  (36) 
65.8863

>  <fr_Al_COO>  (36) 
0

>  <fr_Al_OH>  (36) 
1

>  <fr_Al_OH_noTert>  (36) 
1

>  <fr_ArN>  (36) 
0

>  <fr_Ar_COO>  (36) 
0

>  <fr_Ar_N>  (36) 
0

>  <fr_Ar_NH>  (36) 
0

>  <fr_Ar_OH>  (36) 
0

>  <fr_COO>  (36) 
0

>  <fr_COO2>  (36) 
0

>  <fr_C_O>  (36) 
1

>  <fr_C_O_noCOO>  (36) 
1

>  <fr_C_S>  (36) 
0

>  <fr_HOCCN>  (36) 
0

>  <fr_Imine>  (36) 
0

>  <fr_NH0>  (36) 
0

>  <fr_NH1>  (36) 
2

>  <fr_NH2>  (36) 
0

>  <fr_N_O>  (36) 
0

>  <fr_Ndealkylation1>  (36) 
0

>  <fr_Ndealkylation2>  (36) 
0

>  <fr_Nhpyrrole>  (36) 
0

>  <fr_SH>  (36) 
0

>  <fr_aldehyde>  (36) 
0

>  <fr_alkyl_carbamate>  (36) 
0

>  <fr_alkyl_halide>  (36) 
0

>  <fr_allylic_oxid>  (36) 
0

>  <fr_amide>  (36) 
2

>  <fr_amidine>  (36) 
0

>  <fr_aniline>  (36) 
1

>  <fr_aryl_methyl>  (36) 
0

>  <fr_azide>  (36) 
0

>  <fr_azo>  (36) 
0

>  <fr_barbitur>  (36) 
0

>  <fr_benzene>  (36) 
1

>  <fr_benzodiazepine>  (36) 
0

>  <fr_bicyclic>  (36) 
0

>  <fr_diazo>  (36) 
0

>  <fr_dihydropyridine>  (36) 
0

>  <fr_epoxide>  (36) 
0

>  <fr_ester>  (36) 
0

>  <fr_ether>  (36) 
1

>  <fr_furan>  (36) 
0

>  <fr_guanido>  (36) 
0

>  <fr_halogen>  (36) 
0

>  <fr_hdrzine>  (36) 
0

>  <fr_hdrzone>  (36) 
0

>  <fr_imidazole>  (36) 
0

>  <fr_imide>  (36) 
0

>  <fr_isocyan>  (36) 
0

>  <fr_isothiocyan>  (36) 
0

>  <fr_ketone>  (36) 
0

>  <fr_ketone_Topliss>  (36) 
0

>  <fr_lactam>  (36) 
0

>  <fr_lactone>  (36) 
0

>  <fr_methoxy>  (36) 
0

>  <fr_morpholine>  (36) 
0

>  <fr_nitrile>  (36) 
0

>  <fr_nitro>  (36) 
0

>  <fr_nitro_arom>  (36) 
0

>  <fr_nitro_arom_nonortho>  (36) 
0

>  <fr_nitroso>  (36) 
0

>  <fr_oxazole>  (36) 
0

>  <fr_oxime>  (36) 
0

>  <fr_para_hydroxylation>  (36) 
1

>  <fr_phenol>  (36) 
0

>  <fr_phenol_noOrthoHbond>  (36) 
0

>  <fr_phos_acid>  (36) 
0

>  <fr_phos_ester>  (36) 
0

>  <fr_piperdine>  (36) 
0

>  <fr_piperzine>  (36) 
0

>  <fr_priamide>  (36) 
0

>  <fr_prisulfonamd>  (36) 
0

>  <fr_pyridine>  (36) 
0

>  <fr_quatN>  (36) 
1

>  <fr_sulfide>  (36) 
0

>  <fr_sulfonamd>  (36) 
0

>  <fr_sulfone>  (36) 
0

>  <fr_term_acetylene>  (36) 
0

>  <fr_tetrazole>  (36) 
0

>  <fr_thiazole>  (36) 
0

>  <fr_thiocyan>  (36) 
0

>  <fr_thiophene>  (36) 
0

>  <fr_unbrch_alkane>  (36) 
0

>  <fr_urea>  (36) 
1

>  <NP-Likeness>  (36) 
-0.509854

$$$$
F236
     RDKit          3D

  0  0  0  0  0  0  0  0  0  0999 V3000
M  V30 BEGIN CTAB
M  V30 COUNTS 36 37 0 0 0
M  V30 BEGIN ATOM
M  V30 1 C 1.146760 -2.426585 -0.291476 0
M  V30 2 C 1.592713 -3.429265 0.578383 0
M  V30 3 C 1.400238 -3.298832 1.937907 0
M  V30 4 S 1.924842 -4.502521 3.099941 0
M  V30 5 O 1.040925 -4.408494 4.308513 0
M  V30 6 O 1.948724 -5.884241 2.532605 0
M  V30 7 C 3.599063 -4.098283 3.609158 0
M  V30 8 C 0.763399 -2.163015 2.394642 0
M  V30 9 C 0.320770 -1.170326 1.545692 0
M  V30 10 C 0.499990 -1.274936 0.183162 0
M  V30 11 O 0.189695 -0.492631 -0.907793 0
M  V30 12 C -0.467179 0.742998 -0.803355 0 CFG=1
M  V30 13 C 0.443030 1.800677 -1.409816 0
M  V30 14 O -0.078018 3.062366 -1.247995 0
M  V30 15 C -0.812088 3.243424 -0.087800 0
M  V30 16 C -2.203609 2.656295 -0.198600 0
M  V30 17 N -2.412363 2.012709 -1.480156 0 CHG=1 VAL=4
M  V30 18 C -1.748632 0.755662 -1.597359 0
M  V30 19 H 1.390744 -2.711805 -1.326865 0
M  V30 20 H 2.092666 -4.332570 0.286394 0
M  V30 21 H 3.974699 -4.799106 4.353884 0
M  V30 22 H 3.650589 -3.042211 3.969718 0
M  V30 23 H 4.253678 -4.144587 2.699055 0
M  V30 24 H 0.559873 -1.957571 3.444819 0
M  V30 25 H -0.182635 -0.252617 1.792653 0
M  V30 26 H -0.666615 0.938755 0.261553 0
M  V30 27 H 1.475933 1.717606 -0.994648 0
M  V30 28 H 0.517531 1.559719 -2.492058 0
M  V30 29 H -0.274420 2.865553 0.805955 0
M  V30 30 H -0.854483 4.359006 0.080972 0
M  V30 31 H -2.470985 1.986166 0.635273 0
M  V30 32 H -2.927231 3.504605 -0.172226 0
M  V30 33 H -3.442387 1.878266 -1.590106 0
M  V30 34 H -2.125018 2.713090 -2.200931 0
M  V30 35 H -1.493406 0.549419 -2.662487 0
M  V30 36 H -2.413127 -0.083593 -1.261624 0
M  V30 END ATOM
M  V30 BEGIN BOND
M  V30 1 2 1 2
M  V30 2 1 2 3
M  V30 3 1 3 4
M  V30 4 2 4 5
M  V30 5 2 4 6
M  V30 6 1 4 7
M  V30 7 2 3 8
M  V30 8 1 8 9
M  V30 9 2 9 10
M  V30 10 1 10 11
M  V30 11 1 11 12
M  V30 12 1 12 13
M  V30 13 1 13 14
M  V30 14 1 14 15
M  V30 15 1 15 16
M  V30 16 1 16 17
M  V30 17 1 17 18
M  V30 18 1 10 1
M  V30 19 1 18 12
M  V30 20 1 1 19
M  V30 21 1 2 20
M  V30 22 1 7 21
M  V30 23 1 7 22
M  V30 24 1 7 23
M  V30 25 1 8 24
M  V30 26 1 9 25
M  V30 27 1 12 26 CFG=1
M  V30 28 1 13 27
M  V30 29 1 13 28
M  V30 30 1 15 29
M  V30 31 1 15 30
M  V30 32 1 16 31
M  V30 33 1 16 32
M  V30 34 1 17 33
M  V30 35 1 17 34
M  V30 36 1 18 35
M  V30 37 1 18 36
M  V30 END BOND
M  V30 END CTAB
M  END
>  <Dataset>  (37) 
CF

>  <Ligand_Instance>  (37) 
236_L_401

>  <PDB_ID>  (37) 
nan

>  <Standardized_SMILES>  (37) 
[H]C1=C([H])C(S(=O)(=O)C([H])([H])[H])=C([H])C([H])=C1O[C@@]1([H])C([H])([H])OC([H])([H])C([H])([H])[N+]([H])([H])C1([H])[H]

>  <Name>  (37) 
(6R)‐6‐(4‐methanesulfonylphenoxy)‐1,4‐oxazepane

>  <Pocket>  (37) 
X

>  <ATP_Site>  (37) 
0.0

>  <Peripheral>  (37) 
1.0

>  <Num_H_Atoms_ProtBoundConf>  (37) 
18.0

>  <Num_Resolved_Atoms>  (37) 
18.0

>  <Num_Not_Resolved_Atoms>  (37) 
0.0

>  <2D_Mol_H>  (37) 
<rdkit.Chem.rdchem.Mol object at 0x72a238db5540>

>  <MW>  (37) 
272.346

>  <HBA>  (37) 
4

>  <HBD>  (37) 
1

>  <LogP>  (37) 
-0.5689

>  <NRB>  (37) 
4

>  <TPSA>  (37) 
69.21

>  <Num_Heavy_Atoms>  (37) 
18

>  <Ro5>  (37) 
[True, True, True, True, True, True]

>  <Ro5_Fulfilled>  (37) 
True

>  <Ro3>  (37) 
[True, False, True, True]

>  <Ro3_Fulfilled>  (37) 
True

>  <Fsp3>  (37) 
0.5

>  <Fsp3_0.42>  (37) 
True

>  <Fsp3_0.45>  (37) 
True

>  <Stereogenic_Carbons>  (37) 
1

>  <C_Atoms>  (37) 
12

>  <FCStereo>  (37) 
0.083333

>  <SPS>  (37) 
383

>  <nSPS>  (37) 
21.277778

>  <PBF>  (37) 
0.862214

>  <PBF_0.6>  (37) 
True

>  <nPBF>  (37) 
0.047901

>  <nPBF_0.016>  (37) 
True

>  <PMI1>  (37) 
439.255854

>  <PMI2>  (37) 
3769.418914

>  <PMI3>  (37) 
3842.335123

>  <NPR1>  (37) 
0.11432

>  <NPR2>  (37) 
0.981023

>  <Sum_NPR>  (37) 
1.095343

>  <Sum_NPR_1.07>  (37) 
True

>  <Sum_NPR_1.2>  (37) 
False

>  <MaxAbsEStateIndex>  (37) 
11.313811

>  <MaxEStateIndex>  (37) 
11.313811

>  <MinAbsEStateIndex>  (37) 
0.010726

>  <MinEStateIndex>  (37) 
-3.144917

>  <qed>  (37) 
0.799972

>  <MolWt>  (37) 
272.346

>  <HeavyAtomMolWt>  (37) 
254.202

>  <ExactMolWt>  (37) 
272.095105

>  <NumValenceElectrons>  (37) 
100

>  <NumRadicalElectrons>  (37) 
0

>  <MaxPartialCharge>  (37) 
0.175022

>  <MinPartialCharge>  (37) 
-0.482104

>  <MaxAbsPartialCharge>  (37) 
0.482104

>  <MinAbsPartialCharge>  (37) 
0.175022

>  <FpDensityMorgan1>  (37) 
1.333333

>  <FpDensityMorgan2>  (37) 
2.055556

>  <FpDensityMorgan3>  (37) 
2.722222

>  <BCUT2D_MWHI>  (37) 
32.227746

>  <BCUT2D_MWLOW>  (37) 
10.298774

>  <BCUT2D_CHGHI>  (37) 
2.162765

>  <BCUT2D_CHGLO>  (37) 
-2.144538

>  <BCUT2D_LOGPHI>  (37) 
2.165564

>  <BCUT2D_LOGPLOW>  (37) 
-2.863784

>  <BCUT2D_MRHI>  (37) 
7.903031

>  <BCUT2D_MRLOW>  (37) 
-0.656133

>  <AvgIpc>  (37) 
2.571107

>  <BalabanJ>  (37) 
2.011738

>  <BertzCT>  (37) 
475.303804

>  <Chi0>  (37) 
13.010225

>  <Chi0n>  (37) 
10.33377

>  <Chi0v>  (37) 
11.150267

>  <Chi1>  (37) 
8.554661

>  <Chi1n>  (37) 
5.917243

>  <Chi1v>  (37) 
7.808654

>  <Chi2n>  (37) 
4.371397

>  <Chi2v>  (37) 
6.387133

>  <Chi3n>  (37) 
2.754249

>  <Chi3v>  (37) 
3.882719

>  <Chi4n>  (37) 
1.793219

>  <Chi4v>  (37) 
2.42369

>  <HallKierAlpha>  (37) 
-1.11

>  <Ipc>  (37) 
12824.680512

>  <Kappa1>  (37) 
13.324679

>  <Kappa2>  (37) 
5.686742

>  <Kappa3>  (37) 
3.693194

>  <LabuteASA>  (37) 
107.017576

>  <PEOE_VSA1>  (37) 
14.790515

>  <PEOE_VSA10>  (37) 
12.294268

>  <PEOE_VSA11>  (37) 
15.94122

>  <PEOE_VSA12>  (37) 
0.0

>  <PEOE_VSA13>  (37) 
0.0

>  <PEOE_VSA14>  (37) 
0.0

>  <PEOE_VSA2>  (37) 
0.0

>  <PEOE_VSA3>  (37) 
8.417797

>  <PEOE_VSA4>  (37) 
0.0

>  <PEOE_VSA5>  (37) 
0.0

>  <PEOE_VSA6>  (37) 
0.0

>  <PEOE_VSA7>  (37) 
24.265468

>  <PEOE_VSA8>  (37) 
6.255769

>  <PEOE_VSA9>  (37) 
24.654004

>  <SMR_VSA1>  (37) 
23.208311

>  <SMR_VSA10>  (37) 
9.837253

>  <SMR_VSA2>  (37) 
0.0

>  <SMR_VSA3>  (37) 
0.0

>  <SMR_VSA4>  (37) 
0.0

>  <SMR_VSA5>  (37) 
10.99945

>  <SMR_VSA6>  (37) 
32.559046

>  <SMR_VSA7>  (37) 
24.265468

>  <SMR_VSA8>  (37) 
0.0

>  <SMR_VSA9>  (37) 
5.749512

>  <SlogP_VSA1>  (37) 
10.053652

>  <SlogP_VSA10>  (37) 
0.0

>  <SlogP_VSA11>  (37) 
5.749512

>  <SlogP_VSA12>  (37) 
0.0

>  <SlogP_VSA2>  (37) 
47.080809

>  <SlogP_VSA3>  (37) 
14.574116

>  <SlogP_VSA4>  (37) 
0.0

>  <SlogP_VSA5>  (37) 
0.0

>  <SlogP_VSA6>  (37) 
29.160952

>  <SlogP_VSA7>  (37) 
0.0

>  <SlogP_VSA8>  (37) 
0.0

>  <SlogP_VSA9>  (37) 
0.0

>  <EState_VSA1>  (37) 
9.837253

>  <EState_VSA10>  (37) 
8.417797

>  <EState_VSA11>  (37) 
0.0

>  <EState_VSA2>  (37) 
6.103966

>  <EState_VSA3>  (37) 
17.251877

>  <EState_VSA4>  (37) 
19.696395

>  <EState_VSA5>  (37) 
6.255769

>  <EState_VSA6>  (37) 
24.265468

>  <EState_VSA7>  (37) 
0.0

>  <EState_VSA8>  (37) 
5.316789

>  <EState_VSA9>  (37) 
9.473726

>  <VSA_EState1>  (37) 
33.784641

>  <VSA_EState10>  (37) 
0.0

>  <VSA_EState2>  (37) 
0.304193

>  <VSA_EState3>  (37) 
2.155296

>  <VSA_EState4>  (37) 
0.0

>  <VSA_EState5>  (37) 
0.6725

>  <VSA_EState6>  (37) 
6.486536

>  <VSA_EState7>  (37) 
1.202159

>  <VSA_EState8>  (37) 
3.122925

>  <VSA_EState9>  (37) 
-3.144917

>  <FractionCSP3>  (37) 
0.5

>  <HeavyAtomCount>  (37) 
18

>  <NHOHCount>  (37) 
2

>  <NOCount>  (37) 
5

>  <NumAliphaticCarbocycles>  (37) 
0

>  <NumAliphaticHeterocycles>  (37) 
1

>  <NumAliphaticRings>  (37) 
1

>  <NumAromaticCarbocycles>  (37) 
1

>  <NumAromaticHeterocycles>  (37) 
0

>  <NAR>  (37) 
1

>  <NumHAcceptors>  (37) 
4

>  <NumHDonors>  (37) 
1

>  <NumHeteroatoms>  (37) 
6

>  <NumRotatableBonds>  (37) 
3

>  <NumSaturatedCarbocycles>  (37) 
0

>  <NumSaturatedHeterocycles>  (37) 
1

>  <NumSaturatedRings>  (37) 
1

>  <RingCount>  (37) 
2

>  <MolLogP>  (37) 
-0.5689

>  <MolMR>  (37) 
66.4462

>  <fr_Al_COO>  (37) 
0

>  <fr_Al_OH>  (37) 
0

>  <fr_Al_OH_noTert>  (37) 
0

>  <fr_ArN>  (37) 
0

>  <fr_Ar_COO>  (37) 
0

>  <fr_Ar_N>  (37) 
0

>  <fr_Ar_NH>  (37) 
0

>  <fr_Ar_OH>  (37) 
0

>  <fr_COO>  (37) 
0

>  <fr_COO2>  (37) 
0

>  <fr_C_O>  (37) 
0

>  <fr_C_O_noCOO>  (37) 
0

>  <fr_C_S>  (37) 
0

>  <fr_HOCCN>  (37) 
0

>  <fr_Imine>  (37) 
0

>  <fr_NH0>  (37) 
0

>  <fr_NH1>  (37) 
0

>  <fr_NH2>  (37) 
1

>  <fr_N_O>  (37) 
0

>  <fr_Ndealkylation1>  (37) 
0

>  <fr_Ndealkylation2>  (37) 
0

>  <fr_Nhpyrrole>  (37) 
0

>  <fr_SH>  (37) 
0

>  <fr_aldehyde>  (37) 
0

>  <fr_alkyl_carbamate>  (37) 
0

>  <fr_alkyl_halide>  (37) 
0

>  <fr_allylic_oxid>  (37) 
0

>  <fr_amide>  (37) 
0

>  <fr_amidine>  (37) 
0

>  <fr_aniline>  (37) 
0

>  <fr_aryl_methyl>  (37) 
0

>  <fr_azide>  (37) 
0

>  <fr_azo>  (37) 
0

>  <fr_barbitur>  (37) 
0

>  <fr_benzene>  (37) 
1

>  <fr_benzodiazepine>  (37) 
0

>  <fr_bicyclic>  (37) 
0

>  <fr_diazo>  (37) 
0

>  <fr_dihydropyridine>  (37) 
0

>  <fr_epoxide>  (37) 
0

>  <fr_ester>  (37) 
0

>  <fr_ether>  (37) 
2

>  <fr_furan>  (37) 
0

>  <fr_guanido>  (37) 
0

>  <fr_halogen>  (37) 
0

>  <fr_hdrzine>  (37) 
0

>  <fr_hdrzone>  (37) 
0

>  <fr_imidazole>  (37) 
0

>  <fr_imide>  (37) 
0

>  <fr_isocyan>  (37) 
0

>  <fr_isothiocyan>  (37) 
0

>  <fr_ketone>  (37) 
0

>  <fr_ketone_Topliss>  (37) 
0

>  <fr_lactam>  (37) 
0

>  <fr_lactone>  (37) 
0

>  <fr_methoxy>  (37) 
0

>  <fr_morpholine>  (37) 
0

>  <fr_nitrile>  (37) 
0

>  <fr_nitro>  (37) 
0

>  <fr_nitro_arom>  (37) 
0

>  <fr_nitro_arom_nonortho>  (37) 
0

>  <fr_nitroso>  (37) 
0

>  <fr_oxazole>  (37) 
0

>  <fr_oxime>  (37) 
0

>  <fr_para_hydroxylation>  (37) 
0

>  <fr_phenol>  (37) 
0

>  <fr_phenol_noOrthoHbond>  (37) 
0

>  <fr_phos_acid>  (37) 
0

>  <fr_phos_ester>  (37) 
0

>  <fr_piperdine>  (37) 
0

>  <fr_piperzine>  (37) 
0

>  <fr_priamide>  (37) 
0

>  <fr_prisulfonamd>  (37) 
0

>  <fr_pyridine>  (37) 
0

>  <fr_quatN>  (37) 
1

>  <fr_sulfide>  (37) 
0

>  <fr_sulfonamd>  (37) 
0

>  <fr_sulfone>  (37) 
1

>  <fr_term_acetylene>  (37) 
0

>  <fr_tetrazole>  (37) 
0

>  <fr_thiazole>  (37) 
0

>  <fr_thiocyan>  (37) 
0

>  <fr_thiophene>  (37) 
0

>  <fr_unbrch_alkane>  (37) 
0

>  <fr_urea>  (37) 
0

>  <NP-Likeness>  (37) 
-0.667268

$$$$
F248
     RDKit          3D

  0  0  0  0  0  0  0  0  0  0999 V3000
M  V30 BEGIN CTAB
M  V30 COUNTS 32 34 0 0 0
M  V30 BEGIN ATOM
M  V30 1 C -2.753739 -3.246520 3.273363 0
M  V30 2 C -1.595997 -3.948710 2.927083 0
M  V30 3 C -0.470276 -3.247656 2.497615 0
M  V30 4 C -0.522957 -1.851575 2.421920 0
M  V30 5 C 0.756759 -1.304074 1.950484 0
M  V30 6 O 1.764382 -1.553099 2.664070 0
M  V30 7 N 0.683526 -0.549143 0.723357 0
M  V30 8 C -0.540352 -0.324576 -0.019012 0
M  V30 9 C -0.161091 -0.225387 -1.484174 0
M  V30 10 N 0.739090 0.916985 -1.575150 0
M  V30 11 C 0.791783 2.252201 -2.079034 0
M  V30 12 O -0.282534 2.803876 -2.474759 0
M  V30 13 O 2.110001 2.687174 -2.020575 0
M  V30 14 C 2.697123 2.027161 -0.887782 0
M  V30 15 C 2.025453 0.668806 -0.965896 0 CFG=1
M  V30 16 C 1.974162 -0.050487 0.333184 0
M  V30 17 C -1.666098 -1.156639 2.763726 0
M  V30 18 C -2.772426 -1.865233 3.187103 0
M  V30 19 H -3.640861 -3.782149 3.610650 0
M  V30 20 H -1.613436 -5.026259 3.005219 0
M  V30 21 H 0.358941 -3.874917 2.257956 0
M  V30 22 H -0.916786 0.692403 0.272161 0
M  V30 23 H -1.282950 -1.114932 0.124789 0
M  V30 24 H 0.406599 -1.120300 -1.802604 0
M  V30 25 H -1.089016 -0.090526 -2.080470 0
M  V30 26 H 2.425312 2.581854 0.012947 0
M  V30 27 H 3.790021 1.985892 -1.079176 0
M  V30 28 H 2.625407 0.090734 -1.698730 0
M  V30 29 H 2.434977 0.585470 1.142935 0
M  V30 30 H 2.651299 -0.951925 0.298773 0
M  V30 31 H -1.577768 -0.085816 2.661988 0
M  V30 32 H -3.650661 -1.266930 3.445412 0
M  V30 END ATOM
M  V30 BEGIN BOND
M  V30 1 2 1 2
M  V30 2 1 2 3
M  V30 3 2 3 4
M  V30 4 1 4 5
M  V30 5 2 5 6
M  V30 6 1 5 7
M  V30 7 1 7 8
M  V30 8 1 8 9
M  V30 9 1 9 10
M  V30 10 1 10 11
M  V30 11 2 11 12
M  V30 12 1 11 13
M  V30 13 1 13 14
M  V30 14 1 14 15
M  V30 15 1 15 16
M  V30 16 1 4 17
M  V30 17 2 17 18
M  V30 18 1 18 1
M  V30 19 1 16 7
M  V30 20 1 15 10
M  V30 21 1 1 19
M  V30 22 1 2 20
M  V30 23 1 3 21
M  V30 24 1 8 22
M  V30 25 1 8 23
M  V30 26 1 9 24
M  V30 27 1 9 25
M  V30 28 1 14 26
M  V30 29 1 14 27
M  V30 30 1 15 28 CFG=3
M  V30 31 1 16 29
M  V30 32 1 16 30
M  V30 33 1 17 31
M  V30 34 1 18 32
M  V30 END BOND
M  V30 END CTAB
M  END
>  <Dataset>  (38) 
CF

>  <Ligand_Instance>  (38) 
248_B_1

>  <PDB_ID>  (38) 
nan

>  <Standardized_SMILES>  (38) 
[H]C1=C([H])C([H])=C(C(=O)N2C([H])([H])C([H])([H])N3C(=O)OC([H])([H])[C@@]3([H])C2([H])[H])C([H])=C1[H]

>  <Name>  (38) 
(8aR)‐7‐benzoyl‐hexahydro‐1H‐[1,3]oxazolo[3,4‐a]pyrazin‐3‐one

>  <Pocket>  (38) 
A

>  <ATP_Site>  (38) 
1.0

>  <Peripheral>  (38) 
1.0

>  <Num_H_Atoms_ProtBoundConf>  (38) 
14.0

>  <Num_Resolved_Atoms>  (38) 
18.0

>  <Num_Not_Resolved_Atoms>  (38) 
0.0

>  <2D_Mol_H>  (38) 
<rdkit.Chem.rdchem.Mol object at 0x72a238db5620>

>  <MW>  (38) 
246.266

>  <HBA>  (38) 
3

>  <HBD>  (38) 
0

>  <LogP>  (38) 
0.9632

>  <NRB>  (38) 
1

>  <TPSA>  (38) 
49.85

>  <Num_Heavy_Atoms>  (38) 
18

>  <Ro5>  (38) 
[True, True, True, True, True, True]

>  <Ro5_Fulfilled>  (38) 
True

>  <Ro3>  (38) 
[True, True, True, True]

>  <Ro3_Fulfilled>  (38) 
True

>  <Fsp3>  (38) 
0.384615

>  <Fsp3_0.42>  (38) 
False

>  <Fsp3_0.45>  (38) 
False

>  <Stereogenic_Carbons>  (38) 
1

>  <C_Atoms>  (38) 
13

>  <FCStereo>  (38) 
0.076923

>  <SPS>  (38) 
408

>  <nSPS>  (38) 
22.666667

>  <PBF>  (38) 
0.780191

>  <PBF_0.6>  (38) 
True

>  <nPBF>  (38) 
0.043344

>  <nPBF_0.016>  (38) 
True

>  <PMI1>  (38) 
478.344231

>  <PMI2>  (38) 
2332.371938

>  <PMI3>  (38) 
2607.027436

>  <NPR1>  (38) 
0.183483

>  <NPR2>  (38) 
0.894648

>  <Sum_NPR>  (38) 
1.078131

>  <Sum_NPR_1.07>  (38) 
True

>  <Sum_NPR_1.2>  (38) 
False

>  <MaxAbsEStateIndex>  (38) 
12.251476

>  <MaxEStateIndex>  (38) 
12.251476

>  <MinAbsEStateIndex>  (38) 
0.012882

>  <MinEStateIndex>  (38) 
-0.257583

>  <qed>  (38) 
0.741362

>  <MolWt>  (38) 
246.266

>  <HeavyAtomMolWt>  (38) 
232.154

>  <ExactMolWt>  (38) 
246.100442

>  <NumValenceElectrons>  (38) 
94

>  <NumRadicalElectrons>  (38) 
0

>  <MaxPartialCharge>  (38) 
0.40983

>  <MinPartialCharge>  (38) 
-0.447133

>  <MaxAbsPartialCharge>  (38) 
0.447133

>  <MinAbsPartialCharge>  (38) 
0.40983

>  <FpDensityMorgan1>  (38) 
1.222222

>  <FpDensityMorgan2>  (38) 
2.0

>  <FpDensityMorgan3>  (38) 
2.777778

>  <BCUT2D_MWHI>  (38) 
16.564618

>  <BCUT2D_MWLOW>  (38) 
10.123226

>  <BCUT2D_CHGHI>  (38) 
2.382133

>  <BCUT2D_CHGLO>  (38) 
-2.349005

>  <BCUT2D_LOGPHI>  (38) 
2.187042

>  <BCUT2D_LOGPLOW>  (38) 
-2.532526

>  <BCUT2D_MRHI>  (38) 
5.939729

>  <BCUT2D_MRLOW>  (38) 
0.06167

>  <AvgIpc>  (38) 
2.799843

>  <BalabanJ>  (38) 
1.719613

>  <BertzCT>  (38) 
474.384518

>  <Chi0>  (38) 
12.535169

>  <Chi0n>  (38) 
9.911701

>  <Chi0v>  (38) 
9.911701

>  <Chi1>  (38) 
8.75402

>  <Chi1n>  (38) 
6.032324

>  <Chi1v>  (38) 
6.032324

>  <Chi2n>  (38) 
4.541323

>  <Chi2v>  (38) 
4.541323

>  <Chi3n>  (38) 
3.424386

>  <Chi3v>  (38) 
3.424386

>  <Chi4n>  (38) 
2.436453

>  <Chi4v>  (38) 
2.436453

>  <HallKierAlpha>  (38) 
-2.04

>  <Ipc>  (38) 
24627.42026

>  <Kappa1>  (38) 
11.073462

>  <Kappa2>  (38) 
4.326065

>  <Kappa3>  (38) 
1.813243

>  <LabuteASA>  (38) 
104.930592

>  <PEOE_VSA1>  (38) 
9.636773

>  <PEOE_VSA10>  (38) 
6.606882

>  <PEOE_VSA11>  (38) 
0.0

>  <PEOE_VSA12>  (38) 
0.0

>  <PEOE_VSA13>  (38) 
5.90718

>  <PEOE_VSA14>  (38) 
6.09324

>  <PEOE_VSA2>  (38) 
9.694447

>  <PEOE_VSA3>  (38) 
4.794537

>  <PEOE_VSA4>  (38) 
0.0

>  <PEOE_VSA5>  (38) 
0.0

>  <PEOE_VSA6>  (38) 
18.199101

>  <PEOE_VSA7>  (38) 
12.132734

>  <PEOE_VSA8>  (38) 
25.197721

>  <PEOE_VSA9>  (38) 
6.041841

>  <SMR_VSA1>  (38) 
14.325937

>  <SMR_VSA10>  (38) 
12.00042

>  <SMR_VSA2>  (38) 
0.0

>  <SMR_VSA3>  (38) 
9.799819

>  <SMR_VSA4>  (38) 
0.0

>  <SMR_VSA5>  (38) 
6.041841

>  <SMR_VSA6>  (38) 
26.241151

>  <SMR_VSA7>  (38) 
35.895287

>  <SMR_VSA8>  (38) 
0.0

>  <SMR_VSA9>  (38) 
0.0

>  <SlogP_VSA1>  (38) 
0.0

>  <SlogP_VSA10>  (38) 
4.794537

>  <SlogP_VSA11>  (38) 
0.0

>  <SlogP_VSA12>  (38) 
0.0

>  <SlogP_VSA2>  (38) 
54.083231

>  <SlogP_VSA3>  (38) 
4.736863

>  <SlogP_VSA4>  (38) 
0.0

>  <SlogP_VSA5>  (38) 
10.357989

>  <SlogP_VSA6>  (38) 
30.331835

>  <SlogP_VSA7>  (38) 
0.0

>  <SlogP_VSA8>  (38) 
0.0

>  <SlogP_VSA9>  (38) 
0.0

>  <EState_VSA1>  (38) 
0.0

>  <EState_VSA10>  (38) 
9.589074

>  <EState_VSA11>  (38) 
0.0

>  <EState_VSA2>  (38) 
18.042261

>  <EState_VSA3>  (38) 
31.804603

>  <EState_VSA4>  (38) 
0.0

>  <EState_VSA5>  (38) 
0.0

>  <EState_VSA6>  (38) 
9.799819

>  <EState_VSA7>  (38) 
30.331835

>  <EState_VSA8>  (38) 
0.0

>  <EState_VSA9>  (38) 
4.736863

>  <VSA_EState1>  (38) 
4.982676

>  <VSA_EState10>  (38) 
0.0

>  <VSA_EState2>  (38) 
27.100052

>  <VSA_EState3>  (38) 
0.0

>  <VSA_EState4>  (38) 
0.690918

>  <VSA_EState5>  (38) 
0.022777

>  <VSA_EState6>  (38) 
9.226763

>  <VSA_EState7>  (38) 
-0.257583

>  <VSA_EState8>  (38) 
2.06773

>  <VSA_EState9>  (38) 
0.0

>  <FractionCSP3>  (38) 
0.384615

>  <HeavyAtomCount>  (38) 
18

>  <NHOHCount>  (38) 
0

>  <NOCount>  (38) 
5

>  <NumAliphaticCarbocycles>  (38) 
0

>  <NumAliphaticHeterocycles>  (38) 
2

>  <NumAliphaticRings>  (38) 
2

>  <NumAromaticCarbocycles>  (38) 
1

>  <NumAromaticHeterocycles>  (38) 
0

>  <NAR>  (38) 
1

>  <NumHAcceptors>  (38) 
3

>  <NumHDonors>  (38) 
0

>  <NumHeteroatoms>  (38) 
5

>  <NumRotatableBonds>  (38) 
1

>  <NumSaturatedCarbocycles>  (38) 
0

>  <NumSaturatedHeterocycles>  (38) 
2

>  <NumSaturatedRings>  (38) 
2

>  <RingCount>  (38) 
3

>  <MolLogP>  (38) 
0.9632

>  <MolMR>  (38) 
64.1875

>  <fr_Al_COO>  (38) 
0

>  <fr_Al_OH>  (38) 
0

>  <fr_Al_OH_noTert>  (38) 
0

>  <fr_ArN>  (38) 
0

>  <fr_Ar_COO>  (38) 
0

>  <fr_Ar_N>  (38) 
0

>  <fr_Ar_NH>  (38) 
0

>  <fr_Ar_OH>  (38) 
0

>  <fr_COO>  (38) 
0

>  <fr_COO2>  (38) 
0

>  <fr_C_O>  (38) 
2

>  <fr_C_O_noCOO>  (38) 
2

>  <fr_C_S>  (38) 
0

>  <fr_HOCCN>  (38) 
0

>  <fr_Imine>  (38) 
0

>  <fr_NH0>  (38) 
2

>  <fr_NH1>  (38) 
0

>  <fr_NH2>  (38) 
0

>  <fr_N_O>  (38) 
0

>  <fr_Ndealkylation1>  (38) 
0

>  <fr_Ndealkylation2>  (38) 
0

>  <fr_Nhpyrrole>  (38) 
0

>  <fr_SH>  (38) 
0

>  <fr_aldehyde>  (38) 
0

>  <fr_alkyl_carbamate>  (38) 
0

>  <fr_alkyl_halide>  (38) 
0

>  <fr_allylic_oxid>  (38) 
0

>  <fr_amide>  (38) 
2

>  <fr_amidine>  (38) 
0

>  <fr_aniline>  (38) 
0

>  <fr_aryl_methyl>  (38) 
0

>  <fr_azide>  (38) 
0

>  <fr_azo>  (38) 
0

>  <fr_barbitur>  (38) 
0

>  <fr_benzene>  (38) 
1

>  <fr_benzodiazepine>  (38) 
0

>  <fr_bicyclic>  (38) 
1

>  <fr_diazo>  (38) 
0

>  <fr_dihydropyridine>  (38) 
0

>  <fr_epoxide>  (38) 
0

>  <fr_ester>  (38) 
0

>  <fr_ether>  (38) 
1

>  <fr_furan>  (38) 
0

>  <fr_guanido>  (38) 
0

>  <fr_halogen>  (38) 
0

>  <fr_hdrzine>  (38) 
0

>  <fr_hdrzone>  (38) 
0

>  <fr_imidazole>  (38) 
0

>  <fr_imide>  (38) 
0

>  <fr_isocyan>  (38) 
0

>  <fr_isothiocyan>  (38) 
0

>  <fr_ketone>  (38) 
0

>  <fr_ketone_Topliss>  (38) 
0

>  <fr_lactam>  (38) 
0

>  <fr_lactone>  (38) 
1

>  <fr_methoxy>  (38) 
0

>  <fr_morpholine>  (38) 
0

>  <fr_nitrile>  (38) 
0

>  <fr_nitro>  (38) 
0

>  <fr_nitro_arom>  (38) 
0

>  <fr_nitro_arom_nonortho>  (38) 
0

>  <fr_nitroso>  (38) 
0

>  <fr_oxazole>  (38) 
0

>  <fr_oxime>  (38) 
0

>  <fr_para_hydroxylation>  (38) 
0

>  <fr_phenol>  (38) 
0

>  <fr_phenol_noOrthoHbond>  (38) 
0

>  <fr_phos_acid>  (38) 
0

>  <fr_phos_ester>  (38) 
0

>  <fr_piperdine>  (38) 
0

>  <fr_piperzine>  (38) 
1

>  <fr_priamide>  (38) 
0

>  <fr_prisulfonamd>  (38) 
0

>  <fr_pyridine>  (38) 
0

>  <fr_quatN>  (38) 
0

>  <fr_sulfide>  (38) 
0

>  <fr_sulfonamd>  (38) 
0

>  <fr_sulfone>  (38) 
0

>  <fr_term_acetylene>  (38) 
0

>  <fr_tetrazole>  (38) 
0

>  <fr_thiazole>  (38) 
0

>  <fr_thiocyan>  (38) 
0

>  <fr_thiophene>  (38) 
0

>  <fr_unbrch_alkane>  (38) 
0

>  <fr_urea>  (38) 
0

>  <NP-Likeness>  (38) 
-1.19303

$$$$
F264
     RDKit          3D

  0  0  0  0  0  0  0  0  0  0999 V3000
M  V30 BEGIN CTAB
M  V30 COUNTS 38 40 0 0 0
M  V30 BEGIN ATOM
M  V30 1 C 3.318445 -2.695608 -0.220799 0
M  V30 2 C 4.292092 -2.674439 0.783847 0
M  V30 3 F 5.587308 -3.006143 0.537768 0
M  V30 4 C 3.877783 -2.294903 2.064917 0
M  V30 5 C 2.569716 -1.956601 2.327086 0
M  V30 6 N 1.826380 -1.565370 3.377737 0
M  V30 7 C 0.568996 -1.382079 3.018075 0
M  V30 8 N 0.413276 -1.648344 1.679312 0
M  V30 9 C 1.654936 -1.995925 1.295626 0
M  V30 10 C 1.997766 -2.361563 0.011037 0
M  V30 11 C -0.953409 -1.450502 1.273478 0 CFG=1
M  V30 12 C -1.273560 -1.458030 -0.148660 0
M  V30 13 N -0.600713 -0.422686 -0.906386 0
M  V30 14 C -0.750622 0.984016 -0.661325 0
M  V30 15 O -1.499118 1.429695 0.253085 0
M  V30 16 N -0.097270 2.001845 -1.393376 0
M  V30 17 C -0.437456 3.347543 -0.923923 0
M  V30 18 C -1.935163 3.554067 -1.064118 0
M  V30 19 C -1.764763 -2.357067 2.170365 0
M  V30 20 O -1.752868 -1.828523 3.462076 0
M  V30 21 C -0.698725 -0.971529 3.724116 0
M  V30 22 H 3.636223 -2.993356 -1.232116 0
M  V30 23 H 4.576907 -2.259176 2.877243 0
M  V30 24 H 1.295199 -2.405935 -0.806350 0
M  V30 25 H -1.229429 -0.404942 1.649949 0
M  V30 26 H -2.373403 -1.219207 -0.254115 0
M  V30 27 H -1.093795 -2.392708 -0.695001 0
M  V30 28 H 0.069099 -0.576953 -1.719201 0
M  V30 29 H 0.544637 1.718361 -2.173001 0
M  V30 30 H -0.161100 3.440755 0.160608 0
M  V30 31 H 0.135249 4.124973 -1.454979 0
M  V30 32 H -2.446518 3.550712 -0.092424 0
M  V30 33 H -2.378469 2.731237 -1.685731 0
M  V30 34 H -2.084847 4.528455 -1.593003 0
M  V30 35 H -1.209880 -3.318433 2.218710 0
M  V30 36 H -2.771359 -2.573473 1.811734 0
M  V30 37 H -0.478863 -1.106578 4.821564 0
M  V30 38 H -0.897959 0.087282 3.588358 0
M  V30 END ATOM
M  V30 BEGIN BOND
M  V30 1 2 1 2
M  V30 2 1 2 3
M  V30 3 1 2 4
M  V30 4 2 4 5
M  V30 5 1 5 6
M  V30 6 2 6 7
M  V30 7 1 7 8
M  V30 8 1 8 9
M  V30 9 2 9 10
M  V30 10 1 8 11
M  V30 11 1 11 12
M  V30 12 1 12 13
M  V30 13 1 13 14
M  V30 14 2 14 15
M  V30 15 1 14 16
M  V30 16 1 16 17
M  V30 17 1 17 18
M  V30 18 1 11 19
M  V30 19 1 19 20
M  V30 20 1 20 21
M  V30 21 1 10 1
M  V30 22 1 9 5
M  V30 23 1 21 7
M  V30 24 1 1 22
M  V30 25 1 4 23
M  V30 26 1 10 24
M  V30 27 1 11 25 CFG=1
M  V30 28 1 12 26
M  V30 29 1 12 27
M  V30 30 1 13 28
M  V30 31 1 16 29
M  V30 32 1 17 30
M  V30 33 1 17 31
M  V30 34 1 18 32
M  V30 35 1 18 33
M  V30 36 1 18 34
M  V30 37 1 19 35
M  V30 38 1 19 36
M  V30 39 1 21 37
M  V30 40 1 21 38
M  V30 END BOND
M  V30 END CTAB
M  END
>  <Dataset>  (39) 
CF

>  <Ligand_Instance>  (39) 
264_B_3

>  <PDB_ID>  (39) 
nan

>  <Standardized_SMILES>  (39) 
[H]C1=C(F)C([H])=C2N=C3N(C2=C1[H])[C@@]([H])(C([H])([H])N([H])C(=O)N([H])C([H])([H])C([H])([H])[H])C([H])([H])OC3([H])[H]

>  <Name>  (39) 
3‐ethyl‐1‐{[(13S)‐5‐fluoro‐11-oxa-1.8-diazatricyclo[7.4.0.0]trideca-2,4,6,8-tetraen-13-yl]methyl}urea

>  <Pocket>  (39) 
F

>  <ATP_Site>  (39) 
1.0

>  <Peripheral>  (39) 
1.0

>  <Num_H_Atoms_ProtBoundConf>  (39) 
17.0

>  <Num_Resolved_Atoms>  (39) 
21.0

>  <Num_Not_Resolved_Atoms>  (39) 
0.0

>  <2D_Mol_H>  (39) 
<rdkit.Chem.rdchem.Mol object at 0x72a238db5700>

>  <MW>  (39) 
292.314

>  <HBA>  (39) 
4

>  <HBD>  (39) 
2

>  <LogP>  (39) 
1.5658

>  <NRB>  (39) 
4

>  <TPSA>  (39) 
68.18

>  <Num_Heavy_Atoms>  (39) 
21

>  <Ro5>  (39) 
[True, True, True, True, True, True]

>  <Ro5_Fulfilled>  (39) 
True

>  <Ro3>  (39) 
[True, False, True, True]

>  <Ro3_Fulfilled>  (39) 
True

>  <Fsp3>  (39) 
0.428571

>  <Fsp3_0.42>  (39) 
True

>  <Fsp3_0.45>  (39) 
False

>  <Stereogenic_Carbons>  (39) 
1

>  <C_Atoms>  (39) 
14

>  <FCStereo>  (39) 
0.071429

>  <SPS>  (39) 
368

>  <nSPS>  (39) 
17.52381

>  <PBF>  (39) 
1.087575

>  <PBF_0.6>  (39) 
True

>  <nPBF>  (39) 
0.051789

>  <nPBF_0.016>  (39) 
True

>  <PMI1>  (39) 
1228.885514

>  <PMI2>  (39) 
2454.765714

>  <PMI3>  (39) 
3144.308046

>  <NPR1>  (39) 
0.390829

>  <NPR2>  (39) 
0.780701

>  <Sum_NPR>  (39) 
1.17153

>  <Sum_NPR_1.07>  (39) 
True

>  <Sum_NPR_1.2>  (39) 
False

>  <MaxAbsEStateIndex>  (39) 
13.291166

>  <MaxEStateIndex>  (39) 
13.291166

>  <MinAbsEStateIndex>  (39) 
0.049243

>  <MinEStateIndex>  (39) 
-0.309385

>  <qed>  (39) 
0.901943

>  <MolWt>  (39) 
292.314

>  <HeavyAtomMolWt>  (39) 
275.178

>  <ExactMolWt>  (39) 
292.133554

>  <NumValenceElectrons>  (39) 
112

>  <NumRadicalElectrons>  (39) 
0

>  <MaxPartialCharge>  (39) 
0.314354

>  <MinPartialCharge>  (39) 
-0.371305

>  <MaxAbsPartialCharge>  (39) 
0.371305

>  <MinAbsPartialCharge>  (39) 
0.314354

>  <FpDensityMorgan1>  (39) 
1.52381

>  <FpDensityMorgan2>  (39) 
2.380952

>  <FpDensityMorgan3>  (39) 
3.190476

>  <BCUT2D_MWHI>  (39) 
19.142145

>  <BCUT2D_MWLOW>  (39) 
10.210009

>  <BCUT2D_CHGHI>  (39) 
2.24013

>  <BCUT2D_CHGLO>  (39) 
-2.259383

>  <BCUT2D_LOGPHI>  (39) 
2.25561

>  <BCUT2D_LOGPLOW>  (39) 
-2.404202

>  <BCUT2D_MRHI>  (39) 
5.764394

>  <BCUT2D_MRLOW>  (39) 
0.057206

>  <AvgIpc>  (39) 
2.827515

>  <BalabanJ>  (39) 
1.863021

>  <BertzCT>  (39) 
670.282914

>  <Chi0>  (39) 
14.819626

>  <Chi0n>  (39) 
11.726716

>  <Chi0v>  (39) 
11.726716

>  <Chi1>  (39) 
10.185872

>  <Chi1n>  (39) 
6.94538

>  <Chi1v>  (39) 
6.94538

>  <Chi2n>  (39) 
4.940377

>  <Chi2v>  (39) 
4.940377

>  <Chi3n>  (39) 
3.46671

>  <Chi3v>  (39) 
3.46671

>  <Chi4n>  (39) 
2.575624

>  <Chi4v>  (39) 
2.575624

>  <HallKierAlpha>  (39) 
-2.15

>  <Ipc>  (39) 
88368.336532

>  <Kappa1>  (39) 
13.815789

>  <Kappa2>  (39) 
5.687866

>  <Kappa3>  (39) 
2.687278

>  <LabuteASA>  (39) 
120.840938

>  <PEOE_VSA1>  (39) 
19.93754

>  <PEOE_VSA10>  (39) 
18.248507

>  <PEOE_VSA11>  (39) 
0.0

>  <PEOE_VSA12>  (39) 
0.0

>  <PEOE_VSA13>  (39) 
0.0

>  <PEOE_VSA14>  (39) 
6.031115

>  <PEOE_VSA2>  (39) 
0.0

>  <PEOE_VSA3>  (39) 
14.168931

>  <PEOE_VSA4>  (39) 
0.0

>  <PEOE_VSA5>  (39) 
0.0

>  <PEOE_VSA6>  (39) 
0.0

>  <PEOE_VSA7>  (39) 
19.056471

>  <PEOE_VSA8>  (39) 
19.15588

>  <PEOE_VSA9>  (39) 
23.682124

>  <SMR_VSA1>  (39) 
13.921815

>  <SMR_VSA10>  (39) 
17.064516

>  <SMR_VSA2>  (39) 
0.0

>  <SMR_VSA3>  (39) 
20.184655

>  <SMR_VSA4>  (39) 
0.0

>  <SMR_VSA5>  (39) 
19.57246

>  <SMR_VSA6>  (39) 
19.696395

>  <SMR_VSA7>  (39) 
29.840727

>  <SMR_VSA8>  (39) 
0.0

>  <SMR_VSA9>  (39) 
0.0

>  <SlogP_VSA1>  (39) 
10.633577

>  <SlogP_VSA10>  (39) 
9.184952

>  <SlogP_VSA11>  (39) 
0.0

>  <SlogP_VSA12>  (39) 
0.0

>  <SlogP_VSA2>  (39) 
35.278587

>  <SlogP_VSA3>  (39) 
11.343745

>  <SlogP_VSA4>  (39) 
5.817221

>  <SlogP_VSA5>  (39) 
18.789983

>  <SlogP_VSA6>  (39) 
18.199101

>  <SlogP_VSA7>  (39) 
0.0

>  <SlogP_VSA8>  (39) 
11.033401

>  <SlogP_VSA9>  (39) 
0.0

>  <EState_VSA1>  (39) 
0.0

>  <EState_VSA10>  (39) 
9.184952

>  <EState_VSA11>  (39) 
0.0

>  <EState_VSA2>  (39) 
17.890176

>  <EState_VSA3>  (39) 
31.819977

>  <EState_VSA4>  (39) 
11.341105

>  <EState_VSA5>  (39) 
12.132734

>  <EState_VSA6>  (39) 
6.066367

>  <EState_VSA7>  (39) 
11.490837

>  <EState_VSA8>  (39) 
15.617556

>  <EState_VSA9>  (39) 
4.736863

>  <VSA_EState1>  (39) 
20.821352

>  <VSA_EState10>  (39) 
0.0

>  <VSA_EState2>  (39) 
15.904088

>  <VSA_EState3>  (39) 
5.489531

>  <VSA_EState4>  (39) 
1.468435

>  <VSA_EState5>  (39) 
0.444827

>  <VSA_EState6>  (39) 
4.28573

>  <VSA_EState7>  (39) 
0.0

>  <VSA_EState8>  (39) 
3.752703

>  <VSA_EState9>  (39) 
0.0

>  <FractionCSP3>  (39) 
0.428571

>  <HeavyAtomCount>  (39) 
21

>  <NHOHCount>  (39) 
2

>  <NOCount>  (39) 
6

>  <NumAliphaticCarbocycles>  (39) 
0

>  <NumAliphaticHeterocycles>  (39) 
1

>  <NumAliphaticRings>  (39) 
1

>  <NumAromaticCarbocycles>  (39) 
1

>  <NumAromaticHeterocycles>  (39) 
1

>  <NAR>  (39) 
2

>  <NumHAcceptors>  (39) 
4

>  <NumHDonors>  (39) 
2

>  <NumHeteroatoms>  (39) 
7

>  <NumRotatableBonds>  (39) 
3

>  <NumSaturatedCarbocycles>  (39) 
0

>  <NumSaturatedHeterocycles>  (39) 
0

>  <NumSaturatedRings>  (39) 
0

>  <RingCount>  (39) 
3

>  <MolLogP>  (39) 
1.5658

>  <MolMR>  (39) 
75.4594

>  <fr_Al_COO>  (39) 
0

>  <fr_Al_OH>  (39) 
0

>  <fr_Al_OH_noTert>  (39) 
0

>  <fr_ArN>  (39) 
0

>  <fr_Ar_COO>  (39) 
0

>  <fr_Ar_N>  (39) 
2

>  <fr_Ar_NH>  (39) 
0

>  <fr_Ar_OH>  (39) 
0

>  <fr_COO>  (39) 
0

>  <fr_COO2>  (39) 
0

>  <fr_C_O>  (39) 
1

>  <fr_C_O_noCOO>  (39) 
1

>  <fr_C_S>  (39) 
0

>  <fr_HOCCN>  (39) 
0

>  <fr_Imine>  (39) 
0

>  <fr_NH0>  (39) 
2

>  <fr_NH1>  (39) 
2

>  <fr_NH2>  (39) 
0

>  <fr_N_O>  (39) 
0

>  <fr_Ndealkylation1>  (39) 
0

>  <fr_Ndealkylation2>  (39) 
0

>  <fr_Nhpyrrole>  (39) 
0

>  <fr_SH>  (39) 
0

>  <fr_aldehyde>  (39) 
0

>  <fr_alkyl_carbamate>  (39) 
0

>  <fr_alkyl_halide>  (39) 
0

>  <fr_allylic_oxid>  (39) 
0

>  <fr_amide>  (39) 
2

>  <fr_amidine>  (39) 
0

>  <fr_aniline>  (39) 
0

>  <fr_aryl_methyl>  (39) 
0

>  <fr_azide>  (39) 
0

>  <fr_azo>  (39) 
0

>  <fr_barbitur>  (39) 
0

>  <fr_benzene>  (39) 
1

>  <fr_benzodiazepine>  (39) 
0

>  <fr_bicyclic>  (39) 
3

>  <fr_diazo>  (39) 
0

>  <fr_dihydropyridine>  (39) 
0

>  <fr_epoxide>  (39) 
0

>  <fr_ester>  (39) 
0

>  <fr_ether>  (39) 
1

>  <fr_furan>  (39) 
0

>  <fr_guanido>  (39) 
0

>  <fr_halogen>  (39) 
1

>  <fr_hdrzine>  (39) 
0

>  <fr_hdrzone>  (39) 
0

>  <fr_imidazole>  (39) 
1

>  <fr_imide>  (39) 
0

>  <fr_isocyan>  (39) 
0

>  <fr_isothiocyan>  (39) 
0

>  <fr_ketone>  (39) 
0

>  <fr_ketone_Topliss>  (39) 
0

>  <fr_lactam>  (39) 
0

>  <fr_lactone>  (39) 
0

>  <fr_methoxy>  (39) 
0

>  <fr_morpholine>  (39) 
0

>  <fr_nitrile>  (39) 
0

>  <fr_nitro>  (39) 
0

>  <fr_nitro_arom>  (39) 
0

>  <fr_nitro_arom_nonortho>  (39) 
0

>  <fr_nitroso>  (39) 
0

>  <fr_oxazole>  (39) 
0

>  <fr_oxime>  (39) 
0

>  <fr_para_hydroxylation>  (39) 
0

>  <fr_phenol>  (39) 
0

>  <fr_phenol_noOrthoHbond>  (39) 
0

>  <fr_phos_acid>  (39) 
0

>  <fr_phos_ester>  (39) 
0

>  <fr_piperdine>  (39) 
0

>  <fr_piperzine>  (39) 
0

>  <fr_priamide>  (39) 
0

>  <fr_prisulfonamd>  (39) 
0

>  <fr_pyridine>  (39) 
0

>  <fr_quatN>  (39) 
0

>  <fr_sulfide>  (39) 
0

>  <fr_sulfonamd>  (39) 
0

>  <fr_sulfone>  (39) 
0

>  <fr_term_acetylene>  (39) 
0

>  <fr_tetrazole>  (39) 
0

>  <fr_thiazole>  (39) 
0

>  <fr_thiocyan>  (39) 
0

>  <fr_thiophene>  (39) 
0

>  <fr_unbrch_alkane>  (39) 
0

>  <fr_urea>  (39) 
1

>  <NP-Likeness>  (39) 
-1.821692

$$$$
F274
     RDKit          3D

  0  0  0  0  0  0  0  0  0  0999 V3000
M  V30 BEGIN CTAB
M  V30 COUNTS 36 37 0 0 0
M  V30 BEGIN ATOM
M  V30 1 O -2.058567 -1.075535 2.985904 0
M  V30 2 C -1.363970 0.094816 3.258146 0
M  V30 3 C -0.571441 0.536815 2.042442 0 CFG=1
M  V30 4 N 0.397379 -0.448210 1.618987 0
M  V30 5 C 1.001898 -1.218093 2.689279 0
M  V30 6 C 0.899588 -0.833998 0.326547 0
M  V30 7 N 1.345768 -2.113068 0.504808 0
M  V30 8 C 1.891505 -2.799275 -0.521366 0
M  V30 9 C 2.401336 -4.191496 -0.415886 0
M  V30 10 C 1.980303 -2.165197 -1.744799 0
M  V30 11 C 1.524783 -0.868455 -1.913897 0
M  V30 12 C 0.965485 -0.161360 -0.867657 0
M  V30 13 C 0.580624 1.185345 -1.366101 0
M  V30 14 N -0.837637 1.440568 -1.293368 0 CHG=1 VAL=4
M  V30 15 C -1.230893 1.923844 0.037608 0
M  V30 16 C -1.618320 0.810405 0.963956 0
M  V30 17 H -2.094020 -1.705229 3.740826 0
M  V30 18 H -2.160933 0.886110 3.369476 0
M  V30 19 H -0.797270 0.093423 4.191670 0
M  V30 20 H -0.028683 1.466509 2.325788 0
M  V30 21 H 1.522610 -2.085404 2.278734 0
M  V30 22 H 0.284730 -1.561591 3.454802 0
M  V30 23 H 1.796978 -0.574134 3.166666 0
M  V30 24 H 3.496721 -4.266929 -0.371913 0
M  V30 25 H 2.041801 -4.684817 0.523986 0
M  V30 26 H 1.990111 -4.822892 -1.254980 0
M  V30 27 H 2.405895 -2.652586 -2.612766 0
M  V30 28 H 1.582394 -0.340011 -2.873484 0
M  V30 29 H 1.053229 1.905448 -0.636115 0
M  V30 30 H 1.038305 1.391265 -2.344696 0
M  V30 31 H -1.032754 2.204459 -2.007232 0
M  V30 32 H -1.336701 0.575691 -1.536176 0
M  V30 33 H -2.155124 2.565192 -0.061359 0
M  V30 34 H -0.464284 2.614844 0.441671 0
M  V30 35 H -2.640099 0.877854 1.355553 0
M  V30 36 H -1.597078 -0.131180 0.339930 0
M  V30 END ATOM
M  V30 BEGIN BOND
M  V30 1 1 1 2
M  V30 2 1 2 3
M  V30 3 1 3 4
M  V30 4 1 4 5
M  V30 5 1 4 6
M  V30 6 2 6 7
M  V30 7 1 7 8
M  V30 8 1 8 9
M  V30 9 2 8 10
M  V30 10 1 10 11
M  V30 11 2 11 12
M  V30 12 1 12 13
M  V30 13 1 13 14
M  V30 14 1 14 15
M  V30 15 1 15 16
M  V30 16 1 16 3
M  V30 17 1 12 6
M  V30 18 1 1 17
M  V30 19 1 2 18
M  V30 20 1 2 19
M  V30 21 1 3 20 CFG=1
M  V30 22 1 5 21
M  V30 23 1 5 22
M  V30 24 1 5 23
M  V30 25 1 9 24
M  V30 26 1 9 25
M  V30 27 1 9 26
M  V30 28 1 10 27
M  V30 29 1 11 28
M  V30 30 1 13 29
M  V30 31 1 13 30
M  V30 32 1 14 31
M  V30 33 1 14 32
M  V30 34 1 15 33
M  V30 35 1 15 34
M  V30 36 1 16 35
M  V30 37 1 16 36
M  V30 END BOND
M  V30 END CTAB
M  END
>  <Dataset>  (40) 
CF

>  <Ligand_Instance>  (40) 
274_A_401

>  <PDB_ID>  (40) 
nan

>  <Standardized_SMILES>  (40) 
[H]OC([H])([H])[C@@]1([H])N(C([H])([H])[H])C2=NC(C([H])([H])[H])=C([H])C([H])=C2C([H])([H])[N+]([H])([H])C([H])([H])C1([H])[H]

>  <Name>  (40) 
[(2S)‐1,9‐dimethyl‐1H,2H,3H,4H,5H,6H‐pyrido[2,3‐b][1,5]diazocin‐2‐yl]methanol

>  <Pocket>  (40) 
A

>  <ATP_Site>  (40) 
1.0

>  <Peripheral>  (40) 
1.0

>  <Num_H_Atoms_ProtBoundConf>  (40) 
20.0

>  <Num_Resolved_Atoms>  (40) 
16.0

>  <Num_Not_Resolved_Atoms>  (40) 
0.0

>  <2D_Mol_H>  (40) 
<rdkit.Chem.rdchem.Mol object at 0x72a238db57e0>

>  <MW>  (40) 
222.312

>  <HBA>  (40) 
3

>  <HBD>  (40) 
2

>  <LogP>  (40) 
-0.34578

>  <NRB>  (40) 
4

>  <TPSA>  (40) 
52.97

>  <Num_Heavy_Atoms>  (40) 
16

>  <Ro5>  (40) 
[True, True, True, True, True, True]

>  <Ro5_Fulfilled>  (40) 
True

>  <Ro3>  (40) 
[True, True, True, True]

>  <Ro3_Fulfilled>  (40) 
True

>  <Fsp3>  (40) 
0.583333

>  <Fsp3_0.42>  (40) 
True

>  <Fsp3_0.45>  (40) 
True

>  <Stereogenic_Carbons>  (40) 
1

>  <C_Atoms>  (40) 
12

>  <FCStereo>  (40) 
0.083333

>  <SPS>  (40) 
339

>  <nSPS>  (40) 
21.1875

>  <PBF>  (40) 
0.685898

>  <PBF_0.6>  (40) 
True

>  <nPBF>  (40) 
0.042869

>  <nPBF_0.016>  (40) 
True

>  <PMI1>  (40) 
701.683596

>  <PMI2>  (40) 
1107.292449

>  <PMI3>  (40) 
1646.137228

>  <NPR1>  (40) 
0.426261

>  <NPR2>  (40) 
0.672661

>  <Sum_NPR>  (40) 
1.098922

>  <Sum_NPR_1.07>  (40) 
True

>  <Sum_NPR_1.2>  (40) 
False

>  <MaxAbsEStateIndex>  (40) 
9.389821

>  <MaxEStateIndex>  (40) 
9.389821

>  <MinAbsEStateIndex>  (40) 
0.184815

>  <MinEStateIndex>  (40) 
0.184815

>  <qed>  (40) 
0.682981

>  <MolWt>  (40) 
222.312

>  <HeavyAtomMolWt>  (40) 
202.152

>  <ExactMolWt>  (40) 
222.160089

>  <NumValenceElectrons>  (40) 
88

>  <NumRadicalElectrons>  (40) 
0

>  <MaxPartialCharge>  (40) 
0.137291

>  <MinPartialCharge>  (40) 
-0.394232

>  <MaxAbsPartialCharge>  (40) 
0.394232

>  <MinAbsPartialCharge>  (40) 
0.137291

>  <FpDensityMorgan1>  (40) 
1.5625

>  <FpDensityMorgan2>  (40) 
2.375

>  <FpDensityMorgan3>  (40) 
3.125

>  <BCUT2D_MWHI>  (40) 
16.252666

>  <BCUT2D_MWLOW>  (40) 
10.098746

>  <BCUT2D_CHGHI>  (40) 
2.213544

>  <BCUT2D_CHGLO>  (40) 
-2.302547

>  <BCUT2D_LOGPHI>  (40) 
2.200961

>  <BCUT2D_LOGPLOW>  (40) 
-2.832387

>  <BCUT2D_MRHI>  (40) 
5.474611

>  <BCUT2D_MRLOW>  (40) 
-0.67097

>  <AvgIpc>  (40) 
2.277645

>  <BalabanJ>  (40) 
2.372771

>  <BertzCT>  (40) 
367.281547

>  <Chi0>  (40) 
11.543606

>  <Chi0n>  (40) 
9.979469

>  <Chi0v>  (40) 
9.979469

>  <Chi1>  (40) 
7.719545

>  <Chi1n>  (40) 
5.839691

>  <Chi1v>  (40) 
5.839691

>  <Chi2n>  (40) 
4.452816

>  <Chi2v>  (40) 
4.452816

>  <Chi3n>  (40) 
3.256013

>  <Chi3v>  (40) 
3.256013

>  <Chi4n>  (40) 
2.184708

>  <Chi4v>  (40) 
2.184708

>  <HallKierAlpha>  (40) 
-1.13

>  <Ipc>  (40) 
4851.383692

>  <Kappa1>  (40) 
11.358214

>  <Kappa2>  (40) 
4.803259

>  <Kappa3>  (40) 
2.175637

>  <LabuteASA>  (40) 
96.303744

>  <PEOE_VSA1>  (40) 
15.323226

>  <PEOE_VSA10>  (40) 
12.362619

>  <PEOE_VSA11>  (40) 
0.0

>  <PEOE_VSA12>  (40) 
0.0

>  <PEOE_VSA13>  (40) 
0.0

>  <PEOE_VSA14>  (40) 
0.0

>  <PEOE_VSA2>  (40) 
0.0

>  <PEOE_VSA3>  (40) 
4.983979

>  <PEOE_VSA4>  (40) 
0.0

>  <PEOE_VSA5>  (40) 
0.0

>  <PEOE_VSA6>  (40) 
0.0

>  <PEOE_VSA7>  (40) 
19.056471

>  <PEOE_VSA8>  (40) 
24.725873

>  <PEOE_VSA9>  (40) 
19.193479

>  <SMR_VSA1>  (40) 
10.423316

>  <SMR_VSA10>  (40) 
5.817863

>  <SMR_VSA2>  (40) 
0.0

>  <SMR_VSA3>  (40) 
4.983979

>  <SMR_VSA4>  (40) 
0.0

>  <SMR_VSA5>  (40) 
25.931156

>  <SMR_VSA6>  (40) 
25.09922

>  <SMR_VSA7>  (40) 
23.390114

>  <SMR_VSA8>  (40) 
0.0

>  <SMR_VSA9>  (40) 
0.0

>  <SlogP_VSA1>  (40) 
10.216698

>  <SlogP_VSA10>  (40) 
5.817863

>  <SlogP_VSA11>  (40) 
0.0

>  <SlogP_VSA12>  (40) 
0.0

>  <SlogP_VSA2>  (40) 
36.331657

>  <SlogP_VSA3>  (40) 
6.544756

>  <SlogP_VSA4>  (40) 
6.923737

>  <SlogP_VSA5>  (40) 
17.678201

>  <SlogP_VSA6>  (40) 
12.132734

>  <SlogP_VSA7>  (40) 
0.0

>  <SlogP_VSA8>  (40) 
0.0

>  <SlogP_VSA9>  (40) 
0.0

>  <EState_VSA1>  (40) 
0.0

>  <EState_VSA10>  (40) 
5.106527

>  <EState_VSA11>  (40) 
0.0

>  <EState_VSA2>  (40) 
12.648723

>  <EState_VSA3>  (40) 
0.0

>  <EState_VSA4>  (40) 
31.022125

>  <EState_VSA5>  (40) 
5.563451

>  <EState_VSA6>  (40) 
0.0

>  <EState_VSA7>  (40) 
13.971409

>  <EState_VSA8>  (40) 
27.333411

>  <EState_VSA9>  (40) 
0.0

>  <VSA_EState1>  (40) 
0.0

>  <VSA_EState10>  (40) 
0.0

>  <VSA_EState2>  (40) 
6.709769

>  <VSA_EState3>  (40) 
11.673062

>  <VSA_EState4>  (40) 
2.286216

>  <VSA_EState5>  (40) 
1.023148

>  <VSA_EState6>  (40) 
4.379748

>  <VSA_EState7>  (40) 
1.002046

>  <VSA_EState8>  (40) 
4.234067

>  <VSA_EState9>  (40) 
2.025278

>  <FractionCSP3>  (40) 
0.583333

>  <HeavyAtomCount>  (40) 
16

>  <NHOHCount>  (40) 
3

>  <NOCount>  (40) 
4

>  <NumAliphaticCarbocycles>  (40) 
0

>  <NumAliphaticHeterocycles>  (40) 
1

>  <NumAliphaticRings>  (40) 
1

>  <NumAromaticCarbocycles>  (40) 
0

>  <NumAromaticHeterocycles>  (40) 
1

>  <NAR>  (40) 
1

>  <NumHAcceptors>  (40) 
3

>  <NumHDonors>  (40) 
2

>  <NumHeteroatoms>  (40) 
4

>  <NumRotatableBonds>  (40) 
1

>  <NumSaturatedCarbocycles>  (40) 
0

>  <NumSaturatedHeterocycles>  (40) 
0

>  <NumSaturatedRings>  (40) 
0

>  <RingCount>  (40) 
2

>  <MolLogP>  (40) 
-0.34578

>  <MolMR>  (40) 
63.3642

>  <fr_Al_COO>  (40) 
0

>  <fr_Al_OH>  (40) 
1

>  <fr_Al_OH_noTert>  (40) 
1

>  <fr_ArN>  (40) 
0

>  <fr_Ar_COO>  (40) 
0

>  <fr_Ar_N>  (40) 
1

>  <fr_Ar_NH>  (40) 
0

>  <fr_Ar_OH>  (40) 
0

>  <fr_COO>  (40) 
0

>  <fr_COO2>  (40) 
0

>  <fr_C_O>  (40) 
0

>  <fr_C_O_noCOO>  (40) 
0

>  <fr_C_S>  (40) 
0

>  <fr_HOCCN>  (40) 
0

>  <fr_Imine>  (40) 
0

>  <fr_NH0>  (40) 
2

>  <fr_NH1>  (40) 
0

>  <fr_NH2>  (40) 
1

>  <fr_N_O>  (40) 
0

>  <fr_Ndealkylation1>  (40) 
1

>  <fr_Ndealkylation2>  (40) 
0

>  <fr_Nhpyrrole>  (40) 
0

>  <fr_SH>  (40) 
0

>  <fr_aldehyde>  (40) 
0

>  <fr_alkyl_carbamate>  (40) 
0

>  <fr_alkyl_halide>  (40) 
0

>  <fr_allylic_oxid>  (40) 
0

>  <fr_amide>  (40) 
0

>  <fr_amidine>  (40) 
0

>  <fr_aniline>  (40) 
1

>  <fr_aryl_methyl>  (40) 
1

>  <fr_azide>  (40) 
0

>  <fr_azo>  (40) 
0

>  <fr_barbitur>  (40) 
0

>  <fr_benzene>  (40) 
0

>  <fr_benzodiazepine>  (40) 
0

>  <fr_bicyclic>  (40) 
1

>  <fr_diazo>  (40) 
0

>  <fr_dihydropyridine>  (40) 
0

>  <fr_epoxide>  (40) 
0

>  <fr_ester>  (40) 
0

>  <fr_ether>  (40) 
0

>  <fr_furan>  (40) 
0

>  <fr_guanido>  (40) 
0

>  <fr_halogen>  (40) 
0

>  <fr_hdrzine>  (40) 
0

>  <fr_hdrzone>  (40) 
0

>  <fr_imidazole>  (40) 
0

>  <fr_imide>  (40) 
0

>  <fr_isocyan>  (40) 
0

>  <fr_isothiocyan>  (40) 
0

>  <fr_ketone>  (40) 
0

>  <fr_ketone_Topliss>  (40) 
0

>  <fr_lactam>  (40) 
0

>  <fr_lactone>  (40) 
0

>  <fr_methoxy>  (40) 
0

>  <fr_morpholine>  (40) 
0

>  <fr_nitrile>  (40) 
0

>  <fr_nitro>  (40) 
0

>  <fr_nitro_arom>  (40) 
0

>  <fr_nitro_arom_nonortho>  (40) 
0

>  <fr_nitroso>  (40) 
0

>  <fr_oxazole>  (40) 
0

>  <fr_oxime>  (40) 
0

>  <fr_para_hydroxylation>  (40) 
0

>  <fr_phenol>  (40) 
0

>  <fr_phenol_noOrthoHbond>  (40) 
0

>  <fr_phos_acid>  (40) 
0

>  <fr_phos_ester>  (40) 
0

>  <fr_piperdine>  (40) 
0

>  <fr_piperzine>  (40) 
0

>  <fr_priamide>  (40) 
0

>  <fr_prisulfonamd>  (40) 
0

>  <fr_pyridine>  (40) 
1

>  <fr_quatN>  (40) 
1

>  <fr_sulfide>  (40) 
0

>  <fr_sulfonamd>  (40) 
0

>  <fr_sulfone>  (40) 
0

>  <fr_term_acetylene>  (40) 
0

>  <fr_tetrazole>  (40) 
0

>  <fr_thiazole>  (40) 
0

>  <fr_thiocyan>  (40) 
0

>  <fr_thiophene>  (40) 
0

>  <fr_unbrch_alkane>  (40) 
0

>  <fr_urea>  (40) 
0

>  <NP-Likeness>  (40) 
-0.276887

$$$$
F274
     RDKit          3D

  0  0  0  0  0  0  0  0  0  0999 V3000
M  V30 BEGIN CTAB
M  V30 COUNTS 36 37 0 0 0
M  V30 BEGIN ATOM
M  V30 1 O -2.058567 -1.075535 2.985904 0
M  V30 2 C -1.363970 0.094816 3.258146 0
M  V30 3 C -0.571441 0.536815 2.042442 0 CFG=1
M  V30 4 N 0.397379 -0.448210 1.618987 0
M  V30 5 C 1.001898 -1.218093 2.689279 0
M  V30 6 C 0.899588 -0.833998 0.326547 0
M  V30 7 N 1.345768 -2.113068 0.504808 0
M  V30 8 C 1.891505 -2.799275 -0.521366 0
M  V30 9 C 2.401336 -4.191496 -0.415886 0
M  V30 10 C 1.980303 -2.165197 -1.744799 0
M  V30 11 C 1.524783 -0.868455 -1.913897 0
M  V30 12 C 0.965485 -0.161360 -0.867657 0
M  V30 13 C 0.580624 1.185345 -1.366101 0
M  V30 14 N -0.837637 1.440568 -1.293368 0 CHG=1 VAL=4
M  V30 15 C -1.230893 1.923844 0.037608 0
M  V30 16 C -1.618320 0.810405 0.963956 0
M  V30 17 H -2.094020 -1.705229 3.740826 0
M  V30 18 H -2.160933 0.886110 3.369476 0
M  V30 19 H -0.797270 0.093423 4.191670 0
M  V30 20 H -0.028683 1.466509 2.325788 0
M  V30 21 H 1.522610 -2.085404 2.278734 0
M  V30 22 H 0.284730 -1.561591 3.454802 0
M  V30 23 H 1.796978 -0.574134 3.166666 0
M  V30 24 H 3.496721 -4.266929 -0.371913 0
M  V30 25 H 2.041801 -4.684817 0.523986 0
M  V30 26 H 1.990111 -4.822892 -1.254980 0
M  V30 27 H 2.405895 -2.652586 -2.612766 0
M  V30 28 H 1.582394 -0.340011 -2.873484 0
M  V30 29 H 1.053229 1.905448 -0.636115 0
M  V30 30 H 1.038305 1.391265 -2.344696 0
M  V30 31 H -1.032754 2.204459 -2.007232 0
M  V30 32 H -1.336701 0.575691 -1.536176 0
M  V30 33 H -2.155124 2.565192 -0.061359 0
M  V30 34 H -0.464284 2.614844 0.441671 0
M  V30 35 H -2.640099 0.877854 1.355553 0
M  V30 36 H -1.597078 -0.131180 0.339930 0
M  V30 END ATOM
M  V30 BEGIN BOND
M  V30 1 1 1 2
M  V30 2 1 2 3
M  V30 3 1 3 4
M  V30 4 1 4 5
M  V30 5 1 4 6
M  V30 6 2 6 7
M  V30 7 1 7 8
M  V30 8 1 8 9
M  V30 9 2 8 10
M  V30 10 1 10 11
M  V30 11 2 11 12
M  V30 12 1 12 13
M  V30 13 1 13 14
M  V30 14 1 14 15
M  V30 15 1 15 16
M  V30 16 1 16 3
M  V30 17 1 12 6
M  V30 18 1 1 17
M  V30 19 1 2 18
M  V30 20 1 2 19
M  V30 21 1 3 20 CFG=1
M  V30 22 1 5 21
M  V30 23 1 5 22
M  V30 24 1 5 23
M  V30 25 1 9 24
M  V30 26 1 9 25
M  V30 27 1 9 26
M  V30 28 1 10 27
M  V30 29 1 11 28
M  V30 30 1 13 29
M  V30 31 1 13 30
M  V30 32 1 14 31
M  V30 33 1 14 32
M  V30 34 1 15 33
M  V30 35 1 15 34
M  V30 36 1 16 35
M  V30 37 1 16 36
M  V30 END BOND
M  V30 END CTAB
M  END
>  <Dataset>  (41) 
CF

>  <Ligand_Instance>  (41) 
274_A_501

>  <PDB_ID>  (41) 
nan

>  <Standardized_SMILES>  (41) 
[H]OC([H])([H])[C@@]1([H])N(C([H])([H])[H])C2=NC(C([H])([H])[H])=C([H])C([H])=C2C([H])([H])[N+]([H])([H])C([H])([H])C1([H])[H]

>  <Name>  (41) 
[(2S)‐1,9‐dimethyl‐1H,2H,3H,4H,5H,6H‐pyrido[2,3‐b][1,5]diazocin‐2‐yl]methanol

>  <Pocket>  (41) 
X

>  <ATP_Site>  (41) 
1.0

>  <Peripheral>  (41) 
1.0

>  <Num_H_Atoms_ProtBoundConf>  (41) 
20.0

>  <Num_Resolved_Atoms>  (41) 
16.0

>  <Num_Not_Resolved_Atoms>  (41) 
0.0

>  <2D_Mol_H>  (41) 
<rdkit.Chem.rdchem.Mol object at 0x72a238db58c0>

>  <MW>  (41) 
222.312

>  <HBA>  (41) 
3

>  <HBD>  (41) 
2

>  <LogP>  (41) 
-0.34578

>  <NRB>  (41) 
4

>  <TPSA>  (41) 
52.97

>  <Num_Heavy_Atoms>  (41) 
16

>  <Ro5>  (41) 
[True, True, True, True, True, True]

>  <Ro5_Fulfilled>  (41) 
True

>  <Ro3>  (41) 
[True, True, True, True]

>  <Ro3_Fulfilled>  (41) 
True

>  <Fsp3>  (41) 
0.583333

>  <Fsp3_0.42>  (41) 
True

>  <Fsp3_0.45>  (41) 
True

>  <Stereogenic_Carbons>  (41) 
1

>  <C_Atoms>  (41) 
12

>  <FCStereo>  (41) 
0.083333

>  <SPS>  (41) 
339

>  <nSPS>  (41) 
21.1875

>  <PBF>  (41) 
0.685898

>  <PBF_0.6>  (41) 
True

>  <nPBF>  (41) 
0.042869

>  <nPBF_0.016>  (41) 
True

>  <PMI1>  (41) 
701.683596

>  <PMI2>  (41) 
1107.292449

>  <PMI3>  (41) 
1646.137228

>  <NPR1>  (41) 
0.426261

>  <NPR2>  (41) 
0.672661

>  <Sum_NPR>  (41) 
1.098922

>  <Sum_NPR_1.07>  (41) 
True

>  <Sum_NPR_1.2>  (41) 
False

>  <MaxAbsEStateIndex>  (41) 
9.389821

>  <MaxEStateIndex>  (41) 
9.389821

>  <MinAbsEStateIndex>  (41) 
0.184815

>  <MinEStateIndex>  (41) 
0.184815

>  <qed>  (41) 
0.682981

>  <MolWt>  (41) 
222.312

>  <HeavyAtomMolWt>  (41) 
202.152

>  <ExactMolWt>  (41) 
222.160089

>  <NumValenceElectrons>  (41) 
88

>  <NumRadicalElectrons>  (41) 
0

>  <MaxPartialCharge>  (41) 
0.137291

>  <MinPartialCharge>  (41) 
-0.394232

>  <MaxAbsPartialCharge>  (41) 
0.394232

>  <MinAbsPartialCharge>  (41) 
0.137291

>  <FpDensityMorgan1>  (41) 
1.5625

>  <FpDensityMorgan2>  (41) 
2.375

>  <FpDensityMorgan3>  (41) 
3.125

>  <BCUT2D_MWHI>  (41) 
16.252666

>  <BCUT2D_MWLOW>  (41) 
10.098746

>  <BCUT2D_CHGHI>  (41) 
2.213544

>  <BCUT2D_CHGLO>  (41) 
-2.302547

>  <BCUT2D_LOGPHI>  (41) 
2.200961

>  <BCUT2D_LOGPLOW>  (41) 
-2.832387

>  <BCUT2D_MRHI>  (41) 
5.474611

>  <BCUT2D_MRLOW>  (41) 
-0.67097

>  <AvgIpc>  (41) 
2.277645

>  <BalabanJ>  (41) 
2.372771

>  <BertzCT>  (41) 
367.281547

>  <Chi0>  (41) 
11.543606

>  <Chi0n>  (41) 
9.979469

>  <Chi0v>  (41) 
9.979469

>  <Chi1>  (41) 
7.719545

>  <Chi1n>  (41) 
5.839691

>  <Chi1v>  (41) 
5.839691

>  <Chi2n>  (41) 
4.452816

>  <Chi2v>  (41) 
4.452816

>  <Chi3n>  (41) 
3.256013

>  <Chi3v>  (41) 
3.256013

>  <Chi4n>  (41) 
2.184708

>  <Chi4v>  (41) 
2.184708

>  <HallKierAlpha>  (41) 
-1.13

>  <Ipc>  (41) 
4851.383692

>  <Kappa1>  (41) 
11.358214

>  <Kappa2>  (41) 
4.803259

>  <Kappa3>  (41) 
2.175637

>  <LabuteASA>  (41) 
96.303744

>  <PEOE_VSA1>  (41) 
15.323226

>  <PEOE_VSA10>  (41) 
12.362619

>  <PEOE_VSA11>  (41) 
0.0

>  <PEOE_VSA12>  (41) 
0.0

>  <PEOE_VSA13>  (41) 
0.0

>  <PEOE_VSA14>  (41) 
0.0

>  <PEOE_VSA2>  (41) 
0.0

>  <PEOE_VSA3>  (41) 
4.983979

>  <PEOE_VSA4>  (41) 
0.0

>  <PEOE_VSA5>  (41) 
0.0

>  <PEOE_VSA6>  (41) 
0.0

>  <PEOE_VSA7>  (41) 
19.056471

>  <PEOE_VSA8>  (41) 
24.725873

>  <PEOE_VSA9>  (41) 
19.193479

>  <SMR_VSA1>  (41) 
10.423316

>  <SMR_VSA10>  (41) 
5.817863

>  <SMR_VSA2>  (41) 
0.0

>  <SMR_VSA3>  (41) 
4.983979

>  <SMR_VSA4>  (41) 
0.0

>  <SMR_VSA5>  (41) 
25.931156

>  <SMR_VSA6>  (41) 
25.09922

>  <SMR_VSA7>  (41) 
23.390114

>  <SMR_VSA8>  (41) 
0.0

>  <SMR_VSA9>  (41) 
0.0

>  <SlogP_VSA1>  (41) 
10.216698

>  <SlogP_VSA10>  (41) 
5.817863

>  <SlogP_VSA11>  (41) 
0.0

>  <SlogP_VSA12>  (41) 
0.0

>  <SlogP_VSA2>  (41) 
36.331657

>  <SlogP_VSA3>  (41) 
6.544756

>  <SlogP_VSA4>  (41) 
6.923737

>  <SlogP_VSA5>  (41) 
17.678201

>  <SlogP_VSA6>  (41) 
12.132734

>  <SlogP_VSA7>  (41) 
0.0

>  <SlogP_VSA8>  (41) 
0.0

>  <SlogP_VSA9>  (41) 
0.0

>  <EState_VSA1>  (41) 
0.0

>  <EState_VSA10>  (41) 
5.106527

>  <EState_VSA11>  (41) 
0.0

>  <EState_VSA2>  (41) 
12.648723

>  <EState_VSA3>  (41) 
0.0

>  <EState_VSA4>  (41) 
31.022125

>  <EState_VSA5>  (41) 
5.563451

>  <EState_VSA6>  (41) 
0.0

>  <EState_VSA7>  (41) 
13.971409

>  <EState_VSA8>  (41) 
27.333411

>  <EState_VSA9>  (41) 
0.0

>  <VSA_EState1>  (41) 
0.0

>  <VSA_EState10>  (41) 
0.0

>  <VSA_EState2>  (41) 
6.709769

>  <VSA_EState3>  (41) 
11.673062

>  <VSA_EState4>  (41) 
2.286216

>  <VSA_EState5>  (41) 
1.023148

>  <VSA_EState6>  (41) 
4.379748

>  <VSA_EState7>  (41) 
1.002046

>  <VSA_EState8>  (41) 
4.234067

>  <VSA_EState9>  (41) 
2.025278

>  <FractionCSP3>  (41) 
0.583333

>  <HeavyAtomCount>  (41) 
16

>  <NHOHCount>  (41) 
3

>  <NOCount>  (41) 
4

>  <NumAliphaticCarbocycles>  (41) 
0

>  <NumAliphaticHeterocycles>  (41) 
1

>  <NumAliphaticRings>  (41) 
1

>  <NumAromaticCarbocycles>  (41) 
0

>  <NumAromaticHeterocycles>  (41) 
1

>  <NAR>  (41) 
1

>  <NumHAcceptors>  (41) 
3

>  <NumHDonors>  (41) 
2

>  <NumHeteroatoms>  (41) 
4

>  <NumRotatableBonds>  (41) 
1

>  <NumSaturatedCarbocycles>  (41) 
0

>  <NumSaturatedHeterocycles>  (41) 
0

>  <NumSaturatedRings>  (41) 
0

>  <RingCount>  (41) 
2

>  <MolLogP>  (41) 
-0.34578

>  <MolMR>  (41) 
63.3642

>  <fr_Al_COO>  (41) 
0

>  <fr_Al_OH>  (41) 
1

>  <fr_Al_OH_noTert>  (41) 
1

>  <fr_ArN>  (41) 
0

>  <fr_Ar_COO>  (41) 
0

>  <fr_Ar_N>  (41) 
1

>  <fr_Ar_NH>  (41) 
0

>  <fr_Ar_OH>  (41) 
0

>  <fr_COO>  (41) 
0

>  <fr_COO2>  (41) 
0

>  <fr_C_O>  (41) 
0

>  <fr_C_O_noCOO>  (41) 
0

>  <fr_C_S>  (41) 
0

>  <fr_HOCCN>  (41) 
0

>  <fr_Imine>  (41) 
0

>  <fr_NH0>  (41) 
2

>  <fr_NH1>  (41) 
0

>  <fr_NH2>  (41) 
1

>  <fr_N_O>  (41) 
0

>  <fr_Ndealkylation1>  (41) 
1

>  <fr_Ndealkylation2>  (41) 
0

>  <fr_Nhpyrrole>  (41) 
0

>  <fr_SH>  (41) 
0

>  <fr_aldehyde>  (41) 
0

>  <fr_alkyl_carbamate>  (41) 
0

>  <fr_alkyl_halide>  (41) 
0

>  <fr_allylic_oxid>  (41) 
0

>  <fr_amide>  (41) 
0

>  <fr_amidine>  (41) 
0

>  <fr_aniline>  (41) 
1

>  <fr_aryl_methyl>  (41) 
1

>  <fr_azide>  (41) 
0

>  <fr_azo>  (41) 
0

>  <fr_barbitur>  (41) 
0

>  <fr_benzene>  (41) 
0

>  <fr_benzodiazepine>  (41) 
0

>  <fr_bicyclic>  (41) 
1

>  <fr_diazo>  (41) 
0

>  <fr_dihydropyridine>  (41) 
0

>  <fr_epoxide>  (41) 
0

>  <fr_ester>  (41) 
0

>  <fr_ether>  (41) 
0

>  <fr_furan>  (41) 
0

>  <fr_guanido>  (41) 
0

>  <fr_halogen>  (41) 
0

>  <fr_hdrzine>  (41) 
0

>  <fr_hdrzone>  (41) 
0

>  <fr_imidazole>  (41) 
0

>  <fr_imide>  (41) 
0

>  <fr_isocyan>  (41) 
0

>  <fr_isothiocyan>  (41) 
0

>  <fr_ketone>  (41) 
0

>  <fr_ketone_Topliss>  (41) 
0

>  <fr_lactam>  (41) 
0

>  <fr_lactone>  (41) 
0

>  <fr_methoxy>  (41) 
0

>  <fr_morpholine>  (41) 
0

>  <fr_nitrile>  (41) 
0

>  <fr_nitro>  (41) 
0

>  <fr_nitro_arom>  (41) 
0

>  <fr_nitro_arom_nonortho>  (41) 
0

>  <fr_nitroso>  (41) 
0

>  <fr_oxazole>  (41) 
0

>  <fr_oxime>  (41) 
0

>  <fr_para_hydroxylation>  (41) 
0

>  <fr_phenol>  (41) 
0

>  <fr_phenol_noOrthoHbond>  (41) 
0

>  <fr_phos_acid>  (41) 
0

>  <fr_phos_ester>  (41) 
0

>  <fr_piperdine>  (41) 
0

>  <fr_piperzine>  (41) 
0

>  <fr_priamide>  (41) 
0

>  <fr_prisulfonamd>  (41) 
0

>  <fr_pyridine>  (41) 
1

>  <fr_quatN>  (41) 
1

>  <fr_sulfide>  (41) 
0

>  <fr_sulfonamd>  (41) 
0

>  <fr_sulfone>  (41) 
0

>  <fr_term_acetylene>  (41) 
0

>  <fr_tetrazole>  (41) 
0

>  <fr_thiazole>  (41) 
0

>  <fr_thiocyan>  (41) 
0

>  <fr_thiophene>  (41) 
0

>  <fr_unbrch_alkane>  (41) 
0

>  <fr_urea>  (41) 
0

>  <NP-Likeness>  (41) 
-0.276887

$$$$
F274
     RDKit          3D

  0  0  0  0  0  0  0  0  0  0999 V3000
M  V30 BEGIN CTAB
M  V30 COUNTS 36 37 0 0 0
M  V30 BEGIN ATOM
M  V30 1 O -2.058567 -1.075535 2.985904 0
M  V30 2 C -1.363970 0.094816 3.258146 0
M  V30 3 C -0.571441 0.536815 2.042442 0 CFG=1
M  V30 4 N 0.397379 -0.448210 1.618987 0
M  V30 5 C 1.001898 -1.218093 2.689279 0
M  V30 6 C 0.899588 -0.833998 0.326547 0
M  V30 7 N 1.345768 -2.113068 0.504808 0
M  V30 8 C 1.891505 -2.799275 -0.521366 0
M  V30 9 C 2.401336 -4.191496 -0.415886 0
M  V30 10 C 1.980303 -2.165197 -1.744799 0
M  V30 11 C 1.524783 -0.868455 -1.913897 0
M  V30 12 C 0.965485 -0.161360 -0.867657 0
M  V30 13 C 0.580624 1.185345 -1.366101 0
M  V30 14 N -0.837637 1.440568 -1.293368 0 CHG=1 VAL=4
M  V30 15 C -1.230893 1.923844 0.037608 0
M  V30 16 C -1.618320 0.810405 0.963956 0
M  V30 17 H -2.094020 -1.705229 3.740826 0
M  V30 18 H -2.160933 0.886110 3.369476 0
M  V30 19 H -0.797270 0.093423 4.191670 0
M  V30 20 H -0.028683 1.466509 2.325788 0
M  V30 21 H 1.522610 -2.085404 2.278734 0
M  V30 22 H 0.284730 -1.561591 3.454802 0
M  V30 23 H 1.796978 -0.574134 3.166666 0
M  V30 24 H 3.496721 -4.266929 -0.371913 0
M  V30 25 H 2.041801 -4.684817 0.523986 0
M  V30 26 H 1.990111 -4.822892 -1.254980 0
M  V30 27 H 2.405895 -2.652586 -2.612766 0
M  V30 28 H 1.582394 -0.340011 -2.873484 0
M  V30 29 H 1.053229 1.905448 -0.636115 0
M  V30 30 H 1.038305 1.391265 -2.344696 0
M  V30 31 H -1.032754 2.204459 -2.007232 0
M  V30 32 H -1.336701 0.575691 -1.536176 0
M  V30 33 H -2.155124 2.565192 -0.061359 0
M  V30 34 H -0.464284 2.614844 0.441671 0
M  V30 35 H -2.640099 0.877854 1.355553 0
M  V30 36 H -1.597078 -0.131180 0.339930 0
M  V30 END ATOM
M  V30 BEGIN BOND
M  V30 1 1 1 2
M  V30 2 1 2 3
M  V30 3 1 3 4
M  V30 4 1 4 5
M  V30 5 1 4 6
M  V30 6 2 6 7
M  V30 7 1 7 8
M  V30 8 1 8 9
M  V30 9 2 8 10
M  V30 10 1 10 11
M  V30 11 2 11 12
M  V30 12 1 12 13
M  V30 13 1 13 14
M  V30 14 1 14 15
M  V30 15 1 15 16
M  V30 16 1 16 3
M  V30 17 1 12 6
M  V30 18 1 1 17
M  V30 19 1 2 18
M  V30 20 1 2 19
M  V30 21 1 3 20 CFG=1
M  V30 22 1 5 21
M  V30 23 1 5 22
M  V30 24 1 5 23
M  V30 25 1 9 24
M  V30 26 1 9 25
M  V30 27 1 9 26
M  V30 28 1 10 27
M  V30 29 1 11 28
M  V30 30 1 13 29
M  V30 31 1 13 30
M  V30 32 1 14 31
M  V30 33 1 14 32
M  V30 34 1 15 33
M  V30 35 1 15 34
M  V30 36 1 16 35
M  V30 37 1 16 36
M  V30 END BOND
M  V30 END CTAB
M  END
>  <Dataset>  (42) 
CF

>  <Ligand_Instance>  (42) 
274_A_601

>  <PDB_ID>  (42) 
nan

>  <Standardized_SMILES>  (42) 
[H]OC([H])([H])[C@@]1([H])N(C([H])([H])[H])C2=NC(C([H])([H])[H])=C([H])C([H])=C2C([H])([H])[N+]([H])([H])C([H])([H])C1([H])[H]

>  <Name>  (42) 
[(2S)‐1,9‐dimethyl‐1H,2H,3H,4H,5H,6H‐pyrido[2,3‐b][1,5]diazocin‐2‐yl]methanol

>  <Pocket>  (42) 
X

>  <ATP_Site>  (42) 
1.0

>  <Peripheral>  (42) 
1.0

>  <Num_H_Atoms_ProtBoundConf>  (42) 
20.0

>  <Num_Resolved_Atoms>  (42) 
16.0

>  <Num_Not_Resolved_Atoms>  (42) 
0.0

>  <2D_Mol_H>  (42) 
<rdkit.Chem.rdchem.Mol object at 0x72a238db59a0>

>  <MW>  (42) 
222.312

>  <HBA>  (42) 
3

>  <HBD>  (42) 
2

>  <LogP>  (42) 
-0.34578

>  <NRB>  (42) 
4

>  <TPSA>  (42) 
52.97

>  <Num_Heavy_Atoms>  (42) 
16

>  <Ro5>  (42) 
[True, True, True, True, True, True]

>  <Ro5_Fulfilled>  (42) 
True

>  <Ro3>  (42) 
[True, True, True, True]

>  <Ro3_Fulfilled>  (42) 
True

>  <Fsp3>  (42) 
0.583333

>  <Fsp3_0.42>  (42) 
True

>  <Fsp3_0.45>  (42) 
True

>  <Stereogenic_Carbons>  (42) 
1

>  <C_Atoms>  (42) 
12

>  <FCStereo>  (42) 
0.083333

>  <SPS>  (42) 
339

>  <nSPS>  (42) 
21.1875

>  <PBF>  (42) 
0.685898

>  <PBF_0.6>  (42) 
True

>  <nPBF>  (42) 
0.042869

>  <nPBF_0.016>  (42) 
True

>  <PMI1>  (42) 
701.683596

>  <PMI2>  (42) 
1107.292449

>  <PMI3>  (42) 
1646.137228

>  <NPR1>  (42) 
0.426261

>  <NPR2>  (42) 
0.672661

>  <Sum_NPR>  (42) 
1.098922

>  <Sum_NPR_1.07>  (42) 
True

>  <Sum_NPR_1.2>  (42) 
False

>  <MaxAbsEStateIndex>  (42) 
9.389821

>  <MaxEStateIndex>  (42) 
9.389821

>  <MinAbsEStateIndex>  (42) 
0.184815

>  <MinEStateIndex>  (42) 
0.184815

>  <qed>  (42) 
0.682981

>  <MolWt>  (42) 
222.312

>  <HeavyAtomMolWt>  (42) 
202.152

>  <ExactMolWt>  (42) 
222.160089

>  <NumValenceElectrons>  (42) 
88

>  <NumRadicalElectrons>  (42) 
0

>  <MaxPartialCharge>  (42) 
0.137291

>  <MinPartialCharge>  (42) 
-0.394232

>  <MaxAbsPartialCharge>  (42) 
0.394232

>  <MinAbsPartialCharge>  (42) 
0.137291

>  <FpDensityMorgan1>  (42) 
1.5625

>  <FpDensityMorgan2>  (42) 
2.375

>  <FpDensityMorgan3>  (42) 
3.125

>  <BCUT2D_MWHI>  (42) 
16.252666

>  <BCUT2D_MWLOW>  (42) 
10.098746

>  <BCUT2D_CHGHI>  (42) 
2.213544

>  <BCUT2D_CHGLO>  (42) 
-2.302547

>  <BCUT2D_LOGPHI>  (42) 
2.200961

>  <BCUT2D_LOGPLOW>  (42) 
-2.832387

>  <BCUT2D_MRHI>  (42) 
5.474611

>  <BCUT2D_MRLOW>  (42) 
-0.67097

>  <AvgIpc>  (42) 
2.277645

>  <BalabanJ>  (42) 
2.372771

>  <BertzCT>  (42) 
367.281547

>  <Chi0>  (42) 
11.543606

>  <Chi0n>  (42) 
9.979469

>  <Chi0v>  (42) 
9.979469

>  <Chi1>  (42) 
7.719545

>  <Chi1n>  (42) 
5.839691

>  <Chi1v>  (42) 
5.839691

>  <Chi2n>  (42) 
4.452816

>  <Chi2v>  (42) 
4.452816

>  <Chi3n>  (42) 
3.256013

>  <Chi3v>  (42) 
3.256013

>  <Chi4n>  (42) 
2.184708

>  <Chi4v>  (42) 
2.184708

>  <HallKierAlpha>  (42) 
-1.13

>  <Ipc>  (42) 
4851.383692

>  <Kappa1>  (42) 
11.358214

>  <Kappa2>  (42) 
4.803259

>  <Kappa3>  (42) 
2.175637

>  <LabuteASA>  (42) 
96.303744

>  <PEOE_VSA1>  (42) 
15.323226

>  <PEOE_VSA10>  (42) 
12.362619

>  <PEOE_VSA11>  (42) 
0.0

>  <PEOE_VSA12>  (42) 
0.0

>  <PEOE_VSA13>  (42) 
0.0

>  <PEOE_VSA14>  (42) 
0.0

>  <PEOE_VSA2>  (42) 
0.0

>  <PEOE_VSA3>  (42) 
4.983979

>  <PEOE_VSA4>  (42) 
0.0

>  <PEOE_VSA5>  (42) 
0.0

>  <PEOE_VSA6>  (42) 
0.0

>  <PEOE_VSA7>  (42) 
19.056471

>  <PEOE_VSA8>  (42) 
24.725873

>  <PEOE_VSA9>  (42) 
19.193479

>  <SMR_VSA1>  (42) 
10.423316

>  <SMR_VSA10>  (42) 
5.817863

>  <SMR_VSA2>  (42) 
0.0

>  <SMR_VSA3>  (42) 
4.983979

>  <SMR_VSA4>  (42) 
0.0

>  <SMR_VSA5>  (42) 
25.931156

>  <SMR_VSA6>  (42) 
25.09922

>  <SMR_VSA7>  (42) 
23.390114

>  <SMR_VSA8>  (42) 
0.0

>  <SMR_VSA9>  (42) 
0.0

>  <SlogP_VSA1>  (42) 
10.216698

>  <SlogP_VSA10>  (42) 
5.817863

>  <SlogP_VSA11>  (42) 
0.0

>  <SlogP_VSA12>  (42) 
0.0

>  <SlogP_VSA2>  (42) 
36.331657

>  <SlogP_VSA3>  (42) 
6.544756

>  <SlogP_VSA4>  (42) 
6.923737

>  <SlogP_VSA5>  (42) 
17.678201

>  <SlogP_VSA6>  (42) 
12.132734

>  <SlogP_VSA7>  (42) 
0.0

>  <SlogP_VSA8>  (42) 
0.0

>  <SlogP_VSA9>  (42) 
0.0

>  <EState_VSA1>  (42) 
0.0

>  <EState_VSA10>  (42) 
5.106527

>  <EState_VSA11>  (42) 
0.0

>  <EState_VSA2>  (42) 
12.648723

>  <EState_VSA3>  (42) 
0.0

>  <EState_VSA4>  (42) 
31.022125

>  <EState_VSA5>  (42) 
5.563451

>  <EState_VSA6>  (42) 
0.0

>  <EState_VSA7>  (42) 
13.971409

>  <EState_VSA8>  (42) 
27.333411

>  <EState_VSA9>  (42) 
0.0

>  <VSA_EState1>  (42) 
0.0

>  <VSA_EState10>  (42) 
0.0

>  <VSA_EState2>  (42) 
6.709769

>  <VSA_EState3>  (42) 
11.673062

>  <VSA_EState4>  (42) 
2.286216

>  <VSA_EState5>  (42) 
1.023148

>  <VSA_EState6>  (42) 
4.379748

>  <VSA_EState7>  (42) 
1.002046

>  <VSA_EState8>  (42) 
4.234067

>  <VSA_EState9>  (42) 
2.025278

>  <FractionCSP3>  (42) 
0.583333

>  <HeavyAtomCount>  (42) 
16

>  <NHOHCount>  (42) 
3

>  <NOCount>  (42) 
4

>  <NumAliphaticCarbocycles>  (42) 
0

>  <NumAliphaticHeterocycles>  (42) 
1

>  <NumAliphaticRings>  (42) 
1

>  <NumAromaticCarbocycles>  (42) 
0

>  <NumAromaticHeterocycles>  (42) 
1

>  <NAR>  (42) 
1

>  <NumHAcceptors>  (42) 
3

>  <NumHDonors>  (42) 
2

>  <NumHeteroatoms>  (42) 
4

>  <NumRotatableBonds>  (42) 
1

>  <NumSaturatedCarbocycles>  (42) 
0

>  <NumSaturatedHeterocycles>  (42) 
0

>  <NumSaturatedRings>  (42) 
0

>  <RingCount>  (42) 
2

>  <MolLogP>  (42) 
-0.34578

>  <MolMR>  (42) 
63.3642

>  <fr_Al_COO>  (42) 
0

>  <fr_Al_OH>  (42) 
1

>  <fr_Al_OH_noTert>  (42) 
1

>  <fr_ArN>  (42) 
0

>  <fr_Ar_COO>  (42) 
0

>  <fr_Ar_N>  (42) 
1

>  <fr_Ar_NH>  (42) 
0

>  <fr_Ar_OH>  (42) 
0

>  <fr_COO>  (42) 
0

>  <fr_COO2>  (42) 
0

>  <fr_C_O>  (42) 
0

>  <fr_C_O_noCOO>  (42) 
0

>  <fr_C_S>  (42) 
0

>  <fr_HOCCN>  (42) 
0

>  <fr_Imine>  (42) 
0

>  <fr_NH0>  (42) 
2

>  <fr_NH1>  (42) 
0

>  <fr_NH2>  (42) 
1

>  <fr_N_O>  (42) 
0

>  <fr_Ndealkylation1>  (42) 
1

>  <fr_Ndealkylation2>  (42) 
0

>  <fr_Nhpyrrole>  (42) 
0

>  <fr_SH>  (42) 
0

>  <fr_aldehyde>  (42) 
0

>  <fr_alkyl_carbamate>  (42) 
0

>  <fr_alkyl_halide>  (42) 
0

>  <fr_allylic_oxid>  (42) 
0

>  <fr_amide>  (42) 
0

>  <fr_amidine>  (42) 
0

>  <fr_aniline>  (42) 
1

>  <fr_aryl_methyl>  (42) 
1

>  <fr_azide>  (42) 
0

>  <fr_azo>  (42) 
0

>  <fr_barbitur>  (42) 
0

>  <fr_benzene>  (42) 
0

>  <fr_benzodiazepine>  (42) 
0

>  <fr_bicyclic>  (42) 
1

>  <fr_diazo>  (42) 
0

>  <fr_dihydropyridine>  (42) 
0

>  <fr_epoxide>  (42) 
0

>  <fr_ester>  (42) 
0

>  <fr_ether>  (42) 
0

>  <fr_furan>  (42) 
0

>  <fr_guanido>  (42) 
0

>  <fr_halogen>  (42) 
0

>  <fr_hdrzine>  (42) 
0

>  <fr_hdrzone>  (42) 
0

>  <fr_imidazole>  (42) 
0

>  <fr_imide>  (42) 
0

>  <fr_isocyan>  (42) 
0

>  <fr_isothiocyan>  (42) 
0

>  <fr_ketone>  (42) 
0

>  <fr_ketone_Topliss>  (42) 
0

>  <fr_lactam>  (42) 
0

>  <fr_lactone>  (42) 
0

>  <fr_methoxy>  (42) 
0

>  <fr_morpholine>  (42) 
0

>  <fr_nitrile>  (42) 
0

>  <fr_nitro>  (42) 
0

>  <fr_nitro_arom>  (42) 
0

>  <fr_nitro_arom_nonortho>  (42) 
0

>  <fr_nitroso>  (42) 
0

>  <fr_oxazole>  (42) 
0

>  <fr_oxime>  (42) 
0

>  <fr_para_hydroxylation>  (42) 
0

>  <fr_phenol>  (42) 
0

>  <fr_phenol_noOrthoHbond>  (42) 
0

>  <fr_phos_acid>  (42) 
0

>  <fr_phos_ester>  (42) 
0

>  <fr_piperdine>  (42) 
0

>  <fr_piperzine>  (42) 
0

>  <fr_priamide>  (42) 
0

>  <fr_prisulfonamd>  (42) 
0

>  <fr_pyridine>  (42) 
1

>  <fr_quatN>  (42) 
1

>  <fr_sulfide>  (42) 
0

>  <fr_sulfonamd>  (42) 
0

>  <fr_sulfone>  (42) 
0

>  <fr_term_acetylene>  (42) 
0

>  <fr_tetrazole>  (42) 
0

>  <fr_thiazole>  (42) 
0

>  <fr_thiocyan>  (42) 
0

>  <fr_thiophene>  (42) 
0

>  <fr_unbrch_alkane>  (42) 
0

>  <fr_urea>  (42) 
0

>  <NP-Likeness>  (42) 
-0.276887

$$$$
F274
     RDKit          3D

  0  0  0  0  0  0  0  0  0  0999 V3000
M  V30 BEGIN CTAB
M  V30 COUNTS 36 37 0 0 0
M  V30 BEGIN ATOM
M  V30 1 O -2.058567 -1.075535 2.985904 0
M  V30 2 C -1.363970 0.094816 3.258146 0
M  V30 3 C -0.571441 0.536815 2.042442 0 CFG=1
M  V30 4 N 0.397379 -0.448210 1.618987 0
M  V30 5 C 1.001898 -1.218093 2.689279 0
M  V30 6 C 0.899588 -0.833998 0.326547 0
M  V30 7 N 1.345768 -2.113068 0.504808 0
M  V30 8 C 1.891505 -2.799275 -0.521366 0
M  V30 9 C 2.401336 -4.191496 -0.415886 0
M  V30 10 C 1.980303 -2.165197 -1.744799 0
M  V30 11 C 1.524783 -0.868455 -1.913897 0
M  V30 12 C 0.965485 -0.161360 -0.867657 0
M  V30 13 C 0.580624 1.185345 -1.366101 0
M  V30 14 N -0.837637 1.440568 -1.293368 0 CHG=1 VAL=4
M  V30 15 C -1.230893 1.923844 0.037608 0
M  V30 16 C -1.618320 0.810405 0.963956 0
M  V30 17 H -2.094020 -1.705229 3.740826 0
M  V30 18 H -2.160933 0.886110 3.369476 0
M  V30 19 H -0.797270 0.093423 4.191670 0
M  V30 20 H -0.028683 1.466509 2.325788 0
M  V30 21 H 1.522610 -2.085404 2.278734 0
M  V30 22 H 0.284730 -1.561591 3.454802 0
M  V30 23 H 1.796978 -0.574134 3.166666 0
M  V30 24 H 3.496721 -4.266929 -0.371913 0
M  V30 25 H 2.041801 -4.684817 0.523986 0
M  V30 26 H 1.990111 -4.822892 -1.254980 0
M  V30 27 H 2.405895 -2.652586 -2.612766 0
M  V30 28 H 1.582394 -0.340011 -2.873484 0
M  V30 29 H 1.053229 1.905448 -0.636115 0
M  V30 30 H 1.038305 1.391265 -2.344696 0
M  V30 31 H -1.032754 2.204459 -2.007232 0
M  V30 32 H -1.336701 0.575691 -1.536176 0
M  V30 33 H -2.155124 2.565192 -0.061359 0
M  V30 34 H -0.464284 2.614844 0.441671 0
M  V30 35 H -2.640099 0.877854 1.355553 0
M  V30 36 H -1.597078 -0.131180 0.339930 0
M  V30 END ATOM
M  V30 BEGIN BOND
M  V30 1 1 1 2
M  V30 2 1 2 3
M  V30 3 1 3 4
M  V30 4 1 4 5
M  V30 5 1 4 6
M  V30 6 2 6 7
M  V30 7 1 7 8
M  V30 8 1 8 9
M  V30 9 2 8 10
M  V30 10 1 10 11
M  V30 11 2 11 12
M  V30 12 1 12 13
M  V30 13 1 13 14
M  V30 14 1 14 15
M  V30 15 1 15 16
M  V30 16 1 16 3
M  V30 17 1 12 6
M  V30 18 1 1 17
M  V30 19 1 2 18
M  V30 20 1 2 19
M  V30 21 1 3 20 CFG=1
M  V30 22 1 5 21
M  V30 23 1 5 22
M  V30 24 1 5 23
M  V30 25 1 9 24
M  V30 26 1 9 25
M  V30 27 1 9 26
M  V30 28 1 10 27
M  V30 29 1 11 28
M  V30 30 1 13 29
M  V30 31 1 13 30
M  V30 32 1 14 31
M  V30 33 1 14 32
M  V30 34 1 15 33
M  V30 35 1 15 34
M  V30 36 1 16 35
M  V30 37 1 16 36
M  V30 END BOND
M  V30 END CTAB
M  END
>  <Dataset>  (43) 
CF

>  <Ligand_Instance>  (43) 
274_A_701

>  <PDB_ID>  (43) 
nan

>  <Standardized_SMILES>  (43) 
[H]OC([H])([H])[C@@]1([H])N(C([H])([H])[H])C2=NC(C([H])([H])[H])=C([H])C([H])=C2C([H])([H])[N+]([H])([H])C([H])([H])C1([H])[H]

>  <Name>  (43) 
[(2S)‐1,9‐dimethyl‐1H,2H,3H,4H,5H,6H‐pyrido[2,3‐b][1,5]diazocin‐2‐yl]methanol

>  <Pocket>  (43) 
X

>  <ATP_Site>  (43) 
1.0

>  <Peripheral>  (43) 
1.0

>  <Num_H_Atoms_ProtBoundConf>  (43) 
20.0

>  <Num_Resolved_Atoms>  (43) 
16.0

>  <Num_Not_Resolved_Atoms>  (43) 
0.0

>  <2D_Mol_H>  (43) 
<rdkit.Chem.rdchem.Mol object at 0x72a238db5a80>

>  <MW>  (43) 
222.312

>  <HBA>  (43) 
3

>  <HBD>  (43) 
2

>  <LogP>  (43) 
-0.34578

>  <NRB>  (43) 
4

>  <TPSA>  (43) 
52.97

>  <Num_Heavy_Atoms>  (43) 
16

>  <Ro5>  (43) 
[True, True, True, True, True, True]

>  <Ro5_Fulfilled>  (43) 
True

>  <Ro3>  (43) 
[True, True, True, True]

>  <Ro3_Fulfilled>  (43) 
True

>  <Fsp3>  (43) 
0.583333

>  <Fsp3_0.42>  (43) 
True

>  <Fsp3_0.45>  (43) 
True

>  <Stereogenic_Carbons>  (43) 
1

>  <C_Atoms>  (43) 
12

>  <FCStereo>  (43) 
0.083333

>  <SPS>  (43) 
339

>  <nSPS>  (43) 
21.1875

>  <PBF>  (43) 
0.685898

>  <PBF_0.6>  (43) 
True

>  <nPBF>  (43) 
0.042869

>  <nPBF_0.016>  (43) 
True

>  <PMI1>  (43) 
701.683596

>  <PMI2>  (43) 
1107.292449

>  <PMI3>  (43) 
1646.137228

>  <NPR1>  (43) 
0.426261

>  <NPR2>  (43) 
0.672661

>  <Sum_NPR>  (43) 
1.098922

>  <Sum_NPR_1.07>  (43) 
True

>  <Sum_NPR_1.2>  (43) 
False

>  <MaxAbsEStateIndex>  (43) 
9.389821

>  <MaxEStateIndex>  (43) 
9.389821

>  <MinAbsEStateIndex>  (43) 
0.184815

>  <MinEStateIndex>  (43) 
0.184815

>  <qed>  (43) 
0.682981

>  <MolWt>  (43) 
222.312

>  <HeavyAtomMolWt>  (43) 
202.152

>  <ExactMolWt>  (43) 
222.160089

>  <NumValenceElectrons>  (43) 
88

>  <NumRadicalElectrons>  (43) 
0

>  <MaxPartialCharge>  (43) 
0.137291

>  <MinPartialCharge>  (43) 
-0.394232

>  <MaxAbsPartialCharge>  (43) 
0.394232

>  <MinAbsPartialCharge>  (43) 
0.137291

>  <FpDensityMorgan1>  (43) 
1.5625

>  <FpDensityMorgan2>  (43) 
2.375

>  <FpDensityMorgan3>  (43) 
3.125

>  <BCUT2D_MWHI>  (43) 
16.252666

>  <BCUT2D_MWLOW>  (43) 
10.098746

>  <BCUT2D_CHGHI>  (43) 
2.213544

>  <BCUT2D_CHGLO>  (43) 
-2.302547

>  <BCUT2D_LOGPHI>  (43) 
2.200961

>  <BCUT2D_LOGPLOW>  (43) 
-2.832387

>  <BCUT2D_MRHI>  (43) 
5.474611

>  <BCUT2D_MRLOW>  (43) 
-0.67097

>  <AvgIpc>  (43) 
2.277645

>  <BalabanJ>  (43) 
2.372771

>  <BertzCT>  (43) 
367.281547

>  <Chi0>  (43) 
11.543606

>  <Chi0n>  (43) 
9.979469

>  <Chi0v>  (43) 
9.979469

>  <Chi1>  (43) 
7.719545

>  <Chi1n>  (43) 
5.839691

>  <Chi1v>  (43) 
5.839691

>  <Chi2n>  (43) 
4.452816

>  <Chi2v>  (43) 
4.452816

>  <Chi3n>  (43) 
3.256013

>  <Chi3v>  (43) 
3.256013

>  <Chi4n>  (43) 
2.184708

>  <Chi4v>  (43) 
2.184708

>  <HallKierAlpha>  (43) 
-1.13

>  <Ipc>  (43) 
4851.383692

>  <Kappa1>  (43) 
11.358214

>  <Kappa2>  (43) 
4.803259

>  <Kappa3>  (43) 
2.175637

>  <LabuteASA>  (43) 
96.303744

>  <PEOE_VSA1>  (43) 
15.323226

>  <PEOE_VSA10>  (43) 
12.362619

>  <PEOE_VSA11>  (43) 
0.0

>  <PEOE_VSA12>  (43) 
0.0

>  <PEOE_VSA13>  (43) 
0.0

>  <PEOE_VSA14>  (43) 
0.0

>  <PEOE_VSA2>  (43) 
0.0

>  <PEOE_VSA3>  (43) 
4.983979

>  <PEOE_VSA4>  (43) 
0.0

>  <PEOE_VSA5>  (43) 
0.0

>  <PEOE_VSA6>  (43) 
0.0

>  <PEOE_VSA7>  (43) 
19.056471

>  <PEOE_VSA8>  (43) 
24.725873

>  <PEOE_VSA9>  (43) 
19.193479

>  <SMR_VSA1>  (43) 
10.423316

>  <SMR_VSA10>  (43) 
5.817863

>  <SMR_VSA2>  (43) 
0.0

>  <SMR_VSA3>  (43) 
4.983979

>  <SMR_VSA4>  (43) 
0.0

>  <SMR_VSA5>  (43) 
25.931156

>  <SMR_VSA6>  (43) 
25.09922

>  <SMR_VSA7>  (43) 
23.390114

>  <SMR_VSA8>  (43) 
0.0

>  <SMR_VSA9>  (43) 
0.0

>  <SlogP_VSA1>  (43) 
10.216698

>  <SlogP_VSA10>  (43) 
5.817863

>  <SlogP_VSA11>  (43) 
0.0

>  <SlogP_VSA12>  (43) 
0.0

>  <SlogP_VSA2>  (43) 
36.331657

>  <SlogP_VSA3>  (43) 
6.544756

>  <SlogP_VSA4>  (43) 
6.923737

>  <SlogP_VSA5>  (43) 
17.678201

>  <SlogP_VSA6>  (43) 
12.132734

>  <SlogP_VSA7>  (43) 
0.0

>  <SlogP_VSA8>  (43) 
0.0

>  <SlogP_VSA9>  (43) 
0.0

>  <EState_VSA1>  (43) 
0.0

>  <EState_VSA10>  (43) 
5.106527

>  <EState_VSA11>  (43) 
0.0

>  <EState_VSA2>  (43) 
12.648723

>  <EState_VSA3>  (43) 
0.0

>  <EState_VSA4>  (43) 
31.022125

>  <EState_VSA5>  (43) 
5.563451

>  <EState_VSA6>  (43) 
0.0

>  <EState_VSA7>  (43) 
13.971409

>  <EState_VSA8>  (43) 
27.333411

>  <EState_VSA9>  (43) 
0.0

>  <VSA_EState1>  (43) 
0.0

>  <VSA_EState10>  (43) 
0.0

>  <VSA_EState2>  (43) 
6.709769

>  <VSA_EState3>  (43) 
11.673062

>  <VSA_EState4>  (43) 
2.286216

>  <VSA_EState5>  (43) 
1.023148

>  <VSA_EState6>  (43) 
4.379748

>  <VSA_EState7>  (43) 
1.002046

>  <VSA_EState8>  (43) 
4.234067

>  <VSA_EState9>  (43) 
2.025278

>  <FractionCSP3>  (43) 
0.583333

>  <HeavyAtomCount>  (43) 
16

>  <NHOHCount>  (43) 
3

>  <NOCount>  (43) 
4

>  <NumAliphaticCarbocycles>  (43) 
0

>  <NumAliphaticHeterocycles>  (43) 
1

>  <NumAliphaticRings>  (43) 
1

>  <NumAromaticCarbocycles>  (43) 
0

>  <NumAromaticHeterocycles>  (43) 
1

>  <NAR>  (43) 
1

>  <NumHAcceptors>  (43) 
3

>  <NumHDonors>  (43) 
2

>  <NumHeteroatoms>  (43) 
4

>  <NumRotatableBonds>  (43) 
1

>  <NumSaturatedCarbocycles>  (43) 
0

>  <NumSaturatedHeterocycles>  (43) 
0

>  <NumSaturatedRings>  (43) 
0

>  <RingCount>  (43) 
2

>  <MolLogP>  (43) 
-0.34578

>  <MolMR>  (43) 
63.3642

>  <fr_Al_COO>  (43) 
0

>  <fr_Al_OH>  (43) 
1

>  <fr_Al_OH_noTert>  (43) 
1

>  <fr_ArN>  (43) 
0

>  <fr_Ar_COO>  (43) 
0

>  <fr_Ar_N>  (43) 
1

>  <fr_Ar_NH>  (43) 
0

>  <fr_Ar_OH>  (43) 
0

>  <fr_COO>  (43) 
0

>  <fr_COO2>  (43) 
0

>  <fr_C_O>  (43) 
0

>  <fr_C_O_noCOO>  (43) 
0

>  <fr_C_S>  (43) 
0

>  <fr_HOCCN>  (43) 
0

>  <fr_Imine>  (43) 
0

>  <fr_NH0>  (43) 
2

>  <fr_NH1>  (43) 
0

>  <fr_NH2>  (43) 
1

>  <fr_N_O>  (43) 
0

>  <fr_Ndealkylation1>  (43) 
1

>  <fr_Ndealkylation2>  (43) 
0

>  <fr_Nhpyrrole>  (43) 
0

>  <fr_SH>  (43) 
0

>  <fr_aldehyde>  (43) 
0

>  <fr_alkyl_carbamate>  (43) 
0

>  <fr_alkyl_halide>  (43) 
0

>  <fr_allylic_oxid>  (43) 
0

>  <fr_amide>  (43) 
0

>  <fr_amidine>  (43) 
0

>  <fr_aniline>  (43) 
1

>  <fr_aryl_methyl>  (43) 
1

>  <fr_azide>  (43) 
0

>  <fr_azo>  (43) 
0

>  <fr_barbitur>  (43) 
0

>  <fr_benzene>  (43) 
0

>  <fr_benzodiazepine>  (43) 
0

>  <fr_bicyclic>  (43) 
1

>  <fr_diazo>  (43) 
0

>  <fr_dihydropyridine>  (43) 
0

>  <fr_epoxide>  (43) 
0

>  <fr_ester>  (43) 
0

>  <fr_ether>  (43) 
0

>  <fr_furan>  (43) 
0

>  <fr_guanido>  (43) 
0

>  <fr_halogen>  (43) 
0

>  <fr_hdrzine>  (43) 
0

>  <fr_hdrzone>  (43) 
0

>  <fr_imidazole>  (43) 
0

>  <fr_imide>  (43) 
0

>  <fr_isocyan>  (43) 
0

>  <fr_isothiocyan>  (43) 
0

>  <fr_ketone>  (43) 
0

>  <fr_ketone_Topliss>  (43) 
0

>  <fr_lactam>  (43) 
0

>  <fr_lactone>  (43) 
0

>  <fr_methoxy>  (43) 
0

>  <fr_morpholine>  (43) 
0

>  <fr_nitrile>  (43) 
0

>  <fr_nitro>  (43) 
0

>  <fr_nitro_arom>  (43) 
0

>  <fr_nitro_arom_nonortho>  (43) 
0

>  <fr_nitroso>  (43) 
0

>  <fr_oxazole>  (43) 
0

>  <fr_oxime>  (43) 
0

>  <fr_para_hydroxylation>  (43) 
0

>  <fr_phenol>  (43) 
0

>  <fr_phenol_noOrthoHbond>  (43) 
0

>  <fr_phos_acid>  (43) 
0

>  <fr_phos_ester>  (43) 
0

>  <fr_piperdine>  (43) 
0

>  <fr_piperzine>  (43) 
0

>  <fr_priamide>  (43) 
0

>  <fr_prisulfonamd>  (43) 
0

>  <fr_pyridine>  (43) 
1

>  <fr_quatN>  (43) 
1

>  <fr_sulfide>  (43) 
0

>  <fr_sulfonamd>  (43) 
0

>  <fr_sulfone>  (43) 
0

>  <fr_term_acetylene>  (43) 
0

>  <fr_tetrazole>  (43) 
0

>  <fr_thiazole>  (43) 
0

>  <fr_thiocyan>  (43) 
0

>  <fr_thiophene>  (43) 
0

>  <fr_unbrch_alkane>  (43) 
0

>  <fr_urea>  (43) 
0

>  <NP-Likeness>  (43) 
-0.276887

$$$$
F283
     RDKit          3D

  0  0  0  0  0  0  0  0  0  0999 V3000
M  V30 BEGIN CTAB
M  V30 COUNTS 39 40 0 0 0
M  V30 BEGIN ATOM
M  V30 1 C -2.440097 -6.357313 2.147973 0
M  V30 2 C -2.342355 -5.163992 1.886803 0
M  V30 3 C -2.244429 -3.745116 1.591949 0
M  V30 4 N -1.284241 -3.491180 0.532311 0 CFG=2 CHG=1 VAL=4
M  V30 5 C -1.375306 -4.526956 -0.461305 0
M  V30 6 C 0.050537 -3.398281 1.104494 0
M  V30 7 C 0.284847 -1.937777 1.439326 0
M  V30 8 N 0.711237 -0.979328 0.929165 0
M  V30 9 C 0.811247 0.228073 1.460296 0
M  V30 10 C 1.381580 1.378693 0.686394 0
M  V30 11 O 2.420363 1.005014 -0.151157 0
M  V30 12 C 0.282798 2.106947 -0.076511 0
M  V30 13 C 0.995431 3.077705 -0.993555 0
M  V30 14 N 1.712471 4.028554 -0.197435 0 CHG=1 VAL=4
M  V30 15 C 2.619930 3.445234 0.752848 0
M  V30 16 C 1.950826 2.408159 1.632352 0
M  V30 17 C 0.362544 0.385073 2.769305 0
M  V30 18 S -0.214164 -1.374424 3.152555 0
M  V30 19 H -2.532570 -7.397973 2.382755 0
M  V30 20 H -3.229050 -3.369239 1.267481 0
M  V30 21 H -1.925852 -3.152316 2.487129 0
M  V30 22 H -1.579080 -2.587938 0.093054 0
M  V30 23 H -1.705580 -5.503901 -0.044792 0
M  V30 24 H -0.434316 -4.627449 -1.050439 0
M  V30 25 H -2.166894 -4.241469 -1.184801 0
M  V30 26 H 0.068918 -4.006162 2.032768 0
M  V30 27 H 0.841924 -3.716766 0.404023 0
M  V30 28 H 2.329022 0.036019 -0.387148 0
M  V30 29 H -0.323192 2.655030 0.691075 0
M  V30 30 H -0.314139 1.358062 -0.630991 0
M  V30 31 H 1.674088 2.459408 -1.639554 0
M  V30 32 H 0.228916 3.629821 -1.567151 0
M  V30 33 H 2.327219 4.571423 -0.869169 0
M  V30 34 H 1.023157 4.675137 0.212982 0
M  V30 35 H 3.413363 2.911688 0.170838 0
M  V30 36 H 3.042010 4.291955 1.339213 0
M  V30 37 H 2.678611 2.013160 2.339926 0
M  V30 38 H 1.100612 2.933321 2.156892 0
M  V30 39 H 0.386577 1.338301 3.336216 0
M  V30 END ATOM
M  V30 BEGIN BOND
M  V30 1 3 1 2
M  V30 2 1 2 3
M  V30 3 1 3 4
M  V30 4 1 4 5
M  V30 5 1 4 6
M  V30 6 1 6 7
M  V30 7 2 7 8
M  V30 8 1 8 9
M  V30 9 1 9 10
M  V30 10 1 10 11
M  V30 11 1 10 12
M  V30 12 1 12 13
M  V30 13 1 13 14
M  V30 14 1 14 15
M  V30 15 1 15 16
M  V30 16 2 9 17
M  V30 17 1 17 18
M  V30 18 1 18 7
M  V30 19 1 16 10
M  V30 20 1 1 19
M  V30 21 1 3 20
M  V30 22 1 3 21
M  V30 23 1 4 22 CFG=3
M  V30 24 1 5 23
M  V30 25 1 5 24
M  V30 26 1 5 25
M  V30 27 1 6 26
M  V30 28 1 6 27
M  V30 29 1 11 28
M  V30 30 1 12 29
M  V30 31 1 12 30
M  V30 32 1 13 31
M  V30 33 1 13 32
M  V30 34 1 14 33
M  V30 35 1 14 34
M  V30 36 1 15 35
M  V30 37 1 15 36
M  V30 38 1 16 37
M  V30 39 1 16 38
M  V30 40 1 17 39
M  V30 END BOND
M  V30 END CTAB
M  END
>  <Dataset>  (44) 
CF

>  <Ligand_Instance>  (44) 
283_B_1

>  <PDB_ID>  (44) 
nan

>  <Standardized_SMILES>  (44) 
[H]C#CC([H])([H])[N@+]([H])(C([H])([H])[H])C([H])([H])C1=NC(C2(O[H])C([H])([H])C([H])([H])[N+]([H])([H])C([H])([H])C2([H])[H])=C([H])S1

>  <Name>  (44) 
4‐(2‐{[methyl(prop‐2‐yn‐1‐yl)amino]methyl}‐1,3‐thiazol‐4‐yl)piperidin‐4‐ol

>  <Pocket>  (44) 
X

>  <ATP_Site>  (44) 
0.0

>  <Peripheral>  (44) 
1.0

>  <Num_H_Atoms_ProtBoundConf>  (44) 
21.0

>  <Num_Resolved_Atoms>  (44) 
18.0

>  <Num_Not_Resolved_Atoms>  (44) 
0.0

>  <2D_Mol_H>  (44) 
<rdkit.Chem.rdchem.Mol object at 0x72a238db5b60>

>  <MW>  (44) 
267.398

>  <HBA>  (44) 
3

>  <HBD>  (44) 
3

>  <LogP>  (44) 
-1.6642

>  <NRB>  (44) 
6

>  <TPSA>  (44) 
54.17

>  <Num_Heavy_Atoms>  (44) 
18

>  <Ro5>  (44) 
[True, True, True, True, True, True]

>  <Ro5_Fulfilled>  (44) 
True

>  <Ro3>  (44) 
[True, True, True, True]

>  <Ro3_Fulfilled>  (44) 
True

>  <Fsp3>  (44) 
0.615385

>  <Fsp3_0.42>  (44) 
True

>  <Fsp3_0.45>  (44) 
True

>  <Stereogenic_Carbons>  (44) 
0

>  <C_Atoms>  (44) 
13

>  <FCStereo>  (44) 
0.0

>  <SPS>  (44) 
365

>  <nSPS>  (44) 
20.277778

>  <PBF>  (44) 
0.80559

>  <PBF_0.6>  (44) 
True

>  <nPBF>  (44) 
0.044755

>  <nPBF_0.016>  (44) 
True

>  <PMI1>  (44) 
476.654049

>  <PMI2>  (44) 
3146.065442

>  <PMI3>  (44) 
3369.603948

>  <NPR1>  (44) 
0.141457

>  <NPR2>  (44) 
0.93366

>  <Sum_NPR>  (44) 
1.075117

>  <Sum_NPR_1.07>  (44) 
True

>  <Sum_NPR_1.2>  (44) 
False

>  <MaxAbsEStateIndex>  (44) 
10.578439

>  <MaxEStateIndex>  (44) 
10.578439

>  <MinAbsEStateIndex>  (44) 
0.702521

>  <MinEStateIndex>  (44) 
-0.704839

>  <qed>  (44) 
0.571866

>  <MolWt>  (44) 
267.398

>  <HeavyAtomMolWt>  (44) 
246.23

>  <ExactMolWt>  (44) 
267.139436

>  <NumValenceElectrons>  (44) 
98

>  <NumRadicalElectrons>  (44) 
0

>  <MaxPartialCharge>  (44) 
0.14753

>  <MinPartialCharge>  (44) 
-0.383048

>  <MaxAbsPartialCharge>  (44) 
0.383048

>  <MinAbsPartialCharge>  (44) 
0.14753

>  <FpDensityMorgan1>  (44) 
1.611111

>  <FpDensityMorgan2>  (44) 
2.333333

>  <FpDensityMorgan3>  (44) 
3.0

>  <BCUT2D_MWHI>  (44) 
32.133481

>  <BCUT2D_MWLOW>  (44) 
9.897243

>  <BCUT2D_CHGHI>  (44) 
2.350106

>  <BCUT2D_CHGLO>  (44) 
-2.283113

>  <BCUT2D_LOGPHI>  (44) 
2.292087

>  <BCUT2D_LOGPLOW>  (44) 
-3.069889

>  <BCUT2D_MRHI>  (44) 
7.091884

>  <BCUT2D_MRLOW>  (44) 
-0.885704

>  <AvgIpc>  (44) 
2.792763

>  <BalabanJ>  (44) 
2.031648

>  <BertzCT>  (44) 
431.689911

>  <Chi0>  (44) 
13.010225

>  <Chi0n>  (44) 
10.777367

>  <Chi0v>  (44) 
11.593864

>  <Chi1>  (44) 
8.637977

>  <Chi1n>  (44) 
6.375814

>  <Chi1v>  (44) 
7.255467

>  <Chi2n>  (44) 
5.038879

>  <Chi2v>  (44) 
5.981533

>  <Chi3n>  (44) 
3.409458

>  <Chi3v>  (44) 
4.25827

>  <Chi4n>  (44) 
2.307876

>  <Chi4v>  (44) 
3.308406

>  <HallKierAlpha>  (44) 
-0.93

>  <Ipc>  (44) 
15896.40626

>  <Kappa1>  (44) 
13.500473

>  <Kappa2>  (44) 
5.806758

>  <Kappa3>  (44) 
3.09043

>  <LabuteASA>  (44) 
112.038159

>  <PEOE_VSA1>  (44) 
15.323226

>  <PEOE_VSA10>  (44) 
23.698187

>  <PEOE_VSA11>  (44) 
0.0

>  <PEOE_VSA12>  (44) 
0.0

>  <PEOE_VSA13>  (44) 
0.0

>  <PEOE_VSA14>  (44) 
0.0

>  <PEOE_VSA2>  (44) 
0.0

>  <PEOE_VSA3>  (44) 
4.983979

>  <PEOE_VSA4>  (44) 
0.0

>  <PEOE_VSA5>  (44) 
17.760136

>  <PEOE_VSA6>  (44) 
0.0

>  <PEOE_VSA7>  (44) 
5.920434

>  <PEOE_VSA8>  (44) 
18.221706

>  <PEOE_VSA9>  (44) 
25.831113

>  <SMR_VSA1>  (44) 
15.323226

>  <SMR_VSA10>  (44) 
11.336786

>  <SMR_VSA2>  (44) 
0.0

>  <SMR_VSA3>  (44) 
4.983979

>  <SMR_VSA4>  (44) 
0.0

>  <SMR_VSA5>  (44) 
24.98745

>  <SMR_VSA6>  (44) 
26.681941

>  <SMR_VSA7>  (44) 
16.081614

>  <SMR_VSA8>  (44) 
0.0

>  <SMR_VSA9>  (44) 
12.343784

>  <SlogP_VSA1>  (44) 
10.216698

>  <SlogP_VSA10>  (44) 
0.0

>  <SlogP_VSA11>  (44) 
0.0

>  <SlogP_VSA12>  (44) 
11.336786

>  <SlogP_VSA2>  (44) 
36.772447

>  <SlogP_VSA3>  (44) 
12.145807

>  <SlogP_VSA4>  (44) 
12.343784

>  <SlogP_VSA5>  (44) 
23.543195

>  <SlogP_VSA6>  (44) 
5.380063

>  <SlogP_VSA7>  (44) 
0.0

>  <SlogP_VSA8>  (44) 
0.0

>  <SlogP_VSA9>  (44) 
0.0

>  <EState_VSA1>  (44) 
5.601051

>  <EState_VSA10>  (44) 
5.106527

>  <EState_VSA11>  (44) 
0.0

>  <EState_VSA2>  (44) 
0.0

>  <EState_VSA3>  (44) 
6.544756

>  <EState_VSA4>  (44) 
43.177464

>  <EState_VSA5>  (44) 
4.89991

>  <EState_VSA6>  (44) 
11.336786

>  <EState_VSA7>  (44) 
5.380063

>  <EState_VSA8>  (44) 
23.268873

>  <EState_VSA9>  (44) 
6.42335

>  <VSA_EState1>  (44) 
0.0

>  <VSA_EState10>  (44) 
1.625182

>  <VSA_EState2>  (44) 
5.845302

>  <VSA_EState3>  (44) 
15.881099

>  <VSA_EState4>  (44) 
0.146187

>  <VSA_EState5>  (44) 
2.651661

>  <VSA_EState6>  (44) 
0.0

>  <VSA_EState7>  (44) 
6.884655

>  <VSA_EState8>  (44) 
3.488517

>  <VSA_EState9>  (44) 
2.060731

>  <FractionCSP3>  (44) 
0.615385

>  <HeavyAtomCount>  (44) 
18

>  <NHOHCount>  (44) 
4

>  <NOCount>  (44) 
4

>  <NumAliphaticCarbocycles>  (44) 
0

>  <NumAliphaticHeterocycles>  (44) 
1

>  <NumAliphaticRings>  (44) 
1

>  <NumAromaticCarbocycles>  (44) 
0

>  <NumAromaticHeterocycles>  (44) 
1

>  <NAR>  (44) 
1

>  <NumHAcceptors>  (44) 
3

>  <NumHDonors>  (44) 
3

>  <NumHeteroatoms>  (44) 
5

>  <NumRotatableBonds>  (44) 
4

>  <NumSaturatedCarbocycles>  (44) 
0

>  <NumSaturatedHeterocycles>  (44) 
1

>  <NumSaturatedRings>  (44) 
1

>  <RingCount>  (44) 
2

>  <MolLogP>  (44) 
-1.6642

>  <MolMR>  (44) 
71.1949

>  <fr_Al_COO>  (44) 
0

>  <fr_Al_OH>  (44) 
1

>  <fr_Al_OH_noTert>  (44) 
0

>  <fr_ArN>  (44) 
0

>  <fr_Ar_COO>  (44) 
0

>  <fr_Ar_N>  (44) 
1

>  <fr_Ar_NH>  (44) 
0

>  <fr_Ar_OH>  (44) 
0

>  <fr_COO>  (44) 
0

>  <fr_COO2>  (44) 
0

>  <fr_C_O>  (44) 
0

>  <fr_C_O_noCOO>  (44) 
0

>  <fr_C_S>  (44) 
0

>  <fr_HOCCN>  (44) 
0

>  <fr_Imine>  (44) 
0

>  <fr_NH0>  (44) 
1

>  <fr_NH1>  (44) 
1

>  <fr_NH2>  (44) 
1

>  <fr_N_O>  (44) 
0

>  <fr_Ndealkylation1>  (44) 
0

>  <fr_Ndealkylation2>  (44) 
0

>  <fr_Nhpyrrole>  (44) 
0

>  <fr_SH>  (44) 
0

>  <fr_aldehyde>  (44) 
0

>  <fr_alkyl_carbamate>  (44) 
0

>  <fr_alkyl_halide>  (44) 
0

>  <fr_allylic_oxid>  (44) 
0

>  <fr_amide>  (44) 
0

>  <fr_amidine>  (44) 
0

>  <fr_aniline>  (44) 
0

>  <fr_aryl_methyl>  (44) 
0

>  <fr_azide>  (44) 
0

>  <fr_azo>  (44) 
0

>  <fr_barbitur>  (44) 
0

>  <fr_benzene>  (44) 
0

>  <fr_benzodiazepine>  (44) 
0

>  <fr_bicyclic>  (44) 
0

>  <fr_diazo>  (44) 
0

>  <fr_dihydropyridine>  (44) 
0

>  <fr_epoxide>  (44) 
0

>  <fr_ester>  (44) 
0

>  <fr_ether>  (44) 
0

>  <fr_furan>  (44) 
0

>  <fr_guanido>  (44) 
0

>  <fr_halogen>  (44) 
0

>  <fr_hdrzine>  (44) 
0

>  <fr_hdrzone>  (44) 
0

>  <fr_imidazole>  (44) 
0

>  <fr_imide>  (44) 
0

>  <fr_isocyan>  (44) 
0

>  <fr_isothiocyan>  (44) 
0

>  <fr_ketone>  (44) 
0

>  <fr_ketone_Topliss>  (44) 
0

>  <fr_lactam>  (44) 
0

>  <fr_lactone>  (44) 
0

>  <fr_methoxy>  (44) 
0

>  <fr_morpholine>  (44) 
0

>  <fr_nitrile>  (44) 
0

>  <fr_nitro>  (44) 
0

>  <fr_nitro_arom>  (44) 
0

>  <fr_nitro_arom_nonortho>  (44) 
0

>  <fr_nitroso>  (44) 
0

>  <fr_oxazole>  (44) 
0

>  <fr_oxime>  (44) 
0

>  <fr_para_hydroxylation>  (44) 
0

>  <fr_phenol>  (44) 
0

>  <fr_phenol_noOrthoHbond>  (44) 
0

>  <fr_phos_acid>  (44) 
0

>  <fr_phos_ester>  (44) 
0

>  <fr_piperdine>  (44) 
1

>  <fr_piperzine>  (44) 
0

>  <fr_priamide>  (44) 
0

>  <fr_prisulfonamd>  (44) 
0

>  <fr_pyridine>  (44) 
0

>  <fr_quatN>  (44) 
2

>  <fr_sulfide>  (44) 
0

>  <fr_sulfonamd>  (44) 
0

>  <fr_sulfone>  (44) 
0

>  <fr_term_acetylene>  (44) 
1

>  <fr_tetrazole>  (44) 
0

>  <fr_thiazole>  (44) 
1

>  <fr_thiocyan>  (44) 
0

>  <fr_thiophene>  (44) 
0

>  <fr_unbrch_alkane>  (44) 
0

>  <fr_urea>  (44) 
0

>  <NP-Likeness>  (44) 
-0.413672

$$$$
F283
     RDKit          3D

  0  0  0  0  0  0  0  0  0  0999 V3000
M  V30 BEGIN CTAB
M  V30 COUNTS 39 40 0 0 0
M  V30 BEGIN ATOM
M  V30 1 C -3.148860 -4.682418 4.054544 0
M  V30 2 C -2.745969 -4.250315 2.996115 0
M  V30 3 C -2.230392 -3.726568 1.713422 0
M  V30 4 N -0.833953 -3.415413 1.943805 0 CFG=1 CHG=1 VAL=4
M  V30 5 C -0.320305 -4.435031 2.837429 0
M  V30 6 C -0.109111 -3.391271 0.689463 0
M  V30 7 C 0.716770 -2.138760 0.591474 0
M  V30 8 N 0.627258 -1.048242 0.208202 0
M  V30 9 C 1.546840 -0.092398 0.239962 0
M  V30 10 C 1.389201 1.280504 -0.259159 0
M  V30 11 O 2.312262 1.623330 -1.240330 0
M  V30 12 C 0.017026 1.522703 -0.842709 0
M  V30 13 C 0.109438 2.879284 -1.516994 0
M  V30 14 N 0.390880 3.935478 -0.576839 0 CHG=1 VAL=4
M  V30 15 C 1.480402 3.657238 0.305961 0
M  V30 16 C 1.529425 2.277285 0.865512 0
M  V30 17 C 2.805729 -0.528446 0.843832 0
M  V30 18 S 2.456817 -2.306492 1.286428 0
M  V30 19 H -3.489947 -5.049310 4.988804 0
M  V30 20 H -2.307167 -4.501718 0.928340 0
M  V30 21 H -2.827470 -2.862256 1.363624 0
M  V30 22 H -0.789091 -2.490141 2.409197 0
M  V30 23 H 0.773754 -4.584843 2.721210 0
M  V30 24 H -0.803456 -5.421428 2.661485 0
M  V30 25 H -0.556312 -4.149817 3.892434 0
M  V30 26 H -0.851280 -3.283941 -0.147506 0
M  V30 27 H 0.509607 -4.291564 0.554853 0
M  V30 28 H 2.993502 0.922545 -1.367277 0
M  V30 29 H -0.737160 1.506612 -0.031314 0
M  V30 30 H -0.227486 0.800124 -1.649623 0
M  V30 31 H 0.831550 2.793002 -2.330368 0
M  V30 32 H -0.884134 3.078792 -1.963330 0
M  V30 33 H -0.488838 4.195817 -0.067972 0
M  V30 34 H 0.646566 4.776221 -1.144336 0
M  V30 35 H 2.462771 3.877960 -0.176145 0
M  V30 36 H 1.380644 4.370499 1.163508 0
M  V30 37 H 2.531555 2.130597 1.316508 0
M  V30 38 H 0.698296 2.066742 1.571317 0
M  V30 39 H 3.727603 0.314836 0.912585 0
M  V30 END ATOM
M  V30 BEGIN BOND
M  V30 1 3 1 2
M  V30 2 1 2 3
M  V30 3 1 3 4
M  V30 4 1 4 5
M  V30 5 1 4 6
M  V30 6 1 6 7
M  V30 7 2 7 8
M  V30 8 1 8 9
M  V30 9 1 9 10
M  V30 10 1 10 11
M  V30 11 1 10 12
M  V30 12 1 12 13
M  V30 13 1 13 14
M  V30 14 1 14 15
M  V30 15 1 15 16
M  V30 16 2 9 17
M  V30 17 1 17 18
M  V30 18 1 18 7
M  V30 19 1 16 10
M  V30 20 1 1 19
M  V30 21 1 3 20
M  V30 22 1 3 21
M  V30 23 1 4 22 CFG=1
M  V30 24 1 5 23
M  V30 25 1 5 24
M  V30 26 1 5 25
M  V30 27 1 6 26
M  V30 28 1 6 27
M  V30 29 1 11 28
M  V30 30 1 12 29
M  V30 31 1 12 30
M  V30 32 1 13 31
M  V30 33 1 13 32
M  V30 34 1 14 33
M  V30 35 1 14 34
M  V30 36 1 15 35
M  V30 37 1 15 36
M  V30 38 1 16 37
M  V30 39 1 16 38
M  V30 40 1 17 39
M  V30 END BOND
M  V30 END CTAB
M  END
>  <Dataset>  (45) 
CF

>  <Ligand_Instance>  (45) 
283_B_2

>  <PDB_ID>  (45) 
nan

>  <Standardized_SMILES>  (45) 
[H]C#CC([H])([H])[N@@+]([H])(C([H])([H])[H])C([H])([H])C1=NC(C2(O[H])C([H])([H])C([H])([H])[N+]([H])([H])C([H])([H])C2([H])[H])=C([H])S1

>  <Name>  (45) 
4‐(2‐{[methyl(prop‐2‐yn‐1‐yl)amino]methyl}‐1,3‐thiazol‐4‐yl)piperidin‐4‐ol

>  <Pocket>  (45) 
G

>  <ATP_Site>  (45) 
0.0

>  <Peripheral>  (45) 
1.0

>  <Num_H_Atoms_ProtBoundConf>  (45) 
21.0

>  <Num_Resolved_Atoms>  (45) 
18.0

>  <Num_Not_Resolved_Atoms>  (45) 
0.0

>  <2D_Mol_H>  (45) 
<rdkit.Chem.rdchem.Mol object at 0x72a238db5c40>

>  <MW>  (45) 
267.398

>  <HBA>  (45) 
3

>  <HBD>  (45) 
3

>  <LogP>  (45) 
-1.6642

>  <NRB>  (45) 
6

>  <TPSA>  (45) 
54.17

>  <Num_Heavy_Atoms>  (45) 
18

>  <Ro5>  (45) 
[True, True, True, True, True, True]

>  <Ro5_Fulfilled>  (45) 
True

>  <Ro3>  (45) 
[True, True, True, True]

>  <Ro3_Fulfilled>  (45) 
True

>  <Fsp3>  (45) 
0.615385

>  <Fsp3_0.42>  (45) 
True

>  <Fsp3_0.45>  (45) 
True

>  <Stereogenic_Carbons>  (45) 
0

>  <C_Atoms>  (45) 
13

>  <FCStereo>  (45) 
0.0

>  <SPS>  (45) 
365

>  <nSPS>  (45) 
20.277778

>  <PBF>  (45) 
0.921684

>  <PBF_0.6>  (45) 
True

>  <nPBF>  (45) 
0.051205

>  <nPBF_0.016>  (45) 
True

>  <PMI1>  (45) 
691.890641

>  <PMI2>  (45) 
2975.482592

>  <PMI3>  (45) 
3351.444167

>  <NPR1>  (45) 
0.206446

>  <NPR2>  (45) 
0.887821

>  <Sum_NPR>  (45) 
1.094267

>  <Sum_NPR_1.07>  (45) 
True

>  <Sum_NPR_1.2>  (45) 
False

>  <MaxAbsEStateIndex>  (45) 
10.578439

>  <MaxEStateIndex>  (45) 
10.578439

>  <MinAbsEStateIndex>  (45) 
0.702521

>  <MinEStateIndex>  (45) 
-0.704839

>  <qed>  (45) 
0.571866

>  <MolWt>  (45) 
267.398

>  <HeavyAtomMolWt>  (45) 
246.23

>  <ExactMolWt>  (45) 
267.139436

>  <NumValenceElectrons>  (45) 
98

>  <NumRadicalElectrons>  (45) 
0

>  <MaxPartialCharge>  (45) 
0.14753

>  <MinPartialCharge>  (45) 
-0.383048

>  <MaxAbsPartialCharge>  (45) 
0.383048

>  <MinAbsPartialCharge>  (45) 
0.14753

>  <FpDensityMorgan1>  (45) 
1.611111

>  <FpDensityMorgan2>  (45) 
2.333333

>  <FpDensityMorgan3>  (45) 
3.0

>  <BCUT2D_MWHI>  (45) 
32.133481

>  <BCUT2D_MWLOW>  (45) 
9.897243

>  <BCUT2D_CHGHI>  (45) 
2.350106

>  <BCUT2D_CHGLO>  (45) 
-2.283113

>  <BCUT2D_LOGPHI>  (45) 
2.292087

>  <BCUT2D_LOGPLOW>  (45) 
-3.069889

>  <BCUT2D_MRHI>  (45) 
7.091884

>  <BCUT2D_MRLOW>  (45) 
-0.885704

>  <AvgIpc>  (45) 
2.792763

>  <BalabanJ>  (45) 
2.031648

>  <BertzCT>  (45) 
431.689911

>  <Chi0>  (45) 
13.010225

>  <Chi0n>  (45) 
10.777367

>  <Chi0v>  (45) 
11.593864

>  <Chi1>  (45) 
8.637977

>  <Chi1n>  (45) 
6.375814

>  <Chi1v>  (45) 
7.255467

>  <Chi2n>  (45) 
5.038879

>  <Chi2v>  (45) 
5.981533

>  <Chi3n>  (45) 
3.409458

>  <Chi3v>  (45) 
4.25827

>  <Chi4n>  (45) 
2.307876

>  <Chi4v>  (45) 
3.308406

>  <HallKierAlpha>  (45) 
-0.93

>  <Ipc>  (45) 
15896.40626

>  <Kappa1>  (45) 
13.500473

>  <Kappa2>  (45) 
5.806758

>  <Kappa3>  (45) 
3.09043

>  <LabuteASA>  (45) 
112.038159

>  <PEOE_VSA1>  (45) 
15.323226

>  <PEOE_VSA10>  (45) 
23.698187

>  <PEOE_VSA11>  (45) 
0.0

>  <PEOE_VSA12>  (45) 
0.0

>  <PEOE_VSA13>  (45) 
0.0

>  <PEOE_VSA14>  (45) 
0.0

>  <PEOE_VSA2>  (45) 
0.0

>  <PEOE_VSA3>  (45) 
4.983979

>  <PEOE_VSA4>  (45) 
0.0

>  <PEOE_VSA5>  (45) 
17.760136

>  <PEOE_VSA6>  (45) 
0.0

>  <PEOE_VSA7>  (45) 
5.920434

>  <PEOE_VSA8>  (45) 
18.221706

>  <PEOE_VSA9>  (45) 
25.831113

>  <SMR_VSA1>  (45) 
15.323226

>  <SMR_VSA10>  (45) 
11.336786

>  <SMR_VSA2>  (45) 
0.0

>  <SMR_VSA3>  (45) 
4.983979

>  <SMR_VSA4>  (45) 
0.0

>  <SMR_VSA5>  (45) 
24.98745

>  <SMR_VSA6>  (45) 
26.681941

>  <SMR_VSA7>  (45) 
16.081614

>  <SMR_VSA8>  (45) 
0.0

>  <SMR_VSA9>  (45) 
12.343784

>  <SlogP_VSA1>  (45) 
10.216698

>  <SlogP_VSA10>  (45) 
0.0

>  <SlogP_VSA11>  (45) 
0.0

>  <SlogP_VSA12>  (45) 
11.336786

>  <SlogP_VSA2>  (45) 
36.772447

>  <SlogP_VSA3>  (45) 
12.145807

>  <SlogP_VSA4>  (45) 
12.343784

>  <SlogP_VSA5>  (45) 
23.543195

>  <SlogP_VSA6>  (45) 
5.380063

>  <SlogP_VSA7>  (45) 
0.0

>  <SlogP_VSA8>  (45) 
0.0

>  <SlogP_VSA9>  (45) 
0.0

>  <EState_VSA1>  (45) 
5.601051

>  <EState_VSA10>  (45) 
5.106527

>  <EState_VSA11>  (45) 
0.0

>  <EState_VSA2>  (45) 
0.0

>  <EState_VSA3>  (45) 
6.544756

>  <EState_VSA4>  (45) 
43.177464

>  <EState_VSA5>  (45) 
4.89991

>  <EState_VSA6>  (45) 
11.336786

>  <EState_VSA7>  (45) 
5.380063

>  <EState_VSA8>  (45) 
23.268873

>  <EState_VSA9>  (45) 
6.42335

>  <VSA_EState1>  (45) 
0.0

>  <VSA_EState10>  (45) 
1.625182

>  <VSA_EState2>  (45) 
5.845302

>  <VSA_EState3>  (45) 
15.881099

>  <VSA_EState4>  (45) 
0.146187

>  <VSA_EState5>  (45) 
2.651661

>  <VSA_EState6>  (45) 
0.0

>  <VSA_EState7>  (45) 
6.884655

>  <VSA_EState8>  (45) 
3.488517

>  <VSA_EState9>  (45) 
2.060731

>  <FractionCSP3>  (45) 
0.615385

>  <HeavyAtomCount>  (45) 
18

>  <NHOHCount>  (45) 
4

>  <NOCount>  (45) 
4

>  <NumAliphaticCarbocycles>  (45) 
0

>  <NumAliphaticHeterocycles>  (45) 
1

>  <NumAliphaticRings>  (45) 
1

>  <NumAromaticCarbocycles>  (45) 
0

>  <NumAromaticHeterocycles>  (45) 
1

>  <NAR>  (45) 
1

>  <NumHAcceptors>  (45) 
3

>  <NumHDonors>  (45) 
3

>  <NumHeteroatoms>  (45) 
5

>  <NumRotatableBonds>  (45) 
4

>  <NumSaturatedCarbocycles>  (45) 
0

>  <NumSaturatedHeterocycles>  (45) 
1

>  <NumSaturatedRings>  (45) 
1

>  <RingCount>  (45) 
2

>  <MolLogP>  (45) 
-1.6642

>  <MolMR>  (45) 
71.1949

>  <fr_Al_COO>  (45) 
0

>  <fr_Al_OH>  (45) 
1

>  <fr_Al_OH_noTert>  (45) 
0

>  <fr_ArN>  (45) 
0

>  <fr_Ar_COO>  (45) 
0

>  <fr_Ar_N>  (45) 
1

>  <fr_Ar_NH>  (45) 
0

>  <fr_Ar_OH>  (45) 
0

>  <fr_COO>  (45) 
0

>  <fr_COO2>  (45) 
0

>  <fr_C_O>  (45) 
0

>  <fr_C_O_noCOO>  (45) 
0

>  <fr_C_S>  (45) 
0

>  <fr_HOCCN>  (45) 
0

>  <fr_Imine>  (45) 
0

>  <fr_NH0>  (45) 
1

>  <fr_NH1>  (45) 
1

>  <fr_NH2>  (45) 
1

>  <fr_N_O>  (45) 
0

>  <fr_Ndealkylation1>  (45) 
0

>  <fr_Ndealkylation2>  (45) 
0

>  <fr_Nhpyrrole>  (45) 
0

>  <fr_SH>  (45) 
0

>  <fr_aldehyde>  (45) 
0

>  <fr_alkyl_carbamate>  (45) 
0

>  <fr_alkyl_halide>  (45) 
0

>  <fr_allylic_oxid>  (45) 
0

>  <fr_amide>  (45) 
0

>  <fr_amidine>  (45) 
0

>  <fr_aniline>  (45) 
0

>  <fr_aryl_methyl>  (45) 
0

>  <fr_azide>  (45) 
0

>  <fr_azo>  (45) 
0

>  <fr_barbitur>  (45) 
0

>  <fr_benzene>  (45) 
0

>  <fr_benzodiazepine>  (45) 
0

>  <fr_bicyclic>  (45) 
0

>  <fr_diazo>  (45) 
0

>  <fr_dihydropyridine>  (45) 
0

>  <fr_epoxide>  (45) 
0

>  <fr_ester>  (45) 
0

>  <fr_ether>  (45) 
0

>  <fr_furan>  (45) 
0

>  <fr_guanido>  (45) 
0

>  <fr_halogen>  (45) 
0

>  <fr_hdrzine>  (45) 
0

>  <fr_hdrzone>  (45) 
0

>  <fr_imidazole>  (45) 
0

>  <fr_imide>  (45) 
0

>  <fr_isocyan>  (45) 
0

>  <fr_isothiocyan>  (45) 
0

>  <fr_ketone>  (45) 
0

>  <fr_ketone_Topliss>  (45) 
0

>  <fr_lactam>  (45) 
0

>  <fr_lactone>  (45) 
0

>  <fr_methoxy>  (45) 
0

>  <fr_morpholine>  (45) 
0

>  <fr_nitrile>  (45) 
0

>  <fr_nitro>  (45) 
0

>  <fr_nitro_arom>  (45) 
0

>  <fr_nitro_arom_nonortho>  (45) 
0

>  <fr_nitroso>  (45) 
0

>  <fr_oxazole>  (45) 
0

>  <fr_oxime>  (45) 
0

>  <fr_para_hydroxylation>  (45) 
0

>  <fr_phenol>  (45) 
0

>  <fr_phenol_noOrthoHbond>  (45) 
0

>  <fr_phos_acid>  (45) 
0

>  <fr_phos_ester>  (45) 
0

>  <fr_piperdine>  (45) 
1

>  <fr_piperzine>  (45) 
0

>  <fr_priamide>  (45) 
0

>  <fr_prisulfonamd>  (45) 
0

>  <fr_pyridine>  (45) 
0

>  <fr_quatN>  (45) 
2

>  <fr_sulfide>  (45) 
0

>  <fr_sulfonamd>  (45) 
0

>  <fr_sulfone>  (45) 
0

>  <fr_term_acetylene>  (45) 
1

>  <fr_tetrazole>  (45) 
0

>  <fr_thiazole>  (45) 
1

>  <fr_thiocyan>  (45) 
0

>  <fr_thiophene>  (45) 
0

>  <fr_unbrch_alkane>  (45) 
0

>  <fr_urea>  (45) 
0

>  <NP-Likeness>  (45) 
-0.413672

$$$$
F294
     RDKit          3D

  0  0  0  0  0  0  0  0  0  0999 V3000
M  V30 BEGIN CTAB
M  V30 COUNTS 42 44 0 0 0
M  V30 BEGIN ATOM
M  V30 1 O 0.838006 -2.854489 3.242380 0
M  V30 2 C 1.048133 -1.478260 3.183787 0
M  V30 3 C 1.425978 -1.076153 1.780217 0
M  V30 4 C 2.200435 0.080946 1.604718 0
M  V30 5 S 2.327956 0.053534 -0.250474 0
M  V30 6 C 1.374781 -1.417944 -0.431276 0
M  V30 7 C 1.042966 -2.078839 -1.740009 0
M  V30 8 N -0.210777 -1.458719 -2.135715 0 CFG=2 CHG=1 VAL=4
M  V30 9 C -0.575799 -1.716033 -3.506103 0
M  V30 10 C -1.191880 -0.440363 -4.037085 0
M  V30 11 C -1.083997 0.582822 -2.927611 0 CFG=1
M  V30 12 O -2.254762 0.681967 -2.201161 0
M  V30 13 C -0.031237 -0.020047 -2.022297 0
M  V30 14 N 1.024962 -1.810953 0.734521 0
M  V30 15 C -0.289247 -0.843961 3.544238 0
M  V30 16 C -0.063810 0.633233 3.596196 0
M  V30 17 N 0.857392 1.031713 4.594449 0 CHG=1 VAL=4
M  V30 18 C 1.866662 0.116671 4.982172 0
M  V30 19 C 2.093061 -1.087289 4.155925 0
M  V30 20 H -0.059571 -3.139837 2.969748 0
M  V30 21 H 2.572376 0.729862 2.301554 0
M  V30 22 H 1.850629 -1.802983 -2.451744 0
M  V30 23 H 0.963001 -3.164416 -1.597241 0
M  V30 24 H -0.935964 -1.728024 -1.441559 0
M  V30 25 H -1.363977 -2.496741 -3.498690 0
M  V30 26 H 0.271441 -2.081224 -4.116919 0
M  V30 27 H -0.628581 -0.121466 -4.917617 0
M  V30 28 H -2.255027 -0.550661 -4.304221 0
M  V30 29 H -0.725539 1.561591 -3.298633 0
M  V30 30 H -2.048375 0.783947 -1.241085 0
M  V30 31 H -0.126533 0.337601 -0.992783 0
M  V30 32 H 0.975631 0.265600 -2.401912 0
M  V30 33 H -1.008196 -1.050856 2.730476 0
M  V30 34 H -0.612387 -1.219547 4.514837 0
M  V30 35 H -1.071099 1.081683 3.840491 0
M  V30 36 H 0.173756 1.052083 2.596690 0
M  V30 37 H 0.331954 1.430102 5.419503 0
M  V30 38 H 1.359915 1.889782 4.208902 0
M  V30 39 H 1.573618 -0.247375 6.012942 0
M  V30 40 H 2.836729 0.642152 5.192462 0
M  V30 41 H 2.358442 -1.964340 4.782250 0
M  V30 42 H 3.033826 -0.897315 3.557391 0
M  V30 END ATOM
M  V30 BEGIN BOND
M  V30 1 1 1 2
M  V30 2 1 2 3
M  V30 3 2 3 4
M  V30 4 1 4 5
M  V30 5 1 5 6
M  V30 6 1 6 7
M  V30 7 1 7 8
M  V30 8 1 8 9
M  V30 9 1 9 10
M  V30 10 1 10 11
M  V30 11 1 11 12
M  V30 12 1 11 13
M  V30 13 2 6 14
M  V30 14 1 2 15
M  V30 15 1 15 16
M  V30 16 1 16 17
M  V30 17 1 17 18
M  V30 18 1 18 19
M  V30 19 1 19 2
M  V30 20 1 14 3
M  V30 21 1 13 8
M  V30 22 1 1 20
M  V30 23 1 4 21
M  V30 24 1 7 22
M  V30 25 1 7 23
M  V30 26 1 8 24 CFG=1
M  V30 27 1 9 25
M  V30 28 1 9 26
M  V30 29 1 10 27
M  V30 30 1 10 28
M  V30 31 1 11 29 CFG=3
M  V30 32 1 12 30
M  V30 33 1 13 31
M  V30 34 1 13 32
M  V30 35 1 15 33
M  V30 36 1 15 34
M  V30 37 1 16 35
M  V30 38 1 16 36
M  V30 39 1 17 37
M  V30 40 1 17 38
M  V30 41 1 18 39
M  V30 42 1 18 40
M  V30 43 1 19 41
M  V30 44 1 19 42
M  V30 END BOND
M  V30 END CTAB
M  END
>  <Dataset>  (46) 
CF

>  <Ligand_Instance>  (46) 
294_L_401

>  <PDB_ID>  (46) 
nan

>  <Standardized_SMILES>  (46) 
[H]OC1(C2=C([H])SC(C([H])([H])[N@+]3([H])C([H])([H])C([H])([H])[C@@]([H])(O[H])C3([H])[H])=N2)C([H])([H])C([H])([H])[N+]([H])([H])C([H])([H])C1([H])[H]

>  <Name>  (46) 
4‐(2‐{[(3R)‐3‐hydroxypyrrolidin‐1‐yl]methyl}‐1,3‐thiazol‐4‐yl)piperidin‐4‐ol

>  <Pocket>  (46) 
X

>  <ATP_Site>  (46) 
0.0

>  <Peripheral>  (46) 
1.0

>  <Num_H_Atoms_ProtBoundConf>  (46) 
23.0

>  <Num_Resolved_Atoms>  (46) 
19.0

>  <Num_Not_Resolved_Atoms>  (46) 
0.0

>  <2D_Mol_H>  (46) 
<rdkit.Chem.rdchem.Mol object at 0x72a238db5d20>

>  <MW>  (46) 
285.413

>  <HBA>  (46) 
4

>  <HBD>  (46) 
4

>  <LogP>  (46) 
-2.1626

>  <NRB>  (46) 
5

>  <TPSA>  (46) 
74.4

>  <Num_Heavy_Atoms>  (46) 
19

>  <Ro5>  (46) 
[True, True, True, True, True, True]

>  <Ro5_Fulfilled>  (46) 
True

>  <Ro3>  (46) 
[True, False, False, True]

>  <Ro3_Fulfilled>  (46) 
False

>  <Fsp3>  (46) 
0.769231

>  <Fsp3_0.42>  (46) 
True

>  <Fsp3_0.45>  (46) 
True

>  <Stereogenic_Carbons>  (46) 
1

>  <C_Atoms>  (46) 
13

>  <FCStereo>  (46) 
0.076923

>  <SPS>  (46) 
582

>  <nSPS>  (46) 
30.631579

>  <PBF>  (46) 
0.878199

>  <PBF_0.6>  (46) 
True

>  <nPBF>  (46) 
0.046221

>  <nPBF_0.016>  (46) 
True

>  <PMI1>  (46) 
710.708315

>  <PMI2>  (46) 
2802.333823

>  <PMI3>  (46) 
2929.617888

>  <NPR1>  (46) 
0.242594

>  <NPR2>  (46) 
0.956553

>  <Sum_NPR>  (46) 
1.199147

>  <Sum_NPR_1.07>  (46) 
True

>  <Sum_NPR_1.2>  (46) 
False

>  <MaxAbsEStateIndex>  (46) 
10.636211

>  <MaxEStateIndex>  (46) 
10.636211

>  <MinAbsEStateIndex>  (46) 
0.145835

>  <MinEStateIndex>  (46) 
-0.705003

>  <qed>  (46) 
0.510961

>  <MolWt>  (46) 
285.413

>  <HeavyAtomMolWt>  (46) 
262.229

>  <ExactMolWt>  (46) 
285.150001

>  <NumValenceElectrons>  (46) 
106

>  <NumRadicalElectrons>  (46) 
0

>  <MaxPartialCharge>  (46) 
0.14751

>  <MinPartialCharge>  (46) 
-0.387019

>  <MaxAbsPartialCharge>  (46) 
0.387019

>  <MinAbsPartialCharge>  (46) 
0.14751

>  <FpDensityMorgan1>  (46) 
1.473684

>  <FpDensityMorgan2>  (46) 
2.263158

>  <FpDensityMorgan3>  (46) 
2.947368

>  <BCUT2D_MWHI>  (46) 
32.133481

>  <BCUT2D_MWLOW>  (46) 
9.897241

>  <BCUT2D_CHGHI>  (46) 
2.354822

>  <BCUT2D_CHGLO>  (46) 
-2.2832

>  <BCUT2D_LOGPHI>  (46) 
2.292954

>  <BCUT2D_LOGPLOW>  (46) 
-3.086386

>  <BCUT2D_MRHI>  (46) 
7.091888

>  <BCUT2D_MRLOW>  (46) 
-0.902284

>  <AvgIpc>  (46) 
3.006835

>  <BalabanJ>  (46) 
1.653211

>  <BertzCT>  (46) 
431.277749

>  <Chi0>  (46) 
13.294682

>  <Chi0n>  (46) 
11.138794

>  <Chi0v>  (46) 
11.955291

>  <Chi1>  (46) 
9.155615

>  <Chi1n>  (46) 
7.161834

>  <Chi1v>  (46) 
8.041487

>  <Chi2n>  (46) 
5.847494

>  <Chi2v>  (46) 
6.790148

>  <Chi3n>  (46) 
4.309257

>  <Chi3v>  (46) 
5.158069

>  <Chi4n>  (46) 
3.095493

>  <Chi4v>  (46) 
4.053747

>  <HallKierAlpha>  (46) 
-0.53

>  <Ipc>  (46) 
38138.690531

>  <Kappa1>  (46) 
13.452934

>  <Kappa2>  (46) 
5.456571

>  <Kappa3>  (46) 
2.977873

>  <LabuteASA>  (46) 
116.827337

>  <PEOE_VSA1>  (46) 
20.429753

>  <PEOE_VSA10>  (46) 
29.802154

>  <PEOE_VSA11>  (46) 
0.0

>  <PEOE_VSA12>  (46) 
0.0

>  <PEOE_VSA13>  (46) 
0.0

>  <PEOE_VSA14>  (46) 
0.0

>  <PEOE_VSA2>  (46) 
0.0

>  <PEOE_VSA3>  (46) 
4.983979

>  <PEOE_VSA4>  (46) 
0.0

>  <PEOE_VSA5>  (46) 
11.336786

>  <PEOE_VSA6>  (46) 
0.0

>  <PEOE_VSA7>  (46) 
0.0

>  <PEOE_VSA8>  (46) 
24.642528

>  <PEOE_VSA9>  (46) 
25.328197

>  <SMR_VSA1>  (46) 
20.429753

>  <SMR_VSA10>  (46) 
11.336786

>  <SMR_VSA2>  (46) 
0.0

>  <SMR_VSA3>  (46) 
4.983979

>  <SMR_VSA4>  (46) 
0.0

>  <SMR_VSA5>  (46) 
37.512238

>  <SMR_VSA6>  (46) 
26.179026

>  <SMR_VSA7>  (46) 
16.081614

>  <SMR_VSA8>  (46) 
0.0

>  <SMR_VSA9>  (46) 
0.0

>  <SlogP_VSA1>  (46) 
10.216698

>  <SlogP_VSA10>  (46) 
0.0

>  <SlogP_VSA11>  (46) 
0.0

>  <SlogP_VSA12>  (46) 
11.336786

>  <SlogP_VSA2>  (46) 
47.480025

>  <SlogP_VSA3>  (46) 
12.145807

>  <SlogP_VSA4>  (46) 
0.0

>  <SlogP_VSA5>  (46) 
29.964017

>  <SlogP_VSA6>  (46) 
5.380063

>  <SlogP_VSA7>  (46) 
0.0

>  <SlogP_VSA8>  (46) 
0.0

>  <SlogP_VSA9>  (46) 
0.0

>  <EState_VSA1>  (46) 
5.601051

>  <EState_VSA10>  (46) 
10.213055

>  <EState_VSA11>  (46) 
0.0

>  <EState_VSA2>  (46) 
6.103966

>  <EState_VSA3>  (46) 
0.0

>  <EState_VSA4>  (46) 
62.687799

>  <EState_VSA5>  (46) 
4.89991

>  <EState_VSA6>  (46) 
11.336786

>  <EState_VSA7>  (46) 
5.380063

>  <EState_VSA8>  (46) 
10.300767

>  <EState_VSA9>  (46) 
0.0

>  <VSA_EState1>  (46) 
0.0

>  <VSA_EState10>  (46) 
1.646032

>  <VSA_EState2>  (46) 
6.046708

>  <VSA_EState3>  (46) 
25.535823

>  <VSA_EState4>  (46) 
0.155872

>  <VSA_EState5>  (46) 
0.0

>  <VSA_EState6>  (46) 
0.0

>  <VSA_EState7>  (46) 
2.344498

>  <VSA_EState8>  (46) 
4.687734

>  <VSA_EState9>  (46) 
0.0

>  <FractionCSP3>  (46) 
0.769231

>  <HeavyAtomCount>  (46) 
19

>  <NHOHCount>  (46) 
5

>  <NOCount>  (46) 
5

>  <NumAliphaticCarbocycles>  (46) 
0

>  <NumAliphaticHeterocycles>  (46) 
2

>  <NumAliphaticRings>  (46) 
2

>  <NumAromaticCarbocycles>  (46) 
0

>  <NumAromaticHeterocycles>  (46) 
1

>  <NAR>  (46) 
1

>  <NumHAcceptors>  (46) 
4

>  <NumHDonors>  (46) 
4

>  <NumHeteroatoms>  (46) 
6

>  <NumRotatableBonds>  (46) 
3

>  <NumSaturatedCarbocycles>  (46) 
0

>  <NumSaturatedHeterocycles>  (46) 
2

>  <NumSaturatedRings>  (46) 
2

>  <RingCount>  (46) 
3

>  <MolLogP>  (46) 
-2.1626

>  <MolMR>  (46) 
71.9287

>  <fr_Al_COO>  (46) 
0

>  <fr_Al_OH>  (46) 
2

>  <fr_Al_OH_noTert>  (46) 
1

>  <fr_ArN>  (46) 
0

>  <fr_Ar_COO>  (46) 
0

>  <fr_Ar_N>  (46) 
1

>  <fr_Ar_NH>  (46) 
0

>  <fr_Ar_OH>  (46) 
0

>  <fr_COO>  (46) 
0

>  <fr_COO2>  (46) 
0

>  <fr_C_O>  (46) 
0

>  <fr_C_O_noCOO>  (46) 
0

>  <fr_C_S>  (46) 
0

>  <fr_HOCCN>  (46) 
0

>  <fr_Imine>  (46) 
0

>  <fr_NH0>  (46) 
1

>  <fr_NH1>  (46) 
1

>  <fr_NH2>  (46) 
1

>  <fr_N_O>  (46) 
0

>  <fr_Ndealkylation1>  (46) 
0

>  <fr_Ndealkylation2>  (46) 
1

>  <fr_Nhpyrrole>  (46) 
0

>  <fr_SH>  (46) 
0

>  <fr_aldehyde>  (46) 
0

>  <fr_alkyl_carbamate>  (46) 
0

>  <fr_alkyl_halide>  (46) 
0

>  <fr_allylic_oxid>  (46) 
0

>  <fr_amide>  (46) 
0

>  <fr_amidine>  (46) 
0

>  <fr_aniline>  (46) 
0

>  <fr_aryl_methyl>  (46) 
0

>  <fr_azide>  (46) 
0

>  <fr_azo>  (46) 
0

>  <fr_barbitur>  (46) 
0

>  <fr_benzene>  (46) 
0

>  <fr_benzodiazepine>  (46) 
0

>  <fr_bicyclic>  (46) 
0

>  <fr_diazo>  (46) 
0

>  <fr_dihydropyridine>  (46) 
0

>  <fr_epoxide>  (46) 
0

>  <fr_ester>  (46) 
0

>  <fr_ether>  (46) 
0

>  <fr_furan>  (46) 
0

>  <fr_guanido>  (46) 
0

>  <fr_halogen>  (46) 
0

>  <fr_hdrzine>  (46) 
0

>  <fr_hdrzone>  (46) 
0

>  <fr_imidazole>  (46) 
0

>  <fr_imide>  (46) 
0

>  <fr_isocyan>  (46) 
0

>  <fr_isothiocyan>  (46) 
0

>  <fr_ketone>  (46) 
0

>  <fr_ketone_Topliss>  (46) 
0

>  <fr_lactam>  (46) 
0

>  <fr_lactone>  (46) 
0

>  <fr_methoxy>  (46) 
0

>  <fr_morpholine>  (46) 
0

>  <fr_nitrile>  (46) 
0

>  <fr_nitro>  (46) 
0

>  <fr_nitro_arom>  (46) 
0

>  <fr_nitro_arom_nonortho>  (46) 
0

>  <fr_nitroso>  (46) 
0

>  <fr_oxazole>  (46) 
0

>  <fr_oxime>  (46) 
0

>  <fr_para_hydroxylation>  (46) 
0

>  <fr_phenol>  (46) 
0

>  <fr_phenol_noOrthoHbond>  (46) 
0

>  <fr_phos_acid>  (46) 
0

>  <fr_phos_ester>  (46) 
0

>  <fr_piperdine>  (46) 
1

>  <fr_piperzine>  (46) 
0

>  <fr_priamide>  (46) 
0

>  <fr_prisulfonamd>  (46) 
0

>  <fr_pyridine>  (46) 
0

>  <fr_quatN>  (46) 
2

>  <fr_sulfide>  (46) 
0

>  <fr_sulfonamd>  (46) 
0

>  <fr_sulfone>  (46) 
0

>  <fr_term_acetylene>  (46) 
0

>  <fr_tetrazole>  (46) 
0

>  <fr_thiazole>  (46) 
1

>  <fr_thiocyan>  (46) 
0

>  <fr_thiophene>  (46) 
0

>  <fr_unbrch_alkane>  (46) 
0

>  <fr_urea>  (46) 
0

>  <NP-Likeness>  (46) 
-0.082879

$$$$
F296
     RDKit          3D

  0  0  0  0  0  0  0  0  0  0999 V3000
M  V30 BEGIN CTAB
M  V30 COUNTS 31 33 0 0 0
M  V30 BEGIN ATOM
M  V30 1 C 1.096225 -3.815405 2.708544 0
M  V30 2 C 2.387614 -3.364550 2.524554 0
M  V30 3 F 3.444480 -3.953056 3.177048 0
M  V30 4 C 2.689209 -2.313637 1.688491 0
M  V30 5 C 1.643287 -1.699419 1.016100 0
M  V30 6 O 1.951512 -0.627885 0.163723 0
M  V30 7 C 1.206394 0.510968 -0.064385 0 CFG=2
M  V30 8 C 0.876600 1.319306 1.178530 0
M  V30 9 N -0.520923 1.667380 1.096576 0 CHG=1 VAL=4
M  V30 10 C -0.726585 1.737540 -0.351046 0
M  V30 11 C -0.080984 0.415010 -0.765287 0 CFG=2
M  V30 12 N -0.973840 -0.626496 -0.402971 0
M  V30 13 C -2.181955 -0.656713 -1.210029 0
M  V30 14 C -0.935485 -1.654972 0.591103 0
M  V30 15 O -2.005286 -2.167796 0.975843 0
M  V30 16 C 0.325558 -2.147939 1.194171 0
M  V30 17 C 0.036408 -3.215111 2.045746 0
M  V30 18 H 0.891213 -4.652565 3.379847 0
M  V30 19 H 3.660201 -1.903928 1.490836 0
M  V30 20 H 1.861572 1.193555 -0.683817 0
M  V30 21 H 1.494971 2.233981 1.282645 0
M  V30 22 H 1.124394 0.689300 2.060432 0
M  V30 23 H -0.737299 2.574432 1.558205 0
M  V30 24 H -1.073971 0.877612 1.497332 0
M  V30 25 H -1.778055 1.815006 -0.620940 0
M  V30 26 H -0.089178 2.570326 -0.729412 0
M  V30 27 H 0.008229 0.481976 -1.876233 0
M  V30 28 H -2.055365 -1.563602 -1.868923 0
M  V30 29 H -3.024274 -0.948118 -0.529686 0
M  V30 30 H -2.375274 0.248394 -1.782873 0
M  V30 31 H -0.984754 -3.547906 2.171340 0
M  V30 END ATOM
M  V30 BEGIN BOND
M  V30 1 2 1 2
M  V30 2 1 2 3
M  V30 3 1 2 4
M  V30 4 2 4 5
M  V30 5 1 5 6
M  V30 6 1 6 7
M  V30 7 1 7 8
M  V30 8 1 8 9
M  V30 9 1 9 10
M  V30 10 1 10 11
M  V30 11 1 11 12
M  V30 12 1 12 13
M  V30 13 1 12 14
M  V30 14 2 14 15
M  V30 15 1 14 16
M  V30 16 2 16 17
M  V30 17 1 17 1
M  V30 18 1 16 5
M  V30 19 1 11 7
M  V30 20 1 1 18
M  V30 21 1 4 19
M  V30 22 1 7 20 CFG=3
M  V30 23 1 8 21
M  V30 24 1 8 22
M  V30 25 1 9 23
M  V30 26 1 9 24
M  V30 27 1 10 25
M  V30 28 1 10 26
M  V30 29 1 11 27 CFG=3
M  V30 30 1 13 28
M  V30 31 1 13 29
M  V30 32 1 13 30
M  V30 33 1 17 31
M  V30 END BOND
M  V30 END CTAB
M  END
>  <Dataset>  (47) 
CF

>  <Ligand_Instance>  (47) 
296_B_1

>  <PDB_ID>  (47) 
nan

>  <Standardized_SMILES>  (47) 
[H]C1=C(F)C([H])=C2O[C@]3([H])C([H])([H])[N+]([H])([H])C([H])([H])[C@]3([H])N(C([H])([H])[H])C(=O)C2=C1[H]

>  <Name>  (47) 
(3S,7R)‐13‐fluoro‐8‐methyl‐2‐oxa‐5,8‐diazatricyclo[8.4.0.0]tetradeca‐1(10),11,13‐trien‐9‐one

>  <Pocket>  (47) 
A

>  <ATP_Site>  (47) 
1.0

>  <Peripheral>  (47) 
0.0

>  <Num_H_Atoms_ProtBoundConf>  (47) 
14.0

>  <Num_Resolved_Atoms>  (47) 
17.0

>  <Num_Not_Resolved_Atoms>  (47) 
0.0

>  <2D_Mol_H>  (47) 
<rdkit.Chem.rdchem.Mol object at 0x72a238db5e00>

>  <MW>  (47) 
237.254

>  <HBA>  (47) 
2

>  <HBD>  (47) 
1

>  <LogP>  (47) 
-0.3957

>  <NRB>  (47) 
1

>  <TPSA>  (47) 
46.15

>  <Num_Heavy_Atoms>  (47) 
17

>  <Ro5>  (47) 
[True, True, True, True, True, True]

>  <Ro5_Fulfilled>  (47) 
True

>  <Ro3>  (47) 
[True, True, True, True]

>  <Ro3_Fulfilled>  (47) 
True

>  <Fsp3>  (47) 
0.416667

>  <Fsp3_0.42>  (47) 
False

>  <Fsp3_0.45>  (47) 
False

>  <Stereogenic_Carbons>  (47) 
2

>  <C_Atoms>  (47) 
12

>  <FCStereo>  (47) 
0.166667

>  <SPS>  (47) 
462

>  <nSPS>  (47) 
27.176471

>  <PBF>  (47) 
0.789531

>  <PBF_0.6>  (47) 
True

>  <nPBF>  (47) 
0.046443

>  <nPBF_0.016>  (47) 
True

>  <PMI1>  (47) 
553.83727

>  <PMI2>  (47) 
1449.049997

>  <PMI3>  (47) 
1774.173457

>  <NPR1>  (47) 
0.312166

>  <NPR2>  (47) 
0.816747

>  <Sum_NPR>  (47) 
1.128913

>  <Sum_NPR_1.07>  (47) 
True

>  <Sum_NPR_1.2>  (47) 
False

>  <MaxAbsEStateIndex>  (47) 
13.182572

>  <MaxEStateIndex>  (47) 
13.182572

>  <MinAbsEStateIndex>  (47) 
0.049074

>  <MinEStateIndex>  (47) 
-0.375343

>  <qed>  (47) 
0.667396

>  <MolWt>  (47) 
237.254

>  <HeavyAtomMolWt>  (47) 
223.142

>  <ExactMolWt>  (47) 
237.103382

>  <NumValenceElectrons>  (47) 
90

>  <NumRadicalElectrons>  (47) 
0

>  <MaxPartialCharge>  (47) 
0.257454

>  <MinPartialCharge>  (47) 
-0.48116

>  <MaxAbsPartialCharge>  (47) 
0.48116

>  <MinAbsPartialCharge>  (47) 
0.257454

>  <FpDensityMorgan1>  (47) 
1.470588

>  <FpDensityMorgan2>  (47) 
2.294118

>  <FpDensityMorgan3>  (47) 
3.117647

>  <BCUT2D_MWHI>  (47) 
19.142145

>  <BCUT2D_MWLOW>  (47) 
10.134138

>  <BCUT2D_CHGHI>  (47) 
2.409626

>  <BCUT2D_CHGLO>  (47) 
-2.220453

>  <BCUT2D_LOGPHI>  (47) 
2.276741

>  <BCUT2D_LOGPLOW>  (47) 
-2.822574

>  <BCUT2D_MRHI>  (47) 
5.969792

>  <BCUT2D_MRLOW>  (47) 
-0.638937

>  <AvgIpc>  (47) 
2.720672

>  <BalabanJ>  (47) 
2.07954

>  <BertzCT>  (47) 
477.573475

>  <Chi0>  (47) 
11.991199

>  <Chi0n>  (47) 
9.51999

>  <Chi0v>  (47) 
9.51999

>  <Chi1>  (47) 
8.164704

>  <Chi1n>  (47) 
5.716312

>  <Chi1v>  (47) 
5.716312

>  <Chi2n>  (47) 
4.540269

>  <Chi2v>  (47) 
4.540269

>  <Chi3n>  (47) 
3.506515

>  <Chi3v>  (47) 
3.506515

>  <Chi4n>  (47) 
2.548332

>  <Chi4v>  (47) 
2.548332

>  <HallKierAlpha>  (47) 
-1.62

>  <Ipc>  (47) 
12259.345971

>  <Kappa1>  (47) 
10.528695

>  <Kappa2>  (47) 
3.699317

>  <Kappa3>  (47) 
1.577326

>  <LabuteASA>  (47) 
98.359692

>  <PEOE_VSA1>  (47) 
14.953561

>  <PEOE_VSA10>  (47) 
30.698086

>  <PEOE_VSA11>  (47) 
6.103966

>  <PEOE_VSA12>  (47) 
0.0

>  <PEOE_VSA13>  (47) 
5.90718

>  <PEOE_VSA14>  (47) 
0.0

>  <PEOE_VSA2>  (47) 
4.794537

>  <PEOE_VSA3>  (47) 
4.390415

>  <PEOE_VSA4>  (47) 
0.0

>  <PEOE_VSA5>  (47) 
0.0

>  <PEOE_VSA6>  (47) 
0.0

>  <PEOE_VSA7>  (47) 
12.132734

>  <PEOE_VSA8>  (47) 
13.114039

>  <PEOE_VSA9>  (47) 
5.563451

>  <SMR_VSA1>  (47) 
19.238604

>  <SMR_VSA10>  (47) 
5.90718

>  <SMR_VSA2>  (47) 
0.0

>  <SMR_VSA3>  (47) 
4.89991

>  <SMR_VSA4>  (47) 
0.0

>  <SMR_VSA5>  (47) 
12.145807

>  <SMR_VSA6>  (47) 
20.137185

>  <SMR_VSA7>  (47) 
29.579774

>  <SMR_VSA8>  (47) 
0.0

>  <SMR_VSA9>  (47) 
5.749512

>  <SlogP_VSA1>  (47) 
10.053652

>  <SlogP_VSA10>  (47) 
4.390415

>  <SlogP_VSA11>  (47) 
5.749512

>  <SlogP_VSA12>  (47) 
0.0

>  <SlogP_VSA2>  (47) 
43.090081

>  <SlogP_VSA3>  (47) 
0.0

>  <SlogP_VSA4>  (47) 
5.817221

>  <SlogP_VSA5>  (47) 
10.357989

>  <SlogP_VSA6>  (47) 
18.199101

>  <SlogP_VSA7>  (47) 
0.0

>  <SlogP_VSA8>  (47) 
0.0

>  <SlogP_VSA9>  (47) 
0.0

>  <EState_VSA1>  (47) 
0.0

>  <EState_VSA10>  (47) 
9.184952

>  <EState_VSA11>  (47) 
0.0

>  <EState_VSA2>  (47) 
23.870208

>  <EState_VSA3>  (47) 
11.312963

>  <EState_VSA4>  (47) 
13.089513

>  <EState_VSA5>  (47) 
18.199101

>  <EState_VSA6>  (47) 
11.947582

>  <EState_VSA7>  (47) 
0.0

>  <EState_VSA8>  (47) 
5.316789

>  <EState_VSA9>  (47) 
4.736863

>  <VSA_EState1>  (47) 
18.951322

>  <VSA_EState10>  (47) 
0.0

>  <VSA_EState2>  (47) 
13.90631

>  <VSA_EState3>  (47) 
2.114488

>  <VSA_EState4>  (47) 
0.4475

>  <VSA_EState5>  (47) 
-0.104556

>  <VSA_EState6>  (47) 
4.148104

>  <VSA_EState7>  (47) 
-0.049074

>  <VSA_EState8>  (47) 
1.640493

>  <VSA_EState9>  (47) 
1.778747

>  <FractionCSP3>  (47) 
0.416667

>  <HeavyAtomCount>  (47) 
17

>  <NHOHCount>  (47) 
2

>  <NOCount>  (47) 
4

>  <NumAliphaticCarbocycles>  (47) 
0

>  <NumAliphaticHeterocycles>  (47) 
2

>  <NumAliphaticRings>  (47) 
2

>  <NumAromaticCarbocycles>  (47) 
1

>  <NumAromaticHeterocycles>  (47) 
0

>  <NAR>  (47) 
1

>  <NumHAcceptors>  (47) 
2

>  <NumHDonors>  (47) 
1

>  <NumHeteroatoms>  (47) 
5

>  <NumRotatableBonds>  (47) 
0

>  <NumSaturatedCarbocycles>  (47) 
0

>  <NumSaturatedHeterocycles>  (47) 
1

>  <NumSaturatedRings>  (47) 
1

>  <RingCount>  (47) 
3

>  <MolLogP>  (47) 
-0.3957

>  <MolMR>  (47) 
58.3569

>  <fr_Al_COO>  (47) 
0

>  <fr_Al_OH>  (47) 
0

>  <fr_Al_OH_noTert>  (47) 
0

>  <fr_ArN>  (47) 
0

>  <fr_Ar_COO>  (47) 
0

>  <fr_Ar_N>  (47) 
0

>  <fr_Ar_NH>  (47) 
0

>  <fr_Ar_OH>  (47) 
0

>  <fr_COO>  (47) 
0

>  <fr_COO2>  (47) 
0

>  <fr_C_O>  (47) 
1

>  <fr_C_O_noCOO>  (47) 
1

>  <fr_C_S>  (47) 
0

>  <fr_HOCCN>  (47) 
0

>  <fr_Imine>  (47) 
0

>  <fr_NH0>  (47) 
1

>  <fr_NH1>  (47) 
0

>  <fr_NH2>  (47) 
1

>  <fr_N_O>  (47) 
0

>  <fr_Ndealkylation1>  (47) 
1

>  <fr_Ndealkylation2>  (47) 
0

>  <fr_Nhpyrrole>  (47) 
0

>  <fr_SH>  (47) 
0

>  <fr_aldehyde>  (47) 
0

>  <fr_alkyl_carbamate>  (47) 
0

>  <fr_alkyl_halide>  (47) 
0

>  <fr_allylic_oxid>  (47) 
0

>  <fr_amide>  (47) 
1

>  <fr_amidine>  (47) 
0

>  <fr_aniline>  (47) 
0

>  <fr_aryl_methyl>  (47) 
0

>  <fr_azide>  (47) 
0

>  <fr_azo>  (47) 
0

>  <fr_barbitur>  (47) 
0

>  <fr_benzene>  (47) 
1

>  <fr_benzodiazepine>  (47) 
0

>  <fr_bicyclic>  (47) 
2

>  <fr_diazo>  (47) 
0

>  <fr_dihydropyridine>  (47) 
0

>  <fr_epoxide>  (47) 
0

>  <fr_ester>  (47) 
0

>  <fr_ether>  (47) 
1

>  <fr_furan>  (47) 
0

>  <fr_guanido>  (47) 
0

>  <fr_halogen>  (47) 
1

>  <fr_hdrzine>  (47) 
0

>  <fr_hdrzone>  (47) 
0

>  <fr_imidazole>  (47) 
0

>  <fr_imide>  (47) 
0

>  <fr_isocyan>  (47) 
0

>  <fr_isothiocyan>  (47) 
0

>  <fr_ketone>  (47) 
0

>  <fr_ketone_Topliss>  (47) 
0

>  <fr_lactam>  (47) 
0

>  <fr_lactone>  (47) 
0

>  <fr_methoxy>  (47) 
0

>  <fr_morpholine>  (47) 
0

>  <fr_nitrile>  (47) 
0

>  <fr_nitro>  (47) 
0

>  <fr_nitro_arom>  (47) 
0

>  <fr_nitro_arom_nonortho>  (47) 
0

>  <fr_nitroso>  (47) 
0

>  <fr_oxazole>  (47) 
0

>  <fr_oxime>  (47) 
0

>  <fr_para_hydroxylation>  (47) 
0

>  <fr_phenol>  (47) 
0

>  <fr_phenol_noOrthoHbond>  (47) 
0

>  <fr_phos_acid>  (47) 
0

>  <fr_phos_ester>  (47) 
0

>  <fr_piperdine>  (47) 
0

>  <fr_piperzine>  (47) 
0

>  <fr_priamide>  (47) 
0

>  <fr_prisulfonamd>  (47) 
0

>  <fr_pyridine>  (47) 
0

>  <fr_quatN>  (47) 
1

>  <fr_sulfide>  (47) 
0

>  <fr_sulfonamd>  (47) 
0

>  <fr_sulfone>  (47) 
0

>  <fr_term_acetylene>  (47) 
0

>  <fr_tetrazole>  (47) 
0

>  <fr_thiazole>  (47) 
0

>  <fr_thiocyan>  (47) 
0

>  <fr_thiophene>  (47) 
0

>  <fr_unbrch_alkane>  (47) 
0

>  <fr_urea>  (47) 
0

>  <NP-Likeness>  (47) 
-0.027432

$$$$
F299
     RDKit          3D

  0  0  0  0  0  0  0  0  0  0999 V3000
M  V30 BEGIN CTAB
M  V30 COUNTS 28 30 0 0 0
M  V30 BEGIN ATOM
M  V30 1 C -2.284106 -0.419278 2.980410 0
M  V30 2 C -2.992548 0.559138 2.293149 0
M  V30 3 C -2.475376 1.042475 1.101385 0
M  V30 4 C -1.277009 0.567607 0.595086 0
M  V30 5 C -0.614752 -0.417539 1.337264 0
M  V30 6 N -1.119165 -0.887309 2.497296 0
M  V30 7 O 0.595128 -1.026594 1.009408 0
M  V30 8 C 1.293802 -1.145630 -0.203222 0 CFG=1
M  V30 9 C 1.513627 -2.670015 -0.299861 0
M  V30 10 N 0.122370 -3.087682 -0.442685 0 CHG=1 VAL=4
M  V30 11 C -0.504522 -2.103756 -1.312196 0
M  V30 12 C 0.506714 -1.014565 -1.450652 0 CFG=1
M  V30 13 N 0.093721 0.233300 -1.910665 0
M  V30 14 S -0.759158 1.272244 -0.910314 0
M  V30 15 O 0.093978 2.466751 -0.574427 0
M  V30 16 O -1.978303 1.785717 -1.623281 0
M  V30 17 H -2.682614 -0.802533 3.914010 0
M  V30 18 H -3.923575 0.963282 2.636689 0
M  V30 19 H -2.970713 1.804719 0.510347 0
M  V30 20 H 2.233953 -0.602002 -0.269868 0
M  V30 21 H 2.048409 -2.869407 -1.225080 0
M  V30 22 H 1.959549 -3.056849 0.627077 0
M  V30 23 H -0.355528 -2.992118 0.488620 0
M  V30 24 H 0.036325 -4.054024 -0.803508 0
M  V30 25 H -1.503060 -1.785913 -0.977824 0
M  V30 26 H -0.685271 -2.642877 -2.287204 0
M  V30 27 H 1.206605 -1.408158 -2.250396 0
M  V30 28 H 0.839418 0.738139 -2.429323 0
M  V30 END ATOM
M  V30 BEGIN BOND
M  V30 1 2 1 2
M  V30 2 1 2 3
M  V30 3 2 3 4
M  V30 4 1 4 5
M  V30 5 2 5 6
M  V30 6 1 5 7
M  V30 7 1 7 8
M  V30 8 1 8 9
M  V30 9 1 9 10
M  V30 10 1 10 11
M  V30 11 1 11 12
M  V30 12 1 12 13
M  V30 13 1 13 14
M  V30 14 2 14 15
M  V30 15 2 14 16
M  V30 16 1 6 1
M  V30 17 1 12 8
M  V30 18 1 14 4
M  V30 19 1 1 17
M  V30 20 1 2 18
M  V30 21 1 3 19
M  V30 22 1 8 20 CFG=3
M  V30 23 1 9 21
M  V30 24 1 9 22
M  V30 25 1 10 23
M  V30 26 1 10 24
M  V30 27 1 11 25
M  V30 28 1 11 26
M  V30 29 1 12 27 CFG=3
M  V30 30 1 13 28
M  V30 END BOND
M  V30 END CTAB
M  END
>  <Dataset>  (48) 
CF

>  <Ligand_Instance>  (48) 
299_B_5

>  <PDB_ID>  (48) 
nan

>  <Standardized_SMILES>  (48) 
[H]C1=C([H])C([H])=C2C(=N1)O[C@@]1([H])C([H])([H])[N+]([H])([H])C([H])([H])[C@@]1([H])N([H])S2(=O)=O

>  <Name>  (48) 
(3S,7R)‐2‐oxa‐9lambda6‐thia‐5,8,14‐triazatricyclo[8.4.0.0]tetradeca‐1(10),11,13‐triene‐9,9‐dione

>  <Pocket>  (48) 
X

>  <ATP_Site>  (48) 
1.0

>  <Peripheral>  (48) 
1.0

>  <Num_H_Atoms_ProtBoundConf>  (48) 
12.0

>  <Num_Resolved_Atoms>  (48) 
16.0

>  <Num_Not_Resolved_Atoms>  (48) 
0.0

>  <2D_Mol_H>  (48) 
<rdkit.Chem.rdchem.Mol object at 0x72a238db5ee0>

>  <MW>  (48) 
242.28

>  <HBA>  (48) 
4

>  <HBD>  (48) 
2

>  <LogP>  (48) 
-1.9335

>  <NRB>  (48) 
0

>  <TPSA>  (48) 
84.9

>  <Num_Heavy_Atoms>  (48) 
16

>  <Ro5>  (48) 
[True, True, True, True, True, True]

>  <Ro5_Fulfilled>  (48) 
True

>  <Ro3>  (48) 
[True, False, True, True]

>  <Ro3_Fulfilled>  (48) 
True

>  <Fsp3>  (48) 
0.444444

>  <Fsp3_0.42>  (48) 
True

>  <Fsp3_0.45>  (48) 
False

>  <Stereogenic_Carbons>  (48) 
2

>  <C_Atoms>  (48) 
9

>  <FCStereo>  (48) 
0.222222

>  <SPS>  (48) 
496

>  <nSPS>  (48) 
31.0

>  <PBF>  (48) 
0.761224

>  <PBF_0.6>  (48) 
True

>  <nPBF>  (48) 
0.047576

>  <nPBF_0.016>  (48) 
True

>  <PMI1>  (48) 
749.445409

>  <PMI2>  (48) 
920.713713

>  <PMI3>  (48) 
1390.592159

>  <NPR1>  (48) 
0.53894

>  <NPR2>  (48) 
0.662102

>  <Sum_NPR>  (48) 
1.201042

>  <Sum_NPR_1.07>  (48) 
True

>  <Sum_NPR_1.2>  (48) 
True

>  <MaxAbsEStateIndex>  (48) 
11.990648

>  <MaxEStateIndex>  (48) 
11.990648

>  <MinAbsEStateIndex>  (48) 
0.129074

>  <MinEStateIndex>  (48) 
-3.490208

>  <qed>  (48) 
0.554481

>  <MolWt>  (48) 
242.28

>  <HeavyAtomMolWt>  (48) 
230.184

>  <ExactMolWt>  (48) 
242.059389

>  <NumValenceElectrons>  (48) 
86

>  <NumRadicalElectrons>  (48) 
0

>  <MaxPartialCharge>  (48) 
0.246039

>  <MinPartialCharge>  (48) 
-0.465396

>  <MaxAbsPartialCharge>  (48) 
0.465396

>  <MinAbsPartialCharge>  (48) 
0.246039

>  <FpDensityMorgan1>  (48) 
1.5

>  <FpDensityMorgan2>  (48) 
2.375

>  <FpDensityMorgan3>  (48) 
3.25

>  <BCUT2D_MWHI>  (48) 
32.233272

>  <BCUT2D_MWLOW>  (48) 
10.217801

>  <BCUT2D_CHGHI>  (48) 
2.402728

>  <BCUT2D_CHGLO>  (48) 
-2.115792

>  <BCUT2D_LOGPHI>  (48) 
2.25189

>  <BCUT2D_LOGPLOW>  (48) 
-2.822574

>  <BCUT2D_MRHI>  (48) 
7.892422

>  <BCUT2D_MRLOW>  (48) 
-0.63829

>  <AvgIpc>  (48) 
2.614998

>  <BalabanJ>  (48) 
2.125498

>  <BertzCT>  (48) 
516.485425

>  <Chi0>  (48) 
11.173362

>  <Chi0n>  (48) 
8.458522

>  <Chi0v>  (48) 
9.275019

>  <Chi1>  (48) 
7.666633

>  <Chi1n>  (48) 
5.123557

>  <Chi1v>  (48) 
6.60672

>  <Chi2n>  (48) 
3.950854

>  <Chi2v>  (48) 
5.633256

>  <Chi3n>  (48) 
2.863646

>  <Chi3v>  (48) 
4.36643

>  <Chi4n>  (48) 
2.085591

>  <Chi4v>  (48) 
3.447557

>  <HallKierAlpha>  (48) 
-1.18

>  <Ipc>  (48) 
7138.945059

>  <Kappa1>  (48) 
10.00489

>  <Kappa2>  (48) 
3.406996

>  <Kappa3>  (48) 
1.477289

>  <LabuteASA>  (48) 
93.073203

>  <PEOE_VSA1>  (48) 
10.053652

>  <PEOE_VSA10>  (48) 
17.482081

>  <PEOE_VSA11>  (48) 
6.103966

>  <PEOE_VSA12>  (48) 
15.903279

>  <PEOE_VSA13>  (48) 
0.0

>  <PEOE_VSA14>  (48) 
0.0

>  <PEOE_VSA2>  (48) 
0.0

>  <PEOE_VSA3>  (48) 
13.401776

>  <PEOE_VSA4>  (48) 
4.722095

>  <PEOE_VSA5>  (48) 
0.0

>  <PEOE_VSA6>  (48) 
0.0

>  <PEOE_VSA7>  (48) 
12.132734

>  <PEOE_VSA8>  (48) 
6.196844

>  <PEOE_VSA9>  (48) 
6.544756

>  <SMR_VSA1>  (48) 
18.471449

>  <SMR_VSA10>  (48) 
10.023291

>  <SMR_VSA2>  (48) 
0.0

>  <SMR_VSA3>  (48) 
9.706073

>  <SMR_VSA4>  (48) 
0.0

>  <SMR_VSA5>  (48) 
17.041291

>  <SMR_VSA6>  (48) 
13.089513

>  <SMR_VSA7>  (48) 
18.329578

>  <SMR_VSA8>  (48) 
0.0

>  <SMR_VSA9>  (48) 
5.879988

>  <SlogP_VSA1>  (48) 
14.775746

>  <SlogP_VSA10>  (48) 
0.0

>  <SlogP_VSA11>  (48) 
5.879988

>  <SlogP_VSA12>  (48) 
0.0

>  <SlogP_VSA2>  (48) 
38.637096

>  <SlogP_VSA3>  (48) 
10.023291

>  <SlogP_VSA4>  (48) 
0.0

>  <SlogP_VSA5>  (48) 
0.0

>  <SlogP_VSA6>  (48) 
23.225061

>  <SlogP_VSA7>  (48) 
0.0

>  <SlogP_VSA8>  (48) 
0.0

>  <SlogP_VSA9>  (48) 
0.0

>  <EState_VSA1>  (48) 
10.023291

>  <EState_VSA10>  (48) 
8.417797

>  <EState_VSA11>  (48) 
0.0

>  <EState_VSA2>  (48) 
22.921279

>  <EState_VSA3>  (48) 
6.544756

>  <EState_VSA4>  (48) 
6.544756

>  <EState_VSA5>  (48) 
12.263211

>  <EState_VSA6>  (48) 
6.066367

>  <EState_VSA7>  (48) 
5.316789

>  <EState_VSA8>  (48) 
9.706073

>  <EState_VSA9>  (48) 
4.736863

>  <VSA_EState1>  (48) 
32.263032

>  <VSA_EState10>  (48) 
0.0

>  <VSA_EState2>  (48) 
4.109097

>  <VSA_EState3>  (48) 
2.033519

>  <VSA_EState4>  (48) 
0.0

>  <VSA_EState5>  (48) 
0.206296

>  <VSA_EState6>  (48) 
2.933857

>  <VSA_EState7>  (48) 
1.401662

>  <VSA_EState8>  (48) 
1.459411

>  <VSA_EState9>  (48) 
-3.490208

>  <FractionCSP3>  (48) 
0.444444

>  <HeavyAtomCount>  (48) 
16

>  <NHOHCount>  (48) 
3

>  <NOCount>  (48) 
6

>  <NumAliphaticCarbocycles>  (48) 
0

>  <NumAliphaticHeterocycles>  (48) 
2

>  <NumAliphaticRings>  (48) 
2

>  <NumAromaticCarbocycles>  (48) 
0

>  <NumAromaticHeterocycles>  (48) 
1

>  <NAR>  (48) 
1

>  <NumHAcceptors>  (48) 
4

>  <NumHDonors>  (48) 
2

>  <NumHeteroatoms>  (48) 
7

>  <NumRotatableBonds>  (48) 
0

>  <NumSaturatedCarbocycles>  (48) 
0

>  <NumSaturatedHeterocycles>  (48) 
1

>  <NumSaturatedRings>  (48) 
1

>  <RingCount>  (48) 
3

>  <MolLogP>  (48) 
-1.9335

>  <MolMR>  (48) 
54.4219

>  <fr_Al_COO>  (48) 
0

>  <fr_Al_OH>  (48) 
0

>  <fr_Al_OH_noTert>  (48) 
0

>  <fr_ArN>  (48) 
0

>  <fr_Ar_COO>  (48) 
0

>  <fr_Ar_N>  (48) 
1

>  <fr_Ar_NH>  (48) 
0

>  <fr_Ar_OH>  (48) 
0

>  <fr_COO>  (48) 
0

>  <fr_COO2>  (48) 
0

>  <fr_C_O>  (48) 
0

>  <fr_C_O_noCOO>  (48) 
0

>  <fr_C_S>  (48) 
0

>  <fr_HOCCN>  (48) 
0

>  <fr_Imine>  (48) 
0

>  <fr_NH0>  (48) 
1

>  <fr_NH1>  (48) 
1

>  <fr_NH2>  (48) 
1

>  <fr_N_O>  (48) 
0

>  <fr_Ndealkylation1>  (48) 
0

>  <fr_Ndealkylation2>  (48) 
0

>  <fr_Nhpyrrole>  (48) 
0

>  <fr_SH>  (48) 
0

>  <fr_aldehyde>  (48) 
0

>  <fr_alkyl_carbamate>  (48) 
0

>  <fr_alkyl_halide>  (48) 
0

>  <fr_allylic_oxid>  (48) 
0

>  <fr_amide>  (48) 
0

>  <fr_amidine>  (48) 
0

>  <fr_aniline>  (48) 
0

>  <fr_aryl_methyl>  (48) 
0

>  <fr_azide>  (48) 
0

>  <fr_azo>  (48) 
0

>  <fr_barbitur>  (48) 
0

>  <fr_benzene>  (48) 
0

>  <fr_benzodiazepine>  (48) 
0

>  <fr_bicyclic>  (48) 
2

>  <fr_diazo>  (48) 
0

>  <fr_dihydropyridine>  (48) 
0

>  <fr_epoxide>  (48) 
0

>  <fr_ester>  (48) 
0

>  <fr_ether>  (48) 
1

>  <fr_furan>  (48) 
0

>  <fr_guanido>  (48) 
0

>  <fr_halogen>  (48) 
0

>  <fr_hdrzine>  (48) 
0

>  <fr_hdrzone>  (48) 
0

>  <fr_imidazole>  (48) 
0

>  <fr_imide>  (48) 
0

>  <fr_isocyan>  (48) 
0

>  <fr_isothiocyan>  (48) 
0

>  <fr_ketone>  (48) 
0

>  <fr_ketone_Topliss>  (48) 
0

>  <fr_lactam>  (48) 
0

>  <fr_lactone>  (48) 
0

>  <fr_methoxy>  (48) 
0

>  <fr_morpholine>  (48) 
0

>  <fr_nitrile>  (48) 
0

>  <fr_nitro>  (48) 
0

>  <fr_nitro_arom>  (48) 
0

>  <fr_nitro_arom_nonortho>  (48) 
0

>  <fr_nitroso>  (48) 
0

>  <fr_oxazole>  (48) 
0

>  <fr_oxime>  (48) 
0

>  <fr_para_hydroxylation>  (48) 
0

>  <fr_phenol>  (48) 
0

>  <fr_phenol_noOrthoHbond>  (48) 
0

>  <fr_phos_acid>  (48) 
0

>  <fr_phos_ester>  (48) 
0

>  <fr_piperdine>  (48) 
0

>  <fr_piperzine>  (48) 
0

>  <fr_priamide>  (48) 
0

>  <fr_prisulfonamd>  (48) 
0

>  <fr_pyridine>  (48) 
1

>  <fr_quatN>  (48) 
1

>  <fr_sulfide>  (48) 
0

>  <fr_sulfonamd>  (48) 
1

>  <fr_sulfone>  (48) 
0

>  <fr_term_acetylene>  (48) 
0

>  <fr_tetrazole>  (48) 
0

>  <fr_thiazole>  (48) 
0

>  <fr_thiocyan>  (48) 
0

>  <fr_thiophene>  (48) 
0

>  <fr_unbrch_alkane>  (48) 
0

>  <fr_urea>  (48) 
0

>  <NP-Likeness>  (48) 
-0.697796

$$$$
F299
     RDKit          3D

  0  0  0  0  0  0  0  0  0  0999 V3000
M  V30 BEGIN CTAB
M  V30 COUNTS 28 30 0 0 0
M  V30 BEGIN ATOM
M  V30 1 C -2.284106 -0.419278 2.980410 0
M  V30 2 C -2.992548 0.559138 2.293149 0
M  V30 3 C -2.475376 1.042475 1.101385 0
M  V30 4 C -1.277009 0.567607 0.595086 0
M  V30 5 C -0.614752 -0.417539 1.337264 0
M  V30 6 N -1.119165 -0.887309 2.497296 0
M  V30 7 O 0.595128 -1.026594 1.009408 0
M  V30 8 C 1.293802 -1.145630 -0.203222 0 CFG=1
M  V30 9 C 1.513627 -2.670015 -0.299861 0
M  V30 10 N 0.122370 -3.087682 -0.442685 0 CHG=1 VAL=4
M  V30 11 C -0.504522 -2.103756 -1.312196 0
M  V30 12 C 0.506714 -1.014565 -1.450652 0 CFG=1
M  V30 13 N 0.093721 0.233300 -1.910665 0
M  V30 14 S -0.759158 1.272244 -0.910314 0
M  V30 15 O 0.093978 2.466751 -0.574427 0
M  V30 16 O -1.978303 1.785717 -1.623281 0
M  V30 17 H -2.682614 -0.802533 3.914010 0
M  V30 18 H -3.923575 0.963282 2.636689 0
M  V30 19 H -2.970713 1.804719 0.510347 0
M  V30 20 H 2.233953 -0.602002 -0.269868 0
M  V30 21 H 2.048409 -2.869407 -1.225080 0
M  V30 22 H 1.959549 -3.056849 0.627077 0
M  V30 23 H -0.355528 -2.992118 0.488620 0
M  V30 24 H 0.036325 -4.054024 -0.803508 0
M  V30 25 H -1.503060 -1.785913 -0.977824 0
M  V30 26 H -0.685271 -2.642877 -2.287204 0
M  V30 27 H 1.206605 -1.408158 -2.250396 0
M  V30 28 H 0.839418 0.738139 -2.429323 0
M  V30 END ATOM
M  V30 BEGIN BOND
M  V30 1 2 1 2
M  V30 2 1 2 3
M  V30 3 2 3 4
M  V30 4 1 4 5
M  V30 5 2 5 6
M  V30 6 1 5 7
M  V30 7 1 7 8
M  V30 8 1 8 9
M  V30 9 1 9 10
M  V30 10 1 10 11
M  V30 11 1 11 12
M  V30 12 1 12 13
M  V30 13 1 13 14
M  V30 14 2 14 15
M  V30 15 2 14 16
M  V30 16 1 6 1
M  V30 17 1 12 8
M  V30 18 1 14 4
M  V30 19 1 1 17
M  V30 20 1 2 18
M  V30 21 1 3 19
M  V30 22 1 8 20 CFG=3
M  V30 23 1 9 21
M  V30 24 1 9 22
M  V30 25 1 10 23
M  V30 26 1 10 24
M  V30 27 1 11 25
M  V30 28 1 11 26
M  V30 29 1 12 27 CFG=3
M  V30 30 1 13 28
M  V30 END BOND
M  V30 END CTAB
M  END
>  <Dataset>  (49) 
CF

>  <Ligand_Instance>  (49) 
299_B_6

>  <PDB_ID>  (49) 
nan

>  <Standardized_SMILES>  (49) 
[H]C1=C([H])C([H])=C2C(=N1)O[C@@]1([H])C([H])([H])[N+]([H])([H])C([H])([H])[C@@]1([H])N([H])S2(=O)=O

>  <Name>  (49) 
(3S,7R)‐2‐oxa‐9lambda6‐thia‐5,8,14‐triazatricyclo[8.4.0.0]tetradeca‐1(10),11,13‐triene‐9,9‐dione

>  <Pocket>  (49) 
X

>  <ATP_Site>  (49) 
1.0

>  <Peripheral>  (49) 
1.0

>  <Num_H_Atoms_ProtBoundConf>  (49) 
12.0

>  <Num_Resolved_Atoms>  (49) 
16.0

>  <Num_Not_Resolved_Atoms>  (49) 
0.0

>  <2D_Mol_H>  (49) 
<rdkit.Chem.rdchem.Mol object at 0x72a238db5fc0>

>  <MW>  (49) 
242.28

>  <HBA>  (49) 
4

>  <HBD>  (49) 
2

>  <LogP>  (49) 
-1.9335

>  <NRB>  (49) 
0

>  <TPSA>  (49) 
84.9

>  <Num_Heavy_Atoms>  (49) 
16

>  <Ro5>  (49) 
[True, True, True, True, True, True]

>  <Ro5_Fulfilled>  (49) 
True

>  <Ro3>  (49) 
[True, False, True, True]

>  <Ro3_Fulfilled>  (49) 
True

>  <Fsp3>  (49) 
0.444444

>  <Fsp3_0.42>  (49) 
True

>  <Fsp3_0.45>  (49) 
False

>  <Stereogenic_Carbons>  (49) 
2

>  <C_Atoms>  (49) 
9

>  <FCStereo>  (49) 
0.222222

>  <SPS>  (49) 
496

>  <nSPS>  (49) 
31.0

>  <PBF>  (49) 
0.761224

>  <PBF_0.6>  (49) 
True

>  <nPBF>  (49) 
0.047576

>  <nPBF_0.016>  (49) 
True

>  <PMI1>  (49) 
749.445409

>  <PMI2>  (49) 
920.713713

>  <PMI3>  (49) 
1390.592159

>  <NPR1>  (49) 
0.53894

>  <NPR2>  (49) 
0.662102

>  <Sum_NPR>  (49) 
1.201042

>  <Sum_NPR_1.07>  (49) 
True

>  <Sum_NPR_1.2>  (49) 
True

>  <MaxAbsEStateIndex>  (49) 
11.990648

>  <MaxEStateIndex>  (49) 
11.990648

>  <MinAbsEStateIndex>  (49) 
0.129074

>  <MinEStateIndex>  (49) 
-3.490208

>  <qed>  (49) 
0.554481

>  <MolWt>  (49) 
242.28

>  <HeavyAtomMolWt>  (49) 
230.184

>  <ExactMolWt>  (49) 
242.059389

>  <NumValenceElectrons>  (49) 
86

>  <NumRadicalElectrons>  (49) 
0

>  <MaxPartialCharge>  (49) 
0.246039

>  <MinPartialCharge>  (49) 
-0.465396

>  <MaxAbsPartialCharge>  (49) 
0.465396

>  <MinAbsPartialCharge>  (49) 
0.246039

>  <FpDensityMorgan1>  (49) 
1.5

>  <FpDensityMorgan2>  (49) 
2.375

>  <FpDensityMorgan3>  (49) 
3.25

>  <BCUT2D_MWHI>  (49) 
32.233272

>  <BCUT2D_MWLOW>  (49) 
10.217801

>  <BCUT2D_CHGHI>  (49) 
2.402728

>  <BCUT2D_CHGLO>  (49) 
-2.115792

>  <BCUT2D_LOGPHI>  (49) 
2.25189

>  <BCUT2D_LOGPLOW>  (49) 
-2.822574

>  <BCUT2D_MRHI>  (49) 
7.892422

>  <BCUT2D_MRLOW>  (49) 
-0.63829

>  <AvgIpc>  (49) 
2.614998

>  <BalabanJ>  (49) 
2.125498

>  <BertzCT>  (49) 
516.485425

>  <Chi0>  (49) 
11.173362

>  <Chi0n>  (49) 
8.458522

>  <Chi0v>  (49) 
9.275019

>  <Chi1>  (49) 
7.666633

>  <Chi1n>  (49) 
5.123557

>  <Chi1v>  (49) 
6.60672

>  <Chi2n>  (49) 
3.950854

>  <Chi2v>  (49) 
5.633256

>  <Chi3n>  (49) 
2.863646

>  <Chi3v>  (49) 
4.36643

>  <Chi4n>  (49) 
2.085591

>  <Chi4v>  (49) 
3.447557

>  <HallKierAlpha>  (49) 
-1.18

>  <Ipc>  (49) 
7138.945059

>  <Kappa1>  (49) 
10.00489

>  <Kappa2>  (49) 
3.406996

>  <Kappa3>  (49) 
1.477289

>  <LabuteASA>  (49) 
93.073203

>  <PEOE_VSA1>  (49) 
10.053652

>  <PEOE_VSA10>  (49) 
17.482081

>  <PEOE_VSA11>  (49) 
6.103966

>  <PEOE_VSA12>  (49) 
15.903279

>  <PEOE_VSA13>  (49) 
0.0

>  <PEOE_VSA14>  (49) 
0.0

>  <PEOE_VSA2>  (49) 
0.0

>  <PEOE_VSA3>  (49) 
13.401776

>  <PEOE_VSA4>  (49) 
4.722095

>  <PEOE_VSA5>  (49) 
0.0

>  <PEOE_VSA6>  (49) 
0.0

>  <PEOE_VSA7>  (49) 
12.132734

>  <PEOE_VSA8>  (49) 
6.196844

>  <PEOE_VSA9>  (49) 
6.544756

>  <SMR_VSA1>  (49) 
18.471449

>  <SMR_VSA10>  (49) 
10.023291

>  <SMR_VSA2>  (49) 
0.0

>  <SMR_VSA3>  (49) 
9.706073

>  <SMR_VSA4>  (49) 
0.0

>  <SMR_VSA5>  (49) 
17.041291

>  <SMR_VSA6>  (49) 
13.089513

>  <SMR_VSA7>  (49) 
18.329578

>  <SMR_VSA8>  (49) 
0.0

>  <SMR_VSA9>  (49) 
5.879988

>  <SlogP_VSA1>  (49) 
14.775746

>  <SlogP_VSA10>  (49) 
0.0

>  <SlogP_VSA11>  (49) 
5.879988

>  <SlogP_VSA12>  (49) 
0.0

>  <SlogP_VSA2>  (49) 
38.637096

>  <SlogP_VSA3>  (49) 
10.023291

>  <SlogP_VSA4>  (49) 
0.0

>  <SlogP_VSA5>  (49) 
0.0

>  <SlogP_VSA6>  (49) 
23.225061

>  <SlogP_VSA7>  (49) 
0.0

>  <SlogP_VSA8>  (49) 
0.0

>  <SlogP_VSA9>  (49) 
0.0

>  <EState_VSA1>  (49) 
10.023291

>  <EState_VSA10>  (49) 
8.417797

>  <EState_VSA11>  (49) 
0.0

>  <EState_VSA2>  (49) 
22.921279

>  <EState_VSA3>  (49) 
6.544756

>  <EState_VSA4>  (49) 
6.544756

>  <EState_VSA5>  (49) 
12.263211

>  <EState_VSA6>  (49) 
6.066367

>  <EState_VSA7>  (49) 
5.316789

>  <EState_VSA8>  (49) 
9.706073

>  <EState_VSA9>  (49) 
4.736863

>  <VSA_EState1>  (49) 
32.263032

>  <VSA_EState10>  (49) 
0.0

>  <VSA_EState2>  (49) 
4.109097

>  <VSA_EState3>  (49) 
2.033519

>  <VSA_EState4>  (49) 
0.0

>  <VSA_EState5>  (49) 
0.206296

>  <VSA_EState6>  (49) 
2.933857

>  <VSA_EState7>  (49) 
1.401662

>  <VSA_EState8>  (49) 
1.459411

>  <VSA_EState9>  (49) 
-3.490208

>  <FractionCSP3>  (49) 
0.444444

>  <HeavyAtomCount>  (49) 
16

>  <NHOHCount>  (49) 
3

>  <NOCount>  (49) 
6

>  <NumAliphaticCarbocycles>  (49) 
0

>  <NumAliphaticHeterocycles>  (49) 
2

>  <NumAliphaticRings>  (49) 
2

>  <NumAromaticCarbocycles>  (49) 
0

>  <NumAromaticHeterocycles>  (49) 
1

>  <NAR>  (49) 
1

>  <NumHAcceptors>  (49) 
4

>  <NumHDonors>  (49) 
2

>  <NumHeteroatoms>  (49) 
7

>  <NumRotatableBonds>  (49) 
0

>  <NumSaturatedCarbocycles>  (49) 
0

>  <NumSaturatedHeterocycles>  (49) 
1

>  <NumSaturatedRings>  (49) 
1

>  <RingCount>  (49) 
3

>  <MolLogP>  (49) 
-1.9335

>  <MolMR>  (49) 
54.4219

>  <fr_Al_COO>  (49) 
0

>  <fr_Al_OH>  (49) 
0

>  <fr_Al_OH_noTert>  (49) 
0

>  <fr_ArN>  (49) 
0

>  <fr_Ar_COO>  (49) 
0

>  <fr_Ar_N>  (49) 
1

>  <fr_Ar_NH>  (49) 
0

>  <fr_Ar_OH>  (49) 
0

>  <fr_COO>  (49) 
0

>  <fr_COO2>  (49) 
0

>  <fr_C_O>  (49) 
0

>  <fr_C_O_noCOO>  (49) 
0

>  <fr_C_S>  (49) 
0

>  <fr_HOCCN>  (49) 
0

>  <fr_Imine>  (49) 
0

>  <fr_NH0>  (49) 
1

>  <fr_NH1>  (49) 
1

>  <fr_NH2>  (49) 
1

>  <fr_N_O>  (49) 
0

>  <fr_Ndealkylation1>  (49) 
0

>  <fr_Ndealkylation2>  (49) 
0

>  <fr_Nhpyrrole>  (49) 
0

>  <fr_SH>  (49) 
0

>  <fr_aldehyde>  (49) 
0

>  <fr_alkyl_carbamate>  (49) 
0

>  <fr_alkyl_halide>  (49) 
0

>  <fr_allylic_oxid>  (49) 
0

>  <fr_amide>  (49) 
0

>  <fr_amidine>  (49) 
0

>  <fr_aniline>  (49) 
0

>  <fr_aryl_methyl>  (49) 
0

>  <fr_azide>  (49) 
0

>  <fr_azo>  (49) 
0

>  <fr_barbitur>  (49) 
0

>  <fr_benzene>  (49) 
0

>  <fr_benzodiazepine>  (49) 
0

>  <fr_bicyclic>  (49) 
2

>  <fr_diazo>  (49) 
0

>  <fr_dihydropyridine>  (49) 
0

>  <fr_epoxide>  (49) 
0

>  <fr_ester>  (49) 
0

>  <fr_ether>  (49) 
1

>  <fr_furan>  (49) 
0

>  <fr_guanido>  (49) 
0

>  <fr_halogen>  (49) 
0

>  <fr_hdrzine>  (49) 
0

>  <fr_hdrzone>  (49) 
0

>  <fr_imidazole>  (49) 
0

>  <fr_imide>  (49) 
0

>  <fr_isocyan>  (49) 
0

>  <fr_isothiocyan>  (49) 
0

>  <fr_ketone>  (49) 
0

>  <fr_ketone_Topliss>  (49) 
0

>  <fr_lactam>  (49) 
0

>  <fr_lactone>  (49) 
0

>  <fr_methoxy>  (49) 
0

>  <fr_morpholine>  (49) 
0

>  <fr_nitrile>  (49) 
0

>  <fr_nitro>  (49) 
0

>  <fr_nitro_arom>  (49) 
0

>  <fr_nitro_arom_nonortho>  (49) 
0

>  <fr_nitroso>  (49) 
0

>  <fr_oxazole>  (49) 
0

>  <fr_oxime>  (49) 
0

>  <fr_para_hydroxylation>  (49) 
0

>  <fr_phenol>  (49) 
0

>  <fr_phenol_noOrthoHbond>  (49) 
0

>  <fr_phos_acid>  (49) 
0

>  <fr_phos_ester>  (49) 
0

>  <fr_piperdine>  (49) 
0

>  <fr_piperzine>  (49) 
0

>  <fr_priamide>  (49) 
0

>  <fr_prisulfonamd>  (49) 
0

>  <fr_pyridine>  (49) 
1

>  <fr_quatN>  (49) 
1

>  <fr_sulfide>  (49) 
0

>  <fr_sulfonamd>  (49) 
1

>  <fr_sulfone>  (49) 
0

>  <fr_term_acetylene>  (49) 
0

>  <fr_tetrazole>  (49) 
0

>  <fr_thiazole>  (49) 
0

>  <fr_thiocyan>  (49) 
0

>  <fr_thiophene>  (49) 
0

>  <fr_unbrch_alkane>  (49) 
0

>  <fr_urea>  (49) 
0

>  <NP-Likeness>  (49) 
-0.697796

$$$$
F299
     RDKit          3D

  0  0  0  0  0  0  0  0  0  0999 V3000
M  V30 BEGIN CTAB
M  V30 COUNTS 28 30 0 0 0
M  V30 BEGIN ATOM
M  V30 1 C -2.284106 -0.419278 2.980410 0
M  V30 2 C -2.992548 0.559138 2.293149 0
M  V30 3 C -2.475376 1.042475 1.101385 0
M  V30 4 C -1.277009 0.567607 0.595086 0
M  V30 5 C -0.614752 -0.417539 1.337264 0
M  V30 6 N -1.119165 -0.887309 2.497296 0
M  V30 7 O 0.595128 -1.026594 1.009408 0
M  V30 8 C 1.293802 -1.145630 -0.203222 0 CFG=1
M  V30 9 C 1.513627 -2.670015 -0.299861 0
M  V30 10 N 0.122370 -3.087682 -0.442685 0 CHG=1 VAL=4
M  V30 11 C -0.504522 -2.103756 -1.312196 0
M  V30 12 C 0.506714 -1.014565 -1.450652 0 CFG=1
M  V30 13 N 0.093721 0.233300 -1.910665 0
M  V30 14 S -0.759158 1.272244 -0.910314 0
M  V30 15 O 0.093978 2.466751 -0.574427 0
M  V30 16 O -1.978303 1.785717 -1.623281 0
M  V30 17 H -2.682614 -0.802533 3.914010 0
M  V30 18 H -3.923575 0.963282 2.636689 0
M  V30 19 H -2.970713 1.804719 0.510347 0
M  V30 20 H 2.233953 -0.602002 -0.269868 0
M  V30 21 H 2.048409 -2.869407 -1.225080 0
M  V30 22 H 1.959549 -3.056849 0.627077 0
M  V30 23 H -0.355528 -2.992118 0.488620 0
M  V30 24 H 0.036325 -4.054024 -0.803508 0
M  V30 25 H -1.503060 -1.785913 -0.977824 0
M  V30 26 H -0.685271 -2.642877 -2.287204 0
M  V30 27 H 1.206605 -1.408158 -2.250396 0
M  V30 28 H 0.839418 0.738139 -2.429323 0
M  V30 END ATOM
M  V30 BEGIN BOND
M  V30 1 2 1 2
M  V30 2 1 2 3
M  V30 3 2 3 4
M  V30 4 1 4 5
M  V30 5 2 5 6
M  V30 6 1 5 7
M  V30 7 1 7 8
M  V30 8 1 8 9
M  V30 9 1 9 10
M  V30 10 1 10 11
M  V30 11 1 11 12
M  V30 12 1 12 13
M  V30 13 1 13 14
M  V30 14 2 14 15
M  V30 15 2 14 16
M  V30 16 1 6 1
M  V30 17 1 12 8
M  V30 18 1 14 4
M  V30 19 1 1 17
M  V30 20 1 2 18
M  V30 21 1 3 19
M  V30 22 1 8 20 CFG=3
M  V30 23 1 9 21
M  V30 24 1 9 22
M  V30 25 1 10 23
M  V30 26 1 10 24
M  V30 27 1 11 25
M  V30 28 1 11 26
M  V30 29 1 12 27 CFG=3
M  V30 30 1 13 28
M  V30 END BOND
M  V30 END CTAB
M  END
>  <Dataset>  (50) 
CF

>  <Ligand_Instance>  (50) 
299_B_7

>  <PDB_ID>  (50) 
nan

>  <Standardized_SMILES>  (50) 
[H]C1=C([H])C([H])=C2C(=N1)O[C@@]1([H])C([H])([H])[N+]([H])([H])C([H])([H])[C@@]1([H])N([H])S2(=O)=O

>  <Name>  (50) 
(3S,7R)‐2‐oxa‐9lambda6‐thia‐5,8,14‐triazatricyclo[8.4.0.0]tetradeca‐1(10),11,13‐triene‐9,9‐dione

>  <Pocket>  (50) 
A

>  <ATP_Site>  (50) 
1.0

>  <Peripheral>  (50) 
1.0

>  <Num_H_Atoms_ProtBoundConf>  (50) 
12.0

>  <Num_Resolved_Atoms>  (50) 
16.0

>  <Num_Not_Resolved_Atoms>  (50) 
0.0

>  <2D_Mol_H>  (50) 
<rdkit.Chem.rdchem.Mol object at 0x72a238db60a0>

>  <MW>  (50) 
242.28

>  <HBA>  (50) 
4

>  <HBD>  (50) 
2

>  <LogP>  (50) 
-1.9335

>  <NRB>  (50) 
0

>  <TPSA>  (50) 
84.9

>  <Num_Heavy_Atoms>  (50) 
16

>  <Ro5>  (50) 
[True, True, True, True, True, True]

>  <Ro5_Fulfilled>  (50) 
True

>  <Ro3>  (50) 
[True, False, True, True]

>  <Ro3_Fulfilled>  (50) 
True

>  <Fsp3>  (50) 
0.444444

>  <Fsp3_0.42>  (50) 
True

>  <Fsp3_0.45>  (50) 
False

>  <Stereogenic_Carbons>  (50) 
2

>  <C_Atoms>  (50) 
9

>  <FCStereo>  (50) 
0.222222

>  <SPS>  (50) 
496

>  <nSPS>  (50) 
31.0

>  <PBF>  (50) 
0.761224

>  <PBF_0.6>  (50) 
True

>  <nPBF>  (50) 
0.047576

>  <nPBF_0.016>  (50) 
True

>  <PMI1>  (50) 
749.445409

>  <PMI2>  (50) 
920.713713

>  <PMI3>  (50) 
1390.592159

>  <NPR1>  (50) 
0.53894

>  <NPR2>  (50) 
0.662102

>  <Sum_NPR>  (50) 
1.201042

>  <Sum_NPR_1.07>  (50) 
True

>  <Sum_NPR_1.2>  (50) 
True

>  <MaxAbsEStateIndex>  (50) 
11.990648

>  <MaxEStateIndex>  (50) 
11.990648

>  <MinAbsEStateIndex>  (50) 
0.129074

>  <MinEStateIndex>  (50) 
-3.490208

>  <qed>  (50) 
0.554481

>  <MolWt>  (50) 
242.28

>  <HeavyAtomMolWt>  (50) 
230.184

>  <ExactMolWt>  (50) 
242.059389

>  <NumValenceElectrons>  (50) 
86

>  <NumRadicalElectrons>  (50) 
0

>  <MaxPartialCharge>  (50) 
0.246039

>  <MinPartialCharge>  (50) 
-0.465396

>  <MaxAbsPartialCharge>  (50) 
0.465396

>  <MinAbsPartialCharge>  (50) 
0.246039

>  <FpDensityMorgan1>  (50) 
1.5

>  <FpDensityMorgan2>  (50) 
2.375

>  <FpDensityMorgan3>  (50) 
3.25

>  <BCUT2D_MWHI>  (50) 
32.233272

>  <BCUT2D_MWLOW>  (50) 
10.217801

>  <BCUT2D_CHGHI>  (50) 
2.402728

>  <BCUT2D_CHGLO>  (50) 
-2.115792

>  <BCUT2D_LOGPHI>  (50) 
2.25189

>  <BCUT2D_LOGPLOW>  (50) 
-2.822574

>  <BCUT2D_MRHI>  (50) 
7.892422

>  <BCUT2D_MRLOW>  (50) 
-0.63829

>  <AvgIpc>  (50) 
2.614998

>  <BalabanJ>  (50) 
2.125498

>  <BertzCT>  (50) 
516.485425

>  <Chi0>  (50) 
11.173362

>  <Chi0n>  (50) 
8.458522

>  <Chi0v>  (50) 
9.275019

>  <Chi1>  (50) 
7.666633

>  <Chi1n>  (50) 
5.123557

>  <Chi1v>  (50) 
6.60672

>  <Chi2n>  (50) 
3.950854

>  <Chi2v>  (50) 
5.633256

>  <Chi3n>  (50) 
2.863646

>  <Chi3v>  (50) 
4.36643

>  <Chi4n>  (50) 
2.085591

>  <Chi4v>  (50) 
3.447557

>  <HallKierAlpha>  (50) 
-1.18

>  <Ipc>  (50) 
7138.945059

>  <Kappa1>  (50) 
10.00489

>  <Kappa2>  (50) 
3.406996

>  <Kappa3>  (50) 
1.477289

>  <LabuteASA>  (50) 
93.073203

>  <PEOE_VSA1>  (50) 
10.053652

>  <PEOE_VSA10>  (50) 
17.482081

>  <PEOE_VSA11>  (50) 
6.103966

>  <PEOE_VSA12>  (50) 
15.903279

>  <PEOE_VSA13>  (50) 
0.0

>  <PEOE_VSA14>  (50) 
0.0

>  <PEOE_VSA2>  (50) 
0.0

>  <PEOE_VSA3>  (50) 
13.401776

>  <PEOE_VSA4>  (50) 
4.722095

>  <PEOE_VSA5>  (50) 
0.0

>  <PEOE_VSA6>  (50) 
0.0

>  <PEOE_VSA7>  (50) 
12.132734

>  <PEOE_VSA8>  (50) 
6.196844

>  <PEOE_VSA9>  (50) 
6.544756

>  <SMR_VSA1>  (50) 
18.471449

>  <SMR_VSA10>  (50) 
10.023291

>  <SMR_VSA2>  (50) 
0.0

>  <SMR_VSA3>  (50) 
9.706073

>  <SMR_VSA4>  (50) 
0.0

>  <SMR_VSA5>  (50) 
17.041291

>  <SMR_VSA6>  (50) 
13.089513

>  <SMR_VSA7>  (50) 
18.329578

>  <SMR_VSA8>  (50) 
0.0

>  <SMR_VSA9>  (50) 
5.879988

>  <SlogP_VSA1>  (50) 
14.775746

>  <SlogP_VSA10>  (50) 
0.0

>  <SlogP_VSA11>  (50) 
5.879988

>  <SlogP_VSA12>  (50) 
0.0

>  <SlogP_VSA2>  (50) 
38.637096

>  <SlogP_VSA3>  (50) 
10.023291

>  <SlogP_VSA4>  (50) 
0.0

>  <SlogP_VSA5>  (50) 
0.0

>  <SlogP_VSA6>  (50) 
23.225061

>  <SlogP_VSA7>  (50) 
0.0

>  <SlogP_VSA8>  (50) 
0.0

>  <SlogP_VSA9>  (50) 
0.0

>  <EState_VSA1>  (50) 
10.023291

>  <EState_VSA10>  (50) 
8.417797

>  <EState_VSA11>  (50) 
0.0

>  <EState_VSA2>  (50) 
22.921279

>  <EState_VSA3>  (50) 
6.544756

>  <EState_VSA4>  (50) 
6.544756

>  <EState_VSA5>  (50) 
12.263211

>  <EState_VSA6>  (50) 
6.066367

>  <EState_VSA7>  (50) 
5.316789

>  <EState_VSA8>  (50) 
9.706073

>  <EState_VSA9>  (50) 
4.736863

>  <VSA_EState1>  (50) 
32.263032

>  <VSA_EState10>  (50) 
0.0

>  <VSA_EState2>  (50) 
4.109097

>  <VSA_EState3>  (50) 
2.033519

>  <VSA_EState4>  (50) 
0.0

>  <VSA_EState5>  (50) 
0.206296

>  <VSA_EState6>  (50) 
2.933857

>  <VSA_EState7>  (50) 
1.401662

>  <VSA_EState8>  (50) 
1.459411

>  <VSA_EState9>  (50) 
-3.490208

>  <FractionCSP3>  (50) 
0.444444

>  <HeavyAtomCount>  (50) 
16

>  <NHOHCount>  (50) 
3

>  <NOCount>  (50) 
6

>  <NumAliphaticCarbocycles>  (50) 
0

>  <NumAliphaticHeterocycles>  (50) 
2

>  <NumAliphaticRings>  (50) 
2

>  <NumAromaticCarbocycles>  (50) 
0

>  <NumAromaticHeterocycles>  (50) 
1

>  <NAR>  (50) 
1

>  <NumHAcceptors>  (50) 
4

>  <NumHDonors>  (50) 
2

>  <NumHeteroatoms>  (50) 
7

>  <NumRotatableBonds>  (50) 
0

>  <NumSaturatedCarbocycles>  (50) 
0

>  <NumSaturatedHeterocycles>  (50) 
1

>  <NumSaturatedRings>  (50) 
1

>  <RingCount>  (50) 
3

>  <MolLogP>  (50) 
-1.9335

>  <MolMR>  (50) 
54.4219

>  <fr_Al_COO>  (50) 
0

>  <fr_Al_OH>  (50) 
0

>  <fr_Al_OH_noTert>  (50) 
0

>  <fr_ArN>  (50) 
0

>  <fr_Ar_COO>  (50) 
0

>  <fr_Ar_N>  (50) 
1

>  <fr_Ar_NH>  (50) 
0

>  <fr_Ar_OH>  (50) 
0

>  <fr_COO>  (50) 
0

>  <fr_COO2>  (50) 
0

>  <fr_C_O>  (50) 
0

>  <fr_C_O_noCOO>  (50) 
0

>  <fr_C_S>  (50) 
0

>  <fr_HOCCN>  (50) 
0

>  <fr_Imine>  (50) 
0

>  <fr_NH0>  (50) 
1

>  <fr_NH1>  (50) 
1

>  <fr_NH2>  (50) 
1

>  <fr_N_O>  (50) 
0

>  <fr_Ndealkylation1>  (50) 
0

>  <fr_Ndealkylation2>  (50) 
0

>  <fr_Nhpyrrole>  (50) 
0

>  <fr_SH>  (50) 
0

>  <fr_aldehyde>  (50) 
0

>  <fr_alkyl_carbamate>  (50) 
0

>  <fr_alkyl_halide>  (50) 
0

>  <fr_allylic_oxid>  (50) 
0

>  <fr_amide>  (50) 
0

>  <fr_amidine>  (50) 
0

>  <fr_aniline>  (50) 
0

>  <fr_aryl_methyl>  (50) 
0

>  <fr_azide>  (50) 
0

>  <fr_azo>  (50) 
0

>  <fr_barbitur>  (50) 
0

>  <fr_benzene>  (50) 
0

>  <fr_benzodiazepine>  (50) 
0

>  <fr_bicyclic>  (50) 
2

>  <fr_diazo>  (50) 
0

>  <fr_dihydropyridine>  (50) 
0

>  <fr_epoxide>  (50) 
0

>  <fr_ester>  (50) 
0

>  <fr_ether>  (50) 
1

>  <fr_furan>  (50) 
0

>  <fr_guanido>  (50) 
0

>  <fr_halogen>  (50) 
0

>  <fr_hdrzine>  (50) 
0

>  <fr_hdrzone>  (50) 
0

>  <fr_imidazole>  (50) 
0

>  <fr_imide>  (50) 
0

>  <fr_isocyan>  (50) 
0

>  <fr_isothiocyan>  (50) 
0

>  <fr_ketone>  (50) 
0

>  <fr_ketone_Topliss>  (50) 
0

>  <fr_lactam>  (50) 
0

>  <fr_lactone>  (50) 
0

>  <fr_methoxy>  (50) 
0

>  <fr_morpholine>  (50) 
0

>  <fr_nitrile>  (50) 
0

>  <fr_nitro>  (50) 
0

>  <fr_nitro_arom>  (50) 
0

>  <fr_nitro_arom_nonortho>  (50) 
0

>  <fr_nitroso>  (50) 
0

>  <fr_oxazole>  (50) 
0

>  <fr_oxime>  (50) 
0

>  <fr_para_hydroxylation>  (50) 
0

>  <fr_phenol>  (50) 
0

>  <fr_phenol_noOrthoHbond>  (50) 
0

>  <fr_phos_acid>  (50) 
0

>  <fr_phos_ester>  (50) 
0

>  <fr_piperdine>  (50) 
0

>  <fr_piperzine>  (50) 
0

>  <fr_priamide>  (50) 
0

>  <fr_prisulfonamd>  (50) 
0

>  <fr_pyridine>  (50) 
1

>  <fr_quatN>  (50) 
1

>  <fr_sulfide>  (50) 
0

>  <fr_sulfonamd>  (50) 
1

>  <fr_sulfone>  (50) 
0

>  <fr_term_acetylene>  (50) 
0

>  <fr_tetrazole>  (50) 
0

>  <fr_thiazole>  (50) 
0

>  <fr_thiocyan>  (50) 
0

>  <fr_thiophene>  (50) 
0

>  <fr_unbrch_alkane>  (50) 
0

>  <fr_urea>  (50) 
0

>  <NP-Likeness>  (50) 
-0.697796

$$$$
F299
     RDKit          3D

  0  0  0  0  0  0  0  0  0  0999 V3000
M  V30 BEGIN CTAB
M  V30 COUNTS 28 30 0 0 0
M  V30 BEGIN ATOM
M  V30 1 C -2.284106 -0.419278 2.980410 0
M  V30 2 C -2.992548 0.559138 2.293149 0
M  V30 3 C -2.475376 1.042475 1.101385 0
M  V30 4 C -1.277009 0.567607 0.595086 0
M  V30 5 C -0.614752 -0.417539 1.337264 0
M  V30 6 N -1.119165 -0.887309 2.497296 0
M  V30 7 O 0.595128 -1.026594 1.009408 0
M  V30 8 C 1.293802 -1.145630 -0.203222 0 CFG=1
M  V30 9 C 1.513627 -2.670015 -0.299861 0
M  V30 10 N 0.122370 -3.087682 -0.442685 0 CHG=1 VAL=4
M  V30 11 C -0.504522 -2.103756 -1.312196 0
M  V30 12 C 0.506714 -1.014565 -1.450652 0 CFG=1
M  V30 13 N 0.093721 0.233300 -1.910665 0
M  V30 14 S -0.759158 1.272244 -0.910314 0
M  V30 15 O 0.093978 2.466751 -0.574427 0
M  V30 16 O -1.978303 1.785717 -1.623281 0
M  V30 17 H -2.682614 -0.802533 3.914010 0
M  V30 18 H -3.923575 0.963282 2.636689 0
M  V30 19 H -2.970713 1.804719 0.510347 0
M  V30 20 H 2.233953 -0.602002 -0.269868 0
M  V30 21 H 2.048409 -2.869407 -1.225080 0
M  V30 22 H 1.959549 -3.056849 0.627077 0
M  V30 23 H -0.355528 -2.992118 0.488620 0
M  V30 24 H 0.036325 -4.054024 -0.803508 0
M  V30 25 H -1.503060 -1.785913 -0.977824 0
M  V30 26 H -0.685271 -2.642877 -2.287204 0
M  V30 27 H 1.206605 -1.408158 -2.250396 0
M  V30 28 H 0.839418 0.738139 -2.429323 0
M  V30 END ATOM
M  V30 BEGIN BOND
M  V30 1 2 1 2
M  V30 2 1 2 3
M  V30 3 2 3 4
M  V30 4 1 4 5
M  V30 5 2 5 6
M  V30 6 1 5 7
M  V30 7 1 7 8
M  V30 8 1 8 9
M  V30 9 1 9 10
M  V30 10 1 10 11
M  V30 11 1 11 12
M  V30 12 1 12 13
M  V30 13 1 13 14
M  V30 14 2 14 15
M  V30 15 2 14 16
M  V30 16 1 6 1
M  V30 17 1 12 8
M  V30 18 1 14 4
M  V30 19 1 1 17
M  V30 20 1 2 18
M  V30 21 1 3 19
M  V30 22 1 8 20 CFG=3
M  V30 23 1 9 21
M  V30 24 1 9 22
M  V30 25 1 10 23
M  V30 26 1 10 24
M  V30 27 1 11 25
M  V30 28 1 11 26
M  V30 29 1 12 27 CFG=3
M  V30 30 1 13 28
M  V30 END BOND
M  V30 END CTAB
M  END
>  <Dataset>  (51) 
CF

>  <Ligand_Instance>  (51) 
299_B_8

>  <PDB_ID>  (51) 
nan

>  <Standardized_SMILES>  (51) 
[H]C1=C([H])C([H])=C2C(=N1)O[C@@]1([H])C([H])([H])[N+]([H])([H])C([H])([H])[C@@]1([H])N([H])S2(=O)=O

>  <Name>  (51) 
(3S,7R)‐2‐oxa‐9lambda6‐thia‐5,8,14‐triazatricyclo[8.4.0.0]tetradeca‐1(10),11,13‐triene‐9,9‐dione

>  <Pocket>  (51) 
X

>  <ATP_Site>  (51) 
1.0

>  <Peripheral>  (51) 
1.0

>  <Num_H_Atoms_ProtBoundConf>  (51) 
12.0

>  <Num_Resolved_Atoms>  (51) 
16.0

>  <Num_Not_Resolved_Atoms>  (51) 
0.0

>  <2D_Mol_H>  (51) 
<rdkit.Chem.rdchem.Mol object at 0x72a238db6180>

>  <MW>  (51) 
242.28

>  <HBA>  (51) 
4

>  <HBD>  (51) 
2

>  <LogP>  (51) 
-1.9335

>  <NRB>  (51) 
0

>  <TPSA>  (51) 
84.9

>  <Num_Heavy_Atoms>  (51) 
16

>  <Ro5>  (51) 
[True, True, True, True, True, True]

>  <Ro5_Fulfilled>  (51) 
True

>  <Ro3>  (51) 
[True, False, True, True]

>  <Ro3_Fulfilled>  (51) 
True

>  <Fsp3>  (51) 
0.444444

>  <Fsp3_0.42>  (51) 
True

>  <Fsp3_0.45>  (51) 
False

>  <Stereogenic_Carbons>  (51) 
2

>  <C_Atoms>  (51) 
9

>  <FCStereo>  (51) 
0.222222

>  <SPS>  (51) 
496

>  <nSPS>  (51) 
31.0

>  <PBF>  (51) 
0.761224

>  <PBF_0.6>  (51) 
True

>  <nPBF>  (51) 
0.047576

>  <nPBF_0.016>  (51) 
True

>  <PMI1>  (51) 
749.445409

>  <PMI2>  (51) 
920.713713

>  <PMI3>  (51) 
1390.592159

>  <NPR1>  (51) 
0.53894

>  <NPR2>  (51) 
0.662102

>  <Sum_NPR>  (51) 
1.201042

>  <Sum_NPR_1.07>  (51) 
True

>  <Sum_NPR_1.2>  (51) 
True

>  <MaxAbsEStateIndex>  (51) 
11.990648

>  <MaxEStateIndex>  (51) 
11.990648

>  <MinAbsEStateIndex>  (51) 
0.129074

>  <MinEStateIndex>  (51) 
-3.490208

>  <qed>  (51) 
0.554481

>  <MolWt>  (51) 
242.28

>  <HeavyAtomMolWt>  (51) 
230.184

>  <ExactMolWt>  (51) 
242.059389

>  <NumValenceElectrons>  (51) 
86

>  <NumRadicalElectrons>  (51) 
0

>  <MaxPartialCharge>  (51) 
0.246039

>  <MinPartialCharge>  (51) 
-0.465396

>  <MaxAbsPartialCharge>  (51) 
0.465396

>  <MinAbsPartialCharge>  (51) 
0.246039

>  <FpDensityMorgan1>  (51) 
1.5

>  <FpDensityMorgan2>  (51) 
2.375

>  <FpDensityMorgan3>  (51) 
3.25

>  <BCUT2D_MWHI>  (51) 
32.233272

>  <BCUT2D_MWLOW>  (51) 
10.217801

>  <BCUT2D_CHGHI>  (51) 
2.402728

>  <BCUT2D_CHGLO>  (51) 
-2.115792

>  <BCUT2D_LOGPHI>  (51) 
2.25189

>  <BCUT2D_LOGPLOW>  (51) 
-2.822574

>  <BCUT2D_MRHI>  (51) 
7.892422

>  <BCUT2D_MRLOW>  (51) 
-0.63829

>  <AvgIpc>  (51) 
2.614998

>  <BalabanJ>  (51) 
2.125498

>  <BertzCT>  (51) 
516.485425

>  <Chi0>  (51) 
11.173362

>  <Chi0n>  (51) 
8.458522

>  <Chi0v>  (51) 
9.275019

>  <Chi1>  (51) 
7.666633

>  <Chi1n>  (51) 
5.123557

>  <Chi1v>  (51) 
6.60672

>  <Chi2n>  (51) 
3.950854

>  <Chi2v>  (51) 
5.633256

>  <Chi3n>  (51) 
2.863646

>  <Chi3v>  (51) 
4.36643

>  <Chi4n>  (51) 
2.085591

>  <Chi4v>  (51) 
3.447557

>  <HallKierAlpha>  (51) 
-1.18

>  <Ipc>  (51) 
7138.945059

>  <Kappa1>  (51) 
10.00489

>  <Kappa2>  (51) 
3.406996

>  <Kappa3>  (51) 
1.477289

>  <LabuteASA>  (51) 
93.073203

>  <PEOE_VSA1>  (51) 
10.053652

>  <PEOE_VSA10>  (51) 
17.482081

>  <PEOE_VSA11>  (51) 
6.103966

>  <PEOE_VSA12>  (51) 
15.903279

>  <PEOE_VSA13>  (51) 
0.0

>  <PEOE_VSA14>  (51) 
0.0

>  <PEOE_VSA2>  (51) 
0.0

>  <PEOE_VSA3>  (51) 
13.401776

>  <PEOE_VSA4>  (51) 
4.722095

>  <PEOE_VSA5>  (51) 
0.0

>  <PEOE_VSA6>  (51) 
0.0

>  <PEOE_VSA7>  (51) 
12.132734

>  <PEOE_VSA8>  (51) 
6.196844

>  <PEOE_VSA9>  (51) 
6.544756

>  <SMR_VSA1>  (51) 
18.471449

>  <SMR_VSA10>  (51) 
10.023291

>  <SMR_VSA2>  (51) 
0.0

>  <SMR_VSA3>  (51) 
9.706073

>  <SMR_VSA4>  (51) 
0.0

>  <SMR_VSA5>  (51) 
17.041291

>  <SMR_VSA6>  (51) 
13.089513

>  <SMR_VSA7>  (51) 
18.329578

>  <SMR_VSA8>  (51) 
0.0

>  <SMR_VSA9>  (51) 
5.879988

>  <SlogP_VSA1>  (51) 
14.775746

>  <SlogP_VSA10>  (51) 
0.0

>  <SlogP_VSA11>  (51) 
5.879988

>  <SlogP_VSA12>  (51) 
0.0

>  <SlogP_VSA2>  (51) 
38.637096

>  <SlogP_VSA3>  (51) 
10.023291

>  <SlogP_VSA4>  (51) 
0.0

>  <SlogP_VSA5>  (51) 
0.0

>  <SlogP_VSA6>  (51) 
23.225061

>  <SlogP_VSA7>  (51) 
0.0

>  <SlogP_VSA8>  (51) 
0.0

>  <SlogP_VSA9>  (51) 
0.0

>  <EState_VSA1>  (51) 
10.023291

>  <EState_VSA10>  (51) 
8.417797

>  <EState_VSA11>  (51) 
0.0

>  <EState_VSA2>  (51) 
22.921279

>  <EState_VSA3>  (51) 
6.544756

>  <EState_VSA4>  (51) 
6.544756

>  <EState_VSA5>  (51) 
12.263211

>  <EState_VSA6>  (51) 
6.066367

>  <EState_VSA7>  (51) 
5.316789

>  <EState_VSA8>  (51) 
9.706073

>  <EState_VSA9>  (51) 
4.736863

>  <VSA_EState1>  (51) 
32.263032

>  <VSA_EState10>  (51) 
0.0

>  <VSA_EState2>  (51) 
4.109097

>  <VSA_EState3>  (51) 
2.033519

>  <VSA_EState4>  (51) 
0.0

>  <VSA_EState5>  (51) 
0.206296

>  <VSA_EState6>  (51) 
2.933857

>  <VSA_EState7>  (51) 
1.401662

>  <VSA_EState8>  (51) 
1.459411

>  <VSA_EState9>  (51) 
-3.490208

>  <FractionCSP3>  (51) 
0.444444

>  <HeavyAtomCount>  (51) 
16

>  <NHOHCount>  (51) 
3

>  <NOCount>  (51) 
6

>  <NumAliphaticCarbocycles>  (51) 
0

>  <NumAliphaticHeterocycles>  (51) 
2

>  <NumAliphaticRings>  (51) 
2

>  <NumAromaticCarbocycles>  (51) 
0

>  <NumAromaticHeterocycles>  (51) 
1

>  <NAR>  (51) 
1

>  <NumHAcceptors>  (51) 
4

>  <NumHDonors>  (51) 
2

>  <NumHeteroatoms>  (51) 
7

>  <NumRotatableBonds>  (51) 
0

>  <NumSaturatedCarbocycles>  (51) 
0

>  <NumSaturatedHeterocycles>  (51) 
1

>  <NumSaturatedRings>  (51) 
1

>  <RingCount>  (51) 
3

>  <MolLogP>  (51) 
-1.9335

>  <MolMR>  (51) 
54.4219

>  <fr_Al_COO>  (51) 
0

>  <fr_Al_OH>  (51) 
0

>  <fr_Al_OH_noTert>  (51) 
0

>  <fr_ArN>  (51) 
0

>  <fr_Ar_COO>  (51) 
0

>  <fr_Ar_N>  (51) 
1

>  <fr_Ar_NH>  (51) 
0

>  <fr_Ar_OH>  (51) 
0

>  <fr_COO>  (51) 
0

>  <fr_COO2>  (51) 
0

>  <fr_C_O>  (51) 
0

>  <fr_C_O_noCOO>  (51) 
0

>  <fr_C_S>  (51) 
0

>  <fr_HOCCN>  (51) 
0

>  <fr_Imine>  (51) 
0

>  <fr_NH0>  (51) 
1

>  <fr_NH1>  (51) 
1

>  <fr_NH2>  (51) 
1

>  <fr_N_O>  (51) 
0

>  <fr_Ndealkylation1>  (51) 
0

>  <fr_Ndealkylation2>  (51) 
0

>  <fr_Nhpyrrole>  (51) 
0

>  <fr_SH>  (51) 
0

>  <fr_aldehyde>  (51) 
0

>  <fr_alkyl_carbamate>  (51) 
0

>  <fr_alkyl_halide>  (51) 
0

>  <fr_allylic_oxid>  (51) 
0

>  <fr_amide>  (51) 
0

>  <fr_amidine>  (51) 
0

>  <fr_aniline>  (51) 
0

>  <fr_aryl_methyl>  (51) 
0

>  <fr_azide>  (51) 
0

>  <fr_azo>  (51) 
0

>  <fr_barbitur>  (51) 
0

>  <fr_benzene>  (51) 
0

>  <fr_benzodiazepine>  (51) 
0

>  <fr_bicyclic>  (51) 
2

>  <fr_diazo>  (51) 
0

>  <fr_dihydropyridine>  (51) 
0

>  <fr_epoxide>  (51) 
0

>  <fr_ester>  (51) 
0

>  <fr_ether>  (51) 
1

>  <fr_furan>  (51) 
0

>  <fr_guanido>  (51) 
0

>  <fr_halogen>  (51) 
0

>  <fr_hdrzine>  (51) 
0

>  <fr_hdrzone>  (51) 
0

>  <fr_imidazole>  (51) 
0

>  <fr_imide>  (51) 
0

>  <fr_isocyan>  (51) 
0

>  <fr_isothiocyan>  (51) 
0

>  <fr_ketone>  (51) 
0

>  <fr_ketone_Topliss>  (51) 
0

>  <fr_lactam>  (51) 
0

>  <fr_lactone>  (51) 
0

>  <fr_methoxy>  (51) 
0

>  <fr_morpholine>  (51) 
0

>  <fr_nitrile>  (51) 
0

>  <fr_nitro>  (51) 
0

>  <fr_nitro_arom>  (51) 
0

>  <fr_nitro_arom_nonortho>  (51) 
0

>  <fr_nitroso>  (51) 
0

>  <fr_oxazole>  (51) 
0

>  <fr_oxime>  (51) 
0

>  <fr_para_hydroxylation>  (51) 
0

>  <fr_phenol>  (51) 
0

>  <fr_phenol_noOrthoHbond>  (51) 
0

>  <fr_phos_acid>  (51) 
0

>  <fr_phos_ester>  (51) 
0

>  <fr_piperdine>  (51) 
0

>  <fr_piperzine>  (51) 
0

>  <fr_priamide>  (51) 
0

>  <fr_prisulfonamd>  (51) 
0

>  <fr_pyridine>  (51) 
1

>  <fr_quatN>  (51) 
1

>  <fr_sulfide>  (51) 
0

>  <fr_sulfonamd>  (51) 
1

>  <fr_sulfone>  (51) 
0

>  <fr_term_acetylene>  (51) 
0

>  <fr_tetrazole>  (51) 
0

>  <fr_thiazole>  (51) 
0

>  <fr_thiocyan>  (51) 
0

>  <fr_thiophene>  (51) 
0

>  <fr_unbrch_alkane>  (51) 
0

>  <fr_urea>  (51) 
0

>  <NP-Likeness>  (51) 
-0.697796

$$$$
F304
     RDKit          3D

  0  0  0  0  0  0  0  0  0  0999 V3000
M  V30 BEGIN CTAB
M  V30 COUNTS 31 32 0 0 0
M  V30 BEGIN ATOM
M  V30 1 O -1.362332 -0.113389 2.888951 0
M  V30 2 C -0.250472 -0.750186 3.372949 0 CFG=2
M  V30 3 C 0.977312 -0.404329 2.677591 0
M  V30 4 C 2.203873 -0.378240 3.356603 0
M  V30 5 C 2.613998 -0.617911 4.735761 0
M  V30 6 O 3.731453 -0.583595 5.305654 0
M  V30 7 O 1.717801 -0.960293 5.738967 0 CHG=-1 VAL=1
M  V30 8 O 3.181675 -0.059348 2.515067 0
M  V30 9 N 2.676722 0.125640 1.329024 0
M  V30 10 C 1.325700 -0.077434 1.393297 0
M  V30 11 C 0.483808 0.032082 0.225295 0
M  V30 12 C -0.668014 0.724759 -0.053590 0
M  V30 13 C -1.319099 0.646373 -1.253590 0
M  V30 14 C -0.860961 -0.142052 -2.283002 0
M  V30 15 O -1.574313 -0.164564 -3.456906 0
M  V30 16 C -1.079732 -0.993809 -4.519493 0
M  V30 17 C 0.282188 -0.851753 -2.058314 0
M  V30 18 C 0.929115 -0.764392 -0.843678 0
M  V30 19 C -0.462169 -2.270005 3.325885 0
M  V30 20 H -2.123742 -0.754247 2.815841 0
M  V30 21 H -0.188931 -0.522126 4.464186 0
M  V30 22 H -1.009795 1.346163 0.731735 0
M  V30 23 H -2.214688 1.236964 -1.352961 0
M  V30 24 H -1.670301 -0.812783 -5.424281 0
M  V30 25 H -0.014847 -0.749369 -4.740392 0
M  V30 26 H -1.107155 -2.044259 -4.168672 0
M  V30 27 H 0.638928 -1.469789 -2.870122 0
M  V30 28 H 1.833164 -1.384897 -0.797910 0
M  V30 29 H -0.927067 -2.481539 2.326936 0
M  V30 30 H 0.534429 -2.743607 3.375764 0
M  V30 31 H -1.141911 -2.542378 4.158870 0
M  V30 END ATOM
M  V30 BEGIN BOND
M  V30 1 1 1 2
M  V30 2 1 2 3
M  V30 3 2 3 4
M  V30 4 1 4 5
M  V30 5 2 5 6
M  V30 6 1 5 7
M  V30 7 1 4 8
M  V30 8 1 8 9
M  V30 9 2 9 10
M  V30 10 1 10 11
M  V30 11 2 11 12
M  V30 12 1 12 13
M  V30 13 2 13 14
M  V30 14 1 14 15
M  V30 15 1 15 16
M  V30 16 1 14 17
M  V30 17 2 17 18
M  V30 18 1 2 19
M  V30 19 1 10 3
M  V30 20 1 18 11
M  V30 21 1 1 20
M  V30 22 1 2 21 CFG=1
M  V30 23 1 12 22
M  V30 24 1 13 23
M  V30 25 1 16 24
M  V30 26 1 16 25
M  V30 27 1 16 26
M  V30 28 1 17 27
M  V30 29 1 18 28
M  V30 30 1 19 29
M  V30 31 1 19 30
M  V30 32 1 19 31
M  V30 END BOND
M  V30 END CTAB
M  END
>  <Dataset>  (52) 
CF

>  <Ligand_Instance>  (52) 
304_B_2

>  <PDB_ID>  (52) 
nan

>  <Standardized_SMILES>  (52) 
[H]O[C@]([H])(C1=C(C(=O)[O-])ON=C1C1=C([H])C([H])=C(OC([H])([H])[H])C([H])=C1[H])C([H])([H])[H]

>  <Name>  (52) 
4‐[(1S)‐1‐hydroxyethyl]‐3‐(4‐methoxyphenyl)‐1,2‐oxazole‐5‐carboxylic acid

>  <Pocket>  (52) 
X

>  <ATP_Site>  (52) 
1.0

>  <Peripheral>  (52) 
1.0

>  <Num_H_Atoms_ProtBoundConf>  (52) 
12.0

>  <Num_Resolved_Atoms>  (52) 
19.0

>  <Num_Not_Resolved_Atoms>  (52) 
0.0

>  <2D_Mol_H>  (52) 
<rdkit.Chem.rdchem.Mol object at 0x72a238db6260>

>  <MW>  (52) 
262.241

>  <HBA>  (52) 
6

>  <HBD>  (52) 
1

>  <LogP>  (52) 
0.767

>  <NRB>  (52) 
7

>  <TPSA>  (52) 
95.62

>  <Num_Heavy_Atoms>  (52) 
19

>  <Ro5>  (52) 
[True, True, True, True, True, True]

>  <Ro5_Fulfilled>  (52) 
True

>  <Ro3>  (52) 
[True, False, True, True]

>  <Ro3_Fulfilled>  (52) 
True

>  <Fsp3>  (52) 
0.230769

>  <Fsp3_0.42>  (52) 
False

>  <Fsp3_0.45>  (52) 
False

>  <Stereogenic_Carbons>  (52) 
1

>  <C_Atoms>  (52) 
13

>  <FCStereo>  (52) 
0.076923

>  <SPS>  (52) 
231

>  <nSPS>  (52) 
12.157895

>  <PBF>  (52) 
0.784301

>  <PBF_0.6>  (52) 
True

>  <nPBF>  (52) 
0.041279

>  <nPBF_0.016>  (52) 
True

>  <PMI1>  (52) 
525.460366

>  <PMI2>  (52) 
2810.694445

>  <PMI3>  (52) 
3105.679192

>  <NPR1>  (52) 
0.169193

>  <NPR2>  (52) 
0.905018

>  <Sum_NPR>  (52) 
1.074211

>  <Sum_NPR_1.07>  (52) 
True

>  <Sum_NPR_1.2>  (52) 
False

>  <MaxAbsEStateIndex>  (52) 
10.895322

>  <MaxEStateIndex>  (52) 
10.895322

>  <MinAbsEStateIndex>  (52) 
0.102006

>  <MinEStateIndex>  (52) 
-1.510961

>  <qed>  (52) 
0.87374

>  <MolWt>  (52) 
262.241

>  <HeavyAtomMolWt>  (52) 
250.145

>  <ExactMolWt>  (52) 
262.072096

>  <NumValenceElectrons>  (52) 
100

>  <NumRadicalElectrons>  (52) 
0

>  <MaxPartialCharge>  (52) 
0.188222

>  <MinPartialCharge>  (52) 
-0.541447

>  <MaxAbsPartialCharge>  (52) 
0.541447

>  <MinAbsPartialCharge>  (52) 
0.188222

>  <FpDensityMorgan1>  (52) 
1.421053

>  <FpDensityMorgan2>  (52) 
2.052632

>  <FpDensityMorgan3>  (52) 
2.526316

>  <BCUT2D_MWHI>  (52) 
16.484094

>  <BCUT2D_MWLOW>  (52) 
10.021284

>  <BCUT2D_CHGHI>  (52) 
2.215627

>  <BCUT2D_CHGLO>  (52) 
-2.073281

>  <BCUT2D_LOGPHI>  (52) 
2.306632

>  <BCUT2D_LOGPLOW>  (52) 
-2.229851

>  <BCUT2D_MRHI>  (52) 
5.866825

>  <BCUT2D_MRLOW>  (52) 
-0.257051

>  <AvgIpc>  (52) 
2.834813

>  <BalabanJ>  (52) 
2.517116

>  <BertzCT>  (52) 
585.581087

>  <Chi0>  (52) 
13.991199

>  <Chi0n>  (52) 
10.414172

>  <Chi0v>  (52) 
10.414172

>  <Chi1>  (52) 
9.040913

>  <Chi1n>  (52) 
5.576517

>  <Chi1v>  (52) 
5.576517

>  <Chi2n>  (52) 
3.965913

>  <Chi2v>  (52) 
3.965913

>  <Chi3n>  (52) 
2.694589

>  <Chi3v>  (52) 
2.694589

>  <Chi4n>  (52) 
1.789075

>  <Chi4v>  (52) 
1.789075

>  <HallKierAlpha>  (52) 
-2.34

>  <Ipc>  (52) 
23925.825467

>  <Kappa1>  (52) 
13.100176

>  <Kappa2>  (52) 
5.111477

>  <Kappa3>  (52) 
2.432406

>  <LabuteASA>  (52) 
108.777134

>  <PEOE_VSA1>  (52) 
24.26755

>  <PEOE_VSA10>  (52) 
17.412745

>  <PEOE_VSA11>  (52) 
5.760247

>  <PEOE_VSA12>  (52) 
0.0

>  <PEOE_VSA13>  (52) 
0.0

>  <PEOE_VSA14>  (52) 
0.0

>  <PEOE_VSA2>  (52) 
0.0

>  <PEOE_VSA3>  (52) 
0.0

>  <PEOE_VSA4>  (52) 
0.0

>  <PEOE_VSA5>  (52) 
0.0

>  <PEOE_VSA6>  (52) 
5.156663

>  <PEOE_VSA7>  (52) 
31.189205

>  <PEOE_VSA8>  (52) 
5.563451

>  <PEOE_VSA9>  (52) 
18.777215

>  <SMR_VSA1>  (52) 
24.26755

>  <SMR_VSA10>  (52) 
5.969305

>  <SMR_VSA2>  (52) 
0.0

>  <SMR_VSA3>  (52) 
5.156663

>  <SMR_VSA4>  (52) 
0.0

>  <SMR_VSA5>  (52) 
13.027704

>  <SMR_VSA6>  (52) 
7.109798

>  <SMR_VSA7>  (52) 
35.589167

>  <SMR_VSA8>  (52) 
0.0

>  <SMR_VSA9>  (52) 
17.006891

>  <SlogP_VSA1>  (52) 
9.84339

>  <SlogP_VSA10>  (52) 
0.0

>  <SlogP_VSA11>  (52) 
5.749512

>  <SlogP_VSA12>  (52) 
0.0

>  <SlogP_VSA2>  (52) 
23.342293

>  <SlogP_VSA3>  (52) 
0.0

>  <SlogP_VSA4>  (52) 
0.0

>  <SlogP_VSA5>  (52) 
29.14594

>  <SlogP_VSA6>  (52) 
28.788563

>  <SlogP_VSA7>  (52) 
0.0

>  <SlogP_VSA8>  (52) 
11.257379

>  <SlogP_VSA9>  (52) 
0.0

>  <EState_VSA1>  (52) 
17.833519

>  <EState_VSA10>  (52) 
15.007592

>  <EState_VSA11>  (52) 
0.0

>  <EState_VSA2>  (52) 
11.257379

>  <EState_VSA3>  (52) 
11.312963

>  <EState_VSA4>  (52) 
0.0

>  <EState_VSA5>  (52) 
6.923737

>  <EState_VSA6>  (52) 
31.375266

>  <EState_VSA7>  (52) 
0.0

>  <EState_VSA8>  (52) 
5.156663

>  <EState_VSA9>  (52) 
9.259958

>  <VSA_EState1>  (52) 
9.755044

>  <VSA_EState10>  (52) 
0.0

>  <VSA_EState2>  (52) 
10.895322

>  <VSA_EState3>  (52) 
24.252488

>  <VSA_EState4>  (52) 
0.995342

>  <VSA_EState5>  (52) 
-1.310235

>  <VSA_EState6>  (52) 
6.797918

>  <VSA_EState7>  (52) 
-1.031248

>  <VSA_EState8>  (52) 
1.436505

>  <VSA_EState9>  (52) 
1.542198

>  <FractionCSP3>  (52) 
0.230769

>  <HeavyAtomCount>  (52) 
19

>  <NHOHCount>  (52) 
1

>  <NOCount>  (52) 
6

>  <NumAliphaticCarbocycles>  (52) 
0

>  <NumAliphaticHeterocycles>  (52) 
0

>  <NumAliphaticRings>  (52) 
0

>  <NumAromaticCarbocycles>  (52) 
1

>  <NumAromaticHeterocycles>  (52) 
1

>  <NAR>  (52) 
2

>  <NumHAcceptors>  (52) 
6

>  <NumHDonors>  (52) 
1

>  <NumHeteroatoms>  (52) 
6

>  <NumRotatableBonds>  (52) 
4

>  <NumSaturatedCarbocycles>  (52) 
0

>  <NumSaturatedHeterocycles>  (52) 
0

>  <NumSaturatedRings>  (52) 
0

>  <RingCount>  (52) 
2

>  <MolLogP>  (52) 
0.767

>  <MolMR>  (52) 
63.4553

>  <fr_Al_COO>  (52) 
0

>  <fr_Al_OH>  (52) 
1

>  <fr_Al_OH_noTert>  (52) 
1

>  <fr_ArN>  (52) 
0

>  <fr_Ar_COO>  (52) 
1

>  <fr_Ar_N>  (52) 
1

>  <fr_Ar_NH>  (52) 
0

>  <fr_Ar_OH>  (52) 
0

>  <fr_COO>  (52) 
1

>  <fr_COO2>  (52) 
1

>  <fr_C_O>  (52) 
1

>  <fr_C_O_noCOO>  (52) 
1

>  <fr_C_S>  (52) 
0

>  <fr_HOCCN>  (52) 
0

>  <fr_Imine>  (52) 
0

>  <fr_NH0>  (52) 
1

>  <fr_NH1>  (52) 
0

>  <fr_NH2>  (52) 
0

>  <fr_N_O>  (52) 
0

>  <fr_Ndealkylation1>  (52) 
0

>  <fr_Ndealkylation2>  (52) 
0

>  <fr_Nhpyrrole>  (52) 
0

>  <fr_SH>  (52) 
0

>  <fr_aldehyde>  (52) 
0

>  <fr_alkyl_carbamate>  (52) 
0

>  <fr_alkyl_halide>  (52) 
0

>  <fr_allylic_oxid>  (52) 
0

>  <fr_amide>  (52) 
0

>  <fr_amidine>  (52) 
0

>  <fr_aniline>  (52) 
0

>  <fr_aryl_methyl>  (52) 
0

>  <fr_azide>  (52) 
0

>  <fr_azo>  (52) 
0

>  <fr_barbitur>  (52) 
0

>  <fr_benzene>  (52) 
1

>  <fr_benzodiazepine>  (52) 
0

>  <fr_bicyclic>  (52) 
0

>  <fr_diazo>  (52) 
0

>  <fr_dihydropyridine>  (52) 
0

>  <fr_epoxide>  (52) 
0

>  <fr_ester>  (52) 
0

>  <fr_ether>  (52) 
1

>  <fr_furan>  (52) 
0

>  <fr_guanido>  (52) 
0

>  <fr_halogen>  (52) 
0

>  <fr_hdrzine>  (52) 
0

>  <fr_hdrzone>  (52) 
0

>  <fr_imidazole>  (52) 
0

>  <fr_imide>  (52) 
0

>  <fr_isocyan>  (52) 
0

>  <fr_isothiocyan>  (52) 
0

>  <fr_ketone>  (52) 
0

>  <fr_ketone_Topliss>  (52) 
0

>  <fr_lactam>  (52) 
0

>  <fr_lactone>  (52) 
0

>  <fr_methoxy>  (52) 
1

>  <fr_morpholine>  (52) 
0

>  <fr_nitrile>  (52) 
0

>  <fr_nitro>  (52) 
0

>  <fr_nitro_arom>  (52) 
0

>  <fr_nitro_arom_nonortho>  (52) 
0

>  <fr_nitroso>  (52) 
0

>  <fr_oxazole>  (52) 
0

>  <fr_oxime>  (52) 
0

>  <fr_para_hydroxylation>  (52) 
0

>  <fr_phenol>  (52) 
0

>  <fr_phenol_noOrthoHbond>  (52) 
0

>  <fr_phos_acid>  (52) 
0

>  <fr_phos_ester>  (52) 
0

>  <fr_piperdine>  (52) 
0

>  <fr_piperzine>  (52) 
0

>  <fr_priamide>  (52) 
0

>  <fr_prisulfonamd>  (52) 
0

>  <fr_pyridine>  (52) 
0

>  <fr_quatN>  (52) 
0

>  <fr_sulfide>  (52) 
0

>  <fr_sulfonamd>  (52) 
0

>  <fr_sulfone>  (52) 
0

>  <fr_term_acetylene>  (52) 
0

>  <fr_tetrazole>  (52) 
0

>  <fr_thiazole>  (52) 
0

>  <fr_thiocyan>  (52) 
0

>  <fr_thiophene>  (52) 
0

>  <fr_unbrch_alkane>  (52) 
0

>  <fr_urea>  (52) 
0

>  <NP-Likeness>  (52) 
-0.5372

$$$$
F304
     RDKit          3D

  0  0  0  0  0  0  0  0  0  0999 V3000
M  V30 BEGIN CTAB
M  V30 COUNTS 31 32 0 0 0
M  V30 BEGIN ATOM
M  V30 1 O -1.362332 -0.113389 2.888951 0
M  V30 2 C -0.250472 -0.750186 3.372949 0 CFG=2
M  V30 3 C 0.977312 -0.404329 2.677591 0
M  V30 4 C 2.203873 -0.378240 3.356603 0
M  V30 5 C 2.613998 -0.617911 4.735761 0
M  V30 6 O 3.731453 -0.583595 5.305654 0
M  V30 7 O 1.717801 -0.960293 5.738967 0 CHG=-1 VAL=1
M  V30 8 O 3.181675 -0.059348 2.515067 0
M  V30 9 N 2.676722 0.125640 1.329024 0
M  V30 10 C 1.325700 -0.077434 1.393297 0
M  V30 11 C 0.483808 0.032082 0.225295 0
M  V30 12 C -0.668014 0.724759 -0.053590 0
M  V30 13 C -1.319099 0.646373 -1.253590 0
M  V30 14 C -0.860961 -0.142052 -2.283002 0
M  V30 15 O -1.574313 -0.164564 -3.456906 0
M  V30 16 C -1.079732 -0.993809 -4.519493 0
M  V30 17 C 0.282188 -0.851753 -2.058314 0
M  V30 18 C 0.929115 -0.764392 -0.843678 0
M  V30 19 C -0.462169 -2.270005 3.325885 0
M  V30 20 H -2.123742 -0.754247 2.815841 0
M  V30 21 H -0.188931 -0.522126 4.464186 0
M  V30 22 H -1.009795 1.346163 0.731735 0
M  V30 23 H -2.214688 1.236964 -1.352961 0
M  V30 24 H -1.670301 -0.812783 -5.424281 0
M  V30 25 H -0.014847 -0.749369 -4.740392 0
M  V30 26 H -1.107155 -2.044259 -4.168672 0
M  V30 27 H 0.638928 -1.469789 -2.870122 0
M  V30 28 H 1.833164 -1.384897 -0.797910 0
M  V30 29 H -0.927067 -2.481539 2.326936 0
M  V30 30 H 0.534429 -2.743607 3.375764 0
M  V30 31 H -1.141911 -2.542378 4.158870 0
M  V30 END ATOM
M  V30 BEGIN BOND
M  V30 1 1 1 2
M  V30 2 1 2 3
M  V30 3 2 3 4
M  V30 4 1 4 5
M  V30 5 2 5 6
M  V30 6 1 5 7
M  V30 7 1 4 8
M  V30 8 1 8 9
M  V30 9 2 9 10
M  V30 10 1 10 11
M  V30 11 2 11 12
M  V30 12 1 12 13
M  V30 13 2 13 14
M  V30 14 1 14 15
M  V30 15 1 15 16
M  V30 16 1 14 17
M  V30 17 2 17 18
M  V30 18 1 2 19
M  V30 19 1 10 3
M  V30 20 1 18 11
M  V30 21 1 1 20
M  V30 22 1 2 21 CFG=1
M  V30 23 1 12 22
M  V30 24 1 13 23
M  V30 25 1 16 24
M  V30 26 1 16 25
M  V30 27 1 16 26
M  V30 28 1 17 27
M  V30 29 1 18 28
M  V30 30 1 19 29
M  V30 31 1 19 30
M  V30 32 1 19 31
M  V30 END BOND
M  V30 END CTAB
M  END
>  <Dataset>  (53) 
CF

>  <Ligand_Instance>  (53) 
304_B_5

>  <PDB_ID>  (53) 
nan

>  <Standardized_SMILES>  (53) 
[H]O[C@]([H])(C1=C(C(=O)[O-])ON=C1C1=C([H])C([H])=C(OC([H])([H])[H])C([H])=C1[H])C([H])([H])[H]

>  <Name>  (53) 
4‐[(1S)‐1‐hydroxyethyl]‐3‐(4‐methoxyphenyl)‐1,2‐oxazole‐5‐carboxylic acid

>  <Pocket>  (53) 
X

>  <ATP_Site>  (53) 
1.0

>  <Peripheral>  (53) 
1.0

>  <Num_H_Atoms_ProtBoundConf>  (53) 
12.0

>  <Num_Resolved_Atoms>  (53) 
19.0

>  <Num_Not_Resolved_Atoms>  (53) 
0.0

>  <2D_Mol_H>  (53) 
<rdkit.Chem.rdchem.Mol object at 0x72a238db6340>

>  <MW>  (53) 
262.241

>  <HBA>  (53) 
6

>  <HBD>  (53) 
1

>  <LogP>  (53) 
0.767

>  <NRB>  (53) 
7

>  <TPSA>  (53) 
95.62

>  <Num_Heavy_Atoms>  (53) 
19

>  <Ro5>  (53) 
[True, True, True, True, True, True]

>  <Ro5_Fulfilled>  (53) 
True

>  <Ro3>  (53) 
[True, False, True, True]

>  <Ro3_Fulfilled>  (53) 
True

>  <Fsp3>  (53) 
0.230769

>  <Fsp3_0.42>  (53) 
False

>  <Fsp3_0.45>  (53) 
False

>  <Stereogenic_Carbons>  (53) 
1

>  <C_Atoms>  (53) 
13

>  <FCStereo>  (53) 
0.076923

>  <SPS>  (53) 
231

>  <nSPS>  (53) 
12.157895

>  <PBF>  (53) 
0.784301

>  <PBF_0.6>  (53) 
True

>  <nPBF>  (53) 
0.041279

>  <nPBF_0.016>  (53) 
True

>  <PMI1>  (53) 
525.460366

>  <PMI2>  (53) 
2810.694445

>  <PMI3>  (53) 
3105.679192

>  <NPR1>  (53) 
0.169193

>  <NPR2>  (53) 
0.905018

>  <Sum_NPR>  (53) 
1.074211

>  <Sum_NPR_1.07>  (53) 
True

>  <Sum_NPR_1.2>  (53) 
False

>  <MaxAbsEStateIndex>  (53) 
10.895322

>  <MaxEStateIndex>  (53) 
10.895322

>  <MinAbsEStateIndex>  (53) 
0.102006

>  <MinEStateIndex>  (53) 
-1.510961

>  <qed>  (53) 
0.87374

>  <MolWt>  (53) 
262.241

>  <HeavyAtomMolWt>  (53) 
250.145

>  <ExactMolWt>  (53) 
262.072096

>  <NumValenceElectrons>  (53) 
100

>  <NumRadicalElectrons>  (53) 
0

>  <MaxPartialCharge>  (53) 
0.188222

>  <MinPartialCharge>  (53) 
-0.541447

>  <MaxAbsPartialCharge>  (53) 
0.541447

>  <MinAbsPartialCharge>  (53) 
0.188222

>  <FpDensityMorgan1>  (53) 
1.421053

>  <FpDensityMorgan2>  (53) 
2.052632

>  <FpDensityMorgan3>  (53) 
2.526316

>  <BCUT2D_MWHI>  (53) 
16.484094

>  <BCUT2D_MWLOW>  (53) 
10.021284

>  <BCUT2D_CHGHI>  (53) 
2.215627

>  <BCUT2D_CHGLO>  (53) 
-2.073281

>  <BCUT2D_LOGPHI>  (53) 
2.306632

>  <BCUT2D_LOGPLOW>  (53) 
-2.229851

>  <BCUT2D_MRHI>  (53) 
5.866825

>  <BCUT2D_MRLOW>  (53) 
-0.257051

>  <AvgIpc>  (53) 
2.834813

>  <BalabanJ>  (53) 
2.517116

>  <BertzCT>  (53) 
585.581087

>  <Chi0>  (53) 
13.991199

>  <Chi0n>  (53) 
10.414172

>  <Chi0v>  (53) 
10.414172

>  <Chi1>  (53) 
9.040913

>  <Chi1n>  (53) 
5.576517

>  <Chi1v>  (53) 
5.576517

>  <Chi2n>  (53) 
3.965913

>  <Chi2v>  (53) 
3.965913

>  <Chi3n>  (53) 
2.694589

>  <Chi3v>  (53) 
2.694589

>  <Chi4n>  (53) 
1.789075

>  <Chi4v>  (53) 
1.789075

>  <HallKierAlpha>  (53) 
-2.34

>  <Ipc>  (53) 
23925.825467

>  <Kappa1>  (53) 
13.100176

>  <Kappa2>  (53) 
5.111477

>  <Kappa3>  (53) 
2.432406

>  <LabuteASA>  (53) 
108.777134

>  <PEOE_VSA1>  (53) 
24.26755

>  <PEOE_VSA10>  (53) 
17.412745

>  <PEOE_VSA11>  (53) 
5.760247

>  <PEOE_VSA12>  (53) 
0.0

>  <PEOE_VSA13>  (53) 
0.0

>  <PEOE_VSA14>  (53) 
0.0

>  <PEOE_VSA2>  (53) 
0.0

>  <PEOE_VSA3>  (53) 
0.0

>  <PEOE_VSA4>  (53) 
0.0

>  <PEOE_VSA5>  (53) 
0.0

>  <PEOE_VSA6>  (53) 
5.156663

>  <PEOE_VSA7>  (53) 
31.189205

>  <PEOE_VSA8>  (53) 
5.563451

>  <PEOE_VSA9>  (53) 
18.777215

>  <SMR_VSA1>  (53) 
24.26755

>  <SMR_VSA10>  (53) 
5.969305

>  <SMR_VSA2>  (53) 
0.0

>  <SMR_VSA3>  (53) 
5.156663

>  <SMR_VSA4>  (53) 
0.0

>  <SMR_VSA5>  (53) 
13.027704

>  <SMR_VSA6>  (53) 
7.109798

>  <SMR_VSA7>  (53) 
35.589167

>  <SMR_VSA8>  (53) 
0.0

>  <SMR_VSA9>  (53) 
17.006891

>  <SlogP_VSA1>  (53) 
9.84339

>  <SlogP_VSA10>  (53) 
0.0

>  <SlogP_VSA11>  (53) 
5.749512

>  <SlogP_VSA12>  (53) 
0.0

>  <SlogP_VSA2>  (53) 
23.342293

>  <SlogP_VSA3>  (53) 
0.0

>  <SlogP_VSA4>  (53) 
0.0

>  <SlogP_VSA5>  (53) 
29.14594

>  <SlogP_VSA6>  (53) 
28.788563

>  <SlogP_VSA7>  (53) 
0.0

>  <SlogP_VSA8>  (53) 
11.257379

>  <SlogP_VSA9>  (53) 
0.0

>  <EState_VSA1>  (53) 
17.833519

>  <EState_VSA10>  (53) 
15.007592

>  <EState_VSA11>  (53) 
0.0

>  <EState_VSA2>  (53) 
11.257379

>  <EState_VSA3>  (53) 
11.312963

>  <EState_VSA4>  (53) 
0.0

>  <EState_VSA5>  (53) 
6.923737

>  <EState_VSA6>  (53) 
31.375266

>  <EState_VSA7>  (53) 
0.0

>  <EState_VSA8>  (53) 
5.156663

>  <EState_VSA9>  (53) 
9.259958

>  <VSA_EState1>  (53) 
9.755044

>  <VSA_EState10>  (53) 
0.0

>  <VSA_EState2>  (53) 
10.895322

>  <VSA_EState3>  (53) 
24.252488

>  <VSA_EState4>  (53) 
0.995342

>  <VSA_EState5>  (53) 
-1.310235

>  <VSA_EState6>  (53) 
6.797918

>  <VSA_EState7>  (53) 
-1.031248

>  <VSA_EState8>  (53) 
1.436505

>  <VSA_EState9>  (53) 
1.542198

>  <FractionCSP3>  (53) 
0.230769

>  <HeavyAtomCount>  (53) 
19

>  <NHOHCount>  (53) 
1

>  <NOCount>  (53) 
6

>  <NumAliphaticCarbocycles>  (53) 
0

>  <NumAliphaticHeterocycles>  (53) 
0

>  <NumAliphaticRings>  (53) 
0

>  <NumAromaticCarbocycles>  (53) 
1

>  <NumAromaticHeterocycles>  (53) 
1

>  <NAR>  (53) 
2

>  <NumHAcceptors>  (53) 
6

>  <NumHDonors>  (53) 
1

>  <NumHeteroatoms>  (53) 
6

>  <NumRotatableBonds>  (53) 
4

>  <NumSaturatedCarbocycles>  (53) 
0

>  <NumSaturatedHeterocycles>  (53) 
0

>  <NumSaturatedRings>  (53) 
0

>  <RingCount>  (53) 
2

>  <MolLogP>  (53) 
0.767

>  <MolMR>  (53) 
63.4553

>  <fr_Al_COO>  (53) 
0

>  <fr_Al_OH>  (53) 
1

>  <fr_Al_OH_noTert>  (53) 
1

>  <fr_ArN>  (53) 
0

>  <fr_Ar_COO>  (53) 
1

>  <fr_Ar_N>  (53) 
1

>  <fr_Ar_NH>  (53) 
0

>  <fr_Ar_OH>  (53) 
0

>  <fr_COO>  (53) 
1

>  <fr_COO2>  (53) 
1

>  <fr_C_O>  (53) 
1

>  <fr_C_O_noCOO>  (53) 
1

>  <fr_C_S>  (53) 
0

>  <fr_HOCCN>  (53) 
0

>  <fr_Imine>  (53) 
0

>  <fr_NH0>  (53) 
1

>  <fr_NH1>  (53) 
0

>  <fr_NH2>  (53) 
0

>  <fr_N_O>  (53) 
0

>  <fr_Ndealkylation1>  (53) 
0

>  <fr_Ndealkylation2>  (53) 
0

>  <fr_Nhpyrrole>  (53) 
0

>  <fr_SH>  (53) 
0

>  <fr_aldehyde>  (53) 
0

>  <fr_alkyl_carbamate>  (53) 
0

>  <fr_alkyl_halide>  (53) 
0

>  <fr_allylic_oxid>  (53) 
0

>  <fr_amide>  (53) 
0

>  <fr_amidine>  (53) 
0

>  <fr_aniline>  (53) 
0

>  <fr_aryl_methyl>  (53) 
0

>  <fr_azide>  (53) 
0

>  <fr_azo>  (53) 
0

>  <fr_barbitur>  (53) 
0

>  <fr_benzene>  (53) 
1

>  <fr_benzodiazepine>  (53) 
0

>  <fr_bicyclic>  (53) 
0

>  <fr_diazo>  (53) 
0

>  <fr_dihydropyridine>  (53) 
0

>  <fr_epoxide>  (53) 
0

>  <fr_ester>  (53) 
0

>  <fr_ether>  (53) 
1

>  <fr_furan>  (53) 
0

>  <fr_guanido>  (53) 
0

>  <fr_halogen>  (53) 
0

>  <fr_hdrzine>  (53) 
0

>  <fr_hdrzone>  (53) 
0

>  <fr_imidazole>  (53) 
0

>  <fr_imide>  (53) 
0

>  <fr_isocyan>  (53) 
0

>  <fr_isothiocyan>  (53) 
0

>  <fr_ketone>  (53) 
0

>  <fr_ketone_Topliss>  (53) 
0

>  <fr_lactam>  (53) 
0

>  <fr_lactone>  (53) 
0

>  <fr_methoxy>  (53) 
1

>  <fr_morpholine>  (53) 
0

>  <fr_nitrile>  (53) 
0

>  <fr_nitro>  (53) 
0

>  <fr_nitro_arom>  (53) 
0

>  <fr_nitro_arom_nonortho>  (53) 
0

>  <fr_nitroso>  (53) 
0

>  <fr_oxazole>  (53) 
0

>  <fr_oxime>  (53) 
0

>  <fr_para_hydroxylation>  (53) 
0

>  <fr_phenol>  (53) 
0

>  <fr_phenol_noOrthoHbond>  (53) 
0

>  <fr_phos_acid>  (53) 
0

>  <fr_phos_ester>  (53) 
0

>  <fr_piperdine>  (53) 
0

>  <fr_piperzine>  (53) 
0

>  <fr_priamide>  (53) 
0

>  <fr_prisulfonamd>  (53) 
0

>  <fr_pyridine>  (53) 
0

>  <fr_quatN>  (53) 
0

>  <fr_sulfide>  (53) 
0

>  <fr_sulfonamd>  (53) 
0

>  <fr_sulfone>  (53) 
0

>  <fr_term_acetylene>  (53) 
0

>  <fr_tetrazole>  (53) 
0

>  <fr_thiazole>  (53) 
0

>  <fr_thiocyan>  (53) 
0

>  <fr_thiophene>  (53) 
0

>  <fr_unbrch_alkane>  (53) 
0

>  <fr_urea>  (53) 
0

>  <NP-Likeness>  (53) 
-0.5372

$$$$
F310
     RDKit          3D

  0  0  0  0  0  0  0  0  0  0999 V3000
M  V30 BEGIN CTAB
M  V30 COUNTS 43 44 0 0 0
M  V30 BEGIN ATOM
M  V30 1 O -0.989927 -5.160929 3.520422 0
M  V30 2 C -1.681063 -4.692472 2.417446 0
M  V30 3 C -1.407892 -3.245987 2.127186 0
M  V30 4 C 0.054537 -3.025246 1.856292 0 CFG=1
M  V30 5 O 0.230003 -1.648617 1.593380 0
M  V30 6 C 1.410865 -1.450153 0.866466 0 CFG=2
M  V30 7 C 1.150075 -1.610569 -0.594149 0
M  V30 8 N 0.159787 -0.631354 -1.000744 0
M  V30 9 C 0.286019 0.776626 -0.903988 0
M  V30 10 O 1.309784 1.301391 -0.440411 0
M  V30 11 N -0.725044 1.685721 -1.319744 0
M  V30 12 C -0.306272 3.048014 -1.096328 0
M  V30 13 C 0.375088 3.886899 -1.951630 0
M  V30 14 C 0.666859 5.159845 -1.509527 0
M  V30 15 C 0.294639 5.591062 -0.255361 0
M  V30 16 C -0.389715 4.746738 0.602153 0
M  V30 17 C -0.686076 3.477299 0.173916 0
M  V30 18 C 2.510416 -2.365142 1.362902 0 CFG=1
M  V30 19 O 3.711120 -1.692262 1.262697 0
M  V30 20 C 2.225664 -2.553594 2.859386 0
M  V30 21 C 0.946613 -3.385010 3.008731 0
M  V30 22 H -1.294491 -4.688288 4.340181 0
M  V30 23 H -2.741600 -4.902300 2.584547 0
M  V30 24 H -1.324235 -5.298758 1.541845 0
M  V30 25 H -1.778731 -2.610070 2.962447 0
M  V30 26 H -1.951146 -2.995937 1.197989 0
M  V30 27 H 0.313858 -3.600130 0.944549 0
M  V30 28 H 1.737499 -0.411870 1.069337 0
M  V30 29 H 2.111675 -1.463053 -1.145356 0
M  V30 30 H 0.728300 -2.602200 -0.785285 0
M  V30 31 H -0.773733 -0.922202 -1.419624 0
M  V30 32 H -1.624119 1.288567 -1.724958 0
M  V30 33 H 0.608476 3.432147 -2.901108 0
M  V30 34 H 1.201844 5.783170 -2.212350 0
M  V30 35 H 0.538146 6.599569 0.065946 0
M  V30 36 H -0.659718 5.130689 1.574827 0
M  V30 37 H -1.222814 2.892272 0.914741 0
M  V30 38 H 2.568394 -3.317115 0.821946 0
M  V30 39 H 3.601170 -0.786672 0.850145 0
M  V30 40 H 2.059479 -1.531536 3.257470 0
M  V30 41 H 3.082788 -3.041530 3.374480 0
M  V30 42 H 0.457267 -3.078051 3.943867 0
M  V30 43 H 1.191178 -4.468345 3.054062 0
M  V30 END ATOM
M  V30 BEGIN BOND
M  V30 1 1 1 2
M  V30 2 1 2 3
M  V30 3 1 3 4
M  V30 4 1 4 5
M  V30 5 1 5 6
M  V30 6 1 6 7
M  V30 7 1 7 8
M  V30 8 1 8 9
M  V30 9 2 9 10
M  V30 10 1 9 11
M  V30 11 1 11 12
M  V30 12 2 12 13
M  V30 13 1 13 14
M  V30 14 2 14 15
M  V30 15 1 15 16
M  V30 16 2 16 17
M  V30 17 1 6 18
M  V30 18 1 18 19
M  V30 19 1 18 20
M  V30 20 1 20 21
M  V30 21 1 21 4
M  V30 22 1 17 12
M  V30 23 1 1 22
M  V30 24 1 2 23
M  V30 25 1 2 24
M  V30 26 1 3 25
M  V30 27 1 3 26
M  V30 28 1 4 27 CFG=3
M  V30 29 1 6 28 CFG=3
M  V30 30 1 7 29
M  V30 31 1 7 30
M  V30 32 1 8 31
M  V30 33 1 11 32
M  V30 34 1 13 33
M  V30 35 1 14 34
M  V30 36 1 15 35
M  V30 37 1 16 36
M  V30 38 1 17 37
M  V30 39 1 18 38 CFG=3
M  V30 40 1 19 39
M  V30 41 1 20 40
M  V30 42 1 20 41
M  V30 43 1 21 42
M  V30 44 1 21 43
M  V30 END BOND
M  V30 END CTAB
M  END
>  <Dataset>  (54) 
CF

>  <Ligand_Instance>  (54) 
310_B_1

>  <PDB_ID>  (54) 
nan

>  <Standardized_SMILES>  (54) 
[H]OC([H])([H])C([H])([H])[C@@]1([H])O[C@]([H])(C([H])([H])N([H])C(=O)N([H])C2=C([H])C([H])=C([H])C([H])=C2[H])[C@@]([H])(O[H])C([H])([H])C1([H])[H]

>  <Name>  (54) 
3‐{[(2R,3S,6S)‐3‐hydroxy‐6‐(2‐hydroxyethyl)oxan‐2‐yl]methyl}‐1‐phenylurea

>  <Pocket>  (54) 
A

>  <ATP_Site>  (54) 
1.0

>  <Peripheral>  (54) 
0.0

>  <Num_H_Atoms_ProtBoundConf>  (54) 
22.0

>  <Num_Resolved_Atoms>  (54) 
21.0

>  <Num_Not_Resolved_Atoms>  (54) 
0.0

>  <2D_Mol_H>  (54) 
<rdkit.Chem.rdchem.Mol object at 0x72a238db6420>

>  <MW>  (54) 
294.351

>  <HBA>  (54) 
4

>  <HBD>  (54) 
4

>  <LogP>  (54) 
1.099

>  <NRB>  (54) 
7

>  <TPSA>  (54) 
90.82

>  <Num_Heavy_Atoms>  (54) 
21

>  <Ro5>  (54) 
[True, True, True, True, True, True]

>  <Ro5_Fulfilled>  (54) 
True

>  <Ro3>  (54) 
[True, False, False, True]

>  <Ro3_Fulfilled>  (54) 
False

>  <Fsp3>  (54) 
0.533333

>  <Fsp3_0.42>  (54) 
True

>  <Fsp3_0.45>  (54) 
True

>  <Stereogenic_Carbons>  (54) 
3

>  <C_Atoms>  (54) 
15

>  <FCStereo>  (54) 
0.2

>  <SPS>  (54) 
532

>  <nSPS>  (54) 
25.333333

>  <PBF>  (54) 
1.05925

>  <PBF_0.6>  (54) 
True

>  <nPBF>  (54) 
0.05044

>  <nPBF_0.016>  (54) 
True

>  <PMI1>  (54) 
827.51557

>  <PMI2>  (54) 
3918.95125

>  <PMI3>  (54) 
4179.424576

>  <NPR1>  (54) 
0.197997

>  <NPR2>  (54) 
0.937677

>  <Sum_NPR>  (54) 
1.135675

>  <Sum_NPR_1.07>  (54) 
True

>  <Sum_NPR_1.2>  (54) 
False

>  <MaxAbsEStateIndex>  (54) 
11.769607

>  <MaxEStateIndex>  (54) 
11.769607

>  <MinAbsEStateIndex>  (54) 
0.053348

>  <MinEStateIndex>  (54) 
-0.586141

>  <qed>  (54) 
0.654313

>  <MolWt>  (54) 
294.351

>  <HeavyAtomMolWt>  (54) 
272.175

>  <ExactMolWt>  (54) 
294.157957

>  <NumValenceElectrons>  (54) 
116

>  <NumRadicalElectrons>  (54) 
0

>  <MaxPartialCharge>  (54) 
0.318827

>  <MinPartialCharge>  (54) 
-0.396275

>  <MaxAbsPartialCharge>  (54) 
0.396275

>  <MinAbsPartialCharge>  (54) 
0.318827

>  <FpDensityMorgan1>  (54) 
1.285714

>  <FpDensityMorgan2>  (54) 
2.047619

>  <FpDensityMorgan3>  (54) 
2.761905

>  <BCUT2D_MWHI>  (54) 
16.51422

>  <BCUT2D_MWLOW>  (54) 
9.991911

>  <BCUT2D_CHGHI>  (54) 
2.292405

>  <BCUT2D_CHGLO>  (54) 
-2.334182

>  <BCUT2D_LOGPHI>  (54) 
2.208698

>  <BCUT2D_LOGPLOW>  (54) 
-2.466564

>  <BCUT2D_MRHI>  (54) 
5.886194

>  <BCUT2D_MRLOW>  (54) 
-0.118463

>  <AvgIpc>  (54) 
2.489279

>  <BalabanJ>  (54) 
1.766037

>  <BertzCT>  (54) 
440.559575

>  <Chi0>  (54) 
15.07914

>  <Chi0n>  (54) 
11.86526

>  <Chi0v>  (54) 
11.86526

>  <Chi1>  (54) 
10.185872

>  <Chi1n>  (54) 
7.230519

>  <Chi1v>  (54) 
7.230519

>  <Chi2n>  (54) 
5.154573

>  <Chi2v>  (54) 
5.154573

>  <Chi3n>  (54) 
3.527346

>  <Chi3v>  (54) 
3.527346

>  <Chi4n>  (54) 
2.379059

>  <Chi4v>  (54) 
2.379059

>  <HallKierAlpha>  (54) 
-1.63

>  <Ipc>  (54) 
61076.94649

>  <Kappa1>  (54) 
15.753094

>  <Kappa2>  (54) 
7.970554

>  <Kappa3>  (54) 
5.002389

>  <LabuteASA>  (54) 
123.67331

>  <PEOE_VSA1>  (54) 
25.583495

>  <PEOE_VSA10>  (54) 
6.103966

>  <PEOE_VSA11>  (54) 
0.0

>  <PEOE_VSA12>  (54) 
0.0

>  <PEOE_VSA13>  (54) 
0.0

>  <PEOE_VSA14>  (54) 
6.031115

>  <PEOE_VSA2>  (54) 
0.0

>  <PEOE_VSA3>  (54) 
4.794537

>  <PEOE_VSA4>  (54) 
0.0

>  <PEOE_VSA5>  (54) 
0.0

>  <PEOE_VSA6>  (54) 
18.199101

>  <PEOE_VSA7>  (54) 
31.395199

>  <PEOE_VSA8>  (54) 
18.839025

>  <PEOE_VSA9>  (54) 
12.207933

>  <SMR_VSA1>  (54) 
19.744455

>  <SMR_VSA10>  (54) 
11.718501

>  <SMR_VSA2>  (54) 
0.0

>  <SMR_VSA3>  (54) 
5.316789

>  <SMR_VSA4>  (54) 
0.0

>  <SMR_VSA5>  (54) 
37.574364

>  <SMR_VSA6>  (54) 
18.468427

>  <SMR_VSA7>  (54) 
30.331835

>  <SMR_VSA8>  (54) 
0.0

>  <SMR_VSA9>  (54) 
0.0

>  <SlogP_VSA1>  (54) 
10.633577

>  <SlogP_VSA10>  (54) 
10.481923

>  <SlogP_VSA11>  (54) 
0.0

>  <SlogP_VSA12>  (54) 
0.0

>  <SlogP_VSA2>  (54) 
47.707707

>  <SlogP_VSA3>  (54) 
4.736863

>  <SlogP_VSA4>  (54) 
0.0

>  <SlogP_VSA5>  (54) 
19.262465

>  <SlogP_VSA6>  (54) 
30.331835

>  <SlogP_VSA7>  (54) 
0.0

>  <SlogP_VSA8>  (54) 
0.0

>  <SlogP_VSA9>  (54) 
0.0

>  <EState_VSA1>  (54) 
12.207933

>  <EState_VSA10>  (54) 
9.901065

>  <EState_VSA11>  (54) 
0.0

>  <EState_VSA2>  (54) 
25.286719

>  <EState_VSA3>  (54) 
18.52903

>  <EState_VSA4>  (54) 
6.420822

>  <EState_VSA5>  (54) 
0.0

>  <EState_VSA6>  (54) 
12.132734

>  <EState_VSA7>  (54) 
18.199101

>  <EState_VSA8>  (54) 
10.633577

>  <EState_VSA9>  (54) 
9.84339

>  <VSA_EState1>  (54) 
5.687207

>  <VSA_EState10>  (54) 
0.0

>  <VSA_EState2>  (54) 
11.769607

>  <VSA_EState3>  (54) 
24.230878

>  <VSA_EState4>  (54) 
0.70673

>  <VSA_EState5>  (54) 
0.0

>  <VSA_EState6>  (54) 
8.801229

>  <VSA_EState7>  (54) 
0.834939

>  <VSA_EState8>  (54) 
0.302744

>  <VSA_EState9>  (54) 
0.0

>  <FractionCSP3>  (54) 
0.533333

>  <HeavyAtomCount>  (54) 
21

>  <NHOHCount>  (54) 
4

>  <NOCount>  (54) 
6

>  <NumAliphaticCarbocycles>  (54) 
0

>  <NumAliphaticHeterocycles>  (54) 
1

>  <NumAliphaticRings>  (54) 
1

>  <NumAromaticCarbocycles>  (54) 
1

>  <NumAromaticHeterocycles>  (54) 
0

>  <NAR>  (54) 
1

>  <NumHAcceptors>  (54) 
4

>  <NumHDonors>  (54) 
4

>  <NumHeteroatoms>  (54) 
6

>  <NumRotatableBonds>  (54) 
5

>  <NumSaturatedCarbocycles>  (54) 
0

>  <NumSaturatedHeterocycles>  (54) 
1

>  <NumSaturatedRings>  (54) 
1

>  <RingCount>  (54) 
2

>  <MolLogP>  (54) 
1.099

>  <MolMR>  (54) 
79.068

>  <fr_Al_COO>  (54) 
0

>  <fr_Al_OH>  (54) 
2

>  <fr_Al_OH_noTert>  (54) 
2

>  <fr_ArN>  (54) 
0

>  <fr_Ar_COO>  (54) 
0

>  <fr_Ar_N>  (54) 
0

>  <fr_Ar_NH>  (54) 
0

>  <fr_Ar_OH>  (54) 
0

>  <fr_COO>  (54) 
0

>  <fr_COO2>  (54) 
0

>  <fr_C_O>  (54) 
1

>  <fr_C_O_noCOO>  (54) 
1

>  <fr_C_S>  (54) 
0

>  <fr_HOCCN>  (54) 
0

>  <fr_Imine>  (54) 
0

>  <fr_NH0>  (54) 
0

>  <fr_NH1>  (54) 
2

>  <fr_NH2>  (54) 
0

>  <fr_N_O>  (54) 
0

>  <fr_Ndealkylation1>  (54) 
0

>  <fr_Ndealkylation2>  (54) 
0

>  <fr_Nhpyrrole>  (54) 
0

>  <fr_SH>  (54) 
0

>  <fr_aldehyde>  (54) 
0

>  <fr_alkyl_carbamate>  (54) 
0

>  <fr_alkyl_halide>  (54) 
0

>  <fr_allylic_oxid>  (54) 
0

>  <fr_amide>  (54) 
2

>  <fr_amidine>  (54) 
0

>  <fr_aniline>  (54) 
1

>  <fr_aryl_methyl>  (54) 
0

>  <fr_azide>  (54) 
0

>  <fr_azo>  (54) 
0

>  <fr_barbitur>  (54) 
0

>  <fr_benzene>  (54) 
1

>  <fr_benzodiazepine>  (54) 
0

>  <fr_bicyclic>  (54) 
0

>  <fr_diazo>  (54) 
0

>  <fr_dihydropyridine>  (54) 
0

>  <fr_epoxide>  (54) 
0

>  <fr_ester>  (54) 
0

>  <fr_ether>  (54) 
1

>  <fr_furan>  (54) 
0

>  <fr_guanido>  (54) 
0

>  <fr_halogen>  (54) 
0

>  <fr_hdrzine>  (54) 
0

>  <fr_hdrzone>  (54) 
0

>  <fr_imidazole>  (54) 
0

>  <fr_imide>  (54) 
0

>  <fr_isocyan>  (54) 
0

>  <fr_isothiocyan>  (54) 
0

>  <fr_ketone>  (54) 
0

>  <fr_ketone_Topliss>  (54) 
0

>  <fr_lactam>  (54) 
0

>  <fr_lactone>  (54) 
0

>  <fr_methoxy>  (54) 
0

>  <fr_morpholine>  (54) 
0

>  <fr_nitrile>  (54) 
0

>  <fr_nitro>  (54) 
0

>  <fr_nitro_arom>  (54) 
0

>  <fr_nitro_arom_nonortho>  (54) 
0

>  <fr_nitroso>  (54) 
0

>  <fr_oxazole>  (54) 
0

>  <fr_oxime>  (54) 
0

>  <fr_para_hydroxylation>  (54) 
1

>  <fr_phenol>  (54) 
0

>  <fr_phenol_noOrthoHbond>  (54) 
0

>  <fr_phos_acid>  (54) 
0

>  <fr_phos_ester>  (54) 
0

>  <fr_piperdine>  (54) 
0

>  <fr_piperzine>  (54) 
0

>  <fr_priamide>  (54) 
0

>  <fr_prisulfonamd>  (54) 
0

>  <fr_pyridine>  (54) 
0

>  <fr_quatN>  (54) 
0

>  <fr_sulfide>  (54) 
0

>  <fr_sulfonamd>  (54) 
0

>  <fr_sulfone>  (54) 
0

>  <fr_term_acetylene>  (54) 
0

>  <fr_tetrazole>  (54) 
0

>  <fr_thiazole>  (54) 
0

>  <fr_thiocyan>  (54) 
0

>  <fr_thiophene>  (54) 
0

>  <fr_unbrch_alkane>  (54) 
0

>  <fr_urea>  (54) 
1

>  <NP-Likeness>  (54) 
0.293805

$$$$
F312
     RDKit          3D

  0  0  0  0  0  0  0  0  0  0999 V3000
M  V30 BEGIN CTAB
M  V30 COUNTS 34 35 0 0 0
M  V30 BEGIN ATOM
M  V30 1 O -1.857354 2.340508 0.565021 0
M  V30 2 C -1.083200 1.168321 0.744169 0 CFG=1
M  V30 3 C 0.173059 1.165077 -0.050669 0 CFG=2
M  V30 4 C 0.272807 0.168774 -1.141121 0
M  V30 5 N 0.385854 -1.192426 -0.811945 0 CHG=1 VAL=4
M  V30 6 C 1.384902 -1.516201 0.176572 0
M  V30 7 C 1.646825 -3.020517 0.004240 0
M  V30 8 O 0.501661 -3.771328 0.139457 0
M  V30 9 C -0.551364 -3.370544 -0.676735 0
M  V30 10 C -0.812747 -1.878587 -0.409456 0
M  V30 11 O 1.266131 1.153190 0.793993 0
M  V30 12 C 0.859614 1.312690 2.090104 0
M  V30 13 C -0.621815 1.180821 2.184850 0 CFG=2
M  V30 14 N -1.058500 0.030285 2.930860 0 CHG=1 VAL=4
M  V30 15 H -1.537861 3.049672 1.166341 0
M  V30 16 H -1.799053 0.353115 0.513500 0
M  V30 17 H 0.212708 2.179025 -0.554401 0
M  V30 18 H 1.170215 0.446635 -1.753981 0
M  V30 19 H -0.583192 0.295717 -1.829120 0
M  V30 20 H 0.726323 -1.690909 -1.691540 0
M  V30 21 H 2.351430 -1.012734 0.003806 0
M  V30 22 H 1.008896 -1.448261 1.218838 0
M  V30 23 H 2.113741 -3.135473 -1.014038 0
M  V30 24 H 2.354705 -3.375092 0.776829 0
M  V30 25 H -1.447030 -3.925188 -0.322330 0
M  V30 26 H -0.373829 -3.487486 -1.747201 0
M  V30 27 H -1.725704 -1.568082 -0.921012 0
M  V30 28 H -0.891549 -1.852662 0.718353 0
M  V30 29 H 1.285589 0.443595 2.673970 0
M  V30 30 H 1.270754 2.201653 2.592253 0
M  V30 31 H -1.004990 2.079005 2.750930 0
M  V30 32 H -0.327302 -0.700219 3.065645 0
M  V30 33 H -1.846771 -0.441119 2.407459 0
M  V30 34 H -1.464559 0.275260 3.864601 0
M  V30 END ATOM
M  V30 BEGIN BOND
M  V30 1 1 1 2
M  V30 2 1 2 3
M  V30 3 1 3 4
M  V30 4 1 4 5
M  V30 5 1 5 6
M  V30 6 1 6 7
M  V30 7 1 7 8
M  V30 8 1 8 9
M  V30 9 1 9 10
M  V30 10 1 3 11
M  V30 11 1 11 12
M  V30 12 1 12 13
M  V30 13 1 13 14
M  V30 14 1 13 2
M  V30 15 1 10 5
M  V30 16 1 1 15
M  V30 17 1 2 16 CFG=1
M  V30 18 1 3 17 CFG=3
M  V30 19 1 4 18
M  V30 20 1 4 19
M  V30 21 1 5 20
M  V30 22 1 6 21
M  V30 23 1 6 22
M  V30 24 1 7 23
M  V30 25 1 7 24
M  V30 26 1 9 25
M  V30 27 1 9 26
M  V30 28 1 10 27
M  V30 29 1 10 28
M  V30 30 1 12 29
M  V30 31 1 12 30
M  V30 32 1 13 31 CFG=1
M  V30 33 1 14 32
M  V30 34 1 14 33
M  V30 35 1 14 34
M  V30 END BOND
M  V30 END CTAB
M  END
>  <Dataset>  (55) 
CF

>  <Ligand_Instance>  (55) 
312_A_401

>  <PDB_ID>  (55) 
nan

>  <Standardized_SMILES>  (55) 
[H]O[C@@]1([H])[C@]([H])(C([H])([H])[N+]2([H])C([H])([H])C([H])([H])OC([H])([H])C2([H])[H])OC([H])([H])[C@]1([H])[N+]([H])([H])[H]

>  <Name>  (55) 
(2S,3R,4S)‐4‐amino‐2‐[(morpholin‐4‐yl)methyl]oxolan‐3‐ol

>  <Pocket>  (55) 
A

>  <ATP_Site>  (55) 
1.0

>  <Peripheral>  (55) 
0.0

>  <Num_H_Atoms_ProtBoundConf>  (55) 
20.0

>  <Num_Resolved_Atoms>  (55) 
14.0

>  <Num_Not_Resolved_Atoms>  (55) 
0.0

>  <2D_Mol_H>  (55) 
<rdkit.Chem.rdchem.Mol object at 0x72a238db6500>

>  <MW>  (55) 
204.27

>  <HBA>  (55) 
3

>  <HBD>  (55) 
3

>  <LogP>  (55) 
-3.7283

>  <NRB>  (55) 
4

>  <TPSA>  (55) 
70.77

>  <Num_Heavy_Atoms>  (55) 
14

>  <Ro5>  (55) 
[True, True, True, True, True, True]

>  <Ro5_Fulfilled>  (55) 
True

>  <Ro3>  (55) 
[True, True, True, True]

>  <Ro3_Fulfilled>  (55) 
True

>  <Fsp3>  (55) 
1.0

>  <Fsp3_0.42>  (55) 
True

>  <Fsp3_0.45>  (55) 
True

>  <Stereogenic_Carbons>  (55) 
3

>  <C_Atoms>  (55) 
9

>  <FCStereo>  (55) 
0.333333

>  <SPS>  (55) 
564

>  <nSPS>  (55) 
40.285714

>  <PBF>  (55) 
1.021603

>  <PBF_0.6>  (55) 
True

>  <nPBF>  (55) 
0.072972

>  <nPBF_0.016>  (55) 
True

>  <PMI1>  (55) 
429.929546

>  <PMI2>  (55) 
1108.65538

>  <PMI3>  (55) 
1131.820145

>  <NPR1>  (55) 
0.379857

>  <NPR2>  (55) 
0.979533

>  <Sum_NPR>  (55) 
1.35939

>  <Sum_NPR_1.07>  (55) 
True

>  <Sum_NPR_1.2>  (55) 
True

>  <MaxAbsEStateIndex>  (55) 
9.756023

>  <MaxEStateIndex>  (55) 
9.756023

>  <MinAbsEStateIndex>  (55) 
0.022593

>  <MinEStateIndex>  (55) 
-0.38394

>  <qed>  (55) 
0.43299

>  <MolWt>  (55) 
204.27

>  <HeavyAtomMolWt>  (55) 
184.11

>  <ExactMolWt>  (55) 
204.146295

>  <NumValenceElectrons>  (55) 
82

>  <NumRadicalElectrons>  (55) 
0

>  <MaxPartialCharge>  (55) 
0.139355

>  <MinPartialCharge>  (55) 
-0.38383

>  <MaxAbsPartialCharge>  (55) 
0.38383

>  <MinAbsPartialCharge>  (55) 
0.139355

>  <FpDensityMorgan1>  (55) 
1.357143

>  <FpDensityMorgan2>  (55) 
2.071429

>  <FpDensityMorgan3>  (55) 
2.642857

>  <BCUT2D_MWHI>  (55) 
16.513701

>  <BCUT2D_MWLOW>  (55) 
10.107684

>  <BCUT2D_CHGHI>  (55) 
2.383653

>  <BCUT2D_CHGLO>  (55) 
-2.261465

>  <BCUT2D_LOGPHI>  (55) 
2.089873

>  <BCUT2D_LOGPLOW>  (55) 
-3.148903

>  <BCUT2D_MRHI>  (55) 
4.809901

>  <BCUT2D_MRLOW>  (55) 
-0.910799

>  <AvgIpc>  (55) 
2.515471

>  <BalabanJ>  (55) 
1.786344

>  <BertzCT>  (55) 
184.89588

>  <Chi0>  (55) 
9.966255

>  <Chi0n>  (55) 
8.445508

>  <Chi0v>  (55) 
8.445508

>  <Chi1>  (55) 
6.770857

>  <Chi1n>  (55) 
5.311998

>  <Chi1v>  (55) 
5.311998

>  <Chi2n>  (55) 
4.188954

>  <Chi2v>  (55) 
4.188954

>  <Chi3n>  (55) 
3.078045

>  <Chi3v>  (55) 
3.078045

>  <Chi4n>  (55) 
2.076321

>  <Chi4v>  (55) 
2.076321

>  <HallKierAlpha>  (55) 
-0.2

>  <Ipc>  (55) 
2434.975513

>  <Kappa1>  (55) 
10.322279

>  <Kappa2>  (55) 
4.546148

>  <Kappa3>  (55) 
2.237825

>  <LabuteASA>  (55) 
83.768174

>  <PEOE_VSA1>  (55) 
25.213831

>  <PEOE_VSA10>  (55) 
44.490925

>  <PEOE_VSA11>  (55) 
0.0

>  <PEOE_VSA12>  (55) 
0.0

>  <PEOE_VSA13>  (55) 
0.0

>  <PEOE_VSA14>  (55) 
0.0

>  <PEOE_VSA2>  (55) 
0.0

>  <PEOE_VSA3>  (55) 
0.0

>  <PEOE_VSA4>  (55) 
0.0

>  <PEOE_VSA5>  (55) 
0.0

>  <PEOE_VSA6>  (55) 
0.0

>  <PEOE_VSA7>  (55) 
0.0

>  <PEOE_VSA8>  (55) 
0.0

>  <PEOE_VSA9>  (55) 
13.213764

>  <SMR_VSA1>  (55) 
25.213831

>  <SMR_VSA10>  (55) 
0.0

>  <SMR_VSA2>  (55) 
0.0

>  <SMR_VSA3>  (55) 
0.0

>  <SMR_VSA4>  (55) 
0.0

>  <SMR_VSA5>  (55) 
18.249774

>  <SMR_VSA6>  (55) 
39.454915

>  <SMR_VSA7>  (55) 
0.0

>  <SMR_VSA8>  (55) 
0.0

>  <SMR_VSA9>  (55) 
0.0

>  <SlogP_VSA1>  (55) 
10.633577

>  <SlogP_VSA10>  (55) 
0.0

>  <SlogP_VSA11>  (55) 
0.0

>  <SlogP_VSA12>  (55) 
0.0

>  <SlogP_VSA2>  (55) 
62.811216

>  <SlogP_VSA3>  (55) 
9.473726

>  <SlogP_VSA4>  (55) 
0.0

>  <SlogP_VSA5>  (55) 
0.0

>  <SlogP_VSA6>  (55) 
0.0

>  <SlogP_VSA7>  (55) 
0.0

>  <SlogP_VSA8>  (55) 
0.0

>  <SlogP_VSA9>  (55) 
0.0

>  <EState_VSA1>  (55) 
0.0

>  <EState_VSA10>  (55) 
5.106527

>  <EState_VSA11>  (55) 
0.0

>  <EState_VSA2>  (55) 
18.249774

>  <EState_VSA3>  (55) 
6.606882

>  <EState_VSA4>  (55) 
32.848033

>  <EState_VSA5>  (55) 
4.89991

>  <EState_VSA6>  (55) 
0.0

>  <EState_VSA7>  (55) 
0.0

>  <EState_VSA8>  (55) 
5.733667

>  <EState_VSA9>  (55) 
9.473726

>  <VSA_EState1>  (55) 
10.78171

>  <VSA_EState10>  (55) 
0.0

>  <VSA_EState2>  (55) 
1.467037

>  <VSA_EState3>  (55) 
9.756023

>  <VSA_EState4>  (55) 
3.852899

>  <VSA_EState5>  (55) 
0.0

>  <VSA_EState6>  (55) 
0.042075

>  <VSA_EState7>  (55) 
-0.406533

>  <VSA_EState8>  (55) 
5.173456

>  <VSA_EState9>  (55) 
0.0

>  <FractionCSP3>  (55) 
1.0

>  <HeavyAtomCount>  (55) 
14

>  <NHOHCount>  (55) 
5

>  <NOCount>  (55) 
5

>  <NumAliphaticCarbocycles>  (55) 
0

>  <NumAliphaticHeterocycles>  (55) 
2

>  <NumAliphaticRings>  (55) 
2

>  <NumAromaticCarbocycles>  (55) 
0

>  <NumAromaticHeterocycles>  (55) 
0

>  <NAR>  (55) 
0

>  <NumHAcceptors>  (55) 
3

>  <NumHDonors>  (55) 
3

>  <NumHeteroatoms>  (55) 
5

>  <NumRotatableBonds>  (55) 
2

>  <NumSaturatedCarbocycles>  (55) 
0

>  <NumSaturatedHeterocycles>  (55) 
2

>  <NumSaturatedRings>  (55) 
2

>  <RingCount>  (55) 
2

>  <MolLogP>  (55) 
-3.7283

>  <MolMR>  (55) 
48.8056

>  <fr_Al_COO>  (55) 
0

>  <fr_Al_OH>  (55) 
1

>  <fr_Al_OH_noTert>  (55) 
1

>  <fr_ArN>  (55) 
0

>  <fr_Ar_COO>  (55) 
0

>  <fr_Ar_N>  (55) 
0

>  <fr_Ar_NH>  (55) 
0

>  <fr_Ar_OH>  (55) 
0

>  <fr_COO>  (55) 
0

>  <fr_COO2>  (55) 
0

>  <fr_C_O>  (55) 
0

>  <fr_C_O_noCOO>  (55) 
0

>  <fr_C_S>  (55) 
0

>  <fr_HOCCN>  (55) 
0

>  <fr_Imine>  (55) 
0

>  <fr_NH0>  (55) 
0

>  <fr_NH1>  (55) 
1

>  <fr_NH2>  (55) 
0

>  <fr_N_O>  (55) 
0

>  <fr_Ndealkylation1>  (55) 
0

>  <fr_Ndealkylation2>  (55) 
0

>  <fr_Nhpyrrole>  (55) 
0

>  <fr_SH>  (55) 
0

>  <fr_aldehyde>  (55) 
0

>  <fr_alkyl_carbamate>  (55) 
0

>  <fr_alkyl_halide>  (55) 
0

>  <fr_allylic_oxid>  (55) 
0

>  <fr_amide>  (55) 
0

>  <fr_amidine>  (55) 
0

>  <fr_aniline>  (55) 
0

>  <fr_aryl_methyl>  (55) 
0

>  <fr_azide>  (55) 
0

>  <fr_azo>  (55) 
0

>  <fr_barbitur>  (55) 
0

>  <fr_benzene>  (55) 
0

>  <fr_benzodiazepine>  (55) 
0

>  <fr_bicyclic>  (55) 
0

>  <fr_diazo>  (55) 
0

>  <fr_dihydropyridine>  (55) 
0

>  <fr_epoxide>  (55) 
0

>  <fr_ester>  (55) 
0

>  <fr_ether>  (55) 
2

>  <fr_furan>  (55) 
0

>  <fr_guanido>  (55) 
0

>  <fr_halogen>  (55) 
0

>  <fr_hdrzine>  (55) 
0

>  <fr_hdrzone>  (55) 
0

>  <fr_imidazole>  (55) 
0

>  <fr_imide>  (55) 
0

>  <fr_isocyan>  (55) 
0

>  <fr_isothiocyan>  (55) 
0

>  <fr_ketone>  (55) 
0

>  <fr_ketone_Topliss>  (55) 
0

>  <fr_lactam>  (55) 
0

>  <fr_lactone>  (55) 
0

>  <fr_methoxy>  (55) 
0

>  <fr_morpholine>  (55) 
1

>  <fr_nitrile>  (55) 
0

>  <fr_nitro>  (55) 
0

>  <fr_nitro_arom>  (55) 
0

>  <fr_nitro_arom_nonortho>  (55) 
0

>  <fr_nitroso>  (55) 
0

>  <fr_oxazole>  (55) 
0

>  <fr_oxime>  (55) 
0

>  <fr_para_hydroxylation>  (55) 
0

>  <fr_phenol>  (55) 
0

>  <fr_phenol_noOrthoHbond>  (55) 
0

>  <fr_phos_acid>  (55) 
0

>  <fr_phos_ester>  (55) 
0

>  <fr_piperdine>  (55) 
0

>  <fr_piperzine>  (55) 
0

>  <fr_priamide>  (55) 
0

>  <fr_prisulfonamd>  (55) 
0

>  <fr_pyridine>  (55) 
0

>  <fr_quatN>  (55) 
2

>  <fr_sulfide>  (55) 
0

>  <fr_sulfonamd>  (55) 
0

>  <fr_sulfone>  (55) 
0

>  <fr_term_acetylene>  (55) 
0

>  <fr_tetrazole>  (55) 
0

>  <fr_thiazole>  (55) 
0

>  <fr_thiocyan>  (55) 
0

>  <fr_thiophene>  (55) 
0

>  <fr_unbrch_alkane>  (55) 
0

>  <fr_urea>  (55) 
0

>  <NP-Likeness>  (55) 
0.583377

$$$$
F313
     RDKit          3D

  0  0  0  0  0  0  0  0  0  0999 V3000
M  V30 BEGIN CTAB
M  V30 COUNTS 35 35 0 0 0
M  V30 BEGIN ATOM
M  V30 1 O 0.765098 2.209739 2.406863 0
M  V30 2 C 0.863027 1.678304 1.138978 0 CFG=1
M  V30 3 C 0.023034 0.409237 0.967186 0 CFG=2
M  V30 4 C 0.933108 -0.650238 0.427950 0
M  V30 5 N 0.305594 -1.871548 0.059681 0 CHG=1 VAL=4
M  V30 6 C 1.150456 -3.023944 0.363189 0
M  V30 7 C 1.140442 -4.012677 -0.789997 0
M  V30 8 C -0.972080 -2.137428 0.647436 0
M  V30 9 C -0.906448 -2.434339 2.124419 0
M  V30 10 O -0.943250 0.766310 0.048449 0
M  V30 11 C -0.411749 1.709366 -0.813838 0
M  V30 12 C 0.202536 2.676505 0.192634 0 CFG=1
M  V30 13 N -0.905991 3.349753 0.837440 0 CHG=1 VAL=4
M  V30 14 H 0.750670 1.552824 3.133440 0
M  V30 15 H 1.924670 1.520362 0.897379 0
M  V30 16 H -0.346986 0.134108 1.952659 0
M  V30 17 H 1.451134 -0.214993 -0.453594 0
M  V30 18 H 1.731460 -0.876508 1.158460 0
M  V30 19 H 0.166325 -1.883973 -0.986058 0
M  V30 20 H 0.748752 -3.588798 1.242855 0
M  V30 21 H 2.177137 -2.726394 0.636411 0
M  V30 22 H 0.087643 -4.094296 -1.156107 0
M  V30 23 H 1.810718 -3.604440 -1.574895 0
M  V30 24 H 1.497792 -4.983229 -0.423733 0
M  V30 25 H -1.748264 -1.393130 0.443481 0
M  V30 26 H -1.340206 -3.077998 0.161081 0
M  V30 27 H -1.101159 -3.508174 2.362685 0
M  V30 28 H 0.075697 -2.190831 2.568191 0
M  V30 29 H -1.690839 -1.856163 2.651129 0
M  V30 30 H 0.370989 1.284147 -1.466156 0
M  V30 31 H -1.251140 2.167299 -1.360626 0
M  V30 32 H 0.926331 3.361869 -0.265163 0
M  V30 33 H -1.465410 2.611262 1.330651 0
M  V30 34 H -0.587487 4.102204 1.476260 0
M  V30 35 H -1.537443 3.724360 0.090549 0
M  V30 END ATOM
M  V30 BEGIN BOND
M  V30 1 1 1 2
M  V30 2 1 2 3
M  V30 3 1 3 4
M  V30 4 1 4 5
M  V30 5 1 5 6
M  V30 6 1 6 7
M  V30 7 1 5 8
M  V30 8 1 8 9
M  V30 9 1 3 10
M  V30 10 1 10 11
M  V30 11 1 11 12
M  V30 12 1 12 13
M  V30 13 1 12 2
M  V30 14 1 1 14
M  V30 15 1 2 15 CFG=3
M  V30 16 1 3 16 CFG=1
M  V30 17 1 4 17
M  V30 18 1 4 18
M  V30 19 1 5 19
M  V30 20 1 6 20
M  V30 21 1 6 21
M  V30 22 1 7 22
M  V30 23 1 7 23
M  V30 24 1 7 24
M  V30 25 1 8 25
M  V30 26 1 8 26
M  V30 27 1 9 27
M  V30 28 1 9 28
M  V30 29 1 9 29
M  V30 30 1 11 30
M  V30 31 1 11 31
M  V30 32 1 12 32 CFG=3
M  V30 33 1 13 33
M  V30 34 1 13 34
M  V30 35 1 13 35
M  V30 END BOND
M  V30 END CTAB
M  END
>  <Dataset>  (56) 
CF

>  <Ligand_Instance>  (56) 
313_A_401

>  <PDB_ID>  (56) 
nan

>  <Standardized_SMILES>  (56) 
[H]O[C@@]1([H])[C@]([H])(C([H])([H])[N+]([H])(C([H])([H])C([H])([H])[H])C([H])([H])C([H])([H])[H])OC([H])([H])[C@@]1([H])[N+]([H])([H])[H]

>  <Name>  (56) 
(2S,3R)‐4‐amino‐2‐[(diethylamino)methyl]oxolan‐3‐ol

>  <Pocket>  (56) 
X

>  <ATP_Site>  (56) 
0.0

>  <Peripheral>  (56) 
1.0

>  <Num_H_Atoms_ProtBoundConf>  (56) 
22.0

>  <Num_Resolved_Atoms>  (56) 
13.0

>  <Num_Not_Resolved_Atoms>  (56) 
0.0

>  <2D_Mol_H>  (56) 
<rdkit.Chem.rdchem.Mol object at 0x72a238db65e0>

>  <MW>  (56) 
190.287

>  <HBA>  (56) 
2

>  <HBD>  (56) 
3

>  <LogP>  (56) 
-2.7187

>  <NRB>  (56) 
8

>  <TPSA>  (56) 
61.54

>  <Num_Heavy_Atoms>  (56) 
13

>  <Ro5>  (56) 
[True, True, True, True, True, True]

>  <Ro5_Fulfilled>  (56) 
True

>  <Ro3>  (56) 
[True, True, True, True]

>  <Ro3_Fulfilled>  (56) 
True

>  <Fsp3>  (56) 
1.0

>  <Fsp3_0.42>  (56) 
True

>  <Fsp3_0.45>  (56) 
True

>  <Stereogenic_Carbons>  (56) 
3

>  <C_Atoms>  (56) 
9

>  <FCStereo>  (56) 
0.333333

>  <SPS>  (56) 
447

>  <nSPS>  (56) 
34.384615

>  <PBF>  (56) 
0.875544

>  <PBF_0.6>  (56) 
True

>  <nPBF>  (56) 
0.06735

>  <nPBF_0.016>  (56) 
True

>  <PMI1>  (56) 
317.603073

>  <PMI2>  (56) 
1212.206105

>  <PMI3>  (56) 
1254.588348

>  <NPR1>  (56) 
0.253153

>  <NPR2>  (56) 
0.966218

>  <Sum_NPR>  (56) 
1.219371

>  <Sum_NPR_1.07>  (56) 
True

>  <Sum_NPR_1.2>  (56) 
True

>  <MaxAbsEStateIndex>  (56) 
9.696552

>  <MaxEStateIndex>  (56) 
9.696552

>  <MinAbsEStateIndex>  (56) 
0.002407

>  <MinEStateIndex>  (56) 
-0.3675

>  <qed>  (56) 
0.45101

>  <MolWt>  (56) 
190.287

>  <HeavyAtomMolWt>  (56) 
168.111

>  <ExactMolWt>  (56) 
190.167031

>  <NumValenceElectrons>  (56) 
78

>  <NumRadicalElectrons>  (56) 
0

>  <MaxPartialCharge>  (56) 
0.139354

>  <MinPartialCharge>  (56) 
-0.38383

>  <MaxAbsPartialCharge>  (56) 
0.38383

>  <MinAbsPartialCharge>  (56) 
0.139354

>  <FpDensityMorgan1>  (56) 
1.461538

>  <FpDensityMorgan2>  (56) 
2.076923

>  <FpDensityMorgan3>  (56) 
2.461538

>  <BCUT2D_MWHI>  (56) 
16.512721

>  <BCUT2D_MWLOW>  (56) 
10.110164

>  <BCUT2D_CHGHI>  (56) 
2.376708

>  <BCUT2D_CHGLO>  (56) 
-2.203078

>  <BCUT2D_LOGPHI>  (56) 
2.088031

>  <BCUT2D_LOGPLOW>  (56) 
-3.123074

>  <BCUT2D_MRHI>  (56) 
4.808117

>  <BCUT2D_MRLOW>  (56) 
-0.899369

>  <AvgIpc>  (56) 
2.448911

>  <BalabanJ>  (56) 
2.359416

>  <BertzCT>  (56) 
150.550128

>  <Chi0>  (56) 
9.844935

>  <Chi0n>  (56) 
8.623047

>  <Chi0v>  (56) 
8.623047

>  <Chi1>  (56) 
6.185071

>  <Chi1n>  (56) 
5.148862

>  <Chi1v>  (56) 
5.148862

>  <Chi2n>  (56) 
3.783688

>  <Chi2v>  (56) 
3.783688

>  <Chi3n>  (56) 
2.878139

>  <Chi3v>  (56) 
2.878139

>  <Chi4n>  (56) 
1.750797

>  <Chi4v>  (56) 
1.750797

>  <HallKierAlpha>  (56) 
-0.16

>  <Ipc>  (56) 
999.155823

>  <Kappa1>  (56) 
10.917882

>  <Kappa2>  (56) 
4.905984

>  <Kappa3>  (56) 
2.639651

>  <LabuteASA>  (56) 
79.66046

>  <PEOE_VSA1>  (56) 
20.476968

>  <PEOE_VSA10>  (56) 
31.401412

>  <PEOE_VSA11>  (56) 
0.0

>  <PEOE_VSA12>  (56) 
0.0

>  <PEOE_VSA13>  (56) 
0.0

>  <PEOE_VSA14>  (56) 
0.0

>  <PEOE_VSA2>  (56) 
0.0

>  <PEOE_VSA3>  (56) 
0.0

>  <PEOE_VSA4>  (56) 
0.0

>  <PEOE_VSA5>  (56) 
0.0

>  <PEOE_VSA6>  (56) 
0.0

>  <PEOE_VSA7>  (56) 
13.847474

>  <PEOE_VSA8>  (56) 
0.0

>  <PEOE_VSA9>  (56) 
13.089513

>  <SMR_VSA1>  (56) 
20.476968

>  <SMR_VSA10>  (56) 
0.0

>  <SMR_VSA2>  (56) 
0.0

>  <SMR_VSA3>  (56) 
0.0

>  <SMR_VSA4>  (56) 
0.0

>  <SMR_VSA5>  (56) 
32.097248

>  <SMR_VSA6>  (56) 
26.241151

>  <SMR_VSA7>  (56) 
0.0

>  <SMR_VSA8>  (56) 
0.0

>  <SMR_VSA9>  (56) 
0.0

>  <SlogP_VSA1>  (56) 
10.633577

>  <SlogP_VSA10>  (56) 
0.0

>  <SlogP_VSA11>  (56) 
0.0

>  <SlogP_VSA12>  (56) 
0.0

>  <SlogP_VSA2>  (56) 
49.597452

>  <SlogP_VSA3>  (56) 
4.736863

>  <SlogP_VSA4>  (56) 
0.0

>  <SlogP_VSA5>  (56) 
13.847474

>  <SlogP_VSA6>  (56) 
0.0

>  <SlogP_VSA7>  (56) 
0.0

>  <SlogP_VSA8>  (56) 
0.0

>  <SlogP_VSA9>  (56) 
0.0

>  <EState_VSA1>  (56) 
0.0

>  <EState_VSA10>  (56) 
5.106527

>  <EState_VSA11>  (56) 
0.0

>  <EState_VSA2>  (56) 
18.249774

>  <EState_VSA3>  (56) 
6.606882

>  <EState_VSA4>  (56) 
19.634269

>  <EState_VSA5>  (56) 
4.89991

>  <EState_VSA6>  (56) 
0.0

>  <EState_VSA7>  (56) 
0.0

>  <EState_VSA8>  (56) 
19.581142

>  <EState_VSA9>  (56) 
4.736863

>  <VSA_EState1>  (56) 
5.478287

>  <VSA_EState10>  (56) 
0.0

>  <VSA_EState2>  (56) 
1.470509

>  <VSA_EState3>  (56) 
9.696552

>  <VSA_EState4>  (56) 
3.843447

>  <VSA_EState5>  (56) 
0.0

>  <VSA_EState6>  (56) 
0.055521

>  <VSA_EState7>  (56) 
-0.369907

>  <VSA_EState8>  (56) 
7.992258

>  <VSA_EState9>  (56) 
0.0

>  <FractionCSP3>  (56) 
1.0

>  <HeavyAtomCount>  (56) 
13

>  <NHOHCount>  (56) 
5

>  <NOCount>  (56) 
4

>  <NumAliphaticCarbocycles>  (56) 
0

>  <NumAliphaticHeterocycles>  (56) 
1

>  <NumAliphaticRings>  (56) 
1

>  <NumAromaticCarbocycles>  (56) 
0

>  <NumAromaticHeterocycles>  (56) 
0

>  <NAR>  (56) 
0

>  <NumHAcceptors>  (56) 
2

>  <NumHDonors>  (56) 
3

>  <NumHeteroatoms>  (56) 
4

>  <NumRotatableBonds>  (56) 
4

>  <NumSaturatedCarbocycles>  (56) 
0

>  <NumSaturatedHeterocycles>  (56) 
1

>  <NumSaturatedRings>  (56) 
1

>  <RingCount>  (56) 
1

>  <MolLogP>  (56) 
-2.7187

>  <MolMR>  (56) 
49.3346

>  <fr_Al_COO>  (56) 
0

>  <fr_Al_OH>  (56) 
1

>  <fr_Al_OH_noTert>  (56) 
1

>  <fr_ArN>  (56) 
0

>  <fr_Ar_COO>  (56) 
0

>  <fr_Ar_N>  (56) 
0

>  <fr_Ar_NH>  (56) 
0

>  <fr_Ar_OH>  (56) 
0

>  <fr_COO>  (56) 
0

>  <fr_COO2>  (56) 
0

>  <fr_C_O>  (56) 
0

>  <fr_C_O_noCOO>  (56) 
0

>  <fr_C_S>  (56) 
0

>  <fr_HOCCN>  (56) 
0

>  <fr_Imine>  (56) 
0

>  <fr_NH0>  (56) 
0

>  <fr_NH1>  (56) 
1

>  <fr_NH2>  (56) 
0

>  <fr_N_O>  (56) 
0

>  <fr_Ndealkylation1>  (56) 
1

>  <fr_Ndealkylation2>  (56) 
0

>  <fr_Nhpyrrole>  (56) 
0

>  <fr_SH>  (56) 
0

>  <fr_aldehyde>  (56) 
0

>  <fr_alkyl_carbamate>  (56) 
0

>  <fr_alkyl_halide>  (56) 
0

>  <fr_allylic_oxid>  (56) 
0

>  <fr_amide>  (56) 
0

>  <fr_amidine>  (56) 
0

>  <fr_aniline>  (56) 
0

>  <fr_aryl_methyl>  (56) 
0

>  <fr_azide>  (56) 
0

>  <fr_azo>  (56) 
0

>  <fr_barbitur>  (56) 
0

>  <fr_benzene>  (56) 
0

>  <fr_benzodiazepine>  (56) 
0

>  <fr_bicyclic>  (56) 
0

>  <fr_diazo>  (56) 
0

>  <fr_dihydropyridine>  (56) 
0

>  <fr_epoxide>  (56) 
0

>  <fr_ester>  (56) 
0

>  <fr_ether>  (56) 
1

>  <fr_furan>  (56) 
0

>  <fr_guanido>  (56) 
0

>  <fr_halogen>  (56) 
0

>  <fr_hdrzine>  (56) 
0

>  <fr_hdrzone>  (56) 
0

>  <fr_imidazole>  (56) 
0

>  <fr_imide>  (56) 
0

>  <fr_isocyan>  (56) 
0

>  <fr_isothiocyan>  (56) 
0

>  <fr_ketone>  (56) 
0

>  <fr_ketone_Topliss>  (56) 
0

>  <fr_lactam>  (56) 
0

>  <fr_lactone>  (56) 
0

>  <fr_methoxy>  (56) 
0

>  <fr_morpholine>  (56) 
0

>  <fr_nitrile>  (56) 
0

>  <fr_nitro>  (56) 
0

>  <fr_nitro_arom>  (56) 
0

>  <fr_nitro_arom_nonortho>  (56) 
0

>  <fr_nitroso>  (56) 
0

>  <fr_oxazole>  (56) 
0

>  <fr_oxime>  (56) 
0

>  <fr_para_hydroxylation>  (56) 
0

>  <fr_phenol>  (56) 
0

>  <fr_phenol_noOrthoHbond>  (56) 
0

>  <fr_phos_acid>  (56) 
0

>  <fr_phos_ester>  (56) 
0

>  <fr_piperdine>  (56) 
0

>  <fr_piperzine>  (56) 
0

>  <fr_priamide>  (56) 
0

>  <fr_prisulfonamd>  (56) 
0

>  <fr_pyridine>  (56) 
0

>  <fr_quatN>  (56) 
2

>  <fr_sulfide>  (56) 
0

>  <fr_sulfonamd>  (56) 
0

>  <fr_sulfone>  (56) 
0

>  <fr_term_acetylene>  (56) 
0

>  <fr_tetrazole>  (56) 
0

>  <fr_thiazole>  (56) 
0

>  <fr_thiocyan>  (56) 
0

>  <fr_thiophene>  (56) 
0

>  <fr_unbrch_alkane>  (56) 
0

>  <fr_urea>  (56) 
0

>  <NP-Likeness>  (56) 
0.880745

$$$$
F322
     RDKit          3D

  0  0  0  0  0  0  0  0  0  0999 V3000
M  V30 BEGIN CTAB
M  V30 COUNTS 42 43 0 0 0
M  V30 BEGIN ATOM
M  V30 1 O 0.055135 -3.005583 4.286902 0
M  V30 2 C 0.590727 -2.839610 3.013145 0 CFG=1
M  V30 3 C 1.154300 -1.458488 2.822888 0 CFG=2
M  V30 4 C 0.128364 -0.466403 2.372157 0
M  V30 5 N -0.328364 -0.825721 1.049182 0 CFG=1 CHG=1 VAL=4
M  V30 6 C -1.746644 -1.092275 1.012356 0
M  V30 7 C 0.089035 0.146292 0.069018 0
M  V30 8 C -0.911777 1.198947 -0.256051 0
M  V30 9 C -0.262411 2.087012 -1.287197 0
M  V30 10 C -0.410337 1.796703 -2.645944 0
M  V30 11 C 0.206879 2.643966 -3.572031 0
M  V30 12 C 0.947032 3.743360 -3.169329 0
M  V30 13 C 1.092599 4.029303 -1.824098 0
M  V30 14 C 0.488520 3.201223 -0.899939 0
M  V30 15 O 2.253996 -1.533433 2.019617 0
M  V30 16 C 2.530166 -2.853692 1.744592 0
M  V30 17 C 1.882994 -3.649019 2.858898 0 CFG=2
M  V30 18 N 1.638521 -5.019289 2.509494 0 CHG=1 VAL=4
M  V30 19 H -0.681967 -3.679744 4.289256 0
M  V30 20 H -0.147882 -3.094545 2.250233 0
M  V30 21 H 1.527413 -1.156158 3.847683 0
M  V30 22 H -0.725144 -0.399073 3.079424 0
M  V30 23 H 0.555822 0.563418 2.306196 0
M  V30 24 H 0.133254 -1.718803 0.780088 0
M  V30 25 H -2.002623 -1.596916 1.984278 0
M  V30 26 H -2.386100 -0.191747 0.996529 0
M  V30 27 H -2.046675 -1.785373 0.210168 0
M  V30 28 H 1.043996 0.614762 0.393733 0
M  V30 29 H 0.355469 -0.348337 -0.909497 0
M  V30 30 H -1.172002 1.861685 0.585692 0
M  V30 31 H -1.809133 0.717077 -0.735058 0
M  V30 32 H -0.992153 0.933918 -2.934878 0
M  V30 33 H 0.090813 2.416524 -4.627940 0
M  V30 34 H 1.429902 4.406186 -3.893262 0
M  V30 35 H 1.665661 4.883957 -1.446031 0
M  V30 36 H 0.604886 3.429100 0.162282 0
M  V30 37 H 2.052839 -3.156833 0.789973 0
M  V30 38 H 3.615100 -3.080554 1.723382 0
M  V30 39 H 2.460226 -3.533085 3.797799 0
M  V30 40 H 2.473386 -5.335501 1.968318 0
M  V30 41 H 1.609326 -5.554059 3.401816 0
M  V30 42 H 0.811744 -5.091737 1.907871 0
M  V30 END ATOM
M  V30 BEGIN BOND
M  V30 1 1 1 2
M  V30 2 1 2 3
M  V30 3 1 3 4
M  V30 4 1 4 5
M  V30 5 1 5 6
M  V30 6 1 5 7
M  V30 7 1 7 8
M  V30 8 1 8 9
M  V30 9 2 9 10
M  V30 10 1 10 11
M  V30 11 2 11 12
M  V30 12 1 12 13
M  V30 13 2 13 14
M  V30 14 1 3 15
M  V30 15 1 15 16
M  V30 16 1 16 17
M  V30 17 1 17 18
M  V30 18 1 17 2
M  V30 19 1 14 9
M  V30 20 1 1 19
M  V30 21 1 2 20 CFG=3
M  V30 22 1 3 21 CFG=1
M  V30 23 1 4 22
M  V30 24 1 4 23
M  V30 25 1 5 24 CFG=3
M  V30 26 1 6 25
M  V30 27 1 6 26
M  V30 28 1 6 27
M  V30 29 1 7 28
M  V30 30 1 7 29
M  V30 31 1 8 30
M  V30 32 1 8 31
M  V30 33 1 10 32
M  V30 34 1 11 33
M  V30 35 1 12 34
M  V30 36 1 13 35
M  V30 37 1 14 36
M  V30 38 1 16 37
M  V30 39 1 16 38
M  V30 40 1 17 39 CFG=1
M  V30 41 1 18 40
M  V30 42 1 18 41
M  V30 43 1 18 42
M  V30 END BOND
M  V30 END CTAB
M  END
>  <Dataset>  (57) 
CF

>  <Ligand_Instance>  (57) 
322_A_501

>  <PDB_ID>  (57) 
nan

>  <Standardized_SMILES>  (57) 
[H]O[C@@]1([H])[C@]([H])(C([H])([H])[N@@+]([H])(C([H])([H])[H])C([H])([H])C([H])([H])C2=C([H])C([H])=C([H])C([H])=C2[H])OC([H])([H])[C@]1([H])[N+]([H])([H])[H]

>  <Name>  (57) 
(2S,3R,4S)‐4‐amino‐2‐{[methyl(2‐phenylethyl)amino]methyl}oxolan‐3‐ol

>  <Pocket>  (57) 
X

>  <ATP_Site>  (57) 
0.0

>  <Peripheral>  (57) 
1.0

>  <Num_H_Atoms_ProtBoundConf>  (57) 
24.0

>  <Num_Resolved_Atoms>  (57) 
18.0

>  <Num_Not_Resolved_Atoms>  (57) 
0.0

>  <2D_Mol_H>  (57) 
<rdkit.Chem.rdchem.Mol object at 0x72a238db66c0>

>  <MW>  (57) 
252.358

>  <HBA>  (57) 
2

>  <HBD>  (57) 
3

>  <LogP>  (57) 
-1.886

>  <NRB>  (57) 
8

>  <TPSA>  (57) 
61.54

>  <Num_Heavy_Atoms>  (57) 
18

>  <Ro5>  (57) 
[True, True, True, True, True, True]

>  <Ro5_Fulfilled>  (57) 
True

>  <Ro3>  (57) 
[True, True, True, True]

>  <Ro3_Fulfilled>  (57) 
True

>  <Fsp3>  (57) 
0.571429

>  <Fsp3_0.42>  (57) 
True

>  <Fsp3_0.45>  (57) 
True

>  <Stereogenic_Carbons>  (57) 
3

>  <C_Atoms>  (57) 
14

>  <FCStereo>  (57) 
0.214286

>  <SPS>  (57) 
529

>  <nSPS>  (57) 
29.388889

>  <PBF>  (57) 
0.958636

>  <PBF_0.6>  (57) 
True

>  <nPBF>  (57) 
0.053258

>  <nPBF_0.016>  (57) 
True

>  <PMI1>  (57) 
504.820334

>  <PMI2>  (57) 
3162.097349

>  <PMI3>  (57) 
3274.1082

>  <NPR1>  (57) 
0.154186

>  <NPR2>  (57) 
0.965789

>  <Sum_NPR>  (57) 
1.119974

>  <Sum_NPR_1.07>  (57) 
True

>  <Sum_NPR_1.2>  (57) 
False

>  <MaxAbsEStateIndex>  (57) 
9.890766

>  <MaxEStateIndex>  (57) 
9.890766

>  <MinAbsEStateIndex>  (57) 
0.024929

>  <MinEStateIndex>  (57) 
-0.405856

>  <qed>  (57) 
0.573972

>  <MolWt>  (57) 
252.358

>  <HeavyAtomMolWt>  (57) 
228.166

>  <ExactMolWt>  (57) 
252.182681

>  <NumValenceElectrons>  (57) 
100

>  <NumRadicalElectrons>  (57) 
0

>  <MaxPartialCharge>  (57) 
0.139354

>  <MinPartialCharge>  (57) 
-0.38383

>  <MaxAbsPartialCharge>  (57) 
0.38383

>  <MinAbsPartialCharge>  (57) 
0.139354

>  <FpDensityMorgan1>  (57) 
1.388889

>  <FpDensityMorgan2>  (57) 
2.111111

>  <FpDensityMorgan3>  (57) 
2.722222

>  <BCUT2D_MWHI>  (57) 
16.512713

>  <BCUT2D_MWLOW>  (57) 
10.099599

>  <BCUT2D_CHGHI>  (57) 
2.375368

>  <BCUT2D_CHGLO>  (57) 
-2.193561

>  <BCUT2D_LOGPHI>  (57) 
2.089697

>  <BCUT2D_LOGPLOW>  (57) 
-3.102884

>  <BCUT2D_MRHI>  (57) 
5.1395

>  <BCUT2D_MRLOW>  (57) 
-0.882542

>  <AvgIpc>  (57) 
2.696035

>  <BalabanJ>  (57) 
1.73944

>  <BertzCT>  (57) 
358.071441

>  <Chi0>  (57) 
12.957819

>  <Chi0n>  (57) 
11.009798

>  <Chi0v>  (57) 
11.009798

>  <Chi1>  (57) 
8.664704

>  <Chi1n>  (57) 
6.645332

>  <Chi1v>  (57) 
6.645332

>  <Chi2n>  (57) 
5.269287

>  <Chi2v>  (57) 
5.269287

>  <Chi3n>  (57) 
3.621202

>  <Chi3v>  (57) 
3.621202

>  <Chi4n>  (57) 
2.375513

>  <Chi4v>  (57) 
2.375513

>  <HallKierAlpha>  (57) 
-0.94

>  <Ipc>  (57) 
16068.370901

>  <Kappa1>  (57) 
13.490704

>  <Kappa2>  (57) 
6.292225

>  <Kappa3>  (57) 
3.525367

>  <LabuteASA>  (57) 
108.352612

>  <PEOE_VSA1>  (57) 
20.476968

>  <PEOE_VSA10>  (57) 
31.401412

>  <PEOE_VSA11>  (57) 
0.0

>  <PEOE_VSA12>  (57) 
0.0

>  <PEOE_VSA13>  (57) 
0.0

>  <PEOE_VSA14>  (57) 
0.0

>  <PEOE_VSA2>  (57) 
0.0

>  <PEOE_VSA3>  (57) 
0.0

>  <PEOE_VSA4>  (57) 
0.0

>  <PEOE_VSA5>  (57) 
0.0

>  <PEOE_VSA6>  (57) 
30.331835

>  <PEOE_VSA7>  (57) 
5.563451

>  <PEOE_VSA8>  (57) 
6.420822

>  <PEOE_VSA9>  (57) 
13.592428

>  <SMR_VSA1>  (57) 
20.476968

>  <SMR_VSA10>  (57) 
0.0

>  <SMR_VSA2>  (57) 
0.0

>  <SMR_VSA3>  (57) 
0.0

>  <SMR_VSA4>  (57) 
0.0

>  <SMR_VSA5>  (57) 
24.670595

>  <SMR_VSA6>  (57) 
26.744067

>  <SMR_VSA7>  (57) 
35.895287

>  <SMR_VSA8>  (57) 
0.0

>  <SMR_VSA9>  (57) 
0.0

>  <SlogP_VSA1>  (57) 
10.633577

>  <SlogP_VSA10>  (57) 
0.0

>  <SlogP_VSA11>  (57) 
0.0

>  <SlogP_VSA12>  (57) 
0.0

>  <SlogP_VSA2>  (57) 
50.100368

>  <SlogP_VSA3>  (57) 
11.157685

>  <SlogP_VSA4>  (57) 
0.0

>  <SlogP_VSA5>  (57) 
5.563451

>  <SlogP_VSA6>  (57) 
30.331835

>  <SlogP_VSA7>  (57) 
0.0

>  <SlogP_VSA8>  (57) 
0.0

>  <SlogP_VSA9>  (57) 
0.0

>  <EState_VSA1>  (57) 
6.103966

>  <EState_VSA10>  (57) 
5.106527

>  <EState_VSA11>  (57) 
0.0

>  <EState_VSA2>  (57) 
12.145807

>  <EState_VSA3>  (57) 
6.606882

>  <EState_VSA4>  (57) 
19.510334

>  <EState_VSA5>  (57) 
10.463361

>  <EState_VSA6>  (57) 
0.0

>  <EState_VSA7>  (57) 
6.066367

>  <EState_VSA8>  (57) 
37.046808

>  <EState_VSA9>  (57) 
4.736863

>  <VSA_EState1>  (57) 
5.566836

>  <VSA_EState10>  (57) 
0.0

>  <VSA_EState2>  (57) 
1.386114

>  <VSA_EState3>  (57) 
9.890766

>  <VSA_EState4>  (57) 
5.246266

>  <VSA_EState5>  (57) 
0.0

>  <VSA_EState6>  (57) 
10.512298

>  <VSA_EState7>  (57) 
0.600441

>  <VSA_EState8>  (57) 
2.482363

>  <VSA_EState9>  (57) 
2.148249

>  <FractionCSP3>  (57) 
0.571429

>  <HeavyAtomCount>  (57) 
18

>  <NHOHCount>  (57) 
5

>  <NOCount>  (57) 
4

>  <NumAliphaticCarbocycles>  (57) 
0

>  <NumAliphaticHeterocycles>  (57) 
1

>  <NumAliphaticRings>  (57) 
1

>  <NumAromaticCarbocycles>  (57) 
1

>  <NumAromaticHeterocycles>  (57) 
0

>  <NAR>  (57) 
1

>  <NumHAcceptors>  (57) 
2

>  <NumHDonors>  (57) 
3

>  <NumHeteroatoms>  (57) 
4

>  <NumRotatableBonds>  (57) 
5

>  <NumSaturatedCarbocycles>  (57) 
0

>  <NumSaturatedHeterocycles>  (57) 
1

>  <NumSaturatedRings>  (57) 
1

>  <RingCount>  (57) 
2

>  <MolLogP>  (57) 
-1.886

>  <MolMR>  (57) 
69.1896

>  <fr_Al_COO>  (57) 
0

>  <fr_Al_OH>  (57) 
1

>  <fr_Al_OH_noTert>  (57) 
1

>  <fr_ArN>  (57) 
0

>  <fr_Ar_COO>  (57) 
0

>  <fr_Ar_N>  (57) 
0

>  <fr_Ar_NH>  (57) 
0

>  <fr_Ar_OH>  (57) 
0

>  <fr_COO>  (57) 
0

>  <fr_COO2>  (57) 
0

>  <fr_C_O>  (57) 
0

>  <fr_C_O_noCOO>  (57) 
0

>  <fr_C_S>  (57) 
0

>  <fr_HOCCN>  (57) 
0

>  <fr_Imine>  (57) 
0

>  <fr_NH0>  (57) 
0

>  <fr_NH1>  (57) 
1

>  <fr_NH2>  (57) 
0

>  <fr_N_O>  (57) 
0

>  <fr_Ndealkylation1>  (57) 
1

>  <fr_Ndealkylation2>  (57) 
0

>  <fr_Nhpyrrole>  (57) 
0

>  <fr_SH>  (57) 
0

>  <fr_aldehyde>  (57) 
0

>  <fr_alkyl_carbamate>  (57) 
0

>  <fr_alkyl_halide>  (57) 
0

>  <fr_allylic_oxid>  (57) 
0

>  <fr_amide>  (57) 
0

>  <fr_amidine>  (57) 
0

>  <fr_aniline>  (57) 
0

>  <fr_aryl_methyl>  (57) 
0

>  <fr_azide>  (57) 
0

>  <fr_azo>  (57) 
0

>  <fr_barbitur>  (57) 
0

>  <fr_benzene>  (57) 
1

>  <fr_benzodiazepine>  (57) 
0

>  <fr_bicyclic>  (57) 
0

>  <fr_diazo>  (57) 
0

>  <fr_dihydropyridine>  (57) 
0

>  <fr_epoxide>  (57) 
0

>  <fr_ester>  (57) 
0

>  <fr_ether>  (57) 
1

>  <fr_furan>  (57) 
0

>  <fr_guanido>  (57) 
0

>  <fr_halogen>  (57) 
0

>  <fr_hdrzine>  (57) 
0

>  <fr_hdrzone>  (57) 
0

>  <fr_imidazole>  (57) 
0

>  <fr_imide>  (57) 
0

>  <fr_isocyan>  (57) 
0

>  <fr_isothiocyan>  (57) 
0

>  <fr_ketone>  (57) 
0

>  <fr_ketone_Topliss>  (57) 
0

>  <fr_lactam>  (57) 
0

>  <fr_lactone>  (57) 
0

>  <fr_methoxy>  (57) 
0

>  <fr_morpholine>  (57) 
0

>  <fr_nitrile>  (57) 
0

>  <fr_nitro>  (57) 
0

>  <fr_nitro_arom>  (57) 
0

>  <fr_nitro_arom_nonortho>  (57) 
0

>  <fr_nitroso>  (57) 
0

>  <fr_oxazole>  (57) 
0

>  <fr_oxime>  (57) 
0

>  <fr_para_hydroxylation>  (57) 
0

>  <fr_phenol>  (57) 
0

>  <fr_phenol_noOrthoHbond>  (57) 
0

>  <fr_phos_acid>  (57) 
0

>  <fr_phos_ester>  (57) 
0

>  <fr_piperdine>  (57) 
0

>  <fr_piperzine>  (57) 
0

>  <fr_priamide>  (57) 
0

>  <fr_prisulfonamd>  (57) 
0

>  <fr_pyridine>  (57) 
0

>  <fr_quatN>  (57) 
2

>  <fr_sulfide>  (57) 
0

>  <fr_sulfonamd>  (57) 
0

>  <fr_sulfone>  (57) 
0

>  <fr_term_acetylene>  (57) 
0

>  <fr_tetrazole>  (57) 
0

>  <fr_thiazole>  (57) 
0

>  <fr_thiocyan>  (57) 
0

>  <fr_thiophene>  (57) 
0

>  <fr_unbrch_alkane>  (57) 
0

>  <fr_urea>  (57) 
0

>  <NP-Likeness>  (57) 
0.562235

$$$$
