nan
     RDKit          3D

  0  0  0  0  0  0  0  0  0  0999 V3000
M  V30 BEGIN CTAB
M  V30 COUNTS 41 44 0 0 0
M  V30 BEGIN ATOM
M  V30 1 H 1.683682 -3.795959 2.285373 0 MASS=2
M  V30 2 C 0.717981 -3.506317 1.754009 0
M  V30 3 H 0.345670 -2.653372 2.316919 0 MASS=2
M  V30 4 C 1.086023 -3.244781 0.337443 0
M  V30 5 C 0.525946 -2.026039 -0.291058 0 CFG=1
M  V30 6 C -0.957341 -1.917168 -0.378367 0
M  V30 7 C -1.671881 -1.931269 0.886359 0
M  V30 8 N -2.258262 -1.937279 1.884384 0
M  V30 9 N 1.103161 -0.830382 0.356875 0
M  V30 10 C 0.688337 0.426021 0.113746 0
M  V30 11 C 1.500657 1.203177 0.930374 0
M  V30 12 C 1.438381 2.659512 1.027217 0
M  V30 13 N 2.541310 3.453626 1.020875 0
M  V30 14 C 2.424098 4.803233 1.113712 0
M  V30 15 N 1.209905 5.400414 1.215262 0
M  V30 16 C 0.083681 4.681755 1.227666 0
M  V30 17 N -1.220382 4.963581 1.313623 0
M  V30 18 C -1.986745 3.836755 1.281072 0
M  V30 19 C -1.066225 2.815248 1.167530 0
M  V30 20 C 0.220634 3.307319 1.132206 0
M  V30 21 C 2.376956 0.406093 1.639298 0
M  V30 22 N 2.095135 -0.842430 1.253020 0
M  V30 23 C 0.697051 -4.466100 -0.473700 0
M  V30 24 H 1.555763 -4.845939 -1.103971 0 MASS=2
M  V30 25 H -0.150448 -4.260931 -1.134744 0 MASS=2
M  V30 26 C 0.343156 -5.491363 0.568360 0
M  V30 27 H 1.212952 -6.119530 0.842187 0 MASS=2
M  V30 28 H -0.475056 -6.164286 0.214975 0 MASS=2
M  V30 29 C -0.124110 -4.748965 1.795954 0
M  V30 30 H 0.126264 -5.358021 2.716785 0 MASS=2
M  V30 31 H -1.200437 -4.594241 1.852959 0 MASS=2
M  V30 32 H 2.215903 -3.155040 0.210069 0
M  V30 33 H 0.900771 -1.939587 -1.357876 0
M  V30 34 H -1.408403 -2.686648 -1.050329 0
M  V30 35 H -1.257456 -0.937183 -0.866760 0
M  V30 36 H -0.097926 0.714702 -0.567197 0
M  V30 37 H 3.301960 5.442080 1.109097 0
M  V30 38 H -1.608682 5.937774 1.396432 0
M  V30 39 H -3.066676 3.839705 1.337450 0
M  V30 40 H -1.431564 1.787445 1.120477 0
M  V30 41 H 3.139052 0.678340 2.357379 0
M  V30 END ATOM
M  V30 BEGIN BOND
M  V30 1 1 1 2
M  V30 2 1 2 3
M  V30 3 1 2 4
M  V30 4 1 4 5
M  V30 5 1 5 6
M  V30 6 1 6 7
M  V30 7 3 7 8
M  V30 8 1 5 9
M  V30 9 1 9 10
M  V30 10 2 10 11
M  V30 11 1 11 12
M  V30 12 2 12 13
M  V30 13 1 13 14
M  V30 14 2 14 15
M  V30 15 1 15 16
M  V30 16 1 16 17
M  V30 17 1 17 18
M  V30 18 2 18 19
M  V30 19 1 19 20
M  V30 20 1 11 21
M  V30 21 2 21 22
M  V30 22 1 4 23
M  V30 23 1 23 24
M  V30 24 1 23 25
M  V30 25 1 23 26
M  V30 26 1 26 27
M  V30 27 1 26 28
M  V30 28 1 26 29
M  V30 29 1 29 30
M  V30 30 1 29 31
M  V30 31 1 29 2
M  V30 32 1 22 9
M  V30 33 1 20 12
M  V30 34 2 20 16
M  V30 35 1 4 32
M  V30 36 1 5 33 CFG=3
M  V30 37 1 6 34
M  V30 38 1 6 35
M  V30 39 1 10 36
M  V30 40 1 14 37
M  V30 41 1 17 38
M  V30 42 1 18 39
M  V30 43 1 19 40
M  V30 44 1 21 41
M  V30 END BOND
M  V30 END CTAB
M  END
>  <Dataset>  (1) 
PKIs

>  <Ligand_Instance>  (1) 
nan

>  <PDB_ID>  (1) 
nan

>  <Standardized_SMILES>  (1) 
[2H]C1([2H])C([C@@H](CC#N)n2cc(-c3ncnc4[nH]ccc34)cn2)C([2H])([2H])C([2H])([2H])C1([2H])[2H]

>  <Name>  (1) 
Deuruxolitinib

>  <Pocket>  (1) 
nan

>  <ATP_Site>  (1) 
nan

>  <Peripheral>  (1) 
nan

>  <Num_H_Atoms_ProtBoundConf>  (1) 
nan

>  <Num_Resolved_Atoms>  (1) 
nan

>  <Num_Not_Resolved_Atoms>  (1) 
nan

>  <2D_Mol_H>  (1) 
<rdkit.Chem.rdchem.Mol object at 0x72a239111460>

>  <MW>  (1) 
314.421814

>  <HBA>  (1) 
5

>  <HBD>  (1) 
1

>  <LogP>  (1) 
3.46638

>  <NRB>  (1) 
4

>  <TPSA>  (1) 
83.18

>  <Num_Heavy_Atoms>  (1) 
23

>  <Ro5>  (1) 
[True, True, True, True, True, True]

>  <Ro5_Fulfilled>  (1) 
True

>  <Ro3>  (1) 
[False, False, True, False]

>  <Ro3_Fulfilled>  (1) 
False

>  <Fsp3>  (1) 
0.411765

>  <Fsp3_0.42>  (1) 
False

>  <Fsp3_0.45>  (1) 
False

>  <Stereogenic_Carbons>  (1) 
1

>  <C_Atoms>  (1) 
17

>  <FCStereo>  (1) 
0.058824

>  <SPS>  (1) 
703

>  <nSPS>  (1) 
30.565217

>  <PBF>  (1) 
0.7781

>  <PBF_0.6>  (1) 
True

>  <nPBF>  (1) 
0.03383

>  <nPBF_0.016>  (1) 
True

>  <PMI1>  (1) 
781.159145

>  <PMI2>  (1) 
3989.873886

>  <PMI3>  (1) 
4445.438859

>  <NPR1>  (1) 
0.175721

>  <NPR2>  (1) 
0.897521

>  <Sum_NPR>  (1) 
1.073242

>  <Sum_NPR_1.07>  (1) 
True

>  <Sum_NPR_1.2>  (1) 
False

>  <MaxAbsEStateIndex>  (1) 
9.348098

>  <MaxEStateIndex>  (1) 
9.348098

>  <MinAbsEStateIndex>  (1) 
0.388585

>  <MinEStateIndex>  (1) 
-3.123217

>  <qed>  (1) 
0.79896

>  <MolWt>  (1) 
314.421814

>  <HeavyAtomMolWt>  (1) 
288.229

>  <ExactMolWt>  (1) 
314.209509

>  <NumValenceElectrons>  (1) 
116

>  <NumRadicalElectrons>  (1) 
0

>  <MaxPartialCharge>  (1) 
0.140806

>  <MinPartialCharge>  (1) 
-0.346035

>  <MaxAbsPartialCharge>  (1) 
0.346035

>  <MinAbsPartialCharge>  (1) 
0.140806

>  <FpDensityMorgan1>  (1) 
1.434783

>  <FpDensityMorgan2>  (1) 
2.304348

>  <FpDensityMorgan3>  (1) 
3.130435

>  <BCUT2D_MWHI>  (1) 
15.285713

>  <BCUT2D_MWLOW>  (1) 
1.781339

>  <BCUT2D_CHGHI>  (1) 
2.686815

>  <BCUT2D_CHGLO>  (1) 
-2.469137

>  <BCUT2D_LOGPHI>  (1) 
2.832685

>  <BCUT2D_LOGPLOW>  (1) 
-2.34217

>  <BCUT2D_MRHI>  (1) 
5.89472

>  <BCUT2D_MRLOW>  (1) 
-0.444575

>  <AvgIpc>  (1) 
3.365713

>  <BalabanJ>  (1) 
1.827701

>  <BertzCT>  (1) 
1150.713837

>  <Chi0>  (1) 
22.819626

>  <Chi0n>  (1) 
19.984627

>  <Chi0v>  (1) 
11.984627

>  <Chi1>  (1) 
14.375358

>  <Chi1n>  (1) 
11.072334

>  <Chi1v>  (1) 
7.072334

>  <Chi2n>  (1) 
5.117182

>  <Chi2v>  (1) 
5.117182

>  <Chi3n>  (1) 
3.77174

>  <Chi3v>  (1) 
3.77174

>  <Chi4n>  (1) 
2.657909

>  <Chi4v>  (1) 
2.657909

>  <HallKierAlpha>  (1) 
-2.68

>  <Ipc>  (1) 
7709209.102687

>  <Kappa1>  (1) 
7.732046

>  <Kappa2>  (1) 
5.840474

>  <Kappa3>  (1) 
2.48227

>  <LabuteASA>  (1) 
144.971901

>  <PEOE_VSA1>  (1) 
4.983979

>  <PEOE_VSA10>  (1) 
11.974497

>  <PEOE_VSA11>  (1) 
0.0

>  <PEOE_VSA12>  (1) 
0.0

>  <PEOE_VSA13>  (1) 
0.0

>  <PEOE_VSA14>  (1) 
0.0

>  <PEOE_VSA2>  (1) 
4.681803

>  <PEOE_VSA3>  (1) 
9.967957

>  <PEOE_VSA4>  (1) 
10.360573

>  <PEOE_VSA5>  (1) 
0.0

>  <PEOE_VSA6>  (1) 
12.74585

>  <PEOE_VSA7>  (1) 
24.730123

>  <PEOE_VSA8>  (1) 
34.309431

>  <PEOE_VSA9>  (1) 
30.422655

>  <SMR_VSA1>  (1) 
10.966068

>  <SMR_VSA10>  (1) 
11.033401

>  <SMR_VSA2>  (1) 
5.261892

>  <SMR_VSA3>  (1) 
24.73242

>  <SMR_VSA4>  (1) 
5.917906

>  <SMR_VSA5>  (1) 
37.954362

>  <SMR_VSA6>  (1) 
0.0

>  <SMR_VSA7>  (1) 
30.984218

>  <SMR_VSA8>  (1) 
0.0

>  <SMR_VSA9>  (1) 
17.326601

>  <SlogP_VSA1>  (1) 
0.0

>  <SlogP_VSA10>  (1) 
0.0

>  <SlogP_VSA11>  (1) 
0.0

>  <SlogP_VSA12>  (1) 
0.0

>  <SlogP_VSA2>  (1) 
24.73242

>  <SlogP_VSA3>  (1) 
0.0

>  <SlogP_VSA4>  (1) 
17.249019

>  <SlogP_VSA5>  (1) 
48.920431

>  <SlogP_VSA6>  (1) 
30.984218

>  <SlogP_VSA7>  (1) 
0.0

>  <SlogP_VSA8>  (1) 
22.290781

>  <SlogP_VSA9>  (1) 
0.0

>  <EState_VSA1>  (1) 
37.451446

>  <EState_VSA10>  (1) 
5.261892

>  <EState_VSA11>  (1) 
0.0

>  <EState_VSA2>  (1) 
6.420822

>  <EState_VSA3>  (1) 
22.290781

>  <EState_VSA4>  (1) 
0.0

>  <EState_VSA5>  (1) 
23.40281

>  <EState_VSA6>  (1) 
12.263211

>  <EState_VSA7>  (1) 
6.069221

>  <EState_VSA8>  (1) 
20.050617

>  <EState_VSA9>  (1) 
10.966068

>  <VSA_EState1>  (1) 
66.531742

>  <VSA_EState10>  (1) 
0.0

>  <VSA_EState2>  (1) 
11.323552

>  <VSA_EState3>  (1) 
14.245284

>  <VSA_EState4>  (1) 
1.632005

>  <VSA_EState5>  (1) 
-1.810114

>  <VSA_EState6>  (1) 
2.398138

>  <VSA_EState7>  (1) 
-6.487274

>  <VSA_EState8>  (1) 
0.0

>  <VSA_EState9>  (1) 
0.0

>  <FractionCSP3>  (1) 
0.411765

>  <HeavyAtomCount>  (1) 
23

>  <NHOHCount>  (1) 
1

>  <NOCount>  (1) 
6

>  <NumAliphaticCarbocycles>  (1) 
1

>  <NumAliphaticHeterocycles>  (1) 
0

>  <NumAliphaticRings>  (1) 
1

>  <NumAromaticCarbocycles>  (1) 
0

>  <NumAromaticHeterocycles>  (1) 
3

>  <NumAromaticRings>  (1) 
3

>  <NumHAcceptors>  (1) 
5

>  <NumHDonors>  (1) 
1

>  <NumHeteroatoms>  (1) 
6

>  <NumRotatableBonds>  (1) 
4

>  <NumSaturatedCarbocycles>  (1) 
1

>  <NumSaturatedHeterocycles>  (1) 
0

>  <NumSaturatedRings>  (1) 
1

>  <RingCount>  (1) 
4

>  <MolLogP>  (1) 
3.46638

>  <MolMR>  (1) 
86.3347

>  <fr_Al_COO>  (1) 
0

>  <fr_Al_OH>  (1) 
0

>  <fr_Al_OH_noTert>  (1) 
0

>  <fr_ArN>  (1) 
0

>  <fr_Ar_COO>  (1) 
0

>  <fr_Ar_N>  (1) 
5

>  <fr_Ar_NH>  (1) 
1

>  <fr_Ar_OH>  (1) 
0

>  <fr_COO>  (1) 
0

>  <fr_COO2>  (1) 
0

>  <fr_C_O>  (1) 
0

>  <fr_C_O_noCOO>  (1) 
0

>  <fr_C_S>  (1) 
0

>  <fr_HOCCN>  (1) 
0

>  <fr_Imine>  (1) 
0

>  <fr_NH0>  (1) 
5

>  <fr_NH1>  (1) 
1

>  <fr_NH2>  (1) 
0

>  <fr_N_O>  (1) 
0

>  <fr_Ndealkylation1>  (1) 
0

>  <fr_Ndealkylation2>  (1) 
0

>  <fr_Nhpyrrole>  (1) 
1

>  <fr_SH>  (1) 
0

>  <fr_aldehyde>  (1) 
0

>  <fr_alkyl_carbamate>  (1) 
0

>  <fr_alkyl_halide>  (1) 
0

>  <fr_allylic_oxid>  (1) 
0

>  <fr_amide>  (1) 
0

>  <fr_amidine>  (1) 
0

>  <fr_aniline>  (1) 
0

>  <fr_aryl_methyl>  (1) 
0

>  <fr_azide>  (1) 
0

>  <fr_azo>  (1) 
0

>  <fr_barbitur>  (1) 
0

>  <fr_benzene>  (1) 
0

>  <fr_benzodiazepine>  (1) 
0

>  <fr_bicyclic>  (1) 
1

>  <fr_diazo>  (1) 
0

>  <fr_dihydropyridine>  (1) 
0

>  <fr_epoxide>  (1) 
0

>  <fr_ester>  (1) 
0

>  <fr_ether>  (1) 
0

>  <fr_furan>  (1) 
0

>  <fr_guanido>  (1) 
0

>  <fr_halogen>  (1) 
0

>  <fr_hdrzine>  (1) 
0

>  <fr_hdrzone>  (1) 
0

>  <fr_imidazole>  (1) 
0

>  <fr_imide>  (1) 
0

>  <fr_isocyan>  (1) 
0

>  <fr_isothiocyan>  (1) 
0

>  <fr_ketone>  (1) 
0

>  <fr_ketone_Topliss>  (1) 
0

>  <fr_lactam>  (1) 
0

>  <fr_lactone>  (1) 
0

>  <fr_methoxy>  (1) 
0

>  <fr_morpholine>  (1) 
0

>  <fr_nitrile>  (1) 
1

>  <fr_nitro>  (1) 
0

>  <fr_nitro_arom>  (1) 
0

>  <fr_nitro_arom_nonortho>  (1) 
0

>  <fr_nitroso>  (1) 
0

>  <fr_oxazole>  (1) 
0

>  <fr_oxime>  (1) 
0

>  <fr_para_hydroxylation>  (1) 
0

>  <fr_phenol>  (1) 
0

>  <fr_phenol_noOrthoHbond>  (1) 
0

>  <fr_phos_acid>  (1) 
0

>  <fr_phos_ester>  (1) 
0

>  <fr_piperdine>  (1) 
0

>  <fr_piperzine>  (1) 
0

>  <fr_priamide>  (1) 
0

>  <fr_prisulfonamd>  (1) 
0

>  <fr_pyridine>  (1) 
0

>  <fr_quatN>  (1) 
0

>  <fr_sulfide>  (1) 
0

>  <fr_sulfonamd>  (1) 
0

>  <fr_sulfone>  (1) 
0

>  <fr_term_acetylene>  (1) 
0

>  <fr_tetrazole>  (1) 
0

>  <fr_thiazole>  (1) 
0

>  <fr_thiocyan>  (1) 
0

>  <fr_thiophene>  (1) 
0

>  <fr_unbrch_alkane>  (1) 
0

>  <fr_urea>  (1) 
0

>  <NP_Likeness>  (1) 
-0.700635

$$$$
nan
     RDKit          3D

  0  0  0  0  0  0  0  0  0  0999 V3000
M  V30 BEGIN CTAB
M  V30 COUNTS 53 56 0 0 0
M  V30 BEGIN ATOM
M  V30 1 N -7.418228 2.186373 -2.773533 0
M  V30 2 C -6.545571 2.931230 -2.619853 0
M  V30 3 C -5.440234 3.881919 -2.402006 0
M  V30 4 N -4.332226 3.128627 -1.852971 0
M  V30 5 C -3.221701 3.976658 -1.614404 0
M  V30 6 O -3.468810 5.185079 -1.939282 0
M  V30 7 C -1.945191 3.518479 -1.061651 0
M  V30 8 C -1.692692 2.202071 -0.722436 0
M  V30 9 C -0.446241 1.898408 -0.208288 0
M  V30 10 C 0.575482 2.796994 -0.001938 0
M  V30 11 C 1.869798 2.423779 0.543389 0
M  V30 12 C 2.844883 3.370720 0.726278 0
M  V30 13 C 4.056154 2.973803 1.247852 0
M  V30 14 N 4.267382 1.692654 1.565793 0
M  V30 15 C 3.333668 0.746776 1.397865 0
M  V30 16 N 3.639240 -0.588836 1.763820 0
M  V30 17 C 2.826306 -1.749036 1.669979 0
M  V30 18 C 1.553947 -1.808535 1.147897 0
M  V30 19 C 0.779872 -2.945314 1.069550 0
M  V30 20 C 1.281891 -4.123783 1.536911 0
M  V30 21 N 0.517324 -5.317082 1.471023 0
M  V30 22 C -0.768096 -5.483446 0.861446 0
M  V30 23 C -1.746863 -5.917788 1.953752 0
M  V30 24 O -1.422974 -7.245322 2.229494 0
M  V30 25 C -0.197385 -7.223131 2.874214 0
M  V30 26 C 0.904882 -6.600651 2.022594 0
M  V30 27 C 2.542110 -4.114759 2.064598 0
M  V30 28 C 3.287985 -2.964367 2.128038 0
M  V30 29 N 2.166351 1.164961 0.888529 0
M  V30 30 C 0.274051 4.089903 -0.354911 0
M  V30 31 C -0.965326 4.483426 -0.883100 0
M  V30 32 H -5.781524 4.634651 -1.691600 0
M  V30 33 H -5.217168 4.329896 -3.380659 0
M  V30 34 H -4.248615 2.105829 -1.623745 0
M  V30 35 H -2.468259 1.464333 -0.868875 0
M  V30 36 H -0.319105 0.855070 0.034174 0
M  V30 37 H 2.760506 4.400497 0.502552 0
M  V30 38 H 4.867080 3.669389 1.417484 0
M  V30 39 H 4.596619 -0.751432 2.158905 0
M  V30 40 H 1.117255 -0.898576 0.764512 0
M  V30 41 H -0.220795 -2.848200 0.628752 0
M  V30 42 H -0.740333 -6.329923 0.128687 0
M  V30 43 H -1.212634 -4.577244 0.420575 0
M  V30 44 H -2.796610 -5.789443 1.612660 0
M  V30 45 H -1.627549 -5.342874 2.877770 0
M  V30 46 H 0.111547 -8.270225 3.066219 0
M  V30 47 H -0.268977 -6.726277 3.875322 0
M  V30 48 H 1.015741 -7.303669 1.147379 0
M  V30 49 H 1.793694 -6.590155 2.648691 0
M  V30 50 H 3.019770 -5.011523 2.459024 0
M  V30 51 H 4.289721 -3.014104 2.560614 0
M  V30 52 H 0.971864 4.899171 -0.250306 0
M  V30 53 H -1.165947 5.511018 -1.149180 0
M  V30 END ATOM
M  V30 BEGIN BOND
M  V30 1 3 1 2
M  V30 2 1 2 3
M  V30 3 1 3 4
M  V30 4 1 4 5
M  V30 5 2 5 6
M  V30 6 1 5 7
M  V30 7 2 7 8
M  V30 8 1 8 9
M  V30 9 2 9 10
M  V30 10 1 10 11
M  V30 11 2 11 12
M  V30 12 1 12 13
M  V30 13 2 13 14
M  V30 14 1 14 15
M  V30 15 1 15 16
M  V30 16 1 16 17
M  V30 17 2 17 18
M  V30 18 1 18 19
M  V30 19 2 19 20
M  V30 20 1 20 21
M  V30 21 1 21 22
M  V30 22 1 22 23
M  V30 23 1 23 24
M  V30 24 1 24 25
M  V30 25 1 25 26
M  V30 26 1 20 27
M  V30 27 2 27 28
M  V30 28 2 15 29
M  V30 29 1 10 30
M  V30 30 2 30 31
M  V30 31 1 31 7
M  V30 32 1 29 11
M  V30 33 1 28 17
M  V30 34 1 26 21
M  V30 35 1 3 32
M  V30 36 1 3 33
M  V30 37 1 4 34
M  V30 38 1 8 35
M  V30 39 1 9 36
M  V30 40 1 12 37
M  V30 41 1 13 38
M  V30 42 1 16 39
M  V30 43 1 18 40
M  V30 44 1 19 41
M  V30 45 1 22 42
M  V30 46 1 22 43
M  V30 47 1 23 44
M  V30 48 1 23 45
M  V30 49 1 25 46
M  V30 50 1 25 47
M  V30 51 1 26 48
M  V30 52 1 26 49
M  V30 53 1 27 50
M  V30 54 1 28 51
M  V30 55 1 30 52
M  V30 56 1 31 53
M  V30 END BOND
M  V30 END CTAB
M  END
>  <Dataset>  (2) 
PKIs

>  <Ligand_Instance>  (2) 
nan

>  <PDB_ID>  (2) 
nan

>  <Standardized_SMILES>  (2) 
N#CCNC(=O)c1ccc(-c2ccnc(Nc3ccc(N4CCOCC4)cc3)n2)cc1

>  <Name>  (2) 
Momelotinib

>  <Pocket>  (2) 
nan

>  <ATP_Site>  (2) 
nan

>  <Peripheral>  (2) 
nan

>  <Num_H_Atoms_ProtBoundConf>  (2) 
nan

>  <Num_Resolved_Atoms>  (2) 
nan

>  <Num_Not_Resolved_Atoms>  (2) 
nan

>  <2D_Mol_H>  (2) 
<rdkit.Chem.rdchem.Mol object at 0x72a239111540>

>  <MW>  (2) 
414.469

>  <HBA>  (2) 
7

>  <HBD>  (2) 
2

>  <LogP>  (2) 
2.97718

>  <NRB>  (2) 
6

>  <TPSA>  (2) 
103.17

>  <Num_Heavy_Atoms>  (2) 
31

>  <Ro5>  (2) 
[True, True, True, True, True, True]

>  <Ro5_Fulfilled>  (2) 
True

>  <Ro3>  (2) 
[False, False, True, True]

>  <Ro3_Fulfilled>  (2) 
False

>  <Fsp3>  (2) 
0.217391

>  <Fsp3_0.42>  (2) 
False

>  <Fsp3_0.45>  (2) 
False

>  <Stereogenic_Carbons>  (2) 
0

>  <C_Atoms>  (2) 
23

>  <FCStereo>  (2) 
0.0

>  <SPS>  (2) 
413

>  <nSPS>  (2) 
13.322581

>  <PBF>  (2) 
0.330819

>  <PBF_0.6>  (2) 
False

>  <nPBF>  (2) 
0.010672

>  <nPBF_0.016>  (2) 
False

>  <PMI1>  (2) 
3584.448847

>  <PMI2>  (2) 
8113.603946

>  <PMI3>  (2) 
11618.634121

>  <NPR1>  (2) 
0.308509

>  <NPR2>  (2) 
0.698327

>  <Sum_NPR>  (2) 
1.006835

>  <Sum_NPR_1.07>  (2) 
False

>  <Sum_NPR_1.2>  (2) 
False

>  <MaxAbsEStateIndex>  (2) 
11.926602

>  <MaxEStateIndex>  (2) 
11.926602

>  <MinAbsEStateIndex>  (2) 
0.018898

>  <MinEStateIndex>  (2) 
-0.27901

>  <qed>  (2) 
0.597823

>  <MolWt>  (2) 
414.469

>  <HeavyAtomMolWt>  (2) 
392.293

>  <ExactMolWt>  (2) 
414.180424

>  <NumValenceElectrons>  (2) 
156

>  <NumRadicalElectrons>  (2) 
0

>  <MaxPartialCharge>  (2) 
0.251601

>  <MinPartialCharge>  (2) 
-0.377778

>  <MaxAbsPartialCharge>  (2) 
0.377778

>  <MinAbsPartialCharge>  (2) 
0.251601

>  <FpDensityMorgan1>  (2) 
1.064516

>  <FpDensityMorgan2>  (2) 
1.806452

>  <FpDensityMorgan3>  (2) 
2.516129

>  <BCUT2D_MWHI>  (2) 
16.477501

>  <BCUT2D_MWLOW>  (2) 
10.08761

>  <BCUT2D_CHGHI>  (2) 
2.110794

>  <BCUT2D_CHGLO>  (2) 
-2.284557

>  <BCUT2D_LOGPHI>  (2) 
2.224976

>  <BCUT2D_LOGPLOW>  (2) 
-2.356081

>  <BCUT2D_MRHI>  (2) 
5.942851

>  <BCUT2D_MRLOW>  (2) 
0.095823

>  <AvgIpc>  (2) 
2.837014

>  <BalabanJ>  (2) 
1.433525

>  <BertzCT>  (2) 
1070.470878

>  <Chi0>  (2) 
21.468045

>  <Chi0n>  (2) 
16.914388

>  <Chi0v>  (2) 
16.914388

>  <Chi1>  (2) 
15.224678

>  <Chi1n>  (2) 
10.012012

>  <Chi1v>  (2) 
10.012012

>  <Chi2n>  (2) 
6.954924

>  <Chi2v>  (2) 
6.954924

>  <Chi3n>  (2) 
4.926113

>  <Chi3v>  (2) 
4.926113

>  <Chi4n>  (2) 
3.300163

>  <Chi4v>  (2) 
3.300163

>  <HallKierAlpha>  (2) 
-3.96

>  <Ipc>  (2) 
16661666.991598

>  <Kappa1>  (2) 
20.318367

>  <Kappa2>  (2) 
9.693819

>  <Kappa3>  (2) 
5.153226

>  <LabuteASA>  (2) 
180.060856

>  <PEOE_VSA1>  (2) 
20.27035

>  <PEOE_VSA10>  (2) 
6.544756

>  <PEOE_VSA11>  (2) 
0.0

>  <PEOE_VSA12>  (2) 
5.948339

>  <PEOE_VSA13>  (2) 
5.90718

>  <PEOE_VSA14>  (2) 
0.0

>  <PEOE_VSA2>  (2) 
4.794537

>  <PEOE_VSA3>  (2) 
9.967957

>  <PEOE_VSA4>  (2) 
5.261892

>  <PEOE_VSA5>  (2) 
0.0

>  <PEOE_VSA6>  (2) 
12.132734

>  <PEOE_VSA7>  (2) 
42.464569

>  <PEOE_VSA8>  (2) 
41.788032

>  <PEOE_VSA9>  (2) 
24.976913

>  <SMR_VSA1>  (2) 
9.5314

>  <SMR_VSA10>  (2) 
23.230292

>  <SMR_VSA2>  (2) 
5.261892

>  <SMR_VSA3>  (2) 
15.284746

>  <SMR_VSA4>  (2) 
0.0

>  <SMR_VSA5>  (2) 
0.0

>  <SMR_VSA6>  (2) 
43.064731

>  <SMR_VSA7>  (2) 
66.357599

>  <SMR_VSA8>  (2) 
0.0

>  <SMR_VSA9>  (2) 
17.326601

>  <SlogP_VSA1>  (2) 
15.533487

>  <SlogP_VSA10>  (2) 
17.323112

>  <SlogP_VSA11>  (2) 
0.0

>  <SlogP_VSA12>  (2) 
0.0

>  <SlogP_VSA2>  (2) 
48.72317

>  <SlogP_VSA3>  (2) 
4.736863

>  <SlogP_VSA4>  (2) 
11.331113

>  <SlogP_VSA5>  (2) 
10.357989

>  <SlogP_VSA6>  (2) 
60.794147

>  <SlogP_VSA7>  (2) 
0.0

>  <SlogP_VSA8>  (2) 
11.257379

>  <SlogP_VSA9>  (2) 
0.0

>  <EState_VSA1>  (2) 
0.0

>  <EState_VSA10>  (2) 
4.794537

>  <EState_VSA11>  (2) 
0.0

>  <EState_VSA2>  (2) 
12.451936

>  <EState_VSA3>  (2) 
11.511791

>  <EState_VSA4>  (2) 
43.248043

>  <EState_VSA5>  (2) 
5.687386

>  <EState_VSA6>  (2) 
18.329578

>  <EState_VSA7>  (2) 
36.401057

>  <EState_VSA8>  (2) 
37.634178

>  <EState_VSA9>  (2) 
9.998755

>  <VSA_EState1>  (2) 
5.403347

>  <VSA_EState10>  (2) 
0.0

>  <VSA_EState2>  (2) 
23.116825

>  <VSA_EState3>  (2) 
14.329296

>  <VSA_EState4>  (2) 
4.170572

>  <VSA_EState5>  (2) 
0.214011

>  <VSA_EState6>  (2) 
18.945542

>  <VSA_EState7>  (2) 
1.694747

>  <VSA_EState8>  (2) 
3.292328

>  <VSA_EState9>  (2) 
0.0

>  <FractionCSP3>  (2) 
0.217391

>  <HeavyAtomCount>  (2) 
31

>  <NHOHCount>  (2) 
2

>  <NOCount>  (2) 
8

>  <NumAliphaticCarbocycles>  (2) 
0

>  <NumAliphaticHeterocycles>  (2) 
1

>  <NumAliphaticRings>  (2) 
1

>  <NumAromaticCarbocycles>  (2) 
2

>  <NumAromaticHeterocycles>  (2) 
1

>  <NumAromaticRings>  (2) 
3

>  <NumHAcceptors>  (2) 
7

>  <NumHDonors>  (2) 
2

>  <NumHeteroatoms>  (2) 
8

>  <NumRotatableBonds>  (2) 
6

>  <NumSaturatedCarbocycles>  (2) 
0

>  <NumSaturatedHeterocycles>  (2) 
1

>  <NumSaturatedRings>  (2) 
1

>  <RingCount>  (2) 
4

>  <MolLogP>  (2) 
2.97718

>  <MolMR>  (2) 
118.1709

>  <fr_Al_COO>  (2) 
0

>  <fr_Al_OH>  (2) 
0

>  <fr_Al_OH_noTert>  (2) 
0

>  <fr_ArN>  (2) 
0

>  <fr_Ar_COO>  (2) 
0

>  <fr_Ar_N>  (2) 
2

>  <fr_Ar_NH>  (2) 
0

>  <fr_Ar_OH>  (2) 
0

>  <fr_COO>  (2) 
0

>  <fr_COO2>  (2) 
0

>  <fr_C_O>  (2) 
1

>  <fr_C_O_noCOO>  (2) 
1

>  <fr_C_S>  (2) 
0

>  <fr_HOCCN>  (2) 
0

>  <fr_Imine>  (2) 
0

>  <fr_NH0>  (2) 
4

>  <fr_NH1>  (2) 
2

>  <fr_NH2>  (2) 
0

>  <fr_N_O>  (2) 
0

>  <fr_Ndealkylation1>  (2) 
0

>  <fr_Ndealkylation2>  (2) 
0

>  <fr_Nhpyrrole>  (2) 
0

>  <fr_SH>  (2) 
0

>  <fr_aldehyde>  (2) 
0

>  <fr_alkyl_carbamate>  (2) 
0

>  <fr_alkyl_halide>  (2) 
0

>  <fr_allylic_oxid>  (2) 
0

>  <fr_amide>  (2) 
1

>  <fr_amidine>  (2) 
0

>  <fr_aniline>  (2) 
3

>  <fr_aryl_methyl>  (2) 
0

>  <fr_azide>  (2) 
0

>  <fr_azo>  (2) 
0

>  <fr_barbitur>  (2) 
0

>  <fr_benzene>  (2) 
2

>  <fr_benzodiazepine>  (2) 
0

>  <fr_bicyclic>  (2) 
0

>  <fr_diazo>  (2) 
0

>  <fr_dihydropyridine>  (2) 
0

>  <fr_epoxide>  (2) 
0

>  <fr_ester>  (2) 
0

>  <fr_ether>  (2) 
1

>  <fr_furan>  (2) 
0

>  <fr_guanido>  (2) 
0

>  <fr_halogen>  (2) 
0

>  <fr_hdrzine>  (2) 
0

>  <fr_hdrzone>  (2) 
0

>  <fr_imidazole>  (2) 
0

>  <fr_imide>  (2) 
0

>  <fr_isocyan>  (2) 
0

>  <fr_isothiocyan>  (2) 
0

>  <fr_ketone>  (2) 
0

>  <fr_ketone_Topliss>  (2) 
0

>  <fr_lactam>  (2) 
0

>  <fr_lactone>  (2) 
0

>  <fr_methoxy>  (2) 
0

>  <fr_morpholine>  (2) 
1

>  <fr_nitrile>  (2) 
1

>  <fr_nitro>  (2) 
0

>  <fr_nitro_arom>  (2) 
0

>  <fr_nitro_arom_nonortho>  (2) 
0

>  <fr_nitroso>  (2) 
0

>  <fr_oxazole>  (2) 
0

>  <fr_oxime>  (2) 
0

>  <fr_para_hydroxylation>  (2) 
0

>  <fr_phenol>  (2) 
0

>  <fr_phenol_noOrthoHbond>  (2) 
0

>  <fr_phos_acid>  (2) 
0

>  <fr_phos_ester>  (2) 
0

>  <fr_piperdine>  (2) 
0

>  <fr_piperzine>  (2) 
0

>  <fr_priamide>  (2) 
0

>  <fr_prisulfonamd>  (2) 
0

>  <fr_pyridine>  (2) 
0

>  <fr_quatN>  (2) 
0

>  <fr_sulfide>  (2) 
0

>  <fr_sulfonamd>  (2) 
0

>  <fr_sulfone>  (2) 
0

>  <fr_term_acetylene>  (2) 
0

>  <fr_tetrazole>  (2) 
0

>  <fr_thiazole>  (2) 
0

>  <fr_thiocyan>  (2) 
0

>  <fr_thiophene>  (2) 
0

>  <fr_unbrch_alkane>  (2) 
0

>  <fr_urea>  (2) 
0

>  <NP_Likeness>  (2) 
-1.875905

$$$$
nan
     RDKit          3D

  0  0  0  0  0  0  0  0  0  0999 V3000
M  V30 BEGIN CTAB
M  V30 COUNTS 55 58 0 0 0
M  V30 BEGIN ATOM
M  V30 1 N -2.539993 0.835287 3.039764 0
M  V30 2 C -1.738040 0.072463 2.067055 0
M  V30 3 C -0.336641 0.581341 2.209489 0
M  V30 4 O -0.328804 1.482427 3.116687 0
M  V30 5 N 0.767532 0.139458 1.471105 0
M  V30 6 C 2.107466 0.568227 1.548842 0 CFG=1
M  V30 7 C 3.135093 -0.442726 1.884947 0
M  V30 8 C 2.876992 -1.081956 3.248873 0
M  V30 9 O 2.905775 -0.050558 4.190258 0
M  V30 10 C 2.560546 1.294993 0.308821 0
M  V30 11 C 3.288360 2.483997 0.348709 0
M  V30 12 C 3.677328 3.107018 -0.819597 0
M  V30 13 C 3.364011 2.582455 -2.053232 0
M  V30 14 Cl 3.941261 3.510971 -3.415432 0
M  V30 15 C 2.643038 1.404359 -2.113544 0
M  V30 16 C 2.260851 0.792466 -0.940975 0
M  V30 17 C -1.881137 -1.345690 2.424949 0
M  V30 18 C -2.830826 -2.179212 1.620415 0
M  V30 19 N -3.061838 -1.667144 0.301827 0
M  V30 20 C -2.957902 -2.479241 -0.832823 0
M  V30 21 N -4.064721 -2.614632 -1.622079 0
M  V30 22 C -4.040038 -3.381258 -2.734448 0
M  V30 23 N -2.940114 -4.055012 -3.136787 0
M  V30 24 C -1.836056 -3.954699 -2.400440 0
M  V30 25 N -0.599418 -4.489657 -2.525299 0
M  V30 26 C 0.158607 -4.064167 -1.495639 0
M  V30 27 C -0.608323 -3.241540 -0.697579 0
M  V30 28 C -1.846395 -3.176332 -1.263212 0
M  V30 29 C -3.411506 -0.260019 0.199773 0
M  V30 30 C -2.198462 0.483533 0.715631 0
M  V30 31 H -3.030378 1.631990 2.624227 0
M  V30 32 H -2.026052 1.004686 3.911266 0
M  V30 33 H 0.611867 -0.607802 0.757833 0
M  V30 34 H 2.149384 1.355144 2.336218 0
M  V30 35 H 4.083271 0.142737 2.050886 0
M  V30 36 H 3.389984 -1.168428 1.104841 0
M  V30 37 H 1.948389 -1.667799 3.279106 0
M  V30 38 H 3.704378 -1.764046 3.526739 0
M  V30 39 H 2.115162 -0.133060 4.806464 0
M  V30 40 H 3.502750 2.844649 1.355868 0
M  V30 41 H 4.237240 4.023477 -0.618901 0
M  V30 42 H 2.426430 1.040161 -3.108345 0
M  V30 43 H 1.703828 -0.118943 -1.076459 0
M  V30 44 H -2.086991 -1.461216 3.530253 0
M  V30 45 H -0.867714 -1.831896 2.325634 0
M  V30 46 H -3.819232 -2.157780 2.136521 0
M  V30 47 H -2.532015 -3.260222 1.614095 0
M  V30 48 H -4.970897 -3.433046 -3.307020 0
M  V30 49 H -0.224334 -5.127782 -3.261942 0
M  V30 50 H 1.212559 -4.309619 -1.293038 0
M  V30 51 H -0.275554 -2.760893 0.186489 0
M  V30 52 H -3.592302 0.050426 -0.836687 0
M  V30 53 H -4.310365 -0.030444 0.828419 0
M  V30 54 H -1.429184 0.358211 -0.078939 0
M  V30 55 H -2.441788 1.585408 0.667662 0
M  V30 END ATOM
M  V30 BEGIN BOND
M  V30 1 1 1 2
M  V30 2 1 2 3
M  V30 3 2 3 4
M  V30 4 1 3 5
M  V30 5 1 5 6
M  V30 6 1 6 7
M  V30 7 1 7 8
M  V30 8 1 8 9
M  V30 9 1 6 10
M  V30 10 2 10 11
M  V30 11 1 11 12
M  V30 12 2 12 13
M  V30 13 1 13 14
M  V30 14 1 13 15
M  V30 15 2 15 16
M  V30 16 1 2 17
M  V30 17 1 17 18
M  V30 18 1 18 19
M  V30 19 1 19 20
M  V30 20 2 20 21
M  V30 21 1 21 22
M  V30 22 2 22 23
M  V30 23 1 23 24
M  V30 24 1 24 25
M  V30 25 1 25 26
M  V30 26 2 26 27
M  V30 27 1 27 28
M  V30 28 1 19 29
M  V30 29 1 29 30
M  V30 30 1 30 2
M  V30 31 1 16 10
M  V30 32 1 28 20
M  V30 33 2 28 24
M  V30 34 1 1 31
M  V30 35 1 1 32
M  V30 36 1 5 33
M  V30 37 1 6 34 CFG=1
M  V30 38 1 7 35
M  V30 39 1 7 36
M  V30 40 1 8 37
M  V30 41 1 8 38
M  V30 42 1 9 39
M  V30 43 1 11 40
M  V30 44 1 12 41
M  V30 45 1 15 42
M  V30 46 1 16 43
M  V30 47 1 17 44
M  V30 48 1 17 45
M  V30 49 1 18 46
M  V30 50 1 18 47
M  V30 51 1 22 48
M  V30 52 1 25 49
M  V30 53 1 26 50
M  V30 54 1 27 51
M  V30 55 1 29 52
M  V30 56 1 29 53
M  V30 57 1 30 54
M  V30 58 1 30 55
M  V30 END BOND
M  V30 END CTAB
M  END
>  <Dataset>  (3) 
PKIs

>  <Ligand_Instance>  (3) 
nan

>  <PDB_ID>  (3) 
nan

>  <Standardized_SMILES>  (3) 
NC1(C(=O)N[C@@H](CCO)c2ccc(Cl)cc2)CCN(c2ncnc3[nH]ccc23)CC1

>  <Name>  (3) 
Capivasertib

>  <Pocket>  (3) 
nan

>  <ATP_Site>  (3) 
nan

>  <Peripheral>  (3) 
nan

>  <Num_H_Atoms_ProtBoundConf>  (3) 
nan

>  <Num_Resolved_Atoms>  (3) 
nan

>  <Num_Not_Resolved_Atoms>  (3) 
nan

>  <2D_Mol_H>  (3) 
<rdkit.Chem.rdchem.Mol object at 0x72a239111620>

>  <MW>  (3) 
428.924

>  <HBA>  (3) 
6

>  <HBD>  (3) 
4

>  <LogP>  (3) 
2.1489

>  <NRB>  (3) 
8

>  <TPSA>  (3) 
120.16

>  <Num_Heavy_Atoms>  (3) 
30

>  <Ro5>  (3) 
[True, True, True, True, True, True]

>  <Ro5_Fulfilled>  (3) 
True

>  <Ro3>  (3) 
[False, False, False, True]

>  <Ro3_Fulfilled>  (3) 
False

>  <Fsp3>  (3) 
0.380952

>  <Fsp3_0.42>  (3) 
False

>  <Fsp3_0.45>  (3) 
False

>  <Stereogenic_Carbons>  (3) 
1

>  <C_Atoms>  (3) 
21

>  <FCStereo>  (3) 
0.047619

>  <SPS>  (3) 
513

>  <nSPS>  (3) 
17.1

>  <PBF>  (3) 
1.408408

>  <PBF_0.6>  (3) 
True

>  <nPBF>  (3) 
0.046947

>  <nPBF_0.016>  (3) 
True

>  <PMI1>  (3) 
3083.22479

>  <PMI2>  (3) 
5575.688524

>  <PMI3>  (3) 
6925.053892

>  <NPR1>  (3) 
0.445228

>  <NPR2>  (3) 
0.805147

>  <Sum_NPR>  (3) 
1.250375

>  <Sum_NPR_1.07>  (3) 
True

>  <Sum_NPR_1.2>  (3) 
True

>  <MaxAbsEStateIndex>  (3) 
13.066632

>  <MaxEStateIndex>  (3) 
13.066632

>  <MinAbsEStateIndex>  (3) 
0.042363

>  <MinEStateIndex>  (3) 
-0.971306

>  <qed>  (3) 
0.477143

>  <MolWt>  (3) 
428.924

>  <HeavyAtomMolWt>  (3) 
403.724

>  <ExactMolWt>  (3) 
428.172752

>  <NumValenceElectrons>  (3) 
158

>  <NumRadicalElectrons>  (3) 
0

>  <MaxPartialCharge>  (3) 
0.240206

>  <MinPartialCharge>  (3) 
-0.396282

>  <MaxAbsPartialCharge>  (3) 
0.396282

>  <MinAbsPartialCharge>  (3) 
0.240206

>  <FpDensityMorgan1>  (3) 
1.266667

>  <FpDensityMorgan2>  (3) 
2.0

>  <FpDensityMorgan3>  (3) 
2.7

>  <BCUT2D_MWHI>  (3) 
35.495692

>  <BCUT2D_MWLOW>  (3) 
9.865546

>  <BCUT2D_CHGHI>  (3) 
2.387838

>  <BCUT2D_CHGLO>  (3) 
-2.390357

>  <BCUT2D_LOGPHI>  (3) 
2.287821

>  <BCUT2D_LOGPLOW>  (3) 
-2.597493

>  <BCUT2D_MRHI>  (3) 
6.300956

>  <BCUT2D_MRLOW>  (3) 
-0.12756

>  <AvgIpc>  (3) 
3.235263

>  <BalabanJ>  (3) 
1.441368

>  <BertzCT>  (3) 
1013.768311

>  <Chi0>  (3) 
21.139617

>  <Chi0n>  (3) 
16.51386

>  <Chi0v>  (3) 
17.269789

>  <Chi1>  (3) 
14.49815

>  <Chi1n>  (3) 
9.992439

>  <Chi1v>  (3) 
10.370404

>  <Chi2n>  (3) 
7.670297

>  <Chi2v>  (3) 
8.106732

>  <Chi3n>  (3) 
5.735817

>  <Chi3v>  (3) 
5.987793

>  <Chi4n>  (3) 
3.903627

>  <Chi4v>  (3) 
4.029615

>  <HallKierAlpha>  (3) 
-2.68

>  <Ipc>  (3) 
9094713.264582

>  <Kappa1>  (3) 
20.587048

>  <Kappa2>  (3) 
8.590408

>  <Kappa3>  (3) 
4.115932

>  <LabuteASA>  (3) 
179.005875

>  <PEOE_VSA1>  (3) 
26.040872

>  <PEOE_VSA10>  (3) 
17.79236

>  <PEOE_VSA11>  (3) 
0.0

>  <PEOE_VSA12>  (3) 
5.90718

>  <PEOE_VSA13>  (3) 
0.0

>  <PEOE_VSA14>  (3) 
0.0

>  <PEOE_VSA2>  (3) 
4.794537

>  <PEOE_VSA3>  (3) 
9.967957

>  <PEOE_VSA4>  (3) 
0.0

>  <PEOE_VSA5>  (3) 
0.0

>  <PEOE_VSA6>  (3) 
23.733674

>  <PEOE_VSA7>  (3) 
43.025018

>  <PEOE_VSA8>  (3) 
30.915872

>  <PEOE_VSA9>  (3) 
16.96699

>  <SMR_VSA1>  (3) 
9.901065

>  <SMR_VSA10>  (3) 
34.359384

>  <SMR_VSA2>  (3) 
0.0

>  <SMR_VSA3>  (3) 
20.268724

>  <SMR_VSA4>  (3) 
5.733667

>  <SMR_VSA5>  (3) 
30.843231

>  <SMR_VSA6>  (3) 
24.596305

>  <SMR_VSA7>  (3) 
53.442084

>  <SMR_VSA8>  (3) 
0.0

>  <SMR_VSA9>  (3) 
0.0

>  <SlogP_VSA1>  (3) 
15.950366

>  <SlogP_VSA10>  (3) 
5.817863

>  <SlogP_VSA11>  (3) 
0.0

>  <SlogP_VSA12>  (3) 
11.60094

>  <SlogP_VSA2>  (3) 
51.200963

>  <SlogP_VSA3>  (3) 
4.794537

>  <SlogP_VSA4>  (3) 
0.0

>  <SlogP_VSA5>  (3) 
30.867757

>  <SlogP_VSA6>  (3) 
42.855999

>  <SlogP_VSA7>  (3) 
5.022633

>  <SlogP_VSA8>  (3) 
11.033401

>  <SlogP_VSA9>  (3) 
0.0

>  <EState_VSA1>  (3) 
5.538925

>  <EState_VSA10>  (3) 
9.901065

>  <EState_VSA11>  (3) 
0.0

>  <EState_VSA2>  (3) 
18.555903

>  <EState_VSA3>  (3) 
37.374611

>  <EState_VSA4>  (3) 
22.414716

>  <EState_VSA5>  (3) 
6.32732

>  <EState_VSA6>  (3) 
12.132734

>  <EState_VSA7>  (3) 
24.395945

>  <EState_VSA8>  (3) 
25.168634

>  <EState_VSA9>  (3) 
17.334607

>  <VSA_EState1>  (3) 
0.0

>  <VSA_EState10>  (3) 
5.963951

>  <VSA_EState2>  (3) 
26.953749

>  <VSA_EState3>  (3) 
14.045285

>  <VSA_EState4>  (3) 
7.226315

>  <VSA_EState5>  (3) 
0.64635

>  <VSA_EState6>  (3) 
8.880945

>  <VSA_EState7>  (3) 
4.784449

>  <VSA_EState8>  (3) 
1.1934

>  <VSA_EState9>  (3) 
0.0

>  <FractionCSP3>  (3) 
0.380952

>  <HeavyAtomCount>  (3) 
30

>  <NHOHCount>  (3) 
5

>  <NOCount>  (3) 
8

>  <NumAliphaticCarbocycles>  (3) 
0

>  <NumAliphaticHeterocycles>  (3) 
1

>  <NumAliphaticRings>  (3) 
1

>  <NumAromaticCarbocycles>  (3) 
1

>  <NumAromaticHeterocycles>  (3) 
2

>  <NumAromaticRings>  (3) 
3

>  <NumHAcceptors>  (3) 
6

>  <NumHDonors>  (3) 
4

>  <NumHeteroatoms>  (3) 
9

>  <NumRotatableBonds>  (3) 
6

>  <NumSaturatedCarbocycles>  (3) 
0

>  <NumSaturatedHeterocycles>  (3) 
1

>  <NumSaturatedRings>  (3) 
1

>  <RingCount>  (3) 
4

>  <MolLogP>  (3) 
2.1489

>  <MolMR>  (3) 
116.2926

>  <fr_Al_COO>  (3) 
0

>  <fr_Al_OH>  (3) 
1

>  <fr_Al_OH_noTert>  (3) 
1

>  <fr_ArN>  (3) 
0

>  <fr_Ar_COO>  (3) 
0

>  <fr_Ar_N>  (3) 
3

>  <fr_Ar_NH>  (3) 
1

>  <fr_Ar_OH>  (3) 
0

>  <fr_COO>  (3) 
0

>  <fr_COO2>  (3) 
0

>  <fr_C_O>  (3) 
1

>  <fr_C_O_noCOO>  (3) 
1

>  <fr_C_S>  (3) 
0

>  <fr_HOCCN>  (3) 
0

>  <fr_Imine>  (3) 
0

>  <fr_NH0>  (3) 
3

>  <fr_NH1>  (3) 
2

>  <fr_NH2>  (3) 
1

>  <fr_N_O>  (3) 
0

>  <fr_Ndealkylation1>  (3) 
0

>  <fr_Ndealkylation2>  (3) 
0

>  <fr_Nhpyrrole>  (3) 
1

>  <fr_SH>  (3) 
0

>  <fr_aldehyde>  (3) 
0

>  <fr_alkyl_carbamate>  (3) 
0

>  <fr_alkyl_halide>  (3) 
0

>  <fr_allylic_oxid>  (3) 
0

>  <fr_amide>  (3) 
1

>  <fr_amidine>  (3) 
0

>  <fr_aniline>  (3) 
1

>  <fr_aryl_methyl>  (3) 
0

>  <fr_azide>  (3) 
0

>  <fr_azo>  (3) 
0

>  <fr_barbitur>  (3) 
0

>  <fr_benzene>  (3) 
1

>  <fr_benzodiazepine>  (3) 
0

>  <fr_bicyclic>  (3) 
1

>  <fr_diazo>  (3) 
0

>  <fr_dihydropyridine>  (3) 
0

>  <fr_epoxide>  (3) 
0

>  <fr_ester>  (3) 
0

>  <fr_ether>  (3) 
0

>  <fr_furan>  (3) 
0

>  <fr_guanido>  (3) 
0

>  <fr_halogen>  (3) 
1

>  <fr_hdrzine>  (3) 
0

>  <fr_hdrzone>  (3) 
0

>  <fr_imidazole>  (3) 
0

>  <fr_imide>  (3) 
0

>  <fr_isocyan>  (3) 
0

>  <fr_isothiocyan>  (3) 
0

>  <fr_ketone>  (3) 
0

>  <fr_ketone_Topliss>  (3) 
0

>  <fr_lactam>  (3) 
0

>  <fr_lactone>  (3) 
0

>  <fr_methoxy>  (3) 
0

>  <fr_morpholine>  (3) 
0

>  <fr_nitrile>  (3) 
0

>  <fr_nitro>  (3) 
0

>  <fr_nitro_arom>  (3) 
0

>  <fr_nitro_arom_nonortho>  (3) 
0

>  <fr_nitroso>  (3) 
0

>  <fr_oxazole>  (3) 
0

>  <fr_oxime>  (3) 
0

>  <fr_para_hydroxylation>  (3) 
0

>  <fr_phenol>  (3) 
0

>  <fr_phenol_noOrthoHbond>  (3) 
0

>  <fr_phos_acid>  (3) 
0

>  <fr_phos_ester>  (3) 
0

>  <fr_piperdine>  (3) 
1

>  <fr_piperzine>  (3) 
0

>  <fr_priamide>  (3) 
0

>  <fr_prisulfonamd>  (3) 
0

>  <fr_pyridine>  (3) 
0

>  <fr_quatN>  (3) 
0

>  <fr_sulfide>  (3) 
0

>  <fr_sulfonamd>  (3) 
0

>  <fr_sulfone>  (3) 
0

>  <fr_term_acetylene>  (3) 
0

>  <fr_tetrazole>  (3) 
0

>  <fr_thiazole>  (3) 
0

>  <fr_thiocyan>  (3) 
0

>  <fr_thiophene>  (3) 
0

>  <fr_unbrch_alkane>  (3) 
0

>  <fr_urea>  (3) 
0

>  <NP_Likeness>  (3) 
-0.601837

$$$$
nan
     RDKit          3D

  0  0  0  0  0  0  0  0  0  0999 V3000
M  V30 BEGIN CTAB
M  V30 COUNTS 40 42 0 0 0
M  V30 BEGIN ATOM
M  V30 1 C -0.477313 -3.150593 4.136846 0
M  V30 2 C 0.723107 -3.442692 3.732812 0
M  V30 3 C 1.238155 -3.207292 2.403467 0
M  V30 4 O 2.403407 -3.497259 2.030843 0
M  V30 5 N 0.629309 -2.636619 1.255369 0
M  V30 6 C 1.492549 -2.574757 0.089064 0
M  V30 7 C 1.006654 -1.452240 -0.783048 0 CFG=2
M  V30 8 N 1.109191 -0.165868 -0.183922 0
M  V30 9 C 0.726553 1.059789 -0.792907 0
M  V30 10 N 0.214678 1.159280 -2.026703 0
M  V30 11 C -0.146849 2.300854 -2.606463 0
M  V30 12 N -0.000746 3.470241 -1.928217 0
M  V30 13 C 0.507611 3.458005 -0.679326 0
M  V30 14 N 0.749446 4.455731 0.187988 0
M  V30 15 C 1.265419 3.960851 1.324222 0
M  V30 16 C 1.335786 2.591354 1.124730 0
M  V30 17 C 0.864463 2.256010 -0.127542 0
M  V30 18 C -0.398030 -1.767080 -1.160151 0
M  V30 19 C -1.348704 -1.884704 -0.014323 0
M  V30 20 C -0.745743 -2.175971 1.316302 0 CFG=2
M  V30 21 C -0.910404 -0.934794 2.180645 0
M  V30 22 H -1.480066 -2.847025 4.283466 0
M  V30 23 H -0.816290 -3.343314 5.132847 0
M  V30 24 H 1.407184 -3.898302 4.429033 0
M  V30 25 H 1.302759 -3.522766 -0.469322 0
M  V30 26 H 2.538934 -2.436788 0.369418 0
M  V30 27 H 1.627928 -1.477853 -1.702432 0
M  V30 28 H 1.499401 -0.141079 0.780185 0
M  V30 29 H -0.545581 2.192240 -3.618228 0
M  V30 30 H 0.552651 5.461286 -0.023011 0
M  V30 31 H 1.561676 4.518286 2.205706 0
M  V30 32 H 1.710989 1.883269 1.856215 0
M  V30 33 H -0.354003 -2.738393 -1.729032 0
M  V30 34 H -0.727327 -1.017407 -1.910075 0
M  V30 35 H -1.967917 -0.961344 0.006085 0
M  V30 36 H -2.074136 -2.686217 -0.272544 0
M  V30 37 H -1.302236 -2.995402 1.821105 0
M  V30 38 H -1.850062 -0.973001 2.804365 0
M  V30 39 H -0.014504 -0.653535 2.737982 0
M  V30 40 H -1.104461 -0.033344 1.524379 0
M  V30 END ATOM
M  V30 BEGIN BOND
M  V30 1 2 1 2
M  V30 2 1 2 3
M  V30 3 2 3 4
M  V30 4 1 3 5
M  V30 5 1 5 6
M  V30 6 1 6 7
M  V30 7 1 7 8
M  V30 8 1 8 9
M  V30 9 2 9 10
M  V30 10 1 10 11
M  V30 11 2 11 12
M  V30 12 1 12 13
M  V30 13 1 13 14
M  V30 14 1 14 15
M  V30 15 2 15 16
M  V30 16 1 16 17
M  V30 17 1 7 18
M  V30 18 1 18 19
M  V30 19 1 19 20
M  V30 20 1 20 21
M  V30 21 1 20 5
M  V30 22 1 17 9
M  V30 23 2 17 13
M  V30 24 1 1 22
M  V30 25 1 1 23
M  V30 26 1 2 24
M  V30 27 1 6 25
M  V30 28 1 6 26
M  V30 29 1 7 27 CFG=3
M  V30 30 1 8 28
M  V30 31 1 11 29
M  V30 32 1 14 30
M  V30 33 1 15 31
M  V30 34 1 16 32
M  V30 35 1 18 33
M  V30 36 1 18 34
M  V30 37 1 19 35
M  V30 38 1 19 36
M  V30 39 1 20 37 CFG=1
M  V30 40 1 21 38
M  V30 41 1 21 39
M  V30 42 1 21 40
M  V30 END BOND
M  V30 END CTAB
M  END
>  <Dataset>  (4) 
PKIs

>  <Ligand_Instance>  (4) 
nan

>  <PDB_ID>  (4) 
nan

>  <Standardized_SMILES>  (4) 
C=CC(=O)N1C[C@H](Nc2ncnc3[nH]ccc23)CC[C@@H]1C

>  <Name>  (4) 
Ritlecitinib

>  <Pocket>  (4) 
nan

>  <ATP_Site>  (4) 
nan

>  <Peripheral>  (4) 
nan

>  <Num_H_Atoms_ProtBoundConf>  (4) 
nan

>  <Num_Resolved_Atoms>  (4) 
nan

>  <Num_Not_Resolved_Atoms>  (4) 
nan

>  <2D_Mol_H>  (4) 
<rdkit.Chem.rdchem.Mol object at 0x72a239111700>

>  <MW>  (4) 
285.351

>  <HBA>  (4) 
4

>  <HBD>  (4) 
2

>  <LogP>  (4) 
1.9353

>  <NRB>  (4) 
4

>  <TPSA>  (4) 
73.91

>  <Num_Heavy_Atoms>  (4) 
21

>  <Ro5>  (4) 
[True, True, True, True, True, True]

>  <Ro5_Fulfilled>  (4) 
True

>  <Ro3>  (4) 
[True, False, True, True]

>  <Ro3_Fulfilled>  (4) 
True

>  <Fsp3>  (4) 
0.4

>  <Fsp3_0.42>  (4) 
False

>  <Fsp3_0.45>  (4) 
False

>  <Stereogenic_Carbons>  (4) 
2

>  <C_Atoms>  (4) 
15

>  <FCStereo>  (4) 
0.133333

>  <SPS>  (4) 
467

>  <nSPS>  (4) 
22.238095

>  <PBF>  (4) 
0.991734

>  <PBF_0.6>  (4) 
True

>  <nPBF>  (4) 
0.047225

>  <nPBF_0.016>  (4) 
True

>  <PMI1>  (4) 
831.414055

>  <PMI2>  (4) 
2694.619951

>  <PMI3>  (4) 
3020.479162

>  <NPR1>  (4) 
0.275259

>  <NPR2>  (4) 
0.892117

>  <Sum_NPR>  (4) 
1.167376

>  <Sum_NPR_1.07>  (4) 
True

>  <Sum_NPR_1.2>  (4) 
False

>  <MaxAbsEStateIndex>  (4) 
11.895783

>  <MaxEStateIndex>  (4) 
11.895783

>  <MinAbsEStateIndex>  (4) 
0.010668

>  <MinEStateIndex>  (4) 
-0.010668

>  <qed>  (4) 
0.845167

>  <MolWt>  (4) 
285.351

>  <HeavyAtomMolWt>  (4) 
266.199

>  <ExactMolWt>  (4) 
285.15896

>  <NumValenceElectrons>  (4) 
110

>  <NumRadicalElectrons>  (4) 
0

>  <MaxPartialCharge>  (4) 
0.245766

>  <MinPartialCharge>  (4) 
-0.364891

>  <MaxAbsPartialCharge>  (4) 
0.364891

>  <MinAbsPartialCharge>  (4) 
0.245766

>  <FpDensityMorgan1>  (4) 
1.52381

>  <FpDensityMorgan2>  (4) 
2.380952

>  <FpDensityMorgan3>  (4) 
3.190476

>  <BCUT2D_MWHI>  (4) 
16.152619

>  <BCUT2D_MWLOW>  (4) 
9.988419

>  <BCUT2D_CHGHI>  (4) 
2.276377

>  <BCUT2D_CHGLO>  (4) 
-2.375193

>  <BCUT2D_LOGPHI>  (4) 
2.230954

>  <BCUT2D_LOGPLOW>  (4) 
-2.487658

>  <BCUT2D_MRHI>  (4) 
5.878355

>  <BCUT2D_MRLOW>  (4) 
-0.128812

>  <AvgIpc>  (4) 
2.97765

>  <BalabanJ>  (4) 
1.77117

>  <BertzCT>  (4) 
664.882659

>  <Chi0>  (4) 
14.819626

>  <Chi0n>  (4) 
12.042418

>  <Chi0v>  (4) 
12.042418

>  <Chi1>  (4) 
10.185872

>  <Chi1n>  (4) 
7.164146

>  <Chi1v>  (4) 
7.164146

>  <Chi2n>  (4) 
5.424585

>  <Chi2v>  (4) 
5.424585

>  <Chi3n>  (4) 
4.034547

>  <Chi3v>  (4) 
4.034547

>  <Chi4n>  (4) 
2.829906

>  <Chi4v>  (4) 
2.829906

>  <HallKierAlpha>  (4) 
-2.37

>  <Ipc>  (4) 
100817.267209

>  <Kappa1>  (4) 
13.605642

>  <Kappa2>  (4) 
5.553586

>  <Kappa3>  (4) 
2.609015

>  <LabuteASA>  (4) 
122.821787

>  <PEOE_VSA1>  (4) 
15.200677

>  <PEOE_VSA10>  (4) 
17.79236

>  <PEOE_VSA11>  (4) 
0.0

>  <PEOE_VSA12>  (4) 
5.90718

>  <PEOE_VSA13>  (4) 
0.0

>  <PEOE_VSA14>  (4) 
0.0

>  <PEOE_VSA2>  (4) 
4.794537

>  <PEOE_VSA3>  (4) 
9.967957

>  <PEOE_VSA4>  (4) 
0.0

>  <PEOE_VSA5>  (4) 
0.0

>  <PEOE_VSA6>  (4) 
6.578936

>  <PEOE_VSA7>  (4) 
31.907768

>  <PEOE_VSA8>  (4) 
24.825282

>  <PEOE_VSA9>  (4) 
5.386224

>  <SMR_VSA1>  (4) 
4.794537

>  <SMR_VSA10>  (4) 
22.758444

>  <SMR_VSA2>  (4) 
0.0

>  <SMR_VSA3>  (4) 
19.851845

>  <SMR_VSA4>  (4) 
0.0

>  <SMR_VSA5>  (4) 
31.849062

>  <SMR_VSA6>  (4) 
11.861545

>  <SMR_VSA7>  (4) 
31.245487

>  <SMR_VSA8>  (4) 
0.0

>  <SMR_VSA9>  (4) 
0.0

>  <SlogP_VSA1>  (4) 
5.316789

>  <SlogP_VSA10>  (4) 
5.817863

>  <SlogP_VSA11>  (4) 
0.0

>  <SlogP_VSA12>  (4) 
0.0

>  <SlogP_VSA2>  (4) 
44.387463

>  <SlogP_VSA3>  (4) 
4.794537

>  <SlogP_VSA4>  (4) 
0.0

>  <SlogP_VSA5>  (4) 
19.76538

>  <SlogP_VSA6>  (4) 
31.245487

>  <SlogP_VSA7>  (4) 
0.0

>  <SlogP_VSA8>  (4) 
11.033401

>  <SlogP_VSA9>  (4) 
0.0

>  <EState_VSA1>  (4) 
0.0

>  <EState_VSA10>  (4) 
4.794537

>  <EState_VSA11>  (4) 
0.0

>  <EState_VSA2>  (4) 
17.990861

>  <EState_VSA3>  (4) 
6.544756

>  <EState_VSA4>  (4) 
29.692907

>  <EState_VSA5>  (4) 
6.07602

>  <EState_VSA6>  (4) 
6.32732

>  <EState_VSA7>  (4) 
17.16312

>  <EState_VSA8>  (4) 
33.771397

>  <EState_VSA9>  (4) 
0.0

>  <VSA_EState1>  (4) 
0.0

>  <VSA_EState10>  (4) 
0.0

>  <VSA_EState2>  (4) 
25.327463

>  <VSA_EState3>  (4) 
4.410277

>  <VSA_EState4>  (4) 
0.815464

>  <VSA_EState5>  (4) 
0.801189

>  <VSA_EState6>  (4) 
2.402598

>  <VSA_EState7>  (4) 
6.754799

>  <VSA_EState8>  (4) 
6.321543

>  <VSA_EState9>  (4) 
0.0

>  <FractionCSP3>  (4) 
0.4

>  <HeavyAtomCount>  (4) 
21

>  <NHOHCount>  (4) 
2

>  <NOCount>  (4) 
6

>  <NumAliphaticCarbocycles>  (4) 
0

>  <NumAliphaticHeterocycles>  (4) 
1

>  <NumAliphaticRings>  (4) 
1

>  <NumAromaticCarbocycles>  (4) 
0

>  <NumAromaticHeterocycles>  (4) 
2

>  <NumAromaticRings>  (4) 
2

>  <NumHAcceptors>  (4) 
4

>  <NumHDonors>  (4) 
2

>  <NumHeteroatoms>  (4) 
6

>  <NumRotatableBonds>  (4) 
3

>  <NumSaturatedCarbocycles>  (4) 
0

>  <NumSaturatedHeterocycles>  (4) 
1

>  <NumSaturatedRings>  (4) 
1

>  <RingCount>  (4) 
3

>  <MolLogP>  (4) 
1.9353

>  <MolMR>  (4) 
81.9054

>  <fr_Al_COO>  (4) 
0

>  <fr_Al_OH>  (4) 
0

>  <fr_Al_OH_noTert>  (4) 
0

>  <fr_ArN>  (4) 
0

>  <fr_Ar_COO>  (4) 
0

>  <fr_Ar_N>  (4) 
3

>  <fr_Ar_NH>  (4) 
1

>  <fr_Ar_OH>  (4) 
0

>  <fr_COO>  (4) 
0

>  <fr_COO2>  (4) 
0

>  <fr_C_O>  (4) 
1

>  <fr_C_O_noCOO>  (4) 
1

>  <fr_C_S>  (4) 
0

>  <fr_HOCCN>  (4) 
0

>  <fr_Imine>  (4) 
0

>  <fr_NH0>  (4) 
3

>  <fr_NH1>  (4) 
2

>  <fr_NH2>  (4) 
0

>  <fr_N_O>  (4) 
0

>  <fr_Ndealkylation1>  (4) 
0

>  <fr_Ndealkylation2>  (4) 
1

>  <fr_Nhpyrrole>  (4) 
1

>  <fr_SH>  (4) 
0

>  <fr_aldehyde>  (4) 
0

>  <fr_alkyl_carbamate>  (4) 
0

>  <fr_alkyl_halide>  (4) 
0

>  <fr_allylic_oxid>  (4) 
0

>  <fr_amide>  (4) 
1

>  <fr_amidine>  (4) 
0

>  <fr_aniline>  (4) 
1

>  <fr_aryl_methyl>  (4) 
0

>  <fr_azide>  (4) 
0

>  <fr_azo>  (4) 
0

>  <fr_barbitur>  (4) 
0

>  <fr_benzene>  (4) 
0

>  <fr_benzodiazepine>  (4) 
0

>  <fr_bicyclic>  (4) 
1

>  <fr_diazo>  (4) 
0

>  <fr_dihydropyridine>  (4) 
0

>  <fr_epoxide>  (4) 
0

>  <fr_ester>  (4) 
0

>  <fr_ether>  (4) 
0

>  <fr_furan>  (4) 
0

>  <fr_guanido>  (4) 
0

>  <fr_halogen>  (4) 
0

>  <fr_hdrzine>  (4) 
0

>  <fr_hdrzone>  (4) 
0

>  <fr_imidazole>  (4) 
0

>  <fr_imide>  (4) 
0

>  <fr_isocyan>  (4) 
0

>  <fr_isothiocyan>  (4) 
0

>  <fr_ketone>  (4) 
0

>  <fr_ketone_Topliss>  (4) 
0

>  <fr_lactam>  (4) 
0

>  <fr_lactone>  (4) 
0

>  <fr_methoxy>  (4) 
0

>  <fr_morpholine>  (4) 
0

>  <fr_nitrile>  (4) 
0

>  <fr_nitro>  (4) 
0

>  <fr_nitro_arom>  (4) 
0

>  <fr_nitro_arom_nonortho>  (4) 
0

>  <fr_nitroso>  (4) 
0

>  <fr_oxazole>  (4) 
0

>  <fr_oxime>  (4) 
0

>  <fr_para_hydroxylation>  (4) 
0

>  <fr_phenol>  (4) 
0

>  <fr_phenol_noOrthoHbond>  (4) 
0

>  <fr_phos_acid>  (4) 
0

>  <fr_phos_ester>  (4) 
0

>  <fr_piperdine>  (4) 
1

>  <fr_piperzine>  (4) 
0

>  <fr_priamide>  (4) 
0

>  <fr_prisulfonamd>  (4) 
0

>  <fr_pyridine>  (4) 
0

>  <fr_quatN>  (4) 
0

>  <fr_sulfide>  (4) 
0

>  <fr_sulfonamd>  (4) 
0

>  <fr_sulfone>  (4) 
0

>  <fr_term_acetylene>  (4) 
0

>  <fr_tetrazole>  (4) 
0

>  <fr_thiazole>  (4) 
0

>  <fr_thiocyan>  (4) 
0

>  <fr_thiophene>  (4) 
0

>  <fr_unbrch_alkane>  (4) 
0

>  <fr_urea>  (4) 
0

>  <NP_Likeness>  (4) 
-0.835446

$$$$
nan
     RDKit          3D

  0  0  0  0  0  0  0  0  0  0999 V3000
M  V30 BEGIN CTAB
M  V30 COUNTS 44 47 0 0 0
M  V30 BEGIN ATOM
M  V30 1 C -0.652645 -4.140312 0.587111 0
M  V30 2 C -0.560794 -2.684795 0.205961 0 CFG=1
M  V30 3 C -0.720970 -2.497294 -1.301306 0
M  V30 4 N -0.324998 -1.162794 -1.601744 0
M  V30 5 C -0.353530 0.212273 -1.626742 0
M  V30 6 O -1.336090 0.654112 -1.065765 0
M  V30 7 C 0.376946 1.354519 -2.078355 0
M  V30 8 C 0.662988 2.403794 -2.865942 0
M  V30 9 N 1.820280 2.972429 -2.386322 0
M  V30 10 N 2.177507 2.249148 -1.339290 0
M  V30 11 C 3.219038 2.363421 -0.504255 0
M  V30 12 C 3.437999 1.510283 0.556097 0
M  V30 13 C 2.550382 0.495645 0.772092 0
M  V30 14 N 1.520381 0.396041 -0.069876 0
M  V30 15 C 1.348733 1.227931 -1.068426 0
M  V30 16 N 2.299618 -0.578222 1.653535 0
M  V30 17 C 1.381739 -0.787483 2.735952 0 CFG=2
M  V30 18 C 1.357061 -2.276109 3.111601 0
M  V30 19 C 0.013855 -0.323897 2.557255 0
M  V30 20 C -0.314222 0.817004 3.307971 0
M  V30 21 C -1.516360 1.490857 3.382236 0
M  V30 22 F -1.684262 2.586243 4.156382 0
M  V30 23 C -2.557669 0.995692 2.623134 0
M  V30 24 C -2.277981 -0.146092 1.853092 0
M  V30 25 C -1.041118 -0.811910 1.796789 0
M  V30 26 O -1.295357 -1.825607 0.925867 0
M  V30 27 H -0.138529 -4.700999 -0.220360 0
M  V30 28 H -0.052601 -4.290252 1.499548 0
M  V30 29 H -1.652856 -4.525567 0.754936 0
M  V30 30 H 0.534593 -2.433895 0.369906 0
M  V30 31 H -0.112206 -3.262206 -1.770798 0
M  V30 32 H -1.772900 -2.716233 -1.609526 0
M  V30 33 H 0.540127 -1.136454 -2.168877 0
M  V30 34 H -0.167158 2.328389 -3.533332 0
M  V30 35 H 3.969361 3.125167 -0.588097 0
M  V30 36 H 4.151964 1.355745 1.343414 0
M  V30 37 H 3.067296 -1.110835 1.210886 0
M  V30 38 H 1.857353 -0.265546 3.648441 0
M  V30 39 H 1.772538 -2.456984 4.124802 0
M  V30 40 H 1.827866 -2.888784 2.335866 0
M  V30 41 H 0.287386 -2.627407 3.192134 0
M  V30 42 H 0.443900 1.293690 3.946015 0
M  V30 43 H -3.484852 1.536053 2.696929 0
M  V30 44 H -3.203928 -0.389576 1.328646 0
M  V30 END ATOM
M  V30 BEGIN BOND
M  V30 1 1 1 2
M  V30 2 1 2 3
M  V30 3 1 3 4
M  V30 4 1 4 5
M  V30 5 2 5 6
M  V30 6 1 5 7
M  V30 7 1 7 8
M  V30 8 2 8 9
M  V30 9 1 9 10
M  V30 10 1 10 11
M  V30 11 2 11 12
M  V30 12 1 12 13
M  V30 13 2 13 14
M  V30 14 1 14 15
M  V30 15 1 13 16
M  V30 16 1 16 17
M  V30 17 1 17 18
M  V30 18 1 17 19
M  V30 19 2 19 20
M  V30 20 1 20 21
M  V30 21 1 21 22
M  V30 22 2 21 23
M  V30 23 1 23 24
M  V30 24 2 24 25
M  V30 25 1 25 26
M  V30 26 1 26 2
M  V30 27 2 15 7
M  V30 28 1 25 19
M  V30 29 1 15 10
M  V30 30 1 1 27
M  V30 31 1 1 28
M  V30 32 1 1 29
M  V30 33 1 2 30 CFG=1
M  V30 34 1 3 31
M  V30 35 1 3 32
M  V30 36 1 4 33
M  V30 37 1 8 34
M  V30 38 1 11 35
M  V30 39 1 12 36
M  V30 40 1 16 37
M  V30 41 1 17 38 CFG=1
M  V30 42 1 18 39
M  V30 43 1 18 40
M  V30 44 1 18 41
M  V30 45 1 20 42
M  V30 46 1 23 43
M  V30 47 1 24 44
M  V30 END BOND
M  V30 END CTAB
M  END
>  <Dataset>  (5) 
PKIs

>  <Ligand_Instance>  (5) 
nan

>  <PDB_ID>  (5) 
nan

>  <Standardized_SMILES>  (5) 
CC1CNC(=O)c2cnn3ccc(nc23)NC(C)c2cc(F)ccc2O1

>  <Name>  (5) 
Repotrectinib

>  <Pocket>  (5) 
nan

>  <ATP_Site>  (5) 
nan

>  <Peripheral>  (5) 
nan

>  <Num_H_Atoms_ProtBoundConf>  (5) 
nan

>  <Num_Resolved_Atoms>  (5) 
nan

>  <Num_Not_Resolved_Atoms>  (5) 
nan

>  <2D_Mol_H>  (5) 
<rdkit.Chem.rdchem.Mol object at 0x72a2391117e0>

>  <MW>  (5) 
355.373

>  <HBA>  (5) 
6

>  <HBD>  (5) 
2

>  <LogP>  (5) 
2.5522

>  <NRB>  (5) 
2

>  <TPSA>  (5) 
80.55

>  <Num_Heavy_Atoms>  (5) 
26

>  <Ro5>  (5) 
[True, True, True, True, True, True]

>  <Ro5_Fulfilled>  (5) 
True

>  <Ro3>  (5) 
[False, False, True, True]

>  <Ro3_Fulfilled>  (5) 
False

>  <Fsp3>  (5) 
0.277778

>  <Fsp3_0.42>  (5) 
False

>  <Fsp3_0.45>  (5) 
False

>  <Stereogenic_Carbons>  (5) 
2

>  <C_Atoms>  (5) 
18

>  <FCStereo>  (5) 
0.111111

>  <SPS>  (5) 
525

>  <nSPS>  (5) 
20.192308

>  <PBF>  (5) 
1.404058

>  <PBF_0.6>  (5) 
True

>  <nPBF>  (5) 
0.054002

>  <nPBF_0.016>  (5) 
True

>  <PMI1>  (5) 
1908.812239

>  <PMI2>  (5) 
2552.911219

>  <PMI3>  (5) 
2950.72294

>  <NPR1>  (5) 
0.646896

>  <NPR2>  (5) 
0.865182

>  <Sum_NPR>  (5) 
1.512078

>  <Sum_NPR_1.07>  (5) 
True

>  <Sum_NPR_1.2>  (5) 
True

>  <MaxAbsEStateIndex>  (5) 
13.790443

>  <MaxEStateIndex>  (5) 
13.790443

>  <MinAbsEStateIndex>  (5) 
0.251264

>  <MinEStateIndex>  (5) 
-0.340037

>  <qed>  (5) 
0.647765

>  <MolWt>  (5) 
355.373

>  <HeavyAtomMolWt>  (5) 
337.229

>  <ExactMolWt>  (5) 
355.144453

>  <NumValenceElectrons>  (5) 
134

>  <NumRadicalElectrons>  (5) 
0

>  <MaxPartialCharge>  (5) 
0.2564

>  <MinPartialCharge>  (5) 
-0.488515

>  <MaxAbsPartialCharge>  (5) 
0.488515

>  <MinAbsPartialCharge>  (5) 
0.2564

>  <FpDensityMorgan1>  (5) 
1.307692

>  <FpDensityMorgan2>  (5) 
2.153846

>  <FpDensityMorgan3>  (5) 
3.0

>  <BCUT2D_MWHI>  (5) 
19.142147

>  <BCUT2D_MWLOW>  (5) 
10.069235

>  <BCUT2D_CHGHI>  (5) 
2.197494

>  <BCUT2D_CHGLO>  (5) 
-2.213456

>  <BCUT2D_LOGPHI>  (5) 
2.29241

>  <BCUT2D_LOGPLOW>  (5) 
-2.333313

>  <BCUT2D_MRHI>  (5) 
5.992948

>  <BCUT2D_MRLOW>  (5) 
0.09331

>  <AvgIpc>  (5) 
3.034994

>  <BalabanJ>  (5) 
1.816372

>  <BertzCT>  (5) 
986.871948

>  <Chi0>  (5) 
18.258784

>  <Chi0n>  (5) 
14.362011

>  <Chi0v>  (5) 
14.362011

>  <Chi1>  (5) 
12.50804

>  <Chi1n>  (5) 
8.362721

>  <Chi1v>  (5) 
8.362721

>  <Chi2n>  (5) 
6.325869

>  <Chi2v>  (5) 
6.325869

>  <Chi3n>  (5) 
4.294689

>  <Chi3v>  (5) 
4.294689

>  <Chi4n>  (5) 
2.964108

>  <Chi4v>  (5) 
2.964108

>  <HallKierAlpha>  (5) 
-3.16

>  <Ipc>  (5) 
1131655.33939

>  <Kappa1>  (5) 
16.3161

>  <Kappa2>  (5) 
6.287668

>  <Kappa3>  (5) 
2.938025

>  <LabuteASA>  (5) 
148.738556

>  <PEOE_VSA1>  (5) 
15.37044

>  <PEOE_VSA10>  (5) 
29.052013

>  <PEOE_VSA11>  (5) 
5.647177

>  <PEOE_VSA12>  (5) 
0.0

>  <PEOE_VSA13>  (5) 
5.90718

>  <PEOE_VSA14>  (5) 
0.0

>  <PEOE_VSA2>  (5) 
4.794537

>  <PEOE_VSA3>  (5) 
13.889791

>  <PEOE_VSA4>  (5) 
5.098682

>  <PEOE_VSA5>  (5) 
0.0

>  <PEOE_VSA6>  (5) 
0.0

>  <PEOE_VSA7>  (5) 
38.112943

>  <PEOE_VSA8>  (5) 
11.760295

>  <PEOE_VSA9>  (5) 
18.783441

>  <SMR_VSA1>  (5) 
13.921815

>  <SMR_VSA10>  (5) 
17.37222

>  <SMR_VSA2>  (5) 
0.0

>  <SMR_VSA3>  (5) 
19.914847

>  <SMR_VSA4>  (5) 
0.0

>  <SMR_VSA5>  (5) 
25.993282

>  <SMR_VSA6>  (5) 
11.861545

>  <SMR_VSA7>  (5) 
53.603279

>  <SMR_VSA8>  (5) 
0.0

>  <SMR_VSA9>  (5) 
5.749512

>  <SlogP_VSA1>  (5) 
15.37044

>  <SlogP_VSA10>  (5) 
10.208278

>  <SlogP_VSA11>  (5) 
5.749512

>  <SlogP_VSA12>  (5) 
0.0

>  <SlogP_VSA2>  (5) 
33.153961

>  <SlogP_VSA3>  (5) 
0.0

>  <SlogP_VSA4>  (5) 
5.817221

>  <SlogP_VSA5>  (5) 
35.810755

>  <SlogP_VSA6>  (5) 
36.659155

>  <SlogP_VSA7>  (5) 
0.0

>  <SlogP_VSA8>  (5) 
5.647177

>  <SlogP_VSA9>  (5) 
0.0

>  <EState_VSA1>  (5) 
0.0

>  <EState_VSA10>  (5) 
9.184952

>  <EState_VSA11>  (5) 
0.0

>  <EState_VSA2>  (5) 
23.870208

>  <EState_VSA3>  (5) 
34.886211

>  <EState_VSA4>  (5) 
0.0

>  <EState_VSA5>  (5) 
22.844976

>  <EState_VSA6>  (5) 
18.329578

>  <EState_VSA7>  (5) 
13.847474

>  <EState_VSA8>  (5) 
20.716238

>  <EState_VSA9>  (5) 
4.736863

>  <VSA_EState1>  (5) 
21.264574

>  <VSA_EState10>  (5) 
0.0

>  <VSA_EState2>  (5) 
16.95776

>  <VSA_EState3>  (5) 
10.217834

>  <VSA_EState4>  (5) 
1.514927

>  <VSA_EState5>  (5) 
0.512052

>  <VSA_EState6>  (5) 
5.905847

>  <VSA_EState7>  (5) 
2.914639

>  <VSA_EState8>  (5) 
4.045702

>  <VSA_EState9>  (5) 
0.0

>  <FractionCSP3>  (5) 
0.277778

>  <HeavyAtomCount>  (5) 
26

>  <NHOHCount>  (5) 
2

>  <NOCount>  (5) 
7

>  <NumAliphaticCarbocycles>  (5) 
0

>  <NumAliphaticHeterocycles>  (5) 
1

>  <NumAliphaticRings>  (5) 
1

>  <NumAromaticCarbocycles>  (5) 
1

>  <NumAromaticHeterocycles>  (5) 
2

>  <NumAromaticRings>  (5) 
3

>  <NumHAcceptors>  (5) 
6

>  <NumHDonors>  (5) 
2

>  <NumHeteroatoms>  (5) 
8

>  <NumRotatableBonds>  (5) 
0

>  <NumSaturatedCarbocycles>  (5) 
0

>  <NumSaturatedHeterocycles>  (5) 
0

>  <NumSaturatedRings>  (5) 
0

>  <RingCount>  (5) 
4

>  <MolLogP>  (5) 
2.5522

>  <MolMR>  (5) 
93.8479

>  <fr_Al_COO>  (5) 
0

>  <fr_Al_OH>  (5) 
0

>  <fr_Al_OH_noTert>  (5) 
0

>  <fr_ArN>  (5) 
0

>  <fr_Ar_COO>  (5) 
0

>  <fr_Ar_N>  (5) 
3

>  <fr_Ar_NH>  (5) 
0

>  <fr_Ar_OH>  (5) 
0

>  <fr_COO>  (5) 
0

>  <fr_COO2>  (5) 
0

>  <fr_C_O>  (5) 
1

>  <fr_C_O_noCOO>  (5) 
1

>  <fr_C_S>  (5) 
0

>  <fr_HOCCN>  (5) 
0

>  <fr_Imine>  (5) 
0

>  <fr_NH0>  (5) 
3

>  <fr_NH1>  (5) 
2

>  <fr_NH2>  (5) 
0

>  <fr_N_O>  (5) 
0

>  <fr_Ndealkylation1>  (5) 
0

>  <fr_Ndealkylation2>  (5) 
0

>  <fr_Nhpyrrole>  (5) 
0

>  <fr_SH>  (5) 
0

>  <fr_aldehyde>  (5) 
0

>  <fr_alkyl_carbamate>  (5) 
0

>  <fr_alkyl_halide>  (5) 
0

>  <fr_allylic_oxid>  (5) 
0

>  <fr_amide>  (5) 
1

>  <fr_amidine>  (5) 
0

>  <fr_aniline>  (5) 
1

>  <fr_aryl_methyl>  (5) 
0

>  <fr_azide>  (5) 
0

>  <fr_azo>  (5) 
0

>  <fr_barbitur>  (5) 
0

>  <fr_benzene>  (5) 
1

>  <fr_benzodiazepine>  (5) 
0

>  <fr_bicyclic>  (5) 
2

>  <fr_diazo>  (5) 
0

>  <fr_dihydropyridine>  (5) 
0

>  <fr_epoxide>  (5) 
0

>  <fr_ester>  (5) 
0

>  <fr_ether>  (5) 
1

>  <fr_furan>  (5) 
0

>  <fr_guanido>  (5) 
0

>  <fr_halogen>  (5) 
1

>  <fr_hdrzine>  (5) 
0

>  <fr_hdrzone>  (5) 
0

>  <fr_imidazole>  (5) 
0

>  <fr_imide>  (5) 
0

>  <fr_isocyan>  (5) 
0

>  <fr_isothiocyan>  (5) 
0

>  <fr_ketone>  (5) 
0

>  <fr_ketone_Topliss>  (5) 
0

>  <fr_lactam>  (5) 
0

>  <fr_lactone>  (5) 
0

>  <fr_methoxy>  (5) 
0

>  <fr_morpholine>  (5) 
0

>  <fr_nitrile>  (5) 
0

>  <fr_nitro>  (5) 
0

>  <fr_nitro_arom>  (5) 
0

>  <fr_nitro_arom_nonortho>  (5) 
0

>  <fr_nitroso>  (5) 
0

>  <fr_oxazole>  (5) 
0

>  <fr_oxime>  (5) 
0

>  <fr_para_hydroxylation>  (5) 
0

>  <fr_phenol>  (5) 
0

>  <fr_phenol_noOrthoHbond>  (5) 
0

>  <fr_phos_acid>  (5) 
0

>  <fr_phos_ester>  (5) 
0

>  <fr_piperdine>  (5) 
0

>  <fr_piperzine>  (5) 
0

>  <fr_priamide>  (5) 
0

>  <fr_prisulfonamd>  (5) 
0

>  <fr_pyridine>  (5) 
0

>  <fr_quatN>  (5) 
0

>  <fr_sulfide>  (5) 
0

>  <fr_sulfonamd>  (5) 
0

>  <fr_sulfone>  (5) 
0

>  <fr_term_acetylene>  (5) 
0

>  <fr_tetrazole>  (5) 
0

>  <fr_thiazole>  (5) 
0

>  <fr_thiocyan>  (5) 
0

>  <fr_thiophene>  (5) 
0

>  <fr_unbrch_alkane>  (5) 
0

>  <fr_urea>  (5) 
0

>  <NP_Likeness>  (5) 
-0.529033

$$$$
nan
     RDKit          3D

  0  0  0  0  0  0  0  0  0  0999 V3000
M  V30 BEGIN CTAB
M  V30 COUNTS 57 60 0 0 0
M  V30 BEGIN ATOM
M  V30 1 C 3.456266 -3.482752 1.944981 0
M  V30 2 C 3.975836 -3.118768 0.577537 0
M  V30 3 C 3.827126 -1.708686 0.210434 0
M  V30 4 O 4.313192 -1.622992 -0.975120 0
M  V30 5 N 3.262957 -0.624226 0.983765 0
M  V30 6 C 2.682863 -0.499520 2.305969 0
M  V30 7 C 2.811977 0.982042 2.587007 0
M  V30 8 C 2.435072 1.573855 1.224037 0 CFG=2
M  V30 9 N 1.010289 1.470055 1.015633 0
M  V30 10 C 0.544959 1.999985 -0.215431 0
M  V30 11 N 1.402506 2.548150 -1.090320 0
M  V30 12 C 0.960406 3.059668 -2.275907 0
M  V30 13 N -0.350563 3.049540 -2.644646 0
M  V30 14 C -1.262596 2.502145 -1.787447 0
M  V30 15 C -0.774306 1.996749 -0.600849 0
M  V30 16 C -1.824694 1.421998 0.268866 0
M  V30 17 N -2.649815 0.485634 -0.506221 0
M  V30 18 C -2.817580 -0.872072 -0.218508 0
M  V30 19 C -3.618812 -1.670698 -1.006388 0
M  V30 20 N -3.791241 -2.981226 -0.744576 0
M  V30 21 C -3.193649 -3.596983 0.301917 0
M  V30 22 O -3.339090 -4.941514 0.613295 0
M  V30 23 C -4.144784 -5.816624 -0.151476 0
M  V30 24 C -2.376104 -2.850274 1.131585 0
M  V30 25 C -1.692920 -3.463476 2.294226 0
M  V30 26 F -2.670589 -3.976291 3.146403 0
M  V30 27 F -0.849679 -4.471874 1.892521 0
M  V30 28 F -1.038932 -2.470946 3.003035 0
M  V30 29 C -2.218888 -1.493906 0.831747 0
M  V30 30 C -3.312112 1.088881 -1.647002 0
M  V30 31 C -2.723541 2.419238 -2.048446 0
M  V30 32 C 3.243180 0.682184 0.307634 0
M  V30 33 H 2.434118 -3.159224 2.143967 0
M  V30 34 H 3.414845 -4.616068 1.960295 0
M  V30 35 H 4.206123 -3.232051 2.703944 0
M  V30 36 H 5.079109 -3.360486 0.604193 0
M  V30 37 H 3.542546 -3.804605 -0.192637 0
M  V30 38 H 1.583173 -0.722374 2.287498 0
M  V30 39 H 3.200507 -1.106514 3.078040 0
M  V30 40 H 2.131639 1.337567 3.360094 0
M  V30 41 H 3.888369 1.193658 2.776820 0
M  V30 42 H 2.819520 2.613538 1.142572 0
M  V30 43 H 0.436190 1.026623 1.759785 0
M  V30 44 H 1.701120 3.485939 -2.934295 0
M  V30 45 H -2.539376 2.269862 0.489140 0
M  V30 46 H -1.504002 1.053396 1.229397 0
M  V30 47 H -4.148374 -1.282571 -1.873722 0
M  V30 48 H -5.132811 -5.939697 0.331978 0
M  V30 49 H -3.668950 -6.813018 -0.293115 0
M  V30 50 H -4.307094 -5.375012 -1.148578 0
M  V30 51 H -1.569431 -0.960763 1.513410 0
M  V30 52 H -3.306710 0.465695 -2.557465 0
M  V30 53 H -4.367855 1.242868 -1.331721 0
M  V30 54 H -2.841020 2.601977 -3.137177 0
M  V30 55 H -3.279002 3.208495 -1.479868 0
M  V30 56 H 2.751644 0.640603 -0.660297 0
M  V30 57 H 4.261005 1.101113 0.190580 0
M  V30 END ATOM
M  V30 BEGIN BOND
M  V30 1 1 1 2
M  V30 2 1 2 3
M  V30 3 2 3 4
M  V30 4 1 3 5
M  V30 5 1 5 6
M  V30 6 1 6 7
M  V30 7 1 7 8
M  V30 8 1 8 9
M  V30 9 1 9 10
M  V30 10 2 10 11
M  V30 11 1 11 12
M  V30 12 2 12 13
M  V30 13 1 13 14
M  V30 14 2 14 15
M  V30 15 1 15 16
M  V30 16 1 16 17
M  V30 17 1 17 18
M  V30 18 2 18 19
M  V30 19 1 19 20
M  V30 20 2 20 21
M  V30 21 1 21 22
M  V30 22 1 22 23
M  V30 23 1 21 24
M  V30 24 1 24 25
M  V30 25 1 25 26
M  V30 26 1 25 27
M  V30 27 1 25 28
M  V30 28 2 24 29
M  V30 29 1 17 30
M  V30 30 1 30 31
M  V30 31 1 8 32
M  V30 32 1 32 5
M  V30 33 1 15 10
M  V30 34 1 29 18
M  V30 35 1 31 14
M  V30 36 1 1 33
M  V30 37 1 1 34
M  V30 38 1 1 35
M  V30 39 1 2 36
M  V30 40 1 2 37
M  V30 41 1 6 38
M  V30 42 1 6 39
M  V30 43 1 7 40
M  V30 44 1 7 41
M  V30 45 1 8 42 CFG=1
M  V30 46 1 9 43
M  V30 47 1 12 44
M  V30 48 1 16 45
M  V30 49 1 16 46
M  V30 50 1 19 47
M  V30 51 1 23 48
M  V30 52 1 23 49
M  V30 53 1 23 50
M  V30 54 1 29 51
M  V30 55 1 30 52
M  V30 56 1 30 53
M  V30 57 1 31 54
M  V30 58 1 31 55
M  V30 59 1 32 56
M  V30 60 1 32 57
M  V30 END BOND
M  V30 END CTAB
M  END
>  <Dataset>  (6) 
PKIs

>  <Ligand_Instance>  (6) 
nan

>  <PDB_ID>  (6) 
nan

>  <Standardized_SMILES>  (6) 
CCC(=O)N1CC[C@H](Nc2ncnc3c2CN(c2cnc(OC)c(C(F)(F)F)c2)CC3)C1

>  <Name>  (6) 
Leniolisib

>  <Pocket>  (6) 
nan

>  <ATP_Site>  (6) 
nan

>  <Peripheral>  (6) 
nan

>  <Num_H_Atoms_ProtBoundConf>  (6) 
nan

>  <Num_Resolved_Atoms>  (6) 
nan

>  <Num_Not_Resolved_Atoms>  (6) 
nan

>  <2D_Mol_H>  (6) 
<rdkit.Chem.rdchem.Mol object at 0x72a2391118c0>

>  <MW>  (6) 
450.465

>  <HBA>  (6) 
7

>  <HBD>  (6) 
1

>  <LogP>  (6) 
2.8845

>  <NRB>  (6) 
7

>  <TPSA>  (6) 
83.48

>  <Num_Heavy_Atoms>  (6) 
32

>  <Ro5>  (6) 
[True, True, True, True, True, True]

>  <Ro5_Fulfilled>  (6) 
True

>  <Ro3>  (6) 
[False, False, True, True]

>  <Ro3_Fulfilled>  (6) 
False

>  <Fsp3>  (6) 
0.52381

>  <Fsp3_0.42>  (6) 
True

>  <Fsp3_0.45>  (6) 
True

>  <Stereogenic_Carbons>  (6) 
1

>  <C_Atoms>  (6) 
21

>  <FCStereo>  (6) 
0.047619

>  <SPS>  (6) 
591

>  <nSPS>  (6) 
18.46875

>  <PBF>  (6) 
1.067686

>  <PBF_0.6>  (6) 
True

>  <nPBF>  (6) 
0.033365

>  <nPBF_0.016>  (6) 
True

>  <PMI1>  (6) 
3467.835408

>  <PMI2>  (6) 
4658.059104

>  <PMI3>  (6) 
6943.562123

>  <NPR1>  (6) 
0.499432

>  <NPR2>  (6) 
0.670846

>  <Sum_NPR>  (6) 
1.170277

>  <Sum_NPR_1.07>  (6) 
True

>  <Sum_NPR_1.2>  (6) 
False

>  <MaxAbsEStateIndex>  (6) 
13.430585

>  <MaxEStateIndex>  (6) 
13.430585

>  <MinAbsEStateIndex>  (6) 
0.068853

>  <MinEStateIndex>  (6) 
-4.567316

>  <qed>  (6) 
0.750067

>  <MolWt>  (6) 
450.465

>  <HeavyAtomMolWt>  (6) 
425.265

>  <ExactMolWt>  (6) 
450.199109

>  <NumValenceElectrons>  (6) 
172

>  <NumRadicalElectrons>  (6) 
0

>  <MaxPartialCharge>  (6) 
0.421169

>  <MinPartialCharge>  (6) 
-0.480556

>  <MaxAbsPartialCharge>  (6) 
0.480556

>  <MinAbsPartialCharge>  (6) 
0.421169

>  <FpDensityMorgan1>  (6) 
1.28125

>  <FpDensityMorgan2>  (6) 
2.09375

>  <FpDensityMorgan3>  (6) 
2.8125

>  <BCUT2D_MWHI>  (6) 
19.413199

>  <BCUT2D_MWLOW>  (6) 
10.04623

>  <BCUT2D_CHGHI>  (6) 
2.362226

>  <BCUT2D_CHGLO>  (6) 
-2.314105

>  <BCUT2D_LOGPHI>  (6) 
2.377275

>  <BCUT2D_LOGPLOW>  (6) 
-2.339952

>  <BCUT2D_MRHI>  (6) 
5.758616

>  <BCUT2D_MRLOW>  (6) 
-0.138682

>  <AvgIpc>  (6) 
3.25778

>  <BalabanJ>  (6) 
1.548444

>  <BertzCT>  (6) 
999.985655

>  <Chi0>  (6) 
22.880104

>  <Chi0n>  (6) 
17.945607

>  <Chi0v>  (6) 
17.945607

>  <Chi1>  (6) 
15.295375

>  <Chi1n>  (6) 
10.529949

>  <Chi1v>  (6) 
10.529949

>  <Chi2n>  (6) 
7.890435

>  <Chi2v>  (6) 
7.890435

>  <Chi3n>  (6) 
5.886951

>  <Chi3v>  (6) 
5.886951

>  <Chi4n>  (6) 
4.187369

>  <Chi4v>  (6) 
4.187369

>  <HallKierAlpha>  (6) 
-3.11

>  <Ipc>  (6) 
18968840.837016

>  <Kappa1>  (6) 
22.097113

>  <Kappa2>  (6) 
8.793068

>  <Kappa3>  (6) 
4.415594

>  <LabuteASA>  (6) 
183.356287

>  <PEOE_VSA1>  (6) 
19.853471

>  <PEOE_VSA10>  (6) 
17.708634

>  <PEOE_VSA11>  (6) 
0.0

>  <PEOE_VSA12>  (6) 
11.787168

>  <PEOE_VSA13>  (6) 
0.0

>  <PEOE_VSA14>  (6) 
6.176299

>  <PEOE_VSA2>  (6) 
4.794537

>  <PEOE_VSA3>  (6) 
14.951936

>  <PEOE_VSA4>  (6) 
13.171245

>  <PEOE_VSA5>  (6) 
0.0

>  <PEOE_VSA6>  (6) 
6.923737

>  <PEOE_VSA7>  (6) 
12.487189

>  <PEOE_VSA8>  (6) 
50.625961

>  <PEOE_VSA9>  (6) 
24.687955

>  <SMR_VSA1>  (6) 
22.702645

>  <SMR_VSA10>  (6) 
17.412429

>  <SMR_VSA2>  (6) 
0.0

>  <SMR_VSA3>  (6) 
19.851845

>  <SMR_VSA4>  (6) 
0.0

>  <SMR_VSA5>  (6) 
44.949098

>  <SMR_VSA6>  (6) 
36.960765

>  <SMR_VSA7>  (6) 
35.411362

>  <SMR_VSA8>  (6) 
0.0

>  <SMR_VSA9>  (6) 
5.879988

>  <SlogP_VSA1>  (6) 
14.953561

>  <SlogP_VSA10>  (6) 
24.676494

>  <SlogP_VSA11>  (6) 
5.879988

>  <SlogP_VSA12>  (6) 
0.0

>  <SlogP_VSA2>  (6) 
58.544933

>  <SlogP_VSA3>  (6) 
23.936414

>  <SlogP_VSA4>  (6) 
0.0

>  <SlogP_VSA5>  (6) 
36.586211

>  <SlogP_VSA6>  (6) 
18.590531

>  <SlogP_VSA7>  (6) 
0.0

>  <SlogP_VSA8>  (6) 
0.0

>  <SlogP_VSA9>  (6) 
0.0

>  <EState_VSA1>  (6) 
17.619738

>  <EState_VSA10>  (6) 
17.965782

>  <EState_VSA11>  (6) 
0.0

>  <EState_VSA2>  (6) 
11.949021

>  <EState_VSA3>  (6) 
50.525918

>  <EState_VSA4>  (6) 
23.744568

>  <EState_VSA5>  (6) 
19.633961

>  <EState_VSA6>  (6) 
0.0

>  <EState_VSA7>  (6) 
16.723557

>  <EState_VSA8>  (6) 
20.268724

>  <EState_VSA9>  (6) 
4.736863

>  <VSA_EState1>  (6) 
45.081606

>  <VSA_EState10>  (6) 
0.0

>  <VSA_EState2>  (6) 
28.245662

>  <VSA_EState3>  (6) 
3.416553

>  <VSA_EState4>  (6) 
1.176764

>  <VSA_EState5>  (6) 
0.335594

>  <VSA_EState6>  (6) 
1.137239

>  <VSA_EState7>  (6) 
0.178323

>  <VSA_EState8>  (6) 
4.009709

>  <VSA_EState9>  (6) 
1.168549

>  <FractionCSP3>  (6) 
0.52381

>  <HeavyAtomCount>  (6) 
32

>  <NHOHCount>  (6) 
1

>  <NOCount>  (6) 
8

>  <NumAliphaticCarbocycles>  (6) 
0

>  <NumAliphaticHeterocycles>  (6) 
2

>  <NumAliphaticRings>  (6) 
2

>  <NumAromaticCarbocycles>  (6) 
0

>  <NumAromaticHeterocycles>  (6) 
2

>  <NumAromaticRings>  (6) 
2

>  <NumHAcceptors>  (6) 
7

>  <NumHDonors>  (6) 
1

>  <NumHeteroatoms>  (6) 
11

>  <NumRotatableBonds>  (6) 
5

>  <NumSaturatedCarbocycles>  (6) 
0

>  <NumSaturatedHeterocycles>  (6) 
1

>  <NumSaturatedRings>  (6) 
1

>  <RingCount>  (6) 
4

>  <MolLogP>  (6) 
2.8845

>  <MolMR>  (6) 
111.4757

>  <fr_Al_COO>  (6) 
0

>  <fr_Al_OH>  (6) 
0

>  <fr_Al_OH_noTert>  (6) 
0

>  <fr_ArN>  (6) 
0

>  <fr_Ar_COO>  (6) 
0

>  <fr_Ar_N>  (6) 
3

>  <fr_Ar_NH>  (6) 
0

>  <fr_Ar_OH>  (6) 
0

>  <fr_COO>  (6) 
0

>  <fr_COO2>  (6) 
0

>  <fr_C_O>  (6) 
1

>  <fr_C_O_noCOO>  (6) 
1

>  <fr_C_S>  (6) 
0

>  <fr_HOCCN>  (6) 
0

>  <fr_Imine>  (6) 
0

>  <fr_NH0>  (6) 
5

>  <fr_NH1>  (6) 
1

>  <fr_NH2>  (6) 
0

>  <fr_N_O>  (6) 
0

>  <fr_Ndealkylation1>  (6) 
0

>  <fr_Ndealkylation2>  (6) 
1

>  <fr_Nhpyrrole>  (6) 
0

>  <fr_SH>  (6) 
0

>  <fr_aldehyde>  (6) 
0

>  <fr_alkyl_carbamate>  (6) 
0

>  <fr_alkyl_halide>  (6) 
3

>  <fr_allylic_oxid>  (6) 
0

>  <fr_amide>  (6) 
1

>  <fr_amidine>  (6) 
0

>  <fr_aniline>  (6) 
2

>  <fr_aryl_methyl>  (6) 
0

>  <fr_azide>  (6) 
0

>  <fr_azo>  (6) 
0

>  <fr_barbitur>  (6) 
0

>  <fr_benzene>  (6) 
0

>  <fr_benzodiazepine>  (6) 
0

>  <fr_bicyclic>  (6) 
1

>  <fr_diazo>  (6) 
0

>  <fr_dihydropyridine>  (6) 
0

>  <fr_epoxide>  (6) 
0

>  <fr_ester>  (6) 
0

>  <fr_ether>  (6) 
1

>  <fr_furan>  (6) 
0

>  <fr_guanido>  (6) 
0

>  <fr_halogen>  (6) 
3

>  <fr_hdrzine>  (6) 
0

>  <fr_hdrzone>  (6) 
0

>  <fr_imidazole>  (6) 
0

>  <fr_imide>  (6) 
0

>  <fr_isocyan>  (6) 
0

>  <fr_isothiocyan>  (6) 
0

>  <fr_ketone>  (6) 
0

>  <fr_ketone_Topliss>  (6) 
0

>  <fr_lactam>  (6) 
0

>  <fr_lactone>  (6) 
0

>  <fr_methoxy>  (6) 
1

>  <fr_morpholine>  (6) 
0

>  <fr_nitrile>  (6) 
0

>  <fr_nitro>  (6) 
0

>  <fr_nitro_arom>  (6) 
0

>  <fr_nitro_arom_nonortho>  (6) 
0

>  <fr_nitroso>  (6) 
0

>  <fr_oxazole>  (6) 
0

>  <fr_oxime>  (6) 
0

>  <fr_para_hydroxylation>  (6) 
0

>  <fr_phenol>  (6) 
0

>  <fr_phenol_noOrthoHbond>  (6) 
0

>  <fr_phos_acid>  (6) 
0

>  <fr_phos_ester>  (6) 
0

>  <fr_piperdine>  (6) 
0

>  <fr_piperzine>  (6) 
0

>  <fr_priamide>  (6) 
0

>  <fr_prisulfonamd>  (6) 
0

>  <fr_pyridine>  (6) 
1

>  <fr_quatN>  (6) 
0

>  <fr_sulfide>  (6) 
0

>  <fr_sulfonamd>  (6) 
0

>  <fr_sulfone>  (6) 
0

>  <fr_term_acetylene>  (6) 
0

>  <fr_tetrazole>  (6) 
0

>  <fr_thiazole>  (6) 
0

>  <fr_thiocyan>  (6) 
0

>  <fr_thiophene>  (6) 
0

>  <fr_unbrch_alkane>  (6) 
0

>  <fr_urea>  (6) 
0

>  <NP_Likeness>  (6) 
-1.566823

$$$$
nan
     RDKit          3D

  0  0  0  0  0  0  0  0  0  0999 V3000
M  V30 BEGIN CTAB
M  V30 COUNTS 72 77 0 0 0
M  V30 BEGIN ATOM
M  V30 1 C 8.341777 -1.618489 6.244001 0
M  V30 2 C 7.045880 -1.744609 5.474092 0
M  V30 3 C 5.926280 -1.953099 6.462701 0
M  V30 4 C 7.140752 -2.944411 4.548767 0
M  V30 5 C 6.865538 -0.533909 4.654653 0
M  V30 6 C 6.195699 0.556855 5.136701 0
M  V30 7 C 6.205334 1.495685 4.142070 0
M  V30 8 N 5.732743 2.830033 3.837793 0
M  V30 9 C 4.445227 3.019649 3.207490 0
M  V30 10 O 3.820028 1.917180 2.982323 0
M  V30 11 N 3.722566 4.172552 2.783386 0
M  V30 12 C 2.491051 3.647277 2.227402 0
M  V30 13 C 2.705041 3.304919 0.910129 0
M  V30 14 C 1.684276 2.746671 0.169251 0
M  V30 15 C 0.471963 2.569227 0.835182 0
M  V30 16 C -0.614502 1.929061 0.111271 0
M  V30 17 C -0.620913 1.448142 -1.169106 0
M  V30 18 N -1.813473 0.907307 -1.526523 0
M  V30 19 C -2.503028 1.089396 -0.410446 0
M  V30 20 N -1.839709 1.689711 0.588862 0
M  V30 21 S -4.168638 0.371000 -0.766454 0
M  V30 22 C -3.678543 -0.101095 -2.456052 0
M  V30 23 C -4.457059 -0.734715 -3.406725 0
M  V30 24 C -3.895453 -0.994790 -4.625845 0
M  V30 25 O -4.503487 -1.618929 -5.690814 0
M  V30 26 C -5.835541 -2.147684 -5.600228 0
M  V30 27 C -5.820960 -3.291985 -4.630797 0
M  V30 28 N -7.045278 -3.949097 -4.365854 0
M  V30 29 C -6.708606 -5.034376 -3.436927 0
M  V30 30 C -7.714634 -5.185439 -2.350394 0
M  V30 31 O -8.974739 -5.221588 -2.989752 0
M  V30 32 C -9.267136 -3.930431 -3.363000 0
M  V30 33 C -8.102707 -3.124542 -3.863862 0
M  V30 34 C -2.589817 -0.590001 -4.781563 0
M  V30 35 C -1.839199 0.032674 -3.830978 0
M  V30 36 C -2.364127 0.312260 -2.585940 0
M  V30 37 C 0.263780 2.919153 2.161185 0
M  V30 38 C 1.295678 3.473357 2.887016 0
M  V30 39 N 6.874427 0.941377 3.103337 0
M  V30 40 O 7.269555 -0.274839 3.407875 0
M  V30 41 H 9.150270 -1.901697 5.540859 0
M  V30 42 H 8.353424 -2.245481 7.158244 0
M  V30 43 H 8.459143 -0.550525 6.492757 0
M  V30 44 H 4.978807 -1.485367 6.147883 0
M  V30 45 H 6.228812 -1.680945 7.496873 0
M  V30 46 H 5.724699 -3.057849 6.505140 0
M  V30 47 H 6.136752 -3.353339 4.277175 0
M  V30 48 H 7.627489 -2.684830 3.596633 0
M  V30 49 H 7.706522 -3.775828 5.013415 0
M  V30 50 H 5.694595 0.863781 6.042490 0
M  V30 51 H 6.153831 3.782665 3.980137 0
M  V30 52 H 4.274186 5.025268 2.995624 0
M  V30 53 H 3.642501 3.427848 0.348515 0
M  V30 54 H 1.824471 2.469355 -0.866733 0
M  V30 55 H 0.295936 1.534094 -1.775119 0
M  V30 56 H -5.461788 -0.962967 -3.148328 0
M  V30 57 H -6.505198 -1.324053 -5.350195 0
M  V30 58 H -6.098151 -2.513359 -6.616291 0
M  V30 59 H -5.193986 -3.103953 -3.749256 0
M  V30 60 H -5.189818 -4.095328 -5.187557 0
M  V30 61 H -5.724380 -4.856409 -2.947711 0
M  V30 62 H -6.592991 -5.998284 -3.977111 0
M  V30 63 H -7.620246 -6.133710 -1.821540 0
M  V30 64 H -7.746464 -4.311862 -1.675595 0
M  V30 65 H -10.093777 -4.014052 -4.125035 0
M  V30 66 H -9.775836 -3.437655 -2.479704 0
M  V30 67 H -8.509590 -2.510098 -4.702680 0
M  V30 68 H -7.686151 -2.490326 -3.046295 0
M  V30 69 H -2.098595 -0.778376 -5.755071 0
M  V30 70 H -0.810791 0.292183 -4.101036 0
M  V30 71 H -0.678065 2.780245 2.663552 0
M  V30 72 H 1.276611 3.793264 3.912369 0
M  V30 END ATOM
M  V30 BEGIN BOND
M  V30 1 1 1 2
M  V30 2 1 2 3
M  V30 3 1 2 4
M  V30 4 1 2 5
M  V30 5 2 5 6
M  V30 6 1 6 7
M  V30 7 1 7 8
M  V30 8 1 8 9
M  V30 9 2 9 10
M  V30 10 1 9 11
M  V30 11 1 11 12
M  V30 12 2 12 13
M  V30 13 1 13 14
M  V30 14 2 14 15
M  V30 15 1 15 16
M  V30 16 2 16 17
M  V30 17 1 17 18
M  V30 18 1 18 19
M  V30 19 2 19 20
M  V30 20 1 19 21
M  V30 21 1 21 22
M  V30 22 2 22 23
M  V30 23 1 23 24
M  V30 24 1 24 25
M  V30 25 1 25 26
M  V30 26 1 26 27
M  V30 27 1 27 28
M  V30 28 1 28 29
M  V30 29 1 29 30
M  V30 30 1 30 31
M  V30 31 1 31 32
M  V30 32 1 32 33
M  V30 33 2 24 34
M  V30 34 1 34 35
M  V30 35 2 35 36
M  V30 36 1 15 37
M  V30 37 2 37 38
M  V30 38 2 7 39
M  V30 39 1 39 40
M  V30 40 1 40 5
M  V30 41 1 38 12
M  V30 42 1 20 16
M  V30 43 1 36 22
M  V30 44 1 36 18
M  V30 45 1 33 28
M  V30 46 1 1 41
M  V30 47 1 1 42
M  V30 48 1 1 43
M  V30 49 1 3 44
M  V30 50 1 3 45
M  V30 51 1 3 46
M  V30 52 1 4 47
M  V30 53 1 4 48
M  V30 54 1 4 49
M  V30 55 1 6 50
M  V30 56 1 8 51
M  V30 57 1 11 52
M  V30 58 1 13 53
M  V30 59 1 14 54
M  V30 60 1 17 55
M  V30 61 1 23 56
M  V30 62 1 26 57
M  V30 63 1 26 58
M  V30 64 1 27 59
M  V30 65 1 27 60
M  V30 66 1 29 61
M  V30 67 1 29 62
M  V30 68 1 30 63
M  V30 69 1 30 64
M  V30 70 1 32 65
M  V30 71 1 32 66
M  V30 72 1 33 67
M  V30 73 1 33 68
M  V30 74 1 34 69
M  V30 75 1 35 70
M  V30 76 1 37 71
M  V30 77 1 38 72
M  V30 END BOND
M  V30 END CTAB
M  END
>  <Dataset>  (7) 
PKIs

>  <Ligand_Instance>  (7) 
nan

>  <PDB_ID>  (7) 
nan

>  <Standardized_SMILES>  (7) 
CC(C)(C)c1cc(NC(=O)Nc2ccc(-c3cn4c(n3)sc3cc(OCCN5CCOCC5)ccc34)cc2)no1

>  <Name>  (7) 
Quizartinib

>  <Pocket>  (7) 
nan

>  <ATP_Site>  (7) 
nan

>  <Peripheral>  (7) 
nan

>  <Num_H_Atoms_ProtBoundConf>  (7) 
nan

>  <Num_Resolved_Atoms>  (7) 
nan

>  <Num_Not_Resolved_Atoms>  (7) 
nan

>  <2D_Mol_H>  (7) 
<rdkit.Chem.rdchem.Mol object at 0x72a2391119a0>

>  <MW>  (7) 
560.68

>  <HBA>  (7) 
9

>  <HBD>  (7) 
2

>  <LogP>  (7) 
5.8565

>  <NRB>  (7) 
7

>  <TPSA>  (7) 
106.16

>  <Num_Heavy_Atoms>  (7) 
40

>  <Ro5>  (7) 
[False, True, True, False, True, True]

>  <Ro5_Fulfilled>  (7) 
False

>  <Ro3>  (7) 
[False, False, True, False]

>  <Ro3_Fulfilled>  (7) 
False

>  <Fsp3>  (7) 
0.344828

>  <Fsp3_0.42>  (7) 
False

>  <Fsp3_0.45>  (7) 
False

>  <Stereogenic_Carbons>  (7) 
0

>  <C_Atoms>  (7) 
29

>  <FCStereo>  (7) 
0.0

>  <SPS>  (7) 
583

>  <nSPS>  (7) 
14.575

>  <PBF>  (7) 
1.214597

>  <PBF_0.6>  (7) 
True

>  <nPBF>  (7) 
0.030365

>  <nPBF_0.016>  (7) 
True

>  <PMI1>  (7) 
3706.691594

>  <PMI2>  (7) 
24100.208125

>  <PMI3>  (7) 
25938.836303

>  <NPR1>  (7) 
0.142901

>  <NPR2>  (7) 
0.929117

>  <Sum_NPR>  (7) 
1.072018

>  <Sum_NPR_1.07>  (7) 
True

>  <Sum_NPR_1.2>  (7) 
False

>  <MaxAbsEStateIndex>  (7) 
12.423821

>  <MaxEStateIndex>  (7) 
12.423821

>  <MinAbsEStateIndex>  (7) 
0.186825

>  <MinEStateIndex>  (7) 
-0.388955

>  <qed>  (7) 
0.256948

>  <MolWt>  (7) 
560.68

>  <HeavyAtomMolWt>  (7) 
528.424

>  <ExactMolWt>  (7) 
560.220575

>  <NumValenceElectrons>  (7) 
208

>  <NumRadicalElectrons>  (7) 
0

>  <MaxPartialCharge>  (7) 
0.324439

>  <MinPartialCharge>  (7) 
-0.492209

>  <MaxAbsPartialCharge>  (7) 
0.492209

>  <MinAbsPartialCharge>  (7) 
0.324439

>  <FpDensityMorgan1>  (7) 
1.075

>  <FpDensityMorgan2>  (7) 
1.875

>  <FpDensityMorgan3>  (7) 
2.625

>  <BCUT2D_MWHI>  (7) 
32.133519

>  <BCUT2D_MWLOW>  (7) 
9.934314

>  <BCUT2D_CHGHI>  (7) 
2.202146

>  <BCUT2D_CHGLO>  (7) 
-2.258042

>  <BCUT2D_LOGPHI>  (7) 
2.320406

>  <BCUT2D_LOGPLOW>  (7) 
-2.382051

>  <BCUT2D_MRHI>  (7) 
7.23167

>  <BCUT2D_MRLOW>  (7) 
0.032242

>  <AvgIpc>  (7) 
3.644349

>  <BalabanJ>  (7) 
1.079695

>  <BertzCT>  (7) 
1626.053961

>  <Chi0>  (7) 
27.691659

>  <Chi0n>  (7) 
22.768889

>  <Chi0v>  (7) 
23.585386

>  <Chi1>  (7) 
19.313814

>  <Chi1n>  (7) 
13.319563

>  <Chi1v>  (7) 
14.13606

>  <Chi2n>  (7) 
10.795665

>  <Chi2v>  (7) 
11.804764

>  <Chi3n>  (7) 
6.775053

>  <Chi3v>  (7) 
7.792514

>  <Chi4n>  (7) 
4.518221

>  <Chi4v>  (7) 
5.554349

>  <HallKierAlpha>  (7) 
-3.93

>  <Ipc>  (7) 
1721391207.242774

>  <Kappa1>  (7) 
26.300758

>  <Kappa2>  (7) 
10.915011

>  <Kappa3>  (7) 
5.811669

>  <LabuteASA>  (7) 
235.427464

>  <PEOE_VSA1>  (7) 
19.313609

>  <PEOE_VSA10>  (7) 
18.116641

>  <PEOE_VSA11>  (7) 
10.778736

>  <PEOE_VSA12>  (7) 
0.0

>  <PEOE_VSA13>  (7) 
0.0

>  <PEOE_VSA14>  (7) 
6.031115

>  <PEOE_VSA2>  (7) 
14.617393

>  <PEOE_VSA3>  (7) 
9.778516

>  <PEOE_VSA4>  (7) 
0.0

>  <PEOE_VSA5>  (7) 
0.0

>  <PEOE_VSA6>  (7) 
49.397395

>  <PEOE_VSA7>  (7) 
30.331835

>  <PEOE_VSA8>  (7) 
48.563308

>  <PEOE_VSA9>  (7) 
29.124313

>  <SMR_VSA1>  (7) 
18.791358

>  <SMR_VSA10>  (7) 
44.050643

>  <SMR_VSA2>  (7) 
0.0

>  <SMR_VSA3>  (7) 
19.441246

>  <SMR_VSA4>  (7) 
0.0

>  <SMR_VSA5>  (7) 
26.186202

>  <SMR_VSA6>  (7) 
50.088492

>  <SMR_VSA7>  (7) 
60.488028

>  <SMR_VSA8>  (7) 
0.0

>  <SMR_VSA9>  (7) 
17.006891

>  <SlogP_VSA1>  (7) 
15.37044

>  <SlogP_VSA10>  (7) 
16.299786

>  <SlogP_VSA11>  (7) 
5.749512

>  <SlogP_VSA12>  (7) 
11.336786

>  <SlogP_VSA2>  (7) 
64.927276

>  <SlogP_VSA3>  (7) 
10.151853

>  <SlogP_VSA4>  (7) 
0.0

>  <SlogP_VSA5>  (7) 
26.531459

>  <SlogP_VSA6>  (7) 
59.250875

>  <SlogP_VSA7>  (7) 
0.0

>  <SlogP_VSA8>  (7) 
26.434873

>  <SlogP_VSA9>  (7) 
0.0

>  <EState_VSA1>  (7) 
0.0

>  <EState_VSA10>  (7) 
4.794537

>  <EState_VSA11>  (7) 
0.0

>  <EState_VSA2>  (7) 
11.446105

>  <EState_VSA3>  (7) 
23.872378

>  <EState_VSA4>  (7) 
65.032418

>  <EState_VSA5>  (7) 
0.0

>  <EState_VSA6>  (7) 
17.403153

>  <EState_VSA7>  (7) 
57.299891

>  <EState_VSA8>  (7) 
37.223579

>  <EState_VSA9>  (7) 
18.980799

>  <VSA_EState1>  (7) 
19.982756

>  <VSA_EState10>  (7) 
1.634456

>  <VSA_EState2>  (7) 
20.547637

>  <VSA_EState3>  (7) 
9.453132

>  <VSA_EState4>  (7) 
3.398187

>  <VSA_EState5>  (7) 
1.944434

>  <VSA_EState6>  (7) 
15.117446

>  <VSA_EState7>  (7) 
2.041316

>  <VSA_EState8>  (7) 
11.130637

>  <VSA_EState9>  (7) 
0.0

>  <FractionCSP3>  (7) 
0.344828

>  <HeavyAtomCount>  (7) 
40

>  <NHOHCount>  (7) 
2

>  <NOCount>  (7) 
10

>  <NumAliphaticCarbocycles>  (7) 
0

>  <NumAliphaticHeterocycles>  (7) 
1

>  <NumAliphaticRings>  (7) 
1

>  <NumAromaticCarbocycles>  (7) 
2

>  <NumAromaticHeterocycles>  (7) 
3

>  <NumAromaticRings>  (7) 
5

>  <NumHAcceptors>  (7) 
9

>  <NumHDonors>  (7) 
2

>  <NumHeteroatoms>  (7) 
11

>  <NumRotatableBonds>  (7) 
7

>  <NumSaturatedCarbocycles>  (7) 
0

>  <NumSaturatedHeterocycles>  (7) 
1

>  <NumSaturatedRings>  (7) 
1

>  <RingCount>  (7) 
6

>  <MolLogP>  (7) 
5.8565

>  <MolMR>  (7) 
156.6094

>  <fr_Al_COO>  (7) 
0

>  <fr_Al_OH>  (7) 
0

>  <fr_Al_OH_noTert>  (7) 
0

>  <fr_ArN>  (7) 
0

>  <fr_Ar_COO>  (7) 
0

>  <fr_Ar_N>  (7) 
3

>  <fr_Ar_NH>  (7) 
0

>  <fr_Ar_OH>  (7) 
0

>  <fr_COO>  (7) 
0

>  <fr_COO2>  (7) 
0

>  <fr_C_O>  (7) 
1

>  <fr_C_O_noCOO>  (7) 
1

>  <fr_C_S>  (7) 
0

>  <fr_HOCCN>  (7) 
0

>  <fr_Imine>  (7) 
0

>  <fr_NH0>  (7) 
4

>  <fr_NH1>  (7) 
2

>  <fr_NH2>  (7) 
0

>  <fr_N_O>  (7) 
0

>  <fr_Ndealkylation1>  (7) 
0

>  <fr_Ndealkylation2>  (7) 
0

>  <fr_Nhpyrrole>  (7) 
0

>  <fr_SH>  (7) 
0

>  <fr_aldehyde>  (7) 
0

>  <fr_alkyl_carbamate>  (7) 
0

>  <fr_alkyl_halide>  (7) 
0

>  <fr_allylic_oxid>  (7) 
0

>  <fr_amide>  (7) 
2

>  <fr_amidine>  (7) 
0

>  <fr_aniline>  (7) 
2

>  <fr_aryl_methyl>  (7) 
0

>  <fr_azide>  (7) 
0

>  <fr_azo>  (7) 
0

>  <fr_barbitur>  (7) 
0

>  <fr_benzene>  (7) 
2

>  <fr_benzodiazepine>  (7) 
0

>  <fr_bicyclic>  (7) 
3

>  <fr_diazo>  (7) 
0

>  <fr_dihydropyridine>  (7) 
0

>  <fr_epoxide>  (7) 
0

>  <fr_ester>  (7) 
0

>  <fr_ether>  (7) 
2

>  <fr_furan>  (7) 
0

>  <fr_guanido>  (7) 
0

>  <fr_halogen>  (7) 
0

>  <fr_hdrzine>  (7) 
0

>  <fr_hdrzone>  (7) 
0

>  <fr_imidazole>  (7) 
1

>  <fr_imide>  (7) 
0

>  <fr_isocyan>  (7) 
0

>  <fr_isothiocyan>  (7) 
0

>  <fr_ketone>  (7) 
0

>  <fr_ketone_Topliss>  (7) 
0

>  <fr_lactam>  (7) 
0

>  <fr_lactone>  (7) 
0

>  <fr_methoxy>  (7) 
0

>  <fr_morpholine>  (7) 
1

>  <fr_nitrile>  (7) 
0

>  <fr_nitro>  (7) 
0

>  <fr_nitro_arom>  (7) 
0

>  <fr_nitro_arom_nonortho>  (7) 
0

>  <fr_nitroso>  (7) 
0

>  <fr_oxazole>  (7) 
0

>  <fr_oxime>  (7) 
0

>  <fr_para_hydroxylation>  (7) 
0

>  <fr_phenol>  (7) 
0

>  <fr_phenol_noOrthoHbond>  (7) 
0

>  <fr_phos_acid>  (7) 
0

>  <fr_phos_ester>  (7) 
0

>  <fr_piperdine>  (7) 
0

>  <fr_piperzine>  (7) 
0

>  <fr_priamide>  (7) 
0

>  <fr_prisulfonamd>  (7) 
0

>  <fr_pyridine>  (7) 
0

>  <fr_quatN>  (7) 
0

>  <fr_sulfide>  (7) 
0

>  <fr_sulfonamd>  (7) 
0

>  <fr_sulfone>  (7) 
0

>  <fr_term_acetylene>  (7) 
0

>  <fr_tetrazole>  (7) 
0

>  <fr_thiazole>  (7) 
1

>  <fr_thiocyan>  (7) 
0

>  <fr_thiophene>  (7) 
0

>  <fr_unbrch_alkane>  (7) 
0

>  <fr_urea>  (7) 
1

>  <NP_Likeness>  (7) 
-2.18928

$$$$
nan
     RDKit          3D

  0  0  0  0  0  0  0  0  0  0999 V3000
M  V30 BEGIN CTAB
M  V30 COUNTS 55 57 0 0 0
M  V30 BEGIN ATOM
M  V30 1 C 1.808764 -1.958681 3.543854 0
M  V30 2 O 2.252558 -0.831375 2.835896 0
M  V30 3 C 3.631131 -0.464176 3.055968 0
M  V30 4 C 4.559527 -1.042467 3.840181 0
M  V30 5 C 5.812772 -0.436315 3.833787 0
M  V30 6 C 5.931621 0.700494 3.006060 0
M  V30 7 F 7.244445 1.028642 3.231511 0
M  V30 8 C 4.771144 1.116521 2.262228 0
M  V30 9 C 3.384588 0.520863 2.209315 0
M  V30 10 C 3.120114 1.577954 1.300776 0
M  V30 11 O 2.031795 0.914873 1.314778 0
M  V30 12 N 3.224346 2.699090 0.506716 0
M  V30 13 C 2.154981 3.154722 -0.314689 0
M  V30 14 C 0.999289 2.228673 -0.375642 0
M  V30 15 C -0.145990 2.216177 0.418363 0
M  V30 16 C -1.032572 1.197572 0.154977 0
M  V30 17 C -0.921087 0.201994 -0.789919 0
M  V30 18 C -1.951378 -0.818503 -0.898248 0
M  V30 19 N -2.355311 -1.450490 0.232911 0
M  V30 20 N -3.290344 -2.349789 -0.026513 0
M  V30 21 C -3.899367 -3.170959 0.995287 0 CFG=1
M  V30 22 C -5.366695 -2.740438 1.088244 0
M  V30 23 C -3.864665 -4.638410 0.734002 0
M  V30 24 F -4.493484 -5.053871 -0.396015 0
M  V30 25 F -4.531395 -5.259747 1.800885 0
M  V30 26 F -2.539797 -5.089072 0.828500 0
M  V30 27 C -3.504204 -2.309887 -1.336221 0
M  V30 28 N -4.410472 -3.083910 -2.096492 0
M  V30 29 C -2.690806 -1.370434 -1.912080 0
M  V30 30 C -2.588260 -0.986538 -3.275691 0
M  V30 31 N -1.791087 -0.007714 -3.891430 0
M  V30 32 O -3.321950 -1.609647 -4.084321 0
M  V30 33 C 0.230521 0.262139 -1.548710 0
M  V30 34 C 1.185765 1.247436 -1.363621 0
M  V30 35 H 2.498558 -2.829375 3.417885 0
M  V30 36 H 0.822126 -2.319629 3.176461 0
M  V30 37 H 1.729501 -1.816216 4.641106 0
M  V30 38 H 4.060817 -1.887445 4.308253 0
M  V30 39 H 6.399549 -1.037585 4.504554 0
M  V30 40 H 5.428935 1.961902 1.859233 0
M  V30 41 H 4.195649 2.953272 0.750950 0
M  V30 42 H 2.550650 3.364500 -1.315233 0
M  V30 43 H 1.820848 4.149362 0.077307 0
M  V30 44 H -0.192632 3.008680 1.135653 0
M  V30 45 H -1.926015 1.207422 0.790844 0
M  V30 46 H -3.476992 -2.962645 2.000361 0
M  V30 47 H -5.873864 -3.129319 0.195062 0
M  V30 48 H -5.362529 -1.631059 1.174716 0
M  V30 49 H -5.829937 -3.204435 1.984060 0
M  V30 50 H -5.439714 -3.189212 -2.234380 0
M  V30 51 H -4.119761 -3.834148 -2.788842 0
M  V30 52 H -2.439665 0.804851 -3.746441 0
M  V30 53 H -0.973143 0.370074 -4.383322 0
M  V30 54 H 0.382950 -0.502398 -2.300683 0
M  V30 55 H 2.045254 1.187736 -2.024946 0
M  V30 END ATOM
M  V30 BEGIN BOND
M  V30 1 1 1 2
M  V30 2 1 2 3
M  V30 3 2 3 4
M  V30 4 1 4 5
M  V30 5 2 5 6
M  V30 6 1 6 7
M  V30 7 1 6 8
M  V30 8 2 8 9
M  V30 9 1 9 10
M  V30 10 2 10 11
M  V30 11 1 10 12
M  V30 12 1 12 13
M  V30 13 1 13 14
M  V30 14 2 14 15
M  V30 15 1 15 16
M  V30 16 2 16 17
M  V30 17 1 17 18
M  V30 18 2 18 19
M  V30 19 1 19 20
M  V30 20 1 20 21
M  V30 21 1 21 22
M  V30 22 1 21 23
M  V30 23 1 23 24
M  V30 24 1 23 25
M  V30 25 1 23 26
M  V30 26 1 20 27
M  V30 27 1 27 28
M  V30 28 2 27 29
M  V30 29 1 29 30
M  V30 30 1 30 31
M  V30 31 2 30 32
M  V30 32 1 17 33
M  V30 33 2 33 34
M  V30 34 1 9 3
M  V30 35 1 34 14
M  V30 36 1 29 18
M  V30 37 1 1 35
M  V30 38 1 1 36
M  V30 39 1 1 37
M  V30 40 1 4 38
M  V30 41 1 5 39
M  V30 42 1 8 40
M  V30 43 1 12 41
M  V30 44 1 13 42
M  V30 45 1 13 43
M  V30 46 1 15 44
M  V30 47 1 16 45
M  V30 48 1 21 46 CFG=1
M  V30 49 1 22 47
M  V30 50 1 22 48
M  V30 51 1 22 49
M  V30 52 1 28 50
M  V30 53 1 28 51
M  V30 54 1 31 52
M  V30 55 1 31 53
M  V30 56 1 33 54
M  V30 57 1 34 55
M  V30 END BOND
M  V30 END CTAB
M  END
>  <Dataset>  (8) 
PKIs

>  <Ligand_Instance>  (8) 
nan

>  <PDB_ID>  (8) 
nan

>  <Standardized_SMILES>  (8) 
COc1ccc(F)cc1C(=O)NCc1ccc(-c2nn([C@@H](C)C(F)(F)F)c(N)c2C(N)=O)cc1

>  <Name>  (8) 
Pirtobrutinib

>  <Pocket>  (8) 
nan

>  <ATP_Site>  (8) 
nan

>  <Peripheral>  (8) 
nan

>  <Num_H_Atoms_ProtBoundConf>  (8) 
nan

>  <Num_Resolved_Atoms>  (8) 
nan

>  <Num_Not_Resolved_Atoms>  (8) 
nan

>  <2D_Mol_H>  (8) 
<rdkit.Chem.rdchem.Mol object at 0x72a239111a80>

>  <MW>  (8) 
479.434

>  <HBA>  (8) 
6

>  <HBD>  (8) 
3

>  <LogP>  (8) 
3.4322

>  <NRB>  (8) 
10

>  <TPSA>  (8) 
125.26

>  <Num_Heavy_Atoms>  (8) 
34

>  <Ro5>  (8) 
[True, True, True, True, True, True]

>  <Ro5_Fulfilled>  (8) 
True

>  <Ro3>  (8) 
[False, False, True, False]

>  <Ro3_Fulfilled>  (8) 
False

>  <Fsp3>  (8) 
0.227273

>  <Fsp3_0.42>  (8) 
False

>  <Fsp3_0.45>  (8) 
False

>  <Stereogenic_Carbons>  (8) 
1

>  <C_Atoms>  (8) 
22

>  <FCStereo>  (8) 
0.045455

>  <SPS>  (8) 
418

>  <nSPS>  (8) 
12.294118

>  <PBF>  (8) 
0.895321

>  <PBF_0.6>  (8) 
True

>  <nPBF>  (8) 
0.026333

>  <nPBF_0.016>  (8) 
True

>  <PMI1>  (8) 
2674.646334

>  <PMI2>  (8) 
8722.833584

>  <PMI3>  (8) 
10655.124754

>  <NPR1>  (8) 
0.25102

>  <NPR2>  (8) 
0.818651

>  <Sum_NPR>  (8) 
1.069671

>  <Sum_NPR_1.07>  (8) 
False

>  <Sum_NPR_1.2>  (8) 
False

>  <MaxAbsEStateIndex>  (8) 
13.499987

>  <MaxEStateIndex>  (8) 
13.499987

>  <MinAbsEStateIndex>  (8) 
0.018537

>  <MinEStateIndex>  (8) 
-4.640139

>  <qed>  (8) 
0.447968

>  <MolWt>  (8) 
479.434

>  <HeavyAtomMolWt>  (8) 
458.266

>  <ExactMolWt>  (8) 
479.158052

>  <NumValenceElectrons>  (8) 
180

>  <NumRadicalElectrons>  (8) 
0

>  <MaxPartialCharge>  (8) 
0.410126

>  <MinPartialCharge>  (8) 
-0.495921

>  <MaxAbsPartialCharge>  (8) 
0.495921

>  <MinAbsPartialCharge>  (8) 
0.410126

>  <FpDensityMorgan1>  (8) 
1.176471

>  <FpDensityMorgan2>  (8) 
1.823529

>  <FpDensityMorgan3>  (8) 
2.382353

>  <BCUT2D_MWHI>  (8) 
19.413381

>  <BCUT2D_MWLOW>  (8) 
10.048317

>  <BCUT2D_CHGHI>  (8) 
2.400305

>  <BCUT2D_CHGLO>  (8) 
-2.166794

>  <BCUT2D_LOGPHI>  (8) 
2.35228

>  <BCUT2D_LOGPLOW>  (8) 
-2.258632

>  <BCUT2D_MRHI>  (8) 
6.029511

>  <BCUT2D_MRLOW>  (8) 
-0.164368

>  <AvgIpc>  (8) 
3.132146

>  <BalabanJ>  (8) 
1.828746

>  <BertzCT>  (8) 
1222.513356

>  <Chi0>  (8) 
25.206378

>  <Chi0n>  (8) 
18.111639

>  <Chi0v>  (8) 
18.111639

>  <Chi1>  (8) 
15.933778

>  <Chi1n>  (8) 
9.891846

>  <Chi1v>  (8) 
9.891846

>  <Chi2n>  (8) 
7.35946

>  <Chi2v>  (8) 
7.35946

>  <Chi3n>  (8) 
5.121058

>  <Chi3v>  (8) 
5.121058

>  <Chi4n>  (8) 
3.242025

>  <Chi4v>  (8) 
3.242025

>  <HallKierAlpha>  (8) 
-4.09

>  <Ipc>  (8) 
24199985.534985

>  <Kappa1>  (8) 
24.550423

>  <Kappa2>  (8) 
9.413962

>  <Kappa3>  (8) 
4.948227

>  <LabuteASA>  (8) 
191.035794

>  <PEOE_VSA1>  (8) 
21.520987

>  <PEOE_VSA10>  (8) 
34.683816

>  <PEOE_VSA11>  (8) 
0.0

>  <PEOE_VSA12>  (8) 
0.0

>  <PEOE_VSA13>  (8) 
11.814359

>  <PEOE_VSA14>  (8) 
6.176299

>  <PEOE_VSA2>  (8) 
9.589074

>  <PEOE_VSA3>  (8) 
9.072218

>  <PEOE_VSA4>  (8) 
18.269927

>  <PEOE_VSA5>  (8) 
0.0

>  <PEOE_VSA6>  (8) 
24.265468

>  <PEOE_VSA7>  (8) 
30.68629

>  <PEOE_VSA8>  (8) 
12.108208

>  <PEOE_VSA9>  (8) 
12.673249

>  <SMR_VSA1>  (8) 
31.887598

>  <SMR_VSA10>  (8) 
17.632222

>  <SMR_VSA2>  (8) 
0.0

>  <SMR_VSA3>  (8) 
15.097273

>  <SMR_VSA4>  (8) 
5.733667

>  <SMR_VSA5>  (8) 
25.686633

>  <SMR_VSA6>  (8) 
12.843465

>  <SMR_VSA7>  (8) 
64.972145

>  <SMR_VSA8>  (8) 
0.0

>  <SMR_VSA9>  (8) 
17.006891

>  <SlogP_VSA1>  (8) 
21.520987

>  <SlogP_VSA10>  (8) 
23.379523

>  <SlogP_VSA11>  (8) 
5.749512

>  <SlogP_VSA12>  (8) 
0.0

>  <SlogP_VSA2>  (8) 
34.88094

>  <SlogP_VSA3>  (8) 
6.544756

>  <SlogP_VSA4>  (8) 
5.817221

>  <SlogP_VSA5>  (8) 
39.245007

>  <SlogP_VSA6>  (8) 
42.464569

>  <SlogP_VSA7>  (8) 
0.0

>  <SlogP_VSA8>  (8) 
11.257379

>  <SlogP_VSA9>  (8) 
0.0

>  <EState_VSA1>  (8) 
35.667582

>  <EState_VSA10>  (8) 
27.150735

>  <EState_VSA11>  (8) 
0.0

>  <EState_VSA2>  (8) 
29.115099

>  <EState_VSA3>  (8) 
15.808706

>  <EState_VSA4>  (8) 
19.056471

>  <EState_VSA5>  (8) 
25.308899

>  <EState_VSA6>  (8) 
12.132734

>  <EState_VSA7>  (8) 
0.0

>  <EState_VSA8>  (8) 
10.41547

>  <EState_VSA9>  (8) 
16.204198

>  <VSA_EState1>  (8) 
58.550267

>  <VSA_EState10>  (8) 
0.0

>  <VSA_EState2>  (8) 
24.295454

>  <VSA_EState3>  (8) 
6.516535

>  <VSA_EState4>  (8) 
11.608476

>  <VSA_EState5>  (8) 
-2.473236

>  <VSA_EState6>  (8) 
7.62176

>  <VSA_EState7>  (8) 
-4.640139

>  <VSA_EState8>  (8) 
0.917099

>  <VSA_EState9>  (8) 
1.353784

>  <FractionCSP3>  (8) 
0.227273

>  <HeavyAtomCount>  (8) 
34

>  <NHOHCount>  (8) 
5

>  <NOCount>  (8) 
8

>  <NumAliphaticCarbocycles>  (8) 
0

>  <NumAliphaticHeterocycles>  (8) 
0

>  <NumAliphaticRings>  (8) 
0

>  <NumAromaticCarbocycles>  (8) 
2

>  <NumAromaticHeterocycles>  (8) 
1

>  <NumAromaticRings>  (8) 
3

>  <NumHAcceptors>  (8) 
6

>  <NumHDonors>  (8) 
3

>  <NumHeteroatoms>  (8) 
12

>  <NumRotatableBonds>  (8) 
7

>  <NumSaturatedCarbocycles>  (8) 
0

>  <NumSaturatedHeterocycles>  (8) 
0

>  <NumSaturatedRings>  (8) 
0

>  <RingCount>  (8) 
3

>  <MolLogP>  (8) 
3.4322

>  <MolMR>  (8) 
115.4815

>  <fr_Al_COO>  (8) 
0

>  <fr_Al_OH>  (8) 
0

>  <fr_Al_OH_noTert>  (8) 
0

>  <fr_ArN>  (8) 
1

>  <fr_Ar_COO>  (8) 
0

>  <fr_Ar_N>  (8) 
2

>  <fr_Ar_NH>  (8) 
0

>  <fr_Ar_OH>  (8) 
0

>  <fr_COO>  (8) 
0

>  <fr_COO2>  (8) 
0

>  <fr_C_O>  (8) 
2

>  <fr_C_O_noCOO>  (8) 
2

>  <fr_C_S>  (8) 
0

>  <fr_HOCCN>  (8) 
0

>  <fr_Imine>  (8) 
0

>  <fr_NH0>  (8) 
2

>  <fr_NH1>  (8) 
1

>  <fr_NH2>  (8) 
2

>  <fr_N_O>  (8) 
0

>  <fr_Ndealkylation1>  (8) 
0

>  <fr_Ndealkylation2>  (8) 
0

>  <fr_Nhpyrrole>  (8) 
0

>  <fr_SH>  (8) 
0

>  <fr_aldehyde>  (8) 
0

>  <fr_alkyl_carbamate>  (8) 
0

>  <fr_alkyl_halide>  (8) 
3

>  <fr_allylic_oxid>  (8) 
0

>  <fr_amide>  (8) 
2

>  <fr_amidine>  (8) 
0

>  <fr_aniline>  (8) 
1

>  <fr_aryl_methyl>  (8) 
0

>  <fr_azide>  (8) 
0

>  <fr_azo>  (8) 
0

>  <fr_barbitur>  (8) 
0

>  <fr_benzene>  (8) 
2

>  <fr_benzodiazepine>  (8) 
0

>  <fr_bicyclic>  (8) 
0

>  <fr_diazo>  (8) 
0

>  <fr_dihydropyridine>  (8) 
0

>  <fr_epoxide>  (8) 
0

>  <fr_ester>  (8) 
0

>  <fr_ether>  (8) 
1

>  <fr_furan>  (8) 
0

>  <fr_guanido>  (8) 
0

>  <fr_halogen>  (8) 
4

>  <fr_hdrzine>  (8) 
0

>  <fr_hdrzone>  (8) 
0

>  <fr_imidazole>  (8) 
0

>  <fr_imide>  (8) 
0

>  <fr_isocyan>  (8) 
0

>  <fr_isothiocyan>  (8) 
0

>  <fr_ketone>  (8) 
0

>  <fr_ketone_Topliss>  (8) 
0

>  <fr_lactam>  (8) 
0

>  <fr_lactone>  (8) 
0

>  <fr_methoxy>  (8) 
1

>  <fr_morpholine>  (8) 
0

>  <fr_nitrile>  (8) 
0

>  <fr_nitro>  (8) 
0

>  <fr_nitro_arom>  (8) 
0

>  <fr_nitro_arom_nonortho>  (8) 
0

>  <fr_nitroso>  (8) 
0

>  <fr_oxazole>  (8) 
0

>  <fr_oxime>  (8) 
0

>  <fr_para_hydroxylation>  (8) 
0

>  <fr_phenol>  (8) 
0

>  <fr_phenol_noOrthoHbond>  (8) 
0

>  <fr_phos_acid>  (8) 
0

>  <fr_phos_ester>  (8) 
0

>  <fr_piperdine>  (8) 
0

>  <fr_piperzine>  (8) 
0

>  <fr_priamide>  (8) 
1

>  <fr_prisulfonamd>  (8) 
0

>  <fr_pyridine>  (8) 
0

>  <fr_quatN>  (8) 
0

>  <fr_sulfide>  (8) 
0

>  <fr_sulfonamd>  (8) 
0

>  <fr_sulfone>  (8) 
0

>  <fr_term_acetylene>  (8) 
0

>  <fr_tetrazole>  (8) 
0

>  <fr_thiazole>  (8) 
0

>  <fr_thiocyan>  (8) 
0

>  <fr_thiophene>  (8) 
0

>  <fr_unbrch_alkane>  (8) 
0

>  <fr_urea>  (8) 
0

>  <NP_Likeness>  (8) 
-1.387206

$$$$
nan
     RDKit          3D

  0  0  0  0  0  0  0  0  0  0999 V3000
M  V30 BEGIN CTAB
M  V30 COUNTS 43 45 0 0 0
M  V30 BEGIN ATOM
M  V30 1 C -1.209839 -4.904624 -1.597249 0
M  V30 2 C 0.187741 -4.506403 -1.165721 0
M  V30 3 C 0.175205 -4.496613 0.348328 0
M  V30 4 S 1.753329 -4.045080 0.964860 0
M  V30 5 O 1.809259 -4.112256 2.447228 0
M  V30 6 O 2.753536 -5.039789 0.410669 0
M  V30 7 N 2.251946 -2.484435 0.447508 0
M  V30 8 C 1.380151 -1.434748 0.891724 0 CFG=2
M  V30 9 C 0.876679 -0.640398 -0.315402 0
M  V30 10 C 1.623691 0.560247 0.167496 0 CFG=1
M  V30 11 N 0.805470 1.740188 0.324823 0
M  V30 12 C 0.300485 2.063955 -1.004451 0
M  V30 13 C 0.369654 2.630216 1.371193 0
M  V30 14 N 0.817553 3.905581 1.192918 0
M  V30 15 C 0.514970 4.878548 2.073178 0
M  V30 16 N -0.244189 4.568556 3.142156 0
M  V30 17 C -0.713853 3.329489 3.369560 0
M  V30 18 N -1.467481 2.717274 4.300683 0
M  V30 19 C -1.627653 1.397031 4.003715 0
M  V30 20 C -0.938812 1.138130 2.812429 0
M  V30 21 C -0.395199 2.344655 2.459062 0
M  V30 22 C 2.056681 -0.179433 1.374518 0
M  V30 23 H -1.413136 -4.405971 -2.571432 0
M  V30 24 H -1.988711 -4.659690 -0.851172 0
M  V30 25 H -1.233519 -5.994002 -1.788060 0
M  V30 26 H 0.923917 -5.227650 -1.564186 0
M  V30 27 H 0.419814 -3.494698 -1.528790 0
M  V30 28 H -0.004726 -5.555899 0.654180 0
M  V30 29 H -0.670322 -3.926870 0.756351 0
M  V30 30 H 3.239446 -2.355457 0.727241 0
M  V30 31 H 0.538649 -1.787947 1.487023 0
M  V30 32 H -0.219941 -0.482065 -0.307134 0
M  V30 33 H 1.247172 -0.988734 -1.295207 0
M  V30 34 H 2.515037 0.810610 -0.467659 0
M  V30 35 H -0.264530 3.022988 -1.026818 0
M  V30 36 H -0.268238 1.224835 -1.403940 0
M  V30 37 H 1.193619 2.266523 -1.666730 0
M  V30 38 H 0.882527 5.900542 1.916782 0
M  V30 39 H -1.874958 3.191689 5.139027 0
M  V30 40 H -2.182458 0.657404 4.568946 0
M  V30 41 H -0.851698 0.185659 2.279294 0
M  V30 42 H 3.173990 -0.351380 1.445217 0
M  V30 43 H 1.733709 0.160644 2.366632 0
M  V30 END ATOM
M  V30 BEGIN BOND
M  V30 1 1 1 2
M  V30 2 1 2 3
M  V30 3 1 3 4
M  V30 4 2 4 5
M  V30 5 2 4 6
M  V30 6 1 4 7
M  V30 7 1 7 8
M  V30 8 1 8 9
M  V30 9 1 9 10
M  V30 10 1 10 11
M  V30 11 1 11 12
M  V30 12 1 11 13
M  V30 13 2 13 14
M  V30 14 1 14 15
M  V30 15 2 15 16
M  V30 16 1 16 17
M  V30 17 1 17 18
M  V30 18 1 18 19
M  V30 19 2 19 20
M  V30 20 1 20 21
M  V30 21 1 10 22
M  V30 22 1 22 8
M  V30 23 1 21 13
M  V30 24 2 21 17
M  V30 25 1 1 23
M  V30 26 1 1 24
M  V30 27 1 1 25
M  V30 28 1 2 26
M  V30 29 1 2 27
M  V30 30 1 3 28
M  V30 31 1 3 29
M  V30 32 1 7 30
M  V30 33 1 8 31 CFG=1
M  V30 34 1 9 32
M  V30 35 1 9 33
M  V30 36 1 10 34 CFG=3
M  V30 37 1 12 35
M  V30 38 1 12 36
M  V30 39 1 12 37
M  V30 40 1 15 38
M  V30 41 1 18 39
M  V30 42 1 19 40
M  V30 43 1 20 41
M  V30 44 1 22 42
M  V30 45 1 22 43
M  V30 END BOND
M  V30 END CTAB
M  END
>  <Dataset>  (9) 
PKIs

>  <Ligand_Instance>  (9) 
nan

>  <PDB_ID>  (9) 
nan

>  <Standardized_SMILES>  (9) 
CCCS(=O)(=O)NC1CC(N(C)c2ncnc3[nH]ccc23)C1

>  <Name>  (9) 
Abrocitinib

>  <Pocket>  (9) 
nan

>  <ATP_Site>  (9) 
nan

>  <Peripheral>  (9) 
nan

>  <Num_H_Atoms_ProtBoundConf>  (9) 
nan

>  <Num_Resolved_Atoms>  (9) 
nan

>  <Num_Not_Resolved_Atoms>  (9) 
nan

>  <2D_Mol_H>  (9) 
<rdkit.Chem.rdchem.Mol object at 0x72a239111b60>

>  <MW>  (9) 
323.422

>  <HBA>  (9) 
5

>  <HBD>  (9) 
2

>  <LogP>  (9) 
1.2545

>  <NRB>  (9) 
8

>  <TPSA>  (9) 
90.98

>  <Num_Heavy_Atoms>  (9) 
22

>  <Ro5>  (9) 
[True, True, True, True, True, True]

>  <Ro5_Fulfilled>  (9) 
True

>  <Ro3>  (9) 
[False, False, True, True]

>  <Ro3_Fulfilled>  (9) 
False

>  <Fsp3>  (9) 
0.571429

>  <Fsp3_0.42>  (9) 
True

>  <Fsp3_0.45>  (9) 
True

>  <Stereogenic_Carbons>  (9) 
0

>  <C_Atoms>  (9) 
14

>  <FCStereo>  (9) 
0.0

>  <SPS>  (9) 
478

>  <nSPS>  (9) 
21.727273

>  <PBF>  (9) 
0.995251

>  <PBF_0.6>  (9) 
True

>  <nPBF>  (9) 
0.045239

>  <nPBF_0.016>  (9) 
True

>  <PMI1>  (9) 
978.810391

>  <PMI2>  (9) 
4346.44508

>  <PMI3>  (9) 
4556.234071

>  <NPR1>  (9) 
0.214829

>  <NPR2>  (9) 
0.953956

>  <Sum_NPR>  (9) 
1.168784

>  <Sum_NPR_1.07>  (9) 
True

>  <Sum_NPR_1.2>  (9) 
False

>  <MaxAbsEStateIndex>  (9) 
11.770898

>  <MaxEStateIndex>  (9) 
11.770898

>  <MinAbsEStateIndex>  (9) 
0.034771

>  <MinEStateIndex>  (9) 
-3.130356

>  <qed>  (9) 
0.83481

>  <MolWt>  (9) 
323.422

>  <HeavyAtomMolWt>  (9) 
302.254

>  <ExactMolWt>  (9) 
323.141596

>  <NumValenceElectrons>  (9) 
120

>  <NumRadicalElectrons>  (9) 
0

>  <MaxPartialCharge>  (9) 
0.211335

>  <MinPartialCharge>  (9) 
-0.355911

>  <MaxAbsPartialCharge>  (9) 
0.355911

>  <MinAbsPartialCharge>  (9) 
0.211335

>  <FpDensityMorgan1>  (9) 
1.409091

>  <FpDensityMorgan2>  (9) 
2.181818

>  <FpDensityMorgan3>  (9) 
2.909091

>  <BCUT2D_MWHI>  (9) 
32.233228

>  <BCUT2D_MWLOW>  (9) 
9.862626

>  <BCUT2D_CHGHI>  (9) 
2.349583

>  <BCUT2D_CHGLO>  (9) 
-2.414414

>  <BCUT2D_LOGPHI>  (9) 
2.308331

>  <BCUT2D_LOGPLOW>  (9) 
-2.530509

>  <BCUT2D_MRHI>  (9) 
7.889993

>  <BCUT2D_MRLOW>  (9) 
0.316074

>  <AvgIpc>  (9) 
2.894481

>  <BalabanJ>  (9) 
1.643007

>  <BertzCT>  (9) 
751.433899

>  <Chi0>  (9) 
15.742276

>  <Chi0n>  (9) 
12.781564

>  <Chi0v>  (9) 
13.598061

>  <Chi1>  (9) 
10.499132

>  <Chi1n>  (9) 
7.508222

>  <Chi1v>  (9) 
9.160487

>  <Chi2n>  (9) 
5.807008

>  <Chi2v>  (9) 
7.680455

>  <Chi3n>  (9) 
4.147005

>  <Chi3v>  (9) 
5.785161

>  <Chi4n>  (9) 
2.894554

>  <Chi4v>  (9) 
4.250181

>  <HallKierAlpha>  (9) 
-1.67

>  <Ipc>  (9) 
96322.546843

>  <Kappa1>  (9) 
15.23434

>  <Kappa2>  (9) 
5.846368

>  <Kappa3>  (9) 
2.932123

>  <LabuteASA>  (9) 
129.745702

>  <PEOE_VSA1>  (9) 
9.883888

>  <PEOE_VSA10>  (9) 
17.79236

>  <PEOE_VSA11>  (9) 
0.0

>  <PEOE_VSA12>  (9) 
10.023291

>  <PEOE_VSA13>  (9) 
0.0

>  <PEOE_VSA14>  (9) 
0.0

>  <PEOE_VSA2>  (9) 
0.0

>  <PEOE_VSA3>  (9) 
23.107849

>  <PEOE_VSA4>  (9) 
0.0

>  <PEOE_VSA5>  (9) 
0.0

>  <PEOE_VSA6>  (9) 
6.923737

>  <PEOE_VSA7>  (9) 
25.328832

>  <PEOE_VSA8>  (9) 
25.328197

>  <PEOE_VSA9>  (9) 
11.139078

>  <SMR_VSA1>  (9) 
8.417797

>  <SMR_VSA10>  (9) 
26.874555

>  <SMR_VSA2>  (9) 
0.0

>  <SMR_VSA3>  (9) 
19.67403

>  <SMR_VSA4>  (9) 
0.0

>  <SMR_VSA5>  (9) 
38.269884

>  <SMR_VSA6>  (9) 
17.700435

>  <SMR_VSA7>  (9) 
18.590531

>  <SMR_VSA8>  (9) 
0.0

>  <SMR_VSA9>  (9) 
0.0

>  <SlogP_VSA1>  (9) 
9.622005

>  <SlogP_VSA10>  (9) 
5.817863

>  <SlogP_VSA11>  (9) 
0.0

>  <SlogP_VSA12>  (9) 
0.0

>  <SlogP_VSA2>  (9) 
48.25394

>  <SlogP_VSA3>  (9) 
10.023291

>  <SlogP_VSA4>  (9) 
0.0

>  <SlogP_VSA5>  (9) 
26.186202

>  <SlogP_VSA6>  (9) 
18.590531

>  <SlogP_VSA7>  (9) 
0.0

>  <SlogP_VSA8>  (9) 
11.033401

>  <SlogP_VSA9>  (9) 
0.0

>  <EState_VSA1>  (9) 
10.023291

>  <EState_VSA10>  (9) 
8.417797

>  <EState_VSA11>  (9) 
0.0

>  <EState_VSA2>  (9) 
11.794694

>  <EState_VSA3>  (9) 
12.462662

>  <EState_VSA4>  (9) 
29.692907

>  <EState_VSA5>  (9) 
0.0

>  <EState_VSA6>  (9) 
6.32732

>  <EState_VSA7>  (9) 
26.23462

>  <EState_VSA8>  (9) 
24.57394

>  <EState_VSA9>  (9) 
0.0

>  <VSA_EState1>  (9) 
26.310531

>  <VSA_EState10>  (9) 
0.0

>  <VSA_EState2>  (9) 
13.74128

>  <VSA_EState3>  (9) 
0.986124

>  <VSA_EState4>  (9) 
0.816085

>  <VSA_EState5>  (9) 
1.074996

>  <VSA_EState6>  (9) 
2.288188

>  <VSA_EState7>  (9) 
5.631382

>  <VSA_EState8>  (9) 
1.86887

>  <VSA_EState9>  (9) 
-1.134123

>  <FractionCSP3>  (9) 
0.571429

>  <HeavyAtomCount>  (9) 
22

>  <NHOHCount>  (9) 
2

>  <NOCount>  (9) 
7

>  <NumAliphaticCarbocycles>  (9) 
1

>  <NumAliphaticHeterocycles>  (9) 
0

>  <NumAliphaticRings>  (9) 
1

>  <NumAromaticCarbocycles>  (9) 
0

>  <NumAromaticHeterocycles>  (9) 
2

>  <NumAromaticRings>  (9) 
2

>  <NumHAcceptors>  (9) 
5

>  <NumHDonors>  (9) 
2

>  <NumHeteroatoms>  (9) 
8

>  <NumRotatableBonds>  (9) 
6

>  <NumSaturatedCarbocycles>  (9) 
1

>  <NumSaturatedHeterocycles>  (9) 
0

>  <NumSaturatedRings>  (9) 
1

>  <RingCount>  (9) 
3

>  <MolLogP>  (9) 
1.2545

>  <MolMR>  (9) 
86.3152

>  <fr_Al_COO>  (9) 
0

>  <fr_Al_OH>  (9) 
0

>  <fr_Al_OH_noTert>  (9) 
0

>  <fr_ArN>  (9) 
0

>  <fr_Ar_COO>  (9) 
0

>  <fr_Ar_N>  (9) 
3

>  <fr_Ar_NH>  (9) 
1

>  <fr_Ar_OH>  (9) 
0

>  <fr_COO>  (9) 
0

>  <fr_COO2>  (9) 
0

>  <fr_C_O>  (9) 
0

>  <fr_C_O_noCOO>  (9) 
0

>  <fr_C_S>  (9) 
0

>  <fr_HOCCN>  (9) 
0

>  <fr_Imine>  (9) 
0

>  <fr_NH0>  (9) 
3

>  <fr_NH1>  (9) 
2

>  <fr_NH2>  (9) 
0

>  <fr_N_O>  (9) 
0

>  <fr_Ndealkylation1>  (9) 
0

>  <fr_Ndealkylation2>  (9) 
0

>  <fr_Nhpyrrole>  (9) 
1

>  <fr_SH>  (9) 
0

>  <fr_aldehyde>  (9) 
0

>  <fr_alkyl_carbamate>  (9) 
0

>  <fr_alkyl_halide>  (9) 
0

>  <fr_allylic_oxid>  (9) 
0

>  <fr_amide>  (9) 
0

>  <fr_amidine>  (9) 
0

>  <fr_aniline>  (9) 
1

>  <fr_aryl_methyl>  (9) 
0

>  <fr_azide>  (9) 
0

>  <fr_azo>  (9) 
0

>  <fr_barbitur>  (9) 
0

>  <fr_benzene>  (9) 
0

>  <fr_benzodiazepine>  (9) 
0

>  <fr_bicyclic>  (9) 
1

>  <fr_diazo>  (9) 
0

>  <fr_dihydropyridine>  (9) 
0

>  <fr_epoxide>  (9) 
0

>  <fr_ester>  (9) 
0

>  <fr_ether>  (9) 
0

>  <fr_furan>  (9) 
0

>  <fr_guanido>  (9) 
0

>  <fr_halogen>  (9) 
0

>  <fr_hdrzine>  (9) 
0

>  <fr_hdrzone>  (9) 
0

>  <fr_imidazole>  (9) 
0

>  <fr_imide>  (9) 
0

>  <fr_isocyan>  (9) 
0

>  <fr_isothiocyan>  (9) 
0

>  <fr_ketone>  (9) 
0

>  <fr_ketone_Topliss>  (9) 
0

>  <fr_lactam>  (9) 
0

>  <fr_lactone>  (9) 
0

>  <fr_methoxy>  (9) 
0

>  <fr_morpholine>  (9) 
0

>  <fr_nitrile>  (9) 
0

>  <fr_nitro>  (9) 
0

>  <fr_nitro_arom>  (9) 
0

>  <fr_nitro_arom_nonortho>  (9) 
0

>  <fr_nitroso>  (9) 
0

>  <fr_oxazole>  (9) 
0

>  <fr_oxime>  (9) 
0

>  <fr_para_hydroxylation>  (9) 
0

>  <fr_phenol>  (9) 
0

>  <fr_phenol_noOrthoHbond>  (9) 
0

>  <fr_phos_acid>  (9) 
0

>  <fr_phos_ester>  (9) 
0

>  <fr_piperdine>  (9) 
0

>  <fr_piperzine>  (9) 
0

>  <fr_priamide>  (9) 
0

>  <fr_prisulfonamd>  (9) 
0

>  <fr_pyridine>  (9) 
0

>  <fr_quatN>  (9) 
0

>  <fr_sulfide>  (9) 
0

>  <fr_sulfonamd>  (9) 
1

>  <fr_sulfone>  (9) 
0

>  <fr_term_acetylene>  (9) 
0

>  <fr_tetrazole>  (9) 
0

>  <fr_thiazole>  (9) 
0

>  <fr_thiocyan>  (9) 
0

>  <fr_thiophene>  (9) 
0

>  <fr_unbrch_alkane>  (9) 
0

>  <fr_urea>  (9) 
0

>  <NP_Likeness>  (9) 
-1.273543

$$$$
nan
     RDKit          3D

  0  0  0  0  0  0  0  0  0  0999 V3000
M  V30 BEGIN CTAB
M  V30 COUNTS 53 56 0 0 0
M  V30 BEGIN ATOM
M  V30 1 H 3.876484 -3.860893 2.014158 0 MASS=2
M  V30 2 C 4.664892 -3.153012 1.677880 0
M  V30 3 H 5.539736 -3.308245 2.350412 0 MASS=2
M  V30 4 H 5.041088 -3.377331 0.652528 0 MASS=2
M  V30 5 N 4.235851 -1.778612 1.837872 0
M  V30 6 C 2.978108 -1.486136 1.232884 0
M  V30 7 O 2.603742 -2.556645 0.720065 0
M  V30 8 C 2.427239 -0.142872 1.317443 0
M  V30 9 N 3.186094 0.800174 1.901485 0
M  V30 10 N 2.782648 2.055513 1.989489 0
M  V30 11 C 1.597633 2.469625 1.505517 0
M  V30 12 N 1.312947 3.851125 1.679974 0
M  V30 13 C 0.648369 4.053636 2.907228 0
M  V30 14 O 0.062874 4.052465 4.036706 0
M  V30 15 C 0.179769 5.338792 3.467560 0
M  V30 16 C 1.024253 6.557386 3.263404 0
M  V30 17 C -0.355276 6.387005 2.569494 0
M  V30 18 C 0.799849 1.520238 0.901792 0
M  V30 19 C 1.195679 0.180742 0.791772 0
M  V30 20 N 0.353257 -0.740343 0.167533 0
M  V30 21 C -0.336567 -1.903150 0.598915 0
M  V30 22 C -0.343049 -2.408854 1.874942 0
M  V30 23 C -1.015393 -3.536646 2.278755 0
M  V30 24 C -1.747329 -4.226562 1.335734 0
M  V30 25 C -1.753515 -3.734318 0.047329 0
M  V30 26 C -2.535143 -4.470899 -0.957361 0
M  V30 27 N -3.248272 -5.588012 -0.725083 0
M  V30 28 C -3.842720 -6.007984 -1.851904 0
M  V30 29 N -3.485835 -5.119491 -2.819153 0
M  V30 30 C -3.942343 -5.245227 -4.193707 0
M  V30 31 N -2.707346 -4.214312 -2.260867 0
M  V30 32 C -1.065915 -2.598715 -0.319992 0
M  V30 33 O -1.147431 -2.202417 -1.640779 0
M  V30 34 C -2.139268 -1.323242 -2.133891 0
M  V30 35 H 4.822784 -1.065992 2.364329 0
M  V30 36 H 1.477363 4.734067 1.123740 0
M  V30 37 H -0.320587 5.245189 4.452767 0
M  V30 38 H 1.912149 6.456275 2.617556 0
M  V30 39 H 1.066459 7.340014 4.067289 0
M  V30 40 H -1.137893 7.100020 2.919373 0
M  V30 41 H -0.294548 6.220452 1.484013 0
M  V30 42 H -0.147267 1.894775 0.524579 0
M  V30 43 H 0.284119 -0.420015 -0.806730 0
M  V30 44 H 0.233125 -1.869674 2.627481 0
M  V30 45 H -0.987781 -3.892549 3.295506 0
M  V30 46 H -2.297207 -5.116866 1.583273 0
M  V30 47 H -4.463382 -6.899735 -1.858744 0
M  V30 48 H -4.878962 -4.652630 -4.359898 0
M  V30 49 H -4.101754 -6.311215 -4.465359 0
M  V30 50 H -3.168089 -4.854574 -4.877294 0
M  V30 51 H -1.849252 -0.250460 -2.058107 0
M  V30 52 H -3.091925 -1.428131 -1.577027 0
M  V30 53 H -2.316395 -1.525718 -3.207278 0
M  V30 END ATOM
M  V30 BEGIN BOND
M  V30 1 1 1 2
M  V30 2 1 2 3
M  V30 3 1 2 4
M  V30 4 1 2 5
M  V30 5 1 5 6
M  V30 6 2 6 7
M  V30 7 1 6 8
M  V30 8 2 8 9
M  V30 9 1 9 10
M  V30 10 2 10 11
M  V30 11 1 11 12
M  V30 12 1 12 13
M  V30 13 2 13 14
M  V30 14 1 13 15
M  V30 15 1 15 16
M  V30 16 1 16 17
M  V30 17 1 11 18
M  V30 18 2 18 19
M  V30 19 1 19 20
M  V30 20 1 20 21
M  V30 21 2 21 22
M  V30 22 1 22 23
M  V30 23 2 23 24
M  V30 24 1 24 25
M  V30 25 1 25 26
M  V30 26 1 26 27
M  V30 27 2 27 28
M  V30 28 1 28 29
M  V30 29 1 29 30
M  V30 30 1 29 31
M  V30 31 2 25 32
M  V30 32 1 32 33
M  V30 33 1 33 34
M  V30 34 1 19 8
M  V30 35 1 32 21
M  V30 36 1 17 15
M  V30 37 2 31 26
M  V30 38 1 5 35
M  V30 39 1 12 36
M  V30 40 1 15 37
M  V30 41 1 16 38
M  V30 42 1 16 39
M  V30 43 1 17 40
M  V30 44 1 17 41
M  V30 45 1 18 42
M  V30 46 1 20 43
M  V30 47 1 22 44
M  V30 48 1 23 45
M  V30 49 1 24 46
M  V30 50 1 28 47
M  V30 51 1 30 48
M  V30 52 1 30 49
M  V30 53 1 30 50
M  V30 54 1 34 51
M  V30 55 1 34 52
M  V30 56 1 34 53
M  V30 END BOND
M  V30 END CTAB
M  END
>  <Dataset>  (10) 
PKIs

>  <Ligand_Instance>  (10) 
nan

>  <PDB_ID>  (10) 
nan

>  <Standardized_SMILES>  (10) 
[2H]C([2H])([2H])NC(=O)c1nnc(NC(=O)C2CC2)cc1Nc1cccc(-c2ncn(C)n2)c1OC

>  <Name>  (10) 
Deucravacitinib

>  <Pocket>  (10) 
nan

>  <ATP_Site>  (10) 
nan

>  <Peripheral>  (10) 
nan

>  <Num_H_Atoms_ProtBoundConf>  (10) 
nan

>  <Num_Resolved_Atoms>  (10) 
nan

>  <Num_Not_Resolved_Atoms>  (10) 
nan

>  <2D_Mol_H>  (10) 
<rdkit.Chem.rdchem.Mol object at 0x72a239111c40>

>  <MW>  (10) 
425.467305

>  <HBA>  (10) 
9

>  <HBD>  (10) 
3

>  <LogP>  (10) 
1.7324

>  <NRB>  (10) 
10

>  <TPSA>  (10) 
135.95

>  <Num_Heavy_Atoms>  (10) 
31

>  <Ro5>  (10) 
[True, True, True, True, True, True]

>  <Ro5_Fulfilled>  (10) 
True

>  <Ro3>  (10) 
[False, False, True, True]

>  <Ro3_Fulfilled>  (10) 
False

>  <Fsp3>  (10) 
0.3

>  <Fsp3_0.42>  (10) 
False

>  <Fsp3_0.45>  (10) 
False

>  <Stereogenic_Carbons>  (10) 
0

>  <C_Atoms>  (10) 
20

>  <FCStereo>  (10) 
0.0

>  <SPS>  (10) 
456

>  <nSPS>  (10) 
14.709677

>  <PBF>  (10) 
1.065959

>  <PBF_0.6>  (10) 
True

>  <nPBF>  (10) 
0.034386

>  <nPBF_0.016>  (10) 
True

>  <PMI1>  (10) 
2330.893951

>  <PMI2>  (10) 
7902.367288

>  <PMI3>  (10) 
9288.235157

>  <NPR1>  (10) 
0.250951

>  <NPR2>  (10) 
0.850793

>  <Sum_NPR>  (10) 
1.101744

>  <Sum_NPR_1.07>  (10) 
True

>  <Sum_NPR_1.2>  (10) 
False

>  <MaxAbsEStateIndex>  (10) 
12.613757

>  <MaxEStateIndex>  (10) 
12.613757

>  <MinAbsEStateIndex>  (10) 
0.070007

>  <MinEStateIndex>  (10) 
-2.725051

>  <qed>  (10) 
0.496413

>  <MolWt>  (10) 
425.467305

>  <HeavyAtomMolWt>  (10) 
400.273

>  <ExactMolWt>  (10) 
425.200317

>  <NumValenceElectrons>  (10) 
160

>  <NumRadicalElectrons>  (10) 
0

>  <MaxPartialCharge>  (10) 
0.273224

>  <MinPartialCharge>  (10) 
-0.493798

>  <MaxAbsPartialCharge>  (10) 
0.493798

>  <MinAbsPartialCharge>  (10) 
0.273224

>  <FpDensityMorgan1>  (10) 
1.258065

>  <FpDensityMorgan2>  (10) 
2.096774

>  <FpDensityMorgan3>  (10) 
2.774194

>  <BCUT2D_MWHI>  (10) 
16.466991

>  <BCUT2D_MWLOW>  (10) 
1.722217

>  <BCUT2D_CHGHI>  (10) 
2.30183

>  <BCUT2D_CHGLO>  (10) 
-2.208504

>  <BCUT2D_LOGPHI>  (10) 
2.370236

>  <BCUT2D_LOGPLOW>  (10) 
-2.411145

>  <BCUT2D_MRHI>  (10) 
5.999154

>  <BCUT2D_MRLOW>  (10) 
-0.169866

>  <AvgIpc>  (10) 
3.532449

>  <BalabanJ>  (10) 
1.721941

>  <BertzCT>  (10) 
1240.04193

>  <Chi0>  (10) 
24.457455

>  <Chi0n>  (10) 
19.839128

>  <Chi0v>  (10) 
16.839128

>  <Chi1>  (10) 
16.14118

>  <Chi1n>  (10) 
10.955198

>  <Chi1v>  (10) 
9.455198

>  <Chi2n>  (10) 
6.962736

>  <Chi2v>  (10) 
6.962736

>  <Chi3n>  (10) 
4.650915

>  <Chi3v>  (10) 
4.650915

>  <Chi4n>  (10) 
2.988022

>  <Chi4v>  (10) 
2.988022

>  <HallKierAlpha>  (10) 
-4.02

>  <Ipc>  (10) 
47381967.623533

>  <Kappa1>  (10) 
16.742447

>  <Kappa2>  (10) 
8.381342

>  <Kappa3>  (10) 
4.294652

>  <LabuteASA>  (10) 
181.995016

>  <PEOE_VSA1>  (10) 
20.687229

>  <PEOE_VSA10>  (10) 
6.32732

>  <PEOE_VSA11>  (10) 
23.085707

>  <PEOE_VSA12>  (10) 
5.90718

>  <PEOE_VSA13>  (10) 
5.90718

>  <PEOE_VSA14>  (10) 
0.0

>  <PEOE_VSA2>  (10) 
14.270877

>  <PEOE_VSA3>  (10) 
4.983979

>  <PEOE_VSA4>  (10) 
5.098682

>  <PEOE_VSA5>  (10) 
10.197364

>  <PEOE_VSA6>  (10) 
6.066367

>  <PEOE_VSA7>  (10) 
24.974377

>  <PEOE_VSA8>  (10) 
30.120048

>  <PEOE_VSA9>  (10) 
24.048022

>  <SMR_VSA1>  (10) 
18.438213

>  <SMR_VSA10>  (10) 
29.006995

>  <SMR_VSA2>  (10) 
0.0

>  <SMR_VSA3>  (10) 
30.278615

>  <SMR_VSA4>  (10) 
12.965578

>  <SMR_VSA5>  (10) 
12.841643

>  <SMR_VSA6>  (10) 
24.719202

>  <SMR_VSA7>  (10) 
36.286716

>  <SMR_VSA8>  (10) 
0.0

>  <SMR_VSA9>  (10) 
17.137368

>  <SlogP_VSA1>  (10) 
20.687229

>  <SlogP_VSA10>  (10) 
17.192635

>  <SlogP_VSA11>  (10) 
5.749512

>  <SlogP_VSA12>  (10) 
0.0

>  <SlogP_VSA2>  (10) 
50.861811

>  <SlogP_VSA3>  (10) 
11.842209

>  <SlogP_VSA4>  (10) 
5.917906

>  <SlogP_VSA5>  (10) 
27.442384

>  <SlogP_VSA6>  (10) 
30.592788

>  <SlogP_VSA7>  (10) 
0.0

>  <SlogP_VSA8>  (10) 
11.387856

>  <SlogP_VSA9>  (10) 
0.0

>  <EState_VSA1>  (10) 
12.883007

>  <EState_VSA10>  (10) 
9.589074

>  <EState_VSA11>  (10) 
0.0

>  <EState_VSA2>  (10) 
29.024263

>  <EState_VSA3>  (10) 
22.824754

>  <EState_VSA4>  (10) 
12.841643

>  <EState_VSA5>  (10) 
13.176165

>  <EState_VSA6>  (10) 
36.255896

>  <EState_VSA7>  (10) 
5.316789

>  <EState_VSA8>  (10) 
30.913601

>  <EState_VSA9>  (10) 
8.849139

>  <VSA_EState1>  (10) 
29.092534

>  <VSA_EState10>  (10) 
0.0

>  <VSA_EState2>  (10) 
29.025324

>  <VSA_EState3>  (10) 
19.647574

>  <VSA_EState4>  (10) 
0.865708

>  <VSA_EState5>  (10) 
-0.298207

>  <VSA_EState6>  (10) 
6.614329

>  <VSA_EState7>  (10) 
3.150519

>  <VSA_EState8>  (10) 
-2.725051

>  <VSA_EState9>  (10) 
3.210603

>  <FractionCSP3>  (10) 
0.3

>  <HeavyAtomCount>  (10) 
31

>  <NHOHCount>  (10) 
3

>  <NOCount>  (10) 
11

>  <NumAliphaticCarbocycles>  (10) 
1

>  <NumAliphaticHeterocycles>  (10) 
0

>  <NumAliphaticRings>  (10) 
1

>  <NumAromaticCarbocycles>  (10) 
1

>  <NumAromaticHeterocycles>  (10) 
2

>  <NumAromaticRings>  (10) 
3

>  <NumHAcceptors>  (10) 
9

>  <NumHDonors>  (10) 
3

>  <NumHeteroatoms>  (10) 
11

>  <NumRotatableBonds>  (10) 
8

>  <NumSaturatedCarbocycles>  (10) 
1

>  <NumSaturatedHeterocycles>  (10) 
0

>  <NumSaturatedRings>  (10) 
1

>  <RingCount>  (10) 
4

>  <MolLogP>  (10) 
1.7324

>  <MolMR>  (10) 
113.0496

>  <fr_Al_COO>  (10) 
0

>  <fr_Al_OH>  (10) 
0

>  <fr_Al_OH_noTert>  (10) 
0

>  <fr_ArN>  (10) 
0

>  <fr_Ar_COO>  (10) 
0

>  <fr_Ar_N>  (10) 
5

>  <fr_Ar_NH>  (10) 
0

>  <fr_Ar_OH>  (10) 
0

>  <fr_COO>  (10) 
0

>  <fr_COO2>  (10) 
0

>  <fr_C_O>  (10) 
2

>  <fr_C_O_noCOO>  (10) 
2

>  <fr_C_S>  (10) 
0

>  <fr_HOCCN>  (10) 
0

>  <fr_Imine>  (10) 
0

>  <fr_NH0>  (10) 
5

>  <fr_NH1>  (10) 
3

>  <fr_NH2>  (10) 
0

>  <fr_N_O>  (10) 
0

>  <fr_Ndealkylation1>  (10) 
0

>  <fr_Ndealkylation2>  (10) 
0

>  <fr_Nhpyrrole>  (10) 
0

>  <fr_SH>  (10) 
0

>  <fr_aldehyde>  (10) 
0

>  <fr_alkyl_carbamate>  (10) 
0

>  <fr_alkyl_halide>  (10) 
0

>  <fr_allylic_oxid>  (10) 
0

>  <fr_amide>  (10) 
2

>  <fr_amidine>  (10) 
0

>  <fr_aniline>  (10) 
3

>  <fr_aryl_methyl>  (10) 
1

>  <fr_azide>  (10) 
0

>  <fr_azo>  (10) 
0

>  <fr_barbitur>  (10) 
0

>  <fr_benzene>  (10) 
1

>  <fr_benzodiazepine>  (10) 
0

>  <fr_bicyclic>  (10) 
0

>  <fr_diazo>  (10) 
0

>  <fr_dihydropyridine>  (10) 
0

>  <fr_epoxide>  (10) 
0

>  <fr_ester>  (10) 
0

>  <fr_ether>  (10) 
1

>  <fr_furan>  (10) 
0

>  <fr_guanido>  (10) 
0

>  <fr_halogen>  (10) 
0

>  <fr_hdrzine>  (10) 
0

>  <fr_hdrzone>  (10) 
0

>  <fr_imidazole>  (10) 
0

>  <fr_imide>  (10) 
0

>  <fr_isocyan>  (10) 
0

>  <fr_isothiocyan>  (10) 
0

>  <fr_ketone>  (10) 
0

>  <fr_ketone_Topliss>  (10) 
0

>  <fr_lactam>  (10) 
0

>  <fr_lactone>  (10) 
0

>  <fr_methoxy>  (10) 
1

>  <fr_morpholine>  (10) 
0

>  <fr_nitrile>  (10) 
0

>  <fr_nitro>  (10) 
0

>  <fr_nitro_arom>  (10) 
0

>  <fr_nitro_arom_nonortho>  (10) 
0

>  <fr_nitroso>  (10) 
0

>  <fr_oxazole>  (10) 
0

>  <fr_oxime>  (10) 
0

>  <fr_para_hydroxylation>  (10) 
1

>  <fr_phenol>  (10) 
0

>  <fr_phenol_noOrthoHbond>  (10) 
0

>  <fr_phos_acid>  (10) 
0

>  <fr_phos_ester>  (10) 
0

>  <fr_piperdine>  (10) 
0

>  <fr_piperzine>  (10) 
0

>  <fr_priamide>  (10) 
0

>  <fr_prisulfonamd>  (10) 
0

>  <fr_pyridine>  (10) 
0

>  <fr_quatN>  (10) 
0

>  <fr_sulfide>  (10) 
0

>  <fr_sulfonamd>  (10) 
0

>  <fr_sulfone>  (10) 
0

>  <fr_term_acetylene>  (10) 
0

>  <fr_tetrazole>  (10) 
0

>  <fr_thiazole>  (10) 
0

>  <fr_thiocyan>  (10) 
0

>  <fr_thiophene>  (10) 
0

>  <fr_unbrch_alkane>  (10) 
0

>  <fr_urea>  (10) 
0

>  <NP_Likeness>  (10) 
-1.175472

$$$$
nan
     RDKit          3D

  0  0  0  0  0  0  0  0  0  0999 V3000
M  V30 BEGIN CTAB
M  V30 COUNTS 53 56 0 0 0
M  V30 BEGIN ATOM
M  V30 1 C 0.839285 -2.890713 5.969088 0
M  V30 2 C 1.908022 -2.137578 5.741730 0
M  V30 3 C 2.141066 -2.966607 4.563487 0
M  V30 4 O 1.272760 -3.850106 4.439578 0
M  V30 5 N 3.256721 -2.711207 3.722978 0
M  V30 6 C 4.405328 -1.809785 3.583136 0
M  V30 7 C 4.174141 -1.277410 2.190305 0
M  V30 8 C 3.791869 -2.541251 1.422500 0 CFG=2
M  V30 9 N 2.624745 -2.306334 0.592247 0
M  V30 10 N 1.747548 -1.300295 0.666170 0
M  V30 11 C 0.803494 -1.466970 -0.305523 0
M  V30 12 C -0.294420 -0.549039 -0.500119 0
M  V30 13 C -1.227067 0.209723 -0.649903 0
M  V30 14 C -2.341078 1.102732 -0.847717 0
M  V30 15 C -2.177694 2.468875 -0.947804 0
M  V30 16 C -3.249233 3.327345 -1.138018 0
M  V30 17 O -3.112931 4.705837 -1.242106 0
M  V30 18 C -1.801880 5.256365 -1.147420 0
M  V30 19 C -4.487317 2.726658 -1.220469 0
M  V30 20 C -4.712464 1.367069 -1.127644 0
M  V30 21 O -6.006169 0.853552 -1.223639 0
M  V30 22 C -7.052347 1.771855 -1.416258 0
M  V30 23 C -3.607177 0.555395 -0.937806 0
M  V30 24 C 1.105645 -2.622466 -1.011656 0
M  V30 25 C 0.467436 -3.221940 -2.078143 0
M  V30 26 N -0.701359 -2.615795 -2.597517 0
M  V30 27 N 0.983486 -4.365324 -2.585700 0
M  V30 28 C 2.093468 -4.848524 -2.014681 0
M  V30 29 N 2.708026 -4.256829 -0.975567 0
M  V30 30 C 2.253407 -3.115930 -0.416000 0
M  V30 31 C 3.536476 -3.513095 2.528310 0
M  V30 32 H 0.207391 -2.698200 6.828275 0
M  V30 33 H 0.253739 -2.625969 6.863379 0
M  V30 34 H 2.210768 -1.317516 6.366760 0
M  V30 35 H 4.395148 -0.977496 4.288797 0
M  V30 36 H 5.371020 -2.351471 3.564202 0
M  V30 37 H 3.290750 -0.610729 2.139975 0
M  V30 38 H 5.041249 -0.754609 1.753571 0
M  V30 39 H 4.662830 -2.830140 0.789364 0
M  V30 40 H -1.173958 2.881714 -0.874566 0
M  V30 41 H -1.188314 4.984054 -2.024765 0
M  V30 42 H -1.275640 4.854505 -0.239234 0
M  V30 43 H -1.802466 6.343863 -1.036721 0
M  V30 44 H -5.330157 3.416148 -1.371314 0
M  V30 45 H -7.065296 2.601646 -0.670419 0
M  V30 46 H -8.030647 1.234589 -1.293351 0
M  V30 47 H -7.067639 2.226694 -2.429133 0
M  V30 48 H -3.807094 -0.523489 -0.866452 0
M  V30 49 H -0.869278 -2.288885 -3.576875 0
M  V30 50 H -1.480983 -2.480218 -1.930150 0
M  V30 51 H 2.580938 -5.761206 -2.353282 0
M  V30 52 H 4.512243 -4.019745 2.764556 0
M  V30 53 H 2.809673 -4.295731 2.339149 0
M  V30 END ATOM
M  V30 BEGIN BOND
M  V30 1 2 1 2
M  V30 2 1 2 3
M  V30 3 2 3 4
M  V30 4 1 3 5
M  V30 5 1 5 6
M  V30 6 1 6 7
M  V30 7 1 7 8
M  V30 8 1 8 9
M  V30 9 1 9 10
M  V30 10 2 10 11
M  V30 11 1 11 12
M  V30 12 3 12 13
M  V30 13 1 13 14
M  V30 14 2 14 15
M  V30 15 1 15 16
M  V30 16 1 16 17
M  V30 17 1 17 18
M  V30 18 2 16 19
M  V30 19 1 19 20
M  V30 20 1 20 21
M  V30 21 1 21 22
M  V30 22 2 20 23
M  V30 23 1 11 24
M  V30 24 2 24 25
M  V30 25 1 25 26
M  V30 26 1 25 27
M  V30 27 2 27 28
M  V30 28 1 28 29
M  V30 29 2 29 30
M  V30 30 1 8 31
M  V30 31 1 31 5
M  V30 32 1 30 9
M  V30 33 1 23 14
M  V30 34 1 30 24
M  V30 35 1 1 32
M  V30 36 1 1 33
M  V30 37 1 2 34
M  V30 38 1 6 35
M  V30 39 1 6 36
M  V30 40 1 7 37
M  V30 41 1 7 38
M  V30 42 1 8 39 CFG=3
M  V30 43 1 15 40
M  V30 44 1 18 41
M  V30 45 1 18 42
M  V30 46 1 18 43
M  V30 47 1 19 44
M  V30 48 1 22 45
M  V30 49 1 22 46
M  V30 50 1 22 47
M  V30 51 1 23 48
M  V30 52 1 26 49
M  V30 53 1 26 50
M  V30 54 1 28 51
M  V30 55 1 31 52
M  V30 56 1 31 53
M  V30 END BOND
M  V30 END CTAB
M  END
>  <Dataset>  (11) 
PKIs

>  <Ligand_Instance>  (11) 
nan

>  <PDB_ID>  (11) 
nan

>  <Standardized_SMILES>  (11) 
C=CC(=O)N1CC[C@H](n2nc(C#Cc3cc(OC)cc(OC)c3)c3c(N)ncnc32)C1

>  <Name>  (11) 
Futibatinib

>  <Pocket>  (11) 
nan

>  <ATP_Site>  (11) 
nan

>  <Peripheral>  (11) 
nan

>  <Num_H_Atoms_ProtBoundConf>  (11) 
nan

>  <Num_Resolved_Atoms>  (11) 
nan

>  <Num_Not_Resolved_Atoms>  (11) 
nan

>  <2D_Mol_H>  (11) 
<rdkit.Chem.rdchem.Mol object at 0x72a239111d20>

>  <MW>  (11) 
418.457

>  <HBA>  (11) 
8

>  <HBD>  (11) 
1

>  <LogP>  (11) 
1.7849

>  <NRB>  (11) 
7

>  <TPSA>  (11) 
108.39

>  <Num_Heavy_Atoms>  (11) 
31

>  <Ro5>  (11) 
[True, True, True, True, True, True]

>  <Ro5_Fulfilled>  (11) 
True

>  <Ro3>  (11) 
[False, False, True, True]

>  <Ro3_Fulfilled>  (11) 
False

>  <Fsp3>  (11) 
0.272727

>  <Fsp3_0.42>  (11) 
False

>  <Fsp3_0.45>  (11) 
False

>  <Stereogenic_Carbons>  (11) 
1

>  <C_Atoms>  (11) 
22

>  <FCStereo>  (11) 
0.045455

>  <SPS>  (11) 
478

>  <nSPS>  (11) 
15.419355

>  <PBF>  (11) 
1.40473

>  <PBF_0.6>  (11) 
True

>  <nPBF>  (11) 
0.045314

>  <nPBF_0.016>  (11) 
True

>  <PMI1>  (11) 
2746.059318

>  <PMI2>  (11) 
7986.072327

>  <PMI3>  (11) 
8982.153756

>  <NPR1>  (11) 
0.305724

>  <NPR2>  (11) 
0.889104

>  <Sum_NPR>  (11) 
1.194828

>  <Sum_NPR_1.07>  (11) 
True

>  <Sum_NPR_1.2>  (11) 
False

>  <MaxAbsEStateIndex>  (11) 
11.967577

>  <MaxEStateIndex>  (11) 
11.967577

>  <MinAbsEStateIndex>  (11) 
0.034108

>  <MinEStateIndex>  (11) 
-0.09714

>  <qed>  (11) 
0.508173

>  <MolWt>  (11) 
418.457

>  <HeavyAtomMolWt>  (11) 
396.281

>  <ExactMolWt>  (11) 
418.175339

>  <NumValenceElectrons>  (11) 
158

>  <NumRadicalElectrons>  (11) 
0

>  <MaxPartialCharge>  (11) 
0.245528

>  <MinPartialCharge>  (11) 
-0.496578

>  <MaxAbsPartialCharge>  (11) 
0.496578

>  <MinAbsPartialCharge>  (11) 
0.245528

>  <FpDensityMorgan1>  (11) 
1.225806

>  <FpDensityMorgan2>  (11) 
1.967742

>  <FpDensityMorgan3>  (11) 
2.645161

>  <BCUT2D_MWHI>  (11) 
16.475614

>  <BCUT2D_MWLOW>  (11) 
10.158976

>  <BCUT2D_CHGHI>  (11) 
2.290473

>  <BCUT2D_CHGLO>  (11) 
-2.142224

>  <BCUT2D_LOGPHI>  (11) 
2.284625

>  <BCUT2D_LOGPLOW>  (11) 
-2.269535

>  <BCUT2D_MRHI>  (11) 
5.905572

>  <BCUT2D_MRLOW>  (11) 
-0.124619

>  <AvgIpc>  (11) 
3.422421

>  <BalabanJ>  (11) 
1.748794

>  <BertzCT>  (11) 
1200.939783

>  <Chi0>  (11) 
21.957455

>  <Chi0n>  (11) 
17.330692

>  <Chi0v>  (11) 
17.330692

>  <Chi1>  (11) 
15.032738

>  <Chi1n>  (11) 
9.688101

>  <Chi1v>  (11) 
9.688101

>  <Chi2n>  (11) 
7.032909

>  <Chi2v>  (11) 
7.032909

>  <Chi3n>  (11) 
5.19036

>  <Chi3v>  (11) 
5.19036

>  <Chi4n>  (11) 
3.619197

>  <Chi4v>  (11) 
3.619197

>  <HallKierAlpha>  (11) 
-4.06

>  <Ipc>  (11) 
15893587.328203

>  <Kappa1>  (11) 
20.222458

>  <Kappa2>  (11) 
8.356853

>  <Kappa3>  (11) 
3.875037

>  <LabuteASA>  (11) 
179.023183

>  <PEOE_VSA1>  (11) 
20.107303

>  <PEOE_VSA10>  (11) 
29.338135

>  <PEOE_VSA11>  (11) 
5.647177

>  <PEOE_VSA12>  (11) 
5.90718

>  <PEOE_VSA13>  (11) 
0.0

>  <PEOE_VSA14>  (11) 
0.0

>  <PEOE_VSA2>  (11) 
4.794537

>  <PEOE_VSA3>  (11) 
14.64976

>  <PEOE_VSA4>  (11) 
5.098682

>  <PEOE_VSA5>  (11) 
0.0

>  <PEOE_VSA6>  (11) 
12.49937

>  <PEOE_VSA7>  (11) 
30.55001

>  <PEOE_VSA8>  (11) 
24.719331

>  <PEOE_VSA9>  (11) 
25.64766

>  <SMR_VSA1>  (11) 
14.268263

>  <SMR_VSA10>  (11) 
22.758444

>  <SMR_VSA2>  (11) 
0.0

>  <SMR_VSA3>  (11) 
24.648352

>  <SMR_VSA4>  (11) 
0.0

>  <SMR_VSA5>  (11) 
12.462662

>  <SMR_VSA6>  (11) 
33.042775

>  <SMR_VSA7>  (11) 
48.438757

>  <SMR_VSA8>  (11) 
0.0

>  <SMR_VSA9>  (11) 
23.339892

>  <SlogP_VSA1>  (11) 
15.207393

>  <SlogP_VSA10>  (11) 
5.817863

>  <SlogP_VSA11>  (11) 
11.499024

>  <SlogP_VSA12>  (11) 
0.0

>  <SlogP_VSA2>  (11) 
57.864639

>  <SlogP_VSA3>  (11) 
4.794537

>  <SlogP_VSA4>  (11) 
11.840869

>  <SlogP_VSA5>  (11) 
23.720042

>  <SlogP_VSA6>  (11) 
37.181377

>  <SlogP_VSA7>  (11) 
0.0

>  <SlogP_VSA8>  (11) 
11.033401

>  <SlogP_VSA9>  (11) 
0.0

>  <EState_VSA1>  (11) 
0.0

>  <EState_VSA10>  (11) 
4.794537

>  <EState_VSA11>  (11) 
0.0

>  <EState_VSA2>  (11) 
11.949021

>  <EState_VSA3>  (11) 
52.69718

>  <EState_VSA4>  (11) 
6.420822

>  <EState_VSA5>  (11) 
12.40334

>  <EState_VSA6>  (11) 
29.867675

>  <EState_VSA7>  (11) 
12.132734

>  <EState_VSA8>  (11) 
33.486443

>  <EState_VSA9>  (11) 
15.207393

>  <VSA_EState1>  (11) 
12.396043

>  <VSA_EState10>  (11) 
0.0

>  <VSA_EState2>  (11) 
22.19415

>  <VSA_EState3>  (11) 
5.28197

>  <VSA_EState4>  (11) 
7.91341

>  <VSA_EState5>  (11) 
7.668298

>  <VSA_EState6>  (11) 
5.360859

>  <VSA_EState7>  (11) 
3.477042

>  <VSA_EState8>  (11) 
4.705864

>  <VSA_EState9>  (11) 
3.169031

>  <FractionCSP3>  (11) 
0.272727

>  <HeavyAtomCount>  (11) 
31

>  <NHOHCount>  (11) 
2

>  <NOCount>  (11) 
9

>  <NumAliphaticCarbocycles>  (11) 
0

>  <NumAliphaticHeterocycles>  (11) 
1

>  <NumAliphaticRings>  (11) 
1

>  <NumAromaticCarbocycles>  (11) 
1

>  <NumAromaticHeterocycles>  (11) 
2

>  <NumAromaticRings>  (11) 
3

>  <NumHAcceptors>  (11) 
8

>  <NumHDonors>  (11) 
1

>  <NumHeteroatoms>  (11) 
9

>  <NumRotatableBonds>  (11) 
4

>  <NumSaturatedCarbocycles>  (11) 
0

>  <NumSaturatedHeterocycles>  (11) 
1

>  <NumSaturatedRings>  (11) 
1

>  <RingCount>  (11) 
4

>  <MolLogP>  (11) 
1.7849

>  <MolMR>  (11) 
115.6924

>  <fr_Al_COO>  (11) 
0

>  <fr_Al_OH>  (11) 
0

>  <fr_Al_OH_noTert>  (11) 
0

>  <fr_ArN>  (11) 
1

>  <fr_Ar_COO>  (11) 
0

>  <fr_Ar_N>  (11) 
4

>  <fr_Ar_NH>  (11) 
0

>  <fr_Ar_OH>  (11) 
0

>  <fr_COO>  (11) 
0

>  <fr_COO2>  (11) 
0

>  <fr_C_O>  (11) 
1

>  <fr_C_O_noCOO>  (11) 
1

>  <fr_C_S>  (11) 
0

>  <fr_HOCCN>  (11) 
0

>  <fr_Imine>  (11) 
0

>  <fr_NH0>  (11) 
5

>  <fr_NH1>  (11) 
0

>  <fr_NH2>  (11) 
1

>  <fr_N_O>  (11) 
0

>  <fr_Ndealkylation1>  (11) 
0

>  <fr_Ndealkylation2>  (11) 
1

>  <fr_Nhpyrrole>  (11) 
0

>  <fr_SH>  (11) 
0

>  <fr_aldehyde>  (11) 
0

>  <fr_alkyl_carbamate>  (11) 
0

>  <fr_alkyl_halide>  (11) 
0

>  <fr_allylic_oxid>  (11) 
0

>  <fr_amide>  (11) 
1

>  <fr_amidine>  (11) 
0

>  <fr_aniline>  (11) 
1

>  <fr_aryl_methyl>  (11) 
0

>  <fr_azide>  (11) 
0

>  <fr_azo>  (11) 
0

>  <fr_barbitur>  (11) 
0

>  <fr_benzene>  (11) 
1

>  <fr_benzodiazepine>  (11) 
0

>  <fr_bicyclic>  (11) 
1

>  <fr_diazo>  (11) 
0

>  <fr_dihydropyridine>  (11) 
0

>  <fr_epoxide>  (11) 
0

>  <fr_ester>  (11) 
0

>  <fr_ether>  (11) 
2

>  <fr_furan>  (11) 
0

>  <fr_guanido>  (11) 
0

>  <fr_halogen>  (11) 
0

>  <fr_hdrzine>  (11) 
0

>  <fr_hdrzone>  (11) 
0

>  <fr_imidazole>  (11) 
0

>  <fr_imide>  (11) 
0

>  <fr_isocyan>  (11) 
0

>  <fr_isothiocyan>  (11) 
0

>  <fr_ketone>  (11) 
0

>  <fr_ketone_Topliss>  (11) 
0

>  <fr_lactam>  (11) 
0

>  <fr_lactone>  (11) 
0

>  <fr_methoxy>  (11) 
2

>  <fr_morpholine>  (11) 
0

>  <fr_nitrile>  (11) 
0

>  <fr_nitro>  (11) 
0

>  <fr_nitro_arom>  (11) 
0

>  <fr_nitro_arom_nonortho>  (11) 
0

>  <fr_nitroso>  (11) 
0

>  <fr_oxazole>  (11) 
0

>  <fr_oxime>  (11) 
0

>  <fr_para_hydroxylation>  (11) 
0

>  <fr_phenol>  (11) 
0

>  <fr_phenol_noOrthoHbond>  (11) 
0

>  <fr_phos_acid>  (11) 
0

>  <fr_phos_ester>  (11) 
0

>  <fr_piperdine>  (11) 
0

>  <fr_piperzine>  (11) 
0

>  <fr_priamide>  (11) 
0

>  <fr_prisulfonamd>  (11) 
0

>  <fr_pyridine>  (11) 
0

>  <fr_quatN>  (11) 
0

>  <fr_sulfide>  (11) 
0

>  <fr_sulfonamd>  (11) 
0

>  <fr_sulfone>  (11) 
0

>  <fr_term_acetylene>  (11) 
0

>  <fr_tetrazole>  (11) 
0

>  <fr_thiazole>  (11) 
0

>  <fr_thiocyan>  (11) 
0

>  <fr_thiophene>  (11) 
0

>  <fr_unbrch_alkane>  (11) 
0

>  <fr_urea>  (11) 
0

>  <NP_Likeness>  (11) 
-0.798837

$$$$
nan
     RDKit          3D

  0  0  0  0  0  0  0  0  0  0999 V3000
M  V30 BEGIN CTAB
M  V30 COUNTS 67 71 0 0 0
M  V30 BEGIN ATOM
M  V30 1 C 1.871679 -0.650632 3.458161 0
M  V30 2 C 1.525430 0.538140 2.913053 0
M  V30 3 C 2.496317 1.529150 2.393018 0
M  V30 4 O 2.522825 1.956050 1.172932 0
M  V30 5 C 2.643977 1.382099 0.011097 0
M  V30 6 C 1.527885 0.523477 -0.514168 0
M  V30 7 C 1.930661 -0.591389 -1.256626 0
M  V30 8 C 1.053022 -1.440925 -1.852112 0
M  V30 9 C -0.307534 -1.154065 -1.691882 0
M  V30 10 C -0.664004 -0.047959 -0.952617 0
M  V30 11 C 0.163447 0.850692 -0.325934 0
M  V30 12 O 0.086083 1.936967 0.406551 0
M  V30 13 C -0.873797 2.739627 0.909317 0
M  V30 14 C -1.775004 3.488737 -0.018008 0
M  V30 15 N -2.610682 2.740148 -0.888525 0
M  V30 16 C -3.281714 3.641654 -1.831246 0
M  V30 17 C -4.433931 4.160374 -1.034331 0
M  V30 18 C -4.954372 2.880328 -0.404902 0
M  V30 19 C -3.709229 2.089729 -0.175072 0
M  V30 20 N 1.216453 -2.598433 -2.614631 0
M  V30 21 C 1.880845 -3.806369 -2.474279 0
M  V30 22 N 2.699137 -4.728175 -2.959548 0
M  V30 23 C 2.976576 -5.819862 -2.201845 0
M  V30 24 C 2.451599 -6.027357 -0.943669 0
M  V30 25 C 1.618141 -5.022556 -0.526615 0
M  V30 26 N 1.353960 -3.965148 -1.271150 0
M  V30 27 C 0.901739 -4.905547 0.738392 0
M  V30 28 C 0.627674 -6.130542 1.306635 0
M  V30 29 C -0.062456 -6.070315 2.524757 0
M  V30 30 C -0.412863 -4.847309 3.062983 0
M  V30 31 C -0.108526 -3.642472 2.443170 0
M  V30 32 C 0.562798 -3.676561 1.256320 0
M  V30 33 C -0.564233 -2.405068 3.183526 0
M  V30 34 O 0.217769 -2.202972 4.291439 0
M  V30 35 C 1.542275 -1.935337 4.087465 0
M  V30 36 H 2.983701 -0.708620 3.427519 0
M  V30 37 H 0.445725 0.765574 2.862208 0
M  V30 38 H 2.372445 2.453603 3.082573 0
M  V30 39 H 3.532662 1.172902 2.783169 0
M  V30 40 H 2.913598 2.143222 -0.804778 0
M  V30 41 H 3.589685 0.728935 -0.014581 0
M  V30 42 H 2.962563 -0.846005 -1.401960 0
M  V30 43 H -1.096670 -1.758139 -2.125105 0
M  V30 44 H -1.702168 0.188526 -0.799515 0
M  V30 45 H -1.584019 2.204340 1.628115 0
M  V30 46 H -0.447989 3.543860 1.600002 0
M  V30 47 H -1.152398 4.215874 -0.594184 0
M  V30 48 H -2.455020 4.102506 0.639400 0
M  V30 49 H -3.618444 3.138362 -2.743270 0
M  V30 50 H -2.520546 4.426500 -2.055127 0
M  V30 51 H -4.092196 4.894032 -0.278684 0
M  V30 52 H -5.196173 4.589532 -1.724879 0
M  V30 53 H -5.592836 2.390604 -1.189289 0
M  V30 54 H -5.524947 3.053125 0.524406 0
M  V30 55 H -3.437088 1.966418 0.871888 0
M  V30 56 H -3.902672 1.057187 -0.569379 0
M  V30 57 H 0.808341 -2.796093 -3.548836 0
M  V30 58 H 3.638612 -6.577506 -2.581192 0
M  V30 59 H 2.588696 -6.836204 -0.251004 0
M  V30 60 H 0.913237 -7.075651 0.865713 0
M  V30 61 H -0.310861 -7.012485 3.030286 0
M  V30 62 H -0.946351 -4.910357 4.012074 0
M  V30 63 H 0.843447 -2.796085 0.700827 0
M  V30 64 H -0.503786 -1.579669 2.449190 0
M  V30 65 H -1.594217 -2.609921 3.507325 0
M  V30 66 H 2.031581 -2.039056 5.103481 0
M  V30 67 H 1.952901 -2.777704 3.476727 0
M  V30 END ATOM
M  V30 BEGIN BOND
M  V30 1 2 1 2
M  V30 2 1 2 3
M  V30 3 1 3 4
M  V30 4 1 4 5
M  V30 5 1 5 6
M  V30 6 1 6 7
M  V30 7 2 7 8
M  V30 8 1 8 9
M  V30 9 2 9 10
M  V30 10 1 10 11
M  V30 11 1 11 12
M  V30 12 1 12 13
M  V30 13 1 13 14
M  V30 14 1 14 15
M  V30 15 1 15 16
M  V30 16 1 16 17
M  V30 17 1 17 18
M  V30 18 1 18 19
M  V30 19 1 8 20
M  V30 20 1 20 21
M  V30 21 1 21 22
M  V30 22 2 22 23
M  V30 23 1 23 24
M  V30 24 2 24 25
M  V30 25 1 25 26
M  V30 26 1 25 27
M  V30 27 1 27 28
M  V30 28 2 28 29
M  V30 29 1 29 30
M  V30 30 2 30 31
M  V30 31 1 31 32
M  V30 32 1 31 33
M  V30 33 1 33 34
M  V30 34 1 34 35
M  V30 35 1 35 1
M  V30 36 2 11 6
M  V30 37 1 19 15
M  V30 38 2 26 21
M  V30 39 2 32 27
M  V30 40 1 1 36
M  V30 41 1 2 37
M  V30 42 1 3 38
M  V30 43 1 3 39
M  V30 44 1 5 40
M  V30 45 1 5 41
M  V30 46 1 7 42
M  V30 47 1 9 43
M  V30 48 1 10 44
M  V30 49 1 13 45
M  V30 50 1 13 46
M  V30 51 1 14 47
M  V30 52 1 14 48
M  V30 53 1 16 49
M  V30 54 1 16 50
M  V30 55 1 17 51
M  V30 56 1 17 52
M  V30 57 1 18 53
M  V30 58 1 18 54
M  V30 59 1 19 55
M  V30 60 1 19 56
M  V30 61 1 20 57
M  V30 62 1 23 58
M  V30 63 1 24 59
M  V30 64 1 28 60
M  V30 65 1 29 61
M  V30 66 1 30 62
M  V30 67 1 32 63
M  V30 68 1 33 64
M  V30 69 1 33 65
M  V30 70 1 35 66
M  V30 71 1 35 67
M  V30 END BOND
M  V30 END CTAB
M  END
>  <Dataset>  (12) 
PKIs

>  <Ligand_Instance>  (12) 
nan

>  <PDB_ID>  (12) 
nan

>  <Standardized_SMILES>  (12) 
C1=C/COCc2cc(ccc2OCCN2CCCC2)Nc2nccc(n2)-c2cccc(c2)COC/1

>  <Name>  (12) 
Pacritinib

>  <Pocket>  (12) 
nan

>  <ATP_Site>  (12) 
nan

>  <Peripheral>  (12) 
nan

>  <Num_H_Atoms_ProtBoundConf>  (12) 
nan

>  <Num_Resolved_Atoms>  (12) 
nan

>  <Num_Not_Resolved_Atoms>  (12) 
nan

>  <2D_Mol_H>  (12) 
<rdkit.Chem.rdchem.Mol object at 0x72a239111e00>

>  <MW>  (12) 
472.589

>  <HBA>  (12) 
7

>  <HBD>  (12) 
1

>  <LogP>  (12) 
4.9648

>  <NRB>  (12) 
4

>  <TPSA>  (12) 
68.74

>  <Num_Heavy_Atoms>  (12) 
35

>  <Ro5>  (12) 
[True, True, True, True, True, True]

>  <Ro5_Fulfilled>  (12) 
True

>  <Ro3>  (12) 
[False, False, True, False]

>  <Ro3_Fulfilled>  (12) 
False

>  <Fsp3>  (12) 
0.357143

>  <Fsp3_0.42>  (12) 
False

>  <Fsp3_0.45>  (12) 
False

>  <Stereogenic_Carbons>  (12) 
0

>  <C_Atoms>  (12) 
28

>  <FCStereo>  (12) 
0.0

>  <SPS>  (12) 
620

>  <nSPS>  (12) 
17.714286

>  <PBF>  (12) 
1.518724

>  <PBF_0.6>  (12) 
True

>  <nPBF>  (12) 
0.043392

>  <nPBF_0.016>  (12) 
True

>  <PMI1>  (12) 
3225.33301

>  <PMI2>  (12) 
6980.463019

>  <PMI3>  (12) 
7653.508582

>  <NPR1>  (12) 
0.421419

>  <NPR2>  (12) 
0.912061

>  <Sum_NPR>  (12) 
1.333479

>  <Sum_NPR_1.07>  (12) 
True

>  <Sum_NPR_1.2>  (12) 
True

>  <MaxAbsEStateIndex>  (12) 
6.164567

>  <MaxEStateIndex>  (12) 
6.164567

>  <MinAbsEStateIndex>  (12) 
0.449631

>  <MinEStateIndex>  (12) 
0.449631

>  <qed>  (12) 
0.538135

>  <MolWt>  (12) 
472.589

>  <HeavyAtomMolWt>  (12) 
440.333

>  <ExactMolWt>  (12) 
472.247441

>  <NumValenceElectrons>  (12) 
182

>  <NumRadicalElectrons>  (12) 
0

>  <MaxPartialCharge>  (12) 
0.22722

>  <MinPartialCharge>  (12) 
-0.49188

>  <MaxAbsPartialCharge>  (12) 
0.49188

>  <MinAbsPartialCharge>  (12) 
0.22722

>  <FpDensityMorgan1>  (12) 
0.942857

>  <FpDensityMorgan2>  (12) 
1.8

>  <FpDensityMorgan3>  (12) 
2.685714

>  <BCUT2D_MWHI>  (12) 
16.489035

>  <BCUT2D_MWLOW>  (12) 
10.088069

>  <BCUT2D_CHGHI>  (12) 
2.125702

>  <BCUT2D_CHGLO>  (12) 
-2.172987

>  <BCUT2D_LOGPHI>  (12) 
2.264884

>  <BCUT2D_LOGPLOW>  (12) 
-2.247853

>  <BCUT2D_MRHI>  (12) 
5.631108

>  <BCUT2D_MRLOW>  (12) 
0.137885

>  <AvgIpc>  (12) 
3.401871

>  <BalabanJ>  (12) 
1.36671

>  <BertzCT>  (12) 
1144.551241

>  <Chi0>  (12) 
23.710685

>  <Chi0n>  (12) 
19.988306

>  <Chi0v>  (12) 
19.988306

>  <Chi1>  (12) 
17.331632

>  <Chi1n>  (12) 
12.313549

>  <Chi1v>  (12) 
12.313549

>  <Chi2n>  (12) 
8.812238

>  <Chi2v>  (12) 
8.812238

>  <Chi3n>  (12) 
6.179831

>  <Chi3v>  (12) 
6.179831

>  <Chi4n>  (12) 
4.348804

>  <Chi4v>  (12) 
4.348804

>  <HallKierAlpha>  (12) 
-3.26

>  <Ipc>  (12) 
189231977.808012

>  <Kappa1>  (12) 
23.480403

>  <Kappa2>  (12) 
11.929465

>  <Kappa3>  (12) 
6.661072

>  <LabuteASA>  (12) 
206.313259

>  <PEOE_VSA1>  (12) 
19.527377

>  <PEOE_VSA10>  (12) 
12.356394

>  <PEOE_VSA11>  (12) 
0.0

>  <PEOE_VSA12>  (12) 
5.948339

>  <PEOE_VSA13>  (12) 
0.0

>  <PEOE_VSA14>  (12) 
0.0

>  <PEOE_VSA2>  (12) 
4.89991

>  <PEOE_VSA3>  (12) 
9.967957

>  <PEOE_VSA4>  (12) 
0.0

>  <PEOE_VSA5>  (12) 
0.0

>  <PEOE_VSA6>  (12) 
30.351141

>  <PEOE_VSA7>  (12) 
61.826443

>  <PEOE_VSA8>  (12) 
29.555889

>  <PEOE_VSA9>  (12) 
32.121456

>  <SMR_VSA1>  (12) 
14.210589

>  <SMR_VSA10>  (12) 
11.635726

>  <SMR_VSA2>  (12) 
0.0

>  <SMR_VSA3>  (12) 
14.867867

>  <SMR_VSA4>  (12) 
0.0

>  <SMR_VSA5>  (12) 
26.055407

>  <SMR_VSA6>  (12) 
44.771704

>  <SMR_VSA7>  (12) 
78.006723

>  <SMR_VSA8>  (12) 
0.0

>  <SMR_VSA9>  (12) 
17.006891

>  <SlogP_VSA1>  (12) 
10.053652

>  <SlogP_VSA10>  (12) 
11.635726

>  <SlogP_VSA11>  (12) 
5.749512

>  <SlogP_VSA12>  (12) 
0.0

>  <SlogP_VSA2>  (12) 
54.322782

>  <SlogP_VSA3>  (12) 
22.68749

>  <SlogP_VSA4>  (12) 
0.0

>  <SlogP_VSA5>  (12) 
23.968546

>  <SlogP_VSA6>  (12) 
66.87982

>  <SlogP_VSA7>  (12) 
0.0

>  <SlogP_VSA8>  (12) 
11.257379

>  <SlogP_VSA9>  (12) 
0.0

>  <EState_VSA1>  (12) 
0.0

>  <EState_VSA10>  (12) 
0.0

>  <EState_VSA11>  (12) 
0.0

>  <EState_VSA2>  (12) 
0.0

>  <EState_VSA3>  (12) 
38.982749

>  <EState_VSA4>  (12) 
40.365937

>  <EState_VSA5>  (12) 
25.931156

>  <EState_VSA6>  (12) 
6.196844

>  <EState_VSA7>  (12) 
36.417508

>  <EState_VSA8>  (12) 
39.466145

>  <EState_VSA9>  (12) 
19.194567

>  <VSA_EState1>  (12) 
17.8932

>  <VSA_EState10>  (12) 
0.0

>  <VSA_EState2>  (12) 
11.614004

>  <VSA_EState3>  (12) 
3.343653

>  <VSA_EState4>  (12) 
4.878406

>  <VSA_EState5>  (12) 
1.394186

>  <VSA_EState6>  (12) 
16.221383

>  <VSA_EState7>  (12) 
8.33292

>  <VSA_EState8>  (12) 
5.988915

>  <VSA_EState9>  (12) 
0.0

>  <FractionCSP3>  (12) 
0.357143

>  <HeavyAtomCount>  (12) 
35

>  <NHOHCount>  (12) 
1

>  <NOCount>  (12) 
7

>  <NumAliphaticCarbocycles>  (12) 
0

>  <NumAliphaticHeterocycles>  (12) 
2

>  <NumAliphaticRings>  (12) 
2

>  <NumAromaticCarbocycles>  (12) 
2

>  <NumAromaticHeterocycles>  (12) 
1

>  <NumAromaticRings>  (12) 
3

>  <NumHAcceptors>  (12) 
7

>  <NumHDonors>  (12) 
1

>  <NumHeteroatoms>  (12) 
7

>  <NumRotatableBonds>  (12) 
4

>  <NumSaturatedCarbocycles>  (12) 
0

>  <NumSaturatedHeterocycles>  (12) 
1

>  <NumSaturatedRings>  (12) 
1

>  <RingCount>  (12) 
5

>  <MolLogP>  (12) 
4.9648

>  <MolMR>  (12) 
136.8137

>  <fr_Al_COO>  (12) 
0

>  <fr_Al_OH>  (12) 
0

>  <fr_Al_OH_noTert>  (12) 
0

>  <fr_ArN>  (12) 
0

>  <fr_Ar_COO>  (12) 
0

>  <fr_Ar_N>  (12) 
2

>  <fr_Ar_NH>  (12) 
0

>  <fr_Ar_OH>  (12) 
0

>  <fr_COO>  (12) 
0

>  <fr_COO2>  (12) 
0

>  <fr_C_O>  (12) 
0

>  <fr_C_O_noCOO>  (12) 
0

>  <fr_C_S>  (12) 
0

>  <fr_HOCCN>  (12) 
0

>  <fr_Imine>  (12) 
0

>  <fr_NH0>  (12) 
3

>  <fr_NH1>  (12) 
1

>  <fr_NH2>  (12) 
0

>  <fr_N_O>  (12) 
0

>  <fr_Ndealkylation1>  (12) 
0

>  <fr_Ndealkylation2>  (12) 
1

>  <fr_Nhpyrrole>  (12) 
0

>  <fr_SH>  (12) 
0

>  <fr_aldehyde>  (12) 
0

>  <fr_alkyl_carbamate>  (12) 
0

>  <fr_alkyl_halide>  (12) 
0

>  <fr_allylic_oxid>  (12) 
0

>  <fr_amide>  (12) 
0

>  <fr_amidine>  (12) 
0

>  <fr_aniline>  (12) 
2

>  <fr_aryl_methyl>  (12) 
0

>  <fr_azide>  (12) 
0

>  <fr_azo>  (12) 
0

>  <fr_barbitur>  (12) 
0

>  <fr_benzene>  (12) 
2

>  <fr_benzodiazepine>  (12) 
0

>  <fr_bicyclic>  (12) 
7

>  <fr_diazo>  (12) 
0

>  <fr_dihydropyridine>  (12) 
0

>  <fr_epoxide>  (12) 
0

>  <fr_ester>  (12) 
0

>  <fr_ether>  (12) 
3

>  <fr_furan>  (12) 
0

>  <fr_guanido>  (12) 
0

>  <fr_halogen>  (12) 
0

>  <fr_hdrzine>  (12) 
0

>  <fr_hdrzone>  (12) 
0

>  <fr_imidazole>  (12) 
0

>  <fr_imide>  (12) 
0

>  <fr_isocyan>  (12) 
0

>  <fr_isothiocyan>  (12) 
0

>  <fr_ketone>  (12) 
0

>  <fr_ketone_Topliss>  (12) 
0

>  <fr_lactam>  (12) 
0

>  <fr_lactone>  (12) 
0

>  <fr_methoxy>  (12) 
0

>  <fr_morpholine>  (12) 
0

>  <fr_nitrile>  (12) 
0

>  <fr_nitro>  (12) 
0

>  <fr_nitro_arom>  (12) 
0

>  <fr_nitro_arom_nonortho>  (12) 
0

>  <fr_nitroso>  (12) 
0

>  <fr_oxazole>  (12) 
0

>  <fr_oxime>  (12) 
0

>  <fr_para_hydroxylation>  (12) 
0

>  <fr_phenol>  (12) 
0

>  <fr_phenol_noOrthoHbond>  (12) 
0

>  <fr_phos_acid>  (12) 
0

>  <fr_phos_ester>  (12) 
0

>  <fr_piperdine>  (12) 
0

>  <fr_piperzine>  (12) 
0

>  <fr_priamide>  (12) 
0

>  <fr_prisulfonamd>  (12) 
0

>  <fr_pyridine>  (12) 
0

>  <fr_quatN>  (12) 
0

>  <fr_sulfide>  (12) 
0

>  <fr_sulfonamd>  (12) 
0

>  <fr_sulfone>  (12) 
0

>  <fr_term_acetylene>  (12) 
0

>  <fr_tetrazole>  (12) 
0

>  <fr_thiazole>  (12) 
0

>  <fr_thiocyan>  (12) 
0

>  <fr_thiophene>  (12) 
0

>  <fr_unbrch_alkane>  (12) 
0

>  <fr_urea>  (12) 
0

>  <NP_Likeness>  (12) 
-0.169878

$$$$
nan
     RDKit          3D

  0  0  0  0  0  0  0  0  0  0999 V3000
M  V30 BEGIN CTAB
M  V30 COUNTS 65 69 0 0 0
M  V30 BEGIN ATOM
M  V30 1 C 2.427970 -2.174433 5.627561 0
M  V30 2 N 2.739298 -1.806609 4.264555 0
M  V30 3 C 3.879269 -0.962969 4.241917 0
M  V30 4 C 4.637016 -0.856447 2.972036 0
M  V30 5 C 4.429518 -1.995448 1.993592 0
M  V30 6 C 4.980027 -1.599021 0.668878 0
M  V30 7 O 4.471941 -0.510115 0.028352 0
M  V30 8 C 3.289122 -0.169398 -0.523190 0
M  V30 9 C 2.041411 -0.686307 -0.764194 0
M  V30 10 N 1.086085 0.035285 -1.375074 0
M  V30 11 C 1.300764 1.302106 -1.782481 0
M  V30 12 C 0.185038 1.969216 -2.436210 0
M  V30 13 C 0.351106 3.287467 -2.798847 0
M  V30 14 C -0.725993 3.932550 -3.415517 0
M  V30 15 C -1.884504 3.187338 -3.614414 0
M  V30 16 C -2.081432 1.885391 -3.268968 0
M  V30 17 C -3.322226 1.136047 -3.498997 0
M  V30 18 N -4.196191 1.023236 -2.363569 0
M  V30 19 N -3.988097 -0.072715 -1.612592 0
M  V30 20 C -4.721504 -0.351625 -0.521139 0
M  V30 21 C -4.387936 -1.591047 0.212273 0
M  V30 22 C -3.344751 -2.359688 -0.285266 0
M  V30 23 C -2.938185 -3.557168 0.305735 0
M  V30 24 C -3.598991 -4.009966 1.446743 0
M  V30 25 C -4.628041 -3.238483 1.924990 0
M  V30 26 C -5.331264 -3.699274 3.109020 0
M  V30 27 N -5.885294 -4.067823 4.058733 0
M  V30 28 C -5.026890 -2.045544 1.327982 0
M  V30 29 C -5.734266 0.485747 -0.117766 0
M  V30 30 C -5.973699 1.631477 -0.878118 0
M  V30 31 C -5.192960 1.866963 -1.984802 0
M  V30 32 O -5.331312 2.882651 -2.744938 0
M  V30 33 C -0.981265 1.270297 -2.652659 0
M  V30 34 N 2.511356 1.876885 -1.577466 0
M  V30 35 C 3.503979 1.158085 -0.955363 0
M  V30 36 C 3.037908 -2.497841 2.025370 0
M  V30 37 C 2.813042 -3.002156 3.472794 0
M  V30 38 H 1.346461 -2.503297 5.596083 0
M  V30 39 H 3.031049 -3.001945 6.026990 0
M  V30 40 H 2.408978 -1.285917 6.301655 0
M  V30 41 H 4.529768 -1.202895 5.134918 0
M  V30 42 H 3.512305 0.081171 4.477113 0
M  V30 43 H 5.733849 -0.907258 3.272587 0
M  V30 44 H 4.564710 0.111706 2.437059 0
M  V30 45 H 5.076499 -2.849112 2.382925 0
M  V30 46 H 6.107018 -1.578010 0.747201 0
M  V30 47 H 4.804934 -2.493572 -0.020822 0
M  V30 48 H 1.982066 -1.699045 -0.419812 0
M  V30 49 H 1.273691 3.817879 -2.620058 0
M  V30 50 H -0.685403 4.977672 -3.738237 0
M  V30 51 H -2.700384 3.712672 -4.094740 0
M  V30 52 H -3.844538 1.636700 -4.368699 0
M  V30 53 H -3.037938 0.123798 -3.861944 0
M  V30 54 H -2.763456 -2.107106 -1.160205 0
M  V30 55 H -2.140229 -4.170963 -0.053072 0
M  V30 56 H -3.296070 -4.931177 1.906930 0
M  V30 57 H -5.839750 -1.454246 1.723235 0
M  V30 58 H -6.329072 0.274169 0.758833 0
M  V30 59 H -6.756302 2.337447 -0.616300 0
M  V30 60 H -1.128949 0.218556 -2.367986 0
M  V30 61 H 4.360202 1.850779 -0.919935 0
M  V30 62 H 2.905949 -3.349952 1.357241 0
M  V30 63 H 2.264909 -1.693587 1.930696 0
M  V30 64 H 1.870549 -3.548866 3.563150 0
M  V30 65 H 3.658041 -3.650069 3.721019 0
M  V30 END ATOM
M  V30 BEGIN BOND
M  V30 1 1 1 2
M  V30 2 1 2 3
M  V30 3 1 3 4
M  V30 4 1 4 5
M  V30 5 1 5 6
M  V30 6 1 6 7
M  V30 7 1 7 8
M  V30 8 2 8 9
M  V30 9 1 9 10
M  V30 10 2 10 11
M  V30 11 1 11 12
M  V30 12 2 12 13
M  V30 13 1 13 14
M  V30 14 2 14 15
M  V30 15 1 15 16
M  V30 16 1 16 17
M  V30 17 1 17 18
M  V30 18 1 18 19
M  V30 19 2 19 20
M  V30 20 1 20 21
M  V30 21 2 21 22
M  V30 22 1 22 23
M  V30 23 2 23 24
M  V30 24 1 24 25
M  V30 25 1 25 26
M  V30 26 3 26 27
M  V30 27 2 25 28
M  V30 28 1 20 29
M  V30 29 2 29 30
M  V30 30 1 30 31
M  V30 31 2 31 32
M  V30 32 2 16 33
M  V30 33 1 11 34
M  V30 34 2 34 35
M  V30 35 1 5 36
M  V30 36 1 36 37
M  V30 37 1 37 2
M  V30 38 1 35 8
M  V30 39 1 33 12
M  V30 40 1 31 18
M  V30 41 1 28 21
M  V30 42 1 1 38
M  V30 43 1 1 39
M  V30 44 1 1 40
M  V30 45 1 3 41
M  V30 46 1 3 42
M  V30 47 1 4 43
M  V30 48 1 4 44
M  V30 49 1 5 45
M  V30 50 1 6 46
M  V30 51 1 6 47
M  V30 52 1 9 48
M  V30 53 1 13 49
M  V30 54 1 14 50
M  V30 55 1 15 51
M  V30 56 1 17 52
M  V30 57 1 17 53
M  V30 58 1 22 54
M  V30 59 1 23 55
M  V30 60 1 24 56
M  V30 61 1 28 57
M  V30 62 1 29 58
M  V30 63 1 30 59
M  V30 64 1 33 60
M  V30 65 1 35 61
M  V30 66 1 36 62
M  V30 67 1 36 63
M  V30 68 1 37 64
M  V30 69 1 37 65
M  V30 END BOND
M  V30 END CTAB
M  END
>  <Dataset>  (13) 
PKIs

>  <Ligand_Instance>  (13) 
nan

>  <PDB_ID>  (13) 
nan

>  <Standardized_SMILES>  (13) 
CN1CCC(COc2cnc(-c3cccc(Cn4nc(-c5cccc(C#N)c5)ccc4=O)c3)nc2)CC1

>  <Name>  (13) 
Tepotinib

>  <Pocket>  (13) 
nan

>  <ATP_Site>  (13) 
nan

>  <Peripheral>  (13) 
nan

>  <Num_H_Atoms_ProtBoundConf>  (13) 
nan

>  <Num_Resolved_Atoms>  (13) 
nan

>  <Num_Not_Resolved_Atoms>  (13) 
nan

>  <2D_Mol_H>  (13) 
<rdkit.Chem.rdchem.Mol object at 0x72a239111ee0>

>  <MW>  (13) 
492.583

>  <HBA>  (13) 
8

>  <HBD>  (13) 
0

>  <LogP>  (13) 
4.00788

>  <NRB>  (13) 
8

>  <TPSA>  (13) 
96.93

>  <Num_Heavy_Atoms>  (13) 
37

>  <Ro5>  (13) 
[True, True, True, True, True, True]

>  <Ro5_Fulfilled>  (13) 
True

>  <Ro3>  (13) 
[False, False, True, False]

>  <Ro3_Fulfilled>  (13) 
False

>  <Fsp3>  (13) 
0.275862

>  <Fsp3_0.42>  (13) 
False

>  <Fsp3_0.45>  (13) 
False

>  <Stereogenic_Carbons>  (13) 
0

>  <C_Atoms>  (13) 
29

>  <FCStereo>  (13) 
0.0

>  <SPS>  (13) 
528

>  <nSPS>  (13) 
14.27027

>  <PBF>  (13) 
1.071495

>  <PBF_0.6>  (13) 
True

>  <nPBF>  (13) 
0.028959

>  <nPBF_0.016>  (13) 
True

>  <PMI1>  (13) 
5048.197075

>  <PMI2>  (13) 
7882.810376

>  <PMI3>  (13) 
11990.655943

>  <NPR1>  (13) 
0.421011

>  <NPR2>  (13) 
0.657413

>  <Sum_NPR>  (13) 
1.078424

>  <Sum_NPR_1.07>  (13) 
True

>  <Sum_NPR_1.2>  (13) 
False

>  <MaxAbsEStateIndex>  (13) 
12.521648

>  <MaxEStateIndex>  (13) 
12.521648

>  <MinAbsEStateIndex>  (13) 
0.200969

>  <MinEStateIndex>  (13) 
-0.200969

>  <qed>  (13) 
0.384534

>  <MolWt>  (13) 
492.583

>  <HeavyAtomMolWt>  (13) 
464.359

>  <ExactMolWt>  (13) 
492.227374

>  <NumValenceElectrons>  (13) 
186

>  <NumRadicalElectrons>  (13) 
0

>  <MaxPartialCharge>  (13) 
0.26658

>  <MinPartialCharge>  (13) 
-0.490059

>  <MaxAbsPartialCharge>  (13) 
0.490059

>  <MinAbsPartialCharge>  (13) 
0.26658

>  <FpDensityMorgan1>  (13) 
1.0

>  <FpDensityMorgan2>  (13) 
1.756757

>  <FpDensityMorgan3>  (13) 
2.540541

>  <BCUT2D_MWHI>  (13) 
16.478185

>  <BCUT2D_MWLOW>  (13) 
9.982567

>  <BCUT2D_CHGHI>  (13) 
2.170288

>  <BCUT2D_CHGLO>  (13) 
-2.281297

>  <BCUT2D_LOGPHI>  (13) 
2.213006

>  <BCUT2D_LOGPLOW>  (13) 
-2.320491

>  <BCUT2D_MRHI>  (13) 
5.604443

>  <BCUT2D_MRLOW>  (13) 
0.159336

>  <AvgIpc>  (13) 
2.942601

>  <BalabanJ>  (13) 
1.279377

>  <BertzCT>  (13) 
1466.969734

>  <Chi0>  (13) 
25.614309

>  <Chi0n>  (13) 
20.747972

>  <Chi0v>  (13) 
20.747972

>  <Chi1>  (13) 
18.068015

>  <Chi1n>  (13) 
12.386319

>  <Chi1v>  (13) 
12.386319

>  <Chi2n>  (13) 
9.407476

>  <Chi2v>  (13) 
9.407476

>  <Chi3n>  (13) 
6.62357

>  <Chi3v>  (13) 
6.62357

>  <Chi4n>  (13) 
4.428536

>  <Chi4v>  (13) 
4.428536

>  <HallKierAlpha>  (13) 
-4.35

>  <Ipc>  (13) 
336422420.71382

>  <Kappa1>  (13) 
24.349086

>  <Kappa2>  (13) 
11.145358

>  <Kappa3>  (13) 
6.079775

>  <LabuteASA>  (13) 
215.365831

>  <PEOE_VSA1>  (13) 
9.636773

>  <PEOE_VSA10>  (13) 
0.0

>  <PEOE_VSA11>  (13) 
11.573916

>  <PEOE_VSA12>  (13) 
0.0

>  <PEOE_VSA13>  (13) 
5.559267

>  <PEOE_VSA14>  (13) 
0.0

>  <PEOE_VSA2>  (13) 
4.794537

>  <PEOE_VSA3>  (13) 
14.64976

>  <PEOE_VSA4>  (13) 
10.360573

>  <PEOE_VSA5>  (13) 
0.0

>  <PEOE_VSA6>  (13) 
30.331835

>  <PEOE_VSA7>  (13) 
68.725654

>  <PEOE_VSA8>  (13) 
17.19327

>  <PEOE_VSA9>  (13) 
42.871926

>  <SMR_VSA1>  (13) 
4.736863

>  <SMR_VSA10>  (13) 
0.0

>  <SMR_VSA2>  (13) 
5.261892

>  <SMR_VSA3>  (13) 
24.648352

>  <SMR_VSA4>  (13) 
5.917906

>  <SMR_VSA5>  (13) 
19.3864

>  <SMR_VSA6>  (13) 
26.744067

>  <SMR_VSA7>  (13) 
94.538065

>  <SMR_VSA8>  (13) 
0.0

>  <SMR_VSA9>  (13) 
34.463969

>  <SlogP_VSA1>  (13) 
10.29613

>  <SlogP_VSA10>  (13) 
0.0

>  <SlogP_VSA11>  (13) 
5.749512

>  <SlogP_VSA12>  (13) 
0.0

>  <SlogP_VSA2>  (13) 
51.392418

>  <SlogP_VSA3>  (13) 
6.544756

>  <SlogP_VSA4>  (13) 
17.249019

>  <SlogP_VSA5>  (13) 
23.968546

>  <SlogP_VSA6>  (13) 
77.851895

>  <SlogP_VSA7>  (13) 
0.0

>  <SlogP_VSA8>  (13) 
22.645235

>  <SlogP_VSA9>  (13) 
0.0

>  <EState_VSA1>  (13) 
0.0

>  <EState_VSA10>  (13) 
10.056429

>  <EState_VSA11>  (13) 
0.0

>  <EState_VSA2>  (13) 
5.559267

>  <EState_VSA3>  (13) 
41.90084

>  <EState_VSA4>  (13) 
42.621511

>  <EState_VSA5>  (13) 
10.74817

>  <EState_VSA6>  (13) 
36.659155

>  <EState_VSA7>  (13) 
30.331835

>  <EState_VSA8>  (13) 
33.083442

>  <EState_VSA9>  (13) 
4.736863

>  <VSA_EState1>  (13) 
7.366962

>  <VSA_EState10>  (13) 
0.0

>  <VSA_EState2>  (13) 
23.880594

>  <VSA_EState3>  (13) 
13.716759

>  <VSA_EState4>  (13) 
3.51626

>  <VSA_EState5>  (13) 
1.834348

>  <VSA_EState6>  (13) 
20.254677

>  <VSA_EState7>  (13) 
5.730513

>  <VSA_EState8>  (13) 
3.212424

>  <VSA_EState9>  (13) 
2.15413

>  <FractionCSP3>  (13) 
0.275862

>  <HeavyAtomCount>  (13) 
37

>  <NHOHCount>  (13) 
0

>  <NOCount>  (13) 
8

>  <NumAliphaticCarbocycles>  (13) 
0

>  <NumAliphaticHeterocycles>  (13) 
1

>  <NumAliphaticRings>  (13) 
1

>  <NumAromaticCarbocycles>  (13) 
2

>  <NumAromaticHeterocycles>  (13) 
2

>  <NumAromaticRings>  (13) 
4

>  <NumHAcceptors>  (13) 
8

>  <NumHDonors>  (13) 
0

>  <NumHeteroatoms>  (13) 
8

>  <NumRotatableBonds>  (13) 
7

>  <NumSaturatedCarbocycles>  (13) 
0

>  <NumSaturatedHeterocycles>  (13) 
1

>  <NumSaturatedRings>  (13) 
1

>  <RingCount>  (13) 
5

>  <MolLogP>  (13) 
4.00788

>  <MolMR>  (13) 
140.934

>  <fr_Al_COO>  (13) 
0

>  <fr_Al_OH>  (13) 
0

>  <fr_Al_OH_noTert>  (13) 
0

>  <fr_ArN>  (13) 
0

>  <fr_Ar_COO>  (13) 
0

>  <fr_Ar_N>  (13) 
4

>  <fr_Ar_NH>  (13) 
0

>  <fr_Ar_OH>  (13) 
0

>  <fr_COO>  (13) 
0

>  <fr_COO2>  (13) 
0

>  <fr_C_O>  (13) 
0

>  <fr_C_O_noCOO>  (13) 
0

>  <fr_C_S>  (13) 
0

>  <fr_HOCCN>  (13) 
0

>  <fr_Imine>  (13) 
0

>  <fr_NH0>  (13) 
6

>  <fr_NH1>  (13) 
0

>  <fr_NH2>  (13) 
0

>  <fr_N_O>  (13) 
0

>  <fr_Ndealkylation1>  (13) 
0

>  <fr_Ndealkylation2>  (13) 
1

>  <fr_Nhpyrrole>  (13) 
0

>  <fr_SH>  (13) 
0

>  <fr_aldehyde>  (13) 
0

>  <fr_alkyl_carbamate>  (13) 
0

>  <fr_alkyl_halide>  (13) 
0

>  <fr_allylic_oxid>  (13) 
0

>  <fr_amide>  (13) 
0

>  <fr_amidine>  (13) 
0

>  <fr_aniline>  (13) 
0

>  <fr_aryl_methyl>  (13) 
0

>  <fr_azide>  (13) 
0

>  <fr_azo>  (13) 
0

>  <fr_barbitur>  (13) 
0

>  <fr_benzene>  (13) 
2

>  <fr_benzodiazepine>  (13) 
0

>  <fr_bicyclic>  (13) 
0

>  <fr_diazo>  (13) 
0

>  <fr_dihydropyridine>  (13) 
0

>  <fr_epoxide>  (13) 
0

>  <fr_ester>  (13) 
0

>  <fr_ether>  (13) 
1

>  <fr_furan>  (13) 
0

>  <fr_guanido>  (13) 
0

>  <fr_halogen>  (13) 
0

>  <fr_hdrzine>  (13) 
0

>  <fr_hdrzone>  (13) 
0

>  <fr_imidazole>  (13) 
0

>  <fr_imide>  (13) 
0

>  <fr_isocyan>  (13) 
0

>  <fr_isothiocyan>  (13) 
0

>  <fr_ketone>  (13) 
0

>  <fr_ketone_Topliss>  (13) 
0

>  <fr_lactam>  (13) 
0

>  <fr_lactone>  (13) 
0

>  <fr_methoxy>  (13) 
0

>  <fr_morpholine>  (13) 
0

>  <fr_nitrile>  (13) 
1

>  <fr_nitro>  (13) 
0

>  <fr_nitro_arom>  (13) 
0

>  <fr_nitro_arom_nonortho>  (13) 
0

>  <fr_nitroso>  (13) 
0

>  <fr_oxazole>  (13) 
0

>  <fr_oxime>  (13) 
0

>  <fr_para_hydroxylation>  (13) 
0

>  <fr_phenol>  (13) 
0

>  <fr_phenol_noOrthoHbond>  (13) 
0

>  <fr_phos_acid>  (13) 
0

>  <fr_phos_ester>  (13) 
0

>  <fr_piperdine>  (13) 
1

>  <fr_piperzine>  (13) 
0

>  <fr_priamide>  (13) 
0

>  <fr_prisulfonamd>  (13) 
0

>  <fr_pyridine>  (13) 
0

>  <fr_quatN>  (13) 
0

>  <fr_sulfide>  (13) 
0

>  <fr_sulfonamd>  (13) 
0

>  <fr_sulfone>  (13) 
0

>  <fr_term_acetylene>  (13) 
0

>  <fr_tetrazole>  (13) 
0

>  <fr_thiazole>  (13) 
0

>  <fr_thiocyan>  (13) 
0

>  <fr_thiophene>  (13) 
0

>  <fr_unbrch_alkane>  (13) 
0

>  <fr_urea>  (13) 
0

>  <NP_Likeness>  (13) 
-1.730119

$$$$
nan
     RDKit          3D

  0  0  0  0  0  0  0  0  0  0999 V3000
M  V30 BEGIN CTAB
M  V30 COUNTS 62 65 0 0 0
M  V30 BEGIN ATOM
M  V30 1 C 1.966631 0.780410 8.414742 0
M  V30 2 C 1.806216 0.140232 7.080315 0
M  V30 3 C 2.758929 0.081276 6.056016 0
M  V30 4 C 2.096742 -0.616882 5.053221 0
M  V30 5 C 2.611846 -0.946211 3.804688 0
M  V30 6 C 1.755274 -1.646389 2.972831 0
M  V30 7 O 2.211608 -2.004096 1.714358 0
M  V30 8 C 2.091085 -1.194167 0.603430 0
M  V30 9 C 2.571516 -1.648852 -0.604966 0
M  V30 10 C 2.432226 -0.813579 -1.688383 0
M  V30 11 N 1.849361 0.398062 -1.566677 0
M  V30 12 C 1.394485 0.815725 -0.394585 0
M  V30 13 N 0.835926 2.111793 -0.560194 0
M  V30 14 C -0.535514 2.357560 -0.847523 0
M  V30 15 C -0.991409 3.630291 -1.180232 0
M  V30 16 C -2.332609 3.794207 -1.447933 0
M  V30 17 C -3.169416 2.700990 -1.377203 0
M  V30 18 C -2.739797 1.411160 -1.045172 0
M  V30 19 C -3.799773 0.374372 -1.029067 0
M  V30 20 S -3.927190 -0.518225 -2.557940 0
M  V30 21 O -4.297988 0.345285 -3.709338 0
M  V30 22 O -4.973817 -1.577484 -2.382026 0
M  V30 23 N -2.416454 -1.350177 -2.867166 0
M  V30 24 C -2.151082 -2.301525 -1.823813 0
M  V30 25 C -0.894325 -3.080985 -1.937276 0
M  V30 26 N -0.713711 -3.902393 -3.074912 0
M  V30 27 C -0.517052 -3.265185 -4.332260 0
M  V30 28 C 0.335849 -4.867432 -2.791327 0
M  V30 29 C -1.393359 1.298271 -0.787047 0
M  V30 30 N 1.524944 0.001868 0.683619 0
M  V30 31 C 0.463743 -2.017054 3.315909 0
M  V30 32 C -0.018464 -1.667644 4.580986 0
M  V30 33 C 0.822142 -0.960198 5.443995 0
M  V30 34 N 0.666796 -0.477547 6.708951 0
M  V30 35 H 1.101083 1.432341 8.620635 0
M  V30 36 H 2.878962 1.424515 8.400965 0
M  V30 37 H 2.108855 -0.009563 9.174869 0
M  V30 38 H 3.735398 0.494219 6.102558 0
M  V30 39 H 3.604199 -0.687079 3.479865 0
M  V30 40 H 3.026481 -2.613230 -0.655692 0
M  V30 41 H 2.835758 -1.236032 -2.617139 0
M  V30 42 H 1.483435 2.924533 -0.461615 0
M  V30 43 H -0.219105 4.409680 -1.198679 0
M  V30 44 H -2.644025 4.786121 -1.698753 0
M  V30 45 H -4.191603 2.911523 -1.599282 0
M  V30 46 H -3.611030 -0.403551 -0.245372 0
M  V30 47 H -4.767930 0.829770 -0.737789 0
M  V30 48 H -2.548000 -1.804361 -3.803144 0
M  V30 49 H -2.121691 -1.759296 -0.854177 0
M  V30 50 H -2.992384 -3.063331 -1.803865 0
M  V30 51 H 0.023017 -2.457167 -1.784665 0
M  V30 52 H -0.876640 -3.773055 -1.040287 0
M  V30 53 H -0.276790 -2.194848 -4.305769 0
M  V30 54 H -1.401493 -3.504568 -4.989257 0
M  V30 55 H 0.390420 -3.729756 -4.839510 0
M  V30 56 H -0.151549 -5.758826 -2.333170 0
M  V30 57 H 1.089206 -4.447291 -2.068426 0
M  V30 58 H 0.835702 -5.211847 -3.720150 0
M  V30 59 H -1.059090 0.324571 -0.533483 0
M  V30 60 H -0.147260 -2.564240 2.610205 0
M  V30 61 H -1.017639 -1.939737 4.883987 0
M  V30 62 H -0.210830 -0.587214 7.272830 0
M  V30 END ATOM
M  V30 BEGIN BOND
M  V30 1 1 1 2
M  V30 2 2 2 3
M  V30 3 1 3 4
M  V30 4 2 4 5
M  V30 5 1 5 6
M  V30 6 1 6 7
M  V30 7 1 7 8
M  V30 8 2 8 9
M  V30 9 1 9 10
M  V30 10 2 10 11
M  V30 11 1 11 12
M  V30 12 1 12 13
M  V30 13 1 13 14
M  V30 14 2 14 15
M  V30 15 1 15 16
M  V30 16 2 16 17
M  V30 17 1 17 18
M  V30 18 1 18 19
M  V30 19 1 19 20
M  V30 20 2 20 21
M  V30 21 2 20 22
M  V30 22 1 20 23
M  V30 23 1 23 24
M  V30 24 1 24 25
M  V30 25 1 25 26
M  V30 26 1 26 27
M  V30 27 1 26 28
M  V30 28 2 18 29
M  V30 29 2 12 30
M  V30 30 2 6 31
M  V30 31 1 31 32
M  V30 32 2 32 33
M  V30 33 1 33 34
M  V30 34 1 34 2
M  V30 35 1 33 4
M  V30 36 1 30 8
M  V30 37 1 29 14
M  V30 38 1 1 35
M  V30 39 1 1 36
M  V30 40 1 1 37
M  V30 41 1 3 38
M  V30 42 1 5 39
M  V30 43 1 9 40
M  V30 44 1 10 41
M  V30 45 1 13 42
M  V30 46 1 15 43
M  V30 47 1 16 44
M  V30 48 1 17 45
M  V30 49 1 19 46
M  V30 50 1 19 47
M  V30 51 1 23 48
M  V30 52 1 24 49
M  V30 53 1 24 50
M  V30 54 1 25 51
M  V30 55 1 25 52
M  V30 56 1 27 53
M  V30 57 1 27 54
M  V30 58 1 27 55
M  V30 59 1 28 56
M  V30 60 1 28 57
M  V30 61 1 28 58
M  V30 62 1 29 59
M  V30 63 1 31 60
M  V30 64 1 32 61
M  V30 65 1 34 62
M  V30 END BOND
M  V30 END CTAB
M  END
>  <Dataset>  (14) 
PKIs

>  <Ligand_Instance>  (14) 
nan

>  <PDB_ID>  (14) 
nan

>  <Standardized_SMILES>  (14) 
Cc1cc2cc(Oc3ccnc(Nc4cccc(CS(=O)(=O)NCCN(C)C)c4)n3)ccc2[nH]1

>  <Name>  (14) 
Surufatinib

>  <Pocket>  (14) 
nan

>  <ATP_Site>  (14) 
nan

>  <Peripheral>  (14) 
nan

>  <Num_H_Atoms_ProtBoundConf>  (14) 
nan

>  <Num_Resolved_Atoms>  (14) 
nan

>  <Num_Not_Resolved_Atoms>  (14) 
nan

>  <2D_Mol_H>  (14) 
<rdkit.Chem.rdchem.Mol object at 0x72a239111fc0>

>  <MW>  (14) 
480.594

>  <HBA>  (14) 
7

>  <HBD>  (14) 
3

>  <LogP>  (14) 
3.78322

>  <NRB>  (14) 
13

>  <TPSA>  (14) 
112.24

>  <Num_Heavy_Atoms>  (14) 
34

>  <Ro5>  (14) 
[True, True, True, True, False, True]

>  <Ro5_Fulfilled>  (14) 
True

>  <Ro3>  (14) 
[False, False, True, False]

>  <Ro3_Fulfilled>  (14) 
False

>  <Fsp3>  (14) 
0.25

>  <Fsp3_0.42>  (14) 
False

>  <Fsp3_0.45>  (14) 
False

>  <Stereogenic_Carbons>  (14) 
0

>  <C_Atoms>  (14) 
24

>  <FCStereo>  (14) 
0.0

>  <SPS>  (14) 
400

>  <nSPS>  (14) 
11.764706

>  <PBF>  (14) 
1.38808

>  <PBF_0.6>  (14) 
True

>  <nPBF>  (14) 
0.040826

>  <nPBF_0.016>  (14) 
True

>  <PMI1>  (14) 
3307.027907

>  <PMI2>  (14) 
8136.590929

>  <PMI3>  (14) 
9096.485152

>  <NPR1>  (14) 
0.36355

>  <NPR2>  (14) 
0.894476

>  <Sum_NPR>  (14) 
1.258026

>  <Sum_NPR_1.07>  (14) 
True

>  <Sum_NPR_1.2>  (14) 
True

>  <MaxAbsEStateIndex>  (14) 
12.359161

>  <MaxEStateIndex>  (14) 
12.359161

>  <MinAbsEStateIndex>  (14) 
0.110057

>  <MinEStateIndex>  (14) 
-3.433375

>  <qed>  (14) 
0.316595

>  <MolWt>  (14) 
480.594

>  <HeavyAtomMolWt>  (14) 
452.37

>  <ExactMolWt>  (14) 
480.19436

>  <NumValenceElectrons>  (14) 
178

>  <NumRadicalElectrons>  (14) 
0

>  <MaxPartialCharge>  (14) 
0.229984

>  <MinPartialCharge>  (14) 
-0.438844

>  <MaxAbsPartialCharge>  (14) 
0.438844

>  <MinAbsPartialCharge>  (14) 
0.229984

>  <FpDensityMorgan1>  (14) 
1.088235

>  <FpDensityMorgan2>  (14) 
1.941176

>  <FpDensityMorgan3>  (14) 
2.764706

>  <BCUT2D_MWHI>  (14) 
32.233228

>  <BCUT2D_MWLOW>  (14) 
10.198826

>  <BCUT2D_CHGHI>  (14) 
2.119167

>  <BCUT2D_CHGLO>  (14) 
-2.116566

>  <BCUT2D_LOGPHI>  (14) 
2.256773

>  <BCUT2D_LOGPLOW>  (14) 
-2.317077

>  <BCUT2D_MRHI>  (14) 
7.882215

>  <BCUT2D_MRLOW>  (14) 
0.41213

>  <AvgIpc>  (14) 
3.125572

>  <BalabanJ>  (14) 
1.420299

>  <BertzCT>  (14) 
1384.499576

>  <Chi0>  (14) 
24.131181

>  <Chi0n>  (14) 
19.369457

>  <Chi0v>  (14) 
20.185954

>  <Chi1>  (14) 
16.253953

>  <Chi1n>  (14) 
10.839922

>  <Chi1v>  (14) 
12.492187

>  <Chi2n>  (14) 
8.304031

>  <Chi2v>  (14) 
10.110877

>  <Chi3n>  (14) 
5.000128

>  <Chi3v>  (14) 
6.357452

>  <Chi4n>  (14) 
3.462437

>  <Chi4v>  (14) 
4.585181

>  <HallKierAlpha>  (14) 
-3.47

>  <Ipc>  (14) 
40599551.073484

>  <Kappa1>  (14) 
23.680267

>  <Kappa2>  (14) 
10.205785

>  <Kappa3>  (14) 
6.533192

>  <LabuteASA>  (14) 
198.799244

>  <PEOE_VSA1>  (14) 
19.93754

>  <PEOE_VSA10>  (14) 
5.749512

>  <PEOE_VSA11>  (14) 
0.0

>  <PEOE_VSA12>  (14) 
21.851619

>  <PEOE_VSA13>  (14) 
0.0

>  <PEOE_VSA14>  (14) 
0.0

>  <PEOE_VSA2>  (14) 
0.0

>  <PEOE_VSA3>  (14) 
18.12387

>  <PEOE_VSA4>  (14) 
4.983979

>  <PEOE_VSA5>  (14) 
0.0

>  <PEOE_VSA6>  (14) 
12.132734

>  <PEOE_VSA7>  (14) 
62.980735

>  <PEOE_VSA8>  (14) 
47.636963

>  <PEOE_VSA9>  (14) 
5.752854

>  <SMR_VSA1>  (14) 
13.15466

>  <SMR_VSA10>  (14) 
32.561942

>  <SMR_VSA2>  (14) 
0.0

>  <SMR_VSA3>  (14) 
24.57394

>  <SMR_VSA4>  (14) 
0.0

>  <SMR_VSA5>  (14) 
12.676591

>  <SMR_VSA6>  (14) 
32.501645

>  <SMR_VSA7>  (14) 
72.051527

>  <SMR_VSA8>  (14) 
0.0

>  <SMR_VSA9>  (14) 
11.6295

>  <SlogP_VSA1>  (14) 
14.775746

>  <SlogP_VSA10>  (14) 
11.635726

>  <SlogP_VSA11>  (14) 
11.6295

>  <SlogP_VSA12>  (14) 
0.0

>  <SlogP_VSA2>  (14) 
55.454499

>  <SlogP_VSA3>  (14) 
15.776145

>  <SlogP_VSA4>  (14) 
6.923737

>  <SlogP_VSA5>  (14) 
11.257379

>  <SlogP_VSA6>  (14) 
60.794147

>  <SlogP_VSA7>  (14) 
0.0

>  <SlogP_VSA8>  (14) 
10.902925

>  <SlogP_VSA9>  (14) 
0.0

>  <EState_VSA1>  (14) 
10.023291

>  <EState_VSA10>  (14) 
8.417797

>  <EState_VSA11>  (14) 
0.0

>  <EState_VSA2>  (14) 
5.752854

>  <EState_VSA3>  (14) 
41.91819

>  <EState_VSA4>  (14) 
16.596853

>  <EState_VSA5>  (14) 
0.0

>  <EState_VSA6>  (14) 
30.462312

>  <EState_VSA7>  (14) 
50.184459

>  <EState_VSA8>  (14) 
31.057186

>  <EState_VSA9>  (14) 
4.736863

>  <VSA_EState1>  (14) 
33.258185

>  <VSA_EState10>  (14) 
0.0

>  <VSA_EState2>  (14) 
13.875884

>  <VSA_EState3>  (14) 
4.178726

>  <VSA_EState4>  (14) 
3.4694

>  <VSA_EState5>  (14) 
1.304976

>  <VSA_EState6>  (14) 
16.692099

>  <VSA_EState7>  (14) 
1.603788

>  <VSA_EState8>  (14) 
3.008753

>  <VSA_EState9>  (14) 
0.358189

>  <FractionCSP3>  (14) 
0.25

>  <HeavyAtomCount>  (14) 
34

>  <NHOHCount>  (14) 
3

>  <NOCount>  (14) 
9

>  <NumAliphaticCarbocycles>  (14) 
0

>  <NumAliphaticHeterocycles>  (14) 
0

>  <NumAliphaticRings>  (14) 
0

>  <NumAromaticCarbocycles>  (14) 
2

>  <NumAromaticHeterocycles>  (14) 
2

>  <NumAromaticRings>  (14) 
4

>  <NumHAcceptors>  (14) 
7

>  <NumHDonors>  (14) 
3

>  <NumHeteroatoms>  (14) 
10

>  <NumRotatableBonds>  (14) 
10

>  <NumSaturatedCarbocycles>  (14) 
0

>  <NumSaturatedHeterocycles>  (14) 
0

>  <NumSaturatedRings>  (14) 
0

>  <RingCount>  (14) 
4

>  <MolLogP>  (14) 
3.78322

>  <MolMR>  (14) 
134.0469

>  <fr_Al_COO>  (14) 
0

>  <fr_Al_OH>  (14) 
0

>  <fr_Al_OH_noTert>  (14) 
0

>  <fr_ArN>  (14) 
0

>  <fr_Ar_COO>  (14) 
0

>  <fr_Ar_N>  (14) 
3

>  <fr_Ar_NH>  (14) 
1

>  <fr_Ar_OH>  (14) 
0

>  <fr_COO>  (14) 
0

>  <fr_COO2>  (14) 
0

>  <fr_C_O>  (14) 
0

>  <fr_C_O_noCOO>  (14) 
0

>  <fr_C_S>  (14) 
0

>  <fr_HOCCN>  (14) 
0

>  <fr_Imine>  (14) 
0

>  <fr_NH0>  (14) 
3

>  <fr_NH1>  (14) 
3

>  <fr_NH2>  (14) 
0

>  <fr_N_O>  (14) 
0

>  <fr_Ndealkylation1>  (14) 
1

>  <fr_Ndealkylation2>  (14) 
0

>  <fr_Nhpyrrole>  (14) 
1

>  <fr_SH>  (14) 
0

>  <fr_aldehyde>  (14) 
0

>  <fr_alkyl_carbamate>  (14) 
0

>  <fr_alkyl_halide>  (14) 
0

>  <fr_allylic_oxid>  (14) 
0

>  <fr_amide>  (14) 
0

>  <fr_amidine>  (14) 
0

>  <fr_aniline>  (14) 
2

>  <fr_aryl_methyl>  (14) 
1

>  <fr_azide>  (14) 
0

>  <fr_azo>  (14) 
0

>  <fr_barbitur>  (14) 
0

>  <fr_benzene>  (14) 
2

>  <fr_benzodiazepine>  (14) 
0

>  <fr_bicyclic>  (14) 
1

>  <fr_diazo>  (14) 
0

>  <fr_dihydropyridine>  (14) 
0

>  <fr_epoxide>  (14) 
0

>  <fr_ester>  (14) 
0

>  <fr_ether>  (14) 
1

>  <fr_furan>  (14) 
0

>  <fr_guanido>  (14) 
0

>  <fr_halogen>  (14) 
0

>  <fr_hdrzine>  (14) 
0

>  <fr_hdrzone>  (14) 
0

>  <fr_imidazole>  (14) 
0

>  <fr_imide>  (14) 
0

>  <fr_isocyan>  (14) 
0

>  <fr_isothiocyan>  (14) 
0

>  <fr_ketone>  (14) 
0

>  <fr_ketone_Topliss>  (14) 
0

>  <fr_lactam>  (14) 
0

>  <fr_lactone>  (14) 
0

>  <fr_methoxy>  (14) 
0

>  <fr_morpholine>  (14) 
0

>  <fr_nitrile>  (14) 
0

>  <fr_nitro>  (14) 
0

>  <fr_nitro_arom>  (14) 
0

>  <fr_nitro_arom_nonortho>  (14) 
0

>  <fr_nitroso>  (14) 
0

>  <fr_oxazole>  (14) 
0

>  <fr_oxime>  (14) 
0

>  <fr_para_hydroxylation>  (14) 
0

>  <fr_phenol>  (14) 
0

>  <fr_phenol_noOrthoHbond>  (14) 
0

>  <fr_phos_acid>  (14) 
0

>  <fr_phos_ester>  (14) 
0

>  <fr_piperdine>  (14) 
0

>  <fr_piperzine>  (14) 
0

>  <fr_priamide>  (14) 
0

>  <fr_prisulfonamd>  (14) 
0

>  <fr_pyridine>  (14) 
0

>  <fr_quatN>  (14) 
0

>  <fr_sulfide>  (14) 
0

>  <fr_sulfonamd>  (14) 
1

>  <fr_sulfone>  (14) 
0

>  <fr_term_acetylene>  (14) 
0

>  <fr_tetrazole>  (14) 
0

>  <fr_thiazole>  (14) 
0

>  <fr_thiocyan>  (14) 
0

>  <fr_thiophene>  (14) 
0

>  <fr_unbrch_alkane>  (14) 
0

>  <fr_urea>  (14) 
0

>  <NP_Likeness>  (14) 
-1.871901

$$$$
nan
     RDKit          3D

  0  0  0  0  0  0  0  0  0  0999 V3000
M  V30 BEGIN CTAB
M  V30 COUNTS 46 50 0 0 0
M  V30 BEGIN ATOM
M  V30 1 N -1.474453 -5.047814 1.225271 0
M  V30 2 C -1.200776 -3.852796 0.508182 0
M  V30 3 O -2.357915 -3.457004 0.760328 0
M  V30 4 C 0.054457 -3.566439 -0.130488 0
M  V30 5 C 1.016357 -4.528506 -0.016251 0
M  V30 6 N 2.203987 -4.322835 -0.586806 0
M  V30 7 C 2.473725 -3.201550 -1.265310 0
M  V30 8 N 3.614029 -2.859414 -1.891916 0
M  V30 9 C 3.426322 -1.646105 -2.441698 0
M  V30 10 C 2.138097 -1.270458 -2.125748 0
M  V30 11 C 1.511761 -2.232941 -1.382982 0
M  V30 12 C 0.266989 -2.391578 -0.813707 0
M  V30 13 N -0.729020 -1.400654 -0.940441 0
M  V30 14 C -0.996428 -0.118006 -1.469836 0 CFG=2
M  V30 15 C -0.248598 1.026895 -0.830795 0 CFG=2
M  V30 16 C -0.971111 1.580033 0.385902 0
M  V30 17 C -2.343383 2.035832 -0.001529 0 CFG=2
M  V30 18 C -3.107169 0.802895 -0.431263 0
M  V30 19 C -2.454840 0.233501 -1.647830 0 CFG=1
M  V30 20 C -2.493309 1.358128 -2.692186 0
M  V30 21 C -1.630386 2.506214 -2.277240 0 CFG=1
M  V30 22 O -1.578433 3.411283 -3.322397 0
M  V30 23 C -2.310023 3.113342 -1.046453 0
M  V30 24 C -0.237562 2.150298 -1.864590 0
M  V30 25 H -1.874625 -5.976474 0.916161 0
M  V30 26 H -1.347898 -5.305506 2.232532 0
M  V30 27 H 0.833484 -5.444129 0.523015 0
M  V30 28 H 4.501475 -3.443832 -1.942093 0
M  V30 29 H 4.147027 -1.058096 -3.028930 0
M  V30 30 H 1.715041 -0.347298 -2.436322 0
M  V30 31 H -1.619328 -1.669174 -0.482287 0
M  V30 32 H -0.604675 -0.133340 -2.540411 0
M  V30 33 H 0.770654 0.734410 -0.564820 0
M  V30 34 H -1.086107 0.801186 1.176746 0
M  V30 35 H -0.342805 2.408108 0.757098 0
M  V30 36 H -2.861984 2.461816 0.883032 0
M  V30 37 H -4.125375 1.120312 -0.731918 0
M  V30 38 H -3.152564 0.123234 0.425953 0
M  V30 39 H -2.995606 -0.630744 -2.040978 0
M  V30 40 H -2.304075 0.972171 -3.710493 0
M  V30 41 H -3.549424 1.712883 -2.668486 0
M  V30 42 H -0.920528 3.043928 -3.970731 0
M  V30 43 H -1.723425 3.948194 -0.622279 0
M  V30 44 H -3.360426 3.370030 -1.290994 0
M  V30 45 H 0.431039 1.906935 -2.712342 0
M  V30 46 H 0.189432 3.025113 -1.336224 0
M  V30 END ATOM
M  V30 BEGIN BOND
M  V30 1 1 1 2
M  V30 2 2 2 3
M  V30 3 1 2 4
M  V30 4 2 4 5
M  V30 5 1 5 6
M  V30 6 2 6 7
M  V30 7 1 7 8
M  V30 8 1 8 9
M  V30 9 2 9 10
M  V30 10 1 10 11
M  V30 11 2 11 12
M  V30 12 1 12 13
M  V30 13 1 13 14
M  V30 14 1 14 15
M  V30 15 1 15 16
M  V30 16 1 16 17
M  V30 17 1 17 18
M  V30 18 1 18 19
M  V30 19 1 19 20
M  V30 20 1 20 21
M  V30 21 1 21 22 CFG=3
M  V30 22 1 21 23
M  V30 23 1 21 24
M  V30 24 1 12 4
M  V30 25 1 19 14
M  V30 26 1 11 7
M  V30 27 1 24 15
M  V30 28 1 23 17
M  V30 29 1 1 25
M  V30 30 1 1 26
M  V30 31 1 5 27
M  V30 32 1 8 28
M  V30 33 1 9 29
M  V30 34 1 10 30
M  V30 35 1 13 31
M  V30 36 1 14 32 CFG=3
M  V30 37 1 15 33 CFG=1
M  V30 38 1 16 34
M  V30 39 1 16 35
M  V30 40 1 17 36 CFG=1
M  V30 41 1 18 37
M  V30 42 1 18 38
M  V30 43 1 19 39 CFG=3
M  V30 44 1 20 40
M  V30 45 1 20 41
M  V30 46 1 22 42
M  V30 47 1 23 43
M  V30 48 1 23 44
M  V30 49 1 24 45
M  V30 50 1 24 46
M  V30 END BOND
M  V30 END CTAB
M  END
>  <Dataset>  (15) 
PKIs

>  <Ligand_Instance>  (15) 
nan

>  <PDB_ID>  (15) 
nan

>  <Standardized_SMILES>  (15) 
NC(=O)c1cnc2[nH]ccc2c1N[C@@H]1[C@@H]2C[C@@H]3C[C@H]1C[C@@](O)(C3)C2

>  <Name>  (15) 
Peficitinib

>  <Pocket>  (15) 
nan

>  <ATP_Site>  (15) 
nan

>  <Peripheral>  (15) 
nan

>  <Num_H_Atoms_ProtBoundConf>  (15) 
nan

>  <Num_Resolved_Atoms>  (15) 
nan

>  <Num_Not_Resolved_Atoms>  (15) 
nan

>  <2D_Mol_H>  (15) 
<rdkit.Chem.rdchem.Mol object at 0x72a2391120a0>

>  <MW>  (15) 
326.4

>  <HBA>  (15) 
4

>  <HBD>  (15) 
4

>  <LogP>  (15) 
2.0133

>  <NRB>  (15) 
4

>  <TPSA>  (15) 
104.03

>  <Num_Heavy_Atoms>  (15) 
24

>  <Ro5>  (15) 
[True, True, True, True, True, True]

>  <Ro5_Fulfilled>  (15) 
True

>  <Ro3>  (15) 
[False, False, False, True]

>  <Ro3_Fulfilled>  (15) 
False

>  <Fsp3>  (15) 
0.555556

>  <Fsp3_0.42>  (15) 
True

>  <Fsp3_0.45>  (15) 
True

>  <Stereogenic_Carbons>  (15) 
5

>  <C_Atoms>  (15) 
18

>  <FCStereo>  (15) 
0.277778

>  <SPS>  (15) 
889

>  <nSPS>  (15) 
37.041667

>  <PBF>  (15) 
0.731657

>  <PBF_0.6>  (15) 
True

>  <nPBF>  (15) 
0.030486

>  <nPBF_0.016>  (15) 
True

>  <PMI1>  (15) 
1258.95786

>  <PMI2>  (15) 
2989.700521

>  <PMI3>  (15) 
3917.907941

>  <NPR1>  (15) 
0.321334

>  <NPR2>  (15) 
0.763086

>  <Sum_NPR>  (15) 
1.08442

>  <Sum_NPR_1.07>  (15) 
True

>  <Sum_NPR_1.2>  (15) 
False

>  <MaxAbsEStateIndex>  (15) 
11.877737

>  <MaxEStateIndex>  (15) 
11.877737

>  <MinAbsEStateIndex>  (15) 
0.29206

>  <MinEStateIndex>  (15) 
-0.462459

>  <qed>  (15) 
0.692371

>  <MolWt>  (15) 
326.4

>  <HeavyAtomMolWt>  (15) 
304.224

>  <ExactMolWt>  (15) 
326.174276

>  <NumValenceElectrons>  (15) 
126

>  <NumRadicalElectrons>  (15) 
0

>  <MaxPartialCharge>  (15) 
0.251898

>  <MinPartialCharge>  (15) 
-0.389859

>  <MaxAbsPartialCharge>  (15) 
0.389859

>  <MinAbsPartialCharge>  (15) 
0.251898

>  <FpDensityMorgan1>  (15) 
1.333333

>  <FpDensityMorgan2>  (15) 
2.083333

>  <FpDensityMorgan3>  (15) 
2.75

>  <BCUT2D_MWHI>  (15) 
16.28414

>  <BCUT2D_MWLOW>  (15) 
9.519664

>  <BCUT2D_CHGHI>  (15) 
2.543759

>  <BCUT2D_CHGLO>  (15) 
-2.578943

>  <BCUT2D_LOGPHI>  (15) 
2.560149

>  <BCUT2D_LOGPLOW>  (15) 
-2.585697

>  <BCUT2D_MRHI>  (15) 
6.055105

>  <BCUT2D_MRLOW>  (15) 
-0.129051

>  <AvgIpc>  (15) 
2.972484

>  <BalabanJ>  (15) 
1.542905

>  <BertzCT>  (15) 
813.533134

>  <Chi0>  (15) 
16.474327

>  <Chi0n>  (15) 
13.457012

>  <Chi0v>  (15) 
13.457012

>  <Chi1>  (15) 
11.522588

>  <Chi1n>  (15) 
8.771311

>  <Chi1v>  (15) 
8.771311

>  <Chi2n>  (15) 
8.015502

>  <Chi2v>  (15) 
8.015502

>  <Chi3n>  (15) 
6.403899

>  <Chi3v>  (15) 
6.403899

>  <Chi4n>  (15) 
5.733944

>  <Chi4v>  (15) 
5.733944

>  <HallKierAlpha>  (15) 
-2.08

>  <Ipc>  (15) 
538810.249461

>  <Kappa1>  (15) 
14.278873

>  <Kappa2>  (15) 
4.723869

>  <Kappa3>  (15) 
1.98604

>  <LabuteASA>  (15) 
139.384255

>  <PEOE_VSA1>  (15) 
21.140962

>  <PEOE_VSA10>  (15) 
5.647177

>  <PEOE_VSA11>  (15) 
0.0

>  <PEOE_VSA12>  (15) 
0.0

>  <PEOE_VSA13>  (15) 
5.90718

>  <PEOE_VSA14>  (15) 
0.0

>  <PEOE_VSA2>  (15) 
4.794537

>  <PEOE_VSA3>  (15) 
4.983979

>  <PEOE_VSA4>  (15) 
0.0

>  <PEOE_VSA5>  (15) 
0.0

>  <PEOE_VSA6>  (15) 
0.0

>  <PEOE_VSA7>  (15) 
55.924193

>  <PEOE_VSA8>  (15) 
23.821752

>  <PEOE_VSA9>  (15) 
16.851889

>  <SMR_VSA1>  (15) 
9.901065

>  <SMR_VSA10>  (15) 
22.627967

>  <SMR_VSA2>  (15) 
0.0

>  <SMR_VSA3>  (15) 
9.967957

>  <SMR_VSA4>  (15) 
23.487386

>  <SMR_VSA5>  (15) 
43.747

>  <SMR_VSA6>  (15) 
5.316789

>  <SMR_VSA7>  (15) 
24.023506

>  <SMR_VSA8>  (15) 
0.0

>  <SMR_VSA9>  (15) 
0.0

>  <SlogP_VSA1>  (15) 
11.050456

>  <SlogP_VSA10>  (15) 
5.687386

>  <SlogP_VSA11>  (15) 
0.0

>  <SlogP_VSA12>  (15) 
0.0

>  <SlogP_VSA2>  (15) 
32.624556

>  <SlogP_VSA3>  (15) 
0.0

>  <SlogP_VSA4>  (15) 
17.753718

>  <SlogP_VSA5>  (15) 
42.462097

>  <SlogP_VSA6>  (15) 
18.460054

>  <SlogP_VSA7>  (15) 
0.0

>  <SlogP_VSA8>  (15) 
11.033401

>  <SlogP_VSA9>  (15) 
0.0

>  <EState_VSA1>  (15) 
11.508231

>  <EState_VSA10>  (15) 
9.901065

>  <EState_VSA11>  (15) 
0.0

>  <EState_VSA2>  (15) 
0.0

>  <EState_VSA3>  (15) 
29.35901

>  <EState_VSA4>  (15) 
35.983253

>  <EState_VSA5>  (15) 
12.841643

>  <EState_VSA6>  (15) 
6.196844

>  <EState_VSA7>  (15) 
12.263211

>  <EState_VSA8>  (15) 
15.284746

>  <EState_VSA9>  (15) 
5.733667

>  <VSA_EState1>  (15) 
0.0

>  <VSA_EState10>  (15) 
0.0

>  <VSA_EState2>  (15) 
19.250497

>  <VSA_EState3>  (15) 
15.301019

>  <VSA_EState4>  (15) 
7.104807

>  <VSA_EState5>  (15) 
1.120084

>  <VSA_EState6>  (15) 
2.22333

>  <VSA_EState7>  (15) 
8.41693

>  <VSA_EState8>  (15) 
0.0

>  <VSA_EState9>  (15) 
0.0

>  <FractionCSP3>  (15) 
0.555556

>  <HeavyAtomCount>  (15) 
24

>  <NHOHCount>  (15) 
5

>  <NOCount>  (15) 
6

>  <NumAliphaticCarbocycles>  (15) 
4

>  <NumAliphaticHeterocycles>  (15) 
0

>  <NumAliphaticRings>  (15) 
4

>  <NumAromaticCarbocycles>  (15) 
0

>  <NumAromaticHeterocycles>  (15) 
2

>  <NumAromaticRings>  (15) 
2

>  <NumHAcceptors>  (15) 
4

>  <NumHDonors>  (15) 
4

>  <NumHeteroatoms>  (15) 
6

>  <NumRotatableBonds>  (15) 
3

>  <NumSaturatedCarbocycles>  (15) 
4

>  <NumSaturatedHeterocycles>  (15) 
0

>  <NumSaturatedRings>  (15) 
4

>  <RingCount>  (15) 
6

>  <MolLogP>  (15) 
2.0133

>  <MolMR>  (15) 
90.5271

>  <fr_Al_COO>  (15) 
0

>  <fr_Al_OH>  (15) 
1

>  <fr_Al_OH_noTert>  (15) 
0

>  <fr_ArN>  (15) 
0

>  <fr_Ar_COO>  (15) 
0

>  <fr_Ar_N>  (15) 
2

>  <fr_Ar_NH>  (15) 
1

>  <fr_Ar_OH>  (15) 
0

>  <fr_COO>  (15) 
0

>  <fr_COO2>  (15) 
0

>  <fr_C_O>  (15) 
1

>  <fr_C_O_noCOO>  (15) 
1

>  <fr_C_S>  (15) 
0

>  <fr_HOCCN>  (15) 
0

>  <fr_Imine>  (15) 
0

>  <fr_NH0>  (15) 
1

>  <fr_NH1>  (15) 
2

>  <fr_NH2>  (15) 
1

>  <fr_N_O>  (15) 
0

>  <fr_Ndealkylation1>  (15) 
0

>  <fr_Ndealkylation2>  (15) 
0

>  <fr_Nhpyrrole>  (15) 
1

>  <fr_SH>  (15) 
0

>  <fr_aldehyde>  (15) 
0

>  <fr_alkyl_carbamate>  (15) 
0

>  <fr_alkyl_halide>  (15) 
0

>  <fr_allylic_oxid>  (15) 
0

>  <fr_amide>  (15) 
1

>  <fr_amidine>  (15) 
0

>  <fr_aniline>  (15) 
1

>  <fr_aryl_methyl>  (15) 
0

>  <fr_azide>  (15) 
0

>  <fr_azo>  (15) 
0

>  <fr_barbitur>  (15) 
0

>  <fr_benzene>  (15) 
0

>  <fr_benzodiazepine>  (15) 
0

>  <fr_bicyclic>  (15) 
1

>  <fr_diazo>  (15) 
0

>  <fr_dihydropyridine>  (15) 
0

>  <fr_epoxide>  (15) 
0

>  <fr_ester>  (15) 
0

>  <fr_ether>  (15) 
0

>  <fr_furan>  (15) 
0

>  <fr_guanido>  (15) 
0

>  <fr_halogen>  (15) 
0

>  <fr_hdrzine>  (15) 
0

>  <fr_hdrzone>  (15) 
0

>  <fr_imidazole>  (15) 
0

>  <fr_imide>  (15) 
0

>  <fr_isocyan>  (15) 
0

>  <fr_isothiocyan>  (15) 
0

>  <fr_ketone>  (15) 
0

>  <fr_ketone_Topliss>  (15) 
0

>  <fr_lactam>  (15) 
0

>  <fr_lactone>  (15) 
0

>  <fr_methoxy>  (15) 
0

>  <fr_morpholine>  (15) 
0

>  <fr_nitrile>  (15) 
0

>  <fr_nitro>  (15) 
0

>  <fr_nitro_arom>  (15) 
0

>  <fr_nitro_arom_nonortho>  (15) 
0

>  <fr_nitroso>  (15) 
0

>  <fr_oxazole>  (15) 
0

>  <fr_oxime>  (15) 
0

>  <fr_para_hydroxylation>  (15) 
0

>  <fr_phenol>  (15) 
0

>  <fr_phenol_noOrthoHbond>  (15) 
0

>  <fr_phos_acid>  (15) 
0

>  <fr_phos_ester>  (15) 
0

>  <fr_piperdine>  (15) 
0

>  <fr_piperzine>  (15) 
0

>  <fr_priamide>  (15) 
1

>  <fr_prisulfonamd>  (15) 
0

>  <fr_pyridine>  (15) 
1

>  <fr_quatN>  (15) 
0

>  <fr_sulfide>  (15) 
0

>  <fr_sulfonamd>  (15) 
0

>  <fr_sulfone>  (15) 
0

>  <fr_term_acetylene>  (15) 
0

>  <fr_tetrazole>  (15) 
0

>  <fr_thiazole>  (15) 
0

>  <fr_thiocyan>  (15) 
0

>  <fr_thiophene>  (15) 
0

>  <fr_unbrch_alkane>  (15) 
0

>  <fr_urea>  (15) 
0

>  <NP_Likeness>  (15) 
-0.262853

$$$$
nan
     RDKit          3D

  0  0  0  0  0  0  0  0  0  0999 V3000
M  V30 BEGIN CTAB
M  V30 COUNTS 49 52 0 0 0
M  V30 BEGIN ATOM
M  V30 1 O 2.133112 -0.712202 2.218742 0
M  V30 2 C 1.433672 -0.134727 1.319544 0
M  V30 3 N 2.033936 1.028304 0.821007 0
M  V30 4 C 3.295534 1.520573 1.268208 0
M  V30 5 C 3.562847 2.401330 2.300173 0
M  V30 6 C 4.876639 2.743677 2.560179 0
M  V30 7 C 5.911849 2.221202 1.808738 0
M  V30 8 O 7.211651 2.600900 2.115456 0
M  V30 9 C 7.796551 3.752260 1.485653 0
M  V30 10 F 6.962474 4.816137 1.853032 0
M  V30 11 F 7.764019 3.697271 0.129360 0
M  V30 12 Cl 9.381406 4.109282 2.172086 0
M  V30 13 C 5.654526 1.336986 0.771417 0
M  V30 14 C 4.337481 1.001499 0.520095 0
M  V30 15 C 0.125068 -0.636774 0.849171 0
M  V30 16 C -0.627432 -0.011849 -0.123556 0
M  V30 17 N -1.808444 -0.578506 -0.461167 0
M  V30 18 C -2.222975 -1.727394 0.150416 0
M  V30 19 N -3.458627 -2.077206 -0.461225 0
M  V30 20 C -4.171629 -3.010670 -1.360192 0
M  V30 21 C -4.750431 -2.102060 -2.440615 0
M  V30 22 C -5.205230 -0.936547 -1.576695 0 CFG=1
M  V30 23 O -6.590009 -0.856845 -1.465611 0
M  V30 24 C -4.659761 -1.260816 -0.197335 0
M  V30 25 C -1.513513 -2.382692 1.120498 0
M  V30 26 C -2.053233 -3.550652 1.728166 0
M  V30 27 C -1.231560 -4.267581 2.606920 0
M  V30 28 C -1.859019 -5.386051 3.112735 0
M  V30 29 N -3.092197 -5.350350 2.529009 0
M  V30 30 N -3.140436 -4.293042 1.760683 0
M  V30 31 C -0.313459 -1.794195 1.452553 0
M  V30 32 H 1.565241 1.595647 0.080357 0
M  V30 33 H 2.679902 2.742346 2.814790 0
M  V30 34 H 5.001070 3.439825 3.385914 0
M  V30 35 H 6.504454 0.957332 0.214020 0
M  V30 36 H 4.246843 0.297676 -0.318901 0
M  V30 37 H -0.229104 0.905454 -0.567581 0
M  V30 38 H -4.984902 -3.514672 -0.843168 0
M  V30 39 H -3.513282 -3.723715 -1.848263 0
M  V30 40 H -5.634429 -2.570438 -2.903779 0
M  V30 41 H -3.997370 -1.742811 -3.154114 0
M  V30 42 H -4.829202 0.031916 -1.906204 0
M  V30 43 H -6.806432 0.077183 -1.199199 0
M  V30 44 H -5.337070 -1.870597 0.405586 0
M  V30 45 H -4.445253 -0.331064 0.327546 0
M  V30 46 H -0.205364 -4.096212 2.950256 0
M  V30 47 H -1.527439 -6.147863 3.801006 0
M  V30 48 H -3.964722 -4.043234 1.225486 0
M  V30 49 H 0.287150 -2.273490 2.214401 0
M  V30 END ATOM
M  V30 BEGIN BOND
M  V30 1 2 1 2
M  V30 2 1 2 3
M  V30 3 1 3 4
M  V30 4 2 4 5
M  V30 5 1 5 6
M  V30 6 2 6 7
M  V30 7 1 7 8
M  V30 8 1 8 9
M  V30 9 1 9 10
M  V30 10 1 9 11
M  V30 11 1 9 12
M  V30 12 1 7 13
M  V30 13 2 13 14
M  V30 14 1 2 15
M  V30 15 2 15 16
M  V30 16 1 16 17
M  V30 17 2 17 18
M  V30 18 1 18 19
M  V30 19 1 19 20
M  V30 20 1 20 21
M  V30 21 1 21 22
M  V30 22 1 22 23
M  V30 23 1 22 24
M  V30 24 1 18 25
M  V30 25 1 25 26
M  V30 26 2 26 27
M  V30 27 1 27 28
M  V30 28 2 28 29
M  V30 29 1 29 30
M  V30 30 2 25 31
M  V30 31 1 14 4
M  V30 32 1 31 15
M  V30 33 1 24 19
M  V30 34 1 30 26
M  V30 35 1 3 32
M  V30 36 1 5 33
M  V30 37 1 6 34
M  V30 38 1 13 35
M  V30 39 1 14 36
M  V30 40 1 16 37
M  V30 41 1 20 38
M  V30 42 1 20 39
M  V30 43 1 21 40
M  V30 44 1 21 41
M  V30 45 1 22 42 CFG=3
M  V30 46 1 23 43
M  V30 47 1 24 44
M  V30 48 1 24 45
M  V30 49 1 27 46
M  V30 50 1 28 47
M  V30 51 1 30 48
M  V30 52 1 31 49
M  V30 END BOND
M  V30 END CTAB
M  END
>  <Dataset>  (16) 
PKIs

>  <Ligand_Instance>  (16) 
nan

>  <PDB_ID>  (16) 
nan

>  <Standardized_SMILES>  (16) 
O=C(Nc1ccc(OC(F)(F)Cl)cc1)c1cnc(N2CC[C@@H](O)C2)c(-c2ccn[nH]2)c1

>  <Name>  (16) 
Asciminib

>  <Pocket>  (16) 
nan

>  <ATP_Site>  (16) 
nan

>  <Peripheral>  (16) 
nan

>  <Num_H_Atoms_ProtBoundConf>  (16) 
nan

>  <Num_Resolved_Atoms>  (16) 
nan

>  <Num_Not_Resolved_Atoms>  (16) 
nan

>  <2D_Mol_H>  (16) 
<rdkit.Chem.rdchem.Mol object at 0x72a239112180>

>  <MW>  (16) 
449.845

>  <HBA>  (16) 
6

>  <HBD>  (16) 
3

>  <LogP>  (16) 
3.4629

>  <NRB>  (16) 
7

>  <TPSA>  (16) 
103.37

>  <Num_Heavy_Atoms>  (16) 
31

>  <Ro5>  (16) 
[True, True, True, True, True, True]

>  <Ro5_Fulfilled>  (16) 
True

>  <Ro3>  (16) 
[False, False, True, False]

>  <Ro3_Fulfilled>  (16) 
False

>  <Fsp3>  (16) 
0.25

>  <Fsp3_0.42>  (16) 
False

>  <Fsp3_0.45>  (16) 
False

>  <Stereogenic_Carbons>  (16) 
1

>  <C_Atoms>  (16) 
20

>  <FCStereo>  (16) 
0.05

>  <SPS>  (16) 
508

>  <nSPS>  (16) 
16.387097

>  <PBF>  (16) 
0.697587

>  <PBF_0.6>  (16) 
True

>  <nPBF>  (16) 
0.022503

>  <nPBF_0.016>  (16) 
True

>  <PMI1>  (16) 
1550.379404

>  <PMI2>  (16) 
13844.28894

>  <PMI3>  (16) 
14967.185703

>  <NPR1>  (16) 
0.103585

>  <NPR2>  (16) 
0.924976

>  <Sum_NPR>  (16) 
1.028561

>  <Sum_NPR_1.07>  (16) 
False

>  <Sum_NPR_1.2>  (16) 
False

>  <MaxAbsEStateIndex>  (16) 
12.731353

>  <MaxEStateIndex>  (16) 
12.731353

>  <MinAbsEStateIndex>  (16) 
0.140416

>  <MinEStateIndex>  (16) 
-3.812858

>  <qed>  (16) 
0.497867

>  <MolWt>  (16) 
449.845

>  <HeavyAtomMolWt>  (16) 
431.701

>  <ExactMolWt>  (16) 
449.106624

>  <NumValenceElectrons>  (16) 
162

>  <NumRadicalElectrons>  (16) 
0

>  <MaxPartialCharge>  (16) 
0.486939

>  <MinPartialCharge>  (16) 
-0.41999

>  <MaxAbsPartialCharge>  (16) 
0.486939

>  <MinAbsPartialCharge>  (16) 
0.41999

>  <FpDensityMorgan1>  (16) 
1.322581

>  <FpDensityMorgan2>  (16) 
2.096774

>  <FpDensityMorgan3>  (16) 
2.709677

>  <BCUT2D_MWHI>  (16) 
35.495912

>  <BCUT2D_MWLOW>  (16) 
10.097561

>  <BCUT2D_CHGHI>  (16) 
2.274919

>  <BCUT2D_CHGLO>  (16) 
-2.199784

>  <BCUT2D_LOGPHI>  (16) 
2.310416

>  <BCUT2D_LOGPLOW>  (16) 
-2.232829

>  <BCUT2D_MRHI>  (16) 
6.204012

>  <BCUT2D_MRLOW>  (16) 
-0.096428

>  <AvgIpc>  (16) 
3.396316

>  <BalabanJ>  (16) 
1.54995

>  <BertzCT>  (16) 
1057.677309

>  <Chi0>  (16) 
22.009861

>  <Chi0n>  (16) 
16.056717

>  <Chi0v>  (16) 
16.812646

>  <Chi1>  (16) 
14.781808

>  <Chi1n>  (16) 
9.383089

>  <Chi1v>  (16) 
9.761054

>  <Chi2n>  (16) 
6.980295

>  <Chi2v>  (16) 
7.420312

>  <Chi3n>  (16) 
4.728436

>  <Chi3v>  (16) 
4.805587

>  <Chi4n>  (16) 
3.315209

>  <Chi4v>  (16) 
3.404296

>  <HallKierAlpha>  (16) 
-3.24

>  <Ipc>  (16) 
12202624.308565

>  <Kappa1>  (16) 
21.00966

>  <Kappa2>  (16) 
8.480194

>  <Kappa3>  (16) 
5.092167

>  <LabuteASA>  (16) 
180.359657

>  <PEOE_VSA1>  (16) 
20.060089

>  <PEOE_VSA10>  (16) 
11.567375

>  <PEOE_VSA11>  (16) 
0.0

>  <PEOE_VSA12>  (16) 
0.0

>  <PEOE_VSA13>  (16) 
5.90718

>  <PEOE_VSA14>  (16) 
5.567771

>  <PEOE_VSA2>  (16) 
9.893219

>  <PEOE_VSA3>  (16) 
4.983979

>  <PEOE_VSA4>  (16) 
5.098682

>  <PEOE_VSA5>  (16) 
8.78083

>  <PEOE_VSA6>  (16) 
0.0

>  <PEOE_VSA7>  (16) 
42.819024

>  <PEOE_VSA8>  (16) 
48.334978

>  <PEOE_VSA9>  (16) 
17.361346

>  <SMR_VSA1>  (16) 
23.418758

>  <SMR_VSA10>  (16) 
29.013369

>  <SMR_VSA2>  (16) 
0.0

>  <SMR_VSA3>  (16) 
15.181342

>  <SMR_VSA4>  (16) 
0.0

>  <SMR_VSA5>  (16) 
18.092559

>  <SMR_VSA6>  (16) 
23.306211

>  <SMR_VSA7>  (16) 
54.355341

>  <SMR_VSA8>  (16) 
0.0

>  <SMR_VSA9>  (16) 
17.006891

>  <SlogP_VSA1>  (16) 
14.953561

>  <SlogP_VSA10>  (16) 
20.286079

>  <SlogP_VSA11>  (16) 
5.749512

>  <SlogP_VSA12>  (16) 
11.60094

>  <SlogP_VSA2>  (16) 
50.9563

>  <SlogP_VSA3>  (16) 
0.0

>  <SlogP_VSA4>  (16) 
0.0

>  <SlogP_VSA5>  (16) 
16.77881

>  <SlogP_VSA6>  (16) 
48.79189

>  <SlogP_VSA7>  (16) 
0.0

>  <SlogP_VSA8>  (16) 
11.257379

>  <SlogP_VSA9>  (16) 
0.0

>  <EState_VSA1>  (16) 
17.578917

>  <EState_VSA10>  (16) 
18.681895

>  <EState_VSA11>  (16) 
0.0

>  <EState_VSA2>  (16) 
5.749512

>  <EState_VSA3>  (16) 
47.836414

>  <EState_VSA4>  (16) 
0.0

>  <EState_VSA5>  (16) 
30.462312

>  <EState_VSA6>  (16) 
18.329578

>  <EState_VSA7>  (16) 
4.89991

>  <EState_VSA8>  (16) 
25.234994

>  <EState_VSA9>  (16) 
11.60094

>  <VSA_EState1>  (16) 
29.655572

>  <VSA_EState10>  (16) 
4.740159

>  <VSA_EState2>  (16) 
19.140019

>  <VSA_EState3>  (16) 
19.375596

>  <VSA_EState4>  (16) 
-1.784923

>  <VSA_EState5>  (16) 
0.066499

>  <VSA_EState6>  (16) 
8.809103

>  <VSA_EState7>  (16) 
3.255851

>  <VSA_EState8>  (16) 
1.103236

>  <VSA_EState9>  (16) 
0.0

>  <FractionCSP3>  (16) 
0.25

>  <HeavyAtomCount>  (16) 
31

>  <NHOHCount>  (16) 
3

>  <NOCount>  (16) 
8

>  <NumAliphaticCarbocycles>  (16) 
0

>  <NumAliphaticHeterocycles>  (16) 
1

>  <NumAliphaticRings>  (16) 
1

>  <NumAromaticCarbocycles>  (16) 
1

>  <NumAromaticHeterocycles>  (16) 
2

>  <NumAromaticRings>  (16) 
3

>  <NumHAcceptors>  (16) 
6

>  <NumHDonors>  (16) 
3

>  <NumHeteroatoms>  (16) 
11

>  <NumRotatableBonds>  (16) 
6

>  <NumSaturatedCarbocycles>  (16) 
0

>  <NumSaturatedHeterocycles>  (16) 
1

>  <NumSaturatedRings>  (16) 
1

>  <RingCount>  (16) 
4

>  <MolLogP>  (16) 
3.4629

>  <MolMR>  (16) 
110.4787

>  <fr_Al_COO>  (16) 
0

>  <fr_Al_OH>  (16) 
1

>  <fr_Al_OH_noTert>  (16) 
1

>  <fr_ArN>  (16) 
0

>  <fr_Ar_COO>  (16) 
0

>  <fr_Ar_N>  (16) 
3

>  <fr_Ar_NH>  (16) 
1

>  <fr_Ar_OH>  (16) 
0

>  <fr_COO>  (16) 
0

>  <fr_COO2>  (16) 
0

>  <fr_C_O>  (16) 
1

>  <fr_C_O_noCOO>  (16) 
1

>  <fr_C_S>  (16) 
0

>  <fr_HOCCN>  (16) 
1

>  <fr_Imine>  (16) 
0

>  <fr_NH0>  (16) 
3

>  <fr_NH1>  (16) 
2

>  <fr_NH2>  (16) 
0

>  <fr_N_O>  (16) 
0

>  <fr_Ndealkylation1>  (16) 
0

>  <fr_Ndealkylation2>  (16) 
0

>  <fr_Nhpyrrole>  (16) 
1

>  <fr_SH>  (16) 
0

>  <fr_aldehyde>  (16) 
0

>  <fr_alkyl_carbamate>  (16) 
0

>  <fr_alkyl_halide>  (16) 
3

>  <fr_allylic_oxid>  (16) 
0

>  <fr_amide>  (16) 
1

>  <fr_amidine>  (16) 
0

>  <fr_aniline>  (16) 
2

>  <fr_aryl_methyl>  (16) 
0

>  <fr_azide>  (16) 
0

>  <fr_azo>  (16) 
0

>  <fr_barbitur>  (16) 
0

>  <fr_benzene>  (16) 
1

>  <fr_benzodiazepine>  (16) 
0

>  <fr_bicyclic>  (16) 
0

>  <fr_diazo>  (16) 
0

>  <fr_dihydropyridine>  (16) 
0

>  <fr_epoxide>  (16) 
0

>  <fr_ester>  (16) 
0

>  <fr_ether>  (16) 
1

>  <fr_furan>  (16) 
0

>  <fr_guanido>  (16) 
0

>  <fr_halogen>  (16) 
3

>  <fr_hdrzine>  (16) 
0

>  <fr_hdrzone>  (16) 
0

>  <fr_imidazole>  (16) 
0

>  <fr_imide>  (16) 
0

>  <fr_isocyan>  (16) 
0

>  <fr_isothiocyan>  (16) 
0

>  <fr_ketone>  (16) 
0

>  <fr_ketone_Topliss>  (16) 
0

>  <fr_lactam>  (16) 
0

>  <fr_lactone>  (16) 
0

>  <fr_methoxy>  (16) 
0

>  <fr_morpholine>  (16) 
0

>  <fr_nitrile>  (16) 
0

>  <fr_nitro>  (16) 
0

>  <fr_nitro_arom>  (16) 
0

>  <fr_nitro_arom_nonortho>  (16) 
0

>  <fr_nitroso>  (16) 
0

>  <fr_oxazole>  (16) 
0

>  <fr_oxime>  (16) 
0

>  <fr_para_hydroxylation>  (16) 
0

>  <fr_phenol>  (16) 
0

>  <fr_phenol_noOrthoHbond>  (16) 
0

>  <fr_phos_acid>  (16) 
0

>  <fr_phos_ester>  (16) 
0

>  <fr_piperdine>  (16) 
0

>  <fr_piperzine>  (16) 
0

>  <fr_priamide>  (16) 
0

>  <fr_prisulfonamd>  (16) 
0

>  <fr_pyridine>  (16) 
1

>  <fr_quatN>  (16) 
0

>  <fr_sulfide>  (16) 
0

>  <fr_sulfonamd>  (16) 
0

>  <fr_sulfone>  (16) 
0

>  <fr_term_acetylene>  (16) 
0

>  <fr_tetrazole>  (16) 
0

>  <fr_thiazole>  (16) 
0

>  <fr_thiocyan>  (16) 
0

>  <fr_thiophene>  (16) 
0

>  <fr_unbrch_alkane>  (16) 
0

>  <fr_urea>  (16) 
0

>  <NP_Likeness>  (16) 
-1.654934

$$$$
nan
     RDKit          3D

  0  0  0  0  0  0  0  0  0  0999 V3000
M  V30 BEGIN CTAB
M  V30 COUNTS 69 72 0 0 0
M  V30 BEGIN ATOM
M  V30 1 C 4.513155 -2.101170 6.013813 0
M  V30 2 C 3.802157 -2.322389 4.723731 0
M  V30 3 N 3.741195 -1.175581 3.851962 0
M  V30 4 C 2.899988 -0.135035 4.397834 0
M  V30 5 C 3.301455 1.228924 3.872136 0
M  V30 6 N 3.883885 1.124358 2.545984 0
M  V30 7 C 3.314664 1.555208 1.304433 0
M  V30 8 C 4.038980 1.607735 0.132788 0
M  V30 9 C 3.421432 2.025022 -1.025903 0
M  V30 10 C 2.098934 2.405289 -1.108294 0
M  V30 11 N 1.476636 2.843374 -2.310765 0
M  V30 12 C 0.076301 3.090866 -2.338196 0
M  V30 13 C -0.653948 1.999131 -2.769958 0
M  V30 14 C -2.044990 2.065545 -2.854117 0
M  V30 15 N -2.772891 0.912356 -3.317359 0
M  V30 16 C -2.975869 0.939724 -4.751867 0
M  V30 17 C -3.312704 -0.224212 -2.626663 0
M  V30 18 O -3.932329 -1.151229 -3.226285 0
M  V30 19 N -3.229422 -0.458853 -1.225886 0
M  V30 20 C -3.901067 -1.713411 -0.989766 0
M  V30 21 C -2.980363 -2.752294 -1.104119 0
M  V30 22 Cl -1.267415 -2.589262 -1.476118 0
M  V30 23 C -3.390087 -4.070598 -0.919665 0
M  V30 24 O -2.535918 -5.154301 -1.018871 0
M  V30 25 C -2.926074 -6.494108 -0.835008 0
M  V30 26 C -4.709821 -4.357183 -0.622590 0
M  V30 27 C -5.585585 -3.299107 -0.519088 0
M  V30 28 O -6.938189 -3.473263 -0.224374 0
M  V30 29 C -7.482263 -4.751121 -0.012496 0
M  V30 30 C -5.217399 -1.989275 -0.694284 0
M  V30 31 Cl -6.207913 -0.569265 -0.594251 0
M  V30 32 N -2.651692 3.232275 -2.499041 0
M  V30 33 C -1.924737 4.278639 -2.083544 0
M  V30 34 N -0.584903 4.210623 -2.004138 0
M  V30 35 C 1.392686 2.344872 0.077703 0
M  V30 36 C 1.986003 1.930425 1.253051 0
M  V30 37 C 5.154503 0.491336 2.682882 0
M  V30 38 C 5.066542 -0.715068 3.539497 0
M  V30 39 H 3.909330 -2.540014 6.833179 0
M  V30 40 H 4.681361 -1.037798 6.278079 0
M  V30 41 H 5.480649 -2.682739 6.050761 0
M  V30 42 H 2.764689 -2.633744 4.914504 0
M  V30 43 H 4.284087 -3.200262 4.217868 0
M  V30 44 H 3.044700 -0.121716 5.494595 0
M  V30 45 H 1.851064 -0.390752 4.199972 0
M  V30 46 H 3.970301 1.773710 4.567642 0
M  V30 47 H 2.379673 1.829037 3.779002 0
M  V30 48 H 5.070230 1.335988 0.089141 0
M  V30 49 H 4.005308 2.060633 -1.939666 0
M  V30 50 H 2.086906 2.970914 -3.159503 0
M  V30 51 H -0.212597 1.051536 -3.061793 0
M  V30 52 H -3.843916 0.321909 -5.056557 0
M  V30 53 H -2.045397 0.486811 -5.190307 0
M  V30 54 H -3.012357 1.962014 -5.176251 0
M  V30 55 H -2.740111 0.251652 -0.646821 0
M  V30 56 H -2.058808 -7.122002 -1.156179 0
M  V30 57 H -3.833941 -6.729132 -1.410892 0
M  V30 58 H -3.099963 -6.666862 0.241097 0
M  V30 59 H -5.097145 -5.356953 -0.466223 0
M  V30 60 H -8.585612 -4.672694 -0.125537 0
M  V30 61 H -7.182637 -5.172004 0.975078 0
M  V30 62 H -7.145723 -5.500137 -0.765008 0
M  V30 63 H -2.404753 5.212463 -1.799699 0
M  V30 64 H 0.350874 2.647288 0.004931 0
M  V30 65 H 1.313179 1.936556 2.080389 0
M  V30 66 H 5.824927 1.248038 3.188688 0
M  V30 67 H 5.657378 0.300471 1.704899 0
M  V30 68 H 5.707601 -0.590963 4.430512 0
M  V30 69 H 5.546602 -1.566000 2.965255 0
M  V30 END ATOM
M  V30 BEGIN BOND
M  V30 1 1 1 2
M  V30 2 1 2 3
M  V30 3 1 3 4
M  V30 4 1 4 5
M  V30 5 1 5 6
M  V30 6 1 6 7
M  V30 7 2 7 8
M  V30 8 1 8 9
M  V30 9 2 9 10
M  V30 10 1 10 11
M  V30 11 1 11 12
M  V30 12 2 12 13
M  V30 13 1 13 14
M  V30 14 1 14 15
M  V30 15 1 15 16
M  V30 16 1 15 17
M  V30 17 2 17 18
M  V30 18 1 17 19
M  V30 19 1 19 20
M  V30 20 2 20 21
M  V30 21 1 21 22
M  V30 22 1 21 23
M  V30 23 1 23 24
M  V30 24 1 24 25
M  V30 25 2 23 26
M  V30 26 1 26 27
M  V30 27 1 27 28
M  V30 28 1 28 29
M  V30 29 2 27 30
M  V30 30 1 30 31
M  V30 31 2 14 32
M  V30 32 1 32 33
M  V30 33 2 33 34
M  V30 34 1 10 35
M  V30 35 2 35 36
M  V30 36 1 6 37
M  V30 37 1 37 38
M  V30 38 1 38 3
M  V30 39 1 36 7
M  V30 40 1 34 12
M  V30 41 1 30 20
M  V30 42 1 1 39
M  V30 43 1 1 40
M  V30 44 1 1 41
M  V30 45 1 2 42
M  V30 46 1 2 43
M  V30 47 1 4 44
M  V30 48 1 4 45
M  V30 49 1 5 46
M  V30 50 1 5 47
M  V30 51 1 8 48
M  V30 52 1 9 49
M  V30 53 1 11 50
M  V30 54 1 13 51
M  V30 55 1 16 52
M  V30 56 1 16 53
M  V30 57 1 16 54
M  V30 58 1 19 55
M  V30 59 1 25 56
M  V30 60 1 25 57
M  V30 61 1 25 58
M  V30 62 1 26 59
M  V30 63 1 29 60
M  V30 64 1 29 61
M  V30 65 1 29 62
M  V30 66 1 33 63
M  V30 67 1 35 64
M  V30 68 1 36 65
M  V30 69 1 37 66
M  V30 70 1 37 67
M  V30 71 1 38 68
M  V30 72 1 38 69
M  V30 END BOND
M  V30 END CTAB
M  END
>  <Dataset>  (17) 
PKIs

>  <Ligand_Instance>  (17) 
nan

>  <PDB_ID>  (17) 
nan

>  <Standardized_SMILES>  (17) 
CCN1CCN(c2ccc(Nc3cc(N(C)C(=O)Nc4c(Cl)c(OC)cc(OC)c4Cl)ncn3)cc2)CC1

>  <Name>  (17) 
Infigratinib

>  <Pocket>  (17) 
nan

>  <ATP_Site>  (17) 
nan

>  <Peripheral>  (17) 
nan

>  <Num_H_Atoms_ProtBoundConf>  (17) 
nan

>  <Num_Resolved_Atoms>  (17) 
nan

>  <Num_Not_Resolved_Atoms>  (17) 
nan

>  <2D_Mol_H>  (17) 
<rdkit.Chem.rdchem.Mol object at 0x72a239112260>

>  <MW>  (17) 
560.486

>  <HBA>  (17) 
8

>  <HBD>  (17) 
2

>  <LogP>  (17) 
5.3544

>  <NRB>  (17) 
12

>  <TPSA>  (17) 
95.09

>  <Num_Heavy_Atoms>  (17) 
38

>  <Ro5>  (17) 
[False, True, True, False, False, True]

>  <Ro5_Fulfilled>  (17) 
False

>  <Ro3>  (17) 
[False, False, True, False]

>  <Ro3_Fulfilled>  (17) 
False

>  <Fsp3>  (17) 
0.346154

>  <Fsp3_0.42>  (17) 
False

>  <Fsp3_0.45>  (17) 
False

>  <Stereogenic_Carbons>  (17) 
0

>  <C_Atoms>  (17) 
26

>  <FCStereo>  (17) 
0.0

>  <SPS>  (17) 
520

>  <nSPS>  (17) 
13.684211

>  <PBF>  (17) 
1.177553

>  <PBF_0.6>  (17) 
True

>  <nPBF>  (17) 
0.030988

>  <nPBF_0.016>  (17) 
True

>  <PMI1>  (17) 
5346.205028

>  <PMI2>  (17) 
10884.470294

>  <PMI3>  (17) 
14426.642887

>  <NPR1>  (17) 
0.370579

>  <NPR2>  (17) 
0.75447

>  <Sum_NPR>  (17) 
1.125049

>  <Sum_NPR_1.07>  (17) 
True

>  <Sum_NPR_1.2>  (17) 
False

>  <MaxAbsEStateIndex>  (17) 
13.040975

>  <MaxEStateIndex>  (17) 
13.040975

>  <MinAbsEStateIndex>  (17) 
0.153503

>  <MinEStateIndex>  (17) 
-0.512704

>  <qed>  (17) 
0.380779

>  <MolWt>  (17) 
560.486

>  <HeavyAtomMolWt>  (17) 
529.238

>  <ExactMolWt>  (17) 
559.186543

>  <NumValenceElectrons>  (17) 
202

>  <NumRadicalElectrons>  (17) 
0

>  <MaxPartialCharge>  (17) 
0.326827

>  <MinPartialCharge>  (17) 
-0.494969

>  <MaxAbsPartialCharge>  (17) 
0.494969

>  <MinAbsPartialCharge>  (17) 
0.326827

>  <FpDensityMorgan1>  (17) 
1.0

>  <FpDensityMorgan2>  (17) 
1.631579

>  <FpDensityMorgan3>  (17) 
2.210526

>  <BCUT2D_MWHI>  (17) 
35.496838

>  <BCUT2D_MWLOW>  (17) 
10.195799

>  <BCUT2D_CHGHI>  (17) 
2.217198

>  <BCUT2D_CHGLO>  (17) 
-2.351266

>  <BCUT2D_LOGPHI>  (17) 
2.438021

>  <BCUT2D_LOGPLOW>  (17) 
-2.456747

>  <BCUT2D_MRHI>  (17) 
6.413791

>  <BCUT2D_MRLOW>  (17) 
0.257605

>  <AvgIpc>  (17) 
2.952669

>  <BalabanJ>  (17) 
1.435083

>  <BertzCT>  (17) 
1240.191745

>  <Chi0>  (17) 
27.233476

>  <Chi0n>  (17) 
21.793728

>  <Chi0v>  (17) 
23.305585

>  <Chi1>  (17) 
18.337269

>  <Chi1n>  (17) 
12.152792

>  <Chi1v>  (17) 
12.908721

>  <Chi2n>  (17) 
8.627851

>  <Chi2v>  (17) 
9.38378

>  <Chi3n>  (17) 
6.430884

>  <Chi3v>  (17) 
7.18137

>  <Chi4n>  (17) 
4.114768

>  <Chi4v>  (17) 
4.71002

>  <HallKierAlpha>  (17) 
-3.47

>  <Ipc>  (17) 
324592936.312338

>  <Kappa1>  (17) 
27.561735

>  <Kappa2>  (17) 
12.382467

>  <Kappa3>  (17) 
6.147473

>  <LabuteASA>  (17) 
232.002848

>  <PEOE_VSA1>  (17) 
29.907123

>  <PEOE_VSA10>  (17) 
39.507336

>  <PEOE_VSA11>  (17) 
0.0

>  <PEOE_VSA12>  (17) 
0.0

>  <PEOE_VSA13>  (17) 
0.0

>  <PEOE_VSA14>  (17) 
6.031115

>  <PEOE_VSA2>  (17) 
4.89991

>  <PEOE_VSA3>  (17) 
14.762494

>  <PEOE_VSA4>  (17) 
0.0

>  <PEOE_VSA5>  (17) 
0.0

>  <PEOE_VSA6>  (17) 
30.125617

>  <PEOE_VSA7>  (17) 
30.810225

>  <PEOE_VSA8>  (17) 
56.734204

>  <PEOE_VSA9>  (17) 
19.906981

>  <SMR_VSA1>  (17) 
14.268263

>  <SMR_VSA10>  (17) 
57.930879

>  <SMR_VSA2>  (17) 
0.0

>  <SMR_VSA3>  (17) 
14.867867

>  <SMR_VSA4>  (17) 
0.0

>  <SMR_VSA5>  (17) 
6.923737

>  <SMR_VSA6>  (17) 
74.424446

>  <SMR_VSA7>  (17) 
52.770789

>  <SMR_VSA8>  (17) 
0.0

>  <SMR_VSA9>  (17) 
11.499024

>  <SlogP_VSA1>  (17) 
29.907123

>  <SlogP_VSA10>  (17) 
33.492422

>  <SlogP_VSA11>  (17) 
11.499024

>  <SlogP_VSA12>  (17) 
23.20188

>  <SlogP_VSA2>  (17) 
74.89003

>  <SlogP_VSA3>  (17) 
0.0

>  <SlogP_VSA4>  (17) 
0.0

>  <SlogP_VSA5>  (17) 
6.923737

>  <SlogP_VSA6>  (17) 
42.725522

>  <SlogP_VSA7>  (17) 
10.045267

>  <SlogP_VSA8>  (17) 
0.0

>  <SlogP_VSA9>  (17) 
0.0

>  <EState_VSA1>  (17) 
6.031115

>  <EState_VSA10>  (17) 
4.794537

>  <EState_VSA11>  (17) 
0.0

>  <EState_VSA2>  (17) 
15.732653

>  <EState_VSA3>  (17) 
23.134749

>  <EState_VSA4>  (17) 
38.411168

>  <EState_VSA5>  (17) 
31.134211

>  <EState_VSA6>  (17) 
19.180406

>  <EState_VSA7>  (17) 
12.132734

>  <EState_VSA8>  (17) 
49.457825

>  <EState_VSA9>  (17) 
32.675606

>  <VSA_EState1>  (17) 
10.527709

>  <VSA_EState10>  (17) 
12.776271

>  <VSA_EState2>  (17) 
27.732519

>  <VSA_EState3>  (17) 
6.291752

>  <VSA_EState4>  (17) 
2.238243

>  <VSA_EState5>  (17) 
1.53505

>  <VSA_EState6>  (17) 
10.932725

>  <VSA_EState7>  (17) 
1.386468

>  <VSA_EState8>  (17) 
7.46881

>  <VSA_EState9>  (17) 
4.499342

>  <FractionCSP3>  (17) 
0.346154

>  <HeavyAtomCount>  (17) 
38

>  <NHOHCount>  (17) 
2

>  <NOCount>  (17) 
10

>  <NumAliphaticCarbocycles>  (17) 
0

>  <NumAliphaticHeterocycles>  (17) 
1

>  <NumAliphaticRings>  (17) 
1

>  <NumAromaticCarbocycles>  (17) 
2

>  <NumAromaticHeterocycles>  (17) 
1

>  <NumAromaticRings>  (17) 
3

>  <NumHAcceptors>  (17) 
8

>  <NumHDonors>  (17) 
2

>  <NumHeteroatoms>  (17) 
12

>  <NumRotatableBonds>  (17) 
8

>  <NumSaturatedCarbocycles>  (17) 
0

>  <NumSaturatedHeterocycles>  (17) 
1

>  <NumSaturatedRings>  (17) 
1

>  <RingCount>  (17) 
4

>  <MolLogP>  (17) 
5.3544

>  <MolMR>  (17) 
153.0714

>  <fr_Al_COO>  (17) 
0

>  <fr_Al_OH>  (17) 
0

>  <fr_Al_OH_noTert>  (17) 
0

>  <fr_ArN>  (17) 
0

>  <fr_Ar_COO>  (17) 
0

>  <fr_Ar_N>  (17) 
2

>  <fr_Ar_NH>  (17) 
0

>  <fr_Ar_OH>  (17) 
0

>  <fr_COO>  (17) 
0

>  <fr_COO2>  (17) 
0

>  <fr_C_O>  (17) 
1

>  <fr_C_O_noCOO>  (17) 
1

>  <fr_C_S>  (17) 
0

>  <fr_HOCCN>  (17) 
0

>  <fr_Imine>  (17) 
0

>  <fr_NH0>  (17) 
5

>  <fr_NH1>  (17) 
2

>  <fr_NH2>  (17) 
0

>  <fr_N_O>  (17) 
0

>  <fr_Ndealkylation1>  (17) 
1

>  <fr_Ndealkylation2>  (17) 
0

>  <fr_Nhpyrrole>  (17) 
0

>  <fr_SH>  (17) 
0

>  <fr_aldehyde>  (17) 
0

>  <fr_alkyl_carbamate>  (17) 
0

>  <fr_alkyl_halide>  (17) 
0

>  <fr_allylic_oxid>  (17) 
0

>  <fr_amide>  (17) 
2

>  <fr_amidine>  (17) 
0

>  <fr_aniline>  (17) 
5

>  <fr_aryl_methyl>  (17) 
0

>  <fr_azide>  (17) 
0

>  <fr_azo>  (17) 
0

>  <fr_barbitur>  (17) 
0

>  <fr_benzene>  (17) 
2

>  <fr_benzodiazepine>  (17) 
0

>  <fr_bicyclic>  (17) 
0

>  <fr_diazo>  (17) 
0

>  <fr_dihydropyridine>  (17) 
0

>  <fr_epoxide>  (17) 
0

>  <fr_ester>  (17) 
0

>  <fr_ether>  (17) 
2

>  <fr_furan>  (17) 
0

>  <fr_guanido>  (17) 
0

>  <fr_halogen>  (17) 
2

>  <fr_hdrzine>  (17) 
0

>  <fr_hdrzone>  (17) 
0

>  <fr_imidazole>  (17) 
0

>  <fr_imide>  (17) 
0

>  <fr_isocyan>  (17) 
0

>  <fr_isothiocyan>  (17) 
0

>  <fr_ketone>  (17) 
0

>  <fr_ketone_Topliss>  (17) 
0

>  <fr_lactam>  (17) 
0

>  <fr_lactone>  (17) 
0

>  <fr_methoxy>  (17) 
2

>  <fr_morpholine>  (17) 
0

>  <fr_nitrile>  (17) 
0

>  <fr_nitro>  (17) 
0

>  <fr_nitro_arom>  (17) 
0

>  <fr_nitro_arom_nonortho>  (17) 
0

>  <fr_nitroso>  (17) 
0

>  <fr_oxazole>  (17) 
0

>  <fr_oxime>  (17) 
0

>  <fr_para_hydroxylation>  (17) 
0

>  <fr_phenol>  (17) 
0

>  <fr_phenol_noOrthoHbond>  (17) 
0

>  <fr_phos_acid>  (17) 
0

>  <fr_phos_ester>  (17) 
0

>  <fr_piperdine>  (17) 
0

>  <fr_piperzine>  (17) 
1

>  <fr_priamide>  (17) 
0

>  <fr_prisulfonamd>  (17) 
0

>  <fr_pyridine>  (17) 
0

>  <fr_quatN>  (17) 
0

>  <fr_sulfide>  (17) 
0

>  <fr_sulfonamd>  (17) 
0

>  <fr_sulfone>  (17) 
0

>  <fr_term_acetylene>  (17) 
0

>  <fr_tetrazole>  (17) 
0

>  <fr_thiazole>  (17) 
0

>  <fr_thiocyan>  (17) 
0

>  <fr_thiophene>  (17) 
0

>  <fr_unbrch_alkane>  (17) 
0

>  <fr_urea>  (17) 
1

>  <NP_Likeness>  (17) 
-1.263025

$$$$
nan
     RDKit          3D

  0  0  0  0  0  0  0  0  0  0999 V3000
M  V30 BEGIN CTAB
M  V30 COUNTS 41 45 0 0 0
M  V30 BEGIN ATOM
M  V30 1 C 2.201132 -2.388733 0.243352 0
M  V30 2 C 1.522612 -1.084901 -0.011387 0 CFG=1
M  V30 3 C 2.163727 -0.367187 -1.170465 0
M  V30 4 C 2.674807 -1.226113 -2.144680 0
M  V30 5 C 3.300713 -0.725431 -3.283293 0
M  V30 6 C 3.378204 0.657391 -3.377910 0
M  V30 7 N 3.915778 1.433417 -4.343691 0
M  V30 8 C 3.759602 2.731992 -4.009631 0
M  V30 9 C 3.093712 2.745044 -2.779129 0
M  V30 10 N 2.876428 1.465383 -2.422669 0
M  V30 11 C 2.263927 1.006315 -1.307359 0
M  V30 12 N 0.124519 -1.257755 -0.356753 0
M  V30 13 N -0.334162 -1.437372 -1.584066 0
M  V30 14 N -1.654422 -1.565119 -1.588560 0
M  V30 15 C -2.051432 -1.461898 -0.306167 0
M  V30 16 N -3.256443 -1.512794 0.285215 0
M  V30 17 C -3.376277 -1.375117 1.637757 0
M  V30 18 C -2.261831 -1.180589 2.427324 0
M  V30 19 C -2.425603 -1.037237 3.869725 0
M  V30 20 C -3.609292 -1.073261 4.577254 0
M  V30 21 N -3.295832 -0.899475 5.878701 0
M  V30 22 N -1.979334 -0.755488 6.033786 0
M  V30 23 C -1.272793 -0.548901 7.289188 0
M  V30 24 C -1.424845 -0.838279 4.798928 0
M  V30 25 N -1.041569 -1.129039 1.828555 0
M  V30 26 C -0.924463 -1.266099 0.483991 0
M  V30 27 H 1.680110 -3.168905 -0.335486 0
M  V30 28 H 3.293819 -2.337313 -0.013806 0
M  V30 29 H 2.134865 -2.617064 1.333565 0
M  V30 30 H 1.612219 -0.368063 0.834947 0
M  V30 31 H 2.630288 -2.302299 -2.100199 0
M  V30 32 H 3.710088 -1.359570 -4.061761 0
M  V30 33 H 4.090723 3.602427 -4.590741 0
M  V30 34 H 2.801164 3.632988 -2.207557 0
M  V30 35 H 1.850446 1.592911 -0.522989 0
M  V30 36 H -4.375541 -1.422213 2.083831 0
M  V30 37 H -4.578501 -1.217197 4.119270 0
M  V30 38 H -1.927178 -0.825108 8.132529 0
M  V30 39 H -0.284740 -1.016877 7.282017 0
M  V30 40 H -1.084031 0.561090 7.344939 0
M  V30 41 H -0.367760 -0.759612 4.588507 0
M  V30 END ATOM
M  V30 BEGIN BOND
M  V30 1 1 1 2
M  V30 2 1 2 3
M  V30 3 1 3 4
M  V30 4 2 4 5
M  V30 5 1 5 6
M  V30 6 2 6 7
M  V30 7 1 7 8
M  V30 8 2 8 9
M  V30 9 1 9 10
M  V30 10 1 10 11
M  V30 11 1 2 12
M  V30 12 1 12 13
M  V30 13 2 13 14
M  V30 14 1 14 15
M  V30 15 2 15 16
M  V30 16 1 16 17
M  V30 17 2 17 18
M  V30 18 1 18 19
M  V30 19 1 19 20
M  V30 20 2 20 21
M  V30 21 1 21 22
M  V30 22 1 22 23
M  V30 23 1 22 24
M  V30 24 1 18 25
M  V30 25 2 25 26
M  V30 26 2 11 3
M  V30 27 1 26 12
M  V30 28 1 10 6
M  V30 29 1 26 15
M  V30 30 2 24 19
M  V30 31 1 1 27
M  V30 32 1 1 28
M  V30 33 1 1 29
M  V30 34 1 2 30 CFG=1
M  V30 35 1 4 31
M  V30 36 1 5 32
M  V30 37 1 8 33
M  V30 38 1 9 34
M  V30 39 1 11 35
M  V30 40 1 17 36
M  V30 41 1 20 37
M  V30 42 1 23 38
M  V30 43 1 23 39
M  V30 44 1 23 40
M  V30 45 1 24 41
M  V30 END BOND
M  V30 END CTAB
M  END
>  <Dataset>  (18) 
PKIs

>  <Ligand_Instance>  (18) 
nan

>  <PDB_ID>  (18) 
nan

>  <Standardized_SMILES>  (18) 
C[C@@H](c1ccc2nccn2c1)n1nnc2ncc(-c3cnn(C)c3)nc21

>  <Name>  (18) 
Savolitinib

>  <Pocket>  (18) 
nan

>  <ATP_Site>  (18) 
nan

>  <Peripheral>  (18) 
nan

>  <Num_H_Atoms_ProtBoundConf>  (18) 
nan

>  <Num_Resolved_Atoms>  (18) 
nan

>  <Num_Not_Resolved_Atoms>  (18) 
nan

>  <2D_Mol_H>  (18) 
<rdkit.Chem.rdchem.Mol object at 0x72a239112340>

>  <MW>  (18) 
345.37

>  <HBA>  (18) 
9

>  <HBD>  (18) 
0

>  <LogP>  (18) 
1.8788

>  <NRB>  (18) 
5

>  <TPSA>  (18) 
91.61

>  <Num_Heavy_Atoms>  (18) 
26

>  <Ro5>  (18) 
[True, True, True, True, True, True]

>  <Ro5_Fulfilled>  (18) 
True

>  <Ro3>  (18) 
[False, False, True, True]

>  <Ro3_Fulfilled>  (18) 
False

>  <Fsp3>  (18) 
0.176471

>  <Fsp3_0.42>  (18) 
False

>  <Fsp3_0.45>  (18) 
False

>  <Stereogenic_Carbons>  (18) 
1

>  <C_Atoms>  (18) 
17

>  <FCStereo>  (18) 
0.058824

>  <SPS>  (18) 
334

>  <nSPS>  (18) 
12.846154

>  <PBF>  (18) 
1.076658

>  <PBF_0.6>  (18) 
True

>  <nPBF>  (18) 
0.04141

>  <nPBF_0.016>  (18) 
True

>  <PMI1>  (18) 
1093.234006

>  <PMI2>  (18) 
5833.261999

>  <PMI3>  (18) 
6272.12597

>  <NPR1>  (18) 
0.1743

>  <NPR2>  (18) 
0.930029

>  <Sum_NPR>  (18) 
1.10433

>  <Sum_NPR_1.07>  (18) 
True

>  <Sum_NPR_1.2>  (18) 
False

>  <MaxAbsEStateIndex>  (18) 
4.720639

>  <MaxEStateIndex>  (18) 
4.720639

>  <MinAbsEStateIndex>  (18) 
0.050696

>  <MinEStateIndex>  (18) 
-0.050696

>  <qed>  (18) 
0.495686

>  <MolWt>  (18) 
345.37

>  <HeavyAtomMolWt>  (18) 
330.25

>  <ExactMolWt>  (18) 
345.145041

>  <NumValenceElectrons>  (18) 
128

>  <NumRadicalElectrons>  (18) 
0

>  <MaxPartialCharge>  (18) 
0.220649

>  <MinPartialCharge>  (18) 
-0.306763

>  <MaxAbsPartialCharge>  (18) 
0.306763

>  <MinAbsPartialCharge>  (18) 
0.220649

>  <FpDensityMorgan1>  (18) 
1.076923

>  <FpDensityMorgan2>  (18) 
2.0

>  <FpDensityMorgan3>  (18) 
2.846154

>  <BCUT2D_MWHI>  (18) 
15.461441

>  <BCUT2D_MWLOW>  (18) 
10.133148

>  <BCUT2D_CHGHI>  (18) 
2.168373

>  <BCUT2D_CHGLO>  (18) 
-2.124968

>  <BCUT2D_LOGPHI>  (18) 
2.225908

>  <BCUT2D_LOGPLOW>  (18) 
-2.100872

>  <BCUT2D_MRHI>  (18) 
5.693332

>  <BCUT2D_MRLOW>  (18) 
0.55395

>  <AvgIpc>  (18) 
3.384581

>  <BalabanJ>  (18) 
1.6071

>  <BertzCT>  (18) 
1229.478485

>  <Chi0>  (18) 
17.672998

>  <Chi0n>  (18) 
14.221075

>  <Chi0v>  (18) 
14.221075

>  <Chi1>  (18) 
12.686673

>  <Chi1n>  (18) 
8.184596

>  <Chi1v>  (18) 
8.184596

>  <Chi2n>  (18) 
6.170265

>  <Chi2v>  (18) 
6.170265

>  <Chi3n>  (18) 
4.449811

>  <Chi3v>  (18) 
4.449811

>  <Chi4n>  (18) 
3.009122

>  <Chi4v>  (18) 
3.009122

>  <HallKierAlpha>  (18) 
-3.62

>  <Ipc>  (18) 
2255728.738845

>  <Kappa1>  (18) 
14.70029

>  <Kappa2>  (18) 
5.446073

>  <Kappa3>  (18) 
2.245864

>  <LabuteASA>  (18) 
147.501755

>  <PEOE_VSA1>  (18) 
4.400695

>  <PEOE_VSA10>  (18) 
5.647177

>  <PEOE_VSA11>  (18) 
5.647177

>  <PEOE_VSA12>  (18) 
5.647177

>  <PEOE_VSA13>  (18) 
0.0

>  <PEOE_VSA14>  (18) 
0.0

>  <PEOE_VSA2>  (18) 
4.681803

>  <PEOE_VSA3>  (18) 
19.633738

>  <PEOE_VSA4>  (18) 
5.098682

>  <PEOE_VSA5>  (18) 
5.098682

>  <PEOE_VSA6>  (18) 
11.279752

>  <PEOE_VSA7>  (18) 
18.553556

>  <PEOE_VSA8>  (18) 
37.398498

>  <PEOE_VSA9>  (18) 
24.129456

>  <SMR_VSA1>  (18) 
0.0

>  <SMR_VSA10>  (18) 
16.941532

>  <SMR_VSA2>  (18) 
0.0

>  <SMR_VSA3>  (18) 
44.126985

>  <SMR_VSA4>  (18) 
7.047672

>  <SMR_VSA5>  (18) 
12.965578

>  <SMR_VSA6>  (18) 
0.0

>  <SMR_VSA7>  (18) 
54.877247

>  <SMR_VSA8>  (18) 
0.0

>  <SMR_VSA9>  (18) 
11.257379

>  <SlogP_VSA1>  (18) 
0.0

>  <SlogP_VSA10>  (18) 
0.0

>  <SlogP_VSA11>  (18) 
0.0

>  <SlogP_VSA12>  (18) 
0.0

>  <SlogP_VSA2>  (18) 
44.126985

>  <SlogP_VSA3>  (18) 
7.047672

>  <SlogP_VSA4>  (18) 
0.0

>  <SlogP_VSA5>  (18) 
18.52903

>  <SlogP_VSA6>  (18) 
49.313796

>  <SlogP_VSA7>  (18) 
0.0

>  <SlogP_VSA8>  (18) 
28.198911

>  <SlogP_VSA9>  (18) 
0.0

>  <EState_VSA1>  (18) 
0.0

>  <EState_VSA10>  (18) 
0.0

>  <EState_VSA11>  (18) 
0.0

>  <EState_VSA2>  (18) 
6.041841

>  <EState_VSA3>  (18) 
11.294354

>  <EState_VSA4>  (18) 
22.468008

>  <EState_VSA5>  (18) 
0.0

>  <EState_VSA6>  (18) 
27.954137

>  <EState_VSA7>  (18) 
42.171631

>  <EState_VSA8>  (18) 
32.302443

>  <EState_VSA9>  (18) 
4.983979

>  <VSA_EState1>  (18) 
5.511623

>  <VSA_EState10>  (18) 
0.0

>  <VSA_EState2>  (18) 
13.393574

>  <VSA_EState3>  (18) 
12.624055

>  <VSA_EState4>  (18) 
4.796542

>  <VSA_EState5>  (18) 
0.0

>  <VSA_EState6>  (18) 
3.973716

>  <VSA_EState7>  (18) 
11.103039

>  <VSA_EState8>  (18) 
2.06016

>  <VSA_EState9>  (18) 
1.870623

>  <FractionCSP3>  (18) 
0.176471

>  <HeavyAtomCount>  (18) 
26

>  <NHOHCount>  (18) 
0

>  <NOCount>  (18) 
9

>  <NumAliphaticCarbocycles>  (18) 
0

>  <NumAliphaticHeterocycles>  (18) 
0

>  <NumAliphaticRings>  (18) 
0

>  <NumAromaticCarbocycles>  (18) 
0

>  <NumAromaticHeterocycles>  (18) 
5

>  <NumAromaticRings>  (18) 
5

>  <NumHAcceptors>  (18) 
9

>  <NumHDonors>  (18) 
0

>  <NumHeteroatoms>  (18) 
9

>  <NumRotatableBonds>  (18) 
3

>  <NumSaturatedCarbocycles>  (18) 
0

>  <NumSaturatedHeterocycles>  (18) 
0

>  <NumSaturatedRings>  (18) 
0

>  <RingCount>  (18) 
5

>  <MolLogP>  (18) 
1.8788

>  <MolMR>  (18) 
94.325

>  <fr_Al_COO>  (18) 
0

>  <fr_Al_OH>  (18) 
0

>  <fr_Al_OH_noTert>  (18) 
0

>  <fr_ArN>  (18) 
0

>  <fr_Ar_COO>  (18) 
0

>  <fr_Ar_N>  (18) 
9

>  <fr_Ar_NH>  (18) 
0

>  <fr_Ar_OH>  (18) 
0

>  <fr_COO>  (18) 
0

>  <fr_COO2>  (18) 
0

>  <fr_C_O>  (18) 
0

>  <fr_C_O_noCOO>  (18) 
0

>  <fr_C_S>  (18) 
0

>  <fr_HOCCN>  (18) 
0

>  <fr_Imine>  (18) 
0

>  <fr_NH0>  (18) 
9

>  <fr_NH1>  (18) 
0

>  <fr_NH2>  (18) 
0

>  <fr_N_O>  (18) 
0

>  <fr_Ndealkylation1>  (18) 
0

>  <fr_Ndealkylation2>  (18) 
0

>  <fr_Nhpyrrole>  (18) 
0

>  <fr_SH>  (18) 
0

>  <fr_aldehyde>  (18) 
0

>  <fr_alkyl_carbamate>  (18) 
0

>  <fr_alkyl_halide>  (18) 
0

>  <fr_allylic_oxid>  (18) 
0

>  <fr_amide>  (18) 
0

>  <fr_amidine>  (18) 
0

>  <fr_aniline>  (18) 
0

>  <fr_aryl_methyl>  (18) 
1

>  <fr_azide>  (18) 
0

>  <fr_azo>  (18) 
0

>  <fr_barbitur>  (18) 
0

>  <fr_benzene>  (18) 
0

>  <fr_benzodiazepine>  (18) 
0

>  <fr_bicyclic>  (18) 
2

>  <fr_diazo>  (18) 
0

>  <fr_dihydropyridine>  (18) 
0

>  <fr_epoxide>  (18) 
0

>  <fr_ester>  (18) 
0

>  <fr_ether>  (18) 
0

>  <fr_furan>  (18) 
0

>  <fr_guanido>  (18) 
0

>  <fr_halogen>  (18) 
0

>  <fr_hdrzine>  (18) 
0

>  <fr_hdrzone>  (18) 
0

>  <fr_imidazole>  (18) 
1

>  <fr_imide>  (18) 
0

>  <fr_isocyan>  (18) 
0

>  <fr_isothiocyan>  (18) 
0

>  <fr_ketone>  (18) 
0

>  <fr_ketone_Topliss>  (18) 
0

>  <fr_lactam>  (18) 
0

>  <fr_lactone>  (18) 
0

>  <fr_methoxy>  (18) 
0

>  <fr_morpholine>  (18) 
0

>  <fr_nitrile>  (18) 
0

>  <fr_nitro>  (18) 
0

>  <fr_nitro_arom>  (18) 
0

>  <fr_nitro_arom_nonortho>  (18) 
0

>  <fr_nitroso>  (18) 
0

>  <fr_oxazole>  (18) 
0

>  <fr_oxime>  (18) 
0

>  <fr_para_hydroxylation>  (18) 
0

>  <fr_phenol>  (18) 
0

>  <fr_phenol_noOrthoHbond>  (18) 
0

>  <fr_phos_acid>  (18) 
0

>  <fr_phos_ester>  (18) 
0

>  <fr_piperdine>  (18) 
0

>  <fr_piperzine>  (18) 
0

>  <fr_priamide>  (18) 
0

>  <fr_prisulfonamd>  (18) 
0

>  <fr_pyridine>  (18) 
1

>  <fr_quatN>  (18) 
0

>  <fr_sulfide>  (18) 
0

>  <fr_sulfonamd>  (18) 
0

>  <fr_sulfone>  (18) 
0

>  <fr_term_acetylene>  (18) 
0

>  <fr_tetrazole>  (18) 
0

>  <fr_thiazole>  (18) 
0

>  <fr_thiocyan>  (18) 
0

>  <fr_thiophene>  (18) 
0

>  <fr_unbrch_alkane>  (18) 
0

>  <fr_urea>  (18) 
0

>  <NP_Likeness>  (18) 
-2.191454

$$$$
nan
     RDKit          3D

  0  0  0  0  0  0  0  0  0  0999 V3000
M  V30 BEGIN CTAB
M  V30 COUNTS 63 68 0 0 0
M  V30 BEGIN ATOM
M  V30 1 C 5.527329 2.686283 4.047084 0
M  V30 2 N 5.512243 1.479016 4.818511 0
M  V30 3 C 6.119601 0.363999 4.162453 0
M  V30 4 C 5.472903 0.033530 2.815301 0
M  V30 5 N 4.049546 0.123970 2.988847 0
M  V30 6 C 3.210780 0.271148 1.850896 0
M  V30 7 C 3.804056 0.264007 0.607810 0
M  V30 8 C 3.036105 0.406614 -0.530130 0
M  V30 9 C 1.655580 0.560612 -0.468896 0
M  V30 10 N 0.825614 0.714748 -1.635648 0
M  V30 11 C -0.593545 0.865906 -1.454700 0
M  V30 12 N -1.028555 2.149735 -1.285741 0
M  V30 13 C -2.350867 2.377005 -1.109850 0
M  V30 14 C -3.241564 1.299017 -1.104551 0
M  V30 15 C -4.627466 1.238145 -0.947484 0
M  V30 16 C -4.935332 -0.103898 -1.034726 0
M  V30 17 N -3.837834 -0.859304 -1.233407 0
M  V30 18 C -2.776107 -0.008689 -1.279384 0
M  V30 19 N -1.448685 -0.179720 -1.450633 0
M  V30 20 C -3.868291 -2.306287 -1.371211 0
M  V30 21 C -4.040455 -2.611139 -2.862572 0
M  V30 22 C -4.365973 -4.065027 -2.986565 0
M  V30 23 C -3.205985 -4.863982 -2.489800 0
M  V30 24 C -2.601872 -4.402319 -1.212052 0
M  V30 25 C -2.561668 -2.930726 -0.993954 0
M  V30 26 C -5.024271 -2.814641 -0.573426 0
M  V30 27 N -6.243011 -2.189349 -1.057354 0
M  V30 28 C -6.263910 -0.749859 -0.930368 0
M  V30 29 O -7.351823 -0.111749 -0.744374 0
M  V30 30 N 1.084203 0.565197 0.773660 0
M  V30 31 C 1.842401 0.425304 1.879190 0
M  V30 32 C 3.648854 0.045491 4.377401 0
M  V30 33 C 4.144092 1.207964 5.210409 0
M  V30 34 H 5.218667 3.514893 4.741558 0
M  V30 35 H 6.480621 2.862315 3.538105 0
M  V30 36 H 4.716547 2.660151 3.266049 0
M  V30 37 H 6.012347 -0.528247 4.807565 0
M  V30 38 H 7.200745 0.578615 4.029300 0
M  V30 39 H 5.720001 -1.031076 2.617308 0
M  V30 40 H 5.870871 0.718024 2.032704 0
M  V30 41 H 4.837557 0.156066 0.385443 0
M  V30 42 H 3.422312 0.411571 -1.535433 0
M  V30 43 H 1.326854 0.704889 -2.549763 0
M  V30 44 H -2.797962 3.364031 -0.966724 0
M  V30 45 H -5.314891 2.067715 -0.790498 0
M  V30 46 H -4.765833 -1.923553 -3.333582 0
M  V30 47 H -3.068269 -2.433150 -3.348814 0
M  V30 48 H -4.527106 -4.323014 -4.056519 0
M  V30 49 H -5.328190 -4.331714 -2.493105 0
M  V30 50 H -2.464210 -4.942961 -3.331686 0
M  V30 51 H -3.541808 -5.927958 -2.337723 0
M  V30 52 H -3.071708 -4.919153 -0.354391 0
M  V30 53 H -1.524485 -4.742707 -1.227940 0
M  V30 54 H -2.219855 -2.738590 0.025962 0
M  V30 55 H -1.802052 -2.527523 -1.721084 0
M  V30 56 H -4.824361 -2.510865 0.494928 0
M  V30 57 H -5.091595 -3.921052 -0.519276 0
M  V30 58 H -7.108055 -2.639996 -1.484830 0
M  V30 59 H 1.344171 0.435790 2.835764 0
M  V30 60 H 2.542275 0.102196 4.427862 0
M  V30 61 H 4.022536 -0.937246 4.749484 0
M  V30 62 H 4.042918 0.912257 6.278124 0
M  V30 63 H 3.470402 2.076722 5.066770 0
M  V30 END ATOM
M  V30 BEGIN BOND
M  V30 1 1 1 2
M  V30 2 1 2 3
M  V30 3 1 3 4
M  V30 4 1 4 5
M  V30 5 1 5 6
M  V30 6 2 6 7
M  V30 7 1 7 8
M  V30 8 2 8 9
M  V30 9 1 9 10
M  V30 10 1 10 11
M  V30 11 2 11 12
M  V30 12 1 12 13
M  V30 13 2 13 14
M  V30 14 1 14 15
M  V30 15 2 15 16
M  V30 16 1 16 17
M  V30 17 1 17 18
M  V30 18 2 18 19
M  V30 19 1 17 20
M  V30 20 1 20 21
M  V30 21 1 21 22
M  V30 22 1 22 23
M  V30 23 1 23 24
M  V30 24 1 24 25
M  V30 25 1 20 26
M  V30 26 1 26 27
M  V30 27 1 27 28
M  V30 28 2 28 29
M  V30 29 1 9 30
M  V30 30 2 30 31
M  V30 31 1 5 32
M  V30 32 1 32 33
M  V30 33 1 33 2
M  V30 34 1 31 6
M  V30 35 1 19 11
M  V30 36 1 25 20
M  V30 37 1 18 14
M  V30 38 1 28 16
M  V30 39 1 1 34
M  V30 40 1 1 35
M  V30 41 1 1 36
M  V30 42 1 3 37
M  V30 43 1 3 38
M  V30 44 1 4 39
M  V30 45 1 4 40
M  V30 46 1 7 41
M  V30 47 1 8 42
M  V30 48 1 10 43
M  V30 49 1 13 44
M  V30 50 1 15 45
M  V30 51 1 21 46
M  V30 52 1 21 47
M  V30 53 1 22 48
M  V30 54 1 22 49
M  V30 55 1 23 50
M  V30 56 1 23 51
M  V30 57 1 24 52
M  V30 58 1 24 53
M  V30 59 1 25 54
M  V30 60 1 25 55
M  V30 61 1 26 56
M  V30 62 1 26 57
M  V30 63 1 27 58
M  V30 64 1 31 59
M  V30 65 1 32 60
M  V30 66 1 32 61
M  V30 67 1 33 62
M  V30 68 1 33 63
M  V30 END BOND
M  V30 END CTAB
M  END
>  <Dataset>  (19) 
PKIs

>  <Ligand_Instance>  (19) 
nan

>  <PDB_ID>  (19) 
nan

>  <Standardized_SMILES>  (19) 
CN1CCN(c2ccc(Nc3ncc4cc5n(c4n3)C3(CCCCC3)CNC5=O)nc2)CC1

>  <Name>  (19) 
Trilaciclib

>  <Pocket>  (19) 
nan

>  <ATP_Site>  (19) 
nan

>  <Peripheral>  (19) 
nan

>  <Num_H_Atoms_ProtBoundConf>  (19) 
nan

>  <Num_Resolved_Atoms>  (19) 
nan

>  <Num_Not_Resolved_Atoms>  (19) 
nan

>  <2D_Mol_H>  (19) 
<rdkit.Chem.rdchem.Mol object at 0x72a239112420>

>  <MW>  (19) 
446.559

>  <HBA>  (19) 
8

>  <HBD>  (19) 
2

>  <LogP>  (19) 
2.7245

>  <NRB>  (19) 
4

>  <TPSA>  (19) 
91.21

>  <Num_Heavy_Atoms>  (19) 
33

>  <Ro5>  (19) 
[True, True, True, True, True, True]

>  <Ro5_Fulfilled>  (19) 
True

>  <Ro3>  (19) 
[False, False, True, True]

>  <Ro3_Fulfilled>  (19) 
False

>  <Fsp3>  (19) 
0.5

>  <Fsp3_0.42>  (19) 
True

>  <Fsp3_0.45>  (19) 
True

>  <Stereogenic_Carbons>  (19) 
0

>  <C_Atoms>  (19) 
24

>  <FCStereo>  (19) 
0.0

>  <SPS>  (19) 
681

>  <nSPS>  (19) 
20.636364

>  <PBF>  (19) 
1.181793

>  <PBF_0.6>  (19) 
True

>  <nPBF>  (19) 
0.035812

>  <nPBF_0.016>  (19) 
True

>  <PMI1>  (19) 
1908.180706

>  <PMI2>  (19) 
10252.575691

>  <PMI3>  (19) 
10737.623239

>  <NPR1>  (19) 
0.17771

>  <NPR2>  (19) 
0.954827

>  <Sum_NPR>  (19) 
1.132537

>  <Sum_NPR_1.07>  (19) 
True

>  <Sum_NPR_1.2>  (19) 
False

>  <MaxAbsEStateIndex>  (19) 
12.625069

>  <MaxEStateIndex>  (19) 
12.625069

>  <MinAbsEStateIndex>  (19) 
0.027899

>  <MinEStateIndex>  (19) 
-0.086035

>  <qed>  (19) 
0.639215

>  <MolWt>  (19) 
446.559

>  <HeavyAtomMolWt>  (19) 
416.319

>  <ExactMolWt>  (19) 
446.254258

>  <NumValenceElectrons>  (19) 
172

>  <NumRadicalElectrons>  (19) 
0

>  <MaxPartialCharge>  (19) 
0.267593

>  <MinPartialCharge>  (19) 
-0.367721

>  <MaxAbsPartialCharge>  (19) 
0.367721

>  <MinAbsPartialCharge>  (19) 
0.267593

>  <FpDensityMorgan1>  (19) 
1.030303

>  <FpDensityMorgan2>  (19) 
1.848485

>  <FpDensityMorgan3>  (19) 
2.606061

>  <BCUT2D_MWHI>  (19) 
16.150541

>  <BCUT2D_MWLOW>  (19) 
9.798672

>  <BCUT2D_CHGHI>  (19) 
2.411217

>  <BCUT2D_CHGLO>  (19) 
-2.424647

>  <BCUT2D_LOGPHI>  (19) 
2.399548

>  <BCUT2D_LOGPLOW>  (19) 
-2.520446

>  <BCUT2D_MRHI>  (19) 
5.98769

>  <BCUT2D_MRLOW>  (19) 
0.083334

>  <AvgIpc>  (19) 
3.241103

>  <BalabanJ>  (19) 
1.28592

>  <BertzCT>  (19) 
1173.142422

>  <Chi0>  (19) 
22.415638

>  <Chi0n>  (19) 
19.049349

>  <Chi0v>  (19) 
19.049349

>  <Chi1>  (19) 
16.110923

>  <Chi1n>  (19) 
11.951099

>  <Chi1v>  (19) 
11.951099

>  <Chi2n>  (19) 
9.622187

>  <Chi2v>  (19) 
9.622187

>  <Chi3n>  (19) 
7.466266

>  <Chi3v>  (19) 
7.466266

>  <Chi4n>  (19) 
5.547443

>  <Chi4v>  (19) 
5.547443

>  <HallKierAlpha>  (19) 
-3.2

>  <Ipc>  (19) 
71251167.18337

>  <Kappa1>  (19) 
20.409988

>  <Kappa2>  (19) 
7.983884

>  <Kappa3>  (19) 
3.600175

>  <LabuteASA>  (19) 
192.755906

>  <PEOE_VSA1>  (19) 
25.000496

>  <PEOE_VSA10>  (19) 
17.158968

>  <PEOE_VSA11>  (19) 
0.0

>  <PEOE_VSA12>  (19) 
5.948339

>  <PEOE_VSA13>  (19) 
5.90718

>  <PEOE_VSA14>  (19) 
0.0

>  <PEOE_VSA2>  (19) 
4.794537

>  <PEOE_VSA3>  (19) 
9.967957

>  <PEOE_VSA4>  (19) 
4.983979

>  <PEOE_VSA5>  (19) 
0.0

>  <PEOE_VSA6>  (19) 
19.262465

>  <PEOE_VSA7>  (19) 
38.088416

>  <PEOE_VSA8>  (19) 
44.30685

>  <PEOE_VSA9>  (19) 
17.423155

>  <SMR_VSA1>  (19) 
4.794537

>  <SMR_VSA10>  (19) 
34.394169

>  <SMR_VSA2>  (19) 
0.0

>  <SMR_VSA3>  (19) 
29.735734

>  <SMR_VSA4>  (19) 
0.0

>  <SMR_VSA5>  (19) 
37.643033

>  <SMR_VSA6>  (19) 
49.988152

>  <SMR_VSA7>  (19) 
36.286716

>  <SMR_VSA8>  (19) 
0.0

>  <SMR_VSA9>  (19) 
0.0

>  <SlogP_VSA1>  (19) 
15.533487

>  <SlogP_VSA10>  (19) 
17.453588

>  <SlogP_VSA11>  (19) 
0.0

>  <SlogP_VSA12>  (19) 
0.0

>  <SlogP_VSA2>  (19) 
70.097579

>  <SlogP_VSA3>  (19) 
5.538925

>  <SlogP_VSA4>  (19) 
0.0

>  <SlogP_VSA5>  (19) 
42.592573

>  <SlogP_VSA6>  (19) 
30.592788

>  <SlogP_VSA7>  (19) 
0.0

>  <SlogP_VSA8>  (19) 
11.033401

>  <SlogP_VSA9>  (19) 
0.0

>  <EState_VSA1>  (19) 
0.0

>  <EState_VSA10>  (19) 
4.794537

>  <EState_VSA11>  (19) 
0.0

>  <EState_VSA2>  (19) 
11.446105

>  <EState_VSA3>  (19) 
24.004886

>  <EState_VSA4>  (19) 
55.741457

>  <EState_VSA5>  (19) 
19.262465

>  <EState_VSA6>  (19) 
6.196844

>  <EState_VSA7>  (19) 
18.329578

>  <EState_VSA8>  (19) 
48.082492

>  <EState_VSA9>  (19) 
4.983979

>  <VSA_EState1>  (19) 
2.191555

>  <VSA_EState10>  (19) 
0.0

>  <VSA_EState2>  (19) 
31.285397

>  <VSA_EState3>  (19) 
7.266096

>  <VSA_EState4>  (19) 
2.569977

>  <VSA_EState5>  (19) 
1.183178

>  <VSA_EState6>  (19) 
5.997634

>  <VSA_EState7>  (19) 
9.439133

>  <VSA_EState8>  (19) 
4.826849

>  <VSA_EState9>  (19) 
2.156848

>  <FractionCSP3>  (19) 
0.5

>  <HeavyAtomCount>  (19) 
33

>  <NHOHCount>  (19) 
2

>  <NOCount>  (19) 
9

>  <NumAliphaticCarbocycles>  (19) 
1

>  <NumAliphaticHeterocycles>  (19) 
2

>  <NumAliphaticRings>  (19) 
3

>  <NumAromaticCarbocycles>  (19) 
0

>  <NumAromaticHeterocycles>  (19) 
3

>  <NumAromaticRings>  (19) 
3

>  <NumHAcceptors>  (19) 
8

>  <NumHDonors>  (19) 
2

>  <NumHeteroatoms>  (19) 
9

>  <NumRotatableBonds>  (19) 
3

>  <NumSaturatedCarbocycles>  (19) 
1

>  <NumSaturatedHeterocycles>  (19) 
1

>  <NumSaturatedRings>  (19) 
2

>  <RingCount>  (19) 
6

>  <MolLogP>  (19) 
2.7245

>  <MolMR>  (19) 
128.1499

>  <fr_Al_COO>  (19) 
0

>  <fr_Al_OH>  (19) 
0

>  <fr_Al_OH_noTert>  (19) 
0

>  <fr_ArN>  (19) 
0

>  <fr_Ar_COO>  (19) 
0

>  <fr_Ar_N>  (19) 
4

>  <fr_Ar_NH>  (19) 
0

>  <fr_Ar_OH>  (19) 
0

>  <fr_COO>  (19) 
0

>  <fr_COO2>  (19) 
0

>  <fr_C_O>  (19) 
1

>  <fr_C_O_noCOO>  (19) 
1

>  <fr_C_S>  (19) 
0

>  <fr_HOCCN>  (19) 
0

>  <fr_Imine>  (19) 
0

>  <fr_NH0>  (19) 
6

>  <fr_NH1>  (19) 
2

>  <fr_NH2>  (19) 
0

>  <fr_N_O>  (19) 
0

>  <fr_Ndealkylation1>  (19) 
1

>  <fr_Ndealkylation2>  (19) 
0

>  <fr_Nhpyrrole>  (19) 
0

>  <fr_SH>  (19) 
0

>  <fr_aldehyde>  (19) 
0

>  <fr_alkyl_carbamate>  (19) 
0

>  <fr_alkyl_halide>  (19) 
0

>  <fr_allylic_oxid>  (19) 
0

>  <fr_amide>  (19) 
1

>  <fr_amidine>  (19) 
0

>  <fr_aniline>  (19) 
3

>  <fr_aryl_methyl>  (19) 
0

>  <fr_azide>  (19) 
0

>  <fr_azo>  (19) 
0

>  <fr_barbitur>  (19) 
0

>  <fr_benzene>  (19) 
0

>  <fr_benzodiazepine>  (19) 
0

>  <fr_bicyclic>  (19) 
4

>  <fr_diazo>  (19) 
0

>  <fr_dihydropyridine>  (19) 
0

>  <fr_epoxide>  (19) 
0

>  <fr_ester>  (19) 
0

>  <fr_ether>  (19) 
0

>  <fr_furan>  (19) 
0

>  <fr_guanido>  (19) 
0

>  <fr_halogen>  (19) 
0

>  <fr_hdrzine>  (19) 
0

>  <fr_hdrzone>  (19) 
0

>  <fr_imidazole>  (19) 
0

>  <fr_imide>  (19) 
0

>  <fr_isocyan>  (19) 
0

>  <fr_isothiocyan>  (19) 
0

>  <fr_ketone>  (19) 
0

>  <fr_ketone_Topliss>  (19) 
0

>  <fr_lactam>  (19) 
0

>  <fr_lactone>  (19) 
0

>  <fr_methoxy>  (19) 
0

>  <fr_morpholine>  (19) 
0

>  <fr_nitrile>  (19) 
0

>  <fr_nitro>  (19) 
0

>  <fr_nitro_arom>  (19) 
0

>  <fr_nitro_arom_nonortho>  (19) 
0

>  <fr_nitroso>  (19) 
0

>  <fr_oxazole>  (19) 
0

>  <fr_oxime>  (19) 
0

>  <fr_para_hydroxylation>  (19) 
0

>  <fr_phenol>  (19) 
0

>  <fr_phenol_noOrthoHbond>  (19) 
0

>  <fr_phos_acid>  (19) 
0

>  <fr_phos_ester>  (19) 
0

>  <fr_piperdine>  (19) 
0

>  <fr_piperzine>  (19) 
1

>  <fr_priamide>  (19) 
0

>  <fr_prisulfonamd>  (19) 
0

>  <fr_pyridine>  (19) 
1

>  <fr_quatN>  (19) 
0

>  <fr_sulfide>  (19) 
0

>  <fr_sulfonamd>  (19) 
0

>  <fr_sulfone>  (19) 
0

>  <fr_term_acetylene>  (19) 
0

>  <fr_tetrazole>  (19) 
0

>  <fr_thiazole>  (19) 
0

>  <fr_thiocyan>  (19) 
0

>  <fr_thiophene>  (19) 
0

>  <fr_unbrch_alkane>  (19) 
0

>  <fr_urea>  (19) 
0

>  <NP_Likeness>  (19) 
-0.892433

$$$$
nan
     RDKit          3D

  0  0  0  0  0  0  0  0  0  0999 V3000
M  V30 BEGIN CTAB
M  V30 COUNTS 51 54 0 0 0
M  V30 BEGIN ATOM
M  V30 1 C 2.745067 -5.722151 4.242141 0
M  V30 2 O 2.149012 -4.991534 3.179244 0
M  V30 3 C 2.639399 -3.774522 2.757343 0
M  V30 4 C 3.745250 -3.181074 3.339658 0
M  V30 5 C 4.227578 -1.962882 2.909824 0
M  V30 6 N 5.299443 -1.341806 3.432650 0
M  V30 7 C 5.711915 -0.147461 2.947712 0
M  V30 8 C 5.025230 0.457582 1.893064 0
M  V30 9 C 3.910401 -0.175243 1.340423 0
M  V30 10 O 3.366948 0.567811 0.316976 0
M  V30 11 C 2.091188 1.104309 0.287059 0
M  V30 12 C 1.911896 1.731965 -0.954028 0
M  V30 13 C 0.707924 2.370622 -1.275909 0
M  V30 14 C -0.315015 2.381816 -0.358712 0
M  V30 15 N -1.597382 2.980281 -0.518254 0
M  V30 16 C -2.528800 2.082800 -1.075716 0
M  V30 17 O -2.174036 0.908845 -1.365792 0
M  V30 18 N -3.886114 2.414921 -1.344518 0
M  V30 19 C -4.836971 1.519688 -1.906539 0
M  V30 20 C -5.600003 0.725940 -1.075027 0
M  V30 21 C -6.447021 -0.056275 -1.833145 0
M  V30 22 C -7.480365 -1.082976 -1.526645 0
M  V30 23 O -6.178698 0.278586 -3.073596 0
M  V30 24 N -5.259640 1.180333 -3.151851 0
M  V30 25 C -0.137415 1.764120 0.861619 0
M  V30 26 Cl -1.362883 1.703332 2.126600 0
M  V30 27 C 1.042722 1.133251 1.188015 0
M  V30 28 C 3.536112 -1.382797 1.868111 0
M  V30 29 C 2.431552 -1.936188 1.257763 0
M  V30 30 C 1.962881 -3.159670 1.703832 0
M  V30 31 O 0.855365 -3.769463 1.131447 0
M  V30 32 C 0.229729 -3.076530 0.068575 0
M  V30 33 H 2.935844 -5.029033 5.104559 0
M  V30 34 H 3.656665 -6.228828 3.907726 0
M  V30 35 H 2.024569 -6.482705 4.625434 0
M  V30 36 H 4.251880 -3.674431 4.151890 0
M  V30 37 H 6.575789 0.223865 3.461386 0
M  V30 38 H 5.513734 1.403705 1.655010 0
M  V30 39 H 2.611757 1.816630 -1.788415 0
M  V30 40 H 0.494847 2.867562 -2.193015 0
M  V30 41 H -1.933033 3.955605 -0.288623 0
M  V30 42 H -4.162429 3.403613 -1.093982 0
M  V30 43 H -5.624526 0.637603 0.020119 0
M  V30 44 H -7.299584 -1.530990 -0.507702 0
M  V30 45 H -8.500784 -0.637856 -1.441176 0
M  V30 46 H -7.430521 -1.943063 -2.220738 0
M  V30 47 H 1.331861 0.612426 2.089451 0
M  V30 48 H 1.908756 -1.484919 0.450477 0
M  V30 49 H -0.724920 -3.556379 -0.244724 0
M  V30 50 H 0.899630 -2.959273 -0.810099 0
M  V30 51 H -0.067101 -2.065870 0.454759 0
M  V30 END ATOM
M  V30 BEGIN BOND
M  V30 1 1 1 2
M  V30 2 1 2 3
M  V30 3 2 3 4
M  V30 4 1 4 5
M  V30 5 2 5 6
M  V30 6 1 6 7
M  V30 7 2 7 8
M  V30 8 1 8 9
M  V30 9 1 9 10
M  V30 10 1 10 11
M  V30 11 2 11 12
M  V30 12 1 12 13
M  V30 13 2 13 14
M  V30 14 1 14 15
M  V30 15 1 15 16
M  V30 16 2 16 17
M  V30 17 1 16 18
M  V30 18 1 18 19
M  V30 19 1 19 20
M  V30 20 2 20 21
M  V30 21 1 21 22
M  V30 22 1 21 23
M  V30 23 1 23 24
M  V30 24 1 14 25
M  V30 25 1 25 26
M  V30 26 2 25 27
M  V30 27 2 9 28
M  V30 28 1 28 29
M  V30 29 2 29 30
M  V30 30 1 30 31
M  V30 31 1 31 32
M  V30 32 1 30 3
M  V30 33 1 28 5
M  V30 34 1 27 11
M  V30 35 2 24 19
M  V30 36 1 1 33
M  V30 37 1 1 34
M  V30 38 1 1 35
M  V30 39 1 4 36
M  V30 40 1 7 37
M  V30 41 1 8 38
M  V30 42 1 12 39
M  V30 43 1 13 40
M  V30 44 1 15 41
M  V30 45 1 18 42
M  V30 46 1 20 43
M  V30 47 1 22 44
M  V30 48 1 22 45
M  V30 49 1 22 46
M  V30 50 1 27 47
M  V30 51 1 29 48
M  V30 52 1 32 49
M  V30 53 1 32 50
M  V30 54 1 32 51
M  V30 END BOND
M  V30 END CTAB
M  END
>  <Dataset>  (20) 
PKIs

>  <Ligand_Instance>  (20) 
nan

>  <PDB_ID>  (20) 
nan

>  <Standardized_SMILES>  (20) 
COc1cc2nccc(Oc3ccc(NC(=O)Nc4cc(C)on4)c(Cl)c3)c2cc1OC

>  <Name>  (20) 
Tivozanib

>  <Pocket>  (20) 
nan

>  <ATP_Site>  (20) 
nan

>  <Peripheral>  (20) 
nan

>  <Num_H_Atoms_ProtBoundConf>  (20) 
nan

>  <Num_Resolved_Atoms>  (20) 
nan

>  <Num_Not_Resolved_Atoms>  (20) 
nan

>  <2D_Mol_H>  (20) 
<rdkit.Chem.rdchem.Mol object at 0x72a239112500>

>  <MW>  (20) 
454.87

>  <HBA>  (20) 
7

>  <HBD>  (20) 
2

>  <LogP>  (20) 
5.63812

>  <NRB>  (20) 
9

>  <TPSA>  (20) 
107.74

>  <Num_Heavy_Atoms>  (20) 
32

>  <Ro5>  (20) 
[True, True, True, False, True, True]

>  <Ro5_Fulfilled>  (20) 
True

>  <Ro3>  (20) 
[False, False, True, False]

>  <Ro3_Fulfilled>  (20) 
False

>  <Fsp3>  (20) 
0.136364

>  <Fsp3_0.42>  (20) 
False

>  <Fsp3_0.45>  (20) 
False

>  <Stereogenic_Carbons>  (20) 
0

>  <C_Atoms>  (20) 
22

>  <FCStereo>  (20) 
0.0

>  <SPS>  (20) 
340

>  <nSPS>  (20) 
10.625

>  <PBF>  (20) 
0.798452

>  <PBF_0.6>  (20) 
True

>  <nPBF>  (20) 
0.024952

>  <nPBF_0.016>  (20) 
True

>  <PMI1>  (20) 
2462.435076

>  <PMI2>  (20) 
8473.7608

>  <PMI3>  (20) 
10066.068052

>  <NPR1>  (20) 
0.244627

>  <NPR2>  (20) 
0.841814

>  <Sum_NPR>  (20) 
1.086442

>  <Sum_NPR_1.07>  (20) 
True

>  <Sum_NPR_1.2>  (20) 
False

>  <MaxAbsEStateIndex>  (20) 
12.155594

>  <MaxEStateIndex>  (20) 
12.155594

>  <MinAbsEStateIndex>  (20) 
0.297773

>  <MinEStateIndex>  (20) 
-0.504594

>  <qed>  (20) 
0.38787

>  <MolWt>  (20) 
454.87

>  <HeavyAtomMolWt>  (20) 
435.718

>  <ExactMolWt>  (20) 
454.104397

>  <NumValenceElectrons>  (20) 
164

>  <NumRadicalElectrons>  (20) 
0

>  <MaxPartialCharge>  (20) 
0.324484

>  <MinPartialCharge>  (20) 
-0.492842

>  <MaxAbsPartialCharge>  (20) 
0.492842

>  <MinAbsPartialCharge>  (20) 
0.324484

>  <FpDensityMorgan1>  (20) 
1.0

>  <FpDensityMorgan2>  (20) 
1.78125

>  <FpDensityMorgan3>  (20) 
2.46875

>  <BCUT2D_MWHI>  (20) 
35.495692

>  <BCUT2D_MWLOW>  (20) 
10.15082

>  <BCUT2D_CHGHI>  (20) 
2.130614

>  <BCUT2D_CHGLO>  (20) 
-2.131479

>  <BCUT2D_LOGPHI>  (20) 
2.374438

>  <BCUT2D_LOGPLOW>  (20) 
-2.192845

>  <BCUT2D_MRHI>  (20) 
6.335414

>  <BCUT2D_MRLOW>  (20) 
0.261586

>  <AvgIpc>  (20) 
3.187624

>  <BalabanJ>  (20) 
1.532237

>  <BertzCT>  (20) 
1290.797841

>  <Chi0>  (20) 
22.664561

>  <Chi0n>  (20) 
17.432435

>  <Chi0v>  (20) 
18.188364

>  <Chi1>  (20) 
15.46106

>  <Chi1n>  (20) 
9.460304

>  <Chi1v>  (20) 
9.838268

>  <Chi2n>  (20) 
6.67907

>  <Chi2v>  (20) 
7.08627

>  <Chi3n>  (20) 
4.492991

>  <Chi3v>  (20) 
4.8057

>  <Chi4n>  (20) 
3.019325

>  <Chi4v>  (20) 
3.237102

>  <HallKierAlpha>  (20) 
-3.98

>  <Ipc>  (20) 
20602822.876195

>  <Kappa1>  (20) 
21.259607

>  <Kappa2>  (20) 
9.025867

>  <Kappa3>  (20) 
4.521577

>  <LabuteASA>  (20) 
187.777154

>  <PEOE_VSA1>  (20) 
24.050472

>  <PEOE_VSA10>  (20) 
17.259271

>  <PEOE_VSA11>  (20) 
17.316886

>  <PEOE_VSA12>  (20) 
0.0

>  <PEOE_VSA13>  (20) 
0.0

>  <PEOE_VSA14>  (20) 
6.031115

>  <PEOE_VSA2>  (20) 
10.300767

>  <PEOE_VSA3>  (20) 
4.794537

>  <PEOE_VSA4>  (20) 
0.0

>  <PEOE_VSA5>  (20) 
0.0

>  <PEOE_VSA6>  (20) 
16.757603

>  <PEOE_VSA7>  (20) 
31.189205

>  <PEOE_VSA8>  (20) 
29.782169

>  <PEOE_VSA9>  (20) 
30.446315

>  <SMR_VSA1>  (20) 
23.528221

>  <SMR_VSA10>  (20) 
40.040228

>  <SMR_VSA2>  (20) 
0.0

>  <SMR_VSA3>  (20) 
10.140642

>  <SMR_VSA4>  (20) 
0.0

>  <SMR_VSA5>  (20) 
6.923737

>  <SMR_VSA6>  (20) 
24.853172

>  <SMR_VSA7>  (20) 
59.444294

>  <SMR_VSA8>  (20) 
0.0

>  <SMR_VSA9>  (20) 
22.998047

>  <SlogP_VSA1>  (20) 
24.844166

>  <SlogP_VSA10>  (20) 
16.299786

>  <SlogP_VSA11>  (20) 
22.998047

>  <SlogP_VSA12>  (20) 
11.60094

>  <SlogP_VSA2>  (20) 
30.391351

>  <SlogP_VSA3>  (20) 
0.0

>  <SlogP_VSA4>  (20) 
6.923737

>  <SlogP_VSA5>  (20) 
5.760247

>  <SlogP_VSA6>  (20) 
53.184508

>  <SlogP_VSA7>  (20) 
5.022633

>  <SlogP_VSA8>  (20) 
10.902925

>  <SlogP_VSA9>  (20) 
0.0

>  <EState_VSA1>  (20) 
6.031115

>  <EState_VSA10>  (20) 
4.794537

>  <EState_VSA11>  (20) 
0.0

>  <EState_VSA2>  (20) 
0.0

>  <EState_VSA3>  (20) 
50.802878

>  <EState_VSA4>  (20) 
5.386224

>  <EState_VSA5>  (20) 
0.0

>  <EState_VSA6>  (20) 
69.804745

>  <EState_VSA7>  (20) 
0.0

>  <EState_VSA8>  (20) 
20.774219

>  <EState_VSA9>  (20) 
30.334624

>  <VSA_EState1>  (20) 
21.656531

>  <VSA_EState10>  (20) 
6.346763

>  <VSA_EState2>  (20) 
16.515465

>  <VSA_EState3>  (20) 
9.962239

>  <VSA_EState4>  (20) 
1.089836

>  <VSA_EState5>  (20) 
3.05593

>  <VSA_EState6>  (20) 
11.329608

>  <VSA_EState7>  (20) 
1.635981

>  <VSA_EState8>  (20) 
1.726449

>  <VSA_EState9>  (20) 
3.125642

>  <FractionCSP3>  (20) 
0.136364

>  <HeavyAtomCount>  (20) 
32

>  <NHOHCount>  (20) 
2

>  <NOCount>  (20) 
9

>  <NumAliphaticCarbocycles>  (20) 
0

>  <NumAliphaticHeterocycles>  (20) 
0

>  <NumAliphaticRings>  (20) 
0

>  <NumAromaticCarbocycles>  (20) 
2

>  <NumAromaticHeterocycles>  (20) 
2

>  <NumAromaticRings>  (20) 
4

>  <NumHAcceptors>  (20) 
7

>  <NumHDonors>  (20) 
2

>  <NumHeteroatoms>  (20) 
10

>  <NumRotatableBonds>  (20) 
6

>  <NumSaturatedCarbocycles>  (20) 
0

>  <NumSaturatedHeterocycles>  (20) 
0

>  <NumSaturatedRings>  (20) 
0

>  <RingCount>  (20) 
4

>  <MolLogP>  (20) 
5.63812

>  <MolMR>  (20) 
120.2544

>  <fr_Al_COO>  (20) 
0

>  <fr_Al_OH>  (20) 
0

>  <fr_Al_OH_noTert>  (20) 
0

>  <fr_ArN>  (20) 
0

>  <fr_Ar_COO>  (20) 
0

>  <fr_Ar_N>  (20) 
2

>  <fr_Ar_NH>  (20) 
0

>  <fr_Ar_OH>  (20) 
0

>  <fr_COO>  (20) 
0

>  <fr_COO2>  (20) 
0

>  <fr_C_O>  (20) 
1

>  <fr_C_O_noCOO>  (20) 
1

>  <fr_C_S>  (20) 
0

>  <fr_HOCCN>  (20) 
0

>  <fr_Imine>  (20) 
0

>  <fr_NH0>  (20) 
2

>  <fr_NH1>  (20) 
2

>  <fr_NH2>  (20) 
0

>  <fr_N_O>  (20) 
0

>  <fr_Ndealkylation1>  (20) 
0

>  <fr_Ndealkylation2>  (20) 
0

>  <fr_Nhpyrrole>  (20) 
0

>  <fr_SH>  (20) 
0

>  <fr_aldehyde>  (20) 
0

>  <fr_alkyl_carbamate>  (20) 
0

>  <fr_alkyl_halide>  (20) 
0

>  <fr_allylic_oxid>  (20) 
0

>  <fr_amide>  (20) 
2

>  <fr_amidine>  (20) 
0

>  <fr_aniline>  (20) 
2

>  <fr_aryl_methyl>  (20) 
1

>  <fr_azide>  (20) 
0

>  <fr_azo>  (20) 
0

>  <fr_barbitur>  (20) 
0

>  <fr_benzene>  (20) 
2

>  <fr_benzodiazepine>  (20) 
0

>  <fr_bicyclic>  (20) 
1

>  <fr_diazo>  (20) 
0

>  <fr_dihydropyridine>  (20) 
0

>  <fr_epoxide>  (20) 
0

>  <fr_ester>  (20) 
0

>  <fr_ether>  (20) 
3

>  <fr_furan>  (20) 
0

>  <fr_guanido>  (20) 
0

>  <fr_halogen>  (20) 
1

>  <fr_hdrzine>  (20) 
0

>  <fr_hdrzone>  (20) 
0

>  <fr_imidazole>  (20) 
0

>  <fr_imide>  (20) 
0

>  <fr_isocyan>  (20) 
0

>  <fr_isothiocyan>  (20) 
0

>  <fr_ketone>  (20) 
0

>  <fr_ketone_Topliss>  (20) 
0

>  <fr_lactam>  (20) 
0

>  <fr_lactone>  (20) 
0

>  <fr_methoxy>  (20) 
2

>  <fr_morpholine>  (20) 
0

>  <fr_nitrile>  (20) 
0

>  <fr_nitro>  (20) 
0

>  <fr_nitro_arom>  (20) 
0

>  <fr_nitro_arom_nonortho>  (20) 
0

>  <fr_nitroso>  (20) 
0

>  <fr_oxazole>  (20) 
0

>  <fr_oxime>  (20) 
0

>  <fr_para_hydroxylation>  (20) 
0

>  <fr_phenol>  (20) 
0

>  <fr_phenol_noOrthoHbond>  (20) 
0

>  <fr_phos_acid>  (20) 
0

>  <fr_phos_ester>  (20) 
0

>  <fr_piperdine>  (20) 
0

>  <fr_piperzine>  (20) 
0

>  <fr_priamide>  (20) 
0

>  <fr_prisulfonamd>  (20) 
0

>  <fr_pyridine>  (20) 
1

>  <fr_quatN>  (20) 
0

>  <fr_sulfide>  (20) 
0

>  <fr_sulfonamd>  (20) 
0

>  <fr_sulfone>  (20) 
0

>  <fr_term_acetylene>  (20) 
0

>  <fr_tetrazole>  (20) 
0

>  <fr_thiazole>  (20) 
0

>  <fr_thiocyan>  (20) 
0

>  <fr_thiophene>  (20) 
0

>  <fr_unbrch_alkane>  (20) 
0

>  <fr_urea>  (20) 
1

>  <NP_Likeness>  (20) 
-1.567881

$$$$
nan
     RDKit          3D

  0  0  0  0  0  0  0  0  0  0999 V3000
M  V30 BEGIN CTAB
M  V30 COUNTS 75 79 0 0 0
M  V30 BEGIN ATOM
M  V30 1 C 1.464518 3.558812 -3.123855 0
M  V30 2 C 0.498353 2.643917 -3.206177 0
M  V30 3 C -0.500461 1.984767 -2.371848 0
M  V30 4 O -1.226290 1.142473 -2.925426 0
M  V30 5 N -0.687068 2.243446 -0.995748 0
M  V30 6 C -1.603194 1.686732 -0.077096 0
M  V30 7 C -2.556584 0.743574 -0.324070 0
M  V30 8 C -3.455754 0.217087 0.574130 0
M  V30 9 N -4.442230 -0.768343 0.203772 0
M  V30 10 C -4.302527 -1.400477 -1.094383 0
M  V30 11 N -5.220415 -1.686252 -2.017642 0
M  V30 12 C -4.839012 -2.309860 -3.141940 0
M  V30 13 C -3.542218 -2.688109 -3.424579 0
M  V30 14 C -2.599133 -2.386555 -2.458194 0
M  V30 15 N -1.165845 -2.621309 -2.406622 0
M  V30 16 C -0.167610 -2.075579 -3.080626 0
M  V30 17 C 0.989621 -2.665826 -2.600766 0
M  V30 18 C 2.369740 -2.351725 -3.035345 0
M  V30 19 N 3.082660 -1.496781 -2.166538 0
M  V30 20 C 3.285294 -1.897630 -0.824739 0
M  V30 21 C 4.047499 -0.622029 -2.735916 0
M  V30 22 C 0.631338 -3.569860 -1.631974 0
M  V30 23 C 1.373652 -4.464167 -0.793461 0
M  V30 24 C 2.367200 -5.356213 -1.135027 0
M  V30 25 C 3.004976 -6.156288 -0.200792 0
M  V30 26 C 2.670768 -6.100185 1.150758 0
M  V30 27 C 1.676772 -5.220544 1.560164 0
M  V30 28 C 1.073945 -4.444860 0.574780 0
M  V30 29 N -0.716151 -3.502170 -1.549945 0
M  V30 30 N -3.032580 -1.768335 -1.364856 0
M  V30 31 C -3.389183 0.700563 1.886568 0
M  V30 32 O -4.309408 0.146645 2.753659 0
M  V30 33 C -4.453990 0.451967 4.118146 0
M  V30 34 C -2.420665 1.669929 2.174246 0
M  V30 35 C -1.554401 2.144564 1.217276 0
M  V30 36 N -0.645269 3.101870 1.773545 0
M  V30 37 C 0.790792 2.780774 1.838236 0
M  V30 38 C 1.515470 4.096853 1.657361 0
M  V30 39 O 1.085316 4.932032 2.703609 0
M  V30 40 C -0.196095 5.418610 2.439832 0
M  V30 41 C -1.222565 4.326836 2.240273 0
M  V30 42 H 2.187884 4.029051 -3.750744 0
M  V30 43 H 1.862861 4.181340 -2.308941 0
M  V30 44 H 0.570618 2.386894 -4.265399 0
M  V30 45 H -0.012665 2.971689 -0.685360 0
M  V30 46 H -2.588649 0.410759 -1.346755 0
M  V30 47 H -5.203167 -0.970866 0.886227 0
M  V30 48 H -5.553892 -2.557385 -3.908980 0
M  V30 49 H -3.117050 -3.179883 -4.269536 0
M  V30 50 H -0.294430 -1.313524 -3.850267 0
M  V30 51 H 2.947309 -3.279707 -3.214801 0
M  V30 52 H 2.353377 -1.844787 -4.044958 0
M  V30 53 H 4.049481 -1.177503 -0.392484 0
M  V30 54 H 2.375635 -1.829829 -0.185223 0
M  V30 55 H 3.800077 -2.876347 -0.770770 0
M  V30 56 H 4.023997 -0.540678 -3.817631 0
M  V30 57 H 5.080945 -0.978726 -2.435394 0
M  V30 58 H 3.987612 0.425688 -2.327763 0
M  V30 59 H 2.614810 -5.393362 -2.195047 0
M  V30 60 H 3.777123 -6.846058 -0.505429 0
M  V30 61 H 3.112946 -6.680664 1.924999 0
M  V30 62 H 1.377644 -5.138651 2.590315 0
M  V30 63 H 0.294509 -3.761908 0.945921 0
M  V30 64 H -3.573852 0.959159 4.518204 0
M  V30 65 H -5.345723 1.085766 4.317501 0
M  V30 66 H -4.585504 -0.540384 4.634089 0
M  V30 67 H -2.434982 1.989108 3.205654 0
M  V30 68 H 1.087010 1.990664 1.147522 0
M  V30 69 H 0.975470 2.462276 2.906060 0
M  V30 70 H 2.616281 3.992287 1.718172 0
M  V30 71 H 1.208165 4.512599 0.679045 0
M  V30 72 H -0.501734 6.025958 3.319253 0
M  V30 73 H -0.126790 6.115277 1.580198 0
M  V30 74 H -1.723163 4.125906 3.217838 0
M  V30 75 H -1.992371 4.700654 1.532222 0
M  V30 END ATOM
M  V30 BEGIN BOND
M  V30 1 2 1 2
M  V30 2 1 2 3
M  V30 3 2 3 4
M  V30 4 1 3 5
M  V30 5 1 5 6
M  V30 6 2 6 7
M  V30 7 1 7 8
M  V30 8 1 8 9
M  V30 9 1 9 10
M  V30 10 2 10 11
M  V30 11 1 11 12
M  V30 12 2 12 13
M  V30 13 1 13 14
M  V30 14 1 14 15
M  V30 15 1 15 16
M  V30 16 2 16 17
M  V30 17 1 17 18
M  V30 18 1 18 19
M  V30 19 1 19 20
M  V30 20 1 19 21
M  V30 21 1 17 22
M  V30 22 1 22 23
M  V30 23 2 23 24
M  V30 24 1 24 25
M  V30 25 2 25 26
M  V30 26 1 26 27
M  V30 27 2 27 28
M  V30 28 2 22 29
M  V30 29 2 14 30
M  V30 30 2 8 31
M  V30 31 1 31 32
M  V30 32 1 32 33
M  V30 33 1 31 34
M  V30 34 2 34 35
M  V30 35 1 35 36
M  V30 36 1 36 37
M  V30 37 1 37 38
M  V30 38 1 38 39
M  V30 39 1 39 40
M  V30 40 1 40 41
M  V30 41 1 35 6
M  V30 42 1 41 36
M  V30 43 1 30 10
M  V30 44 1 29 15
M  V30 45 1 28 23
M  V30 46 1 1 42
M  V30 47 1 1 43
M  V30 48 1 2 44
M  V30 49 1 5 45
M  V30 50 1 7 46
M  V30 51 1 9 47
M  V30 52 1 12 48
M  V30 53 1 13 49
M  V30 54 1 16 50
M  V30 55 1 18 51
M  V30 56 1 18 52
M  V30 57 1 20 53
M  V30 58 1 20 54
M  V30 59 1 20 55
M  V30 60 1 21 56
M  V30 61 1 21 57
M  V30 62 1 21 58
M  V30 63 1 24 59
M  V30 64 1 25 60
M  V30 65 1 26 61
M  V30 66 1 27 62
M  V30 67 1 28 63
M  V30 68 1 33 64
M  V30 69 1 33 65
M  V30 70 1 33 66
M  V30 71 1 34 67
M  V30 72 1 37 68
M  V30 73 1 37 69
M  V30 74 1 38 70
M  V30 75 1 38 71
M  V30 76 1 40 72
M  V30 77 1 40 73
M  V30 78 1 41 74
M  V30 79 1 41 75
M  V30 END BOND
M  V30 END CTAB
M  END
>  <Dataset>  (21) 
PKIs

>  <Ligand_Instance>  (21) 
nan

>  <PDB_ID>  (21) 
nan

>  <Standardized_SMILES>  (21) 
C=CC(=O)Nc1cc(Nc2nccc(-n3cc(CN(C)C)c(-c4ccccc4)n3)n2)c(OC)cc1N1CCOCC1

>  <Name>  (21) 
Lazertinib

>  <Pocket>  (21) 
nan

>  <ATP_Site>  (21) 
nan

>  <Peripheral>  (21) 
nan

>  <Num_H_Atoms_ProtBoundConf>  (21) 
nan

>  <Num_Resolved_Atoms>  (21) 
nan

>  <Num_Not_Resolved_Atoms>  (21) 
nan

>  <2D_Mol_H>  (21) 
<rdkit.Chem.rdchem.Mol object at 0x72a2391125e0>

>  <MW>  (21) 
554.655

>  <HBA>  (21) 
10

>  <HBD>  (21) 
2

>  <LogP>  (21) 
4.1042

>  <NRB>  (21) 
13

>  <TPSA>  (21) 
109.67

>  <Num_Heavy_Atoms>  (21) 
41

>  <Ro5>  (21) 
[False, True, True, True, False, True]

>  <Ro5_Fulfilled>  (21) 
False

>  <Ro3>  (21) 
[False, False, True, False]

>  <Ro3_Fulfilled>  (21) 
False

>  <Fsp3>  (21) 
0.266667

>  <Fsp3_0.42>  (21) 
False

>  <Fsp3_0.45>  (21) 
False

>  <Stereogenic_Carbons>  (21) 
0

>  <C_Atoms>  (21) 
30

>  <FCStereo>  (21) 
0.0

>  <SPS>  (21) 
542

>  <nSPS>  (21) 
13.219512

>  <PBF>  (21) 
1.814642

>  <PBF_0.6>  (21) 
True

>  <nPBF>  (21) 
0.04426

>  <nPBF_0.016>  (21) 
True

>  <PMI1>  (21) 
5456.220392

>  <PMI2>  (21) 
8137.504721

>  <PMI3>  (21) 
9518.29491

>  <NPR1>  (21) 
0.573235

>  <NPR2>  (21) 
0.854933

>  <Sum_NPR>  (21) 
1.428168

>  <Sum_NPR_1.07>  (21) 
True

>  <Sum_NPR_1.2>  (21) 
True

>  <MaxAbsEStateIndex>  (21) 
12.27921

>  <MaxEStateIndex>  (21) 
12.27921

>  <MinAbsEStateIndex>  (21) 
0.309903

>  <MinEStateIndex>  (21) 
-0.309903

>  <qed>  (21) 
0.280049

>  <MolWt>  (21) 
554.655

>  <HeavyAtomMolWt>  (21) 
520.383

>  <ExactMolWt>  (21) 
554.275387

>  <NumValenceElectrons>  (21) 
212

>  <NumRadicalElectrons>  (21) 
0

>  <MaxPartialCharge>  (21) 
0.247322

>  <MinPartialCharge>  (21) 
-0.494495

>  <MaxAbsPartialCharge>  (21) 
0.494495

>  <MinAbsPartialCharge>  (21) 
0.247322

>  <FpDensityMorgan1>  (21) 
1.146341

>  <FpDensityMorgan2>  (21) 
1.926829

>  <FpDensityMorgan3>  (21) 
2.634146

>  <BCUT2D_MWHI>  (21) 
16.478301

>  <BCUT2D_MWLOW>  (21) 
10.087932

>  <BCUT2D_CHGHI>  (21) 
2.202312

>  <BCUT2D_CHGLO>  (21) 
-2.309346

>  <BCUT2D_LOGPHI>  (21) 
2.382991

>  <BCUT2D_LOGPLOW>  (21) 
-2.363997

>  <BCUT2D_MRHI>  (21) 
6.018706

>  <BCUT2D_MRLOW>  (21) 
-0.111431

>  <AvgIpc>  (21) 
3.411632

>  <BalabanJ>  (21) 
1.485091

>  <BertzCT>  (21) 
1513.667621

>  <Chi0>  (21) 
28.769009

>  <Chi0n>  (21) 
23.50152

>  <Chi0v>  (21) 
23.50152

>  <Chi1>  (21) 
19.944223

>  <Chi1n>  (21) 
13.32154

>  <Chi1v>  (21) 
13.32154

>  <Chi2n>  (21) 
9.777205

>  <Chi2v>  (21) 
9.777205

>  <Chi3n>  (21) 
6.558745

>  <Chi3v>  (21) 
6.558745

>  <Chi4n>  (21) 
4.665354

>  <Chi4v>  (21) 
4.665354

>  <HallKierAlpha>  (21) 
-4.74

>  <Ipc>  (21) 
2332852798.583535

>  <Kappa1>  (21) 
27.81281

>  <Kappa2>  (21) 
12.62276

>  <Kappa3>  (21) 
6.534576

>  <LabuteASA>  (21) 
238.976148

>  <PEOE_VSA1>  (21) 
29.907123

>  <PEOE_VSA10>  (21) 
5.749512

>  <PEOE_VSA11>  (21) 
5.817863

>  <PEOE_VSA12>  (21) 
11.855519

>  <PEOE_VSA13>  (21) 
0.0

>  <PEOE_VSA14>  (21) 
0.0

>  <PEOE_VSA2>  (21) 
4.794537

>  <PEOE_VSA3>  (21) 
9.665781

>  <PEOE_VSA4>  (21) 
10.08266

>  <PEOE_VSA5>  (21) 
0.0

>  <PEOE_VSA6>  (21) 
36.910771

>  <PEOE_VSA7>  (21) 
26.237731

>  <PEOE_VSA8>  (21) 
55.287593

>  <PEOE_VSA9>  (21) 
43.079648

>  <SMR_VSA1>  (21) 
14.268263

>  <SMR_VSA10>  (21) 
28.917678

>  <SMR_VSA2>  (21) 
0.0

>  <SMR_VSA3>  (21) 
24.648352

>  <SMR_VSA4>  (21) 
0.0

>  <SMR_VSA5>  (21) 
6.544756

>  <SMR_VSA6>  (21) 
63.041905

>  <SMR_VSA7>  (21) 
79.143031

>  <SMR_VSA8>  (21) 
0.0

>  <SMR_VSA9>  (21) 
22.824754

>  <SlogP_VSA1>  (21) 
20.27035

>  <SlogP_VSA10>  (21) 
23.010498

>  <SlogP_VSA11>  (21) 
5.749512

>  <SlogP_VSA12>  (21) 
0.0

>  <SlogP_VSA2>  (21) 
78.063949

>  <SlogP_VSA3>  (21) 
16.076157

>  <SlogP_VSA4>  (21) 
0.0

>  <SlogP_VSA5>  (21) 
5.563451

>  <SlogP_VSA6>  (21) 
73.579579

>  <SlogP_VSA7>  (21) 
0.0

>  <SlogP_VSA8>  (21) 
17.075242

>  <SlogP_VSA9>  (21) 
0.0

>  <EState_VSA1>  (21) 
0.0

>  <EState_VSA10>  (21) 
4.794537

>  <EState_VSA11>  (21) 
0.0

>  <EState_VSA2>  (21) 
5.90718

>  <EState_VSA3>  (21) 
55.193763

>  <EState_VSA4>  (21) 
29.052974

>  <EState_VSA5>  (21) 
6.07602

>  <EState_VSA6>  (21) 
24.054811

>  <EState_VSA7>  (21) 
62.756757

>  <EState_VSA8>  (21) 
31.996311

>  <EState_VSA9>  (21) 
19.556386

>  <VSA_EState1>  (21) 
12.998812

>  <VSA_EState10>  (21) 
0.0

>  <VSA_EState2>  (21) 
25.709921

>  <VSA_EState3>  (21) 
11.061979

>  <VSA_EState4>  (21) 
5.060445

>  <VSA_EState5>  (21) 
1.228462

>  <VSA_EState6>  (21) 
15.614162

>  <VSA_EState7>  (21) 
4.91227

>  <VSA_EState8>  (21) 
6.919337

>  <VSA_EState9>  (21) 
5.66128

>  <FractionCSP3>  (21) 
0.266667

>  <HeavyAtomCount>  (21) 
41

>  <NHOHCount>  (21) 
2

>  <NOCount>  (21) 
11

>  <NumAliphaticCarbocycles>  (21) 
0

>  <NumAliphaticHeterocycles>  (21) 
1

>  <NumAliphaticRings>  (21) 
1

>  <NumAromaticCarbocycles>  (21) 
2

>  <NumAromaticHeterocycles>  (21) 
2

>  <NumAromaticRings>  (21) 
4

>  <NumHAcceptors>  (21) 
10

>  <NumHDonors>  (21) 
2

>  <NumHeteroatoms>  (21) 
11

>  <NumRotatableBonds>  (21) 
10

>  <NumSaturatedCarbocycles>  (21) 
0

>  <NumSaturatedHeterocycles>  (21) 
1

>  <NumSaturatedRings>  (21) 
1

>  <RingCount>  (21) 
5

>  <MolLogP>  (21) 
4.1042

>  <MolMR>  (21) 
160.1164

>  <fr_Al_COO>  (21) 
0

>  <fr_Al_OH>  (21) 
0

>  <fr_Al_OH_noTert>  (21) 
0

>  <fr_ArN>  (21) 
0

>  <fr_Ar_COO>  (21) 
0

>  <fr_Ar_N>  (21) 
4

>  <fr_Ar_NH>  (21) 
0

>  <fr_Ar_OH>  (21) 
0

>  <fr_COO>  (21) 
0

>  <fr_COO2>  (21) 
0

>  <fr_C_O>  (21) 
1

>  <fr_C_O_noCOO>  (21) 
1

>  <fr_C_S>  (21) 
0

>  <fr_HOCCN>  (21) 
0

>  <fr_Imine>  (21) 
0

>  <fr_NH0>  (21) 
6

>  <fr_NH1>  (21) 
2

>  <fr_NH2>  (21) 
0

>  <fr_N_O>  (21) 
0

>  <fr_Ndealkylation1>  (21) 
0

>  <fr_Ndealkylation2>  (21) 
0

>  <fr_Nhpyrrole>  (21) 
0

>  <fr_SH>  (21) 
0

>  <fr_aldehyde>  (21) 
0

>  <fr_alkyl_carbamate>  (21) 
0

>  <fr_alkyl_halide>  (21) 
0

>  <fr_allylic_oxid>  (21) 
0

>  <fr_amide>  (21) 
1

>  <fr_amidine>  (21) 
0

>  <fr_aniline>  (21) 
4

>  <fr_aryl_methyl>  (21) 
0

>  <fr_azide>  (21) 
0

>  <fr_azo>  (21) 
0

>  <fr_barbitur>  (21) 
0

>  <fr_benzene>  (21) 
2

>  <fr_benzodiazepine>  (21) 
0

>  <fr_bicyclic>  (21) 
0

>  <fr_diazo>  (21) 
0

>  <fr_dihydropyridine>  (21) 
0

>  <fr_epoxide>  (21) 
0

>  <fr_ester>  (21) 
0

>  <fr_ether>  (21) 
2

>  <fr_furan>  (21) 
0

>  <fr_guanido>  (21) 
0

>  <fr_halogen>  (21) 
0

>  <fr_hdrzine>  (21) 
0

>  <fr_hdrzone>  (21) 
0

>  <fr_imidazole>  (21) 
0

>  <fr_imide>  (21) 
0

>  <fr_isocyan>  (21) 
0

>  <fr_isothiocyan>  (21) 
0

>  <fr_ketone>  (21) 
0

>  <fr_ketone_Topliss>  (21) 
0

>  <fr_lactam>  (21) 
0

>  <fr_lactone>  (21) 
0

>  <fr_methoxy>  (21) 
1

>  <fr_morpholine>  (21) 
1

>  <fr_nitrile>  (21) 
0

>  <fr_nitro>  (21) 
0

>  <fr_nitro_arom>  (21) 
0

>  <fr_nitro_arom_nonortho>  (21) 
0

>  <fr_nitroso>  (21) 
0

>  <fr_oxazole>  (21) 
0

>  <fr_oxime>  (21) 
0

>  <fr_para_hydroxylation>  (21) 
0

>  <fr_phenol>  (21) 
0

>  <fr_phenol_noOrthoHbond>  (21) 
0

>  <fr_phos_acid>  (21) 
0

>  <fr_phos_ester>  (21) 
0

>  <fr_piperdine>  (21) 
0

>  <fr_piperzine>  (21) 
0

>  <fr_priamide>  (21) 
0

>  <fr_prisulfonamd>  (21) 
0

>  <fr_pyridine>  (21) 
0

>  <fr_quatN>  (21) 
0

>  <fr_sulfide>  (21) 
0

>  <fr_sulfonamd>  (21) 
0

>  <fr_sulfone>  (21) 
0

>  <fr_term_acetylene>  (21) 
0

>  <fr_tetrazole>  (21) 
0

>  <fr_thiazole>  (21) 
0

>  <fr_thiocyan>  (21) 
0

>  <fr_thiophene>  (21) 
0

>  <fr_unbrch_alkane>  (21) 
0

>  <fr_urea>  (21) 
0

>  <NP_Likeness>  (21) 
-1.598979

$$$$
nan
     RDKit          3D

  0  0  0  0  0  0  0  0  0  0999 V3000
M  V30 BEGIN CTAB
M  V30 COUNTS 48 50 0 0 0
M  V30 BEGIN ATOM
M  V30 1 H 7.283855 -0.176717 -1.666871 0 MASS=2
M  V30 2 C 6.694064 -0.705961 -2.428491 0
M  V30 3 H 6.489329 -1.755377 -2.119243 0 MASS=2
M  V30 4 H 7.303164 -0.747097 -3.360871 0 MASS=2
M  V30 5 N 5.413293 -0.024421 -2.662458 0
M  V30 6 C 4.782733 0.783803 -1.658229 0
M  V30 7 O 5.408463 0.862007 -0.570157 0
M  V30 8 C 3.518376 1.410830 -1.997619 0
M  V30 9 C 2.932360 2.190930 -0.995797 0
M  V30 10 C 1.719130 2.802848 -1.297226 0
M  V30 11 O 0.981324 3.622345 -0.421113 0
M  V30 12 C 0.044363 2.945807 0.382952 0
M  V30 13 C 0.530222 2.508809 1.596201 0
M  V30 14 C -0.325390 1.834744 2.446872 0
M  V30 15 C -1.626447 1.644947 2.012185 0
M  V30 16 N -2.470663 0.936011 2.942228 0
M  V30 17 C -2.464440 -0.467190 2.773447 0
M  V30 18 O -1.737756 -0.910553 1.851765 0
M  V30 19 N -3.208139 -1.382431 3.559324 0
M  V30 20 C -3.279787 -2.793308 3.482980 0
M  V30 21 C -4.084319 -3.457002 4.370630 0
M  V30 22 C -4.207694 -4.826154 4.361063 0
M  V30 23 C -3.527205 -5.609194 3.455728 0
M  V30 24 Cl -3.680854 -7.344273 3.440369 0
M  V30 25 C -2.714774 -4.968275 2.555996 0
M  V30 26 C -1.959806 -5.776249 1.558569 0
M  V30 27 F -1.194216 -4.976444 0.733236 0
M  V30 28 F -1.126119 -6.666560 2.205184 0
M  V30 29 F -2.901484 -6.473412 0.799395 0
M  V30 30 C -2.611931 -3.594971 2.590641 0
M  V30 31 C -2.125641 2.077753 0.799134 0
M  V30 32 C -1.261233 2.752918 -0.048221 0
M  V30 33 C 1.111764 2.653534 -2.527161 0
M  V30 34 C 1.762201 1.860195 -3.467382 0
M  V30 35 N 2.934671 1.263549 -3.188599 0
M  V30 36 H 4.999071 -0.172105 -3.609883 0
M  V30 37 H 3.321046 2.373554 -0.002505 0
M  V30 38 H 1.554824 2.675912 1.902032 0
M  V30 39 H 0.023131 1.479453 3.403714 0
M  V30 40 H -3.074768 1.342489 3.712806 0
M  V30 41 H -3.763542 -0.876855 4.282917 0
M  V30 42 H -4.651514 -2.878316 5.116729 0
M  V30 43 H -4.862181 -5.265949 5.094675 0
M  V30 44 H -1.967338 -3.168488 1.867352 0
M  V30 45 H -3.154151 1.897098 0.518860 0
M  V30 46 H -1.581570 3.123217 -1.018183 0
M  V30 47 H 0.181126 3.090948 -2.834103 0
M  V30 48 H 1.318478 1.716389 -4.448148 0
M  V30 END ATOM
M  V30 BEGIN BOND
M  V30 1 1 1 2
M  V30 2 1 2 3
M  V30 3 1 2 4
M  V30 4 1 2 5
M  V30 5 1 5 6
M  V30 6 2 6 7
M  V30 7 1 6 8
M  V30 8 2 8 9
M  V30 9 1 9 10
M  V30 10 1 10 11
M  V30 11 1 11 12
M  V30 12 2 12 13
M  V30 13 1 13 14
M  V30 14 2 14 15
M  V30 15 1 15 16
M  V30 16 1 16 17
M  V30 17 2 17 18
M  V30 18 1 17 19
M  V30 19 1 19 20
M  V30 20 2 20 21
M  V30 21 1 21 22
M  V30 22 2 22 23
M  V30 23 1 23 24
M  V30 24 1 23 25
M  V30 25 1 25 26
M  V30 26 1 26 27
M  V30 27 1 26 28
M  V30 28 1 26 29
M  V30 29 2 25 30
M  V30 30 1 15 31
M  V30 31 2 31 32
M  V30 32 2 10 33
M  V30 33 1 33 34
M  V30 34 2 34 35
M  V30 35 1 35 8
M  V30 36 1 32 12
M  V30 37 1 30 20
M  V30 38 1 5 36
M  V30 39 1 9 37
M  V30 40 1 13 38
M  V30 41 1 14 39
M  V30 42 1 16 40
M  V30 43 1 19 41
M  V30 44 1 21 42
M  V30 45 1 22 43
M  V30 46 1 30 44
M  V30 47 1 31 45
M  V30 48 1 32 46
M  V30 49 1 33 47
M  V30 50 1 34 48
M  V30 END BOND
M  V30 END CTAB
M  END
>  <Dataset>  (22) 
PKIs

>  <Ligand_Instance>  (22) 
nan

>  <PDB_ID>  (22) 
nan

>  <Standardized_SMILES>  (22) 
[2H]C([2H])([2H])NC(=O)c1cc(Oc2ccc(NC(=O)Nc3ccc(Cl)c(C(F)(F)F)c3)cc2)ccn1

>  <Name>  (22) 
Donafenib

>  <Pocket>  (22) 
nan

>  <ATP_Site>  (22) 
nan

>  <Peripheral>  (22) 
nan

>  <Num_H_Atoms_ProtBoundConf>  (22) 
nan

>  <Num_Resolved_Atoms>  (22) 
nan

>  <Num_Not_Resolved_Atoms>  (22) 
nan

>  <2D_Mol_H>  (22) 
<rdkit.Chem.rdchem.Mol object at 0x72a2391126c0>

>  <MW>  (22) 
467.849305

>  <HBA>  (22) 
4

>  <HBD>  (22) 
3

>  <LogP>  (22) 
5.5497

>  <NRB>  (22) 
6

>  <TPSA>  (22) 
92.35

>  <Num_Heavy_Atoms>  (22) 
32

>  <Ro5>  (22) 
[True, True, True, False, True, True]

>  <Ro5_Fulfilled>  (22) 
True

>  <Ro3>  (22) 
[False, False, True, False]

>  <Ro3_Fulfilled>  (22) 
False

>  <Fsp3>  (22) 
0.095238

>  <Fsp3_0.42>  (22) 
False

>  <Fsp3_0.45>  (22) 
False

>  <Stereogenic_Carbons>  (22) 
0

>  <C_Atoms>  (22) 
21

>  <FCStereo>  (22) 
0.0

>  <SPS>  (22) 
406

>  <nSPS>  (22) 
12.6875

>  <PBF>  (22) 
0.990976

>  <PBF_0.6>  (22) 
True

>  <nPBF>  (22) 
0.030968

>  <nPBF_0.016>  (22) 
True

>  <PMI1>  (22) 
3144.875759

>  <PMI2>  (22) 
10487.544839

>  <PMI3>  (22) 
12709.045869

>  <NPR1>  (22) 
0.247452

>  <NPR2>  (22) 
0.825203

>  <Sum_NPR>  (22) 
1.072655

>  <Sum_NPR_1.07>  (22) 
True

>  <Sum_NPR_1.2>  (22) 
False

>  <MaxAbsEStateIndex>  (22) 
12.963455

>  <MaxEStateIndex>  (22) 
12.963455

>  <MinAbsEStateIndex>  (22) 
0.101668

>  <MinEStateIndex>  (22) 
-4.670713

>  <qed>  (22) 
0.44292

>  <MolWt>  (22) 
467.849305

>  <HeavyAtomMolWt>  (22) 
448.703

>  <ExactMolWt>  (22) 
467.105133

>  <NumValenceElectrons>  (22) 
166

>  <NumRadicalElectrons>  (22) 
0

>  <MaxPartialCharge>  (22) 
0.417418

>  <MinPartialCharge>  (22) 
-0.457237

>  <MaxAbsPartialCharge>  (22) 
0.457237

>  <MinAbsPartialCharge>  (22) 
0.417418

>  <FpDensityMorgan1>  (22) 
1.0

>  <FpDensityMorgan2>  (22) 
1.6875

>  <FpDensityMorgan3>  (22) 
2.375

>  <BCUT2D_MWHI>  (22) 
35.495692

>  <BCUT2D_MWLOW>  (22) 
1.722217

>  <BCUT2D_CHGHI>  (22) 
2.330593

>  <BCUT2D_CHGLO>  (22) 
-2.189913

>  <BCUT2D_LOGPHI>  (22) 
2.358206

>  <BCUT2D_LOGPLOW>  (22) 
-2.406693

>  <BCUT2D_MRHI>  (22) 
6.311343

>  <BCUT2D_MRLOW>  (22) 
-0.169895

>  <AvgIpc>  (22) 
2.745526

>  <BalabanJ>  (22) 
1.614482

>  <BertzCT>  (22) 
1238.964923

>  <Chi0>  (22) 
25.802754

>  <Chi0n>  (22) 
18.957319

>  <Chi0v>  (22) 
16.713248

>  <Chi1>  (22) 
16.297664

>  <Chi1n>  (22) 
10.312991

>  <Chi1v>  (22) 
9.190956

>  <Chi2n>  (22) 
6.228857

>  <Chi2v>  (22) 
6.636057

>  <Chi3n>  (22) 
3.955088

>  <Chi3v>  (22) 
4.284676

>  <Chi4n>  (22) 
2.518952

>  <Chi4v>  (22) 
2.743644

>  <HallKierAlpha>  (22) 
-3.79

>  <Ipc>  (22) 
27219794.527697

>  <Kappa1>  (22) 
18.93749

>  <Kappa2>  (22) 
9.563603

>  <Kappa3>  (22) 
5.88337

>  <LabuteASA>  (22) 
189.325968

>  <PEOE_VSA1>  (22) 
20.687229

>  <PEOE_VSA10>  (22) 
17.192952

>  <PEOE_VSA11>  (22) 
0.0

>  <PEOE_VSA12>  (22) 
0.0

>  <PEOE_VSA13>  (22) 
5.90718

>  <PEOE_VSA14>  (22) 
12.207413

>  <PEOE_VSA2>  (22) 
9.778516

>  <PEOE_VSA3>  (22) 
4.794537

>  <PEOE_VSA4>  (22) 
13.171245

>  <PEOE_VSA5>  (22) 
0.0

>  <PEOE_VSA6>  (22) 
11.60094

>  <PEOE_VSA7>  (22) 
48.530937

>  <PEOE_VSA8>  (22) 
34.726086

>  <PEOE_VSA9>  (22) 
10.586085

>  <SMR_VSA1>  (22) 
31.609458

>  <SMR_VSA10>  (22) 
34.914007

>  <SMR_VSA2>  (22) 
0.0

>  <SMR_VSA3>  (22) 
10.300767

>  <SMR_VSA4>  (22) 
0.0

>  <SMR_VSA5>  (22) 
6.176299

>  <SMR_VSA6>  (22) 
17.609404

>  <SMR_VSA7>  (22) 
77.07416

>  <SMR_VSA8>  (22) 
0.0

>  <SMR_VSA9>  (22) 
11.499024

>  <SlogP_VSA1>  (22) 
20.687229

>  <SlogP_VSA10>  (22) 
29.340555

>  <SlogP_VSA11>  (22) 
11.499024

>  <SlogP_VSA12>  (22) 
11.60094

>  <SlogP_VSA2>  (22) 
23.8981

>  <SlogP_VSA3>  (22) 
6.176299

>  <SlogP_VSA4>  (22) 
0.0

>  <SlogP_VSA5>  (22) 
20.164192

>  <SlogP_VSA6>  (22) 
60.794147

>  <SlogP_VSA7>  (22) 
5.022633

>  <SlogP_VSA8>  (22) 
0.0

>  <SlogP_VSA9>  (22) 
0.0

>  <EState_VSA1>  (22) 
35.676504

>  <EState_VSA10>  (22) 
22.76032

>  <EState_VSA11>  (22) 
0.0

>  <EState_VSA2>  (22) 
17.130826

>  <EState_VSA3>  (22) 
11.436898

>  <EState_VSA4>  (22) 
12.132734

>  <EState_VSA5>  (22) 
48.661413

>  <EState_VSA6>  (22) 
0.0

>  <EState_VSA7>  (22) 
5.316789

>  <EState_VSA8>  (22) 
15.617556

>  <EState_VSA9>  (22) 
20.450079

>  <VSA_EState1>  (22) 
65.72147

>  <VSA_EState10>  (22) 
5.563426

>  <VSA_EState2>  (22) 
27.885159

>  <VSA_EState3>  (22) 
6.086173

>  <VSA_EState4>  (22) 
-1.027206

>  <VSA_EState5>  (22) 
-0.37661

>  <VSA_EState6>  (22) 
10.828309

>  <VSA_EState7>  (22) 
-3.401877

>  <VSA_EState8>  (22) 
-2.667731

>  <VSA_EState9>  (22) 
0.0

>  <FractionCSP3>  (22) 
0.095238

>  <HeavyAtomCount>  (22) 
32

>  <NHOHCount>  (22) 
3

>  <NOCount>  (22) 
7

>  <NumAliphaticCarbocycles>  (22) 
0

>  <NumAliphaticHeterocycles>  (22) 
0

>  <NumAliphaticRings>  (22) 
0

>  <NumAromaticCarbocycles>  (22) 
2

>  <NumAromaticHeterocycles>  (22) 
1

>  <NumAromaticRings>  (22) 
3

>  <NumHAcceptors>  (22) 
4

>  <NumHDonors>  (22) 
3

>  <NumHeteroatoms>  (22) 
11

>  <NumRotatableBonds>  (22) 
6

>  <NumSaturatedCarbocycles>  (22) 
0

>  <NumSaturatedHeterocycles>  (22) 
0

>  <NumSaturatedRings>  (22) 
0

>  <RingCount>  (22) 
3

>  <MolLogP>  (22) 
5.5497

>  <MolMR>  (22) 
113.2386

>  <fr_Al_COO>  (22) 
0

>  <fr_Al_OH>  (22) 
0

>  <fr_Al_OH_noTert>  (22) 
0

>  <fr_ArN>  (22) 
0

>  <fr_Ar_COO>  (22) 
0

>  <fr_Ar_N>  (22) 
1

>  <fr_Ar_NH>  (22) 
0

>  <fr_Ar_OH>  (22) 
0

>  <fr_COO>  (22) 
0

>  <fr_COO2>  (22) 
0

>  <fr_C_O>  (22) 
2

>  <fr_C_O_noCOO>  (22) 
2

>  <fr_C_S>  (22) 
0

>  <fr_HOCCN>  (22) 
0

>  <fr_Imine>  (22) 
0

>  <fr_NH0>  (22) 
1

>  <fr_NH1>  (22) 
3

>  <fr_NH2>  (22) 
0

>  <fr_N_O>  (22) 
0

>  <fr_Ndealkylation1>  (22) 
0

>  <fr_Ndealkylation2>  (22) 
0

>  <fr_Nhpyrrole>  (22) 
0

>  <fr_SH>  (22) 
0

>  <fr_aldehyde>  (22) 
0

>  <fr_alkyl_carbamate>  (22) 
0

>  <fr_alkyl_halide>  (22) 
3

>  <fr_allylic_oxid>  (22) 
0

>  <fr_amide>  (22) 
3

>  <fr_amidine>  (22) 
0

>  <fr_aniline>  (22) 
2

>  <fr_aryl_methyl>  (22) 
0

>  <fr_azide>  (22) 
0

>  <fr_azo>  (22) 
0

>  <fr_barbitur>  (22) 
0

>  <fr_benzene>  (22) 
2

>  <fr_benzodiazepine>  (22) 
0

>  <fr_bicyclic>  (22) 
0

>  <fr_diazo>  (22) 
0

>  <fr_dihydropyridine>  (22) 
0

>  <fr_epoxide>  (22) 
0

>  <fr_ester>  (22) 
0

>  <fr_ether>  (22) 
1

>  <fr_furan>  (22) 
0

>  <fr_guanido>  (22) 
0

>  <fr_halogen>  (22) 
4

>  <fr_hdrzine>  (22) 
0

>  <fr_hdrzone>  (22) 
0

>  <fr_imidazole>  (22) 
0

>  <fr_imide>  (22) 
0

>  <fr_isocyan>  (22) 
0

>  <fr_isothiocyan>  (22) 
0

>  <fr_ketone>  (22) 
0

>  <fr_ketone_Topliss>  (22) 
0

>  <fr_lactam>  (22) 
0

>  <fr_lactone>  (22) 
0

>  <fr_methoxy>  (22) 
0

>  <fr_morpholine>  (22) 
0

>  <fr_nitrile>  (22) 
0

>  <fr_nitro>  (22) 
0

>  <fr_nitro_arom>  (22) 
0

>  <fr_nitro_arom_nonortho>  (22) 
0

>  <fr_nitroso>  (22) 
0

>  <fr_oxazole>  (22) 
0

>  <fr_oxime>  (22) 
0

>  <fr_para_hydroxylation>  (22) 
0

>  <fr_phenol>  (22) 
0

>  <fr_phenol_noOrthoHbond>  (22) 
0

>  <fr_phos_acid>  (22) 
0

>  <fr_phos_ester>  (22) 
0

>  <fr_piperdine>  (22) 
0

>  <fr_piperzine>  (22) 
0

>  <fr_priamide>  (22) 
0

>  <fr_prisulfonamd>  (22) 
0

>  <fr_pyridine>  (22) 
1

>  <fr_quatN>  (22) 
0

>  <fr_sulfide>  (22) 
0

>  <fr_sulfonamd>  (22) 
0

>  <fr_sulfone>  (22) 
0

>  <fr_term_acetylene>  (22) 
0

>  <fr_tetrazole>  (22) 
0

>  <fr_thiazole>  (22) 
0

>  <fr_thiocyan>  (22) 
0

>  <fr_thiophene>  (22) 
0

>  <fr_unbrch_alkane>  (22) 
0

>  <fr_urea>  (22) 
1

>  <NP_Likeness>  (22) 
-1.297373

$$$$
nan
     RDKit          3D

  0  0  0  0  0  0  0  0  0  0999 V3000
M  V30 BEGIN CTAB
M  V30 COUNTS 58 62 0 0 0
M  V30 BEGIN ATOM
M  V30 1 C 5.596001 -0.190857 1.517521 0
M  V30 2 C 5.097041 0.663766 2.659218 0
M  V30 3 C 6.277402 1.008755 3.535495 0
M  V30 4 N 4.410479 1.809907 2.143623 0
M  V30 5 C 3.047127 2.181183 2.416095 0
M  V30 6 O 2.595895 1.300082 3.189671 0
M  V30 7 C 2.695672 3.449437 1.688399 0
M  V30 8 O 1.353468 3.755470 1.995800 0
M  V30 9 C 0.368356 2.855940 1.638855 0
M  V30 10 C -0.886756 3.328275 2.035750 0
M  V30 11 C -2.031006 2.566518 1.769284 0
M  V30 12 C -1.838821 1.366432 1.114094 0
M  V30 13 C -0.609645 0.889323 0.717510 0
M  V30 14 C -0.423929 -0.379380 0.027222 0
M  V30 15 N -1.420502 -1.205875 -0.296862 0
M  V30 16 C -1.349845 -2.367230 -0.916201 0
M  V30 17 N -2.421997 -3.219873 -1.249853 0
M  V30 18 C -3.805259 -3.020358 -1.037516 0
M  V30 19 C -4.323056 -1.843903 -0.547318 0
M  V30 20 C -5.643085 -1.591169 -0.317028 0
M  V30 21 C -6.586049 -2.573195 -0.584150 0
M  V30 22 N -7.921462 -2.668220 -0.481706 0
M  V30 23 N -8.309178 -3.884415 -0.893204 0
M  V30 24 C -7.217400 -4.578211 -1.263389 0
M  V30 25 C -6.119037 -3.769636 -1.076554 0
M  V30 26 C -4.781495 -3.959904 -1.285494 0
M  V30 27 C -0.072453 -2.747516 -1.258832 0
M  V30 28 C 0.261648 -3.902811 -1.905901 0
M  V30 29 C 1.521078 -4.296446 -2.254776 0
M  V30 30 C 2.593258 -3.463357 -1.935398 0
M  V30 31 C 2.320589 -2.282751 -1.281932 0
M  V30 32 C 1.021233 -1.956734 -0.964303 0
M  V30 33 N 0.811940 -0.783666 -0.323311 0
M  V30 34 C 0.488816 1.666097 0.997340 0
M  V30 35 H 6.673081 0.032931 1.376798 0
M  V30 36 H 5.041340 0.093168 0.585266 0
M  V30 37 H 5.447024 -1.277289 1.767681 0
M  V30 38 H 4.410585 0.062514 3.309721 0
M  V30 39 H 6.040039 1.762070 4.316466 0
M  V30 40 H 6.512910 0.072240 4.118131 0
M  V30 41 H 7.195363 1.230678 2.955043 0
M  V30 42 H 5.135280 2.296606 1.533701 0
M  V30 43 H 3.382904 4.275232 2.034001 0
M  V30 44 H 2.870007 3.284041 0.614186 0
M  V30 45 H -1.090485 4.276231 2.559572 0
M  V30 46 H -3.035551 2.894412 2.060448 0
M  V30 47 H -2.720723 0.801452 0.920645 0
M  V30 48 H -2.271998 -4.134175 -1.713912 0
M  V30 49 H -3.715923 -0.991246 -0.296425 0
M  V30 50 H -6.047700 -0.672937 0.065449 0
M  V30 51 H -8.543982 -1.890606 -0.128703 0
M  V30 52 H -7.204859 -5.594836 -1.642501 0
M  V30 53 H -4.487759 -4.926340 -1.674700 0
M  V30 54 H -0.497032 -4.596752 -2.188334 0
M  V30 55 H 1.749954 -5.218856 -2.767237 0
M  V30 56 H 3.594208 -3.735225 -2.191197 0
M  V30 57 H 3.141257 -1.604924 -1.016268 0
M  V30 58 H 1.467637 1.368082 0.717287 0
M  V30 END ATOM
M  V30 BEGIN BOND
M  V30 1 1 1 2
M  V30 2 1 2 3
M  V30 3 1 2 4
M  V30 4 1 4 5
M  V30 5 2 5 6
M  V30 6 1 5 7
M  V30 7 1 7 8
M  V30 8 1 8 9
M  V30 9 2 9 10
M  V30 10 1 10 11
M  V30 11 2 11 12
M  V30 12 1 12 13
M  V30 13 1 13 14
M  V30 14 2 14 15
M  V30 15 1 15 16
M  V30 16 1 16 17
M  V30 17 1 17 18
M  V30 18 2 18 19
M  V30 19 1 19 20
M  V30 20 2 20 21
M  V30 21 1 21 22
M  V30 22 1 22 23
M  V30 23 2 23 24
M  V30 24 1 24 25
M  V30 25 2 25 26
M  V30 26 2 16 27
M  V30 27 1 27 28
M  V30 28 2 28 29
M  V30 29 1 29 30
M  V30 30 2 30 31
M  V30 31 1 31 32
M  V30 32 2 32 33
M  V30 33 2 13 34
M  V30 34 1 34 9
M  V30 35 1 33 14
M  V30 36 1 26 18
M  V30 37 1 32 27
M  V30 38 1 25 21
M  V30 39 1 1 35
M  V30 40 1 1 36
M  V30 41 1 1 37
M  V30 42 1 2 38
M  V30 43 1 3 39
M  V30 44 1 3 40
M  V30 45 1 3 41
M  V30 46 1 4 42
M  V30 47 1 7 43
M  V30 48 1 7 44
M  V30 49 1 10 45
M  V30 50 1 11 46
M  V30 51 1 12 47
M  V30 52 1 17 48
M  V30 53 1 19 49
M  V30 54 1 20 50
M  V30 55 1 22 51
M  V30 56 1 24 52
M  V30 57 1 26 53
M  V30 58 1 28 54
M  V30 59 1 29 55
M  V30 60 1 30 56
M  V30 61 1 31 57
M  V30 62 1 34 58
M  V30 END BOND
M  V30 END CTAB
M  END
>  <Dataset>  (23) 
PKIs

>  <Ligand_Instance>  (23) 
nan

>  <PDB_ID>  (23) 
nan

>  <Standardized_SMILES>  (23) 
CC(C)NC(=O)COc1cccc(-c2nc(Nc3ccc4[nH]ncc4c3)c3ccccc3n2)c1

>  <Name>  (23) 
Belumosudil

>  <Pocket>  (23) 
nan

>  <ATP_Site>  (23) 
nan

>  <Peripheral>  (23) 
nan

>  <Num_H_Atoms_ProtBoundConf>  (23) 
nan

>  <Num_Resolved_Atoms>  (23) 
nan

>  <Num_Not_Resolved_Atoms>  (23) 
nan

>  <2D_Mol_H>  (23) 
<rdkit.Chem.rdchem.Mol object at 0x72a2391127a0>

>  <MW>  (23) 
452.518

>  <HBA>  (23) 
6

>  <HBD>  (23) 
3

>  <LogP>  (23) 
4.8201

>  <NRB>  (23) 
9

>  <TPSA>  (23) 
104.82

>  <Num_Heavy_Atoms>  (23) 
34

>  <Ro5>  (23) 
[True, True, True, True, True, True]

>  <Ro5_Fulfilled>  (23) 
True

>  <Ro3>  (23) 
[False, False, True, False]

>  <Ro3_Fulfilled>  (23) 
False

>  <Fsp3>  (23) 
0.153846

>  <Fsp3_0.42>  (23) 
False

>  <Fsp3_0.45>  (23) 
False

>  <Stereogenic_Carbons>  (23) 
0

>  <C_Atoms>  (23) 
26

>  <FCStereo>  (23) 
0.0

>  <SPS>  (23) 
379

>  <nSPS>  (23) 
11.147059

>  <PBF>  (23) 
0.663767

>  <PBF_0.6>  (23) 
True

>  <nPBF>  (23) 
0.019523

>  <nPBF_0.016>  (23) 
True

>  <PMI1>  (23) 
2505.621216

>  <PMI2>  (23) 
8987.945869

>  <PMI3>  (23) 
11072.279011

>  <NPR1>  (23) 
0.226297

>  <NPR2>  (23) 
0.811752

>  <Sum_NPR>  (23) 
1.038049

>  <Sum_NPR_1.07>  (23) 
False

>  <Sum_NPR_1.2>  (23) 
False

>  <MaxAbsEStateIndex>  (23) 
11.935926

>  <MaxEStateIndex>  (23) 
11.935926

>  <MinAbsEStateIndex>  (23) 
0.052078

>  <MinEStateIndex>  (23) 
-0.163485

>  <qed>  (23) 
0.327006

>  <MolWt>  (23) 
452.518

>  <HeavyAtomMolWt>  (23) 
428.326

>  <ExactMolWt>  (23) 
452.196074

>  <NumValenceElectrons>  (23) 
170

>  <NumRadicalElectrons>  (23) 
0

>  <MaxPartialCharge>  (23) 
0.257634

>  <MinPartialCharge>  (23) 
-0.483763

>  <MaxAbsPartialCharge>  (23) 
0.483763

>  <MinAbsPartialCharge>  (23) 
0.257634

>  <FpDensityMorgan1>  (23) 
1.029412

>  <FpDensityMorgan2>  (23) 
1.911765

>  <FpDensityMorgan3>  (23) 
2.794118

>  <BCUT2D_MWHI>  (23) 
16.482299

>  <BCUT2D_MWLOW>  (23) 
10.140359

>  <BCUT2D_CHGHI>  (23) 
2.116943

>  <BCUT2D_CHGLO>  (23) 
-2.12437

>  <BCUT2D_LOGPHI>  (23) 
2.292062

>  <BCUT2D_LOGPLOW>  (23) 
-2.33662

>  <BCUT2D_MRHI>  (23) 
5.929687

>  <BCUT2D_MRLOW>  (23) 
-0.123096

>  <AvgIpc>  (23) 
3.303669

>  <BalabanJ>  (23) 
1.463405

>  <BertzCT>  (23) 
1476.975264

>  <Chi0>  (23) 
23.492989

>  <Chi0n>  (23) 
18.870798

>  <Chi0v>  (23) 
18.870798

>  <Chi1>  (23) 
16.546847

>  <Chi1n>  (23) 
11.045512

>  <Chi1v>  (23) 
11.045512

>  <Chi2n>  (23) 
8.248723

>  <Chi2v>  (23) 
8.248723

>  <Chi3n>  (23) 
5.217998

>  <Chi3v>  (23) 
5.217998

>  <Chi4n>  (23) 
3.695668

>  <Chi4v>  (23) 
3.695668

>  <HallKierAlpha>  (23) 
-4.46

>  <Ipc>  (23) 
83884244.746468

>  <Kappa1>  (23) 
21.38909

>  <Kappa2>  (23) 
9.187182

>  <Kappa3>  (23) 
4.657017

>  <LabuteASA>  (23) 
195.944981

>  <PEOE_VSA1>  (23) 
15.37044

>  <PEOE_VSA10>  (23) 
11.567375

>  <PEOE_VSA11>  (23) 
12.431286

>  <PEOE_VSA12>  (23) 
0.0

>  <PEOE_VSA13>  (23) 
5.90718

>  <PEOE_VSA14>  (23) 
0.0

>  <PEOE_VSA2>  (23) 
9.893219

>  <PEOE_VSA3>  (23) 
9.967957

>  <PEOE_VSA4>  (23) 
5.098682

>  <PEOE_VSA5>  (23) 
0.0

>  <PEOE_VSA6>  (23) 
24.265468

>  <PEOE_VSA7>  (23) 
56.312044

>  <PEOE_VSA8>  (23) 
28.065127

>  <PEOE_VSA9>  (23) 
17.230245

>  <SMR_VSA1>  (23) 
9.5314

>  <SMR_VSA10>  (23) 
39.218279

>  <SMR_VSA2>  (23) 
0.0

>  <SMR_VSA3>  (23) 
25.482109

>  <SMR_VSA4>  (23) 
0.0

>  <SMR_VSA5>  (23) 
19.889315

>  <SMR_VSA6>  (23) 
11.923671

>  <SMR_VSA7>  (23) 
72.926881

>  <SMR_VSA8>  (23) 
0.0

>  <SMR_VSA9>  (23) 
17.137368

>  <SlogP_VSA1>  (23) 
15.37044

>  <SlogP_VSA10>  (23) 
11.505249

>  <SlogP_VSA11>  (23) 
5.749512

>  <SlogP_VSA12>  (23) 
0.0

>  <SlogP_VSA2>  (23) 
38.721223

>  <SlogP_VSA3>  (23) 
4.794537

>  <SlogP_VSA4>  (23) 
0.0

>  <SlogP_VSA5>  (23) 
13.847474

>  <SlogP_VSA6>  (23) 
72.926881

>  <SlogP_VSA7>  (23) 
0.0

>  <SlogP_VSA8>  (23) 
33.193706

>  <SlogP_VSA9>  (23) 
0.0

>  <EState_VSA1>  (23) 
0.0

>  <EState_VSA10>  (23) 
4.794537

>  <EState_VSA11>  (23) 
0.0

>  <EState_VSA2>  (23) 
18.555903

>  <EState_VSA3>  (23) 
17.391779

>  <EState_VSA4>  (23) 
33.056688

>  <EState_VSA5>  (23) 
0.0

>  <EState_VSA6>  (23) 
6.196844

>  <EState_VSA7>  (23) 
80.577512

>  <EState_VSA8>  (23) 
20.830941

>  <EState_VSA9>  (23) 
14.70482

>  <VSA_EState1>  (23) 
5.685346

>  <VSA_EState10>  (23) 
0.0

>  <VSA_EState2>  (23) 
21.529468

>  <VSA_EState3>  (23) 
15.222143

>  <VSA_EState4>  (23) 
3.483802

>  <VSA_EState5>  (23) 
1.671544

>  <VSA_EState6>  (23) 
21.348789

>  <VSA_EState7>  (23) 
1.788645

>  <VSA_EState8>  (23) 
3.770262

>  <VSA_EState9>  (23) 
0.0

>  <FractionCSP3>  (23) 
0.153846

>  <HeavyAtomCount>  (23) 
34

>  <NHOHCount>  (23) 
3

>  <NOCount>  (23) 
8

>  <NumAliphaticCarbocycles>  (23) 
0

>  <NumAliphaticHeterocycles>  (23) 
0

>  <NumAliphaticRings>  (23) 
0

>  <NumAromaticCarbocycles>  (23) 
3

>  <NumAromaticHeterocycles>  (23) 
2

>  <NumAromaticRings>  (23) 
5

>  <NumHAcceptors>  (23) 
6

>  <NumHDonors>  (23) 
3

>  <NumHeteroatoms>  (23) 
8

>  <NumRotatableBonds>  (23) 
7

>  <NumSaturatedCarbocycles>  (23) 
0

>  <NumSaturatedHeterocycles>  (23) 
0

>  <NumSaturatedRings>  (23) 
0

>  <RingCount>  (23) 
5

>  <MolLogP>  (23) 
4.8201

>  <MolMR>  (23) 
133.1241

>  <fr_Al_COO>  (23) 
0

>  <fr_Al_OH>  (23) 
0

>  <fr_Al_OH_noTert>  (23) 
0

>  <fr_ArN>  (23) 
0

>  <fr_Ar_COO>  (23) 
0

>  <fr_Ar_N>  (23) 
4

>  <fr_Ar_NH>  (23) 
1

>  <fr_Ar_OH>  (23) 
0

>  <fr_COO>  (23) 
0

>  <fr_COO2>  (23) 
0

>  <fr_C_O>  (23) 
1

>  <fr_C_O_noCOO>  (23) 
1

>  <fr_C_S>  (23) 
0

>  <fr_HOCCN>  (23) 
0

>  <fr_Imine>  (23) 
0

>  <fr_NH0>  (23) 
3

>  <fr_NH1>  (23) 
3

>  <fr_NH2>  (23) 
0

>  <fr_N_O>  (23) 
0

>  <fr_Ndealkylation1>  (23) 
0

>  <fr_Ndealkylation2>  (23) 
0

>  <fr_Nhpyrrole>  (23) 
1

>  <fr_SH>  (23) 
0

>  <fr_aldehyde>  (23) 
0

>  <fr_alkyl_carbamate>  (23) 
0

>  <fr_alkyl_halide>  (23) 
0

>  <fr_allylic_oxid>  (23) 
0

>  <fr_amide>  (23) 
1

>  <fr_amidine>  (23) 
0

>  <fr_aniline>  (23) 
2

>  <fr_aryl_methyl>  (23) 
0

>  <fr_azide>  (23) 
0

>  <fr_azo>  (23) 
0

>  <fr_barbitur>  (23) 
0

>  <fr_benzene>  (23) 
3

>  <fr_benzodiazepine>  (23) 
0

>  <fr_bicyclic>  (23) 
2

>  <fr_diazo>  (23) 
0

>  <fr_dihydropyridine>  (23) 
0

>  <fr_epoxide>  (23) 
0

>  <fr_ester>  (23) 
0

>  <fr_ether>  (23) 
1

>  <fr_furan>  (23) 
0

>  <fr_guanido>  (23) 
0

>  <fr_halogen>  (23) 
0

>  <fr_hdrzine>  (23) 
0

>  <fr_hdrzone>  (23) 
0

>  <fr_imidazole>  (23) 
0

>  <fr_imide>  (23) 
0

>  <fr_isocyan>  (23) 
0

>  <fr_isothiocyan>  (23) 
0

>  <fr_ketone>  (23) 
0

>  <fr_ketone_Topliss>  (23) 
0

>  <fr_lactam>  (23) 
0

>  <fr_lactone>  (23) 
0

>  <fr_methoxy>  (23) 
0

>  <fr_morpholine>  (23) 
0

>  <fr_nitrile>  (23) 
0

>  <fr_nitro>  (23) 
0

>  <fr_nitro_arom>  (23) 
0

>  <fr_nitro_arom_nonortho>  (23) 
0

>  <fr_nitroso>  (23) 
0

>  <fr_oxazole>  (23) 
0

>  <fr_oxime>  (23) 
0

>  <fr_para_hydroxylation>  (23) 
1

>  <fr_phenol>  (23) 
0

>  <fr_phenol_noOrthoHbond>  (23) 
0

>  <fr_phos_acid>  (23) 
0

>  <fr_phos_ester>  (23) 
0

>  <fr_piperdine>  (23) 
0

>  <fr_piperzine>  (23) 
0

>  <fr_priamide>  (23) 
0

>  <fr_prisulfonamd>  (23) 
0

>  <fr_pyridine>  (23) 
0

>  <fr_quatN>  (23) 
0

>  <fr_sulfide>  (23) 
0

>  <fr_sulfonamd>  (23) 
0

>  <fr_sulfone>  (23) 
0

>  <fr_term_acetylene>  (23) 
0

>  <fr_tetrazole>  (23) 
0

>  <fr_thiazole>  (23) 
0

>  <fr_thiocyan>  (23) 
0

>  <fr_thiophene>  (23) 
0

>  <fr_unbrch_alkane>  (23) 
0

>  <fr_urea>  (23) 
0

>  <NP_Likeness>  (23) 
-1.913252

$$$$
nan
     RDKit          3D

  0  0  0  0  0  0  0  0  0  0999 V3000
M  V30 BEGIN CTAB
M  V30 COUNTS 72 75 0 0 0
M  V30 BEGIN ATOM
M  V30 1 C 5.464053 0.749953 1.534160 0
M  V30 2 C 4.706512 0.117910 0.660654 0
M  V30 3 C 3.436690 -0.587037 0.606253 0
M  V30 4 O 3.148163 -1.024918 -0.505575 0
M  V30 5 N 2.581162 -0.772459 1.715373 0
M  V30 6 C 1.344425 -1.440130 1.743150 0
M  V30 7 C 0.703588 -2.024022 0.674429 0
M  V30 8 C -0.539871 -2.645226 0.889913 0
M  V30 9 N -1.046918 -3.200438 -0.347499 0
M  V30 10 C -0.493407 -3.168653 -1.660159 0
M  V30 11 N 0.355924 -4.081997 -2.095702 0
M  V30 12 C 0.836195 -3.987258 -3.353371 0
M  V30 13 C 0.395354 -2.923093 -4.103727 0
M  V30 14 C -0.475933 -1.950427 -3.715781 0
M  V30 15 C -1.006366 -0.823858 -4.425171 0
M  V30 16 C -2.033090 -0.059296 -3.855581 0
M  V30 17 N -2.377072 0.944960 -4.676040 0
M  V30 18 C -3.393186 1.966259 -4.475332 0
M  V30 19 C -1.640786 0.905942 -5.771996 0
M  V30 20 C -1.546606 1.660640 -6.925560 0
M  V30 21 C -0.646999 1.369685 -7.922742 0
M  V30 22 C 0.184761 0.271123 -7.734686 0
M  V30 23 C 0.083574 -0.471484 -6.584965 0
M  V30 24 C -0.808463 -0.172006 -5.612689 0
M  V30 25 N -0.871816 -2.163067 -2.457203 0
M  V30 26 C -1.165042 -2.700359 2.148546 0
M  V30 27 O -2.336298 -3.377764 1.946005 0
M  V30 28 C -3.253582 -3.650613 2.955076 0
M  V30 29 C -3.827065 -2.448206 3.653611 0
M  V30 30 F -4.716526 -2.926158 4.605512 0
M  V30 31 F -4.448113 -1.623053 2.767469 0
M  V30 32 F -2.837447 -1.788465 4.354056 0
M  V30 33 N -0.502795 -2.118593 3.155898 0
M  V30 34 C 0.677297 -1.531057 2.945581 0
M  V30 35 N 1.334496 -0.971100 4.107491 0
M  V30 36 C 2.414602 -1.858010 4.499269 0
M  V30 37 C 1.292486 0.187970 5.005271 0
M  V30 38 C 0.305813 1.222974 4.622230 0
M  V30 39 N -1.075290 0.816753 4.594590 0
M  V30 40 C -1.539679 0.587624 5.946834 0
M  V30 41 C -1.825418 1.931783 4.054897 0
M  V30 42 H 5.820785 1.174693 2.451242 0
M  V30 43 H 5.674475 1.114120 2.528123 0
M  V30 44 H 5.366722 0.268010 -0.171432 0
M  V30 45 H 2.984605 -0.326622 2.568946 0
M  V30 46 H 1.168980 -1.986213 -0.279541 0
M  V30 47 H -1.948239 -3.722611 -0.387415 0
M  V30 48 H 1.517881 -4.703268 -3.732142 0
M  V30 49 H 0.786910 -2.887985 -5.089714 0
M  V30 50 H -2.571791 -0.144028 -2.904270 0
M  V30 51 H -3.531201 2.213217 -3.417854 0
M  V30 52 H -4.393115 1.661635 -4.867307 0
M  V30 53 H -3.090129 2.922893 -4.993083 0
M  V30 54 H -2.224526 2.518964 -7.028014 0
M  V30 55 H -0.619779 1.991307 -8.797479 0
M  V30 56 H 0.888445 0.054742 -8.528639 0
M  V30 57 H 0.767610 -1.286865 -6.530614 0
M  V30 58 H -2.752527 -4.284053 3.746385 0
M  V30 59 H -4.086387 -4.299271 2.587772 0
M  V30 60 H 2.035737 -2.566444 5.262800 0
M  V30 61 H 3.267302 -1.334845 4.984230 0
M  V30 62 H 2.868130 -2.418067 3.653263 0
M  V30 63 H 1.098540 -0.135088 6.049496 0
M  V30 64 H 2.300428 0.648272 4.960930 0
M  V30 65 H 0.351301 2.015317 5.431046 0
M  V30 66 H 0.594094 1.793299 3.705618 0
M  V30 67 H -1.296985 1.531788 6.518212 0
M  V30 68 H -2.672002 0.579775 5.966280 0
M  V30 69 H -1.117617 -0.284763 6.444168 0
M  V30 70 H -1.298682 2.907686 4.141638 0
M  V30 71 H -2.106974 1.755683 2.987647 0
M  V30 72 H -2.757047 2.065754 4.647854 0
M  V30 END ATOM
M  V30 BEGIN BOND
M  V30 1 2 1 2
M  V30 2 1 2 3
M  V30 3 2 3 4
M  V30 4 1 3 5
M  V30 5 1 5 6
M  V30 6 2 6 7
M  V30 7 1 7 8
M  V30 8 1 8 9
M  V30 9 1 9 10
M  V30 10 2 10 11
M  V30 11 1 11 12
M  V30 12 2 12 13
M  V30 13 1 13 14
M  V30 14 1 14 15
M  V30 15 2 15 16
M  V30 16 1 16 17
M  V30 17 1 17 18
M  V30 18 1 17 19
M  V30 19 2 19 20
M  V30 20 1 20 21
M  V30 21 2 21 22
M  V30 22 1 22 23
M  V30 23 2 23 24
M  V30 24 2 14 25
M  V30 25 2 8 26
M  V30 26 1 26 27
M  V30 27 1 27 28
M  V30 28 1 28 29
M  V30 29 1 29 30
M  V30 30 1 29 31
M  V30 31 1 29 32
M  V30 32 1 26 33
M  V30 33 2 33 34
M  V30 34 1 34 35
M  V30 35 1 35 36
M  V30 36 1 35 37
M  V30 37 1 37 38
M  V30 38 1 38 39
M  V30 39 1 39 40
M  V30 40 1 39 41
M  V30 41 1 34 6
M  V30 42 1 25 10
M  V30 43 1 24 15
M  V30 44 1 24 19
M  V30 45 1 1 42
M  V30 46 1 1 43
M  V30 47 1 2 44
M  V30 48 1 5 45
M  V30 49 1 7 46
M  V30 50 1 9 47
M  V30 51 1 12 48
M  V30 52 1 13 49
M  V30 53 1 16 50
M  V30 54 1 18 51
M  V30 55 1 18 52
M  V30 56 1 18 53
M  V30 57 1 20 54
M  V30 58 1 21 55
M  V30 59 1 22 56
M  V30 60 1 23 57
M  V30 61 1 28 58
M  V30 62 1 28 59
M  V30 63 1 36 60
M  V30 64 1 36 61
M  V30 65 1 36 62
M  V30 66 1 37 63
M  V30 67 1 37 64
M  V30 68 1 38 65
M  V30 69 1 38 66
M  V30 70 1 40 67
M  V30 71 1 40 68
M  V30 72 1 40 69
M  V30 73 1 41 70
M  V30 74 1 41 71
M  V30 75 1 41 72
M  V30 END BOND
M  V30 END CTAB
M  END
>  <Dataset>  (24) 
PKIs

>  <Ligand_Instance>  (24) 
nan

>  <PDB_ID>  (24) 
nan

>  <Standardized_SMILES>  (24) 
C=CC(=O)Nc1cc(Nc2nccc(-c3cn(C)c4ccccc34)n2)c(OCC(F)(F)F)nc1N(C)CCN(C)C

>  <Name>  (24) 
Furmonertinib

>  <Pocket>  (24) 
nan

>  <ATP_Site>  (24) 
nan

>  <Peripheral>  (24) 
nan

>  <Num_H_Atoms_ProtBoundConf>  (24) 
nan

>  <Num_Resolved_Atoms>  (24) 
nan

>  <Num_Not_Resolved_Atoms>  (24) 
nan

>  <2D_Mol_H>  (24) 
<rdkit.Chem.rdchem.Mol object at 0x72a239112880>

>  <MW>  (24) 
568.604

>  <HBA>  (24) 
9

>  <HBD>  (24) 
2

>  <LogP>  (24) 
4.8373

>  <NRB>  (24) 
15

>  <TPSA>  (24) 
100.44

>  <Num_Heavy_Atoms>  (24) 
41

>  <Ro5>  (24) 
[False, True, True, True, False, True]

>  <Ro5_Fulfilled>  (24) 
False

>  <Ro3>  (24) 
[False, False, True, False]

>  <Ro3_Fulfilled>  (24) 
False

>  <Fsp3>  (24) 
0.285714

>  <Fsp3_0.42>  (24) 
False

>  <Fsp3_0.45>  (24) 
False

>  <Stereogenic_Carbons>  (24) 
0

>  <C_Atoms>  (24) 
28

>  <FCStereo>  (24) 
0.0

>  <SPS>  (24) 
472

>  <nSPS>  (24) 
11.512195

>  <PBF>  (24) 
1.713043

>  <PBF_0.6>  (24) 
True

>  <nPBF>  (24) 
0.041782

>  <nPBF_0.016>  (24) 
True

>  <PMI1>  (24) 
4788.82418

>  <PMI2>  (24) 
11030.098668

>  <PMI3>  (24) 
12607.779427

>  <NPR1>  (24) 
0.379831

>  <NPR2>  (24) 
0.874865

>  <Sum_NPR>  (24) 
1.254695

>  <Sum_NPR_1.07>  (24) 
True

>  <Sum_NPR_1.2>  (24) 
True

>  <MaxAbsEStateIndex>  (24) 
13.152133

>  <MaxEStateIndex>  (24) 
13.152133

>  <MinAbsEStateIndex>  (24) 
0.035594

>  <MinEStateIndex>  (24) 
-4.600747

>  <qed>  (24) 
0.248215

>  <MolWt>  (24) 
568.604

>  <HeavyAtomMolWt>  (24) 
537.356

>  <ExactMolWt>  (24) 
568.252207

>  <NumValenceElectrons>  (24) 
216

>  <NumRadicalElectrons>  (24) 
0

>  <MaxPartialCharge>  (24) 
0.422134

>  <MinPartialCharge>  (24) 
-0.466482

>  <MaxAbsPartialCharge>  (24) 
0.466482

>  <MinAbsPartialCharge>  (24) 
0.422134

>  <FpDensityMorgan1>  (24) 
1.121951

>  <FpDensityMorgan2>  (24) 
1.878049

>  <FpDensityMorgan3>  (24) 
2.585366

>  <BCUT2D_MWHI>  (24) 
19.413339

>  <BCUT2D_MWLOW>  (24) 
10.114779

>  <BCUT2D_CHGHI>  (24) 
2.298371

>  <BCUT2D_CHGLO>  (24) 
-2.246247

>  <BCUT2D_LOGPHI>  (24) 
2.359788

>  <BCUT2D_LOGPLOW>  (24) 
-2.299361

>  <BCUT2D_MRHI>  (24) 
6.012135

>  <BCUT2D_MRLOW>  (24) 
-0.153478

>  <AvgIpc>  (24) 
3.269346

>  <BalabanJ>  (24) 
1.761389

>  <BertzCT>  (24) 
1551.369738

>  <Chi0>  (24) 
29.733476

>  <Chi0n>  (24) 
23.158251

>  <Chi0v>  (24) 
23.158251

>  <Chi1>  (24) 
19.445711

>  <Chi1n>  (24) 
12.632686

>  <Chi1v>  (24) 
12.632686

>  <Chi2n>  (24) 
9.595626

>  <Chi2v>  (24) 
9.595626

>  <Chi3n>  (24) 
6.102404

>  <Chi3v>  (24) 
6.102404

>  <Chi4n>  (24) 
4.094843

>  <Chi4v>  (24) 
4.094843

>  <HallKierAlpha>  (24) 
-4.65

>  <Ipc>  (24) 
933653154.03041

>  <Kappa1>  (24) 
29.335519

>  <Kappa2>  (24) 
12.250708

>  <Kappa3>  (24) 
7.307702

>  <LabuteASA>  (24) 
235.021157

>  <PEOE_VSA1>  (24) 
29.737359

>  <PEOE_VSA10>  (24) 
5.687386

>  <PEOE_VSA11>  (24) 
12.424745

>  <PEOE_VSA12>  (24) 
17.735507

>  <PEOE_VSA13>  (24) 
0.0

>  <PEOE_VSA14>  (24) 
6.176299

>  <PEOE_VSA2>  (24) 
4.794537

>  <PEOE_VSA3>  (24) 
9.967957

>  <PEOE_VSA4>  (24) 
18.155224

>  <PEOE_VSA5>  (24) 
0.0

>  <PEOE_VSA6>  (24) 
24.778037

>  <PEOE_VSA7>  (24) 
38.370465

>  <PEOE_VSA8>  (24) 
56.04492

>  <PEOE_VSA9>  (24) 
11.381314

>  <SMR_VSA1>  (24) 
22.702645

>  <SMR_VSA10>  (24) 
39.951079

>  <SMR_VSA2>  (24) 
0.0

>  <SMR_VSA3>  (24) 
24.418945

>  <SMR_VSA4>  (24) 
7.047672

>  <SMR_VSA5>  (24) 
6.176299

>  <SMR_VSA6>  (24) 
56.372898

>  <SMR_VSA7>  (24) 
61.446845

>  <SMR_VSA8>  (24) 
0.0

>  <SMR_VSA9>  (24) 
17.137368

>  <SlogP_VSA1>  (24) 
20.27035

>  <SlogP_VSA10>  (24) 
36.31222

>  <SlogP_VSA11>  (24) 
5.879988

>  <SlogP_VSA12>  (24) 
0.0

>  <SlogP_VSA2>  (24) 
77.341834

>  <SlogP_VSA3>  (24) 
11.842209

>  <SlogP_VSA4>  (24) 
0.0

>  <SlogP_VSA5>  (24) 
0.0

>  <SlogP_VSA6>  (24) 
61.446845

>  <SlogP_VSA7>  (24) 
0.0

>  <SlogP_VSA8>  (24) 
22.160304

>  <SlogP_VSA9>  (24) 
0.0

>  <EState_VSA1>  (24) 
18.69036

>  <EState_VSA10>  (24) 
17.965782

>  <EState_VSA11>  (24) 
0.0

>  <EState_VSA2>  (24) 
29.020963

>  <EState_VSA3>  (24) 
18.783441

>  <EState_VSA4>  (24) 
22.542397

>  <EState_VSA5>  (24) 
6.066367

>  <EState_VSA6>  (24) 
24.210792

>  <EState_VSA7>  (24) 
61.072337

>  <EState_VSA8>  (24) 
32.164448

>  <EState_VSA9>  (24) 
4.736863

>  <VSA_EState1>  (24) 
46.560487

>  <VSA_EState10>  (24) 
0.0

>  <VSA_EState2>  (24) 
29.120065

>  <VSA_EState3>  (24) 
6.594117

>  <VSA_EState4>  (24) 
2.748298

>  <VSA_EState5>  (24) 
-0.525956

>  <VSA_EState6>  (24) 
11.023627

>  <VSA_EState7>  (24) 
-0.032367

>  <VSA_EState8>  (24) 
3.008792

>  <VSA_EState9>  (24) 
7.419605

>  <FractionCSP3>  (24) 
0.285714

>  <HeavyAtomCount>  (24) 
41

>  <NHOHCount>  (24) 
2

>  <NOCount>  (24) 
10

>  <NumAliphaticCarbocycles>  (24) 
0

>  <NumAliphaticHeterocycles>  (24) 
0

>  <NumAliphaticRings>  (24) 
0

>  <NumAromaticCarbocycles>  (24) 
1

>  <NumAromaticHeterocycles>  (24) 
3

>  <NumAromaticRings>  (24) 
4

>  <NumHAcceptors>  (24) 
9

>  <NumHDonors>  (24) 
2

>  <NumHeteroatoms>  (24) 
13

>  <NumRotatableBonds>  (24) 
11

>  <NumSaturatedCarbocycles>  (24) 
0

>  <NumSaturatedHeterocycles>  (24) 
0

>  <NumSaturatedRings>  (24) 
0

>  <RingCount>  (24) 
4

>  <MolLogP>  (24) 
4.8373

>  <MolMR>  (24) 
153.6654

>  <fr_Al_COO>  (24) 
0

>  <fr_Al_OH>  (24) 
0

>  <fr_Al_OH_noTert>  (24) 
0

>  <fr_ArN>  (24) 
0

>  <fr_Ar_COO>  (24) 
0

>  <fr_Ar_N>  (24) 
4

>  <fr_Ar_NH>  (24) 
0

>  <fr_Ar_OH>  (24) 
0

>  <fr_COO>  (24) 
0

>  <fr_COO2>  (24) 
0

>  <fr_C_O>  (24) 
1

>  <fr_C_O_noCOO>  (24) 
1

>  <fr_C_S>  (24) 
0

>  <fr_HOCCN>  (24) 
0

>  <fr_Imine>  (24) 
0

>  <fr_NH0>  (24) 
6

>  <fr_NH1>  (24) 
2

>  <fr_NH2>  (24) 
0

>  <fr_N_O>  (24) 
0

>  <fr_Ndealkylation1>  (24) 
2

>  <fr_Ndealkylation2>  (24) 
0

>  <fr_Nhpyrrole>  (24) 
0

>  <fr_SH>  (24) 
0

>  <fr_aldehyde>  (24) 
0

>  <fr_alkyl_carbamate>  (24) 
0

>  <fr_alkyl_halide>  (24) 
3

>  <fr_allylic_oxid>  (24) 
0

>  <fr_amide>  (24) 
1

>  <fr_amidine>  (24) 
0

>  <fr_aniline>  (24) 
4

>  <fr_aryl_methyl>  (24) 
1

>  <fr_azide>  (24) 
0

>  <fr_azo>  (24) 
0

>  <fr_barbitur>  (24) 
0

>  <fr_benzene>  (24) 
1

>  <fr_benzodiazepine>  (24) 
0

>  <fr_bicyclic>  (24) 
1

>  <fr_diazo>  (24) 
0

>  <fr_dihydropyridine>  (24) 
0

>  <fr_epoxide>  (24) 
0

>  <fr_ester>  (24) 
0

>  <fr_ether>  (24) 
1

>  <fr_furan>  (24) 
0

>  <fr_guanido>  (24) 
0

>  <fr_halogen>  (24) 
3

>  <fr_hdrzine>  (24) 
0

>  <fr_hdrzone>  (24) 
0

>  <fr_imidazole>  (24) 
0

>  <fr_imide>  (24) 
0

>  <fr_isocyan>  (24) 
0

>  <fr_isothiocyan>  (24) 
0

>  <fr_ketone>  (24) 
0

>  <fr_ketone_Topliss>  (24) 
0

>  <fr_lactam>  (24) 
0

>  <fr_lactone>  (24) 
0

>  <fr_methoxy>  (24) 
0

>  <fr_morpholine>  (24) 
0

>  <fr_nitrile>  (24) 
0

>  <fr_nitro>  (24) 
0

>  <fr_nitro_arom>  (24) 
0

>  <fr_nitro_arom_nonortho>  (24) 
0

>  <fr_nitroso>  (24) 
0

>  <fr_oxazole>  (24) 
0

>  <fr_oxime>  (24) 
0

>  <fr_para_hydroxylation>  (24) 
1

>  <fr_phenol>  (24) 
0

>  <fr_phenol_noOrthoHbond>  (24) 
0

>  <fr_phos_acid>  (24) 
0

>  <fr_phos_ester>  (24) 
0

>  <fr_piperdine>  (24) 
0

>  <fr_piperzine>  (24) 
0

>  <fr_priamide>  (24) 
0

>  <fr_prisulfonamd>  (24) 
0

>  <fr_pyridine>  (24) 
1

>  <fr_quatN>  (24) 
0

>  <fr_sulfide>  (24) 
0

>  <fr_sulfonamd>  (24) 
0

>  <fr_sulfone>  (24) 
0

>  <fr_term_acetylene>  (24) 
0

>  <fr_tetrazole>  (24) 
0

>  <fr_thiazole>  (24) 
0

>  <fr_thiocyan>  (24) 
0

>  <fr_thiophene>  (24) 
0

>  <fr_unbrch_alkane>  (24) 
0

>  <fr_urea>  (24) 
0

>  <NP_Likeness>  (24) 
-1.227148

$$$$
nan
     RDKit          3D

  0  0  0  0  0  0  0  0  0  0999 V3000
M  V30 BEGIN CTAB
M  V30 COUNTS 43 45 0 0 0
M  V30 BEGIN ATOM
M  V30 1 C -2.910802 -3.009418 0.788492 0
M  V30 2 C -2.522774 -1.745422 0.068720 0
M  V30 3 C -3.471699 -0.615264 0.410855 0
M  V30 4 N -1.162165 -1.415817 0.453482 0
M  V30 5 C -0.514025 -0.274947 -0.057012 0
M  V30 6 N -1.178610 0.539529 -0.928680 0
M  V30 7 C -0.370111 1.555005 -1.278158 0
M  V30 8 C -0.450289 2.665968 -2.094129 0
M  V30 9 C 0.619421 3.549779 -2.232536 0
M  V30 10 Cl 0.523197 4.962626 -3.267811 0
M  V30 11 C 1.786075 3.308216 -1.537334 0
M  V30 12 Cl 3.188836 4.352305 -1.638111 0
M  V30 13 C 1.864210 2.194091 -0.720184 0
M  V30 14 C 0.788350 1.309396 -0.583900 0
M  V30 15 N 0.717460 0.175684 0.180727 0
M  V30 16 C 1.713176 -0.381037 1.017212 0 CFG=1
M  V30 17 O 1.290172 -0.229796 2.355427 0
M  V30 18 C 2.085556 -1.113988 3.077430 0 CFG=1
M  V30 19 C 1.584704 -1.345841 4.461617 0
M  V30 20 O 2.433088 -2.246378 5.129024 0
M  V30 21 C 2.090807 -2.359535 2.227469 0 CFG=2
M  V30 22 O 3.220860 -3.147556 2.475702 0
M  V30 23 C 2.141436 -1.750290 0.852631 0 CFG=2
M  V30 24 O 3.511055 -1.779957 0.482908 0
M  V30 25 H -2.328108 -3.060388 1.738033 0
M  V30 26 H -2.552581 -3.866157 0.163819 0
M  V30 27 H -4.003347 -3.017854 0.965819 0
M  V30 28 H -2.518270 -1.949060 -1.020697 0
M  V30 29 H -3.142672 -0.022576 1.283715 0
M  V30 30 H -4.451624 -1.040572 0.690444 0
M  V30 31 H -3.532876 0.074843 -0.451137 0
M  V30 32 H -0.623005 -2.011794 1.118787 0
M  V30 33 H -1.379291 2.848452 -2.640518 0
M  V30 34 H 2.778722 2.006135 -0.176173 0
M  V30 35 H 2.605045 0.316738 0.961309 0
M  V30 36 H 3.130322 -0.750479 3.111128 0
M  V30 37 H 0.533458 -1.626446 4.501708 0
M  V30 38 H 1.721849 -0.376841 5.016267 0
M  V30 39 H 3.363065 -2.009767 4.815457 0
M  V30 40 H 1.156369 -2.964368 2.385835 0
M  V30 41 H 2.957907 -3.816955 3.166235 0
M  V30 42 H 1.653058 -2.366460 0.085853 0
M  V30 43 H 3.629019 -1.943187 -0.470935 0
M  V30 END ATOM
M  V30 BEGIN BOND
M  V30 1 1 1 2
M  V30 2 1 2 3
M  V30 3 1 2 4
M  V30 4 1 4 5
M  V30 5 2 5 6
M  V30 6 1 6 7
M  V30 7 2 7 8
M  V30 8 1 8 9
M  V30 9 1 9 10
M  V30 10 2 9 11
M  V30 11 1 11 12
M  V30 12 1 11 13
M  V30 13 2 13 14
M  V30 14 1 14 15
M  V30 15 1 15 16
M  V30 16 1 16 17
M  V30 17 1 17 18
M  V30 18 1 18 19
M  V30 19 1 19 20
M  V30 20 1 18 21
M  V30 21 1 21 22
M  V30 22 1 21 23
M  V30 23 1 23 24
M  V30 24 1 15 5
M  V30 25 1 23 16
M  V30 26 1 14 7
M  V30 27 1 1 25
M  V30 28 1 1 26
M  V30 29 1 1 27
M  V30 30 1 2 28
M  V30 31 1 3 29
M  V30 32 1 3 30
M  V30 33 1 3 31
M  V30 34 1 4 32
M  V30 35 1 8 33
M  V30 36 1 13 34
M  V30 37 1 16 35 CFG=1
M  V30 38 1 18 36 CFG=1
M  V30 39 1 19 37
M  V30 40 1 19 38
M  V30 41 1 20 39
M  V30 42 1 21 40 CFG=3
M  V30 43 1 22 41
M  V30 44 1 23 42 CFG=3
M  V30 45 1 24 43
M  V30 END BOND
M  V30 END CTAB
M  END
>  <Dataset>  (25) 
PKIs

>  <Ligand_Instance>  (25) 
nan

>  <PDB_ID>  (25) 
nan

>  <Standardized_SMILES>  (25) 
CC(C)Nc1nc2cc(Cl)c(Cl)cc2n1[C@H]1O[C@@H](CO)[C@H](O)[C@@H]1O

>  <Name>  (25) 
Maribavir

>  <Pocket>  (25) 
nan

>  <ATP_Site>  (25) 
nan

>  <Peripheral>  (25) 
nan

>  <Num_H_Atoms_ProtBoundConf>  (25) 
nan

>  <Num_Resolved_Atoms>  (25) 
nan

>  <Num_Not_Resolved_Atoms>  (25) 
nan

>  <2D_Mol_H>  (25) 
<rdkit.Chem.rdchem.Mol object at 0x72a239112960>

>  <MW>  (25) 
376.24

>  <HBA>  (25) 
7

>  <HBD>  (25) 
4

>  <LogP>  (25) 
1.7749

>  <NRB>  (25) 
9

>  <TPSA>  (25) 
99.77

>  <Num_Heavy_Atoms>  (25) 
24

>  <Ro5>  (25) 
[True, True, True, True, True, True]

>  <Ro5_Fulfilled>  (25) 
True

>  <Ro3>  (25) 
[False, False, False, True]

>  <Ro3_Fulfilled>  (25) 
False

>  <Fsp3>  (25) 
0.533333

>  <Fsp3_0.42>  (25) 
True

>  <Fsp3_0.45>  (25) 
True

>  <Stereogenic_Carbons>  (25) 
4

>  <C_Atoms>  (25) 
15

>  <FCStereo>  (25) 
0.266667

>  <SPS>  (25) 
656

>  <nSPS>  (25) 
27.333333

>  <PBF>  (25) 
0.80307

>  <PBF_0.6>  (25) 
True

>  <nPBF>  (25) 
0.033461

>  <nPBF_0.016>  (25) 
True

>  <PMI1>  (25) 
1804.997244

>  <PMI2>  (25) 
4307.609893

>  <PMI3>  (25) 
5579.438683

>  <NPR1>  (25) 
0.323509

>  <NPR2>  (25) 
0.772051

>  <Sum_NPR>  (25) 
1.09556

>  <Sum_NPR_1.07>  (25) 
True

>  <Sum_NPR_1.2>  (25) 
False

>  <MaxAbsEStateIndex>  (25) 
10.351172

>  <MaxEStateIndex>  (25) 
10.351172

>  <MinAbsEStateIndex>  (25) 
0.072791

>  <MinEStateIndex>  (25) 
-1.220634

>  <qed>  (25) 
0.649309

>  <MolWt>  (25) 
376.24

>  <HeavyAtomMolWt>  (25) 
357.088

>  <ExactMolWt>  (25) 
375.075261

>  <NumValenceElectrons>  (25) 
132

>  <NumRadicalElectrons>  (25) 
0

>  <MaxPartialCharge>  (25) 
0.205833

>  <MinPartialCharge>  (25) 
-0.393567

>  <MaxAbsPartialCharge>  (25) 
0.393567

>  <MinAbsPartialCharge>  (25) 
0.205833

>  <FpDensityMorgan1>  (25) 
1.25

>  <FpDensityMorgan2>  (25) 
1.916667

>  <FpDensityMorgan3>  (25) 
2.5

>  <BCUT2D_MWHI>  (25) 
35.498262

>  <BCUT2D_MWLOW>  (25) 
10.124439

>  <BCUT2D_CHGHI>  (25) 
2.442944

>  <BCUT2D_CHGLO>  (25) 
-2.209524

>  <BCUT2D_LOGPHI>  (25) 
2.369622

>  <BCUT2D_LOGPLOW>  (25) 
-2.329776

>  <BCUT2D_MRHI>  (25) 
6.422755

>  <BCUT2D_MRLOW>  (25) 
-0.049914

>  <AvgIpc>  (25) 
2.973842

>  <BalabanJ>  (25) 
2.152065

>  <BertzCT>  (25) 
751.884658

>  <Chi0>  (25) 
17.593494

>  <Chi0n>  (25) 
13.148804

>  <Chi0v>  (25) 
14.660662

>  <Chi1>  (25) 
11.328606

>  <Chi1n>  (25) 
7.590945

>  <Chi1v>  (25) 
8.346874

>  <Chi2n>  (25) 
6.088339

>  <Chi2v>  (25) 
6.902739

>  <Chi3n>  (25) 
3.920953

>  <Chi3v>  (25) 
4.643103

>  <Chi4n>  (25) 
2.801322

>  <Chi4v>  (25) 
3.11713

>  <HallKierAlpha>  (25) 
-1.09

>  <Ipc>  (25) 
265367.8407

>  <Kappa1>  (25) 
17.724026

>  <Kappa2>  (25) 
6.665656

>  <Kappa3>  (25) 
2.960882

>  <LabuteASA>  (25) 
148.318194

>  <PEOE_VSA1>  (25) 
25.373234

>  <PEOE_VSA10>  (25) 
18.311899

>  <PEOE_VSA11>  (25) 
6.227901

>  <PEOE_VSA12>  (25) 
5.948339

>  <PEOE_VSA13>  (25) 
0.0

>  <PEOE_VSA14>  (25) 
0.0

>  <PEOE_VSA2>  (25) 
4.5671

>  <PEOE_VSA3>  (25) 
4.983979

>  <PEOE_VSA4>  (25) 
0.0

>  <PEOE_VSA5>  (25) 
0.0

>  <PEOE_VSA6>  (25) 
23.20188

>  <PEOE_VSA7>  (25) 
25.980209

>  <PEOE_VSA8>  (25) 
6.041841

>  <PEOE_VSA9>  (25) 
27.68555

>  <SMR_VSA1>  (25) 
20.056445

>  <SMR_VSA10>  (25) 
40.18362

>  <SMR_VSA2>  (25) 
0.0

>  <SMR_VSA3>  (25) 
9.551078

>  <SMR_VSA4>  (25) 
0.0

>  <SMR_VSA5>  (25) 
44.429116

>  <SMR_VSA6>  (25) 
11.923671

>  <SMR_VSA7>  (25) 
22.178001

>  <SMR_VSA8>  (25) 
0.0

>  <SMR_VSA9>  (25) 
0.0

>  <SlogP_VSA1>  (25) 
5.316789

>  <SlogP_VSA10>  (25) 
5.948339

>  <SlogP_VSA11>  (25) 
0.0

>  <SlogP_VSA12>  (25) 
23.20188

>  <SlogP_VSA2>  (25) 
55.831282

>  <SlogP_VSA3>  (25) 
4.736863

>  <SlogP_VSA4>  (25) 
0.0

>  <SlogP_VSA5>  (25) 
20.075376

>  <SlogP_VSA6>  (25) 
12.132734

>  <SlogP_VSA7>  (25) 
10.045267

>  <SlogP_VSA8>  (25) 
11.033401

>  <SlogP_VSA9>  (25) 
0.0

>  <EState_VSA1>  (25) 
31.146682

>  <EState_VSA10>  (25) 
15.319582

>  <EState_VSA11>  (25) 
0.0

>  <EState_VSA2>  (25) 
6.041841

>  <EState_VSA3>  (25) 
27.027007

>  <EState_VSA4>  (25) 
0.0

>  <EState_VSA5>  (25) 
0.0

>  <EState_VSA6>  (25) 
16.699834

>  <EState_VSA7>  (25) 
13.847474

>  <EState_VSA8>  (25) 
10.300767

>  <EState_VSA9>  (25) 
27.938743

>  <VSA_EState1>  (25) 
7.262931

>  <VSA_EState10>  (25) 
12.172966

>  <VSA_EState2>  (25) 
4.483223

>  <VSA_EState3>  (25) 
33.572851

>  <VSA_EState4>  (25) 
1.173776

>  <VSA_EState5>  (25) 
0.452012

>  <VSA_EState6>  (25) 
3.331698

>  <VSA_EState7>  (25) 
-4.216109

>  <VSA_EState8>  (25) 
3.488876

>  <VSA_EState9>  (25) 
0.0

>  <FractionCSP3>  (25) 
0.533333

>  <HeavyAtomCount>  (25) 
24

>  <NHOHCount>  (25) 
4

>  <NOCount>  (25) 
7

>  <NumAliphaticCarbocycles>  (25) 
0

>  <NumAliphaticHeterocycles>  (25) 
1

>  <NumAliphaticRings>  (25) 
1

>  <NumAromaticCarbocycles>  (25) 
1

>  <NumAromaticHeterocycles>  (25) 
1

>  <NumAromaticRings>  (25) 
2

>  <NumHAcceptors>  (25) 
7

>  <NumHDonors>  (25) 
4

>  <NumHeteroatoms>  (25) 
9

>  <NumRotatableBonds>  (25) 
4

>  <NumSaturatedCarbocycles>  (25) 
0

>  <NumSaturatedHeterocycles>  (25) 
1

>  <NumSaturatedRings>  (25) 
1

>  <RingCount>  (25) 
3

>  <MolLogP>  (25) 
1.7749

>  <MolMR>  (25) 
91.5211

>  <fr_Al_COO>  (25) 
0

>  <fr_Al_OH>  (25) 
3

>  <fr_Al_OH_noTert>  (25) 
3

>  <fr_ArN>  (25) 
0

>  <fr_Ar_COO>  (25) 
0

>  <fr_Ar_N>  (25) 
2

>  <fr_Ar_NH>  (25) 
0

>  <fr_Ar_OH>  (25) 
0

>  <fr_COO>  (25) 
0

>  <fr_COO2>  (25) 
0

>  <fr_C_O>  (25) 
0

>  <fr_C_O_noCOO>  (25) 
0

>  <fr_C_S>  (25) 
0

>  <fr_HOCCN>  (25) 
0

>  <fr_Imine>  (25) 
0

>  <fr_NH0>  (25) 
2

>  <fr_NH1>  (25) 
1

>  <fr_NH2>  (25) 
0

>  <fr_N_O>  (25) 
0

>  <fr_Ndealkylation1>  (25) 
0

>  <fr_Ndealkylation2>  (25) 
0

>  <fr_Nhpyrrole>  (25) 
0

>  <fr_SH>  (25) 
0

>  <fr_aldehyde>  (25) 
0

>  <fr_alkyl_carbamate>  (25) 
0

>  <fr_alkyl_halide>  (25) 
0

>  <fr_allylic_oxid>  (25) 
0

>  <fr_amide>  (25) 
0

>  <fr_amidine>  (25) 
0

>  <fr_aniline>  (25) 
1

>  <fr_aryl_methyl>  (25) 
0

>  <fr_azide>  (25) 
0

>  <fr_azo>  (25) 
0

>  <fr_barbitur>  (25) 
0

>  <fr_benzene>  (25) 
1

>  <fr_benzodiazepine>  (25) 
0

>  <fr_bicyclic>  (25) 
1

>  <fr_diazo>  (25) 
0

>  <fr_dihydropyridine>  (25) 
0

>  <fr_epoxide>  (25) 
0

>  <fr_ester>  (25) 
0

>  <fr_ether>  (25) 
1

>  <fr_furan>  (25) 
0

>  <fr_guanido>  (25) 
0

>  <fr_halogen>  (25) 
2

>  <fr_hdrzine>  (25) 
0

>  <fr_hdrzone>  (25) 
0

>  <fr_imidazole>  (25) 
1

>  <fr_imide>  (25) 
0

>  <fr_isocyan>  (25) 
0

>  <fr_isothiocyan>  (25) 
0

>  <fr_ketone>  (25) 
0

>  <fr_ketone_Topliss>  (25) 
0

>  <fr_lactam>  (25) 
0

>  <fr_lactone>  (25) 
0

>  <fr_methoxy>  (25) 
0

>  <fr_morpholine>  (25) 
0

>  <fr_nitrile>  (25) 
0

>  <fr_nitro>  (25) 
0

>  <fr_nitro_arom>  (25) 
0

>  <fr_nitro_arom_nonortho>  (25) 
0

>  <fr_nitroso>  (25) 
0

>  <fr_oxazole>  (25) 
0

>  <fr_oxime>  (25) 
0

>  <fr_para_hydroxylation>  (25) 
0

>  <fr_phenol>  (25) 
0

>  <fr_phenol_noOrthoHbond>  (25) 
0

>  <fr_phos_acid>  (25) 
0

>  <fr_phos_ester>  (25) 
0

>  <fr_piperdine>  (25) 
0

>  <fr_piperzine>  (25) 
0

>  <fr_priamide>  (25) 
0

>  <fr_prisulfonamd>  (25) 
0

>  <fr_pyridine>  (25) 
0

>  <fr_quatN>  (25) 
0

>  <fr_sulfide>  (25) 
0

>  <fr_sulfonamd>  (25) 
0

>  <fr_sulfone>  (25) 
0

>  <fr_term_acetylene>  (25) 
0

>  <fr_tetrazole>  (25) 
0

>  <fr_thiazole>  (25) 
0

>  <fr_thiocyan>  (25) 
0

>  <fr_thiophene>  (25) 
0

>  <fr_unbrch_alkane>  (25) 
0

>  <fr_urea>  (25) 
0

>  <NP_Likeness>  (25) 
0.13922

$$$$
nan
     RDKit          3D

  0  0  0  0  0  0  0  0  0  0999 V3000
M  V30 BEGIN CTAB
M  V30 COUNTS 66 71 0 0 0
M  V30 BEGIN ATOM
M  V30 1 C 3.334372 -3.460900 7.801588 0
M  V30 2 C 2.441942 -2.442977 7.178921 0
M  V30 3 C 1.826801 -1.609049 8.301317 0
M  V30 4 O 3.041288 -1.620444 6.215523 0
M  V30 5 C 2.584351 -1.312204 4.969075 0
M  V30 6 C 1.408780 -1.753106 4.341006 0
M  V30 7 C 1.061549 -1.357503 3.069284 0
M  V30 8 C 1.852250 -0.499839 2.332054 0
M  V30 9 C 1.399228 -0.149437 0.992955 0
M  V30 10 N 1.025052 -0.938888 -0.033034 0
M  V30 11 N 0.655123 -0.243728 -1.070766 0
M  V30 12 C 0.166937 -0.601034 -2.420510 0 CFG=1
M  V30 13 C 0.651738 -1.977162 -2.662862 0
M  V30 14 C -1.254885 -0.333328 -2.431659 0
M  V30 15 O -1.684012 0.712056 -1.737417 0
M  V30 16 C -2.916891 1.082396 -1.645495 0
M  V30 17 C -3.216047 2.198660 -0.884131 0
M  V30 18 C -4.499697 2.694805 -0.709779 0
M  V30 19 C -5.493643 1.985269 -1.362517 0
M  V30 20 F -6.775028 2.448042 -1.214389 0
M  V30 21 C -5.272032 0.867375 -2.136739 0
M  V30 22 C -3.977878 0.442546 -2.258159 0
M  V30 23 C -3.588982 -0.665313 -3.002944 0
M  V30 24 O -4.491112 -1.310679 -3.597448 0
M  V30 25 C -2.244378 -1.010589 -3.061394 0
M  V30 26 C -1.965973 -2.179887 -3.889525 0
M  V30 27 C -1.903842 -3.543377 -3.691188 0
M  V30 28 C -1.611381 -4.402945 -4.710790 0
M  V30 29 C -1.361946 -3.959371 -5.989048 0
M  V30 30 C -1.413748 -2.587937 -6.234042 0
M  V30 31 F -1.156478 -2.245320 -7.508513 0
M  V30 32 C -1.712135 -1.718381 -5.192482 0
M  V30 33 C 0.766319 1.090234 -0.780208 0
M  V30 34 N 0.515495 2.230277 -1.464423 0
M  V30 35 C 0.697206 3.450769 -0.939758 0
M  V30 36 N 1.155910 3.545753 0.342826 0
M  V30 37 C 1.409343 2.411232 1.034195 0
M  V30 38 N 1.849909 2.613571 2.367262 0
M  V30 39 C 1.237279 1.138860 0.531097 0
M  V30 40 C 3.011695 -0.065770 2.947958 0
M  V30 41 C 3.362864 -0.458313 4.219592 0
M  V30 42 F 4.520792 0.038790 4.710606 0
M  V30 43 H 4.081312 -2.956449 8.458132 0
M  V30 44 H 2.693683 -4.044775 8.532346 0
M  V30 45 H 3.783921 -4.198244 7.132875 0
M  V30 46 H 1.568866 -2.957345 6.709517 0
M  V30 47 H 2.258963 -1.965639 9.252795 0
M  V30 48 H 2.192070 -0.564112 8.181057 0
M  V30 49 H 0.743664 -1.704216 8.376477 0
M  V30 50 H 0.802510 -2.424087 4.922204 0
M  V30 51 H 0.122005 -1.760852 2.670850 0
M  V30 52 H 0.656352 0.070938 -3.153876 0
M  V30 53 H 0.235492 -2.740415 -1.968930 0
M  V30 54 H 0.698829 -2.292183 -3.718610 0
M  V30 55 H 1.750741 -1.968693 -2.366016 0
M  V30 56 H -2.454843 2.786594 -0.346845 0
M  V30 57 H -4.708265 3.574055 -0.105802 0
M  V30 58 H -6.058098 0.320550 -2.643070 0
M  V30 59 H -2.123356 -3.723118 -2.629281 0
M  V30 60 H -1.614924 -5.431999 -4.343712 0
M  V30 61 H -1.143642 -4.746435 -6.702438 0
M  V30 62 H -1.705693 -0.693506 -5.584115 0
M  V30 63 H 0.443238 4.242235 -1.633959 0
M  V30 64 H 2.753414 3.175696 2.429525 0
M  V30 65 H 1.494940 2.340847 3.324386 0
M  V30 66 H 3.649464 0.583700 2.397686 0
M  V30 END ATOM
M  V30 BEGIN BOND
M  V30 1 1 1 2
M  V30 2 1 2 3
M  V30 3 1 2 4
M  V30 4 1 4 5
M  V30 5 2 5 6
M  V30 6 1 6 7
M  V30 7 2 7 8
M  V30 8 1 8 9
M  V30 9 2 9 10
M  V30 10 1 10 11
M  V30 11 1 11 12
M  V30 12 1 12 13
M  V30 13 1 12 14
M  V30 14 1 14 15
M  V30 15 1 15 16
M  V30 16 2 16 17
M  V30 17 1 17 18
M  V30 18 2 18 19
M  V30 19 1 19 20
M  V30 20 1 19 21
M  V30 21 2 21 22
M  V30 22 1 22 23
M  V30 23 2 23 24
M  V30 24 1 23 25
M  V30 25 1 25 26
M  V30 26 2 26 27
M  V30 27 1 27 28
M  V30 28 2 28 29
M  V30 29 1 29 30
M  V30 30 1 30 31
M  V30 31 2 30 32
M  V30 32 1 11 33
M  V30 33 2 33 34
M  V30 34 1 34 35
M  V30 35 2 35 36
M  V30 36 1 36 37
M  V30 37 1 37 38
M  V30 38 2 37 39
M  V30 39 1 8 40
M  V30 40 2 40 41
M  V30 41 1 41 42
M  V30 42 1 41 5
M  V30 43 1 39 9
M  V30 44 2 25 14
M  V30 45 1 32 26
M  V30 46 1 39 33
M  V30 47 1 22 16
M  V30 48 1 1 43
M  V30 49 1 1 44
M  V30 50 1 1 45
M  V30 51 1 2 46
M  V30 52 1 3 47
M  V30 53 1 3 48
M  V30 54 1 3 49
M  V30 55 1 6 50
M  V30 56 1 7 51
M  V30 57 1 12 52 CFG=3
M  V30 58 1 13 53
M  V30 59 1 13 54
M  V30 60 1 13 55
M  V30 61 1 17 56
M  V30 62 1 18 57
M  V30 63 1 21 58
M  V30 64 1 27 59
M  V30 65 1 28 60
M  V30 66 1 29 61
M  V30 67 1 32 62
M  V30 68 1 35 63
M  V30 69 1 38 64
M  V30 70 1 38 65
M  V30 71 1 40 66
M  V30 END BOND
M  V30 END CTAB
M  END
>  <Dataset>  (26) 
PKIs

>  <Ligand_Instance>  (26) 
nan

>  <PDB_ID>  (26) 
nan

>  <Standardized_SMILES>  (26) 
CC(C)Oc1ccc(-c2nn([C@@H](C)c3oc4ccc(F)cc4c(=O)c3-c3cccc(F)c3)c3ncnc(N)c23)cc1F

>  <Name>  (26) 
Umbralisib

>  <Pocket>  (26) 
nan

>  <ATP_Site>  (26) 
nan

>  <Peripheral>  (26) 
nan

>  <Num_H_Atoms_ProtBoundConf>  (26) 
nan

>  <Num_Resolved_Atoms>  (26) 
nan

>  <Num_Not_Resolved_Atoms>  (26) 
nan

>  <2D_Mol_H>  (26) 
<rdkit.Chem.rdchem.Mol object at 0x72a239112a40>

>  <MW>  (26) 
571.559

>  <HBA>  (26) 
8

>  <HBD>  (26) 
1

>  <LogP>  (26) 
6.6627

>  <NRB>  (26) 
10

>  <TPSA>  (26) 
109.06

>  <Num_Heavy_Atoms>  (26) 
42

>  <Ro5>  (26) 
[False, True, True, False, True, True]

>  <Ro5_Fulfilled>  (26) 
False

>  <Ro3>  (26) 
[False, False, True, False]

>  <Ro3_Fulfilled>  (26) 
False

>  <Fsp3>  (26) 
0.16129

>  <Fsp3_0.42>  (26) 
False

>  <Fsp3_0.45>  (26) 
False

>  <Stereogenic_Carbons>  (26) 
1

>  <C_Atoms>  (26) 
31

>  <FCStereo>  (26) 
0.032258

>  <SPS>  (26) 
519

>  <nSPS>  (26) 
12.357143

>  <PBF>  (26) 
1.509973

>  <PBF_0.6>  (26) 
True

>  <nPBF>  (26) 
0.035952

>  <nPBF_0.016>  (26) 
True

>  <PMI1>  (26) 
4402.15994

>  <PMI2>  (26) 
12897.211802

>  <PMI3>  (26) 
14249.582829

>  <NPR1>  (26) 
0.308933

>  <NPR2>  (26) 
0.905094

>  <Sum_NPR>  (26) 
1.214027

>  <Sum_NPR_1.07>  (26) 
True

>  <Sum_NPR_1.2>  (26) 
True

>  <MaxAbsEStateIndex>  (26) 
14.992335

>  <MaxEStateIndex>  (26) 
14.992335

>  <MinAbsEStateIndex>  (26) 
0.001828

>  <MinEStateIndex>  (26) 
-0.815403

>  <qed>  (26) 
0.238033

>  <MolWt>  (26) 
571.559

>  <HeavyAtomMolWt>  (26) 
547.367

>  <ExactMolWt>  (26) 
571.183124

>  <NumValenceElectrons>  (26) 
212

>  <NumRadicalElectrons>  (26) 
0

>  <MaxPartialCharge>  (26) 
0.200475

>  <MinPartialCharge>  (26) 
-0.48794

>  <MaxAbsPartialCharge>  (26) 
0.48794

>  <MinAbsPartialCharge>  (26) 
0.200475

>  <FpDensityMorgan1>  (26) 
0.928571

>  <FpDensityMorgan2>  (26) 
1.714286

>  <FpDensityMorgan3>  (26) 
2.452381

>  <BCUT2D_MWHI>  (26) 
19.144962

>  <BCUT2D_MWLOW>  (26) 
9.987513

>  <BCUT2D_CHGHI>  (26) 
2.273132

>  <BCUT2D_CHGLO>  (26) 
-2.170735

>  <BCUT2D_LOGPHI>  (26) 
2.370294

>  <BCUT2D_LOGPLOW>  (26) 
-2.162558

>  <BCUT2D_MRHI>  (26) 
5.981051

>  <BCUT2D_MRLOW>  (26) 
0.231006

>  <AvgIpc>  (26) 
3.346044

>  <BalabanJ>  (26) 
1.5917

>  <BertzCT>  (26) 
2054.678878

>  <Chi0>  (26) 
29.706013

>  <Chi0n>  (26) 
22.730396

>  <Chi0v>  (26) 
22.730396

>  <Chi1>  (26) 
20.117101

>  <Chi1n>  (26) 
13.095005

>  <Chi1v>  (26) 
13.095005

>  <Chi2n>  (26) 
10.059739

>  <Chi2v>  (26) 
10.059739

>  <Chi3n>  (26) 
6.825321

>  <Chi3v>  (26) 
6.825321

>  <Chi4n>  (26) 
4.97244

>  <Chi4v>  (26) 
4.97244

>  <HallKierAlpha>  (26) 
-5.19

>  <Ipc>  (26) 
3093776983.924135

>  <Kappa1>  (26) 
27.003131

>  <Kappa2>  (26) 
10.330666

>  <Kappa3>  (26) 
4.619605

>  <LabuteASA>  (26) 
236.753636

>  <PEOE_VSA1>  (26) 
14.887681

>  <PEOE_VSA10>  (26) 
46.858661

>  <PEOE_VSA11>  (26) 
17.21391

>  <PEOE_VSA12>  (26) 
5.42879

>  <PEOE_VSA13>  (26) 
0.0

>  <PEOE_VSA14>  (26) 
0.0

>  <PEOE_VSA2>  (26) 
4.794537

>  <PEOE_VSA3>  (26) 
27.821005

>  <PEOE_VSA4>  (26) 
5.098682

>  <PEOE_VSA5>  (26) 
0.0

>  <PEOE_VSA6>  (26) 
12.132734

>  <PEOE_VSA7>  (26) 
74.8656

>  <PEOE_VSA8>  (26) 
5.563451

>  <PEOE_VSA9>  (26) 
22.439866

>  <SMR_VSA1>  (26) 
22.325259

>  <SMR_VSA10>  (26) 
27.820509

>  <SMR_VSA2>  (26) 
0.0

>  <SMR_VSA3>  (26) 
19.748442

>  <SMR_VSA4>  (26) 
0.0

>  <SMR_VSA5>  (26) 
32.917019

>  <SMR_VSA6>  (26) 
5.733667

>  <SMR_VSA7>  (26) 
100.426228

>  <SMR_VSA8>  (26) 
0.0

>  <SMR_VSA9>  (26) 
28.133794

>  <SlogP_VSA1>  (26) 
15.899321

>  <SlogP_VSA10>  (26) 
18.989108

>  <SlogP_VSA11>  (26) 
5.749512

>  <SlogP_VSA12>  (26) 
0.0

>  <SlogP_VSA2>  (26) 
25.852408

>  <SlogP_VSA3>  (26) 
0.0

>  <SlogP_VSA4>  (26) 
17.451663

>  <SlogP_VSA5>  (26) 
32.5733

>  <SlogP_VSA6>  (26) 
76.202679

>  <SlogP_VSA7>  (26) 
0.0

>  <SlogP_VSA8>  (26) 
44.386928

>  <SlogP_VSA9>  (26) 
0.0

>  <EState_VSA1>  (26) 
28.922294

>  <EState_VSA10>  (26) 
17.965782

>  <EState_VSA11>  (26) 
0.0

>  <EState_VSA2>  (26) 
45.527736

>  <EState_VSA3>  (26) 
22.290781

>  <EState_VSA4>  (26) 
6.066367

>  <EState_VSA5>  (26) 
53.473692

>  <EState_VSA6>  (26) 
32.903946

>  <EState_VSA7>  (26) 
0.0

>  <EState_VSA8>  (26) 
9.967957

>  <EState_VSA9>  (26) 
19.986363

>  <VSA_EState1>  (26) 
56.629238

>  <VSA_EState10>  (26) 
0.0

>  <VSA_EState2>  (26) 
22.250327

>  <VSA_EState3>  (26) 
5.096993

>  <VSA_EState4>  (26) 
7.101697

>  <VSA_EState5>  (26) 
-1.447783

>  <VSA_EState6>  (26) 
12.699112

>  <VSA_EState7>  (26) 
1.03699

>  <VSA_EState8>  (26) 
5.300093

>  <VSA_EState9>  (26) 
0.0

>  <FractionCSP3>  (26) 
0.16129

>  <HeavyAtomCount>  (26) 
42

>  <NHOHCount>  (26) 
2

>  <NOCount>  (26) 
8

>  <NumAliphaticCarbocycles>  (26) 
0

>  <NumAliphaticHeterocycles>  (26) 
0

>  <NumAliphaticRings>  (26) 
0

>  <NumAromaticCarbocycles>  (26) 
3

>  <NumAromaticHeterocycles>  (26) 
3

>  <NumAromaticRings>  (26) 
6

>  <NumHAcceptors>  (26) 
8

>  <NumHDonors>  (26) 
1

>  <NumHeteroatoms>  (26) 
11

>  <NumRotatableBonds>  (26) 
6

>  <NumSaturatedCarbocycles>  (26) 
0

>  <NumSaturatedHeterocycles>  (26) 
0

>  <NumSaturatedRings>  (26) 
0

>  <RingCount>  (26) 
6

>  <MolLogP>  (26) 
6.6627

>  <MolMR>  (26) 
152.5424

>  <fr_Al_COO>  (26) 
0

>  <fr_Al_OH>  (26) 
0

>  <fr_Al_OH_noTert>  (26) 
0

>  <fr_ArN>  (26) 
1

>  <fr_Ar_COO>  (26) 
0

>  <fr_Ar_N>  (26) 
4

>  <fr_Ar_NH>  (26) 
0

>  <fr_Ar_OH>  (26) 
0

>  <fr_COO>  (26) 
0

>  <fr_COO2>  (26) 
0

>  <fr_C_O>  (26) 
0

>  <fr_C_O_noCOO>  (26) 
0

>  <fr_C_S>  (26) 
0

>  <fr_HOCCN>  (26) 
0

>  <fr_Imine>  (26) 
0

>  <fr_NH0>  (26) 
4

>  <fr_NH1>  (26) 
0

>  <fr_NH2>  (26) 
1

>  <fr_N_O>  (26) 
0

>  <fr_Ndealkylation1>  (26) 
0

>  <fr_Ndealkylation2>  (26) 
0

>  <fr_Nhpyrrole>  (26) 
0

>  <fr_SH>  (26) 
0

>  <fr_aldehyde>  (26) 
0

>  <fr_alkyl_carbamate>  (26) 
0

>  <fr_alkyl_halide>  (26) 
0

>  <fr_allylic_oxid>  (26) 
0

>  <fr_amide>  (26) 
0

>  <fr_amidine>  (26) 
0

>  <fr_aniline>  (26) 
1

>  <fr_aryl_methyl>  (26) 
0

>  <fr_azide>  (26) 
0

>  <fr_azo>  (26) 
0

>  <fr_barbitur>  (26) 
0

>  <fr_benzene>  (26) 
3

>  <fr_benzodiazepine>  (26) 
0

>  <fr_bicyclic>  (26) 
2

>  <fr_diazo>  (26) 
0

>  <fr_dihydropyridine>  (26) 
0

>  <fr_epoxide>  (26) 
0

>  <fr_ester>  (26) 
0

>  <fr_ether>  (26) 
1

>  <fr_furan>  (26) 
0

>  <fr_guanido>  (26) 
0

>  <fr_halogen>  (26) 
3

>  <fr_hdrzine>  (26) 
0

>  <fr_hdrzone>  (26) 
0

>  <fr_imidazole>  (26) 
0

>  <fr_imide>  (26) 
0

>  <fr_isocyan>  (26) 
0

>  <fr_isothiocyan>  (26) 
0

>  <fr_ketone>  (26) 
0

>  <fr_ketone_Topliss>  (26) 
0

>  <fr_lactam>  (26) 
0

>  <fr_lactone>  (26) 
0

>  <fr_methoxy>  (26) 
0

>  <fr_morpholine>  (26) 
0

>  <fr_nitrile>  (26) 
0

>  <fr_nitro>  (26) 
0

>  <fr_nitro_arom>  (26) 
0

>  <fr_nitro_arom_nonortho>  (26) 
0

>  <fr_nitroso>  (26) 
0

>  <fr_oxazole>  (26) 
0

>  <fr_oxime>  (26) 
0

>  <fr_para_hydroxylation>  (26) 
0

>  <fr_phenol>  (26) 
0

>  <fr_phenol_noOrthoHbond>  (26) 
0

>  <fr_phos_acid>  (26) 
0

>  <fr_phos_ester>  (26) 
0

>  <fr_piperdine>  (26) 
0

>  <fr_piperzine>  (26) 
0

>  <fr_priamide>  (26) 
0

>  <fr_prisulfonamd>  (26) 
0

>  <fr_pyridine>  (26) 
0

>  <fr_quatN>  (26) 
0

>  <fr_sulfide>  (26) 
0

>  <fr_sulfonamd>  (26) 
0

>  <fr_sulfone>  (26) 
0

>  <fr_term_acetylene>  (26) 
0

>  <fr_tetrazole>  (26) 
0

>  <fr_thiazole>  (26) 
0

>  <fr_thiocyan>  (26) 
0

>  <fr_thiophene>  (26) 
0

>  <fr_unbrch_alkane>  (26) 
0

>  <fr_urea>  (26) 
0

>  <NP_Likeness>  (26) 
-0.875947

$$$$
nan
     RDKit          3D

  0  0  0  0  0  0  0  0  0  0999 V3000
M  V30 BEGIN CTAB
M  V30 COUNTS 82 85 0 0 0
M  V30 BEGIN ATOM
M  V30 1 C 4.804864 -3.921968 3.223823 0
M  V30 2 C 4.234446 -4.309048 2.100432 0
M  V30 3 C 3.781659 -3.363303 1.095131 0
M  V30 4 O 3.238842 -3.811272 0.030243 0
M  V30 5 N 3.898237 -1.951484 1.204042 0
M  V30 6 C 3.367153 -1.297282 0.061877 0
M  V30 7 C 2.046516 -0.922743 -0.061474 0
M  V30 8 C 1.486376 -0.283403 -1.147752 0
M  V30 9 N 0.117624 0.068112 -1.226452 0
M  V30 10 C -0.898975 -0.086378 -0.249345 0
M  V30 11 N -0.744904 -0.552230 0.995058 0
M  V30 12 C -1.725005 -0.694531 1.897715 0
M  V30 13 C -2.976140 -0.319311 1.467740 0
M  V30 14 C -4.086458 -0.468179 2.391189 0
M  V30 15 O -3.970072 -0.886211 3.569681 0
M  V30 16 O -5.417654 -0.220455 2.239118 0
M  V30 17 C -6.410301 -0.406606 3.226050 0
M  V30 18 C -7.250633 0.800383 3.492807 0
M  V30 19 C -7.357365 -1.460412 2.619096 0
M  V30 20 C -3.219754 0.168107 0.207756 0
M  V30 21 C -4.506023 0.577588 -0.317723 0
M  V30 22 C -5.484772 1.503934 0.022752 0
M  V30 23 N -6.480373 1.440650 -0.873263 0
M  V30 24 C -7.662818 2.269318 -0.826843 0
M  V30 25 C -6.186862 0.501680 -1.792183 0
M  V30 26 C -6.936694 0.101738 -2.902571 0
M  V30 27 C -6.428179 -0.883667 -3.702571 0
M  V30 28 C -5.218460 -1.461168 -3.424049 0
M  V30 29 C -4.496694 -1.052874 -2.326952 0
M  V30 30 C -4.961513 -0.059605 -1.479930 0
M  V30 31 N -2.151619 0.258915 -0.593798 0
M  V30 32 C 2.384695 -0.014184 -2.189765 0
M  V30 33 O 1.875570 0.628186 -3.308098 0
M  V30 34 C 2.744949 0.920147 -4.384134 0
M  V30 35 C 3.706149 -0.380896 -2.082853 0
M  V30 36 C 4.229841 -1.019892 -0.979767 0
M  V30 37 N 5.598855 -1.349519 -0.987389 0
M  V30 38 C 6.183654 -2.694680 -0.943072 0
M  V30 39 C 6.615630 -0.287906 -1.036769 0
M  V30 40 C 7.365942 -0.235898 0.280681 0
M  V30 41 N 6.491480 0.042493 1.387214 0
M  V30 42 C 5.962171 1.388536 1.353645 0
M  V30 43 C 7.058394 -0.202813 2.678846 0
M  V30 44 H 5.195732 -3.247365 3.956512 0
M  V30 45 H 5.158206 -4.587812 3.994787 0
M  V30 46 H 4.125683 -5.356865 1.979163 0
M  V30 47 H 4.350560 -1.653611 2.099889 0
M  V30 48 H 1.470365 -1.188460 0.806089 0
M  V30 49 H -0.151595 0.499968 -2.145051 0
M  V30 50 H -1.517181 -1.076881 2.877533 0
M  V30 51 H -6.017908 -0.780728 4.197010 0
M  V30 52 H -6.723803 1.393854 4.271401 0
M  V30 53 H -7.497655 1.400986 2.600614 0
M  V30 54 H -8.210067 0.460252 3.932847 0
M  V30 55 H -6.687579 -2.332850 2.354856 0
M  V30 56 H -7.704700 -1.058114 1.652912 0
M  V30 57 H -8.154229 -1.746384 3.304660 0
M  V30 58 H -5.350632 2.122995 0.887882 0
M  V30 59 H -8.317204 2.063724 0.047348 0
M  V30 60 H -8.306136 2.083814 -1.721673 0
M  V30 61 H -7.411855 3.358430 -0.789577 0
M  V30 62 H -7.889038 0.578960 -3.095968 0
M  V30 63 H -7.073669 -1.140259 -4.552706 0
M  V30 64 H -4.852991 -2.233479 -4.080323 0
M  V30 65 H -3.543055 -1.505461 -2.106226 0
M  V30 66 H 3.686820 1.405043 -4.024377 0
M  V30 67 H 3.030077 0.039072 -4.963634 0
M  V30 68 H 2.263286 1.615962 -5.116303 0
M  V30 69 H 4.365381 -0.151691 -2.913841 0
M  V30 70 H 5.514777 -3.428960 -1.440969 0
M  V30 71 H 7.155003 -2.725266 -1.510481 0
M  V30 72 H 6.466993 -2.983519 0.089234 0
M  V30 73 H 6.215066 0.677422 -1.354519 0
M  V30 74 H 7.342956 -0.597206 -1.813778 0
M  V30 75 H 8.102526 0.577879 0.202121 0
M  V30 76 H 7.929632 -1.167824 0.415591 0
M  V30 77 H 6.289545 1.952540 2.250063 0
M  V30 78 H 4.843687 1.340320 1.286009 0
M  V30 79 H 6.401729 1.897182 0.469180 0
M  V30 80 H 6.569876 -1.083846 3.190478 0
M  V30 81 H 8.156997 -0.405383 2.656082 0
M  V30 82 H 6.846244 0.652529 3.372742 0
M  V30 END ATOM
M  V30 BEGIN BOND
M  V30 1 2 1 2
M  V30 2 1 2 3
M  V30 3 2 3 4
M  V30 4 1 3 5
M  V30 5 1 5 6
M  V30 6 2 6 7
M  V30 7 1 7 8
M  V30 8 1 8 9
M  V30 9 1 9 10
M  V30 10 2 10 11
M  V30 11 1 11 12
M  V30 12 2 12 13
M  V30 13 1 13 14
M  V30 14 2 14 15
M  V30 15 1 14 16
M  V30 16 1 16 17
M  V30 17 1 17 18
M  V30 18 1 17 19
M  V30 19 1 13 20
M  V30 20 1 20 21
M  V30 21 2 21 22
M  V30 22 1 22 23
M  V30 23 1 23 24
M  V30 24 1 23 25
M  V30 25 2 25 26
M  V30 26 1 26 27
M  V30 27 2 27 28
M  V30 28 1 28 29
M  V30 29 2 29 30
M  V30 30 2 20 31
M  V30 31 2 8 32
M  V30 32 1 32 33
M  V30 33 1 33 34
M  V30 34 1 32 35
M  V30 35 2 35 36
M  V30 36 1 36 37
M  V30 37 1 37 38
M  V30 38 1 37 39
M  V30 39 1 39 40
M  V30 40 1 40 41
M  V30 41 1 41 42
M  V30 42 1 41 43
M  V30 43 1 36 6
M  V30 44 1 31 10
M  V30 45 1 30 21
M  V30 46 1 30 25
M  V30 47 1 1 44
M  V30 48 1 1 45
M  V30 49 1 2 46
M  V30 50 1 5 47
M  V30 51 1 7 48
M  V30 52 1 9 49
M  V30 53 1 12 50
M  V30 54 1 17 51
M  V30 55 1 18 52
M  V30 56 1 18 53
M  V30 57 1 18 54
M  V30 58 1 19 55
M  V30 59 1 19 56
M  V30 60 1 19 57
M  V30 61 1 22 58
M  V30 62 1 24 59
M  V30 63 1 24 60
M  V30 64 1 24 61
M  V30 65 1 26 62
M  V30 66 1 27 63
M  V30 67 1 28 64
M  V30 68 1 29 65
M  V30 69 1 34 66
M  V30 70 1 34 67
M  V30 71 1 34 68
M  V30 72 1 35 69
M  V30 73 1 38 70
M  V30 74 1 38 71
M  V30 75 1 38 72
M  V30 76 1 39 73
M  V30 77 1 39 74
M  V30 78 1 40 75
M  V30 79 1 40 76
M  V30 80 1 42 77
M  V30 81 1 42 78
M  V30 82 1 42 79
M  V30 83 1 43 80
M  V30 84 1 43 81
M  V30 85 1 43 82
M  V30 END BOND
M  V30 END CTAB
M  END
>  <Dataset>  (27) 
PKIs

>  <Ligand_Instance>  (27) 
nan

>  <PDB_ID>  (27) 
nan

>  <Standardized_SMILES>  (27) 
C=CC(=O)Nc1cc(Nc2ncc(C(=O)OC(C)C)c(-c3cn(C)c4ccccc34)n2)c(OC)cc1N(C)CCN(C)C

>  <Name>  (27) 
Mobocertinib

>  <Pocket>  (27) 
nan

>  <ATP_Site>  (27) 
nan

>  <Peripheral>  (27) 
nan

>  <Num_H_Atoms_ProtBoundConf>  (27) 
nan

>  <Num_Resolved_Atoms>  (27) 
nan

>  <Num_Not_Resolved_Atoms>  (27) 
nan

>  <2D_Mol_H>  (27) 
<rdkit.Chem.rdchem.Mol object at 0x72a239112b20>

>  <MW>  (27) 
585.709

>  <HBA>  (27) 
10

>  <HBD>  (27) 
2

>  <LogP>  (27) 
5.075

>  <NRB>  (27) 
19

>  <TPSA>  (27) 
113.85

>  <Num_Heavy_Atoms>  (27) 
43

>  <Ro5>  (27) 
[False, True, True, False, False, True]

>  <Ro5_Fulfilled>  (27) 
False

>  <Ro3>  (27) 
[False, False, True, False]

>  <Ro3_Fulfilled>  (27) 
False

>  <Fsp3>  (27) 
0.3125

>  <Fsp3_0.42>  (27) 
False

>  <Fsp3_0.45>  (27) 
False

>  <Stereogenic_Carbons>  (27) 
0

>  <C_Atoms>  (27) 
32

>  <FCStereo>  (27) 
0.0

>  <SPS>  (27) 
477

>  <nSPS>  (27) 
11.093023

>  <PBF>  (27) 
1.205136

>  <PBF_0.6>  (27) 
True

>  <nPBF>  (27) 
0.028026

>  <nPBF_0.016>  (27) 
True

>  <PMI1>  (27) 
3667.738074

>  <PMI2>  (27) 
15469.461564

>  <PMI3>  (27) 
17237.770179

>  <NPR1>  (27) 
0.212773

>  <NPR2>  (27) 
0.897417

>  <Sum_NPR>  (27) 
1.11019

>  <Sum_NPR_1.07>  (27) 
True

>  <Sum_NPR_1.2>  (27) 
False

>  <MaxAbsEStateIndex>  (27) 
13.129256

>  <MaxEStateIndex>  (27) 
13.129256

>  <MinAbsEStateIndex>  (27) 
0.233371

>  <MinEStateIndex>  (27) 
-0.512405

>  <qed>  (27) 
0.173659

>  <MolWt>  (27) 
585.709

>  <HeavyAtomMolWt>  (27) 
546.397

>  <ExactMolWt>  (27) 
585.306353

>  <NumValenceElectrons>  (27) 
226

>  <NumRadicalElectrons>  (27) 
0

>  <MaxPartialCharge>  (27) 
0.341707

>  <MinPartialCharge>  (27) 
-0.494495

>  <MaxAbsPartialCharge>  (27) 
0.494495

>  <MinAbsPartialCharge>  (27) 
0.341707

>  <FpDensityMorgan1>  (27) 
1.116279

>  <FpDensityMorgan2>  (27) 
1.860465

>  <FpDensityMorgan3>  (27) 
2.534884

>  <BCUT2D_MWHI>  (27) 
16.542177

>  <BCUT2D_MWLOW>  (27) 
10.061945

>  <BCUT2D_CHGHI>  (27) 
2.226886

>  <BCUT2D_CHGLO>  (27) 
-2.255534

>  <BCUT2D_LOGPHI>  (27) 
2.385142

>  <BCUT2D_LOGPLOW>  (27) 
-2.289186

>  <BCUT2D_MRHI>  (27) 
6.035048

>  <BCUT2D_MRLOW>  (27) 
-0.111437

>  <AvgIpc>  (27) 
3.313007

>  <BalabanJ>  (27) 
1.815817

>  <BertzCT>  (27) 
1644.479129

>  <Chi0>  (27) 
31.25842

>  <Chi0n>  (27) 
25.763884

>  <Chi0v>  (27) 
25.763884

>  <Chi1>  (27) 
20.514478

>  <Chi1n>  (27) 
13.927214

>  <Chi1v>  (27) 
13.927214

>  <Chi2n>  (27) 
10.69363

>  <Chi2v>  (27) 
10.69363

>  <Chi3n>  (27) 
6.804911

>  <Chi3v>  (27) 
6.804911

>  <Chi4n>  (27) 
4.630953

>  <Chi4v>  (27) 
4.630953

>  <HallKierAlpha>  (27) 
-4.9

>  <Ipc>  (27) 
2638614438.591915

>  <Kappa1>  (27) 
31.04482

>  <Kappa2>  (27) 
13.385647

>  <Kappa3>  (27) 
7.123987

>  <LabuteASA>  (27) 
251.674797

>  <PEOE_VSA1>  (27) 
34.474222

>  <PEOE_VSA10>  (27) 
11.312963

>  <PEOE_VSA11>  (27) 
0.0

>  <PEOE_VSA12>  (27) 
11.855519

>  <PEOE_VSA13>  (27) 
0.0

>  <PEOE_VSA14>  (27) 
5.969305

>  <PEOE_VSA2>  (27) 
4.794537

>  <PEOE_VSA3>  (27) 
14.762494

>  <PEOE_VSA4>  (27) 
0.0

>  <PEOE_VSA5>  (27) 
0.0

>  <PEOE_VSA6>  (27) 
24.778037

>  <PEOE_VSA7>  (27) 
46.151573

>  <PEOE_VSA8>  (27) 
62.111287

>  <PEOE_VSA9>  (27) 
35.969851

>  <SMR_VSA1>  (27) 
19.0628

>  <SMR_VSA10>  (27) 
45.789908

>  <SMR_VSA2>  (27) 
0.0

>  <SMR_VSA3>  (27) 
19.434966

>  <SMR_VSA4>  (27) 
7.047672

>  <SMR_VSA5>  (27) 
19.951441

>  <SMR_VSA6>  (27) 
56.875813

>  <SMR_VSA7>  (27) 
67.010297

>  <SMR_VSA8>  (27) 
0.0

>  <SMR_VSA9>  (27) 
17.006891

>  <SlogP_VSA1>  (27) 
20.27035

>  <SlogP_VSA10>  (27) 
23.010498

>  <SlogP_VSA11>  (27) 
5.749512

>  <SlogP_VSA12>  (27) 
0.0

>  <SlogP_VSA2>  (27) 
78.757744

>  <SlogP_VSA3>  (27) 
16.579072

>  <SlogP_VSA4>  (27) 
0.0

>  <SlogP_VSA5>  (27) 
24.205463

>  <SlogP_VSA6>  (27) 
61.446845

>  <SlogP_VSA7>  (27) 
0.0

>  <SlogP_VSA8>  (27) 
22.160304

>  <SlogP_VSA9>  (27) 
0.0

>  <EState_VSA1>  (27) 
5.969305

>  <EState_VSA10>  (27) 
9.589074

>  <EState_VSA11>  (27) 
0.0

>  <EState_VSA2>  (27) 
23.522937

>  <EState_VSA3>  (27) 
29.362969

>  <EState_VSA4>  (27) 
28.698519

>  <EState_VSA5>  (27) 
12.272864

>  <EState_VSA6>  (27) 
27.023639

>  <EState_VSA7>  (27) 
74.186376

>  <EState_VSA8>  (27) 
27.096401

>  <EState_VSA9>  (27) 
14.457704

>  <VSA_EState1>  (27) 
13.246375

>  <VSA_EState10>  (27) 
0.0

>  <VSA_EState2>  (27) 
38.869453

>  <VSA_EState3>  (27) 
7.064914

>  <VSA_EState4>  (27) 
4.28336

>  <VSA_EState5>  (27) 
-0.109778

>  <VSA_EState6>  (27) 
11.510077

>  <VSA_EState7>  (27) 
4.307166

>  <VSA_EState8>  (27) 
8.696846

>  <VSA_EState9>  (27) 
9.46492

>  <FractionCSP3>  (27) 
0.3125

>  <HeavyAtomCount>  (27) 
43

>  <NHOHCount>  (27) 
2

>  <NOCount>  (27) 
11

>  <NumAliphaticCarbocycles>  (27) 
0

>  <NumAliphaticHeterocycles>  (27) 
0

>  <NumAliphaticRings>  (27) 
0

>  <NumAromaticCarbocycles>  (27) 
2

>  <NumAromaticHeterocycles>  (27) 
2

>  <NumAromaticRings>  (27) 
4

>  <NumHAcceptors>  (27) 
10

>  <NumHDonors>  (27) 
2

>  <NumHeteroatoms>  (27) 
11

>  <NumRotatableBonds>  (27) 
12

>  <NumSaturatedCarbocycles>  (27) 
0

>  <NumSaturatedHeterocycles>  (27) 
0

>  <NumSaturatedRings>  (27) 
0

>  <RingCount>  (27) 
4

>  <MolLogP>  (27) 
5.075

>  <MolMR>  (27) 
171.4239

>  <fr_Al_COO>  (27) 
0

>  <fr_Al_OH>  (27) 
0

>  <fr_Al_OH_noTert>  (27) 
0

>  <fr_ArN>  (27) 
0

>  <fr_Ar_COO>  (27) 
0

>  <fr_Ar_N>  (27) 
3

>  <fr_Ar_NH>  (27) 
0

>  <fr_Ar_OH>  (27) 
0

>  <fr_COO>  (27) 
0

>  <fr_COO2>  (27) 
0

>  <fr_C_O>  (27) 
2

>  <fr_C_O_noCOO>  (27) 
2

>  <fr_C_S>  (27) 
0

>  <fr_HOCCN>  (27) 
0

>  <fr_Imine>  (27) 
0

>  <fr_NH0>  (27) 
5

>  <fr_NH1>  (27) 
2

>  <fr_NH2>  (27) 
0

>  <fr_N_O>  (27) 
0

>  <fr_Ndealkylation1>  (27) 
2

>  <fr_Ndealkylation2>  (27) 
0

>  <fr_Nhpyrrole>  (27) 
0

>  <fr_SH>  (27) 
0

>  <fr_aldehyde>  (27) 
0

>  <fr_alkyl_carbamate>  (27) 
0

>  <fr_alkyl_halide>  (27) 
0

>  <fr_allylic_oxid>  (27) 
0

>  <fr_amide>  (27) 
1

>  <fr_amidine>  (27) 
0

>  <fr_aniline>  (27) 
4

>  <fr_aryl_methyl>  (27) 
1

>  <fr_azide>  (27) 
0

>  <fr_azo>  (27) 
0

>  <fr_barbitur>  (27) 
0

>  <fr_benzene>  (27) 
2

>  <fr_benzodiazepine>  (27) 
0

>  <fr_bicyclic>  (27) 
1

>  <fr_diazo>  (27) 
0

>  <fr_dihydropyridine>  (27) 
0

>  <fr_epoxide>  (27) 
0

>  <fr_ester>  (27) 
1

>  <fr_ether>  (27) 
2

>  <fr_furan>  (27) 
0

>  <fr_guanido>  (27) 
0

>  <fr_halogen>  (27) 
0

>  <fr_hdrzine>  (27) 
0

>  <fr_hdrzone>  (27) 
0

>  <fr_imidazole>  (27) 
0

>  <fr_imide>  (27) 
0

>  <fr_isocyan>  (27) 
0

>  <fr_isothiocyan>  (27) 
0

>  <fr_ketone>  (27) 
0

>  <fr_ketone_Topliss>  (27) 
0

>  <fr_lactam>  (27) 
0

>  <fr_lactone>  (27) 
0

>  <fr_methoxy>  (27) 
1

>  <fr_morpholine>  (27) 
0

>  <fr_nitrile>  (27) 
0

>  <fr_nitro>  (27) 
0

>  <fr_nitro_arom>  (27) 
0

>  <fr_nitro_arom_nonortho>  (27) 
0

>  <fr_nitroso>  (27) 
0

>  <fr_oxazole>  (27) 
0

>  <fr_oxime>  (27) 
0

>  <fr_para_hydroxylation>  (27) 
1

>  <fr_phenol>  (27) 
0

>  <fr_phenol_noOrthoHbond>  (27) 
0

>  <fr_phos_acid>  (27) 
0

>  <fr_phos_ester>  (27) 
0

>  <fr_piperdine>  (27) 
0

>  <fr_piperzine>  (27) 
0

>  <fr_priamide>  (27) 
0

>  <fr_prisulfonamd>  (27) 
0

>  <fr_pyridine>  (27) 
0

>  <fr_quatN>  (27) 
0

>  <fr_sulfide>  (27) 
0

>  <fr_sulfonamd>  (27) 
0

>  <fr_sulfone>  (27) 
0

>  <fr_term_acetylene>  (27) 
0

>  <fr_tetrazole>  (27) 
0

>  <fr_thiazole>  (27) 
0

>  <fr_thiocyan>  (27) 
0

>  <fr_thiophene>  (27) 
0

>  <fr_unbrch_alkane>  (27) 
0

>  <fr_urea>  (27) 
0

>  <NP_Likeness>  (27) 
-1.052011

$$$$
nan
     RDKit          3D

  0  0  0  0  0  0  0  0  0  0999 V3000
M  V30 BEGIN CTAB
M  V30 COUNTS 66 70 0 0 0
M  V30 BEGIN ATOM
M  V30 1 C 3.991380 -1.310545 5.305486 0
M  V30 2 C 2.944977 -1.784250 4.368374 0
M  V30 3 C 2.588094 -3.134814 4.389535 0
M  V30 4 C 1.613874 -3.577665 3.510852 0
M  V30 5 C 1.011257 -2.679752 2.628792 0
M  V30 6 C -0.038183 -3.043169 1.651583 0
M  V30 7 O -0.488925 -2.189113 0.805797 0
M  V30 8 N -0.686959 -4.294506 1.482434 0
M  V30 9 C -1.592547 -4.027877 0.398166 0
M  V30 10 C -1.237087 -4.230073 -0.937739 0
M  V30 11 C -2.207727 -3.906801 -1.852045 0
M  V30 12 C -3.435218 -3.420668 -1.461679 0
M  V30 13 C -4.252678 -3.032107 -2.634385 0
M  V30 14 N -3.905808 -1.786536 -3.122784 0
M  V30 15 C -3.757938 -0.621790 -2.391788 0
M  V30 16 C -2.810535 0.353483 -3.130074 0
M  V30 17 N -1.848381 -0.451063 -3.807203 0
M  V30 18 C -0.554356 0.091409 -3.982711 0
M  V30 19 C -2.349197 -1.248119 -4.876102 0
M  V30 20 C -3.776651 -1.656460 -4.552002 0
M  V30 21 C -3.803462 -3.219239 -0.154817 0
M  V30 22 C -5.118891 -2.786467 0.290915 0
M  V30 23 F -6.112458 -3.681987 -0.142003 0
M  V30 24 F -5.168963 -2.903570 1.691865 0
M  V30 25 F -5.519707 -1.553243 -0.105453 0
M  V30 26 C -2.823754 -3.542076 0.794044 0
M  V30 27 C 1.387542 -1.353994 2.635573 0
M  V30 28 C 2.338591 -0.894615 3.485748 0
M  V30 29 C 2.716938 0.496429 3.485348 0
M  V30 30 C 3.035204 1.662553 3.463908 0
M  V30 31 C 3.407155 3.069595 3.439067 0
M  V30 32 C 2.523070 4.041067 3.898438 0
M  V30 33 N 2.848883 5.363907 3.890038 0
M  V30 34 C 4.067922 5.713242 3.418343 0
M  V30 35 N 4.645605 6.943378 3.297232 0
M  V30 36 N 5.842394 6.741421 2.781883 0
M  V30 37 C 6.081476 5.445744 2.558298 0
M  V30 38 C 4.961301 4.764375 2.956768 0
M  V30 39 C 4.652157 3.415348 2.955708 0
M  V30 40 H 3.852100 -0.245888 5.582298 0
M  V30 41 H 5.010254 -1.417348 4.849727 0
M  V30 42 H 4.013152 -1.898750 6.245130 0
M  V30 43 H 3.029774 -3.862417 5.056594 0
M  V30 44 H 1.274080 -4.604082 3.457295 0
M  V30 45 H -0.365505 -5.046453 2.145851 0
M  V30 46 H -0.239326 -4.614245 -1.050001 0
M  V30 47 H -1.883456 -4.082381 -2.872161 0
M  V30 48 H -5.351737 -3.050263 -2.376996 0
M  V30 49 H -4.187520 -3.827732 -3.439787 0
M  V30 50 H -3.314244 -0.841505 -1.393264 0
M  V30 51 H -4.736717 -0.121447 -2.226272 0
M  V30 52 H -2.294530 0.931260 -2.342489 0
M  V30 53 H -3.379104 1.055403 -3.748972 0
M  V30 54 H -0.420580 0.723041 -4.882373 0
M  V30 55 H -0.280211 0.673118 -3.077298 0
M  V30 56 H 0.183049 -0.737026 -4.027097 0
M  V30 57 H -2.309835 -0.758010 -5.882058 0
M  V30 58 H -1.703444 -2.156641 -4.961305 0
M  V30 59 H -3.978712 -2.656151 -4.984335 0
M  V30 60 H -4.515070 -0.934601 -4.953942 0
M  V30 61 H -3.069537 -3.394357 1.835502 0
M  V30 62 H 0.942147 -0.652904 1.972768 0
M  V30 63 H 1.569785 3.681264 4.260542 0
M  V30 64 H 4.253941 7.893533 3.551566 0
M  V30 65 H 6.969171 4.957357 2.142606 0
M  V30 66 H 5.320464 2.641472 2.602304 0
M  V30 END ATOM
M  V30 BEGIN BOND
M  V30 1 1 1 2
M  V30 2 2 2 3
M  V30 3 1 3 4
M  V30 4 2 4 5
M  V30 5 1 5 6
M  V30 6 2 6 7
M  V30 7 1 6 8
M  V30 8 1 8 9
M  V30 9 2 9 10
M  V30 10 1 10 11
M  V30 11 2 11 12
M  V30 12 1 12 13
M  V30 13 1 13 14
M  V30 14 1 14 15
M  V30 15 1 15 16
M  V30 16 1 16 17
M  V30 17 1 17 18
M  V30 18 1 17 19
M  V30 19 1 19 20
M  V30 20 1 12 21
M  V30 21 1 21 22
M  V30 22 1 22 23
M  V30 23 1 22 24
M  V30 24 1 22 25
M  V30 25 2 21 26
M  V30 26 1 5 27
M  V30 27 2 27 28
M  V30 28 1 28 29
M  V30 29 3 29 30
M  V30 30 1 30 31
M  V30 31 2 31 32
M  V30 32 1 32 33
M  V30 33 2 33 34
M  V30 34 1 34 35
M  V30 35 1 35 36
M  V30 36 2 36 37
M  V30 37 1 37 38
M  V30 38 2 38 39
M  V30 39 1 28 2
M  V30 40 1 39 31
M  V30 41 1 26 9
M  V30 42 1 38 34
M  V30 43 1 20 14
M  V30 44 1 1 40
M  V30 45 1 1 41
M  V30 46 1 1 42
M  V30 47 1 3 43
M  V30 48 1 4 44
M  V30 49 1 8 45
M  V30 50 1 10 46
M  V30 51 1 11 47
M  V30 52 1 13 48
M  V30 53 1 13 49
M  V30 54 1 15 50
M  V30 55 1 15 51
M  V30 56 1 16 52
M  V30 57 1 16 53
M  V30 58 1 18 54
M  V30 59 1 18 55
M  V30 60 1 18 56
M  V30 61 1 19 57
M  V30 62 1 19 58
M  V30 63 1 20 59
M  V30 64 1 20 60
M  V30 65 1 26 61
M  V30 66 1 27 62
M  V30 67 1 32 63
M  V30 68 1 35 64
M  V30 69 1 37 65
M  V30 70 1 39 66
M  V30 END BOND
M  V30 END CTAB
M  END
>  <Dataset>  (28) 
PKIs

>  <Ligand_Instance>  (28) 
nan

>  <PDB_ID>  (28) 
nan

>  <Standardized_SMILES>  (28) 
Cc1ccc(C(=O)Nc2ccc(CN3CCN(C)CC3)c(C(F)(F)F)c2)cc1C#Cc1cnc2[nH]ncc2c1

>  <Name>  (28) 
Olverembatinib

>  <Pocket>  (28) 
nan

>  <ATP_Site>  (28) 
nan

>  <Peripheral>  (28) 
nan

>  <Num_H_Atoms_ProtBoundConf>  (28) 
nan

>  <Num_Resolved_Atoms>  (28) 
nan

>  <Num_Not_Resolved_Atoms>  (28) 
nan

>  <2D_Mol_H>  (28) 
<rdkit.Chem.rdchem.Mol object at 0x72a239112c00>

>  <MW>  (28) 
532.57

>  <HBA>  (28) 
5

>  <HBD>  (28) 
2

>  <LogP>  (28) 
4.68462

>  <NRB>  (28) 
6

>  <TPSA>  (28) 
77.15

>  <Num_Heavy_Atoms>  (28) 
39

>  <Ro5>  (28) 
[False, True, True, True, True, True]

>  <Ro5_Fulfilled>  (28) 
True

>  <Ro3>  (28) 
[False, False, True, False]

>  <Ro3_Fulfilled>  (28) 
False

>  <Fsp3>  (28) 
0.275862

>  <Fsp3_0.42>  (28) 
False

>  <Fsp3_0.45>  (28) 
False

>  <Stereogenic_Carbons>  (28) 
0

>  <C_Atoms>  (28) 
29

>  <FCStereo>  (28) 
0.0

>  <SPS>  (28) 
573

>  <nSPS>  (28) 
14.692308

>  <PBF>  (28) 
1.135441

>  <PBF_0.6>  (28) 
True

>  <nPBF>  (28) 
0.029114

>  <nPBF_0.016>  (28) 
True

>  <PMI1>  (28) 
4292.036518

>  <PMI2>  (28) 
14023.221531

>  <PMI3>  (28) 
16275.451664

>  <NPR1>  (28) 
0.263712

>  <NPR2>  (28) 
0.861618

>  <Sum_NPR>  (28) 
1.12533

>  <Sum_NPR_1.07>  (28) 
True

>  <Sum_NPR_1.2>  (28) 
False

>  <MaxAbsEStateIndex>  (28) 
13.93054

>  <MaxEStateIndex>  (28) 
13.93054

>  <MinAbsEStateIndex>  (28) 
0.085325

>  <MinEStateIndex>  (28) 
-4.538097

>  <qed>  (28) 
0.373398

>  <MolWt>  (28) 
532.57

>  <HeavyAtomMolWt>  (28) 
505.354

>  <ExactMolWt>  (28) 
532.219844

>  <NumValenceElectrons>  (28) 
200

>  <NumRadicalElectrons>  (28) 
0

>  <MaxPartialCharge>  (28) 
0.4163

>  <MinPartialCharge>  (28) 
-0.321982

>  <MaxAbsPartialCharge>  (28) 
0.4163

>  <MinAbsPartialCharge>  (28) 
0.321982

>  <FpDensityMorgan1>  (28) 
1.051282

>  <FpDensityMorgan2>  (28) 
1.846154

>  <FpDensityMorgan3>  (28) 
2.615385

>  <BCUT2D_MWHI>  (28) 
19.413196

>  <BCUT2D_MWLOW>  (28) 
10.029953

>  <BCUT2D_CHGHI>  (28) 
2.340092

>  <BCUT2D_CHGLO>  (28) 
-2.325238

>  <BCUT2D_LOGPHI>  (28) 
2.344623

>  <BCUT2D_LOGPLOW>  (28) 
-2.436376

>  <BCUT2D_MRHI>  (28) 
6.042167

>  <BCUT2D_MRLOW>  (28) 
-0.138024

>  <AvgIpc>  (28) 
3.375687

>  <BalabanJ>  (28) 
1.337262

>  <BertzCT>  (28) 
1575.423853

>  <Chi0>  (28) 
27.570339

>  <Chi0n>  (28) 
21.562682

>  <Chi0v>  (28) 
21.562682

>  <Chi1>  (28) 
18.652018

>  <Chi1n>  (28) 
12.497356

>  <Chi1v>  (28) 
12.497356

>  <Chi2n>  (28) 
9.714763

>  <Chi2v>  (28) 
9.714763

>  <Chi3n>  (28) 
6.795513

>  <Chi3v>  (28) 
6.795513

>  <Chi4n>  (28) 
4.448475

>  <Chi4v>  (28) 
4.448475

>  <HallKierAlpha>  (28) 
-4.2

>  <Ipc>  (28) 
635357728.141352

>  <Kappa1>  (28) 
26.408832

>  <Kappa2>  (28) 
10.884506

>  <Kappa3>  (28) 
6.275643

>  <LabuteASA>  (28) 
223.579581

>  <PEOE_VSA1>  (28) 
10.216698

>  <PEOE_VSA10>  (28) 
0.0

>  <PEOE_VSA11>  (28) 
5.647177

>  <PEOE_VSA12>  (28) 
0.0

>  <PEOE_VSA13>  (28) 
5.90718

>  <PEOE_VSA14>  (28) 
6.176299

>  <PEOE_VSA2>  (28) 
14.793129

>  <PEOE_VSA3>  (28) 
4.983979

>  <PEOE_VSA4>  (28) 
18.269927

>  <PEOE_VSA5>  (28) 
0.0

>  <PEOE_VSA6>  (28) 
23.973603

>  <PEOE_VSA7>  (28) 
55.430148

>  <PEOE_VSA8>  (28) 
66.684591

>  <PEOE_VSA9>  (28) 
11.760295

>  <SMR_VSA1>  (28) 
17.965782

>  <SMR_VSA10>  (28) 
22.627967

>  <SMR_VSA2>  (28) 
0.0

>  <SMR_VSA3>  (28) 
24.981162

>  <SMR_VSA4>  (28) 
0.0

>  <SMR_VSA5>  (28) 
19.644792

>  <SMR_VSA6>  (28) 
38.543486

>  <SMR_VSA7>  (28) 
88.238966

>  <SMR_VSA8>  (28) 
0.0

>  <SMR_VSA9>  (28) 
11.840869

>  <SlogP_VSA1>  (28) 
5.316789

>  <SlogP_VSA10>  (28) 
18.858631

>  <SlogP_VSA11>  (28) 
0.0

>  <SlogP_VSA12>  (28) 
0.0

>  <SlogP_VSA2>  (28) 
64.115039

>  <SlogP_VSA3>  (28) 
12.721055

>  <SlogP_VSA4>  (28) 
18.764606

>  <SlogP_VSA5>  (28) 
38.175246

>  <SlogP_VSA6>  (28) 
54.858257

>  <SlogP_VSA7>  (28) 
0.0

>  <SlogP_VSA8>  (28) 
11.033401

>  <SlogP_VSA9>  (28) 
0.0

>  <EState_VSA1>  (28) 
17.64693

>  <EState_VSA10>  (28) 
17.965782

>  <EState_VSA11>  (28) 
0.0

>  <EState_VSA2>  (28) 
17.795594

>  <EState_VSA3>  (28) 
35.427045

>  <EState_VSA4>  (28) 
30.105556

>  <EState_VSA5>  (28) 
12.132734

>  <EState_VSA6>  (28) 
30.592788

>  <EState_VSA7>  (28) 
24.937686

>  <EState_VSA8>  (28) 
37.238909

>  <EState_VSA9>  (28) 
0.0

>  <VSA_EState1>  (28) 
41.79162

>  <VSA_EState10>  (28) 
0.0

>  <VSA_EState2>  (28) 
21.420417

>  <VSA_EState3>  (28) 
10.180252

>  <VSA_EState4>  (28) 
2.687844

>  <VSA_EState5>  (28) 
5.599991

>  <VSA_EState6>  (28) 
10.860797

>  <VSA_EState7>  (28) 
-1.248516

>  <VSA_EState8>  (28) 
5.12547

>  <VSA_EState9>  (28) 
1.998792

>  <FractionCSP3>  (28) 
0.275862

>  <HeavyAtomCount>  (28) 
39

>  <NHOHCount>  (28) 
2

>  <NOCount>  (28) 
7

>  <NumAliphaticCarbocycles>  (28) 
0

>  <NumAliphaticHeterocycles>  (28) 
1

>  <NumAliphaticRings>  (28) 
1

>  <NumAromaticCarbocycles>  (28) 
2

>  <NumAromaticHeterocycles>  (28) 
2

>  <NumAromaticRings>  (28) 
4

>  <NumHAcceptors>  (28) 
5

>  <NumHDonors>  (28) 
2

>  <NumHeteroatoms>  (28) 
10

>  <NumRotatableBonds>  (28) 
4

>  <NumSaturatedCarbocycles>  (28) 
0

>  <NumSaturatedHeterocycles>  (28) 
1

>  <NumSaturatedRings>  (28) 
1

>  <RingCount>  (28) 
5

>  <MolLogP>  (28) 
4.68462

>  <MolMR>  (28) 
143.2189

>  <fr_Al_COO>  (28) 
0

>  <fr_Al_OH>  (28) 
0

>  <fr_Al_OH_noTert>  (28) 
0

>  <fr_ArN>  (28) 
0

>  <fr_Ar_COO>  (28) 
0

>  <fr_Ar_N>  (28) 
3

>  <fr_Ar_NH>  (28) 
1

>  <fr_Ar_OH>  (28) 
0

>  <fr_COO>  (28) 
0

>  <fr_COO2>  (28) 
0

>  <fr_C_O>  (28) 
1

>  <fr_C_O_noCOO>  (28) 
1

>  <fr_C_S>  (28) 
0

>  <fr_HOCCN>  (28) 
0

>  <fr_Imine>  (28) 
0

>  <fr_NH0>  (28) 
4

>  <fr_NH1>  (28) 
2

>  <fr_NH2>  (28) 
0

>  <fr_N_O>  (28) 
0

>  <fr_Ndealkylation1>  (28) 
1

>  <fr_Ndealkylation2>  (28) 
0

>  <fr_Nhpyrrole>  (28) 
1

>  <fr_SH>  (28) 
0

>  <fr_aldehyde>  (28) 
0

>  <fr_alkyl_carbamate>  (28) 
0

>  <fr_alkyl_halide>  (28) 
3

>  <fr_allylic_oxid>  (28) 
0

>  <fr_amide>  (28) 
1

>  <fr_amidine>  (28) 
0

>  <fr_aniline>  (28) 
1

>  <fr_aryl_methyl>  (28) 
1

>  <fr_azide>  (28) 
0

>  <fr_azo>  (28) 
0

>  <fr_barbitur>  (28) 
0

>  <fr_benzene>  (28) 
2

>  <fr_benzodiazepine>  (28) 
0

>  <fr_bicyclic>  (28) 
1

>  <fr_diazo>  (28) 
0

>  <fr_dihydropyridine>  (28) 
0

>  <fr_epoxide>  (28) 
0

>  <fr_ester>  (28) 
0

>  <fr_ether>  (28) 
0

>  <fr_furan>  (28) 
0

>  <fr_guanido>  (28) 
0

>  <fr_halogen>  (28) 
3

>  <fr_hdrzine>  (28) 
0

>  <fr_hdrzone>  (28) 
0

>  <fr_imidazole>  (28) 
0

>  <fr_imide>  (28) 
0

>  <fr_isocyan>  (28) 
0

>  <fr_isothiocyan>  (28) 
0

>  <fr_ketone>  (28) 
0

>  <fr_ketone_Topliss>  (28) 
0

>  <fr_lactam>  (28) 
0

>  <fr_lactone>  (28) 
0

>  <fr_methoxy>  (28) 
0

>  <fr_morpholine>  (28) 
0

>  <fr_nitrile>  (28) 
0

>  <fr_nitro>  (28) 
0

>  <fr_nitro_arom>  (28) 
0

>  <fr_nitro_arom_nonortho>  (28) 
0

>  <fr_nitroso>  (28) 
0

>  <fr_oxazole>  (28) 
0

>  <fr_oxime>  (28) 
0

>  <fr_para_hydroxylation>  (28) 
0

>  <fr_phenol>  (28) 
0

>  <fr_phenol_noOrthoHbond>  (28) 
0

>  <fr_phos_acid>  (28) 
0

>  <fr_phos_ester>  (28) 
0

>  <fr_piperdine>  (28) 
0

>  <fr_piperzine>  (28) 
1

>  <fr_priamide>  (28) 
0

>  <fr_prisulfonamd>  (28) 
0

>  <fr_pyridine>  (28) 
1

>  <fr_quatN>  (28) 
0

>  <fr_sulfide>  (28) 
0

>  <fr_sulfonamd>  (28) 
0

>  <fr_sulfone>  (28) 
0

>  <fr_term_acetylene>  (28) 
0

>  <fr_tetrazole>  (28) 
0

>  <fr_thiazole>  (28) 
0

>  <fr_thiocyan>  (28) 
0

>  <fr_thiophene>  (28) 
0

>  <fr_unbrch_alkane>  (28) 
0

>  <fr_urea>  (28) 
0

>  <NP_Likeness>  (28) 
-1.750229

$$$$
nan
     RDKit          3D

  0  0  0  0  0  0  0  0  0  0999 V3000
M  V30 BEGIN CTAB
M  V30 COUNTS 74 78 0 0 0
M  V30 BEGIN ATOM
M  V30 1 C 6.471588 -2.015045 2.011464 0
M  V30 2 C 6.112345 -0.970713 1.309069 0
M  V30 3 C 4.703203 -0.652774 1.523337 0
M  V30 4 O 4.588699 -1.633728 2.334555 0
M  V30 5 N 3.963619 0.409321 0.929745 0
M  V30 6 C 2.583890 0.456084 1.345973 0
M  V30 7 C 1.620293 -0.239971 0.677516 0
M  V30 8 C 0.274155 -0.281899 0.965332 0
M  V30 9 N -0.719895 -1.008656 0.275255 0
M  V30 10 C -0.539237 -1.834900 -0.864834 0
M  V30 11 N 0.612080 -2.050900 -1.520454 0
M  V30 12 C 0.673278 -2.861064 -2.588689 0
M  V30 13 C -0.508332 -3.446479 -2.961147 0
M  V30 14 C -1.722959 -3.289051 -2.362271 0
M  V30 15 C -2.997956 -3.886109 -2.692415 0
M  V30 16 C -4.080500 -3.665005 -1.843796 0
M  V30 17 N -5.175445 -4.297711 -2.322429 0
M  V30 18 C -6.486838 -4.310827 -1.737010 0
M  V30 19 C -7.395404 -5.457606 -1.705055 0
M  V30 20 C -7.743127 -4.269023 -2.477561 0
M  V30 21 C -4.871395 -4.938602 -3.464182 0
M  V30 22 C -5.489778 -5.725659 -4.411048 0
M  V30 23 C -4.868793 -6.247135 -5.522245 0
M  V30 24 C -3.515503 -5.939248 -5.673595 0
M  V30 25 C -2.883753 -5.157254 -4.740858 0
M  V30 26 C -3.539041 -4.664089 -3.656678 0
M  V30 27 N -1.610425 -2.463463 -1.329850 0
M  V30 28 C -0.071855 0.499215 2.078810 0
M  V30 29 O -1.405204 0.554556 2.489357 0
M  V30 30 C -1.779860 1.345519 3.627702 0
M  V30 31 C 0.866669 1.217396 2.783451 0
M  V30 32 C 2.202103 1.214433 2.439132 0
M  V30 33 N 3.137031 1.970098 3.196858 0
M  V30 34 C 4.192826 1.340648 3.973437 0
M  V30 35 C 3.222752 3.405847 3.328596 0
M  V30 36 C 2.188589 4.164821 2.552241 0
M  V30 37 N 2.417762 5.583174 2.785498 0
M  V30 38 C 1.461469 6.401625 2.072725 0
M  V30 39 C 3.746769 5.967318 2.320285 0
M  V30 40 H 7.438231 -2.493685 2.069272 0
M  V30 41 H 6.110947 -2.751288 2.708836 0
M  V30 42 H 6.928912 -0.572766 0.725486 0
M  V30 43 H 4.563241 0.974930 0.288771 0
M  V30 44 H 1.980970 -0.804487 -0.155775 0
M  V30 45 H -1.697312 -0.905212 0.674089 0
M  V30 46 H 1.595918 -3.034820 -3.118418 0
M  V30 47 H -0.408079 -4.087501 -3.805271 0
M  V30 48 H -4.134146 -3.089547 -0.918240 0
M  V30 49 H -6.534077 -3.713983 -0.772865 0
M  V30 50 H -6.999471 -6.406933 -2.059875 0
M  V30 51 H -8.006370 -5.673048 -0.766059 0
M  V30 52 H -7.813713 -4.175186 -3.568714 0
M  V30 53 H -8.615019 -3.667090 -2.052036 0
M  V30 54 H -6.515960 -5.954642 -4.289782 0
M  V30 55 H -5.441706 -6.872318 -6.230204 0
M  V30 56 H -3.052318 -6.371762 -6.570808 0
M  V30 57 H -1.876955 -5.010806 -4.996346 0
M  V30 58 H -1.208671 0.972613 4.528001 0
M  V30 59 H -2.858185 1.272564 3.816095 0
M  V30 60 H -1.519269 2.395625 3.506215 0
M  V30 61 H 0.511962 1.798953 3.645572 0
M  V30 62 H 3.975771 0.277828 4.210820 0
M  V30 63 H 4.351644 1.855516 4.968388 0
M  V30 64 H 5.163297 1.451803 3.450028 0
M  V30 65 H 4.219094 3.718957 2.932429 0
M  V30 66 H 3.086903 3.704128 4.404611 0
M  V30 67 H 1.153571 3.923732 2.796545 0
M  V30 68 H 2.308758 4.035754 1.447916 0
M  V30 69 H 1.120167 7.194405 2.773543 0
M  V30 70 H 0.611465 5.855329 1.651096 0
M  V30 71 H 1.934177 6.970003 1.222375 0
M  V30 72 H 4.000181 5.347755 1.411463 0
M  V30 73 H 4.537773 5.759271 3.074273 0
M  V30 74 H 3.690659 7.037559 2.043818 0
M  V30 END ATOM
M  V30 BEGIN BOND
M  V30 1 2 1 2
M  V30 2 1 2 3
M  V30 3 2 3 4
M  V30 4 1 3 5
M  V30 5 1 5 6
M  V30 6 2 6 7
M  V30 7 1 7 8
M  V30 8 1 8 9
M  V30 9 1 9 10
M  V30 10 2 10 11
M  V30 11 1 11 12
M  V30 12 2 12 13
M  V30 13 1 13 14
M  V30 14 1 14 15
M  V30 15 2 15 16
M  V30 16 1 16 17
M  V30 17 1 17 18
M  V30 18 1 18 19
M  V30 19 1 19 20
M  V30 20 1 17 21
M  V30 21 2 21 22
M  V30 22 1 22 23
M  V30 23 2 23 24
M  V30 24 1 24 25
M  V30 25 2 25 26
M  V30 26 2 14 27
M  V30 27 2 8 28
M  V30 28 1 28 29
M  V30 29 1 29 30
M  V30 30 1 28 31
M  V30 31 2 31 32
M  V30 32 1 32 33
M  V30 33 1 33 34
M  V30 34 1 33 35
M  V30 35 1 35 36
M  V30 36 1 36 37
M  V30 37 1 37 38
M  V30 38 1 37 39
M  V30 39 1 32 6
M  V30 40 1 27 10
M  V30 41 1 26 15
M  V30 42 1 20 18
M  V30 43 1 26 21
M  V30 44 1 1 40
M  V30 45 1 1 41
M  V30 46 1 2 42
M  V30 47 1 5 43
M  V30 48 1 7 44
M  V30 49 1 9 45
M  V30 50 1 12 46
M  V30 51 1 13 47
M  V30 52 1 16 48
M  V30 53 1 18 49
M  V30 54 1 19 50
M  V30 55 1 19 51
M  V30 56 1 20 52
M  V30 57 1 20 53
M  V30 58 1 22 54
M  V30 59 1 23 55
M  V30 60 1 24 56
M  V30 61 1 25 57
M  V30 62 1 30 58
M  V30 63 1 30 59
M  V30 64 1 30 60
M  V30 65 1 31 61
M  V30 66 1 34 62
M  V30 67 1 34 63
M  V30 68 1 34 64
M  V30 69 1 35 65
M  V30 70 1 35 66
M  V30 71 1 36 67
M  V30 72 1 36 68
M  V30 73 1 38 69
M  V30 74 1 38 70
M  V30 75 1 38 71
M  V30 76 1 39 72
M  V30 77 1 39 73
M  V30 78 1 39 74
M  V30 END BOND
M  V30 END CTAB
M  END
>  <Dataset>  (29) 
PKIs

>  <Ligand_Instance>  (29) 
nan

>  <PDB_ID>  (29) 
nan

>  <Standardized_SMILES>  (29) 
C=CC(=O)Nc1cc(Nc2nccc(-c3cn(C4CC4)c4ccccc34)n2)c(OC)cc1N(C)CCN(C)C

>  <Name>  (29) 
Aumolertinib

>  <Pocket>  (29) 
nan

>  <ATP_Site>  (29) 
nan

>  <Peripheral>  (29) 
nan

>  <Num_H_Atoms_ProtBoundConf>  (29) 
nan

>  <Num_Resolved_Atoms>  (29) 
nan

>  <Num_Not_Resolved_Atoms>  (29) 
nan

>  <2D_Mol_H>  (29) 
<rdkit.Chem.rdchem.Mol object at 0x72a239112ce0>

>  <MW>  (29) 
525.657

>  <HBA>  (29) 
8

>  <HBD>  (29) 
2

>  <LogP>  (29) 
5.3077

>  <NRB>  (29) 
15

>  <TPSA>  (29) 
87.55

>  <Num_Heavy_Atoms>  (29) 
39

>  <Ro5>  (29) 
[False, True, True, False, False, True]

>  <Ro5_Fulfilled>  (29) 
False

>  <Ro3>  (29) 
[False, False, True, False]

>  <Ro3_Fulfilled>  (29) 
False

>  <Fsp3>  (29) 
0.3

>  <Fsp3_0.42>  (29) 
False

>  <Fsp3_0.45>  (29) 
False

>  <Stereogenic_Carbons>  (29) 
0

>  <C_Atoms>  (29) 
30

>  <FCStereo>  (29) 
0.0

>  <SPS>  (29) 
505

>  <nSPS>  (29) 
12.948718

>  <PBF>  (29) 
1.242166

>  <PBF_0.6>  (29) 
True

>  <nPBF>  (29) 
0.03185

>  <nPBF_0.016>  (29) 
True

>  <PMI1>  (29) 
3151.760087

>  <PMI2>  (29) 
15274.520672

>  <PMI3>  (29) 
17003.831041

>  <NPR1>  (29) 
0.185356

>  <NPR2>  (29) 
0.898299

>  <Sum_NPR>  (29) 
1.083655

>  <Sum_NPR_1.07>  (29) 
True

>  <Sum_NPR_1.2>  (29) 
False

>  <MaxAbsEStateIndex>  (29) 
12.274893

>  <MaxEStateIndex>  (29) 
12.274893

>  <MinAbsEStateIndex>  (29) 
0.292892

>  <MinEStateIndex>  (29) 
-0.292892

>  <qed>  (29) 
0.256767

>  <MolWt>  (29) 
525.657

>  <HeavyAtomMolWt>  (29) 
490.377

>  <ExactMolWt>  (29) 
525.285223

>  <NumValenceElectrons>  (29) 
202

>  <NumRadicalElectrons>  (29) 
0

>  <MaxPartialCharge>  (29) 
0.247322

>  <MinPartialCharge>  (29) 
-0.494495

>  <MaxAbsPartialCharge>  (29) 
0.494495

>  <MinAbsPartialCharge>  (29) 
0.247322

>  <FpDensityMorgan1>  (29) 
1.153846

>  <FpDensityMorgan2>  (29) 
1.948718

>  <FpDensityMorgan3>  (29) 
2.666667

>  <BCUT2D_MWHI>  (29) 
16.46647

>  <BCUT2D_MWLOW>  (29) 
10.114043

>  <BCUT2D_CHGHI>  (29) 
2.259892

>  <BCUT2D_CHGLO>  (29) 
-2.255143

>  <BCUT2D_LOGPHI>  (29) 
2.414368

>  <BCUT2D_LOGPLOW>  (29) 
-2.289155

>  <BCUT2D_MRHI>  (29) 
6.019749

>  <BCUT2D_MRLOW>  (29) 
-0.11143

>  <AvgIpc>  (29) 
3.713415

>  <BalabanJ>  (29) 
1.494769

>  <BertzCT>  (29) 
1506.725669

>  <Chi0>  (29) 
27.517933

>  <Chi0n>  (29) 
22.938951

>  <Chi0v>  (29) 
22.938951

>  <Chi1>  (29) 
18.871744

>  <Chi1n>  (29) 
13.089378

>  <Chi1v>  (29) 
13.089378

>  <Chi2n>  (29) 
10.076702

>  <Chi2v>  (29) 
10.076702

>  <Chi3n>  (29) 
6.913795

>  <Chi3v>  (29) 
6.913795

>  <Chi4n>  (29) 
4.658824

>  <Chi4v>  (29) 
4.658824

>  <HallKierAlpha>  (29) 
-4.37

>  <Ipc>  (29) 
983850479.432229

>  <Kappa1>  (29) 
26.245618

>  <Kappa2>  (29) 
11.165236

>  <Kappa3>  (29) 
5.729643

>  <LabuteASA>  (29) 
228.664014

>  <PEOE_VSA1>  (29) 
29.737359

>  <PEOE_VSA10>  (29) 
5.749512

>  <PEOE_VSA11>  (29) 
0.0

>  <PEOE_VSA12>  (29) 
11.855519

>  <PEOE_VSA13>  (29) 
0.0

>  <PEOE_VSA14>  (29) 
0.0

>  <PEOE_VSA2>  (29) 
4.794537

>  <PEOE_VSA3>  (29) 
9.967957

>  <PEOE_VSA4>  (29) 
0.0

>  <PEOE_VSA5>  (29) 
0.0

>  <PEOE_VSA6>  (29) 
24.778037

>  <PEOE_VSA7>  (29) 
51.212109

>  <PEOE_VSA8>  (29) 
61.105456

>  <PEOE_VSA9>  (29) 
29.865884

>  <SMR_VSA1>  (29) 
9.5314

>  <SMR_VSA10>  (29) 
39.820603

>  <SMR_VSA2>  (29) 
0.0

>  <SMR_VSA3>  (29) 
19.434966

>  <SMR_VSA4>  (29) 
0.0

>  <SMR_VSA5>  (29) 
18.883484

>  <SMR_VSA6>  (29) 
56.875813

>  <SMR_VSA7>  (29) 
67.513212

>  <SMR_VSA8>  (29) 
0.0

>  <SMR_VSA9>  (29) 
17.006891

>  <SlogP_VSA1>  (29) 
20.27035

>  <SlogP_VSA10>  (29) 
23.010498

>  <SlogP_VSA11>  (29) 
5.749512

>  <SlogP_VSA12>  (29) 
0.0

>  <SlogP_VSA2>  (29) 
66.684472

>  <SlogP_VSA3>  (29) 
4.794537

>  <SlogP_VSA4>  (29) 
0.0

>  <SlogP_VSA5>  (29) 
18.883484

>  <SlogP_VSA6>  (29) 
67.513212

>  <SlogP_VSA7>  (29) 
0.0

>  <SlogP_VSA8>  (29) 
22.160304

>  <SlogP_VSA9>  (29) 
0.0

>  <EState_VSA1>  (29) 
0.0

>  <EState_VSA10>  (29) 
4.794537

>  <EState_VSA11>  (29) 
0.0

>  <EState_VSA2>  (29) 
5.90718

>  <EState_VSA3>  (29) 
29.114464

>  <EState_VSA4>  (29) 
30.034279

>  <EState_VSA5>  (29) 
29.820588

>  <EState_VSA6>  (29) 
13.306641

>  <EState_VSA7>  (29) 
39.342117

>  <EState_VSA8>  (29) 
67.025722

>  <EState_VSA9>  (29) 
9.720841

>  <VSA_EState1>  (29) 
8.102182

>  <VSA_EState10>  (29) 
0.0

>  <VSA_EState2>  (29) 
25.803688

>  <VSA_EState3>  (29) 
7.417516

>  <VSA_EState4>  (29) 
5.235808

>  <VSA_EState5>  (29) 
0.750077

>  <VSA_EState6>  (29) 
14.685985

>  <VSA_EState7>  (29) 
7.630138

>  <VSA_EState8>  (29) 
5.212866

>  <VSA_EState9>  (29) 
7.661739

>  <FractionCSP3>  (29) 
0.3

>  <HeavyAtomCount>  (29) 
39

>  <NHOHCount>  (29) 
2

>  <NOCount>  (29) 
9

>  <NumAliphaticCarbocycles>  (29) 
1

>  <NumAliphaticHeterocycles>  (29) 
0

>  <NumAliphaticRings>  (29) 
1

>  <NumAromaticCarbocycles>  (29) 
2

>  <NumAromaticHeterocycles>  (29) 
2

>  <NumAromaticRings>  (29) 
4

>  <NumHAcceptors>  (29) 
8

>  <NumHDonors>  (29) 
2

>  <NumHeteroatoms>  (29) 
9

>  <NumRotatableBonds>  (29) 
11

>  <NumSaturatedCarbocycles>  (29) 
1

>  <NumSaturatedHeterocycles>  (29) 
0

>  <NumSaturatedRings>  (29) 
1

>  <RingCount>  (29) 
5

>  <MolLogP>  (29) 
5.3077

>  <MolMR>  (29) 
158.1624

>  <fr_Al_COO>  (29) 
0

>  <fr_Al_OH>  (29) 
0

>  <fr_Al_OH_noTert>  (29) 
0

>  <fr_ArN>  (29) 
0

>  <fr_Ar_COO>  (29) 
0

>  <fr_Ar_N>  (29) 
3

>  <fr_Ar_NH>  (29) 
0

>  <fr_Ar_OH>  (29) 
0

>  <fr_COO>  (29) 
0

>  <fr_COO2>  (29) 
0

>  <fr_C_O>  (29) 
1

>  <fr_C_O_noCOO>  (29) 
1

>  <fr_C_S>  (29) 
0

>  <fr_HOCCN>  (29) 
0

>  <fr_Imine>  (29) 
0

>  <fr_NH0>  (29) 
5

>  <fr_NH1>  (29) 
2

>  <fr_NH2>  (29) 
0

>  <fr_N_O>  (29) 
0

>  <fr_Ndealkylation1>  (29) 
2

>  <fr_Ndealkylation2>  (29) 
0

>  <fr_Nhpyrrole>  (29) 
0

>  <fr_SH>  (29) 
0

>  <fr_aldehyde>  (29) 
0

>  <fr_alkyl_carbamate>  (29) 
0

>  <fr_alkyl_halide>  (29) 
0

>  <fr_allylic_oxid>  (29) 
0

>  <fr_amide>  (29) 
1

>  <fr_amidine>  (29) 
0

>  <fr_aniline>  (29) 
4

>  <fr_aryl_methyl>  (29) 
0

>  <fr_azide>  (29) 
0

>  <fr_azo>  (29) 
0

>  <fr_barbitur>  (29) 
0

>  <fr_benzene>  (29) 
2

>  <fr_benzodiazepine>  (29) 
0

>  <fr_bicyclic>  (29) 
1

>  <fr_diazo>  (29) 
0

>  <fr_dihydropyridine>  (29) 
0

>  <fr_epoxide>  (29) 
0

>  <fr_ester>  (29) 
0

>  <fr_ether>  (29) 
1

>  <fr_furan>  (29) 
0

>  <fr_guanido>  (29) 
0

>  <fr_halogen>  (29) 
0

>  <fr_hdrzine>  (29) 
0

>  <fr_hdrzone>  (29) 
0

>  <fr_imidazole>  (29) 
0

>  <fr_imide>  (29) 
0

>  <fr_isocyan>  (29) 
0

>  <fr_isothiocyan>  (29) 
0

>  <fr_ketone>  (29) 
0

>  <fr_ketone_Topliss>  (29) 
0

>  <fr_lactam>  (29) 
0

>  <fr_lactone>  (29) 
0

>  <fr_methoxy>  (29) 
1

>  <fr_morpholine>  (29) 
0

>  <fr_nitrile>  (29) 
0

>  <fr_nitro>  (29) 
0

>  <fr_nitro_arom>  (29) 
0

>  <fr_nitro_arom_nonortho>  (29) 
0

>  <fr_nitroso>  (29) 
0

>  <fr_oxazole>  (29) 
0

>  <fr_oxime>  (29) 
0

>  <fr_para_hydroxylation>  (29) 
1

>  <fr_phenol>  (29) 
0

>  <fr_phenol_noOrthoHbond>  (29) 
0

>  <fr_phos_acid>  (29) 
0

>  <fr_phos_ester>  (29) 
0

>  <fr_piperdine>  (29) 
0

>  <fr_piperzine>  (29) 
0

>  <fr_priamide>  (29) 
0

>  <fr_prisulfonamd>  (29) 
0

>  <fr_pyridine>  (29) 
0

>  <fr_quatN>  (29) 
0

>  <fr_sulfide>  (29) 
0

>  <fr_sulfonamd>  (29) 
0

>  <fr_sulfone>  (29) 
0

>  <fr_term_acetylene>  (29) 
0

>  <fr_tetrazole>  (29) 
0

>  <fr_thiazole>  (29) 
0

>  <fr_thiocyan>  (29) 
0

>  <fr_thiophene>  (29) 
0

>  <fr_unbrch_alkane>  (29) 
0

>  <fr_urea>  (29) 
0

>  <NP_Likeness>  (29) 
-1.019341

$$$$
nan
     RDKit          3D

  0  0  0  0  0  0  0  0  0  0999 V3000
M  V30 BEGIN CTAB
M  V30 COUNTS 57 60 0 0 0
M  V30 BEGIN ATOM
M  V30 1 C 2.450574 -4.295142 2.963575 0
M  V30 2 C 3.016050 -3.270803 2.355420 0
M  V30 3 C 2.469736 -3.015762 1.027587 0
M  V30 4 O 1.564054 -3.846203 0.755221 0
M  V30 5 N 3.153144 -1.890726 0.466279 0
M  V30 6 C 4.229079 -1.002889 0.940636 0
M  V30 7 C 3.594294 0.374638 0.892949 0
M  V30 8 C 3.458541 0.758015 -0.562611 0
M  V30 9 C 2.201881 1.542665 -0.691632 0
M  V30 10 C 2.188050 2.843864 -1.147419 0
M  V30 11 C 1.022971 3.565376 -1.263985 0
M  V30 12 C -0.110219 2.881656 -0.890383 0
M  V30 13 C -1.380270 3.573662 -0.956328 0
M  V30 14 N -1.449243 4.924720 -1.427688 0
M  V30 15 O -2.617961 3.598435 -0.789230 0
M  V30 16 C -0.146905 1.586134 -0.431718 0
M  V30 17 C -1.303424 0.805854 -0.015435 0
M  V30 18 C -1.124611 0.191772 1.230450 0
M  V30 19 C -2.074146 -0.609981 1.827714 0
M  V30 20 C -3.267953 -0.827417 1.175062 0
M  V30 21 O -4.281864 -1.618352 1.697495 0
M  V30 22 C -4.382250 -2.976258 1.462970 0
M  V30 23 C -5.129586 -3.322169 0.343079 0
M  V30 24 C -5.340896 -4.622111 -0.050614 0
M  V30 25 C -4.764346 -5.621032 0.732234 0
M  V30 26 C -4.013153 -5.311808 1.855502 0
M  V30 27 C -3.821222 -3.987478 2.222221 0
M  V30 28 C -3.454561 -0.229346 -0.049891 0
M  V30 29 C -2.507549 0.565774 -0.638353 0
M  V30 30 N 1.053206 0.953482 -0.349965 0
M  V30 31 C 3.316749 -0.434589 -1.480266 0
M  V30 32 C 2.628450 -1.611127 -0.858382 0
M  V30 33 H 1.781443 -5.145705 3.126803 0
M  V30 34 H 2.370793 -4.944930 3.826128 0
M  V30 35 H 3.752074 -2.914396 3.067012 0
M  V30 36 H 5.015766 -1.015919 0.158491 0
M  V30 37 H 4.601235 -1.290377 1.926359 0
M  V30 38 H 2.576610 0.362552 1.330446 0
M  V30 39 H 4.222826 1.138825 1.392863 0
M  V30 40 H 4.348254 1.354384 -0.853881 0
M  V30 41 H 3.117257 3.341601 -1.431721 0
M  V30 42 H 0.938170 4.583709 -1.611837 0
M  V30 43 H -1.374571 5.827972 -0.890994 0
M  V30 44 H -1.588255 5.283511 -2.420085 0
M  V30 45 H -0.209299 0.300863 1.833166 0
M  V30 46 H -1.921353 -1.077411 2.790597 0
M  V30 47 H -5.601611 -2.581970 -0.302447 0
M  V30 48 H -5.915203 -4.909811 -0.912618 0
M  V30 49 H -4.921788 -6.655180 0.434998 0
M  V30 50 H -3.567794 -6.090047 2.459583 0
M  V30 51 H -3.251078 -3.667379 3.080144 0
M  V30 52 H -4.381213 -0.378879 -0.591380 0
M  V30 53 H -2.599766 1.040350 -1.588890 0
M  V30 54 H 4.335498 -0.728935 -1.786601 0
M  V30 55 H 2.767681 -0.117637 -2.392826 0
M  V30 56 H 1.541817 -1.401097 -0.815072 0
M  V30 57 H 2.847902 -2.500705 -1.481643 0
M  V30 END ATOM
M  V30 BEGIN BOND
M  V30 1 2 1 2
M  V30 2 1 2 3
M  V30 3 2 3 4
M  V30 4 1 3 5
M  V30 5 1 5 6
M  V30 6 1 6 7
M  V30 7 1 7 8
M  V30 8 1 8 9
M  V30 9 2 9 10
M  V30 10 1 10 11
M  V30 11 2 11 12
M  V30 12 1 12 13
M  V30 13 1 13 14
M  V30 14 2 13 15
M  V30 15 1 12 16
M  V30 16 1 16 17
M  V30 17 2 17 18
M  V30 18 1 18 19
M  V30 19 2 19 20
M  V30 20 1 20 21
M  V30 21 1 21 22
M  V30 22 2 22 23
M  V30 23 1 23 24
M  V30 24 2 24 25
M  V30 25 1 25 26
M  V30 26 2 26 27
M  V30 27 1 20 28
M  V30 28 2 28 29
M  V30 29 2 16 30
M  V30 30 1 8 31
M  V30 31 1 31 32
M  V30 32 1 32 5
M  V30 33 1 30 9
M  V30 34 1 29 17
M  V30 35 1 27 22
M  V30 36 1 1 33
M  V30 37 1 1 34
M  V30 38 1 2 35
M  V30 39 1 6 36
M  V30 40 1 6 37
M  V30 41 1 7 38
M  V30 42 1 7 39
M  V30 43 1 8 40
M  V30 44 1 10 41
M  V30 45 1 11 42
M  V30 46 1 14 43
M  V30 47 1 14 44
M  V30 48 1 18 45
M  V30 49 1 19 46
M  V30 50 1 23 47
M  V30 51 1 24 48
M  V30 52 1 25 49
M  V30 53 1 26 50
M  V30 54 1 27 51
M  V30 55 1 28 52
M  V30 56 1 29 53
M  V30 57 1 31 54
M  V30 58 1 31 55
M  V30 59 1 32 56
M  V30 60 1 32 57
M  V30 END BOND
M  V30 END CTAB
M  END
>  <Dataset>  (30) 
PKIs

>  <Ligand_Instance>  (30) 
nan

>  <PDB_ID>  (30) 
nan

>  <Standardized_SMILES>  (30) 
C=CC(=O)N1CCC(c2ccc(C(N)=O)c(-c3ccc(Oc4ccccc4)cc3)n2)CC1

>  <Name>  (30) 
Orelabrutinib

>  <Pocket>  (30) 
nan

>  <ATP_Site>  (30) 
nan

>  <Peripheral>  (30) 
nan

>  <Num_H_Atoms_ProtBoundConf>  (30) 
nan

>  <Num_Resolved_Atoms>  (30) 
nan

>  <Num_Not_Resolved_Atoms>  (30) 
nan

>  <2D_Mol_H>  (30) 
<rdkit.Chem.rdchem.Mol object at 0x72a239112dc0>

>  <MW>  (30) 
427.504

>  <HBA>  (30) 
4

>  <HBD>  (30) 
1

>  <LogP>  (30) 
4.5318

>  <NRB>  (30) 
6

>  <TPSA>  (30) 
85.52

>  <Num_Heavy_Atoms>  (30) 
32

>  <Ro5>  (30) 
[True, True, True, True, True, True]

>  <Ro5_Fulfilled>  (30) 
True

>  <Ro3>  (30) 
[False, False, True, False]

>  <Ro3_Fulfilled>  (30) 
False

>  <Fsp3>  (30) 
0.192308

>  <Fsp3_0.42>  (30) 
False

>  <Fsp3_0.45>  (30) 
False

>  <Stereogenic_Carbons>  (30) 
0

>  <C_Atoms>  (30) 
26

>  <FCStereo>  (30) 
0.0

>  <SPS>  (30) 
450

>  <nSPS>  (30) 
14.0625

>  <PBF>  (30) 
0.924576

>  <PBF_0.6>  (30) 
True

>  <nPBF>  (30) 
0.028893

>  <nPBF_0.016>  (30) 
True

>  <PMI1>  (30) 
3420.827305

>  <PMI2>  (30) 
5043.030926

>  <PMI3>  (30) 
7850.103552

>  <NPR1>  (30) 
0.435768

>  <NPR2>  (30) 
0.642416

>  <Sum_NPR>  (30) 
1.078184

>  <Sum_NPR_1.07>  (30) 
True

>  <Sum_NPR_1.2>  (30) 
False

>  <MaxAbsEStateIndex>  (30) 
12.045777

>  <MaxEStateIndex>  (30) 
12.045777

>  <MinAbsEStateIndex>  (30) 
0.042606

>  <MinEStateIndex>  (30) 
-0.518462

>  <qed>  (30) 
0.585764

>  <MolWt>  (30) 
427.504

>  <HeavyAtomMolWt>  (30) 
402.304

>  <ExactMolWt>  (30) 
427.189592

>  <NumValenceElectrons>  (30) 
162

>  <NumRadicalElectrons>  (30) 
0

>  <MaxPartialCharge>  (30) 
0.250415

>  <MinPartialCharge>  (30) 
-0.457384

>  <MaxAbsPartialCharge>  (30) 
0.457384

>  <MinAbsPartialCharge>  (30) 
0.250415

>  <FpDensityMorgan1>  (30) 
0.96875

>  <FpDensityMorgan2>  (30) 
1.625

>  <FpDensityMorgan3>  (30) 
2.25

>  <BCUT2D_MWHI>  (30) 
16.480557

>  <BCUT2D_MWLOW>  (30) 
9.914792

>  <BCUT2D_CHGHI>  (30) 
2.244728

>  <BCUT2D_CHGLO>  (30) 
-2.308732

>  <BCUT2D_LOGPHI>  (30) 
2.313373

>  <BCUT2D_LOGPLOW>  (30) 
-2.36533

>  <BCUT2D_MRHI>  (30) 
5.984344

>  <BCUT2D_MRLOW>  (30) 
-0.126544

>  <AvgIpc>  (30) 
2.841256

>  <BalabanJ>  (30) 
1.567022

>  <BertzCT>  (30) 
1118.813867

>  <Chi0>  (30) 
22.501425

>  <Chi0n>  (30) 
17.73761

>  <Chi0v>  (30) 
17.73761

>  <Chi1>  (30) 
15.546045

>  <Chi1n>  (30) 
10.603277

>  <Chi1v>  (30) 
10.603277

>  <Chi2n>  (30) 
7.739711

>  <Chi2v>  (30) 
7.739711

>  <Chi3n>  (30) 
5.688431

>  <Chi3v>  (30) 
5.688431

>  <Chi4n>  (30) 
3.950698

>  <Chi4v>  (30) 
3.950698

>  <HallKierAlpha>  (30) 
-3.93

>  <Ipc>  (30) 
22247626.2805

>  <Kappa1>  (30) 
21.307692

>  <Kappa2>  (30) 
9.472928

>  <Kappa3>  (30) 
4.695867

>  <LabuteASA>  (30) 
186.890598

>  <PEOE_VSA1>  (30) 
15.37044

>  <PEOE_VSA10>  (30) 
11.499024

>  <PEOE_VSA11>  (30) 
0.0

>  <PEOE_VSA12>  (30) 
5.90718

>  <PEOE_VSA13>  (30) 
5.90718

>  <PEOE_VSA14>  (30) 
0.0

>  <PEOE_VSA2>  (30) 
14.573053

>  <PEOE_VSA3>  (30) 
0.0

>  <PEOE_VSA4>  (30) 
0.0

>  <PEOE_VSA5>  (30) 
0.0

>  <PEOE_VSA6>  (30) 
24.778037

>  <PEOE_VSA7>  (30) 
67.4486

>  <PEOE_VSA8>  (30) 
30.264798

>  <PEOE_VSA9>  (30) 
11.257379

>  <SMR_VSA1>  (30) 
14.325937

>  <SMR_VSA10>  (30) 
11.814359

>  <SMR_VSA2>  (30) 
0.0

>  <SMR_VSA3>  (30) 
9.883888

>  <SMR_VSA4>  (30) 
5.733667

>  <SMR_VSA5>  (30) 
18.759549

>  <SMR_VSA6>  (30) 
13.089513

>  <SMR_VSA7>  (30) 
90.642373

>  <SMR_VSA8>  (30) 
0.0

>  <SMR_VSA9>  (30) 
22.756403

>  <SlogP_VSA1>  (30) 
10.47053

>  <SlogP_VSA10>  (30) 
0.0

>  <SlogP_VSA11>  (30) 
11.499024

>  <SlogP_VSA12>  (30) 
0.0

>  <SlogP_VSA2>  (30) 
34.787761

>  <SlogP_VSA3>  (30) 
4.794537

>  <SlogP_VSA4>  (30) 
0.0

>  <SlogP_VSA5>  (30) 
34.811466

>  <SlogP_VSA6>  (30) 
79.384994

>  <SlogP_VSA7>  (30) 
0.0

>  <SlogP_VSA8>  (30) 
11.257379

>  <SlogP_VSA9>  (30) 
0.0

>  <EState_VSA1>  (30) 
5.90718

>  <EState_VSA10>  (30) 
9.589074

>  <EState_VSA11>  (30) 
0.0

>  <EState_VSA2>  (30) 
11.825086

>  <EState_VSA3>  (30) 
30.096404

>  <EState_VSA4>  (30) 
29.848535

>  <EState_VSA5>  (30) 
6.07602

>  <EState_VSA6>  (30) 
10.966277

>  <EState_VSA7>  (30) 
60.663671

>  <EState_VSA8>  (30) 
6.578936

>  <EState_VSA9>  (30) 
15.454509

>  <VSA_EState1>  (30) 
5.853166

>  <VSA_EState10>  (30) 
0.0

>  <VSA_EState2>  (30) 
30.513636

>  <VSA_EState3>  (30) 
0.0

>  <VSA_EState4>  (30) 
8.257571

>  <VSA_EState5>  (30) 
1.092351

>  <VSA_EState6>  (30) 
20.59439

>  <VSA_EState7>  (30) 
2.973303

>  <VSA_EState8>  (30) 
4.88225

>  <VSA_EState9>  (30) 
0.0

>  <FractionCSP3>  (30) 
0.192308

>  <HeavyAtomCount>  (30) 
32

>  <NHOHCount>  (30) 
2

>  <NOCount>  (30) 
6

>  <NumAliphaticCarbocycles>  (30) 
0

>  <NumAliphaticHeterocycles>  (30) 
1

>  <NumAliphaticRings>  (30) 
1

>  <NumAromaticCarbocycles>  (30) 
2

>  <NumAromaticHeterocycles>  (30) 
1

>  <NumAromaticRings>  (30) 
3

>  <NumHAcceptors>  (30) 
4

>  <NumHDonors>  (30) 
1

>  <NumHeteroatoms>  (30) 
6

>  <NumRotatableBonds>  (30) 
6

>  <NumSaturatedCarbocycles>  (30) 
0

>  <NumSaturatedHeterocycles>  (30) 
1

>  <NumSaturatedRings>  (30) 
1

>  <RingCount>  (30) 
4

>  <MolLogP>  (30) 
4.5318

>  <MolMR>  (30) 
123.4589

>  <fr_Al_COO>  (30) 
0

>  <fr_Al_OH>  (30) 
0

>  <fr_Al_OH_noTert>  (30) 
0

>  <fr_ArN>  (30) 
0

>  <fr_Ar_COO>  (30) 
0

>  <fr_Ar_N>  (30) 
1

>  <fr_Ar_NH>  (30) 
0

>  <fr_Ar_OH>  (30) 
0

>  <fr_COO>  (30) 
0

>  <fr_COO2>  (30) 
0

>  <fr_C_O>  (30) 
2

>  <fr_C_O_noCOO>  (30) 
2

>  <fr_C_S>  (30) 
0

>  <fr_HOCCN>  (30) 
0

>  <fr_Imine>  (30) 
0

>  <fr_NH0>  (30) 
2

>  <fr_NH1>  (30) 
0

>  <fr_NH2>  (30) 
1

>  <fr_N_O>  (30) 
0

>  <fr_Ndealkylation1>  (30) 
0

>  <fr_Ndealkylation2>  (30) 
1

>  <fr_Nhpyrrole>  (30) 
0

>  <fr_SH>  (30) 
0

>  <fr_aldehyde>  (30) 
0

>  <fr_alkyl_carbamate>  (30) 
0

>  <fr_alkyl_halide>  (30) 
0

>  <fr_allylic_oxid>  (30) 
0

>  <fr_amide>  (30) 
2

>  <fr_amidine>  (30) 
0

>  <fr_aniline>  (30) 
0

>  <fr_aryl_methyl>  (30) 
0

>  <fr_azide>  (30) 
0

>  <fr_azo>  (30) 
0

>  <fr_barbitur>  (30) 
0

>  <fr_benzene>  (30) 
2

>  <fr_benzodiazepine>  (30) 
0

>  <fr_bicyclic>  (30) 
0

>  <fr_diazo>  (30) 
0

>  <fr_dihydropyridine>  (30) 
0

>  <fr_epoxide>  (30) 
0

>  <fr_ester>  (30) 
0

>  <fr_ether>  (30) 
1

>  <fr_furan>  (30) 
0

>  <fr_guanido>  (30) 
0

>  <fr_halogen>  (30) 
0

>  <fr_hdrzine>  (30) 
0

>  <fr_hdrzone>  (30) 
0

>  <fr_imidazole>  (30) 
0

>  <fr_imide>  (30) 
0

>  <fr_isocyan>  (30) 
0

>  <fr_isothiocyan>  (30) 
0

>  <fr_ketone>  (30) 
0

>  <fr_ketone_Topliss>  (30) 
0

>  <fr_lactam>  (30) 
0

>  <fr_lactone>  (30) 
0

>  <fr_methoxy>  (30) 
0

>  <fr_morpholine>  (30) 
0

>  <fr_nitrile>  (30) 
0

>  <fr_nitro>  (30) 
0

>  <fr_nitro_arom>  (30) 
0

>  <fr_nitro_arom_nonortho>  (30) 
0

>  <fr_nitroso>  (30) 
0

>  <fr_oxazole>  (30) 
0

>  <fr_oxime>  (30) 
0

>  <fr_para_hydroxylation>  (30) 
1

>  <fr_phenol>  (30) 
0

>  <fr_phenol_noOrthoHbond>  (30) 
0

>  <fr_phos_acid>  (30) 
0

>  <fr_phos_ester>  (30) 
0

>  <fr_piperdine>  (30) 
1

>  <fr_piperzine>  (30) 
0

>  <fr_priamide>  (30) 
1

>  <fr_prisulfonamd>  (30) 
0

>  <fr_pyridine>  (30) 
1

>  <fr_quatN>  (30) 
0

>  <fr_sulfide>  (30) 
0

>  <fr_sulfonamd>  (30) 
0

>  <fr_sulfone>  (30) 
0

>  <fr_term_acetylene>  (30) 
0

>  <fr_tetrazole>  (30) 
0

>  <fr_thiazole>  (30) 
0

>  <fr_thiocyan>  (30) 
0

>  <fr_thiophene>  (30) 
0

>  <fr_unbrch_alkane>  (30) 
0

>  <fr_urea>  (30) 
0

>  <NP_Likeness>  (30) 
-0.637941

$$$$
nan
     RDKit          3D

  0  0  0  0  0  0  0  0  0  0999 V3000
M  V30 BEGIN CTAB
M  V30 COUNTS 53 57 0 0 0
M  V30 BEGIN ATOM
M  V30 1 O 1.319444 -4.640261 -0.749856 0
M  V30 2 C 0.105135 -4.600857 -1.122718 0
M  V30 3 N -0.567636 -3.722529 -2.004794 0
M  V30 4 C 0.291479 -2.730310 -2.545369 0
M  V30 5 N 1.090222 -2.556812 -3.600839 0
M  V30 6 C 1.660724 -1.325264 -3.537281 0
M  V30 7 C 2.557031 -0.738873 -4.432601 0
M  V30 8 C 2.948038 0.539379 -4.068630 0
M  V30 9 C 2.494347 1.162605 -2.936468 0
M  V30 10 C 1.607254 0.509639 -2.103939 0
M  V30 11 C 1.085809 1.112435 -0.886876 0
M  V30 12 C 1.848023 1.794198 0.038381 0
M  V30 13 C 1.284126 2.340290 1.171484 0
M  V30 14 C -0.057563 2.241210 1.448292 0
M  V30 15 C -0.770604 2.780225 2.629750 0
M  V30 16 N -0.834340 1.823951 3.650713 0
M  V30 17 C 0.347936 1.310842 4.219818 0
M  V30 18 C 0.310906 -0.206834 3.979190 0
M  V30 19 S -1.374252 -0.764245 3.880197 0
M  V30 20 O -1.521507 -2.104815 4.542569 0
M  V30 21 O -1.727429 -0.895333 2.405370 0
M  V30 22 C -2.477519 0.408923 4.628170 0
M  V30 23 C -1.970767 1.827213 4.493435 0
M  V30 24 C -0.783668 1.539907 0.476961 0
M  V30 25 C -0.269964 0.975167 -0.671884 0
M  V30 26 N 1.191959 -0.734005 -2.406373 0
M  V30 27 N 0.363926 -1.596914 -1.816276 0
M  V30 28 C -0.572723 -5.729916 -0.423038 0
M  V30 29 C -1.963111 -5.352423 0.164609 0
M  V30 30 C -1.788079 -6.352688 -0.960549 0
M  V30 31 H -1.603046 -3.860716 -2.187270 0
M  V30 32 H 2.870589 -1.289715 -5.303712 0
M  V30 33 H 3.653238 1.029228 -4.751974 0
M  V30 34 H 2.832125 2.152421 -2.706448 0
M  V30 35 H 2.906722 1.891809 -0.146015 0
M  V30 36 H 1.891243 2.871822 1.879456 0
M  V30 37 H -0.396588 3.780457 2.926272 0
M  V30 38 H -1.831617 2.974695 2.295323 0
M  V30 39 H 1.282767 1.733695 3.870152 0
M  V30 40 H 0.379761 1.410850 5.347511 0
M  V30 41 H 0.783436 -0.755293 4.838218 0
M  V30 42 H 0.886252 -0.478120 3.067866 0
M  V30 43 H -3.453920 0.399291 4.062513 0
M  V30 44 H -2.682623 0.122429 5.681015 0
M  V30 45 H -2.752969 2.556131 4.220296 0
M  V30 46 H -1.633901 2.116820 5.530644 0
M  V30 47 H -1.849388 1.430771 0.643806 0
M  V30 48 H -0.930166 0.456979 -1.348261 0
M  V30 49 H 0.082141 -6.322193 0.228192 0
M  V30 50 H -2.363409 -4.361040 -0.108465 0
M  V30 51 H -2.145296 -5.715494 1.181571 0
M  V30 52 H -2.168875 -6.072323 -1.954650 0
M  V30 53 H -1.997604 -7.400390 -0.659885 0
M  V30 END ATOM
M  V30 BEGIN BOND
M  V30 1 2 1 2
M  V30 2 1 2 3
M  V30 3 1 3 4
M  V30 4 1 4 5
M  V30 5 2 5 6
M  V30 6 1 6 7
M  V30 7 2 7 8
M  V30 8 1 8 9
M  V30 9 2 9 10
M  V30 10 1 10 11
M  V30 11 2 11 12
M  V30 12 1 12 13
M  V30 13 2 13 14
M  V30 14 1 14 15
M  V30 15 1 15 16
M  V30 16 1 16 17
M  V30 17 1 17 18
M  V30 18 1 18 19
M  V30 19 2 19 20
M  V30 20 2 19 21
M  V30 21 1 19 22
M  V30 22 1 22 23
M  V30 23 1 14 24
M  V30 24 2 24 25
M  V30 25 1 10 26
M  V30 26 1 26 27
M  V30 27 1 2 28
M  V30 28 1 28 29
M  V30 29 1 29 30
M  V30 30 2 27 4
M  V30 31 1 30 28
M  V30 32 1 26 6
M  V30 33 1 25 11
M  V30 34 1 23 16
M  V30 35 1 3 31
M  V30 36 1 7 32
M  V30 37 1 8 33
M  V30 38 1 9 34
M  V30 39 1 12 35
M  V30 40 1 13 36
M  V30 41 1 15 37
M  V30 42 1 15 38
M  V30 43 1 17 39
M  V30 44 1 17 40
M  V30 45 1 18 41
M  V30 46 1 18 42
M  V30 47 1 22 43
M  V30 48 1 22 44
M  V30 49 1 23 45
M  V30 50 1 23 46
M  V30 51 1 24 47
M  V30 52 1 25 48
M  V30 53 1 28 49
M  V30 54 1 29 50
M  V30 55 1 29 51
M  V30 56 1 30 52
M  V30 57 1 30 53
M  V30 END BOND
M  V30 END CTAB
M  END
>  <Dataset>  (31) 
PKIs

>  <Ligand_Instance>  (31) 
nan

>  <PDB_ID>  (31) 
nan

>  <Standardized_SMILES>  (31) 
O=C(Nc1nc2cccc(-c3ccc(CN4CCS(=O)(=O)CC4)cc3)n2n1)C1CC1

>  <Name>  (31) 
Filgotinib

>  <Pocket>  (31) 
nan

>  <ATP_Site>  (31) 
nan

>  <Peripheral>  (31) 
nan

>  <Num_H_Atoms_ProtBoundConf>  (31) 
nan

>  <Num_Resolved_Atoms>  (31) 
nan

>  <Num_Not_Resolved_Atoms>  (31) 
nan

>  <2D_Mol_H>  (31) 
<rdkit.Chem.rdchem.Mol object at 0x72a239112ea0>

>  <MW>  (31) 
425.514

>  <HBA>  (31) 
7

>  <HBD>  (31) 
1

>  <LogP>  (31) 
1.9752

>  <NRB>  (31) 
5

>  <TPSA>  (31) 
96.67

>  <Num_Heavy_Atoms>  (31) 
30

>  <Ro5>  (31) 
[True, True, True, True, True, True]

>  <Ro5_Fulfilled>  (31) 
True

>  <Ro3>  (31) 
[False, False, True, True]

>  <Ro3_Fulfilled>  (31) 
False

>  <Fsp3>  (31) 
0.380952

>  <Fsp3_0.42>  (31) 
False

>  <Fsp3_0.45>  (31) 
False

>  <Stereogenic_Carbons>  (31) 
0

>  <C_Atoms>  (31) 
21

>  <FCStereo>  (31) 
0.0

>  <SPS>  (31) 
572

>  <nSPS>  (31) 
19.066667

>  <PBF>  (31) 
0.839533

>  <PBF_0.6>  (31) 
True

>  <nPBF>  (31) 
0.027984

>  <nPBF_0.016>  (31) 
True

>  <PMI1>  (31) 
2849.142759

>  <PMI2>  (31) 
4713.132142

>  <PMI3>  (31) 
7040.817402

>  <NPR1>  (31) 
0.404661

>  <NPR2>  (31) 
0.669401

>  <Sum_NPR>  (31) 
1.074062

>  <Sum_NPR_1.07>  (31) 
True

>  <Sum_NPR_1.2>  (31) 
False

>  <MaxAbsEStateIndex>  (31) 
12.00539

>  <MaxEStateIndex>  (31) 
12.00539

>  <MinAbsEStateIndex>  (31) 
0.011739

>  <MinEStateIndex>  (31) 
-2.862122

>  <qed>  (31) 
0.671443

>  <MolWt>  (31) 
425.514

>  <HeavyAtomMolWt>  (31) 
402.33

>  <ExactMolWt>  (31) 
425.152161

>  <NumValenceElectrons>  (31) 
156

>  <NumRadicalElectrons>  (31) 
0

>  <MaxPartialCharge>  (31) 
0.249237

>  <MinPartialCharge>  (31) 
-0.297068

>  <MaxAbsPartialCharge>  (31) 
0.297068

>  <MinAbsPartialCharge>  (31) 
0.249237

>  <FpDensityMorgan1>  (31) 
1.066667

>  <FpDensityMorgan2>  (31) 
1.8

>  <FpDensityMorgan3>  (31) 
2.5

>  <BCUT2D_MWHI>  (31) 
32.22783

>  <BCUT2D_MWLOW>  (31) 
10.080911

>  <BCUT2D_CHGHI>  (31) 
2.300176

>  <BCUT2D_CHGLO>  (31) 
-2.260279

>  <BCUT2D_LOGPHI>  (31) 
2.297249

>  <BCUT2D_LOGPLOW>  (31) 
-2.391494

>  <BCUT2D_MRHI>  (31) 
7.90989

>  <BCUT2D_MRLOW>  (31) 
-0.116886

>  <AvgIpc>  (31) 
3.50081

>  <BalabanJ>  (31) 
1.333006

>  <BertzCT>  (31) 
1185.109817

>  <Chi0>  (31) 
20.716968

>  <Chi0n>  (31) 
16.490397

>  <Chi0v>  (31) 
17.306894

>  <Chi1>  (31) 
14.46626

>  <Chi1n>  (31) 
10.155634

>  <Chi1v>  (31) 
11.977001

>  <Chi2n>  (31) 
8.00485

>  <Chi2v>  (31) 
10.308487

>  <Chi3n>  (31) 
5.635821

>  <Chi3v>  (31) 
7.244986

>  <Chi4n>  (31) 
3.681948

>  <Chi4v>  (31) 
4.958811

>  <HallKierAlpha>  (31) 
-2.78

>  <Ipc>  (31) 
13354833.866971

>  <Kappa1>  (31) 
19.199402

>  <Kappa2>  (31) 
7.479471

>  <Kappa3>  (31) 
4.079546

>  <LabuteASA>  (31) 
174.38384

>  <PEOE_VSA1>  (31) 
0.0

>  <PEOE_VSA10>  (31) 
0.0

>  <PEOE_VSA11>  (31) 
15.48443

>  <PEOE_VSA12>  (31) 
11.855519

>  <PEOE_VSA13>  (31) 
0.0

>  <PEOE_VSA14>  (31) 
0.0

>  <PEOE_VSA2>  (31) 
15.011236

>  <PEOE_VSA3>  (31) 
12.933195

>  <PEOE_VSA4>  (31) 
4.983979

>  <PEOE_VSA5>  (31) 
5.098682

>  <PEOE_VSA6>  (31) 
30.331835

>  <PEOE_VSA7>  (31) 
30.537829

>  <PEOE_VSA8>  (31) 
31.115627

>  <PEOE_VSA9>  (31) 
17.199635

>  <SMR_VSA1>  (31) 
13.212334

>  <SMR_VSA10>  (31) 
27.339949

>  <SMR_VSA2>  (31) 
0.0

>  <SMR_VSA3>  (31) 
19.497968

>  <SMR_VSA4>  (31) 
5.917906

>  <SMR_VSA5>  (31) 
19.3864

>  <SMR_VSA6>  (31) 
29.912009

>  <SMR_VSA7>  (31) 
48.028021

>  <SMR_VSA8>  (31) 
0.0

>  <SMR_VSA9>  (31) 
11.257379

>  <SlogP_VSA1>  (31) 
5.316789

>  <SlogP_VSA10>  (31) 
5.948339

>  <SlogP_VSA11>  (31) 
0.0

>  <SlogP_VSA12>  (31) 
0.0

>  <SlogP_VSA2>  (31) 
58.418165

>  <SlogP_VSA3>  (31) 
21.176547

>  <SlogP_VSA4>  (31) 
5.917906

>  <SlogP_VSA5>  (31) 
18.405095

>  <SlogP_VSA6>  (31) 
42.464569

>  <SlogP_VSA7>  (31) 
0.0

>  <SlogP_VSA8>  (31) 
16.904557

>  <SlogP_VSA9>  (31) 
0.0

>  <EState_VSA1>  (31) 
9.837253

>  <EState_VSA10>  (31) 
13.212334

>  <EState_VSA11>  (31) 
0.0

>  <EState_VSA2>  (31) 
23.330793

>  <EState_VSA3>  (31) 
24.685029

>  <EState_VSA4>  (31) 
36.207231

>  <EState_VSA5>  (31) 
0.0

>  <EState_VSA6>  (31) 
4.515398

>  <EState_VSA7>  (31) 
30.331835

>  <EState_VSA8>  (31) 
32.432093

>  <EState_VSA9>  (31) 
0.0

>  <VSA_EState1>  (31) 
24.925213

>  <VSA_EState10>  (31) 
0.0

>  <VSA_EState2>  (31) 
18.59486

>  <VSA_EState3>  (31) 
7.279358

>  <VSA_EState4>  (31) 
3.705071

>  <VSA_EState5>  (31) 
0.888736

>  <VSA_EState6>  (31) 
13.950861

>  <VSA_EState7>  (31) 
1.869135

>  <VSA_EState8>  (31) 
1.898887

>  <VSA_EState9>  (31) 
-2.862122

>  <FractionCSP3>  (31) 
0.380952

>  <HeavyAtomCount>  (31) 
30

>  <NHOHCount>  (31) 
1

>  <NOCount>  (31) 
8

>  <NumAliphaticCarbocycles>  (31) 
1

>  <NumAliphaticHeterocycles>  (31) 
1

>  <NumAliphaticRings>  (31) 
2

>  <NumAromaticCarbocycles>  (31) 
1

>  <NumAromaticHeterocycles>  (31) 
2

>  <NumAromaticRings>  (31) 
3

>  <NumHAcceptors>  (31) 
7

>  <NumHDonors>  (31) 
1

>  <NumHeteroatoms>  (31) 
9

>  <NumRotatableBonds>  (31) 
5

>  <NumSaturatedCarbocycles>  (31) 
1

>  <NumSaturatedHeterocycles>  (31) 
1

>  <NumSaturatedRings>  (31) 
2

>  <RingCount>  (31) 
5

>  <MolLogP>  (31) 
1.9752

>  <MolMR>  (31) 
113.7075

>  <fr_Al_COO>  (31) 
0

>  <fr_Al_OH>  (31) 
0

>  <fr_Al_OH_noTert>  (31) 
0

>  <fr_ArN>  (31) 
0

>  <fr_Ar_COO>  (31) 
0

>  <fr_Ar_N>  (31) 
3

>  <fr_Ar_NH>  (31) 
0

>  <fr_Ar_OH>  (31) 
0

>  <fr_COO>  (31) 
0

>  <fr_COO2>  (31) 
0

>  <fr_C_O>  (31) 
1

>  <fr_C_O_noCOO>  (31) 
1

>  <fr_C_S>  (31) 
0

>  <fr_HOCCN>  (31) 
0

>  <fr_Imine>  (31) 
0

>  <fr_NH0>  (31) 
4

>  <fr_NH1>  (31) 
1

>  <fr_NH2>  (31) 
0

>  <fr_N_O>  (31) 
0

>  <fr_Ndealkylation1>  (31) 
0

>  <fr_Ndealkylation2>  (31) 
0

>  <fr_Nhpyrrole>  (31) 
0

>  <fr_SH>  (31) 
0

>  <fr_aldehyde>  (31) 
0

>  <fr_alkyl_carbamate>  (31) 
0

>  <fr_alkyl_halide>  (31) 
0

>  <fr_allylic_oxid>  (31) 
0

>  <fr_amide>  (31) 
1

>  <fr_amidine>  (31) 
0

>  <fr_aniline>  (31) 
1

>  <fr_aryl_methyl>  (31) 
0

>  <fr_azide>  (31) 
0

>  <fr_azo>  (31) 
0

>  <fr_barbitur>  (31) 
0

>  <fr_benzene>  (31) 
1

>  <fr_benzodiazepine>  (31) 
0

>  <fr_bicyclic>  (31) 
1

>  <fr_diazo>  (31) 
0

>  <fr_dihydropyridine>  (31) 
0

>  <fr_epoxide>  (31) 
0

>  <fr_ester>  (31) 
0

>  <fr_ether>  (31) 
0

>  <fr_furan>  (31) 
0

>  <fr_guanido>  (31) 
0

>  <fr_halogen>  (31) 
0

>  <fr_hdrzine>  (31) 
0

>  <fr_hdrzone>  (31) 
0

>  <fr_imidazole>  (31) 
0

>  <fr_imide>  (31) 
0

>  <fr_isocyan>  (31) 
0

>  <fr_isothiocyan>  (31) 
0

>  <fr_ketone>  (31) 
0

>  <fr_ketone_Topliss>  (31) 
0

>  <fr_lactam>  (31) 
0

>  <fr_lactone>  (31) 
0

>  <fr_methoxy>  (31) 
0

>  <fr_morpholine>  (31) 
0

>  <fr_nitrile>  (31) 
0

>  <fr_nitro>  (31) 
0

>  <fr_nitro_arom>  (31) 
0

>  <fr_nitro_arom_nonortho>  (31) 
0

>  <fr_nitroso>  (31) 
0

>  <fr_oxazole>  (31) 
0

>  <fr_oxime>  (31) 
0

>  <fr_para_hydroxylation>  (31) 
0

>  <fr_phenol>  (31) 
0

>  <fr_phenol_noOrthoHbond>  (31) 
0

>  <fr_phos_acid>  (31) 
0

>  <fr_phos_ester>  (31) 
0

>  <fr_piperdine>  (31) 
0

>  <fr_piperzine>  (31) 
0

>  <fr_priamide>  (31) 
0

>  <fr_prisulfonamd>  (31) 
0

>  <fr_pyridine>  (31) 
1

>  <fr_quatN>  (31) 
0

>  <fr_sulfide>  (31) 
0

>  <fr_sulfonamd>  (31) 
0

>  <fr_sulfone>  (31) 
1

>  <fr_term_acetylene>  (31) 
0

>  <fr_tetrazole>  (31) 
0

>  <fr_thiazole>  (31) 
0

>  <fr_thiocyan>  (31) 
0

>  <fr_thiophene>  (31) 
0

>  <fr_unbrch_alkane>  (31) 
0

>  <fr_urea>  (31) 
0

>  <NP_Likeness>  (31) 
-1.999686

$$$$
nan
     RDKit          3D

  0  0  0  0  0  0  0  0  0  0999 V3000
M  V30 BEGIN CTAB
M  V30 COUNTS 60 65 0 0 0
M  V30 BEGIN ATOM
M  V30 1 C -0.540968 -3.879287 2.064906 0
M  V30 2 C 0.713470 -3.237801 1.663893 0
M  V30 3 C 1.058149 -2.139953 2.422532 0
M  V30 4 C 2.213481 -1.412226 2.188071 0
M  V30 5 N 2.672735 -0.282227 2.929061 0
M  V30 6 C 3.528729 0.637769 2.257648 0
M  V30 7 N 4.834232 0.530387 1.970477 0
M  V30 8 C 5.494149 1.524662 1.326178 0
M  V30 9 N 4.776797 2.605491 0.998237 0
M  V30 10 C 3.485335 2.798090 1.242092 0
M  V30 11 C 2.830019 3.973966 0.862826 0
M  V30 12 C 1.487713 4.133104 1.146149 0
M  V30 13 C 0.789782 3.151523 1.795310 0
M  V30 14 N -0.608468 3.196809 2.153511 0
M  V30 15 C -1.698265 2.683506 1.409346 0
M  V30 16 N -1.490115 1.706313 0.580284 0
M  V30 17 C -2.723614 1.333103 -0.073611 0
M  V30 18 C -3.239874 -0.001818 0.454773 0
M  V30 19 C -2.606680 1.230180 -1.569743 0
M  V30 20 C -3.707388 2.388582 0.355971 0
M  V30 21 O -3.029411 3.055001 1.401604 0
M  V30 22 C 1.465695 2.008981 2.152749 0
M  V30 23 C 2.794186 1.773959 1.908074 0
M  V30 24 C 2.987895 -1.890946 1.122862 0
M  V30 25 C 2.704667 -2.980545 0.324623 0
M  V30 26 C 1.538555 -3.652663 0.618223 0
M  V30 27 O 1.190511 -4.759424 -0.140439 0
M  V30 28 C 0.047405 -4.782943 -0.921194 0
M  V30 29 C -0.739172 -3.631816 -1.063413 0
M  V30 30 C -1.912285 -3.543436 -1.826611 0
M  V30 31 N -2.290350 -4.670049 -2.463104 0
M  V30 32 N -3.356334 -4.833319 -3.240631 0
M  V30 33 C -3.366581 -6.102500 -3.679239 0
M  V30 34 N -2.266180 -6.706234 -3.137739 0
M  V30 35 C -1.586439 -5.828568 -2.378901 0
M  V30 36 C -0.443457 -5.860411 -1.616990 0
M  V30 37 H -0.662142 -3.906504 3.186324 0
M  V30 38 H -0.670862 -4.902095 1.728751 0
M  V30 39 H -1.461240 -3.311886 1.723138 0
M  V30 40 H 0.470632 -1.741885 3.263035 0
M  V30 41 H 2.320640 -0.257979 3.906438 0
M  V30 42 H 6.547003 1.371724 1.127592 0
M  V30 43 H 3.355481 4.760463 0.351906 0
M  V30 44 H 0.936121 5.016110 0.878073 0
M  V30 45 H -0.830008 3.670604 3.082287 0
M  V30 46 H -2.799474 -0.203200 1.457849 0
M  V30 47 H -3.010477 -0.850089 -0.206846 0
M  V30 48 H -4.336620 0.063935 0.523760 0
M  V30 49 H -3.038341 0.256388 -1.937124 0
M  V30 50 H -3.148270 2.041260 -2.094781 0
M  V30 51 H -1.555127 1.247527 -1.941889 0
M  V30 52 H -3.902405 3.028026 -0.523486 0
M  V30 53 H -4.666213 1.931085 0.730554 0
M  V30 54 H 0.950741 1.221279 2.662917 0
M  V30 55 H 3.926167 -1.370960 0.866500 0
M  V30 56 H 3.354949 -3.275155 -0.470819 0
M  V30 57 H -0.440916 -2.703155 -0.553548 0
M  V30 58 H -2.434598 -2.594004 -1.860495 0
M  V30 59 H -4.085551 -6.582755 -4.329143 0
M  V30 60 H 0.129261 -6.788958 -1.543905 0
M  V30 END ATOM
M  V30 BEGIN BOND
M  V30 1 1 1 2
M  V30 2 2 2 3
M  V30 3 1 3 4
M  V30 4 1 4 5
M  V30 5 1 5 6
M  V30 6 2 6 7
M  V30 7 1 7 8
M  V30 8 2 8 9
M  V30 9 1 9 10
M  V30 10 2 10 11
M  V30 11 1 11 12
M  V30 12 2 12 13
M  V30 13 1 13 14
M  V30 14 1 14 15
M  V30 15 2 15 16
M  V30 16 1 16 17
M  V30 17 1 17 18
M  V30 18 1 17 19
M  V30 19 1 17 20
M  V30 20 1 20 21
M  V30 21 1 13 22
M  V30 22 2 22 23
M  V30 23 2 4 24
M  V30 24 1 24 25
M  V30 25 2 25 26
M  V30 26 1 26 27
M  V30 27 1 27 28
M  V30 28 1 28 29
M  V30 29 2 29 30
M  V30 30 1 30 31
M  V30 31 1 31 32
M  V30 32 2 32 33
M  V30 33 1 33 34
M  V30 34 2 34 35
M  V30 35 1 35 36
M  V30 36 1 26 2
M  V30 37 2 36 28
M  V30 38 1 23 6
M  V30 39 1 35 31
M  V30 40 1 23 10
M  V30 41 1 21 15
M  V30 42 1 1 37
M  V30 43 1 1 38
M  V30 44 1 1 39
M  V30 45 1 3 40
M  V30 46 1 5 41
M  V30 47 1 8 42
M  V30 48 1 11 43
M  V30 49 1 12 44
M  V30 50 1 14 45
M  V30 51 1 18 46
M  V30 52 1 18 47
M  V30 53 1 18 48
M  V30 54 1 19 49
M  V30 55 1 19 50
M  V30 56 1 19 51
M  V30 57 1 20 52
M  V30 58 1 20 53
M  V30 59 1 22 54
M  V30 60 1 24 55
M  V30 61 1 25 56
M  V30 62 1 29 57
M  V30 63 1 30 58
M  V30 64 1 33 59
M  V30 65 1 36 60
M  V30 END BOND
M  V30 END CTAB
M  END
>  <Dataset>  (32) 
PKIs

>  <Ligand_Instance>  (32) 
nan

>  <PDB_ID>  (32) 
nan

>  <Standardized_SMILES>  (32) 
Cc1cc(Nc2ncnc3ccc(NC4=NC(C)(C)CO4)cc23)ccc1Oc1ccn2ncnc2c1

>  <Name>  (32) 
Tucatinib

>  <Pocket>  (32) 
nan

>  <ATP_Site>  (32) 
nan

>  <Peripheral>  (32) 
nan

>  <Num_H_Atoms_ProtBoundConf>  (32) 
nan

>  <Num_Resolved_Atoms>  (32) 
nan

>  <Num_Not_Resolved_Atoms>  (32) 
nan

>  <2D_Mol_H>  (32) 
<rdkit.Chem.rdchem.Mol object at 0x72a239112f80>

>  <MW>  (32) 
480.532

>  <HBA>  (32) 
10

>  <HBD>  (32) 
2

>  <LogP>  (32) 
5.09352

>  <NRB>  (32) 
8

>  <TPSA>  (32) 
110.85

>  <Num_Heavy_Atoms>  (32) 
36

>  <Ro5>  (32) 
[True, True, True, False, True, True]

>  <Ro5_Fulfilled>  (32) 
True

>  <Ro3>  (32) 
[False, False, True, False]

>  <Ro3_Fulfilled>  (32) 
False

>  <Fsp3>  (32) 
0.192308

>  <Fsp3_0.42>  (32) 
False

>  <Fsp3_0.45>  (32) 
False

>  <Stereogenic_Carbons>  (32) 
0

>  <C_Atoms>  (32) 
26

>  <FCStereo>  (32) 
0.0

>  <SPS>  (32) 
521

>  <nSPS>  (32) 
14.472222

>  <PBF>  (32) 
1.140303

>  <PBF_0.6>  (32) 
True

>  <nPBF>  (32) 
0.031675

>  <nPBF_0.016>  (32) 
True

>  <PMI1>  (32) 
3476.623876

>  <PMI2>  (32) 
7445.961486

>  <PMI3>  (32) 
9822.64609

>  <NPR1>  (32) 
0.35394

>  <NPR2>  (32) 
0.75804

>  <Sum_NPR>  (32) 
1.11198

>  <Sum_NPR_1.07>  (32) 
True

>  <Sum_NPR_1.2>  (32) 
False

>  <MaxAbsEStateIndex>  (32) 
6.089866

>  <MaxEStateIndex>  (32) 
6.089866

>  <MinAbsEStateIndex>  (32) 
0.230165

>  <MinEStateIndex>  (32) 
-0.230165

>  <qed>  (32) 
0.357724

>  <MolWt>  (32) 
480.532

>  <HeavyAtomMolWt>  (32) 
456.34

>  <ExactMolWt>  (32) 
480.202222

>  <NumValenceElectrons>  (32) 
180

>  <NumRadicalElectrons>  (32) 
0

>  <MaxPartialCharge>  (32) 
0.289433

>  <MinPartialCharge>  (32) 
-0.462483

>  <MaxAbsPartialCharge>  (32) 
0.462483

>  <MinAbsPartialCharge>  (32) 
0.289433

>  <FpDensityMorgan1>  (32) 
0.944444

>  <FpDensityMorgan2>  (32) 
1.805556

>  <FpDensityMorgan3>  (32) 
2.638889

>  <BCUT2D_MWHI>  (32) 
16.508079

>  <BCUT2D_MWLOW>  (32) 
10.115675

>  <BCUT2D_CHGHI>  (32) 
2.259726

>  <BCUT2D_CHGLO>  (32) 
-2.130449

>  <BCUT2D_LOGPHI>  (32) 
2.307629

>  <BCUT2D_LOGPLOW>  (32) 
-2.167525

>  <BCUT2D_MRHI>  (32) 
5.96776

>  <BCUT2D_MRLOW>  (32) 
0.278086

>  <AvgIpc>  (32) 
3.460429

>  <BalabanJ>  (32) 
1.233881

>  <BertzCT>  (32) 
1625.474613

>  <Chi0>  (32) 
24.700095

>  <Chi0n>  (32) 
20.057738

>  <Chi0v>  (32) 
20.057738

>  <Chi1>  (32) 
17.415749

>  <Chi1n>  (32) 
11.512663

>  <Chi1v>  (32) 
11.512663

>  <Chi2n>  (32) 
9.22986

>  <Chi2v>  (32) 
9.22986

>  <Chi3n>  (32) 
5.770538

>  <Chi3v>  (32) 
5.770538

>  <Chi4n>  (32) 
3.971358

>  <Chi4v>  (32) 
3.971358

>  <HallKierAlpha>  (32) 
-4.73

>  <Ipc>  (32) 
254232011.604645

>  <Kappa1>  (32) 
21.779987

>  <Kappa2>  (32) 
8.489438

>  <Kappa3>  (32) 
4.357345

>  <LabuteASA>  (32) 
206.598421

>  <PEOE_VSA1>  (32) 
20.107303

>  <PEOE_VSA10>  (32) 
36.578409

>  <PEOE_VSA11>  (32) 
5.647177

>  <PEOE_VSA12>  (32) 
0.0

>  <PEOE_VSA13>  (32) 
6.02168

>  <PEOE_VSA14>  (32) 
0.0

>  <PEOE_VSA2>  (32) 
0.0

>  <PEOE_VSA3>  (32) 
24.459738

>  <PEOE_VSA4>  (32) 
5.098682

>  <PEOE_VSA5>  (32) 
0.0

>  <PEOE_VSA6>  (32) 
0.0

>  <PEOE_VSA7>  (32) 
68.799233

>  <PEOE_VSA8>  (32) 
29.024207

>  <PEOE_VSA9>  (32) 
11.055626

>  <SMR_VSA1>  (32) 
9.473726

>  <SMR_VSA10>  (32) 
39.764418

>  <SMR_VSA2>  (32) 
0.0

>  <SMR_VSA3>  (32) 
24.566015

>  <SMR_VSA4>  (32) 
4.992405

>  <SMR_VSA5>  (32) 
26.310137

>  <SMR_VSA6>  (32) 
17.240459

>  <SMR_VSA7>  (32) 
72.945872

>  <SMR_VSA8>  (32) 
0.0

>  <SMR_VSA9>  (32) 
11.499024

>  <SlogP_VSA1>  (32) 
15.37044

>  <SlogP_VSA10>  (32) 
17.192635

>  <SlogP_VSA11>  (32) 
11.499024

>  <SlogP_VSA12>  (32) 
0.0

>  <SlogP_VSA2>  (32) 
42.733503

>  <SlogP_VSA3>  (32) 
4.736863

>  <SlogP_VSA4>  (32) 
6.923737

>  <SlogP_VSA5>  (32) 
19.410926

>  <SlogP_VSA6>  (32) 
72.374825

>  <SlogP_VSA7>  (32) 
0.0

>  <SlogP_VSA8>  (32) 
16.550102

>  <SlogP_VSA9>  (32) 
0.0

>  <EState_VSA1>  (32) 
0.0

>  <EState_VSA10>  (32) 
0.0

>  <EState_VSA11>  (32) 
0.0

>  <EState_VSA2>  (32) 
5.538925

>  <EState_VSA3>  (32) 
24.195937

>  <EState_VSA4>  (32) 
39.237838

>  <EState_VSA5>  (32) 
6.32732

>  <EState_VSA6>  (32) 
10.842718

>  <EState_VSA7>  (32) 
75.498992

>  <EState_VSA8>  (32) 
35.676599

>  <EState_VSA9>  (32) 
9.473726

>  <VSA_EState1>  (32) 
13.445488

>  <VSA_EState10>  (32) 
0.0

>  <VSA_EState2>  (32) 
17.6528

>  <VSA_EState3>  (32) 
11.647065

>  <VSA_EState4>  (32) 
4.029312

>  <VSA_EState5>  (32) 
2.145984

>  <VSA_EState6>  (32) 
15.999188

>  <VSA_EState7>  (32) 
4.881007

>  <VSA_EState8>  (32) 
6.615823

>  <VSA_EState9>  (32) 
0.0

>  <FractionCSP3>  (32) 
0.192308

>  <HeavyAtomCount>  (32) 
36

>  <NHOHCount>  (32) 
2

>  <NOCount>  (32) 
10

>  <NumAliphaticCarbocycles>  (32) 
0

>  <NumAliphaticHeterocycles>  (32) 
1

>  <NumAliphaticRings>  (32) 
1

>  <NumAromaticCarbocycles>  (32) 
2

>  <NumAromaticHeterocycles>  (32) 
3

>  <NumAromaticRings>  (32) 
5

>  <NumHAcceptors>  (32) 
10

>  <NumHDonors>  (32) 
2

>  <NumHeteroatoms>  (32) 
10

>  <NumRotatableBonds>  (32) 
5

>  <NumSaturatedCarbocycles>  (32) 
0

>  <NumSaturatedHeterocycles>  (32) 
0

>  <NumSaturatedRings>  (32) 
0

>  <RingCount>  (32) 
6

>  <MolLogP>  (32) 
5.09352

>  <MolMR>  (32) 
138.1494

>  <fr_Al_COO>  (32) 
0

>  <fr_Al_OH>  (32) 
0

>  <fr_Al_OH_noTert>  (32) 
0

>  <fr_ArN>  (32) 
0

>  <fr_Ar_COO>  (32) 
0

>  <fr_Ar_N>  (32) 
5

>  <fr_Ar_NH>  (32) 
0

>  <fr_Ar_OH>  (32) 
0

>  <fr_COO>  (32) 
0

>  <fr_COO2>  (32) 
0

>  <fr_C_O>  (32) 
0

>  <fr_C_O_noCOO>  (32) 
0

>  <fr_C_S>  (32) 
0

>  <fr_HOCCN>  (32) 
0

>  <fr_Imine>  (32) 
1

>  <fr_NH0>  (32) 
6

>  <fr_NH1>  (32) 
2

>  <fr_NH2>  (32) 
0

>  <fr_N_O>  (32) 
0

>  <fr_Ndealkylation1>  (32) 
0

>  <fr_Ndealkylation2>  (32) 
0

>  <fr_Nhpyrrole>  (32) 
0

>  <fr_SH>  (32) 
0

>  <fr_aldehyde>  (32) 
0

>  <fr_alkyl_carbamate>  (32) 
0

>  <fr_alkyl_halide>  (32) 
0

>  <fr_allylic_oxid>  (32) 
0

>  <fr_amide>  (32) 
0

>  <fr_amidine>  (32) 
1

>  <fr_aniline>  (32) 
3

>  <fr_aryl_methyl>  (32) 
1

>  <fr_azide>  (32) 
0

>  <fr_azo>  (32) 
0

>  <fr_barbitur>  (32) 
0

>  <fr_benzene>  (32) 
2

>  <fr_benzodiazepine>  (32) 
0

>  <fr_bicyclic>  (32) 
2

>  <fr_diazo>  (32) 
0

>  <fr_dihydropyridine>  (32) 
0

>  <fr_epoxide>  (32) 
0

>  <fr_ester>  (32) 
0

>  <fr_ether>  (32) 
2

>  <fr_furan>  (32) 
0

>  <fr_guanido>  (32) 
0

>  <fr_halogen>  (32) 
0

>  <fr_hdrzine>  (32) 
0

>  <fr_hdrzone>  (32) 
0

>  <fr_imidazole>  (32) 
0

>  <fr_imide>  (32) 
0

>  <fr_isocyan>  (32) 
0

>  <fr_isothiocyan>  (32) 
0

>  <fr_ketone>  (32) 
0

>  <fr_ketone_Topliss>  (32) 
0

>  <fr_lactam>  (32) 
0

>  <fr_lactone>  (32) 
0

>  <fr_methoxy>  (32) 
0

>  <fr_morpholine>  (32) 
0

>  <fr_nitrile>  (32) 
0

>  <fr_nitro>  (32) 
0

>  <fr_nitro_arom>  (32) 
0

>  <fr_nitro_arom_nonortho>  (32) 
0

>  <fr_nitroso>  (32) 
0

>  <fr_oxazole>  (32) 
0

>  <fr_oxime>  (32) 
0

>  <fr_para_hydroxylation>  (32) 
0

>  <fr_phenol>  (32) 
0

>  <fr_phenol_noOrthoHbond>  (32) 
0

>  <fr_phos_acid>  (32) 
0

>  <fr_phos_ester>  (32) 
0

>  <fr_piperdine>  (32) 
0

>  <fr_piperzine>  (32) 
0

>  <fr_priamide>  (32) 
0

>  <fr_prisulfonamd>  (32) 
0

>  <fr_pyridine>  (32) 
1

>  <fr_quatN>  (32) 
0

>  <fr_sulfide>  (32) 
0

>  <fr_sulfonamd>  (32) 
0

>  <fr_sulfone>  (32) 
0

>  <fr_term_acetylene>  (32) 
0

>  <fr_tetrazole>  (32) 
0

>  <fr_thiazole>  (32) 
0

>  <fr_thiocyan>  (32) 
0

>  <fr_thiophene>  (32) 
0

>  <fr_unbrch_alkane>  (32) 
0

>  <fr_urea>  (32) 
0

>  <NP_Likeness>  (32) 
-1.025431

$$$$
nan
     RDKit          3D

  0  0  0  0  0  0  0  0  0  0999 V3000
M  V30 BEGIN CTAB
M  V30 COUNTS 73 77 0 0 0
M  V30 BEGIN ATOM
M  V30 1 C 1.380015 0.580674 6.613181 0
M  V30 2 C 1.778133 -0.499467 5.619146 0
M  V30 3 O 1.273364 -0.242658 4.339288 0
M  V30 4 C 1.511711 -1.089648 3.266399 0
M  V30 5 C 2.222934 -2.264259 3.204786 0
M  V30 6 C 2.314959 -2.932186 1.997228 0
M  V30 7 N 3.032780 -4.089695 1.988476 0
M  V30 8 C 3.150449 -4.782868 0.819209 0
M  V30 9 C 2.557252 -4.335591 -0.351540 0
M  V30 10 C 2.667037 -5.059326 -1.580593 0
M  V30 11 N 2.739276 -5.663509 -2.588245 0
M  V30 12 C 1.842896 -3.146966 -0.259504 0
M  V30 13 N 1.234455 -2.717693 -1.497134 0
M  V30 14 C -0.028211 -3.274871 -1.760193 0
M  V30 15 C -0.796349 -2.936653 -2.851644 0
M  V30 16 C -2.026977 -3.437264 -3.183710 0
M  V30 17 C -2.563080 -4.393412 -2.324445 0
M  V30 18 O -3.811330 -5.025245 -2.494285 0
M  V30 19 C -4.514521 -4.589853 -3.663881 0
M  V30 20 C -5.825396 -5.272674 -3.809197 0
M  V30 21 C -6.297524 -6.053528 -2.740476 0
M  V30 22 C -7.513067 -6.667748 -2.891062 0
M  V30 23 C -8.251277 -6.517061 -4.068327 0
M  V30 24 C -7.695401 -5.725258 -5.059474 0
M  V30 25 N -6.487345 -5.077954 -4.992577 0
M  V30 26 C -1.875555 -4.808795 -1.192596 0
M  V30 27 Cl -2.531025 -6.014866 -0.090052 0
M  V30 28 C -0.643026 -4.224210 -0.973813 0
M  V30 29 C 1.690569 -2.404842 0.891132 0
M  V30 30 C 0.966657 -1.233208 0.900755 0
M  V30 31 C 0.899590 -0.586083 2.144160 0
M  V30 32 N 0.137288 0.642918 2.059103 0
M  V30 33 C 1.060429 1.695327 1.845733 0
M  V30 34 O 2.283786 1.447826 1.767650 0
M  V30 35 C 0.527460 3.071908 1.720503 0
M  V30 36 C 1.446200 4.019690 1.539770 0
M  V30 37 C 1.398191 5.472134 1.371567 0 CFG=1
M  V30 38 C 2.489759 6.224709 2.073428 0
M  V30 39 C 3.727348 5.937988 1.247819 0
M  V30 40 C 3.181685 5.556464 -0.106560 0
M  V30 41 N 1.746085 5.722372 -0.040188 0
M  V30 42 C 1.309932 7.003297 -0.499839 0
M  V30 43 H 1.873376 1.532543 6.339603 0
M  V30 44 H 1.720895 0.338802 7.623864 0
M  V30 45 H 0.289809 0.764461 6.613150 0
M  V30 46 H 1.460435 -1.475481 6.043990 0
M  V30 47 H 2.884550 -0.530905 5.602919 0
M  V30 48 H 2.649490 -2.554559 4.133980 0
M  V30 49 H 3.707821 -5.705087 0.750042 0
M  V30 50 H 1.618140 -2.047674 -2.217997 0
M  V30 51 H -0.432655 -2.189864 -3.574305 0
M  V30 52 H -2.613204 -3.166389 -4.042938 0
M  V30 53 H -3.888561 -4.683917 -4.562826 0
M  V30 54 H -4.726712 -3.491327 -3.511908 0
M  V30 55 H -5.659451 -6.112165 -1.860555 0
M  V30 56 H -7.881312 -7.269913 -2.075148 0
M  V30 57 H -9.215880 -6.995517 -4.202542 0
M  V30 58 H -8.266248 -5.615515 -5.960128 0
M  V30 59 H -0.134655 -4.573931 -0.073177 0
M  V30 60 H 0.493111 -0.870599 -0.004424 0
M  V30 61 H -0.892458 0.836365 2.129297 0
M  V30 62 H -0.421369 3.528493 1.695620 0
M  V30 63 H 2.516106 3.745833 1.485911 0
M  V30 64 H 0.389183 5.924977 1.533353 0
M  V30 65 H 2.229094 7.303933 2.040303 0
M  V30 66 H 2.613469 5.958143 3.135823 0
M  V30 67 H 4.378726 6.819069 1.127601 0
M  V30 68 H 4.341798 5.127296 1.685114 0
M  V30 69 H 3.352566 4.461056 -0.252728 0
M  V30 70 H 3.625673 6.104895 -0.947777 0
M  V30 71 H 0.861692 6.852418 -1.524872 0
M  V30 72 H 0.497574 7.462679 0.106553 0
M  V30 73 H 2.159575 7.708336 -0.662675 0
M  V30 END ATOM
M  V30 BEGIN BOND
M  V30 1 1 1 2
M  V30 2 1 2 3
M  V30 3 1 3 4
M  V30 4 2 4 5
M  V30 5 1 5 6
M  V30 6 2 6 7
M  V30 7 1 7 8
M  V30 8 2 8 9
M  V30 9 1 9 10
M  V30 10 3 10 11
M  V30 11 1 9 12
M  V30 12 1 12 13
M  V30 13 1 13 14
M  V30 14 2 14 15
M  V30 15 1 15 16
M  V30 16 2 16 17
M  V30 17 1 17 18
M  V30 18 1 18 19
M  V30 19 1 19 20
M  V30 20 2 20 21
M  V30 21 1 21 22
M  V30 22 2 22 23
M  V30 23 1 23 24
M  V30 24 2 24 25
M  V30 25 1 17 26
M  V30 26 1 26 27
M  V30 27 2 26 28
M  V30 28 2 12 29
M  V30 29 1 29 30
M  V30 30 2 30 31
M  V30 31 1 31 32
M  V30 32 1 32 33
M  V30 33 2 33 34
M  V30 34 1 33 35
M  V30 35 2 35 36
M  V30 36 1 36 37
M  V30 37 1 37 38
M  V30 38 1 38 39
M  V30 39 1 39 40
M  V30 40 1 40 41
M  V30 41 1 41 42
M  V30 42 1 31 4
M  V30 43 1 41 37
M  V30 44 1 29 6
M  V30 45 1 28 14
M  V30 46 1 25 20
M  V30 47 1 1 43
M  V30 48 1 1 44
M  V30 49 1 1 45
M  V30 50 1 2 46
M  V30 51 1 2 47
M  V30 52 1 5 48
M  V30 53 1 8 49
M  V30 54 1 13 50
M  V30 55 1 15 51
M  V30 56 1 16 52
M  V30 57 1 19 53
M  V30 58 1 19 54
M  V30 59 1 21 55
M  V30 60 1 22 56
M  V30 61 1 23 57
M  V30 62 1 24 58
M  V30 63 1 28 59
M  V30 64 1 30 60
M  V30 65 1 32 61
M  V30 66 1 35 62
M  V30 67 1 36 63
M  V30 68 1 37 64 CFG=1
M  V30 69 1 38 65
M  V30 70 1 38 66
M  V30 71 1 39 67
M  V30 72 1 39 68
M  V30 73 1 40 69
M  V30 74 1 40 70
M  V30 75 1 42 71
M  V30 76 1 42 72
M  V30 77 1 42 73
M  V30 END BOND
M  V30 END CTAB
M  END
>  <Dataset>  (33) 
PKIs

>  <Ligand_Instance>  (33) 
nan

>  <PDB_ID>  (33) 
nan

>  <Standardized_SMILES>  (33) 
CCOc1cc2ncc(C#N)c(Nc3ccc(OCc4ccccn4)c(Cl)c3)c2cc1NC(=O)/C=C/[C@H]1CCCN1C

>  <Name>  (33) 
Pyrotinib

>  <Pocket>  (33) 
nan

>  <ATP_Site>  (33) 
nan

>  <Peripheral>  (33) 
nan

>  <Num_H_Atoms_ProtBoundConf>  (33) 
nan

>  <Num_Resolved_Atoms>  (33) 
nan

>  <Num_Not_Resolved_Atoms>  (33) 
nan

>  <2D_Mol_H>  (33) 
<rdkit.Chem.rdchem.Mol object at 0x72a239113060>

>  <MW>  (33) 
583.092

>  <HBA>  (33) 
8

>  <HBD>  (33) 
2

>  <LogP>  (33) 
6.46508

>  <NRB>  (33) 
12

>  <TPSA>  (33) 
112.4

>  <Num_Heavy_Atoms>  (33) 
42

>  <Ro5>  (33) 
[False, True, True, False, False, True]

>  <Ro5_Fulfilled>  (33) 
False

>  <Ro3>  (33) 
[False, False, True, False]

>  <Ro3_Fulfilled>  (33) 
False

>  <Fsp3>  (33) 
0.25

>  <Fsp3_0.42>  (33) 
False

>  <Fsp3_0.45>  (33) 
False

>  <Stereogenic_Carbons>  (33) 
1

>  <C_Atoms>  (33) 
32

>  <FCStereo>  (33) 
0.03125

>  <SPS>  (33) 
632

>  <nSPS>  (33) 
15.047619

>  <PBF>  (33) 
1.514106

>  <PBF_0.6>  (33) 
True

>  <nPBF>  (33) 
0.03605

>  <nPBF_0.016>  (33) 
True

>  <PMI1>  (33) 
5396.076263

>  <PMI2>  (33) 
16679.285775

>  <PMI3>  (33) 
18887.067971

>  <NPR1>  (33) 
0.285702

>  <NPR2>  (33) 
0.883106

>  <Sum_NPR>  (33) 
1.168808

>  <Sum_NPR_1.07>  (33) 
True

>  <Sum_NPR_1.2>  (33) 
False

>  <MaxAbsEStateIndex>  (33) 
12.894673

>  <MaxEStateIndex>  (33) 
12.894673

>  <MinAbsEStateIndex>  (33) 
0.245854

>  <MinEStateIndex>  (33) 
-0.261498

>  <qed>  (33) 
0.204719

>  <MolWt>  (33) 
583.092

>  <HeavyAtomMolWt>  (33) 
551.844

>  <ExactMolWt>  (33) 
582.214617

>  <NumValenceElectrons>  (33) 
214

>  <NumRadicalElectrons>  (33) 
0

>  <MaxPartialCharge>  (33) 
0.2477

>  <MinPartialCharge>  (33) 
-0.491617

>  <MaxAbsPartialCharge>  (33) 
0.491617

>  <MinAbsPartialCharge>  (33) 
0.2477

>  <FpDensityMorgan1>  (33) 
1.190476

>  <FpDensityMorgan2>  (33) 
2.071429

>  <FpDensityMorgan3>  (33) 
2.785714

>  <BCUT2D_MWHI>  (33) 
35.495693

>  <BCUT2D_MWLOW>  (33) 
10.0758

>  <BCUT2D_CHGHI>  (33) 
2.189067

>  <BCUT2D_CHGLO>  (33) 
-2.16712

>  <BCUT2D_LOGPHI>  (33) 
2.371663

>  <BCUT2D_LOGPLOW>  (33) 
-2.227229

>  <BCUT2D_MRHI>  (33) 
6.3194

>  <BCUT2D_MRLOW>  (33) 
-0.111501

>  <AvgIpc>  (33) 
3.410392

>  <BalabanJ>  (33) 
1.42172

>  <BertzCT>  (33) 
1654.132934

>  <Chi0>  (33) 
29.476116

>  <Chi0n>  (33) 
23.432651

>  <Chi0v>  (33) 
24.18858

>  <Chi1>  (33) 
20.444223

>  <Chi1n>  (33) 
13.731898

>  <Chi1v>  (33) 
14.109863

>  <Chi2n>  (33) 
9.875709

>  <Chi2v>  (33) 
10.282909

>  <Chi3n>  (33) 
6.997003

>  <Chi3v>  (33) 
7.292372

>  <Chi4n>  (33) 
4.839142

>  <Chi4v>  (33) 
5.074239

>  <HallKierAlpha>  (33) 
-4.65

>  <Ipc>  (33) 
3603952837.56074

>  <Kappa1>  (33) 
28.863461

>  <Kappa2>  (33) 
13.341404

>  <Kappa3>  (33) 
6.794616

>  <LabuteASA>  (33) 
249.29444

>  <PEOE_VSA1>  (33) 
20.107303

>  <PEOE_VSA10>  (33) 
24.175127

>  <PEOE_VSA11>  (33) 
0.0

>  <PEOE_VSA12>  (33) 
5.90718

>  <PEOE_VSA13>  (33) 
0.0

>  <PEOE_VSA14>  (33) 
0.0

>  <PEOE_VSA2>  (33) 
19.662404

>  <PEOE_VSA3>  (33) 
0.0

>  <PEOE_VSA4>  (33) 
5.261892

>  <PEOE_VSA5>  (33) 
0.0

>  <PEOE_VSA6>  (33) 
23.743327

>  <PEOE_VSA7>  (33) 
69.756011

>  <PEOE_VSA8>  (33) 
41.651526

>  <PEOE_VSA9>  (33) 
39.778368

>  <SMR_VSA1>  (33) 
14.268263

>  <SMR_VSA10>  (33) 
45.473203

>  <SMR_VSA2>  (33) 
5.261892

>  <SMR_VSA3>  (33) 
14.867867

>  <SMR_VSA4>  (33) 
0.0

>  <SMR_VSA5>  (33) 
32.414103

>  <SMR_VSA6>  (33) 
30.832888

>  <SMR_VSA7>  (33) 
89.356677

>  <SMR_VSA8>  (33) 
0.0

>  <SMR_VSA9>  (33) 
17.568245

>  <SlogP_VSA1>  (33) 
20.107303

>  <SlogP_VSA10>  (33) 
17.062159

>  <SlogP_VSA11>  (33) 
11.499024

>  <SlogP_VSA12>  (33) 
11.60094

>  <SlogP_VSA2>  (33) 
47.016198

>  <SlogP_VSA3>  (33) 
11.401419

>  <SlogP_VSA4>  (33) 
11.331113

>  <SlogP_VSA5>  (33) 
31.02276

>  <SlogP_VSA6>  (33) 
73.076664

>  <SlogP_VSA7>  (33) 
5.022633

>  <SlogP_VSA8>  (33) 
10.902925

>  <SlogP_VSA9>  (33) 
0.0

>  <EState_VSA1>  (33) 
0.0

>  <EState_VSA10>  (33) 
10.056429

>  <EState_VSA11>  (33) 
0.0

>  <EState_VSA2>  (33) 
18.555903

>  <EState_VSA3>  (33) 
56.657074

>  <EState_VSA4>  (33) 
25.080328

>  <EState_VSA5>  (33) 
6.196844

>  <EState_VSA6>  (33) 
36.538332

>  <EState_VSA7>  (33) 
37.265226

>  <EState_VSA8>  (33) 
38.618337

>  <EState_VSA9>  (33) 
21.074666

>  <VSA_EState1>  (33) 
11.674604

>  <VSA_EState10>  (33) 
6.541324

>  <VSA_EState2>  (33) 
23.854262

>  <VSA_EState3>  (33) 
17.199854

>  <VSA_EState4>  (33) 
3.379847

>  <VSA_EState5>  (33) 
0.739904

>  <VSA_EState6>  (33) 
16.900045

>  <VSA_EState7>  (33) 
8.848277

>  <VSA_EState8>  (33) 
3.5834

>  <VSA_EState9>  (33) 
2.05626

>  <FractionCSP3>  (33) 
0.25

>  <HeavyAtomCount>  (33) 
42

>  <NHOHCount>  (33) 
2

>  <NOCount>  (33) 
9

>  <NumAliphaticCarbocycles>  (33) 
0

>  <NumAliphaticHeterocycles>  (33) 
1

>  <NumAliphaticRings>  (33) 
1

>  <NumAromaticCarbocycles>  (33) 
2

>  <NumAromaticHeterocycles>  (33) 
2

>  <NumAromaticRings>  (33) 
4

>  <NumHAcceptors>  (33) 
8

>  <NumHDonors>  (33) 
2

>  <NumHeteroatoms>  (33) 
10

>  <NumRotatableBonds>  (33) 
10

>  <NumSaturatedCarbocycles>  (33) 
0

>  <NumSaturatedHeterocycles>  (33) 
1

>  <NumSaturatedRings>  (33) 
1

>  <RingCount>  (33) 
5

>  <MolLogP>  (33) 
6.46508

>  <MolMR>  (33) 
164.3524

>  <fr_Al_COO>  (33) 
0

>  <fr_Al_OH>  (33) 
0

>  <fr_Al_OH_noTert>  (33) 
0

>  <fr_ArN>  (33) 
0

>  <fr_Ar_COO>  (33) 
0

>  <fr_Ar_N>  (33) 
2

>  <fr_Ar_NH>  (33) 
0

>  <fr_Ar_OH>  (33) 
0

>  <fr_COO>  (33) 
0

>  <fr_COO2>  (33) 
0

>  <fr_C_O>  (33) 
1

>  <fr_C_O_noCOO>  (33) 
1

>  <fr_C_S>  (33) 
0

>  <fr_HOCCN>  (33) 
0

>  <fr_Imine>  (33) 
0

>  <fr_NH0>  (33) 
4

>  <fr_NH1>  (33) 
2

>  <fr_NH2>  (33) 
0

>  <fr_N_O>  (33) 
0

>  <fr_Ndealkylation1>  (33) 
1

>  <fr_Ndealkylation2>  (33) 
1

>  <fr_Nhpyrrole>  (33) 
0

>  <fr_SH>  (33) 
0

>  <fr_aldehyde>  (33) 
0

>  <fr_alkyl_carbamate>  (33) 
0

>  <fr_alkyl_halide>  (33) 
0

>  <fr_allylic_oxid>  (33) 
0

>  <fr_amide>  (33) 
1

>  <fr_amidine>  (33) 
0

>  <fr_aniline>  (33) 
3

>  <fr_aryl_methyl>  (33) 
0

>  <fr_azide>  (33) 
0

>  <fr_azo>  (33) 
0

>  <fr_barbitur>  (33) 
0

>  <fr_benzene>  (33) 
2

>  <fr_benzodiazepine>  (33) 
0

>  <fr_bicyclic>  (33) 
1

>  <fr_diazo>  (33) 
0

>  <fr_dihydropyridine>  (33) 
0

>  <fr_epoxide>  (33) 
0

>  <fr_ester>  (33) 
0

>  <fr_ether>  (33) 
2

>  <fr_furan>  (33) 
0

>  <fr_guanido>  (33) 
0

>  <fr_halogen>  (33) 
1

>  <fr_hdrzine>  (33) 
0

>  <fr_hdrzone>  (33) 
0

>  <fr_imidazole>  (33) 
0

>  <fr_imide>  (33) 
0

>  <fr_isocyan>  (33) 
0

>  <fr_isothiocyan>  (33) 
0

>  <fr_ketone>  (33) 
0

>  <fr_ketone_Topliss>  (33) 
0

>  <fr_lactam>  (33) 
0

>  <fr_lactone>  (33) 
0

>  <fr_methoxy>  (33) 
0

>  <fr_morpholine>  (33) 
0

>  <fr_nitrile>  (33) 
1

>  <fr_nitro>  (33) 
0

>  <fr_nitro_arom>  (33) 
0

>  <fr_nitro_arom_nonortho>  (33) 
0

>  <fr_nitroso>  (33) 
0

>  <fr_oxazole>  (33) 
0

>  <fr_oxime>  (33) 
0

>  <fr_para_hydroxylation>  (33) 
0

>  <fr_phenol>  (33) 
0

>  <fr_phenol_noOrthoHbond>  (33) 
0

>  <fr_phos_acid>  (33) 
0

>  <fr_phos_ester>  (33) 
0

>  <fr_piperdine>  (33) 
0

>  <fr_piperzine>  (33) 
0

>  <fr_priamide>  (33) 
0

>  <fr_prisulfonamd>  (33) 
0

>  <fr_pyridine>  (33) 
2

>  <fr_quatN>  (33) 
0

>  <fr_sulfide>  (33) 
0

>  <fr_sulfonamd>  (33) 
0

>  <fr_sulfone>  (33) 
0

>  <fr_term_acetylene>  (33) 
0

>  <fr_tetrazole>  (33) 
0

>  <fr_thiazole>  (33) 
0

>  <fr_thiocyan>  (33) 
0

>  <fr_thiophene>  (33) 
0

>  <fr_unbrch_alkane>  (33) 
0

>  <fr_urea>  (33) 
0

>  <NP_Likeness>  (33) 
-1.390133

$$$$
nan
     RDKit          3D

  0  0  0  0  0  0  0  0  0  0999 V3000
M  V30 BEGIN CTAB
M  V30 COUNTS 71 75 0 0 0
M  V30 BEGIN ATOM
M  V30 1 C -2.909543 -1.653408 0.331013 0
M  V30 2 O -2.038056 -0.641639 0.561963 0
M  V30 3 C -1.260857 -0.174012 -0.452306 0 CFG=2
M  V30 4 C -2.111453 0.373131 -1.532273 0
M  V30 5 O -3.385514 0.481473 -1.556714 0
M  V30 6 N -1.617312 0.891621 -2.785180 0
M  V30 7 C -2.398072 1.429354 -3.862985 0 CFG=1
M  V30 8 C -2.025453 2.807636 -4.298506 0
M  V30 9 C -2.389509 0.489174 -5.049476 0
M  V30 10 C -1.239296 -0.145815 -5.517186 0
M  V30 11 C -1.453200 -0.959753 -6.630715 0
M  V30 12 C -2.643912 -1.181448 -7.280054 0
M  V30 13 N -2.718216 -2.037218 -8.404631 0
M  V30 14 C -2.535777 -1.822108 -9.742969 0
M  V30 15 C -2.753273 -3.065388 -10.358522 0
M  V30 16 F -2.627853 -3.108154 -11.710114 0
M  V30 17 C -3.051918 -3.946765 -9.364763 0
M  V30 18 N -3.026412 -3.309512 -8.185119 0
M  V30 19 N -3.710870 -0.542589 -6.782374 0
M  V30 20 C -3.616199 0.278925 -5.694390 0
M  V30 21 C -0.242193 -1.139126 -0.984840 0
M  V30 22 C 0.983704 -1.209304 -0.089311 0
M  V30 23 C 0.565401 -0.948634 1.347352 0 CFG=1
M  V30 24 C 1.639161 -1.212408 2.334105 0
M  V30 25 N 1.718958 -2.438259 2.878027 0
M  V30 26 C 2.637938 -2.785541 3.788144 0
M  V30 27 C 2.590305 -4.167457 4.281760 0
M  V30 28 C 3.571437 -1.873643 4.223112 0
M  V30 29 C 3.510687 -0.592881 3.673198 0
M  V30 30 N 4.449485 0.428420 4.077103 0
M  V30 31 C 3.767527 0.993228 5.215264 0
M  V30 32 C 3.879676 0.633836 6.558071 0
M  V30 33 C 3.059644 1.411661 7.346347 0
M  V30 34 C 2.884327 1.354135 8.812389 0
M  V30 35 N 2.449514 2.245826 6.473880 0
M  V30 36 N 2.856256 2.005768 5.242069 0
M  V30 37 N 2.552467 -0.312661 2.755864 0
M  V30 38 C 0.176963 0.499903 1.449740 0
M  V30 39 C -0.450198 0.991246 0.148637 0
M  V30 40 H -3.691810 -1.480129 -0.430760 0
M  V30 41 H -2.443907 -2.648137 0.193072 0
M  V30 42 H -3.504330 -1.778134 1.291462 0
M  V30 43 H -0.564243 0.882913 -2.942152 0
M  V30 44 H -3.452905 1.450237 -3.504005 0
M  V30 45 H -2.926574 3.454773 -4.254898 0
M  V30 46 H -1.725655 2.850454 -5.377992 0
M  V30 47 H -1.181879 3.195084 -3.711892 0
M  V30 48 H -0.312422 0.030468 -5.015093 0
M  V30 49 H -0.523042 -1.443863 -6.973245 0
M  V30 50 H -2.274405 -0.816959 -10.106305 0
M  V30 51 H -3.263023 -4.980079 -9.627331 0
M  V30 52 H -4.550102 0.736531 -5.383296 0
M  V30 53 H 0.096121 -0.768198 -1.972798 0
M  V30 54 H -0.651833 -2.157629 -1.179545 0
M  V30 55 H 1.705153 -0.430646 -0.376775 0
M  V30 56 H 1.451667 -2.193680 -0.235951 0
M  V30 57 H -0.246172 -1.668307 1.600714 0
M  V30 58 H 2.274834 -4.897259 3.505667 0
M  V30 59 H 1.891023 -4.287206 5.143704 0
M  V30 60 H 3.592943 -4.511426 4.656575 0
M  V30 61 H 4.304136 -2.133153 4.946735 0
M  V30 62 H 5.390387 0.755105 3.722547 0
M  V30 63 H 4.532681 -0.154210 6.893363 0
M  V30 64 H 2.235243 0.473042 9.054601 0
M  V30 65 H 3.863181 1.196085 9.342581 0
M  V30 66 H 2.423393 2.245276 9.235176 0
M  V30 67 H 1.738957 2.989383 6.757258 0
M  V30 68 H -0.498233 0.665839 2.308820 0
M  V30 69 H 1.120651 1.053124 1.659993 0
M  V30 70 H -1.092989 1.845215 0.382029 0
M  V30 71 H 0.379361 1.188325 -0.551818 0
M  V30 END ATOM
M  V30 BEGIN BOND
M  V30 1 1 1 2
M  V30 2 1 3 2 CFG=1
M  V30 3 1 3 4
M  V30 4 2 4 5
M  V30 5 1 4 6
M  V30 6 1 6 7
M  V30 7 1 7 8
M  V30 8 1 7 9
M  V30 9 2 9 10
M  V30 10 1 10 11
M  V30 11 2 11 12
M  V30 12 1 12 13
M  V30 13 1 13 14
M  V30 14 2 14 15
M  V30 15 1 15 16
M  V30 16 1 15 17
M  V30 17 2 17 18
M  V30 18 1 12 19
M  V30 19 2 19 20
M  V30 20 1 3 21
M  V30 21 1 21 22
M  V30 22 1 22 23
M  V30 23 1 23 24
M  V30 24 2 24 25
M  V30 25 1 25 26
M  V30 26 1 26 27
M  V30 27 2 26 28
M  V30 28 1 28 29
M  V30 29 1 29 30
M  V30 30 1 30 31
M  V30 31 1 31 32
M  V30 32 2 32 33
M  V30 33 1 33 34
M  V30 34 1 33 35
M  V30 35 1 35 36
M  V30 36 2 29 37
M  V30 37 1 23 38
M  V30 38 1 38 39
M  V30 39 1 39 3
M  V30 40 1 20 9
M  V30 41 1 37 24
M  V30 42 1 18 13
M  V30 43 2 36 31
M  V30 44 1 1 40
M  V30 45 1 1 41
M  V30 46 1 1 42
M  V30 47 1 6 43
M  V30 48 1 7 44 CFG=1
M  V30 49 1 8 45
M  V30 50 1 8 46
M  V30 51 1 8 47
M  V30 52 1 10 48
M  V30 53 1 11 49
M  V30 54 1 14 50
M  V30 55 1 17 51
M  V30 56 1 20 52
M  V30 57 1 21 53
M  V30 58 1 21 54
M  V30 59 1 22 55
M  V30 60 1 22 56
M  V30 61 1 23 57 CFG=1
M  V30 62 1 27 58
M  V30 63 1 27 59
M  V30 64 1 27 60
M  V30 65 1 28 61
M  V30 66 1 30 62
M  V30 67 1 32 63
M  V30 68 1 34 64
M  V30 69 1 34 65
M  V30 70 1 34 66
M  V30 71 1 35 67
M  V30 72 1 38 68
M  V30 73 1 38 69
M  V30 74 1 39 70
M  V30 75 1 39 71
M  V30 END BOND
M  V30 END CTAB
M  END
>  <Dataset>  (34) 
PKIs

>  <Ligand_Instance>  (34) 
nan

>  <PDB_ID>  (34) 
nan

>  <Standardized_SMILES>  (34) 
CO[C@]1(C(=O)N[C@@H](C)c2ccc(-n3cc(F)cn3)nc2)CC[C@@H](c2nc(C)cc(Nc3cc(C)[nH]n3)n2)CC1

>  <Name>  (34) 
Pralsetinib

>  <Pocket>  (34) 
nan

>  <ATP_Site>  (34) 
nan

>  <Peripheral>  (34) 
nan

>  <Num_H_Atoms_ProtBoundConf>  (34) 
nan

>  <Num_Resolved_Atoms>  (34) 
nan

>  <Num_Not_Resolved_Atoms>  (34) 
nan

>  <2D_Mol_H>  (34) 
<rdkit.Chem.rdchem.Mol object at 0x72a239113140>

>  <MW>  (34) 
533.612

>  <HBA>  (34) 
9

>  <HBD>  (34) 
3

>  <LogP>  (34) 
4.20014

>  <NRB>  (34) 
12

>  <TPSA>  (34) 
135.53

>  <Num_Heavy_Atoms>  (34) 
39

>  <Ro5>  (34) 
[False, True, True, True, False, True]

>  <Ro5_Fulfilled>  (34) 
False

>  <Ro3>  (34) 
[False, False, True, False]

>  <Ro3_Fulfilled>  (34) 
False

>  <Fsp3>  (34) 
0.407407

>  <Fsp3_0.42>  (34) 
False

>  <Fsp3_0.45>  (34) 
False

>  <Stereogenic_Carbons>  (34) 
3

>  <C_Atoms>  (34) 
27

>  <FCStereo>  (34) 
0.111111

>  <SPS>  (34) 
779

>  <nSPS>  (34) 
19.974359

>  <PBF>  (34) 
1.039154

>  <PBF_0.6>  (34) 
True

>  <nPBF>  (34) 
0.026645

>  <nPBF_0.016>  (34) 
True

>  <PMI1>  (34) 
2260.125455

>  <PMI2>  (34) 
20215.055621

>  <PMI3>  (34) 
21134.932922

>  <NPR1>  (34) 
0.106938

>  <NPR2>  (34) 
0.956476

>  <Sum_NPR>  (34) 
1.063414

>  <Sum_NPR_1.07>  (34) 
False

>  <Sum_NPR_1.2>  (34) 
False

>  <MaxAbsEStateIndex>  (34) 
13.419151

>  <MaxEStateIndex>  (34) 
13.419151

>  <MinAbsEStateIndex>  (34) 
0.114579

>  <MinEStateIndex>  (34) 
-0.928381

>  <qed>  (34) 
0.306678

>  <MolWt>  (34) 
533.612

>  <HeavyAtomMolWt>  (34) 
501.356

>  <ExactMolWt>  (34) 
533.266299

>  <NumValenceElectrons>  (34) 
204

>  <NumRadicalElectrons>  (34) 
0

>  <MaxPartialCharge>  (34) 
0.252208

>  <MinPartialCharge>  (34) 
-0.368394

>  <MaxAbsPartialCharge>  (34) 
0.368394

>  <MinAbsPartialCharge>  (34) 
0.252208

>  <FpDensityMorgan1>  (34) 
1.179487

>  <FpDensityMorgan2>  (34) 
1.974359

>  <FpDensityMorgan3>  (34) 
2.589744

>  <BCUT2D_MWHI>  (34) 
19.142189

>  <BCUT2D_MWLOW>  (34) 
9.771728

>  <BCUT2D_CHGHI>  (34) 
2.430714

>  <BCUT2D_CHGLO>  (34) 
-2.376907

>  <BCUT2D_LOGPHI>  (34) 
2.39347

>  <BCUT2D_LOGPLOW>  (34) 
-2.504885

>  <BCUT2D_MRHI>  (34) 
5.853455

>  <BCUT2D_MRLOW>  (34) 
-0.148336

>  <AvgIpc>  (34) 
3.554419

>  <BalabanJ>  (34) 
1.219674

>  <BertzCT>  (34) 
1441.726113

>  <Chi0>  (34) 
27.570339

>  <Chi0n>  (34) 
22.402322

>  <Chi0v>  (34) 
22.402322

>  <Chi1>  (34) 
18.741152

>  <Chi1n>  (34) 
12.917318

>  <Chi1v>  (34) 
12.917318

>  <Chi2n>  (34) 
10.034655

>  <Chi2v>  (34) 
10.034655

>  <Chi3n>  (34) 
7.200712

>  <Chi3v>  (34) 
7.200712

>  <Chi4n>  (34) 
4.944381

>  <Chi4v>  (34) 
4.944381

>  <HallKierAlpha>  (34) 
-4.19

>  <Ipc>  (34) 
757488154.999777

>  <Kappa1>  (34) 
26.418435

>  <Kappa2>  (34) 
10.890597

>  <Kappa3>  (34) 
5.798785

>  <LabuteASA>  (34) 
225.179926

>  <PEOE_VSA1>  (34) 
15.37044

>  <PEOE_VSA10>  (34) 
17.243318

>  <PEOE_VSA11>  (34) 
17.452946

>  <PEOE_VSA12>  (34) 
0.0

>  <PEOE_VSA13>  (34) 
5.90718

>  <PEOE_VSA14>  (34) 
0.0

>  <PEOE_VSA2>  (34) 
9.893219

>  <PEOE_VSA3>  (34) 
24.024154

>  <PEOE_VSA4>  (34) 
10.197364

>  <PEOE_VSA5>  (34) 
0.0

>  <PEOE_VSA6>  (34) 
6.066367

>  <PEOE_VSA7>  (34) 
58.084317

>  <PEOE_VSA8>  (34) 
42.745137

>  <PEOE_VSA9>  (34) 
18.435528

>  <SMR_VSA1>  (34) 
13.921815

>  <SMR_VSA10>  (34) 
17.542905

>  <SMR_VSA2>  (34) 
0.0

>  <SMR_VSA3>  (34) 
40.246573

>  <SMR_VSA4>  (34) 
0.0

>  <SMR_VSA5>  (34) 
64.015296

>  <SMR_VSA6>  (34) 
12.426586

>  <SMR_VSA7>  (34) 
71.448932

>  <SMR_VSA8>  (34) 
0.0

>  <SMR_VSA9>  (34) 
5.817863

>  <SlogP_VSA1>  (34) 
10.633577

>  <SlogP_VSA10>  (34) 
16.026141

>  <SlogP_VSA11>  (34) 
0.0

>  <SlogP_VSA12>  (34) 
0.0

>  <SlogP_VSA2>  (34) 
53.547812

>  <SlogP_VSA3>  (34) 
9.5314

>  <SlogP_VSA4>  (34) 
19.664695

>  <SlogP_VSA5>  (34) 
67.342483

>  <SlogP_VSA6>  (34) 
42.855999

>  <SlogP_VSA7>  (34) 
0.0

>  <SlogP_VSA8>  (34) 
5.817863

>  <SlogP_VSA9>  (34) 
0.0

>  <EState_VSA1>  (34) 
11.418272

>  <EState_VSA10>  (34) 
9.184952

>  <EState_VSA11>  (34) 
0.0

>  <EState_VSA2>  (34) 
17.866927

>  <EState_VSA3>  (34) 
30.295232

>  <EState_VSA4>  (34) 
41.814199

>  <EState_VSA5>  (34) 
10.878647

>  <EState_VSA6>  (34) 
19.373008

>  <EState_VSA7>  (34) 
38.970313

>  <EState_VSA8>  (34) 
35.89758

>  <EState_VSA9>  (34) 
9.720841

>  <VSA_EState1>  (34) 
20.450805

>  <VSA_EState10>  (34) 
0.0

>  <VSA_EState2>  (34) 
27.205251

>  <VSA_EState3>  (34) 
17.374285

>  <VSA_EState4>  (34) 
1.71112

>  <VSA_EState5>  (34) 
2.159329

>  <VSA_EState6>  (34) 
7.0839

>  <VSA_EState7>  (34) 
6.570102

>  <VSA_EState8>  (34) 
5.777358

>  <VSA_EState9>  (34) 
1.584517

>  <FractionCSP3>  (34) 
0.407407

>  <HeavyAtomCount>  (34) 
39

>  <NHOHCount>  (34) 
3

>  <NOCount>  (34) 
11

>  <NumAliphaticCarbocycles>  (34) 
1

>  <NumAliphaticHeterocycles>  (34) 
0

>  <NumAliphaticRings>  (34) 
1

>  <NumAromaticCarbocycles>  (34) 
0

>  <NumAromaticHeterocycles>  (34) 
4

>  <NumAromaticRings>  (34) 
4

>  <NumHAcceptors>  (34) 
9

>  <NumHDonors>  (34) 
3

>  <NumHeteroatoms>  (34) 
12

>  <NumRotatableBonds>  (34) 
8

>  <NumSaturatedCarbocycles>  (34) 
1

>  <NumSaturatedHeterocycles>  (34) 
0

>  <NumSaturatedRings>  (34) 
1

>  <RingCount>  (34) 
5

>  <MolLogP>  (34) 
4.20014

>  <MolMR>  (34) 
142.2001

>  <fr_Al_COO>  (34) 
0

>  <fr_Al_OH>  (34) 
0

>  <fr_Al_OH_noTert>  (34) 
0

>  <fr_ArN>  (34) 
0

>  <fr_Ar_COO>  (34) 
0

>  <fr_Ar_N>  (34) 
7

>  <fr_Ar_NH>  (34) 
1

>  <fr_Ar_OH>  (34) 
0

>  <fr_COO>  (34) 
0

>  <fr_COO2>  (34) 
0

>  <fr_C_O>  (34) 
1

>  <fr_C_O_noCOO>  (34) 
1

>  <fr_C_S>  (34) 
0

>  <fr_HOCCN>  (34) 
0

>  <fr_Imine>  (34) 
0

>  <fr_NH0>  (34) 
6

>  <fr_NH1>  (34) 
3

>  <fr_NH2>  (34) 
0

>  <fr_N_O>  (34) 
0

>  <fr_Ndealkylation1>  (34) 
0

>  <fr_Ndealkylation2>  (34) 
0

>  <fr_Nhpyrrole>  (34) 
1

>  <fr_SH>  (34) 
0

>  <fr_aldehyde>  (34) 
0

>  <fr_alkyl_carbamate>  (34) 
0

>  <fr_alkyl_halide>  (34) 
0

>  <fr_allylic_oxid>  (34) 
0

>  <fr_amide>  (34) 
1

>  <fr_amidine>  (34) 
0

>  <fr_aniline>  (34) 
2

>  <fr_aryl_methyl>  (34) 
2

>  <fr_azide>  (34) 
0

>  <fr_azo>  (34) 
0

>  <fr_barbitur>  (34) 
0

>  <fr_benzene>  (34) 
0

>  <fr_benzodiazepine>  (34) 
0

>  <fr_bicyclic>  (34) 
0

>  <fr_diazo>  (34) 
0

>  <fr_dihydropyridine>  (34) 
0

>  <fr_epoxide>  (34) 
0

>  <fr_ester>  (34) 
0

>  <fr_ether>  (34) 
1

>  <fr_furan>  (34) 
0

>  <fr_guanido>  (34) 
0

>  <fr_halogen>  (34) 
1

>  <fr_hdrzine>  (34) 
0

>  <fr_hdrzone>  (34) 
0

>  <fr_imidazole>  (34) 
0

>  <fr_imide>  (34) 
0

>  <fr_isocyan>  (34) 
0

>  <fr_isothiocyan>  (34) 
0

>  <fr_ketone>  (34) 
0

>  <fr_ketone_Topliss>  (34) 
0

>  <fr_lactam>  (34) 
0

>  <fr_lactone>  (34) 
0

>  <fr_methoxy>  (34) 
1

>  <fr_morpholine>  (34) 
0

>  <fr_nitrile>  (34) 
0

>  <fr_nitro>  (34) 
0

>  <fr_nitro_arom>  (34) 
0

>  <fr_nitro_arom_nonortho>  (34) 
0

>  <fr_nitroso>  (34) 
0

>  <fr_oxazole>  (34) 
0

>  <fr_oxime>  (34) 
0

>  <fr_para_hydroxylation>  (34) 
0

>  <fr_phenol>  (34) 
0

>  <fr_phenol_noOrthoHbond>  (34) 
0

>  <fr_phos_acid>  (34) 
0

>  <fr_phos_ester>  (34) 
0

>  <fr_piperdine>  (34) 
0

>  <fr_piperzine>  (34) 
0

>  <fr_priamide>  (34) 
0

>  <fr_prisulfonamd>  (34) 
0

>  <fr_pyridine>  (34) 
1

>  <fr_quatN>  (34) 
0

>  <fr_sulfide>  (34) 
0

>  <fr_sulfonamd>  (34) 
0

>  <fr_sulfone>  (34) 
0

>  <fr_term_acetylene>  (34) 
0

>  <fr_tetrazole>  (34) 
0

>  <fr_thiazole>  (34) 
0

>  <fr_thiocyan>  (34) 
0

>  <fr_thiophene>  (34) 
0

>  <fr_unbrch_alkane>  (34) 
0

>  <fr_urea>  (34) 
0

>  <NP_Likeness>  (34) 
-1.348521

$$$$
nan
     RDKit          3D

  0  0  0  0  0  0  0  0  0  0999 V3000
M  V30 BEGIN CTAB
M  V30 COUNTS 56 60 0 0 0
M  V30 BEGIN ATOM
M  V30 1 C 6.761762 -4.224372 0.973617 0
M  V30 2 C 6.268958 -2.883542 1.341057 0
M  V30 3 C 5.852596 -1.797199 1.629535 0
M  V30 4 C 5.341882 -0.509815 1.990161 0
M  V30 5 O 5.504350 0.020122 3.125312 0
M  V30 6 N 4.597067 0.287138 1.078498 0
M  V30 7 C 4.052738 1.596960 1.379466 0
M  V30 8 C 3.647109 2.112736 0.043085 0
M  V30 9 C 3.340311 0.949687 -0.813750 0 CFG=2
M  V30 10 N 1.968003 0.545259 -0.848597 0
M  V30 11 C 0.864556 0.898501 -0.171892 0
M  V30 12 O 0.889222 1.761034 0.717328 0
M  V30 13 N -0.221977 0.221870 -0.569921 0
M  V30 14 C -1.547307 0.362755 -0.051542 0
M  V30 15 C -1.573889 -0.001767 1.297772 0
M  V30 16 C -2.777559 0.061365 2.004836 0
M  V30 17 C -3.928773 0.484612 1.358457 0
M  V30 18 O -5.102378 0.536406 2.083405 0
M  V30 19 C -5.925250 -0.573483 2.129718 0
M  V30 20 C -7.114593 -0.550926 2.852389 0
M  V30 21 C -7.931687 -1.682698 2.886375 0
M  V30 22 C -7.605618 -2.837249 2.225342 0
M  V30 23 C -6.426817 -2.875448 1.502699 0
M  V30 24 C -5.633663 -1.748276 1.481200 0
M  V30 25 C -3.857286 0.834335 0.028083 0
M  V30 26 C -2.675495 0.778035 -0.686776 0
M  V30 27 C 0.226505 -0.596746 -1.546267 0
M  V30 28 C -0.509773 -1.503595 -2.281799 0
M  V30 29 N -1.905401 -1.736763 -2.132335 0
M  V30 30 N 0.161873 -2.229017 -3.224037 0
M  V30 31 C 1.491887 -2.047571 -3.408846 0
M  V30 32 N 2.175746 -1.157072 -2.675582 0
M  V30 33 C 1.581045 -0.412548 -1.735077 0
M  V30 34 C 4.283127 -0.106398 -0.274847 0
M  V30 35 H 7.881658 -4.197678 1.067845 0
M  V30 36 H 6.466474 -4.483853 -0.063249 0
M  V30 37 H 6.341292 -4.995825 1.667205 0
M  V30 38 H 3.240838 1.429970 2.102719 0
M  V30 39 H 4.805556 2.234201 1.887439 0
M  V30 40 H 4.561779 2.610454 -0.389089 0
M  V30 41 H 2.887170 2.915149 0.063858 0
M  V30 42 H 3.686613 1.146431 -1.868652 0
M  V30 43 H -0.739403 -0.345762 1.901982 0
M  V30 44 H -2.844572 -0.210953 3.049654 0
M  V30 45 H -7.390171 0.351858 3.381649 0
M  V30 46 H -8.843493 -1.609765 3.462885 0
M  V30 47 H -8.245778 -3.717646 2.254478 0
M  V30 48 H -6.169442 -3.787670 0.980650 0
M  V30 49 H -4.715158 -1.825995 0.898817 0
M  V30 50 H -4.732664 1.166270 -0.500530 0
M  V30 51 H -2.536574 1.030198 -1.713975 0
M  V30 52 H -1.868882 -2.252023 -1.223105 0
M  V30 53 H -2.237706 -2.263958 -1.270955 0
M  V30 54 H 1.967880 -2.652236 -4.170618 0
M  V30 55 H 3.665774 -1.049683 -0.205272 0
M  V30 56 H 5.171045 -0.273678 -0.897957 0
M  V30 END ATOM
M  V30 BEGIN BOND
M  V30 1 1 1 2
M  V30 2 3 2 3
M  V30 3 1 3 4
M  V30 4 2 4 5
M  V30 5 1 4 6
M  V30 6 1 6 7
M  V30 7 1 7 8
M  V30 8 1 8 9
M  V30 9 1 9 10
M  V30 10 1 10 11
M  V30 11 2 11 12
M  V30 12 1 11 13
M  V30 13 1 13 14
M  V30 14 2 14 15
M  V30 15 1 15 16
M  V30 16 2 16 17
M  V30 17 1 17 18
M  V30 18 1 18 19
M  V30 19 2 19 20
M  V30 20 1 20 21
M  V30 21 2 21 22
M  V30 22 1 22 23
M  V30 23 2 23 24
M  V30 24 1 17 25
M  V30 25 2 25 26
M  V30 26 1 13 27
M  V30 27 2 27 28
M  V30 28 1 28 29
M  V30 29 1 28 30
M  V30 30 2 30 31
M  V30 31 1 31 32
M  V30 32 2 32 33
M  V30 33 1 9 34
M  V30 34 1 34 6
M  V30 35 1 33 10
M  V30 36 1 26 14
M  V30 37 1 33 27
M  V30 38 1 24 19
M  V30 39 1 1 35
M  V30 40 1 1 36
M  V30 41 1 1 37
M  V30 42 1 7 38
M  V30 43 1 7 39
M  V30 44 1 8 40
M  V30 45 1 8 41
M  V30 46 1 9 42 CFG=3
M  V30 47 1 15 43
M  V30 48 1 16 44
M  V30 49 1 20 45
M  V30 50 1 21 46
M  V30 51 1 22 47
M  V30 52 1 23 48
M  V30 53 1 24 49
M  V30 54 1 25 50
M  V30 55 1 26 51
M  V30 56 1 29 52
M  V30 57 1 29 53
M  V30 58 1 31 54
M  V30 59 1 34 55
M  V30 60 1 34 56
M  V30 END BOND
M  V30 END CTAB
M  END
>  <Dataset>  (35) 
PKIs

>  <Ligand_Instance>  (35) 
nan

>  <PDB_ID>  (35) 
nan

>  <Standardized_SMILES>  (35) 
CC#CC(=O)N1CCC(n2c(=O)n(-c3ccc(Oc4ccccc4)cc3)c3c(N)ncnc32)C1

>  <Name>  (35) 
Tirabrutinib

>  <Pocket>  (35) 
nan

>  <ATP_Site>  (35) 
nan

>  <Peripheral>  (35) 
nan

>  <Num_H_Atoms_ProtBoundConf>  (35) 
nan

>  <Num_Resolved_Atoms>  (35) 
nan

>  <Num_Not_Resolved_Atoms>  (35) 
nan

>  <2D_Mol_H>  (35) 
<rdkit.Chem.rdchem.Mol object at 0x72a239113220>

>  <MW>  (35) 
454.49

>  <HBA>  (35) 
8

>  <HBD>  (35) 
1

>  <LogP>  (35) 
2.7534

>  <NRB>  (35) 
5

>  <TPSA>  (35) 
108.27

>  <Num_Heavy_Atoms>  (35) 
34

>  <Ro5>  (35) 
[True, True, True, True, True, True]

>  <Ro5_Fulfilled>  (35) 
True

>  <Ro3>  (35) 
[False, False, True, True]

>  <Ro3_Fulfilled>  (35) 
False

>  <Fsp3>  (35) 
0.2

>  <Fsp3_0.42>  (35) 
False

>  <Fsp3_0.45>  (35) 
False

>  <Stereogenic_Carbons>  (35) 
1

>  <C_Atoms>  (35) 
25

>  <FCStereo>  (35) 
0.04

>  <SPS>  (35) 
517

>  <nSPS>  (35) 
15.205882

>  <PBF>  (35) 
1.463281

>  <PBF_0.6>  (35) 
True

>  <nPBF>  (35) 
0.043038

>  <nPBF_0.016>  (35) 
True

>  <PMI1>  (35) 
2433.162989

>  <PMI2>  (35) 
9581.379817

>  <PMI3>  (35) 
9974.347641

>  <NPR1>  (35) 
0.243942

>  <NPR2>  (35) 
0.960602

>  <Sum_NPR>  (35) 
1.204544

>  <Sum_NPR_1.07>  (35) 
True

>  <Sum_NPR_1.2>  (35) 
True

>  <MaxAbsEStateIndex>  (35) 
13.646175

>  <MaxEStateIndex>  (35) 
13.646175

>  <MinAbsEStateIndex>  (35) 
0.202075

>  <MinEStateIndex>  (35) 
-0.29185

>  <qed>  (35) 
0.475243

>  <MolWt>  (35) 
454.49

>  <HeavyAtomMolWt>  (35) 
432.314

>  <ExactMolWt>  (35) 
454.175339

>  <NumValenceElectrons>  (35) 
170

>  <NumRadicalElectrons>  (35) 
0

>  <MaxPartialCharge>  (35) 
0.334901

>  <MinPartialCharge>  (35) 
-0.457382

>  <MaxAbsPartialCharge>  (35) 
0.457382

>  <MinAbsPartialCharge>  (35) 
0.334901

>  <FpDensityMorgan1>  (35) 
1.088235

>  <FpDensityMorgan2>  (35) 
1.823529

>  <FpDensityMorgan3>  (35) 
2.558824

>  <BCUT2D_MWHI>  (35) 
16.48058

>  <BCUT2D_MWLOW>  (35) 
10.242034

>  <BCUT2D_CHGHI>  (35) 
2.311028

>  <BCUT2D_CHGLO>  (35) 
-2.136148

>  <BCUT2D_LOGPHI>  (35) 
2.282756

>  <BCUT2D_LOGPLOW>  (35) 
-2.309425

>  <BCUT2D_MRHI>  (35) 
5.932885

>  <BCUT2D_MRLOW>  (35) 
-0.123724

>  <AvgIpc>  (35) 
3.434871

>  <BalabanJ>  (35) 
1.536755

>  <BertzCT>  (35) 
1478.852352

>  <Chi0>  (35) 
23.656125

>  <Chi0n>  (35) 
18.510336

>  <Chi0v>  (35) 
18.510336

>  <Chi1>  (35) 
16.562882

>  <Chi1n>  (35) 
10.849626

>  <Chi1v>  (35) 
10.849626

>  <Chi2n>  (35) 
7.896792

>  <Chi2v>  (35) 
7.896792

>  <Chi3n>  (35) 
5.801925

>  <Chi3v>  (35) 
5.801925

>  <Chi4n>  (35) 
4.246964

>  <Chi4v>  (35) 
4.246964

>  <HallKierAlpha>  (35) 
-4.58

>  <Ipc>  (35) 
91108169.274507

>  <Kappa1>  (35) 
21.275409

>  <Kappa2>  (35) 
8.748901

>  <Kappa3>  (35) 
3.752264

>  <LabuteASA>  (35) 
194.964548

>  <PEOE_VSA1>  (35) 
15.37044

>  <PEOE_VSA10>  (35) 
23.343044

>  <PEOE_VSA11>  (35) 
11.46504

>  <PEOE_VSA12>  (35) 
0.0

>  <PEOE_VSA13>  (35) 
5.90718

>  <PEOE_VSA14>  (35) 
5.689743

>  <PEOE_VSA2>  (35) 
13.928736

>  <PEOE_VSA3>  (35) 
14.762494

>  <PEOE_VSA4>  (35) 
0.0

>  <PEOE_VSA5>  (35) 
0.0

>  <PEOE_VSA6>  (35) 
24.119536

>  <PEOE_VSA7>  (35) 
55.663196

>  <PEOE_VSA8>  (35) 
13.089513

>  <PEOE_VSA9>  (35) 
11.729227

>  <SMR_VSA1>  (35) 
9.5314

>  <SMR_VSA10>  (35) 
22.88892

>  <SMR_VSA2>  (35) 
0.0

>  <SMR_VSA3>  (35) 
24.002066

>  <SMR_VSA4>  (35) 
0.0

>  <SMR_VSA5>  (35) 
19.3864

>  <SMR_VSA6>  (35) 
18.82318

>  <SMR_VSA7>  (35) 
71.408904

>  <SMR_VSA8>  (35) 
0.0

>  <SMR_VSA9>  (35) 
29.027279

>  <SlogP_VSA1>  (35) 
16.160274

>  <SlogP_VSA10>  (35) 
5.817863

>  <SlogP_VSA11>  (35) 
11.499024

>  <SlogP_VSA12>  (35) 
0.0

>  <SlogP_VSA2>  (35) 
42.998759

>  <SlogP_VSA3>  (35) 
4.794537

>  <SlogP_VSA4>  (35) 
11.840869

>  <SlogP_VSA5>  (35) 
19.3864

>  <SlogP_VSA6>  (35) 
65.719161

>  <SlogP_VSA7>  (35) 
0.0

>  <SlogP_VSA8>  (35) 
16.851264

>  <SlogP_VSA9>  (35) 
0.0

>  <EState_VSA1>  (35) 
0.0

>  <EState_VSA10>  (35) 
9.589074

>  <EState_VSA11>  (35) 
0.0

>  <EState_VSA2>  (35) 
23.456627

>  <EState_VSA3>  (35) 
42.11111

>  <EState_VSA4>  (35) 
5.749512

>  <EState_VSA5>  (35) 
10.89442

>  <EState_VSA6>  (35) 
40.656215

>  <EState_VSA7>  (35) 
30.331835

>  <EState_VSA8>  (35) 
21.808826

>  <EState_VSA9>  (35) 
10.47053

>  <VSA_EState1>  (35) 
8.973559

>  <VSA_EState10>  (35) 
0.0

>  <VSA_EState2>  (35) 
35.982366

>  <VSA_EState3>  (35) 
0.0

>  <VSA_EState4>  (35) 
7.374642

>  <VSA_EState5>  (35) 
6.503478

>  <VSA_EState6>  (35) 
16.358213

>  <VSA_EState7>  (35) 
1.957432

>  <VSA_EState8>  (35) 
2.516976

>  <VSA_EState9>  (35) 
0.0

>  <FractionCSP3>  (35) 
0.2

>  <HeavyAtomCount>  (35) 
34

>  <NHOHCount>  (35) 
2

>  <NOCount>  (35) 
9

>  <NumAliphaticCarbocycles>  (35) 
0

>  <NumAliphaticHeterocycles>  (35) 
1

>  <NumAliphaticRings>  (35) 
1

>  <NumAromaticCarbocycles>  (35) 
2

>  <NumAromaticHeterocycles>  (35) 
2

>  <NumAromaticRings>  (35) 
4

>  <NumHAcceptors>  (35) 
8

>  <NumHDonors>  (35) 
1

>  <NumHeteroatoms>  (35) 
9

>  <NumRotatableBonds>  (35) 
4

>  <NumSaturatedCarbocycles>  (35) 
0

>  <NumSaturatedHeterocycles>  (35) 
1

>  <NumSaturatedRings>  (35) 
1

>  <RingCount>  (35) 
5

>  <MolLogP>  (35) 
2.7534

>  <MolMR>  (35) 
127.7374

>  <fr_Al_COO>  (35) 
0

>  <fr_Al_OH>  (35) 
0

>  <fr_Al_OH_noTert>  (35) 
0

>  <fr_ArN>  (35) 
1

>  <fr_Ar_COO>  (35) 
0

>  <fr_Ar_N>  (35) 
4

>  <fr_Ar_NH>  (35) 
0

>  <fr_Ar_OH>  (35) 
0

>  <fr_COO>  (35) 
0

>  <fr_COO2>  (35) 
0

>  <fr_C_O>  (35) 
1

>  <fr_C_O_noCOO>  (35) 
1

>  <fr_C_S>  (35) 
0

>  <fr_HOCCN>  (35) 
0

>  <fr_Imine>  (35) 
0

>  <fr_NH0>  (35) 
5

>  <fr_NH1>  (35) 
0

>  <fr_NH2>  (35) 
1

>  <fr_N_O>  (35) 
0

>  <fr_Ndealkylation1>  (35) 
0

>  <fr_Ndealkylation2>  (35) 
1

>  <fr_Nhpyrrole>  (35) 
0

>  <fr_SH>  (35) 
0

>  <fr_aldehyde>  (35) 
0

>  <fr_alkyl_carbamate>  (35) 
0

>  <fr_alkyl_halide>  (35) 
0

>  <fr_allylic_oxid>  (35) 
0

>  <fr_amide>  (35) 
1

>  <fr_amidine>  (35) 
0

>  <fr_aniline>  (35) 
1

>  <fr_aryl_methyl>  (35) 
0

>  <fr_azide>  (35) 
0

>  <fr_azo>  (35) 
0

>  <fr_barbitur>  (35) 
0

>  <fr_benzene>  (35) 
2

>  <fr_benzodiazepine>  (35) 
0

>  <fr_bicyclic>  (35) 
1

>  <fr_diazo>  (35) 
0

>  <fr_dihydropyridine>  (35) 
0

>  <fr_epoxide>  (35) 
0

>  <fr_ester>  (35) 
0

>  <fr_ether>  (35) 
1

>  <fr_furan>  (35) 
0

>  <fr_guanido>  (35) 
0

>  <fr_halogen>  (35) 
0

>  <fr_hdrzine>  (35) 
0

>  <fr_hdrzone>  (35) 
0

>  <fr_imidazole>  (35) 
1

>  <fr_imide>  (35) 
0

>  <fr_isocyan>  (35) 
0

>  <fr_isothiocyan>  (35) 
0

>  <fr_ketone>  (35) 
0

>  <fr_ketone_Topliss>  (35) 
0

>  <fr_lactam>  (35) 
0

>  <fr_lactone>  (35) 
0

>  <fr_methoxy>  (35) 
0

>  <fr_morpholine>  (35) 
0

>  <fr_nitrile>  (35) 
0

>  <fr_nitro>  (35) 
0

>  <fr_nitro_arom>  (35) 
0

>  <fr_nitro_arom_nonortho>  (35) 
0

>  <fr_nitroso>  (35) 
0

>  <fr_oxazole>  (35) 
0

>  <fr_oxime>  (35) 
0

>  <fr_para_hydroxylation>  (35) 
1

>  <fr_phenol>  (35) 
0

>  <fr_phenol_noOrthoHbond>  (35) 
0

>  <fr_phos_acid>  (35) 
0

>  <fr_phos_ester>  (35) 
0

>  <fr_piperdine>  (35) 
0

>  <fr_piperzine>  (35) 
0

>  <fr_priamide>  (35) 
0

>  <fr_prisulfonamd>  (35) 
0

>  <fr_pyridine>  (35) 
0

>  <fr_quatN>  (35) 
0

>  <fr_sulfide>  (35) 
0

>  <fr_sulfonamd>  (35) 
0

>  <fr_sulfone>  (35) 
0

>  <fr_term_acetylene>  (35) 
0

>  <fr_tetrazole>  (35) 
0

>  <fr_thiazole>  (35) 
0

>  <fr_thiocyan>  (35) 
0

>  <fr_thiophene>  (35) 
0

>  <fr_unbrch_alkane>  (35) 
0

>  <fr_urea>  (35) 
0

>  <NP_Likeness>  (35) 
-0.690667

$$$$
nan
     RDKit          3D

  0  0  0  0  0  0  0  0  0  0999 V3000
M  V30 BEGIN CTAB
M  V30 COUNTS 42 44 0 0 0
M  V30 BEGIN ATOM
M  V30 1 C 3.023546 -5.148626 -0.299439 0
M  V30 2 N 2.715538 -4.030013 -1.198998 0
M  V30 3 C 3.223327 -3.907943 -2.435912 0
M  V30 4 N 2.731861 -2.779840 -2.962485 0
M  V30 5 C 1.915760 -2.161172 -2.101616 0
M  V30 6 C 1.132066 -1.002213 -2.054719 0
M  V30 7 F 1.233650 -0.337445 -3.242472 0
M  V30 8 C 0.379410 -0.678168 -0.916639 0
M  V30 9 N -0.307279 0.532715 -1.087158 0
M  V30 10 C -0.328255 1.904409 -0.752690 0
M  V30 11 C -1.483743 2.376898 -0.133618 0
M  V30 12 C -1.682244 3.674052 0.276914 0
M  V30 13 C -0.618662 4.511586 0.025279 0
M  V30 14 Br -0.812291 6.333840 0.567113 0
M  V30 15 C 0.569374 4.161476 -0.577348 0
M  V30 16 C 0.663207 2.839078 -0.948549 0
M  V30 17 Cl 2.153041 2.339380 -1.701753 0
M  V30 18 C 0.435070 -1.538792 0.154240 0
M  V30 19 C -0.367560 -1.161917 1.301049 0
M  V30 20 O -1.145499 -0.239542 1.626839 0
M  V30 21 N -0.367531 -1.983626 2.460495 0
M  V30 22 O -1.097624 -1.683474 3.564109 0
M  V30 23 C -0.279178 -0.902426 4.378598 0
M  V30 24 C -0.988350 -0.492070 5.653800 0
M  V30 25 O -2.131679 0.249383 5.392771 0
M  V30 26 C 1.172846 -2.678415 0.176668 0
M  V30 27 C 1.898314 -2.960141 -0.959928 0
M  V30 28 H 3.984311 -4.977223 0.236844 0
M  V30 29 H 2.247582 -5.223823 0.503557 0
M  V30 30 H 3.055913 -6.100888 -0.843311 0
M  V30 31 H 3.904731 -4.584043 -2.933990 0
M  V30 32 H -1.132781 0.304494 -1.719986 0
M  V30 33 H -2.317830 1.685668 0.054621 0
M  V30 34 H -2.593745 4.002267 0.754168 0
M  V30 35 H 1.373390 4.849154 -0.754148 0
M  V30 36 H 0.177285 -2.889056 2.598814 0
M  V30 37 H 0.033076 0.045126 3.895941 0
M  V30 38 H 0.653465 -1.441119 4.642023 0
M  V30 39 H -0.290598 0.138210 6.236812 0
M  V30 40 H -1.194958 -1.393409 6.258269 0
M  V30 41 H -2.905185 -0.086509 5.908748 0
M  V30 42 H 1.233121 -3.358388 0.988798 0
M  V30 END ATOM
M  V30 BEGIN BOND
M  V30 1 1 1 2
M  V30 2 1 2 3
M  V30 3 2 3 4
M  V30 4 1 4 5
M  V30 5 2 5 6
M  V30 6 1 6 7
M  V30 7 1 6 8
M  V30 8 1 8 9
M  V30 9 1 9 10
M  V30 10 2 10 11
M  V30 11 1 11 12
M  V30 12 2 12 13
M  V30 13 1 13 14
M  V30 14 1 13 15
M  V30 15 2 15 16
M  V30 16 1 16 17
M  V30 17 2 8 18
M  V30 18 1 18 19
M  V30 19 2 19 20
M  V30 20 1 19 21
M  V30 21 1 21 22
M  V30 22 1 22 23
M  V30 23 1 23 24
M  V30 24 1 24 25
M  V30 25 1 18 26
M  V30 26 2 26 27
M  V30 27 1 27 2
M  V30 28 1 27 5
M  V30 29 1 16 10
M  V30 30 1 1 28
M  V30 31 1 1 29
M  V30 32 1 1 30
M  V30 33 1 3 31
M  V30 34 1 9 32
M  V30 35 1 11 33
M  V30 36 1 12 34
M  V30 37 1 15 35
M  V30 38 1 21 36
M  V30 39 1 23 37
M  V30 40 1 23 38
M  V30 41 1 24 39
M  V30 42 1 24 40
M  V30 43 1 25 41
M  V30 44 1 26 42
M  V30 END BOND
M  V30 END CTAB
M  END
>  <Dataset>  (36) 
PKIs

>  <Ligand_Instance>  (36) 
nan

>  <PDB_ID>  (36) 
nan

>  <Standardized_SMILES>  (36) 
Cn1cnc2c(F)c(Nc3ccc(Br)cc3Cl)c(C(=O)NOCCO)cc21

>  <Name>  (36) 
Selumetinib

>  <Pocket>  (36) 
nan

>  <ATP_Site>  (36) 
nan

>  <Peripheral>  (36) 
nan

>  <Num_H_Atoms_ProtBoundConf>  (36) 
nan

>  <Num_Resolved_Atoms>  (36) 
nan

>  <Num_Not_Resolved_Atoms>  (36) 
nan

>  <2D_Mol_H>  (36) 
<rdkit.Chem.rdchem.Mol object at 0x72a239113300>

>  <MW>  (36) 
457.687

>  <HBA>  (36) 
6

>  <HBD>  (36) 
3

>  <LogP>  (36) 
3.5256

>  <NRB>  (36) 
8

>  <TPSA>  (36) 
88.41

>  <Num_Heavy_Atoms>  (36) 
27

>  <Ro5>  (36) 
[True, True, True, True, True, True]

>  <Ro5_Fulfilled>  (36) 
True

>  <Ro3>  (36) 
[False, False, True, False]

>  <Ro3_Fulfilled>  (36) 
False

>  <Fsp3>  (36) 
0.176471

>  <Fsp3_0.42>  (36) 
False

>  <Fsp3_0.45>  (36) 
False

>  <Stereogenic_Carbons>  (36) 
0

>  <C_Atoms>  (36) 
17

>  <FCStereo>  (36) 
0.0

>  <SPS>  (36) 
297

>  <nSPS>  (36) 
11.0

>  <PBF>  (36) 
0.72859

>  <PBF_0.6>  (36) 
True

>  <nPBF>  (36) 
0.026985

>  <nPBF_0.016>  (36) 
True

>  <PMI1>  (36) 
2927.170465

>  <PMI2>  (36) 
5996.350932

>  <PMI3>  (36) 
8454.460988

>  <NPR1>  (36) 
0.346228

>  <NPR2>  (36) 
0.709253

>  <Sum_NPR>  (36) 
1.055481

>  <Sum_NPR_1.07>  (36) 
False

>  <Sum_NPR_1.2>  (36) 
False

>  <MaxAbsEStateIndex>  (36) 
15.136821

>  <MaxEStateIndex>  (36) 
15.136821

>  <MinAbsEStateIndex>  (36) 
0.000486

>  <MinEStateIndex>  (36) 
-0.695006

>  <qed>  (36) 
0.389286

>  <MolWt>  (36) 
457.687

>  <HeavyAtomMolWt>  (36) 
442.567

>  <ExactMolWt>  (36) 
456.000008

>  <NumValenceElectrons>  (36) 
142

>  <NumRadicalElectrons>  (36) 
0

>  <MaxPartialCharge>  (36) 
0.27664

>  <MinPartialCharge>  (36) 
-0.393874

>  <MaxAbsPartialCharge>  (36) 
0.393874

>  <MinAbsPartialCharge>  (36) 
0.27664

>  <FpDensityMorgan1>  (36) 
1.444444

>  <FpDensityMorgan2>  (36) 
2.222222

>  <FpDensityMorgan3>  (36) 
2.925926

>  <BCUT2D_MWHI>  (36) 
79.918731

>  <BCUT2D_MWLOW>  (36) 
10.098199

>  <BCUT2D_CHGHI>  (36) 
2.218888

>  <BCUT2D_CHGLO>  (36) 
-2.149403

>  <BCUT2D_LOGPHI>  (36) 
2.337133

>  <BCUT2D_LOGPLOW>  (36) 
-2.259209

>  <BCUT2D_MRHI>  (36) 
9.103011

>  <BCUT2D_MRLOW>  (36) 
0.016859

>  <AvgIpc>  (36) 
3.001695

>  <BalabanJ>  (36) 
2.086711

>  <BertzCT>  (36) 
1011.497468

>  <Chi0>  (36) 
19.551677

>  <Chi0n>  (36) 
14.092996

>  <Chi0v>  (36) 
16.434921

>  <Chi1>  (36) 
12.917923

>  <Chi1n>  (36) 
7.806307

>  <Chi1v>  (36) 
8.97727

>  <Chi2n>  (36) 
5.58874

>  <Chi2v>  (36) 
6.911615

>  <Chi3n>  (36) 
3.75408

>  <Chi3v>  (36) 
4.56004

>  <Chi4n>  (36) 
2.468536

>  <Chi4v>  (36) 
3.189205

>  <HallKierAlpha>  (36) 
-2.2

>  <Ipc>  (36) 
1278262.695803

>  <Kappa1>  (36) 
19.558521

>  <Kappa2>  (36) 
8.218323

>  <Kappa3>  (36) 
4.05716

>  <LabuteASA>  (36) 
166.728123

>  <PEOE_VSA1>  (36) 
14.990416

>  <PEOE_VSA10>  (36) 
5.516701

>  <PEOE_VSA11>  (36) 
5.817221

>  <PEOE_VSA12>  (36) 
0.0

>  <PEOE_VSA13>  (36) 
5.90718

>  <PEOE_VSA14>  (36) 
0.0

>  <PEOE_VSA2>  (36) 
9.632126

>  <PEOE_VSA3>  (36) 
14.85449

>  <PEOE_VSA4>  (36) 
0.0

>  <PEOE_VSA5>  (36) 
0.0

>  <PEOE_VSA6>  (36) 
27.530884

>  <PEOE_VSA7>  (36) 
24.265468

>  <PEOE_VSA8>  (36) 
11.520391

>  <PEOE_VSA9>  (36) 
47.018642

>  <SMR_VSA1>  (36) 
19.129068

>  <SMR_VSA10>  (36) 
55.846238

>  <SMR_VSA2>  (36) 
0.0

>  <SMR_VSA3>  (36) 
15.031175

>  <SMR_VSA4>  (36) 
7.047672

>  <SMR_VSA5>  (36) 
0.0

>  <SMR_VSA6>  (36) 
18.530553

>  <SMR_VSA7>  (36) 
51.468814

>  <SMR_VSA8>  (36) 
0.0

>  <SMR_VSA9>  (36) 
0.0

>  <SlogP_VSA1>  (36) 
10.796885

>  <SlogP_VSA10>  (36) 
15.765188

>  <SlogP_VSA11>  (36) 
0.0

>  <SlogP_VSA12>  (36) 
27.530884

>  <SlogP_VSA2>  (36) 
33.778549

>  <SlogP_VSA3>  (36) 
11.885261

>  <SlogP_VSA4>  (36) 
5.817221

>  <SlogP_VSA5>  (36) 
10.357989

>  <SlogP_VSA6>  (36) 
35.065508

>  <SlogP_VSA7>  (36) 
5.022633

>  <SlogP_VSA8>  (36) 
11.033401

>  <SlogP_VSA9>  (36) 
0.0

>  <EState_VSA1>  (36) 
11.724401

>  <EState_VSA10>  (36) 
4.794537

>  <EState_VSA11>  (36) 
4.390415

>  <EState_VSA2>  (36) 
29.981302

>  <EState_VSA3>  (36) 
16.22672

>  <EState_VSA4>  (36) 
4.47272

>  <EState_VSA5>  (36) 
12.393687

>  <EState_VSA6>  (36) 
29.813873

>  <EState_VSA7>  (36) 
0.0

>  <EState_VSA8>  (36) 
31.710808

>  <EState_VSA9>  (36) 
21.545056

>  <VSA_EState1>  (36) 
17.492601

>  <VSA_EState10>  (36) 
9.505027

>  <VSA_EState2>  (36) 
21.400907

>  <VSA_EState3>  (36) 
11.974164

>  <VSA_EState4>  (36) 
3.056064

>  <VSA_EState5>  (36) 
-1.374465

>  <VSA_EState6>  (36) 
6.525082

>  <VSA_EState7>  (36) 
1.45246

>  <VSA_EState8>  (36) 
-0.362605

>  <VSA_EState9>  (36) 
1.691876

>  <FractionCSP3>  (36) 
0.176471

>  <HeavyAtomCount>  (36) 
27

>  <NHOHCount>  (36) 
3

>  <NOCount>  (36) 
7

>  <NumAliphaticCarbocycles>  (36) 
0

>  <NumAliphaticHeterocycles>  (36) 
0

>  <NumAliphaticRings>  (36) 
0

>  <NumAromaticCarbocycles>  (36) 
2

>  <NumAromaticHeterocycles>  (36) 
1

>  <NumAromaticRings>  (36) 
3

>  <NumHAcceptors>  (36) 
6

>  <NumHDonors>  (36) 
3

>  <NumHeteroatoms>  (36) 
10

>  <NumRotatableBonds>  (36) 
6

>  <NumSaturatedCarbocycles>  (36) 
0

>  <NumSaturatedHeterocycles>  (36) 
0

>  <NumSaturatedRings>  (36) 
0

>  <RingCount>  (36) 
3

>  <MolLogP>  (36) 
3.5256

>  <MolMR>  (36) 
103.6107

>  <fr_Al_COO>  (36) 
0

>  <fr_Al_OH>  (36) 
1

>  <fr_Al_OH_noTert>  (36) 
1

>  <fr_ArN>  (36) 
0

>  <fr_Ar_COO>  (36) 
0

>  <fr_Ar_N>  (36) 
2

>  <fr_Ar_NH>  (36) 
0

>  <fr_Ar_OH>  (36) 
0

>  <fr_COO>  (36) 
0

>  <fr_COO2>  (36) 
0

>  <fr_C_O>  (36) 
1

>  <fr_C_O_noCOO>  (36) 
1

>  <fr_C_S>  (36) 
0

>  <fr_HOCCN>  (36) 
0

>  <fr_Imine>  (36) 
0

>  <fr_NH0>  (36) 
2

>  <fr_NH1>  (36) 
2

>  <fr_NH2>  (36) 
0

>  <fr_N_O>  (36) 
1

>  <fr_Ndealkylation1>  (36) 
0

>  <fr_Ndealkylation2>  (36) 
0

>  <fr_Nhpyrrole>  (36) 
0

>  <fr_SH>  (36) 
0

>  <fr_aldehyde>  (36) 
0

>  <fr_alkyl_carbamate>  (36) 
0

>  <fr_alkyl_halide>  (36) 
0

>  <fr_allylic_oxid>  (36) 
0

>  <fr_amide>  (36) 
1

>  <fr_amidine>  (36) 
0

>  <fr_aniline>  (36) 
2

>  <fr_aryl_methyl>  (36) 
1

>  <fr_azide>  (36) 
0

>  <fr_azo>  (36) 
0

>  <fr_barbitur>  (36) 
0

>  <fr_benzene>  (36) 
2

>  <fr_benzodiazepine>  (36) 
0

>  <fr_bicyclic>  (36) 
1

>  <fr_diazo>  (36) 
0

>  <fr_dihydropyridine>  (36) 
0

>  <fr_epoxide>  (36) 
0

>  <fr_ester>  (36) 
0

>  <fr_ether>  (36) 
0

>  <fr_furan>  (36) 
0

>  <fr_guanido>  (36) 
0

>  <fr_halogen>  (36) 
3

>  <fr_hdrzine>  (36) 
0

>  <fr_hdrzone>  (36) 
0

>  <fr_imidazole>  (36) 
1

>  <fr_imide>  (36) 
0

>  <fr_isocyan>  (36) 
0

>  <fr_isothiocyan>  (36) 
0

>  <fr_ketone>  (36) 
0

>  <fr_ketone_Topliss>  (36) 
0

>  <fr_lactam>  (36) 
0

>  <fr_lactone>  (36) 
0

>  <fr_methoxy>  (36) 
0

>  <fr_morpholine>  (36) 
0

>  <fr_nitrile>  (36) 
0

>  <fr_nitro>  (36) 
0

>  <fr_nitro_arom>  (36) 
0

>  <fr_nitro_arom_nonortho>  (36) 
0

>  <fr_nitroso>  (36) 
0

>  <fr_oxazole>  (36) 
0

>  <fr_oxime>  (36) 
0

>  <fr_para_hydroxylation>  (36) 
0

>  <fr_phenol>  (36) 
0

>  <fr_phenol_noOrthoHbond>  (36) 
0

>  <fr_phos_acid>  (36) 
0

>  <fr_phos_ester>  (36) 
0

>  <fr_piperdine>  (36) 
0

>  <fr_piperzine>  (36) 
0

>  <fr_priamide>  (36) 
0

>  <fr_prisulfonamd>  (36) 
0

>  <fr_pyridine>  (36) 
0

>  <fr_quatN>  (36) 
0

>  <fr_sulfide>  (36) 
0

>  <fr_sulfonamd>  (36) 
0

>  <fr_sulfone>  (36) 
0

>  <fr_term_acetylene>  (36) 
0

>  <fr_tetrazole>  (36) 
0

>  <fr_thiazole>  (36) 
0

>  <fr_thiocyan>  (36) 
0

>  <fr_thiophene>  (36) 
0

>  <fr_unbrch_alkane>  (36) 
0

>  <fr_urea>  (36) 
0

>  <NP_Likeness>  (36) 
-1.226534

$$$$
nan
     RDKit          3D

  0  0  0  0  0  0  0  0  0  0999 V3000
M  V30 BEGIN CTAB
M  V30 COUNTS 70 75 0 0 0
M  V30 BEGIN ATOM
M  V30 1 C 3.589960 9.443802 1.992641 0
M  V30 2 O 2.274847 9.437386 1.552883 0
M  V30 3 C 1.539338 8.253268 1.269933 0
M  V30 4 C 0.256207 8.094075 0.779273 0
M  V30 5 C -0.188038 6.804368 0.632407 0
M  V30 6 C 0.523848 5.633204 0.929310 0
M  V30 7 C -0.133878 4.376164 0.728786 0
M  V30 8 N 0.238353 3.456536 -0.271743 0
M  V30 9 C 1.300852 2.535870 0.026954 0 CFG=1
M  V30 10 C 0.256424 1.706913 0.745885 0
M  V30 11 C -0.657453 2.290983 -0.315999 0 CFG=2
M  V30 12 C -0.425435 1.509840 -1.629484 0
M  V30 13 N 0.790685 0.708208 -1.401069 0
M  V30 14 C 0.732357 -0.719284 -1.328087 0
M  V30 15 C -0.323259 -1.349035 -1.934430 0
M  V30 16 C -0.422900 -2.685376 -1.638923 0
M  V30 17 C 0.455240 -3.341867 -0.810911 0
M  V30 18 C 0.459257 -4.651777 -0.205255 0
M  V30 19 C -0.760737 -4.795974 0.469096 0
M  V30 20 C -1.132320 -5.852970 1.260114 0
M  V30 21 O -2.140755 -6.351993 2.013977 0
M  V30 22 C -3.422710 -5.896876 2.255345 0
M  V30 23 C -4.400420 -5.910566 1.135003 0
M  V30 24 C -4.766321 -7.370909 0.823102 0
M  V30 25 C -4.049784 -5.204601 -0.119367 0
M  V30 26 O -5.615684 -5.338500 1.617964 0
M  V30 27 C -0.130050 -6.860844 1.362579 0
M  V30 28 N 1.078593 -6.732618 0.698824 0
M  V30 29 N 2.170786 -7.507914 0.609016 0
M  V30 30 C 3.083587 -6.916068 -0.191637 0
M  V30 31 C 2.584746 -5.706222 -0.655773 0
M  V30 32 C 3.200586 -4.796095 -1.563975 0
M  V30 33 N 3.694857 -4.043813 -2.324669 0
M  V30 34 C 1.353095 -5.662131 -0.062666 0
M  V30 35 C 1.525497 -2.649847 -0.226384 0
M  V30 36 N 1.653123 -1.312332 -0.500477 0
M  V30 37 C 1.732209 1.804700 -1.253914 0
M  V30 38 C 1.800834 5.875159 1.413089 0
M  V30 39 N 2.230820 7.134347 1.553434 0
M  V30 40 H 3.648128 9.565386 3.114673 0
M  V30 41 H 4.174731 10.309905 1.614852 0
M  V30 42 H 4.146181 8.517113 1.687945 0
M  V30 43 H -0.253726 9.021179 0.569761 0
M  V30 44 H -1.215170 6.766320 0.239070 0
M  V30 45 H -1.267473 4.547249 0.654791 0
M  V30 46 H -0.087498 3.828678 1.736352 0
M  V30 47 H 2.154295 2.842079 0.589306 0
M  V30 48 H 0.267143 0.628592 0.633147 0
M  V30 49 H 0.084759 1.948301 1.783444 0
M  V30 50 H -1.690847 2.446017 -0.037190 0
M  V30 51 H -0.368550 2.222547 -2.431151 0
M  V30 52 H -1.297357 0.836198 -1.705447 0
M  V30 53 H -1.052038 -0.922024 -2.598136 0
M  V30 54 H -1.172686 -3.377210 -2.002724 0
M  V30 55 H -1.592371 -4.115552 0.515079 0
M  V30 56 H -3.893748 -6.529945 3.073504 0
M  V30 57 H -3.421045 -4.829863 2.674054 0
M  V30 58 H -4.409769 -7.582892 -0.209793 0
M  V30 59 H -4.331207 -7.997563 1.586966 0
M  V30 60 H -5.875629 -7.476196 0.780324 0
M  V30 61 H -3.206311 -5.659939 -0.674117 0
M  V30 62 H -3.948806 -4.128615 0.070361 0
M  V30 63 H -4.911003 -5.264907 -0.865717 0
M  V30 64 H -5.380541 -4.405624 1.944674 0
M  V30 65 H -0.121791 -7.799994 1.920075 0
M  V30 66 H 4.045569 -7.341759 -0.412152 0
M  V30 67 H 2.319571 -2.962778 0.443455 0
M  V30 68 H 1.805500 2.454707 -2.124856 0
M  V30 69 H 2.764094 1.398075 -1.063660 0
M  V30 70 H 2.413008 5.020978 1.676765 0
M  V30 END ATOM
M  V30 BEGIN BOND
M  V30 1 1 1 2
M  V30 2 1 2 3
M  V30 3 2 3 4
M  V30 4 1 4 5
M  V30 5 2 5 6
M  V30 6 1 6 7
M  V30 7 1 7 8
M  V30 8 1 8 9
M  V30 9 1 9 10
M  V30 10 1 10 11
M  V30 11 1 11 12
M  V30 12 1 12 13
M  V30 13 1 13 14
M  V30 14 2 14 15
M  V30 15 1 15 16
M  V30 16 2 16 17
M  V30 17 1 17 18
M  V30 18 2 18 19
M  V30 19 1 19 20
M  V30 20 1 20 21
M  V30 21 1 21 22
M  V30 22 1 22 23
M  V30 23 1 23 24
M  V30 24 1 23 25
M  V30 25 1 23 26
M  V30 26 2 20 27
M  V30 27 1 27 28
M  V30 28 1 28 29
M  V30 29 2 29 30
M  V30 30 1 30 31
M  V30 31 1 31 32
M  V30 32 3 32 33
M  V30 33 2 31 34
M  V30 34 1 17 35
M  V30 35 2 35 36
M  V30 36 1 13 37
M  V30 37 1 6 38
M  V30 38 2 38 39
M  V30 39 1 39 3
M  V30 40 1 11 8
M  V30 41 1 36 14
M  V30 42 1 37 9
M  V30 43 1 34 18
M  V30 44 1 34 28
M  V30 45 1 1 40
M  V30 46 1 1 41
M  V30 47 1 1 42
M  V30 48 1 4 43
M  V30 49 1 5 44
M  V30 50 1 7 45
M  V30 51 1 7 46
M  V30 52 1 9 47 CFG=1
M  V30 53 1 10 48
M  V30 54 1 10 49
M  V30 55 1 11 50 CFG=1
M  V30 56 1 12 51
M  V30 57 1 12 52
M  V30 58 1 15 53
M  V30 59 1 16 54
M  V30 60 1 19 55
M  V30 61 1 22 56
M  V30 62 1 22 57
M  V30 63 1 24 58
M  V30 64 1 24 59
M  V30 65 1 24 60
M  V30 66 1 25 61
M  V30 67 1 25 62
M  V30 68 1 25 63
M  V30 69 1 26 64
M  V30 70 1 27 65
M  V30 71 1 30 66
M  V30 72 1 35 67
M  V30 73 1 37 68
M  V30 74 1 37 69
M  V30 75 1 38 70
M  V30 END BOND
M  V30 END CTAB
M  END
>  <Dataset>  (37) 
PKIs

>  <Ligand_Instance>  (37) 
nan

>  <PDB_ID>  (37) 
nan

>  <Standardized_SMILES>  (37) 
COc1ccc(CN2C3CC2CN(c2ccc(-c4cc(OCC(C)(C)O)cn5ncc(C#N)c45)cn2)C3)cn1

>  <Name>  (37) 
Selpercatinib

>  <Pocket>  (37) 
nan

>  <ATP_Site>  (37) 
nan

>  <Peripheral>  (37) 
nan

>  <Num_H_Atoms_ProtBoundConf>  (37) 
nan

>  <Num_Resolved_Atoms>  (37) 
nan

>  <Num_Not_Resolved_Atoms>  (37) 
nan

>  <2D_Mol_H>  (37) 
<rdkit.Chem.rdchem.Mol object at 0x72a2391133e0>

>  <MW>  (37) 
525.613

>  <HBA>  (37) 
10

>  <HBD>  (37) 
1

>  <LogP>  (37) 
3.28438

>  <NRB>  (37) 
12

>  <TPSA>  (37) 
112.04

>  <Num_Heavy_Atoms>  (37) 
39

>  <Ro5>  (37) 
[False, True, True, True, False, True]

>  <Ro5_Fulfilled>  (37) 
False

>  <Ro3>  (37) 
[False, False, True, False]

>  <Ro3_Fulfilled>  (37) 
False

>  <Fsp3>  (37) 
0.37931

>  <Fsp3_0.42>  (37) 
False

>  <Fsp3_0.45>  (37) 
False

>  <Stereogenic_Carbons>  (37) 
2

>  <C_Atoms>  (37) 
29

>  <FCStereo>  (37) 
0.068966

>  <SPS>  (37) 
741

>  <nSPS>  (37) 
19.0

>  <PBF>  (37) 
1.068058

>  <PBF_0.6>  (37) 
True

>  <nPBF>  (37) 
0.027386

>  <nPBF_0.016>  (37) 
True

>  <PMI1>  (37) 
3175.877207

>  <PMI2>  (37) 
16637.190781

>  <PMI3>  (37) 
18556.764953

>  <NPR1>  (37) 
0.171144

>  <NPR2>  (37) 
0.896557

>  <Sum_NPR>  (37) 
1.067701

>  <Sum_NPR_1.07>  (37) 
False

>  <Sum_NPR_1.2>  (37) 
False

>  <MaxAbsEStateIndex>  (37) 
10.090863

>  <MaxEStateIndex>  (37) 
10.090863

>  <MinAbsEStateIndex>  (37) 
0.12976

>  <MinEStateIndex>  (37) 
-0.975684

>  <qed>  (37) 
0.370319

>  <MolWt>  (37) 
525.613

>  <HeavyAtomMolWt>  (37) 
494.365

>  <ExactMolWt>  (37) 
525.248838

>  <NumValenceElectrons>  (37) 
200

>  <NumRadicalElectrons>  (37) 
0

>  <MaxPartialCharge>  (37) 
0.212387

>  <MinPartialCharge>  (37) 
-0.488976

>  <MaxAbsPartialCharge>  (37) 
0.488976

>  <MinAbsPartialCharge>  (37) 
0.212387

>  <FpDensityMorgan1>  (37) 
1.102564

>  <FpDensityMorgan2>  (37) 
1.923077

>  <FpDensityMorgan3>  (37) 
2.564103

>  <BCUT2D_MWHI>  (37) 
16.4926

>  <BCUT2D_MWLOW>  (37) 
9.865747

>  <BCUT2D_CHGHI>  (37) 
2.442259

>  <BCUT2D_CHGLO>  (37) 
-2.563587

>  <BCUT2D_LOGPHI>  (37) 
2.363853

>  <BCUT2D_LOGPLOW>  (37) 
-2.679171

>  <BCUT2D_MRHI>  (37) 
5.848146

>  <BCUT2D_MRLOW>  (37) 
-0.008764

>  <AvgIpc>  (37) 
3.374246

>  <BalabanJ>  (37) 
1.19089

>  <BertzCT>  (37) 
1508.260253

>  <Chi0>  (37) 
27.147689

>  <Chi0n>  (37) 
22.280592

>  <Chi0v>  (37) 
22.280592

>  <Chi1>  (37) 
18.807308

>  <Chi1n>  (37) 
13.038207

>  <Chi1v>  (37) 
13.038207

>  <Chi2n>  (37) 
10.888362

>  <Chi2v>  (37) 
10.888362

>  <Chi3n>  (37) 
7.398421

>  <Chi3v>  (37) 
7.398421

>  <Chi4n>  (37) 
5.438639

>  <Chi4v>  (37) 
5.438639

>  <HallKierAlpha>  (37) 
-4.2

>  <Ipc>  (37) 
842627717.263446

>  <Kappa1>  (37) 
25.098427

>  <Kappa2>  (37) 
9.836877

>  <Kappa3>  (37) 
4.985518

>  <LabuteASA>  (37) 
226.592364

>  <PEOE_VSA1>  (37) 
19.480163

>  <PEOE_VSA10>  (37) 
24.243478

>  <PEOE_VSA11>  (37) 
0.0

>  <PEOE_VSA12>  (37) 
5.879988

>  <PEOE_VSA13>  (37) 
0.0

>  <PEOE_VSA14>  (37) 
0.0

>  <PEOE_VSA2>  (37) 
4.89991

>  <PEOE_VSA3>  (37) 
14.483355

>  <PEOE_VSA4>  (37) 
10.360573

>  <PEOE_VSA5>  (37) 
0.0

>  <PEOE_VSA6>  (37) 
6.066367

>  <PEOE_VSA7>  (37) 
44.030849

>  <PEOE_VSA8>  (37) 
61.304908

>  <PEOE_VSA9>  (37) 
36.184688

>  <SMR_VSA1>  (37) 
14.580253

>  <SMR_VSA10>  (37) 
11.334563

>  <SMR_VSA2>  (37) 
5.261892

>  <SMR_VSA3>  (37) 
24.481946

>  <SMR_VSA4>  (37) 
0.0

>  <SMR_VSA5>  (37) 
44.497785

>  <SMR_VSA6>  (37) 
31.706102

>  <SMR_VSA7>  (37) 
66.246113

>  <SMR_VSA8>  (37) 
0.0

>  <SMR_VSA9>  (37) 
28.825624

>  <SlogP_VSA1>  (37) 
14.373636

>  <SlogP_VSA10>  (37) 
5.817863

>  <SlogP_VSA11>  (37) 
11.6295

>  <SlogP_VSA12>  (37) 
0.0

>  <SlogP_VSA2>  (37) 
74.079399

>  <SlogP_VSA3>  (37) 
6.544756

>  <SlogP_VSA4>  (37) 
11.331113

>  <SlogP_VSA5>  (37) 
31.395199

>  <SlogP_VSA6>  (37) 
55.11921

>  <SlogP_VSA7>  (37) 
0.0

>  <SlogP_VSA8>  (37) 
16.643604

>  <SlogP_VSA9>  (37) 
0.0

>  <EState_VSA1>  (37) 
5.601051

>  <EState_VSA10>  (37) 
10.368419

>  <EState_VSA11>  (37) 
0.0

>  <EState_VSA2>  (37) 
6.606882

>  <EState_VSA3>  (37) 
34.793334

>  <EState_VSA4>  (37) 
36.579035

>  <EState_VSA5>  (37) 
11.984273

>  <EState_VSA6>  (37) 
37.866357

>  <EState_VSA7>  (37) 
36.659155

>  <EState_VSA8>  (37) 
32.018068

>  <EState_VSA9>  (37) 
14.457704

>  <VSA_EState1>  (37) 
12.665341

>  <VSA_EState10>  (37) 
0.0

>  <VSA_EState2>  (37) 
14.052496

>  <VSA_EState3>  (37) 
24.083171

>  <VSA_EState4>  (37) 
3.063586

>  <VSA_EState5>  (37) 
2.132099

>  <VSA_EState6>  (37) 
13.150761

>  <VSA_EState7>  (37) 
8.213632

>  <VSA_EState8>  (37) 
6.259685

>  <VSA_EState9>  (37) 
1.629229

>  <FractionCSP3>  (37) 
0.37931

>  <HeavyAtomCount>  (37) 
39

>  <NHOHCount>  (37) 
1

>  <NOCount>  (37) 
10

>  <NumAliphaticCarbocycles>  (37) 
0

>  <NumAliphaticHeterocycles>  (37) 
3

>  <NumAliphaticRings>  (37) 
3

>  <NumAromaticCarbocycles>  (37) 
0

>  <NumAromaticHeterocycles>  (37) 
4

>  <NumAromaticRings>  (37) 
4

>  <NumHAcceptors>  (37) 
10

>  <NumHDonors>  (37) 
1

>  <NumHeteroatoms>  (37) 
10

>  <NumRotatableBonds>  (37) 
8

>  <NumSaturatedCarbocycles>  (37) 
0

>  <NumSaturatedHeterocycles>  (37) 
3

>  <NumSaturatedRings>  (37) 
3

>  <RingCount>  (37) 
7

>  <MolLogP>  (37) 
3.28438

>  <MolMR>  (37) 
145.6688

>  <fr_Al_COO>  (37) 
0

>  <fr_Al_OH>  (37) 
1

>  <fr_Al_OH_noTert>  (37) 
0

>  <fr_ArN>  (37) 
0

>  <fr_Ar_COO>  (37) 
0

>  <fr_Ar_N>  (37) 
4

>  <fr_Ar_NH>  (37) 
0

>  <fr_Ar_OH>  (37) 
0

>  <fr_COO>  (37) 
0

>  <fr_COO2>  (37) 
0

>  <fr_C_O>  (37) 
0

>  <fr_C_O_noCOO>  (37) 
0

>  <fr_C_S>  (37) 
0

>  <fr_HOCCN>  (37) 
0

>  <fr_Imine>  (37) 
0

>  <fr_NH0>  (37) 
7

>  <fr_NH1>  (37) 
0

>  <fr_NH2>  (37) 
0

>  <fr_N_O>  (37) 
0

>  <fr_Ndealkylation1>  (37) 
0

>  <fr_Ndealkylation2>  (37) 
0

>  <fr_Nhpyrrole>  (37) 
0

>  <fr_SH>  (37) 
0

>  <fr_aldehyde>  (37) 
0

>  <fr_alkyl_carbamate>  (37) 
0

>  <fr_alkyl_halide>  (37) 
0

>  <fr_allylic_oxid>  (37) 
0

>  <fr_amide>  (37) 
0

>  <fr_amidine>  (37) 
0

>  <fr_aniline>  (37) 
1

>  <fr_aryl_methyl>  (37) 
0

>  <fr_azide>  (37) 
0

>  <fr_azo>  (37) 
0

>  <fr_barbitur>  (37) 
0

>  <fr_benzene>  (37) 
0

>  <fr_benzodiazepine>  (37) 
0

>  <fr_bicyclic>  (37) 
3

>  <fr_diazo>  (37) 
0

>  <fr_dihydropyridine>  (37) 
0

>  <fr_epoxide>  (37) 
0

>  <fr_ester>  (37) 
0

>  <fr_ether>  (37) 
2

>  <fr_furan>  (37) 
0

>  <fr_guanido>  (37) 
0

>  <fr_halogen>  (37) 
0

>  <fr_hdrzine>  (37) 
0

>  <fr_hdrzone>  (37) 
0

>  <fr_imidazole>  (37) 
0

>  <fr_imide>  (37) 
0

>  <fr_isocyan>  (37) 
0

>  <fr_isothiocyan>  (37) 
0

>  <fr_ketone>  (37) 
0

>  <fr_ketone_Topliss>  (37) 
0

>  <fr_lactam>  (37) 
0

>  <fr_lactone>  (37) 
0

>  <fr_methoxy>  (37) 
1

>  <fr_morpholine>  (37) 
0

>  <fr_nitrile>  (37) 
1

>  <fr_nitro>  (37) 
0

>  <fr_nitro_arom>  (37) 
0

>  <fr_nitro_arom_nonortho>  (37) 
0

>  <fr_nitroso>  (37) 
0

>  <fr_oxazole>  (37) 
0

>  <fr_oxime>  (37) 
0

>  <fr_para_hydroxylation>  (37) 
0

>  <fr_phenol>  (37) 
0

>  <fr_phenol_noOrthoHbond>  (37) 
0

>  <fr_phos_acid>  (37) 
0

>  <fr_phos_ester>  (37) 
0

>  <fr_piperdine>  (37) 
1

>  <fr_piperzine>  (37) 
1

>  <fr_priamide>  (37) 
0

>  <fr_prisulfonamd>  (37) 
0

>  <fr_pyridine>  (37) 
3

>  <fr_quatN>  (37) 
0

>  <fr_sulfide>  (37) 
0

>  <fr_sulfonamd>  (37) 
0

>  <fr_sulfone>  (37) 
0

>  <fr_term_acetylene>  (37) 
0

>  <fr_tetrazole>  (37) 
0

>  <fr_thiazole>  (37) 
0

>  <fr_thiocyan>  (37) 
0

>  <fr_thiophene>  (37) 
0

>  <fr_unbrch_alkane>  (37) 
0

>  <fr_urea>  (37) 
0

>  <NP_Likeness>  (37) 
-1.268671

$$$$
nan
     RDKit          3D

  0  0  0  0  0  0  0  0  0  0999 V3000
M  V30 BEGIN CTAB
M  V30 COUNTS 54 57 0 0 0
M  V30 BEGIN ATOM
M  V30 1 C -2.188472 -3.530419 3.416148 0
M  V30 2 C -2.314128 -2.859298 2.073018 0
M  V30 3 N -1.186924 -3.088688 1.194236 0
M  V30 4 C -0.146711 -2.202184 1.217811 0
M  V30 5 O -0.238696 -1.229055 2.012804 0
M  V30 6 C 1.002060 -2.264095 0.454797 0
M  V30 7 C 2.031401 -1.237203 0.591475 0
M  V30 8 C 1.896258 -0.145452 -0.241766 0
M  V30 9 C 2.855883 0.853070 -0.141711 0
M  V30 10 N 2.694817 1.986667 -1.023416 0
M  V30 11 C 1.896878 3.014327 -0.412983 0
M  V30 12 O 1.529242 2.666595 0.759298 0
M  V30 13 N 1.565145 4.248017 -1.034231 0
M  V30 14 C 0.767441 5.221176 -0.365201 0
M  V30 15 C 1.201571 6.250825 0.449109 0
M  V30 16 C 0.286251 7.106903 1.019845 0
M  V30 17 C -1.076541 6.958788 0.794399 0
M  V30 18 C -1.516238 5.936235 -0.015011 0
M  V30 19 C -0.598999 5.071546 -0.592095 0
M  V30 20 C 3.919352 0.805546 0.736298 0
M  V30 21 F 4.835850 1.816585 0.793704 0
M  V30 22 C 4.015500 -0.314623 1.557393 0
M  V30 23 C 3.078423 -1.322179 1.481285 0
M  V30 24 Br 3.188644 -2.863804 2.593713 0
M  V30 25 C 1.112932 -3.326796 -0.419786 0
M  V30 26 C 0.087582 -4.247650 -0.478274 0
M  V30 27 C 0.175707 -5.320421 -1.341524 0
M  V30 28 N -0.829928 -6.222971 -1.393459 0
M  V30 29 C -1.937131 -6.092627 -0.603673 0
M  V30 30 N -2.998593 -7.068084 -0.675434 0
M  V30 31 C -4.174156 -6.916246 0.173268 0
M  V30 32 C -2.043621 -5.026306 0.266060 0
M  V30 33 C -1.022852 -4.102191 0.324291 0
M  V30 34 H -3.203019 -3.528646 3.870713 0
M  V30 35 H -1.556353 -2.913522 4.104978 0
M  V30 36 H -1.866586 -4.582078 3.359214 0
M  V30 37 H -3.242960 -3.184327 1.598793 0
M  V30 38 H -2.349571 -1.750738 2.276445 0
M  V30 39 H 1.075558 -0.042021 -0.963716 0
M  V30 40 H 3.054800 2.173565 -2.004641 0
M  V30 41 H 1.937867 4.404272 -2.009728 0
M  V30 42 H 2.279943 6.299421 0.575655 0
M  V30 43 H 0.685919 7.901362 1.653538 0
M  V30 44 H -1.772037 7.652940 1.261066 0
M  V30 45 H -2.587150 5.848145 -0.170786 0
M  V30 46 H -1.029145 4.283501 -1.223478 0
M  V30 47 H 4.836942 -0.395669 2.265047 0
M  V30 48 H 2.006432 -3.386030 -1.021892 0
M  V30 49 H 1.041832 -5.447719 -1.978331 0
M  V30 50 H -2.885496 -7.861706 -1.343912 0
M  V30 51 H -3.938050 -7.033487 1.253324 0
M  V30 52 H -4.923016 -7.647444 -0.187643 0
M  V30 53 H -4.611850 -5.884566 0.066543 0
M  V30 54 H -2.931048 -4.984691 0.857122 0
M  V30 END ATOM
M  V30 BEGIN BOND
M  V30 1 1 1 2
M  V30 2 1 2 3
M  V30 3 1 3 4
M  V30 4 2 4 5
M  V30 5 1 4 6
M  V30 6 1 6 7
M  V30 7 2 7 8
M  V30 8 1 8 9
M  V30 9 1 9 10
M  V30 10 1 10 11
M  V30 11 2 11 12
M  V30 12 1 11 13
M  V30 13 1 13 14
M  V30 14 2 14 15
M  V30 15 1 15 16
M  V30 16 2 16 17
M  V30 17 1 17 18
M  V30 18 2 18 19
M  V30 19 2 9 20
M  V30 20 1 20 21
M  V30 21 1 20 22
M  V30 22 2 22 23
M  V30 23 1 23 24
M  V30 24 2 6 25
M  V30 25 1 25 26
M  V30 26 2 26 27
M  V30 27 1 27 28
M  V30 28 2 28 29
M  V30 29 1 29 30
M  V30 30 1 30 31
M  V30 31 1 29 32
M  V30 32 2 32 33
M  V30 33 1 33 3
M  V30 34 1 23 7
M  V30 35 1 33 26
M  V30 36 1 19 14
M  V30 37 1 1 34
M  V30 38 1 1 35
M  V30 39 1 1 36
M  V30 40 1 2 37
M  V30 41 1 2 38
M  V30 42 1 8 39
M  V30 43 1 10 40
M  V30 44 1 13 41
M  V30 45 1 15 42
M  V30 46 1 16 43
M  V30 47 1 17 44
M  V30 48 1 18 45
M  V30 49 1 19 46
M  V30 50 1 22 47
M  V30 51 1 25 48
M  V30 52 1 27 49
M  V30 53 1 30 50
M  V30 54 1 31 51
M  V30 55 1 31 52
M  V30 56 1 31 53
M  V30 57 1 32 54
M  V30 END BOND
M  V30 END CTAB
M  END
>  <Dataset>  (38) 
PKIs

>  <Ligand_Instance>  (38) 
nan

>  <PDB_ID>  (38) 
nan

>  <Standardized_SMILES>  (38) 
CCn1c(=O)c(-c2cc(NC(=O)Nc3ccccc3)c(F)cc2Br)cc2cnc(NC)cc21

>  <Name>  (38) 
Ripretinib

>  <Pocket>  (38) 
nan

>  <ATP_Site>  (38) 
nan

>  <Peripheral>  (38) 
nan

>  <Num_H_Atoms_ProtBoundConf>  (38) 
nan

>  <Num_Resolved_Atoms>  (38) 
nan

>  <Num_Not_Resolved_Atoms>  (38) 
nan

>  <2D_Mol_H>  (38) 
<rdkit.Chem.rdchem.Mol object at 0x72a2391134c0>

>  <MW>  (38) 
510.367

>  <HBA>  (38) 
5

>  <HBD>  (38) 
3

>  <LogP>  (38) 
5.6707

>  <NRB>  (38) 
7

>  <TPSA>  (38) 
88.05

>  <Num_Heavy_Atoms>  (38) 
33

>  <Ro5>  (38) 
[False, True, True, False, True, True]

>  <Ro5_Fulfilled>  (38) 
False

>  <Ro3>  (38) 
[False, False, True, False]

>  <Ro3_Fulfilled>  (38) 
False

>  <Fsp3>  (38) 
0.125

>  <Fsp3_0.42>  (38) 
False

>  <Fsp3_0.45>  (38) 
False

>  <Stereogenic_Carbons>  (38) 
0

>  <C_Atoms>  (38) 
24

>  <FCStereo>  (38) 
0.0

>  <SPS>  (38) 
356

>  <nSPS>  (38) 
10.787879

>  <PBF>  (38) 
1.18173

>  <PBF_0.6>  (38) 
True

>  <nPBF>  (38) 
0.03581

>  <nPBF_0.016>  (38) 
True

>  <PMI1>  (38) 
3241.710603

>  <PMI2>  (38) 
9283.229145

>  <PMI3>  (38) 
11009.395373

>  <NPR1>  (38) 
0.294449

>  <NPR2>  (38) 
0.84321

>  <Sum_NPR>  (38) 
1.137659

>  <Sum_NPR_1.07>  (38) 
True

>  <Sum_NPR_1.2>  (38) 
False

>  <MaxAbsEStateIndex>  (38) 
14.654918

>  <MaxEStateIndex>  (38) 
14.654918

>  <MinAbsEStateIndex>  (38) 
0.048303

>  <MinEStateIndex>  (38) 
-0.633545

>  <qed>  (38) 
0.322975

>  <MolWt>  (38) 
510.367

>  <HeavyAtomMolWt>  (38) 
489.199

>  <ExactMolWt>  (38) 
509.086265

>  <NumValenceElectrons>  (38) 
168

>  <NumRadicalElectrons>  (38) 
0

>  <MaxPartialCharge>  (38) 
0.323265

>  <MinPartialCharge>  (38) 
-0.373088

>  <MaxAbsPartialCharge>  (38) 
0.373088

>  <MinAbsPartialCharge>  (38) 
0.323265

>  <FpDensityMorgan1>  (38) 
1.090909

>  <FpDensityMorgan2>  (38) 
1.848485

>  <FpDensityMorgan3>  (38) 
2.545455

>  <BCUT2D_MWHI>  (38) 
79.918731

>  <BCUT2D_MWLOW>  (38) 
10.039288

>  <BCUT2D_CHGHI>  (38) 
2.172627

>  <BCUT2D_CHGLO>  (38) 
-2.147832

>  <BCUT2D_LOGPHI>  (38) 
2.326843

>  <BCUT2D_LOGPLOW>  (38) 
-2.221722

>  <BCUT2D_MRHI>  (38) 
9.103583

>  <BCUT2D_MRLOW>  (38) 
0.261754

>  <AvgIpc>  (38) 
2.807113

>  <BalabanJ>  (38) 
1.768283

>  <BertzCT>  (38) 
1405.886781

>  <Chi0>  (38) 
23.534805

>  <Chi0n>  (38) 
17.947462

>  <Chi0v>  (38) 
19.533459

>  <Chi1>  (38) 
15.905417

>  <Chi1n>  (38) 
10.247326

>  <Chi1v>  (38) 
11.040325

>  <Chi2n>  (38) 
7.242833

>  <Chi2v>  (38) 
8.09717

>  <Chi3n>  (38) 
5.177242

>  <Chi3v>  (38) 
5.833329

>  <Chi4n>  (38) 
3.573272

>  <Chi4v>  (38) 
4.102299

>  <HallKierAlpha>  (38) 
-3.72

>  <Ipc>  (38) 
27232115.612683

>  <Kappa1>  (38) 
22.473092

>  <Kappa2>  (38) 
9.414846

>  <Kappa3>  (38) 
4.583211

>  <LabuteASA>  (38) 
197.342006

>  <PEOE_VSA1>  (38) 
20.517465

>  <PEOE_VSA10>  (38) 
11.635084

>  <PEOE_VSA11>  (38) 
0.0

>  <PEOE_VSA12>  (38) 
0.0

>  <PEOE_VSA13>  (38) 
5.559267

>  <PEOE_VSA14>  (38) 
6.031115

>  <PEOE_VSA2>  (38) 
4.794537

>  <PEOE_VSA3>  (38) 
14.168931

>  <PEOE_VSA4>  (38) 
0.0

>  <PEOE_VSA5>  (38) 
0.0

>  <PEOE_VSA6>  (38) 
34.129045

>  <PEOE_VSA7>  (38) 
37.255573

>  <PEOE_VSA8>  (38) 
52.528872

>  <PEOE_VSA9>  (38) 
11.204087

>  <SMR_VSA1>  (38) 
9.184952

>  <SMR_VSA10>  (38) 
50.056619

>  <SMR_VSA2>  (38) 
0.0

>  <SMR_VSA3>  (38) 
9.551078

>  <SMR_VSA4>  (38) 
0.0

>  <SMR_VSA5>  (38) 
13.468494

>  <SMR_VSA6>  (38) 
22.998038

>  <SMR_VSA7>  (38) 
81.437892

>  <SMR_VSA8>  (38) 
0.0

>  <SMR_VSA9>  (38) 
11.126903

>  <SlogP_VSA1>  (38) 
21.509633

>  <SlogP_VSA10>  (38) 
26.377588

>  <SlogP_VSA11>  (38) 
0.0

>  <SlogP_VSA12>  (38) 
15.929944

>  <SlogP_VSA2>  (38) 
22.629865

>  <SlogP_VSA3>  (38) 
6.544756

>  <SlogP_VSA4>  (38) 
5.817221

>  <SlogP_VSA5>  (38) 
6.923737

>  <SlogP_VSA6>  (38) 
70.061404

>  <SlogP_VSA7>  (38) 
0.0

>  <SlogP_VSA8>  (38) 
22.029828

>  <SlogP_VSA9>  (38) 
0.0

>  <EState_VSA1>  (38) 
11.848335

>  <EState_VSA10>  (38) 
13.979489

>  <EState_VSA11>  (38) 
0.0

>  <EState_VSA2>  (38) 
11.246653

>  <EState_VSA3>  (38) 
33.649628

>  <EState_VSA4>  (38) 
10.902925

>  <EState_VSA5>  (38) 
12.132734

>  <EState_VSA6>  (38) 
48.143451

>  <EState_VSA7>  (38) 
19.056471

>  <EState_VSA8>  (38) 
36.864288

>  <EState_VSA9>  (38) 
0.0

>  <VSA_EState1>  (38) 
16.688245

>  <VSA_EState10>  (38) 
3.363428

>  <VSA_EState2>  (38) 
30.057585

>  <VSA_EState3>  (38) 
8.903367

>  <VSA_EState4>  (38) 
1.850925

>  <VSA_EState5>  (38) 
0.015277

>  <VSA_EState6>  (38) 
14.440975

>  <VSA_EState7>  (38) 
1.680716

>  <VSA_EState8>  (38) 
2.323858

>  <VSA_EState9>  (38) 
1.758957

>  <FractionCSP3>  (38) 
0.125

>  <HeavyAtomCount>  (38) 
33

>  <NHOHCount>  (38) 
3

>  <NOCount>  (38) 
7

>  <NumAliphaticCarbocycles>  (38) 
0

>  <NumAliphaticHeterocycles>  (38) 
0

>  <NumAliphaticRings>  (38) 
0

>  <NumAromaticCarbocycles>  (38) 
2

>  <NumAromaticHeterocycles>  (38) 
2

>  <NumAromaticRings>  (38) 
4

>  <NumHAcceptors>  (38) 
5

>  <NumHDonors>  (38) 
3

>  <NumHeteroatoms>  (38) 
9

>  <NumRotatableBonds>  (38) 
5

>  <NumSaturatedCarbocycles>  (38) 
0

>  <NumSaturatedHeterocycles>  (38) 
0

>  <NumSaturatedRings>  (38) 
0

>  <RingCount>  (38) 
4

>  <MolLogP>  (38) 
5.6707

>  <MolMR>  (38) 
133.4011

>  <fr_Al_COO>  (38) 
0

>  <fr_Al_OH>  (38) 
0

>  <fr_Al_OH_noTert>  (38) 
0

>  <fr_ArN>  (38) 
0

>  <fr_Ar_COO>  (38) 
0

>  <fr_Ar_N>  (38) 
2

>  <fr_Ar_NH>  (38) 
0

>  <fr_Ar_OH>  (38) 
0

>  <fr_COO>  (38) 
0

>  <fr_COO2>  (38) 
0

>  <fr_C_O>  (38) 
1

>  <fr_C_O_noCOO>  (38) 
1

>  <fr_C_S>  (38) 
0

>  <fr_HOCCN>  (38) 
0

>  <fr_Imine>  (38) 
0

>  <fr_NH0>  (38) 
2

>  <fr_NH1>  (38) 
3

>  <fr_NH2>  (38) 
0

>  <fr_N_O>  (38) 
0

>  <fr_Ndealkylation1>  (38) 
0

>  <fr_Ndealkylation2>  (38) 
0

>  <fr_Nhpyrrole>  (38) 
0

>  <fr_SH>  (38) 
0

>  <fr_aldehyde>  (38) 
0

>  <fr_alkyl_carbamate>  (38) 
0

>  <fr_alkyl_halide>  (38) 
0

>  <fr_allylic_oxid>  (38) 
0

>  <fr_amide>  (38) 
2

>  <fr_amidine>  (38) 
0

>  <fr_aniline>  (38) 
3

>  <fr_aryl_methyl>  (38) 
1

>  <fr_azide>  (38) 
0

>  <fr_azo>  (38) 
0

>  <fr_barbitur>  (38) 
0

>  <fr_benzene>  (38) 
2

>  <fr_benzodiazepine>  (38) 
0

>  <fr_bicyclic>  (38) 
1

>  <fr_diazo>  (38) 
0

>  <fr_dihydropyridine>  (38) 
0

>  <fr_epoxide>  (38) 
0

>  <fr_ester>  (38) 
0

>  <fr_ether>  (38) 
0

>  <fr_furan>  (38) 
0

>  <fr_guanido>  (38) 
0

>  <fr_halogen>  (38) 
2

>  <fr_hdrzine>  (38) 
0

>  <fr_hdrzone>  (38) 
0

>  <fr_imidazole>  (38) 
0

>  <fr_imide>  (38) 
0

>  <fr_isocyan>  (38) 
0

>  <fr_isothiocyan>  (38) 
0

>  <fr_ketone>  (38) 
0

>  <fr_ketone_Topliss>  (38) 
0

>  <fr_lactam>  (38) 
0

>  <fr_lactone>  (38) 
0

>  <fr_methoxy>  (38) 
0

>  <fr_morpholine>  (38) 
0

>  <fr_nitrile>  (38) 
0

>  <fr_nitro>  (38) 
0

>  <fr_nitro_arom>  (38) 
0

>  <fr_nitro_arom_nonortho>  (38) 
0

>  <fr_nitroso>  (38) 
0

>  <fr_oxazole>  (38) 
0

>  <fr_oxime>  (38) 
0

>  <fr_para_hydroxylation>  (38) 
1

>  <fr_phenol>  (38) 
0

>  <fr_phenol_noOrthoHbond>  (38) 
0

>  <fr_phos_acid>  (38) 
0

>  <fr_phos_ester>  (38) 
0

>  <fr_piperdine>  (38) 
0

>  <fr_piperzine>  (38) 
0

>  <fr_priamide>  (38) 
0

>  <fr_prisulfonamd>  (38) 
0

>  <fr_pyridine>  (38) 
2

>  <fr_quatN>  (38) 
0

>  <fr_sulfide>  (38) 
0

>  <fr_sulfonamd>  (38) 
0

>  <fr_sulfone>  (38) 
0

>  <fr_term_acetylene>  (38) 
0

>  <fr_tetrazole>  (38) 
0

>  <fr_thiazole>  (38) 
0

>  <fr_thiocyan>  (38) 
0

>  <fr_thiophene>  (38) 
0

>  <fr_unbrch_alkane>  (38) 
0

>  <fr_urea>  (38) 
1

>  <NP_Likeness>  (38) 
-1.533943

$$$$
nan
     RDKit          3D

  0  0  0  0  0  0  0  0  0  0999 V3000
M  V30 BEGIN CTAB
M  V30 COUNTS 62 66 0 0 0
M  V30 BEGIN ATOM
M  V30 1 C 0.941437 -2.878030 2.109697 0
M  V30 2 C -0.306876 -2.037990 2.411517 0
M  V30 3 N -0.476348 -0.926504 1.551414 0
M  V30 4 C 0.093727 0.355442 1.896190 0
M  V30 5 O 0.763167 0.495562 2.978613 0
M  V30 6 N -0.008210 1.543359 1.131139 0
M  V30 7 C 0.601784 2.755182 1.541696 0
M  V30 8 C 1.906940 3.064833 1.153513 0
M  V30 9 F 2.615330 2.196403 0.369503 0
M  V30 10 C 2.516212 4.241893 1.543344 0
M  V30 11 O 3.804057 4.494525 1.131110 0
M  V30 12 C 4.485312 5.683882 1.496824 0
M  V30 13 C 1.763786 5.085728 2.332502 0
M  V30 14 C 0.468904 4.798278 2.728531 0
M  V30 15 O -0.280688 5.654623 3.522996 0
M  V30 16 C 0.282566 6.877788 3.958447 0
M  V30 17 C -0.133145 3.620947 2.335544 0
M  V30 18 F -1.381635 3.306258 2.696756 0
M  V30 19 C -0.735560 1.558448 -0.089453 0
M  V30 20 C -1.314459 0.255618 -0.469689 0
M  V30 21 C -1.991826 0.270792 -1.661274 0
M  V30 22 N -2.565188 -0.887049 -2.101757 0
M  V30 23 C -2.449415 -2.021928 -1.349631 0
M  V30 24 N -2.933680 -3.246188 -1.622291 0
M  V30 25 C -2.539692 -4.031131 -0.569125 0
M  V30 26 C -2.939679 -5.486924 -0.587460 0
M  V30 27 N -1.971253 -6.306913 -1.246605 0
M  V30 28 C -1.787789 -5.893273 -2.644338 0
M  V30 29 C -0.785469 -6.829691 -3.281587 0
M  V30 30 O 0.439515 -6.647288 -2.634370 0
M  V30 31 C 0.340669 -7.057201 -1.301346 0
M  V30 32 C -0.651794 -6.127872 -0.635998 0
M  V30 33 C -1.824645 -3.237624 0.307365 0
M  V30 34 C -1.763988 -1.964559 -0.179332 0
M  V30 35 C -1.159496 -0.846950 0.336744 0
M  V30 36 H 1.874108 -2.400176 2.397893 0
M  V30 37 H 0.806623 -3.909680 2.466759 0
M  V30 38 H 0.976248 -2.926180 0.981171 0
M  V30 39 H -1.154390 -2.563387 2.816726 0
M  V30 40 H 0.056992 -1.538426 3.395872 0
M  V30 41 H 4.135708 6.555224 0.919438 0
M  V30 42 H 4.273540 5.923859 2.575479 0
M  V30 43 H 5.578388 5.569289 1.377134 0
M  V30 44 H 2.233537 6.006102 2.640136 0
M  V30 45 H 1.036730 6.625665 4.736030 0
M  V30 46 H 0.760123 7.352321 3.062971 0
M  V30 47 H -0.470158 7.593024 4.308068 0
M  V30 48 H -1.555336 2.308251 -0.111912 0
M  V30 49 H -0.010905 1.812801 -0.918365 0
M  V30 50 H -2.104566 1.146642 -2.283598 0
M  V30 51 H -3.494407 -3.500538 -2.481044 0
M  V30 52 H -3.925273 -5.593171 -1.030655 0
M  V30 53 H -3.007135 -5.844209 0.461539 0
M  V30 54 H -1.284393 -4.904315 -2.592829 0
M  V30 55 H -2.750902 -5.886470 -3.174852 0
M  V30 56 H -1.071842 -7.880295 -3.273085 0
M  V30 57 H -0.609452 -6.464370 -4.328996 0
M  V30 58 H 1.335791 -6.860607 -0.851608 0
M  V30 59 H 0.072732 -8.120637 -1.206364 0
M  V30 60 H -0.339756 -5.098147 -0.944121 0
M  V30 61 H -0.692793 -6.269405 0.455858 0
M  V30 62 H -1.492966 -3.787853 1.126872 0
M  V30 END ATOM
M  V30 BEGIN BOND
M  V30 1 1 1 2
M  V30 2 1 2 3
M  V30 3 1 3 4
M  V30 4 2 4 5
M  V30 5 1 4 6
M  V30 6 1 6 7
M  V30 7 2 7 8
M  V30 8 1 8 9
M  V30 9 1 8 10
M  V30 10 1 10 11
M  V30 11 1 11 12
M  V30 12 2 10 13
M  V30 13 1 13 14
M  V30 14 1 14 15
M  V30 15 1 15 16
M  V30 16 2 14 17
M  V30 17 1 17 18
M  V30 18 1 6 19
M  V30 19 1 19 20
M  V30 20 2 20 21
M  V30 21 1 21 22
M  V30 22 2 22 23
M  V30 23 1 23 24
M  V30 24 1 24 25
M  V30 25 1 25 26
M  V30 26 1 26 27
M  V30 27 1 27 28
M  V30 28 1 28 29
M  V30 29 1 29 30
M  V30 30 1 30 31
M  V30 31 1 31 32
M  V30 32 2 25 33
M  V30 33 1 33 34
M  V30 34 2 34 35
M  V30 35 1 35 3
M  V30 36 1 17 7
M  V30 37 1 35 20
M  V30 38 1 34 23
M  V30 39 1 32 27
M  V30 40 1 1 36
M  V30 41 1 1 37
M  V30 42 1 1 38
M  V30 43 1 2 39
M  V30 44 1 2 40
M  V30 45 1 12 41
M  V30 46 1 12 42
M  V30 47 1 12 43
M  V30 48 1 13 44
M  V30 49 1 16 45
M  V30 50 1 16 46
M  V30 51 1 16 47
M  V30 52 1 19 48
M  V30 53 1 19 49
M  V30 54 1 21 50
M  V30 55 1 24 51
M  V30 56 1 26 52
M  V30 57 1 26 53
M  V30 58 1 28 54
M  V30 59 1 28 55
M  V30 60 1 29 56
M  V30 61 1 29 57
M  V30 62 1 31 58
M  V30 63 1 31 59
M  V30 64 1 32 60
M  V30 65 1 32 61
M  V30 66 1 33 62
M  V30 END BOND
M  V30 END CTAB
M  END
>  <Dataset>  (39) 
PKIs

>  <Ligand_Instance>  (39) 
nan

>  <PDB_ID>  (39) 
nan

>  <Standardized_SMILES>  (39) 
CCN1C(=O)N(c2c(F)c(OC)cc(OC)c2F)Cc2cnc3[nH]c(CN4CCOCC4)cc3c21

>  <Name>  (39) 
Pemigatinib

>  <Pocket>  (39) 
nan

>  <ATP_Site>  (39) 
nan

>  <Peripheral>  (39) 
nan

>  <Num_H_Atoms_ProtBoundConf>  (39) 
nan

>  <Num_Resolved_Atoms>  (39) 
nan

>  <Num_Not_Resolved_Atoms>  (39) 
nan

>  <2D_Mol_H>  (39) 
<rdkit.Chem.rdchem.Mol object at 0x72a2391135a0>

>  <MW>  (39) 
487.507

>  <HBA>  (39) 
6

>  <HBD>  (39) 
1

>  <LogP>  (39) 
3.657

>  <NRB>  (39) 
9

>  <TPSA>  (39) 
83.16

>  <Num_Heavy_Atoms>  (39) 
35

>  <Ro5>  (39) 
[True, True, True, True, True, True]

>  <Ro5_Fulfilled>  (39) 
True

>  <Ro3>  (39) 
[False, False, True, False]

>  <Ro3_Fulfilled>  (39) 
False

>  <Fsp3>  (39) 
0.416667

>  <Fsp3_0.42>  (39) 
False

>  <Fsp3_0.45>  (39) 
False

>  <Stereogenic_Carbons>  (39) 
0

>  <C_Atoms>  (39) 
24

>  <FCStereo>  (39) 
0.0

>  <SPS>  (39) 
583

>  <nSPS>  (39) 
16.657143

>  <PBF>  (39) 
1.220839

>  <PBF_0.6>  (39) 
True

>  <nPBF>  (39) 
0.034881

>  <nPBF_0.016>  (39) 
True

>  <PMI1>  (39) 
1805.986534

>  <PMI2>  (39) 
10856.468879

>  <PMI3>  (39) 
11289.381774

>  <NPR1>  (39) 
0.159972

>  <NPR2>  (39) 
0.961653

>  <Sum_NPR>  (39) 
1.121625

>  <Sum_NPR_1.07>  (39) 
True

>  <Sum_NPR_1.2>  (39) 
False

>  <MaxAbsEStateIndex>  (39) 
15.226729

>  <MaxEStateIndex>  (39) 
15.226729

>  <MinAbsEStateIndex>  (39) 
0.053824

>  <MinEStateIndex>  (39) 
-0.970248

>  <qed>  (39) 
0.571636

>  <MolWt>  (39) 
487.507

>  <HeavyAtomMolWt>  (39) 
460.291

>  <ExactMolWt>  (39) 
487.203111

>  <NumValenceElectrons>  (39) 
186

>  <NumRadicalElectrons>  (39) 
0

>  <MaxPartialCharge>  (39) 
0.328979

>  <MinPartialCharge>  (39) 
-0.493452

>  <MaxAbsPartialCharge>  (39) 
0.493452

>  <MinAbsPartialCharge>  (39) 
0.328979

>  <FpDensityMorgan1>  (39) 
1.085714

>  <FpDensityMorgan2>  (39) 
1.771429

>  <FpDensityMorgan3>  (39) 
2.4

>  <BCUT2D_MWHI>  (39) 
19.145717

>  <BCUT2D_MWLOW>  (39) 
10.069571

>  <BCUT2D_CHGHI>  (39) 
2.368768

>  <BCUT2D_CHGLO>  (39) 
-2.367464

>  <BCUT2D_LOGPHI>  (39) 
2.419917

>  <BCUT2D_LOGPLOW>  (39) 
-2.477258

>  <BCUT2D_MRHI>  (39) 
6.111065

>  <BCUT2D_MRLOW>  (39) 
0.033724

>  <AvgIpc>  (39) 
3.276956

>  <BalabanJ>  (39) 
1.568852

>  <BertzCT>  (39) 
1246.518344

>  <Chi0>  (39) 
24.689505

>  <Chi0n>  (39) 
19.859575

>  <Chi0v>  (39) 
19.859575

>  <Chi1>  (39) 
16.960259

>  <Chi1n>  (39) 
11.449145

>  <Chi1v>  (39) 
11.449145

>  <Chi2n>  (39) 
8.448059

>  <Chi2v>  (39) 
8.448059

>  <Chi3n>  (39) 
6.455887

>  <Chi3v>  (39) 
6.455887

>  <Chi4n>  (39) 
4.733795

>  <Chi4v>  (39) 
4.733795

>  <HallKierAlpha>  (39) 
-3.44

>  <Ipc>  (39) 
117433314.059718

>  <Kappa1>  (39) 
23.308815

>  <Kappa2>  (39) 
9.308529

>  <Kappa3>  (39) 
3.938041

>  <LabuteASA>  (39) 
200.714401

>  <PEOE_VSA1>  (39) 
19.194567

>  <PEOE_VSA10>  (39) 
11.334563

>  <PEOE_VSA11>  (39) 
23.133465

>  <PEOE_VSA12>  (39) 
0.0

>  <PEOE_VSA13>  (39) 
0.0

>  <PEOE_VSA14>  (39) 
6.031115

>  <PEOE_VSA2>  (39) 
14.699729

>  <PEOE_VSA3>  (39) 
18.559346

>  <PEOE_VSA4>  (39) 
0.0

>  <PEOE_VSA5>  (39) 
0.0

>  <PEOE_VSA6>  (39) 
0.0

>  <PEOE_VSA7>  (39) 
12.990104

>  <PEOE_VSA8>  (39) 
55.08584

>  <PEOE_VSA9>  (39) 
39.665502

>  <SMR_VSA1>  (39) 
27.785956

>  <SMR_VSA10>  (39) 
28.439288

>  <SMR_VSA2>  (39) 
0.0

>  <SMR_VSA3>  (39) 
14.867867

>  <SMR_VSA4>  (39) 
0.0

>  <SMR_VSA5>  (39) 
20.01325

>  <SMR_VSA6>  (39) 
56.867448

>  <SMR_VSA7>  (39) 
41.221399

>  <SMR_VSA8>  (39) 
0.0

>  <SMR_VSA9>  (39) 
11.499024

>  <SlogP_VSA1>  (39) 
19.273545

>  <SlogP_VSA10>  (39) 
24.95014

>  <SlogP_VSA11>  (39) 
11.499024

>  <SlogP_VSA12>  (39) 
0.0

>  <SlogP_VSA2>  (39) 
67.96661

>  <SlogP_VSA3>  (39) 
17.826376

>  <SlogP_VSA4>  (39) 
11.634442

>  <SlogP_VSA5>  (39) 
18.181117

>  <SlogP_VSA6>  (39) 
18.329578

>  <SlogP_VSA7>  (39) 
0.0

>  <SlogP_VSA8>  (39) 
11.033401

>  <SlogP_VSA9>  (39) 
0.0

>  <EState_VSA1>  (39) 
23.352942

>  <EState_VSA10>  (39) 
4.794537

>  <EState_VSA11>  (39) 
8.78083

>  <EState_VSA2>  (39) 
18.04378

>  <EState_VSA3>  (39) 
43.201292

>  <EState_VSA4>  (39) 
35.135942

>  <EState_VSA5>  (39) 
19.119505

>  <EState_VSA6>  (39) 
6.196844

>  <EState_VSA7>  (39) 
12.990104

>  <EState_VSA8>  (39) 
14.867867

>  <EState_VSA9>  (39) 
14.210589

>  <VSA_EState1>  (39) 
45.980977

>  <VSA_EState10>  (39) 
0.0

>  <VSA_EState2>  (39) 
26.326972

>  <VSA_EState3>  (39) 
0.796089

>  <VSA_EState4>  (39) 
2.489175

>  <VSA_EState5>  (39) 
-2.372234

>  <VSA_EState6>  (39) 
2.573168

>  <VSA_EState7>  (39) 
1.640868

>  <VSA_EState8>  (39) 
5.858101

>  <VSA_EState9>  (39) 
2.540217

>  <FractionCSP3>  (39) 
0.416667

>  <HeavyAtomCount>  (39) 
35

>  <NHOHCount>  (39) 
1

>  <NOCount>  (39) 
9

>  <NumAliphaticCarbocycles>  (39) 
0

>  <NumAliphaticHeterocycles>  (39) 
2

>  <NumAliphaticRings>  (39) 
2

>  <NumAromaticCarbocycles>  (39) 
1

>  <NumAromaticHeterocycles>  (39) 
2

>  <NumAromaticRings>  (39) 
3

>  <NumHAcceptors>  (39) 
6

>  <NumHDonors>  (39) 
1

>  <NumHeteroatoms>  (39) 
11

>  <NumRotatableBonds>  (39) 
6

>  <NumSaturatedCarbocycles>  (39) 
0

>  <NumSaturatedHeterocycles>  (39) 
1

>  <NumSaturatedRings>  (39) 
1

>  <RingCount>  (39) 
5

>  <MolLogP>  (39) 
3.657

>  <MolMR>  (39) 
126.2507

>  <fr_Al_COO>  (39) 
0

>  <fr_Al_OH>  (39) 
0

>  <fr_Al_OH_noTert>  (39) 
0

>  <fr_ArN>  (39) 
0

>  <fr_Ar_COO>  (39) 
0

>  <fr_Ar_N>  (39) 
2

>  <fr_Ar_NH>  (39) 
1

>  <fr_Ar_OH>  (39) 
0

>  <fr_COO>  (39) 
0

>  <fr_COO2>  (39) 
0

>  <fr_C_O>  (39) 
1

>  <fr_C_O_noCOO>  (39) 
1

>  <fr_C_S>  (39) 
0

>  <fr_HOCCN>  (39) 
0

>  <fr_Imine>  (39) 
0

>  <fr_NH0>  (39) 
4

>  <fr_NH1>  (39) 
1

>  <fr_NH2>  (39) 
0

>  <fr_N_O>  (39) 
0

>  <fr_Ndealkylation1>  (39) 
0

>  <fr_Ndealkylation2>  (39) 
0

>  <fr_Nhpyrrole>  (39) 
1

>  <fr_SH>  (39) 
0

>  <fr_aldehyde>  (39) 
0

>  <fr_alkyl_carbamate>  (39) 
0

>  <fr_alkyl_halide>  (39) 
0

>  <fr_allylic_oxid>  (39) 
0

>  <fr_amide>  (39) 
2

>  <fr_amidine>  (39) 
0

>  <fr_aniline>  (39) 
2

>  <fr_aryl_methyl>  (39) 
0

>  <fr_azide>  (39) 
0

>  <fr_azo>  (39) 
0

>  <fr_barbitur>  (39) 
0

>  <fr_benzene>  (39) 
1

>  <fr_benzodiazepine>  (39) 
0

>  <fr_bicyclic>  (39) 
3

>  <fr_diazo>  (39) 
0

>  <fr_dihydropyridine>  (39) 
0

>  <fr_epoxide>  (39) 
0

>  <fr_ester>  (39) 
0

>  <fr_ether>  (39) 
3

>  <fr_furan>  (39) 
0

>  <fr_guanido>  (39) 
0

>  <fr_halogen>  (39) 
2

>  <fr_hdrzine>  (39) 
0

>  <fr_hdrzone>  (39) 
0

>  <fr_imidazole>  (39) 
0

>  <fr_imide>  (39) 
0

>  <fr_isocyan>  (39) 
0

>  <fr_isothiocyan>  (39) 
0

>  <fr_ketone>  (39) 
0

>  <fr_ketone_Topliss>  (39) 
0

>  <fr_lactam>  (39) 
0

>  <fr_lactone>  (39) 
0

>  <fr_methoxy>  (39) 
2

>  <fr_morpholine>  (39) 
1

>  <fr_nitrile>  (39) 
0

>  <fr_nitro>  (39) 
0

>  <fr_nitro_arom>  (39) 
0

>  <fr_nitro_arom_nonortho>  (39) 
0

>  <fr_nitroso>  (39) 
0

>  <fr_oxazole>  (39) 
0

>  <fr_oxime>  (39) 
0

>  <fr_para_hydroxylation>  (39) 
0

>  <fr_phenol>  (39) 
0

>  <fr_phenol_noOrthoHbond>  (39) 
0

>  <fr_phos_acid>  (39) 
0

>  <fr_phos_ester>  (39) 
0

>  <fr_piperdine>  (39) 
0

>  <fr_piperzine>  (39) 
0

>  <fr_priamide>  (39) 
0

>  <fr_prisulfonamd>  (39) 
0

>  <fr_pyridine>  (39) 
1

>  <fr_quatN>  (39) 
0

>  <fr_sulfide>  (39) 
0

>  <fr_sulfonamd>  (39) 
0

>  <fr_sulfone>  (39) 
0

>  <fr_term_acetylene>  (39) 
0

>  <fr_tetrazole>  (39) 
0

>  <fr_thiazole>  (39) 
0

>  <fr_thiocyan>  (39) 
0

>  <fr_thiophene>  (39) 
0

>  <fr_unbrch_alkane>  (39) 
0

>  <fr_urea>  (39) 
1

>  <NP_Likeness>  (39) 
-0.900235

$$$$
nan
     RDKit          3D

  0  0  0  0  0  0  0  0  0  0999 V3000
M  V30 BEGIN CTAB
M  V30 COUNTS 64 69 0 0 0
M  V30 BEGIN ATOM
M  V30 1 C 5.277216 -1.664832 5.184365 0
M  V30 2 N 5.087560 -1.261915 3.788635 0
M  V30 3 C 4.307517 -0.235722 3.396475 0
M  V30 4 C 4.365667 -0.147198 2.019216 0
M  V30 5 C 3.710334 0.783267 1.101735 0
M  V30 6 C 2.480042 1.398175 1.225229 0
M  V30 7 C 2.216806 2.208158 0.143162 0
M  V30 8 C 1.114434 2.985400 -0.135161 0
M  V30 9 N -0.019905 3.157675 0.707173 0
M  V30 10 C -1.219495 3.699702 0.083509 0
M  V30 11 C -2.377020 2.751496 0.292670 0
M  V30 12 N -1.867841 1.574028 0.965518 0
M  V30 13 C -1.902816 0.259731 0.425223 0
M  V30 14 N -2.428867 0.034670 -0.792003 0
M  V30 15 C -2.455875 -1.231427 -1.304418 0
M  V30 16 C -1.937342 -2.261802 -0.553887 0
M  V30 17 C -1.946029 -3.648446 -1.073127 0 CFG=1
M  V30 18 C -1.175833 -3.740014 -2.377190 0
M  V30 19 N -1.315521 -4.573441 -0.161881 0
M  V30 20 C -3.352634 -4.098724 -1.226782 0
M  V30 21 C -4.095380 -4.189889 -0.072748 0
M  V30 22 C -5.405531 -4.601875 -0.147661 0
M  V30 23 C -5.903780 -4.905006 -1.408361 0
M  V30 24 F -7.200583 -5.312012 -1.484028 0
M  V30 25 C -5.130192 -4.802443 -2.547169 0
M  V30 26 C -3.817476 -4.391757 -2.488399 0
M  V30 27 C -1.402686 -2.031568 0.684029 0
M  V30 28 N -1.409986 -0.763345 1.123387 0
M  V30 29 C -1.275154 1.783961 2.298210 0
M  V30 30 C -0.336971 2.949769 2.103807 0
M  V30 31 N 1.160452 3.649124 -1.286874 0
M  V30 32 C 2.213663 3.549850 -2.093353 0
M  V30 33 N 3.266705 2.777716 -1.776059 0
M  V30 34 N 3.294532 2.086607 -0.648677 0
M  V30 35 C 4.199818 1.248296 -0.108309 0
M  V30 36 C 5.223674 -1.178478 1.619838 0
M  V30 37 N 5.644857 -1.836315 2.715084 0
M  V30 38 H 4.519575 -2.454161 5.465049 0
M  V30 39 H 6.260873 -2.139672 5.305064 0
M  V30 40 H 5.083054 -0.807282 5.842844 0
M  V30 41 H 3.704844 0.451137 3.994283 0
M  V30 42 H 1.879585 1.195249 2.090945 0
M  V30 43 H -1.106078 3.831104 -1.009327 0
M  V30 44 H -1.472804 4.696807 0.492612 0
M  V30 45 H -3.097853 3.226177 1.011474 0
M  V30 46 H -2.882744 2.466262 -0.650382 0
M  V30 47 H -2.876587 -1.438203 -2.287353 0
M  V30 48 H -1.379252 -2.911854 -3.059990 0
M  V30 49 H -0.085571 -3.713821 -2.092139 0
M  V30 50 H -1.324365 -4.736620 -2.814681 0
M  V30 51 H -1.685739 -5.532072 -0.181637 0
M  V30 52 H -0.293363 -4.491427 -0.085622 0
M  V30 53 H -3.682148 -3.948497 0.891177 0
M  V30 54 H -5.981076 -4.672462 0.749018 0
M  V30 55 H -5.538660 -5.043951 -3.522540 0
M  V30 56 H -3.244745 -4.323097 -3.390830 0
M  V30 57 H -0.976420 -2.779291 1.336015 0
M  V30 58 H -0.650201 0.915616 2.589901 0
M  V30 59 H -2.008365 2.048289 3.059684 0
M  V30 60 H -0.900467 3.865502 2.470510 0
M  V30 61 H 0.547260 2.936889 2.774451 0
M  V30 62 H 2.188906 4.118916 -3.020887 0
M  V30 63 H 5.153566 1.001636 -0.580709 0
M  V30 64 H 5.472881 -1.367974 0.565604 0
M  V30 END ATOM
M  V30 BEGIN BOND
M  V30 1 1 1 2
M  V30 2 1 2 3
M  V30 3 2 3 4
M  V30 4 1 4 5
M  V30 5 1 5 6
M  V30 6 2 6 7
M  V30 7 1 7 8
M  V30 8 1 8 9
M  V30 9 1 9 10
M  V30 10 1 10 11
M  V30 11 1 11 12
M  V30 12 1 12 13
M  V30 13 2 13 14
M  V30 14 1 14 15
M  V30 15 2 15 16
M  V30 16 1 16 17
M  V30 17 1 17 18
M  V30 18 1 17 19 CFG=1
M  V30 19 1 17 20
M  V30 20 2 20 21
M  V30 21 1 21 22
M  V30 22 2 22 23
M  V30 23 1 23 24
M  V30 24 1 23 25
M  V30 25 2 25 26
M  V30 26 1 16 27
M  V30 27 2 27 28
M  V30 28 1 12 29
M  V30 29 1 29 30
M  V30 30 2 8 31
M  V30 31 1 31 32
M  V30 32 2 32 33
M  V30 33 1 33 34
M  V30 34 1 34 35
M  V30 35 1 4 36
M  V30 36 2 36 37
M  V30 37 1 37 2
M  V30 38 2 35 5
M  V30 39 1 34 7
M  V30 40 1 30 9
M  V30 41 1 28 13
M  V30 42 1 26 20
M  V30 43 1 1 38
M  V30 44 1 1 39
M  V30 45 1 1 40
M  V30 46 1 3 41
M  V30 47 1 6 42
M  V30 48 1 10 43
M  V30 49 1 10 44
M  V30 50 1 11 45
M  V30 51 1 11 46
M  V30 52 1 15 47
M  V30 53 1 18 48
M  V30 54 1 18 49
M  V30 55 1 18 50
M  V30 56 1 19 51
M  V30 57 1 19 52
M  V30 58 1 21 53
M  V30 59 1 22 54
M  V30 60 1 25 55
M  V30 61 1 26 56
M  V30 62 1 27 57
M  V30 63 1 29 58
M  V30 64 1 29 59
M  V30 65 1 30 60
M  V30 66 1 30 61
M  V30 67 1 32 62
M  V30 68 1 35 63
M  V30 69 1 36 64
M  V30 END BOND
M  V30 END CTAB
M  END
>  <Dataset>  (40) 
PKIs

>  <Ligand_Instance>  (40) 
nan

>  <PDB_ID>  (40) 
nan

>  <Standardized_SMILES>  (40) 
Cn1cc(-c2cc3c(N4CCN(c5ncc([C@@](C)(N)c6ccc(F)cc6)cn5)CC4)ncnn3c2)cn1

>  <Name>  (40) 
Avapritinib

>  <Pocket>  (40) 
nan

>  <ATP_Site>  (40) 
nan

>  <Peripheral>  (40) 
nan

>  <Num_H_Atoms_ProtBoundConf>  (40) 
nan

>  <Num_Resolved_Atoms>  (40) 
nan

>  <Num_Not_Resolved_Atoms>  (40) 
nan

>  <2D_Mol_H>  (40) 
<rdkit.Chem.rdchem.Mol object at 0x72a239113680>

>  <MW>  (40) 
498.57

>  <HBA>  (40) 
10

>  <HBD>  (40) 
1

>  <LogP>  (40) 
2.6077

>  <NRB>  (40) 
8

>  <TPSA>  (40) 
106.29

>  <Num_Heavy_Atoms>  (40) 
37

>  <Ro5>  (40) 
[True, True, True, True, True, True]

>  <Ro5_Fulfilled>  (40) 
True

>  <Ro3>  (40) 
[False, False, True, True]

>  <Ro3_Fulfilled>  (40) 
False

>  <Fsp3>  (40) 
0.269231

>  <Fsp3_0.42>  (40) 
False

>  <Fsp3_0.45>  (40) 
False

>  <Stereogenic_Carbons>  (40) 
1

>  <C_Atoms>  (40) 
26

>  <FCStereo>  (40) 
0.038462

>  <SPS>  (40) 
584

>  <nSPS>  (40) 
15.783784

>  <PBF>  (40) 
1.460626

>  <PBF_0.6>  (40) 
True

>  <nPBF>  (40) 
0.039476

>  <nPBF_0.016>  (40) 
True

>  <PMI1>  (40) 
3711.545658

>  <PMI2>  (40) 
9499.979021

>  <PMI3>  (40) 
11286.987785

>  <NPR1>  (40) 
0.328834

>  <NPR2>  (40) 
0.841675

>  <Sum_NPR>  (40) 
1.170509

>  <Sum_NPR_1.07>  (40) 
True

>  <Sum_NPR_1.2>  (40) 
False

>  <MaxAbsEStateIndex>  (40) 
13.335608

>  <MaxEStateIndex>  (40) 
13.335608

>  <MinAbsEStateIndex>  (40) 
0.292691

>  <MinEStateIndex>  (40) 
-0.824219

>  <qed>  (40) 
0.394245

>  <MolWt>  (40) 
498.57

>  <HeavyAtomMolWt>  (40) 
471.354

>  <ExactMolWt>  (40) 
498.240419

>  <NumValenceElectrons>  (40) 
188

>  <NumRadicalElectrons>  (40) 
0

>  <MaxPartialCharge>  (40) 
0.224882

>  <MinPartialCharge>  (40) 
-0.351221

>  <MaxAbsPartialCharge>  (40) 
0.351221

>  <MinAbsPartialCharge>  (40) 
0.224882

>  <FpDensityMorgan1>  (40) 
0.837838

>  <FpDensityMorgan2>  (40) 
1.540541

>  <FpDensityMorgan3>  (40) 
2.216216

>  <BCUT2D_MWHI>  (40) 
19.142148

>  <BCUT2D_MWLOW>  (40) 
9.873438

>  <BCUT2D_CHGHI>  (40) 
2.263889

>  <BCUT2D_CHGLO>  (40) 
-2.352994

>  <BCUT2D_LOGPHI>  (40) 
2.28513

>  <BCUT2D_LOGPLOW>  (40) 
-2.472598

>  <BCUT2D_MRHI>  (40) 
5.769446

>  <BCUT2D_MRLOW>  (40) 
0.585162

>  <AvgIpc>  (40) 
3.55154

>  <BalabanJ>  (40) 
1.165174

>  <BertzCT>  (40) 
1530.198755

>  <Chi0>  (40) 
25.570339

>  <Chi0n>  (40) 
20.659517

>  <Chi0v>  (40) 
20.659517

>  <Chi1>  (40) 
17.88018

>  <Chi1n>  (40) 
12.080908

>  <Chi1v>  (40) 
12.080908

>  <Chi2n>  (40) 
9.499994

>  <Chi2v>  (40) 
9.499994

>  <Chi3n>  (40) 
6.96762

>  <Chi3v>  (40) 
6.96762

>  <Chi4n>  (40) 
4.722349

>  <Chi4v>  (40) 
4.722349

>  <HallKierAlpha>  (40) 
-4.38

>  <Ipc>  (40) 
462978246.11267

>  <Kappa1>  (40) 
23.044649

>  <Kappa2>  (40) 
8.929471

>  <Kappa3>  (40) 
4.268216

>  <LabuteASA>  (40) 
212.748982

>  <PEOE_VSA1>  (40) 
15.533487

>  <PEOE_VSA10>  (40) 
17.661242

>  <PEOE_VSA11>  (40) 
5.817863

>  <PEOE_VSA12>  (40) 
5.948339

>  <PEOE_VSA13>  (40) 
0.0

>  <PEOE_VSA14>  (40) 
0.0

>  <PEOE_VSA2>  (40) 
4.681803

>  <PEOE_VSA3>  (40) 
23.857749

>  <PEOE_VSA4>  (40) 
10.197364

>  <PEOE_VSA5>  (40) 
0.0

>  <PEOE_VSA6>  (40) 
12.132734

>  <PEOE_VSA7>  (40) 
30.68629

>  <PEOE_VSA8>  (40) 
74.704426

>  <PEOE_VSA9>  (40) 
11.735769

>  <SMR_VSA1>  (40) 
4.390415

>  <SMR_VSA10>  (40) 
17.282903

>  <SMR_VSA2>  (40) 
0.0

>  <SMR_VSA3>  (40) 
34.3465

>  <SMR_VSA4>  (40) 
12.781339

>  <SMR_VSA5>  (40) 
12.462662

>  <SMR_VSA6>  (40) 
35.978845

>  <SMR_VSA7>  (40) 
84.587497

>  <SMR_VSA8>  (40) 
0.0

>  <SMR_VSA9>  (40) 
11.126903

>  <SlogP_VSA1>  (40) 
15.533487

>  <SlogP_VSA10>  (40) 
16.156617

>  <SlogP_VSA11>  (40) 
0.0

>  <SlogP_VSA12>  (40) 
0.0

>  <SlogP_VSA2>  (40) 
60.525526

>  <SlogP_VSA3>  (40) 
12.586597

>  <SlogP_VSA4>  (40) 
5.817221

>  <SlogP_VSA5>  (40) 
18.05064

>  <SlogP_VSA6>  (40) 
67.643373

>  <SlogP_VSA7>  (40) 
0.0

>  <SlogP_VSA8>  (40) 
16.643604

>  <SlogP_VSA9>  (40) 
0.0

>  <EState_VSA1>  (40) 
5.538925

>  <EState_VSA10>  (40) 
4.390415

>  <EState_VSA11>  (40) 
0.0

>  <EState_VSA2>  (40) 
5.817221

>  <EState_VSA3>  (40) 
5.948339

>  <EState_VSA4>  (40) 
59.767395

>  <EState_VSA5>  (40) 
12.132734

>  <EState_VSA6>  (40) 
35.535544

>  <EState_VSA7>  (40) 
37.077338

>  <EState_VSA8>  (40) 
41.015486

>  <EState_VSA9>  (40) 
5.733667

>  <VSA_EState1>  (40) 
16.987105

>  <VSA_EState10>  (40) 
0.0

>  <VSA_EState2>  (40) 
18.225861

>  <VSA_EState3>  (40) 
8.671649

>  <VSA_EState4>  (40) 
10.351438

>  <VSA_EState5>  (40) 
1.269293

>  <VSA_EState6>  (40) 
8.30802

>  <VSA_EState7>  (40) 
10.936197

>  <VSA_EState8>  (40) 
4.92953

>  <VSA_EState9>  (40) 
1.904241

>  <FractionCSP3>  (40) 
0.269231

>  <HeavyAtomCount>  (40) 
37

>  <NHOHCount>  (40) 
2

>  <NOCount>  (40) 
10

>  <NumAliphaticCarbocycles>  (40) 
0

>  <NumAliphaticHeterocycles>  (40) 
1

>  <NumAliphaticRings>  (40) 
1

>  <NumAromaticCarbocycles>  (40) 
1

>  <NumAromaticHeterocycles>  (40) 
4

>  <NumAromaticRings>  (40) 
5

>  <NumHAcceptors>  (40) 
10

>  <NumHDonors>  (40) 
1

>  <NumHeteroatoms>  (40) 
11

>  <NumRotatableBonds>  (40) 
5

>  <NumSaturatedCarbocycles>  (40) 
0

>  <NumSaturatedHeterocycles>  (40) 
1

>  <NumSaturatedRings>  (40) 
1

>  <RingCount>  (40) 
6

>  <MolLogP>  (40) 
2.6077

>  <MolMR>  (40) 
138.6884

>  <fr_Al_COO>  (40) 
0

>  <fr_Al_OH>  (40) 
0

>  <fr_Al_OH_noTert>  (40) 
0

>  <fr_ArN>  (40) 
0

>  <fr_Ar_COO>  (40) 
0

>  <fr_Ar_N>  (40) 
7

>  <fr_Ar_NH>  (40) 
0

>  <fr_Ar_OH>  (40) 
0

>  <fr_COO>  (40) 
0

>  <fr_COO2>  (40) 
0

>  <fr_C_O>  (40) 
0

>  <fr_C_O_noCOO>  (40) 
0

>  <fr_C_S>  (40) 
0

>  <fr_HOCCN>  (40) 
0

>  <fr_Imine>  (40) 
0

>  <fr_NH0>  (40) 
9

>  <fr_NH1>  (40) 
0

>  <fr_NH2>  (40) 
1

>  <fr_N_O>  (40) 
0

>  <fr_Ndealkylation1>  (40) 
0

>  <fr_Ndealkylation2>  (40) 
0

>  <fr_Nhpyrrole>  (40) 
0

>  <fr_SH>  (40) 
0

>  <fr_aldehyde>  (40) 
0

>  <fr_alkyl_carbamate>  (40) 
0

>  <fr_alkyl_halide>  (40) 
0

>  <fr_allylic_oxid>  (40) 
0

>  <fr_amide>  (40) 
0

>  <fr_amidine>  (40) 
0

>  <fr_aniline>  (40) 
2

>  <fr_aryl_methyl>  (40) 
1

>  <fr_azide>  (40) 
0

>  <fr_azo>  (40) 
0

>  <fr_barbitur>  (40) 
0

>  <fr_benzene>  (40) 
1

>  <fr_benzodiazepine>  (40) 
0

>  <fr_bicyclic>  (40) 
1

>  <fr_diazo>  (40) 
0

>  <fr_dihydropyridine>  (40) 
0

>  <fr_epoxide>  (40) 
0

>  <fr_ester>  (40) 
0

>  <fr_ether>  (40) 
0

>  <fr_furan>  (40) 
0

>  <fr_guanido>  (40) 
0

>  <fr_halogen>  (40) 
1

>  <fr_hdrzine>  (40) 
0

>  <fr_hdrzone>  (40) 
0

>  <fr_imidazole>  (40) 
0

>  <fr_imide>  (40) 
0

>  <fr_isocyan>  (40) 
0

>  <fr_isothiocyan>  (40) 
0

>  <fr_ketone>  (40) 
0

>  <fr_ketone_Topliss>  (40) 
0

>  <fr_lactam>  (40) 
0

>  <fr_lactone>  (40) 
0

>  <fr_methoxy>  (40) 
0

>  <fr_morpholine>  (40) 
0

>  <fr_nitrile>  (40) 
0

>  <fr_nitro>  (40) 
0

>  <fr_nitro_arom>  (40) 
0

>  <fr_nitro_arom_nonortho>  (40) 
0

>  <fr_nitroso>  (40) 
0

>  <fr_oxazole>  (40) 
0

>  <fr_oxime>  (40) 
0

>  <fr_para_hydroxylation>  (40) 
0

>  <fr_phenol>  (40) 
0

>  <fr_phenol_noOrthoHbond>  (40) 
0

>  <fr_phos_acid>  (40) 
0

>  <fr_phos_ester>  (40) 
0

>  <fr_piperdine>  (40) 
0

>  <fr_piperzine>  (40) 
1

>  <fr_priamide>  (40) 
0

>  <fr_prisulfonamd>  (40) 
0

>  <fr_pyridine>  (40) 
0

>  <fr_quatN>  (40) 
0

>  <fr_sulfide>  (40) 
0

>  <fr_sulfonamd>  (40) 
0

>  <fr_sulfone>  (40) 
0

>  <fr_term_acetylene>  (40) 
0

>  <fr_tetrazole>  (40) 
0

>  <fr_thiazole>  (40) 
0

>  <fr_thiocyan>  (40) 
0

>  <fr_thiophene>  (40) 
0

>  <fr_unbrch_alkane>  (40) 
0

>  <fr_urea>  (40) 
0

>  <NP_Likeness>  (40) 
-1.684232

$$$$
nan
     RDKit          3D

  0  0  0  0  0  0  0  0  0  0999 V3000
M  V30 BEGIN CTAB
M  V30 COUNTS 48 52 0 0 0
M  V30 BEGIN ATOM
M  V30 1 C -1.698876 -3.921158 -5.849706 0
M  V30 2 N -0.955617 -2.770754 -5.391768 0
M  V30 3 C -0.726580 -2.797625 -3.992656 0
M  V30 4 O -1.255525 -3.856554 -3.526092 0
M  V30 5 C -0.020290 -1.817341 -3.185096 0
M  V30 6 C 0.033248 -2.137603 -1.822886 0
M  V30 7 C 0.670805 -1.303257 -0.927293 0
M  V30 8 C 1.281653 -0.128616 -1.306495 0
M  V30 9 C 1.936181 0.702056 -0.301730 0
M  V30 10 C 2.567043 1.887965 -0.603716 0
M  V30 11 N 3.155735 2.615717 0.363775 0
M  V30 12 C 3.111026 2.153182 1.633169 0
M  V30 13 N 3.601480 2.651811 2.794268 0
M  V30 14 C 3.291361 1.805422 3.811296 0
M  V30 15 C 2.594301 0.756377 3.283366 0
M  V30 16 C 2.018617 -0.444032 3.948802 0
M  V30 17 C 0.620427 -0.227617 4.410576 0
M  V30 18 C 0.247892 0.254087 5.649732 0
M  V30 19 C -1.083286 0.419733 5.983050 0
M  V30 20 C -2.082260 0.113606 5.100243 0
M  V30 21 N -3.388185 0.262229 5.390709 0
M  V30 22 C -4.367706 -0.043925 4.509333 0
M  V30 23 C -4.040667 -0.529320 3.256953 0
M  V30 24 C -2.707820 -0.706540 2.893292 0
M  V30 25 C -1.766828 -0.371112 3.848751 0
M  V30 26 C -0.418080 -0.529954 3.534693 0
M  V30 27 N 2.494396 0.985035 1.957993 0
M  V30 28 N 1.914630 0.277730 0.974130 0
M  V30 29 C 1.227698 0.184370 -2.647102 0
M  V30 30 C 0.594285 -0.641044 -3.548451 0
M  V30 31 F 0.532607 -0.352437 -4.852831 0
M  V30 32 H -2.715306 -3.888188 -5.417428 0
M  V30 33 H -1.819861 -3.949102 -6.935651 0
M  V30 34 H -1.240353 -4.874955 -5.487788 0
M  V30 35 H -0.581871 -1.958869 -5.931427 0
M  V30 36 H -0.424316 -3.053967 -1.418539 0
M  V30 37 H 0.688927 -1.588002 0.115211 0
M  V30 38 H 2.599611 2.249756 -1.610365 0
M  V30 39 H 3.514711 1.872520 4.867528 0
M  V30 40 H 1.999496 -1.295136 3.223271 0
M  V30 41 H 2.678241 -0.799599 4.775338 0
M  V30 42 H 1.084441 0.481090 6.311746 0
M  V30 43 H -1.308934 0.796145 6.956400 0
M  V30 44 H -5.426706 0.065895 4.716713 0
M  V30 45 H -4.766183 -0.803054 2.480484 0
M  V30 46 H -2.443589 -1.082776 1.923392 0
M  V30 47 H -0.160911 -0.915044 2.540937 0
M  V30 48 H 1.684963 1.085643 -3.003404 0
M  V30 END ATOM
M  V30 BEGIN BOND
M  V30 1 1 1 2
M  V30 2 1 2 3
M  V30 3 2 3 4
M  V30 4 1 3 5
M  V30 5 2 5 6
M  V30 6 1 6 7
M  V30 7 2 7 8
M  V30 8 1 8 9
M  V30 9 1 9 10
M  V30 10 2 10 11
M  V30 11 1 11 12
M  V30 12 2 12 13
M  V30 13 1 13 14
M  V30 14 2 14 15
M  V30 15 1 15 16
M  V30 16 1 16 17
M  V30 17 2 17 18
M  V30 18 1 18 19
M  V30 19 2 19 20
M  V30 20 1 20 21
M  V30 21 2 21 22
M  V30 22 1 22 23
M  V30 23 2 23 24
M  V30 24 1 24 25
M  V30 25 2 25 26
M  V30 26 1 15 27
M  V30 27 1 27 28
M  V30 28 1 8 29
M  V30 29 2 29 30
M  V30 30 1 30 31
M  V30 31 1 30 5
M  V30 32 2 28 9
M  V30 33 1 27 12
M  V30 34 1 26 17
M  V30 35 1 25 20
M  V30 36 1 1 32
M  V30 37 1 1 33
M  V30 38 1 1 34
M  V30 39 1 2 35
M  V30 40 1 6 36
M  V30 41 1 7 37
M  V30 42 1 10 38
M  V30 43 1 14 39
M  V30 44 1 16 40
M  V30 45 1 16 41
M  V30 46 1 18 42
M  V30 47 1 19 43
M  V30 48 1 22 44
M  V30 49 1 23 45
M  V30 50 1 24 46
M  V30 51 1 26 47
M  V30 52 1 29 48
M  V30 END BOND
M  V30 END CTAB
M  END
>  <Dataset>  (41) 
PKIs

>  <Ligand_Instance>  (41) 
nan

>  <PDB_ID>  (41) 
nan

>  <Standardized_SMILES>  (41) 
CNC(=O)c1ccc(-c2cnc3ncc(Cc4ccc5ncccc5c4)n3n2)cc1F

>  <Name>  (41) 
Capmatinib

>  <Pocket>  (41) 
nan

>  <ATP_Site>  (41) 
nan

>  <Peripheral>  (41) 
nan

>  <Num_H_Atoms_ProtBoundConf>  (41) 
nan

>  <Num_Resolved_Atoms>  (41) 
nan

>  <Num_Not_Resolved_Atoms>  (41) 
nan

>  <2D_Mol_H>  (41) 
<rdkit.Chem.rdchem.Mol object at 0x72a239113760>

>  <MW>  (41) 
412.428

>  <HBA>  (41) 
6

>  <HBD>  (41) 
1

>  <LogP>  (41) 
3.429

>  <NRB>  (41) 
5

>  <TPSA>  (41) 
85.07

>  <Num_Heavy_Atoms>  (41) 
31

>  <Ro5>  (41) 
[True, True, True, True, True, True]

>  <Ro5_Fulfilled>  (41) 
True

>  <Ro3>  (41) 
[False, False, True, False]

>  <Ro3_Fulfilled>  (41) 
False

>  <Fsp3>  (41) 
0.086957

>  <Fsp3_0.42>  (41) 
False

>  <Fsp3_0.45>  (41) 
False

>  <Stereogenic_Carbons>  (41) 
0

>  <C_Atoms>  (41) 
23

>  <FCStereo>  (41) 
0.0

>  <SPS>  (41) 
346

>  <nSPS>  (41) 
11.16129

>  <PBF>  (41) 
0.834893

>  <PBF_0.6>  (41) 
True

>  <nPBF>  (41) 
0.026932

>  <nPBF_0.016>  (41) 
True

>  <PMI1>  (41) 
2714.52627

>  <PMI2>  (41) 
6236.319353

>  <PMI3>  (41) 
8365.971058

>  <NPR1>  (41) 
0.324472

>  <NPR2>  (41) 
0.745439

>  <Sum_NPR>  (41) 
1.069911

>  <Sum_NPR_1.07>  (41) 
False

>  <Sum_NPR_1.2>  (41) 
False

>  <MaxAbsEStateIndex>  (41) 
14.388304

>  <MaxEStateIndex>  (41) 
14.388304

>  <MinAbsEStateIndex>  (41) 
0.019073

>  <MinEStateIndex>  (41) 
-0.61632

>  <qed>  (41) 
0.488891

>  <MolWt>  (41) 
412.428

>  <HeavyAtomMolWt>  (41) 
395.292

>  <ExactMolWt>  (41) 
412.144787

>  <NumValenceElectrons>  (41) 
152

>  <NumRadicalElectrons>  (41) 
0

>  <MaxPartialCharge>  (41) 
0.253497

>  <MinPartialCharge>  (41) 
-0.35502

>  <MaxAbsPartialCharge>  (41) 
0.35502

>  <MinAbsPartialCharge>  (41) 
0.253497

>  <FpDensityMorgan1>  (41) 
1.064516

>  <FpDensityMorgan2>  (41) 
1.935484

>  <FpDensityMorgan3>  (41) 
2.774194

>  <BCUT2D_MWHI>  (41) 
19.142197

>  <BCUT2D_MWLOW>  (41) 
10.071802

>  <BCUT2D_CHGHI>  (41) 
2.137066

>  <BCUT2D_CHGLO>  (41) 
-2.066959

>  <BCUT2D_LOGPHI>  (41) 
2.212289

>  <BCUT2D_LOGPLOW>  (41) 
-2.187128

>  <BCUT2D_MRHI>  (41) 
5.942752

>  <BCUT2D_MRLOW>  (41) 
0.095887

>  <AvgIpc>  (41) 
3.20022

>  <BalabanJ>  (41) 
1.505757

>  <BertzCT>  (41) 
1445.028404

>  <Chi0>  (41) 
21.371668

>  <Chi0n>  (41) 
16.58024

>  <Chi0v>  (41) 
16.58024

>  <Chi1>  (41) 
15.118525

>  <Chi1n>  (41) 
9.67521

>  <Chi1v>  (41) 
9.67521

>  <Chi2n>  (41) 
7.085761

>  <Chi2v>  (41) 
7.085761

>  <Chi3n>  (41) 
5.089772

>  <Chi3v>  (41) 
5.089772

>  <Chi4n>  (41) 
3.509688

>  <Chi4v>  (41) 
3.509688

>  <HallKierAlpha>  (41) 
-4.2

>  <Ipc>  (41) 
21157926.149101

>  <Kappa1>  (41) 
18.804976

>  <Kappa2>  (41) 
7.564707

>  <Kappa3>  (41) 
3.480356

>  <LabuteASA>  (41) 
176.164208

>  <PEOE_VSA1>  (41) 
5.316789

>  <PEOE_VSA10>  (41) 
11.511149

>  <PEOE_VSA11>  (41) 
0.0

>  <PEOE_VSA12>  (41) 
0.0

>  <PEOE_VSA13>  (41) 
11.684833

>  <PEOE_VSA14>  (41) 
0.0

>  <PEOE_VSA2>  (41) 
9.778516

>  <PEOE_VSA3>  (41) 
18.87377

>  <PEOE_VSA4>  (41) 
5.098682

>  <PEOE_VSA5>  (41) 
0.0

>  <PEOE_VSA6>  (41) 
18.199101

>  <PEOE_VSA7>  (41) 
35.895287

>  <PEOE_VSA8>  (41) 
30.615013

>  <PEOE_VSA9>  (41) 
29.167767

>  <SMR_VSA1>  (41) 
9.184952

>  <SMR_VSA10>  (41) 
22.587758

>  <SMR_VSA2>  (41) 
0.0

>  <SMR_VSA3>  (41) 
29.882804

>  <SMR_VSA4>  (41) 
0.0

>  <SMR_VSA5>  (41) 
6.420822

>  <SMR_VSA6>  (41) 
7.047672

>  <SMR_VSA7>  (41) 
89.759519

>  <SMR_VSA8>  (41) 
0.0

>  <SMR_VSA9>  (41) 
11.257379

>  <SlogP_VSA1>  (41) 
5.316789

>  <SlogP_VSA10>  (41) 
4.390415

>  <SlogP_VSA11>  (41) 
0.0

>  <SlogP_VSA12>  (41) 
0.0

>  <SlogP_VSA2>  (41) 
37.520867

>  <SlogP_VSA3>  (41) 
6.420822

>  <SlogP_VSA4>  (41) 
5.817221

>  <SlogP_VSA5>  (41) 
21.615368

>  <SlogP_VSA6>  (41) 
67.121467

>  <SlogP_VSA7>  (41) 
0.0

>  <SlogP_VSA8>  (41) 
27.937958

>  <SlogP_VSA9>  (41) 
0.0

>  <EState_VSA1>  (41) 
11.724401

>  <EState_VSA10>  (41) 
9.184952

>  <EState_VSA11>  (41) 
0.0

>  <EState_VSA2>  (41) 
5.563451

>  <EState_VSA3>  (41) 
23.455855

>  <EState_VSA4>  (41) 
22.160304

>  <EState_VSA5>  (41) 
19.180406

>  <EState_VSA6>  (41) 
29.172296

>  <EState_VSA7>  (41) 
24.265468

>  <EState_VSA8>  (41) 
31.433773

>  <EState_VSA9>  (41) 
0.0

>  <VSA_EState1>  (41) 
16.048365

>  <VSA_EState10>  (41) 
0.0

>  <VSA_EState2>  (41) 
24.753881

>  <VSA_EState3>  (41) 
8.094602

>  <VSA_EState4>  (41) 
3.876316

>  <VSA_EState5>  (41) 
-0.63324

>  <VSA_EState6>  (41) 
14.408265

>  <VSA_EState7>  (41) 
5.658443

>  <VSA_EState8>  (41) 
0.0

>  <VSA_EState9>  (41) 
1.460036

>  <FractionCSP3>  (41) 
0.086957

>  <HeavyAtomCount>  (41) 
31

>  <NHOHCount>  (41) 
1

>  <NOCount>  (41) 
7

>  <NumAliphaticCarbocycles>  (41) 
0

>  <NumAliphaticHeterocycles>  (41) 
0

>  <NumAliphaticRings>  (41) 
0

>  <NumAromaticCarbocycles>  (41) 
2

>  <NumAromaticHeterocycles>  (41) 
3

>  <NumAromaticRings>  (41) 
5

>  <NumHAcceptors>  (41) 
6

>  <NumHDonors>  (41) 
1

>  <NumHeteroatoms>  (41) 
8

>  <NumRotatableBonds>  (41) 
4

>  <NumSaturatedCarbocycles>  (41) 
0

>  <NumSaturatedHeterocycles>  (41) 
0

>  <NumSaturatedRings>  (41) 
0

>  <RingCount>  (41) 
5

>  <MolLogP>  (41) 
3.429

>  <MolMR>  (41) 
114.1152

>  <fr_Al_COO>  (41) 
0

>  <fr_Al_OH>  (41) 
0

>  <fr_Al_OH_noTert>  (41) 
0

>  <fr_ArN>  (41) 
0

>  <fr_Ar_COO>  (41) 
0

>  <fr_Ar_N>  (41) 
5

>  <fr_Ar_NH>  (41) 
0

>  <fr_Ar_OH>  (41) 
0

>  <fr_COO>  (41) 
0

>  <fr_COO2>  (41) 
0

>  <fr_C_O>  (41) 
1

>  <fr_C_O_noCOO>  (41) 
1

>  <fr_C_S>  (41) 
0

>  <fr_HOCCN>  (41) 
0

>  <fr_Imine>  (41) 
0

>  <fr_NH0>  (41) 
5

>  <fr_NH1>  (41) 
1

>  <fr_NH2>  (41) 
0

>  <fr_N_O>  (41) 
0

>  <fr_Ndealkylation1>  (41) 
0

>  <fr_Ndealkylation2>  (41) 
0

>  <fr_Nhpyrrole>  (41) 
0

>  <fr_SH>  (41) 
0

>  <fr_aldehyde>  (41) 
0

>  <fr_alkyl_carbamate>  (41) 
0

>  <fr_alkyl_halide>  (41) 
0

>  <fr_allylic_oxid>  (41) 
0

>  <fr_amide>  (41) 
1

>  <fr_amidine>  (41) 
0

>  <fr_aniline>  (41) 
0

>  <fr_aryl_methyl>  (41) 
0

>  <fr_azide>  (41) 
0

>  <fr_azo>  (41) 
0

>  <fr_barbitur>  (41) 
0

>  <fr_benzene>  (41) 
2

>  <fr_benzodiazepine>  (41) 
0

>  <fr_bicyclic>  (41) 
2

>  <fr_diazo>  (41) 
0

>  <fr_dihydropyridine>  (41) 
0

>  <fr_epoxide>  (41) 
0

>  <fr_ester>  (41) 
0

>  <fr_ether>  (41) 
0

>  <fr_furan>  (41) 
0

>  <fr_guanido>  (41) 
0

>  <fr_halogen>  (41) 
1

>  <fr_hdrzine>  (41) 
0

>  <fr_hdrzone>  (41) 
0

>  <fr_imidazole>  (41) 
1

>  <fr_imide>  (41) 
0

>  <fr_isocyan>  (41) 
0

>  <fr_isothiocyan>  (41) 
0

>  <fr_ketone>  (41) 
0

>  <fr_ketone_Topliss>  (41) 
0

>  <fr_lactam>  (41) 
0

>  <fr_lactone>  (41) 
0

>  <fr_methoxy>  (41) 
0

>  <fr_morpholine>  (41) 
0

>  <fr_nitrile>  (41) 
0

>  <fr_nitro>  (41) 
0

>  <fr_nitro_arom>  (41) 
0

>  <fr_nitro_arom_nonortho>  (41) 
0

>  <fr_nitroso>  (41) 
0

>  <fr_oxazole>  (41) 
0

>  <fr_oxime>  (41) 
0

>  <fr_para_hydroxylation>  (41) 
0

>  <fr_phenol>  (41) 
0

>  <fr_phenol_noOrthoHbond>  (41) 
0

>  <fr_phos_acid>  (41) 
0

>  <fr_phos_ester>  (41) 
0

>  <fr_piperdine>  (41) 
0

>  <fr_piperzine>  (41) 
0

>  <fr_priamide>  (41) 
0

>  <fr_prisulfonamd>  (41) 
0

>  <fr_pyridine>  (41) 
1

>  <fr_quatN>  (41) 
0

>  <fr_sulfide>  (41) 
0

>  <fr_sulfonamd>  (41) 
0

>  <fr_sulfone>  (41) 
0

>  <fr_term_acetylene>  (41) 
0

>  <fr_tetrazole>  (41) 
0

>  <fr_thiazole>  (41) 
0

>  <fr_thiocyan>  (41) 
0

>  <fr_thiophene>  (41) 
0

>  <fr_unbrch_alkane>  (41) 
0

>  <fr_urea>  (41) 
0

>  <NP_Likeness>  (41) 
-1.543128

$$$$
nan
     RDKit          3D

  0  0  0  0  0  0  0  0  0  0999 V3000
M  V30 BEGIN CTAB
M  V30 COUNTS 41 44 0 0 0
M  V30 BEGIN ATOM
M  V30 1 C 1.047548 -0.255370 -2.887087 0
M  V30 2 C 0.865968 -1.522671 -2.087002 0 CFG=1
M  V30 3 C 2.234021 -2.148390 -1.774927 0
M  V30 4 N 2.293883 -1.202598 -0.672325 0
M  V30 5 C 3.411335 -0.560808 -0.131408 0
M  V30 6 O 4.547706 -0.811639 -0.666355 0
M  V30 7 C 3.516941 0.389922 0.986476 0
M  V30 8 C 4.180264 1.637874 0.551087 0
M  V30 9 N 4.704551 2.616814 0.225510 0
M  V30 10 C 0.869211 -1.331007 -0.573677 0 CFG=2
M  V30 11 C 0.320638 -2.534066 0.123909 0
M  V30 12 C -0.985975 -1.958696 0.688640 0
M  V30 13 N -0.475888 -0.658504 1.154347 0
M  V30 14 C -0.613645 -0.174741 2.494893 0
M  V30 15 N 0.434633 0.100538 3.288630 0
M  V30 16 C 0.320914 0.549341 4.537555 0
M  V30 17 N -0.915899 0.747590 5.062180 0
M  V30 18 C -2.027206 0.488194 4.312244 0
M  V30 19 N -3.325119 0.626012 4.660175 0
M  V30 20 C -4.049668 0.246260 3.579479 0
M  V30 21 C -3.172146 -0.124262 2.569606 0
M  V30 22 C -1.882095 0.023583 3.018898 0
M  V30 23 C 0.124193 -0.134317 -0.074180 0
M  V30 24 H 2.124878 -0.027662 -3.066182 0
M  V30 25 H 0.467729 0.597675 -2.492335 0
M  V30 26 H 0.626576 -0.494869 -3.907873 0
M  V30 27 H 0.118844 -2.222941 -2.472844 0
M  V30 28 H 2.989490 -2.033936 -2.561647 0
M  V30 29 H 2.053979 -3.171679 -1.395728 0
M  V30 30 H 2.602606 0.582777 1.547959 0
M  V30 31 H 4.248372 -0.051507 1.732764 0
M  V30 32 H 0.937203 -2.890487 0.971464 0
M  V30 33 H 0.058737 -3.351057 -0.579912 0
M  V30 34 H -1.383336 -2.571480 1.497217 0
M  V30 35 H -1.656281 -1.735147 -0.142046 0
M  V30 36 H 1.195952 0.768868 5.171250 0
M  V30 37 H -3.736061 0.953988 5.567793 0
M  V30 38 H -5.130459 0.201786 3.432607 0
M  V30 39 H -3.418163 -0.482234 1.564489 0
M  V30 40 H -0.717729 0.072494 -0.786600 0
M  V30 41 H 0.746336 0.750303 0.088037 0
M  V30 END ATOM
M  V30 BEGIN BOND
M  V30 1 1 1 2
M  V30 2 1 2 3
M  V30 3 1 3 4
M  V30 4 1 4 5
M  V30 5 2 5 6
M  V30 6 1 5 7
M  V30 7 1 7 8
M  V30 8 3 8 9
M  V30 9 1 10 4 CFG=1
M  V30 10 1 10 11
M  V30 11 1 11 12
M  V30 12 1 12 13
M  V30 13 1 13 14
M  V30 14 2 14 15
M  V30 15 1 15 16
M  V30 16 2 16 17
M  V30 17 1 17 18
M  V30 18 1 18 19
M  V30 19 1 19 20
M  V30 20 2 20 21
M  V30 21 1 21 22
M  V30 22 1 13 23
M  V30 23 1 10 2
M  V30 24 1 22 14
M  V30 25 1 23 10
M  V30 26 2 22 18
M  V30 27 1 1 24
M  V30 28 1 1 25
M  V30 29 1 1 26
M  V30 30 1 2 27 CFG=3
M  V30 31 1 3 28
M  V30 32 1 3 29
M  V30 33 1 7 30
M  V30 34 1 7 31
M  V30 35 1 11 32
M  V30 36 1 11 33
M  V30 37 1 12 34
M  V30 38 1 12 35
M  V30 39 1 16 36
M  V30 40 1 19 37
M  V30 41 1 20 38
M  V30 42 1 21 39
M  V30 43 1 23 40
M  V30 44 1 23 41
M  V30 END BOND
M  V30 END CTAB
M  END
>  <Dataset>  (42) 
PKIs

>  <Ligand_Instance>  (42) 
nan

>  <PDB_ID>  (42) 
nan

>  <Standardized_SMILES>  (42) 
C[C@H]1CN(C(=O)CC#N)[C@]12CCN(c1ncnc3[nH]ccc13)C2

>  <Name>  (42) 
Delgocitinib

>  <Pocket>  (42) 
nan

>  <ATP_Site>  (42) 
nan

>  <Peripheral>  (42) 
nan

>  <Num_H_Atoms_ProtBoundConf>  (42) 
nan

>  <Num_Resolved_Atoms>  (42) 
nan

>  <Num_Not_Resolved_Atoms>  (42) 
nan

>  <2D_Mol_H>  (42) 
<rdkit.Chem.rdchem.Mol object at 0x72a239113840>

>  <MW>  (42) 
310.361

>  <HBA>  (42) 
5

>  <HBD>  (42) 
1

>  <LogP>  (42) 
1.29878

>  <NRB>  (42) 
3

>  <TPSA>  (42) 
88.91

>  <Num_Heavy_Atoms>  (42) 
23

>  <Ro5>  (42) 
[True, True, True, True, True, True]

>  <Ro5_Fulfilled>  (42) 
True

>  <Ro3>  (42) 
[False, False, True, True]

>  <Ro3_Fulfilled>  (42) 
False

>  <Fsp3>  (42) 
0.5

>  <Fsp3_0.42>  (42) 
True

>  <Fsp3_0.45>  (42) 
True

>  <Stereogenic_Carbons>  (42) 
2

>  <C_Atoms>  (42) 
16

>  <FCStereo>  (42) 
0.125

>  <SPS>  (42) 
610

>  <nSPS>  (42) 
26.521739

>  <PBF>  (42) 
0.850094

>  <PBF_0.6>  (42) 
True

>  <nPBF>  (42) 
0.036961

>  <nPBF_0.016>  (42) 
True

>  <PMI1>  (42) 
1132.072079

>  <PMI2>  (42) 
3082.871521

>  <PMI3>  (42) 
3806.705989

>  <NPR1>  (42) 
0.297389

>  <NPR2>  (42) 
0.809853

>  <Sum_NPR>  (42) 
1.107242

>  <Sum_NPR_1.07>  (42) 
True

>  <Sum_NPR_1.2>  (42) 
False

>  <MaxAbsEStateIndex>  (42) 
12.200575

>  <MaxEStateIndex>  (42) 
12.200575

>  <MinAbsEStateIndex>  (42) 
0.037666

>  <MinEStateIndex>  (42) 
-0.151276

>  <qed>  (42) 
0.902828

>  <MolWt>  (42) 
310.361

>  <HeavyAtomMolWt>  (42) 
292.217

>  <ExactMolWt>  (42) 
310.154209

>  <NumValenceElectrons>  (42) 
118

>  <NumRadicalElectrons>  (42) 
0

>  <MaxPartialCharge>  (42) 
0.236836

>  <MinPartialCharge>  (42) 
-0.353493

>  <MaxAbsPartialCharge>  (42) 
0.353493

>  <MinAbsPartialCharge>  (42) 
0.236836

>  <FpDensityMorgan1>  (42) 
1.565217

>  <FpDensityMorgan2>  (42) 
2.434783

>  <FpDensityMorgan3>  (42) 
3.217391

>  <BCUT2D_MWHI>  (42) 
16.154282

>  <BCUT2D_MWLOW>  (42) 
9.737065

>  <BCUT2D_CHGHI>  (42) 
2.561038

>  <BCUT2D_CHGLO>  (42) 
-2.554492

>  <BCUT2D_LOGPHI>  (42) 
2.448406

>  <BCUT2D_LOGPLOW>  (42) 
-2.687881

>  <BCUT2D_MRHI>  (42) 
5.874183

>  <BCUT2D_MRLOW>  (42) 
-0.152135

>  <AvgIpc>  (42) 
3.198542

>  <BalabanJ>  (42) 
1.624379

>  <BertzCT>  (42) 
808.248518

>  <Chi0>  (42) 
16.026733

>  <Chi0n>  (42) 
12.989251

>  <Chi0v>  (42) 
12.989251

>  <Chi1>  (42) 
11.153832

>  <Chi1n>  (42) 
7.860017

>  <Chi1v>  (42) 
7.860017

>  <Chi2n>  (42) 
6.452641

>  <Chi2v>  (42) 
6.452641

>  <Chi3n>  (42) 
5.354403

>  <Chi3v>  (42) 
5.354403

>  <Chi4n>  (42) 
4.023627

>  <Chi4v>  (42) 
4.023627

>  <HallKierAlpha>  (42) 
-2.62

>  <Ipc>  (42) 
308624.095651

>  <Kappa1>  (42) 
14.003052

>  <Kappa2>  (42) 
4.946744

>  <Kappa3>  (42) 
1.908743

>  <LabuteASA>  (42) 
133.473052

>  <PEOE_VSA1>  (42) 
14.783798

>  <PEOE_VSA10>  (42) 
24.213182

>  <PEOE_VSA11>  (42) 
0.0

>  <PEOE_VSA12>  (42) 
5.90718

>  <PEOE_VSA13>  (42) 
0.0

>  <PEOE_VSA14>  (42) 
0.0

>  <PEOE_VSA2>  (42) 
4.794537

>  <PEOE_VSA3>  (42) 
9.967957

>  <PEOE_VSA4>  (42) 
5.261892

>  <PEOE_VSA5>  (42) 
0.0

>  <PEOE_VSA6>  (42) 
6.923737

>  <PEOE_VSA7>  (42) 
18.405095

>  <PEOE_VSA8>  (42) 
25.831113

>  <PEOE_VSA9>  (42) 
16.994371

>  <SMR_VSA1>  (42) 
4.794537

>  <SMR_VSA10>  (42) 
22.758444

>  <SMR_VSA2>  (42) 
5.261892

>  <SMR_VSA3>  (42) 
19.851845

>  <SMR_VSA4>  (42) 
5.917906

>  <SMR_VSA5>  (42) 
25.304306

>  <SMR_VSA6>  (42) 
24.534179

>  <SMR_VSA7>  (42) 
18.590531

>  <SMR_VSA8>  (42) 
0.0

>  <SMR_VSA9>  (42) 
6.069221

>  <SlogP_VSA1>  (42) 
4.89991

>  <SlogP_VSA10>  (42) 
5.817863

>  <SlogP_VSA11>  (42) 
0.0

>  <SlogP_VSA12>  (42) 
0.0

>  <SlogP_VSA2>  (42) 
50.932219

>  <SlogP_VSA3>  (42) 
4.794537

>  <SlogP_VSA4>  (42) 
17.249019

>  <SlogP_VSA5>  (42) 
19.76538

>  <SlogP_VSA6>  (42) 
18.590531

>  <SlogP_VSA7>  (42) 
0.0

>  <SlogP_VSA8>  (42) 
11.033401

>  <SlogP_VSA9>  (42) 
0.0

>  <EState_VSA1>  (42) 
0.0

>  <EState_VSA10>  (42) 
4.794537

>  <EState_VSA11>  (42) 
0.0

>  <EState_VSA2>  (42) 
17.866927

>  <EState_VSA3>  (42) 
5.917906

>  <EState_VSA4>  (42) 
42.906355

>  <EState_VSA5>  (42) 
0.0

>  <EState_VSA6>  (42) 
6.32732

>  <EState_VSA7>  (42) 
23.232342

>  <EState_VSA8>  (42) 
26.775582

>  <EState_VSA9>  (42) 
5.261892

>  <VSA_EState1>  (42) 
0.0

>  <VSA_EState10>  (42) 
0.0

>  <VSA_EState2>  (42) 
28.129989

>  <VSA_EState3>  (42) 
9.80463

>  <VSA_EState4>  (42) 
0.677447

>  <VSA_EState5>  (42) 
1.306048

>  <VSA_EState6>  (42) 
3.956428

>  <VSA_EState7>  (42) 
4.316128

>  <VSA_EState8>  (42) 
4.55933

>  <VSA_EState9>  (42) 
0.0

>  <FractionCSP3>  (42) 
0.5

>  <HeavyAtomCount>  (42) 
23

>  <NHOHCount>  (42) 
1

>  <NOCount>  (42) 
7

>  <NumAliphaticCarbocycles>  (42) 
0

>  <NumAliphaticHeterocycles>  (42) 
2

>  <NumAliphaticRings>  (42) 
2

>  <NumAromaticCarbocycles>  (42) 
0

>  <NumAromaticHeterocycles>  (42) 
2

>  <NumAromaticRings>  (42) 
2

>  <NumHAcceptors>  (42) 
5

>  <NumHDonors>  (42) 
1

>  <NumHeteroatoms>  (42) 
7

>  <NumRotatableBonds>  (42) 
2

>  <NumSaturatedCarbocycles>  (42) 
0

>  <NumSaturatedHeterocycles>  (42) 
2

>  <NumSaturatedRings>  (42) 
2

>  <RingCount>  (42) 
4

>  <MolLogP>  (42) 
1.29878

>  <MolMR>  (42) 
84.5567

>  <fr_Al_COO>  (42) 
0

>  <fr_Al_OH>  (42) 
0

>  <fr_Al_OH_noTert>  (42) 
0

>  <fr_ArN>  (42) 
0

>  <fr_Ar_COO>  (42) 
0

>  <fr_Ar_N>  (42) 
3

>  <fr_Ar_NH>  (42) 
1

>  <fr_Ar_OH>  (42) 
0

>  <fr_COO>  (42) 
0

>  <fr_COO2>  (42) 
0

>  <fr_C_O>  (42) 
1

>  <fr_C_O_noCOO>  (42) 
1

>  <fr_C_S>  (42) 
0

>  <fr_HOCCN>  (42) 
0

>  <fr_Imine>  (42) 
0

>  <fr_NH0>  (42) 
5

>  <fr_NH1>  (42) 
1

>  <fr_NH2>  (42) 
0

>  <fr_N_O>  (42) 
0

>  <fr_Ndealkylation1>  (42) 
0

>  <fr_Ndealkylation2>  (42) 
1

>  <fr_Nhpyrrole>  (42) 
1

>  <fr_SH>  (42) 
0

>  <fr_aldehyde>  (42) 
0

>  <fr_alkyl_carbamate>  (42) 
0

>  <fr_alkyl_halide>  (42) 
0

>  <fr_allylic_oxid>  (42) 
0

>  <fr_amide>  (42) 
1

>  <fr_amidine>  (42) 
0

>  <fr_aniline>  (42) 
1

>  <fr_aryl_methyl>  (42) 
0

>  <fr_azide>  (42) 
0

>  <fr_azo>  (42) 
0

>  <fr_barbitur>  (42) 
0

>  <fr_benzene>  (42) 
0

>  <fr_benzodiazepine>  (42) 
0

>  <fr_bicyclic>  (42) 
1

>  <fr_diazo>  (42) 
0

>  <fr_dihydropyridine>  (42) 
0

>  <fr_epoxide>  (42) 
0

>  <fr_ester>  (42) 
0

>  <fr_ether>  (42) 
0

>  <fr_furan>  (42) 
0

>  <fr_guanido>  (42) 
0

>  <fr_halogen>  (42) 
0

>  <fr_hdrzine>  (42) 
0

>  <fr_hdrzone>  (42) 
0

>  <fr_imidazole>  (42) 
0

>  <fr_imide>  (42) 
0

>  <fr_isocyan>  (42) 
0

>  <fr_isothiocyan>  (42) 
0

>  <fr_ketone>  (42) 
0

>  <fr_ketone_Topliss>  (42) 
0

>  <fr_lactam>  (42) 
0

>  <fr_lactone>  (42) 
0

>  <fr_methoxy>  (42) 
0

>  <fr_morpholine>  (42) 
0

>  <fr_nitrile>  (42) 
1

>  <fr_nitro>  (42) 
0

>  <fr_nitro_arom>  (42) 
0

>  <fr_nitro_arom_nonortho>  (42) 
0

>  <fr_nitroso>  (42) 
0

>  <fr_oxazole>  (42) 
0

>  <fr_oxime>  (42) 
0

>  <fr_para_hydroxylation>  (42) 
0

>  <fr_phenol>  (42) 
0

>  <fr_phenol_noOrthoHbond>  (42) 
0

>  <fr_phos_acid>  (42) 
0

>  <fr_phos_ester>  (42) 
0

>  <fr_piperdine>  (42) 
0

>  <fr_piperzine>  (42) 
0

>  <fr_priamide>  (42) 
0

>  <fr_prisulfonamd>  (42) 
0

>  <fr_pyridine>  (42) 
0

>  <fr_quatN>  (42) 
0

>  <fr_sulfide>  (42) 
0

>  <fr_sulfonamd>  (42) 
0

>  <fr_sulfone>  (42) 
0

>  <fr_term_acetylene>  (42) 
0

>  <fr_tetrazole>  (42) 
0

>  <fr_thiazole>  (42) 
0

>  <fr_thiocyan>  (42) 
0

>  <fr_thiophene>  (42) 
0

>  <fr_unbrch_alkane>  (42) 
0

>  <fr_urea>  (42) 
0

>  <NP_Likeness>  (42) 
-0.798617

$$$$
nan
     RDKit          3D

  0  0  0  0  0  0  0  0  0  0999 V3000
M  V30 BEGIN CTAB
M  V30 COUNTS 63 66 0 0 0
M  V30 BEGIN ATOM
M  V30 1 C 3.397342 -2.589395 2.713666 0
M  V30 2 O 3.908276 -1.266524 2.718938 0
M  V30 3 C 3.335958 -0.256872 1.971122 0
M  V30 4 C 3.905508 0.988783 2.044824 0
M  V30 5 C 3.358434 2.016407 1.310848 0
M  V30 6 O 3.976063 3.244652 1.426766 0
M  V30 7 C 5.092829 3.411529 2.249342 0
M  V30 8 C 2.242274 1.772288 0.512181 0
M  V30 9 C 1.625818 0.549182 0.396542 0
M  V30 10 N 0.541663 0.401612 -0.491069 0
M  V30 11 C 0.324642 1.556552 -1.358959 0
M  V30 12 C -0.621395 2.535570 -0.698241 0
M  V30 13 N -0.849204 3.714403 -1.500751 0
M  V30 14 C -1.581387 3.491448 -2.706674 0
M  V30 15 C -1.777640 4.815970 -3.446517 0
M  V30 16 C -2.960398 2.926847 -2.447391 0
M  V30 17 C -0.371715 -0.643871 -0.656319 0
M  V30 18 C -1.250679 -0.648820 -1.698522 0
M  V30 19 C -2.231236 -1.581460 -1.921624 0
M  V30 20 C -2.385171 -2.644629 -1.027337 0
M  V30 21 N -3.329961 -3.593762 -1.188212 0
M  V30 22 C -3.481423 -4.616339 -0.327353 0
M  V30 23 C -2.627329 -4.676766 0.753513 0
M  V30 24 C -2.727794 -5.752338 1.736622 0
M  V30 25 C -3.640416 -6.785916 1.700559 0
M  V30 26 N -3.383666 -7.537309 2.785858 0
M  V30 27 N -2.362816 -7.022221 3.487529 0
M  V30 28 C -1.757701 -7.502779 4.716633 0
M  V30 29 C -1.937350 -5.912602 2.856569 0
M  V30 30 N -1.684917 -3.728272 0.911760 0
M  V30 31 C -1.532135 -2.705455 0.052228 0
M  V30 32 C -0.589093 -1.713398 0.171519 0
M  V30 33 C 2.247929 -0.403010 1.164548 0
M  V30 34 H 2.420515 -2.631002 3.234967 0
M  V30 35 H 3.228090 -2.913190 1.666591 0
M  V30 36 H 4.089042 -3.274597 3.245826 0
M  V30 37 H 4.776820 1.142050 2.679221 0
M  V30 38 H 5.475958 4.451474 2.235556 0
M  V30 39 H 5.940016 2.728447 1.974083 0
M  V30 40 H 4.793433 3.105699 3.291457 0
M  V30 41 H 1.997603 2.693955 0.041256 0
M  V30 42 H -0.106075 1.286933 -2.319378 0
M  V30 43 H 1.324084 2.017340 -1.563413 0
M  V30 44 H -0.221534 2.834190 0.273072 0
M  V30 45 H -1.595961 2.024507 -0.456650 0
M  V30 46 H -1.222264 4.505565 -0.941445 0
M  V30 47 H -1.022668 2.834815 -3.390618 0
M  V30 48 H -2.616227 4.650902 -4.144442 0
M  V30 49 H -0.856614 5.074411 -3.967734 0
M  V30 50 H -2.084628 5.616615 -2.714257 0
M  V30 51 H -3.449393 3.404738 -1.580550 0
M  V30 52 H -2.892446 1.840942 -2.237095 0
M  V30 53 H -3.632650 3.046793 -3.313570 0
M  V30 54 H -1.328217 0.051164 -2.502572 0
M  V30 55 H -2.939290 -1.617501 -2.729806 0
M  V30 56 H -4.244922 -5.375337 -0.465495 0
M  V30 57 H -4.406776 -6.967406 0.961722 0
M  V30 58 H -0.728767 -7.864482 4.513903 0
M  V30 59 H -1.635852 -6.632243 5.425060 0
M  V30 60 H -2.363413 -8.285900 5.213371 0
M  V30 61 H -1.128410 -5.245170 3.145717 0
M  V30 62 H -0.030552 -1.861371 1.073945 0
M  V30 63 H 1.932324 -1.418413 1.158976 0
M  V30 END ATOM
M  V30 BEGIN BOND
M  V30 1 1 1 2
M  V30 2 1 2 3
M  V30 3 2 3 4
M  V30 4 1 4 5
M  V30 5 1 5 6
M  V30 6 1 6 7
M  V30 7 2 5 8
M  V30 8 1 8 9
M  V30 9 1 9 10
M  V30 10 1 10 11
M  V30 11 1 11 12
M  V30 12 1 12 13
M  V30 13 1 13 14
M  V30 14 1 14 15
M  V30 15 1 14 16
M  V30 16 1 10 17
M  V30 17 2 17 18
M  V30 18 1 18 19
M  V30 19 2 19 20
M  V30 20 1 20 21
M  V30 21 2 21 22
M  V30 22 1 22 23
M  V30 23 1 23 24
M  V30 24 1 24 25
M  V30 25 2 25 26
M  V30 26 1 26 27
M  V30 27 1 27 28
M  V30 28 1 27 29
M  V30 29 2 23 30
M  V30 30 1 30 31
M  V30 31 2 31 32
M  V30 32 2 9 33
M  V30 33 1 33 3
M  V30 34 1 32 17
M  V30 35 1 31 20
M  V30 36 2 29 24
M  V30 37 1 1 34
M  V30 38 1 1 35
M  V30 39 1 1 36
M  V30 40 1 4 37
M  V30 41 1 7 38
M  V30 42 1 7 39
M  V30 43 1 7 40
M  V30 44 1 8 41
M  V30 45 1 11 42
M  V30 46 1 11 43
M  V30 47 1 12 44
M  V30 48 1 12 45
M  V30 49 1 13 46
M  V30 50 1 14 47
M  V30 51 1 15 48
M  V30 52 1 15 49
M  V30 53 1 15 50
M  V30 54 1 16 51
M  V30 55 1 16 52
M  V30 56 1 16 53
M  V30 57 1 18 54
M  V30 58 1 19 55
M  V30 59 1 22 56
M  V30 60 1 25 57
M  V30 61 1 28 58
M  V30 62 1 28 59
M  V30 63 1 28 60
M  V30 64 1 29 61
M  V30 65 1 32 62
M  V30 66 1 33 63
M  V30 END BOND
M  V30 END CTAB
M  END
>  <Dataset>  (43) 
PKIs

>  <Ligand_Instance>  (43) 
nan

>  <PDB_ID>  (43) 
nan

>  <Standardized_SMILES>  (43) 
COc1cc(OC)cc(N(CCNC(C)C)c2ccc3ncc(-c4cnn(C)c4)nc3c2)c1

>  <Name>  (43) 
Erdafitinib

>  <Pocket>  (43) 
nan

>  <ATP_Site>  (43) 
nan

>  <Peripheral>  (43) 
nan

>  <Num_H_Atoms_ProtBoundConf>  (43) 
nan

>  <Num_Resolved_Atoms>  (43) 
nan

>  <Num_Not_Resolved_Atoms>  (43) 
nan

>  <2D_Mol_H>  (43) 
<rdkit.Chem.rdchem.Mol object at 0x72a239113920>

>  <MW>  (43) 
446.555

>  <HBA>  (43) 
8

>  <HBD>  (43) 
1

>  <LogP>  (43) 
4.1836

>  <NRB>  (43) 
14

>  <TPSA>  (43) 
77.33

>  <Num_Heavy_Atoms>  (43) 
33

>  <Ro5>  (43) 
[True, True, True, True, False, True]

>  <Ro5_Fulfilled>  (43) 
True

>  <Ro3>  (43) 
[False, False, True, False]

>  <Ro3_Fulfilled>  (43) 
False

>  <Fsp3>  (43) 
0.32

>  <Fsp3_0.42>  (43) 
False

>  <Fsp3_0.45>  (43) 
False

>  <Stereogenic_Carbons>  (43) 
0

>  <C_Atoms>  (43) 
25

>  <FCStereo>  (43) 
0.0

>  <SPS>  (43) 
370

>  <nSPS>  (43) 
11.212121

>  <PBF>  (43) 
0.689582

>  <PBF_0.6>  (43) 
True

>  <nPBF>  (43) 
0.020896

>  <nPBF_0.016>  (43) 
True

>  <PMI1>  (43) 
3438.381778

>  <PMI2>  (43) 
7629.512791

>  <PMI3>  (43) 
10710.4786

>  <NPR1>  (43) 
0.32103

>  <NPR2>  (43) 
0.712341

>  <Sum_NPR>  (43) 
1.033371

>  <Sum_NPR_1.07>  (43) 
False

>  <Sum_NPR_1.2>  (43) 
False

>  <MaxAbsEStateIndex>  (43) 
5.510488

>  <MaxEStateIndex>  (43) 
5.510488

>  <MinAbsEStateIndex>  (43) 
0.399265

>  <MinEStateIndex>  (43) 
0.399265

>  <qed>  (43) 
0.413156

>  <MolWt>  (43) 
446.555

>  <HeavyAtomMolWt>  (43) 
416.315

>  <ExactMolWt>  (43) 
446.243024

>  <NumValenceElectrons>  (43) 
172

>  <NumRadicalElectrons>  (43) 
0

>  <MaxPartialCharge>  (43) 
0.124135

>  <MinPartialCharge>  (43) 
-0.496544

>  <MaxAbsPartialCharge>  (43) 
0.496544

>  <MinAbsPartialCharge>  (43) 
0.124135

>  <FpDensityMorgan1>  (43) 
0.969697

>  <FpDensityMorgan2>  (43) 
1.727273

>  <FpDensityMorgan3>  (43) 
2.363636

>  <BCUT2D_MWHI>  (43) 
16.475679

>  <BCUT2D_MWLOW>  (43) 
10.154544

>  <BCUT2D_CHGHI>  (43) 
2.144663

>  <BCUT2D_CHGLO>  (43) 
-2.265982

>  <BCUT2D_LOGPHI>  (43) 
2.335357

>  <BCUT2D_LOGPLOW>  (43) 
-2.322226

>  <BCUT2D_MRHI>  (43) 
5.823627

>  <BCUT2D_MRLOW>  (43) 
0.39421

>  <AvgIpc>  (43) 
3.264679

>  <BalabanJ>  (43) 
1.756646

>  <BertzCT>  (43) 
1214.5346

>  <Chi0>  (43) 
23.371668

>  <Chi0n>  (43) 
19.740281

>  <Chi0v>  (43) 
19.740281

>  <Chi1>  (43) 
15.96106

>  <Chi1n>  (43) 
10.963856

>  <Chi1v>  (43) 
10.963856

>  <Chi2n>  (43) 
8.162267

>  <Chi2v>  (43) 
8.162267

>  <Chi3n>  (43) 
5.374012

>  <Chi3v>  (43) 
5.374012

>  <Chi4n>  (43) 
3.680888

>  <Chi4v>  (43) 
3.680888

>  <HallKierAlpha>  (43) 
-3.65

>  <Ipc>  (43) 
35607408.248418

>  <Kappa1>  (43) 
22.54061

>  <Kappa2>  (43) 
9.871161

>  <Kappa3>  (43) 
5.229801

>  <LabuteASA>  (43) 
193.730109

>  <PEOE_VSA1>  (43) 
19.690424

>  <PEOE_VSA10>  (43) 
11.499024

>  <PEOE_VSA11>  (43) 
0.0

>  <PEOE_VSA12>  (43) 
0.0

>  <PEOE_VSA13>  (43) 
0.0

>  <PEOE_VSA14>  (43) 
0.0

>  <PEOE_VSA2>  (43) 
9.665781

>  <PEOE_VSA3>  (43) 
4.983979

>  <PEOE_VSA4>  (43) 
5.098682

>  <PEOE_VSA5>  (43) 
0.0

>  <PEOE_VSA6>  (43) 
13.847474

>  <PEOE_VSA7>  (43) 
18.199101

>  <PEOE_VSA8>  (43) 
67.513194

>  <PEOE_VSA9>  (43) 
43.340612

>  <SMR_VSA1>  (43) 
9.473726

>  <SMR_VSA10>  (43) 
22.408174

>  <SMR_VSA2>  (43) 
0.0

>  <SMR_VSA3>  (43) 
25.06523

>  <SMR_VSA4>  (43) 
7.047672

>  <SMR_VSA5>  (43) 
19.889315

>  <SMR_VSA6>  (43) 
32.209018

>  <SMR_VSA7>  (43) 
54.988733

>  <SMR_VSA8>  (43) 
0.0

>  <SMR_VSA9>  (43) 
22.756403

>  <SlogP_VSA1>  (43) 
19.690424

>  <SlogP_VSA10>  (43) 
11.374773

>  <SlogP_VSA11>  (43) 
11.499024

>  <SlogP_VSA12>  (43) 
0.0

>  <SlogP_VSA2>  (43) 
53.099391

>  <SlogP_VSA3>  (43) 
7.047672

>  <SlogP_VSA4>  (43) 
0.0

>  <SlogP_VSA5>  (43) 
13.847474

>  <SlogP_VSA6>  (43) 
54.988733

>  <SlogP_VSA7>  (43) 
0.0

>  <SlogP_VSA8>  (43) 
22.290781

>  <SlogP_VSA9>  (43) 
0.0

>  <EState_VSA1>  (43) 
0.0

>  <EState_VSA10>  (43) 
0.0

>  <EState_VSA11>  (43) 
0.0

>  <EState_VSA2>  (43) 
0.0

>  <EState_VSA3>  (43) 
6.041841

>  <EState_VSA4>  (43) 
58.25409

>  <EState_VSA5>  (43) 
0.0

>  <EState_VSA6>  (43) 
31.295085

>  <EState_VSA7>  (43) 
37.509984

>  <EState_VSA8>  (43) 
46.279567

>  <EState_VSA9>  (43) 
14.457704

>  <VSA_EState1>  (43) 
12.782156

>  <VSA_EState10>  (43) 
0.0

>  <VSA_EState2>  (43) 
11.708096

>  <VSA_EState3>  (43) 
7.750403

>  <VSA_EState4>  (43) 
5.394008

>  <VSA_EState5>  (43) 
1.482618

>  <VSA_EState6>  (43) 
12.451181

>  <VSA_EState7>  (43) 
5.522309

>  <VSA_EState8>  (43) 
5.862457

>  <VSA_EState9>  (43) 
5.21344

>  <FractionCSP3>  (43) 
0.32

>  <HeavyAtomCount>  (43) 
33

>  <NHOHCount>  (43) 
1

>  <NOCount>  (43) 
8

>  <NumAliphaticCarbocycles>  (43) 
0

>  <NumAliphaticHeterocycles>  (43) 
0

>  <NumAliphaticRings>  (43) 
0

>  <NumAromaticCarbocycles>  (43) 
2

>  <NumAromaticHeterocycles>  (43) 
2

>  <NumAromaticRings>  (43) 
4

>  <NumHAcceptors>  (43) 
8

>  <NumHDonors>  (43) 
1

>  <NumHeteroatoms>  (43) 
8

>  <NumRotatableBonds>  (43) 
9

>  <NumSaturatedCarbocycles>  (43) 
0

>  <NumSaturatedHeterocycles>  (43) 
0

>  <NumSaturatedRings>  (43) 
0

>  <RingCount>  (43) 
4

>  <MolLogP>  (43) 
4.1836

>  <MolMR>  (43) 
131.4307

>  <fr_Al_COO>  (43) 
0

>  <fr_Al_OH>  (43) 
0

>  <fr_Al_OH_noTert>  (43) 
0

>  <fr_ArN>  (43) 
0

>  <fr_Ar_COO>  (43) 
0

>  <fr_Ar_N>  (43) 
4

>  <fr_Ar_NH>  (43) 
0

>  <fr_Ar_OH>  (43) 
0

>  <fr_COO>  (43) 
0

>  <fr_COO2>  (43) 
0

>  <fr_C_O>  (43) 
0

>  <fr_C_O_noCOO>  (43) 
0

>  <fr_C_S>  (43) 
0

>  <fr_HOCCN>  (43) 
0

>  <fr_Imine>  (43) 
0

>  <fr_NH0>  (43) 
5

>  <fr_NH1>  (43) 
1

>  <fr_NH2>  (43) 
0

>  <fr_N_O>  (43) 
0

>  <fr_Ndealkylation1>  (43) 
0

>  <fr_Ndealkylation2>  (43) 
0

>  <fr_Nhpyrrole>  (43) 
0

>  <fr_SH>  (43) 
0

>  <fr_aldehyde>  (43) 
0

>  <fr_alkyl_carbamate>  (43) 
0

>  <fr_alkyl_halide>  (43) 
0

>  <fr_allylic_oxid>  (43) 
0

>  <fr_amide>  (43) 
0

>  <fr_amidine>  (43) 
0

>  <fr_aniline>  (43) 
2

>  <fr_aryl_methyl>  (43) 
1

>  <fr_azide>  (43) 
0

>  <fr_azo>  (43) 
0

>  <fr_barbitur>  (43) 
0

>  <fr_benzene>  (43) 
2

>  <fr_benzodiazepine>  (43) 
0

>  <fr_bicyclic>  (43) 
1

>  <fr_diazo>  (43) 
0

>  <fr_dihydropyridine>  (43) 
0

>  <fr_epoxide>  (43) 
0

>  <fr_ester>  (43) 
0

>  <fr_ether>  (43) 
2

>  <fr_furan>  (43) 
0

>  <fr_guanido>  (43) 
0

>  <fr_halogen>  (43) 
0

>  <fr_hdrzine>  (43) 
0

>  <fr_hdrzone>  (43) 
0

>  <fr_imidazole>  (43) 
0

>  <fr_imide>  (43) 
0

>  <fr_isocyan>  (43) 
0

>  <fr_isothiocyan>  (43) 
0

>  <fr_ketone>  (43) 
0

>  <fr_ketone_Topliss>  (43) 
0

>  <fr_lactam>  (43) 
0

>  <fr_lactone>  (43) 
0

>  <fr_methoxy>  (43) 
2

>  <fr_morpholine>  (43) 
0

>  <fr_nitrile>  (43) 
0

>  <fr_nitro>  (43) 
0

>  <fr_nitro_arom>  (43) 
0

>  <fr_nitro_arom_nonortho>  (43) 
0

>  <fr_nitroso>  (43) 
0

>  <fr_oxazole>  (43) 
0

>  <fr_oxime>  (43) 
0

>  <fr_para_hydroxylation>  (43) 
0

>  <fr_phenol>  (43) 
0

>  <fr_phenol_noOrthoHbond>  (43) 
0

>  <fr_phos_acid>  (43) 
0

>  <fr_phos_ester>  (43) 
0

>  <fr_piperdine>  (43) 
0

>  <fr_piperzine>  (43) 
0

>  <fr_priamide>  (43) 
0

>  <fr_prisulfonamd>  (43) 
0

>  <fr_pyridine>  (43) 
0

>  <fr_quatN>  (43) 
0

>  <fr_sulfide>  (43) 
0

>  <fr_sulfonamd>  (43) 
0

>  <fr_sulfone>  (43) 
0

>  <fr_term_acetylene>  (43) 
0

>  <fr_tetrazole>  (43) 
0

>  <fr_thiazole>  (43) 
0

>  <fr_thiocyan>  (43) 
0

>  <fr_thiophene>  (43) 
0

>  <fr_unbrch_alkane>  (43) 
0

>  <fr_urea>  (43) 
0

>  <NP_Likeness>  (43) 
-1.301694

$$$$
nan
     RDKit          3D

  0  0  0  0  0  0  0  0  0  0999 V3000
M  V30 BEGIN CTAB
M  V30 COUNTS 64 68 0 0 0
M  V30 BEGIN ATOM
M  V30 1 C -2.618483 -5.139076 1.834622 0
M  V30 2 C -1.979609 -3.980921 1.836492 0
M  V30 3 C -0.592357 -4.005493 2.273827 0
M  V30 4 O -0.276721 -5.197640 2.575859 0
M  V30 5 N 0.248909 -2.860716 2.341121 0
M  V30 6 C -0.359309 -1.607070 1.936866 0
M  V30 7 C 0.708621 -0.539573 1.926624 0
M  V30 8 C 1.971595 -1.162355 1.365302 0
M  V30 9 C 2.923642 -0.117514 0.867249 0 CFG=2
M  V30 10 C 3.335688 0.817866 1.953872 0
M  V30 11 C 4.257299 1.888870 1.447628 0
M  V30 12 N 3.728401 2.563448 0.277374 0
M  V30 13 C 2.683421 1.922138 -0.436944 0
M  V30 14 C 1.847669 2.282653 -1.464907 0
M  V30 15 C 1.932885 3.605610 -2.057117 0
M  V30 16 N 1.311340 4.368352 -3.058625 0
M  V30 17 O 2.769170 4.457727 -1.668488 0
M  V30 18 C 0.972797 1.286277 -1.825753 0
M  V30 19 C -0.063698 1.249137 -2.843729 0
M  V30 20 C -0.016636 1.638913 -4.163989 0
M  V30 21 C -1.144438 1.515610 -4.949410 0
M  V30 22 C -2.342456 1.012124 -4.474308 0
M  V30 23 O -3.384093 0.954258 -5.396909 0
M  V30 24 C -4.593964 0.438720 -4.895609 0
M  V30 25 C -5.457177 1.368163 -4.356234 0
M  V30 26 C -6.680270 0.964162 -3.833113 0
M  V30 27 C -6.994002 -0.398057 -3.875239 0
M  V30 28 C -6.124110 -1.321563 -4.416908 0
M  V30 29 C -4.918979 -0.901490 -4.929290 0
M  V30 30 C -2.400856 0.618113 -3.152347 0
M  V30 31 C -1.273707 0.740820 -2.364990 0
M  V30 32 N 1.286168 0.283811 -0.987773 0
M  V30 33 N 2.271089 0.644159 -0.185246 0
M  V30 34 C 2.557934 -2.027156 2.430941 0
M  V30 35 C 1.596756 -3.118600 2.806417 0
M  V30 36 H -3.653989 -5.273114 1.534166 0
M  V30 37 H -2.175271 -6.079969 2.133595 0
M  V30 38 H -2.569986 -3.125360 1.506228 0
M  V30 39 H -0.783954 -1.702092 0.905075 0
M  V30 40 H -1.211206 -1.339897 2.588659 0
M  V30 41 H 0.924760 -0.318709 3.003957 0
M  V30 42 H 0.413861 0.371345 1.395429 0
M  V30 43 H 1.670275 -1.797062 0.493030 0
M  V30 44 H 3.787457 -0.637094 0.411213 0
M  V30 45 H 2.456038 1.228911 2.456809 0
M  V30 46 H 3.937254 0.237844 2.709691 0
M  V30 47 H 4.319897 2.674463 2.242539 0
M  V30 48 H 5.275472 1.529588 1.244715 0
M  V30 49 H 4.098327 3.469733 -0.019670 0
M  V30 50 H 1.666012 4.361592 -4.020305 0
M  V30 51 H 0.482789 4.994696 -2.996853 0
M  V30 52 H 0.938032 2.013966 -4.469236 0
M  V30 53 H -0.969257 1.859929 -5.970833 0
M  V30 54 H -5.255204 2.414480 -4.305368 0
M  V30 55 H -7.380697 1.666489 -3.402799 0
M  V30 56 H -7.934054 -0.791798 -3.484922 0
M  V30 57 H -6.331037 -2.385362 -4.467738 0
M  V30 58 H -4.195488 -1.567066 -5.365321 0
M  V30 59 H -3.338020 0.231843 -2.807672 0
M  V30 60 H -1.437335 0.399109 -1.340407 0
M  V30 61 H 3.583129 -2.401570 2.215178 0
M  V30 62 H 2.675340 -1.395747 3.349774 0
M  V30 63 H 1.958895 -4.044987 2.307400 0
M  V30 64 H 1.560399 -3.330751 3.881711 0
M  V30 END ATOM
M  V30 BEGIN BOND
M  V30 1 2 1 2
M  V30 2 1 2 3
M  V30 3 2 3 4
M  V30 4 1 3 5
M  V30 5 1 5 6
M  V30 6 1 6 7
M  V30 7 1 7 8
M  V30 8 1 8 9
M  V30 9 1 9 10
M  V30 10 1 10 11
M  V30 11 1 11 12
M  V30 12 1 12 13
M  V30 13 2 13 14
M  V30 14 1 14 15
M  V30 15 1 15 16
M  V30 16 2 15 17
M  V30 17 1 14 18
M  V30 18 1 18 19
M  V30 19 2 19 20
M  V30 20 1 20 21
M  V30 21 2 21 22
M  V30 22 1 22 23
M  V30 23 1 23 24
M  V30 24 2 24 25
M  V30 25 1 25 26
M  V30 26 2 26 27
M  V30 27 1 27 28
M  V30 28 2 28 29
M  V30 29 1 22 30
M  V30 30 2 30 31
M  V30 31 2 18 32
M  V30 32 1 32 33
M  V30 33 1 8 34
M  V30 34 1 34 35
M  V30 35 1 35 5
M  V30 36 1 33 9
M  V30 37 1 33 13
M  V30 38 1 31 19
M  V30 39 1 29 24
M  V30 40 1 1 36
M  V30 41 1 1 37
M  V30 42 1 2 38
M  V30 43 1 6 39
M  V30 44 1 6 40
M  V30 45 1 7 41
M  V30 46 1 7 42
M  V30 47 1 8 43
M  V30 48 1 9 44 CFG=3
M  V30 49 1 10 45
M  V30 50 1 10 46
M  V30 51 1 11 47
M  V30 52 1 11 48
M  V30 53 1 12 49
M  V30 54 1 16 50
M  V30 55 1 16 51
M  V30 56 1 20 52
M  V30 57 1 21 53
M  V30 58 1 25 54
M  V30 59 1 26 55
M  V30 60 1 27 56
M  V30 61 1 28 57
M  V30 62 1 29 58
M  V30 63 1 30 59
M  V30 64 1 31 60
M  V30 65 1 34 61
M  V30 66 1 34 62
M  V30 67 1 35 63
M  V30 68 1 35 64
M  V30 END BOND
M  V30 END CTAB
M  END
>  <Dataset>  (44) 
PKIs

>  <Ligand_Instance>  (44) 
nan

>  <PDB_ID>  (44) 
nan

>  <Standardized_SMILES>  (44) 
C=CC(=O)N1CCC([C@@H]2CCNc3c(C(N)=O)c(-c4ccc(Oc5ccccc5)cc4)nn32)CC1

>  <Name>  (44) 
Zanubrutinib

>  <Pocket>  (44) 
nan

>  <ATP_Site>  (44) 
nan

>  <Peripheral>  (44) 
nan

>  <Num_H_Atoms_ProtBoundConf>  (44) 
nan

>  <Num_Resolved_Atoms>  (44) 
nan

>  <Num_Not_Resolved_Atoms>  (44) 
nan

>  <2D_Mol_H>  (44) 
<rdkit.Chem.rdchem.Mol object at 0x72a239113a00>

>  <MW>  (44) 
471.561

>  <HBA>  (44) 
6

>  <HBD>  (44) 
2

>  <LogP>  (44) 
4.2226

>  <NRB>  (44) 
6

>  <TPSA>  (44) 
102.48

>  <Num_Heavy_Atoms>  (44) 
35

>  <Ro5>  (44) 
[True, True, True, True, True, True]

>  <Ro5_Fulfilled>  (44) 
True

>  <Ro3>  (44) 
[False, False, True, False]

>  <Ro3_Fulfilled>  (44) 
False

>  <Fsp3>  (44) 
0.296296

>  <Fsp3_0.42>  (44) 
False

>  <Fsp3_0.45>  (44) 
False

>  <Stereogenic_Carbons>  (44) 
1

>  <C_Atoms>  (44) 
27

>  <FCStereo>  (44) 
0.037037

>  <SPS>  (44) 
624

>  <nSPS>  (44) 
17.828571

>  <PBF>  (44) 
0.81233

>  <PBF_0.6>  (44) 
True

>  <nPBF>  (44) 
0.023209

>  <nPBF_0.016>  (44) 
True

>  <PMI1>  (44) 
4441.807115

>  <PMI2>  (44) 
6830.298669

>  <PMI3>  (44) 
10756.010514

>  <NPR1>  (44) 
0.41296

>  <NPR2>  (44) 
0.635022

>  <Sum_NPR>  (44) 
1.047982

>  <Sum_NPR_1.07>  (44) 
False

>  <Sum_NPR_1.2>  (44) 
False

>  <MaxAbsEStateIndex>  (44) 
12.520892

>  <MaxEStateIndex>  (44) 
12.520892

>  <MinAbsEStateIndex>  (44) 
0.021731

>  <MinEStateIndex>  (44) 
-0.508879

>  <qed>  (44) 
0.524184

>  <MolWt>  (44) 
471.561

>  <HeavyAtomMolWt>  (44) 
442.329

>  <ExactMolWt>  (44) 
471.22704

>  <NumValenceElectrons>  (44) 
180

>  <NumRadicalElectrons>  (44) 
0

>  <MaxPartialCharge>  (44) 
0.254245

>  <MinPartialCharge>  (44) 
-0.457384

>  <MaxAbsPartialCharge>  (44) 
0.457384

>  <MinAbsPartialCharge>  (44) 
0.254245

>  <FpDensityMorgan1>  (44) 
1.028571

>  <FpDensityMorgan2>  (44) 
1.714286

>  <FpDensityMorgan3>  (44) 
2.371429

>  <BCUT2D_MWHI>  (44) 
16.480569

>  <BCUT2D_MWLOW>  (44) 
9.865395

>  <BCUT2D_CHGHI>  (44) 
2.352315

>  <BCUT2D_CHGLO>  (44) 
-2.377041

>  <BCUT2D_LOGPHI>  (44) 
2.39797

>  <BCUT2D_LOGPLOW>  (44) 
-2.407328

>  <BCUT2D_MRHI>  (44) 
6.034746

>  <BCUT2D_MRLOW>  (44) 
-0.127115

>  <AvgIpc>  (44) 
3.294127

>  <BalabanJ>  (44) 
1.412464

>  <BertzCT>  (44) 
1227.707584

>  <Chi0>  (44) 
24.363232

>  <Chi0n>  (44) 
19.521687

>  <Chi0v>  (44) 
19.521687

>  <Chi1>  (44) 
17.046045

>  <Chi1n>  (44) 
11.957252

>  <Chi1v>  (44) 
11.957252

>  <Chi2n>  (44) 
8.970165

>  <Chi2v>  (44) 
8.970165

>  <Chi3n>  (44) 
6.880251

>  <Chi3v>  (44) 
6.880251

>  <Chi4n>  (44) 
5.114586

>  <Chi4v>  (44) 
5.114586

>  <HallKierAlpha>  (44) 
-4.07

>  <Ipc>  (44) 
143203562.881165

>  <Kappa1>  (44) 
22.708904

>  <Kappa2>  (44) 
9.657311

>  <Kappa3>  (44) 
4.512617

>  <LabuteASA>  (44) 
203.917041

>  <PEOE_VSA1>  (44) 
20.687229

>  <PEOE_VSA10>  (44) 
28.574266

>  <PEOE_VSA11>  (44) 
0.0

>  <PEOE_VSA12>  (44) 
5.90718

>  <PEOE_VSA13>  (44) 
5.90718

>  <PEOE_VSA14>  (44) 
0.0

>  <PEOE_VSA2>  (44) 
9.589074

>  <PEOE_VSA3>  (44) 
4.681803

>  <PEOE_VSA4>  (44) 
5.098682

>  <PEOE_VSA5>  (44) 
0.0

>  <PEOE_VSA6>  (44) 
24.778037

>  <PEOE_VSA7>  (44) 
67.654593

>  <PEOE_VSA8>  (44) 
25.197721

>  <PEOE_VSA9>  (44) 
6.041841

>  <SMR_VSA1>  (44) 
14.325937

>  <SMR_VSA10>  (44) 
17.632222

>  <SMR_VSA2>  (44) 
0.0

>  <SMR_VSA3>  (44) 
14.680394

>  <SMR_VSA4>  (44) 
11.651574

>  <SMR_VSA5>  (44) 
25.304306

>  <SMR_VSA6>  (44) 
24.951058

>  <SMR_VSA7>  (44) 
72.815711

>  <SMR_VSA8>  (44) 
0.0

>  <SMR_VSA9>  (44) 
22.756403

>  <SlogP_VSA1>  (44) 
15.787319

>  <SlogP_VSA10>  (44) 
5.817863

>  <SlogP_VSA11>  (44) 
11.499024

>  <SlogP_VSA12>  (44) 
0.0

>  <SlogP_VSA2>  (44) 
46.129023

>  <SlogP_VSA3>  (44) 
4.794537

>  <SlogP_VSA4>  (44) 
5.917906

>  <SlogP_VSA5>  (44) 
35.662294

>  <SlogP_VSA6>  (44) 
67.252259

>  <SlogP_VSA7>  (44) 
0.0

>  <SlogP_VSA8>  (44) 
11.257379

>  <SlogP_VSA9>  (44) 
0.0

>  <EState_VSA1>  (44) 
5.90718

>  <EState_VSA10>  (44) 
9.589074

>  <EState_VSA11>  (44) 
0.0

>  <EState_VSA2>  (44) 
11.949021

>  <EState_VSA3>  (44) 
41.832173

>  <EState_VSA4>  (44) 
37.120185

>  <EState_VSA5>  (44) 
6.07602

>  <EState_VSA6>  (44) 
0.0

>  <EState_VSA7>  (44) 
64.179016

>  <EState_VSA8>  (44) 
11.895724

>  <EState_VSA9>  (44) 
15.569212

>  <VSA_EState1>  (44) 
7.841826

>  <VSA_EState10>  (44) 
0.0

>  <VSA_EState2>  (44) 
26.336451

>  <VSA_EState3>  (44) 
8.247751

>  <VSA_EState4>  (44) 
7.60696

>  <VSA_EState5>  (44) 
1.9579

>  <VSA_EState6>  (44) 
17.225897

>  <VSA_EState7>  (44) 
4.042562

>  <VSA_EState8>  (44) 
5.740653

>  <VSA_EState9>  (44) 
0.0

>  <FractionCSP3>  (44) 
0.296296

>  <HeavyAtomCount>  (44) 
35

>  <NHOHCount>  (44) 
3

>  <NOCount>  (44) 
8

>  <NumAliphaticCarbocycles>  (44) 
0

>  <NumAliphaticHeterocycles>  (44) 
2

>  <NumAliphaticRings>  (44) 
2

>  <NumAromaticCarbocycles>  (44) 
2

>  <NumAromaticHeterocycles>  (44) 
1

>  <NumAromaticRings>  (44) 
3

>  <NumHAcceptors>  (44) 
6

>  <NumHDonors>  (44) 
2

>  <NumHeteroatoms>  (44) 
8

>  <NumRotatableBonds>  (44) 
6

>  <NumSaturatedCarbocycles>  (44) 
0

>  <NumSaturatedHeterocycles>  (44) 
1

>  <NumSaturatedRings>  (44) 
1

>  <RingCount>  (44) 
5

>  <MolLogP>  (44) 
4.2226

>  <MolMR>  (44) 
134.3416

>  <fr_Al_COO>  (44) 
0

>  <fr_Al_OH>  (44) 
0

>  <fr_Al_OH_noTert>  (44) 
0

>  <fr_ArN>  (44) 
0

>  <fr_Ar_COO>  (44) 
0

>  <fr_Ar_N>  (44) 
2

>  <fr_Ar_NH>  (44) 
0

>  <fr_Ar_OH>  (44) 
0

>  <fr_COO>  (44) 
0

>  <fr_COO2>  (44) 
0

>  <fr_C_O>  (44) 
2

>  <fr_C_O_noCOO>  (44) 
2

>  <fr_C_S>  (44) 
0

>  <fr_HOCCN>  (44) 
0

>  <fr_Imine>  (44) 
0

>  <fr_NH0>  (44) 
3

>  <fr_NH1>  (44) 
1

>  <fr_NH2>  (44) 
1

>  <fr_N_O>  (44) 
0

>  <fr_Ndealkylation1>  (44) 
0

>  <fr_Ndealkylation2>  (44) 
1

>  <fr_Nhpyrrole>  (44) 
0

>  <fr_SH>  (44) 
0

>  <fr_aldehyde>  (44) 
0

>  <fr_alkyl_carbamate>  (44) 
0

>  <fr_alkyl_halide>  (44) 
0

>  <fr_allylic_oxid>  (44) 
0

>  <fr_amide>  (44) 
2

>  <fr_amidine>  (44) 
0

>  <fr_aniline>  (44) 
1

>  <fr_aryl_methyl>  (44) 
0

>  <fr_azide>  (44) 
0

>  <fr_azo>  (44) 
0

>  <fr_barbitur>  (44) 
0

>  <fr_benzene>  (44) 
2

>  <fr_benzodiazepine>  (44) 
0

>  <fr_bicyclic>  (44) 
1

>  <fr_diazo>  (44) 
0

>  <fr_dihydropyridine>  (44) 
0

>  <fr_epoxide>  (44) 
0

>  <fr_ester>  (44) 
0

>  <fr_ether>  (44) 
1

>  <fr_furan>  (44) 
0

>  <fr_guanido>  (44) 
0

>  <fr_halogen>  (44) 
0

>  <fr_hdrzine>  (44) 
0

>  <fr_hdrzone>  (44) 
0

>  <fr_imidazole>  (44) 
0

>  <fr_imide>  (44) 
0

>  <fr_isocyan>  (44) 
0

>  <fr_isothiocyan>  (44) 
0

>  <fr_ketone>  (44) 
0

>  <fr_ketone_Topliss>  (44) 
0

>  <fr_lactam>  (44) 
0

>  <fr_lactone>  (44) 
0

>  <fr_methoxy>  (44) 
0

>  <fr_morpholine>  (44) 
0

>  <fr_nitrile>  (44) 
0

>  <fr_nitro>  (44) 
0

>  <fr_nitro_arom>  (44) 
0

>  <fr_nitro_arom_nonortho>  (44) 
0

>  <fr_nitroso>  (44) 
0

>  <fr_oxazole>  (44) 
0

>  <fr_oxime>  (44) 
0

>  <fr_para_hydroxylation>  (44) 
1

>  <fr_phenol>  (44) 
0

>  <fr_phenol_noOrthoHbond>  (44) 
0

>  <fr_phos_acid>  (44) 
0

>  <fr_phos_ester>  (44) 
0

>  <fr_piperdine>  (44) 
1

>  <fr_piperzine>  (44) 
0

>  <fr_priamide>  (44) 
1

>  <fr_prisulfonamd>  (44) 
0

>  <fr_pyridine>  (44) 
0

>  <fr_quatN>  (44) 
0

>  <fr_sulfide>  (44) 
0

>  <fr_sulfonamd>  (44) 
0

>  <fr_sulfone>  (44) 
0

>  <fr_term_acetylene>  (44) 
0

>  <fr_tetrazole>  (44) 
0

>  <fr_thiazole>  (44) 
0

>  <fr_thiocyan>  (44) 
0

>  <fr_thiophene>  (44) 
0

>  <fr_unbrch_alkane>  (44) 
0

>  <fr_urea>  (44) 
0

>  <NP_Likeness>  (44) 
-0.592054

$$$$
nan
     RDKit          3D

  0  0  0  0  0  0  0  0  0  0999 V3000
M  V30 BEGIN CTAB
M  V30 COUNTS 46 49 0 0 0
M  V30 BEGIN ATOM
M  V30 1 C -3.741771 0.339360 -0.594639 0
M  V30 2 C -2.269753 0.031063 -0.754925 0
M  V30 3 C -1.843796 -1.102375 0.130784 0 CFG=2
M  V30 4 C -2.032560 -0.895875 1.569076 0
M  V30 5 N -0.791871 -1.251989 2.189512 0
M  V30 6 C -0.162178 -0.777605 3.386621 0
M  V30 7 O 0.946638 -1.246705 3.738862 0
M  V30 8 N -0.761105 0.215562 4.192189 0
M  V30 9 C -0.295440 0.815573 5.407983 0
M  V30 10 C 1.015476 1.546645 5.277456 0
M  V30 11 F 2.047000 0.758314 4.873989 0
M  V30 12 F 1.285407 2.062643 6.551262 0
M  V30 13 F 0.860058 2.656313 4.451585 0
M  V30 14 C -0.263965 -2.266441 1.303732 0
M  V30 15 C -0.472416 -1.598826 -0.078347 0 CFG=2
M  V30 16 C 0.587858 -0.624824 -0.192710 0
M  V30 17 C 0.534579 0.571363 0.491798 0
M  V30 18 N 1.627546 1.308691 0.229296 0
M  V30 19 C 2.414214 0.619563 -0.624250 0
M  V30 20 C 3.632720 0.897556 -1.210549 0
M  V30 21 N 4.192440 -0.002937 -2.037320 0
M  V30 22 C 3.557304 -1.164403 -2.282532 0
M  V30 23 N 3.946746 -2.190003 -3.066723 0
M  V30 24 C 2.943966 -3.110409 -2.953901 0
M  V30 25 C 1.970119 -2.631208 -2.109446 0
M  V30 26 C 2.354608 -1.389827 -1.677642 0
M  V30 27 N 1.752844 -0.530937 -0.848884 0
M  V30 28 H -3.950633 1.401193 -0.867456 0
M  V30 29 H -4.092366 0.183217 0.451155 0
M  V30 30 H -4.387266 -0.300242 -1.224537 0
M  V30 31 H -2.160087 -0.333237 -1.814804 0
M  V30 32 H -1.614392 0.920228 -0.709834 0
M  V30 33 H -2.536444 -1.977040 -0.132372 0
M  V30 34 H -2.834118 -1.546542 2.014159 0
M  V30 35 H -2.230075 0.167880 1.864812 0
M  V30 36 H -1.692359 0.559791 3.833463 0
M  V30 37 H -0.108296 -0.017591 6.154794 0
M  V30 38 H -1.027612 1.474940 5.879116 0
M  V30 39 H -0.862796 -3.187137 1.376626 0
M  V30 40 H 0.793985 -2.388162 1.520681 0
M  V30 41 H -0.521616 -2.384320 -0.854427 0
M  V30 42 H -0.139794 1.043191 1.158374 0
M  V30 43 H 4.119292 1.837192 -0.995448 0
M  V30 44 H 4.846286 -2.216754 -3.624348 0
M  V30 45 H 3.083640 -4.031934 -3.531452 0
M  V30 46 H 1.168282 -3.289425 -1.972877 0
M  V30 END ATOM
M  V30 BEGIN BOND
M  V30 1 1 1 2
M  V30 2 1 2 3
M  V30 3 1 3 4
M  V30 4 1 4 5
M  V30 5 1 5 6
M  V30 6 2 6 7
M  V30 7 1 6 8
M  V30 8 1 8 9
M  V30 9 1 9 10
M  V30 10 1 10 11
M  V30 11 1 10 12
M  V30 12 1 10 13
M  V30 13 1 5 14
M  V30 14 1 14 15
M  V30 15 1 15 16
M  V30 16 2 16 17
M  V30 17 1 17 18
M  V30 18 2 18 19
M  V30 19 1 19 20
M  V30 20 2 20 21
M  V30 21 1 21 22
M  V30 22 1 22 23
M  V30 23 1 23 24
M  V30 24 2 24 25
M  V30 25 1 25 26
M  V30 26 1 26 27
M  V30 27 1 15 3
M  V30 28 1 27 16
M  V30 29 1 27 19
M  V30 30 2 26 22
M  V30 31 1 1 28
M  V30 32 1 1 29
M  V30 33 1 1 30
M  V30 34 1 2 31
M  V30 35 1 2 32
M  V30 36 1 3 33 CFG=3
M  V30 37 1 4 34
M  V30 38 1 4 35
M  V30 39 1 8 36
M  V30 40 1 9 37
M  V30 41 1 9 38
M  V30 42 1 14 39
M  V30 43 1 14 40
M  V30 44 1 15 41 CFG=3
M  V30 45 1 17 42
M  V30 46 1 20 43
M  V30 47 1 23 44
M  V30 48 1 24 45
M  V30 49 1 25 46
M  V30 END BOND
M  V30 END CTAB
M  END
>  <Dataset>  (45) 
PKIs

>  <Ligand_Instance>  (45) 
nan

>  <PDB_ID>  (45) 
nan

>  <Standardized_SMILES>  (45) 
CC[C@@H]1CN(C(=O)NCC(F)(F)F)C[C@@H]1c1cnc2cnc3[nH]ccc3n12

>  <Name>  (45) 
Upadacitinib

>  <Pocket>  (45) 
nan

>  <ATP_Site>  (45) 
nan

>  <Peripheral>  (45) 
nan

>  <Num_H_Atoms_ProtBoundConf>  (45) 
nan

>  <Num_Resolved_Atoms>  (45) 
nan

>  <Num_Not_Resolved_Atoms>  (45) 
nan

>  <2D_Mol_H>  (45) 
<rdkit.Chem.rdchem.Mol object at 0x72a239113ae0>

>  <MW>  (45) 
380.374

>  <HBA>  (45) 
4

>  <HBD>  (45) 
2

>  <LogP>  (45) 
2.9079

>  <NRB>  (45) 
4

>  <TPSA>  (45) 
78.32

>  <Num_Heavy_Atoms>  (45) 
27

>  <Ro5>  (45) 
[True, True, True, True, True, True]

>  <Ro5_Fulfilled>  (45) 
True

>  <Ro3>  (45) 
[False, False, True, True]

>  <Ro3_Fulfilled>  (45) 
False

>  <Fsp3>  (45) 
0.470588

>  <Fsp3_0.42>  (45) 
True

>  <Fsp3_0.45>  (45) 
True

>  <Stereogenic_Carbons>  (45) 
2

>  <C_Atoms>  (45) 
17

>  <FCStereo>  (45) 
0.117647

>  <SPS>  (45) 
558

>  <nSPS>  (45) 
20.666667

>  <PBF>  (45) 
1.087411

>  <PBF_0.6>  (45) 
True

>  <nPBF>  (45) 
0.040274

>  <nPBF_0.016>  (45) 
True

>  <PMI1>  (45) 
1825.167939

>  <PMI2>  (45) 
4165.106225

>  <PMI3>  (45) 
5076.543142

>  <NPR1>  (45) 
0.35953

>  <NPR2>  (45) 
0.820461

>  <Sum_NPR>  (45) 
1.179991

>  <Sum_NPR_1.07>  (45) 
True

>  <Sum_NPR_1.2>  (45) 
False

>  <MaxAbsEStateIndex>  (45) 
12.384279

>  <MaxEStateIndex>  (45) 
12.384279

>  <MinAbsEStateIndex>  (45) 
0.01191

>  <MinEStateIndex>  (45) 
-4.42313

>  <qed>  (45) 
0.733445

>  <MolWt>  (45) 
380.374

>  <HeavyAtomMolWt>  (45) 
361.222

>  <ExactMolWt>  (45) 
380.157244

>  <NumValenceElectrons>  (45) 
144

>  <NumRadicalElectrons>  (45) 
0

>  <MaxPartialCharge>  (45) 
0.405335

>  <MinPartialCharge>  (45) 
-0.344852

>  <MaxAbsPartialCharge>  (45) 
0.405335

>  <MinAbsPartialCharge>  (45) 
0.344852

>  <FpDensityMorgan1>  (45) 
1.333333

>  <FpDensityMorgan2>  (45) 
2.148148

>  <FpDensityMorgan3>  (45) 
2.888889

>  <BCUT2D_MWHI>  (45) 
19.413187

>  <BCUT2D_MWLOW>  (45) 
9.909495

>  <BCUT2D_CHGHI>  (45) 
2.377618

>  <BCUT2D_CHGLO>  (45) 
-2.177978

>  <BCUT2D_LOGPHI>  (45) 
2.354778

>  <BCUT2D_LOGPLOW>  (45) 
-2.423734

>  <BCUT2D_MRHI>  (45) 
5.756616

>  <BCUT2D_MRLOW>  (45) 
-0.122669

>  <AvgIpc>  (45) 
3.333214

>  <BalabanJ>  (45) 
1.625675

>  <BertzCT>  (45) 
978.019827

>  <Chi0>  (45) 
19.181434

>  <Chi0n>  (45) 
14.623525

>  <Chi0v>  (45) 
14.623525

>  <Chi1>  (45) 
12.870323

>  <Chi1n>  (45) 
8.760566

>  <Chi1v>  (45) 
8.760566

>  <Chi2n>  (45) 
6.800078

>  <Chi2v>  (45) 
6.800078

>  <Chi3n>  (45) 
5.142849

>  <Chi3v>  (45) 
5.142849

>  <Chi4n>  (45) 
3.827131

>  <Chi4v>  (45) 
3.827131

>  <HallKierAlpha>  (45) 
-2.78

>  <Ipc>  (45) 
1853940.266859

>  <Kappa1>  (45) 
17.624724

>  <Kappa2>  (45) 
6.431524

>  <Kappa3>  (45) 
3.193429

>  <LabuteASA>  (45) 
152.126156

>  <PEOE_VSA1>  (45) 
15.200677

>  <PEOE_VSA10>  (45) 
6.544756

>  <PEOE_VSA11>  (45) 
11.294354

>  <PEOE_VSA12>  (45) 
0.0

>  <PEOE_VSA13>  (45) 
0.0

>  <PEOE_VSA14>  (45) 
12.207413

>  <PEOE_VSA2>  (45) 
4.400695

>  <PEOE_VSA3>  (45) 
14.762494

>  <PEOE_VSA4>  (45) 
13.171245

>  <PEOE_VSA5>  (45) 
0.0

>  <PEOE_VSA6>  (45) 
13.344559

>  <PEOE_VSA7>  (45) 
11.984273

>  <PEOE_VSA8>  (45) 
37.095034

>  <PEOE_VSA9>  (45) 
11.713544

>  <SMR_VSA1>  (45) 
17.965782

>  <SMR_VSA10>  (45) 
22.84217

>  <SMR_VSA2>  (45) 
0.0

>  <SMR_VSA3>  (45) 
29.569329

>  <SMR_VSA4>  (45) 
5.917906

>  <SMR_VSA5>  (45) 
25.438763

>  <SMR_VSA6>  (45) 
19.634269

>  <SMR_VSA7>  (45) 
30.350826

>  <SMR_VSA8>  (45) 
0.0

>  <SMR_VSA9>  (45) 
0.0

>  <SlogP_VSA1>  (45) 
5.316789

>  <SlogP_VSA10>  (45) 
17.965782

>  <SlogP_VSA11>  (45) 
0.0

>  <SlogP_VSA12>  (45) 
0.0

>  <SlogP_VSA2>  (45) 
56.094222

>  <SlogP_VSA3>  (45) 
0.0

>  <SlogP_VSA4>  (45) 
5.917906

>  <SlogP_VSA5>  (45) 
24.956393

>  <SlogP_VSA6>  (45) 
24.656898

>  <SlogP_VSA7>  (45) 
0.0

>  <SlogP_VSA8>  (45) 
16.811055

>  <SlogP_VSA9>  (45) 
0.0

>  <EState_VSA1>  (45) 
18.752169

>  <EState_VSA10>  (45) 
17.965782

>  <EState_VSA11>  (45) 
0.0

>  <EState_VSA2>  (45) 
11.835812

>  <EState_VSA3>  (45) 
18.73669

>  <EState_VSA4>  (45) 
23.278628

>  <EState_VSA5>  (45) 
4.89991

>  <EState_VSA6>  (45) 
18.590531

>  <EState_VSA7>  (45) 
22.707587

>  <EState_VSA8>  (45) 
14.951936

>  <EState_VSA9>  (45) 
0.0

>  <VSA_EState1>  (45) 
39.15609

>  <VSA_EState10>  (45) 
0.0

>  <VSA_EState2>  (45) 
25.438021

>  <VSA_EState3>  (45) 
1.962262

>  <VSA_EState4>  (45) 
3.253977

>  <VSA_EState5>  (45) 
0.130399

>  <VSA_EState6>  (45) 
1.222297

>  <VSA_EState7>  (45) 
1.624472

>  <VSA_EState8>  (45) 
1.462482

>  <VSA_EState9>  (45) 
0.0

>  <FractionCSP3>  (45) 
0.470588

>  <HeavyAtomCount>  (45) 
27

>  <NHOHCount>  (45) 
2

>  <NOCount>  (45) 
7

>  <NumAliphaticCarbocycles>  (45) 
0

>  <NumAliphaticHeterocycles>  (45) 
1

>  <NumAliphaticRings>  (45) 
1

>  <NumAromaticCarbocycles>  (45) 
0

>  <NumAromaticHeterocycles>  (45) 
3

>  <NumAromaticRings>  (45) 
3

>  <NumHAcceptors>  (45) 
4

>  <NumHDonors>  (45) 
2

>  <NumHeteroatoms>  (45) 
10

>  <NumRotatableBonds>  (45) 
3

>  <NumSaturatedCarbocycles>  (45) 
0

>  <NumSaturatedHeterocycles>  (45) 
1

>  <NumSaturatedRings>  (45) 
1

>  <RingCount>  (45) 
4

>  <MolLogP>  (45) 
2.9079

>  <MolMR>  (45) 
92.3924

>  <fr_Al_COO>  (45) 
0

>  <fr_Al_OH>  (45) 
0

>  <fr_Al_OH_noTert>  (45) 
0

>  <fr_ArN>  (45) 
0

>  <fr_Ar_COO>  (45) 
0

>  <fr_Ar_N>  (45) 
4

>  <fr_Ar_NH>  (45) 
1

>  <fr_Ar_OH>  (45) 
0

>  <fr_COO>  (45) 
0

>  <fr_COO2>  (45) 
0

>  <fr_C_O>  (45) 
1

>  <fr_C_O_noCOO>  (45) 
1

>  <fr_C_S>  (45) 
0

>  <fr_HOCCN>  (45) 
0

>  <fr_Imine>  (45) 
0

>  <fr_NH0>  (45) 
4

>  <fr_NH1>  (45) 
2

>  <fr_NH2>  (45) 
0

>  <fr_N_O>  (45) 
0

>  <fr_Ndealkylation1>  (45) 
0

>  <fr_Ndealkylation2>  (45) 
1

>  <fr_Nhpyrrole>  (45) 
1

>  <fr_SH>  (45) 
0

>  <fr_aldehyde>  (45) 
0

>  <fr_alkyl_carbamate>  (45) 
0

>  <fr_alkyl_halide>  (45) 
3

>  <fr_allylic_oxid>  (45) 
0

>  <fr_amide>  (45) 
2

>  <fr_amidine>  (45) 
0

>  <fr_aniline>  (45) 
0

>  <fr_aryl_methyl>  (45) 
0

>  <fr_azide>  (45) 
0

>  <fr_azo>  (45) 
0

>  <fr_barbitur>  (45) 
0

>  <fr_benzene>  (45) 
0

>  <fr_benzodiazepine>  (45) 
0

>  <fr_bicyclic>  (45) 
3

>  <fr_diazo>  (45) 
0

>  <fr_dihydropyridine>  (45) 
0

>  <fr_epoxide>  (45) 
0

>  <fr_ester>  (45) 
0

>  <fr_ether>  (45) 
0

>  <fr_furan>  (45) 
0

>  <fr_guanido>  (45) 
0

>  <fr_halogen>  (45) 
3

>  <fr_hdrzine>  (45) 
0

>  <fr_hdrzone>  (45) 
0

>  <fr_imidazole>  (45) 
1

>  <fr_imide>  (45) 
0

>  <fr_isocyan>  (45) 
0

>  <fr_isothiocyan>  (45) 
0

>  <fr_ketone>  (45) 
0

>  <fr_ketone_Topliss>  (45) 
0

>  <fr_lactam>  (45) 
0

>  <fr_lactone>  (45) 
0

>  <fr_methoxy>  (45) 
0

>  <fr_morpholine>  (45) 
0

>  <fr_nitrile>  (45) 
0

>  <fr_nitro>  (45) 
0

>  <fr_nitro_arom>  (45) 
0

>  <fr_nitro_arom_nonortho>  (45) 
0

>  <fr_nitroso>  (45) 
0

>  <fr_oxazole>  (45) 
0

>  <fr_oxime>  (45) 
0

>  <fr_para_hydroxylation>  (45) 
0

>  <fr_phenol>  (45) 
0

>  <fr_phenol_noOrthoHbond>  (45) 
0

>  <fr_phos_acid>  (45) 
0

>  <fr_phos_ester>  (45) 
0

>  <fr_piperdine>  (45) 
0

>  <fr_piperzine>  (45) 
0

>  <fr_priamide>  (45) 
0

>  <fr_prisulfonamd>  (45) 
0

>  <fr_pyridine>  (45) 
0

>  <fr_quatN>  (45) 
0

>  <fr_sulfide>  (45) 
0

>  <fr_sulfonamd>  (45) 
0

>  <fr_sulfone>  (45) 
0

>  <fr_term_acetylene>  (45) 
0

>  <fr_tetrazole>  (45) 
0

>  <fr_thiazole>  (45) 
0

>  <fr_thiocyan>  (45) 
0

>  <fr_thiophene>  (45) 
0

>  <fr_unbrch_alkane>  (45) 
0

>  <fr_urea>  (45) 
1

>  <NP_Likeness>  (45) 
-1.098933

$$$$
nan
     RDKit          3D

  0  0  0  0  0  0  0  0  0  0999 V3000
M  V30 BEGIN CTAB
M  V30 COUNTS 73 76 0 0 0
M  V30 BEGIN ATOM
M  V30 1 C 2.670109 -3.800443 4.811923 0
M  V30 2 C 2.795712 -2.393248 4.405098 0
M  V30 3 C 2.925116 -1.290231 5.222581 0
M  V30 4 N 3.030483 -0.068078 4.724819 0
M  V30 5 C 3.017947 0.186967 3.385670 0
M  V30 6 N 3.104794 1.474071 2.761309 0
M  V30 7 C 1.840627 2.026610 2.422226 0
M  V30 8 C 0.681434 1.365630 2.765957 0
M  V30 9 C -0.568230 1.895431 2.416146 0
M  V30 10 C -0.592081 3.088128 1.724155 0
M  V30 11 O -1.701113 3.629370 1.371097 0
M  V30 12 C -2.825370 4.176564 1.014054 0
M  V30 13 C -3.747351 3.367910 0.097786 0
M  V30 14 N -3.113769 3.055631 -1.149322 0
M  V30 15 C -2.056085 2.125800 -1.030343 0
M  V30 16 C -2.155262 1.103798 -2.151980 0
M  V30 17 C -3.412524 1.437595 -2.881705 0
M  V30 18 C -4.070705 2.518790 -2.079282 0
M  V30 19 C 0.587608 3.757589 1.377478 0
M  V30 20 C 1.830400 3.218700 1.731976 0
M  V30 21 N 2.891738 -0.877145 2.538904 0
M  V30 22 C 2.783458 -2.134672 3.043126 0
M  V30 23 N 2.646225 -3.088168 1.975143 0
M  V30 24 C 1.304667 -3.223678 1.561709 0
M  V30 25 C 0.224442 -2.637176 2.184630 0
M  V30 26 C -1.102094 -2.716661 1.830874 0
M  V30 27 C -1.367058 -3.486866 0.704975 0
M  V30 28 C -0.351922 -4.116937 0.008708 0
M  V30 29 S -0.830440 -5.051685 -1.388924 0
M  V30 30 O 0.102360 -6.221547 -1.496318 0
M  V30 31 O -2.194820 -5.651240 -1.094229 0
M  V30 32 N -0.971269 -4.142898 -2.793553 0
M  V30 33 C 0.163573 -3.477711 -3.306624 0
M  V30 34 C 0.812009 -2.467583 -2.419335 0
M  V30 35 C -0.331470 -2.730383 -4.560608 0
M  V30 36 C 1.238522 -4.404776 -3.837479 0
M  V30 37 C 0.946331 -3.969807 0.452346 0
M  V30 38 H 3.026113 -4.468617 4.026933 0
M  V30 39 H 3.355480 -3.977560 5.690901 0
M  V30 40 H 1.622977 -3.999315 5.140763 0
M  V30 41 H 2.936594 -1.485183 6.284041 0
M  V30 42 H 4.000057 1.964759 2.572329 0
M  V30 43 H 0.667698 0.415244 3.316375 0
M  V30 44 H -1.486051 1.374818 2.685837 0
M  V30 45 H -2.644935 5.140783 0.441077 0
M  V30 46 H -3.459688 4.431491 1.920411 0
M  V30 47 H -4.014305 2.459837 0.686711 0
M  V30 48 H -4.679676 3.964967 -0.037928 0
M  V30 49 H -2.213176 1.559579 -0.076029 0
M  V30 50 H -1.065981 2.627364 -1.067661 0
M  V30 51 H -2.240190 0.054601 -1.752494 0
M  V30 52 H -1.250579 1.123115 -2.814763 0
M  V30 53 H -4.116862 0.562804 -2.913516 0
M  V30 54 H -3.247791 1.702185 -3.948217 0
M  V30 55 H -4.904472 2.092986 -1.448897 0
M  V30 56 H -4.516687 3.314468 -2.725279 0
M  V30 57 H 0.574692 4.690873 0.837551 0
M  V30 58 H 2.747576 3.732383 1.464811 0
M  V30 59 H 3.358702 -3.657070 1.494936 0
M  V30 60 H 0.416722 -2.026551 3.074329 0
M  V30 61 H -1.874703 -2.214362 2.391792 0
M  V30 62 H -2.407376 -3.565425 0.404029 0
M  V30 63 H -1.543521 -4.533230 -3.543326 0
M  V30 64 H 1.049198 -1.560008 -3.011489 0
M  V30 65 H 0.148286 -2.104268 -1.607223 0
M  V30 66 H 1.786463 -2.859683 -2.075299 0
M  V30 67 H -1.377272 -2.387282 -4.440541 0
M  V30 68 H -0.268058 -3.335917 -5.463510 0
M  V30 69 H 0.281589 -1.821622 -4.734037 0
M  V30 70 H 0.976628 -4.783776 -4.857586 0
M  V30 71 H 1.560549 -5.173173 -3.134946 0
M  V30 72 H 2.137511 -3.750569 -4.020958 0
M  V30 73 H 1.699233 -4.491920 -0.138987 0
M  V30 END ATOM
M  V30 BEGIN BOND
M  V30 1 1 1 2
M  V30 2 2 2 3
M  V30 3 1 3 4
M  V30 4 2 4 5
M  V30 5 1 5 6
M  V30 6 1 6 7
M  V30 7 2 7 8
M  V30 8 1 8 9
M  V30 9 2 9 10
M  V30 10 1 10 11
M  V30 11 1 11 12
M  V30 12 1 12 13
M  V30 13 1 13 14
M  V30 14 1 14 15
M  V30 15 1 15 16
M  V30 16 1 16 17
M  V30 17 1 17 18
M  V30 18 1 10 19
M  V30 19 2 19 20
M  V30 20 1 5 21
M  V30 21 2 21 22
M  V30 22 1 22 23
M  V30 23 1 23 24
M  V30 24 2 24 25
M  V30 25 1 25 26
M  V30 26 2 26 27
M  V30 27 1 27 28
M  V30 28 1 28 29
M  V30 29 2 29 30
M  V30 30 2 29 31
M  V30 31 1 29 32
M  V30 32 1 32 33
M  V30 33 1 33 34
M  V30 34 1 33 35
M  V30 35 1 33 36
M  V30 36 2 28 37
M  V30 37 1 22 2
M  V30 38 1 37 24
M  V30 39 1 20 7
M  V30 40 1 18 14
M  V30 41 1 1 38
M  V30 42 1 1 39
M  V30 43 1 1 40
M  V30 44 1 3 41
M  V30 45 1 6 42
M  V30 46 1 8 43
M  V30 47 1 9 44
M  V30 48 1 12 45
M  V30 49 1 12 46
M  V30 50 1 13 47
M  V30 51 1 13 48
M  V30 52 1 15 49
M  V30 53 1 15 50
M  V30 54 1 16 51
M  V30 55 1 16 52
M  V30 56 1 17 53
M  V30 57 1 17 54
M  V30 58 1 18 55
M  V30 59 1 18 56
M  V30 60 1 19 57
M  V30 61 1 20 58
M  V30 62 1 23 59
M  V30 63 1 25 60
M  V30 64 1 26 61
M  V30 65 1 27 62
M  V30 66 1 32 63
M  V30 67 1 34 64
M  V30 68 1 34 65
M  V30 69 1 34 66
M  V30 70 1 35 67
M  V30 71 1 35 68
M  V30 72 1 35 69
M  V30 73 1 36 70
M  V30 74 1 36 71
M  V30 75 1 36 72
M  V30 76 1 37 73
M  V30 END BOND
M  V30 END CTAB
M  END
>  <Dataset>  (46) 
PKIs

>  <Ligand_Instance>  (46) 
nan

>  <PDB_ID>  (46) 
nan

>  <Standardized_SMILES>  (46) 
Cc1cnc(Nc2ccc(OCCN3CCCC3)cc2)nc1Nc1cccc(S(=O)(=O)NC(C)(C)C)c1

>  <Name>  (46) 
Fedratinib

>  <Pocket>  (46) 
nan

>  <ATP_Site>  (46) 
nan

>  <Peripheral>  (46) 
nan

>  <Num_H_Atoms_ProtBoundConf>  (46) 
nan

>  <Num_Resolved_Atoms>  (46) 
nan

>  <Num_Not_Resolved_Atoms>  (46) 
nan

>  <2D_Mol_H>  (46) 
<rdkit.Chem.rdchem.Mol object at 0x72a239113bc0>

>  <MW>  (46) 
524.691

>  <HBA>  (46) 
8

>  <HBD>  (46) 
3

>  <LogP>  (46) 
4.82362

>  <NRB>  (46) 
11

>  <TPSA>  (46) 
108.48

>  <Num_Heavy_Atoms>  (46) 
37

>  <Ro5>  (46) 
[False, True, True, True, False, True]

>  <Ro5_Fulfilled>  (46) 
False

>  <Ro3>  (46) 
[False, False, True, False]

>  <Ro3_Fulfilled>  (46) 
False

>  <Fsp3>  (46) 
0.407407

>  <Fsp3_0.42>  (46) 
False

>  <Fsp3_0.45>  (46) 
False

>  <Stereogenic_Carbons>  (46) 
0

>  <C_Atoms>  (46) 
27

>  <FCStereo>  (46) 
0.0

>  <SPS>  (46) 
536

>  <nSPS>  (46) 
14.486486

>  <PBF>  (46) 
1.2321

>  <PBF_0.6>  (46) 
True

>  <nPBF>  (46) 
0.0333

>  <nPBF_0.016>  (46) 
True

>  <PMI1>  (46) 
5459.585536

>  <PMI2>  (46) 
6506.228028

>  <PMI3>  (46) 
10406.043965

>  <NPR1>  (46) 
0.524655

>  <NPR2>  (46) 
0.625235

>  <Sum_NPR>  (46) 
1.149891

>  <Sum_NPR_1.07>  (46) 
True

>  <Sum_NPR_1.2>  (46) 
False

>  <MaxAbsEStateIndex>  (46) 
12.733379

>  <MaxEStateIndex>  (46) 
12.733379

>  <MinAbsEStateIndex>  (46) 
0.18076

>  <MinEStateIndex>  (46) 
-3.653506

>  <qed>  (46) 
0.346333

>  <MolWt>  (46) 
524.691

>  <HeavyAtomMolWt>  (46) 
488.403

>  <ExactMolWt>  (46) 
524.25696

>  <NumValenceElectrons>  (46) 
198

>  <NumRadicalElectrons>  (46) 
0

>  <MaxPartialCharge>  (46) 
0.240617

>  <MinPartialCharge>  (46) 
-0.492262

>  <MaxAbsPartialCharge>  (46) 
0.492262

>  <MinAbsPartialCharge>  (46) 
0.240617

>  <FpDensityMorgan1>  (46) 
1.0

>  <FpDensityMorgan2>  (46) 
1.72973

>  <FpDensityMorgan3>  (46) 
2.432432

>  <BCUT2D_MWHI>  (46) 
32.233274

>  <BCUT2D_MWLOW>  (46) 
10.144259

>  <BCUT2D_CHGHI>  (46) 
2.219131

>  <BCUT2D_CHGLO>  (46) 
-2.203238

>  <BCUT2D_LOGPHI>  (46) 
2.241397

>  <BCUT2D_LOGPLOW>  (46) 
-2.399678

>  <BCUT2D_MRHI>  (46) 
7.891637

>  <BCUT2D_MRLOW>  (46) 
0.237566

>  <AvgIpc>  (46) 
3.346973

>  <BalabanJ>  (46) 
1.393841

>  <BertzCT>  (46) 
1300.461916

>  <Chi0>  (46) 
26.468045

>  <Chi0n>  (46) 
21.913427

>  <Chi0v>  (46) 
22.729924

>  <Chi1>  (46) 
17.571431

>  <Chi1n>  (46) 
12.543493

>  <Chi1v>  (46) 
14.026656

>  <Chi2n>  (46) 
10.280146

>  <Chi2v>  (46) 
11.962548

>  <Chi3n>  (46) 
5.804722

>  <Chi3v>  (46) 
7.560359

>  <Chi4n>  (46) 
4.030982

>  <Chi4v>  (46) 
5.494857

>  <HallKierAlpha>  (46) 
-3.21

>  <Ipc>  (46) 
165392195.100121

>  <Kappa1>  (46) 
26.841788

>  <Kappa2>  (46) 
11.453003

>  <Kappa3>  (46) 
7.884603

>  <LabuteASA>  (46) 
219.277161

>  <PEOE_VSA1>  (46) 
15.37044

>  <PEOE_VSA10>  (46) 
18.174257

>  <PEOE_VSA11>  (46) 
0.0

>  <PEOE_VSA12>  (46) 
15.97163

>  <PEOE_VSA13>  (46) 
0.0

>  <PEOE_VSA14>  (46) 
0.0

>  <PEOE_VSA2>  (46) 
4.89991

>  <PEOE_VSA3>  (46) 
18.12387

>  <PEOE_VSA4>  (46) 
4.983979

>  <PEOE_VSA5>  (46) 
0.0

>  <PEOE_VSA6>  (46) 
6.066367

>  <PEOE_VSA7>  (46) 
96.090674

>  <PEOE_VSA8>  (46) 
35.218749

>  <PEOE_VSA9>  (46) 
4.895483

>  <SMR_VSA1>  (46) 
13.15466

>  <SMR_VSA10>  (46) 
33.164266

>  <SMR_VSA2>  (46) 
0.0

>  <SMR_VSA3>  (46) 
19.589962

>  <SMR_VSA4>  (46) 
0.0

>  <SMR_VSA5>  (46) 
50.971001

>  <SMR_VSA6>  (46) 
36.874728

>  <SMR_VSA7>  (46) 
60.291232

>  <SMR_VSA8>  (46) 
0.0

>  <SMR_VSA9>  (46) 
5.749512

>  <SlogP_VSA1>  (46) 
20.092535

>  <SlogP_VSA10>  (46) 
23.140975

>  <SlogP_VSA11>  (46) 
5.749512

>  <SlogP_VSA12>  (46) 
0.0

>  <SlogP_VSA2>  (46) 
55.06574

>  <SlogP_VSA3>  (46) 
10.023291

>  <SlogP_VSA4>  (46) 
6.923737

>  <SlogP_VSA5>  (46) 
39.176306

>  <SlogP_VSA6>  (46) 
59.623264

>  <SlogP_VSA7>  (46) 
0.0

>  <SlogP_VSA8>  (46) 
0.0

>  <SlogP_VSA9>  (46) 
0.0

>  <EState_VSA1>  (46) 
15.562216

>  <EState_VSA10>  (46) 
8.417797

>  <EState_VSA11>  (46) 
0.0

>  <EState_VSA2>  (46) 
4.895483

>  <EState_VSA3>  (46) 
24.06047

>  <EState_VSA4>  (46) 
23.545106

>  <EState_VSA5>  (46) 
25.931156

>  <EState_VSA6>  (46) 
30.462312

>  <EState_VSA7>  (46) 
51.960417

>  <EState_VSA8>  (46) 
30.223539

>  <EState_VSA9>  (46) 
4.736863

>  <VSA_EState1>  (46) 
34.019445

>  <VSA_EState10>  (46) 
0.0

>  <VSA_EState2>  (46) 
11.584871

>  <VSA_EState3>  (46) 
6.436612

>  <VSA_EState4>  (46) 
1.695071

>  <VSA_EState5>  (46) 
1.832762

>  <VSA_EState6>  (46) 
14.366892

>  <VSA_EState7>  (46) 
4.276849

>  <VSA_EState8>  (46) 
11.274336

>  <VSA_EState9>  (46) 
-3.653506

>  <FractionCSP3>  (46) 
0.407407

>  <HeavyAtomCount>  (46) 
37

>  <NHOHCount>  (46) 
3

>  <NOCount>  (46) 
9

>  <NumAliphaticCarbocycles>  (46) 
0

>  <NumAliphaticHeterocycles>  (46) 
1

>  <NumAliphaticRings>  (46) 
1

>  <NumAromaticCarbocycles>  (46) 
2

>  <NumAromaticHeterocycles>  (46) 
1

>  <NumAromaticRings>  (46) 
3

>  <NumHAcceptors>  (46) 
8

>  <NumHDonors>  (46) 
3

>  <NumHeteroatoms>  (46) 
10

>  <NumRotatableBonds>  (46) 
10

>  <NumSaturatedCarbocycles>  (46) 
0

>  <NumSaturatedHeterocycles>  (46) 
1

>  <NumSaturatedRings>  (46) 
1

>  <RingCount>  (46) 
4

>  <MolLogP>  (46) 
4.82362

>  <MolMR>  (46) 
147.4619

>  <fr_Al_COO>  (46) 
0

>  <fr_Al_OH>  (46) 
0

>  <fr_Al_OH_noTert>  (46) 
0

>  <fr_ArN>  (46) 
0

>  <fr_Ar_COO>  (46) 
0

>  <fr_Ar_N>  (46) 
2

>  <fr_Ar_NH>  (46) 
0

>  <fr_Ar_OH>  (46) 
0

>  <fr_COO>  (46) 
0

>  <fr_COO2>  (46) 
0

>  <fr_C_O>  (46) 
0

>  <fr_C_O_noCOO>  (46) 
0

>  <fr_C_S>  (46) 
0

>  <fr_HOCCN>  (46) 
0

>  <fr_Imine>  (46) 
0

>  <fr_NH0>  (46) 
3

>  <fr_NH1>  (46) 
3

>  <fr_NH2>  (46) 
0

>  <fr_N_O>  (46) 
0

>  <fr_Ndealkylation1>  (46) 
0

>  <fr_Ndealkylation2>  (46) 
1

>  <fr_Nhpyrrole>  (46) 
0

>  <fr_SH>  (46) 
0

>  <fr_aldehyde>  (46) 
0

>  <fr_alkyl_carbamate>  (46) 
0

>  <fr_alkyl_halide>  (46) 
0

>  <fr_allylic_oxid>  (46) 
0

>  <fr_amide>  (46) 
0

>  <fr_amidine>  (46) 
0

>  <fr_aniline>  (46) 
4

>  <fr_aryl_methyl>  (46) 
1

>  <fr_azide>  (46) 
0

>  <fr_azo>  (46) 
0

>  <fr_barbitur>  (46) 
0

>  <fr_benzene>  (46) 
2

>  <fr_benzodiazepine>  (46) 
0

>  <fr_bicyclic>  (46) 
0

>  <fr_diazo>  (46) 
0

>  <fr_dihydropyridine>  (46) 
0

>  <fr_epoxide>  (46) 
0

>  <fr_ester>  (46) 
0

>  <fr_ether>  (46) 
1

>  <fr_furan>  (46) 
0

>  <fr_guanido>  (46) 
0

>  <fr_halogen>  (46) 
0

>  <fr_hdrzine>  (46) 
0

>  <fr_hdrzone>  (46) 
0

>  <fr_imidazole>  (46) 
0

>  <fr_imide>  (46) 
0

>  <fr_isocyan>  (46) 
0

>  <fr_isothiocyan>  (46) 
0

>  <fr_ketone>  (46) 
0

>  <fr_ketone_Topliss>  (46) 
0

>  <fr_lactam>  (46) 
0

>  <fr_lactone>  (46) 
0

>  <fr_methoxy>  (46) 
0

>  <fr_morpholine>  (46) 
0

>  <fr_nitrile>  (46) 
0

>  <fr_nitro>  (46) 
0

>  <fr_nitro_arom>  (46) 
0

>  <fr_nitro_arom_nonortho>  (46) 
0

>  <fr_nitroso>  (46) 
0

>  <fr_oxazole>  (46) 
0

>  <fr_oxime>  (46) 
0

>  <fr_para_hydroxylation>  (46) 
0

>  <fr_phenol>  (46) 
0

>  <fr_phenol_noOrthoHbond>  (46) 
0

>  <fr_phos_acid>  (46) 
0

>  <fr_phos_ester>  (46) 
0

>  <fr_piperdine>  (46) 
0

>  <fr_piperzine>  (46) 
0

>  <fr_priamide>  (46) 
0

>  <fr_prisulfonamd>  (46) 
0

>  <fr_pyridine>  (46) 
0

>  <fr_quatN>  (46) 
0

>  <fr_sulfide>  (46) 
0

>  <fr_sulfonamd>  (46) 
1

>  <fr_sulfone>  (46) 
0

>  <fr_term_acetylene>  (46) 
0

>  <fr_tetrazole>  (46) 
0

>  <fr_thiazole>  (46) 
0

>  <fr_thiocyan>  (46) 
0

>  <fr_thiophene>  (46) 
0

>  <fr_unbrch_alkane>  (46) 
0

>  <fr_urea>  (46) 
0

>  <NP_Likeness>  (46) 
-1.706338

$$$$
nan
     RDKit          3D

  0  0  0  0  0  0  0  0  0  0999 V3000
M  V30 BEGIN CTAB
M  V30 COUNTS 52 54 0 0 0
M  V30 BEGIN ATOM
M  V30 1 C -3.664624 1.007821 0.826288 0
M  V30 2 C -2.307606 0.413061 0.960874 0
M  V30 3 N -1.343422 1.170766 1.423008 0
M  V30 4 C -0.160309 0.695614 1.555119 0
M  V30 5 N 1.038099 1.283549 2.019538 0
M  V30 6 C 1.821600 1.899555 1.008662 0
M  V30 7 O 1.598511 1.994188 -0.236725 0
M  V30 8 N 3.067901 2.584533 1.075101 0
M  V30 9 C 3.651165 3.123818 -0.138735 0
M  V30 10 C 3.912005 4.562759 0.290842 0
M  V30 11 C 4.113438 4.488661 1.804244 0
M  V30 12 C 4.119941 3.007919 2.013399 0 CFG=1
M  V30 13 C 3.880846 2.595467 3.389391 0
M  V30 14 N 5.012079 3.122983 4.115593 0
M  V30 15 O 3.578365 2.191039 4.534109 0
M  V30 16 S -0.342665 -1.010880 0.983740 0
M  V30 17 C -2.072319 -0.923281 0.602583 0
M  V30 18 C -2.827434 -1.986475 0.095720 0
M  V30 19 C -4.152119 -2.094219 -0.256737 0
M  V30 20 C -4.847049 -3.171180 -0.751377 0
M  V30 21 N -4.095907 -4.272757 -0.904525 0
M  V30 22 C -2.794278 -4.323257 -0.605790 0
M  V30 23 C -2.105670 -5.615473 -0.827541 0
M  V30 24 C -3.101636 -6.650292 -1.327052 0
M  V30 25 C -1.554544 -6.098198 0.483338 0
M  V30 26 C -0.980979 -5.493828 -1.836654 0
M  V30 27 F -1.501393 -5.065248 -3.028696 0
M  V30 28 F -0.376267 -6.750206 -1.971682 0
M  V30 29 F 0.014472 -4.665317 -1.365798 0
M  V30 30 C -2.172333 -3.208193 -0.117080 0
M  V30 31 H -3.990252 1.011398 -0.235921 0
M  V30 32 H -3.729821 2.059451 1.186143 0
M  V30 33 H -4.422965 0.470532 1.468569 0
M  V30 34 H 1.488619 1.370461 2.955406 0
M  V30 35 H 4.604192 2.582795 -0.325138 0
M  V30 36 H 3.030351 3.057684 -1.026960 0
M  V30 37 H 3.040177 5.148937 -0.004014 0
M  V30 38 H 4.857913 4.927549 -0.121634 0
M  V30 39 H 3.296259 5.002177 2.356624 0
M  V30 40 H 5.055094 4.992334 2.126024 0
M  V30 41 H 5.089459 2.614622 1.602766 0
M  V30 42 H 5.994178 3.086966 4.522806 0
M  V30 43 H 5.523204 3.870900 4.673420 0
M  V30 44 H -4.725596 -1.194181 -0.122918 0
M  V30 45 H -5.898735 -3.092195 -0.981156 0
M  V30 46 H -2.764966 -7.632679 -0.971320 0
M  V30 47 H -4.122218 -6.379117 -1.035824 0
M  V30 48 H -3.026718 -6.642477 -2.439378 0
M  V30 49 H -1.535961 -7.219398 0.544468 0
M  V30 50 H -0.522618 -5.727931 0.611035 0
M  V30 51 H -2.162172 -5.669401 1.290293 0
M  V30 52 H -1.120948 -3.347897 0.097240 0
M  V30 END ATOM
M  V30 BEGIN BOND
M  V30 1 1 1 2
M  V30 2 1 2 3
M  V30 3 2 3 4
M  V30 4 1 4 5
M  V30 5 1 5 6
M  V30 6 2 6 7
M  V30 7 1 6 8
M  V30 8 1 8 9
M  V30 9 1 9 10
M  V30 10 1 10 11
M  V30 11 1 11 12
M  V30 12 1 12 13
M  V30 13 1 13 14
M  V30 14 2 13 15
M  V30 15 1 4 16
M  V30 16 1 16 17
M  V30 17 1 17 18
M  V30 18 2 18 19
M  V30 19 1 19 20
M  V30 20 2 20 21
M  V30 21 1 21 22
M  V30 22 1 22 23
M  V30 23 1 23 24
M  V30 24 1 23 25
M  V30 25 1 23 26
M  V30 26 1 26 27
M  V30 27 1 26 28
M  V30 28 1 26 29
M  V30 29 2 22 30
M  V30 30 2 17 2
M  V30 31 1 30 18
M  V30 32 1 12 8
M  V30 33 1 1 31
M  V30 34 1 1 32
M  V30 35 1 1 33
M  V30 36 1 5 34
M  V30 37 1 9 35
M  V30 38 1 9 36
M  V30 39 1 10 37
M  V30 40 1 10 38
M  V30 41 1 11 39
M  V30 42 1 11 40
M  V30 43 1 12 41 CFG=3
M  V30 44 1 14 42
M  V30 45 1 14 43
M  V30 46 1 19 44
M  V30 47 1 20 45
M  V30 48 1 24 46
M  V30 49 1 24 47
M  V30 50 1 24 48
M  V30 51 1 25 49
M  V30 52 1 25 50
M  V30 53 1 25 51
M  V30 54 1 30 52
M  V30 END BOND
M  V30 END CTAB
M  END
>  <Dataset>  (47) 
PKIs

>  <Ligand_Instance>  (47) 
nan

>  <PDB_ID>  (47) 
nan

>  <Standardized_SMILES>  (47) 
Cc1nc(NC(=O)N2CCC[C@H]2C(N)=O)sc1-c1ccnc(C(C)(C)C(F)(F)F)c1

>  <Name>  (47) 
Alpelisib

>  <Pocket>  (47) 
nan

>  <ATP_Site>  (47) 
nan

>  <Peripheral>  (47) 
nan

>  <Num_H_Atoms_ProtBoundConf>  (47) 
nan

>  <Num_Resolved_Atoms>  (47) 
nan

>  <Num_Not_Resolved_Atoms>  (47) 
nan

>  <2D_Mol_H>  (47) 
<rdkit.Chem.rdchem.Mol object at 0x72a239113ca0>

>  <MW>  (47) 
441.479

>  <HBA>  (47) 
5

>  <HBD>  (47) 
2

>  <LogP>  (47) 
3.83502

>  <NRB>  (47) 
7

>  <TPSA>  (47) 
101.21

>  <Num_Heavy_Atoms>  (47) 
30

>  <Ro5>  (47) 
[True, True, True, True, True, True]

>  <Ro5_Fulfilled>  (47) 
True

>  <Ro3>  (47) 
[False, False, True, False]

>  <Ro3_Fulfilled>  (47) 
False

>  <Fsp3>  (47) 
0.473684

>  <Fsp3_0.42>  (47) 
True

>  <Fsp3_0.45>  (47) 
True

>  <Stereogenic_Carbons>  (47) 
1

>  <C_Atoms>  (47) 
19

>  <FCStereo>  (47) 
0.052632

>  <SPS>  (47) 
518

>  <nSPS>  (47) 
17.266667

>  <PBF>  (47) 
0.978032

>  <PBF_0.6>  (47) 
True

>  <nPBF>  (47) 
0.032601

>  <nPBF_0.016>  (47) 
True

>  <PMI1>  (47) 
1851.876213

>  <PMI2>  (47) 
9283.679657

>  <PMI3>  (47) 
10030.087451

>  <NPR1>  (47) 
0.184632

>  <NPR2>  (47) 
0.925583

>  <Sum_NPR>  (47) 
1.110215

>  <Sum_NPR_1.07>  (47) 
True

>  <Sum_NPR_1.2>  (47) 
False

>  <MaxAbsEStateIndex>  (47) 
13.381655

>  <MaxEStateIndex>  (47) 
13.381655

>  <MinAbsEStateIndex>  (47) 
0.104396

>  <MinEStateIndex>  (47) 
-4.451192

>  <qed>  (47) 
0.752828

>  <MolWt>  (47) 
441.479

>  <HeavyAtomMolWt>  (47) 
419.303

>  <ExactMolWt>  (47) 
441.144631

>  <NumValenceElectrons>  (47) 
162

>  <NumRadicalElectrons>  (47) 
0

>  <MaxPartialCharge>  (47) 
0.398905

>  <MinPartialCharge>  (47) 
-0.367881

>  <MaxAbsPartialCharge>  (47) 
0.398905

>  <MinAbsPartialCharge>  (47) 
0.367881

>  <FpDensityMorgan1>  (47) 
1.333333

>  <FpDensityMorgan2>  (47) 
2.033333

>  <FpDensityMorgan3>  (47) 
2.666667

>  <BCUT2D_MWHI>  (47) 
32.133578

>  <BCUT2D_MWLOW>  (47) 
9.869811

>  <BCUT2D_CHGHI>  (47) 
2.492062

>  <BCUT2D_CHGLO>  (47) 
-2.26838

>  <BCUT2D_LOGPHI>  (47) 
2.411333

>  <BCUT2D_LOGPLOW>  (47) 
-2.45083

>  <BCUT2D_MRHI>  (47) 
7.188005

>  <BCUT2D_MRLOW>  (47) 
-0.180758

>  <AvgIpc>  (47) 
3.275048

>  <BalabanJ>  (47) 
1.842963

>  <BertzCT>  (47) 
973.319752

>  <Chi0>  (47) 
22.26722

>  <Chi0n>  (47) 
16.708351

>  <Chi0v>  (47) 
17.524847

>  <Chi1>  (47) 
13.913722

>  <Chi1n>  (47) 
9.295453

>  <Chi1v>  (47) 
10.11195

>  <Chi2n>  (47) 
7.670011

>  <Chi2v>  (47) 
8.669081

>  <Chi3n>  (47) 
5.223707

>  <Chi3v>  (47) 
6.345643

>  <Chi4n>  (47) 
3.245381

>  <Chi4v>  (47) 
4.197813

>  <HallKierAlpha>  (47) 
-2.69

>  <Ipc>  (47) 
3799474.52689

>  <Kappa1>  (47) 
22.005526

>  <Kappa2>  (47) 
7.858788

>  <Kappa3>  (47) 
4.112287

>  <LabuteASA>  (47) 
175.045926

>  <PEOE_VSA1>  (47) 
10.633577

>  <PEOE_VSA10>  (47) 
11.456831

>  <PEOE_VSA11>  (47) 
5.131558

>  <PEOE_VSA12>  (47) 
5.90718

>  <PEOE_VSA13>  (47) 
0.0

>  <PEOE_VSA14>  (47) 
12.207413

>  <PEOE_VSA2>  (47) 
15.095304

>  <PEOE_VSA3>  (47) 
9.778516

>  <PEOE_VSA4>  (47) 
13.171245

>  <PEOE_VSA5>  (47) 
0.0

>  <PEOE_VSA6>  (47) 
11.336786

>  <PEOE_VSA7>  (47) 
51.30904

>  <PEOE_VSA8>  (47) 
12.7416

>  <PEOE_VSA9>  (47) 
16.265003

>  <SMR_VSA1>  (47) 
22.76032

>  <SMR_VSA10>  (47) 
28.406639

>  <SMR_VSA2>  (47) 
0.0

>  <SMR_VSA3>  (47) 
14.867867

>  <SMR_VSA4>  (47) 
5.733667

>  <SMR_VSA5>  (47) 
51.245985

>  <SMR_VSA6>  (47) 
11.861545

>  <SMR_VSA7>  (47) 
29.717434

>  <SMR_VSA8>  (47) 
0.0

>  <SMR_VSA9>  (47) 
10.440599

>  <SlogP_VSA1>  (47) 
11.050456

>  <SlogP_VSA10>  (47) 
23.097341

>  <SlogP_VSA11>  (47) 
0.0

>  <SlogP_VSA12>  (47) 
11.336786

>  <SlogP_VSA2>  (47) 
45.569057

>  <SlogP_VSA3>  (47) 
10.209528

>  <SlogP_VSA4>  (47) 
6.923737

>  <SlogP_VSA5>  (47) 
38.076974

>  <SlogP_VSA6>  (47) 
18.329578

>  <SlogP_VSA7>  (47) 
0.0

>  <SlogP_VSA8>  (47) 
10.440599

>  <SlogP_VSA9>  (47) 
0.0

>  <EState_VSA1>  (47) 
29.571424

>  <EState_VSA10>  (47) 
22.76032

>  <EState_VSA11>  (47) 
0.0

>  <EState_VSA2>  (47) 
10.825486

>  <EState_VSA3>  (47) 
35.520926

>  <EState_VSA4>  (47) 
25.18426

>  <EState_VSA5>  (47) 
17.16312

>  <EState_VSA6>  (47) 
12.990104

>  <EState_VSA7>  (47) 
0.0

>  <EState_VSA8>  (47) 
15.284746

>  <EState_VSA9>  (47) 
5.733667

>  <VSA_EState1>  (47) 
40.144964

>  <VSA_EState10>  (47) 
1.141241

>  <VSA_EState2>  (47) 
34.232429

>  <VSA_EState3>  (47) 
2.947832

>  <VSA_EState4>  (47) 
4.218189

>  <VSA_EState5>  (47) 
-0.559951

>  <VSA_EState6>  (47) 
1.858884

>  <VSA_EState7>  (47) 
-1.928474

>  <VSA_EState8>  (47) 
4.278222

>  <VSA_EState9>  (47) 
0.0

>  <FractionCSP3>  (47) 
0.473684

>  <HeavyAtomCount>  (47) 
30

>  <NHOHCount>  (47) 
3

>  <NOCount>  (47) 
7

>  <NumAliphaticCarbocycles>  (47) 
0

>  <NumAliphaticHeterocycles>  (47) 
1

>  <NumAliphaticRings>  (47) 
1

>  <NumAromaticCarbocycles>  (47) 
0

>  <NumAromaticHeterocycles>  (47) 
2

>  <NumAromaticRings>  (47) 
2

>  <NumHAcceptors>  (47) 
5

>  <NumHDonors>  (47) 
2

>  <NumHeteroatoms>  (47) 
11

>  <NumRotatableBonds>  (47) 
4

>  <NumSaturatedCarbocycles>  (47) 
0

>  <NumSaturatedHeterocycles>  (47) 
1

>  <NumSaturatedRings>  (47) 
1

>  <RingCount>  (47) 
3

>  <MolLogP>  (47) 
3.83502

>  <MolMR>  (47) 
107.1041

>  <fr_Al_COO>  (47) 
0

>  <fr_Al_OH>  (47) 
0

>  <fr_Al_OH_noTert>  (47) 
0

>  <fr_ArN>  (47) 
0

>  <fr_Ar_COO>  (47) 
0

>  <fr_Ar_N>  (47) 
2

>  <fr_Ar_NH>  (47) 
0

>  <fr_Ar_OH>  (47) 
0

>  <fr_COO>  (47) 
0

>  <fr_COO2>  (47) 
0

>  <fr_C_O>  (47) 
2

>  <fr_C_O_noCOO>  (47) 
2

>  <fr_C_S>  (47) 
0

>  <fr_HOCCN>  (47) 
0

>  <fr_Imine>  (47) 
0

>  <fr_NH0>  (47) 
3

>  <fr_NH1>  (47) 
1

>  <fr_NH2>  (47) 
1

>  <fr_N_O>  (47) 
0

>  <fr_Ndealkylation1>  (47) 
0

>  <fr_Ndealkylation2>  (47) 
1

>  <fr_Nhpyrrole>  (47) 
0

>  <fr_SH>  (47) 
0

>  <fr_aldehyde>  (47) 
0

>  <fr_alkyl_carbamate>  (47) 
0

>  <fr_alkyl_halide>  (47) 
3

>  <fr_allylic_oxid>  (47) 
0

>  <fr_amide>  (47) 
3

>  <fr_amidine>  (47) 
0

>  <fr_aniline>  (47) 
1

>  <fr_aryl_methyl>  (47) 
1

>  <fr_azide>  (47) 
0

>  <fr_azo>  (47) 
0

>  <fr_barbitur>  (47) 
0

>  <fr_benzene>  (47) 
0

>  <fr_benzodiazepine>  (47) 
0

>  <fr_bicyclic>  (47) 
0

>  <fr_diazo>  (47) 
0

>  <fr_dihydropyridine>  (47) 
0

>  <fr_epoxide>  (47) 
0

>  <fr_ester>  (47) 
0

>  <fr_ether>  (47) 
0

>  <fr_furan>  (47) 
0

>  <fr_guanido>  (47) 
0

>  <fr_halogen>  (47) 
3

>  <fr_hdrzine>  (47) 
0

>  <fr_hdrzone>  (47) 
0

>  <fr_imidazole>  (47) 
0

>  <fr_imide>  (47) 
0

>  <fr_isocyan>  (47) 
0

>  <fr_isothiocyan>  (47) 
0

>  <fr_ketone>  (47) 
0

>  <fr_ketone_Topliss>  (47) 
0

>  <fr_lactam>  (47) 
0

>  <fr_lactone>  (47) 
0

>  <fr_methoxy>  (47) 
0

>  <fr_morpholine>  (47) 
0

>  <fr_nitrile>  (47) 
0

>  <fr_nitro>  (47) 
0

>  <fr_nitro_arom>  (47) 
0

>  <fr_nitro_arom_nonortho>  (47) 
0

>  <fr_nitroso>  (47) 
0

>  <fr_oxazole>  (47) 
0

>  <fr_oxime>  (47) 
0

>  <fr_para_hydroxylation>  (47) 
0

>  <fr_phenol>  (47) 
0

>  <fr_phenol_noOrthoHbond>  (47) 
0

>  <fr_phos_acid>  (47) 
0

>  <fr_phos_ester>  (47) 
0

>  <fr_piperdine>  (47) 
0

>  <fr_piperzine>  (47) 
0

>  <fr_priamide>  (47) 
1

>  <fr_prisulfonamd>  (47) 
0

>  <fr_pyridine>  (47) 
1

>  <fr_quatN>  (47) 
0

>  <fr_sulfide>  (47) 
0

>  <fr_sulfonamd>  (47) 
0

>  <fr_sulfone>  (47) 
0

>  <fr_term_acetylene>  (47) 
0

>  <fr_tetrazole>  (47) 
0

>  <fr_thiazole>  (47) 
1

>  <fr_thiocyan>  (47) 
0

>  <fr_thiophene>  (47) 
0

>  <fr_unbrch_alkane>  (47) 
0

>  <fr_urea>  (47) 
1

>  <NP_Likeness>  (47) 
-1.457506

$$$$
nan
     RDKit          3D

  0  0  0  0  0  0  0  0  0  0999 V3000
M  V30 BEGIN CTAB
M  V30 COUNTS 75 80 0 0 0
M  V30 BEGIN ATOM
M  V30 1 C 3.284477 -0.848428 6.909951 0
M  V30 2 N 4.259841 -1.417299 6.008601 0
M  V30 3 C 3.719442 -2.485567 5.190807 0
M  V30 4 C 3.861321 -2.179743 3.712021 0
M  V30 5 N 3.363792 -0.880845 3.345273 0
M  V30 6 C 2.417503 -0.564041 2.340657 0
M  V30 7 C 1.853661 -1.461690 1.473613 0
M  V30 8 C 0.932626 -1.162533 0.500260 0
M  V30 9 C 0.555534 0.156138 0.402614 0
M  V30 10 C -0.423064 0.436398 -0.630667 0
M  V30 11 O -1.048696 1.417498 -1.086785 0
M  V30 12 N -0.958783 -0.557957 -1.486625 0
M  V30 13 C -1.930319 -0.286806 -2.513604 0
M  V30 14 N -2.540368 0.823717 -2.927263 0
M  V30 15 N -3.379163 0.620770 -3.917976 0
M  V30 16 C -3.369464 -0.682820 -4.225095 0
M  V30 17 C -4.043630 -1.455863 -5.170383 0
M  V30 18 C -3.807564 -2.823478 -5.238446 0
M  V30 19 C -2.915287 -3.439137 -4.386938 0
M  V30 20 C -2.608432 -4.879415 -4.394119 0
M  V30 21 C -3.504594 -5.659701 -3.502146 0
M  V30 22 C -4.686970 -6.184000 -3.989486 0
M  V30 23 C -5.487799 -6.899139 -3.133593 0
M  V30 24 F -6.668807 -7.448786 -3.537080 0
M  V30 25 C -5.148177 -7.108435 -1.808969 0
M  V30 26 C -3.974127 -6.595013 -1.302274 0
M  V30 27 F -3.620101 -6.789170 -0.003662 0
M  V30 28 C -3.164771 -5.868228 -2.179659 0
M  V30 29 C -2.286693 -2.614559 -3.480825 0
M  V30 30 C -2.473040 -1.235319 -3.353959 0
M  V30 31 C 1.073422 1.119806 1.233635 0
M  V30 32 N 0.729149 2.461831 1.171930 0
M  V30 33 C 0.097074 3.657879 0.737226 0
M  V30 34 C 0.482994 4.117351 -0.650483 0
M  V30 35 C 1.158129 5.461594 -0.678799 0
M  V30 36 O 1.964487 5.609403 0.442346 0
M  V30 37 C 1.213770 5.754039 1.604987 0
M  V30 38 C 0.061113 4.817023 1.707873 0
M  V30 39 C 2.009062 0.734262 2.202217 0
M  V30 40 C 3.965607 0.155924 4.153504 0
M  V30 41 C 4.896663 -0.397957 5.191064 0
M  V30 42 H 3.081183 0.224041 6.715020 0
M  V30 43 H 3.678089 -0.950806 7.937460 0
M  V30 44 H 2.311960 -1.365288 6.840330 0
M  V30 45 H 4.346570 -3.373993 5.404198 0
M  V30 46 H 2.689429 -2.728498 5.493076 0
M  V30 47 H 3.299811 -2.975647 3.190517 0
M  V30 48 H 4.942193 -2.284912 3.471315 0
M  V30 49 H 2.194979 -2.476766 1.605238 0
M  V30 50 H 0.639731 -2.031648 -0.052727 0
M  V30 51 H -0.660761 -1.586357 -1.412256 0
M  V30 52 H -3.950948 1.372289 -4.377065 0
M  V30 53 H -4.737400 -0.968732 -5.830293 0
M  V30 54 H -4.321662 -3.451222 -5.966893 0
M  V30 55 H -1.554003 -5.084022 -4.055581 0
M  V30 56 H -2.632412 -5.272730 -5.431428 0
M  V30 57 H -4.979597 -6.039078 -5.016796 0
M  V30 58 H -5.751036 -7.668477 -1.092164 0
M  V30 59 H -2.249649 -5.463116 -1.798701 0
M  V30 60 H -1.576600 -3.071652 -2.795884 0
M  V30 61 H 1.244412 3.046115 1.857402 0
M  V30 62 H -1.011199 3.386273 0.638185 0
M  V30 63 H 1.176078 3.379434 -1.117763 0
M  V30 64 H -0.378605 4.190846 -1.341599 0
M  V30 65 H 0.461225 6.318641 -0.672129 0
M  V30 66 H 1.835209 5.538736 -1.559725 0
M  V30 67 H 0.835788 6.818254 1.584142 0
M  V30 68 H 1.908265 5.701692 2.467921 0
M  V30 69 H 0.121694 4.342389 2.729084 0
M  V30 70 H -0.904860 5.349027 1.695250 0
M  V30 71 H 2.456228 1.454172 2.893151 0
M  V30 72 H 3.198064 0.776734 4.669309 0
M  V30 73 H 4.582203 0.820983 3.495761 0
M  V30 74 H 5.196481 0.423442 5.865165 0
M  V30 75 H 5.805438 -0.848946 4.739581 0
M  V30 END ATOM
M  V30 BEGIN BOND
M  V30 1 1 1 2
M  V30 2 1 2 3
M  V30 3 1 3 4
M  V30 4 1 4 5
M  V30 5 1 5 6
M  V30 6 2 6 7
M  V30 7 1 7 8
M  V30 8 2 8 9
M  V30 9 1 9 10
M  V30 10 2 10 11
M  V30 11 1 10 12
M  V30 12 1 12 13
M  V30 13 2 13 14
M  V30 14 1 14 15
M  V30 15 1 15 16
M  V30 16 2 16 17
M  V30 17 1 17 18
M  V30 18 2 18 19
M  V30 19 1 19 20
M  V30 20 1 20 21
M  V30 21 2 21 22
M  V30 22 1 22 23
M  V30 23 1 23 24
M  V30 24 2 23 25
M  V30 25 1 25 26
M  V30 26 1 26 27
M  V30 27 2 26 28
M  V30 28 1 19 29
M  V30 29 2 29 30
M  V30 30 1 9 31
M  V30 31 1 31 32
M  V30 32 1 32 33
M  V30 33 1 33 34
M  V30 34 1 34 35
M  V30 35 1 35 36
M  V30 36 1 36 37
M  V30 37 1 37 38
M  V30 38 2 31 39
M  V30 39 1 5 40
M  V30 40 1 40 41
M  V30 41 1 41 2
M  V30 42 1 39 6
M  V30 43 1 30 13
M  V30 44 1 38 33
M  V30 45 1 30 16
M  V30 46 1 28 21
M  V30 47 1 1 42
M  V30 48 1 1 43
M  V30 49 1 1 44
M  V30 50 1 3 45
M  V30 51 1 3 46
M  V30 52 1 4 47
M  V30 53 1 4 48
M  V30 54 1 7 49
M  V30 55 1 8 50
M  V30 56 1 12 51
M  V30 57 1 15 52
M  V30 58 1 17 53
M  V30 59 1 18 54
M  V30 60 1 20 55
M  V30 61 1 20 56
M  V30 62 1 22 57
M  V30 63 1 25 58
M  V30 64 1 28 59
M  V30 65 1 29 60
M  V30 66 1 32 61
M  V30 67 1 33 62
M  V30 68 1 34 63
M  V30 69 1 34 64
M  V30 70 1 35 65
M  V30 71 1 35 66
M  V30 72 1 37 67
M  V30 73 1 37 68
M  V30 74 1 38 69
M  V30 75 1 38 70
M  V30 76 1 39 71
M  V30 77 1 40 72
M  V30 78 1 40 73
M  V30 79 1 41 74
M  V30 80 1 41 75
M  V30 END BOND
M  V30 END CTAB
M  END
>  <Dataset>  (48) 
PKIs

>  <Ligand_Instance>  (48) 
nan

>  <PDB_ID>  (48) 
nan

>  <Standardized_SMILES>  (48) 
CN1CCN(c2ccc(C(=O)Nc3n[nH]c4ccc(Cc5cc(F)cc(F)c5)cc34)c(NC3CCOCC3)c2)CC1

>  <Name>  (48) 
Entrectinib

>  <Pocket>  (48) 
nan

>  <ATP_Site>  (48) 
nan

>  <Peripheral>  (48) 
nan

>  <Num_H_Atoms_ProtBoundConf>  (48) 
nan

>  <Num_Resolved_Atoms>  (48) 
nan

>  <Num_Not_Resolved_Atoms>  (48) 
nan

>  <2D_Mol_H>  (48) 
<rdkit.Chem.rdchem.Mol object at 0x72a239113d80>

>  <MW>  (48) 
560.649

>  <HBA>  (48) 
6

>  <HBD>  (48) 
3

>  <LogP>  (48) 
5.0269

>  <NRB>  (48) 
8

>  <TPSA>  (48) 
85.52

>  <Num_Heavy_Atoms>  (48) 
41

>  <Ro5>  (48) 
[False, True, True, False, True, True]

>  <Ro5_Fulfilled>  (48) 
False

>  <Ro3>  (48) 
[False, False, True, False]

>  <Ro3_Fulfilled>  (48) 
False

>  <Fsp3>  (48) 
0.354839

>  <Fsp3_0.42>  (48) 
False

>  <Fsp3_0.45>  (48) 
False

>  <Stereogenic_Carbons>  (48) 
0

>  <C_Atoms>  (48) 
31

>  <FCStereo>  (48) 
0.0

>  <SPS>  (48) 
685

>  <nSPS>  (48) 
16.707317

>  <PBF>  (48) 
0.8734

>  <PBF_0.6>  (48) 
True

>  <nPBF>  (48) 
0.021302

>  <nPBF_0.016>  (48) 
True

>  <PMI1>  (48) 
5441.080491

>  <PMI2>  (48) 
14000.0136

>  <PMI3>  (48) 
18578.103082

>  <NPR1>  (48) 
0.292876

>  <NPR2>  (48) 
0.753576

>  <Sum_NPR>  (48) 
1.046452

>  <Sum_NPR_1.07>  (48) 
False

>  <Sum_NPR_1.2>  (48) 
False

>  <MaxAbsEStateIndex>  (48) 
13.71137

>  <MaxEStateIndex>  (48) 
13.71137

>  <MinAbsEStateIndex>  (48) 
0.221733

>  <MinEStateIndex>  (48) 
-0.610047

>  <qed>  (48) 
0.294244

>  <MolWt>  (48) 
560.649

>  <HeavyAtomMolWt>  (48) 
526.377

>  <ExactMolWt>  (48) 
560.271131

>  <NumValenceElectrons>  (48) 
214

>  <NumRadicalElectrons>  (48) 
0

>  <MaxPartialCharge>  (48) 
0.25848

>  <MinPartialCharge>  (48) 
-0.381428

>  <MaxAbsPartialCharge>  (48) 
0.381428

>  <MinAbsPartialCharge>  (48) 
0.25848

>  <FpDensityMorgan1>  (48) 
0.97561

>  <FpDensityMorgan2>  (48) 
1.731707

>  <FpDensityMorgan3>  (48) 
2.487805

>  <BCUT2D_MWHI>  (48) 
19.145443

>  <BCUT2D_MWLOW>  (48) 
10.027888

>  <BCUT2D_CHGHI>  (48) 
2.217749

>  <BCUT2D_CHGLO>  (48) 
-2.343921

>  <BCUT2D_LOGPHI>  (48) 
2.291844

>  <BCUT2D_LOGPLOW>  (48) 
-2.441071

>  <BCUT2D_MRHI>  (48) 
6.10701

>  <BCUT2D_MRLOW>  (48) 
0.090397

>  <AvgIpc>  (48) 
3.348642

>  <BalabanJ>  (48) 
1.253405

>  <BertzCT>  (48) 
1522.900478

>  <Chi0>  (48) 
28.34636

>  <Chi0n>  (48) 
23.05153

>  <Chi0v>  (48) 
23.05153

>  <Chi1>  (48) 
19.90702

>  <Chi1n>  (48) 
14.062781

>  <Chi1v>  (48) 
14.062781

>  <Chi2n>  (48) 
10.911942

>  <Chi2v>  (48) 
10.911942

>  <Chi3n>  (48) 
7.886909

>  <Chi3v>  (48) 
7.886909

>  <Chi4n>  (48) 
5.562839

>  <Chi4v>  (48) 
5.562839

>  <HallKierAlpha>  (48) 
-4.02

>  <Ipc>  (48) 
2732515938.910445

>  <Kappa1>  (48) 
27.164665

>  <Kappa2>  (48) 
11.839297

>  <Kappa3>  (48) 
6.335084

>  <LabuteASA>  (48) 
237.217691

>  <PEOE_VSA1>  (48) 
25.17026

>  <PEOE_VSA10>  (48) 
11.634442

>  <PEOE_VSA11>  (48) 
5.817863

>  <PEOE_VSA12>  (48) 
0.0

>  <PEOE_VSA13>  (48) 
5.90718

>  <PEOE_VSA14>  (48) 
0.0

>  <PEOE_VSA2>  (48) 
9.893219

>  <PEOE_VSA3>  (48) 
8.78083

>  <PEOE_VSA4>  (48) 
5.098682

>  <PEOE_VSA5>  (48) 
0.0

>  <PEOE_VSA6>  (48) 
6.066367

>  <PEOE_VSA7>  (48) 
79.901609

>  <PEOE_VSA8>  (48) 
68.261994

>  <PEOE_VSA9>  (48) 
11.080152

>  <SMR_VSA1>  (48) 
18.31223

>  <SMR_VSA10>  (48) 
34.00274

>  <SMR_VSA2>  (48) 
0.0

>  <SMR_VSA3>  (48) 
15.097273

>  <SMR_VSA4>  (48) 
0.0

>  <SMR_VSA5>  (48) 
25.304306

>  <SMR_VSA6>  (48) 
61.973948

>  <SMR_VSA7>  (48) 
82.9221

>  <SMR_VSA8>  (48) 
0.0

>  <SMR_VSA9>  (48) 
0.0

>  <SlogP_VSA1>  (48) 
15.533487

>  <SlogP_VSA10>  (48) 
25.973465

>  <SlogP_VSA11>  (48) 
0.0

>  <SlogP_VSA12>  (48) 
0.0

>  <SlogP_VSA2>  (48) 
73.486755

>  <SlogP_VSA3>  (48) 
11.157685

>  <SlogP_VSA4>  (48) 
11.634442

>  <SlogP_VSA5>  (48) 
34.326535

>  <SlogP_VSA6>  (48) 
54.597304

>  <SlogP_VSA7>  (48) 
0.0

>  <SlogP_VSA8>  (48) 
10.902925

>  <SlogP_VSA9>  (48) 
0.0

>  <EState_VSA1>  (48) 
11.634442

>  <EState_VSA10>  (48) 
13.575367

>  <EState_VSA11>  (48) 
0.0

>  <EState_VSA2>  (48) 
11.949021

>  <EState_VSA3>  (48) 
36.579351

>  <EState_VSA4>  (48) 
72.928185

>  <EState_VSA5>  (48) 
12.132734

>  <EState_VSA6>  (48) 
0.0

>  <EState_VSA7>  (48) 
30.331835

>  <EState_VSA8>  (48) 
43.744799

>  <EState_VSA9>  (48) 
4.736863

>  <VSA_EState1>  (48) 
32.955504

>  <VSA_EState10>  (48) 
0.0

>  <VSA_EState2>  (48) 
18.332686

>  <VSA_EState3>  (48) 
14.642389

>  <VSA_EState4>  (48) 
4.544164

>  <VSA_EState5>  (48) 
-1.087756

>  <VSA_EState6>  (48) 
15.307566

>  <VSA_EState7>  (48) 
2.096915

>  <VSA_EState8>  (48) 
5.244344

>  <VSA_EState9>  (48) 
2.130854

>  <FractionCSP3>  (48) 
0.354839

>  <HeavyAtomCount>  (48) 
41

>  <NHOHCount>  (48) 
3

>  <NOCount>  (48) 
8

>  <NumAliphaticCarbocycles>  (48) 
0

>  <NumAliphaticHeterocycles>  (48) 
2

>  <NumAliphaticRings>  (48) 
2

>  <NumAromaticCarbocycles>  (48) 
3

>  <NumAromaticHeterocycles>  (48) 
1

>  <NumAromaticRings>  (48) 
4

>  <NumHAcceptors>  (48) 
6

>  <NumHDonors>  (48) 
3

>  <NumHeteroatoms>  (48) 
10

>  <NumRotatableBonds>  (48) 
7

>  <NumSaturatedCarbocycles>  (48) 
0

>  <NumSaturatedHeterocycles>  (48) 
2

>  <NumSaturatedRings>  (48) 
2

>  <RingCount>  (48) 
6

>  <MolLogP>  (48) 
5.0269

>  <MolMR>  (48) 
156.8266

>  <fr_Al_COO>  (48) 
0

>  <fr_Al_OH>  (48) 
0

>  <fr_Al_OH_noTert>  (48) 
0

>  <fr_ArN>  (48) 
0

>  <fr_Ar_COO>  (48) 
0

>  <fr_Ar_N>  (48) 
2

>  <fr_Ar_NH>  (48) 
1

>  <fr_Ar_OH>  (48) 
0

>  <fr_COO>  (48) 
0

>  <fr_COO2>  (48) 
0

>  <fr_C_O>  (48) 
1

>  <fr_C_O_noCOO>  (48) 
1

>  <fr_C_S>  (48) 
0

>  <fr_HOCCN>  (48) 
0

>  <fr_Imine>  (48) 
0

>  <fr_NH0>  (48) 
3

>  <fr_NH1>  (48) 
3

>  <fr_NH2>  (48) 
0

>  <fr_N_O>  (48) 
0

>  <fr_Ndealkylation1>  (48) 
1

>  <fr_Ndealkylation2>  (48) 
0

>  <fr_Nhpyrrole>  (48) 
1

>  <fr_SH>  (48) 
0

>  <fr_aldehyde>  (48) 
0

>  <fr_alkyl_carbamate>  (48) 
0

>  <fr_alkyl_halide>  (48) 
0

>  <fr_allylic_oxid>  (48) 
0

>  <fr_amide>  (48) 
1

>  <fr_amidine>  (48) 
0

>  <fr_aniline>  (48) 
3

>  <fr_aryl_methyl>  (48) 
0

>  <fr_azide>  (48) 
0

>  <fr_azo>  (48) 
0

>  <fr_barbitur>  (48) 
0

>  <fr_benzene>  (48) 
3

>  <fr_benzodiazepine>  (48) 
0

>  <fr_bicyclic>  (48) 
1

>  <fr_diazo>  (48) 
0

>  <fr_dihydropyridine>  (48) 
0

>  <fr_epoxide>  (48) 
0

>  <fr_ester>  (48) 
0

>  <fr_ether>  (48) 
1

>  <fr_furan>  (48) 
0

>  <fr_guanido>  (48) 
0

>  <fr_halogen>  (48) 
2

>  <fr_hdrzine>  (48) 
0

>  <fr_hdrzone>  (48) 
0

>  <fr_imidazole>  (48) 
0

>  <fr_imide>  (48) 
0

>  <fr_isocyan>  (48) 
0

>  <fr_isothiocyan>  (48) 
0

>  <fr_ketone>  (48) 
0

>  <fr_ketone_Topliss>  (48) 
0

>  <fr_lactam>  (48) 
0

>  <fr_lactone>  (48) 
0

>  <fr_methoxy>  (48) 
0

>  <fr_morpholine>  (48) 
0

>  <fr_nitrile>  (48) 
0

>  <fr_nitro>  (48) 
0

>  <fr_nitro_arom>  (48) 
0

>  <fr_nitro_arom_nonortho>  (48) 
0

>  <fr_nitroso>  (48) 
0

>  <fr_oxazole>  (48) 
0

>  <fr_oxime>  (48) 
0

>  <fr_para_hydroxylation>  (48) 
0

>  <fr_phenol>  (48) 
0

>  <fr_phenol_noOrthoHbond>  (48) 
0

>  <fr_phos_acid>  (48) 
0

>  <fr_phos_ester>  (48) 
0

>  <fr_piperdine>  (48) 
0

>  <fr_piperzine>  (48) 
1

>  <fr_priamide>  (48) 
0

>  <fr_prisulfonamd>  (48) 
0

>  <fr_pyridine>  (48) 
0

>  <fr_quatN>  (48) 
0

>  <fr_sulfide>  (48) 
0

>  <fr_sulfonamd>  (48) 
0

>  <fr_sulfone>  (48) 
0

>  <fr_term_acetylene>  (48) 
0

>  <fr_tetrazole>  (48) 
0

>  <fr_thiazole>  (48) 
0

>  <fr_thiocyan>  (48) 
0

>  <fr_thiophene>  (48) 
0

>  <fr_unbrch_alkane>  (48) 
0

>  <fr_urea>  (48) 
0

>  <NP_Likeness>  (48) 
-1.351413

$$$$
nan
     RDKit          3D

  0  0  0  0  0  0  0  0  0  0999 V3000
M  V30 BEGIN CTAB
M  V30 COUNTS 70 74 0 0 0
M  V30 BEGIN ATOM
M  V30 1 C 4.907599 -1.405347 6.191762 0
M  V30 2 C 3.738676 -1.404913 5.265495 0
M  V30 3 N 2.969343 -2.487720 5.098493 0
M  V30 4 C 1.906998 -2.501349 4.260460 0
M  V30 5 C 1.575842 -1.367109 3.533472 0
M  V30 6 N 0.495442 -1.286413 2.628635 0
M  V30 7 C -0.887336 -0.962511 2.668119 0
M  V30 8 O -1.345115 -0.658065 3.773560 0
M  V30 9 C -1.625693 -1.018309 1.418960 0
M  V30 10 C -1.038800 -1.317432 0.209336 0
M  V30 11 C -1.885457 -1.323798 -0.877192 0
M  V30 12 C -3.254765 -1.064547 -0.890804 0
M  V30 13 C -3.994277 -1.117513 -2.156851 0
M  V30 14 N -4.798013 -2.287949 -2.359706 0
M  V30 15 C -5.497273 -2.294976 -3.619512 0
M  V30 16 C -4.497758 -2.636694 -4.696597 0
M  V30 17 N -4.008804 -3.944622 -4.468240 0
M  V30 18 C -2.862759 -4.154740 -5.367968 0
M  V30 19 C -3.687480 -4.342578 -3.156635 0
M  V30 20 C -4.195162 -3.526595 -2.018994 0
M  V30 21 C -3.776228 -0.772671 0.356173 0
M  V30 22 C -5.218868 -0.487322 0.422663 0
M  V30 23 F -6.030411 -1.474974 0.001389 0
M  V30 24 F -5.545747 -0.171410 1.747168 0
M  V30 25 F -5.460838 0.656967 -0.306519 0
M  V30 26 C -2.980839 -0.746454 1.505826 0
M  V30 27 C 2.398000 -0.248281 3.728288 0
M  V30 28 C 3.495475 -0.235604 4.593456 0
M  V30 29 N 4.264213 0.975321 4.678269 0
M  V30 30 C 3.878324 2.142473 3.930328 0
M  V30 31 N 3.426365 3.296660 4.490733 0
M  V30 32 C 3.073456 4.345494 3.720986 0
M  V30 33 C 3.195351 4.183879 2.348660 0
M  V30 34 C 3.645489 3.038651 1.738775 0
M  V30 35 C 3.756059 2.873878 0.311930 0
M  V30 36 C 4.205025 1.680894 -0.220785 0
M  V30 37 C 4.296152 1.553224 -1.592733 0
M  V30 38 C 3.956889 2.571389 -2.480519 0
M  V30 39 N 3.516399 3.739086 -1.930350 0
M  V30 40 C 3.430523 3.856002 -0.592099 0
M  V30 41 N 3.975793 2.041471 2.583064 0
M  V30 42 H 5.791235 -0.901372 5.798553 0
M  V30 43 H 5.156041 -2.492254 6.369460 0
M  V30 44 H 4.605311 -1.010801 7.206746 0
M  V30 45 H 1.258182 -3.339752 4.085680 0
M  V30 46 H 1.063337 -1.569444 1.809017 0
M  V30 47 H 0.001414 -1.531398 0.111853 0
M  V30 48 H -1.405738 -1.563447 -1.835281 0
M  V30 49 H -3.253189 -1.095044 -2.986654 0
M  V30 50 H -4.583229 -0.171773 -2.341753 0
M  V30 51 H -5.855203 -1.259316 -3.802928 0
M  V30 52 H -6.287179 -3.046929 -3.611483 0
M  V30 53 H -5.074368 -2.662624 -5.658963 0
M  V30 54 H -3.672361 -1.905772 -4.795389 0
M  V30 55 H -2.531777 -3.188402 -5.769446 0
M  V30 56 H -2.008523 -4.538223 -4.745079 0
M  V30 57 H -3.070428 -4.928385 -6.135635 0
M  V30 58 H -2.588735 -4.508839 -3.083386 0
M  V30 59 H -4.105523 -5.388558 -3.030871 0
M  V30 60 H -4.946504 -4.081004 -1.400896 0
M  V30 61 H -3.357335 -3.340397 -1.325138 0
M  V30 62 H -3.470386 -0.508834 2.450031 0
M  V30 63 H 2.141474 0.641234 3.161591 0
M  V30 64 H 5.109386 0.957494 5.310597 0
M  V30 65 H 2.716111 5.261941 4.156190 0
M  V30 66 H 2.907540 5.037289 1.759433 0
M  V30 67 H 4.491813 0.835626 0.386743 0
M  V30 68 H 4.640155 0.649333 -2.118079 0
M  V30 69 H 4.023204 2.482897 -3.558989 0
M  V30 70 H 3.071254 4.816939 -0.257914 0
M  V30 END ATOM
M  V30 BEGIN BOND
M  V30 1 1 1 2
M  V30 2 2 2 3
M  V30 3 1 3 4
M  V30 4 2 4 5
M  V30 5 1 5 6
M  V30 6 1 6 7
M  V30 7 2 7 8
M  V30 8 1 7 9
M  V30 9 2 9 10
M  V30 10 1 10 11
M  V30 11 2 11 12
M  V30 12 1 12 13
M  V30 13 1 13 14
M  V30 14 1 14 15
M  V30 15 1 15 16
M  V30 16 1 16 17
M  V30 17 1 17 18
M  V30 18 1 17 19
M  V30 19 1 19 20
M  V30 20 1 12 21
M  V30 21 1 21 22
M  V30 22 1 22 23
M  V30 23 1 22 24
M  V30 24 1 22 25
M  V30 25 2 21 26
M  V30 26 1 5 27
M  V30 27 2 27 28
M  V30 28 1 28 29
M  V30 29 1 29 30
M  V30 30 2 30 31
M  V30 31 1 31 32
M  V30 32 2 32 33
M  V30 33 1 33 34
M  V30 34 1 34 35
M  V30 35 2 35 36
M  V30 36 1 36 37
M  V30 37 2 37 38
M  V30 38 1 38 39
M  V30 39 2 39 40
M  V30 40 2 34 41
M  V30 41 1 28 2
M  V30 42 1 41 30
M  V30 43 1 26 9
M  V30 44 1 40 35
M  V30 45 1 20 14
M  V30 46 1 1 42
M  V30 47 1 1 43
M  V30 48 1 1 44
M  V30 49 1 4 45
M  V30 50 1 6 46
M  V30 51 1 10 47
M  V30 52 1 11 48
M  V30 53 1 13 49
M  V30 54 1 13 50
M  V30 55 1 15 51
M  V30 56 1 15 52
M  V30 57 1 16 53
M  V30 58 1 16 54
M  V30 59 1 18 55
M  V30 60 1 18 56
M  V30 61 1 18 57
M  V30 62 1 19 58
M  V30 63 1 19 59
M  V30 64 1 20 60
M  V30 65 1 20 61
M  V30 66 1 26 62
M  V30 67 1 27 63
M  V30 68 1 29 64
M  V30 69 1 32 65
M  V30 70 1 33 66
M  V30 71 1 36 67
M  V30 72 1 37 68
M  V30 73 1 38 69
M  V30 74 1 40 70
M  V30 END BOND
M  V30 END CTAB
M  END
>  <Dataset>  (49) 
PKIs

>  <Ligand_Instance>  (49) 
nan

>  <PDB_ID>  (49) 
nan

>  <Standardized_SMILES>  (49) 
Cc1ncc(NC(=O)c2ccc(CN3CCN(C)CC3)c(C(F)(F)F)c2)cc1Nc1nccc(-c2cccnc2)n1

>  <Name>  (49) 
Flumbatinib

>  <Pocket>  (49) 
nan

>  <ATP_Site>  (49) 
nan

>  <Peripheral>  (49) 
nan

>  <Num_H_Atoms_ProtBoundConf>  (49) 
nan

>  <Num_Resolved_Atoms>  (49) 
nan

>  <Num_Not_Resolved_Atoms>  (49) 
nan

>  <2D_Mol_H>  (49) 
<rdkit.Chem.rdchem.Mol object at 0x72a239113e60>

>  <MW>  (49) 
562.6

>  <HBA>  (49) 
8

>  <HBD>  (49) 
2

>  <LogP>  (49) 
5.00412

>  <NRB>  (49) 
9

>  <TPSA>  (49) 
99.17

>  <Num_Heavy_Atoms>  (49) 
41

>  <Ro5>  (49) 
[False, True, True, False, True, True]

>  <Ro5_Fulfilled>  (49) 
False

>  <Ro3>  (49) 
[False, False, True, False]

>  <Ro3_Fulfilled>  (49) 
False

>  <Fsp3>  (49) 
0.275862

>  <Fsp3_0.42>  (49) 
False

>  <Fsp3_0.45>  (49) 
False

>  <Stereogenic_Carbons>  (49) 
0

>  <C_Atoms>  (49) 
29

>  <FCStereo>  (49) 
0.0

>  <SPS>  (49) 
597

>  <nSPS>  (49) 
14.560976

>  <PBF>  (49) 
1.469379

>  <PBF_0.6>  (49) 
True

>  <nPBF>  (49) 
0.035839

>  <nPBF_0.016>  (49) 
True

>  <PMI1>  (49) 
4700.009679

>  <PMI2>  (49) 
13370.373041

>  <PMI3>  (49) 
14873.642381

>  <NPR1>  (49) 
0.315996

>  <NPR2>  (49) 
0.898931

>  <Sum_NPR>  (49) 
1.214927

>  <Sum_NPR_1.07>  (49) 
True

>  <Sum_NPR_1.2>  (49) 
True

>  <MaxAbsEStateIndex>  (49) 
13.984039

>  <MaxEStateIndex>  (49) 
13.984039

>  <MinAbsEStateIndex>  (49) 
0.095332

>  <MinEStateIndex>  (49) 
-4.592207

>  <qed>  (49) 
0.324707

>  <MolWt>  (49) 
562.6

>  <HeavyAtomMolWt>  (49) 
533.368

>  <ExactMolWt>  (49) 
562.241642

>  <NumValenceElectrons>  (49) 
212

>  <NumRadicalElectrons>  (49) 
0

>  <MaxPartialCharge>  (49) 
0.416248

>  <MinPartialCharge>  (49) 
-0.322491

>  <MaxAbsPartialCharge>  (49) 
0.416248

>  <MinAbsPartialCharge>  (49) 
0.322491

>  <FpDensityMorgan1>  (49) 
1.0

>  <FpDensityMorgan2>  (49) 
1.804878

>  <FpDensityMorgan3>  (49) 
2.536585

>  <BCUT2D_MWHI>  (49) 
19.413198

>  <BCUT2D_MWLOW>  (49) 
10.01617

>  <BCUT2D_CHGHI>  (49) 
2.34378

>  <BCUT2D_CHGLO>  (49) 
-2.325057

>  <BCUT2D_LOGPHI>  (49) 
2.336598

>  <BCUT2D_LOGPLOW>  (49) 
-2.436525

>  <BCUT2D_MRHI>  (49) 
6.042202

>  <BCUT2D_MRLOW>  (49) 
-0.13807

>  <AvgIpc>  (49) 
2.960785

>  <BalabanJ>  (49) 
1.321108

>  <BertzCT>  (49) 
1522.491632

>  <Chi0>  (49) 
28.984552

>  <Chi0n>  (49) 
22.61181

>  <Chi0v>  (49) 
22.61181

>  <Chi1>  (49) 
19.652018

>  <Chi1n>  (49) 
13.050284

>  <Chi1v>  (49) 
13.050284

>  <Chi2n>  (49) 
9.892385

>  <Chi2v>  (49) 
9.892385

>  <Chi3n>  (49) 
6.87144

>  <Chi3v>  (49) 
6.87144

>  <Chi4n>  (49) 
4.512054

>  <Chi4v>  (49) 
4.512054

>  <HallKierAlpha>  (49) 
-4.42

>  <Ipc>  (49) 
1443934117.052169

>  <Kappa1>  (49) 
28.121048

>  <Kappa2>  (49) 
11.985466

>  <Kappa3>  (49) 
7.023499

>  <LabuteASA>  (49) 
235.037446

>  <PEOE_VSA1>  (49) 
15.533487

>  <PEOE_VSA10>  (49) 
0.0

>  <PEOE_VSA11>  (49) 
0.0

>  <PEOE_VSA12>  (49) 
5.948339

>  <PEOE_VSA13>  (49) 
5.90718

>  <PEOE_VSA14>  (49) 
6.176299

>  <PEOE_VSA2>  (49) 
19.662404

>  <PEOE_VSA3>  (49) 
9.967957

>  <PEOE_VSA4>  (49) 
13.171245

>  <PEOE_VSA5>  (49) 
0.0

>  <PEOE_VSA6>  (49) 
6.066367

>  <PEOE_VSA7>  (49) 
55.933063

>  <PEOE_VSA8>  (49) 
62.441216

>  <PEOE_VSA9>  (49) 
34.522924

>  <SMR_VSA1>  (49) 
17.965782

>  <SMR_VSA10>  (49) 
23.230292

>  <SMR_VSA2>  (49) 
0.0

>  <SMR_VSA3>  (49) 
29.735734

>  <SMR_VSA4>  (49) 
0.0

>  <SMR_VSA5>  (49) 
19.644792

>  <SMR_VSA6>  (49) 
43.860275

>  <SMR_VSA7>  (49) 
89.636226

>  <SMR_VSA8>  (49) 
0.0

>  <SMR_VSA9>  (49) 
11.257379

>  <SlogP_VSA1>  (49) 
10.633577

>  <SlogP_VSA10>  (49) 
30.494357

>  <SlogP_VSA11>  (49) 
0.0

>  <SlogP_VSA12>  (49) 
0.0

>  <SlogP_VSA2>  (49) 
68.869611

>  <SlogP_VSA3>  (49) 
12.721055

>  <SlogP_VSA4>  (49) 
6.923737

>  <SlogP_VSA5>  (49) 
27.17882

>  <SlogP_VSA6>  (49) 
67.251944

>  <SlogP_VSA7>  (49) 
0.0

>  <SlogP_VSA8>  (49) 
11.257379

>  <SlogP_VSA9>  (49) 
0.0

>  <EState_VSA1>  (49) 
17.64693

>  <EState_VSA10>  (49) 
17.965782

>  <EState_VSA11>  (49) 
0.0

>  <EState_VSA2>  (49) 
17.671659

>  <EState_VSA3>  (49) 
41.800481

>  <EState_VSA4>  (49) 
24.719331

>  <EState_VSA5>  (49) 
18.329578

>  <EState_VSA6>  (49) 
37.647002

>  <EState_VSA7>  (49) 
24.080316

>  <EState_VSA8>  (49) 
35.469401

>  <EState_VSA9>  (49) 
0.0

>  <VSA_EState1>  (49) 
41.952118

>  <VSA_EState10>  (49) 
0.0

>  <VSA_EState2>  (49) 
34.337738

>  <VSA_EState3>  (49) 
5.760286

>  <VSA_EState4>  (49) 
2.192389

>  <VSA_EState5>  (49) 
-0.362442

>  <VSA_EState6>  (49) 
10.813407

>  <VSA_EState7>  (49) 
1.823675

>  <VSA_EState8>  (49) 
4.909801

>  <VSA_EState9>  (49) 
1.989694

>  <FractionCSP3>  (49) 
0.275862

>  <HeavyAtomCount>  (49) 
41

>  <NHOHCount>  (49) 
2

>  <NOCount>  (49) 
9

>  <NumAliphaticCarbocycles>  (49) 
0

>  <NumAliphaticHeterocycles>  (49) 
1

>  <NumAliphaticRings>  (49) 
1

>  <NumAromaticCarbocycles>  (49) 
1

>  <NumAromaticHeterocycles>  (49) 
3

>  <NumAromaticRings>  (49) 
4

>  <NumHAcceptors>  (49) 
8

>  <NumHDonors>  (49) 
2

>  <NumHeteroatoms>  (49) 
12

>  <NumRotatableBonds>  (49) 
7

>  <NumSaturatedCarbocycles>  (49) 
0

>  <NumSaturatedHeterocycles>  (49) 
1

>  <NumSaturatedRings>  (49) 
1

>  <RingCount>  (49) 
5

>  <MolLogP>  (49) 
5.00412

>  <MolMR>  (49) 
149.6909

>  <fr_Al_COO>  (49) 
0

>  <fr_Al_OH>  (49) 
0

>  <fr_Al_OH_noTert>  (49) 
0

>  <fr_ArN>  (49) 
0

>  <fr_Ar_COO>  (49) 
0

>  <fr_Ar_N>  (49) 
4

>  <fr_Ar_NH>  (49) 
0

>  <fr_Ar_OH>  (49) 
0

>  <fr_COO>  (49) 
0

>  <fr_COO2>  (49) 
0

>  <fr_C_O>  (49) 
1

>  <fr_C_O_noCOO>  (49) 
1

>  <fr_C_S>  (49) 
0

>  <fr_HOCCN>  (49) 
0

>  <fr_Imine>  (49) 
0

>  <fr_NH0>  (49) 
6

>  <fr_NH1>  (49) 
2

>  <fr_NH2>  (49) 
0

>  <fr_N_O>  (49) 
0

>  <fr_Ndealkylation1>  (49) 
1

>  <fr_Ndealkylation2>  (49) 
0

>  <fr_Nhpyrrole>  (49) 
0

>  <fr_SH>  (49) 
0

>  <fr_aldehyde>  (49) 
0

>  <fr_alkyl_carbamate>  (49) 
0

>  <fr_alkyl_halide>  (49) 
3

>  <fr_allylic_oxid>  (49) 
0

>  <fr_amide>  (49) 
1

>  <fr_amidine>  (49) 
0

>  <fr_aniline>  (49) 
3

>  <fr_aryl_methyl>  (49) 
1

>  <fr_azide>  (49) 
0

>  <fr_azo>  (49) 
0

>  <fr_barbitur>  (49) 
0

>  <fr_benzene>  (49) 
1

>  <fr_benzodiazepine>  (49) 
0

>  <fr_bicyclic>  (49) 
0

>  <fr_diazo>  (49) 
0

>  <fr_dihydropyridine>  (49) 
0

>  <fr_epoxide>  (49) 
0

>  <fr_ester>  (49) 
0

>  <fr_ether>  (49) 
0

>  <fr_furan>  (49) 
0

>  <fr_guanido>  (49) 
0

>  <fr_halogen>  (49) 
3

>  <fr_hdrzine>  (49) 
0

>  <fr_hdrzone>  (49) 
0

>  <fr_imidazole>  (49) 
0

>  <fr_imide>  (49) 
0

>  <fr_isocyan>  (49) 
0

>  <fr_isothiocyan>  (49) 
0

>  <fr_ketone>  (49) 
0

>  <fr_ketone_Topliss>  (49) 
0

>  <fr_lactam>  (49) 
0

>  <fr_lactone>  (49) 
0

>  <fr_methoxy>  (49) 
0

>  <fr_morpholine>  (49) 
0

>  <fr_nitrile>  (49) 
0

>  <fr_nitro>  (49) 
0

>  <fr_nitro_arom>  (49) 
0

>  <fr_nitro_arom_nonortho>  (49) 
0

>  <fr_nitroso>  (49) 
0

>  <fr_oxazole>  (49) 
0

>  <fr_oxime>  (49) 
0

>  <fr_para_hydroxylation>  (49) 
0

>  <fr_phenol>  (49) 
0

>  <fr_phenol_noOrthoHbond>  (49) 
0

>  <fr_phos_acid>  (49) 
0

>  <fr_phos_ester>  (49) 
0

>  <fr_piperdine>  (49) 
0

>  <fr_piperzine>  (49) 
1

>  <fr_priamide>  (49) 
0

>  <fr_prisulfonamd>  (49) 
0

>  <fr_pyridine>  (49) 
2

>  <fr_quatN>  (49) 
0

>  <fr_sulfide>  (49) 
0

>  <fr_sulfonamd>  (49) 
0

>  <fr_sulfone>  (49) 
0

>  <fr_term_acetylene>  (49) 
0

>  <fr_tetrazole>  (49) 
0

>  <fr_thiazole>  (49) 
0

>  <fr_thiocyan>  (49) 
0

>  <fr_thiophene>  (49) 
0

>  <fr_unbrch_alkane>  (49) 
0

>  <fr_urea>  (49) 
0

>  <NP_Likeness>  (49) 
-1.776785

$$$$
nan
     RDKit          3D

  0  0  0  0  0  0  0  0  0  0999 V3000
M  V30 BEGIN CTAB
M  V30 COUNTS 44 47 0 0 0
M  V30 BEGIN ATOM
M  V30 1 F -6.205936 0.964142 5.071242 0
M  V30 2 C -4.997192 0.318067 4.938791 0
M  V30 3 F -5.172345 -1.055653 4.873058 0
M  V30 4 F -4.208785 0.585818 6.035101 0
M  V30 5 C -4.256203 0.743402 3.722245 0
M  V30 6 C -3.840524 -0.118011 2.729049 0
M  V30 7 C -3.155863 0.328655 1.620937 0
M  V30 8 C -2.853964 1.664247 1.455033 0
M  V30 9 C -2.136154 2.335096 0.365045 0
M  V30 10 N -0.727586 2.482579 0.547859 0
M  V30 11 C 0.208669 1.448535 0.706715 0
M  V30 12 C 1.566443 1.704927 0.885315 0
M  V30 13 C 2.524587 0.730318 1.044331 0
M  V30 14 C 2.133772 -0.608243 1.028873 0
M  V30 15 C 3.256992 -1.559387 1.213335 0
M  V30 16 C 3.883998 -1.889910 -0.101012 0
M  V30 17 C 5.097575 -1.338385 -0.520674 0
M  V30 18 N 5.436173 -1.788007 -1.724764 0
M  V30 19 C 4.475795 -2.637996 -2.137612 0
M  V30 20 N 4.276208 -3.385437 -3.249476 0
M  V30 21 C 3.204522 -4.175592 -3.422639 0
M  V30 22 C 2.248182 -4.234983 -2.415653 0
M  V30 23 Cl 0.869825 -5.266335 -2.666008 0
M  V30 24 C 2.408755 -3.489390 -1.261769 0
M  V30 25 C 3.528544 -2.698805 -1.144050 0
M  V30 26 C 0.792823 -0.850983 0.852222 0
M  V30 27 N -0.080492 0.157086 0.703955 0
M  V30 28 C -3.298268 2.496666 2.491423 0
M  V30 29 N -3.970824 2.070957 3.583423 0
M  V30 30 H -4.061975 -1.171016 2.829804 0
M  V30 31 H -2.816574 -0.306202 0.822341 0
M  V30 32 H -2.274387 1.778768 -0.608182 0
M  V30 33 H -2.625220 3.317530 0.181500 0
M  V30 34 H -0.342146 3.475753 0.566223 0
M  V30 35 H 1.892734 2.749998 0.900591 0
M  V30 36 H 3.560496 1.047156 1.176931 0
M  V30 37 H 2.880362 -2.552096 1.596695 0
M  V30 38 H 4.007856 -1.157391 1.899574 0
M  V30 39 H 5.689500 -0.635368 0.055942 0
M  V30 40 H 6.294311 -1.543037 -2.283351 0
M  V30 41 H 3.095758 -4.752226 -4.333894 0
M  V30 42 H 1.665787 -3.537634 -0.481458 0
M  V30 43 H 0.544674 -1.901025 0.849977 0
M  V30 44 H -3.122017 3.582592 2.480596 0
M  V30 END ATOM
M  V30 BEGIN BOND
M  V30 1 1 1 2
M  V30 2 1 2 3
M  V30 3 1 2 4
M  V30 4 1 2 5
M  V30 5 2 5 6
M  V30 6 1 6 7
M  V30 7 2 7 8
M  V30 8 1 8 9
M  V30 9 1 9 10
M  V30 10 1 10 11
M  V30 11 2 11 12
M  V30 12 1 12 13
M  V30 13 2 13 14
M  V30 14 1 14 15
M  V30 15 1 15 16
M  V30 16 2 16 17
M  V30 17 1 17 18
M  V30 18 1 18 19
M  V30 19 2 19 20
M  V30 20 1 20 21
M  V30 21 2 21 22
M  V30 22 1 22 23
M  V30 23 1 22 24
M  V30 24 2 24 25
M  V30 25 1 14 26
M  V30 26 2 26 27
M  V30 27 1 8 28
M  V30 28 2 28 29
M  V30 29 1 29 5
M  V30 30 1 27 11
M  V30 31 1 25 16
M  V30 32 1 25 19
M  V30 33 1 6 30
M  V30 34 1 7 31
M  V30 35 1 9 32
M  V30 36 1 9 33
M  V30 37 1 10 34
M  V30 38 1 12 35
M  V30 39 1 13 36
M  V30 40 1 15 37
M  V30 41 1 15 38
M  V30 42 1 17 39
M  V30 43 1 18 40
M  V30 44 1 21 41
M  V30 45 1 24 42
M  V30 46 1 26 43
M  V30 47 1 28 44
M  V30 END BOND
M  V30 END CTAB
M  END
>  <Dataset>  (50) 
PKIs

>  <Ligand_Instance>  (50) 
nan

>  <PDB_ID>  (50) 
nan

>  <Standardized_SMILES>  (50) 
FC(F)(F)c1ccc(CNc2ccc(Cc3c[nH]c4ncc(Cl)cc34)cn2)cn1

>  <Name>  (50) 
Pexidartinib

>  <Pocket>  (50) 
nan

>  <ATP_Site>  (50) 
nan

>  <Peripheral>  (50) 
nan

>  <Num_H_Atoms_ProtBoundConf>  (50) 
nan

>  <Num_Resolved_Atoms>  (50) 
nan

>  <Num_Not_Resolved_Atoms>  (50) 
nan

>  <2D_Mol_H>  (50) 
<rdkit.Chem.rdchem.Mol object at 0x72a239113f40>

>  <MW>  (50) 
417.822

>  <HBA>  (50) 
4

>  <HBD>  (50) 
2

>  <LogP>  (50) 
5.228

>  <NRB>  (50) 
5

>  <TPSA>  (50) 
66.49

>  <Num_Heavy_Atoms>  (50) 
29

>  <Ro5>  (50) 
[True, True, True, False, True, True]

>  <Ro5_Fulfilled>  (50) 
True

>  <Ro3>  (50) 
[False, False, True, False]

>  <Ro3_Fulfilled>  (50) 
False

>  <Fsp3>  (50) 
0.15

>  <Fsp3_0.42>  (50) 
False

>  <Fsp3_0.45>  (50) 
False

>  <Stereogenic_Carbons>  (50) 
0

>  <C_Atoms>  (50) 
20

>  <FCStereo>  (50) 
0.0

>  <SPS>  (50) 
340

>  <nSPS>  (50) 
11.724138

>  <PBF>  (50) 
1.063401

>  <PBF_0.6>  (50) 
True

>  <nPBF>  (50) 
0.036669

>  <nPBF_0.016>  (50) 
True

>  <PMI1>  (50) 
1910.820882

>  <PMI2>  (50) 
9189.639244

>  <PMI3>  (50) 
10063.398578

>  <NPR1>  (50) 
0.189878

>  <NPR2>  (50) 
0.913175

>  <Sum_NPR>  (50) 
1.103053

>  <Sum_NPR_1.07>  (50) 
True

>  <Sum_NPR_1.2>  (50) 
False

>  <MaxAbsEStateIndex>  (50) 
12.549552

>  <MaxEStateIndex>  (50) 
12.549552

>  <MinAbsEStateIndex>  (50) 
0.323512

>  <MinEStateIndex>  (50) 
-4.434987

>  <qed>  (50) 
0.466458

>  <MolWt>  (50) 
417.822

>  <HeavyAtomMolWt>  (50) 
402.702

>  <ExactMolWt>  (50) 
417.096808

>  <NumValenceElectrons>  (50) 
148

>  <NumRadicalElectrons>  (50) 
0

>  <MaxPartialCharge>  (50) 
0.432831

>  <MinPartialCharge>  (50) 
-0.36594

>  <MaxAbsPartialCharge>  (50) 
0.432831

>  <MinAbsPartialCharge>  (50) 
0.36594

>  <FpDensityMorgan1>  (50) 
0.965517

>  <FpDensityMorgan2>  (50) 
1.758621

>  <FpDensityMorgan3>  (50) 
2.448276

>  <BCUT2D_MWHI>  (50) 
35.495692

>  <BCUT2D_MWLOW>  (50) 
10.072401

>  <BCUT2D_CHGHI>  (50) 
2.314505

>  <BCUT2D_CHGLO>  (50) 
-2.084462

>  <BCUT2D_LOGPHI>  (50) 
2.2703

>  <BCUT2D_LOGPLOW>  (50) 
-2.084959

>  <BCUT2D_MRHI>  (50) 
6.306337

>  <BCUT2D_MRLOW>  (50) 
-0.140716

>  <AvgIpc>  (50) 
3.088382

>  <BalabanJ>  (50) 
1.393116

>  <BertzCT>  (50) 
1121.778107

>  <Chi0>  (50) 
20.432511

>  <Chi0n>  (50) 
14.963865

>  <Chi0v>  (50) 
15.719794

>  <Chi1>  (50) 
13.881161

>  <Chi1n>  (50) 
8.707653

>  <Chi1v>  (50) 
9.085617

>  <Chi2n>  (50) 
6.495081

>  <Chi2v>  (50) 
6.931517

>  <Chi3n>  (50) 
4.391511

>  <Chi3v>  (50) 
4.59821

>  <Chi4n>  (50) 
2.921464

>  <Chi4v>  (50) 
3.079368

>  <HallKierAlpha>  (50) 
-3.13

>  <Ipc>  (50) 
4606778.237997

>  <Kappa1>  (50) 
19.197931

>  <Kappa2>  (50) 
7.710342

>  <Kappa3>  (50) 
4.482437

>  <LabuteASA>  (50) 
168.539921

>  <PEOE_VSA1>  (50) 
10.300767

>  <PEOE_VSA10>  (50) 
17.158968

>  <PEOE_VSA11>  (50) 
0.0

>  <PEOE_VSA12>  (50) 
0.0

>  <PEOE_VSA13>  (50) 
0.0

>  <PEOE_VSA14>  (50) 
6.176299

>  <PEOE_VSA2>  (50) 
4.983979

>  <PEOE_VSA3>  (50) 
9.967957

>  <PEOE_VSA4>  (50) 
13.171245

>  <PEOE_VSA5>  (50) 
0.0

>  <PEOE_VSA6>  (50) 
23.733674

>  <PEOE_VSA7>  (50) 
34.889456

>  <PEOE_VSA8>  (50) 
43.139177

>  <PEOE_VSA9>  (50) 
5.022633

>  <SMR_VSA1>  (50) 
13.171245

>  <SMR_VSA10>  (50) 
28.452204

>  <SMR_VSA2>  (50) 
0.0

>  <SMR_VSA3>  (50) 
19.935914

>  <SMR_VSA4>  (50) 
0.0

>  <SMR_VSA5>  (50) 
19.141877

>  <SMR_VSA6>  (50) 
5.316789

>  <SMR_VSA7>  (50) 
82.526125

>  <SMR_VSA8>  (50) 
0.0

>  <SMR_VSA9>  (50) 
0.0

>  <SlogP_VSA1>  (50) 
5.316789

>  <SlogP_VSA10>  (50) 
18.989108

>  <SlogP_VSA11>  (50) 
0.0

>  <SlogP_VSA12>  (50) 
11.60094

>  <SlogP_VSA2>  (50) 
19.935914

>  <SlogP_VSA3>  (50) 
19.141877

>  <SlogP_VSA4>  (50) 
0.0

>  <SlogP_VSA5>  (50) 
22.384282

>  <SlogP_VSA6>  (50) 
55.11921

>  <SlogP_VSA7>  (50) 
5.022633

>  <SlogP_VSA8>  (50) 
11.033401

>  <SlogP_VSA9>  (50) 
0.0

>  <EState_VSA1>  (50) 
11.870227

>  <EState_VSA10>  (50) 
13.171245

>  <EState_VSA11>  (50) 
0.0

>  <EState_VSA2>  (50) 
0.0

>  <EState_VSA3>  (50) 
29.369526

>  <EState_VSA4>  (50) 
28.226671

>  <EState_VSA5>  (50) 
12.263211

>  <EState_VSA6>  (50) 
12.393687

>  <EState_VSA7>  (50) 
24.395945

>  <EState_VSA8>  (50) 
25.252703

>  <EState_VSA9>  (50) 
11.60094

>  <VSA_EState1>  (50) 
37.648657

>  <VSA_EState10>  (50) 
6.030361

>  <VSA_EState2>  (50) 
15.179882

>  <VSA_EState3>  (50) 
4.621042

>  <VSA_EState4>  (50) 
2.575279

>  <VSA_EState5>  (50) 
0.622487

>  <VSA_EState6>  (50) 
8.004422

>  <VSA_EState7>  (50) 
2.688803

>  <VSA_EState8>  (50) 
0.323512

>  <VSA_EState9>  (50) 
0.0

>  <FractionCSP3>  (50) 
0.15

>  <HeavyAtomCount>  (50) 
29

>  <NHOHCount>  (50) 
2

>  <NOCount>  (50) 
5

>  <NumAliphaticCarbocycles>  (50) 
0

>  <NumAliphaticHeterocycles>  (50) 
0

>  <NumAliphaticRings>  (50) 
0

>  <NumAromaticCarbocycles>  (50) 
0

>  <NumAromaticHeterocycles>  (50) 
4

>  <NumAromaticRings>  (50) 
4

>  <NumHAcceptors>  (50) 
4

>  <NumHDonors>  (50) 
2

>  <NumHeteroatoms>  (50) 
9

>  <NumRotatableBonds>  (50) 
5

>  <NumSaturatedCarbocycles>  (50) 
0

>  <NumSaturatedHeterocycles>  (50) 
0

>  <NumSaturatedRings>  (50) 
0

>  <RingCount>  (50) 
4

>  <MolLogP>  (50) 
5.228

>  <MolMR>  (50) 
104.7124

>  <fr_Al_COO>  (50) 
0

>  <fr_Al_OH>  (50) 
0

>  <fr_Al_OH_noTert>  (50) 
0

>  <fr_ArN>  (50) 
0

>  <fr_Ar_COO>  (50) 
0

>  <fr_Ar_N>  (50) 
4

>  <fr_Ar_NH>  (50) 
1

>  <fr_Ar_OH>  (50) 
0

>  <fr_COO>  (50) 
0

>  <fr_COO2>  (50) 
0

>  <fr_C_O>  (50) 
0

>  <fr_C_O_noCOO>  (50) 
0

>  <fr_C_S>  (50) 
0

>  <fr_HOCCN>  (50) 
0

>  <fr_Imine>  (50) 
0

>  <fr_NH0>  (50) 
3

>  <fr_NH1>  (50) 
2

>  <fr_NH2>  (50) 
0

>  <fr_N_O>  (50) 
0

>  <fr_Ndealkylation1>  (50) 
0

>  <fr_Ndealkylation2>  (50) 
0

>  <fr_Nhpyrrole>  (50) 
1

>  <fr_SH>  (50) 
0

>  <fr_aldehyde>  (50) 
0

>  <fr_alkyl_carbamate>  (50) 
0

>  <fr_alkyl_halide>  (50) 
3

>  <fr_allylic_oxid>  (50) 
0

>  <fr_amide>  (50) 
0

>  <fr_amidine>  (50) 
0

>  <fr_aniline>  (50) 
1

>  <fr_aryl_methyl>  (50) 
0

>  <fr_azide>  (50) 
0

>  <fr_azo>  (50) 
0

>  <fr_barbitur>  (50) 
0

>  <fr_benzene>  (50) 
0

>  <fr_benzodiazepine>  (50) 
0

>  <fr_bicyclic>  (50) 
1

>  <fr_diazo>  (50) 
0

>  <fr_dihydropyridine>  (50) 
0

>  <fr_epoxide>  (50) 
0

>  <fr_ester>  (50) 
0

>  <fr_ether>  (50) 
0

>  <fr_furan>  (50) 
0

>  <fr_guanido>  (50) 
0

>  <fr_halogen>  (50) 
4

>  <fr_hdrzine>  (50) 
0

>  <fr_hdrzone>  (50) 
0

>  <fr_imidazole>  (50) 
0

>  <fr_imide>  (50) 
0

>  <fr_isocyan>  (50) 
0

>  <fr_isothiocyan>  (50) 
0

>  <fr_ketone>  (50) 
0

>  <fr_ketone_Topliss>  (50) 
0

>  <fr_lactam>  (50) 
0

>  <fr_lactone>  (50) 
0

>  <fr_methoxy>  (50) 
0

>  <fr_morpholine>  (50) 
0

>  <fr_nitrile>  (50) 
0

>  <fr_nitro>  (50) 
0

>  <fr_nitro_arom>  (50) 
0

>  <fr_nitro_arom_nonortho>  (50) 
0

>  <fr_nitroso>  (50) 
0

>  <fr_oxazole>  (50) 
0

>  <fr_oxime>  (50) 
0

>  <fr_para_hydroxylation>  (50) 
0

>  <fr_phenol>  (50) 
0

>  <fr_phenol_noOrthoHbond>  (50) 
0

>  <fr_phos_acid>  (50) 
0

>  <fr_phos_ester>  (50) 
0

>  <fr_piperdine>  (50) 
0

>  <fr_piperzine>  (50) 
0

>  <fr_priamide>  (50) 
0

>  <fr_prisulfonamd>  (50) 
0

>  <fr_pyridine>  (50) 
3

>  <fr_quatN>  (50) 
0

>  <fr_sulfide>  (50) 
0

>  <fr_sulfonamd>  (50) 
0

>  <fr_sulfone>  (50) 
0

>  <fr_term_acetylene>  (50) 
0

>  <fr_tetrazole>  (50) 
0

>  <fr_thiazole>  (50) 
0

>  <fr_thiocyan>  (50) 
0

>  <fr_thiophene>  (50) 
0

>  <fr_unbrch_alkane>  (50) 
0

>  <fr_urea>  (50) 
0

>  <NP_Likeness>  (50) 
-1.354435

$$$$
nan
     RDKit          3D

  0  0  0  0  0  0  0  0  0  0999 V3000
M  V30 BEGIN CTAB
M  V30 COUNTS 52 56 0 0 0
M  V30 BEGIN ATOM
M  V30 1 C -2.196969 0.086787 2.269632 0
M  V30 2 O -2.403887 -1.135679 1.637236 0
M  V30 3 C -1.337091 -1.955918 1.211081 0
M  V30 4 C -0.089813 -1.425509 1.483713 0
M  V30 5 C 0.993657 -2.172692 1.094874 0
M  V30 6 C 2.246284 -1.672923 1.360997 0
M  V30 7 O 2.558525 -0.479919 1.978258 0
M  V30 8 C 2.235193 0.761764 1.463542 0
M  V30 9 C 1.602010 1.199872 0.301814 0
M  V30 10 C 1.427934 2.547341 0.078606 0
M  V30 11 C 1.858061 3.506680 0.966040 0
M  V30 12 N 1.761474 4.845977 0.888471 0
M  V30 13 C 2.328185 5.351631 1.998261 0
M  V30 14 C 2.431252 6.804491 2.306626 0
M  V30 15 C 2.775599 4.292277 2.760265 0
M  V30 16 C 2.489544 3.100742 2.126800 0
M  V30 17 C 2.677090 1.734261 2.374088 0
M  V30 18 F 3.312409 1.541089 3.558725 0
M  V30 19 C 3.338913 -2.453158 0.967230 0
M  V30 20 C 3.151658 -3.684818 0.330678 0
M  V30 21 N 1.908041 -4.168804 0.071369 0
M  V30 22 C 0.892617 -3.387897 0.466756 0
M  V30 23 C -0.380657 -3.848682 0.230308 0
M  V30 24 C -1.541271 -3.187999 0.573694 0
M  V30 25 O -2.868161 -3.463211 0.432504 0
M  V30 26 C -3.524176 -4.527631 -0.140615 0
M  V30 27 C -3.372383 -4.756539 -1.608138 0
M  V30 28 N -4.095279 -5.969831 -2.041727 0
M  V30 29 C -2.358516 -4.197886 -2.483616 0
M  V30 30 C -3.773220 -3.588423 -2.508406 0
M  V30 31 H -3.191918 0.506869 2.515108 0
M  V30 32 H -1.714464 0.841341 1.611883 0
M  V30 33 H -1.638033 0.005460 3.227203 0
M  V30 34 H 0.050171 -0.489223 1.977883 0
M  V30 35 H 1.327553 0.353024 -0.287945 0
M  V30 36 H 0.920232 2.737058 -0.865325 0
M  V30 37 H 1.325346 5.387286 0.107237 0
M  V30 38 H 2.719706 7.345555 1.385563 0
M  V30 39 H 1.433504 7.216949 2.591273 0
M  V30 40 H 3.096348 6.963436 3.157607 0
M  V30 41 H 3.281473 4.353668 3.720383 0
M  V30 42 H 4.389043 -2.175559 1.118586 0
M  V30 43 H 3.999041 -4.285023 0.027838 0
M  V30 44 H -0.622266 -4.805496 -0.261255 0
M  V30 45 H -3.240576 -5.460578 0.415175 0
M  V30 46 H -4.644062 -4.458395 0.043395 0
M  V30 47 H -3.363426 -6.700581 -2.174794 0
M  V30 48 H -4.807402 -6.273415 -1.371021 0
M  V30 49 H -1.615030 -3.446454 -2.233740 0
M  V30 50 H -2.092336 -4.812568 -3.397362 0
M  V30 51 H -3.948879 -2.615666 -2.045870 0
M  V30 52 H -4.346709 -3.779624 -3.427200 0
M  V30 END ATOM
M  V30 BEGIN BOND
M  V30 1 1 1 2
M  V30 2 1 2 3
M  V30 3 2 3 4
M  V30 4 1 4 5
M  V30 5 2 5 6
M  V30 6 1 6 7
M  V30 7 1 7 8
M  V30 8 2 8 9
M  V30 9 1 9 10
M  V30 10 2 10 11
M  V30 11 1 11 12
M  V30 12 1 12 13
M  V30 13 1 13 14
M  V30 14 2 13 15
M  V30 15 1 15 16
M  V30 16 2 16 17
M  V30 17 1 17 18
M  V30 18 1 6 19
M  V30 19 2 19 20
M  V30 20 1 20 21
M  V30 21 2 21 22
M  V30 22 1 22 23
M  V30 23 2 23 24
M  V30 24 1 24 25
M  V30 25 1 25 26
M  V30 26 1 26 27
M  V30 27 1 27 28
M  V30 28 1 27 29
M  V30 29 1 29 30
M  V30 30 1 24 3
M  V30 31 1 30 27
M  V30 32 1 22 5
M  V30 33 1 17 8
M  V30 34 1 16 11
M  V30 35 1 1 31
M  V30 36 1 1 32
M  V30 37 1 1 33
M  V30 38 1 4 34
M  V30 39 1 9 35
M  V30 40 1 10 36
M  V30 41 1 12 37
M  V30 42 1 14 38
M  V30 43 1 14 39
M  V30 44 1 14 40
M  V30 45 1 15 41
M  V30 46 1 19 42
M  V30 47 1 20 43
M  V30 48 1 23 44
M  V30 49 1 26 45
M  V30 50 1 26 46
M  V30 51 1 28 47
M  V30 52 1 28 48
M  V30 53 1 29 49
M  V30 54 1 29 50
M  V30 55 1 30 51
M  V30 56 1 30 52
M  V30 END BOND
M  V30 END CTAB
M  END
>  <Dataset>  (51) 
PKIs

>  <Ligand_Instance>  (51) 
nan

>  <PDB_ID>  (51) 
nan

>  <Standardized_SMILES>  (51) 
COc1cc2c(Oc3ccc4[nH]c(C)cc4c3F)ccnc2cc1OCC1(N)CC1

>  <Name>  (51) 
Catequentinib

>  <Pocket>  (51) 
nan

>  <ATP_Site>  (51) 
nan

>  <Peripheral>  (51) 
nan

>  <Num_H_Atoms_ProtBoundConf>  (51) 
nan

>  <Num_Resolved_Atoms>  (51) 
nan

>  <Num_Not_Resolved_Atoms>  (51) 
nan

>  <2D_Mol_H>  (51) 
<rdkit.Chem.rdchem.Mol object at 0x72a2391400b0>

>  <MW>  (51) 
407.445

>  <HBA>  (51) 
5

>  <HBD>  (51) 
2

>  <LogP>  (51) 
4.83462

>  <NRB>  (51) 
9

>  <TPSA>  (51) 
82.39

>  <Num_Heavy_Atoms>  (51) 
30

>  <Ro5>  (51) 
[True, True, True, True, True, True]

>  <Ro5_Fulfilled>  (51) 
True

>  <Ro3>  (51) 
[False, False, True, False]

>  <Ro3_Fulfilled>  (51) 
False

>  <Fsp3>  (51) 
0.26087

>  <Fsp3_0.42>  (51) 
False

>  <Fsp3_0.45>  (51) 
False

>  <Stereogenic_Carbons>  (51) 
0

>  <C_Atoms>  (51) 
23

>  <FCStereo>  (51) 
0.0

>  <SPS>  (51) 
444

>  <nSPS>  (51) 
14.8

>  <PBF>  (51) 
1.010642

>  <PBF_0.6>  (51) 
True

>  <nPBF>  (51) 
0.033688

>  <nPBF_0.016>  (51) 
True

>  <PMI1>  (51) 
1674.688809

>  <PMI2>  (51) 
7044.524411

>  <PMI3>  (51) 
7901.174424

>  <NPR1>  (51) 
0.211954

>  <NPR2>  (51) 
0.891579

>  <Sum_NPR>  (51) 
1.103534

>  <Sum_NPR_1.07>  (51) 
True

>  <Sum_NPR_1.2>  (51) 
False

>  <MaxAbsEStateIndex>  (51) 
14.978664

>  <MaxEStateIndex>  (51) 
14.978664

>  <MinAbsEStateIndex>  (51) 
0.145463

>  <MinEStateIndex>  (51) 
-0.410733

>  <qed>  (51) 
0.478166

>  <MolWt>  (51) 
407.445

>  <HeavyAtomMolWt>  (51) 
385.269

>  <ExactMolWt>  (51) 
407.16452

>  <NumValenceElectrons>  (51) 
154

>  <NumRadicalElectrons>  (51) 
0

>  <MaxPartialCharge>  (51) 
0.17457

>  <MinPartialCharge>  (51) 
-0.492842

>  <MaxAbsPartialCharge>  (51) 
0.492842

>  <MinAbsPartialCharge>  (51) 
0.17457

>  <FpDensityMorgan1>  (51) 
1.066667

>  <FpDensityMorgan2>  (51) 
1.9

>  <FpDensityMorgan3>  (51) 
2.666667

>  <BCUT2D_MWHI>  (51) 
19.142293

>  <BCUT2D_MWLOW>  (51) 
10.144708

>  <BCUT2D_CHGHI>  (51) 
2.389029

>  <BCUT2D_CHGLO>  (51) 
-2.157196

>  <BCUT2D_LOGPHI>  (51) 
2.396338

>  <BCUT2D_LOGPLOW>  (51) 
-2.293796

>  <BCUT2D_MRHI>  (51) 
5.885947

>  <BCUT2D_MRLOW>  (51) 
0.264296

>  <AvgIpc>  (51) 
3.348793

>  <BalabanJ>  (51) 
1.520239

>  <BertzCT>  (51) 
1263.756793

>  <Chi0>  (51) 
20.880104

>  <Chi0n>  (51) 
16.790045

>  <Chi0v>  (51) 
16.790045

>  <Chi1>  (51) 
14.45444

>  <Chi1n>  (51) 
9.798286

>  <Chi1v>  (51) 
9.798286

>  <Chi2n>  (51) 
7.873681

>  <Chi2v>  (51) 
7.873681

>  <Chi3n>  (51) 
5.451249

>  <Chi3v>  (51) 
5.451249

>  <Chi4n>  (51) 
3.501456

>  <Chi4v>  (51) 
3.501456

>  <HallKierAlpha>  (51) 
-3.32

>  <Ipc>  (51) 
11230095.519637

>  <Kappa1>  (51) 
18.692404

>  <Kappa2>  (51) 
6.880387

>  <Kappa3>  (51) 
3.308023

>  <LabuteASA>  (51) 
172.310518

>  <PEOE_VSA1>  (51) 
24.928235

>  <PEOE_VSA10>  (51) 
12.356394

>  <PEOE_VSA11>  (51) 
23.065756

>  <PEOE_VSA12>  (51) 
0.0

>  <PEOE_VSA13>  (51) 
0.0

>  <PEOE_VSA14>  (51) 
0.0

>  <PEOE_VSA2>  (51) 
4.983979

>  <PEOE_VSA3>  (51) 
4.390415

>  <PEOE_VSA4>  (51) 
0.0

>  <PEOE_VSA5>  (51) 
0.0

>  <PEOE_VSA6>  (51) 
0.0

>  <PEOE_VSA7>  (51) 
50.097216

>  <PEOE_VSA8>  (51) 
34.246288

>  <PEOE_VSA9>  (51) 
18.165424

>  <SMR_VSA1>  (51) 
18.601004

>  <SMR_VSA10>  (51) 
21.80585

>  <SMR_VSA2>  (51) 
0.0

>  <SMR_VSA3>  (51) 
9.967957

>  <SMR_VSA4>  (51) 
5.733667

>  <SMR_VSA5>  (51) 
25.304306

>  <SMR_VSA6>  (51) 
13.71668

>  <SMR_VSA7>  (51) 
54.106195

>  <SMR_VSA8>  (51) 
0.0

>  <SMR_VSA9>  (51) 
22.998047

>  <SlogP_VSA1>  (51) 
19.944256

>  <SlogP_VSA10>  (51) 
4.390415

>  <SlogP_VSA11>  (51) 
22.998047

>  <SlogP_VSA12>  (51) 
0.0

>  <SlogP_VSA2>  (51) 
29.223562

>  <SlogP_VSA3>  (51) 
0.0

>  <SlogP_VSA4>  (51) 
12.740958

>  <SlogP_VSA5>  (51) 
18.535571

>  <SlogP_VSA6>  (51) 
42.595046

>  <SlogP_VSA7>  (51) 
0.0

>  <SlogP_VSA8>  (51) 
21.80585

>  <SlogP_VSA9>  (51) 
0.0

>  <EState_VSA1>  (51) 
5.817221

>  <EState_VSA10>  (51) 
4.390415

>  <EState_VSA11>  (51) 
0.0

>  <EState_VSA2>  (51) 
11.288437

>  <EState_VSA3>  (51) 
40.144567

>  <EState_VSA4>  (51) 
24.052272

>  <EState_VSA5>  (51) 
0.0

>  <EState_VSA6>  (51) 
49.704844

>  <EState_VSA7>  (51) 
6.923737

>  <EState_VSA8>  (51) 
9.967957

>  <EState_VSA9>  (51) 
19.944256

>  <VSA_EState1>  (51) 
32.334404

>  <VSA_EState10>  (51) 
0.0

>  <VSA_EState2>  (51) 
7.533037

>  <VSA_EState3>  (51) 
1.18773

>  <VSA_EState4>  (51) 
8.153718

>  <VSA_EState5>  (51) 
1.328621

>  <VSA_EState6>  (51) 
10.468444

>  <VSA_EState7>  (51) 
3.529301

>  <VSA_EState8>  (51) 
2.309886

>  <VSA_EState9>  (51) 
1.571526

>  <FractionCSP3>  (51) 
0.26087

>  <HeavyAtomCount>  (51) 
30

>  <NHOHCount>  (51) 
3

>  <NOCount>  (51) 
6

>  <NumAliphaticCarbocycles>  (51) 
1

>  <NumAliphaticHeterocycles>  (51) 
0

>  <NumAliphaticRings>  (51) 
1

>  <NumAromaticCarbocycles>  (51) 
2

>  <NumAromaticHeterocycles>  (51) 
2

>  <NumAromaticRings>  (51) 
4

>  <NumHAcceptors>  (51) 
5

>  <NumHDonors>  (51) 
2

>  <NumHeteroatoms>  (51) 
7

>  <NumRotatableBonds>  (51) 
6

>  <NumSaturatedCarbocycles>  (51) 
1

>  <NumSaturatedHeterocycles>  (51) 
0

>  <NumSaturatedRings>  (51) 
1

>  <RingCount>  (51) 
5

>  <MolLogP>  (51) 
4.83462

>  <MolMR>  (51) 
113.0101

>  <fr_Al_COO>  (51) 
0

>  <fr_Al_OH>  (51) 
0

>  <fr_Al_OH_noTert>  (51) 
0

>  <fr_ArN>  (51) 
0

>  <fr_Ar_COO>  (51) 
0

>  <fr_Ar_N>  (51) 
2

>  <fr_Ar_NH>  (51) 
1

>  <fr_Ar_OH>  (51) 
0

>  <fr_COO>  (51) 
0

>  <fr_COO2>  (51) 
0

>  <fr_C_O>  (51) 
0

>  <fr_C_O_noCOO>  (51) 
0

>  <fr_C_S>  (51) 
0

>  <fr_HOCCN>  (51) 
0

>  <fr_Imine>  (51) 
0

>  <fr_NH0>  (51) 
1

>  <fr_NH1>  (51) 
1

>  <fr_NH2>  (51) 
1

>  <fr_N_O>  (51) 
0

>  <fr_Ndealkylation1>  (51) 
0

>  <fr_Ndealkylation2>  (51) 
0

>  <fr_Nhpyrrole>  (51) 
1

>  <fr_SH>  (51) 
0

>  <fr_aldehyde>  (51) 
0

>  <fr_alkyl_carbamate>  (51) 
0

>  <fr_alkyl_halide>  (51) 
0

>  <fr_allylic_oxid>  (51) 
0

>  <fr_amide>  (51) 
0

>  <fr_amidine>  (51) 
0

>  <fr_aniline>  (51) 
0

>  <fr_aryl_methyl>  (51) 
1

>  <fr_azide>  (51) 
0

>  <fr_azo>  (51) 
0

>  <fr_barbitur>  (51) 
0

>  <fr_benzene>  (51) 
2

>  <fr_benzodiazepine>  (51) 
0

>  <fr_bicyclic>  (51) 
2

>  <fr_diazo>  (51) 
0

>  <fr_dihydropyridine>  (51) 
0

>  <fr_epoxide>  (51) 
0

>  <fr_ester>  (51) 
0

>  <fr_ether>  (51) 
3

>  <fr_furan>  (51) 
0

>  <fr_guanido>  (51) 
0

>  <fr_halogen>  (51) 
1

>  <fr_hdrzine>  (51) 
0

>  <fr_hdrzone>  (51) 
0

>  <fr_imidazole>  (51) 
0

>  <fr_imide>  (51) 
0

>  <fr_isocyan>  (51) 
0

>  <fr_isothiocyan>  (51) 
0

>  <fr_ketone>  (51) 
0

>  <fr_ketone_Topliss>  (51) 
0

>  <fr_lactam>  (51) 
0

>  <fr_lactone>  (51) 
0

>  <fr_methoxy>  (51) 
1

>  <fr_morpholine>  (51) 
0

>  <fr_nitrile>  (51) 
0

>  <fr_nitro>  (51) 
0

>  <fr_nitro_arom>  (51) 
0

>  <fr_nitro_arom_nonortho>  (51) 
0

>  <fr_nitroso>  (51) 
0

>  <fr_oxazole>  (51) 
0

>  <fr_oxime>  (51) 
0

>  <fr_para_hydroxylation>  (51) 
0

>  <fr_phenol>  (51) 
0

>  <fr_phenol_noOrthoHbond>  (51) 
0

>  <fr_phos_acid>  (51) 
0

>  <fr_phos_ester>  (51) 
0

>  <fr_piperdine>  (51) 
0

>  <fr_piperzine>  (51) 
0

>  <fr_priamide>  (51) 
0

>  <fr_prisulfonamd>  (51) 
0

>  <fr_pyridine>  (51) 
1

>  <fr_quatN>  (51) 
0

>  <fr_sulfide>  (51) 
0

>  <fr_sulfonamd>  (51) 
0

>  <fr_sulfone>  (51) 
0

>  <fr_term_acetylene>  (51) 
0

>  <fr_tetrazole>  (51) 
0

>  <fr_thiazole>  (51) 
0

>  <fr_thiocyan>  (51) 
0

>  <fr_thiophene>  (51) 
0

>  <fr_unbrch_alkane>  (51) 
0

>  <fr_urea>  (51) 
0

>  <NP_Likeness>  (51) 
-0.218903

$$$$
nan
     RDKit          3D

  0  0  0  0  0  0  0  0  0  0999 V3000
M  V30 BEGIN CTAB
M  V30 COUNTS 63 65 0 0 0
M  V30 BEGIN ATOM
M  V30 1 C 5.784614 -1.715903 6.817108 0
M  V30 2 O 4.607671 -2.004149 6.056007 0
M  V30 3 C 4.196213 -1.066988 5.114026 0
M  V30 4 O 4.951450 -0.074785 5.077403 0
M  V30 5 N 3.029974 -1.251385 4.293252 0
M  V30 6 C 2.764286 -0.136229 3.354754 0 CFG=1
M  V30 7 C 2.805946 -0.706766 1.949009 0
M  V30 8 C 1.365039 0.360514 3.621508 0
M  V30 9 N 0.936763 1.450680 2.825913 0
M  V30 10 C 0.593109 1.886670 1.551993 0
M  V30 11 N 0.262712 3.139657 1.114251 0
M  V30 12 C -0.056009 3.387945 -0.141684 0
M  V30 13 C -0.065454 2.381731 -1.058585 0
M  V30 14 C 0.258420 1.102353 -0.673045 0
M  V30 15 C 0.221181 0.100738 -1.728170 0
M  V30 16 C 0.934345 -0.125233 -2.891249 0
M  V30 17 N 0.446653 -1.230999 -3.480378 0
M  V30 18 C 0.960228 -1.781175 -4.742571 0
M  V30 19 C 0.391452 -3.174216 -4.909339 0
M  V30 20 C 0.575702 -0.959464 -5.933759 0
M  V30 21 N -0.554518 -1.728404 -2.742445 0
M  V30 22 C -0.699661 -0.924288 -1.673012 0
M  V30 23 C -1.763214 -1.331724 -0.759977 0
M  V30 24 C -1.754623 -2.577388 -0.124087 0
M  V30 25 C -2.804040 -2.900640 0.730693 0
M  V30 26 Cl -2.779039 -4.465073 1.520296 0
M  V30 27 C -3.820460 -1.994860 0.931095 0
M  V30 28 C -3.873133 -0.752784 0.326127 0
M  V30 29 N -4.921430 0.182379 0.539050 0
M  V30 30 S -6.370955 -0.257145 1.397195 0
M  V30 31 C -7.218565 -1.567617 0.514716 0
M  V30 32 O -7.241420 0.929632 1.623269 0
M  V30 33 O -6.035263 -0.833411 2.748416 0
M  V30 34 C -2.816069 -0.480242 -0.507640 0
M  V30 35 F -2.802270 0.720693 -1.133570 0
M  V30 36 N 0.561770 0.953381 0.598321 0
M  V30 37 H 5.858717 -2.317657 7.722727 0
M  V30 38 H 5.733518 -0.628863 7.054165 0
M  V30 39 H 6.663292 -1.817906 6.126769 0
M  V30 40 H 2.457324 -2.109396 4.388574 0
M  V30 41 H 3.527491 0.624917 3.490547 0
M  V30 42 H 3.573064 -1.541827 1.900078 0
M  V30 43 H 1.859798 -1.210851 1.680713 0
M  V30 44 H 3.082896 0.081835 1.248720 0
M  V30 45 H 1.332958 0.578284 4.715767 0
M  V30 46 H 0.646115 -0.495309 3.504507 0
M  V30 47 H 0.827117 2.308693 3.443853 0
M  V30 48 H -0.280065 4.435410 -0.268342 0
M  V30 49 H -0.334389 2.657538 -2.059523 0
M  V30 50 H 1.729845 0.547890 -3.172142 0
M  V30 51 H 2.068212 -1.841448 -4.592784 0
M  V30 52 H -0.637661 -3.055835 -5.320860 0
M  V30 53 H 0.312895 -3.730871 -3.954128 0
M  V30 54 H 0.969999 -3.759707 -5.661749 0
M  V30 55 H -0.346568 -0.370000 -5.802934 0
M  V30 56 H 0.421497 -1.629143 -6.804084 0
M  V30 57 H 1.450655 -0.313124 -6.220213 0
M  V30 58 H -0.924608 -3.217521 -0.338471 0
M  V30 59 H -4.613438 -2.290321 1.603532 0
M  V30 60 H -4.793748 1.141673 0.163318 0
M  V30 61 H -7.148700 -1.401031 -0.586729 0
M  V30 62 H -8.309358 -1.560005 0.752237 0
M  V30 63 H -6.853731 -2.573499 0.801859 0
M  V30 END ATOM
M  V30 BEGIN BOND
M  V30 1 1 1 2
M  V30 2 1 2 3
M  V30 3 2 3 4
M  V30 4 1 3 5
M  V30 5 1 5 6
M  V30 6 1 6 7
M  V30 7 1 6 8
M  V30 8 1 8 9
M  V30 9 1 9 10
M  V30 10 2 10 11
M  V30 11 1 11 12
M  V30 12 2 12 13
M  V30 13 1 13 14
M  V30 14 1 14 15
M  V30 15 2 15 16
M  V30 16 1 16 17
M  V30 17 1 17 18
M  V30 18 1 18 19
M  V30 19 1 18 20
M  V30 20 1 17 21
M  V30 21 2 21 22
M  V30 22 1 22 23
M  V30 23 2 23 24
M  V30 24 1 24 25
M  V30 25 1 25 26
M  V30 26 2 25 27
M  V30 27 1 27 28
M  V30 28 1 28 29
M  V30 29 1 29 30
M  V30 30 1 30 31
M  V30 31 2 30 32
M  V30 32 2 30 33
M  V30 33 2 28 34
M  V30 34 1 34 35
M  V30 35 2 14 36
M  V30 36 1 36 10
M  V30 37 1 22 15
M  V30 38 1 34 23
M  V30 39 1 1 37
M  V30 40 1 1 38
M  V30 41 1 1 39
M  V30 42 1 5 40
M  V30 43 1 6 41 CFG=3
M  V30 44 1 7 42
M  V30 45 1 7 43
M  V30 46 1 7 44
M  V30 47 1 8 45
M  V30 48 1 8 46
M  V30 49 1 9 47
M  V30 50 1 12 48
M  V30 51 1 13 49
M  V30 52 1 16 50
M  V30 53 1 18 51
M  V30 54 1 19 52
M  V30 55 1 19 53
M  V30 56 1 19 54
M  V30 57 1 20 55
M  V30 58 1 20 56
M  V30 59 1 20 57
M  V30 60 1 24 58
M  V30 61 1 27 59
M  V30 62 1 29 60
M  V30 63 1 31 61
M  V30 64 1 31 62
M  V30 65 1 31 63
M  V30 END BOND
M  V30 END CTAB
M  END
>  <Dataset>  (52) 
PKIs

>  <Ligand_Instance>  (52) 
nan

>  <PDB_ID>  (52) 
nan

>  <Standardized_SMILES>  (52) 
COC(=O)N[C@@H](C)CNc1nccc(-c2cn(C(C)C)nc2-c2cc(Cl)cc(NS(C)(=O)=O)c2F)n1

>  <Name>  (52) 
Encorafenib

>  <Pocket>  (52) 
nan

>  <ATP_Site>  (52) 
nan

>  <Peripheral>  (52) 
nan

>  <Num_H_Atoms_ProtBoundConf>  (52) 
nan

>  <Num_Resolved_Atoms>  (52) 
nan

>  <Num_Not_Resolved_Atoms>  (52) 
nan

>  <2D_Mol_H>  (52) 
<rdkit.Chem.rdchem.Mol object at 0x72a239140190>

>  <MW>  (52) 
540.021

>  <HBA>  (52) 
9

>  <HBD>  (52) 
3

>  <LogP>  (52) 
3.9084

>  <NRB>  (52) 
14

>  <TPSA>  (52) 
140.13

>  <Num_Heavy_Atoms>  (52) 
36

>  <Ro5>  (52) 
[False, True, True, True, False, False]

>  <Ro5_Fulfilled>  (52) 
False

>  <Ro3>  (52) 
[False, False, True, False]

>  <Ro3_Fulfilled>  (52) 
False

>  <Fsp3>  (52) 
0.363636

>  <Fsp3_0.42>  (52) 
False

>  <Fsp3_0.45>  (52) 
False

>  <Stereogenic_Carbons>  (52) 
1

>  <C_Atoms>  (52) 
22

>  <FCStereo>  (52) 
0.045455

>  <SPS>  (52) 
444

>  <nSPS>  (52) 
12.333333

>  <PBF>  (52) 
1.424826

>  <PBF_0.6>  (52) 
True

>  <nPBF>  (52) 
0.039578

>  <nPBF_0.016>  (52) 
True

>  <PMI1>  (52) 
5659.10961

>  <PMI2>  (52) 
9005.851923

>  <PMI3>  (52) 
11143.704584

>  <NPR1>  (52) 
0.50783

>  <NPR2>  (52) 
0.808156

>  <Sum_NPR>  (52) 
1.315986

>  <Sum_NPR_1.07>  (52) 
True

>  <Sum_NPR_1.2>  (52) 
True

>  <MaxAbsEStateIndex>  (52) 
15.472373

>  <MaxEStateIndex>  (52) 
15.472373

>  <MinAbsEStateIndex>  (52) 
0.006548

>  <MinEStateIndex>  (52) 
-3.751573

>  <qed>  (52) 
0.371598

>  <MolWt>  (52) 
540.021

>  <HeavyAtomMolWt>  (52) 
512.805

>  <ExactMolWt>  (52) 
539.151779

>  <NumValenceElectrons>  (52) 
194

>  <NumRadicalElectrons>  (52) 
0

>  <MaxPartialCharge>  (52) 
0.406617

>  <MinPartialCharge>  (52) 
-0.452878

>  <MaxAbsPartialCharge>  (52) 
0.452878

>  <MinAbsPartialCharge>  (52) 
0.406617

>  <FpDensityMorgan1>  (52) 
1.25

>  <FpDensityMorgan2>  (52) 
1.972222

>  <FpDensityMorgan3>  (52) 
2.611111

>  <BCUT2D_MWHI>  (52) 
35.495693

>  <BCUT2D_MWLOW>  (52) 
10.04367

>  <BCUT2D_CHGHI>  (52) 
2.22354

>  <BCUT2D_CHGLO>  (52) 
-2.137797

>  <BCUT2D_LOGPHI>  (52) 
2.367755

>  <BCUT2D_LOGPLOW>  (52) 
-2.370032

>  <BCUT2D_MRHI>  (52) 
7.91524

>  <BCUT2D_MRLOW>  (52) 
0.167694

>  <AvgIpc>  (52) 
3.245284

>  <BalabanJ>  (52) 
2.027315

>  <BertzCT>  (52) 
1364.421629

>  <Chi0>  (52) 
26.620591

>  <Chi0n>  (52) 
20.334583

>  <Chi0v>  (52) 
21.907009

>  <Chi1>  (52) 
16.873231

>  <Chi1n>  (52) 
10.857102

>  <Chi1v>  (52) 
13.126478

>  <Chi2n>  (52) 
8.337616

>  <Chi2v>  (52) 
10.522507

>  <Chi3n>  (52) 
4.896443

>  <Chi3v>  (52) 
5.705365

>  <Chi4n>  (52) 
3.227519

>  <Chi4v>  (52) 
3.993741

>  <HallKierAlpha>  (52) 
-3.45

>  <Ipc>  (52) 
58798726.647278

>  <Kappa1>  (52) 
27.142736

>  <Kappa2>  (52) 
11.08063

>  <Kappa3>  (52) 
6.818229

>  <LabuteASA>  (52) 
213.030831

>  <PEOE_VSA1>  (52) 
15.37044

>  <PEOE_VSA10>  (52) 
5.693928

>  <PEOE_VSA11>  (52) 
5.817221

>  <PEOE_VSA12>  (52) 
15.97163

>  <PEOE_VSA13>  (52) 
0.0

>  <PEOE_VSA14>  (52) 
6.09324

>  <PEOE_VSA2>  (52) 
9.403898

>  <PEOE_VSA3>  (52) 
27.570706

>  <PEOE_VSA4>  (52) 
5.098682

>  <PEOE_VSA5>  (52) 
0.0

>  <PEOE_VSA6>  (52) 
11.60094

>  <PEOE_VSA7>  (52) 
38.970313

>  <PEOE_VSA8>  (52) 
47.171662

>  <PEOE_VSA9>  (52) 
24.746881

>  <SMR_VSA1>  (52) 
22.339612

>  <SMR_VSA10>  (52) 
39.353197

>  <SMR_VSA2>  (52) 
0.0

>  <SMR_VSA3>  (52) 
25.06523

>  <SMR_VSA4>  (52) 
0.0

>  <SMR_VSA5>  (52) 
32.854893

>  <SMR_VSA6>  (52) 
29.949207

>  <SMR_VSA7>  (52) 
41.432643

>  <SMR_VSA8>  (52) 
0.0

>  <SMR_VSA9>  (52) 
22.514759

>  <SlogP_VSA1>  (52) 
15.355672

>  <SlogP_VSA10>  (52) 
20.820678

>  <SlogP_VSA11>  (52) 
0.0

>  <SlogP_VSA12>  (52) 
11.60094

>  <SlogP_VSA2>  (52) 
60.211643

>  <SlogP_VSA3>  (52) 
14.760154

>  <SlogP_VSA4>  (52) 
5.817221

>  <SlogP_VSA5>  (52) 
26.813052

>  <SlogP_VSA6>  (52) 
30.592788

>  <SlogP_VSA7>  (52) 
5.022633

>  <SlogP_VSA8>  (52) 
22.514759

>  <SlogP_VSA9>  (52) 
0.0

>  <EState_VSA1>  (52) 
21.933752

>  <EState_VSA10>  (52) 
13.212334

>  <EState_VSA11>  (52) 
4.390415

>  <EState_VSA2>  (52) 
39.99942

>  <EState_VSA3>  (52) 
17.802136

>  <EState_VSA4>  (52) 
6.255769

>  <EState_VSA5>  (52) 
25.439375

>  <EState_VSA6>  (52) 
23.868751

>  <EState_VSA7>  (52) 
13.847474

>  <EState_VSA8>  (52) 
35.159174

>  <EState_VSA9>  (52) 
11.60094

>  <VSA_EState1>  (52) 
47.292607

>  <VSA_EState10>  (52) 
6.200442

>  <VSA_EState2>  (52) 
20.096603

>  <VSA_EState3>  (52) 
10.331688

>  <VSA_EState4>  (52) 
0.876127

>  <VSA_EState5>  (52) 
-0.545874

>  <VSA_EState6>  (52) 
3.880807

>  <VSA_EState7>  (52) 
3.614216

>  <VSA_EState8>  (52) 
5.921704

>  <VSA_EState9>  (52) 
-2.473876

>  <FractionCSP3>  (52) 
0.363636

>  <HeavyAtomCount>  (52) 
36

>  <NHOHCount>  (52) 
3

>  <NOCount>  (52) 
11

>  <NumAliphaticCarbocycles>  (52) 
0

>  <NumAliphaticHeterocycles>  (52) 
0

>  <NumAliphaticRings>  (52) 
0

>  <NumAromaticCarbocycles>  (52) 
1

>  <NumAromaticHeterocycles>  (52) 
2

>  <NumAromaticRings>  (52) 
3

>  <NumHAcceptors>  (52) 
9

>  <NumHDonors>  (52) 
3

>  <NumHeteroatoms>  (52) 
14

>  <NumRotatableBonds>  (52) 
9

>  <NumSaturatedCarbocycles>  (52) 
0

>  <NumSaturatedHeterocycles>  (52) 
0

>  <NumSaturatedRings>  (52) 
0

>  <RingCount>  (52) 
3

>  <MolLogP>  (52) 
3.9084

>  <MolMR>  (52) 
136.0009

>  <fr_Al_COO>  (52) 
0

>  <fr_Al_OH>  (52) 
0

>  <fr_Al_OH_noTert>  (52) 
0

>  <fr_ArN>  (52) 
0

>  <fr_Ar_COO>  (52) 
0

>  <fr_Ar_N>  (52) 
4

>  <fr_Ar_NH>  (52) 
0

>  <fr_Ar_OH>  (52) 
0

>  <fr_COO>  (52) 
0

>  <fr_COO2>  (52) 
0

>  <fr_C_O>  (52) 
1

>  <fr_C_O_noCOO>  (52) 
1

>  <fr_C_S>  (52) 
0

>  <fr_HOCCN>  (52) 
0

>  <fr_Imine>  (52) 
0

>  <fr_NH0>  (52) 
4

>  <fr_NH1>  (52) 
3

>  <fr_NH2>  (52) 
0

>  <fr_N_O>  (52) 
0

>  <fr_Ndealkylation1>  (52) 
0

>  <fr_Ndealkylation2>  (52) 
0

>  <fr_Nhpyrrole>  (52) 
0

>  <fr_SH>  (52) 
0

>  <fr_aldehyde>  (52) 
0

>  <fr_alkyl_carbamate>  (52) 
1

>  <fr_alkyl_halide>  (52) 
0

>  <fr_allylic_oxid>  (52) 
0

>  <fr_amide>  (52) 
1

>  <fr_amidine>  (52) 
0

>  <fr_aniline>  (52) 
2

>  <fr_aryl_methyl>  (52) 
0

>  <fr_azide>  (52) 
0

>  <fr_azo>  (52) 
0

>  <fr_barbitur>  (52) 
0

>  <fr_benzene>  (52) 
1

>  <fr_benzodiazepine>  (52) 
0

>  <fr_bicyclic>  (52) 
0

>  <fr_diazo>  (52) 
0

>  <fr_dihydropyridine>  (52) 
0

>  <fr_epoxide>  (52) 
0

>  <fr_ester>  (52) 
0

>  <fr_ether>  (52) 
1

>  <fr_furan>  (52) 
0

>  <fr_guanido>  (52) 
0

>  <fr_halogen>  (52) 
2

>  <fr_hdrzine>  (52) 
0

>  <fr_hdrzone>  (52) 
0

>  <fr_imidazole>  (52) 
0

>  <fr_imide>  (52) 
0

>  <fr_isocyan>  (52) 
0

>  <fr_isothiocyan>  (52) 
0

>  <fr_ketone>  (52) 
0

>  <fr_ketone_Topliss>  (52) 
0

>  <fr_lactam>  (52) 
0

>  <fr_lactone>  (52) 
0

>  <fr_methoxy>  (52) 
1

>  <fr_morpholine>  (52) 
0

>  <fr_nitrile>  (52) 
0

>  <fr_nitro>  (52) 
0

>  <fr_nitro_arom>  (52) 
0

>  <fr_nitro_arom_nonortho>  (52) 
0

>  <fr_nitroso>  (52) 
0

>  <fr_oxazole>  (52) 
0

>  <fr_oxime>  (52) 
0

>  <fr_para_hydroxylation>  (52) 
0

>  <fr_phenol>  (52) 
0

>  <fr_phenol_noOrthoHbond>  (52) 
0

>  <fr_phos_acid>  (52) 
0

>  <fr_phos_ester>  (52) 
0

>  <fr_piperdine>  (52) 
0

>  <fr_piperzine>  (52) 
0

>  <fr_priamide>  (52) 
0

>  <fr_prisulfonamd>  (52) 
0

>  <fr_pyridine>  (52) 
0

>  <fr_quatN>  (52) 
0

>  <fr_sulfide>  (52) 
0

>  <fr_sulfonamd>  (52) 
1

>  <fr_sulfone>  (52) 
0

>  <fr_term_acetylene>  (52) 
0

>  <fr_tetrazole>  (52) 
0

>  <fr_thiazole>  (52) 
0

>  <fr_thiocyan>  (52) 
0

>  <fr_thiophene>  (52) 
0

>  <fr_unbrch_alkane>  (52) 
0

>  <fr_urea>  (52) 
0

>  <NP_Likeness>  (52) 
-1.501208

$$$$
nan
     RDKit          3D

  0  0  0  0  0  0  0  0  0  0999 V3000
M  V30 BEGIN CTAB
M  V30 COUNTS 53 57 0 0 0
M  V30 BEGIN ATOM
M  V30 1 O 0.011021 0.213885 -2.094052 0
M  V30 2 C 0.255712 -0.052213 -3.294762 0
M  V30 3 N -0.442897 -1.153003 -3.845608 0
M  V30 4 C -1.389178 -2.030786 -3.266022 0
M  V30 5 C -2.026956 -3.017631 -3.986880 0
M  V30 6 N -2.852781 -3.666608 -3.154904 0
M  V30 7 N -2.782078 -3.153696 -1.940624 0
M  V30 8 C -3.457728 -3.538713 -0.848122 0
M  V30 9 C -3.149168 -2.782551 0.292258 0
M  V30 10 C -2.223691 -1.729449 0.283607 0
M  V30 11 N -2.055538 -1.062923 1.559142 0
M  V30 12 C -3.289931 -0.910512 2.374553 0
M  V30 13 C -3.246360 0.560869 2.819814 0
M  V30 14 C -1.809544 0.972930 2.462757 0
M  V30 15 C -1.210289 -0.444514 2.489235 0 CFG=2
M  V30 16 C 0.211534 -0.470552 2.433585 0
M  V30 17 C 1.085372 -0.543095 1.371538 0
M  V30 18 C 2.461832 -0.565569 1.392712 0
M  V30 19 F 3.175147 -0.639829 0.248393 0
M  V30 20 C 3.064784 -0.508865 2.630137 0
M  V30 21 C 2.298807 -0.434460 3.759972 0
M  V30 22 C 0.927693 -0.417040 3.646707 0
M  V30 23 F 0.227095 -0.341342 4.819882 0
M  V30 24 N -1.626698 -1.458675 -0.880225 0
M  V30 25 C -1.891028 -2.152452 -1.990934 0
M  V30 26 N 1.186117 0.731844 -4.019622 0
M  V30 27 C 1.715217 0.728641 -5.392247 0
M  V30 28 C 1.385946 2.172364 -5.792646 0
M  V30 29 C 1.472460 2.950472 -4.472959 0 CFG=2
M  V30 30 O 2.399802 3.951994 -4.635222 0
M  V30 31 C 1.922587 1.865161 -3.496935 0
M  V30 32 H -0.169430 -1.294123 -4.862739 0
M  V30 33 H -1.951615 -3.306789 -5.040772 0
M  V30 34 H -4.175955 -4.342960 -0.802469 0
M  V30 35 H -3.702834 -3.095799 1.194005 0
M  V30 36 H -3.288025 -1.580368 3.236908 0
M  V30 37 H -4.207017 -1.011196 1.811423 0
M  V30 38 H -3.964416 1.185818 2.270894 0
M  V30 39 H -3.315768 0.610095 3.909662 0
M  V30 40 H -1.749050 1.305794 1.425818 0
M  V30 41 H -1.357226 1.621969 3.203334 0
M  V30 42 H -1.507817 -0.805767 3.530289 0
M  V30 43 H 0.632836 -0.587380 0.409132 0
M  V30 44 H 4.132548 -0.523580 2.697385 0
M  V30 45 H 2.769052 -0.389894 4.731176 0
M  V30 46 H 1.218194 -0.012576 -6.018694 0
M  V30 47 H 2.810628 0.629612 -5.313481 0
M  V30 48 H 2.160531 2.503042 -6.498003 0
M  V30 49 H 0.367581 2.173188 -6.189535 0
M  V30 50 H 0.454796 3.292696 -4.230851 0
M  V30 51 H 2.115498 4.715121 -4.078655 0
M  V30 52 H 1.697610 2.099240 -2.450947 0
M  V30 53 H 3.025394 1.735634 -3.675999 0
M  V30 END ATOM
M  V30 BEGIN BOND
M  V30 1 2 1 2
M  V30 2 1 2 3
M  V30 3 1 3 4
M  V30 4 1 4 5
M  V30 5 2 5 6
M  V30 6 1 6 7
M  V30 7 1 7 8
M  V30 8 2 8 9
M  V30 9 1 9 10
M  V30 10 1 10 11
M  V30 11 1 11 12
M  V30 12 1 12 13
M  V30 13 1 13 14
M  V30 14 1 14 15
M  V30 15 1 15 16
M  V30 16 2 16 17
M  V30 17 1 17 18
M  V30 18 1 18 19
M  V30 19 2 18 20
M  V30 20 1 20 21
M  V30 21 2 21 22
M  V30 22 1 22 23
M  V30 23 2 10 24
M  V30 24 1 24 25
M  V30 25 1 2 26
M  V30 26 1 26 27
M  V30 27 1 27 28
M  V30 28 1 28 29
M  V30 29 1 29 30
M  V30 30 1 29 31
M  V30 31 2 25 4
M  V30 32 1 31 26
M  V30 33 1 25 7
M  V30 34 1 15 11
M  V30 35 1 22 16
M  V30 36 1 3 32
M  V30 37 1 5 33
M  V30 38 1 8 34
M  V30 39 1 9 35
M  V30 40 1 12 36
M  V30 41 1 12 37
M  V30 42 1 13 38
M  V30 43 1 13 39
M  V30 44 1 14 40
M  V30 45 1 14 41
M  V30 46 1 15 42 CFG=1
M  V30 47 1 17 43
M  V30 48 1 20 44
M  V30 49 1 21 45
M  V30 50 1 27 46
M  V30 51 1 27 47
M  V30 52 1 28 48
M  V30 53 1 28 49
M  V30 54 1 29 50 CFG=1
M  V30 55 1 30 51
M  V30 56 1 31 52
M  V30 57 1 31 53
M  V30 END BOND
M  V30 END CTAB
M  END
>  <Dataset>  (53) 
PKIs

>  <Ligand_Instance>  (53) 
nan

>  <PDB_ID>  (53) 
nan

>  <Standardized_SMILES>  (53) 
O=C(Nc1cnn2ccc(N3CCC[C@@H]3c3cc(F)ccc3F)nc12)N1CC[C@H](O)C1

>  <Name>  (53) 
Larotrectinib

>  <Pocket>  (53) 
nan

>  <ATP_Site>  (53) 
nan

>  <Peripheral>  (53) 
nan

>  <Num_H_Atoms_ProtBoundConf>  (53) 
nan

>  <Num_Resolved_Atoms>  (53) 
nan

>  <Num_Not_Resolved_Atoms>  (53) 
nan

>  <2D_Mol_H>  (53) 
<rdkit.Chem.rdchem.Mol object at 0x72a239140270>

>  <MW>  (53) 
428.443

>  <HBA>  (53) 
6

>  <HBD>  (53) 
2

>  <LogP>  (53) 
2.9475

>  <NRB>  (53) 
4

>  <TPSA>  (53) 
86.0

>  <Num_Heavy_Atoms>  (53) 
31

>  <Ro5>  (53) 
[True, True, True, True, True, True]

>  <Ro5_Fulfilled>  (53) 
True

>  <Ro3>  (53) 
[False, False, True, True]

>  <Ro3_Fulfilled>  (53) 
False

>  <Fsp3>  (53) 
0.380952

>  <Fsp3_0.42>  (53) 
False

>  <Fsp3_0.45>  (53) 
False

>  <Stereogenic_Carbons>  (53) 
2

>  <C_Atoms>  (53) 
21

>  <FCStereo>  (53) 
0.095238

>  <SPS>  (53) 
659

>  <nSPS>  (53) 
21.258065

>  <PBF>  (53) 
1.166172

>  <PBF_0.6>  (53) 
True

>  <nPBF>  (53) 
0.037618

>  <nPBF_0.016>  (53) 
True

>  <PMI1>  (53) 
3132.484218

>  <PMI2>  (53) 
4963.717774

>  <PMI3>  (53) 
6881.058776

>  <NPR1>  (53) 
0.455233

>  <NPR2>  (53) 
0.72136

>  <Sum_NPR>  (53) 
1.176592

>  <Sum_NPR_1.07>  (53) 
True

>  <Sum_NPR_1.2>  (53) 
False

>  <MaxAbsEStateIndex>  (53) 
14.399144

>  <MaxEStateIndex>  (53) 
14.399144

>  <MinAbsEStateIndex>  (53) 
0.290061

>  <MinEStateIndex>  (53) 
-0.504905

>  <qed>  (53) 
0.67008

>  <MolWt>  (53) 
428.443

>  <HeavyAtomMolWt>  (53) 
406.267

>  <ExactMolWt>  (53) 
428.17723

>  <NumValenceElectrons>  (53) 
162

>  <NumRadicalElectrons>  (53) 
0

>  <MaxPartialCharge>  (53) 
0.321583

>  <MinPartialCharge>  (53) 
-0.391213

>  <MaxAbsPartialCharge>  (53) 
0.391213

>  <MinAbsPartialCharge>  (53) 
0.321583

>  <FpDensityMorgan1>  (53) 
1.193548

>  <FpDensityMorgan2>  (53) 
2.064516

>  <FpDensityMorgan3>  (53) 
2.870968

>  <BCUT2D_MWHI>  (53) 
19.143996

>  <BCUT2D_MWLOW>  (53) 
10.035479

>  <BCUT2D_CHGHI>  (53) 
2.301853

>  <BCUT2D_CHGLO>  (53) 
-2.262072

>  <BCUT2D_LOGPHI>  (53) 
2.366813

>  <BCUT2D_LOGPLOW>  (53) 
-2.33166

>  <BCUT2D_MRHI>  (53) 
5.9288

>  <BCUT2D_MRLOW>  (53) 
0.176457

>  <AvgIpc>  (53) 
3.493768

>  <BalabanJ>  (53) 
1.431646

>  <BertzCT>  (53) 
1136.255489

>  <Chi0>  (53) 
21.534805

>  <Chi0n>  (53) 
16.708902

>  <Chi0v>  (53) 
16.708902

>  <Chi1>  (53) 
14.991204

>  <Chi1n>  (53) 
10.293739

>  <Chi1v>  (53) 
10.293739

>  <Chi2n>  (53) 
7.948083

>  <Chi2v>  (53) 
7.948083

>  <Chi3n>  (53) 
5.91071

>  <Chi3v>  (53) 
5.91071

>  <Chi4n>  (53) 
4.362266

>  <Chi4v>  (53) 
4.362266

>  <HallKierAlpha>  (53) 
-3.27

>  <Ipc>  (53) 
20563042.230171

>  <Kappa1>  (53) 
19.679209

>  <Kappa2>  (53) 
7.767758

>  <Kappa3>  (53) 
3.671174

>  <LabuteASA>  (53) 
176.64358

>  <PEOE_VSA1>  (53) 
20.223135

>  <PEOE_VSA10>  (53) 
23.139691

>  <PEOE_VSA11>  (53) 
5.647177

>  <PEOE_VSA12>  (53) 
0.0

>  <PEOE_VSA13>  (53) 
0.0

>  <PEOE_VSA14>  (53) 
6.031115

>  <PEOE_VSA2>  (53) 
0.0

>  <PEOE_VSA3>  (53) 
23.074744

>  <PEOE_VSA4>  (53) 
5.098682

>  <PEOE_VSA5>  (53) 
0.0

>  <PEOE_VSA6>  (53) 
0.0

>  <PEOE_VSA7>  (53) 
43.527933

>  <PEOE_VSA8>  (53) 
31.394564

>  <PEOE_VSA9>  (53) 
18.342651

>  <SMR_VSA1>  (53) 
18.681895

>  <SMR_VSA10>  (53) 
23.183541

>  <SMR_VSA2>  (53) 
0.0

>  <SMR_VSA3>  (53) 
19.497968

>  <SMR_VSA4>  (53) 
0.0

>  <SMR_VSA5>  (53) 
31.408272

>  <SMR_VSA6>  (53) 
29.850968

>  <SMR_VSA7>  (53) 
53.857049

>  <SMR_VSA8>  (53) 
0.0

>  <SMR_VSA9>  (53) 
0.0

>  <SlogP_VSA1>  (53) 
10.216698

>  <SlogP_VSA10>  (53) 
25.080616

>  <SlogP_VSA11>  (53) 
0.0

>  <SlogP_VSA12>  (53) 
0.0

>  <SlogP_VSA2>  (53) 
56.373845

>  <SlogP_VSA3>  (53) 
0.0

>  <SlogP_VSA4>  (53) 
11.634442

>  <SlogP_VSA5>  (53) 
30.867757

>  <SlogP_VSA6>  (53) 
36.659155

>  <SlogP_VSA7>  (53) 
0.0

>  <SlogP_VSA8>  (53) 
5.647177

>  <SlogP_VSA9>  (53) 
0.0

>  <EState_VSA1>  (53) 
17.738408

>  <EState_VSA10>  (53) 
18.681895

>  <EState_VSA11>  (53) 
0.0

>  <EState_VSA2>  (53) 
12.072955

>  <EState_VSA3>  (53) 
55.19179

>  <EState_VSA4>  (53) 
18.553556

>  <EState_VSA5>  (53) 
12.263211

>  <EState_VSA6>  (53) 
21.678518

>  <EState_VSA7>  (53) 
4.89991

>  <EState_VSA8>  (53) 
15.399449

>  <EState_VSA9>  (53) 
0.0

>  <VSA_EState1>  (53) 
29.697728

>  <VSA_EState10>  (53) 
0.0

>  <VSA_EState2>  (53) 
20.662601

>  <VSA_EState3>  (53) 
16.687262

>  <VSA_EState4>  (53) 
1.213593

>  <VSA_EState5>  (53) 
-0.309981

>  <VSA_EState6>  (53) 
4.640761

>  <VSA_EState7>  (53) 
4.80762

>  <VSA_EState8>  (53) 
1.433749

>  <VSA_EState9>  (53) 
0.0

>  <FractionCSP3>  (53) 
0.380952

>  <HeavyAtomCount>  (53) 
31

>  <NHOHCount>  (53) 
2

>  <NOCount>  (53) 
8

>  <NumAliphaticCarbocycles>  (53) 
0

>  <NumAliphaticHeterocycles>  (53) 
2

>  <NumAliphaticRings>  (53) 
2

>  <NumAromaticCarbocycles>  (53) 
1

>  <NumAromaticHeterocycles>  (53) 
2

>  <NumAromaticRings>  (53) 
3

>  <NumHAcceptors>  (53) 
6

>  <NumHDonors>  (53) 
2

>  <NumHeteroatoms>  (53) 
10

>  <NumRotatableBonds>  (53) 
3

>  <NumSaturatedCarbocycles>  (53) 
0

>  <NumSaturatedHeterocycles>  (53) 
2

>  <NumSaturatedRings>  (53) 
2

>  <RingCount>  (53) 
5

>  <MolLogP>  (53) 
2.9475

>  <MolMR>  (53) 
109.8815

>  <fr_Al_COO>  (53) 
0

>  <fr_Al_OH>  (53) 
1

>  <fr_Al_OH_noTert>  (53) 
1

>  <fr_ArN>  (53) 
0

>  <fr_Ar_COO>  (53) 
0

>  <fr_Ar_N>  (53) 
3

>  <fr_Ar_NH>  (53) 
0

>  <fr_Ar_OH>  (53) 
0

>  <fr_COO>  (53) 
0

>  <fr_COO2>  (53) 
0

>  <fr_C_O>  (53) 
1

>  <fr_C_O_noCOO>  (53) 
1

>  <fr_C_S>  (53) 
0

>  <fr_HOCCN>  (53) 
1

>  <fr_Imine>  (53) 
0

>  <fr_NH0>  (53) 
5

>  <fr_NH1>  (53) 
1

>  <fr_NH2>  (53) 
0

>  <fr_N_O>  (53) 
0

>  <fr_Ndealkylation1>  (53) 
0

>  <fr_Ndealkylation2>  (53) 
1

>  <fr_Nhpyrrole>  (53) 
0

>  <fr_SH>  (53) 
0

>  <fr_aldehyde>  (53) 
0

>  <fr_alkyl_carbamate>  (53) 
0

>  <fr_alkyl_halide>  (53) 
0

>  <fr_allylic_oxid>  (53) 
0

>  <fr_amide>  (53) 
2

>  <fr_amidine>  (53) 
0

>  <fr_aniline>  (53) 
2

>  <fr_aryl_methyl>  (53) 
0

>  <fr_azide>  (53) 
0

>  <fr_azo>  (53) 
0

>  <fr_barbitur>  (53) 
0

>  <fr_benzene>  (53) 
1

>  <fr_benzodiazepine>  (53) 
0

>  <fr_bicyclic>  (53) 
1

>  <fr_diazo>  (53) 
0

>  <fr_dihydropyridine>  (53) 
0

>  <fr_epoxide>  (53) 
0

>  <fr_ester>  (53) 
0

>  <fr_ether>  (53) 
0

>  <fr_furan>  (53) 
0

>  <fr_guanido>  (53) 
0

>  <fr_halogen>  (53) 
2

>  <fr_hdrzine>  (53) 
0

>  <fr_hdrzone>  (53) 
0

>  <fr_imidazole>  (53) 
0

>  <fr_imide>  (53) 
0

>  <fr_isocyan>  (53) 
0

>  <fr_isothiocyan>  (53) 
0

>  <fr_ketone>  (53) 
0

>  <fr_ketone_Topliss>  (53) 
0

>  <fr_lactam>  (53) 
0

>  <fr_lactone>  (53) 
0

>  <fr_methoxy>  (53) 
0

>  <fr_morpholine>  (53) 
0

>  <fr_nitrile>  (53) 
0

>  <fr_nitro>  (53) 
0

>  <fr_nitro_arom>  (53) 
0

>  <fr_nitro_arom_nonortho>  (53) 
0

>  <fr_nitroso>  (53) 
0

>  <fr_oxazole>  (53) 
0

>  <fr_oxime>  (53) 
0

>  <fr_para_hydroxylation>  (53) 
0

>  <fr_phenol>  (53) 
0

>  <fr_phenol_noOrthoHbond>  (53) 
0

>  <fr_phos_acid>  (53) 
0

>  <fr_phos_ester>  (53) 
0

>  <fr_piperdine>  (53) 
0

>  <fr_piperzine>  (53) 
0

>  <fr_priamide>  (53) 
0

>  <fr_prisulfonamd>  (53) 
0

>  <fr_pyridine>  (53) 
0

>  <fr_quatN>  (53) 
0

>  <fr_sulfide>  (53) 
0

>  <fr_sulfonamd>  (53) 
0

>  <fr_sulfone>  (53) 
0

>  <fr_term_acetylene>  (53) 
0

>  <fr_tetrazole>  (53) 
0

>  <fr_thiazole>  (53) 
0

>  <fr_thiocyan>  (53) 
0

>  <fr_thiophene>  (53) 
0

>  <fr_unbrch_alkane>  (53) 
0

>  <fr_urea>  (53) 
1

>  <NP_Likeness>  (53) 
-1.764924

$$$$
nan
     RDKit          3D

  0  0  0  0  0  0  0  0  0  0999 V3000
M  V30 BEGIN CTAB
M  V30 COUNTS 61 66 0 0 0
M  V30 BEGIN ATOM
M  V30 1 C 1.473083 -3.439751 6.187474 0
M  V30 2 O 0.700390 -3.057149 5.076416 0
M  V30 3 C 1.322011 -2.387314 4.023606 0
M  V30 4 C 2.691935 -2.144146 4.158687 0
M  V30 5 C 3.373123 -1.486089 3.156274 0
M  V30 6 N 4.697749 -1.235477 3.258448 0
M  V30 7 C 5.330302 -0.580312 2.242444 0
M  V30 8 N 4.709052 -0.160265 1.125609 0
M  V30 9 C 3.373706 -0.386962 0.971096 0
M  V30 10 N 2.576319 -0.001324 -0.150377 0
M  V30 11 C 1.978453 1.268022 0.007699 0
M  V30 12 C 2.151005 2.049552 1.129303 0
M  V30 13 C 1.558571 3.300924 1.284160 0
M  V30 14 C 0.767576 3.771795 0.269124 0
M  V30 15 F 0.152066 4.997646 0.354582 0
M  V30 16 C 0.534010 3.052027 -0.905158 0
M  V30 17 Cl -0.469293 3.646224 -2.195646 0
M  V30 18 C 1.159562 1.823706 -0.973922 0
M  V30 19 C 2.751768 -1.050232 2.007655 0
M  V30 20 C 1.407512 -1.317057 1.931748 0
M  V30 21 C 0.645237 -1.964406 2.875464 0
M  V30 22 O -0.674406 -2.280862 2.904999 0
M  V30 23 C -1.676627 -2.063167 1.978113 0
M  V30 24 C -1.517881 -2.710833 0.651224 0
M  V30 25 N -2.608281 -2.433305 -0.276630 0
M  V30 26 C -2.267859 -3.153718 -1.492060 0
M  V30 27 C -2.017006 -2.117296 -2.520692 0 CFG=1
M  V30 28 C -0.527207 -1.748354 -2.668324 0
M  V30 29 C -1.417361 -2.308622 -3.814001 0
M  V30 30 C -2.897976 -0.990885 -2.096126 0 CFG=1
M  V30 31 C -2.683609 -1.030092 -0.597353 0
M  V30 32 O -2.567233 0.218676 -2.673276 0
M  V30 33 C -3.765466 0.955147 -2.758315 0
M  V30 34 C -4.833437 -0.011465 -2.304677 0
M  V30 35 O -4.225108 -1.250996 -2.432744 0
M  V30 36 H 0.896965 -4.106278 6.867192 0
M  V30 37 H 1.815879 -2.568682 6.799800 0
M  V30 38 H 2.330063 -4.048309 5.802039 0
M  V30 39 H 3.293224 -2.434461 5.008804 0
M  V30 40 H 6.394364 -0.379775 2.326397 0
M  V30 41 H 2.393370 -0.522055 -1.028552 0
M  V30 42 H 2.778277 1.690926 1.949936 0
M  V30 43 H 1.726268 3.882452 2.193078 0
M  V30 44 H 0.972391 1.272759 -1.888908 0
M  V30 45 H 0.860193 -0.993372 1.062020 0
M  V30 46 H -1.735910 -0.960603 1.796825 0
M  V30 47 H -2.692119 -2.352107 2.360371 0
M  V30 48 H -1.594106 -3.824722 0.829230 0
M  V30 49 H -0.591820 -2.557398 0.112634 0
M  V30 50 H -1.436400 -3.872998 -1.362039 0
M  V30 51 H -3.193239 -3.736400 -1.762507 0
M  V30 52 H 0.226428 -2.480138 -2.290566 0
M  V30 53 H -0.251074 -0.685515 -2.720438 0
M  V30 54 H -1.211688 -3.336537 -4.151842 0
M  V30 55 H -1.613038 -1.575275 -4.614261 0
M  V30 56 H -3.439156 -0.465406 -0.036157 0
M  V30 57 H -1.647068 -0.623434 -0.441451 0
M  V30 58 H -3.697560 1.866060 -2.110156 0
M  V30 59 H -3.955384 1.204665 -3.825395 0
M  V30 60 H -5.743321 0.045357 -2.938025 0
M  V30 61 H -5.118039 0.126989 -1.237421 0
M  V30 END ATOM
M  V30 BEGIN BOND
M  V30 1 1 1 2
M  V30 2 1 2 3
M  V30 3 2 3 4
M  V30 4 1 4 5
M  V30 5 2 5 6
M  V30 6 1 6 7
M  V30 7 2 7 8
M  V30 8 1 8 9
M  V30 9 1 9 10
M  V30 10 1 10 11
M  V30 11 2 11 12
M  V30 12 1 12 13
M  V30 13 2 13 14
M  V30 14 1 14 15
M  V30 15 1 14 16
M  V30 16 1 16 17
M  V30 17 2 16 18
M  V30 18 2 9 19
M  V30 19 1 19 20
M  V30 20 2 20 21
M  V30 21 1 21 22
M  V30 22 1 22 23
M  V30 23 1 23 24
M  V30 24 1 24 25
M  V30 25 1 25 26
M  V30 26 1 27 26 CFG=1
M  V30 27 1 27 28
M  V30 28 1 28 29
M  V30 29 1 27 30
M  V30 30 1 30 31
M  V30 31 1 30 32 CFG=3
M  V30 32 1 32 33
M  V30 33 1 33 34
M  V30 34 1 34 35
M  V30 35 1 21 3
M  V30 36 1 31 25
M  V30 37 1 19 5
M  V30 38 1 29 27
M  V30 39 1 35 30
M  V30 40 1 18 11
M  V30 41 1 1 36
M  V30 42 1 1 37
M  V30 43 1 1 38
M  V30 44 1 4 39
M  V30 45 1 7 40
M  V30 46 1 10 41
M  V30 47 1 12 42
M  V30 48 1 13 43
M  V30 49 1 18 44
M  V30 50 1 20 45
M  V30 51 1 23 46
M  V30 52 1 23 47
M  V30 53 1 24 48
M  V30 54 1 24 49
M  V30 55 1 26 50
M  V30 56 1 26 51
M  V30 57 1 28 52
M  V30 58 1 28 53
M  V30 59 1 29 54
M  V30 60 1 29 55
M  V30 61 1 31 56
M  V30 62 1 31 57
M  V30 63 1 33 58
M  V30 64 1 33 59
M  V30 65 1 34 60
M  V30 66 1 34 61
M  V30 END BOND
M  V30 END CTAB
M  END
>  <Dataset>  (54) 
PKIs

>  <Ligand_Instance>  (54) 
nan

>  <PDB_ID>  (54) 
nan

>  <Standardized_SMILES>  (54) 
COc1cc2ncnc(Nc3ccc(F)c(Cl)c3)c2cc1OCCN1CC2(CC2)C2(C1)OCCO2

>  <Name>  (54) 
Simotinib

>  <Pocket>  (54) 
nan

>  <ATP_Site>  (54) 
nan

>  <Peripheral>  (54) 
nan

>  <Num_H_Atoms_ProtBoundConf>  (54) 
nan

>  <Num_Resolved_Atoms>  (54) 
nan

>  <Num_Not_Resolved_Atoms>  (54) 
nan

>  <2D_Mol_H>  (54) 
<rdkit.Chem.rdchem.Mol object at 0x72a239140350>

>  <MW>  (54) 
500.958

>  <HBA>  (54) 
8

>  <HBD>  (54) 
1

>  <LogP>  (54) 
4.3922

>  <NRB>  (54) 
8

>  <TPSA>  (54) 
77.97

>  <Num_Heavy_Atoms>  (54) 
35

>  <Ro5>  (54) 
[False, True, True, True, True, True]

>  <Ro5_Fulfilled>  (54) 
True

>  <Ro3>  (54) 
[False, False, True, False]

>  <Ro3_Fulfilled>  (54) 
False

>  <Fsp3>  (54) 
0.44

>  <Fsp3_0.42>  (54) 
True

>  <Fsp3_0.45>  (54) 
False

>  <Stereogenic_Carbons>  (54) 
0

>  <C_Atoms>  (54) 
25

>  <FCStereo>  (54) 
0.0

>  <SPS>  (54) 
703

>  <nSPS>  (54) 
20.085714

>  <PBF>  (54) 
1.261367

>  <PBF_0.6>  (54) 
True

>  <nPBF>  (54) 
0.036039

>  <nPBF_0.016>  (54) 
True

>  <PMI1>  (54) 
3906.268286

>  <PMI2>  (54) 
6213.403659

>  <PMI3>  (54) 
8451.27168

>  <NPR1>  (54) 
0.462211

>  <NPR2>  (54) 
0.735203

>  <Sum_NPR>  (54) 
1.197414

>  <Sum_NPR_1.07>  (54) 
True

>  <Sum_NPR_1.2>  (54) 
False

>  <MaxAbsEStateIndex>  (54) 
13.556134

>  <MaxEStateIndex>  (54) 
13.556134

>  <MinAbsEStateIndex>  (54) 
0.031599

>  <MinEStateIndex>  (54) 
-0.478916

>  <qed>  (54) 
0.511508

>  <MolWt>  (54) 
500.958

>  <HeavyAtomMolWt>  (54) 
474.75

>  <ExactMolWt>  (54) 
500.162661

>  <NumValenceElectrons>  (54) 
184

>  <NumRadicalElectrons>  (54) 
0

>  <MaxPartialCharge>  (54) 
0.187566

>  <MinPartialCharge>  (54) 
-0.492786

>  <MaxAbsPartialCharge>  (54) 
0.492786

>  <MinAbsPartialCharge>  (54) 
0.187566

>  <FpDensityMorgan1>  (54) 
1.114286

>  <FpDensityMorgan2>  (54) 
1.942857

>  <FpDensityMorgan3>  (54) 
2.685714

>  <BCUT2D_MWHI>  (54) 
35.495693

>  <BCUT2D_MWLOW>  (54) 
9.995259

>  <BCUT2D_CHGHI>  (54) 
2.673612

>  <BCUT2D_CHGLO>  (54) 
-2.276377

>  <BCUT2D_LOGPHI>  (54) 
2.608085

>  <BCUT2D_LOGPLOW>  (54) 
-2.405568

>  <BCUT2D_MRHI>  (54) 
6.305779

>  <BCUT2D_MRLOW>  (54) 
-0.181852

>  <AvgIpc>  (54) 
3.37109

>  <BalabanJ>  (54) 
1.19055

>  <BertzCT>  (54) 
1265.690551

>  <Chi0>  (54) 
24.045395

>  <Chi0n>  (54) 
19.351519

>  <Chi0v>  (54) 
20.107448

>  <Chi1>  (54) 
17.006682

>  <Chi1n>  (54) 
11.687977

>  <Chi1v>  (54) 
12.065942

>  <Chi2n>  (54) 
9.28566

>  <Chi2v>  (54) 
9.69286

>  <Chi3n>  (54) 
7.141527

>  <Chi3v>  (54) 
7.431174

>  <Chi4n>  (54) 
5.197963

>  <Chi4v>  (54) 
5.378505

>  <HallKierAlpha>  (54) 
-2.72

>  <Ipc>  (54) 
156720570.32261

>  <Kappa1>  (54) 
22.725592

>  <Kappa2>  (54) 
8.741228

>  <Kappa3>  (54) 
4.05921

>  <LabuteASA>  (54) 
206.839006

>  <PEOE_VSA1>  (54) 
24.26424

>  <PEOE_VSA10>  (54) 
24.569286

>  <PEOE_VSA11>  (54) 
17.286135

>  <PEOE_VSA12>  (54) 
0.0

>  <PEOE_VSA13>  (54) 
0.0

>  <PEOE_VSA14>  (54) 
0.0

>  <PEOE_VSA2>  (54) 
4.89991

>  <PEOE_VSA3>  (54) 
14.358372

>  <PEOE_VSA4>  (54) 
0.0

>  <PEOE_VSA5>  (54) 
0.0

>  <PEOE_VSA6>  (54) 
11.60094

>  <PEOE_VSA7>  (54) 
37.107112

>  <PEOE_VSA8>  (54) 
35.644481

>  <PEOE_VSA9>  (54) 
37.407652

>  <SMR_VSA1>  (54) 
23.337867

>  <SMR_VSA10>  (54) 
34.009114

>  <SMR_VSA2>  (54) 
0.0

>  <SMR_VSA3>  (54) 
14.867867

>  <SMR_VSA4>  (54) 
5.41499

>  <SMR_VSA5>  (54) 
18.628754

>  <SMR_VSA6>  (54) 
51.881501

>  <SMR_VSA7>  (54) 
47.49901

>  <SMR_VSA8>  (54) 
0.0

>  <SMR_VSA9>  (54) 
11.499024

>  <SlogP_VSA1>  (54) 
14.790515

>  <SlogP_VSA10>  (54) 
15.895664

>  <SlogP_VSA11>  (54) 
11.499024

>  <SlogP_VSA12>  (54) 
11.60094

>  <SlogP_VSA2>  (54) 
67.219691

>  <SlogP_VSA3>  (54) 
9.473726

>  <SlogP_VSA4>  (54) 
11.232211

>  <SlogP_VSA5>  (54) 
12.841643

>  <SlogP_VSA6>  (54) 
36.659155

>  <SlogP_VSA7>  (54) 
5.022633

>  <SlogP_VSA8>  (54) 
10.902925

>  <SlogP_VSA9>  (54) 
0.0

>  <EState_VSA1>  (54) 
11.604332

>  <EState_VSA10>  (54) 
4.390415

>  <EState_VSA11>  (54) 
0.0

>  <EState_VSA2>  (54) 
10.437624

>  <EState_VSA3>  (54) 
48.341619

>  <EState_VSA4>  (54) 
37.862137

>  <EState_VSA5>  (54) 
18.460054

>  <EState_VSA6>  (54) 
13.176165

>  <EState_VSA7>  (54) 
12.132734

>  <EState_VSA8>  (54) 
20.184655

>  <EState_VSA9>  (54) 
30.548392

>  <VSA_EState1>  (54) 
37.415344

>  <VSA_EState10>  (54) 
5.93133

>  <VSA_EState2>  (54) 
11.090615

>  <VSA_EState3>  (54) 
3.96529

>  <VSA_EState4>  (54) 
1.445631

>  <VSA_EState5>  (54) 
0.823573

>  <VSA_EState6>  (54) 
8.099123

>  <VSA_EState7>  (54) 
3.759577

>  <VSA_EState8>  (54) 
4.312036

>  <VSA_EState9>  (54) 
1.601926

>  <FractionCSP3>  (54) 
0.44

>  <HeavyAtomCount>  (54) 
35

>  <NHOHCount>  (54) 
1

>  <NOCount>  (54) 
8

>  <NumAliphaticCarbocycles>  (54) 
1

>  <NumAliphaticHeterocycles>  (54) 
2

>  <NumAliphaticRings>  (54) 
3

>  <NumAromaticCarbocycles>  (54) 
2

>  <NumAromaticHeterocycles>  (54) 
1

>  <NumAromaticRings>  (54) 
3

>  <NumHAcceptors>  (54) 
8

>  <NumHDonors>  (54) 
1

>  <NumHeteroatoms>  (54) 
10

>  <NumRotatableBonds>  (54) 
7

>  <NumSaturatedCarbocycles>  (54) 
1

>  <NumSaturatedHeterocycles>  (54) 
2

>  <NumSaturatedRings>  (54) 
3

>  <RingCount>  (54) 
6

>  <MolLogP>  (54) 
4.3922

>  <MolMR>  (54) 
129.0197

>  <fr_Al_COO>  (54) 
0

>  <fr_Al_OH>  (54) 
0

>  <fr_Al_OH_noTert>  (54) 
0

>  <fr_ArN>  (54) 
0

>  <fr_Ar_COO>  (54) 
0

>  <fr_Ar_N>  (54) 
2

>  <fr_Ar_NH>  (54) 
0

>  <fr_Ar_OH>  (54) 
0

>  <fr_COO>  (54) 
0

>  <fr_COO2>  (54) 
0

>  <fr_C_O>  (54) 
0

>  <fr_C_O_noCOO>  (54) 
0

>  <fr_C_S>  (54) 
0

>  <fr_HOCCN>  (54) 
0

>  <fr_Imine>  (54) 
0

>  <fr_NH0>  (54) 
3

>  <fr_NH1>  (54) 
1

>  <fr_NH2>  (54) 
0

>  <fr_N_O>  (54) 
0

>  <fr_Ndealkylation1>  (54) 
0

>  <fr_Ndealkylation2>  (54) 
1

>  <fr_Nhpyrrole>  (54) 
0

>  <fr_SH>  (54) 
0

>  <fr_aldehyde>  (54) 
0

>  <fr_alkyl_carbamate>  (54) 
0

>  <fr_alkyl_halide>  (54) 
0

>  <fr_allylic_oxid>  (54) 
0

>  <fr_amide>  (54) 
0

>  <fr_amidine>  (54) 
0

>  <fr_aniline>  (54) 
2

>  <fr_aryl_methyl>  (54) 
0

>  <fr_azide>  (54) 
0

>  <fr_azo>  (54) 
0

>  <fr_barbitur>  (54) 
0

>  <fr_benzene>  (54) 
2

>  <fr_benzodiazepine>  (54) 
0

>  <fr_bicyclic>  (54) 
2

>  <fr_diazo>  (54) 
0

>  <fr_dihydropyridine>  (54) 
0

>  <fr_epoxide>  (54) 
0

>  <fr_ester>  (54) 
0

>  <fr_ether>  (54) 
4

>  <fr_furan>  (54) 
0

>  <fr_guanido>  (54) 
0

>  <fr_halogen>  (54) 
2

>  <fr_hdrzine>  (54) 
0

>  <fr_hdrzone>  (54) 
0

>  <fr_imidazole>  (54) 
0

>  <fr_imide>  (54) 
0

>  <fr_isocyan>  (54) 
0

>  <fr_isothiocyan>  (54) 
0

>  <fr_ketone>  (54) 
0

>  <fr_ketone_Topliss>  (54) 
0

>  <fr_lactam>  (54) 
0

>  <fr_lactone>  (54) 
0

>  <fr_methoxy>  (54) 
1

>  <fr_morpholine>  (54) 
0

>  <fr_nitrile>  (54) 
0

>  <fr_nitro>  (54) 
0

>  <fr_nitro_arom>  (54) 
0

>  <fr_nitro_arom_nonortho>  (54) 
0

>  <fr_nitroso>  (54) 
0

>  <fr_oxazole>  (54) 
0

>  <fr_oxime>  (54) 
0

>  <fr_para_hydroxylation>  (54) 
0

>  <fr_phenol>  (54) 
0

>  <fr_phenol_noOrthoHbond>  (54) 
0

>  <fr_phos_acid>  (54) 
0

>  <fr_phos_ester>  (54) 
0

>  <fr_piperdine>  (54) 
0

>  <fr_piperzine>  (54) 
0

>  <fr_priamide>  (54) 
0

>  <fr_prisulfonamd>  (54) 
0

>  <fr_pyridine>  (54) 
0

>  <fr_quatN>  (54) 
0

>  <fr_sulfide>  (54) 
0

>  <fr_sulfonamd>  (54) 
0

>  <fr_sulfone>  (54) 
0

>  <fr_term_acetylene>  (54) 
0

>  <fr_tetrazole>  (54) 
0

>  <fr_thiazole>  (54) 
0

>  <fr_thiocyan>  (54) 
0

>  <fr_thiophene>  (54) 
0

>  <fr_unbrch_alkane>  (54) 
0

>  <fr_urea>  (54) 
0

>  <NP_Likeness>  (54) 
-0.937883

$$$$
nan
     RDKit          3D

  0  0  0  0  0  0  0  0  0  0999 V3000
M  V30 BEGIN CTAB
M  V30 COUNTS 58 61 0 0 0
M  V30 BEGIN ATOM
M  V30 1 C 1.099246 -4.673393 4.909477 0
M  V30 2 O 0.792553 -3.851348 3.815074 0
M  V30 3 C 1.548886 -2.810917 3.367338 0
M  V30 4 C 2.707542 -2.570729 4.072809 0
M  V30 5 C 3.501530 -1.528552 3.657439 0
M  V30 6 N 4.640417 -1.239257 4.278617 0
M  V30 7 C 5.454981 -0.222786 3.887628 0
M  V30 8 N 5.057357 0.495872 2.825764 0
M  V30 9 C 3.914560 0.239466 2.168661 0
M  V30 10 N 3.604671 1.061178 1.057145 0
M  V30 11 C 2.994582 2.345277 1.218063 0
M  V30 12 C 2.577115 3.126575 0.167829 0
M  V30 13 C 2.010057 4.369604 0.460309 0
M  V30 14 C 1.858450 4.831679 1.762007 0
M  V30 15 F 1.305943 6.040899 2.014012 0
M  V30 16 C 2.276521 4.049656 2.824103 0
M  V30 17 Cl 2.124221 4.562543 4.503066 0
M  V30 18 C 2.831958 2.826738 2.493329 0
M  V30 19 C 3.115562 -0.780971 2.576222 0
M  V30 20 C 1.951597 -1.054417 1.901296 0
M  V30 21 C 1.126837 -2.089682 2.282557 0
M  V30 22 N -0.042322 -2.264675 1.518456 0
M  V30 23 C -1.037461 -3.222999 1.401541 0
M  V30 24 O -0.923822 -4.231045 2.135835 0
M  V30 25 C -2.199915 -3.204314 0.532509 0
M  V30 26 C -2.576429 -2.265480 -0.323565 0
M  V30 27 C -3.701659 -2.115838 -1.247170 0
M  V30 28 N -3.363414 -1.981116 -2.627565 0
M  V30 29 C -2.705140 -0.785139 -3.013189 0
M  V30 30 C -3.518430 0.219761 -3.756964 0
M  V30 31 C -4.164919 -0.385222 -4.955459 0
M  V30 32 C -4.194644 -1.887915 -4.928211 0
M  V30 33 C -4.413615 -2.411699 -3.514848 0
M  V30 34 H 1.003712 -4.174365 5.884925 0
M  V30 35 H 0.512056 -5.615531 4.854624 0
M  V30 36 H 2.161412 -4.982075 4.807066 0
M  V30 37 H 3.017555 -3.144779 4.915658 0
M  V30 38 H 6.348084 -0.077977 4.456946 0
M  V30 39 H 3.815227 0.745627 0.065008 0
M  V30 40 H 2.696231 2.764413 -0.844347 0
M  V30 41 H 1.684265 4.974326 -0.393992 0
M  V30 42 H 3.152345 2.229418 3.340604 0
M  V30 43 H 1.725929 -0.400921 1.046858 0
M  V30 44 H -0.304649 -1.499928 0.825929 0
M  V30 45 H -2.888867 -4.017310 0.488506 0
M  V30 46 H -1.918097 -1.382337 -0.382016 0
M  V30 47 H -4.343902 -1.238448 -0.951988 0
M  V30 48 H -4.385697 -2.991855 -1.109237 0
M  V30 49 H -2.192582 -0.360248 -2.127505 0
M  V30 50 H -1.869029 -1.086119 -3.712077 0
M  V30 51 H -2.797954 1.042026 -4.045279 0
M  V30 52 H -4.291338 0.725686 -3.160852 0
M  V30 53 H -3.667816 -0.047176 -5.874530 0
M  V30 54 H -5.234432 -0.033597 -5.059737 0
M  V30 55 H -5.066045 -2.226777 -5.519026 0
M  V30 56 H -3.243266 -2.258134 -5.344150 0
M  V30 57 H -4.437961 -3.517696 -3.588764 0
M  V30 58 H -5.383388 -2.055829 -3.149472 0
M  V30 END ATOM
M  V30 BEGIN BOND
M  V30 1 1 1 2
M  V30 2 1 2 3
M  V30 3 2 3 4
M  V30 4 1 4 5
M  V30 5 2 5 6
M  V30 6 1 6 7
M  V30 7 2 7 8
M  V30 8 1 8 9
M  V30 9 1 9 10
M  V30 10 1 10 11
M  V30 11 2 11 12
M  V30 12 1 12 13
M  V30 13 2 13 14
M  V30 14 1 14 15
M  V30 15 1 14 16
M  V30 16 1 16 17
M  V30 17 2 16 18
M  V30 18 2 9 19
M  V30 19 1 19 20
M  V30 20 2 20 21
M  V30 21 1 21 22
M  V30 22 1 22 23
M  V30 23 2 23 24
M  V30 24 1 23 25
M  V30 25 2 25 26
M  V30 26 1 26 27
M  V30 27 1 27 28
M  V30 28 1 28 29
M  V30 29 1 29 30
M  V30 30 1 30 31
M  V30 31 1 31 32
M  V30 32 1 32 33
M  V30 33 1 21 3
M  V30 34 1 33 28
M  V30 35 1 19 5
M  V30 36 1 18 11
M  V30 37 1 1 34
M  V30 38 1 1 35
M  V30 39 1 1 36
M  V30 40 1 4 37
M  V30 41 1 7 38
M  V30 42 1 10 39
M  V30 43 1 12 40
M  V30 44 1 13 41
M  V30 45 1 18 42
M  V30 46 1 20 43
M  V30 47 1 22 44
M  V30 48 1 25 45
M  V30 49 1 26 46
M  V30 50 1 27 47
M  V30 51 1 27 48
M  V30 52 1 29 49
M  V30 53 1 29 50
M  V30 54 1 30 51
M  V30 55 1 30 52
M  V30 56 1 31 53
M  V30 57 1 31 54
M  V30 58 1 32 55
M  V30 59 1 32 56
M  V30 60 1 33 57
M  V30 61 1 33 58
M  V30 END BOND
M  V30 END CTAB
M  END
>  <Dataset>  (55) 
PKIs

>  <Ligand_Instance>  (55) 
nan

>  <PDB_ID>  (55) 
nan

>  <Standardized_SMILES>  (55) 
COc1cc2ncnc(Nc3ccc(F)c(Cl)c3)c2cc1NC(=O)/C=C/CN1CCCCC1

>  <Name>  (55) 
Dacomitinib

>  <Pocket>  (55) 
nan

>  <ATP_Site>  (55) 
nan

>  <Peripheral>  (55) 
nan

>  <Num_H_Atoms_ProtBoundConf>  (55) 
nan

>  <Num_Resolved_Atoms>  (55) 
nan

>  <Num_Not_Resolved_Atoms>  (55) 
nan

>  <2D_Mol_H>  (55) 
<rdkit.Chem.rdchem.Mol object at 0x72a239140430>

>  <MW>  (55) 
469.948

>  <HBA>  (55) 
6

>  <HBD>  (55) 
2

>  <LogP>  (55) 
5.1551

>  <NRB>  (55) 
8

>  <TPSA>  (55) 
79.38

>  <Num_Heavy_Atoms>  (55) 
33

>  <Ro5>  (55) 
[True, True, True, False, True, True]

>  <Ro5_Fulfilled>  (55) 
True

>  <Ro3>  (55) 
[False, False, True, False]

>  <Ro3_Fulfilled>  (55) 
False

>  <Fsp3>  (55) 
0.291667

>  <Fsp3_0.42>  (55) 
False

>  <Fsp3_0.45>  (55) 
False

>  <Stereogenic_Carbons>  (55) 
0

>  <C_Atoms>  (55) 
24

>  <FCStereo>  (55) 
0.0

>  <SPS>  (55) 
479

>  <nSPS>  (55) 
14.515152

>  <PBF>  (55) 
0.851365

>  <PBF_0.6>  (55) 
True

>  <nPBF>  (55) 
0.025799

>  <nPBF_0.016>  (55) 
True

>  <PMI1>  (55) 
4391.251222

>  <PMI2>  (55) 
8143.916519

>  <PMI3>  (55) 
11320.936385

>  <NPR1>  (55) 
0.387888

>  <NPR2>  (55) 
0.719368

>  <Sum_NPR>  (55) 
1.107255

>  <Sum_NPR_1.07>  (55) 
True

>  <Sum_NPR_1.2>  (55) 
False

>  <MaxAbsEStateIndex>  (55) 
13.494877

>  <MaxEStateIndex>  (55) 
13.494877

>  <MinAbsEStateIndex>  (55) 
0.004003

>  <MinEStateIndex>  (55) 
-0.502001

>  <qed>  (55) 
0.465445

>  <MolWt>  (55) 
469.948

>  <HeavyAtomMolWt>  (55) 
444.748

>  <ExactMolWt>  (55) 
469.168081

>  <NumValenceElectrons>  (55) 
172

>  <NumRadicalElectrons>  (55) 
0

>  <MaxPartialCharge>  (55) 
0.247689

>  <MinPartialCharge>  (55) 
-0.494496

>  <MaxAbsPartialCharge>  (55) 
0.494496

>  <MinAbsPartialCharge>  (55) 
0.247689

>  <FpDensityMorgan1>  (55) 
1.212121

>  <FpDensityMorgan2>  (55) 
2.030303

>  <FpDensityMorgan3>  (55) 
2.787879

>  <BCUT2D_MWHI>  (55) 
35.495692

>  <BCUT2D_MWLOW>  (55) 
10.130169

>  <BCUT2D_CHGHI>  (55) 
2.131968

>  <BCUT2D_CHGLO>  (55) 
-2.242533

>  <BCUT2D_LOGPHI>  (55) 
2.331998

>  <BCUT2D_LOGPLOW>  (55) 
-2.293543

>  <BCUT2D_MRHI>  (55) 
6.305851

>  <BCUT2D_MRLOW>  (55) 
-0.111486

>  <AvgIpc>  (55) 
2.819016

>  <BalabanJ>  (55) 
1.546125

>  <BertzCT>  (55) 
1180.973474

>  <Chi0>  (55) 
23.208532

>  <Chi0n>  (55) 
18.275509

>  <Chi0v>  (55) 
19.031438

>  <Chi1>  (55) 
16.029208

>  <Chi1n>  (55) 
10.779747

>  <Chi1v>  (55) 
11.157711

>  <Chi2n>  (55) 
7.798692

>  <Chi2v>  (55) 
8.205893

>  <Chi3n>  (55) 
5.478315

>  <Chi3v>  (55) 
5.767961

>  <Chi4n>  (55) 
3.785875

>  <Chi4v>  (55) 
3.966418

>  <HallKierAlpha>  (55) 
-3.23

>  <Ipc>  (55) 
32034688.122976

>  <Kappa1>  (55) 
22.945931

>  <Kappa2>  (55) 
10.590825

>  <Kappa3>  (55) 
5.771253

>  <LabuteASA>  (55) 
196.166872

>  <PEOE_VSA1>  (55) 
15.37044

>  <PEOE_VSA10>  (55) 
23.711916

>  <PEOE_VSA11>  (55) 
0.0

>  <PEOE_VSA12>  (55) 
5.90718

>  <PEOE_VSA13>  (55) 
0.0

>  <PEOE_VSA14>  (55) 
0.0

>  <PEOE_VSA2>  (55) 
9.694447

>  <PEOE_VSA3>  (55) 
14.358372

>  <PEOE_VSA4>  (55) 
0.0

>  <PEOE_VSA5>  (55) 
0.0

>  <PEOE_VSA6>  (55) 
24.097782

>  <PEOE_VSA7>  (55) 
50.196624

>  <PEOE_VSA8>  (55) 
29.760754

>  <PEOE_VSA9>  (55) 
23.336518

>  <SMR_VSA1>  (55) 
13.921815

>  <SMR_VSA10>  (55) 
45.60368

>  <SMR_VSA2>  (55) 
0.0

>  <SMR_VSA3>  (55) 
14.867867

>  <SMR_VSA4>  (55) 
0.0

>  <SMR_VSA5>  (55) 
19.262465

>  <SMR_VSA6>  (55) 
37.377644

>  <SMR_VSA7>  (55) 
59.65105

>  <SMR_VSA8>  (55) 
0.0

>  <SMR_VSA9>  (55) 
5.749512

>  <SlogP_VSA1>  (55) 
15.37044

>  <SlogP_VSA10>  (55) 
21.58305

>  <SlogP_VSA11>  (55) 
5.749512

>  <SlogP_VSA12>  (55) 
11.60094

>  <SlogP_VSA2>  (55) 
47.519113

>  <SlogP_VSA3>  (55) 
4.794537

>  <SlogP_VSA4>  (55) 
5.817221

>  <SlogP_VSA5>  (55) 
19.262465

>  <SlogP_VSA6>  (55) 
48.811196

>  <SlogP_VSA7>  (55) 
5.022633

>  <SlogP_VSA8>  (55) 
10.902925

>  <SlogP_VSA9>  (55) 
0.0

>  <EState_VSA1>  (55) 
5.817221

>  <EState_VSA10>  (55) 
9.184952

>  <EState_VSA11>  (55) 
0.0

>  <EState_VSA2>  (55) 
10.929813

>  <EState_VSA3>  (55) 
33.845072

>  <EState_VSA4>  (55) 
19.634269

>  <EState_VSA5>  (55) 
44.832317

>  <EState_VSA6>  (55) 
24.275121

>  <EState_VSA7>  (55) 
6.07602

>  <EState_VSA8>  (55) 
25.501444

>  <EState_VSA9>  (55) 
16.337803

>  <VSA_EState1>  (55) 
18.948925

>  <VSA_EState10>  (55) 
5.890332

>  <VSA_EState2>  (55) 
23.464161

>  <VSA_EState3>  (55) 
6.666729

>  <VSA_EState4>  (55) 
1.687277

>  <VSA_EState5>  (55) 
0.217961

>  <VSA_EState6>  (55) 
7.794175

>  <VSA_EState7>  (55) 
8.517645

>  <VSA_EState8>  (55) 
2.892277

>  <VSA_EState9>  (55) 
1.531631

>  <FractionCSP3>  (55) 
0.291667

>  <HeavyAtomCount>  (55) 
33

>  <NHOHCount>  (55) 
2

>  <NOCount>  (55) 
7

>  <NumAliphaticCarbocycles>  (55) 
0

>  <NumAliphaticHeterocycles>  (55) 
1

>  <NumAliphaticRings>  (55) 
1

>  <NumAromaticCarbocycles>  (55) 
2

>  <NumAromaticHeterocycles>  (55) 
1

>  <NumAromaticRings>  (55) 
3

>  <NumHAcceptors>  (55) 
6

>  <NumHDonors>  (55) 
2

>  <NumHeteroatoms>  (55) 
9

>  <NumRotatableBonds>  (55) 
7

>  <NumSaturatedCarbocycles>  (55) 
0

>  <NumSaturatedHeterocycles>  (55) 
1

>  <NumSaturatedRings>  (55) 
1

>  <RingCount>  (55) 
4

>  <MolLogP>  (55) 
5.1551

>  <MolMR>  (55) 
128.8434

>  <fr_Al_COO>  (55) 
0

>  <fr_Al_OH>  (55) 
0

>  <fr_Al_OH_noTert>  (55) 
0

>  <fr_ArN>  (55) 
0

>  <fr_Ar_COO>  (55) 
0

>  <fr_Ar_N>  (55) 
2

>  <fr_Ar_NH>  (55) 
0

>  <fr_Ar_OH>  (55) 
0

>  <fr_COO>  (55) 
0

>  <fr_COO2>  (55) 
0

>  <fr_C_O>  (55) 
1

>  <fr_C_O_noCOO>  (55) 
1

>  <fr_C_S>  (55) 
0

>  <fr_HOCCN>  (55) 
0

>  <fr_Imine>  (55) 
0

>  <fr_NH0>  (55) 
3

>  <fr_NH1>  (55) 
2

>  <fr_NH2>  (55) 
0

>  <fr_N_O>  (55) 
0

>  <fr_Ndealkylation1>  (55) 
0

>  <fr_Ndealkylation2>  (55) 
1

>  <fr_Nhpyrrole>  (55) 
0

>  <fr_SH>  (55) 
0

>  <fr_aldehyde>  (55) 
0

>  <fr_alkyl_carbamate>  (55) 
0

>  <fr_alkyl_halide>  (55) 
0

>  <fr_allylic_oxid>  (55) 
0

>  <fr_amide>  (55) 
1

>  <fr_amidine>  (55) 
0

>  <fr_aniline>  (55) 
3

>  <fr_aryl_methyl>  (55) 
0

>  <fr_azide>  (55) 
0

>  <fr_azo>  (55) 
0

>  <fr_barbitur>  (55) 
0

>  <fr_benzene>  (55) 
2

>  <fr_benzodiazepine>  (55) 
0

>  <fr_bicyclic>  (55) 
1

>  <fr_diazo>  (55) 
0

>  <fr_dihydropyridine>  (55) 
0

>  <fr_epoxide>  (55) 
0

>  <fr_ester>  (55) 
0

>  <fr_ether>  (55) 
1

>  <fr_furan>  (55) 
0

>  <fr_guanido>  (55) 
0

>  <fr_halogen>  (55) 
2

>  <fr_hdrzine>  (55) 
0

>  <fr_hdrzone>  (55) 
0

>  <fr_imidazole>  (55) 
0

>  <fr_imide>  (55) 
0

>  <fr_isocyan>  (55) 
0

>  <fr_isothiocyan>  (55) 
0

>  <fr_ketone>  (55) 
0

>  <fr_ketone_Topliss>  (55) 
0

>  <fr_lactam>  (55) 
0

>  <fr_lactone>  (55) 
0

>  <fr_methoxy>  (55) 
1

>  <fr_morpholine>  (55) 
0

>  <fr_nitrile>  (55) 
0

>  <fr_nitro>  (55) 
0

>  <fr_nitro_arom>  (55) 
0

>  <fr_nitro_arom_nonortho>  (55) 
0

>  <fr_nitroso>  (55) 
0

>  <fr_oxazole>  (55) 
0

>  <fr_oxime>  (55) 
0

>  <fr_para_hydroxylation>  (55) 
0

>  <fr_phenol>  (55) 
0

>  <fr_phenol_noOrthoHbond>  (55) 
0

>  <fr_phos_acid>  (55) 
0

>  <fr_phos_ester>  (55) 
0

>  <fr_piperdine>  (55) 
1

>  <fr_piperzine>  (55) 
0

>  <fr_priamide>  (55) 
0

>  <fr_prisulfonamd>  (55) 
0

>  <fr_pyridine>  (55) 
0

>  <fr_quatN>  (55) 
0

>  <fr_sulfide>  (55) 
0

>  <fr_sulfonamd>  (55) 
0

>  <fr_sulfone>  (55) 
0

>  <fr_term_acetylene>  (55) 
0

>  <fr_tetrazole>  (55) 
0

>  <fr_thiazole>  (55) 
0

>  <fr_thiocyan>  (55) 
0

>  <fr_thiophene>  (55) 
0

>  <fr_unbrch_alkane>  (55) 
0

>  <fr_urea>  (55) 
0

>  <NP_Likeness>  (55) 
-1.607327

$$$$
nan
     RDKit          3D

  0  0  0  0  0  0  0  0  0  0999 V3000
M  V30 BEGIN CTAB
M  V30 COUNTS 48 51 0 0 0
M  V30 BEGIN ATOM
M  V30 1 C -0.539279 -6.150850 4.430263 0
M  V30 2 N -0.437916 -4.785273 4.021054 0
M  V30 3 C 0.801485 -4.250058 3.614370 0
M  V30 4 O 1.612525 -5.229374 3.726197 0
M  V30 5 C 1.307212 -2.982696 3.150192 0
M  V30 6 C 2.639539 -2.859030 2.834662 0
M  V30 7 C 3.767067 -3.814647 2.865845 0
M  V30 8 O 2.849777 -1.634849 2.445980 0
M  V30 9 C 1.791079 -0.887101 2.458677 0
M  V30 10 C 1.475976 0.408346 2.160635 0
M  V30 11 C 0.173553 0.911580 2.293503 0
M  V30 12 O -0.038882 2.199291 1.977808 0
M  V30 13 C -0.381551 2.868635 0.866494 0
M  V30 14 N -0.431458 4.191710 1.219700 0
M  V30 15 C -0.756440 5.152100 0.302457 0
M  V30 16 N -1.040080 4.825845 -0.987457 0
M  V30 17 C -1.008317 3.548242 -1.395194 0
M  V30 18 C -1.270090 3.066289 -2.660459 0
M  V30 19 C -1.204881 1.721956 -2.959031 0
M  V30 20 O -1.473624 1.270436 -4.239845 0
M  V30 21 C -1.821462 2.081398 -5.312728 0
M  V30 22 C -0.865599 0.789472 -1.971757 0
M  V30 23 O -0.818134 -0.548030 -2.339434 0
M  V30 24 C -0.489528 -1.552617 -1.425609 0
M  V30 25 C -0.603081 1.262808 -0.707140 0
M  V30 26 C -0.678625 2.608878 -0.449935 0
M  V30 27 C -0.797161 0.011529 2.751267 0
M  V30 28 C -0.477717 -1.292814 3.050898 0
M  V30 29 C 0.813560 -1.731182 2.902106 0
M  V30 30 H -1.483771 -6.240018 5.013524 0
M  V30 31 H 0.322309 -6.404338 5.081968 0
M  V30 32 H -0.525031 -6.784853 3.517402 0
M  V30 33 H -1.204330 -4.101863 3.983797 0
M  V30 34 H 3.423347 -4.741423 2.339487 0
M  V30 35 H 3.914416 -4.105676 3.940148 0
M  V30 36 H 4.692004 -3.456873 2.422492 0
M  V30 37 H 2.279329 1.058319 1.808506 0
M  V30 38 H -0.830300 6.218848 0.450602 0
M  V30 39 H -1.531989 3.825248 -3.406155 0
M  V30 40 H -2.781442 2.611301 -5.042650 0
M  V30 41 H -2.042376 1.450124 -6.193464 0
M  V30 42 H -1.044049 2.811959 -5.596811 0
M  V30 43 H -1.376236 -1.811748 -0.839014 0
M  V30 44 H -0.144528 -2.437274 -2.017745 0
M  V30 45 H 0.379654 -1.216647 -0.828511 0
M  V30 46 H -0.354084 0.503419 -0.012499 0
M  V30 47 H -1.794350 0.389273 2.855120 0
M  V30 48 H -1.252495 -1.934987 3.395008 0
M  V30 END ATOM
M  V30 BEGIN BOND
M  V30 1 1 1 2
M  V30 2 1 2 3
M  V30 3 2 3 4
M  V30 4 1 3 5
M  V30 5 2 5 6
M  V30 6 1 6 7
M  V30 7 1 6 8
M  V30 8 1 8 9
M  V30 9 2 9 10
M  V30 10 1 10 11
M  V30 11 1 11 12
M  V30 12 1 12 13
M  V30 13 2 13 14
M  V30 14 1 14 15
M  V30 15 2 15 16
M  V30 16 1 16 17
M  V30 17 2 17 18
M  V30 18 1 18 19
M  V30 19 1 19 20
M  V30 20 1 20 21
M  V30 21 2 19 22
M  V30 22 1 22 23
M  V30 23 1 23 24
M  V30 24 1 22 25
M  V30 25 2 25 26
M  V30 26 2 11 27
M  V30 27 1 27 28
M  V30 28 2 28 29
M  V30 29 1 29 5
M  V30 30 1 29 9
M  V30 31 1 26 13
M  V30 32 1 26 17
M  V30 33 1 1 30
M  V30 34 1 1 31
M  V30 35 1 1 32
M  V30 36 1 2 33
M  V30 37 1 7 34
M  V30 38 1 7 35
M  V30 39 1 7 36
M  V30 40 1 10 37
M  V30 41 1 15 38
M  V30 42 1 18 39
M  V30 43 1 21 40
M  V30 44 1 21 41
M  V30 45 1 21 42
M  V30 46 1 24 43
M  V30 47 1 24 44
M  V30 48 1 24 45
M  V30 49 1 25 46
M  V30 50 1 27 47
M  V30 51 1 28 48
M  V30 END BOND
M  V30 END CTAB
M  END
>  <Dataset>  (56) 
PKIs

>  <Ligand_Instance>  (56) 
nan

>  <PDB_ID>  (56) 
nan

>  <Standardized_SMILES>  (56) 
CNC(=O)c1c(C)oc2cc(Oc3ncnc4cc(OC)c(OC)cc34)ccc12

>  <Name>  (56) 
Fruquintinib

>  <Pocket>  (56) 
nan

>  <ATP_Site>  (56) 
nan

>  <Peripheral>  (56) 
nan

>  <Num_H_Atoms_ProtBoundConf>  (56) 
nan

>  <Num_Resolved_Atoms>  (56) 
nan

>  <Num_Not_Resolved_Atoms>  (56) 
nan

>  <2D_Mol_H>  (56) 
<rdkit.Chem.rdchem.Mol object at 0x72a239140510>

>  <MW>  (56) 
393.399

>  <HBA>  (56) 
7

>  <HBD>  (56) 
1

>  <LogP>  (56) 
3.85352

>  <NRB>  (56) 
9

>  <TPSA>  (56) 
95.71

>  <Num_Heavy_Atoms>  (56) 
29

>  <Ro5>  (56) 
[True, True, True, True, True, True]

>  <Ro5_Fulfilled>  (56) 
True

>  <Ro3>  (56) 
[False, False, True, False]

>  <Ro3_Fulfilled>  (56) 
False

>  <Fsp3>  (56) 
0.190476

>  <Fsp3_0.42>  (56) 
False

>  <Fsp3_0.45>  (56) 
False

>  <Stereogenic_Carbons>  (56) 
0

>  <C_Atoms>  (56) 
21

>  <FCStereo>  (56) 
0.0

>  <SPS>  (56) 
316

>  <nSPS>  (56) 
10.896552

>  <PBF>  (56) 
1.004371

>  <PBF_0.6>  (56) 
True

>  <nPBF>  (56) 
0.034633

>  <nPBF_0.016>  (56) 
True

>  <PMI1>  (56) 
1680.850859

>  <PMI2>  (56) 
6223.423268

>  <PMI3>  (56) 
7057.223348

>  <NPR1>  (56) 
0.238175

>  <NPR2>  (56) 
0.881852

>  <Sum_NPR>  (56) 
1.120026

>  <Sum_NPR_1.07>  (56) 
True

>  <Sum_NPR_1.2>  (56) 
False

>  <MaxAbsEStateIndex>  (56) 
12.103028

>  <MaxEStateIndex>  (56) 
12.103028

>  <MinAbsEStateIndex>  (56) 
0.196523

>  <MinEStateIndex>  (56) 
-0.196523

>  <qed>  (56) 
0.550021

>  <MolWt>  (56) 
393.399

>  <HeavyAtomMolWt>  (56) 
374.247

>  <ExactMolWt>  (56) 
393.132471

>  <NumValenceElectrons>  (56) 
148

>  <NumRadicalElectrons>  (56) 
0

>  <MaxPartialCharge>  (56) 
0.254702

>  <MinPartialCharge>  (56) 
-0.492841

>  <MaxAbsPartialCharge>  (56) 
0.492841

>  <MinAbsPartialCharge>  (56) 
0.254702

>  <FpDensityMorgan1>  (56) 
1.034483

>  <FpDensityMorgan2>  (56) 
1.793103

>  <FpDensityMorgan3>  (56) 
2.517241

>  <BCUT2D_MWHI>  (56) 
16.509236

>  <BCUT2D_MWLOW>  (56) 
10.110393

>  <BCUT2D_CHGHI>  (56) 
2.181668

>  <BCUT2D_CHGLO>  (56) 
-2.110552

>  <BCUT2D_LOGPHI>  (56) 
2.364471

>  <BCUT2D_LOGPLOW>  (56) 
-2.176591

>  <BCUT2D_MRHI>  (56) 
6.068872

>  <BCUT2D_MRLOW>  (56) 
0.096273

>  <AvgIpc>  (56) 
3.068575

>  <BalabanJ>  (56) 
1.765472

>  <BertzCT>  (56) 
1232.172636

>  <Chi0>  (56) 
20.543241

>  <Chi0n>  (56) 
16.39977

>  <Chi0v>  (56) 
16.39977

>  <Chi1>  (56) 
14.049575

>  <Chi1n>  (56) 
8.851711

>  <Chi1v>  (56) 
8.851711

>  <Chi2n>  (56) 
6.275562

>  <Chi2v>  (56) 
6.275562

>  <Chi3n>  (56) 
4.610271

>  <Chi3v>  (56) 
4.610271

>  <Chi4n>  (56) 
3.222306

>  <Chi4v>  (56) 
3.222306

>  <HallKierAlpha>  (56) 
-3.81

>  <Ipc>  (56) 
5113452.465118

>  <Kappa1>  (56) 
18.548541

>  <Kappa2>  (56) 
7.308333

>  <Kappa3>  (56) 
3.18119

>  <LabuteASA>  (56) 
165.962182

>  <PEOE_VSA1>  (56) 
23.944528

>  <PEOE_VSA10>  (56) 
23.420099

>  <PEOE_VSA11>  (56) 
11.499024

>  <PEOE_VSA12>  (56) 
5.879988

>  <PEOE_VSA13>  (56) 
5.90718

>  <PEOE_VSA14>  (56) 
0.0

>  <PEOE_VSA2>  (56) 
4.794537

>  <PEOE_VSA3>  (56) 
9.967957

>  <PEOE_VSA4>  (56) 
0.0

>  <PEOE_VSA5>  (56) 
0.0

>  <PEOE_VSA6>  (56) 
0.0

>  <PEOE_VSA7>  (56) 
25.122838

>  <PEOE_VSA8>  (56) 
24.56663

>  <PEOE_VSA9>  (56) 
30.685972

>  <SMR_VSA1>  (56) 
23.422277

>  <SMR_VSA10>  (56) 
27.779349

>  <SMR_VSA2>  (56) 
0.0

>  <SMR_VSA3>  (56) 
15.284746

>  <SMR_VSA4>  (56) 
0.0

>  <SMR_VSA5>  (56) 
6.923737

>  <SMR_VSA6>  (56) 
21.267267

>  <SMR_VSA7>  (56) 
47.982854

>  <SMR_VSA8>  (56) 
0.0

>  <SMR_VSA9>  (56) 
23.128524

>  <SlogP_VSA1>  (56) 
19.527377

>  <SlogP_VSA10>  (56) 
0.0

>  <SlogP_VSA11>  (56) 
23.128524

>  <SlogP_VSA12>  (56) 
0.0

>  <SlogP_VSA2>  (56) 
37.142404

>  <SlogP_VSA3>  (56) 
0.0

>  <SlogP_VSA4>  (56) 
6.923737

>  <SlogP_VSA5>  (56) 
16.118236

>  <SlogP_VSA6>  (56) 
41.076306

>  <SlogP_VSA7>  (56) 
0.0

>  <SlogP_VSA8>  (56) 
21.872169

>  <SlogP_VSA9>  (56) 
0.0

>  <EState_VSA1>  (56) 
0.0

>  <EState_VSA10>  (56) 
4.794537

>  <EState_VSA11>  (56) 
0.0

>  <EState_VSA2>  (56) 
5.90718

>  <EState_VSA3>  (56) 
56.324392

>  <EState_VSA4>  (56) 
0.0

>  <EState_VSA5>  (56) 
6.32732

>  <EState_VSA6>  (56) 
58.52284

>  <EState_VSA7>  (56) 
0.0

>  <EState_VSA8>  (56) 
15.284746

>  <EState_VSA9>  (56) 
18.62774

>  <VSA_EState1>  (56) 
22.433795

>  <VSA_EState10>  (56) 
0.0

>  <VSA_EState2>  (56) 
20.627542

>  <VSA_EState3>  (56) 
4.014787

>  <VSA_EState4>  (56) 
1.721345

>  <VSA_EState5>  (56) 
2.346307

>  <VSA_EState6>  (56) 
8.806371

>  <VSA_EState7>  (56) 
1.419487

>  <VSA_EState8>  (56) 
1.752675

>  <VSA_EState9>  (56) 
4.711023

>  <FractionCSP3>  (56) 
0.190476

>  <HeavyAtomCount>  (56) 
29

>  <NHOHCount>  (56) 
1

>  <NOCount>  (56) 
8

>  <NumAliphaticCarbocycles>  (56) 
0

>  <NumAliphaticHeterocycles>  (56) 
0

>  <NumAliphaticRings>  (56) 
0

>  <NumAromaticCarbocycles>  (56) 
2

>  <NumAromaticHeterocycles>  (56) 
2

>  <NumAromaticRings>  (56) 
4

>  <NumHAcceptors>  (56) 
7

>  <NumHDonors>  (56) 
1

>  <NumHeteroatoms>  (56) 
8

>  <NumRotatableBonds>  (56) 
5

>  <NumSaturatedCarbocycles>  (56) 
0

>  <NumSaturatedHeterocycles>  (56) 
0

>  <NumSaturatedRings>  (56) 
0

>  <RingCount>  (56) 
4

>  <MolLogP>  (56) 
3.85352

>  <MolMR>  (56) 
107.0572

>  <fr_Al_COO>  (56) 
0

>  <fr_Al_OH>  (56) 
0

>  <fr_Al_OH_noTert>  (56) 
0

>  <fr_ArN>  (56) 
0

>  <fr_Ar_COO>  (56) 
0

>  <fr_Ar_N>  (56) 
2

>  <fr_Ar_NH>  (56) 
0

>  <fr_Ar_OH>  (56) 
0

>  <fr_COO>  (56) 
0

>  <fr_COO2>  (56) 
0

>  <fr_C_O>  (56) 
1

>  <fr_C_O_noCOO>  (56) 
1

>  <fr_C_S>  (56) 
0

>  <fr_HOCCN>  (56) 
0

>  <fr_Imine>  (56) 
0

>  <fr_NH0>  (56) 
2

>  <fr_NH1>  (56) 
1

>  <fr_NH2>  (56) 
0

>  <fr_N_O>  (56) 
0

>  <fr_Ndealkylation1>  (56) 
0

>  <fr_Ndealkylation2>  (56) 
0

>  <fr_Nhpyrrole>  (56) 
0

>  <fr_SH>  (56) 
0

>  <fr_aldehyde>  (56) 
0

>  <fr_alkyl_carbamate>  (56) 
0

>  <fr_alkyl_halide>  (56) 
0

>  <fr_allylic_oxid>  (56) 
0

>  <fr_amide>  (56) 
1

>  <fr_amidine>  (56) 
0

>  <fr_aniline>  (56) 
0

>  <fr_aryl_methyl>  (56) 
1

>  <fr_azide>  (56) 
0

>  <fr_azo>  (56) 
0

>  <fr_barbitur>  (56) 
0

>  <fr_benzene>  (56) 
2

>  <fr_benzodiazepine>  (56) 
0

>  <fr_bicyclic>  (56) 
2

>  <fr_diazo>  (56) 
0

>  <fr_dihydropyridine>  (56) 
0

>  <fr_epoxide>  (56) 
0

>  <fr_ester>  (56) 
0

>  <fr_ether>  (56) 
3

>  <fr_furan>  (56) 
1

>  <fr_guanido>  (56) 
0

>  <fr_halogen>  (56) 
0

>  <fr_hdrzine>  (56) 
0

>  <fr_hdrzone>  (56) 
0

>  <fr_imidazole>  (56) 
0

>  <fr_imide>  (56) 
0

>  <fr_isocyan>  (56) 
0

>  <fr_isothiocyan>  (56) 
0

>  <fr_ketone>  (56) 
0

>  <fr_ketone_Topliss>  (56) 
0

>  <fr_lactam>  (56) 
0

>  <fr_lactone>  (56) 
0

>  <fr_methoxy>  (56) 
2

>  <fr_morpholine>  (56) 
0

>  <fr_nitrile>  (56) 
0

>  <fr_nitro>  (56) 
0

>  <fr_nitro_arom>  (56) 
0

>  <fr_nitro_arom_nonortho>  (56) 
0

>  <fr_nitroso>  (56) 
0

>  <fr_oxazole>  (56) 
0

>  <fr_oxime>  (56) 
0

>  <fr_para_hydroxylation>  (56) 
0

>  <fr_phenol>  (56) 
0

>  <fr_phenol_noOrthoHbond>  (56) 
0

>  <fr_phos_acid>  (56) 
0

>  <fr_phos_ester>  (56) 
0

>  <fr_piperdine>  (56) 
0

>  <fr_piperzine>  (56) 
0

>  <fr_priamide>  (56) 
0

>  <fr_prisulfonamd>  (56) 
0

>  <fr_pyridine>  (56) 
0

>  <fr_quatN>  (56) 
0

>  <fr_sulfide>  (56) 
0

>  <fr_sulfonamd>  (56) 
0

>  <fr_sulfone>  (56) 
0

>  <fr_term_acetylene>  (56) 
0

>  <fr_tetrazole>  (56) 
0

>  <fr_thiazole>  (56) 
0

>  <fr_thiocyan>  (56) 
0

>  <fr_thiophene>  (56) 
0

>  <fr_unbrch_alkane>  (56) 
0

>  <fr_urea>  (56) 
0

>  <NP_Likeness>  (56) 
-0.756041

$$$$
nan
     RDKit          3D

  0  0  0  0  0  0  0  0  0  0999 V3000
M  V30 BEGIN CTAB
M  V30 COUNTS 47 51 0 0 0
M  V30 BEGIN ATOM
M  V30 1 C -1.280648 0.860048 2.994106 0
M  V30 2 C 0.070950 0.385637 2.562849 0 CFG=2
M  V30 3 N 0.756180 1.410442 1.878975 0
M  V30 4 C 1.449614 2.447617 1.187066 0
M  V30 5 N 1.899117 3.646457 1.574978 0
M  V30 6 C 2.538247 4.482423 0.756297 0
M  V30 7 N 2.710275 4.059697 -0.485985 0
M  V30 8 C 2.309416 2.901584 -0.973308 0
M  V30 9 N 2.455882 2.439105 -2.207894 0
M  V30 10 C 1.859506 1.228853 -2.133153 0
M  V30 11 N 1.373937 0.965973 -0.915829 0
M  V30 12 C 1.636617 2.010595 -0.128076 0
M  V30 13 C 0.089012 -0.895094 1.808323 0
M  V30 14 C 1.419902 -1.211219 1.492598 0
M  V30 15 C 1.800129 -2.330051 0.789654 0
M  V30 16 C 3.096833 -2.669004 0.465288 0
M  V30 17 C 3.368286 -3.818372 -0.243952 0
M  V30 18 C 2.367509 -4.696122 -0.671247 0
M  V30 19 C 1.084259 -4.341010 -0.338534 0
M  V30 20 Cl -0.196760 -5.421058 -0.859803 0
M  V30 21 C 0.814903 -3.196263 0.367849 0
M  V30 22 C -0.482871 -2.866941 0.688076 0
M  V30 23 O -1.373857 -3.642319 0.311400 0
M  V30 24 N -0.807920 -1.764842 1.375780 0
M  V30 25 C -2.180188 -1.557104 1.619562 0
M  V30 26 C -2.786528 -1.105371 0.432887 0
M  V30 27 C -4.141945 -0.841185 0.360755 0
M  V30 28 C -4.941580 -1.019203 1.474192 0
M  V30 29 C -4.356038 -1.461161 2.639939 0
M  V30 30 C -3.025700 -1.724123 2.723213 0
M  V30 31 H -2.051403 0.916828 2.241061 0
M  V30 32 H -1.170473 1.949126 3.343280 0
M  V30 33 H -1.540250 0.343844 3.944998 0
M  V30 34 H 0.669200 0.102380 3.506263 0
M  V30 35 H 0.722977 1.991620 2.785735 0
M  V30 36 H 2.823964 5.394398 1.240367 0
M  V30 37 H 2.913409 2.892533 -3.026158 0
M  V30 38 H 1.757151 0.503144 -2.951177 0
M  V30 39 H 2.315092 -0.621985 1.757672 0
M  V30 40 H 3.880989 -2.004551 0.786854 0
M  V30 41 H 4.380201 -4.107492 -0.511169 0
M  V30 42 H 2.580059 -5.589734 -1.223265 0
M  V30 43 H -2.311165 -0.911831 -0.532485 0
M  V30 44 H -4.671303 -0.494296 -0.511088 0
M  V30 45 H -6.004605 -0.856047 1.570631 0
M  V30 46 H -4.823363 -1.654471 3.597993 0
M  V30 47 H -2.406932 -2.075726 3.556077 0
M  V30 END ATOM
M  V30 BEGIN BOND
M  V30 1 1 1 2
M  V30 2 1 2 3
M  V30 3 1 3 4
M  V30 4 2 4 5
M  V30 5 1 5 6
M  V30 6 2 6 7
M  V30 7 1 7 8
M  V30 8 1 8 9
M  V30 9 1 9 10
M  V30 10 2 10 11
M  V30 11 1 11 12
M  V30 12 1 2 13
M  V30 13 2 13 14
M  V30 14 1 14 15
M  V30 15 2 15 16
M  V30 16 1 16 17
M  V30 17 2 17 18
M  V30 18 1 18 19
M  V30 19 1 19 20
M  V30 20 2 19 21
M  V30 21 1 21 22
M  V30 22 2 22 23
M  V30 23 1 22 24
M  V30 24 1 24 25
M  V30 25 2 25 26
M  V30 26 1 26 27
M  V30 27 2 27 28
M  V30 28 1 28 29
M  V30 29 2 29 30
M  V30 30 1 12 4
M  V30 31 1 24 13
M  V30 32 1 30 25
M  V30 33 2 12 8
M  V30 34 1 21 15
M  V30 35 1 1 31
M  V30 36 1 1 32
M  V30 37 1 1 33
M  V30 38 1 2 34 CFG=1
M  V30 39 1 3 35
M  V30 40 1 6 36
M  V30 41 1 9 37
M  V30 42 1 10 38
M  V30 43 1 14 39
M  V30 44 1 16 40
M  V30 45 1 17 41
M  V30 46 1 18 42
M  V30 47 1 26 43
M  V30 48 1 27 44
M  V30 49 1 28 45
M  V30 50 1 29 46
M  V30 51 1 30 47
M  V30 END BOND
M  V30 END CTAB
M  END
>  <Dataset>  (57) 
PKIs

>  <Ligand_Instance>  (57) 
nan

>  <PDB_ID>  (57) 
nan

>  <Standardized_SMILES>  (57) 
C[C@H](Nc1ncnc2[nH]cnc12)c1cc2cccc(Cl)c2c(=O)n1-c1ccccc1

>  <Name>  (57) 
Duvelisib

>  <Pocket>  (57) 
nan

>  <ATP_Site>  (57) 
nan

>  <Peripheral>  (57) 
nan

>  <Num_H_Atoms_ProtBoundConf>  (57) 
nan

>  <Num_Resolved_Atoms>  (57) 
nan

>  <Num_Not_Resolved_Atoms>  (57) 
nan

>  <2D_Mol_H>  (57) 
<rdkit.Chem.rdchem.Mol object at 0x72a2391405f0>

>  <MW>  (57) 
416.872

>  <HBA>  (57) 
6

>  <HBD>  (57) 
2

>  <LogP>  (57) 
4.4835

>  <NRB>  (57) 
5

>  <TPSA>  (57) 
88.49

>  <Num_Heavy_Atoms>  (57) 
30

>  <Ro5>  (57) 
[True, True, True, True, True, True]

>  <Ro5_Fulfilled>  (57) 
True

>  <Ro3>  (57) 
[False, False, True, False]

>  <Ro3_Fulfilled>  (57) 
False

>  <Fsp3>  (57) 
0.090909

>  <Fsp3_0.42>  (57) 
False

>  <Fsp3_0.45>  (57) 
False

>  <Stereogenic_Carbons>  (57) 
1

>  <C_Atoms>  (57) 
22

>  <FCStereo>  (57) 
0.045455

>  <SPS>  (57) 
370

>  <nSPS>  (57) 
12.333333

>  <PBF>  (57) 
1.171369

>  <PBF_0.6>  (57) 
True

>  <nPBF>  (57) 
0.039046

>  <nPBF_0.016>  (57) 
True

>  <PMI1>  (57) 
2611.486811

>  <PMI2>  (57) 
4174.690815

>  <PMI3>  (57) 
5775.020099

>  <NPR1>  (57) 
0.452204

>  <NPR2>  (57) 
0.722888

>  <Sum_NPR>  (57) 
1.175092

>  <Sum_NPR_1.07>  (57) 
True

>  <Sum_NPR_1.2>  (57) 
False

>  <MaxAbsEStateIndex>  (57) 
13.506265

>  <MaxEStateIndex>  (57) 
13.506265

>  <MinAbsEStateIndex>  (57) 
0.166154

>  <MinEStateIndex>  (57) 
-0.253622

>  <qed>  (57) 
0.450507

>  <MolWt>  (57) 
416.872

>  <HeavyAtomMolWt>  (57) 
399.736

>  <ExactMolWt>  (57) 
416.115237

>  <NumValenceElectrons>  (57) 
148

>  <NumRadicalElectrons>  (57) 
0

>  <MaxPartialCharge>  (57) 
0.264272

>  <MinPartialCharge>  (57) 
-0.360076

>  <MaxAbsPartialCharge>  (57) 
0.360076

>  <MinAbsPartialCharge>  (57) 
0.264272

>  <FpDensityMorgan1>  (57) 
1.066667

>  <FpDensityMorgan2>  (57) 
1.9

>  <FpDensityMorgan3>  (57) 
2.733333

>  <BCUT2D_MWHI>  (57) 
35.495692

>  <BCUT2D_MWLOW>  (57) 
10.071957

>  <BCUT2D_CHGHI>  (57) 
2.187897

>  <BCUT2D_CHGLO>  (57) 
-2.212572

>  <BCUT2D_LOGPHI>  (57) 
2.274374

>  <BCUT2D_LOGPLOW>  (57) 
-2.254764

>  <BCUT2D_MRHI>  (57) 
6.34958

>  <BCUT2D_MRLOW>  (57) 
0.773808

>  <AvgIpc>  (57) 
3.238865

>  <BalabanJ>  (57) 
1.711509

>  <BertzCT>  (57) 
1426.584578

>  <Chi0>  (57) 
20.664561

>  <Chi0n>  (57) 
16.00327

>  <Chi0v>  (57) 
16.759199

>  <Chi1>  (57) 
14.63103

>  <Chi1n>  (57) 
9.43477

>  <Chi1v>  (57) 
9.812735

>  <Chi2n>  (57) 
6.937429

>  <Chi2v>  (57) 
7.344629

>  <Chi3n>  (57) 
5.052839

>  <Chi3v>  (57) 
5.36781

>  <Chi4n>  (57) 
3.650997

>  <Chi4v>  (57) 
3.913679

>  <HallKierAlpha>  (57) 
-3.71

>  <Ipc>  (57) 
13358426.650918

>  <Kappa1>  (57) 
18.326929

>  <Kappa2>  (57) 
7.274434

>  <Kappa3>  (57) 
2.998268

>  <LabuteASA>  (57) 
175.951179

>  <PEOE_VSA1>  (57) 
10.300767

>  <PEOE_VSA10>  (57) 
11.844021

>  <PEOE_VSA11>  (57) 
11.46504

>  <PEOE_VSA12>  (57) 
0.0

>  <PEOE_VSA13>  (57) 
5.559267

>  <PEOE_VSA14>  (57) 
0.0

>  <PEOE_VSA2>  (57) 
9.361637

>  <PEOE_VSA3>  (57) 
14.951936

>  <PEOE_VSA4>  (57) 
0.0

>  <PEOE_VSA5>  (57) 
0.0

>  <PEOE_VSA6>  (57) 
41.932775

>  <PEOE_VSA7>  (57) 
36.57543

>  <PEOE_VSA8>  (57) 
11.381314

>  <PEOE_VSA9>  (57) 
22.778018

>  <SMR_VSA1>  (57) 
0.0

>  <SMR_VSA10>  (57) 
39.355129

>  <SMR_VSA2>  (57) 
0.0

>  <SMR_VSA3>  (57) 
24.503014

>  <SMR_VSA4>  (57) 
0.0

>  <SMR_VSA5>  (57) 
12.965578

>  <SMR_VSA6>  (57) 
5.316789

>  <SMR_VSA7>  (57) 
88.322309

>  <SMR_VSA8>  (57) 
0.0

>  <SMR_VSA9>  (57) 
5.687386

>  <SlogP_VSA1>  (57) 
10.876055

>  <SlogP_VSA10>  (57) 
5.817863

>  <SlogP_VSA11>  (57) 
0.0

>  <SlogP_VSA12>  (57) 
11.60094

>  <SlogP_VSA2>  (57) 
24.503014

>  <SlogP_VSA3>  (57) 
0.0

>  <SlogP_VSA4>  (57) 
0.0

>  <SlogP_VSA5>  (57) 
18.659506

>  <SlogP_VSA6>  (57) 
72.046481

>  <SlogP_VSA7>  (57) 
5.022633

>  <SlogP_VSA8>  (57) 
27.623713

>  <SlogP_VSA9>  (57) 
0.0

>  <EState_VSA1>  (57) 
0.0

>  <EState_VSA10>  (57) 
4.794537

>  <EState_VSA11>  (57) 
0.0

>  <EState_VSA2>  (57) 
11.601108

>  <EState_VSA3>  (57) 
27.390598

>  <EState_VSA4>  (57) 
16.767538

>  <EState_VSA5>  (57) 
6.32732

>  <EState_VSA6>  (57) 
16.960787

>  <EState_VSA7>  (57) 
55.454674

>  <EState_VSA8>  (57) 
25.252703

>  <EState_VSA9>  (57) 
11.60094

>  <VSA_EState1>  (57) 
1.6893

>  <VSA_EState10>  (57) 
6.378658

>  <VSA_EState2>  (57) 
29.285313

>  <VSA_EState3>  (57) 
5.095253

>  <VSA_EState4>  (57) 
2.663543

>  <VSA_EState5>  (57) 
0.589816

>  <VSA_EState6>  (57) 
16.716456

>  <VSA_EState7>  (57) 
3.048733

>  <VSA_EState8>  (57) 
1.977371

>  <VSA_EState9>  (57) 
0.0

>  <FractionCSP3>  (57) 
0.090909

>  <HeavyAtomCount>  (57) 
30

>  <NHOHCount>  (57) 
2

>  <NOCount>  (57) 
7

>  <NumAliphaticCarbocycles>  (57) 
0

>  <NumAliphaticHeterocycles>  (57) 
0

>  <NumAliphaticRings>  (57) 
0

>  <NumAromaticCarbocycles>  (57) 
2

>  <NumAromaticHeterocycles>  (57) 
3

>  <NumAromaticRings>  (57) 
5

>  <NumHAcceptors>  (57) 
6

>  <NumHDonors>  (57) 
2

>  <NumHeteroatoms>  (57) 
8

>  <NumRotatableBonds>  (57) 
4

>  <NumSaturatedCarbocycles>  (57) 
0

>  <NumSaturatedHeterocycles>  (57) 
0

>  <NumSaturatedRings>  (57) 
0

>  <RingCount>  (57) 
5

>  <MolLogP>  (57) 
4.4835

>  <MolMR>  (57) 
118.2764

>  <fr_Al_COO>  (57) 
0

>  <fr_Al_OH>  (57) 
0

>  <fr_Al_OH_noTert>  (57) 
0

>  <fr_ArN>  (57) 
0

>  <fr_Ar_COO>  (57) 
0

>  <fr_Ar_N>  (57) 
5

>  <fr_Ar_NH>  (57) 
1

>  <fr_Ar_OH>  (57) 
0

>  <fr_COO>  (57) 
0

>  <fr_COO2>  (57) 
0

>  <fr_C_O>  (57) 
0

>  <fr_C_O_noCOO>  (57) 
0

>  <fr_C_S>  (57) 
0

>  <fr_HOCCN>  (57) 
0

>  <fr_Imine>  (57) 
0

>  <fr_NH0>  (57) 
4

>  <fr_NH1>  (57) 
2

>  <fr_NH2>  (57) 
0

>  <fr_N_O>  (57) 
0

>  <fr_Ndealkylation1>  (57) 
0

>  <fr_Ndealkylation2>  (57) 
0

>  <fr_Nhpyrrole>  (57) 
1

>  <fr_SH>  (57) 
0

>  <fr_aldehyde>  (57) 
0

>  <fr_alkyl_carbamate>  (57) 
0

>  <fr_alkyl_halide>  (57) 
0

>  <fr_allylic_oxid>  (57) 
0

>  <fr_amide>  (57) 
0

>  <fr_amidine>  (57) 
0

>  <fr_aniline>  (57) 
1

>  <fr_aryl_methyl>  (57) 
0

>  <fr_azide>  (57) 
0

>  <fr_azo>  (57) 
0

>  <fr_barbitur>  (57) 
0

>  <fr_benzene>  (57) 
2

>  <fr_benzodiazepine>  (57) 
0

>  <fr_bicyclic>  (57) 
2

>  <fr_diazo>  (57) 
0

>  <fr_dihydropyridine>  (57) 
0

>  <fr_epoxide>  (57) 
0

>  <fr_ester>  (57) 
0

>  <fr_ether>  (57) 
0

>  <fr_furan>  (57) 
0

>  <fr_guanido>  (57) 
0

>  <fr_halogen>  (57) 
1

>  <fr_hdrzine>  (57) 
0

>  <fr_hdrzone>  (57) 
0

>  <fr_imidazole>  (57) 
1

>  <fr_imide>  (57) 
0

>  <fr_isocyan>  (57) 
0

>  <fr_isothiocyan>  (57) 
0

>  <fr_ketone>  (57) 
0

>  <fr_ketone_Topliss>  (57) 
0

>  <fr_lactam>  (57) 
0

>  <fr_lactone>  (57) 
0

>  <fr_methoxy>  (57) 
0

>  <fr_morpholine>  (57) 
0

>  <fr_nitrile>  (57) 
0

>  <fr_nitro>  (57) 
0

>  <fr_nitro_arom>  (57) 
0

>  <fr_nitro_arom_nonortho>  (57) 
0

>  <fr_nitroso>  (57) 
0

>  <fr_oxazole>  (57) 
0

>  <fr_oxime>  (57) 
0

>  <fr_para_hydroxylation>  (57) 
1

>  <fr_phenol>  (57) 
0

>  <fr_phenol_noOrthoHbond>  (57) 
0

>  <fr_phos_acid>  (57) 
0

>  <fr_phos_ester>  (57) 
0

>  <fr_piperdine>  (57) 
0

>  <fr_piperzine>  (57) 
0

>  <fr_priamide>  (57) 
0

>  <fr_prisulfonamd>  (57) 
0

>  <fr_pyridine>  (57) 
1

>  <fr_quatN>  (57) 
0

>  <fr_sulfide>  (57) 
0

>  <fr_sulfonamd>  (57) 
0

>  <fr_sulfone>  (57) 
0

>  <fr_term_acetylene>  (57) 
0

>  <fr_tetrazole>  (57) 
0

>  <fr_thiazole>  (57) 
0

>  <fr_thiocyan>  (57) 
0

>  <fr_thiophene>  (57) 
0

>  <fr_unbrch_alkane>  (57) 
0

>  <fr_urea>  (57) 
0

>  <NP_Likeness>  (57) 
-1.021382

$$$$
nan
     RDKit          3D

  0  0  0  0  0  0  0  0  0  0999 V3000
M  V30 BEGIN CTAB
M  V30 COUNTS 66 69 0 0 0
M  V30 BEGIN ATOM
M  V30 1 C 3.803573 -1.844683 3.429114 0
M  V30 2 O 3.096186 -0.770273 3.987245 0
M  V30 3 C 2.443868 0.153735 3.210099 0
M  V30 4 C 2.332944 0.262364 1.848896 0
M  V30 5 C 1.648865 1.235512 1.161929 0
M  V30 6 N 1.639395 1.246812 -0.261380 0
M  V30 7 C 0.686045 2.137630 -0.869516 0
M  V30 8 N 0.575972 3.461355 -1.049270 0
M  V30 9 C -0.486049 3.990265 -1.692308 0
M  V30 10 C -1.493696 3.189610 -2.186863 0
M  V30 11 F -2.543934 3.754770 -2.826373 0
M  V30 12 C -1.389694 1.811875 -2.006437 0
M  V30 13 N -2.435218 0.935912 -2.501858 0
M  V30 14 C -2.098391 -0.444632 -2.384229 0
M  V30 15 C -1.989305 -0.968383 -3.677979 0
M  V30 16 C -1.634257 -2.316871 -3.819161 0
M  V30 17 C -1.410388 -3.055275 -2.677098 0
M  V30 18 C -1.527303 -2.501407 -1.402850 0
M  V30 19 N -1.872279 -1.199092 -1.296083 0
M  V30 20 N -1.257779 -3.214802 -0.183161 0
M  V30 21 C -1.342484 -2.690616 1.137758 0
M  V30 22 O -2.527275 -2.852144 1.791257 0
M  V30 23 P -3.886970 -2.188202 1.123281 0
M  V30 24 O -5.046097 -2.505515 2.088552 0
M  V30 25 O -4.349753 -2.836691 -0.353061 0
M  V30 26 O -3.834791 -0.498806 1.038166 0
M  V30 27 C -0.843299 -4.579430 -0.376862 0
M  V30 28 O -1.036740 -5.405117 0.570082 0
M  V30 29 C -0.210659 -4.887506 -1.712943 0
M  V30 30 C -0.033218 -6.375947 -1.865950 0
M  V30 31 C 1.128939 -4.198167 -1.716275 0
M  V30 32 O -1.047666 -4.421404 -2.759192 0
M  V30 33 N -0.297372 1.347333 -1.352139 0
M  V30 34 C 1.017795 2.186929 1.931943 0
M  V30 35 C 1.067113 2.169768 3.323410 0
M  V30 36 O 0.440488 3.115991 4.114159 0
M  V30 37 C -0.282504 4.151206 3.477534 0
M  V30 38 C 1.786248 1.144604 3.953882 0
M  V30 39 O 1.816964 1.158629 5.363018 0
M  V30 40 C 2.908474 1.887157 5.936639 0
M  V30 41 H 4.803745 -2.007563 3.902874 0
M  V30 42 H 3.223671 -2.811301 3.556759 0
M  V30 43 H 3.936930 -1.759461 2.335316 0
M  V30 44 H 2.833081 -0.493620 1.276775 0
M  V30 45 H 2.307919 0.621187 -0.772694 0
M  V30 46 H -0.450205 5.061716 -1.765010 0
M  V30 47 H -3.290985 1.376713 -2.885594 0
M  V30 48 H -2.137002 -0.490217 -4.627131 0
M  V30 49 H -1.531349 -2.802242 -4.795539 0
M  V30 50 H -1.010197 -1.613329 1.094890 0
M  V30 51 H -0.540422 -3.173881 1.768918 0
M  V30 52 H -4.589166 -2.091403 -0.983332 0
M  V30 53 H -4.651502 -0.132257 0.645235 0
M  V30 54 H 1.034985 -6.660713 -1.695825 0
M  V30 55 H -0.730277 -6.972445 -1.232144 0
M  V30 56 H -0.236432 -6.715590 -2.916219 0
M  V30 57 H 1.369697 -3.739832 -2.696798 0
M  V30 58 H 1.894458 -4.953683 -1.432526 0
M  V30 59 H 1.192547 -3.404032 -0.922987 0
M  V30 60 H 0.471717 2.966923 1.420066 0
M  V30 61 H 0.422137 4.895753 3.006577 0
M  V30 62 H -0.993236 4.674259 4.161018 0
M  V30 63 H -0.925848 3.789207 2.638547 0
M  V30 64 H 3.871607 1.631372 5.422165 0
M  V30 65 H 2.757129 2.984665 5.872016 0
M  V30 66 H 3.008030 1.658979 7.025904 0
M  V30 END ATOM
M  V30 BEGIN BOND
M  V30 1 1 1 2
M  V30 2 1 2 3
M  V30 3 2 3 4
M  V30 4 1 4 5
M  V30 5 1 5 6
M  V30 6 1 6 7
M  V30 7 2 7 8
M  V30 8 1 8 9
M  V30 9 2 9 10
M  V30 10 1 10 11
M  V30 11 1 10 12
M  V30 12 1 12 13
M  V30 13 1 13 14
M  V30 14 2 14 15
M  V30 15 1 15 16
M  V30 16 2 16 17
M  V30 17 1 17 18
M  V30 18 2 18 19
M  V30 19 1 18 20
M  V30 20 1 20 21
M  V30 21 1 21 22
M  V30 22 1 22 23
M  V30 23 2 23 24
M  V30 24 1 23 25
M  V30 25 1 23 26
M  V30 26 1 20 27
M  V30 27 2 27 28
M  V30 28 1 27 29
M  V30 29 1 29 30
M  V30 30 1 29 31
M  V30 31 1 29 32
M  V30 32 2 12 33
M  V30 33 2 5 34
M  V30 34 1 34 35
M  V30 35 1 35 36
M  V30 36 1 36 37
M  V30 37 2 35 38
M  V30 38 1 38 39
M  V30 39 1 39 40
M  V30 40 1 38 3
M  V30 41 1 33 7
M  V30 42 1 19 14
M  V30 43 1 32 17
M  V30 44 1 1 41
M  V30 45 1 1 42
M  V30 46 1 1 43
M  V30 47 1 4 44
M  V30 48 1 6 45
M  V30 49 1 9 46
M  V30 50 1 13 47
M  V30 51 1 15 48
M  V30 52 1 16 49
M  V30 53 1 21 50
M  V30 54 1 21 51
M  V30 55 1 25 52
M  V30 56 1 26 53
M  V30 57 1 30 54
M  V30 58 1 30 55
M  V30 59 1 30 56
M  V30 60 1 31 57
M  V30 61 1 31 58
M  V30 62 1 31 59
M  V30 63 1 34 60
M  V30 64 1 37 61
M  V30 65 1 37 62
M  V30 66 1 37 63
M  V30 67 1 40 64
M  V30 68 1 40 65
M  V30 69 1 40 66
M  V30 END BOND
M  V30 END CTAB
M  END
>  <Dataset>  (58) 
PKIs

>  <Ligand_Instance>  (58) 
nan

>  <PDB_ID>  (58) 
nan

>  <Standardized_SMILES>  (58) 
COc1cc(Nc2ncc(F)c(Nc3ccc4c(n3)N(COP(=O)(O)O)C(=O)C(C)(C)O4)n2)cc(OC)c1OC

>  <Name>  (58) 
Fostamatinib

>  <Pocket>  (58) 
nan

>  <ATP_Site>  (58) 
nan

>  <Peripheral>  (58) 
nan

>  <Num_H_Atoms_ProtBoundConf>  (58) 
nan

>  <Num_Resolved_Atoms>  (58) 
nan

>  <Num_Not_Resolved_Atoms>  (58) 
nan

>  <2D_Mol_H>  (58) 
<rdkit.Chem.rdchem.Mol object at 0x72a2391406d0>

>  <MW>  (58) 
580.466

>  <HBA>  (58) 
14

>  <HBD>  (58) 
4

>  <LogP>  (58) 
3.0945

>  <NRB>  (58) 
17

>  <TPSA>  (58) 
186.72

>  <Num_Heavy_Atoms>  (58) 
40

>  <Ro5>  (58) 
[False, False, True, True, False, False]

>  <Ro5_Fulfilled>  (58) 
False

>  <Ro3>  (58) 
[False, False, False, False]

>  <Ro3_Fulfilled>  (58) 
False

>  <Fsp3>  (58) 
0.304348

>  <Fsp3_0.42>  (58) 
False

>  <Fsp3_0.45>  (58) 
False

>  <Stereogenic_Carbons>  (58) 
0

>  <C_Atoms>  (58) 
23

>  <FCStereo>  (58) 
0.0

>  <SPS>  (58) 
568

>  <nSPS>  (58) 
14.2

>  <PBF>  (58) 
1.34278

>  <PBF_0.6>  (58) 
True

>  <nPBF>  (58) 
0.03357

>  <nPBF_0.016>  (58) 
True

>  <PMI1>  (58) 
5269.565816

>  <PMI2>  (58) 
7877.399729

>  <PMI3>  (58) 
9663.23219

>  <NPR1>  (58) 
0.545321

>  <NPR2>  (58) 
0.815193

>  <Sum_NPR>  (58) 
1.360514

>  <Sum_NPR_1.07>  (58) 
True

>  <Sum_NPR_1.2>  (58) 
True

>  <MaxAbsEStateIndex>  (58) 
14.666202

>  <MaxEStateIndex>  (58) 
14.666202

>  <MinAbsEStateIndex>  (58) 
0.007467

>  <MinEStateIndex>  (58) 
-4.909979

>  <qed>  (58) 
0.256226

>  <MolWt>  (58) 
580.466

>  <HeavyAtomMolWt>  (58) 
554.258

>  <ExactMolWt>  (58) 
580.148291

>  <NumValenceElectrons>  (58) 
214

>  <NumRadicalElectrons>  (58) 
0

>  <MaxPartialCharge>  (58) 
0.470831

>  <MinPartialCharge>  (58) 
-0.492634

>  <MaxAbsPartialCharge>  (58) 
0.492634

>  <MinAbsPartialCharge>  (58) 
0.470831

>  <FpDensityMorgan1>  (58) 
1.075

>  <FpDensityMorgan2>  (58) 
1.75

>  <FpDensityMorgan3>  (58) 
2.35

>  <BCUT2D_MWHI>  (58) 
31.204464

>  <BCUT2D_MWLOW>  (58) 
10.061741

>  <BCUT2D_CHGHI>  (58) 
2.42424

>  <BCUT2D_CHGLO>  (58) 
-2.371318

>  <BCUT2D_LOGPHI>  (58) 
2.419176

>  <BCUT2D_LOGPLOW>  (58) 
-2.529554

>  <BCUT2D_MRHI>  (58) 
7.458385

>  <BCUT2D_MRLOW>  (58) 
-0.133139

>  <AvgIpc>  (58) 
2.894627

>  <BalabanJ>  (58) 
1.624197

>  <BertzCT>  (58) 
1460.178748

>  <Chi0>  (58) 
29.241912

>  <Chi0n>  (58) 
21.960056

>  <Chi0v>  (58) 
22.854483

>  <Chi1>  (58) 
18.845017

>  <Chi1n>  (58) 
11.436029

>  <Chi1v>  (58) 
12.966326

>  <Chi2n>  (58) 
8.666735

>  <Chi2v>  (58) 
9.906088

>  <Chi3n>  (58) 
5.486747

>  <Chi3v>  (58) 
5.938566

>  <Chi4n>  (58) 
3.689406

>  <Chi4v>  (58) 
3.955296

>  <HallKierAlpha>  (58) 
-4.24

>  <Ipc>  (58) 
419752175.819528

>  <Kappa1>  (58) 
28.760042

>  <Kappa2>  (58) 
11.093369

>  <Kappa3>  (58) 
6.149224

>  <LabuteASA>  (58) 
227.010661

>  <PEOE_VSA1>  (58) 
39.367852

>  <PEOE_VSA10>  (58) 
12.54868

>  <PEOE_VSA11>  (58) 
40.302533

>  <PEOE_VSA12>  (58) 
11.697851

>  <PEOE_VSA13>  (58) 
5.90718

>  <PEOE_VSA14>  (58) 
7.822697

>  <PEOE_VSA2>  (58) 
14.218194

>  <PEOE_VSA3>  (58) 
18.92342

>  <PEOE_VSA4>  (58) 
4.983979

>  <PEOE_VSA5>  (58) 
0.0

>  <PEOE_VSA6>  (58) 
0.0

>  <PEOE_VSA7>  (58) 
25.980209

>  <PEOE_VSA8>  (58) 
17.82012

>  <PEOE_VSA9>  (58) 
27.526236

>  <SMR_VSA1>  (58) 
47.008023

>  <SMR_VSA10>  (58) 
42.819191

>  <SMR_VSA2>  (58) 
0.0

>  <SMR_VSA3>  (58) 
14.951936

>  <SMR_VSA4>  (58) 
0.0

>  <SMR_VSA5>  (58) 
19.448525

>  <SMR_VSA6>  (58) 
43.593696

>  <SMR_VSA7>  (58) 
36.279533

>  <SMR_VSA8>  (58) 
0.0

>  <SMR_VSA9>  (58) 
22.998047

>  <SlogP_VSA1>  (58) 
34.480939

>  <SlogP_VSA10>  (58) 
33.479729

>  <SlogP_VSA11>  (58) 
22.998047

>  <SlogP_VSA12>  (58) 
7.822697

>  <SlogP_VSA2>  (58) 
64.307199

>  <SlogP_VSA3>  (58) 
13.883333

>  <SlogP_VSA4>  (58) 
5.817221

>  <SlogP_VSA5>  (58) 
13.847474

>  <SlogP_VSA6>  (58) 
30.462312

>  <SlogP_VSA7>  (58) 
0.0

>  <SlogP_VSA8>  (58) 
0.0

>  <SlogP_VSA9>  (58) 
0.0

>  <EState_VSA1>  (58) 
31.878965

>  <EState_VSA10>  (58) 
13.750001

>  <EState_VSA11>  (58) 
0.0

>  <EState_VSA2>  (58) 
29.151439

>  <EState_VSA3>  (58) 
22.935922

>  <EState_VSA4>  (58) 
11.096753

>  <EState_VSA5>  (58) 
47.309601

>  <EState_VSA6>  (58) 
12.132734

>  <EState_VSA7>  (58) 
0.0

>  <EState_VSA8>  (58) 
30.10926

>  <EState_VSA9>  (58) 
28.734275

>  <VSA_EState1>  (58) 
52.11159

>  <VSA_EState10>  (58) 
0.0

>  <VSA_EState2>  (58) 
44.407006

>  <VSA_EState3>  (58) 
5.638395

>  <VSA_EState4>  (58) 
-0.910602

>  <VSA_EState5>  (58) 
-0.550024

>  <VSA_EState6>  (58) 
6.121115

>  <VSA_EState7>  (58) 
0.933924

>  <VSA_EState8>  (58) 
2.158214

>  <VSA_EState9>  (58) 
-0.520728

>  <FractionCSP3>  (58) 
0.304348

>  <HeavyAtomCount>  (58) 
40

>  <NHOHCount>  (58) 
4

>  <NOCount>  (58) 
15

>  <NumAliphaticCarbocycles>  (58) 
0

>  <NumAliphaticHeterocycles>  (58) 
1

>  <NumAliphaticRings>  (58) 
1

>  <NumAromaticCarbocycles>  (58) 
1

>  <NumAromaticHeterocycles>  (58) 
2

>  <NumAromaticRings>  (58) 
3

>  <NumHAcceptors>  (58) 
12

>  <NumHDonors>  (58) 
4

>  <NumHeteroatoms>  (58) 
17

>  <NumRotatableBonds>  (58) 
10

>  <NumSaturatedCarbocycles>  (58) 
0

>  <NumSaturatedHeterocycles>  (58) 
0

>  <NumSaturatedRings>  (58) 
0

>  <RingCount>  (58) 
4

>  <MolLogP>  (58) 
3.0945

>  <MolMR>  (58) 
139.0795

>  <fr_Al_COO>  (58) 
0

>  <fr_Al_OH>  (58) 
0

>  <fr_Al_OH_noTert>  (58) 
0

>  <fr_ArN>  (58) 
0

>  <fr_Ar_COO>  (58) 
0

>  <fr_Ar_N>  (58) 
3

>  <fr_Ar_NH>  (58) 
0

>  <fr_Ar_OH>  (58) 
0

>  <fr_COO>  (58) 
0

>  <fr_COO2>  (58) 
0

>  <fr_C_O>  (58) 
1

>  <fr_C_O_noCOO>  (58) 
1

>  <fr_C_S>  (58) 
0

>  <fr_HOCCN>  (58) 
0

>  <fr_Imine>  (58) 
0

>  <fr_NH0>  (58) 
4

>  <fr_NH1>  (58) 
2

>  <fr_NH2>  (58) 
0

>  <fr_N_O>  (58) 
0

>  <fr_Ndealkylation1>  (58) 
0

>  <fr_Ndealkylation2>  (58) 
0

>  <fr_Nhpyrrole>  (58) 
0

>  <fr_SH>  (58) 
0

>  <fr_aldehyde>  (58) 
0

>  <fr_alkyl_carbamate>  (58) 
0

>  <fr_alkyl_halide>  (58) 
0

>  <fr_allylic_oxid>  (58) 
0

>  <fr_amide>  (58) 
1

>  <fr_amidine>  (58) 
0

>  <fr_aniline>  (58) 
5

>  <fr_aryl_methyl>  (58) 
0

>  <fr_azide>  (58) 
0

>  <fr_azo>  (58) 
0

>  <fr_barbitur>  (58) 
0

>  <fr_benzene>  (58) 
1

>  <fr_benzodiazepine>  (58) 
0

>  <fr_bicyclic>  (58) 
1

>  <fr_diazo>  (58) 
0

>  <fr_dihydropyridine>  (58) 
0

>  <fr_epoxide>  (58) 
0

>  <fr_ester>  (58) 
0

>  <fr_ether>  (58) 
4

>  <fr_furan>  (58) 
0

>  <fr_guanido>  (58) 
0

>  <fr_halogen>  (58) 
1

>  <fr_hdrzine>  (58) 
0

>  <fr_hdrzone>  (58) 
0

>  <fr_imidazole>  (58) 
0

>  <fr_imide>  (58) 
0

>  <fr_isocyan>  (58) 
0

>  <fr_isothiocyan>  (58) 
0

>  <fr_ketone>  (58) 
0

>  <fr_ketone_Topliss>  (58) 
0

>  <fr_lactam>  (58) 
0

>  <fr_lactone>  (58) 
0

>  <fr_methoxy>  (58) 
3

>  <fr_morpholine>  (58) 
0

>  <fr_nitrile>  (58) 
0

>  <fr_nitro>  (58) 
0

>  <fr_nitro_arom>  (58) 
0

>  <fr_nitro_arom_nonortho>  (58) 
0

>  <fr_nitroso>  (58) 
0

>  <fr_oxazole>  (58) 
0

>  <fr_oxime>  (58) 
0

>  <fr_para_hydroxylation>  (58) 
0

>  <fr_phenol>  (58) 
0

>  <fr_phenol_noOrthoHbond>  (58) 
0

>  <fr_phos_acid>  (58) 
1

>  <fr_phos_ester>  (58) 
1

>  <fr_piperdine>  (58) 
0

>  <fr_piperzine>  (58) 
0

>  <fr_priamide>  (58) 
0

>  <fr_prisulfonamd>  (58) 
0

>  <fr_pyridine>  (58) 
1

>  <fr_quatN>  (58) 
0

>  <fr_sulfide>  (58) 
0

>  <fr_sulfonamd>  (58) 
0

>  <fr_sulfone>  (58) 
0

>  <fr_term_acetylene>  (58) 
0

>  <fr_tetrazole>  (58) 
0

>  <fr_thiazole>  (58) 
0

>  <fr_thiocyan>  (58) 
0

>  <fr_thiophene>  (58) 
0

>  <fr_unbrch_alkane>  (58) 
0

>  <fr_urea>  (58) 
0

>  <NP_Likeness>  (58) 
-0.531377

$$$$
nan
     RDKit          3D

  0  0  0  0  0  0  0  0  0  0999 V3000
M  V30 BEGIN CTAB
M  V30 COUNTS 84 88 0 0 0
M  V30 BEGIN ATOM
M  V30 1 C 4.699334 -1.693786 3.973625 0
M  V30 2 C 3.469060 -2.233695 3.283282 0
M  V30 3 C 3.446705 -1.906214 1.844087 0
M  V30 4 N 3.733985 -2.838061 0.926498 0
M  V30 5 C 3.714803 -2.546519 -0.382316 0
M  V30 6 C 4.050750 -3.662643 -1.256363 0
M  V30 7 N 4.380500 -4.964971 -0.729053 0
M  V30 8 O 4.177791 -3.959727 -2.447768 0
M  V30 9 C 3.409384 -1.307114 -0.895714 0
M  V30 10 N 3.422197 -1.206813 -2.290668 0
M  V30 11 C 2.007374 -1.130664 -2.537653 0
M  V30 12 C 1.330892 0.048063 -2.219624 0
M  V30 13 C -0.045623 0.261267 -2.394528 0
M  V30 14 C -0.775791 -0.808559 -2.932212 0
M  V30 15 N -2.164022 -0.517740 -3.032211 0
M  V30 16 C -2.768351 0.810538 -2.935384 0
M  V30 17 C -3.355522 0.975251 -1.523484 0
M  V30 18 C -3.531475 -0.432766 -1.005330 0
M  V30 19 N -4.094824 -0.430267 0.271031 0
M  V30 20 C -3.380377 0.211987 1.316743 0
M  V30 21 C -4.438807 0.818354 2.252203 0
M  V30 22 N -5.438922 -0.160548 2.527300 0
M  V30 23 C -6.775518 0.222278 2.141598 0
M  V30 24 C -5.089261 -1.496624 2.145646 0
M  V30 25 C -4.739699 -1.652336 0.680532 0
M  V30 26 C -4.306662 -1.173835 -2.072278 0
M  V30 27 C -3.291436 -1.431076 -3.201970 0
M  V30 28 C -0.123394 -1.955315 -3.242639 0
M  V30 29 O -0.868133 -2.972352 -3.763594 0
M  V30 30 C -0.298228 -4.213915 -4.124144 0
M  V30 31 C 1.229251 -2.137068 -3.060339 0
M  V30 32 N 3.120655 -0.370076 0.035990 0
M  V30 33 C 3.131393 -0.633504 1.359633 0
M  V30 34 N 2.815888 0.375031 2.279636 0
M  V30 35 C 2.474547 1.709050 1.816254 0
M  V30 36 C 3.684183 2.219002 1.042763 0
M  V30 37 C 3.787358 3.721472 1.194846 0
M  V30 38 O 4.019580 4.080629 2.500423 0
M  V30 39 C 3.387824 3.302396 3.447656 0
M  V30 40 C 2.124052 2.639732 2.934398 0
M  V30 41 H 4.415252 -0.865507 4.670787 0
M  V30 42 H 5.437760 -1.338435 3.219209 0
M  V30 43 H 5.168576 -2.471096 4.620437 0
M  V30 44 H 2.581556 -1.893957 3.832488 0
M  V30 45 H 3.486347 -3.337888 3.386595 0
M  V30 46 H 5.218928 -5.259175 -0.194545 0
M  V30 47 H 5.323085 -4.777156 -0.293210 0
M  V30 48 H 4.179595 -1.187445 -3.010691 0
M  V30 49 H 1.975204 0.843471 -1.803528 0
M  V30 50 H -0.336774 1.249163 -2.075485 0
M  V30 51 H -2.029954 1.621828 -3.058023 0
M  V30 52 H -3.540646 0.987644 -3.717902 0
M  V30 53 H -2.706148 1.595074 -0.905054 0
M  V30 54 H -4.349458 1.504374 -1.564704 0
M  V30 55 H -2.493469 -0.869533 -0.989961 0
M  V30 56 H -2.838103 -0.572469 1.925908 0
M  V30 57 H -2.673782 0.959696 0.973862 0
M  V30 58 H -4.897430 1.650573 1.682540 0
M  V30 59 H -3.957047 1.245926 3.154750 0
M  V30 60 H -7.257391 -0.554822 1.520444 0
M  V30 61 H -7.395742 0.415466 3.042267 0
M  V30 62 H -6.738662 1.169326 1.577739 0
M  V30 63 H -5.943122 -2.144617 2.442809 0
M  V30 64 H -4.218974 -1.808338 2.750966 0
M  V30 65 H -5.673067 -1.820382 0.118249 0
M  V30 66 H -4.052553 -2.529852 0.621177 0
M  V30 67 H -5.094198 -0.468160 -2.408549 0
M  V30 68 H -4.799434 -2.079985 -1.727545 0
M  V30 69 H -3.786536 -1.147032 -4.148489 0
M  V30 70 H -3.038056 -2.477949 -3.281853 0
M  V30 71 H -1.017369 -4.858352 -4.676719 0
M  V30 72 H -0.002659 -4.697903 -3.153575 0
M  V30 73 H 0.625404 -4.028520 -4.700892 0
M  V30 74 H 1.729473 -3.044553 -3.308236 0
M  V30 75 H 2.807701 0.230831 3.288768 0
M  V30 76 H 1.654185 1.641526 1.053936 0
M  V30 77 H 4.597844 1.717687 1.427178 0
M  V30 78 H 3.586252 2.000725 -0.039530 0
M  V30 79 H 4.613262 4.045908 0.529681 0
M  V30 80 H 2.818663 4.149480 0.815292 0
M  V30 81 H 3.036434 4.001841 4.263084 0
M  V30 82 H 4.036953 2.555677 3.930421 0
M  V30 83 H 1.446414 3.425365 2.531049 0
M  V30 84 H 1.636495 2.149516 3.802312 0
M  V30 END ATOM
M  V30 BEGIN BOND
M  V30 1 1 1 2
M  V30 2 1 2 3
M  V30 3 2 3 4
M  V30 4 1 4 5
M  V30 5 1 5 6
M  V30 6 1 6 7
M  V30 7 2 6 8
M  V30 8 2 5 9
M  V30 9 1 9 10
M  V30 10 1 10 11
M  V30 11 2 11 12
M  V30 12 1 12 13
M  V30 13 2 13 14
M  V30 14 1 14 15
M  V30 15 1 15 16
M  V30 16 1 16 17
M  V30 17 1 17 18
M  V30 18 1 18 19
M  V30 19 1 19 20
M  V30 20 1 20 21
M  V30 21 1 21 22
M  V30 22 1 22 23
M  V30 23 1 22 24
M  V30 24 1 24 25
M  V30 25 1 18 26
M  V30 26 1 26 27
M  V30 27 1 14 28
M  V30 28 1 28 29
M  V30 29 1 29 30
M  V30 30 2 28 31
M  V30 31 1 9 32
M  V30 32 2 32 33
M  V30 33 1 33 34
M  V30 34 1 34 35
M  V30 35 1 35 36
M  V30 36 1 36 37
M  V30 37 1 37 38
M  V30 38 1 38 39
M  V30 39 1 39 40
M  V30 40 1 33 3
M  V30 41 1 40 35
M  V30 42 1 31 11
M  V30 43 1 27 15
M  V30 44 1 25 19
M  V30 45 1 1 41
M  V30 46 1 1 42
M  V30 47 1 1 43
M  V30 48 1 2 44
M  V30 49 1 2 45
M  V30 50 1 7 46
M  V30 51 1 7 47
M  V30 52 1 10 48
M  V30 53 1 12 49
M  V30 54 1 13 50
M  V30 55 1 16 51
M  V30 56 1 16 52
M  V30 57 1 17 53
M  V30 58 1 17 54
M  V30 59 1 18 55
M  V30 60 1 20 56
M  V30 61 1 20 57
M  V30 62 1 21 58
M  V30 63 1 21 59
M  V30 64 1 23 60
M  V30 65 1 23 61
M  V30 66 1 23 62
M  V30 67 1 24 63
M  V30 68 1 24 64
M  V30 69 1 25 65
M  V30 70 1 25 66
M  V30 71 1 26 67
M  V30 72 1 26 68
M  V30 73 1 27 69
M  V30 74 1 27 70
M  V30 75 1 30 71
M  V30 76 1 30 72
M  V30 77 1 30 73
M  V30 78 1 31 74
M  V30 79 1 34 75
M  V30 80 1 35 76
M  V30 81 1 36 77
M  V30 82 1 36 78
M  V30 83 1 37 79
M  V30 84 1 37 80
M  V30 85 1 39 81
M  V30 86 1 39 82
M  V30 87 1 40 83
M  V30 88 1 40 84
M  V30 END BOND
M  V30 END CTAB
M  END
>  <Dataset>  (59) 
PKIs

>  <Ligand_Instance>  (59) 
nan

>  <PDB_ID>  (59) 
nan

>  <Standardized_SMILES>  (59) 
CCc1nc(C(N)=O)c(Nc2ccc(N3CCC(N4CCN(C)CC4)CC3)c(OC)c2)nc1NC1CCOCC1

>  <Name>  (59) 
Gilteritinib

>  <Pocket>  (59) 
nan

>  <ATP_Site>  (59) 
nan

>  <Peripheral>  (59) 
nan

>  <Num_H_Atoms_ProtBoundConf>  (59) 
nan

>  <Num_Resolved_Atoms>  (59) 
nan

>  <Num_Not_Resolved_Atoms>  (59) 
nan

>  <2D_Mol_H>  (59) 
<rdkit.Chem.rdchem.Mol object at 0x72a2391407b0>

>  <MW>  (59) 
552.724

>  <HBA>  (59) 
10

>  <HBD>  (59) 
3

>  <LogP>  (59) 
2.6972

>  <NRB>  (59) 
12

>  <TPSA>  (59) 
121.11

>  <Num_Heavy_Atoms>  (59) 
40

>  <Ro5>  (59) 
[False, True, True, True, False, True]

>  <Ro5_Fulfilled>  (59) 
False

>  <Ro3>  (59) 
[False, False, True, True]

>  <Ro3_Fulfilled>  (59) 
False

>  <Fsp3>  (59) 
0.62069

>  <Fsp3_0.42>  (59) 
True

>  <Fsp3_0.45>  (59) 
True

>  <Stereogenic_Carbons>  (59) 
0

>  <C_Atoms>  (59) 
29

>  <FCStereo>  (59) 
0.0

>  <SPS>  (59) 
797

>  <nSPS>  (59) 
19.925

>  <PBF>  (59) 
1.590639

>  <PBF_0.6>  (59) 
True

>  <nPBF>  (59) 
0.039766

>  <nPBF_0.016>  (59) 
True

>  <PMI1>  (59) 
5563.692057

>  <PMI2>  (59) 
8467.228799

>  <PMI3>  (59) 
11055.739923

>  <NPR1>  (59) 
0.50324

>  <NPR2>  (59) 
0.765867

>  <Sum_NPR>  (59) 
1.269107

>  <Sum_NPR_1.07>  (59) 
True

>  <Sum_NPR_1.2>  (59) 
True

>  <MaxAbsEStateIndex>  (59) 
12.32767

>  <MaxEStateIndex>  (59) 
12.32767

>  <MinAbsEStateIndex>  (59) 
0.128148

>  <MinEStateIndex>  (59) 
-0.616553

>  <qed>  (59) 
0.42815

>  <MolWt>  (59) 
552.724

>  <HeavyAtomMolWt>  (59) 
508.372

>  <ExactMolWt>  (59) 
552.353637

>  <NumValenceElectrons>  (59) 
218

>  <NumRadicalElectrons>  (59) 
0

>  <MaxPartialCharge>  (59) 
0.270676

>  <MinPartialCharge>  (59) 
-0.494505

>  <MaxAbsPartialCharge>  (59) 
0.494505

>  <MinAbsPartialCharge>  (59) 
0.270676

>  <FpDensityMorgan1>  (59) 
1.05

>  <FpDensityMorgan2>  (59) 
1.775

>  <FpDensityMorgan3>  (59) 
2.425

>  <BCUT2D_MWHI>  (59) 
16.475255

>  <BCUT2D_MWLOW>  (59) 
10.010837

>  <BCUT2D_CHGHI>  (59) 
2.278539

>  <BCUT2D_CHGLO>  (59) 
-2.423898

>  <BCUT2D_LOGPHI>  (59) 
2.349127

>  <BCUT2D_LOGPLOW>  (59) 
-2.519401

>  <BCUT2D_MRHI>  (59) 
5.963303

>  <BCUT2D_MRLOW>  (59) 
0.09034

>  <AvgIpc>  (59) 
2.979554

>  <BalabanJ>  (59) 
1.306973

>  <BertzCT>  (59) 
1156.208374

>  <Chi0>  (59) 
28.061903

>  <Chi0n>  (59) 
24.117303

>  <Chi0v>  (59) 
24.117303

>  <Chi1>  (59) 
19.444223

>  <Chi1n>  (59) 
14.623697

>  <Chi1v>  (59) 
14.623697

>  <Chi2n>  (59) 
11.034004

>  <Chi2v>  (59) 
11.034004

>  <Chi3n>  (59) 
8.400343

>  <Chi3v>  (59) 
8.400343

>  <Chi4n>  (59) 
5.938766

>  <Chi4v>  (59) 
5.938766

>  <HallKierAlpha>  (59) 
-3.15

>  <Ipc>  (59) 
1227970973.18777

>  <Kappa1>  (59) 
28.381261

>  <Kappa2>  (59) 
13.010321

>  <Kappa3>  (59) 
6.588748

>  <LabuteASA>  (59) 
236.951929

>  <PEOE_VSA1>  (59) 
35.64079

>  <PEOE_VSA10>  (59) 
5.749512

>  <PEOE_VSA11>  (59) 
17.329654

>  <PEOE_VSA12>  (59) 
0.0

>  <PEOE_VSA13>  (59) 
5.90718

>  <PEOE_VSA14>  (59) 
0.0

>  <PEOE_VSA2>  (59) 
9.694447

>  <PEOE_VSA3>  (59) 
9.967957

>  <PEOE_VSA4>  (59) 
0.0

>  <PEOE_VSA5>  (59) 
0.0

>  <PEOE_VSA6>  (59) 
6.923737

>  <PEOE_VSA7>  (59) 
51.284514

>  <PEOE_VSA8>  (59) 
76.319737

>  <PEOE_VSA9>  (59) 
18.491112

>  <SMR_VSA1>  (59) 
14.268263

>  <SMR_VSA10>  (59) 
28.917678

>  <SMR_VSA2>  (59) 
0.0

>  <SMR_VSA3>  (59) 
19.767777

>  <SMR_VSA4>  (59) 
5.733667

>  <SMR_VSA5>  (59) 
51.111527

>  <SMR_VSA6>  (59) 
82.173259

>  <SMR_VSA7>  (59) 
29.586957

>  <SMR_VSA8>  (59) 
0.0

>  <SMR_VSA9>  (59) 
5.749512

>  <SlogP_VSA1>  (59) 
26.004017

>  <SlogP_VSA10>  (59) 
23.010498

>  <SlogP_VSA11>  (59) 
5.749512

>  <SlogP_VSA12>  (59) 
0.0

>  <SlogP_VSA2>  (59) 
104.39841

>  <SlogP_VSA3>  (59) 
11.157685

>  <SlogP_VSA4>  (59) 
0.0

>  <SlogP_VSA5>  (59) 
48.789417

>  <SlogP_VSA6>  (59) 
18.199101

>  <SlogP_VSA7>  (59) 
0.0

>  <SlogP_VSA8>  (59) 
0.0

>  <SlogP_VSA9>  (59) 
0.0

>  <EState_VSA1>  (59) 
5.90718

>  <EState_VSA10>  (59) 
4.794537

>  <EState_VSA11>  (59) 
0.0

>  <EState_VSA2>  (59) 
11.735769

>  <EState_VSA3>  (59) 
24.098388

>  <EState_VSA4>  (59) 
100.983801

>  <EState_VSA5>  (59) 
0.0

>  <EState_VSA6>  (59) 
7.109798

>  <EState_VSA7>  (59) 
19.056471

>  <EState_VSA8>  (59) 
43.431324

>  <EState_VSA9>  (59) 
20.191372

>  <VSA_EState1>  (59) 
11.311322

>  <VSA_EState10>  (59) 
0.0

>  <VSA_EState2>  (59) 
29.199494

>  <VSA_EState3>  (59) 
6.80682

>  <VSA_EState4>  (59) 
8.402951

>  <VSA_EState5>  (59) 
1.173376

>  <VSA_EState6>  (59) 
6.928952

>  <VSA_EState7>  (59) 
4.730398

>  <VSA_EState8>  (59) 
10.048291

>  <VSA_EState9>  (59) 
3.898397

>  <FractionCSP3>  (59) 
0.62069

>  <HeavyAtomCount>  (59) 
40

>  <NHOHCount>  (59) 
4

>  <NOCount>  (59) 
11

>  <NumAliphaticCarbocycles>  (59) 
0

>  <NumAliphaticHeterocycles>  (59) 
3

>  <NumAliphaticRings>  (59) 
3

>  <NumAromaticCarbocycles>  (59) 
1

>  <NumAromaticHeterocycles>  (59) 
1

>  <NumAromaticRings>  (59) 
2

>  <NumHAcceptors>  (59) 
10

>  <NumHDonors>  (59) 
3

>  <NumHeteroatoms>  (59) 
11

>  <NumRotatableBonds>  (59) 
9

>  <NumSaturatedCarbocycles>  (59) 
0

>  <NumSaturatedHeterocycles>  (59) 
3

>  <NumSaturatedRings>  (59) 
3

>  <RingCount>  (59) 
5

>  <MolLogP>  (59) 
2.6972

>  <MolMR>  (59) 
157.9733

>  <fr_Al_COO>  (59) 
0

>  <fr_Al_OH>  (59) 
0

>  <fr_Al_OH_noTert>  (59) 
0

>  <fr_ArN>  (59) 
0

>  <fr_Ar_COO>  (59) 
0

>  <fr_Ar_N>  (59) 
2

>  <fr_Ar_NH>  (59) 
0

>  <fr_Ar_OH>  (59) 
0

>  <fr_COO>  (59) 
0

>  <fr_COO2>  (59) 
0

>  <fr_C_O>  (59) 
1

>  <fr_C_O_noCOO>  (59) 
1

>  <fr_C_S>  (59) 
0

>  <fr_HOCCN>  (59) 
0

>  <fr_Imine>  (59) 
0

>  <fr_NH0>  (59) 
5

>  <fr_NH1>  (59) 
2

>  <fr_NH2>  (59) 
1

>  <fr_N_O>  (59) 
0

>  <fr_Ndealkylation1>  (59) 
1

>  <fr_Ndealkylation2>  (59) 
0

>  <fr_Nhpyrrole>  (59) 
0

>  <fr_SH>  (59) 
0

>  <fr_aldehyde>  (59) 
0

>  <fr_alkyl_carbamate>  (59) 
0

>  <fr_alkyl_halide>  (59) 
0

>  <fr_allylic_oxid>  (59) 
0

>  <fr_amide>  (59) 
1

>  <fr_amidine>  (59) 
0

>  <fr_aniline>  (59) 
4

>  <fr_aryl_methyl>  (59) 
1

>  <fr_azide>  (59) 
0

>  <fr_azo>  (59) 
0

>  <fr_barbitur>  (59) 
0

>  <fr_benzene>  (59) 
1

>  <fr_benzodiazepine>  (59) 
0

>  <fr_bicyclic>  (59) 
0

>  <fr_diazo>  (59) 
0

>  <fr_dihydropyridine>  (59) 
0

>  <fr_epoxide>  (59) 
0

>  <fr_ester>  (59) 
0

>  <fr_ether>  (59) 
2

>  <fr_furan>  (59) 
0

>  <fr_guanido>  (59) 
0

>  <fr_halogen>  (59) 
0

>  <fr_hdrzine>  (59) 
0

>  <fr_hdrzone>  (59) 
0

>  <fr_imidazole>  (59) 
0

>  <fr_imide>  (59) 
0

>  <fr_isocyan>  (59) 
0

>  <fr_isothiocyan>  (59) 
0

>  <fr_ketone>  (59) 
0

>  <fr_ketone_Topliss>  (59) 
0

>  <fr_lactam>  (59) 
0

>  <fr_lactone>  (59) 
0

>  <fr_methoxy>  (59) 
1

>  <fr_morpholine>  (59) 
0

>  <fr_nitrile>  (59) 
0

>  <fr_nitro>  (59) 
0

>  <fr_nitro_arom>  (59) 
0

>  <fr_nitro_arom_nonortho>  (59) 
0

>  <fr_nitroso>  (59) 
0

>  <fr_oxazole>  (59) 
0

>  <fr_oxime>  (59) 
0

>  <fr_para_hydroxylation>  (59) 
0

>  <fr_phenol>  (59) 
0

>  <fr_phenol_noOrthoHbond>  (59) 
0

>  <fr_phos_acid>  (59) 
0

>  <fr_phos_ester>  (59) 
0

>  <fr_piperdine>  (59) 
1

>  <fr_piperzine>  (59) 
1

>  <fr_priamide>  (59) 
1

>  <fr_prisulfonamd>  (59) 
0

>  <fr_pyridine>  (59) 
0

>  <fr_quatN>  (59) 
0

>  <fr_sulfide>  (59) 
0

>  <fr_sulfonamd>  (59) 
0

>  <fr_sulfone>  (59) 
0

>  <fr_term_acetylene>  (59) 
0

>  <fr_tetrazole>  (59) 
0

>  <fr_thiazole>  (59) 
0

>  <fr_thiocyan>  (59) 
0

>  <fr_thiophene>  (59) 
0

>  <fr_unbrch_alkane>  (59) 
0

>  <fr_urea>  (59) 
0

>  <NP_Likeness>  (59) 
-1.103638

$$$$
nan
     RDKit          3D

  0  0  0  0  0  0  0  0  0  0999 V3000
M  V30 BEGIN CTAB
M  V30 COUNTS 42 44 0 0 0
M  V30 BEGIN ATOM
M  V30 1 C -1.826974 -5.202839 0.138669 0
M  V30 2 N -1.266678 -4.327514 -0.897822 0
M  V30 3 C -1.152713 -4.671015 -2.190371 0
M  V30 4 N -0.602914 -3.634235 -2.841736 0
M  V30 5 C -0.356373 -2.618166 -1.992925 0
M  V30 6 C 0.180549 -1.326594 -2.051559 0
M  V30 7 F 0.539979 -1.035681 -3.344032 0
M  V30 8 C 0.284010 -0.522960 -0.911841 0
M  V30 9 N 0.857551 0.714594 -1.192340 0
M  V30 10 C 2.042249 1.460483 -1.172517 0
M  V30 11 C 2.122687 2.658726 -0.452821 0
M  V30 12 C 3.290270 3.384857 -0.423543 0
M  V30 13 C 4.373865 2.925621 -1.104198 0
M  V30 14 Br 5.974745 3.962253 -1.036392 0
M  V30 15 C 4.364942 1.756457 -1.831701 0
M  V30 16 C 3.166729 1.034895 -1.847267 0
M  V30 17 F 3.229333 -0.090476 -2.568155 0
M  V30 18 C -0.163643 -1.048190 0.275790 0
M  V30 19 C -0.050937 -0.184870 1.442830 0
M  V30 20 O 0.362616 0.982365 1.626315 0
M  V30 21 N -0.464065 -0.639942 2.719428 0
M  V30 22 O -0.254178 0.354535 3.634910 0
M  V30 23 C -0.647459 -0.104234 4.891016 0
M  V30 24 C -0.460868 0.955416 5.955129 0
M  V30 25 O -0.844789 0.524215 7.224255 0
M  V30 26 C -0.698997 -2.303840 0.400355 0
M  V30 27 C -0.780937 -3.061463 -0.749142 0
M  V30 28 H -1.255460 -5.105771 1.098688 0
M  V30 29 H -2.877652 -4.965247 0.376907 0
M  V30 30 H -1.711829 -6.256989 -0.193957 0
M  V30 31 H -1.452223 -5.616212 -2.622848 0
M  V30 32 H 0.098118 1.334612 -1.568711 0
M  V30 33 H 1.286915 3.059304 0.098808 0
M  V30 34 H 3.330540 4.313975 0.141971 0
M  V30 35 H 5.260404 1.443436 -2.352708 0
M  V30 36 H -0.865318 -1.584650 2.934378 0
M  V30 37 H -0.142199 -1.048400 5.172342 0
M  V30 38 H -1.737023 -0.321412 4.871560 0
M  V30 39 H -1.040431 1.865951 5.747695 0
M  V30 40 H 0.622650 1.173285 6.000980 0
M  V30 41 H -1.814146 0.706714 7.305898 0
M  V30 42 H -1.055451 -2.733540 1.320377 0
M  V30 END ATOM
M  V30 BEGIN BOND
M  V30 1 1 1 2
M  V30 2 1 2 3
M  V30 3 2 3 4
M  V30 4 1 4 5
M  V30 5 2 5 6
M  V30 6 1 6 7
M  V30 7 1 6 8
M  V30 8 1 8 9
M  V30 9 1 9 10
M  V30 10 2 10 11
M  V30 11 1 11 12
M  V30 12 2 12 13
M  V30 13 1 13 14
M  V30 14 1 13 15
M  V30 15 2 15 16
M  V30 16 1 16 17
M  V30 17 2 8 18
M  V30 18 1 18 19
M  V30 19 2 19 20
M  V30 20 1 19 21
M  V30 21 1 21 22
M  V30 22 1 22 23
M  V30 23 1 23 24
M  V30 24 1 24 25
M  V30 25 1 18 26
M  V30 26 2 26 27
M  V30 27 1 27 2
M  V30 28 1 27 5
M  V30 29 1 16 10
M  V30 30 1 1 28
M  V30 31 1 1 29
M  V30 32 1 1 30
M  V30 33 1 3 31
M  V30 34 1 9 32
M  V30 35 1 11 33
M  V30 36 1 12 34
M  V30 37 1 15 35
M  V30 38 1 21 36
M  V30 39 1 23 37
M  V30 40 1 23 38
M  V30 41 1 24 39
M  V30 42 1 24 40
M  V30 43 1 25 41
M  V30 44 1 26 42
M  V30 END BOND
M  V30 END CTAB
M  END
>  <Dataset>  (60) 
PKIs

>  <Ligand_Instance>  (60) 
nan

>  <PDB_ID>  (60) 
nan

>  <Standardized_SMILES>  (60) 
Cn1cnc2c(F)c(Nc3ccc(Br)cc3F)c(C(=O)NOCCO)cc21

>  <Name>  (60) 
Binimetinib

>  <Pocket>  (60) 
nan

>  <ATP_Site>  (60) 
nan

>  <Peripheral>  (60) 
nan

>  <Num_H_Atoms_ProtBoundConf>  (60) 
nan

>  <Num_Resolved_Atoms>  (60) 
nan

>  <Num_Not_Resolved_Atoms>  (60) 
nan

>  <2D_Mol_H>  (60) 
<rdkit.Chem.rdchem.Mol object at 0x72a239140890>

>  <MW>  (60) 
441.232

>  <HBA>  (60) 
6

>  <HBD>  (60) 
3

>  <LogP>  (60) 
3.0113

>  <NRB>  (60) 
8

>  <TPSA>  (60) 
88.41

>  <Num_Heavy_Atoms>  (60) 
27

>  <Ro5>  (60) 
[True, True, True, True, True, True]

>  <Ro5_Fulfilled>  (60) 
True

>  <Ro3>  (60) 
[False, False, True, False]

>  <Ro3_Fulfilled>  (60) 
False

>  <Fsp3>  (60) 
0.176471

>  <Fsp3_0.42>  (60) 
False

>  <Fsp3_0.45>  (60) 
False

>  <Stereogenic_Carbons>  (60) 
0

>  <C_Atoms>  (60) 
17

>  <FCStereo>  (60) 
0.0

>  <SPS>  (60) 
297

>  <nSPS>  (60) 
11.0

>  <PBF>  (60) 
0.609382

>  <PBF_0.6>  (60) 
True

>  <nPBF>  (60) 
0.02257

>  <nPBF_0.016>  (60) 
True

>  <PMI1>  (60) 
3309.870198

>  <PMI2>  (60) 
6075.316384

>  <PMI3>  (60) 
9042.634286

>  <NPR1>  (60) 
0.366029

>  <NPR2>  (60) 
0.671852

>  <Sum_NPR>  (60) 
1.037882

>  <Sum_NPR_1.07>  (60) 
False

>  <Sum_NPR_1.2>  (60) 
False

>  <MaxAbsEStateIndex>  (60) 
15.057456

>  <MaxEStateIndex>  (60) 
15.057456

>  <MinAbsEStateIndex>  (60) 
0.016011

>  <MinEStateIndex>  (60) 
-0.803031

>  <qed>  (60) 
0.40457

>  <MolWt>  (60) 
441.232

>  <HeavyAtomMolWt>  (60) 
426.112

>  <ExactMolWt>  (60) 
440.029559

>  <NumValenceElectrons>  (60) 
142

>  <NumRadicalElectrons>  (60) 
0

>  <MaxPartialCharge>  (60) 
0.27664

>  <MinPartialCharge>  (60) 
-0.393874

>  <MaxAbsPartialCharge>  (60) 
0.393874

>  <MinAbsPartialCharge>  (60) 
0.27664

>  <FpDensityMorgan1>  (60) 
1.37037

>  <FpDensityMorgan2>  (60) 
2.148148

>  <FpDensityMorgan3>  (60) 
2.851852

>  <BCUT2D_MWHI>  (60) 
79.918731

>  <BCUT2D_MWLOW>  (60) 
10.097404

>  <BCUT2D_CHGHI>  (60) 
2.220735

>  <BCUT2D_CHGLO>  (60) 
-2.1455

>  <BCUT2D_LOGPHI>  (60) 
2.317131

>  <BCUT2D_LOGPLOW>  (60) 
-2.259546

>  <BCUT2D_MRHI>  (60) 
9.103

>  <BCUT2D_MRLOW>  (60) 
0.016859

>  <AvgIpc>  (60) 
3.001695

>  <BalabanJ>  (60) 
2.086711

>  <BertzCT>  (60) 
1009.497468

>  <Chi0>  (60) 
19.551677

>  <Chi0n>  (60) 
14.092996

>  <Chi0v>  (60) 
15.678992

>  <Chi1>  (60) 
12.917923

>  <Chi1n>  (60) 
7.806307

>  <Chi1v>  (60) 
8.599305

>  <Chi2n>  (60) 
5.58874

>  <Chi2v>  (60) 
6.504415

>  <Chi3n>  (60) 
3.75408

>  <Chi3v>  (60) 
4.247331

>  <Chi4n>  (60) 
2.468536

>  <Chi4v>  (60) 
2.801685

>  <HallKierAlpha>  (60) 
-2.56

>  <Ipc>  (60) 
1278262.695803

>  <Kappa1>  (60) 
19.208503

>  <Kappa2>  (60) 
7.987972

>  <Kappa3>  (60) 
3.918157

>  <LabuteASA>  (60) 
160.590393

>  <PEOE_VSA1>  (60) 
14.990416

>  <PEOE_VSA10>  (60) 
11.333922

>  <PEOE_VSA11>  (60) 
5.817221

>  <PEOE_VSA12>  (60) 
0.0

>  <PEOE_VSA13>  (60) 
5.90718

>  <PEOE_VSA14>  (60) 
0.0

>  <PEOE_VSA2>  (60) 
9.632126

>  <PEOE_VSA3>  (60) 
19.244905

>  <PEOE_VSA4>  (60) 
0.0

>  <PEOE_VSA5>  (60) 
0.0

>  <PEOE_VSA6>  (60) 
15.929944

>  <PEOE_VSA7>  (60) 
24.265468

>  <PEOE_VSA8>  (60) 
11.520391

>  <PEOE_VSA9>  (60) 
41.996009

>  <SMR_VSA1>  (60) 
23.519483

>  <SMR_VSA10>  (60) 
44.245298

>  <SMR_VSA2>  (60) 
0.0

>  <SMR_VSA3>  (60) 
15.031175

>  <SMR_VSA4>  (60) 
7.047672

>  <SMR_VSA5>  (60) 
0.0

>  <SMR_VSA6>  (60) 
18.530553

>  <SMR_VSA7>  (60) 
52.263401

>  <SMR_VSA8>  (60) 
0.0

>  <SMR_VSA9>  (60) 
0.0

>  <SlogP_VSA1>  (60) 
10.796885

>  <SlogP_VSA10>  (60) 
20.155603

>  <SlogP_VSA11>  (60) 
0.0

>  <SlogP_VSA12>  (60) 
15.929944

>  <SlogP_VSA2>  (60) 
33.778549

>  <SlogP_VSA3>  (60) 
11.885261

>  <SlogP_VSA4>  (60) 
11.634442

>  <SlogP_VSA5>  (60) 
10.357989

>  <SlogP_VSA6>  (60) 
35.065508

>  <SlogP_VSA7>  (60) 
0.0

>  <SlogP_VSA8>  (60) 
11.033401

>  <SlogP_VSA9>  (60) 
0.0

>  <EState_VSA1>  (60) 
17.541621

>  <EState_VSA10>  (60) 
9.184952

>  <EState_VSA11>  (60) 
4.390415

>  <EState_VSA2>  (60) 
35.668689

>  <EState_VSA3>  (60) 
9.98942

>  <EState_VSA4>  (60) 
0.0

>  <EState_VSA5>  (60) 
24.526421

>  <EState_VSA6>  (60) 
17.681139

>  <EState_VSA7>  (60) 
0.0

>  <EState_VSA8>  (60) 
31.710808

>  <EState_VSA9>  (60) 
9.944116

>  <VSA_EState1>  (60) 
31.301552

>  <VSA_EState10>  (60) 
3.148753

>  <VSA_EState2>  (60) 
21.231369

>  <VSA_EState3>  (60) 
11.363564

>  <VSA_EState4>  (60) 
2.159492

>  <VSA_EState5>  (60) 
-2.193539

>  <VSA_EState6>  (60) 
5.615007

>  <VSA_EState7>  (60) 
1.404449

>  <VSA_EState8>  (60) 
-0.433634

>  <VSA_EState9>  (60) 
1.652987

>  <FractionCSP3>  (60) 
0.176471

>  <HeavyAtomCount>  (60) 
27

>  <NHOHCount>  (60) 
3

>  <NOCount>  (60) 
7

>  <NumAliphaticCarbocycles>  (60) 
0

>  <NumAliphaticHeterocycles>  (60) 
0

>  <NumAliphaticRings>  (60) 
0

>  <NumAromaticCarbocycles>  (60) 
2

>  <NumAromaticHeterocycles>  (60) 
1

>  <NumAromaticRings>  (60) 
3

>  <NumHAcceptors>  (60) 
6

>  <NumHDonors>  (60) 
3

>  <NumHeteroatoms>  (60) 
10

>  <NumRotatableBonds>  (60) 
6

>  <NumSaturatedCarbocycles>  (60) 
0

>  <NumSaturatedHeterocycles>  (60) 
0

>  <NumSaturatedRings>  (60) 
0

>  <RingCount>  (60) 
3

>  <MolLogP>  (60) 
3.0113

>  <MolMR>  (60) 
98.5587

>  <fr_Al_COO>  (60) 
0

>  <fr_Al_OH>  (60) 
1

>  <fr_Al_OH_noTert>  (60) 
1

>  <fr_ArN>  (60) 
0

>  <fr_Ar_COO>  (60) 
0

>  <fr_Ar_N>  (60) 
2

>  <fr_Ar_NH>  (60) 
0

>  <fr_Ar_OH>  (60) 
0

>  <fr_COO>  (60) 
0

>  <fr_COO2>  (60) 
0

>  <fr_C_O>  (60) 
1

>  <fr_C_O_noCOO>  (60) 
1

>  <fr_C_S>  (60) 
0

>  <fr_HOCCN>  (60) 
0

>  <fr_Imine>  (60) 
0

>  <fr_NH0>  (60) 
2

>  <fr_NH1>  (60) 
2

>  <fr_NH2>  (60) 
0

>  <fr_N_O>  (60) 
1

>  <fr_Ndealkylation1>  (60) 
0

>  <fr_Ndealkylation2>  (60) 
0

>  <fr_Nhpyrrole>  (60) 
0

>  <fr_SH>  (60) 
0

>  <fr_aldehyde>  (60) 
0

>  <fr_alkyl_carbamate>  (60) 
0

>  <fr_alkyl_halide>  (60) 
0

>  <fr_allylic_oxid>  (60) 
0

>  <fr_amide>  (60) 
1

>  <fr_amidine>  (60) 
0

>  <fr_aniline>  (60) 
2

>  <fr_aryl_methyl>  (60) 
1

>  <fr_azide>  (60) 
0

>  <fr_azo>  (60) 
0

>  <fr_barbitur>  (60) 
0

>  <fr_benzene>  (60) 
2

>  <fr_benzodiazepine>  (60) 
0

>  <fr_bicyclic>  (60) 
1

>  <fr_diazo>  (60) 
0

>  <fr_dihydropyridine>  (60) 
0

>  <fr_epoxide>  (60) 
0

>  <fr_ester>  (60) 
0

>  <fr_ether>  (60) 
0

>  <fr_furan>  (60) 
0

>  <fr_guanido>  (60) 
0

>  <fr_halogen>  (60) 
3

>  <fr_hdrzine>  (60) 
0

>  <fr_hdrzone>  (60) 
0

>  <fr_imidazole>  (60) 
1

>  <fr_imide>  (60) 
0

>  <fr_isocyan>  (60) 
0

>  <fr_isothiocyan>  (60) 
0

>  <fr_ketone>  (60) 
0

>  <fr_ketone_Topliss>  (60) 
0

>  <fr_lactam>  (60) 
0

>  <fr_lactone>  (60) 
0

>  <fr_methoxy>  (60) 
0

>  <fr_morpholine>  (60) 
0

>  <fr_nitrile>  (60) 
0

>  <fr_nitro>  (60) 
0

>  <fr_nitro_arom>  (60) 
0

>  <fr_nitro_arom_nonortho>  (60) 
0

>  <fr_nitroso>  (60) 
0

>  <fr_oxazole>  (60) 
0

>  <fr_oxime>  (60) 
0

>  <fr_para_hydroxylation>  (60) 
0

>  <fr_phenol>  (60) 
0

>  <fr_phenol_noOrthoHbond>  (60) 
0

>  <fr_phos_acid>  (60) 
0

>  <fr_phos_ester>  (60) 
0

>  <fr_piperdine>  (60) 
0

>  <fr_piperzine>  (60) 
0

>  <fr_priamide>  (60) 
0

>  <fr_prisulfonamd>  (60) 
0

>  <fr_pyridine>  (60) 
0

>  <fr_quatN>  (60) 
0

>  <fr_sulfide>  (60) 
0

>  <fr_sulfonamd>  (60) 
0

>  <fr_sulfone>  (60) 
0

>  <fr_term_acetylene>  (60) 
0

>  <fr_tetrazole>  (60) 
0

>  <fr_thiazole>  (60) 
0

>  <fr_thiocyan>  (60) 
0

>  <fr_thiophene>  (60) 
0

>  <fr_unbrch_alkane>  (60) 
0

>  <fr_urea>  (60) 
0

>  <NP_Likeness>  (60) 
-1.164549

$$$$
nan
     RDKit          3D

  0  0  0  0  0  0  0  0  0  0999 V3000
M  V30 BEGIN CTAB
M  V30 COUNTS 49 52 0 0 0
M  V30 BEGIN ATOM
M  V30 1 C -1.184843 -3.203235 3.533200 0
M  V30 2 C -0.653669 -2.649203 2.258161 0 CFG=1
M  V30 3 O 0.765693 -2.827043 2.126981 0
M  V30 4 C 1.583952 -1.943391 1.458494 0
M  V30 5 C 1.219213 -0.664804 1.178411 0
M  V30 6 C 1.844527 0.355089 0.531950 0
M  V30 7 C 3.098583 -0.006863 0.089158 0
M  V30 8 N 3.570053 -1.263830 0.317728 0
M  V30 9 C 2.845109 -2.198428 0.975323 0
M  V30 10 N 3.383839 -3.521524 1.195412 0
M  V30 11 C 1.254236 1.668818 0.278744 0
M  V30 12 C 0.062890 2.013775 -0.271549 0
M  V30 13 N 0.137388 3.380766 -0.216065 0
M  V30 14 N 1.228053 3.831716 0.299014 0
M  V30 15 C 1.538593 5.266145 0.465612 0
M  V30 16 C 1.980844 2.775658 0.633720 0
M  V30 17 C 3.257395 2.955668 1.225633 0
M  V30 18 N 4.302326 3.087215 1.711999 0
M  V30 19 C -1.168429 1.475865 -0.865720 0
M  V30 20 N -1.753702 0.352063 -0.173773 0
M  V30 21 C -2.663908 0.734204 0.890943 0
M  V30 22 C -1.815904 -1.046986 -0.084705 0
M  V30 23 O -1.046685 -0.728399 -1.020973 0
M  V30 24 C -1.849534 -2.474025 -0.030021 0
M  V30 25 C -2.441686 -3.045520 -1.108465 0
M  V30 26 C -2.570467 -4.434727 -1.213613 0
M  V30 27 C -2.039975 -5.077753 -0.130518 0
M  V30 28 F -2.142165 -6.440058 -0.187351 0
M  V30 29 C -1.433223 -4.543431 0.978447 0
M  V30 30 C -1.333277 -3.183238 1.031536 0
M  V30 31 H -0.454683 -3.933539 3.945552 0
M  V30 32 H -1.294968 -2.377369 4.286364 0
M  V30 33 H -2.196553 -3.627231 3.381686 0
M  V30 34 H -0.835490 -1.560893 2.231470 0
M  V30 35 H 0.302636 -0.276035 1.520992 0
M  V30 36 H 3.686436 0.750762 -0.443991 0
M  V30 37 H 3.081376 -4.068016 0.353888 0
M  V30 38 H 3.935872 -3.849938 1.993014 0
M  V30 39 H 1.389932 5.831581 -0.457783 0
M  V30 40 H 0.915134 5.601387 1.309834 0
M  V30 41 H 2.588333 5.342694 0.765085 0
M  V30 42 H -1.997603 2.214939 -1.011499 0
M  V30 43 H -0.922121 1.194906 -1.943467 0
M  V30 44 H -3.664334 0.289398 0.827325 0
M  V30 45 H -2.814038 1.837613 0.970129 0
M  V30 46 H -2.181425 0.445408 1.855248 0
M  V30 47 H -2.829521 -2.426247 -1.931154 0
M  V30 48 H -3.030303 -4.941203 -2.043847 0
M  V30 49 H -1.061005 -5.200190 1.759041 0
M  V30 END ATOM
M  V30 BEGIN BOND
M  V30 1 1 1 2
M  V30 2 1 2 3
M  V30 3 1 3 4
M  V30 4 1 4 5
M  V30 5 2 5 6
M  V30 6 1 6 7
M  V30 7 2 7 8
M  V30 8 1 8 9
M  V30 9 1 9 10
M  V30 10 1 6 11
M  V30 11 1 11 12
M  V30 12 2 12 13
M  V30 13 1 13 14
M  V30 14 1 14 15
M  V30 15 1 14 16
M  V30 16 1 16 17
M  V30 17 3 17 18
M  V30 18 1 12 19
M  V30 19 1 19 20
M  V30 20 1 20 21
M  V30 21 1 20 22
M  V30 22 2 22 23
M  V30 23 1 22 24
M  V30 24 2 24 25
M  V30 25 1 25 26
M  V30 26 2 26 27
M  V30 27 1 27 28
M  V30 28 1 27 29
M  V30 29 2 29 30
M  V30 30 1 30 2
M  V30 31 2 9 4
M  V30 32 2 16 11
M  V30 33 1 30 24
M  V30 34 1 1 31
M  V30 35 1 1 32
M  V30 36 1 1 33
M  V30 37 1 2 34 CFG=1
M  V30 38 1 5 35
M  V30 39 1 7 36
M  V30 40 1 10 37
M  V30 41 1 10 38
M  V30 42 1 15 39
M  V30 43 1 15 40
M  V30 44 1 15 41
M  V30 45 1 19 42
M  V30 46 1 19 43
M  V30 47 1 21 44
M  V30 48 1 21 45
M  V30 49 1 21 46
M  V30 50 1 25 47
M  V30 51 1 26 48
M  V30 52 1 29 49
M  V30 END BOND
M  V30 END CTAB
M  END
>  <Dataset>  (61) 
PKIs

>  <Ligand_Instance>  (61) 
nan

>  <PDB_ID>  (61) 
nan

>  <Standardized_SMILES>  (61) 
C[C@H]1Oc2cc(cnc2N)-c2c(nn(C)c2C#N)CN(C)C(=O)c2ccc(F)cc21

>  <Name>  (61) 
Lorlatinib

>  <Pocket>  (61) 
nan

>  <ATP_Site>  (61) 
nan

>  <Peripheral>  (61) 
nan

>  <Num_H_Atoms_ProtBoundConf>  (61) 
nan

>  <Num_Resolved_Atoms>  (61) 
nan

>  <Num_Not_Resolved_Atoms>  (61) 
nan

>  <2D_Mol_H>  (61) 
<rdkit.Chem.rdchem.Mol object at 0x72a239140970>

>  <MW>  (61) 
406.421

>  <HBA>  (61) 
7

>  <HBD>  (61) 
1

>  <LogP>  (61) 
2.80068

>  <NRB>  (61) 
4

>  <TPSA>  (61) 
110.06

>  <Num_Heavy_Atoms>  (61) 
30

>  <Ro5>  (61) 
[True, True, True, True, True, True]

>  <Ro5_Fulfilled>  (61) 
True

>  <Ro3>  (61) 
[False, False, True, True]

>  <Ro3_Fulfilled>  (61) 
False

>  <Fsp3>  (61) 
0.238095

>  <Fsp3_0.42>  (61) 
False

>  <Fsp3_0.45>  (61) 
False

>  <Stereogenic_Carbons>  (61) 
1

>  <C_Atoms>  (61) 
21

>  <FCStereo>  (61) 
0.047619

>  <SPS>  (61) 
477

>  <nSPS>  (61) 
15.9

>  <PBF>  (61) 
1.043322

>  <PBF_0.6>  (61) 
True

>  <nPBF>  (61) 
0.034777

>  <nPBF_0.016>  (61) 
True

>  <PMI1>  (61) 
1787.01733

>  <PMI2>  (61) 
4608.054595

>  <PMI3>  (61) 
5634.415512

>  <NPR1>  (61) 
0.317161

>  <NPR2>  (61) 
0.817841

>  <Sum_NPR>  (61) 
1.135002

>  <Sum_NPR_1.07>  (61) 
True

>  <Sum_NPR_1.2>  (61) 
False

>  <MaxAbsEStateIndex>  (61) 
13.969669

>  <MaxEStateIndex>  (61) 
13.969669

>  <MinAbsEStateIndex>  (61) 
0.146301

>  <MinEStateIndex>  (61) 
-0.670711

>  <qed>  (61) 
0.614697

>  <MolWt>  (61) 
406.421

>  <HeavyAtomMolWt>  (61) 
387.269

>  <ExactMolWt>  (61) 
406.155352

>  <NumValenceElectrons>  (61) 
152

>  <NumRadicalElectrons>  (61) 
0

>  <MaxPartialCharge>  (61) 
0.253873

>  <MinPartialCharge>  (61) 
-0.482111

>  <MaxAbsPartialCharge>  (61) 
0.482111

>  <MinAbsPartialCharge>  (61) 
0.253873

>  <FpDensityMorgan1>  (61) 
1.333333

>  <FpDensityMorgan2>  (61) 
2.1

>  <FpDensityMorgan3>  (61) 
2.833333

>  <BCUT2D_MWHI>  (61) 
19.142148

>  <BCUT2D_MWLOW>  (61) 
9.999115

>  <BCUT2D_CHGHI>  (61) 
2.264638

>  <BCUT2D_CHGLO>  (61) 
-2.233359

>  <BCUT2D_LOGPHI>  (61) 
2.352928

>  <BCUT2D_LOGPLOW>  (61) 
-2.282865

>  <BCUT2D_MRHI>  (61) 
5.954893

>  <BCUT2D_MRLOW>  (61) 
0.077794

>  <AvgIpc>  (61) 
3.025258

>  <BalabanJ>  (61) 
1.980104

>  <BertzCT>  (61) 
1212.936151

>  <Chi0>  (61) 
21.576621

>  <Chi0n>  (61) 
16.679088

>  <Chi0v>  (61) 
16.679088

>  <Chi1>  (61) 
14.294933

>  <Chi1n>  (61) 
9.232134

>  <Chi1v>  (61) 
9.232134

>  <Chi2n>  (61) 
7.165947

>  <Chi2v>  (61) 
7.165947

>  <Chi3n>  (61) 
5.115419

>  <Chi3v>  (61) 
5.115419

>  <Chi4n>  (61) 
3.628777

>  <Chi4v>  (61) 
3.628777

>  <HallKierAlpha>  (61) 
-3.93

>  <Ipc>  (61) 
6001876.495734

>  <Kappa1>  (61) 
19.389189

>  <Kappa2>  (61) 
7.150417

>  <Kappa3>  (61) 
3.12077

>  <LabuteASA>  (61) 
171.854143

>  <PEOE_VSA1>  (61) 
15.37044

>  <PEOE_VSA10>  (61) 
23.684337

>  <PEOE_VSA11>  (61) 
11.567375

>  <PEOE_VSA12>  (61) 
0.0

>  <PEOE_VSA13>  (61) 
5.90718

>  <PEOE_VSA14>  (61) 
0.0

>  <PEOE_VSA2>  (61) 
9.47634

>  <PEOE_VSA3>  (61) 
9.374394

>  <PEOE_VSA4>  (61) 
10.360573

>  <PEOE_VSA5>  (61) 
0.0

>  <PEOE_VSA6>  (61) 
0.0

>  <PEOE_VSA7>  (61) 
31.189205

>  <PEOE_VSA8>  (61) 
42.545994

>  <PEOE_VSA9>  (61) 
12.238684

>  <SMR_VSA1>  (61) 
13.921815

>  <SMR_VSA10>  (61) 
11.725043

>  <SMR_VSA2>  (61) 
5.261892

>  <SMR_VSA3>  (61) 
19.664373

>  <SMR_VSA4>  (61) 
7.047672

>  <SMR_VSA5>  (61) 
19.57246

>  <SMR_VSA6>  (61) 
12.781339

>  <SMR_VSA7>  (61) 
58.794292

>  <SMR_VSA8>  (61) 
0.0

>  <SMR_VSA9>  (61) 
22.945636

>  <SlogP_VSA1>  (61) 
10.47053

>  <SlogP_VSA10>  (61) 
10.208278

>  <SlogP_VSA11>  (61) 
5.749512

>  <SlogP_VSA12>  (61) 
0.0

>  <SlogP_VSA2>  (61) 
32.619225

>  <SlogP_VSA3>  (61) 
13.592428

>  <SlogP_VSA4>  (61) 
17.148334

>  <SlogP_VSA5>  (61) 
40.337

>  <SlogP_VSA6>  (61) 
30.462312

>  <SlogP_VSA7>  (61) 
0.0

>  <SlogP_VSA8>  (61) 
11.126903

>  <SlogP_VSA9>  (61) 
0.0

>  <EState_VSA1>  (61) 
11.921187

>  <EState_VSA10>  (61) 
14.446844

>  <EState_VSA11>  (61) 
0.0

>  <EState_VSA2>  (61) 
24.019311

>  <EState_VSA3>  (61) 
33.641662

>  <EState_VSA4>  (61) 
0.0

>  <EState_VSA5>  (61) 
33.977657

>  <EState_VSA6>  (61) 
27.085448

>  <EState_VSA7>  (61) 
0.0

>  <EState_VSA8>  (61) 
16.151882

>  <EState_VSA9>  (61) 
10.47053

>  <VSA_EState1>  (61) 
21.417067

>  <VSA_EState10>  (61) 
0.0

>  <VSA_EState2>  (61) 
18.843864

>  <VSA_EState3>  (61) 
14.086526

>  <VSA_EState4>  (61) 
8.718817

>  <VSA_EState5>  (61) 
-0.36903

>  <VSA_EState6>  (61) 
7.790737

>  <VSA_EState7>  (61) 
0.866408

>  <VSA_EState8>  (61) 
1.856244

>  <VSA_EState9>  (61) 
3.289368

>  <FractionCSP3>  (61) 
0.238095

>  <HeavyAtomCount>  (61) 
30

>  <NHOHCount>  (61) 
2

>  <NOCount>  (61) 
8

>  <NumAliphaticCarbocycles>  (61) 
0

>  <NumAliphaticHeterocycles>  (61) 
1

>  <NumAliphaticRings>  (61) 
1

>  <NumAromaticCarbocycles>  (61) 
1

>  <NumAromaticHeterocycles>  (61) 
2

>  <NumAromaticRings>  (61) 
3

>  <NumHAcceptors>  (61) 
7

>  <NumHDonors>  (61) 
1

>  <NumHeteroatoms>  (61) 
9

>  <NumRotatableBonds>  (61) 
0

>  <NumSaturatedCarbocycles>  (61) 
0

>  <NumSaturatedHeterocycles>  (61) 
0

>  <NumSaturatedRings>  (61) 
0

>  <RingCount>  (61) 
4

>  <MolLogP>  (61) 
2.80068

>  <MolMR>  (61) 
106.8069

>  <fr_Al_COO>  (61) 
0

>  <fr_Al_OH>  (61) 
0

>  <fr_Al_OH_noTert>  (61) 
0

>  <fr_ArN>  (61) 
1

>  <fr_Ar_COO>  (61) 
0

>  <fr_Ar_N>  (61) 
3

>  <fr_Ar_NH>  (61) 
0

>  <fr_Ar_OH>  (61) 
0

>  <fr_COO>  (61) 
0

>  <fr_COO2>  (61) 
0

>  <fr_C_O>  (61) 
1

>  <fr_C_O_noCOO>  (61) 
1

>  <fr_C_S>  (61) 
0

>  <fr_HOCCN>  (61) 
0

>  <fr_Imine>  (61) 
0

>  <fr_NH0>  (61) 
5

>  <fr_NH1>  (61) 
0

>  <fr_NH2>  (61) 
1

>  <fr_N_O>  (61) 
0

>  <fr_Ndealkylation1>  (61) 
0

>  <fr_Ndealkylation2>  (61) 
0

>  <fr_Nhpyrrole>  (61) 
0

>  <fr_SH>  (61) 
0

>  <fr_aldehyde>  (61) 
0

>  <fr_alkyl_carbamate>  (61) 
0

>  <fr_alkyl_halide>  (61) 
0

>  <fr_allylic_oxid>  (61) 
0

>  <fr_amide>  (61) 
1

>  <fr_amidine>  (61) 
0

>  <fr_aniline>  (61) 
1

>  <fr_aryl_methyl>  (61) 
1

>  <fr_azide>  (61) 
0

>  <fr_azo>  (61) 
0

>  <fr_barbitur>  (61) 
0

>  <fr_benzene>  (61) 
1

>  <fr_benzodiazepine>  (61) 
0

>  <fr_bicyclic>  (61) 
5

>  <fr_diazo>  (61) 
0

>  <fr_dihydropyridine>  (61) 
0

>  <fr_epoxide>  (61) 
0

>  <fr_ester>  (61) 
0

>  <fr_ether>  (61) 
1

>  <fr_furan>  (61) 
0

>  <fr_guanido>  (61) 
0

>  <fr_halogen>  (61) 
1

>  <fr_hdrzine>  (61) 
0

>  <fr_hdrzone>  (61) 
0

>  <fr_imidazole>  (61) 
0

>  <fr_imide>  (61) 
0

>  <fr_isocyan>  (61) 
0

>  <fr_isothiocyan>  (61) 
0

>  <fr_ketone>  (61) 
0

>  <fr_ketone_Topliss>  (61) 
0

>  <fr_lactam>  (61) 
0

>  <fr_lactone>  (61) 
0

>  <fr_methoxy>  (61) 
0

>  <fr_morpholine>  (61) 
0

>  <fr_nitrile>  (61) 
1

>  <fr_nitro>  (61) 
0

>  <fr_nitro_arom>  (61) 
0

>  <fr_nitro_arom_nonortho>  (61) 
0

>  <fr_nitroso>  (61) 
0

>  <fr_oxazole>  (61) 
0

>  <fr_oxime>  (61) 
0

>  <fr_para_hydroxylation>  (61) 
0

>  <fr_phenol>  (61) 
0

>  <fr_phenol_noOrthoHbond>  (61) 
0

>  <fr_phos_acid>  (61) 
0

>  <fr_phos_ester>  (61) 
0

>  <fr_piperdine>  (61) 
0

>  <fr_piperzine>  (61) 
0

>  <fr_priamide>  (61) 
0

>  <fr_prisulfonamd>  (61) 
0

>  <fr_pyridine>  (61) 
1

>  <fr_quatN>  (61) 
0

>  <fr_sulfide>  (61) 
0

>  <fr_sulfonamd>  (61) 
0

>  <fr_sulfone>  (61) 
0

>  <fr_term_acetylene>  (61) 
0

>  <fr_tetrazole>  (61) 
0

>  <fr_thiazole>  (61) 
0

>  <fr_thiocyan>  (61) 
0

>  <fr_thiophene>  (61) 
0

>  <fr_unbrch_alkane>  (61) 
0

>  <fr_urea>  (61) 
0

>  <NP_Likeness>  (61) 
-0.617521

$$$$
nan
     RDKit          3D

  0  0  0  0  0  0  0  0  0  0999 V3000
M  V30 BEGIN CTAB
M  V30 COUNTS 58 62 0 0 0
M  V30 BEGIN ATOM
M  V30 1 C 4.100130 -0.764985 6.496960 0
M  V30 2 C 3.990540 0.101268 5.308727 0
M  V30 3 C 3.892654 0.803199 4.312971 0
M  V30 4 C 3.758646 1.613567 3.135222 0
M  V30 5 O 3.591438 2.862128 3.283787 0
M  V30 6 N 3.813850 1.019145 1.844094 0
M  V30 7 C 4.003160 -0.409314 1.577037 0
M  V30 8 C 4.458504 -0.517357 0.158067 0
M  V30 9 C 4.443362 0.877269 -0.374796 0
M  V30 10 C 3.688814 1.753873 0.594946 0 CFG=1
M  V30 11 C 2.252343 1.818483 0.203248 0
M  V30 12 N 1.429695 0.755881 0.254522 0
M  V30 13 C 0.178895 1.119598 -0.163105 0
M  V30 14 C -0.875056 0.120121 -0.196204 0
M  V30 15 C -2.144332 0.168141 0.299925 0
M  V30 16 C -3.038344 -0.874701 0.165202 0
M  V30 17 C -2.670059 -2.030710 -0.491652 0
M  V30 18 C -3.663760 -3.098028 -0.600260 0
M  V30 19 O -4.796687 -2.901680 -0.089037 0
M  V30 20 N -3.420917 -4.334061 -1.246358 0
M  V30 21 C -4.500569 -5.263230 -1.260826 0
M  V30 22 C -4.638854 -6.186364 -0.223922 0
M  V30 23 C -5.623649 -7.131372 -0.111250 0
M  V30 24 C -6.562789 -7.149030 -1.145174 0
M  V30 25 C -6.441576 -6.235856 -2.188419 0
M  V30 26 N -5.446199 -5.329706 -2.238976 0
M  V30 27 C -1.401540 -2.156731 -1.021834 0
M  V30 28 C -0.553486 -1.080025 -0.855073 0
M  V30 29 C 0.315659 2.459034 -0.463801 0
M  V30 30 C -0.669885 3.273304 -0.932124 0
M  V30 31 N -1.981568 2.857109 -1.186323 0
M  V30 32 N -0.354540 4.564361 -1.178331 0
M  V30 33 C 0.896931 5.000504 -0.959386 0
M  V30 34 C 1.895256 4.153893 -0.480338 0
M  V30 35 N 1.575132 2.867680 -0.236796 0
M  V30 36 H 4.305631 -0.114358 7.378515 0
M  V30 37 H 4.919750 -1.506289 6.388323 0
M  V30 38 H 3.164568 -1.334017 6.670928 0
M  V30 39 H 3.057508 -0.968378 1.698376 0
M  V30 40 H 4.780164 -0.816244 2.250205 0
M  V30 41 H 5.477597 -0.984882 0.097241 0
M  V30 42 H 3.798093 -1.212102 -0.437070 0
M  V30 43 H 5.461971 1.259089 -0.585699 0
M  V30 44 H 3.854533 0.865804 -1.333661 0
M  V30 45 H 4.105661 2.775490 0.655168 0
M  V30 46 H -2.418385 1.057667 0.816389 0
M  V30 47 H -4.028168 -0.747075 0.592102 0
M  V30 48 H -2.488187 -4.516689 -1.676645 0
M  V30 49 H -3.883794 -6.144179 0.571167 0
M  V30 50 H -5.633988 -7.799728 0.740541 0
M  V30 51 H -7.358448 -7.886279 -1.088073 0
M  V30 52 H -7.181617 -6.269774 -2.977327 0
M  V30 53 H -1.093951 -3.038617 -1.532588 0
M  V30 54 H 0.449512 -1.216698 -1.290926 0
M  V30 55 H -2.863702 3.124249 -0.662120 0
M  V30 56 H -2.306285 2.205783 -1.946009 0
M  V30 57 H 1.214317 6.028085 -1.137513 0
M  V30 58 H 2.910628 4.475884 -0.294781 0
M  V30 END ATOM
M  V30 BEGIN BOND
M  V30 1 1 1 2
M  V30 2 3 2 3
M  V30 3 1 3 4
M  V30 4 2 4 5
M  V30 5 1 4 6
M  V30 6 1 6 7
M  V30 7 1 7 8
M  V30 8 1 8 9
M  V30 9 1 9 10
M  V30 10 1 10 11
M  V30 11 2 11 12
M  V30 12 1 12 13
M  V30 13 1 13 14
M  V30 14 2 14 15
M  V30 15 1 15 16
M  V30 16 2 16 17
M  V30 17 1 17 18
M  V30 18 2 18 19
M  V30 19 1 18 20
M  V30 20 1 20 21
M  V30 21 2 21 22
M  V30 22 1 22 23
M  V30 23 2 23 24
M  V30 24 1 24 25
M  V30 25 2 25 26
M  V30 26 1 17 27
M  V30 27 2 27 28
M  V30 28 2 13 29
M  V30 29 1 29 30
M  V30 30 1 30 31
M  V30 31 2 30 32
M  V30 32 1 32 33
M  V30 33 2 33 34
M  V30 34 1 34 35
M  V30 35 1 10 6
M  V30 36 1 35 11
M  V30 37 1 28 14
M  V30 38 1 35 29
M  V30 39 1 26 21
M  V30 40 1 1 36
M  V30 41 1 1 37
M  V30 42 1 1 38
M  V30 43 1 7 39
M  V30 44 1 7 40
M  V30 45 1 8 41
M  V30 46 1 8 42
M  V30 47 1 9 43
M  V30 48 1 9 44
M  V30 49 1 10 45 CFG=1
M  V30 50 1 15 46
M  V30 51 1 16 47
M  V30 52 1 20 48
M  V30 53 1 22 49
M  V30 54 1 23 50
M  V30 55 1 24 51
M  V30 56 1 25 52
M  V30 57 1 27 53
M  V30 58 1 28 54
M  V30 59 1 31 55
M  V30 60 1 31 56
M  V30 61 1 33 57
M  V30 62 1 34 58
M  V30 END BOND
M  V30 END CTAB
M  END
>  <Dataset>  (62) 
PKIs

>  <Ligand_Instance>  (62) 
nan

>  <PDB_ID>  (62) 
nan

>  <Standardized_SMILES>  (62) 
CC#CC(=O)N1CCC[C@H]1c1nc(-c2ccc(C(=O)Nc3ccccn3)cc2)c2c(N)nccn12

>  <Name>  (62) 
Acalabrutinib

>  <Pocket>  (62) 
nan

>  <ATP_Site>  (62) 
nan

>  <Peripheral>  (62) 
nan

>  <Num_H_Atoms_ProtBoundConf>  (62) 
nan

>  <Num_Resolved_Atoms>  (62) 
nan

>  <Num_Not_Resolved_Atoms>  (62) 
nan

>  <2D_Mol_H>  (62) 
<rdkit.Chem.rdchem.Mol object at 0x72a239140a50>

>  <MW>  (62) 
465.517

>  <HBA>  (62) 
7

>  <HBD>  (62) 
2

>  <LogP>  (62) 
3.3126

>  <NRB>  (62) 
5

>  <TPSA>  (62) 
118.51

>  <Num_Heavy_Atoms>  (62) 
35

>  <Ro5>  (62) 
[True, True, True, True, True, True]

>  <Ro5_Fulfilled>  (62) 
True

>  <Ro3>  (62) 
[False, False, True, False]

>  <Ro3_Fulfilled>  (62) 
False

>  <Fsp3>  (62) 
0.192308

>  <Fsp3_0.42>  (62) 
False

>  <Fsp3_0.45>  (62) 
False

>  <Stereogenic_Carbons>  (62) 
1

>  <C_Atoms>  (62) 
26

>  <FCStereo>  (62) 
0.038462

>  <SPS>  (62) 
525

>  <nSPS>  (62) 
15.0

>  <PBF>  (62) 
1.167166

>  <PBF_0.6>  (62) 
True

>  <nPBF>  (62) 
0.033348

>  <nPBF_0.016>  (62) 
True

>  <PMI1>  (62) 
2993.234816

>  <PMI2>  (62) 
10624.059263

>  <PMI3>  (62) 
12428.669168

>  <NPR1>  (62) 
0.240833

>  <NPR2>  (62) 
0.854803

>  <Sum_NPR>  (62) 
1.095636

>  <Sum_NPR_1.07>  (62) 
True

>  <Sum_NPR_1.2>  (62) 
False

>  <MaxAbsEStateIndex>  (62) 
12.610319

>  <MaxEStateIndex>  (62) 
12.610319

>  <MinAbsEStateIndex>  (62) 
0.20963

>  <MinEStateIndex>  (62) 
-0.260221

>  <qed>  (62) 
0.446551

>  <MolWt>  (62) 
465.517

>  <HeavyAtomMolWt>  (62) 
442.333

>  <ExactMolWt>  (62) 
465.191323

>  <NumValenceElectrons>  (62) 
174

>  <NumRadicalElectrons>  (62) 
0

>  <MaxPartialCharge>  (62) 
0.298572

>  <MinPartialCharge>  (62) 
-0.381888

>  <MaxAbsPartialCharge>  (62) 
0.381888

>  <MinAbsPartialCharge>  (62) 
0.298572

>  <FpDensityMorgan1>  (62) 
1.114286

>  <FpDensityMorgan2>  (62) 
1.942857

>  <FpDensityMorgan3>  (62) 
2.685714

>  <BCUT2D_MWHI>  (62) 
16.153743

>  <BCUT2D_MWLOW>  (62) 
10.079437

>  <BCUT2D_CHGHI>  (62) 
2.332088

>  <BCUT2D_CHGLO>  (62) 
-2.210408

>  <BCUT2D_LOGPHI>  (62) 
2.359646

>  <BCUT2D_LOGPLOW>  (62) 
-2.29945

>  <BCUT2D_MRHI>  (62) 
6.037481

>  <BCUT2D_MRLOW>  (62) 
-0.125654

>  <AvgIpc>  (62) 
3.506034

>  <BalabanJ>  (62) 
1.506582

>  <BertzCT>  (62) 
1466.860286

>  <Chi0>  (62) 
24.363232

>  <Chi0n>  (62) 
19.102088

>  <Chi0v>  (62) 
19.102088

>  <Chi1>  (62) 
17.062882

>  <Chi1n>  (62) 
11.251493

>  <Chi1v>  (62) 
11.251493

>  <Chi2n>  (62) 
8.127726

>  <Chi2v>  (62) 
8.127726

>  <Chi3n>  (62) 
5.981018

>  <Chi3v>  (62) 
5.981018

>  <Chi4n>  (62) 
4.385023

>  <Chi4v>  (62) 
4.385023

>  <HallKierAlpha>  (62) 
-4.71

>  <Ipc>  (62) 
155708644.523853

>  <Kappa1>  (62) 
22.100548

>  <Kappa2>  (62) 
9.268768

>  <Kappa3>  (62) 
4.174169

>  <LabuteASA>  (62) 
201.5732

>  <PEOE_VSA1>  (62) 
15.950366

>  <PEOE_VSA10>  (62) 
28.670759

>  <PEOE_VSA11>  (62) 
0.0

>  <PEOE_VSA12>  (62) 
0.0

>  <PEOE_VSA13>  (62) 
11.814359

>  <PEOE_VSA14>  (62) 
0.0

>  <PEOE_VSA2>  (62) 
13.989769

>  <PEOE_VSA3>  (62) 
14.951936

>  <PEOE_VSA4>  (62) 
0.0

>  <PEOE_VSA5>  (62) 
0.0

>  <PEOE_VSA6>  (62) 
24.119536

>  <PEOE_VSA7>  (62) 
49.951283

>  <PEOE_VSA8>  (62) 
36.26219

>  <PEOE_VSA9>  (62) 
6.041841

>  <SMR_VSA1>  (62) 
9.589074

>  <SMR_VSA10>  (62) 
28.966786

>  <SMR_VSA2>  (62) 
0.0

>  <SMR_VSA3>  (62) 
24.25254

>  <SMR_VSA4>  (62) 
0.0

>  <SMR_VSA5>  (62) 
25.807221

>  <SMR_VSA6>  (62) 
17.595212

>  <SMR_VSA7>  (62) 
72.442956

>  <SMR_VSA8>  (62) 
0.0

>  <SMR_VSA9>  (62) 
23.098248

>  <SlogP_VSA1>  (62) 
11.050456

>  <SlogP_VSA10>  (62) 
11.635726

>  <SlogP_VSA11>  (62) 
0.0

>  <SlogP_VSA12>  (62) 
0.0

>  <SlogP_VSA2>  (62) 
42.611656

>  <SlogP_VSA3>  (62) 
4.794537

>  <SlogP_VSA4>  (62) 
11.840869

>  <SlogP_VSA5>  (62) 
41.989614

>  <SlogP_VSA6>  (62) 
61.0551

>  <SlogP_VSA7>  (62) 
0.0

>  <SlogP_VSA8>  (62) 
16.77408

>  <SlogP_VSA9>  (62) 
0.0

>  <EState_VSA1>  (62) 
0.0

>  <EState_VSA10>  (62) 
9.589074

>  <EState_VSA11>  (62) 
0.0

>  <EState_VSA2>  (62) 
17.8562

>  <EState_VSA3>  (62) 
40.778967

>  <EState_VSA4>  (62) 
18.405095

>  <EState_VSA5>  (62) 
0.0

>  <EState_VSA6>  (62) 
60.746013

>  <EState_VSA7>  (62) 
16.533429

>  <EState_VSA8>  (62) 
27.125614

>  <EState_VSA9>  (62) 
10.717646

>  <VSA_EState1>  (62) 
1.897817

>  <VSA_EState10>  (62) 
0.0

>  <VSA_EState2>  (62) 
40.250295

>  <VSA_EState3>  (62) 
2.774838

>  <VSA_EState4>  (62) 
8.840061

>  <VSA_EState5>  (62) 
6.386874

>  <VSA_EState6>  (62) 
12.211814

>  <VSA_EState7>  (62) 
6.692141

>  <VSA_EState8>  (62) 
2.279493

>  <VSA_EState9>  (62) 
0.0

>  <FractionCSP3>  (62) 
0.192308

>  <HeavyAtomCount>  (62) 
35

>  <NHOHCount>  (62) 
3

>  <NOCount>  (62) 
9

>  <NumAliphaticCarbocycles>  (62) 
0

>  <NumAliphaticHeterocycles>  (62) 
1

>  <NumAliphaticRings>  (62) 
1

>  <NumAromaticCarbocycles>  (62) 
1

>  <NumAromaticHeterocycles>  (62) 
3

>  <NumAromaticRings>  (62) 
4

>  <NumHAcceptors>  (62) 
7

>  <NumHDonors>  (62) 
2

>  <NumHeteroatoms>  (62) 
9

>  <NumRotatableBonds>  (62) 
4

>  <NumSaturatedCarbocycles>  (62) 
0

>  <NumSaturatedHeterocycles>  (62) 
1

>  <NumSaturatedRings>  (62) 
1

>  <RingCount>  (62) 
5

>  <MolLogP>  (62) 
3.3126

>  <MolMR>  (62) 
132.1636

>  <fr_Al_COO>  (62) 
0

>  <fr_Al_OH>  (62) 
0

>  <fr_Al_OH_noTert>  (62) 
0

>  <fr_ArN>  (62) 
1

>  <fr_Ar_COO>  (62) 
0

>  <fr_Ar_N>  (62) 
4

>  <fr_Ar_NH>  (62) 
0

>  <fr_Ar_OH>  (62) 
0

>  <fr_COO>  (62) 
0

>  <fr_COO2>  (62) 
0

>  <fr_C_O>  (62) 
2

>  <fr_C_O_noCOO>  (62) 
2

>  <fr_C_S>  (62) 
0

>  <fr_HOCCN>  (62) 
0

>  <fr_Imine>  (62) 
0

>  <fr_NH0>  (62) 
5

>  <fr_NH1>  (62) 
1

>  <fr_NH2>  (62) 
1

>  <fr_N_O>  (62) 
0

>  <fr_Ndealkylation1>  (62) 
0

>  <fr_Ndealkylation2>  (62) 
1

>  <fr_Nhpyrrole>  (62) 
0

>  <fr_SH>  (62) 
0

>  <fr_aldehyde>  (62) 
0

>  <fr_alkyl_carbamate>  (62) 
0

>  <fr_alkyl_halide>  (62) 
0

>  <fr_allylic_oxid>  (62) 
0

>  <fr_amide>  (62) 
2

>  <fr_amidine>  (62) 
0

>  <fr_aniline>  (62) 
2

>  <fr_aryl_methyl>  (62) 
0

>  <fr_azide>  (62) 
0

>  <fr_azo>  (62) 
0

>  <fr_barbitur>  (62) 
0

>  <fr_benzene>  (62) 
1

>  <fr_benzodiazepine>  (62) 
0

>  <fr_bicyclic>  (62) 
1

>  <fr_diazo>  (62) 
0

>  <fr_dihydropyridine>  (62) 
0

>  <fr_epoxide>  (62) 
0

>  <fr_ester>  (62) 
0

>  <fr_ether>  (62) 
0

>  <fr_furan>  (62) 
0

>  <fr_guanido>  (62) 
0

>  <fr_halogen>  (62) 
0

>  <fr_hdrzine>  (62) 
0

>  <fr_hdrzone>  (62) 
0

>  <fr_imidazole>  (62) 
1

>  <fr_imide>  (62) 
0

>  <fr_isocyan>  (62) 
0

>  <fr_isothiocyan>  (62) 
0

>  <fr_ketone>  (62) 
0

>  <fr_ketone_Topliss>  (62) 
0

>  <fr_lactam>  (62) 
0

>  <fr_lactone>  (62) 
0

>  <fr_methoxy>  (62) 
0

>  <fr_morpholine>  (62) 
0

>  <fr_nitrile>  (62) 
0

>  <fr_nitro>  (62) 
0

>  <fr_nitro_arom>  (62) 
0

>  <fr_nitro_arom_nonortho>  (62) 
0

>  <fr_nitroso>  (62) 
0

>  <fr_oxazole>  (62) 
0

>  <fr_oxime>  (62) 
0

>  <fr_para_hydroxylation>  (62) 
0

>  <fr_phenol>  (62) 
0

>  <fr_phenol_noOrthoHbond>  (62) 
0

>  <fr_phos_acid>  (62) 
0

>  <fr_phos_ester>  (62) 
0

>  <fr_piperdine>  (62) 
0

>  <fr_piperzine>  (62) 
0

>  <fr_priamide>  (62) 
0

>  <fr_prisulfonamd>  (62) 
0

>  <fr_pyridine>  (62) 
1

>  <fr_quatN>  (62) 
0

>  <fr_sulfide>  (62) 
0

>  <fr_sulfonamd>  (62) 
0

>  <fr_sulfone>  (62) 
0

>  <fr_term_acetylene>  (62) 
0

>  <fr_tetrazole>  (62) 
0

>  <fr_thiazole>  (62) 
0

>  <fr_thiocyan>  (62) 
0

>  <fr_thiophene>  (62) 
0

>  <fr_unbrch_alkane>  (62) 
0

>  <fr_urea>  (62) 
0

>  <NP_Likeness>  (62) 
-0.950666

$$$$
nan
     RDKit          3D

  0  0  0  0  0  0  0  0  0  0999 V3000
M  V30 BEGIN CTAB
M  V30 COUNTS 43 46 0 0 0
M  V30 BEGIN ATOM
M  V30 1 C 0.199708 -5.183415 1.328017 0
M  V30 2 C 0.214952 -4.322446 0.059440 0
M  V30 3 S 1.704596 -3.416024 0.015751 0
M  V30 4 O 2.835633 -4.435358 -0.038645 0
M  V30 5 O 1.888712 -2.654899 1.297554 0
M  V30 6 N 1.890554 -2.399911 -1.333810 0
M  V30 7 C 0.942164 -1.348821 -1.519290 0
M  V30 8 C 1.933515 -0.310016 -1.082989 0
M  V30 9 C 2.036800 0.853584 -2.018050 0
M  V30 10 C 2.442142 0.512925 -3.360331 0
M  V30 11 N 2.755042 0.232317 -4.435004 0
M  V30 12 N 1.794889 0.164786 0.281152 0
M  V30 13 C 0.565781 0.286509 0.818667 0
M  V30 14 C 0.677260 0.757082 2.131471 0
M  V30 15 C -0.378531 1.044621 3.110468 0
M  V30 16 N -0.257449 0.630631 4.386543 0
M  V30 17 C -1.182176 0.857799 5.334030 0
M  V30 18 N -2.288323 1.541904 4.964758 0
M  V30 19 C -2.478937 1.986189 3.711760 0
M  V30 20 N -3.492818 2.678964 3.133724 0
M  V30 21 C -3.177371 2.870701 1.829443 0
M  V30 22 C -1.941537 2.298104 1.543439 0
M  V30 23 C -1.515361 1.748481 2.728110 0
M  V30 24 C 2.055596 0.904521 2.331427 0
M  V30 25 N 2.682738 0.535622 1.189836 0
M  V30 26 C 2.929897 -1.421407 -1.270993 0
M  V30 27 H 0.517773 -6.219062 1.125721 0
M  V30 28 H 0.906475 -4.771723 2.078300 0
M  V30 29 H -0.799265 -5.192916 1.779899 0
M  V30 30 H -0.702673 -3.715041 0.052939 0
M  V30 31 H 0.130027 -5.057826 -0.766892 0
M  V30 32 H 0.031195 -1.329631 -0.939770 0
M  V30 33 H 0.704593 -1.236269 -2.607225 0
M  V30 34 H 1.016786 1.319346 -2.082962 0
M  V30 35 H 2.677118 1.640730 -1.540549 0
M  V30 36 H -0.425713 0.098783 0.443957 0
M  V30 37 H -1.054727 0.512202 6.348616 0
M  V30 38 H -4.386045 3.028244 3.575753 0
M  V30 39 H -3.728624 3.378868 1.036003 0
M  V30 40 H -1.417158 2.278476 0.608260 0
M  V30 41 H 2.542816 1.250145 3.231860 0
M  V30 42 H 3.607932 -1.474805 -0.388045 0
M  V30 43 H 3.516981 -1.301346 -2.203554 0
M  V30 END ATOM
M  V30 BEGIN BOND
M  V30 1 1 1 2
M  V30 2 1 2 3
M  V30 3 2 3 4
M  V30 4 2 3 5
M  V30 5 1 3 6
M  V30 6 1 6 7
M  V30 7 1 7 8
M  V30 8 1 8 9
M  V30 9 1 9 10
M  V30 10 3 10 11
M  V30 11 1 8 12
M  V30 12 1 12 13
M  V30 13 2 13 14
M  V30 14 1 14 15
M  V30 15 2 15 16
M  V30 16 1 16 17
M  V30 17 2 17 18
M  V30 18 1 18 19
M  V30 19 1 19 20
M  V30 20 1 20 21
M  V30 21 2 21 22
M  V30 22 1 22 23
M  V30 23 1 14 24
M  V30 24 2 24 25
M  V30 25 1 8 26
M  V30 26 1 26 6
M  V30 27 1 25 12
M  V30 28 1 23 15
M  V30 29 2 23 19
M  V30 30 1 1 27
M  V30 31 1 1 28
M  V30 32 1 1 29
M  V30 33 1 2 30
M  V30 34 1 2 31
M  V30 35 1 7 32
M  V30 36 1 7 33
M  V30 37 1 9 34
M  V30 38 1 9 35
M  V30 39 1 13 36
M  V30 40 1 17 37
M  V30 41 1 20 38
M  V30 42 1 21 39
M  V30 43 1 22 40
M  V30 44 1 24 41
M  V30 45 1 26 42
M  V30 46 1 26 43
M  V30 END BOND
M  V30 END CTAB
M  END
>  <Dataset>  (63) 
PKIs

>  <Ligand_Instance>  (63) 
nan

>  <PDB_ID>  (63) 
nan

>  <Standardized_SMILES>  (63) 
CCS(=O)(=O)N1CC(CC#N)(n2cc(-c3ncnc4[nH]ccc34)cn2)C1

>  <Name>  (63) 
Baricitinib

>  <Pocket>  (63) 
nan

>  <ATP_Site>  (63) 
nan

>  <Peripheral>  (63) 
nan

>  <Num_H_Atoms_ProtBoundConf>  (63) 
nan

>  <Num_Resolved_Atoms>  (63) 
nan

>  <Num_Not_Resolved_Atoms>  (63) 
nan

>  <2D_Mol_H>  (63) 
<rdkit.Chem.rdchem.Mol object at 0x72a239140b30>

>  <MW>  (63) 
371.426

>  <HBA>  (63) 
7

>  <HBD>  (63) 
1

>  <LogP>  (63) 
1.09568

>  <NRB>  (63) 
6

>  <TPSA>  (63) 
120.56

>  <Num_Heavy_Atoms>  (63) 
26

>  <Ro5>  (63) 
[True, True, True, True, True, True]

>  <Ro5_Fulfilled>  (63) 
True

>  <Ro3>  (63) 
[False, False, True, True]

>  <Ro3_Fulfilled>  (63) 
False

>  <Fsp3>  (63) 
0.375

>  <Fsp3_0.42>  (63) 
False

>  <Fsp3_0.45>  (63) 
False

>  <Stereogenic_Carbons>  (63) 
0

>  <C_Atoms>  (63) 
16

>  <FCStereo>  (63) 
0.0

>  <SPS>  (63) 
444

>  <nSPS>  (63) 
17.076923

>  <PBF>  (63) 
1.135621

>  <PBF_0.6>  (63) 
True

>  <nPBF>  (63) 
0.043678

>  <nPBF_0.016>  (63) 
True

>  <PMI1>  (63) 
1763.487002

>  <PMI2>  (63) 
4156.394

>  <PMI3>  (63) 
5052.890817

>  <NPR1>  (63) 
0.349006

>  <NPR2>  (63) 
0.822577

>  <Sum_NPR>  (63) 
1.171583

>  <Sum_NPR_1.07>  (63) 
True

>  <Sum_NPR_1.2>  (63) 
False

>  <MaxAbsEStateIndex>  (63) 
12.041409

>  <MaxEStateIndex>  (63) 
12.041409

>  <MinAbsEStateIndex>  (63) 
0.048014

>  <MinEStateIndex>  (63) 
-3.267389

>  <qed>  (63) 
0.716703

>  <MolWt>  (63) 
371.426

>  <HeavyAtomMolWt>  (63) 
354.29

>  <ExactMolWt>  (63) 
371.116444

>  <NumValenceElectrons>  (63) 
134

>  <NumRadicalElectrons>  (63) 
0

>  <MaxPartialCharge>  (63) 
0.213492

>  <MinPartialCharge>  (63) 
-0.346035

>  <MaxAbsPartialCharge>  (63) 
0.346035

>  <MinAbsPartialCharge>  (63) 
0.213492

>  <FpDensityMorgan1>  (63) 
1.384615

>  <FpDensityMorgan2>  (63) 
2.192308

>  <FpDensityMorgan3>  (63) 
2.923077

>  <BCUT2D_MWHI>  (63) 
32.233383

>  <BCUT2D_MWLOW>  (63) 
9.890857

>  <BCUT2D_CHGHI>  (63) 
2.492816

>  <BCUT2D_CHGLO>  (63) 
-2.473353

>  <BCUT2D_LOGPHI>  (63) 
2.353066

>  <BCUT2D_LOGPLOW>  (63) 
-2.638873

>  <BCUT2D_MRHI>  (63) 
7.886259

>  <BCUT2D_MRLOW>  (63) 
0.071879

>  <AvgIpc>  (63) 
3.260521

>  <BalabanJ>  (63) 
1.685278

>  <BertzCT>  (63) 
1103.023545

>  <Chi0>  (63) 
18.363597

>  <Chi0n>  (63) 
14.123205

>  <Chi0v>  (63) 
14.939701

>  <Chi1>  (63) 
12.48826

>  <Chi1n>  (63) 
8.173615

>  <Chi1v>  (63) 
9.78278

>  <Chi2n>  (63) 
6.363664

>  <Chi2v>  (63) 
8.621241

>  <Chi3n>  (63) 
4.803633

>  <Chi3v>  (63) 
6.578221

>  <Chi4n>  (63) 
3.28129

>  <Chi4v>  (63) 
4.520449

>  <HallKierAlpha>  (63) 
-2.77

>  <Ipc>  (63) 
1034201.485182

>  <Kappa1>  (63) 
16.685205

>  <Kappa2>  (63) 
5.894036

>  <Kappa3>  (63) 
2.476614

>  <LabuteASA>  (63) 
149.887805

>  <PEOE_VSA1>  (63) 
4.983979

>  <PEOE_VSA10>  (63) 
17.513423

>  <PEOE_VSA11>  (63) 
0.0

>  <PEOE_VSA12>  (63) 
10.023291

>  <PEOE_VSA13>  (63) 
0.0

>  <PEOE_VSA14>  (63) 
0.0

>  <PEOE_VSA2>  (63) 
4.681803

>  <PEOE_VSA3>  (63) 
18.385754

>  <PEOE_VSA4>  (63) 
14.665789

>  <PEOE_VSA5>  (63) 
0.0

>  <PEOE_VSA6>  (63) 
0.0

>  <PEOE_VSA7>  (63) 
12.990104

>  <PEOE_VSA8>  (63) 
36.432876

>  <PEOE_VSA9>  (63) 
30.133668

>  <SMR_VSA1>  (63) 
8.417797

>  <SMR_VSA10>  (63) 
21.056693

>  <SMR_VSA2>  (63) 
5.261892

>  <SMR_VSA3>  (63) 
29.037636

>  <SMR_VSA4>  (63) 
0.0

>  <SMR_VSA5>  (63) 
18.883484

>  <SMR_VSA6>  (63) 
18.842366

>  <SMR_VSA7>  (63) 
30.984218

>  <SMR_VSA8>  (63) 
0.0

>  <SMR_VSA9>  (63) 
17.326601

>  <SlogP_VSA1>  (63) 
0.0

>  <SlogP_VSA10>  (63) 
0.0

>  <SlogP_VSA11>  (63) 
0.0

>  <SlogP_VSA12>  (63) 
0.0

>  <SlogP_VSA2>  (63) 
56.2978

>  <SlogP_VSA3>  (63) 
15.562216

>  <SlogP_VSA4>  (63) 
11.331113

>  <SlogP_VSA5>  (63) 
13.344559

>  <SlogP_VSA6>  (63) 
30.984218

>  <SlogP_VSA7>  (63) 
0.0

>  <SlogP_VSA8>  (63) 
22.290781

>  <SlogP_VSA9>  (63) 
0.0

>  <EState_VSA1>  (63) 
15.562216

>  <EState_VSA10>  (63) 
13.679689

>  <EState_VSA11>  (63) 
0.0

>  <EState_VSA2>  (63) 
25.263188

>  <EState_VSA3>  (63) 
0.0

>  <EState_VSA4>  (63) 
22.290781

>  <EState_VSA5>  (63) 
10.632536

>  <EState_VSA6>  (63) 
23.999227

>  <EState_VSA7>  (63) 
12.263211

>  <EState_VSA8>  (63) 
26.119839

>  <EState_VSA9>  (63) 
0.0

>  <VSA_EState1>  (63) 
27.18854

>  <VSA_EState10>  (63) 
0.0

>  <VSA_EState2>  (63) 
11.565567

>  <VSA_EState3>  (63) 
14.520169

>  <VSA_EState4>  (63) 
1.635117

>  <VSA_EState5>  (63) 
0.048014

>  <VSA_EState6>  (63) 
4.055353

>  <VSA_EState7>  (63) 
6.971631

>  <VSA_EState8>  (63) 
2.116332

>  <VSA_EState9>  (63) 
-3.267389

>  <FractionCSP3>  (63) 
0.375

>  <HeavyAtomCount>  (63) 
26

>  <NHOHCount>  (63) 
1

>  <NOCount>  (63) 
9

>  <NumAliphaticCarbocycles>  (63) 
0

>  <NumAliphaticHeterocycles>  (63) 
1

>  <NumAliphaticRings>  (63) 
1

>  <NumAromaticCarbocycles>  (63) 
0

>  <NumAromaticHeterocycles>  (63) 
3

>  <NumAromaticRings>  (63) 
3

>  <NumHAcceptors>  (63) 
7

>  <NumHDonors>  (63) 
1

>  <NumHeteroatoms>  (63) 
10

>  <NumRotatableBonds>  (63) 
5

>  <NumSaturatedCarbocycles>  (63) 
0

>  <NumSaturatedHeterocycles>  (63) 
1

>  <NumSaturatedRings>  (63) 
1

>  <RingCount>  (63) 
4

>  <MolLogP>  (63) 
1.09568

>  <MolMR>  (63) 
94.3475

>  <fr_Al_COO>  (63) 
0

>  <fr_Al_OH>  (63) 
0

>  <fr_Al_OH_noTert>  (63) 
0

>  <fr_ArN>  (63) 
0

>  <fr_Ar_COO>  (63) 
0

>  <fr_Ar_N>  (63) 
5

>  <fr_Ar_NH>  (63) 
1

>  <fr_Ar_OH>  (63) 
0

>  <fr_COO>  (63) 
0

>  <fr_COO2>  (63) 
0

>  <fr_C_O>  (63) 
0

>  <fr_C_O_noCOO>  (63) 
0

>  <fr_C_S>  (63) 
0

>  <fr_HOCCN>  (63) 
0

>  <fr_Imine>  (63) 
0

>  <fr_NH0>  (63) 
6

>  <fr_NH1>  (63) 
1

>  <fr_NH2>  (63) 
0

>  <fr_N_O>  (63) 
0

>  <fr_Ndealkylation1>  (63) 
0

>  <fr_Ndealkylation2>  (63) 
0

>  <fr_Nhpyrrole>  (63) 
1

>  <fr_SH>  (63) 
0

>  <fr_aldehyde>  (63) 
0

>  <fr_alkyl_carbamate>  (63) 
0

>  <fr_alkyl_halide>  (63) 
0

>  <fr_allylic_oxid>  (63) 
0

>  <fr_amide>  (63) 
0

>  <fr_amidine>  (63) 
0

>  <fr_aniline>  (63) 
0

>  <fr_aryl_methyl>  (63) 
0

>  <fr_azide>  (63) 
0

>  <fr_azo>  (63) 
0

>  <fr_barbitur>  (63) 
0

>  <fr_benzene>  (63) 
0

>  <fr_benzodiazepine>  (63) 
0

>  <fr_bicyclic>  (63) 
1

>  <fr_diazo>  (63) 
0

>  <fr_dihydropyridine>  (63) 
0

>  <fr_epoxide>  (63) 
0

>  <fr_ester>  (63) 
0

>  <fr_ether>  (63) 
0

>  <fr_furan>  (63) 
0

>  <fr_guanido>  (63) 
0

>  <fr_halogen>  (63) 
0

>  <fr_hdrzine>  (63) 
0

>  <fr_hdrzone>  (63) 
0

>  <fr_imidazole>  (63) 
0

>  <fr_imide>  (63) 
0

>  <fr_isocyan>  (63) 
0

>  <fr_isothiocyan>  (63) 
0

>  <fr_ketone>  (63) 
0

>  <fr_ketone_Topliss>  (63) 
0

>  <fr_lactam>  (63) 
0

>  <fr_lactone>  (63) 
0

>  <fr_methoxy>  (63) 
0

>  <fr_morpholine>  (63) 
0

>  <fr_nitrile>  (63) 
1

>  <fr_nitro>  (63) 
0

>  <fr_nitro_arom>  (63) 
0

>  <fr_nitro_arom_nonortho>  (63) 
0

>  <fr_nitroso>  (63) 
0

>  <fr_oxazole>  (63) 
0

>  <fr_oxime>  (63) 
0

>  <fr_para_hydroxylation>  (63) 
0

>  <fr_phenol>  (63) 
0

>  <fr_phenol_noOrthoHbond>  (63) 
0

>  <fr_phos_acid>  (63) 
0

>  <fr_phos_ester>  (63) 
0

>  <fr_piperdine>  (63) 
0

>  <fr_piperzine>  (63) 
0

>  <fr_priamide>  (63) 
0

>  <fr_prisulfonamd>  (63) 
0

>  <fr_pyridine>  (63) 
0

>  <fr_quatN>  (63) 
0

>  <fr_sulfide>  (63) 
0

>  <fr_sulfonamd>  (63) 
1

>  <fr_sulfone>  (63) 
0

>  <fr_term_acetylene>  (63) 
0

>  <fr_tetrazole>  (63) 
0

>  <fr_thiazole>  (63) 
0

>  <fr_thiocyan>  (63) 
0

>  <fr_thiophene>  (63) 
0

>  <fr_unbrch_alkane>  (63) 
0

>  <fr_urea>  (63) 
0

>  <NP_Likeness>  (63) 
-1.110023

$$$$
nan
     RDKit          3D

  0  0  0  0  0  0  0  0  0  0999 V3000
M  V30 BEGIN CTAB
M  V30 COUNTS 62 66 0 0 0
M  V30 BEGIN ATOM
M  V30 1 C 2.631461 -1.214534 5.261681 0
M  V30 2 N 3.230634 -2.401765 4.710869 0
M  V30 3 C 3.450480 -3.518926 5.613038 0
M  V30 4 C 3.641131 -2.632037 3.342711 0
M  V30 5 O 4.178903 -3.723332 2.956942 0
M  V30 6 C 3.508995 -1.691713 2.239049 0
M  V30 7 C 4.093225 -0.463918 2.012166 0
M  V30 8 C 3.585820 -0.047897 0.809415 0
M  V30 9 C 3.730882 1.054216 0.001044 0
M  V30 10 N 3.104157 1.231740 -1.165293 0
M  V30 11 C 2.242177 0.270900 -1.633422 0
M  V30 12 N 1.399129 0.098946 -2.786531 0
M  V30 13 C 0.093609 0.539957 -2.528050 0
M  V30 14 C -0.317561 1.125644 -1.357131 0
M  V30 15 C -1.605703 1.541437 -1.043536 0
M  V30 16 C -2.554863 1.334853 -2.023548 0
M  V30 17 N -3.901269 1.719532 -1.807736 0
M  V30 18 C -5.020317 1.142183 -2.566581 0
M  V30 19 C -6.065579 0.730149 -1.550241 0
M  V30 20 N -6.608962 1.928151 -0.965238 0
M  V30 21 C -5.727619 3.077259 -1.090204 0
M  V30 22 C -4.268645 2.718546 -0.826834 0
M  V30 23 C -2.132907 0.746968 -3.196257 0
M  V30 24 N -0.860647 0.340940 -3.494956 0
M  V30 25 N 2.068790 -0.822347 -0.879526 0
M  V30 26 C 2.705420 -0.986681 0.290001 0
M  V30 27 N 2.682382 -2.002880 1.213211 0
M  V30 28 C 1.850892 -3.181905 1.024003 0
M  V30 29 C 0.908652 -3.024888 -0.130440 0
M  V30 30 C -0.008123 -4.237247 0.112872 0
M  V30 31 C -0.180761 -4.233449 1.638857 0
M  V30 32 C 0.957362 -3.417908 2.196048 0
M  V30 33 H 2.334501 -0.468229 4.520113 0
M  V30 34 H 1.724773 -1.523677 5.819977 0
M  V30 35 H 3.317887 -0.774709 6.041983 0
M  V30 36 H 3.827979 -4.430420 5.100096 0
M  V30 37 H 4.232292 -3.205059 6.332392 0
M  V30 38 H 2.467494 -3.746883 6.128695 0
M  V30 39 H 4.782590 0.044468 2.633700 0
M  V30 40 H 4.379107 1.833318 0.297328 0
M  V30 41 H 1.680447 -0.290728 -3.696265 0
M  V30 42 H 0.408435 1.305472 -0.565532 0
M  V30 43 H -1.837930 1.995543 -0.096213 0
M  V30 44 H -5.351320 1.879149 -3.295986 0
M  V30 45 H -4.658408 0.232813 -3.119635 0
M  V30 46 H -6.818399 0.082920 -1.994578 0
M  V30 47 H -5.519813 0.166602 -0.762220 0
M  V30 48 H -7.510080 2.155981 -1.421603 0
M  V30 49 H -6.067795 3.837678 -0.355150 0
M  V30 50 H -5.753478 3.521245 -2.128402 0
M  V30 51 H -3.684266 3.640329 -1.090351 0
M  V30 52 H -4.073922 2.391282 0.197948 0
M  V30 53 H -2.871549 0.577445 -3.994899 0
M  V30 54 H 2.465758 -4.084541 0.852072 0
M  V30 55 H 0.312542 -2.100428 0.047465 0
M  V30 56 H 1.373050 -3.086725 -1.122132 0
M  V30 57 H -0.951437 -4.134488 -0.424472 0
M  V30 58 H 0.574637 -5.143370 -0.126368 0
M  V30 59 H -0.203414 -5.261025 2.057401 0
M  V30 60 H -1.179220 -3.796234 1.886091 0
M  V30 61 H 1.450548 -3.996704 3.006430 0
M  V30 62 H 0.536659 -2.443261 2.579439 0
M  V30 END ATOM
M  V30 BEGIN BOND
M  V30 1 1 1 2
M  V30 2 1 2 3
M  V30 3 1 2 4
M  V30 4 2 4 5
M  V30 5 1 4 6
M  V30 6 2 6 7
M  V30 7 1 7 8
M  V30 8 2 8 9
M  V30 9 1 9 10
M  V30 10 2 10 11
M  V30 11 1 11 12
M  V30 12 1 12 13
M  V30 13 2 13 14
M  V30 14 1 14 15
M  V30 15 2 15 16
M  V30 16 1 16 17
M  V30 17 1 17 18
M  V30 18 1 18 19
M  V30 19 1 19 20
M  V30 20 1 20 21
M  V30 21 1 21 22
M  V30 22 1 16 23
M  V30 23 2 23 24
M  V30 24 1 11 25
M  V30 25 2 25 26
M  V30 26 1 26 27
M  V30 27 1 27 28
M  V30 28 1 28 29
M  V30 29 1 29 30
M  V30 30 1 30 31
M  V30 31 1 31 32
M  V30 32 1 27 6
M  V30 33 1 32 28
M  V30 34 1 26 8
M  V30 35 1 24 13
M  V30 36 1 22 17
M  V30 37 1 1 33
M  V30 38 1 1 34
M  V30 39 1 1 35
M  V30 40 1 3 36
M  V30 41 1 3 37
M  V30 42 1 3 38
M  V30 43 1 7 39
M  V30 44 1 9 40
M  V30 45 1 12 41
M  V30 46 1 14 42
M  V30 47 1 15 43
M  V30 48 1 18 44
M  V30 49 1 18 45
M  V30 50 1 19 46
M  V30 51 1 19 47
M  V30 52 1 20 48
M  V30 53 1 21 49
M  V30 54 1 21 50
M  V30 55 1 22 51
M  V30 56 1 22 52
M  V30 57 1 23 53
M  V30 58 1 28 54
M  V30 59 1 29 55
M  V30 60 1 29 56
M  V30 61 1 30 57
M  V30 62 1 30 58
M  V30 63 1 31 59
M  V30 64 1 31 60
M  V30 65 1 32 61
M  V30 66 1 32 62
M  V30 END BOND
M  V30 END CTAB
M  END
>  <Dataset>  (64) 
PKIs

>  <Ligand_Instance>  (64) 
nan

>  <PDB_ID>  (64) 
nan

>  <Standardized_SMILES>  (64) 
CN(C)C(=O)c1cc2cnc(Nc3ccc(N4CCNCC4)cn3)nc2n1C1CCCC1

>  <Name>  (64) 
Ribociclib

>  <Pocket>  (64) 
nan

>  <ATP_Site>  (64) 
nan

>  <Peripheral>  (64) 
nan

>  <Num_H_Atoms_ProtBoundConf>  (64) 
nan

>  <Num_Resolved_Atoms>  (64) 
nan

>  <Num_Not_Resolved_Atoms>  (64) 
nan

>  <2D_Mol_H>  (64) 
<rdkit.Chem.rdchem.Mol object at 0x72a239140c10>

>  <MW>  (64) 
434.548

>  <HBA>  (64) 
8

>  <HBD>  (64) 
2

>  <LogP>  (64) 
2.7964

>  <NRB>  (64) 
7

>  <TPSA>  (64) 
91.21

>  <Num_Heavy_Atoms>  (64) 
32

>  <Ro5>  (64) 
[True, True, True, True, True, True]

>  <Ro5_Fulfilled>  (64) 
True

>  <Ro3>  (64) 
[False, False, True, True]

>  <Ro3_Fulfilled>  (64) 
False

>  <Fsp3>  (64) 
0.478261

>  <Fsp3_0.42>  (64) 
True

>  <Fsp3_0.45>  (64) 
True

>  <Stereogenic_Carbons>  (64) 
0

>  <C_Atoms>  (64) 
23

>  <FCStereo>  (64) 
0.0

>  <SPS>  (64) 
548

>  <nSPS>  (64) 
17.125

>  <PBF>  (64) 
1.435642

>  <PBF_0.6>  (64) 
True

>  <nPBF>  (64) 
0.044864

>  <nPBF_0.016>  (64) 
True

>  <PMI1>  (64) 
2284.866231

>  <PMI2>  (64) 
7876.733407

>  <PMI3>  (64) 
8603.36288

>  <NPR1>  (64) 
0.265578

>  <NPR2>  (64) 
0.915541

>  <Sum_NPR>  (64) 
1.181119

>  <Sum_NPR_1.07>  (64) 
True

>  <Sum_NPR_1.2>  (64) 
False

>  <MaxAbsEStateIndex>  (64) 
12.853349

>  <MaxEStateIndex>  (64) 
12.853349

>  <MinAbsEStateIndex>  (64) 
0.005021

>  <MinEStateIndex>  (64) 
-0.005021

>  <qed>  (64) 
0.638012

>  <MolWt>  (64) 
434.548

>  <HeavyAtomMolWt>  (64) 
404.308

>  <ExactMolWt>  (64) 
434.254258

>  <NumValenceElectrons>  (64) 
168

>  <NumRadicalElectrons>  (64) 
0

>  <MaxPartialCharge>  (64) 
0.269551

>  <MinPartialCharge>  (64) 
-0.36774

>  <MaxAbsPartialCharge>  (64) 
0.36774

>  <MinAbsPartialCharge>  (64) 
0.269551

>  <FpDensityMorgan1>  (64) 
1.125

>  <FpDensityMorgan2>  (64) 
1.90625

>  <FpDensityMorgan3>  (64) 
2.59375

>  <BCUT2D_MWHI>  (64) 
16.153165

>  <BCUT2D_MWLOW>  (64) 
10.211179

>  <BCUT2D_CHGHI>  (64) 
2.261291

>  <BCUT2D_CHGLO>  (64) 
-2.286464

>  <BCUT2D_LOGPHI>  (64) 
2.345027

>  <BCUT2D_LOGPLOW>  (64) 
-2.43069

>  <BCUT2D_MRHI>  (64) 
5.974793

>  <BCUT2D_MRLOW>  (64) 
0.08151

>  <AvgIpc>  (64) 
3.467871

>  <BalabanJ>  (64) 
1.433048

>  <BertzCT>  (64) 
1095.131919

>  <Chi0>  (64) 
22.078775

>  <Chi0n>  (64) 
18.712486

>  <Chi0v>  (64) 
18.712486

>  <Chi1>  (64) 
15.597357

>  <Chi1n>  (64) 
11.383445

>  <Chi1v>  (64) 
11.383445

>  <Chi2n>  (64) 
8.773685

>  <Chi2v>  (64) 
8.773685

>  <Chi3n>  (64) 
6.360895

>  <Chi3v>  (64) 
6.360895

>  <Chi4n>  (64) 
4.67869

>  <Chi4v>  (64) 
4.67869

>  <HallKierAlpha>  (64) 
-3.2

>  <Ipc>  (64) 
38961340.914428

>  <Kappa1>  (64) 
20.688757

>  <Kappa2>  (64) 
8.738937

>  <Kappa3>  (64) 
3.997802

>  <LabuteASA>  (64) 
187.396795

>  <PEOE_VSA1>  (64) 
25.000496

>  <PEOE_VSA10>  (64) 
17.158968

>  <PEOE_VSA11>  (64) 
0.0

>  <PEOE_VSA12>  (64) 
5.948339

>  <PEOE_VSA13>  (64) 
5.90718

>  <PEOE_VSA14>  (64) 
0.0

>  <PEOE_VSA2>  (64) 
4.794537

>  <PEOE_VSA3>  (64) 
9.967957

>  <PEOE_VSA4>  (64) 
4.983979

>  <PEOE_VSA5>  (64) 
0.0

>  <PEOE_VSA6>  (64) 
12.841643

>  <PEOE_VSA7>  (64) 
31.040744

>  <PEOE_VSA8>  (64) 
57.899278

>  <PEOE_VSA9>  (64) 
11.88423

>  <SMR_VSA1>  (64) 
4.794537

>  <SMR_VSA10>  (64) 
34.394169

>  <SMR_VSA2>  (64) 
0.0

>  <SMR_VSA3>  (64) 
29.735734

>  <SMR_VSA4>  (64) 
0.0

>  <SMR_VSA5>  (64) 
31.725127

>  <SMR_VSA6>  (64) 
50.491068

>  <SMR_VSA7>  (64) 
36.286716

>  <SMR_VSA8>  (64) 
0.0

>  <SMR_VSA9>  (64) 
0.0

>  <SlogP_VSA1>  (64) 
15.533487

>  <SlogP_VSA10>  (64) 
17.453588

>  <SlogP_VSA11>  (64) 
0.0

>  <SlogP_VSA12>  (64) 
0.0

>  <SlogP_VSA2>  (64) 
70.600494

>  <SlogP_VSA3>  (64) 
0.0

>  <SlogP_VSA4>  (64) 
0.0

>  <SlogP_VSA5>  (64) 
42.213592

>  <SlogP_VSA6>  (64) 
30.592788

>  <SlogP_VSA7>  (64) 
0.0

>  <SlogP_VSA8>  (64) 
11.033401

>  <SlogP_VSA9>  (64) 
0.0

>  <EState_VSA1>  (64) 
0.0

>  <EState_VSA10>  (64) 
4.794537

>  <EState_VSA11>  (64) 
0.0

>  <EState_VSA2>  (64) 
5.90718

>  <EState_VSA3>  (64) 
23.501971

>  <EState_VSA4>  (64) 
55.741457

>  <EState_VSA5>  (64) 
12.841643

>  <EState_VSA6>  (64) 
25.192097

>  <EState_VSA7>  (64) 
18.329578

>  <EState_VSA8>  (64) 
36.134911

>  <EState_VSA9>  (64) 
4.983979

>  <VSA_EState1>  (64) 
2.123457

>  <VSA_EState10>  (64) 
0.0

>  <VSA_EState2>  (64) 
30.648067

>  <VSA_EState3>  (64) 
7.48214

>  <VSA_EState4>  (64) 
2.605793

>  <VSA_EState5>  (64) 
1.182868

>  <VSA_EState6>  (64) 
6.251695

>  <VSA_EState7>  (64) 
8.177036

>  <VSA_EState8>  (64) 
3.958734

>  <VSA_EState9>  (64) 
3.570209

>  <FractionCSP3>  (64) 
0.478261

>  <HeavyAtomCount>  (64) 
32

>  <NHOHCount>  (64) 
2

>  <NOCount>  (64) 
9

>  <NumAliphaticCarbocycles>  (64) 
1

>  <NumAliphaticHeterocycles>  (64) 
1

>  <NumAliphaticRings>  (64) 
2

>  <NumAromaticCarbocycles>  (64) 
0

>  <NumAromaticHeterocycles>  (64) 
3

>  <NumAromaticRings>  (64) 
3

>  <NumHAcceptors>  (64) 
8

>  <NumHDonors>  (64) 
2

>  <NumHeteroatoms>  (64) 
9

>  <NumRotatableBonds>  (64) 
5

>  <NumSaturatedCarbocycles>  (64) 
1

>  <NumSaturatedHeterocycles>  (64) 
1

>  <NumSaturatedRings>  (64) 
2

>  <RingCount>  (64) 
5

>  <MolLogP>  (64) 
2.7964

>  <MolMR>  (64) 
125.6529

>  <fr_Al_COO>  (64) 
0

>  <fr_Al_OH>  (64) 
0

>  <fr_Al_OH_noTert>  (64) 
0

>  <fr_ArN>  (64) 
0

>  <fr_Ar_COO>  (64) 
0

>  <fr_Ar_N>  (64) 
4

>  <fr_Ar_NH>  (64) 
0

>  <fr_Ar_OH>  (64) 
0

>  <fr_COO>  (64) 
0

>  <fr_COO2>  (64) 
0

>  <fr_C_O>  (64) 
1

>  <fr_C_O_noCOO>  (64) 
1

>  <fr_C_S>  (64) 
0

>  <fr_HOCCN>  (64) 
0

>  <fr_Imine>  (64) 
0

>  <fr_NH0>  (64) 
6

>  <fr_NH1>  (64) 
2

>  <fr_NH2>  (64) 
0

>  <fr_N_O>  (64) 
0

>  <fr_Ndealkylation1>  (64) 
0

>  <fr_Ndealkylation2>  (64) 
0

>  <fr_Nhpyrrole>  (64) 
0

>  <fr_SH>  (64) 
0

>  <fr_aldehyde>  (64) 
0

>  <fr_alkyl_carbamate>  (64) 
0

>  <fr_alkyl_halide>  (64) 
0

>  <fr_allylic_oxid>  (64) 
0

>  <fr_amide>  (64) 
1

>  <fr_amidine>  (64) 
0

>  <fr_aniline>  (64) 
3

>  <fr_aryl_methyl>  (64) 
0

>  <fr_azide>  (64) 
0

>  <fr_azo>  (64) 
0

>  <fr_barbitur>  (64) 
0

>  <fr_benzene>  (64) 
0

>  <fr_benzodiazepine>  (64) 
0

>  <fr_bicyclic>  (64) 
1

>  <fr_diazo>  (64) 
0

>  <fr_dihydropyridine>  (64) 
0

>  <fr_epoxide>  (64) 
0

>  <fr_ester>  (64) 
0

>  <fr_ether>  (64) 
0

>  <fr_furan>  (64) 
0

>  <fr_guanido>  (64) 
0

>  <fr_halogen>  (64) 
0

>  <fr_hdrzine>  (64) 
0

>  <fr_hdrzone>  (64) 
0

>  <fr_imidazole>  (64) 
0

>  <fr_imide>  (64) 
0

>  <fr_isocyan>  (64) 
0

>  <fr_isothiocyan>  (64) 
0

>  <fr_ketone>  (64) 
0

>  <fr_ketone_Topliss>  (64) 
0

>  <fr_lactam>  (64) 
0

>  <fr_lactone>  (64) 
0

>  <fr_methoxy>  (64) 
0

>  <fr_morpholine>  (64) 
0

>  <fr_nitrile>  (64) 
0

>  <fr_nitro>  (64) 
0

>  <fr_nitro_arom>  (64) 
0

>  <fr_nitro_arom_nonortho>  (64) 
0

>  <fr_nitroso>  (64) 
0

>  <fr_oxazole>  (64) 
0

>  <fr_oxime>  (64) 
0

>  <fr_para_hydroxylation>  (64) 
0

>  <fr_phenol>  (64) 
0

>  <fr_phenol_noOrthoHbond>  (64) 
0

>  <fr_phos_acid>  (64) 
0

>  <fr_phos_ester>  (64) 
0

>  <fr_piperdine>  (64) 
0

>  <fr_piperzine>  (64) 
1

>  <fr_priamide>  (64) 
0

>  <fr_prisulfonamd>  (64) 
0

>  <fr_pyridine>  (64) 
1

>  <fr_quatN>  (64) 
0

>  <fr_sulfide>  (64) 
0

>  <fr_sulfonamd>  (64) 
0

>  <fr_sulfone>  (64) 
0

>  <fr_term_acetylene>  (64) 
0

>  <fr_tetrazole>  (64) 
0

>  <fr_thiazole>  (64) 
0

>  <fr_thiocyan>  (64) 
0

>  <fr_thiophene>  (64) 
0

>  <fr_unbrch_alkane>  (64) 
0

>  <fr_urea>  (64) 
0

>  <NP_Likeness>  (64) 
-1.432462

$$$$
nan
     RDKit          3D

  0  0  0  0  0  0  0  0  0  0999 V3000
M  V30 BEGIN CTAB
M  V30 COUNTS 73 81 0 0 0
M  V30 BEGIN ATOM
M  V30 1 C 2.778830 0.726575 2.813078 0
M  V30 2 O 2.026058 0.364794 1.716622 0
M  V30 3 C 0.998187 1.211210 1.395933 0 CFG=2
M  V30 4 C -0.324786 0.579550 1.771156 0 CFG=2
M  V30 5 N -0.268758 -0.817645 1.439798 0
M  V30 6 C -0.238433 -1.878479 0.462894 0
M  V30 7 C -0.231843 -1.282248 2.816834 0
M  V30 8 O -0.236830 -0.892198 4.013667 0
M  V30 9 C -0.160207 -2.711330 3.197495 0
M  V30 10 C 1.146067 -3.163497 2.982857 0
M  V30 11 C 1.499572 -4.485685 3.261843 0
M  V30 12 C 0.536649 -5.338427 3.753218 0
M  V30 13 C -0.737032 -4.894103 3.961280 0
M  V30 14 C -1.117008 -3.595051 3.695612 0
M  V30 15 C -1.498650 1.341544 1.314493 0
M  V30 16 C -1.268924 2.393412 0.263272 0 CFG=1
M  V30 17 O -0.041836 2.701642 -0.070348 0
M  V30 18 C 1.037859 1.822979 0.036171 0 CFG=1
M  V30 19 C 2.162337 2.827554 0.124464 0
M  V30 20 N 1.071846 0.910042 -1.063270 0
M  V30 21 C 2.042190 0.203496 -1.638609 0
M  V30 22 C 3.361766 0.075387 -1.279232 0
M  V30 23 C 4.282523 -0.692437 -1.952974 0
M  V30 24 C 3.879452 -1.404080 -3.085160 0
M  V30 25 C 2.555646 -1.268275 -3.434867 0
M  V30 26 C 1.645610 -0.503169 -2.761985 0
M  V30 27 C 0.306086 -0.215173 -2.897625 0
M  V30 28 C -0.629335 -0.609578 -3.829395 0
M  V30 29 C -1.928976 -0.166345 -3.755947 0
M  V30 30 C -2.274453 0.670027 -2.739175 0
M  V30 31 C -3.467702 1.237739 -2.404537 0
M  V30 32 C -4.755982 1.302329 -2.838070 0
M  V30 33 C -5.793067 2.000390 -2.260623 0
M  V30 34 C -5.485387 2.722000 -1.099755 0
M  V30 35 C -4.177503 2.692674 -0.607406 0
M  V30 36 C -3.209187 1.961415 -1.261021 0
M  V30 37 N -1.922511 1.825720 -0.939088 0
M  V30 38 C -1.309757 1.034636 -1.836303 0
M  V30 39 C 0.004773 0.617215 -1.877497 0
M  V30 40 C -2.656821 -0.726865 -4.841650 0
M  V30 41 O -3.818269 -0.683626 -5.266695 0
M  V30 42 N -1.773026 -1.536760 -5.601086 0
M  V30 43 C -0.459507 -1.508492 -5.004122 0
M  V30 44 H 3.285735 1.693105 2.767436 0
M  V30 45 H 3.575490 -0.032682 2.967784 0
M  V30 46 H 2.171884 0.665957 3.765209 0
M  V30 47 H 1.085643 2.071064 2.137052 0
M  V30 48 H -0.323074 0.595145 2.901841 0
M  V30 49 H 0.681967 -1.883476 -0.171243 0
M  V30 50 H -0.255705 -2.881865 0.930012 0
M  V30 51 H -1.165740 -1.866965 -0.176907 0
M  V30 52 H 1.997054 -2.619352 2.607275 0
M  V30 53 H 2.468563 -4.922011 3.130476 0
M  V30 54 H 0.708452 -6.378056 3.999722 0
M  V30 55 H -1.585107 -5.479711 4.347202 0
M  V30 56 H -2.053966 -3.068842 3.793124 0
M  V30 57 H -2.003131 1.888416 2.169094 0
M  V30 58 H -2.281307 0.598092 1.030574 0
M  V30 59 H -1.835803 3.326503 0.459714 0
M  V30 60 H 2.233663 3.507572 -0.738303 0
M  V30 61 H 1.791985 3.566810 0.918861 0
M  V30 62 H 3.080773 2.517958 0.591577 0
M  V30 63 H 3.707159 0.603057 -0.410521 0
M  V30 64 H 5.326154 -0.795333 -1.671576 0
M  V30 65 H 4.535664 -2.030981 -3.670865 0
M  V30 66 H 2.158449 -1.793995 -4.310026 0
M  V30 67 H -5.022405 0.767244 -3.714646 0
M  V30 68 H -6.792913 1.997355 -2.674062 0
M  V30 69 H -6.256691 3.290930 -0.597090 0
M  V30 70 H -3.936613 3.247467 0.287636 0
M  V30 71 H -1.877368 -2.118523 -6.457086 0
M  V30 72 H -0.093305 -2.510437 -4.723145 0
M  V30 73 H 0.221341 -1.008308 -5.727931 0
M  V30 END ATOM
M  V30 BEGIN BOND
M  V30 1 1 1 2
M  V30 2 1 2 3
M  V30 3 1 3 4
M  V30 4 1 4 5
M  V30 5 1 5 6
M  V30 6 1 5 7
M  V30 7 2 7 8
M  V30 8 1 7 9
M  V30 9 2 9 10
M  V30 10 1 10 11
M  V30 11 2 11 12
M  V30 12 1 12 13
M  V30 13 2 13 14
M  V30 14 1 4 15
M  V30 15 1 15 16
M  V30 16 1 16 17
M  V30 17 1 17 18
M  V30 18 1 18 19 CFG=1
M  V30 19 1 18 20
M  V30 20 1 20 21
M  V30 21 2 21 22
M  V30 22 1 22 23
M  V30 23 2 23 24
M  V30 24 1 24 25
M  V30 25 2 25 26
M  V30 26 1 26 27
M  V30 27 2 27 28
M  V30 28 1 28 29
M  V30 29 2 29 30
M  V30 30 1 30 31
M  V30 31 2 31 32
M  V30 32 1 32 33
M  V30 33 2 33 34
M  V30 34 1 34 35
M  V30 35 2 35 36
M  V30 36 1 36 37
M  V30 37 1 37 38
M  V30 38 2 38 39
M  V30 39 1 29 40
M  V30 40 2 40 41
M  V30 41 1 40 42
M  V30 42 1 42 43
M  V30 43 1 18 3
M  V30 44 1 39 20
M  V30 45 1 14 9
M  V30 46 1 37 16
M  V30 47 1 26 21
M  V30 48 1 39 27
M  V30 49 1 43 28
M  V30 50 1 38 30
M  V30 51 1 36 31
M  V30 52 1 1 44
M  V30 53 1 1 45
M  V30 54 1 1 46
M  V30 55 1 3 47 CFG=1
M  V30 56 1 4 48 CFG=1
M  V30 57 1 6 49
M  V30 58 1 6 50
M  V30 59 1 6 51
M  V30 60 1 10 52
M  V30 61 1 11 53
M  V30 62 1 12 54
M  V30 63 1 13 55
M  V30 64 1 14 56
M  V30 65 1 15 57
M  V30 66 1 15 58
M  V30 67 1 16 59 CFG=1
M  V30 68 1 19 60
M  V30 69 1 19 61
M  V30 70 1 19 62
M  V30 71 1 22 63
M  V30 72 1 23 64
M  V30 73 1 24 65
M  V30 74 1 25 66
M  V30 75 1 32 67
M  V30 76 1 33 68
M  V30 77 1 34 69
M  V30 78 1 35 70
M  V30 79 1 42 71
M  V30 80 1 43 72
M  V30 81 1 43 73
M  V30 END BOND
M  V30 END CTAB
M  END
>  <Dataset>  (65) 
PKIs

>  <Ligand_Instance>  (65) 
nan

>  <PDB_ID>  (65) 
nan

>  <Standardized_SMILES>  (65) 
CO[C@@H]1[C@H](N(C)C(=O)c2ccccc2)C[C@H]2O[C@]1(C)n1c3ccccc3c3c4c(c5c6ccccc6n2c5c31)C(=O)NC4

>  <Name>  (65) 
Midostaurin

>  <Pocket>  (65) 
nan

>  <ATP_Site>  (65) 
nan

>  <Peripheral>  (65) 
nan

>  <Num_H_Atoms_ProtBoundConf>  (65) 
nan

>  <Num_Resolved_Atoms>  (65) 
nan

>  <Num_Not_Resolved_Atoms>  (65) 
nan

>  <2D_Mol_H>  (65) 
<rdkit.Chem.rdchem.Mol object at 0x72a239140cf0>

>  <MW>  (65) 
570.649

>  <HBA>  (65) 
6

>  <HBD>  (65) 
1

>  <LogP>  (65) 
5.9068

>  <NRB>  (65) 
6

>  <TPSA>  (65) 
77.73

>  <Num_Heavy_Atoms>  (65) 
43

>  <Ro5>  (65) 
[False, True, True, False, True, True]

>  <Ro5_Fulfilled>  (65) 
False

>  <Ro3>  (65) 
[False, False, True, False]

>  <Ro3_Fulfilled>  (65) 
False

>  <Fsp3>  (65) 
0.257143

>  <Fsp3_0.42>  (65) 
False

>  <Fsp3_0.45>  (65) 
False

>  <Stereogenic_Carbons>  (65) 
4

>  <C_Atoms>  (65) 
35

>  <FCStereo>  (65) 
0.114286

>  <SPS>  (65) 
1039

>  <nSPS>  (65) 
24.162791

>  <PBF>  (65) 
1.769831

>  <PBF_0.6>  (65) 
True

>  <nPBF>  (65) 
0.041159

>  <nPBF_0.016>  (65) 
True

>  <PMI1>  (65) 
4672.198918

>  <PMI2>  (65) 
7389.607339

>  <PMI3>  (65) 
8272.097224

>  <NPR1>  (65) 
0.564814

>  <NPR2>  (65) 
0.893317

>  <Sum_NPR>  (65) 
1.458132

>  <Sum_NPR_1.07>  (65) 
True

>  <Sum_NPR_1.2>  (65) 
True

>  <MaxAbsEStateIndex>  (65) 
13.882905

>  <MaxEStateIndex>  (65) 
13.882905

>  <MinAbsEStateIndex>  (65) 
0.044612

>  <MinEStateIndex>  (65) 
-0.979914

>  <qed>  (65) 
0.287218

>  <MolWt>  (65) 
570.649

>  <HeavyAtomMolWt>  (65) 
540.409

>  <ExactMolWt>  (65) 
570.226705

>  <NumValenceElectrons>  (65) 
214

>  <NumRadicalElectrons>  (65) 
0

>  <MaxPartialCharge>  (65) 
0.253437

>  <MinPartialCharge>  (65) 
-0.374262

>  <MaxAbsPartialCharge>  (65) 
0.374262

>  <MinAbsPartialCharge>  (65) 
0.253437

>  <FpDensityMorgan1>  (65) 
0.953488

>  <FpDensityMorgan2>  (65) 
1.627907

>  <FpDensityMorgan3>  (65) 
2.372093

>  <BCUT2D_MWHI>  (65) 
16.577674

>  <BCUT2D_MWLOW>  (65) 
9.909697

>  <BCUT2D_CHGHI>  (65) 
2.545682

>  <BCUT2D_CHGLO>  (65) 
-2.501825

>  <BCUT2D_LOGPHI>  (65) 
2.53781

>  <BCUT2D_LOGPLOW>  (65) 
-2.609526

>  <BCUT2D_MRHI>  (65) 
6.305435

>  <BCUT2D_MRLOW>  (65) 
-0.263854

>  <AvgIpc>  (65) 
3.678107

>  <BalabanJ>  (65) 
1.425201

>  <BertzCT>  (65) 
2180.823323

>  <Chi0>  (65) 
29.197577

>  <Chi0n>  (65) 
24.126452

>  <Chi0v>  (65) 
24.126452

>  <Chi1>  (65) 
20.935707

>  <Chi1n>  (65) 
14.758273

>  <Chi1v>  (65) 
14.758273

>  <Chi2n>  (65) 
12.091736

>  <Chi2v>  (65) 
12.091736

>  <Chi3n>  (65) 
10.035579

>  <Chi3v>  (65) 
10.035579

>  <Chi4n>  (65) 
8.327087

>  <Chi4v>  (65) 
8.327087

>  <HallKierAlpha>  (65) 
-4.66

>  <Ipc>  (65) 
16727238355.508312

>  <Kappa1>  (65) 
24.893656

>  <Kappa2>  (65) 
8.461354

>  <Kappa3>  (65) 
2.968438

>  <LabuteASA>  (65) 
246.91012

>  <PEOE_VSA1>  (65) 
28.824624

>  <PEOE_VSA10>  (65) 
12.331868

>  <PEOE_VSA11>  (65) 
5.724986

>  <PEOE_VSA12>  (65) 
0.0

>  <PEOE_VSA13>  (65) 
11.814359

>  <PEOE_VSA14>  (65) 
0.0

>  <PEOE_VSA2>  (65) 
9.589074

>  <PEOE_VSA3>  (65) 
0.0

>  <PEOE_VSA4>  (65) 
0.0

>  <PEOE_VSA5>  (65) 
0.0

>  <PEOE_VSA6>  (65) 
54.597304

>  <PEOE_VSA7>  (65) 
36.752657

>  <PEOE_VSA8>  (65) 
54.231396

>  <PEOE_VSA9>  (65) 
33.672095

>  <SMR_VSA1>  (65) 
19.0628

>  <SMR_VSA10>  (65) 
55.426059

>  <SMR_VSA2>  (65) 
0.0

>  <SMR_VSA3>  (65) 
19.350898

>  <SMR_VSA4>  (65) 
0.0

>  <SMR_VSA5>  (65) 
43.988009

>  <SMR_VSA6>  (65) 
14.15747

>  <SMR_VSA7>  (65) 
95.553126

>  <SMR_VSA8>  (65) 
0.0

>  <SMR_VSA9>  (65) 
0.0

>  <SlogP_VSA1>  (65) 
5.316789

>  <SlogP_VSA10>  (65) 
0.0

>  <SlogP_VSA11>  (65) 
0.0

>  <SlogP_VSA12>  (65) 
0.0

>  <SlogP_VSA2>  (65) 
52.151745

>  <SlogP_VSA3>  (65) 
21.743468

>  <SlogP_VSA4>  (65) 
0.0

>  <SlogP_VSA5>  (65) 
45.851889

>  <SlogP_VSA6>  (65) 
78.862772

>  <SlogP_VSA7>  (65) 
0.0

>  <SlogP_VSA8>  (65) 
43.6117

>  <SlogP_VSA9>  (65) 
0.0

>  <EState_VSA1>  (65) 
18.056853

>  <EState_VSA10>  (65) 
9.589074

>  <EState_VSA11>  (65) 
0.0

>  <EState_VSA2>  (65) 
17.8562

>  <EState_VSA3>  (65) 
18.52903

>  <EState_VSA4>  (65) 
54.738603

>  <EState_VSA5>  (65) 
0.0

>  <EState_VSA6>  (65) 
7.109798

>  <EState_VSA7>  (65) 
66.544885

>  <EState_VSA8>  (65) 
45.640193

>  <EState_VSA9>  (65) 
9.473726

>  <VSA_EState1>  (65) 
18.146568

>  <VSA_EState10>  (65) 
0.0

>  <VSA_EState2>  (65) 
29.24937

>  <VSA_EState3>  (65) 
7.239329

>  <VSA_EState4>  (65) 
5.456172

>  <VSA_EState5>  (65) 
-0.106574

>  <VSA_EState6>  (65) 
25.685522

>  <VSA_EState7>  (65) 
-0.385781

>  <VSA_EState8>  (65) 
2.559425

>  <VSA_EState9>  (65) 
3.572636

>  <FractionCSP3>  (65) 
0.257143

>  <HeavyAtomCount>  (65) 
43

>  <NHOHCount>  (65) 
1

>  <NOCount>  (65) 
8

>  <NumAliphaticCarbocycles>  (65) 
0

>  <NumAliphaticHeterocycles>  (65) 
3

>  <NumAliphaticRings>  (65) 
3

>  <NumAromaticCarbocycles>  (65) 
4

>  <NumAromaticHeterocycles>  (65) 
2

>  <NumAromaticRings>  (65) 
6

>  <NumHAcceptors>  (65) 
6

>  <NumHDonors>  (65) 
1

>  <NumHeteroatoms>  (65) 
8

>  <NumRotatableBonds>  (65) 
3

>  <NumSaturatedCarbocycles>  (65) 
0

>  <NumSaturatedHeterocycles>  (65) 
1

>  <NumSaturatedRings>  (65) 
1

>  <RingCount>  (65) 
9

>  <MolLogP>  (65) 
5.9068

>  <MolMR>  (65) 
165.1237

>  <fr_Al_COO>  (65) 
0

>  <fr_Al_OH>  (65) 
0

>  <fr_Al_OH_noTert>  (65) 
0

>  <fr_ArN>  (65) 
0

>  <fr_Ar_COO>  (65) 
0

>  <fr_Ar_N>  (65) 
2

>  <fr_Ar_NH>  (65) 
0

>  <fr_Ar_OH>  (65) 
0

>  <fr_COO>  (65) 
0

>  <fr_COO2>  (65) 
0

>  <fr_C_O>  (65) 
2

>  <fr_C_O_noCOO>  (65) 
2

>  <fr_C_S>  (65) 
0

>  <fr_HOCCN>  (65) 
0

>  <fr_Imine>  (65) 
0

>  <fr_NH0>  (65) 
3

>  <fr_NH1>  (65) 
1

>  <fr_NH2>  (65) 
0

>  <fr_N_O>  (65) 
0

>  <fr_Ndealkylation1>  (65) 
1

>  <fr_Ndealkylation2>  (65) 
0

>  <fr_Nhpyrrole>  (65) 
0

>  <fr_SH>  (65) 
0

>  <fr_aldehyde>  (65) 
0

>  <fr_alkyl_carbamate>  (65) 
0

>  <fr_alkyl_halide>  (65) 
0

>  <fr_allylic_oxid>  (65) 
0

>  <fr_amide>  (65) 
2

>  <fr_amidine>  (65) 
0

>  <fr_aniline>  (65) 
0

>  <fr_aryl_methyl>  (65) 
0

>  <fr_azide>  (65) 
0

>  <fr_azo>  (65) 
0

>  <fr_barbitur>  (65) 
0

>  <fr_benzene>  (65) 
4

>  <fr_benzodiazepine>  (65) 
0

>  <fr_bicyclic>  (65) 
13

>  <fr_diazo>  (65) 
0

>  <fr_dihydropyridine>  (65) 
0

>  <fr_epoxide>  (65) 
0

>  <fr_ester>  (65) 
0

>  <fr_ether>  (65) 
2

>  <fr_furan>  (65) 
0

>  <fr_guanido>  (65) 
0

>  <fr_halogen>  (65) 
0

>  <fr_hdrzine>  (65) 
0

>  <fr_hdrzone>  (65) 
0

>  <fr_imidazole>  (65) 
0

>  <fr_imide>  (65) 
0

>  <fr_isocyan>  (65) 
0

>  <fr_isothiocyan>  (65) 
0

>  <fr_ketone>  (65) 
0

>  <fr_ketone_Topliss>  (65) 
0

>  <fr_lactam>  (65) 
0

>  <fr_lactone>  (65) 
0

>  <fr_methoxy>  (65) 
1

>  <fr_morpholine>  (65) 
0

>  <fr_nitrile>  (65) 
0

>  <fr_nitro>  (65) 
0

>  <fr_nitro_arom>  (65) 
0

>  <fr_nitro_arom_nonortho>  (65) 
0

>  <fr_nitroso>  (65) 
0

>  <fr_oxazole>  (65) 
0

>  <fr_oxime>  (65) 
0

>  <fr_para_hydroxylation>  (65) 
2

>  <fr_phenol>  (65) 
0

>  <fr_phenol_noOrthoHbond>  (65) 
0

>  <fr_phos_acid>  (65) 
0

>  <fr_phos_ester>  (65) 
0

>  <fr_piperdine>  (65) 
0

>  <fr_piperzine>  (65) 
0

>  <fr_priamide>  (65) 
0

>  <fr_prisulfonamd>  (65) 
0

>  <fr_pyridine>  (65) 
0

>  <fr_quatN>  (65) 
0

>  <fr_sulfide>  (65) 
0

>  <fr_sulfonamd>  (65) 
0

>  <fr_sulfone>  (65) 
0

>  <fr_term_acetylene>  (65) 
0

>  <fr_tetrazole>  (65) 
0

>  <fr_thiazole>  (65) 
0

>  <fr_thiocyan>  (65) 
0

>  <fr_thiophene>  (65) 
0

>  <fr_unbrch_alkane>  (65) 
0

>  <fr_urea>  (65) 
0

>  <NP_Likeness>  (65) 
0.662034

$$$$
nan
     RDKit          3D

  0  0  0  0  0  0  0  0  0  0999 V3000
M  V30 BEGIN CTAB
M  V30 COUNTS 79 83 0 0 0
M  V30 BEGIN ATOM
M  V30 1 C 2.247544 -0.831667 5.373830 0
M  V30 2 O 2.061959 -1.773173 4.318861 0
M  V30 3 C 0.875739 -1.711774 3.589610 0
M  V30 4 C -0.076075 -0.748408 3.904526 0
M  V30 5 C -1.252898 -0.682795 3.189684 0
M  V30 6 N -2.285093 0.299621 3.418827 0
M  V30 7 C -3.677221 0.139914 3.132114 0
M  V30 8 C -4.146278 1.036987 2.013890 0
M  V30 9 C -3.383205 2.302950 1.909501 0
M  V30 10 N -2.620425 2.449647 0.701401 0
M  V30 11 C -3.401863 2.393593 -0.494363 0
M  V30 12 C -2.782709 1.587901 -1.611171 0
M  V30 13 N -1.393748 1.833313 -1.786740 0
M  V30 14 C -1.069632 2.508999 -3.021147 0
M  V30 15 C -0.696657 2.318635 -0.637772 0
M  V30 16 C -1.414899 1.723448 0.588951 0
M  V30 17 C -2.546492 2.681066 3.090993 0
M  V30 18 C -2.029088 1.604185 3.959631 0
M  V30 19 C -1.498816 -1.580308 2.147130 0
M  V30 20 C -0.502216 -2.504882 1.899639 0
M  V30 21 C 0.696738 -2.620936 2.578404 0
M  V30 22 N 1.683451 -3.593835 2.240035 0
M  V30 23 C 1.363719 -4.466330 1.148658 0
M  V30 24 N 1.091165 -5.778657 0.991298 0
M  V30 25 C 0.798944 -6.279462 -0.221057 0
M  V30 26 C 0.758440 -5.501853 -1.363571 0
M  V30 27 Cl 0.363072 -6.304899 -2.863461 0
M  V30 28 C 1.041076 -4.154677 -1.185685 0
M  V30 29 N 0.982717 -3.370813 -2.364524 0
M  V30 30 C 1.709897 -2.880352 -3.469931 0
M  V30 31 C 1.138906 -3.340630 -4.665618 0
M  V30 32 C 1.695717 -2.975929 -5.890294 0
M  V30 33 C 2.799150 -2.165022 -5.825108 0
M  V30 34 C 3.378895 -1.698820 -4.656528 0
M  V30 35 C 2.817368 -2.067290 -3.447234 0
M  V30 36 P 3.447084 -1.553644 -1.886596 0
M  V30 37 C 2.245458 -0.728444 -0.831142 0
M  V30 38 C 4.812479 -0.368352 -2.189344 0
M  V30 39 O 4.067299 -2.699877 -1.111858 0
M  V30 40 N 1.322554 -3.723350 0.036418 0
M  V30 41 H 3.151390 -1.094871 5.962826 0
M  V30 42 H 2.227261 0.209672 5.021509 0
M  V30 43 H 1.398747 -0.934721 6.106023 0
M  V30 44 H 0.077852 -0.036934 4.702882 0
M  V30 45 H -4.280939 0.342006 4.043062 0
M  V30 46 H -3.867426 -0.929242 2.885114 0
M  V30 47 H -5.234420 1.219691 2.186355 0
M  V30 48 H -4.116825 0.408862 1.097973 0
M  V30 49 H -4.149336 3.150317 1.835352 0
M  V30 50 H -4.380291 1.910842 -0.243890 0
M  V30 51 H -3.656924 3.427507 -0.827949 0
M  V30 52 H -3.290904 1.917107 -2.563822 0
M  V30 53 H -2.993538 0.513638 -1.518863 0
M  V30 54 H 0.012018 2.580272 -3.137529 0
M  V30 55 H -1.552333 3.486999 -3.109516 0
M  V30 56 H -1.466715 1.900423 -3.877377 0
M  V30 57 H 0.375865 2.062710 -0.647918 0
M  V30 58 H -0.821639 3.432692 -0.596495 0
M  V30 59 H -0.758925 1.792241 1.454968 0
M  V30 60 H -1.543182 0.645286 0.281182 0
M  V30 61 H -3.099596 3.406527 3.761437 0
M  V30 62 H -1.634666 3.219960 2.677488 0
M  V30 63 H -0.946696 1.741965 4.218917 0
M  V30 64 H -2.560307 1.636874 4.946002 0
M  V30 65 H -2.410172 -1.544941 1.580316 0
M  V30 66 H -0.735320 -3.188828 1.077158 0
M  V30 67 H 2.560300 -3.583161 2.822031 0
M  V30 68 H 0.605023 -7.342901 -0.177835 0
M  V30 69 H -0.038182 -3.070130 -2.320644 0
M  V30 70 H 0.263179 -3.982084 -4.749839 0
M  V30 71 H 1.268750 -3.321765 -6.821086 0
M  V30 72 H 3.267251 -1.854143 -6.732459 0
M  V30 73 H 4.253458 -1.057147 -4.648695 0
M  V30 74 H 2.369968 0.363293 -0.941768 0
M  V30 75 H 1.190912 -0.941849 -1.145174 0
M  V30 76 H 2.394620 -0.962148 0.245849 0
M  V30 77 H 5.352601 -0.191257 -1.233419 0
M  V30 78 H 5.499098 -0.699136 -2.968569 0
M  V30 79 H 4.368438 0.616008 -2.450051 0
M  V30 END ATOM
M  V30 BEGIN BOND
M  V30 1 1 1 2
M  V30 2 1 2 3
M  V30 3 2 3 4
M  V30 4 1 4 5
M  V30 5 1 5 6
M  V30 6 1 6 7
M  V30 7 1 7 8
M  V30 8 1 8 9
M  V30 9 1 9 10
M  V30 10 1 10 11
M  V30 11 1 11 12
M  V30 12 1 12 13
M  V30 13 1 13 14
M  V30 14 1 13 15
M  V30 15 1 15 16
M  V30 16 1 9 17
M  V30 17 1 17 18
M  V30 18 2 5 19
M  V30 19 1 19 20
M  V30 20 2 20 21
M  V30 21 1 21 22
M  V30 22 1 22 23
M  V30 23 2 23 24
M  V30 24 1 24 25
M  V30 25 2 25 26
M  V30 26 1 26 27
M  V30 27 1 26 28
M  V30 28 1 28 29
M  V30 29 1 29 30
M  V30 30 2 30 31
M  V30 31 1 31 32
M  V30 32 2 32 33
M  V30 33 1 33 34
M  V30 34 2 34 35
M  V30 35 1 35 36
M  V30 36 1 36 37
M  V30 37 1 36 38
M  V30 38 2 36 39
M  V30 39 2 28 40
M  V30 40 1 21 3
M  V30 41 1 40 23
M  V30 42 1 18 6
M  V30 43 1 35 30
M  V30 44 1 16 10
M  V30 45 1 1 41
M  V30 46 1 1 42
M  V30 47 1 1 43
M  V30 48 1 4 44
M  V30 49 1 7 45
M  V30 50 1 7 46
M  V30 51 1 8 47
M  V30 52 1 8 48
M  V30 53 1 9 49
M  V30 54 1 11 50
M  V30 55 1 11 51
M  V30 56 1 12 52
M  V30 57 1 12 53
M  V30 58 1 14 54
M  V30 59 1 14 55
M  V30 60 1 14 56
M  V30 61 1 15 57
M  V30 62 1 15 58
M  V30 63 1 16 59
M  V30 64 1 16 60
M  V30 65 1 17 61
M  V30 66 1 17 62
M  V30 67 1 18 63
M  V30 68 1 18 64
M  V30 69 1 19 65
M  V30 70 1 20 66
M  V30 71 1 22 67
M  V30 72 1 25 68
M  V30 73 1 29 69
M  V30 74 1 31 70
M  V30 75 1 32 71
M  V30 76 1 33 72
M  V30 77 1 34 73
M  V30 78 1 37 74
M  V30 79 1 37 75
M  V30 80 1 37 76
M  V30 81 1 38 77
M  V30 82 1 38 78
M  V30 83 1 38 79
M  V30 END BOND
M  V30 END CTAB
M  END
>  <Dataset>  (66) 
PKIs

>  <Ligand_Instance>  (66) 
nan

>  <PDB_ID>  (66) 
nan

>  <Standardized_SMILES>  (66) 
COc1cc(N2CCC(N3CCN(C)CC3)CC2)ccc1Nc1ncc(Cl)c(Nc2ccccc2P(C)(C)=O)n1

>  <Name>  (66) 
Brigatinib

>  <Pocket>  (66) 
nan

>  <ATP_Site>  (66) 
nan

>  <Peripheral>  (66) 
nan

>  <Num_H_Atoms_ProtBoundConf>  (66) 
nan

>  <Num_Resolved_Atoms>  (66) 
nan

>  <Num_Not_Resolved_Atoms>  (66) 
nan

>  <2D_Mol_H>  (66) 
<rdkit.Chem.rdchem.Mol object at 0x72a239140dd0>

>  <MW>  (66) 
584.105

>  <HBA>  (66) 
9

>  <HBD>  (66) 
2

>  <LogP>  (66) 
5.09

>  <NRB>  (66) 
12

>  <TPSA>  (66) 
85.86

>  <Num_Heavy_Atoms>  (66) 
40

>  <Ro5>  (66) 
[False, True, True, False, False, True]

>  <Ro5_Fulfilled>  (66) 
False

>  <Ro3>  (66) 
[False, False, True, False]

>  <Ro3_Fulfilled>  (66) 
False

>  <Fsp3>  (66) 
0.448276

>  <Fsp3_0.42>  (66) 
True

>  <Fsp3_0.45>  (66) 
False

>  <Stereogenic_Carbons>  (66) 
0

>  <C_Atoms>  (66) 
29

>  <FCStereo>  (66) 
0.0

>  <SPS>  (66) 
703

>  <nSPS>  (66) 
17.575

>  <PBF>  (66) 
1.510139

>  <PBF_0.6>  (66) 
True

>  <nPBF>  (66) 
0.037753

>  <nPBF_0.016>  (66) 
True

>  <PMI1>  (66) 
5028.363882

>  <PMI2>  (66) 
8845.596572

>  <PMI3>  (66) 
10710.256389

>  <NPR1>  (66) 
0.469491

>  <NPR2>  (66) 
0.8259

>  <Sum_NPR>  (66) 
1.29539

>  <Sum_NPR_1.07>  (66) 
True

>  <Sum_NPR_1.2>  (66) 
True

>  <MaxAbsEStateIndex>  (66) 
12.792871

>  <MaxEStateIndex>  (66) 
12.792871

>  <MinAbsEStateIndex>  (66) 
0.365445

>  <MinEStateIndex>  (66) 
-2.504254

>  <qed>  (66) 
0.352192

>  <MolWt>  (66) 
584.105

>  <HeavyAtomMolWt>  (66) 
544.793

>  <ExactMolWt>  (66) 
583.259138

>  <NumValenceElectrons>  (66) 
214

>  <NumRadicalElectrons>  (66) 
0

>  <MaxPartialCharge>  (66) 
0.22884

>  <MinPartialCharge>  (66) 
-0.494498

>  <MaxAbsPartialCharge>  (66) 
0.494498

>  <MinAbsPartialCharge>  (66) 
0.22884

>  <FpDensityMorgan1>  (66) 
0.975

>  <FpDensityMorgan2>  (66) 
1.7

>  <FpDensityMorgan3>  (66) 
2.4

>  <BCUT2D_MWHI>  (66) 
35.495693

>  <BCUT2D_MWLOW>  (66) 
10.012203

>  <BCUT2D_CHGHI>  (66) 
2.268795

>  <BCUT2D_CHGLO>  (66) 
-2.422723

>  <BCUT2D_LOGPHI>  (66) 
2.387901

>  <BCUT2D_LOGPLOW>  (66) 
-2.519175

>  <BCUT2D_MRHI>  (66) 
7.700275

>  <BCUT2D_MRLOW>  (66) 
0.098182

>  <AvgIpc>  (66) 
2.951427

>  <BalabanJ>  (66) 
1.27046

>  <BertzCT>  (66) 
1368.238526

>  <Chi0>  (66) 
28.277446

>  <Chi0n>  (66) 
23.730749

>  <Chi0v>  (66) 
25.381105

>  <Chi1>  (66) 
19.20686

>  <Chi1n>  (66) 
13.777924

>  <Chi1v>  (66) 
16.757105

>  <Chi2n>  (66) 
10.950218

>  <Chi2v>  (66) 
14.540949

>  <Chi3n>  (66) 
7.796858

>  <Chi3v>  (66) 
9.623736

>  <Chi4n>  (66) 
5.46809

>  <Chi4v>  (66) 
6.762046

>  <HallKierAlpha>  (66) 
-2.84

>  <Ipc>  (66) 
938407687.386271

>  <Kappa1>  (66) 
28.680176

>  <Kappa2>  (66) 
12.351238

>  <Kappa3>  (66) 
6.716074

>  <LabuteASA>  (66) 
241.803109

>  <PEOE_VSA1>  (66) 
29.735308

>  <PEOE_VSA10>  (66) 
17.914038

>  <PEOE_VSA11>  (66) 
5.817863

>  <PEOE_VSA12>  (66) 
5.948339

>  <PEOE_VSA13>  (66) 
0.0

>  <PEOE_VSA14>  (66) 
0.0

>  <PEOE_VSA2>  (66) 
4.89991

>  <PEOE_VSA3>  (66) 
4.983979

>  <PEOE_VSA4>  (66) 
4.983979

>  <PEOE_VSA5>  (66) 
0.0

>  <PEOE_VSA6>  (66) 
23.733674

>  <PEOE_VSA7>  (66) 
57.484435

>  <PEOE_VSA8>  (66) 
62.368673

>  <PEOE_VSA9>  (66) 
24.681414

>  <SMR_VSA1>  (66) 
9.301911

>  <SMR_VSA10>  (66) 
52.875733

>  <SMR_VSA2>  (66) 
0.0

>  <SMR_VSA3>  (66) 
19.767777

>  <SMR_VSA4>  (66) 
0.0

>  <SMR_VSA5>  (66) 
18.883484

>  <SMR_VSA6>  (66) 
82.289146

>  <SMR_VSA7>  (66) 
53.684046

>  <SMR_VSA8>  (66) 
0.0

>  <SMR_VSA9>  (66) 
5.749512

>  <SlogP_VSA1>  (66) 
25.57489

>  <SlogP_VSA10>  (66) 
28.828361

>  <SlogP_VSA11>  (66) 
5.749512

>  <SlogP_VSA12>  (66) 
18.742833

>  <SlogP_VSA2>  (66) 
92.565277

>  <SlogP_VSA3>  (66) 
4.565048

>  <SlogP_VSA4>  (66) 
0.0

>  <SlogP_VSA5>  (66) 
12.841643

>  <SlogP_VSA6>  (66) 
48.661413

>  <SlogP_VSA7>  (66) 
5.022633

>  <SlogP_VSA8>  (66) 
0.0

>  <SlogP_VSA9>  (66) 
0.0

>  <EState_VSA1>  (66) 
7.141893

>  <EState_VSA10>  (66) 
4.565048

>  <EState_VSA11>  (66) 
0.0

>  <EState_VSA2>  (66) 
0.0

>  <EState_VSA3>  (66) 
28.518062

>  <EState_VSA4>  (66) 
48.60785

>  <EState_VSA5>  (66) 
25.931156

>  <EState_VSA6>  (66) 
26.636292

>  <EState_VSA7>  (66) 
30.331835

>  <EState_VSA8>  (66) 
54.48167

>  <EState_VSA9>  (66) 
16.337803

>  <VSA_EState1>  (66) 
18.540712

>  <VSA_EState10>  (66) 
6.427573

>  <VSA_EState2>  (66) 
16.494704

>  <VSA_EState3>  (66) 
7.625491

>  <VSA_EState4>  (66) 
2.623471

>  <VSA_EState5>  (66) 
1.521738

>  <VSA_EState6>  (66) 
14.361112

>  <VSA_EState7>  (66) 
3.89764

>  <VSA_EState8>  (66) 
10.217241

>  <VSA_EState9>  (66) 
1.373653

>  <FractionCSP3>  (66) 
0.448276

>  <HeavyAtomCount>  (66) 
40

>  <NHOHCount>  (66) 
2

>  <NOCount>  (66) 
9

>  <NumAliphaticCarbocycles>  (66) 
0

>  <NumAliphaticHeterocycles>  (66) 
2

>  <NumAliphaticRings>  (66) 
2

>  <NumAromaticCarbocycles>  (66) 
2

>  <NumAromaticHeterocycles>  (66) 
1

>  <NumAromaticRings>  (66) 
3

>  <NumHAcceptors>  (66) 
9

>  <NumHDonors>  (66) 
2

>  <NumHeteroatoms>  (66) 
11

>  <NumRotatableBonds>  (66) 
8

>  <NumSaturatedCarbocycles>  (66) 
0

>  <NumSaturatedHeterocycles>  (66) 
2

>  <NumSaturatedRings>  (66) 
2

>  <RingCount>  (66) 
5

>  <MolLogP>  (66) 
5.09

>  <MolMR>  (66) 
166.4369

>  <fr_Al_COO>  (66) 
0

>  <fr_Al_OH>  (66) 
0

>  <fr_Al_OH_noTert>  (66) 
0

>  <fr_ArN>  (66) 
0

>  <fr_Ar_COO>  (66) 
0

>  <fr_Ar_N>  (66) 
2

>  <fr_Ar_NH>  (66) 
0

>  <fr_Ar_OH>  (66) 
0

>  <fr_COO>  (66) 
0

>  <fr_COO2>  (66) 
0

>  <fr_C_O>  (66) 
0

>  <fr_C_O_noCOO>  (66) 
0

>  <fr_C_S>  (66) 
0

>  <fr_HOCCN>  (66) 
0

>  <fr_Imine>  (66) 
0

>  <fr_NH0>  (66) 
5

>  <fr_NH1>  (66) 
2

>  <fr_NH2>  (66) 
0

>  <fr_N_O>  (66) 
0

>  <fr_Ndealkylation1>  (66) 
1

>  <fr_Ndealkylation2>  (66) 
0

>  <fr_Nhpyrrole>  (66) 
0

>  <fr_SH>  (66) 
0

>  <fr_aldehyde>  (66) 
0

>  <fr_alkyl_carbamate>  (66) 
0

>  <fr_alkyl_halide>  (66) 
0

>  <fr_allylic_oxid>  (66) 
0

>  <fr_amide>  (66) 
0

>  <fr_amidine>  (66) 
0

>  <fr_aniline>  (66) 
5

>  <fr_aryl_methyl>  (66) 
0

>  <fr_azide>  (66) 
0

>  <fr_azo>  (66) 
0

>  <fr_barbitur>  (66) 
0

>  <fr_benzene>  (66) 
2

>  <fr_benzodiazepine>  (66) 
0

>  <fr_bicyclic>  (66) 
0

>  <fr_diazo>  (66) 
0

>  <fr_dihydropyridine>  (66) 
0

>  <fr_epoxide>  (66) 
0

>  <fr_ester>  (66) 
0

>  <fr_ether>  (66) 
1

>  <fr_furan>  (66) 
0

>  <fr_guanido>  (66) 
0

>  <fr_halogen>  (66) 
1

>  <fr_hdrzine>  (66) 
0

>  <fr_hdrzone>  (66) 
0

>  <fr_imidazole>  (66) 
0

>  <fr_imide>  (66) 
0

>  <fr_isocyan>  (66) 
0

>  <fr_isothiocyan>  (66) 
0

>  <fr_ketone>  (66) 
0

>  <fr_ketone_Topliss>  (66) 
0

>  <fr_lactam>  (66) 
0

>  <fr_lactone>  (66) 
0

>  <fr_methoxy>  (66) 
1

>  <fr_morpholine>  (66) 
0

>  <fr_nitrile>  (66) 
0

>  <fr_nitro>  (66) 
0

>  <fr_nitro_arom>  (66) 
0

>  <fr_nitro_arom_nonortho>  (66) 
0

>  <fr_nitroso>  (66) 
0

>  <fr_oxazole>  (66) 
0

>  <fr_oxime>  (66) 
0

>  <fr_para_hydroxylation>  (66) 
1

>  <fr_phenol>  (66) 
0

>  <fr_phenol_noOrthoHbond>  (66) 
0

>  <fr_phos_acid>  (66) 
0

>  <fr_phos_ester>  (66) 
0

>  <fr_piperdine>  (66) 
1

>  <fr_piperzine>  (66) 
1

>  <fr_priamide>  (66) 
0

>  <fr_prisulfonamd>  (66) 
0

>  <fr_pyridine>  (66) 
0

>  <fr_quatN>  (66) 
0

>  <fr_sulfide>  (66) 
0

>  <fr_sulfonamd>  (66) 
0

>  <fr_sulfone>  (66) 
0

>  <fr_term_acetylene>  (66) 
0

>  <fr_tetrazole>  (66) 
0

>  <fr_thiazole>  (66) 
0

>  <fr_thiocyan>  (66) 
0

>  <fr_thiophene>  (66) 
0

>  <fr_unbrch_alkane>  (66) 
0

>  <fr_urea>  (66) 
0

>  <NP_Likeness>  (66) 
-1.318681

$$$$
nan
     RDKit          3D

  0  0  0  0  0  0  0  0  0  0999 V3000
M  V30 BEGIN CTAB
M  V30 COUNTS 63 67 0 0 0
M  V30 BEGIN ATOM
M  V30 1 C 0.999663 -1.694505 3.207705 0
M  V30 2 O 1.076767 -1.318181 1.866476 0
M  V30 3 C 0.393529 -0.216306 1.309586 0
M  V30 4 C 0.936748 1.075933 1.250729 0
M  V30 5 O 2.105480 1.177944 1.741246 0
M  V30 6 C 3.306147 1.287408 2.243989 0
M  V30 7 C 4.476102 1.685545 1.390195 0
M  V30 8 C 4.299017 3.016579 0.756361 0
M  V30 9 N 3.145106 2.978552 -0.120416 0
M  V30 10 C 3.469799 2.091312 -1.238324 0
M  V30 11 C 2.447727 2.379124 -2.329984 0
M  V30 12 O 2.797191 3.588230 -2.931759 0
M  V30 13 C 3.355493 4.481831 -2.043805 0
M  V30 14 C 2.859097 4.319982 -0.619339 0
M  V30 15 C 0.127214 2.023168 0.674612 0
M  V30 16 C -1.127404 1.767724 0.179342 0
M  V30 17 C -1.586871 0.471827 0.275594 0
M  V30 18 C -0.859203 -0.555123 0.834492 0
M  V30 19 N -1.412064 -1.865027 0.890366 0
M  V30 20 C -2.613522 -2.108355 0.413218 0
M  V30 21 N -3.168132 -3.418999 0.469279 0
M  V30 22 C -2.473739 -4.518010 1.042630 0
M  V30 23 O -1.326794 -4.234271 1.498736 0
M  V30 24 C -3.028878 -5.866919 1.105335 0
M  V30 25 C -4.259208 -6.225382 0.599126 0
M  V30 26 N -4.722799 -7.484069 0.685632 0
M  V30 27 C -3.961364 -8.443410 1.290202 0
M  V30 28 N -4.509622 -9.753296 1.347462 0
M  V30 29 N -2.758012 -8.103349 1.787825 0
M  V30 30 C -2.259241 -6.849499 1.719589 0
M  V30 31 N -3.434237 -1.097696 -0.183290 0
M  V30 32 C -4.755947 -1.113010 -0.768678 0
M  V30 33 C -4.981291 0.314267 -1.191980 0
M  V30 34 N -3.784515 0.998970 -0.817745 0
M  V30 35 C -2.918426 0.219453 -0.257003 0
M  V30 36 H 0.899487 -0.815881 3.876953 0
M  V30 37 H 0.193979 -2.449704 3.346503 0
M  V30 38 H 1.949403 -2.235982 3.476529 0
M  V30 39 H 3.338222 1.909938 3.203679 0
M  V30 40 H 3.629691 0.254963 2.657848 0
M  V30 41 H 4.629946 0.861969 0.665138 0
M  V30 42 H 5.426833 1.720126 1.991300 0
M  V30 43 H 5.179292 3.323914 0.133890 0
M  V30 44 H 4.083416 3.829598 1.493346 0
M  V30 45 H 3.458570 1.034630 -0.985858 0
M  V30 46 H 4.457831 2.438176 -1.629288 0
M  V30 47 H 1.437922 2.482421 -1.890948 0
M  V30 48 H 2.447209 1.607973 -3.127801 0
M  V30 49 H 4.453315 4.479063 -2.012225 0
M  V30 50 H 3.026777 5.499703 -2.375664 0
M  V30 51 H 3.439073 5.024515 0.008027 0
M  V30 52 H 1.811740 4.617695 -0.541079 0
M  V30 53 H 0.479581 3.024384 0.608614 0
M  V30 54 H -1.710485 2.576948 -0.265651 0
M  V30 55 H -4.128784 -3.599535 0.076304 0
M  V30 56 H -4.872374 -5.477599 0.118581 0
M  V30 57 H -4.284816 -10.655682 0.839666 0
M  V30 58 H -4.203299 -10.599158 0.784705 0
M  V30 59 H -1.273280 -6.703355 2.160386 0
M  V30 60 H -4.790219 -1.782672 -1.657475 0
M  V30 61 H -5.546433 -1.432275 -0.050031 0
M  V30 62 H -5.164094 0.361888 -2.284154 0
M  V30 63 H -5.877780 0.758932 -0.678406 0
M  V30 END ATOM
M  V30 BEGIN BOND
M  V30 1 1 1 2
M  V30 2 1 2 3
M  V30 3 2 3 4
M  V30 4 1 4 5
M  V30 5 1 5 6
M  V30 6 1 6 7
M  V30 7 1 7 8
M  V30 8 1 8 9
M  V30 9 1 9 10
M  V30 10 1 10 11
M  V30 11 1 11 12
M  V30 12 1 12 13
M  V30 13 1 13 14
M  V30 14 1 4 15
M  V30 15 2 15 16
M  V30 16 1 16 17
M  V30 17 2 17 18
M  V30 18 1 18 19
M  V30 19 2 19 20
M  V30 20 1 20 21
M  V30 21 1 21 22
M  V30 22 2 22 23
M  V30 23 1 22 24
M  V30 24 2 24 25
M  V30 25 1 25 26
M  V30 26 2 26 27
M  V30 27 1 27 28
M  V30 28 1 27 29
M  V30 29 2 29 30
M  V30 30 1 20 31
M  V30 31 1 31 32
M  V30 32 1 32 33
M  V30 33 1 33 34
M  V30 34 2 34 35
M  V30 35 1 18 3
M  V30 36 1 30 24
M  V30 37 1 35 31
M  V30 38 1 14 9
M  V30 39 1 35 17
M  V30 40 1 1 36
M  V30 41 1 1 37
M  V30 42 1 1 38
M  V30 43 1 6 39
M  V30 44 1 6 40
M  V30 45 1 7 41
M  V30 46 1 7 42
M  V30 47 1 8 43
M  V30 48 1 8 44
M  V30 49 1 10 45
M  V30 50 1 10 46
M  V30 51 1 11 47
M  V30 52 1 11 48
M  V30 53 1 13 49
M  V30 54 1 13 50
M  V30 55 1 14 51
M  V30 56 1 14 52
M  V30 57 1 15 53
M  V30 58 1 16 54
M  V30 59 1 21 55
M  V30 60 1 25 56
M  V30 61 1 28 57
M  V30 62 1 28 58
M  V30 63 1 30 59
M  V30 64 1 32 60
M  V30 65 1 32 61
M  V30 66 1 33 62
M  V30 67 1 33 63
M  V30 END BOND
M  V30 END CTAB
M  END
>  <Dataset>  (67) 
PKIs

>  <Ligand_Instance>  (67) 
nan

>  <PDB_ID>  (67) 
nan

>  <Standardized_SMILES>  (67) 
COc1c(OCCCN2CCOCC2)ccc2c1N=C(NC(=O)c1cnc(N)nc1)N1CCN=C21

>  <Name>  (67) 
Copanlisib

>  <Pocket>  (67) 
nan

>  <ATP_Site>  (67) 
nan

>  <Peripheral>  (67) 
nan

>  <Num_H_Atoms_ProtBoundConf>  (67) 
nan

>  <Num_Resolved_Atoms>  (67) 
nan

>  <Num_Not_Resolved_Atoms>  (67) 
nan

>  <2D_Mol_H>  (67) 
<rdkit.Chem.rdchem.Mol object at 0x72a239140eb0>

>  <MW>  (67) 
480.529

>  <HBA>  (67) 
11

>  <HBD>  (67) 
2

>  <LogP>  (67) 
0.6618

>  <NRB>  (67) 
9

>  <TPSA>  (67) 
139.79

>  <Num_Heavy_Atoms>  (67) 
35

>  <Ro5>  (67) 
[True, False, True, True, True, True]

>  <Ro5_Fulfilled>  (67) 
True

>  <Ro3>  (67) 
[False, False, True, True]

>  <Ro3_Fulfilled>  (67) 
False

>  <Fsp3>  (67) 
0.434783

>  <Fsp3_0.42>  (67) 
True

>  <Fsp3_0.45>  (67) 
False

>  <Stereogenic_Carbons>  (67) 
0

>  <C_Atoms>  (67) 
23

>  <FCStereo>  (67) 
0.0

>  <SPS>  (67) 
603

>  <nSPS>  (67) 
17.228571

>  <PBF>  (67) 
0.966694

>  <PBF_0.6>  (67) 
True

>  <nPBF>  (67) 
0.02762

>  <nPBF_0.016>  (67) 
True

>  <PMI1>  (67) 
2295.851989

>  <PMI2>  (67) 
10755.964836

>  <PMI3>  (67) 
12132.267168

>  <NPR1>  (67) 
0.189235

>  <NPR2>  (67) 
0.886559

>  <Sum_NPR>  (67) 
1.075794

>  <Sum_NPR_1.07>  (67) 
True

>  <Sum_NPR_1.2>  (67) 
False

>  <MaxAbsEStateIndex>  (67) 
12.804001

>  <MaxEStateIndex>  (67) 
12.804001

>  <MinAbsEStateIndex>  (67) 
0.098757

>  <MinEStateIndex>  (67) 
-0.395431

>  <qed>  (67) 
0.547056

>  <MolWt>  (67) 
480.529

>  <HeavyAtomMolWt>  (67) 
452.305

>  <ExactMolWt>  (67) 
480.223351

>  <NumValenceElectrons>  (67) 
184

>  <NumRadicalElectrons>  (67) 
0

>  <MaxPartialCharge>  (67) 
0.260613

>  <MinPartialCharge>  (67) 
-0.490799

>  <MaxAbsPartialCharge>  (67) 
0.490799

>  <MinAbsPartialCharge>  (67) 
0.260613

>  <FpDensityMorgan1>  (67) 
1.2

>  <FpDensityMorgan2>  (67) 
2.0

>  <FpDensityMorgan3>  (67) 
2.771429

>  <BCUT2D_MWHI>  (67) 
16.514934

>  <BCUT2D_MWLOW>  (67) 
10.085098

>  <BCUT2D_CHGHI>  (67) 
2.330501

>  <BCUT2D_CHGLO>  (67) 
-2.284888

>  <BCUT2D_LOGPHI>  (67) 
2.427948

>  <BCUT2D_LOGPLOW>  (67) 
-2.472422

>  <BCUT2D_MRHI>  (67) 
6.195785

>  <BCUT2D_MRLOW>  (67) 
0.03573

>  <AvgIpc>  (67) 
3.379303

>  <BalabanJ>  (67) 
1.347755

>  <BertzCT>  (67) 
1144.955455

>  <Chi0>  (67) 
24.200095

>  <Chi0n>  (67) 
19.566987

>  <Chi0v>  (67) 
19.566987

>  <Chi1>  (67) 
17.135362

>  <Chi1n>  (67) 
11.576139

>  <Chi1v>  (67) 
11.576139

>  <Chi2n>  (67) 
8.225581

>  <Chi2v>  (67) 
8.225581

>  <Chi3n>  (67) 
5.993895

>  <Chi3v>  (67) 
5.993895

>  <Chi4n>  (67) 
4.224686

>  <Chi4v>  (67) 
4.224686

>  <HallKierAlpha>  (67) 
-3.77

>  <Ipc>  (67) 
157954625.034135

>  <Kappa1>  (67) 
22.994448

>  <Kappa2>  (67) 
10.236923

>  <Kappa3>  (67) 
4.884438

>  <LabuteASA>  (67) 
202.35677

>  <PEOE_VSA1>  (67) 
19.944256

>  <PEOE_VSA10>  (67) 
11.523006

>  <PEOE_VSA11>  (67) 
11.499024

>  <PEOE_VSA12>  (67) 
11.907894

>  <PEOE_VSA13>  (67) 
5.90718

>  <PEOE_VSA14>  (67) 
0.0

>  <PEOE_VSA2>  (67) 
24.90355

>  <PEOE_VSA3>  (67) 
14.960362

>  <PEOE_VSA4>  (67) 
0.0

>  <PEOE_VSA5>  (67) 
0.0

>  <PEOE_VSA6>  (67) 
0.0

>  <PEOE_VSA7>  (67) 
18.553556

>  <PEOE_VSA8>  (67) 
44.136164

>  <PEOE_VSA9>  (67) 
39.038651

>  <SMR_VSA1>  (67) 
19.005126

>  <SMR_VSA10>  (67) 
29.33808

>  <SMR_VSA2>  (67) 
0.0

>  <SMR_VSA3>  (67) 
25.084565

>  <SMR_VSA4>  (67) 
9.984809

>  <SMR_VSA5>  (67) 
6.420822

>  <SMR_VSA6>  (67) 
65.387893

>  <SMR_VSA7>  (67) 
35.653324

>  <SMR_VSA8>  (67) 
0.0

>  <SMR_VSA9>  (67) 
11.499024

>  <SlogP_VSA1>  (67) 
20.524182

>  <SlogP_VSA10>  (67) 
11.635726

>  <SlogP_VSA11>  (67) 
11.499024

>  <SlogP_VSA12>  (67) 
0.0

>  <SlogP_VSA2>  (67) 
97.124356

>  <SlogP_VSA3>  (67) 
4.736863

>  <SlogP_VSA4>  (67) 
0.0

>  <SlogP_VSA5>  (67) 
22.342262

>  <SlogP_VSA6>  (67) 
34.511231

>  <SlogP_VSA7>  (67) 
0.0

>  <SlogP_VSA8>  (67) 
0.0

>  <SlogP_VSA9>  (67) 
0.0

>  <EState_VSA1>  (67) 
5.90718

>  <EState_VSA10>  (67) 
4.794537

>  <EState_VSA11>  (67) 
0.0

>  <EState_VSA2>  (67) 
11.511791

>  <EState_VSA3>  (67) 
42.842359

>  <EState_VSA4>  (67) 
50.667926

>  <EState_VSA5>  (67) 
12.393687

>  <EState_VSA6>  (67) 
7.109798

>  <EState_VSA7>  (67) 
17.032644

>  <EState_VSA8>  (67) 
25.17706

>  <EState_VSA9>  (67) 
24.936661

>  <VSA_EState1>  (67) 
17.181674

>  <VSA_EState10>  (67) 
0.0

>  <VSA_EState2>  (67) 
34.187297

>  <VSA_EState3>  (67) 
2.849612

>  <VSA_EState4>  (67) 
7.195976

>  <VSA_EState5>  (67) 
1.899336

>  <VSA_EState6>  (67) 
3.817913

>  <VSA_EState7>  (67) 
3.628784

>  <VSA_EState8>  (67) 
6.157541

>  <VSA_EState9>  (67) 
1.581868

>  <FractionCSP3>  (67) 
0.434783

>  <HeavyAtomCount>  (67) 
35

>  <NHOHCount>  (67) 
3

>  <NOCount>  (67) 
12

>  <NumAliphaticCarbocycles>  (67) 
0

>  <NumAliphaticHeterocycles>  (67) 
3

>  <NumAliphaticRings>  (67) 
3

>  <NumAromaticCarbocycles>  (67) 
1

>  <NumAromaticHeterocycles>  (67) 
1

>  <NumAromaticRings>  (67) 
2

>  <NumHAcceptors>  (67) 
11

>  <NumHDonors>  (67) 
2

>  <NumHeteroatoms>  (67) 
12

>  <NumRotatableBonds>  (67) 
7

>  <NumSaturatedCarbocycles>  (67) 
0

>  <NumSaturatedHeterocycles>  (67) 
1

>  <NumSaturatedRings>  (67) 
1

>  <RingCount>  (67) 
5

>  <MolLogP>  (67) 
0.6618

>  <MolMR>  (67) 
129.4806

>  <fr_Al_COO>  (67) 
0

>  <fr_Al_OH>  (67) 
0

>  <fr_Al_OH_noTert>  (67) 
0

>  <fr_ArN>  (67) 
1

>  <fr_Ar_COO>  (67) 
0

>  <fr_Ar_N>  (67) 
2

>  <fr_Ar_NH>  (67) 
0

>  <fr_Ar_OH>  (67) 
0

>  <fr_COO>  (67) 
0

>  <fr_COO2>  (67) 
0

>  <fr_C_O>  (67) 
1

>  <fr_C_O_noCOO>  (67) 
1

>  <fr_C_S>  (67) 
0

>  <fr_HOCCN>  (67) 
0

>  <fr_Imine>  (67) 
2

>  <fr_NH0>  (67) 
6

>  <fr_NH1>  (67) 
1

>  <fr_NH2>  (67) 
1

>  <fr_N_O>  (67) 
0

>  <fr_Ndealkylation1>  (67) 
0

>  <fr_Ndealkylation2>  (67) 
0

>  <fr_Nhpyrrole>  (67) 
0

>  <fr_SH>  (67) 
0

>  <fr_aldehyde>  (67) 
0

>  <fr_alkyl_carbamate>  (67) 
0

>  <fr_alkyl_halide>  (67) 
0

>  <fr_allylic_oxid>  (67) 
0

>  <fr_amide>  (67) 
1

>  <fr_amidine>  (67) 
1

>  <fr_aniline>  (67) 
1

>  <fr_aryl_methyl>  (67) 
0

>  <fr_azide>  (67) 
0

>  <fr_azo>  (67) 
0

>  <fr_barbitur>  (67) 
0

>  <fr_benzene>  (67) 
1

>  <fr_benzodiazepine>  (67) 
0

>  <fr_bicyclic>  (67) 
3

>  <fr_diazo>  (67) 
0

>  <fr_dihydropyridine>  (67) 
0

>  <fr_epoxide>  (67) 
0

>  <fr_ester>  (67) 
0

>  <fr_ether>  (67) 
3

>  <fr_furan>  (67) 
0

>  <fr_guanido>  (67) 
1

>  <fr_halogen>  (67) 
0

>  <fr_hdrzine>  (67) 
0

>  <fr_hdrzone>  (67) 
0

>  <fr_imidazole>  (67) 
0

>  <fr_imide>  (67) 
0

>  <fr_isocyan>  (67) 
0

>  <fr_isothiocyan>  (67) 
0

>  <fr_ketone>  (67) 
0

>  <fr_ketone_Topliss>  (67) 
0

>  <fr_lactam>  (67) 
0

>  <fr_lactone>  (67) 
0

>  <fr_methoxy>  (67) 
1

>  <fr_morpholine>  (67) 
1

>  <fr_nitrile>  (67) 
0

>  <fr_nitro>  (67) 
0

>  <fr_nitro_arom>  (67) 
0

>  <fr_nitro_arom_nonortho>  (67) 
0

>  <fr_nitroso>  (67) 
0

>  <fr_oxazole>  (67) 
0

>  <fr_oxime>  (67) 
0

>  <fr_para_hydroxylation>  (67) 
0

>  <fr_phenol>  (67) 
0

>  <fr_phenol_noOrthoHbond>  (67) 
0

>  <fr_phos_acid>  (67) 
0

>  <fr_phos_ester>  (67) 
0

>  <fr_piperdine>  (67) 
0

>  <fr_piperzine>  (67) 
0

>  <fr_priamide>  (67) 
0

>  <fr_prisulfonamd>  (67) 
0

>  <fr_pyridine>  (67) 
0

>  <fr_quatN>  (67) 
0

>  <fr_sulfide>  (67) 
0

>  <fr_sulfonamd>  (67) 
0

>  <fr_sulfone>  (67) 
0

>  <fr_term_acetylene>  (67) 
0

>  <fr_tetrazole>  (67) 
0

>  <fr_thiazole>  (67) 
0

>  <fr_thiocyan>  (67) 
0

>  <fr_thiophene>  (67) 
0

>  <fr_unbrch_alkane>  (67) 
0

>  <fr_urea>  (67) 
0

>  <NP_Likeness>  (67) 
-1.057472

$$$$
nan
     RDKit          3D

  0  0  0  0  0  0  0  0  0  0999 V3000
M  V30 BEGIN CTAB
M  V30 COUNTS 61 64 0 0 0
M  V30 BEGIN ATOM
M  V30 1 C 5.438760 -3.517088 5.953978 0
M  V30 2 C 5.225087 -2.660459 4.766783 0
M  V30 3 C 6.348015 -2.185795 4.119114 0
M  V30 4 C 6.233916 -1.374449 2.995354 0
M  V30 5 C 4.966601 -1.051329 2.537777 0
M  V30 6 C 4.937809 -0.194656 1.351361 0
M  V30 7 O 5.958523 0.244587 0.752022 0
M  V30 8 O 3.760332 0.232010 0.750285 0
M  V30 9 C 3.670125 1.047914 -0.380771 0
M  V30 10 C 2.216865 1.277283 -0.711065 0
M  V30 11 C 1.484351 2.333568 -0.197550 0
M  V30 12 C 0.144211 2.481057 -0.547604 0
M  V30 13 C -0.485811 1.592934 -1.403879 0
M  V30 14 C -1.912106 1.708552 -1.805226 0 CFG=1
M  V30 15 C -2.101666 1.934779 -3.274857 0
M  V30 16 N -1.577522 0.901158 -4.113217 0
M  V30 17 C -2.712883 0.559772 -1.284257 0
M  V30 18 O -1.812024 -0.078094 -0.683834 0
M  V30 19 N -4.086894 0.472493 -1.548196 0
M  V30 20 C -4.671469 -0.706121 -0.958709 0
M  V30 21 C -5.133542 -0.466852 0.339380 0
M  V30 22 C -5.739836 -1.463408 1.111148 0
M  V30 23 C -5.847856 -2.698554 0.496964 0
M  V30 24 C -6.444263 -3.729514 1.220003 0
M  V30 25 N -6.541902 -4.910143 0.619096 0
M  V30 26 C -6.110256 -5.171341 -0.620307 0
M  V30 27 C -5.504902 -4.172220 -1.387787 0
M  V30 28 C -5.399238 -2.955262 -0.780625 0
M  V30 29 C -4.801977 -1.955547 -1.528059 0
M  V30 30 C 0.234155 0.535093 -1.922841 0
M  V30 31 C 1.566134 0.387820 -1.575395 0
M  V30 32 C 3.827354 -1.512365 3.166483 0
M  V30 33 C 2.497634 -1.132568 2.630268 0
M  V30 34 C 3.968754 -2.323454 4.290112 0
M  V30 35 H 6.135851 -4.374893 5.742001 0
M  V30 36 H 4.484165 -4.020477 6.254610 0
M  V30 37 H 5.883027 -2.980321 6.815202 0
M  V30 38 H 7.346519 -2.449805 4.492603 0
M  V30 39 H 7.128227 -1.027056 2.521802 0
M  V30 40 H 4.091533 0.494320 -1.242053 0
M  V30 41 H 4.220192 2.004207 -0.275652 0
M  V30 42 H 1.968368 3.028268 0.469217 0
M  V30 43 H -0.437082 3.294499 -0.157977 0
M  V30 44 H -2.352548 2.613673 -1.301527 0
M  V30 45 H -1.593703 2.877526 -3.526684 0
M  V30 46 H -3.190821 2.111163 -3.423838 0
M  V30 47 H -1.309034 1.325112 -5.027092 0
M  V30 48 H -2.294378 0.147483 -4.234128 0
M  V30 49 H -4.503647 1.232096 -2.111452 0
M  V30 50 H -5.064364 0.496904 0.855634 0
M  V30 51 H -6.093856 -1.290944 2.097541 0
M  V30 52 H -6.828763 -3.629174 2.229963 0
M  V30 53 H -6.252568 -6.163023 -0.978464 0
M  V30 54 H -5.156483 -4.384594 -2.389129 0
M  V30 55 H -4.416379 -2.032157 -2.523778 0
M  V30 56 H -0.130765 -0.225860 -2.596988 0
M  V30 57 H 2.175022 -0.428079 -1.957425 0
M  V30 58 H 2.413181 -0.021609 2.644925 0
M  V30 59 H 1.696229 -1.529659 3.288801 0
M  V30 60 H 2.370149 -1.478954 1.590835 0
M  V30 61 H 3.089637 -2.699065 4.802534 0
M  V30 END ATOM
M  V30 BEGIN BOND
M  V30 1 1 1 2
M  V30 2 2 2 3
M  V30 3 1 3 4
M  V30 4 2 4 5
M  V30 5 1 5 6
M  V30 6 2 6 7
M  V30 7 1 6 8
M  V30 8 1 8 9
M  V30 9 1 9 10
M  V30 10 2 10 11
M  V30 11 1 11 12
M  V30 12 2 12 13
M  V30 13 1 13 14
M  V30 14 1 14 15
M  V30 15 1 15 16
M  V30 16 1 14 17
M  V30 17 2 17 18
M  V30 18 1 17 19
M  V30 19 1 19 20
M  V30 20 2 20 21
M  V30 21 1 21 22
M  V30 22 2 22 23
M  V30 23 1 23 24
M  V30 24 2 24 25
M  V30 25 1 25 26
M  V30 26 2 26 27
M  V30 27 1 27 28
M  V30 28 2 28 29
M  V30 29 1 13 30
M  V30 30 2 30 31
M  V30 31 1 5 32
M  V30 32 1 32 33
M  V30 33 2 32 34
M  V30 34 1 34 2
M  V30 35 1 31 10
M  V30 36 1 29 20
M  V30 37 1 28 23
M  V30 38 1 1 35
M  V30 39 1 1 36
M  V30 40 1 1 37
M  V30 41 1 3 38
M  V30 42 1 4 39
M  V30 43 1 9 40
M  V30 44 1 9 41
M  V30 45 1 11 42
M  V30 46 1 12 43
M  V30 47 1 14 44 CFG=1
M  V30 48 1 15 45
M  V30 49 1 15 46
M  V30 50 1 16 47
M  V30 51 1 16 48
M  V30 52 1 19 49
M  V30 53 1 21 50
M  V30 54 1 22 51
M  V30 55 1 24 52
M  V30 56 1 26 53
M  V30 57 1 27 54
M  V30 58 1 29 55
M  V30 59 1 30 56
M  V30 60 1 31 57
M  V30 61 1 33 58
M  V30 62 1 33 59
M  V30 63 1 33 60
M  V30 64 1 34 61
M  V30 END BOND
M  V30 END CTAB
M  END
>  <Dataset>  (68) 
PKIs

>  <Ligand_Instance>  (68) 
nan

>  <PDB_ID>  (68) 
nan

>  <Standardized_SMILES>  (68) 
Cc1ccc(C(=O)OCc2ccc([C@@H](CN)C(=O)Nc3ccc4cnccc4c3)cc2)c(C)c1

>  <Name>  (68) 
Netarsudil

>  <Pocket>  (68) 
nan

>  <ATP_Site>  (68) 
nan

>  <Peripheral>  (68) 
nan

>  <Num_H_Atoms_ProtBoundConf>  (68) 
nan

>  <Num_Resolved_Atoms>  (68) 
nan

>  <Num_Not_Resolved_Atoms>  (68) 
nan

>  <2D_Mol_H>  (68) 
<rdkit.Chem.rdchem.Mol object at 0x72a239140f90>

>  <MW>  (68) 
453.542

>  <HBA>  (68) 
5

>  <HBD>  (68) 
2

>  <LogP>  (68) 
4.88964

>  <NRB>  (68) 
10

>  <TPSA>  (68) 
94.31

>  <Num_Heavy_Atoms>  (68) 
34

>  <Ro5>  (68) 
[True, True, True, True, True, True]

>  <Ro5_Fulfilled>  (68) 
True

>  <Ro3>  (68) 
[False, False, True, False]

>  <Ro3_Fulfilled>  (68) 
False

>  <Fsp3>  (68) 
0.178571

>  <Fsp3_0.42>  (68) 
False

>  <Fsp3_0.45>  (68) 
False

>  <Stereogenic_Carbons>  (68) 
1

>  <C_Atoms>  (68) 
28

>  <FCStereo>  (68) 
0.035714

>  <SPS>  (68) 
399

>  <nSPS>  (68) 
11.735294

>  <PBF>  (68) 
1.010955

>  <PBF_0.6>  (68) 
True

>  <nPBF>  (68) 
0.029734

>  <nPBF_0.016>  (68) 
True

>  <PMI1>  (68) 
3433.55268

>  <PMI2>  (68) 
10051.417225

>  <PMI3>  (68) 
12697.424638

>  <NPR1>  (68) 
0.270413

>  <NPR2>  (68) 
0.791611

>  <Sum_NPR>  (68) 
1.062024

>  <Sum_NPR_1.07>  (68) 
False

>  <Sum_NPR_1.2>  (68) 
False

>  <MaxAbsEStateIndex>  (68) 
12.920063

>  <MaxEStateIndex>  (68) 
12.920063

>  <MinAbsEStateIndex>  (68) 
0.150659

>  <MinEStateIndex>  (68) 
-0.500051

>  <qed>  (68) 
0.388685

>  <MolWt>  (68) 
453.542

>  <HeavyAtomMolWt>  (68) 
426.326

>  <ExactMolWt>  (68) 
453.205242

>  <NumValenceElectrons>  (68) 
172

>  <NumRadicalElectrons>  (68) 
0

>  <MaxPartialCharge>  (68) 
0.338228

>  <MinPartialCharge>  (68) 
-0.457216

>  <MaxAbsPartialCharge>  (68) 
0.457216

>  <MinAbsPartialCharge>  (68) 
0.338228

>  <FpDensityMorgan1>  (68) 
0.970588

>  <FpDensityMorgan2>  (68) 
1.764706

>  <FpDensityMorgan3>  (68) 
2.5

>  <BCUT2D_MWHI>  (68) 
16.532957

>  <BCUT2D_MWLOW>  (68) 
9.967325

>  <BCUT2D_CHGHI>  (68) 
2.194097

>  <BCUT2D_CHGLO>  (68) 
-2.161409

>  <BCUT2D_LOGPHI>  (68) 
2.21899

>  <BCUT2D_LOGPLOW>  (68) 
-2.26984

>  <BCUT2D_MRHI>  (68) 
5.977441

>  <BCUT2D_MRLOW>  (68) 
-0.116935

>  <AvgIpc>  (68) 
2.834823

>  <BalabanJ>  (68) 
1.392875

>  <BertzCT>  (68) 
1332.570246

>  <Chi0>  (68) 
24.078775

>  <Chi0n>  (68) 
19.246426

>  <Chi0v>  (68) 
19.246426

>  <Chi1>  (68) 
16.439892

>  <Chi1n>  (68) 
11.122964

>  <Chi1v>  (68) 
11.122964

>  <Chi2n>  (68) 
8.351234

>  <Chi2v>  (68) 
8.351234

>  <Chi3n>  (68) 
5.814138

>  <Chi3v>  (68) 
5.814138

>  <Chi4n>  (68) 
3.900381

>  <Chi4v>  (68) 
3.900381

>  <HallKierAlpha>  (68) 
-4.03

>  <Ipc>  (68) 
48312255.658038

>  <Kappa1>  (68) 
23.139067

>  <Kappa2>  (68) 
10.272882

>  <Kappa3>  (68) 
5.297749

>  <LabuteASA>  (68) 
198.327841

>  <PEOE_VSA1>  (68) 
15.787319

>  <PEOE_VSA10>  (68) 
6.606882

>  <PEOE_VSA11>  (68) 
0.0

>  <PEOE_VSA12>  (68) 
5.90718

>  <PEOE_VSA13>  (68) 
0.0

>  <PEOE_VSA14>  (68) 
5.969305

>  <PEOE_VSA2>  (68) 
9.778516

>  <PEOE_VSA3>  (68) 
4.794537

>  <PEOE_VSA4>  (68) 
0.0

>  <PEOE_VSA5>  (68) 
0.0

>  <PEOE_VSA6>  (68) 
48.028021

>  <PEOE_VSA7>  (68) 
60.189521

>  <PEOE_VSA8>  (68) 
30.012054

>  <PEOE_VSA9>  (68) 
11.481358

>  <SMR_VSA1>  (68) 
14.325937

>  <SMR_VSA10>  (68) 
28.33632

>  <SMR_VSA2>  (68) 
0.0

>  <SMR_VSA3>  (68) 
4.983979

>  <SMR_VSA4>  (68) 
5.733667

>  <SMR_VSA5>  (68) 
26.372262

>  <SMR_VSA6>  (68) 
11.861545

>  <SMR_VSA7>  (68) 
106.940982

>  <SMR_VSA8>  (68) 
0.0

>  <SMR_VSA9>  (68) 
0.0

>  <SlogP_VSA1>  (68) 
11.050456

>  <SlogP_VSA10>  (68) 
5.687386

>  <SlogP_VSA11>  (68) 
0.0

>  <SlogP_VSA12>  (68) 
0.0

>  <SlogP_VSA2>  (68) 
23.40522

>  <SlogP_VSA3>  (68) 
16.138282

>  <SlogP_VSA4>  (68) 
13.847474

>  <SlogP_VSA5>  (68) 
38.529701

>  <SlogP_VSA6>  (68) 
79.123725

>  <SlogP_VSA7>  (68) 
0.0

>  <SlogP_VSA8>  (68) 
10.772448

>  <SlogP_VSA9>  (68) 
0.0

>  <EState_VSA1>  (68) 
5.917906

>  <EState_VSA10>  (68) 
9.589074

>  <EState_VSA11>  (68) 
0.0

>  <EState_VSA2>  (68) 
25.028123

>  <EState_VSA3>  (68) 
11.250838

>  <EState_VSA4>  (68) 
33.026254

>  <EState_VSA5>  (68) 
0.0

>  <EState_VSA6>  (68) 
18.460054

>  <EState_VSA7>  (68) 
74.511145

>  <EState_VSA8>  (68) 
10.300767

>  <EState_VSA9>  (68) 
10.47053

>  <VSA_EState1>  (68) 
5.475753

>  <VSA_EState10>  (68) 
0.0

>  <VSA_EState2>  (68) 
29.446472

>  <VSA_EState3>  (68) 
4.958352

>  <VSA_EState4>  (68) 
10.8269

>  <VSA_EState5>  (68) 
-1.030712

>  <VSA_EState6>  (68) 
20.621218

>  <VSA_EState7>  (68) 
3.501793

>  <VSA_EState8>  (68) 
4.200224

>  <VSA_EState9>  (68) 
0.0

>  <FractionCSP3>  (68) 
0.178571

>  <HeavyAtomCount>  (68) 
34

>  <NHOHCount>  (68) 
3

>  <NOCount>  (68) 
6

>  <NumAliphaticCarbocycles>  (68) 
0

>  <NumAliphaticHeterocycles>  (68) 
0

>  <NumAliphaticRings>  (68) 
0

>  <NumAromaticCarbocycles>  (68) 
3

>  <NumAromaticHeterocycles>  (68) 
1

>  <NumAromaticRings>  (68) 
4

>  <NumHAcceptors>  (68) 
5

>  <NumHDonors>  (68) 
2

>  <NumHeteroatoms>  (68) 
6

>  <NumRotatableBonds>  (68) 
7

>  <NumSaturatedCarbocycles>  (68) 
0

>  <NumSaturatedHeterocycles>  (68) 
0

>  <NumSaturatedRings>  (68) 
0

>  <RingCount>  (68) 
4

>  <MolLogP>  (68) 
4.88964

>  <MolMR>  (68) 
133.6456

>  <fr_Al_COO>  (68) 
0

>  <fr_Al_OH>  (68) 
0

>  <fr_Al_OH_noTert>  (68) 
0

>  <fr_ArN>  (68) 
0

>  <fr_Ar_COO>  (68) 
0

>  <fr_Ar_N>  (68) 
1

>  <fr_Ar_NH>  (68) 
0

>  <fr_Ar_OH>  (68) 
0

>  <fr_COO>  (68) 
0

>  <fr_COO2>  (68) 
0

>  <fr_C_O>  (68) 
2

>  <fr_C_O_noCOO>  (68) 
2

>  <fr_C_S>  (68) 
0

>  <fr_HOCCN>  (68) 
0

>  <fr_Imine>  (68) 
0

>  <fr_NH0>  (68) 
1

>  <fr_NH1>  (68) 
1

>  <fr_NH2>  (68) 
1

>  <fr_N_O>  (68) 
0

>  <fr_Ndealkylation1>  (68) 
0

>  <fr_Ndealkylation2>  (68) 
0

>  <fr_Nhpyrrole>  (68) 
0

>  <fr_SH>  (68) 
0

>  <fr_aldehyde>  (68) 
0

>  <fr_alkyl_carbamate>  (68) 
0

>  <fr_alkyl_halide>  (68) 
0

>  <fr_allylic_oxid>  (68) 
0

>  <fr_amide>  (68) 
1

>  <fr_amidine>  (68) 
0

>  <fr_aniline>  (68) 
1

>  <fr_aryl_methyl>  (68) 
2

>  <fr_azide>  (68) 
0

>  <fr_azo>  (68) 
0

>  <fr_barbitur>  (68) 
0

>  <fr_benzene>  (68) 
3

>  <fr_benzodiazepine>  (68) 
0

>  <fr_bicyclic>  (68) 
1

>  <fr_diazo>  (68) 
0

>  <fr_dihydropyridine>  (68) 
0

>  <fr_epoxide>  (68) 
0

>  <fr_ester>  (68) 
1

>  <fr_ether>  (68) 
1

>  <fr_furan>  (68) 
0

>  <fr_guanido>  (68) 
0

>  <fr_halogen>  (68) 
0

>  <fr_hdrzine>  (68) 
0

>  <fr_hdrzone>  (68) 
0

>  <fr_imidazole>  (68) 
0

>  <fr_imide>  (68) 
0

>  <fr_isocyan>  (68) 
0

>  <fr_isothiocyan>  (68) 
0

>  <fr_ketone>  (68) 
0

>  <fr_ketone_Topliss>  (68) 
0

>  <fr_lactam>  (68) 
0

>  <fr_lactone>  (68) 
0

>  <fr_methoxy>  (68) 
0

>  <fr_morpholine>  (68) 
0

>  <fr_nitrile>  (68) 
0

>  <fr_nitro>  (68) 
0

>  <fr_nitro_arom>  (68) 
0

>  <fr_nitro_arom_nonortho>  (68) 
0

>  <fr_nitroso>  (68) 
0

>  <fr_oxazole>  (68) 
0

>  <fr_oxime>  (68) 
0

>  <fr_para_hydroxylation>  (68) 
0

>  <fr_phenol>  (68) 
0

>  <fr_phenol_noOrthoHbond>  (68) 
0

>  <fr_phos_acid>  (68) 
0

>  <fr_phos_ester>  (68) 
0

>  <fr_piperdine>  (68) 
0

>  <fr_piperzine>  (68) 
0

>  <fr_priamide>  (68) 
0

>  <fr_prisulfonamd>  (68) 
0

>  <fr_pyridine>  (68) 
1

>  <fr_quatN>  (68) 
0

>  <fr_sulfide>  (68) 
0

>  <fr_sulfonamd>  (68) 
0

>  <fr_sulfone>  (68) 
0

>  <fr_term_acetylene>  (68) 
0

>  <fr_tetrazole>  (68) 
0

>  <fr_thiazole>  (68) 
0

>  <fr_thiocyan>  (68) 
0

>  <fr_thiophene>  (68) 
0

>  <fr_unbrch_alkane>  (68) 
0

>  <fr_urea>  (68) 
0

>  <NP_Likeness>  (68) 
-0.929695

$$$$
nan
     RDKit          3D

  0  0  0  0  0  0  0  0  0  0999 V3000
M  V30 BEGIN CTAB
M  V30 COUNTS 69 72 0 0 0
M  V30 BEGIN ATOM
M  V30 1 C 2.854938 1.793637 5.906506 0
M  V30 2 C 2.436053 0.341243 5.929005 0
M  V30 3 O 1.620988 0.131324 4.806233 0
M  V30 4 C 1.989024 0.308454 3.485366 0
M  V30 5 C 3.211615 0.717987 2.992710 0
M  V30 6 C 3.421834 0.846875 1.637722 0
M  V30 7 N 4.623887 1.251932 1.174409 0
M  V30 8 C 4.788311 1.370847 -0.173630 0
M  V30 9 C 3.788897 1.097702 -1.092823 0
M  V30 10 C 4.032592 1.245093 -2.505262 0
M  V30 11 N 4.218845 1.362938 -3.637288 0
M  V30 12 C 2.562691 0.681205 -0.567093 0
M  V30 13 N 1.523058 0.400749 -1.457239 0
M  V30 14 C 1.123447 -0.765422 -2.151259 0
M  V30 15 C -0.009192 -0.633986 -2.924120 0
M  V30 16 C -0.398125 -1.765806 -3.608020 0
M  V30 17 C 0.245720 -2.980241 -3.574084 0
M  V30 18 O 0.103737 -4.175480 -4.102942 0
M  V30 19 C -0.626095 -4.965456 -4.920776 0
M  V30 20 C -0.724326 -4.562408 -6.357554 0
M  V30 21 C -1.367973 -3.463620 -6.850535 0
M  V30 22 C -1.446523 -3.151588 -8.184233 0
M  V30 23 C -0.868669 -3.941570 -9.125267 0
M  V30 24 C -0.227574 -5.040755 -8.594936 0
M  V30 25 N -0.156085 -5.337608 -7.294897 0
M  V30 26 C 1.394486 -3.040615 -2.761578 0
M  V30 27 Cl 2.450885 -4.429601 -2.488140 0
M  V30 28 C 1.857935 -1.928215 -2.031098 0
M  V30 29 C 2.362201 0.550393 0.805549 0
M  V30 30 C 1.118043 0.136762 1.233542 0
M  V30 31 C 0.943340 0.017696 2.610205 0
M  V30 32 N -0.357691 -0.415590 3.008963 0
M  V30 33 C -1.400130 0.522003 3.274199 0
M  V30 34 O -1.267843 1.770559 3.184555 0
M  V30 35 C -2.697947 -0.002758 3.673942 0
M  V30 36 C -3.736370 0.771064 3.946212 0
M  V30 37 C -5.105623 0.404130 4.359924 0
M  V30 38 N -5.415537 0.988493 5.675053 0
M  V30 39 C -4.602052 0.348110 6.703692 0
M  V30 40 C -5.261545 2.413306 5.697394 0
M  V30 41 H 2.356615 2.305446 6.749691 0
M  V30 42 H 2.525227 2.331624 4.995186 0
M  V30 43 H 3.965145 1.851297 6.023822 0
M  V30 44 H 1.915293 0.127428 6.870428 0
M  V30 45 H 3.356985 -0.304807 5.824470 0
M  V30 46 H 3.969866 0.921303 3.735252 0
M  V30 47 H 5.768242 1.697765 -0.491338 0
M  V30 48 H 1.052443 1.327520 -1.509939 0
M  V30 49 H -0.599741 0.261977 -3.035380 0
M  V30 50 H -1.270900 -1.776107 -4.230399 0
M  V30 51 H -1.694203 -5.103810 -4.549168 0
M  V30 52 H -0.199229 -6.018969 -4.928883 0
M  V30 53 H -1.861759 -2.794181 -6.187520 0
M  V30 54 H -1.985476 -2.245862 -8.513921 0
M  V30 55 H -0.880649 -3.770114 -10.187284 0
M  V30 56 H 0.277225 -5.757441 -9.258166 0
M  V30 57 H 2.713090 -1.878803 -1.391175 0
M  V30 58 H 0.318305 -0.085083 0.522380 0
M  V30 59 H -0.490692 -1.447237 3.093106 0
M  V30 60 H -2.911409 -1.055387 3.778313 0
M  V30 61 H -3.631919 1.845794 3.871304 0
M  V30 62 H -5.105080 -0.705098 4.561114 0
M  V30 63 H -5.883060 0.600924 3.615412 0
M  V30 64 H -3.923988 1.038476 7.208087 0
M  V30 65 H -5.327906 0.002927 7.494897 0
M  V30 66 H -4.090888 -0.537546 6.257434 0
M  V30 67 H -4.309595 2.745256 6.206023 0
M  V30 68 H -5.374730 2.915884 4.720787 0
M  V30 69 H -6.071603 2.829261 6.357384 0
M  V30 END ATOM
M  V30 BEGIN BOND
M  V30 1 1 1 2
M  V30 2 1 2 3
M  V30 3 1 3 4
M  V30 4 2 4 5
M  V30 5 1 5 6
M  V30 6 2 6 7
M  V30 7 1 7 8
M  V30 8 2 8 9
M  V30 9 1 9 10
M  V30 10 3 10 11
M  V30 11 1 9 12
M  V30 12 1 12 13
M  V30 13 1 13 14
M  V30 14 2 14 15
M  V30 15 1 15 16
M  V30 16 2 16 17
M  V30 17 1 17 18
M  V30 18 1 18 19
M  V30 19 1 19 20
M  V30 20 2 20 21
M  V30 21 1 21 22
M  V30 22 2 22 23
M  V30 23 1 23 24
M  V30 24 2 24 25
M  V30 25 1 17 26
M  V30 26 1 26 27
M  V30 27 2 26 28
M  V30 28 2 12 29
M  V30 29 1 29 30
M  V30 30 2 30 31
M  V30 31 1 31 32
M  V30 32 1 32 33
M  V30 33 2 33 34
M  V30 34 1 33 35
M  V30 35 2 35 36
M  V30 36 1 36 37
M  V30 37 1 37 38
M  V30 38 1 38 39
M  V30 39 1 38 40
M  V30 40 1 31 4
M  V30 41 1 29 6
M  V30 42 1 28 14
M  V30 43 1 25 20
M  V30 44 1 1 41
M  V30 45 1 1 42
M  V30 46 1 1 43
M  V30 47 1 2 44
M  V30 48 1 2 45
M  V30 49 1 5 46
M  V30 50 1 8 47
M  V30 51 1 13 48
M  V30 52 1 15 49
M  V30 53 1 16 50
M  V30 54 1 19 51
M  V30 55 1 19 52
M  V30 56 1 21 53
M  V30 57 1 22 54
M  V30 58 1 23 55
M  V30 59 1 24 56
M  V30 60 1 28 57
M  V30 61 1 30 58
M  V30 62 1 32 59
M  V30 63 1 35 60
M  V30 64 1 36 61
M  V30 65 1 37 62
M  V30 66 1 37 63
M  V30 67 1 39 64
M  V30 68 1 39 65
M  V30 69 1 39 66
M  V30 70 1 40 67
M  V30 71 1 40 68
M  V30 72 1 40 69
M  V30 END BOND
M  V30 END CTAB
M  END
>  <Dataset>  (69) 
PKIs

>  <Ligand_Instance>  (69) 
nan

>  <PDB_ID>  (69) 
nan

>  <Standardized_SMILES>  (69) 
CCOc1cc2ncc(C#N)c(Nc3ccc(OCc4ccccn4)c(Cl)c3)c2cc1NC(=O)/C=C/CN(C)C

>  <Name>  (69) 
Neratinib

>  <Pocket>  (69) 
nan

>  <ATP_Site>  (69) 
nan

>  <Peripheral>  (69) 
nan

>  <Num_H_Atoms_ProtBoundConf>  (69) 
nan

>  <Num_Resolved_Atoms>  (69) 
nan

>  <Num_Not_Resolved_Atoms>  (69) 
nan

>  <2D_Mol_H>  (69) 
<rdkit.Chem.rdchem.Mol object at 0x72a239141070>

>  <MW>  (69) 
557.054

>  <HBA>  (69) 
8

>  <HBD>  (69) 
2

>  <LogP>  (69) 
5.93248

>  <NRB>  (69) 
14

>  <TPSA>  (69) 
112.4

>  <Num_Heavy_Atoms>  (69) 
40

>  <Ro5>  (69) 
[False, True, True, False, False, True]

>  <Ro5_Fulfilled>  (69) 
False

>  <Ro3>  (69) 
[False, False, True, False]

>  <Ro3_Fulfilled>  (69) 
False

>  <Fsp3>  (69) 
0.2

>  <Fsp3_0.42>  (69) 
False

>  <Fsp3_0.45>  (69) 
False

>  <Stereogenic_Carbons>  (69) 
0

>  <C_Atoms>  (69) 
30

>  <FCStereo>  (69) 
0.0

>  <SPS>  (69) 
440

>  <nSPS>  (69) 
11.0

>  <PBF>  (69) 
1.13143

>  <PBF_0.6>  (69) 
True

>  <nPBF>  (69) 
0.028286

>  <nPBF_0.016>  (69) 
True

>  <PMI1>  (69) 
5063.519605

>  <PMI2>  (69) 
14059.58863

>  <PMI3>  (69) 
17296.656126

>  <NPR1>  (69) 
0.292746

>  <NPR2>  (69) 
0.81285

>  <Sum_NPR>  (69) 
1.105596

>  <Sum_NPR_1.07>  (69) 
True

>  <Sum_NPR_1.2>  (69) 
False

>  <MaxAbsEStateIndex>  (69) 
12.612779

>  <MaxEStateIndex>  (69) 
12.612779

>  <MinAbsEStateIndex>  (69) 
0.279666

>  <MinEStateIndex>  (69) 
-0.2971

>  <qed>  (69) 
0.218475

>  <MolWt>  (69) 
557.054

>  <HeavyAtomMolWt>  (69) 
527.822

>  <ExactMolWt>  (69) 
556.198966

>  <NumValenceElectrons>  (69) 
204

>  <NumRadicalElectrons>  (69) 
0

>  <MaxPartialCharge>  (69) 
0.247689

>  <MinPartialCharge>  (69) 
-0.491617

>  <MaxAbsPartialCharge>  (69) 
0.491617

>  <MinAbsPartialCharge>  (69) 
0.247689

>  <FpDensityMorgan1>  (69) 
1.125

>  <FpDensityMorgan2>  (69) 
1.975

>  <FpDensityMorgan3>  (69) 
2.675

>  <BCUT2D_MWHI>  (69) 
35.495693

>  <BCUT2D_MWLOW>  (69) 
10.076328

>  <BCUT2D_CHGHI>  (69) 
2.156897

>  <BCUT2D_CHGLO>  (69) 
-2.162549

>  <BCUT2D_LOGPHI>  (69) 
2.370629

>  <BCUT2D_LOGPLOW>  (69) 
-2.131658

>  <BCUT2D_MRHI>  (69) 
6.319391

>  <BCUT2D_MRLOW>  (69) 
-0.111485

>  <AvgIpc>  (69) 
2.935477

>  <BalabanJ>  (69) 
1.643671

>  <BertzCT>  (69) 
1567.756239

>  <Chi0>  (69) 
28.484552

>  <Chi0n>  (69) 
22.441087

>  <Chi0v>  (69) 
23.197016

>  <Chi1>  (69) 
19.371744

>  <Chi1n>  (69) 
12.58758

>  <Chi1v>  (69) 
12.965544

>  <Chi2n>  (69) 
8.991021

>  <Chi2v>  (69) 
9.398221

>  <Chi3n>  (69) 
5.690173

>  <Chi3v>  (69) 
5.985543

>  <Chi4n>  (69) 
3.832048

>  <Chi4v>  (69) 
4.067145

>  <HallKierAlpha>  (69) 
-4.65

>  <Ipc>  (69) 
786267411.034301

>  <Kappa1>  (69) 
28.360388

>  <Kappa2>  (69) 
13.422999

>  <Kappa3>  (69) 
7.256906

>  <LabuteASA>  (69) 
237.570387

>  <PEOE_VSA1>  (69) 
25.007213

>  <PEOE_VSA10>  (69) 
24.175127

>  <PEOE_VSA11>  (69) 
0.0

>  <PEOE_VSA12>  (69) 
5.90718

>  <PEOE_VSA13>  (69) 
0.0

>  <PEOE_VSA14>  (69) 
0.0

>  <PEOE_VSA2>  (69) 
14.762494

>  <PEOE_VSA3>  (69) 
0.0

>  <PEOE_VSA4>  (69) 
5.261892

>  <PEOE_VSA5>  (69) 
0.0

>  <PEOE_VSA6>  (69) 
23.743327

>  <PEOE_VSA7>  (69) 
57.417284

>  <PEOE_VSA8>  (69) 
42.154441

>  <PEOE_VSA9>  (69) 
39.778368

>  <SMR_VSA1>  (69) 
14.268263

>  <SMR_VSA10>  (69) 
45.473203

>  <SMR_VSA2>  (69) 
5.261892

>  <SMR_VSA3>  (69) 
14.867867

>  <SMR_VSA4>  (69) 
0.0

>  <SMR_VSA5>  (69) 
13.530619

>  <SMR_VSA6>  (69) 
37.88056

>  <SMR_VSA7>  (69) 
89.356677

>  <SMR_VSA8>  (69) 
0.0

>  <SMR_VSA9>  (69) 
17.568245

>  <SlogP_VSA1>  (69) 
20.107303

>  <SlogP_VSA10>  (69) 
17.062159

>  <SlogP_VSA11>  (69) 
11.499024

>  <SlogP_VSA12>  (69) 
11.60094

>  <SlogP_VSA2>  (69) 
48.022029

>  <SlogP_VSA3>  (69) 
11.401419

>  <SlogP_VSA4>  (69) 
11.331113

>  <SlogP_VSA5>  (69) 
18.181117

>  <SlogP_VSA6>  (69) 
73.076664

>  <SlogP_VSA7>  (69) 
5.022633

>  <SlogP_VSA8>  (69) 
10.902925

>  <SlogP_VSA9>  (69) 
0.0

>  <EState_VSA1>  (69) 
0.0

>  <EState_VSA10>  (69) 
10.056429

>  <EState_VSA11>  (69) 
0.0

>  <EState_VSA2>  (69) 
12.514062

>  <EState_VSA3>  (69) 
63.201831

>  <EState_VSA4>  (69) 
5.693928

>  <EState_VSA5>  (69) 
12.272864

>  <EState_VSA6>  (69) 
42.604699

>  <EState_VSA7>  (69) 
44.118092

>  <EState_VSA8>  (69) 
26.670756

>  <EState_VSA9>  (69) 
21.074666

>  <VSA_EState1>  (69) 
11.605105

>  <VSA_EState10>  (69) 
6.516716

>  <VSA_EState2>  (69) 
23.256969

>  <VSA_EState3>  (69) 
17.045027

>  <VSA_EState4>  (69) 
3.32584

>  <VSA_EState5>  (69) 
0.685871

>  <VSA_EState6>  (69) 
16.556243

>  <VSA_EState7>  (69) 
6.443304

>  <VSA_EState8>  (69) 
3.169997

>  <VSA_EState9>  (69) 
3.839372

>  <FractionCSP3>  (69) 
0.2

>  <HeavyAtomCount>  (69) 
40

>  <NHOHCount>  (69) 
2

>  <NOCount>  (69) 
9

>  <NumAliphaticCarbocycles>  (69) 
0

>  <NumAliphaticHeterocycles>  (69) 
0

>  <NumAliphaticRings>  (69) 
0

>  <NumAromaticCarbocycles>  (69) 
2

>  <NumAromaticHeterocycles>  (69) 
2

>  <NumAromaticRings>  (69) 
4

>  <NumHAcceptors>  (69) 
8

>  <NumHDonors>  (69) 
2

>  <NumHeteroatoms>  (69) 
10

>  <NumRotatableBonds>  (69) 
11

>  <NumSaturatedCarbocycles>  (69) 
0

>  <NumSaturatedHeterocycles>  (69) 
0

>  <NumSaturatedRings>  (69) 
0

>  <RingCount>  (69) 
4

>  <MolLogP>  (69) 
5.93248

>  <MolMR>  (69) 
157.2544

>  <fr_Al_COO>  (69) 
0

>  <fr_Al_OH>  (69) 
0

>  <fr_Al_OH_noTert>  (69) 
0

>  <fr_ArN>  (69) 
0

>  <fr_Ar_COO>  (69) 
0

>  <fr_Ar_N>  (69) 
2

>  <fr_Ar_NH>  (69) 
0

>  <fr_Ar_OH>  (69) 
0

>  <fr_COO>  (69) 
0

>  <fr_COO2>  (69) 
0

>  <fr_C_O>  (69) 
1

>  <fr_C_O_noCOO>  (69) 
1

>  <fr_C_S>  (69) 
0

>  <fr_HOCCN>  (69) 
0

>  <fr_Imine>  (69) 
0

>  <fr_NH0>  (69) 
4

>  <fr_NH1>  (69) 
2

>  <fr_NH2>  (69) 
0

>  <fr_N_O>  (69) 
0

>  <fr_Ndealkylation1>  (69) 
1

>  <fr_Ndealkylation2>  (69) 
0

>  <fr_Nhpyrrole>  (69) 
0

>  <fr_SH>  (69) 
0

>  <fr_aldehyde>  (69) 
0

>  <fr_alkyl_carbamate>  (69) 
0

>  <fr_alkyl_halide>  (69) 
0

>  <fr_allylic_oxid>  (69) 
0

>  <fr_amide>  (69) 
1

>  <fr_amidine>  (69) 
0

>  <fr_aniline>  (69) 
3

>  <fr_aryl_methyl>  (69) 
0

>  <fr_azide>  (69) 
0

>  <fr_azo>  (69) 
0

>  <fr_barbitur>  (69) 
0

>  <fr_benzene>  (69) 
2

>  <fr_benzodiazepine>  (69) 
0

>  <fr_bicyclic>  (69) 
1

>  <fr_diazo>  (69) 
0

>  <fr_dihydropyridine>  (69) 
0

>  <fr_epoxide>  (69) 
0

>  <fr_ester>  (69) 
0

>  <fr_ether>  (69) 
2

>  <fr_furan>  (69) 
0

>  <fr_guanido>  (69) 
0

>  <fr_halogen>  (69) 
1

>  <fr_hdrzine>  (69) 
0

>  <fr_hdrzone>  (69) 
0

>  <fr_imidazole>  (69) 
0

>  <fr_imide>  (69) 
0

>  <fr_isocyan>  (69) 
0

>  <fr_isothiocyan>  (69) 
0

>  <fr_ketone>  (69) 
0

>  <fr_ketone_Topliss>  (69) 
0

>  <fr_lactam>  (69) 
0

>  <fr_lactone>  (69) 
0

>  <fr_methoxy>  (69) 
0

>  <fr_morpholine>  (69) 
0

>  <fr_nitrile>  (69) 
1

>  <fr_nitro>  (69) 
0

>  <fr_nitro_arom>  (69) 
0

>  <fr_nitro_arom_nonortho>  (69) 
0

>  <fr_nitroso>  (69) 
0

>  <fr_oxazole>  (69) 
0

>  <fr_oxime>  (69) 
0

>  <fr_para_hydroxylation>  (69) 
0

>  <fr_phenol>  (69) 
0

>  <fr_phenol_noOrthoHbond>  (69) 
0

>  <fr_phos_acid>  (69) 
0

>  <fr_phos_ester>  (69) 
0

>  <fr_piperdine>  (69) 
0

>  <fr_piperzine>  (69) 
0

>  <fr_priamide>  (69) 
0

>  <fr_prisulfonamd>  (69) 
0

>  <fr_pyridine>  (69) 
2

>  <fr_quatN>  (69) 
0

>  <fr_sulfide>  (69) 
0

>  <fr_sulfonamd>  (69) 
0

>  <fr_sulfone>  (69) 
0

>  <fr_term_acetylene>  (69) 
0

>  <fr_tetrazole>  (69) 
0

>  <fr_thiazole>  (69) 
0

>  <fr_thiocyan>  (69) 
0

>  <fr_thiophene>  (69) 
0

>  <fr_unbrch_alkane>  (69) 
0

>  <fr_urea>  (69) 
0

>  <NP_Likeness>  (69) 
-1.647103

$$$$
nan
     RDKit          3D

  0  0  0  0  0  0  0  0  0  0999 V3000
M  V30 BEGIN CTAB
M  V30 COUNTS 69 73 0 0 0
M  V30 BEGIN ATOM
M  V30 1 C 3.204152 -2.583726 5.015570 0
M  V30 2 C 4.263011 -2.680761 3.934964 0
M  V30 3 N 3.606068 -2.944329 2.675078 0
M  V30 4 C 2.838064 -1.779273 2.287772 0
M  V30 5 C 2.782584 -1.779084 0.777158 0
M  V30 6 N 4.053788 -1.368141 0.285035 0
M  V30 7 C 4.330338 0.023514 0.295691 0
M  V30 8 C 3.323147 0.773595 -0.501591 0
M  V30 9 C 3.362534 1.050722 -1.852926 0
M  V30 10 C 2.345500 1.758985 -2.459161 0
M  V30 11 C 1.248548 2.224584 -1.764649 0
M  V30 12 N 0.174168 2.950266 -2.395009 0
M  V30 13 C -0.885224 3.367347 -1.505674 0
M  V30 14 N -1.220283 4.645349 -1.241238 0
M  V30 15 C -2.228156 4.903745 -0.369895 0
M  V30 16 C -2.920285 3.884376 0.254048 0
M  V30 17 F -3.926076 4.023639 1.126609 0
M  V30 18 C -2.575507 2.589175 -0.018266 0
M  V30 19 C -3.151448 1.341194 0.529240 0
M  V30 20 C -3.404851 1.289317 1.894830 0
M  V30 21 C -3.929475 0.111461 2.397786 0
M  V30 22 F -4.217499 -0.055248 3.714453 0
M  V30 23 C -4.180821 -0.954614 1.548666 0
M  V30 24 N -4.677953 -2.212633 1.731088 0
M  V30 25 C -4.709530 -2.842233 0.554897 0
M  V30 26 C -5.209312 -4.248784 0.443486 0
M  V30 27 N -4.238208 -2.028254 -0.438252 0
M  V30 28 C -4.136867 -2.394145 -1.837461 0
M  V30 29 C -5.426279 -2.011446 -2.580894 0
M  V30 30 C -2.922611 -1.885846 -2.530847 0
M  V30 31 C -3.924410 -0.887377 0.196414 0
M  V30 32 C -3.402242 0.279041 -0.316895 0
M  V30 33 N -1.560692 2.358358 -0.896817 0
M  V30 34 N 1.238258 1.940108 -0.450163 0
M  V30 35 C 2.201642 1.255398 0.185286 0
M  V30 36 C 5.073558 -2.207564 0.823510 0
M  V30 37 C 4.553260 -3.346427 1.679469 0
M  V30 38 H 2.285864 -3.108572 4.660924 0
M  V30 39 H 3.013679 -1.543243 5.343065 0
M  V30 40 H 3.553540 -3.135124 5.913790 0
M  V30 41 H 4.989547 -3.505904 4.159729 0
M  V30 42 H 4.776678 -1.699022 3.874719 0
M  V30 43 H 3.344634 -0.852355 2.619507 0
M  V30 44 H 1.828255 -1.746674 2.745901 0
M  V30 45 H 2.506311 -2.815533 0.413831 0
M  V30 46 H 1.918981 -1.157791 0.466757 0
M  V30 47 H 4.277315 0.399531 1.335805 0
M  V30 48 H 5.365809 0.238558 -0.045616 0
M  V30 49 H 4.224388 0.678409 -2.371164 0
M  V30 50 H 2.404601 1.961670 -3.526942 0
M  V30 51 H 0.259004 3.105363 -3.420861 0
M  V30 52 H -2.518778 5.916122 -0.138553 0
M  V30 53 H -3.219823 2.097513 2.567497 0
M  V30 54 H -5.316502 -4.573852 -0.592191 0
M  V30 55 H -6.120983 -4.326588 1.042423 0
M  V30 56 H -4.446699 -4.894857 0.958330 0
M  V30 57 H -4.091443 -3.504021 -1.884898 0
M  V30 58 H -6.099247 -2.902213 -2.707840 0
M  V30 59 H -6.004185 -1.314002 -1.921584 0
M  V30 60 H -5.206175 -1.590318 -3.577985 0
M  V30 61 H -2.512741 -2.657555 -3.249696 0
M  V30 62 H -3.210279 -1.049285 -3.233403 0
M  V30 63 H -2.076603 -1.647315 -1.880064 0
M  V30 64 H -3.175791 0.416165 -1.342292 0
M  V30 65 H 2.014966 1.129160 1.238166 0
M  V30 66 H 5.653618 -2.717766 -0.003451 0
M  V30 67 H 5.814410 -1.614236 1.406055 0
M  V30 68 H 4.174327 -4.191068 1.044976 0
M  V30 69 H 5.451264 -3.761263 2.218076 0
M  V30 END ATOM
M  V30 BEGIN BOND
M  V30 1 1 1 2
M  V30 2 1 2 3
M  V30 3 1 3 4
M  V30 4 1 4 5
M  V30 5 1 5 6
M  V30 6 1 6 7
M  V30 7 1 7 8
M  V30 8 2 8 9
M  V30 9 1 9 10
M  V30 10 2 10 11
M  V30 11 1 11 12
M  V30 12 1 12 13
M  V30 13 2 13 14
M  V30 14 1 14 15
M  V30 15 2 15 16
M  V30 16 1 16 17
M  V30 17 1 16 18
M  V30 18 1 18 19
M  V30 19 2 19 20
M  V30 20 1 20 21
M  V30 21 1 21 22
M  V30 22 2 21 23
M  V30 23 1 23 24
M  V30 24 2 24 25
M  V30 25 1 25 26
M  V30 26 1 25 27
M  V30 27 1 27 28
M  V30 28 1 28 29
M  V30 29 1 28 30
M  V30 30 1 27 31
M  V30 31 2 31 32
M  V30 32 2 18 33
M  V30 33 1 11 34
M  V30 34 2 34 35
M  V30 35 1 6 36
M  V30 36 1 36 37
M  V30 37 1 37 3
M  V30 38 1 35 8
M  V30 39 1 33 13
M  V30 40 1 32 19
M  V30 41 1 31 23
M  V30 42 1 1 38
M  V30 43 1 1 39
M  V30 44 1 1 40
M  V30 45 1 2 41
M  V30 46 1 2 42
M  V30 47 1 4 43
M  V30 48 1 4 44
M  V30 49 1 5 45
M  V30 50 1 5 46
M  V30 51 1 7 47
M  V30 52 1 7 48
M  V30 53 1 9 49
M  V30 54 1 10 50
M  V30 55 1 12 51
M  V30 56 1 15 52
M  V30 57 1 20 53
M  V30 58 1 26 54
M  V30 59 1 26 55
M  V30 60 1 26 56
M  V30 61 1 28 57
M  V30 62 1 29 58
M  V30 63 1 29 59
M  V30 64 1 29 60
M  V30 65 1 30 61
M  V30 66 1 30 62
M  V30 67 1 30 63
M  V30 68 1 32 64
M  V30 69 1 35 65
M  V30 70 1 36 66
M  V30 71 1 36 67
M  V30 72 1 37 68
M  V30 73 1 37 69
M  V30 END BOND
M  V30 END CTAB
M  END
>  <Dataset>  (70) 
PKIs

>  <Ligand_Instance>  (70) 
nan

>  <PDB_ID>  (70) 
nan

>  <Standardized_SMILES>  (70) 
CCN1CCN(Cc2ccc(Nc3ncc(F)c(-c4cc(F)c5nc(C)n(C(C)C)c5c4)n3)nc2)CC1

>  <Name>  (70) 
Abemaciclib

>  <Pocket>  (70) 
nan

>  <ATP_Site>  (70) 
nan

>  <Peripheral>  (70) 
nan

>  <Num_H_Atoms_ProtBoundConf>  (70) 
nan

>  <Num_Resolved_Atoms>  (70) 
nan

>  <Num_Not_Resolved_Atoms>  (70) 
nan

>  <2D_Mol_H>  (70) 
<rdkit.Chem.rdchem.Mol object at 0x72a239141150>

>  <MW>  (70) 
506.605

>  <HBA>  (70) 
8

>  <HBD>  (70) 
1

>  <LogP>  (70) 
4.93692

>  <NRB>  (70) 
11

>  <TPSA>  (70) 
75.0

>  <Num_Heavy_Atoms>  (70) 
37

>  <Ro5>  (70) 
[False, True, True, True, False, True]

>  <Ro5_Fulfilled>  (70) 
False

>  <Ro3>  (70) 
[False, False, True, False]

>  <Ro3_Fulfilled>  (70) 
False

>  <Fsp3>  (70) 
0.407407

>  <Fsp3_0.42>  (70) 
False

>  <Fsp3_0.45>  (70) 
False

>  <Stereogenic_Carbons>  (70) 
0

>  <C_Atoms>  (70) 
27

>  <FCStereo>  (70) 
0.0

>  <SPS>  (70) 
559

>  <nSPS>  (70) 
15.108108

>  <PBF>  (70) 
1.577114

>  <PBF_0.6>  (70) 
True

>  <nPBF>  (70) 
0.042625

>  <nPBF_0.016>  (70) 
True

>  <PMI1>  (70) 
4868.073858

>  <PMI2>  (70) 
7797.840093

>  <PMI3>  (70) 
9812.153699

>  <NPR1>  (70) 
0.496127

>  <NPR2>  (70) 
0.794712

>  <Sum_NPR>  (70) 
1.290839

>  <Sum_NPR_1.07>  (70) 
True

>  <Sum_NPR_1.2>  (70) 
True

>  <MaxAbsEStateIndex>  (70) 
14.938285

>  <MaxEStateIndex>  (70) 
14.938285

>  <MinAbsEStateIndex>  (70) 
0.009538

>  <MinEStateIndex>  (70) 
-0.636008

>  <qed>  (70) 
0.380688

>  <MolWt>  (70) 
506.605

>  <HeavyAtomMolWt>  (70) 
474.349

>  <ExactMolWt>  (70) 
506.271799

>  <NumValenceElectrons>  (70) 
194

>  <NumRadicalElectrons>  (70) 
0

>  <MaxPartialCharge>  (70) 
0.228596

>  <MinPartialCharge>  (70) 
-0.325554

>  <MaxAbsPartialCharge>  (70) 
0.325554

>  <MinAbsPartialCharge>  (70) 
0.228596

>  <FpDensityMorgan1>  (70) 
0.945946

>  <FpDensityMorgan2>  (70) 
1.702703

>  <FpDensityMorgan3>  (70) 
2.378378

>  <BCUT2D_MWHI>  (70) 
19.143631

>  <BCUT2D_MWLOW>  (70) 
10.101923

>  <BCUT2D_CHGHI>  (70) 
2.188547

>  <BCUT2D_CHGLO>  (70) 
-2.334579

>  <BCUT2D_LOGPHI>  (70) 
2.300838

>  <BCUT2D_LOGPLOW>  (70) 
-2.450946

>  <BCUT2D_MRHI>  (70) 
5.82705

>  <BCUT2D_MRLOW>  (70) 
0.131605

>  <AvgIpc>  (70) 
3.231747

>  <BalabanJ>  (70) 
1.347618

>  <BertzCT>  (70) 
1392.051065

>  <Chi0>  (70) 
26.103719

>  <Chi0n>  (70) 
21.670517

>  <Chi0v>  (70) 
21.670517

>  <Chi1>  (70) 
17.816902

>  <Chi1n>  (70) 
12.696877

>  <Chi1v>  (70) 
12.696877

>  <Chi2n>  (70) 
9.72582

>  <Chi2v>  (70) 
9.72582

>  <Chi3n>  (70) 
6.841926

>  <Chi3v>  (70) 
6.841926

>  <Chi4n>  (70) 
4.915554

>  <Chi4v>  (70) 
4.915554

>  <HallKierAlpha>  (70) 
-3.5

>  <Ipc>  (70) 
263232330.719643

>  <Kappa1>  (70) 
25.162222

>  <Kappa2>  (70) 
10.469321

>  <Kappa3>  (70) 
5.303824

>  <LabuteASA>  (70) 
214.934112

>  <PEOE_VSA1>  (70) 
14.783798

>  <PEOE_VSA10>  (70) 
22.852896

>  <PEOE_VSA11>  (70) 
11.634442

>  <PEOE_VSA12>  (70) 
5.948339

>  <PEOE_VSA13>  (70) 
0.0

>  <PEOE_VSA14>  (70) 
0.0

>  <PEOE_VSA2>  (70) 
4.89991

>  <PEOE_VSA3>  (70) 
28.716744

>  <PEOE_VSA4>  (70) 
0.0

>  <PEOE_VSA5>  (70) 
0.0

>  <PEOE_VSA6>  (70) 
12.990104

>  <PEOE_VSA7>  (70) 
51.078521

>  <PEOE_VSA8>  (70) 
50.525918

>  <PEOE_VSA9>  (70) 
11.713544

>  <SMR_VSA1>  (70) 
8.78083

>  <SMR_VSA10>  (70) 
22.799603

>  <SMR_VSA2>  (70) 
0.0

>  <SMR_VSA3>  (70) 
34.302833

>  <SMR_VSA4>  (70) 
0.0

>  <SMR_VSA5>  (70) 
40.281546

>  <SMR_VSA6>  (70) 
38.040571

>  <SMR_VSA7>  (70) 
59.681453

>  <SMR_VSA8>  (70) 
0.0

>  <SMR_VSA9>  (70) 
11.257379

>  <SlogP_VSA1>  (70) 
5.316789

>  <SlogP_VSA10>  (70) 
20.547032

>  <SlogP_VSA11>  (70) 
0.0

>  <SlogP_VSA12>  (70) 
0.0

>  <SlogP_VSA2>  (70) 
67.026615

>  <SlogP_VSA3>  (70) 
6.544756

>  <SlogP_VSA4>  (70) 
18.558179

>  <SlogP_VSA5>  (70) 
38.200908

>  <SlogP_VSA6>  (70) 
36.659155

>  <SlogP_VSA7>  (70) 
0.0

>  <SlogP_VSA8>  (70) 
22.290781

>  <SlogP_VSA9>  (70) 
0.0

>  <EState_VSA1>  (70) 
11.634442

>  <EState_VSA10>  (70) 
8.78083

>  <EState_VSA11>  (70) 
0.0

>  <EState_VSA2>  (70) 
23.200809

>  <EState_VSA3>  (70) 
22.722419

>  <EState_VSA4>  (70) 
51.028833

>  <EState_VSA5>  (70) 
6.066367

>  <EState_VSA6>  (70) 
6.066367

>  <EState_VSA7>  (70) 
43.667889

>  <EState_VSA8>  (70) 
41.976259

>  <EState_VSA9>  (70) 
0.0

>  <VSA_EState1>  (70) 
31.65596

>  <VSA_EState10>  (70) 
0.0

>  <VSA_EState2>  (70) 
22.132249

>  <VSA_EState3>  (70) 
3.039477

>  <VSA_EState4>  (70) 
2.315978

>  <VSA_EState5>  (70) 
0.274948

>  <VSA_EState6>  (70) 
6.939818

>  <VSA_EState7>  (70) 
2.916417

>  <VSA_EState8>  (70) 
14.225154

>  <VSA_EState9>  (70) 
0.0

>  <FractionCSP3>  (70) 
0.407407

>  <HeavyAtomCount>  (70) 
37

>  <NHOHCount>  (70) 
1

>  <NOCount>  (70) 
8

>  <NumAliphaticCarbocycles>  (70) 
0

>  <NumAliphaticHeterocycles>  (70) 
1

>  <NumAliphaticRings>  (70) 
1

>  <NumAromaticCarbocycles>  (70) 
1

>  <NumAromaticHeterocycles>  (70) 
3

>  <NumAromaticRings>  (70) 
4

>  <NumHAcceptors>  (70) 
8

>  <NumHDonors>  (70) 
1

>  <NumHeteroatoms>  (70) 
10

>  <NumRotatableBonds>  (70) 
7

>  <NumSaturatedCarbocycles>  (70) 
0

>  <NumSaturatedHeterocycles>  (70) 
1

>  <NumSaturatedRings>  (70) 
1

>  <RingCount>  (70) 
5

>  <MolLogP>  (70) 
4.93692

>  <MolMR>  (70) 
140.7077

>  <fr_Al_COO>  (70) 
0

>  <fr_Al_OH>  (70) 
0

>  <fr_Al_OH_noTert>  (70) 
0

>  <fr_ArN>  (70) 
0

>  <fr_Ar_COO>  (70) 
0

>  <fr_Ar_N>  (70) 
5

>  <fr_Ar_NH>  (70) 
0

>  <fr_Ar_OH>  (70) 
0

>  <fr_COO>  (70) 
0

>  <fr_COO2>  (70) 
0

>  <fr_C_O>  (70) 
0

>  <fr_C_O_noCOO>  (70) 
0

>  <fr_C_S>  (70) 
0

>  <fr_HOCCN>  (70) 
0

>  <fr_Imine>  (70) 
0

>  <fr_NH0>  (70) 
7

>  <fr_NH1>  (70) 
1

>  <fr_NH2>  (70) 
0

>  <fr_N_O>  (70) 
0

>  <fr_Ndealkylation1>  (70) 
1

>  <fr_Ndealkylation2>  (70) 
0

>  <fr_Nhpyrrole>  (70) 
0

>  <fr_SH>  (70) 
0

>  <fr_aldehyde>  (70) 
0

>  <fr_alkyl_carbamate>  (70) 
0

>  <fr_alkyl_halide>  (70) 
0

>  <fr_allylic_oxid>  (70) 
0

>  <fr_amide>  (70) 
0

>  <fr_amidine>  (70) 
0

>  <fr_aniline>  (70) 
2

>  <fr_aryl_methyl>  (70) 
1

>  <fr_azide>  (70) 
0

>  <fr_azo>  (70) 
0

>  <fr_barbitur>  (70) 
0

>  <fr_benzene>  (70) 
1

>  <fr_benzodiazepine>  (70) 
0

>  <fr_bicyclic>  (70) 
1

>  <fr_diazo>  (70) 
0

>  <fr_dihydropyridine>  (70) 
0

>  <fr_epoxide>  (70) 
0

>  <fr_ester>  (70) 
0

>  <fr_ether>  (70) 
0

>  <fr_furan>  (70) 
0

>  <fr_guanido>  (70) 
0

>  <fr_halogen>  (70) 
2

>  <fr_hdrzine>  (70) 
0

>  <fr_hdrzone>  (70) 
0

>  <fr_imidazole>  (70) 
1

>  <fr_imide>  (70) 
0

>  <fr_isocyan>  (70) 
0

>  <fr_isothiocyan>  (70) 
0

>  <fr_ketone>  (70) 
0

>  <fr_ketone_Topliss>  (70) 
0

>  <fr_lactam>  (70) 
0

>  <fr_lactone>  (70) 
0

>  <fr_methoxy>  (70) 
0

>  <fr_morpholine>  (70) 
0

>  <fr_nitrile>  (70) 
0

>  <fr_nitro>  (70) 
0

>  <fr_nitro_arom>  (70) 
0

>  <fr_nitro_arom_nonortho>  (70) 
0

>  <fr_nitroso>  (70) 
0

>  <fr_oxazole>  (70) 
0

>  <fr_oxime>  (70) 
0

>  <fr_para_hydroxylation>  (70) 
0

>  <fr_phenol>  (70) 
0

>  <fr_phenol_noOrthoHbond>  (70) 
0

>  <fr_phos_acid>  (70) 
0

>  <fr_phos_ester>  (70) 
0

>  <fr_piperdine>  (70) 
0

>  <fr_piperzine>  (70) 
1

>  <fr_priamide>  (70) 
0

>  <fr_prisulfonamd>  (70) 
0

>  <fr_pyridine>  (70) 
1

>  <fr_quatN>  (70) 
0

>  <fr_sulfide>  (70) 
0

>  <fr_sulfonamd>  (70) 
0

>  <fr_sulfone>  (70) 
0

>  <fr_term_acetylene>  (70) 
0

>  <fr_tetrazole>  (70) 
0

>  <fr_thiazole>  (70) 
0

>  <fr_thiocyan>  (70) 
0

>  <fr_thiophene>  (70) 
0

>  <fr_unbrch_alkane>  (70) 
0

>  <fr_urea>  (70) 
0

>  <NP_Likeness>  (70) 
-1.555056

$$$$
nan
     RDKit          3D

  0  0  0  0  0  0  0  0  0  0999 V3000
M  V30 BEGIN CTAB
M  V30 COUNTS 61 65 0 0 0
M  V30 BEGIN ATOM
M  V30 1 C 3.938526 -3.998557 2.541454 0
M  V30 2 C 4.319917 -2.827131 2.985807 0
M  V30 3 C 4.311365 -2.011857 1.772879 0
M  V30 4 O 3.951102 -2.737713 0.810291 0
M  V30 5 N 4.678034 -0.638500 1.845710 0
M  V30 6 C 4.732269 0.310566 0.790975 0
M  V30 7 C 5.865278 0.532855 0.029111 0
M  V30 8 C 5.920592 1.454759 -0.996443 0
M  V30 9 C 4.758147 2.187091 -1.256782 0
M  V30 10 C 3.589020 1.995174 -0.511299 0
M  V30 11 O 2.596035 2.812036 -0.941221 0
M  V30 12 C 1.316691 2.929093 -0.481064 0
M  V30 13 N 0.757805 2.235916 0.526898 0
M  V30 14 C -0.546611 2.542245 0.793410 0
M  V30 15 N -1.180703 1.819468 1.867643 0
M  V30 16 C -1.840908 0.606877 1.517105 0
M  V30 17 C -1.855135 0.170338 0.206512 0
M  V30 18 C -2.494327 -1.003433 -0.132487 0
M  V30 19 C -3.143802 -1.797706 0.788458 0
M  V30 20 N -3.798581 -3.002840 0.439483 0
M  V30 21 C -4.521904 -3.871399 1.328510 0
M  V30 22 C -3.794401 -5.192715 1.472275 0
M  V30 23 N -3.303609 -5.658791 0.190075 0
M  V30 24 C -1.867024 -5.502734 0.076539 0
M  V30 25 C -4.007314 -4.995148 -0.889498 0
M  V30 26 C -3.803339 -3.501334 -0.907556 0
M  V30 27 C -3.108118 -1.330024 2.084593 0
M  V30 28 C -2.480884 -0.162326 2.467391 0
M  V30 29 N -1.262081 3.451806 0.135774 0
M  V30 30 C -0.729886 4.176064 -0.893595 0
M  V30 31 C -1.414230 5.116808 -1.598992 0
M  V30 32 C -0.721559 5.747902 -2.600649 0
M  V30 33 S 1.004128 4.959515 -2.538227 0
M  V30 34 C 0.603516 3.890762 -1.196299 0
M  V30 35 C 3.626943 1.067963 0.477249 0
M  V30 36 H 3.791409 -4.938149 3.067371 0
M  V30 37 H 3.615487 -4.877353 2.002413 0
M  V30 38 H 4.509331 -2.847356 4.067735 0
M  V30 39 H 4.942702 -0.272830 2.793559 0
M  V30 40 H 6.768481 -0.039871 0.235492 0
M  V30 41 H 6.832829 1.583268 -1.555048 0
M  V30 42 H 4.891751 2.891849 -2.082576 0
M  V30 43 H -1.190024 2.117683 2.867702 0
M  V30 44 H -1.356484 0.763893 -0.551422 0
M  V30 45 H -2.460417 -1.274167 -1.175340 0
M  V30 46 H -4.669238 -3.467840 2.348313 0
M  V30 47 H -5.529353 -4.038971 0.894673 0
M  V30 48 H -4.554777 -5.923787 1.818995 0
M  V30 49 H -2.942331 -5.112158 2.152660 0
M  V30 50 H -1.647717 -4.500014 -0.359482 0
M  V30 51 H -1.430162 -5.572120 1.111646 0
M  V30 52 H -1.388192 -6.306985 -0.521345 0
M  V30 53 H -5.089654 -5.181109 -0.735372 0
M  V30 54 H -3.716399 -5.476882 -1.839752 0
M  V30 55 H -4.704402 -3.063292 -1.427638 0
M  V30 56 H -2.888185 -3.231625 -1.494690 0
M  V30 57 H -3.571137 -1.850442 2.888853 0
M  V30 58 H -2.448350 0.211037 3.479786 0
M  V30 59 H -2.439513 5.426009 -1.463437 0
M  V30 60 H -1.148592 6.582633 -3.309204 0
M  V30 61 H 2.700171 0.962934 1.017508 0
M  V30 END ATOM
M  V30 BEGIN BOND
M  V30 1 2 1 2
M  V30 2 1 2 3
M  V30 3 2 3 4
M  V30 4 1 3 5
M  V30 5 1 5 6
M  V30 6 2 6 7
M  V30 7 1 7 8
M  V30 8 2 8 9
M  V30 9 1 9 10
M  V30 10 1 10 11
M  V30 11 1 11 12
M  V30 12 2 12 13
M  V30 13 1 13 14
M  V30 14 1 14 15
M  V30 15 1 15 16
M  V30 16 2 16 17
M  V30 17 1 17 18
M  V30 18 2 18 19
M  V30 19 1 19 20
M  V30 20 1 20 21
M  V30 21 1 21 22
M  V30 22 1 22 23
M  V30 23 1 23 24
M  V30 24 1 23 25
M  V30 25 1 25 26
M  V30 26 1 19 27
M  V30 27 2 27 28
M  V30 28 2 14 29
M  V30 29 1 29 30
M  V30 30 1 30 31
M  V30 31 2 31 32
M  V30 32 1 32 33
M  V30 33 1 33 34
M  V30 34 2 10 35
M  V30 35 1 35 6
M  V30 36 1 34 12
M  V30 37 1 28 16
M  V30 38 2 34 30
M  V30 39 1 26 20
M  V30 40 1 1 36
M  V30 41 1 1 37
M  V30 42 1 2 38
M  V30 43 1 5 39
M  V30 44 1 7 40
M  V30 45 1 8 41
M  V30 46 1 9 42
M  V30 47 1 15 43
M  V30 48 1 17 44
M  V30 49 1 18 45
M  V30 50 1 21 46
M  V30 51 1 21 47
M  V30 52 1 22 48
M  V30 53 1 22 49
M  V30 54 1 24 50
M  V30 55 1 24 51
M  V30 56 1 24 52
M  V30 57 1 25 53
M  V30 58 1 25 54
M  V30 59 1 26 55
M  V30 60 1 26 56
M  V30 61 1 27 57
M  V30 62 1 28 58
M  V30 63 1 31 59
M  V30 64 1 32 60
M  V30 65 1 35 61
M  V30 END BOND
M  V30 END CTAB
M  END
>  <Dataset>  (71) 
PKIs

>  <Ligand_Instance>  (71) 
nan

>  <PDB_ID>  (71) 
nan

>  <Standardized_SMILES>  (71) 
C=CC(=O)Nc1cccc(Oc2nc(Nc3ccc(N4CCN(C)CC4)cc3)nc3ccsc23)c1

>  <Name>  (71) 
Olmutinib

>  <Pocket>  (71) 
nan

>  <ATP_Site>  (71) 
nan

>  <Peripheral>  (71) 
nan

>  <Num_H_Atoms_ProtBoundConf>  (71) 
nan

>  <Num_Resolved_Atoms>  (71) 
nan

>  <Num_Not_Resolved_Atoms>  (71) 
nan

>  <2D_Mol_H>  (71) 
<rdkit.Chem.rdchem.Mol object at 0x72a239141230>

>  <MW>  (71) 
486.601

>  <HBA>  (71) 
8

>  <HBD>  (71) 
2

>  <LogP>  (71) 
5.1035

>  <NRB>  (71) 
8

>  <TPSA>  (71) 
82.62

>  <Num_Heavy_Atoms>  (71) 
35

>  <Ro5>  (71) 
[True, True, True, False, True, True]

>  <Ro5_Fulfilled>  (71) 
True

>  <Ro3>  (71) 
[False, False, True, False]

>  <Ro3_Fulfilled>  (71) 
False

>  <Fsp3>  (71) 
0.192308

>  <Fsp3_0.42>  (71) 
False

>  <Fsp3_0.45>  (71) 
False

>  <Stereogenic_Carbons>  (71) 
0

>  <C_Atoms>  (71) 
26

>  <FCStereo>  (71) 
0.0

>  <SPS>  (71) 
491

>  <nSPS>  (71) 
14.028571

>  <PBF>  (71) 
1.156371

>  <PBF_0.6>  (71) 
True

>  <nPBF>  (71) 
0.033039

>  <nPBF_0.016>  (71) 
True

>  <PMI1>  (71) 
4679.918228

>  <PMI2>  (71) 
7638.969876

>  <PMI3>  (71) 
11025.81402

>  <NPR1>  (71) 
0.424451

>  <NPR2>  (71) 
0.692826

>  <Sum_NPR>  (71) 
1.117277

>  <Sum_NPR_1.07>  (71) 
True

>  <Sum_NPR_1.2>  (71) 
False

>  <MaxAbsEStateIndex>  (71) 
11.631342

>  <MaxEStateIndex>  (71) 
11.631342

>  <MinAbsEStateIndex>  (71) 
0.282444

>  <MinEStateIndex>  (71) 
-0.282444

>  <qed>  (71) 
0.351629

>  <MolWt>  (71) 
486.601

>  <HeavyAtomMolWt>  (71) 
460.393

>  <ExactMolWt>  (71) 
486.183795

>  <NumValenceElectrons>  (71) 
178

>  <NumRadicalElectrons>  (71) 
0

>  <MaxPartialCharge>  (71) 
0.247265

>  <MinPartialCharge>  (71) 
-0.437339

>  <MaxAbsPartialCharge>  (71) 
0.437339

>  <MinAbsPartialCharge>  (71) 
0.247265

>  <FpDensityMorgan1>  (71) 
1.057143

>  <FpDensityMorgan2>  (71) 
1.857143

>  <FpDensityMorgan3>  (71) 
2.628571

>  <BCUT2D_MWHI>  (71) 
32.133447

>  <BCUT2D_MWLOW>  (71) 
10.2027

>  <BCUT2D_CHGHI>  (71) 
2.15042

>  <BCUT2D_CHGLO>  (71) 
-2.336423

>  <BCUT2D_LOGPHI>  (71) 
2.335516

>  <BCUT2D_LOGPLOW>  (71) 
-2.439808

>  <BCUT2D_MRHI>  (71) 
7.170439

>  <BCUT2D_MRLOW>  (71) 
-0.11143

>  <AvgIpc>  (71) 
3.342774

>  <BalabanJ>  (71) 
1.345337

>  <BertzCT>  (71) 
1345.72821

>  <Chi0>  (71) 
24.200095

>  <Chi0n>  (71) 
19.399986

>  <Chi0v>  (71) 
20.216483

>  <Chi1>  (71) 
17.068015

>  <Chi1n>  (71) 
11.344024

>  <Chi1v>  (71) 
12.223677

>  <Chi2n>  (71) 
8.272798

>  <Chi2v>  (71) 
9.188914

>  <Chi3n>  (71) 
5.76585

>  <Chi3v>  (71) 
6.657476

>  <Chi4n>  (71) 
3.853296

>  <Chi4v>  (71) 
4.608878

>  <HallKierAlpha>  (71) 
-3.95

>  <Ipc>  (71) 
143553476.846229

>  <Kappa1>  (71) 
22.823094

>  <Kappa2>  (71) 
10.123451

>  <Kappa3>  (71) 
5.419567

>  <LabuteASA>  (71) 
207.425477

>  <PEOE_VSA1>  (71) 
25.17026

>  <PEOE_VSA10>  (71) 
10.449432

>  <PEOE_VSA11>  (71) 
0.0

>  <PEOE_VSA12>  (71) 
17.735507

>  <PEOE_VSA13>  (71) 
0.0

>  <PEOE_VSA14>  (71) 
0.0

>  <PEOE_VSA2>  (71) 
4.794537

>  <PEOE_VSA3>  (71) 
4.983979

>  <PEOE_VSA4>  (71) 
4.983979

>  <PEOE_VSA5>  (71) 
11.336786

>  <PEOE_VSA6>  (71) 
12.645303

>  <PEOE_VSA7>  (71) 
60.968324

>  <PEOE_VSA8>  (71) 
49.307552

>  <PEOE_VSA9>  (71) 
5.516701

>  <SMR_VSA1>  (71) 
9.5314

>  <SMR_VSA10>  (71) 
50.471084

>  <SMR_VSA2>  (71) 
0.0

>  <SMR_VSA3>  (71) 
14.867867

>  <SMR_VSA4>  (71) 
0.0

>  <SMR_VSA5>  (71) 
0.0

>  <SMR_VSA6>  (71) 
48.760185

>  <SMR_VSA7>  (71) 
72.632322

>  <SMR_VSA8>  (71) 
0.0

>  <SMR_VSA9>  (71) 
11.6295

>  <SlogP_VSA1>  (71) 
20.27035

>  <SlogP_VSA10>  (71) 
23.010498

>  <SlogP_VSA11>  (71) 
11.6295

>  <SlogP_VSA12>  (71) 
11.336786

>  <SlogP_VSA2>  (71) 
54.001744

>  <SlogP_VSA3>  (71) 
4.794537

>  <SlogP_VSA4>  (71) 
0.0

>  <SlogP_VSA5>  (71) 
0.0

>  <SlogP_VSA6>  (71) 
72.632322

>  <SlogP_VSA7>  (71) 
0.0

>  <SlogP_VSA8>  (71) 
10.216621

>  <SlogP_VSA9>  (71) 
0.0

>  <EState_VSA1>  (71) 
0.0

>  <EState_VSA10>  (71) 
4.794537

>  <EState_VSA11>  (71) 
0.0

>  <EState_VSA2>  (71) 
5.90718

>  <EState_VSA3>  (71) 
23.265226

>  <EState_VSA4>  (71) 
42.083033

>  <EState_VSA5>  (71) 
23.100192

>  <EState_VSA6>  (71) 
12.132734

>  <EState_VSA7>  (71) 
35.711898

>  <EState_VSA8>  (71) 
56.160696

>  <EState_VSA9>  (71) 
4.736863

>  <VSA_EState1>  (71) 
6.971478

>  <VSA_EState10>  (71) 
1.514819

>  <VSA_EState2>  (71) 
25.657367

>  <VSA_EState3>  (71) 
8.000776

>  <VSA_EState4>  (71) 
3.526098

>  <VSA_EState5>  (71) 
1.181313

>  <VSA_EState6>  (71) 
17.422349

>  <VSA_EState7>  (71) 
1.22496

>  <VSA_EState8>  (71) 
7.67734

>  <VSA_EState9>  (71) 
2.156832

>  <FractionCSP3>  (71) 
0.192308

>  <HeavyAtomCount>  (71) 
35

>  <NHOHCount>  (71) 
2

>  <NOCount>  (71) 
8

>  <NumAliphaticCarbocycles>  (71) 
0

>  <NumAliphaticHeterocycles>  (71) 
1

>  <NumAliphaticRings>  (71) 
1

>  <NumAromaticCarbocycles>  (71) 
2

>  <NumAromaticHeterocycles>  (71) 
2

>  <NumAromaticRings>  (71) 
4

>  <NumHAcceptors>  (71) 
8

>  <NumHDonors>  (71) 
2

>  <NumHeteroatoms>  (71) 
9

>  <NumRotatableBonds>  (71) 
7

>  <NumSaturatedCarbocycles>  (71) 
0

>  <NumSaturatedHeterocycles>  (71) 
1

>  <NumSaturatedRings>  (71) 
1

>  <RingCount>  (71) 
5

>  <MolLogP>  (71) 
5.1035

>  <MolMR>  (71) 
142.1924

>  <fr_Al_COO>  (71) 
0

>  <fr_Al_OH>  (71) 
0

>  <fr_Al_OH_noTert>  (71) 
0

>  <fr_ArN>  (71) 
0

>  <fr_Ar_COO>  (71) 
0

>  <fr_Ar_N>  (71) 
2

>  <fr_Ar_NH>  (71) 
0

>  <fr_Ar_OH>  (71) 
0

>  <fr_COO>  (71) 
0

>  <fr_COO2>  (71) 
0

>  <fr_C_O>  (71) 
1

>  <fr_C_O_noCOO>  (71) 
1

>  <fr_C_S>  (71) 
0

>  <fr_HOCCN>  (71) 
0

>  <fr_Imine>  (71) 
0

>  <fr_NH0>  (71) 
4

>  <fr_NH1>  (71) 
2

>  <fr_NH2>  (71) 
0

>  <fr_N_O>  (71) 
0

>  <fr_Ndealkylation1>  (71) 
1

>  <fr_Ndealkylation2>  (71) 
0

>  <fr_Nhpyrrole>  (71) 
0

>  <fr_SH>  (71) 
0

>  <fr_aldehyde>  (71) 
0

>  <fr_alkyl_carbamate>  (71) 
0

>  <fr_alkyl_halide>  (71) 
0

>  <fr_allylic_oxid>  (71) 
0

>  <fr_amide>  (71) 
1

>  <fr_amidine>  (71) 
0

>  <fr_aniline>  (71) 
4

>  <fr_aryl_methyl>  (71) 
0

>  <fr_azide>  (71) 
0

>  <fr_azo>  (71) 
0

>  <fr_barbitur>  (71) 
0

>  <fr_benzene>  (71) 
2

>  <fr_benzodiazepine>  (71) 
0

>  <fr_bicyclic>  (71) 
1

>  <fr_diazo>  (71) 
0

>  <fr_dihydropyridine>  (71) 
0

>  <fr_epoxide>  (71) 
0

>  <fr_ester>  (71) 
0

>  <fr_ether>  (71) 
1

>  <fr_furan>  (71) 
0

>  <fr_guanido>  (71) 
0

>  <fr_halogen>  (71) 
0

>  <fr_hdrzine>  (71) 
0

>  <fr_hdrzone>  (71) 
0

>  <fr_imidazole>  (71) 
0

>  <fr_imide>  (71) 
0

>  <fr_isocyan>  (71) 
0

>  <fr_isothiocyan>  (71) 
0

>  <fr_ketone>  (71) 
0

>  <fr_ketone_Topliss>  (71) 
0

>  <fr_lactam>  (71) 
0

>  <fr_lactone>  (71) 
0

>  <fr_methoxy>  (71) 
0

>  <fr_morpholine>  (71) 
0

>  <fr_nitrile>  (71) 
0

>  <fr_nitro>  (71) 
0

>  <fr_nitro_arom>  (71) 
0

>  <fr_nitro_arom_nonortho>  (71) 
0

>  <fr_nitroso>  (71) 
0

>  <fr_oxazole>  (71) 
0

>  <fr_oxime>  (71) 
0

>  <fr_para_hydroxylation>  (71) 
0

>  <fr_phenol>  (71) 
0

>  <fr_phenol_noOrthoHbond>  (71) 
0

>  <fr_phos_acid>  (71) 
0

>  <fr_phos_ester>  (71) 
0

>  <fr_piperdine>  (71) 
0

>  <fr_piperzine>  (71) 
1

>  <fr_priamide>  (71) 
0

>  <fr_prisulfonamd>  (71) 
0

>  <fr_pyridine>  (71) 
0

>  <fr_quatN>  (71) 
0

>  <fr_sulfide>  (71) 
0

>  <fr_sulfonamd>  (71) 
0

>  <fr_sulfone>  (71) 
0

>  <fr_term_acetylene>  (71) 
0

>  <fr_tetrazole>  (71) 
0

>  <fr_thiazole>  (71) 
0

>  <fr_thiocyan>  (71) 
0

>  <fr_thiophene>  (71) 
1

>  <fr_unbrch_alkane>  (71) 
0

>  <fr_urea>  (71) 
0

>  <NP_Likeness>  (71) 
-1.767059

$$$$
nan
     RDKit          3D

  0  0  0  0  0  0  0  0  0  0999 V3000
M  V30 BEGIN CTAB
M  V30 COUNTS 62 66 0 0 0
M  V30 BEGIN ATOM
M  V30 1 C 4.743035 -4.616005 4.585555 0
M  V30 2 C 3.532109 -3.844998 4.229840 0
M  V30 3 O 2.535724 -3.855396 5.022403 0
M  V30 4 C 3.110066 -2.996861 3.131045 0
M  V30 5 C 3.382792 -1.628149 3.234271 0
M  V30 6 C 4.078327 -1.042158 4.409021 0
M  V30 7 C 2.982483 -0.822916 2.193703 0
M  V30 8 C 3.228683 0.520924 2.258506 0
M  V30 9 N 2.846471 1.333102 1.256862 0
M  V30 10 C 2.207043 0.832966 0.158721 0
M  V30 11 N 1.688487 1.456191 -1.017278 0
M  V30 12 C 0.273477 1.737531 -0.998155 0
M  V30 13 C -0.382935 2.335201 -2.072126 0
M  V30 14 C -1.735148 2.600475 -2.080389 0
M  V30 15 C -2.500562 2.267186 -0.981254 0
M  V30 16 N -3.912012 2.458463 -0.840060 0
M  V30 17 C -4.718155 2.308644 0.340040 0
M  V30 18 C -5.920376 1.425061 0.186157 0
M  V30 19 N -6.578162 1.574263 -1.093702 0
M  V30 20 C -5.627565 1.584198 -2.187966 0
M  V30 21 C -4.775368 2.842882 -1.947456 0
M  V30 22 C -1.820168 1.678559 0.063648 0
M  V30 23 N -0.506609 1.419647 0.074237 0
M  V30 24 N 1.979721 -0.488645 0.123953 0
M  V30 25 C 2.337007 -1.347436 1.091928 0
M  V30 26 N 2.061978 -2.683733 0.973977 0
M  V30 27 C 1.386270 -3.240437 -0.168482 0
M  V30 28 C 0.660038 -2.257803 -1.013983 0
M  V30 29 C -0.276702 -3.131504 -1.861498 0
M  V30 30 C -0.378970 -4.444033 -1.158877 0
M  V30 31 C 0.321979 -4.247380 0.173182 0
M  V30 32 C 2.461788 -3.445357 1.999906 0
M  V30 33 O 2.278821 -4.689068 2.032455 0
M  V30 34 H 4.809339 -4.580045 5.702196 0
M  V30 35 H 4.662851 -5.706687 4.317372 0
M  V30 36 H 5.660542 -4.244180 4.107213 0
M  V30 37 H 4.177928 -1.841690 5.173500 0
M  V30 38 H 3.484960 -0.216893 4.848149 0
M  V30 39 H 5.063919 -0.620716 4.118847 0
M  V30 40 H 3.725676 1.029285 3.073173 0
M  V30 41 H 2.181625 1.731896 -1.877207 0
M  V30 42 H 0.202708 2.604287 -2.943247 0
M  V30 43 H -2.233607 3.062991 -2.913015 0
M  V30 44 H -4.159647 1.942718 1.217650 0
M  V30 45 H -5.044983 3.351317 0.631678 0
M  V30 46 H -6.661891 1.780353 0.957059 0
M  V30 47 H -5.748357 0.358544 0.397623 0
M  V30 48 H -7.210171 0.761565 -1.241973 0
M  V30 49 H -6.158048 1.602054 -3.140337 0
M  V30 50 H -4.918323 0.728908 -2.106621 0
M  V30 51 H -5.470476 3.652064 -1.655963 0
M  V30 52 H -4.242405 3.042191 -2.881321 0
M  V30 53 H -2.242179 1.352675 0.994768 0
M  V30 54 H 2.119186 -3.764246 -0.811051 0
M  V30 55 H -0.024426 -1.572796 -0.472964 0
M  V30 56 H 1.336647 -1.789521 -1.726388 0
M  V30 57 H -1.283536 -2.702327 -1.959320 0
M  V30 58 H 0.106108 -3.262408 -2.897680 0
M  V30 59 H 0.201530 -5.197410 -1.726075 0
M  V30 60 H -1.425162 -4.789109 -1.022217 0
M  V30 61 H 0.702583 -5.246873 0.449495 0
M  V30 62 H -0.377139 -3.881603 0.952177 0
M  V30 END ATOM
M  V30 BEGIN BOND
M  V30 1 1 1 2
M  V30 2 2 2 3
M  V30 3 1 2 4
M  V30 4 2 4 5
M  V30 5 1 5 6
M  V30 6 1 5 7
M  V30 7 2 7 8
M  V30 8 1 8 9
M  V30 9 2 9 10
M  V30 10 1 10 11
M  V30 11 1 11 12
M  V30 12 2 12 13
M  V30 13 1 13 14
M  V30 14 2 14 15
M  V30 15 1 15 16
M  V30 16 1 16 17
M  V30 17 1 17 18
M  V30 18 1 18 19
M  V30 19 1 19 20
M  V30 20 1 20 21
M  V30 21 1 15 22
M  V30 22 2 22 23
M  V30 23 1 10 24
M  V30 24 2 24 25
M  V30 25 1 25 26
M  V30 26 1 26 27
M  V30 27 1 27 28
M  V30 28 1 28 29
M  V30 29 1 29 30
M  V30 30 1 30 31
M  V30 31 1 26 32
M  V30 32 2 32 33
M  V30 33 1 32 4
M  V30 34 1 25 7
M  V30 35 1 31 27
M  V30 36 1 23 12
M  V30 37 1 21 16
M  V30 38 1 1 34
M  V30 39 1 1 35
M  V30 40 1 1 36
M  V30 41 1 6 37
M  V30 42 1 6 38
M  V30 43 1 6 39
M  V30 44 1 8 40
M  V30 45 1 11 41
M  V30 46 1 13 42
M  V30 47 1 14 43
M  V30 48 1 17 44
M  V30 49 1 17 45
M  V30 50 1 18 46
M  V30 51 1 18 47
M  V30 52 1 19 48
M  V30 53 1 20 49
M  V30 54 1 20 50
M  V30 55 1 21 51
M  V30 56 1 21 52
M  V30 57 1 22 53
M  V30 58 1 27 54
M  V30 59 1 28 55
M  V30 60 1 28 56
M  V30 61 1 29 57
M  V30 62 1 29 58
M  V30 63 1 30 59
M  V30 64 1 30 60
M  V30 65 1 31 61
M  V30 66 1 31 62
M  V30 END BOND
M  V30 END CTAB
M  END
>  <Dataset>  (72) 
PKIs

>  <Ligand_Instance>  (72) 
nan

>  <PDB_ID>  (72) 
nan

>  <Standardized_SMILES>  (72) 
CC(=O)c1c(C)c2cnc(Nc3ccc(N4CCNCC4)cn3)nc2n(C2CCCC2)c1=O

>  <Name>  (72) 
Palbociclib

>  <Pocket>  (72) 
nan

>  <ATP_Site>  (72) 
nan

>  <Peripheral>  (72) 
nan

>  <Num_H_Atoms_ProtBoundConf>  (72) 
nan

>  <Num_Resolved_Atoms>  (72) 
nan

>  <Num_Not_Resolved_Atoms>  (72) 
nan

>  <2D_Mol_H>  (72) 
<rdkit.Chem.rdchem.Mol object at 0x72a239141310>

>  <MW>  (72) 
447.543

>  <HBA>  (72) 
9

>  <HBD>  (72) 
2

>  <LogP>  (72) 
2.96582

>  <NRB>  (72) 
7

>  <TPSA>  (72) 
105.04

>  <Num_Heavy_Atoms>  (72) 
33

>  <Ro5>  (72) 
[True, True, True, True, True, True]

>  <Ro5_Fulfilled>  (72) 
True

>  <Ro3>  (72) 
[False, False, True, True]

>  <Ro3_Fulfilled>  (72) 
False

>  <Fsp3>  (72) 
0.458333

>  <Fsp3_0.42>  (72) 
True

>  <Fsp3_0.45>  (72) 
True

>  <Stereogenic_Carbons>  (72) 
0

>  <C_Atoms>  (72) 
24

>  <FCStereo>  (72) 
0.0

>  <SPS>  (72) 
560

>  <nSPS>  (72) 
16.969697

>  <PBF>  (72) 
1.312293

>  <PBF_0.6>  (72) 
True

>  <nPBF>  (72) 
0.039766

>  <nPBF_0.016>  (72) 
True

>  <PMI1>  (72) 
2269.823426

>  <PMI2>  (72) 
8149.616189

>  <PMI3>  (72) 
8721.288636

>  <NPR1>  (72) 
0.260262

>  <NPR2>  (72) 
0.934451

>  <Sum_NPR>  (72) 
1.194713

>  <Sum_NPR_1.07>  (72) 
True

>  <Sum_NPR_1.2>  (72) 
False

>  <MaxAbsEStateIndex>  (72) 
13.329498

>  <MaxEStateIndex>  (72) 
13.329498

>  <MinAbsEStateIndex>  (72) 
0.053603

>  <MinEStateIndex>  (72) 
-0.24764

>  <qed>  (72) 
0.575411

>  <MolWt>  (72) 
447.543

>  <HeavyAtomMolWt>  (72) 
418.311

>  <ExactMolWt>  (72) 
447.238273

>  <NumValenceElectrons>  (72) 
172

>  <NumRadicalElectrons>  (72) 
0

>  <MaxPartialCharge>  (72) 
0.26311

>  <MinPartialCharge>  (72) 
-0.36774

>  <MaxAbsPartialCharge>  (72) 
0.36774

>  <MinAbsPartialCharge>  (72) 
0.26311

>  <FpDensityMorgan1>  (72) 
1.121212

>  <FpDensityMorgan2>  (72) 
1.878788

>  <FpDensityMorgan3>  (72) 
2.545455

>  <BCUT2D_MWHI>  (72) 
16.14864

>  <BCUT2D_MWLOW>  (72) 
10.03419

>  <BCUT2D_CHGHI>  (72) 
2.254764

>  <BCUT2D_CHGLO>  (72) 
-2.286544

>  <BCUT2D_LOGPHI>  (72) 
2.316691

>  <BCUT2D_LOGPLOW>  (72) 
-2.430693

>  <BCUT2D_MRHI>  (72) 
5.990194

>  <BCUT2D_MRLOW>  (72) 
0.101043

>  <AvgIpc>  (72) 
3.342692

>  <BalabanJ>  (72) 
1.507759

>  <BertzCT>  (72) 
1240.387811

>  <Chi0>  (72) 
22.949019

>  <Chi0n>  (72) 
19.09617

>  <Chi0v>  (72) 
19.09617

>  <Chi1>  (72) 
16.024877

>  <Chi1n>  (72) 
11.642185

>  <Chi1v>  (72) 
11.642185

>  <Chi2n>  (72) 
8.864199

>  <Chi2v>  (72) 
8.864199

>  <Chi3n>  (72) 
6.72029

>  <Chi3v>  (72) 
6.72029

>  <Chi4n>  (72) 
4.993425

>  <Chi4v>  (72) 
4.993425

>  <HallKierAlpha>  (72) 
-3.33

>  <Ipc>  (72) 
53698339.432107

>  <Kappa1>  (72) 
21.512293

>  <Kappa2>  (72) 
8.897289

>  <Kappa3>  (72) 
4.083227

>  <LabuteASA>  (72) 
191.808971

>  <PEOE_VSA1>  (72) 
15.533487

>  <PEOE_VSA10>  (72) 
11.46504

>  <PEOE_VSA11>  (72) 
5.783245

>  <PEOE_VSA12>  (72) 
5.948339

>  <PEOE_VSA13>  (72) 
5.559267

>  <PEOE_VSA14>  (72) 
0.0

>  <PEOE_VSA2>  (72) 
14.156174

>  <PEOE_VSA3>  (72) 
9.967957

>  <PEOE_VSA4>  (72) 
4.983979

>  <PEOE_VSA5>  (72) 
0.0

>  <PEOE_VSA6>  (72) 
12.841643

>  <PEOE_VSA7>  (72) 
44.385303

>  <PEOE_VSA8>  (72) 
43.803934

>  <PEOE_VSA9>  (72) 
17.447681

>  <SMR_VSA1>  (72) 
4.794537

>  <SMR_VSA10>  (72) 
34.270235

>  <SMR_VSA2>  (72) 
0.0

>  <SMR_VSA3>  (72) 
24.835824

>  <SMR_VSA4>  (72) 
0.0

>  <SMR_VSA5>  (72) 
45.572602

>  <SMR_VSA6>  (72) 
36.395724

>  <SMR_VSA7>  (72) 
46.007128

>  <SMR_VSA8>  (72) 
0.0

>  <SMR_VSA9>  (72) 
0.0

>  <SlogP_VSA1>  (72) 
21.092754

>  <SlogP_VSA10>  (72) 
17.453588

>  <SlogP_VSA11>  (72) 
0.0

>  <SlogP_VSA12>  (72) 
0.0

>  <SlogP_VSA2>  (72) 
51.481306

>  <SlogP_VSA3>  (72) 
0.0

>  <SlogP_VSA4>  (72) 
6.923737

>  <SlogP_VSA5>  (72) 
54.570305

>  <SlogP_VSA6>  (72) 
29.320958

>  <SlogP_VSA7>  (72) 
0.0

>  <SlogP_VSA8>  (72) 
11.033401

>  <SlogP_VSA9>  (72) 
0.0

>  <EState_VSA1>  (72) 
0.0

>  <EState_VSA10>  (72) 
9.589074

>  <EState_VSA11>  (72) 
0.0

>  <EState_VSA2>  (72) 
22.947804

>  <EState_VSA3>  (72) 
22.976831

>  <EState_VSA4>  (72) 
62.935923

>  <EState_VSA5>  (72) 
6.923737

>  <EState_VSA6>  (72) 
17.68768

>  <EState_VSA7>  (72) 
18.329578

>  <EState_VSA8>  (72) 
25.501444

>  <EState_VSA9>  (72) 
4.983979

>  <VSA_EState1>  (72) 
1.722069

>  <VSA_EState10>  (72) 
0.0

>  <VSA_EState2>  (72) 
41.617568

>  <VSA_EState3>  (72) 
7.260543

>  <VSA_EState4>  (72) 
2.293054

>  <VSA_EState5>  (72) 
0.799301

>  <VSA_EState6>  (72) 
4.010464

>  <VSA_EState7>  (72) 
7.523952

>  <VSA_EState8>  (72) 
7.106382

>  <VSA_EState9>  (72) 
0.0

>  <FractionCSP3>  (72) 
0.458333

>  <HeavyAtomCount>  (72) 
33

>  <NHOHCount>  (72) 
2

>  <NOCount>  (72) 
9

>  <NumAliphaticCarbocycles>  (72) 
1

>  <NumAliphaticHeterocycles>  (72) 
1

>  <NumAliphaticRings>  (72) 
2

>  <NumAromaticCarbocycles>  (72) 
0

>  <NumAromaticHeterocycles>  (72) 
3

>  <NumAromaticRings>  (72) 
3

>  <NumHAcceptors>  (72) 
9

>  <NumHDonors>  (72) 
2

>  <NumHeteroatoms>  (72) 
9

>  <NumRotatableBonds>  (72) 
5

>  <NumSaturatedCarbocycles>  (72) 
1

>  <NumSaturatedHeterocycles>  (72) 
1

>  <NumSaturatedRings>  (72) 
2

>  <RingCount>  (72) 
5

>  <MolLogP>  (72) 
2.96582

>  <MolMR>  (72) 
128.6469

>  <fr_Al_COO>  (72) 
0

>  <fr_Al_OH>  (72) 
0

>  <fr_Al_OH_noTert>  (72) 
0

>  <fr_ArN>  (72) 
0

>  <fr_Ar_COO>  (72) 
0

>  <fr_Ar_N>  (72) 
4

>  <fr_Ar_NH>  (72) 
0

>  <fr_Ar_OH>  (72) 
0

>  <fr_COO>  (72) 
0

>  <fr_COO2>  (72) 
0

>  <fr_C_O>  (72) 
1

>  <fr_C_O_noCOO>  (72) 
1

>  <fr_C_S>  (72) 
0

>  <fr_HOCCN>  (72) 
0

>  <fr_Imine>  (72) 
0

>  <fr_NH0>  (72) 
5

>  <fr_NH1>  (72) 
2

>  <fr_NH2>  (72) 
0

>  <fr_N_O>  (72) 
0

>  <fr_Ndealkylation1>  (72) 
0

>  <fr_Ndealkylation2>  (72) 
0

>  <fr_Nhpyrrole>  (72) 
0

>  <fr_SH>  (72) 
0

>  <fr_aldehyde>  (72) 
0

>  <fr_alkyl_carbamate>  (72) 
0

>  <fr_alkyl_halide>  (72) 
0

>  <fr_allylic_oxid>  (72) 
0

>  <fr_amide>  (72) 
0

>  <fr_amidine>  (72) 
0

>  <fr_aniline>  (72) 
3

>  <fr_aryl_methyl>  (72) 
1

>  <fr_azide>  (72) 
0

>  <fr_azo>  (72) 
0

>  <fr_barbitur>  (72) 
0

>  <fr_benzene>  (72) 
0

>  <fr_benzodiazepine>  (72) 
0

>  <fr_bicyclic>  (72) 
1

>  <fr_diazo>  (72) 
0

>  <fr_dihydropyridine>  (72) 
0

>  <fr_epoxide>  (72) 
0

>  <fr_ester>  (72) 
0

>  <fr_ether>  (72) 
0

>  <fr_furan>  (72) 
0

>  <fr_guanido>  (72) 
0

>  <fr_halogen>  (72) 
0

>  <fr_hdrzine>  (72) 
0

>  <fr_hdrzone>  (72) 
0

>  <fr_imidazole>  (72) 
0

>  <fr_imide>  (72) 
0

>  <fr_isocyan>  (72) 
0

>  <fr_isothiocyan>  (72) 
0

>  <fr_ketone>  (72) 
1

>  <fr_ketone_Topliss>  (72) 
1

>  <fr_lactam>  (72) 
0

>  <fr_lactone>  (72) 
0

>  <fr_methoxy>  (72) 
0

>  <fr_morpholine>  (72) 
0

>  <fr_nitrile>  (72) 
0

>  <fr_nitro>  (72) 
0

>  <fr_nitro_arom>  (72) 
0

>  <fr_nitro_arom_nonortho>  (72) 
0

>  <fr_nitroso>  (72) 
0

>  <fr_oxazole>  (72) 
0

>  <fr_oxime>  (72) 
0

>  <fr_para_hydroxylation>  (72) 
0

>  <fr_phenol>  (72) 
0

>  <fr_phenol_noOrthoHbond>  (72) 
0

>  <fr_phos_acid>  (72) 
0

>  <fr_phos_ester>  (72) 
0

>  <fr_piperdine>  (72) 
0

>  <fr_piperzine>  (72) 
1

>  <fr_priamide>  (72) 
0

>  <fr_prisulfonamd>  (72) 
0

>  <fr_pyridine>  (72) 
2

>  <fr_quatN>  (72) 
0

>  <fr_sulfide>  (72) 
0

>  <fr_sulfonamd>  (72) 
0

>  <fr_sulfone>  (72) 
0

>  <fr_term_acetylene>  (72) 
0

>  <fr_tetrazole>  (72) 
0

>  <fr_thiazole>  (72) 
0

>  <fr_thiocyan>  (72) 
0

>  <fr_thiophene>  (72) 
0

>  <fr_unbrch_alkane>  (72) 
0

>  <fr_urea>  (72) 
0

>  <NP_Likeness>  (72) 
-1.062612

$$$$
nan
     RDKit          3D

  0  0  0  0  0  0  0  0  0  0999 V3000
M  V30 BEGIN CTAB
M  V30 COUNTS 70 73 0 0 0
M  V30 BEGIN ATOM
M  V30 1 C 0.771766 1.999818 5.561608 0
M  V30 2 C 1.154261 2.628753 4.457822 0
M  V30 3 C 1.411451 2.098190 3.123074 0
M  V30 4 O 1.780952 2.585474 1.999975 0
M  V30 5 N 1.228055 0.679786 2.928298 0
M  V30 6 C 1.495788 0.190226 1.600292 0
M  V30 7 C 0.525722 0.213712 0.621729 0
M  V30 8 C 0.664246 -0.234399 -0.673687 0
M  V30 9 N -0.311633 -0.210922 -1.670430 0
M  V30 10 C -1.645962 0.273267 -1.579560 0
M  V30 11 N -2.202914 0.801610 -0.481793 0
M  V30 12 C -3.460549 1.240861 -0.453126 0
M  V30 13 C -4.146880 1.112161 -1.634432 0
M  V30 14 C -3.680671 0.592649 -2.802488 0
M  V30 15 C -4.311404 0.429357 -4.090718 0
M  V30 16 C -3.551097 0.016280 -5.194455 0
M  V30 17 N -4.349921 -0.073365 -6.270004 0
M  V30 18 C -3.956698 -0.468047 -7.621302 0
M  V30 19 C -5.620437 0.252101 -5.979662 0
M  V30 20 C -6.830621 0.338861 -6.634200 0
M  V30 21 C -7.998883 0.716854 -6.003594 0
M  V30 22 C -7.886391 1.012147 -4.640080 0
M  V30 23 C -6.679222 0.925092 -3.990397 0
M  V30 24 C -5.556924 0.552877 -4.638921 0
M  V30 25 N -2.413017 0.205608 -2.651694 0
M  V30 26 C 1.941038 -0.748924 -0.946303 0
M  V30 27 O 2.207289 -1.228460 -2.204802 0
M  V30 28 C 3.474482 -1.758849 -2.542851 0
M  V30 29 C 2.933401 -0.787911 0.006690 0
M  V30 30 C 2.739220 -0.324673 1.292140 0
M  V30 31 N 3.807296 -0.390776 2.233110 0
M  V30 32 C 4.422760 0.830498 2.679617 0
M  V30 33 C 4.416646 -1.567162 2.872601 0
M  V30 34 C 3.699796 -2.807071 2.403306 0
M  V30 35 N 4.269522 -3.995058 3.015972 0
M  V30 36 C 4.021059 -4.064642 4.427286 0
M  V30 37 C 3.670110 -5.168337 2.363912 0
M  V30 38 H 0.631817 0.934446 5.448463 0
M  V30 39 H 0.666586 2.697247 6.390498 0
M  V30 40 H 1.353551 3.685535 4.332839 0
M  V30 41 H 0.923222 -0.002584 3.660856 0
M  V30 42 H -0.397714 0.623370 0.937465 0
M  V30 43 H -0.009840 -0.606954 -2.612423 0
M  V30 44 H -3.928016 1.669590 0.419006 0
M  V30 45 H -5.145847 1.475725 -1.609110 0
M  V30 46 H -2.481029 -0.225191 -5.298234 0
M  V30 47 H -3.656289 0.391249 -8.243284 0
M  V30 48 H -3.062062 -1.145301 -7.545701 0
M  V30 49 H -4.749980 -1.088525 -8.091219 0
M  V30 50 H -6.834853 0.094613 -7.687728 0
M  V30 51 H -8.950984 0.783625 -6.525776 0
M  V30 52 H -8.838380 1.305818 -4.184836 0
M  V30 53 H -6.769152 1.173085 -2.968325 0
M  V30 54 H 4.273203 -0.970449 -2.419460 0
M  V30 55 H 3.517116 -2.021144 -3.622676 0
M  V30 56 H 3.693370 -2.590867 -1.867002 0
M  V30 57 H 3.904334 -1.203389 -0.307899 0
M  V30 58 H 5.533375 0.683789 2.783190 0
M  V30 59 H 4.346009 1.660650 1.936234 0
M  V30 60 H 4.073912 1.104379 3.692975 0
M  V30 61 H 5.494312 -1.631524 2.550995 0
M  V30 62 H 4.353205 -1.507397 3.969912 0
M  V30 63 H 3.743170 -2.909404 1.313128 0
M  V30 64 H 2.631515 -2.673074 2.709160 0
M  V30 65 H 3.454606 -3.166706 4.738908 0
M  V30 66 H 4.994317 -4.067139 4.976390 0
M  V30 67 H 3.416815 -4.965846 4.705180 0
M  V30 68 H 3.255651 -4.865904 1.368480 0
M  V30 69 H 2.790298 -5.446397 2.991557 0
M  V30 70 H 4.361649 -6.020651 2.297950 0
M  V30 END ATOM
M  V30 BEGIN BOND
M  V30 1 2 1 2
M  V30 2 1 2 3
M  V30 3 2 3 4
M  V30 4 1 3 5
M  V30 5 1 5 6
M  V30 6 2 6 7
M  V30 7 1 7 8
M  V30 8 1 8 9
M  V30 9 1 9 10
M  V30 10 2 10 11
M  V30 11 1 11 12
M  V30 12 2 12 13
M  V30 13 1 13 14
M  V30 14 1 14 15
M  V30 15 2 15 16
M  V30 16 1 16 17
M  V30 17 1 17 18
M  V30 18 1 17 19
M  V30 19 2 19 20
M  V30 20 1 20 21
M  V30 21 2 21 22
M  V30 22 1 22 23
M  V30 23 2 23 24
M  V30 24 2 14 25
M  V30 25 2 8 26
M  V30 26 1 26 27
M  V30 27 1 27 28
M  V30 28 1 26 29
M  V30 29 2 29 30
M  V30 30 1 30 31
M  V30 31 1 31 32
M  V30 32 1 31 33
M  V30 33 1 33 34
M  V30 34 1 34 35
M  V30 35 1 35 36
M  V30 36 1 35 37
M  V30 37 1 30 6
M  V30 38 1 25 10
M  V30 39 1 24 15
M  V30 40 1 24 19
M  V30 41 1 1 38
M  V30 42 1 1 39
M  V30 43 1 2 40
M  V30 44 1 5 41
M  V30 45 1 7 42
M  V30 46 1 9 43
M  V30 47 1 12 44
M  V30 48 1 13 45
M  V30 49 1 16 46
M  V30 50 1 18 47
M  V30 51 1 18 48
M  V30 52 1 18 49
M  V30 53 1 20 50
M  V30 54 1 21 51
M  V30 55 1 22 52
M  V30 56 1 23 53
M  V30 57 1 28 54
M  V30 58 1 28 55
M  V30 59 1 28 56
M  V30 60 1 29 57
M  V30 61 1 32 58
M  V30 62 1 32 59
M  V30 63 1 32 60
M  V30 64 1 33 61
M  V30 65 1 33 62
M  V30 66 1 34 63
M  V30 67 1 34 64
M  V30 68 1 36 65
M  V30 69 1 36 66
M  V30 70 1 36 67
M  V30 71 1 37 68
M  V30 72 1 37 69
M  V30 73 1 37 70
M  V30 END BOND
M  V30 END CTAB
M  END
>  <Dataset>  (73) 
PKIs

>  <Ligand_Instance>  (73) 
nan

>  <PDB_ID>  (73) 
nan

>  <Standardized_SMILES>  (73) 
C=CC(=O)Nc1cc(Nc2nccc(-c3cn(C)c4ccccc34)n2)c(OC)cc1N(C)CCN(C)C

>  <Name>  (73) 
Osimertinib

>  <Pocket>  (73) 
nan

>  <ATP_Site>  (73) 
nan

>  <Peripheral>  (73) 
nan

>  <Num_H_Atoms_ProtBoundConf>  (73) 
nan

>  <Num_Resolved_Atoms>  (73) 
nan

>  <Num_Not_Resolved_Atoms>  (73) 
nan

>  <2D_Mol_H>  (73) 
<rdkit.Chem.rdchem.Mol object at 0x72a2391413f0>

>  <MW>  (73) 
499.619

>  <HBA>  (73) 
8

>  <HBD>  (73) 
2

>  <LogP>  (73) 
4.5098

>  <NRB>  (73) 
15

>  <TPSA>  (73) 
87.55

>  <Num_Heavy_Atoms>  (73) 
37

>  <Ro5>  (73) 
[True, True, True, True, False, True]

>  <Ro5_Fulfilled>  (73) 
True

>  <Ro3>  (73) 
[False, False, True, False]

>  <Ro3_Fulfilled>  (73) 
False

>  <Fsp3>  (73) 
0.25

>  <Fsp3_0.42>  (73) 
False

>  <Fsp3_0.45>  (73) 
False

>  <Stereogenic_Carbons>  (73) 
0

>  <C_Atoms>  (73) 
28

>  <FCStereo>  (73) 
0.0

>  <SPS>  (73) 
406

>  <nSPS>  (73) 
10.972973

>  <PBF>  (73) 
1.16346

>  <PBF_0.6>  (73) 
True

>  <nPBF>  (73) 
0.031445

>  <nPBF_0.016>  (73) 
True

>  <PMI1>  (73) 
2725.945422

>  <PMI2>  (73) 
13342.688961

>  <PMI3>  (73) 
14732.014056

>  <NPR1>  (73) 
0.185035

>  <NPR2>  (73) 
0.905693

>  <Sum_NPR>  (73) 
1.090729

>  <Sum_NPR_1.07>  (73) 
True

>  <Sum_NPR_1.2>  (73) 
False

>  <MaxAbsEStateIndex>  (73) 
12.222603

>  <MaxEStateIndex>  (73) 
12.222603

>  <MinAbsEStateIndex>  (73) 
0.298538

>  <MinEStateIndex>  (73) 
-0.298538

>  <qed>  (73) 
0.310535

>  <MolWt>  (73) 
499.619

>  <HeavyAtomMolWt>  (73) 
466.355

>  <ExactMolWt>  (73) 
499.269573

>  <NumValenceElectrons>  (73) 
192

>  <NumRadicalElectrons>  (73) 
0

>  <MaxPartialCharge>  (73) 
0.247322

>  <MinPartialCharge>  (73) 
-0.494495

>  <MaxAbsPartialCharge>  (73) 
0.494495

>  <MinAbsPartialCharge>  (73) 
0.247322

>  <FpDensityMorgan1>  (73) 
1.135135

>  <FpDensityMorgan2>  (73) 
1.918919

>  <FpDensityMorgan3>  (73) 
2.648649

>  <BCUT2D_MWHI>  (73) 
16.466466

>  <BCUT2D_MWLOW>  (73) 
10.114195

>  <BCUT2D_CHGHI>  (73) 
2.170157

>  <BCUT2D_CHGLO>  (73) 
-2.255142

>  <BCUT2D_LOGPHI>  (73) 
2.379665

>  <BCUT2D_LOGPLOW>  (73) 
-2.289155

>  <BCUT2D_MRHI>  (73) 
6.019602

>  <BCUT2D_MRLOW>  (73) 
-0.11143

>  <AvgIpc>  (73) 
3.237235

>  <BalabanJ>  (73) 
1.706592

>  <BertzCT>  (73) 
1427.575648

>  <Chi0>  (73) 
26.526369

>  <Chi0n>  (73) 
21.947388

>  <Chi0v>  (73) 
21.947388

>  <Chi1>  (73) 
17.799264

>  <Chi1n>  (73) 
11.961896

>  <Chi1v>  (73) 
11.961896

>  <Chi2n>  (73) 
9.049164

>  <Chi2v>  (73) 
9.049164

>  <Chi3n>  (73) 
6.12991

>  <Chi3v>  (73) 
6.12991

>  <Chi4n>  (73) 
4.140987

>  <Chi4v>  (73) 
4.140987

>  <HallKierAlpha>  (73) 
-4.37

>  <Ipc>  (73) 
201258419.051309

>  <Kappa1>  (73) 
25.714839

>  <Kappa2>  (73) 
11.132403

>  <Kappa3>  (73) 
5.727561

>  <LabuteASA>  (73) 
216.939961

>  <PEOE_VSA1>  (73) 
29.737359

>  <PEOE_VSA10>  (73) 
5.749512

>  <PEOE_VSA11>  (73) 
0.0

>  <PEOE_VSA12>  (73) 
11.855519

>  <PEOE_VSA13>  (73) 
0.0

>  <PEOE_VSA14>  (73) 
0.0

>  <PEOE_VSA2>  (73) 
4.794537

>  <PEOE_VSA3>  (73) 
9.967957

>  <PEOE_VSA4>  (73) 
0.0

>  <PEOE_VSA5>  (73) 
0.0

>  <PEOE_VSA6>  (73) 
24.778037

>  <PEOE_VSA7>  (73) 
38.370465

>  <PEOE_VSA8>  (73) 
62.111287

>  <PEOE_VSA9>  (73) 
29.865884

>  <SMR_VSA1>  (73) 
9.5314

>  <SMR_VSA10>  (73) 
39.820603

>  <SMR_VSA2>  (73) 
0.0

>  <SMR_VSA3>  (73) 
19.434966

>  <SMR_VSA4>  (73) 
7.047672

>  <SMR_VSA5>  (73) 
0.0

>  <SMR_VSA6>  (73) 
56.875813

>  <SMR_VSA7>  (73) 
67.513212

>  <SMR_VSA8>  (73) 
0.0

>  <SMR_VSA9>  (73) 
17.006891

>  <SlogP_VSA1>  (73) 
20.27035

>  <SlogP_VSA10>  (73) 
23.010498

>  <SlogP_VSA11>  (73) 
5.749512

>  <SlogP_VSA12>  (73) 
0.0

>  <SlogP_VSA2>  (73) 
66.684472

>  <SlogP_VSA3>  (73) 
11.842209

>  <SlogP_VSA4>  (73) 
0.0

>  <SlogP_VSA5>  (73) 
0.0

>  <SlogP_VSA6>  (73) 
67.513212

>  <SlogP_VSA7>  (73) 
0.0

>  <SlogP_VSA8>  (73) 
22.160304

>  <SlogP_VSA9>  (73) 
0.0

>  <EState_VSA1>  (73) 
0.0

>  <EState_VSA10>  (73) 
4.794537

>  <EState_VSA11>  (73) 
0.0

>  <EState_VSA2>  (73) 
5.90718

>  <EState_VSA3>  (73) 
23.072624

>  <EState_VSA4>  (73) 
40.937204

>  <EState_VSA5>  (73) 
6.07602

>  <EState_VSA6>  (73) 
13.306641

>  <EState_VSA7>  (73) 
58.522523

>  <EState_VSA8>  (73) 
54.892988

>  <EState_VSA9>  (73) 
9.720841

>  <VSA_EState1>  (73) 
7.791117

>  <VSA_EState10>  (73) 
0.0

>  <VSA_EState2>  (73) 
25.60909

>  <VSA_EState3>  (73) 
7.310944

>  <VSA_EState4>  (73) 
5.023984

>  <VSA_EState5>  (73) 
0.716197

>  <VSA_EState6>  (73) 
13.829161

>  <VSA_EState7>  (73) 
5.040729

>  <VSA_EState8>  (73) 
5.19182

>  <VSA_EState9>  (73) 
9.653625

>  <FractionCSP3>  (73) 
0.25

>  <HeavyAtomCount>  (73) 
37

>  <NHOHCount>  (73) 
2

>  <NOCount>  (73) 
9

>  <NumAliphaticCarbocycles>  (73) 
0

>  <NumAliphaticHeterocycles>  (73) 
0

>  <NumAliphaticRings>  (73) 
0

>  <NumAromaticCarbocycles>  (73) 
2

>  <NumAromaticHeterocycles>  (73) 
2

>  <NumAromaticRings>  (73) 
4

>  <NumHAcceptors>  (73) 
8

>  <NumHDonors>  (73) 
2

>  <NumHeteroatoms>  (73) 
9

>  <NumRotatableBonds>  (73) 
10

>  <NumSaturatedCarbocycles>  (73) 
0

>  <NumSaturatedHeterocycles>  (73) 
0

>  <NumSaturatedRings>  (73) 
0

>  <RingCount>  (73) 
4

>  <MolLogP>  (73) 
4.5098

>  <MolMR>  (73) 
150.8724

>  <fr_Al_COO>  (73) 
0

>  <fr_Al_OH>  (73) 
0

>  <fr_Al_OH_noTert>  (73) 
0

>  <fr_ArN>  (73) 
0

>  <fr_Ar_COO>  (73) 
0

>  <fr_Ar_N>  (73) 
3

>  <fr_Ar_NH>  (73) 
0

>  <fr_Ar_OH>  (73) 
0

>  <fr_COO>  (73) 
0

>  <fr_COO2>  (73) 
0

>  <fr_C_O>  (73) 
1

>  <fr_C_O_noCOO>  (73) 
1

>  <fr_C_S>  (73) 
0

>  <fr_HOCCN>  (73) 
0

>  <fr_Imine>  (73) 
0

>  <fr_NH0>  (73) 
5

>  <fr_NH1>  (73) 
2

>  <fr_NH2>  (73) 
0

>  <fr_N_O>  (73) 
0

>  <fr_Ndealkylation1>  (73) 
2

>  <fr_Ndealkylation2>  (73) 
0

>  <fr_Nhpyrrole>  (73) 
0

>  <fr_SH>  (73) 
0

>  <fr_aldehyde>  (73) 
0

>  <fr_alkyl_carbamate>  (73) 
0

>  <fr_alkyl_halide>  (73) 
0

>  <fr_allylic_oxid>  (73) 
0

>  <fr_amide>  (73) 
1

>  <fr_amidine>  (73) 
0

>  <fr_aniline>  (73) 
4

>  <fr_aryl_methyl>  (73) 
1

>  <fr_azide>  (73) 
0

>  <fr_azo>  (73) 
0

>  <fr_barbitur>  (73) 
0

>  <fr_benzene>  (73) 
2

>  <fr_benzodiazepine>  (73) 
0

>  <fr_bicyclic>  (73) 
1

>  <fr_diazo>  (73) 
0

>  <fr_dihydropyridine>  (73) 
0

>  <fr_epoxide>  (73) 
0

>  <fr_ester>  (73) 
0

>  <fr_ether>  (73) 
1

>  <fr_furan>  (73) 
0

>  <fr_guanido>  (73) 
0

>  <fr_halogen>  (73) 
0

>  <fr_hdrzine>  (73) 
0

>  <fr_hdrzone>  (73) 
0

>  <fr_imidazole>  (73) 
0

>  <fr_imide>  (73) 
0

>  <fr_isocyan>  (73) 
0

>  <fr_isothiocyan>  (73) 
0

>  <fr_ketone>  (73) 
0

>  <fr_ketone_Topliss>  (73) 
0

>  <fr_lactam>  (73) 
0

>  <fr_lactone>  (73) 
0

>  <fr_methoxy>  (73) 
1

>  <fr_morpholine>  (73) 
0

>  <fr_nitrile>  (73) 
0

>  <fr_nitro>  (73) 
0

>  <fr_nitro_arom>  (73) 
0

>  <fr_nitro_arom_nonortho>  (73) 
0

>  <fr_nitroso>  (73) 
0

>  <fr_oxazole>  (73) 
0

>  <fr_oxime>  (73) 
0

>  <fr_para_hydroxylation>  (73) 
1

>  <fr_phenol>  (73) 
0

>  <fr_phenol_noOrthoHbond>  (73) 
0

>  <fr_phos_acid>  (73) 
0

>  <fr_phos_ester>  (73) 
0

>  <fr_piperdine>  (73) 
0

>  <fr_piperzine>  (73) 
0

>  <fr_priamide>  (73) 
0

>  <fr_prisulfonamd>  (73) 
0

>  <fr_pyridine>  (73) 
0

>  <fr_quatN>  (73) 
0

>  <fr_sulfide>  (73) 
0

>  <fr_sulfonamd>  (73) 
0

>  <fr_sulfone>  (73) 
0

>  <fr_term_acetylene>  (73) 
0

>  <fr_tetrazole>  (73) 
0

>  <fr_thiazole>  (73) 
0

>  <fr_thiocyan>  (73) 
0

>  <fr_thiophene>  (73) 
0

>  <fr_unbrch_alkane>  (73) 
0

>  <fr_urea>  (73) 
0

>  <NP_Likeness>  (73) 
-1.110044

$$$$
nan
     RDKit          3D

  0  0  0  0  0  0  0  0  0  0999 V3000
M  V30 BEGIN CTAB
M  V30 COUNTS 60 64 0 0 0
M  V30 BEGIN ATOM
M  V30 1 C 4.628675 -4.126942 5.306126 0
M  V30 2 C 4.413048 -2.705945 4.852001 0
M  V30 3 C 4.088245 -2.226277 3.605790 0
M  V30 4 N 4.002532 -0.876521 3.690797 0
M  V30 5 C 3.669490 -0.200405 2.475177 0
M  V30 6 C 2.441637 0.428615 2.407825 0
M  V30 7 C 2.095997 1.082801 1.258652 0
M  V30 8 N 0.891379 1.789776 0.978752 0
M  V30 9 C -0.155741 1.027733 0.404345 0
M  V30 10 O 0.114442 -0.167275 0.217866 0
M  V30 11 C -1.446491 1.617960 0.064147 0
M  V30 12 C -1.718588 2.951365 0.282676 0
M  V30 13 C -2.951060 3.462554 -0.054610 0
M  V30 14 C -3.913730 2.654571 -0.607872 0
M  V30 15 C -5.224121 3.261181 -0.951355 0
M  V30 16 C -3.700448 1.314185 -0.850013 0
M  V30 17 N -4.718511 0.508806 -1.422966 0
M  V30 18 C -4.717760 -0.872489 -1.754865 0
M  V30 19 N -5.810186 -1.435479 -2.297145 0
M  V30 20 C -5.842054 -2.731131 -2.620764 0
M  V30 21 C -4.756354 -3.551124 -2.413796 0
M  V30 22 C -3.633074 -2.992494 -1.861103 0
M  V30 23 C -2.472384 -3.840712 -1.633148 0
M  V30 24 C -1.297801 -3.373307 -1.083578 0
M  V30 25 N -0.242030 -4.186981 -0.886608 0
M  V30 26 C -0.287319 -5.505153 -1.220786 0
M  V30 27 C -1.487419 -5.927922 -1.769102 0
M  V30 28 N -2.561325 -5.137863 -1.978506 0
M  V30 29 N -3.675341 -1.691296 -1.563714 0
M  V30 30 C -2.447205 0.867352 -0.489532 0
M  V30 31 C 2.973366 1.101766 0.197208 0
M  V30 32 C 4.206213 0.459278 0.290740 0
M  V30 33 C 5.170817 0.466692 -0.844584 0
M  V30 34 F 6.459020 0.339675 -0.367481 0
M  V30 35 F 4.885944 -0.565723 -1.726246 0
M  V30 36 F 5.077362 1.635800 -1.586090 0
M  V30 37 C 4.577982 -0.206211 1.436362 0
M  V30 38 C 4.268673 -0.511597 4.968379 0
M  V30 39 N 4.519950 -1.635516 5.677720 0
M  V30 40 H 4.967142 -4.755570 4.431436 0
M  V30 41 H 5.346538 -4.181087 6.125633 0
M  V30 42 H 3.684277 -4.607149 5.635572 0
M  V30 43 H 3.959169 -2.935941 2.805887 0
M  V30 44 H 1.707797 0.457759 3.189015 0
M  V30 45 H 0.788538 2.806834 1.184985 0
M  V30 46 H -1.000499 3.622901 0.711937 0
M  V30 47 H -3.173143 4.506440 0.113109 0
M  V30 48 H -5.480469 3.022461 -2.016127 0
M  V30 49 H -5.217175 4.353052 -0.782407 0
M  V30 50 H -6.031238 2.802764 -0.311849 0
M  V30 51 H -5.624564 1.024105 -1.636573 0
M  V30 52 H -6.748878 -3.101549 -3.047576 0
M  V30 53 H -4.786844 -4.592706 -2.675723 0
M  V30 54 H -1.209195 -2.350076 -0.804341 0
M  V30 55 H 0.532942 -6.197255 -1.082178 0
M  V30 56 H -1.552351 -6.975541 -2.045465 0
M  V30 57 H -2.193277 -0.168011 -0.643301 0
M  V30 58 H 2.800009 1.592594 -0.764593 0
M  V30 59 H 5.525594 -0.721357 1.558613 0
M  V30 60 H 4.236470 0.550624 5.188118 0
M  V30 END ATOM
M  V30 BEGIN BOND
M  V30 1 1 1 2
M  V30 2 2 2 3
M  V30 3 1 3 4
M  V30 4 1 4 5
M  V30 5 2 5 6
M  V30 6 1 6 7
M  V30 7 1 7 8
M  V30 8 1 8 9
M  V30 9 2 9 10
M  V30 10 1 9 11
M  V30 11 2 11 12
M  V30 12 1 12 13
M  V30 13 2 13 14
M  V30 14 1 14 15
M  V30 15 1 14 16
M  V30 16 1 16 17
M  V30 17 1 17 18
M  V30 18 2 18 19
M  V30 19 1 19 20
M  V30 20 2 20 21
M  V30 21 1 21 22
M  V30 22 1 22 23
M  V30 23 2 23 24
M  V30 24 1 24 25
M  V30 25 2 25 26
M  V30 26 1 26 27
M  V30 27 2 27 28
M  V30 28 2 22 29
M  V30 29 2 16 30
M  V30 30 2 7 31
M  V30 31 1 31 32
M  V30 32 1 32 33
M  V30 33 1 33 34
M  V30 34 1 33 35
M  V30 35 1 33 36
M  V30 36 2 32 37
M  V30 37 1 4 38
M  V30 38 2 38 39
M  V30 39 1 39 2
M  V30 40 1 37 5
M  V30 41 1 30 11
M  V30 42 1 29 18
M  V30 43 1 28 23
M  V30 44 1 1 40
M  V30 45 1 1 41
M  V30 46 1 1 42
M  V30 47 1 3 43
M  V30 48 1 6 44
M  V30 49 1 8 45
M  V30 50 1 12 46
M  V30 51 1 13 47
M  V30 52 1 15 48
M  V30 53 1 15 49
M  V30 54 1 15 50
M  V30 55 1 17 51
M  V30 56 1 20 52
M  V30 57 1 21 53
M  V30 58 1 24 54
M  V30 59 1 26 55
M  V30 60 1 27 56
M  V30 61 1 30 57
M  V30 62 1 31 58
M  V30 63 1 37 59
M  V30 64 1 38 60
M  V30 END BOND
M  V30 END CTAB
M  END
>  <Dataset>  (74) 
PKIs

>  <Ligand_Instance>  (74) 
nan

>  <PDB_ID>  (74) 
nan

>  <Standardized_SMILES>  (74) 
Cc1cn(-c2cc(NC(=O)c3ccc(C)c(Nc4nccc(-c5cnccn5)n4)c3)cc(C(F)(F)F)c2)cn1

>  <Name>  (74) 
Radotinib

>  <Pocket>  (74) 
nan

>  <ATP_Site>  (74) 
nan

>  <Peripheral>  (74) 
nan

>  <Num_H_Atoms_ProtBoundConf>  (74) 
nan

>  <Num_Resolved_Atoms>  (74) 
nan

>  <Num_Not_Resolved_Atoms>  (74) 
nan

>  <2D_Mol_H>  (74) 
<rdkit.Chem.rdchem.Mol object at 0x72a2391414d0>

>  <MW>  (74) 
530.514

>  <HBA>  (74) 
8

>  <HBD>  (74) 
2

>  <LogP>  (74) 
5.75084

>  <NRB>  (74) 
8

>  <TPSA>  (74) 
110.51

>  <Num_Heavy_Atoms>  (74) 
39

>  <Ro5>  (74) 
[False, True, True, False, True, True]

>  <Ro5_Fulfilled>  (74) 
False

>  <Ro3>  (74) 
[False, False, True, False]

>  <Ro3_Fulfilled>  (74) 
False

>  <Fsp3>  (74) 
0.111111

>  <Fsp3_0.42>  (74) 
False

>  <Fsp3_0.45>  (74) 
False

>  <Stereogenic_Carbons>  (74) 
0

>  <C_Atoms>  (74) 
27

>  <FCStereo>  (74) 
0.0

>  <SPS>  (74) 
441

>  <nSPS>  (74) 
11.307692

>  <PBF>  (74) 
1.103812

>  <PBF_0.6>  (74) 
True

>  <nPBF>  (74) 
0.028303

>  <nPBF_0.016>  (74) 
True

>  <PMI1>  (74) 
4729.374969

>  <PMI2>  (74) 
10634.57964

>  <PMI3>  (74) 
12322.725753

>  <NPR1>  (74) 
0.383793

>  <NPR2>  (74) 
0.863005

>  <Sum_NPR>  (74) 
1.246798

>  <Sum_NPR_1.07>  (74) 
True

>  <Sum_NPR_1.2>  (74) 
True

>  <MaxAbsEStateIndex>  (74) 
13.605259

>  <MaxEStateIndex>  (74) 
13.605259

>  <MinAbsEStateIndex>  (74) 
0.008086

>  <MinEStateIndex>  (74) 
-4.605227

>  <qed>  (74) 
0.287589

>  <MolWt>  (74) 
530.514

>  <HeavyAtomMolWt>  (74) 
509.346

>  <ExactMolWt>  (74) 
530.179042

>  <NumValenceElectrons>  (74) 
196

>  <NumRadicalElectrons>  (74) 
0

>  <MaxPartialCharge>  (74) 
0.416062

>  <MinPartialCharge>  (74) 
-0.323896

>  <MaxAbsPartialCharge>  (74) 
0.416062

>  <MinAbsPartialCharge>  (74) 
0.323896

>  <FpDensityMorgan1>  (74) 
0.923077

>  <FpDensityMorgan2>  (74) 
1.769231

>  <FpDensityMorgan3>  (74) 
2.487179

>  <BCUT2D_MWHI>  (74) 
19.413192

>  <BCUT2D_MWLOW>  (74) 
10.087083

>  <BCUT2D_CHGHI>  (74) 
2.313566

>  <BCUT2D_CHGLO>  (74) 
-2.144073

>  <BCUT2D_LOGPHI>  (74) 
2.331348

>  <BCUT2D_LOGPLOW>  (74) 
-2.143188

>  <BCUT2D_MRHI>  (74) 
6.048071

>  <BCUT2D_MRLOW>  (74) 
-0.137104

>  <AvgIpc>  (74) 
3.360224

>  <BalabanJ>  (74) 
1.406069

>  <BertzCT>  (74) 
1650.936279

>  <Chi0>  (74) 
27.570339

>  <Chi0n>  (74) 
20.730977

>  <Chi0v>  (74) 
20.730977

>  <Chi1>  (74) 
18.652018

>  <Chi1n>  (74) 
11.672881

>  <Chi1v>  (74) 
11.672881

>  <Chi2n>  (74) 
8.653607

>  <Chi2v>  (74) 
8.653607

>  <Chi3n>  (74) 
5.740221

>  <Chi3v>  (74) 
5.740221

>  <Chi4n>  (74) 
3.77307

>  <Chi4v>  (74) 
3.77307

>  <HallKierAlpha>  (74) 
-5.13

>  <Ipc>  (74) 
649397948.082629

>  <Kappa1>  (74) 
25.51667

>  <Kappa2>  (74) 
10.322797

>  <Kappa3>  (74) 
5.89896

>  <LabuteASA>  (74) 
220.394773

>  <PEOE_VSA1>  (74) 
15.200677

>  <PEOE_VSA10>  (74) 
5.693928

>  <PEOE_VSA11>  (74) 
0.0

>  <PEOE_VSA12>  (74) 
5.948339

>  <PEOE_VSA13>  (74) 
5.90718

>  <PEOE_VSA14>  (74) 
6.176299

>  <PEOE_VSA2>  (74) 
14.762494

>  <PEOE_VSA3>  (74) 
14.951936

>  <PEOE_VSA4>  (74) 
13.171245

>  <PEOE_VSA5>  (74) 
0.0

>  <PEOE_VSA6>  (74) 
6.066367

>  <PEOE_VSA7>  (74) 
55.809128

>  <PEOE_VSA8>  (74) 
47.412985

>  <PEOE_VSA9>  (74) 
29.475471

>  <SMR_VSA1>  (74) 
17.965782

>  <SMR_VSA10>  (74) 
23.230292

>  <SMR_VSA2>  (74) 
0.0

>  <SMR_VSA3>  (74) 
29.486992

>  <SMR_VSA4>  (74) 
0.0

>  <SMR_VSA5>  (74) 
20.023773

>  <SMR_VSA6>  (74) 
10.633577

>  <SMR_VSA7>  (74) 
102.16039

>  <SMR_VSA8>  (74) 
0.0

>  <SMR_VSA9>  (74) 
17.075242

>  <SlogP_VSA1>  (74) 
10.633577

>  <SlogP_VSA10>  (74) 
30.494357

>  <SlogP_VSA11>  (74) 
0.0

>  <SlogP_VSA12>  (74) 
0.0

>  <SlogP_VSA2>  (74) 
35.394172

>  <SlogP_VSA3>  (74) 
6.176299

>  <SlogP_VSA4>  (74) 
13.847474

>  <SlogP_VSA5>  (74) 
27.17882

>  <SlogP_VSA6>  (74) 
79.776107

>  <SlogP_VSA7>  (74) 
0.0

>  <SlogP_VSA8>  (74) 
17.075242

>  <SlogP_VSA9>  (74) 
0.0

>  <EState_VSA1>  (74) 
17.64693

>  <EState_VSA10>  (74) 
17.965782

>  <EState_VSA11>  (74) 
0.0

>  <EState_VSA2>  (74) 
22.886563

>  <EState_VSA3>  (74) 
22.76917

>  <EState_VSA4>  (74) 
17.696186

>  <EState_VSA5>  (74) 
16.960787

>  <EState_VSA6>  (74) 
62.173423

>  <EState_VSA7>  (74) 
6.923737

>  <EState_VSA8>  (74) 
35.55347

>  <EState_VSA9>  (74) 
0.0

>  <VSA_EState1>  (74) 
42.27736

>  <VSA_EState10>  (74) 
0.0

>  <VSA_EState2>  (74) 
34.124731

>  <VSA_EState3>  (74) 
5.675899

>  <VSA_EState4>  (74) 
2.662139

>  <VSA_EState5>  (74) 
-0.308961

>  <VSA_EState6>  (74) 
9.921375

>  <VSA_EState7>  (74) 
4.665717

>  <VSA_EState8>  (74) 
3.565073

>  <VSA_EState9>  (74) 
0.0

>  <FractionCSP3>  (74) 
0.111111

>  <HeavyAtomCount>  (74) 
39

>  <NHOHCount>  (74) 
2

>  <NOCount>  (74) 
9

>  <NumAliphaticCarbocycles>  (74) 
0

>  <NumAliphaticHeterocycles>  (74) 
0

>  <NumAliphaticRings>  (74) 
0

>  <NumAromaticCarbocycles>  (74) 
2

>  <NumAromaticHeterocycles>  (74) 
3

>  <NumAromaticRings>  (74) 
5

>  <NumHAcceptors>  (74) 
8

>  <NumHDonors>  (74) 
2

>  <NumHeteroatoms>  (74) 
12

>  <NumRotatableBonds>  (74) 
6

>  <NumSaturatedCarbocycles>  (74) 
0

>  <NumSaturatedHeterocycles>  (74) 
0

>  <NumSaturatedRings>  (74) 
0

>  <RingCount>  (74) 
5

>  <MolLogP>  (74) 
5.75084

>  <MolMR>  (74) 
138.7759

>  <fr_Al_COO>  (74) 
0

>  <fr_Al_OH>  (74) 
0

>  <fr_Al_OH_noTert>  (74) 
0

>  <fr_ArN>  (74) 
0

>  <fr_Ar_COO>  (74) 
0

>  <fr_Ar_N>  (74) 
6

>  <fr_Ar_NH>  (74) 
0

>  <fr_Ar_OH>  (74) 
0

>  <fr_COO>  (74) 
0

>  <fr_COO2>  (74) 
0

>  <fr_C_O>  (74) 
1

>  <fr_C_O_noCOO>  (74) 
1

>  <fr_C_S>  (74) 
0

>  <fr_HOCCN>  (74) 
0

>  <fr_Imine>  (74) 
0

>  <fr_NH0>  (74) 
6

>  <fr_NH1>  (74) 
2

>  <fr_NH2>  (74) 
0

>  <fr_N_O>  (74) 
0

>  <fr_Ndealkylation1>  (74) 
0

>  <fr_Ndealkylation2>  (74) 
0

>  <fr_Nhpyrrole>  (74) 
0

>  <fr_SH>  (74) 
0

>  <fr_aldehyde>  (74) 
0

>  <fr_alkyl_carbamate>  (74) 
0

>  <fr_alkyl_halide>  (74) 
3

>  <fr_allylic_oxid>  (74) 
0

>  <fr_amide>  (74) 
1

>  <fr_amidine>  (74) 
0

>  <fr_aniline>  (74) 
3

>  <fr_aryl_methyl>  (74) 
2

>  <fr_azide>  (74) 
0

>  <fr_azo>  (74) 
0

>  <fr_barbitur>  (74) 
0

>  <fr_benzene>  (74) 
2

>  <fr_benzodiazepine>  (74) 
0

>  <fr_bicyclic>  (74) 
0

>  <fr_diazo>  (74) 
0

>  <fr_dihydropyridine>  (74) 
0

>  <fr_epoxide>  (74) 
0

>  <fr_ester>  (74) 
0

>  <fr_ether>  (74) 
0

>  <fr_furan>  (74) 
0

>  <fr_guanido>  (74) 
0

>  <fr_halogen>  (74) 
3

>  <fr_hdrzine>  (74) 
0

>  <fr_hdrzone>  (74) 
0

>  <fr_imidazole>  (74) 
1

>  <fr_imide>  (74) 
0

>  <fr_isocyan>  (74) 
0

>  <fr_isothiocyan>  (74) 
0

>  <fr_ketone>  (74) 
0

>  <fr_ketone_Topliss>  (74) 
0

>  <fr_lactam>  (74) 
0

>  <fr_lactone>  (74) 
0

>  <fr_methoxy>  (74) 
0

>  <fr_morpholine>  (74) 
0

>  <fr_nitrile>  (74) 
0

>  <fr_nitro>  (74) 
0

>  <fr_nitro_arom>  (74) 
0

>  <fr_nitro_arom_nonortho>  (74) 
0

>  <fr_nitroso>  (74) 
0

>  <fr_oxazole>  (74) 
0

>  <fr_oxime>  (74) 
0

>  <fr_para_hydroxylation>  (74) 
0

>  <fr_phenol>  (74) 
0

>  <fr_phenol_noOrthoHbond>  (74) 
0

>  <fr_phos_acid>  (74) 
0

>  <fr_phos_ester>  (74) 
0

>  <fr_piperdine>  (74) 
0

>  <fr_piperzine>  (74) 
0

>  <fr_priamide>  (74) 
0

>  <fr_prisulfonamd>  (74) 
0

>  <fr_pyridine>  (74) 
0

>  <fr_quatN>  (74) 
0

>  <fr_sulfide>  (74) 
0

>  <fr_sulfonamd>  (74) 
0

>  <fr_sulfone>  (74) 
0

>  <fr_term_acetylene>  (74) 
0

>  <fr_tetrazole>  (74) 
0

>  <fr_thiazole>  (74) 
0

>  <fr_thiocyan>  (74) 
0

>  <fr_thiophene>  (74) 
0

>  <fr_unbrch_alkane>  (74) 
0

>  <fr_urea>  (74) 
0

>  <NP_Likeness>  (74) 
-1.902235

$$$$
nan
     RDKit          3D

  0  0  0  0  0  0  0  0  0  0999 V3000
M  V30 BEGIN CTAB
M  V30 COUNTS 70 75 0 0 0
M  V30 BEGIN ATOM
M  V30 1 C 1.141587 -3.334589 4.100308 0
M  V30 2 C 0.649818 -3.963929 2.825777 0
M  V30 3 C 0.591179 -3.016500 1.681454 0
M  V30 4 C 1.634581 -3.079993 0.754895 0
M  V30 5 C 1.673652 -2.237995 -0.329346 0
M  V30 6 C 0.694393 -1.292175 -0.561275 0
M  V30 7 C -0.317299 -1.280676 0.398940 0
M  V30 8 C -0.419009 -2.094976 1.508650 0
M  V30 9 N -1.514101 -1.980088 2.406622 0
M  V30 10 C -1.635090 -1.612134 3.807829 0
M  V30 11 C -2.865861 -0.848004 4.134091 0
M  V30 12 C -3.563059 -0.180681 3.002115 0
M  V30 13 N -3.031739 1.072904 2.574772 0
M  V30 14 C -2.968583 2.083631 3.609205 0
M  V30 15 C -2.445369 3.356819 2.984014 0
M  V30 16 O -3.112359 3.742519 1.837026 0
M  V30 17 C -4.267163 2.989917 1.691328 0
M  V30 18 C -3.849745 1.548602 1.456825 0
M  V30 19 C -3.688188 -1.074652 1.785495 0
M  V30 20 C -2.828496 -2.290541 1.875267 0
M  V30 21 C 0.613011 -0.336378 -1.670871 0
M  V30 22 C -0.688326 -0.381528 -2.417982 0
M  V30 23 C 0.769550 1.050556 -1.044328 0
M  V30 24 C 1.785926 -0.534769 -2.556483 0
M  V30 25 N 1.967533 0.213100 -3.663151 0
M  V30 26 C 3.104534 -0.192758 -4.256137 0
M  V30 27 C 3.804117 0.182099 -5.399660 0
M  V30 28 C 4.995000 -0.431116 -5.787244 0
M  V30 29 C 5.669189 -0.001802 -6.974497 0
M  V30 30 N 6.208754 0.339757 -7.952935 0
M  V30 31 C 5.494408 -1.449826 -5.000943 0
M  V30 32 C 4.858772 -1.870424 -3.862170 0
M  V30 33 C 3.686841 -1.218961 -3.540674 0
M  V30 34 C 2.839820 -1.420647 -2.471405 0
M  V30 35 C 2.759535 -2.296890 -1.303792 0
M  V30 36 O 3.680400 -3.142625 -1.140125 0
M  V30 37 H 0.442805 -3.543690 4.908118 0
M  V30 38 H 2.127733 -3.847519 4.325043 0
M  V30 39 H 1.322126 -2.259524 3.890674 0
M  V30 40 H 1.264838 -4.862679 2.528233 0
M  V30 41 H -0.358187 -4.399147 3.033966 0
M  V30 42 H 2.441869 -3.817339 0.893456 0
M  V30 43 H -1.115991 -0.561298 0.276435 0
M  V30 44 H -1.654320 -2.574969 4.359554 0
M  V30 45 H -0.714000 -1.066738 4.172467 0
M  V30 46 H -3.623545 -1.558765 4.583880 0
M  V30 47 H -2.649748 -0.113667 4.933319 0
M  V30 48 H -4.621100 0.030671 3.337467 0
M  V30 49 H -2.172614 1.754577 4.317884 0
M  V30 50 H -3.893464 2.219219 4.171662 0
M  V30 51 H -2.588367 4.209719 3.710720 0
M  V30 52 H -1.350836 3.284054 2.767786 0
M  V30 53 H -4.849289 3.313857 0.791286 0
M  V30 54 H -4.881940 3.032493 2.601432 0
M  V30 55 H -3.235402 1.452137 0.546788 0
M  V30 56 H -4.743072 0.899320 1.357001 0
M  V30 57 H -4.746559 -1.426559 1.624776 0
M  V30 58 H -3.431768 -0.549833 0.845957 0
M  V30 59 H -2.758470 -2.694649 0.822353 0
M  V30 60 H -3.289056 -3.058155 2.537485 0
M  V30 61 H -0.896935 -1.410657 -2.740194 0
M  V30 62 H -0.533929 0.218735 -3.347960 0
M  V30 63 H -1.495607 0.120476 -1.874854 0
M  V30 64 H 0.095189 1.110023 -0.147879 0
M  V30 65 H 1.816921 1.242075 -0.740393 0
M  V30 66 H 0.457936 1.843820 -1.731485 0
M  V30 67 H 1.422936 0.999668 -4.116785 0
M  V30 68 H 3.417324 0.982577 -6.022312 0
M  V30 69 H 6.423208 -1.949935 -5.276262 0
M  V30 70 H 5.224874 -2.667870 -3.222707 0
M  V30 END ATOM
M  V30 BEGIN BOND
M  V30 1 1 1 2
M  V30 2 1 2 3
M  V30 3 2 3 4
M  V30 4 1 4 5
M  V30 5 2 5 6
M  V30 6 1 6 7
M  V30 7 2 7 8
M  V30 8 1 8 9
M  V30 9 1 9 10
M  V30 10 1 10 11
M  V30 11 1 11 12
M  V30 12 1 12 13
M  V30 13 1 13 14
M  V30 14 1 14 15
M  V30 15 1 15 16
M  V30 16 1 16 17
M  V30 17 1 17 18
M  V30 18 1 12 19
M  V30 19 1 19 20
M  V30 20 1 6 21
M  V30 21 1 21 22
M  V30 22 1 21 23
M  V30 23 1 21 24
M  V30 24 1 24 25
M  V30 25 1 25 26
M  V30 26 2 26 27
M  V30 27 1 27 28
M  V30 28 1 28 29
M  V30 29 3 29 30
M  V30 30 2 28 31
M  V30 31 1 31 32
M  V30 32 2 32 33
M  V30 33 1 33 34
M  V30 34 1 34 35
M  V30 35 2 35 36
M  V30 36 1 8 3
M  V30 37 1 20 9
M  V30 38 2 34 24
M  V30 39 1 35 5
M  V30 40 1 18 13
M  V30 41 1 33 26
M  V30 42 1 1 37
M  V30 43 1 1 38
M  V30 44 1 1 39
M  V30 45 1 2 40
M  V30 46 1 2 41
M  V30 47 1 4 42
M  V30 48 1 7 43
M  V30 49 1 10 44
M  V30 50 1 10 45
M  V30 51 1 11 46
M  V30 52 1 11 47
M  V30 53 1 12 48
M  V30 54 1 14 49
M  V30 55 1 14 50
M  V30 56 1 15 51
M  V30 57 1 15 52
M  V30 58 1 17 53
M  V30 59 1 17 54
M  V30 60 1 18 55
M  V30 61 1 18 56
M  V30 62 1 19 57
M  V30 63 1 19 58
M  V30 64 1 20 59
M  V30 65 1 20 60
M  V30 66 1 22 61
M  V30 67 1 22 62
M  V30 68 1 22 63
M  V30 69 1 23 64
M  V30 70 1 23 65
M  V30 71 1 23 66
M  V30 72 1 25 67
M  V30 73 1 27 68
M  V30 74 1 31 69
M  V30 75 1 32 70
M  V30 END BOND
M  V30 END CTAB
M  END
>  <Dataset>  (75) 
PKIs

>  <Ligand_Instance>  (75) 
nan

>  <PDB_ID>  (75) 
nan

>  <Standardized_SMILES>  (75) 
CCc1cc2c(cc1N1CCC(N3CCOCC3)CC1)C(C)(C)c1[nH]c3cc(C#N)ccc3c1C2=O

>  <Name>  (75) 
Alectinib

>  <Pocket>  (75) 
nan

>  <ATP_Site>  (75) 
nan

>  <Peripheral>  (75) 
nan

>  <Num_H_Atoms_ProtBoundConf>  (75) 
nan

>  <Num_Resolved_Atoms>  (75) 
nan

>  <Num_Not_Resolved_Atoms>  (75) 
nan

>  <2D_Mol_H>  (75) 
<rdkit.Chem.rdchem.Mol object at 0x72a2391415b0>

>  <MW>  (75) 
482.628

>  <HBA>  (75) 
5

>  <HBD>  (75) 
1

>  <LogP>  (75) 
4.77328

>  <NRB>  (75) 
6

>  <TPSA>  (75) 
72.36

>  <Num_Heavy_Atoms>  (75) 
36

>  <Ro5>  (75) 
[True, True, True, True, True, True]

>  <Ro5_Fulfilled>  (75) 
True

>  <Ro3>  (75) 
[False, False, True, False]

>  <Ro3_Fulfilled>  (75) 
False

>  <Fsp3>  (75) 
0.466667

>  <Fsp3_0.42>  (75) 
True

>  <Fsp3_0.45>  (75) 
True

>  <Stereogenic_Carbons>  (75) 
0

>  <C_Atoms>  (75) 
30

>  <FCStereo>  (75) 
0.0

>  <SPS>  (75) 
730

>  <nSPS>  (75) 
20.277778

>  <PBF>  (75) 
0.88354

>  <PBF_0.6>  (75) 
True

>  <nPBF>  (75) 
0.024543

>  <nPBF_0.016>  (75) 
True

>  <PMI1>  (75) 
2551.503666

>  <PMI2>  (75) 
9512.386306

>  <PMI3>  (75) 
11369.195304

>  <NPR1>  (75) 
0.224423

>  <NPR2>  (75) 
0.836681

>  <Sum_NPR>  (75) 
1.061103

>  <Sum_NPR_1.07>  (75) 
False

>  <Sum_NPR_1.2>  (75) 
False

>  <MaxAbsEStateIndex>  (75) 
13.884751

>  <MaxEStateIndex>  (75) 
13.884751

>  <MinAbsEStateIndex>  (75) 
0.085702

>  <MinEStateIndex>  (75) 
-0.349655

>  <qed>  (75) 
0.58209

>  <MolWt>  (75) 
482.628

>  <HeavyAtomMolWt>  (75) 
448.356

>  <ExactMolWt>  (75) 
482.268176

>  <NumValenceElectrons>  (75) 
186

>  <NumRadicalElectrons>  (75) 
0

>  <MaxPartialCharge>  (75) 
0.195315

>  <MinPartialCharge>  (75) 
-0.378792

>  <MaxAbsPartialCharge>  (75) 
0.378792

>  <MinAbsPartialCharge>  (75) 
0.195315

>  <FpDensityMorgan1>  (75) 
1.111111

>  <FpDensityMorgan2>  (75) 
1.861111

>  <FpDensityMorgan3>  (75) 
2.555556

>  <BCUT2D_MWHI>  (75) 
16.477553

>  <BCUT2D_MWLOW>  (75) 
9.702191

>  <BCUT2D_CHGHI>  (75) 
2.404547

>  <BCUT2D_CHGLO>  (75) 
-2.417385

>  <BCUT2D_LOGPHI>  (75) 
2.456331

>  <BCUT2D_LOGPLOW>  (75) 
-2.48832

>  <BCUT2D_MRHI>  (75) 
6.19943

>  <BCUT2D_MRLOW>  (75) 
0.011474

>  <AvgIpc>  (75) 
3.317207

>  <BalabanJ>  (75) 
1.368747

>  <BertzCT>  (75) 
1382.175223

>  <Chi0>  (75) 
25.026369

>  <Chi0n>  (75) 
21.4862

>  <Chi0v>  (75) 
21.4862

>  <Chi1>  (75) 
17.417383

>  <Chi1n>  (75) 
13.271689

>  <Chi1v>  (75) 
13.271689

>  <Chi2n>  (75) 
10.947911

>  <Chi2v>  (75) 
10.947911

>  <Chi3n>  (75) 
8.664647

>  <Chi3v>  (75) 
8.664647

>  <Chi4n>  (75) 
6.571125

>  <Chi4v>  (75) 
6.571125

>  <HallKierAlpha>  (75) 
-3.14

>  <Ipc>  (75) 
254517120.136866

>  <Kappa1>  (75) 
23.27008

>  <Kappa2>  (75) 
8.757842

>  <Kappa3>  (75) 
3.564455

>  <LabuteASA>  (75) 
212.388217

>  <PEOE_VSA1>  (75) 
14.620751

>  <PEOE_VSA10>  (75) 
0.0

>  <PEOE_VSA11>  (75) 
5.783245

>  <PEOE_VSA12>  (75) 
0.0

>  <PEOE_VSA13>  (75) 
0.0

>  <PEOE_VSA14>  (75) 
0.0

>  <PEOE_VSA2>  (75) 
9.694447

>  <PEOE_VSA3>  (75) 
0.0

>  <PEOE_VSA4>  (75) 
5.261892

>  <PEOE_VSA5>  (75) 
0.0

>  <PEOE_VSA6>  (75) 
26.837579

>  <PEOE_VSA7>  (75) 
54.654836

>  <PEOE_VSA8>  (75) 
65.483548

>  <PEOE_VSA9>  (75) 
30.409888

>  <SMR_VSA1>  (75) 
9.5314

>  <SMR_VSA10>  (75) 
22.373556

>  <SMR_VSA2>  (75) 
5.261892

>  <SMR_VSA3>  (75) 
9.883888

>  <SMR_VSA4>  (75) 
0.0

>  <SMR_VSA5>  (75) 
51.490508

>  <SMR_VSA6>  (75) 
44.292699

>  <SMR_VSA7>  (75) 
63.843021

>  <SMR_VSA8>  (75) 
0.0

>  <SMR_VSA9>  (75) 
6.069221

>  <SlogP_VSA1>  (75) 
4.89991

>  <SlogP_VSA10>  (75) 
5.687386

>  <SlogP_VSA11>  (75) 
0.0

>  <SlogP_VSA12>  (75) 
0.0

>  <SlogP_VSA2>  (75) 
61.101764

>  <SlogP_VSA3>  (75) 
16.572675

>  <SlogP_VSA4>  (75) 
11.331113

>  <SlogP_VSA5>  (75) 
71.918577

>  <SlogP_VSA6>  (75) 
30.331835

>  <SlogP_VSA7>  (75) 
0.0

>  <SlogP_VSA8>  (75) 
10.902925

>  <SlogP_VSA9>  (75) 
0.0

>  <EState_VSA1>  (75) 
0.0

>  <EState_VSA10>  (75) 
10.056429

>  <EState_VSA11>  (75) 
0.0

>  <EState_VSA2>  (75) 
11.198235

>  <EState_VSA3>  (75) 
11.605292

>  <EState_VSA4>  (75) 
91.942462

>  <EState_VSA5>  (75) 
11.250838

>  <EState_VSA6>  (75) 
6.066367

>  <EState_VSA7>  (75) 
12.132734

>  <EState_VSA8>  (75) 
53.756965

>  <EState_VSA9>  (75) 
4.736863

>  <VSA_EState1>  (75) 
5.551616

>  <VSA_EState10>  (75) 
0.0

>  <VSA_EState2>  (75) 
22.546342

>  <VSA_EState3>  (75) 
10.258136

>  <VSA_EState4>  (75) 
7.253613

>  <VSA_EState5>  (75) 
0.085702

>  <VSA_EState6>  (75) 
12.873596

>  <VSA_EState7>  (75) 
3.220133

>  <VSA_EState8>  (75) 
12.460862

>  <VSA_EState9>  (75) 
0.0

>  <FractionCSP3>  (75) 
0.466667

>  <HeavyAtomCount>  (75) 
36

>  <NHOHCount>  (75) 
1

>  <NOCount>  (75) 
6

>  <NumAliphaticCarbocycles>  (75) 
1

>  <NumAliphaticHeterocycles>  (75) 
2

>  <NumAliphaticRings>  (75) 
3

>  <NumAromaticCarbocycles>  (75) 
2

>  <NumAromaticHeterocycles>  (75) 
1

>  <NumAromaticRings>  (75) 
3

>  <NumHAcceptors>  (75) 
5

>  <NumHDonors>  (75) 
1

>  <NumHeteroatoms>  (75) 
6

>  <NumRotatableBonds>  (75) 
3

>  <NumSaturatedCarbocycles>  (75) 
0

>  <NumSaturatedHeterocycles>  (75) 
2

>  <NumSaturatedRings>  (75) 
2

>  <RingCount>  (75) 
6

>  <MolLogP>  (75) 
4.77328

>  <MolMR>  (75) 
142.0212

>  <fr_Al_COO>  (75) 
0

>  <fr_Al_OH>  (75) 
0

>  <fr_Al_OH_noTert>  (75) 
0

>  <fr_ArN>  (75) 
0

>  <fr_Ar_COO>  (75) 
0

>  <fr_Ar_N>  (75) 
1

>  <fr_Ar_NH>  (75) 
1

>  <fr_Ar_OH>  (75) 
0

>  <fr_COO>  (75) 
0

>  <fr_COO2>  (75) 
0

>  <fr_C_O>  (75) 
1

>  <fr_C_O_noCOO>  (75) 
1

>  <fr_C_S>  (75) 
0

>  <fr_HOCCN>  (75) 
0

>  <fr_Imine>  (75) 
0

>  <fr_NH0>  (75) 
3

>  <fr_NH1>  (75) 
1

>  <fr_NH2>  (75) 
0

>  <fr_N_O>  (75) 
0

>  <fr_Ndealkylation1>  (75) 
0

>  <fr_Ndealkylation2>  (75) 
0

>  <fr_Nhpyrrole>  (75) 
1

>  <fr_SH>  (75) 
0

>  <fr_aldehyde>  (75) 
0

>  <fr_alkyl_carbamate>  (75) 
0

>  <fr_alkyl_halide>  (75) 
0

>  <fr_allylic_oxid>  (75) 
0

>  <fr_amide>  (75) 
0

>  <fr_amidine>  (75) 
0

>  <fr_aniline>  (75) 
1

>  <fr_aryl_methyl>  (75) 
1

>  <fr_azide>  (75) 
0

>  <fr_azo>  (75) 
0

>  <fr_barbitur>  (75) 
0

>  <fr_benzene>  (75) 
2

>  <fr_benzodiazepine>  (75) 
0

>  <fr_bicyclic>  (75) 
4

>  <fr_diazo>  (75) 
0

>  <fr_dihydropyridine>  (75) 
0

>  <fr_epoxide>  (75) 
0

>  <fr_ester>  (75) 
0

>  <fr_ether>  (75) 
1

>  <fr_furan>  (75) 
0

>  <fr_guanido>  (75) 
0

>  <fr_halogen>  (75) 
0

>  <fr_hdrzine>  (75) 
0

>  <fr_hdrzone>  (75) 
0

>  <fr_imidazole>  (75) 
0

>  <fr_imide>  (75) 
0

>  <fr_isocyan>  (75) 
0

>  <fr_isothiocyan>  (75) 
0

>  <fr_ketone>  (75) 
1

>  <fr_ketone_Topliss>  (75) 
0

>  <fr_lactam>  (75) 
0

>  <fr_lactone>  (75) 
0

>  <fr_methoxy>  (75) 
0

>  <fr_morpholine>  (75) 
1

>  <fr_nitrile>  (75) 
1

>  <fr_nitro>  (75) 
0

>  <fr_nitro_arom>  (75) 
0

>  <fr_nitro_arom_nonortho>  (75) 
0

>  <fr_nitroso>  (75) 
0

>  <fr_oxazole>  (75) 
0

>  <fr_oxime>  (75) 
0

>  <fr_para_hydroxylation>  (75) 
0

>  <fr_phenol>  (75) 
0

>  <fr_phenol_noOrthoHbond>  (75) 
0

>  <fr_phos_acid>  (75) 
0

>  <fr_phos_ester>  (75) 
0

>  <fr_piperdine>  (75) 
1

>  <fr_piperzine>  (75) 
0

>  <fr_priamide>  (75) 
0

>  <fr_prisulfonamd>  (75) 
0

>  <fr_pyridine>  (75) 
0

>  <fr_quatN>  (75) 
0

>  <fr_sulfide>  (75) 
0

>  <fr_sulfonamd>  (75) 
0

>  <fr_sulfone>  (75) 
0

>  <fr_term_acetylene>  (75) 
0

>  <fr_tetrazole>  (75) 
0

>  <fr_thiazole>  (75) 
0

>  <fr_thiocyan>  (75) 
0

>  <fr_thiophene>  (75) 
0

>  <fr_unbrch_alkane>  (75) 
0

>  <fr_urea>  (75) 
0

>  <NP_Likeness>  (75) 
-0.210396

$$$$
nan
     RDKit          3D

  0  0  0  0  0  0  0  0  0  0999 V3000
M  V30 BEGIN CTAB
M  V30 COUNTS 49 52 0 0 0
M  V30 BEGIN ATOM
M  V30 1 C 0.676452 -7.003814 2.908913 0
M  V30 2 O 0.508935 -6.164237 1.782199 0
M  V30 3 C 1.189126 -4.989005 1.599291 0
M  V30 4 C 2.094913 -4.600611 2.576594 0
M  V30 5 C 2.822198 -3.430264 2.470792 0
M  V30 6 N 3.720987 -2.988309 3.368000 0
M  V30 7 C 4.388292 -1.831412 3.171405 0
M  V30 8 C 4.139816 -1.084918 2.020045 0
M  V30 9 C 3.208308 -1.509016 1.055788 0
M  V30 10 O 3.186966 -0.578354 0.057052 0
M  V30 11 C 2.111390 0.184334 -0.316998 0
M  V30 12 C 1.126991 0.218356 -1.280039 0
M  V30 13 C 0.159572 1.191001 -1.343782 0
M  V30 14 C 0.123364 2.212259 -0.421456 0
M  V30 15 N -0.914055 3.175839 -0.564364 0
M  V30 16 C -2.183860 2.986886 0.091543 0
M  V30 17 O -2.350111 1.953150 0.790066 0
M  V30 18 N -3.221916 3.969009 -0.062374 0
M  V30 19 C -4.467790 3.746277 0.603799 0
M  V30 20 C -5.677903 3.858203 -0.358625 0
M  V30 21 C -5.507752 4.740227 0.835882 0
M  V30 22 C 1.085411 2.235495 0.571895 0
M  V30 23 Cl 0.917777 3.587902 1.671716 0
M  V30 24 C 2.066684 1.231799 0.620885 0
M  V30 25 C 2.578680 -2.696814 1.339470 0
M  V30 26 C 1.698960 -3.044540 0.358671 0
M  V30 27 C 0.977685 -4.205731 0.464200 0
M  V30 28 C 0.013150 -4.666931 -0.526811 0
M  V30 29 N -0.228107 -3.894633 -1.696118 0
M  V30 30 O -0.574897 -5.754288 -0.294257 0
M  V30 31 H 1.680451 -7.464308 2.882306 0
M  V30 32 H -0.071764 -7.808278 2.939259 0
M  V30 33 H 0.639275 -6.390149 3.853897 0
M  V30 34 H 2.256200 -5.212121 3.456557 0
M  V30 35 H 5.082201 -1.576935 3.953530 0
M  V30 36 H 4.769980 -0.181876 2.031631 0
M  V30 37 H 1.288226 -0.636610 -1.936822 0
M  V30 38 H -0.515045 1.059154 -2.148865 0
M  V30 39 H -0.725981 4.020779 -1.157534 0
M  V30 40 H -3.016219 4.802944 -0.656387 0
M  V30 41 H -4.487504 2.803598 1.185676 0
M  V30 42 H -5.517059 4.338465 -1.341947 0
M  V30 43 H -6.418202 3.049717 -0.360479 0
M  V30 44 H -5.395563 5.814309 0.660501 0
M  V30 45 H -6.211329 4.529425 1.667767 0
M  V30 46 H 2.706193 1.468049 1.488455 0
M  V30 47 H 1.517723 -2.479949 -0.520571 0
M  V30 48 H -0.244110 -4.229548 -2.703764 0
M  V30 49 H -0.413842 -2.861975 -1.540995 0
M  V30 END ATOM
M  V30 BEGIN BOND
M  V30 1 1 1 2
M  V30 2 1 2 3
M  V30 3 2 3 4
M  V30 4 1 4 5
M  V30 5 2 5 6
M  V30 6 1 6 7
M  V30 7 2 7 8
M  V30 8 1 8 9
M  V30 9 1 9 10
M  V30 10 1 10 11
M  V30 11 2 11 12
M  V30 12 1 12 13
M  V30 13 2 13 14
M  V30 14 1 14 15
M  V30 15 1 15 16
M  V30 16 2 16 17
M  V30 17 1 16 18
M  V30 18 1 18 19
M  V30 19 1 19 20
M  V30 20 1 20 21
M  V30 21 1 14 22
M  V30 22 1 22 23
M  V30 23 2 22 24
M  V30 24 2 9 25
M  V30 25 1 25 26
M  V30 26 2 26 27
M  V30 27 1 27 28
M  V30 28 1 28 29
M  V30 29 2 28 30
M  V30 30 1 27 3
M  V30 31 1 25 5
M  V30 32 1 24 11
M  V30 33 1 21 19
M  V30 34 1 1 31
M  V30 35 1 1 32
M  V30 36 1 1 33
M  V30 37 1 4 34
M  V30 38 1 7 35
M  V30 39 1 8 36
M  V30 40 1 12 37
M  V30 41 1 13 38
M  V30 42 1 15 39
M  V30 43 1 18 40
M  V30 44 1 19 41
M  V30 45 1 20 42
M  V30 46 1 20 43
M  V30 47 1 21 44
M  V30 48 1 21 45
M  V30 49 1 24 46
M  V30 50 1 26 47
M  V30 51 1 29 48
M  V30 52 1 29 49
M  V30 END BOND
M  V30 END CTAB
M  END
>  <Dataset>  (76) 
PKIs

>  <Ligand_Instance>  (76) 
nan

>  <PDB_ID>  (76) 
nan

>  <Standardized_SMILES>  (76) 
COc1cc2nccc(Oc3ccc(NC(=O)NC4CC4)c(Cl)c3)c2cc1C(N)=O

>  <Name>  (76) 
Lenvatinib

>  <Pocket>  (76) 
nan

>  <ATP_Site>  (76) 
nan

>  <Peripheral>  (76) 
nan

>  <Num_H_Atoms_ProtBoundConf>  (76) 
nan

>  <Num_Resolved_Atoms>  (76) 
nan

>  <Num_Not_Resolved_Atoms>  (76) 
nan

>  <2D_Mol_H>  (76) 
<rdkit.Chem.rdchem.Mol object at 0x72a239141690>

>  <MW>  (76) 
426.86

>  <HBA>  (76) 
5

>  <HBD>  (76) 
3

>  <LogP>  (76) 
4.0719

>  <NRB>  (76) 
7

>  <TPSA>  (76) 
115.57

>  <Num_Heavy_Atoms>  (76) 
30

>  <Ro5>  (76) 
[True, True, True, True, True, True]

>  <Ro5_Fulfilled>  (76) 
True

>  <Ro3>  (76) 
[False, False, True, False]

>  <Ro3_Fulfilled>  (76) 
False

>  <Fsp3>  (76) 
0.190476

>  <Fsp3_0.42>  (76) 
False

>  <Fsp3_0.45>  (76) 
False

>  <Stereogenic_Carbons>  (76) 
0

>  <C_Atoms>  (76) 
21

>  <FCStereo>  (76) 
0.0

>  <SPS>  (76) 
390

>  <nSPS>  (76) 
13.0

>  <PBF>  (76) 
1.237792

>  <PBF_0.6>  (76) 
True

>  <nPBF>  (76) 
0.04126

>  <nPBF_0.016>  (76) 
True

>  <PMI1>  (76) 
2475.26355

>  <PMI2>  (76) 
7258.496326

>  <PMI3>  (76) 
8525.027629

>  <NPR1>  (76) 
0.290353

>  <NPR2>  (76) 
0.851434

>  <Sum_NPR>  (76) 
1.141786

>  <Sum_NPR_1.07>  (76) 
True

>  <Sum_NPR_1.2>  (76) 
False

>  <MaxAbsEStateIndex>  (76) 
11.90966

>  <MaxEStateIndex>  (76) 
11.90966

>  <MinAbsEStateIndex>  (76) 
0.224172

>  <MinEStateIndex>  (76) 
-0.618982

>  <qed>  (76) 
0.549037

>  <MolWt>  (76) 
426.86

>  <HeavyAtomMolWt>  (76) 
407.708

>  <ExactMolWt>  (76) 
426.109483

>  <NumValenceElectrons>  (76) 
154

>  <NumRadicalElectrons>  (76) 
0

>  <MaxPartialCharge>  (76) 
0.318996

>  <MinPartialCharge>  (76) 
-0.495841

>  <MaxAbsPartialCharge>  (76) 
0.495841

>  <MinAbsPartialCharge>  (76) 
0.318996

>  <FpDensityMorgan1>  (76) 
1.166667

>  <FpDensityMorgan2>  (76) 
1.966667

>  <FpDensityMorgan3>  (76) 
2.633333

>  <BCUT2D_MWHI>  (76) 
35.495692

>  <BCUT2D_MWLOW>  (76) 
10.086078

>  <BCUT2D_CHGHI>  (76) 
2.231207

>  <BCUT2D_CHGLO>  (76) 
-2.130061

>  <BCUT2D_LOGPHI>  (76) 
2.348555

>  <BCUT2D_LOGPLOW>  (76) 
-2.299447

>  <BCUT2D_MRHI>  (76) 
6.334191

>  <BCUT2D_MRLOW>  (76) 
0.099725

>  <AvgIpc>  (76) 
3.527211

>  <BalabanJ>  (76) 
1.600262

>  <BertzCT>  (76) 
1147.299685

>  <Chi0>  (76) 
21.250348

>  <Chi0n>  (76) 
16.068537

>  <Chi0v>  (76) 
16.824466

>  <Chi1>  (76) 
14.439892

>  <Chi1n>  (76) 
9.258247

>  <Chi1v>  (76) 
9.636211

>  <Chi2n>  (76) 
6.85943

>  <Chi2v>  (76) 
7.26663

>  <Chi3n>  (76) 
4.617389

>  <Chi3v>  (76) 
4.930098

>  <Chi4n>  (76) 
2.957858

>  <Chi4v>  (76) 
3.175635

>  <HallKierAlpha>  (76) 
-3.52

>  <Ipc>  (76) 
10373463.516602

>  <Kappa1>  (76) 
19.781621

>  <Kappa2>  (76) 
8.076872

>  <Kappa3>  (76) 
4.230758

>  <LabuteASA>  (76) 
176.866647

>  <PEOE_VSA1>  (76) 
25.840971

>  <PEOE_VSA10>  (76) 
17.248535

>  <PEOE_VSA11>  (76) 
0.0

>  <PEOE_VSA12>  (76) 
0.0

>  <PEOE_VSA13>  (76) 
5.90718

>  <PEOE_VSA14>  (76) 
6.031115

>  <PEOE_VSA2>  (76) 
9.778516

>  <PEOE_VSA3>  (76) 
4.794537

>  <PEOE_VSA4>  (76) 
0.0

>  <PEOE_VSA5>  (76) 
0.0

>  <PEOE_VSA6>  (76) 
11.60094

>  <PEOE_VSA7>  (76) 
37.107112

>  <PEOE_VSA8>  (76) 
29.757643

>  <PEOE_VSA9>  (76) 
28.899969

>  <SMR_VSA1>  (76) 
19.0628

>  <SMR_VSA10>  (76) 
40.129545

>  <SMR_VSA2>  (76) 
0.0

>  <SMR_VSA3>  (76) 
10.300767

>  <SMR_VSA4>  (76) 
5.733667

>  <SMR_VSA5>  (76) 
18.883484

>  <SMR_VSA6>  (76) 
12.426586

>  <SMR_VSA7>  (76) 
53.181131

>  <SMR_VSA8>  (76) 
0.0

>  <SMR_VSA9>  (76) 
17.248535

>  <SlogP_VSA1>  (76) 
25.840971

>  <SlogP_VSA10>  (76) 
10.481923

>  <SlogP_VSA11>  (76) 
17.248535

>  <SlogP_VSA12>  (76) 
11.60094

>  <SlogP_VSA2>  (76) 
30.073911

>  <SlogP_VSA3>  (76) 
0.0

>  <SlogP_VSA4>  (76) 
0.0

>  <SlogP_VSA5>  (76) 
23.199632

>  <SlogP_VSA6>  (76) 
42.595046

>  <SlogP_VSA7>  (76) 
5.022633

>  <SlogP_VSA8>  (76) 
10.902925

>  <SlogP_VSA9>  (76) 
0.0

>  <EState_VSA1>  (76) 
5.90718

>  <EState_VSA10>  (76) 
9.589074

>  <EState_VSA11>  (76) 
0.0

>  <EState_VSA2>  (76) 
17.636407

>  <EState_VSA3>  (76) 
38.86148

>  <EState_VSA4>  (76) 
12.841643

>  <EState_VSA5>  (76) 
7.109798

>  <EState_VSA6>  (76) 
42.595046

>  <EState_VSA7>  (76) 
0.0

>  <EState_VSA8>  (76) 
15.617556

>  <EState_VSA9>  (76) 
26.808333

>  <VSA_EState1>  (76) 
11.192113

>  <VSA_EState10>  (76) 
6.303911

>  <VSA_EState2>  (76) 
27.96141

>  <VSA_EState3>  (76) 
6.476791

>  <VSA_EState4>  (76) 
6.734644

>  <VSA_EState5>  (76) 
0.638513

>  <VSA_EState6>  (76) 
9.770413

>  <VSA_EState7>  (76) 
3.578489

>  <VSA_EState8>  (76) 
0.0

>  <VSA_EState9>  (76) 
1.454826

>  <FractionCSP3>  (76) 
0.190476

>  <HeavyAtomCount>  (76) 
30

>  <NHOHCount>  (76) 
4

>  <NOCount>  (76) 
8

>  <NumAliphaticCarbocycles>  (76) 
1

>  <NumAliphaticHeterocycles>  (76) 
0

>  <NumAliphaticRings>  (76) 
1

>  <NumAromaticCarbocycles>  (76) 
2

>  <NumAromaticHeterocycles>  (76) 
1

>  <NumAromaticRings>  (76) 
3

>  <NumHAcceptors>  (76) 
5

>  <NumHDonors>  (76) 
3

>  <NumHeteroatoms>  (76) 
9

>  <NumRotatableBonds>  (76) 
6

>  <NumSaturatedCarbocycles>  (76) 
1

>  <NumSaturatedHeterocycles>  (76) 
0

>  <NumSaturatedRings>  (76) 
1

>  <RingCount>  (76) 
4

>  <MolLogP>  (76) 
4.0719

>  <MolMR>  (76) 
113.5153

>  <fr_Al_COO>  (76) 
0

>  <fr_Al_OH>  (76) 
0

>  <fr_Al_OH_noTert>  (76) 
0

>  <fr_ArN>  (76) 
0

>  <fr_Ar_COO>  (76) 
0

>  <fr_Ar_N>  (76) 
1

>  <fr_Ar_NH>  (76) 
0

>  <fr_Ar_OH>  (76) 
0

>  <fr_COO>  (76) 
0

>  <fr_COO2>  (76) 
0

>  <fr_C_O>  (76) 
2

>  <fr_C_O_noCOO>  (76) 
2

>  <fr_C_S>  (76) 
0

>  <fr_HOCCN>  (76) 
0

>  <fr_Imine>  (76) 
0

>  <fr_NH0>  (76) 
1

>  <fr_NH1>  (76) 
2

>  <fr_NH2>  (76) 
1

>  <fr_N_O>  (76) 
0

>  <fr_Ndealkylation1>  (76) 
0

>  <fr_Ndealkylation2>  (76) 
0

>  <fr_Nhpyrrole>  (76) 
0

>  <fr_SH>  (76) 
0

>  <fr_aldehyde>  (76) 
0

>  <fr_alkyl_carbamate>  (76) 
0

>  <fr_alkyl_halide>  (76) 
0

>  <fr_allylic_oxid>  (76) 
0

>  <fr_amide>  (76) 
3

>  <fr_amidine>  (76) 
0

>  <fr_aniline>  (76) 
1

>  <fr_aryl_methyl>  (76) 
0

>  <fr_azide>  (76) 
0

>  <fr_azo>  (76) 
0

>  <fr_barbitur>  (76) 
0

>  <fr_benzene>  (76) 
2

>  <fr_benzodiazepine>  (76) 
0

>  <fr_bicyclic>  (76) 
1

>  <fr_diazo>  (76) 
0

>  <fr_dihydropyridine>  (76) 
0

>  <fr_epoxide>  (76) 
0

>  <fr_ester>  (76) 
0

>  <fr_ether>  (76) 
2

>  <fr_furan>  (76) 
0

>  <fr_guanido>  (76) 
0

>  <fr_halogen>  (76) 
1

>  <fr_hdrzine>  (76) 
0

>  <fr_hdrzone>  (76) 
0

>  <fr_imidazole>  (76) 
0

>  <fr_imide>  (76) 
0

>  <fr_isocyan>  (76) 
0

>  <fr_isothiocyan>  (76) 
0

>  <fr_ketone>  (76) 
0

>  <fr_ketone_Topliss>  (76) 
0

>  <fr_lactam>  (76) 
0

>  <fr_lactone>  (76) 
0

>  <fr_methoxy>  (76) 
1

>  <fr_morpholine>  (76) 
0

>  <fr_nitrile>  (76) 
0

>  <fr_nitro>  (76) 
0

>  <fr_nitro_arom>  (76) 
0

>  <fr_nitro_arom_nonortho>  (76) 
0

>  <fr_nitroso>  (76) 
0

>  <fr_oxazole>  (76) 
0

>  <fr_oxime>  (76) 
0

>  <fr_para_hydroxylation>  (76) 
0

>  <fr_phenol>  (76) 
0

>  <fr_phenol_noOrthoHbond>  (76) 
0

>  <fr_phos_acid>  (76) 
0

>  <fr_phos_ester>  (76) 
0

>  <fr_piperdine>  (76) 
0

>  <fr_piperzine>  (76) 
0

>  <fr_priamide>  (76) 
1

>  <fr_prisulfonamd>  (76) 
0

>  <fr_pyridine>  (76) 
1

>  <fr_quatN>  (76) 
0

>  <fr_sulfide>  (76) 
0

>  <fr_sulfonamd>  (76) 
0

>  <fr_sulfone>  (76) 
0

>  <fr_term_acetylene>  (76) 
0

>  <fr_tetrazole>  (76) 
0

>  <fr_thiazole>  (76) 
0

>  <fr_thiocyan>  (76) 
0

>  <fr_thiophene>  (76) 
0

>  <fr_unbrch_alkane>  (76) 
0

>  <fr_urea>  (76) 
1

>  <NP_Likeness>  (76) 
-1.351734

$$$$
nan
     RDKit          3D

  0  0  0  0  0  0  0  0  0  0999 V3000
M  V30 BEGIN CTAB
M  V30 COUNTS 51 54 0 0 0
M  V30 BEGIN ATOM
M  V30 1 O -0.051342 0.710428 1.098435 0
M  V30 2 C 0.262916 0.385240 -0.063276 0
M  V30 3 C 0.913056 0.762288 -1.302171 0
M  V30 4 C 0.888933 -0.167399 -2.308661 0
M  V30 5 C 1.511906 0.224968 -3.469183 0
M  V30 6 C 2.110759 1.457348 -3.602153 0
M  V30 7 F 2.694558 1.736150 -4.792067 0
M  V30 8 C 2.089375 2.332232 -2.541352 0
M  V30 9 F 2.702389 3.511003 -2.794408 0
M  V30 10 C 1.479711 2.010935 -1.332469 0
M  V30 11 N 1.494098 2.965059 -0.286544 0
M  V30 12 C 2.280316 3.253867 0.859866 0
M  V30 13 C 1.671239 3.265248 2.114937 0
M  V30 14 C 2.346729 3.524463 3.283121 0
M  V30 15 C 3.684801 3.784071 3.204086 0
M  V30 16 I 4.779770 4.190250 4.968288 0
M  V30 17 C 4.341679 3.789252 2.012529 0
M  V30 18 C 3.625980 3.525973 0.883187 0
M  V30 19 F 4.288657 3.532993 -0.283471 0
M  V30 20 N -0.417306 -0.771328 0.388278 0
M  V30 21 C -1.009270 -0.948927 1.697706 0
M  V30 22 C -0.752708 -2.431072 1.530355 0
M  V30 23 O 0.541970 -2.744488 1.900091 0
M  V30 24 C -1.828942 -3.319409 2.116220 0 CFG=2
M  V30 25 C -1.555221 -4.763684 1.929925 0
M  V30 26 C -2.254141 -5.420975 0.783504 0
M  V30 27 C -3.605334 -4.878325 0.478781 0
M  V30 28 C -4.042118 -4.049456 1.683393 0
M  V30 29 N -3.134190 -2.893293 1.657656 0
M  V30 30 C -0.878636 -2.109394 0.078274 0
M  V30 31 H 0.437002 -1.128662 -2.246894 0
M  V30 32 H 1.525784 -0.473865 -4.307856 0
M  V30 33 H 0.695583 3.615535 -0.431442 0
M  V30 34 H 0.602966 3.073578 2.278803 0
M  V30 35 H 1.884175 3.534972 4.255344 0
M  V30 36 H 5.409564 3.998877 1.971239 0
M  V30 37 H -0.502843 -0.486842 2.554402 0
M  V30 38 H -2.100478 -0.733695 1.639163 0
M  V30 39 H 0.681131 -2.609432 2.873674 0
M  V30 40 H -1.812828 -3.100980 3.207054 0
M  V30 41 H -1.740444 -5.355850 2.865210 0
M  V30 42 H -0.453141 -4.878235 1.747050 0
M  V30 43 H -1.641414 -5.399299 -0.162429 0
M  V30 44 H -2.371685 -6.511682 1.008078 0
M  V30 45 H -4.370376 -5.655410 0.270613 0
M  V30 46 H -3.521753 -4.172928 -0.374401 0
M  V30 47 H -5.100860 -3.751882 1.636814 0
M  V30 48 H -3.769960 -4.605342 2.597808 0
M  V30 49 H -3.587601 -2.205774 2.330458 0
M  V30 50 H -0.266502 -2.707290 -0.608289 0
M  V30 51 H -1.928254 -2.036519 -0.272618 0
M  V30 END ATOM
M  V30 BEGIN BOND
M  V30 1 2 1 2
M  V30 2 1 2 3
M  V30 3 2 3 4
M  V30 4 1 4 5
M  V30 5 2 5 6
M  V30 6 1 6 7
M  V30 7 1 6 8
M  V30 8 1 8 9
M  V30 9 2 8 10
M  V30 10 1 10 11
M  V30 11 1 11 12
M  V30 12 2 12 13
M  V30 13 1 13 14
M  V30 14 2 14 15
M  V30 15 1 15 16
M  V30 16 1 15 17
M  V30 17 2 17 18
M  V30 18 1 18 19
M  V30 19 1 2 20
M  V30 20 1 20 21
M  V30 21 1 21 22
M  V30 22 1 22 23
M  V30 23 1 22 24
M  V30 24 1 24 25
M  V30 25 1 25 26
M  V30 26 1 26 27
M  V30 27 1 27 28
M  V30 28 1 28 29
M  V30 29 1 22 30
M  V30 30 1 10 3
M  V30 31 1 18 12
M  V30 32 1 30 20
M  V30 33 1 29 24
M  V30 34 1 4 31
M  V30 35 1 5 32
M  V30 36 1 11 33
M  V30 37 1 13 34
M  V30 38 1 14 35
M  V30 39 1 17 36
M  V30 40 1 21 37
M  V30 41 1 21 38
M  V30 42 1 23 39
M  V30 43 1 24 40 CFG=1
M  V30 44 1 25 41
M  V30 45 1 25 42
M  V30 46 1 26 43
M  V30 47 1 26 44
M  V30 48 1 27 45
M  V30 49 1 27 46
M  V30 50 1 28 47
M  V30 51 1 28 48
M  V30 52 1 29 49
M  V30 53 1 30 50
M  V30 54 1 30 51
M  V30 END BOND
M  V30 END CTAB
M  END
>  <Dataset>  (77) 
PKIs

>  <Ligand_Instance>  (77) 
nan

>  <PDB_ID>  (77) 
nan

>  <Standardized_SMILES>  (77) 
O=C(c1ccc(F)c(F)c1Nc1ccc(I)cc1F)N1CC(O)([C@@H]2CCCCN2)C1

>  <Name>  (77) 
Cobimetinib

>  <Pocket>  (77) 
nan

>  <ATP_Site>  (77) 
nan

>  <Peripheral>  (77) 
nan

>  <Num_H_Atoms_ProtBoundConf>  (77) 
nan

>  <Num_Resolved_Atoms>  (77) 
nan

>  <Num_Not_Resolved_Atoms>  (77) 
nan

>  <2D_Mol_H>  (77) 
<rdkit.Chem.rdchem.Mol object at 0x72a239141770>

>  <MW>  (77) 
531.316

>  <HBA>  (77) 
4

>  <HBD>  (77) 
3

>  <LogP>  (77) 
3.7811

>  <NRB>  (77) 
5

>  <TPSA>  (77) 
64.6

>  <Num_Heavy_Atoms>  (77) 
30

>  <Ro5>  (77) 
[False, True, True, True, True, True]

>  <Ro5_Fulfilled>  (77) 
True

>  <Ro3>  (77) 
[False, False, True, False]

>  <Ro3_Fulfilled>  (77) 
False

>  <Fsp3>  (77) 
0.380952

>  <Fsp3_0.42>  (77) 
False

>  <Fsp3_0.45>  (77) 
False

>  <Stereogenic_Carbons>  (77) 
1

>  <C_Atoms>  (77) 
21

>  <FCStereo>  (77) 
0.047619

>  <SPS>  (77) 
617

>  <nSPS>  (77) 
20.566667

>  <PBF>  (77) 
0.881178

>  <PBF_0.6>  (77) 
True

>  <nPBF>  (77) 
0.029373

>  <nPBF_0.016>  (77) 
True

>  <PMI1>  (77) 
3837.447957

>  <PMI2>  (77) 
9533.445093

>  <PMI3>  (77) 
12774.591575

>  <NPR1>  (77) 
0.300397

>  <NPR2>  (77) 
0.746282

>  <Sum_NPR>  (77) 
1.046679

>  <Sum_NPR_1.07>  (77) 
False

>  <Sum_NPR_1.2>  (77) 
False

>  <MaxAbsEStateIndex>  (77) 
14.555824

>  <MaxEStateIndex>  (77) 
14.555824

>  <MinAbsEStateIndex>  (77) 
0.068994

>  <MinEStateIndex>  (77) 
-1.260618

>  <qed>  (77) 
0.526223

>  <MolWt>  (77) 
531.316

>  <HeavyAtomMolWt>  (77) 
510.148

>  <ExactMolWt>  (77) 
531.06306

>  <NumValenceElectrons>  (77) 
160

>  <NumRadicalElectrons>  (77) 
0

>  <MaxPartialCharge>  (77) 
0.255783

>  <MinPartialCharge>  (77) 
-0.384536

>  <MaxAbsPartialCharge>  (77) 
0.384536

>  <MinAbsPartialCharge>  (77) 
0.255783

>  <FpDensityMorgan1>  (77) 
1.166667

>  <FpDensityMorgan2>  (77) 
1.933333

>  <FpDensityMorgan3>  (77) 
2.6

>  <BCUT2D_MWHI>  (77) 
126.912704

>  <BCUT2D_MWLOW>  (77) 
9.810567

>  <BCUT2D_CHGHI>  (77) 
2.493684

>  <BCUT2D_CHGLO>  (77) 
-2.513632

>  <BCUT2D_LOGPHI>  (77) 
2.336302

>  <BCUT2D_LOGPLOW>  (77) 
-2.715868

>  <BCUT2D_MRHI>  (77) 
14.111918

>  <BCUT2D_MRLOW>  (77) 
-0.108328

>  <AvgIpc>  (77) 
2.708325

>  <BalabanJ>  (77) 
1.567788

>  <BertzCT>  (77) 
976.209216

>  <Chi0>  (77) 
21.465891

>  <Chi0n>  (77) 
16.021276

>  <Chi0v>  (77) 
18.178774

>  <Chi1>  (77) 
14.281513

>  <Chi1n>  (77) 
9.734698

>  <Chi1v>  (77) 
10.813448

>  <Chi2n>  (77) 
7.800379

>  <Chi2v>  (77) 
9.046011

>  <Chi3n>  (77) 
5.691534

>  <Chi3v>  (77) 
6.362525

>  <Chi4n>  (77) 
4.036103

>  <Chi4v>  (77) 
4.4893

>  <HallKierAlpha>  (77) 
-1.85

>  <Ipc>  (77) 
4576527.654946

>  <Kappa1>  (77) 
21.384641

>  <Kappa2>  (77) 
8.351218

>  <Kappa3>  (77) 
4.019336

>  <LabuteASA>  (77) 
185.335072

>  <PEOE_VSA1>  (77) 
20.640014

>  <PEOE_VSA10>  (77) 
11.418272

>  <PEOE_VSA11>  (77) 
11.634442

>  <PEOE_VSA12>  (77) 
0.0

>  <PEOE_VSA13>  (77) 
5.90718

>  <PEOE_VSA14>  (77) 
0.0

>  <PEOE_VSA2>  (77) 
4.794537

>  <PEOE_VSA3>  (77) 
13.171245

>  <PEOE_VSA4>  (77) 
0.0

>  <PEOE_VSA5>  (77) 
0.0

>  <PEOE_VSA6>  (77) 
6.420822

>  <PEOE_VSA7>  (77) 
72.309106

>  <PEOE_VSA8>  (77) 
9.612023

>  <PEOE_VSA9>  (77) 
30.027737

>  <SMR_VSA1>  (77) 
23.07231

>  <SMR_VSA10>  (77) 
39.872823

>  <SMR_VSA2>  (77) 
0.0

>  <SMR_VSA3>  (77) 
10.216698

>  <SMR_VSA4>  (77) 
0.0

>  <SMR_VSA5>  (77) 
30.905357

>  <SMR_VSA6>  (77) 
24.951058

>  <SMR_VSA7>  (77) 
56.917132

>  <SMR_VSA8>  (77) 
0.0

>  <SMR_VSA9>  (77) 
0.0

>  <SlogP_VSA1>  (77) 
10.633577

>  <SlogP_VSA10>  (77) 
24.546018

>  <SlogP_VSA11>  (77) 
0.0

>  <SlogP_VSA12>  (77) 
22.590871

>  <SlogP_VSA2>  (77) 
47.190778

>  <SlogP_VSA3>  (77) 
0.0

>  <SlogP_VSA4>  (77) 
21.021845

>  <SlogP_VSA5>  (77) 
29.620454

>  <SlogP_VSA6>  (77) 
30.331835

>  <SlogP_VSA7>  (77) 
0.0

>  <SlogP_VSA8>  (77) 
0.0

>  <SlogP_VSA9>  (77) 
0.0

>  <EState_VSA1>  (77) 
34.647279

>  <EState_VSA10>  (77) 
23.07231

>  <EState_VSA11>  (77) 
0.0

>  <EState_VSA2>  (77) 
30.382191

>  <EState_VSA3>  (77) 
3.570182

>  <EState_VSA4>  (77) 
31.873588

>  <EState_VSA5>  (77) 
23.099011

>  <EState_VSA6>  (77) 
6.066367

>  <EState_VSA7>  (77) 
22.590871

>  <EState_VSA8>  (77) 
10.633577

>  <EState_VSA9>  (77) 
0.0

>  <VSA_EState1>  (77) 
43.292949

>  <VSA_EState10>  (77) 
1.933655

>  <VSA_EState2>  (77) 
14.368789

>  <VSA_EState3>  (77) 
16.619699

>  <VSA_EState4>  (77) 
-1.650815

>  <VSA_EState5>  (77) 
-3.607884

>  <VSA_EState6>  (77) 
6.188465

>  <VSA_EState7>  (77) 
2.878517

>  <VSA_EState8>  (77) 
1.013292

>  <VSA_EState9>  (77) 
0.0

>  <FractionCSP3>  (77) 
0.380952

>  <HeavyAtomCount>  (77) 
30

>  <NHOHCount>  (77) 
3

>  <NOCount>  (77) 
5

>  <NumAliphaticCarbocycles>  (77) 
0

>  <NumAliphaticHeterocycles>  (77) 
2

>  <NumAliphaticRings>  (77) 
2

>  <NumAromaticCarbocycles>  (77) 
2

>  <NumAromaticHeterocycles>  (77) 
0

>  <NumAromaticRings>  (77) 
2

>  <NumHAcceptors>  (77) 
4

>  <NumHDonors>  (77) 
3

>  <NumHeteroatoms>  (77) 
9

>  <NumRotatableBonds>  (77) 
4

>  <NumSaturatedCarbocycles>  (77) 
0

>  <NumSaturatedHeterocycles>  (77) 
2

>  <NumSaturatedRings>  (77) 
2

>  <RingCount>  (77) 
4

>  <MolLogP>  (77) 
3.7811

>  <MolMR>  (77) 
115.2527

>  <fr_Al_COO>  (77) 
0

>  <fr_Al_OH>  (77) 
1

>  <fr_Al_OH_noTert>  (77) 
0

>  <fr_ArN>  (77) 
0

>  <fr_Ar_COO>  (77) 
0

>  <fr_Ar_N>  (77) 
0

>  <fr_Ar_NH>  (77) 
0

>  <fr_Ar_OH>  (77) 
0

>  <fr_COO>  (77) 
0

>  <fr_COO2>  (77) 
0

>  <fr_C_O>  (77) 
1

>  <fr_C_O_noCOO>  (77) 
1

>  <fr_C_S>  (77) 
0

>  <fr_HOCCN>  (77) 
1

>  <fr_Imine>  (77) 
0

>  <fr_NH0>  (77) 
1

>  <fr_NH1>  (77) 
2

>  <fr_NH2>  (77) 
0

>  <fr_N_O>  (77) 
0

>  <fr_Ndealkylation1>  (77) 
0

>  <fr_Ndealkylation2>  (77) 
1

>  <fr_Nhpyrrole>  (77) 
0

>  <fr_SH>  (77) 
0

>  <fr_aldehyde>  (77) 
0

>  <fr_alkyl_carbamate>  (77) 
0

>  <fr_alkyl_halide>  (77) 
0

>  <fr_allylic_oxid>  (77) 
0

>  <fr_amide>  (77) 
1

>  <fr_amidine>  (77) 
0

>  <fr_aniline>  (77) 
2

>  <fr_aryl_methyl>  (77) 
0

>  <fr_azide>  (77) 
0

>  <fr_azo>  (77) 
0

>  <fr_barbitur>  (77) 
0

>  <fr_benzene>  (77) 
2

>  <fr_benzodiazepine>  (77) 
0

>  <fr_bicyclic>  (77) 
0

>  <fr_diazo>  (77) 
0

>  <fr_dihydropyridine>  (77) 
0

>  <fr_epoxide>  (77) 
0

>  <fr_ester>  (77) 
0

>  <fr_ether>  (77) 
0

>  <fr_furan>  (77) 
0

>  <fr_guanido>  (77) 
0

>  <fr_halogen>  (77) 
4

>  <fr_hdrzine>  (77) 
0

>  <fr_hdrzone>  (77) 
0

>  <fr_imidazole>  (77) 
0

>  <fr_imide>  (77) 
0

>  <fr_isocyan>  (77) 
0

>  <fr_isothiocyan>  (77) 
0

>  <fr_ketone>  (77) 
0

>  <fr_ketone_Topliss>  (77) 
0

>  <fr_lactam>  (77) 
0

>  <fr_lactone>  (77) 
0

>  <fr_methoxy>  (77) 
0

>  <fr_morpholine>  (77) 
0

>  <fr_nitrile>  (77) 
0

>  <fr_nitro>  (77) 
0

>  <fr_nitro_arom>  (77) 
0

>  <fr_nitro_arom_nonortho>  (77) 
0

>  <fr_nitroso>  (77) 
0

>  <fr_oxazole>  (77) 
0

>  <fr_oxime>  (77) 
0

>  <fr_para_hydroxylation>  (77) 
0

>  <fr_phenol>  (77) 
0

>  <fr_phenol_noOrthoHbond>  (77) 
0

>  <fr_phos_acid>  (77) 
0

>  <fr_phos_ester>  (77) 
0

>  <fr_piperdine>  (77) 
1

>  <fr_piperzine>  (77) 
0

>  <fr_priamide>  (77) 
0

>  <fr_prisulfonamd>  (77) 
0

>  <fr_pyridine>  (77) 
0

>  <fr_quatN>  (77) 
0

>  <fr_sulfide>  (77) 
0

>  <fr_sulfonamd>  (77) 
0

>  <fr_sulfone>  (77) 
0

>  <fr_term_acetylene>  (77) 
0

>  <fr_tetrazole>  (77) 
0

>  <fr_thiazole>  (77) 
0

>  <fr_thiocyan>  (77) 
0

>  <fr_thiophene>  (77) 
0

>  <fr_unbrch_alkane>  (77) 
0

>  <fr_urea>  (77) 
0

>  <NP_Likeness>  (77) 
-0.859194

$$$$
nan
     RDKit          3D

  0  0  0  0  0  0  0  0  0  0999 V3000
M  V30 BEGIN CTAB
M  V30 COUNTS 49 53 0 0 0
M  V30 BEGIN ATOM
M  V30 1 C 1.837555 -2.931005 2.934379 0
M  V30 2 C 0.646620 -2.016951 2.831391 0
M  V30 3 C 0.639226 -1.358498 1.493656 0 CFG=2
M  V30 4 N 1.784677 -0.606277 1.197711 0
M  V30 5 C 2.945530 0.155775 0.899775 0
M  V30 6 N 3.983039 0.631375 1.607161 0
M  V30 7 C 4.973639 1.310766 1.071984 0
M  V30 8 N 4.926730 1.529846 -0.232439 0
M  V30 9 C 3.974806 1.129261 -1.060405 0
M  V30 10 N 3.858926 1.315402 -2.369227 0
M  V30 11 C 2.680786 0.690760 -2.662624 0
M  V30 12 N 2.143093 0.162782 -1.562438 0
M  V30 13 C 2.927845 0.406790 -0.491344 0
M  V30 14 C -0.595623 -0.493204 1.316422 0
M  V30 15 N -0.607198 0.794090 1.771978 0
M  V30 16 C -1.705660 1.578124 1.622815 0
M  V30 17 C -1.671782 2.869504 2.099504 0
M  V30 18 C -2.814345 3.620113 1.922022 0
M  V30 19 C -3.908632 3.064248 1.296940 0
M  V30 20 C -3.903493 1.768182 0.835303 0
M  V30 21 F -4.987824 1.232397 0.217638 0
M  V30 22 C -2.765823 0.974833 0.993852 0
M  V30 23 C -2.796313 -0.309846 0.524215 0
M  V30 24 O -3.814493 -0.790972 -0.043000 0
M  V30 25 N -1.676345 -1.050984 0.696078 0
M  V30 26 C -1.696028 -2.394945 0.211051 0
M  V30 27 C -2.148950 -3.437525 1.006449 0
M  V30 28 C -2.191723 -4.752067 0.610059 0
M  V30 29 C -1.753112 -5.086071 -0.680063 0
M  V30 30 C -1.305543 -4.051786 -1.464565 0
M  V30 31 C -1.265246 -2.739410 -1.061822 0
M  V30 32 H 1.675542 -3.770975 3.630638 0
M  V30 33 H 2.206658 -3.211151 1.939386 0
M  V30 34 H 2.660594 -2.293663 3.397617 0
M  V30 35 H 0.696564 -1.259287 3.641018 0
M  V30 36 H -0.307494 -2.568390 3.040543 0
M  V30 37 H 0.576621 -2.170547 0.670608 0
M  V30 38 H 2.009340 -0.568773 2.220120 0
M  V30 39 H 5.701664 1.600788 1.795963 0
M  V30 40 H 4.511569 1.822919 -3.001036 0
M  V30 41 H 2.240019 0.634152 -3.651420 0
M  V30 42 H -0.793344 3.291128 2.595099 0
M  V30 43 H -2.841732 4.625249 2.266295 0
M  V30 44 H -4.799090 3.661788 1.171765 0
M  V30 45 H -2.498157 -3.198481 2.022862 0
M  V30 46 H -2.538812 -5.565607 1.218400 0
M  V30 47 H -1.756805 -6.110009 -1.059048 0
M  V30 48 H -0.962172 -4.260576 -2.460006 0
M  V30 49 H -0.902405 -1.980721 -1.725660 0
M  V30 END ATOM
M  V30 BEGIN BOND
M  V30 1 1 1 2
M  V30 2 1 2 3
M  V30 3 1 3 4
M  V30 4 1 4 5
M  V30 5 2 5 6
M  V30 6 1 6 7
M  V30 7 2 7 8
M  V30 8 1 8 9
M  V30 9 1 9 10
M  V30 10 1 10 11
M  V30 11 2 11 12
M  V30 12 1 12 13
M  V30 13 1 3 14
M  V30 14 2 14 15
M  V30 15 1 15 16
M  V30 16 2 16 17
M  V30 17 1 17 18
M  V30 18 2 18 19
M  V30 19 1 19 20
M  V30 20 1 20 21
M  V30 21 2 20 22
M  V30 22 1 22 23
M  V30 23 2 23 24
M  V30 24 1 23 25
M  V30 25 1 25 26
M  V30 26 2 26 27
M  V30 27 1 27 28
M  V30 28 2 28 29
M  V30 29 1 29 30
M  V30 30 2 30 31
M  V30 31 1 13 5
M  V30 32 1 25 14
M  V30 33 1 31 26
M  V30 34 2 13 9
M  V30 35 1 22 16
M  V30 36 1 1 32
M  V30 37 1 1 33
M  V30 38 1 1 34
M  V30 39 1 2 35
M  V30 40 1 2 36
M  V30 41 1 3 37 CFG=3
M  V30 42 1 4 38
M  V30 43 1 7 39
M  V30 44 1 10 40
M  V30 45 1 11 41
M  V30 46 1 17 42
M  V30 47 1 18 43
M  V30 48 1 19 44
M  V30 49 1 27 45
M  V30 50 1 28 46
M  V30 51 1 29 47
M  V30 52 1 30 48
M  V30 53 1 31 49
M  V30 END BOND
M  V30 END CTAB
M  END
>  <Dataset>  (78) 
PKIs

>  <Ligand_Instance>  (78) 
nan

>  <PDB_ID>  (78) 
nan

>  <Standardized_SMILES>  (78) 
CC[C@H](Nc1ncnc2[nH]cnc12)c1nc2cccc(F)c2c(=O)n1-c1ccccc1

>  <Name>  (78) 
Idelalisib

>  <Pocket>  (78) 
nan

>  <ATP_Site>  (78) 
nan

>  <Peripheral>  (78) 
nan

>  <Num_H_Atoms_ProtBoundConf>  (78) 
nan

>  <Num_Resolved_Atoms>  (78) 
nan

>  <Num_Not_Resolved_Atoms>  (78) 
nan

>  <2D_Mol_H>  (78) 
<rdkit.Chem.rdchem.Mol object at 0x72a239141850>

>  <MW>  (78) 
415.432

>  <HBA>  (78) 
7

>  <HBD>  (78) 
2

>  <LogP>  (78) 
3.7543

>  <NRB>  (78) 
6

>  <TPSA>  (78) 
101.38

>  <Num_Heavy_Atoms>  (78) 
31

>  <Ro5>  (78) 
[True, True, True, True, True, True]

>  <Ro5_Fulfilled>  (78) 
True

>  <Ro3>  (78) 
[False, False, True, False]

>  <Ro3_Fulfilled>  (78) 
False

>  <Fsp3>  (78) 
0.136364

>  <Fsp3_0.42>  (78) 
False

>  <Fsp3_0.45>  (78) 
False

>  <Stereogenic_Carbons>  (78) 
1

>  <C_Atoms>  (78) 
22

>  <FCStereo>  (78) 
0.045455

>  <SPS>  (78) 
382

>  <nSPS>  (78) 
12.322581

>  <PBF>  (78) 
1.417919

>  <PBF_0.6>  (78) 
True

>  <nPBF>  (78) 
0.045739

>  <nPBF_0.016>  (78) 
True

>  <PMI1>  (78) 
2808.53849

>  <PMI2>  (78) 
4374.069628

>  <PMI3>  (78) 
5626.381287

>  <NPR1>  (78) 
0.499173

>  <NPR2>  (78) 
0.777421

>  <Sum_NPR>  (78) 
1.276595

>  <Sum_NPR_1.07>  (78) 
True

>  <Sum_NPR_1.2>  (78) 
True

>  <MaxAbsEStateIndex>  (78) 
14.545679

>  <MaxEStateIndex>  (78) 
14.545679

>  <MinAbsEStateIndex>  (78) 
0.040107

>  <MinEStateIndex>  (78) 
-0.596046

>  <qed>  (78) 
0.453318

>  <MolWt>  (78) 
415.432

>  <HeavyAtomMolWt>  (78) 
397.288

>  <ExactMolWt>  (78) 
415.155686

>  <NumValenceElectrons>  (78) 
154

>  <NumRadicalElectrons>  (78) 
0

>  <MaxPartialCharge>  (78) 
0.268521

>  <MinPartialCharge>  (78) 
-0.358144

>  <MaxAbsPartialCharge>  (78) 
0.358144

>  <MinAbsPartialCharge>  (78) 
0.268521

>  <FpDensityMorgan1>  (78) 
1.096774

>  <FpDensityMorgan2>  (78) 
1.935484

>  <FpDensityMorgan3>  (78) 
2.741935

>  <BCUT2D_MWHI>  (78) 
19.142181

>  <BCUT2D_MWLOW>  (78) 
10.125575

>  <BCUT2D_CHGHI>  (78) 
2.224566

>  <BCUT2D_CHGLO>  (78) 
-2.218595

>  <BCUT2D_LOGPHI>  (78) 
2.259375

>  <BCUT2D_LOGPLOW>  (78) 
-2.284331

>  <BCUT2D_MRHI>  (78) 
5.821514

>  <BCUT2D_MRLOW>  (78) 
0.629835

>  <AvgIpc>  (78) 
3.274248

>  <BalabanJ>  (78) 
1.737844

>  <BertzCT>  (78) 
1445.287198

>  <Chi0>  (78) 
21.371668

>  <Chi0n>  (78) 
16.58024

>  <Chi0v>  (78) 
16.58024

>  <Chi1>  (78) 
15.169035

>  <Chi1n>  (78) 
9.842638

>  <Chi1v>  (78) 
9.842638

>  <Chi2n>  (78) 
7.007273

>  <Chi2v>  (78) 
7.007273

>  <Chi3n>  (78) 
5.13513

>  <Chi3v>  (78) 
5.13513

>  <Chi4n>  (78) 
3.651736

>  <Chi4v>  (78) 
3.651736

>  <HallKierAlpha>  (78) 
-4.14

>  <Ipc>  (78) 
22671413.590706

>  <Kappa1>  (78) 
18.861282

>  <Kappa2>  (78) 
7.599109

>  <Kappa3>  (78) 
3.196993

>  <LabuteASA>  (78) 
175.398038

>  <PEOE_VSA1>  (78) 
10.300767

>  <PEOE_VSA10>  (78) 
28.87187

>  <PEOE_VSA11>  (78) 
11.46504

>  <PEOE_VSA12>  (78) 
0.0

>  <PEOE_VSA13>  (78) 
5.559267

>  <PEOE_VSA14>  (78) 
0.0

>  <PEOE_VSA2>  (78) 
9.361637

>  <PEOE_VSA3>  (78) 
24.326329

>  <PEOE_VSA4>  (78) 
0.0

>  <PEOE_VSA5>  (78) 
0.0

>  <PEOE_VSA6>  (78) 
31.189205

>  <PEOE_VSA7>  (78) 
30.68629

>  <PEOE_VSA8>  (78) 
0.0

>  <PEOE_VSA9>  (78) 
23.573248

>  <SMR_VSA1>  (78) 
4.390415

>  <SMR_VSA10>  (78) 
27.884666

>  <SMR_VSA2>  (78) 
0.0

>  <SMR_VSA3>  (78) 
29.486992

>  <SMR_VSA4>  (78) 
0.0

>  <SMR_VSA5>  (78) 
19.3864

>  <SMR_VSA6>  (78) 
5.316789

>  <SMR_VSA7>  (78) 
83.181006

>  <SMR_VSA8>  (78) 
0.0

>  <SMR_VSA9>  (78) 
5.687386

>  <SlogP_VSA1>  (78) 
10.876055

>  <SlogP_VSA10>  (78) 
10.208278

>  <SlogP_VSA11>  (78) 
0.0

>  <SlogP_VSA12>  (78) 
0.0

>  <SlogP_VSA2>  (78) 
29.486992

>  <SlogP_VSA3>  (78) 
0.0

>  <SlogP_VSA4>  (78) 
5.817221

>  <SlogP_VSA5>  (78) 
25.210804

>  <SlogP_VSA6>  (78) 
65.980114

>  <SlogP_VSA7>  (78) 
0.0

>  <SlogP_VSA8>  (78) 
27.754189

>  <SlogP_VSA9>  (78) 
0.0

>  <EState_VSA1>  (78) 
17.418329

>  <EState_VSA10>  (78) 
9.184952

>  <EState_VSA11>  (78) 
0.0

>  <EState_VSA2>  (78) 
5.386224

>  <EState_VSA3>  (78) 
40.431054

>  <EState_VSA4>  (78) 
0.0

>  <EState_VSA5>  (78) 
16.960787

>  <EState_VSA6>  (78) 
30.592788

>  <EState_VSA7>  (78) 
25.122838

>  <EState_VSA8>  (78) 
25.252703

>  <EState_VSA9>  (78) 
4.983979

>  <VSA_EState1>  (78) 
15.999562

>  <VSA_EState10>  (78) 
0.0

>  <VSA_EState2>  (78) 
33.824243

>  <VSA_EState3>  (78) 
3.301088

>  <VSA_EState4>  (78) 
1.632345

>  <VSA_EState5>  (78) 
0.381174

>  <VSA_EState6>  (78) 
13.153901

>  <VSA_EState7>  (78) 
3.570916

>  <VSA_EState8>  (78) 
1.970103

>  <VSA_EState9>  (78) 
0.0

>  <FractionCSP3>  (78) 
0.136364

>  <HeavyAtomCount>  (78) 
31

>  <NHOHCount>  (78) 
2

>  <NOCount>  (78) 
8

>  <NumAliphaticCarbocycles>  (78) 
0

>  <NumAliphaticHeterocycles>  (78) 
0

>  <NumAliphaticRings>  (78) 
0

>  <NumAromaticCarbocycles>  (78) 
2

>  <NumAromaticHeterocycles>  (78) 
3

>  <NumAromaticRings>  (78) 
5

>  <NumHAcceptors>  (78) 
7

>  <NumHDonors>  (78) 
2

>  <NumHeteroatoms>  (78) 
9

>  <NumRotatableBonds>  (78) 
5

>  <NumSaturatedCarbocycles>  (78) 
0

>  <NumSaturatedHeterocycles>  (78) 
0

>  <NumSaturatedRings>  (78) 
0

>  <RingCount>  (78) 
5

>  <MolLogP>  (78) 
3.7543

>  <MolMR>  (78) 
115.6364

>  <fr_Al_COO>  (78) 
0

>  <fr_Al_OH>  (78) 
0

>  <fr_Al_OH_noTert>  (78) 
0

>  <fr_ArN>  (78) 
0

>  <fr_Ar_COO>  (78) 
0

>  <fr_Ar_N>  (78) 
6

>  <fr_Ar_NH>  (78) 
1

>  <fr_Ar_OH>  (78) 
0

>  <fr_COO>  (78) 
0

>  <fr_COO2>  (78) 
0

>  <fr_C_O>  (78) 
0

>  <fr_C_O_noCOO>  (78) 
0

>  <fr_C_S>  (78) 
0

>  <fr_HOCCN>  (78) 
0

>  <fr_Imine>  (78) 
0

>  <fr_NH0>  (78) 
5

>  <fr_NH1>  (78) 
2

>  <fr_NH2>  (78) 
0

>  <fr_N_O>  (78) 
0

>  <fr_Ndealkylation1>  (78) 
0

>  <fr_Ndealkylation2>  (78) 
0

>  <fr_Nhpyrrole>  (78) 
1

>  <fr_SH>  (78) 
0

>  <fr_aldehyde>  (78) 
0

>  <fr_alkyl_carbamate>  (78) 
0

>  <fr_alkyl_halide>  (78) 
0

>  <fr_allylic_oxid>  (78) 
0

>  <fr_amide>  (78) 
0

>  <fr_amidine>  (78) 
0

>  <fr_aniline>  (78) 
1

>  <fr_aryl_methyl>  (78) 
0

>  <fr_azide>  (78) 
0

>  <fr_azo>  (78) 
0

>  <fr_barbitur>  (78) 
0

>  <fr_benzene>  (78) 
2

>  <fr_benzodiazepine>  (78) 
0

>  <fr_bicyclic>  (78) 
2

>  <fr_diazo>  (78) 
0

>  <fr_dihydropyridine>  (78) 
0

>  <fr_epoxide>  (78) 
0

>  <fr_ester>  (78) 
0

>  <fr_ether>  (78) 
0

>  <fr_furan>  (78) 
0

>  <fr_guanido>  (78) 
0

>  <fr_halogen>  (78) 
1

>  <fr_hdrzine>  (78) 
0

>  <fr_hdrzone>  (78) 
0

>  <fr_imidazole>  (78) 
1

>  <fr_imide>  (78) 
0

>  <fr_isocyan>  (78) 
0

>  <fr_isothiocyan>  (78) 
0

>  <fr_ketone>  (78) 
0

>  <fr_ketone_Topliss>  (78) 
0

>  <fr_lactam>  (78) 
0

>  <fr_lactone>  (78) 
0

>  <fr_methoxy>  (78) 
0

>  <fr_morpholine>  (78) 
0

>  <fr_nitrile>  (78) 
0

>  <fr_nitro>  (78) 
0

>  <fr_nitro_arom>  (78) 
0

>  <fr_nitro_arom_nonortho>  (78) 
0

>  <fr_nitroso>  (78) 
0

>  <fr_oxazole>  (78) 
0

>  <fr_oxime>  (78) 
0

>  <fr_para_hydroxylation>  (78) 
1

>  <fr_phenol>  (78) 
0

>  <fr_phenol_noOrthoHbond>  (78) 
0

>  <fr_phos_acid>  (78) 
0

>  <fr_phos_ester>  (78) 
0

>  <fr_piperdine>  (78) 
0

>  <fr_piperzine>  (78) 
0

>  <fr_priamide>  (78) 
0

>  <fr_prisulfonamd>  (78) 
0

>  <fr_pyridine>  (78) 
0

>  <fr_quatN>  (78) 
0

>  <fr_sulfide>  (78) 
0

>  <fr_sulfonamd>  (78) 
0

>  <fr_sulfone>  (78) 
0

>  <fr_term_acetylene>  (78) 
0

>  <fr_tetrazole>  (78) 
0

>  <fr_thiazole>  (78) 
0

>  <fr_thiocyan>  (78) 
0

>  <fr_thiophene>  (78) 
0

>  <fr_unbrch_alkane>  (78) 
0

>  <fr_urea>  (78) 
0

>  <NP_Likeness>  (78) 
-1.228418

$$$$
nan
     RDKit          3D

  0  0  0  0  0  0  0  0  0  0999 V3000
M  V30 BEGIN CTAB
M  V30 COUNTS 53 56 0 0 0
M  V30 BEGIN ATOM
M  V30 1 N -0.511688 -5.673936 -1.553780 0
M  V30 2 C -1.442566 -5.017967 -1.340055 0
M  V30 3 C -2.630430 -4.186428 -1.067263 0
M  V30 4 C -2.275792 -2.760871 -0.953102 0
M  V30 5 C -1.212712 -2.396415 -1.788208 0
M  V30 6 C -0.708115 -1.110705 -1.848735 0
M  V30 7 C -1.298139 -0.154293 -1.035501 0
M  V30 8 N -0.871270 1.225350 -0.998517 0
M  V30 9 C 0.139532 1.469020 -0.032585 0
M  V30 10 O 0.344911 0.359849 0.500288 0
M  V30 11 C 0.685658 2.782891 0.145838 0
M  V30 12 C 0.230343 3.816833 -0.621144 0
M  V30 13 C 0.747694 5.080282 -0.457556 0
M  V30 14 C 1.733253 5.338441 0.477902 0
M  V30 15 N 2.140680 4.295117 1.198510 0
M  V30 16 C 1.666087 3.037640 1.077028 0
M  V30 17 N 2.215967 2.049003 1.927802 0
M  V30 18 C 3.235395 2.362870 2.881774 0
M  V30 19 C 3.717489 1.251042 3.698929 0
M  V30 20 C 4.786642 0.446115 3.318601 0
M  V30 21 C 5.149069 -0.582810 4.187929 0
M  V30 22 N 4.504377 -0.805842 5.352584 0
M  V30 23 C 3.467900 -0.015007 5.707410 0
M  V30 24 C 3.038002 1.035627 4.900483 0
M  V30 25 C -2.348193 -0.486341 -0.202198 0
M  V30 26 C -2.831960 -1.778530 -0.162156 0
M  V30 27 C -3.659766 -4.495232 -2.108212 0
M  V30 28 C -4.017608 -5.933512 -1.754676 0
M  V30 29 C -3.844733 -6.081739 -0.269177 0
M  V30 30 C -3.259689 -4.760009 0.183659 0
M  V30 31 H -0.692592 -3.091303 -2.460367 0
M  V30 32 H 0.100007 -0.814948 -2.477902 0
M  V30 33 H -1.293945 1.951641 -1.643080 0
M  V30 34 H -0.516813 3.777324 -1.375665 0
M  V30 35 H 0.426497 5.941195 -1.036817 0
M  V30 36 H 2.196530 6.311945 0.670213 0
M  V30 37 H 1.964828 1.039995 1.963284 0
M  V30 38 H 2.940870 3.251865 3.476114 0
M  V30 39 H 4.121361 2.711362 2.274782 0
M  V30 40 H 5.300479 0.631441 2.380365 0
M  V30 41 H 5.985198 -1.237394 3.923634 0
M  V30 42 H 2.991001 -0.243434 6.652715 0
M  V30 43 H 2.209978 1.626168 5.238449 0
M  V30 44 H -2.846274 0.222711 0.454629 0
M  V30 45 H -3.633887 -2.119866 0.447517 0
M  V30 46 H -3.226754 -4.522592 -3.131937 0
M  V30 47 H -4.549319 -3.861202 -2.049075 0
M  V30 48 H -5.041286 -6.149985 -2.093539 0
M  V30 49 H -3.274092 -6.610975 -2.249513 0
M  V30 50 H -4.827613 -6.179899 0.200005 0
M  V30 51 H -3.150119 -6.906590 0.006626 0
M  V30 52 H -4.038369 -4.106894 0.612119 0
M  V30 53 H -2.449958 -4.944992 0.919177 0
M  V30 END ATOM
M  V30 BEGIN BOND
M  V30 1 3 1 2
M  V30 2 1 2 3
M  V30 3 1 3 4
M  V30 4 2 4 5
M  V30 5 1 5 6
M  V30 6 2 6 7
M  V30 7 1 7 8
M  V30 8 1 8 9
M  V30 9 2 9 10
M  V30 10 1 9 11
M  V30 11 2 11 12
M  V30 12 1 12 13
M  V30 13 2 13 14
M  V30 14 1 14 15
M  V30 15 2 15 16
M  V30 16 1 16 17
M  V30 17 1 17 18
M  V30 18 1 18 19
M  V30 19 2 19 20
M  V30 20 1 20 21
M  V30 21 2 21 22
M  V30 22 1 22 23
M  V30 23 2 23 24
M  V30 24 1 7 25
M  V30 25 2 25 26
M  V30 26 1 3 27
M  V30 27 1 27 28
M  V30 28 1 28 29
M  V30 29 1 29 30
M  V30 30 1 30 3
M  V30 31 1 26 4
M  V30 32 1 16 11
M  V30 33 1 24 19
M  V30 34 1 5 31
M  V30 35 1 6 32
M  V30 36 1 8 33
M  V30 37 1 12 34
M  V30 38 1 13 35
M  V30 39 1 14 36
M  V30 40 1 17 37
M  V30 41 1 18 38
M  V30 42 1 18 39
M  V30 43 1 20 40
M  V30 44 1 21 41
M  V30 45 1 23 42
M  V30 46 1 24 43
M  V30 47 1 25 44
M  V30 48 1 26 45
M  V30 49 1 27 46
M  V30 50 1 27 47
M  V30 51 1 28 48
M  V30 52 1 28 49
M  V30 53 1 29 50
M  V30 54 1 29 51
M  V30 55 1 30 52
M  V30 56 1 30 53
M  V30 END BOND
M  V30 END CTAB
M  END
>  <Dataset>  (79) 
PKIs

>  <Ligand_Instance>  (79) 
nan

>  <PDB_ID>  (79) 
nan

>  <Standardized_SMILES>  (79) 
N#CC1(c2ccc(NC(=O)c3cccnc3NCc3ccncc3)cc2)CCCC1

>  <Name>  (79) 
Rivoceranib

>  <Pocket>  (79) 
nan

>  <ATP_Site>  (79) 
nan

>  <Peripheral>  (79) 
nan

>  <Num_H_Atoms_ProtBoundConf>  (79) 
nan

>  <Num_Resolved_Atoms>  (79) 
nan

>  <Num_Not_Resolved_Atoms>  (79) 
nan

>  <2D_Mol_H>  (79) 
<rdkit.Chem.rdchem.Mol object at 0x72a239141930>

>  <MW>  (79) 
397.482

>  <HBA>  (79) 
5

>  <HBD>  (79) 
2

>  <LogP>  (79) 
4.67638

>  <NRB>  (79) 
6

>  <TPSA>  (79) 
90.7

>  <Num_Heavy_Atoms>  (79) 
30

>  <Ro5>  (79) 
[True, True, True, True, True, True]

>  <Ro5_Fulfilled>  (79) 
True

>  <Ro3>  (79) 
[False, False, True, False]

>  <Ro3_Fulfilled>  (79) 
False

>  <Fsp3>  (79) 
0.25

>  <Fsp3_0.42>  (79) 
False

>  <Fsp3_0.45>  (79) 
False

>  <Stereogenic_Carbons>  (79) 
0

>  <C_Atoms>  (79) 
24

>  <FCStereo>  (79) 
0.0

>  <SPS>  (79) 
439

>  <nSPS>  (79) 
14.633333

>  <PBF>  (79) 
0.825492

>  <PBF_0.6>  (79) 
True

>  <nPBF>  (79) 
0.027516

>  <nPBF_0.016>  (79) 
True

>  <PMI1>  (79) 
2498.485081

>  <PMI2>  (79) 
7180.623241

>  <PMI3>  (79) 
9085.055522

>  <NPR1>  (79) 
0.27501

>  <NPR2>  (79) 
0.790377

>  <Sum_NPR>  (79) 
1.065388

>  <Sum_NPR_1.07>  (79) 
False

>  <Sum_NPR_1.2>  (79) 
False

>  <MaxAbsEStateIndex>  (79) 
12.853133

>  <MaxEStateIndex>  (79) 
12.853133

>  <MinAbsEStateIndex>  (79) 
0.232462

>  <MinEStateIndex>  (79) 
-0.379031

>  <qed>  (79) 
0.630342

>  <MolWt>  (79) 
397.482

>  <HeavyAtomMolWt>  (79) 
374.298

>  <ExactMolWt>  (79) 
397.19026

>  <NumValenceElectrons>  (79) 
150

>  <NumRadicalElectrons>  (79) 
0

>  <MaxPartialCharge>  (79) 
0.25891

>  <MinPartialCharge>  (79) 
-0.365331

>  <MaxAbsPartialCharge>  (79) 
0.365331

>  <MinAbsPartialCharge>  (79) 
0.25891

>  <FpDensityMorgan1>  (79) 
1.033333

>  <FpDensityMorgan2>  (79) 
1.766667

>  <FpDensityMorgan3>  (79) 
2.466667

>  <BCUT2D_MWHI>  (79) 
16.149309

>  <BCUT2D_MWLOW>  (79) 
9.802702

>  <BCUT2D_CHGHI>  (79) 
2.35111

>  <BCUT2D_CHGLO>  (79) 
-2.205872

>  <BCUT2D_LOGPHI>  (79) 
2.402905

>  <BCUT2D_LOGPLOW>  (79) 
-2.192988

>  <BCUT2D_MRHI>  (79) 
6.069673

>  <BCUT2D_MRLOW>  (79) 
0.10225

>  <AvgIpc>  (79) 
3.293685

>  <BalabanJ>  (79) 
1.458278

>  <BertzCT>  (79) 
1050.959328

>  <Chi0>  (79) 
20.813344

>  <Chi0n>  (79) 
16.636276

>  <Chi0v>  (79) 
16.636276

>  <Chi1>  (79) 
14.699439

>  <Chi1n>  (79) 
10.110874

>  <Chi1v>  (79) 
10.110874

>  <Chi2n>  (79) 
7.541076

>  <Chi2v>  (79) 
7.541076

>  <Chi3n>  (79) 
5.62813

>  <Chi3v>  (79) 
5.62813

>  <Chi4n>  (79) 
3.930429

>  <Chi4v>  (79) 
3.930429

>  <HallKierAlpha>  (79) 
-3.72

>  <Ipc>  (79) 
12140839.777424

>  <Kappa1>  (79) 
19.590132

>  <Kappa2>  (79) 
8.74571

>  <Kappa3>  (79) 
4.154382

>  <LabuteASA>  (79) 
175.552419

>  <PEOE_VSA1>  (79) 
10.633577

>  <PEOE_VSA10>  (79) 
5.817863

>  <PEOE_VSA11>  (79) 
0.0

>  <PEOE_VSA12>  (79) 
0.0

>  <PEOE_VSA13>  (79) 
5.90718

>  <PEOE_VSA14>  (79) 
0.0

>  <PEOE_VSA2>  (79) 
9.778516

>  <PEOE_VSA3>  (79) 
4.983979

>  <PEOE_VSA4>  (79) 
5.261892

>  <PEOE_VSA5>  (79) 
0.0

>  <PEOE_VSA6>  (79) 
24.974377

>  <PEOE_VSA7>  (79) 
60.366749

>  <PEOE_VSA8>  (79) 
30.822673

>  <PEOE_VSA9>  (79) 
17.047663

>  <SMR_VSA1>  (79) 
4.794537

>  <SMR_VSA10>  (79) 
17.412429

>  <SMR_VSA2>  (79) 
5.261892

>  <SMR_VSA3>  (79) 
9.967957

>  <SMR_VSA4>  (79) 
0.0

>  <SMR_VSA5>  (79) 
37.643033

>  <SMR_VSA6>  (79) 
10.633577

>  <SMR_VSA7>  (79) 
83.811822

>  <SMR_VSA8>  (79) 
0.0

>  <SMR_VSA9>  (79) 
6.069221

>  <SlogP_VSA1>  (79) 
10.633577

>  <SlogP_VSA10>  (79) 
11.505249

>  <SlogP_VSA11>  (79) 
0.0

>  <SlogP_VSA12>  (79) 
0.0

>  <SlogP_VSA2>  (79) 
15.875137

>  <SlogP_VSA3>  (79) 
11.959747

>  <SlogP_VSA4>  (79) 
11.331113

>  <SlogP_VSA5>  (79) 
47.168178

>  <SlogP_VSA6>  (79) 
67.121467

>  <SlogP_VSA7>  (79) 
0.0

>  <SlogP_VSA8>  (79) 
0.0

>  <SlogP_VSA9>  (79) 
0.0

>  <EState_VSA1>  (79) 
0.0

>  <EState_VSA10>  (79) 
10.056429

>  <EState_VSA11>  (79) 
0.0

>  <EState_VSA2>  (79) 
11.32217

>  <EState_VSA3>  (79) 
23.613457

>  <EState_VSA4>  (79) 
36.810189

>  <EState_VSA5>  (79) 
0.0

>  <EState_VSA6>  (79) 
30.723265

>  <EState_VSA7>  (79) 
36.398202

>  <EState_VSA8>  (79) 
26.670756

>  <EState_VSA9>  (79) 
0.0

>  <VSA_EState1>  (79) 
0.0

>  <VSA_EState10>  (79) 
0.0

>  <VSA_EState2>  (79) 
21.181195

>  <VSA_EState3>  (79) 
15.812187

>  <VSA_EState4>  (79) 
2.867462

>  <VSA_EState5>  (79) 
0.293299

>  <VSA_EState6>  (79) 
17.459894

>  <VSA_EState7>  (79) 
9.089582

>  <VSA_EState8>  (79) 
0.546382

>  <VSA_EState9>  (79) 
0.0

>  <FractionCSP3>  (79) 
0.25

>  <HeavyAtomCount>  (79) 
30

>  <NHOHCount>  (79) 
2

>  <NOCount>  (79) 
6

>  <NumAliphaticCarbocycles>  (79) 
1

>  <NumAliphaticHeterocycles>  (79) 
0

>  <NumAliphaticRings>  (79) 
1

>  <NumAromaticCarbocycles>  (79) 
1

>  <NumAromaticHeterocycles>  (79) 
2

>  <NumAromaticRings>  (79) 
3

>  <NumHAcceptors>  (79) 
5

>  <NumHDonors>  (79) 
2

>  <NumHeteroatoms>  (79) 
6

>  <NumRotatableBonds>  (79) 
6

>  <NumSaturatedCarbocycles>  (79) 
1

>  <NumSaturatedHeterocycles>  (79) 
0

>  <NumSaturatedRings>  (79) 
1

>  <RingCount>  (79) 
4

>  <MolLogP>  (79) 
4.67638

>  <MolMR>  (79) 
115.9549

>  <fr_Al_COO>  (79) 
0

>  <fr_Al_OH>  (79) 
0

>  <fr_Al_OH_noTert>  (79) 
0

>  <fr_ArN>  (79) 
0

>  <fr_Ar_COO>  (79) 
0

>  <fr_Ar_N>  (79) 
2

>  <fr_Ar_NH>  (79) 
0

>  <fr_Ar_OH>  (79) 
0

>  <fr_COO>  (79) 
0

>  <fr_COO2>  (79) 
0

>  <fr_C_O>  (79) 
1

>  <fr_C_O_noCOO>  (79) 
1

>  <fr_C_S>  (79) 
0

>  <fr_HOCCN>  (79) 
0

>  <fr_Imine>  (79) 
0

>  <fr_NH0>  (79) 
3

>  <fr_NH1>  (79) 
2

>  <fr_NH2>  (79) 
0

>  <fr_N_O>  (79) 
0

>  <fr_Ndealkylation1>  (79) 
0

>  <fr_Ndealkylation2>  (79) 
0

>  <fr_Nhpyrrole>  (79) 
0

>  <fr_SH>  (79) 
0

>  <fr_aldehyde>  (79) 
0

>  <fr_alkyl_carbamate>  (79) 
0

>  <fr_alkyl_halide>  (79) 
0

>  <fr_allylic_oxid>  (79) 
0

>  <fr_amide>  (79) 
1

>  <fr_amidine>  (79) 
0

>  <fr_aniline>  (79) 
2

>  <fr_aryl_methyl>  (79) 
0

>  <fr_azide>  (79) 
0

>  <fr_azo>  (79) 
0

>  <fr_barbitur>  (79) 
0

>  <fr_benzene>  (79) 
1

>  <fr_benzodiazepine>  (79) 
0

>  <fr_bicyclic>  (79) 
0

>  <fr_diazo>  (79) 
0

>  <fr_dihydropyridine>  (79) 
0

>  <fr_epoxide>  (79) 
0

>  <fr_ester>  (79) 
0

>  <fr_ether>  (79) 
0

>  <fr_furan>  (79) 
0

>  <fr_guanido>  (79) 
0

>  <fr_halogen>  (79) 
0

>  <fr_hdrzine>  (79) 
0

>  <fr_hdrzone>  (79) 
0

>  <fr_imidazole>  (79) 
0

>  <fr_imide>  (79) 
0

>  <fr_isocyan>  (79) 
0

>  <fr_isothiocyan>  (79) 
0

>  <fr_ketone>  (79) 
0

>  <fr_ketone_Topliss>  (79) 
0

>  <fr_lactam>  (79) 
0

>  <fr_lactone>  (79) 
0

>  <fr_methoxy>  (79) 
0

>  <fr_morpholine>  (79) 
0

>  <fr_nitrile>  (79) 
1

>  <fr_nitro>  (79) 
0

>  <fr_nitro_arom>  (79) 
0

>  <fr_nitro_arom_nonortho>  (79) 
0

>  <fr_nitroso>  (79) 
0

>  <fr_oxazole>  (79) 
0

>  <fr_oxime>  (79) 
0

>  <fr_para_hydroxylation>  (79) 
0

>  <fr_phenol>  (79) 
0

>  <fr_phenol_noOrthoHbond>  (79) 
0

>  <fr_phos_acid>  (79) 
0

>  <fr_phos_ester>  (79) 
0

>  <fr_piperdine>  (79) 
0

>  <fr_piperzine>  (79) 
0

>  <fr_priamide>  (79) 
0

>  <fr_prisulfonamd>  (79) 
0

>  <fr_pyridine>  (79) 
2

>  <fr_quatN>  (79) 
0

>  <fr_sulfide>  (79) 
0

>  <fr_sulfonamd>  (79) 
0

>  <fr_sulfone>  (79) 
0

>  <fr_term_acetylene>  (79) 
0

>  <fr_tetrazole>  (79) 
0

>  <fr_thiazole>  (79) 
0

>  <fr_thiocyan>  (79) 
0

>  <fr_thiophene>  (79) 
0

>  <fr_unbrch_alkane>  (79) 
0

>  <fr_urea>  (79) 
0

>  <NP_Likeness>  (79) 
-1.290879

$$$$
nan
     RDKit          3D

  0  0  0  0  0  0  0  0  0  0999 V3000
M  V30 BEGIN CTAB
M  V30 COUNTS 74 77 0 0 0
M  V30 BEGIN ATOM
M  V30 1 C 2.433733 1.739536 0.494818 0
M  V30 2 C 2.027406 0.563595 1.267135 0
M  V30 3 C 0.746053 0.423893 1.751854 0
M  V30 4 C 0.322585 -0.663659 2.476958 0
M  V30 5 N -1.038000 -0.747502 2.927914 0
M  V30 6 C -1.925464 0.339163 2.591173 0
M  V30 7 N -2.497909 1.354584 3.306654 0
M  V30 8 C -3.287211 2.250398 2.688090 0
M  V30 9 C -3.499066 2.123424 1.352557 0
M  V30 10 Cl -4.512736 3.276933 0.529454 0
M  V30 11 C -2.950652 1.125881 0.583552 0
M  V30 12 N -3.158605 0.960119 -0.834378 0
M  V30 13 C -4.054976 -0.086592 -1.223993 0
M  V30 14 C -4.674994 -0.866961 -0.274843 0
M  V30 15 C -5.548348 -1.925717 -0.518449 0
M  V30 16 C -5.771804 -2.162627 -1.876035 0
M  V30 17 C -5.168038 -1.398783 -2.882925 0
M  V30 18 C -4.316709 -0.369522 -2.562413 0
M  V30 19 S -3.546941 0.585734 -3.777122 0
M  V30 20 O -3.964754 2.035371 -3.598575 0
M  V30 21 O -2.050637 0.513216 -3.650316 0
M  V30 22 C -4.070896 0.045595 -5.392038 0
M  V30 23 C -5.523361 0.343250 -5.601969 0
M  V30 24 C -3.276827 0.803852 -6.467619 0
M  V30 25 N -2.157147 0.244608 1.269872 0
M  V30 26 C 1.245007 -1.655158 2.721223 0
M  V30 27 O 0.836375 -2.746711 3.445152 0
M  V30 28 C 1.517667 -3.906558 3.787081 0
M  V30 29 C 1.729009 -3.961610 5.302628 0
M  V30 30 C 0.601845 -5.083926 3.473899 0
M  V30 31 C 2.525473 -1.497046 2.226016 0
M  V30 32 C 2.986698 -0.395469 1.480974 0
M  V30 33 C 4.374826 -0.503059 1.129867 0
M  V30 34 C 4.981227 0.361160 0.097301 0
M  V30 35 C 6.235644 -0.398466 -0.386739 0
M  V30 36 N 6.515427 -1.558785 0.406805 0
M  V30 37 C 6.528781 -1.368581 1.828565 0
M  V30 38 C 5.353446 -0.508050 2.306372 0
M  V30 39 H 2.240004 1.634360 -0.609460 0
M  V30 40 H 3.373312 2.213063 0.757436 0
M  V30 41 H 1.663679 2.534485 0.765994 0
M  V30 42 H 0.018708 1.202048 1.560236 0
M  V30 43 H -1.300463 -1.595552 3.476946 0
M  V30 44 H -3.691074 3.008633 3.322188 0
M  V30 45 H -2.714877 1.530065 -1.581131 0
M  V30 46 H -4.483548 -0.658114 0.786096 0
M  V30 47 H -6.005179 -2.501118 0.249020 0
M  V30 48 H -6.459553 -3.001107 -2.051832 0
M  V30 49 H -5.393655 -1.648856 -3.893570 0
M  V30 50 H -3.793351 -1.022359 -5.495053 0
M  V30 51 H -6.044292 -0.599084 -5.932559 0
M  V30 52 H -5.666918 1.118967 -6.408536 0
M  V30 53 H -5.983667 0.727014 -4.690482 0
M  V30 54 H -3.645967 1.842235 -6.451847 0
M  V30 55 H -3.549685 0.318464 -7.420807 0
M  V30 56 H -2.214061 0.696558 -6.212596 0
M  V30 57 H 2.498436 -4.004341 3.296465 0
M  V30 58 H 2.487797 -3.241802 5.615700 0
M  V30 59 H 2.000164 -5.031380 5.518937 0
M  V30 60 H 0.762769 -3.700654 5.776058 0
M  V30 61 H 0.062664 -5.428200 4.378956 0
M  V30 62 H -0.203557 -4.771221 2.759868 0
M  V30 63 H 1.147954 -5.935211 3.056274 0
M  V30 64 H 3.183333 -2.342152 2.474697 0
M  V30 65 H 4.482075 -1.566226 0.699128 0
M  V30 66 H 5.475047 1.282252 0.555005 0
M  V30 67 H 4.368772 0.604522 -0.774484 0
M  V30 68 H 6.003910 -0.790803 -1.417010 0
M  V30 69 H 7.098387 0.274641 -0.548346 0
M  V30 70 H 6.176206 -2.454503 0.056239 0
M  V30 71 H 7.484569 -0.973744 2.222145 0
M  V30 72 H 6.378102 -2.364627 2.298108 0
M  V30 73 H 5.704669 0.501697 2.503403 0
M  V30 74 H 4.809378 -0.958689 3.151777 0
M  V30 END ATOM
M  V30 BEGIN BOND
M  V30 1 1 1 2
M  V30 2 2 2 3
M  V30 3 1 3 4
M  V30 4 1 4 5
M  V30 5 1 5 6
M  V30 6 2 6 7
M  V30 7 1 7 8
M  V30 8 2 8 9
M  V30 9 1 9 10
M  V30 10 1 9 11
M  V30 11 1 11 12
M  V30 12 1 12 13
M  V30 13 2 13 14
M  V30 14 1 14 15
M  V30 15 2 15 16
M  V30 16 1 16 17
M  V30 17 2 17 18
M  V30 18 1 18 19
M  V30 19 2 19 20
M  V30 20 2 19 21
M  V30 21 1 19 22
M  V30 22 1 22 23
M  V30 23 1 22 24
M  V30 24 2 11 25
M  V30 25 2 4 26
M  V30 26 1 26 27
M  V30 27 1 27 28
M  V30 28 1 28 29
M  V30 29 1 28 30
M  V30 30 1 26 31
M  V30 31 2 31 32
M  V30 32 1 32 33
M  V30 33 1 33 34
M  V30 34 1 34 35
M  V30 35 1 35 36
M  V30 36 1 36 37
M  V30 37 1 37 38
M  V30 38 1 32 2
M  V30 39 1 38 33
M  V30 40 1 25 6
M  V30 41 1 18 13
M  V30 42 1 1 39
M  V30 43 1 1 40
M  V30 44 1 1 41
M  V30 45 1 3 42
M  V30 46 1 5 43
M  V30 47 1 8 44
M  V30 48 1 12 45
M  V30 49 1 14 46
M  V30 50 1 15 47
M  V30 51 1 16 48
M  V30 52 1 17 49
M  V30 53 1 22 50
M  V30 54 1 23 51
M  V30 55 1 23 52
M  V30 56 1 23 53
M  V30 57 1 24 54
M  V30 58 1 24 55
M  V30 59 1 24 56
M  V30 60 1 28 57
M  V30 61 1 29 58
M  V30 62 1 29 59
M  V30 63 1 29 60
M  V30 64 1 30 61
M  V30 65 1 30 62
M  V30 66 1 30 63
M  V30 67 1 31 64
M  V30 68 1 33 65
M  V30 69 1 34 66
M  V30 70 1 34 67
M  V30 71 1 35 68
M  V30 72 1 35 69
M  V30 73 1 36 70
M  V30 74 1 37 71
M  V30 75 1 37 72
M  V30 76 1 38 73
M  V30 77 1 38 74
M  V30 END BOND
M  V30 END CTAB
M  END
>  <Dataset>  (80) 
PKIs

>  <Ligand_Instance>  (80) 
nan

>  <PDB_ID>  (80) 
nan

>  <Standardized_SMILES>  (80) 
Cc1cc(Nc2ncc(Cl)c(Nc3ccccc3S(=O)(=O)C(C)C)n2)c(OC(C)C)cc1C1CCNCC1

>  <Name>  (80) 
Ceritinib

>  <Pocket>  (80) 
nan

>  <ATP_Site>  (80) 
nan

>  <Peripheral>  (80) 
nan

>  <Num_H_Atoms_ProtBoundConf>  (80) 
nan

>  <Num_Resolved_Atoms>  (80) 
nan

>  <Num_Not_Resolved_Atoms>  (80) 
nan

>  <2D_Mol_H>  (80) 
<rdkit.Chem.rdchem.Mol object at 0x72a239141a10>

>  <MW>  (80) 
558.148

>  <HBA>  (80) 
8

>  <HBD>  (80) 
3

>  <LogP>  (80) 
6.36192

>  <NRB>  (80) 
14

>  <TPSA>  (80) 
105.24

>  <Num_Heavy_Atoms>  (80) 
38

>  <Ro5>  (80) 
[False, True, True, False, False, True]

>  <Ro5_Fulfilled>  (80) 
False

>  <Ro3>  (80) 
[False, False, True, False]

>  <Ro3_Fulfilled>  (80) 
False

>  <Fsp3>  (80) 
0.428571

>  <Fsp3_0.42>  (80) 
True

>  <Fsp3_0.45>  (80) 
False

>  <Stereogenic_Carbons>  (80) 
0

>  <C_Atoms>  (80) 
28

>  <FCStereo>  (80) 
0.0

>  <SPS>  (80) 
556

>  <nSPS>  (80) 
14.631579

>  <PBF>  (80) 
1.414198

>  <PBF_0.6>  (80) 
True

>  <nPBF>  (80) 
0.037216

>  <nPBF_0.016>  (80) 
True

>  <PMI1>  (80) 
4465.01072

>  <PMI2>  (80) 
11471.067403

>  <PMI3>  (80) 
12781.940908

>  <NPR1>  (80) 
0.349322

>  <NPR2>  (80) 
0.897443

>  <Sum_NPR>  (80) 
1.246765

>  <Sum_NPR_1.07>  (80) 
True

>  <Sum_NPR_1.2>  (80) 
True

>  <MaxAbsEStateIndex>  (80) 
12.89977

>  <MaxEStateIndex>  (80) 
12.89977

>  <MinAbsEStateIndex>  (80) 
0.012129

>  <MinEStateIndex>  (80) 
-3.51975

>  <qed>  (80) 
0.278874

>  <MolWt>  (80) 
558.148

>  <HeavyAtomMolWt>  (80) 
521.86

>  <ExactMolWt>  (80) 
557.222739

>  <NumValenceElectrons>  (80) 
204

>  <NumRadicalElectrons>  (80) 
0

>  <MaxPartialCharge>  (80) 
0.22884

>  <MinPartialCharge>  (80) 
-0.488822

>  <MaxAbsPartialCharge>  (80) 
0.488822

>  <MinAbsPartialCharge>  (80) 
0.22884

>  <FpDensityMorgan1>  (80) 
1.052632

>  <FpDensityMorgan2>  (80) 
1.763158

>  <FpDensityMorgan3>  (80) 
2.447368

>  <BCUT2D_MWHI>  (80) 
35.495693

>  <BCUT2D_MWLOW>  (80) 
9.867981

>  <BCUT2D_CHGHI>  (80) 
2.236249

>  <BCUT2D_CHGLO>  (80) 
-2.261155

>  <BCUT2D_LOGPHI>  (80) 
2.374243

>  <BCUT2D_LOGPLOW>  (80) 
-2.266271

>  <BCUT2D_MRHI>  (80) 
7.917552

>  <BCUT2D_MRLOW>  (80) 
0.242976

>  <AvgIpc>  (80) 
2.876677

>  <BalabanJ>  (80) 
1.660225

>  <BertzCT>  (80) 
1389.231627

>  <Chi0>  (80) 
27.449019

>  <Chi0n>  (80) 
22.507315

>  <Chi0v>  (80) 
24.07974

>  <Chi1>  (80) 
18.056588

>  <Chi1n>  (80) 
12.973393

>  <Chi1v>  (80) 
14.897677

>  <Chi2n>  (80) 
10.125912

>  <Chi2v>  (80) 
13.005766

>  <Chi3n>  (80) 
6.567726

>  <Chi3v>  (80) 
9.054574

>  <Chi4n>  (80) 
4.560639

>  <Chi4v>  (80) 
5.900649

>  <HallKierAlpha>  (80) 
-2.88

>  <Ipc>  (80) 
222162421.938047

>  <Kappa1>  (80) 
28.136286

>  <Kappa2>  (80) 
11.883773

>  <Kappa3>  (80) 
6.391003

>  <LabuteASA>  (80) 
230.050158

>  <PEOE_VSA1>  (80) 
20.687229

>  <PEOE_VSA10>  (80) 
10.772145

>  <PEOE_VSA11>  (80) 
15.655116

>  <PEOE_VSA12>  (80) 
5.948339

>  <PEOE_VSA13>  (80) 
0.0

>  <PEOE_VSA14>  (80) 
0.0

>  <PEOE_VSA2>  (80) 
0.0

>  <PEOE_VSA3>  (80) 
13.401776

>  <PEOE_VSA4>  (80) 
4.983979

>  <PEOE_VSA5>  (80) 
0.0

>  <PEOE_VSA6>  (80) 
23.733674

>  <PEOE_VSA7>  (80) 
101.860119

>  <PEOE_VSA8>  (80) 
0.0

>  <PEOE_VSA9>  (80) 
33.821004

>  <SMR_VSA1>  (80) 
13.15466

>  <SMR_VSA10>  (80) 
44.579168

>  <SMR_VSA2>  (80) 
0.0

>  <SMR_VSA3>  (80) 
15.284746

>  <SMR_VSA4>  (80) 
0.0

>  <SMR_VSA5>  (80) 
69.627623

>  <SMR_VSA6>  (80) 
23.72309

>  <SMR_VSA7>  (80) 
58.744582

>  <SMR_VSA8>  (80) 
0.0

>  <SMR_VSA9>  (80) 
5.749512

>  <SlogP_VSA1>  (80) 
20.687229

>  <SlogP_VSA10>  (80) 
23.140975

>  <SlogP_VSA11>  (80) 
5.749512

>  <SlogP_VSA12>  (80) 
11.60094

>  <SlogP_VSA2>  (80) 
42.829171

>  <SlogP_VSA3>  (80) 
9.837253

>  <SlogP_VSA4>  (80) 
6.923737

>  <SlogP_VSA5>  (80) 
57.581401

>  <SlogP_VSA6>  (80) 
47.490529

>  <SlogP_VSA7>  (80) 
5.022633

>  <SlogP_VSA8>  (80) 
0.0

>  <SlogP_VSA9>  (80) 
0.0

>  <EState_VSA1>  (80) 
15.087191

>  <EState_VSA10>  (80) 
8.417797

>  <EState_VSA11>  (80) 
0.0

>  <EState_VSA2>  (80) 
16.022083

>  <EState_VSA3>  (80) 
23.371494

>  <EState_VSA4>  (80) 
37.368054

>  <EState_VSA5>  (80) 
17.323747

>  <EState_VSA6>  (80) 
38.112943

>  <EState_VSA7>  (80) 
13.847474

>  <EState_VSA8>  (80) 
44.974794

>  <EState_VSA9>  (80) 
16.337803

>  <VSA_EState1>  (80) 
31.986691

>  <VSA_EState10>  (80) 
6.415852

>  <VSA_EState2>  (80) 
9.121073

>  <VSA_EState3>  (80) 
9.51321

>  <VSA_EState4>  (80) 
3.633684

>  <VSA_EState5>  (80) 
1.832237

>  <VSA_EState6>  (80) 
10.936606

>  <VSA_EState7>  (80) 
3.662608

>  <VSA_EState8>  (80) 
11.445567

>  <VSA_EState9>  (80) 
-3.51975

>  <FractionCSP3>  (80) 
0.428571

>  <HeavyAtomCount>  (80) 
38

>  <NHOHCount>  (80) 
3

>  <NOCount>  (80) 
8

>  <NumAliphaticCarbocycles>  (80) 
0

>  <NumAliphaticHeterocycles>  (80) 
1

>  <NumAliphaticRings>  (80) 
1

>  <NumAromaticCarbocycles>  (80) 
2

>  <NumAromaticHeterocycles>  (80) 
1

>  <NumAromaticRings>  (80) 
3

>  <NumHAcceptors>  (80) 
8

>  <NumHDonors>  (80) 
3

>  <NumHeteroatoms>  (80) 
10

>  <NumRotatableBonds>  (80) 
9

>  <NumSaturatedCarbocycles>  (80) 
0

>  <NumSaturatedHeterocycles>  (80) 
1

>  <NumSaturatedRings>  (80) 
1

>  <RingCount>  (80) 
4

>  <MolLogP>  (80) 
6.36192

>  <MolMR>  (80) 
154.1589

>  <fr_Al_COO>  (80) 
0

>  <fr_Al_OH>  (80) 
0

>  <fr_Al_OH_noTert>  (80) 
0

>  <fr_ArN>  (80) 
0

>  <fr_Ar_COO>  (80) 
0

>  <fr_Ar_N>  (80) 
2

>  <fr_Ar_NH>  (80) 
0

>  <fr_Ar_OH>  (80) 
0

>  <fr_COO>  (80) 
0

>  <fr_COO2>  (80) 
0

>  <fr_C_O>  (80) 
0

>  <fr_C_O_noCOO>  (80) 
0

>  <fr_C_S>  (80) 
0

>  <fr_HOCCN>  (80) 
0

>  <fr_Imine>  (80) 
0

>  <fr_NH0>  (80) 
2

>  <fr_NH1>  (80) 
3

>  <fr_NH2>  (80) 
0

>  <fr_N_O>  (80) 
0

>  <fr_Ndealkylation1>  (80) 
0

>  <fr_Ndealkylation2>  (80) 
0

>  <fr_Nhpyrrole>  (80) 
0

>  <fr_SH>  (80) 
0

>  <fr_aldehyde>  (80) 
0

>  <fr_alkyl_carbamate>  (80) 
0

>  <fr_alkyl_halide>  (80) 
0

>  <fr_allylic_oxid>  (80) 
0

>  <fr_amide>  (80) 
0

>  <fr_amidine>  (80) 
0

>  <fr_aniline>  (80) 
4

>  <fr_aryl_methyl>  (80) 
1

>  <fr_azide>  (80) 
0

>  <fr_azo>  (80) 
0

>  <fr_barbitur>  (80) 
0

>  <fr_benzene>  (80) 
2

>  <fr_benzodiazepine>  (80) 
0

>  <fr_bicyclic>  (80) 
0

>  <fr_diazo>  (80) 
0

>  <fr_dihydropyridine>  (80) 
0

>  <fr_epoxide>  (80) 
0

>  <fr_ester>  (80) 
0

>  <fr_ether>  (80) 
1

>  <fr_furan>  (80) 
0

>  <fr_guanido>  (80) 
0

>  <fr_halogen>  (80) 
1

>  <fr_hdrzine>  (80) 
0

>  <fr_hdrzone>  (80) 
0

>  <fr_imidazole>  (80) 
0

>  <fr_imide>  (80) 
0

>  <fr_isocyan>  (80) 
0

>  <fr_isothiocyan>  (80) 
0

>  <fr_ketone>  (80) 
0

>  <fr_ketone_Topliss>  (80) 
0

>  <fr_lactam>  (80) 
0

>  <fr_lactone>  (80) 
0

>  <fr_methoxy>  (80) 
0

>  <fr_morpholine>  (80) 
0

>  <fr_nitrile>  (80) 
0

>  <fr_nitro>  (80) 
0

>  <fr_nitro_arom>  (80) 
0

>  <fr_nitro_arom_nonortho>  (80) 
0

>  <fr_nitroso>  (80) 
0

>  <fr_oxazole>  (80) 
0

>  <fr_oxime>  (80) 
0

>  <fr_para_hydroxylation>  (80) 
1

>  <fr_phenol>  (80) 
0

>  <fr_phenol_noOrthoHbond>  (80) 
0

>  <fr_phos_acid>  (80) 
0

>  <fr_phos_ester>  (80) 
0

>  <fr_piperdine>  (80) 
1

>  <fr_piperzine>  (80) 
0

>  <fr_priamide>  (80) 
0

>  <fr_prisulfonamd>  (80) 
0

>  <fr_pyridine>  (80) 
0

>  <fr_quatN>  (80) 
0

>  <fr_sulfide>  (80) 
0

>  <fr_sulfonamd>  (80) 
0

>  <fr_sulfone>  (80) 
1

>  <fr_term_acetylene>  (80) 
0

>  <fr_tetrazole>  (80) 
0

>  <fr_thiazole>  (80) 
0

>  <fr_thiocyan>  (80) 
0

>  <fr_thiophene>  (80) 
0

>  <fr_unbrch_alkane>  (80) 
0

>  <fr_urea>  (80) 
0

>  <NP_Likeness>  (80) 
-1.175072

$$$$
nan
     RDKit          3D

  0  0  0  0  0  0  0  0  0  0999 V3000
M  V30 BEGIN CTAB
M  V30 COUNTS 40 42 0 0 0
M  V30 BEGIN ATOM
M  V30 1 C 0.832006 -3.001561 -1.613679 0
M  V30 2 C 0.606420 -2.758875 -0.135704 0 CFG=1
M  V30 3 C 1.602256 -3.591456 0.611235 0
M  V30 4 N 1.260487 -3.769393 1.984156 0
M  V30 5 C 1.132304 -2.589041 2.759062 0
M  V30 6 C 1.966495 -1.430291 2.334770 0
M  V30 7 C 1.933795 -1.038904 0.909740 0
M  V30 8 N 0.749711 -1.406878 0.173616 0
M  V30 9 S 0.268186 -0.220567 -0.911104 0
M  V30 10 O 1.575144 0.027978 -1.652632 0
M  V30 11 O -0.528891 -0.648226 -2.080819 0
M  V30 12 C -0.156495 1.313268 -0.215996 0
M  V30 13 C 0.542615 2.500372 -0.490546 0
M  V30 14 C 0.275175 3.746264 0.032100 0
M  V30 15 C -0.761827 3.858534 0.899421 0
M  V30 16 C -1.489910 2.762145 1.219194 0
M  V30 17 C -2.549686 2.909514 2.107401 0
M  V30 18 N -3.288389 1.822220 2.431510 0
M  V30 19 C -3.021321 0.599546 1.913581 0
M  V30 20 C -1.966792 0.477646 1.036038 0
M  V30 21 F -1.731931 -0.722063 0.538211 0
M  V30 22 C -1.198714 1.546138 0.684411 0
M  V30 23 H 1.449273 -2.259504 -2.113081 0
M  V30 24 H 1.343800 -3.996522 -1.762292 0
M  V30 25 H -0.131873 -3.086530 -2.170817 0
M  V30 26 H -0.390369 -3.213282 0.136637 0
M  V30 27 H 2.646342 -3.305849 0.513753 0
M  V30 28 H 1.535017 -4.614437 0.135887 0
M  V30 29 H 1.734715 -4.574526 2.399955 0
M  V30 30 H 0.055065 -2.328968 2.831763 0
M  V30 31 H 1.457348 -2.832503 3.794978 0
M  V30 32 H 3.038866 -1.676855 2.587055 0
M  V30 33 H 1.712807 -0.589450 3.013890 0
M  V30 34 H 2.873922 -1.286393 0.345348 0
M  V30 35 H 1.939405 0.085125 0.878569 0
M  V30 36 H 1.383815 2.410517 -1.193849 0
M  V30 37 H 0.901740 4.574697 -0.271751 0
M  V30 38 H -1.002679 4.806466 1.327733 0
M  V30 39 H -2.754949 3.881571 2.513351 0
M  V30 40 H -3.639401 -0.228376 2.204734 0
M  V30 END ATOM
M  V30 BEGIN BOND
M  V30 1 1 1 2
M  V30 2 1 2 3
M  V30 3 1 3 4
M  V30 4 1 4 5
M  V30 5 1 5 6
M  V30 6 1 6 7
M  V30 7 1 7 8
M  V30 8 1 8 9
M  V30 9 2 9 10
M  V30 10 2 9 11
M  V30 11 1 9 12
M  V30 12 2 12 13
M  V30 13 1 13 14
M  V30 14 2 14 15
M  V30 15 1 15 16
M  V30 16 2 16 17
M  V30 17 1 17 18
M  V30 18 2 18 19
M  V30 19 1 19 20
M  V30 20 1 20 21
M  V30 21 2 20 22
M  V30 22 1 8 2
M  V30 23 1 22 12
M  V30 24 1 22 16
M  V30 25 1 1 23
M  V30 26 1 1 24
M  V30 27 1 1 25
M  V30 28 1 2 26 CFG=1
M  V30 29 1 3 27
M  V30 30 1 3 28
M  V30 31 1 4 29
M  V30 32 1 5 30
M  V30 33 1 5 31
M  V30 34 1 6 32
M  V30 35 1 6 33
M  V30 36 1 7 34
M  V30 37 1 7 35
M  V30 38 1 13 36
M  V30 39 1 14 37
M  V30 40 1 15 38
M  V30 41 1 17 39
M  V30 42 1 19 40
M  V30 END BOND
M  V30 END CTAB
M  END
>  <Dataset>  (81) 
PKIs

>  <Ligand_Instance>  (81) 
nan

>  <PDB_ID>  (81) 
nan

>  <Standardized_SMILES>  (81) 
C[C@H]1CNCCCN1S(=O)(=O)c1cccc2cncc(F)c12

>  <Name>  (81) 
Ripasudil

>  <Pocket>  (81) 
nan

>  <ATP_Site>  (81) 
nan

>  <Peripheral>  (81) 
nan

>  <Num_H_Atoms_ProtBoundConf>  (81) 
nan

>  <Num_Resolved_Atoms>  (81) 
nan

>  <Num_Not_Resolved_Atoms>  (81) 
nan

>  <2D_Mol_H>  (81) 
<rdkit.Chem.rdchem.Mol object at 0x72a239141af0>

>  <MW>  (81) 
323.393

>  <HBA>  (81) 
4

>  <HBD>  (81) 
1

>  <LogP>  (81) 
1.7464

>  <NRB>  (81) 
3

>  <TPSA>  (81) 
62.3

>  <Num_Heavy_Atoms>  (81) 
22

>  <Ro5>  (81) 
[True, True, True, True, True, True]

>  <Ro5_Fulfilled>  (81) 
True

>  <Ro3>  (81) 
[False, False, True, True]

>  <Ro3_Fulfilled>  (81) 
False

>  <Fsp3>  (81) 
0.4

>  <Fsp3_0.42>  (81) 
False

>  <Fsp3_0.45>  (81) 
False

>  <Stereogenic_Carbons>  (81) 
1

>  <C_Atoms>  (81) 
15

>  <FCStereo>  (81) 
0.066667

>  <SPS>  (81) 
460

>  <nSPS>  (81) 
20.909091

>  <PBF>  (81) 
1.126505

>  <PBF_0.6>  (81) 
True

>  <nPBF>  (81) 
0.051205

>  <nPBF_0.016>  (81) 
True

>  <PMI1>  (81) 
1090.953716

>  <PMI2>  (81) 
2326.200076

>  <PMI3>  (81) 
2663.710249

>  <NPR1>  (81) 
0.409562

>  <NPR2>  (81) 
0.873293

>  <Sum_NPR>  (81) 
1.282855

>  <Sum_NPR_1.07>  (81) 
True

>  <Sum_NPR_1.2>  (81) 
True

>  <MaxAbsEStateIndex>  (81) 
14.163823

>  <MaxEStateIndex>  (81) 
14.163823

>  <MinAbsEStateIndex>  (81) 
0.012639

>  <MinEStateIndex>  (81) 
-3.758102

>  <qed>  (81) 
0.914439

>  <MolWt>  (81) 
323.393

>  <HeavyAtomMolWt>  (81) 
305.249

>  <ExactMolWt>  (81) 
323.110376

>  <NumValenceElectrons>  (81) 
118

>  <NumRadicalElectrons>  (81) 
0

>  <MaxPartialCharge>  (81) 
0.243585

>  <MinPartialCharge>  (81) 
-0.315098

>  <MaxAbsPartialCharge>  (81) 
0.315098

>  <MinAbsPartialCharge>  (81) 
0.243585

>  <FpDensityMorgan1>  (81) 
1.363636

>  <FpDensityMorgan2>  (81) 
2.181818

>  <FpDensityMorgan3>  (81) 
3.0

>  <BCUT2D_MWHI>  (81) 
32.233428

>  <BCUT2D_MWLOW>  (81) 
10.158001

>  <BCUT2D_CHGHI>  (81) 
2.313483

>  <BCUT2D_CHGLO>  (81) 
-2.261491

>  <BCUT2D_LOGPHI>  (81) 
2.283068

>  <BCUT2D_LOGPLOW>  (81) 
-2.412109

>  <BCUT2D_MRHI>  (81) 
7.889884

>  <BCUT2D_MRLOW>  (81) 
0.353403

>  <AvgIpc>  (81) 
2.717475

>  <BalabanJ>  (81) 
2.168145

>  <BertzCT>  (81) 
789.224183

>  <Chi0>  (81) 
15.742276

>  <Chi0n>  (81) 
12.289665

>  <Chi0v>  (81) 
13.106162

>  <Chi1>  (81) 
10.514874

>  <Chi1n>  (81) 
7.263911

>  <Chi1v>  (81) 
8.703974

>  <Chi2n>  (81) 
5.498039

>  <Chi2v>  (81) 
7.357015

>  <Chi3n>  (81) 
3.948845

>  <Chi3v>  (81) 
6.004789

>  <Chi4n>  (81) 
2.850234

>  <Chi4v>  (81) 
4.744512

>  <HallKierAlpha>  (81) 
-1.57

>  <Ipc>  (81) 
114954.624477

>  <Kappa1>  (81) 
15.330468

>  <Kappa2>  (81) 
5.905419

>  <Kappa3>  (81) 
2.597304

>  <LabuteASA>  (81) 
128.752544

>  <PEOE_VSA1>  (81) 
5.316789

>  <PEOE_VSA10>  (81) 
0.0

>  <PEOE_VSA11>  (81) 
5.817221

>  <PEOE_VSA12>  (81) 
10.023291

>  <PEOE_VSA13>  (81) 
0.0

>  <PEOE_VSA14>  (81) 
0.0

>  <PEOE_VSA2>  (81) 
4.983979

>  <PEOE_VSA3>  (81) 
12.808212

>  <PEOE_VSA4>  (81) 
4.305216

>  <PEOE_VSA5>  (81) 
0.0

>  <PEOE_VSA6>  (81) 
12.132734

>  <PEOE_VSA7>  (81) 
25.955682

>  <PEOE_VSA8>  (81) 
36.100646

>  <PEOE_VSA9>  (81) 
11.092327

>  <SMR_VSA1>  (81) 
12.808212

>  <SMR_VSA10>  (81) 
20.79574

>  <SMR_VSA2>  (81) 
0.0

>  <SMR_VSA3>  (81) 
14.605983

>  <SMR_VSA4>  (81) 
0.0

>  <SMR_VSA5>  (81) 
24.281883

>  <SMR_VSA6>  (81) 
19.634269

>  <SMR_VSA7>  (81) 
36.410009

>  <SMR_VSA8>  (81) 
0.0

>  <SMR_VSA9>  (81) 
0.0

>  <SlogP_VSA1>  (81) 
5.316789

>  <SlogP_VSA10>  (81) 
4.390415

>  <SlogP_VSA11>  (81) 
0.0

>  <SlogP_VSA12>  (81) 
0.0

>  <SlogP_VSA2>  (81) 
43.383102

>  <SlogP_VSA3>  (81) 
10.023291

>  <SlogP_VSA4>  (81) 
5.817221

>  <SlogP_VSA5>  (81) 
13.344559

>  <SlogP_VSA6>  (81) 
35.488272

>  <SlogP_VSA7>  (81) 
0.0

>  <SlogP_VSA8>  (81) 
10.772448

>  <SlogP_VSA9>  (81) 
0.0

>  <EState_VSA1>  (81) 
15.840512

>  <EState_VSA10>  (81) 
12.808212

>  <EState_VSA11>  (81) 
0.0

>  <EState_VSA2>  (81) 
16.323549

>  <EState_VSA3>  (81) 
18.475737

>  <EState_VSA4>  (81) 
19.162422

>  <EState_VSA5>  (81) 
16.568427

>  <EState_VSA6>  (81) 
12.132734

>  <EState_VSA7>  (81) 
6.923737

>  <EState_VSA8>  (81) 
10.300767

>  <EState_VSA9>  (81) 
0.0

>  <VSA_EState1>  (81) 
41.67918

>  <VSA_EState10>  (81) 
0.0

>  <VSA_EState2>  (81) 
3.797255

>  <VSA_EState3>  (81) 
3.809443

>  <VSA_EState4>  (81) 
0.0

>  <VSA_EState5>  (81) 
-0.613634

>  <VSA_EState6>  (81) 
4.577231

>  <VSA_EState7>  (81) 
3.261885

>  <VSA_EState8>  (81) 
3.663408

>  <VSA_EState9>  (81) 
-3.758102

>  <FractionCSP3>  (81) 
0.4

>  <HeavyAtomCount>  (81) 
22

>  <NHOHCount>  (81) 
1

>  <NOCount>  (81) 
5

>  <NumAliphaticCarbocycles>  (81) 
0

>  <NumAliphaticHeterocycles>  (81) 
1

>  <NumAliphaticRings>  (81) 
1

>  <NumAromaticCarbocycles>  (81) 
1

>  <NumAromaticHeterocycles>  (81) 
1

>  <NumAromaticRings>  (81) 
2

>  <NumHAcceptors>  (81) 
4

>  <NumHDonors>  (81) 
1

>  <NumHeteroatoms>  (81) 
7

>  <NumRotatableBonds>  (81) 
2

>  <NumSaturatedCarbocycles>  (81) 
0

>  <NumSaturatedHeterocycles>  (81) 
1

>  <NumSaturatedRings>  (81) 
1

>  <RingCount>  (81) 
3

>  <MolLogP>  (81) 
1.7464

>  <MolMR>  (81) 
82.5415

>  <fr_Al_COO>  (81) 
0

>  <fr_Al_OH>  (81) 
0

>  <fr_Al_OH_noTert>  (81) 
0

>  <fr_ArN>  (81) 
0

>  <fr_Ar_COO>  (81) 
0

>  <fr_Ar_N>  (81) 
1

>  <fr_Ar_NH>  (81) 
0

>  <fr_Ar_OH>  (81) 
0

>  <fr_COO>  (81) 
0

>  <fr_COO2>  (81) 
0

>  <fr_C_O>  (81) 
0

>  <fr_C_O_noCOO>  (81) 
0

>  <fr_C_S>  (81) 
0

>  <fr_HOCCN>  (81) 
0

>  <fr_Imine>  (81) 
0

>  <fr_NH0>  (81) 
2

>  <fr_NH1>  (81) 
1

>  <fr_NH2>  (81) 
0

>  <fr_N_O>  (81) 
0

>  <fr_Ndealkylation1>  (81) 
0

>  <fr_Ndealkylation2>  (81) 
0

>  <fr_Nhpyrrole>  (81) 
0

>  <fr_SH>  (81) 
0

>  <fr_aldehyde>  (81) 
0

>  <fr_alkyl_carbamate>  (81) 
0

>  <fr_alkyl_halide>  (81) 
0

>  <fr_allylic_oxid>  (81) 
0

>  <fr_amide>  (81) 
0

>  <fr_amidine>  (81) 
0

>  <fr_aniline>  (81) 
0

>  <fr_aryl_methyl>  (81) 
0

>  <fr_azide>  (81) 
0

>  <fr_azo>  (81) 
0

>  <fr_barbitur>  (81) 
0

>  <fr_benzene>  (81) 
1

>  <fr_benzodiazepine>  (81) 
0

>  <fr_bicyclic>  (81) 
1

>  <fr_diazo>  (81) 
0

>  <fr_dihydropyridine>  (81) 
0

>  <fr_epoxide>  (81) 
0

>  <fr_ester>  (81) 
0

>  <fr_ether>  (81) 
0

>  <fr_furan>  (81) 
0

>  <fr_guanido>  (81) 
0

>  <fr_halogen>  (81) 
1

>  <fr_hdrzine>  (81) 
0

>  <fr_hdrzone>  (81) 
0

>  <fr_imidazole>  (81) 
0

>  <fr_imide>  (81) 
0

>  <fr_isocyan>  (81) 
0

>  <fr_isothiocyan>  (81) 
0

>  <fr_ketone>  (81) 
0

>  <fr_ketone_Topliss>  (81) 
0

>  <fr_lactam>  (81) 
0

>  <fr_lactone>  (81) 
0

>  <fr_methoxy>  (81) 
0

>  <fr_morpholine>  (81) 
0

>  <fr_nitrile>  (81) 
0

>  <fr_nitro>  (81) 
0

>  <fr_nitro_arom>  (81) 
0

>  <fr_nitro_arom_nonortho>  (81) 
0

>  <fr_nitroso>  (81) 
0

>  <fr_oxazole>  (81) 
0

>  <fr_oxime>  (81) 
0

>  <fr_para_hydroxylation>  (81) 
0

>  <fr_phenol>  (81) 
0

>  <fr_phenol_noOrthoHbond>  (81) 
0

>  <fr_phos_acid>  (81) 
0

>  <fr_phos_ester>  (81) 
0

>  <fr_piperdine>  (81) 
0

>  <fr_piperzine>  (81) 
0

>  <fr_priamide>  (81) 
0

>  <fr_prisulfonamd>  (81) 
0

>  <fr_pyridine>  (81) 
1

>  <fr_quatN>  (81) 
0

>  <fr_sulfide>  (81) 
0

>  <fr_sulfonamd>  (81) 
1

>  <fr_sulfone>  (81) 
0

>  <fr_term_acetylene>  (81) 
0

>  <fr_tetrazole>  (81) 
0

>  <fr_thiazole>  (81) 
0

>  <fr_thiocyan>  (81) 
0

>  <fr_thiophene>  (81) 
0

>  <fr_unbrch_alkane>  (81) 
0

>  <fr_urea>  (81) 
0

>  <NP_Likeness>  (81) 
-1.094039

$$$$
nan
     RDKit          3D

  0  0  0  0  0  0  0  0  0  0999 V3000
M  V30 BEGIN CTAB
M  V30 COUNTS 73 77 0 0 0
M  V30 BEGIN ATOM
M  V30 1 C 7.270679 1.603158 5.033253 0
M  V30 2 O 6.426676 1.454796 3.903637 0
M  V30 3 C 5.734773 2.475339 3.298577 0
M  V30 4 O 5.890922 3.626215 3.822454 0
M  V30 5 C 4.880761 2.258926 2.136412 0
M  V30 6 C 4.698987 1.021981 1.549872 0
M  V30 7 C 3.870437 0.864170 0.436889 0
M  V30 8 C 3.229421 1.959992 -0.079748 0
M  V30 9 C 3.378585 3.212839 0.473014 0
M  V30 10 C 4.209079 3.341424 1.580455 0
M  V30 11 N 2.578291 4.139627 -0.245142 0
M  V30 12 C 1.896224 3.458946 -1.290600 0
M  V30 13 O 1.110298 3.945877 -2.120208 0
M  V30 14 C 2.311063 2.043858 -1.196961 0
M  V30 15 C 1.976846 1.079594 -2.029183 0
M  V30 16 N 1.038312 1.433806 -3.029408 0
M  V30 17 C -0.187728 0.758276 -2.777999 0
M  V30 18 C -0.769244 -0.220505 -3.557125 0
M  V30 19 C -1.959461 -0.816277 -3.198261 0
M  V30 20 C -2.635858 -0.471903 -2.046694 0
M  V30 21 N -3.864799 -0.999196 -1.564979 0
M  V30 22 C -5.152022 -0.437831 -1.854364 0
M  V30 23 C -3.575691 -2.137989 -0.781591 0
M  V30 24 O -2.434530 -1.757340 -1.202633 0
M  V30 25 C -3.370886 -3.310255 0.036693 0
M  V30 26 N -4.532635 -3.883066 0.619785 0
M  V30 27 C -4.293172 -5.091499 1.341591 0
M  V30 28 C -4.296891 -4.733600 2.831509 0
M  V30 29 N -5.682701 -4.473434 3.178111 0
M  V30 30 C -5.856603 -3.800116 4.425859 0
M  V30 31 C -6.377507 -3.778640 2.124273 0
M  V30 32 C -5.438077 -2.982043 1.244197 0
M  V30 33 C -2.079209 0.516789 -1.229349 0
M  V30 34 C -0.878781 1.093586 -1.624752 0
M  V30 35 C 2.556928 -0.237821 -2.090407 0
M  V30 36 C 2.055044 -1.513228 -1.939476 0
M  V30 37 C 2.869339 -2.603652 -2.154760 0
M  V30 38 C 4.187542 -2.490391 -2.520736 0
M  V30 39 C 4.711014 -1.230894 -2.677761 0
M  V30 40 C 3.913121 -0.100186 -2.467738 0
M  V30 41 H 7.650148 2.634920 5.050472 0
M  V30 42 H 8.114073 0.859225 4.950957 0
M  V30 43 H 6.688646 1.347313 5.936430 0
M  V30 44 H 5.265040 0.241397 2.055852 0
M  V30 45 H 3.846615 -0.150954 0.166249 0
M  V30 46 H 4.300970 4.341624 1.984242 0
M  V30 47 H 2.499286 5.159396 -0.044831 0
M  V30 48 H 1.283334 2.093768 -3.800520 0
M  V30 49 H -0.248313 -0.492915 -4.452497 0
M  V30 50 H -2.426346 -1.580018 -3.795191 0
M  V30 51 H -5.930130 -0.640342 -1.096360 0
M  V30 52 H -5.484417 -0.793737 -2.871548 0
M  V30 53 H -5.055449 0.686423 -1.851449 0
M  V30 54 H -2.633659 -3.129148 0.874087 0
M  V30 55 H -2.889385 -4.110977 -0.576680 0
M  V30 56 H -5.059523 -5.826415 1.097701 0
M  V30 57 H -3.307112 -5.501164 1.048527 0
M  V30 58 H -3.955591 -5.597796 3.392556 0
M  V30 59 H -3.672108 -3.830996 2.973888 0
M  V30 60 H -6.929300 -3.636566 4.609715 0
M  V30 61 H -5.499708 -4.430553 5.270461 0
M  V30 62 H -5.256864 -2.848726 4.445966 0
M  V30 63 H -6.856621 -4.565127 1.476140 0
M  V30 64 H -7.199053 -3.148687 2.523734 0
M  V30 65 H -4.837784 -2.326162 1.931996 0
M  V30 66 H -5.949455 -2.378703 0.505842 0
M  V30 67 H -2.560893 0.839659 -0.302203 0
M  V30 68 H -0.486973 1.856903 -0.956263 0
M  V30 69 H 1.024269 -1.464424 -1.652310 0
M  V30 70 H 2.371552 -3.556648 -2.008072 0
M  V30 71 H 4.785518 -3.387006 -2.677314 0
M  V30 72 H 5.752156 -1.198432 -2.966123 0
M  V30 73 H 4.489262 0.809910 -2.637032 0
M  V30 END ATOM
M  V30 BEGIN BOND
M  V30 1 1 1 2
M  V30 2 1 2 3
M  V30 3 2 3 4
M  V30 4 1 3 5
M  V30 5 2 5 6
M  V30 6 1 6 7
M  V30 7 2 7 8
M  V30 8 1 8 9
M  V30 9 2 9 10
M  V30 10 1 9 11
M  V30 11 1 11 12
M  V30 12 2 12 13
M  V30 13 1 12 14
M  V30 14 2 14 15
M  V30 15 1 15 16
M  V30 16 1 16 17
M  V30 17 2 17 18
M  V30 18 1 18 19
M  V30 19 2 19 20
M  V30 20 1 20 21
M  V30 21 1 21 22
M  V30 22 1 21 23
M  V30 23 2 23 24
M  V30 24 1 23 25
M  V30 25 1 25 26
M  V30 26 1 26 27
M  V30 27 1 27 28
M  V30 28 1 28 29
M  V30 29 1 29 30
M  V30 30 1 29 31
M  V30 31 1 31 32
M  V30 32 1 20 33
M  V30 33 2 33 34
M  V30 34 1 15 35
M  V30 35 2 35 36
M  V30 36 1 36 37
M  V30 37 2 37 38
M  V30 38 1 38 39
M  V30 39 2 39 40
M  V30 40 1 10 5
M  V30 41 1 34 17
M  V30 42 1 40 35
M  V30 43 1 14 8
M  V30 44 1 32 26
M  V30 45 1 1 41
M  V30 46 1 1 42
M  V30 47 1 1 43
M  V30 48 1 6 44
M  V30 49 1 7 45
M  V30 50 1 10 46
M  V30 51 1 11 47
M  V30 52 1 16 48
M  V30 53 1 18 49
M  V30 54 1 19 50
M  V30 55 1 22 51
M  V30 56 1 22 52
M  V30 57 1 22 53
M  V30 58 1 25 54
M  V30 59 1 25 55
M  V30 60 1 27 56
M  V30 61 1 27 57
M  V30 62 1 28 58
M  V30 63 1 28 59
M  V30 64 1 30 60
M  V30 65 1 30 61
M  V30 66 1 30 62
M  V30 67 1 31 63
M  V30 68 1 31 64
M  V30 69 1 32 65
M  V30 70 1 32 66
M  V30 71 1 33 67
M  V30 72 1 34 68
M  V30 73 1 36 69
M  V30 74 1 37 70
M  V30 75 1 38 71
M  V30 76 1 39 72
M  V30 77 1 40 73
M  V30 END BOND
M  V30 END CTAB
M  END
>  <Dataset>  (82) 
PKIs

>  <Ligand_Instance>  (82) 
nan

>  <PDB_ID>  (82) 
nan

>  <Standardized_SMILES>  (82) 
COC(=O)c1ccc2c(c1)NC(=O)/C2=C(\Nc1ccc(N(C)C(=O)CN2CCN(C)CC2)cc1)c1ccccc1

>  <Name>  (82) 
Nintedanib

>  <Pocket>  (82) 
nan

>  <ATP_Site>  (82) 
nan

>  <Peripheral>  (82) 
nan

>  <Num_H_Atoms_ProtBoundConf>  (82) 
nan

>  <Num_Resolved_Atoms>  (82) 
nan

>  <Num_Not_Resolved_Atoms>  (82) 
nan

>  <2D_Mol_H>  (82) 
<rdkit.Chem.rdchem.Mol object at 0x72a239141bd0>

>  <MW>  (82) 
539.636

>  <HBA>  (82) 
7

>  <HBD>  (82) 
2

>  <LogP>  (82) 
3.6159

>  <NRB>  (82) 
10

>  <TPSA>  (82) 
94.22

>  <Num_Heavy_Atoms>  (82) 
40

>  <Ro5>  (82) 
[False, True, True, True, True, True]

>  <Ro5_Fulfilled>  (82) 
True

>  <Ro3>  (82) 
[False, False, True, False]

>  <Ro3_Fulfilled>  (82) 
False

>  <Fsp3>  (82) 
0.258065

>  <Fsp3_0.42>  (82) 
False

>  <Fsp3_0.45>  (82) 
False

>  <Stereogenic_Carbons>  (82) 
0

>  <C_Atoms>  (82) 
31

>  <FCStereo>  (82) 
0.0

>  <SPS>  (82) 
665

>  <nSPS>  (82) 
16.625

>  <PBF>  (82) 
1.463993

>  <PBF_0.6>  (82) 
True

>  <nPBF>  (82) 
0.0366

>  <nPBF_0.016>  (82) 
True

>  <PMI1>  (82) 
4669.272311

>  <PMI2>  (82) 
12562.47832

>  <PMI3>  (82) 
14352.34235

>  <NPR1>  (82) 
0.325332

>  <NPR2>  (82) 
0.875291

>  <Sum_NPR>  (82) 
1.200623

>  <Sum_NPR_1.07>  (82) 
True

>  <Sum_NPR_1.2>  (82) 
True

>  <MaxAbsEStateIndex>  (82) 
13.210887

>  <MaxEStateIndex>  (82) 
13.210887

>  <MinAbsEStateIndex>  (82) 
0.044363

>  <MinEStateIndex>  (82) 
-0.469483

>  <qed>  (82) 
0.349979

>  <MolWt>  (82) 
539.636

>  <HeavyAtomMolWt>  (82) 
506.372

>  <ExactMolWt>  (82) 
539.253255

>  <NumValenceElectrons>  (82) 
206

>  <NumRadicalElectrons>  (82) 
0

>  <MaxPartialCharge>  (82) 
0.337421

>  <MinPartialCharge>  (82) 
-0.465417

>  <MaxAbsPartialCharge>  (82) 
0.465417

>  <MinAbsPartialCharge>  (82) 
0.337421

>  <FpDensityMorgan1>  (82) 
0.95

>  <FpDensityMorgan2>  (82) 
1.65

>  <FpDensityMorgan3>  (82) 
2.325

>  <BCUT2D_MWHI>  (82) 
16.523355

>  <BCUT2D_MWLOW>  (82) 
9.986905

>  <BCUT2D_CHGHI>  (82) 
2.292513

>  <BCUT2D_CHGLO>  (82) 
-2.323966

>  <BCUT2D_LOGPHI>  (82) 
2.379361

>  <BCUT2D_LOGPLOW>  (82) 
-2.479851

>  <BCUT2D_MRHI>  (82) 
6.372581

>  <BCUT2D_MRLOW>  (82) 
-0.119448

>  <AvgIpc>  (82) 
3.311361

>  <BalabanJ>  (82) 
1.397276

>  <BertzCT>  (82) 
1444.307303

>  <Chi0>  (82) 
28.225039

>  <Chi0n>  (82) 
22.938371

>  <Chi0v>  (82) 
22.938371

>  <Chi1>  (82) 
19.333739

>  <Chi1n>  (82) 
13.221163

>  <Chi1v>  (82) 
13.221163

>  <Chi2n>  (82) 
10.026148

>  <Chi2v>  (82) 
10.026148

>  <Chi3n>  (82) 
7.350536

>  <Chi3v>  (82) 
7.350536

>  <Chi4n>  (82) 
4.909685

>  <Chi4v>  (82) 
4.909685

>  <HallKierAlpha>  (82) 
-4.47

>  <Ipc>  (82) 
1276533492.318185

>  <Kappa1>  (82) 
27.110326

>  <Kappa2>  (82) 
11.729377

>  <Kappa3>  (82) 
5.753478

>  <LabuteASA>  (82) 
233.565911

>  <PEOE_VSA1>  (82) 
25.17026

>  <PEOE_VSA10>  (82) 
0.0

>  <PEOE_VSA11>  (82) 
0.0

>  <PEOE_VSA12>  (82) 
5.90718

>  <PEOE_VSA13>  (82) 
5.90718

>  <PEOE_VSA14>  (82) 
5.969305

>  <PEOE_VSA2>  (82) 
14.488984

>  <PEOE_VSA3>  (82) 
4.794537

>  <PEOE_VSA4>  (82) 
0.0

>  <PEOE_VSA5>  (82) 
0.0

>  <PEOE_VSA6>  (82) 
36.398202

>  <PEOE_VSA7>  (82) 
49.009326

>  <PEOE_VSA8>  (82) 
50.164922

>  <PEOE_VSA9>  (82) 
36.175536

>  <SMR_VSA1>  (82) 
19.120475

>  <SMR_VSA10>  (82) 
46.115967

>  <SMR_VSA2>  (82) 
0.0

>  <SMR_VSA3>  (82) 
9.799819

>  <SMR_VSA4>  (82) 
0.0

>  <SMR_VSA5>  (82) 
0.0

>  <SMR_VSA6>  (82) 
69.46241

>  <SMR_VSA7>  (82) 
89.486759

>  <SMR_VSA8>  (82) 
0.0

>  <SMR_VSA9>  (82) 
0.0

>  <SlogP_VSA1>  (82) 
15.533487

>  <SlogP_VSA10>  (82) 
17.062159

>  <SlogP_VSA11>  (82) 
0.0

>  <SlogP_VSA12>  (82) 
0.0

>  <SlogP_VSA2>  (82) 
81.512408

>  <SlogP_VSA3>  (82) 
14.325937

>  <SlogP_VSA4>  (82) 
0.0

>  <SlogP_VSA5>  (82) 
21.484892

>  <SlogP_VSA6>  (82) 
72.796405

>  <SlogP_VSA7>  (82) 
0.0

>  <SlogP_VSA8>  (82) 
11.270144

>  <SlogP_VSA9>  (82) 
0.0

>  <EState_VSA1>  (82) 
5.969305

>  <EState_VSA10>  (82) 
14.383612

>  <EState_VSA11>  (82) 
0.0

>  <EState_VSA2>  (82) 
11.814359

>  <EState_VSA3>  (82) 
34.62919

>  <EState_VSA4>  (82) 
43.11725

>  <EState_VSA5>  (82) 
7.109798

>  <EState_VSA6>  (82) 
30.146683

>  <EState_VSA7>  (82) 
54.597304

>  <EState_VSA8>  (82) 
27.481069

>  <EState_VSA9>  (82) 
4.736863

>  <VSA_EState1>  (82) 
4.823847

>  <VSA_EState10>  (82) 
0.0

>  <VSA_EState2>  (82) 
44.28401

>  <VSA_EState3>  (82) 
6.312968

>  <VSA_EState4>  (82) 
5.097443

>  <VSA_EState5>  (82) 
-0.694355

>  <VSA_EState6>  (82) 
22.209925

>  <VSA_EState7>  (82) 
0.0

>  <VSA_EState8>  (82) 
4.088362

>  <VSA_EState9>  (82) 
5.211134

>  <FractionCSP3>  (82) 
0.258065

>  <HeavyAtomCount>  (82) 
40

>  <NHOHCount>  (82) 
2

>  <NOCount>  (82) 
9

>  <NumAliphaticCarbocycles>  (82) 
0

>  <NumAliphaticHeterocycles>  (82) 
2

>  <NumAliphaticRings>  (82) 
2

>  <NumAromaticCarbocycles>  (82) 
3

>  <NumAromaticHeterocycles>  (82) 
0

>  <NumAromaticRings>  (82) 
3

>  <NumHAcceptors>  (82) 
7

>  <NumHDonors>  (82) 
2

>  <NumHeteroatoms>  (82) 
9

>  <NumRotatableBonds>  (82) 
7

>  <NumSaturatedCarbocycles>  (82) 
0

>  <NumSaturatedHeterocycles>  (82) 
1

>  <NumSaturatedRings>  (82) 
1

>  <RingCount>  (82) 
5

>  <MolLogP>  (82) 
3.6159

>  <MolMR>  (82) 
157.0789

>  <fr_Al_COO>  (82) 
0

>  <fr_Al_OH>  (82) 
0

>  <fr_Al_OH_noTert>  (82) 
0

>  <fr_ArN>  (82) 
0

>  <fr_Ar_COO>  (82) 
0

>  <fr_Ar_N>  (82) 
0

>  <fr_Ar_NH>  (82) 
0

>  <fr_Ar_OH>  (82) 
0

>  <fr_COO>  (82) 
0

>  <fr_COO2>  (82) 
0

>  <fr_C_O>  (82) 
3

>  <fr_C_O_noCOO>  (82) 
3

>  <fr_C_S>  (82) 
0

>  <fr_HOCCN>  (82) 
0

>  <fr_Imine>  (82) 
0

>  <fr_NH0>  (82) 
3

>  <fr_NH1>  (82) 
2

>  <fr_NH2>  (82) 
0

>  <fr_N_O>  (82) 
0

>  <fr_Ndealkylation1>  (82) 
2

>  <fr_Ndealkylation2>  (82) 
0

>  <fr_Nhpyrrole>  (82) 
0

>  <fr_SH>  (82) 
0

>  <fr_aldehyde>  (82) 
0

>  <fr_alkyl_carbamate>  (82) 
0

>  <fr_alkyl_halide>  (82) 
0

>  <fr_allylic_oxid>  (82) 
0

>  <fr_amide>  (82) 
2

>  <fr_amidine>  (82) 
0

>  <fr_aniline>  (82) 
3

>  <fr_aryl_methyl>  (82) 
0

>  <fr_azide>  (82) 
0

>  <fr_azo>  (82) 
0

>  <fr_barbitur>  (82) 
0

>  <fr_benzene>  (82) 
3

>  <fr_benzodiazepine>  (82) 
0

>  <fr_bicyclic>  (82) 
1

>  <fr_diazo>  (82) 
0

>  <fr_dihydropyridine>  (82) 
0

>  <fr_epoxide>  (82) 
0

>  <fr_ester>  (82) 
1

>  <fr_ether>  (82) 
1

>  <fr_furan>  (82) 
0

>  <fr_guanido>  (82) 
0

>  <fr_halogen>  (82) 
0

>  <fr_hdrzine>  (82) 
0

>  <fr_hdrzone>  (82) 
0

>  <fr_imidazole>  (82) 
0

>  <fr_imide>  (82) 
0

>  <fr_isocyan>  (82) 
0

>  <fr_isothiocyan>  (82) 
0

>  <fr_ketone>  (82) 
0

>  <fr_ketone_Topliss>  (82) 
0

>  <fr_lactam>  (82) 
0

>  <fr_lactone>  (82) 
0

>  <fr_methoxy>  (82) 
1

>  <fr_morpholine>  (82) 
0

>  <fr_nitrile>  (82) 
0

>  <fr_nitro>  (82) 
0

>  <fr_nitro_arom>  (82) 
0

>  <fr_nitro_arom_nonortho>  (82) 
0

>  <fr_nitroso>  (82) 
0

>  <fr_oxazole>  (82) 
0

>  <fr_oxime>  (82) 
0

>  <fr_para_hydroxylation>  (82) 
0

>  <fr_phenol>  (82) 
0

>  <fr_phenol_noOrthoHbond>  (82) 
0

>  <fr_phos_acid>  (82) 
0

>  <fr_phos_ester>  (82) 
0

>  <fr_piperdine>  (82) 
0

>  <fr_piperzine>  (82) 
1

>  <fr_priamide>  (82) 
0

>  <fr_prisulfonamd>  (82) 
0

>  <fr_pyridine>  (82) 
0

>  <fr_quatN>  (82) 
0

>  <fr_sulfide>  (82) 
0

>  <fr_sulfonamd>  (82) 
0

>  <fr_sulfone>  (82) 
0

>  <fr_term_acetylene>  (82) 
0

>  <fr_tetrazole>  (82) 
0

>  <fr_thiazole>  (82) 
0

>  <fr_thiocyan>  (82) 
0

>  <fr_thiophene>  (82) 
0

>  <fr_unbrch_alkane>  (82) 
0

>  <fr_urea>  (82) 
0

>  <NP_Likeness>  (82) 
-1.128102

$$$$
nan
     RDKit          3D

  0  0  0  0  0  0  0  0  0  0999 V3000
M  V30 BEGIN CTAB
M  V30 COUNTS 59 62 0 0 0
M  V30 BEGIN ATOM
M  V30 1 C 4.292612 -0.903594 3.958333 0
M  V30 2 N 4.632462 0.094808 2.978042 0
M  V30 3 C 3.723399 1.215720 3.149548 0
M  V30 4 C 4.607304 -0.395910 1.614158 0
M  V30 5 C 3.201514 -0.713597 1.202789 0
M  V30 6 C 2.685091 -0.079245 0.180473 0
M  V30 7 C 1.310968 -0.462032 -0.137965 0
M  V30 8 O 0.709016 -1.347988 0.555220 0
M  V30 9 N 0.488822 0.057480 -1.196342 0
M  V30 10 C -0.770142 -0.638090 -1.088138 0
M  V30 11 C -1.685208 0.015614 -0.255267 0
M  V30 12 C -2.933579 -0.527425 -0.048712 0
M  V30 13 C -3.859659 0.087921 0.766051 0
M  V30 14 N -3.507066 1.309897 1.396444 0
M  V30 15 C -2.880340 1.665798 2.618666 0
M  V30 16 C -2.743270 3.000185 2.901523 0
M  V30 17 C -2.118781 3.273322 4.111045 0
M  V30 18 C -1.661042 2.332822 4.982156 0
M  V30 19 F -1.061737 2.722271 6.144224 0
M  V30 20 C -1.837236 0.991495 4.623872 0
M  V30 21 Cl -1.232472 -0.192287 5.774944 0
M  V30 22 C -2.447981 0.648560 3.439881 0
M  V30 23 N -5.051667 -0.530065 0.900681 0
M  V30 24 C -5.346192 -1.689428 0.281298 0
M  V30 25 N -4.434189 -2.279690 -0.511018 0
M  V30 26 C -3.225452 -1.713394 -0.686538 0
M  V30 27 C -2.335850 -2.366461 -1.507751 0
M  V30 28 C -1.086460 -1.833195 -1.721208 0
M  V30 29 O -0.049088 -2.292640 -2.483012 0
M  V30 30 C -0.043003 -3.469143 -3.241621 0 CFG=1
M  V30 31 C 0.151918 -3.144667 -4.730513 0
M  V30 32 C 0.825638 -4.425698 -5.175805 0
M  V30 33 O 1.757576 -4.655394 -4.168449 0
M  V30 34 C 1.157510 -4.312009 -2.969631 0
M  V30 35 H 4.500560 -1.939441 3.639114 0
M  V30 36 H 3.186017 -0.821341 4.140008 0
M  V30 37 H 4.776269 -0.641466 4.925771 0
M  V30 38 H 2.719750 1.002464 2.725379 0
M  V30 39 H 3.597264 1.380378 4.227828 0
M  V30 40 H 4.159808 2.085813 2.623571 0
M  V30 41 H 5.147257 -1.373255 1.642839 0
M  V30 42 H 5.098316 0.317287 0.954386 0
M  V30 43 H 2.726825 -1.468176 1.815234 0
M  V30 44 H 3.175569 0.660784 -0.405736 0
M  V30 45 H 0.962217 0.797093 -1.791183 0
M  V30 46 H -1.469214 0.945272 0.250453 0
M  V30 47 H -3.847025 1.990658 0.683789 0
M  V30 48 H -3.107637 3.745207 2.208842 0
M  V30 49 H -1.985146 4.328895 4.383699 0
M  V30 50 H -2.565714 -0.411122 3.197471 0
M  V30 51 H -6.352443 -2.036581 0.508337 0
M  V30 52 H -2.505852 -3.294970 -2.033018 0
M  V30 53 H -0.995090 -4.059603 -3.162455 0
M  V30 54 H 0.856715 -2.306860 -4.841486 0
M  V30 55 H -0.833972 -2.990596 -5.211997 0
M  V30 56 H 0.071870 -5.252090 -5.234165 0
M  V30 57 H 1.272298 -4.207074 -6.160232 0
M  V30 58 H 1.877982 -3.693813 -2.361977 0
M  V30 59 H 0.968827 -5.216342 -2.372305 0
M  V30 END ATOM
M  V30 BEGIN BOND
M  V30 1 1 1 2
M  V30 2 1 2 3
M  V30 3 1 2 4
M  V30 4 1 4 5
M  V30 5 2 5 6
M  V30 6 1 6 7
M  V30 7 2 7 8
M  V30 8 1 7 9
M  V30 9 1 9 10
M  V30 10 2 10 11
M  V30 11 1 11 12
M  V30 12 2 12 13
M  V30 13 1 13 14
M  V30 14 1 14 15
M  V30 15 2 15 16
M  V30 16 1 16 17
M  V30 17 2 17 18
M  V30 18 1 18 19
M  V30 19 1 18 20
M  V30 20 1 20 21
M  V30 21 2 20 22
M  V30 22 1 13 23
M  V30 23 2 23 24
M  V30 24 1 24 25
M  V30 25 2 25 26
M  V30 26 1 26 27
M  V30 27 2 27 28
M  V30 28 1 28 29
M  V30 29 1 29 30
M  V30 30 1 30 31
M  V30 31 1 31 32
M  V30 32 1 32 33
M  V30 33 1 33 34
M  V30 34 1 28 10
M  V30 35 1 34 30
M  V30 36 1 26 12
M  V30 37 1 22 15
M  V30 38 1 1 35
M  V30 39 1 1 36
M  V30 40 1 1 37
M  V30 41 1 3 38
M  V30 42 1 3 39
M  V30 43 1 3 40
M  V30 44 1 4 41
M  V30 45 1 4 42
M  V30 46 1 5 43
M  V30 47 1 6 44
M  V30 48 1 9 45
M  V30 49 1 11 46
M  V30 50 1 14 47
M  V30 51 1 16 48
M  V30 52 1 17 49
M  V30 53 1 22 50
M  V30 54 1 24 51
M  V30 55 1 27 52
M  V30 56 1 30 53 CFG=3
M  V30 57 1 31 54
M  V30 58 1 31 55
M  V30 59 1 32 56
M  V30 60 1 32 57
M  V30 61 1 34 58
M  V30 62 1 34 59
M  V30 END BOND
M  V30 END CTAB
M  END
>  <Dataset>  (83) 
PKIs

>  <Ligand_Instance>  (83) 
nan

>  <PDB_ID>  (83) 
nan

>  <Standardized_SMILES>  (83) 
CN(C)C/C=C/C(=O)Nc1cc2c(Nc3ccc(F)c(Cl)c3)ncnc2cc1O[C@H]1CCOC1

>  <Name>  (83) 
Afatinib

>  <Pocket>  (83) 
nan

>  <ATP_Site>  (83) 
nan

>  <Peripheral>  (83) 
nan

>  <Num_H_Atoms_ProtBoundConf>  (83) 
nan

>  <Num_Resolved_Atoms>  (83) 
nan

>  <Num_Not_Resolved_Atoms>  (83) 
nan

>  <2D_Mol_H>  (83) 
<rdkit.Chem.rdchem.Mol object at 0x72a239141cb0>

>  <MW>  (83) 
485.947

>  <HBA>  (83) 
7

>  <HBD>  (83) 
2

>  <LogP>  (83) 
4.3899

>  <NRB>  (83) 
10

>  <TPSA>  (83) 
88.61

>  <Num_Heavy_Atoms>  (83) 
34

>  <Ro5>  (83) 
[True, True, True, True, True, True]

>  <Ro5_Fulfilled>  (83) 
True

>  <Ro3>  (83) 
[False, False, True, False]

>  <Ro3_Fulfilled>  (83) 
False

>  <Fsp3>  (83) 
0.291667

>  <Fsp3_0.42>  (83) 
False

>  <Fsp3_0.45>  (83) 
False

>  <Stereogenic_Carbons>  (83) 
1

>  <C_Atoms>  (83) 
24

>  <FCStereo>  (83) 
0.041667

>  <SPS>  (83) 
539

>  <nSPS>  (83) 
15.852941

>  <PBF>  (83) 
1.005788

>  <PBF_0.6>  (83) 
True

>  <nPBF>  (83) 
0.029582

>  <nPBF_0.016>  (83) 
True

>  <PMI1>  (83) 
3985.349321

>  <PMI2>  (83) 
6790.430444

>  <PMI3>  (83) 
9718.176968

>  <NPR1>  (83) 
0.410092

>  <NPR2>  (83) 
0.698735

>  <Sum_NPR>  (83) 
1.108827

>  <Sum_NPR_1.07>  (83) 
True

>  <Sum_NPR_1.2>  (83) 
False

>  <MaxAbsEStateIndex>  (83) 
13.552448

>  <MaxEStateIndex>  (83) 
13.552448

>  <MinAbsEStateIndex>  (83) 
0.004357

>  <MinEStateIndex>  (83) 
-0.509477

>  <qed>  (83) 
0.457293

>  <MolWt>  (83) 
485.947

>  <HeavyAtomMolWt>  (83) 
460.747

>  <ExactMolWt>  (83) 
485.162996

>  <NumValenceElectrons>  (83) 
178

>  <NumRadicalElectrons>  (83) 
0

>  <MaxPartialCharge>  (83) 
0.247689

>  <MinPartialCharge>  (83) 
-0.485668

>  <MaxAbsPartialCharge>  (83) 
0.485668

>  <MinAbsPartialCharge>  (83) 
0.247689

>  <FpDensityMorgan1>  (83) 
1.323529

>  <FpDensityMorgan2>  (83) 
2.176471

>  <FpDensityMorgan3>  (83) 
2.911765

>  <BCUT2D_MWHI>  (83) 
35.495692

>  <BCUT2D_MWLOW>  (83) 
10.143621

>  <BCUT2D_CHGHI>  (83) 
2.204671

>  <BCUT2D_CHGLO>  (83) 
-2.174656

>  <BCUT2D_LOGPHI>  (83) 
2.346631

>  <BCUT2D_LOGPLOW>  (83) 
-2.179152

>  <BCUT2D_MRHI>  (83) 
6.305854

>  <BCUT2D_MRLOW>  (83) 
-0.111489

>  <AvgIpc>  (83) 
3.298587

>  <BalabanJ>  (83) 
1.680261

>  <BertzCT>  (83) 
1214.677845

>  <Chi0>  (83) 
24.078775

>  <Chi0n>  (83) 
18.846894

>  <Chi0v>  (83) 
19.602823

>  <Chi1>  (83) 
16.38505

>  <Chi1n>  (83) 
10.763019

>  <Chi1v>  (83) 
11.140984

>  <Chi2n>  (83) 
8.098993

>  <Chi2v>  (83) 
8.506193

>  <Chi3n>  (83) 
5.098209

>  <Chi3v>  (83) 
5.387855

>  <Chi4n>  (83) 
3.419666

>  <Chi4v>  (83) 
3.600209

>  <HallKierAlpha>  (83) 
-3.27

>  <Ipc>  (83) 
52867959.298676

>  <Kappa1>  (83) 
23.873698

>  <Kappa2>  (83) 
10.771676

>  <Kappa3>  (83) 
5.990027

>  <LabuteASA>  (83) 
201.280417

>  <PEOE_VSA1>  (83) 
25.007213

>  <PEOE_VSA10>  (83) 
29.815882

>  <PEOE_VSA11>  (83) 
0.0

>  <PEOE_VSA12>  (83) 
5.90718

>  <PEOE_VSA13>  (83) 
0.0

>  <PEOE_VSA14>  (83) 
0.0

>  <PEOE_VSA2>  (83) 
4.794537

>  <PEOE_VSA3>  (83) 
14.358372

>  <PEOE_VSA4>  (83) 
0.0

>  <PEOE_VSA5>  (83) 
0.0

>  <PEOE_VSA6>  (83) 
17.67696

>  <PEOE_VSA7>  (83) 
38.360812

>  <PEOE_VSA8>  (83) 
36.181576

>  <PEOE_VSA9>  (83) 
29.440484

>  <SMR_VSA1>  (83) 
18.658678

>  <SMR_VSA10>  (83) 
45.60368

>  <SMR_VSA2>  (83) 
0.0

>  <SMR_VSA3>  (83) 
14.867867

>  <SMR_VSA4>  (83) 
0.0

>  <SMR_VSA5>  (83) 
12.524788

>  <SMR_VSA6>  (83) 
44.487442

>  <SMR_VSA7>  (83) 
59.65105

>  <SMR_VSA8>  (83) 
0.0

>  <SMR_VSA9>  (83) 
5.749512

>  <SlogP_VSA1>  (83) 
15.37044

>  <SlogP_VSA10>  (83) 
21.58305

>  <SlogP_VSA11>  (83) 
5.749512

>  <SlogP_VSA12>  (83) 
11.60094

>  <SlogP_VSA2>  (83) 
60.732877

>  <SlogP_VSA3>  (83) 
9.5314

>  <SlogP_VSA4>  (83) 
5.817221

>  <SlogP_VSA5>  (83) 
6.420822

>  <SlogP_VSA6>  (83) 
48.811196

>  <SlogP_VSA7>  (83) 
5.022633

>  <SlogP_VSA8>  (83) 
10.902925

>  <SlogP_VSA9>  (83) 
0.0

>  <EState_VSA1>  (83) 
5.817221

>  <EState_VSA10>  (83) 
9.184952

>  <EState_VSA11>  (83) 
0.0

>  <EState_VSA2>  (83) 
17.033779

>  <EState_VSA3>  (83) 
53.603592

>  <EState_VSA4>  (83) 
6.420822

>  <EState_VSA5>  (83) 
24.536074

>  <EState_VSA6>  (83) 
24.275121

>  <EState_VSA7>  (83) 
18.995254

>  <EState_VSA8>  (83) 
20.601534

>  <EState_VSA9>  (83) 
21.074666

>  <VSA_EState1>  (83) 
25.101191

>  <VSA_EState10>  (83) 
5.912267

>  <VSA_EState2>  (83) 
23.204317

>  <VSA_EState3>  (83) 
6.673181

>  <VSA_EState4>  (83) 
1.654352

>  <VSA_EState5>  (83) 
0.170437

>  <VSA_EState6>  (83) 
7.823316

>  <VSA_EState7>  (83) 
5.318234

>  <VSA_EState8>  (83) 
1.745829

>  <VSA_EState9>  (83) 
3.841321

>  <FractionCSP3>  (83) 
0.291667

>  <HeavyAtomCount>  (83) 
34

>  <NHOHCount>  (83) 
2

>  <NOCount>  (83) 
8

>  <NumAliphaticCarbocycles>  (83) 
0

>  <NumAliphaticHeterocycles>  (83) 
1

>  <NumAliphaticRings>  (83) 
1

>  <NumAromaticCarbocycles>  (83) 
2

>  <NumAromaticHeterocycles>  (83) 
1

>  <NumAromaticRings>  (83) 
3

>  <NumHAcceptors>  (83) 
7

>  <NumHDonors>  (83) 
2

>  <NumHeteroatoms>  (83) 
10

>  <NumRotatableBonds>  (83) 
8

>  <NumSaturatedCarbocycles>  (83) 
0

>  <NumSaturatedHeterocycles>  (83) 
1

>  <NumSaturatedRings>  (83) 
1

>  <RingCount>  (83) 
4

>  <MolLogP>  (83) 
4.3899

>  <MolMR>  (83) 
130.4064

>  <fr_Al_COO>  (83) 
0

>  <fr_Al_OH>  (83) 
0

>  <fr_Al_OH_noTert>  (83) 
0

>  <fr_ArN>  (83) 
0

>  <fr_Ar_COO>  (83) 
0

>  <fr_Ar_N>  (83) 
2

>  <fr_Ar_NH>  (83) 
0

>  <fr_Ar_OH>  (83) 
0

>  <fr_COO>  (83) 
0

>  <fr_COO2>  (83) 
0

>  <fr_C_O>  (83) 
1

>  <fr_C_O_noCOO>  (83) 
1

>  <fr_C_S>  (83) 
0

>  <fr_HOCCN>  (83) 
0

>  <fr_Imine>  (83) 
0

>  <fr_NH0>  (83) 
3

>  <fr_NH1>  (83) 
2

>  <fr_NH2>  (83) 
0

>  <fr_N_O>  (83) 
0

>  <fr_Ndealkylation1>  (83) 
1

>  <fr_Ndealkylation2>  (83) 
0

>  <fr_Nhpyrrole>  (83) 
0

>  <fr_SH>  (83) 
0

>  <fr_aldehyde>  (83) 
0

>  <fr_alkyl_carbamate>  (83) 
0

>  <fr_alkyl_halide>  (83) 
0

>  <fr_allylic_oxid>  (83) 
0

>  <fr_amide>  (83) 
1

>  <fr_amidine>  (83) 
0

>  <fr_aniline>  (83) 
3

>  <fr_aryl_methyl>  (83) 
0

>  <fr_azide>  (83) 
0

>  <fr_azo>  (83) 
0

>  <fr_barbitur>  (83) 
0

>  <fr_benzene>  (83) 
2

>  <fr_benzodiazepine>  (83) 
0

>  <fr_bicyclic>  (83) 
1

>  <fr_diazo>  (83) 
0

>  <fr_dihydropyridine>  (83) 
0

>  <fr_epoxide>  (83) 
0

>  <fr_ester>  (83) 
0

>  <fr_ether>  (83) 
2

>  <fr_furan>  (83) 
0

>  <fr_guanido>  (83) 
0

>  <fr_halogen>  (83) 
2

>  <fr_hdrzine>  (83) 
0

>  <fr_hdrzone>  (83) 
0

>  <fr_imidazole>  (83) 
0

>  <fr_imide>  (83) 
0

>  <fr_isocyan>  (83) 
0

>  <fr_isothiocyan>  (83) 
0

>  <fr_ketone>  (83) 
0

>  <fr_ketone_Topliss>  (83) 
0

>  <fr_lactam>  (83) 
0

>  <fr_lactone>  (83) 
0

>  <fr_methoxy>  (83) 
0

>  <fr_morpholine>  (83) 
0

>  <fr_nitrile>  (83) 
0

>  <fr_nitro>  (83) 
0

>  <fr_nitro_arom>  (83) 
0

>  <fr_nitro_arom_nonortho>  (83) 
0

>  <fr_nitroso>  (83) 
0

>  <fr_oxazole>  (83) 
0

>  <fr_oxime>  (83) 
0

>  <fr_para_hydroxylation>  (83) 
0

>  <fr_phenol>  (83) 
0

>  <fr_phenol_noOrthoHbond>  (83) 
0

>  <fr_phos_acid>  (83) 
0

>  <fr_phos_ester>  (83) 
0

>  <fr_piperdine>  (83) 
0

>  <fr_piperzine>  (83) 
0

>  <fr_priamide>  (83) 
0

>  <fr_prisulfonamd>  (83) 
0

>  <fr_pyridine>  (83) 
0

>  <fr_quatN>  (83) 
0

>  <fr_sulfide>  (83) 
0

>  <fr_sulfonamd>  (83) 
0

>  <fr_sulfone>  (83) 
0

>  <fr_term_acetylene>  (83) 
0

>  <fr_tetrazole>  (83) 
0

>  <fr_thiazole>  (83) 
0

>  <fr_thiocyan>  (83) 
0

>  <fr_thiophene>  (83) 
0

>  <fr_unbrch_alkane>  (83) 
0

>  <fr_urea>  (83) 
0

>  <NP_Likeness>  (83) 
-1.140988

$$$$
nan
     RDKit          3D

  0  0  0  0  0  0  0  0  0  0999 V3000
M  V30 BEGIN CTAB
M  V30 COUNTS 60 64 0 0 0
M  V30 BEGIN ATOM
M  V30 1 C 4.098356 -1.109195 5.894439 0
M  V30 2 C 3.559740 -0.638123 4.605478 0
M  V30 3 O 2.446270 -1.137188 4.318525 0
M  V30 4 N 4.157344 0.277475 3.713839 0
M  V30 5 C 3.683158 0.759562 2.470294 0
M  V30 6 C 4.528050 1.655147 1.854047 0
M  V30 7 C 4.196789 2.205298 0.640972 0
M  V30 8 C 3.029023 1.894011 -0.002734 0
M  V30 9 C 2.129375 0.985229 0.581070 0
M  V30 10 N 0.845473 0.551504 0.149111 0
M  V30 11 C -0.077743 1.215405 0.915148 0
M  V30 12 O 0.142246 2.065420 1.844840 0
M  V30 13 N -1.427758 1.042732 0.773859 0
M  V30 14 C -2.444888 1.692269 1.526138 0
M  V30 15 C -3.622133 0.920005 2.043303 0
M  V30 16 C -3.771731 2.019557 1.042738 0
M  V30 17 C -1.833064 0.159018 -0.186303 0
M  V30 18 O -3.024360 -0.133207 -0.465365 0
M  V30 19 C -0.919795 -0.518626 -0.967165 0
M  V30 20 C -1.279119 -1.418397 -1.948747 0
M  V30 21 N -2.660697 -1.671686 -2.177867 0
M  V30 22 C -3.264224 -2.733001 -1.430717 0
M  V30 23 C -2.514752 -3.467241 -0.529833 0
M  V30 24 C -3.031362 -4.505031 0.224926 0
M  V30 25 C -4.368035 -4.792843 0.041552 0
M  V30 26 I -5.205309 -6.361628 1.163923 0
M  V30 27 C -5.177301 -4.087857 -0.852937 0
M  V30 28 C -4.596162 -3.063942 -1.574101 0
M  V30 29 F -5.354605 -2.361364 -2.449714 0
M  V30 30 N -0.352416 -2.054244 -2.685844 0
M  V30 31 C -0.780580 -2.979614 -3.693312 0
M  V30 32 C 0.927786 -1.783017 -2.433008 0
M  V30 33 O 1.742327 -2.430804 -3.179219 0
M  V30 34 C 1.461473 -0.897532 -1.473569 0
M  V30 35 C 2.913840 -0.718994 -1.333788 0
M  V30 36 C 0.425457 -0.308961 -0.784821 0
M  V30 37 C 2.533755 0.457557 1.829614 0
M  V30 38 H 4.172052 -2.213253 5.971458 0
M  V30 39 H 5.110216 -0.685190 6.091430 0
M  V30 40 H 3.475459 -0.800349 6.775452 0
M  V30 41 H 5.078052 0.582935 4.124193 0
M  V30 42 H 5.492990 1.984956 2.268781 0
M  V30 43 H 4.845417 2.907421 0.144367 0
M  V30 44 H 2.657703 2.253162 -0.946764 0
M  V30 45 H -2.031994 2.406163 2.301644 0
M  V30 46 H -3.980821 1.089910 3.099065 0
M  V30 47 H -3.643108 -0.143461 1.778379 0
M  V30 48 H -4.298733 2.928779 1.461933 0
M  V30 49 H -4.162219 1.838945 0.019853 0
M  V30 50 H -3.272102 -1.146562 -2.847141 0
M  V30 51 H -1.460637 -3.260082 -0.367576 0
M  V30 52 H -2.426729 -5.073848 0.930730 0
M  V30 53 H -6.221266 -4.347592 -0.964994 0
M  V30 54 H 0.040772 -2.971025 -4.471917 0
M  V30 55 H -0.806788 -4.041574 -3.376805 0
M  V30 56 H -1.667518 -2.645029 -4.258842 0
M  V30 57 H 3.362022 0.043404 -2.007233 0
M  V30 58 H 3.331011 -1.654626 -1.873550 0
M  V30 59 H 3.368112 -0.883546 -0.369438 0
M  V30 60 H 1.880356 -0.242198 2.317072 0
M  V30 END ATOM
M  V30 BEGIN BOND
M  V30 1 1 1 2
M  V30 2 2 2 3
M  V30 3 1 2 4
M  V30 4 1 4 5
M  V30 5 2 5 6
M  V30 6 1 6 7
M  V30 7 2 7 8
M  V30 8 1 8 9
M  V30 9 1 9 10
M  V30 10 1 10 11
M  V30 11 2 11 12
M  V30 12 1 11 13
M  V30 13 1 13 14
M  V30 14 1 14 15
M  V30 15 1 15 16
M  V30 16 1 13 17
M  V30 17 2 17 18
M  V30 18 1 17 19
M  V30 19 2 19 20
M  V30 20 1 20 21
M  V30 21 1 21 22
M  V30 22 2 22 23
M  V30 23 1 23 24
M  V30 24 2 24 25
M  V30 25 1 25 26
M  V30 26 1 25 27
M  V30 27 2 27 28
M  V30 28 1 28 29
M  V30 29 1 20 30
M  V30 30 1 30 31
M  V30 31 1 30 32
M  V30 32 2 32 33
M  V30 33 1 32 34
M  V30 34 1 34 35
M  V30 35 2 34 36
M  V30 36 2 9 37
M  V30 37 1 37 5
M  V30 38 1 36 10
M  V30 39 1 16 14
M  V30 40 1 36 19
M  V30 41 1 28 22
M  V30 42 1 1 38
M  V30 43 1 1 39
M  V30 44 1 1 40
M  V30 45 1 4 41
M  V30 46 1 6 42
M  V30 47 1 7 43
M  V30 48 1 8 44
M  V30 49 1 14 45
M  V30 50 1 15 46
M  V30 51 1 15 47
M  V30 52 1 16 48
M  V30 53 1 16 49
M  V30 54 1 21 50
M  V30 55 1 23 51
M  V30 56 1 24 52
M  V30 57 1 27 53
M  V30 58 1 31 54
M  V30 59 1 31 55
M  V30 60 1 31 56
M  V30 61 1 35 57
M  V30 62 1 35 58
M  V30 63 1 35 59
M  V30 64 1 37 60
M  V30 END BOND
M  V30 END CTAB
M  END
>  <Dataset>  (84) 
PKIs

>  <Ligand_Instance>  (84) 
nan

>  <PDB_ID>  (84) 
nan

>  <Standardized_SMILES>  (84) 
CC(=O)Nc1cccc(-n2c(=O)n(C3CC3)c(=O)c3c(Nc4ccc(I)cc4F)n(C)c(=O)c(C)c32)c1

>  <Name>  (84) 
Trametinib

>  <Pocket>  (84) 
nan

>  <ATP_Site>  (84) 
nan

>  <Peripheral>  (84) 
nan

>  <Num_H_Atoms_ProtBoundConf>  (84) 
nan

>  <Num_Resolved_Atoms>  (84) 
nan

>  <Num_Not_Resolved_Atoms>  (84) 
nan

>  <2D_Mol_H>  (84) 
<rdkit.Chem.rdchem.Mol object at 0x72a239141d90>

>  <MW>  (84) 
615.403

>  <HBA>  (84) 
8

>  <HBD>  (84) 
2

>  <LogP>  (84) 
3.94012

>  <NRB>  (84) 
8

>  <TPSA>  (84) 
107.13

>  <Num_Heavy_Atoms>  (84) 
37

>  <Ro5>  (84) 
[False, True, True, True, True, True]

>  <Ro5_Fulfilled>  (84) 
True

>  <Ro3>  (84) 
[False, False, True, False]

>  <Ro3_Fulfilled>  (84) 
False

>  <Fsp3>  (84) 
0.230769

>  <Fsp3_0.42>  (84) 
False

>  <Fsp3_0.45>  (84) 
False

>  <Stereogenic_Carbons>  (84) 
0

>  <C_Atoms>  (84) 
26

>  <FCStereo>  (84) 
0.0

>  <SPS>  (84) 
485

>  <nSPS>  (84) 
13.108108

>  <PBF>  (84) 
1.535302

>  <PBF_0.6>  (84) 
True

>  <nPBF>  (84) 
0.041495

>  <nPBF_0.016>  (84) 
True

>  <PMI1>  (84) 
4309.222885

>  <PMI2>  (84) 
12030.71027

>  <PMI3>  (84) 
13066.462478

>  <NPR1>  (84) 
0.329793

>  <NPR2>  (84) 
0.920732

>  <Sum_NPR>  (84) 
1.250525

>  <Sum_NPR_1.07>  (84) 
True

>  <Sum_NPR_1.2>  (84) 
True

>  <MaxAbsEStateIndex>  (84) 
14.795062

>  <MaxEStateIndex>  (84) 
14.795062

>  <MinAbsEStateIndex>  (84) 
0.080439

>  <MinEStateIndex>  (84) 
-0.580812

>  <qed>  (84) 
0.331239

>  <MolWt>  (84) 
615.403

>  <HeavyAtomMolWt>  (84) 
592.219

>  <ExactMolWt>  (84) 
615.07788

>  <NumValenceElectrons>  (84) 
190

>  <NumRadicalElectrons>  (84) 
0

>  <MaxPartialCharge>  (84) 
0.335874

>  <MinPartialCharge>  (84) 
-0.338442

>  <MaxAbsPartialCharge>  (84) 
0.338442

>  <MinAbsPartialCharge>  (84) 
0.335874

>  <FpDensityMorgan1>  (84) 
1.081081

>  <FpDensityMorgan2>  (84) 
1.810811

>  <FpDensityMorgan3>  (84) 
2.459459

>  <BCUT2D_MWHI>  (84) 
126.912705

>  <BCUT2D_MWLOW>  (84) 
10.127773

>  <BCUT2D_CHGHI>  (84) 
2.313186

>  <BCUT2D_CHGLO>  (84) 
-2.205821

>  <BCUT2D_LOGPHI>  (84) 
2.339674

>  <BCUT2D_LOGPLOW>  (84) 
-2.408653

>  <BCUT2D_MRHI>  (84) 
14.111919

>  <BCUT2D_MRLOW>  (84) 
-0.113738

>  <AvgIpc>  (84) 
3.66504

>  <BalabanJ>  (84) 
1.904147

>  <BertzCT>  (84) 
1785.490615

>  <Chi0>  (84) 
26.593129

>  <Chi0n>  (84) 
20.263579

>  <Chi0v>  (84) 
22.421077

>  <Chi1>  (84) 
17.578295

>  <Chi1n>  (84) 
11.591019

>  <Chi1v>  (84) 
12.669768

>  <Chi2n>  (84) 
9.066379

>  <Chi2v>  (84) 
10.312011

>  <Chi3n>  (84) 
6.364245

>  <Chi3v>  (84) 
7.035236

>  <Chi4n>  (84) 
4.499591

>  <Chi4v>  (84) 
4.952788

>  <HallKierAlpha>  (84) 
-3.74

>  <Ipc>  (84) 
271183013.917746

>  <Kappa1>  (84) 
24.932468

>  <Kappa2>  (84) 
9.287554

>  <Kappa3>  (84) 
4.365408

>  <LabuteASA>  (84) 
223.238064

>  <PEOE_VSA1>  (84) 
10.633577

>  <PEOE_VSA10>  (84) 
17.021308

>  <PEOE_VSA11>  (84) 
0.0

>  <PEOE_VSA12>  (84) 
5.90718

>  <PEOE_VSA13>  (84) 
11.118534

>  <PEOE_VSA14>  (84) 
5.689743

>  <PEOE_VSA2>  (84) 
28.08491

>  <PEOE_VSA3>  (84) 
9.184952

>  <PEOE_VSA4>  (84) 
0.0

>  <PEOE_VSA5>  (84) 
0.0

>  <PEOE_VSA6>  (84) 
6.066367

>  <PEOE_VSA7>  (84) 
78.754453

>  <PEOE_VSA8>  (84) 
34.83427

>  <PEOE_VSA9>  (84) 
16.891473

>  <SMR_VSA1>  (84) 
9.184952

>  <SMR_VSA10>  (84) 
56.593611

>  <SMR_VSA2>  (84) 
0.0

>  <SMR_VSA3>  (84) 
13.701299

>  <SMR_VSA4>  (84) 
7.047672

>  <SMR_VSA5>  (84) 
32.730958

>  <SMR_VSA6>  (84) 
10.633577

>  <SMR_VSA7>  (84) 
88.607313

>  <SMR_VSA8>  (84) 
0.0

>  <SMR_VSA9>  (84) 
5.687386

>  <SlogP_VSA1>  (84) 
27.441854

>  <SlogP_VSA10>  (84) 
21.58305

>  <SlogP_VSA11>  (84) 
0.0

>  <SlogP_VSA12>  (84) 
22.590871

>  <SlogP_VSA2>  (84) 
19.608479

>  <SlogP_VSA3>  (84) 
11.842209

>  <SlogP_VSA4>  (84) 
16.31114

>  <SlogP_VSA5>  (84) 
31.370673

>  <SlogP_VSA6>  (84) 
56.848181

>  <SlogP_VSA7>  (84) 
0.0

>  <SlogP_VSA8>  (84) 
16.590311

>  <SlogP_VSA9>  (84) 
0.0

>  <EState_VSA1>  (84) 
22.625498

>  <EState_VSA10>  (84) 
23.568564

>  <EState_VSA11>  (84) 
0.0

>  <EState_VSA2>  (84) 
39.920646

>  <EState_VSA3>  (84) 
27.786598

>  <EState_VSA4>  (84) 
0.0

>  <EState_VSA5>  (84) 
39.805442

>  <EState_VSA6>  (84) 
37.255573

>  <EState_VSA7>  (84) 
22.590871

>  <EState_VSA8>  (84) 
10.633577

>  <EState_VSA9>  (84) 
0.0

>  <VSA_EState1>  (84) 
19.269684

>  <VSA_EState10>  (84) 
1.990888

>  <VSA_EState2>  (84) 
52.57234

>  <VSA_EState3>  (84) 
5.722519

>  <VSA_EState4>  (84) 
-0.351267

>  <VSA_EState5>  (84) 
-0.752605

>  <VSA_EState6>  (84) 
10.905918

>  <VSA_EState7>  (84) 
1.344928

>  <VSA_EState8>  (84) 
2.922097

>  <VSA_EState9>  (84) 
1.495498

>  <FractionCSP3>  (84) 
0.230769

>  <HeavyAtomCount>  (84) 
37

>  <NHOHCount>  (84) 
2

>  <NOCount>  (84) 
9

>  <NumAliphaticCarbocycles>  (84) 
1

>  <NumAliphaticHeterocycles>  (84) 
0

>  <NumAliphaticRings>  (84) 
1

>  <NumAromaticCarbocycles>  (84) 
2

>  <NumAromaticHeterocycles>  (84) 
2

>  <NumAromaticRings>  (84) 
4

>  <NumHAcceptors>  (84) 
8

>  <NumHDonors>  (84) 
2

>  <NumHeteroatoms>  (84) 
11

>  <NumRotatableBonds>  (84) 
5

>  <NumSaturatedCarbocycles>  (84) 
1

>  <NumSaturatedHeterocycles>  (84) 
0

>  <NumSaturatedRings>  (84) 
1

>  <RingCount>  (84) 
5

>  <MolLogP>  (84) 
3.94012

>  <MolMR>  (84) 
148.7574

>  <fr_Al_COO>  (84) 
0

>  <fr_Al_OH>  (84) 
0

>  <fr_Al_OH_noTert>  (84) 
0

>  <fr_ArN>  (84) 
0

>  <fr_Ar_COO>  (84) 
0

>  <fr_Ar_N>  (84) 
3

>  <fr_Ar_NH>  (84) 
0

>  <fr_Ar_OH>  (84) 
0

>  <fr_COO>  (84) 
0

>  <fr_COO2>  (84) 
0

>  <fr_C_O>  (84) 
1

>  <fr_C_O_noCOO>  (84) 
1

>  <fr_C_S>  (84) 
0

>  <fr_HOCCN>  (84) 
0

>  <fr_Imine>  (84) 
0

>  <fr_NH0>  (84) 
3

>  <fr_NH1>  (84) 
2

>  <fr_NH2>  (84) 
0

>  <fr_N_O>  (84) 
0

>  <fr_Ndealkylation1>  (84) 
0

>  <fr_Ndealkylation2>  (84) 
0

>  <fr_Nhpyrrole>  (84) 
0

>  <fr_SH>  (84) 
0

>  <fr_aldehyde>  (84) 
0

>  <fr_alkyl_carbamate>  (84) 
0

>  <fr_alkyl_halide>  (84) 
0

>  <fr_allylic_oxid>  (84) 
0

>  <fr_amide>  (84) 
1

>  <fr_amidine>  (84) 
0

>  <fr_aniline>  (84) 
3

>  <fr_aryl_methyl>  (84) 
1

>  <fr_azide>  (84) 
0

>  <fr_azo>  (84) 
0

>  <fr_barbitur>  (84) 
0

>  <fr_benzene>  (84) 
2

>  <fr_benzodiazepine>  (84) 
0

>  <fr_bicyclic>  (84) 
1

>  <fr_diazo>  (84) 
0

>  <fr_dihydropyridine>  (84) 
0

>  <fr_epoxide>  (84) 
0

>  <fr_ester>  (84) 
0

>  <fr_ether>  (84) 
0

>  <fr_furan>  (84) 
0

>  <fr_guanido>  (84) 
0

>  <fr_halogen>  (84) 
2

>  <fr_hdrzine>  (84) 
0

>  <fr_hdrzone>  (84) 
0

>  <fr_imidazole>  (84) 
0

>  <fr_imide>  (84) 
0

>  <fr_isocyan>  (84) 
0

>  <fr_isothiocyan>  (84) 
0

>  <fr_ketone>  (84) 
0

>  <fr_ketone_Topliss>  (84) 
0

>  <fr_lactam>  (84) 
0

>  <fr_lactone>  (84) 
0

>  <fr_methoxy>  (84) 
0

>  <fr_morpholine>  (84) 
0

>  <fr_nitrile>  (84) 
0

>  <fr_nitro>  (84) 
0

>  <fr_nitro_arom>  (84) 
0

>  <fr_nitro_arom_nonortho>  (84) 
0

>  <fr_nitroso>  (84) 
0

>  <fr_oxazole>  (84) 
0

>  <fr_oxime>  (84) 
0

>  <fr_para_hydroxylation>  (84) 
0

>  <fr_phenol>  (84) 
0

>  <fr_phenol_noOrthoHbond>  (84) 
0

>  <fr_phos_acid>  (84) 
0

>  <fr_phos_ester>  (84) 
0

>  <fr_piperdine>  (84) 
0

>  <fr_piperzine>  (84) 
0

>  <fr_priamide>  (84) 
0

>  <fr_prisulfonamd>  (84) 
0

>  <fr_pyridine>  (84) 
1

>  <fr_quatN>  (84) 
0

>  <fr_sulfide>  (84) 
0

>  <fr_sulfonamd>  (84) 
0

>  <fr_sulfone>  (84) 
0

>  <fr_term_acetylene>  (84) 
0

>  <fr_tetrazole>  (84) 
0

>  <fr_thiazole>  (84) 
0

>  <fr_thiocyan>  (84) 
0

>  <fr_thiophene>  (84) 
0

>  <fr_unbrch_alkane>  (84) 
0

>  <fr_urea>  (84) 
0

>  <NP_Likeness>  (84) 
-1.573127

$$$$
nan
     RDKit          3D

  0  0  0  0  0  0  0  0  0  0999 V3000
M  V30 BEGIN CTAB
M  V30 COUNTS 57 61 0 0 0
M  V30 BEGIN ATOM
M  V30 1 C 6.359131 -0.552879 2.863050 0
M  V30 2 C 6.500029 -1.056861 1.653652 0
M  V30 3 C 5.695895 -1.835249 0.727312 0
M  V30 4 O 6.274994 -2.092616 -0.358055 0
M  V30 5 N 4.374938 -2.264965 1.024099 0
M  V30 6 C 3.538179 -2.070920 2.217367 0
M  V30 7 C 2.854386 -3.414583 2.502221 0
M  V30 8 C 1.758841 -3.529950 1.486691 0
M  V30 9 C 2.201379 -3.051689 0.135764 0 CFG=1
M  V30 10 N 1.571366 -1.802260 -0.223040 0
M  V30 11 N 0.294087 -1.534012 -0.011484 0
M  V30 12 C 0.005328 -0.294620 -0.454769 0
M  V30 13 C -1.360410 0.189952 -0.304031 0
M  V30 14 C -1.933848 0.054271 0.966280 0
M  V30 15 C -3.215875 0.436588 1.301661 0
M  V30 16 C -3.986730 0.994616 0.304099 0
M  V30 17 O -5.293165 1.431230 0.474658 0
M  V30 18 C -6.380479 0.578286 0.257814 0
M  V30 19 C -7.686484 1.000978 0.424146 0
M  V30 20 C -8.709958 0.094886 0.189318 0
M  V30 21 C -8.461306 -1.202629 -0.201588 0
M  V30 22 C -7.156556 -1.665095 -0.379467 0
M  V30 23 C -6.172092 -0.729639 -0.134723 0
M  V30 24 C -3.475759 1.153092 -0.966578 0
M  V30 25 C -2.188660 0.754324 -1.249512 0
M  V30 26 C 1.198489 0.180093 -0.953228 0
M  V30 27 C 1.383987 1.425864 -1.511220 0
M  V30 28 N 0.376793 2.400959 -1.644308 0
M  V30 29 N 2.652554 1.692200 -1.937643 0
M  V30 30 C 3.617813 0.739078 -1.786812 0
M  V30 31 N 3.429288 -0.475377 -1.239897 0
M  V30 32 C 2.189043 -0.768028 -0.809553 0
M  V30 33 C 3.686760 -3.027188 0.015517 0
M  V30 34 H 6.832636 0.015795 3.644637 0
M  V30 35 H 5.857990 -0.333847 3.793552 0
M  V30 36 H 7.502811 -0.713110 1.465552 0
M  V30 37 H 4.110704 -1.807403 3.104867 0
M  V30 38 H 2.725092 -1.361068 1.976785 0
M  V30 39 H 2.416628 -3.350093 3.499358 0
M  V30 40 H 3.569471 -4.256225 2.473859 0
M  V30 41 H 0.929886 -2.876059 1.834962 0
M  V30 42 H 1.364073 -4.561096 1.456865 0
M  V30 43 H 1.831205 -3.817290 -0.609640 0
M  V30 44 H -1.360452 -0.378745 1.773588 0
M  V30 45 H -3.629076 0.322459 2.276550 0
M  V30 46 H -7.903629 2.008524 0.728550 0
M  V30 47 H -9.741109 0.412259 0.315721 0
M  V30 48 H -9.277694 -1.900619 -0.381842 0
M  V30 49 H -6.895144 -2.666535 -0.683305 0
M  V30 50 H -5.140783 -1.055890 -0.263616 0
M  V30 51 H -4.053359 1.586344 -1.769659 0
M  V30 52 H -1.785422 0.859230 -2.235222 0
M  V30 53 H -0.020368 2.858682 -2.502219 0
M  V30 54 H 0.081382 2.593404 -0.653782 0
M  V30 55 H 4.615137 0.995961 -2.141885 0
M  V30 56 H 4.024464 -4.094387 0.173948 0
M  V30 57 H 4.065614 -2.751901 -0.964276 0
M  V30 END ATOM
M  V30 BEGIN BOND
M  V30 1 2 1 2
M  V30 2 1 2 3
M  V30 3 2 3 4
M  V30 4 1 3 5
M  V30 5 1 5 6
M  V30 6 1 6 7
M  V30 7 1 7 8
M  V30 8 1 8 9
M  V30 9 1 9 10
M  V30 10 1 10 11
M  V30 11 2 11 12
M  V30 12 1 12 13
M  V30 13 2 13 14
M  V30 14 1 14 15
M  V30 15 2 15 16
M  V30 16 1 16 17
M  V30 17 1 17 18
M  V30 18 2 18 19
M  V30 19 1 19 20
M  V30 20 2 20 21
M  V30 21 1 21 22
M  V30 22 2 22 23
M  V30 23 1 16 24
M  V30 24 2 24 25
M  V30 25 1 12 26
M  V30 26 2 26 27
M  V30 27 1 27 28
M  V30 28 1 27 29
M  V30 29 2 29 30
M  V30 30 1 30 31
M  V30 31 2 31 32
M  V30 32 1 9 33
M  V30 33 1 33 5
M  V30 34 1 32 10
M  V30 35 1 25 13
M  V30 36 1 32 26
M  V30 37 1 23 18
M  V30 38 1 1 34
M  V30 39 1 1 35
M  V30 40 1 2 36
M  V30 41 1 6 37
M  V30 42 1 6 38
M  V30 43 1 7 39
M  V30 44 1 7 40
M  V30 45 1 8 41
M  V30 46 1 8 42
M  V30 47 1 9 43 CFG=3
M  V30 48 1 14 44
M  V30 49 1 15 45
M  V30 50 1 19 46
M  V30 51 1 20 47
M  V30 52 1 21 48
M  V30 53 1 22 49
M  V30 54 1 23 50
M  V30 55 1 24 51
M  V30 56 1 25 52
M  V30 57 1 28 53
M  V30 58 1 28 54
M  V30 59 1 30 55
M  V30 60 1 33 56
M  V30 61 1 33 57
M  V30 END BOND
M  V30 END CTAB
M  END
>  <Dataset>  (85) 
PKIs

>  <Ligand_Instance>  (85) 
nan

>  <PDB_ID>  (85) 
nan

>  <Standardized_SMILES>  (85) 
C=CC(=O)N1CCC[C@@H](n2nc(-c3ccc(Oc4ccccc4)cc3)c3c(N)ncnc32)C1

>  <Name>  (85) 
Ibrutinib

>  <Pocket>  (85) 
nan

>  <ATP_Site>  (85) 
nan

>  <Peripheral>  (85) 
nan

>  <Num_H_Atoms_ProtBoundConf>  (85) 
nan

>  <Num_Resolved_Atoms>  (85) 
nan

>  <Num_Not_Resolved_Atoms>  (85) 
nan

>  <2D_Mol_H>  (85) 
<rdkit.Chem.rdchem.Mol object at 0x72a239141e70>

>  <MW>  (85) 
440.507

>  <HBA>  (85) 
7

>  <HBD>  (85) 
1

>  <LogP>  (85) 
4.2173

>  <NRB>  (85) 
6

>  <TPSA>  (85) 
99.16

>  <Num_Heavy_Atoms>  (85) 
33

>  <Ro5>  (85) 
[True, True, True, True, True, True]

>  <Ro5_Fulfilled>  (85) 
True

>  <Ro3>  (85) 
[False, False, True, False]

>  <Ro3_Fulfilled>  (85) 
False

>  <Fsp3>  (85) 
0.2

>  <Fsp3_0.42>  (85) 
False

>  <Fsp3_0.45>  (85) 
False

>  <Stereogenic_Carbons>  (85) 
1

>  <C_Atoms>  (85) 
25

>  <FCStereo>  (85) 
0.04

>  <SPS>  (85) 
528

>  <nSPS>  (85) 
16.0

>  <PBF>  (85) 
1.042466

>  <PBF_0.6>  (85) 
True

>  <nPBF>  (85) 
0.03159

>  <nPBF_0.016>  (85) 
True

>  <PMI1>  (85) 
1619.299342

>  <PMI2>  (85) 
9625.972351

>  <PMI3>  (85) 
10437.430667

>  <NPR1>  (85) 
0.155143

>  <NPR2>  (85) 
0.922255

>  <Sum_NPR>  (85) 
1.077398

>  <Sum_NPR_1.07>  (85) 
True

>  <Sum_NPR_1.2>  (85) 
False

>  <MaxAbsEStateIndex>  (85) 
12.171747

>  <MaxEStateIndex>  (85) 
12.171747

>  <MinAbsEStateIndex>  (85) 
0.00566

>  <MinEStateIndex>  (85) 
-0.06988

>  <qed>  (85) 
0.466703

>  <MolWt>  (85) 
440.507

>  <HeavyAtomMolWt>  (85) 
416.315

>  <ExactMolWt>  (85) 
440.196074

>  <NumValenceElectrons>  (85) 
166

>  <NumRadicalElectrons>  (85) 
0

>  <MaxPartialCharge>  (85) 
0.245527

>  <MinPartialCharge>  (85) 
-0.457384

>  <MaxAbsPartialCharge>  (85) 
0.457384

>  <MinAbsPartialCharge>  (85) 
0.245527

>  <FpDensityMorgan1>  (85) 
1.090909

>  <FpDensityMorgan2>  (85) 
1.848485

>  <FpDensityMorgan3>  (85) 
2.606061

>  <BCUT2D_MWHI>  (85) 
16.480554

>  <BCUT2D_MWLOW>  (85) 
10.05825

>  <BCUT2D_CHGHI>  (85) 
2.275227

>  <BCUT2D_CHGLO>  (85) 
-2.318171

>  <BCUT2D_LOGPHI>  (85) 
2.344177

>  <BCUT2D_LOGPLOW>  (85) 
-2.396826

>  <BCUT2D_MRHI>  (85) 
5.97935

>  <BCUT2D_MRLOW>  (85) 
-0.127146

>  <AvgIpc>  (85) 
3.257065

>  <BalabanJ>  (85) 
1.500768

>  <BertzCT>  (85) 
1299.9887

>  <Chi0>  (85) 
22.785882

>  <Chi0n>  (85) 
18.093652

>  <Chi0v>  (85) 
18.093652

>  <Chi1>  (85) 
16.135362

>  <Chi1n>  (85) 
10.871605

>  <Chi1v>  (85) 
10.871605

>  <Chi2n>  (85) 
7.974614

>  <Chi2v>  (85) 
7.974614

>  <Chi3n>  (85) 
5.853475

>  <Chi3v>  (85) 
5.853475

>  <Chi4n>  (85) 
4.241172

>  <Chi4v>  (85) 
4.241172

>  <HallKierAlpha>  (85) 
-4.2

>  <Ipc>  (85) 
59394803.666011

>  <Kappa1>  (85) 
20.688757

>  <Kappa2>  (85) 
8.738937

>  <Kappa3>  (85) 
4.025546

>  <LabuteASA>  (85) 
190.87268

>  <PEOE_VSA1>  (85) 
15.37044

>  <PEOE_VSA10>  (85) 
29.338135

>  <PEOE_VSA11>  (85) 
5.647177

>  <PEOE_VSA12>  (85) 
5.90718

>  <PEOE_VSA13>  (85) 
0.0

>  <PEOE_VSA14>  (85) 
0.0

>  <PEOE_VSA2>  (85) 
4.794537

>  <PEOE_VSA3>  (85) 
14.64976

>  <PEOE_VSA4>  (85) 
5.098682

>  <PEOE_VSA5>  (85) 
0.0

>  <PEOE_VSA6>  (85) 
24.778037

>  <PEOE_VSA7>  (85) 
55.315866

>  <PEOE_VSA8>  (85) 
18.652964

>  <PEOE_VSA9>  (85) 
11.428065

>  <SMR_VSA1>  (85) 
9.5314

>  <SMR_VSA10>  (85) 
22.758444

>  <SMR_VSA2>  (85) 
0.0

>  <SMR_VSA3>  (85) 
24.648352

>  <SMR_VSA4>  (85) 
0.0

>  <SMR_VSA5>  (85) 
18.883484

>  <SMR_VSA6>  (85) 
18.82318

>  <SMR_VSA7>  (85) 
73.579579

>  <SMR_VSA8>  (85) 
0.0

>  <SMR_VSA9>  (85) 
22.756403

>  <SlogP_VSA1>  (85) 
10.47053

>  <SlogP_VSA10>  (85) 
5.817863

>  <SlogP_VSA11>  (85) 
11.499024

>  <SlogP_VSA12>  (85) 
0.0

>  <SlogP_VSA2>  (85) 
43.645044

>  <SlogP_VSA3>  (85) 
4.794537

>  <SlogP_VSA4>  (85) 
0.0

>  <SlogP_VSA5>  (85) 
18.883484

>  <SlogP_VSA6>  (85) 
73.579579

>  <SlogP_VSA7>  (85) 
0.0

>  <SlogP_VSA8>  (85) 
22.290781

>  <SlogP_VSA9>  (85) 
0.0

>  <EState_VSA1>  (85) 
0.0

>  <EState_VSA10>  (85) 
4.794537

>  <EState_VSA11>  (85) 
0.0

>  <EState_VSA2>  (85) 
11.949021

>  <EState_VSA3>  (85) 
35.634705

>  <EState_VSA4>  (85) 
29.904118

>  <EState_VSA5>  (85) 
12.40334

>  <EState_VSA6>  (85) 
4.89991

>  <EState_VSA7>  (85) 
59.279107

>  <EState_VSA8>  (85) 
16.546893

>  <EState_VSA9>  (85) 
15.569212

>  <VSA_EState1>  (85) 
7.793633

>  <VSA_EState10>  (85) 
0.0

>  <VSA_EState2>  (85) 
22.652447

>  <VSA_EState3>  (85) 
5.616526

>  <VSA_EState4>  (85) 
8.520594

>  <VSA_EState5>  (85) 
1.803279

>  <VSA_EState6>  (85) 
17.321362

>  <VSA_EState7>  (85) 
4.58142

>  <VSA_EState8>  (85) 
4.877407

>  <VSA_EState9>  (85) 
0.0

>  <FractionCSP3>  (85) 
0.2

>  <HeavyAtomCount>  (85) 
33

>  <NHOHCount>  (85) 
2

>  <NOCount>  (85) 
8

>  <NumAliphaticCarbocycles>  (85) 
0

>  <NumAliphaticHeterocycles>  (85) 
1

>  <NumAliphaticRings>  (85) 
1

>  <NumAromaticCarbocycles>  (85) 
2

>  <NumAromaticHeterocycles>  (85) 
2

>  <NumAromaticRings>  (85) 
4

>  <NumHAcceptors>  (85) 
7

>  <NumHDonors>  (85) 
1

>  <NumHeteroatoms>  (85) 
8

>  <NumRotatableBonds>  (85) 
5

>  <NumSaturatedCarbocycles>  (85) 
0

>  <NumSaturatedHeterocycles>  (85) 
1

>  <NumSaturatedRings>  (85) 
1

>  <RingCount>  (85) 
5

>  <MolLogP>  (85) 
4.2173

>  <MolMR>  (85) 
126.7354

>  <fr_Al_COO>  (85) 
0

>  <fr_Al_OH>  (85) 
0

>  <fr_Al_OH_noTert>  (85) 
0

>  <fr_ArN>  (85) 
1

>  <fr_Ar_COO>  (85) 
0

>  <fr_Ar_N>  (85) 
4

>  <fr_Ar_NH>  (85) 
0

>  <fr_Ar_OH>  (85) 
0

>  <fr_COO>  (85) 
0

>  <fr_COO2>  (85) 
0

>  <fr_C_O>  (85) 
1

>  <fr_C_O_noCOO>  (85) 
1

>  <fr_C_S>  (85) 
0

>  <fr_HOCCN>  (85) 
0

>  <fr_Imine>  (85) 
0

>  <fr_NH0>  (85) 
5

>  <fr_NH1>  (85) 
0

>  <fr_NH2>  (85) 
1

>  <fr_N_O>  (85) 
0

>  <fr_Ndealkylation1>  (85) 
0

>  <fr_Ndealkylation2>  (85) 
1

>  <fr_Nhpyrrole>  (85) 
0

>  <fr_SH>  (85) 
0

>  <fr_aldehyde>  (85) 
0

>  <fr_alkyl_carbamate>  (85) 
0

>  <fr_alkyl_halide>  (85) 
0

>  <fr_allylic_oxid>  (85) 
0

>  <fr_amide>  (85) 
1

>  <fr_amidine>  (85) 
0

>  <fr_aniline>  (85) 
1

>  <fr_aryl_methyl>  (85) 
0

>  <fr_azide>  (85) 
0

>  <fr_azo>  (85) 
0

>  <fr_barbitur>  (85) 
0

>  <fr_benzene>  (85) 
2

>  <fr_benzodiazepine>  (85) 
0

>  <fr_bicyclic>  (85) 
1

>  <fr_diazo>  (85) 
0

>  <fr_dihydropyridine>  (85) 
0

>  <fr_epoxide>  (85) 
0

>  <fr_ester>  (85) 
0

>  <fr_ether>  (85) 
1

>  <fr_furan>  (85) 
0

>  <fr_guanido>  (85) 
0

>  <fr_halogen>  (85) 
0

>  <fr_hdrzine>  (85) 
0

>  <fr_hdrzone>  (85) 
0

>  <fr_imidazole>  (85) 
0

>  <fr_imide>  (85) 
0

>  <fr_isocyan>  (85) 
0

>  <fr_isothiocyan>  (85) 
0

>  <fr_ketone>  (85) 
0

>  <fr_ketone_Topliss>  (85) 
0

>  <fr_lactam>  (85) 
0

>  <fr_lactone>  (85) 
0

>  <fr_methoxy>  (85) 
0

>  <fr_morpholine>  (85) 
0

>  <fr_nitrile>  (85) 
0

>  <fr_nitro>  (85) 
0

>  <fr_nitro_arom>  (85) 
0

>  <fr_nitro_arom_nonortho>  (85) 
0

>  <fr_nitroso>  (85) 
0

>  <fr_oxazole>  (85) 
0

>  <fr_oxime>  (85) 
0

>  <fr_para_hydroxylation>  (85) 
1

>  <fr_phenol>  (85) 
0

>  <fr_phenol_noOrthoHbond>  (85) 
0

>  <fr_phos_acid>  (85) 
0

>  <fr_phos_ester>  (85) 
0

>  <fr_piperdine>  (85) 
1

>  <fr_piperzine>  (85) 
0

>  <fr_priamide>  (85) 
0

>  <fr_prisulfonamd>  (85) 
0

>  <fr_pyridine>  (85) 
0

>  <fr_quatN>  (85) 
0

>  <fr_sulfide>  (85) 
0

>  <fr_sulfonamd>  (85) 
0

>  <fr_sulfone>  (85) 
0

>  <fr_term_acetylene>  (85) 
0

>  <fr_tetrazole>  (85) 
0

>  <fr_thiazole>  (85) 
0

>  <fr_thiocyan>  (85) 
0

>  <fr_thiophene>  (85) 
0

>  <fr_unbrch_alkane>  (85) 
0

>  <fr_urea>  (85) 
0

>  <NP_Likeness>  (85) 
-0.796536

$$$$
nan
     RDKit          3D

  0  0  0  0  0  0  0  0  0  0999 V3000
M  V30 BEGIN CTAB
M  V30 COUNTS 55 58 0 0 0
M  V30 BEGIN ATOM
M  V30 1 C 4.760634 -2.763910 1.261696 0
M  V30 2 C 4.749889 -1.348490 0.784962 0
M  V30 3 C 4.836032 -0.376641 1.939035 0
M  V30 4 C 5.885971 -1.161015 -0.196316 0
M  V30 5 C 3.488531 -0.986352 0.072572 0
M  V30 6 N 2.419056 -0.526362 0.397634 0
M  V30 7 C 1.428888 -0.289468 -0.442842 0
M  V30 8 C 0.188497 0.276121 0.139876 0
M  V30 9 C 0.220349 1.510797 0.751756 0
M  V30 10 C -0.935783 2.038287 1.297827 0
M  V30 11 C -2.069467 1.263181 1.184656 0
M  V30 12 C -2.151955 0.024791 0.583390 0
M  V30 13 N -3.357932 -0.714077 0.496672 0
M  V30 14 S -4.775718 -0.636644 1.489430 0
M  V30 15 O -5.863325 -1.494670 0.942252 0
M  V30 16 O -5.319538 0.785675 1.470643 0
M  V30 17 C -4.476179 -1.048470 3.144399 0
M  V30 18 C -4.575871 -2.409103 3.420919 0
M  V30 19 F -4.877406 -3.349685 2.475672 0
M  V30 20 C -4.382640 -2.946795 4.667190 0
M  V30 21 C -4.069877 -2.133637 5.739349 0
M  V30 22 C -3.967590 -0.781774 5.480886 0
M  V30 23 C -4.166427 -0.264727 4.219762 0
M  V30 24 F -4.081370 1.055650 3.933247 0
M  V30 25 C -0.965660 -0.469751 0.046232 0
M  V30 26 F -1.021733 -1.674123 -0.544784 0
M  V30 27 C 1.619311 -0.583628 -1.783658 0
M  V30 28 C 0.698114 -0.412251 -2.864686 0
M  V30 29 C 0.328635 -1.565919 -3.543108 0
M  V30 30 C -0.562516 -1.541991 -4.617311 0
M  V30 31 N -1.044699 -0.334408 -4.959604 0
M  V30 32 C -0.696893 0.791590 -4.313146 0
M  V30 33 N -1.181981 2.089033 -4.642258 0
M  V30 34 N 0.159804 0.727737 -3.288405 0
M  V30 35 S 3.328482 -1.226010 -1.742755 0
M  V30 36 H 5.825353 -3.069659 1.411458 0
M  V30 37 H 4.384266 -3.425353 0.442391 0
M  V30 38 H 4.148671 -2.948661 2.162105 0
M  V30 39 H 4.200547 0.523030 1.806511 0
M  V30 40 H 4.454845 -0.870648 2.860406 0
M  V30 41 H 5.876041 -0.103445 2.117756 0
M  V30 42 H 6.827735 -1.629422 0.154267 0
M  V30 43 H 5.593410 -1.710370 -1.127647 0
M  V30 44 H 5.999585 -0.108960 -0.517301 0
M  V30 45 H 1.136184 2.079211 0.813939 0
M  V30 46 H -0.935067 2.999110 1.780459 0
M  V30 47 H -2.952125 1.707641 1.613794 0
M  V30 48 H -3.387309 -1.406360 -0.287776 0
M  V30 49 H -4.456162 -4.000384 4.899933 0
M  V30 50 H -3.891597 -2.402754 6.761747 0
M  V30 51 H -3.728961 -0.045106 6.234036 0
M  V30 52 H 0.687154 -2.578277 -3.311656 0
M  V30 53 H -0.859921 -2.428689 -5.154346 0
M  V30 54 H -0.472433 2.496679 -5.316648 0
M  V30 55 H -2.072766 2.458519 -4.237363 0
M  V30 END ATOM
M  V30 BEGIN BOND
M  V30 1 1 1 2
M  V30 2 1 2 3
M  V30 3 1 2 4
M  V30 4 1 2 5
M  V30 5 2 5 6
M  V30 6 1 6 7
M  V30 7 1 7 8
M  V30 8 2 8 9
M  V30 9 1 9 10
M  V30 10 2 10 11
M  V30 11 1 11 12
M  V30 12 1 12 13
M  V30 13 1 13 14
M  V30 14 2 14 15
M  V30 15 2 14 16
M  V30 16 1 14 17
M  V30 17 2 17 18
M  V30 18 1 18 19
M  V30 19 1 18 20
M  V30 20 2 20 21
M  V30 21 1 21 22
M  V30 22 2 22 23
M  V30 23 1 23 24
M  V30 24 2 12 25
M  V30 25 1 25 26
M  V30 26 2 7 27
M  V30 27 1 27 28
M  V30 28 2 28 29
M  V30 29 1 29 30
M  V30 30 2 30 31
M  V30 31 1 31 32
M  V30 32 1 32 33
M  V30 33 2 32 34
M  V30 34 1 27 35
M  V30 35 1 35 5
M  V30 36 1 25 8
M  V30 37 1 34 28
M  V30 38 1 23 17
M  V30 39 1 1 36
M  V30 40 1 1 37
M  V30 41 1 1 38
M  V30 42 1 3 39
M  V30 43 1 3 40
M  V30 44 1 3 41
M  V30 45 1 4 42
M  V30 46 1 4 43
M  V30 47 1 4 44
M  V30 48 1 9 45
M  V30 49 1 10 46
M  V30 50 1 11 47
M  V30 51 1 13 48
M  V30 52 1 20 49
M  V30 53 1 21 50
M  V30 54 1 22 51
M  V30 55 1 29 52
M  V30 56 1 30 53
M  V30 57 1 33 54
M  V30 58 1 33 55
M  V30 END BOND
M  V30 END CTAB
M  END
>  <Dataset>  (86) 
PKIs

>  <Ligand_Instance>  (86) 
nan

>  <PDB_ID>  (86) 
nan

>  <Standardized_SMILES>  (86) 
CC(C)(C)c1nc(-c2cccc(NS(=O)(=O)c3c(F)cccc3F)c2F)c(-c2ccnc(N)n2)s1

>  <Name>  (86) 
Dabrafenib

>  <Pocket>  (86) 
nan

>  <ATP_Site>  (86) 
nan

>  <Peripheral>  (86) 
nan

>  <Num_H_Atoms_ProtBoundConf>  (86) 
nan

>  <Num_Resolved_Atoms>  (86) 
nan

>  <Num_Not_Resolved_Atoms>  (86) 
nan

>  <2D_Mol_H>  (86) 
<rdkit.Chem.rdchem.Mol object at 0x72a239141f50>

>  <MW>  (86) 
519.574

>  <HBA>  (86) 
7

>  <HBD>  (86) 
2

>  <LogP>  (86) 
5.3649

>  <NRB>  (86) 
6

>  <TPSA>  (86) 
110.86

>  <Num_Heavy_Atoms>  (86) 
35

>  <Ro5>  (86) 
[False, True, True, False, True, True]

>  <Ro5_Fulfilled>  (86) 
False

>  <Ro3>  (86) 
[False, False, True, False]

>  <Ro3_Fulfilled>  (86) 
False

>  <Fsp3>  (86) 
0.173913

>  <Fsp3_0.42>  (86) 
False

>  <Fsp3_0.45>  (86) 
False

>  <Stereogenic_Carbons>  (86) 
0

>  <C_Atoms>  (86) 
23

>  <FCStereo>  (86) 
0.0

>  <SPS>  (86) 
422

>  <nSPS>  (86) 
12.057143

>  <PBF>  (86) 
1.267971

>  <PBF_0.6>  (86) 
True

>  <nPBF>  (86) 
0.036228

>  <nPBF_0.016>  (86) 
True

>  <PMI1>  (86) 
3597.306646

>  <PMI2>  (86) 
8090.493062

>  <PMI3>  (86) 
10012.425719

>  <NPR1>  (86) 
0.359284

>  <NPR2>  (86) 
0.808045

>  <Sum_NPR>  (86) 
1.167329

>  <Sum_NPR_1.07>  (86) 
True

>  <Sum_NPR_1.2>  (86) 
False

>  <MaxAbsEStateIndex>  (86) 
15.679012

>  <MaxEStateIndex>  (86) 
15.679012

>  <MinAbsEStateIndex>  (86) 
0.021348

>  <MinEStateIndex>  (86) 
-4.777002

>  <qed>  (86) 
0.367049

>  <MolWt>  (86) 
519.574

>  <HeavyAtomMolWt>  (86) 
499.414

>  <ExactMolWt>  (86) 
519.101052

>  <NumValenceElectrons>  (86) 
182

>  <NumRadicalElectrons>  (86) 
0

>  <MaxPartialCharge>  (86) 
0.267357

>  <MinPartialCharge>  (86) 
-0.367775

>  <MaxAbsPartialCharge>  (86) 
0.367775

>  <MinAbsPartialCharge>  (86) 
0.267357

>  <FpDensityMorgan1>  (86) 
0.971429

>  <FpDensityMorgan2>  (86) 
1.628571

>  <FpDensityMorgan3>  (86) 
2.257143

>  <BCUT2D_MWHI>  (86) 
32.233291

>  <BCUT2D_MWLOW>  (86) 
9.978773

>  <BCUT2D_CHGHI>  (86) 
2.281922

>  <BCUT2D_CHGLO>  (86) 
-2.13641

>  <BCUT2D_LOGPHI>  (86) 
2.415885

>  <BCUT2D_LOGPLOW>  (86) 
-2.171045

>  <BCUT2D_MRHI>  (86) 
7.923507

>  <BCUT2D_MRLOW>  (86) 
0.520595

>  <AvgIpc>  (86) 
3.20537

>  <BalabanJ>  (86) 
1.854352

>  <BertzCT>  (86) 
1512.396607

>  <Chi0>  (86) 
25.543241

>  <Chi0n>  (86) 
18.80468

>  <Chi0v>  (86) 
20.437673

>  <Chi1>  (86) 
16.380866

>  <Chi1n>  (86) 
10.241727

>  <Chi1v>  (86) 
12.541387

>  <Chi2n>  (86) 
8.570227

>  <Chi2v>  (86) 
11.188543

>  <Chi3n>  (86) 
4.861437

>  <Chi3v>  (86) 
7.781162

>  <Chi4n>  (86) 
3.226049

>  <Chi4v>  (86) 
5.531793

>  <HallKierAlpha>  (86) 
-3.51

>  <Ipc>  (86) 
47379897.878067

>  <Kappa1>  (86) 
24.609405

>  <Kappa2>  (86) 
8.93045

>  <Kappa3>  (86) 
4.8423

>  <LabuteASA>  (86) 
203.508896

>  <PEOE_VSA1>  (86) 
5.733667

>  <PEOE_VSA10>  (86) 
11.634442

>  <PEOE_VSA11>  (86) 
10.712704

>  <PEOE_VSA12>  (86) 
5.948339

>  <PEOE_VSA13>  (86) 
10.023291

>  <PEOE_VSA14>  (86) 
0.0

>  <PEOE_VSA2>  (86) 
4.722095

>  <PEOE_VSA3>  (86) 
36.540978

>  <PEOE_VSA4>  (86) 
0.0

>  <PEOE_VSA5>  (86) 
11.336786

>  <PEOE_VSA6>  (86) 
32.903946

>  <PEOE_VSA7>  (86) 
30.331835

>  <PEOE_VSA8>  (86) 
17.175286

>  <PEOE_VSA9>  (86) 
26.960013

>  <SMR_VSA1>  (86) 
21.589042

>  <SMR_VSA10>  (86) 
32.995803

>  <SMR_VSA2>  (86) 
0.0

>  <SMR_VSA3>  (86) 
14.951936

>  <SMR_VSA4>  (86) 
0.0

>  <SMR_VSA5>  (86) 
31.081686

>  <SMR_VSA6>  (86) 
10.455762

>  <SMR_VSA7>  (86) 
71.120699

>  <SMR_VSA8>  (86) 
0.0

>  <SMR_VSA9>  (86) 
21.828455

>  <SlogP_VSA1>  (86) 
10.455762

>  <SlogP_VSA10>  (86) 
24.806971

>  <SlogP_VSA11>  (86) 
0.0

>  <SlogP_VSA12>  (86) 
11.336786

>  <SlogP_VSA2>  (86) 
23.369733

>  <SlogP_VSA3>  (86) 
15.438282

>  <SlogP_VSA4>  (86) 
17.451663

>  <SlogP_VSA5>  (86) 
25.778835

>  <SlogP_VSA6>  (86) 
53.556897

>  <SlogP_VSA7>  (86) 
0.0

>  <SlogP_VSA8>  (86) 
21.828455

>  <SlogP_VSA9>  (86) 
0.0

>  <EState_VSA1>  (86) 
38.057823

>  <EState_VSA10>  (86) 
17.198627

>  <EState_VSA11>  (86) 
4.390415

>  <EState_VSA2>  (86) 
22.620709

>  <EState_VSA3>  (86) 
15.578699

>  <EState_VSA4>  (86) 
24.265468

>  <EState_VSA5>  (86) 
29.666364

>  <EState_VSA6>  (86) 
6.066367

>  <EState_VSA7>  (86) 
25.493306

>  <EState_VSA8>  (86) 
14.951936

>  <EState_VSA9>  (86) 
5.733667

>  <VSA_EState1>  (86) 
71.22642

>  <VSA_EState10>  (86) 
1.290128

>  <VSA_EState2>  (86) 
12.014842

>  <VSA_EState3>  (86) 
0.679162

>  <VSA_EState4>  (86) 
5.455886

>  <VSA_EState5>  (86) 
-3.547264

>  <VSA_EState6>  (86) 
8.20488

>  <VSA_EState7>  (86) 
1.46011

>  <VSA_EState8>  (86) 
5.826172

>  <VSA_EState9>  (86) 
-4.777002

>  <FractionCSP3>  (86) 
0.173913

>  <HeavyAtomCount>  (86) 
35

>  <NHOHCount>  (86) 
3

>  <NOCount>  (86) 
7

>  <NumAliphaticCarbocycles>  (86) 
0

>  <NumAliphaticHeterocycles>  (86) 
0

>  <NumAliphaticRings>  (86) 
0

>  <NumAromaticCarbocycles>  (86) 
2

>  <NumAromaticHeterocycles>  (86) 
2

>  <NumAromaticRings>  (86) 
4

>  <NumHAcceptors>  (86) 
7

>  <NumHDonors>  (86) 
2

>  <NumHeteroatoms>  (86) 
12

>  <NumRotatableBonds>  (86) 
5

>  <NumSaturatedCarbocycles>  (86) 
0

>  <NumSaturatedHeterocycles>  (86) 
0

>  <NumSaturatedRings>  (86) 
0

>  <RingCount>  (86) 
4

>  <MolLogP>  (86) 
5.3649

>  <MolMR>  (86) 
128.8129

>  <fr_Al_COO>  (86) 
0

>  <fr_Al_OH>  (86) 
0

>  <fr_Al_OH_noTert>  (86) 
0

>  <fr_ArN>  (86) 
1

>  <fr_Ar_COO>  (86) 
0

>  <fr_Ar_N>  (86) 
3

>  <fr_Ar_NH>  (86) 
0

>  <fr_Ar_OH>  (86) 
0

>  <fr_COO>  (86) 
0

>  <fr_COO2>  (86) 
0

>  <fr_C_O>  (86) 
0

>  <fr_C_O_noCOO>  (86) 
0

>  <fr_C_S>  (86) 
0

>  <fr_HOCCN>  (86) 
0

>  <fr_Imine>  (86) 
0

>  <fr_NH0>  (86) 
3

>  <fr_NH1>  (86) 
1

>  <fr_NH2>  (86) 
1

>  <fr_N_O>  (86) 
0

>  <fr_Ndealkylation1>  (86) 
0

>  <fr_Ndealkylation2>  (86) 
0

>  <fr_Nhpyrrole>  (86) 
0

>  <fr_SH>  (86) 
0

>  <fr_aldehyde>  (86) 
0

>  <fr_alkyl_carbamate>  (86) 
0

>  <fr_alkyl_halide>  (86) 
0

>  <fr_allylic_oxid>  (86) 
0

>  <fr_amide>  (86) 
0

>  <fr_amidine>  (86) 
0

>  <fr_aniline>  (86) 
2

>  <fr_aryl_methyl>  (86) 
0

>  <fr_azide>  (86) 
0

>  <fr_azo>  (86) 
0

>  <fr_barbitur>  (86) 
0

>  <fr_benzene>  (86) 
2

>  <fr_benzodiazepine>  (86) 
0

>  <fr_bicyclic>  (86) 
0

>  <fr_diazo>  (86) 
0

>  <fr_dihydropyridine>  (86) 
0

>  <fr_epoxide>  (86) 
0

>  <fr_ester>  (86) 
0

>  <fr_ether>  (86) 
0

>  <fr_furan>  (86) 
0

>  <fr_guanido>  (86) 
0

>  <fr_halogen>  (86) 
3

>  <fr_hdrzine>  (86) 
0

>  <fr_hdrzone>  (86) 
0

>  <fr_imidazole>  (86) 
0

>  <fr_imide>  (86) 
0

>  <fr_isocyan>  (86) 
0

>  <fr_isothiocyan>  (86) 
0

>  <fr_ketone>  (86) 
0

>  <fr_ketone_Topliss>  (86) 
0

>  <fr_lactam>  (86) 
0

>  <fr_lactone>  (86) 
0

>  <fr_methoxy>  (86) 
0

>  <fr_morpholine>  (86) 
0

>  <fr_nitrile>  (86) 
0

>  <fr_nitro>  (86) 
0

>  <fr_nitro_arom>  (86) 
0

>  <fr_nitro_arom_nonortho>  (86) 
0

>  <fr_nitroso>  (86) 
0

>  <fr_oxazole>  (86) 
0

>  <fr_oxime>  (86) 
0

>  <fr_para_hydroxylation>  (86) 
0

>  <fr_phenol>  (86) 
0

>  <fr_phenol_noOrthoHbond>  (86) 
0

>  <fr_phos_acid>  (86) 
0

>  <fr_phos_ester>  (86) 
0

>  <fr_piperdine>  (86) 
0

>  <fr_piperzine>  (86) 
0

>  <fr_priamide>  (86) 
0

>  <fr_prisulfonamd>  (86) 
0

>  <fr_pyridine>  (86) 
0

>  <fr_quatN>  (86) 
0

>  <fr_sulfide>  (86) 
0

>  <fr_sulfonamd>  (86) 
1

>  <fr_sulfone>  (86) 
0

>  <fr_term_acetylene>  (86) 
0

>  <fr_tetrazole>  (86) 
0

>  <fr_thiazole>  (86) 
1

>  <fr_thiocyan>  (86) 
0

>  <fr_thiophene>  (86) 
0

>  <fr_unbrch_alkane>  (86) 
0

>  <fr_urea>  (86) 
0

>  <NP_Likeness>  (86) 
-1.244279

$$$$
nan
     RDKit          3D

  0  0  0  0  0  0  0  0  0  0999 V3000
M  V30 BEGIN CTAB
M  V30 COUNTS 43 45 0 0 0
M  V30 BEGIN ATOM
M  V30 1 C 0.265891 -2.459311 2.615977 0
M  V30 2 C 1.102171 -1.943442 1.496580 0 CFG=2
M  V30 3 C 2.572844 -2.078334 1.853508 0
M  V30 4 C 3.359123 -2.076970 0.559680 0
M  V30 5 N 2.740377 -1.064128 -0.279570 0
M  V30 6 C 2.915946 -1.310769 -1.644866 0
M  V30 7 O 3.589517 -2.387277 -1.783041 0
M  V30 8 C 2.452301 -0.537381 -2.832230 0
M  V30 9 C 2.920890 -1.251460 -4.030612 0
M  V30 10 N 3.289152 -1.820854 -4.964032 0
M  V30 11 C 2.068821 -0.004760 0.429606 0
M  V30 12 C 0.753670 -0.607094 0.954729 0 CFG=2
M  V30 13 N 0.076663 0.301220 1.827715 0
M  V30 14 C 0.794739 0.598857 3.062357 0
M  V30 15 C -1.170226 0.968970 1.647801 0
M  V30 16 N -1.039080 2.314302 1.800273 0
M  V30 17 C -2.092510 3.142592 1.685915 0
M  V30 18 N -3.320025 2.648200 1.413392 0
M  V30 19 C -3.504143 1.324866 1.252987 0
M  V30 20 N -4.538277 0.506631 0.980972 0
M  V30 21 C -4.124669 -0.793880 0.929608 0
M  V30 22 C -2.747990 -0.825672 1.181437 0
M  V30 23 C -2.425902 0.476281 1.369683 0
M  V30 24 H 0.916666 -2.641801 3.520617 0
M  V30 25 H -0.532688 -1.810941 2.965632 0
M  V30 26 H -0.175327 -3.484639 2.418055 0
M  V30 27 H 0.989529 -2.716462 0.671879 0
M  V30 28 H 2.672408 -3.039821 2.387837 0
M  V30 29 H 2.974859 -1.286811 2.471152 0
M  V30 30 H 4.411061 -1.755461 0.778473 0
M  V30 31 H 3.336590 -3.091180 0.128014 0
M  V30 32 H 1.340011 -0.455925 -2.861051 0
M  V30 33 H 2.881434 0.476895 -2.884791 0
M  V30 34 H 1.829871 0.842902 -0.255054 0
M  V30 35 H 2.726648 0.323919 1.249141 0
M  V30 36 H 0.169328 -0.756839 -0.005880 0
M  V30 37 H 1.634229 1.316137 2.823569 0
M  V30 38 H 0.158301 1.179381 3.772688 0
M  V30 39 H 1.138226 -0.266723 3.618371 0
M  V30 40 H -2.043885 4.211164 1.795905 0
M  V30 41 H -5.526085 0.821029 0.828806 0
M  V30 42 H -4.741928 -1.664443 0.729918 0
M  V30 43 H -2.123564 -1.700353 1.207636 0
M  V30 END ATOM
M  V30 BEGIN BOND
M  V30 1 1 1 2
M  V30 2 1 2 3
M  V30 3 1 3 4
M  V30 4 1 4 5
M  V30 5 1 5 6
M  V30 6 2 6 7
M  V30 7 1 6 8
M  V30 8 1 8 9
M  V30 9 3 9 10
M  V30 10 1 5 11
M  V30 11 1 11 12
M  V30 12 1 12 13
M  V30 13 1 13 14
M  V30 14 1 13 15
M  V30 15 2 15 16
M  V30 16 1 16 17
M  V30 17 2 17 18
M  V30 18 1 18 19
M  V30 19 1 19 20
M  V30 20 1 20 21
M  V30 21 2 21 22
M  V30 22 1 22 23
M  V30 23 1 12 2
M  V30 24 1 23 15
M  V30 25 2 23 19
M  V30 26 1 1 24
M  V30 27 1 1 25
M  V30 28 1 1 26
M  V30 29 1 2 27 CFG=3
M  V30 30 1 3 28
M  V30 31 1 3 29
M  V30 32 1 4 30
M  V30 33 1 4 31
M  V30 34 1 8 32
M  V30 35 1 8 33
M  V30 36 1 11 34
M  V30 37 1 11 35
M  V30 38 1 12 36 CFG=3
M  V30 39 1 14 37
M  V30 40 1 14 38
M  V30 41 1 14 39
M  V30 42 1 17 40
M  V30 43 1 20 41
M  V30 44 1 21 42
M  V30 45 1 22 43
M  V30 END BOND
M  V30 END CTAB
M  END
>  <Dataset>  (87) 
PKIs

>  <Ligand_Instance>  (87) 
nan

>  <PDB_ID>  (87) 
nan

>  <Standardized_SMILES>  (87) 
C[C@@H]1CCN(C(=O)CC#N)C[C@@H]1N(C)c1ncnc2[nH]ccc12

>  <Name>  (87) 
Tofacitinib

>  <Pocket>  (87) 
nan

>  <ATP_Site>  (87) 
nan

>  <Peripheral>  (87) 
nan

>  <Num_H_Atoms_ProtBoundConf>  (87) 
nan

>  <Num_Resolved_Atoms>  (87) 
nan

>  <Num_Not_Resolved_Atoms>  (87) 
nan

>  <2D_Mol_H>  (87) 
<rdkit.Chem.rdchem.Mol object at 0x72a239142030>

>  <MW>  (87) 
312.377

>  <HBA>  (87) 
5

>  <HBD>  (87) 
1

>  <LogP>  (87) 
1.54478

>  <NRB>  (87) 
5

>  <TPSA>  (87) 
88.91

>  <Num_Heavy_Atoms>  (87) 
23

>  <Ro5>  (87) 
[True, True, True, True, True, True]

>  <Ro5_Fulfilled>  (87) 
True

>  <Ro3>  (87) 
[False, False, True, True]

>  <Ro3_Fulfilled>  (87) 
False

>  <Fsp3>  (87) 
0.5

>  <Fsp3_0.42>  (87) 
True

>  <Fsp3_0.45>  (87) 
True

>  <Stereogenic_Carbons>  (87) 
2

>  <C_Atoms>  (87) 
16

>  <FCStereo>  (87) 
0.125

>  <SPS>  (87) 
487

>  <nSPS>  (87) 
21.173913

>  <PBF>  (87) 
1.198047

>  <PBF_0.6>  (87) 
True

>  <nPBF>  (87) 
0.052089

>  <nPBF_0.016>  (87) 
True

>  <PMI1>  (87) 
1220.292419

>  <PMI2>  (87) 
3535.807722

>  <PMI3>  (87) 
3912.177924

>  <NPR1>  (87) 
0.311922

>  <NPR2>  (87) 
0.903795

>  <Sum_NPR>  (87) 
1.215717

>  <Sum_NPR_1.07>  (87) 
True

>  <Sum_NPR_1.2>  (87) 
True

>  <MaxAbsEStateIndex>  (87) 
12.034772

>  <MaxEStateIndex>  (87) 
12.034772

>  <MinAbsEStateIndex>  (87) 
0.05518

>  <MinEStateIndex>  (87) 
-0.090482

>  <qed>  (87) 
0.928451

>  <MolWt>  (87) 
312.377

>  <HeavyAtomMolWt>  (87) 
292.217

>  <ExactMolWt>  (87) 
312.169859

>  <NumValenceElectrons>  (87) 
120

>  <NumRadicalElectrons>  (87) 
0

>  <MaxPartialCharge>  (87) 
0.23636

>  <MinPartialCharge>  (87) 
-0.353979

>  <MaxAbsPartialCharge>  (87) 
0.353979

>  <MinAbsPartialCharge>  (87) 
0.23636

>  <FpDensityMorgan1>  (87) 
1.565217

>  <FpDensityMorgan2>  (87) 
2.391304

>  <FpDensityMorgan3>  (87) 
3.173913

>  <BCUT2D_MWHI>  (87) 
16.152721

>  <BCUT2D_MWLOW>  (87) 
9.917355

>  <BCUT2D_CHGHI>  (87) 
2.320512

>  <BCUT2D_CHGLO>  (87) 
-2.416473

>  <BCUT2D_LOGPHI>  (87) 
2.28202

>  <BCUT2D_LOGPLOW>  (87) 
-2.523838

>  <BCUT2D_MRHI>  (87) 
5.869639

>  <BCUT2D_MRLOW>  (87) 
-0.131309

>  <AvgIpc>  (87) 
3.030637

>  <BalabanJ>  (87) 
1.849798

>  <BertzCT>  (87) 
748.353572

>  <Chi0>  (87) 
16.396977

>  <Chi0n>  (87) 
13.359495

>  <Chi0v>  (87) 
13.359495

>  <Chi1>  (87) 
11.113392

>  <Chi1n>  (87) 
7.771394

>  <Chi1v>  (87) 
7.771394

>  <Chi2n>  (87) 
6.056085

>  <Chi2v>  (87) 
6.056085

>  <Chi3n>  (87) 
4.666128

>  <Chi3v>  (87) 
4.666128

>  <Chi4n>  (87) 
3.25587

>  <Chi4v>  (87) 
3.25587

>  <HallKierAlpha>  (87) 
-2.62

>  <Ipc>  (87) 
249697.18601

>  <Kappa1>  (87) 
15.2824

>  <Kappa2>  (87) 
6.244406

>  <Kappa3>  (87) 
2.842656

>  <LabuteASA>  (87) 
134.478883

>  <PEOE_VSA1>  (87) 
14.783798

>  <PEOE_VSA10>  (87) 
24.213182

>  <PEOE_VSA11>  (87) 
0.0

>  <PEOE_VSA12>  (87) 
5.90718

>  <PEOE_VSA13>  (87) 
0.0

>  <PEOE_VSA14>  (87) 
0.0

>  <PEOE_VSA2>  (87) 
4.794537

>  <PEOE_VSA3>  (87) 
9.967957

>  <PEOE_VSA4>  (87) 
5.261892

>  <PEOE_VSA5>  (87) 
0.0

>  <PEOE_VSA6>  (87) 
6.923737

>  <PEOE_VSA7>  (87) 
18.405095

>  <PEOE_VSA8>  (87) 
26.334028

>  <PEOE_VSA9>  (87) 
17.497286

>  <SMR_VSA1>  (87) 
4.794537

>  <SMR_VSA10>  (87) 
22.758444

>  <SMR_VSA2>  (87) 
5.261892

>  <SMR_VSA3>  (87) 
19.851845

>  <SMR_VSA4>  (87) 
5.917906

>  <SMR_VSA5>  (87) 
25.807221

>  <SMR_VSA6>  (87) 
25.037095

>  <SMR_VSA7>  (87) 
18.590531

>  <SMR_VSA8>  (87) 
0.0

>  <SMR_VSA9>  (87) 
6.069221

>  <SlogP_VSA1>  (87) 
4.89991

>  <SlogP_VSA10>  (87) 
5.817863

>  <SlogP_VSA11>  (87) 
0.0

>  <SlogP_VSA12>  (87) 
0.0

>  <SlogP_VSA2>  (87) 
51.938051

>  <SlogP_VSA3>  (87) 
4.794537

>  <SlogP_VSA4>  (87) 
17.249019

>  <SlogP_VSA5>  (87) 
19.76538

>  <SlogP_VSA6>  (87) 
18.590531

>  <SlogP_VSA7>  (87) 
0.0

>  <SlogP_VSA8>  (87) 
11.033401

>  <SlogP_VSA9>  (87) 
0.0

>  <EState_VSA1>  (87) 
0.0

>  <EState_VSA10>  (87) 
4.794537

>  <EState_VSA11>  (87) 
0.0

>  <EState_VSA2>  (87) 
18.369842

>  <EState_VSA3>  (87) 
12.462662

>  <EState_VSA4>  (87) 
29.816842

>  <EState_VSA5>  (87) 
0.0

>  <EState_VSA6>  (87) 
11.22723

>  <EState_VSA7>  (87) 
25.380104

>  <EState_VSA8>  (87) 
26.775582

>  <EState_VSA9>  (87) 
5.261892

>  <VSA_EState1>  (87) 
0.0

>  <VSA_EState10>  (87) 
0.0

>  <VSA_EState2>  (87) 
27.709902

>  <VSA_EState3>  (87) 
9.713466

>  <VSA_EState4>  (87) 
0.808079

>  <VSA_EState5>  (87) 
1.213013

>  <VSA_EState6>  (87) 
4.074528

>  <VSA_EState7>  (87) 
4.272234

>  <VSA_EState8>  (87) 
3.533968

>  <VSA_EState9>  (87) 
2.008144

>  <FractionCSP3>  (87) 
0.5

>  <HeavyAtomCount>  (87) 
23

>  <NHOHCount>  (87) 
1

>  <NOCount>  (87) 
7

>  <NumAliphaticCarbocycles>  (87) 
0

>  <NumAliphaticHeterocycles>  (87) 
1

>  <NumAliphaticRings>  (87) 
1

>  <NumAromaticCarbocycles>  (87) 
0

>  <NumAromaticHeterocycles>  (87) 
2

>  <NumAromaticRings>  (87) 
2

>  <NumHAcceptors>  (87) 
5

>  <NumHDonors>  (87) 
1

>  <NumHeteroatoms>  (87) 
7

>  <NumRotatableBonds>  (87) 
3

>  <NumSaturatedCarbocycles>  (87) 
0

>  <NumSaturatedHeterocycles>  (87) 
1

>  <NumSaturatedRings>  (87) 
1

>  <RingCount>  (87) 
3

>  <MolLogP>  (87) 
1.54478

>  <MolMR>  (87) 
86.6707

>  <fr_Al_COO>  (87) 
0

>  <fr_Al_OH>  (87) 
0

>  <fr_Al_OH_noTert>  (87) 
0

>  <fr_ArN>  (87) 
0

>  <fr_Ar_COO>  (87) 
0

>  <fr_Ar_N>  (87) 
3

>  <fr_Ar_NH>  (87) 
1

>  <fr_Ar_OH>  (87) 
0

>  <fr_COO>  (87) 
0

>  <fr_COO2>  (87) 
0

>  <fr_C_O>  (87) 
1

>  <fr_C_O_noCOO>  (87) 
1

>  <fr_C_S>  (87) 
0

>  <fr_HOCCN>  (87) 
0

>  <fr_Imine>  (87) 
0

>  <fr_NH0>  (87) 
5

>  <fr_NH1>  (87) 
1

>  <fr_NH2>  (87) 
0

>  <fr_N_O>  (87) 
0

>  <fr_Ndealkylation1>  (87) 
1

>  <fr_Ndealkylation2>  (87) 
1

>  <fr_Nhpyrrole>  (87) 
1

>  <fr_SH>  (87) 
0

>  <fr_aldehyde>  (87) 
0

>  <fr_alkyl_carbamate>  (87) 
0

>  <fr_alkyl_halide>  (87) 
0

>  <fr_allylic_oxid>  (87) 
0

>  <fr_amide>  (87) 
1

>  <fr_amidine>  (87) 
0

>  <fr_aniline>  (87) 
1

>  <fr_aryl_methyl>  (87) 
0

>  <fr_azide>  (87) 
0

>  <fr_azo>  (87) 
0

>  <fr_barbitur>  (87) 
0

>  <fr_benzene>  (87) 
0

>  <fr_benzodiazepine>  (87) 
0

>  <fr_bicyclic>  (87) 
1

>  <fr_diazo>  (87) 
0

>  <fr_dihydropyridine>  (87) 
0

>  <fr_epoxide>  (87) 
0

>  <fr_ester>  (87) 
0

>  <fr_ether>  (87) 
0

>  <fr_furan>  (87) 
0

>  <fr_guanido>  (87) 
0

>  <fr_halogen>  (87) 
0

>  <fr_hdrzine>  (87) 
0

>  <fr_hdrzone>  (87) 
0

>  <fr_imidazole>  (87) 
0

>  <fr_imide>  (87) 
0

>  <fr_isocyan>  (87) 
0

>  <fr_isothiocyan>  (87) 
0

>  <fr_ketone>  (87) 
0

>  <fr_ketone_Topliss>  (87) 
0

>  <fr_lactam>  (87) 
0

>  <fr_lactone>  (87) 
0

>  <fr_methoxy>  (87) 
0

>  <fr_morpholine>  (87) 
0

>  <fr_nitrile>  (87) 
1

>  <fr_nitro>  (87) 
0

>  <fr_nitro_arom>  (87) 
0

>  <fr_nitro_arom_nonortho>  (87) 
0

>  <fr_nitroso>  (87) 
0

>  <fr_oxazole>  (87) 
0

>  <fr_oxime>  (87) 
0

>  <fr_para_hydroxylation>  (87) 
0

>  <fr_phenol>  (87) 
0

>  <fr_phenol_noOrthoHbond>  (87) 
0

>  <fr_phos_acid>  (87) 
0

>  <fr_phos_ester>  (87) 
0

>  <fr_piperdine>  (87) 
1

>  <fr_piperzine>  (87) 
0

>  <fr_priamide>  (87) 
0

>  <fr_prisulfonamd>  (87) 
0

>  <fr_pyridine>  (87) 
0

>  <fr_quatN>  (87) 
0

>  <fr_sulfide>  (87) 
0

>  <fr_sulfonamd>  (87) 
0

>  <fr_sulfone>  (87) 
0

>  <fr_term_acetylene>  (87) 
0

>  <fr_tetrazole>  (87) 
0

>  <fr_thiazole>  (87) 
0

>  <fr_thiocyan>  (87) 
0

>  <fr_thiophene>  (87) 
0

>  <fr_unbrch_alkane>  (87) 
0

>  <fr_urea>  (87) 
0

>  <NP_Likeness>  (87) 
-1.138099

$$$$
nan
     RDKit          3D

  0  0  0  0  0  0  0  0  0  0999 V3000
M  V30 BEGIN CTAB
M  V30 COUNTS 61 65 0 0 0
M  V30 BEGIN ATOM
M  V30 1 C 5.551937 -3.771430 1.765213 0
M  V30 2 O 4.943657 -2.538010 1.504408 0
M  V30 3 C 4.320962 -2.177156 0.337224 0
M  V30 4 C 4.237674 -3.055141 -0.751037 0
M  V30 5 C 3.604851 -2.661283 -1.908895 0
M  V30 6 N 3.479101 -3.428424 -3.020442 0
M  V30 7 C 2.852133 -2.956502 -4.114818 0
M  V30 8 C 2.307810 -1.662482 -4.146893 0
M  V30 9 C 2.418911 -0.841718 -3.014908 0
M  V30 10 O 1.812012 0.337829 -3.321284 0
M  V30 11 C 0.705356 0.802044 -2.653804 0
M  V30 12 C 0.379015 1.728388 -1.683687 0
M  V30 13 C -0.896428 1.940142 -1.225138 0
M  V30 14 C -1.896540 1.190130 -1.761768 0
M  V30 15 N -3.205640 1.466170 -1.212585 0
M  V30 16 C -3.285014 0.552220 -0.106985 0
M  V30 17 O -2.186262 -0.056184 -0.132233 0
M  V30 18 C -4.445698 0.439072 0.789931 0
M  V30 19 C -4.227021 -0.177658 2.114029 0
M  V30 20 O -5.230916 -0.295829 2.897022 0
M  V30 21 N -3.010311 -0.661528 2.625993 0
M  V30 22 C -2.552941 -1.274415 3.816237 0
M  V30 23 C -2.629809 -2.660910 3.738238 0
M  V30 24 C -2.226246 -3.450641 4.804542 0
M  V30 25 C -1.754810 -2.795660 5.922642 0
M  V30 26 F -1.320693 -3.441159 7.052637 0
M  V30 27 C -1.672730 -1.419571 6.015702 0
M  V30 28 C -2.078326 -0.641827 4.944348 0
M  V30 29 C -5.578461 1.395503 0.698909 0
M  V30 30 C -5.795455 0.037839 0.156639 0
M  V30 31 C -1.662563 0.238180 -2.740144 0
M  V30 32 C -0.342234 0.055202 -3.179118 0
M  V30 33 C 3.071204 -1.406234 -1.956261 0
M  V30 34 C 3.146204 -0.534724 -0.896929 0
M  V30 35 C 3.770195 -0.891614 0.277177 0
M  V30 36 O 3.874690 -0.050791 1.383200 0
M  V30 37 C 3.283546 1.242497 1.245064 0
M  V30 38 H 6.409217 -3.627009 2.464167 0
M  V30 39 H 5.912338 -4.301943 0.863094 0
M  V30 40 H 4.878276 -4.490566 2.312587 0
M  V30 41 H 4.653553 -4.036595 -0.714533 0
M  V30 42 H 2.840975 -3.692133 -4.905528 0
M  V30 43 H 1.858593 -1.515972 -5.130893 0
M  V30 44 H 1.303850 2.230405 -1.390046 0
M  V30 45 H -0.924053 2.701029 -0.474820 0
M  V30 46 H -4.011587 2.123411 -1.435452 0
M  V30 47 H -2.151172 -0.606802 2.075822 0
M  V30 48 H -2.991268 -3.233512 2.886681 0
M  V30 49 H -2.258538 -4.546234 4.811493 0
M  V30 50 H -1.310463 -0.873196 6.871757 0
M  V30 51 H -2.063399 0.441890 4.892628 0
M  V30 52 H -6.162825 1.595735 1.644327 0
M  V30 53 H -5.623715 2.229826 -0.001269 0
M  V30 54 H -6.389107 -0.740776 0.659386 0
M  V30 55 H -5.730009 -0.066964 -0.964645 0
M  V30 56 H -2.576297 -0.251455 -3.041484 0
M  V30 57 H -0.406870 -0.736440 -3.941774 0
M  V30 58 H 2.750995 0.463026 -0.898483 0
M  V30 59 H 3.279892 1.785920 2.202293 0
M  V30 60 H 3.725910 1.823579 0.416195 0
M  V30 61 H 2.196729 1.089833 0.971701 0
M  V30 END ATOM
M  V30 BEGIN BOND
M  V30 1 1 1 2
M  V30 2 1 2 3
M  V30 3 2 3 4
M  V30 4 1 4 5
M  V30 5 2 5 6
M  V30 6 1 6 7
M  V30 7 2 7 8
M  V30 8 1 8 9
M  V30 9 1 9 10
M  V30 10 1 10 11
M  V30 11 2 11 12
M  V30 12 1 12 13
M  V30 13 2 13 14
M  V30 14 1 14 15
M  V30 15 1 15 16
M  V30 16 2 16 17
M  V30 17 1 16 18
M  V30 18 1 18 19
M  V30 19 2 19 20
M  V30 20 1 19 21
M  V30 21 1 21 22
M  V30 22 2 22 23
M  V30 23 1 23 24
M  V30 24 2 24 25
M  V30 25 1 25 26
M  V30 26 1 25 27
M  V30 27 2 27 28
M  V30 28 1 18 29
M  V30 29 1 29 30
M  V30 30 1 14 31
M  V30 31 2 31 32
M  V30 32 2 9 33
M  V30 33 1 33 34
M  V30 34 2 34 35
M  V30 35 1 35 36
M  V30 36 1 36 37
M  V30 37 1 35 3
M  V30 38 1 33 5
M  V30 39 1 32 11
M  V30 40 1 30 18
M  V30 41 1 28 22
M  V30 42 1 1 38
M  V30 43 1 1 39
M  V30 44 1 1 40
M  V30 45 1 4 41
M  V30 46 1 7 42
M  V30 47 1 8 43
M  V30 48 1 12 44
M  V30 49 1 13 45
M  V30 50 1 15 46
M  V30 51 1 21 47
M  V30 52 1 23 48
M  V30 53 1 24 49
M  V30 54 1 27 50
M  V30 55 1 28 51
M  V30 56 1 29 52
M  V30 57 1 29 53
M  V30 58 1 30 54
M  V30 59 1 30 55
M  V30 60 1 31 56
M  V30 61 1 32 57
M  V30 62 1 34 58
M  V30 63 1 37 59
M  V30 64 1 37 60
M  V30 65 1 37 61
M  V30 END BOND
M  V30 END CTAB
M  END
>  <Dataset>  (88) 
PKIs

>  <Ligand_Instance>  (88) 
nan

>  <PDB_ID>  (88) 
nan

>  <Standardized_SMILES>  (88) 
COc1cc2nccc(Oc3ccc(NC(=O)C4(C(=O)Nc5ccc(F)cc5)CC4)cc3)c2cc1OC

>  <Name>  (88) 
Cabozantinib

>  <Pocket>  (88) 
nan

>  <ATP_Site>  (88) 
nan

>  <Peripheral>  (88) 
nan

>  <Num_H_Atoms_ProtBoundConf>  (88) 
nan

>  <Num_Resolved_Atoms>  (88) 
nan

>  <Num_Not_Resolved_Atoms>  (88) 
nan

>  <2D_Mol_H>  (88) 
<rdkit.Chem.rdchem.Mol object at 0x72a239142110>

>  <MW>  (88) 
501.514

>  <HBA>  (88) 
6

>  <HBD>  (88) 
2

>  <LogP>  (88) 
5.5408

>  <NRB>  (88) 
10

>  <TPSA>  (88) 
98.78

>  <Num_Heavy_Atoms>  (88) 
37

>  <Ro5>  (88) 
[False, True, True, False, True, True]

>  <Ro5_Fulfilled>  (88) 
False

>  <Ro3>  (88) 
[False, False, True, False]

>  <Ro3_Fulfilled>  (88) 
False

>  <Fsp3>  (88) 
0.178571

>  <Fsp3_0.42>  (88) 
False

>  <Fsp3_0.45>  (88) 
False

>  <Stereogenic_Carbons>  (88) 
0

>  <C_Atoms>  (88) 
28

>  <FCStereo>  (88) 
0.0

>  <SPS>  (88) 
499

>  <nSPS>  (88) 
13.486486

>  <PBF>  (88) 
1.241284

>  <PBF_0.6>  (88) 
True

>  <nPBF>  (88) 
0.033548

>  <nPBF_0.016>  (88) 
True

>  <PMI1>  (88) 
4669.417395

>  <PMI2>  (88) 
7641.428863

>  <PMI3>  (88) 
10848.891859

>  <NPR1>  (88) 
0.430405

>  <NPR2>  (88) 
0.704351

>  <Sum_NPR>  (88) 
1.134756

>  <Sum_NPR_1.07>  (88) 
True

>  <Sum_NPR_1.2>  (88) 
False

>  <MaxAbsEStateIndex>  (88) 
13.121104

>  <MaxEStateIndex>  (88) 
13.121104

>  <MinAbsEStateIndex>  (88) 
0.387083

>  <MinEStateIndex>  (88) 
-1.139261

>  <qed>  (88) 
0.307722

>  <MolWt>  (88) 
501.514

>  <HeavyAtomMolWt>  (88) 
477.322

>  <ExactMolWt>  (88) 
501.169999

>  <NumValenceElectrons>  (88) 
188

>  <NumRadicalElectrons>  (88) 
0

>  <MaxPartialCharge>  (88) 
0.239584

>  <MinPartialCharge>  (88) 
-0.492842

>  <MaxAbsPartialCharge>  (88) 
0.492842

>  <MinAbsPartialCharge>  (88) 
0.239584

>  <FpDensityMorgan1>  (88) 
0.810811

>  <FpDensityMorgan2>  (88) 
1.378378

>  <FpDensityMorgan3>  (88) 
1.945946

>  <BCUT2D_MWHI>  (88) 
19.142149

>  <BCUT2D_MWLOW>  (88) 
10.045928

>  <BCUT2D_CHGHI>  (88) 
2.561516

>  <BCUT2D_CHGLO>  (88) 
-2.158078

>  <BCUT2D_LOGPHI>  (88) 
2.473394

>  <BCUT2D_LOGPLOW>  (88) 
-2.352

>  <BCUT2D_MRHI>  (88) 
6.16464

>  <BCUT2D_MRLOW>  (88) 
-0.130671

>  <AvgIpc>  (88) 
3.728396

>  <BalabanJ>  (88) 
1.269889

>  <BertzCT>  (88) 
1468.185545

>  <Chi0>  (88) 
25.992989

>  <Chi0n>  (88) 
20.208836

>  <Chi0v>  (88) 
20.208836

>  <Chi1>  (88) 
17.912184

>  <Chi1n>  (88) 
11.58858

>  <Chi1v>  (88) 
11.58858

>  <Chi2n>  (88) 
8.657116

>  <Chi2v>  (88) 
8.657116

>  <Chi3n>  (88) 
6.268239

>  <Chi3v>  (88) 
6.268239

>  <Chi4n>  (88) 
3.986669

>  <Chi4v>  (88) 
3.986669

>  <HallKierAlpha>  (88) 
-4.66

>  <Ipc>  (88) 
426667470.814882

>  <Kappa1>  (88) 
24.052939

>  <Kappa2>  (88) 
9.769917

>  <Kappa3>  (88) 
4.881734

>  <LabuteASA>  (88) 
211.924607

>  <PEOE_VSA1>  (88) 
24.844166

>  <PEOE_VSA10>  (88) 
22.731235

>  <PEOE_VSA11>  (88) 
11.499024

>  <PEOE_VSA12>  (88) 
11.814359

>  <PEOE_VSA13>  (88) 
0.0

>  <PEOE_VSA14>  (88) 
0.0

>  <PEOE_VSA2>  (88) 
14.573053

>  <PEOE_VSA3>  (88) 
4.390415

>  <PEOE_VSA4>  (88) 
0.0

>  <PEOE_VSA5>  (88) 
0.0

>  <PEOE_VSA6>  (88) 
0.0

>  <PEOE_VSA7>  (88) 
73.505314

>  <PEOE_VSA8>  (88) 
29.024207

>  <PEOE_VSA9>  (88) 
19.736296

>  <SMR_VSA1>  (88) 
28.190078

>  <SMR_VSA10>  (88) 
34.092057

>  <SMR_VSA2>  (88) 
0.0

>  <SMR_VSA3>  (88) 
4.983979

>  <SMR_VSA4>  (88) 
5.41499

>  <SMR_VSA5>  (88) 
12.841643

>  <SMR_VSA6>  (88) 
24.853172

>  <SMR_VSA7>  (88) 
78.744102

>  <SMR_VSA8>  (88) 
0.0

>  <SMR_VSA9>  (88) 
22.998047

>  <SlogP_VSA1>  (88) 
24.844166

>  <SlogP_VSA10>  (88) 
15.765188

>  <SlogP_VSA11>  (88) 
22.998047

>  <SlogP_VSA12>  (88) 
0.0

>  <SlogP_VSA2>  (88) 
31.017933

>  <SlogP_VSA3>  (88) 
9.589074

>  <SlogP_VSA4>  (88) 
11.232211

>  <SlogP_VSA5>  (88) 
12.841643

>  <SlogP_VSA6>  (88) 
72.926881

>  <SlogP_VSA7>  (88) 
0.0

>  <SlogP_VSA8>  (88) 
10.902925

>  <SlogP_VSA9>  (88) 
0.0

>  <EState_VSA1>  (88) 
17.139391

>  <EState_VSA10>  (88) 
13.979489

>  <EState_VSA11>  (88) 
0.0

>  <EState_VSA2>  (88) 
5.90718

>  <EState_VSA3>  (88) 
52.731164

>  <EState_VSA4>  (88) 
5.386224

>  <EState_VSA5>  (88) 
24.265468

>  <EState_VSA6>  (88) 
62.881008

>  <EState_VSA7>  (88) 
0.0

>  <EState_VSA8>  (88) 
15.617556

>  <EState_VSA9>  (88) 
14.210589

>  <VSA_EState1>  (88) 
29.941158

>  <VSA_EState10>  (88) 
0.0

>  <VSA_EState2>  (88) 
30.056649

>  <VSA_EState3>  (88) 
6.260092

>  <VSA_EState4>  (88) 
0.516807

>  <VSA_EState5>  (88) 
1.062064

>  <VSA_EState6>  (88) 
17.597472

>  <VSA_EState7>  (88) 
2.524887

>  <VSA_EState8>  (88) 
0.0

>  <VSA_EState9>  (88) 
3.124203

>  <FractionCSP3>  (88) 
0.178571

>  <HeavyAtomCount>  (88) 
37

>  <NHOHCount>  (88) 
2

>  <NOCount>  (88) 
8

>  <NumAliphaticCarbocycles>  (88) 
1

>  <NumAliphaticHeterocycles>  (88) 
0

>  <NumAliphaticRings>  (88) 
1

>  <NumAromaticCarbocycles>  (88) 
3

>  <NumAromaticHeterocycles>  (88) 
1

>  <NumAromaticRings>  (88) 
4

>  <NumHAcceptors>  (88) 
6

>  <NumHDonors>  (88) 
2

>  <NumHeteroatoms>  (88) 
9

>  <NumRotatableBonds>  (88) 
8

>  <NumSaturatedCarbocycles>  (88) 
1

>  <NumSaturatedHeterocycles>  (88) 
0

>  <NumSaturatedRings>  (88) 
1

>  <RingCount>  (88) 
5

>  <MolLogP>  (88) 
5.5408

>  <MolMR>  (88) 
136.6894

>  <fr_Al_COO>  (88) 
0

>  <fr_Al_OH>  (88) 
0

>  <fr_Al_OH_noTert>  (88) 
0

>  <fr_ArN>  (88) 
0

>  <fr_Ar_COO>  (88) 
0

>  <fr_Ar_N>  (88) 
1

>  <fr_Ar_NH>  (88) 
0

>  <fr_Ar_OH>  (88) 
0

>  <fr_COO>  (88) 
0

>  <fr_COO2>  (88) 
0

>  <fr_C_O>  (88) 
2

>  <fr_C_O_noCOO>  (88) 
2

>  <fr_C_S>  (88) 
0

>  <fr_HOCCN>  (88) 
0

>  <fr_Imine>  (88) 
0

>  <fr_NH0>  (88) 
1

>  <fr_NH1>  (88) 
2

>  <fr_NH2>  (88) 
0

>  <fr_N_O>  (88) 
0

>  <fr_Ndealkylation1>  (88) 
0

>  <fr_Ndealkylation2>  (88) 
0

>  <fr_Nhpyrrole>  (88) 
0

>  <fr_SH>  (88) 
0

>  <fr_aldehyde>  (88) 
0

>  <fr_alkyl_carbamate>  (88) 
0

>  <fr_alkyl_halide>  (88) 
0

>  <fr_allylic_oxid>  (88) 
0

>  <fr_amide>  (88) 
2

>  <fr_amidine>  (88) 
0

>  <fr_aniline>  (88) 
2

>  <fr_aryl_methyl>  (88) 
0

>  <fr_azide>  (88) 
0

>  <fr_azo>  (88) 
0

>  <fr_barbitur>  (88) 
0

>  <fr_benzene>  (88) 
3

>  <fr_benzodiazepine>  (88) 
0

>  <fr_bicyclic>  (88) 
1

>  <fr_diazo>  (88) 
0

>  <fr_dihydropyridine>  (88) 
0

>  <fr_epoxide>  (88) 
0

>  <fr_ester>  (88) 
0

>  <fr_ether>  (88) 
3

>  <fr_furan>  (88) 
0

>  <fr_guanido>  (88) 
0

>  <fr_halogen>  (88) 
1

>  <fr_hdrzine>  (88) 
0

>  <fr_hdrzone>  (88) 
0

>  <fr_imidazole>  (88) 
0

>  <fr_imide>  (88) 
0

>  <fr_isocyan>  (88) 
0

>  <fr_isothiocyan>  (88) 
0

>  <fr_ketone>  (88) 
0

>  <fr_ketone_Topliss>  (88) 
0

>  <fr_lactam>  (88) 
0

>  <fr_lactone>  (88) 
0

>  <fr_methoxy>  (88) 
2

>  <fr_morpholine>  (88) 
0

>  <fr_nitrile>  (88) 
0

>  <fr_nitro>  (88) 
0

>  <fr_nitro_arom>  (88) 
0

>  <fr_nitro_arom_nonortho>  (88) 
0

>  <fr_nitroso>  (88) 
0

>  <fr_oxazole>  (88) 
0

>  <fr_oxime>  (88) 
0

>  <fr_para_hydroxylation>  (88) 
0

>  <fr_phenol>  (88) 
0

>  <fr_phenol_noOrthoHbond>  (88) 
0

>  <fr_phos_acid>  (88) 
0

>  <fr_phos_ester>  (88) 
0

>  <fr_piperdine>  (88) 
0

>  <fr_piperzine>  (88) 
0

>  <fr_priamide>  (88) 
0

>  <fr_prisulfonamd>  (88) 
0

>  <fr_pyridine>  (88) 
1

>  <fr_quatN>  (88) 
0

>  <fr_sulfide>  (88) 
0

>  <fr_sulfonamd>  (88) 
0

>  <fr_sulfone>  (88) 
0

>  <fr_term_acetylene>  (88) 
0

>  <fr_tetrazole>  (88) 
0

>  <fr_thiazole>  (88) 
0

>  <fr_thiocyan>  (88) 
0

>  <fr_thiophene>  (88) 
0

>  <fr_unbrch_alkane>  (88) 
0

>  <fr_urea>  (88) 
0

>  <NP_Likeness>  (88) 
-0.758958

$$$$
nan
     RDKit          3D

  0  0  0  0  0  0  0  0  0  0999 V3000
M  V30 BEGIN CTAB
M  V30 COUNTS 46 49 0 0 0
M  V30 BEGIN ATOM
M  V30 1 C 2.052638 0.191731 -1.326533 0
M  V30 2 N 2.536367 1.278925 -0.512884 0
M  V30 3 C 1.867821 2.323876 0.152905 0
M  V30 4 O 0.593324 2.387493 0.072788 0
M  V30 5 C 2.582619 3.352169 0.936687 0
M  V30 6 C 3.107897 4.307067 0.033191 0
M  V30 7 C 3.815353 5.270543 0.785211 0
M  V30 8 C 3.993424 5.326302 2.118341 0
M  V30 9 C 3.422824 4.322100 2.902718 0
M  V30 10 C 2.690910 3.299119 2.281542 0
M  V30 11 S 2.066558 2.113691 3.386971 0
M  V30 12 C 0.988945 0.885236 2.724305 0
M  V30 13 C 1.362458 -0.307916 2.136739 0
M  V30 14 C 0.442934 -1.254788 1.657561 0
M  V30 15 C -0.863513 -0.808902 1.865522 0
M  V30 16 C -1.927671 -1.590466 1.447723 0
M  V30 17 C -2.170753 -2.875752 0.829271 0
M  V30 18 C -3.151889 -3.574681 0.354608 0
M  V30 19 C -2.819052 -4.867703 -0.179195 0
M  V30 20 C -3.795161 -5.653036 -0.781850 0
M  V30 21 C -3.451404 -6.930658 -1.287346 0
M  V30 22 C -2.116160 -7.326239 -1.143263 0
M  V30 23 C -1.132742 -6.537436 -0.538432 0
M  V30 24 N -1.621730 -5.410969 -0.137396 0
M  V30 25 N -3.054733 -0.879572 1.773746 0
M  V30 26 N -2.670768 0.241833 2.344705 0
M  V30 27 C -1.349062 0.335145 2.426745 0
M  V30 28 C -0.366545 1.229114 2.880098 0
M  V30 29 H 1.886267 -0.734283 -0.743195 0
M  V30 30 H 2.823892 -0.107729 -2.093482 0
M  V30 31 H 1.114568 0.446847 -1.858411 0
M  V30 32 H 3.583794 1.304928 -0.385534 0
M  V30 33 H 2.993248 4.308780 -1.024668 0
M  V30 34 H 4.278216 6.073103 0.171298 0
M  V30 35 H 4.560093 6.117918 2.584322 0
M  V30 36 H 3.593008 4.411088 3.962526 0
M  V30 37 H 2.411575 -0.402056 2.098842 0
M  V30 38 H 0.776417 -2.162015 1.214273 0
M  V30 39 H -1.161982 -3.345007 0.798854 0
M  V30 40 H -4.030260 -3.008865 0.478707 0
M  V30 41 H -4.780746 -5.211802 -0.828875 0
M  V30 42 H -4.219124 -7.529311 -1.750000 0
M  V30 43 H -1.812353 -8.305242 -1.522801 0
M  V30 44 H -0.118619 -6.868072 -0.444050 0
M  V30 45 H -3.302862 0.993760 2.709526 0
M  V30 46 H -0.739724 2.125264 3.316092 0
M  V30 END ATOM
M  V30 BEGIN BOND
M  V30 1 1 1 2
M  V30 2 1 2 3
M  V30 3 2 3 4
M  V30 4 1 3 5
M  V30 5 2 5 6
M  V30 6 1 6 7
M  V30 7 2 7 8
M  V30 8 1 8 9
M  V30 9 2 9 10
M  V30 10 1 10 11
M  V30 11 1 11 12
M  V30 12 2 12 13
M  V30 13 1 13 14
M  V30 14 2 14 15
M  V30 15 1 15 16
M  V30 16 1 16 17
M  V30 17 2 17 18
M  V30 18 1 18 19
M  V30 19 2 19 20
M  V30 20 1 20 21
M  V30 21 2 21 22
M  V30 22 1 22 23
M  V30 23 2 23 24
M  V30 24 2 16 25
M  V30 25 1 25 26
M  V30 26 1 26 27
M  V30 27 2 27 28
M  V30 28 1 10 5
M  V30 29 1 28 12
M  V30 30 1 27 15
M  V30 31 1 24 19
M  V30 32 1 1 29
M  V30 33 1 1 30
M  V30 34 1 1 31
M  V30 35 1 2 32
M  V30 36 1 6 33
M  V30 37 1 7 34
M  V30 38 1 8 35
M  V30 39 1 9 36
M  V30 40 1 13 37
M  V30 41 1 14 38
M  V30 42 1 17 39
M  V30 43 1 18 40
M  V30 44 1 20 41
M  V30 45 1 21 42
M  V30 46 1 22 43
M  V30 47 1 23 44
M  V30 48 1 26 45
M  V30 49 1 28 46
M  V30 END BOND
M  V30 END CTAB
M  END
>  <Dataset>  (89) 
PKIs

>  <Ligand_Instance>  (89) 
nan

>  <PDB_ID>  (89) 
nan

>  <Standardized_SMILES>  (89) 
CNC(=O)c1ccccc1Sc1ccc2c(/C=C/c3ccccn3)n[nH]c2c1

>  <Name>  (89) 
Axitinib

>  <Pocket>  (89) 
nan

>  <ATP_Site>  (89) 
nan

>  <Peripheral>  (89) 
nan

>  <Num_H_Atoms_ProtBoundConf>  (89) 
nan

>  <Num_Resolved_Atoms>  (89) 
nan

>  <Num_Not_Resolved_Atoms>  (89) 
nan

>  <2D_Mol_H>  (89) 
<rdkit.Chem.rdchem.Mol object at 0x72a2391421f0>

>  <MW>  (89) 
386.48

>  <HBA>  (89) 
4

>  <HBD>  (89) 
2

>  <LogP>  (89) 
4.6391

>  <NRB>  (89) 
6

>  <TPSA>  (89) 
70.67

>  <Num_Heavy_Atoms>  (89) 
28

>  <Ro5>  (89) 
[True, True, True, True, True, True]

>  <Ro5_Fulfilled>  (89) 
True

>  <Ro3>  (89) 
[False, False, True, False]

>  <Ro3_Fulfilled>  (89) 
False

>  <Fsp3>  (89) 
0.045455

>  <Fsp3_0.42>  (89) 
False

>  <Fsp3_0.45>  (89) 
False

>  <Stereogenic_Carbons>  (89) 
0

>  <C_Atoms>  (89) 
22

>  <FCStereo>  (89) 
0.0

>  <SPS>  (89) 
313

>  <nSPS>  (89) 
11.178571

>  <PBF>  (89) 
0.891879

>  <PBF_0.6>  (89) 
True

>  <nPBF>  (89) 
0.031853

>  <nPBF_0.016>  (89) 
True

>  <PMI1>  (89) 
1171.788833

>  <PMI2>  (89) 
7525.502448

>  <PMI3>  (89) 
8024.211694

>  <NPR1>  (89) 
0.146032

>  <NPR2>  (89) 
0.937849

>  <Sum_NPR>  (89) 
1.083881

>  <Sum_NPR_1.07>  (89) 
True

>  <Sum_NPR_1.2>  (89) 
False

>  <MaxAbsEStateIndex>  (89) 
12.075732

>  <MaxEStateIndex>  (89) 
12.075732

>  <MinAbsEStateIndex>  (89) 
0.090127

>  <MinEStateIndex>  (89) 
-0.090127

>  <qed>  (89) 
0.524191

>  <MolWt>  (89) 
386.48

>  <HeavyAtomMolWt>  (89) 
368.336

>  <ExactMolWt>  (89) 
386.120132

>  <NumValenceElectrons>  (89) 
138

>  <NumRadicalElectrons>  (89) 
0

>  <MaxPartialCharge>  (89) 
0.251672

>  <MinPartialCharge>  (89) 
-0.355077

>  <MaxAbsPartialCharge>  (89) 
0.355077

>  <MinAbsPartialCharge>  (89) 
0.251672

>  <FpDensityMorgan1>  (89) 
1.071429

>  <FpDensityMorgan2>  (89) 
1.928571

>  <FpDensityMorgan3>  (89) 
2.75

>  <BCUT2D_MWHI>  (89) 
32.16658

>  <BCUT2D_MWLOW>  (89) 
10.16552

>  <BCUT2D_CHGHI>  (89) 
2.111947

>  <BCUT2D_CHGLO>  (89) 
-2.075496

>  <BCUT2D_LOGPHI>  (89) 
2.323887

>  <BCUT2D_LOGPLOW>  (89) 
-2.17918

>  <BCUT2D_MRHI>  (89) 
7.990875

>  <BCUT2D_MRLOW>  (89) 
0.095996

>  <AvgIpc>  (89) 
3.148758

>  <BalabanJ>  (89) 
1.602537

>  <BertzCT>  (89) 
1151.645353

>  <Chi0>  (89) 
19.346724

>  <Chi0n>  (89) 
15.216477

>  <Chi0v>  (89) 
16.032974

>  <Chi1>  (89) 
13.741515

>  <Chi1n>  (89) 
8.806135

>  <Chi1v>  (89) 
9.622631

>  <Chi2n>  (89) 
6.081519

>  <Chi2v>  (89) 
7.196874

>  <Chi3n>  (89) 
4.250081

>  <Chi3v>  (89) 
5.315626

>  <Chi4n>  (89) 
2.854167

>  <Chi4v>  (89) 
3.838265

>  <HallKierAlpha>  (89) 
-3.38

>  <Ipc>  (89) 
4402971.945666

>  <Kappa1>  (89) 
18.005305

>  <Kappa2>  (89) 
8.102901

>  <Kappa3>  (89) 
3.818584

>  <LabuteASA>  (89) 
166.448826

>  <PEOE_VSA1>  (89) 
5.316789

>  <PEOE_VSA10>  (89) 
0.0

>  <PEOE_VSA11>  (89) 
0.0

>  <PEOE_VSA12>  (89) 
0.0

>  <PEOE_VSA13>  (89) 
5.90718

>  <PEOE_VSA14>  (89) 
0.0

>  <PEOE_VSA2>  (89) 
14.877198

>  <PEOE_VSA3>  (89) 
0.0

>  <PEOE_VSA4>  (89) 
5.098682

>  <PEOE_VSA5>  (89) 
0.0

>  <PEOE_VSA6>  (89) 
29.960986

>  <PEOE_VSA7>  (89) 
54.61661

>  <PEOE_VSA8>  (89) 
28.421707

>  <PEOE_VSA9>  (89) 
22.468008

>  <SMR_VSA1>  (89) 
4.794537

>  <SMR_VSA10>  (89) 
40.72403

>  <SMR_VSA2>  (89) 
0.0

>  <SMR_VSA3>  (89) 
20.498131

>  <SMR_VSA4>  (89) 
0.0

>  <SMR_VSA5>  (89) 
9.790967

>  <SMR_VSA6>  (89) 
7.047672

>  <SMR_VSA7>  (89) 
83.811822

>  <SMR_VSA8>  (89) 
0.0

>  <SMR_VSA9>  (89) 
0.0

>  <SlogP_VSA1>  (89) 
5.316789

>  <SlogP_VSA10>  (89) 
0.0

>  <SlogP_VSA11>  (89) 
0.0

>  <SlogP_VSA12>  (89) 
11.761885

>  <SlogP_VSA2>  (89) 
28.136194

>  <SlogP_VSA3>  (89) 
0.0

>  <SlogP_VSA4>  (89) 
0.0

>  <SlogP_VSA5>  (89) 
21.745845

>  <SlogP_VSA6>  (89) 
76.651481

>  <SlogP_VSA7>  (89) 
0.0

>  <SlogP_VSA8>  (89) 
23.054965

>  <SlogP_VSA9>  (89) 
0.0

>  <EState_VSA1>  (89) 
0.0

>  <EState_VSA10>  (89) 
4.794537

>  <EState_VSA11>  (89) 
0.0

>  <EState_VSA2>  (89) 
5.90718

>  <EState_VSA3>  (89) 
5.563451

>  <EState_VSA4>  (89) 
32.081748

>  <EState_VSA5>  (89) 
0.0

>  <EState_VSA6>  (89) 
25.006401

>  <EState_VSA7>  (89) 
72.815711

>  <EState_VSA8>  (89) 
20.498131

>  <EState_VSA9>  (89) 
0.0

>  <VSA_EState1>  (89) 
0.0

>  <VSA_EState10>  (89) 
1.555612

>  <VSA_EState2>  (89) 
18.311518

>  <VSA_EState3>  (89) 
11.214343

>  <VSA_EState4>  (89) 
3.362392

>  <VSA_EState5>  (89) 
-0.090127

>  <VSA_EState6>  (89) 
19.511671

>  <VSA_EState7>  (89) 
5.661925

>  <VSA_EState8>  (89) 
0.0

>  <VSA_EState9>  (89) 
1.639331

>  <FractionCSP3>  (89) 
0.045455

>  <HeavyAtomCount>  (89) 
28

>  <NHOHCount>  (89) 
2

>  <NOCount>  (89) 
5

>  <NumAliphaticCarbocycles>  (89) 
0

>  <NumAliphaticHeterocycles>  (89) 
0

>  <NumAliphaticRings>  (89) 
0

>  <NumAromaticCarbocycles>  (89) 
2

>  <NumAromaticHeterocycles>  (89) 
2

>  <NumAromaticRings>  (89) 
4

>  <NumHAcceptors>  (89) 
4

>  <NumHDonors>  (89) 
2

>  <NumHeteroatoms>  (89) 
6

>  <NumRotatableBonds>  (89) 
5

>  <NumSaturatedCarbocycles>  (89) 
0

>  <NumSaturatedHeterocycles>  (89) 
0

>  <NumSaturatedRings>  (89) 
0

>  <RingCount>  (89) 
4

>  <MolLogP>  (89) 
4.6391

>  <MolMR>  (89) 
113.2139

>  <fr_Al_COO>  (89) 
0

>  <fr_Al_OH>  (89) 
0

>  <fr_Al_OH_noTert>  (89) 
0

>  <fr_ArN>  (89) 
0

>  <fr_Ar_COO>  (89) 
0

>  <fr_Ar_N>  (89) 
3

>  <fr_Ar_NH>  (89) 
1

>  <fr_Ar_OH>  (89) 
0

>  <fr_COO>  (89) 
0

>  <fr_COO2>  (89) 
0

>  <fr_C_O>  (89) 
1

>  <fr_C_O_noCOO>  (89) 
1

>  <fr_C_S>  (89) 
0

>  <fr_HOCCN>  (89) 
0

>  <fr_Imine>  (89) 
0

>  <fr_NH0>  (89) 
2

>  <fr_NH1>  (89) 
2

>  <fr_NH2>  (89) 
0

>  <fr_N_O>  (89) 
0

>  <fr_Ndealkylation1>  (89) 
0

>  <fr_Ndealkylation2>  (89) 
0

>  <fr_Nhpyrrole>  (89) 
1

>  <fr_SH>  (89) 
0

>  <fr_aldehyde>  (89) 
0

>  <fr_alkyl_carbamate>  (89) 
0

>  <fr_alkyl_halide>  (89) 
0

>  <fr_allylic_oxid>  (89) 
0

>  <fr_amide>  (89) 
1

>  <fr_amidine>  (89) 
0

>  <fr_aniline>  (89) 
0

>  <fr_aryl_methyl>  (89) 
0

>  <fr_azide>  (89) 
0

>  <fr_azo>  (89) 
0

>  <fr_barbitur>  (89) 
0

>  <fr_benzene>  (89) 
2

>  <fr_benzodiazepine>  (89) 
0

>  <fr_bicyclic>  (89) 
1

>  <fr_diazo>  (89) 
0

>  <fr_dihydropyridine>  (89) 
0

>  <fr_epoxide>  (89) 
0

>  <fr_ester>  (89) 
0

>  <fr_ether>  (89) 
0

>  <fr_furan>  (89) 
0

>  <fr_guanido>  (89) 
0

>  <fr_halogen>  (89) 
0

>  <fr_hdrzine>  (89) 
0

>  <fr_hdrzone>  (89) 
0

>  <fr_imidazole>  (89) 
0

>  <fr_imide>  (89) 
0

>  <fr_isocyan>  (89) 
0

>  <fr_isothiocyan>  (89) 
0

>  <fr_ketone>  (89) 
0

>  <fr_ketone_Topliss>  (89) 
0

>  <fr_lactam>  (89) 
0

>  <fr_lactone>  (89) 
0

>  <fr_methoxy>  (89) 
0

>  <fr_morpholine>  (89) 
0

>  <fr_nitrile>  (89) 
0

>  <fr_nitro>  (89) 
0

>  <fr_nitro_arom>  (89) 
0

>  <fr_nitro_arom_nonortho>  (89) 
0

>  <fr_nitroso>  (89) 
0

>  <fr_oxazole>  (89) 
0

>  <fr_oxime>  (89) 
0

>  <fr_para_hydroxylation>  (89) 
0

>  <fr_phenol>  (89) 
0

>  <fr_phenol_noOrthoHbond>  (89) 
0

>  <fr_phos_acid>  (89) 
0

>  <fr_phos_ester>  (89) 
0

>  <fr_piperdine>  (89) 
0

>  <fr_piperzine>  (89) 
0

>  <fr_priamide>  (89) 
0

>  <fr_prisulfonamd>  (89) 
0

>  <fr_pyridine>  (89) 
1

>  <fr_quatN>  (89) 
0

>  <fr_sulfide>  (89) 
0

>  <fr_sulfonamd>  (89) 
0

>  <fr_sulfone>  (89) 
0

>  <fr_term_acetylene>  (89) 
0

>  <fr_tetrazole>  (89) 
0

>  <fr_thiazole>  (89) 
0

>  <fr_thiocyan>  (89) 
0

>  <fr_thiophene>  (89) 
0

>  <fr_unbrch_alkane>  (89) 
0

>  <fr_urea>  (89) 
0

>  <NP_Likeness>  (89) 
-1.430053

$$$$
nan
     RDKit          3D

  0  0  0  0  0  0  0  0  0  0999 V3000
M  V30 BEGIN CTAB
M  V30 COUNTS 66 70 0 0 0
M  V30 BEGIN ATOM
M  V30 1 C 4.824860 -2.637244 5.689628 0
M  V30 2 C 3.821307 -2.722073 4.597821 0
M  V30 3 C 3.811123 -3.820199 3.762747 0
M  V30 4 C 2.849862 -3.859842 2.748109 0
M  V30 5 C 1.918282 -2.869153 2.537296 0
M  V30 6 C 0.958523 -2.988652 1.459554 0
M  V30 7 O 1.090274 -4.016434 0.771610 0
M  V30 8 N -0.056317 -2.065341 1.160920 0
M  V30 9 C -1.017770 -2.124834 0.127437 0
M  V30 10 C -1.159050 -3.090072 -0.826635 0
M  V30 11 C -2.156519 -3.001076 -1.772471 0
M  V30 12 C -3.094863 -1.953855 -1.853824 0
M  V30 13 C -4.000202 -2.095998 -2.984972 0
M  V30 14 N -3.668496 -1.572187 -4.236039 0
M  V30 15 C -3.457184 -0.237474 -4.482228 0
M  V30 16 C -3.193884 0.181978 -5.896989 0
M  V30 17 N -2.513011 -0.823269 -6.678307 0
M  V30 18 C -2.411188 -0.373740 -8.042099 0
M  V30 19 C -3.348408 -2.027930 -6.571304 0
M  V30 20 C -3.127640 -2.526854 -5.168343 0
M  V30 21 C -2.926134 -0.998642 -0.877325 0
M  V30 22 C -3.887934 0.111857 -0.862701 0
M  V30 23 F -5.219458 -0.344885 -0.800151 0
M  V30 24 F -3.755802 0.679443 0.448925 0
M  V30 25 F -3.703498 1.133391 -1.710509 0
M  V30 26 C -1.925458 -1.099080 0.061237 0
M  V30 27 C 2.005439 -1.818331 3.415254 0
M  V30 28 C 2.915892 -1.691422 4.443571 0
M  V30 29 C 2.904488 -0.525083 5.304103 0
M  V30 30 C 2.900799 0.457588 6.004553 0
M  V30 31 C 2.918414 1.623598 6.848254 0
M  V30 32 C 2.729951 1.743725 8.209330 0
M  V30 33 N 2.844874 3.064919 8.532046 0
M  V30 34 C 3.100666 3.767037 7.399753 0
M  V30 35 C 3.297965 5.125320 7.205227 0
M  V30 36 C 3.548019 5.568140 5.901029 0
M  V30 37 C 3.582154 4.619631 4.890108 0
M  V30 38 N 3.379946 3.316690 5.162569 0
M  V30 39 N 3.142755 2.883425 6.388537 0
M  V30 40 H 5.423679 -1.716961 5.682626 0
M  V30 41 H 4.242699 -2.671313 6.652277 0
M  V30 42 H 5.516534 -3.522078 5.643007 0
M  V30 43 H 4.534232 -4.612169 3.911194 0
M  V30 44 H 2.901460 -4.740624 2.139276 0
M  V30 45 H -0.032227 -1.265192 1.827625 0
M  V30 46 H -0.474122 -3.920319 -0.824713 0
M  V30 47 H -2.158324 -3.832169 -2.474623 0
M  V30 48 H -5.030974 -1.670936 -2.723340 0
M  V30 49 H -4.220670 -3.202446 -3.119212 0
M  V30 50 H -2.588027 0.123527 -3.871900 0
M  V30 51 H -4.334855 0.353294 -4.151505 0
M  V30 52 H -4.127358 0.446064 -6.433619 0
M  V30 53 H -2.556942 1.095164 -5.909693 0
M  V30 54 H -2.870262 -1.130404 -8.736178 0
M  V30 55 H -2.799821 0.644495 -8.214132 0
M  V30 56 H -1.331682 -0.356584 -8.307135 0
M  V30 57 H -4.415106 -1.708427 -6.646407 0
M  V30 58 H -3.075202 -2.775754 -7.340195 0
M  V30 59 H -2.013541 -2.652743 -5.055611 0
M  V30 60 H -3.663020 -3.488326 -5.007366 0
M  V30 61 H -1.875343 -0.283047 0.794100 0
M  V30 62 H 1.308500 -0.998087 3.317434 0
M  V30 63 H 2.527444 0.897891 8.863970 0
M  V30 64 H 3.262428 5.844332 8.022142 0
M  V30 65 H 3.707546 6.632476 5.714596 0
M  V30 66 H 3.776959 4.942963 3.858895 0
M  V30 END ATOM
M  V30 BEGIN BOND
M  V30 1 1 1 2
M  V30 2 2 2 3
M  V30 3 1 3 4
M  V30 4 2 4 5
M  V30 5 1 5 6
M  V30 6 2 6 7
M  V30 7 1 6 8
M  V30 8 1 8 9
M  V30 9 2 9 10
M  V30 10 1 10 11
M  V30 11 2 11 12
M  V30 12 1 12 13
M  V30 13 1 13 14
M  V30 14 1 14 15
M  V30 15 1 15 16
M  V30 16 1 16 17
M  V30 17 1 17 18
M  V30 18 1 17 19
M  V30 19 1 19 20
M  V30 20 1 12 21
M  V30 21 1 21 22
M  V30 22 1 22 23
M  V30 23 1 22 24
M  V30 24 1 22 25
M  V30 25 2 21 26
M  V30 26 1 5 27
M  V30 27 2 27 28
M  V30 28 1 28 29
M  V30 29 3 29 30
M  V30 30 1 30 31
M  V30 31 2 31 32
M  V30 32 1 32 33
M  V30 33 2 33 34
M  V30 34 1 34 35
M  V30 35 2 35 36
M  V30 36 1 36 37
M  V30 37 2 37 38
M  V30 38 1 38 39
M  V30 39 1 28 2
M  V30 40 1 39 31
M  V30 41 1 26 9
M  V30 42 1 39 34
M  V30 43 1 20 14
M  V30 44 1 1 40
M  V30 45 1 1 41
M  V30 46 1 1 42
M  V30 47 1 3 43
M  V30 48 1 4 44
M  V30 49 1 8 45
M  V30 50 1 10 46
M  V30 51 1 11 47
M  V30 52 1 13 48
M  V30 53 1 13 49
M  V30 54 1 15 50
M  V30 55 1 15 51
M  V30 56 1 16 52
M  V30 57 1 16 53
M  V30 58 1 18 54
M  V30 59 1 18 55
M  V30 60 1 18 56
M  V30 61 1 19 57
M  V30 62 1 19 58
M  V30 63 1 20 59
M  V30 64 1 20 60
M  V30 65 1 26 61
M  V30 66 1 27 62
M  V30 67 1 32 63
M  V30 68 1 35 64
M  V30 69 1 36 65
M  V30 70 1 37 66
M  V30 END BOND
M  V30 END CTAB
M  END
>  <Dataset>  (90) 
PKIs

>  <Ligand_Instance>  (90) 
nan

>  <PDB_ID>  (90) 
nan

>  <Standardized_SMILES>  (90) 
Cc1ccc(C(=O)Nc2ccc(CN3CCN(C)CC3)c(C(F)(F)F)c2)cc1C#Cc1cnc2cccnn12

>  <Name>  (90) 
Ponatinib

>  <Pocket>  (90) 
nan

>  <ATP_Site>  (90) 
nan

>  <Peripheral>  (90) 
nan

>  <Num_H_Atoms_ProtBoundConf>  (90) 
nan

>  <Num_Resolved_Atoms>  (90) 
nan

>  <Num_Not_Resolved_Atoms>  (90) 
nan

>  <2D_Mol_H>  (90) 
<rdkit.Chem.rdchem.Mol object at 0x72a2391422d0>

>  <MW>  (90) 
532.57

>  <HBA>  (90) 
6

>  <HBD>  (90) 
1

>  <LogP>  (90) 
4.45602

>  <NRB>  (90) 
6

>  <TPSA>  (90) 
65.77

>  <Num_Heavy_Atoms>  (90) 
39

>  <Ro5>  (90) 
[False, True, True, True, True, True]

>  <Ro5_Fulfilled>  (90) 
True

>  <Ro3>  (90) 
[False, False, True, False]

>  <Ro3_Fulfilled>  (90) 
False

>  <Fsp3>  (90) 
0.275862

>  <Fsp3_0.42>  (90) 
False

>  <Fsp3_0.45>  (90) 
False

>  <Stereogenic_Carbons>  (90) 
0

>  <C_Atoms>  (90) 
29

>  <FCStereo>  (90) 
0.0

>  <SPS>  (90) 
573

>  <nSPS>  (90) 
14.692308

>  <PBF>  (90) 
1.107137

>  <PBF_0.6>  (90) 
True

>  <nPBF>  (90) 
0.028388

>  <nPBF_0.016>  (90) 
True

>  <PMI1>  (90) 
3920.857762

>  <PMI2>  (90) 
16861.575257

>  <PMI3>  (90) 
18942.594232

>  <NPR1>  (90) 
0.206986

>  <NPR2>  (90) 
0.890141

>  <Sum_NPR>  (90) 
1.097127

>  <Sum_NPR_1.07>  (90) 
True

>  <Sum_NPR_1.2>  (90) 
False

>  <MaxAbsEStateIndex>  (90) 
13.935889

>  <MaxEStateIndex>  (90) 
13.935889

>  <MinAbsEStateIndex>  (90) 
0.082839

>  <MinEStateIndex>  (90) 
-4.539718

>  <qed>  (90) 
0.393599

>  <MolWt>  (90) 
532.57

>  <HeavyAtomMolWt>  (90) 
505.354

>  <ExactMolWt>  (90) 
532.219844

>  <NumValenceElectrons>  (90) 
200

>  <NumRadicalElectrons>  (90) 
0

>  <MaxPartialCharge>  (90) 
0.4163

>  <MinPartialCharge>  (90) 
-0.321982

>  <MaxAbsPartialCharge>  (90) 
0.4163

>  <MinAbsPartialCharge>  (90) 
0.321982

>  <FpDensityMorgan1>  (90) 
1.051282

>  <FpDensityMorgan2>  (90) 
1.846154

>  <FpDensityMorgan3>  (90) 
2.615385

>  <BCUT2D_MWHI>  (90) 
19.413196

>  <BCUT2D_MWLOW>  (90) 
10.031566

>  <BCUT2D_CHGHI>  (90) 
2.340121

>  <BCUT2D_CHGLO>  (90) 
-2.325238

>  <BCUT2D_LOGPHI>  (90) 
2.344511

>  <BCUT2D_LOGPLOW>  (90) 
-2.436376

>  <BCUT2D_MRHI>  (90) 
6.042029

>  <BCUT2D_MRLOW>  (90) 
-0.138024

>  <AvgIpc>  (90) 
3.325826

>  <BalabanJ>  (90) 
1.349403

>  <BertzCT>  (90) 
1575.423853

>  <Chi0>  (90) 
27.570339

>  <Chi0n>  (90) 
21.587246

>  <Chi0v>  (90) 
21.587246

>  <Chi1>  (90) 
18.668855

>  <Chi1n>  (90) 
12.51028

>  <Chi1v>  (90) 
12.51028

>  <Chi2n>  (90) 
9.620033

>  <Chi2v>  (90) 
9.620033

>  <Chi3n>  (90) 
6.765781

>  <Chi3v>  (90) 
6.765781

>  <Chi4n>  (90) 
4.449942

>  <Chi4v>  (90) 
4.449942

>  <HallKierAlpha>  (90) 
-4.2

>  <Ipc>  (90) 
636966205.134752

>  <Kappa1>  (90) 
26.408832

>  <Kappa2>  (90) 
10.884506

>  <Kappa3>  (90) 
6.108967

>  <LabuteASA>  (90) 
223.806917

>  <PEOE_VSA1>  (90) 
10.216698

>  <PEOE_VSA10>  (90) 
5.693928

>  <PEOE_VSA11>  (90) 
5.647177

>  <PEOE_VSA12>  (90) 
0.0

>  <PEOE_VSA13>  (90) 
5.90718

>  <PEOE_VSA14>  (90) 
6.176299

>  <PEOE_VSA2>  (90) 
9.694447

>  <PEOE_VSA3>  (90) 
9.499376

>  <PEOE_VSA4>  (90) 
18.269927

>  <PEOE_VSA5>  (90) 
0.0

>  <PEOE_VSA6>  (90) 
18.053168

>  <PEOE_VSA7>  (90) 
67.416949

>  <PEOE_VSA8>  (90) 
55.734915

>  <PEOE_VSA9>  (90) 
11.760295

>  <SMR_VSA1>  (90) 
17.965782

>  <SMR_VSA10>  (90) 
17.241743

>  <SMR_VSA2>  (90) 
0.0

>  <SMR_VSA3>  (90) 
24.397878

>  <SMR_VSA4>  (90) 
0.0

>  <SMR_VSA5>  (90) 
19.644792

>  <SMR_VSA6>  (90) 
38.543486

>  <SMR_VSA7>  (90) 
94.435809

>  <SMR_VSA8>  (90) 
0.0

>  <SMR_VSA9>  (90) 
11.840869

>  <SlogP_VSA1>  (90) 
5.316789

>  <SlogP_VSA10>  (90) 
18.858631

>  <SlogP_VSA11>  (90) 
0.0

>  <SlogP_VSA12>  (90) 
0.0

>  <SlogP_VSA2>  (90) 
63.531755

>  <SlogP_VSA3>  (90) 
12.721055

>  <SlogP_VSA4>  (90) 
18.764606

>  <SlogP_VSA5>  (90) 
38.305723

>  <SlogP_VSA6>  (90) 
60.924624

>  <SlogP_VSA7>  (90) 
0.0

>  <SlogP_VSA8>  (90) 
5.647177

>  <SlogP_VSA9>  (90) 
0.0

>  <EState_VSA1>  (90) 
17.64693

>  <EState_VSA10>  (90) 
17.965782

>  <EState_VSA11>  (90) 
0.0

>  <EState_VSA2>  (90) 
23.359046

>  <EState_VSA3>  (90) 
29.99407

>  <EState_VSA4>  (90) 
24.719331

>  <EState_VSA5>  (90) 
12.132734

>  <EState_VSA6>  (90) 
41.174553

>  <EState_VSA7>  (90) 
24.937686

>  <EState_VSA8>  (90) 
32.140227

>  <EState_VSA9>  (90) 
0.0

>  <VSA_EState1>  (90) 
43.423259

>  <VSA_EState10>  (90) 
0.0

>  <VSA_EState2>  (90) 
21.428743

>  <VSA_EState3>  (90) 
6.853847

>  <VSA_EState4>  (90) 
2.558315

>  <VSA_EState5>  (90) 
5.569691

>  <VSA_EState6>  (90) 
12.583993

>  <VSA_EState7>  (90) 
-1.283702

>  <VSA_EState8>  (90) 
5.117218

>  <VSA_EState9>  (90) 
1.998635

>  <FractionCSP3>  (90) 
0.275862

>  <HeavyAtomCount>  (90) 
39

>  <NHOHCount>  (90) 
1

>  <NOCount>  (90) 
7

>  <NumAliphaticCarbocycles>  (90) 
0

>  <NumAliphaticHeterocycles>  (90) 
1

>  <NumAliphaticRings>  (90) 
1

>  <NumAromaticCarbocycles>  (90) 
2

>  <NumAromaticHeterocycles>  (90) 
2

>  <NumAromaticRings>  (90) 
4

>  <NumHAcceptors>  (90) 
6

>  <NumHDonors>  (90) 
1

>  <NumHeteroatoms>  (90) 
10

>  <NumRotatableBonds>  (90) 
4

>  <NumSaturatedCarbocycles>  (90) 
0

>  <NumSaturatedHeterocycles>  (90) 
1

>  <NumSaturatedRings>  (90) 
1

>  <RingCount>  (90) 
5

>  <MolLogP>  (90) 
4.45602

>  <MolMR>  (90) 
142.3172

>  <fr_Al_COO>  (90) 
0

>  <fr_Al_OH>  (90) 
0

>  <fr_Al_OH_noTert>  (90) 
0

>  <fr_ArN>  (90) 
0

>  <fr_Ar_COO>  (90) 
0

>  <fr_Ar_N>  (90) 
3

>  <fr_Ar_NH>  (90) 
0

>  <fr_Ar_OH>  (90) 
0

>  <fr_COO>  (90) 
0

>  <fr_COO2>  (90) 
0

>  <fr_C_O>  (90) 
1

>  <fr_C_O_noCOO>  (90) 
1

>  <fr_C_S>  (90) 
0

>  <fr_HOCCN>  (90) 
0

>  <fr_Imine>  (90) 
0

>  <fr_NH0>  (90) 
5

>  <fr_NH1>  (90) 
1

>  <fr_NH2>  (90) 
0

>  <fr_N_O>  (90) 
0

>  <fr_Ndealkylation1>  (90) 
1

>  <fr_Ndealkylation2>  (90) 
0

>  <fr_Nhpyrrole>  (90) 
0

>  <fr_SH>  (90) 
0

>  <fr_aldehyde>  (90) 
0

>  <fr_alkyl_carbamate>  (90) 
0

>  <fr_alkyl_halide>  (90) 
3

>  <fr_allylic_oxid>  (90) 
0

>  <fr_amide>  (90) 
1

>  <fr_amidine>  (90) 
0

>  <fr_aniline>  (90) 
1

>  <fr_aryl_methyl>  (90) 
1

>  <fr_azide>  (90) 
0

>  <fr_azo>  (90) 
0

>  <fr_barbitur>  (90) 
0

>  <fr_benzene>  (90) 
2

>  <fr_benzodiazepine>  (90) 
0

>  <fr_bicyclic>  (90) 
1

>  <fr_diazo>  (90) 
0

>  <fr_dihydropyridine>  (90) 
0

>  <fr_epoxide>  (90) 
0

>  <fr_ester>  (90) 
0

>  <fr_ether>  (90) 
0

>  <fr_furan>  (90) 
0

>  <fr_guanido>  (90) 
0

>  <fr_halogen>  (90) 
3

>  <fr_hdrzine>  (90) 
0

>  <fr_hdrzone>  (90) 
0

>  <fr_imidazole>  (90) 
1

>  <fr_imide>  (90) 
0

>  <fr_isocyan>  (90) 
0

>  <fr_isothiocyan>  (90) 
0

>  <fr_ketone>  (90) 
0

>  <fr_ketone_Topliss>  (90) 
0

>  <fr_lactam>  (90) 
0

>  <fr_lactone>  (90) 
0

>  <fr_methoxy>  (90) 
0

>  <fr_morpholine>  (90) 
0

>  <fr_nitrile>  (90) 
0

>  <fr_nitro>  (90) 
0

>  <fr_nitro_arom>  (90) 
0

>  <fr_nitro_arom_nonortho>  (90) 
0

>  <fr_nitroso>  (90) 
0

>  <fr_oxazole>  (90) 
0

>  <fr_oxime>  (90) 
0

>  <fr_para_hydroxylation>  (90) 
0

>  <fr_phenol>  (90) 
0

>  <fr_phenol_noOrthoHbond>  (90) 
0

>  <fr_phos_acid>  (90) 
0

>  <fr_phos_ester>  (90) 
0

>  <fr_piperdine>  (90) 
0

>  <fr_piperzine>  (90) 
1

>  <fr_priamide>  (90) 
0

>  <fr_prisulfonamd>  (90) 
0

>  <fr_pyridine>  (90) 
0

>  <fr_quatN>  (90) 
0

>  <fr_sulfide>  (90) 
0

>  <fr_sulfonamd>  (90) 
0

>  <fr_sulfone>  (90) 
0

>  <fr_term_acetylene>  (90) 
0

>  <fr_tetrazole>  (90) 
0

>  <fr_thiazole>  (90) 
0

>  <fr_thiocyan>  (90) 
0

>  <fr_thiophene>  (90) 
0

>  <fr_unbrch_alkane>  (90) 
0

>  <fr_urea>  (90) 
0

>  <NP_Likeness>  (90) 
-1.800469

$$$$
nan
     RDKit          3D

  0  0  0  0  0  0  0  0  0  0999 V3000
M  V30 BEGIN CTAB
M  V30 COUNTS 48 50 0 0 0
M  V30 BEGIN ATOM
M  V30 1 C -0.163879 -3.791208 -3.008761 0
M  V30 2 N 0.632239 -2.810986 -3.722065 0
M  V30 3 C 0.877936 -1.671632 -2.890175 0
M  V30 4 O 0.347869 -1.795110 -1.749999 0
M  V30 5 C 1.650322 -0.508507 -3.315553 0
M  V30 6 C 1.786176 0.496152 -2.384500 0
M  V30 7 C 2.506395 1.618677 -2.733378 0
M  V30 8 O 2.629288 2.630764 -1.761308 0
M  V30 9 C 2.024790 2.459408 -0.499465 0
M  V30 10 C 2.610152 1.880051 0.610636 0
M  V30 11 C 1.874938 1.789092 1.777835 0
M  V30 12 C 0.572490 2.273972 1.824173 0
M  V30 13 N -0.006726 2.080100 3.126110 0
M  V30 14 C -0.680733 0.814120 3.230369 0
M  V30 15 O -0.745006 -0.011571 2.284394 0
M  V30 16 N -1.344067 0.362169 4.409596 0
M  V30 17 C -1.990362 -0.924414 4.411061 0
M  V30 18 C -3.328647 -0.921838 4.015649 0
M  V30 19 C -4.018051 -2.131869 3.992947 0
M  V30 20 C -3.413617 -3.340892 4.352002 0
M  V30 21 Cl -4.299144 -4.851877 4.316378 0
M  V30 22 C -2.078480 -3.297216 4.739575 0
M  V30 23 C -1.362786 -4.526672 5.134528 0
M  V30 24 F -0.048478 -4.301457 5.488829 0
M  V30 25 F -2.106263 -5.096455 6.157168 0
M  V30 26 F -1.444472 -5.417256 4.071980 0
M  V30 27 C -1.369914 -2.114032 4.771944 0
M  V30 28 C -0.012262 2.852862 0.714801 0
M  V30 29 F -1.274507 3.276576 0.904272 0
M  V30 30 C 0.727662 2.940886 -0.448866 0
M  V30 31 C 3.107248 1.825164 -3.942192 0
M  V30 32 C 2.924336 0.761646 -4.832244 0
M  V30 33 N 2.218829 -0.366248 -4.526067 0
M  V30 34 H -1.111276 -3.356290 -2.616486 0
M  V30 35 H 0.461970 -4.157522 -2.165082 0
M  V30 36 H -0.392304 -4.665446 -3.644813 0
M  V30 37 H 1.036664 -2.804197 -4.701884 0
M  V30 38 H 1.333814 0.410901 -1.386172 0
M  V30 39 H 3.625720 1.532637 0.478549 0
M  V30 40 H 2.418578 1.321924 2.586990 0
M  V30 41 H -0.024025 2.688182 3.997389 0
M  V30 42 H -1.336962 1.002817 5.259108 0
M  V30 43 H -3.865003 -0.038508 3.725350 0
M  V30 44 H -5.074279 -2.150091 3.683898 0
M  V30 45 H -0.328518 -2.029106 5.066650 0
M  V30 46 H 0.181169 3.409736 -1.259850 0
M  V30 47 H 3.663765 2.684843 -4.221441 0
M  V30 48 H 3.351436 0.800507 -5.827155 0
M  V30 END ATOM
M  V30 BEGIN BOND
M  V30 1 1 1 2
M  V30 2 1 2 3
M  V30 3 2 3 4
M  V30 4 1 3 5
M  V30 5 2 5 6
M  V30 6 1 6 7
M  V30 7 1 7 8
M  V30 8 1 8 9
M  V30 9 2 9 10
M  V30 10 1 10 11
M  V30 11 2 11 12
M  V30 12 1 12 13
M  V30 13 1 13 14
M  V30 14 2 14 15
M  V30 15 1 14 16
M  V30 16 1 16 17
M  V30 17 2 17 18
M  V30 18 1 18 19
M  V30 19 2 19 20
M  V30 20 1 20 21
M  V30 21 1 20 22
M  V30 22 1 22 23
M  V30 23 1 23 24
M  V30 24 1 23 25
M  V30 25 1 23 26
M  V30 26 2 22 27
M  V30 27 1 12 28
M  V30 28 1 28 29
M  V30 29 2 28 30
M  V30 30 2 7 31
M  V30 31 1 31 32
M  V30 32 2 32 33
M  V30 33 1 33 5
M  V30 34 1 30 9
M  V30 35 1 27 17
M  V30 36 1 1 34
M  V30 37 1 1 35
M  V30 38 1 1 36
M  V30 39 1 2 37
M  V30 40 1 6 38
M  V30 41 1 10 39
M  V30 42 1 11 40
M  V30 43 1 13 41
M  V30 44 1 16 42
M  V30 45 1 18 43
M  V30 46 1 19 44
M  V30 47 1 27 45
M  V30 48 1 30 46
M  V30 49 1 31 47
M  V30 50 1 32 48
M  V30 END BOND
M  V30 END CTAB
M  END
>  <Dataset>  (91) 
PKIs

>  <Ligand_Instance>  (91) 
nan

>  <PDB_ID>  (91) 
nan

>  <Standardized_SMILES>  (91) 
CNC(=O)c1cc(Oc2ccc(NC(=O)Nc3ccc(Cl)c(C(F)(F)F)c3)c(F)c2)ccn1

>  <Name>  (91) 
Regorafenib

>  <Pocket>  (91) 
nan

>  <ATP_Site>  (91) 
nan

>  <Peripheral>  (91) 
nan

>  <Num_H_Atoms_ProtBoundConf>  (91) 
nan

>  <Num_Resolved_Atoms>  (91) 
nan

>  <Num_Not_Resolved_Atoms>  (91) 
nan

>  <2D_Mol_H>  (91) 
<rdkit.Chem.rdchem.Mol object at 0x72a2391423b0>

>  <MW>  (91) 
482.821

>  <HBA>  (91) 
4

>  <HBD>  (91) 
3

>  <LogP>  (91) 
5.6888

>  <NRB>  (91) 
6

>  <TPSA>  (91) 
92.35

>  <Num_Heavy_Atoms>  (91) 
33

>  <Ro5>  (91) 
[True, True, True, False, True, True]

>  <Ro5_Fulfilled>  (91) 
True

>  <Ro3>  (91) 
[False, False, True, False]

>  <Ro3_Fulfilled>  (91) 
False

>  <Fsp3>  (91) 
0.095238

>  <Fsp3_0.42>  (91) 
False

>  <Fsp3_0.45>  (91) 
False

>  <Stereogenic_Carbons>  (91) 
0

>  <C_Atoms>  (91) 
21

>  <FCStereo>  (91) 
0.0

>  <SPS>  (91) 
362

>  <nSPS>  (91) 
10.969697

>  <PBF>  (91) 
0.862248

>  <PBF_0.6>  (91) 
True

>  <nPBF>  (91) 
0.026129

>  <nPBF_0.016>  (91) 
True

>  <PMI1>  (91) 
3056.861349

>  <PMI2>  (91) 
9287.28111

>  <PMI3>  (91) 
11123.82871

>  <NPR1>  (91) 
0.274803

>  <NPR2>  (91) 
0.8349

>  <Sum_NPR>  (91) 
1.109703

>  <Sum_NPR_1.07>  (91) 
True

>  <Sum_NPR_1.2>  (91) 
False

>  <MaxAbsEStateIndex>  (91) 
14.422201

>  <MaxEStateIndex>  (91) 
14.422201

>  <MinAbsEStateIndex>  (91) 
0.069477

>  <MinEStateIndex>  (91) 
-4.705249

>  <qed>  (91) 
0.40736

>  <MolWt>  (91) 
482.821

>  <HeavyAtomMolWt>  (91) 
467.701

>  <ExactMolWt>  (91) 
482.076881

>  <NumValenceElectrons>  (91) 
172

>  <NumRadicalElectrons>  (91) 
0

>  <MaxPartialCharge>  (91) 
0.417418

>  <MinPartialCharge>  (91) 
-0.457126

>  <MaxAbsPartialCharge>  (91) 
0.457126

>  <MinAbsPartialCharge>  (91) 
0.417418

>  <FpDensityMorgan1>  (91) 
1.0

>  <FpDensityMorgan2>  (91) 
1.727273

>  <FpDensityMorgan3>  (91) 
2.393939

>  <BCUT2D_MWHI>  (91) 
35.495692

>  <BCUT2D_MWLOW>  (91) 
10.16411

>  <BCUT2D_CHGHI>  (91) 
2.330598

>  <BCUT2D_CHGLO>  (91) 
-2.12895

>  <BCUT2D_LOGPHI>  (91) 
2.358815

>  <BCUT2D_LOGPLOW>  (91) 
-2.202418

>  <BCUT2D_MRHI>  (91) 
6.311342

>  <BCUT2D_MRLOW>  (91) 
-0.136997

>  <AvgIpc>  (91) 
2.755703

>  <BalabanJ>  (91) 
1.683953

>  <BertzCT>  (91) 
1204.367553

>  <Chi0>  (91) 
24.172998

>  <Chi0n>  (91) 
16.757933

>  <Chi0v>  (91) 
17.513862

>  <Chi1>  (91) 
15.561901

>  <Chi1n>  (91) 
9.16864

>  <Chi1v>  (91) 
9.546604

>  <Chi2n>  (91) 
6.471132

>  <Chi2v>  (91) 
6.878332

>  <Chi3n>  (91) 
4.145184

>  <Chi3v>  (91) 
4.474773

>  <Chi4n>  (91) 
2.628591

>  <Chi4v>  (91) 
2.853282

>  <HallKierAlpha>  (91) 
-3.86

>  <Ipc>  (91) 
14268669.342841

>  <Kappa1>  (91) 
23.795811

>  <Kappa2>  (91) 
9.73618

>  <Kappa3>  (91) 
6.100851

>  <LabuteASA>  (91) 
189.276592

>  <PEOE_VSA1>  (91) 
20.687229

>  <PEOE_VSA10>  (91) 
23.010173

>  <PEOE_VSA11>  (91) 
0.0

>  <PEOE_VSA12>  (91) 
0.0

>  <PEOE_VSA13>  (91) 
5.90718

>  <PEOE_VSA14>  (91) 
12.207413

>  <PEOE_VSA2>  (91) 
9.778516

>  <PEOE_VSA3>  (91) 
9.184952

>  <PEOE_VSA4>  (91) 
13.171245

>  <PEOE_VSA5>  (91) 
0.0

>  <PEOE_VSA6>  (91) 
11.60094

>  <PEOE_VSA7>  (91) 
36.398202

>  <PEOE_VSA8>  (91) 
31.064636

>  <PEOE_VSA9>  (91) 
16.273471

>  <SMR_VSA1>  (91) 
31.887598

>  <SMR_VSA10>  (91) 
34.914007

>  <SMR_VSA2>  (91) 
0.0

>  <SMR_VSA3>  (91) 
10.300767

>  <SMR_VSA4>  (91) 
0.0

>  <SMR_VSA5>  (91) 
6.176299

>  <SMR_VSA6>  (91) 
17.681249

>  <SMR_VSA7>  (91) 
76.825014

>  <SMR_VSA8>  (91) 
0.0

>  <SMR_VSA9>  (91) 
11.499024

>  <SlogP_VSA1>  (91) 
20.687229

>  <SlogP_VSA10>  (91) 
33.73097

>  <SlogP_VSA11>  (91) 
11.499024

>  <SlogP_VSA12>  (91) 
11.60094

>  <SlogP_VSA2>  (91) 
23.969945

>  <SlogP_VSA3>  (91) 
6.176299

>  <SlogP_VSA4>  (91) 
5.817221

>  <SlogP_VSA5>  (91) 
16.051917

>  <SlogP_VSA6>  (91) 
54.72778

>  <SlogP_VSA7>  (91) 
5.022633

>  <SlogP_VSA8>  (91) 
0.0

>  <SlogP_VSA9>  (91) 
0.0

>  <EState_VSA1>  (91) 
34.517898

>  <EState_VSA10>  (91) 
27.150735

>  <EState_VSA11>  (91) 
0.0

>  <EState_VSA2>  (91) 
28.567724

>  <EState_VSA3>  (91) 
6.066367

>  <EState_VSA4>  (91) 
12.132734

>  <EState_VSA5>  (91) 
43.576351

>  <EState_VSA6>  (91) 
0.0

>  <EState_VSA7>  (91) 
0.0

>  <EState_VSA8>  (91) 
20.934344

>  <EState_VSA9>  (91) 
16.337803

>  <VSA_EState1>  (91) 
58.747838

>  <VSA_EState10>  (91) 
5.539208

>  <VSA_EState2>  (91) 
27.627608

>  <VSA_EState3>  (91) 
6.269809

>  <VSA_EState4>  (91) 
-1.452336

>  <VSA_EState5>  (91) 
-0.999773

>  <VSA_EState6>  (91) 
8.214509

>  <VSA_EState7>  (91) 
-3.36052

>  <VSA_EState8>  (91) 
0.0

>  <VSA_EState9>  (91) 
1.441435

>  <FractionCSP3>  (91) 
0.095238

>  <HeavyAtomCount>  (91) 
33

>  <NHOHCount>  (91) 
3

>  <NOCount>  (91) 
7

>  <NumAliphaticCarbocycles>  (91) 
0

>  <NumAliphaticHeterocycles>  (91) 
0

>  <NumAliphaticRings>  (91) 
0

>  <NumAromaticCarbocycles>  (91) 
2

>  <NumAromaticHeterocycles>  (91) 
1

>  <NumAromaticRings>  (91) 
3

>  <NumHAcceptors>  (91) 
4

>  <NumHDonors>  (91) 
3

>  <NumHeteroatoms>  (91) 
12

>  <NumRotatableBonds>  (91) 
5

>  <NumSaturatedCarbocycles>  (91) 
0

>  <NumSaturatedHeterocycles>  (91) 
0

>  <NumSaturatedRings>  (91) 
0

>  <RingCount>  (91) 
3

>  <MolLogP>  (91) 
5.6888

>  <MolMR>  (91) 
113.1966

>  <fr_Al_COO>  (91) 
0

>  <fr_Al_OH>  (91) 
0

>  <fr_Al_OH_noTert>  (91) 
0

>  <fr_ArN>  (91) 
0

>  <fr_Ar_COO>  (91) 
0

>  <fr_Ar_N>  (91) 
1

>  <fr_Ar_NH>  (91) 
0

>  <fr_Ar_OH>  (91) 
0

>  <fr_COO>  (91) 
0

>  <fr_COO2>  (91) 
0

>  <fr_C_O>  (91) 
2

>  <fr_C_O_noCOO>  (91) 
2

>  <fr_C_S>  (91) 
0

>  <fr_HOCCN>  (91) 
0

>  <fr_Imine>  (91) 
0

>  <fr_NH0>  (91) 
1

>  <fr_NH1>  (91) 
3

>  <fr_NH2>  (91) 
0

>  <fr_N_O>  (91) 
0

>  <fr_Ndealkylation1>  (91) 
0

>  <fr_Ndealkylation2>  (91) 
0

>  <fr_Nhpyrrole>  (91) 
0

>  <fr_SH>  (91) 
0

>  <fr_aldehyde>  (91) 
0

>  <fr_alkyl_carbamate>  (91) 
0

>  <fr_alkyl_halide>  (91) 
3

>  <fr_allylic_oxid>  (91) 
0

>  <fr_amide>  (91) 
3

>  <fr_amidine>  (91) 
0

>  <fr_aniline>  (91) 
2

>  <fr_aryl_methyl>  (91) 
0

>  <fr_azide>  (91) 
0

>  <fr_azo>  (91) 
0

>  <fr_barbitur>  (91) 
0

>  <fr_benzene>  (91) 
2

>  <fr_benzodiazepine>  (91) 
0

>  <fr_bicyclic>  (91) 
0

>  <fr_diazo>  (91) 
0

>  <fr_dihydropyridine>  (91) 
0

>  <fr_epoxide>  (91) 
0

>  <fr_ester>  (91) 
0

>  <fr_ether>  (91) 
1

>  <fr_furan>  (91) 
0

>  <fr_guanido>  (91) 
0

>  <fr_halogen>  (91) 
5

>  <fr_hdrzine>  (91) 
0

>  <fr_hdrzone>  (91) 
0

>  <fr_imidazole>  (91) 
0

>  <fr_imide>  (91) 
0

>  <fr_isocyan>  (91) 
0

>  <fr_isothiocyan>  (91) 
0

>  <fr_ketone>  (91) 
0

>  <fr_ketone_Topliss>  (91) 
0

>  <fr_lactam>  (91) 
0

>  <fr_lactone>  (91) 
0

>  <fr_methoxy>  (91) 
0

>  <fr_morpholine>  (91) 
0

>  <fr_nitrile>  (91) 
0

>  <fr_nitro>  (91) 
0

>  <fr_nitro_arom>  (91) 
0

>  <fr_nitro_arom_nonortho>  (91) 
0

>  <fr_nitroso>  (91) 
0

>  <fr_oxazole>  (91) 
0

>  <fr_oxime>  (91) 
0

>  <fr_para_hydroxylation>  (91) 
0

>  <fr_phenol>  (91) 
0

>  <fr_phenol_noOrthoHbond>  (91) 
0

>  <fr_phos_acid>  (91) 
0

>  <fr_phos_ester>  (91) 
0

>  <fr_piperdine>  (91) 
0

>  <fr_piperzine>  (91) 
0

>  <fr_priamide>  (91) 
0

>  <fr_prisulfonamd>  (91) 
0

>  <fr_pyridine>  (91) 
1

>  <fr_quatN>  (91) 
0

>  <fr_sulfide>  (91) 
0

>  <fr_sulfonamd>  (91) 
0

>  <fr_sulfone>  (91) 
0

>  <fr_term_acetylene>  (91) 
0

>  <fr_tetrazole>  (91) 
0

>  <fr_thiazole>  (91) 
0

>  <fr_thiocyan>  (91) 
0

>  <fr_thiophene>  (91) 
0

>  <fr_unbrch_alkane>  (91) 
0

>  <fr_urea>  (91) 
1

>  <NP_Likeness>  (91) 
-1.815248

$$$$
nan
     RDKit          3D

  0  0  0  0  0  0  0  0  0  0999 V3000
M  V30 BEGIN CTAB
M  V30 COUNTS 65 68 0 0 0
M  V30 BEGIN ATOM
M  V30 1 C 7.709231 -0.834657 4.290834 0
M  V30 2 O 7.703872 -1.998395 3.482948 0
M  V30 3 C 6.662903 -2.202287 2.590094 0
M  V30 4 C 5.675000 -1.274395 2.496823 0
M  V30 5 C 4.564053 -1.281555 1.693903 0
M  V30 6 N 3.513374 -0.455363 1.412328 0
M  V30 7 C 2.472693 0.370830 1.078095 0
M  V30 8 C 2.937812 1.469977 0.350701 0
M  V30 9 C 4.343298 1.726356 0.006166 0
M  V30 10 N 5.431740 1.910319 -0.274734 0
M  V30 11 C 2.038800 2.416278 -0.102240 0
M  V30 12 N 0.753622 2.255070 0.173382 0
M  V30 13 C 0.298021 1.220088 0.867896 0
M  V30 14 C -1.020947 1.043816 1.215040 0
M  V30 15 C -1.510240 -0.016076 1.981419 0
M  V30 16 O -2.814775 -0.222314 2.347514 0
M  V30 17 C -3.839866 0.612303 1.873848 0
M  V30 18 C -4.017018 0.322766 0.400831 0
M  V30 19 C -5.054616 1.187818 -0.275471 0
M  V30 20 N -5.166677 0.764133 -1.629164 0
M  V30 21 C -4.075927 1.017644 -2.500446 0
M  V30 22 C -4.429338 0.314540 -3.818639 0
M  V30 23 N -4.245881 -1.089816 -3.618031 0
M  V30 24 C -4.716823 -1.841207 -4.738160 0
M  V30 25 C -4.847584 -1.521471 -2.366401 0
M  V30 26 C -5.807054 -0.501081 -1.814037 0
M  V30 27 C -0.574896 -0.968439 2.424060 0
M  V30 28 O -1.013469 -2.007743 3.169276 0
M  V30 29 C -0.382865 -3.086301 3.747301 0
M  V30 30 C 0.784479 -0.854886 2.108391 0
M  V30 31 C 1.128786 0.237571 1.346724 0
M  V30 32 C 4.469940 -2.420270 0.864803 0
M  V30 33 Cl 3.179482 -2.763787 -0.289213 0
M  V30 34 C 5.402857 -3.410485 0.874521 0
M  V30 35 C 6.477067 -3.257579 1.750862 0
M  V30 36 Cl 7.717715 -4.498333 1.803820 0
M  V30 37 H 6.694418 -0.744295 4.777192 0
M  V30 38 H 8.008380 0.089647 3.785721 0
M  V30 39 H 8.434465 -1.022294 5.127375 0
M  V30 40 H 5.657996 -0.346716 3.091088 0
M  V30 41 H 3.287067 -0.453327 2.466359 0
M  V30 42 H 2.261997 3.311936 -0.670080 0
M  V30 43 H -1.703300 1.824467 0.867392 0
M  V30 44 H -3.508029 1.687010 2.017197 0
M  V30 45 H -4.755559 0.517624 2.455233 0
M  V30 46 H -4.411588 -0.765711 0.394612 0
M  V30 47 H -3.073957 0.331266 -0.107849 0
M  V30 48 H -4.650982 2.245189 -0.276961 0
M  V30 49 H -5.997941 1.244624 0.264604 0
M  V30 50 H -3.911996 2.093484 -2.644507 0
M  V30 51 H -3.167222 0.527594 -2.108631 0
M  V30 52 H -3.814832 0.699238 -4.644198 0
M  V30 53 H -5.519594 0.496779 -3.970923 0
M  V30 54 H -5.825138 -1.888687 -4.702335 0
M  V30 55 H -4.425554 -1.308533 -5.674595 0
M  V30 56 H -4.264529 -2.860333 -4.785363 0
M  V30 57 H -4.005593 -1.696932 -1.681293 0
M  V30 58 H -5.380598 -2.496608 -2.494479 0
M  V30 59 H -6.696622 -0.499202 -2.455221 0
M  V30 60 H -6.146503 -0.868979 -0.824033 0
M  V30 61 H 0.604946 -2.762039 4.139040 0
M  V30 62 H -0.143847 -3.912423 3.015355 0
M  V30 63 H -0.907188 -3.524484 4.621916 0
M  V30 64 H 1.511922 -1.564944 2.424323 0
M  V30 65 H 5.421551 -4.324225 0.272805 0
M  V30 END ATOM
M  V30 BEGIN BOND
M  V30 1 1 1 2
M  V30 2 1 2 3
M  V30 3 2 3 4
M  V30 4 1 4 5
M  V30 5 1 5 6
M  V30 6 1 6 7
M  V30 7 2 7 8
M  V30 8 1 8 9
M  V30 9 3 9 10
M  V30 10 1 8 11
M  V30 11 2 11 12
M  V30 12 1 12 13
M  V30 13 2 13 14
M  V30 14 1 14 15
M  V30 15 1 15 16
M  V30 16 1 16 17
M  V30 17 1 17 18
M  V30 18 1 18 19
M  V30 19 1 19 20
M  V30 20 1 20 21
M  V30 21 1 21 22
M  V30 22 1 22 23
M  V30 23 1 23 24
M  V30 24 1 23 25
M  V30 25 1 25 26
M  V30 26 2 15 27
M  V30 27 1 27 28
M  V30 28 1 28 29
M  V30 29 1 27 30
M  V30 30 2 30 31
M  V30 31 2 5 32
M  V30 32 1 32 33
M  V30 33 1 32 34
M  V30 34 2 34 35
M  V30 35 1 35 36
M  V30 36 1 35 3
M  V30 37 1 31 7
M  V30 38 1 31 13
M  V30 39 1 26 20
M  V30 40 1 1 37
M  V30 41 1 1 38
M  V30 42 1 1 39
M  V30 43 1 4 40
M  V30 44 1 6 41
M  V30 45 1 11 42
M  V30 46 1 14 43
M  V30 47 1 17 44
M  V30 48 1 17 45
M  V30 49 1 18 46
M  V30 50 1 18 47
M  V30 51 1 19 48
M  V30 52 1 19 49
M  V30 53 1 21 50
M  V30 54 1 21 51
M  V30 55 1 22 52
M  V30 56 1 22 53
M  V30 57 1 24 54
M  V30 58 1 24 55
M  V30 59 1 24 56
M  V30 60 1 25 57
M  V30 61 1 25 58
M  V30 62 1 26 59
M  V30 63 1 26 60
M  V30 64 1 29 61
M  V30 65 1 29 62
M  V30 66 1 29 63
M  V30 67 1 30 64
M  V30 68 1 34 65
M  V30 END BOND
M  V30 END CTAB
M  END
>  <Dataset>  (92) 
PKIs

>  <Ligand_Instance>  (92) 
nan

>  <PDB_ID>  (92) 
nan

>  <Standardized_SMILES>  (92) 
COc1cc(Nc2c(C#N)cnc3cc(OCCCN4CCN(C)CC4)c(OC)cc23)c(Cl)cc1Cl

>  <Name>  (92) 
Bosutinib

>  <Pocket>  (92) 
nan

>  <ATP_Site>  (92) 
nan

>  <Peripheral>  (92) 
nan

>  <Num_H_Atoms_ProtBoundConf>  (92) 
nan

>  <Num_Resolved_Atoms>  (92) 
nan

>  <Num_Not_Resolved_Atoms>  (92) 
nan

>  <2D_Mol_H>  (92) 
<rdkit.Chem.rdchem.Mol object at 0x72a239142490>

>  <MW>  (92) 
530.456

>  <HBA>  (92) 
8

>  <HBD>  (92) 
1

>  <LogP>  (92) 
5.19038

>  <NRB>  (92) 
12

>  <TPSA>  (92) 
82.88

>  <Num_Heavy_Atoms>  (92) 
36

>  <Ro5>  (92) 
[False, True, True, False, False, True]

>  <Ro5_Fulfilled>  (92) 
False

>  <Ro3>  (92) 
[False, False, True, False]

>  <Ro3_Fulfilled>  (92) 
False

>  <Fsp3>  (92) 
0.384615

>  <Fsp3_0.42>  (92) 
False

>  <Fsp3_0.45>  (92) 
False

>  <Stereogenic_Carbons>  (92) 
0

>  <C_Atoms>  (92) 
26

>  <FCStereo>  (92) 
0.0

>  <SPS>  (92) 
520

>  <nSPS>  (92) 
14.444444

>  <PBF>  (92) 
1.424601

>  <PBF_0.6>  (92) 
True

>  <nPBF>  (92) 
0.039572

>  <nPBF_0.016>  (92) 
True

>  <PMI1>  (92) 
2968.449003

>  <PMI2>  (92) 
13097.159857

>  <PMI3>  (92) 
13256.215202

>  <NPR1>  (92) 
0.223929

>  <NPR2>  (92) 
0.988001

>  <Sum_NPR>  (92) 
1.21193

>  <Sum_NPR_1.07>  (92) 
True

>  <Sum_NPR_1.2>  (92) 
True

>  <MaxAbsEStateIndex>  (92) 
9.74512

>  <MaxEStateIndex>  (92) 
9.74512

>  <MinAbsEStateIndex>  (92) 
0.356835

>  <MinEStateIndex>  (92) 
0.356835

>  <qed>  (92) 
0.378829

>  <MolWt>  (92) 
530.456

>  <HeavyAtomMolWt>  (92) 
501.224

>  <ExactMolWt>  (92) 
529.164745

>  <NumValenceElectrons>  (92) 
190

>  <NumRadicalElectrons>  (92) 
0

>  <MaxPartialCharge>  (92) 
0.162841

>  <MinPartialCharge>  (92) 
-0.495117

>  <MaxAbsPartialCharge>  (92) 
0.495117

>  <MinAbsPartialCharge>  (92) 
0.162841

>  <FpDensityMorgan1>  (92) 
1.0

>  <FpDensityMorgan2>  (92) 
1.75

>  <FpDensityMorgan3>  (92) 
2.444444

>  <BCUT2D_MWHI>  (92) 
35.496837

>  <BCUT2D_MWLOW>  (92) 
10.084252

>  <BCUT2D_CHGHI>  (92) 
2.172811

>  <BCUT2D_CHGLO>  (92) 
-2.317563

>  <BCUT2D_LOGPHI>  (92) 
2.400067

>  <BCUT2D_LOGPLOW>  (92) 
-2.443917

>  <BCUT2D_MRHI>  (92) 
6.369572

>  <BCUT2D_MRLOW>  (92) 
0.144853

>  <AvgIpc>  (92) 
2.883343

>  <BalabanJ>  (92) 
1.570807

>  <BertzCT>  (92) 
1272.894954

>  <Chi0>  (92) 
25.656125

>  <Chi0n>  (92) 
20.606027

>  <Chi0v>  (92) 
22.117885

>  <Chi1>  (92) 
17.426585

>  <Chi1n>  (92) 
11.67735

>  <Chi1v>  (92) 
12.433279

>  <Chi2n>  (92) 
8.617426

>  <Chi2v>  (92) 
9.431826

>  <Chi3n>  (92) 
6.247116

>  <Chi3v>  (92) 
6.855194

>  <Chi4n>  (92) 
4.149517

>  <Chi4v>  (92) 
4.65709

>  <HallKierAlpha>  (92) 
-2.96

>  <Ipc>  (92) 
120795972.247908

>  <Kappa1>  (92) 
26.112923

>  <Kappa2>  (92) 
11.849898

>  <Kappa3>  (92) 
5.876517

>  <LabuteASA>  (92) 
220.807619

>  <PEOE_VSA1>  (92) 
29.327197

>  <PEOE_VSA10>  (92) 
11.818733

>  <PEOE_VSA11>  (92) 
11.499024

>  <PEOE_VSA12>  (92) 
0.0

>  <PEOE_VSA13>  (92) 
0.0

>  <PEOE_VSA14>  (92) 
0.0

>  <PEOE_VSA2>  (92) 
4.983979

>  <PEOE_VSA3>  (92) 
0.0

>  <PEOE_VSA4>  (92) 
5.261892

>  <PEOE_VSA5>  (92) 
0.0

>  <PEOE_VSA6>  (92) 
23.20188

>  <PEOE_VSA7>  (92) 
25.601228

>  <PEOE_VSA8>  (92) 
56.439584

>  <PEOE_VSA9>  (92) 
53.326668

>  <SMR_VSA1>  (92) 
14.210589

>  <SMR_VSA10>  (92) 
45.479577

>  <SMR_VSA2>  (92) 
5.261892

>  <SMR_VSA3>  (92) 
14.783798

>  <SMR_VSA4>  (92) 
0.0

>  <SMR_VSA5>  (92) 
6.420822

>  <SMR_VSA6>  (92) 
65.91472

>  <SMR_VSA7>  (92) 
46.07103

>  <SMR_VSA8>  (92) 
0.0

>  <SMR_VSA9>  (92) 
23.317757

>  <SlogP_VSA1>  (92) 
19.527377

>  <SlogP_VSA10>  (92) 
11.374773

>  <SlogP_VSA11>  (92) 
17.248535

>  <SlogP_VSA12>  (92) 
23.20188

>  <SlogP_VSA2>  (92) 
75.381729

>  <SlogP_VSA3>  (92) 
0.0

>  <SlogP_VSA4>  (92) 
11.331113

>  <SlogP_VSA5>  (92) 
11.984273

>  <SlogP_VSA6>  (92) 
30.462312

>  <SlogP_VSA7>  (92) 
10.045267

>  <SlogP_VSA8>  (92) 
10.902925

>  <SlogP_VSA9>  (92) 
0.0

>  <EState_VSA1>  (92) 
0.0

>  <EState_VSA10>  (92) 
5.261892

>  <EState_VSA11>  (92) 
0.0

>  <EState_VSA2>  (92) 
0.0

>  <EState_VSA3>  (92) 
61.741833

>  <EState_VSA4>  (92) 
39.144604

>  <EState_VSA5>  (92) 
13.306641

>  <EState_VSA6>  (92) 
19.242532

>  <EState_VSA7>  (92) 
12.132734

>  <EState_VSA8>  (92) 
33.21748

>  <EState_VSA9>  (92) 
37.412469

>  <VSA_EState1>  (92) 
17.024997

>  <VSA_EState10>  (92) 
12.604129

>  <VSA_EState2>  (92) 
9.284178

>  <VSA_EState3>  (92) 
14.484444

>  <VSA_EState4>  (92) 
2.108897

>  <VSA_EState5>  (92) 
1.629469

>  <VSA_EState6>  (92) 
9.12499

>  <VSA_EState7>  (92) 
2.435278

>  <VSA_EState8>  (92) 
5.91995

>  <VSA_EState9>  (92) 
5.272556

>  <FractionCSP3>  (92) 
0.384615

>  <HeavyAtomCount>  (92) 
36

>  <NHOHCount>  (92) 
1

>  <NOCount>  (92) 
8

>  <NumAliphaticCarbocycles>  (92) 
0

>  <NumAliphaticHeterocycles>  (92) 
1

>  <NumAliphaticRings>  (92) 
1

>  <NumAromaticCarbocycles>  (92) 
2

>  <NumAromaticHeterocycles>  (92) 
1

>  <NumAromaticRings>  (92) 
3

>  <NumHAcceptors>  (92) 
8

>  <NumHDonors>  (92) 
1

>  <NumHeteroatoms>  (92) 
10

>  <NumRotatableBonds>  (92) 
9

>  <NumSaturatedCarbocycles>  (92) 
0

>  <NumSaturatedHeterocycles>  (92) 
1

>  <NumSaturatedRings>  (92) 
1

>  <RingCount>  (92) 
4

>  <MolLogP>  (92) 
5.19038

>  <MolMR>  (92) 
143.3557

>  <fr_Al_COO>  (92) 
0

>  <fr_Al_OH>  (92) 
0

>  <fr_Al_OH_noTert>  (92) 
0

>  <fr_ArN>  (92) 
0

>  <fr_Ar_COO>  (92) 
0

>  <fr_Ar_N>  (92) 
1

>  <fr_Ar_NH>  (92) 
0

>  <fr_Ar_OH>  (92) 
0

>  <fr_COO>  (92) 
0

>  <fr_COO2>  (92) 
0

>  <fr_C_O>  (92) 
0

>  <fr_C_O_noCOO>  (92) 
0

>  <fr_C_S>  (92) 
0

>  <fr_HOCCN>  (92) 
0

>  <fr_Imine>  (92) 
0

>  <fr_NH0>  (92) 
4

>  <fr_NH1>  (92) 
1

>  <fr_NH2>  (92) 
0

>  <fr_N_O>  (92) 
0

>  <fr_Ndealkylation1>  (92) 
1

>  <fr_Ndealkylation2>  (92) 
0

>  <fr_Nhpyrrole>  (92) 
0

>  <fr_SH>  (92) 
0

>  <fr_aldehyde>  (92) 
0

>  <fr_alkyl_carbamate>  (92) 
0

>  <fr_alkyl_halide>  (92) 
0

>  <fr_allylic_oxid>  (92) 
0

>  <fr_amide>  (92) 
0

>  <fr_amidine>  (92) 
0

>  <fr_aniline>  (92) 
2

>  <fr_aryl_methyl>  (92) 
0

>  <fr_azide>  (92) 
0

>  <fr_azo>  (92) 
0

>  <fr_barbitur>  (92) 
0

>  <fr_benzene>  (92) 
2

>  <fr_benzodiazepine>  (92) 
0

>  <fr_bicyclic>  (92) 
1

>  <fr_diazo>  (92) 
0

>  <fr_dihydropyridine>  (92) 
0

>  <fr_epoxide>  (92) 
0

>  <fr_ester>  (92) 
0

>  <fr_ether>  (92) 
3

>  <fr_furan>  (92) 
0

>  <fr_guanido>  (92) 
0

>  <fr_halogen>  (92) 
2

>  <fr_hdrzine>  (92) 
0

>  <fr_hdrzone>  (92) 
0

>  <fr_imidazole>  (92) 
0

>  <fr_imide>  (92) 
0

>  <fr_isocyan>  (92) 
0

>  <fr_isothiocyan>  (92) 
0

>  <fr_ketone>  (92) 
0

>  <fr_ketone_Topliss>  (92) 
0

>  <fr_lactam>  (92) 
0

>  <fr_lactone>  (92) 
0

>  <fr_methoxy>  (92) 
2

>  <fr_morpholine>  (92) 
0

>  <fr_nitrile>  (92) 
1

>  <fr_nitro>  (92) 
0

>  <fr_nitro_arom>  (92) 
0

>  <fr_nitro_arom_nonortho>  (92) 
0

>  <fr_nitroso>  (92) 
0

>  <fr_oxazole>  (92) 
0

>  <fr_oxime>  (92) 
0

>  <fr_para_hydroxylation>  (92) 
0

>  <fr_phenol>  (92) 
0

>  <fr_phenol_noOrthoHbond>  (92) 
0

>  <fr_phos_acid>  (92) 
0

>  <fr_phos_ester>  (92) 
0

>  <fr_piperdine>  (92) 
0

>  <fr_piperzine>  (92) 
1

>  <fr_priamide>  (92) 
0

>  <fr_prisulfonamd>  (92) 
0

>  <fr_pyridine>  (92) 
1

>  <fr_quatN>  (92) 
0

>  <fr_sulfide>  (92) 
0

>  <fr_sulfonamd>  (92) 
0

>  <fr_sulfone>  (92) 
0

>  <fr_term_acetylene>  (92) 
0

>  <fr_tetrazole>  (92) 
0

>  <fr_thiazole>  (92) 
0

>  <fr_thiocyan>  (92) 
0

>  <fr_thiophene>  (92) 
0

>  <fr_unbrch_alkane>  (92) 
0

>  <fr_urea>  (92) 
0

>  <NP_Likeness>  (92) 
-1.363605

$$$$
nan
     RDKit          3D

  0  0  0  0  0  0  0  0  0  0999 V3000
M  V30 BEGIN CTAB
M  V30 COUNTS 54 57 0 0 0
M  V30 BEGIN ATOM
M  V30 1 C -2.167684 1.928517 1.649915 0
M  V30 2 O -1.657049 0.643470 1.767231 0
M  V30 3 C -0.365470 0.221433 1.869512 0
M  V30 4 C 0.768257 1.024799 1.876491 0
M  V30 5 C 1.988171 0.395804 1.984479 0
M  V30 6 C 3.136062 1.132464 1.982516 0
M  V30 7 N 3.029965 2.544443 1.889535 0
M  V30 8 C 2.869090 3.270836 0.681264 0
M  V30 9 C 2.787144 2.614627 -0.526717 0
M  V30 10 C 2.630150 3.379770 -1.652805 0
M  V30 11 C 2.554904 4.750976 -1.604523 0
M  V30 12 Br 2.332998 5.851754 -3.137391 0
M  V30 13 C 2.636997 5.410066 -0.399658 0
M  V30 14 C 2.795397 4.635130 0.736616 0
M  V30 15 F 2.880976 5.265889 1.948573 0
M  V30 16 N 4.366956 0.567227 2.074857 0
M  V30 17 C 4.509643 -0.770407 2.174616 0
M  V30 18 N 3.388848 -1.513398 2.177533 0
M  V30 19 C 2.164021 -0.974459 2.086456 0
M  V30 20 C 1.011843 -1.765236 2.078987 0
M  V30 21 C -0.256486 -1.179091 1.970526 0
M  V30 22 O -1.276681 -1.940368 1.964936 0
M  V30 23 C -2.319138 -2.728510 1.959886 0
M  V30 24 C -2.197671 -3.682191 0.746113 0
M  V30 25 C -3.368501 -4.591374 0.697891 0
M  V30 26 C -3.470171 -5.344908 -0.597336 0
M  V30 27 N -2.737479 -4.805845 -1.688090 0
M  V30 28 C -1.619059 -5.573021 -2.146344 0
M  V30 29 C -2.580022 -3.387429 -1.719433 0
M  V30 30 C -1.995985 -2.822083 -0.452995 0
M  V30 31 H -2.247127 2.396152 2.646472 0
M  V30 32 H -1.579386 2.554278 0.923370 0
M  V30 33 H -3.223329 1.930338 1.257826 0
M  V30 34 H 0.629011 2.087946 1.795214 0
M  V30 35 H 3.083015 3.014516 2.813936 0
M  V30 36 H 2.847120 1.530817 -0.578282 0
M  V30 37 H 2.556058 2.940475 -2.616097 0
M  V30 38 H 2.585368 6.479376 -0.281256 0
M  V30 39 H 5.468630 -1.262635 2.247994 0
M  V30 40 H 1.112554 -2.842703 2.158409 0
M  V30 41 H -3.303876 -2.183446 1.832703 0
M  V30 42 H -2.425742 -3.386035 2.875559 0
M  V30 43 H -1.304794 -4.297079 1.008908 0
M  V30 44 H -3.271500 -5.344028 1.518670 0
M  V30 45 H -4.310327 -4.030618 0.939607 0
M  V30 46 H -3.206139 -6.415327 -0.507560 0
M  V30 47 H -4.559679 -5.319881 -0.896249 0
M  V30 48 H -0.646345 -5.119126 -1.954226 0
M  V30 49 H -1.709805 -5.732402 -3.244763 0
M  V30 50 H -1.677660 -6.582816 -1.664875 0
M  V30 51 H -3.560895 -2.902236 -1.898282 0
M  V30 52 H -1.919683 -3.126512 -2.551723 0
M  V30 53 H -2.400199 -1.808685 -0.257544 0
M  V30 54 H -0.884339 -2.662707 -0.551751 0
M  V30 END ATOM
M  V30 BEGIN BOND
M  V30 1 1 1 2
M  V30 2 1 2 3
M  V30 3 2 3 4
M  V30 4 1 4 5
M  V30 5 2 5 6
M  V30 6 1 6 7
M  V30 7 1 7 8
M  V30 8 2 8 9
M  V30 9 1 9 10
M  V30 10 2 10 11
M  V30 11 1 11 12
M  V30 12 1 11 13
M  V30 13 2 13 14
M  V30 14 1 14 15
M  V30 15 1 6 16
M  V30 16 2 16 17
M  V30 17 1 17 18
M  V30 18 2 18 19
M  V30 19 1 19 20
M  V30 20 2 20 21
M  V30 21 1 21 22
M  V30 22 1 22 23
M  V30 23 1 23 24
M  V30 24 1 24 25
M  V30 25 1 25 26
M  V30 26 1 26 27
M  V30 27 1 27 28
M  V30 28 1 27 29
M  V30 29 1 29 30
M  V30 30 1 21 3
M  V30 31 1 30 24
M  V30 32 1 19 5
M  V30 33 1 14 8
M  V30 34 1 1 31
M  V30 35 1 1 32
M  V30 36 1 1 33
M  V30 37 1 4 34
M  V30 38 1 7 35
M  V30 39 1 9 36
M  V30 40 1 10 37
M  V30 41 1 13 38
M  V30 42 1 17 39
M  V30 43 1 20 40
M  V30 44 1 23 41
M  V30 45 1 23 42
M  V30 46 1 24 43
M  V30 47 1 25 44
M  V30 48 1 25 45
M  V30 49 1 26 46
M  V30 50 1 26 47
M  V30 51 1 28 48
M  V30 52 1 28 49
M  V30 53 1 28 50
M  V30 54 1 29 51
M  V30 55 1 29 52
M  V30 56 1 30 53
M  V30 57 1 30 54
M  V30 END BOND
M  V30 END CTAB
M  END
>  <Dataset>  (93) 
PKIs

>  <Ligand_Instance>  (93) 
nan

>  <PDB_ID>  (93) 
nan

>  <Standardized_SMILES>  (93) 
COc1cc2c(Nc3ccc(Br)cc3F)ncnc2cc1OCC1CCN(C)CC1

>  <Name>  (93) 
Vandetanib

>  <Pocket>  (93) 
nan

>  <ATP_Site>  (93) 
nan

>  <Peripheral>  (93) 
nan

>  <Num_H_Atoms_ProtBoundConf>  (93) 
nan

>  <Num_Resolved_Atoms>  (93) 
nan

>  <Num_Not_Resolved_Atoms>  (93) 
nan

>  <2D_Mol_H>  (93) 
<rdkit.Chem.rdchem.Mol object at 0x72a239142570>

>  <MW>  (93) 
475.362

>  <HBA>  (93) 
6

>  <HBD>  (93) 
1

>  <LogP>  (93) 
5.0042

>  <NRB>  (93) 
8

>  <TPSA>  (93) 
59.51

>  <Num_Heavy_Atoms>  (93) 
30

>  <Ro5>  (93) 
[True, True, True, False, True, True]

>  <Ro5_Fulfilled>  (93) 
True

>  <Ro3>  (93) 
[False, False, True, False]

>  <Ro3_Fulfilled>  (93) 
False

>  <Fsp3>  (93) 
0.363636

>  <Fsp3_0.42>  (93) 
False

>  <Fsp3_0.45>  (93) 
False

>  <Stereogenic_Carbons>  (93) 
0

>  <C_Atoms>  (93) 
22

>  <FCStereo>  (93) 
0.0

>  <SPS>  (93) 
460

>  <nSPS>  (93) 
15.333333

>  <PBF>  (93) 
1.358192

>  <PBF_0.6>  (93) 
True

>  <nPBF>  (93) 
0.045273

>  <nPBF_0.016>  (93) 
True

>  <PMI1>  (93) 
2876.071329

>  <PMI2>  (93) 
9287.880455

>  <PMI3>  (93) 
10563.011227

>  <NPR1>  (93) 
0.272278

>  <NPR2>  (93) 
0.879283

>  <Sum_NPR>  (93) 
1.151561

>  <Sum_NPR_1.07>  (93) 
True

>  <Sum_NPR_1.2>  (93) 
False

>  <MaxAbsEStateIndex>  (93) 
14.263532

>  <MaxEStateIndex>  (93) 
14.263532

>  <MinAbsEStateIndex>  (93) 
0.333111

>  <MinEStateIndex>  (93) 
-0.373905

>  <qed>  (93) 
0.541529

>  <MolWt>  (93) 
475.362

>  <HeavyAtomMolWt>  (93) 
451.17

>  <ExactMolWt>  (93) 
474.106666

>  <NumValenceElectrons>  (93) 
158

>  <NumRadicalElectrons>  (93) 
0

>  <MaxPartialCharge>  (93) 
0.162859

>  <MinPartialCharge>  (93) 
-0.492842

>  <MaxAbsPartialCharge>  (93) 
0.492842

>  <MinAbsPartialCharge>  (93) 
0.162859

>  <FpDensityMorgan1>  (93) 
1.166667

>  <FpDensityMorgan2>  (93) 
1.966667

>  <FpDensityMorgan3>  (93) 
2.7

>  <BCUT2D_MWHI>  (93) 
79.918731

>  <BCUT2D_MWLOW>  (93) 
9.981837

>  <BCUT2D_CHGHI>  (93) 
2.187768

>  <BCUT2D_CHGLO>  (93) 
-2.28466

>  <BCUT2D_LOGPHI>  (93) 
2.354329

>  <BCUT2D_LOGPLOW>  (93) 
-2.320639

>  <BCUT2D_MRHI>  (93) 
9.103001

>  <BCUT2D_MRLOW>  (93) 
0.157285

>  <AvgIpc>  (93) 
2.745192

>  <BalabanJ>  (93) 
1.584797

>  <BertzCT>  (93) 
1041.066423

>  <Chi0>  (93) 
21.087211

>  <Chi0n>  (93) 
16.991052

>  <Chi0v>  (93) 
18.577049

>  <Chi1>  (93) 
14.529208

>  <Chi1n>  (93) 
9.893896

>  <Chi1v>  (93) 
10.686894

>  <Chi2n>  (93) 
7.549316

>  <Chi2v>  (93) 
8.464992

>  <Chi3n>  (93) 
5.417615

>  <Chi3v>  (93) 
5.910867

>  <Chi4n>  (93) 
3.590739

>  <Chi4v>  (93) 
3.923888

>  <HallKierAlpha>  (93) 
-2.45

>  <Ipc>  (93) 
7246165.158178

>  <Kappa1>  (93) 
20.807899

>  <Kappa2>  (93) 
9.138397

>  <Kappa3>  (93) 
4.649468

>  <LabuteASA>  (93) 
183.093033

>  <PEOE_VSA1>  (93) 
19.690424

>  <PEOE_VSA10>  (93) 
17.962404

>  <PEOE_VSA11>  (93) 
11.499024

>  <PEOE_VSA12>  (93) 
0.0

>  <PEOE_VSA13>  (93) 
0.0

>  <PEOE_VSA14>  (93) 
0.0

>  <PEOE_VSA2>  (93) 
0.0

>  <PEOE_VSA3>  (93) 
14.358372

>  <PEOE_VSA4>  (93) 
0.0

>  <PEOE_VSA5>  (93) 
0.0

>  <PEOE_VSA6>  (93) 
15.929944

>  <PEOE_VSA7>  (93) 
63.162202

>  <PEOE_VSA8>  (93) 
15.925311

>  <PEOE_VSA9>  (93) 
24.920766

>  <SMR_VSA1>  (93) 
13.864141

>  <SMR_VSA10>  (93) 
38.338118

>  <SMR_VSA2>  (93) 
0.0

>  <SMR_VSA3>  (93) 
14.867867

>  <SMR_VSA4>  (93) 
5.917906

>  <SMR_VSA5>  (93) 
12.841643

>  <SMR_VSA6>  (93) 
39.170653

>  <SMR_VSA7>  (93) 
46.949096

>  <SMR_VSA8>  (93) 
0.0

>  <SMR_VSA9>  (93) 
11.499024

>  <SlogP_VSA1>  (93) 
14.790515

>  <SlogP_VSA10>  (93) 
15.895664

>  <SlogP_VSA11>  (93) 
11.499024

>  <SlogP_VSA12>  (93) 
15.929944

>  <SlogP_VSA2>  (93) 
48.721731

>  <SlogP_VSA3>  (93) 
0.0

>  <SlogP_VSA4>  (93) 
11.735127

>  <SlogP_VSA5>  (93) 
12.841643

>  <SlogP_VSA6>  (93) 
41.131875

>  <SlogP_VSA7>  (93) 
0.0

>  <SlogP_VSA8>  (93) 
10.902925

>  <SlogP_VSA9>  (93) 
0.0

>  <EState_VSA1>  (93) 
0.0

>  <EState_VSA10>  (93) 
4.390415

>  <EState_VSA11>  (93) 
0.0

>  <EState_VSA2>  (93) 
5.817221

>  <EState_VSA3>  (93) 
45.518481

>  <EState_VSA4>  (93) 
31.31738

>  <EState_VSA5>  (93) 
12.393687

>  <EState_VSA6>  (93) 
19.242532

>  <EState_VSA7>  (93) 
12.132734

>  <EState_VSA8>  (93) 
43.162271

>  <EState_VSA9>  (93) 
9.473726

>  <VSA_EState1>  (93) 
26.60588

>  <VSA_EState10>  (93) 
3.268383

>  <VSA_EState2>  (93) 
11.001989

>  <VSA_EState3>  (93) 
3.778349

>  <VSA_EState4>  (93) 
1.031442

>  <VSA_EState5>  (93) 
1.916795

>  <VSA_EState6>  (93) 
8.515484

>  <VSA_EState7>  (93) 
3.705786

>  <VSA_EState8>  (93) 
2.838798

>  <VSA_EState9>  (93) 
3.753761

>  <FractionCSP3>  (93) 
0.363636

>  <HeavyAtomCount>  (93) 
30

>  <NHOHCount>  (93) 
1

>  <NOCount>  (93) 
6

>  <NumAliphaticCarbocycles>  (93) 
0

>  <NumAliphaticHeterocycles>  (93) 
1

>  <NumAliphaticRings>  (93) 
1

>  <NumAromaticCarbocycles>  (93) 
2

>  <NumAromaticHeterocycles>  (93) 
1

>  <NumAromaticRings>  (93) 
3

>  <NumHAcceptors>  (93) 
6

>  <NumHDonors>  (93) 
1

>  <NumHeteroatoms>  (93) 
8

>  <NumRotatableBonds>  (93) 
6

>  <NumSaturatedCarbocycles>  (93) 
0

>  <NumSaturatedHeterocycles>  (93) 
1

>  <NumSaturatedRings>  (93) 
1

>  <RingCount>  (93) 
4

>  <MolLogP>  (93) 
5.0042

>  <MolMR>  (93) 
119.1887

>  <fr_Al_COO>  (93) 
0

>  <fr_Al_OH>  (93) 
0

>  <fr_Al_OH_noTert>  (93) 
0

>  <fr_ArN>  (93) 
0

>  <fr_Ar_COO>  (93) 
0

>  <fr_Ar_N>  (93) 
2

>  <fr_Ar_NH>  (93) 
0

>  <fr_Ar_OH>  (93) 
0

>  <fr_COO>  (93) 
0

>  <fr_COO2>  (93) 
0

>  <fr_C_O>  (93) 
0

>  <fr_C_O_noCOO>  (93) 
0

>  <fr_C_S>  (93) 
0

>  <fr_HOCCN>  (93) 
0

>  <fr_Imine>  (93) 
0

>  <fr_NH0>  (93) 
3

>  <fr_NH1>  (93) 
1

>  <fr_NH2>  (93) 
0

>  <fr_N_O>  (93) 
0

>  <fr_Ndealkylation1>  (93) 
0

>  <fr_Ndealkylation2>  (93) 
1

>  <fr_Nhpyrrole>  (93) 
0

>  <fr_SH>  (93) 
0

>  <fr_aldehyde>  (93) 
0

>  <fr_alkyl_carbamate>  (93) 
0

>  <fr_alkyl_halide>  (93) 
0

>  <fr_allylic_oxid>  (93) 
0

>  <fr_amide>  (93) 
0

>  <fr_amidine>  (93) 
0

>  <fr_aniline>  (93) 
2

>  <fr_aryl_methyl>  (93) 
0

>  <fr_azide>  (93) 
0

>  <fr_azo>  (93) 
0

>  <fr_barbitur>  (93) 
0

>  <fr_benzene>  (93) 
2

>  <fr_benzodiazepine>  (93) 
0

>  <fr_bicyclic>  (93) 
1

>  <fr_diazo>  (93) 
0

>  <fr_dihydropyridine>  (93) 
0

>  <fr_epoxide>  (93) 
0

>  <fr_ester>  (93) 
0

>  <fr_ether>  (93) 
2

>  <fr_furan>  (93) 
0

>  <fr_guanido>  (93) 
0

>  <fr_halogen>  (93) 
2

>  <fr_hdrzine>  (93) 
0

>  <fr_hdrzone>  (93) 
0

>  <fr_imidazole>  (93) 
0

>  <fr_imide>  (93) 
0

>  <fr_isocyan>  (93) 
0

>  <fr_isothiocyan>  (93) 
0

>  <fr_ketone>  (93) 
0

>  <fr_ketone_Topliss>  (93) 
0

>  <fr_lactam>  (93) 
0

>  <fr_lactone>  (93) 
0

>  <fr_methoxy>  (93) 
1

>  <fr_morpholine>  (93) 
0

>  <fr_nitrile>  (93) 
0

>  <fr_nitro>  (93) 
0

>  <fr_nitro_arom>  (93) 
0

>  <fr_nitro_arom_nonortho>  (93) 
0

>  <fr_nitroso>  (93) 
0

>  <fr_oxazole>  (93) 
0

>  <fr_oxime>  (93) 
0

>  <fr_para_hydroxylation>  (93) 
0

>  <fr_phenol>  (93) 
0

>  <fr_phenol_noOrthoHbond>  (93) 
0

>  <fr_phos_acid>  (93) 
0

>  <fr_phos_ester>  (93) 
0

>  <fr_piperdine>  (93) 
1

>  <fr_piperzine>  (93) 
0

>  <fr_priamide>  (93) 
0

>  <fr_prisulfonamd>  (93) 
0

>  <fr_pyridine>  (93) 
0

>  <fr_quatN>  (93) 
0

>  <fr_sulfide>  (93) 
0

>  <fr_sulfonamd>  (93) 
0

>  <fr_sulfone>  (93) 
0

>  <fr_term_acetylene>  (93) 
0

>  <fr_tetrazole>  (93) 
0

>  <fr_thiazole>  (93) 
0

>  <fr_thiocyan>  (93) 
0

>  <fr_thiophene>  (93) 
0

>  <fr_unbrch_alkane>  (93) 
0

>  <fr_urea>  (93) 
0

>  <NP_Likeness>  (93) 
-1.324351

$$$$
nan
     RDKit          3D

  0  0  0  0  0  0  0  0  0  0999 V3000
M  V30 BEGIN CTAB
M  V30 COUNTS 50 53 0 0 0
M  V30 BEGIN ATOM
M  V30 1 C 7.057430 -2.368551 2.686684 0
M  V30 2 C 6.333440 -1.950618 1.819405 0
M  V30 3 C 5.462712 -1.437987 0.792049 0
M  V30 4 C 5.387852 -2.034889 -0.456232 0
M  V30 5 C 4.569167 -1.585729 -1.472289 0
M  V30 6 C 3.763676 -0.468060 -1.248566 0
M  V30 7 C 3.862105 0.102093 0.003435 0
M  V30 8 N 3.052593 1.253952 0.275669 0
M  V30 9 C 2.116787 1.814862 -0.638252 0
M  V30 10 N 2.369617 2.748986 -1.600601 0
M  V30 11 C 1.367775 3.182553 -2.387789 0
M  V30 12 N 0.084184 2.727292 -2.271594 0
M  V30 13 C -0.162421 1.800335 -1.315152 0
M  V30 14 C -1.474221 1.381595 -1.244246 0
M  V30 15 C -1.779948 0.440703 -0.285940 0
M  V30 16 C -0.807676 -0.087296 0.598107 0
M  V30 17 C 0.483918 0.383205 0.462900 0
M  V30 18 C 0.830336 1.325499 -0.484882 0
M  V30 19 O -1.260482 -0.979324 1.460127 0
M  V30 20 C -1.003507 -1.929635 2.341089 0
M  V30 21 C -2.211618 -2.572718 3.017365 0
M  V30 22 O -2.973247 -1.703294 3.695930 0
M  V30 23 C -3.737871 -0.757683 3.092928 0
M  V30 24 C -4.934165 -1.242082 2.335187 0
M  V30 25 O -4.961682 -2.033982 1.329067 0
M  V30 26 C -4.653161 -1.901598 0.071791 0
M  V30 27 C -3.314360 -1.458553 -0.425029 0
M  V30 28 O -3.030386 -0.170327 0.016287 0
M  V30 29 C 4.667620 -0.323567 1.033022 0
M  V30 30 H 7.697600 -2.755728 3.462474 0
M  V30 31 H 6.007868 -2.914164 -0.664139 0
M  V30 32 H 4.519672 -2.061079 -2.444703 0
M  V30 33 H 3.094012 -0.045850 -1.981320 0
M  V30 34 H 3.073684 1.785157 1.162028 0
M  V30 35 H 1.641678 3.930632 -3.136482 0
M  V30 36 H -2.323752 1.673833 -1.827094 0
M  V30 37 H 1.223880 -0.005814 1.121105 0
M  V30 38 H -0.324633 -2.761145 1.987144 0
M  V30 39 H -0.413201 -1.501604 3.211023 0
M  V30 40 H -2.754645 -3.165378 2.246716 0
M  V30 41 H -1.804783 -3.320422 3.727963 0
M  V30 42 H -3.177912 0.052926 2.599093 0
M  V30 43 H -4.209899 -0.181457 3.983764 0
M  V30 44 H -5.450249 -0.241508 2.025971 0
M  V30 45 H -5.725904 -1.602380 3.120822 0
M  V30 46 H -5.387394 -1.217794 -0.508632 0
M  V30 47 H -4.818260 -2.939194 -0.439010 0
M  V30 48 H -3.255714 -1.530411 -1.551811 0
M  V30 49 H -2.497476 -2.176494 -0.108294 0
M  V30 50 H 4.682483 0.181252 1.982175 0
M  V30 END ATOM
M  V30 BEGIN BOND
M  V30 1 3 1 2
M  V30 2 1 2 3
M  V30 3 2 3 4
M  V30 4 1 4 5
M  V30 5 2 5 6
M  V30 6 1 6 7
M  V30 7 1 7 8
M  V30 8 1 8 9
M  V30 9 2 9 10
M  V30 10 1 10 11
M  V30 11 2 11 12
M  V30 12 1 12 13
M  V30 13 2 13 14
M  V30 14 1 14 15
M  V30 15 2 15 16
M  V30 16 1 16 17
M  V30 17 2 17 18
M  V30 18 1 16 19
M  V30 19 1 19 20
M  V30 20 1 20 21
M  V30 21 1 21 22
M  V30 22 1 22 23
M  V30 23 1 23 24
M  V30 24 1 24 25
M  V30 25 1 25 26
M  V30 26 1 26 27
M  V30 27 1 27 28
M  V30 28 2 7 29
M  V30 29 1 29 3
M  V30 30 1 18 9
M  V30 31 1 18 13
M  V30 32 1 28 15
M  V30 33 1 1 30
M  V30 34 1 4 31
M  V30 35 1 5 32
M  V30 36 1 6 33
M  V30 37 1 8 34
M  V30 38 1 11 35
M  V30 39 1 14 36
M  V30 40 1 17 37
M  V30 41 1 20 38
M  V30 42 1 20 39
M  V30 43 1 21 40
M  V30 44 1 21 41
M  V30 45 1 23 42
M  V30 46 1 23 43
M  V30 47 1 24 44
M  V30 48 1 24 45
M  V30 49 1 26 46
M  V30 50 1 26 47
M  V30 51 1 27 48
M  V30 52 1 27 49
M  V30 53 1 29 50
M  V30 END BOND
M  V30 END CTAB
M  END
>  <Dataset>  (94) 
PKIs

>  <Ligand_Instance>  (94) 
nan

>  <PDB_ID>  (94) 
nan

>  <Standardized_SMILES>  (94) 
C#Cc1cccc(Nc2ncnc3cc4c(cc23)OCCOCCOCCO4)c1

>  <Name>  (94) 
Icotinib

>  <Pocket>  (94) 
nan

>  <ATP_Site>  (94) 
nan

>  <Peripheral>  (94) 
nan

>  <Num_H_Atoms_ProtBoundConf>  (94) 
nan

>  <Num_Resolved_Atoms>  (94) 
nan

>  <Num_Not_Resolved_Atoms>  (94) 
nan

>  <2D_Mol_H>  (94) 
<rdkit.Chem.rdchem.Mol object at 0x72a239142650>

>  <MW>  (94) 
391.427

>  <HBA>  (94) 
7

>  <HBD>  (94) 
1

>  <LogP>  (94) 
3.1591

>  <NRB>  (94) 
2

>  <TPSA>  (94) 
74.73

>  <Num_Heavy_Atoms>  (94) 
29

>  <Ro5>  (94) 
[True, True, True, True, True, True]

>  <Ro5_Fulfilled>  (94) 
True

>  <Ro3>  (94) 
[False, False, True, False]

>  <Ro3_Fulfilled>  (94) 
False

>  <Fsp3>  (94) 
0.272727

>  <Fsp3_0.42>  (94) 
False

>  <Fsp3_0.45>  (94) 
False

>  <Stereogenic_Carbons>  (94) 
0

>  <C_Atoms>  (94) 
22

>  <FCStereo>  (94) 
0.0

>  <SPS>  (94) 
435

>  <nSPS>  (94) 
15.0

>  <PBF>  (94) 
1.003435

>  <PBF_0.6>  (94) 
True

>  <nPBF>  (94) 
0.034601

>  <nPBF_0.016>  (94) 
True

>  <PMI1>  (94) 
2105.638546

>  <PMI2>  (94) 
5379.688373

>  <PMI3>  (94) 
6821.956394

>  <NPR1>  (94) 
0.308656

>  <NPR2>  (94) 
0.788584

>  <Sum_NPR>  (94) 
1.097241

>  <Sum_NPR_1.07>  (94) 
True

>  <Sum_NPR_1.2>  (94) 
False

>  <MaxAbsEStateIndex>  (94) 
5.909515

>  <MaxEStateIndex>  (94) 
5.909515

>  <MinAbsEStateIndex>  (94) 
0.405292

>  <MinEStateIndex>  (94) 
0.405292

>  <qed>  (94) 
0.672767

>  <MolWt>  (94) 
391.427

>  <HeavyAtomMolWt>  (94) 
370.259

>  <ExactMolWt>  (94) 
391.153206

>  <NumValenceElectrons>  (94) 
148

>  <NumRadicalElectrons>  (94) 
0

>  <MaxPartialCharge>  (94) 
0.162995

>  <MinPartialCharge>  (94) 
-0.487269

>  <MaxAbsPartialCharge>  (94) 
0.487269

>  <MinAbsPartialCharge>  (94) 
0.162995

>  <FpDensityMorgan1>  (94) 
0.862069

>  <FpDensityMorgan2>  (94) 
1.586207

>  <FpDensityMorgan3>  (94) 
2.344828

>  <BCUT2D_MWHI>  (94) 
16.567915

>  <BCUT2D_MWLOW>  (94) 
10.152744

>  <BCUT2D_CHGHI>  (94) 
2.131901

>  <BCUT2D_CHGLO>  (94) 
-2.163938

>  <BCUT2D_LOGPHI>  (94) 
2.347238

>  <BCUT2D_LOGPLOW>  (94) 
-2.154352

>  <BCUT2D_MRHI>  (94) 
5.926357

>  <BCUT2D_MRLOW>  (94) 
0.022372

>  <AvgIpc>  (94) 
2.739729

>  <BalabanJ>  (94) 
1.674041

>  <BertzCT>  (94) 
1032.231379

>  <Chi0>  (94) 
19.890694

>  <Chi0n>  (94) 
15.888863

>  <Chi0v>  (94) 
15.888863

>  <Chi1>  (94) 
14.330831

>  <Chi1n>  (94) 
9.368653

>  <Chi1v>  (94) 
9.368653

>  <Chi2n>  (94) 
6.310178

>  <Chi2v>  (94) 
6.310178

>  <Chi3n>  (94) 
4.33528

>  <Chi3v>  (94) 
4.33528

>  <Chi4n>  (94) 
2.955773

>  <Chi4v>  (94) 
2.955773

>  <HallKierAlpha>  (94) 
-3.34

>  <Ipc>  (94) 
5826275.18368

>  <Kappa1>  (94) 
18.997236

>  <Kappa2>  (94) 
9.236318

>  <Kappa3>  (94) 
4.744649

>  <LabuteASA>  (94) 
168.526432

>  <PEOE_VSA1>  (94) 
24.26424

>  <PEOE_VSA10>  (94) 
25.358947

>  <PEOE_VSA11>  (94) 
11.499024

>  <PEOE_VSA12>  (94) 
0.0

>  <PEOE_VSA13>  (94) 
0.0

>  <PEOE_VSA14>  (94) 
0.0

>  <PEOE_VSA2>  (94) 
0.0

>  <PEOE_VSA3>  (94) 
9.967957

>  <PEOE_VSA4>  (94) 
0.0

>  <PEOE_VSA5>  (94) 
6.42335

>  <PEOE_VSA6>  (94) 
11.986801

>  <PEOE_VSA7>  (94) 
24.265468

>  <PEOE_VSA8>  (94) 
22.703429

>  <PEOE_VSA9>  (94) 
31.944229

>  <SMR_VSA1>  (94) 
18.947452

>  <SMR_VSA10>  (94) 
22.408174

>  <SMR_VSA2>  (94) 
0.0

>  <SMR_VSA3>  (94) 
9.967957

>  <SMR_VSA4>  (94) 
0.0

>  <SMR_VSA5>  (94) 
0.0

>  <SMR_VSA6>  (94) 
44.95808

>  <SMR_VSA7>  (94) 
48.288974

>  <SMR_VSA8>  (94) 
0.0

>  <SMR_VSA9>  (94) 
23.842808

>  <SlogP_VSA1>  (94) 
14.790515

>  <SlogP_VSA10>  (94) 
11.505249

>  <SlogP_VSA11>  (94) 
11.499024

>  <SlogP_VSA12>  (94) 
0.0

>  <SlogP_VSA2>  (94) 
49.609249

>  <SlogP_VSA3>  (94) 
9.473726

>  <SlogP_VSA4>  (94) 
12.343784

>  <SlogP_VSA5>  (94) 
5.563451

>  <SlogP_VSA6>  (94) 
42.725522

>  <SlogP_VSA7>  (94) 
0.0

>  <SlogP_VSA8>  (94) 
10.902925

>  <SlogP_VSA9>  (94) 
0.0

>  <EState_VSA1>  (94) 
0.0

>  <EState_VSA10>  (94) 
0.0

>  <EState_VSA11>  (94) 
0.0

>  <EState_VSA2>  (94) 
0.0

>  <EState_VSA3>  (94) 
56.958178

>  <EState_VSA4>  (94) 
22.153763

>  <EState_VSA5>  (94) 
6.32732

>  <EState_VSA6>  (94) 
0.0

>  <EState_VSA7>  (94) 
36.398202

>  <EState_VSA8>  (94) 
21.20518

>  <EState_VSA9>  (94) 
25.370802

>  <VSA_EState1>  (94) 
22.734887

>  <VSA_EState10>  (94) 
0.0

>  <VSA_EState2>  (94) 
8.774409

>  <VSA_EState3>  (94) 
4.119675

>  <VSA_EState4>  (94) 
2.370261

>  <VSA_EState5>  (94) 
4.507239

>  <VSA_EState6>  (94) 
11.317224

>  <VSA_EState7>  (94) 
7.007499

>  <VSA_EState8>  (94) 
2.835474

>  <VSA_EState9>  (94) 
0.0

>  <FractionCSP3>  (94) 
0.272727

>  <HeavyAtomCount>  (94) 
29

>  <NHOHCount>  (94) 
1

>  <NOCount>  (94) 
7

>  <NumAliphaticCarbocycles>  (94) 
0

>  <NumAliphaticHeterocycles>  (94) 
1

>  <NumAliphaticRings>  (94) 
1

>  <NumAromaticCarbocycles>  (94) 
2

>  <NumAromaticHeterocycles>  (94) 
1

>  <NumAromaticRings>  (94) 
3

>  <NumHAcceptors>  (94) 
7

>  <NumHDonors>  (94) 
1

>  <NumHeteroatoms>  (94) 
7

>  <NumRotatableBonds>  (94) 
2

>  <NumSaturatedCarbocycles>  (94) 
0

>  <NumSaturatedHeterocycles>  (94) 
0

>  <NumSaturatedRings>  (94) 
0

>  <RingCount>  (94) 
4

>  <MolLogP>  (94) 
3.1591

>  <MolMR>  (94) 
109.8257

>  <fr_Al_COO>  (94) 
0

>  <fr_Al_OH>  (94) 
0

>  <fr_Al_OH_noTert>  (94) 
0

>  <fr_ArN>  (94) 
0

>  <fr_Ar_COO>  (94) 
0

>  <fr_Ar_N>  (94) 
2

>  <fr_Ar_NH>  (94) 
0

>  <fr_Ar_OH>  (94) 
0

>  <fr_COO>  (94) 
0

>  <fr_COO2>  (94) 
0

>  <fr_C_O>  (94) 
0

>  <fr_C_O_noCOO>  (94) 
0

>  <fr_C_S>  (94) 
0

>  <fr_HOCCN>  (94) 
0

>  <fr_Imine>  (94) 
0

>  <fr_NH0>  (94) 
2

>  <fr_NH1>  (94) 
1

>  <fr_NH2>  (94) 
0

>  <fr_N_O>  (94) 
0

>  <fr_Ndealkylation1>  (94) 
0

>  <fr_Ndealkylation2>  (94) 
0

>  <fr_Nhpyrrole>  (94) 
0

>  <fr_SH>  (94) 
0

>  <fr_aldehyde>  (94) 
0

>  <fr_alkyl_carbamate>  (94) 
0

>  <fr_alkyl_halide>  (94) 
0

>  <fr_allylic_oxid>  (94) 
0

>  <fr_amide>  (94) 
0

>  <fr_amidine>  (94) 
0

>  <fr_aniline>  (94) 
2

>  <fr_aryl_methyl>  (94) 
0

>  <fr_azide>  (94) 
0

>  <fr_azo>  (94) 
0

>  <fr_barbitur>  (94) 
0

>  <fr_benzene>  (94) 
2

>  <fr_benzodiazepine>  (94) 
0

>  <fr_bicyclic>  (94) 
2

>  <fr_diazo>  (94) 
0

>  <fr_dihydropyridine>  (94) 
0

>  <fr_epoxide>  (94) 
0

>  <fr_ester>  (94) 
0

>  <fr_ether>  (94) 
4

>  <fr_furan>  (94) 
0

>  <fr_guanido>  (94) 
0

>  <fr_halogen>  (94) 
0

>  <fr_hdrzine>  (94) 
0

>  <fr_hdrzone>  (94) 
0

>  <fr_imidazole>  (94) 
0

>  <fr_imide>  (94) 
0

>  <fr_isocyan>  (94) 
0

>  <fr_isothiocyan>  (94) 
0

>  <fr_ketone>  (94) 
0

>  <fr_ketone_Topliss>  (94) 
0

>  <fr_lactam>  (94) 
0

>  <fr_lactone>  (94) 
0

>  <fr_methoxy>  (94) 
0

>  <fr_morpholine>  (94) 
0

>  <fr_nitrile>  (94) 
0

>  <fr_nitro>  (94) 
0

>  <fr_nitro_arom>  (94) 
0

>  <fr_nitro_arom_nonortho>  (94) 
0

>  <fr_nitroso>  (94) 
0

>  <fr_oxazole>  (94) 
0

>  <fr_oxime>  (94) 
0

>  <fr_para_hydroxylation>  (94) 
0

>  <fr_phenol>  (94) 
0

>  <fr_phenol_noOrthoHbond>  (94) 
0

>  <fr_phos_acid>  (94) 
0

>  <fr_phos_ester>  (94) 
0

>  <fr_piperdine>  (94) 
0

>  <fr_piperzine>  (94) 
0

>  <fr_priamide>  (94) 
0

>  <fr_prisulfonamd>  (94) 
0

>  <fr_pyridine>  (94) 
0

>  <fr_quatN>  (94) 
0

>  <fr_sulfide>  (94) 
0

>  <fr_sulfonamd>  (94) 
0

>  <fr_sulfone>  (94) 
0

>  <fr_term_acetylene>  (94) 
1

>  <fr_tetrazole>  (94) 
0

>  <fr_thiazole>  (94) 
0

>  <fr_thiocyan>  (94) 
0

>  <fr_thiophene>  (94) 
0

>  <fr_unbrch_alkane>  (94) 
0

>  <fr_urea>  (94) 
0

>  <NP_Likeness>  (94) 
-1.278156

$$$$
nan
     RDKit          3D

  0  0  0  0  0  0  0  0  0  0999 V3000
M  V30 BEGIN CTAB
M  V30 COUNTS 52 55 0 0 0
M  V30 BEGIN ATOM
M  V30 1 C 0.472827 -5.336869 2.208427 0
M  V30 2 C -0.286704 -4.415936 1.293203 0 CFG=1
M  V30 3 O 0.334563 -4.254447 0.056046 0
M  V30 4 C 0.812345 -3.106379 -0.506913 0
M  V30 5 C 0.813791 -1.829510 -0.024643 0
M  V30 6 C 1.352670 -0.797773 -0.759753 0
M  V30 7 C 1.344049 0.559976 -0.225037 0
M  V30 8 C 2.298293 1.522393 -0.485439 0
M  V30 9 N 1.898435 2.621298 0.209350 0
M  V30 10 N 0.763530 2.329951 0.851741 0
M  V30 11 C 0.168496 3.380547 1.658068 0
M  V30 12 C 1.218776 4.111276 2.436430 0
M  V30 13 C 1.865325 5.233981 1.694380 0
M  V30 14 N 1.091080 5.822699 0.650982 0
M  V30 15 C -0.314854 5.723510 0.903528 0
M  V30 16 C -0.686118 4.267036 0.802063 0
M  V30 17 C 0.373994 1.063388 0.617391 0
M  V30 18 C 1.906145 -1.025845 -2.004206 0
M  V30 19 N 1.900133 -2.290439 -2.472239 0
M  V30 20 C 1.377536 -3.317950 -1.769588 0
M  V30 21 N 1.509306 -4.538692 -2.509243 0
M  V30 22 C -1.693586 -4.858597 1.117205 0
M  V30 23 C -2.716864 -4.424878 1.946225 0
M  V30 24 Cl -2.294710 -3.303779 3.250505 0
M  V30 25 C -4.040047 -4.797905 1.835637 0
M  V30 26 C -4.388222 -5.675273 0.819809 0
M  V30 27 C -3.416591 -6.139914 -0.034239 0
M  V30 28 F -3.745117 -7.008919 -1.044816 0
M  V30 29 C -2.109479 -5.731253 0.125866 0
M  V30 30 Cl -0.928031 -6.358823 -0.991352 0
M  V30 31 H -0.215122 -5.971242 2.807358 0
M  V30 32 H 1.087102 -4.747959 2.905132 0
M  V30 33 H 1.141834 -6.043246 1.671329 0
M  V30 34 H -0.339592 -3.413095 1.786203 0
M  V30 35 H 0.376337 -1.708213 0.936624 0
M  V30 36 H 3.177294 1.408940 -1.115175 0
M  V30 37 H -0.502221 2.873052 2.387085 0
M  V30 38 H 0.783367 4.449265 3.407777 0
M  V30 39 H 2.008754 3.377477 2.704686 0
M  V30 40 H 2.139841 6.021111 2.436560 0
M  V30 41 H 2.847390 4.931894 1.230221 0
M  V30 42 H 1.347616 6.834442 0.574357 0
M  V30 43 H -0.849866 6.261382 0.091550 0
M  V30 44 H -0.652641 6.167835 1.859089 0
M  V30 45 H -0.554467 3.994864 -0.266255 0
M  V30 46 H -1.771294 4.174108 1.013755 0
M  V30 47 H -0.509194 0.620894 1.033190 0
M  V30 48 H 2.326998 -0.194493 -2.568627 0
M  V30 49 H 2.087638 -5.382547 -2.605393 0
M  V30 50 H 0.733024 -4.597030 -3.211386 0
M  V30 51 H -4.768122 -4.406069 2.530866 0
M  V30 52 H -5.411302 -5.970785 0.725356 0
M  V30 END ATOM
M  V30 BEGIN BOND
M  V30 1 1 1 2
M  V30 2 1 2 3
M  V30 3 1 3 4
M  V30 4 2 4 5
M  V30 5 1 5 6
M  V30 6 1 6 7
M  V30 7 1 7 8
M  V30 8 2 8 9
M  V30 9 1 9 10
M  V30 10 1 10 11
M  V30 11 1 11 12
M  V30 12 1 12 13
M  V30 13 1 13 14
M  V30 14 1 14 15
M  V30 15 1 15 16
M  V30 16 1 10 17
M  V30 17 2 6 18
M  V30 18 1 18 19
M  V30 19 2 19 20
M  V30 20 1 20 21
M  V30 21 1 2 22
M  V30 22 2 22 23
M  V30 23 1 23 24
M  V30 24 1 23 25
M  V30 25 2 25 26
M  V30 26 1 26 27
M  V30 27 1 27 28
M  V30 28 2 27 29
M  V30 29 1 29 30
M  V30 30 1 20 4
M  V30 31 1 29 22
M  V30 32 2 17 7
M  V30 33 1 16 11
M  V30 34 1 1 31
M  V30 35 1 1 32
M  V30 36 1 1 33
M  V30 37 1 2 34 CFG=1
M  V30 38 1 5 35
M  V30 39 1 8 36
M  V30 40 1 11 37
M  V30 41 1 12 38
M  V30 42 1 12 39
M  V30 43 1 13 40
M  V30 44 1 13 41
M  V30 45 1 14 42
M  V30 46 1 15 43
M  V30 47 1 15 44
M  V30 48 1 16 45
M  V30 49 1 16 46
M  V30 50 1 17 47
M  V30 51 1 18 48
M  V30 52 1 21 49
M  V30 53 1 21 50
M  V30 54 1 25 51
M  V30 55 1 26 52
M  V30 END BOND
M  V30 END CTAB
M  END
>  <Dataset>  (95) 
PKIs

>  <Ligand_Instance>  (95) 
nan

>  <PDB_ID>  (95) 
nan

>  <Standardized_SMILES>  (95) 
C[C@@H](Oc1cc(-c2cnn(C3CCNCC3)c2)cnc1N)c1c(Cl)ccc(F)c1Cl

>  <Name>  (95) 
Crizotinib

>  <Pocket>  (95) 
nan

>  <ATP_Site>  (95) 
nan

>  <Peripheral>  (95) 
nan

>  <Num_H_Atoms_ProtBoundConf>  (95) 
nan

>  <Num_Resolved_Atoms>  (95) 
nan

>  <Num_Not_Resolved_Atoms>  (95) 
nan

>  <2D_Mol_H>  (95) 
<rdkit.Chem.rdchem.Mol object at 0x72a239142730>

>  <MW>  (95) 
450.345

>  <HBA>  (95) 
6

>  <HBD>  (95) 
2

>  <LogP>  (95) 
5.0377

>  <NRB>  (95) 
7

>  <TPSA>  (95) 
77.99

>  <Num_Heavy_Atoms>  (95) 
30

>  <Ro5>  (95) 
[True, True, True, False, True, True]

>  <Ro5_Fulfilled>  (95) 
True

>  <Ro3>  (95) 
[False, False, True, False]

>  <Ro3_Fulfilled>  (95) 
False

>  <Fsp3>  (95) 
0.333333

>  <Fsp3_0.42>  (95) 
False

>  <Fsp3_0.45>  (95) 
False

>  <Stereogenic_Carbons>  (95) 
1

>  <C_Atoms>  (95) 
21

>  <FCStereo>  (95) 
0.047619

>  <SPS>  (95) 
476

>  <nSPS>  (95) 
15.866667

>  <PBF>  (95) 
1.011622

>  <PBF_0.6>  (95) 
True

>  <nPBF>  (95) 
0.033721

>  <nPBF_0.016>  (95) 
True

>  <PMI1>  (95) 
2141.605502

>  <PMI2>  (95) 
8495.336854

>  <PMI3>  (95) 
9749.836339

>  <NPR1>  (95) 
0.219656

>  <NPR2>  (95) 
0.871331

>  <Sum_NPR>  (95) 
1.090987

>  <Sum_NPR_1.07>  (95) 
True

>  <Sum_NPR_1.2>  (95) 
False

>  <MaxAbsEStateIndex>  (95) 
13.882477

>  <MaxEStateIndex>  (95) 
13.882477

>  <MinAbsEStateIndex>  (95) 
0.06858

>  <MinEStateIndex>  (95) 
-0.627304

>  <qed>  (95) 
0.533055

>  <MolWt>  (95) 
450.345

>  <HeavyAtomMolWt>  (95) 
428.169

>  <ExactMolWt>  (95) 
449.118544

>  <NumValenceElectrons>  (95) 
158

>  <NumRadicalElectrons>  (95) 
0

>  <MaxPartialCharge>  (95) 
0.165692

>  <MinPartialCharge>  (95) 
-0.482025

>  <MaxAbsPartialCharge>  (95) 
0.482025

>  <MinAbsPartialCharge>  (95) 
0.165692

>  <FpDensityMorgan1>  (95) 
1.233333

>  <FpDensityMorgan2>  (95) 
2.0

>  <FpDensityMorgan3>  (95) 
2.766667

>  <BCUT2D_MWHI>  (95) 
35.496837

>  <BCUT2D_MWLOW>  (95) 
10.074848

>  <BCUT2D_CHGHI>  (95) 
2.206101

>  <BCUT2D_CHGLO>  (95) 
-2.223071

>  <BCUT2D_LOGPHI>  (95) 
2.366424

>  <BCUT2D_LOGPLOW>  (95) 
-2.290771

>  <BCUT2D_MRHI>  (95) 
6.357041

>  <BCUT2D_MRLOW>  (95) 
0.227178

>  <AvgIpc>  (95) 
3.235335

>  <BalabanJ>  (95) 
1.583535

>  <BertzCT>  (95) 
1051.871143

>  <Chi0>  (95) 
21.250348

>  <Chi0n>  (95) 
16.408362

>  <Chi0v>  (95) 
17.92022

>  <Chi1>  (95) 
14.435561

>  <Chi1n>  (95) 
9.745539

>  <Chi1v>  (95) 
10.501468

>  <Chi2n>  (95) 
7.314511

>  <Chi2v>  (95) 
8.099675

>  <Chi3n>  (95) 
5.289118

>  <Chi3v>  (95) 
6.002843

>  <Chi4n>  (95) 
3.630213

>  <Chi4v>  (95) 
4.308163

>  <HallKierAlpha>  (95) 
-2.35

>  <Ipc>  (95) 
8625144.759155

>  <Kappa1>  (95) 
20.903962

>  <Kappa2>  (95) 
8.794862

>  <Kappa3>  (95) 
4.237011

>  <LabuteASA>  (95) 
183.696603

>  <PEOE_VSA1>  (95) 
15.787319

>  <PEOE_VSA10>  (95) 
11.921187

>  <PEOE_VSA11>  (95) 
11.567375

>  <PEOE_VSA12>  (95) 
0.0

>  <PEOE_VSA13>  (95) 
0.0

>  <PEOE_VSA14>  (95) 
0.0

>  <PEOE_VSA2>  (95) 
4.681803

>  <PEOE_VSA3>  (95) 
9.374394

>  <PEOE_VSA4>  (95) 
5.098682

>  <PEOE_VSA5>  (95) 
0.0

>  <PEOE_VSA6>  (95) 
23.20188

>  <PEOE_VSA7>  (95) 
51.053994

>  <PEOE_VSA8>  (95) 
34.106675

>  <PEOE_VSA9>  (95) 
17.261318

>  <SMR_VSA1>  (95) 
9.127278

>  <SMR_VSA10>  (95) 
29.019743

>  <SMR_VSA2>  (95) 
0.0

>  <SMR_VSA3>  (95) 
20.081252

>  <SMR_VSA4>  (95) 
0.0

>  <SMR_VSA5>  (95) 
31.911188

>  <SMR_VSA6>  (95) 
18.82318

>  <SMR_VSA7>  (95) 
58.215571

>  <SMR_VSA8>  (95) 
0.0

>  <SMR_VSA9>  (95) 
16.876415

>  <SlogP_VSA1>  (95) 
15.787319

>  <SlogP_VSA10>  (95) 
10.208278

>  <SlogP_VSA11>  (95) 
5.749512

>  <SlogP_VSA12>  (95) 
23.20188

>  <SlogP_VSA2>  (95) 
27.853976

>  <SlogP_VSA3>  (95) 
0.0

>  <SlogP_VSA4>  (95) 
5.817221

>  <SlogP_VSA5>  (95) 
37.474639

>  <SlogP_VSA6>  (95) 
36.789632

>  <SlogP_VSA7>  (95) 
10.045267

>  <SlogP_VSA8>  (95) 
11.126903

>  <SlogP_VSA9>  (95) 
0.0

>  <EState_VSA1>  (95) 
11.921187

>  <EState_VSA10>  (95) 
4.390415

>  <EState_VSA11>  (95) 
0.0

>  <EState_VSA2>  (95) 
10.840496

>  <EState_VSA3>  (95) 
22.377437

>  <EState_VSA4>  (95) 
37.058059

>  <EState_VSA5>  (95) 
12.132734

>  <EState_VSA6>  (95) 
19.186948

>  <EState_VSA7>  (95) 
17.07549

>  <EState_VSA8>  (95) 
15.399449

>  <EState_VSA9>  (95) 
33.67241

>  <VSA_EState1>  (95) 
21.859025

>  <VSA_EState10>  (95) 
12.313918

>  <VSA_EState2>  (95) 
4.252062

>  <VSA_EState3>  (95) 
8.128775

>  <VSA_EState4>  (95) 
8.120165

>  <VSA_EState5>  (95) 
0.030275

>  <VSA_EState6>  (95) 
4.848648

>  <VSA_EState7>  (95) 
6.958529

>  <VSA_EState8>  (95) 
3.710825

>  <VSA_EState9>  (95) 
0.0

>  <FractionCSP3>  (95) 
0.333333

>  <HeavyAtomCount>  (95) 
30

>  <NHOHCount>  (95) 
3

>  <NOCount>  (95) 
6

>  <NumAliphaticCarbocycles>  (95) 
0

>  <NumAliphaticHeterocycles>  (95) 
1

>  <NumAliphaticRings>  (95) 
1

>  <NumAromaticCarbocycles>  (95) 
1

>  <NumAromaticHeterocycles>  (95) 
2

>  <NumAromaticRings>  (95) 
3

>  <NumHAcceptors>  (95) 
6

>  <NumHDonors>  (95) 
2

>  <NumHeteroatoms>  (95) 
9

>  <NumRotatableBonds>  (95) 
5

>  <NumSaturatedCarbocycles>  (95) 
0

>  <NumSaturatedHeterocycles>  (95) 
1

>  <NumSaturatedRings>  (95) 
1

>  <RingCount>  (95) 
4

>  <MolLogP>  (95) 
5.0377

>  <MolMR>  (95) 
116.4741

>  <fr_Al_COO>  (95) 
0

>  <fr_Al_OH>  (95) 
0

>  <fr_Al_OH_noTert>  (95) 
0

>  <fr_ArN>  (95) 
1

>  <fr_Ar_COO>  (95) 
0

>  <fr_Ar_N>  (95) 
3

>  <fr_Ar_NH>  (95) 
0

>  <fr_Ar_OH>  (95) 
0

>  <fr_COO>  (95) 
0

>  <fr_COO2>  (95) 
0

>  <fr_C_O>  (95) 
0

>  <fr_C_O_noCOO>  (95) 
0

>  <fr_C_S>  (95) 
0

>  <fr_HOCCN>  (95) 
0

>  <fr_Imine>  (95) 
0

>  <fr_NH0>  (95) 
3

>  <fr_NH1>  (95) 
1

>  <fr_NH2>  (95) 
1

>  <fr_N_O>  (95) 
0

>  <fr_Ndealkylation1>  (95) 
0

>  <fr_Ndealkylation2>  (95) 
0

>  <fr_Nhpyrrole>  (95) 
0

>  <fr_SH>  (95) 
0

>  <fr_aldehyde>  (95) 
0

>  <fr_alkyl_carbamate>  (95) 
0

>  <fr_alkyl_halide>  (95) 
0

>  <fr_allylic_oxid>  (95) 
0

>  <fr_amide>  (95) 
0

>  <fr_amidine>  (95) 
0

>  <fr_aniline>  (95) 
1

>  <fr_aryl_methyl>  (95) 
0

>  <fr_azide>  (95) 
0

>  <fr_azo>  (95) 
0

>  <fr_barbitur>  (95) 
0

>  <fr_benzene>  (95) 
1

>  <fr_benzodiazepine>  (95) 
0

>  <fr_bicyclic>  (95) 
0

>  <fr_diazo>  (95) 
0

>  <fr_dihydropyridine>  (95) 
0

>  <fr_epoxide>  (95) 
0

>  <fr_ester>  (95) 
0

>  <fr_ether>  (95) 
1

>  <fr_furan>  (95) 
0

>  <fr_guanido>  (95) 
0

>  <fr_halogen>  (95) 
3

>  <fr_hdrzine>  (95) 
0

>  <fr_hdrzone>  (95) 
0

>  <fr_imidazole>  (95) 
0

>  <fr_imide>  (95) 
0

>  <fr_isocyan>  (95) 
0

>  <fr_isothiocyan>  (95) 
0

>  <fr_ketone>  (95) 
0

>  <fr_ketone_Topliss>  (95) 
0

>  <fr_lactam>  (95) 
0

>  <fr_lactone>  (95) 
0

>  <fr_methoxy>  (95) 
0

>  <fr_morpholine>  (95) 
0

>  <fr_nitrile>  (95) 
0

>  <fr_nitro>  (95) 
0

>  <fr_nitro_arom>  (95) 
0

>  <fr_nitro_arom_nonortho>  (95) 
0

>  <fr_nitroso>  (95) 
0

>  <fr_oxazole>  (95) 
0

>  <fr_oxime>  (95) 
0

>  <fr_para_hydroxylation>  (95) 
0

>  <fr_phenol>  (95) 
0

>  <fr_phenol_noOrthoHbond>  (95) 
0

>  <fr_phos_acid>  (95) 
0

>  <fr_phos_ester>  (95) 
0

>  <fr_piperdine>  (95) 
1

>  <fr_piperzine>  (95) 
0

>  <fr_priamide>  (95) 
0

>  <fr_prisulfonamd>  (95) 
0

>  <fr_pyridine>  (95) 
1

>  <fr_quatN>  (95) 
0

>  <fr_sulfide>  (95) 
0

>  <fr_sulfonamd>  (95) 
0

>  <fr_sulfone>  (95) 
0

>  <fr_term_acetylene>  (95) 
0

>  <fr_tetrazole>  (95) 
0

>  <fr_thiazole>  (95) 
0

>  <fr_thiocyan>  (95) 
0

>  <fr_thiophene>  (95) 
0

>  <fr_unbrch_alkane>  (95) 
0

>  <fr_urea>  (95) 
0

>  <NP_Likeness>  (95) 
-0.992522

$$$$
nan
     RDKit          3D

  0  0  0  0  0  0  0  0  0  0999 V3000
M  V30 BEGIN CTAB
M  V30 COUNTS 51 54 0 0 0
M  V30 BEGIN ATOM
M  V30 1 C 2.918687 -2.399836 3.539877 0
M  V30 2 C 3.136319 -2.189833 2.065724 0
M  V30 3 C 4.207355 -1.125120 1.870114 0
M  V30 4 S 4.474671 -0.861046 0.111814 0
M  V30 5 O 5.563045 0.167439 -0.032441 0
M  V30 6 O 4.951342 -2.143308 -0.498111 0
M  V30 7 N 3.002879 -0.338075 -0.620573 0
M  V30 8 C 2.346867 0.855013 -0.265119 0
M  V30 9 C 2.970295 1.820108 0.507476 0
M  V30 10 C 2.288303 2.974986 0.824766 0
M  V30 11 C 0.996371 3.191333 0.389636 0
M  V30 12 F 0.435647 4.383867 0.777995 0
M  V30 13 C 0.343752 2.254137 -0.380217 0
M  V30 14 C -0.990280 2.568008 -0.800944 0
M  V30 15 O -1.395418 3.766373 -0.603135 0
M  V30 16 C -2.060310 1.843611 -1.426866 0
M  V30 17 C -2.825157 2.187500 -2.540869 0
M  V30 18 N -3.703010 1.201652 -2.792128 0
M  V30 19 C -3.570828 0.204765 -1.901100 0
M  V30 20 N -4.249192 -0.951731 -1.789798 0
M  V30 21 C -3.966122 -1.841589 -0.795853 0
M  V30 22 C -2.958757 -1.512681 0.091579 0
M  V30 23 C -2.632765 -2.444056 1.169047 0
M  V30 24 C -3.699443 -3.195029 1.660190 0
M  V30 25 C -3.435172 -4.087991 2.679789 0
M  V30 26 C -2.178278 -4.266728 3.226071 0
M  V30 27 Cl -1.847670 -5.399276 4.518406 0
M  V30 28 C -1.113376 -3.509908 2.728178 0
M  V30 29 C -1.368761 -2.608002 1.701615 0
M  V30 30 C -2.280839 -0.319673 -0.048375 0
M  V30 31 C -2.556042 0.591088 -1.049978 0
M  V30 32 C 1.059229 1.124289 -0.670996 0
M  V30 33 F 0.481557 0.183190 -1.434803 0
M  V30 34 H 2.436790 -3.350908 3.790738 0
M  V30 35 H 3.893106 -2.248367 4.048299 0
M  V30 36 H 2.242739 -1.594604 3.905448 0
M  V30 37 H 2.231260 -1.872187 1.520658 0
M  V30 38 H 3.511841 -3.128532 1.580842 0
M  V30 39 H 5.151870 -1.407681 2.360503 0
M  V30 40 H 3.856456 -0.186180 2.317790 0
M  V30 41 H 2.584518 -0.929135 -1.354409 0
M  V30 42 H 3.980316 1.704971 0.873099 0
M  V30 43 H 2.803155 3.719314 1.434355 0
M  V30 44 H -2.730322 3.101189 -3.114858 0
M  V30 45 H -4.397363 1.210831 -3.578752 0
M  V30 46 H -4.525451 -2.768555 -0.722995 0
M  V30 47 H -4.734950 -3.135133 1.303119 0
M  V30 48 H -4.249946 -4.697996 3.092919 0
M  V30 49 H -0.103905 -3.602421 3.113076 0
M  V30 50 H -0.560357 -2.008881 1.296883 0
M  V30 51 H -1.486955 -0.055910 0.646975 0
M  V30 END ATOM
M  V30 BEGIN BOND
M  V30 1 1 1 2
M  V30 2 1 2 3
M  V30 3 1 3 4
M  V30 4 2 4 5
M  V30 5 2 4 6
M  V30 6 1 4 7
M  V30 7 1 7 8
M  V30 8 2 8 9
M  V30 9 1 9 10
M  V30 10 2 10 11
M  V30 11 1 11 12
M  V30 12 1 11 13
M  V30 13 1 13 14
M  V30 14 2 14 15
M  V30 15 1 14 16
M  V30 16 2 16 17
M  V30 17 1 17 18
M  V30 18 1 18 19
M  V30 19 2 19 20
M  V30 20 1 20 21
M  V30 21 2 21 22
M  V30 22 1 22 23
M  V30 23 2 23 24
M  V30 24 1 24 25
M  V30 25 2 25 26
M  V30 26 1 26 27
M  V30 27 1 26 28
M  V30 28 2 28 29
M  V30 29 1 22 30
M  V30 30 2 30 31
M  V30 31 2 13 32
M  V30 32 1 32 33
M  V30 33 1 32 8
M  V30 34 1 31 16
M  V30 35 1 31 19
M  V30 36 1 29 23
M  V30 37 1 1 34
M  V30 38 1 1 35
M  V30 39 1 1 36
M  V30 40 1 2 37
M  V30 41 1 2 38
M  V30 42 1 3 39
M  V30 43 1 3 40
M  V30 44 1 7 41
M  V30 45 1 9 42
M  V30 46 1 10 43
M  V30 47 1 17 44
M  V30 48 1 18 45
M  V30 49 1 21 46
M  V30 50 1 24 47
M  V30 51 1 25 48
M  V30 52 1 28 49
M  V30 53 1 29 50
M  V30 54 1 30 51
M  V30 END BOND
M  V30 END CTAB
M  END
>  <Dataset>  (96) 
PKIs

>  <Ligand_Instance>  (96) 
nan

>  <PDB_ID>  (96) 
nan

>  <Standardized_SMILES>  (96) 
CCCS(=O)(=O)Nc1ccc(F)c(C(=O)c2c[nH]c3ncc(-c4ccc(Cl)cc4)cc23)c1F

>  <Name>  (96) 
Vemurafenib

>  <Pocket>  (96) 
nan

>  <ATP_Site>  (96) 
nan

>  <Peripheral>  (96) 
nan

>  <Num_H_Atoms_ProtBoundConf>  (96) 
nan

>  <Num_Resolved_Atoms>  (96) 
nan

>  <Num_Not_Resolved_Atoms>  (96) 
nan

>  <2D_Mol_H>  (96) 
<rdkit.Chem.rdchem.Mol object at 0x72a239142810>

>  <MW>  (96) 
489.931

>  <HBA>  (96) 
4

>  <HBD>  (96) 
2

>  <LogP>  (96) 
5.5442

>  <NRB>  (96) 
8

>  <TPSA>  (96) 
91.92

>  <Num_Heavy_Atoms>  (96) 
33

>  <Ro5>  (96) 
[True, True, True, False, True, True]

>  <Ro5_Fulfilled>  (96) 
True

>  <Ro3>  (96) 
[False, False, True, False]

>  <Ro3_Fulfilled>  (96) 
False

>  <Fsp3>  (96) 
0.130435

>  <Fsp3_0.42>  (96) 
False

>  <Fsp3_0.45>  (96) 
False

>  <Stereogenic_Carbons>  (96) 
0

>  <C_Atoms>  (96) 
23

>  <FCStereo>  (96) 
0.0

>  <SPS>  (96) 
384

>  <nSPS>  (96) 
11.636364

>  <PBF>  (96) 
0.871509

>  <PBF_0.6>  (96) 
True

>  <nPBF>  (96) 
0.026409

>  <nPBF_0.016>  (96) 
True

>  <PMI1>  (96) 
4713.910254

>  <PMI2>  (96) 
5468.942181

>  <PMI3>  (96) 
8836.932474

>  <NPR1>  (96) 
0.533433

>  <NPR2>  (96) 
0.618873

>  <Sum_NPR>  (96) 
1.152306

>  <Sum_NPR_1.07>  (96) 
True

>  <Sum_NPR_1.2>  (96) 
False

>  <MaxAbsEStateIndex>  (96) 
15.102389

>  <MaxEStateIndex>  (96) 
15.102389

>  <MinAbsEStateIndex>  (96) 
0.000297

>  <MinEStateIndex>  (96) 
-3.839656

>  <qed>  (96) 
0.333091

>  <MolWt>  (96) 
489.931

>  <HeavyAtomMolWt>  (96) 
471.787

>  <ExactMolWt>  (96) 
489.072547

>  <NumValenceElectrons>  (96) 
170

>  <NumRadicalElectrons>  (96) 
0

>  <MaxPartialCharge>  (96) 
0.232305

>  <MinPartialCharge>  (96) 
-0.34539

>  <MaxAbsPartialCharge>  (96) 
0.34539

>  <MinAbsPartialCharge>  (96) 
0.232305

>  <FpDensityMorgan1>  (96) 
1.121212

>  <FpDensityMorgan2>  (96) 
1.848485

>  <FpDensityMorgan3>  (96) 
2.545455

>  <BCUT2D_MWHI>  (96) 
35.495692

>  <BCUT2D_MWLOW>  (96) 
9.996136

>  <BCUT2D_CHGHI>  (96) 
2.255728

>  <BCUT2D_CHGLO>  (96) 
-2.111987

>  <BCUT2D_LOGPHI>  (96) 
2.296668

>  <BCUT2D_LOGPLOW>  (96) 
-2.183168

>  <BCUT2D_MRHI>  (96) 
7.922065

>  <BCUT2D_MRLOW>  (96) 
0.102793

>  <AvgIpc>  (96) 
3.192655

>  <BalabanJ>  (96) 
1.77794

>  <BertzCT>  (96) 
1468.590752

>  <Chi0>  (96) 
23.750348

>  <Chi0n>  (96) 
17.324466

>  <Chi0v>  (96) 
18.896892

>  <Chi1>  (96) 
15.697509

>  <Chi1n>  (96) 
9.961542

>  <Chi1v>  (96) 
11.991772

>  <Chi2n>  (96) 
7.36339

>  <Chi2v>  (96) 
9.641694

>  <Chi3n>  (96) 
5.00976

>  <Chi3v>  (96) 
6.73836

>  <Chi4n>  (96) 
3.452862

>  <Chi4v>  (96) 
4.711079

>  <HallKierAlpha>  (96) 
-3.3

>  <Ipc>  (96) 
25694615.183989

>  <Kappa1>  (96) 
22.878352

>  <Kappa2>  (96) 
8.91515

>  <Kappa3>  (96) 
4.598887

>  <LabuteASA>  (96) 
193.22233

>  <PEOE_VSA1>  (96) 
4.983979

>  <PEOE_VSA10>  (96) 
11.464398

>  <PEOE_VSA11>  (96) 
5.817221

>  <PEOE_VSA12>  (96) 
15.806536

>  <PEOE_VSA13>  (96) 
0.0

>  <PEOE_VSA14>  (96) 
0.0

>  <PEOE_VSA2>  (96) 
9.516632

>  <PEOE_VSA3>  (96) 
22.182606

>  <PEOE_VSA4>  (96) 
0.0

>  <PEOE_VSA5>  (96) 
0.0

>  <PEOE_VSA6>  (96) 
30.657411

>  <PEOE_VSA7>  (96) 
42.316108

>  <PEOE_VSA8>  (96) 
33.929448

>  <PEOE_VSA9>  (96) 
17.003691

>  <SMR_VSA1>  (96) 
21.993164

>  <SMR_VSA10>  (96) 
44.128264

>  <SMR_VSA2>  (96) 
0.0

>  <SMR_VSA3>  (96) 
9.967957

>  <SMR_VSA4>  (96) 
0.0

>  <SMR_VSA5>  (96) 
13.344559

>  <SMR_VSA6>  (96) 
10.474948

>  <SMR_VSA7>  (96) 
82.642235

>  <SMR_VSA8>  (96) 
0.0

>  <SMR_VSA9>  (96) 
11.126903

>  <SlogP_VSA1>  (96) 
4.722095

>  <SlogP_VSA10>  (96) 
14.468216

>  <SlogP_VSA11>  (96) 
0.0

>  <SlogP_VSA12>  (96) 
11.60094

>  <SlogP_VSA2>  (96) 
29.921853

>  <SlogP_VSA3>  (96) 
10.023291

>  <SlogP_VSA4>  (96) 
11.634442

>  <SlogP_VSA5>  (96) 
29.265999

>  <SlogP_VSA6>  (96) 
54.858257

>  <SlogP_VSA7>  (96) 
5.022633

>  <SlogP_VSA8>  (96) 
22.160304

>  <SlogP_VSA9>  (96) 
0.0

>  <EState_VSA1>  (96) 
38.691816

>  <EState_VSA10>  (96) 
17.602749

>  <EState_VSA11>  (96) 
4.390415

>  <EState_VSA2>  (96) 
11.316305

>  <EState_VSA3>  (96) 
28.040308

>  <EState_VSA4>  (96) 
17.696186

>  <EState_VSA5>  (96) 
6.196844

>  <EState_VSA6>  (96) 
43.452416

>  <EState_VSA7>  (96) 
0.0

>  <EState_VSA8>  (96) 
14.690052

>  <EState_VSA9>  (96) 
11.60094

>  <VSA_EState1>  (96) 
55.810823

>  <VSA_EState10>  (96) 
5.932253

>  <VSA_EState2>  (96) 
20.29042

>  <VSA_EState3>  (96) 
0.924915

>  <VSA_EState4>  (96) 
0.47389

>  <VSA_EState5>  (96) 
-3.56935

>  <VSA_EState6>  (96) 
10.462962

>  <VSA_EState7>  (96) 
3.223515

>  <VSA_EState8>  (96) 
1.651339

>  <VSA_EState9>  (96) 
-3.839656

>  <FractionCSP3>  (96) 
0.130435

>  <HeavyAtomCount>  (96) 
33

>  <NHOHCount>  (96) 
2

>  <NOCount>  (96) 
6

>  <NumAliphaticCarbocycles>  (96) 
0

>  <NumAliphaticHeterocycles>  (96) 
0

>  <NumAliphaticRings>  (96) 
0

>  <NumAromaticCarbocycles>  (96) 
2

>  <NumAromaticHeterocycles>  (96) 
2

>  <NumAromaticRings>  (96) 
4

>  <NumHAcceptors>  (96) 
4

>  <NumHDonors>  (96) 
2

>  <NumHeteroatoms>  (96) 
10

>  <NumRotatableBonds>  (96) 
7

>  <NumSaturatedCarbocycles>  (96) 
0

>  <NumSaturatedHeterocycles>  (96) 
0

>  <NumSaturatedRings>  (96) 
0

>  <RingCount>  (96) 
4

>  <MolLogP>  (96) 
5.5442

>  <MolMR>  (96) 
124.0307

>  <fr_Al_COO>  (96) 
0

>  <fr_Al_OH>  (96) 
0

>  <fr_Al_OH_noTert>  (96) 
0

>  <fr_ArN>  (96) 
0

>  <fr_Ar_COO>  (96) 
0

>  <fr_Ar_N>  (96) 
2

>  <fr_Ar_NH>  (96) 
1

>  <fr_Ar_OH>  (96) 
0

>  <fr_COO>  (96) 
0

>  <fr_COO2>  (96) 
0

>  <fr_C_O>  (96) 
1

>  <fr_C_O_noCOO>  (96) 
1

>  <fr_C_S>  (96) 
0

>  <fr_HOCCN>  (96) 
0

>  <fr_Imine>  (96) 
0

>  <fr_NH0>  (96) 
1

>  <fr_NH1>  (96) 
2

>  <fr_NH2>  (96) 
0

>  <fr_N_O>  (96) 
0

>  <fr_Ndealkylation1>  (96) 
0

>  <fr_Ndealkylation2>  (96) 
0

>  <fr_Nhpyrrole>  (96) 
1

>  <fr_SH>  (96) 
0

>  <fr_aldehyde>  (96) 
0

>  <fr_alkyl_carbamate>  (96) 
0

>  <fr_alkyl_halide>  (96) 
0

>  <fr_allylic_oxid>  (96) 
0

>  <fr_amide>  (96) 
0

>  <fr_amidine>  (96) 
0

>  <fr_aniline>  (96) 
1

>  <fr_aryl_methyl>  (96) 
0

>  <fr_azide>  (96) 
0

>  <fr_azo>  (96) 
0

>  <fr_barbitur>  (96) 
0

>  <fr_benzene>  (96) 
2

>  <fr_benzodiazepine>  (96) 
0

>  <fr_bicyclic>  (96) 
1

>  <fr_diazo>  (96) 
0

>  <fr_dihydropyridine>  (96) 
0

>  <fr_epoxide>  (96) 
0

>  <fr_ester>  (96) 
0

>  <fr_ether>  (96) 
0

>  <fr_furan>  (96) 
0

>  <fr_guanido>  (96) 
0

>  <fr_halogen>  (96) 
3

>  <fr_hdrzine>  (96) 
0

>  <fr_hdrzone>  (96) 
0

>  <fr_imidazole>  (96) 
0

>  <fr_imide>  (96) 
0

>  <fr_isocyan>  (96) 
0

>  <fr_isothiocyan>  (96) 
0

>  <fr_ketone>  (96) 
1

>  <fr_ketone_Topliss>  (96) 
0

>  <fr_lactam>  (96) 
0

>  <fr_lactone>  (96) 
0

>  <fr_methoxy>  (96) 
0

>  <fr_morpholine>  (96) 
0

>  <fr_nitrile>  (96) 
0

>  <fr_nitro>  (96) 
0

>  <fr_nitro_arom>  (96) 
0

>  <fr_nitro_arom_nonortho>  (96) 
0

>  <fr_nitroso>  (96) 
0

>  <fr_oxazole>  (96) 
0

>  <fr_oxime>  (96) 
0

>  <fr_para_hydroxylation>  (96) 
0

>  <fr_phenol>  (96) 
0

>  <fr_phenol_noOrthoHbond>  (96) 
0

>  <fr_phos_acid>  (96) 
0

>  <fr_phos_ester>  (96) 
0

>  <fr_piperdine>  (96) 
0

>  <fr_piperzine>  (96) 
0

>  <fr_priamide>  (96) 
0

>  <fr_prisulfonamd>  (96) 
0

>  <fr_pyridine>  (96) 
1

>  <fr_quatN>  (96) 
0

>  <fr_sulfide>  (96) 
0

>  <fr_sulfonamd>  (96) 
1

>  <fr_sulfone>  (96) 
0

>  <fr_term_acetylene>  (96) 
0

>  <fr_tetrazole>  (96) 
0

>  <fr_thiazole>  (96) 
0

>  <fr_thiocyan>  (96) 
0

>  <fr_thiophene>  (96) 
0

>  <fr_unbrch_alkane>  (96) 
0

>  <fr_urea>  (96) 
0

>  <NP_Likeness>  (96) 
-1.377373

$$$$
nan
     RDKit          3D

  0  0  0  0  0  0  0  0  0  0999 V3000
M  V30 BEGIN CTAB
M  V30 COUNTS 41 44 0 0 0
M  V30 BEGIN ATOM
M  V30 1 N 2.600275 0.449893 -1.598361 0
M  V30 2 C 2.909769 -0.372218 -0.848549 0
M  V30 3 C 3.312833 -1.375900 0.085444 0
M  V30 4 C 2.233912 -2.033581 0.837078 0 CFG=2
M  V30 5 C 1.191756 -2.777689 0.124875 0
M  V30 6 C 1.729185 -3.941140 -0.705004 0
M  V30 7 C 0.689263 -4.193705 -1.773324 0
M  V30 8 C -0.467519 -3.301299 -1.377296 0
M  V30 9 C 0.323381 -2.083820 -0.847296 0
M  V30 10 N 1.641610 -1.115177 1.825254 0
M  V30 11 C 0.978092 -0.005214 1.438162 0
M  V30 12 C 0.535468 0.659995 2.564443 0
M  V30 13 C -0.216999 1.879140 2.854719 0
M  V30 14 N 0.148005 2.756858 3.801299 0
M  V30 15 C -0.572121 3.867127 4.037304 0
M  V30 16 N -1.695584 4.146578 3.330259 0
M  V30 17 C -2.132086 3.317724 2.361685 0
M  V30 18 N -3.176325 3.336661 1.526257 0
M  V30 19 C -3.152598 2.236883 0.731527 0
M  V30 20 C -2.022196 1.521212 1.121337 0
M  V30 21 C -1.371040 2.184910 2.142281 0
M  V30 22 C 0.967365 -0.107635 3.646895 0
M  V30 23 N 1.622593 -1.156845 3.166370 0
M  V30 24 H 3.889766 -2.161252 -0.457747 0
M  V30 25 H 4.044445 -0.986364 0.855815 0
M  V30 26 H 2.749506 -2.795809 1.505719 0
M  V30 27 H 0.512917 -3.279469 0.879598 0
M  V30 28 H 2.648480 -3.604959 -1.188485 0
M  V30 29 H 1.929336 -4.835154 -0.077822 0
M  V30 30 H 0.402446 -5.237078 -1.895758 0
M  V30 31 H 1.038232 -3.789426 -2.761894 0
M  V30 32 H -1.110023 -3.031360 -2.218461 0
M  V30 33 H -0.985624 -3.722964 -0.508129 0
M  V30 34 H -0.445918 -1.419003 -0.456101 0
M  V30 35 H 0.886238 -1.709030 -1.726558 0
M  V30 36 H 0.738364 0.439804 0.488554 0
M  V30 37 H -0.259409 4.562405 4.806301 0
M  V30 38 H -3.917888 4.089476 1.480244 0
M  V30 39 H -3.873532 1.974521 -0.049113 0
M  V30 40 H -1.683046 0.591374 0.708961 0
M  V30 41 H 0.911505 -0.074520 4.724601 0
M  V30 END ATOM
M  V30 BEGIN BOND
M  V30 1 3 1 2
M  V30 2 1 2 3
M  V30 3 1 3 4
M  V30 4 1 4 5
M  V30 5 1 5 6
M  V30 6 1 6 7
M  V30 7 1 7 8
M  V30 8 1 8 9
M  V30 9 1 4 10
M  V30 10 1 10 11
M  V30 11 2 11 12
M  V30 12 1 12 13
M  V30 13 2 13 14
M  V30 14 1 14 15
M  V30 15 2 15 16
M  V30 16 1 16 17
M  V30 17 1 17 18
M  V30 18 1 18 19
M  V30 19 2 19 20
M  V30 20 1 20 21
M  V30 21 1 12 22
M  V30 22 2 22 23
M  V30 23 1 9 5
M  V30 24 1 23 10
M  V30 25 1 21 13
M  V30 26 2 21 17
M  V30 27 1 3 24
M  V30 28 1 3 25
M  V30 29 1 4 26 CFG=1
M  V30 30 1 5 27
M  V30 31 1 6 28
M  V30 32 1 6 29
M  V30 33 1 7 30
M  V30 34 1 7 31
M  V30 35 1 8 32
M  V30 36 1 8 33
M  V30 37 1 9 34
M  V30 38 1 9 35
M  V30 39 1 11 36
M  V30 40 1 15 37
M  V30 41 1 18 38
M  V30 42 1 19 39
M  V30 43 1 20 40
M  V30 44 1 22 41
M  V30 END BOND
M  V30 END CTAB
M  END
>  <Dataset>  (97) 
PKIs

>  <Ligand_Instance>  (97) 
nan

>  <PDB_ID>  (97) 
nan

>  <Standardized_SMILES>  (97) 
N#CC[C@H](C1CCCC1)n1cc(-c2ncnc3[nH]ccc23)cn1

>  <Name>  (97) 
Ruxolitinib

>  <Pocket>  (97) 
nan

>  <ATP_Site>  (97) 
nan

>  <Peripheral>  (97) 
nan

>  <Num_H_Atoms_ProtBoundConf>  (97) 
nan

>  <Num_Resolved_Atoms>  (97) 
nan

>  <Num_Not_Resolved_Atoms>  (97) 
nan

>  <2D_Mol_H>  (97) 
<rdkit.Chem.rdchem.Mol object at 0x72a2391428f0>

>  <MW>  (97) 
306.373

>  <HBA>  (97) 
5

>  <HBD>  (97) 
1

>  <LogP>  (97) 
3.46638

>  <NRB>  (97) 
4

>  <TPSA>  (97) 
83.18

>  <Num_Heavy_Atoms>  (97) 
23

>  <Ro5>  (97) 
[True, True, True, True, True, True]

>  <Ro5_Fulfilled>  (97) 
True

>  <Ro3>  (97) 
[False, False, True, False]

>  <Ro3_Fulfilled>  (97) 
False

>  <Fsp3>  (97) 
0.411765

>  <Fsp3_0.42>  (97) 
False

>  <Fsp3_0.45>  (97) 
False

>  <Stereogenic_Carbons>  (97) 
1

>  <C_Atoms>  (97) 
17

>  <FCStereo>  (97) 
0.058824

>  <SPS>  (97) 
383

>  <nSPS>  (97) 
16.652174

>  <PBF>  (97) 
0.717507

>  <PBF_0.6>  (97) 
True

>  <nPBF>  (97) 
0.031196

>  <nPBF_0.016>  (97) 
True

>  <PMI1>  (97) 
1033.702663

>  <PMI2>  (97) 
3325.623148

>  <PMI3>  (97) 
3738.075155

>  <NPR1>  (97) 
0.276533

>  <NPR2>  (97) 
0.889662

>  <Sum_NPR>  (97) 
1.166195

>  <Sum_NPR_1.07>  (97) 
True

>  <Sum_NPR_1.2>  (97) 
False

>  <MaxAbsEStateIndex>  (97) 
9.179873

>  <MaxEStateIndex>  (97) 
9.179873

>  <MinAbsEStateIndex>  (97) 
0.166484

>  <MinEStateIndex>  (97) 
0.166484

>  <qed>  (97) 
0.799679

>  <MolWt>  (97) 
306.373

>  <HeavyAtomMolWt>  (97) 
288.229

>  <ExactMolWt>  (97) 
306.159295

>  <NumValenceElectrons>  (97) 
116

>  <NumRadicalElectrons>  (97) 
0

>  <MaxPartialCharge>  (97) 
0.140806

>  <MinPartialCharge>  (97) 
-0.346035

>  <MaxAbsPartialCharge>  (97) 
0.346035

>  <MinAbsPartialCharge>  (97) 
0.140806

>  <FpDensityMorgan1>  (97) 
1.347826

>  <FpDensityMorgan2>  (97) 
2.217391

>  <FpDensityMorgan3>  (97) 
3.043478

>  <BCUT2D_MWHI>  (97) 
15.284951

>  <BCUT2D_MWLOW>  (97) 
9.958328

>  <BCUT2D_CHGHI>  (97) 
2.267967

>  <BCUT2D_CHGLO>  (97) 
-2.206905

>  <BCUT2D_LOGPHI>  (97) 
2.362071

>  <BCUT2D_LOGPLOW>  (97) 
-2.170495

>  <BCUT2D_MRHI>  (97) 
5.894622

>  <BCUT2D_MRLOW>  (97) 
0.314581

>  <AvgIpc>  (97) 
3.324335

>  <BalabanJ>  (97) 
1.701321

>  <BertzCT>  (97) 
849.221136

>  <Chi0>  (97) 
15.648054

>  <Chi0n>  (97) 
12.813054

>  <Chi0v>  (97) 
12.813054

>  <Chi1>  (97) 
11.364505

>  <Chi1n>  (97) 
8.06148

>  <Chi1v>  (97) 
8.06148

>  <Chi2n>  (97) 
6.145373

>  <Chi2v>  (97) 
6.145373

>  <Chi3n>  (97) 
4.813107

>  <Chi3v>  (97) 
4.813107

>  <Chi4n>  (97) 
3.65601

>  <Chi4v>  (97) 
3.65601

>  <HallKierAlpha>  (97) 
-2.68

>  <Ipc>  (97) 
488454.573146

>  <Kappa1>  (97) 
13.947002

>  <Kappa2>  (97) 
5.840474

>  <Kappa3>  (97) 
2.48227

>  <LabuteASA>  (97) 
133.732137

>  <PEOE_VSA1>  (97) 
4.983979

>  <PEOE_VSA10>  (97) 
11.974497

>  <PEOE_VSA11>  (97) 
0.0

>  <PEOE_VSA12>  (97) 
0.0

>  <PEOE_VSA13>  (97) 
0.0

>  <PEOE_VSA14>  (97) 
0.0

>  <PEOE_VSA2>  (97) 
4.681803

>  <PEOE_VSA3>  (97) 
9.967957

>  <PEOE_VSA4>  (97) 
10.360573

>  <PEOE_VSA5>  (97) 
0.0

>  <PEOE_VSA6>  (97) 
12.841643

>  <PEOE_VSA7>  (97) 
24.825916

>  <PEOE_VSA8>  (97) 
23.343363

>  <PEOE_VSA9>  (97) 
30.422655

>  <SMR_VSA1>  (97) 
0.0

>  <SMR_VSA10>  (97) 
11.033401

>  <SMR_VSA2>  (97) 
5.261892

>  <SMR_VSA3>  (97) 
24.73242

>  <SMR_VSA4>  (97) 
5.917906

>  <SMR_VSA5>  (97) 
38.145949

>  <SMR_VSA6>  (97) 
0.0

>  <SMR_VSA7>  (97) 
30.984218

>  <SMR_VSA8>  (97) 
0.0

>  <SMR_VSA9>  (97) 
17.326601

>  <SlogP_VSA1>  (97) 
0.0

>  <SlogP_VSA10>  (97) 
0.0

>  <SlogP_VSA11>  (97) 
0.0

>  <SlogP_VSA12>  (97) 
0.0

>  <SlogP_VSA2>  (97) 
24.73242

>  <SlogP_VSA3>  (97) 
0.0

>  <SlogP_VSA4>  (97) 
17.249019

>  <SlogP_VSA5>  (97) 
38.145949

>  <SlogP_VSA6>  (97) 
30.984218

>  <SlogP_VSA7>  (97) 
0.0

>  <SlogP_VSA8>  (97) 
22.290781

>  <SlogP_VSA9>  (97) 
0.0

>  <EState_VSA1>  (97) 
0.0

>  <EState_VSA10>  (97) 
5.261892

>  <EState_VSA11>  (97) 
0.0

>  <EState_VSA2>  (97) 
6.041841

>  <EState_VSA3>  (97) 
12.338728

>  <EState_VSA4>  (97) 
22.290781

>  <EState_VSA5>  (97) 
25.683286

>  <EState_VSA6>  (97) 
6.32732

>  <EState_VSA7>  (97) 
29.338701

>  <EState_VSA8>  (97) 
26.119839

>  <EState_VSA9>  (97) 
0.0

>  <VSA_EState1>  (97) 
1.967397

>  <VSA_EState10>  (97) 
0.0

>  <VSA_EState2>  (97) 
11.743828

>  <VSA_EState3>  (97) 
14.712614

>  <VSA_EState4>  (97) 
2.675633

>  <VSA_EState5>  (97) 
0.555627

>  <VSA_EState6>  (97) 
4.470637

>  <VSA_EState7>  (97) 
12.707597

>  <VSA_EState8>  (97) 
0.0

>  <VSA_EState9>  (97) 
0.0

>  <FractionCSP3>  (97) 
0.411765

>  <HeavyAtomCount>  (97) 
23

>  <NHOHCount>  (97) 
1

>  <NOCount>  (97) 
6

>  <NumAliphaticCarbocycles>  (97) 
1

>  <NumAliphaticHeterocycles>  (97) 
0

>  <NumAliphaticRings>  (97) 
1

>  <NumAromaticCarbocycles>  (97) 
0

>  <NumAromaticHeterocycles>  (97) 
3

>  <NumAromaticRings>  (97) 
3

>  <NumHAcceptors>  (97) 
5

>  <NumHDonors>  (97) 
1

>  <NumHeteroatoms>  (97) 
6

>  <NumRotatableBonds>  (97) 
4

>  <NumSaturatedCarbocycles>  (97) 
1

>  <NumSaturatedHeterocycles>  (97) 
0

>  <NumSaturatedRings>  (97) 
1

>  <RingCount>  (97) 
4

>  <MolLogP>  (97) 
3.46638

>  <MolMR>  (97) 
86.3347

>  <fr_Al_COO>  (97) 
0

>  <fr_Al_OH>  (97) 
0

>  <fr_Al_OH_noTert>  (97) 
0

>  <fr_ArN>  (97) 
0

>  <fr_Ar_COO>  (97) 
0

>  <fr_Ar_N>  (97) 
5

>  <fr_Ar_NH>  (97) 
1

>  <fr_Ar_OH>  (97) 
0

>  <fr_COO>  (97) 
0

>  <fr_COO2>  (97) 
0

>  <fr_C_O>  (97) 
0

>  <fr_C_O_noCOO>  (97) 
0

>  <fr_C_S>  (97) 
0

>  <fr_HOCCN>  (97) 
0

>  <fr_Imine>  (97) 
0

>  <fr_NH0>  (97) 
5

>  <fr_NH1>  (97) 
1

>  <fr_NH2>  (97) 
0

>  <fr_N_O>  (97) 
0

>  <fr_Ndealkylation1>  (97) 
0

>  <fr_Ndealkylation2>  (97) 
0

>  <fr_Nhpyrrole>  (97) 
1

>  <fr_SH>  (97) 
0

>  <fr_aldehyde>  (97) 
0

>  <fr_alkyl_carbamate>  (97) 
0

>  <fr_alkyl_halide>  (97) 
0

>  <fr_allylic_oxid>  (97) 
0

>  <fr_amide>  (97) 
0

>  <fr_amidine>  (97) 
0

>  <fr_aniline>  (97) 
0

>  <fr_aryl_methyl>  (97) 
0

>  <fr_azide>  (97) 
0

>  <fr_azo>  (97) 
0

>  <fr_barbitur>  (97) 
0

>  <fr_benzene>  (97) 
0

>  <fr_benzodiazepine>  (97) 
0

>  <fr_bicyclic>  (97) 
1

>  <fr_diazo>  (97) 
0

>  <fr_dihydropyridine>  (97) 
0

>  <fr_epoxide>  (97) 
0

>  <fr_ester>  (97) 
0

>  <fr_ether>  (97) 
0

>  <fr_furan>  (97) 
0

>  <fr_guanido>  (97) 
0

>  <fr_halogen>  (97) 
0

>  <fr_hdrzine>  (97) 
0

>  <fr_hdrzone>  (97) 
0

>  <fr_imidazole>  (97) 
0

>  <fr_imide>  (97) 
0

>  <fr_isocyan>  (97) 
0

>  <fr_isothiocyan>  (97) 
0

>  <fr_ketone>  (97) 
0

>  <fr_ketone_Topliss>  (97) 
0

>  <fr_lactam>  (97) 
0

>  <fr_lactone>  (97) 
0

>  <fr_methoxy>  (97) 
0

>  <fr_morpholine>  (97) 
0

>  <fr_nitrile>  (97) 
1

>  <fr_nitro>  (97) 
0

>  <fr_nitro_arom>  (97) 
0

>  <fr_nitro_arom_nonortho>  (97) 
0

>  <fr_nitroso>  (97) 
0

>  <fr_oxazole>  (97) 
0

>  <fr_oxime>  (97) 
0

>  <fr_para_hydroxylation>  (97) 
0

>  <fr_phenol>  (97) 
0

>  <fr_phenol_noOrthoHbond>  (97) 
0

>  <fr_phos_acid>  (97) 
0

>  <fr_phos_ester>  (97) 
0

>  <fr_piperdine>  (97) 
0

>  <fr_piperzine>  (97) 
0

>  <fr_priamide>  (97) 
0

>  <fr_prisulfonamd>  (97) 
0

>  <fr_pyridine>  (97) 
0

>  <fr_quatN>  (97) 
0

>  <fr_sulfide>  (97) 
0

>  <fr_sulfonamd>  (97) 
0

>  <fr_sulfone>  (97) 
0

>  <fr_term_acetylene>  (97) 
0

>  <fr_tetrazole>  (97) 
0

>  <fr_thiazole>  (97) 
0

>  <fr_thiocyan>  (97) 
0

>  <fr_thiophene>  (97) 
0

>  <fr_unbrch_alkane>  (97) 
0

>  <fr_urea>  (97) 
0

>  <NP_Likeness>  (97) 
-0.903435

$$$$
nan
     RDKit          3D

  0  0  0  0  0  0  0  0  0  0999 V3000
M  V30 BEGIN CTAB
M  V30 COUNTS 54 57 0 0 0
M  V30 BEGIN ATOM
M  V30 1 C -0.101950 -2.413448 -3.010825 0
M  V30 2 C 0.663732 -2.601557 -1.767225 0
M  V30 3 C 1.713092 -1.732325 -1.518110 0
M  V30 4 C 2.481061 -1.856964 -0.377665 0
M  V30 5 C 2.147462 -2.881848 0.481546 0
M  V30 6 N 2.857324 -3.022439 1.732378 0
M  V30 7 C 2.997284 -1.776663 2.464361 0
M  V30 8 N 3.732829 -1.758059 3.588210 0
M  V30 9 C 3.832146 -0.597153 4.298082 0
M  V30 10 C 3.185237 0.553353 3.872318 0
M  V30 11 C 2.424403 0.531832 2.710003 0
M  V30 12 N 1.743735 1.656236 2.166861 0
M  V30 13 C 2.625543 2.798158 2.280528 0
M  V30 14 C 0.437151 1.632057 1.608995 0
M  V30 15 C -0.141143 2.726064 1.016085 0
M  V30 16 C -1.448473 2.670848 0.518338 0
M  V30 17 C -2.173699 1.500941 0.622538 0
M  V30 18 C -3.454256 1.197366 0.231105 0
M  V30 19 C -4.479912 2.031144 -0.455780 0
M  V30 20 N -3.626813 -0.100886 0.604354 0
M  V30 21 C -4.789740 -0.956916 0.459341 0
M  V30 22 N -2.521170 -0.557639 1.184917 0
M  V30 23 C -1.580203 0.396006 1.225760 0
M  V30 24 C -0.287361 0.467698 1.711479 0
M  V30 25 N 2.392175 -0.653011 2.088727 0
M  V30 26 C 1.104784 -3.747180 0.230332 0
M  V30 27 C 0.322384 -3.633915 -0.906881 0
M  V30 28 S -1.063314 -4.636943 -1.215754 0
M  V30 29 N -1.151158 -5.326898 -2.754797 0
M  V30 30 O -0.902121 -5.819786 -0.241177 0
M  V30 31 O -2.322098 -3.977901 -0.810316 0
M  V30 32 H 0.440945 -2.881484 -3.872715 0
M  V30 33 H -1.168624 -2.677622 -2.956252 0
M  V30 34 H -0.083726 -1.304971 -3.243938 0
M  V30 35 H 1.928695 -0.939862 -2.246055 0
M  V30 36 H 3.299715 -1.212025 -0.147331 0
M  V30 37 H 3.261101 -3.882818 2.133686 0
M  V30 38 H 4.437462 -0.618252 5.203477 0
M  V30 39 H 3.258113 1.460051 4.429081 0
M  V30 40 H 2.748201 3.100745 3.361729 0
M  V30 41 H 2.218709 3.719295 1.801404 0
M  V30 42 H 3.660234 2.589496 1.892882 0
M  V30 43 H 0.393613 3.657534 0.911552 0
M  V30 44 H -1.877288 3.546141 0.056338 0
M  V30 45 H -5.138084 1.378509 -1.081997 0
M  V30 46 H -5.123091 2.437023 0.352777 0
M  V30 47 H -4.040183 2.822787 -1.083718 0
M  V30 48 H -4.894027 -1.657514 1.310336 0
M  V30 49 H -5.692121 -0.333636 0.417785 0
M  V30 50 H -4.749957 -1.574792 -0.455524 0
M  V30 51 H 0.051049 -0.463862 2.158055 0
M  V30 52 H 0.887146 -4.547620 0.953934 0
M  V30 53 H -2.124313 -5.188576 -3.111235 0
M  V30 54 H -0.419541 -5.062171 -3.413300 0
M  V30 END ATOM
M  V30 BEGIN BOND
M  V30 1 1 1 2
M  V30 2 2 2 3
M  V30 3 1 3 4
M  V30 4 2 4 5
M  V30 5 1 5 6
M  V30 6 1 6 7
M  V30 7 2 7 8
M  V30 8 1 8 9
M  V30 9 2 9 10
M  V30 10 1 10 11
M  V30 11 1 11 12
M  V30 12 1 12 13
M  V30 13 1 12 14
M  V30 14 1 14 15
M  V30 15 2 15 16
M  V30 16 1 16 17
M  V30 17 2 17 18
M  V30 18 1 18 19
M  V30 19 1 18 20
M  V30 20 1 20 21
M  V30 21 1 20 22
M  V30 22 2 22 23
M  V30 23 1 23 24
M  V30 24 2 11 25
M  V30 25 1 5 26
M  V30 26 2 26 27
M  V30 27 1 27 28
M  V30 28 1 28 29
M  V30 29 2 28 30
M  V30 30 2 28 31
M  V30 31 1 27 2
M  V30 32 1 25 7
M  V30 33 2 24 14
M  V30 34 1 23 17
M  V30 35 1 1 32
M  V30 36 1 1 33
M  V30 37 1 1 34
M  V30 38 1 3 35
M  V30 39 1 4 36
M  V30 40 1 6 37
M  V30 41 1 9 38
M  V30 42 1 10 39
M  V30 43 1 13 40
M  V30 44 1 13 41
M  V30 45 1 13 42
M  V30 46 1 15 43
M  V30 47 1 16 44
M  V30 48 1 19 45
M  V30 49 1 19 46
M  V30 50 1 19 47
M  V30 51 1 21 48
M  V30 52 1 21 49
M  V30 53 1 21 50
M  V30 54 1 24 51
M  V30 55 1 26 52
M  V30 56 1 29 53
M  V30 57 1 29 54
M  V30 END BOND
M  V30 END CTAB
M  END
>  <Dataset>  (98) 
PKIs

>  <Ligand_Instance>  (98) 
nan

>  <PDB_ID>  (98) 
nan

>  <Standardized_SMILES>  (98) 
Cc1ccc(Nc2nccc(N(C)c3ccc4c(C)n(C)nc4c3)n2)cc1S(N)(=O)=O

>  <Name>  (98) 
Pazopanib

>  <Pocket>  (98) 
nan

>  <ATP_Site>  (98) 
nan

>  <Peripheral>  (98) 
nan

>  <Num_H_Atoms_ProtBoundConf>  (98) 
nan

>  <Num_Resolved_Atoms>  (98) 
nan

>  <Num_Not_Resolved_Atoms>  (98) 
nan

>  <2D_Mol_H>  (98) 
<rdkit.Chem.rdchem.Mol object at 0x72a2391429d0>

>  <MW>  (98) 
437.529

>  <HBA>  (98) 
8

>  <HBD>  (98) 
2

>  <LogP>  (98) 
3.13904

>  <NRB>  (98) 
10

>  <TPSA>  (98) 
119.03

>  <Num_Heavy_Atoms>  (98) 
31

>  <Ro5>  (98) 
[True, True, True, True, True, True]

>  <Ro5_Fulfilled>  (98) 
True

>  <Ro3>  (98) 
[False, False, True, False]

>  <Ro3_Fulfilled>  (98) 
False

>  <Fsp3>  (98) 
0.190476

>  <Fsp3_0.42>  (98) 
False

>  <Fsp3_0.45>  (98) 
False

>  <Stereogenic_Carbons>  (98) 
0

>  <C_Atoms>  (98) 
21

>  <FCStereo>  (98) 
0.0

>  <SPS>  (98) 
361

>  <nSPS>  (98) 
11.645161

>  <PBF>  (98) 
1.172871

>  <PBF_0.6>  (98) 
True

>  <nPBF>  (98) 
0.037835

>  <nPBF_0.016>  (98) 
True

>  <PMI1>  (98) 
3289.965218

>  <PMI2>  (98) 
4095.818282

>  <PMI3>  (98) 
6354.466493

>  <NPR1>  (98) 
0.517741

>  <NPR2>  (98) 
0.644557

>  <Sum_NPR>  (98) 
1.162298

>  <Sum_NPR_1.07>  (98) 
True

>  <Sum_NPR_1.2>  (98) 
False

>  <MaxAbsEStateIndex>  (98) 
11.779826

>  <MaxEStateIndex>  (98) 
11.779826

>  <MinAbsEStateIndex>  (98) 
0.059935

>  <MinEStateIndex>  (98) 
-3.821977

>  <qed>  (98) 
0.49215

>  <MolWt>  (98) 
437.529

>  <HeavyAtomMolWt>  (98) 
414.345

>  <ExactMolWt>  (98) 
437.163394

>  <NumValenceElectrons>  (98) 
160

>  <NumRadicalElectrons>  (98) 
0

>  <MaxPartialCharge>  (98) 
0.237887

>  <MinPartialCharge>  (98) 
-0.329236

>  <MaxAbsPartialCharge>  (98) 
0.329236

>  <MinAbsPartialCharge>  (98) 
0.237887

>  <FpDensityMorgan1>  (98) 
1.096774

>  <FpDensityMorgan2>  (98) 
1.870968

>  <FpDensityMorgan3>  (98) 
2.612903

>  <BCUT2D_MWHI>  (98) 
32.233117

>  <BCUT2D_MWLOW>  (98) 
10.163238

>  <BCUT2D_CHGHI>  (98) 
2.138001

>  <BCUT2D_CHGLO>  (98) 
-2.186518

>  <BCUT2D_LOGPHI>  (98) 
2.277062

>  <BCUT2D_LOGPLOW>  (98) 
-2.140904

>  <BCUT2D_MRHI>  (98) 
7.888202

>  <BCUT2D_MRLOW>  (98) 
0.596976

>  <AvgIpc>  (98) 
3.011315

>  <BalabanJ>  (98) 
1.62731

>  <BertzCT>  (98) 
1396.378076

>  <Chi0>  (98) 
22.336134

>  <Chi0n>  (98) 
17.656965

>  <Chi0v>  (98) 
18.473462

>  <Chi1>  (98) 
14.630049

>  <Chi1n>  (98) 
9.53911

>  <Chi1v>  (98) 
11.085429

>  <Chi2n>  (98) 
7.358218

>  <Chi2v>  (98) 
8.888063

>  <Chi3n>  (98) 
5.236889

>  <Chi3v>  (98) 
6.289766

>  <Chi4n>  (98) 
3.37021

>  <Chi4v>  (98) 
4.178269

>  <HallKierAlpha>  (98) 
-3.5

>  <Ipc>  (98) 
8680579.780183

>  <Kappa1>  (98) 
20.759876

>  <Kappa2>  (98) 
7.637285

>  <Kappa3>  (98) 
4.072096

>  <LabuteASA>  (98) 
180.143916

>  <PEOE_VSA1>  (98) 
10.216698

>  <PEOE_VSA10>  (98) 
5.817863

>  <PEOE_VSA11>  (98) 
0.0

>  <PEOE_VSA12>  (98) 
15.97163

>  <PEOE_VSA13>  (98) 
0.0

>  <PEOE_VSA14>  (98) 
0.0

>  <PEOE_VSA2>  (98) 
4.681803

>  <PEOE_VSA3>  (98) 
18.540749

>  <PEOE_VSA4>  (98) 
10.08266

>  <PEOE_VSA5>  (98) 
0.0

>  <PEOE_VSA6>  (98) 
6.066367

>  <PEOE_VSA7>  (98) 
55.809128

>  <PEOE_VSA8>  (98) 
42.747112

>  <PEOE_VSA9>  (98) 
10.412184

>  <SMR_VSA1>  (98) 
8.417797

>  <SMR_VSA10>  (98) 
44.067191

>  <SMR_VSA2>  (98) 
0.0

>  <SMR_VSA3>  (98) 
19.748442

>  <SMR_VSA4>  (98) 
12.186646

>  <SMR_VSA5>  (98) 
18.742958

>  <SMR_VSA6>  (98) 
17.26437

>  <SMR_VSA7>  (98) 
59.918793

>  <SMR_VSA8>  (98) 
0.0

>  <SMR_VSA9>  (98) 
0.0

>  <SlogP_VSA1>  (98) 
15.355672

>  <SlogP_VSA10>  (98) 
23.140975

>  <SlogP_VSA11>  (98) 
0.0

>  <SlogP_VSA12>  (98) 
0.0

>  <SlogP_VSA2>  (98) 
35.213911

>  <SlogP_VSA3>  (98) 
17.070963

>  <SlogP_VSA4>  (98) 
13.847474

>  <SlogP_VSA5>  (98) 
11.257379

>  <SlogP_VSA6>  (98) 
53.556897

>  <SlogP_VSA7>  (98) 
0.0

>  <SlogP_VSA8>  (98) 
10.902925

>  <SlogP_VSA9>  (98) 
0.0

>  <EState_VSA1>  (98) 
10.023291

>  <EState_VSA10>  (98) 
8.417797

>  <EState_VSA11>  (98) 
0.0

>  <EState_VSA2>  (98) 
4.895483

>  <EState_VSA3>  (98) 
23.01704

>  <EState_VSA4>  (98) 
22.284239

>  <EState_VSA5>  (98) 
6.066367

>  <EState_VSA6>  (98) 
31.319682

>  <EState_VSA7>  (98) 
48.799895

>  <EState_VSA8>  (98) 
20.383427

>  <EState_VSA9>  (98) 
5.138974

>  <VSA_EState1>  (98) 
25.419307

>  <VSA_EState10>  (98) 
0.0

>  <VSA_EState2>  (98) 
10.795158

>  <VSA_EState3>  (98) 
13.99425

>  <VSA_EState4>  (98) 
4.047341

>  <VSA_EState5>  (98) 
1.006126

>  <VSA_EState6>  (98) 
12.778125

>  <VSA_EState7>  (98) 
1.638282

>  <VSA_EState8>  (98) 
3.725197

>  <VSA_EState9>  (98) 
0.01288

>  <FractionCSP3>  (98) 
0.190476

>  <HeavyAtomCount>  (98) 
31

>  <NHOHCount>  (98) 
3

>  <NOCount>  (98) 
9

>  <NumAliphaticCarbocycles>  (98) 
0

>  <NumAliphaticHeterocycles>  (98) 
0

>  <NumAliphaticRings>  (98) 
0

>  <NumAromaticCarbocycles>  (98) 
2

>  <NumAromaticHeterocycles>  (98) 
2

>  <NumAromaticRings>  (98) 
4

>  <NumHAcceptors>  (98) 
8

>  <NumHDonors>  (98) 
2

>  <NumHeteroatoms>  (98) 
10

>  <NumRotatableBonds>  (98) 
5

>  <NumSaturatedCarbocycles>  (98) 
0

>  <NumSaturatedHeterocycles>  (98) 
0

>  <NumSaturatedRings>  (98) 
0

>  <RingCount>  (98) 
4

>  <MolLogP>  (98) 
3.13904

>  <MolMR>  (98) 
121.3809

>  <fr_Al_COO>  (98) 
0

>  <fr_Al_OH>  (98) 
0

>  <fr_Al_OH_noTert>  (98) 
0

>  <fr_ArN>  (98) 
0

>  <fr_Ar_COO>  (98) 
0

>  <fr_Ar_N>  (98) 
4

>  <fr_Ar_NH>  (98) 
0

>  <fr_Ar_OH>  (98) 
0

>  <fr_COO>  (98) 
0

>  <fr_COO2>  (98) 
0

>  <fr_C_O>  (98) 
0

>  <fr_C_O_noCOO>  (98) 
0

>  <fr_C_S>  (98) 
0

>  <fr_HOCCN>  (98) 
0

>  <fr_Imine>  (98) 
0

>  <fr_NH0>  (98) 
5

>  <fr_NH1>  (98) 
1

>  <fr_NH2>  (98) 
1

>  <fr_N_O>  (98) 
0

>  <fr_Ndealkylation1>  (98) 
0

>  <fr_Ndealkylation2>  (98) 
0

>  <fr_Nhpyrrole>  (98) 
0

>  <fr_SH>  (98) 
0

>  <fr_aldehyde>  (98) 
0

>  <fr_alkyl_carbamate>  (98) 
0

>  <fr_alkyl_halide>  (98) 
0

>  <fr_allylic_oxid>  (98) 
0

>  <fr_amide>  (98) 
0

>  <fr_amidine>  (98) 
0

>  <fr_aniline>  (98) 
4

>  <fr_aryl_methyl>  (98) 
3

>  <fr_azide>  (98) 
0

>  <fr_azo>  (98) 
0

>  <fr_barbitur>  (98) 
0

>  <fr_benzene>  (98) 
2

>  <fr_benzodiazepine>  (98) 
0

>  <fr_bicyclic>  (98) 
1

>  <fr_diazo>  (98) 
0

>  <fr_dihydropyridine>  (98) 
0

>  <fr_epoxide>  (98) 
0

>  <fr_ester>  (98) 
0

>  <fr_ether>  (98) 
0

>  <fr_furan>  (98) 
0

>  <fr_guanido>  (98) 
0

>  <fr_halogen>  (98) 
0

>  <fr_hdrzine>  (98) 
0

>  <fr_hdrzone>  (98) 
0

>  <fr_imidazole>  (98) 
0

>  <fr_imide>  (98) 
0

>  <fr_isocyan>  (98) 
0

>  <fr_isothiocyan>  (98) 
0

>  <fr_ketone>  (98) 
0

>  <fr_ketone_Topliss>  (98) 
0

>  <fr_lactam>  (98) 
0

>  <fr_lactone>  (98) 
0

>  <fr_methoxy>  (98) 
0

>  <fr_morpholine>  (98) 
0

>  <fr_nitrile>  (98) 
0

>  <fr_nitro>  (98) 
0

>  <fr_nitro_arom>  (98) 
0

>  <fr_nitro_arom_nonortho>  (98) 
0

>  <fr_nitroso>  (98) 
0

>  <fr_oxazole>  (98) 
0

>  <fr_oxime>  (98) 
0

>  <fr_para_hydroxylation>  (98) 
0

>  <fr_phenol>  (98) 
0

>  <fr_phenol_noOrthoHbond>  (98) 
0

>  <fr_phos_acid>  (98) 
0

>  <fr_phos_ester>  (98) 
0

>  <fr_piperdine>  (98) 
0

>  <fr_piperzine>  (98) 
0

>  <fr_priamide>  (98) 
0

>  <fr_prisulfonamd>  (98) 
0

>  <fr_pyridine>  (98) 
0

>  <fr_quatN>  (98) 
0

>  <fr_sulfide>  (98) 
0

>  <fr_sulfonamd>  (98) 
1

>  <fr_sulfone>  (98) 
0

>  <fr_term_acetylene>  (98) 
0

>  <fr_tetrazole>  (98) 
0

>  <fr_thiazole>  (98) 
0

>  <fr_thiocyan>  (98) 
0

>  <fr_thiophene>  (98) 
0

>  <fr_unbrch_alkane>  (98) 
0

>  <fr_urea>  (98) 
0

>  <NP_Likeness>  (98) 
-1.696431

$$$$
nan
     RDKit          3D

  0  0  0  0  0  0  0  0  0  0999 V3000
M  V30 BEGIN CTAB
M  V30 COUNTS 61 65 0 0 0
M  V30 BEGIN ATOM
M  V30 1 C 4.201973 -4.998479 5.406961 0
M  V30 2 C 3.853459 -3.650299 4.878069 0
M  V30 3 C 3.806771 -3.357975 3.517054 0
M  V30 4 N 3.464526 -2.071044 3.395676 0
M  V30 5 C 3.312346 -1.396776 2.154200 0
M  V30 6 C 2.642818 -0.194376 2.136087 0
M  V30 7 C 2.500385 0.445145 0.926359 0
M  V30 8 N 1.833015 1.703093 0.680980 0
M  V30 9 C 0.469006 1.328863 0.406248 0
M  V30 10 O 0.373981 0.057041 0.487023 0
M  V30 11 C -0.619951 2.259052 0.087704 0
M  V30 12 C -0.520579 3.634245 -0.016072 0
M  V30 13 C -1.685383 4.293216 -0.340654 0
M  V30 14 C -2.912920 3.714342 -0.565290 0
M  V30 15 C -4.122158 4.506601 -0.909575 0
M  V30 16 C -2.973060 2.321536 -0.450774 0
M  V30 17 N -4.211558 1.624962 -0.688432 0
M  V30 18 C -4.264342 0.193953 -0.502261 0
M  V30 19 N -5.142006 -0.056019 0.475686 0
M  V30 20 C -5.342444 -1.355281 0.836603 0
M  V30 21 C -4.606587 -2.308689 0.143875 0
M  V30 22 C -3.707883 -2.035485 -0.860223 0
M  V30 23 C -2.922126 -3.011419 -1.591026 0
M  V30 24 C -2.063571 -2.548642 -2.562312 0
M  V30 25 C -1.337346 -3.540574 -3.219442 0
M  V30 26 C -1.447456 -4.890359 -2.941075 0
M  V30 27 N -2.294962 -5.308448 -1.986858 0
M  V30 28 C -3.018456 -4.359261 -1.327870 0
M  V30 29 N -3.560299 -0.754105 -1.161202 0
M  V30 30 C -1.834796 1.612062 -0.127405 0
M  V30 31 C 3.006300 -0.083099 -0.255415 0
M  V30 32 C 3.679270 -1.295082 -0.226644 0
M  V30 33 C 4.253549 -1.929624 -1.467667 0
M  V30 34 F 3.509407 -1.591706 -2.590427 0
M  V30 35 F 5.593985 -1.596974 -1.615976 0
M  V30 36 F 4.209831 -3.316907 -1.324906 0
M  V30 37 C 3.818861 -1.931245 0.988877 0
M  V30 38 C 3.304828 -1.582846 4.637433 0
M  V30 39 N 3.537215 -2.527368 5.535271 0
M  V30 40 H 4.948449 -5.438710 4.732083 0
M  V30 41 H 4.613196 -4.832117 6.423827 0
M  V30 42 H 3.276463 -5.631408 5.488272 0
M  V30 43 H 4.014226 -4.061752 2.704463 0
M  V30 44 H 2.212732 0.306573 2.982983 0
M  V30 45 H 2.057269 2.743619 0.648053 0
M  V30 46 H 0.443160 4.052551 0.163062 0
M  V30 47 H -1.573252 5.383634 -0.414588 0
M  V30 48 H -4.777850 4.647934 -0.025493 0
M  V30 49 H -3.780622 5.522898 -1.224230 0
M  V30 50 H -4.642926 4.070273 -1.787393 0
M  V30 51 H -5.042687 2.182580 -0.991554 0
M  V30 52 H -6.024082 -1.693310 1.611853 0
M  V30 53 H -4.755177 -3.358962 0.420967 0
M  V30 54 H -1.966738 -1.515596 -2.788087 0
M  V30 55 H -0.658705 -3.157165 -3.989005 0
M  V30 56 H -0.839832 -5.575963 -3.507277 0
M  V30 57 H -3.679655 -4.761087 -0.574568 0
M  V30 58 H -1.949207 0.553563 -0.053075 0
M  V30 59 H 2.929700 0.366405 -1.240460 0
M  V30 60 H 4.352739 -2.881447 0.979300 0
M  V30 61 H 3.031341 -0.585158 4.913695 0
M  V30 END ATOM
M  V30 BEGIN BOND
M  V30 1 1 1 2
M  V30 2 2 2 3
M  V30 3 1 3 4
M  V30 4 1 4 5
M  V30 5 2 5 6
M  V30 6 1 6 7
M  V30 7 1 7 8
M  V30 8 1 8 9
M  V30 9 2 9 10
M  V30 10 1 9 11
M  V30 11 2 11 12
M  V30 12 1 12 13
M  V30 13 2 13 14
M  V30 14 1 14 15
M  V30 15 1 14 16
M  V30 16 1 16 17
M  V30 17 1 17 18
M  V30 18 2 18 19
M  V30 19 1 19 20
M  V30 20 2 20 21
M  V30 21 1 21 22
M  V30 22 1 22 23
M  V30 23 2 23 24
M  V30 24 1 24 25
M  V30 25 2 25 26
M  V30 26 1 26 27
M  V30 27 2 27 28
M  V30 28 2 22 29
M  V30 29 2 16 30
M  V30 30 2 7 31
M  V30 31 1 31 32
M  V30 32 1 32 33
M  V30 33 1 33 34
M  V30 34 1 33 35
M  V30 35 1 33 36
M  V30 36 2 32 37
M  V30 37 1 4 38
M  V30 38 2 38 39
M  V30 39 1 39 2
M  V30 40 1 37 5
M  V30 41 1 30 11
M  V30 42 1 29 18
M  V30 43 1 28 23
M  V30 44 1 1 40
M  V30 45 1 1 41
M  V30 46 1 1 42
M  V30 47 1 3 43
M  V30 48 1 6 44
M  V30 49 1 8 45
M  V30 50 1 12 46
M  V30 51 1 13 47
M  V30 52 1 15 48
M  V30 53 1 15 49
M  V30 54 1 15 50
M  V30 55 1 17 51
M  V30 56 1 20 52
M  V30 57 1 21 53
M  V30 58 1 24 54
M  V30 59 1 25 55
M  V30 60 1 26 56
M  V30 61 1 28 57
M  V30 62 1 30 58
M  V30 63 1 31 59
M  V30 64 1 37 60
M  V30 65 1 38 61
M  V30 END BOND
M  V30 END CTAB
M  END
>  <Dataset>  (99) 
PKIs

>  <Ligand_Instance>  (99) 
nan

>  <PDB_ID>  (99) 
nan

>  <Standardized_SMILES>  (99) 
Cc1cn(-c2cc(NC(=O)c3ccc(C)c(Nc4nccc(-c5cccnc5)n4)c3)cc(C(F)(F)F)c2)cn1

>  <Name>  (99) 
Nilotinib

>  <Pocket>  (99) 
nan

>  <ATP_Site>  (99) 
nan

>  <Peripheral>  (99) 
nan

>  <Num_H_Atoms_ProtBoundConf>  (99) 
nan

>  <Num_Resolved_Atoms>  (99) 
nan

>  <Num_Not_Resolved_Atoms>  (99) 
nan

>  <2D_Mol_H>  (99) 
<rdkit.Chem.rdchem.Mol object at 0x72a239142ab0>

>  <MW>  (99) 
529.526

>  <HBA>  (99) 
7

>  <HBD>  (99) 
2

>  <LogP>  (99) 
6.35584

>  <NRB>  (99) 
8

>  <TPSA>  (99) 
97.62

>  <Num_Heavy_Atoms>  (99) 
39

>  <Ro5>  (99) 
[False, True, True, False, True, True]

>  <Ro5_Fulfilled>  (99) 
False

>  <Ro3>  (99) 
[False, False, True, False]

>  <Ro3_Fulfilled>  (99) 
False

>  <Fsp3>  (99) 
0.107143

>  <Fsp3_0.42>  (99) 
False

>  <Fsp3_0.45>  (99) 
False

>  <Stereogenic_Carbons>  (99) 
0

>  <C_Atoms>  (99) 
28

>  <FCStereo>  (99) 
0.0

>  <SPS>  (99) 
441

>  <nSPS>  (99) 
11.307692

>  <PBF>  (99) 
1.519146

>  <PBF_0.6>  (99) 
True

>  <nPBF>  (99) 
0.038952

>  <nPBF_0.016>  (99) 
True

>  <PMI1>  (99) 
5058.664155

>  <PMI2>  (99) 
9263.960359

>  <PMI3>  (99) 
10332.210964

>  <NPR1>  (99) 
0.489601

>  <NPR2>  (99) 
0.89661

>  <Sum_NPR>  (99) 
1.386211

>  <Sum_NPR_1.07>  (99) 
True

>  <Sum_NPR_1.2>  (99) 
True

>  <MaxAbsEStateIndex>  (99) 
13.609165

>  <MaxEStateIndex>  (99) 
13.609165

>  <MinAbsEStateIndex>  (99) 
0.001141

>  <MinEStateIndex>  (99) 
-4.600782

>  <qed>  (99) 
0.26586

>  <MolWt>  (99) 
529.526

>  <HeavyAtomMolWt>  (99) 
507.35

>  <ExactMolWt>  (99) 
529.183793

>  <NumValenceElectrons>  (99) 
196

>  <NumRadicalElectrons>  (99) 
0

>  <MaxPartialCharge>  (99) 
0.416062

>  <MinPartialCharge>  (99) 
-0.323897

>  <MaxAbsPartialCharge>  (99) 
0.416062

>  <MinAbsPartialCharge>  (99) 
0.323897

>  <FpDensityMorgan1>  (99) 
0.974359

>  <FpDensityMorgan2>  (99) 
1.820513

>  <FpDensityMorgan3>  (99) 
2.538462

>  <BCUT2D_MWHI>  (99) 
19.413191

>  <BCUT2D_MWLOW>  (99) 
10.086901

>  <BCUT2D_CHGHI>  (99) 
2.313543

>  <BCUT2D_CHGLO>  (99) 
-2.144309

>  <BCUT2D_LOGPHI>  (99) 
2.331559

>  <BCUT2D_LOGPLOW>  (99) 
-2.143148

>  <BCUT2D_MRHI>  (99) 
6.048097

>  <BCUT2D_MRLOW>  (99) 
-0.137104

>  <AvgIpc>  (99) 
3.360224

>  <BalabanJ>  (99) 
1.406069

>  <BertzCT>  (99) 
1649.06082

>  <Chi0>  (99) 
27.570339

>  <Chi0n>  (99) 
20.861113

>  <Chi0v>  (99) 
20.861113

>  <Chi1>  (99) 
18.652018

>  <Chi1n>  (99) 
11.813083

>  <Chi1v>  (99) 
11.813083

>  <Chi2n>  (99) 
8.804654

>  <Chi2v>  (99) 
8.804654

>  <Chi3n>  (99) 
5.871917

>  <Chi3v>  (99) 
5.871917

>  <Chi4n>  (99) 
3.874102

>  <Chi4v>  (99) 
3.874102

>  <HallKierAlpha>  (99) 
-5.06

>  <Ipc>  (99) 
649397948.082629

>  <Kappa1>  (99) 
25.58376

>  <Kappa2>  (99) 
10.364742

>  <Kappa3>  (99) 
5.92697

>  <LabuteASA>  (99) 
221.175125

>  <PEOE_VSA1>  (99) 
15.200677

>  <PEOE_VSA10>  (99) 
0.0

>  <PEOE_VSA11>  (99) 
0.0

>  <PEOE_VSA12>  (99) 
5.948339

>  <PEOE_VSA13>  (99) 
5.90718

>  <PEOE_VSA14>  (99) 
6.176299

>  <PEOE_VSA2>  (99) 
9.778516

>  <PEOE_VSA3>  (99) 
14.951936

>  <PEOE_VSA4>  (99) 
13.171245

>  <PEOE_VSA5>  (99) 
0.0

>  <PEOE_VSA6>  (99) 
6.066367

>  <PEOE_VSA7>  (99) 
67.941862

>  <PEOE_VSA8>  (99) 
52.976436

>  <PEOE_VSA9>  (99) 
23.278628

>  <SMR_VSA1>  (99) 
17.965782

>  <SMR_VSA10>  (99) 
23.230292

>  <SMR_VSA2>  (99) 
0.0

>  <SMR_VSA3>  (99) 
24.503014

>  <SMR_VSA4>  (99) 
0.0

>  <SMR_VSA5>  (99) 
20.023773

>  <SMR_VSA6>  (99) 
10.633577

>  <SMR_VSA7>  (99) 
108.09628

>  <SMR_VSA8>  (99) 
0.0

>  <SMR_VSA9>  (99) 
16.944766

>  <SlogP_VSA1>  (99) 
10.633577

>  <SlogP_VSA10>  (99) 
30.494357

>  <SlogP_VSA11>  (99) 
0.0

>  <SlogP_VSA12>  (99) 
0.0

>  <SlogP_VSA2>  (99) 
30.410193

>  <SlogP_VSA3>  (99) 
6.176299

>  <SlogP_VSA4>  (99) 
13.847474

>  <SlogP_VSA5>  (99) 
27.17882

>  <SlogP_VSA6>  (99) 
85.711998

>  <SlogP_VSA7>  (99) 
0.0

>  <SlogP_VSA8>  (99) 
16.944766

>  <SlogP_VSA9>  (99) 
0.0

>  <EState_VSA1>  (99) 
17.64693

>  <EState_VSA10>  (99) 
17.965782

>  <EState_VSA11>  (99) 
0.0

>  <EState_VSA2>  (99) 
16.938224

>  <EState_VSA3>  (99) 
23.023582

>  <EState_VSA4>  (99) 
23.259637

>  <EState_VSA5>  (99) 
16.960787

>  <EState_VSA6>  (99) 
62.042947

>  <EState_VSA7>  (99) 
12.990104

>  <EState_VSA8>  (99) 
30.569491

>  <EState_VSA9>  (99) 
0.0

>  <VSA_EState1>  (99) 
42.293524

>  <VSA_EState10>  (99) 
0.0

>  <VSA_EState2>  (99) 
30.058294

>  <VSA_EState3>  (99) 
5.711941

>  <VSA_EState4>  (99) 
3.092238

>  <VSA_EState5>  (99) 
-0.258961

>  <VSA_EState6>  (99) 
13.721744

>  <VSA_EState7>  (99) 
3.384049

>  <VSA_EState8>  (99) 
3.580505

>  <VSA_EState9>  (99) 
0.0

>  <FractionCSP3>  (99) 
0.107143

>  <HeavyAtomCount>  (99) 
39

>  <NHOHCount>  (99) 
2

>  <NOCount>  (99) 
8

>  <NumAliphaticCarbocycles>  (99) 
0

>  <NumAliphaticHeterocycles>  (99) 
0

>  <NumAliphaticRings>  (99) 
0

>  <NumAromaticCarbocycles>  (99) 
2

>  <NumAromaticHeterocycles>  (99) 
3

>  <NumAromaticRings>  (99) 
5

>  <NumHAcceptors>  (99) 
7

>  <NumHDonors>  (99) 
2

>  <NumHeteroatoms>  (99) 
11

>  <NumRotatableBonds>  (99) 
6

>  <NumSaturatedCarbocycles>  (99) 
0

>  <NumSaturatedHeterocycles>  (99) 
0

>  <NumSaturatedRings>  (99) 
0

>  <RingCount>  (99) 
5

>  <MolLogP>  (99) 
6.35584

>  <MolMR>  (99) 
140.9809

>  <fr_Al_COO>  (99) 
0

>  <fr_Al_OH>  (99) 
0

>  <fr_Al_OH_noTert>  (99) 
0

>  <fr_ArN>  (99) 
0

>  <fr_Ar_COO>  (99) 
0

>  <fr_Ar_N>  (99) 
5

>  <fr_Ar_NH>  (99) 
0

>  <fr_Ar_OH>  (99) 
0

>  <fr_COO>  (99) 
0

>  <fr_COO2>  (99) 
0

>  <fr_C_O>  (99) 
1

>  <fr_C_O_noCOO>  (99) 
1

>  <fr_C_S>  (99) 
0

>  <fr_HOCCN>  (99) 
0

>  <fr_Imine>  (99) 
0

>  <fr_NH0>  (99) 
5

>  <fr_NH1>  (99) 
2

>  <fr_NH2>  (99) 
0

>  <fr_N_O>  (99) 
0

>  <fr_Ndealkylation1>  (99) 
0

>  <fr_Ndealkylation2>  (99) 
0

>  <fr_Nhpyrrole>  (99) 
0

>  <fr_SH>  (99) 
0

>  <fr_aldehyde>  (99) 
0

>  <fr_alkyl_carbamate>  (99) 
0

>  <fr_alkyl_halide>  (99) 
3

>  <fr_allylic_oxid>  (99) 
0

>  <fr_amide>  (99) 
1

>  <fr_amidine>  (99) 
0

>  <fr_aniline>  (99) 
3

>  <fr_aryl_methyl>  (99) 
2

>  <fr_azide>  (99) 
0

>  <fr_azo>  (99) 
0

>  <fr_barbitur>  (99) 
0

>  <fr_benzene>  (99) 
2

>  <fr_benzodiazepine>  (99) 
0

>  <fr_bicyclic>  (99) 
0

>  <fr_diazo>  (99) 
0

>  <fr_dihydropyridine>  (99) 
0

>  <fr_epoxide>  (99) 
0

>  <fr_ester>  (99) 
0

>  <fr_ether>  (99) 
0

>  <fr_furan>  (99) 
0

>  <fr_guanido>  (99) 
0

>  <fr_halogen>  (99) 
3

>  <fr_hdrzine>  (99) 
0

>  <fr_hdrzone>  (99) 
0

>  <fr_imidazole>  (99) 
1

>  <fr_imide>  (99) 
0

>  <fr_isocyan>  (99) 
0

>  <fr_isothiocyan>  (99) 
0

>  <fr_ketone>  (99) 
0

>  <fr_ketone_Topliss>  (99) 
0

>  <fr_lactam>  (99) 
0

>  <fr_lactone>  (99) 
0

>  <fr_methoxy>  (99) 
0

>  <fr_morpholine>  (99) 
0

>  <fr_nitrile>  (99) 
0

>  <fr_nitro>  (99) 
0

>  <fr_nitro_arom>  (99) 
0

>  <fr_nitro_arom_nonortho>  (99) 
0

>  <fr_nitroso>  (99) 
0

>  <fr_oxazole>  (99) 
0

>  <fr_oxime>  (99) 
0

>  <fr_para_hydroxylation>  (99) 
0

>  <fr_phenol>  (99) 
0

>  <fr_phenol_noOrthoHbond>  (99) 
0

>  <fr_phos_acid>  (99) 
0

>  <fr_phos_ester>  (99) 
0

>  <fr_piperdine>  (99) 
0

>  <fr_piperzine>  (99) 
0

>  <fr_priamide>  (99) 
0

>  <fr_prisulfonamd>  (99) 
0

>  <fr_pyridine>  (99) 
1

>  <fr_quatN>  (99) 
0

>  <fr_sulfide>  (99) 
0

>  <fr_sulfonamd>  (99) 
0

>  <fr_sulfone>  (99) 
0

>  <fr_term_acetylene>  (99) 
0

>  <fr_tetrazole>  (99) 
0

>  <fr_thiazole>  (99) 
0

>  <fr_thiocyan>  (99) 
0

>  <fr_thiophene>  (99) 
0

>  <fr_unbrch_alkane>  (99) 
0

>  <fr_urea>  (99) 
0

>  <NP_Likeness>  (99) 
-1.939023

$$$$
nan
     RDKit          3D

  0  0  0  0  0  0  0  0  0  0999 V3000
M  V30 BEGIN CTAB
M  V30 COUNTS 66 70 0 0 0
M  V30 BEGIN ATOM
M  V30 1 C 5.423672 -2.671652 5.582942 0
M  V30 2 S 5.145143 -2.789867 3.808381 0
M  V30 3 O 3.677012 -3.009199 3.594062 0
M  V30 4 O 5.921565 -3.944447 3.250618 0
M  V30 5 C 5.693801 -1.282119 3.123651 0
M  V30 6 C 5.527488 -1.194889 1.599528 0
M  V30 7 N 6.039331 0.092665 1.279470 0
M  V30 8 C 6.013062 0.500604 -0.081178 0
M  V30 9 C 4.550370 0.514253 -0.466039 0
M  V30 10 C 3.741720 -0.471693 -1.007197 0
M  V30 11 C 2.497766 0.113707 -1.144042 0
M  V30 12 C 2.569164 1.414719 -0.694205 0
M  V30 13 C 1.514613 2.430462 -0.636563 0
M  V30 14 C 1.842100 3.677546 -0.140368 0
M  V30 15 C 0.881388 4.691023 -0.046487 0
M  V30 16 C -0.401135 4.402203 -0.465536 0
M  V30 17 N -1.383880 5.319987 -0.398979 0
M  V30 18 C -2.646729 5.058374 -0.794253 0
M  V30 19 N -3.007163 3.858144 -1.282901 0
M  V30 20 C -2.037322 2.920069 -1.359817 0
M  V30 21 N -2.427615 1.654219 -1.868086 0
M  V30 22 C -2.694907 0.409900 -1.234829 0
M  V30 23 C -3.271894 -0.582859 -1.986816 0
M  V30 24 C -3.507108 -1.785489 -1.377305 0
M  V30 25 C -3.216061 -2.092468 -0.069903 0
M  V30 26 O -3.322069 -3.138816 0.778222 0
M  V30 27 C -3.849532 -4.397962 0.530261 0
M  V30 28 C -5.285726 -4.430376 0.157381 0
M  V30 29 C -6.106425 -4.382720 1.296548 0
M  V30 30 C -7.488134 -4.417413 1.256965 0
M  V30 31 C -8.120995 -4.504066 0.036558 0
M  V30 32 C -7.321295 -4.550932 -1.078092 0
M  V30 33 F -7.863926 -4.637422 -2.321862 0
M  V30 34 C -5.951514 -4.517200 -1.046620 0
M  V30 35 C -2.625826 -1.049438 0.668860 0
M  V30 36 Cl -2.114891 -1.067602 2.362169 0
M  V30 37 C -2.356689 0.209389 0.106376 0
M  V30 38 C -0.715353 3.149595 -0.960660 0
M  V30 39 C 0.234065 2.134447 -1.058213 0
M  V30 40 O 3.810183 1.587951 -0.307481 0
M  V30 41 H 5.525642 -3.670687 6.034484 0
M  V30 42 H 4.530142 -2.137722 6.011894 0
M  V30 43 H 6.292548 -2.007314 5.771255 0
M  V30 44 H 6.721098 -1.002160 3.412565 0
M  V30 45 H 4.992727 -0.479284 3.504500 0
M  V30 46 H 6.174372 -1.976621 1.114725 0
M  V30 47 H 4.474883 -1.362883 1.375299 0
M  V30 48 H 5.459025 0.787105 1.836585 0
M  V30 49 H 6.412351 1.526892 -0.139924 0
M  V30 50 H 6.571303 -0.199546 -0.731411 0
M  V30 51 H 4.101436 -1.454255 -1.237118 0
M  V30 52 H 1.629011 -0.377309 -1.537467 0
M  V30 53 H 2.828512 3.960783 0.203038 0
M  V30 54 H 1.087293 5.682777 0.333914 0
M  V30 55 H -3.340009 5.903796 -0.680972 0
M  V30 56 H -2.501084 1.774628 -2.899513 0
M  V30 57 H -3.565053 -0.523934 -3.014547 0
M  V30 58 H -3.945505 -2.638958 -1.858315 0
M  V30 59 H -3.704937 -5.088329 1.416729 0
M  V30 60 H -3.255366 -4.944052 -0.277782 0
M  V30 61 H -5.744002 -4.312839 2.323890 0
M  V30 62 H -8.122355 -4.380605 2.126891 0
M  V30 63 H -9.195758 -4.533549 -0.035472 0
M  V30 64 H -5.277518 -4.559967 -1.868010 0
M  V30 65 H -1.916981 1.055019 0.577491 0
M  V30 66 H -0.041247 1.164085 -1.450053 0
M  V30 END ATOM
M  V30 BEGIN BOND
M  V30 1 1 1 2
M  V30 2 2 2 3
M  V30 3 2 2 4
M  V30 4 1 2 5
M  V30 5 1 5 6
M  V30 6 1 6 7
M  V30 7 1 7 8
M  V30 8 1 8 9
M  V30 9 2 9 10
M  V30 10 1 10 11
M  V30 11 2 11 12
M  V30 12 1 12 13
M  V30 13 2 13 14
M  V30 14 1 14 15
M  V30 15 2 15 16
M  V30 16 1 16 17
M  V30 17 2 17 18
M  V30 18 1 18 19
M  V30 19 2 19 20
M  V30 20 1 20 21
M  V30 21 1 21 22
M  V30 22 2 22 23
M  V30 23 1 23 24
M  V30 24 2 24 25
M  V30 25 1 25 26
M  V30 26 1 26 27
M  V30 27 1 27 28
M  V30 28 2 28 29
M  V30 29 1 29 30
M  V30 30 2 30 31
M  V30 31 1 31 32
M  V30 32 1 32 33
M  V30 33 2 32 34
M  V30 34 1 25 35
M  V30 35 1 35 36
M  V30 36 2 35 37
M  V30 37 1 20 38
M  V30 38 2 38 39
M  V30 39 1 12 40
M  V30 40 1 40 9
M  V30 41 1 39 13
M  V30 42 1 38 16
M  V30 43 1 37 22
M  V30 44 1 34 28
M  V30 45 1 1 41
M  V30 46 1 1 42
M  V30 47 1 1 43
M  V30 48 1 5 44
M  V30 49 1 5 45
M  V30 50 1 6 46
M  V30 51 1 6 47
M  V30 52 1 7 48
M  V30 53 1 8 49
M  V30 54 1 8 50
M  V30 55 1 10 51
M  V30 56 1 11 52
M  V30 57 1 14 53
M  V30 58 1 15 54
M  V30 59 1 18 55
M  V30 60 1 21 56
M  V30 61 1 23 57
M  V30 62 1 24 58
M  V30 63 1 27 59
M  V30 64 1 27 60
M  V30 65 1 29 61
M  V30 66 1 30 62
M  V30 67 1 31 63
M  V30 68 1 34 64
M  V30 69 1 37 65
M  V30 70 1 39 66
M  V30 END BOND
M  V30 END CTAB
M  END
>  <Dataset>  (100) 
PKIs

>  <Ligand_Instance>  (100) 
nan

>  <PDB_ID>  (100) 
nan

>  <Standardized_SMILES>  (100) 
CS(=O)(=O)CCNCc1ccc(-c2ccc3ncnc(Nc4ccc(OCc5cccc(F)c5)c(Cl)c4)c3c2)o1

>  <Name>  (100) 
Lapatinib

>  <Pocket>  (100) 
nan

>  <ATP_Site>  (100) 
nan

>  <Peripheral>  (100) 
nan

>  <Num_H_Atoms_ProtBoundConf>  (100) 
nan

>  <Num_Resolved_Atoms>  (100) 
nan

>  <Num_Not_Resolved_Atoms>  (100) 
nan

>  <2D_Mol_H>  (100) 
<rdkit.Chem.rdchem.Mol object at 0x72a239142b90>

>  <MW>  (100) 
581.069

>  <HBA>  (100) 
8

>  <HBD>  (100) 
2

>  <LogP>  (100) 
6.1391

>  <NRB>  (100) 
12

>  <TPSA>  (100) 
106.35

>  <Num_Heavy_Atoms>  (100) 
40

>  <Ro5>  (100) 
[False, True, True, False, False, True]

>  <Ro5_Fulfilled>  (100) 
False

>  <Ro3>  (100) 
[False, False, True, False]

>  <Ro3_Fulfilled>  (100) 
False

>  <Fsp3>  (100) 
0.172414

>  <Fsp3_0.42>  (100) 
False

>  <Fsp3_0.45>  (100) 
False

>  <Stereogenic_Carbons>  (100) 
0

>  <C_Atoms>  (100) 
29

>  <FCStereo>  (100) 
0.0

>  <SPS>  (100) 
463

>  <nSPS>  (100) 
11.575

>  <PBF>  (100) 
1.229188

>  <PBF_0.6>  (100) 
True

>  <nPBF>  (100) 
0.03073

>  <nPBF_0.016>  (100) 
True

>  <PMI1>  (100) 
6378.53498

>  <PMI2>  (100) 
12977.985212

>  <PMI3>  (100) 
17634.064244

>  <NPR1>  (100) 
0.361717

>  <NPR2>  (100) 
0.735961

>  <Sum_NPR>  (100) 
1.097678

>  <Sum_NPR_1.07>  (100) 
True

>  <Sum_NPR_1.2>  (100) 
False

>  <MaxAbsEStateIndex>  (100) 
13.430803

>  <MaxEStateIndex>  (100) 
13.430803

>  <MinAbsEStateIndex>  (100) 
0.066362

>  <MinEStateIndex>  (100) 
-3.018996

>  <qed>  (100) 
0.179479

>  <MolWt>  (100) 
581.069

>  <HeavyAtomMolWt>  (100) 
554.861

>  <ExactMolWt>  (100) 
580.134732

>  <NumValenceElectrons>  (100) 
206

>  <NumRadicalElectrons>  (100) 
0

>  <MaxPartialCharge>  (100) 
0.148205

>  <MinPartialCharge>  (100) 
-0.487344

>  <MaxAbsPartialCharge>  (100) 
0.487344

>  <MinAbsPartialCharge>  (100) 
0.148205

>  <FpDensityMorgan1>  (100) 
1.025

>  <FpDensityMorgan2>  (100) 
1.9

>  <FpDensityMorgan3>  (100) 
2.7

>  <BCUT2D_MWHI>  (100) 
35.495693

>  <BCUT2D_MWLOW>  (100) 
10.096909

>  <BCUT2D_CHGHI>  (100) 
2.114112

>  <BCUT2D_CHGLO>  (100) 
-2.121139

>  <BCUT2D_LOGPHI>  (100) 
2.324748

>  <BCUT2D_LOGPLOW>  (100) 
-2.211563

>  <BCUT2D_MRHI>  (100) 
7.902111

>  <BCUT2D_MRLOW>  (100) 
0.30558

>  <AvgIpc>  (100) 
3.392251

>  <BalabanJ>  (100) 
1.291877

>  <BertzCT>  (100) 
1760.581604

>  <Chi0>  (100) 
28.114309

>  <Chi0n>  (100) 
21.525578

>  <Chi0v>  (100) 
23.098004

>  <Chi1>  (100) 
19.231298

>  <Chi1n>  (100) 
12.395212

>  <Chi1v>  (100) 
14.83369

>  <Chi2n>  (100) 
9.215613

>  <Chi2v>  (100) 
11.882565

>  <Chi3n>  (100) 
6.008345

>  <Chi3v>  (100) 
7.24942

>  <Chi4n>  (100) 
4.026938

>  <Chi4v>  (100) 
4.777164

>  <HallKierAlpha>  (100) 
-3.99

>  <Ipc>  (100) 
1089671666.205477

>  <Kappa1>  (100) 
27.572125

>  <Kappa2>  (100) 
12.033713

>  <Kappa3>  (100) 
7.146807

>  <LabuteASA>  (100) 
235.650156

>  <PEOE_VSA1>  (100) 
19.787591

>  <PEOE_VSA10>  (100) 
51.676545

>  <PEOE_VSA11>  (100) 
0.0

>  <PEOE_VSA12>  (100) 
0.0

>  <PEOE_VSA13>  (100) 
0.0

>  <PEOE_VSA14>  (100) 
0.0

>  <PEOE_VSA2>  (100) 
0.0

>  <PEOE_VSA3>  (100) 
22.776169

>  <PEOE_VSA4>  (100) 
0.0

>  <PEOE_VSA5>  (100) 
0.0

>  <PEOE_VSA6>  (100) 
23.733674

>  <PEOE_VSA7>  (100) 
66.227122

>  <PEOE_VSA8>  (100) 
29.437588

>  <PEOE_VSA9>  (100) 
22.836944

>  <SMR_VSA1>  (100) 
21.962226

>  <SMR_VSA10>  (100) 
43.846367

>  <SMR_VSA2>  (100) 
0.0

>  <SMR_VSA3>  (100) 
15.284746

>  <SMR_VSA4>  (100) 
0.0

>  <SMR_VSA5>  (100) 
13.151638

>  <SMR_VSA6>  (100) 
23.870168

>  <SMR_VSA7>  (100) 
101.287278

>  <SMR_VSA8>  (100) 
0.0

>  <SMR_VSA9>  (100) 
17.073211

>  <SlogP_VSA1>  (100) 
15.37044

>  <SlogP_VSA10>  (100) 
15.895664

>  <SlogP_VSA11>  (100) 
5.749512

>  <SlogP_VSA12>  (100) 
11.60094

>  <SlogP_VSA2>  (100) 
36.939133

>  <SlogP_VSA3>  (100) 
22.988892

>  <SlogP_VSA4>  (100) 
5.817221

>  <SlogP_VSA5>  (100) 
11.323699

>  <SlogP_VSA6>  (100) 
83.540876

>  <SlogP_VSA7>  (100) 
5.022633

>  <SlogP_VSA8>  (100) 
22.226624

>  <SlogP_VSA9>  (100) 
0.0

>  <EState_VSA1>  (100) 
9.837253

>  <EState_VSA10>  (100) 
12.808212

>  <EState_VSA11>  (100) 
0.0

>  <EState_VSA2>  (100) 
18.176956

>  <EState_VSA3>  (100) 
52.450853

>  <EState_VSA4>  (100) 
16.466376

>  <EState_VSA5>  (100) 
24.715823

>  <EState_VSA6>  (100) 
24.265468

>  <EState_VSA7>  (100) 
36.398202

>  <EState_VSA8>  (100) 
20.601534

>  <EState_VSA9>  (100) 
20.754954

>  <VSA_EState1>  (100) 
47.770164

>  <VSA_EState10>  (100) 
6.467436

>  <VSA_EState2>  (100) 
8.796989

>  <VSA_EState3>  (100) 
7.555419

>  <VSA_EState4>  (100) 
2.991533

>  <VSA_EState5>  (100) 
2.172644

>  <VSA_EState6>  (100) 
20.978045

>  <VSA_EState7>  (100) 
2.69168

>  <VSA_EState8>  (100) 
0.956198

>  <VSA_EState9>  (100) 
-3.018996

>  <FractionCSP3>  (100) 
0.172414

>  <HeavyAtomCount>  (100) 
40

>  <NHOHCount>  (100) 
2

>  <NOCount>  (100) 
8

>  <NumAliphaticCarbocycles>  (100) 
0

>  <NumAliphaticHeterocycles>  (100) 
0

>  <NumAliphaticRings>  (100) 
0

>  <NumAromaticCarbocycles>  (100) 
3

>  <NumAromaticHeterocycles>  (100) 
2

>  <NumAromaticRings>  (100) 
5

>  <NumHAcceptors>  (100) 
8

>  <NumHDonors>  (100) 
2

>  <NumHeteroatoms>  (100) 
11

>  <NumRotatableBonds>  (100) 
11

>  <NumSaturatedCarbocycles>  (100) 
0

>  <NumSaturatedHeterocycles>  (100) 
0

>  <NumSaturatedRings>  (100) 
0

>  <RingCount>  (100) 
5

>  <MolLogP>  (100) 
6.1391

>  <MolMR>  (100) 
154.1242

>  <fr_Al_COO>  (100) 
0

>  <fr_Al_OH>  (100) 
0

>  <fr_Al_OH_noTert>  (100) 
0

>  <fr_ArN>  (100) 
0

>  <fr_Ar_COO>  (100) 
0

>  <fr_Ar_N>  (100) 
2

>  <fr_Ar_NH>  (100) 
0

>  <fr_Ar_OH>  (100) 
0

>  <fr_COO>  (100) 
0

>  <fr_COO2>  (100) 
0

>  <fr_C_O>  (100) 
0

>  <fr_C_O_noCOO>  (100) 
0

>  <fr_C_S>  (100) 
0

>  <fr_HOCCN>  (100) 
0

>  <fr_Imine>  (100) 
0

>  <fr_NH0>  (100) 
2

>  <fr_NH1>  (100) 
2

>  <fr_NH2>  (100) 
0

>  <fr_N_O>  (100) 
0

>  <fr_Ndealkylation1>  (100) 
0

>  <fr_Ndealkylation2>  (100) 
0

>  <fr_Nhpyrrole>  (100) 
0

>  <fr_SH>  (100) 
0

>  <fr_aldehyde>  (100) 
0

>  <fr_alkyl_carbamate>  (100) 
0

>  <fr_alkyl_halide>  (100) 
0

>  <fr_allylic_oxid>  (100) 
0

>  <fr_amide>  (100) 
0

>  <fr_amidine>  (100) 
0

>  <fr_aniline>  (100) 
2

>  <fr_aryl_methyl>  (100) 
0

>  <fr_azide>  (100) 
0

>  <fr_azo>  (100) 
0

>  <fr_barbitur>  (100) 
0

>  <fr_benzene>  (100) 
3

>  <fr_benzodiazepine>  (100) 
0

>  <fr_bicyclic>  (100) 
1

>  <fr_diazo>  (100) 
0

>  <fr_dihydropyridine>  (100) 
0

>  <fr_epoxide>  (100) 
0

>  <fr_ester>  (100) 
0

>  <fr_ether>  (100) 
1

>  <fr_furan>  (100) 
1

>  <fr_guanido>  (100) 
0

>  <fr_halogen>  (100) 
2

>  <fr_hdrzine>  (100) 
0

>  <fr_hdrzone>  (100) 
0

>  <fr_imidazole>  (100) 
0

>  <fr_imide>  (100) 
0

>  <fr_isocyan>  (100) 
0

>  <fr_isothiocyan>  (100) 
0

>  <fr_ketone>  (100) 
0

>  <fr_ketone_Topliss>  (100) 
0

>  <fr_lactam>  (100) 
0

>  <fr_lactone>  (100) 
0

>  <fr_methoxy>  (100) 
0

>  <fr_morpholine>  (100) 
0

>  <fr_nitrile>  (100) 
0

>  <fr_nitro>  (100) 
0

>  <fr_nitro_arom>  (100) 
0

>  <fr_nitro_arom_nonortho>  (100) 
0

>  <fr_nitroso>  (100) 
0

>  <fr_oxazole>  (100) 
0

>  <fr_oxime>  (100) 
0

>  <fr_para_hydroxylation>  (100) 
0

>  <fr_phenol>  (100) 
0

>  <fr_phenol_noOrthoHbond>  (100) 
0

>  <fr_phos_acid>  (100) 
0

>  <fr_phos_ester>  (100) 
0

>  <fr_piperdine>  (100) 
0

>  <fr_piperzine>  (100) 
0

>  <fr_priamide>  (100) 
0

>  <fr_prisulfonamd>  (100) 
0

>  <fr_pyridine>  (100) 
0

>  <fr_quatN>  (100) 
0

>  <fr_sulfide>  (100) 
0

>  <fr_sulfonamd>  (100) 
0

>  <fr_sulfone>  (100) 
1

>  <fr_term_acetylene>  (100) 
0

>  <fr_tetrazole>  (100) 
0

>  <fr_thiazole>  (100) 
0

>  <fr_thiocyan>  (100) 
0

>  <fr_thiophene>  (100) 
0

>  <fr_unbrch_alkane>  (100) 
0

>  <fr_urea>  (100) 
0

>  <NP_Likeness>  (100) 
-1.59317

$$$$
nan
     RDKit          3D

  0  0  0  0  0  0  0  0  0  0999 V3000
M  V30 BEGIN CTAB
M  V30 COUNTS 59 62 0 0 0
M  V30 BEGIN ATOM
M  V30 1 C 5.118715 -3.518302 2.876733 0
M  V30 2 C 3.686876 -3.154878 2.981906 0
M  V30 3 N 3.415763 -2.038973 3.695881 0
M  V30 4 C 2.135440 -1.612162 3.863153 0
M  V30 5 N 1.797722 -0.425742 4.594362 0
M  V30 6 C 1.381269 0.526473 3.547759 0
M  V30 7 N 0.237086 0.564033 3.352904 0
M  V30 8 C -0.453109 1.288965 2.498930 0
M  V30 9 C 0.261794 2.112391 1.732670 0
M  V30 10 C -0.030731 3.106333 0.637634 0
M  V30 11 O 0.941277 3.705971 0.131125 0
M  V30 12 N -1.389552 3.217949 0.336063 0
M  V30 13 C -1.627993 4.169335 -0.713683 0
M  V30 14 C -1.614282 3.498417 -1.940509 0
M  V30 15 C -1.409665 2.043689 -2.179153 0
M  V30 16 C -1.813857 4.195700 -3.124209 0
M  V30 17 C -2.026030 5.557190 -3.083878 0
M  V30 18 C -2.035689 6.194857 -1.870403 0
M  V30 19 C -1.841050 5.530697 -0.680791 0
M  V30 20 Cl -1.824440 6.178057 0.927927 0
M  V30 21 S 1.982421 1.776447 2.320137 0
M  V30 22 C 1.123259 -2.346853 3.285248 0
M  V30 23 C 1.411274 -3.478088 2.561257 0
M  V30 24 N 0.389045 -4.241460 1.942870 0
M  V30 25 C -1.014773 -3.978846 1.896224 0
M  V30 26 C -1.580029 -3.914008 0.493123 0
M  V30 27 N -0.729388 -4.383302 -0.530449 0
M  V30 28 C -0.371763 -3.422372 -1.510111 0
M  V30 29 C -1.549734 -3.043632 -2.343830 0
M  V30 30 O -1.173297 -2.089871 -3.315960 0
M  V30 31 C 0.228843 -5.373091 -0.222693 0
M  V30 32 C 0.628649 -5.469360 1.225681 0
M  V30 33 N 2.688800 -3.868448 2.419003 0
M  V30 34 H 5.775783 -2.629790 2.997764 0
M  V30 35 H 5.348190 -4.190097 3.742758 0
M  V30 36 H 5.365551 -4.043152 1.913188 0
M  V30 37 H 1.767854 -0.075918 5.571617 0
M  V30 38 H -1.535469 1.357644 2.281520 0
M  V30 39 H -2.140432 2.674745 0.817041 0
M  V30 40 H -1.480536 1.527673 -1.215808 0
M  V30 41 H -2.270898 1.632039 -2.785074 0
M  V30 42 H -0.462038 1.902452 -2.699239 0
M  V30 43 H -1.818894 3.761896 -4.115668 0
M  V30 44 H -2.183599 6.134457 -3.994572 0
M  V30 45 H -2.197565 7.270709 -1.749656 0
M  V30 46 H 0.113213 -1.989001 3.429424 0
M  V30 47 H -1.523469 -4.842648 2.420957 0
M  V30 48 H -1.290397 -3.021773 2.397669 0
M  V30 49 H -2.576198 -4.445457 0.461067 0
M  V30 50 H -1.857784 -2.853058 0.229569 0
M  V30 51 H 0.465179 -3.797546 -2.136437 0
M  V30 52 H 0.026658 -2.528155 -0.984121 0
M  V30 53 H -2.314664 -2.560718 -1.719499 0
M  V30 54 H -2.003291 -3.929534 -2.808009 0
M  V30 55 H -0.194043 -2.037866 -3.376811 0
M  V30 56 H -0.171561 -6.372895 -0.550013 0
M  V30 57 H 1.121980 -5.214872 -0.881450 0
M  V30 58 H 1.708007 -5.751931 1.261228 0
M  V30 59 H 0.054442 -6.299260 1.697176 0
M  V30 END ATOM
M  V30 BEGIN BOND
M  V30 1 1 1 2
M  V30 2 2 2 3
M  V30 3 1 3 4
M  V30 4 1 4 5
M  V30 5 1 5 6
M  V30 6 2 6 7
M  V30 7 1 7 8
M  V30 8 2 8 9
M  V30 9 1 9 10
M  V30 10 2 10 11
M  V30 11 1 10 12
M  V30 12 1 12 13
M  V30 13 2 13 14
M  V30 14 1 14 15
M  V30 15 1 14 16
M  V30 16 2 16 17
M  V30 17 1 17 18
M  V30 18 2 18 19
M  V30 19 1 19 20
M  V30 20 1 9 21
M  V30 21 2 4 22
M  V30 22 1 22 23
M  V30 23 1 23 24
M  V30 24 1 24 25
M  V30 25 1 25 26
M  V30 26 1 26 27
M  V30 27 1 27 28
M  V30 28 1 28 29
M  V30 29 1 29 30
M  V30 30 1 27 31
M  V30 31 1 31 32
M  V30 32 2 23 33
M  V30 33 1 33 2
M  V30 34 1 21 6
M  V30 35 1 32 24
M  V30 36 1 19 13
M  V30 37 1 1 34
M  V30 38 1 1 35
M  V30 39 1 1 36
M  V30 40 1 5 37
M  V30 41 1 8 38
M  V30 42 1 12 39
M  V30 43 1 15 40
M  V30 44 1 15 41
M  V30 45 1 15 42
M  V30 46 1 16 43
M  V30 47 1 17 44
M  V30 48 1 18 45
M  V30 49 1 22 46
M  V30 50 1 25 47
M  V30 51 1 25 48
M  V30 52 1 26 49
M  V30 53 1 26 50
M  V30 54 1 28 51
M  V30 55 1 28 52
M  V30 56 1 29 53
M  V30 57 1 29 54
M  V30 58 1 30 55
M  V30 59 1 31 56
M  V30 60 1 31 57
M  V30 61 1 32 58
M  V30 62 1 32 59
M  V30 END BOND
M  V30 END CTAB
M  END
>  <Dataset>  (101) 
PKIs

>  <Ligand_Instance>  (101) 
nan

>  <PDB_ID>  (101) 
nan

>  <Standardized_SMILES>  (101) 
Cc1nc(Nc2ncc(C(=O)Nc3c(C)cccc3Cl)s2)cc(N2CCN(CCO)CC2)n1

>  <Name>  (101) 
Dasatinib

>  <Pocket>  (101) 
nan

>  <ATP_Site>  (101) 
nan

>  <Peripheral>  (101) 
nan

>  <Num_H_Atoms_ProtBoundConf>  (101) 
nan

>  <Num_Resolved_Atoms>  (101) 
nan

>  <Num_Not_Resolved_Atoms>  (101) 
nan

>  <2D_Mol_H>  (101) 
<rdkit.Chem.rdchem.Mol object at 0x72a239142c70>

>  <MW>  (101) 
488.017

>  <HBA>  (101) 
9

>  <HBD>  (101) 
3

>  <LogP>  (101) 
3.31354

>  <NRB>  (101) 
10

>  <TPSA>  (101) 
106.51

>  <Num_Heavy_Atoms>  (101) 
33

>  <Ro5>  (101) 
[True, True, True, True, True, True]

>  <Ro5_Fulfilled>  (101) 
True

>  <Ro3>  (101) 
[False, False, True, False]

>  <Ro3_Fulfilled>  (101) 
False

>  <Fsp3>  (101) 
0.363636

>  <Fsp3_0.42>  (101) 
False

>  <Fsp3_0.45>  (101) 
False

>  <Stereogenic_Carbons>  (101) 
0

>  <C_Atoms>  (101) 
22

>  <FCStereo>  (101) 
0.0

>  <SPS>  (101) 
474

>  <nSPS>  (101) 
14.363636

>  <PBF>  (101) 
1.08258

>  <PBF_0.6>  (101) 
True

>  <nPBF>  (101) 
0.032805

>  <nPBF_0.016>  (101) 
True

>  <PMI1>  (101) 
3244.494464

>  <PMI2>  (101) 
8340.112549

>  <PMI3>  (101) 
10560.458739

>  <NPR1>  (101) 
0.30723

>  <NPR2>  (101) 
0.789749

>  <Sum_NPR>  (101) 
1.09698

>  <Sum_NPR_1.07>  (101) 
True

>  <Sum_NPR_1.2>  (101) 
False

>  <MaxAbsEStateIndex>  (101) 
12.693082

>  <MaxEStateIndex>  (101) 
12.693082

>  <MinAbsEStateIndex>  (101) 
0.173118

>  <MinEStateIndex>  (101) 
-0.266614

>  <qed>  (101) 
0.465717

>  <MolWt>  (101) 
488.017

>  <HeavyAtomMolWt>  (101) 
461.809

>  <ExactMolWt>  (101) 
487.155722

>  <NumValenceElectrons>  (101) 
174

>  <NumRadicalElectrons>  (101) 
0

>  <MaxPartialCharge>  (101) 
0.267

>  <MinPartialCharge>  (101) 
-0.395045

>  <MaxAbsPartialCharge>  (101) 
0.395045

>  <MinAbsPartialCharge>  (101) 
0.267

>  <FpDensityMorgan1>  (101) 
1.212121

>  <FpDensityMorgan2>  (101) 
2.0

>  <FpDensityMorgan3>  (101) 
2.727273

>  <BCUT2D_MWHI>  (101) 
35.495693

>  <BCUT2D_MWLOW>  (101) 
10.173623

>  <BCUT2D_CHGHI>  (101) 
2.191569

>  <BCUT2D_CHGLO>  (101) 
-2.347156

>  <BCUT2D_LOGPHI>  (101) 
2.281225

>  <BCUT2D_LOGPLOW>  (101) 
-2.470931

>  <BCUT2D_MRHI>  (101) 
7.171599

>  <BCUT2D_MRLOW>  (101) 
0.102546

>  <AvgIpc>  (101) 
3.250756

>  <BalabanJ>  (101) 
1.431593

>  <BertzCT>  (101) 
1111.432171

>  <Chi0>  (101) 
23.371668

>  <Chi0n>  (101) 
18.507135

>  <Chi0v>  (101) 
20.07956

>  <Chi1>  (101) 
15.923055

>  <Chi1n>  (101) 
10.658603

>  <Chi1v>  (101) 
11.853064

>  <Chi2n>  (101) 
7.751415

>  <Chi2v>  (101) 
9.189264

>  <Chi3n>  (101) 
5.361899

>  <Chi3v>  (101) 
6.588408

>  <Chi4n>  (101) 
3.63178

>  <Chi4v>  (101) 
4.619262

>  <HallKierAlpha>  (101) 
-2.79

>  <Ipc>  (101) 
33876609.8408

>  <Kappa1>  (101) 
23.370935

>  <Kappa2>  (101) 
10.42965

>  <Kappa3>  (101) 
5.772233

>  <LabuteASA>  (101) 
201.00196

>  <PEOE_VSA1>  (101) 
20.640014

>  <PEOE_VSA10>  (101) 
22.337277

>  <PEOE_VSA11>  (101) 
5.131558

>  <PEOE_VSA12>  (101) 
0.0

>  <PEOE_VSA13>  (101) 
5.90718

>  <PEOE_VSA14>  (101) 
0.0

>  <PEOE_VSA2>  (101) 
9.694447

>  <PEOE_VSA3>  (101) 
14.951936

>  <PEOE_VSA4>  (101) 
0.0

>  <PEOE_VSA5>  (101) 
0.0

>  <PEOE_VSA6>  (101) 
35.07046

>  <PEOE_VSA7>  (101) 
25.477293

>  <PEOE_VSA8>  (101) 
38.790149

>  <PEOE_VSA9>  (101) 
23.513745

>  <SMR_VSA1>  (101) 
9.901065

>  <SMR_VSA10>  (101) 
51.299576

>  <SMR_VSA2>  (101) 
0.0

>  <SMR_VSA3>  (101) 
19.851845

>  <SMR_VSA4>  (101) 
0.0

>  <SMR_VSA5>  (101) 
13.847474

>  <SMR_VSA6>  (101) 
54.864151

>  <SMR_VSA7>  (101) 
51.749948

>  <SMR_VSA8>  (101) 
0.0

>  <SMR_VSA9>  (101) 
0.0

>  <SlogP_VSA1>  (101) 
15.533487

>  <SlogP_VSA10>  (101) 
22.45467

>  <SlogP_VSA11>  (101) 
0.0

>  <SlogP_VSA12>  (101) 
22.937726

>  <SlogP_VSA2>  (101) 
70.196216

>  <SlogP_VSA3>  (101) 
0.0

>  <SlogP_VSA4>  (101) 
13.847474

>  <SlogP_VSA5>  (101) 
21.05954

>  <SlogP_VSA6>  (101) 
30.462312

>  <SlogP_VSA7>  (101) 
5.022633

>  <SlogP_VSA8>  (101) 
0.0

>  <SlogP_VSA9>  (101) 
0.0

>  <EState_VSA1>  (101) 
0.0

>  <EState_VSA10>  (101) 
4.794537

>  <EState_VSA11>  (101) 
0.0

>  <EState_VSA2>  (101) 
12.514062

>  <EState_VSA3>  (101) 
38.905749

>  <EState_VSA4>  (101) 
37.56034

>  <EState_VSA5>  (101) 
17.533629

>  <EState_VSA6>  (101) 
6.066367

>  <EState_VSA7>  (101) 
32.046576

>  <EState_VSA8>  (101) 
35.385332

>  <EState_VSA9>  (101) 
16.707467

>  <VSA_EState1>  (101) 
0.0

>  <VSA_EState10>  (101) 
7.457831

>  <VSA_EState2>  (101) 
30.975301

>  <VSA_EState3>  (101) 
16.245127

>  <VSA_EState4>  (101) 
1.48808

>  <VSA_EState5>  (101) 
1.851363

>  <VSA_EState6>  (101) 
7.367073

>  <VSA_EState7>  (101) 
1.531598

>  <VSA_EState8>  (101) 
8.028072

>  <VSA_EState9>  (101) 
0.0

>  <FractionCSP3>  (101) 
0.363636

>  <HeavyAtomCount>  (101) 
33

>  <NHOHCount>  (101) 
3

>  <NOCount>  (101) 
9

>  <NumAliphaticCarbocycles>  (101) 
0

>  <NumAliphaticHeterocycles>  (101) 
1

>  <NumAliphaticRings>  (101) 
1

>  <NumAromaticCarbocycles>  (101) 
1

>  <NumAromaticHeterocycles>  (101) 
2

>  <NumAromaticRings>  (101) 
3

>  <NumHAcceptors>  (101) 
9

>  <NumHDonors>  (101) 
3

>  <NumHeteroatoms>  (101) 
11

>  <NumRotatableBonds>  (101) 
7

>  <NumSaturatedCarbocycles>  (101) 
0

>  <NumSaturatedHeterocycles>  (101) 
1

>  <NumSaturatedRings>  (101) 
1

>  <RingCount>  (101) 
4

>  <MolLogP>  (101) 
3.31354

>  <MolMR>  (101) 
132.0467

>  <fr_Al_COO>  (101) 
0

>  <fr_Al_OH>  (101) 
1

>  <fr_Al_OH_noTert>  (101) 
1

>  <fr_ArN>  (101) 
0

>  <fr_Ar_COO>  (101) 
0

>  <fr_Ar_N>  (101) 
3

>  <fr_Ar_NH>  (101) 
0

>  <fr_Ar_OH>  (101) 
0

>  <fr_COO>  (101) 
0

>  <fr_COO2>  (101) 
0

>  <fr_C_O>  (101) 
1

>  <fr_C_O_noCOO>  (101) 
1

>  <fr_C_S>  (101) 
0

>  <fr_HOCCN>  (101) 
1

>  <fr_Imine>  (101) 
0

>  <fr_NH0>  (101) 
5

>  <fr_NH1>  (101) 
2

>  <fr_NH2>  (101) 
0

>  <fr_N_O>  (101) 
0

>  <fr_Ndealkylation1>  (101) 
0

>  <fr_Ndealkylation2>  (101) 
0

>  <fr_Nhpyrrole>  (101) 
0

>  <fr_SH>  (101) 
0

>  <fr_aldehyde>  (101) 
0

>  <fr_alkyl_carbamate>  (101) 
0

>  <fr_alkyl_halide>  (101) 
0

>  <fr_allylic_oxid>  (101) 
0

>  <fr_amide>  (101) 
1

>  <fr_amidine>  (101) 
0

>  <fr_aniline>  (101) 
4

>  <fr_aryl_methyl>  (101) 
2

>  <fr_azide>  (101) 
0

>  <fr_azo>  (101) 
0

>  <fr_barbitur>  (101) 
0

>  <fr_benzene>  (101) 
1

>  <fr_benzodiazepine>  (101) 
0

>  <fr_bicyclic>  (101) 
0

>  <fr_diazo>  (101) 
0

>  <fr_dihydropyridine>  (101) 
0

>  <fr_epoxide>  (101) 
0

>  <fr_ester>  (101) 
0

>  <fr_ether>  (101) 
0

>  <fr_furan>  (101) 
0

>  <fr_guanido>  (101) 
0

>  <fr_halogen>  (101) 
1

>  <fr_hdrzine>  (101) 
0

>  <fr_hdrzone>  (101) 
0

>  <fr_imidazole>  (101) 
0

>  <fr_imide>  (101) 
0

>  <fr_isocyan>  (101) 
0

>  <fr_isothiocyan>  (101) 
0

>  <fr_ketone>  (101) 
0

>  <fr_ketone_Topliss>  (101) 
0

>  <fr_lactam>  (101) 
0

>  <fr_lactone>  (101) 
0

>  <fr_methoxy>  (101) 
0

>  <fr_morpholine>  (101) 
0

>  <fr_nitrile>  (101) 
0

>  <fr_nitro>  (101) 
0

>  <fr_nitro_arom>  (101) 
0

>  <fr_nitro_arom_nonortho>  (101) 
0

>  <fr_nitroso>  (101) 
0

>  <fr_oxazole>  (101) 
0

>  <fr_oxime>  (101) 
0

>  <fr_para_hydroxylation>  (101) 
1

>  <fr_phenol>  (101) 
0

>  <fr_phenol_noOrthoHbond>  (101) 
0

>  <fr_phos_acid>  (101) 
0

>  <fr_phos_ester>  (101) 
0

>  <fr_piperdine>  (101) 
0

>  <fr_piperzine>  (101) 
1

>  <fr_priamide>  (101) 
0

>  <fr_prisulfonamd>  (101) 
0

>  <fr_pyridine>  (101) 
0

>  <fr_quatN>  (101) 
0

>  <fr_sulfide>  (101) 
0

>  <fr_sulfonamd>  (101) 
0

>  <fr_sulfone>  (101) 
0

>  <fr_term_acetylene>  (101) 
0

>  <fr_tetrazole>  (101) 
0

>  <fr_thiazole>  (101) 
1

>  <fr_thiocyan>  (101) 
0

>  <fr_thiophene>  (101) 
0

>  <fr_unbrch_alkane>  (101) 
0

>  <fr_urea>  (101) 
0

>  <NP_Likeness>  (101) 
-2.325401

$$$$
nan
     RDKit          3D

  0  0  0  0  0  0  0  0  0  0999 V3000
M  V30 BEGIN CTAB
M  V30 COUNTS 56 58 0 0 0
M  V30 BEGIN ATOM
M  V30 1 C 2.819446 0.374778 4.971716 0
M  V30 2 C 2.640093 0.780034 3.513621 0
M  V30 3 N 3.865800 1.015794 2.867150 0
M  V30 4 C 4.629628 2.151777 3.230041 0
M  V30 5 C 5.217769 2.108063 4.585875 0
M  V30 6 C 4.341044 0.196699 1.868749 0
M  V30 7 C 3.871733 0.101867 0.490654 0
M  V30 8 N 2.508362 -0.181275 0.231215 0
M  V30 9 C 1.232254 0.418191 0.364595 0
M  V30 10 O 1.351042 1.598815 0.855397 0
M  V30 11 C -0.100485 -0.059619 0.053664 0
M  V30 12 C -1.184482 0.782801 0.276167 0
M  V30 13 C -1.266369 2.181092 0.802089 0
M  V30 14 N -2.266615 0.067847 -0.097260 0
M  V30 15 C -1.992582 -1.164012 -0.544531 0
M  V30 16 C -2.816105 -2.246328 -1.055383 0
M  V30 17 C -3.753825 -2.248938 -1.972174 0
M  V30 18 C -4.184327 -1.102674 -2.715419 0
M  V30 19 O -3.701700 0.047336 -2.597691 0
M  V30 20 N -5.213084 -1.525838 -3.564531 0
M  V30 21 C -5.417314 -2.923240 -3.349811 0
M  V30 22 C -6.316626 -3.779416 -3.949030 0
M  V30 23 C -6.325220 -5.124394 -3.562374 0
M  V30 24 C -5.460529 -5.591454 -2.608293 0
M  V30 25 F -5.468386 -6.896348 -2.233550 0
M  V30 26 C -4.545040 -4.725671 -1.996635 0
M  V30 27 C -4.552680 -3.406972 -2.390560 0
M  V30 28 C -0.598319 -1.245267 -0.446888 0
M  V30 29 C 0.238850 -2.385109 -0.812103 0
M  V30 30 H 3.854100 0.035937 5.146879 0
M  V30 31 H 2.187300 -0.522715 5.210564 0
M  V30 32 H 2.466620 1.147829 5.682311 0
M  V30 33 H 2.145281 -0.084796 3.026704 0
M  V30 34 H 1.898787 1.613296 3.510960 0
M  V30 35 H 4.057458 3.100144 3.142887 0
M  V30 36 H 5.478081 2.232857 2.499283 0
M  V30 37 H 5.879946 1.237048 4.803569 0
M  V30 38 H 4.540649 2.288696 5.431610 0
M  V30 39 H 5.942874 2.985358 4.640249 0
M  V30 40 H 4.291612 -0.882291 2.285549 0
M  V30 41 H 5.490568 0.323199 1.864737 0
M  V30 42 H 4.182629 1.007661 -0.135115 0
M  V30 43 H 4.476420 -0.711920 -0.022807 0
M  V30 44 H 2.292727 -1.118909 -0.191624 0
M  V30 45 H -2.269139 2.596889 0.618125 0
M  V30 46 H -1.010815 2.111029 1.876367 0
M  V30 47 H -0.545689 2.830689 0.275035 0
M  V30 48 H -3.255155 0.449475 -0.025132 0
M  V30 49 H -2.597971 -3.215205 -0.575604 0
M  V30 50 H -5.695464 -0.858254 -4.216467 0
M  V30 51 H -7.009134 -3.435056 -4.703989 0
M  V30 52 H -7.042377 -5.756228 -4.055492 0
M  V30 53 H -3.870966 -5.106365 -1.247282 0
M  V30 54 H 0.751947 -2.898701 0.007096 0
M  V30 55 H 0.887899 -2.203882 -1.723877 0
M  V30 56 H -0.457014 -3.190187 -1.216389 0
M  V30 END ATOM
M  V30 BEGIN BOND
M  V30 1 1 1 2
M  V30 2 1 2 3
M  V30 3 1 3 4
M  V30 4 1 4 5
M  V30 5 1 3 6
M  V30 6 1 6 7
M  V30 7 1 7 8
M  V30 8 1 8 9
M  V30 9 2 9 10
M  V30 10 1 9 11
M  V30 11 2 11 12
M  V30 12 1 12 13
M  V30 13 1 12 14
M  V30 14 1 14 15
M  V30 15 1 15 16
M  V30 16 2 16 17
M  V30 17 1 17 18
M  V30 18 2 18 19
M  V30 19 1 18 20
M  V30 20 1 20 21
M  V30 21 2 21 22
M  V30 22 1 22 23
M  V30 23 2 23 24
M  V30 24 1 24 25
M  V30 25 1 24 26
M  V30 26 2 26 27
M  V30 27 2 15 28
M  V30 28 1 28 29
M  V30 29 1 28 11
M  V30 30 1 27 17
M  V30 31 1 27 21
M  V30 32 1 1 30
M  V30 33 1 1 31
M  V30 34 1 1 32
M  V30 35 1 2 33
M  V30 36 1 2 34
M  V30 37 1 4 35
M  V30 38 1 4 36
M  V30 39 1 5 37
M  V30 40 1 5 38
M  V30 41 1 5 39
M  V30 42 1 6 40
M  V30 43 1 6 41
M  V30 44 1 7 42
M  V30 45 1 7 43
M  V30 46 1 8 44
M  V30 47 1 13 45
M  V30 48 1 13 46
M  V30 49 1 13 47
M  V30 50 1 14 48
M  V30 51 1 16 49
M  V30 52 1 20 50
M  V30 53 1 22 51
M  V30 54 1 23 52
M  V30 55 1 26 53
M  V30 56 1 29 54
M  V30 57 1 29 55
M  V30 58 1 29 56
M  V30 END BOND
M  V30 END CTAB
M  END
>  <Dataset>  (102) 
PKIs

>  <Ligand_Instance>  (102) 
nan

>  <PDB_ID>  (102) 
nan

>  <Standardized_SMILES>  (102) 
CCN(CC)CCNC(=O)c1c(C)[nH]c(/C=C2\C(=O)Nc3ccc(F)cc32)c1C

>  <Name>  (102) 
Sunitinib

>  <Pocket>  (102) 
nan

>  <ATP_Site>  (102) 
nan

>  <Peripheral>  (102) 
nan

>  <Num_H_Atoms_ProtBoundConf>  (102) 
nan

>  <Num_Resolved_Atoms>  (102) 
nan

>  <Num_Not_Resolved_Atoms>  (102) 
nan

>  <2D_Mol_H>  (102) 
<rdkit.Chem.rdchem.Mol object at 0x72a239142d50>

>  <MW>  (102) 
398.482

>  <HBA>  (102) 
3

>  <HBD>  (102) 
3

>  <LogP>  (102) 
3.33494

>  <NRB>  (102) 
11

>  <TPSA>  (102) 
77.23

>  <Num_Heavy_Atoms>  (102) 
29

>  <Ro5>  (102) 
[True, True, True, True, False, True]

>  <Ro5_Fulfilled>  (102) 
True

>  <Ro3>  (102) 
[False, True, True, False]

>  <Ro3_Fulfilled>  (102) 
False

>  <Fsp3>  (102) 
0.363636

>  <Fsp3_0.42>  (102) 
False

>  <Fsp3_0.45>  (102) 
False

>  <Stereogenic_Carbons>  (102) 
0

>  <C_Atoms>  (102) 
22

>  <FCStereo>  (102) 
0.0

>  <SPS>  (102) 
418

>  <nSPS>  (102) 
14.413793

>  <PBF>  (102) 
0.968926

>  <PBF_0.6>  (102) 
True

>  <nPBF>  (102) 
0.033411

>  <nPBF_0.016>  (102) 
True

>  <PMI1>  (102) 
1174.352885

>  <PMI2>  (102) 
9581.305455

>  <PMI3>  (102) 
10096.396435

>  <NPR1>  (102) 
0.116314

>  <NPR2>  (102) 
0.948983

>  <Sum_NPR>  (102) 
1.065297

>  <Sum_NPR_1.07>  (102) 
False

>  <Sum_NPR_1.2>  (102) 
False

>  <MaxAbsEStateIndex>  (102) 
13.650463

>  <MaxEStateIndex>  (102) 
13.650463

>  <MinAbsEStateIndex>  (102) 
0.143172

>  <MinEStateIndex>  (102) 
-0.403882

>  <qed>  (102) 
0.626303

>  <MolWt>  (102) 
398.482

>  <HeavyAtomMolWt>  (102) 
371.266

>  <ExactMolWt>  (102) 
398.211804

>  <NumValenceElectrons>  (102) 
154

>  <NumRadicalElectrons>  (102) 
0

>  <MaxPartialCharge>  (102) 
0.255944

>  <MinPartialCharge>  (102) 
-0.358206

>  <MaxAbsPartialCharge>  (102) 
0.358206

>  <MinAbsPartialCharge>  (102) 
0.255944

>  <FpDensityMorgan1>  (102) 
1.241379

>  <FpDensityMorgan2>  (102) 
1.965517

>  <FpDensityMorgan3>  (102) 
2.655172

>  <BCUT2D_MWHI>  (102) 
19.142147

>  <BCUT2D_MWLOW>  (102) 
10.034318

>  <BCUT2D_CHGHI>  (102) 
2.256764

>  <BCUT2D_CHGLO>  (102) 
-2.175697

>  <BCUT2D_LOGPHI>  (102) 
2.339334

>  <BCUT2D_LOGPLOW>  (102) 
-2.346442

>  <BCUT2D_MRHI>  (102) 
6.344824

>  <BCUT2D_MRLOW>  (102) 
-0.110331

>  <AvgIpc>  (102) 
3.142801

>  <BalabanJ>  (102) 
1.833512

>  <BertzCT>  (102) 
973.432151

>  <Chi0>  (102) 
21.129028

>  <Chi0n>  (102) 
17.279503

>  <Chi0v>  (102) 
17.279503

>  <Chi1>  (102) 
13.849774

>  <Chi1n>  (102) 
9.879065

>  <Chi1v>  (102) 
9.879065

>  <Chi2n>  (102) 
7.148501

>  <Chi2v>  (102) 
7.148501

>  <Chi3n>  (102) 
5.364539

>  <Chi3v>  (102) 
5.364539

>  <Chi4n>  (102) 
3.662779

>  <Chi4v>  (102) 
3.662779

>  <HallKierAlpha>  (102) 
-2.93

>  <Ipc>  (102) 
3245583.099673

>  <Kappa1>  (102) 
20.795285

>  <Kappa2>  (102) 
8.61107

>  <Kappa3>  (102) 
4.244127

>  <LabuteASA>  (102) 
169.729667

>  <PEOE_VSA1>  (102) 
20.517465

>  <PEOE_VSA10>  (102) 
5.817221

>  <PEOE_VSA11>  (102) 
0.0

>  <PEOE_VSA12>  (102) 
0.0

>  <PEOE_VSA13>  (102) 
11.814359

>  <PEOE_VSA14>  (102) 
0.0

>  <PEOE_VSA2>  (102) 
9.589074

>  <PEOE_VSA3>  (102) 
4.390415

>  <PEOE_VSA4>  (102) 
0.0

>  <PEOE_VSA5>  (102) 
0.0

>  <PEOE_VSA6>  (102) 
13.847474

>  <PEOE_VSA7>  (102) 
56.77556

>  <PEOE_VSA8>  (102) 
35.728207

>  <PEOE_VSA9>  (102) 
11.136556

>  <SMR_VSA1>  (102) 
13.979489

>  <SMR_VSA10>  (102) 
29.15087

>  <SMR_VSA2>  (102) 
0.0

>  <SMR_VSA3>  (102) 
15.200677

>  <SMR_VSA4>  (102) 
0.0

>  <SMR_VSA5>  (102) 
27.694949

>  <SMR_VSA6>  (102) 
31.495814

>  <SMR_VSA7>  (102) 
52.094533

>  <SMR_VSA8>  (102) 
0.0

>  <SMR_VSA9>  (102) 
0.0

>  <SlogP_VSA1>  (102) 
10.633577

>  <SlogP_VSA10>  (102) 
10.077801

>  <SlogP_VSA11>  (102) 
0.0

>  <SlogP_VSA12>  (102) 
0.0

>  <SlogP_VSA2>  (102) 
47.877273

>  <SlogP_VSA3>  (102) 
4.794537

>  <SlogP_VSA4>  (102) 
19.664695

>  <SlogP_VSA5>  (102) 
46.720222

>  <SlogP_VSA6>  (102) 
18.199101

>  <SlogP_VSA7>  (102) 
0.0

>  <SlogP_VSA8>  (102) 
11.649125

>  <SlogP_VSA9>  (102) 
0.0

>  <EState_VSA1>  (102) 
5.817221

>  <EState_VSA10>  (102) 
13.979489

>  <EState_VSA11>  (102) 
0.0

>  <EState_VSA2>  (102) 
11.814359

>  <EState_VSA3>  (102) 
34.626078

>  <EState_VSA4>  (102) 
30.891649

>  <EState_VSA5>  (102) 
12.132734

>  <EState_VSA6>  (102) 
12.142387

>  <EState_VSA7>  (102) 
13.847474

>  <EState_VSA8>  (102) 
34.36494

>  <EState_VSA9>  (102) 
0.0

>  <VSA_EState1>  (102) 
13.650463

>  <VSA_EState10>  (102) 
0.0

>  <VSA_EState2>  (102) 
30.474646

>  <VSA_EState3>  (102) 
5.704781

>  <VSA_EState4>  (102) 
4.204299

>  <VSA_EState5>  (102) 
-0.836427

>  <VSA_EState6>  (102) 
4.197186

>  <VSA_EState7>  (102) 
1.676211

>  <VSA_EState8>  (102) 
11.095507

>  <VSA_EState9>  (102) 
0.0

>  <FractionCSP3>  (102) 
0.363636

>  <HeavyAtomCount>  (102) 
29

>  <NHOHCount>  (102) 
3

>  <NOCount>  (102) 
6

>  <NumAliphaticCarbocycles>  (102) 
0

>  <NumAliphaticHeterocycles>  (102) 
1

>  <NumAliphaticRings>  (102) 
1

>  <NumAromaticCarbocycles>  (102) 
1

>  <NumAromaticHeterocycles>  (102) 
1

>  <NumAromaticRings>  (102) 
2

>  <NumHAcceptors>  (102) 
3

>  <NumHDonors>  (102) 
3

>  <NumHeteroatoms>  (102) 
7

>  <NumRotatableBonds>  (102) 
7

>  <NumSaturatedCarbocycles>  (102) 
0

>  <NumSaturatedHeterocycles>  (102) 
0

>  <NumSaturatedRings>  (102) 
0

>  <RingCount>  (102) 
3

>  <MolLogP>  (102) 
3.33494

>  <MolMR>  (102) 
113.2886

>  <fr_Al_COO>  (102) 
0

>  <fr_Al_OH>  (102) 
0

>  <fr_Al_OH_noTert>  (102) 
0

>  <fr_ArN>  (102) 
0

>  <fr_Ar_COO>  (102) 
0

>  <fr_Ar_N>  (102) 
1

>  <fr_Ar_NH>  (102) 
1

>  <fr_Ar_OH>  (102) 
0

>  <fr_COO>  (102) 
0

>  <fr_COO2>  (102) 
0

>  <fr_C_O>  (102) 
2

>  <fr_C_O_noCOO>  (102) 
2

>  <fr_C_S>  (102) 
0

>  <fr_HOCCN>  (102) 
0

>  <fr_Imine>  (102) 
0

>  <fr_NH0>  (102) 
1

>  <fr_NH1>  (102) 
3

>  <fr_NH2>  (102) 
0

>  <fr_N_O>  (102) 
0

>  <fr_Ndealkylation1>  (102) 
1

>  <fr_Ndealkylation2>  (102) 
0

>  <fr_Nhpyrrole>  (102) 
1

>  <fr_SH>  (102) 
0

>  <fr_aldehyde>  (102) 
0

>  <fr_alkyl_carbamate>  (102) 
0

>  <fr_alkyl_halide>  (102) 
0

>  <fr_allylic_oxid>  (102) 
0

>  <fr_amide>  (102) 
2

>  <fr_amidine>  (102) 
0

>  <fr_aniline>  (102) 
1

>  <fr_aryl_methyl>  (102) 
1

>  <fr_azide>  (102) 
0

>  <fr_azo>  (102) 
0

>  <fr_barbitur>  (102) 
0

>  <fr_benzene>  (102) 
1

>  <fr_benzodiazepine>  (102) 
0

>  <fr_bicyclic>  (102) 
1

>  <fr_diazo>  (102) 
0

>  <fr_dihydropyridine>  (102) 
0

>  <fr_epoxide>  (102) 
0

>  <fr_ester>  (102) 
0

>  <fr_ether>  (102) 
0

>  <fr_furan>  (102) 
0

>  <fr_guanido>  (102) 
0

>  <fr_halogen>  (102) 
1

>  <fr_hdrzine>  (102) 
0

>  <fr_hdrzone>  (102) 
0

>  <fr_imidazole>  (102) 
0

>  <fr_imide>  (102) 
0

>  <fr_isocyan>  (102) 
0

>  <fr_isothiocyan>  (102) 
0

>  <fr_ketone>  (102) 
0

>  <fr_ketone_Topliss>  (102) 
0

>  <fr_lactam>  (102) 
0

>  <fr_lactone>  (102) 
0

>  <fr_methoxy>  (102) 
0

>  <fr_morpholine>  (102) 
0

>  <fr_nitrile>  (102) 
0

>  <fr_nitro>  (102) 
0

>  <fr_nitro_arom>  (102) 
0

>  <fr_nitro_arom_nonortho>  (102) 
0

>  <fr_nitroso>  (102) 
0

>  <fr_oxazole>  (102) 
0

>  <fr_oxime>  (102) 
0

>  <fr_para_hydroxylation>  (102) 
0

>  <fr_phenol>  (102) 
0

>  <fr_phenol_noOrthoHbond>  (102) 
0

>  <fr_phos_acid>  (102) 
0

>  <fr_phos_ester>  (102) 
0

>  <fr_piperdine>  (102) 
0

>  <fr_piperzine>  (102) 
0

>  <fr_priamide>  (102) 
0

>  <fr_prisulfonamd>  (102) 
0

>  <fr_pyridine>  (102) 
0

>  <fr_quatN>  (102) 
0

>  <fr_sulfide>  (102) 
0

>  <fr_sulfonamd>  (102) 
0

>  <fr_sulfone>  (102) 
0

>  <fr_term_acetylene>  (102) 
0

>  <fr_tetrazole>  (102) 
0

>  <fr_thiazole>  (102) 
0

>  <fr_thiocyan>  (102) 
0

>  <fr_thiophene>  (102) 
0

>  <fr_unbrch_alkane>  (102) 
0

>  <fr_urea>  (102) 
0

>  <NP_Likeness>  (102) 
-1.208086

$$$$
nan
     RDKit          3D

  0  0  0  0  0  0  0  0  0  0999 V3000
M  V30 BEGIN CTAB
M  V30 COUNTS 48 50 0 0 0
M  V30 BEGIN ATOM
M  V30 1 C 4.315036 -6.496825 0.376273 0
M  V30 2 N 3.545406 -5.792523 1.385601 0
M  V30 3 C 3.613716 -4.425489 1.728570 0
M  V30 4 O 4.406889 -3.649976 1.142665 0
M  V30 5 C 2.723755 -3.928984 2.799486 0
M  V30 6 C 2.783884 -2.600743 3.139137 0
M  V30 7 C 1.981298 -2.071393 4.129564 0
M  V30 8 O 2.039509 -0.710049 4.481212 0
M  V30 9 C 1.212315 0.219832 3.829007 0
M  V30 10 C 1.835091 0.750714 2.694117 0
M  V30 11 C 1.145363 1.686327 1.938612 0
M  V30 12 C -0.124658 2.053999 2.337364 0
M  V30 13 N -0.787036 3.020192 1.522459 0
M  V30 14 C -1.565415 2.448604 0.459969 0
M  V30 15 O -1.546030 1.188742 0.408140 0
M  V30 16 N -2.312779 3.166246 -0.482364 0
M  V30 17 C -3.053456 2.472183 -1.502619 0
M  V30 18 C -4.357422 2.020659 -1.451777 0
M  V30 19 C -4.864911 1.374471 -2.559907 0
M  V30 20 C -4.106780 1.180223 -3.684555 0
M  V30 21 Cl -4.861053 0.347671 -5.024987 0
M  V30 22 C -2.790705 1.627488 -3.756132 0
M  V30 23 C -2.023209 1.384448 -5.005862 0
M  V30 24 F -1.955549 0.011540 -5.226837 0
M  V30 25 F -2.618016 1.975506 -6.077941 0
M  V30 26 F -0.738093 1.880540 -4.768982 0
M  V30 27 C -2.286352 2.279300 -2.631792 0
M  V30 28 C -0.742888 1.532394 3.456833 0
M  V30 29 C -0.059115 0.600591 4.211454 0
M  V30 30 C 1.101089 -2.904953 4.787949 0
M  V30 31 C 1.082307 -4.230419 4.406365 0
M  V30 32 N 1.868899 -4.719230 3.444749 0
M  V30 33 H 5.210589 -6.988175 0.756417 0
M  V30 34 H 3.653114 -7.217216 -0.156198 0
M  V30 35 H 4.659340 -5.695843 -0.329019 0
M  V30 36 H 2.868745 -6.403970 1.900630 0
M  V30 37 H 3.450274 -1.937130 2.650532 0
M  V30 38 H 2.819228 0.491873 2.350691 0
M  V30 39 H 1.617738 2.116512 1.041463 0
M  V30 40 H -0.807796 4.078780 1.560138 0
M  V30 41 H -2.299646 4.219522 -0.400303 0
M  V30 42 H -4.849512 2.234392 -0.511659 0
M  V30 43 H -5.895710 1.050858 -2.439845 0
M  V30 44 H -1.255274 2.593773 -2.774038 0
M  V30 45 H -1.730388 1.823279 3.760277 0
M  V30 46 H -0.437666 0.125756 5.102247 0
M  V30 47 H 0.486568 -2.465280 5.556692 0
M  V30 48 H 0.393330 -4.885433 4.920931 0
M  V30 END ATOM
M  V30 BEGIN BOND
M  V30 1 1 1 2
M  V30 2 1 2 3
M  V30 3 2 3 4
M  V30 4 1 3 5
M  V30 5 2 5 6
M  V30 6 1 6 7
M  V30 7 1 7 8
M  V30 8 1 8 9
M  V30 9 2 9 10
M  V30 10 1 10 11
M  V30 11 2 11 12
M  V30 12 1 12 13
M  V30 13 1 13 14
M  V30 14 2 14 15
M  V30 15 1 14 16
M  V30 16 1 16 17
M  V30 17 2 17 18
M  V30 18 1 18 19
M  V30 19 2 19 20
M  V30 20 1 20 21
M  V30 21 1 20 22
M  V30 22 1 22 23
M  V30 23 1 23 24
M  V30 24 1 23 25
M  V30 25 1 23 26
M  V30 26 2 22 27
M  V30 27 1 12 28
M  V30 28 2 28 29
M  V30 29 2 7 30
M  V30 30 1 30 31
M  V30 31 2 31 32
M  V30 32 1 32 5
M  V30 33 1 29 9
M  V30 34 1 27 17
M  V30 35 1 1 33
M  V30 36 1 1 34
M  V30 37 1 1 35
M  V30 38 1 2 36
M  V30 39 1 6 37
M  V30 40 1 10 38
M  V30 41 1 11 39
M  V30 42 1 13 40
M  V30 43 1 16 41
M  V30 44 1 18 42
M  V30 45 1 19 43
M  V30 46 1 27 44
M  V30 47 1 28 45
M  V30 48 1 29 46
M  V30 49 1 30 47
M  V30 50 1 31 48
M  V30 END BOND
M  V30 END CTAB
M  END
>  <Dataset>  (103) 
PKIs

>  <Ligand_Instance>  (103) 
nan

>  <PDB_ID>  (103) 
nan

>  <Standardized_SMILES>  (103) 
CNC(=O)c1cc(Oc2ccc(NC(=O)Nc3ccc(Cl)c(C(F)(F)F)c3)cc2)ccn1

>  <Name>  (103) 
Sorafenib

>  <Pocket>  (103) 
nan

>  <ATP_Site>  (103) 
nan

>  <Peripheral>  (103) 
nan

>  <Num_H_Atoms_ProtBoundConf>  (103) 
nan

>  <Num_Resolved_Atoms>  (103) 
nan

>  <Num_Not_Resolved_Atoms>  (103) 
nan

>  <2D_Mol_H>  (103) 
<rdkit.Chem.rdchem.Mol object at 0x72a239142e30>

>  <MW>  (103) 
464.831

>  <HBA>  (103) 
4

>  <HBD>  (103) 
3

>  <LogP>  (103) 
5.5497

>  <NRB>  (103) 
6

>  <TPSA>  (103) 
92.35

>  <Num_Heavy_Atoms>  (103) 
32

>  <Ro5>  (103) 
[True, True, True, False, True, True]

>  <Ro5_Fulfilled>  (103) 
True

>  <Ro3>  (103) 
[False, False, True, False]

>  <Ro3_Fulfilled>  (103) 
False

>  <Fsp3>  (103) 
0.095238

>  <Fsp3_0.42>  (103) 
False

>  <Fsp3_0.45>  (103) 
False

>  <Stereogenic_Carbons>  (103) 
0

>  <C_Atoms>  (103) 
21

>  <FCStereo>  (103) 
0.0

>  <SPS>  (103) 
349

>  <nSPS>  (103) 
10.90625

>  <PBF>  (103) 
1.145717

>  <PBF_0.6>  (103) 
True

>  <nPBF>  (103) 
0.035804

>  <nPBF_0.016>  (103) 
True

>  <PMI1>  (103) 
3254.859016

>  <PMI2>  (103) 
10375.965382

>  <PMI3>  (103) 
12282.986103

>  <NPR1>  (103) 
0.264989

>  <NPR2>  (103) 
0.844743

>  <Sum_NPR>  (103) 
1.109732

>  <Sum_NPR_1.07>  (103) 
True

>  <Sum_NPR_1.2>  (103) 
False

>  <MaxAbsEStateIndex>  (103) 
12.938877

>  <MaxEStateIndex>  (103) 
12.938877

>  <MinAbsEStateIndex>  (103) 
0.065939

>  <MinEStateIndex>  (103) 
-4.641865

>  <qed>  (103) 
0.46134

>  <MolWt>  (103) 
464.831

>  <HeavyAtomMolWt>  (103) 
448.703

>  <ExactMolWt>  (103) 
464.086303

>  <NumValenceElectrons>  (103) 
166

>  <NumRadicalElectrons>  (103) 
0

>  <MaxPartialCharge>  (103) 
0.417418

>  <MinPartialCharge>  (103) 
-0.457237

>  <MaxAbsPartialCharge>  (103) 
0.457237

>  <MinAbsPartialCharge>  (103) 
0.417418

>  <FpDensityMorgan1>  (103) 
0.9375

>  <FpDensityMorgan2>  (103) 
1.59375

>  <FpDensityMorgan3>  (103) 
2.25

>  <BCUT2D_MWHI>  (103) 
35.495692

>  <BCUT2D_MWLOW>  (103) 
10.164254

>  <BCUT2D_CHGHI>  (103) 
2.33022

>  <BCUT2D_CHGLO>  (103) 
-2.124365

>  <BCUT2D_LOGPHI>  (103) 
2.35797

>  <BCUT2D_LOGPLOW>  (103) 
-2.194867

>  <BCUT2D_MRHI>  (103) 
6.311336

>  <BCUT2D_MRLOW>  (103) 
-0.136997

>  <AvgIpc>  (103) 
2.750351

>  <BalabanJ>  (103) 
1.624438

>  <BertzCT>  (103) 
1137.878945

>  <Chi0>  (103) 
23.302754

>  <Chi0n>  (103) 
16.457319

>  <Chi0v>  (103) 
17.213248

>  <Chi1>  (103) 
15.151217

>  <Chi1n>  (103) 
9.062991

>  <Chi1v>  (103) 
9.440956

>  <Chi2n>  (103) 
6.353857

>  <Chi2v>  (103) 
6.761057

>  <Chi3n>  (103) 
4.068619

>  <Chi3v>  (103) 
4.398207

>  <Chi4n>  (103) 
2.582988

>  <Chi4v>  (103) 
2.807679

>  <HallKierAlpha>  (103) 
-3.79

>  <Ipc>  (103) 
9882757.490846

>  <Kappa1>  (103) 
22.885411

>  <Kappa2>  (103) 
9.563603

>  <Kappa3>  (103) 
5.88337

>  <LabuteASA>  (103) 
185.111056

>  <PEOE_VSA1>  (103) 
20.687229

>  <PEOE_VSA10>  (103) 
17.192952

>  <PEOE_VSA11>  (103) 
0.0

>  <PEOE_VSA12>  (103) 
0.0

>  <PEOE_VSA13>  (103) 
5.90718

>  <PEOE_VSA14>  (103) 
12.207413

>  <PEOE_VSA2>  (103) 
9.778516

>  <PEOE_VSA3>  (103) 
4.794537

>  <PEOE_VSA4>  (103) 
13.171245

>  <PEOE_VSA5>  (103) 
0.0

>  <PEOE_VSA6>  (103) 
11.60094

>  <PEOE_VSA7>  (103) 
48.530937

>  <PEOE_VSA8>  (103) 
30.685655

>  <PEOE_VSA9>  (103) 
10.586085

>  <SMR_VSA1>  (103) 
27.497182

>  <SMR_VSA10>  (103) 
34.914007

>  <SMR_VSA2>  (103) 
0.0

>  <SMR_VSA3>  (103) 
10.300767

>  <SMR_VSA4>  (103) 
0.0

>  <SMR_VSA5>  (103) 
6.176299

>  <SMR_VSA6>  (103) 
17.681249

>  <SMR_VSA7>  (103) 
77.07416

>  <SMR_VSA8>  (103) 
0.0

>  <SMR_VSA9>  (103) 
11.499024

>  <SlogP_VSA1>  (103) 
20.687229

>  <SlogP_VSA10>  (103) 
29.340555

>  <SlogP_VSA11>  (103) 
11.499024

>  <SlogP_VSA12>  (103) 
11.60094

>  <SlogP_VSA2>  (103) 
23.969945

>  <SlogP_VSA3>  (103) 
6.176299

>  <SlogP_VSA4>  (103) 
0.0

>  <SlogP_VSA5>  (103) 
16.051917

>  <SlogP_VSA6>  (103) 
60.794147

>  <SlogP_VSA7>  (103) 
5.022633

>  <SlogP_VSA8>  (103) 
0.0

>  <SlogP_VSA9>  (103) 
0.0

>  <EState_VSA1>  (103) 
22.793498

>  <EState_VSA10>  (103) 
22.76032

>  <EState_VSA11>  (103) 
0.0

>  <EState_VSA2>  (103) 
17.288494

>  <EState_VSA3>  (103) 
17.18641

>  <EState_VSA4>  (103) 
12.132734

>  <EState_VSA5>  (103) 
25.37725

>  <EState_VSA6>  (103) 
30.331835

>  <EState_VSA7>  (103) 
0.0

>  <EState_VSA8>  (103) 
20.934344

>  <EState_VSA9>  (103) 
16.337803

>  <VSA_EState1>  (103) 
44.474804

>  <VSA_EState10>  (103) 
5.568015

>  <VSA_EState2>  (103) 
27.704457

>  <VSA_EState3>  (103) 
6.82607

>  <VSA_EState4>  (103) 
-0.546837

>  <VSA_EState5>  (103) 
0.460043

>  <VSA_EState6>  (103) 
11.597059

>  <VSA_EState7>  (103) 
-3.210188

>  <VSA_EState8>  (103) 
0.0

>  <VSA_EState9>  (103) 
1.487689

>  <FractionCSP3>  (103) 
0.095238

>  <HeavyAtomCount>  (103) 
32

>  <NHOHCount>  (103) 
3

>  <NOCount>  (103) 
7

>  <NumAliphaticCarbocycles>  (103) 
0

>  <NumAliphaticHeterocycles>  (103) 
0

>  <NumAliphaticRings>  (103) 
0

>  <NumAromaticCarbocycles>  (103) 
2

>  <NumAromaticHeterocycles>  (103) 
1

>  <NumAromaticRings>  (103) 
3

>  <NumHAcceptors>  (103) 
4

>  <NumHDonors>  (103) 
3

>  <NumHeteroatoms>  (103) 
11

>  <NumRotatableBonds>  (103) 
5

>  <NumSaturatedCarbocycles>  (103) 
0

>  <NumSaturatedHeterocycles>  (103) 
0

>  <NumSaturatedRings>  (103) 
0

>  <RingCount>  (103) 
3

>  <MolLogP>  (103) 
5.5497

>  <MolMR>  (103) 
113.2386

>  <fr_Al_COO>  (103) 
0

>  <fr_Al_OH>  (103) 
0

>  <fr_Al_OH_noTert>  (103) 
0

>  <fr_ArN>  (103) 
0

>  <fr_Ar_COO>  (103) 
0

>  <fr_Ar_N>  (103) 
1

>  <fr_Ar_NH>  (103) 
0

>  <fr_Ar_OH>  (103) 
0

>  <fr_COO>  (103) 
0

>  <fr_COO2>  (103) 
0

>  <fr_C_O>  (103) 
2

>  <fr_C_O_noCOO>  (103) 
2

>  <fr_C_S>  (103) 
0

>  <fr_HOCCN>  (103) 
0

>  <fr_Imine>  (103) 
0

>  <fr_NH0>  (103) 
1

>  <fr_NH1>  (103) 
3

>  <fr_NH2>  (103) 
0

>  <fr_N_O>  (103) 
0

>  <fr_Ndealkylation1>  (103) 
0

>  <fr_Ndealkylation2>  (103) 
0

>  <fr_Nhpyrrole>  (103) 
0

>  <fr_SH>  (103) 
0

>  <fr_aldehyde>  (103) 
0

>  <fr_alkyl_carbamate>  (103) 
0

>  <fr_alkyl_halide>  (103) 
3

>  <fr_allylic_oxid>  (103) 
0

>  <fr_amide>  (103) 
3

>  <fr_amidine>  (103) 
0

>  <fr_aniline>  (103) 
2

>  <fr_aryl_methyl>  (103) 
0

>  <fr_azide>  (103) 
0

>  <fr_azo>  (103) 
0

>  <fr_barbitur>  (103) 
0

>  <fr_benzene>  (103) 
2

>  <fr_benzodiazepine>  (103) 
0

>  <fr_bicyclic>  (103) 
0

>  <fr_diazo>  (103) 
0

>  <fr_dihydropyridine>  (103) 
0

>  <fr_epoxide>  (103) 
0

>  <fr_ester>  (103) 
0

>  <fr_ether>  (103) 
1

>  <fr_furan>  (103) 
0

>  <fr_guanido>  (103) 
0

>  <fr_halogen>  (103) 
4

>  <fr_hdrzine>  (103) 
0

>  <fr_hdrzone>  (103) 
0

>  <fr_imidazole>  (103) 
0

>  <fr_imide>  (103) 
0

>  <fr_isocyan>  (103) 
0

>  <fr_isothiocyan>  (103) 
0

>  <fr_ketone>  (103) 
0

>  <fr_ketone_Topliss>  (103) 
0

>  <fr_lactam>  (103) 
0

>  <fr_lactone>  (103) 
0

>  <fr_methoxy>  (103) 
0

>  <fr_morpholine>  (103) 
0

>  <fr_nitrile>  (103) 
0

>  <fr_nitro>  (103) 
0

>  <fr_nitro_arom>  (103) 
0

>  <fr_nitro_arom_nonortho>  (103) 
0

>  <fr_nitroso>  (103) 
0

>  <fr_oxazole>  (103) 
0

>  <fr_oxime>  (103) 
0

>  <fr_para_hydroxylation>  (103) 
0

>  <fr_phenol>  (103) 
0

>  <fr_phenol_noOrthoHbond>  (103) 
0

>  <fr_phos_acid>  (103) 
0

>  <fr_phos_ester>  (103) 
0

>  <fr_piperdine>  (103) 
0

>  <fr_piperzine>  (103) 
0

>  <fr_priamide>  (103) 
0

>  <fr_prisulfonamd>  (103) 
0

>  <fr_pyridine>  (103) 
1

>  <fr_quatN>  (103) 
0

>  <fr_sulfide>  (103) 
0

>  <fr_sulfonamd>  (103) 
0

>  <fr_sulfone>  (103) 
0

>  <fr_term_acetylene>  (103) 
0

>  <fr_tetrazole>  (103) 
0

>  <fr_thiazole>  (103) 
0

>  <fr_thiocyan>  (103) 
0

>  <fr_thiophene>  (103) 
0

>  <fr_unbrch_alkane>  (103) 
0

>  <fr_urea>  (103) 
1

>  <NP_Likeness>  (103) 
-1.45626

$$$$
nan
     RDKit          3D

  0  0  0  0  0  0  0  0  0  0999 V3000
M  V30 BEGIN CTAB
M  V30 COUNTS 52 54 0 0 0
M  V30 BEGIN ATOM
M  V30 1 C 2.250867 -5.200965 -1.641162 0
M  V30 2 C 1.876404 -4.218975 -2.199057 0
M  V30 3 C 1.403869 -3.033563 -2.858733 0
M  V30 4 C 0.728686 -3.044969 -4.060850 0
M  V30 5 C 0.285317 -1.868544 -4.669046 0
M  V30 6 C 0.515098 -0.645116 -4.073318 0
M  V30 7 C 1.192826 -0.645423 -2.868542 0
M  V30 8 N 1.468132 0.566712 -2.190559 0
M  V30 9 C 2.158937 0.781092 -0.954858 0
M  V30 10 N 3.487013 0.996406 -0.894535 0
M  V30 11 C 4.103575 1.194651 0.301839 0
M  V30 12 N 3.400502 1.180190 1.452935 0
M  V30 13 C 2.072308 0.962893 1.369374 0
M  V30 14 C 1.391058 0.954825 2.565298 0
M  V30 15 C 0.033619 0.747589 2.669689 0
M  V30 16 O -0.809593 0.702161 3.740779 0
M  V30 17 C -0.587976 0.841074 5.088973 0
M  V30 18 C 0.319533 -0.137104 5.749131 0
M  V30 19 O -0.122365 -1.457428 5.639304 0
M  V30 20 C 0.823024 -2.242292 6.300279 0
M  V30 21 C -0.634879 0.539957 1.456757 0
M  V30 22 O -2.004618 0.315500 1.373538 0
M  V30 23 C -2.631472 0.111914 0.122961 0
M  V30 24 C -4.091923 -0.098757 0.385291 0
M  V30 25 O -4.861157 -0.312826 -0.721421 0
M  V30 26 C -4.544863 -1.401466 -1.486806 0
M  V30 27 C 0.029087 0.544329 0.247582 0
M  V30 28 C 1.391079 0.755835 0.189988 0
M  V30 29 C 1.625936 -1.811793 -2.277057 0
M  V30 30 H 2.585420 -6.079477 -1.150117 0
M  V30 31 H 0.535490 -3.992420 -4.549170 0
M  V30 32 H -0.249001 -1.895788 -5.623283 0
M  V30 33 H 0.206545 0.302725 -4.476734 0
M  V30 34 H 1.171711 1.493515 -2.553414 0
M  V30 35 H 5.172560 1.370352 0.377895 0
M  V30 36 H 1.879860 1.115997 3.494464 0
M  V30 37 H -1.594216 0.742810 5.597776 0
M  V30 38 H -0.250312 1.861626 5.382089 0
M  V30 39 H 0.257421 0.080783 6.856532 0
M  V30 40 H 1.365386 -0.024955 5.482396 0
M  V30 41 H 0.485534 -3.291773 6.221565 0
M  V30 42 H 1.837989 -2.171393 5.876954 0
M  V30 43 H 0.847744 -2.013807 7.391322 0
M  V30 44 H -2.128243 -0.736371 -0.345118 0
M  V30 45 H -2.505982 1.055403 -0.474973 0
M  V30 46 H -4.488742 0.766279 0.928648 0
M  V30 47 H -4.161958 -0.990715 1.060024 0
M  V30 48 H -5.282374 -1.406357 -2.340232 0
M  V30 49 H -4.733667 -2.365645 -0.938542 0
M  V30 50 H -3.561211 -1.406072 -1.961076 0
M  V30 51 H -0.450664 0.388613 -0.704013 0
M  V30 52 H 2.157024 -1.775778 -1.327079 0
M  V30 END ATOM
M  V30 BEGIN BOND
M  V30 1 3 1 2
M  V30 2 1 2 3
M  V30 3 2 3 4
M  V30 4 1 4 5
M  V30 5 2 5 6
M  V30 6 1 6 7
M  V30 7 1 7 8
M  V30 8 1 8 9
M  V30 9 2 9 10
M  V30 10 1 10 11
M  V30 11 2 11 12
M  V30 12 1 12 13
M  V30 13 2 13 14
M  V30 14 1 14 15
M  V30 15 1 15 16
M  V30 16 1 16 17
M  V30 17 1 17 18
M  V30 18 1 18 19
M  V30 19 1 19 20
M  V30 20 2 15 21
M  V30 21 1 21 22
M  V30 22 1 22 23
M  V30 23 1 23 24
M  V30 24 1 24 25
M  V30 25 1 25 26
M  V30 26 1 21 27
M  V30 27 2 27 28
M  V30 28 2 7 29
M  V30 29 1 29 3
M  V30 30 1 28 9
M  V30 31 1 28 13
M  V30 32 1 1 30
M  V30 33 1 4 31
M  V30 34 1 5 32
M  V30 35 1 6 33
M  V30 36 1 8 34
M  V30 37 1 11 35
M  V30 38 1 14 36
M  V30 39 1 17 37
M  V30 40 1 17 38
M  V30 41 1 18 39
M  V30 42 1 18 40
M  V30 43 1 20 41
M  V30 44 1 20 42
M  V30 45 1 20 43
M  V30 46 1 23 44
M  V30 47 1 23 45
M  V30 48 1 24 46
M  V30 49 1 24 47
M  V30 50 1 26 48
M  V30 51 1 26 49
M  V30 52 1 26 50
M  V30 53 1 27 51
M  V30 54 1 29 52
M  V30 END BOND
M  V30 END CTAB
M  END
>  <Dataset>  (104) 
PKIs

>  <Ligand_Instance>  (104) 
nan

>  <PDB_ID>  (104) 
nan

>  <Standardized_SMILES>  (104) 
C#Cc1cccc(Nc2ncnc3cc(OCCOC)c(OCCOC)cc23)c1

>  <Name>  (104) 
Erlotinib

>  <Pocket>  (104) 
nan

>  <ATP_Site>  (104) 
nan

>  <Peripheral>  (104) 
nan

>  <Num_H_Atoms_ProtBoundConf>  (104) 
nan

>  <Num_Resolved_Atoms>  (104) 
nan

>  <Num_Not_Resolved_Atoms>  (104) 
nan

>  <2D_Mol_H>  (104) 
<rdkit.Chem.rdchem.Mol object at 0x72a239142f10>

>  <MW>  (104) 
393.443

>  <HBA>  (104) 
7

>  <HBD>  (104) 
1

>  <LogP>  (104) 
3.4051

>  <NRB>  (104) 
12

>  <TPSA>  (104) 
74.73

>  <Num_Heavy_Atoms>  (104) 
29

>  <Ro5>  (104) 
[True, True, True, True, False, True]

>  <Ro5_Fulfilled>  (104) 
True

>  <Ro3>  (104) 
[False, False, True, False]

>  <Ro3_Fulfilled>  (104) 
False

>  <Fsp3>  (104) 
0.272727

>  <Fsp3_0.42>  (104) 
False

>  <Fsp3_0.45>  (104) 
False

>  <Stereogenic_Carbons>  (104) 
0

>  <C_Atoms>  (104) 
22

>  <FCStereo>  (104) 
0.0

>  <SPS>  (104) 
305

>  <nSPS>  (104) 
10.517241

>  <PBF>  (104) 
1.398612

>  <PBF_0.6>  (104) 
True

>  <nPBF>  (104) 
0.048228

>  <nPBF_0.016>  (104) 
True

>  <PMI1>  (104) 
2968.535424

>  <PMI2>  (104) 
4766.461456

>  <PMI3>  (104) 
5851.688272

>  <NPR1>  (104) 
0.507296

>  <NPR2>  (104) 
0.814545

>  <Sum_NPR>  (104) 
1.32184

>  <Sum_NPR_1.07>  (104) 
True

>  <Sum_NPR_1.2>  (104) 
True

>  <MaxAbsEStateIndex>  (104) 
5.857397

>  <MaxEStateIndex>  (104) 
5.857397

>  <MinAbsEStateIndex>  (104) 
0.392174

>  <MinEStateIndex>  (104) 
0.392174

>  <qed>  (104) 
0.417884

>  <MolWt>  (104) 
393.443

>  <HeavyAtomMolWt>  (104) 
370.259

>  <ExactMolWt>  (104) 
393.168856

>  <NumValenceElectrons>  (104) 
150

>  <NumRadicalElectrons>  (104) 
0

>  <MaxPartialCharge>  (104) 
0.162995

>  <MinPartialCharge>  (104) 
-0.48727

>  <MaxAbsPartialCharge>  (104) 
0.48727

>  <MinAbsPartialCharge>  (104) 
0.162995

>  <FpDensityMorgan1>  (104) 
0.931034

>  <FpDensityMorgan2>  (104) 
1.655172

>  <FpDensityMorgan3>  (104) 
2.344828

>  <BCUT2D_MWHI>  (104) 
16.547437

>  <BCUT2D_MWLOW>  (104) 
10.152773

>  <BCUT2D_CHGHI>  (104) 
2.127142

>  <BCUT2D_CHGLO>  (104) 
-2.149806

>  <BCUT2D_LOGPHI>  (104) 
2.346649

>  <BCUT2D_LOGPLOW>  (104) 
-2.086461

>  <BCUT2D_MRHI>  (104) 
5.926346

>  <BCUT2D_MRLOW>  (104) 
0.132212

>  <AvgIpc>  (104) 
2.745576

>  <BalabanJ>  (104) 
1.956917

>  <BertzCT>  (104) 
1001.004202

>  <Chi0>  (104) 
20.476481

>  <Chi0n>  (104) 
16.47465

>  <Chi0v>  (104) 
16.47465

>  <Chi1>  (104) 
14.245045

>  <Chi1n>  (104) 
9.1078

>  <Chi1v>  (104) 
9.1078

>  <Chi2n>  (104) 
6.071032

>  <Chi2v>  (104) 
6.071032

>  <Chi3n>  (104) 
4.082845

>  <Chi3v>  (104) 
4.082845

>  <Chi4n>  (104) 
2.682613

>  <Chi4v>  (104) 
2.682613

>  <HallKierAlpha>  (104) 
-3.34

>  <Ipc>  (104) 
4235838.812669

>  <Kappa1>  (104) 
20.395692

>  <Kappa2>  (104) 
10.271589

>  <Kappa3>  (104) 
5.34772

>  <LabuteASA>  (104) 
169.532263

>  <PEOE_VSA1>  (104) 
24.26424

>  <PEOE_VSA10>  (104) 
25.358947

>  <PEOE_VSA11>  (104) 
11.499024

>  <PEOE_VSA12>  (104) 
0.0

>  <PEOE_VSA13>  (104) 
0.0

>  <PEOE_VSA14>  (104) 
0.0

>  <PEOE_VSA2>  (104) 
0.0

>  <PEOE_VSA3>  (104) 
9.967957

>  <PEOE_VSA4>  (104) 
0.0

>  <PEOE_VSA5>  (104) 
6.42335

>  <PEOE_VSA6>  (104) 
11.986801

>  <PEOE_VSA7>  (104) 
24.265468

>  <PEOE_VSA8>  (104) 
36.923024

>  <PEOE_VSA9>  (104) 
18.730465

>  <SMR_VSA1>  (104) 
18.947452

>  <SMR_VSA10>  (104) 
22.408174

>  <SMR_VSA2>  (104) 
0.0

>  <SMR_VSA3>  (104) 
9.967957

>  <SMR_VSA4>  (104) 
0.0

>  <SMR_VSA5>  (104) 
0.0

>  <SMR_VSA6>  (104) 
45.963912

>  <SMR_VSA7>  (104) 
48.288974

>  <SMR_VSA8>  (104) 
0.0

>  <SMR_VSA9>  (104) 
23.842808

>  <SlogP_VSA1>  (104) 
14.790515

>  <SlogP_VSA10>  (104) 
11.505249

>  <SlogP_VSA11>  (104) 
11.499024

>  <SlogP_VSA12>  (104) 
0.0

>  <SlogP_VSA2>  (104) 
50.61508

>  <SlogP_VSA3>  (104) 
9.473726

>  <SlogP_VSA4>  (104) 
12.343784

>  <SlogP_VSA5>  (104) 
5.563451

>  <SlogP_VSA6>  (104) 
42.725522

>  <SlogP_VSA7>  (104) 
0.0

>  <SlogP_VSA8>  (104) 
10.902925

>  <SlogP_VSA9>  (104) 
0.0

>  <EState_VSA1>  (104) 
0.0

>  <EState_VSA10>  (104) 
0.0

>  <EState_VSA11>  (104) 
0.0

>  <EState_VSA2>  (104) 
0.0

>  <EState_VSA3>  (104) 
43.744414

>  <EState_VSA4>  (104) 
22.153763

>  <EState_VSA5>  (104) 
6.32732

>  <EState_VSA6>  (104) 
14.219595

>  <EState_VSA7>  (104) 
36.398202

>  <EState_VSA8>  (104) 
21.20518

>  <EState_VSA9>  (104) 
25.370802

>  <VSA_EState1>  (104) 
21.801771

>  <VSA_EState10>  (104) 
0.0

>  <VSA_EState2>  (104) 
8.754103

>  <VSA_EState3>  (104) 
4.096557

>  <VSA_EState4>  (104) 
2.343161

>  <VSA_EState5>  (104) 
4.443107

>  <VSA_EState6>  (104) 
11.258046

>  <VSA_EState7>  (104) 
6.994191

>  <VSA_EState8>  (104) 
1.725695

>  <VSA_EState9>  (104) 
3.250034

>  <FractionCSP3>  (104) 
0.272727

>  <HeavyAtomCount>  (104) 
29

>  <NHOHCount>  (104) 
1

>  <NOCount>  (104) 
7

>  <NumAliphaticCarbocycles>  (104) 
0

>  <NumAliphaticHeterocycles>  (104) 
0

>  <NumAliphaticRings>  (104) 
0

>  <NumAromaticCarbocycles>  (104) 
2

>  <NumAromaticHeterocycles>  (104) 
1

>  <NumAromaticRings>  (104) 
3

>  <NumHAcceptors>  (104) 
7

>  <NumHDonors>  (104) 
1

>  <NumHeteroatoms>  (104) 
7

>  <NumRotatableBonds>  (104) 
10

>  <NumSaturatedCarbocycles>  (104) 
0

>  <NumSaturatedHeterocycles>  (104) 
0

>  <NumSaturatedRings>  (104) 
0

>  <RingCount>  (104) 
3

>  <MolLogP>  (104) 
3.4051

>  <MolMR>  (104) 
111.9397

>  <fr_Al_COO>  (104) 
0

>  <fr_Al_OH>  (104) 
0

>  <fr_Al_OH_noTert>  (104) 
0

>  <fr_ArN>  (104) 
0

>  <fr_Ar_COO>  (104) 
0

>  <fr_Ar_N>  (104) 
2

>  <fr_Ar_NH>  (104) 
0

>  <fr_Ar_OH>  (104) 
0

>  <fr_COO>  (104) 
0

>  <fr_COO2>  (104) 
0

>  <fr_C_O>  (104) 
0

>  <fr_C_O_noCOO>  (104) 
0

>  <fr_C_S>  (104) 
0

>  <fr_HOCCN>  (104) 
0

>  <fr_Imine>  (104) 
0

>  <fr_NH0>  (104) 
2

>  <fr_NH1>  (104) 
1

>  <fr_NH2>  (104) 
0

>  <fr_N_O>  (104) 
0

>  <fr_Ndealkylation1>  (104) 
0

>  <fr_Ndealkylation2>  (104) 
0

>  <fr_Nhpyrrole>  (104) 
0

>  <fr_SH>  (104) 
0

>  <fr_aldehyde>  (104) 
0

>  <fr_alkyl_carbamate>  (104) 
0

>  <fr_alkyl_halide>  (104) 
0

>  <fr_allylic_oxid>  (104) 
0

>  <fr_amide>  (104) 
0

>  <fr_amidine>  (104) 
0

>  <fr_aniline>  (104) 
2

>  <fr_aryl_methyl>  (104) 
0

>  <fr_azide>  (104) 
0

>  <fr_azo>  (104) 
0

>  <fr_barbitur>  (104) 
0

>  <fr_benzene>  (104) 
2

>  <fr_benzodiazepine>  (104) 
0

>  <fr_bicyclic>  (104) 
1

>  <fr_diazo>  (104) 
0

>  <fr_dihydropyridine>  (104) 
0

>  <fr_epoxide>  (104) 
0

>  <fr_ester>  (104) 
0

>  <fr_ether>  (104) 
4

>  <fr_furan>  (104) 
0

>  <fr_guanido>  (104) 
0

>  <fr_halogen>  (104) 
0

>  <fr_hdrzine>  (104) 
0

>  <fr_hdrzone>  (104) 
0

>  <fr_imidazole>  (104) 
0

>  <fr_imide>  (104) 
0

>  <fr_isocyan>  (104) 
0

>  <fr_isothiocyan>  (104) 
0

>  <fr_ketone>  (104) 
0

>  <fr_ketone_Topliss>  (104) 
0

>  <fr_lactam>  (104) 
0

>  <fr_lactone>  (104) 
0

>  <fr_methoxy>  (104) 
2

>  <fr_morpholine>  (104) 
0

>  <fr_nitrile>  (104) 
0

>  <fr_nitro>  (104) 
0

>  <fr_nitro_arom>  (104) 
0

>  <fr_nitro_arom_nonortho>  (104) 
0

>  <fr_nitroso>  (104) 
0

>  <fr_oxazole>  (104) 
0

>  <fr_oxime>  (104) 
0

>  <fr_para_hydroxylation>  (104) 
0

>  <fr_phenol>  (104) 
0

>  <fr_phenol_noOrthoHbond>  (104) 
0

>  <fr_phos_acid>  (104) 
0

>  <fr_phos_ester>  (104) 
0

>  <fr_piperdine>  (104) 
0

>  <fr_piperzine>  (104) 
0

>  <fr_priamide>  (104) 
0

>  <fr_prisulfonamd>  (104) 
0

>  <fr_pyridine>  (104) 
0

>  <fr_quatN>  (104) 
0

>  <fr_sulfide>  (104) 
0

>  <fr_sulfonamd>  (104) 
0

>  <fr_sulfone>  (104) 
0

>  <fr_term_acetylene>  (104) 
1

>  <fr_tetrazole>  (104) 
0

>  <fr_thiazole>  (104) 
0

>  <fr_thiocyan>  (104) 
0

>  <fr_thiophene>  (104) 
0

>  <fr_unbrch_alkane>  (104) 
0

>  <fr_urea>  (104) 
0

>  <NP_Likeness>  (104) 
-1.221643

$$$$
nan
     RDKit          3D

  0  0  0  0  0  0  0  0  0  0999 V3000
M  V30 BEGIN CTAB
M  V30 COUNTS 55 58 0 0 0
M  V30 BEGIN ATOM
M  V30 1 C -0.200954 0.065252 6.322085 0
M  V30 2 O -0.402239 -0.484119 5.032798 0
M  V30 3 C 0.600374 -0.336831 4.082461 0
M  V30 4 C 1.755714 0.331190 4.406218 0
M  V30 5 C 2.756758 0.481208 3.465804 0
M  V30 6 N 3.877185 1.136412 3.800697 0
M  V30 7 C 4.864304 1.290916 2.892014 0
M  V30 8 N 4.776081 0.808344 1.638454 0
M  V30 9 C 3.655039 0.141847 1.272246 0
M  V30 10 N 3.399507 -0.427323 0.000711 0
M  V30 11 C 2.763556 0.395890 -0.958395 0
M  V30 12 C 2.417678 1.691895 -0.644469 0
M  V30 13 C 1.797225 2.560998 -1.515246 0
M  V30 14 C 1.527485 2.038460 -2.780693 0
M  V30 15 F 0.918256 2.862361 -3.664793 0
M  V30 16 C 1.846133 0.749795 -3.163177 0
M  V30 17 Cl 1.452025 0.208492 -4.793259 0
M  V30 18 C 2.474030 -0.085097 -2.237985 0
M  V30 19 C 2.631105 -0.028138 2.187153 0
M  V30 20 C 1.455910 -0.697845 1.885722 0
M  V30 21 C 0.439583 -0.861483 2.808224 0
M  V30 22 O -0.735992 -1.515670 2.551495 0
M  V30 23 C -1.077194 -2.113013 1.316728 0
M  V30 24 C -2.433334 -2.754446 1.342958 0
M  V30 25 C -2.762590 -3.389061 -0.014119 0
M  V30 26 N -2.753984 -2.389233 -1.045306 0
M  V30 27 C -3.059442 -2.934096 -2.353342 0
M  V30 28 C -2.658299 -1.892532 -3.376693 0
M  V30 29 O -3.127449 -0.658901 -2.944632 0
M  V30 30 C -4.192235 -0.778204 -2.067282 0
M  V30 31 C -3.717081 -1.352519 -0.746180 0
M  V30 32 H -1.028170 -0.262663 7.005330 0
M  V30 33 H -0.265065 1.180727 6.225654 0
M  V30 34 H 0.745321 -0.251407 6.758076 0
M  V30 35 H 1.895634 0.747909 5.401618 0
M  V30 36 H 5.758171 1.826945 3.197075 0
M  V30 37 H 3.655128 -1.406424 -0.252107 0
M  V30 38 H 2.637575 2.074380 0.344251 0
M  V30 39 H 1.542177 3.559148 -1.241902 0
M  V30 40 H 2.728383 -1.096669 -2.526505 0
M  V30 41 H 1.334649 -1.106434 0.887966 0
M  V30 42 H -0.323956 -2.890034 1.066705 0
M  V30 43 H -1.043188 -1.347400 0.515853 0
M  V30 44 H -2.479092 -3.543089 2.121725 0
M  V30 45 H -3.190224 -1.968568 1.578286 0
M  V30 46 H -1.960690 -4.135024 -0.224297 0
M  V30 47 H -3.758277 -3.871275 0.061932 0
M  V30 48 H -4.120329 -3.225979 -2.480785 0
M  V30 49 H -2.465821 -3.867079 -2.551160 0
M  V30 50 H -3.031805 -2.137818 -4.390455 0
M  V30 51 H -1.529959 -1.849825 -3.403946 0
M  V30 52 H -4.627967 0.246079 -1.930743 0
M  V30 53 H -5.023047 -1.397662 -2.424515 0
M  V30 54 H -3.226413 -0.560657 -0.173935 0
M  V30 55 H -4.565106 -1.722666 -0.157069 0
M  V30 END ATOM
M  V30 BEGIN BOND
M  V30 1 1 1 2
M  V30 2 1 2 3
M  V30 3 2 3 4
M  V30 4 1 4 5
M  V30 5 2 5 6
M  V30 6 1 6 7
M  V30 7 2 7 8
M  V30 8 1 8 9
M  V30 9 1 9 10
M  V30 10 1 10 11
M  V30 11 2 11 12
M  V30 12 1 12 13
M  V30 13 2 13 14
M  V30 14 1 14 15
M  V30 15 1 14 16
M  V30 16 1 16 17
M  V30 17 2 16 18
M  V30 18 2 9 19
M  V30 19 1 19 20
M  V30 20 2 20 21
M  V30 21 1 21 22
M  V30 22 1 22 23
M  V30 23 1 23 24
M  V30 24 1 24 25
M  V30 25 1 25 26
M  V30 26 1 26 27
M  V30 27 1 27 28
M  V30 28 1 28 29
M  V30 29 1 29 30
M  V30 30 1 30 31
M  V30 31 1 21 3
M  V30 32 1 31 26
M  V30 33 1 19 5
M  V30 34 1 18 11
M  V30 35 1 1 32
M  V30 36 1 1 33
M  V30 37 1 1 34
M  V30 38 1 4 35
M  V30 39 1 7 36
M  V30 40 1 10 37
M  V30 41 1 12 38
M  V30 42 1 13 39
M  V30 43 1 18 40
M  V30 44 1 20 41
M  V30 45 1 23 42
M  V30 46 1 23 43
M  V30 47 1 24 44
M  V30 48 1 24 45
M  V30 49 1 25 46
M  V30 50 1 25 47
M  V30 51 1 27 48
M  V30 52 1 27 49
M  V30 53 1 28 50
M  V30 54 1 28 51
M  V30 55 1 30 52
M  V30 56 1 30 53
M  V30 57 1 31 54
M  V30 58 1 31 55
M  V30 END BOND
M  V30 END CTAB
M  END
>  <Dataset>  (105) 
PKIs

>  <Ligand_Instance>  (105) 
nan

>  <PDB_ID>  (105) 
nan

>  <Standardized_SMILES>  (105) 
COc1cc2ncnc(Nc3ccc(F)c(Cl)c3)c2cc1OCCCN1CCOCC1

>  <Name>  (105) 
Gefitinib

>  <Pocket>  (105) 
nan

>  <ATP_Site>  (105) 
nan

>  <Peripheral>  (105) 
nan

>  <Num_H_Atoms_ProtBoundConf>  (105) 
nan

>  <Num_Resolved_Atoms>  (105) 
nan

>  <Num_Not_Resolved_Atoms>  (105) 
nan

>  <2D_Mol_H>  (105) 
<rdkit.Chem.rdchem.Mol object at 0x72a239142ff0>

>  <MW>  (105) 
446.91

>  <HBA>  (105) 
7

>  <HBD>  (105) 
1

>  <LogP>  (105) 
4.2756

>  <NRB>  (105) 
9

>  <TPSA>  (105) 
68.74

>  <Num_Heavy_Atoms>  (105) 
31

>  <Ro5>  (105) 
[True, True, True, True, True, True]

>  <Ro5_Fulfilled>  (105) 
True

>  <Ro3>  (105) 
[False, False, True, False]

>  <Ro3_Fulfilled>  (105) 
False

>  <Fsp3>  (105) 
0.363636

>  <Fsp3_0.42>  (105) 
False

>  <Fsp3_0.45>  (105) 
False

>  <Stereogenic_Carbons>  (105) 
0

>  <C_Atoms>  (105) 
22

>  <FCStereo>  (105) 
0.0

>  <SPS>  (105) 
451

>  <nSPS>  (105) 
14.548387

>  <PBF>  (105) 
1.005922

>  <PBF_0.6>  (105) 
True

>  <nPBF>  (105) 
0.032449

>  <nPBF_0.016>  (105) 
True

>  <PMI1>  (105) 
3635.350626

>  <PMI2>  (105) 
5014.458718

>  <PMI3>  (105) 
7789.844978

>  <NPR1>  (105) 
0.466678

>  <NPR2>  (105) 
0.643717

>  <Sum_NPR>  (105) 
1.110396

>  <Sum_NPR_1.07>  (105) 
True

>  <Sum_NPR_1.2>  (105) 
False

>  <MaxAbsEStateIndex>  (105) 
13.468244

>  <MaxEStateIndex>  (105) 
13.468244

>  <MinAbsEStateIndex>  (105) 
0.036409

>  <MinEStateIndex>  (105) 
-0.474756

>  <qed>  (105) 
0.517855

>  <MolWt>  (105) 
446.91

>  <HeavyAtomMolWt>  (105) 
422.718

>  <ExactMolWt>  (105) 
446.152097

>  <NumValenceElectrons>  (105) 
164

>  <NumRadicalElectrons>  (105) 
0

>  <MaxPartialCharge>  (105) 
0.162433

>  <MinPartialCharge>  (105) 
-0.492786

>  <MaxAbsPartialCharge>  (105) 
0.492786

>  <MinAbsPartialCharge>  (105) 
0.162433

>  <FpDensityMorgan1>  (105) 
1.16129

>  <FpDensityMorgan2>  (105) 
2.0

>  <FpDensityMorgan3>  (105) 
2.774194

>  <BCUT2D_MWHI>  (105) 
35.495692

>  <BCUT2D_MWLOW>  (105) 
10.166031

>  <BCUT2D_CHGHI>  (105) 
2.135333

>  <BCUT2D_CHGLO>  (105) 
-2.259495

>  <BCUT2D_LOGPHI>  (105) 
2.347642

>  <BCUT2D_LOGPLOW>  (105) 
-2.367888

>  <BCUT2D_MRHI>  (105) 
6.305763

>  <BCUT2D_MRLOW>  (105) 
0.035733

>  <AvgIpc>  (105) 
2.79423

>  <BalabanJ>  (105) 
1.507874

>  <BertzCT>  (105) 
1046.684904

>  <Chi0>  (105) 
21.631181

>  <Chi0n>  (105) 
17.236164

>  <Chi0v>  (105) 
17.992093

>  <Chi1>  (105) 
15.135362

>  <Chi1n>  (105) 
10.115516

>  <Chi1v>  (105) 
10.49348

>  <Chi2n>  (105) 
7.152408

>  <Chi2v>  (105) 
7.559609

>  <Chi3n>  (105) 
5.083026

>  <Chi3v>  (105) 
5.372673

>  <Chi4n>  (105) 
3.441626

>  <Chi4v>  (105) 
3.622168

>  <HallKierAlpha>  (105) 
-2.68

>  <Ipc>  (105) 
13732178.246809

>  <Kappa1>  (105) 
21.548207

>  <Kappa2>  (105) 
10.084992

>  <Kappa3>  (105) 
5.330841

>  <LabuteASA>  (105) 
184.642297

>  <PEOE_VSA1>  (105) 
19.527377

>  <PEOE_VSA10>  (105) 
17.962404

>  <PEOE_VSA11>  (105) 
11.499024

>  <PEOE_VSA12>  (105) 
0.0

>  <PEOE_VSA13>  (105) 
0.0

>  <PEOE_VSA14>  (105) 
0.0

>  <PEOE_VSA2>  (105) 
4.89991

>  <PEOE_VSA3>  (105) 
14.358372

>  <PEOE_VSA4>  (105) 
0.0

>  <PEOE_VSA5>  (105) 
0.0

>  <PEOE_VSA6>  (105) 
11.60094

>  <PEOE_VSA7>  (105) 
30.68629

>  <PEOE_VSA8>  (105) 
36.774247

>  <PEOE_VSA9>  (105) 
37.469777

>  <SMR_VSA1>  (105) 
18.601004

>  <SMR_VSA10>  (105) 
34.009114

>  <SMR_VSA2>  (105) 
0.0

>  <SMR_VSA3>  (105) 
14.867867

>  <SMR_VSA4>  (105) 
0.0

>  <SMR_VSA5>  (105) 
6.420822

>  <SMR_VSA6>  (105) 
51.881501

>  <SMR_VSA7>  (105) 
47.49901

>  <SMR_VSA8>  (105) 
0.0

>  <SMR_VSA9>  (105) 
11.499024

>  <SlogP_VSA1>  (105) 
14.790515

>  <SlogP_VSA10>  (105) 
15.895664

>  <SlogP_VSA11>  (105) 
11.499024

>  <SlogP_VSA12>  (105) 
11.60094

>  <SlogP_VSA2>  (105) 
61.432579

>  <SlogP_VSA3>  (105) 
4.736863

>  <SlogP_VSA4>  (105) 
5.817221

>  <SlogP_VSA5>  (105) 
6.420822

>  <SlogP_VSA6>  (105) 
36.659155

>  <SlogP_VSA7>  (105) 
5.022633

>  <SlogP_VSA8>  (105) 
10.902925

>  <SlogP_VSA9>  (105) 
0.0

>  <EState_VSA1>  (105) 
5.817221

>  <EState_VSA10>  (105) 
4.390415

>  <EState_VSA11>  (105) 
0.0

>  <EState_VSA2>  (105) 
5.022633

>  <EState_VSA3>  (105) 
35.127855

>  <EState_VSA4>  (105) 
44.655079

>  <EState_VSA5>  (105) 
18.460054

>  <EState_VSA6>  (105) 
13.176165

>  <EState_VSA7>  (105) 
12.132734

>  <EState_VSA8>  (105) 
20.184655

>  <EState_VSA9>  (105) 
25.811529

>  <VSA_EState1>  (105) 
30.373687

>  <VSA_EState10>  (105) 
5.895464

>  <VSA_EState2>  (105) 
11.035061

>  <VSA_EState3>  (105) 
3.965652

>  <VSA_EState4>  (105) 
1.317984

>  <VSA_EState5>  (105) 
1.311179

>  <VSA_EState6>  (105) 
8.089993

>  <VSA_EState7>  (105) 
2.35096

>  <VSA_EState8>  (105) 
5.004639

>  <VSA_EState9>  (105) 
1.599825

>  <FractionCSP3>  (105) 
0.363636

>  <HeavyAtomCount>  (105) 
31

>  <NHOHCount>  (105) 
1

>  <NOCount>  (105) 
7

>  <NumAliphaticCarbocycles>  (105) 
0

>  <NumAliphaticHeterocycles>  (105) 
1

>  <NumAliphaticRings>  (105) 
1

>  <NumAromaticCarbocycles>  (105) 
2

>  <NumAromaticHeterocycles>  (105) 
1

>  <NumAromaticRings>  (105) 
3

>  <NumHAcceptors>  (105) 
7

>  <NumHDonors>  (105) 
1

>  <NumHeteroatoms>  (105) 
9

>  <NumRotatableBonds>  (105) 
8

>  <NumSaturatedCarbocycles>  (105) 
0

>  <NumSaturatedHeterocycles>  (105) 
1

>  <NumSaturatedRings>  (105) 
1

>  <RingCount>  (105) 
4

>  <MolLogP>  (105) 
4.2756

>  <MolMR>  (105) 
118.1537

>  <fr_Al_COO>  (105) 
0

>  <fr_Al_OH>  (105) 
0

>  <fr_Al_OH_noTert>  (105) 
0

>  <fr_ArN>  (105) 
0

>  <fr_Ar_COO>  (105) 
0

>  <fr_Ar_N>  (105) 
2

>  <fr_Ar_NH>  (105) 
0

>  <fr_Ar_OH>  (105) 
0

>  <fr_COO>  (105) 
0

>  <fr_COO2>  (105) 
0

>  <fr_C_O>  (105) 
0

>  <fr_C_O_noCOO>  (105) 
0

>  <fr_C_S>  (105) 
0

>  <fr_HOCCN>  (105) 
0

>  <fr_Imine>  (105) 
0

>  <fr_NH0>  (105) 
3

>  <fr_NH1>  (105) 
1

>  <fr_NH2>  (105) 
0

>  <fr_N_O>  (105) 
0

>  <fr_Ndealkylation1>  (105) 
0

>  <fr_Ndealkylation2>  (105) 
0

>  <fr_Nhpyrrole>  (105) 
0

>  <fr_SH>  (105) 
0

>  <fr_aldehyde>  (105) 
0

>  <fr_alkyl_carbamate>  (105) 
0

>  <fr_alkyl_halide>  (105) 
0

>  <fr_allylic_oxid>  (105) 
0

>  <fr_amide>  (105) 
0

>  <fr_amidine>  (105) 
0

>  <fr_aniline>  (105) 
2

>  <fr_aryl_methyl>  (105) 
0

>  <fr_azide>  (105) 
0

>  <fr_azo>  (105) 
0

>  <fr_barbitur>  (105) 
0

>  <fr_benzene>  (105) 
2

>  <fr_benzodiazepine>  (105) 
0

>  <fr_bicyclic>  (105) 
1

>  <fr_diazo>  (105) 
0

>  <fr_dihydropyridine>  (105) 
0

>  <fr_epoxide>  (105) 
0

>  <fr_ester>  (105) 
0

>  <fr_ether>  (105) 
3

>  <fr_furan>  (105) 
0

>  <fr_guanido>  (105) 
0

>  <fr_halogen>  (105) 
2

>  <fr_hdrzine>  (105) 
0

>  <fr_hdrzone>  (105) 
0

>  <fr_imidazole>  (105) 
0

>  <fr_imide>  (105) 
0

>  <fr_isocyan>  (105) 
0

>  <fr_isothiocyan>  (105) 
0

>  <fr_ketone>  (105) 
0

>  <fr_ketone_Topliss>  (105) 
0

>  <fr_lactam>  (105) 
0

>  <fr_lactone>  (105) 
0

>  <fr_methoxy>  (105) 
1

>  <fr_morpholine>  (105) 
1

>  <fr_nitrile>  (105) 
0

>  <fr_nitro>  (105) 
0

>  <fr_nitro_arom>  (105) 
0

>  <fr_nitro_arom_nonortho>  (105) 
0

>  <fr_nitroso>  (105) 
0

>  <fr_oxazole>  (105) 
0

>  <fr_oxime>  (105) 
0

>  <fr_para_hydroxylation>  (105) 
0

>  <fr_phenol>  (105) 
0

>  <fr_phenol_noOrthoHbond>  (105) 
0

>  <fr_phos_acid>  (105) 
0

>  <fr_phos_ester>  (105) 
0

>  <fr_piperdine>  (105) 
0

>  <fr_piperzine>  (105) 
0

>  <fr_priamide>  (105) 
0

>  <fr_prisulfonamd>  (105) 
0

>  <fr_pyridine>  (105) 
0

>  <fr_quatN>  (105) 
0

>  <fr_sulfide>  (105) 
0

>  <fr_sulfonamd>  (105) 
0

>  <fr_sulfone>  (105) 
0

>  <fr_term_acetylene>  (105) 
0

>  <fr_tetrazole>  (105) 
0

>  <fr_thiazole>  (105) 
0

>  <fr_thiocyan>  (105) 
0

>  <fr_thiophene>  (105) 
0

>  <fr_unbrch_alkane>  (105) 
0

>  <fr_urea>  (105) 
0

>  <NP_Likeness>  (105) 
-1.749058

$$$$
nan
     RDKit          3D

  0  0  0  0  0  0  0  0  0  0999 V3000
M  V30 BEGIN CTAB
M  V30 COUNTS 68 72 0 0 0
M  V30 BEGIN ATOM
M  V30 1 C 3.897088 -3.217515 6.313551 0
M  V30 2 C 3.002112 -2.432487 5.406845 0
M  V30 3 C 2.528918 -1.227906 5.861929 0
M  V30 4 C 1.700047 -0.453020 5.079116 0
M  V30 5 C 1.365740 -0.929353 3.829633 0
M  V30 6 N 0.509953 -0.090769 3.067183 0
M  V30 7 C 0.771457 0.953964 2.155421 0
M  V30 8 O 1.954556 1.290598 1.892160 0
M  V30 9 C -0.309385 1.673652 1.492738 0
M  V30 10 C 0.060407 2.681721 0.621262 0
M  V30 11 C -0.931564 3.410479 -0.045881 0
M  V30 12 C -2.299026 3.168369 0.125953 0
M  V30 13 C -3.285365 3.967001 -0.601002 0
M  V30 14 N -3.687262 3.476538 -1.874080 0
M  V30 15 C -4.304811 2.190707 -1.898008 0
M  V30 16 C -3.320611 1.222951 -2.559976 0
M  V30 17 N -3.248381 1.500604 -3.990592 0
M  V30 18 C -2.004830 0.966307 -4.495189 0
M  V30 19 C -3.223448 2.938625 -4.150212 0
M  V30 20 C -2.706109 3.656284 -2.913619 0
M  V30 21 C -2.580532 2.148163 1.010494 0
M  V30 22 C -1.645492 1.398880 1.693652 0
M  V30 23 C 1.865248 -2.144328 3.416449 0
M  V30 24 C 2.692653 -2.945598 4.165224 0
M  V30 25 N 3.194813 -4.194262 3.716850 0
M  V30 26 C 2.980233 -4.869240 2.493827 0
M  V30 27 N 3.581839 -6.056363 2.303420 0
M  V30 28 C 3.441132 -6.774119 1.182638 0
M  V30 29 C 2.645264 -6.279850 0.175097 0
M  V30 30 C 2.012155 -5.076308 0.322468 0
M  V30 31 C 1.173409 -4.548310 -0.727874 0
M  V30 32 C 0.517745 -3.342354 -0.620512 0
M  V30 33 C -0.294966 -2.818629 -1.624275 0
M  V30 34 C -0.450816 -3.558921 -2.801241 0
M  V30 35 N 0.193468 -4.717857 -2.876206 0
M  V30 36 C 0.967884 -5.201546 -1.901750 0
M  V30 37 N 2.220601 -4.440311 1.481933 0
M  V30 38 H 4.812409 -3.441470 5.768621 0
M  V30 39 H 4.096701 -2.689912 7.245561 0
M  V30 40 H 3.417426 -4.200347 6.579657 0
M  V30 41 H 2.806411 -0.882067 6.840601 0
M  V30 42 H 1.337356 0.492814 5.454161 0
M  V30 43 H -0.455054 -0.402739 3.314270 0
M  V30 44 H 1.097925 2.954044 0.413824 0
M  V30 45 H -0.597332 4.206141 -0.730528 0
M  V30 46 H -4.141865 4.180893 0.069700 0
M  V30 47 H -2.805958 4.971851 -0.784528 0
M  V30 48 H -5.192128 2.209528 -2.596347 0
M  V30 49 H -4.674678 1.807877 -0.948492 0
M  V30 50 H -2.294870 1.388495 -2.169487 0
M  V30 51 H -3.615907 0.170490 -2.392916 0
M  V30 52 H -1.318923 0.644869 -3.691379 0
M  V30 53 H -2.202493 0.091282 -5.174417 0
M  V30 54 H -1.433179 1.686024 -5.128559 0
M  V30 55 H -2.522328 3.170571 -4.976765 0
M  V30 56 H -4.261551 3.255753 -4.384636 0
M  V30 57 H -1.706639 3.284816 -2.640207 0
M  V30 58 H -2.669882 4.730613 -3.169612 0
M  V30 59 H -3.615285 1.906932 1.193252 0
M  V30 60 H -1.937820 0.614860 2.371129 0
M  V30 61 H 1.548643 -2.421266 2.440222 0
M  V30 62 H 3.825829 -4.672853 4.429552 0
M  V30 63 H 3.971837 -7.709675 1.147027 0
M  V30 64 H 2.579091 -6.911433 -0.696693 0
M  V30 65 H 0.605209 -2.731770 0.266859 0
M  V30 66 H -0.786964 -1.882541 -1.507213 0
M  V30 67 H -1.070227 -3.186199 -3.596955 0
M  V30 68 H 1.402899 -6.142241 -2.138361 0
M  V30 END ATOM
M  V30 BEGIN BOND
M  V30 1 1 1 2
M  V30 2 2 2 3
M  V30 3 1 3 4
M  V30 4 2 4 5
M  V30 5 1 5 6
M  V30 6 1 6 7
M  V30 7 2 7 8
M  V30 8 1 7 9
M  V30 9 2 9 10
M  V30 10 1 10 11
M  V30 11 2 11 12
M  V30 12 1 12 13
M  V30 13 1 13 14
M  V30 14 1 14 15
M  V30 15 1 15 16
M  V30 16 1 16 17
M  V30 17 1 17 18
M  V30 18 1 17 19
M  V30 19 1 19 20
M  V30 20 1 12 21
M  V30 21 2 21 22
M  V30 22 1 5 23
M  V30 23 2 23 24
M  V30 24 1 24 25
M  V30 25 1 25 26
M  V30 26 2 26 27
M  V30 27 1 27 28
M  V30 28 2 28 29
M  V30 29 1 29 30
M  V30 30 1 30 31
M  V30 31 2 31 32
M  V30 32 1 32 33
M  V30 33 2 33 34
M  V30 34 1 34 35
M  V30 35 2 35 36
M  V30 36 2 30 37
M  V30 37 1 24 2
M  V30 38 1 37 26
M  V30 39 1 22 9
M  V30 40 1 36 31
M  V30 41 1 20 14
M  V30 42 1 1 38
M  V30 43 1 1 39
M  V30 44 1 1 40
M  V30 45 1 3 41
M  V30 46 1 4 42
M  V30 47 1 6 43
M  V30 48 1 10 44
M  V30 49 1 11 45
M  V30 50 1 13 46
M  V30 51 1 13 47
M  V30 52 1 15 48
M  V30 53 1 15 49
M  V30 54 1 16 50
M  V30 55 1 16 51
M  V30 56 1 18 52
M  V30 57 1 18 53
M  V30 58 1 18 54
M  V30 59 1 19 55
M  V30 60 1 19 56
M  V30 61 1 20 57
M  V30 62 1 20 58
M  V30 63 1 21 59
M  V30 64 1 22 60
M  V30 65 1 23 61
M  V30 66 1 25 62
M  V30 67 1 28 63
M  V30 68 1 29 64
M  V30 69 1 32 65
M  V30 70 1 33 66
M  V30 71 1 34 67
M  V30 72 1 36 68
M  V30 END BOND
M  V30 END CTAB
M  END
>  <Dataset>  (106) 
PKIs

>  <Ligand_Instance>  (106) 
nan

>  <PDB_ID>  (106) 
nan

>  <Standardized_SMILES>  (106) 
Cc1ccc(NC(=O)c2ccc(CN3CCN(C)CC3)cc2)cc1Nc1nccc(-c2cccnc2)n1

>  <Name>  (106) 
Imatinib

>  <Pocket>  (106) 
nan

>  <ATP_Site>  (106) 
nan

>  <Peripheral>  (106) 
nan

>  <Num_H_Atoms_ProtBoundConf>  (106) 
nan

>  <Num_Resolved_Atoms>  (106) 
nan

>  <Num_Not_Resolved_Atoms>  (106) 
nan

>  <2D_Mol_H>  (106) 
<rdkit.Chem.rdchem.Mol object at 0x72a2391430d0>

>  <MW>  (106) 
493.615

>  <HBA>  (106) 
7

>  <HBD>  (106) 
2

>  <LogP>  (106) 
4.59032

>  <NRB>  (106) 
9

>  <TPSA>  (106) 
86.28

>  <Num_Heavy_Atoms>  (106) 
37

>  <Ro5>  (106) 
[True, True, True, True, True, True]

>  <Ro5_Fulfilled>  (106) 
True

>  <Ro3>  (106) 
[False, False, True, False]

>  <Ro3_Fulfilled>  (106) 
False

>  <Fsp3>  (106) 
0.241379

>  <Fsp3_0.42>  (106) 
False

>  <Fsp3_0.45>  (106) 
False

>  <Stereogenic_Carbons>  (106) 
0

>  <C_Atoms>  (106) 
29

>  <FCStereo>  (106) 
0.0

>  <SPS>  (106) 
530

>  <nSPS>  (106) 
14.324324

>  <PBF>  (106) 
0.664216

>  <PBF_0.6>  (106) 
True

>  <nPBF>  (106) 
0.017952

>  <nPBF_0.016>  (106) 
True

>  <PMI1>  (106) 
3679.92277

>  <PMI2>  (106) 
9201.718264

>  <PMI3>  (106) 
12391.252144

>  <NPR1>  (106) 
0.296977

>  <NPR2>  (106) 
0.742598

>  <Sum_NPR>  (106) 
1.039575

>  <Sum_NPR_1.07>  (106) 
False

>  <Sum_NPR_1.2>  (106) 
False

>  <MaxAbsEStateIndex>  (106) 
12.929507

>  <MaxEStateIndex>  (106) 
12.929507

>  <MinAbsEStateIndex>  (106) 
0.142801

>  <MinEStateIndex>  (106) 
-0.142801

>  <qed>  (106) 
0.389416

>  <MolWt>  (106) 
493.615

>  <HeavyAtomMolWt>  (106) 
462.367

>  <ExactMolWt>  (106) 
493.259009

>  <NumValenceElectrons>  (106) 
188

>  <NumRadicalElectrons>  (106) 
0

>  <MaxPartialCharge>  (106) 
0.255159

>  <MinPartialCharge>  (106) 
-0.323844

>  <MaxAbsPartialCharge>  (106) 
0.323844

>  <MinAbsPartialCharge>  (106) 
0.255159

>  <FpDensityMorgan1>  (106) 
0.972973

>  <FpDensityMorgan2>  (106) 
1.783784

>  <FpDensityMorgan3>  (106) 
2.540541

>  <BCUT2D_MWHI>  (106) 
16.149175

>  <BCUT2D_MWLOW>  (106) 
10.09865

>  <BCUT2D_CHGHI>  (106) 
2.143723

>  <BCUT2D_CHGLO>  (106) 
-2.318663

>  <BCUT2D_LOGPHI>  (106) 
2.244743

>  <BCUT2D_LOGPLOW>  (106) 
-2.433791

>  <BCUT2D_MRHI>  (106) 
6.041186

>  <BCUT2D_MRLOW>  (106) 
0.1022

>  <AvgIpc>  (106) 
2.92788

>  <BalabanJ>  (106) 
1.2353

>  <BertzCT>  (106) 
1350.556265

>  <Chi0>  (106) 
25.614309

>  <Chi0n>  (106) 
21.185404

>  <Chi0v>  (106) 
21.185404

>  <Chi1>  (106) 
18.03001

>  <Chi1n>  (106) 
12.456874

>  <Chi1v>  (106) 
12.456874

>  <Chi2n>  (106) 
9.39236

>  <Chi2v>  (106) 
9.39236

>  <Chi3n>  (106) 
6.572995

>  <Chi3v>  (106) 
6.572995

>  <Chi4n>  (106) 
4.27783

>  <Chi4v>  (106) 
4.27783

>  <HallKierAlpha>  (106) 
-4.14

>  <Ipc>  (106) 
321337165.808479

>  <Kappa1>  (106) 
24.549827

>  <Kappa2>  (106) 
11.281649

>  <Kappa3>  (106) 
6.354665

>  <LabuteASA>  (106) 
216.956249

>  <PEOE_VSA1>  (106) 
15.533487

>  <PEOE_VSA10>  (106) 
0.0

>  <PEOE_VSA11>  (106) 
0.0

>  <PEOE_VSA12>  (106) 
5.948339

>  <PEOE_VSA13>  (106) 
5.90718

>  <PEOE_VSA14>  (106) 
0.0

>  <PEOE_VSA2>  (106) 
14.678425

>  <PEOE_VSA3>  (106) 
9.967957

>  <PEOE_VSA4>  (106) 
0.0

>  <PEOE_VSA5>  (106) 
0.0

>  <PEOE_VSA6>  (106) 
18.199101

>  <PEOE_VSA7>  (106) 
67.562882

>  <PEOE_VSA8>  (106) 
73.815988

>  <PEOE_VSA9>  (106) 
5.693928

>  <SMR_VSA1>  (106) 
4.794537

>  <SMR_VSA10>  (106) 
23.230292

>  <SMR_VSA2>  (106) 
0.0

>  <SMR_VSA3>  (106) 
24.751755

>  <SMR_VSA4>  (106) 
0.0

>  <SMR_VSA5>  (106) 
13.468494

>  <SMR_VSA6>  (106) 
43.860275

>  <SMR_VSA7>  (106) 
95.944556

>  <SMR_VSA8>  (106) 
0.0

>  <SMR_VSA9>  (106) 
11.257379

>  <SlogP_VSA1>  (106) 
10.633577

>  <SlogP_VSA10>  (106) 
17.323112

>  <SlogP_VSA11>  (106) 
0.0

>  <SlogP_VSA12>  (106) 
0.0

>  <SlogP_VSA2>  (106) 
63.885632

>  <SlogP_VSA3>  (106) 
6.544756

>  <SlogP_VSA4>  (106) 
6.923737

>  <SlogP_VSA5>  (106) 
21.484892

>  <SlogP_VSA6>  (106) 
79.254201

>  <SlogP_VSA7>  (106) 
0.0

>  <SlogP_VSA8>  (106) 
11.257379

>  <SlogP_VSA9>  (106) 
0.0

>  <EState_VSA1>  (106) 
0.0

>  <EState_VSA10>  (106) 
4.794537

>  <EState_VSA11>  (106) 
0.0

>  <EState_VSA2>  (106) 
5.90718

>  <EState_VSA3>  (106) 
17.199177

>  <EState_VSA4>  (106) 
55.231999

>  <EState_VSA5>  (106) 
5.563451

>  <EState_VSA6>  (106) 
18.590531

>  <EState_VSA7>  (106) 
67.587408

>  <EState_VSA8>  (106) 
42.433004

>  <EState_VSA9>  (106) 
0.0

>  <VSA_EState1>  (106) 
0.0

>  <VSA_EState10>  (106) 
0.0

>  <VSA_EState2>  (106) 
30.864657

>  <VSA_EState3>  (106) 
6.293714

>  <VSA_EState4>  (106) 
6.081945

>  <VSA_EState5>  (106) 
0.333004

>  <VSA_EState6>  (106) 
19.314838

>  <VSA_EState7>  (106) 
5.216715

>  <VSA_EState8>  (106) 
7.235457

>  <VSA_EState9>  (106) 
2.15967

>  <FractionCSP3>  (106) 
0.241379

>  <HeavyAtomCount>  (106) 
37

>  <NHOHCount>  (106) 
2

>  <NOCount>  (106) 
8

>  <NumAliphaticCarbocycles>  (106) 
0

>  <NumAliphaticHeterocycles>  (106) 
1

>  <NumAliphaticRings>  (106) 
1

>  <NumAromaticCarbocycles>  (106) 
2

>  <NumAromaticHeterocycles>  (106) 
2

>  <NumAromaticRings>  (106) 
4

>  <NumHAcceptors>  (106) 
7

>  <NumHDonors>  (106) 
2

>  <NumHeteroatoms>  (106) 
8

>  <NumRotatableBonds>  (106) 
7

>  <NumSaturatedCarbocycles>  (106) 
0

>  <NumSaturatedHeterocycles>  (106) 
1

>  <NumSaturatedRings>  (106) 
1

>  <RingCount>  (106) 
5

>  <MolLogP>  (106) 
4.59032

>  <MolMR>  (106) 
146.8939

>  <fr_Al_COO>  (106) 
0

>  <fr_Al_OH>  (106) 
0

>  <fr_Al_OH_noTert>  (106) 
0

>  <fr_ArN>  (106) 
0

>  <fr_Ar_COO>  (106) 
0

>  <fr_Ar_N>  (106) 
3

>  <fr_Ar_NH>  (106) 
0

>  <fr_Ar_OH>  (106) 
0

>  <fr_COO>  (106) 
0

>  <fr_COO2>  (106) 
0

>  <fr_C_O>  (106) 
1

>  <fr_C_O_noCOO>  (106) 
1

>  <fr_C_S>  (106) 
0

>  <fr_HOCCN>  (106) 
0

>  <fr_Imine>  (106) 
0

>  <fr_NH0>  (106) 
5

>  <fr_NH1>  (106) 
2

>  <fr_NH2>  (106) 
0

>  <fr_N_O>  (106) 
0

>  <fr_Ndealkylation1>  (106) 
1

>  <fr_Ndealkylation2>  (106) 
0

>  <fr_Nhpyrrole>  (106) 
0

>  <fr_SH>  (106) 
0

>  <fr_aldehyde>  (106) 
0

>  <fr_alkyl_carbamate>  (106) 
0

>  <fr_alkyl_halide>  (106) 
0

>  <fr_allylic_oxid>  (106) 
0

>  <fr_amide>  (106) 
1

>  <fr_amidine>  (106) 
0

>  <fr_aniline>  (106) 
3

>  <fr_aryl_methyl>  (106) 
1

>  <fr_azide>  (106) 
0

>  <fr_azo>  (106) 
0

>  <fr_barbitur>  (106) 
0

>  <fr_benzene>  (106) 
2

>  <fr_benzodiazepine>  (106) 
0

>  <fr_bicyclic>  (106) 
0

>  <fr_diazo>  (106) 
0

>  <fr_dihydropyridine>  (106) 
0

>  <fr_epoxide>  (106) 
0

>  <fr_ester>  (106) 
0

>  <fr_ether>  (106) 
0

>  <fr_furan>  (106) 
0

>  <fr_guanido>  (106) 
0

>  <fr_halogen>  (106) 
0

>  <fr_hdrzine>  (106) 
0

>  <fr_hdrzone>  (106) 
0

>  <fr_imidazole>  (106) 
0

>  <fr_imide>  (106) 
0

>  <fr_isocyan>  (106) 
0

>  <fr_isothiocyan>  (106) 
0

>  <fr_ketone>  (106) 
0

>  <fr_ketone_Topliss>  (106) 
0

>  <fr_lactam>  (106) 
0

>  <fr_lactone>  (106) 
0

>  <fr_methoxy>  (106) 
0

>  <fr_morpholine>  (106) 
0

>  <fr_nitrile>  (106) 
0

>  <fr_nitro>  (106) 
0

>  <fr_nitro_arom>  (106) 
0

>  <fr_nitro_arom_nonortho>  (106) 
0

>  <fr_nitroso>  (106) 
0

>  <fr_oxazole>  (106) 
0

>  <fr_oxime>  (106) 
0

>  <fr_para_hydroxylation>  (106) 
0

>  <fr_phenol>  (106) 
0

>  <fr_phenol_noOrthoHbond>  (106) 
0

>  <fr_phos_acid>  (106) 
0

>  <fr_phos_ester>  (106) 
0

>  <fr_piperdine>  (106) 
0

>  <fr_piperzine>  (106) 
1

>  <fr_priamide>  (106) 
0

>  <fr_prisulfonamd>  (106) 
0

>  <fr_pyridine>  (106) 
1

>  <fr_quatN>  (106) 
0

>  <fr_sulfide>  (106) 
0

>  <fr_sulfonamd>  (106) 
0

>  <fr_sulfone>  (106) 
0

>  <fr_term_acetylene>  (106) 
0

>  <fr_tetrazole>  (106) 
0

>  <fr_thiazole>  (106) 
0

>  <fr_thiocyan>  (106) 
0

>  <fr_thiophene>  (106) 
0

>  <fr_unbrch_alkane>  (106) 
0

>  <fr_urea>  (106) 
0

>  <NP_Likeness>  (106) 
-1.798028

$$$$
nan
     RDKit          3D

  0  0  0  0  0  0  0  0  0  0999 V3000
M  V30 BEGIN CTAB
M  V30 COUNTS 37 39 0 0 0
M  V30 BEGIN ATOM
M  V30 1 O 1.577255 -1.714559 3.194716 0
M  V30 2 S 0.848803 -0.737678 2.286557 0
M  V30 3 O 0.382799 0.368539 3.232518 0
M  V30 4 C 1.971353 -0.145827 1.131271 0
M  V30 5 C 3.257668 -0.693127 1.050982 0
M  V30 6 C 4.242527 -0.333258 0.162400 0
M  V30 7 C 3.963830 0.661996 -0.750884 0
M  V30 8 C 2.723234 1.252556 -0.738995 0
M  V30 9 C 2.377436 2.268359 -1.626840 0
M  V30 10 N 1.149931 2.866023 -1.615858 0
M  V30 11 C 0.218379 2.459941 -0.703390 0
M  V30 12 C 0.586605 1.462833 0.152747 0
M  V30 13 C 1.810323 0.832273 0.176979 0
M  V30 14 N -0.527896 -1.506856 1.706019 0
M  V30 15 C -1.722938 -0.814130 2.031743 0
M  V30 16 C -2.574654 -0.494251 0.831054 0
M  V30 17 C -2.218635 -1.515669 -0.250786 0
M  V30 18 N -2.445092 -2.821501 0.280136 0
M  V30 19 C -1.218539 -3.512745 0.629929 0
M  V30 20 C -0.591290 -2.925729 1.881153 0
M  V30 21 H 3.539979 -1.490789 1.752821 0
M  V30 22 H 5.206199 -0.808446 0.171250 0
M  V30 23 H 4.704126 0.960358 -1.448997 0
M  V30 24 H 3.168493 2.544989 -2.329690 0
M  V30 25 H -0.756170 2.928244 -0.687605 0
M  V30 26 H -0.170123 1.179351 0.861917 0
M  V30 27 H -1.520204 0.153384 2.559203 0
M  V30 28 H -2.325670 -1.488591 2.702429 0
M  V30 29 H -2.444834 0.537412 0.447684 0
M  V30 30 H -3.644623 -0.617262 1.097232 0
M  V30 31 H -1.179281 -1.348823 -0.588476 0
M  V30 32 H -2.909829 -1.321472 -1.096716 0
M  V30 33 H -3.047471 -3.403157 -0.325915 0
M  V30 34 H -0.497753 -3.533989 -0.217912 0
M  V30 35 H -1.507667 -4.573796 0.786405 0
M  V30 36 H -1.235708 -3.260925 2.727685 0
M  V30 37 H 0.407085 -3.370100 1.970205 0
M  V30 END ATOM
M  V30 BEGIN BOND
M  V30 1 2 1 2
M  V30 2 2 2 3
M  V30 3 1 2 4
M  V30 4 2 4 5
M  V30 5 1 5 6
M  V30 6 2 6 7
M  V30 7 1 7 8
M  V30 8 2 8 9
M  V30 9 1 9 10
M  V30 10 2 10 11
M  V30 11 1 11 12
M  V30 12 2 12 13
M  V30 13 1 2 14
M  V30 14 1 14 15
M  V30 15 1 15 16
M  V30 16 1 16 17
M  V30 17 1 17 18
M  V30 18 1 18 19
M  V30 19 1 19 20
M  V30 20 1 13 4
M  V30 21 1 20 14
M  V30 22 1 13 8
M  V30 23 1 5 21
M  V30 24 1 6 22
M  V30 25 1 7 23
M  V30 26 1 9 24
M  V30 27 1 11 25
M  V30 28 1 12 26
M  V30 29 1 15 27
M  V30 30 1 15 28
M  V30 31 1 16 29
M  V30 32 1 16 30
M  V30 33 1 17 31
M  V30 34 1 17 32
M  V30 35 1 18 33
M  V30 36 1 19 34
M  V30 37 1 19 35
M  V30 38 1 20 36
M  V30 39 1 20 37
M  V30 END BOND
M  V30 END CTAB
M  END
>  <Dataset>  (107) 
PKIs

>  <Ligand_Instance>  (107) 
nan

>  <PDB_ID>  (107) 
nan

>  <Standardized_SMILES>  (107) 
O=S(=O)(c1cccc2cnccc12)N1CCCNCC1

>  <Name>  (107) 
Fasudil

>  <Pocket>  (107) 
nan

>  <ATP_Site>  (107) 
nan

>  <Peripheral>  (107) 
nan

>  <Num_H_Atoms_ProtBoundConf>  (107) 
nan

>  <Num_Resolved_Atoms>  (107) 
nan

>  <Num_Not_Resolved_Atoms>  (107) 
nan

>  <2D_Mol_H>  (107) 
<rdkit.Chem.rdchem.Mol object at 0x72a2391431b0>

>  <MW>  (107) 
291.376

>  <HBA>  (107) 
4

>  <HBD>  (107) 
1

>  <LogP>  (107) 
1.2188

>  <NRB>  (107) 
2

>  <TPSA>  (107) 
62.3

>  <Num_Heavy_Atoms>  (107) 
20

>  <Ro5>  (107) 
[True, True, True, True, True, True]

>  <Ro5_Fulfilled>  (107) 
True

>  <Ro3>  (107) 
[True, False, True, True]

>  <Ro3_Fulfilled>  (107) 
True

>  <Fsp3>  (107) 
0.357143

>  <Fsp3_0.42>  (107) 
False

>  <Fsp3_0.45>  (107) 
False

>  <Stereogenic_Carbons>  (107) 
0

>  <C_Atoms>  (107) 
14

>  <FCStereo>  (107) 
0.0

>  <SPS>  (107) 
360

>  <nSPS>  (107) 
18.0

>  <PBF>  (107) 
0.966978

>  <PBF_0.6>  (107) 
True

>  <nPBF>  (107) 
0.048349

>  <nPBF_0.016>  (107) 
True

>  <PMI1>  (107) 
1012.838475

>  <PMI2>  (107) 
1935.239452

>  <PMI3>  (107) 
2335.099527

>  <NPR1>  (107) 
0.433745

>  <NPR2>  (107) 
0.828761

>  <Sum_NPR>  (107) 
1.262506

>  <Sum_NPR_1.07>  (107) 
True

>  <Sum_NPR_1.2>  (107) 
True

>  <MaxAbsEStateIndex>  (107) 
12.831725

>  <MaxEStateIndex>  (107) 
12.831725

>  <MinAbsEStateIndex>  (107) 
0.374352

>  <MinEStateIndex>  (107) 
-3.446412

>  <qed>  (107) 
0.903457

>  <MolWt>  (107) 
291.376

>  <HeavyAtomMolWt>  (107) 
274.24

>  <ExactMolWt>  (107) 
291.104148

>  <NumValenceElectrons>  (107) 
106

>  <NumRadicalElectrons>  (107) 
0

>  <MaxPartialCharge>  (107) 
0.243232

>  <MinPartialCharge>  (107) 
-0.31537

>  <MaxAbsPartialCharge>  (107) 
0.31537

>  <MinAbsPartialCharge>  (107) 
0.243232

>  <FpDensityMorgan1>  (107) 
1.15

>  <FpDensityMorgan2>  (107) 
2.05

>  <FpDensityMorgan3>  (107) 
2.95

>  <BCUT2D_MWHI>  (107) 
32.233427

>  <BCUT2D_MWLOW>  (107) 
10.168311

>  <BCUT2D_CHGHI>  (107) 
2.259759

>  <BCUT2D_CHGLO>  (107) 
-2.201172

>  <BCUT2D_LOGPHI>  (107) 
2.24849

>  <BCUT2D_LOGPLOW>  (107) 
-2.338414

>  <BCUT2D_MRHI>  (107) 
7.889647

>  <BCUT2D_MRLOW>  (107) 
0.432319

>  <AvgIpc>  (107) 
2.759566

>  <BalabanJ>  (107) 
2.085841

>  <BertzCT>  (107) 
701.935726

>  <Chi0>  (107) 
14.001789

>  <Chi0n>  (107) 
11.118808

>  <Chi0v>  (107) 
11.935304

>  <Chi1>  (107) 
9.693507

>  <Chi1n>  (107) 
6.730692

>  <Chi1v>  (107) 
8.170756

>  <Chi2n>  (107) 
4.860599

>  <Chi2v>  (107) 
6.766956

>  <Chi3n>  (107) 
3.557609

>  <Chi3v>  (107) 
5.514403

>  <Chi4n>  (107) 
2.518183

>  <Chi4v>  (107) 
4.211793

>  <HallKierAlpha>  (107) 
-1.5

>  <Ipc>  (107) 
56228.921022

>  <Kappa1>  (107) 
13.481559

>  <Kappa2>  (107) 
5.47472

>  <Kappa3>  (107) 
2.416781

>  <LabuteASA>  (107) 
118.222067

>  <PEOE_VSA1>  (107) 
5.316789

>  <PEOE_VSA10>  (107) 
0.0

>  <PEOE_VSA11>  (107) 
0.0

>  <PEOE_VSA12>  (107) 
10.023291

>  <PEOE_VSA13>  (107) 
0.0

>  <PEOE_VSA14>  (107) 
0.0

>  <PEOE_VSA2>  (107) 
4.983979

>  <PEOE_VSA3>  (107) 
8.417797

>  <PEOE_VSA4>  (107) 
4.305216

>  <PEOE_VSA5>  (107) 
0.0

>  <PEOE_VSA6>  (107) 
12.132734

>  <PEOE_VSA7>  (107) 
25.098312

>  <PEOE_VSA8>  (107) 
42.800405

>  <PEOE_VSA9>  (107) 
4.895483

>  <SMR_VSA1>  (107) 
8.417797

>  <SMR_VSA10>  (107) 
20.79574

>  <SMR_VSA2>  (107) 
0.0

>  <SMR_VSA3>  (107) 
14.605983

>  <SMR_VSA4>  (107) 
0.0

>  <SMR_VSA5>  (107) 
11.316305

>  <SMR_VSA6>  (107) 
26.179026

>  <SMR_VSA7>  (107) 
36.659155

>  <SMR_VSA8>  (107) 
0.0

>  <SMR_VSA9>  (107) 
0.0

>  <SlogP_VSA1>  (107) 
5.316789

>  <SlogP_VSA10>  (107) 
0.0

>  <SlogP_VSA11>  (107) 
0.0

>  <SlogP_VSA12>  (107) 
0.0

>  <SlogP_VSA2>  (107) 
43.886017

>  <SlogP_VSA3>  (107) 
10.023291

>  <SlogP_VSA4>  (107) 
0.0

>  <SlogP_VSA5>  (107) 
6.420822

>  <SlogP_VSA6>  (107) 
41.554639

>  <SlogP_VSA7>  (107) 
0.0

>  <SlogP_VSA8>  (107) 
10.772448

>  <SlogP_VSA9>  (107) 
0.0

>  <EState_VSA1>  (107) 
10.023291

>  <EState_VSA10>  (107) 
8.417797

>  <EState_VSA11>  (107) 
0.0

>  <EState_VSA2>  (107) 
0.0

>  <EState_VSA3>  (107) 
24.529753

>  <EState_VSA4>  (107) 
23.738026

>  <EState_VSA5>  (107) 
0.0

>  <EState_VSA6>  (107) 
34.898004

>  <EState_VSA7>  (107) 
6.066367

>  <EState_VSA8>  (107) 
10.300767

>  <EState_VSA9>  (107) 
0.0

>  <VSA_EState1>  (107) 
27.235079

>  <VSA_EState10>  (107) 
0.0

>  <VSA_EState2>  (107) 
4.419481

>  <VSA_EState3>  (107) 
4.806299

>  <VSA_EState4>  (107) 
0.0

>  <VSA_EState5>  (107) 
0.0

>  <VSA_EState6>  (107) 
7.089859

>  <VSA_EState7>  (107) 
4.161926

>  <VSA_EState8>  (107) 
2.650435

>  <VSA_EState9>  (107) 
-3.446412

>  <FractionCSP3>  (107) 
0.357143

>  <HeavyAtomCount>  (107) 
20

>  <NHOHCount>  (107) 
1

>  <NOCount>  (107) 
5

>  <NumAliphaticCarbocycles>  (107) 
0

>  <NumAliphaticHeterocycles>  (107) 
1

>  <NumAliphaticRings>  (107) 
1

>  <NumAromaticCarbocycles>  (107) 
1

>  <NumAromaticHeterocycles>  (107) 
1

>  <NumAromaticRings>  (107) 
2

>  <NumHAcceptors>  (107) 
4

>  <NumHDonors>  (107) 
1

>  <NumHeteroatoms>  (107) 
6

>  <NumRotatableBonds>  (107) 
2

>  <NumSaturatedCarbocycles>  (107) 
0

>  <NumSaturatedHeterocycles>  (107) 
1

>  <NumSaturatedRings>  (107) 
1

>  <RingCount>  (107) 
3

>  <MolLogP>  (107) 
1.2188

>  <MolMR>  (107) 
77.9885

>  <fr_Al_COO>  (107) 
0

>  <fr_Al_OH>  (107) 
0

>  <fr_Al_OH_noTert>  (107) 
0

>  <fr_ArN>  (107) 
0

>  <fr_Ar_COO>  (107) 
0

>  <fr_Ar_N>  (107) 
1

>  <fr_Ar_NH>  (107) 
0

>  <fr_Ar_OH>  (107) 
0

>  <fr_COO>  (107) 
0

>  <fr_COO2>  (107) 
0

>  <fr_C_O>  (107) 
0

>  <fr_C_O_noCOO>  (107) 
0

>  <fr_C_S>  (107) 
0

>  <fr_HOCCN>  (107) 
0

>  <fr_Imine>  (107) 
0

>  <fr_NH0>  (107) 
2

>  <fr_NH1>  (107) 
1

>  <fr_NH2>  (107) 
0

>  <fr_N_O>  (107) 
0

>  <fr_Ndealkylation1>  (107) 
0

>  <fr_Ndealkylation2>  (107) 
0

>  <fr_Nhpyrrole>  (107) 
0

>  <fr_SH>  (107) 
0

>  <fr_aldehyde>  (107) 
0

>  <fr_alkyl_carbamate>  (107) 
0

>  <fr_alkyl_halide>  (107) 
0

>  <fr_allylic_oxid>  (107) 
0

>  <fr_amide>  (107) 
0

>  <fr_amidine>  (107) 
0

>  <fr_aniline>  (107) 
0

>  <fr_aryl_methyl>  (107) 
0

>  <fr_azide>  (107) 
0

>  <fr_azo>  (107) 
0

>  <fr_barbitur>  (107) 
0

>  <fr_benzene>  (107) 
1

>  <fr_benzodiazepine>  (107) 
0

>  <fr_bicyclic>  (107) 
1

>  <fr_diazo>  (107) 
0

>  <fr_dihydropyridine>  (107) 
0

>  <fr_epoxide>  (107) 
0

>  <fr_ester>  (107) 
0

>  <fr_ether>  (107) 
0

>  <fr_furan>  (107) 
0

>  <fr_guanido>  (107) 
0

>  <fr_halogen>  (107) 
0

>  <fr_hdrzine>  (107) 
0

>  <fr_hdrzone>  (107) 
0

>  <fr_imidazole>  (107) 
0

>  <fr_imide>  (107) 
0

>  <fr_isocyan>  (107) 
0

>  <fr_isothiocyan>  (107) 
0

>  <fr_ketone>  (107) 
0

>  <fr_ketone_Topliss>  (107) 
0

>  <fr_lactam>  (107) 
0

>  <fr_lactone>  (107) 
0

>  <fr_methoxy>  (107) 
0

>  <fr_morpholine>  (107) 
0

>  <fr_nitrile>  (107) 
0

>  <fr_nitro>  (107) 
0

>  <fr_nitro_arom>  (107) 
0

>  <fr_nitro_arom_nonortho>  (107) 
0

>  <fr_nitroso>  (107) 
0

>  <fr_oxazole>  (107) 
0

>  <fr_oxime>  (107) 
0

>  <fr_para_hydroxylation>  (107) 
0

>  <fr_phenol>  (107) 
0

>  <fr_phenol_noOrthoHbond>  (107) 
0

>  <fr_phos_acid>  (107) 
0

>  <fr_phos_ester>  (107) 
0

>  <fr_piperdine>  (107) 
0

>  <fr_piperzine>  (107) 
0

>  <fr_priamide>  (107) 
0

>  <fr_prisulfonamd>  (107) 
0

>  <fr_pyridine>  (107) 
1

>  <fr_quatN>  (107) 
0

>  <fr_sulfide>  (107) 
0

>  <fr_sulfonamd>  (107) 
1

>  <fr_sulfone>  (107) 
0

>  <fr_term_acetylene>  (107) 
0

>  <fr_tetrazole>  (107) 
0

>  <fr_thiazole>  (107) 
0

>  <fr_thiocyan>  (107) 
0

>  <fr_thiophene>  (107) 
0

>  <fr_unbrch_alkane>  (107) 
0

>  <fr_urea>  (107) 
0

>  <NP_Likeness>  (107) 
-1.638751

$$$$
