CHEMBL609
     RDKit          3D

  0  0  0  0  0  0  0  0  0  0999 V3000
M  V30 BEGIN CTAB
M  V30 COUNTS 28 27 0 0 0
M  V30 BEGIN ATOM
M  V30 1 N 0.601314 3.695228 1.988313 0
M  V30 2 C 1.773296 2.904667 2.240479 0
M  V30 3 C 1.445293 1.472797 2.707834 0
M  V30 4 N 0.668493 0.812248 1.703207 0
M  V30 5 C 0.439110 -0.608849 1.900033 0
M  V30 6 C -0.122208 -1.064611 0.582236 0
M  V30 7 N -0.399874 -2.400566 0.361875 0
M  V30 8 C -0.775950 -2.635664 -0.996547 0
M  V30 9 C -0.902993 -4.031349 -1.437865 0
M  V30 10 N 0.341592 -4.777797 -1.295671 0
M  V30 11 H 0.274312 3.627559 0.982224 0
M  V30 12 H -0.185592 3.542491 2.656353 0
M  V30 13 H 2.313326 2.818436 1.260343 0
M  V30 14 H 2.487915 3.364886 2.947753 0
M  V30 15 H 2.420314 0.995542 2.942724 0
M  V30 16 H 0.863363 1.587214 3.632961 0
M  V30 17 H -0.263504 1.305909 1.596292 0
M  V30 18 H 1.342217 -1.151857 2.219147 0
M  V30 19 H -0.357211 -0.719535 2.688015 0
M  V30 20 H -1.128604 -0.529182 0.527445 0
M  V30 21 H 0.444234 -0.643196 -0.271809 0
M  V30 22 H -0.241853 -3.147095 0.988280 0
M  V30 23 H -1.761145 -2.104570 -1.170603 0
M  V30 24 H -0.043012 -2.118034 -1.629107 0
M  V30 25 H -1.776387 -4.555358 -1.070944 0
M  V30 26 H -1.052051 -3.991604 -2.573158 0
M  V30 27 H 1.004365 -4.346220 -2.008533 0
M  V30 28 H 0.796844 -4.554476 -0.368667 0
M  V30 END ATOM
M  V30 BEGIN BOND
M  V30 1 1 1 2
M  V30 2 1 2 3
M  V30 3 1 3 4
M  V30 4 1 4 5
M  V30 5 1 5 6
M  V30 6 1 6 7
M  V30 7 1 7 8
M  V30 8 1 8 9
M  V30 9 1 9 10
M  V30 10 1 1 11
M  V30 11 1 1 12
M  V30 12 1 2 13
M  V30 13 1 2 14
M  V30 14 1 3 15
M  V30 15 1 3 16
M  V30 16 1 4 17
M  V30 17 1 5 18
M  V30 18 1 5 19
M  V30 19 1 6 20
M  V30 20 1 6 21
M  V30 21 1 7 22
M  V30 22 1 8 23
M  V30 23 1 8 24
M  V30 24 1 9 25
M  V30 25 1 9 26
M  V30 26 1 10 27
M  V30 27 1 10 28
M  V30 END BOND
M  V30 END CTAB
M  END
>  <Dataset>  (1) 
OralDrugs

>  <Ligand_Instance>  (1) 
nan

>  <PDB_ID>  (1) 
nan

>  <Standardized_SMILES>  (1) 
NCCNCCNCCN

>  <Name>  (1) 
Trientine

>  <Pocket>  (1) 
nan

>  <ATP_Site>  (1) 
nan

>  <Peripheral>  (1) 
nan

>  <Num_H_Atoms_ProtBoundConf>  (1) 
nan

>  <Num_Resolved_Atoms>  (1) 
nan

>  <Num_Not_Resolved_Atoms>  (1) 
nan

>  <2D_Mol_H>  (1) 
<rdkit.Chem.rdchem.Mol object at 0x72a238b92500>

>  <MW>  (1) 
146.238

>  <HBA>  (1) 
4

>  <HBD>  (1) 
4

>  <LogP>  (1) 
-1.917

>  <NRB>  (1) 
9

>  <TPSA>  (1) 
76.1

>  <Num_Heavy_Atoms>  (1) 
10

>  <Ro5>  (1) 
[True, True, True, True, True, True]

>  <Ro5_Fulfilled>  (1) 
True

>  <Ro3>  (1) 
[True, False, False, True]

>  <Ro3_Fulfilled>  (1) 
False

>  <Fsp3>  (1) 
1.0

>  <Fsp3_0.42>  (1) 
True

>  <Fsp3_0.45>  (1) 
True

>  <Stereogenic_Carbons>  (1) 
0

>  <C_Atoms>  (1) 
6

>  <FCStereo>  (1) 
0.0

>  <SPS>  (1) 
102

>  <nSPS>  (1) 
10.2

>  <PBF>  (1) 
0.69275

>  <PBF_0.6>  (1) 
True

>  <nPBF>  (1) 
0.069275

>  <nPBF_0.016>  (1) 
True

>  <PMI1>  (1) 
121.286704

>  <PMI2>  (1) 
1487.174588

>  <PMI3>  (1) 
1526.102437

>  <NPR1>  (1) 
0.079475

>  <NPR2>  (1) 
0.974492

>  <Sum_NPR>  (1) 
1.053967

>  <Sum_NPR_1.07>  (1) 
False

>  <Sum_NPR_1.2>  (1) 
False

>  <MaxAbsEStateIndex>  (1) 
5.266511

>  <MaxEStateIndex>  (1) 
5.266511

>  <MinAbsEStateIndex>  (1) 
0.705247

>  <MinEStateIndex>  (1) 
0.705247

>  <qed>  (1) 
0.315926

>  <MolWt>  (1) 
146.238

>  <HeavyAtomMolWt>  (1) 
128.094

>  <ExactMolWt>  (1) 
146.153147

>  <NumValenceElectrons>  (1) 
62

>  <NumRadicalElectrons>  (1) 
0

>  <MaxPartialCharge>  (1) 
0.007723

>  <MinPartialCharge>  (1) 
-0.329208

>  <MaxAbsPartialCharge>  (1) 
0.329208

>  <MinAbsPartialCharge>  (1) 
0.007723

>  <FpDensityMorgan1>  (1) 
0.7

>  <FpDensityMorgan2>  (1) 
1.1

>  <FpDensityMorgan3>  (1) 
1.4

>  <BCUT2D_MWHI>  (1) 
14.947278

>  <BCUT2D_MWLOW>  (1) 
10.513705

>  <BCUT2D_CHGHI>  (1) 
1.833504

>  <BCUT2D_CHGLO>  (1) 
-2.025786

>  <BCUT2D_LOGPHI>  (1) 
1.566826

>  <BCUT2D_LOGPLOW>  (1) 
-2.323693

>  <BCUT2D_MRHI>  (1) 
4.513507

>  <BCUT2D_MRLOW>  (1) 
0.618197

>  <AvgIpc>  (1) 
1.967154

>  <BalabanJ>  (1) 
2.647605

>  <BertzCT>  (1) 
49.709506

>  <Chi0>  (1) 
7.656854

>  <Chi0n>  (1) 
6.397341

>  <Chi0v>  (1) 
6.397341

>  <Chi1>  (1) 
4.914214

>  <Chi1n>  (1) 
3.73071

>  <Chi1v>  (1) 
3.73071

>  <Chi2n>  (1) 
2.07735

>  <Chi2v>  (1) 
2.07735

>  <Chi3n>  (1) 
1.120782

>  <Chi3v>  (1) 
1.120782

>  <Chi4n>  (1) 
0.630901

>  <Chi4v>  (1) 
0.630901

>  <HallKierAlpha>  (1) 
-0.16

>  <Ipc>  (1) 
175.076748

>  <Kappa1>  (1) 
9.84

>  <Kappa2>  (1) 
8.84

>  <Kappa3>  (1) 
7.84

>  <LabuteASA>  (1) 
62.343467

>  <PEOE_VSA1>  (1) 
22.100912

>  <PEOE_VSA10>  (1) 
0.0

>  <PEOE_VSA11>  (1) 
0.0

>  <PEOE_VSA12>  (1) 
0.0

>  <PEOE_VSA13>  (1) 
0.0

>  <PEOE_VSA14>  (1) 
0.0

>  <PEOE_VSA2>  (1) 
0.0

>  <PEOE_VSA3>  (1) 
0.0

>  <PEOE_VSA4>  (1) 
0.0

>  <PEOE_VSA5>  (1) 
0.0

>  <PEOE_VSA6>  (1) 
0.0

>  <PEOE_VSA7>  (1) 
0.0

>  <PEOE_VSA8>  (1) 
39.268538

>  <PEOE_VSA9>  (1) 
0.0

>  <SMR_VSA1>  (1) 
0.0

>  <SMR_VSA10>  (1) 
0.0

>  <SMR_VSA2>  (1) 
0.0

>  <SMR_VSA3>  (1) 
10.633577

>  <SMR_VSA4>  (1) 
11.467335

>  <SMR_VSA5>  (1) 
0.0

>  <SMR_VSA6>  (1) 
39.268538

>  <SMR_VSA7>  (1) 
0.0

>  <SMR_VSA8>  (1) 
0.0

>  <SMR_VSA9>  (1) 
0.0

>  <SlogP_VSA1>  (1) 
22.100912

>  <SlogP_VSA10>  (1) 
0.0

>  <SlogP_VSA11>  (1) 
0.0

>  <SlogP_VSA12>  (1) 
0.0

>  <SlogP_VSA2>  (1) 
39.268538

>  <SlogP_VSA3>  (1) 
0.0

>  <SlogP_VSA4>  (1) 
0.0

>  <SlogP_VSA5>  (1) 
0.0

>  <SlogP_VSA6>  (1) 
0.0

>  <SlogP_VSA7>  (1) 
0.0

>  <SlogP_VSA8>  (1) 
0.0

>  <SlogP_VSA9>  (1) 
0.0

>  <EState_VSA1>  (1) 
0.0

>  <EState_VSA10>  (1) 
0.0

>  <EState_VSA11>  (1) 
0.0

>  <EState_VSA2>  (1) 
0.0

>  <EState_VSA3>  (1) 
13.089513

>  <EState_VSA4>  (1) 
26.179026

>  <EState_VSA5>  (1) 
0.0

>  <EState_VSA6>  (1) 
0.0

>  <EState_VSA7>  (1) 
0.0

>  <EState_VSA8>  (1) 
10.633577

>  <EState_VSA9>  (1) 
11.467335

>  <VSA_EState1>  (1) 
0.0

>  <VSA_EState10>  (1) 
0.0

>  <VSA_EState2>  (1) 
0.0

>  <VSA_EState3>  (1) 
6.331276

>  <VSA_EState4>  (1) 
10.533022

>  <VSA_EState5>  (1) 
0.0

>  <VSA_EState6>  (1) 
0.0

>  <VSA_EState7>  (1) 
0.0

>  <VSA_EState8>  (1) 
5.135702

>  <VSA_EState9>  (1) 
0.0

>  <FractionCSP3>  (1) 
1.0

>  <HeavyAtomCount>  (1) 
10

>  <NHOHCount>  (1) 
6

>  <NOCount>  (1) 
4

>  <NumAliphaticCarbocycles>  (1) 
0

>  <NumAliphaticHeterocycles>  (1) 
0

>  <NumAliphaticRings>  (1) 
0

>  <NumAromaticCarbocycles>  (1) 
0

>  <NumAromaticHeterocycles>  (1) 
0

>  <NumAromaticRings>  (1) 
0

>  <NumHAcceptors>  (1) 
4

>  <NumHDonors>  (1) 
4

>  <NumHeteroatoms>  (1) 
4

>  <NumRotatableBonds>  (1) 
7

>  <NumSaturatedCarbocycles>  (1) 
0

>  <NumSaturatedHeterocycles>  (1) 
0

>  <NumSaturatedRings>  (1) 
0

>  <RingCount>  (1) 
0

>  <MolLogP>  (1) 
-1.917

>  <MolMR>  (1) 
43.8482

>  <fr_Al_COO>  (1) 
0

>  <fr_Al_OH>  (1) 
0

>  <fr_Al_OH_noTert>  (1) 
0

>  <fr_ArN>  (1) 
0

>  <fr_Ar_COO>  (1) 
0

>  <fr_Ar_N>  (1) 
0

>  <fr_Ar_NH>  (1) 
0

>  <fr_Ar_OH>  (1) 
0

>  <fr_COO>  (1) 
0

>  <fr_COO2>  (1) 
0

>  <fr_C_O>  (1) 
0

>  <fr_C_O_noCOO>  (1) 
0

>  <fr_C_S>  (1) 
0

>  <fr_HOCCN>  (1) 
0

>  <fr_Imine>  (1) 
0

>  <fr_NH0>  (1) 
0

>  <fr_NH1>  (1) 
2

>  <fr_NH2>  (1) 
2

>  <fr_N_O>  (1) 
0

>  <fr_Ndealkylation1>  (1) 
0

>  <fr_Ndealkylation2>  (1) 
0

>  <fr_Nhpyrrole>  (1) 
0

>  <fr_SH>  (1) 
0

>  <fr_aldehyde>  (1) 
0

>  <fr_alkyl_carbamate>  (1) 
0

>  <fr_alkyl_halide>  (1) 
0

>  <fr_allylic_oxid>  (1) 
0

>  <fr_amide>  (1) 
0

>  <fr_amidine>  (1) 
0

>  <fr_aniline>  (1) 
0

>  <fr_aryl_methyl>  (1) 
0

>  <fr_azide>  (1) 
0

>  <fr_azo>  (1) 
0

>  <fr_barbitur>  (1) 
0

>  <fr_benzene>  (1) 
0

>  <fr_benzodiazepine>  (1) 
0

>  <fr_bicyclic>  (1) 
0

>  <fr_diazo>  (1) 
0

>  <fr_dihydropyridine>  (1) 
0

>  <fr_epoxide>  (1) 
0

>  <fr_ester>  (1) 
0

>  <fr_ether>  (1) 
0

>  <fr_furan>  (1) 
0

>  <fr_guanido>  (1) 
0

>  <fr_halogen>  (1) 
0

>  <fr_hdrzine>  (1) 
0

>  <fr_hdrzone>  (1) 
0

>  <fr_imidazole>  (1) 
0

>  <fr_imide>  (1) 
0

>  <fr_isocyan>  (1) 
0

>  <fr_isothiocyan>  (1) 
0

>  <fr_ketone>  (1) 
0

>  <fr_ketone_Topliss>  (1) 
0

>  <fr_lactam>  (1) 
0

>  <fr_lactone>  (1) 
0

>  <fr_methoxy>  (1) 
0

>  <fr_morpholine>  (1) 
0

>  <fr_nitrile>  (1) 
0

>  <fr_nitro>  (1) 
0

>  <fr_nitro_arom>  (1) 
0

>  <fr_nitro_arom_nonortho>  (1) 
0

>  <fr_nitroso>  (1) 
0

>  <fr_oxazole>  (1) 
0

>  <fr_oxime>  (1) 
0

>  <fr_para_hydroxylation>  (1) 
0

>  <fr_phenol>  (1) 
0

>  <fr_phenol_noOrthoHbond>  (1) 
0

>  <fr_phos_acid>  (1) 
0

>  <fr_phos_ester>  (1) 
0

>  <fr_piperdine>  (1) 
0

>  <fr_piperzine>  (1) 
0

>  <fr_priamide>  (1) 
0

>  <fr_prisulfonamd>  (1) 
0

>  <fr_pyridine>  (1) 
0

>  <fr_quatN>  (1) 
0

>  <fr_sulfide>  (1) 
0

>  <fr_sulfonamd>  (1) 
0

>  <fr_sulfone>  (1) 
0

>  <fr_term_acetylene>  (1) 
0

>  <fr_tetrazole>  (1) 
0

>  <fr_thiazole>  (1) 
0

>  <fr_thiocyan>  (1) 
0

>  <fr_thiophene>  (1) 
0

>  <fr_unbrch_alkane>  (1) 
0

>  <fr_urea>  (1) 
0

>  <NP_Likeness>  (1) 
-0.086509

$$$$
CHEMBL422
     RDKit          3D

  0  0  0  0  0  0  0  0  0  0999 V3000
M  V30 BEGIN CTAB
M  V30 COUNTS 52 55 0 0 0
M  V30 BEGIN ATOM
M  V30 1 C 0.135219 -4.251904 2.770744 0
M  V30 2 N 1.247151 -4.690779 1.984539 0
M  V30 3 C 2.490526 -4.224346 2.512849 0
M  V30 4 C 2.711149 -2.755651 2.436608 0
M  V30 5 N 1.831555 -2.067565 1.490895 0
M  V30 6 C 2.477480 -0.866752 0.949296 0
M  V30 7 C 1.521274 -0.022203 0.124147 0
M  V30 8 C 0.358006 0.463663 1.006056 0
M  V30 9 N -0.590673 1.249014 0.257426 0
M  V30 10 C -0.243831 2.558244 -0.134938 0
M  V30 11 C 0.940129 3.164325 0.229291 0
M  V30 12 C 1.379426 4.442111 -0.084009 0
M  V30 13 C 0.513277 5.189084 -0.853361 0
M  V30 14 C -0.697040 4.687468 -1.274324 0
M  V30 15 C -1.002032 3.412795 -0.894332 0
M  V30 16 S -2.598052 2.891945 -1.498639 0
M  V30 17 C -2.819531 1.241586 -0.866244 0
M  V30 18 C -4.004766 0.690309 -1.215586 0
M  V30 19 C -4.290742 -0.604280 -0.785919 0
M  V30 20 C -3.335265 -1.252220 -0.021364 0
M  V30 21 C -3.690676 -2.639006 0.418482 0
M  V30 22 F -3.293393 -3.546394 -0.532667 0
M  V30 23 F -3.104397 -2.913976 1.639796 0
M  V30 24 F -5.061828 -2.731817 0.561854 0
M  V30 25 C -2.175290 -0.604357 0.272828 0
M  V30 26 C -1.826971 0.668713 -0.115414 0
M  V30 27 C 1.798929 -2.992228 0.331973 0
M  V30 28 C 1.045196 -4.252017 0.636002 0
M  V30 29 H 0.444311 -4.190419 3.826765 0
M  V30 30 H -0.163739 -3.233677 2.407222 0
M  V30 31 H -0.702725 -4.973426 2.611690 0
M  V30 32 H 3.362771 -4.778375 2.098738 0
M  V30 33 H 2.486060 -4.524308 3.603356 0
M  V30 34 H 3.749938 -2.530949 2.145513 0
M  V30 35 H 2.580592 -2.328909 3.468354 0
M  V30 36 H 2.860939 -0.301586 1.821124 0
M  V30 37 H 3.345806 -1.090365 0.322957 0
M  V30 38 H 2.115700 0.786241 -0.321797 0
M  V30 39 H 1.098412 -0.615408 -0.706775 0
M  V30 40 H 0.003162 -0.423215 1.487427 0
M  V30 41 H 0.784143 1.142653 1.791804 0
M  V30 42 H 1.667779 2.650842 0.859912 0
M  V30 43 H 2.325114 4.847868 0.238960 0
M  V30 44 H 0.836559 6.205279 -1.117676 0
M  V30 45 H -1.314846 5.337298 -1.875276 0
M  V30 46 H -4.774988 1.158390 -1.807317 0
M  V30 47 H -5.226639 -1.073916 -1.048582 0
M  V30 48 H -1.545852 -1.247349 0.867688 0
M  V30 49 H 1.392829 -2.529832 -0.558915 0
M  V30 50 H 2.884344 -3.249113 0.167415 0
M  V30 51 H -0.019150 -4.130279 0.373591 0
M  V30 52 H 1.458988 -5.047753 -0.018478 0
M  V30 END ATOM
M  V30 BEGIN BOND
M  V30 1 1 1 2
M  V30 2 1 2 3
M  V30 3 1 3 4
M  V30 4 1 4 5
M  V30 5 1 5 6
M  V30 6 1 6 7
M  V30 7 1 7 8
M  V30 8 1 8 9
M  V30 9 1 9 10
M  V30 10 2 10 11
M  V30 11 1 11 12
M  V30 12 2 12 13
M  V30 13 1 13 14
M  V30 14 2 14 15
M  V30 15 1 15 16
M  V30 16 1 16 17
M  V30 17 2 17 18
M  V30 18 1 18 19
M  V30 19 2 19 20
M  V30 20 1 20 21
M  V30 21 1 21 22
M  V30 22 1 21 23
M  V30 23 1 21 24
M  V30 24 1 20 25
M  V30 25 2 25 26
M  V30 26 1 5 27
M  V30 27 1 27 28
M  V30 28 1 28 2
M  V30 29 1 26 9
M  V30 30 1 15 10
M  V30 31 1 26 17
M  V30 32 1 1 29
M  V30 33 1 1 30
M  V30 34 1 1 31
M  V30 35 1 3 32
M  V30 36 1 3 33
M  V30 37 1 4 34
M  V30 38 1 4 35
M  V30 39 1 6 36
M  V30 40 1 6 37
M  V30 41 1 7 38
M  V30 42 1 7 39
M  V30 43 1 8 40
M  V30 44 1 8 41
M  V30 45 1 11 42
M  V30 46 1 12 43
M  V30 47 1 13 44
M  V30 48 1 14 45
M  V30 49 1 18 46
M  V30 50 1 19 47
M  V30 51 1 25 48
M  V30 52 1 27 49
M  V30 53 1 27 50
M  V30 54 1 28 51
M  V30 55 1 28 52
M  V30 END BOND
M  V30 END CTAB
M  END
>  <Dataset>  (2) 
OralDrugs

>  <Ligand_Instance>  (2) 
nan

>  <PDB_ID>  (2) 
nan

>  <Standardized_SMILES>  (2) 
CN1CCN(CCCN2c3ccccc3Sc3ccc(C(F)(F)F)cc32)CC1

>  <Name>  (2) 
Trifluoperazine

>  <Pocket>  (2) 
nan

>  <ATP_Site>  (2) 
nan

>  <Peripheral>  (2) 
nan

>  <Num_H_Atoms_ProtBoundConf>  (2) 
nan

>  <Num_Resolved_Atoms>  (2) 
nan

>  <Num_Not_Resolved_Atoms>  (2) 
nan

>  <2D_Mol_H>  (2) 
<rdkit.Chem.rdchem.Mol object at 0x72a238b925e0>

>  <MW>  (2) 
407.505

>  <HBA>  (2) 
4

>  <HBD>  (2) 
0

>  <LogP>  (2) 
4.9456

>  <NRB>  (2) 
5

>  <TPSA>  (2) 
9.72

>  <Num_Heavy_Atoms>  (2) 
28

>  <Ro5>  (2) 
[True, True, True, True, True, True]

>  <Ro5_Fulfilled>  (2) 
True

>  <Ro3>  (2) 
[False, False, True, False]

>  <Ro3_Fulfilled>  (2) 
False

>  <Fsp3>  (2) 
0.428571

>  <Fsp3_0.42>  (2) 
True

>  <Fsp3_0.45>  (2) 
False

>  <Stereogenic_Carbons>  (2) 
0

>  <C_Atoms>  (2) 
21

>  <FCStereo>  (2) 
0.0

>  <SPS>  (2) 
506

>  <nSPS>  (2) 
18.071429

>  <PBF>  (2) 
0.688843

>  <PBF_0.6>  (2) 
True

>  <nPBF>  (2) 
0.024602

>  <nPBF_0.016>  (2) 
True

>  <PMI1>  (2) 
2525.766037

>  <PMI2>  (2) 
4107.770399

>  <PMI3>  (2) 
6306.909703

>  <NPR1>  (2) 
0.400476

>  <NPR2>  (2) 
0.651313

>  <Sum_NPR>  (2) 
1.051789

>  <Sum_NPR_1.07>  (2) 
False

>  <Sum_NPR_1.2>  (2) 
False

>  <MaxAbsEStateIndex>  (2) 
13.271382

>  <MaxEStateIndex>  (2) 
13.271382

>  <MinAbsEStateIndex>  (2) 
0.587686

>  <MinEStateIndex>  (2) 
-4.331191

>  <qed>  (2) 
0.709478

>  <MolWt>  (2) 
407.505

>  <HeavyAtomMolWt>  (2) 
383.313

>  <ExactMolWt>  (2) 
407.164303

>  <NumValenceElectrons>  (2) 
150

>  <NumRadicalElectrons>  (2) 
0

>  <MaxPartialCharge>  (2) 
0.415987

>  <MinPartialCharge>  (2) 
-0.339581

>  <MaxAbsPartialCharge>  (2) 
0.415987

>  <MinAbsPartialCharge>  (2) 
0.339581

>  <FpDensityMorgan1>  (2) 
0.892857

>  <FpDensityMorgan2>  (2) 
1.607143

>  <FpDensityMorgan3>  (2) 
2.357143

>  <BCUT2D_MWHI>  (2) 
32.166581

>  <BCUT2D_MWLOW>  (2) 
10.119875

>  <BCUT2D_CHGHI>  (2) 
2.328708

>  <BCUT2D_CHGLO>  (2) 
-2.351626

>  <BCUT2D_LOGPHI>  (2) 
2.489764

>  <BCUT2D_LOGPLOW>  (2) 
-2.446597

>  <BCUT2D_MRHI>  (2) 
7.993771

>  <BCUT2D_MRLOW>  (2) 
-0.137135

>  <AvgIpc>  (2) 
2.675601

>  <BalabanJ>  (2) 
1.5496

>  <BertzCT>  (2) 
831.885787

>  <Chi0>  (2) 
19.725404

>  <Chi0n>  (2) 
15.874982

>  <Chi0v>  (2) 
16.691478

>  <Chi1>  (2) 
13.414835

>  <Chi1n>  (2) 
9.582373

>  <Chi1v>  (2) 
10.39887

>  <Chi2n>  (2) 
7.400158

>  <Chi2v>  (2) 
8.483935

>  <Chi3n>  (2) 
5.404986

>  <Chi3v>  (2) 
6.535255

>  <Chi4n>  (2) 
3.770445

>  <Chi4v>  (2) 
4.846552

>  <HallKierAlpha>  (2) 
-1.7

>  <Ipc>  (2) 
2413649.143961

>  <Kappa1>  (2) 
19.609276

>  <Kappa2>  (2) 
7.968146

>  <Kappa3>  (2) 
4.161993

>  <LabuteASA>  (2) 
167.660531

>  <PEOE_VSA1>  (2) 
14.699729

>  <PEOE_VSA10>  (2) 
0.0

>  <PEOE_VSA11>  (2) 
0.0

>  <PEOE_VSA12>  (2) 
0.0

>  <PEOE_VSA13>  (2) 
0.0

>  <PEOE_VSA14>  (2) 
6.176299

>  <PEOE_VSA2>  (2) 
0.0

>  <PEOE_VSA3>  (2) 
0.0

>  <PEOE_VSA4>  (2) 
13.171245

>  <PEOE_VSA5>  (2) 
0.0

>  <PEOE_VSA6>  (2) 
23.894619

>  <PEOE_VSA7>  (2) 
50.345085

>  <PEOE_VSA8>  (2) 
42.514749

>  <PEOE_VSA9>  (2) 
16.938224

>  <SMR_VSA1>  (2) 
13.171245

>  <SMR_VSA10>  (2) 
23.136657

>  <SMR_VSA2>  (2) 
0.0

>  <SMR_VSA3>  (2) 
9.799819

>  <SMR_VSA4>  (2) 
0.0

>  <SMR_VSA5>  (2) 
22.388087

>  <SMR_VSA6>  (2) 
51.21612

>  <SMR_VSA7>  (2) 
48.028021

>  <SMR_VSA8>  (2) 
0.0

>  <SMR_VSA9>  (2) 
0.0

>  <SlogP_VSA1>  (2) 
4.89991

>  <SlogP_VSA10>  (2) 
24.546018

>  <SlogP_VSA11>  (2) 
0.0

>  <SlogP_VSA12>  (2) 
11.761885

>  <SlogP_VSA2>  (2) 
56.11603

>  <SlogP_VSA3>  (2) 
6.176299

>  <SlogP_VSA4>  (2) 
0.0

>  <SlogP_VSA5>  (2) 
11.984273

>  <SlogP_VSA6>  (2) 
52.255536

>  <SlogP_VSA7>  (2) 
0.0

>  <SlogP_VSA8>  (2) 
0.0

>  <SlogP_VSA9>  (2) 
0.0

>  <EState_VSA1>  (2) 
11.73975

>  <EState_VSA10>  (2) 
13.171245

>  <EState_VSA11>  (2) 
0.0

>  <EState_VSA2>  (2) 
0.0

>  <EState_VSA3>  (2) 
12.232143

>  <EState_VSA4>  (2) 
54.622957

>  <EState_VSA5>  (2) 
12.132734

>  <EState_VSA6>  (2) 
17.828252

>  <EState_VSA7>  (2) 
24.265468

>  <EState_VSA8>  (2) 
21.747401

>  <EState_VSA9>  (2) 
0.0

>  <VSA_EState1>  (2) 
39.814145

>  <VSA_EState10>  (2) 
1.542389

>  <VSA_EState2>  (2) 
8.799855

>  <VSA_EState3>  (2) 
0.0

>  <VSA_EState4>  (2) 
1.073985

>  <VSA_EState5>  (2) 
0.0

>  <VSA_EState6>  (2) 
12.048409

>  <VSA_EState7>  (2) 
-3.416111

>  <VSA_EState8>  (2) 
5.920229

>  <VSA_EState9>  (2) 
2.133766

>  <FractionCSP3>  (2) 
0.428571

>  <HeavyAtomCount>  (2) 
28

>  <NHOHCount>  (2) 
0

>  <NOCount>  (2) 
3

>  <NumAliphaticCarbocycles>  (2) 
0

>  <NumAliphaticHeterocycles>  (2) 
2

>  <NumAliphaticRings>  (2) 
2

>  <NumAromaticCarbocycles>  (2) 
2

>  <NumAromaticHeterocycles>  (2) 
0

>  <NumAromaticRings>  (2) 
2

>  <NumHAcceptors>  (2) 
4

>  <NumHDonors>  (2) 
0

>  <NumHeteroatoms>  (2) 
7

>  <NumRotatableBonds>  (2) 
4

>  <NumSaturatedCarbocycles>  (2) 
0

>  <NumSaturatedHeterocycles>  (2) 
1

>  <NumSaturatedRings>  (2) 
1

>  <RingCount>  (2) 
4

>  <MolLogP>  (2) 
4.9456

>  <MolMR>  (2) 
107.569

>  <fr_Al_COO>  (2) 
0

>  <fr_Al_OH>  (2) 
0

>  <fr_Al_OH_noTert>  (2) 
0

>  <fr_ArN>  (2) 
0

>  <fr_Ar_COO>  (2) 
0

>  <fr_Ar_N>  (2) 
0

>  <fr_Ar_NH>  (2) 
0

>  <fr_Ar_OH>  (2) 
0

>  <fr_COO>  (2) 
0

>  <fr_COO2>  (2) 
0

>  <fr_C_O>  (2) 
0

>  <fr_C_O_noCOO>  (2) 
0

>  <fr_C_S>  (2) 
0

>  <fr_HOCCN>  (2) 
0

>  <fr_Imine>  (2) 
0

>  <fr_NH0>  (2) 
3

>  <fr_NH1>  (2) 
0

>  <fr_NH2>  (2) 
0

>  <fr_N_O>  (2) 
0

>  <fr_Ndealkylation1>  (2) 
1

>  <fr_Ndealkylation2>  (2) 
0

>  <fr_Nhpyrrole>  (2) 
0

>  <fr_SH>  (2) 
0

>  <fr_aldehyde>  (2) 
0

>  <fr_alkyl_carbamate>  (2) 
0

>  <fr_alkyl_halide>  (2) 
3

>  <fr_allylic_oxid>  (2) 
0

>  <fr_amide>  (2) 
0

>  <fr_amidine>  (2) 
0

>  <fr_aniline>  (2) 
2

>  <fr_aryl_methyl>  (2) 
0

>  <fr_azide>  (2) 
0

>  <fr_azo>  (2) 
0

>  <fr_barbitur>  (2) 
0

>  <fr_benzene>  (2) 
2

>  <fr_benzodiazepine>  (2) 
0

>  <fr_bicyclic>  (2) 
2

>  <fr_diazo>  (2) 
0

>  <fr_dihydropyridine>  (2) 
0

>  <fr_epoxide>  (2) 
0

>  <fr_ester>  (2) 
0

>  <fr_ether>  (2) 
0

>  <fr_furan>  (2) 
0

>  <fr_guanido>  (2) 
0

>  <fr_halogen>  (2) 
3

>  <fr_hdrzine>  (2) 
0

>  <fr_hdrzone>  (2) 
0

>  <fr_imidazole>  (2) 
0

>  <fr_imide>  (2) 
0

>  <fr_isocyan>  (2) 
0

>  <fr_isothiocyan>  (2) 
0

>  <fr_ketone>  (2) 
0

>  <fr_ketone_Topliss>  (2) 
0

>  <fr_lactam>  (2) 
0

>  <fr_lactone>  (2) 
0

>  <fr_methoxy>  (2) 
0

>  <fr_morpholine>  (2) 
0

>  <fr_nitrile>  (2) 
0

>  <fr_nitro>  (2) 
0

>  <fr_nitro_arom>  (2) 
0

>  <fr_nitro_arom_nonortho>  (2) 
0

>  <fr_nitroso>  (2) 
0

>  <fr_oxazole>  (2) 
0

>  <fr_oxime>  (2) 
0

>  <fr_para_hydroxylation>  (2) 
1

>  <fr_phenol>  (2) 
0

>  <fr_phenol_noOrthoHbond>  (2) 
0

>  <fr_phos_acid>  (2) 
0

>  <fr_phos_ester>  (2) 
0

>  <fr_piperdine>  (2) 
0

>  <fr_piperzine>  (2) 
1

>  <fr_priamide>  (2) 
0

>  <fr_prisulfonamd>  (2) 
0

>  <fr_pyridine>  (2) 
0

>  <fr_quatN>  (2) 
0

>  <fr_sulfide>  (2) 
0

>  <fr_sulfonamd>  (2) 
0

>  <fr_sulfone>  (2) 
0

>  <fr_term_acetylene>  (2) 
0

>  <fr_tetrazole>  (2) 
0

>  <fr_thiazole>  (2) 
0

>  <fr_thiocyan>  (2) 
0

>  <fr_thiophene>  (2) 
0

>  <fr_unbrch_alkane>  (2) 
0

>  <fr_urea>  (2) 
0

>  <NP_Likeness>  (2) 
-1.513679

$$$$
CHEMBL570
     RDKit          3D

  0  0  0  0  0  0  0  0  0  0999 V3000
M  V30 BEGIN CTAB
M  V30 COUNTS 43 45 0 0 0
M  V30 BEGIN ATOM
M  V30 1 C -4.041872 0.318557 -2.310371 0
M  V30 2 N -3.139969 0.079523 -1.205575 0
M  V30 3 C -3.822553 -0.580094 -0.161629 0
M  V30 4 C -2.240240 1.125339 -0.902585 0
M  V30 5 C -1.161752 1.417592 -1.889665 0
M  V30 6 C -0.201291 0.340458 -2.191977 0
M  V30 7 N 0.594008 -0.179863 -1.110880 0
M  V30 8 C 1.648304 0.599141 -0.584720 0
M  V30 9 C 1.990859 1.817758 -1.126036 0
M  V30 10 C 3.002457 2.654996 -0.716491 0
M  V30 11 C 3.781161 2.239273 0.368267 0
M  V30 12 C 3.480785 1.007328 0.959678 0
M  V30 13 C 2.461476 0.280483 0.462997 0
M  V30 14 S 2.230675 -1.257401 1.328211 0
M  V30 15 C 0.892648 -2.062160 0.498041 0
M  V30 16 C 0.579412 -3.274582 1.009668 0
M  V30 17 C -0.467711 -4.012023 0.446451 0
M  V30 18 C -1.142293 -3.436691 -0.636226 0
M  V30 19 C -2.244504 -4.267327 -1.189483 0
M  V30 20 F -2.720167 -3.710529 -2.344975 0
M  V30 21 F -3.262987 -4.227994 -0.250774 0
M  V30 22 F -1.875644 -5.584460 -1.335668 0
M  V30 23 C -0.754655 -2.197362 -1.090996 0
M  V30 24 C 0.269746 -1.447806 -0.559976 0
M  V30 25 H -3.958469 -0.467729 -3.098978 0
M  V30 26 H -5.104875 0.310047 -1.992949 0
M  V30 27 H -3.715708 1.256589 -2.779843 0
M  V30 28 H -4.736082 0.017075 0.078254 0
M  V30 29 H -3.272325 -0.620458 0.802765 0
M  V30 30 H -4.213645 -1.582598 -0.451590 0
M  V30 31 H -2.891679 2.039263 -0.824044 0
M  V30 32 H -1.880920 1.018041 0.143216 0
M  V30 33 H -1.707323 1.590150 -2.870698 0
M  V30 34 H -0.767970 2.423607 -1.670471 0
M  V30 35 H 0.531019 0.804384 -2.938411 0
M  V30 36 H -0.652678 -0.415548 -2.863827 0
M  V30 37 H 1.483548 2.250332 -1.974044 0
M  V30 38 H 3.258222 3.609138 -1.151585 0
M  V30 39 H 4.586914 2.861741 0.728764 0
M  V30 40 H 4.121586 0.761243 1.782342 0
M  V30 41 H 1.075362 -3.752085 1.842845 0
M  V30 42 H -0.736478 -4.980342 0.836996 0
M  V30 43 H -1.361878 -1.913622 -1.905439 0
M  V30 END ATOM
M  V30 BEGIN BOND
M  V30 1 1 1 2
M  V30 2 1 2 3
M  V30 3 1 2 4
M  V30 4 1 4 5
M  V30 5 1 5 6
M  V30 6 1 6 7
M  V30 7 1 7 8
M  V30 8 2 8 9
M  V30 9 1 9 10
M  V30 10 2 10 11
M  V30 11 1 11 12
M  V30 12 2 12 13
M  V30 13 1 13 14
M  V30 14 1 14 15
M  V30 15 2 15 16
M  V30 16 1 16 17
M  V30 17 2 17 18
M  V30 18 1 18 19
M  V30 19 1 19 20
M  V30 20 1 19 21
M  V30 21 1 19 22
M  V30 22 1 18 23
M  V30 23 2 23 24
M  V30 24 1 24 7
M  V30 25 1 13 8
M  V30 26 1 24 15
M  V30 27 1 1 25
M  V30 28 1 1 26
M  V30 29 1 1 27
M  V30 30 1 3 28
M  V30 31 1 3 29
M  V30 32 1 3 30
M  V30 33 1 4 31
M  V30 34 1 4 32
M  V30 35 1 5 33
M  V30 36 1 5 34
M  V30 37 1 6 35
M  V30 38 1 6 36
M  V30 39 1 9 37
M  V30 40 1 10 38
M  V30 41 1 11 39
M  V30 42 1 12 40
M  V30 43 1 16 41
M  V30 44 1 17 42
M  V30 45 1 23 43
M  V30 END BOND
M  V30 END CTAB
M  END
>  <Dataset>  (3) 
OralDrugs

>  <Ligand_Instance>  (3) 
nan

>  <PDB_ID>  (3) 
nan

>  <Standardized_SMILES>  (3) 
CN(C)CCCN1c2ccccc2Sc2ccc(C(F)(F)F)cc21

>  <Name>  (3) 
Triflupromazine

>  <Pocket>  (3) 
nan

>  <ATP_Site>  (3) 
nan

>  <Peripheral>  (3) 
nan

>  <Num_H_Atoms_ProtBoundConf>  (3) 
nan

>  <Num_Resolved_Atoms>  (3) 
nan

>  <Num_Not_Resolved_Atoms>  (3) 
nan

>  <2D_Mol_H>  (3) 
<rdkit.Chem.rdchem.Mol object at 0x72a238b926c0>

>  <MW>  (3) 
352.425

>  <HBA>  (3) 
3

>  <HBD>  (3) 
0

>  <LogP>  (3) 
5.2598

>  <NRB>  (3) 
6

>  <TPSA>  (3) 
6.48

>  <Num_Heavy_Atoms>  (3) 
24

>  <Ro5>  (3) 
[True, True, True, False, True, True]

>  <Ro5_Fulfilled>  (3) 
True

>  <Ro3>  (3) 
[False, True, True, False]

>  <Ro3_Fulfilled>  (3) 
False

>  <Fsp3>  (3) 
0.333333

>  <Fsp3_0.42>  (3) 
False

>  <Fsp3_0.45>  (3) 
False

>  <Stereogenic_Carbons>  (3) 
0

>  <C_Atoms>  (3) 
18

>  <FCStereo>  (3) 
0.0

>  <SPS>  (3) 
332

>  <nSPS>  (3) 
13.833333

>  <PBF>  (3) 
0.836874

>  <PBF_0.6>  (3) 
True

>  <nPBF>  (3) 
0.03487

>  <nPBF_0.016>  (3) 
True

>  <PMI1>  (3) 
1479.907773

>  <PMI2>  (3) 
3119.326933

>  <PMI3>  (3) 
4152.514972

>  <NPR1>  (3) 
0.356388

>  <NPR2>  (3) 
0.75119

>  <Sum_NPR>  (3) 
1.107578

>  <Sum_NPR_1.07>  (3) 
True

>  <Sum_NPR_1.2>  (3) 
False

>  <MaxAbsEStateIndex>  (3) 
13.106724

>  <MaxEStateIndex>  (3) 
13.106724

>  <MinAbsEStateIndex>  (3) 
0.598296

>  <MinEStateIndex>  (3) 
-4.327413

>  <qed>  (3) 
0.741025

>  <MolWt>  (3) 
352.425

>  <HeavyAtomMolWt>  (3) 
333.273

>  <ExactMolWt>  (3) 
352.122104

>  <NumValenceElectrons>  (3) 
128

>  <NumRadicalElectrons>  (3) 
0

>  <MaxPartialCharge>  (3) 
0.415987

>  <MinPartialCharge>  (3) 
-0.339581

>  <MaxAbsPartialCharge>  (3) 
0.415987

>  <MinAbsPartialCharge>  (3) 
0.339581

>  <FpDensityMorgan1>  (3) 
1.0

>  <FpDensityMorgan2>  (3) 
1.708333

>  <FpDensityMorgan3>  (3) 
2.416667

>  <BCUT2D_MWHI>  (3) 
32.166581

>  <BCUT2D_MWLOW>  (3) 
10.121447

>  <BCUT2D_CHGHI>  (3) 
2.327383

>  <BCUT2D_CHGLO>  (3) 
-2.332528

>  <BCUT2D_LOGPHI>  (3) 
2.489372

>  <BCUT2D_LOGPLOW>  (3) 
-2.253724

>  <BCUT2D_MRHI>  (3) 
7.993768

>  <BCUT2D_MRLOW>  (3) 
-0.137134

>  <AvgIpc>  (3) 
2.522233

>  <BalabanJ>  (3) 
1.990817

>  <BertzCT>  (3) 
728.444079

>  <Chi0>  (3) 
17.319626

>  <Chi0n>  (3) 
13.599341

>  <Chi0v>  (3) 
14.415838

>  <Chi1>  (3) 
11.359192

>  <Chi1n>  (3) 
7.764675

>  <Chi1v>  (3) 
8.581172

>  <Chi2n>  (3) 
6.058517

>  <Chi2v>  (3) 
7.142294

>  <Chi3n>  (3) 
3.940075

>  <Chi3v>  (3) 
5.070344

>  <Chi4n>  (3) 
2.791589

>  <Chi4v>  (3) 
3.867695

>  <HallKierAlpha>  (3) 
-1.66

>  <Ipc>  (3) 
232337.994088

>  <Kappa1>  (3) 
17.172394

>  <Kappa2>  (3) 
6.685386

>  <Kappa3>  (3) 
3.542842

>  <LabuteASA>  (3) 
143.811702

>  <PEOE_VSA1>  (3) 
9.799819

>  <PEOE_VSA10>  (3) 
0.0

>  <PEOE_VSA11>  (3) 
0.0

>  <PEOE_VSA12>  (3) 
0.0

>  <PEOE_VSA13>  (3) 
0.0

>  <PEOE_VSA14>  (3) 
6.176299

>  <PEOE_VSA2>  (3) 
0.0

>  <PEOE_VSA3>  (3) 
0.0

>  <PEOE_VSA4>  (3) 
13.171245

>  <PEOE_VSA5>  (3) 
0.0

>  <PEOE_VSA6>  (3) 
23.894619

>  <PEOE_VSA7>  (3) 
57.392757

>  <PEOE_VSA8>  (3) 
16.335723

>  <PEOE_VSA9>  (3) 
16.938224

>  <SMR_VSA1>  (3) 
13.171245

>  <SMR_VSA10>  (3) 
23.136657

>  <SMR_VSA2>  (3) 
0.0

>  <SMR_VSA3>  (3) 
4.89991

>  <SMR_VSA4>  (3) 
0.0

>  <SMR_VSA5>  (3) 
22.388087

>  <SMR_VSA6>  (3) 
32.084767

>  <SMR_VSA7>  (3) 
48.028021

>  <SMR_VSA8>  (3) 
0.0

>  <SMR_VSA9>  (3) 
0.0

>  <SlogP_VSA1>  (3) 
4.89991

>  <SlogP_VSA10>  (3) 
24.546018

>  <SlogP_VSA11>  (3) 
0.0

>  <SlogP_VSA12>  (3) 
11.761885

>  <SlogP_VSA2>  (3) 
32.084767

>  <SlogP_VSA3>  (3) 
6.176299

>  <SlogP_VSA4>  (3) 
0.0

>  <SlogP_VSA5>  (3) 
11.984273

>  <SlogP_VSA6>  (3) 
52.255536

>  <SlogP_VSA7>  (3) 
0.0

>  <SlogP_VSA8>  (3) 
0.0

>  <SlogP_VSA9>  (3) 
0.0

>  <EState_VSA1>  (3) 
11.73975

>  <EState_VSA10>  (3) 
13.171245

>  <EState_VSA11>  (3) 
0.0

>  <EState_VSA2>  (3) 
0.0

>  <EState_VSA3>  (3) 
12.232143

>  <EState_VSA4>  (3) 
34.510298

>  <EState_VSA5>  (3) 
17.828252

>  <EState_VSA6>  (3) 
6.066367

>  <EState_VSA7>  (3) 
43.260722

>  <EState_VSA8>  (3) 
4.89991

>  <EState_VSA9>  (3) 
0.0

>  <VSA_EState1>  (3) 
39.320173

>  <VSA_EState10>  (3) 
1.525912

>  <VSA_EState2>  (3) 
6.040321

>  <VSA_EState3>  (3) 
0.0

>  <VSA_EState4>  (3) 
1.027039

>  <VSA_EState5>  (3) 
0.0

>  <VSA_EState6>  (3) 
11.888902

>  <VSA_EState7>  (3) 
-3.45074

>  <VSA_EState8>  (3) 
1.57358

>  <VSA_EState9>  (3) 
3.99148

>  <FractionCSP3>  (3) 
0.333333

>  <HeavyAtomCount>  (3) 
24

>  <NHOHCount>  (3) 
0

>  <NOCount>  (3) 
2

>  <NumAliphaticCarbocycles>  (3) 
0

>  <NumAliphaticHeterocycles>  (3) 
1

>  <NumAliphaticRings>  (3) 
1

>  <NumAromaticCarbocycles>  (3) 
2

>  <NumAromaticHeterocycles>  (3) 
0

>  <NumAromaticRings>  (3) 
2

>  <NumHAcceptors>  (3) 
3

>  <NumHDonors>  (3) 
0

>  <NumHeteroatoms>  (3) 
6

>  <NumRotatableBonds>  (3) 
4

>  <NumSaturatedCarbocycles>  (3) 
0

>  <NumSaturatedHeterocycles>  (3) 
0

>  <NumSaturatedRings>  (3) 
0

>  <RingCount>  (3) 
3

>  <MolLogP>  (3) 
5.2598

>  <MolMR>  (3) 
92.186

>  <fr_Al_COO>  (3) 
0

>  <fr_Al_OH>  (3) 
0

>  <fr_Al_OH_noTert>  (3) 
0

>  <fr_ArN>  (3) 
0

>  <fr_Ar_COO>  (3) 
0

>  <fr_Ar_N>  (3) 
0

>  <fr_Ar_NH>  (3) 
0

>  <fr_Ar_OH>  (3) 
0

>  <fr_COO>  (3) 
0

>  <fr_COO2>  (3) 
0

>  <fr_C_O>  (3) 
0

>  <fr_C_O_noCOO>  (3) 
0

>  <fr_C_S>  (3) 
0

>  <fr_HOCCN>  (3) 
0

>  <fr_Imine>  (3) 
0

>  <fr_NH0>  (3) 
2

>  <fr_NH1>  (3) 
0

>  <fr_NH2>  (3) 
0

>  <fr_N_O>  (3) 
0

>  <fr_Ndealkylation1>  (3) 
0

>  <fr_Ndealkylation2>  (3) 
0

>  <fr_Nhpyrrole>  (3) 
0

>  <fr_SH>  (3) 
0

>  <fr_aldehyde>  (3) 
0

>  <fr_alkyl_carbamate>  (3) 
0

>  <fr_alkyl_halide>  (3) 
3

>  <fr_allylic_oxid>  (3) 
0

>  <fr_amide>  (3) 
0

>  <fr_amidine>  (3) 
0

>  <fr_aniline>  (3) 
2

>  <fr_aryl_methyl>  (3) 
0

>  <fr_azide>  (3) 
0

>  <fr_azo>  (3) 
0

>  <fr_barbitur>  (3) 
0

>  <fr_benzene>  (3) 
2

>  <fr_benzodiazepine>  (3) 
0

>  <fr_bicyclic>  (3) 
2

>  <fr_diazo>  (3) 
0

>  <fr_dihydropyridine>  (3) 
0

>  <fr_epoxide>  (3) 
0

>  <fr_ester>  (3) 
0

>  <fr_ether>  (3) 
0

>  <fr_furan>  (3) 
0

>  <fr_guanido>  (3) 
0

>  <fr_halogen>  (3) 
3

>  <fr_hdrzine>  (3) 
0

>  <fr_hdrzone>  (3) 
0

>  <fr_imidazole>  (3) 
0

>  <fr_imide>  (3) 
0

>  <fr_isocyan>  (3) 
0

>  <fr_isothiocyan>  (3) 
0

>  <fr_ketone>  (3) 
0

>  <fr_ketone_Topliss>  (3) 
0

>  <fr_lactam>  (3) 
0

>  <fr_lactone>  (3) 
0

>  <fr_methoxy>  (3) 
0

>  <fr_morpholine>  (3) 
0

>  <fr_nitrile>  (3) 
0

>  <fr_nitro>  (3) 
0

>  <fr_nitro_arom>  (3) 
0

>  <fr_nitro_arom_nonortho>  (3) 
0

>  <fr_nitroso>  (3) 
0

>  <fr_oxazole>  (3) 
0

>  <fr_oxime>  (3) 
0

>  <fr_para_hydroxylation>  (3) 
1

>  <fr_phenol>  (3) 
0

>  <fr_phenol_noOrthoHbond>  (3) 
0

>  <fr_phos_acid>  (3) 
0

>  <fr_phos_ester>  (3) 
0

>  <fr_piperdine>  (3) 
0

>  <fr_piperzine>  (3) 
0

>  <fr_priamide>  (3) 
0

>  <fr_prisulfonamd>  (3) 
0

>  <fr_pyridine>  (3) 
0

>  <fr_quatN>  (3) 
0

>  <fr_sulfide>  (3) 
0

>  <fr_sulfonamd>  (3) 
0

>  <fr_sulfone>  (3) 
0

>  <fr_term_acetylene>  (3) 
0

>  <fr_tetrazole>  (3) 
0

>  <fr_thiazole>  (3) 
0

>  <fr_thiocyan>  (3) 
0

>  <fr_thiophene>  (3) 
0

>  <fr_unbrch_alkane>  (3) 
0

>  <fr_urea>  (3) 
0

>  <NP_Likeness>  (3) 
-1.516844

$$$$
CHEMBL1129
     RDKit          3D

  0  0  0  0  0  0  0  0  0  0999 V3000
M  V30 BEGIN CTAB
M  V30 COUNTS 31 32 0 0 0
M  V30 BEGIN ATOM
M  V30 1 O -1.727646 -0.358381 4.831285 0
M  V30 2 C -1.025388 -0.203166 3.781771 0
M  V30 3 N 0.289353 -0.023106 4.005641 0
M  V30 4 C 1.058738 0.145234 2.889796 0
M  V30 5 O 2.296941 0.316688 3.063625 0
M  V30 6 N 0.511662 0.127688 1.660466 0
M  V30 7 C 1.460613 0.321647 0.554993 0 CFG=1
M  V30 8 C 2.207118 -1.011219 0.468204 0
M  V30 9 C 1.323184 -1.693402 -0.584583 0 CFG=2
M  V30 10 O 1.925370 -2.783375 -1.160609 0
M  V30 11 C 1.148678 -0.509862 -1.513151 0 CFG=1
M  V30 12 C 0.097872 -0.760319 -2.559070 0
M  V30 13 O 0.507701 -1.797847 -3.410469 0
M  V30 14 O 0.808064 0.497667 -0.644467 0
M  V30 15 C -0.805235 -0.052837 1.439576 0
M  V30 16 C -1.605940 -0.224795 2.536808 0
M  V30 17 C -3.079079 -0.431578 2.385735 0
M  V30 18 F -3.384353 -1.662716 2.943570 0
M  V30 19 F -3.827703 0.519590 3.017251 0
M  V30 20 F -3.398117 -0.484242 1.047063 0
M  V30 21 H 0.727232 -0.007255 4.954075 0
M  V30 22 H 2.138655 1.137033 0.850234 0
M  V30 23 H 2.220758 -1.557606 1.412364 0
M  V30 24 H 3.211339 -0.827961 0.015418 0
M  V30 25 H 0.347493 -1.896033 -0.099884 0
M  V30 26 H 1.318729 -3.573175 -1.001108 0
M  V30 27 H 2.101058 -0.257407 -2.019793 0
M  V30 28 H -0.905976 -0.887734 -2.152552 0
M  V30 29 H 0.092537 0.151152 -3.211105 0
M  V30 30 H 0.317158 -2.678499 -3.010894 0
M  V30 31 H -1.196178 -0.058494 0.425271 0
M  V30 END ATOM
M  V30 BEGIN BOND
M  V30 1 2 1 2
M  V30 2 1 2 3
M  V30 3 1 3 4
M  V30 4 2 4 5
M  V30 5 1 4 6
M  V30 6 1 6 7
M  V30 7 1 7 8
M  V30 8 1 8 9
M  V30 9 1 9 10
M  V30 10 1 9 11
M  V30 11 1 11 12
M  V30 12 1 12 13
M  V30 13 1 11 14
M  V30 14 1 6 15
M  V30 15 2 15 16
M  V30 16 1 16 17
M  V30 17 1 17 18
M  V30 18 1 17 19
M  V30 19 1 17 20
M  V30 20 1 16 2
M  V30 21 1 14 7
M  V30 22 1 3 21
M  V30 23 1 7 22 CFG=1
M  V30 24 1 8 23
M  V30 25 1 8 24
M  V30 26 1 9 25 CFG=1
M  V30 27 1 10 26
M  V30 28 1 11 27 CFG=3
M  V30 29 1 12 28
M  V30 30 1 12 29
M  V30 31 1 13 30
M  V30 32 1 15 31
M  V30 END BOND
M  V30 END CTAB
M  END
>  <Dataset>  (4) 
OralDrugs

>  <Ligand_Instance>  (4) 
nan

>  <PDB_ID>  (4) 
nan

>  <Standardized_SMILES>  (4) 
O=c1[nH]c(=O)n([C@H]2C[C@H](O)[C@@H](CO)O2)cc1C(F)(F)F

>  <Name>  (4) 
Trifluridine

>  <Pocket>  (4) 
nan

>  <ATP_Site>  (4) 
nan

>  <Peripheral>  (4) 
nan

>  <Num_H_Atoms_ProtBoundConf>  (4) 
nan

>  <Num_Resolved_Atoms>  (4) 
nan

>  <Num_Not_Resolved_Atoms>  (4) 
nan

>  <2D_Mol_H>  (4) 
<rdkit.Chem.rdchem.Mol object at 0x72a238b927a0>

>  <MW>  (4) 
296.201

>  <HBA>  (4) 
6

>  <HBD>  (4) 
3

>  <LogP>  (4) 
-0.8039

>  <NRB>  (4) 
4

>  <TPSA>  (4) 
104.55

>  <Num_Heavy_Atoms>  (4) 
20

>  <Ro5>  (4) 
[True, True, True, True, True, True]

>  <Ro5_Fulfilled>  (4) 
True

>  <Ro3>  (4) 
[True, False, True, True]

>  <Ro3_Fulfilled>  (4) 
True

>  <Fsp3>  (4) 
0.6

>  <Fsp3_0.42>  (4) 
True

>  <Fsp3_0.45>  (4) 
True

>  <Stereogenic_Carbons>  (4) 
3

>  <C_Atoms>  (4) 
10

>  <FCStereo>  (4) 
0.3

>  <SPS>  (4) 
539

>  <nSPS>  (4) 
26.95

>  <PBF>  (4) 
0.74776

>  <PBF_0.6>  (4) 
True

>  <nPBF>  (4) 
0.037388

>  <nPBF_0.016>  (4) 
True

>  <PMI1>  (4) 
984.527855

>  <PMI2>  (4) 
2194.988231

>  <PMI3>  (4) 
2806.885286

>  <NPR1>  (4) 
0.350755

>  <NPR2>  (4) 
0.782001

>  <Sum_NPR>  (4) 
1.132756

>  <Sum_NPR_1.07>  (4) 
True

>  <Sum_NPR_1.2>  (4) 
False

>  <MaxAbsEStateIndex>  (4) 
12.601318

>  <MaxEStateIndex>  (4) 
12.601318

>  <MinAbsEStateIndex>  (4) 
0.172149

>  <MinEStateIndex>  (4) 
-4.920006

>  <qed>  (4) 
0.662292

>  <MolWt>  (4) 
296.201

>  <HeavyAtomMolWt>  (4) 
285.113

>  <ExactMolWt>  (4) 
296.062006

>  <NumValenceElectrons>  (4) 
112

>  <NumRadicalElectrons>  (4) 
0

>  <MaxPartialCharge>  (4) 
0.42263

>  <MinPartialCharge>  (4) 
-0.393569

>  <MaxAbsPartialCharge>  (4) 
0.42263

>  <MinAbsPartialCharge>  (4) 
0.393569

>  <FpDensityMorgan1>  (4) 
1.45

>  <FpDensityMorgan2>  (4) 
2.1

>  <FpDensityMorgan3>  (4) 
2.6

>  <BCUT2D_MWHI>  (4) 
19.413188

>  <BCUT2D_MWLOW>  (4) 
10.166956

>  <BCUT2D_CHGHI>  (4) 
2.382763

>  <BCUT2D_CHGLO>  (4) 
-2.155045

>  <BCUT2D_LOGPHI>  (4) 
2.295077

>  <BCUT2D_LOGPLOW>  (4) 
-2.361867

>  <BCUT2D_MRHI>  (4) 
5.090763

>  <BCUT2D_MRLOW>  (4) 
-0.139276

>  <AvgIpc>  (4) 
2.681786

>  <BalabanJ>  (4) 
2.434771

>  <BertzCT>  (4) 
608.136231

>  <Chi0>  (4) 
15.076986

>  <Chi0n>  (4) 
9.923894

>  <Chi0v>  (4) 
9.923894

>  <Chi1>  (4) 
9.235401

>  <Chi1n>  (4) 
5.607784

>  <Chi1v>  (4) 
5.607784

>  <Chi2n>  (4) 
4.321889

>  <Chi2v>  (4) 
4.321889

>  <Chi3n>  (4) 
2.967548

>  <Chi3v>  (4) 
2.967548

>  <Chi4n>  (4) 
1.951403

>  <Chi4v>  (4) 
1.951403

>  <HallKierAlpha>  (4) 
-1.65

>  <Ipc>  (4) 
24479.346557

>  <Kappa1>  (4) 
14.752754

>  <Kappa2>  (4) 
5.03521

>  <Kappa3>  (4) 
2.619412

>  <LabuteASA>  (4) 
108.786155

>  <PEOE_VSA1>  (4) 
14.949918

>  <PEOE_VSA10>  (4) 
17.895319

>  <PEOE_VSA11>  (4) 
0.0

>  <PEOE_VSA12>  (4) 
0.0

>  <PEOE_VSA13>  (4) 
5.559267

>  <PEOE_VSA14>  (4) 
11.866042

>  <PEOE_VSA2>  (4) 
14.345615

>  <PEOE_VSA3>  (4) 
4.794537

>  <PEOE_VSA4>  (4) 
13.171245

>  <PEOE_VSA5>  (4) 
0.0

>  <PEOE_VSA6>  (4) 
0.0

>  <PEOE_VSA7>  (4) 
0.0

>  <PEOE_VSA8>  (4) 
12.617665

>  <PEOE_VSA9>  (4) 
12.710848

>  <SMR_VSA1>  (4) 
28.121163

>  <SMR_VSA10>  (4) 
0.0

>  <SMR_VSA2>  (4) 
0.0

>  <SMR_VSA3>  (4) 
9.551078

>  <SMR_VSA4>  (4) 
0.0

>  <SMR_VSA5>  (4) 
31.032954

>  <SMR_VSA6>  (4) 
6.606882

>  <SMR_VSA7>  (4) 
32.59838

>  <SMR_VSA8>  (4) 
0.0

>  <SMR_VSA9>  (4) 
0.0

>  <SlogP_VSA1>  (4) 
11.24901

>  <SlogP_VSA10>  (4) 
13.171245

>  <SlogP_VSA11>  (4) 
0.0

>  <SlogP_VSA12>  (4) 
0.0

>  <SlogP_VSA2>  (4) 
38.578948

>  <SlogP_VSA3>  (4) 
10.913161

>  <SlogP_VSA4>  (4) 
0.0

>  <SlogP_VSA5>  (4) 
18.212174

>  <SlogP_VSA6>  (4) 
15.785918

>  <SlogP_VSA7>  (4) 
0.0

>  <SlogP_VSA8>  (4) 
0.0

>  <SlogP_VSA9>  (4) 
0.0

>  <EState_VSA1>  (4) 
48.031476

>  <EState_VSA10>  (4) 
27.866847

>  <EState_VSA11>  (4) 
0.0

>  <EState_VSA2>  (4) 
6.420822

>  <EState_VSA3>  (4) 
10.763943

>  <EState_VSA4>  (4) 
0.0

>  <EState_VSA5>  (4) 
0.0

>  <EState_VSA6>  (4) 
4.983979

>  <EState_VSA7>  (4) 
0.0

>  <EState_VSA8>  (4) 
0.0

>  <EState_VSA9>  (4) 
9.84339

>  <VSA_EState1>  (4) 
43.419538

>  <VSA_EState10>  (4) 
0.0

>  <VSA_EState2>  (4) 
24.189572

>  <VSA_EState3>  (4) 
18.388988

>  <VSA_EState4>  (4) 
-4.169045

>  <VSA_EState5>  (4) 
0.0

>  <VSA_EState6>  (4) 
0.0

>  <VSA_EState7>  (4) 
-8.039269

>  <VSA_EState8>  (4) 
-0.539783

>  <VSA_EState9>  (4) 
0.0

>  <FractionCSP3>  (4) 
0.6

>  <HeavyAtomCount>  (4) 
20

>  <NHOHCount>  (4) 
3

>  <NOCount>  (4) 
7

>  <NumAliphaticCarbocycles>  (4) 
0

>  <NumAliphaticHeterocycles>  (4) 
1

>  <NumAliphaticRings>  (4) 
1

>  <NumAromaticCarbocycles>  (4) 
0

>  <NumAromaticHeterocycles>  (4) 
1

>  <NumAromaticRings>  (4) 
1

>  <NumHAcceptors>  (4) 
6

>  <NumHDonors>  (4) 
3

>  <NumHeteroatoms>  (4) 
10

>  <NumRotatableBonds>  (4) 
2

>  <NumSaturatedCarbocycles>  (4) 
0

>  <NumSaturatedHeterocycles>  (4) 
1

>  <NumSaturatedRings>  (4) 
1

>  <RingCount>  (4) 
2

>  <MolLogP>  (4) 
-0.8039

>  <MolMR>  (4) 
57.9443

>  <fr_Al_COO>  (4) 
0

>  <fr_Al_OH>  (4) 
2

>  <fr_Al_OH_noTert>  (4) 
2

>  <fr_ArN>  (4) 
0

>  <fr_Ar_COO>  (4) 
0

>  <fr_Ar_N>  (4) 
2

>  <fr_Ar_NH>  (4) 
1

>  <fr_Ar_OH>  (4) 
0

>  <fr_COO>  (4) 
0

>  <fr_COO2>  (4) 
0

>  <fr_C_O>  (4) 
0

>  <fr_C_O_noCOO>  (4) 
0

>  <fr_C_S>  (4) 
0

>  <fr_HOCCN>  (4) 
0

>  <fr_Imine>  (4) 
0

>  <fr_NH0>  (4) 
1

>  <fr_NH1>  (4) 
1

>  <fr_NH2>  (4) 
0

>  <fr_N_O>  (4) 
0

>  <fr_Ndealkylation1>  (4) 
0

>  <fr_Ndealkylation2>  (4) 
0

>  <fr_Nhpyrrole>  (4) 
1

>  <fr_SH>  (4) 
0

>  <fr_aldehyde>  (4) 
0

>  <fr_alkyl_carbamate>  (4) 
0

>  <fr_alkyl_halide>  (4) 
3

>  <fr_allylic_oxid>  (4) 
0

>  <fr_amide>  (4) 
0

>  <fr_amidine>  (4) 
0

>  <fr_aniline>  (4) 
0

>  <fr_aryl_methyl>  (4) 
0

>  <fr_azide>  (4) 
0

>  <fr_azo>  (4) 
0

>  <fr_barbitur>  (4) 
0

>  <fr_benzene>  (4) 
0

>  <fr_benzodiazepine>  (4) 
0

>  <fr_bicyclic>  (4) 
0

>  <fr_diazo>  (4) 
0

>  <fr_dihydropyridine>  (4) 
0

>  <fr_epoxide>  (4) 
0

>  <fr_ester>  (4) 
0

>  <fr_ether>  (4) 
1

>  <fr_furan>  (4) 
0

>  <fr_guanido>  (4) 
0

>  <fr_halogen>  (4) 
3

>  <fr_hdrzine>  (4) 
0

>  <fr_hdrzone>  (4) 
0

>  <fr_imidazole>  (4) 
0

>  <fr_imide>  (4) 
0

>  <fr_isocyan>  (4) 
0

>  <fr_isothiocyan>  (4) 
0

>  <fr_ketone>  (4) 
0

>  <fr_ketone_Topliss>  (4) 
0

>  <fr_lactam>  (4) 
0

>  <fr_lactone>  (4) 
0

>  <fr_methoxy>  (4) 
0

>  <fr_morpholine>  (4) 
0

>  <fr_nitrile>  (4) 
0

>  <fr_nitro>  (4) 
0

>  <fr_nitro_arom>  (4) 
0

>  <fr_nitro_arom_nonortho>  (4) 
0

>  <fr_nitroso>  (4) 
0

>  <fr_oxazole>  (4) 
0

>  <fr_oxime>  (4) 
0

>  <fr_para_hydroxylation>  (4) 
0

>  <fr_phenol>  (4) 
0

>  <fr_phenol_noOrthoHbond>  (4) 
0

>  <fr_phos_acid>  (4) 
0

>  <fr_phos_ester>  (4) 
0

>  <fr_piperdine>  (4) 
0

>  <fr_piperzine>  (4) 
0

>  <fr_priamide>  (4) 
0

>  <fr_prisulfonamd>  (4) 
0

>  <fr_pyridine>  (4) 
0

>  <fr_quatN>  (4) 
0

>  <fr_sulfide>  (4) 
0

>  <fr_sulfonamd>  (4) 
0

>  <fr_sulfone>  (4) 
0

>  <fr_term_acetylene>  (4) 
0

>  <fr_tetrazole>  (4) 
0

>  <fr_thiazole>  (4) 
0

>  <fr_thiocyan>  (4) 
0

>  <fr_thiophene>  (4) 
0

>  <fr_unbrch_alkane>  (4) 
0

>  <fr_urea>  (4) 
0

>  <NP_Likeness>  (4) 
0.499465

$$$$
CHEMBL4297585
     RDKit          3D

  0  0  0  0  0  0  0  0  0  0999 V3000
M  V30 BEGIN CTAB
M  V30 COUNTS 74 73 0 0 0
M  V30 BEGIN ATOM
M  V30 1 C 3.794996 0.542483 5.799786 0
M  V30 2 C 4.831010 1.211111 4.945112 0
M  V30 3 C 4.254193 1.947032 3.755815 0
M  V30 4 C 3.303952 3.030758 4.168289 0
M  V30 5 C 2.721479 3.774290 2.964905 0
M  V30 6 C 1.965949 2.864666 2.059102 0
M  V30 7 C 1.389324 3.557089 0.879902 0
M  V30 8 O 1.411983 4.764999 0.486926 0
M  V30 9 O 0.704549 2.667551 0.088421 0
M  V30 10 C 0.032406 3.020137 -1.125835 0
M  V30 11 C -0.568692 1.689047 -1.621479 0
M  V30 12 C -1.198484 1.878865 -2.979690 0
M  V30 13 O -1.752488 0.674838 -3.465222 0
M  V30 14 C -1.005825 -0.446621 -3.677253 0
M  V30 15 O 0.230538 -0.543926 -3.472489 0
M  V30 16 C -1.761851 -1.639289 -4.198094 0
M  V30 17 C -2.167503 -2.588794 -3.118086 0
M  V30 18 C -2.926724 -3.784916 -3.650699 0
M  V30 19 C -2.124947 -4.585146 -4.625677 0
M  V30 20 C -0.850590 -5.130223 -4.023534 0
M  V30 21 C -1.093370 -6.028477 -2.859039 0
M  V30 22 O -1.418725 1.256746 -0.640983 0
M  V30 23 C -1.435033 0.195890 0.203860 0
M  V30 24 O -0.377825 -0.170702 -0.306296 0
M  V30 25 C -2.636231 0.259038 1.060854 0
M  V30 26 C -2.805849 -0.853498 2.018741 0
M  V30 27 C -2.984494 -2.225487 1.526767 0
M  V30 28 C -1.918193 -2.853822 0.713880 0
M  V30 29 C -0.594928 -2.961996 1.408684 0
M  V30 30 C -0.681529 -3.802954 2.669421 0
M  V30 31 H 3.425602 1.219753 6.593737 0
M  V30 32 H 2.936870 0.164664 5.228062 0
M  V30 33 H 4.276369 -0.375533 6.250074 0
M  V30 34 H 5.378803 1.925422 5.620778 0
M  V30 35 H 5.597759 0.474374 4.635011 0
M  V30 36 H 3.770077 1.187358 3.112892 0
M  V30 37 H 5.118412 2.346089 3.184926 0
M  V30 38 H 3.786410 3.723897 4.854471 0
M  V30 39 H 2.418198 2.511765 4.626097 0
M  V30 40 H 2.162442 4.645177 3.312157 0
M  V30 41 H 3.621757 4.186408 2.441681 0
M  V30 42 H 2.656522 2.090959 1.664650 0
M  V30 43 H 1.207389 2.337659 2.670551 0
M  V30 44 H -0.820372 3.665051 -0.832019 0
M  V30 45 H 0.700965 3.465669 -1.869648 0
M  V30 46 H 0.311240 1.046902 -1.779583 0
M  V30 47 H -1.870022 2.729728 -3.068194 0
M  V30 48 H -0.340536 2.102656 -3.673461 0
M  V30 49 H -1.098055 -2.195841 -4.896713 0
M  V30 50 H -2.657362 -1.332690 -4.773440 0
M  V30 51 H -1.272614 -2.929393 -2.583973 0
M  V30 52 H -2.846193 -2.034155 -2.428823 0
M  V30 53 H -3.353492 -4.395195 -2.839452 0
M  V30 54 H -3.829888 -3.414700 -4.218345 0
M  V30 55 H -1.914124 -3.956930 -5.511275 0
M  V30 56 H -2.704757 -5.456084 -4.992479 0
M  V30 57 H -0.219683 -4.271514 -3.716618 0
M  V30 58 H -0.273738 -5.710742 -4.770488 0
M  V30 59 H -1.377335 -7.052447 -3.154293 0
M  V30 60 H -1.809198 -5.634438 -2.106622 0
M  V30 61 H -0.125709 -6.111996 -2.294115 0
M  V30 62 H -2.540252 1.220413 1.658089 0
M  V30 63 H -3.562058 0.448076 0.456367 0
M  V30 64 H -1.942014 -0.826568 2.761557 0
M  V30 65 H -3.692797 -0.618838 2.677333 0
M  V30 66 H -3.240087 -2.865312 2.418104 0
M  V30 67 H -3.933191 -2.231456 0.906707 0
M  V30 68 H -2.216189 -3.932113 0.459772 0
M  V30 69 H -1.806365 -2.383929 -0.251327 0
M  V30 70 H -0.273737 -1.963398 1.735201 0
M  V30 71 H 0.137566 -3.358545 0.707177 0
M  V30 72 H -0.761360 -4.884843 2.469458 0
M  V30 73 H -1.439059 -3.418955 3.349961 0
M  V30 74 H 0.312920 -3.670300 3.171434 0
M  V30 END ATOM
M  V30 BEGIN BOND
M  V30 1 1 1 2
M  V30 2 1 2 3
M  V30 3 1 3 4
M  V30 4 1 4 5
M  V30 5 1 5 6
M  V30 6 1 6 7
M  V30 7 2 7 8
M  V30 8 1 7 9
M  V30 9 1 9 10
M  V30 10 1 10 11
M  V30 11 1 11 12
M  V30 12 1 12 13
M  V30 13 1 13 14
M  V30 14 2 14 15
M  V30 15 1 14 16
M  V30 16 1 16 17
M  V30 17 1 17 18
M  V30 18 1 18 19
M  V30 19 1 19 20
M  V30 20 1 20 21
M  V30 21 1 11 22
M  V30 22 1 22 23
M  V30 23 2 23 24
M  V30 24 1 23 25
M  V30 25 1 25 26
M  V30 26 1 26 27
M  V30 27 1 27 28
M  V30 28 1 28 29
M  V30 29 1 29 30
M  V30 30 1 1 31
M  V30 31 1 1 32
M  V30 32 1 1 33
M  V30 33 1 2 34
M  V30 34 1 2 35
M  V30 35 1 3 36
M  V30 36 1 3 37
M  V30 37 1 4 38
M  V30 38 1 4 39
M  V30 39 1 5 40
M  V30 40 1 5 41
M  V30 41 1 6 42
M  V30 42 1 6 43
M  V30 43 1 10 44
M  V30 44 1 10 45
M  V30 45 1 11 46
M  V30 46 1 12 47
M  V30 47 1 12 48
M  V30 48 1 16 49
M  V30 49 1 16 50
M  V30 50 1 17 51
M  V30 51 1 17 52
M  V30 52 1 18 53
M  V30 53 1 18 54
M  V30 54 1 19 55
M  V30 55 1 19 56
M  V30 56 1 20 57
M  V30 57 1 20 58
M  V30 58 1 21 59
M  V30 59 1 21 60
M  V30 60 1 21 61
M  V30 61 1 25 62
M  V30 62 1 25 63
M  V30 63 1 26 64
M  V30 64 1 26 65
M  V30 65 1 27 66
M  V30 66 1 27 67
M  V30 67 1 28 68
M  V30 68 1 28 69
M  V30 69 1 29 70
M  V30 70 1 29 71
M  V30 71 1 30 72
M  V30 72 1 30 73
M  V30 73 1 30 74
M  V30 END BOND
M  V30 END CTAB
M  END
>  <Dataset>  (5) 
OralDrugs

>  <Ligand_Instance>  (5) 
nan

>  <PDB_ID>  (5) 
nan

>  <Standardized_SMILES>  (5) 
CCCCCCC(=O)OCC(COC(=O)CCCCCC)OC(=O)CCCCCC

>  <Name>  (5) 
Triheptanoin

>  <Pocket>  (5) 
nan

>  <ATP_Site>  (5) 
nan

>  <Peripheral>  (5) 
nan

>  <Num_H_Atoms_ProtBoundConf>  (5) 
nan

>  <Num_Resolved_Atoms>  (5) 
nan

>  <Num_Not_Resolved_Atoms>  (5) 
nan

>  <2D_Mol_H>  (5) 
<rdkit.Chem.rdchem.Mol object at 0x72a238b92880>

>  <MW>  (5) 
428.61

>  <HBA>  (5) 
6

>  <HBD>  (5) 
0

>  <LogP>  (5) 
5.8958

>  <NRB>  (5) 
23

>  <TPSA>  (5) 
78.9

>  <Num_Heavy_Atoms>  (5) 
30

>  <Ro5>  (5) 
[True, True, True, False, False, True]

>  <Ro5_Fulfilled>  (5) 
False

>  <Ro3>  (5) 
[False, False, True, False]

>  <Ro3_Fulfilled>  (5) 
False

>  <Fsp3>  (5) 
0.875

>  <Fsp3_0.42>  (5) 
True

>  <Fsp3_0.45>  (5) 
True

>  <Stereogenic_Carbons>  (5) 
0

>  <C_Atoms>  (5) 
24

>  <FCStereo>  (5) 
0.0

>  <SPS>  (5) 
324

>  <nSPS>  (5) 
10.8

>  <PBF>  (5) 
1.231027

>  <PBF_0.6>  (5) 
True

>  <nPBF>  (5) 
0.041034

>  <nPBF_0.016>  (5) 
True

>  <PMI1>  (5) 
2906.885412

>  <PMI2>  (5) 
7186.019735

>  <PMI3>  (5) 
8542.822445

>  <NPR1>  (5) 
0.340272

>  <NPR2>  (5) 
0.841176

>  <Sum_NPR>  (5) 
1.181449

>  <Sum_NPR_1.07>  (5) 
True

>  <Sum_NPR_1.2>  (5) 
False

>  <MaxAbsEStateIndex>  (5) 
12.090676

>  <MaxEStateIndex>  (5) 
12.090676

>  <MinAbsEStateIndex>  (5) 
0.07299

>  <MinEStateIndex>  (5) 
-0.747353

>  <qed>  (5) 
0.136498

>  <MolWt>  (5) 
428.61

>  <HeavyAtomMolWt>  (5) 
384.258

>  <ExactMolWt>  (5) 
428.313789

>  <NumValenceElectrons>  (5) 
176

>  <NumRadicalElectrons>  (5) 
0

>  <MaxPartialCharge>  (5) 
0.305807

>  <MinPartialCharge>  (5) 
-0.46158

>  <MaxAbsPartialCharge>  (5) 
0.46158

>  <MinAbsPartialCharge>  (5) 
0.305807

>  <FpDensityMorgan1>  (5) 
0.533333

>  <FpDensityMorgan2>  (5) 
0.9

>  <FpDensityMorgan3>  (5) 
1.266667

>  <BCUT2D_MWHI>  (5) 
16.605083

>  <BCUT2D_MWLOW>  (5) 
10.146209

>  <BCUT2D_CHGHI>  (5) 
2.189795

>  <BCUT2D_CHGLO>  (5) 
-2.180222

>  <BCUT2D_LOGPHI>  (5) 
2.087815

>  <BCUT2D_LOGPLOW>  (5) 
-2.304642

>  <BCUT2D_MRHI>  (5) 
5.70655

>  <BCUT2D_MRLOW>  (5) 
-0.166546

>  <AvgIpc>  (5) 
2.733825

>  <BalabanJ>  (5) 
4.366933

>  <BertzCT>  (5) 
420.977107

>  <Chi0>  (5) 
22.451537

>  <Chi0n>  (5) 
19.547655

>  <Chi0v>  (5) 
19.547655

>  <Chi1>  (5) 
14.527606

>  <Chi1n>  (5) 
12.036274

>  <Chi1v>  (5) 
12.036274

>  <Chi2n>  (5) 
7.909874

>  <Chi2v>  (5) 
7.909874

>  <Chi3n>  (5) 
4.861902

>  <Chi3v>  (5) 
4.861902

>  <Chi4n>  (5) 
2.965437

>  <Chi4v>  (5) 
2.965437

>  <HallKierAlpha>  (5) 
-1.59

>  <Ipc>  (5) 
2431187.586205

>  <Kappa1>  (5) 
28.41

>  <Kappa2>  (5) 
20.673452

>  <Kappa3>  (5) 
18.43932

>  <LabuteASA>  (5) 
182.958122

>  <PEOE_VSA1>  (5) 
14.210589

>  <PEOE_VSA10>  (5) 
13.213764

>  <PEOE_VSA11>  (5) 
6.103966

>  <PEOE_VSA12>  (5) 
0.0

>  <PEOE_VSA13>  (5) 
0.0

>  <PEOE_VSA14>  (5) 
17.907916

>  <PEOE_VSA2>  (5) 
14.383612

>  <PEOE_VSA3>  (5) 
0.0

>  <PEOE_VSA4>  (5) 
0.0

>  <PEOE_VSA5>  (5) 
0.0

>  <PEOE_VSA6>  (5) 
78.558606

>  <PEOE_VSA7>  (5) 
19.262465

>  <PEOE_VSA8>  (5) 
19.262465

>  <PEOE_VSA9>  (5) 
0.0

>  <SMR_VSA1>  (5) 
28.5942

>  <SMR_VSA10>  (5) 
17.907916

>  <SMR_VSA2>  (5) 
0.0

>  <SMR_VSA3>  (5) 
0.0

>  <SMR_VSA4>  (5) 
0.0

>  <SMR_VSA5>  (5) 
123.187502

>  <SMR_VSA6>  (5) 
13.213764

>  <SMR_VSA7>  (5) 
0.0

>  <SMR_VSA8>  (5) 
0.0

>  <SMR_VSA9>  (5) 
0.0

>  <SlogP_VSA1>  (5) 
0.0

>  <SlogP_VSA10>  (5) 
0.0

>  <SlogP_VSA11>  (5) 
0.0

>  <SlogP_VSA12>  (5) 
0.0

>  <SlogP_VSA2>  (5) 
37.225646

>  <SlogP_VSA3>  (5) 
28.5942

>  <SlogP_VSA4>  (5) 
0.0

>  <SlogP_VSA5>  (5) 
117.083536

>  <SlogP_VSA6>  (5) 
0.0

>  <SlogP_VSA7>  (5) 
0.0

>  <SlogP_VSA8>  (5) 
0.0

>  <SlogP_VSA9>  (5) 
0.0

>  <EState_VSA1>  (5) 
6.103966

>  <EState_VSA10>  (5) 
14.383612

>  <EState_VSA11>  (5) 
0.0

>  <EState_VSA2>  (5) 
31.12168

>  <EState_VSA3>  (5) 
19.262465

>  <EState_VSA4>  (5) 
77.049859

>  <EState_VSA5>  (5) 
0.0

>  <EState_VSA6>  (5) 
0.0

>  <EState_VSA7>  (5) 
0.0

>  <EState_VSA8>  (5) 
20.771212

>  <EState_VSA9>  (5) 
14.210589

>  <VSA_EState1>  (5) 
15.956706

>  <VSA_EState10>  (5) 
0.0

>  <VSA_EState2>  (5) 
35.912539

>  <VSA_EState3>  (5) 
0.0

>  <VSA_EState4>  (5) 
0.0

>  <VSA_EState5>  (5) 
-0.948081

>  <VSA_EState6>  (5) 
0.0

>  <VSA_EState7>  (5) 
12.214092

>  <VSA_EState8>  (5) 
6.198077

>  <VSA_EState9>  (5) 
0.0

>  <FractionCSP3>  (5) 
0.875

>  <HeavyAtomCount>  (5) 
30

>  <NHOHCount>  (5) 
0

>  <NOCount>  (5) 
6

>  <NumAliphaticCarbocycles>  (5) 
0

>  <NumAliphaticHeterocycles>  (5) 
0

>  <NumAliphaticRings>  (5) 
0

>  <NumAromaticCarbocycles>  (5) 
0

>  <NumAromaticHeterocycles>  (5) 
0

>  <NumAromaticRings>  (5) 
0

>  <NumHAcceptors>  (5) 
6

>  <NumHDonors>  (5) 
0

>  <NumHeteroatoms>  (5) 
6

>  <NumRotatableBonds>  (5) 
20

>  <NumSaturatedCarbocycles>  (5) 
0

>  <NumSaturatedHeterocycles>  (5) 
0

>  <NumSaturatedRings>  (5) 
0

>  <RingCount>  (5) 
0

>  <MolLogP>  (5) 
5.8958

>  <MolMR>  (5) 
118.075

>  <fr_Al_COO>  (5) 
0

>  <fr_Al_OH>  (5) 
0

>  <fr_Al_OH_noTert>  (5) 
0

>  <fr_ArN>  (5) 
0

>  <fr_Ar_COO>  (5) 
0

>  <fr_Ar_N>  (5) 
0

>  <fr_Ar_NH>  (5) 
0

>  <fr_Ar_OH>  (5) 
0

>  <fr_COO>  (5) 
0

>  <fr_COO2>  (5) 
0

>  <fr_C_O>  (5) 
3

>  <fr_C_O_noCOO>  (5) 
3

>  <fr_C_S>  (5) 
0

>  <fr_HOCCN>  (5) 
0

>  <fr_Imine>  (5) 
0

>  <fr_NH0>  (5) 
0

>  <fr_NH1>  (5) 
0

>  <fr_NH2>  (5) 
0

>  <fr_N_O>  (5) 
0

>  <fr_Ndealkylation1>  (5) 
0

>  <fr_Ndealkylation2>  (5) 
0

>  <fr_Nhpyrrole>  (5) 
0

>  <fr_SH>  (5) 
0

>  <fr_aldehyde>  (5) 
0

>  <fr_alkyl_carbamate>  (5) 
0

>  <fr_alkyl_halide>  (5) 
0

>  <fr_allylic_oxid>  (5) 
0

>  <fr_amide>  (5) 
0

>  <fr_amidine>  (5) 
0

>  <fr_aniline>  (5) 
0

>  <fr_aryl_methyl>  (5) 
0

>  <fr_azide>  (5) 
0

>  <fr_azo>  (5) 
0

>  <fr_barbitur>  (5) 
0

>  <fr_benzene>  (5) 
0

>  <fr_benzodiazepine>  (5) 
0

>  <fr_bicyclic>  (5) 
0

>  <fr_diazo>  (5) 
0

>  <fr_dihydropyridine>  (5) 
0

>  <fr_epoxide>  (5) 
0

>  <fr_ester>  (5) 
3

>  <fr_ether>  (5) 
3

>  <fr_furan>  (5) 
0

>  <fr_guanido>  (5) 
0

>  <fr_halogen>  (5) 
0

>  <fr_hdrzine>  (5) 
0

>  <fr_hdrzone>  (5) 
0

>  <fr_imidazole>  (5) 
0

>  <fr_imide>  (5) 
0

>  <fr_isocyan>  (5) 
0

>  <fr_isothiocyan>  (5) 
0

>  <fr_ketone>  (5) 
0

>  <fr_ketone_Topliss>  (5) 
0

>  <fr_lactam>  (5) 
0

>  <fr_lactone>  (5) 
0

>  <fr_methoxy>  (5) 
0

>  <fr_morpholine>  (5) 
0

>  <fr_nitrile>  (5) 
0

>  <fr_nitro>  (5) 
0

>  <fr_nitro_arom>  (5) 
0

>  <fr_nitro_arom_nonortho>  (5) 
0

>  <fr_nitroso>  (5) 
0

>  <fr_oxazole>  (5) 
0

>  <fr_oxime>  (5) 
0

>  <fr_para_hydroxylation>  (5) 
0

>  <fr_phenol>  (5) 
0

>  <fr_phenol_noOrthoHbond>  (5) 
0

>  <fr_phos_acid>  (5) 
0

>  <fr_phos_ester>  (5) 
0

>  <fr_piperdine>  (5) 
0

>  <fr_piperzine>  (5) 
0

>  <fr_priamide>  (5) 
0

>  <fr_prisulfonamd>  (5) 
0

>  <fr_pyridine>  (5) 
0

>  <fr_quatN>  (5) 
0

>  <fr_sulfide>  (5) 
0

>  <fr_sulfonamd>  (5) 
0

>  <fr_sulfone>  (5) 
0

>  <fr_term_acetylene>  (5) 
0

>  <fr_tetrazole>  (5) 
0

>  <fr_thiazole>  (5) 
0

>  <fr_thiocyan>  (5) 
0

>  <fr_thiophene>  (5) 
0

>  <fr_unbrch_alkane>  (5) 
9

>  <fr_urea>  (5) 
0

>  <NP_Likeness>  (5) 
0.441539

$$$$
CHEMBL1490
     RDKit          3D

  0  0  0  0  0  0  0  0  0  0999 V3000
M  V30 BEGIN CTAB
M  V30 COUNTS 53 55 0 0 0
M  V30 BEGIN ATOM
M  V30 1 O 0.541641 0.951522 0.448015 0
M  V30 2 C -0.156128 0.028472 1.225027 0 CFG=1
M  V30 3 C 0.364159 -1.358084 1.179563 0
M  V30 4 C 0.405778 -2.045594 -0.127841 0
M  V30 5 N 1.206997 -1.394276 -1.133303 0
M  V30 6 C 1.170922 -2.149116 -2.372330 0
M  V30 7 C 2.395141 -2.962795 -2.629315 0
M  V30 8 C 3.524157 -1.981827 -2.917573 0
M  V30 9 C 3.586647 -1.053583 -1.739952 0
M  V30 10 C 2.578917 -1.353947 -0.681712 0
M  V30 11 C 0.029736 0.576037 2.633996 0
M  V30 12 C -0.294446 1.880699 2.936987 0
M  V30 13 C -0.138843 2.391509 4.206606 0
M  V30 14 C 0.350852 1.602117 5.218240 0
M  V30 15 C 0.679460 0.310339 4.948406 0
M  V30 16 C 0.512029 -0.169233 3.669993 0
M  V30 17 C -1.619250 0.201314 0.968272 0
M  V30 18 C -2.098780 0.021159 -0.414698 0
M  V30 19 C -3.208066 -1.032342 -0.533335 0
M  V30 20 C -4.410407 -0.603824 0.283703 0
M  V30 21 C -3.911532 -0.410230 1.696757 0
M  V30 22 C -2.446369 -0.735347 1.861242 0
M  V30 23 H 1.353759 1.301452 0.919899 0
M  V30 24 H -0.165877 -2.000697 1.923013 0
M  V30 25 H 1.415428 -1.326942 1.597111 0
M  V30 26 H -0.562580 -2.331540 -0.574009 0
M  V30 27 H 0.892147 -3.058084 0.061515 0
M  V30 28 H 0.986223 -1.500745 -3.251871 0
M  V30 29 H 0.310183 -2.874905 -2.328449 0
M  V30 30 H 2.192161 -3.559542 -3.555118 0
M  V30 31 H 2.613179 -3.663782 -1.823355 0
M  V30 32 H 3.240042 -1.460329 -3.858802 0
M  V30 33 H 4.435262 -2.571434 -3.089031 0
M  V30 34 H 3.589885 0.024680 -2.017936 0
M  V30 35 H 4.583200 -1.226258 -1.273192 0
M  V30 36 H 2.757363 -0.643325 0.148545 0
M  V30 37 H 2.811927 -2.374644 -0.258101 0
M  V30 38 H -0.679319 2.553996 2.185764 0
M  V30 39 H -0.403160 3.427102 4.419392 0
M  V30 40 H 0.453267 2.052873 6.196365 0
M  V30 41 H 1.061727 -0.299748 5.745303 0
M  V30 42 H 0.790473 -1.201790 3.520342 0
M  V30 43 H -1.913727 1.225092 1.329673 0
M  V30 44 H -1.373489 -0.201929 -1.191577 0
M  V30 45 H -2.607678 0.971234 -0.775311 0
M  V30 46 H -3.478543 -1.118446 -1.598739 0
M  V30 47 H -2.891369 -2.022353 -0.182494 0
M  V30 48 H -4.837720 0.295570 -0.165325 0
M  V30 49 H -5.136752 -1.414589 0.237946 0
M  V30 50 H -4.033571 0.652296 1.981873 0
M  V30 51 H -4.478274 -1.077389 2.371920 0
M  V30 52 H -2.183222 -1.783128 1.710357 0
M  V30 53 H -2.217492 -0.519645 2.935146 0
M  V30 END ATOM
M  V30 BEGIN BOND
M  V30 1 1 2 1 CFG=3
M  V30 2 1 2 3
M  V30 3 1 3 4
M  V30 4 1 4 5
M  V30 5 1 5 6
M  V30 6 1 6 7
M  V30 7 1 7 8
M  V30 8 1 8 9
M  V30 9 1 9 10
M  V30 10 1 2 11
M  V30 11 2 11 12
M  V30 12 1 12 13
M  V30 13 2 13 14
M  V30 14 1 14 15
M  V30 15 2 15 16
M  V30 16 1 2 17
M  V30 17 1 17 18
M  V30 18 1 18 19
M  V30 19 1 19 20
M  V30 20 1 20 21
M  V30 21 1 21 22
M  V30 22 1 10 5
M  V30 23 1 16 11
M  V30 24 1 22 17
M  V30 25 1 1 23
M  V30 26 1 3 24
M  V30 27 1 3 25
M  V30 28 1 4 26
M  V30 29 1 4 27
M  V30 30 1 6 28
M  V30 31 1 6 29
M  V30 32 1 7 30
M  V30 33 1 7 31
M  V30 34 1 8 32
M  V30 35 1 8 33
M  V30 36 1 9 34
M  V30 37 1 9 35
M  V30 38 1 10 36
M  V30 39 1 10 37
M  V30 40 1 12 38
M  V30 41 1 13 39
M  V30 42 1 14 40
M  V30 43 1 15 41
M  V30 44 1 16 42
M  V30 45 1 17 43
M  V30 46 1 18 44
M  V30 47 1 18 45
M  V30 48 1 19 46
M  V30 49 1 19 47
M  V30 50 1 20 48
M  V30 51 1 20 49
M  V30 52 1 21 50
M  V30 53 1 21 51
M  V30 54 1 22 52
M  V30 55 1 22 53
M  V30 END BOND
M  V30 END CTAB
M  END
>  <Dataset>  (6) 
OralDrugs

>  <Ligand_Instance>  (6) 
nan

>  <PDB_ID>  (6) 
nan

>  <Standardized_SMILES>  (6) 
OC(CCN1CCCCC1)(c1ccccc1)C1CCCCC1

>  <Name>  (6) 
Trihexyphenidyl

>  <Pocket>  (6) 
nan

>  <ATP_Site>  (6) 
nan

>  <Peripheral>  (6) 
nan

>  <Num_H_Atoms_ProtBoundConf>  (6) 
nan

>  <Num_Resolved_Atoms>  (6) 
nan

>  <Num_Not_Resolved_Atoms>  (6) 
nan

>  <2D_Mol_H>  (6) 
<rdkit.Chem.rdchem.Mol object at 0x72a238b92960>

>  <MW>  (6) 
301.474

>  <HBA>  (6) 
2

>  <HBD>  (6) 
1

>  <LogP>  (6) 
4.3305

>  <NRB>  (6) 
6

>  <TPSA>  (6) 
23.47

>  <Num_Heavy_Atoms>  (6) 
22

>  <Ro5>  (6) 
[True, True, True, True, True, True]

>  <Ro5_Fulfilled>  (6) 
True

>  <Ro3>  (6) 
[False, True, True, False]

>  <Ro3_Fulfilled>  (6) 
False

>  <Fsp3>  (6) 
0.7

>  <Fsp3_0.42>  (6) 
True

>  <Fsp3_0.45>  (6) 
True

>  <Stereogenic_Carbons>  (6) 
1

>  <C_Atoms>  (6) 
20

>  <FCStereo>  (6) 
0.05

>  <SPS>  (6) 
529

>  <nSPS>  (6) 
24.045455

>  <PBF>  (6) 
0.92673

>  <PBF_0.6>  (6) 
True

>  <nPBF>  (6) 
0.042124

>  <nPBF_0.016>  (6) 
True

>  <PMI1>  (6) 
1325.800547

>  <PMI2>  (6) 
2546.767228

>  <PMI3>  (6) 
3468.854223

>  <NPR1>  (6) 
0.382201

>  <NPR2>  (6) 
0.734181

>  <Sum_NPR>  (6) 
1.116382

>  <Sum_NPR_1.07>  (6) 
True

>  <Sum_NPR_1.2>  (6) 
False

>  <MaxAbsEStateIndex>  (6) 
11.611347

>  <MaxEStateIndex>  (6) 
11.611347

>  <MinAbsEStateIndex>  (6) 
0.438371

>  <MinEStateIndex>  (6) 
-0.625866

>  <qed>  (6) 
0.87471

>  <MolWt>  (6) 
301.474

>  <HeavyAtomMolWt>  (6) 
270.226

>  <ExactMolWt>  (6) 
301.240565

>  <NumValenceElectrons>  (6) 
122

>  <NumRadicalElectrons>  (6) 
0

>  <MaxPartialCharge>  (6) 
0.093625

>  <MinPartialCharge>  (6) 
-0.384828

>  <MaxAbsPartialCharge>  (6) 
0.384828

>  <MinAbsPartialCharge>  (6) 
0.093625

>  <FpDensityMorgan1>  (6) 
0.909091

>  <FpDensityMorgan2>  (6) 
1.545455

>  <FpDensityMorgan3>  (6) 
2.227273

>  <BCUT2D_MWHI>  (6) 
16.285066

>  <BCUT2D_MWLOW>  (6) 
9.714204

>  <BCUT2D_CHGHI>  (6) 
2.383382

>  <BCUT2D_CHGLO>  (6) 
-2.404805

>  <BCUT2D_LOGPHI>  (6) 
2.413756

>  <BCUT2D_LOGPLOW>  (6) 
-2.409363

>  <BCUT2D_MRHI>  (6) 
5.232923

>  <BCUT2D_MRLOW>  (6) 
-0.05284

>  <AvgIpc>  (6) 
2.619564

>  <BalabanJ>  (6) 
1.72651

>  <BertzCT>  (6) 
434.280283

>  <Chi0>  (6) 
15.252866

>  <Chi0n>  (6) 
13.84381

>  <Chi0v>  (6) 
13.84381

>  <Chi1>  (6) 
10.788642

>  <Chi1n>  (6) 
9.291699

>  <Chi1v>  (6) 
9.291699

>  <Chi2n>  (6) 
7.277515

>  <Chi2v>  (6) 
7.277515

>  <Chi3n>  (6) 
5.81208

>  <Chi3v>  (6) 
5.81208

>  <Chi4n>  (6) 
4.402651

>  <Chi4v>  (6) 
4.402651

>  <HallKierAlpha>  (6) 
-0.86

>  <Ipc>  (6) 
170166.899073

>  <Kappa1>  (6) 
16.013903

>  <Kappa2>  (6) 
7.608624

>  <Kappa3>  (6) 
3.721242

>  <LabuteASA>  (6) 
135.082998

>  <PEOE_VSA1>  (6) 
10.006437

>  <PEOE_VSA10>  (6) 
0.0

>  <PEOE_VSA11>  (6) 
0.0

>  <PEOE_VSA12>  (6) 
0.0

>  <PEOE_VSA13>  (6) 
0.0

>  <PEOE_VSA14>  (6) 
0.0

>  <PEOE_VSA2>  (6) 
0.0

>  <PEOE_VSA3>  (6) 
0.0

>  <PEOE_VSA4>  (6) 
0.0

>  <PEOE_VSA5>  (6) 
0.0

>  <PEOE_VSA6>  (6) 
56.015122

>  <PEOE_VSA7>  (6) 
56.674978

>  <PEOE_VSA8>  (6) 
6.544756

>  <PEOE_VSA9>  (6) 
5.601051

>  <SMR_VSA1>  (6) 
5.106527

>  <SMR_VSA10>  (6) 
0.0

>  <SMR_VSA2>  (6) 
0.0

>  <SMR_VSA3>  (6) 
4.89991

>  <SMR_VSA4>  (6) 
5.917906

>  <SMR_VSA5>  (6) 
63.388445

>  <SMR_VSA6>  (6) 
19.634269

>  <SMR_VSA7>  (6) 
35.895287

>  <SMR_VSA8>  (6) 
0.0

>  <SMR_VSA9>  (6) 
0.0

>  <SlogP_VSA1>  (6) 
0.0

>  <SlogP_VSA10>  (6) 
0.0

>  <SlogP_VSA11>  (6) 
0.0

>  <SlogP_VSA12>  (6) 
0.0

>  <SlogP_VSA2>  (6) 
29.640706

>  <SlogP_VSA3>  (6) 
5.601051

>  <SlogP_VSA4>  (6) 
5.917906

>  <SlogP_VSA5>  (6) 
63.350846

>  <SlogP_VSA6>  (6) 
30.331835

>  <SlogP_VSA7>  (6) 
0.0

>  <SlogP_VSA8>  (6) 
0.0

>  <SlogP_VSA9>  (6) 
0.0

>  <EState_VSA1>  (6) 
5.601051

>  <EState_VSA10>  (6) 
5.106527

>  <EState_VSA11>  (6) 
0.0

>  <EState_VSA2>  (6) 
0.0

>  <EState_VSA3>  (6) 
5.917906

>  <EState_VSA4>  (6) 
18.52903

>  <EState_VSA5>  (6) 
64.456086

>  <EState_VSA6>  (6) 
0.0

>  <EState_VSA7>  (6) 
0.0

>  <EState_VSA8>  (6) 
35.231745

>  <EState_VSA9>  (6) 
0.0

>  <VSA_EState1>  (6) 
0.0

>  <VSA_EState10>  (6) 
0.0

>  <VSA_EState2>  (6) 
2.55579

>  <VSA_EState3>  (6) 
11.611347

>  <VSA_EState4>  (6) 
0.512013

>  <VSA_EState5>  (6) 
0.438371

>  <VSA_EState6>  (6) 
10.457433

>  <VSA_EState7>  (6) 
11.195911

>  <VSA_EState8>  (6) 
3.479134

>  <VSA_EState9>  (6) 
0.0

>  <FractionCSP3>  (6) 
0.7

>  <HeavyAtomCount>  (6) 
22

>  <NHOHCount>  (6) 
1

>  <NOCount>  (6) 
2

>  <NumAliphaticCarbocycles>  (6) 
1

>  <NumAliphaticHeterocycles>  (6) 
1

>  <NumAliphaticRings>  (6) 
2

>  <NumAromaticCarbocycles>  (6) 
1

>  <NumAromaticHeterocycles>  (6) 
0

>  <NumAromaticRings>  (6) 
1

>  <NumHAcceptors>  (6) 
2

>  <NumHDonors>  (6) 
1

>  <NumHeteroatoms>  (6) 
2

>  <NumRotatableBonds>  (6) 
5

>  <NumSaturatedCarbocycles>  (6) 
1

>  <NumSaturatedHeterocycles>  (6) 
1

>  <NumSaturatedRings>  (6) 
2

>  <RingCount>  (6) 
3

>  <MolLogP>  (6) 
4.3305

>  <MolMR>  (6) 
91.8218

>  <fr_Al_COO>  (6) 
0

>  <fr_Al_OH>  (6) 
1

>  <fr_Al_OH_noTert>  (6) 
0

>  <fr_ArN>  (6) 
0

>  <fr_Ar_COO>  (6) 
0

>  <fr_Ar_N>  (6) 
0

>  <fr_Ar_NH>  (6) 
0

>  <fr_Ar_OH>  (6) 
0

>  <fr_COO>  (6) 
0

>  <fr_COO2>  (6) 
0

>  <fr_C_O>  (6) 
0

>  <fr_C_O_noCOO>  (6) 
0

>  <fr_C_S>  (6) 
0

>  <fr_HOCCN>  (6) 
0

>  <fr_Imine>  (6) 
0

>  <fr_NH0>  (6) 
1

>  <fr_NH1>  (6) 
0

>  <fr_NH2>  (6) 
0

>  <fr_N_O>  (6) 
0

>  <fr_Ndealkylation1>  (6) 
0

>  <fr_Ndealkylation2>  (6) 
1

>  <fr_Nhpyrrole>  (6) 
0

>  <fr_SH>  (6) 
0

>  <fr_aldehyde>  (6) 
0

>  <fr_alkyl_carbamate>  (6) 
0

>  <fr_alkyl_halide>  (6) 
0

>  <fr_allylic_oxid>  (6) 
0

>  <fr_amide>  (6) 
0

>  <fr_amidine>  (6) 
0

>  <fr_aniline>  (6) 
0

>  <fr_aryl_methyl>  (6) 
0

>  <fr_azide>  (6) 
0

>  <fr_azo>  (6) 
0

>  <fr_barbitur>  (6) 
0

>  <fr_benzene>  (6) 
1

>  <fr_benzodiazepine>  (6) 
0

>  <fr_bicyclic>  (6) 
0

>  <fr_diazo>  (6) 
0

>  <fr_dihydropyridine>  (6) 
0

>  <fr_epoxide>  (6) 
0

>  <fr_ester>  (6) 
0

>  <fr_ether>  (6) 
0

>  <fr_furan>  (6) 
0

>  <fr_guanido>  (6) 
0

>  <fr_halogen>  (6) 
0

>  <fr_hdrzine>  (6) 
0

>  <fr_hdrzone>  (6) 
0

>  <fr_imidazole>  (6) 
0

>  <fr_imide>  (6) 
0

>  <fr_isocyan>  (6) 
0

>  <fr_isothiocyan>  (6) 
0

>  <fr_ketone>  (6) 
0

>  <fr_ketone_Topliss>  (6) 
0

>  <fr_lactam>  (6) 
0

>  <fr_lactone>  (6) 
0

>  <fr_methoxy>  (6) 
0

>  <fr_morpholine>  (6) 
0

>  <fr_nitrile>  (6) 
0

>  <fr_nitro>  (6) 
0

>  <fr_nitro_arom>  (6) 
0

>  <fr_nitro_arom_nonortho>  (6) 
0

>  <fr_nitroso>  (6) 
0

>  <fr_oxazole>  (6) 
0

>  <fr_oxime>  (6) 
0

>  <fr_para_hydroxylation>  (6) 
0

>  <fr_phenol>  (6) 
0

>  <fr_phenol_noOrthoHbond>  (6) 
0

>  <fr_phos_acid>  (6) 
0

>  <fr_phos_ester>  (6) 
0

>  <fr_piperdine>  (6) 
1

>  <fr_piperzine>  (6) 
0

>  <fr_priamide>  (6) 
0

>  <fr_prisulfonamd>  (6) 
0

>  <fr_pyridine>  (6) 
0

>  <fr_quatN>  (6) 
0

>  <fr_sulfide>  (6) 
0

>  <fr_sulfonamd>  (6) 
0

>  <fr_sulfone>  (6) 
0

>  <fr_term_acetylene>  (6) 
0

>  <fr_tetrazole>  (6) 
0

>  <fr_thiazole>  (6) 
0

>  <fr_thiocyan>  (6) 
0

>  <fr_thiophene>  (6) 
0

>  <fr_unbrch_alkane>  (6) 
0

>  <fr_urea>  (6) 
0

>  <NP_Likeness>  (6) 
-0.429007

$$$$
CHEMBL1200907
     RDKit          3D

  0  0  0  0  0  0  0  0  0  0999 V3000
M  V30 BEGIN CTAB
M  V30 COUNTS 51 55 0 0 0
M  V30 BEGIN ATOM
M  V30 1 C 1.601108 -0.404607 1.072711 0
M  V30 2 C 1.961703 -0.995690 -0.245394 0 CFG=2
M  V30 3 C 2.166664 0.045628 -1.322459 0
M  V30 4 C 0.892572 0.795335 -1.544194 0
M  V30 5 C -0.295198 -0.070082 -1.789463 0 CFG=1
M  V30 6 C -0.389275 -1.248131 -0.863609 0 CFG=1
M  V30 7 C -1.530376 -2.133756 -1.244060 0
M  V30 8 C -2.468318 -1.589056 -2.259492 0
M  V30 9 C -2.677823 -0.115918 -2.234864 0 CFG=1
M  V30 10 O -2.875204 0.370287 -3.645696 0
M  V30 11 C -3.846640 0.562299 -2.676639 0 CFG=2
M  V30 12 C -3.958838 1.942047 -2.169945 0
M  V30 13 O -5.228524 2.505082 -1.935332 0
M  V30 14 C -2.878079 2.673074 -1.927552 0
M  V30 15 C -2.938919 4.024232 -1.432696 0
M  V30 16 N -2.983124 5.113182 -1.040220 0
M  V30 17 C -1.506503 2.095926 -2.170923 0
M  V30 18 C -1.577855 0.687007 -1.619246 0 CFG=2
M  V30 19 C -1.913443 0.837646 -0.133137 0
M  V30 20 C 0.918720 -1.947332 -0.807604 0 CFG=2
M  V30 21 C 0.983811 -3.096785 0.142126 0
M  V30 22 C 2.490917 -3.276855 0.306077 0
M  V30 23 C 3.113480 -1.929668 -0.070297 0 CFG=2
M  V30 24 O 3.894389 -1.561418 1.028499 0
M  V30 25 H 0.803762 -0.894492 1.631404 0
M  V30 26 H 2.515255 -0.413665 1.735224 0
M  V30 27 H 1.321470 0.675720 1.032113 0
M  V30 28 H 2.949415 0.765394 -1.030226 0
M  V30 29 H 2.497126 -0.484968 -2.245333 0
M  V30 30 H 0.749810 1.535634 -0.729971 0
M  V30 31 H 1.056451 1.411257 -2.478275 0
M  V30 32 H -0.274819 -0.406624 -2.856630 0
M  V30 33 H -0.604214 -0.856746 0.155381 0
M  V30 34 H -1.066388 -3.068145 -1.667149 0
M  V30 35 H -2.068624 -2.515508 -0.330819 0
M  V30 36 H -3.476535 -2.045460 -2.028597 0
M  V30 37 H -2.234530 -2.012095 -3.274976 0
M  V30 38 H -4.794711 -0.014453 -2.731685 0
M  V30 39 H -5.431449 2.708911 -0.949487 0
M  V30 40 H -0.764053 2.641953 -1.539042 0
M  V30 41 H -1.216614 2.128395 -3.225222 0
M  V30 42 H -2.470283 -0.037565 0.242133 0
M  V30 43 H -2.638035 1.701425 -0.068842 0
M  V30 44 H -1.039944 1.127690 0.463051 0
M  V30 45 H 1.299634 -2.281299 -1.794288 0
M  V30 46 H 0.549021 -4.036893 -0.286234 0
M  V30 47 H 0.459741 -2.932430 1.090935 0
M  V30 48 H 2.798756 -4.022488 -0.477931 0
M  V30 49 H 2.748603 -3.610526 1.310436 0
M  V30 50 H 3.757619 -2.010677 -0.965368 0
M  V30 51 H 4.165702 -2.362385 1.568568 0
M  V30 END ATOM
M  V30 BEGIN BOND
M  V30 1 1 2 1 CFG=1
M  V30 2 1 2 3
M  V30 3 1 3 4
M  V30 4 1 4 5
M  V30 5 1 5 6
M  V30 6 1 6 7
M  V30 7 1 7 8
M  V30 8 1 8 9
M  V30 9 1 9 10 CFG=3
M  V30 10 1 10 11
M  V30 11 1 11 12
M  V30 12 1 12 13
M  V30 13 2 12 14
M  V30 14 1 14 15
M  V30 15 3 15 16
M  V30 16 1 14 17
M  V30 17 1 17 18
M  V30 18 1 18 19 CFG=1
M  V30 19 1 6 20
M  V30 20 1 20 21
M  V30 21 1 21 22
M  V30 22 1 22 23
M  V30 23 1 23 24
M  V30 24 1 20 2
M  V30 25 1 23 2
M  V30 26 1 18 5
M  V30 27 1 11 9
M  V30 28 1 18 9
M  V30 29 1 1 25
M  V30 30 1 1 26
M  V30 31 1 1 27
M  V30 32 1 3 28
M  V30 33 1 3 29
M  V30 34 1 4 30
M  V30 35 1 4 31
M  V30 36 1 5 32 CFG=3
M  V30 37 1 6 33 CFG=1
M  V30 38 1 7 34
M  V30 39 1 7 35
M  V30 40 1 8 36
M  V30 41 1 8 37
M  V30 42 1 11 38 CFG=3
M  V30 43 1 13 39
M  V30 44 1 17 40
M  V30 45 1 17 41
M  V30 46 1 19 42
M  V30 47 1 19 43
M  V30 48 1 19 44
M  V30 49 1 20 45 CFG=3
M  V30 50 1 21 46
M  V30 51 1 21 47
M  V30 52 1 22 48
M  V30 53 1 22 49
M  V30 54 1 23 50 CFG=3
M  V30 55 1 24 51
M  V30 END BOND
M  V30 END CTAB
M  END
>  <Dataset>  (7) 
OralDrugs

>  <Ligand_Instance>  (7) 
nan

>  <PDB_ID>  (7) 
nan

>  <Standardized_SMILES>  (7) 
C[C@]12CC[C@H]3[C@@H](CC[C@@]45O[C@@H]4C(O)=C(C#N)C[C@]35C)[C@@H]1CC[C@@H]2O

>  <Name>  (7) 
Trilostane

>  <Pocket>  (7) 
nan

>  <ATP_Site>  (7) 
nan

>  <Peripheral>  (7) 
nan

>  <Num_H_Atoms_ProtBoundConf>  (7) 
nan

>  <Num_Resolved_Atoms>  (7) 
nan

>  <Num_Not_Resolved_Atoms>  (7) 
nan

>  <2D_Mol_H>  (7) 
<rdkit.Chem.rdchem.Mol object at 0x72a238b92a40>

>  <MW>  (7) 
329.44

>  <HBA>  (7) 
4

>  <HBD>  (7) 
2

>  <LogP>  (7) 
3.46688

>  <NRB>  (7) 
4

>  <TPSA>  (7) 
76.78

>  <Num_Heavy_Atoms>  (7) 
24

>  <Ro5>  (7) 
[True, True, True, True, True, True]

>  <Ro5_Fulfilled>  (7) 
True

>  <Ro3>  (7) 
[False, False, True, False]

>  <Ro3_Fulfilled>  (7) 
False

>  <Fsp3>  (7) 
0.85

>  <Fsp3_0.42>  (7) 
True

>  <Fsp3_0.45>  (7) 
True

>  <Stereogenic_Carbons>  (7) 
8

>  <C_Atoms>  (7) 
20

>  <FCStereo>  (7) 
0.4

>  <SPS>  (7) 
1396

>  <nSPS>  (7) 
58.166667

>  <PBF>  (7) 
0.917804

>  <PBF_0.6>  (7) 
True

>  <nPBF>  (7) 
0.038242

>  <nPBF_0.016>  (7) 
True

>  <PMI1>  (7) 
889.390604

>  <PMI2>  (7) 
3425.926504

>  <PMI3>  (7) 
3904.395691

>  <NPR1>  (7) 
0.227792

>  <NPR2>  (7) 
0.877454

>  <Sum_NPR>  (7) 
1.105246

>  <Sum_NPR_1.07>  (7) 
True

>  <Sum_NPR_1.2>  (7) 
False

>  <MaxAbsEStateIndex>  (7) 
10.536023

>  <MaxEStateIndex>  (7) 
10.536023

>  <MinAbsEStateIndex>  (7) 
0.04886

>  <MinEStateIndex>  (7) 
-0.241362

>  <qed>  (7) 
0.667231

>  <MolWt>  (7) 
329.44

>  <HeavyAtomMolWt>  (7) 
302.224

>  <ExactMolWt>  (7) 
329.199094

>  <NumValenceElectrons>  (7) 
130

>  <NumRadicalElectrons>  (7) 
0

>  <MaxPartialCharge>  (7) 
0.145555

>  <MinPartialCharge>  (7) 
-0.508377

>  <MaxAbsPartialCharge>  (7) 
0.508377

>  <MinAbsPartialCharge>  (7) 
0.145555

>  <FpDensityMorgan1>  (7) 
1.125

>  <FpDensityMorgan2>  (7) 
1.916667

>  <FpDensityMorgan3>  (7) 
2.666667

>  <BCUT2D_MWHI>  (7) 
16.626506

>  <BCUT2D_MWLOW>  (7) 
9.447314

>  <BCUT2D_CHGHI>  (7) 
2.75862

>  <BCUT2D_CHGLO>  (7) 
-2.584493

>  <BCUT2D_LOGPHI>  (7) 
2.725631

>  <BCUT2D_LOGPLOW>  (7) 
-2.572264

>  <BCUT2D_MRHI>  (7) 
5.412206

>  <BCUT2D_MRLOW>  (7) 
-0.116401

>  <AvgIpc>  (7) 
3.232441

>  <BalabanJ>  (7) 
1.546288

>  <BertzCT>  (7) 
680.861671

>  <Chi0>  (7) 
16.905413

>  <Chi0n>  (7) 
14.586388

>  <Chi0v>  (7) 
14.586388

>  <Chi1>  (7) 
11.371793

>  <Chi1n>  (7) 
9.552488

>  <Chi1v>  (7) 
9.552488

>  <Chi2n>  (7) 
9.510379

>  <Chi2v>  (7) 
9.510379

>  <Chi3n>  (7) 
8.952192

>  <Chi3v>  (7) 
8.952192

>  <Chi4n>  (7) 
7.504638

>  <Chi4v>  (7) 
7.504638

>  <HallKierAlpha>  (7) 
-1.05

>  <Ipc>  (7) 
541036.206727

>  <Kappa1>  (7) 
15.22419

>  <Kappa2>  (7) 
4.370503

>  <Kappa3>  (7) 
1.484317

>  <LabuteASA>  (7) 
143.048985

>  <PEOE_VSA1>  (7) 
14.949918

>  <PEOE_VSA10>  (7) 
17.464182

>  <PEOE_VSA11>  (7) 
0.0

>  <PEOE_VSA12>  (7) 
0.0

>  <PEOE_VSA13>  (7) 
0.0

>  <PEOE_VSA14>  (7) 
0.0

>  <PEOE_VSA2>  (7) 
0.0

>  <PEOE_VSA3>  (7) 
0.0

>  <PEOE_VSA4>  (7) 
5.261892

>  <PEOE_VSA5>  (7) 
0.0

>  <PEOE_VSA6>  (7) 
13.847474

>  <PEOE_VSA7>  (7) 
68.11446

>  <PEOE_VSA8>  (7) 
5.41499

>  <PEOE_VSA9>  (7) 
17.746292

>  <SMR_VSA1>  (7) 
14.949918

>  <SMR_VSA10>  (7) 
0.0

>  <SMR_VSA2>  (7) 
5.261892

>  <SMR_VSA3>  (7) 
0.0

>  <SMR_VSA4>  (7) 
28.583699

>  <SMR_VSA5>  (7) 
76.602209

>  <SMR_VSA6>  (7) 
0.0

>  <SMR_VSA7>  (7) 
11.332269

>  <SMR_VSA8>  (7) 
0.0

>  <SMR_VSA9>  (7) 
6.069221

>  <SlogP_VSA1>  (7) 
0.0

>  <SlogP_VSA10>  (7) 
0.0

>  <SlogP_VSA11>  (7) 
0.0

>  <SlogP_VSA12>  (7) 
0.0

>  <SlogP_VSA2>  (7) 
28.022038

>  <SlogP_VSA3>  (7) 
4.736863

>  <SlogP_VSA4>  (7) 
39.914812

>  <SlogP_VSA5>  (7) 
58.793226

>  <SlogP_VSA6>  (7) 
11.332269

>  <SlogP_VSA7>  (7) 
0.0

>  <SlogP_VSA8>  (7) 
0.0

>  <SlogP_VSA9>  (7) 
0.0

>  <EState_VSA1>  (7) 
0.0

>  <EState_VSA10>  (7) 
15.474946

>  <EState_VSA11>  (7) 
0.0

>  <EState_VSA2>  (7) 
34.398129

>  <EState_VSA3>  (7) 
29.747644

>  <EState_VSA4>  (7) 
38.52493

>  <EState_VSA5>  (7) 
0.0

>  <EState_VSA6>  (7) 
0.0

>  <EState_VSA7>  (7) 
0.0

>  <EState_VSA8>  (7) 
19.916696

>  <EState_VSA9>  (7) 
4.736863

>  <VSA_EState1>  (7) 
6.114968

>  <VSA_EState10>  (7) 
0.0

>  <VSA_EState2>  (7) 
0.0

>  <VSA_EState3>  (7) 
30.350069

>  <VSA_EState4>  (7) 
0.336491

>  <VSA_EState5>  (7) 
1.963575

>  <VSA_EState6>  (7) 
2.231662

>  <VSA_EState7>  (7) 
6.652397

>  <VSA_EState8>  (7) 
4.600839

>  <VSA_EState9>  (7) 
0.0

>  <FractionCSP3>  (7) 
0.85

>  <HeavyAtomCount>  (7) 
24

>  <NHOHCount>  (7) 
2

>  <NOCount>  (7) 
4

>  <NumAliphaticCarbocycles>  (7) 
4

>  <NumAliphaticHeterocycles>  (7) 
1

>  <NumAliphaticRings>  (7) 
5

>  <NumAromaticCarbocycles>  (7) 
0

>  <NumAromaticHeterocycles>  (7) 
0

>  <NumAromaticRings>  (7) 
0

>  <NumHAcceptors>  (7) 
4

>  <NumHDonors>  (7) 
2

>  <NumHeteroatoms>  (7) 
4

>  <NumRotatableBonds>  (7) 
0

>  <NumSaturatedCarbocycles>  (7) 
3

>  <NumSaturatedHeterocycles>  (7) 
1

>  <NumSaturatedRings>  (7) 
4

>  <RingCount>  (7) 
5

>  <MolLogP>  (7) 
3.46688

>  <MolMR>  (7) 
87.8816

>  <fr_Al_COO>  (7) 
0

>  <fr_Al_OH>  (7) 
2

>  <fr_Al_OH_noTert>  (7) 
2

>  <fr_ArN>  (7) 
0

>  <fr_Ar_COO>  (7) 
0

>  <fr_Ar_N>  (7) 
0

>  <fr_Ar_NH>  (7) 
0

>  <fr_Ar_OH>  (7) 
0

>  <fr_COO>  (7) 
0

>  <fr_COO2>  (7) 
0

>  <fr_C_O>  (7) 
0

>  <fr_C_O_noCOO>  (7) 
0

>  <fr_C_S>  (7) 
0

>  <fr_HOCCN>  (7) 
0

>  <fr_Imine>  (7) 
0

>  <fr_NH0>  (7) 
1

>  <fr_NH1>  (7) 
0

>  <fr_NH2>  (7) 
0

>  <fr_N_O>  (7) 
0

>  <fr_Ndealkylation1>  (7) 
0

>  <fr_Ndealkylation2>  (7) 
0

>  <fr_Nhpyrrole>  (7) 
0

>  <fr_SH>  (7) 
0

>  <fr_aldehyde>  (7) 
0

>  <fr_alkyl_carbamate>  (7) 
0

>  <fr_alkyl_halide>  (7) 
0

>  <fr_allylic_oxid>  (7) 
1

>  <fr_amide>  (7) 
0

>  <fr_amidine>  (7) 
0

>  <fr_aniline>  (7) 
0

>  <fr_aryl_methyl>  (7) 
0

>  <fr_azide>  (7) 
0

>  <fr_azo>  (7) 
0

>  <fr_barbitur>  (7) 
0

>  <fr_benzene>  (7) 
0

>  <fr_benzodiazepine>  (7) 
0

>  <fr_bicyclic>  (7) 
4

>  <fr_diazo>  (7) 
0

>  <fr_dihydropyridine>  (7) 
0

>  <fr_epoxide>  (7) 
1

>  <fr_ester>  (7) 
0

>  <fr_ether>  (7) 
1

>  <fr_furan>  (7) 
0

>  <fr_guanido>  (7) 
0

>  <fr_halogen>  (7) 
0

>  <fr_hdrzine>  (7) 
0

>  <fr_hdrzone>  (7) 
0

>  <fr_imidazole>  (7) 
0

>  <fr_imide>  (7) 
0

>  <fr_isocyan>  (7) 
0

>  <fr_isothiocyan>  (7) 
0

>  <fr_ketone>  (7) 
0

>  <fr_ketone_Topliss>  (7) 
0

>  <fr_lactam>  (7) 
0

>  <fr_lactone>  (7) 
0

>  <fr_methoxy>  (7) 
0

>  <fr_morpholine>  (7) 
0

>  <fr_nitrile>  (7) 
1

>  <fr_nitro>  (7) 
0

>  <fr_nitro_arom>  (7) 
0

>  <fr_nitro_arom_nonortho>  (7) 
0

>  <fr_nitroso>  (7) 
0

>  <fr_oxazole>  (7) 
0

>  <fr_oxime>  (7) 
0

>  <fr_para_hydroxylation>  (7) 
0

>  <fr_phenol>  (7) 
0

>  <fr_phenol_noOrthoHbond>  (7) 
0

>  <fr_phos_acid>  (7) 
0

>  <fr_phos_ester>  (7) 
0

>  <fr_piperdine>  (7) 
0

>  <fr_piperzine>  (7) 
0

>  <fr_priamide>  (7) 
0

>  <fr_prisulfonamd>  (7) 
0

>  <fr_pyridine>  (7) 
0

>  <fr_quatN>  (7) 
0

>  <fr_sulfide>  (7) 
0

>  <fr_sulfonamd>  (7) 
0

>  <fr_sulfone>  (7) 
0

>  <fr_term_acetylene>  (7) 
0

>  <fr_tetrazole>  (7) 
0

>  <fr_thiazole>  (7) 
0

>  <fr_thiocyan>  (7) 
0

>  <fr_thiophene>  (7) 
0

>  <fr_unbrch_alkane>  (7) 
0

>  <fr_urea>  (7) 
0

>  <NP_Likeness>  (7) 
1.999983

$$$$
CHEMBL695
     RDKit          3D

  0  0  0  0  0  0  0  0  0  0999 V3000
M  V30 BEGIN CTAB
M  V30 COUNTS 19 19 0 0 0
M  V30 BEGIN ATOM
M  V30 1 C -0.943905 -0.335585 -1.204737 0
M  V30 2 N 0.035506 -0.561332 -0.157832 0
M  V30 3 C 0.409144 -1.742485 0.564431 0
M  V30 4 O -0.205888 -2.797743 0.259908 0
M  V30 5 O 1.409506 -1.398137 1.464271 0
M  V30 6 C 1.503228 -0.002454 1.555076 0
M  V30 7 C 2.950416 0.447874 1.505792 0
M  V30 8 C 0.775154 0.540375 2.754107 0
M  V30 9 C 0.836017 0.509725 0.327686 0
M  V30 10 O 1.046363 1.686068 -0.068805 0
M  V30 11 H -0.423712 -0.273066 -2.174805 0
M  V30 12 H -1.483766 0.606025 -1.042851 0
M  V30 13 H -1.655730 -1.185011 -1.209097 0
M  V30 14 H 3.528861 0.189209 2.399679 0
M  V30 15 H 3.392202 0.010655 0.587057 0
M  V30 16 H 2.942028 1.556253 1.331344 0
M  V30 17 H 1.400270 1.261636 3.340860 0
M  V30 18 H -0.172733 1.043289 2.448499 0
M  V30 19 H 0.455536 -0.263668 3.450349 0
M  V30 END ATOM
M  V30 BEGIN BOND
M  V30 1 1 1 2
M  V30 2 1 2 3
M  V30 3 2 3 4
M  V30 4 1 3 5
M  V30 5 1 5 6
M  V30 6 1 6 7
M  V30 7 1 6 8
M  V30 8 1 6 9
M  V30 9 2 9 10
M  V30 10 1 9 2
M  V30 11 1 1 11
M  V30 12 1 1 12
M  V30 13 1 1 13
M  V30 14 1 7 14
M  V30 15 1 7 15
M  V30 16 1 7 16
M  V30 17 1 8 17
M  V30 18 1 8 18
M  V30 19 1 8 19
M  V30 END BOND
M  V30 END CTAB
M  END
>  <Dataset>  (8) 
OralDrugs

>  <Ligand_Instance>  (8) 
nan

>  <PDB_ID>  (8) 
nan

>  <Standardized_SMILES>  (8) 
CN1C(=O)OC(C)(C)C1=O

>  <Name>  (8) 
Trimethadione

>  <Pocket>  (8) 
nan

>  <ATP_Site>  (8) 
nan

>  <Peripheral>  (8) 
nan

>  <Num_H_Atoms_ProtBoundConf>  (8) 
nan

>  <Num_Resolved_Atoms>  (8) 
nan

>  <Num_Not_Resolved_Atoms>  (8) 
nan

>  <2D_Mol_H>  (8) 
<rdkit.Chem.rdchem.Mol object at 0x72a238b92b20>

>  <MW>  (8) 
143.142

>  <HBA>  (8) 
3

>  <HBD>  (8) 
0

>  <LogP>  (8) 
0.3736

>  <NRB>  (8) 
3

>  <TPSA>  (8) 
46.61

>  <Num_Heavy_Atoms>  (8) 
10

>  <Ro5>  (8) 
[True, True, True, True, True, True]

>  <Ro5_Fulfilled>  (8) 
True

>  <Ro3>  (8) 
[True, True, True, True]

>  <Ro3_Fulfilled>  (8) 
True

>  <Fsp3>  (8) 
0.666667

>  <Fsp3_0.42>  (8) 
True

>  <Fsp3_0.45>  (8) 
True

>  <Stereogenic_Carbons>  (8) 
0

>  <C_Atoms>  (8) 
6

>  <FCStereo>  (8) 
0.0

>  <SPS>  (8) 
233

>  <nSPS>  (8) 
23.3

>  <PBF>  (8) 
0.823493

>  <PBF_0.6>  (8) 
True

>  <nPBF>  (8) 
0.082349

>  <nPBF_0.016>  (8) 
True

>  <PMI1>  (8) 
254.814216

>  <PMI2>  (8) 
388.94766

>  <PMI3>  (8) 
529.75218

>  <NPR1>  (8) 
0.481006

>  <NPR2>  (8) 
0.734207

>  <Sum_NPR>  (8) 
1.215213

>  <Sum_NPR_1.07>  (8) 
True

>  <Sum_NPR_1.2>  (8) 
True

>  <MaxAbsEStateIndex>  (8) 
11.017361

>  <MaxEStateIndex>  (8) 
11.017361

>  <MinAbsEStateIndex>  (8) 
0.293981

>  <MinEStateIndex>  (8) 
-0.966435

>  <qed>  (8) 
0.491935

>  <MolWt>  (8) 
143.142

>  <HeavyAtomMolWt>  (8) 
134.07

>  <ExactMolWt>  (8) 
143.058243

>  <NumValenceElectrons>  (8) 
56

>  <NumRadicalElectrons>  (8) 
0

>  <MaxPartialCharge>  (8) 
0.41692

>  <MinPartialCharge>  (8) 
-0.432937

>  <MaxAbsPartialCharge>  (8) 
0.432937

>  <MinAbsPartialCharge>  (8) 
0.41692

>  <FpDensityMorgan1>  (8) 
1.4

>  <FpDensityMorgan2>  (8) 
1.9

>  <FpDensityMorgan3>  (8) 
2.0

>  <BCUT2D_MWHI>  (8) 
16.590914

>  <BCUT2D_MWLOW>  (8) 
10.121087

>  <BCUT2D_CHGHI>  (8) 
2.442849

>  <BCUT2D_CHGLO>  (8) 
-2.101883

>  <BCUT2D_LOGPHI>  (8) 
2.205961

>  <BCUT2D_LOGPLOW>  (8) 
-2.330808

>  <BCUT2D_MRHI>  (8) 
6.014501

>  <BCUT2D_MRLOW>  (8) 
-0.133351

>  <AvgIpc>  (8) 
1.950386

>  <BalabanJ>  (8) 
2.920821

>  <BertzCT>  (8) 
197.16961

>  <Chi0>  (8) 
7.939158

>  <Chi0n>  (8) 
6.171958

>  <Chi0v>  (8) 
6.171958

>  <Chi1>  (8) 
4.449194

>  <Chi1n>  (8) 
2.960924

>  <Chi1v>  (8) 
2.960924

>  <Chi2n>  (8) 
2.74245

>  <Chi2v>  (8) 
2.74245

>  <Chi3n>  (8) 
1.436004

>  <Chi3v>  (8) 
1.436004

>  <Chi4n>  (8) 
0.817183

>  <Chi4v>  (8) 
0.817183

>  <HallKierAlpha>  (8) 
-1.06

>  <Ipc>  (8) 
140.427825

>  <Kappa1>  (8) 
7.051857

>  <Kappa2>  (8) 
1.713319

>  <Kappa3>  (8) 
0.76083

>  <LabuteASA>  (8) 
58.754554

>  <PEOE_VSA1>  (8) 
4.736863

>  <PEOE_VSA10>  (8) 
0.0

>  <PEOE_VSA11>  (8) 
5.601051

>  <PEOE_VSA12>  (8) 
0.0

>  <PEOE_VSA13>  (8) 
5.90718

>  <PEOE_VSA14>  (8) 
6.09324

>  <PEOE_VSA2>  (8) 
4.794537

>  <PEOE_VSA3>  (8) 
9.694447

>  <PEOE_VSA4>  (8) 
0.0

>  <PEOE_VSA5>  (8) 
0.0

>  <PEOE_VSA6>  (8) 
0.0

>  <PEOE_VSA7>  (8) 
13.847474

>  <PEOE_VSA8>  (8) 
7.047672

>  <PEOE_VSA9>  (8) 
0.0

>  <SMR_VSA1>  (8) 
14.325937

>  <SMR_VSA10>  (8) 
12.00042

>  <SMR_VSA2>  (8) 
0.0

>  <SMR_VSA3>  (8) 
4.89991

>  <SMR_VSA4>  (8) 
0.0

>  <SMR_VSA5>  (8) 
19.448525

>  <SMR_VSA6>  (8) 
7.047672

>  <SMR_VSA7>  (8) 
0.0

>  <SMR_VSA8>  (8) 
0.0

>  <SMR_VSA9>  (8) 
0.0

>  <SlogP_VSA1>  (8) 
0.0

>  <SlogP_VSA10>  (8) 
4.794537

>  <SlogP_VSA11>  (8) 
0.0

>  <SlogP_VSA12>  (8) 
0.0

>  <SlogP_VSA2>  (8) 
29.549052

>  <SlogP_VSA3>  (8) 
9.5314

>  <SlogP_VSA4>  (8) 
0.0

>  <SlogP_VSA5>  (8) 
13.847474

>  <SlogP_VSA6>  (8) 
0.0

>  <SlogP_VSA7>  (8) 
0.0

>  <SlogP_VSA8>  (8) 
0.0

>  <SlogP_VSA9>  (8) 
0.0

>  <EState_VSA1>  (8) 
11.694291

>  <EState_VSA10>  (8) 
9.589074

>  <EState_VSA11>  (8) 
0.0

>  <EState_VSA2>  (8) 
5.90718

>  <EState_VSA3>  (8) 
0.0

>  <EState_VSA4>  (8) 
4.89991

>  <EState_VSA5>  (8) 
7.047672

>  <EState_VSA6>  (8) 
13.847474

>  <EState_VSA7>  (8) 
0.0

>  <EState_VSA8>  (8) 
0.0

>  <EState_VSA9>  (8) 
4.736863

>  <VSA_EState1>  (8) 
4.710648

>  <VSA_EState10>  (8) 
0.0

>  <VSA_EState2>  (8) 
22.672569

>  <VSA_EState3>  (8) 
0.0

>  <VSA_EState4>  (8) 
-0.966435

>  <VSA_EState5>  (8) 
-0.293981

>  <VSA_EState6>  (8) 
0.0

>  <VSA_EState7>  (8) 
-0.574074

>  <VSA_EState8>  (8) 
3.132407

>  <VSA_EState9>  (8) 
1.402199

>  <FractionCSP3>  (8) 
0.666667

>  <HeavyAtomCount>  (8) 
10

>  <NHOHCount>  (8) 
0

>  <NOCount>  (8) 
4

>  <NumAliphaticCarbocycles>  (8) 
0

>  <NumAliphaticHeterocycles>  (8) 
1

>  <NumAliphaticRings>  (8) 
1

>  <NumAromaticCarbocycles>  (8) 
0

>  <NumAromaticHeterocycles>  (8) 
0

>  <NumAromaticRings>  (8) 
0

>  <NumHAcceptors>  (8) 
3

>  <NumHDonors>  (8) 
0

>  <NumHeteroatoms>  (8) 
4

>  <NumRotatableBonds>  (8) 
0

>  <NumSaturatedCarbocycles>  (8) 
0

>  <NumSaturatedHeterocycles>  (8) 
1

>  <NumSaturatedRings>  (8) 
1

>  <RingCount>  (8) 
1

>  <MolLogP>  (8) 
0.3736

>  <MolMR>  (8) 
33.33

>  <fr_Al_COO>  (8) 
0

>  <fr_Al_OH>  (8) 
0

>  <fr_Al_OH_noTert>  (8) 
0

>  <fr_ArN>  (8) 
0

>  <fr_Ar_COO>  (8) 
0

>  <fr_Ar_N>  (8) 
0

>  <fr_Ar_NH>  (8) 
0

>  <fr_Ar_OH>  (8) 
0

>  <fr_COO>  (8) 
0

>  <fr_COO2>  (8) 
0

>  <fr_C_O>  (8) 
2

>  <fr_C_O_noCOO>  (8) 
2

>  <fr_C_S>  (8) 
0

>  <fr_HOCCN>  (8) 
0

>  <fr_Imine>  (8) 
0

>  <fr_NH0>  (8) 
1

>  <fr_NH1>  (8) 
0

>  <fr_NH2>  (8) 
0

>  <fr_N_O>  (8) 
0

>  <fr_Ndealkylation1>  (8) 
1

>  <fr_Ndealkylation2>  (8) 
0

>  <fr_Nhpyrrole>  (8) 
0

>  <fr_SH>  (8) 
0

>  <fr_aldehyde>  (8) 
0

>  <fr_alkyl_carbamate>  (8) 
0

>  <fr_alkyl_halide>  (8) 
0

>  <fr_allylic_oxid>  (8) 
0

>  <fr_amide>  (8) 
2

>  <fr_amidine>  (8) 
0

>  <fr_aniline>  (8) 
0

>  <fr_aryl_methyl>  (8) 
0

>  <fr_azide>  (8) 
0

>  <fr_azo>  (8) 
0

>  <fr_barbitur>  (8) 
0

>  <fr_benzene>  (8) 
0

>  <fr_benzodiazepine>  (8) 
0

>  <fr_bicyclic>  (8) 
0

>  <fr_diazo>  (8) 
0

>  <fr_dihydropyridine>  (8) 
0

>  <fr_epoxide>  (8) 
0

>  <fr_ester>  (8) 
0

>  <fr_ether>  (8) 
1

>  <fr_furan>  (8) 
0

>  <fr_guanido>  (8) 
0

>  <fr_halogen>  (8) 
0

>  <fr_hdrzine>  (8) 
0

>  <fr_hdrzone>  (8) 
0

>  <fr_imidazole>  (8) 
0

>  <fr_imide>  (8) 
1

>  <fr_isocyan>  (8) 
0

>  <fr_isothiocyan>  (8) 
0

>  <fr_ketone>  (8) 
0

>  <fr_ketone_Topliss>  (8) 
0

>  <fr_lactam>  (8) 
0

>  <fr_lactone>  (8) 
1

>  <fr_methoxy>  (8) 
0

>  <fr_morpholine>  (8) 
0

>  <fr_nitrile>  (8) 
0

>  <fr_nitro>  (8) 
0

>  <fr_nitro_arom>  (8) 
0

>  <fr_nitro_arom_nonortho>  (8) 
0

>  <fr_nitroso>  (8) 
0

>  <fr_oxazole>  (8) 
0

>  <fr_oxime>  (8) 
0

>  <fr_para_hydroxylation>  (8) 
0

>  <fr_phenol>  (8) 
0

>  <fr_phenol_noOrthoHbond>  (8) 
0

>  <fr_phos_acid>  (8) 
0

>  <fr_phos_ester>  (8) 
0

>  <fr_piperdine>  (8) 
0

>  <fr_piperzine>  (8) 
0

>  <fr_priamide>  (8) 
0

>  <fr_prisulfonamd>  (8) 
0

>  <fr_pyridine>  (8) 
0

>  <fr_quatN>  (8) 
0

>  <fr_sulfide>  (8) 
0

>  <fr_sulfonamd>  (8) 
0

>  <fr_sulfone>  (8) 
0

>  <fr_term_acetylene>  (8) 
0

>  <fr_tetrazole>  (8) 
0

>  <fr_thiazole>  (8) 
0

>  <fr_thiocyan>  (8) 
0

>  <fr_thiophene>  (8) 
0

>  <fr_unbrch_alkane>  (8) 
0

>  <fr_urea>  (8) 
0

>  <NP_Likeness>  (8) 
0.31254

$$$$
CHEMBL1201256
     RDKit          3D

  0  0  0  0  0  0  0  0  0  0999 V3000
M  V30 BEGIN CTAB
M  V30 COUNTS 56 57 0 0 0
M  V30 BEGIN ATOM
M  V30 1 C 3.374920 -4.650444 2.157516 0
M  V30 2 O 2.497422 -5.381678 1.317676 0
M  V30 3 C 1.859105 -4.732841 0.283308 0
M  V30 4 C 2.047340 -3.389201 0.037100 0
M  V30 5 C 1.412444 -2.742892 -0.992097 0
M  V30 6 C 1.537359 -1.333281 -1.338545 0
M  V30 7 O 0.896259 -0.866135 -2.337634 0
M  V30 8 N 2.336170 -0.431172 -0.628363 0
M  V30 9 C 2.554243 0.984461 -0.855556 0
M  V30 10 C 1.394477 1.805814 -0.397683 0
M  V30 11 C 0.329668 2.165517 -1.200219 0
M  V30 12 C -0.696534 2.937192 -0.638486 0
M  V30 13 C -0.669081 3.348561 0.702902 0
M  V30 14 O -1.798376 4.072995 0.924686 0
M  V30 15 C -2.259504 4.692023 2.081984 0
M  V30 16 C -2.528910 3.729659 3.183413 0
M  V30 17 N -3.543840 2.759136 2.777126 0
M  V30 18 C -3.845549 1.805030 3.802751 0
M  V30 19 C -4.713641 3.386089 2.219212 0
M  V30 20 C 0.423207 2.950846 1.434071 0
M  V30 21 C 1.451130 2.194074 0.923567 0
M  V30 22 C 0.569960 -3.548993 -1.760357 0
M  V30 23 C 0.349523 -4.884528 -1.557513 0
M  V30 24 O -0.493895 -5.640837 -2.344476 0
M  V30 25 C -1.219459 -5.147750 -3.431652 0
M  V30 26 C 1.011315 -5.487673 -0.510027 0
M  V30 27 O 0.828887 -6.848884 -0.250294 0
M  V30 28 C 1.721884 -7.734581 -0.910820 0
M  V30 29 H 2.846289 -3.727631 2.490793 0
M  V30 30 H 4.274845 -4.318539 1.606585 0
M  V30 31 H 3.737993 -5.248083 3.007326 0
M  V30 32 H 2.699642 -2.819887 0.651561 0
M  V30 33 H 2.849116 -0.853991 0.188779 0
M  V30 34 H 3.470646 1.328968 -0.344212 0
M  V30 35 H 2.741327 1.175662 -1.938399 0
M  V30 36 H 0.377349 1.816462 -2.218190 0
M  V30 37 H -1.446175 3.125598 -1.407673 0
M  V30 38 H -1.403879 5.353603 2.428633 0
M  V30 39 H -3.107403 5.385502 1.891722 0
M  V30 40 H -2.951331 4.302682 4.052464 0
M  V30 41 H -1.674586 3.163988 3.516003 0
M  V30 42 H -4.706345 2.138087 4.417836 0
M  V30 43 H -3.004321 1.675674 4.520024 0
M  V30 44 H -4.068426 0.800139 3.390589 0
M  V30 45 H -5.642861 2.810757 2.455055 0
M  V30 46 H -4.847456 4.407614 2.619619 0
M  V30 47 H -4.550919 3.466233 1.124365 0
M  V30 48 H 0.372626 3.315813 2.445890 0
M  V30 49 H 2.215297 1.985685 1.655977 0
M  V30 50 H 0.029480 -3.090863 -2.603112 0
M  V30 51 H -1.857323 -4.286190 -3.158892 0
M  V30 52 H -1.924461 -5.956331 -3.754519 0
M  V30 53 H -0.581926 -4.904760 -4.295953 0
M  V30 54 H 2.777524 -7.400813 -0.720412 0
M  V30 55 H 1.596499 -7.685183 -2.009476 0
M  V30 56 H 1.575759 -8.776566 -0.581127 0
M  V30 END ATOM
M  V30 BEGIN BOND
M  V30 1 1 1 2
M  V30 2 1 2 3
M  V30 3 2 3 4
M  V30 4 1 4 5
M  V30 5 1 5 6
M  V30 6 2 6 7
M  V30 7 1 6 8
M  V30 8 1 8 9
M  V30 9 1 9 10
M  V30 10 2 10 11
M  V30 11 1 11 12
M  V30 12 2 12 13
M  V30 13 1 13 14
M  V30 14 1 14 15
M  V30 15 1 15 16
M  V30 16 1 16 17
M  V30 17 1 17 18
M  V30 18 1 17 19
M  V30 19 1 13 20
M  V30 20 2 20 21
M  V30 21 2 5 22
M  V30 22 1 22 23
M  V30 23 1 23 24
M  V30 24 1 24 25
M  V30 25 2 23 26
M  V30 26 1 26 27
M  V30 27 1 27 28
M  V30 28 1 26 3
M  V30 29 1 21 10
M  V30 30 1 1 29
M  V30 31 1 1 30
M  V30 32 1 1 31
M  V30 33 1 4 32
M  V30 34 1 8 33
M  V30 35 1 9 34
M  V30 36 1 9 35
M  V30 37 1 11 36
M  V30 38 1 12 37
M  V30 39 1 15 38
M  V30 40 1 15 39
M  V30 41 1 16 40
M  V30 42 1 16 41
M  V30 43 1 18 42
M  V30 44 1 18 43
M  V30 45 1 18 44
M  V30 46 1 19 45
M  V30 47 1 19 46
M  V30 48 1 19 47
M  V30 49 1 20 48
M  V30 50 1 21 49
M  V30 51 1 22 50
M  V30 52 1 25 51
M  V30 53 1 25 52
M  V30 54 1 25 53
M  V30 55 1 28 54
M  V30 56 1 28 55
M  V30 57 1 28 56
M  V30 END BOND
M  V30 END CTAB
M  END
>  <Dataset>  (9) 
OralDrugs

>  <Ligand_Instance>  (9) 
nan

>  <PDB_ID>  (9) 
nan

>  <Standardized_SMILES>  (9) 
COc1cc(C(=O)NCc2ccc(OCCN(C)C)cc2)cc(OC)c1OC

>  <Name>  (9) 
Trimethobenzamide

>  <Pocket>  (9) 
nan

>  <ATP_Site>  (9) 
nan

>  <Peripheral>  (9) 
nan

>  <Num_H_Atoms_ProtBoundConf>  (9) 
nan

>  <Num_Resolved_Atoms>  (9) 
nan

>  <Num_Not_Resolved_Atoms>  (9) 
nan

>  <2D_Mol_H>  (9) 
<rdkit.Chem.rdchem.Mol object at 0x72a238b92c00>

>  <MW>  (9) 
388.464

>  <HBA>  (9) 
6

>  <HBD>  (9) 
1

>  <LogP>  (9) 
2.5828

>  <NRB>  (9) 
15

>  <TPSA>  (9) 
69.26

>  <Num_Heavy_Atoms>  (9) 
28

>  <Ro5>  (9) 
[True, True, True, True, False, True]

>  <Ro5_Fulfilled>  (9) 
True

>  <Ro3>  (9) 
[False, False, True, True]

>  <Ro3_Fulfilled>  (9) 
False

>  <Fsp3>  (9) 
0.380952

>  <Fsp3_0.42>  (9) 
False

>  <Fsp3_0.45>  (9) 
False

>  <Stereogenic_Carbons>  (9) 
0

>  <C_Atoms>  (9) 
21

>  <FCStereo>  (9) 
0.0

>  <SPS>  (9) 
294

>  <nSPS>  (9) 
10.5

>  <PBF>  (9) 
1.505046

>  <PBF_0.6>  (9) 
True

>  <nPBF>  (9) 
0.053752

>  <nPBF_0.016>  (9) 
True

>  <PMI1>  (9) 
2014.043662

>  <PMI2>  (9) 
7890.975573

>  <PMI3>  (9) 
8203.979339

>  <NPR1>  (9) 
0.245496

>  <NPR2>  (9) 
0.961847

>  <Sum_NPR>  (9) 
1.207343

>  <Sum_NPR_1.07>  (9) 
True

>  <Sum_NPR_1.2>  (9) 
True

>  <MaxAbsEStateIndex>  (9) 
12.533655

>  <MaxEStateIndex>  (9) 
12.533655

>  <MinAbsEStateIndex>  (9) 
0.230961

>  <MinEStateIndex>  (9) 
-0.230961

>  <qed>  (9) 
0.674743

>  <MolWt>  (9) 
388.464

>  <HeavyAtomMolWt>  (9) 
360.24

>  <ExactMolWt>  (9) 
388.199822

>  <NumValenceElectrons>  (9) 
152

>  <NumRadicalElectrons>  (9) 
0

>  <MaxPartialCharge>  (9) 
0.251327

>  <MinPartialCharge>  (9) 
-0.492689

>  <MaxAbsPartialCharge>  (9) 
0.492689

>  <MinAbsPartialCharge>  (9) 
0.251327

>  <FpDensityMorgan1>  (9) 
0.964286

>  <FpDensityMorgan2>  (9) 
1.571429

>  <FpDensityMorgan3>  (9) 
2.071429

>  <BCUT2D_MWHI>  (9) 
16.53033

>  <BCUT2D_MWLOW>  (9) 
10.129584

>  <BCUT2D_CHGHI>  (9) 
2.164019

>  <BCUT2D_CHGLO>  (9) 
-2.140218

>  <BCUT2D_LOGPHI>  (9) 
2.376547

>  <BCUT2D_LOGPLOW>  (9) 
-2.225982

>  <BCUT2D_MRHI>  (9) 
5.951691

>  <BCUT2D_MRLOW>  (9) 
0.094979

>  <AvgIpc>  (9) 
2.709302

>  <BalabanJ>  (9) 
1.9801

>  <BertzCT>  (9) 
749.860564

>  <Chi0>  (9) 
20.518297

>  <Chi0n>  (9) 
17.073877

>  <Chi0v>  (9) 
17.073877

>  <Chi1>  (9) 
13.477096

>  <Chi1n>  (9) 
8.92787

>  <Chi1v>  (9) 
8.92787

>  <Chi2n>  (9) 
6.392381

>  <Chi2v>  (9) 
6.392381

>  <Chi3n>  (9) 
4.110567

>  <Chi3v>  (9) 
4.110567

>  <Chi4n>  (9) 
2.546182

>  <Chi4v>  (9) 
2.546182

>  <HallKierAlpha>  (9) 
-2.93

>  <Ipc>  (9) 
1542405.825789

>  <Kappa1>  (9) 
21.370981

>  <Kappa2>  (9) 
10.415971

>  <Kappa3>  (9) 
5.785837

>  <LabuteASA>  (9) 
165.698375

>  <PEOE_VSA1>  (9) 
29.16415

>  <PEOE_VSA10>  (9) 
12.356394

>  <PEOE_VSA11>  (9) 
11.499024

>  <PEOE_VSA12>  (9) 
5.749512

>  <PEOE_VSA13>  (9) 
5.90718

>  <PEOE_VSA14>  (9) 
0.0

>  <PEOE_VSA2>  (9) 
4.794537

>  <PEOE_VSA3>  (9) 
0.0

>  <PEOE_VSA4>  (9) 
0.0

>  <PEOE_VSA5>  (9) 
0.0

>  <PEOE_VSA6>  (9) 
12.132734

>  <PEOE_VSA7>  (9) 
43.924264

>  <PEOE_VSA8>  (9) 
18.652964

>  <PEOE_VSA9>  (9) 
21.329393

>  <SMR_VSA1>  (9) 
23.741989

>  <SMR_VSA10>  (9) 
5.90718

>  <SMR_VSA2>  (9) 
0.0

>  <SMR_VSA3>  (9) 
10.216698

>  <SMR_VSA4>  (9) 
0.0

>  <SMR_VSA5>  (9) 
6.544756

>  <SMR_VSA6>  (9) 
48.576375

>  <SMR_VSA7>  (9) 
47.525105

>  <SMR_VSA8>  (9) 
0.0

>  <SMR_VSA9>  (9) 
22.998047

>  <SlogP_VSA1>  (9) 
24.26424

>  <SlogP_VSA10>  (9) 
0.0

>  <SlogP_VSA11>  (9) 
22.998047

>  <SlogP_VSA12>  (9) 
0.0

>  <SlogP_VSA2>  (9) 
59.383464

>  <SlogP_VSA3>  (9) 
6.544756

>  <SlogP_VSA4>  (9) 
0.0

>  <SlogP_VSA5>  (9) 
15.92144

>  <SlogP_VSA6>  (9) 
36.398202

>  <SlogP_VSA7>  (9) 
0.0

>  <SlogP_VSA8>  (9) 
0.0

>  <SlogP_VSA9>  (9) 
0.0

>  <EState_VSA1>  (9) 
0.0

>  <EState_VSA10>  (9) 
4.794537

>  <EState_VSA11>  (9) 
0.0

>  <EState_VSA2>  (9) 
5.90718

>  <EState_VSA3>  (9) 
35.963625

>  <EState_VSA4>  (9) 
17.85772

>  <EState_VSA5>  (9) 
21.329393

>  <EState_VSA6>  (9) 
12.132734

>  <EState_VSA7>  (9) 
38.360812

>  <EState_VSA8>  (9) 
10.216698

>  <EState_VSA9>  (9) 
18.947452

>  <VSA_EState1>  (9) 
21.530167

>  <VSA_EState10>  (9) 
0.0

>  <VSA_EState2>  (9) 
14.596212

>  <VSA_EState3>  (9) 
2.894565

>  <VSA_EState4>  (9) 
1.40175

>  <VSA_EState5>  (9) 
1.899049

>  <VSA_EState6>  (9) 
10.907583

>  <VSA_EState7>  (9) 
0.0

>  <VSA_EState8>  (9) 
1.87925

>  <VSA_EState9>  (9) 
8.558089

>  <FractionCSP3>  (9) 
0.380952

>  <HeavyAtomCount>  (9) 
28

>  <NHOHCount>  (9) 
1

>  <NOCount>  (9) 
7

>  <NumAliphaticCarbocycles>  (9) 
0

>  <NumAliphaticHeterocycles>  (9) 
0

>  <NumAliphaticRings>  (9) 
0

>  <NumAromaticCarbocycles>  (9) 
2

>  <NumAromaticHeterocycles>  (9) 
0

>  <NumAromaticRings>  (9) 
2

>  <NumHAcceptors>  (9) 
6

>  <NumHDonors>  (9) 
1

>  <NumHeteroatoms>  (9) 
7

>  <NumRotatableBonds>  (9) 
10

>  <NumSaturatedCarbocycles>  (9) 
0

>  <NumSaturatedHeterocycles>  (9) 
0

>  <NumSaturatedRings>  (9) 
0

>  <RingCount>  (9) 
2

>  <MolLogP>  (9) 
2.5828

>  <MolMR>  (9) 
107.7592

>  <fr_Al_COO>  (9) 
0

>  <fr_Al_OH>  (9) 
0

>  <fr_Al_OH_noTert>  (9) 
0

>  <fr_ArN>  (9) 
0

>  <fr_Ar_COO>  (9) 
0

>  <fr_Ar_N>  (9) 
0

>  <fr_Ar_NH>  (9) 
0

>  <fr_Ar_OH>  (9) 
0

>  <fr_COO>  (9) 
0

>  <fr_COO2>  (9) 
0

>  <fr_C_O>  (9) 
1

>  <fr_C_O_noCOO>  (9) 
1

>  <fr_C_S>  (9) 
0

>  <fr_HOCCN>  (9) 
0

>  <fr_Imine>  (9) 
0

>  <fr_NH0>  (9) 
1

>  <fr_NH1>  (9) 
1

>  <fr_NH2>  (9) 
0

>  <fr_N_O>  (9) 
0

>  <fr_Ndealkylation1>  (9) 
1

>  <fr_Ndealkylation2>  (9) 
0

>  <fr_Nhpyrrole>  (9) 
0

>  <fr_SH>  (9) 
0

>  <fr_aldehyde>  (9) 
0

>  <fr_alkyl_carbamate>  (9) 
0

>  <fr_alkyl_halide>  (9) 
0

>  <fr_allylic_oxid>  (9) 
0

>  <fr_amide>  (9) 
1

>  <fr_amidine>  (9) 
0

>  <fr_aniline>  (9) 
0

>  <fr_aryl_methyl>  (9) 
0

>  <fr_azide>  (9) 
0

>  <fr_azo>  (9) 
0

>  <fr_barbitur>  (9) 
0

>  <fr_benzene>  (9) 
2

>  <fr_benzodiazepine>  (9) 
0

>  <fr_bicyclic>  (9) 
0

>  <fr_diazo>  (9) 
0

>  <fr_dihydropyridine>  (9) 
0

>  <fr_epoxide>  (9) 
0

>  <fr_ester>  (9) 
0

>  <fr_ether>  (9) 
4

>  <fr_furan>  (9) 
0

>  <fr_guanido>  (9) 
0

>  <fr_halogen>  (9) 
0

>  <fr_hdrzine>  (9) 
0

>  <fr_hdrzone>  (9) 
0

>  <fr_imidazole>  (9) 
0

>  <fr_imide>  (9) 
0

>  <fr_isocyan>  (9) 
0

>  <fr_isothiocyan>  (9) 
0

>  <fr_ketone>  (9) 
0

>  <fr_ketone_Topliss>  (9) 
0

>  <fr_lactam>  (9) 
0

>  <fr_lactone>  (9) 
0

>  <fr_methoxy>  (9) 
3

>  <fr_morpholine>  (9) 
0

>  <fr_nitrile>  (9) 
0

>  <fr_nitro>  (9) 
0

>  <fr_nitro_arom>  (9) 
0

>  <fr_nitro_arom_nonortho>  (9) 
0

>  <fr_nitroso>  (9) 
0

>  <fr_oxazole>  (9) 
0

>  <fr_oxime>  (9) 
0

>  <fr_para_hydroxylation>  (9) 
0

>  <fr_phenol>  (9) 
0

>  <fr_phenol_noOrthoHbond>  (9) 
0

>  <fr_phos_acid>  (9) 
0

>  <fr_phos_ester>  (9) 
0

>  <fr_piperdine>  (9) 
0

>  <fr_piperzine>  (9) 
0

>  <fr_priamide>  (9) 
0

>  <fr_prisulfonamd>  (9) 
0

>  <fr_pyridine>  (9) 
0

>  <fr_quatN>  (9) 
0

>  <fr_sulfide>  (9) 
0

>  <fr_sulfonamd>  (9) 
0

>  <fr_sulfone>  (9) 
0

>  <fr_term_acetylene>  (9) 
0

>  <fr_tetrazole>  (9) 
0

>  <fr_thiazole>  (9) 
0

>  <fr_thiocyan>  (9) 
0

>  <fr_thiophene>  (9) 
0

>  <fr_unbrch_alkane>  (9) 
0

>  <fr_urea>  (9) 
0

>  <NP_Likeness>  (9) 
-0.896627

$$$$
CHEMBL22
     RDKit          3D

  0  0  0  0  0  0  0  0  0  0999 V3000
M  V30 BEGIN CTAB
M  V30 COUNTS 39 40 0 0 0
M  V30 BEGIN ATOM
M  V30 1 C -0.478431 -4.609264 1.213388 0
M  V30 2 O -0.616826 -3.680678 2.273314 0
M  V30 3 C -0.021142 -2.455381 2.153511 0
M  V30 4 C 0.717078 -2.042380 1.065900 0
M  V30 5 C 1.321560 -0.811733 0.932552 0
M  V30 6 C 2.109150 -0.361207 -0.228469 0
M  V30 7 C 1.357705 0.379467 -1.242176 0
M  V30 8 C 1.470376 1.772492 -1.315165 0
M  V30 9 N 0.796937 2.493553 -2.226652 0
M  V30 10 C -0.025723 1.926458 -3.124622 0
M  V30 11 N -0.681294 2.796353 -4.036158 0
M  V30 12 N -0.163109 0.583899 -3.088704 0
M  V30 13 C 0.505088 -0.159628 -2.180049 0
M  V30 14 N 0.324241 -1.557868 -2.194339 0
M  V30 15 C 1.165087 0.081894 1.996278 0
M  V30 16 C 0.440393 -0.262211 3.116176 0
M  V30 17 O 0.279332 0.623265 4.182364 0
M  V30 18 C 0.904576 1.886858 4.036495 0
M  V30 19 C -0.138294 -1.512878 3.182067 0
M  V30 20 O -0.859621 -1.822628 4.324847 0
M  V30 21 C -2.261828 -1.547272 4.425589 0
M  V30 22 H -1.080290 -4.298115 0.350221 0
M  V30 23 H 0.582640 -4.692646 0.896874 0
M  V30 24 H -0.771425 -5.599251 1.621312 0
M  V30 25 H 0.823379 -2.754861 0.260930 0
M  V30 26 H 2.642176 -1.190990 -0.735610 0
M  V30 27 H 2.923940 0.308708 0.167724 0
M  V30 28 H 2.134998 2.265473 -0.594635 0
M  V30 29 H -0.292494 3.411247 -4.791738 0
M  V30 30 H -1.733781 2.932553 -4.054720 0
M  V30 31 H -0.506773 -1.723165 -1.564434 0
M  V30 32 H 0.694081 -2.457437 -2.583391 0
M  V30 33 H 1.625019 1.067481 1.936497 0
M  V30 34 H 0.589876 2.540354 4.901399 0
M  V30 35 H 0.620778 2.412155 3.110215 0
M  V30 36 H 2.005840 1.827048 4.125759 0
M  V30 37 H -2.705488 -2.272817 5.137391 0
M  V30 38 H -2.709810 -1.605304 3.411649 0
M  V30 39 H -2.400961 -0.532348 4.884522 0
M  V30 END ATOM
M  V30 BEGIN BOND
M  V30 1 1 1 2
M  V30 2 1 2 3
M  V30 3 2 3 4
M  V30 4 1 4 5
M  V30 5 1 5 6
M  V30 6 1 6 7
M  V30 7 2 7 8
M  V30 8 1 8 9
M  V30 9 2 9 10
M  V30 10 1 10 11
M  V30 11 1 10 12
M  V30 12 2 12 13
M  V30 13 1 13 14
M  V30 14 2 5 15
M  V30 15 1 15 16
M  V30 16 1 16 17
M  V30 17 1 17 18
M  V30 18 2 16 19
M  V30 19 1 19 20
M  V30 20 1 20 21
M  V30 21 1 19 3
M  V30 22 1 13 7
M  V30 23 1 1 22
M  V30 24 1 1 23
M  V30 25 1 1 24
M  V30 26 1 4 25
M  V30 27 1 6 26
M  V30 28 1 6 27
M  V30 29 1 8 28
M  V30 30 1 11 29
M  V30 31 1 11 30
M  V30 32 1 14 31
M  V30 33 1 14 32
M  V30 34 1 15 33
M  V30 35 1 18 34
M  V30 36 1 18 35
M  V30 37 1 18 36
M  V30 38 1 21 37
M  V30 39 1 21 38
M  V30 40 1 21 39
M  V30 END BOND
M  V30 END CTAB
M  END
>  <Dataset>  (10) 
OralDrugs

>  <Ligand_Instance>  (10) 
nan

>  <PDB_ID>  (10) 
nan

>  <Standardized_SMILES>  (10) 
COc1cc(Cc2cnc(N)nc2N)cc(OC)c1OC

>  <Name>  (10) 
Trimethoprim

>  <Pocket>  (10) 
nan

>  <ATP_Site>  (10) 
nan

>  <Peripheral>  (10) 
nan

>  <Num_H_Atoms_ProtBoundConf>  (10) 
nan

>  <Num_Resolved_Atoms>  (10) 
nan

>  <Num_Not_Resolved_Atoms>  (10) 
nan

>  <2D_Mol_H>  (10) 
<rdkit.Chem.rdchem.Mol object at 0x72a238b92ce0>

>  <MW>  (10) 
290.323

>  <HBA>  (10) 
7

>  <HBD>  (10) 
2

>  <LogP>  (10) 
1.2576

>  <NRB>  (10) 
10

>  <TPSA>  (10) 
105.51

>  <Num_Heavy_Atoms>  (10) 
21

>  <Ro5>  (10) 
[True, True, True, True, True, True]

>  <Ro5_Fulfilled>  (10) 
True

>  <Ro3>  (10) 
[True, False, True, True]

>  <Ro3_Fulfilled>  (10) 
True

>  <Fsp3>  (10) 
0.285714

>  <Fsp3_0.42>  (10) 
False

>  <Fsp3_0.45>  (10) 
False

>  <Stereogenic_Carbons>  (10) 
0

>  <C_Atoms>  (10) 
14

>  <FCStereo>  (10) 
0.0

>  <SPS>  (10) 
215

>  <nSPS>  (10) 
10.238095

>  <PBF>  (10) 
0.985297

>  <PBF_0.6>  (10) 
True

>  <nPBF>  (10) 
0.046919

>  <nPBF_0.016>  (10) 
True

>  <PMI1>  (10) 
1093.53187

>  <PMI2>  (10) 
2861.468052

>  <PMI3>  (10) 
3445.007908

>  <NPR1>  (10) 
0.317425

>  <NPR2>  (10) 
0.830613

>  <Sum_NPR>  (10) 
1.148038

>  <Sum_NPR_1.07>  (10) 
True

>  <Sum_NPR_1.2>  (10) 
False

>  <MaxAbsEStateIndex>  (10) 
5.848108

>  <MaxEStateIndex>  (10) 
5.848108

>  <MinAbsEStateIndex>  (10) 
0.153835

>  <MinEStateIndex>  (10) 
0.153835

>  <qed>  (10) 
0.853356

>  <MolWt>  (10) 
290.323

>  <HeavyAtomMolWt>  (10) 
272.179

>  <ExactMolWt>  (10) 
290.13789

>  <NumValenceElectrons>  (10) 
112

>  <NumRadicalElectrons>  (10) 
0

>  <MaxPartialCharge>  (10) 
0.221432

>  <MinPartialCharge>  (10) 
-0.492704

>  <MaxAbsPartialCharge>  (10) 
0.492704

>  <MinAbsPartialCharge>  (10) 
0.221432

>  <FpDensityMorgan1>  (10) 
1.0

>  <FpDensityMorgan2>  (10) 
1.619048

>  <FpDensityMorgan3>  (10) 
2.095238

>  <BCUT2D_MWHI>  (10) 
16.529933

>  <BCUT2D_MWLOW>  (10) 
10.055552

>  <BCUT2D_CHGHI>  (10) 
2.139939

>  <BCUT2D_CHGLO>  (10) 
-2.140672

>  <BCUT2D_LOGPHI>  (10) 
2.383429

>  <BCUT2D_LOGPLOW>  (10) 
-2.042788

>  <BCUT2D_MRHI>  (10) 
5.55069

>  <BCUT2D_MRLOW>  (10) 
0.323634

>  <AvgIpc>  (10) 
2.485378

>  <BalabanJ>  (10) 
2.397562

>  <BertzCT>  (10) 
621.106513

>  <Chi0>  (10) 
15.405413

>  <Chi0n>  (10) 
12.21303

>  <Chi0v>  (10) 
12.21303

>  <Chi1>  (10) 
10.083249

>  <Chi1n>  (10) 
6.243969

>  <Chi1v>  (10) 
6.243969

>  <Chi2n>  (10) 
4.349045

>  <Chi2v>  (10) 
4.349045

>  <Chi3n>  (10) 
3.035749

>  <Chi3v>  (10) 
3.035749

>  <Chi4n>  (10) 
2.027836

>  <Chi4v>  (10) 
2.027836

>  <HallKierAlpha>  (10) 
-2.7

>  <Ipc>  (10) 
52230.227379

>  <Kappa1>  (10) 
14.703769

>  <Kappa2>  (10) 
6.167313

>  <Kappa3>  (10) 
3.073376

>  <LabuteASA>  (10) 
122.407979

>  <PEOE_VSA1>  (10) 
25.677924

>  <PEOE_VSA10>  (10) 
5.817863

>  <PEOE_VSA11>  (10) 
11.499024

>  <PEOE_VSA12>  (10) 
11.697851

>  <PEOE_VSA13>  (10) 
0.0

>  <PEOE_VSA14>  (10) 
0.0

>  <PEOE_VSA2>  (10) 
0.0

>  <PEOE_VSA3>  (10) 
4.983979

>  <PEOE_VSA4>  (10) 
4.983979

>  <PEOE_VSA5>  (10) 
0.0

>  <PEOE_VSA6>  (10) 
0.0

>  <PEOE_VSA7>  (10) 
17.696186

>  <PEOE_VSA8>  (10) 
18.181117

>  <PEOE_VSA9>  (10) 
21.329393

>  <SMR_VSA1>  (10) 
14.210589

>  <SMR_VSA10>  (10) 
11.766202

>  <SMR_VSA2>  (10) 
0.0

>  <SMR_VSA3>  (10) 
9.967957

>  <SMR_VSA4>  (10) 
0.0

>  <SMR_VSA5>  (10) 
6.420822

>  <SMR_VSA6>  (10) 
32.796728

>  <SMR_VSA7>  (10) 
29.456481

>  <SMR_VSA8>  (10) 
0.0

>  <SMR_VSA9>  (10) 
17.248535

>  <SlogP_VSA1>  (10) 
25.677924

>  <SlogP_VSA10>  (10) 
11.766202

>  <SlogP_VSA11>  (10) 
17.248535

>  <SlogP_VSA12>  (10) 
0.0

>  <SlogP_VSA2>  (10) 
31.29735

>  <SlogP_VSA3>  (10) 
6.420822

>  <SlogP_VSA4>  (10) 
0.0

>  <SlogP_VSA5>  (10) 
11.126903

>  <SlogP_VSA6>  (10) 
18.329578

>  <SlogP_VSA7>  (10) 
0.0

>  <SlogP_VSA8>  (10) 
0.0

>  <SlogP_VSA9>  (10) 
0.0

>  <EState_VSA1>  (10) 
0.0

>  <EState_VSA10>  (10) 
0.0

>  <EState_VSA11>  (10) 
0.0

>  <EState_VSA2>  (10) 
5.948339

>  <EState_VSA3>  (10) 
29.48722

>  <EState_VSA4>  (10) 
11.126903

>  <EState_VSA5>  (10) 
0.0

>  <EState_VSA6>  (10) 
27.526236

>  <EState_VSA7>  (10) 
12.132734

>  <EState_VSA8>  (10) 
9.967957

>  <EState_VSA9>  (10) 
25.677924

>  <VSA_EState1>  (10) 
15.924875

>  <VSA_EState10>  (10) 
0.0

>  <VSA_EState2>  (10) 
7.900371

>  <VSA_EState3>  (10) 
0.0

>  <VSA_EState4>  (10) 
13.050572

>  <VSA_EState5>  (10) 
2.228001

>  <VSA_EState6>  (10) 
3.716568

>  <VSA_EState7>  (10) 
2.142539

>  <VSA_EState8>  (10) 
0.0

>  <VSA_EState9>  (10) 
4.703741

>  <FractionCSP3>  (10) 
0.285714

>  <HeavyAtomCount>  (10) 
21

>  <NHOHCount>  (10) 
4

>  <NOCount>  (10) 
7

>  <NumAliphaticCarbocycles>  (10) 
0

>  <NumAliphaticHeterocycles>  (10) 
0

>  <NumAliphaticRings>  (10) 
0

>  <NumAromaticCarbocycles>  (10) 
1

>  <NumAromaticHeterocycles>  (10) 
1

>  <NumAromaticRings>  (10) 
2

>  <NumHAcceptors>  (10) 
7

>  <NumHDonors>  (10) 
2

>  <NumHeteroatoms>  (10) 
7

>  <NumRotatableBonds>  (10) 
5

>  <NumSaturatedCarbocycles>  (10) 
0

>  <NumSaturatedHeterocycles>  (10) 
0

>  <NumSaturatedRings>  (10) 
0

>  <RingCount>  (10) 
2

>  <MolLogP>  (10) 
1.2576

>  <MolMR>  (10) 
79.7608

>  <fr_Al_COO>  (10) 
0

>  <fr_Al_OH>  (10) 
0

>  <fr_Al_OH_noTert>  (10) 
0

>  <fr_ArN>  (10) 
2

>  <fr_Ar_COO>  (10) 
0

>  <fr_Ar_N>  (10) 
2

>  <fr_Ar_NH>  (10) 
0

>  <fr_Ar_OH>  (10) 
0

>  <fr_COO>  (10) 
0

>  <fr_COO2>  (10) 
0

>  <fr_C_O>  (10) 
0

>  <fr_C_O_noCOO>  (10) 
0

>  <fr_C_S>  (10) 
0

>  <fr_HOCCN>  (10) 
0

>  <fr_Imine>  (10) 
0

>  <fr_NH0>  (10) 
2

>  <fr_NH1>  (10) 
0

>  <fr_NH2>  (10) 
2

>  <fr_N_O>  (10) 
0

>  <fr_Ndealkylation1>  (10) 
0

>  <fr_Ndealkylation2>  (10) 
0

>  <fr_Nhpyrrole>  (10) 
0

>  <fr_SH>  (10) 
0

>  <fr_aldehyde>  (10) 
0

>  <fr_alkyl_carbamate>  (10) 
0

>  <fr_alkyl_halide>  (10) 
0

>  <fr_allylic_oxid>  (10) 
0

>  <fr_amide>  (10) 
0

>  <fr_amidine>  (10) 
0

>  <fr_aniline>  (10) 
2

>  <fr_aryl_methyl>  (10) 
0

>  <fr_azide>  (10) 
0

>  <fr_azo>  (10) 
0

>  <fr_barbitur>  (10) 
0

>  <fr_benzene>  (10) 
1

>  <fr_benzodiazepine>  (10) 
0

>  <fr_bicyclic>  (10) 
0

>  <fr_diazo>  (10) 
0

>  <fr_dihydropyridine>  (10) 
0

>  <fr_epoxide>  (10) 
0

>  <fr_ester>  (10) 
0

>  <fr_ether>  (10) 
3

>  <fr_furan>  (10) 
0

>  <fr_guanido>  (10) 
0

>  <fr_halogen>  (10) 
0

>  <fr_hdrzine>  (10) 
0

>  <fr_hdrzone>  (10) 
0

>  <fr_imidazole>  (10) 
0

>  <fr_imide>  (10) 
0

>  <fr_isocyan>  (10) 
0

>  <fr_isothiocyan>  (10) 
0

>  <fr_ketone>  (10) 
0

>  <fr_ketone_Topliss>  (10) 
0

>  <fr_lactam>  (10) 
0

>  <fr_lactone>  (10) 
0

>  <fr_methoxy>  (10) 
3

>  <fr_morpholine>  (10) 
0

>  <fr_nitrile>  (10) 
0

>  <fr_nitro>  (10) 
0

>  <fr_nitro_arom>  (10) 
0

>  <fr_nitro_arom_nonortho>  (10) 
0

>  <fr_nitroso>  (10) 
0

>  <fr_oxazole>  (10) 
0

>  <fr_oxime>  (10) 
0

>  <fr_para_hydroxylation>  (10) 
0

>  <fr_phenol>  (10) 
0

>  <fr_phenol_noOrthoHbond>  (10) 
0

>  <fr_phos_acid>  (10) 
0

>  <fr_phos_ester>  (10) 
0

>  <fr_piperdine>  (10) 
0

>  <fr_piperzine>  (10) 
0

>  <fr_priamide>  (10) 
0

>  <fr_prisulfonamd>  (10) 
0

>  <fr_pyridine>  (10) 
0

>  <fr_quatN>  (10) 
0

>  <fr_sulfide>  (10) 
0

>  <fr_sulfonamd>  (10) 
0

>  <fr_sulfone>  (10) 
0

>  <fr_term_acetylene>  (10) 
0

>  <fr_tetrazole>  (10) 
0

>  <fr_thiazole>  (10) 
0

>  <fr_thiocyan>  (10) 
0

>  <fr_thiophene>  (10) 
0

>  <fr_unbrch_alkane>  (10) 
0

>  <fr_urea>  (10) 
0

>  <NP_Likeness>  (10) 
0.072467

$$$$
CHEMBL644
     RDKit          3D

  0  0  0  0  0  0  0  0  0  0999 V3000
M  V30 BEGIN CTAB
M  V30 COUNTS 48 50 0 0 0
M  V30 BEGIN ATOM
M  V30 1 C -1.298499 -2.866978 1.102766 0
M  V30 2 C -0.371081 -2.519371 0.011161 0 CFG=2
M  V30 3 C 0.992680 -2.466041 0.672849 0
M  V30 4 N 2.059750 -2.142687 -0.241236 0
M  V30 5 C 3.295510 -2.128259 0.530971 0
M  V30 6 C 2.187996 -3.061154 -1.329627 0
M  V30 7 C -0.715770 -1.215871 -0.731744 0
M  V30 8 N -0.724527 -0.085722 0.126201 0
M  V30 9 C 0.459875 0.750317 0.240219 0
M  V30 10 C 1.016392 0.849478 -1.048250 0
M  V30 11 C 2.156365 1.590117 -1.156364 0
M  V30 12 C 2.682289 2.188130 -0.005043 0
M  V30 13 C 2.094784 2.061175 1.243063 0
M  V30 14 C 0.954024 1.329201 1.395486 0
M  V30 15 C 0.379904 1.263088 2.780207 0
M  V30 16 C -1.029057 1.744079 2.830927 0
M  V30 17 C -2.016037 0.958107 2.074949 0
M  V30 18 C -3.289554 1.028024 2.643812 0
M  V30 19 C -4.399784 0.372907 2.117185 0
M  V30 20 C -4.244440 -0.390813 0.969437 0
M  V30 21 C -3.007839 -0.495574 0.364518 0
M  V30 22 C -1.928460 0.167540 0.913853 0
M  V30 23 H -2.293503 -3.269676 0.800299 0
M  V30 24 H -1.309581 -2.205301 1.976654 0
M  V30 25 H -0.825341 -3.805008 1.534235 0
M  V30 26 H -0.358254 -3.312202 -0.732967 0
M  V30 27 H 0.924565 -1.568342 1.359385 0
M  V30 28 H 1.230816 -3.365432 1.235328 0
M  V30 29 H 4.142285 -1.772502 -0.090695 0
M  V30 30 H 3.158732 -1.389604 1.361995 0
M  V30 31 H 3.453562 -3.135492 0.963825 0
M  V30 32 H 3.223188 -3.470655 -1.370672 0
M  V30 33 H 1.516670 -3.939530 -1.238047 0
M  V30 34 H 2.057508 -2.516396 -2.290338 0
M  V30 35 H 0.314447 -1.248673 -1.233211 0
M  V30 36 H -1.316157 -1.297914 -1.603459 0
M  V30 37 H 0.521219 0.361533 -1.880219 0
M  V30 38 H 2.630425 1.705244 -2.105208 0
M  V30 39 H 3.601943 2.791932 -0.061554 0
M  V30 40 H 2.512247 2.529511 2.125052 0
M  V30 41 H 0.978120 1.953891 3.397183 0
M  V30 42 H 0.501196 0.253525 3.214950 0
M  V30 43 H -1.342165 1.700808 3.896430 0
M  V30 44 H -1.038989 2.821507 2.568448 0
M  V30 45 H -3.470508 1.618163 3.553166 0
M  V30 46 H -5.363669 0.462338 2.599844 0
M  V30 47 H -5.069379 -0.922149 0.514469 0
M  V30 48 H -2.889872 -1.076482 -0.505510 0
M  V30 END ATOM
M  V30 BEGIN BOND
M  V30 1 1 1 2
M  V30 2 1 2 3
M  V30 3 1 3 4
M  V30 4 1 4 5
M  V30 5 1 4 6
M  V30 6 1 2 7
M  V30 7 1 7 8
M  V30 8 1 8 9
M  V30 9 2 9 10
M  V30 10 1 10 11
M  V30 11 2 11 12
M  V30 12 1 12 13
M  V30 13 2 13 14
M  V30 14 1 14 15
M  V30 15 1 15 16
M  V30 16 1 16 17
M  V30 17 2 17 18
M  V30 18 1 18 19
M  V30 19 2 19 20
M  V30 20 1 20 21
M  V30 21 2 21 22
M  V30 22 1 22 8
M  V30 23 1 14 9
M  V30 24 1 22 17
M  V30 25 1 1 23
M  V30 26 1 1 24
M  V30 27 1 1 25
M  V30 28 1 2 26 CFG=3
M  V30 29 1 3 27
M  V30 30 1 3 28
M  V30 31 1 5 29
M  V30 32 1 5 30
M  V30 33 1 5 31
M  V30 34 1 6 32
M  V30 35 1 6 33
M  V30 36 1 6 34
M  V30 37 1 7 35
M  V30 38 1 7 36
M  V30 39 1 10 37
M  V30 40 1 11 38
M  V30 41 1 12 39
M  V30 42 1 13 40
M  V30 43 1 15 41
M  V30 44 1 15 42
M  V30 45 1 16 43
M  V30 46 1 16 44
M  V30 47 1 18 45
M  V30 48 1 19 46
M  V30 49 1 20 47
M  V30 50 1 21 48
M  V30 END BOND
M  V30 END CTAB
M  END
>  <Dataset>  (11) 
OralDrugs

>  <Ligand_Instance>  (11) 
nan

>  <PDB_ID>  (11) 
nan

>  <Standardized_SMILES>  (11) 
CC(CN(C)C)CN1c2ccccc2CCc2ccccc21

>  <Name>  (11) 
Trimipramine

>  <Pocket>  (11) 
nan

>  <ATP_Site>  (11) 
nan

>  <Peripheral>  (11) 
nan

>  <Num_H_Atoms_ProtBoundConf>  (11) 
nan

>  <Num_Resolved_Atoms>  (11) 
nan

>  <Num_Not_Resolved_Atoms>  (11) 
nan

>  <2D_Mol_H>  (11) 
<rdkit.Chem.rdchem.Mol object at 0x72a238b92dc0>

>  <MW>  (11) 
294.442

>  <HBA>  (11) 
2

>  <HBD>  (11) 
0

>  <LogP>  (11) 
4.121

>  <NRB>  (11) 
7

>  <TPSA>  (11) 
6.48

>  <Num_Heavy_Atoms>  (11) 
22

>  <Ro5>  (11) 
[True, True, True, True, True, True]

>  <Ro5_Fulfilled>  (11) 
True

>  <Ro3>  (11) 
[True, True, True, False]

>  <Ro3_Fulfilled>  (11) 
True

>  <Fsp3>  (11) 
0.4

>  <Fsp3_0.42>  (11) 
False

>  <Fsp3_0.45>  (11) 
False

>  <Stereogenic_Carbons>  (11) 
1

>  <C_Atoms>  (11) 
20

>  <FCStereo>  (11) 
0.05

>  <SPS>  (11) 
334

>  <nSPS>  (11) 
15.181818

>  <PBF>  (11) 
1.035163

>  <PBF_0.6>  (11) 
True

>  <nPBF>  (11) 
0.047053

>  <nPBF_0.016>  (11) 
True

>  <PMI1>  (11) 
1201.14357

>  <PMI2>  (11) 
1929.9516

>  <PMI3>  (11) 
2578.556987

>  <NPR1>  (11) 
0.46582

>  <NPR2>  (11) 
0.748462

>  <Sum_NPR>  (11) 
1.214282

>  <Sum_NPR_1.07>  (11) 
True

>  <Sum_NPR_1.2>  (11) 
True

>  <MaxAbsEStateIndex>  (11) 
2.533565

>  <MaxEStateIndex>  (11) 
2.533565

>  <MinAbsEStateIndex>  (11) 
0.619641

>  <MinEStateIndex>  (11) 
0.619641

>  <qed>  (11) 
0.836647

>  <MolWt>  (11) 
294.442

>  <HeavyAtomMolWt>  (11) 
268.234

>  <ExactMolWt>  (11) 
294.209599

>  <NumValenceElectrons>  (11) 
116

>  <NumRadicalElectrons>  (11) 
0

>  <MaxPartialCharge>  (11) 
0.044306

>  <MinPartialCharge>  (11) 
-0.34072

>  <MaxAbsPartialCharge>  (11) 
0.34072

>  <MinAbsPartialCharge>  (11) 
0.044306

>  <FpDensityMorgan1>  (11) 
0.909091

>  <FpDensityMorgan2>  (11) 
1.409091

>  <FpDensityMorgan3>  (11) 
1.909091

>  <BCUT2D_MWHI>  (11) 
15.154197

>  <BCUT2D_MWLOW>  (11) 
10.049506

>  <BCUT2D_CHGHI>  (11) 
2.212127

>  <BCUT2D_CHGLO>  (11) 
-2.303252

>  <BCUT2D_LOGPHI>  (11) 
2.358207

>  <BCUT2D_LOGPLOW>  (11) 
-2.303351

>  <BCUT2D_MRHI>  (11) 
5.706263

>  <BCUT2D_MRLOW>  (11) 
0.342829

>  <AvgIpc>  (11) 
2.649272

>  <BalabanJ>  (11) 
1.985087

>  <BertzCT>  (11) 
585.6093

>  <Chi0>  (11) 
15.526733

>  <Chi0n>  (11) 
13.919007

>  <Chi0v>  (11) 
13.919007

>  <Chi1>  (11) 
10.647867

>  <Chi1n>  (11) 
8.22975

>  <Chi1v>  (11) 
8.22975

>  <Chi2n>  (11) 
6.735445

>  <Chi2v>  (11) 
6.735445

>  <Chi3n>  (11) 
4.399569

>  <Chi3v>  (11) 
4.399569

>  <Chi4n>  (11) 
3.559666

>  <Chi4v>  (11) 
3.559666

>  <HallKierAlpha>  (11) 
-1.8

>  <Ipc>  (11) 
126062.960671

>  <Kappa1>  (11) 
15.109423

>  <Kappa2>  (11) 
6.533333

>  <Kappa3>  (11) 
3.172005

>  <LabuteASA>  (11) 
133.92187

>  <PEOE_VSA1>  (11) 
9.799819

>  <PEOE_VSA10>  (11) 
0.0

>  <PEOE_VSA11>  (11) 
0.0

>  <PEOE_VSA12>  (11) 
0.0

>  <PEOE_VSA13>  (11) 
0.0

>  <PEOE_VSA14>  (11) 
0.0

>  <PEOE_VSA2>  (11) 
0.0

>  <PEOE_VSA3>  (11) 
0.0

>  <PEOE_VSA4>  (11) 
0.0

>  <PEOE_VSA5>  (11) 
0.0

>  <PEOE_VSA6>  (11) 
43.32194

>  <PEOE_VSA7>  (11) 
56.11453

>  <PEOE_VSA8>  (11) 
24.464285

>  <PEOE_VSA9>  (11) 
0.0

>  <SMR_VSA1>  (11) 
0.0

>  <SMR_VSA10>  (11) 
11.374773

>  <SMR_VSA2>  (11) 
0.0

>  <SMR_VSA3>  (11) 
4.89991

>  <SMR_VSA4>  (11) 
5.917906

>  <SMR_VSA5>  (11) 
19.76538

>  <SMR_VSA6>  (11) 
32.084767

>  <SMR_VSA7>  (11) 
59.65784

>  <SMR_VSA8>  (11) 
0.0

>  <SMR_VSA9>  (11) 
0.0

>  <SlogP_VSA1>  (11) 
4.89991

>  <SlogP_VSA10>  (11) 
11.374773

>  <SlogP_VSA11>  (11) 
0.0

>  <SlogP_VSA12>  (11) 
0.0

>  <SlogP_VSA2>  (11) 
32.084767

>  <SlogP_VSA3>  (11) 
12.841643

>  <SlogP_VSA4>  (11) 
5.917906

>  <SlogP_VSA5>  (11) 
18.05064

>  <SlogP_VSA6>  (11) 
48.530937

>  <SlogP_VSA7>  (11) 
0.0

>  <SlogP_VSA8>  (11) 
0.0

>  <SlogP_VSA9>  (11) 
0.0

>  <EState_VSA1>  (11) 
0.0

>  <EState_VSA10>  (11) 
0.0

>  <EState_VSA11>  (11) 
0.0

>  <EState_VSA2>  (11) 
0.0

>  <EState_VSA3>  (11) 
5.917906

>  <EState_VSA4>  (11) 
25.931156

>  <EState_VSA5>  (11) 
22.501676

>  <EState_VSA6>  (11) 
0.0

>  <EState_VSA7>  (11) 
0.0

>  <EState_VSA8>  (11) 
79.349837

>  <EState_VSA9>  (11) 
0.0

>  <VSA_EState1>  (11) 
0.0

>  <VSA_EState10>  (11) 
0.0

>  <VSA_EState2>  (11) 
4.811638

>  <VSA_EState3>  (11) 
0.0

>  <VSA_EState4>  (11) 
5.710758

>  <VSA_EState5>  (11) 
0.619641

>  <VSA_EState6>  (11) 
17.772356

>  <VSA_EState7>  (11) 
2.261405

>  <VSA_EState8>  (11) 
4.517022

>  <VSA_EState9>  (11) 
4.30718

>  <FractionCSP3>  (11) 
0.4

>  <HeavyAtomCount>  (11) 
22

>  <NHOHCount>  (11) 
0

>  <NOCount>  (11) 
2

>  <NumAliphaticCarbocycles>  (11) 
0

>  <NumAliphaticHeterocycles>  (11) 
1

>  <NumAliphaticRings>  (11) 
1

>  <NumAromaticCarbocycles>  (11) 
2

>  <NumAromaticHeterocycles>  (11) 
0

>  <NumAromaticRings>  (11) 
2

>  <NumHAcceptors>  (11) 
2

>  <NumHDonors>  (11) 
0

>  <NumHeteroatoms>  (11) 
2

>  <NumRotatableBonds>  (11) 
4

>  <NumSaturatedCarbocycles>  (11) 
0

>  <NumSaturatedHeterocycles>  (11) 
0

>  <NumSaturatedRings>  (11) 
0

>  <RingCount>  (11) 
3

>  <MolLogP>  (11) 
4.121

>  <MolMR>  (11) 
95.016

>  <fr_Al_COO>  (11) 
0

>  <fr_Al_OH>  (11) 
0

>  <fr_Al_OH_noTert>  (11) 
0

>  <fr_ArN>  (11) 
0

>  <fr_Ar_COO>  (11) 
0

>  <fr_Ar_N>  (11) 
0

>  <fr_Ar_NH>  (11) 
0

>  <fr_Ar_OH>  (11) 
0

>  <fr_COO>  (11) 
0

>  <fr_COO2>  (11) 
0

>  <fr_C_O>  (11) 
0

>  <fr_C_O_noCOO>  (11) 
0

>  <fr_C_S>  (11) 
0

>  <fr_HOCCN>  (11) 
0

>  <fr_Imine>  (11) 
0

>  <fr_NH0>  (11) 
2

>  <fr_NH1>  (11) 
0

>  <fr_NH2>  (11) 
0

>  <fr_N_O>  (11) 
0

>  <fr_Ndealkylation1>  (11) 
0

>  <fr_Ndealkylation2>  (11) 
0

>  <fr_Nhpyrrole>  (11) 
0

>  <fr_SH>  (11) 
0

>  <fr_aldehyde>  (11) 
0

>  <fr_alkyl_carbamate>  (11) 
0

>  <fr_alkyl_halide>  (11) 
0

>  <fr_allylic_oxid>  (11) 
0

>  <fr_amide>  (11) 
0

>  <fr_amidine>  (11) 
0

>  <fr_aniline>  (11) 
2

>  <fr_aryl_methyl>  (11) 
2

>  <fr_azide>  (11) 
0

>  <fr_azo>  (11) 
0

>  <fr_barbitur>  (11) 
0

>  <fr_benzene>  (11) 
2

>  <fr_benzodiazepine>  (11) 
0

>  <fr_bicyclic>  (11) 
2

>  <fr_diazo>  (11) 
0

>  <fr_dihydropyridine>  (11) 
0

>  <fr_epoxide>  (11) 
0

>  <fr_ester>  (11) 
0

>  <fr_ether>  (11) 
0

>  <fr_furan>  (11) 
0

>  <fr_guanido>  (11) 
0

>  <fr_halogen>  (11) 
0

>  <fr_hdrzine>  (11) 
0

>  <fr_hdrzone>  (11) 
0

>  <fr_imidazole>  (11) 
0

>  <fr_imide>  (11) 
0

>  <fr_isocyan>  (11) 
0

>  <fr_isothiocyan>  (11) 
0

>  <fr_ketone>  (11) 
0

>  <fr_ketone_Topliss>  (11) 
0

>  <fr_lactam>  (11) 
0

>  <fr_lactone>  (11) 
0

>  <fr_methoxy>  (11) 
0

>  <fr_morpholine>  (11) 
0

>  <fr_nitrile>  (11) 
0

>  <fr_nitro>  (11) 
0

>  <fr_nitro_arom>  (11) 
0

>  <fr_nitro_arom_nonortho>  (11) 
0

>  <fr_nitroso>  (11) 
0

>  <fr_oxazole>  (11) 
0

>  <fr_oxime>  (11) 
0

>  <fr_para_hydroxylation>  (11) 
2

>  <fr_phenol>  (11) 
0

>  <fr_phenol_noOrthoHbond>  (11) 
0

>  <fr_phos_acid>  (11) 
0

>  <fr_phos_ester>  (11) 
0

>  <fr_piperdine>  (11) 
0

>  <fr_piperzine>  (11) 
0

>  <fr_priamide>  (11) 
0

>  <fr_prisulfonamd>  (11) 
0

>  <fr_pyridine>  (11) 
0

>  <fr_quatN>  (11) 
0

>  <fr_sulfide>  (11) 
0

>  <fr_sulfonamd>  (11) 
0

>  <fr_sulfone>  (11) 
0

>  <fr_term_acetylene>  (11) 
0

>  <fr_tetrazole>  (11) 
0

>  <fr_thiazole>  (11) 
0

>  <fr_thiocyan>  (11) 
0

>  <fr_thiophene>  (11) 
0

>  <fr_unbrch_alkane>  (11) 
0

>  <fr_urea>  (11) 
0

>  <NP_Likeness>  (11) 
-0.598715

$$$$
CHEMBL1475
     RDKit          3D

  0  0  0  0  0  0  0  0  0  0999 V3000
M  V30 BEGIN CTAB
M  V30 COUNTS 29 31 0 0 0
M  V30 BEGIN ATOM
M  V30 1 C -0.702213 -3.612078 4.331511 0
M  V30 2 C -0.323418 -2.668804 3.227786 0
M  V30 3 C -1.282112 -2.126654 2.364792 0
M  V30 4 C -0.530442 -1.332224 1.519308 0
M  V30 5 C -0.878472 -0.527598 0.447384 0
M  V30 6 C 0.066308 0.200392 -0.277644 0
M  V30 7 C -0.370624 0.970070 -1.323222 0
M  V30 8 C -1.793814 1.065245 -1.718600 0
M  V30 9 C 0.582062 1.696213 -2.044401 0
M  V30 10 C 1.877527 1.536911 -1.593813 0
M  V30 11 O 2.825621 2.144660 -2.168117 0
M  V30 12 O 2.245423 0.785243 -0.584130 0
M  V30 13 C 1.377695 0.075519 0.133071 0
M  V30 14 C 1.771544 -0.713067 1.193880 0
M  V30 15 C 3.209524 -0.775852 1.551700 0
M  V30 16 C 0.803913 -1.415549 1.882629 0
M  V30 17 O 0.877440 -2.237401 2.922708 0
M  V30 18 H 0.196851 -4.094988 4.712695 0
M  V30 19 H -1.205513 -3.055511 5.139951 0
M  V30 20 H -1.418512 -4.381569 3.970899 0
M  V30 21 H -2.330320 -2.289911 2.364846 0
M  V30 22 H -1.934659 -0.492423 0.198208 0
M  V30 23 H -1.859970 1.434375 -2.777747 0
M  V30 24 H -2.209255 0.034960 -1.754475 0
M  V30 25 H -2.392938 1.755378 -1.119001 0
M  V30 26 H 0.335511 2.331348 -2.885057 0
M  V30 27 H 3.725382 -1.568728 0.977262 0
M  V30 28 H 3.722615 0.172867 1.331210 0
M  V30 29 H 3.337744 -0.963224 2.625065 0
M  V30 END ATOM
M  V30 BEGIN BOND
M  V30 1 1 1 2
M  V30 2 2 2 3
M  V30 3 1 3 4
M  V30 4 2 4 5
M  V30 5 1 5 6
M  V30 6 1 6 7
M  V30 7 1 7 8
M  V30 8 2 7 9
M  V30 9 1 9 10
M  V30 10 2 10 11
M  V30 11 1 10 12
M  V30 12 1 12 13
M  V30 13 1 13 14
M  V30 14 1 14 15
M  V30 15 2 14 16
M  V30 16 1 16 17
M  V30 17 1 17 2
M  V30 18 1 16 4
M  V30 19 2 13 6
M  V30 20 1 1 18
M  V30 21 1 1 19
M  V30 22 1 1 20
M  V30 23 1 3 21
M  V30 24 1 5 22
M  V30 25 1 8 23
M  V30 26 1 8 24
M  V30 27 1 8 25
M  V30 28 1 9 26
M  V30 29 1 15 27
M  V30 30 1 15 28
M  V30 31 1 15 29
M  V30 END BOND
M  V30 END CTAB
M  END
>  <Dataset>  (12) 
OralDrugs

>  <Ligand_Instance>  (12) 
nan

>  <PDB_ID>  (12) 
nan

>  <Standardized_SMILES>  (12) 
Cc1cc2cc3c(C)cc(=O)oc3c(C)c2o1

>  <Name>  (12) 
Trioxsalen

>  <Pocket>  (12) 
nan

>  <ATP_Site>  (12) 
nan

>  <Peripheral>  (12) 
nan

>  <Num_H_Atoms_ProtBoundConf>  (12) 
nan

>  <Num_Resolved_Atoms>  (12) 
nan

>  <Num_Not_Resolved_Atoms>  (12) 
nan

>  <2D_Mol_H>  (12) 
<rdkit.Chem.rdchem.Mol object at 0x72a238b92ea0>

>  <MW>  (12) 
228.247

>  <HBA>  (12) 
3

>  <HBD>  (12) 
0

>  <LogP>  (12) 
3.46446

>  <NRB>  (12) 
3

>  <TPSA>  (12) 
43.35

>  <Num_Heavy_Atoms>  (12) 
17

>  <Ro5>  (12) 
[True, True, True, True, True, True]

>  <Ro5_Fulfilled>  (12) 
True

>  <Ro3>  (12) 
[True, True, True, False]

>  <Ro3_Fulfilled>  (12) 
True

>  <Fsp3>  (12) 
0.214286

>  <Fsp3_0.42>  (12) 
False

>  <Fsp3_0.45>  (12) 
False

>  <Stereogenic_Carbons>  (12) 
0

>  <C_Atoms>  (12) 
14

>  <FCStereo>  (12) 
0.0

>  <SPS>  (12) 
195

>  <nSPS>  (12) 
11.470588

>  <PBF>  (12) 
0.216287

>  <PBF_0.6>  (12) 
False

>  <nPBF>  (12) 
0.012723

>  <nPBF_0.016>  (12) 
False

>  <PMI1>  (12) 
478.330106

>  <PMI2>  (12) 
1602.942087

>  <PMI3>  (12) 
2071.434183

>  <NPR1>  (12) 
0.230917

>  <NPR2>  (12) 
0.773832

>  <Sum_NPR>  (12) 
1.004749

>  <Sum_NPR_1.07>  (12) 
False

>  <Sum_NPR_1.2>  (12) 
False

>  <MaxAbsEStateIndex>  (12) 
11.400496

>  <MaxEStateIndex>  (12) 
11.400496

>  <MinAbsEStateIndex>  (12) 
0.31877

>  <MinEStateIndex>  (12) 
-0.31877

>  <qed>  (12) 
0.55321

>  <MolWt>  (12) 
228.247

>  <HeavyAtomMolWt>  (12) 
216.151

>  <ExactMolWt>  (12) 
228.078644

>  <NumValenceElectrons>  (12) 
86

>  <NumRadicalElectrons>  (12) 
0

>  <MaxPartialCharge>  (12) 
0.335972

>  <MinPartialCharge>  (12) 
-0.460953

>  <MaxAbsPartialCharge>  (12) 
0.460953

>  <MinAbsPartialCharge>  (12) 
0.335972

>  <FpDensityMorgan1>  (12) 
0.941176

>  <FpDensityMorgan2>  (12) 
1.705882

>  <FpDensityMorgan3>  (12) 
2.470588

>  <BCUT2D_MWHI>  (12) 
16.393559

>  <BCUT2D_MWLOW>  (12) 
10.051838

>  <BCUT2D_CHGHI>  (12) 
2.118063

>  <BCUT2D_CHGLO>  (12) 
-2.03337

>  <BCUT2D_LOGPHI>  (12) 
2.301349

>  <BCUT2D_LOGPLOW>  (12) 
-1.983706

>  <BCUT2D_MRHI>  (12) 
5.977673

>  <BCUT2D_MRLOW>  (12) 
0.551345

>  <AvgIpc>  (12) 
2.61558

>  <BalabanJ>  (12) 
2.626324

>  <BertzCT>  (12) 
790.424101

>  <Chi0>  (12) 
12.154336

>  <Chi0n>  (12) 
9.956796

>  <Chi0v>  (12) 
9.956796

>  <Chi1>  (12) 
8.058551

>  <Chi1n>  (12) 
5.502672

>  <Chi1v>  (12) 
5.502672

>  <Chi2n>  (12) 
4.402101

>  <Chi2v>  (12) 
4.402101

>  <Chi3n>  (12) 
3.071506

>  <Chi3v>  (12) 
3.071506

>  <Chi4n>  (12) 
2.269364

>  <Chi4v>  (12) 
2.269364

>  <HallKierAlpha>  (12) 
-2.03

>  <Ipc>  (12) 
10171.99004

>  <Kappa1>  (12) 
10.144974

>  <Kappa2>  (12) 
3.230833

>  <Kappa3>  (12) 
1.388365

>  <LabuteASA>  (12) 
97.650227

>  <PEOE_VSA1>  (12) 
8.834302

>  <PEOE_VSA10>  (12) 
16.926288

>  <PEOE_VSA11>  (12) 
0.0

>  <PEOE_VSA12>  (12) 
0.0

>  <PEOE_VSA13>  (12) 
0.0

>  <PEOE_VSA14>  (12) 
5.625586

>  <PEOE_VSA2>  (12) 
0.0

>  <PEOE_VSA3>  (12) 
4.794537

>  <PEOE_VSA4>  (12) 
0.0

>  <PEOE_VSA5>  (12) 
0.0

>  <PEOE_VSA6>  (12) 
0.0

>  <PEOE_VSA7>  (12) 
38.467397

>  <PEOE_VSA8>  (12) 
22.402267

>  <PEOE_VSA9>  (12) 
0.0

>  <SMR_VSA1>  (12) 
8.834302

>  <SMR_VSA10>  (12) 
21.938489

>  <SMR_VSA2>  (12) 
0.0

>  <SMR_VSA3>  (12) 
0.0

>  <SMR_VSA4>  (12) 
0.0

>  <SMR_VSA5>  (12) 
20.771212

>  <SMR_VSA6>  (12) 
0.0

>  <SMR_VSA7>  (12) 
45.506375

>  <SMR_VSA8>  (12) 
0.0

>  <SMR_VSA9>  (12) 
0.0

>  <SlogP_VSA1>  (12) 
5.625586

>  <SlogP_VSA10>  (12) 
0.0

>  <SlogP_VSA11>  (12) 
0.0

>  <SlogP_VSA12>  (12) 
0.0

>  <SlogP_VSA2>  (12) 
0.0

>  <SlogP_VSA3>  (12) 
0.0

>  <SlogP_VSA4>  (12) 
20.771212

>  <SlogP_VSA5>  (12) 
16.88715

>  <SlogP_VSA6>  (12) 
31.82794

>  <SlogP_VSA7>  (12) 
0.0

>  <SlogP_VSA8>  (12) 
21.938489

>  <SlogP_VSA9>  (12) 
0.0

>  <EState_VSA1>  (12) 
0.0

>  <EState_VSA10>  (12) 
4.794537

>  <EState_VSA11>  (12) 
0.0

>  <EState_VSA2>  (12) 
5.625586

>  <EState_VSA3>  (12) 
5.58302

>  <EState_VSA4>  (12) 
33.242619

>  <EState_VSA5>  (12) 
6.066367

>  <EState_VSA6>  (12) 
0.0

>  <EState_VSA7>  (12) 
32.903946

>  <EState_VSA8>  (12) 
0.0

>  <EState_VSA9>  (12) 
8.834302

>  <VSA_EState1>  (12) 
10.899529

>  <VSA_EState10>  (12) 
0.0

>  <VSA_EState2>  (12) 
11.400496

>  <VSA_EState3>  (12) 
2.013749

>  <VSA_EState4>  (12) 
2.910029

>  <VSA_EState5>  (12) 
0.859635

>  <VSA_EState6>  (12) 
5.513202

>  <VSA_EState7>  (12) 
0.0

>  <VSA_EState8>  (12) 
5.736694

>  <VSA_EState9>  (12) 
0.0

>  <FractionCSP3>  (12) 
0.214286

>  <HeavyAtomCount>  (12) 
17

>  <NHOHCount>  (12) 
0

>  <NOCount>  (12) 
3

>  <NumAliphaticCarbocycles>  (12) 
0

>  <NumAliphaticHeterocycles>  (12) 
0

>  <NumAliphaticRings>  (12) 
0

>  <NumAromaticCarbocycles>  (12) 
1

>  <NumAromaticHeterocycles>  (12) 
2

>  <NumAromaticRings>  (12) 
3

>  <NumHAcceptors>  (12) 
3

>  <NumHDonors>  (12) 
0

>  <NumHeteroatoms>  (12) 
3

>  <NumRotatableBonds>  (12) 
0

>  <NumSaturatedCarbocycles>  (12) 
0

>  <NumSaturatedHeterocycles>  (12) 
0

>  <NumSaturatedRings>  (12) 
0

>  <RingCount>  (12) 
3

>  <MolLogP>  (12) 
3.46446

>  <MolMR>  (12) 
66.467

>  <fr_Al_COO>  (12) 
0

>  <fr_Al_OH>  (12) 
0

>  <fr_Al_OH_noTert>  (12) 
0

>  <fr_ArN>  (12) 
0

>  <fr_Ar_COO>  (12) 
0

>  <fr_Ar_N>  (12) 
0

>  <fr_Ar_NH>  (12) 
0

>  <fr_Ar_OH>  (12) 
0

>  <fr_COO>  (12) 
0

>  <fr_COO2>  (12) 
0

>  <fr_C_O>  (12) 
0

>  <fr_C_O_noCOO>  (12) 
0

>  <fr_C_S>  (12) 
0

>  <fr_HOCCN>  (12) 
0

>  <fr_Imine>  (12) 
0

>  <fr_NH0>  (12) 
0

>  <fr_NH1>  (12) 
0

>  <fr_NH2>  (12) 
0

>  <fr_N_O>  (12) 
0

>  <fr_Ndealkylation1>  (12) 
0

>  <fr_Ndealkylation2>  (12) 
0

>  <fr_Nhpyrrole>  (12) 
0

>  <fr_SH>  (12) 
0

>  <fr_aldehyde>  (12) 
0

>  <fr_alkyl_carbamate>  (12) 
0

>  <fr_alkyl_halide>  (12) 
0

>  <fr_allylic_oxid>  (12) 
0

>  <fr_amide>  (12) 
0

>  <fr_amidine>  (12) 
0

>  <fr_aniline>  (12) 
0

>  <fr_aryl_methyl>  (12) 
3

>  <fr_azide>  (12) 
0

>  <fr_azo>  (12) 
0

>  <fr_barbitur>  (12) 
0

>  <fr_benzene>  (12) 
1

>  <fr_benzodiazepine>  (12) 
0

>  <fr_bicyclic>  (12) 
2

>  <fr_diazo>  (12) 
0

>  <fr_dihydropyridine>  (12) 
0

>  <fr_epoxide>  (12) 
0

>  <fr_ester>  (12) 
0

>  <fr_ether>  (12) 
0

>  <fr_furan>  (12) 
1

>  <fr_guanido>  (12) 
0

>  <fr_halogen>  (12) 
0

>  <fr_hdrzine>  (12) 
0

>  <fr_hdrzone>  (12) 
0

>  <fr_imidazole>  (12) 
0

>  <fr_imide>  (12) 
0

>  <fr_isocyan>  (12) 
0

>  <fr_isothiocyan>  (12) 
0

>  <fr_ketone>  (12) 
0

>  <fr_ketone_Topliss>  (12) 
0

>  <fr_lactam>  (12) 
0

>  <fr_lactone>  (12) 
0

>  <fr_methoxy>  (12) 
0

>  <fr_morpholine>  (12) 
0

>  <fr_nitrile>  (12) 
0

>  <fr_nitro>  (12) 
0

>  <fr_nitro_arom>  (12) 
0

>  <fr_nitro_arom_nonortho>  (12) 
0

>  <fr_nitroso>  (12) 
0

>  <fr_oxazole>  (12) 
0

>  <fr_oxime>  (12) 
0

>  <fr_para_hydroxylation>  (12) 
0

>  <fr_phenol>  (12) 
0

>  <fr_phenol_noOrthoHbond>  (12) 
0

>  <fr_phos_acid>  (12) 
0

>  <fr_phos_ester>  (12) 
0

>  <fr_piperdine>  (12) 
0

>  <fr_piperzine>  (12) 
0

>  <fr_priamide>  (12) 
0

>  <fr_prisulfonamd>  (12) 
0

>  <fr_pyridine>  (12) 
0

>  <fr_quatN>  (12) 
0

>  <fr_sulfide>  (12) 
0

>  <fr_sulfonamd>  (12) 
0

>  <fr_sulfone>  (12) 
0

>  <fr_term_acetylene>  (12) 
0

>  <fr_tetrazole>  (12) 
0

>  <fr_thiazole>  (12) 
0

>  <fr_thiocyan>  (12) 
0

>  <fr_thiophene>  (12) 
0

>  <fr_unbrch_alkane>  (12) 
0

>  <fr_urea>  (12) 
0

>  <NP_Likeness>  (12) 
0.279758

$$$$
CHEMBL1241
     RDKit          3D

  0  0  0  0  0  0  0  0  0  0999 V3000
M  V30 BEGIN CTAB
M  V30 COUNTS 40 41 0 0 0
M  V30 BEGIN ATOM
M  V30 1 C -1.367316 -2.457934 3.096916 0
M  V30 2 N -1.007153 -2.692323 1.731790 0
M  V30 3 C -2.051018 -3.324528 0.984416 0
M  V30 4 C 0.305254 -3.217827 1.525554 0
M  V30 5 C 1.366485 -2.179572 1.884523 0
M  V30 6 N 1.210567 -0.991111 1.067333 0
M  V30 7 C 1.516166 -1.201402 -0.311795 0
M  V30 8 C 1.358644 -0.026880 -1.185764 0
M  V30 9 C 0.094127 0.149904 -1.762337 0
M  V30 10 C -0.237506 1.197249 -2.614023 0
M  V30 11 C 0.752857 2.114782 -2.901325 0
M  V30 12 C 2.017204 1.978659 -2.353469 0
M  V30 13 C 2.311704 0.933637 -1.516693 0
M  V30 14 C 0.799905 0.258801 1.557769 0
M  V30 15 C 0.489506 0.551704 2.846597 0
M  V30 16 C 0.084225 1.779170 3.325186 0
M  V30 17 C -0.016014 2.809147 2.406339 0
M  V30 18 C 0.295298 2.527761 1.093702 0
M  V30 19 N 0.681878 1.296852 0.724262 0
M  V30 20 H -2.281028 -3.050123 3.348079 0
M  V30 21 H -0.567114 -2.748639 3.777583 0
M  V30 22 H -1.626006 -1.378706 3.198239 0
M  V30 23 H -2.434862 -4.241932 1.471081 0
M  V30 24 H -2.843067 -2.561071 0.815134 0
M  V30 25 H -1.638460 -3.535174 -0.039011 0
M  V30 26 H 0.451629 -4.054889 2.247543 0
M  V30 27 H 0.440611 -3.567344 0.487603 0
M  V30 28 H 2.375842 -2.654655 1.700771 0
M  V30 29 H 1.360098 -1.980932 2.971192 0
M  V30 30 H 0.914672 -2.024301 -0.728717 0
M  V30 31 H 2.584624 -1.573578 -0.328314 0
M  V30 32 H -0.699939 -0.552204 -1.553679 0
M  V30 33 H -1.240644 1.266055 -3.021896 0
M  V30 34 H 0.462614 2.920956 -3.568563 0
M  V30 35 H 2.770223 2.711332 -2.597303 0
M  V30 36 H 3.274375 0.778778 -1.064345 0
M  V30 37 H 0.556892 -0.234728 3.602817 0
M  V30 38 H -0.156430 1.979895 4.359740 0
M  V30 39 H -0.330271 3.822222 2.688887 0
M  V30 40 H 0.224906 3.324505 0.340008 0
M  V30 END ATOM
M  V30 BEGIN BOND
M  V30 1 1 1 2
M  V30 2 1 2 3
M  V30 3 1 2 4
M  V30 4 1 4 5
M  V30 5 1 5 6
M  V30 6 1 6 7
M  V30 7 1 7 8
M  V30 8 2 8 9
M  V30 9 1 9 10
M  V30 10 2 10 11
M  V30 11 1 11 12
M  V30 12 2 12 13
M  V30 13 1 6 14
M  V30 14 2 14 15
M  V30 15 1 15 16
M  V30 16 2 16 17
M  V30 17 1 17 18
M  V30 18 2 18 19
M  V30 19 1 13 8
M  V30 20 1 19 14
M  V30 21 1 1 20
M  V30 22 1 1 21
M  V30 23 1 1 22
M  V30 24 1 3 23
M  V30 25 1 3 24
M  V30 26 1 3 25
M  V30 27 1 4 26
M  V30 28 1 4 27
M  V30 29 1 5 28
M  V30 30 1 5 29
M  V30 31 1 7 30
M  V30 32 1 7 31
M  V30 33 1 9 32
M  V30 34 1 10 33
M  V30 35 1 11 34
M  V30 36 1 12 35
M  V30 37 1 13 36
M  V30 38 1 15 37
M  V30 39 1 16 38
M  V30 40 1 17 39
M  V30 41 1 18 40
M  V30 END BOND
M  V30 END CTAB
M  END
>  <Dataset>  (13) 
OralDrugs

>  <Ligand_Instance>  (13) 
nan

>  <PDB_ID>  (13) 
nan

>  <Standardized_SMILES>  (13) 
CN(C)CCN(Cc1ccccc1)c1ccccn1

>  <Name>  (13) 
Tripelennamine

>  <Pocket>  (13) 
nan

>  <ATP_Site>  (13) 
nan

>  <Peripheral>  (13) 
nan

>  <Num_H_Atoms_ProtBoundConf>  (13) 
nan

>  <Num_Resolved_Atoms>  (13) 
nan

>  <Num_Not_Resolved_Atoms>  (13) 
nan

>  <2D_Mol_H>  (13) 
<rdkit.Chem.rdchem.Mol object at 0x72a238b92f80>

>  <MW>  (13) 
255.365

>  <HBA>  (13) 
3

>  <HBD>  (13) 
0

>  <LogP>  (13) 
2.6498

>  <NRB>  (13) 
8

>  <TPSA>  (13) 
19.37

>  <Num_Heavy_Atoms>  (13) 
19

>  <Ro5>  (13) 
[True, True, True, True, True, True]

>  <Ro5_Fulfilled>  (13) 
True

>  <Ro3>  (13) 
[True, True, True, True]

>  <Ro3_Fulfilled>  (13) 
True

>  <Fsp3>  (13) 
0.3125

>  <Fsp3_0.42>  (13) 
False

>  <Fsp3_0.45>  (13) 
False

>  <Stereogenic_Carbons>  (13) 
0

>  <C_Atoms>  (13) 
16

>  <FCStereo>  (13) 
0.0

>  <SPS>  (13) 
203

>  <nSPS>  (13) 
10.684211

>  <PBF>  (13) 
1.107569

>  <PBF_0.6>  (13) 
True

>  <nPBF>  (13) 
0.058293

>  <nPBF_0.016>  (13) 
True

>  <PMI1>  (13) 
935.883714

>  <PMI2>  (13) 
1668.789718

>  <PMI3>  (13) 
2118.21877

>  <NPR1>  (13) 
0.441826

>  <NPR2>  (13) 
0.787827

>  <Sum_NPR>  (13) 
1.229653

>  <Sum_NPR_1.07>  (13) 
True

>  <Sum_NPR_1.2>  (13) 
True

>  <MaxAbsEStateIndex>  (13) 
4.460591

>  <MaxEStateIndex>  (13) 
4.460591

>  <MinAbsEStateIndex>  (13) 
0.894537

>  <MinEStateIndex>  (13) 
0.894537

>  <qed>  (13) 
0.790803

>  <MolWt>  (13) 
255.365

>  <HeavyAtomMolWt>  (13) 
234.197

>  <ExactMolWt>  (13) 
255.173548

>  <NumValenceElectrons>  (13) 
100

>  <NumRadicalElectrons>  (13) 
0

>  <MaxPartialCharge>  (13) 
0.128304

>  <MinPartialCharge>  (13) 
-0.351011

>  <MaxAbsPartialCharge>  (13) 
0.351011

>  <MinAbsPartialCharge>  (13) 
0.128304

>  <FpDensityMorgan1>  (13) 
0.894737

>  <FpDensityMorgan2>  (13) 
1.631579

>  <FpDensityMorgan3>  (13) 
2.263158

>  <BCUT2D_MWHI>  (13) 
15.207903

>  <BCUT2D_MWLOW>  (13) 
10.180907

>  <BCUT2D_CHGHI>  (13) 
2.079389

>  <BCUT2D_CHGLO>  (13) 
-2.250351

>  <BCUT2D_LOGPHI>  (13) 
2.130899

>  <BCUT2D_LOGPLOW>  (13) 
-2.314005

>  <BCUT2D_MRHI>  (13) 
5.386078

>  <BCUT2D_MRLOW>  (13) 
0.411858

>  <AvgIpc>  (13) 
2.45102

>  <BalabanJ>  (13) 
2.102339

>  <BertzCT>  (13) 
467.867423

>  <Chi0>  (13) 
13.501789

>  <Chi0n>  (13) 
11.659114

>  <Chi0v>  (13) 
11.659114

>  <Chi1>  (13) 
9.25402

>  <Chi1n>  (13) 
6.601435

>  <Chi1v>  (13) 
6.601435

>  <Chi2n>  (13) 
4.898366

>  <Chi2v>  (13) 
4.898366

>  <Chi3n>  (13) 
3.006665

>  <Chi3v>  (13) 
3.006665

>  <Chi4n>  (13) 
1.939927

>  <Chi4v>  (13) 
1.939927

>  <HallKierAlpha>  (13) 
-1.87

>  <Ipc>  (13) 
25804.339287

>  <Kappa1>  (13) 
13.559088

>  <Kappa2>  (13) 
6.901778

>  <Kappa3>  (13) 
4.375414

>  <LabuteASA>  (13) 
115.052523

>  <PEOE_VSA1>  (13) 
9.799819

>  <PEOE_VSA10>  (13) 
5.817863

>  <PEOE_VSA11>  (13) 
0.0

>  <PEOE_VSA12>  (13) 
0.0

>  <PEOE_VSA13>  (13) 
0.0

>  <PEOE_VSA14>  (13) 
0.0

>  <PEOE_VSA2>  (13) 
0.0

>  <PEOE_VSA3>  (13) 
4.983979

>  <PEOE_VSA4>  (13) 
0.0

>  <PEOE_VSA5>  (13) 
0.0

>  <PEOE_VSA6>  (13) 
36.398202

>  <PEOE_VSA7>  (13) 
31.79153

>  <PEOE_VSA8>  (13) 
25.831113

>  <PEOE_VSA9>  (13) 
0.0

>  <SMR_VSA1>  (13) 
0.0

>  <SMR_VSA10>  (13) 
5.817863

>  <SMR_VSA2>  (13) 
0.0

>  <SMR_VSA3>  (13) 
9.883888

>  <SMR_VSA4>  (13) 
0.0

>  <SMR_VSA5>  (13) 
6.544756

>  <SMR_VSA6>  (13) 
32.084767

>  <SMR_VSA7>  (13) 
60.291232

>  <SMR_VSA8>  (13) 
0.0

>  <SMR_VSA9>  (13) 
0.0

>  <SlogP_VSA1>  (13) 
4.89991

>  <SlogP_VSA10>  (13) 
5.817863

>  <SlogP_VSA11>  (13) 
0.0

>  <SlogP_VSA12>  (13) 
0.0

>  <SlogP_VSA2>  (13) 
37.068745

>  <SlogP_VSA3>  (13) 
6.544756

>  <SlogP_VSA4>  (13) 
0.0

>  <SlogP_VSA5>  (13) 
5.563451

>  <SlogP_VSA6>  (13) 
54.72778

>  <SlogP_VSA7>  (13) 
0.0

>  <SlogP_VSA8>  (13) 
0.0

>  <SlogP_VSA9>  (13) 
0.0

>  <EState_VSA1>  (13) 
0.0

>  <EState_VSA10>  (13) 
0.0

>  <EState_VSA11>  (13) 
0.0

>  <EState_VSA2>  (13) 
0.0

>  <EState_VSA3>  (13) 
0.0

>  <EState_VSA4>  (13) 
25.452132

>  <EState_VSA5>  (13) 
5.563451

>  <EState_VSA6>  (13) 
0.0

>  <EState_VSA7>  (13) 
18.329578

>  <EState_VSA8>  (13) 
65.277344

>  <EState_VSA9>  (13) 
0.0

>  <VSA_EState1>  (13) 
0.0

>  <VSA_EState10>  (13) 
0.0

>  <VSA_EState2>  (13) 
8.970776

>  <VSA_EState3>  (13) 
0.0

>  <VSA_EState4>  (13) 
1.311953

>  <VSA_EState5>  (13) 
1.035373

>  <VSA_EState6>  (13) 
16.589404

>  <VSA_EState7>  (13) 
1.850185

>  <VSA_EState8>  (13) 
2.882945

>  <VSA_EState9>  (13) 
4.192697

>  <FractionCSP3>  (13) 
0.3125

>  <HeavyAtomCount>  (13) 
19

>  <NHOHCount>  (13) 
0

>  <NOCount>  (13) 
3

>  <NumAliphaticCarbocycles>  (13) 
0

>  <NumAliphaticHeterocycles>  (13) 
0

>  <NumAliphaticRings>  (13) 
0

>  <NumAromaticCarbocycles>  (13) 
1

>  <NumAromaticHeterocycles>  (13) 
1

>  <NumAromaticRings>  (13) 
2

>  <NumHAcceptors>  (13) 
3

>  <NumHDonors>  (13) 
0

>  <NumHeteroatoms>  (13) 
3

>  <NumRotatableBonds>  (13) 
6

>  <NumSaturatedCarbocycles>  (13) 
0

>  <NumSaturatedHeterocycles>  (13) 
0

>  <NumSaturatedRings>  (13) 
0

>  <RingCount>  (13) 
2

>  <MolLogP>  (13) 
2.6498

>  <MolMR>  (13) 
80.283

>  <fr_Al_COO>  (13) 
0

>  <fr_Al_OH>  (13) 
0

>  <fr_Al_OH_noTert>  (13) 
0

>  <fr_ArN>  (13) 
0

>  <fr_Ar_COO>  (13) 
0

>  <fr_Ar_N>  (13) 
1

>  <fr_Ar_NH>  (13) 
0

>  <fr_Ar_OH>  (13) 
0

>  <fr_COO>  (13) 
0

>  <fr_COO2>  (13) 
0

>  <fr_C_O>  (13) 
0

>  <fr_C_O_noCOO>  (13) 
0

>  <fr_C_S>  (13) 
0

>  <fr_HOCCN>  (13) 
0

>  <fr_Imine>  (13) 
0

>  <fr_NH0>  (13) 
3

>  <fr_NH1>  (13) 
0

>  <fr_NH2>  (13) 
0

>  <fr_N_O>  (13) 
0

>  <fr_Ndealkylation1>  (13) 
1

>  <fr_Ndealkylation2>  (13) 
0

>  <fr_Nhpyrrole>  (13) 
0

>  <fr_SH>  (13) 
0

>  <fr_aldehyde>  (13) 
0

>  <fr_alkyl_carbamate>  (13) 
0

>  <fr_alkyl_halide>  (13) 
0

>  <fr_allylic_oxid>  (13) 
0

>  <fr_amide>  (13) 
0

>  <fr_amidine>  (13) 
0

>  <fr_aniline>  (13) 
1

>  <fr_aryl_methyl>  (13) 
0

>  <fr_azide>  (13) 
0

>  <fr_azo>  (13) 
0

>  <fr_barbitur>  (13) 
0

>  <fr_benzene>  (13) 
1

>  <fr_benzodiazepine>  (13) 
0

>  <fr_bicyclic>  (13) 
0

>  <fr_diazo>  (13) 
0

>  <fr_dihydropyridine>  (13) 
0

>  <fr_epoxide>  (13) 
0

>  <fr_ester>  (13) 
0

>  <fr_ether>  (13) 
0

>  <fr_furan>  (13) 
0

>  <fr_guanido>  (13) 
0

>  <fr_halogen>  (13) 
0

>  <fr_hdrzine>  (13) 
0

>  <fr_hdrzone>  (13) 
0

>  <fr_imidazole>  (13) 
0

>  <fr_imide>  (13) 
0

>  <fr_isocyan>  (13) 
0

>  <fr_isothiocyan>  (13) 
0

>  <fr_ketone>  (13) 
0

>  <fr_ketone_Topliss>  (13) 
0

>  <fr_lactam>  (13) 
0

>  <fr_lactone>  (13) 
0

>  <fr_methoxy>  (13) 
0

>  <fr_morpholine>  (13) 
0

>  <fr_nitrile>  (13) 
0

>  <fr_nitro>  (13) 
0

>  <fr_nitro_arom>  (13) 
0

>  <fr_nitro_arom_nonortho>  (13) 
0

>  <fr_nitroso>  (13) 
0

>  <fr_oxazole>  (13) 
0

>  <fr_oxime>  (13) 
0

>  <fr_para_hydroxylation>  (13) 
0

>  <fr_phenol>  (13) 
0

>  <fr_phenol_noOrthoHbond>  (13) 
0

>  <fr_phos_acid>  (13) 
0

>  <fr_phos_ester>  (13) 
0

>  <fr_piperdine>  (13) 
0

>  <fr_piperzine>  (13) 
0

>  <fr_priamide>  (13) 
0

>  <fr_prisulfonamd>  (13) 
0

>  <fr_pyridine>  (13) 
1

>  <fr_quatN>  (13) 
0

>  <fr_sulfide>  (13) 
0

>  <fr_sulfonamd>  (13) 
0

>  <fr_sulfone>  (13) 
0

>  <fr_term_acetylene>  (13) 
0

>  <fr_tetrazole>  (13) 
0

>  <fr_thiazole>  (13) 
0

>  <fr_thiocyan>  (13) 
0

>  <fr_thiophene>  (13) 
0

>  <fr_unbrch_alkane>  (13) 
0

>  <fr_urea>  (13) 
0

>  <NP_Likeness>  (13) 
-1.22795

$$$$
CHEMBL855
     RDKit          3D

  0  0  0  0  0  0  0  0  0  0999 V3000
M  V30 BEGIN CTAB
M  V30 COUNTS 43 45 0 0 0
M  V30 BEGIN ATOM
M  V30 1 C -4.801891 -0.688102 3.177324 0
M  V30 2 C -3.362613 -0.567939 2.837673 0
M  V30 3 C -2.646370 -1.703456 2.521933 0
M  V30 4 C -1.319544 -1.578227 2.210445 0
M  V30 5 C -0.600993 -0.420065 2.173360 0
M  V30 6 C 0.744726 -0.167677 1.722607 0
M  V30 7 C 1.198189 -1.009235 0.824638 0
M  V30 8 C 0.901698 -2.185017 0.010988 0
M  V30 9 N 1.080130 -1.810726 -1.400434 0
M  V30 10 C 0.792657 -2.921529 -2.272458 0
M  V30 11 C 1.646510 -2.657015 -3.492943 0
M  V30 12 C 2.336887 -1.339977 -3.249679 0
M  V30 13 C 2.387660 -1.345375 -1.714367 0
M  V30 14 C 1.555557 0.921046 2.236976 0
M  V30 15 C 2.827363 1.205575 1.810925 0
M  V30 16 C 3.611989 2.205234 2.293936 0
M  V30 17 C 3.126984 3.029827 3.300813 0
M  V30 18 C 1.841594 2.709133 3.701390 0
M  V30 19 N 1.115693 1.710112 3.187437 0
M  V30 20 C -1.291641 0.708740 2.483171 0
M  V30 21 C -2.649126 0.636405 2.809682 0
M  V30 22 H -4.993060 -1.388784 4.018481 0
M  V30 23 H -5.425704 -0.928891 2.283793 0
M  V30 24 H -5.173143 0.314913 3.507314 0
M  V30 25 H -3.144836 -2.665176 2.526549 0
M  V30 26 H -0.820567 -2.513588 2.029576 0
M  V30 27 H 2.215548 -0.842960 0.514650 0
M  V30 28 H 1.444034 -3.083686 0.296066 0
M  V30 29 H -0.187713 -2.483922 0.012607 0
M  V30 30 H -0.300361 -2.863409 -2.532034 0
M  V30 31 H 1.014633 -3.908283 -1.818499 0
M  V30 32 H 2.458457 -3.425798 -3.502497 0
M  V30 33 H 1.093184 -2.676903 -4.442421 0
M  V30 34 H 1.651239 -0.495766 -3.540428 0
M  V30 35 H 3.330416 -1.270791 -3.701682 0
M  V30 36 H 2.528881 -0.289490 -1.398406 0
M  V30 37 H 3.212190 -2.004881 -1.384383 0
M  V30 38 H 3.305849 0.634214 1.034888 0
M  V30 39 H 4.623540 2.420207 1.944894 0
M  V30 40 H 3.642535 3.855516 3.770990 0
M  V30 41 H 1.366796 3.293995 4.485892 0
M  V30 42 H -1.045400 1.746826 2.537125 0
M  V30 43 H -3.317008 1.465545 3.072899 0
M  V30 END ATOM
M  V30 BEGIN BOND
M  V30 1 1 1 2
M  V30 2 2 2 3
M  V30 3 1 3 4
M  V30 4 2 4 5
M  V30 5 1 5 6
M  V30 6 2 6 7
M  V30 7 1 7 8
M  V30 8 1 8 9
M  V30 9 1 9 10
M  V30 10 1 10 11
M  V30 11 1 11 12
M  V30 12 1 12 13
M  V30 13 1 6 14
M  V30 14 2 14 15
M  V30 15 1 15 16
M  V30 16 2 16 17
M  V30 17 1 17 18
M  V30 18 2 18 19
M  V30 19 1 5 20
M  V30 20 2 20 21
M  V30 21 1 21 2
M  V30 22 1 13 9
M  V30 23 1 19 14
M  V30 24 1 1 22
M  V30 25 1 1 23
M  V30 26 1 1 24
M  V30 27 1 3 25
M  V30 28 1 4 26
M  V30 29 1 7 27
M  V30 30 1 8 28
M  V30 31 1 8 29
M  V30 32 1 10 30
M  V30 33 1 10 31
M  V30 34 1 11 32
M  V30 35 1 11 33
M  V30 36 1 12 34
M  V30 37 1 12 35
M  V30 38 1 13 36
M  V30 39 1 13 37
M  V30 40 1 15 38
M  V30 41 1 16 39
M  V30 42 1 17 40
M  V30 43 1 18 41
M  V30 44 1 20 42
M  V30 45 1 21 43
M  V30 END BOND
M  V30 END CTAB
M  END
>  <Dataset>  (14) 
OralDrugs

>  <Ligand_Instance>  (14) 
nan

>  <PDB_ID>  (14) 
nan

>  <Standardized_SMILES>  (14) 
Cc1ccc(/C(=C\CN2CCCC2)c2ccccn2)cc1

>  <Name>  (14) 
Triprolidine

>  <Pocket>  (14) 
nan

>  <ATP_Site>  (14) 
nan

>  <Peripheral>  (14) 
nan

>  <Num_H_Atoms_ProtBoundConf>  (14) 
nan

>  <Num_Resolved_Atoms>  (14) 
nan

>  <Num_Not_Resolved_Atoms>  (14) 
nan

>  <2D_Mol_H>  (14) 
<rdkit.Chem.rdchem.Mol object at 0x72a238b93060>

>  <MW>  (14) 
278.399

>  <HBA>  (14) 
2

>  <HBD>  (14) 
0

>  <LogP>  (14) 
3.91752

>  <NRB>  (14) 
5

>  <TPSA>  (14) 
16.13

>  <Num_Heavy_Atoms>  (14) 
21

>  <Ro5>  (14) 
[True, True, True, True, True, True]

>  <Ro5_Fulfilled>  (14) 
True

>  <Ro3>  (14) 
[True, True, True, False]

>  <Ro3_Fulfilled>  (14) 
True

>  <Fsp3>  (14) 
0.315789

>  <Fsp3_0.42>  (14) 
False

>  <Fsp3_0.45>  (14) 
False

>  <Stereogenic_Carbons>  (14) 
0

>  <C_Atoms>  (14) 
19

>  <FCStereo>  (14) 
0.0

>  <SPS>  (14) 
343

>  <nSPS>  (14) 
16.333333

>  <PBF>  (14) 
0.674878

>  <PBF_0.6>  (14) 
True

>  <nPBF>  (14) 
0.032137

>  <nPBF_0.016>  (14) 
True

>  <PMI1>  (14) 
1627.369395

>  <PMI2>  (14) 
2216.751309

>  <PMI3>  (14) 
3657.784967

>  <NPR1>  (14) 
0.444906

>  <NPR2>  (14) 
0.606037

>  <Sum_NPR>  (14) 
1.050942

>  <Sum_NPR_1.07>  (14) 
False

>  <Sum_NPR_1.2>  (14) 
False

>  <MaxAbsEStateIndex>  (14) 
4.536306

>  <MaxEStateIndex>  (14) 
4.536306

>  <MinAbsEStateIndex>  (14) 
1.013675

>  <MinEStateIndex>  (14) 
1.013675

>  <qed>  (14) 
0.842458

>  <MolWt>  (14) 
278.399

>  <HeavyAtomMolWt>  (14) 
256.223

>  <ExactMolWt>  (14) 
278.178299

>  <NumValenceElectrons>  (14) 
108

>  <NumRadicalElectrons>  (14) 
0

>  <MaxPartialCharge>  (14) 
0.070474

>  <MinPartialCharge>  (14) 
-0.299652

>  <MaxAbsPartialCharge>  (14) 
0.299652

>  <MinAbsPartialCharge>  (14) 
0.070474

>  <FpDensityMorgan1>  (14) 
1.095238

>  <FpDensityMorgan2>  (14) 
1.857143

>  <FpDensityMorgan3>  (14) 
2.52381

>  <BCUT2D_MWHI>  (14) 
15.127571

>  <BCUT2D_MWLOW>  (14) 
10.002129

>  <BCUT2D_CHGHI>  (14) 
2.113297

>  <BCUT2D_CHGLO>  (14) 
-2.137302

>  <BCUT2D_LOGPHI>  (14) 
2.222303

>  <BCUT2D_LOGPLOW>  (14) 
-2.187322

>  <BCUT2D_MRHI>  (14) 
5.775559

>  <BCUT2D_MRLOW>  (14) 
0.377376

>  <AvgIpc>  (14) 
3.036401

>  <BalabanJ>  (14) 
1.900005

>  <BertzCT>  (14) 
593.223297

>  <Chi0>  (14) 
14.493353

>  <Chi0n>  (14) 
12.626114

>  <Chi0v>  (14) 
12.626114

>  <Chi1>  (14) 
10.3265

>  <Chi1n>  (14) 
7.737455

>  <Chi1v>  (14) 
7.737455

>  <Chi2n>  (14) 
5.706518

>  <Chi2v>  (14) 
5.706518

>  <Chi3n>  (14) 
4.05571

>  <Chi3v>  (14) 
4.05571

>  <Chi4n>  (14) 
2.811088

>  <Chi4v>  (14) 
2.811088

>  <HallKierAlpha>  (14) 
-1.93

>  <Ipc>  (14) 
126994.44028

>  <Kappa1>  (14) 
14.026132

>  <Kappa2>  (14) 
6.682522

>  <Kappa3>  (14) 
3.586721

>  <LabuteASA>  (14) 
126.692082

>  <PEOE_VSA1>  (14) 
0.0

>  <PEOE_VSA10>  (14) 
0.0

>  <PEOE_VSA11>  (14) 
0.0

>  <PEOE_VSA12>  (14) 
0.0

>  <PEOE_VSA13>  (14) 
0.0

>  <PEOE_VSA14>  (14) 
0.0

>  <PEOE_VSA2>  (14) 
9.883888

>  <PEOE_VSA3>  (14) 
0.0

>  <PEOE_VSA4>  (14) 
0.0

>  <PEOE_VSA5>  (14) 
0.0

>  <PEOE_VSA6>  (14) 
41.971307

>  <PEOE_VSA7>  (14) 
50.551079

>  <PEOE_VSA8>  (14) 
18.314705

>  <PEOE_VSA9>  (14) 
5.693928

>  <SMR_VSA1>  (14) 
0.0

>  <SMR_VSA10>  (14) 
5.573105

>  <SMR_VSA2>  (14) 
0.0

>  <SMR_VSA3>  (14) 
9.883888

>  <SMR_VSA4>  (14) 
0.0

>  <SMR_VSA5>  (14) 
19.76538

>  <SMR_VSA6>  (14) 
19.634269

>  <SMR_VSA7>  (14) 
71.558264

>  <SMR_VSA8>  (14) 
0.0

>  <SMR_VSA9>  (14) 
0.0

>  <SlogP_VSA1>  (14) 
0.0

>  <SlogP_VSA10>  (14) 
0.0

>  <SlogP_VSA11>  (14) 
0.0

>  <SlogP_VSA12>  (14) 
0.0

>  <SlogP_VSA2>  (14) 
29.518157

>  <SlogP_VSA3>  (14) 
0.0

>  <SlogP_VSA4>  (14) 
6.923737

>  <SlogP_VSA5>  (14) 
29.662474

>  <SlogP_VSA6>  (14) 
54.737433

>  <SlogP_VSA7>  (14) 
0.0

>  <SlogP_VSA8>  (14) 
5.573105

>  <SlogP_VSA9>  (14) 
0.0

>  <EState_VSA1>  (14) 
0.0

>  <EState_VSA10>  (14) 
0.0

>  <EState_VSA11>  (14) 
0.0

>  <EState_VSA2>  (14) 
0.0

>  <EState_VSA3>  (14) 
0.0

>  <EState_VSA4>  (14) 
12.238684

>  <EState_VSA5>  (14) 
42.631164

>  <EState_VSA6>  (14) 
0.0

>  <EState_VSA7>  (14) 
12.263211

>  <EState_VSA8>  (14) 
59.281848

>  <EState_VSA9>  (14) 
0.0

>  <VSA_EState1>  (14) 
0.0

>  <VSA_EState10>  (14) 
0.0

>  <VSA_EState2>  (14) 
7.047347

>  <VSA_EState3>  (14) 
0.0

>  <VSA_EState4>  (14) 
4.833528

>  <VSA_EState5>  (14) 
0.0

>  <VSA_EState6>  (14) 
14.843465

>  <VSA_EState7>  (14) 
6.861232

>  <VSA_EState8>  (14) 
5.581094

>  <VSA_EState9>  (14) 
0.0

>  <FractionCSP3>  (14) 
0.315789

>  <HeavyAtomCount>  (14) 
21

>  <NHOHCount>  (14) 
0

>  <NOCount>  (14) 
2

>  <NumAliphaticCarbocycles>  (14) 
0

>  <NumAliphaticHeterocycles>  (14) 
1

>  <NumAliphaticRings>  (14) 
1

>  <NumAromaticCarbocycles>  (14) 
1

>  <NumAromaticHeterocycles>  (14) 
1

>  <NumAromaticRings>  (14) 
2

>  <NumHAcceptors>  (14) 
2

>  <NumHDonors>  (14) 
0

>  <NumHeteroatoms>  (14) 
2

>  <NumRotatableBonds>  (14) 
4

>  <NumSaturatedCarbocycles>  (14) 
0

>  <NumSaturatedHeterocycles>  (14) 
1

>  <NumSaturatedRings>  (14) 
1

>  <RingCount>  (14) 
3

>  <MolLogP>  (14) 
3.91752

>  <MolMR>  (14) 
88.169

>  <fr_Al_COO>  (14) 
0

>  <fr_Al_OH>  (14) 
0

>  <fr_Al_OH_noTert>  (14) 
0

>  <fr_ArN>  (14) 
0

>  <fr_Ar_COO>  (14) 
0

>  <fr_Ar_N>  (14) 
1

>  <fr_Ar_NH>  (14) 
0

>  <fr_Ar_OH>  (14) 
0

>  <fr_COO>  (14) 
0

>  <fr_COO2>  (14) 
0

>  <fr_C_O>  (14) 
0

>  <fr_C_O_noCOO>  (14) 
0

>  <fr_C_S>  (14) 
0

>  <fr_HOCCN>  (14) 
0

>  <fr_Imine>  (14) 
0

>  <fr_NH0>  (14) 
2

>  <fr_NH1>  (14) 
0

>  <fr_NH2>  (14) 
0

>  <fr_N_O>  (14) 
0

>  <fr_Ndealkylation1>  (14) 
0

>  <fr_Ndealkylation2>  (14) 
1

>  <fr_Nhpyrrole>  (14) 
0

>  <fr_SH>  (14) 
0

>  <fr_aldehyde>  (14) 
0

>  <fr_alkyl_carbamate>  (14) 
0

>  <fr_alkyl_halide>  (14) 
0

>  <fr_allylic_oxid>  (14) 
0

>  <fr_amide>  (14) 
0

>  <fr_amidine>  (14) 
0

>  <fr_aniline>  (14) 
0

>  <fr_aryl_methyl>  (14) 
1

>  <fr_azide>  (14) 
0

>  <fr_azo>  (14) 
0

>  <fr_barbitur>  (14) 
0

>  <fr_benzene>  (14) 
1

>  <fr_benzodiazepine>  (14) 
0

>  <fr_bicyclic>  (14) 
0

>  <fr_diazo>  (14) 
0

>  <fr_dihydropyridine>  (14) 
0

>  <fr_epoxide>  (14) 
0

>  <fr_ester>  (14) 
0

>  <fr_ether>  (14) 
0

>  <fr_furan>  (14) 
0

>  <fr_guanido>  (14) 
0

>  <fr_halogen>  (14) 
0

>  <fr_hdrzine>  (14) 
0

>  <fr_hdrzone>  (14) 
0

>  <fr_imidazole>  (14) 
0

>  <fr_imide>  (14) 
0

>  <fr_isocyan>  (14) 
0

>  <fr_isothiocyan>  (14) 
0

>  <fr_ketone>  (14) 
0

>  <fr_ketone_Topliss>  (14) 
0

>  <fr_lactam>  (14) 
0

>  <fr_lactone>  (14) 
0

>  <fr_methoxy>  (14) 
0

>  <fr_morpholine>  (14) 
0

>  <fr_nitrile>  (14) 
0

>  <fr_nitro>  (14) 
0

>  <fr_nitro_arom>  (14) 
0

>  <fr_nitro_arom_nonortho>  (14) 
0

>  <fr_nitroso>  (14) 
0

>  <fr_oxazole>  (14) 
0

>  <fr_oxime>  (14) 
0

>  <fr_para_hydroxylation>  (14) 
0

>  <fr_phenol>  (14) 
0

>  <fr_phenol_noOrthoHbond>  (14) 
0

>  <fr_phos_acid>  (14) 
0

>  <fr_phos_ester>  (14) 
0

>  <fr_piperdine>  (14) 
0

>  <fr_piperzine>  (14) 
0

>  <fr_priamide>  (14) 
0

>  <fr_prisulfonamd>  (14) 
0

>  <fr_pyridine>  (14) 
1

>  <fr_quatN>  (14) 
0

>  <fr_sulfide>  (14) 
0

>  <fr_sulfonamd>  (14) 
0

>  <fr_sulfone>  (14) 
0

>  <fr_term_acetylene>  (14) 
0

>  <fr_tetrazole>  (14) 
0

>  <fr_thiazole>  (14) 
0

>  <fr_thiocyan>  (14) 
0

>  <fr_thiophene>  (14) 
0

>  <fr_unbrch_alkane>  (14) 
0

>  <fr_urea>  (14) 
0

>  <NP_Likeness>  (14) 
-0.816266

$$$$
CHEMBL197084
     RDKit          3D

  0  0  0  0  0  0  0  0  0  0999 V3000
M  V30 BEGIN CTAB
M  V30 COUNTS 43 43 0 0 0
M  V30 BEGIN ATOM
M  V30 1 C -0.213599 0.947866 2.146007 0
M  V30 2 C 0.602248 -0.308303 2.326228 0 CFG=1
M  V30 3 C 0.586081 -1.054298 1.032430 0
M  V30 4 O 0.258131 -2.230142 0.688598 0
M  V30 5 N 1.028774 -0.336487 -0.116529 0
M  V30 6 C 1.086154 -0.878375 -1.443457 0 CFG=1
M  V30 7 C 0.203015 -0.029800 -2.334544 0
M  V30 8 C 0.206937 -0.537399 -3.763744 0
M  V30 9 C -0.686815 0.362337 -4.548682 0
M  V30 10 O -0.890409 0.194788 -5.786071 0
M  V30 11 O -1.475512 1.484431 -4.308989 0
M  V30 12 C 2.477745 -0.830038 -2.003016 0
M  V30 13 O 2.930334 -0.293375 -0.935816 0
M  V30 14 O 3.776148 -0.786719 -2.529373 0
M  V30 15 C 2.010640 0.006330 2.777882 0
M  V30 16 C 2.500688 -1.346657 3.179877 0
M  V30 17 C 1.209560 -2.115119 3.492445 0
M  V30 18 N 0.134969 -1.143861 3.416664 0
M  V30 19 C -0.947829 -1.270657 4.327697 0
M  V30 20 O -0.689428 -2.283518 5.044166 0
M  V30 21 C -2.170026 -0.439921 4.484179 0
M  V30 22 N -2.946018 -1.021300 5.578812 0
M  V30 23 H -0.114223 1.329902 1.109066 0
M  V30 24 H -1.300430 0.795850 2.301277 0
M  V30 25 H 0.181278 1.778093 2.793736 0
M  V30 26 H 1.359176 0.654822 -0.128056 0
M  V30 27 H 0.760821 -1.915766 -1.542981 0
M  V30 28 H -0.848300 -0.079696 -1.983725 0
M  V30 29 H 0.572134 1.028418 -2.393055 0
M  V30 30 H 1.213487 -0.588832 -4.198150 0
M  V30 31 H -0.246797 -1.556387 -3.839156 0
M  V30 32 H -1.188136 2.392276 -4.651317 0
M  V30 33 H 4.280716 -1.668649 -2.529774 0
M  V30 34 H 2.619952 0.499706 2.005411 0
M  V30 35 H 1.916515 0.633623 3.671904 0
M  V30 36 H 3.051793 -1.899356 2.402810 0
M  V30 37 H 3.160774 -1.309502 4.081749 0
M  V30 38 H 1.342850 -2.587014 4.463353 0
M  V30 39 H 1.076962 -2.949965 2.755936 0
M  V30 40 H -2.826683 -0.522830 3.593957 0
M  V30 41 H -1.925566 0.602692 4.764440 0
M  V30 42 H -3.775388 -1.557442 5.248826 0
M  V30 43 H -2.327759 -1.549109 6.237775 0
M  V30 END ATOM
M  V30 BEGIN BOND
M  V30 1 1 2 1 CFG=3
M  V30 2 1 2 3
M  V30 3 2 3 4
M  V30 4 1 3 5
M  V30 5 1 5 6
M  V30 6 1 6 7
M  V30 7 1 7 8
M  V30 8 1 8 9
M  V30 9 2 9 10
M  V30 10 1 9 11
M  V30 11 1 6 12
M  V30 12 2 12 13
M  V30 13 1 12 14
M  V30 14 1 2 15
M  V30 15 1 15 16
M  V30 16 1 16 17
M  V30 17 1 17 18
M  V30 18 1 18 19
M  V30 19 2 19 20
M  V30 20 1 19 21
M  V30 21 1 21 22
M  V30 22 1 18 2
M  V30 23 1 1 23
M  V30 24 1 1 24
M  V30 25 1 1 25
M  V30 26 1 5 26
M  V30 27 1 6 27 CFG=1
M  V30 28 1 7 28
M  V30 29 1 7 29
M  V30 30 1 8 30
M  V30 31 1 8 31
M  V30 32 1 11 32
M  V30 33 1 14 33
M  V30 34 1 15 34
M  V30 35 1 15 35
M  V30 36 1 16 36
M  V30 37 1 16 37
M  V30 38 1 17 38
M  V30 39 1 17 39
M  V30 40 1 21 40
M  V30 41 1 21 41
M  V30 42 1 22 42
M  V30 43 1 22 43
M  V30 END BOND
M  V30 END CTAB
M  END
>  <Dataset>  (15) 
OralDrugs

>  <Ligand_Instance>  (15) 
nan

>  <PDB_ID>  (15) 
nan

>  <Standardized_SMILES>  (15) 
C[C@@]1(C(=O)N[C@@H](CCC(=O)O)C(=O)O)CCCN1C(=O)CN

>  <Name>  (15) 
Trofinetide

>  <Pocket>  (15) 
nan

>  <ATP_Site>  (15) 
nan

>  <Peripheral>  (15) 
nan

>  <Num_H_Atoms_ProtBoundConf>  (15) 
nan

>  <Num_Resolved_Atoms>  (15) 
nan

>  <Num_Not_Resolved_Atoms>  (15) 
nan

>  <2D_Mol_H>  (15) 
<rdkit.Chem.rdchem.Mol object at 0x72a238b93140>

>  <MW>  (15) 
315.326

>  <HBA>  (15) 
7

>  <HBD>  (15) 
4

>  <LogP>  (15) 
-1.2396

>  <NRB>  (15) 
9

>  <TPSA>  (15) 
150.03

>  <Num_Heavy_Atoms>  (15) 
22

>  <Ro5>  (15) 
[True, True, True, True, True, False]

>  <Ro5_Fulfilled>  (15) 
True

>  <Ro3>  (15) 
[False, False, False, True]

>  <Ro3_Fulfilled>  (15) 
False

>  <Fsp3>  (15) 
0.692308

>  <Fsp3_0.42>  (15) 
True

>  <Fsp3_0.45>  (15) 
True

>  <Stereogenic_Carbons>  (15) 
2

>  <C_Atoms>  (15) 
13

>  <FCStereo>  (15) 
0.153846

>  <SPS>  (15) 
488

>  <nSPS>  (15) 
22.181818

>  <PBF>  (15) 
0.890672

>  <PBF_0.6>  (15) 
True

>  <nPBF>  (15) 
0.040485

>  <nPBF_0.016>  (15) 
True

>  <PMI1>  (15) 
1095.812663

>  <PMI2>  (15) 
4006.951454

>  <PMI3>  (15) 
4707.293533

>  <NPR1>  (15) 
0.23279

>  <NPR2>  (15) 
0.851222

>  <Sum_NPR>  (15) 
1.084012

>  <Sum_NPR_1.07>  (15) 
True

>  <Sum_NPR_1.2>  (15) 
False

>  <MaxAbsEStateIndex>  (15) 
12.400832

>  <MaxEStateIndex>  (15) 
12.400832

>  <MinAbsEStateIndex>  (15) 
0.224879

>  <MinEStateIndex>  (15) 
-1.312131

>  <qed>  (15) 
0.458586

>  <MolWt>  (15) 
315.326

>  <HeavyAtomMolWt>  (15) 
294.158

>  <ExactMolWt>  (15) 
315.143035

>  <NumValenceElectrons>  (15) 
124

>  <NumRadicalElectrons>  (15) 
0

>  <MaxPartialCharge>  (15) 
0.325713

>  <MinPartialCharge>  (15) 
-0.481229

>  <MaxAbsPartialCharge>  (15) 
0.481229

>  <MinAbsPartialCharge>  (15) 
0.325713

>  <FpDensityMorgan1>  (15) 
1.318182

>  <FpDensityMorgan2>  (15) 
1.954545

>  <FpDensityMorgan3>  (15) 
2.454545

>  <BCUT2D_MWHI>  (15) 
16.371476

>  <BCUT2D_MWLOW>  (15) 
9.961721

>  <BCUT2D_CHGHI>  (15) 
2.456562

>  <BCUT2D_CHGLO>  (15) 
-2.341465

>  <BCUT2D_LOGPHI>  (15) 
2.289819

>  <BCUT2D_LOGPLOW>  (15) 
-2.587326

>  <BCUT2D_MRHI>  (15) 
5.939827

>  <BCUT2D_MRLOW>  (15) 
-0.147062

>  <AvgIpc>  (15) 
2.845988

>  <BalabanJ>  (15) 
2.811358

>  <BertzCT>  (15) 
480.395886

>  <Chi0>  (15) 
16.913849

>  <Chi0n>  (15) 
12.371975

>  <Chi0v>  (15) 
12.371975

>  <Chi1>  (15) 
10.218268

>  <Chi1n>  (15) 
6.981659

>  <Chi1v>  (15) 
6.981659

>  <Chi2n>  (15) 
5.423607

>  <Chi2v>  (15) 
5.423607

>  <Chi3n>  (15) 
3.856175

>  <Chi3v>  (15) 
3.856175

>  <Chi4n>  (15) 
2.548256

>  <Chi4v>  (15) 
2.548256

>  <HallKierAlpha>  (15) 
-2.16

>  <Ipc>  (15) 
54253.070169

>  <Kappa1>  (15) 
17.890403

>  <Kappa2>  (15) 
7.209084

>  <Kappa3>  (15) 
3.93861

>  <LabuteASA>  (15) 
126.996868

>  <PEOE_VSA1>  (15) 
26.163421

>  <PEOE_VSA10>  (15) 
11.580766

>  <PEOE_VSA11>  (15) 
0.0

>  <PEOE_VSA12>  (15) 
11.814359

>  <PEOE_VSA13>  (15) 
0.0

>  <PEOE_VSA14>  (15) 
11.938611

>  <PEOE_VSA2>  (15) 
14.383612

>  <PEOE_VSA3>  (15) 
4.794537

>  <PEOE_VSA4>  (15) 
0.0

>  <PEOE_VSA5>  (15) 
0.0

>  <PEOE_VSA6>  (15) 
0.0

>  <PEOE_VSA7>  (15) 
26.186202

>  <PEOE_VSA8>  (15) 
12.965578

>  <PEOE_VSA9>  (15) 
6.544756

>  <SMR_VSA1>  (15) 
29.391204

>  <SMR_VSA10>  (15) 
23.75297

>  <SMR_VSA2>  (15) 
0.0

>  <SMR_VSA3>  (15) 
10.216698

>  <SMR_VSA4>  (15) 
5.733667

>  <SMR_VSA5>  (15) 
44.18779

>  <SMR_VSA6>  (15) 
13.089513

>  <SMR_VSA7>  (15) 
0.0

>  <SMR_VSA8>  (15) 
0.0

>  <SMR_VSA9>  (15) 
0.0

>  <SlogP_VSA1>  (15) 
11.050456

>  <SlogP_VSA10>  (15) 
0.0

>  <SlogP_VSA11>  (15) 
0.0

>  <SlogP_VSA12>  (15) 
0.0

>  <SlogP_VSA2>  (15) 
63.536213

>  <SlogP_VSA3>  (15) 
19.178149

>  <SlogP_VSA4>  (15) 
0.0

>  <SlogP_VSA5>  (15) 
32.607024

>  <SlogP_VSA6>  (15) 
0.0

>  <SlogP_VSA7>  (15) 
0.0

>  <SlogP_VSA8>  (15) 
0.0

>  <SlogP_VSA9>  (15) 
0.0

>  <EState_VSA1>  (15) 
29.426556

>  <EState_VSA10>  (15) 
19.178149

>  <EState_VSA11>  (15) 
0.0

>  <EState_VSA2>  (15) 
25.293579

>  <EState_VSA3>  (15) 
19.3864

>  <EState_VSA4>  (15) 
0.0

>  <EState_VSA5>  (15) 
4.89991

>  <EState_VSA6>  (15) 
6.923737

>  <EState_VSA7>  (15) 
0.0

>  <EState_VSA8>  (15) 
5.316789

>  <EState_VSA9>  (15) 
15.946722

>  <VSA_EState1>  (15) 
0.0

>  <VSA_EState10>  (15) 
0.0

>  <VSA_EState2>  (15) 
47.211543

>  <VSA_EState3>  (15) 
20.016372

>  <VSA_EState4>  (15) 
4.161957

>  <VSA_EState5>  (15) 
-3.446703

>  <VSA_EState6>  (15) 
-1.309395

>  <VSA_EState7>  (15) 
0.4118

>  <VSA_EState8>  (15) 
1.704425

>  <VSA_EState9>  (15) 
0.0

>  <FractionCSP3>  (15) 
0.692308

>  <HeavyAtomCount>  (15) 
22

>  <NHOHCount>  (15) 
5

>  <NOCount>  (15) 
9

>  <NumAliphaticCarbocycles>  (15) 
0

>  <NumAliphaticHeterocycles>  (15) 
1

>  <NumAliphaticRings>  (15) 
1

>  <NumAromaticCarbocycles>  (15) 
0

>  <NumAromaticHeterocycles>  (15) 
0

>  <NumAromaticRings>  (15) 
0

>  <NumHAcceptors>  (15) 
5

>  <NumHDonors>  (15) 
4

>  <NumHeteroatoms>  (15) 
9

>  <NumRotatableBonds>  (15) 
7

>  <NumSaturatedCarbocycles>  (15) 
0

>  <NumSaturatedHeterocycles>  (15) 
1

>  <NumSaturatedRings>  (15) 
1

>  <RingCount>  (15) 
1

>  <MolLogP>  (15) 
-1.2396

>  <MolMR>  (15) 
74.8427

>  <fr_Al_COO>  (15) 
2

>  <fr_Al_OH>  (15) 
0

>  <fr_Al_OH_noTert>  (15) 
0

>  <fr_ArN>  (15) 
0

>  <fr_Ar_COO>  (15) 
0

>  <fr_Ar_N>  (15) 
0

>  <fr_Ar_NH>  (15) 
0

>  <fr_Ar_OH>  (15) 
0

>  <fr_COO>  (15) 
2

>  <fr_COO2>  (15) 
2

>  <fr_C_O>  (15) 
4

>  <fr_C_O_noCOO>  (15) 
2

>  <fr_C_S>  (15) 
0

>  <fr_HOCCN>  (15) 
0

>  <fr_Imine>  (15) 
0

>  <fr_NH0>  (15) 
1

>  <fr_NH1>  (15) 
1

>  <fr_NH2>  (15) 
1

>  <fr_N_O>  (15) 
0

>  <fr_Ndealkylation1>  (15) 
0

>  <fr_Ndealkylation2>  (15) 
1

>  <fr_Nhpyrrole>  (15) 
0

>  <fr_SH>  (15) 
0

>  <fr_aldehyde>  (15) 
0

>  <fr_alkyl_carbamate>  (15) 
0

>  <fr_alkyl_halide>  (15) 
0

>  <fr_allylic_oxid>  (15) 
0

>  <fr_amide>  (15) 
2

>  <fr_amidine>  (15) 
0

>  <fr_aniline>  (15) 
0

>  <fr_aryl_methyl>  (15) 
0

>  <fr_azide>  (15) 
0

>  <fr_azo>  (15) 
0

>  <fr_barbitur>  (15) 
0

>  <fr_benzene>  (15) 
0

>  <fr_benzodiazepine>  (15) 
0

>  <fr_bicyclic>  (15) 
0

>  <fr_diazo>  (15) 
0

>  <fr_dihydropyridine>  (15) 
0

>  <fr_epoxide>  (15) 
0

>  <fr_ester>  (15) 
0

>  <fr_ether>  (15) 
0

>  <fr_furan>  (15) 
0

>  <fr_guanido>  (15) 
0

>  <fr_halogen>  (15) 
0

>  <fr_hdrzine>  (15) 
0

>  <fr_hdrzone>  (15) 
0

>  <fr_imidazole>  (15) 
0

>  <fr_imide>  (15) 
0

>  <fr_isocyan>  (15) 
0

>  <fr_isothiocyan>  (15) 
0

>  <fr_ketone>  (15) 
0

>  <fr_ketone_Topliss>  (15) 
0

>  <fr_lactam>  (15) 
0

>  <fr_lactone>  (15) 
0

>  <fr_methoxy>  (15) 
0

>  <fr_morpholine>  (15) 
0

>  <fr_nitrile>  (15) 
0

>  <fr_nitro>  (15) 
0

>  <fr_nitro_arom>  (15) 
0

>  <fr_nitro_arom_nonortho>  (15) 
0

>  <fr_nitroso>  (15) 
0

>  <fr_oxazole>  (15) 
0

>  <fr_oxime>  (15) 
0

>  <fr_para_hydroxylation>  (15) 
0

>  <fr_phenol>  (15) 
0

>  <fr_phenol_noOrthoHbond>  (15) 
0

>  <fr_phos_acid>  (15) 
0

>  <fr_phos_ester>  (15) 
0

>  <fr_piperdine>  (15) 
0

>  <fr_piperzine>  (15) 
0

>  <fr_priamide>  (15) 
0

>  <fr_prisulfonamd>  (15) 
0

>  <fr_pyridine>  (15) 
0

>  <fr_quatN>  (15) 
0

>  <fr_sulfide>  (15) 
0

>  <fr_sulfonamd>  (15) 
0

>  <fr_sulfone>  (15) 
0

>  <fr_term_acetylene>  (15) 
0

>  <fr_tetrazole>  (15) 
0

>  <fr_thiazole>  (15) 
0

>  <fr_thiocyan>  (15) 
0

>  <fr_thiophene>  (15) 
0

>  <fr_unbrch_alkane>  (15) 
0

>  <fr_urea>  (15) 
0

>  <NP_Likeness>  (15) 
0.26253

$$$$
CHEMBL564085
     RDKit          3D

  0  0  0  0  0  0  0  0  0  0999 V3000
M  V30 BEGIN CTAB
M  V30 COUNTS 124 127 0 0 0
M  V30 BEGIN ATOM
M  V30 1 C -1.471341 -5.148317 -5.273912 0
M  V30 2 O -2.178535 -4.473692 -4.283937 0
M  V30 3 C -1.222916 -3.824825 -3.461731 0 CFG=1
M  V30 4 C -1.499400 -2.369861 -3.435343 0
M  V30 5 C -1.339785 -1.735744 -2.063149 0 CFG=2
M  V30 6 O -0.142313 -1.810922 -1.465508 0
M  V30 7 C 0.674484 -0.794884 -1.251064 0 CFG=1
M  V30 8 C 1.138090 -0.385647 0.121608 0 CFG=2
M  V30 9 C 1.794684 -1.680354 0.692498 0
M  V30 10 C 0.239179 0.219148 1.089695 0 CFG=1
M  V30 11 O -0.489112 -0.591229 1.867531 0
M  V30 12 C -1.799920 -0.358012 2.039634 0 CFG=2
M  V30 13 O -1.802368 0.401075 3.302332 0
M  V30 14 C -1.447514 -0.382047 4.355868 0 CFG=2
M  V30 15 C -0.268799 0.117518 5.163546 0
M  V30 16 C -1.273833 -1.843382 4.082784 0
M  V30 17 C -2.542691 -2.336916 3.427174 0 CFG=2
M  V30 18 N -2.393302 -3.728986 3.164096 0
M  V30 19 C -3.573392 -4.337106 2.595713 0
M  V30 20 C -1.941250 -4.396716 4.359731 0
M  V30 21 C -2.750215 -1.477919 2.183869 0 CFG=1
M  V30 22 O -4.084116 -0.938488 2.210180 0
M  V30 23 C -5.062079 -1.235851 1.300469 0
M  V30 24 C -6.335659 -0.526763 1.596041 0
M  V30 25 O -5.042220 -1.979041 0.307748 0
M  V30 26 C 0.910057 1.367961 1.899181 0 CFG=1
M  V30 27 C 2.145988 0.934437 2.576214 0
M  V30 28 C 1.013628 2.521219 0.952785 0
M  V30 29 C 1.555282 3.797267 1.422834 0 CFG=2
M  V30 30 C 1.482421 4.172310 2.840581 0
M  V30 31 O 0.589226 4.724806 1.964774 0
M  V30 32 C 2.537677 4.479401 0.493892 0
M  V30 33 O 3.387857 5.107617 1.159482 0
M  V30 34 C 2.744197 4.595825 -0.957038 0 CFG=2
M  V30 35 C 1.406563 5.025049 -1.552795 0
M  V30 36 C 3.235522 3.428814 -1.716468 0 CFG=1
M  V30 37 O 3.306162 3.922146 -3.098022 0
M  V30 38 C 2.471989 3.444776 -4.085555 0
M  V30 39 C 2.670348 4.041028 -5.456253 0
M  V30 40 O 1.560472 2.580386 -4.027363 0
M  V30 41 C 4.610351 2.972479 -1.425436 0 CFG=1
M  V30 42 C 4.869400 2.676730 0.031410 0
M  V30 43 C 4.848246 1.625625 -2.150150 0 CFG=1
M  V30 44 C 6.323759 1.235378 -1.943750 0
M  V30 45 O 3.996383 0.730093 -1.636984 0
M  V30 46 C 3.038248 -0.137560 -1.833411 0
M  V30 47 O 3.368443 0.372023 -2.925593 0
M  V30 48 C 1.962852 -1.109692 -2.063169 0 CFG=2
M  V30 49 C 1.637470 -1.362991 -3.505964 0
M  V30 50 O -2.290787 -2.300283 -1.244483 0
M  V30 51 C -2.300671 -3.675458 -1.233930 0 CFG=1
M  V30 52 C -3.697114 -4.150642 -1.614354 0
M  V30 53 C -1.258642 -4.360387 -2.062547 0 CFG=2
M  V30 54 O -0.027548 -4.450640 -1.417119 0
M  V30 55 C 0.513974 -5.695493 -1.034566 0
M  V30 56 C 1.830405 -5.597373 -0.361340 0
M  V30 57 O -0.049265 -6.805714 -1.234826 0
M  V30 58 H -0.767189 -5.909299 -4.883370 0
M  V30 59 H -2.163166 -5.664737 -5.973570 0
M  V30 60 H -0.842287 -4.408250 -5.845408 0
M  V30 61 H -0.260535 -4.121348 -3.922221 0
M  V30 62 H -1.032198 -1.850391 -4.240620 0
M  V30 63 H -2.617336 -2.264961 -3.631084 0
M  V30 64 H -1.616195 -0.680529 -2.241437 0
M  V30 65 H 0.318498 0.189729 -1.690605 0
M  V30 66 H 2.097604 0.261331 -0.022455 0
M  V30 67 H 1.379911 -1.802723 1.726145 0
M  V30 68 H 2.871762 -1.518062 0.833134 0
M  V30 69 H 1.537177 -2.559657 0.107975 0
M  V30 70 H -0.538237 0.886745 0.527267 0
M  V30 71 H -2.255212 0.452010 1.404426 0
M  V30 72 H -2.323133 -0.329468 5.076100 0
M  V30 73 H 0.579123 -0.588194 5.039200 0
M  V30 74 H -0.471319 0.105198 6.271885 0
M  V30 75 H -0.005897 1.164496 4.940396 0
M  V30 76 H -0.350117 -2.131632 3.567037 0
M  V30 77 H -1.217279 -2.347415 5.091242 0
M  V30 78 H -3.353488 -2.140797 4.169459 0
M  V30 79 H -3.462800 -5.439136 2.571504 0
M  V30 80 H -3.725188 -4.014913 1.556494 0
M  V30 81 H -4.485737 -4.149996 3.199617 0
M  V30 82 H -0.862176 -4.304935 4.549853 0
M  V30 83 H -2.190413 -5.486332 4.350192 0
M  V30 84 H -2.486069 -3.949631 5.243474 0
M  V30 85 H -2.713867 -2.167670 1.333898 0
M  V30 86 H -6.096806 0.566266 1.721452 0
M  V30 87 H -7.026840 -0.558532 0.732198 0
M  V30 88 H -6.853903 -0.915649 2.479466 0
M  V30 89 H 0.089931 1.661487 2.607417 0
M  V30 90 H 2.903364 0.659580 1.783711 0
M  V30 91 H 2.640176 1.751281 3.135262 0
M  V30 92 H 2.017256 0.048578 3.233051 0
M  V30 93 H 1.437778 2.111024 0.032682 0
M  V30 94 H -0.073160 2.733133 0.648962 0
M  V30 95 H 2.333585 4.841096 3.175184 0
M  V30 96 H 1.174447 3.501766 3.635072 0
M  V30 97 H 3.420681 5.454090 -1.213970 0
M  V30 98 H 0.780809 5.566858 -0.787577 0
M  V30 99 H 1.510027 5.671717 -2.434448 0
M  V30 100 H 0.809936 4.110106 -1.786482 0
M  V30 101 H 2.463435 2.673149 -1.829093 0
M  V30 102 H 3.779785 4.181547 -5.584799 0
M  V30 103 H 2.403385 3.284951 -6.218426 0
M  V30 104 H 2.110879 4.984535 -5.574663 0
M  V30 105 H 5.413992 3.636086 -1.786993 0
M  V30 106 H 5.477592 3.511967 0.447186 0
M  V30 107 H 5.549829 1.806291 0.091033 0
M  V30 108 H 3.978892 2.439749 0.610341 0
M  V30 109 H 4.746217 1.791020 -3.228583 0
M  V30 110 H 6.850608 2.189320 -1.748487 0
M  V30 111 H 6.688335 0.878846 -2.925168 0
M  V30 112 H 6.428658 0.482126 -1.148264 0
M  V30 113 H 2.377203 -2.094191 -1.681242 0
M  V30 114 H 1.355337 -2.390779 -3.734894 0
M  V30 115 H 0.935767 -0.588163 -3.852190 0
M  V30 116 H 2.617778 -1.217592 -4.065636 0
M  V30 117 H -2.127845 -4.008877 -0.192390 0
M  V30 118 H -3.641290 -5.101891 -2.223004 0
M  V30 119 H -4.254466 -3.448683 -2.233297 0
M  V30 120 H -4.302837 -4.401840 -0.736295 0
M  V30 121 H -1.621668 -5.429594 -2.168984 0
M  V30 122 H 2.307581 -6.610778 -0.422540 0
M  V30 123 H 1.765936 -5.325198 0.691998 0
M  V30 124 H 2.530563 -4.935159 -0.946441 0
M  V30 END ATOM
M  V30 BEGIN BOND
M  V30 1 1 1 2
M  V30 2 1 2 3
M  V30 3 1 3 4
M  V30 4 1 4 5
M  V30 5 1 5 6
M  V30 6 1 6 7
M  V30 7 1 7 8
M  V30 8 1 8 9
M  V30 9 1 8 10
M  V30 10 1 10 11
M  V30 11 1 11 12
M  V30 12 1 12 13
M  V30 13 1 13 14
M  V30 14 1 14 15
M  V30 15 1 14 16
M  V30 16 1 16 17
M  V30 17 1 17 18
M  V30 18 1 18 19
M  V30 19 1 18 20
M  V30 20 1 17 21
M  V30 21 1 21 22
M  V30 22 1 22 23
M  V30 23 1 23 24
M  V30 24 2 23 25
M  V30 25 1 10 26
M  V30 26 1 26 27
M  V30 27 1 26 28
M  V30 28 1 28 29
M  V30 29 1 29 30
M  V30 30 1 30 31
M  V30 31 1 29 32
M  V30 32 2 32 33
M  V30 33 1 32 34
M  V30 34 1 34 35
M  V30 35 1 34 36
M  V30 36 1 36 37
M  V30 37 1 37 38
M  V30 38 1 38 39
M  V30 39 2 38 40
M  V30 40 1 36 41
M  V30 41 1 41 42
M  V30 42 1 41 43
M  V30 43 1 43 44
M  V30 44 1 43 45
M  V30 45 1 45 46
M  V30 46 2 46 47
M  V30 47 1 46 48
M  V30 48 1 48 49
M  V30 49 1 5 50
M  V30 50 1 50 51
M  V30 51 1 51 52
M  V30 52 1 51 53
M  V30 53 1 53 54
M  V30 54 1 54 55
M  V30 55 1 55 56
M  V30 56 2 55 57
M  V30 57 1 53 3
M  V30 58 1 48 7
M  V30 59 1 21 12
M  V30 60 1 29 31 CFG=3
M  V30 61 1 1 58
M  V30 62 1 1 59
M  V30 63 1 1 60
M  V30 64 1 3 61 CFG=3
M  V30 65 1 4 62
M  V30 66 1 4 63
M  V30 67 1 5 64 CFG=3
M  V30 68 1 7 65 CFG=3
M  V30 69 1 8 66 CFG=3
M  V30 70 1 9 67
M  V30 71 1 9 68
M  V30 72 1 9 69
M  V30 73 1 10 70 CFG=3
M  V30 74 1 12 71 CFG=3
M  V30 75 1 14 72 CFG=1
M  V30 76 1 15 73
M  V30 77 1 15 74
M  V30 78 1 15 75
M  V30 79 1 16 76
M  V30 80 1 16 77
M  V30 81 1 17 78 CFG=1
M  V30 82 1 19 79
M  V30 83 1 19 80
M  V30 84 1 19 81
M  V30 85 1 20 82
M  V30 86 1 20 83
M  V30 87 1 20 84
M  V30 88 1 21 85 CFG=3
M  V30 89 1 24 86
M  V30 90 1 24 87
M  V30 91 1 24 88
M  V30 92 1 26 89 CFG=1
M  V30 93 1 27 90
M  V30 94 1 27 91
M  V30 95 1 27 92
M  V30 96 1 28 93
M  V30 97 1 28 94
M  V30 98 1 30 95
M  V30 99 1 30 96
M  V30 100 1 34 97 CFG=1
M  V30 101 1 35 98
M  V30 102 1 35 99
M  V30 103 1 35 100
M  V30 104 1 36 101 CFG=3
M  V30 105 1 39 102
M  V30 106 1 39 103
M  V30 107 1 39 104
M  V30 108 1 41 105 CFG=3
M  V30 109 1 42 106
M  V30 110 1 42 107
M  V30 111 1 42 108
M  V30 112 1 43 109 CFG=3
M  V30 113 1 44 110
M  V30 114 1 44 111
M  V30 115 1 44 112
M  V30 116 1 48 113 CFG=1
M  V30 117 1 49 114
M  V30 118 1 49 115
M  V30 119 1 49 116
M  V30 120 1 51 117 CFG=1
M  V30 121 1 52 118
M  V30 122 1 52 119
M  V30 123 1 52 120
M  V30 124 1 53 121 CFG=3
M  V30 125 1 56 122
M  V30 126 1 56 123
M  V30 127 1 56 124
M  V30 END BOND
M  V30 END CTAB
M  END
>  <Dataset>  (16) 
OralDrugs

>  <Ligand_Instance>  (16) 
nan

>  <PDB_ID>  (16) 
nan

>  <Standardized_SMILES>  (16) 
CO[C@H]1C[C@H](O[C@H]2[C@H](C)[C@@H](O[C@@H]3O[C@H](C)C[C@H](N(C)C)[C@H]3OC(C)=O)[C@@H](C)C[C@@]3(CO3)C(=O)[C@H](C)[C@@H](OC(C)=O)[C@@H](C)[C@@H](C)OC(=O)[C@@H]2C)O[C@@H](C)[C@@H]1OC(C)=O

>  <Name>  (16) 
Troleandomycin

>  <Pocket>  (16) 
nan

>  <ATP_Site>  (16) 
nan

>  <Peripheral>  (16) 
nan

>  <Num_H_Atoms_ProtBoundConf>  (16) 
nan

>  <Num_Resolved_Atoms>  (16) 
nan

>  <Num_Not_Resolved_Atoms>  (16) 
nan

>  <2D_Mol_H>  (16) 
<rdkit.Chem.rdchem.Mol object at 0x72a238b93220>

>  <MW>  (16) 
813.979

>  <HBA>  (16) 
16

>  <HBD>  (16) 
0

>  <LogP>  (16) 
3.6209

>  <NRB>  (16) 
23

>  <TPSA>  (16) 
184.19

>  <Num_Heavy_Atoms>  (16) 
57

>  <Ro5>  (16) 
[False, False, True, True, False, False]

>  <Ro5_Fulfilled>  (16) 
False

>  <Ro3>  (16) 
[False, False, True, False]

>  <Ro3_Fulfilled>  (16) 
False

>  <Fsp3>  (16) 
0.878049

>  <Fsp3_0.42>  (16) 
True

>  <Fsp3_0.45>  (16) 
True

>  <Stereogenic_Carbons>  (16) 
18

>  <C_Atoms>  (16) 
41

>  <FCStereo>  (16) 
0.439024

>  <SPS>  (16) 
2477

>  <nSPS>  (16) 
43.45614

>  <PBF>  (16) 
1.589754

>  <PBF_0.6>  (16) 
True

>  <nPBF>  (16) 
0.02789

>  <nPBF_0.016>  (16) 
True

>  <PMI1>  (16) 
8520.982537

>  <PMI2>  (16) 
13874.032625

>  <PMI3>  (16) 
17782.058252

>  <NPR1>  (16) 
0.47919

>  <NPR2>  (16) 
0.780226

>  <Sum_NPR>  (16) 
1.259416

>  <Sum_NPR_1.07>  (16) 
True

>  <Sum_NPR_1.2>  (16) 
True

>  <MaxAbsEStateIndex>  (16) 
14.391162

>  <MaxEStateIndex>  (16) 
14.391162

>  <MinAbsEStateIndex>  (16) 
0.161811

>  <MinEStateIndex>  (16) 
-1.188712

>  <qed>  (16) 
0.1867

>  <MolWt>  (16) 
813.979

>  <HeavyAtomMolWt>  (16) 
746.443

>  <ExactMolWt>  (16) 
813.45107

>  <NumValenceElectrons>  (16) 
326

>  <NumRadicalElectrons>  (16) 
0

>  <MaxPartialCharge>  (16) 
0.311083

>  <MinPartialCharge>  (16) 
-0.461955

>  <MaxAbsPartialCharge>  (16) 
0.461955

>  <MinAbsPartialCharge>  (16) 
0.311083

>  <FpDensityMorgan1>  (16) 
0.701754

>  <FpDensityMorgan2>  (16) 
1.280702

>  <FpDensityMorgan3>  (16) 
1.824561

>  <BCUT2D_MWHI>  (16) 
16.723335

>  <BCUT2D_MWLOW>  (16) 
9.760513

>  <BCUT2D_CHGHI>  (16) 
2.57762

>  <BCUT2D_CHGLO>  (16) 
-2.464786

>  <BCUT2D_LOGPHI>  (16) 
2.437819

>  <BCUT2D_LOGPLOW>  (16) 
-2.580524

>  <BCUT2D_MRHI>  (16) 
5.918665

>  <BCUT2D_MRLOW>  (16) 
-0.300836

>  <AvgIpc>  (16) 
3.90773

>  <BalabanJ>  (16) 
1.815385

>  <BertzCT>  (16) 
1419.903201

>  <Chi0>  (16) 
42.678551

>  <Chi0n>  (16) 
36.21432

>  <Chi0v>  (16) 
36.21432

>  <Chi1>  (16) 
26.596876

>  <Chi1n>  (16) 
20.316088

>  <Chi1v>  (16) 
20.316088

>  <Chi2n>  (16) 
17.052123

>  <Chi2v>  (16) 
17.052123

>  <Chi3n>  (16) 
12.20242

>  <Chi3v>  (16) 
12.20242

>  <Chi4n>  (16) 
8.931393

>  <Chi4v>  (16) 
8.931393

>  <HallKierAlpha>  (16) 
-2.73

>  <Ipc>  (16) 
1091762429768.950562

>  <Kappa1>  (16) 
46.953811

>  <Kappa2>  (16) 
19.555463

>  <Kappa3>  (16) 
11.309754

>  <LabuteASA>  (16) 
337.016507

>  <PEOE_VSA1>  (16) 
52.268539

>  <PEOE_VSA10>  (16) 
18.311899

>  <PEOE_VSA11>  (16) 
36.172282

>  <PEOE_VSA12>  (16) 
0.0

>  <PEOE_VSA13>  (16) 
0.0

>  <PEOE_VSA14>  (16) 
23.877221

>  <PEOE_VSA2>  (16) 
23.972686

>  <PEOE_VSA3>  (16) 
0.0

>  <PEOE_VSA4>  (16) 
0.0

>  <PEOE_VSA5>  (16) 
0.0

>  <PEOE_VSA6>  (16) 
27.694949

>  <PEOE_VSA7>  (16) 
60.549842

>  <PEOE_VSA8>  (16) 
46.137643

>  <PEOE_VSA9>  (16) 
48.9004

>  <SMR_VSA1>  (16) 
71.341315

>  <SMR_VSA10>  (16) 
29.660466

>  <SMR_VSA2>  (16) 
0.0

>  <SMR_VSA3>  (16) 
4.89991

>  <SMR_VSA4>  (16) 
29.58953

>  <SMR_VSA5>  (16) 
174.582217

>  <SMR_VSA6>  (16) 
27.812023

>  <SMR_VSA7>  (16) 
0.0

>  <SMR_VSA8>  (16) 
0.0

>  <SMR_VSA9>  (16) 
0.0

>  <SlogP_VSA1>  (16) 
0.0

>  <SlogP_VSA10>  (16) 
0.0

>  <SlogP_VSA11>  (16) 
0.0

>  <SlogP_VSA12>  (16) 
0.0

>  <SlogP_VSA2>  (16) 
141.531042

>  <SlogP_VSA3>  (16) 
71.341315

>  <SlogP_VSA4>  (16) 
29.58953

>  <SlogP_VSA5>  (16) 
95.423574

>  <SlogP_VSA6>  (16) 
0.0

>  <SlogP_VSA7>  (16) 
0.0

>  <SlogP_VSA8>  (16) 
0.0

>  <SlogP_VSA9>  (16) 
0.0

>  <EState_VSA1>  (16) 
120.479587

>  <EState_VSA10>  (16) 
23.972686

>  <EState_VSA11>  (16) 
0.0

>  <EState_VSA2>  (16) 
37.377577

>  <EState_VSA3>  (16) 
6.420822

>  <EState_VSA4>  (16) 
0.0

>  <EState_VSA5>  (16) 
27.881009

>  <EState_VSA6>  (16) 
34.618686

>  <EState_VSA7>  (16) 
39.766465

>  <EState_VSA8>  (16) 
0.0

>  <EState_VSA9>  (16) 
47.36863

>  <VSA_EState1>  (16) 
61.500003

>  <VSA_EState10>  (16) 
0.0

>  <VSA_EState2>  (16) 
67.417427

>  <VSA_EState3>  (16) 
0.0

>  <VSA_EState4>  (16) 
-1.188712

>  <VSA_EState5>  (16) 
-5.691504

>  <VSA_EState6>  (16) 
-0.247026

>  <VSA_EState7>  (16) 
-7.35138

>  <VSA_EState8>  (16) 
18.497382

>  <VSA_EState9>  (16) 
5.313809

>  <FractionCSP3>  (16) 
0.878049

>  <HeavyAtomCount>  (16) 
57

>  <NHOHCount>  (16) 
0

>  <NOCount>  (16) 
16

>  <NumAliphaticCarbocycles>  (16) 
0

>  <NumAliphaticHeterocycles>  (16) 
4

>  <NumAliphaticRings>  (16) 
4

>  <NumAromaticCarbocycles>  (16) 
0

>  <NumAromaticHeterocycles>  (16) 
0

>  <NumAromaticRings>  (16) 
0

>  <NumHAcceptors>  (16) 
16

>  <NumHDonors>  (16) 
0

>  <NumHeteroatoms>  (16) 
16

>  <NumRotatableBonds>  (16) 
9

>  <NumSaturatedCarbocycles>  (16) 
0

>  <NumSaturatedHeterocycles>  (16) 
4

>  <NumSaturatedRings>  (16) 
4

>  <RingCount>  (16) 
4

>  <MolLogP>  (16) 
3.6209

>  <MolMR>  (16) 
202.265

>  <fr_Al_COO>  (16) 
0

>  <fr_Al_OH>  (16) 
0

>  <fr_Al_OH_noTert>  (16) 
0

>  <fr_ArN>  (16) 
0

>  <fr_Ar_COO>  (16) 
0

>  <fr_Ar_N>  (16) 
0

>  <fr_Ar_NH>  (16) 
0

>  <fr_Ar_OH>  (16) 
0

>  <fr_COO>  (16) 
0

>  <fr_COO2>  (16) 
0

>  <fr_C_O>  (16) 
5

>  <fr_C_O_noCOO>  (16) 
5

>  <fr_C_S>  (16) 
0

>  <fr_HOCCN>  (16) 
0

>  <fr_Imine>  (16) 
0

>  <fr_NH0>  (16) 
1

>  <fr_NH1>  (16) 
0

>  <fr_NH2>  (16) 
0

>  <fr_N_O>  (16) 
0

>  <fr_Ndealkylation1>  (16) 
1

>  <fr_Ndealkylation2>  (16) 
0

>  <fr_Nhpyrrole>  (16) 
0

>  <fr_SH>  (16) 
0

>  <fr_aldehyde>  (16) 
0

>  <fr_alkyl_carbamate>  (16) 
0

>  <fr_alkyl_halide>  (16) 
0

>  <fr_allylic_oxid>  (16) 
0

>  <fr_amide>  (16) 
0

>  <fr_amidine>  (16) 
0

>  <fr_aniline>  (16) 
0

>  <fr_aryl_methyl>  (16) 
0

>  <fr_azide>  (16) 
0

>  <fr_azo>  (16) 
0

>  <fr_barbitur>  (16) 
0

>  <fr_benzene>  (16) 
0

>  <fr_benzodiazepine>  (16) 
0

>  <fr_bicyclic>  (16) 
0

>  <fr_diazo>  (16) 
0

>  <fr_dihydropyridine>  (16) 
0

>  <fr_epoxide>  (16) 
1

>  <fr_ester>  (16) 
4

>  <fr_ether>  (16) 
10

>  <fr_furan>  (16) 
0

>  <fr_guanido>  (16) 
0

>  <fr_halogen>  (16) 
0

>  <fr_hdrzine>  (16) 
0

>  <fr_hdrzone>  (16) 
0

>  <fr_imidazole>  (16) 
0

>  <fr_imide>  (16) 
0

>  <fr_isocyan>  (16) 
0

>  <fr_isothiocyan>  (16) 
0

>  <fr_ketone>  (16) 
1

>  <fr_ketone_Topliss>  (16) 
1

>  <fr_lactam>  (16) 
0

>  <fr_lactone>  (16) 
1

>  <fr_methoxy>  (16) 
1

>  <fr_morpholine>  (16) 
0

>  <fr_nitrile>  (16) 
0

>  <fr_nitro>  (16) 
0

>  <fr_nitro_arom>  (16) 
0

>  <fr_nitro_arom_nonortho>  (16) 
0

>  <fr_nitroso>  (16) 
0

>  <fr_oxazole>  (16) 
0

>  <fr_oxime>  (16) 
0

>  <fr_para_hydroxylation>  (16) 
0

>  <fr_phenol>  (16) 
0

>  <fr_phenol_noOrthoHbond>  (16) 
0

>  <fr_phos_acid>  (16) 
0

>  <fr_phos_ester>  (16) 
0

>  <fr_piperdine>  (16) 
0

>  <fr_piperzine>  (16) 
0

>  <fr_priamide>  (16) 
0

>  <fr_prisulfonamd>  (16) 
0

>  <fr_pyridine>  (16) 
0

>  <fr_quatN>  (16) 
0

>  <fr_sulfide>  (16) 
0

>  <fr_sulfonamd>  (16) 
0

>  <fr_sulfone>  (16) 
0

>  <fr_term_acetylene>  (16) 
0

>  <fr_tetrazole>  (16) 
0

>  <fr_thiazole>  (16) 
0

>  <fr_thiocyan>  (16) 
0

>  <fr_thiophene>  (16) 
0

>  <fr_unbrch_alkane>  (16) 
0

>  <fr_urea>  (16) 
0

>  <NP_Likeness>  (16) 
1.384706

$$$$
CHEMBL1888176
     RDKit          3D

  0  0  0  0  0  0  0  0  0  0999 V3000
M  V30 BEGIN CTAB
M  V30 COUNTS 59 63 0 0 0
M  V30 BEGIN ATOM
M  V30 1 O -0.639052 -2.533402 2.635691 0
M  V30 2 C -0.584999 -2.564607 1.380755 0
M  V30 3 O -0.113686 -1.413332 0.793791 0
M  V30 4 C 0.292595 -0.254073 1.527970 0 CFG=1
M  V30 5 C 1.723343 0.066546 1.341883 0
M  V30 6 C 2.043691 1.485147 1.030966 0 CFG=1
M  V30 7 C 1.939369 1.677345 -0.469462 0
M  V30 8 C 0.478259 2.059982 -0.635189 0
M  V30 9 C -0.067956 2.142019 0.794851 0 CFG=1
M  V30 10 C -0.673578 0.830488 1.199228 0
M  V30 11 N 1.118145 2.447155 1.513985 0 CHG=1 VAL=4
M  V30 12 C 1.606850 3.760500 1.146236 0
M  V30 13 C 0.821297 4.747693 1.988132 0
M  V30 14 C 0.255536 3.891791 3.074512 0
M  V30 15 C 0.972457 2.563773 2.926495 0
M  V30 16 C -1.000904 -3.756615 0.607467 0
M  V30 17 O -1.450653 -4.681505 1.581829 0
M  V30 18 C -2.099686 -3.501111 -0.321101 0
M  V30 19 C -1.771727 -2.690434 -1.388106 0
M  V30 20 C -2.707771 -2.347372 -2.365848 0
M  V30 21 C -3.973664 -2.865400 -2.200899 0
M  V30 22 C -4.345040 -3.681420 -1.146954 0
M  V30 23 C -3.388879 -4.009909 -0.181698 0
M  V30 24 C 0.156875 -4.462522 -0.034962 0
M  V30 25 C -0.126240 -5.747155 -0.483404 0
M  V30 26 C 0.908893 -6.464146 -1.093082 0
M  V30 27 C 2.159210 -5.859110 -1.218266 0
M  V30 28 C 2.442331 -4.600996 -0.780940 0
M  V30 29 C 1.407815 -3.895001 -0.176114 0
M  V30 30 H 0.140446 -0.528278 2.613515 0
M  V30 31 H 2.110892 -0.574565 0.496375 0
M  V30 32 H 2.350941 -0.235188 2.220694 0
M  V30 33 H 3.108505 1.702651 1.330205 0
M  V30 34 H 2.610649 2.484999 -0.833486 0
M  V30 35 H 2.174786 0.747474 -1.016436 0
M  V30 36 H -0.095199 1.217411 -1.114880 0
M  V30 37 H 0.314118 2.971447 -1.209629 0
M  V30 38 H -0.845576 2.923840 0.901200 0
M  V30 39 H -1.368831 1.040517 2.053715 0
M  V30 40 H -1.382532 0.555340 0.362536 0
M  V30 41 H 2.674583 3.861741 1.465028 0
M  V30 42 H 1.470151 4.025689 0.098658 0
M  V30 43 H 1.462185 5.587192 2.360668 0
M  V30 44 H -0.018619 5.202248 1.407270 0
M  V30 45 H 0.373991 4.324256 4.085109 0
M  V30 46 H -0.832083 3.710309 2.894787 0
M  V30 47 H 1.957888 2.537758 3.404147 0
M  V30 48 H 0.320031 1.810872 3.405669 0
M  V30 49 H -1.943148 -4.220535 2.303937 0
M  V30 50 H -0.779314 -2.256759 -1.559745 0
M  V30 51 H -2.447906 -1.711726 -3.202175 0
M  V30 52 H -4.736342 -2.618376 -2.948387 0
M  V30 53 H -5.330032 -4.093247 -1.004949 0
M  V30 54 H -3.541926 -4.631812 0.684665 0
M  V30 55 H -1.088053 -6.233295 -0.395799 0
M  V30 56 H 0.737617 -7.468569 -1.459062 0
M  V30 57 H 2.902848 -6.465734 -1.692865 0
M  V30 58 H 3.406155 -4.131320 -0.876151 0
M  V30 59 H 1.579812 -2.893608 0.187173 0
M  V30 END ATOM
M  V30 BEGIN BOND
M  V30 1 2 1 2
M  V30 2 1 2 3
M  V30 3 1 3 4
M  V30 4 1 4 5
M  V30 5 1 5 6
M  V30 6 1 6 7
M  V30 7 1 7 8
M  V30 8 1 8 9
M  V30 9 1 9 10
M  V30 10 1 9 11
M  V30 11 1 11 12
M  V30 12 1 12 13
M  V30 13 1 13 14
M  V30 14 1 14 15
M  V30 15 1 2 16
M  V30 16 1 16 17
M  V30 17 1 16 18
M  V30 18 2 18 19
M  V30 19 1 19 20
M  V30 20 2 20 21
M  V30 21 1 21 22
M  V30 22 2 22 23
M  V30 23 1 16 24
M  V30 24 2 24 25
M  V30 25 1 25 26
M  V30 26 2 26 27
M  V30 27 1 27 28
M  V30 28 2 28 29
M  V30 29 1 10 4
M  V30 30 1 15 11
M  V30 31 1 23 18
M  V30 32 1 29 24
M  V30 33 1 11 6
M  V30 34 1 4 30 CFG=1
M  V30 35 1 5 31
M  V30 36 1 5 32
M  V30 37 1 6 33 CFG=1
M  V30 38 1 7 34
M  V30 39 1 7 35
M  V30 40 1 8 36
M  V30 41 1 8 37
M  V30 42 1 9 38 CFG=3
M  V30 43 1 10 39
M  V30 44 1 10 40
M  V30 45 1 12 41
M  V30 46 1 12 42
M  V30 47 1 13 43
M  V30 48 1 13 44
M  V30 49 1 14 45
M  V30 50 1 14 46
M  V30 51 1 15 47
M  V30 52 1 15 48
M  V30 53 1 17 49
M  V30 54 1 19 50
M  V30 55 1 20 51
M  V30 56 1 21 52
M  V30 57 1 22 53
M  V30 58 1 23 54
M  V30 59 1 25 55
M  V30 60 1 26 56
M  V30 61 1 27 57
M  V30 62 1 28 58
M  V30 63 1 29 59
M  V30 END BOND
M  V30 END CTAB
M  END
>  <Dataset>  (17) 
OralDrugs

>  <Ligand_Instance>  (17) 
nan

>  <PDB_ID>  (17) 
nan

>  <Standardized_SMILES>  (17) 
O=C(O[C@H]1C[C@H]2CC[C@@H](C1)[N+]21CCCC1)C(O)(c1ccccc1)c1ccccc1

>  <Name>  (17) 
Trospium

>  <Pocket>  (17) 
nan

>  <ATP_Site>  (17) 
nan

>  <Peripheral>  (17) 
nan

>  <Num_H_Atoms_ProtBoundConf>  (17) 
nan

>  <Num_Resolved_Atoms>  (17) 
nan

>  <Num_Not_Resolved_Atoms>  (17) 
nan

>  <2D_Mol_H>  (17) 
<rdkit.Chem.rdchem.Mol object at 0x72a238b93300>

>  <MW>  (17) 
392.519

>  <HBA>  (17) 
3

>  <HBD>  (17) 
1

>  <LogP>  (17) 
3.7697

>  <NRB>  (17) 
5

>  <TPSA>  (17) 
46.53

>  <Num_Heavy_Atoms>  (17) 
29

>  <Ro5>  (17) 
[True, True, True, True, True, True]

>  <Ro5_Fulfilled>  (17) 
True

>  <Ro3>  (17) 
[False, True, True, False]

>  <Ro3_Fulfilled>  (17) 
False

>  <Fsp3>  (17) 
0.48

>  <Fsp3_0.42>  (17) 
True

>  <Fsp3_0.45>  (17) 
True

>  <Stereogenic_Carbons>  (17) 
3

>  <C_Atoms>  (17) 
25

>  <FCStereo>  (17) 
0.12

>  <SPS>  (17) 
807

>  <nSPS>  (17) 
27.827586

>  <PBF>  (17) 
1.087389

>  <PBF_0.6>  (17) 
True

>  <nPBF>  (17) 
0.037496

>  <nPBF_0.016>  (17) 
True

>  <PMI1>  (17) 
1668.587483

>  <PMI2>  (17) 
5198.61739

>  <PMI3>  (17) 
5778.915335

>  <NPR1>  (17) 
0.288737

>  <NPR2>  (17) 
0.899584

>  <Sum_NPR>  (17) 
1.188321

>  <Sum_NPR_1.07>  (17) 
True

>  <Sum_NPR_1.2>  (17) 
False

>  <MaxAbsEStateIndex>  (17) 
13.403309

>  <MaxEStateIndex>  (17) 
13.403309

>  <MinAbsEStateIndex>  (17) 
0.094167

>  <MinEStateIndex>  (17) 
-1.778852

>  <qed>  (17) 
0.636442

>  <MolWt>  (17) 
392.519

>  <HeavyAtomMolWt>  (17) 
362.279

>  <ExactMolWt>  (17) 
392.22202

>  <NumValenceElectrons>  (17) 
152

>  <NumRadicalElectrons>  (17) 
0

>  <MaxPartialCharge>  (17) 
0.347472

>  <MinPartialCharge>  (17) 
-0.459216

>  <MaxAbsPartialCharge>  (17) 
0.459216

>  <MinAbsPartialCharge>  (17) 
0.347472

>  <FpDensityMorgan1>  (17) 
0.862069

>  <FpDensityMorgan2>  (17) 
1.344828

>  <FpDensityMorgan3>  (17) 
1.827586

>  <BCUT2D_MWHI>  (17) 
16.558935

>  <BCUT2D_MWLOW>  (17) 
9.858609

>  <BCUT2D_CHGHI>  (17) 
2.560876

>  <BCUT2D_CHGLO>  (17) 
-2.46771

>  <BCUT2D_LOGPHI>  (17) 
2.463454

>  <BCUT2D_LOGPLOW>  (17) 
-2.596941

>  <BCUT2D_MRHI>  (17) 
5.851529

>  <BCUT2D_MRLOW>  (17) 
-0.955666

>  <AvgIpc>  (17) 
3.307228

>  <BalabanJ>  (17) 
1.398609

>  <BertzCT>  (17) 
804.65191

>  <Chi0>  (17) 
19.89913

>  <Chi0n>  (17) 
16.873332

>  <Chi0v>  (17) 
16.873332

>  <Chi1>  (17) 
14.126812

>  <Chi1n>  (17) 
11.037268

>  <Chi1v>  (17) 
11.037268

>  <Chi2n>  (17) 
9.083475

>  <Chi2v>  (17) 
9.083475

>  <Chi3n>  (17) 
7.708578

>  <Chi3v>  (17) 
7.708578

>  <Chi4n>  (17) 
6.304263

>  <Chi4v>  (17) 
6.304263

>  <HallKierAlpha>  (17) 
-2.17

>  <Ipc>  (17) 
8701977.457833

>  <Kappa1>  (17) 
18.833127

>  <Kappa2>  (17) 
7.261553

>  <Kappa3>  (17) 
3.008073

>  <LabuteASA>  (17) 
172.254358

>  <PEOE_VSA1>  (17) 
14.326421

>  <PEOE_VSA10>  (17) 
6.103966

>  <PEOE_VSA11>  (17) 
0.0

>  <PEOE_VSA12>  (17) 
5.601051

>  <PEOE_VSA13>  (17) 
0.0

>  <PEOE_VSA14>  (17) 
5.969305

>  <PEOE_VSA2>  (17) 
0.0

>  <PEOE_VSA3>  (17) 
4.794537

>  <PEOE_VSA4>  (17) 
0.0

>  <PEOE_VSA5>  (17) 
0.0

>  <PEOE_VSA6>  (17) 
60.663671

>  <PEOE_VSA7>  (17) 
11.126903

>  <PEOE_VSA8>  (17) 
38.52493

>  <PEOE_VSA9>  (17) 
25.173194

>  <SMR_VSA1>  (17) 
19.120958

>  <SMR_VSA10>  (17) 
5.969305

>  <SMR_VSA2>  (17) 
0.0

>  <SMR_VSA3>  (17) 
0.0

>  <SMR_VSA4>  (17) 
0.0

>  <SMR_VSA5>  (17) 
62.313629

>  <SMR_VSA6>  (17) 
13.089513

>  <SMR_VSA7>  (17) 
71.790574

>  <SMR_VSA8>  (17) 
0.0

>  <SMR_VSA9>  (17) 
0.0

>  <SlogP_VSA1>  (17) 
0.0

>  <SlogP_VSA10>  (17) 
0.0

>  <SlogP_VSA11>  (17) 
0.0

>  <SlogP_VSA12>  (17) 
0.0

>  <SlogP_VSA2>  (17) 
46.836024

>  <SlogP_VSA3>  (17) 
15.132451

>  <SlogP_VSA4>  (17) 
0.0

>  <SlogP_VSA5>  (17) 
49.651833

>  <SlogP_VSA6>  (17) 
60.663671

>  <SlogP_VSA7>  (17) 
0.0

>  <SlogP_VSA8>  (17) 
0.0

>  <SlogP_VSA9>  (17) 
0.0

>  <EState_VSA1>  (17) 
11.570356

>  <EState_VSA10>  (17) 
9.901065

>  <EState_VSA11>  (17) 
0.0

>  <EState_VSA2>  (17) 
6.103966

>  <EState_VSA3>  (17) 
23.210585

>  <EState_VSA4>  (17) 
12.841643

>  <EState_VSA5>  (17) 
43.25583

>  <EState_VSA6>  (17) 
24.265468

>  <EState_VSA7>  (17) 
36.398202

>  <EState_VSA8>  (17) 
0.0

>  <EState_VSA9>  (17) 
4.736863

>  <VSA_EState1>  (17) 
7.323441

>  <VSA_EState10>  (17) 
0.0

>  <VSA_EState2>  (17) 
13.403309

>  <VSA_EState3>  (17) 
11.627108

>  <VSA_EState4>  (17) 
-0.671396

>  <VSA_EState5>  (17) 
-0.547063

>  <VSA_EState6>  (17) 
19.578922

>  <VSA_EState7>  (17) 
6.936537

>  <VSA_EState8>  (17) 
2.599143

>  <VSA_EState9>  (17) 
0.0

>  <FractionCSP3>  (17) 
0.48

>  <HeavyAtomCount>  (17) 
29

>  <NHOHCount>  (17) 
1

>  <NOCount>  (17) 
4

>  <NumAliphaticCarbocycles>  (17) 
0

>  <NumAliphaticHeterocycles>  (17) 
3

>  <NumAliphaticRings>  (17) 
3

>  <NumAromaticCarbocycles>  (17) 
2

>  <NumAromaticHeterocycles>  (17) 
0

>  <NumAromaticRings>  (17) 
2

>  <NumHAcceptors>  (17) 
3

>  <NumHDonors>  (17) 
1

>  <NumHeteroatoms>  (17) 
4

>  <NumRotatableBonds>  (17) 
4

>  <NumSaturatedCarbocycles>  (17) 
0

>  <NumSaturatedHeterocycles>  (17) 
3

>  <NumSaturatedRings>  (17) 
3

>  <RingCount>  (17) 
5

>  <MolLogP>  (17) 
3.7697

>  <MolMR>  (17) 
111.0352

>  <fr_Al_COO>  (17) 
0

>  <fr_Al_OH>  (17) 
1

>  <fr_Al_OH_noTert>  (17) 
0

>  <fr_ArN>  (17) 
0

>  <fr_Ar_COO>  (17) 
0

>  <fr_Ar_N>  (17) 
0

>  <fr_Ar_NH>  (17) 
0

>  <fr_Ar_OH>  (17) 
0

>  <fr_COO>  (17) 
0

>  <fr_COO2>  (17) 
0

>  <fr_C_O>  (17) 
1

>  <fr_C_O_noCOO>  (17) 
1

>  <fr_C_S>  (17) 
0

>  <fr_HOCCN>  (17) 
0

>  <fr_Imine>  (17) 
0

>  <fr_NH0>  (17) 
1

>  <fr_NH1>  (17) 
0

>  <fr_NH2>  (17) 
0

>  <fr_N_O>  (17) 
0

>  <fr_Ndealkylation1>  (17) 
0

>  <fr_Ndealkylation2>  (17) 
0

>  <fr_Nhpyrrole>  (17) 
0

>  <fr_SH>  (17) 
0

>  <fr_aldehyde>  (17) 
0

>  <fr_alkyl_carbamate>  (17) 
0

>  <fr_alkyl_halide>  (17) 
0

>  <fr_allylic_oxid>  (17) 
0

>  <fr_amide>  (17) 
0

>  <fr_amidine>  (17) 
0

>  <fr_aniline>  (17) 
0

>  <fr_aryl_methyl>  (17) 
0

>  <fr_azide>  (17) 
0

>  <fr_azo>  (17) 
0

>  <fr_barbitur>  (17) 
0

>  <fr_benzene>  (17) 
2

>  <fr_benzodiazepine>  (17) 
0

>  <fr_bicyclic>  (17) 
0

>  <fr_diazo>  (17) 
0

>  <fr_dihydropyridine>  (17) 
0

>  <fr_epoxide>  (17) 
0

>  <fr_ester>  (17) 
1

>  <fr_ether>  (17) 
1

>  <fr_furan>  (17) 
0

>  <fr_guanido>  (17) 
0

>  <fr_halogen>  (17) 
0

>  <fr_hdrzine>  (17) 
0

>  <fr_hdrzone>  (17) 
0

>  <fr_imidazole>  (17) 
0

>  <fr_imide>  (17) 
0

>  <fr_isocyan>  (17) 
0

>  <fr_isothiocyan>  (17) 
0

>  <fr_ketone>  (17) 
0

>  <fr_ketone_Topliss>  (17) 
0

>  <fr_lactam>  (17) 
0

>  <fr_lactone>  (17) 
0

>  <fr_methoxy>  (17) 
0

>  <fr_morpholine>  (17) 
0

>  <fr_nitrile>  (17) 
0

>  <fr_nitro>  (17) 
0

>  <fr_nitro_arom>  (17) 
0

>  <fr_nitro_arom_nonortho>  (17) 
0

>  <fr_nitroso>  (17) 
0

>  <fr_oxazole>  (17) 
0

>  <fr_oxime>  (17) 
0

>  <fr_para_hydroxylation>  (17) 
0

>  <fr_phenol>  (17) 
0

>  <fr_phenol_noOrthoHbond>  (17) 
0

>  <fr_phos_acid>  (17) 
0

>  <fr_phos_ester>  (17) 
0

>  <fr_piperdine>  (17) 
1

>  <fr_piperzine>  (17) 
0

>  <fr_priamide>  (17) 
0

>  <fr_prisulfonamd>  (17) 
0

>  <fr_pyridine>  (17) 
0

>  <fr_quatN>  (17) 
1

>  <fr_sulfide>  (17) 
0

>  <fr_sulfonamd>  (17) 
0

>  <fr_sulfone>  (17) 
0

>  <fr_term_acetylene>  (17) 
0

>  <fr_tetrazole>  (17) 
0

>  <fr_thiazole>  (17) 
0

>  <fr_thiocyan>  (17) 
0

>  <fr_thiophene>  (17) 
0

>  <fr_unbrch_alkane>  (17) 
0

>  <fr_urea>  (17) 
0

>  <NP_Likeness>  (17) 
0.24967

$$$$
CHEMBL3989868
     RDKit          3D

  0  0  0  0  0  0  0  0  0  0999 V3000
M  V30 BEGIN CTAB
M  V30 COUNTS 60 65 0 0 0
M  V30 BEGIN ATOM
M  V30 1 C -0.540968 -3.879287 2.064906 0
M  V30 2 C 0.713470 -3.237801 1.663893 0
M  V30 3 C 1.058149 -2.139953 2.422532 0
M  V30 4 C 2.213481 -1.412226 2.188071 0
M  V30 5 N 2.672735 -0.282227 2.929061 0
M  V30 6 C 3.528729 0.637769 2.257648 0
M  V30 7 N 4.834232 0.530387 1.970477 0
M  V30 8 C 5.494149 1.524662 1.326178 0
M  V30 9 N 4.776797 2.605491 0.998237 0
M  V30 10 C 3.485335 2.798090 1.242092 0
M  V30 11 C 2.830019 3.973966 0.862826 0
M  V30 12 C 1.487713 4.133104 1.146149 0
M  V30 13 C 0.789782 3.151523 1.795310 0
M  V30 14 N -0.608468 3.196809 2.153511 0
M  V30 15 C -1.698265 2.683506 1.409346 0
M  V30 16 N -1.490115 1.706313 0.580284 0
M  V30 17 C -2.723614 1.333103 -0.073611 0
M  V30 18 C -3.239874 -0.001818 0.454773 0
M  V30 19 C -2.606680 1.230180 -1.569743 0
M  V30 20 C -3.707388 2.388582 0.355971 0
M  V30 21 O -3.029411 3.055001 1.401604 0
M  V30 22 C 1.465695 2.008981 2.152749 0
M  V30 23 C 2.794186 1.773959 1.908074 0
M  V30 24 C 2.987895 -1.890946 1.122862 0
M  V30 25 C 2.704667 -2.980545 0.324623 0
M  V30 26 C 1.538555 -3.652663 0.618223 0
M  V30 27 O 1.190511 -4.759424 -0.140439 0
M  V30 28 C 0.047405 -4.782943 -0.921194 0
M  V30 29 C -0.739172 -3.631816 -1.063413 0
M  V30 30 C -1.912285 -3.543436 -1.826611 0
M  V30 31 N -2.290350 -4.670049 -2.463104 0
M  V30 32 N -3.356334 -4.833319 -3.240631 0
M  V30 33 C -3.366581 -6.102500 -3.679239 0
M  V30 34 N -2.266180 -6.706234 -3.137739 0
M  V30 35 C -1.586439 -5.828568 -2.378901 0
M  V30 36 C -0.443457 -5.860411 -1.616990 0
M  V30 37 H -0.662142 -3.906504 3.186324 0
M  V30 38 H -0.670862 -4.902095 1.728751 0
M  V30 39 H -1.461240 -3.311886 1.723138 0
M  V30 40 H 0.470632 -1.741885 3.263035 0
M  V30 41 H 2.320640 -0.257979 3.906438 0
M  V30 42 H 6.547003 1.371724 1.127592 0
M  V30 43 H 3.355481 4.760463 0.351906 0
M  V30 44 H 0.936121 5.016110 0.878073 0
M  V30 45 H -0.830008 3.670604 3.082287 0
M  V30 46 H -2.799474 -0.203200 1.457849 0
M  V30 47 H -3.010477 -0.850089 -0.206846 0
M  V30 48 H -4.336620 0.063935 0.523760 0
M  V30 49 H -3.038341 0.256388 -1.937124 0
M  V30 50 H -3.148270 2.041260 -2.094781 0
M  V30 51 H -1.555127 1.247527 -1.941889 0
M  V30 52 H -3.902405 3.028026 -0.523486 0
M  V30 53 H -4.666213 1.931085 0.730554 0
M  V30 54 H 0.950741 1.221279 2.662917 0
M  V30 55 H 3.926167 -1.370960 0.866500 0
M  V30 56 H 3.354949 -3.275155 -0.470819 0
M  V30 57 H -0.440916 -2.703155 -0.553548 0
M  V30 58 H -2.434598 -2.594004 -1.860495 0
M  V30 59 H -4.085551 -6.582755 -4.329143 0
M  V30 60 H 0.129261 -6.788958 -1.543905 0
M  V30 END ATOM
M  V30 BEGIN BOND
M  V30 1 1 1 2
M  V30 2 2 2 3
M  V30 3 1 3 4
M  V30 4 1 4 5
M  V30 5 1 5 6
M  V30 6 2 6 7
M  V30 7 1 7 8
M  V30 8 2 8 9
M  V30 9 1 9 10
M  V30 10 2 10 11
M  V30 11 1 11 12
M  V30 12 2 12 13
M  V30 13 1 13 14
M  V30 14 1 14 15
M  V30 15 2 15 16
M  V30 16 1 16 17
M  V30 17 1 17 18
M  V30 18 1 17 19
M  V30 19 1 17 20
M  V30 20 1 20 21
M  V30 21 1 13 22
M  V30 22 2 22 23
M  V30 23 2 4 24
M  V30 24 1 24 25
M  V30 25 2 25 26
M  V30 26 1 26 27
M  V30 27 1 27 28
M  V30 28 1 28 29
M  V30 29 2 29 30
M  V30 30 1 30 31
M  V30 31 1 31 32
M  V30 32 2 32 33
M  V30 33 1 33 34
M  V30 34 2 34 35
M  V30 35 1 35 36
M  V30 36 1 26 2
M  V30 37 2 36 28
M  V30 38 1 23 6
M  V30 39 1 35 31
M  V30 40 1 23 10
M  V30 41 1 21 15
M  V30 42 1 1 37
M  V30 43 1 1 38
M  V30 44 1 1 39
M  V30 45 1 3 40
M  V30 46 1 5 41
M  V30 47 1 8 42
M  V30 48 1 11 43
M  V30 49 1 12 44
M  V30 50 1 14 45
M  V30 51 1 18 46
M  V30 52 1 18 47
M  V30 53 1 18 48
M  V30 54 1 19 49
M  V30 55 1 19 50
M  V30 56 1 19 51
M  V30 57 1 20 52
M  V30 58 1 20 53
M  V30 59 1 22 54
M  V30 60 1 24 55
M  V30 61 1 25 56
M  V30 62 1 29 57
M  V30 63 1 30 58
M  V30 64 1 33 59
M  V30 65 1 36 60
M  V30 END BOND
M  V30 END CTAB
M  END
>  <Dataset>  (18) 
OralDrugs

>  <Ligand_Instance>  (18) 
nan

>  <PDB_ID>  (18) 
nan

>  <Standardized_SMILES>  (18) 
Cc1cc(Nc2ncnc3ccc(NC4=NC(C)(C)CO4)cc23)ccc1Oc1ccn2ncnc2c1

>  <Name>  (18) 
Tucatinib

>  <Pocket>  (18) 
nan

>  <ATP_Site>  (18) 
nan

>  <Peripheral>  (18) 
nan

>  <Num_H_Atoms_ProtBoundConf>  (18) 
nan

>  <Num_Resolved_Atoms>  (18) 
nan

>  <Num_Not_Resolved_Atoms>  (18) 
nan

>  <2D_Mol_H>  (18) 
<rdkit.Chem.rdchem.Mol object at 0x72a238b933e0>

>  <MW>  (18) 
480.532

>  <HBA>  (18) 
10

>  <HBD>  (18) 
2

>  <LogP>  (18) 
5.09352

>  <NRB>  (18) 
8

>  <TPSA>  (18) 
110.85

>  <Num_Heavy_Atoms>  (18) 
36

>  <Ro5>  (18) 
[True, True, True, False, True, True]

>  <Ro5_Fulfilled>  (18) 
True

>  <Ro3>  (18) 
[False, False, True, False]

>  <Ro3_Fulfilled>  (18) 
False

>  <Fsp3>  (18) 
0.192308

>  <Fsp3_0.42>  (18) 
False

>  <Fsp3_0.45>  (18) 
False

>  <Stereogenic_Carbons>  (18) 
0

>  <C_Atoms>  (18) 
26

>  <FCStereo>  (18) 
0.0

>  <SPS>  (18) 
521

>  <nSPS>  (18) 
14.472222

>  <PBF>  (18) 
1.140303

>  <PBF_0.6>  (18) 
True

>  <nPBF>  (18) 
0.031675

>  <nPBF_0.016>  (18) 
True

>  <PMI1>  (18) 
3476.623876

>  <PMI2>  (18) 
7445.961486

>  <PMI3>  (18) 
9822.64609

>  <NPR1>  (18) 
0.35394

>  <NPR2>  (18) 
0.75804

>  <Sum_NPR>  (18) 
1.11198

>  <Sum_NPR_1.07>  (18) 
True

>  <Sum_NPR_1.2>  (18) 
False

>  <MaxAbsEStateIndex>  (18) 
6.089866

>  <MaxEStateIndex>  (18) 
6.089866

>  <MinAbsEStateIndex>  (18) 
0.230165

>  <MinEStateIndex>  (18) 
-0.230165

>  <qed>  (18) 
0.357724

>  <MolWt>  (18) 
480.532

>  <HeavyAtomMolWt>  (18) 
456.34

>  <ExactMolWt>  (18) 
480.202222

>  <NumValenceElectrons>  (18) 
180

>  <NumRadicalElectrons>  (18) 
0

>  <MaxPartialCharge>  (18) 
0.289433

>  <MinPartialCharge>  (18) 
-0.462483

>  <MaxAbsPartialCharge>  (18) 
0.462483

>  <MinAbsPartialCharge>  (18) 
0.289433

>  <FpDensityMorgan1>  (18) 
0.944444

>  <FpDensityMorgan2>  (18) 
1.805556

>  <FpDensityMorgan3>  (18) 
2.638889

>  <BCUT2D_MWHI>  (18) 
16.508079

>  <BCUT2D_MWLOW>  (18) 
10.115675

>  <BCUT2D_CHGHI>  (18) 
2.259726

>  <BCUT2D_CHGLO>  (18) 
-2.130449

>  <BCUT2D_LOGPHI>  (18) 
2.307629

>  <BCUT2D_LOGPLOW>  (18) 
-2.167525

>  <BCUT2D_MRHI>  (18) 
5.96776

>  <BCUT2D_MRLOW>  (18) 
0.278086

>  <AvgIpc>  (18) 
3.460429

>  <BalabanJ>  (18) 
1.233881

>  <BertzCT>  (18) 
1625.474613

>  <Chi0>  (18) 
24.700095

>  <Chi0n>  (18) 
20.057738

>  <Chi0v>  (18) 
20.057738

>  <Chi1>  (18) 
17.415749

>  <Chi1n>  (18) 
11.512663

>  <Chi1v>  (18) 
11.512663

>  <Chi2n>  (18) 
9.22986

>  <Chi2v>  (18) 
9.22986

>  <Chi3n>  (18) 
5.770538

>  <Chi3v>  (18) 
5.770538

>  <Chi4n>  (18) 
3.971358

>  <Chi4v>  (18) 
3.971358

>  <HallKierAlpha>  (18) 
-4.73

>  <Ipc>  (18) 
254232011.604645

>  <Kappa1>  (18) 
21.779987

>  <Kappa2>  (18) 
8.489438

>  <Kappa3>  (18) 
4.357345

>  <LabuteASA>  (18) 
206.598421

>  <PEOE_VSA1>  (18) 
20.107303

>  <PEOE_VSA10>  (18) 
36.578409

>  <PEOE_VSA11>  (18) 
5.647177

>  <PEOE_VSA12>  (18) 
0.0

>  <PEOE_VSA13>  (18) 
6.02168

>  <PEOE_VSA14>  (18) 
0.0

>  <PEOE_VSA2>  (18) 
0.0

>  <PEOE_VSA3>  (18) 
24.459738

>  <PEOE_VSA4>  (18) 
5.098682

>  <PEOE_VSA5>  (18) 
0.0

>  <PEOE_VSA6>  (18) 
0.0

>  <PEOE_VSA7>  (18) 
68.799233

>  <PEOE_VSA8>  (18) 
29.024207

>  <PEOE_VSA9>  (18) 
11.055626

>  <SMR_VSA1>  (18) 
9.473726

>  <SMR_VSA10>  (18) 
39.764418

>  <SMR_VSA2>  (18) 
0.0

>  <SMR_VSA3>  (18) 
24.566015

>  <SMR_VSA4>  (18) 
4.992405

>  <SMR_VSA5>  (18) 
26.310137

>  <SMR_VSA6>  (18) 
17.240459

>  <SMR_VSA7>  (18) 
72.945872

>  <SMR_VSA8>  (18) 
0.0

>  <SMR_VSA9>  (18) 
11.499024

>  <SlogP_VSA1>  (18) 
15.37044

>  <SlogP_VSA10>  (18) 
17.192635

>  <SlogP_VSA11>  (18) 
11.499024

>  <SlogP_VSA12>  (18) 
0.0

>  <SlogP_VSA2>  (18) 
42.733503

>  <SlogP_VSA3>  (18) 
4.736863

>  <SlogP_VSA4>  (18) 
6.923737

>  <SlogP_VSA5>  (18) 
19.410926

>  <SlogP_VSA6>  (18) 
72.374825

>  <SlogP_VSA7>  (18) 
0.0

>  <SlogP_VSA8>  (18) 
16.550102

>  <SlogP_VSA9>  (18) 
0.0

>  <EState_VSA1>  (18) 
0.0

>  <EState_VSA10>  (18) 
0.0

>  <EState_VSA11>  (18) 
0.0

>  <EState_VSA2>  (18) 
5.538925

>  <EState_VSA3>  (18) 
24.195937

>  <EState_VSA4>  (18) 
39.237838

>  <EState_VSA5>  (18) 
6.32732

>  <EState_VSA6>  (18) 
10.842718

>  <EState_VSA7>  (18) 
75.498992

>  <EState_VSA8>  (18) 
35.676599

>  <EState_VSA9>  (18) 
9.473726

>  <VSA_EState1>  (18) 
13.445488

>  <VSA_EState10>  (18) 
0.0

>  <VSA_EState2>  (18) 
17.6528

>  <VSA_EState3>  (18) 
11.647065

>  <VSA_EState4>  (18) 
4.029312

>  <VSA_EState5>  (18) 
2.145984

>  <VSA_EState6>  (18) 
15.999188

>  <VSA_EState7>  (18) 
4.881007

>  <VSA_EState8>  (18) 
6.615823

>  <VSA_EState9>  (18) 
0.0

>  <FractionCSP3>  (18) 
0.192308

>  <HeavyAtomCount>  (18) 
36

>  <NHOHCount>  (18) 
2

>  <NOCount>  (18) 
10

>  <NumAliphaticCarbocycles>  (18) 
0

>  <NumAliphaticHeterocycles>  (18) 
1

>  <NumAliphaticRings>  (18) 
1

>  <NumAromaticCarbocycles>  (18) 
2

>  <NumAromaticHeterocycles>  (18) 
3

>  <NumAromaticRings>  (18) 
5

>  <NumHAcceptors>  (18) 
10

>  <NumHDonors>  (18) 
2

>  <NumHeteroatoms>  (18) 
10

>  <NumRotatableBonds>  (18) 
5

>  <NumSaturatedCarbocycles>  (18) 
0

>  <NumSaturatedHeterocycles>  (18) 
0

>  <NumSaturatedRings>  (18) 
0

>  <RingCount>  (18) 
6

>  <MolLogP>  (18) 
5.09352

>  <MolMR>  (18) 
138.1494

>  <fr_Al_COO>  (18) 
0

>  <fr_Al_OH>  (18) 
0

>  <fr_Al_OH_noTert>  (18) 
0

>  <fr_ArN>  (18) 
0

>  <fr_Ar_COO>  (18) 
0

>  <fr_Ar_N>  (18) 
5

>  <fr_Ar_NH>  (18) 
0

>  <fr_Ar_OH>  (18) 
0

>  <fr_COO>  (18) 
0

>  <fr_COO2>  (18) 
0

>  <fr_C_O>  (18) 
0

>  <fr_C_O_noCOO>  (18) 
0

>  <fr_C_S>  (18) 
0

>  <fr_HOCCN>  (18) 
0

>  <fr_Imine>  (18) 
1

>  <fr_NH0>  (18) 
6

>  <fr_NH1>  (18) 
2

>  <fr_NH2>  (18) 
0

>  <fr_N_O>  (18) 
0

>  <fr_Ndealkylation1>  (18) 
0

>  <fr_Ndealkylation2>  (18) 
0

>  <fr_Nhpyrrole>  (18) 
0

>  <fr_SH>  (18) 
0

>  <fr_aldehyde>  (18) 
0

>  <fr_alkyl_carbamate>  (18) 
0

>  <fr_alkyl_halide>  (18) 
0

>  <fr_allylic_oxid>  (18) 
0

>  <fr_amide>  (18) 
0

>  <fr_amidine>  (18) 
1

>  <fr_aniline>  (18) 
3

>  <fr_aryl_methyl>  (18) 
1

>  <fr_azide>  (18) 
0

>  <fr_azo>  (18) 
0

>  <fr_barbitur>  (18) 
0

>  <fr_benzene>  (18) 
2

>  <fr_benzodiazepine>  (18) 
0

>  <fr_bicyclic>  (18) 
2

>  <fr_diazo>  (18) 
0

>  <fr_dihydropyridine>  (18) 
0

>  <fr_epoxide>  (18) 
0

>  <fr_ester>  (18) 
0

>  <fr_ether>  (18) 
2

>  <fr_furan>  (18) 
0

>  <fr_guanido>  (18) 
0

>  <fr_halogen>  (18) 
0

>  <fr_hdrzine>  (18) 
0

>  <fr_hdrzone>  (18) 
0

>  <fr_imidazole>  (18) 
0

>  <fr_imide>  (18) 
0

>  <fr_isocyan>  (18) 
0

>  <fr_isothiocyan>  (18) 
0

>  <fr_ketone>  (18) 
0

>  <fr_ketone_Topliss>  (18) 
0

>  <fr_lactam>  (18) 
0

>  <fr_lactone>  (18) 
0

>  <fr_methoxy>  (18) 
0

>  <fr_morpholine>  (18) 
0

>  <fr_nitrile>  (18) 
0

>  <fr_nitro>  (18) 
0

>  <fr_nitro_arom>  (18) 
0

>  <fr_nitro_arom_nonortho>  (18) 
0

>  <fr_nitroso>  (18) 
0

>  <fr_oxazole>  (18) 
0

>  <fr_oxime>  (18) 
0

>  <fr_para_hydroxylation>  (18) 
0

>  <fr_phenol>  (18) 
0

>  <fr_phenol_noOrthoHbond>  (18) 
0

>  <fr_phos_acid>  (18) 
0

>  <fr_phos_ester>  (18) 
0

>  <fr_piperdine>  (18) 
0

>  <fr_piperzine>  (18) 
0

>  <fr_priamide>  (18) 
0

>  <fr_prisulfonamd>  (18) 
0

>  <fr_pyridine>  (18) 
1

>  <fr_quatN>  (18) 
0

>  <fr_sulfide>  (18) 
0

>  <fr_sulfonamd>  (18) 
0

>  <fr_sulfone>  (18) 
0

>  <fr_term_acetylene>  (18) 
0

>  <fr_tetrazole>  (18) 
0

>  <fr_thiazole>  (18) 
0

>  <fr_thiocyan>  (18) 
0

>  <fr_thiophene>  (18) 
0

>  <fr_unbrch_alkane>  (18) 
0

>  <fr_urea>  (18) 
0

>  <NP_Likeness>  (18) 
-1.025431

$$$$
CHEMBL1200899
     RDKit          3D

  0  0  0  0  0  0  0  0  0  0999 V3000
M  V30 BEGIN CTAB
M  V30 COUNTS 40 40 0 0 0
M  V30 BEGIN ATOM
M  V30 1 C 1.454371 -5.600839 2.050633 0
M  V30 2 C 0.633323 -5.636775 0.778747 0
M  V30 3 C 1.175339 -4.626647 -0.201966 0
M  V30 4 C 1.140738 -3.254587 0.308226 0
M  V30 5 O 0.679935 -3.119064 1.480172 0
M  V30 6 N 1.618679 -2.238984 -0.548909 0
M  V30 7 C 1.682534 -0.860917 -0.275191 0
M  V30 8 C 2.849532 -0.415726 0.303355 0
M  V30 9 I 4.427107 -1.753760 0.741000 0
M  V30 10 C 2.975685 0.922062 0.594789 0
M  V30 11 C 1.932613 1.771756 0.300420 0
M  V30 12 I 2.400613 3.799850 0.721586 0
M  V30 13 C 0.725451 1.422158 -0.274197 0
M  V30 14 C -0.385948 2.334070 -0.537286 0
M  V30 15 C -1.313177 2.677826 0.550817 0 CFG=2
M  V30 16 C -0.840094 3.312522 1.794230 0
M  V30 17 C -2.112576 3.483060 2.677023 0
M  V30 18 C -2.320517 1.608499 0.769777 0
M  V30 19 O -2.240887 0.902207 1.798802 0
M  V30 20 O -3.407622 1.269417 -0.060365 0
M  V30 21 C 0.678639 0.057378 -0.540031 0
M  V30 22 I -0.984188 -0.827762 -1.481031 0
M  V30 23 H 0.974067 -5.018339 2.862567 0
M  V30 24 H 2.464998 -5.181697 1.843662 0
M  V30 25 H 1.631423 -6.664240 2.372124 0
M  V30 26 H 0.651097 -6.632658 0.289727 0
M  V30 27 H -0.425890 -5.456313 1.053941 0
M  V30 28 H 0.751245 -4.755546 -1.217375 0
M  V30 29 H 2.266971 -4.888348 -0.321255 0
M  V30 30 H 1.979514 -2.453782 -1.502015 0
M  V30 31 H 3.911300 1.223970 1.047973 0
M  V30 32 H -0.008964 3.314992 -0.980408 0
M  V30 33 H -0.932316 1.897933 -1.433320 0
M  V30 34 H -2.020088 3.523242 0.109125 0
M  V30 35 H -0.562292 4.371063 1.591432 0
M  V30 36 H -0.154732 2.777255 2.432301 0
M  V30 37 H -2.185400 2.616553 3.381776 0
M  V30 38 H -3.024477 3.476966 2.056199 0
M  V30 39 H -2.087080 4.419516 3.235292 0
M  V30 40 H -3.795449 0.355244 -0.066521 0
M  V30 END ATOM
M  V30 BEGIN BOND
M  V30 1 1 1 2
M  V30 2 1 2 3
M  V30 3 1 3 4
M  V30 4 2 4 5
M  V30 5 1 4 6
M  V30 6 1 6 7
M  V30 7 2 7 8
M  V30 8 1 8 9
M  V30 9 1 8 10
M  V30 10 2 10 11
M  V30 11 1 11 12
M  V30 12 1 11 13
M  V30 13 1 13 14
M  V30 14 1 14 15
M  V30 15 1 15 16
M  V30 16 1 16 17
M  V30 17 1 15 18
M  V30 18 2 18 19
M  V30 19 1 18 20
M  V30 20 2 13 21
M  V30 21 1 21 22
M  V30 22 1 21 7
M  V30 23 1 1 23
M  V30 24 1 1 24
M  V30 25 1 1 25
M  V30 26 1 2 26
M  V30 27 1 2 27
M  V30 28 1 3 28
M  V30 29 1 3 29
M  V30 30 1 6 30
M  V30 31 1 10 31
M  V30 32 1 14 32
M  V30 33 1 14 33
M  V30 34 1 15 34 CFG=3
M  V30 35 1 16 35
M  V30 36 1 16 36
M  V30 37 1 17 37
M  V30 38 1 17 38
M  V30 39 1 17 39
M  V30 40 1 20 40
M  V30 END BOND
M  V30 END CTAB
M  END
>  <Dataset>  (19) 
OralDrugs

>  <Ligand_Instance>  (19) 
nan

>  <PDB_ID>  (19) 
nan

>  <Standardized_SMILES>  (19) 
CCCC(=O)Nc1c(I)cc(I)c(CC(CC)C(=O)O)c1I

>  <Name>  (19) 
Tyropanoate Sodium

>  <Pocket>  (19) 
nan

>  <ATP_Site>  (19) 
nan

>  <Peripheral>  (19) 
nan

>  <Num_H_Atoms_ProtBoundConf>  (19) 
nan

>  <Num_Resolved_Atoms>  (19) 
nan

>  <Num_Not_Resolved_Atoms>  (19) 
nan

>  <2D_Mol_H>  (19) 
<rdkit.Chem.rdchem.Mol object at 0x72a238b934c0>

>  <MW>  (19) 
641.025

>  <HBA>  (19) 
3

>  <HBD>  (19) 
2

>  <LogP>  (19) 
4.8923

>  <NRB>  (19) 
9

>  <TPSA>  (19) 
66.4

>  <Num_Heavy_Atoms>  (19) 
22

>  <Ro5>  (19) 
[False, True, True, True, True, True]

>  <Ro5_Fulfilled>  (19) 
True

>  <Ro3>  (19) 
[False, True, True, False]

>  <Ro3_Fulfilled>  (19) 
False

>  <Fsp3>  (19) 
0.466667

>  <Fsp3_0.42>  (19) 
True

>  <Fsp3_0.45>  (19) 
True

>  <Stereogenic_Carbons>  (19) 
1

>  <C_Atoms>  (19) 
15

>  <FCStereo>  (19) 
0.066667

>  <SPS>  (19) 
265

>  <nSPS>  (19) 
12.045455

>  <PBF>  (19) 
1.086613

>  <PBF_0.6>  (19) 
True

>  <nPBF>  (19) 
0.049392

>  <nPBF_0.016>  (19) 
True

>  <PMI1>  (19) 
3846.025269

>  <PMI2>  (19) 
5335.284312

>  <PMI3>  (19) 
7989.769403

>  <NPR1>  (19) 
0.481369

>  <NPR2>  (19) 
0.667764

>  <Sum_NPR>  (19) 
1.149133

>  <Sum_NPR_1.07>  (19) 
True

>  <Sum_NPR_1.2>  (19) 
False

>  <MaxAbsEStateIndex>  (19) 
11.885968

>  <MaxEStateIndex>  (19) 
11.885968

>  <MinAbsEStateIndex>  (19) 
0.00392

>  <MinEStateIndex>  (19) 
-0.773872

>  <qed>  (19) 
0.417478

>  <MolWt>  (19) 
641.025

>  <HeavyAtomMolWt>  (19) 
622.881

>  <ExactMolWt>  (19) 
640.842087

>  <NumValenceElectrons>  (19) 
122

>  <NumRadicalElectrons>  (19) 
0

>  <MaxPartialCharge>  (19) 
0.306317

>  <MinPartialCharge>  (19) 
-0.481018

>  <MaxAbsPartialCharge>  (19) 
0.481018

>  <MinAbsPartialCharge>  (19) 
0.306317

>  <FpDensityMorgan1>  (19) 
1.227273

>  <FpDensityMorgan2>  (19) 
1.863636

>  <FpDensityMorgan3>  (19) 
2.363636

>  <BCUT2D_MWHI>  (19) 
126.914741

>  <BCUT2D_MWLOW>  (19) 
9.965853

>  <BCUT2D_CHGHI>  (19) 
2.216468

>  <BCUT2D_CHGLO>  (19) 
-2.175736

>  <BCUT2D_LOGPHI>  (19) 
2.333273

>  <BCUT2D_LOGPLOW>  (19) 
-2.184876

>  <BCUT2D_MRHI>  (19) 
14.115472

>  <BCUT2D_MRLOW>  (19) 
-0.141348

>  <AvgIpc>  (19) 
2.430575

>  <BalabanJ>  (19) 
3.179852

>  <BertzCT>  (19) 
575.641367

>  <Chi0>  (19) 
16.861443

>  <Chi0n>  (19) 
12.380731

>  <Chi0v>  (19) 
18.853226

>  <Chi1>  (19) 
10.310968

>  <Chi1n>  (19) 
7.002644

>  <Chi1v>  (19) 
10.238892

>  <Chi2n>  (19) 
4.953458

>  <Chi2v>  (19) 
8.356589

>  <Chi3n>  (19) 
3.299053

>  <Chi3v>  (19) 
6.302783

>  <Chi4n>  (19) 
2.014452

>  <Chi4v>  (19) 
6.095733

>  <HallKierAlpha>  (19) 
0.35

>  <Ipc>  (19) 
46705.931116

>  <Kappa1>  (19) 
20.394743

>  <Kappa2>  (19) 
9.598631

>  <Kappa3>  (19) 
5.461918

>  <LabuteASA>  (19) 
171.168537

>  <PEOE_VSA1>  (19) 
10.423316

>  <PEOE_VSA10>  (19) 
0.0

>  <PEOE_VSA11>  (19) 
0.0

>  <PEOE_VSA12>  (19) 
5.90718

>  <PEOE_VSA13>  (19) 
0.0

>  <PEOE_VSA14>  (19) 
5.969305

>  <PEOE_VSA2>  (19) 
9.589074

>  <PEOE_VSA3>  (19) 
0.0

>  <PEOE_VSA4>  (19) 
0.0

>  <PEOE_VSA5>  (19) 
0.0

>  <PEOE_VSA6>  (19) 
13.847474

>  <PEOE_VSA7>  (19) 
98.664895

>  <PEOE_VSA8>  (19) 
17.131368

>  <PEOE_VSA9>  (19) 
11.605292

>  <SMR_VSA1>  (19) 
14.695602

>  <SMR_VSA10>  (19) 
85.336483

>  <SMR_VSA2>  (19) 
0.0

>  <SMR_VSA3>  (19) 
0.0

>  <SMR_VSA4>  (19) 
5.917906

>  <SMR_VSA5>  (19) 
39.530761

>  <SMR_VSA6>  (19) 
5.316789

>  <SMR_VSA7>  (19) 
22.340365

>  <SMR_VSA8>  (19) 
0.0

>  <SMR_VSA9>  (19) 
0.0

>  <SlogP_VSA1>  (19) 
5.316789

>  <SlogP_VSA10>  (19) 
5.687386

>  <SlogP_VSA11>  (19) 
0.0

>  <SlogP_VSA12>  (19) 
67.772612

>  <SlogP_VSA2>  (19) 
16.983012

>  <SlogP_VSA3>  (19) 
16.009896

>  <SlogP_VSA4>  (19) 
16.628453

>  <SlogP_VSA5>  (19) 
38.673391

>  <SlogP_VSA6>  (19) 
6.066367

>  <SlogP_VSA7>  (19) 
0.0

>  <SlogP_VSA8>  (19) 
0.0

>  <SlogP_VSA9>  (19) 
0.0

>  <EState_VSA1>  (19) 
11.887211

>  <EState_VSA10>  (19) 
14.695602

>  <EState_VSA11>  (19) 
0.0

>  <EState_VSA2>  (19) 
5.90718

>  <EState_VSA3>  (19) 
19.262465

>  <EState_VSA4>  (19) 
28.382206

>  <EState_VSA5>  (19) 
0.0

>  <EState_VSA6>  (19) 
0.0

>  <EState_VSA7>  (19) 
19.913841

>  <EState_VSA8>  (19) 
73.0894

>  <EState_VSA9>  (19) 
0.0

>  <VSA_EState1>  (19) 
2.958907

>  <VSA_EState10>  (19) 
6.65215

>  <VSA_EState2>  (19) 
23.182152

>  <VSA_EState3>  (19) 
12.242333

>  <VSA_EState4>  (19) 
1.803678

>  <VSA_EState5>  (19) 
-1.179378

>  <VSA_EState6>  (19) 
1.994786

>  <VSA_EState7>  (19) 
2.355442

>  <VSA_EState8>  (19) 
3.84993

>  <VSA_EState9>  (19) 
0.0

>  <FractionCSP3>  (19) 
0.466667

>  <HeavyAtomCount>  (19) 
22

>  <NHOHCount>  (19) 
2

>  <NOCount>  (19) 
4

>  <NumAliphaticCarbocycles>  (19) 
0

>  <NumAliphaticHeterocycles>  (19) 
0

>  <NumAliphaticRings>  (19) 
0

>  <NumAromaticCarbocycles>  (19) 
1

>  <NumAromaticHeterocycles>  (19) 
0

>  <NumAromaticRings>  (19) 
1

>  <NumHAcceptors>  (19) 
2

>  <NumHDonors>  (19) 
2

>  <NumHeteroatoms>  (19) 
7

>  <NumRotatableBonds>  (19) 
7

>  <NumSaturatedCarbocycles>  (19) 
0

>  <NumSaturatedHeterocycles>  (19) 
0

>  <NumSaturatedRings>  (19) 
0

>  <RingCount>  (19) 
1

>  <MolLogP>  (19) 
4.8923

>  <MolMR>  (19) 
113.2515

>  <fr_Al_COO>  (19) 
1

>  <fr_Al_OH>  (19) 
0

>  <fr_Al_OH_noTert>  (19) 
0

>  <fr_ArN>  (19) 
0

>  <fr_Ar_COO>  (19) 
0

>  <fr_Ar_N>  (19) 
0

>  <fr_Ar_NH>  (19) 
0

>  <fr_Ar_OH>  (19) 
0

>  <fr_COO>  (19) 
1

>  <fr_COO2>  (19) 
1

>  <fr_C_O>  (19) 
2

>  <fr_C_O_noCOO>  (19) 
1

>  <fr_C_S>  (19) 
0

>  <fr_HOCCN>  (19) 
0

>  <fr_Imine>  (19) 
0

>  <fr_NH0>  (19) 
0

>  <fr_NH1>  (19) 
1

>  <fr_NH2>  (19) 
0

>  <fr_N_O>  (19) 
0

>  <fr_Ndealkylation1>  (19) 
0

>  <fr_Ndealkylation2>  (19) 
0

>  <fr_Nhpyrrole>  (19) 
0

>  <fr_SH>  (19) 
0

>  <fr_aldehyde>  (19) 
0

>  <fr_alkyl_carbamate>  (19) 
0

>  <fr_alkyl_halide>  (19) 
0

>  <fr_allylic_oxid>  (19) 
0

>  <fr_amide>  (19) 
1

>  <fr_amidine>  (19) 
0

>  <fr_aniline>  (19) 
1

>  <fr_aryl_methyl>  (19) 
0

>  <fr_azide>  (19) 
0

>  <fr_azo>  (19) 
0

>  <fr_barbitur>  (19) 
0

>  <fr_benzene>  (19) 
1

>  <fr_benzodiazepine>  (19) 
0

>  <fr_bicyclic>  (19) 
0

>  <fr_diazo>  (19) 
0

>  <fr_dihydropyridine>  (19) 
0

>  <fr_epoxide>  (19) 
0

>  <fr_ester>  (19) 
0

>  <fr_ether>  (19) 
0

>  <fr_furan>  (19) 
0

>  <fr_guanido>  (19) 
0

>  <fr_halogen>  (19) 
3

>  <fr_hdrzine>  (19) 
0

>  <fr_hdrzone>  (19) 
0

>  <fr_imidazole>  (19) 
0

>  <fr_imide>  (19) 
0

>  <fr_isocyan>  (19) 
0

>  <fr_isothiocyan>  (19) 
0

>  <fr_ketone>  (19) 
0

>  <fr_ketone_Topliss>  (19) 
0

>  <fr_lactam>  (19) 
0

>  <fr_lactone>  (19) 
0

>  <fr_methoxy>  (19) 
0

>  <fr_morpholine>  (19) 
0

>  <fr_nitrile>  (19) 
0

>  <fr_nitro>  (19) 
0

>  <fr_nitro_arom>  (19) 
0

>  <fr_nitro_arom_nonortho>  (19) 
0

>  <fr_nitroso>  (19) 
0

>  <fr_oxazole>  (19) 
0

>  <fr_oxime>  (19) 
0

>  <fr_para_hydroxylation>  (19) 
0

>  <fr_phenol>  (19) 
0

>  <fr_phenol_noOrthoHbond>  (19) 
0

>  <fr_phos_acid>  (19) 
0

>  <fr_phos_ester>  (19) 
0

>  <fr_piperdine>  (19) 
0

>  <fr_piperzine>  (19) 
0

>  <fr_priamide>  (19) 
0

>  <fr_prisulfonamd>  (19) 
0

>  <fr_pyridine>  (19) 
0

>  <fr_quatN>  (19) 
0

>  <fr_sulfide>  (19) 
0

>  <fr_sulfonamd>  (19) 
0

>  <fr_sulfone>  (19) 
0

>  <fr_term_acetylene>  (19) 
0

>  <fr_tetrazole>  (19) 
0

>  <fr_thiazole>  (19) 
0

>  <fr_thiocyan>  (19) 
0

>  <fr_thiophene>  (19) 
0

>  <fr_unbrch_alkane>  (19) 
0

>  <fr_urea>  (19) 
0

>  <NP_Likeness>  (19) 
-0.107202

$$$$
CHEMBL925
     RDKit          3D

  0  0  0  0  0  0  0  0  0  0999 V3000
M  V30 BEGIN CTAB
M  V30 COUNTS 24 24 0 0 0
M  V30 BEGIN ATOM
M  V30 1 N 2.084575 -0.064789 2.743981 0
M  V30 2 C 2.601548 -0.519210 1.475014 0 CFG=1
M  V30 3 C 1.661531 -1.542186 0.877110 0
M  V30 4 C 0.316390 -0.946393 0.662899 0
M  V30 5 C -0.620475 -1.021220 1.671544 0
M  V30 6 C -1.884202 -0.459144 1.464767 0
M  V30 7 C -2.118285 0.144733 0.245043 0
M  V30 8 O -3.374857 0.719565 0.001754 0
M  V30 9 C -1.206522 0.240483 -0.790779 0
M  V30 10 C 0.043821 -0.334149 -0.542434 0
M  V30 11 C 2.782498 0.669298 0.618074 0
M  V30 12 O 2.504807 1.854489 1.011417 0
M  V30 13 O 3.259245 0.685411 -0.685442 0
M  V30 14 H 1.735674 -0.800057 3.366529 0
M  V30 15 H 1.425782 0.741909 2.660006 0
M  V30 16 H 3.560913 -1.056275 1.701906 0
M  V30 17 H 1.561332 -2.346994 1.606123 0
M  V30 18 H 2.078550 -1.914555 -0.063079 0
M  V30 19 H -0.445339 -1.492248 2.629552 0
M  V30 20 H -2.628542 -0.505727 2.235713 0
M  V30 21 H -3.643478 1.627178 0.367429 0
M  V30 22 H -1.466592 0.730757 -1.718874 0
M  V30 23 H 0.762846 -0.264090 -1.346404 0
M  V30 24 H 3.860917 1.444960 -1.037838 0
M  V30 END ATOM
M  V30 BEGIN BOND
M  V30 1 1 1 2
M  V30 2 1 2 3
M  V30 3 1 3 4
M  V30 4 2 4 5
M  V30 5 1 5 6
M  V30 6 2 6 7
M  V30 7 1 7 8
M  V30 8 1 7 9
M  V30 9 2 9 10
M  V30 10 1 2 11
M  V30 11 2 11 12
M  V30 12 1 11 13
M  V30 13 1 10 4
M  V30 14 1 1 14
M  V30 15 1 1 15
M  V30 16 1 2 16 CFG=1
M  V30 17 1 3 17
M  V30 18 1 3 18
M  V30 19 1 5 19
M  V30 20 1 6 20
M  V30 21 1 8 21
M  V30 22 1 9 22
M  V30 23 1 10 23
M  V30 24 1 13 24
M  V30 END BOND
M  V30 END CTAB
M  END
>  <Dataset>  (20) 
OralDrugs

>  <Ligand_Instance>  (20) 
nan

>  <PDB_ID>  (20) 
nan

>  <Standardized_SMILES>  (20) 
N[C@@H](Cc1ccc(O)cc1)C(=O)O

>  <Name>  (20) 
Tyrosine

>  <Pocket>  (20) 
nan

>  <ATP_Site>  (20) 
nan

>  <Peripheral>  (20) 
nan

>  <Num_H_Atoms_ProtBoundConf>  (20) 
nan

>  <Num_Resolved_Atoms>  (20) 
nan

>  <Num_Not_Resolved_Atoms>  (20) 
nan

>  <2D_Mol_H>  (20) 
<rdkit.Chem.rdchem.Mol object at 0x72a238b935a0>

>  <MW>  (20) 
181.191

>  <HBA>  (20) 
4

>  <HBD>  (20) 
3

>  <LogP>  (20) 
0.3466

>  <NRB>  (20) 
5

>  <TPSA>  (20) 
83.55

>  <Num_Heavy_Atoms>  (20) 
13

>  <Ro5>  (20) 
[True, True, True, True, True, True]

>  <Ro5_Fulfilled>  (20) 
True

>  <Ro3>  (20) 
[True, False, True, True]

>  <Ro3_Fulfilled>  (20) 
True

>  <Fsp3>  (20) 
0.222222

>  <Fsp3_0.42>  (20) 
False

>  <Fsp3_0.45>  (20) 
False

>  <Stereogenic_Carbons>  (20) 
1

>  <C_Atoms>  (20) 
9

>  <FCStereo>  (20) 
0.111111

>  <SPS>  (20) 
161

>  <nSPS>  (20) 
12.384615

>  <PBF>  (20) 
0.745171

>  <PBF_0.6>  (20) 
True

>  <nPBF>  (20) 
0.057321

>  <nPBF_0.016>  (20) 
True

>  <PMI1>  (20) 
350.580451

>  <PMI2>  (20) 
982.377946

>  <PMI3>  (20) 
1100.043527

>  <NPR1>  (20) 
0.318697

>  <NPR2>  (20) 
0.893036

>  <Sum_NPR>  (20) 
1.211732

>  <Sum_NPR_1.07>  (20) 
True

>  <Sum_NPR_1.2>  (20) 
True

>  <MaxAbsEStateIndex>  (20) 
10.396196

>  <MaxEStateIndex>  (20) 
10.396196

>  <MinAbsEStateIndex>  (20) 
0.159858

>  <MinEStateIndex>  (20) 
-1.020301

>  <qed>  (20) 
0.62772

>  <MolWt>  (20) 
181.191

>  <HeavyAtomMolWt>  (20) 
170.103

>  <ExactMolWt>  (20) 
181.073893

>  <NumValenceElectrons>  (20) 
70

>  <NumRadicalElectrons>  (20) 
0

>  <MaxPartialCharge>  (20) 
0.320316

>  <MinPartialCharge>  (20) 
-0.507967

>  <MaxAbsPartialCharge>  (20) 
0.507967

>  <MinAbsPartialCharge>  (20) 
0.320316

>  <FpDensityMorgan1>  (20) 
1.384615

>  <FpDensityMorgan2>  (20) 
1.923077

>  <FpDensityMorgan3>  (20) 
2.384615

>  <BCUT2D_MWHI>  (20) 
16.367595

>  <BCUT2D_MWLOW>  (20) 
10.071564

>  <BCUT2D_CHGHI>  (20) 
2.108582

>  <BCUT2D_CHGLO>  (20) 
-2.05119

>  <BCUT2D_LOGPHI>  (20) 
2.101425

>  <BCUT2D_LOGPLOW>  (20) 
-2.316445

>  <BCUT2D_MRHI>  (20) 
5.730395

>  <BCUT2D_MRLOW>  (20) 
-0.137997

>  <AvgIpc>  (20) 
2.084518

>  <BalabanJ>  (20) 
2.641764

>  <BertzCT>  (20) 
294.233053

>  <Chi0>  (20) 
9.844935

>  <Chi0n>  (20) 
6.973884

>  <Chi0v>  (20) 
6.973884

>  <Chi1>  (20) 
6.092224

>  <Chi1n>  (20) 
3.856515

>  <Chi1v>  (20) 
3.856515

>  <Chi2n>  (20) 
2.815302

>  <Chi2v>  (20) 
2.815302

>  <Chi3n>  (20) 
1.709153

>  <Chi3v>  (20) 
1.709153

>  <Chi4n>  (20) 
0.973275

>  <Chi4v>  (20) 
0.973275

>  <HallKierAlpha>  (20) 
-1.55

>  <Ipc>  (20) 
758.764388

>  <Kappa1>  (20) 
9.537336

>  <Kappa2>  (20) 
3.909516

>  <Kappa3>  (20) 
2.757388

>  <LabuteASA>  (20) 
75.61611

>  <PEOE_VSA1>  (20) 
15.946722

>  <PEOE_VSA10>  (20) 
11.791353

>  <PEOE_VSA11>  (20) 
0.0

>  <PEOE_VSA12>  (20) 
0.0

>  <PEOE_VSA13>  (20) 
0.0

>  <PEOE_VSA14>  (20) 
5.969305

>  <PEOE_VSA2>  (20) 
4.794537

>  <PEOE_VSA3>  (20) 
0.0

>  <PEOE_VSA4>  (20) 
0.0

>  <PEOE_VSA5>  (20) 
0.0

>  <PEOE_VSA6>  (20) 
12.132734

>  <PEOE_VSA7>  (20) 
24.117007

>  <PEOE_VSA8>  (20) 
0.0

>  <PEOE_VSA9>  (20) 
0.0

>  <SMR_VSA1>  (20) 
15.007592

>  <SMR_VSA10>  (20) 
5.969305

>  <SMR_VSA2>  (20) 
0.0

>  <SMR_VSA3>  (20) 
0.0

>  <SMR_VSA4>  (20) 
5.733667

>  <SMR_VSA5>  (20) 
12.462662

>  <SMR_VSA6>  (20) 
0.0

>  <SMR_VSA7>  (20) 
29.82892

>  <SMR_VSA8>  (20) 
0.0

>  <SMR_VSA9>  (20) 
5.749512

>  <SlogP_VSA1>  (20) 
5.733667

>  <SlogP_VSA10>  (20) 
0.0

>  <SlogP_VSA11>  (20) 
5.749512

>  <SlogP_VSA12>  (20) 
0.0

>  <SlogP_VSA2>  (20) 
22.224201

>  <SlogP_VSA3>  (20) 
11.215359

>  <SlogP_VSA4>  (20) 
0.0

>  <SlogP_VSA5>  (20) 
5.563451

>  <SlogP_VSA6>  (20) 
24.265468

>  <SlogP_VSA7>  (20) 
0.0

>  <SlogP_VSA8>  (20) 
0.0

>  <SlogP_VSA9>  (20) 
0.0

>  <EState_VSA1>  (20) 
12.011146

>  <EState_VSA10>  (20) 
4.794537

>  <EState_VSA11>  (20) 
0.0

>  <EState_VSA2>  (20) 
12.170333

>  <EState_VSA3>  (20) 
0.0

>  <EState_VSA4>  (20) 
5.563451

>  <EState_VSA5>  (20) 
12.132734

>  <EState_VSA6>  (20) 
12.132734

>  <EState_VSA7>  (20) 
0.0

>  <EState_VSA8>  (20) 
0.0

>  <EState_VSA9>  (20) 
15.946722

>  <VSA_EState1>  (20) 
0.0

>  <VSA_EState10>  (20) 
0.0

>  <VSA_EState2>  (20) 
10.396196

>  <VSA_EState3>  (20) 
17.475926

>  <VSA_EState4>  (20) 
6.123313

>  <VSA_EState5>  (20) 
-0.860443

>  <VSA_EState6>  (20) 
5.424915

>  <VSA_EState7>  (20) 
0.273426

>  <VSA_EState8>  (20) 
0.0

>  <VSA_EState9>  (20) 
0.0

>  <FractionCSP3>  (20) 
0.222222

>  <HeavyAtomCount>  (20) 
13

>  <NHOHCount>  (20) 
4

>  <NOCount>  (20) 
4

>  <NumAliphaticCarbocycles>  (20) 
0

>  <NumAliphaticHeterocycles>  (20) 
0

>  <NumAliphaticRings>  (20) 
0

>  <NumAromaticCarbocycles>  (20) 
1

>  <NumAromaticHeterocycles>  (20) 
0

>  <NumAromaticRings>  (20) 
1

>  <NumHAcceptors>  (20) 
3

>  <NumHDonors>  (20) 
3

>  <NumHeteroatoms>  (20) 
4

>  <NumRotatableBonds>  (20) 
3

>  <NumSaturatedCarbocycles>  (20) 
0

>  <NumSaturatedHeterocycles>  (20) 
0

>  <NumSaturatedRings>  (20) 
0

>  <RingCount>  (20) 
1

>  <MolLogP>  (20) 
0.3466

>  <MolMR>  (20) 
47.422

>  <fr_Al_COO>  (20) 
1

>  <fr_Al_OH>  (20) 
0

>  <fr_Al_OH_noTert>  (20) 
0

>  <fr_ArN>  (20) 
0

>  <fr_Ar_COO>  (20) 
0

>  <fr_Ar_N>  (20) 
0

>  <fr_Ar_NH>  (20) 
0

>  <fr_Ar_OH>  (20) 
1

>  <fr_COO>  (20) 
1

>  <fr_COO2>  (20) 
1

>  <fr_C_O>  (20) 
1

>  <fr_C_O_noCOO>  (20) 
0

>  <fr_C_S>  (20) 
0

>  <fr_HOCCN>  (20) 
0

>  <fr_Imine>  (20) 
0

>  <fr_NH0>  (20) 
0

>  <fr_NH1>  (20) 
0

>  <fr_NH2>  (20) 
1

>  <fr_N_O>  (20) 
0

>  <fr_Ndealkylation1>  (20) 
0

>  <fr_Ndealkylation2>  (20) 
0

>  <fr_Nhpyrrole>  (20) 
0

>  <fr_SH>  (20) 
0

>  <fr_aldehyde>  (20) 
0

>  <fr_alkyl_carbamate>  (20) 
0

>  <fr_alkyl_halide>  (20) 
0

>  <fr_allylic_oxid>  (20) 
0

>  <fr_amide>  (20) 
0

>  <fr_amidine>  (20) 
0

>  <fr_aniline>  (20) 
0

>  <fr_aryl_methyl>  (20) 
0

>  <fr_azide>  (20) 
0

>  <fr_azo>  (20) 
0

>  <fr_barbitur>  (20) 
0

>  <fr_benzene>  (20) 
1

>  <fr_benzodiazepine>  (20) 
0

>  <fr_bicyclic>  (20) 
0

>  <fr_diazo>  (20) 
0

>  <fr_dihydropyridine>  (20) 
0

>  <fr_epoxide>  (20) 
0

>  <fr_ester>  (20) 
0

>  <fr_ether>  (20) 
0

>  <fr_furan>  (20) 
0

>  <fr_guanido>  (20) 
0

>  <fr_halogen>  (20) 
0

>  <fr_hdrzine>  (20) 
0

>  <fr_hdrzone>  (20) 
0

>  <fr_imidazole>  (20) 
0

>  <fr_imide>  (20) 
0

>  <fr_isocyan>  (20) 
0

>  <fr_isothiocyan>  (20) 
0

>  <fr_ketone>  (20) 
0

>  <fr_ketone_Topliss>  (20) 
0

>  <fr_lactam>  (20) 
0

>  <fr_lactone>  (20) 
0

>  <fr_methoxy>  (20) 
0

>  <fr_morpholine>  (20) 
0

>  <fr_nitrile>  (20) 
0

>  <fr_nitro>  (20) 
0

>  <fr_nitro_arom>  (20) 
0

>  <fr_nitro_arom_nonortho>  (20) 
0

>  <fr_nitroso>  (20) 
0

>  <fr_oxazole>  (20) 
0

>  <fr_oxime>  (20) 
0

>  <fr_para_hydroxylation>  (20) 
0

>  <fr_phenol>  (20) 
1

>  <fr_phenol_noOrthoHbond>  (20) 
1

>  <fr_phos_acid>  (20) 
0

>  <fr_phos_ester>  (20) 
0

>  <fr_piperdine>  (20) 
0

>  <fr_piperzine>  (20) 
0

>  <fr_priamide>  (20) 
0

>  <fr_prisulfonamd>  (20) 
0

>  <fr_pyridine>  (20) 
0

>  <fr_quatN>  (20) 
0

>  <fr_sulfide>  (20) 
0

>  <fr_sulfonamd>  (20) 
0

>  <fr_sulfone>  (20) 
0

>  <fr_term_acetylene>  (20) 
0

>  <fr_tetrazole>  (20) 
0

>  <fr_thiazole>  (20) 
0

>  <fr_thiocyan>  (20) 
0

>  <fr_thiophene>  (20) 
0

>  <fr_unbrch_alkane>  (20) 
0

>  <fr_urea>  (20) 
0

>  <NP_Likeness>  (20) 
0.877712

$$$$
CHEMBL2364638
     RDKit          3D

  0  0  0  0  0  0  0  0  0  0999 V3000
M  V30 BEGIN CTAB
M  V30 COUNTS 66 71 0 0 0
M  V30 BEGIN ATOM
M  V30 1 C 2.218856 1.271583 2.411477 0
M  V30 2 C 2.836678 2.392294 1.665034 0 CFG=2
M  V30 3 C 1.907991 3.188629 0.818773 0 CFG=2
M  V30 4 C 0.587935 3.439678 1.501991 0
M  V30 5 C 0.473897 4.611201 2.258540 0
M  V30 6 C -0.673155 5.022632 2.946397 0
M  V30 7 C -1.766641 4.187980 2.855569 0
M  V30 8 C -1.692772 3.025195 2.119561 0
M  V30 9 C -0.553000 2.640350 1.450415 0
M  V30 10 C 1.638508 2.671728 -0.532012 0
M  V30 11 C 2.308169 1.417852 -0.963061 0 CFG=2
M  V30 12 N 1.368967 0.313930 -0.821068 0
M  V30 13 C 0.949932 -0.443074 -1.949160 0
M  V30 14 O 1.402638 -0.152485 -3.108341 0
M  V30 15 C 0.016829 -1.564405 -1.919649 0
M  V30 16 C -0.298928 -2.195176 -3.103193 0
M  V30 17 N -1.166977 -3.249384 -3.128913 0
M  V30 18 C -1.760468 -3.733991 -2.024284 0
M  V30 19 C -1.468622 -3.128031 -0.820085 0
M  V30 20 C -0.592817 -2.062681 -0.786483 0
M  V30 21 C -2.220042 -3.810590 0.259885 0
M  V30 22 C -2.751007 -5.062137 -0.380282 0 CFG=1
M  V30 23 C -2.717118 -4.853378 -1.855071 0
M  V30 24 C -1.991502 -6.265055 0.005663 0
M  V30 25 O -0.766303 -6.393464 -0.293003 0
M  V30 26 N -2.864893 -7.132081 0.705793 0
M  V30 27 C -4.167983 -6.561184 0.801044 0
M  V30 28 N -5.351380 -6.922443 1.335326 0
M  V30 29 C -6.422465 -6.124337 1.245766 0
M  V30 30 C -6.398396 -4.889497 0.609785 0
M  V30 31 C -5.198230 -4.474408 0.043178 0
M  V30 32 C -4.121370 -5.331072 0.160744 0
M  V30 33 C 3.596434 1.154014 -0.335054 0
M  V30 34 O 4.410146 0.288583 -0.726021 0
M  V30 35 N 3.936676 1.942124 0.796761 0
M  V30 36 C 5.336784 2.291468 1.093197 0
M  V30 37 C 6.008149 1.278496 1.969719 0
M  V30 38 F 7.315209 1.712793 2.178857 0
M  V30 39 F 5.431162 1.144308 3.205769 0
M  V30 40 F 6.050091 0.081736 1.283845 0
M  V30 41 H 2.414639 0.321985 1.832218 0
M  V30 42 H 2.651706 1.155624 3.449259 0
M  V30 43 H 1.141718 1.329517 2.572178 0
M  V30 44 H 3.313692 3.060660 2.427387 0
M  V30 45 H 2.353549 4.231230 0.724877 0
M  V30 46 H 1.330789 5.296463 2.349160 0
M  V30 47 H -0.663956 5.944948 3.504195 0
M  V30 48 H -2.668704 4.448262 3.358187 0
M  V30 49 H -2.548400 2.364073 2.044115 0
M  V30 50 H -0.447837 1.752165 0.863424 0
M  V30 51 H 1.938280 3.465814 -1.286712 0
M  V30 52 H 0.516407 2.613726 -0.713319 0
M  V30 53 H 2.518017 1.442337 -2.079994 0
M  V30 54 H 0.906677 -0.049984 0.039047 0
M  V30 55 H 0.088219 -1.930143 -4.068180 0
M  V30 56 H -0.379792 -1.608717 0.150891 0
M  V30 57 H -1.511031 -4.156656 1.057693 0
M  V30 58 H -2.977925 -3.180235 0.735386 0
M  V30 59 H -2.310881 -5.729388 -2.414807 0
M  V30 60 H -3.690855 -4.549324 -2.281306 0
M  V30 61 H -2.590689 -8.062107 1.097962 0
M  V30 62 H -7.399683 -6.396261 1.673672 0
M  V30 63 H -7.264117 -4.241672 0.535985 0
M  V30 64 H -5.182049 -3.528319 -0.443095 0
M  V30 65 H 5.245082 3.279881 1.631902 0
M  V30 66 H 5.922943 2.424118 0.179702 0
M  V30 END ATOM
M  V30 BEGIN BOND
M  V30 1 1 1 2
M  V30 2 1 2 3
M  V30 3 1 3 4
M  V30 4 2 4 5
M  V30 5 1 5 6
M  V30 6 2 6 7
M  V30 7 1 7 8
M  V30 8 2 8 9
M  V30 9 1 3 10
M  V30 10 1 10 11
M  V30 11 1 11 12
M  V30 12 1 12 13
M  V30 13 2 13 14
M  V30 14 1 13 15
M  V30 15 2 15 16
M  V30 16 1 16 17
M  V30 17 2 17 18
M  V30 18 1 18 19
M  V30 19 2 19 20
M  V30 20 1 19 21
M  V30 21 1 22 21 CFG=1
M  V30 22 1 22 23
M  V30 23 1 22 24
M  V30 24 2 24 25
M  V30 25 1 24 26
M  V30 26 1 26 27
M  V30 27 2 27 28
M  V30 28 1 28 29
M  V30 29 2 29 30
M  V30 30 1 30 31
M  V30 31 2 31 32
M  V30 32 1 11 33
M  V30 33 2 33 34
M  V30 34 1 33 35
M  V30 35 1 35 36
M  V30 36 1 36 37
M  V30 37 1 37 38
M  V30 38 1 37 39
M  V30 39 1 37 40
M  V30 40 1 35 2
M  V30 41 1 9 4
M  V30 42 1 20 15
M  V30 43 1 32 22
M  V30 44 1 23 18
M  V30 45 1 32 27
M  V30 46 1 1 41
M  V30 47 1 1 42
M  V30 48 1 1 43
M  V30 49 1 2 44 CFG=1
M  V30 50 1 3 45 CFG=3
M  V30 51 1 5 46
M  V30 52 1 6 47
M  V30 53 1 7 48
M  V30 54 1 8 49
M  V30 55 1 9 50
M  V30 56 1 10 51
M  V30 57 1 10 52
M  V30 58 1 11 53 CFG=3
M  V30 59 1 12 54
M  V30 60 1 16 55
M  V30 61 1 20 56
M  V30 62 1 21 57
M  V30 63 1 21 58
M  V30 64 1 23 59
M  V30 65 1 23 60
M  V30 66 1 26 61
M  V30 67 1 29 62
M  V30 68 1 30 63
M  V30 69 1 31 64
M  V30 70 1 36 65
M  V30 71 1 36 66
M  V30 END BOND
M  V30 END CTAB
M  END
>  <Dataset>  (21) 
OralDrugs

>  <Ligand_Instance>  (21) 
nan

>  <PDB_ID>  (21) 
nan

>  <Standardized_SMILES>  (21) 
C[C@@H]1[C@H](c2ccccc2)C[C@H](NC(=O)c2cnc3c(c2)C[C@@]2(C3)C(=O)Nc3ncccc32)C(=O)N1CC(F)(F)F

>  <Name>  (21) 
Ubrogepant

>  <Pocket>  (21) 
nan

>  <ATP_Site>  (21) 
nan

>  <Peripheral>  (21) 
nan

>  <Num_H_Atoms_ProtBoundConf>  (21) 
nan

>  <Num_Resolved_Atoms>  (21) 
nan

>  <Num_Not_Resolved_Atoms>  (21) 
nan

>  <2D_Mol_H>  (21) 
<rdkit.Chem.rdchem.Mol object at 0x72a238b93680>

>  <MW>  (21) 
549.553

>  <HBA>  (21) 
5

>  <HBD>  (21) 
2

>  <LogP>  (21) 
3.5306

>  <NRB>  (21) 
5

>  <TPSA>  (21) 
104.29

>  <Num_Heavy_Atoms>  (21) 
40

>  <Ro5>  (21) 
[False, True, True, True, True, True]

>  <Ro5_Fulfilled>  (21) 
True

>  <Ro3>  (21) 
[False, False, True, False]

>  <Ro3_Fulfilled>  (21) 
False

>  <Fsp3>  (21) 
0.344828

>  <Fsp3_0.42>  (21) 
False

>  <Fsp3_0.45>  (21) 
False

>  <Stereogenic_Carbons>  (21) 
4

>  <C_Atoms>  (21) 
29

>  <FCStereo>  (21) 
0.137931

>  <SPS>  (21) 
1020

>  <nSPS>  (21) 
25.5

>  <PBF>  (21) 
1.189031

>  <PBF_0.6>  (21) 
True

>  <nPBF>  (21) 
0.029726

>  <nPBF_0.016>  (21) 
True

>  <PMI1>  (21) 
3900.736353

>  <PMI2>  (21) 
13274.305113

>  <PMI3>  (21) 
14651.57876

>  <NPR1>  (21) 
0.266233

>  <NPR2>  (21) 
0.905998

>  <Sum_NPR>  (21) 
1.172231

>  <Sum_NPR_1.07>  (21) 
True

>  <Sum_NPR_1.2>  (21) 
False

>  <MaxAbsEStateIndex>  (21) 
13.422074

>  <MaxEStateIndex>  (21) 
13.422074

>  <MinAbsEStateIndex>  (21) 
0.162248

>  <MinEStateIndex>  (21) 
-4.585727

>  <qed>  (21) 
0.518443

>  <MolWt>  (21) 
549.553

>  <HeavyAtomMolWt>  (21) 
523.345

>  <ExactMolWt>  (21) 
549.198774

>  <NumValenceElectrons>  (21) 
206

>  <NumRadicalElectrons>  (21) 
0

>  <MaxPartialCharge>  (21) 
0.405534

>  <MinPartialCharge>  (21) 
-0.340162

>  <MaxAbsPartialCharge>  (21) 
0.405534

>  <MinAbsPartialCharge>  (21) 
0.340162

>  <FpDensityMorgan1>  (21) 
1.125

>  <FpDensityMorgan2>  (21) 
1.9

>  <FpDensityMorgan3>  (21) 
2.65

>  <BCUT2D_MWHI>  (21) 
19.413209

>  <BCUT2D_MWLOW>  (21) 
9.79561

>  <BCUT2D_CHGHI>  (21) 
2.516393

>  <BCUT2D_CHGLO>  (21) 
-2.430222

>  <BCUT2D_LOGPHI>  (21) 
2.457417

>  <BCUT2D_LOGPLOW>  (21) 
-2.593032

>  <BCUT2D_MRHI>  (21) 
6.060541

>  <BCUT2D_MRLOW>  (21) 
-0.170338

>  <AvgIpc>  (21) 
3.444808

>  <BalabanJ>  (21) 
1.245775

>  <BertzCT>  (21) 
1512.24938

>  <Chi0>  (21) 
28.233476

>  <Chi0n>  (21) 
21.53426

>  <Chi0v>  (21) 
21.53426

>  <Chi1>  (21) 
19.054299

>  <Chi1n>  (21) 
13.033987

>  <Chi1v>  (21) 
13.033987

>  <Chi2n>  (21) 
10.720011

>  <Chi2v>  (21) 
10.720011

>  <Chi3n>  (21) 
8.300792

>  <Chi3v>  (21) 
8.300792

>  <Chi4n>  (21) 
6.30201

>  <Chi4v>  (21) 
6.30201

>  <HallKierAlpha>  (21) 
-4.28

>  <Ipc>  (21) 
1179943975.305194

>  <Kappa1>  (21) 
25.969007

>  <Kappa2>  (21) 
9.424923

>  <Kappa3>  (21) 
4.386398

>  <LabuteASA>  (21) 
227.552372

>  <PEOE_VSA1>  (21) 
15.533487

>  <PEOE_VSA10>  (21) 
18.40446

>  <PEOE_VSA11>  (21) 
0.0

>  <PEOE_VSA12>  (21) 
11.814359

>  <PEOE_VSA13>  (21) 
5.90718

>  <PEOE_VSA14>  (21) 
6.176299

>  <PEOE_VSA2>  (21) 
19.36759

>  <PEOE_VSA3>  (21) 
4.983979

>  <PEOE_VSA4>  (21) 
13.171245

>  <PEOE_VSA5>  (21) 
0.0

>  <PEOE_VSA6>  (21) 
36.398202

>  <PEOE_VSA7>  (21) 
43.025018

>  <PEOE_VSA8>  (21) 
42.031635

>  <PEOE_VSA9>  (21) 
10.978442

>  <SMR_VSA1>  (21) 
27.554857

>  <SMR_VSA10>  (21) 
23.539402

>  <SMR_VSA2>  (21) 
0.0

>  <SMR_VSA3>  (21) 
20.184655

>  <SMR_VSA4>  (21) 
0.0

>  <SMR_VSA5>  (21) 
55.779079

>  <SMR_VSA6>  (21) 
11.861545

>  <SMR_VSA7>  (21) 
88.872358

>  <SMR_VSA8>  (21) 
0.0

>  <SMR_VSA9>  (21) 
0.0

>  <SlogP_VSA1>  (21) 
10.633577

>  <SlogP_VSA10>  (21) 
18.989108

>  <SlogP_VSA11>  (21) 
0.0

>  <SlogP_VSA12>  (21) 
0.0

>  <SlogP_VSA2>  (21) 
57.394143

>  <SlogP_VSA3>  (21) 
27.845708

>  <SlogP_VSA4>  (21) 
0.0

>  <SlogP_VSA5>  (21) 
52.004736

>  <SlogP_VSA6>  (21) 
60.924624

>  <SlogP_VSA7>  (21) 
0.0

>  <SlogP_VSA8>  (21) 
0.0

>  <SlogP_VSA9>  (21) 
0.0

>  <EState_VSA1>  (21) 
47.951993

>  <EState_VSA10>  (21) 
27.554857

>  <EState_VSA11>  (21) 
0.0

>  <EState_VSA2>  (21) 
17.891453

>  <EState_VSA3>  (21) 
24.353434

>  <EState_VSA4>  (21) 
21.590264

>  <EState_VSA5>  (21) 
6.196844

>  <EState_VSA6>  (21) 
37.386049

>  <EState_VSA7>  (21) 
24.265468

>  <EState_VSA8>  (21) 
20.601534

>  <EState_VSA9>  (21) 
0.0

>  <VSA_EState1>  (21) 
40.266223

>  <VSA_EState10>  (21) 
0.0

>  <VSA_EState2>  (21) 
49.000641

>  <VSA_EState3>  (21) 
5.494269

>  <VSA_EState4>  (21) 
2.302386

>  <VSA_EState5>  (21) 
-1.450312

>  <VSA_EState6>  (21) 
12.435339

>  <VSA_EState7>  (21) 
-0.752935

>  <VSA_EState8>  (21) 
0.204389

>  <VSA_EState9>  (21) 
0.0

>  <FractionCSP3>  (21) 
0.344828

>  <HeavyAtomCount>  (21) 
40

>  <NHOHCount>  (21) 
2

>  <NOCount>  (21) 
8

>  <NumAliphaticCarbocycles>  (21) 
1

>  <NumAliphaticHeterocycles>  (21) 
2

>  <NumAliphaticRings>  (21) 
3

>  <NumAromaticCarbocycles>  (21) 
1

>  <NumAromaticHeterocycles>  (21) 
2

>  <NumAromaticRings>  (21) 
3

>  <NumHAcceptors>  (21) 
5

>  <NumHDonors>  (21) 
2

>  <NumHeteroatoms>  (21) 
11

>  <NumRotatableBonds>  (21) 
4

>  <NumSaturatedCarbocycles>  (21) 
0

>  <NumSaturatedHeterocycles>  (21) 
1

>  <NumSaturatedRings>  (21) 
1

>  <RingCount>  (21) 
6

>  <MolLogP>  (21) 
3.5306

>  <MolMR>  (21) 
138.4739

>  <fr_Al_COO>  (21) 
0

>  <fr_Al_OH>  (21) 
0

>  <fr_Al_OH_noTert>  (21) 
0

>  <fr_ArN>  (21) 
0

>  <fr_Ar_COO>  (21) 
0

>  <fr_Ar_N>  (21) 
2

>  <fr_Ar_NH>  (21) 
0

>  <fr_Ar_OH>  (21) 
0

>  <fr_COO>  (21) 
0

>  <fr_COO2>  (21) 
0

>  <fr_C_O>  (21) 
3

>  <fr_C_O_noCOO>  (21) 
3

>  <fr_C_S>  (21) 
0

>  <fr_HOCCN>  (21) 
0

>  <fr_Imine>  (21) 
0

>  <fr_NH0>  (21) 
3

>  <fr_NH1>  (21) 
2

>  <fr_NH2>  (21) 
0

>  <fr_N_O>  (21) 
0

>  <fr_Ndealkylation1>  (21) 
0

>  <fr_Ndealkylation2>  (21) 
1

>  <fr_Nhpyrrole>  (21) 
0

>  <fr_SH>  (21) 
0

>  <fr_aldehyde>  (21) 
0

>  <fr_alkyl_carbamate>  (21) 
0

>  <fr_alkyl_halide>  (21) 
3

>  <fr_allylic_oxid>  (21) 
0

>  <fr_amide>  (21) 
3

>  <fr_amidine>  (21) 
0

>  <fr_aniline>  (21) 
1

>  <fr_aryl_methyl>  (21) 
0

>  <fr_azide>  (21) 
0

>  <fr_azo>  (21) 
0

>  <fr_barbitur>  (21) 
0

>  <fr_benzene>  (21) 
1

>  <fr_benzodiazepine>  (21) 
0

>  <fr_bicyclic>  (21) 
3

>  <fr_diazo>  (21) 
0

>  <fr_dihydropyridine>  (21) 
0

>  <fr_epoxide>  (21) 
0

>  <fr_ester>  (21) 
0

>  <fr_ether>  (21) 
0

>  <fr_furan>  (21) 
0

>  <fr_guanido>  (21) 
0

>  <fr_halogen>  (21) 
3

>  <fr_hdrzine>  (21) 
0

>  <fr_hdrzone>  (21) 
0

>  <fr_imidazole>  (21) 
0

>  <fr_imide>  (21) 
0

>  <fr_isocyan>  (21) 
0

>  <fr_isothiocyan>  (21) 
0

>  <fr_ketone>  (21) 
0

>  <fr_ketone_Topliss>  (21) 
0

>  <fr_lactam>  (21) 
0

>  <fr_lactone>  (21) 
0

>  <fr_methoxy>  (21) 
0

>  <fr_morpholine>  (21) 
0

>  <fr_nitrile>  (21) 
0

>  <fr_nitro>  (21) 
0

>  <fr_nitro_arom>  (21) 
0

>  <fr_nitro_arom_nonortho>  (21) 
0

>  <fr_nitroso>  (21) 
0

>  <fr_oxazole>  (21) 
0

>  <fr_oxime>  (21) 
0

>  <fr_para_hydroxylation>  (21) 
0

>  <fr_phenol>  (21) 
0

>  <fr_phenol_noOrthoHbond>  (21) 
0

>  <fr_phos_acid>  (21) 
0

>  <fr_phos_ester>  (21) 
0

>  <fr_piperdine>  (21) 
1

>  <fr_piperzine>  (21) 
0

>  <fr_priamide>  (21) 
0

>  <fr_prisulfonamd>  (21) 
0

>  <fr_pyridine>  (21) 
2

>  <fr_quatN>  (21) 
0

>  <fr_sulfide>  (21) 
0

>  <fr_sulfonamd>  (21) 
0

>  <fr_sulfone>  (21) 
0

>  <fr_term_acetylene>  (21) 
0

>  <fr_tetrazole>  (21) 
0

>  <fr_thiazole>  (21) 
0

>  <fr_thiocyan>  (21) 
0

>  <fr_thiophene>  (21) 
0

>  <fr_unbrch_alkane>  (21) 
0

>  <fr_urea>  (21) 
0

>  <NP_Likeness>  (21) 
-0.407421

$$$$
CHEMBL3948730
     RDKit          3D

  0  0  0  0  0  0  0  0  0  0999 V3000
M  V30 BEGIN CTAB
M  V30 COUNTS 66 71 0 0 0
M  V30 BEGIN ATOM
M  V30 1 C 3.334372 -3.460900 7.801588 0
M  V30 2 C 2.441942 -2.442977 7.178921 0
M  V30 3 C 1.826801 -1.609049 8.301317 0
M  V30 4 O 3.041288 -1.620444 6.215523 0
M  V30 5 C 2.584351 -1.312204 4.969075 0
M  V30 6 C 1.408780 -1.753106 4.341006 0
M  V30 7 C 1.061549 -1.357503 3.069284 0
M  V30 8 C 1.852250 -0.499839 2.332054 0
M  V30 9 C 1.399228 -0.149437 0.992955 0
M  V30 10 N 1.025052 -0.938888 -0.033034 0
M  V30 11 N 0.655123 -0.243728 -1.070766 0
M  V30 12 C 0.166937 -0.601034 -2.420510 0 CFG=1
M  V30 13 C 0.651738 -1.977162 -2.662862 0
M  V30 14 C -1.254885 -0.333328 -2.431659 0
M  V30 15 O -1.684012 0.712056 -1.737417 0
M  V30 16 C -2.916891 1.082396 -1.645495 0
M  V30 17 C -3.216047 2.198660 -0.884131 0
M  V30 18 C -4.499697 2.694805 -0.709779 0
M  V30 19 C -5.493643 1.985269 -1.362517 0
M  V30 20 F -6.775028 2.448042 -1.214389 0
M  V30 21 C -5.272032 0.867375 -2.136739 0
M  V30 22 C -3.977878 0.442546 -2.258159 0
M  V30 23 C -3.588982 -0.665313 -3.002944 0
M  V30 24 O -4.491112 -1.310679 -3.597448 0
M  V30 25 C -2.244378 -1.010589 -3.061394 0
M  V30 26 C -1.965973 -2.179887 -3.889525 0
M  V30 27 C -1.903842 -3.543377 -3.691188 0
M  V30 28 C -1.611381 -4.402945 -4.710790 0
M  V30 29 C -1.361946 -3.959371 -5.989048 0
M  V30 30 C -1.413748 -2.587937 -6.234042 0
M  V30 31 F -1.156478 -2.245320 -7.508513 0
M  V30 32 C -1.712135 -1.718381 -5.192482 0
M  V30 33 C 0.766319 1.090234 -0.780208 0
M  V30 34 N 0.515495 2.230277 -1.464423 0
M  V30 35 C 0.697206 3.450769 -0.939758 0
M  V30 36 N 1.155910 3.545753 0.342826 0
M  V30 37 C 1.409343 2.411232 1.034195 0
M  V30 38 N 1.849909 2.613571 2.367262 0
M  V30 39 C 1.237279 1.138860 0.531097 0
M  V30 40 C 3.011695 -0.065770 2.947958 0
M  V30 41 C 3.362864 -0.458313 4.219592 0
M  V30 42 F 4.520792 0.038790 4.710606 0
M  V30 43 H 4.081312 -2.956449 8.458132 0
M  V30 44 H 2.693683 -4.044775 8.532346 0
M  V30 45 H 3.783921 -4.198244 7.132875 0
M  V30 46 H 1.568866 -2.957345 6.709517 0
M  V30 47 H 2.258963 -1.965639 9.252795 0
M  V30 48 H 2.192070 -0.564112 8.181057 0
M  V30 49 H 0.743664 -1.704216 8.376477 0
M  V30 50 H 0.802510 -2.424087 4.922204 0
M  V30 51 H 0.122005 -1.760852 2.670850 0
M  V30 52 H 0.656352 0.070938 -3.153876 0
M  V30 53 H 0.235492 -2.740415 -1.968930 0
M  V30 54 H 0.698829 -2.292183 -3.718610 0
M  V30 55 H 1.750741 -1.968693 -2.366016 0
M  V30 56 H -2.454843 2.786594 -0.346845 0
M  V30 57 H -4.708265 3.574055 -0.105802 0
M  V30 58 H -6.058098 0.320550 -2.643070 0
M  V30 59 H -2.123356 -3.723118 -2.629281 0
M  V30 60 H -1.614924 -5.431999 -4.343712 0
M  V30 61 H -1.143642 -4.746435 -6.702438 0
M  V30 62 H -1.705693 -0.693506 -5.584115 0
M  V30 63 H 0.443238 4.242235 -1.633959 0
M  V30 64 H 2.753414 3.175696 2.429525 0
M  V30 65 H 1.494940 2.340847 3.324386 0
M  V30 66 H 3.649464 0.583700 2.397686 0
M  V30 END ATOM
M  V30 BEGIN BOND
M  V30 1 1 1 2
M  V30 2 1 2 3
M  V30 3 1 2 4
M  V30 4 1 4 5
M  V30 5 2 5 6
M  V30 6 1 6 7
M  V30 7 2 7 8
M  V30 8 1 8 9
M  V30 9 2 9 10
M  V30 10 1 10 11
M  V30 11 1 11 12
M  V30 12 1 12 13
M  V30 13 1 12 14
M  V30 14 1 14 15
M  V30 15 1 15 16
M  V30 16 2 16 17
M  V30 17 1 17 18
M  V30 18 2 18 19
M  V30 19 1 19 20
M  V30 20 1 19 21
M  V30 21 2 21 22
M  V30 22 1 22 23
M  V30 23 2 23 24
M  V30 24 1 23 25
M  V30 25 1 25 26
M  V30 26 2 26 27
M  V30 27 1 27 28
M  V30 28 2 28 29
M  V30 29 1 29 30
M  V30 30 1 30 31
M  V30 31 2 30 32
M  V30 32 1 11 33
M  V30 33 2 33 34
M  V30 34 1 34 35
M  V30 35 2 35 36
M  V30 36 1 36 37
M  V30 37 1 37 38
M  V30 38 2 37 39
M  V30 39 1 8 40
M  V30 40 2 40 41
M  V30 41 1 41 42
M  V30 42 1 41 5
M  V30 43 1 39 9
M  V30 44 2 25 14
M  V30 45 1 32 26
M  V30 46 1 39 33
M  V30 47 1 22 16
M  V30 48 1 1 43
M  V30 49 1 1 44
M  V30 50 1 1 45
M  V30 51 1 2 46
M  V30 52 1 3 47
M  V30 53 1 3 48
M  V30 54 1 3 49
M  V30 55 1 6 50
M  V30 56 1 7 51
M  V30 57 1 12 52 CFG=3
M  V30 58 1 13 53
M  V30 59 1 13 54
M  V30 60 1 13 55
M  V30 61 1 17 56
M  V30 62 1 18 57
M  V30 63 1 21 58
M  V30 64 1 27 59
M  V30 65 1 28 60
M  V30 66 1 29 61
M  V30 67 1 32 62
M  V30 68 1 35 63
M  V30 69 1 38 64
M  V30 70 1 38 65
M  V30 71 1 40 66
M  V30 END BOND
M  V30 END CTAB
M  END
>  <Dataset>  (22) 
OralDrugs

>  <Ligand_Instance>  (22) 
nan

>  <PDB_ID>  (22) 
nan

>  <Standardized_SMILES>  (22) 
CC(C)Oc1ccc(-c2nn([C@@H](C)c3oc4ccc(F)cc4c(=O)c3-c3cccc(F)c3)c3ncnc(N)c23)cc1F

>  <Name>  (22) 
Umbralisib

>  <Pocket>  (22) 
nan

>  <ATP_Site>  (22) 
nan

>  <Peripheral>  (22) 
nan

>  <Num_H_Atoms_ProtBoundConf>  (22) 
nan

>  <Num_Resolved_Atoms>  (22) 
nan

>  <Num_Not_Resolved_Atoms>  (22) 
nan

>  <2D_Mol_H>  (22) 
<rdkit.Chem.rdchem.Mol object at 0x72a238b93760>

>  <MW>  (22) 
571.559

>  <HBA>  (22) 
8

>  <HBD>  (22) 
1

>  <LogP>  (22) 
6.6627

>  <NRB>  (22) 
10

>  <TPSA>  (22) 
109.06

>  <Num_Heavy_Atoms>  (22) 
42

>  <Ro5>  (22) 
[False, True, True, False, True, True]

>  <Ro5_Fulfilled>  (22) 
False

>  <Ro3>  (22) 
[False, False, True, False]

>  <Ro3_Fulfilled>  (22) 
False

>  <Fsp3>  (22) 
0.16129

>  <Fsp3_0.42>  (22) 
False

>  <Fsp3_0.45>  (22) 
False

>  <Stereogenic_Carbons>  (22) 
1

>  <C_Atoms>  (22) 
31

>  <FCStereo>  (22) 
0.032258

>  <SPS>  (22) 
519

>  <nSPS>  (22) 
12.357143

>  <PBF>  (22) 
1.509973

>  <PBF_0.6>  (22) 
True

>  <nPBF>  (22) 
0.035952

>  <nPBF_0.016>  (22) 
True

>  <PMI1>  (22) 
4402.15994

>  <PMI2>  (22) 
12897.211802

>  <PMI3>  (22) 
14249.582829

>  <NPR1>  (22) 
0.308933

>  <NPR2>  (22) 
0.905094

>  <Sum_NPR>  (22) 
1.214027

>  <Sum_NPR_1.07>  (22) 
True

>  <Sum_NPR_1.2>  (22) 
True

>  <MaxAbsEStateIndex>  (22) 
14.992335

>  <MaxEStateIndex>  (22) 
14.992335

>  <MinAbsEStateIndex>  (22) 
0.001828

>  <MinEStateIndex>  (22) 
-0.815403

>  <qed>  (22) 
0.238033

>  <MolWt>  (22) 
571.559

>  <HeavyAtomMolWt>  (22) 
547.367

>  <ExactMolWt>  (22) 
571.183124

>  <NumValenceElectrons>  (22) 
212

>  <NumRadicalElectrons>  (22) 
0

>  <MaxPartialCharge>  (22) 
0.200475

>  <MinPartialCharge>  (22) 
-0.48794

>  <MaxAbsPartialCharge>  (22) 
0.48794

>  <MinAbsPartialCharge>  (22) 
0.200475

>  <FpDensityMorgan1>  (22) 
0.928571

>  <FpDensityMorgan2>  (22) 
1.714286

>  <FpDensityMorgan3>  (22) 
2.452381

>  <BCUT2D_MWHI>  (22) 
19.144962

>  <BCUT2D_MWLOW>  (22) 
9.987513

>  <BCUT2D_CHGHI>  (22) 
2.273132

>  <BCUT2D_CHGLO>  (22) 
-2.170735

>  <BCUT2D_LOGPHI>  (22) 
2.370294

>  <BCUT2D_LOGPLOW>  (22) 
-2.162558

>  <BCUT2D_MRHI>  (22) 
5.981051

>  <BCUT2D_MRLOW>  (22) 
0.231006

>  <AvgIpc>  (22) 
3.346044

>  <BalabanJ>  (22) 
1.5917

>  <BertzCT>  (22) 
2054.678878

>  <Chi0>  (22) 
29.706013

>  <Chi0n>  (22) 
22.730396

>  <Chi0v>  (22) 
22.730396

>  <Chi1>  (22) 
20.117101

>  <Chi1n>  (22) 
13.095005

>  <Chi1v>  (22) 
13.095005

>  <Chi2n>  (22) 
10.059739

>  <Chi2v>  (22) 
10.059739

>  <Chi3n>  (22) 
6.825321

>  <Chi3v>  (22) 
6.825321

>  <Chi4n>  (22) 
4.97244

>  <Chi4v>  (22) 
4.97244

>  <HallKierAlpha>  (22) 
-5.19

>  <Ipc>  (22) 
3093776983.924135

>  <Kappa1>  (22) 
27.003131

>  <Kappa2>  (22) 
10.330666

>  <Kappa3>  (22) 
4.619605

>  <LabuteASA>  (22) 
236.753636

>  <PEOE_VSA1>  (22) 
14.887681

>  <PEOE_VSA10>  (22) 
46.858661

>  <PEOE_VSA11>  (22) 
17.21391

>  <PEOE_VSA12>  (22) 
5.42879

>  <PEOE_VSA13>  (22) 
0.0

>  <PEOE_VSA14>  (22) 
0.0

>  <PEOE_VSA2>  (22) 
4.794537

>  <PEOE_VSA3>  (22) 
27.821005

>  <PEOE_VSA4>  (22) 
5.098682

>  <PEOE_VSA5>  (22) 
0.0

>  <PEOE_VSA6>  (22) 
12.132734

>  <PEOE_VSA7>  (22) 
74.8656

>  <PEOE_VSA8>  (22) 
5.563451

>  <PEOE_VSA9>  (22) 
22.439866

>  <SMR_VSA1>  (22) 
22.325259

>  <SMR_VSA10>  (22) 
27.820509

>  <SMR_VSA2>  (22) 
0.0

>  <SMR_VSA3>  (22) 
19.748442

>  <SMR_VSA4>  (22) 
0.0

>  <SMR_VSA5>  (22) 
32.917019

>  <SMR_VSA6>  (22) 
5.733667

>  <SMR_VSA7>  (22) 
100.426228

>  <SMR_VSA8>  (22) 
0.0

>  <SMR_VSA9>  (22) 
28.133794

>  <SlogP_VSA1>  (22) 
15.899321

>  <SlogP_VSA10>  (22) 
18.989108

>  <SlogP_VSA11>  (22) 
5.749512

>  <SlogP_VSA12>  (22) 
0.0

>  <SlogP_VSA2>  (22) 
25.852408

>  <SlogP_VSA3>  (22) 
0.0

>  <SlogP_VSA4>  (22) 
17.451663

>  <SlogP_VSA5>  (22) 
32.5733

>  <SlogP_VSA6>  (22) 
76.202679

>  <SlogP_VSA7>  (22) 
0.0

>  <SlogP_VSA8>  (22) 
44.386928

>  <SlogP_VSA9>  (22) 
0.0

>  <EState_VSA1>  (22) 
28.922294

>  <EState_VSA10>  (22) 
17.965782

>  <EState_VSA11>  (22) 
0.0

>  <EState_VSA2>  (22) 
45.527736

>  <EState_VSA3>  (22) 
22.290781

>  <EState_VSA4>  (22) 
6.066367

>  <EState_VSA5>  (22) 
53.473692

>  <EState_VSA6>  (22) 
32.903946

>  <EState_VSA7>  (22) 
0.0

>  <EState_VSA8>  (22) 
9.967957

>  <EState_VSA9>  (22) 
19.986363

>  <VSA_EState1>  (22) 
56.629238

>  <VSA_EState10>  (22) 
0.0

>  <VSA_EState2>  (22) 
22.250327

>  <VSA_EState3>  (22) 
5.096993

>  <VSA_EState4>  (22) 
7.101697

>  <VSA_EState5>  (22) 
-1.447783

>  <VSA_EState6>  (22) 
12.699112

>  <VSA_EState7>  (22) 
1.03699

>  <VSA_EState8>  (22) 
5.300093

>  <VSA_EState9>  (22) 
0.0

>  <FractionCSP3>  (22) 
0.16129

>  <HeavyAtomCount>  (22) 
42

>  <NHOHCount>  (22) 
2

>  <NOCount>  (22) 
8

>  <NumAliphaticCarbocycles>  (22) 
0

>  <NumAliphaticHeterocycles>  (22) 
0

>  <NumAliphaticRings>  (22) 
0

>  <NumAromaticCarbocycles>  (22) 
3

>  <NumAromaticHeterocycles>  (22) 
3

>  <NumAromaticRings>  (22) 
6

>  <NumHAcceptors>  (22) 
8

>  <NumHDonors>  (22) 
1

>  <NumHeteroatoms>  (22) 
11

>  <NumRotatableBonds>  (22) 
6

>  <NumSaturatedCarbocycles>  (22) 
0

>  <NumSaturatedHeterocycles>  (22) 
0

>  <NumSaturatedRings>  (22) 
0

>  <RingCount>  (22) 
6

>  <MolLogP>  (22) 
6.6627

>  <MolMR>  (22) 
152.5424

>  <fr_Al_COO>  (22) 
0

>  <fr_Al_OH>  (22) 
0

>  <fr_Al_OH_noTert>  (22) 
0

>  <fr_ArN>  (22) 
1

>  <fr_Ar_COO>  (22) 
0

>  <fr_Ar_N>  (22) 
4

>  <fr_Ar_NH>  (22) 
0

>  <fr_Ar_OH>  (22) 
0

>  <fr_COO>  (22) 
0

>  <fr_COO2>  (22) 
0

>  <fr_C_O>  (22) 
0

>  <fr_C_O_noCOO>  (22) 
0

>  <fr_C_S>  (22) 
0

>  <fr_HOCCN>  (22) 
0

>  <fr_Imine>  (22) 
0

>  <fr_NH0>  (22) 
4

>  <fr_NH1>  (22) 
0

>  <fr_NH2>  (22) 
1

>  <fr_N_O>  (22) 
0

>  <fr_Ndealkylation1>  (22) 
0

>  <fr_Ndealkylation2>  (22) 
0

>  <fr_Nhpyrrole>  (22) 
0

>  <fr_SH>  (22) 
0

>  <fr_aldehyde>  (22) 
0

>  <fr_alkyl_carbamate>  (22) 
0

>  <fr_alkyl_halide>  (22) 
0

>  <fr_allylic_oxid>  (22) 
0

>  <fr_amide>  (22) 
0

>  <fr_amidine>  (22) 
0

>  <fr_aniline>  (22) 
1

>  <fr_aryl_methyl>  (22) 
0

>  <fr_azide>  (22) 
0

>  <fr_azo>  (22) 
0

>  <fr_barbitur>  (22) 
0

>  <fr_benzene>  (22) 
3

>  <fr_benzodiazepine>  (22) 
0

>  <fr_bicyclic>  (22) 
2

>  <fr_diazo>  (22) 
0

>  <fr_dihydropyridine>  (22) 
0

>  <fr_epoxide>  (22) 
0

>  <fr_ester>  (22) 
0

>  <fr_ether>  (22) 
1

>  <fr_furan>  (22) 
0

>  <fr_guanido>  (22) 
0

>  <fr_halogen>  (22) 
3

>  <fr_hdrzine>  (22) 
0

>  <fr_hdrzone>  (22) 
0

>  <fr_imidazole>  (22) 
0

>  <fr_imide>  (22) 
0

>  <fr_isocyan>  (22) 
0

>  <fr_isothiocyan>  (22) 
0

>  <fr_ketone>  (22) 
0

>  <fr_ketone_Topliss>  (22) 
0

>  <fr_lactam>  (22) 
0

>  <fr_lactone>  (22) 
0

>  <fr_methoxy>  (22) 
0

>  <fr_morpholine>  (22) 
0

>  <fr_nitrile>  (22) 
0

>  <fr_nitro>  (22) 
0

>  <fr_nitro_arom>  (22) 
0

>  <fr_nitro_arom_nonortho>  (22) 
0

>  <fr_nitroso>  (22) 
0

>  <fr_oxazole>  (22) 
0

>  <fr_oxime>  (22) 
0

>  <fr_para_hydroxylation>  (22) 
0

>  <fr_phenol>  (22) 
0

>  <fr_phenol_noOrthoHbond>  (22) 
0

>  <fr_phos_acid>  (22) 
0

>  <fr_phos_ester>  (22) 
0

>  <fr_piperdine>  (22) 
0

>  <fr_piperzine>  (22) 
0

>  <fr_priamide>  (22) 
0

>  <fr_prisulfonamd>  (22) 
0

>  <fr_pyridine>  (22) 
0

>  <fr_quatN>  (22) 
0

>  <fr_sulfide>  (22) 
0

>  <fr_sulfonamd>  (22) 
0

>  <fr_sulfone>  (22) 
0

>  <fr_term_acetylene>  (22) 
0

>  <fr_tetrazole>  (22) 
0

>  <fr_thiazole>  (22) 
0

>  <fr_thiocyan>  (22) 
0

>  <fr_thiophene>  (22) 
0

>  <fr_unbrch_alkane>  (22) 
0

>  <fr_urea>  (22) 
0

>  <NP_Likeness>  (22) 
-0.875947

$$$$
CHEMBL3622821
     RDKit          3D

  0  0  0  0  0  0  0  0  0  0999 V3000
M  V30 BEGIN CTAB
M  V30 COUNTS 46 49 0 0 0
M  V30 BEGIN ATOM
M  V30 1 C -3.741771 0.339360 -0.594639 0
M  V30 2 C -2.269753 0.031063 -0.754925 0
M  V30 3 C -1.843796 -1.102375 0.130784 0 CFG=2
M  V30 4 C -2.032560 -0.895875 1.569076 0
M  V30 5 N -0.791871 -1.251989 2.189512 0
M  V30 6 C -0.162178 -0.777605 3.386621 0
M  V30 7 O 0.946638 -1.246705 3.738862 0
M  V30 8 N -0.761105 0.215562 4.192189 0
M  V30 9 C -0.295440 0.815573 5.407983 0
M  V30 10 C 1.015476 1.546645 5.277456 0
M  V30 11 F 2.047000 0.758314 4.873989 0
M  V30 12 F 1.285407 2.062643 6.551262 0
M  V30 13 F 0.860058 2.656313 4.451585 0
M  V30 14 C -0.263965 -2.266441 1.303732 0
M  V30 15 C -0.472416 -1.598826 -0.078347 0 CFG=2
M  V30 16 C 0.587858 -0.624824 -0.192710 0
M  V30 17 C 0.534579 0.571363 0.491798 0
M  V30 18 N 1.627546 1.308691 0.229296 0
M  V30 19 C 2.414214 0.619563 -0.624250 0
M  V30 20 C 3.632720 0.897556 -1.210549 0
M  V30 21 N 4.192440 -0.002937 -2.037320 0
M  V30 22 C 3.557304 -1.164403 -2.282532 0
M  V30 23 N 3.946746 -2.190003 -3.066723 0
M  V30 24 C 2.943966 -3.110409 -2.953901 0
M  V30 25 C 1.970119 -2.631208 -2.109446 0
M  V30 26 C 2.354608 -1.389827 -1.677642 0
M  V30 27 N 1.752844 -0.530937 -0.848884 0
M  V30 28 H -3.950633 1.401193 -0.867456 0
M  V30 29 H -4.092366 0.183217 0.451155 0
M  V30 30 H -4.387266 -0.300242 -1.224537 0
M  V30 31 H -2.160087 -0.333237 -1.814804 0
M  V30 32 H -1.614392 0.920228 -0.709834 0
M  V30 33 H -2.536444 -1.977040 -0.132372 0
M  V30 34 H -2.834118 -1.546542 2.014159 0
M  V30 35 H -2.230075 0.167880 1.864812 0
M  V30 36 H -1.692359 0.559791 3.833463 0
M  V30 37 H -0.108296 -0.017591 6.154794 0
M  V30 38 H -1.027612 1.474940 5.879116 0
M  V30 39 H -0.862796 -3.187137 1.376626 0
M  V30 40 H 0.793985 -2.388162 1.520681 0
M  V30 41 H -0.521616 -2.384320 -0.854427 0
M  V30 42 H -0.139794 1.043191 1.158374 0
M  V30 43 H 4.119292 1.837192 -0.995448 0
M  V30 44 H 4.846286 -2.216754 -3.624348 0
M  V30 45 H 3.083640 -4.031934 -3.531452 0
M  V30 46 H 1.168282 -3.289425 -1.972877 0
M  V30 END ATOM
M  V30 BEGIN BOND
M  V30 1 1 1 2
M  V30 2 1 2 3
M  V30 3 1 3 4
M  V30 4 1 4 5
M  V30 5 1 5 6
M  V30 6 2 6 7
M  V30 7 1 6 8
M  V30 8 1 8 9
M  V30 9 1 9 10
M  V30 10 1 10 11
M  V30 11 1 10 12
M  V30 12 1 10 13
M  V30 13 1 5 14
M  V30 14 1 14 15
M  V30 15 1 15 16
M  V30 16 2 16 17
M  V30 17 1 17 18
M  V30 18 2 18 19
M  V30 19 1 19 20
M  V30 20 2 20 21
M  V30 21 1 21 22
M  V30 22 1 22 23
M  V30 23 1 23 24
M  V30 24 2 24 25
M  V30 25 1 25 26
M  V30 26 1 26 27
M  V30 27 1 15 3
M  V30 28 1 27 16
M  V30 29 1 27 19
M  V30 30 2 26 22
M  V30 31 1 1 28
M  V30 32 1 1 29
M  V30 33 1 1 30
M  V30 34 1 2 31
M  V30 35 1 2 32
M  V30 36 1 3 33 CFG=3
M  V30 37 1 4 34
M  V30 38 1 4 35
M  V30 39 1 8 36
M  V30 40 1 9 37
M  V30 41 1 9 38
M  V30 42 1 14 39
M  V30 43 1 14 40
M  V30 44 1 15 41 CFG=3
M  V30 45 1 17 42
M  V30 46 1 20 43
M  V30 47 1 23 44
M  V30 48 1 24 45
M  V30 49 1 25 46
M  V30 END BOND
M  V30 END CTAB
M  END
>  <Dataset>  (23) 
OralDrugs

>  <Ligand_Instance>  (23) 
nan

>  <PDB_ID>  (23) 
nan

>  <Standardized_SMILES>  (23) 
CC[C@@H]1CN(C(=O)NCC(F)(F)F)C[C@@H]1c1cnc2cnc3[nH]ccc3n12

>  <Name>  (23) 
Upadacitinib

>  <Pocket>  (23) 
nan

>  <ATP_Site>  (23) 
nan

>  <Peripheral>  (23) 
nan

>  <Num_H_Atoms_ProtBoundConf>  (23) 
nan

>  <Num_Resolved_Atoms>  (23) 
nan

>  <Num_Not_Resolved_Atoms>  (23) 
nan

>  <2D_Mol_H>  (23) 
<rdkit.Chem.rdchem.Mol object at 0x72a238b93840>

>  <MW>  (23) 
380.374

>  <HBA>  (23) 
4

>  <HBD>  (23) 
2

>  <LogP>  (23) 
2.9079

>  <NRB>  (23) 
4

>  <TPSA>  (23) 
78.32

>  <Num_Heavy_Atoms>  (23) 
27

>  <Ro5>  (23) 
[True, True, True, True, True, True]

>  <Ro5_Fulfilled>  (23) 
True

>  <Ro3>  (23) 
[False, False, True, True]

>  <Ro3_Fulfilled>  (23) 
False

>  <Fsp3>  (23) 
0.470588

>  <Fsp3_0.42>  (23) 
True

>  <Fsp3_0.45>  (23) 
True

>  <Stereogenic_Carbons>  (23) 
2

>  <C_Atoms>  (23) 
17

>  <FCStereo>  (23) 
0.117647

>  <SPS>  (23) 
558

>  <nSPS>  (23) 
20.666667

>  <PBF>  (23) 
1.087411

>  <PBF_0.6>  (23) 
True

>  <nPBF>  (23) 
0.040274

>  <nPBF_0.016>  (23) 
True

>  <PMI1>  (23) 
1825.167939

>  <PMI2>  (23) 
4165.106225

>  <PMI3>  (23) 
5076.543142

>  <NPR1>  (23) 
0.35953

>  <NPR2>  (23) 
0.820461

>  <Sum_NPR>  (23) 
1.179991

>  <Sum_NPR_1.07>  (23) 
True

>  <Sum_NPR_1.2>  (23) 
False

>  <MaxAbsEStateIndex>  (23) 
12.384279

>  <MaxEStateIndex>  (23) 
12.384279

>  <MinAbsEStateIndex>  (23) 
0.01191

>  <MinEStateIndex>  (23) 
-4.42313

>  <qed>  (23) 
0.733445

>  <MolWt>  (23) 
380.374

>  <HeavyAtomMolWt>  (23) 
361.222

>  <ExactMolWt>  (23) 
380.157244

>  <NumValenceElectrons>  (23) 
144

>  <NumRadicalElectrons>  (23) 
0

>  <MaxPartialCharge>  (23) 
0.405335

>  <MinPartialCharge>  (23) 
-0.344852

>  <MaxAbsPartialCharge>  (23) 
0.405335

>  <MinAbsPartialCharge>  (23) 
0.344852

>  <FpDensityMorgan1>  (23) 
1.333333

>  <FpDensityMorgan2>  (23) 
2.148148

>  <FpDensityMorgan3>  (23) 
2.888889

>  <BCUT2D_MWHI>  (23) 
19.413187

>  <BCUT2D_MWLOW>  (23) 
9.909495

>  <BCUT2D_CHGHI>  (23) 
2.377618

>  <BCUT2D_CHGLO>  (23) 
-2.177978

>  <BCUT2D_LOGPHI>  (23) 
2.354778

>  <BCUT2D_LOGPLOW>  (23) 
-2.423734

>  <BCUT2D_MRHI>  (23) 
5.756616

>  <BCUT2D_MRLOW>  (23) 
-0.122669

>  <AvgIpc>  (23) 
3.333214

>  <BalabanJ>  (23) 
1.625675

>  <BertzCT>  (23) 
978.019827

>  <Chi0>  (23) 
19.181434

>  <Chi0n>  (23) 
14.623525

>  <Chi0v>  (23) 
14.623525

>  <Chi1>  (23) 
12.870323

>  <Chi1n>  (23) 
8.760566

>  <Chi1v>  (23) 
8.760566

>  <Chi2n>  (23) 
6.800078

>  <Chi2v>  (23) 
6.800078

>  <Chi3n>  (23) 
5.142849

>  <Chi3v>  (23) 
5.142849

>  <Chi4n>  (23) 
3.827131

>  <Chi4v>  (23) 
3.827131

>  <HallKierAlpha>  (23) 
-2.78

>  <Ipc>  (23) 
1853940.266859

>  <Kappa1>  (23) 
17.624724

>  <Kappa2>  (23) 
6.431524

>  <Kappa3>  (23) 
3.193429

>  <LabuteASA>  (23) 
152.126156

>  <PEOE_VSA1>  (23) 
15.200677

>  <PEOE_VSA10>  (23) 
6.544756

>  <PEOE_VSA11>  (23) 
11.294354

>  <PEOE_VSA12>  (23) 
0.0

>  <PEOE_VSA13>  (23) 
0.0

>  <PEOE_VSA14>  (23) 
12.207413

>  <PEOE_VSA2>  (23) 
4.400695

>  <PEOE_VSA3>  (23) 
14.762494

>  <PEOE_VSA4>  (23) 
13.171245

>  <PEOE_VSA5>  (23) 
0.0

>  <PEOE_VSA6>  (23) 
13.344559

>  <PEOE_VSA7>  (23) 
11.984273

>  <PEOE_VSA8>  (23) 
37.095034

>  <PEOE_VSA9>  (23) 
11.713544

>  <SMR_VSA1>  (23) 
17.965782

>  <SMR_VSA10>  (23) 
22.84217

>  <SMR_VSA2>  (23) 
0.0

>  <SMR_VSA3>  (23) 
29.569329

>  <SMR_VSA4>  (23) 
5.917906

>  <SMR_VSA5>  (23) 
25.438763

>  <SMR_VSA6>  (23) 
19.634269

>  <SMR_VSA7>  (23) 
30.350826

>  <SMR_VSA8>  (23) 
0.0

>  <SMR_VSA9>  (23) 
0.0

>  <SlogP_VSA1>  (23) 
5.316789

>  <SlogP_VSA10>  (23) 
17.965782

>  <SlogP_VSA11>  (23) 
0.0

>  <SlogP_VSA12>  (23) 
0.0

>  <SlogP_VSA2>  (23) 
56.094222

>  <SlogP_VSA3>  (23) 
0.0

>  <SlogP_VSA4>  (23) 
5.917906

>  <SlogP_VSA5>  (23) 
24.956393

>  <SlogP_VSA6>  (23) 
24.656898

>  <SlogP_VSA7>  (23) 
0.0

>  <SlogP_VSA8>  (23) 
16.811055

>  <SlogP_VSA9>  (23) 
0.0

>  <EState_VSA1>  (23) 
18.752169

>  <EState_VSA10>  (23) 
17.965782

>  <EState_VSA11>  (23) 
0.0

>  <EState_VSA2>  (23) 
11.835812

>  <EState_VSA3>  (23) 
18.73669

>  <EState_VSA4>  (23) 
23.278628

>  <EState_VSA5>  (23) 
4.89991

>  <EState_VSA6>  (23) 
18.590531

>  <EState_VSA7>  (23) 
22.707587

>  <EState_VSA8>  (23) 
14.951936

>  <EState_VSA9>  (23) 
0.0

>  <VSA_EState1>  (23) 
39.15609

>  <VSA_EState10>  (23) 
0.0

>  <VSA_EState2>  (23) 
25.438021

>  <VSA_EState3>  (23) 
1.962262

>  <VSA_EState4>  (23) 
3.253977

>  <VSA_EState5>  (23) 
0.130399

>  <VSA_EState6>  (23) 
1.222297

>  <VSA_EState7>  (23) 
1.624472

>  <VSA_EState8>  (23) 
1.462482

>  <VSA_EState9>  (23) 
0.0

>  <FractionCSP3>  (23) 
0.470588

>  <HeavyAtomCount>  (23) 
27

>  <NHOHCount>  (23) 
2

>  <NOCount>  (23) 
7

>  <NumAliphaticCarbocycles>  (23) 
0

>  <NumAliphaticHeterocycles>  (23) 
1

>  <NumAliphaticRings>  (23) 
1

>  <NumAromaticCarbocycles>  (23) 
0

>  <NumAromaticHeterocycles>  (23) 
3

>  <NumAromaticRings>  (23) 
3

>  <NumHAcceptors>  (23) 
4

>  <NumHDonors>  (23) 
2

>  <NumHeteroatoms>  (23) 
10

>  <NumRotatableBonds>  (23) 
3

>  <NumSaturatedCarbocycles>  (23) 
0

>  <NumSaturatedHeterocycles>  (23) 
1

>  <NumSaturatedRings>  (23) 
1

>  <RingCount>  (23) 
4

>  <MolLogP>  (23) 
2.9079

>  <MolMR>  (23) 
92.3924

>  <fr_Al_COO>  (23) 
0

>  <fr_Al_OH>  (23) 
0

>  <fr_Al_OH_noTert>  (23) 
0

>  <fr_ArN>  (23) 
0

>  <fr_Ar_COO>  (23) 
0

>  <fr_Ar_N>  (23) 
4

>  <fr_Ar_NH>  (23) 
1

>  <fr_Ar_OH>  (23) 
0

>  <fr_COO>  (23) 
0

>  <fr_COO2>  (23) 
0

>  <fr_C_O>  (23) 
1

>  <fr_C_O_noCOO>  (23) 
1

>  <fr_C_S>  (23) 
0

>  <fr_HOCCN>  (23) 
0

>  <fr_Imine>  (23) 
0

>  <fr_NH0>  (23) 
4

>  <fr_NH1>  (23) 
2

>  <fr_NH2>  (23) 
0

>  <fr_N_O>  (23) 
0

>  <fr_Ndealkylation1>  (23) 
0

>  <fr_Ndealkylation2>  (23) 
1

>  <fr_Nhpyrrole>  (23) 
1

>  <fr_SH>  (23) 
0

>  <fr_aldehyde>  (23) 
0

>  <fr_alkyl_carbamate>  (23) 
0

>  <fr_alkyl_halide>  (23) 
3

>  <fr_allylic_oxid>  (23) 
0

>  <fr_amide>  (23) 
2

>  <fr_amidine>  (23) 
0

>  <fr_aniline>  (23) 
0

>  <fr_aryl_methyl>  (23) 
0

>  <fr_azide>  (23) 
0

>  <fr_azo>  (23) 
0

>  <fr_barbitur>  (23) 
0

>  <fr_benzene>  (23) 
0

>  <fr_benzodiazepine>  (23) 
0

>  <fr_bicyclic>  (23) 
3

>  <fr_diazo>  (23) 
0

>  <fr_dihydropyridine>  (23) 
0

>  <fr_epoxide>  (23) 
0

>  <fr_ester>  (23) 
0

>  <fr_ether>  (23) 
0

>  <fr_furan>  (23) 
0

>  <fr_guanido>  (23) 
0

>  <fr_halogen>  (23) 
3

>  <fr_hdrzine>  (23) 
0

>  <fr_hdrzone>  (23) 
0

>  <fr_imidazole>  (23) 
1

>  <fr_imide>  (23) 
0

>  <fr_isocyan>  (23) 
0

>  <fr_isothiocyan>  (23) 
0

>  <fr_ketone>  (23) 
0

>  <fr_ketone_Topliss>  (23) 
0

>  <fr_lactam>  (23) 
0

>  <fr_lactone>  (23) 
0

>  <fr_methoxy>  (23) 
0

>  <fr_morpholine>  (23) 
0

>  <fr_nitrile>  (23) 
0

>  <fr_nitro>  (23) 
0

>  <fr_nitro_arom>  (23) 
0

>  <fr_nitro_arom_nonortho>  (23) 
0

>  <fr_nitroso>  (23) 
0

>  <fr_oxazole>  (23) 
0

>  <fr_oxime>  (23) 
0

>  <fr_para_hydroxylation>  (23) 
0

>  <fr_phenol>  (23) 
0

>  <fr_phenol_noOrthoHbond>  (23) 
0

>  <fr_phos_acid>  (23) 
0

>  <fr_phos_ester>  (23) 
0

>  <fr_piperdine>  (23) 
0

>  <fr_piperzine>  (23) 
0

>  <fr_priamide>  (23) 
0

>  <fr_prisulfonamd>  (23) 
0

>  <fr_pyridine>  (23) 
0

>  <fr_quatN>  (23) 
0

>  <fr_sulfide>  (23) 
0

>  <fr_sulfonamd>  (23) 
0

>  <fr_sulfone>  (23) 
0

>  <fr_term_acetylene>  (23) 
0

>  <fr_tetrazole>  (23) 
0

>  <fr_thiazole>  (23) 
0

>  <fr_thiocyan>  (23) 
0

>  <fr_thiophene>  (23) 
0

>  <fr_unbrch_alkane>  (23) 
0

>  <fr_urea>  (23) 
1

>  <NP_Likeness>  (23) 
-1.098933

$$$$
CHEMBL1488
     RDKit          3D

  0  0  0  0  0  0  0  0  0  0999 V3000
M  V30 BEGIN CTAB
M  V30 COUNTS 26 26 0 0 0
M  V30 BEGIN ATOM
M  V30 1 O 2.839262 1.443622 4.159732 0
M  V30 2 C 2.108258 0.838443 3.135277 0
M  V30 3 N 0.985200 0.234610 3.571996 0
M  V30 4 C 0.207771 -0.379211 2.664201 0
M  V30 5 C 0.487720 -0.428677 1.319815 0
M  V30 6 N -0.155817 -0.980142 0.191393 0
M  V30 7 C -0.811908 -0.132481 -0.747537 0
M  V30 8 C -0.887740 1.312856 -0.416693 0
M  V30 9 Cl -1.759376 2.091702 -1.786262 0
M  V30 10 C -0.207177 -2.371541 -0.197075 0
M  V30 11 C -1.595416 -2.942694 -0.156565 0
M  V30 12 Cl -2.343818 -2.880503 1.446385 0
M  V30 13 C 1.668983 0.214262 0.913027 0
M  V30 14 O 2.290576 0.381064 -0.342295 0
M  V30 15 N 2.457848 0.838461 1.838519 0
M  V30 16 H 3.731913 1.019386 4.424300 0
M  V30 17 H -0.713417 -0.891978 2.888871 0
M  V30 18 H -0.367724 -0.314183 -1.761349 0
M  V30 19 H -1.883023 -0.474500 -0.882377 0
M  V30 20 H 0.028054 1.839143 -0.187593 0
M  V30 21 H -1.570027 1.485767 0.467747 0
M  V30 22 H 0.487066 -2.979845 0.455583 0
M  V30 23 H 0.219336 -2.498496 -1.222471 0
M  V30 24 H -2.235073 -2.457857 -0.916889 0
M  V30 25 H -1.512689 -4.034066 -0.448892 0
M  V30 26 H 2.307176 1.329929 -0.692703 0
M  V30 END ATOM
M  V30 BEGIN BOND
M  V30 1 1 1 2
M  V30 2 2 2 3
M  V30 3 1 3 4
M  V30 4 2 4 5
M  V30 5 1 5 6
M  V30 6 1 6 7
M  V30 7 1 7 8
M  V30 8 1 8 9
M  V30 9 1 6 10
M  V30 10 1 10 11
M  V30 11 1 11 12
M  V30 12 1 5 13
M  V30 13 1 13 14
M  V30 14 2 13 15
M  V30 15 1 15 2
M  V30 16 1 1 16
M  V30 17 1 4 17
M  V30 18 1 7 18
M  V30 19 1 7 19
M  V30 20 1 8 20
M  V30 21 1 8 21
M  V30 22 1 10 22
M  V30 23 1 10 23
M  V30 24 1 11 24
M  V30 25 1 11 25
M  V30 26 1 14 26
M  V30 END BOND
M  V30 END CTAB
M  END
>  <Dataset>  (24) 
OralDrugs

>  <Ligand_Instance>  (24) 
nan

>  <PDB_ID>  (24) 
nan

>  <Standardized_SMILES>  (24) 
Oc1ncc(N(CCCl)CCCl)c(O)n1

>  <Name>  (24) 
Uracil Mustard

>  <Pocket>  (24) 
nan

>  <ATP_Site>  (24) 
nan

>  <Peripheral>  (24) 
nan

>  <Num_H_Atoms_ProtBoundConf>  (24) 
nan

>  <Num_Resolved_Atoms>  (24) 
nan

>  <Num_Not_Resolved_Atoms>  (24) 
nan

>  <2D_Mol_H>  (24) 
<rdkit.Chem.rdchem.Mol object at 0x72a238b93920>

>  <MW>  (24) 
252.101

>  <HBA>  (24) 
5

>  <HBD>  (24) 
2

>  <LogP>  (24) 
1.1718

>  <NRB>  (24) 
7

>  <TPSA>  (24) 
69.48

>  <Num_Heavy_Atoms>  (24) 
15

>  <Ro5>  (24) 
[True, True, True, True, True, True]

>  <Ro5_Fulfilled>  (24) 
True

>  <Ro3>  (24) 
[True, False, True, True]

>  <Ro3_Fulfilled>  (24) 
True

>  <Fsp3>  (24) 
0.5

>  <Fsp3_0.42>  (24) 
True

>  <Fsp3_0.45>  (24) 
True

>  <Stereogenic_Carbons>  (24) 
0

>  <C_Atoms>  (24) 
8

>  <FCStereo>  (24) 
0.0

>  <SPS>  (24) 
154

>  <nSPS>  (24) 
10.266667

>  <PBF>  (24) 
0.864128

>  <PBF_0.6>  (24) 
True

>  <nPBF>  (24) 
0.057609

>  <nPBF_0.016>  (24) 
True

>  <PMI1>  (24) 
1059.314672

>  <PMI2>  (24) 
1493.309345

>  <PMI3>  (24) 
2126.717924

>  <NPR1>  (24) 
0.498098

>  <NPR2>  (24) 
0.702166

>  <Sum_NPR>  (24) 
1.200264

>  <Sum_NPR_1.07>  (24) 
True

>  <Sum_NPR_1.2>  (24) 
True

>  <MaxAbsEStateIndex>  (24) 
9.476079

>  <MaxEStateIndex>  (24) 
9.476079

>  <MinAbsEStateIndex>  (24) 
0.279877

>  <MinEStateIndex>  (24) 
-0.464864

>  <qed>  (24) 
0.769647

>  <MolWt>  (24) 
252.101

>  <HeavyAtomMolWt>  (24) 
241.013

>  <ExactMolWt>  (24) 
251.022832

>  <NumValenceElectrons>  (24) 
84

>  <NumRadicalElectrons>  (24) 
0

>  <MaxPartialCharge>  (24) 
0.316791

>  <MinPartialCharge>  (24) 
-0.491645

>  <MaxAbsPartialCharge>  (24) 
0.491645

>  <MinAbsPartialCharge>  (24) 
0.316791

>  <FpDensityMorgan1>  (24) 
1.2

>  <FpDensityMorgan2>  (24) 
1.8

>  <FpDensityMorgan3>  (24) 
2.266667

>  <BCUT2D_MWHI>  (24) 
35.496753

>  <BCUT2D_MWLOW>  (24) 
10.376527

>  <BCUT2D_CHGHI>  (24) 
2.121136

>  <BCUT2D_CHGLO>  (24) 
-2.21796

>  <BCUT2D_LOGPHI>  (24) 
2.245842

>  <BCUT2D_LOGPLOW>  (24) 
-2.27433

>  <BCUT2D_MRHI>  (24) 
6.182969

>  <BCUT2D_MRLOW>  (24) 
0.397039

>  <AvgIpc>  (24) 
2.174925

>  <BalabanJ>  (24) 
2.889678

>  <BertzCT>  (24) 
318.755133

>  <Chi0>  (24) 
11.259149

>  <Chi0n>  (24) 
7.897774

>  <Chi0v>  (24) 
9.409632

>  <Chi1>  (24) 
7.185071

>  <Chi1n>  (24) 
4.305493

>  <Chi1v>  (24) 
5.374538

>  <Chi2n>  (24) 
2.743862

>  <Chi2v>  (24) 
3.499791

>  <Chi3n>  (24) 
1.786859

>  <Chi3v>  (24) 
2.124921

>  <Chi4n>  (24) 
1.137292

>  <Chi4v>  (24) 
1.545368

>  <HallKierAlpha>  (24) 
-0.94

>  <Ipc>  (24) 
2153.175458

>  <Kappa1>  (24) 
12.131124

>  <Kappa2>  (24) 
5.823744

>  <Kappa3>  (24) 
3.282785

>  <LabuteASA>  (24) 
97.285301

>  <PEOE_VSA1>  (24) 
15.112965

>  <PEOE_VSA10>  (24) 
5.687386

>  <PEOE_VSA11>  (24) 
0.0

>  <PEOE_VSA12>  (24) 
5.879988

>  <PEOE_VSA13>  (24) 
0.0

>  <PEOE_VSA14>  (24) 
6.010465

>  <PEOE_VSA2>  (24) 
0.0

>  <PEOE_VSA3>  (24) 
4.983979

>  <PEOE_VSA4>  (24) 
4.983979

>  <PEOE_VSA5>  (24) 
23.20188

>  <PEOE_VSA6>  (24) 
0.0

>  <PEOE_VSA7>  (24) 
0.0

>  <PEOE_VSA8>  (24) 
24.84952

>  <PEOE_VSA9>  (24) 
6.196844

>  <SMR_VSA1>  (24) 
10.213055

>  <SMR_VSA10>  (24) 
28.889266

>  <SMR_VSA2>  (24) 
0.0

>  <SMR_VSA3>  (24) 
9.967957

>  <SMR_VSA4>  (24) 
0.0

>  <SMR_VSA5>  (24) 
0.0

>  <SMR_VSA6>  (24) 
29.749429

>  <SMR_VSA7>  (24) 
6.196844

>  <SMR_VSA8>  (24) 
0.0

>  <SMR_VSA9>  (24) 
11.890453

>  <SlogP_VSA1>  (24) 
4.89991

>  <SlogP_VSA10>  (24) 
5.687386

>  <SlogP_VSA11>  (24) 
11.890453

>  <SlogP_VSA12>  (24) 
23.20188

>  <SlogP_VSA2>  (24) 
45.030532

>  <SlogP_VSA3>  (24) 
0.0

>  <SlogP_VSA4>  (24) 
0.0

>  <SlogP_VSA5>  (24) 
0.0

>  <SlogP_VSA6>  (24) 
6.196844

>  <SlogP_VSA7>  (24) 
0.0

>  <SlogP_VSA8>  (24) 
0.0

>  <SlogP_VSA9>  (24) 
0.0

>  <EState_VSA1>  (24) 
6.010465

>  <EState_VSA10>  (24) 
5.106527

>  <EState_VSA11>  (24) 
0.0

>  <EState_VSA2>  (24) 
5.879988

>  <EState_VSA3>  (24) 
30.536906

>  <EState_VSA4>  (24) 
0.0

>  <EState_VSA5>  (24) 
6.196844

>  <EState_VSA6>  (24) 
4.89991

>  <EState_VSA7>  (24) 
0.0

>  <EState_VSA8>  (24) 
9.967957

>  <EState_VSA9>  (24) 
28.308407

>  <VSA_EState1>  (24) 
0.0

>  <VSA_EState10>  (24) 
11.217861

>  <VSA_EState2>  (24) 
8.757908

>  <VSA_EState3>  (24) 
18.402294

>  <VSA_EState4>  (24) 
0.411204

>  <VSA_EState5>  (24) 
0.520134

>  <VSA_EState6>  (24) 
-0.464864

>  <VSA_EState7>  (24) 
1.330123

>  <VSA_EState8>  (24) 
1.047561

>  <VSA_EState9>  (24) 
0.0

>  <FractionCSP3>  (24) 
0.5

>  <HeavyAtomCount>  (24) 
15

>  <NHOHCount>  (24) 
2

>  <NOCount>  (24) 
5

>  <NumAliphaticCarbocycles>  (24) 
0

>  <NumAliphaticHeterocycles>  (24) 
0

>  <NumAliphaticRings>  (24) 
0

>  <NumAromaticCarbocycles>  (24) 
0

>  <NumAromaticHeterocycles>  (24) 
1

>  <NumAromaticRings>  (24) 
1

>  <NumHAcceptors>  (24) 
5

>  <NumHDonors>  (24) 
2

>  <NumHeteroatoms>  (24) 
7

>  <NumRotatableBonds>  (24) 
5

>  <NumSaturatedCarbocycles>  (24) 
0

>  <NumSaturatedHeterocycles>  (24) 
0

>  <NumSaturatedRings>  (24) 
0

>  <RingCount>  (24) 
1

>  <MolLogP>  (24) 
1.1718

>  <MolMR>  (24) 
59.0146

>  <fr_Al_COO>  (24) 
0

>  <fr_Al_OH>  (24) 
0

>  <fr_Al_OH_noTert>  (24) 
0

>  <fr_ArN>  (24) 
0

>  <fr_Ar_COO>  (24) 
0

>  <fr_Ar_N>  (24) 
2

>  <fr_Ar_NH>  (24) 
0

>  <fr_Ar_OH>  (24) 
2

>  <fr_COO>  (24) 
0

>  <fr_COO2>  (24) 
0

>  <fr_C_O>  (24) 
0

>  <fr_C_O_noCOO>  (24) 
0

>  <fr_C_S>  (24) 
0

>  <fr_HOCCN>  (24) 
0

>  <fr_Imine>  (24) 
0

>  <fr_NH0>  (24) 
3

>  <fr_NH1>  (24) 
0

>  <fr_NH2>  (24) 
0

>  <fr_N_O>  (24) 
0

>  <fr_Ndealkylation1>  (24) 
0

>  <fr_Ndealkylation2>  (24) 
0

>  <fr_Nhpyrrole>  (24) 
0

>  <fr_SH>  (24) 
0

>  <fr_aldehyde>  (24) 
0

>  <fr_alkyl_carbamate>  (24) 
0

>  <fr_alkyl_halide>  (24) 
2

>  <fr_allylic_oxid>  (24) 
0

>  <fr_amide>  (24) 
0

>  <fr_amidine>  (24) 
0

>  <fr_aniline>  (24) 
1

>  <fr_aryl_methyl>  (24) 
0

>  <fr_azide>  (24) 
0

>  <fr_azo>  (24) 
0

>  <fr_barbitur>  (24) 
0

>  <fr_benzene>  (24) 
0

>  <fr_benzodiazepine>  (24) 
0

>  <fr_bicyclic>  (24) 
0

>  <fr_diazo>  (24) 
0

>  <fr_dihydropyridine>  (24) 
0

>  <fr_epoxide>  (24) 
0

>  <fr_ester>  (24) 
0

>  <fr_ether>  (24) 
0

>  <fr_furan>  (24) 
0

>  <fr_guanido>  (24) 
0

>  <fr_halogen>  (24) 
2

>  <fr_hdrzine>  (24) 
0

>  <fr_hdrzone>  (24) 
0

>  <fr_imidazole>  (24) 
0

>  <fr_imide>  (24) 
0

>  <fr_isocyan>  (24) 
0

>  <fr_isothiocyan>  (24) 
0

>  <fr_ketone>  (24) 
0

>  <fr_ketone_Topliss>  (24) 
0

>  <fr_lactam>  (24) 
0

>  <fr_lactone>  (24) 
0

>  <fr_methoxy>  (24) 
0

>  <fr_morpholine>  (24) 
0

>  <fr_nitrile>  (24) 
0

>  <fr_nitro>  (24) 
0

>  <fr_nitro_arom>  (24) 
0

>  <fr_nitro_arom_nonortho>  (24) 
0

>  <fr_nitroso>  (24) 
0

>  <fr_oxazole>  (24) 
0

>  <fr_oxime>  (24) 
0

>  <fr_para_hydroxylation>  (24) 
0

>  <fr_phenol>  (24) 
0

>  <fr_phenol_noOrthoHbond>  (24) 
0

>  <fr_phos_acid>  (24) 
0

>  <fr_phos_ester>  (24) 
0

>  <fr_piperdine>  (24) 
0

>  <fr_piperzine>  (24) 
0

>  <fr_priamide>  (24) 
0

>  <fr_prisulfonamd>  (24) 
0

>  <fr_pyridine>  (24) 
0

>  <fr_quatN>  (24) 
0

>  <fr_sulfide>  (24) 
0

>  <fr_sulfonamd>  (24) 
0

>  <fr_sulfone>  (24) 
0

>  <fr_term_acetylene>  (24) 
0

>  <fr_tetrazole>  (24) 
0

>  <fr_thiazole>  (24) 
0

>  <fr_thiocyan>  (24) 
0

>  <fr_thiophene>  (24) 
0

>  <fr_unbrch_alkane>  (24) 
0

>  <fr_urea>  (24) 
0

>  <NP_Likeness>  (24) 
-0.573572

$$$$
CHEMBL985
     RDKit          3D

  0  0  0  0  0  0  0  0  0  0999 V3000
M  V30 BEGIN CTAB
M  V30 COUNTS 8 7 0 0 0
M  V30 BEGIN ATOM
M  V30 1 N 2.119522 -0.981501 3.005193 0
M  V30 2 C 1.927574 -1.489650 1.707247 0
M  V30 3 N 0.604510 -1.986345 1.531333 0
M  V30 4 O 2.789799 -1.517021 0.797545 0
M  V30 5 H 1.439019 -0.449164 3.555543 0
M  V30 6 H 3.038068 -1.155024 3.465449 0
M  V30 7 H 0.515317 -3.037192 1.439688 0
M  V30 8 H -0.287223 -1.482114 1.478562 0
M  V30 END ATOM
M  V30 BEGIN BOND
M  V30 1 1 1 2
M  V30 2 1 2 3
M  V30 3 2 2 4
M  V30 4 1 1 5
M  V30 5 1 1 6
M  V30 6 1 3 7
M  V30 7 1 3 8
M  V30 END BOND
M  V30 END CTAB
M  END
>  <Dataset>  (25) 
OralDrugs

>  <Ligand_Instance>  (25) 
nan

>  <PDB_ID>  (25) 
nan

>  <Standardized_SMILES>  (25) 
NC(N)=O

>  <Name>  (25) 
Urea

>  <Pocket>  (25) 
nan

>  <ATP_Site>  (25) 
nan

>  <Peripheral>  (25) 
nan

>  <Num_H_Atoms_ProtBoundConf>  (25) 
nan

>  <Num_Resolved_Atoms>  (25) 
nan

>  <Num_Not_Resolved_Atoms>  (25) 
nan

>  <2D_Mol_H>  (25) 
<rdkit.Chem.rdchem.Mol object at 0x72a238b93a00>

>  <MW>  (25) 
60.056

>  <HBA>  (25) 
1

>  <HBD>  (25) 
2

>  <LogP>  (25) 
-0.9762

>  <NRB>  (25) 
0

>  <TPSA>  (25) 
69.11

>  <Num_Heavy_Atoms>  (25) 
4

>  <Ro5>  (25) 
[True, True, True, True, True, True]

>  <Ro5_Fulfilled>  (25) 
True

>  <Ro3>  (25) 
[True, True, True, True]

>  <Ro3_Fulfilled>  (25) 
True

>  <Fsp3>  (25) 
0.0

>  <Fsp3_0.42>  (25) 
False

>  <Fsp3_0.45>  (25) 
False

>  <Stereogenic_Carbons>  (25) 
0

>  <C_Atoms>  (25) 
1

>  <FCStereo>  (25) 
0.0

>  <SPS>  (25) 
24

>  <nSPS>  (25) 
6.0

>  <PBF>  (25) 
0.361518

>  <PBF_0.6>  (25) 
False

>  <nPBF>  (25) 
0.090379

>  <nPBF_0.016>  (25) 
True

>  <PMI1>  (25) 
49.742853

>  <PMI2>  (25) 
51.472244

>  <PMI3>  (25) 
97.356364

>  <NPR1>  (25) 
0.510936

>  <NPR2>  (25) 
0.528699

>  <Sum_NPR>  (25) 
1.039635

>  <Sum_NPR_1.07>  (25) 
False

>  <Sum_NPR_1.2>  (25) 
False

>  <MaxAbsEStateIndex>  (25) 
9.0

>  <MaxEStateIndex>  (25) 
9.0

>  <MinAbsEStateIndex>  (25) 
0.833333

>  <MinEStateIndex>  (25) 
-0.833333

>  <qed>  (25) 
0.370507

>  <MolWt>  (25) 
60.056

>  <HeavyAtomMolWt>  (25) 
56.024

>  <ExactMolWt>  (25) 
60.032363

>  <NumValenceElectrons>  (25) 
24

>  <NumRadicalElectrons>  (25) 
0

>  <MaxPartialCharge>  (25) 
0.309056

>  <MinPartialCharge>  (25) 
-0.351846

>  <MaxAbsPartialCharge>  (25) 
0.351846

>  <MinAbsPartialCharge>  (25) 
0.309056

>  <FpDensityMorgan1>  (25) 
1.5

>  <FpDensityMorgan2>  (25) 
1.5

>  <FpDensityMorgan3>  (25) 
1.5

>  <BCUT2D_MWHI>  (25) 
16.155051

>  <BCUT2D_MWLOW>  (25) 
11.195898

>  <BCUT2D_CHGHI>  (25) 
1.603229

>  <BCUT2D_CHGLO>  (25) 
-1.623988

>  <BCUT2D_LOGPHI>  (25) 
1.253265

>  <BCUT2D_LOGPLOW>  (25) 
-2.182471

>  <BCUT2D_MRHI>  (25) 
5.685859

>  <BCUT2D_MRLOW>  (25) 
0.25619

>  <AvgIpc>  (25) 
0.811278

>  <BalabanJ>  (25) 
2.803039

>  <BertzCT>  (25) 
29.01955

>  <Chi0>  (25) 
3.57735

>  <Chi0n>  (25) 
2.062949

>  <Chi0v>  (25) 
2.062949

>  <Chi1>  (25) 
1.732051

>  <Chi1n>  (25) 
0.781474

>  <Chi1v>  (25) 
0.781474

>  <Chi2n>  (25) 
0.402369

>  <Chi2v>  (25) 
0.402369

>  <Chi3n>  (25) 
0.0

>  <Chi3v>  (25) 
0.0

>  <Chi4n>  (25) 
0.0

>  <Chi4v>  (25) 
0.0

>  <HallKierAlpha>  (25) 
-0.73

>  <Ipc>  (25) 
3.245112

>  <Kappa1>  (25) 
3.27

>  <Kappa2>  (25) 
0.710529

>  <Kappa3>  (25) 
0.173734

>  <LabuteASA>  (25) 
23.580555

>  <PEOE_VSA1>  (25) 
11.467335

>  <PEOE_VSA10>  (25) 
0.0

>  <PEOE_VSA11>  (25) 
0.0

>  <PEOE_VSA12>  (25) 
0.0

>  <PEOE_VSA13>  (25) 
0.0

>  <PEOE_VSA14>  (25) 
6.031115

>  <PEOE_VSA2>  (25) 
0.0

>  <PEOE_VSA3>  (25) 
4.794537

>  <PEOE_VSA4>  (25) 
0.0

>  <PEOE_VSA5>  (25) 
0.0

>  <PEOE_VSA6>  (25) 
0.0

>  <PEOE_VSA7>  (25) 
0.0

>  <PEOE_VSA8>  (25) 
0.0

>  <PEOE_VSA9>  (25) 
0.0

>  <SMR_VSA1>  (25) 
4.794537

>  <SMR_VSA10>  (25) 
6.031115

>  <SMR_VSA2>  (25) 
0.0

>  <SMR_VSA3>  (25) 
0.0

>  <SMR_VSA4>  (25) 
11.467335

>  <SMR_VSA5>  (25) 
0.0

>  <SMR_VSA6>  (25) 
0.0

>  <SMR_VSA7>  (25) 
0.0

>  <SMR_VSA8>  (25) 
0.0

>  <SMR_VSA9>  (25) 
0.0

>  <SlogP_VSA1>  (25) 
11.467335

>  <SlogP_VSA10>  (25) 
4.794537

>  <SlogP_VSA11>  (25) 
0.0

>  <SlogP_VSA12>  (25) 
0.0

>  <SlogP_VSA2>  (25) 
6.031115

>  <SlogP_VSA3>  (25) 
0.0

>  <SlogP_VSA4>  (25) 
0.0

>  <SlogP_VSA5>  (25) 
0.0

>  <SlogP_VSA6>  (25) 
0.0

>  <SlogP_VSA7>  (25) 
0.0

>  <SlogP_VSA8>  (25) 
0.0

>  <SlogP_VSA9>  (25) 
0.0

>  <EState_VSA1>  (25) 
6.031115

>  <EState_VSA10>  (25) 
0.0

>  <EState_VSA11>  (25) 
0.0

>  <EState_VSA2>  (25) 
0.0

>  <EState_VSA3>  (25) 
0.0

>  <EState_VSA4>  (25) 
0.0

>  <EState_VSA5>  (25) 
0.0

>  <EState_VSA6>  (25) 
0.0

>  <EState_VSA7>  (25) 
0.0

>  <EState_VSA8>  (25) 
11.467335

>  <EState_VSA9>  (25) 
4.794537

>  <VSA_EState1>  (25) 
0.0

>  <VSA_EState10>  (25) 
0.0

>  <VSA_EState2>  (25) 
9.0

>  <VSA_EState3>  (25) 
0.0

>  <VSA_EState4>  (25) 
8.5

>  <VSA_EState5>  (25) 
0.0

>  <VSA_EState6>  (25) 
-0.833333

>  <VSA_EState7>  (25) 
0.0

>  <VSA_EState8>  (25) 
0.0

>  <VSA_EState9>  (25) 
0.0

>  <FractionCSP3>  (25) 
0.0

>  <HeavyAtomCount>  (25) 
4

>  <NHOHCount>  (25) 
4

>  <NOCount>  (25) 
3

>  <NumAliphaticCarbocycles>  (25) 
0

>  <NumAliphaticHeterocycles>  (25) 
0

>  <NumAliphaticRings>  (25) 
0

>  <NumAromaticCarbocycles>  (25) 
0

>  <NumAromaticHeterocycles>  (25) 
0

>  <NumAromaticRings>  (25) 
0

>  <NumHAcceptors>  (25) 
1

>  <NumHDonors>  (25) 
2

>  <NumHeteroatoms>  (25) 
3

>  <NumRotatableBonds>  (25) 
0

>  <NumSaturatedCarbocycles>  (25) 
0

>  <NumSaturatedHeterocycles>  (25) 
0

>  <NumSaturatedRings>  (25) 
0

>  <RingCount>  (25) 
0

>  <MolLogP>  (25) 
-0.9762

>  <MolMR>  (25) 
13.7708

>  <fr_Al_COO>  (25) 
0

>  <fr_Al_OH>  (25) 
0

>  <fr_Al_OH_noTert>  (25) 
0

>  <fr_ArN>  (25) 
0

>  <fr_Ar_COO>  (25) 
0

>  <fr_Ar_N>  (25) 
0

>  <fr_Ar_NH>  (25) 
0

>  <fr_Ar_OH>  (25) 
0

>  <fr_COO>  (25) 
0

>  <fr_COO2>  (25) 
0

>  <fr_C_O>  (25) 
1

>  <fr_C_O_noCOO>  (25) 
1

>  <fr_C_S>  (25) 
0

>  <fr_HOCCN>  (25) 
0

>  <fr_Imine>  (25) 
0

>  <fr_NH0>  (25) 
0

>  <fr_NH1>  (25) 
0

>  <fr_NH2>  (25) 
2

>  <fr_N_O>  (25) 
0

>  <fr_Ndealkylation1>  (25) 
0

>  <fr_Ndealkylation2>  (25) 
0

>  <fr_Nhpyrrole>  (25) 
0

>  <fr_SH>  (25) 
0

>  <fr_aldehyde>  (25) 
0

>  <fr_alkyl_carbamate>  (25) 
0

>  <fr_alkyl_halide>  (25) 
0

>  <fr_allylic_oxid>  (25) 
0

>  <fr_amide>  (25) 
2

>  <fr_amidine>  (25) 
0

>  <fr_aniline>  (25) 
0

>  <fr_aryl_methyl>  (25) 
0

>  <fr_azide>  (25) 
0

>  <fr_azo>  (25) 
0

>  <fr_barbitur>  (25) 
0

>  <fr_benzene>  (25) 
0

>  <fr_benzodiazepine>  (25) 
0

>  <fr_bicyclic>  (25) 
0

>  <fr_diazo>  (25) 
0

>  <fr_dihydropyridine>  (25) 
0

>  <fr_epoxide>  (25) 
0

>  <fr_ester>  (25) 
0

>  <fr_ether>  (25) 
0

>  <fr_furan>  (25) 
0

>  <fr_guanido>  (25) 
0

>  <fr_halogen>  (25) 
0

>  <fr_hdrzine>  (25) 
0

>  <fr_hdrzone>  (25) 
0

>  <fr_imidazole>  (25) 
0

>  <fr_imide>  (25) 
0

>  <fr_isocyan>  (25) 
0

>  <fr_isothiocyan>  (25) 
0

>  <fr_ketone>  (25) 
0

>  <fr_ketone_Topliss>  (25) 
0

>  <fr_lactam>  (25) 
0

>  <fr_lactone>  (25) 
0

>  <fr_methoxy>  (25) 
0

>  <fr_morpholine>  (25) 
0

>  <fr_nitrile>  (25) 
0

>  <fr_nitro>  (25) 
0

>  <fr_nitro_arom>  (25) 
0

>  <fr_nitro_arom_nonortho>  (25) 
0

>  <fr_nitroso>  (25) 
0

>  <fr_oxazole>  (25) 
0

>  <fr_oxime>  (25) 
0

>  <fr_para_hydroxylation>  (25) 
0

>  <fr_phenol>  (25) 
0

>  <fr_phenol_noOrthoHbond>  (25) 
0

>  <fr_phos_acid>  (25) 
0

>  <fr_phos_ester>  (25) 
0

>  <fr_piperdine>  (25) 
0

>  <fr_piperzine>  (25) 
0

>  <fr_priamide>  (25) 
2

>  <fr_prisulfonamd>  (25) 
0

>  <fr_pyridine>  (25) 
0

>  <fr_quatN>  (25) 
0

>  <fr_sulfide>  (25) 
0

>  <fr_sulfonamd>  (25) 
0

>  <fr_sulfone>  (25) 
0

>  <fr_term_acetylene>  (25) 
0

>  <fr_tetrazole>  (25) 
0

>  <fr_thiazole>  (25) 
0

>  <fr_thiocyan>  (25) 
0

>  <fr_thiophene>  (25) 
0

>  <fr_unbrch_alkane>  (25) 
0

>  <fr_urea>  (25) 
1

>  <NP_Likeness>  (25) 
-0.217448

$$$$
CHEMBL1551
     RDKit          3D

  0  0  0  0  0  0  0  0  0  0999 V3000
M  V30 BEGIN CTAB
M  V30 COUNTS 68 71 0 0 0
M  V30 BEGIN ATOM
M  V30 1 C 2.773579 -3.923436 2.007685 0
M  V30 2 C 2.762150 -2.522896 1.431319 0 CFG=2
M  V30 3 C 3.948099 -1.783573 1.877872 0
M  V30 4 C 5.223234 -2.448153 1.439955 0
M  V30 5 C 5.471989 -3.787493 1.950374 0
M  V30 6 O 5.970020 -3.788501 3.118230 0
M  V30 7 O 5.708602 -5.057958 2.436072 0
M  V30 8 C 1.430349 -1.963683 1.684892 0 CFG=1
M  V30 9 C 0.965523 -1.837544 3.093722 0
M  V30 10 C -0.248620 -0.892474 3.018811 0
M  V30 11 C -0.404690 -0.706671 1.547966 0 CFG=1
M  V30 12 C -1.193155 0.420979 1.048653 0 CFG=2
M  V30 13 C -2.614976 0.349476 1.540776 0 CFG=1
M  V30 14 O -3.048218 1.586281 2.050472 0
M  V30 15 C -3.590470 -0.190403 0.547948 0
M  V30 16 C -3.568202 0.530227 -0.774995 0 CFG=2
M  V30 17 C -4.175171 -0.441170 -1.766905 0
M  V30 18 C -4.279150 0.129606 -3.153751 0 CFG=2
M  V30 19 O -3.911926 -0.885160 -4.035080 0
M  V30 20 C -3.300793 1.260346 -3.331307 0
M  V30 21 C -1.989742 0.813396 -2.669377 0
M  V30 22 C -2.211677 1.030319 -1.174094 0 CFG=1
M  V30 23 C -2.041603 2.510383 -0.928837 0
M  V30 24 C -1.172670 0.231925 -0.476884 0 CFG=1
M  V30 25 C 0.241499 0.554009 -0.889675 0
M  V30 26 C 1.165377 -0.513005 -0.343518 0
M  V30 27 C 1.079396 -0.622970 1.139213 0 CFG=2
M  V30 28 C 1.740183 0.518181 1.869207 0
M  V30 29 H 3.262760 -3.905564 2.997978 0
M  V30 30 H 3.268866 -4.645717 1.331373 0
M  V30 31 H 1.709482 -4.276282 2.189858 0
M  V30 32 H 2.819377 -2.697638 0.307590 0
M  V30 33 H 4.002070 -1.743644 3.007286 0
M  V30 34 H 3.988164 -0.717480 1.578219 0
M  V30 35 H 6.118414 -1.795108 1.661658 0
M  V30 36 H 5.268199 -2.527494 0.307531 0
M  V30 37 H 5.801228 -5.867950 1.814212 0
M  V30 38 H 0.691716 -2.678330 1.194058 0
M  V30 39 H 0.618806 -2.855030 3.431145 0
M  V30 40 H 1.694409 -1.497102 3.827057 0
M  V30 41 H -1.117674 -1.427770 3.427724 0
M  V30 42 H -0.098465 0.029336 3.590430 0
M  V30 43 H -0.760223 -1.653228 1.104363 0
M  V30 44 H -0.819803 1.413491 1.304544 0
M  V30 45 H -2.627428 -0.331750 2.419158 0
M  V30 46 H -3.781407 1.906956 1.475621 0
M  V30 47 H -3.451724 -1.278603 0.443748 0
M  V30 48 H -4.604667 -0.020312 0.971722 0
M  V30 49 H -4.259554 1.412823 -0.733466 0
M  V30 50 H -3.584579 -1.368785 -1.727430 0
M  V30 51 H -5.221569 -0.618868 -1.386423 0
M  V30 52 H -5.321682 0.419942 -3.406473 0
M  V30 53 H -3.670301 -1.736742 -3.577357 0
M  V30 54 H -3.131105 1.460886 -4.413111 0
M  V30 55 H -3.739053 2.142965 -2.804436 0
M  V30 56 H -1.218080 1.494293 -3.057453 0
M  V30 57 H -1.825163 -0.237663 -2.910633 0
M  V30 58 H -2.948078 2.986056 -0.515181 0
M  V30 59 H -1.144493 2.668754 -0.277326 0
M  V30 60 H -1.805514 3.085450 -1.864261 0
M  V30 61 H -1.337427 -0.846601 -0.677655 0
M  V30 62 H 0.532140 1.521670 -0.444639 0
M  V30 63 H 0.371412 0.619060 -1.991600 0
M  V30 64 H 2.201440 -0.181491 -0.632864 0
M  V30 65 H 0.974727 -1.502358 -0.807554 0
M  V30 66 H 2.420742 1.025793 1.161919 0
M  V30 67 H 2.180303 0.177748 2.804613 0
M  V30 68 H 0.997573 1.295388 2.152078 0
M  V30 END ATOM
M  V30 BEGIN BOND
M  V30 1 1 1 2
M  V30 2 1 2 3
M  V30 3 1 3 4
M  V30 4 1 4 5
M  V30 5 2 5 6
M  V30 6 1 5 7
M  V30 7 1 2 8
M  V30 8 1 8 9
M  V30 9 1 9 10
M  V30 10 1 10 11
M  V30 11 1 11 12
M  V30 12 1 12 13
M  V30 13 1 13 14
M  V30 14 1 13 15
M  V30 15 1 15 16
M  V30 16 1 16 17
M  V30 17 1 17 18
M  V30 18 1 18 19
M  V30 19 1 18 20
M  V30 20 1 20 21
M  V30 21 1 21 22
M  V30 22 1 22 23 CFG=3
M  V30 23 1 22 24
M  V30 24 1 24 25
M  V30 25 1 25 26
M  V30 26 1 26 27
M  V30 27 1 27 28 CFG=1
M  V30 28 1 27 8
M  V30 29 1 27 11
M  V30 30 1 24 12
M  V30 31 1 22 16
M  V30 32 1 1 29
M  V30 33 1 1 30
M  V30 34 1 1 31
M  V30 35 1 2 32 CFG=3
M  V30 36 1 3 33
M  V30 37 1 3 34
M  V30 38 1 4 35
M  V30 39 1 4 36
M  V30 40 1 7 37
M  V30 41 1 8 38 CFG=3
M  V30 42 1 9 39
M  V30 43 1 9 40
M  V30 44 1 10 41
M  V30 45 1 10 42
M  V30 46 1 11 43 CFG=3
M  V30 47 1 12 44 CFG=3
M  V30 48 1 13 45 CFG=1
M  V30 49 1 14 46
M  V30 50 1 15 47
M  V30 51 1 15 48
M  V30 52 1 16 49 CFG=1
M  V30 53 1 17 50
M  V30 54 1 17 51
M  V30 55 1 18 52 CFG=3
M  V30 56 1 19 53
M  V30 57 1 20 54
M  V30 58 1 20 55
M  V30 59 1 21 56
M  V30 60 1 21 57
M  V30 61 1 23 58
M  V30 62 1 23 59
M  V30 63 1 23 60
M  V30 64 1 24 61 CFG=1
M  V30 65 1 25 62
M  V30 66 1 25 63
M  V30 67 1 26 64
M  V30 68 1 26 65
M  V30 69 1 28 66
M  V30 70 1 28 67
M  V30 71 1 28 68
M  V30 END BOND
M  V30 END CTAB
M  END
>  <Dataset>  (26) 
OralDrugs

>  <Ligand_Instance>  (26) 
nan

>  <PDB_ID>  (26) 
nan

>  <Standardized_SMILES>  (26) 
C[C@H](CCC(=O)O)[C@H]1CC[C@H]2[C@@H]3[C@@H](O)C[C@@H]4C[C@H](O)CC[C@]4(C)[C@H]3CC[C@]12C

>  <Name>  (26) 
Ursodiol

>  <Pocket>  (26) 
nan

>  <ATP_Site>  (26) 
nan

>  <Peripheral>  (26) 
nan

>  <Num_H_Atoms_ProtBoundConf>  (26) 
nan

>  <Num_Resolved_Atoms>  (26) 
nan

>  <Num_Not_Resolved_Atoms>  (26) 
nan

>  <2D_Mol_H>  (26) 
<rdkit.Chem.rdchem.Mol object at 0x72a238b93ae0>

>  <MW>  (26) 
392.58

>  <HBA>  (26) 
4

>  <HBD>  (26) 
3

>  <LogP>  (26) 
4.4779

>  <NRB>  (26) 
9

>  <TPSA>  (26) 
77.76

>  <Num_Heavy_Atoms>  (26) 
28

>  <Ro5>  (26) 
[True, True, True, True, True, True]

>  <Ro5_Fulfilled>  (26) 
True

>  <Ro3>  (26) 
[False, False, True, False]

>  <Ro3_Fulfilled>  (26) 
False

>  <Fsp3>  (26) 
0.958333

>  <Fsp3_0.42>  (26) 
True

>  <Fsp3_0.45>  (26) 
True

>  <Stereogenic_Carbons>  (26) 
10

>  <C_Atoms>  (26) 
24

>  <FCStereo>  (26) 
0.416667

>  <SPS>  (26) 
1447

>  <nSPS>  (26) 
51.678571

>  <PBF>  (26) 
1.182012

>  <PBF_0.6>  (26) 
True

>  <nPBF>  (26) 
0.042215

>  <nPBF_0.016>  (26) 
True

>  <PMI1>  (26) 
1276.238462

>  <PMI2>  (26) 
6451.425035

>  <PMI3>  (26) 
6864.264702

>  <NPR1>  (26) 
0.185925

>  <NPR2>  (26) 
0.939857

>  <Sum_NPR>  (26) 
1.125782

>  <Sum_NPR_1.07>  (26) 
True

>  <Sum_NPR_1.2>  (26) 
False

>  <MaxAbsEStateIndex>  (26) 
11.247178

>  <MaxEStateIndex>  (26) 
11.247178

>  <MinAbsEStateIndex>  (26) 
0.179049

>  <MinEStateIndex>  (26) 
-0.683876

>  <qed>  (26) 
0.659162

>  <MolWt>  (26) 
392.58

>  <HeavyAtomMolWt>  (26) 
352.26

>  <ExactMolWt>  (26) 
392.29266

>  <NumValenceElectrons>  (26) 
160

>  <NumRadicalElectrons>  (26) 
0

>  <MaxPartialCharge>  (26) 
0.30285

>  <MinPartialCharge>  (26) 
-0.48123

>  <MaxAbsPartialCharge>  (26) 
0.48123

>  <MinAbsPartialCharge>  (26) 
0.30285

>  <FpDensityMorgan1>  (26) 
1.0

>  <FpDensityMorgan2>  (26) 
1.678571

>  <FpDensityMorgan3>  (26) 
2.392857

>  <BCUT2D_MWHI>  (26) 
16.365284

>  <BCUT2D_MWLOW>  (26) 
9.434253

>  <BCUT2D_CHGHI>  (26) 
2.623109

>  <BCUT2D_CHGLO>  (26) 
-2.62098

>  <BCUT2D_LOGPHI>  (26) 
2.679144

>  <BCUT2D_LOGPLOW>  (26) 
-2.582653

>  <BCUT2D_MRHI>  (26) 
5.661073

>  <BCUT2D_MRLOW>  (26) 
-0.173921

>  <AvgIpc>  (26) 
2.981759

>  <BalabanJ>  (26) 
1.554822

>  <BertzCT>  (26) 
605.412568

>  <Chi0>  (26) 
20.26722

>  <Chi0n>  (26) 
17.939759

>  <Chi0v>  (26) 
17.939759

>  <Chi1>  (26) 
13.164375

>  <Chi1n>  (26) 
11.744408

>  <Chi1v>  (26) 
11.744408

>  <Chi2n>  (26) 
11.362364

>  <Chi2v>  (26) 
11.362364

>  <Chi3n>  (26) 
10.229286

>  <Chi3v>  (26) 
10.229286

>  <Chi4n>  (26) 
8.727804

>  <Chi4v>  (26) 
8.727804

>  <HallKierAlpha>  (26) 
-0.61

>  <Ipc>  (26) 
1943805.758509

>  <Kappa1>  (26) 
20.654249

>  <Kappa2>  (26) 
7.2653

>  <Kappa3>  (26) 
3.136841

>  <LabuteASA>  (26) 
169.653818

>  <PEOE_VSA1>  (26) 
15.319582

>  <PEOE_VSA10>  (26) 
0.0

>  <PEOE_VSA11>  (26) 
0.0

>  <PEOE_VSA12>  (26) 
0.0

>  <PEOE_VSA13>  (26) 
0.0

>  <PEOE_VSA14>  (26) 
5.969305

>  <PEOE_VSA2>  (26) 
4.794537

>  <PEOE_VSA3>  (26) 
0.0

>  <PEOE_VSA4>  (26) 
0.0

>  <PEOE_VSA5>  (26) 
0.0

>  <PEOE_VSA6>  (26) 
20.771212

>  <PEOE_VSA7>  (26) 
104.124812

>  <PEOE_VSA8>  (26) 
6.420822

>  <PEOE_VSA9>  (26) 
12.207933

>  <SMR_VSA1>  (26) 
20.114119

>  <SMR_VSA10>  (26) 
5.969305

>  <SMR_VSA2>  (26) 
0.0

>  <SMR_VSA3>  (26) 
0.0

>  <SMR_VSA4>  (26) 
46.337417

>  <SMR_VSA5>  (26) 
97.187361

>  <SMR_VSA6>  (26) 
0.0

>  <SMR_VSA7>  (26) 
0.0

>  <SMR_VSA8>  (26) 
0.0

>  <SMR_VSA9>  (26) 
0.0

>  <SlogP_VSA1>  (26) 
0.0

>  <SlogP_VSA10>  (26) 
0.0

>  <SlogP_VSA11>  (26) 
0.0

>  <SlogP_VSA12>  (26) 
0.0

>  <SlogP_VSA2>  (26) 
33.49682

>  <SlogP_VSA3>  (26) 
4.794537

>  <SlogP_VSA4>  (26) 
46.337417

>  <SlogP_VSA5>  (26) 
84.979428

>  <SlogP_VSA6>  (26) 
0.0

>  <SlogP_VSA7>  (26) 
0.0

>  <SlogP_VSA8>  (26) 
0.0

>  <SlogP_VSA9>  (26) 
0.0

>  <EState_VSA1>  (26) 
5.969305

>  <EState_VSA10>  (26) 
15.007592

>  <EState_VSA11>  (26) 
0.0

>  <EState_VSA2>  (26) 
29.458735

>  <EState_VSA3>  (26) 
35.507436

>  <EState_VSA4>  (26) 
32.104108

>  <EState_VSA5>  (26) 
25.683286

>  <EState_VSA6>  (26) 
0.0

>  <EState_VSA7>  (26) 
0.0

>  <EState_VSA8>  (26) 
20.771212

>  <EState_VSA9>  (26) 
5.106527

>  <VSA_EState1>  (26) 
0.0

>  <VSA_EState10>  (26) 
0.0

>  <VSA_EState2>  (26) 
11.053548

>  <VSA_EState3>  (26) 
30.542332

>  <VSA_EState4>  (26) 
0.522729

>  <VSA_EState5>  (26) 
2.356652

>  <VSA_EState6>  (26) 
0.0

>  <VSA_EState7>  (26) 
9.194629

>  <VSA_EState8>  (26) 
7.163443

>  <VSA_EState9>  (26) 
0.0

>  <FractionCSP3>  (26) 
0.958333

>  <HeavyAtomCount>  (26) 
28

>  <NHOHCount>  (26) 
3

>  <NOCount>  (26) 
4

>  <NumAliphaticCarbocycles>  (26) 
4

>  <NumAliphaticHeterocycles>  (26) 
0

>  <NumAliphaticRings>  (26) 
4

>  <NumAromaticCarbocycles>  (26) 
0

>  <NumAromaticHeterocycles>  (26) 
0

>  <NumAromaticRings>  (26) 
0

>  <NumHAcceptors>  (26) 
3

>  <NumHDonors>  (26) 
3

>  <NumHeteroatoms>  (26) 
4

>  <NumRotatableBonds>  (26) 
4

>  <NumSaturatedCarbocycles>  (26) 
4

>  <NumSaturatedHeterocycles>  (26) 
0

>  <NumSaturatedRings>  (26) 
4

>  <RingCount>  (26) 
4

>  <MolLogP>  (26) 
4.4779

>  <MolMR>  (26) 
108.6474

>  <fr_Al_COO>  (26) 
1

>  <fr_Al_OH>  (26) 
2

>  <fr_Al_OH_noTert>  (26) 
2

>  <fr_ArN>  (26) 
0

>  <fr_Ar_COO>  (26) 
0

>  <fr_Ar_N>  (26) 
0

>  <fr_Ar_NH>  (26) 
0

>  <fr_Ar_OH>  (26) 
0

>  <fr_COO>  (26) 
1

>  <fr_COO2>  (26) 
1

>  <fr_C_O>  (26) 
1

>  <fr_C_O_noCOO>  (26) 
0

>  <fr_C_S>  (26) 
0

>  <fr_HOCCN>  (26) 
0

>  <fr_Imine>  (26) 
0

>  <fr_NH0>  (26) 
0

>  <fr_NH1>  (26) 
0

>  <fr_NH2>  (26) 
0

>  <fr_N_O>  (26) 
0

>  <fr_Ndealkylation1>  (26) 
0

>  <fr_Ndealkylation2>  (26) 
0

>  <fr_Nhpyrrole>  (26) 
0

>  <fr_SH>  (26) 
0

>  <fr_aldehyde>  (26) 
0

>  <fr_alkyl_carbamate>  (26) 
0

>  <fr_alkyl_halide>  (26) 
0

>  <fr_allylic_oxid>  (26) 
0

>  <fr_amide>  (26) 
0

>  <fr_amidine>  (26) 
0

>  <fr_aniline>  (26) 
0

>  <fr_aryl_methyl>  (26) 
0

>  <fr_azide>  (26) 
0

>  <fr_azo>  (26) 
0

>  <fr_barbitur>  (26) 
0

>  <fr_benzene>  (26) 
0

>  <fr_benzodiazepine>  (26) 
0

>  <fr_bicyclic>  (26) 
5

>  <fr_diazo>  (26) 
0

>  <fr_dihydropyridine>  (26) 
0

>  <fr_epoxide>  (26) 
0

>  <fr_ester>  (26) 
0

>  <fr_ether>  (26) 
0

>  <fr_furan>  (26) 
0

>  <fr_guanido>  (26) 
0

>  <fr_halogen>  (26) 
0

>  <fr_hdrzine>  (26) 
0

>  <fr_hdrzone>  (26) 
0

>  <fr_imidazole>  (26) 
0

>  <fr_imide>  (26) 
0

>  <fr_isocyan>  (26) 
0

>  <fr_isothiocyan>  (26) 
0

>  <fr_ketone>  (26) 
0

>  <fr_ketone_Topliss>  (26) 
0

>  <fr_lactam>  (26) 
0

>  <fr_lactone>  (26) 
0

>  <fr_methoxy>  (26) 
0

>  <fr_morpholine>  (26) 
0

>  <fr_nitrile>  (26) 
0

>  <fr_nitro>  (26) 
0

>  <fr_nitro_arom>  (26) 
0

>  <fr_nitro_arom_nonortho>  (26) 
0

>  <fr_nitroso>  (26) 
0

>  <fr_oxazole>  (26) 
0

>  <fr_oxime>  (26) 
0

>  <fr_para_hydroxylation>  (26) 
0

>  <fr_phenol>  (26) 
0

>  <fr_phenol_noOrthoHbond>  (26) 
0

>  <fr_phos_acid>  (26) 
0

>  <fr_phos_ester>  (26) 
0

>  <fr_piperdine>  (26) 
0

>  <fr_piperzine>  (26) 
0

>  <fr_priamide>  (26) 
0

>  <fr_prisulfonamd>  (26) 
0

>  <fr_pyridine>  (26) 
0

>  <fr_quatN>  (26) 
0

>  <fr_sulfide>  (26) 
0

>  <fr_sulfonamd>  (26) 
0

>  <fr_sulfone>  (26) 
0

>  <fr_term_acetylene>  (26) 
0

>  <fr_tetrazole>  (26) 
0

>  <fr_thiazole>  (26) 
0

>  <fr_thiocyan>  (26) 
0

>  <fr_thiophene>  (26) 
0

>  <fr_unbrch_alkane>  (26) 
0

>  <fr_urea>  (26) 
0

>  <NP_Likeness>  (26) 
2.428583

$$$$
CHEMBL1069
     RDKit          3D

  0  0  0  0  0  0  0  0  0  0999 V3000
M  V30 BEGIN CTAB
M  V30 COUNTS 61 63 0 0 0
M  V30 BEGIN ATOM
M  V30 1 C 0.971606 -2.057401 4.762066 0
M  V30 2 C 2.099107 -3.016494 4.452559 0
M  V30 3 C 3.269872 -2.352261 3.816707 0
M  V30 4 C 3.031017 -1.654220 2.528115 0
M  V30 5 C 2.556579 -2.484910 1.410771 0
M  V30 6 O 2.608164 -3.692088 1.863401 0
M  V30 7 N 2.149317 -1.915290 0.109212 0
M  V30 8 C 2.182592 -0.492883 0.021436 0
M  V30 9 C 0.930857 0.250292 0.135888 0
M  V30 10 C 0.338395 0.761689 -1.041412 0
M  V30 11 C -0.833746 1.473446 -1.162096 0
M  V30 12 C -1.544568 1.737842 -0.006399 0
M  V30 13 C -2.788715 2.482210 0.059511 0
M  V30 14 C -2.581119 3.767587 0.539635 0
M  V30 15 C -3.641500 4.636642 0.642187 0
M  V30 16 C -4.888851 4.200379 0.261031 0
M  V30 17 C -5.022142 2.919790 -0.203303 0
M  V30 18 C -4.009125 1.996145 -0.332505 0
M  V30 19 C -4.252050 0.646848 -0.800223 0
M  V30 20 N -5.431625 0.317946 -1.311638 0
M  V30 21 N -5.453530 -0.930411 -1.707030 0
M  V30 22 N -4.271309 -1.443362 -1.455773 0
M  V30 23 N -3.561793 -0.477629 -0.908443 0
M  V30 24 C -1.035765 1.273746 1.180016 0
M  V30 25 C 0.142916 0.572503 1.198627 0
M  V30 26 C 1.887156 -3.149544 -0.604043 0 CFG=2
M  V30 27 C 2.913224 -3.345881 -1.692137 0
M  V30 28 O 3.167945 -4.268047 -2.546975 0
M  V30 29 O 4.004854 -2.796523 -2.342124 0
M  V30 30 C 0.507242 -3.358902 -1.095943 0
M  V30 31 C -0.029591 -2.395686 -2.088083 0
M  V30 32 C 0.343248 -4.765877 -1.671778 0
M  V30 33 H 0.089304 -2.425236 4.166022 0
M  V30 34 H 0.757675 -2.061971 5.841985 0
M  V30 35 H 1.175452 -1.016625 4.459903 0
M  V30 36 H 1.778424 -3.937656 3.953202 0
M  V30 37 H 2.481725 -3.382903 5.459921 0
M  V30 38 H 4.033948 -3.171382 3.652232 0
M  V30 39 H 3.726940 -1.692803 4.592837 0
M  V30 40 H 2.474376 -0.710504 2.632006 0
M  V30 41 H 4.068121 -1.301435 2.191553 0
M  V30 42 H 2.651488 -0.174073 -0.955907 0
M  V30 43 H 2.940312 -0.115900 0.770171 0
M  V30 44 H 0.817981 0.615123 -2.017974 0
M  V30 45 H -1.229418 1.834113 -2.093610 0
M  V30 46 H -1.639318 4.177292 0.853820 0
M  V30 47 H -3.580038 5.653898 1.004357 0
M  V30 48 H -5.742661 4.859184 0.329627 0
M  V30 49 H -6.044728 2.630313 -0.491986 0
M  V30 50 H -2.583867 -0.567220 -0.581406 0
M  V30 51 H -1.566500 1.462093 2.120754 0
M  V30 52 H 0.473158 0.242584 2.170396 0
M  V30 53 H 2.105645 -3.973924 0.115036 0
M  V30 54 H 3.924138 -2.013243 -2.975683 0
M  V30 55 H -0.223619 -3.359632 -0.233875 0
M  V30 56 H -0.816283 -1.779488 -1.621551 0
M  V30 57 H -0.577401 -2.926786 -2.930572 0
M  V30 58 H 0.727225 -1.702363 -2.505174 0
M  V30 59 H 0.949133 -4.810394 -2.594620 0
M  V30 60 H -0.723889 -4.957608 -1.928855 0
M  V30 61 H 0.766202 -5.493729 -0.958439 0
M  V30 END ATOM
M  V30 BEGIN BOND
M  V30 1 1 1 2
M  V30 2 1 2 3
M  V30 3 1 3 4
M  V30 4 1 4 5
M  V30 5 2 5 6
M  V30 6 1 5 7
M  V30 7 1 7 8
M  V30 8 1 8 9
M  V30 9 2 9 10
M  V30 10 1 10 11
M  V30 11 2 11 12
M  V30 12 1 12 13
M  V30 13 2 13 14
M  V30 14 1 14 15
M  V30 15 2 15 16
M  V30 16 1 16 17
M  V30 17 2 17 18
M  V30 18 1 18 19
M  V30 19 2 19 20
M  V30 20 1 20 21
M  V30 21 2 21 22
M  V30 22 1 22 23
M  V30 23 1 12 24
M  V30 24 2 24 25
M  V30 25 1 7 26
M  V30 26 1 26 27
M  V30 27 2 27 28
M  V30 28 1 27 29
M  V30 29 1 26 30
M  V30 30 1 30 31
M  V30 31 1 30 32
M  V30 32 1 25 9
M  V30 33 1 18 13
M  V30 34 1 23 19
M  V30 35 1 1 33
M  V30 36 1 1 34
M  V30 37 1 1 35
M  V30 38 1 2 36
M  V30 39 1 2 37
M  V30 40 1 3 38
M  V30 41 1 3 39
M  V30 42 1 4 40
M  V30 43 1 4 41
M  V30 44 1 8 42
M  V30 45 1 8 43
M  V30 46 1 10 44
M  V30 47 1 11 45
M  V30 48 1 14 46
M  V30 49 1 15 47
M  V30 50 1 16 48
M  V30 51 1 17 49
M  V30 52 1 23 50
M  V30 53 1 24 51
M  V30 54 1 25 52
M  V30 55 1 26 53 CFG=1
M  V30 56 1 29 54
M  V30 57 1 30 55
M  V30 58 1 31 56
M  V30 59 1 31 57
M  V30 60 1 31 58
M  V30 61 1 32 59
M  V30 62 1 32 60
M  V30 63 1 32 61
M  V30 END BOND
M  V30 END CTAB
M  END
>  <Dataset>  (27) 
OralDrugs

>  <Ligand_Instance>  (27) 
nan

>  <PDB_ID>  (27) 
nan

>  <Standardized_SMILES>  (27) 
CCCCC(=O)N(Cc1ccc(-c2ccccc2-c2nnn[nH]2)cc1)[C@H](C(=O)O)C(C)C

>  <Name>  (27) 
Valsartan

>  <Pocket>  (27) 
nan

>  <ATP_Site>  (27) 
nan

>  <Peripheral>  (27) 
nan

>  <Num_H_Atoms_ProtBoundConf>  (27) 
nan

>  <Num_Resolved_Atoms>  (27) 
nan

>  <Num_Not_Resolved_Atoms>  (27) 
nan

>  <2D_Mol_H>  (27) 
<rdkit.Chem.rdchem.Mol object at 0x72a238b93bc0>

>  <MW>  (27) 
435.528

>  <HBA>  (27) 
6

>  <HBD>  (27) 
2

>  <LogP>  (27) 
4.1617

>  <NRB>  (27) 
13

>  <TPSA>  (27) 
112.07

>  <Num_Heavy_Atoms>  (27) 
32

>  <Ro5>  (27) 
[True, True, True, True, False, True]

>  <Ro5_Fulfilled>  (27) 
True

>  <Ro3>  (27) 
[False, False, True, False]

>  <Ro3_Fulfilled>  (27) 
False

>  <Fsp3>  (27) 
0.375

>  <Fsp3_0.42>  (27) 
False

>  <Fsp3_0.45>  (27) 
False

>  <Stereogenic_Carbons>  (27) 
1

>  <C_Atoms>  (27) 
24

>  <FCStereo>  (27) 
0.041667

>  <SPS>  (27) 
384

>  <nSPS>  (27) 
12.0

>  <PBF>  (27) 
1.25888

>  <PBF_0.6>  (27) 
True

>  <nPBF>  (27) 
0.03934

>  <nPBF_0.016>  (27) 
True

>  <PMI1>  (27) 
2578.367195

>  <PMI2>  (27) 
6596.842273

>  <PMI3>  (27) 
7584.786227

>  <NPR1>  (27) 
0.339939

>  <NPR2>  (27) 
0.869747

>  <Sum_NPR>  (27) 
1.209686

>  <Sum_NPR_1.07>  (27) 
True

>  <Sum_NPR_1.2>  (27) 
True

>  <MaxAbsEStateIndex>  (27) 
12.861623

>  <MaxEStateIndex>  (27) 
12.861623

>  <MinAbsEStateIndex>  (27) 
0.124823

>  <MinEStateIndex>  (27) 
-0.975868

>  <qed>  (27) 
0.494432

>  <MolWt>  (27) 
435.528

>  <HeavyAtomMolWt>  (27) 
406.296

>  <ExactMolWt>  (27) 
435.22704

>  <NumValenceElectrons>  (27) 
168

>  <NumRadicalElectrons>  (27) 
0

>  <MaxPartialCharge>  (27) 
0.326196

>  <MinPartialCharge>  (27) 
-0.479704

>  <MaxAbsPartialCharge>  (27) 
0.479704

>  <MinAbsPartialCharge>  (27) 
0.326196

>  <FpDensityMorgan1>  (27) 
1.0625

>  <FpDensityMorgan2>  (27) 
1.75

>  <FpDensityMorgan3>  (27) 
2.3125

>  <BCUT2D_MWHI>  (27) 
16.368935

>  <BCUT2D_MWLOW>  (27) 
9.971137

>  <BCUT2D_CHGHI>  (27) 
2.315614

>  <BCUT2D_CHGLO>  (27) 
-2.315417

>  <BCUT2D_LOGPHI>  (27) 
2.297806

>  <BCUT2D_LOGPLOW>  (27) 
-2.471462

>  <BCUT2D_MRHI>  (27) 
5.838398

>  <BCUT2D_MRLOW>  (27) 
-0.152559

>  <AvgIpc>  (27) 
3.316447

>  <BalabanJ>  (27) 
1.87056

>  <BertzCT>  (27) 
1032.052952

>  <Chi0>  (27) 
23.087211

>  <Chi0n>  (27) 
18.654494

>  <Chi0v>  (27) 
18.654494

>  <Chi1>  (27) 
15.417923

>  <Chi1n>  (27) 
10.866742

>  <Chi1v>  (27) 
10.866742

>  <Chi2n>  (27) 
8.144645

>  <Chi2v>  (27) 
8.144645

>  <Chi3n>  (27) 
5.430203

>  <Chi3v>  (27) 
5.430203

>  <Chi4n>  (27) 
3.792628

>  <Chi4v>  (27) 
3.792628

>  <HallKierAlpha>  (27) 
-3.55

>  <Ipc>  (27) 
17315554.34641

>  <Kappa1>  (27) 
23.120242

>  <Kappa2>  (27) 
10.657082

>  <Kappa3>  (27) 
5.376175

>  <LabuteASA>  (27) 
187.210531

>  <PEOE_VSA1>  (27) 
10.006437

>  <PEOE_VSA10>  (27) 
6.041841

>  <PEOE_VSA11>  (27) 
5.824404

>  <PEOE_VSA12>  (27) 
5.90718

>  <PEOE_VSA13>  (27) 
0.0

>  <PEOE_VSA14>  (27) 
5.969305

>  <PEOE_VSA2>  (27) 
4.794537

>  <PEOE_VSA3>  (27) 
9.893219

>  <PEOE_VSA4>  (27) 
0.0

>  <PEOE_VSA5>  (27) 
5.098682

>  <PEOE_VSA6>  (27) 
75.72297

>  <PEOE_VSA7>  (27) 
39.455852

>  <PEOE_VSA8>  (27) 
18.52903

>  <PEOE_VSA9>  (27) 
0.0

>  <SMR_VSA1>  (27) 
14.695602

>  <SMR_VSA10>  (27) 
11.876485

>  <SMR_VSA2>  (27) 
0.0

>  <SMR_VSA3>  (27) 
25.524044

>  <SMR_VSA4>  (27) 
5.917906

>  <SMR_VSA5>  (27) 
52.620274

>  <SMR_VSA6>  (27) 
0.0

>  <SMR_VSA7>  (27) 
54.094388

>  <SMR_VSA8>  (27) 
0.0

>  <SMR_VSA9>  (27) 
22.514759

>  <SlogP_VSA1>  (27) 
0.0

>  <SlogP_VSA10>  (27) 
0.0

>  <SlogP_VSA11>  (27) 
0.0

>  <SlogP_VSA12>  (27) 
0.0

>  <SlogP_VSA2>  (27) 
48.548897

>  <SlogP_VSA3>  (27) 
16.133831

>  <SlogP_VSA4>  (27) 
5.917906

>  <SlogP_VSA5>  (27) 
45.597128

>  <SlogP_VSA6>  (27) 
48.530937

>  <SlogP_VSA7>  (27) 
0.0

>  <SlogP_VSA8>  (27) 
22.514759

>  <SlogP_VSA9>  (27) 
0.0

>  <EState_VSA1>  (27) 
12.011146

>  <EState_VSA10>  (27) 
14.695602

>  <EState_VSA11>  (27) 
0.0

>  <EState_VSA2>  (27) 
18.369842

>  <EState_VSA3>  (27) 
12.245226

>  <EState_VSA4>  (27) 
35.095449

>  <EState_VSA5>  (27) 
4.89991

>  <EState_VSA6>  (27) 
0.0

>  <EState_VSA7>  (27) 
69.302148

>  <EState_VSA8>  (27) 
20.624134

>  <EState_VSA9>  (27) 
0.0

>  <VSA_EState1>  (27) 
0.0

>  <VSA_EState10>  (27) 
0.0

>  <VSA_EState2>  (27) 
26.294376

>  <VSA_EState3>  (27) 
23.881223

>  <VSA_EState4>  (27) 
3.707412

>  <VSA_EState5>  (27) 
-0.713332

>  <VSA_EState6>  (27) 
14.757099

>  <VSA_EState7>  (27) 
1.975666

>  <VSA_EState8>  (27) 
5.930889

>  <VSA_EState9>  (27) 
0.0

>  <FractionCSP3>  (27) 
0.375

>  <HeavyAtomCount>  (27) 
32

>  <NHOHCount>  (27) 
2

>  <NOCount>  (27) 
8

>  <NumAliphaticCarbocycles>  (27) 
0

>  <NumAliphaticHeterocycles>  (27) 
0

>  <NumAliphaticRings>  (27) 
0

>  <NumAromaticCarbocycles>  (27) 
2

>  <NumAromaticHeterocycles>  (27) 
1

>  <NumAromaticRings>  (27) 
3

>  <NumHAcceptors>  (27) 
5

>  <NumHDonors>  (27) 
2

>  <NumHeteroatoms>  (27) 
8

>  <NumRotatableBonds>  (27) 
10

>  <NumSaturatedCarbocycles>  (27) 
0

>  <NumSaturatedHeterocycles>  (27) 
0

>  <NumSaturatedRings>  (27) 
0

>  <RingCount>  (27) 
3

>  <MolLogP>  (27) 
4.1617

>  <MolMR>  (27) 
121.3865

>  <fr_Al_COO>  (27) 
1

>  <fr_Al_OH>  (27) 
0

>  <fr_Al_OH_noTert>  (27) 
0

>  <fr_ArN>  (27) 
0

>  <fr_Ar_COO>  (27) 
0

>  <fr_Ar_N>  (27) 
4

>  <fr_Ar_NH>  (27) 
1

>  <fr_Ar_OH>  (27) 
0

>  <fr_COO>  (27) 
1

>  <fr_COO2>  (27) 
1

>  <fr_C_O>  (27) 
2

>  <fr_C_O_noCOO>  (27) 
1

>  <fr_C_S>  (27) 
0

>  <fr_HOCCN>  (27) 
0

>  <fr_Imine>  (27) 
0

>  <fr_NH0>  (27) 
4

>  <fr_NH1>  (27) 
1

>  <fr_NH2>  (27) 
0

>  <fr_N_O>  (27) 
0

>  <fr_Ndealkylation1>  (27) 
0

>  <fr_Ndealkylation2>  (27) 
0

>  <fr_Nhpyrrole>  (27) 
1

>  <fr_SH>  (27) 
0

>  <fr_aldehyde>  (27) 
0

>  <fr_alkyl_carbamate>  (27) 
0

>  <fr_alkyl_halide>  (27) 
0

>  <fr_allylic_oxid>  (27) 
0

>  <fr_amide>  (27) 
1

>  <fr_amidine>  (27) 
0

>  <fr_aniline>  (27) 
0

>  <fr_aryl_methyl>  (27) 
0

>  <fr_azide>  (27) 
0

>  <fr_azo>  (27) 
0

>  <fr_barbitur>  (27) 
0

>  <fr_benzene>  (27) 
2

>  <fr_benzodiazepine>  (27) 
0

>  <fr_bicyclic>  (27) 
0

>  <fr_diazo>  (27) 
0

>  <fr_dihydropyridine>  (27) 
0

>  <fr_epoxide>  (27) 
0

>  <fr_ester>  (27) 
0

>  <fr_ether>  (27) 
0

>  <fr_furan>  (27) 
0

>  <fr_guanido>  (27) 
0

>  <fr_halogen>  (27) 
0

>  <fr_hdrzine>  (27) 
0

>  <fr_hdrzone>  (27) 
0

>  <fr_imidazole>  (27) 
0

>  <fr_imide>  (27) 
0

>  <fr_isocyan>  (27) 
0

>  <fr_isothiocyan>  (27) 
0

>  <fr_ketone>  (27) 
0

>  <fr_ketone_Topliss>  (27) 
0

>  <fr_lactam>  (27) 
0

>  <fr_lactone>  (27) 
0

>  <fr_methoxy>  (27) 
0

>  <fr_morpholine>  (27) 
0

>  <fr_nitrile>  (27) 
0

>  <fr_nitro>  (27) 
0

>  <fr_nitro_arom>  (27) 
0

>  <fr_nitro_arom_nonortho>  (27) 
0

>  <fr_nitroso>  (27) 
0

>  <fr_oxazole>  (27) 
0

>  <fr_oxime>  (27) 
0

>  <fr_para_hydroxylation>  (27) 
0

>  <fr_phenol>  (27) 
0

>  <fr_phenol_noOrthoHbond>  (27) 
0

>  <fr_phos_acid>  (27) 
0

>  <fr_phos_ester>  (27) 
0

>  <fr_piperdine>  (27) 
0

>  <fr_piperzine>  (27) 
0

>  <fr_priamide>  (27) 
0

>  <fr_prisulfonamd>  (27) 
0

>  <fr_pyridine>  (27) 
0

>  <fr_quatN>  (27) 
0

>  <fr_sulfide>  (27) 
0

>  <fr_sulfonamd>  (27) 
0

>  <fr_sulfone>  (27) 
0

>  <fr_term_acetylene>  (27) 
0

>  <fr_tetrazole>  (27) 
1

>  <fr_thiazole>  (27) 
0

>  <fr_thiocyan>  (27) 
0

>  <fr_thiophene>  (27) 
0

>  <fr_unbrch_alkane>  (27) 
1

>  <fr_urea>  (27) 
0

>  <NP_Likeness>  (27) 
-0.984468

$$$$
CHEMBL3707311
     RDKit          3D

  0  0  0  0  0  0  0  0  0  0999 V3000
M  V30 BEGIN CTAB
M  V30 COUNTS 56 59 0 0 0
M  V30 BEGIN ATOM
M  V30 1 C -0.442646 -3.898760 4.282902 0
M  V30 2 C -0.075784 -4.635684 3.014470 0
M  V30 3 C -0.699485 -3.965686 1.812744 0
M  V30 4 O -1.896939 -4.235043 1.636616 0
M  V30 5 C 0.181602 -3.104609 1.031750 0 CFG=1
M  V30 6 O 1.480625 -3.023464 1.530845 0
M  V30 7 C 0.382670 -3.580311 -0.415376 0 CFG=2
M  V30 8 C 1.222445 -4.804716 -0.516506 0
M  V30 9 C 1.090896 -2.353578 -1.016230 0
M  V30 10 C 0.874184 -1.217433 -0.047007 0 CFG=1
M  V30 11 C 0.625317 0.101487 -0.656681 0 CFG=2
M  V30 12 C 1.827400 0.997583 -0.651436 0
M  V30 13 C 1.601546 2.447152 -0.755647 0
M  V30 14 C 0.278982 2.956861 -0.358093 0
M  V30 15 C 0.165900 4.158807 0.200700 0
M  V30 16 C -1.173007 4.605295 0.571678 0
M  V30 17 O -1.396240 5.719226 1.104196 0
M  V30 18 C -2.318651 3.762035 0.334359 0
M  V30 19 C -2.164834 2.578041 -0.221073 0
M  V30 20 C -0.871901 2.050732 -0.622458 0 CFG=1
M  V30 21 C -0.980530 1.763666 -2.126869 0
M  V30 22 C -0.470089 0.794844 0.080186 0
M  V30 23 C -1.091588 0.460116 1.208456 0
M  V30 24 C -0.604581 -0.824894 1.836017 0
M  V30 25 C -0.360727 -1.739054 0.706209 0 CFG=2
M  V30 26 C -1.562320 -1.794717 -0.175404 0
M  V30 27 H 0.367664 -3.218277 4.625059 0
M  V30 28 H -0.578866 -4.650056 5.093724 0
M  V30 29 H -1.393683 -3.366132 4.079293 0
M  V30 30 H 1.030842 -4.721323 2.896581 0
M  V30 31 H -0.495693 -5.649480 3.072097 0
M  V30 32 H 1.578174 -2.464042 2.319976 0
M  V30 33 H -0.561888 -3.717465 -0.943776 0
M  V30 34 H 0.563895 -5.714192 -0.567527 0
M  V30 35 H 2.006437 -4.900787 0.235801 0
M  V30 36 H 1.741927 -4.788796 -1.515306 0
M  V30 37 H 2.177695 -2.622382 -0.950746 0
M  V30 38 H 0.767510 -2.129610 -2.030665 0
M  V30 39 H 1.658097 -1.146765 0.714687 0
M  V30 40 H 0.238640 -0.051590 -1.704206 0
M  V30 41 H 2.378760 0.789138 0.298521 0
M  V30 42 H 2.534236 0.629455 -1.440345 0
M  V30 43 H 2.434224 2.993085 -0.217998 0
M  V30 44 H 1.761177 2.755756 -1.822481 0
M  V30 45 H 1.023316 4.792736 0.380863 0
M  V30 46 H -3.352340 4.032168 0.585844 0
M  V30 47 H -2.993068 1.895979 -0.426884 0
M  V30 48 H -1.598830 2.588675 -2.563473 0
M  V30 49 H -1.560080 0.837718 -2.297963 0
M  V30 50 H -0.012712 1.786746 -2.636508 0
M  V30 51 H -1.869245 1.123543 1.563374 0
M  V30 52 H 0.314904 -0.542946 2.390580 0
M  V30 53 H -1.391820 -1.196505 2.521202 0
M  V30 54 H -1.326706 -1.663680 -1.252370 0
M  V30 55 H -2.149346 -2.731846 -0.123844 0
M  V30 56 H -2.291962 -0.972884 0.050988 0
M  V30 END ATOM
M  V30 BEGIN BOND
M  V30 1 1 1 2
M  V30 2 1 2 3
M  V30 3 2 3 4
M  V30 4 1 3 5
M  V30 5 1 5 6 CFG=1
M  V30 6 1 5 7
M  V30 7 1 7 8
M  V30 8 1 7 9
M  V30 9 1 9 10
M  V30 10 1 10 11
M  V30 11 1 11 12
M  V30 12 1 12 13
M  V30 13 1 13 14
M  V30 14 2 14 15
M  V30 15 1 15 16
M  V30 16 2 16 17
M  V30 17 1 16 18
M  V30 18 2 18 19
M  V30 19 1 19 20
M  V30 20 1 20 21 CFG=3
M  V30 21 1 20 22
M  V30 22 2 22 23
M  V30 23 1 23 24
M  V30 24 1 24 25
M  V30 25 1 25 26 CFG=3
M  V30 26 1 25 5
M  V30 27 1 25 10
M  V30 28 1 22 11
M  V30 29 1 20 14
M  V30 30 1 1 27
M  V30 31 1 1 28
M  V30 32 1 1 29
M  V30 33 1 2 30
M  V30 34 1 2 31
M  V30 35 1 6 32
M  V30 36 1 7 33 CFG=3
M  V30 37 1 8 34
M  V30 38 1 8 35
M  V30 39 1 8 36
M  V30 40 1 9 37
M  V30 41 1 9 38
M  V30 42 1 10 39 CFG=1
M  V30 43 1 11 40 CFG=3
M  V30 44 1 12 41
M  V30 45 1 12 42
M  V30 46 1 13 43
M  V30 47 1 13 44
M  V30 48 1 15 45
M  V30 49 1 18 46
M  V30 50 1 19 47
M  V30 51 1 21 48
M  V30 52 1 21 49
M  V30 53 1 21 50
M  V30 54 1 23 51
M  V30 55 1 24 52
M  V30 56 1 24 53
M  V30 57 1 26 54
M  V30 58 1 26 55
M  V30 59 1 26 56
M  V30 END BOND
M  V30 END CTAB
M  END
>  <Dataset>  (28) 
OralDrugs

>  <Ligand_Instance>  (28) 
nan

>  <PDB_ID>  (28) 
nan

>  <Standardized_SMILES>  (28) 
CCC(=O)[C@@]1(O)[C@H](C)C[C@H]2[C@@H]3CCC4=CC(=O)C=C[C@]4(C)C3=CC[C@@]21C

>  <Name>  (28) 
Vamorolone

>  <Pocket>  (28) 
nan

>  <ATP_Site>  (28) 
nan

>  <Peripheral>  (28) 
nan

>  <Num_H_Atoms_ProtBoundConf>  (28) 
nan

>  <Num_Resolved_Atoms>  (28) 
nan

>  <Num_Not_Resolved_Atoms>  (28) 
nan

>  <2D_Mol_H>  (28) 
<rdkit.Chem.rdchem.Mol object at 0x72a238b93ca0>

>  <MW>  (28) 
354.49

>  <HBA>  (28) 
3

>  <HBD>  (28) 
1

>  <LogP>  (28) 
4.1706

>  <NRB>  (28) 
7

>  <TPSA>  (28) 
54.37

>  <Num_Heavy_Atoms>  (28) 
26

>  <Ro5>  (28) 
[True, True, True, True, True, True]

>  <Ro5_Fulfilled>  (28) 
True

>  <Ro3>  (28) 
[False, True, True, False]

>  <Ro3_Fulfilled>  (28) 
False

>  <Fsp3>  (28) 
0.652174

>  <Fsp3_0.42>  (28) 
True

>  <Fsp3_0.45>  (28) 
True

>  <Stereogenic_Carbons>  (28) 
6

>  <C_Atoms>  (28) 
23

>  <FCStereo>  (28) 
0.26087

>  <SPS>  (28) 
1217

>  <nSPS>  (28) 
46.807692

>  <PBF>  (28) 
1.09348

>  <PBF_0.6>  (28) 
True

>  <nPBF>  (28) 
0.042057

>  <nPBF_0.016>  (28) 
True

>  <PMI1>  (28) 
1082.475789

>  <PMI2>  (28) 
4067.67445

>  <PMI3>  (28) 
4441.873994

>  <NPR1>  (28) 
0.243698

>  <NPR2>  (28) 
0.915756

>  <Sum_NPR>  (28) 
1.159454

>  <Sum_NPR_1.07>  (28) 
True

>  <Sum_NPR_1.2>  (28) 
False

>  <MaxAbsEStateIndex>  (28) 
12.765085

>  <MaxEStateIndex>  (28) 
12.765085

>  <MinAbsEStateIndex>  (28) 
0.002208

>  <MinEStateIndex>  (28) 
-1.218415

>  <qed>  (28) 
0.757321

>  <MolWt>  (28) 
354.49

>  <HeavyAtomMolWt>  (28) 
324.25

>  <ExactMolWt>  (28) 
354.219495

>  <NumValenceElectrons>  (28) 
140

>  <NumRadicalElectrons>  (28) 
0

>  <MaxPartialCharge>  (28) 
0.17786

>  <MinPartialCharge>  (28) 
-0.381197

>  <MaxAbsPartialCharge>  (28) 
0.381197

>  <MinAbsPartialCharge>  (28) 
0.17786

>  <FpDensityMorgan1>  (28) 
1.346154

>  <FpDensityMorgan2>  (28) 
2.076923

>  <FpDensityMorgan3>  (28) 
2.769231

>  <BCUT2D_MWHI>  (28) 
16.302406

>  <BCUT2D_MWLOW>  (28) 
9.509911

>  <BCUT2D_CHGHI>  (28) 
2.662085

>  <BCUT2D_CHGLO>  (28) 
-2.533229

>  <BCUT2D_LOGPHI>  (28) 
2.660178

>  <BCUT2D_LOGPLOW>  (28) 
-2.560496

>  <BCUT2D_MRHI>  (28) 
6.010928

>  <BCUT2D_MRLOW>  (28) 
-0.157791

>  <AvgIpc>  (28) 
2.826721

>  <BalabanJ>  (28) 
1.792768

>  <BertzCT>  (28) 
772.322436

>  <Chi0>  (28) 
18.905413

>  <Chi0n>  (28) 
16.340696

>  <Chi0v>  (28) 
16.340696

>  <Chi1>  (28) 
12.180541

>  <Chi1n>  (28) 
10.086033

>  <Chi1v>  (28) 
10.086033

>  <Chi2n>  (28) 
9.320208

>  <Chi2v>  (28) 
9.320208

>  <Chi3n>  (28) 
8.276005

>  <Chi3v>  (28) 
8.276005

>  <Chi4n>  (28) 
6.729195

>  <Chi4v>  (28) 
6.729195

>  <HallKierAlpha>  (28) 
-1.48

>  <Ipc>  (28) 
731688.19667

>  <Kappa1>  (28) 
17.91011

>  <Kappa2>  (28) 
5.511816

>  <Kappa3>  (28) 
1.983067

>  <LabuteASA>  (28) 
155.793122

>  <PEOE_VSA1>  (28) 
5.106527

>  <PEOE_VSA10>  (28) 
5.601051

>  <PEOE_VSA11>  (28) 
11.56649

>  <PEOE_VSA12>  (28) 
0.0

>  <PEOE_VSA13>  (28) 
0.0

>  <PEOE_VSA14>  (28) 
0.0

>  <PEOE_VSA2>  (28) 
9.589074

>  <PEOE_VSA3>  (28) 
0.0

>  <PEOE_VSA4>  (28) 
0.0

>  <PEOE_VSA5>  (28) 
0.0

>  <PEOE_VSA6>  (28) 
44.069461

>  <PEOE_VSA7>  (28) 
62.512782

>  <PEOE_VSA8>  (28) 
17.250803

>  <PEOE_VSA9>  (28) 
0.0

>  <SMR_VSA1>  (28) 
14.695602

>  <SMR_VSA10>  (28) 
11.56649

>  <SMR_VSA2>  (28) 
0.0

>  <SMR_VSA3>  (28) 
0.0

>  <SMR_VSA4>  (28) 
28.583699

>  <SMR_VSA5>  (28) 
65.400108

>  <SMR_VSA6>  (28) 
0.0

>  <SMR_VSA7>  (28) 
35.450289

>  <SMR_VSA8>  (28) 
0.0

>  <SMR_VSA9>  (28) 
0.0

>  <SlogP_VSA1>  (28) 
0.0

>  <SlogP_VSA10>  (28) 
0.0

>  <SlogP_VSA11>  (28) 
0.0

>  <SlogP_VSA12>  (28) 
0.0

>  <SlogP_VSA2>  (28) 
22.274068

>  <SlogP_VSA3>  (28) 
9.589074

>  <SlogP_VSA4>  (28) 
28.583699

>  <SlogP_VSA5>  (28) 
59.799057

>  <SlogP_VSA6>  (28) 
35.450289

>  <SlogP_VSA7>  (28) 
0.0

>  <SlogP_VSA8>  (28) 
0.0

>  <SlogP_VSA9>  (28) 
0.0

>  <EState_VSA1>  (28) 
5.601051

>  <EState_VSA10>  (28) 
14.695602

>  <EState_VSA11>  (28) 
0.0

>  <EState_VSA2>  (28) 
28.314377

>  <EState_VSA3>  (28) 
18.256634

>  <EState_VSA4>  (28) 
25.683286

>  <EState_VSA5>  (28) 
11.146209

>  <EState_VSA6>  (28) 
6.07602

>  <EState_VSA7>  (28) 
19.923495

>  <EState_VSA8>  (28) 
25.999515

>  <EState_VSA9>  (28) 
0.0

>  <VSA_EState1>  (28) 
0.0

>  <VSA_EState10>  (28) 
0.0

>  <VSA_EState2>  (28) 
24.601844

>  <VSA_EState3>  (28) 
11.55555

>  <VSA_EState4>  (28) 
0.850775

>  <VSA_EState5>  (28) 
0.787408

>  <VSA_EState6>  (28) 
0.0

>  <VSA_EState7>  (28) 
11.854878

>  <VSA_EState8>  (28) 
8.266212

>  <VSA_EState9>  (28) 
0.0

>  <FractionCSP3>  (28) 
0.652174

>  <HeavyAtomCount>  (28) 
26

>  <NHOHCount>  (28) 
1

>  <NOCount>  (28) 
3

>  <NumAliphaticCarbocycles>  (28) 
4

>  <NumAliphaticHeterocycles>  (28) 
0

>  <NumAliphaticRings>  (28) 
4

>  <NumAromaticCarbocycles>  (28) 
0

>  <NumAromaticHeterocycles>  (28) 
0

>  <NumAromaticRings>  (28) 
0

>  <NumHAcceptors>  (28) 
3

>  <NumHDonors>  (28) 
1

>  <NumHeteroatoms>  (28) 
3

>  <NumRotatableBonds>  (28) 
2

>  <NumSaturatedCarbocycles>  (28) 
2

>  <NumSaturatedHeterocycles>  (28) 
0

>  <NumSaturatedRings>  (28) 
2

>  <RingCount>  (28) 
4

>  <MolLogP>  (28) 
4.1706

>  <MolMR>  (28) 
101.3868

>  <fr_Al_COO>  (28) 
0

>  <fr_Al_OH>  (28) 
1

>  <fr_Al_OH_noTert>  (28) 
0

>  <fr_ArN>  (28) 
0

>  <fr_Ar_COO>  (28) 
0

>  <fr_Ar_N>  (28) 
0

>  <fr_Ar_NH>  (28) 
0

>  <fr_Ar_OH>  (28) 
0

>  <fr_COO>  (28) 
0

>  <fr_COO2>  (28) 
0

>  <fr_C_O>  (28) 
2

>  <fr_C_O_noCOO>  (28) 
2

>  <fr_C_S>  (28) 
0

>  <fr_HOCCN>  (28) 
0

>  <fr_Imine>  (28) 
0

>  <fr_NH0>  (28) 
0

>  <fr_NH1>  (28) 
0

>  <fr_NH2>  (28) 
0

>  <fr_N_O>  (28) 
0

>  <fr_Ndealkylation1>  (28) 
0

>  <fr_Ndealkylation2>  (28) 
0

>  <fr_Nhpyrrole>  (28) 
0

>  <fr_SH>  (28) 
0

>  <fr_aldehyde>  (28) 
0

>  <fr_alkyl_carbamate>  (28) 
0

>  <fr_alkyl_halide>  (28) 
0

>  <fr_allylic_oxid>  (28) 
6

>  <fr_amide>  (28) 
0

>  <fr_amidine>  (28) 
0

>  <fr_aniline>  (28) 
0

>  <fr_aryl_methyl>  (28) 
0

>  <fr_azide>  (28) 
0

>  <fr_azo>  (28) 
0

>  <fr_barbitur>  (28) 
0

>  <fr_benzene>  (28) 
0

>  <fr_benzodiazepine>  (28) 
0

>  <fr_bicyclic>  (28) 
5

>  <fr_diazo>  (28) 
0

>  <fr_dihydropyridine>  (28) 
0

>  <fr_epoxide>  (28) 
0

>  <fr_ester>  (28) 
0

>  <fr_ether>  (28) 
0

>  <fr_furan>  (28) 
0

>  <fr_guanido>  (28) 
0

>  <fr_halogen>  (28) 
0

>  <fr_hdrzine>  (28) 
0

>  <fr_hdrzone>  (28) 
0

>  <fr_imidazole>  (28) 
0

>  <fr_imide>  (28) 
0

>  <fr_isocyan>  (28) 
0

>  <fr_isothiocyan>  (28) 
0

>  <fr_ketone>  (28) 
2

>  <fr_ketone_Topliss>  (28) 
1

>  <fr_lactam>  (28) 
0

>  <fr_lactone>  (28) 
0

>  <fr_methoxy>  (28) 
0

>  <fr_morpholine>  (28) 
0

>  <fr_nitrile>  (28) 
0

>  <fr_nitro>  (28) 
0

>  <fr_nitro_arom>  (28) 
0

>  <fr_nitro_arom_nonortho>  (28) 
0

>  <fr_nitroso>  (28) 
0

>  <fr_oxazole>  (28) 
0

>  <fr_oxime>  (28) 
0

>  <fr_para_hydroxylation>  (28) 
0

>  <fr_phenol>  (28) 
0

>  <fr_phenol_noOrthoHbond>  (28) 
0

>  <fr_phos_acid>  (28) 
0

>  <fr_phos_ester>  (28) 
0

>  <fr_piperdine>  (28) 
0

>  <fr_piperzine>  (28) 
0

>  <fr_priamide>  (28) 
0

>  <fr_prisulfonamd>  (28) 
0

>  <fr_pyridine>  (28) 
0

>  <fr_quatN>  (28) 
0

>  <fr_sulfide>  (28) 
0

>  <fr_sulfonamd>  (28) 
0

>  <fr_sulfone>  (28) 
0

>  <fr_term_acetylene>  (28) 
0

>  <fr_tetrazole>  (28) 
0

>  <fr_thiazole>  (28) 
0

>  <fr_thiocyan>  (28) 
0

>  <fr_thiophene>  (28) 
0

>  <fr_unbrch_alkane>  (28) 
0

>  <fr_urea>  (28) 
0

>  <NP_Likeness>  (28) 
2.608776

$$$$
CHEMBL262777
     RDKit          2D

  0  0  0  0  0  0  0  0  0  0999 V3000
M  V30 BEGIN CTAB
M  V30 COUNTS 176 185 0 0 0
M  V30 BEGIN ATOM
M  V30 1 C -16.673569 -10.132713 0.000000 0
M  V30 2 N -15.186401 -10.328502 0.000000 0
M  V30 3 C -14.612376 -11.714321 0.000000 0
M  V30 4 C -15.998195 -12.288346 0.000000 0
M  V30 5 C -17.384015 -12.862372 0.000000 0
M  V30 6 C -18.769834 -13.436397 0.000000 0
M  V30 7 C -16.809990 -14.248191 0.000000 0
M  V30 8 C -13.226557 -11.140296 0.000000 0
M  V30 9 O -13.030768 -9.653129 0.000000 0
M  V30 10 N -12.036527 -12.053438 0.000000 0
M  V30 11 C -10.650708 -11.479413 0.000000 0
M  V30 12 C -10.076682 -10.093594 0.000000 0
M  V30 13 O -11.323887 -9.260238 0.000000 0
M  V30 14 N -9.016022 -9.032934 0.000000 0
M  V30 15 C -7.630203 -8.458908 0.000000 0
M  V30 16 C -8.690863 -7.398248 0.000000 0
M  V30 17 C -9.751523 -6.337588 0.000000 0
M  V30 18 N -9.363295 -4.888699 0.000000 0
M  V30 19 O -11.200412 -6.725817 0.000000 0
M  V30 20 C -6.130203 -8.458908 0.000000 0
M  V30 21 O -5.837567 -6.987731 0.000000 0
M  V30 22 N -4.744384 -9.032934 0.000000 0
M  V30 23 C -3.683723 -10.093594 0.000000 0
M  V30 24 C -3.683723 -8.593594 0.000000 0
M  V30 25 O -5.040372 -7.953668 0.000000 0
M  V30 26 N -3.109698 -7.207774 0.000000 0
M  V30 27 C -2.049038 -6.147114 0.000000 0
M  V30 28 C -0.750000 -6.897114 0.000000 0
M  V30 29 O -1.138229 -8.346003 0.000000 0
M  V30 30 N 0.750000 -6.897114 0.000000 0
M  V30 31 C 2.049038 -6.147114 0.000000 0
M  V30 32 C 2.799038 -4.848076 0.000000 0
M  V30 33 O 4.284446 -5.056796 0.000000 0
M  V30 34 N 2.799038 -3.348076 0.000000 0
M  V30 35 C 2.049038 -2.049038 0.000000 0
M  V30 36 C 2.309510 -0.571826 0.000000 0
M  V30 37 O 3.771075 -0.234439 0.000000 0
M  V30 38 O 1.160444 0.392355 0.000000 0
M  V30 39 C 0.750000 -1.299038 0.000000 0
M  V30 40 C 1.500000 0.000000 0.000000 0
M  V30 41 C 0.750000 1.299038 0.000000 0
M  V30 42 O 1.500000 2.598076 0.000000 0
M  V30 43 C -0.750000 1.299038 0.000000 0
M  V30 44 C -1.500000 0.000000 0.000000 0
M  V30 45 O -3.000000 0.000000 0.000000 0
M  V30 46 C -0.750000 -1.299038 0.000000 0
M  V30 47 C -2.049038 -2.049038 0.000000 0
M  V30 48 C -2.799038 -3.348076 0.000000 0
M  V30 49 C -2.799038 -4.848076 0.000000 0
M  V30 50 C -4.170358 -4.170358 0.000000 0
M  V30 51 C -4.558587 -2.721470 0.000000 0
M  V30 52 C -3.497927 -1.660810 0.000000 0
M  V30 53 O -3.886155 -0.211921 0.000000 0
M  V30 54 C 3.283261 -7.207774 0.000000 0
M  V30 55 O 4.783261 -7.207774 0.000000 0
M  V30 56 C 3.857286 -8.593594 0.000000 0
M  V30 57 C 3.857286 -10.093594 0.000000 0
M  V30 58 C 3.283261 -11.479413 0.000000 0
M  V30 59 C 2.222600 -12.540073 0.000000 0
M  V30 60 C 2.222600 -11.040073 0.000000 0
M  V30 61 Cl 0.751423 -10.747438 0.000000 0
M  V30 62 C 2.796626 -9.654254 0.000000 0
M  V30 63 O 0.836781 -13.114098 0.000000 0
M  V30 64 C -0.663219 -13.114098 0.000000 0
M  V30 65 C -2.049038 -12.540073 0.000000 0
M  V30 66 C -3.109698 -11.479413 0.000000 0
M  V30 67 C -3.109698 -12.979413 0.000000 0
M  V30 68 C -3.683723 -14.365232 0.000000 0
M  V30 69 C -1.576361 -14.304128 0.000000 0
M  V30 70 O -1.002336 -15.689948 0.000000 0
M  V30 71 C -1.915478 -16.879978 0.000000 0
M  V30 72 O -0.584962 -17.572601 0.000000 0
M  V30 73 C -0.519533 -19.071173 0.000000 0
M  V30 74 C 0.054493 -20.456992 0.000000 0
M  V30 75 O 0.628518 -21.842812 0.000000 0
M  V30 76 C -1.784620 -19.877122 0.000000 0
M  V30 77 O -2.697762 -21.067152 0.000000 0
M  V30 78 C -3.115136 -19.184499 0.000000 0
M  V30 79 O -4.602303 -18.988710 0.000000 0
M  V30 80 C -3.180565 -17.685927 0.000000 0
M  V30 81 O -3.754590 -16.300108 0.000000 0
M  V30 82 C -5.241758 -16.104319 0.000000 0
M  V30 83 C -5.176328 -17.602891 0.000000 0
M  V30 84 C -6.441416 -18.408840 0.000000 0
M  V30 85 C -7.354558 -19.598870 0.000000 0
M  V30 86 N -5.428030 -19.514756 0.000000 0
M  V30 87 C -7.771932 -17.716217 0.000000 0
M  V30 88 O -9.259099 -17.520428 0.000000 0
M  V30 89 C -7.837361 -16.217645 0.000000 0
M  V30 90 C -8.411386 -14.831826 0.000000 0
M  V30 91 O -6.572274 -15.411696 0.000000 0
M  V30 92 O -4.744384 -15.425893 0.000000 0
M  V30 93 C -6.130203 -15.999918 0.000000 0
M  V30 94 C -7.630203 -15.999918 0.000000 0
M  V30 95 C -9.016022 -15.425893 0.000000 0
M  V30 96 C -10.076682 -14.365232 0.000000 0
M  V30 97 C -8.576682 -14.365232 0.000000 0
M  V30 98 C -7.190863 -14.939258 0.000000 0
M  V30 99 Cl -6.211693 -13.802936 0.000000 0
M  V30 100 C -10.650708 -12.979413 0.000000 0
M  V30 101 O -11.711368 -14.040073 0.000000 0
M  V30 102 H -18.160736 -9.936923 0.000000 0
M  V30 103 H -16.477779 -8.645545 0.000000 0
M  V30 104 H -17.049178 -11.584924 0.000000 0
M  V30 105 H -14.273259 -9.138472 0.000000 0
M  V30 106 H -14.038351 -13.100141 0.000000 0
M  V30 107 H -17.030815 -11.200368 0.000000 0
M  V30 108 H -15.259525 -13.593860 0.000000 0
M  V30 109 H -17.958040 -11.476552 0.000000 0
M  V30 110 H -20.155653 -14.010422 0.000000 0
M  V30 111 H -19.343859 -12.050577 0.000000 0
M  V30 112 H -18.369015 -14.881853 0.000000 0
M  V30 113 H -16.235964 -15.634010 0.000000 0
M  V30 114 H -18.115503 -14.986861 0.000000 0
M  V30 115 H -15.364533 -13.847372 0.000000 0
M  V30 116 H -12.586354 -13.449035 0.000000 0
M  V30 117 H -11.711368 -10.418753 0.000000 0
M  V30 118 H -9.995192 -7.896613 0.000000 0
M  V30 119 H -7.056178 -7.073089 0.000000 0
M  V30 120 H -9.872904 -8.321709 0.000000 0
M  V30 121 H -7.630203 -6.337588 0.000000 0
M  V30 122 H -10.423955 -3.828039 0.000000 0
M  V30 123 H -7.914406 -4.500471 0.000000 0
M  V30 124 H -3.911028 -7.785729 0.000000 0
M  V30 125 H -4.841263 -9.139601 0.000000 0
M  V30 126 H -4.356903 -6.374419 0.000000 0
M  V30 127 H -2.821526 -7.432907 0.000000 0
M  V30 128 H 0.958720 -8.382522 0.000000 0
M  V30 129 H 3.334831 -6.919602 0.000000 0
M  V30 130 H 4.247927 -2.959848 0.000000 0
M  V30 131 H 3.526250 -1.788566 0.000000 0
M  V30 132 H 1.770623 1.762640 0.000000 0
M  V30 133 H 2.988814 0.182844 0.000000 0
M  V30 134 H 0.750000 3.897114 0.000000 0
M  V30 135 H -1.500000 2.598076 0.000000 0
M  V30 136 H -3.750000 1.299038 0.000000 0
M  V30 137 H -4.110928 -2.620791 0.000000 0
M  V30 138 H -5.231019 -5.231019 0.000000 0
M  V30 139 H -6.007476 -2.333241 0.000000 0
M  V30 140 H -5.335044 0.176308 0.000000 0
M  V30 141 H 4.021931 -5.902261 0.000000 0
M  V30 142 H 5.533261 -5.908736 0.000000 0
M  V30 143 H 5.328464 -10.386229 0.000000 0
M  V30 144 H 4.530465 -12.312768 0.000000 0
M  V30 145 H 1.457139 -8.979142 0.000000 0
M  V30 146 H -2.882393 -13.787278 0.000000 0
M  V30 147 H -1.638520 -13.272049 0.000000 0
M  V30 148 H -2.928863 -15.774062 0.000000 0
M  V30 149 H 0.944911 -18.746514 0.000000 0
M  V30 150 H 1.440312 -19.882967 0.000000 0
M  V30 151 H -1.251021 -21.195663 0.000000 0
M  V30 152 H 2.115685 -22.038601 0.000000 0
M  V30 153 H -0.913598 -21.098319 0.000000 0
M  V30 154 H -4.197705 -21.054103 0.000000 0
M  V30 155 H -3.737213 -20.549425 0.000000 0
M  V30 156 H -4.849715 -20.468165 0.000000 0
M  V30 157 H -4.522931 -18.355296 0.000000 0
M  V30 158 H -5.150265 -14.607111 0.000000 0
M  V30 159 H -4.775510 -19.048347 0.000000 0
M  V30 160 H -3.676845 -17.642237 0.000000 0
M  V30 161 H -8.267700 -20.788900 0.000000 0
M  V30 162 H -8.647022 -18.837598 0.000000 0
M  V30 163 H -6.420849 -20.772833 0.000000 0
M  V30 164 H -5.879089 -20.945332 0.000000 0
M  V30 165 H -4.014082 -19.014008 0.000000 0
M  V30 166 H -8.394009 -19.081143 0.000000 0
M  V30 167 H -10.172241 -18.710458 0.000000 0
M  V30 168 H -9.251310 -16.718393 0.000000 0
M  V30 169 H -8.812205 -13.386369 0.000000 0
M  V30 170 H -9.894922 -15.053460 0.000000 0
M  V30 171 H -7.323408 -13.799206 0.000000 0
M  V30 172 H -8.270129 -17.356566 0.000000 0
M  V30 173 H -9.995192 -16.562214 0.000000 0
M  V30 174 H -8.465560 -12.869354 0.000000 0
M  V30 175 H -12.134243 -12.757779 0.000000 0
M  V30 176 H -13.160256 -13.651845 0.000000 0
M  V30 END ATOM
M  V30 BEGIN BOND
M  V30 1 1 1 2
M  V30 2 1 2 3
M  V30 3 1 3 4
M  V30 4 1 4 5
M  V30 5 1 5 6
M  V30 6 1 5 7
M  V30 7 1 3 8
M  V30 8 2 8 9
M  V30 9 1 8 10
M  V30 10 1 10 11
M  V30 11 1 11 12
M  V30 12 2 12 13
M  V30 13 1 12 14
M  V30 14 1 14 15
M  V30 15 1 15 16
M  V30 16 1 16 17
M  V30 17 1 17 18
M  V30 18 2 17 19
M  V30 19 1 15 20
M  V30 20 2 20 21
M  V30 21 1 20 22
M  V30 22 1 22 23
M  V30 23 1 23 24
M  V30 24 2 24 25
M  V30 25 1 24 26
M  V30 26 1 26 27
M  V30 27 1 27 28
M  V30 28 2 28 29
M  V30 29 1 28 30
M  V30 30 1 30 31
M  V30 31 1 31 32
M  V30 32 2 32 33
M  V30 33 1 32 34
M  V30 34 1 34 35
M  V30 35 1 35 36
M  V30 36 2 36 37
M  V30 37 1 36 38
M  V30 38 1 35 39
M  V30 39 2 39 40
M  V30 40 1 40 41
M  V30 41 1 41 42
M  V30 42 2 41 43
M  V30 43 1 43 44
M  V30 44 1 44 45
M  V30 45 2 44 46
M  V30 46 1 46 47
M  V30 47 2 47 48
M  V30 48 1 48 49
M  V30 49 2 49 50
M  V30 50 1 50 51
M  V30 51 2 51 52
M  V30 52 1 52 53
M  V30 53 1 31 54
M  V30 54 1 54 55
M  V30 55 1 54 56
M  V30 56 2 56 57
M  V30 57 1 57 58
M  V30 58 2 58 59
M  V30 59 1 59 60
M  V30 60 1 60 61
M  V30 61 2 60 62
M  V30 62 1 59 63
M  V30 63 1 63 64
M  V30 64 2 64 65
M  V30 65 1 65 66
M  V30 66 2 66 67
M  V30 67 1 67 68
M  V30 68 2 68 69
M  V30 69 1 69 70
M  V30 70 1 70 71
M  V30 71 1 71 72
M  V30 72 1 72 73
M  V30 73 1 73 74
M  V30 74 1 74 75
M  V30 75 1 73 76
M  V30 76 1 76 77
M  V30 77 1 76 78
M  V30 78 1 78 79
M  V30 79 1 78 80
M  V30 80 1 80 81
M  V30 81 1 81 82
M  V30 82 1 82 83
M  V30 83 1 83 84
M  V30 84 1 84 85
M  V30 85 1 84 86 CFG=3
M  V30 86 1 84 87
M  V30 87 1 87 88
M  V30 88 1 87 89
M  V30 89 1 89 90
M  V30 90 1 89 91
M  V30 91 1 68 92
M  V30 92 1 92 93
M  V30 93 2 93 94
M  V30 94 1 94 95
M  V30 95 2 95 96
M  V30 96 1 96 97
M  V30 97 2 97 98
M  V30 98 1 98 99
M  V30 99 1 96 100
M  V30 100 1 100 101
M  V30 101 1 100 11
M  V30 102 1 66 23
M  V30 103 1 80 71
M  V30 104 1 91 82
M  V30 105 1 98 93
M  V30 106 1 49 27
M  V30 107 1 62 56
M  V30 108 1 69 64
M  V30 109 1 46 39
M  V30 110 1 52 47
M  V30 111 1 1 102
M  V30 112 1 1 103
M  V30 113 1 1 104
M  V30 114 1 2 105
M  V30 115 1 3 106 CFG=3
M  V30 116 1 4 107
M  V30 117 1 4 108
M  V30 118 1 5 109
M  V30 119 1 6 110
M  V30 120 1 6 111
M  V30 121 1 6 112
M  V30 122 1 7 113
M  V30 123 1 7 114
M  V30 124 1 7 115
M  V30 125 1 10 116
M  V30 126 1 11 117 CFG=3
M  V30 127 1 14 118
M  V30 128 1 15 119 CFG=3
M  V30 129 1 16 120
M  V30 130 1 16 121
M  V30 131 1 18 122
M  V30 132 1 18 123
M  V30 133 1 22 124
M  V30 134 1 23 125 CFG=3
M  V30 135 1 26 126
M  V30 136 1 27 127 CFG=1
M  V30 137 1 30 128
M  V30 138 1 31 129 CFG=1
M  V30 139 1 34 130
M  V30 140 1 35 131 CFG=3
M  V30 141 1 38 132
M  V30 142 1 40 133
M  V30 143 1 42 134
M  V30 144 1 43 135
M  V30 145 1 45 136
M  V30 146 1 48 137
M  V30 147 1 50 138
M  V30 148 1 51 139
M  V30 149 1 53 140
M  V30 150 1 54 141 CFG=1
M  V30 151 1 55 142
M  V30 152 1 57 143
M  V30 153 1 58 144
M  V30 154 1 62 145
M  V30 155 1 65 146
M  V30 156 1 67 147
M  V30 157 1 71 148 CFG=1
M  V30 158 1 73 149 CFG=1
M  V30 159 1 74 150
M  V30 160 1 74 151
M  V30 161 1 75 152
M  V30 162 1 76 153 CFG=3
M  V30 163 1 77 154
M  V30 164 1 78 155 CFG=1
M  V30 165 1 79 156
M  V30 166 1 80 157 CFG=3
M  V30 167 1 82 158 CFG=3
M  V30 168 1 83 159
M  V30 169 1 83 160
M  V30 170 1 85 161
M  V30 171 1 85 162
M  V30 172 1 85 163
M  V30 173 1 86 164
M  V30 174 1 86 165
M  V30 175 1 87 166 CFG=1
M  V30 176 1 88 167
M  V30 177 1 89 168 CFG=1
M  V30 178 1 90 169
M  V30 179 1 90 170
M  V30 180 1 90 171
M  V30 181 1 94 172
M  V30 182 1 95 173
M  V30 183 1 97 174
M  V30 184 1 100 175 CFG=3
M  V30 185 1 101 176
M  V30 END BOND
M  V30 END CTAB
M  END
>  <Dataset>  (29) 
OralDrugs

>  <Ligand_Instance>  (29) 
nan

>  <PDB_ID>  (29) 
nan

>  <Standardized_SMILES>  (29) 
CN[C@H](CC(C)C)C(=O)N[C@H]1C(=O)N[C@@H](CC(N)=O)C(=O)N[C@H]2C(=O)N[C@H]3C(=O)N[C@H](C(=O)N[C@H](C(=O)O)c4cc(O)cc(O)c4-c4cc3ccc4O)[C@H](O)c3ccc(c(Cl)c3)Oc3cc2cc(c3O[C@@H]2O[C@H](CO)[C@@H](O)[C@H](O)[C@H]2O[C@H]2C[C@](C)(N)[C@H](O)[C@H](C)O2)Oc2ccc(cc2Cl)[C@H]1O

>  <Name>  (29) 
Vancomycin

>  <Pocket>  (29) 
nan

>  <ATP_Site>  (29) 
nan

>  <Peripheral>  (29) 
nan

>  <Num_H_Atoms_ProtBoundConf>  (29) 
nan

>  <Num_Resolved_Atoms>  (29) 
nan

>  <Num_Not_Resolved_Atoms>  (29) 
nan

>  <2D_Mol_H>  (29) 
<rdkit.Chem.rdchem.Mol object at 0x72a238b93d80>

>  <MW>  (29) 
1449.271

>  <HBA>  (29) 
26

>  <HBD>  (29) 
19

>  <LogP>  (29) 
0.1062

>  <NRB>  (29) 
28

>  <TPSA>  (29) 
530.49

>  <Num_Heavy_Atoms>  (29) 
101

>  <Ro5>  (29) 
[False, False, False, True, False, False]

>  <Ro5_Fulfilled>  (29) 
False

>  <Ro3>  (29) 
[False, False, False, True]

>  <Ro3_Fulfilled>  (29) 
False

>  <Fsp3>  (29) 
0.424242

>  <Fsp3_0.42>  (29) 
True

>  <Fsp3_0.45>  (29) 
False

>  <Stereogenic_Carbons>  (29) 
18

>  <C_Atoms>  (29) 
66

>  <FCStereo>  (29) 
0.272727

>  <SPS>  (29) 
2973

>  <nSPS>  (29) 
29.435644

>  <PBF>  (29) 
0.0

>  <PBF_0.6>  (29) 
False

>  <nPBF>  (29) 
0.0

>  <nPBF_0.016>  (29) 
False

>  <PMI1>  (29) 
34440.161207

>  <PMI2>  (29) 
64202.146547

>  <PMI3>  (29) 
98642.307753

>  <NPR1>  (29) 
0.349142

>  <NPR2>  (29) 
0.650858

>  <Sum_NPR>  (29) 
1.0

>  <Sum_NPR_1.07>  (29) 
False

>  <Sum_NPR_1.2>  (29) 
False

>  <MaxAbsEStateIndex>  (29) 
16.017214

>  <MaxEStateIndex>  (29) 
16.017214

>  <MinAbsEStateIndex>  (29) 
0.097531

>  <MinEStateIndex>  (29) 
-2.345198

>  <qed>  (29) 
0.074348

>  <MolWt>  (29) 
1449.271

>  <HeavyAtomMolWt>  (29) 
1373.671

>  <ExactMolWt>  (29) 
1447.4302

>  <NumValenceElectrons>  (29) 
542

>  <NumRadicalElectrons>  (29) 
0

>  <MaxPartialCharge>  (29) 
0.330441

>  <MinPartialCharge>  (29) 
-0.50781

>  <MaxAbsPartialCharge>  (29) 
0.50781

>  <MinAbsPartialCharge>  (29) 
0.330441

>  <FpDensityMorgan1>  (29) 
0.712871

>  <FpDensityMorgan2>  (29) 
1.316832

>  <FpDensityMorgan3>  (29) 
1.90099

>  <BCUT2D_MWHI>  (29) 
35.496793

>  <BCUT2D_MWLOW>  (29) 
9.860542

>  <BCUT2D_CHGHI>  (29) 
2.514679

>  <BCUT2D_CHGLO>  (29) 
-2.465308

>  <BCUT2D_LOGPHI>  (29) 
2.497319

>  <BCUT2D_LOGPLOW>  (29) 
-2.642288

>  <BCUT2D_MRHI>  (29) 
6.321583

>  <BCUT2D_MRLOW>  (29) 
-0.333164

>  <AvgIpc>  (29) 
0.775398

>  <BalabanJ>  (29) 
1.239428

>  <BertzCT>  (29) 
4074.499152

>  <Chi0>  (29) 
73.539265

>  <Chi0n>  (29) 
54.324527

>  <Chi0v>  (29) 
55.836385

>  <Chi1>  (29) 
47.656161

>  <Chi1n>  (29) 
31.621232

>  <Chi1v>  (29) 
32.377161

>  <Chi2n>  (29) 
25.714281

>  <Chi2v>  (29) 
26.528682

>  <Chi3n>  (29) 
17.772354

>  <Chi3v>  (29) 
18.363093

>  <Chi4n>  (29) 
12.49337

>  <Chi4v>  (29) 
12.948486

>  <HallKierAlpha>  (29) 
-9.2

>  <Ipc>  (29) 
12011332476804882984075264.0

>  <Kappa1>  (29) 
74.489201

>  <Kappa2>  (29) 
30.16502

>  <Kappa3>  (29) 
15.811335

>  <LabuteASA>  (29) 
583.819675

>  <PEOE_VSA1>  (29) 
128.171307

>  <PEOE_VSA10>  (29) 
89.476595

>  <PEOE_VSA11>  (29) 
29.934858

>  <PEOE_VSA12>  (29) 
53.389797

>  <PEOE_VSA13>  (29) 
0.0

>  <PEOE_VSA14>  (29) 
5.969305

>  <PEOE_VSA2>  (29) 
33.56176

>  <PEOE_VSA3>  (29) 
4.794537

>  <PEOE_VSA4>  (29) 
0.0

>  <PEOE_VSA5>  (29) 
0.0

>  <PEOE_VSA6>  (29) 
55.248455

>  <PEOE_VSA7>  (29) 
110.084984

>  <PEOE_VSA8>  (29) 
34.716468

>  <PEOE_VSA9>  (29) 
41.322744

>  <SMR_VSA1>  (29) 
117.842749

>  <SMR_VSA10>  (29) 
70.521443

>  <SMR_VSA2>  (29) 
0.0

>  <SMR_VSA3>  (29) 
37.21752

>  <SMR_VSA4>  (29) 
17.385241

>  <SMR_VSA5>  (29) 
156.201009

>  <SMR_VSA6>  (29) 
13.654554

>  <SMR_VSA7>  (29) 
116.725296

>  <SMR_VSA8>  (29) 
0.0

>  <SMR_VSA9>  (29) 
57.122998

>  <SlogP_VSA1>  (29) 
62.895444

>  <SlogP_VSA10>  (29) 
0.0

>  <SlogP_VSA11>  (29) 
45.996095

>  <SlogP_VSA12>  (29) 
23.20188

>  <SlogP_VSA2>  (29) 
190.949532

>  <SlogP_VSA3>  (29) 
52.566886

>  <SlogP_VSA4>  (29) 
5.917906

>  <SlogP_VSA5>  (29) 
105.108126

>  <SlogP_VSA6>  (29) 
78.862772

>  <SlogP_VSA7>  (29) 
10.045267

>  <SlogP_VSA8>  (29) 
11.126903

>  <SlogP_VSA9>  (29) 
0.0

>  <EState_VSA1>  (29) 
237.113885

>  <EState_VSA10>  (29) 
75.03796

>  <EState_VSA11>  (29) 
14.383612

>  <EState_VSA2>  (29) 
46.222049

>  <EState_VSA3>  (29) 
0.0

>  <EState_VSA4>  (29) 
66.730038

>  <EState_VSA5>  (29) 
33.027881

>  <EState_VSA6>  (29) 
0.0

>  <EState_VSA7>  (29) 
13.847474

>  <EState_VSA8>  (29) 
37.21752

>  <EState_VSA9>  (29) 
63.090392

>  <VSA_EState1>  (29) 
38.29772

>  <VSA_EState10>  (29) 
14.104061

>  <VSA_EState2>  (29) 
116.810396

>  <VSA_EState3>  (29) 
130.506871

>  <VSA_EState4>  (29) 
8.003711

>  <VSA_EState5>  (29) 
-15.986785

>  <VSA_EState6>  (29) 
-0.678665

>  <VSA_EState7>  (29) 
-18.550148

>  <VSA_EState8>  (29) 
5.659419

>  <VSA_EState9>  (29) 
1.472309

>  <FractionCSP3>  (29) 
0.424242

>  <HeavyAtomCount>  (29) 
101

>  <NHOHCount>  (29) 
21

>  <NOCount>  (29) 
33

>  <NumAliphaticCarbocycles>  (29) 
0

>  <NumAliphaticHeterocycles>  (29) 
7

>  <NumAliphaticRings>  (29) 
7

>  <NumAromaticCarbocycles>  (29) 
5

>  <NumAromaticHeterocycles>  (29) 
0

>  <NumAromaticRings>  (29) 
5

>  <NumHAcceptors>  (29) 
25

>  <NumHDonors>  (29) 
19

>  <NumHeteroatoms>  (29) 
35

>  <NumRotatableBonds>  (29) 
13

>  <NumSaturatedCarbocycles>  (29) 
0

>  <NumSaturatedHeterocycles>  (29) 
2

>  <NumSaturatedRings>  (29) 
2

>  <RingCount>  (29) 
12

>  <MolLogP>  (29) 
0.1062

>  <MolMR>  (29) 
349.2917

>  <fr_Al_COO>  (29) 
1

>  <fr_Al_OH>  (29) 
6

>  <fr_Al_OH_noTert>  (29) 
6

>  <fr_ArN>  (29) 
0

>  <fr_Ar_COO>  (29) 
0

>  <fr_Ar_N>  (29) 
0

>  <fr_Ar_NH>  (29) 
0

>  <fr_Ar_OH>  (29) 
3

>  <fr_COO>  (29) 
1

>  <fr_COO2>  (29) 
1

>  <fr_C_O>  (29) 
8

>  <fr_C_O_noCOO>  (29) 
7

>  <fr_C_S>  (29) 
0

>  <fr_HOCCN>  (29) 
0

>  <fr_Imine>  (29) 
0

>  <fr_NH0>  (29) 
0

>  <fr_NH1>  (29) 
7

>  <fr_NH2>  (29) 
2

>  <fr_N_O>  (29) 
0

>  <fr_Ndealkylation1>  (29) 
1

>  <fr_Ndealkylation2>  (29) 
0

>  <fr_Nhpyrrole>  (29) 
0

>  <fr_SH>  (29) 
0

>  <fr_aldehyde>  (29) 
0

>  <fr_alkyl_carbamate>  (29) 
0

>  <fr_alkyl_halide>  (29) 
0

>  <fr_allylic_oxid>  (29) 
0

>  <fr_amide>  (29) 
7

>  <fr_amidine>  (29) 
0

>  <fr_aniline>  (29) 
0

>  <fr_aryl_methyl>  (29) 
0

>  <fr_azide>  (29) 
0

>  <fr_azo>  (29) 
0

>  <fr_barbitur>  (29) 
0

>  <fr_benzene>  (29) 
5

>  <fr_benzodiazepine>  (29) 
0

>  <fr_bicyclic>  (29) 
15

>  <fr_diazo>  (29) 
0

>  <fr_dihydropyridine>  (29) 
0

>  <fr_epoxide>  (29) 
0

>  <fr_ester>  (29) 
0

>  <fr_ether>  (29) 
6

>  <fr_furan>  (29) 
0

>  <fr_guanido>  (29) 
0

>  <fr_halogen>  (29) 
2

>  <fr_hdrzine>  (29) 
0

>  <fr_hdrzone>  (29) 
0

>  <fr_imidazole>  (29) 
0

>  <fr_imide>  (29) 
0

>  <fr_isocyan>  (29) 
0

>  <fr_isothiocyan>  (29) 
0

>  <fr_ketone>  (29) 
0

>  <fr_ketone_Topliss>  (29) 
0

>  <fr_lactam>  (29) 
0

>  <fr_lactone>  (29) 
0

>  <fr_methoxy>  (29) 
0

>  <fr_morpholine>  (29) 
0

>  <fr_nitrile>  (29) 
0

>  <fr_nitro>  (29) 
0

>  <fr_nitro_arom>  (29) 
0

>  <fr_nitro_arom_nonortho>  (29) 
0

>  <fr_nitroso>  (29) 
0

>  <fr_oxazole>  (29) 
0

>  <fr_oxime>  (29) 
0

>  <fr_para_hydroxylation>  (29) 
0

>  <fr_phenol>  (29) 
3

>  <fr_phenol_noOrthoHbond>  (29) 
3

>  <fr_phos_acid>  (29) 
0

>  <fr_phos_ester>  (29) 
0

>  <fr_piperdine>  (29) 
0

>  <fr_piperzine>  (29) 
0

>  <fr_priamide>  (29) 
1

>  <fr_prisulfonamd>  (29) 
0

>  <fr_pyridine>  (29) 
0

>  <fr_quatN>  (29) 
0

>  <fr_sulfide>  (29) 
0

>  <fr_sulfonamd>  (29) 
0

>  <fr_sulfone>  (29) 
0

>  <fr_term_acetylene>  (29) 
0

>  <fr_tetrazole>  (29) 
0

>  <fr_thiazole>  (29) 
0

>  <fr_thiocyan>  (29) 
0

>  <fr_thiophene>  (29) 
0

>  <fr_unbrch_alkane>  (29) 
0

>  <fr_urea>  (29) 
0

>  <NP_Likeness>  (29) 
1.058358

$$$$
CHEMBL24828
     RDKit          3D

  0  0  0  0  0  0  0  0  0  0999 V3000
M  V30 BEGIN CTAB
M  V30 COUNTS 54 57 0 0 0
M  V30 BEGIN ATOM
M  V30 1 C 3.108748 -0.719366 -2.192086 0
M  V30 2 O 2.288725 -1.596966 -1.448151 0
M  V30 3 C 1.628524 -1.079386 -0.340992 0
M  V30 4 C 1.846084 0.273177 -0.073005 0
M  V30 5 C 1.226715 0.888174 1.019423 0
M  V30 6 C 1.423360 2.223361 1.308009 0
M  V30 7 N 2.185968 2.924529 0.567892 0
M  V30 8 C 2.442964 4.318690 0.799395 0
M  V30 9 C 1.993455 5.265375 -0.108336 0
M  V30 10 C 2.247773 6.620633 0.123803 0
M  V30 11 C 2.944269 6.983249 1.257972 0
M  V30 12 Br 3.269439 8.842469 1.536123 0
M  V30 13 C 3.391259 6.040409 2.160856 0
M  V30 14 C 3.137607 4.706315 1.926726 0
M  V30 15 F 3.565769 3.755692 2.798773 0
M  V30 16 N 0.810074 2.780096 2.368236 0
M  V30 17 C 0.010857 2.002300 3.125588 0
M  V30 18 N -0.241369 0.682684 2.918524 0
M  V30 19 C 0.391613 0.178827 1.853662 0
M  V30 20 C 0.220905 -1.143954 1.535154 0
M  V30 21 C 0.784374 -1.828747 0.488272 0
M  V30 22 O 0.704647 -3.111605 0.058859 0
M  V30 23 C -0.018338 -4.173523 0.556539 0
M  V30 24 C -1.509518 -4.022213 0.539176 0
M  V30 25 C -2.060179 -5.327958 1.136125 0
M  V30 26 C -3.566046 -5.322504 0.977905 0
M  V30 27 N -3.817842 -5.392210 -0.442946 0
M  V30 28 C -5.123242 -5.852565 -0.798019 0
M  V30 29 C -3.455619 -4.147853 -1.051756 0
M  V30 30 C -1.999761 -3.852012 -0.883607 0
M  V30 31 H 3.895971 -0.223647 -1.567466 0
M  V30 32 H 3.590216 -1.214652 -3.046628 0
M  V30 33 H 2.443013 0.121525 -2.534352 0
M  V30 34 H 2.478648 0.928652 -0.655505 0
M  V30 35 H 1.452550 4.915675 -0.978974 0
M  V30 36 H 1.888318 7.361698 -0.599743 0
M  V30 37 H 3.941986 6.368761 3.051363 0
M  V30 38 H -0.443473 2.538741 3.962666 0
M  V30 39 H -0.871641 0.150758 3.549642 0
M  V30 40 H -0.413049 -1.739070 2.167381 0
M  V30 41 H 0.242311 -5.149777 0.082572 0
M  V30 42 H 0.329327 -4.318003 1.628176 0
M  V30 43 H -1.886646 -3.202041 1.161741 0
M  V30 44 H -1.608722 -6.197204 0.598875 0
M  V30 45 H -1.734474 -5.321733 2.185172 0
M  V30 46 H -3.963885 -6.222910 1.506410 0
M  V30 47 H -3.941489 -4.391209 1.450533 0
M  V30 48 H -5.906310 -5.538222 -0.096156 0
M  V30 49 H -5.357865 -5.518138 -1.827285 0
M  V30 50 H -5.105652 -6.978126 -0.772707 0
M  V30 51 H -3.646601 -4.273728 -2.150395 0
M  V30 52 H -4.097763 -3.298234 -0.722235 0
M  V30 53 H -1.849689 -2.781953 -1.143957 0
M  V30 54 H -1.375337 -4.455732 -1.558545 0
M  V30 END ATOM
M  V30 BEGIN BOND
M  V30 1 1 1 2
M  V30 2 1 2 3
M  V30 3 2 3 4
M  V30 4 1 4 5
M  V30 5 1 5 6
M  V30 6 2 6 7
M  V30 7 1 7 8
M  V30 8 2 8 9
M  V30 9 1 9 10
M  V30 10 2 10 11
M  V30 11 1 11 12
M  V30 12 1 11 13
M  V30 13 2 13 14
M  V30 14 1 14 15
M  V30 15 1 6 16
M  V30 16 2 16 17
M  V30 17 1 17 18
M  V30 18 1 18 19
M  V30 19 1 19 20
M  V30 20 2 20 21
M  V30 21 1 21 22
M  V30 22 1 22 23
M  V30 23 1 23 24
M  V30 24 1 24 25
M  V30 25 1 25 26
M  V30 26 1 26 27
M  V30 27 1 27 28
M  V30 28 1 27 29
M  V30 29 1 29 30
M  V30 30 1 21 3
M  V30 31 1 30 24
M  V30 32 2 19 5
M  V30 33 1 14 8
M  V30 34 1 1 31
M  V30 35 1 1 32
M  V30 36 1 1 33
M  V30 37 1 4 34
M  V30 38 1 9 35
M  V30 39 1 10 36
M  V30 40 1 13 37
M  V30 41 1 17 38
M  V30 42 1 18 39
M  V30 43 1 20 40
M  V30 44 1 23 41
M  V30 45 1 23 42
M  V30 46 1 24 43
M  V30 47 1 25 44
M  V30 48 1 25 45
M  V30 49 1 26 46
M  V30 50 1 26 47
M  V30 51 1 28 48
M  V30 52 1 28 49
M  V30 53 1 28 50
M  V30 54 1 29 51
M  V30 55 1 29 52
M  V30 56 1 30 53
M  V30 57 1 30 54
M  V30 END BOND
M  V30 END CTAB
M  END
>  <Dataset>  (30) 
OralDrugs

>  <Ligand_Instance>  (30) 
nan

>  <PDB_ID>  (30) 
nan

>  <Standardized_SMILES>  (30) 
COc1cc2/c(=N/c3ccc(Br)cc3F)nc[nH]c2cc1OCC1CCN(C)CC1

>  <Name>  (30) 
Vandetanib

>  <Pocket>  (30) 
nan

>  <ATP_Site>  (30) 
nan

>  <Peripheral>  (30) 
nan

>  <Num_H_Atoms_ProtBoundConf>  (30) 
nan

>  <Num_Resolved_Atoms>  (30) 
nan

>  <Num_Not_Resolved_Atoms>  (30) 
nan

>  <2D_Mol_H>  (30) 
<rdkit.Chem.rdchem.Mol object at 0x72a238b93e60>

>  <MW>  (30) 
475.362

>  <HBA>  (30) 
5

>  <HBD>  (30) 
1

>  <LogP>  (30) 
4.4261

>  <NRB>  (30) 
7

>  <TPSA>  (30) 
62.74

>  <Num_Heavy_Atoms>  (30) 
30

>  <Ro5>  (30) 
[True, True, True, True, True, True]

>  <Ro5_Fulfilled>  (30) 
True

>  <Ro3>  (30) 
[False, False, True, False]

>  <Ro3_Fulfilled>  (30) 
False

>  <Fsp3>  (30) 
0.363636

>  <Fsp3_0.42>  (30) 
False

>  <Fsp3_0.45>  (30) 
False

>  <Stereogenic_Carbons>  (30) 
0

>  <C_Atoms>  (30) 
22

>  <FCStereo>  (30) 
0.0

>  <SPS>  (30) 
486

>  <nSPS>  (30) 
16.2

>  <PBF>  (30) 
1.101902

>  <PBF_0.6>  (30) 
True

>  <nPBF>  (30) 
0.03673

>  <nPBF_0.016>  (30) 
True

>  <PMI1>  (30) 
1400.466983

>  <PMI2>  (30) 
14003.902152

>  <PMI3>  (30) 
14363.04198

>  <NPR1>  (30) 
0.097505

>  <NPR2>  (30) 
0.974996

>  <Sum_NPR>  (30) 
1.0725

>  <Sum_NPR_1.07>  (30) 
True

>  <Sum_NPR_1.2>  (30) 
False

>  <MaxAbsEStateIndex>  (30) 
14.240095

>  <MaxEStateIndex>  (30) 
14.240095

>  <MinAbsEStateIndex>  (30) 
0.222

>  <MinEStateIndex>  (30) 
-0.419257

>  <qed>  (30) 
0.593561

>  <MolWt>  (30) 
475.362

>  <HeavyAtomMolWt>  (30) 
451.17

>  <ExactMolWt>  (30) 
474.106666

>  <NumValenceElectrons>  (30) 
158

>  <NumRadicalElectrons>  (30) 
0

>  <MaxPartialCharge>  (30) 
0.163274

>  <MinPartialCharge>  (30) 
-0.492842

>  <MaxAbsPartialCharge>  (30) 
0.492842

>  <MinAbsPartialCharge>  (30) 
0.163274

>  <FpDensityMorgan1>  (30) 
1.233333

>  <FpDensityMorgan2>  (30) 
2.033333

>  <FpDensityMorgan3>  (30) 
2.766667

>  <BCUT2D_MWHI>  (30) 
79.918731

>  <BCUT2D_MWLOW>  (30) 
9.981869

>  <BCUT2D_CHGHI>  (30) 
2.182244

>  <BCUT2D_CHGLO>  (30) 
-2.284514

>  <BCUT2D_LOGPHI>  (30) 
2.314362

>  <BCUT2D_LOGPLOW>  (30) 
-2.320735

>  <BCUT2D_MRHI>  (30) 
9.103001

>  <BCUT2D_MRLOW>  (30) 
0.157282

>  <AvgIpc>  (30) 
2.745192

>  <BalabanJ>  (30) 
1.659139

>  <BertzCT>  (30) 
1109.978111

>  <Chi0>  (30) 
21.087211

>  <Chi0n>  (30) 
16.991052

>  <Chi0v>  (30) 
18.577049

>  <Chi1>  (30) 
14.529208

>  <Chi1n>  (30) 
9.897979

>  <Chi1v>  (30) 
10.690977

>  <Chi2n>  (30) 
7.539987

>  <Chi2v>  (30) 
8.455663

>  <Chi3n>  (30) 
5.400344

>  <Chi3v>  (30) 
5.893595

>  <Chi4n>  (30) 
3.580671

>  <Chi4v>  (30) 
3.91382

>  <HallKierAlpha>  (30) 
-2.45

>  <Ipc>  (30) 
7246165.158178

>  <Kappa1>  (30) 
20.807899

>  <Kappa2>  (30) 
9.138397

>  <Kappa3>  (30) 
4.649468

>  <LabuteASA>  (30) 
182.438493

>  <PEOE_VSA1>  (30) 
19.357614

>  <PEOE_VSA10>  (30) 
11.504607

>  <PEOE_VSA11>  (30) 
16.986731

>  <PEOE_VSA12>  (30) 
0.0

>  <PEOE_VSA13>  (30) 
0.0

>  <PEOE_VSA14>  (30) 
0.0

>  <PEOE_VSA2>  (30) 
0.0

>  <PEOE_VSA3>  (30) 
14.366798

>  <PEOE_VSA4>  (30) 
0.0

>  <PEOE_VSA5>  (30) 
0.0

>  <PEOE_VSA6>  (30) 
15.929944

>  <PEOE_VSA7>  (30) 
63.162202

>  <PEOE_VSA8>  (30) 
15.925311

>  <PEOE_VSA9>  (30) 
25.5607

>  <SMR_VSA1>  (30) 
13.864141

>  <SMR_VSA10>  (30) 
32.520255

>  <SMR_VSA2>  (30) 
0.0

>  <SMR_VSA3>  (30) 
14.867867

>  <SMR_VSA4>  (30) 
10.910311

>  <SMR_VSA5>  (30) 
12.841643

>  <SMR_VSA6>  (30) 
33.853864

>  <SMR_VSA7>  (30) 
52.436803

>  <SMR_VSA8>  (30) 
0.0

>  <SMR_VSA9>  (30) 
11.499024

>  <SlogP_VSA1>  (30) 
14.961433

>  <SlogP_VSA10>  (30) 
10.077801

>  <SlogP_VSA11>  (30) 
11.499024

>  <SlogP_VSA12>  (30) 
15.929944

>  <SlogP_VSA2>  (30) 
48.721731

>  <SlogP_VSA3>  (30) 
0.0

>  <SlogP_VSA4>  (30) 
11.735127

>  <SlogP_VSA5>  (30) 
12.841643

>  <SlogP_VSA6>  (30) 
46.12428

>  <SlogP_VSA7>  (30) 
0.0

>  <SlogP_VSA8>  (30) 
10.902925

>  <SlogP_VSA9>  (30) 
0.0

>  <EState_VSA1>  (30) 
5.817221

>  <EState_VSA10>  (30) 
4.390415

>  <EState_VSA11>  (30) 
0.0

>  <EState_VSA2>  (30) 
5.687386

>  <EState_VSA3>  (30) 
33.984238

>  <EState_VSA4>  (30) 
36.834081

>  <EState_VSA5>  (30) 
6.066367

>  <EState_VSA6>  (30) 
25.569852

>  <EState_VSA7>  (30) 
12.132734

>  <EState_VSA8>  (30) 
42.837887

>  <EState_VSA9>  (30) 
9.473726

>  <VSA_EState1>  (30) 
26.578412

>  <VSA_EState10>  (30) 
3.259494

>  <VSA_EState2>  (30) 
14.172444

>  <VSA_EState3>  (30) 
0.725287

>  <VSA_EState4>  (30) 
1.421618

>  <VSA_EState5>  (30) 
1.391548

>  <VSA_EState6>  (30) 
8.458813

>  <VSA_EState7>  (30) 
3.805161

>  <VSA_EState8>  (30) 
2.848956

>  <VSA_EState9>  (30) 
3.754935

>  <FractionCSP3>  (30) 
0.363636

>  <HeavyAtomCount>  (30) 
30

>  <NHOHCount>  (30) 
1

>  <NOCount>  (30) 
6

>  <NumAliphaticCarbocycles>  (30) 
0

>  <NumAliphaticHeterocycles>  (30) 
1

>  <NumAliphaticRings>  (30) 
1

>  <NumAromaticCarbocycles>  (30) 
2

>  <NumAromaticHeterocycles>  (30) 
1

>  <NumAromaticRings>  (30) 
3

>  <NumHAcceptors>  (30) 
5

>  <NumHDonors>  (30) 
1

>  <NumHeteroatoms>  (30) 
8

>  <NumRotatableBonds>  (30) 
5

>  <NumSaturatedCarbocycles>  (30) 
0

>  <NumSaturatedHeterocycles>  (30) 
1

>  <NumSaturatedRings>  (30) 
1

>  <RingCount>  (30) 
4

>  <MolLogP>  (30) 
4.4261

>  <MolMR>  (30) 
117.6847

>  <fr_Al_COO>  (30) 
0

>  <fr_Al_OH>  (30) 
0

>  <fr_Al_OH_noTert>  (30) 
0

>  <fr_ArN>  (30) 
0

>  <fr_Ar_COO>  (30) 
0

>  <fr_Ar_N>  (30) 
2

>  <fr_Ar_NH>  (30) 
1

>  <fr_Ar_OH>  (30) 
0

>  <fr_COO>  (30) 
0

>  <fr_COO2>  (30) 
0

>  <fr_C_O>  (30) 
0

>  <fr_C_O_noCOO>  (30) 
0

>  <fr_C_S>  (30) 
0

>  <fr_HOCCN>  (30) 
0

>  <fr_Imine>  (30) 
0

>  <fr_NH0>  (30) 
3

>  <fr_NH1>  (30) 
1

>  <fr_NH2>  (30) 
0

>  <fr_N_O>  (30) 
0

>  <fr_Ndealkylation1>  (30) 
0

>  <fr_Ndealkylation2>  (30) 
1

>  <fr_Nhpyrrole>  (30) 
1

>  <fr_SH>  (30) 
0

>  <fr_aldehyde>  (30) 
0

>  <fr_alkyl_carbamate>  (30) 
0

>  <fr_alkyl_halide>  (30) 
0

>  <fr_allylic_oxid>  (30) 
0

>  <fr_amide>  (30) 
0

>  <fr_amidine>  (30) 
0

>  <fr_aniline>  (30) 
0

>  <fr_aryl_methyl>  (30) 
0

>  <fr_azide>  (30) 
0

>  <fr_azo>  (30) 
0

>  <fr_barbitur>  (30) 
0

>  <fr_benzene>  (30) 
2

>  <fr_benzodiazepine>  (30) 
0

>  <fr_bicyclic>  (30) 
1

>  <fr_diazo>  (30) 
0

>  <fr_dihydropyridine>  (30) 
0

>  <fr_epoxide>  (30) 
0

>  <fr_ester>  (30) 
0

>  <fr_ether>  (30) 
2

>  <fr_furan>  (30) 
0

>  <fr_guanido>  (30) 
0

>  <fr_halogen>  (30) 
2

>  <fr_hdrzine>  (30) 
0

>  <fr_hdrzone>  (30) 
0

>  <fr_imidazole>  (30) 
0

>  <fr_imide>  (30) 
0

>  <fr_isocyan>  (30) 
0

>  <fr_isothiocyan>  (30) 
0

>  <fr_ketone>  (30) 
0

>  <fr_ketone_Topliss>  (30) 
0

>  <fr_lactam>  (30) 
0

>  <fr_lactone>  (30) 
0

>  <fr_methoxy>  (30) 
1

>  <fr_morpholine>  (30) 
0

>  <fr_nitrile>  (30) 
0

>  <fr_nitro>  (30) 
0

>  <fr_nitro_arom>  (30) 
0

>  <fr_nitro_arom_nonortho>  (30) 
0

>  <fr_nitroso>  (30) 
0

>  <fr_oxazole>  (30) 
0

>  <fr_oxime>  (30) 
0

>  <fr_para_hydroxylation>  (30) 
0

>  <fr_phenol>  (30) 
0

>  <fr_phenol_noOrthoHbond>  (30) 
0

>  <fr_phos_acid>  (30) 
0

>  <fr_phos_ester>  (30) 
0

>  <fr_piperdine>  (30) 
1

>  <fr_piperzine>  (30) 
0

>  <fr_priamide>  (30) 
0

>  <fr_prisulfonamd>  (30) 
0

>  <fr_pyridine>  (30) 
0

>  <fr_quatN>  (30) 
0

>  <fr_sulfide>  (30) 
0

>  <fr_sulfonamd>  (30) 
0

>  <fr_sulfone>  (30) 
0

>  <fr_term_acetylene>  (30) 
0

>  <fr_tetrazole>  (30) 
0

>  <fr_thiazole>  (30) 
0

>  <fr_thiocyan>  (30) 
0

>  <fr_thiophene>  (30) 
0

>  <fr_unbrch_alkane>  (30) 
0

>  <fr_urea>  (30) 
0

>  <NP_Likeness>  (30) 
-0.872509

$$$$
CHEMBL1520
     RDKit          3D

  0  0  0  0  0  0  0  0  0  0999 V3000
M  V30 BEGIN CTAB
M  V30 COUNTS 66 69 0 0 0
M  V30 BEGIN ATOM
M  V30 1 C 5.618513 -0.720856 3.578307 0
M  V30 2 C 4.484022 -1.429086 2.896797 0
M  V30 3 C 4.390125 -1.059797 1.427274 0
M  V30 4 C 4.169651 0.405628 1.248237 0
M  V30 5 N 5.134146 1.335304 1.124995 0
M  V30 6 C 4.587265 2.557895 0.978733 0
M  V30 7 C 5.246987 3.890812 0.808118 0
M  V30 8 C 3.228023 2.335918 1.018027 0
M  V30 9 C 2.132347 3.136023 0.928664 0
M  V30 10 O 2.287942 4.382043 0.773355 0
M  V30 11 N 0.882716 2.642708 1.000445 0
M  V30 12 C 0.640682 1.330377 1.164668 0
M  V30 13 C -0.731849 0.846840 1.236121 0
M  V30 14 C -1.030836 -0.488491 1.403841 0
M  V30 15 C -2.319088 -0.983987 1.475770 0
M  V30 16 S -2.633417 -2.692593 1.690428 0
M  V30 17 O -1.502399 -3.298520 2.476405 0
M  V30 18 O -3.884577 -2.910899 2.509172 0
M  V30 19 N -2.744863 -3.444490 0.163992 0
M  V30 20 C -3.804084 -2.940569 -0.632771 0
M  V30 21 C -3.749837 -3.168126 -2.090662 0
M  V30 22 N -2.780307 -4.161391 -2.503653 0
M  V30 23 C -3.148786 -5.511974 -2.156651 0
M  V30 24 C -2.039654 -6.447947 -2.651985 0
M  V30 25 C -1.513956 -3.765793 -1.950407 0
M  V30 26 C -1.502331 -3.702787 -0.458715 0
M  V30 27 C -3.386922 -0.088951 1.373752 0
M  V30 28 C -3.064994 1.247664 1.205682 0
M  V30 29 C -1.770516 1.719990 1.136609 0
M  V30 30 O -1.498703 3.048988 0.969989 0
M  V30 31 C -2.416486 4.094695 0.848028 0
M  V30 32 C -3.350296 3.974757 -0.319464 0
M  V30 33 N 1.731489 0.562818 1.250065 0
M  V30 34 N 2.969504 1.025782 1.182124 0
M  V30 35 H 5.209193 -0.272825 4.529760 0
M  V30 36 H 6.044020 0.125061 2.982090 0
M  V30 37 H 6.415656 -1.438293 3.880233 0
M  V30 38 H 4.661421 -2.534926 2.909994 0
M  V30 39 H 3.506540 -1.265038 3.372411 0
M  V30 40 H 3.584359 -1.663453 0.962379 0
M  V30 41 H 5.327597 -1.373152 0.896602 0
M  V30 42 H 6.302181 3.737113 1.135118 0
M  V30 43 H 4.716511 4.698248 1.309307 0
M  V30 44 H 5.306335 4.036297 -0.306411 0
M  V30 45 H -0.258088 -1.236267 1.490012 0
M  V30 46 H -4.755770 -3.326438 -0.213057 0
M  V30 47 H -3.848053 -1.827462 -0.446213 0
M  V30 48 H -3.435324 -2.224725 -2.626240 0
M  V30 49 H -4.748658 -3.468281 -2.460048 0
M  V30 50 H -3.335007 -5.658020 -1.079611 0
M  V30 51 H -4.060956 -5.789775 -2.701268 0
M  V30 52 H -1.792295 -6.098323 -3.680448 0
M  V30 53 H -2.510026 -7.444693 -2.734297 0
M  V30 54 H -1.161352 -6.446467 -1.971928 0
M  V30 55 H -0.741246 -4.471936 -2.329273 0
M  V30 56 H -1.281012 -2.753021 -2.351720 0
M  V30 57 H -1.134523 -4.684332 -0.093318 0
M  V30 58 H -0.760997 -2.943448 -0.135309 0
M  V30 59 H -4.416297 -0.433212 1.424812 0
M  V30 60 H -3.923889 1.899648 1.132046 0
M  V30 61 H -3.038966 4.239483 1.754542 0
M  V30 62 H -1.806129 5.030433 0.701655 0
M  V30 63 H -4.421499 3.943828 -0.020210 0
M  V30 64 H -3.129289 3.019206 -0.840554 0
M  V30 65 H -3.202228 4.790763 -1.056873 0
M  V30 66 H 1.615063 -0.462282 1.377766 0
M  V30 END ATOM
M  V30 BEGIN BOND
M  V30 1 1 1 2
M  V30 2 1 2 3
M  V30 3 1 3 4
M  V30 4 2 4 5
M  V30 5 1 5 6
M  V30 6 1 6 7
M  V30 7 2 6 8
M  V30 8 1 8 9
M  V30 9 2 9 10
M  V30 10 1 9 11
M  V30 11 2 11 12
M  V30 12 1 12 13
M  V30 13 2 13 14
M  V30 14 1 14 15
M  V30 15 1 15 16
M  V30 16 2 16 17
M  V30 17 2 16 18
M  V30 18 1 16 19
M  V30 19 1 19 20
M  V30 20 1 20 21
M  V30 21 1 21 22
M  V30 22 1 22 23
M  V30 23 1 23 24
M  V30 24 1 22 25
M  V30 25 1 25 26
M  V30 26 2 15 27
M  V30 27 1 27 28
M  V30 28 2 28 29
M  V30 29 1 29 30
M  V30 30 1 30 31
M  V30 31 1 31 32
M  V30 32 1 12 33
M  V30 33 1 33 34
M  V30 34 1 34 4
M  V30 35 1 34 8
M  V30 36 1 29 13
M  V30 37 1 26 19
M  V30 38 1 1 35
M  V30 39 1 1 36
M  V30 40 1 1 37
M  V30 41 1 2 38
M  V30 42 1 2 39
M  V30 43 1 3 40
M  V30 44 1 3 41
M  V30 45 1 7 42
M  V30 46 1 7 43
M  V30 47 1 7 44
M  V30 48 1 14 45
M  V30 49 1 20 46
M  V30 50 1 20 47
M  V30 51 1 21 48
M  V30 52 1 21 49
M  V30 53 1 23 50
M  V30 54 1 23 51
M  V30 55 1 24 52
M  V30 56 1 24 53
M  V30 57 1 24 54
M  V30 58 1 25 55
M  V30 59 1 25 56
M  V30 60 1 26 57
M  V30 61 1 26 58
M  V30 62 1 27 59
M  V30 63 1 28 60
M  V30 64 1 31 61
M  V30 65 1 31 62
M  V30 66 1 32 63
M  V30 67 1 32 64
M  V30 68 1 32 65
M  V30 69 1 33 66
M  V30 END BOND
M  V30 END CTAB
M  END
>  <Dataset>  (31) 
OralDrugs

>  <Ligand_Instance>  (31) 
nan

>  <PDB_ID>  (31) 
nan

>  <Standardized_SMILES>  (31) 
CCCc1nc(C)c2c(=O)nc(-c3cc(S(=O)(=O)N4CCN(CC)CC4)ccc3OCC)[nH]n12

>  <Name>  (31) 
Vardenafil

>  <Pocket>  (31) 
nan

>  <ATP_Site>  (31) 
nan

>  <Peripheral>  (31) 
nan

>  <Num_H_Atoms_ProtBoundConf>  (31) 
nan

>  <Num_Resolved_Atoms>  (31) 
nan

>  <Num_Not_Resolved_Atoms>  (31) 
nan

>  <2D_Mol_H>  (31) 
<rdkit.Chem.rdchem.Mol object at 0x72a238b93f40>

>  <MW>  (31) 
488.614

>  <HBA>  (31) 
8

>  <HBD>  (31) 
1

>  <LogP>  (31) 
2.07042

>  <NRB>  (31) 
12

>  <TPSA>  (31) 
112.9

>  <Num_Heavy_Atoms>  (31) 
34

>  <Ro5>  (31) 
[True, True, True, True, False, True]

>  <Ro5_Fulfilled>  (31) 
True

>  <Ro3>  (31) 
[False, False, True, True]

>  <Ro3_Fulfilled>  (31) 
False

>  <Fsp3>  (31) 
0.521739

>  <Fsp3_0.42>  (31) 
True

>  <Fsp3_0.45>  (31) 
True

>  <Stereogenic_Carbons>  (31) 
0

>  <C_Atoms>  (31) 
23

>  <FCStereo>  (31) 
0.0

>  <SPS>  (31) 
536

>  <nSPS>  (31) 
15.764706

>  <PBF>  (31) 
1.12147

>  <PBF_0.6>  (31) 
True

>  <nPBF>  (31) 
0.032984

>  <nPBF_0.016>  (31) 
True

>  <PMI1>  (31) 
3414.053059

>  <PMI2>  (31) 
7672.808768

>  <PMI3>  (31) 
9433.733453

>  <NPR1>  (31) 
0.361898

>  <NPR2>  (31) 
0.813337

>  <Sum_NPR>  (31) 
1.175236

>  <Sum_NPR_1.07>  (31) 
True

>  <Sum_NPR_1.2>  (31) 
False

>  <MaxAbsEStateIndex>  (31) 
13.415912

>  <MaxEStateIndex>  (31) 
13.415912

>  <MinAbsEStateIndex>  (31) 
0.147445

>  <MinEStateIndex>  (31) 
-3.708998

>  <qed>  (31) 
0.516411

>  <MolWt>  (31) 
488.614

>  <HeavyAtomMolWt>  (31) 
456.358

>  <ExactMolWt>  (31) 
488.220575

>  <NumValenceElectrons>  (31) 
184

>  <NumRadicalElectrons>  (31) 
0

>  <MaxPartialCharge>  (31) 
0.299034

>  <MinPartialCharge>  (31) 
-0.493112

>  <MaxAbsPartialCharge>  (31) 
0.493112

>  <MinAbsPartialCharge>  (31) 
0.299034

>  <FpDensityMorgan1>  (31) 
1.088235

>  <FpDensityMorgan2>  (31) 
1.823529

>  <FpDensityMorgan3>  (31) 
2.470588

>  <BCUT2D_MWHI>  (31) 
32.233428

>  <BCUT2D_MWLOW>  (31) 
10.15989

>  <BCUT2D_CHGHI>  (31) 
2.290328

>  <BCUT2D_CHGLO>  (31) 
-2.328502

>  <BCUT2D_LOGPHI>  (31) 
2.313434

>  <BCUT2D_LOGPLOW>  (31) 
-2.478604

>  <BCUT2D_MRHI>  (31) 
7.887448

>  <BCUT2D_MRLOW>  (31) 
0.196091

>  <AvgIpc>  (31) 
3.148223

>  <BalabanJ>  (31) 
1.815923

>  <BertzCT>  (31) 
1339.479629

>  <Chi0>  (31) 
24.457455

>  <Chi0n>  (31) 
20.166214

>  <Chi0v>  (31) 
20.982711

>  <Chi1>  (31) 
16.293592

>  <Chi1n>  (31) 
11.776249

>  <Chi1v>  (31) 
13.216312

>  <Chi2n>  (31) 
8.35415

>  <Chi2v>  (31) 
10.292085

>  <Chi3n>  (31) 
6.150663

>  <Chi3v>  (31) 
8.045299

>  <Chi4n>  (31) 
4.326535

>  <Chi4v>  (31) 
5.775485

>  <HallKierAlpha>  (31) 
-2.76

>  <Ipc>  (31) 
44976779.31884

>  <Kappa1>  (31) 
24.367282

>  <Kappa2>  (31) 
9.847325

>  <Kappa3>  (31) 
4.468392

>  <LabuteASA>  (31) 
199.16304

>  <PEOE_VSA1>  (31) 
9.636773

>  <PEOE_VSA10>  (31) 
11.573916

>  <PEOE_VSA11>  (31) 
11.341105

>  <PEOE_VSA12>  (31) 
10.023291

>  <PEOE_VSA13>  (31) 
5.559267

>  <PEOE_VSA14>  (31) 
0.0

>  <PEOE_VSA2>  (31) 
9.893219

>  <PEOE_VSA3>  (31) 
17.917173

>  <PEOE_VSA4>  (31) 
9.289195

>  <PEOE_VSA5>  (31) 
0.0

>  <PEOE_VSA6>  (31) 
13.847474

>  <PEOE_VSA7>  (31) 
45.012154

>  <PEOE_VSA8>  (31) 
32.599847

>  <PEOE_VSA9>  (31) 
22.759745

>  <SMR_VSA1>  (31) 
13.15466

>  <SMR_VSA10>  (31) 
15.539992

>  <SMR_VSA2>  (31) 
0.0

>  <SMR_VSA3>  (31) 
28.787162

>  <SMR_VSA4>  (31) 
0.0

>  <SMR_VSA5>  (31) 
45.432076

>  <SMR_VSA6>  (31) 
39.330664

>  <SMR_VSA7>  (31) 
40.071238

>  <SMR_VSA8>  (31) 
0.0

>  <SMR_VSA9>  (31) 
17.137368

>  <SlogP_VSA1>  (31) 
10.29613

>  <SlogP_VSA10>  (31) 
0.0

>  <SlogP_VSA11>  (31) 
5.749512

>  <SlogP_VSA12>  (31) 
0.0

>  <SlogP_VSA2>  (31) 
76.535623

>  <SlogP_VSA3>  (31) 
16.444113

>  <SlogP_VSA4>  (31) 
6.923737

>  <SlogP_VSA5>  (31) 
38.710366

>  <SlogP_VSA6>  (31) 
27.889122

>  <SlogP_VSA7>  (31) 
0.0

>  <SlogP_VSA8>  (31) 
16.904557

>  <SlogP_VSA9>  (31) 
0.0

>  <EState_VSA1>  (31) 
15.582558

>  <EState_VSA10>  (31) 
13.212334

>  <EState_VSA11>  (31) 
0.0

>  <EState_VSA2>  (31) 
10.719888

>  <EState_VSA3>  (31) 
61.730321

>  <EState_VSA4>  (31) 
18.789983

>  <EState_VSA5>  (31) 
4.305216

>  <EState_VSA6>  (31) 
29.638236

>  <EState_VSA7>  (31) 
13.847474

>  <EState_VSA8>  (31) 
26.890286

>  <EState_VSA9>  (31) 
4.736863

>  <VSA_EState1>  (31) 
35.765464

>  <VSA_EState10>  (31) 
0.0

>  <VSA_EState2>  (31) 
24.032456

>  <VSA_EState3>  (31) 
3.176589

>  <VSA_EState4>  (31) 
0.994891

>  <VSA_EState5>  (31) 
1.419877

>  <VSA_EState6>  (31) 
4.722977

>  <VSA_EState7>  (31) 
1.547949

>  <VSA_EState8>  (31) 
11.298794

>  <VSA_EState9>  (31) 
-3.708998

>  <FractionCSP3>  (31) 
0.521739

>  <HeavyAtomCount>  (31) 
34

>  <NHOHCount>  (31) 
1

>  <NOCount>  (31) 
10

>  <NumAliphaticCarbocycles>  (31) 
0

>  <NumAliphaticHeterocycles>  (31) 
1

>  <NumAliphaticRings>  (31) 
1

>  <NumAromaticCarbocycles>  (31) 
1

>  <NumAromaticHeterocycles>  (31) 
2

>  <NumAromaticRings>  (31) 
3

>  <NumHAcceptors>  (31) 
8

>  <NumHDonors>  (31) 
1

>  <NumHeteroatoms>  (31) 
11

>  <NumRotatableBonds>  (31) 
8

>  <NumSaturatedCarbocycles>  (31) 
0

>  <NumSaturatedHeterocycles>  (31) 
1

>  <NumSaturatedRings>  (31) 
1

>  <RingCount>  (31) 
4

>  <MolLogP>  (31) 
2.07042

>  <MolMR>  (31) 
129.8175

>  <fr_Al_COO>  (31) 
0

>  <fr_Al_OH>  (31) 
0

>  <fr_Al_OH_noTert>  (31) 
0

>  <fr_ArN>  (31) 
0

>  <fr_Ar_COO>  (31) 
0

>  <fr_Ar_N>  (31) 
4

>  <fr_Ar_NH>  (31) 
1

>  <fr_Ar_OH>  (31) 
0

>  <fr_COO>  (31) 
0

>  <fr_COO2>  (31) 
0

>  <fr_C_O>  (31) 
0

>  <fr_C_O_noCOO>  (31) 
0

>  <fr_C_S>  (31) 
0

>  <fr_HOCCN>  (31) 
0

>  <fr_Imine>  (31) 
0

>  <fr_NH0>  (31) 
5

>  <fr_NH1>  (31) 
1

>  <fr_NH2>  (31) 
0

>  <fr_N_O>  (31) 
0

>  <fr_Ndealkylation1>  (31) 
1

>  <fr_Ndealkylation2>  (31) 
0

>  <fr_Nhpyrrole>  (31) 
1

>  <fr_SH>  (31) 
0

>  <fr_aldehyde>  (31) 
0

>  <fr_alkyl_carbamate>  (31) 
0

>  <fr_alkyl_halide>  (31) 
0

>  <fr_allylic_oxid>  (31) 
0

>  <fr_amide>  (31) 
0

>  <fr_amidine>  (31) 
0

>  <fr_aniline>  (31) 
0

>  <fr_aryl_methyl>  (31) 
2

>  <fr_azide>  (31) 
0

>  <fr_azo>  (31) 
0

>  <fr_barbitur>  (31) 
0

>  <fr_benzene>  (31) 
1

>  <fr_benzodiazepine>  (31) 
0

>  <fr_bicyclic>  (31) 
1

>  <fr_diazo>  (31) 
0

>  <fr_dihydropyridine>  (31) 
0

>  <fr_epoxide>  (31) 
0

>  <fr_ester>  (31) 
0

>  <fr_ether>  (31) 
1

>  <fr_furan>  (31) 
0

>  <fr_guanido>  (31) 
0

>  <fr_halogen>  (31) 
0

>  <fr_hdrzine>  (31) 
0

>  <fr_hdrzone>  (31) 
0

>  <fr_imidazole>  (31) 
1

>  <fr_imide>  (31) 
0

>  <fr_isocyan>  (31) 
0

>  <fr_isothiocyan>  (31) 
0

>  <fr_ketone>  (31) 
0

>  <fr_ketone_Topliss>  (31) 
0

>  <fr_lactam>  (31) 
0

>  <fr_lactone>  (31) 
0

>  <fr_methoxy>  (31) 
0

>  <fr_morpholine>  (31) 
0

>  <fr_nitrile>  (31) 
0

>  <fr_nitro>  (31) 
0

>  <fr_nitro_arom>  (31) 
0

>  <fr_nitro_arom_nonortho>  (31) 
0

>  <fr_nitroso>  (31) 
0

>  <fr_oxazole>  (31) 
0

>  <fr_oxime>  (31) 
0

>  <fr_para_hydroxylation>  (31) 
0

>  <fr_phenol>  (31) 
0

>  <fr_phenol_noOrthoHbond>  (31) 
0

>  <fr_phos_acid>  (31) 
0

>  <fr_phos_ester>  (31) 
0

>  <fr_piperdine>  (31) 
0

>  <fr_piperzine>  (31) 
1

>  <fr_priamide>  (31) 
0

>  <fr_prisulfonamd>  (31) 
0

>  <fr_pyridine>  (31) 
0

>  <fr_quatN>  (31) 
0

>  <fr_sulfide>  (31) 
0

>  <fr_sulfonamd>  (31) 
1

>  <fr_sulfone>  (31) 
0

>  <fr_term_acetylene>  (31) 
0

>  <fr_tetrazole>  (31) 
0

>  <fr_thiazole>  (31) 
0

>  <fr_thiocyan>  (31) 
0

>  <fr_thiophene>  (31) 
0

>  <fr_unbrch_alkane>  (31) 
0

>  <fr_urea>  (31) 
0

>  <NP_Likeness>  (31) 
-1.60645

$$$$
CHEMBL1339
     RDKit          3D

  0  0  0  0  0  0  0  0  0  0999 V3000
M  V30 BEGIN CTAB
M  V30 COUNTS 66 69 0 0 0
M  V30 BEGIN ATOM
M  V30 1 C 3.082335 -2.995435 1.048431 0
M  V30 2 C 2.934829 -1.494123 0.816983 0
M  V30 3 C 4.303909 -0.951483 0.427613 0
M  V30 4 C 4.174832 0.521149 0.197168 0
M  V30 5 N 5.174623 1.344736 -0.163704 0
M  V30 6 C 4.726786 2.602484 -0.286807 0
M  V30 7 C 5.401135 3.879500 -0.656884 0
M  V30 8 C 3.385695 2.546777 0.013798 0
M  V30 9 C 2.362230 3.491031 0.071250 0
M  V30 10 O 2.643331 4.824586 -0.223016 0
M  V30 11 N 1.091602 3.139639 0.408970 0
M  V30 12 C 0.793499 1.850588 0.699162 0
M  V30 13 C -0.551210 1.419694 1.069793 0
M  V30 14 C -0.799929 0.081513 1.349422 0
M  V30 15 C -2.085313 -0.313429 1.705848 0
M  V30 16 S -2.455105 -1.968189 2.060647 0
M  V30 17 O -1.158225 -2.614864 2.521232 0
M  V30 18 O -3.399401 -2.085834 3.209237 0
M  V30 19 N -3.001107 -2.836696 0.695007 0
M  V30 20 C -2.017255 -2.889183 -0.335995 0
M  V30 21 C -1.492785 -4.272234 -0.616586 0
M  V30 22 N -2.514141 -5.201653 -0.982205 0
M  V30 23 C -2.098030 -6.572419 -0.888464 0
M  V30 24 C -1.066790 -6.843567 -1.950324 0
M  V30 25 C -3.729798 -4.931754 -0.264358 0
M  V30 26 C -3.504219 -4.138917 1.011361 0
M  V30 27 C -3.134638 0.603520 1.789881 0
M  V30 28 C -2.845497 1.920735 1.504270 0
M  V30 29 C -1.580435 2.345733 1.147408 0
M  V30 30 O -1.361712 3.670689 0.876320 0
M  V30 31 C -2.260648 4.713666 0.905275 0
M  V30 32 C -2.936995 4.999473 2.196830 0
M  V30 33 N 1.797140 0.985216 0.632072 0
M  V30 34 N 3.046201 1.262080 0.312123 0
M  V30 35 H 3.988909 -3.113990 1.699911 0
M  V30 36 H 3.261343 -3.522977 0.107803 0
M  V30 37 H 2.172927 -3.400938 1.507165 0
M  V30 38 H 2.198238 -1.276249 0.023780 0
M  V30 39 H 2.645155 -0.996569 1.759845 0
M  V30 40 H 5.064702 -1.175733 1.176390 0
M  V30 41 H 4.598294 -1.473514 -0.504586 0
M  V30 42 H 5.744299 4.449367 0.220632 0
M  V30 43 H 6.235370 3.605536 -1.342053 0
M  V30 44 H 4.724675 4.533375 -1.242178 0
M  V30 45 H 2.412259 5.164601 -1.142147 0
M  V30 46 H 0.019004 -0.637819 1.284206 0
M  V30 47 H -1.123898 -2.263999 -0.083956 0
M  V30 48 H -2.432423 -2.416024 -1.269920 0
M  V30 49 H -1.024429 -4.634125 0.330772 0
M  V30 50 H -0.748070 -4.145973 -1.433545 0
M  V30 51 H -1.714118 -6.851424 0.119093 0
M  V30 52 H -2.960223 -7.242831 -1.076152 0
M  V30 53 H -0.496987 -7.756817 -1.642780 0
M  V30 54 H -1.528338 -7.076162 -2.933082 0
M  V30 55 H -0.330940 -6.043182 -2.014165 0
M  V30 56 H -4.352388 -4.270795 -0.927355 0
M  V30 57 H -4.340846 -5.831373 -0.083131 0
M  V30 58 H -2.863702 -4.711239 1.715857 0
M  V30 59 H -4.511689 -4.054395 1.490705 0
M  V30 60 H -4.141407 0.281551 2.071617 0
M  V30 61 H -3.681953 2.616944 1.576477 0
M  V30 62 H -3.054212 4.499241 0.130245 0
M  V30 63 H -1.728070 5.617254 0.491519 0
M  V30 64 H -2.596962 6.021714 2.533730 0
M  V30 65 H -4.046148 5.141189 2.054695 0
M  V30 66 H -2.756506 4.298028 3.016090 0
M  V30 END ATOM
M  V30 BEGIN BOND
M  V30 1 1 1 2
M  V30 2 1 2 3
M  V30 3 1 3 4
M  V30 4 2 4 5
M  V30 5 1 5 6
M  V30 6 1 6 7
M  V30 7 2 6 8
M  V30 8 1 8 9
M  V30 9 1 9 10
M  V30 10 2 9 11
M  V30 11 1 11 12
M  V30 12 1 12 13
M  V30 13 2 13 14
M  V30 14 1 14 15
M  V30 15 1 15 16
M  V30 16 2 16 17
M  V30 17 2 16 18
M  V30 18 1 16 19
M  V30 19 1 19 20
M  V30 20 1 20 21
M  V30 21 1 21 22
M  V30 22 1 22 23
M  V30 23 1 23 24
M  V30 24 1 22 25
M  V30 25 1 25 26
M  V30 26 2 15 27
M  V30 27 1 27 28
M  V30 28 2 28 29
M  V30 29 1 29 30
M  V30 30 1 30 31
M  V30 31 1 31 32
M  V30 32 2 12 33
M  V30 33 1 33 34
M  V30 34 1 34 4
M  V30 35 1 34 8
M  V30 36 1 29 13
M  V30 37 1 26 19
M  V30 38 1 1 35
M  V30 39 1 1 36
M  V30 40 1 1 37
M  V30 41 1 2 38
M  V30 42 1 2 39
M  V30 43 1 3 40
M  V30 44 1 3 41
M  V30 45 1 7 42
M  V30 46 1 7 43
M  V30 47 1 7 44
M  V30 48 1 10 45
M  V30 49 1 14 46
M  V30 50 1 20 47
M  V30 51 1 20 48
M  V30 52 1 21 49
M  V30 53 1 21 50
M  V30 54 1 23 51
M  V30 55 1 23 52
M  V30 56 1 24 53
M  V30 57 1 24 54
M  V30 58 1 24 55
M  V30 59 1 25 56
M  V30 60 1 25 57
M  V30 61 1 26 58
M  V30 62 1 26 59
M  V30 63 1 27 60
M  V30 64 1 28 61
M  V30 65 1 31 62
M  V30 66 1 31 63
M  V30 67 1 32 64
M  V30 68 1 32 65
M  V30 69 1 32 66
M  V30 END BOND
M  V30 END CTAB
M  END
>  <Dataset>  (32) 
OralDrugs

>  <Ligand_Instance>  (32) 
nan

>  <PDB_ID>  (32) 
nan

>  <Standardized_SMILES>  (32) 
CCCc1nc(C)c2c(O)nc(-c3cc(S(=O)(=O)N4CCN(CC)CC4)ccc3OCC)nn12

>  <Name>  (32) 
Vardenafil Hydrochloride

>  <Pocket>  (32) 
nan

>  <ATP_Site>  (32) 
nan

>  <Peripheral>  (32) 
nan

>  <Num_H_Atoms_ProtBoundConf>  (32) 
nan

>  <Num_Resolved_Atoms>  (32) 
nan

>  <Num_Not_Resolved_Atoms>  (32) 
nan

>  <2D_Mol_H>  (32) 
<rdkit.Chem.rdchem.Mol object at 0x72a238bbc0b0>

>  <MW>  (32) 
488.614

>  <HBA>  (32) 
9

>  <HBD>  (32) 
1

>  <LogP>  (32) 
2.48272

>  <NRB>  (32) 
13

>  <TPSA>  (32) 
113.16

>  <Num_Heavy_Atoms>  (32) 
34

>  <Ro5>  (32) 
[True, True, True, True, False, True]

>  <Ro5_Fulfilled>  (32) 
True

>  <Ro3>  (32) 
[False, False, True, True]

>  <Ro3_Fulfilled>  (32) 
False

>  <Fsp3>  (32) 
0.521739

>  <Fsp3_0.42>  (32) 
True

>  <Fsp3_0.45>  (32) 
True

>  <Stereogenic_Carbons>  (32) 
0

>  <C_Atoms>  (32) 
23

>  <FCStereo>  (32) 
0.0

>  <SPS>  (32) 
536

>  <nSPS>  (32) 
15.764706

>  <PBF>  (32) 
0.875925

>  <PBF_0.6>  (32) 
True

>  <nPBF>  (32) 
0.025763

>  <nPBF_0.016>  (32) 
True

>  <PMI1>  (32) 
3456.072482

>  <PMI2>  (32) 
7191.499796

>  <PMI3>  (32) 
9777.372894

>  <NPR1>  (32) 
0.353477

>  <NPR2>  (32) 
0.735525

>  <Sum_NPR>  (32) 
1.089001

>  <Sum_NPR_1.07>  (32) 
True

>  <Sum_NPR_1.2>  (32) 
False

>  <MaxAbsEStateIndex>  (32) 
13.418053

>  <MaxEStateIndex>  (32) 
13.418053

>  <MinAbsEStateIndex>  (32) 
0.147853

>  <MinEStateIndex>  (32) 
-3.707262

>  <qed>  (32) 
0.514556

>  <MolWt>  (32) 
488.614

>  <HeavyAtomMolWt>  (32) 
456.358

>  <ExactMolWt>  (32) 
488.220575

>  <NumValenceElectrons>  (32) 
184

>  <NumRadicalElectrons>  (32) 
0

>  <MaxPartialCharge>  (32) 
0.242684

>  <MinPartialCharge>  (32) 
-0.49311

>  <MaxAbsPartialCharge>  (32) 
0.49311

>  <MinAbsPartialCharge>  (32) 
0.242684

>  <FpDensityMorgan1>  (32) 
1.088235

>  <FpDensityMorgan2>  (32) 
1.823529

>  <FpDensityMorgan3>  (32) 
2.470588

>  <BCUT2D_MWHI>  (32) 
32.233428

>  <BCUT2D_MWLOW>  (32) 
10.159314

>  <BCUT2D_CHGHI>  (32) 
2.292626

>  <BCUT2D_CHGLO>  (32) 
-2.328438

>  <BCUT2D_LOGPHI>  (32) 
2.334342

>  <BCUT2D_LOGPLOW>  (32) 
-2.478589

>  <BCUT2D_MRHI>  (32) 
7.887448

>  <BCUT2D_MRLOW>  (32) 
0.196091

>  <AvgIpc>  (32) 
3.148223

>  <BalabanJ>  (32) 
1.807287

>  <BertzCT>  (32) 
1282.34262

>  <Chi0>  (32) 
24.457455

>  <Chi0n>  (32) 
20.152393

>  <Chi0v>  (32) 
20.96889

>  <Chi1>  (32) 
16.293592

>  <Chi1n>  (32) 
11.745732

>  <Chi1v>  (32) 
13.185795

>  <Chi2n>  (32) 
8.312194

>  <Chi2v>  (32) 
10.250129

>  <Chi3n>  (32) 
6.095715

>  <Chi3v>  (32) 
7.990352

>  <Chi4n>  (32) 
4.271141

>  <Chi4v>  (32) 
5.720091

>  <HallKierAlpha>  (32) 
-2.76

>  <Ipc>  (32) 
44976779.31884

>  <Kappa1>  (32) 
24.367282

>  <Kappa2>  (32) 
9.847325

>  <Kappa3>  (32) 
4.468392

>  <LabuteASA>  (32) 
199.795752

>  <PEOE_VSA1>  (32) 
14.7433

>  <PEOE_VSA10>  (32) 
17.090617

>  <PEOE_VSA11>  (32) 
5.824404

>  <PEOE_VSA12>  (32) 
15.903279

>  <PEOE_VSA13>  (32) 
0.0

>  <PEOE_VSA14>  (32) 
0.0

>  <PEOE_VSA2>  (32) 
0.0

>  <PEOE_VSA3>  (32) 
17.917173

>  <PEOE_VSA4>  (32) 
9.289195

>  <PEOE_VSA5>  (32) 
5.098682

>  <PEOE_VSA6>  (32) 
13.847474

>  <PEOE_VSA7>  (32) 
45.012154

>  <PEOE_VSA8>  (32) 
32.599847

>  <PEOE_VSA9>  (32) 
22.759745

>  <SMR_VSA1>  (32) 
18.261187

>  <SMR_VSA10>  (32) 
15.539992

>  <SMR_VSA2>  (32) 
0.0

>  <SMR_VSA3>  (32) 
28.787162

>  <SMR_VSA4>  (32) 
0.0

>  <SMR_VSA5>  (32) 
45.432076

>  <SMR_VSA6>  (32) 
39.330664

>  <SMR_VSA7>  (32) 
29.717434

>  <SMR_VSA8>  (32) 
0.0

>  <SMR_VSA9>  (32) 
23.017356

>  <SlogP_VSA1>  (32) 
4.736863

>  <SlogP_VSA10>  (32) 
0.0

>  <SlogP_VSA11>  (32) 
11.6295

>  <SlogP_VSA12>  (32) 
0.0

>  <SlogP_VSA2>  (32) 
81.642151

>  <SlogP_VSA3>  (32) 
16.444113

>  <SlogP_VSA4>  (32) 
6.923737

>  <SlogP_VSA5>  (32) 
38.710366

>  <SlogP_VSA6>  (32) 
23.094585

>  <SlogP_VSA7>  (32) 
0.0

>  <SlogP_VSA8>  (32) 
16.904557

>  <SlogP_VSA9>  (32) 
0.0

>  <EState_VSA1>  (32) 
10.023291

>  <EState_VSA10>  (32) 
13.524324

>  <EState_VSA11>  (32) 
0.0

>  <EState_VSA2>  (32) 
16.599876

>  <EState_VSA3>  (32) 
67.554726

>  <EState_VSA4>  (32) 
12.965578

>  <EState_VSA5>  (32) 
10.371583

>  <EState_VSA6>  (32) 
23.571869

>  <EState_VSA7>  (32) 
13.847474

>  <EState_VSA8>  (32) 
26.890286

>  <EState_VSA9>  (32) 
4.736863

>  <VSA_EState1>  (32) 
35.709797

>  <VSA_EState10>  (32) 
0.0

>  <VSA_EState2>  (32) 
11.194156

>  <VSA_EState3>  (32) 
15.327153

>  <VSA_EState4>  (32) 
1.489753

>  <VSA_EState5>  (32) 
1.133488

>  <VSA_EState6>  (32) 
4.721649

>  <VSA_EState7>  (32) 
1.544885

>  <VSA_EState8>  (32) 
11.336381

>  <VSA_EState9>  (32) 
-3.707262

>  <FractionCSP3>  (32) 
0.521739

>  <HeavyAtomCount>  (32) 
34

>  <NHOHCount>  (32) 
1

>  <NOCount>  (32) 
10

>  <NumAliphaticCarbocycles>  (32) 
0

>  <NumAliphaticHeterocycles>  (32) 
1

>  <NumAliphaticRings>  (32) 
1

>  <NumAromaticCarbocycles>  (32) 
1

>  <NumAromaticHeterocycles>  (32) 
2

>  <NumAromaticRings>  (32) 
3

>  <NumHAcceptors>  (32) 
9

>  <NumHDonors>  (32) 
1

>  <NumHeteroatoms>  (32) 
11

>  <NumRotatableBonds>  (32) 
8

>  <NumSaturatedCarbocycles>  (32) 
0

>  <NumSaturatedHeterocycles>  (32) 
1

>  <NumSaturatedRings>  (32) 
1

>  <RingCount>  (32) 
4

>  <MolLogP>  (32) 
2.48272

>  <MolMR>  (32) 
128.6566

>  <fr_Al_COO>  (32) 
0

>  <fr_Al_OH>  (32) 
0

>  <fr_Al_OH_noTert>  (32) 
0

>  <fr_ArN>  (32) 
0

>  <fr_Ar_COO>  (32) 
0

>  <fr_Ar_N>  (32) 
4

>  <fr_Ar_NH>  (32) 
0

>  <fr_Ar_OH>  (32) 
1

>  <fr_COO>  (32) 
0

>  <fr_COO2>  (32) 
0

>  <fr_C_O>  (32) 
0

>  <fr_C_O_noCOO>  (32) 
0

>  <fr_C_S>  (32) 
0

>  <fr_HOCCN>  (32) 
0

>  <fr_Imine>  (32) 
0

>  <fr_NH0>  (32) 
6

>  <fr_NH1>  (32) 
0

>  <fr_NH2>  (32) 
0

>  <fr_N_O>  (32) 
0

>  <fr_Ndealkylation1>  (32) 
1

>  <fr_Ndealkylation2>  (32) 
0

>  <fr_Nhpyrrole>  (32) 
0

>  <fr_SH>  (32) 
0

>  <fr_aldehyde>  (32) 
0

>  <fr_alkyl_carbamate>  (32) 
0

>  <fr_alkyl_halide>  (32) 
0

>  <fr_allylic_oxid>  (32) 
0

>  <fr_amide>  (32) 
0

>  <fr_amidine>  (32) 
0

>  <fr_aniline>  (32) 
0

>  <fr_aryl_methyl>  (32) 
2

>  <fr_azide>  (32) 
0

>  <fr_azo>  (32) 
0

>  <fr_barbitur>  (32) 
0

>  <fr_benzene>  (32) 
1

>  <fr_benzodiazepine>  (32) 
0

>  <fr_bicyclic>  (32) 
1

>  <fr_diazo>  (32) 
0

>  <fr_dihydropyridine>  (32) 
0

>  <fr_epoxide>  (32) 
0

>  <fr_ester>  (32) 
0

>  <fr_ether>  (32) 
1

>  <fr_furan>  (32) 
0

>  <fr_guanido>  (32) 
0

>  <fr_halogen>  (32) 
0

>  <fr_hdrzine>  (32) 
0

>  <fr_hdrzone>  (32) 
0

>  <fr_imidazole>  (32) 
1

>  <fr_imide>  (32) 
0

>  <fr_isocyan>  (32) 
0

>  <fr_isothiocyan>  (32) 
0

>  <fr_ketone>  (32) 
0

>  <fr_ketone_Topliss>  (32) 
0

>  <fr_lactam>  (32) 
0

>  <fr_lactone>  (32) 
0

>  <fr_methoxy>  (32) 
0

>  <fr_morpholine>  (32) 
0

>  <fr_nitrile>  (32) 
0

>  <fr_nitro>  (32) 
0

>  <fr_nitro_arom>  (32) 
0

>  <fr_nitro_arom_nonortho>  (32) 
0

>  <fr_nitroso>  (32) 
0

>  <fr_oxazole>  (32) 
0

>  <fr_oxime>  (32) 
0

>  <fr_para_hydroxylation>  (32) 
0

>  <fr_phenol>  (32) 
0

>  <fr_phenol_noOrthoHbond>  (32) 
0

>  <fr_phos_acid>  (32) 
0

>  <fr_phos_ester>  (32) 
0

>  <fr_piperdine>  (32) 
0

>  <fr_piperzine>  (32) 
1

>  <fr_priamide>  (32) 
0

>  <fr_prisulfonamd>  (32) 
0

>  <fr_pyridine>  (32) 
0

>  <fr_quatN>  (32) 
0

>  <fr_sulfide>  (32) 
0

>  <fr_sulfonamd>  (32) 
1

>  <fr_sulfone>  (32) 
0

>  <fr_term_acetylene>  (32) 
0

>  <fr_tetrazole>  (32) 
0

>  <fr_thiazole>  (32) 
0

>  <fr_thiocyan>  (32) 
0

>  <fr_thiophene>  (32) 
0

>  <fr_unbrch_alkane>  (32) 
0

>  <fr_urea>  (32) 
0

>  <NP_Likeness>  (32) 
-1.79501

$$$$
CHEMBL1076903
     RDKit          3D

  0  0  0  0  0  0  0  0  0  0999 V3000
M  V30 BEGIN CTAB
M  V30 COUNTS 29 32 0 0 0
M  V30 BEGIN ATOM
M  V30 1 C -0.647158 -4.087461 3.489394 0
M  V30 2 C 0.287094 -4.723244 2.693210 0
M  V30 3 N 0.923417 -3.990822 1.757987 0
M  V30 4 C 0.635270 -2.674557 1.625884 0
M  V30 5 C 1.286645 -1.942156 0.674453 0
M  V30 6 C 0.985141 -0.602988 0.549124 0
M  V30 7 C 0.048888 0.023247 1.350690 0
M  V30 8 C -0.621200 -0.705931 2.321281 0
M  V30 9 C -0.298139 -2.043152 2.422634 0
M  V30 10 N -0.929504 -2.773799 3.351894 0
M  V30 11 C 0.039807 1.438365 0.883568 0 CFG=2
M  V30 12 C -0.871536 1.666092 -0.302834 0
M  V30 13 N -0.173479 1.552182 -1.560181 0
M  V30 14 C 0.672413 0.353340 -1.612418 0
M  V30 15 C 1.601485 0.332093 -0.432815 0 CFG=1
M  V30 16 C 1.448433 1.624773 0.345664 0
M  V30 17 H -1.206630 -4.595328 4.265788 0
M  V30 18 H 0.444203 -5.760519 2.872998 0
M  V30 19 H 2.024246 -2.459422 0.051038 0
M  V30 20 H -1.349888 -0.207513 2.941444 0
M  V30 21 H -0.177540 2.142067 1.711996 0
M  V30 22 H -1.150118 2.758907 -0.229462 0
M  V30 23 H -1.816083 1.092858 -0.255468 0
M  V30 24 H -0.912896 1.461724 -2.299087 0
M  V30 25 H -0.056865 -0.506551 -1.623466 0
M  V30 26 H 1.174481 0.345687 -2.577727 0
M  V30 27 H 2.635747 0.089524 -0.669023 0
M  V30 28 H 2.188123 1.626783 1.190211 0
M  V30 29 H 1.538539 2.513400 -0.288083 0
M  V30 END ATOM
M  V30 BEGIN BOND
M  V30 1 2 1 2
M  V30 2 1 2 3
M  V30 3 2 3 4
M  V30 4 1 4 5
M  V30 5 2 5 6
M  V30 6 1 6 7
M  V30 7 2 7 8
M  V30 8 1 8 9
M  V30 9 2 9 10
M  V30 10 1 7 11
M  V30 11 1 11 12
M  V30 12 1 12 13
M  V30 13 1 13 14
M  V30 14 1 14 15
M  V30 15 1 15 16
M  V30 16 1 10 1
M  V30 17 1 16 11
M  V30 18 1 9 4
M  V30 19 1 15 6
M  V30 20 1 1 17
M  V30 21 1 2 18
M  V30 22 1 5 19
M  V30 23 1 8 20
M  V30 24 1 11 21 CFG=1
M  V30 25 1 12 22
M  V30 26 1 12 23
M  V30 27 1 13 24
M  V30 28 1 14 25
M  V30 29 1 14 26
M  V30 30 1 15 27 CFG=3
M  V30 31 1 16 28
M  V30 32 1 16 29
M  V30 END BOND
M  V30 END CTAB
M  END
>  <Dataset>  (33) 
OralDrugs

>  <Ligand_Instance>  (33) 
nan

>  <PDB_ID>  (33) 
nan

>  <Standardized_SMILES>  (33) 
c1cnc2cc3c(cc2n1)[C@@H]1CNC[C@H]3C1

>  <Name>  (33) 
Varenicline

>  <Pocket>  (33) 
nan

>  <ATP_Site>  (33) 
nan

>  <Peripheral>  (33) 
nan

>  <Num_H_Atoms_ProtBoundConf>  (33) 
nan

>  <Num_Resolved_Atoms>  (33) 
nan

>  <Num_Not_Resolved_Atoms>  (33) 
nan

>  <2D_Mol_H>  (33) 
<rdkit.Chem.rdchem.Mol object at 0x72a238bbc190>

>  <MW>  (33) 
211.268

>  <HBA>  (33) 
3

>  <HBD>  (33) 
1

>  <LogP>  (33) 
1.8039

>  <NRB>  (33) 
0

>  <TPSA>  (33) 
37.81

>  <Num_Heavy_Atoms>  (33) 
16

>  <Ro5>  (33) 
[True, True, True, True, True, True]

>  <Ro5_Fulfilled>  (33) 
True

>  <Ro3>  (33) 
[True, True, True, True]

>  <Ro3_Fulfilled>  (33) 
True

>  <Fsp3>  (33) 
0.384615

>  <Fsp3_0.42>  (33) 
False

>  <Fsp3_0.45>  (33) 
False

>  <Stereogenic_Carbons>  (33) 
2

>  <C_Atoms>  (33) 
13

>  <FCStereo>  (33) 
0.153846

>  <SPS>  (33) 
432

>  <nSPS>  (33) 
27.0

>  <PBF>  (33) 
0.721271

>  <PBF_0.6>  (33) 
True

>  <nPBF>  (33) 
0.045079

>  <nPBF_0.016>  (33) 
True

>  <PMI1>  (33) 
322.642022

>  <PMI2>  (33) 
1443.751639

>  <PMI3>  (33) 
1596.911154

>  <NPR1>  (33) 
0.202041

>  <NPR2>  (33) 
0.90409

>  <Sum_NPR>  (33) 
1.106131

>  <Sum_NPR_1.07>  (33) 
True

>  <Sum_NPR_1.2>  (33) 
False

>  <MaxAbsEStateIndex>  (33) 
4.389983

>  <MaxEStateIndex>  (33) 
4.389983

>  <MinAbsEStateIndex>  (33) 
0.694589

>  <MinEStateIndex>  (33) 
0.694589

>  <qed>  (33) 
0.721763

>  <MolWt>  (33) 
211.268

>  <HeavyAtomMolWt>  (33) 
198.164

>  <ExactMolWt>  (33) 
211.110947

>  <NumValenceElectrons>  (33) 
80

>  <NumRadicalElectrons>  (33) 
0

>  <MaxPartialCharge>  (33) 
0.088934

>  <MinPartialCharge>  (33) 
-0.315515

>  <MaxAbsPartialCharge>  (33) 
0.315515

>  <MinAbsPartialCharge>  (33) 
0.088934

>  <FpDensityMorgan1>  (33) 
0.9375

>  <FpDensityMorgan2>  (33) 
1.5

>  <FpDensityMorgan3>  (33) 
2.0625

>  <BCUT2D_MWHI>  (33) 
14.896072

>  <BCUT2D_MWLOW>  (33) 
9.976603

>  <BCUT2D_CHGHI>  (33) 
2.338285

>  <BCUT2D_CHGLO>  (33) 
-2.193093

>  <BCUT2D_LOGPHI>  (33) 
2.43877

>  <BCUT2D_LOGPLOW>  (33) 
-2.281828

>  <BCUT2D_MRHI>  (33) 
5.766947

>  <BCUT2D_MRLOW>  (33) 
0.453593

>  <AvgIpc>  (33) 
2.590487

>  <BalabanJ>  (33) 
2.013737

>  <BertzCT>  (33) 
515.606304

>  <Chi0>  (33) 
10.535169

>  <Chi0n>  (33) 
8.979849

>  <Chi0v>  (33) 
8.979849

>  <Chi1>  (33) 
7.915816

>  <Chi1n>  (33) 
5.869095

>  <Chi1v>  (33) 
5.869095

>  <Chi2n>  (33) 
4.813978

>  <Chi2v>  (33) 
4.813978

>  <Chi3n>  (33) 
3.904279

>  <Chi3v>  (33) 
3.904279

>  <Chi4n>  (33) 
3.166071

>  <Chi4v>  (33) 
3.166071

>  <HallKierAlpha>  (33) 
-1.48

>  <Ipc>  (33) 
12473.193521

>  <Kappa1>  (33) 
8.646728

>  <Kappa2>  (33) 
3.013272

>  <Kappa3>  (33) 
1.063838

>  <LabuteASA>  (33) 
93.915274

>  <PEOE_VSA1>  (33) 
5.316789

>  <PEOE_VSA10>  (33) 
0.0

>  <PEOE_VSA11>  (33) 
0.0

>  <PEOE_VSA12>  (33) 
0.0

>  <PEOE_VSA13>  (33) 
0.0

>  <PEOE_VSA14>  (33) 
0.0

>  <PEOE_VSA2>  (33) 
9.967957

>  <PEOE_VSA3>  (33) 
0.0

>  <PEOE_VSA4>  (33) 
0.0

>  <PEOE_VSA5>  (33) 
0.0

>  <PEOE_VSA6>  (33) 
0.0

>  <PEOE_VSA7>  (33) 
41.516271

>  <PEOE_VSA8>  (33) 
25.4832

>  <PEOE_VSA9>  (33) 
11.033401

>  <SMR_VSA1>  (33) 
0.0

>  <SMR_VSA10>  (33) 
11.033401

>  <SMR_VSA2>  (33) 
0.0

>  <SMR_VSA3>  (33) 
15.284746

>  <SMR_VSA4>  (33) 
0.0

>  <SMR_VSA5>  (33) 
18.256634

>  <SMR_VSA6>  (33) 
13.089513

>  <SMR_VSA7>  (33) 
35.653324

>  <SMR_VSA8>  (33) 
0.0

>  <SMR_VSA9>  (33) 
0.0

>  <SlogP_VSA1>  (33) 
5.316789

>  <SlogP_VSA10>  (33) 
0.0

>  <SlogP_VSA11>  (33) 
0.0

>  <SlogP_VSA12>  (33) 
0.0

>  <SlogP_VSA2>  (33) 
23.05747

>  <SlogP_VSA3>  (33) 
0.0

>  <SlogP_VSA4>  (33) 
0.0

>  <SlogP_VSA5>  (33) 
29.383537

>  <SlogP_VSA6>  (33) 
24.526421

>  <SlogP_VSA7>  (33) 
0.0

>  <SlogP_VSA8>  (33) 
11.033401

>  <SlogP_VSA9>  (33) 
0.0

>  <EState_VSA1>  (33) 
0.0

>  <EState_VSA10>  (33) 
0.0

>  <EState_VSA11>  (33) 
0.0

>  <EState_VSA2>  (33) 
0.0

>  <EState_VSA3>  (33) 
11.835812

>  <EState_VSA4>  (33) 
24.122914

>  <EState_VSA5>  (33) 
17.547725

>  <EState_VSA6>  (33) 
12.393687

>  <EState_VSA7>  (33) 
0.0

>  <EState_VSA8>  (33) 
27.41748

>  <EState_VSA9>  (33) 
0.0

>  <VSA_EState1>  (33) 
0.0

>  <VSA_EState10>  (33) 
0.0

>  <VSA_EState2>  (33) 
8.779966

>  <VSA_EState3>  (33) 
3.507439

>  <VSA_EState4>  (33) 
5.077407

>  <VSA_EState5>  (33) 
1.389178

>  <VSA_EState6>  (33) 
4.490741

>  <VSA_EState7>  (33) 
4.847989

>  <VSA_EState8>  (33) 
2.240613

>  <VSA_EState9>  (33) 
0.0

>  <FractionCSP3>  (33) 
0.384615

>  <HeavyAtomCount>  (33) 
16

>  <NHOHCount>  (33) 
1

>  <NOCount>  (33) 
3

>  <NumAliphaticCarbocycles>  (33) 
1

>  <NumAliphaticHeterocycles>  (33) 
1

>  <NumAliphaticRings>  (33) 
2

>  <NumAromaticCarbocycles>  (33) 
1

>  <NumAromaticHeterocycles>  (33) 
1

>  <NumAromaticRings>  (33) 
2

>  <NumHAcceptors>  (33) 
3

>  <NumHDonors>  (33) 
1

>  <NumHeteroatoms>  (33) 
3

>  <NumRotatableBonds>  (33) 
0

>  <NumSaturatedCarbocycles>  (33) 
0

>  <NumSaturatedHeterocycles>  (33) 
1

>  <NumSaturatedRings>  (33) 
1

>  <RingCount>  (33) 
4

>  <MolLogP>  (33) 
1.8039

>  <MolMR>  (33) 
62.5067

>  <fr_Al_COO>  (33) 
0

>  <fr_Al_OH>  (33) 
0

>  <fr_Al_OH_noTert>  (33) 
0

>  <fr_ArN>  (33) 
0

>  <fr_Ar_COO>  (33) 
0

>  <fr_Ar_N>  (33) 
2

>  <fr_Ar_NH>  (33) 
0

>  <fr_Ar_OH>  (33) 
0

>  <fr_COO>  (33) 
0

>  <fr_COO2>  (33) 
0

>  <fr_C_O>  (33) 
0

>  <fr_C_O_noCOO>  (33) 
0

>  <fr_C_S>  (33) 
0

>  <fr_HOCCN>  (33) 
0

>  <fr_Imine>  (33) 
0

>  <fr_NH0>  (33) 
2

>  <fr_NH1>  (33) 
1

>  <fr_NH2>  (33) 
0

>  <fr_N_O>  (33) 
0

>  <fr_Ndealkylation1>  (33) 
0

>  <fr_Ndealkylation2>  (33) 
0

>  <fr_Nhpyrrole>  (33) 
0

>  <fr_SH>  (33) 
0

>  <fr_aldehyde>  (33) 
0

>  <fr_alkyl_carbamate>  (33) 
0

>  <fr_alkyl_halide>  (33) 
0

>  <fr_allylic_oxid>  (33) 
0

>  <fr_amide>  (33) 
0

>  <fr_amidine>  (33) 
0

>  <fr_aniline>  (33) 
0

>  <fr_aryl_methyl>  (33) 
0

>  <fr_azide>  (33) 
0

>  <fr_azo>  (33) 
0

>  <fr_barbitur>  (33) 
0

>  <fr_benzene>  (33) 
1

>  <fr_benzodiazepine>  (33) 
0

>  <fr_bicyclic>  (33) 
6

>  <fr_diazo>  (33) 
0

>  <fr_dihydropyridine>  (33) 
0

>  <fr_epoxide>  (33) 
0

>  <fr_ester>  (33) 
0

>  <fr_ether>  (33) 
0

>  <fr_furan>  (33) 
0

>  <fr_guanido>  (33) 
0

>  <fr_halogen>  (33) 
0

>  <fr_hdrzine>  (33) 
0

>  <fr_hdrzone>  (33) 
0

>  <fr_imidazole>  (33) 
0

>  <fr_imide>  (33) 
0

>  <fr_isocyan>  (33) 
0

>  <fr_isothiocyan>  (33) 
0

>  <fr_ketone>  (33) 
0

>  <fr_ketone_Topliss>  (33) 
0

>  <fr_lactam>  (33) 
0

>  <fr_lactone>  (33) 
0

>  <fr_methoxy>  (33) 
0

>  <fr_morpholine>  (33) 
0

>  <fr_nitrile>  (33) 
0

>  <fr_nitro>  (33) 
0

>  <fr_nitro_arom>  (33) 
0

>  <fr_nitro_arom_nonortho>  (33) 
0

>  <fr_nitroso>  (33) 
0

>  <fr_oxazole>  (33) 
0

>  <fr_oxime>  (33) 
0

>  <fr_para_hydroxylation>  (33) 
0

>  <fr_phenol>  (33) 
0

>  <fr_phenol_noOrthoHbond>  (33) 
0

>  <fr_phos_acid>  (33) 
0

>  <fr_phos_ester>  (33) 
0

>  <fr_piperdine>  (33) 
1

>  <fr_piperzine>  (33) 
0

>  <fr_priamide>  (33) 
0

>  <fr_prisulfonamd>  (33) 
0

>  <fr_pyridine>  (33) 
0

>  <fr_quatN>  (33) 
0

>  <fr_sulfide>  (33) 
0

>  <fr_sulfonamd>  (33) 
0

>  <fr_sulfone>  (33) 
0

>  <fr_term_acetylene>  (33) 
0

>  <fr_tetrazole>  (33) 
0

>  <fr_thiazole>  (33) 
0

>  <fr_thiocyan>  (33) 
0

>  <fr_thiophene>  (33) 
0

>  <fr_unbrch_alkane>  (33) 
0

>  <fr_urea>  (33) 
0

>  <NP_Likeness>  (33) 
0.252365

$$$$
CHEMBL3545062
     RDKit          3D

  0  0  0  0  0  0  0  0  0  0999 V3000
M  V30 BEGIN CTAB
M  V30 COUNTS 119 127 0 0 0
M  V30 BEGIN ATOM
M  V30 1 C -2.933272 -6.585869 -7.058185 0
M  V30 2 O -2.041117 -5.695614 -7.628597 0
M  V30 3 C -1.745931 -4.674640 -6.715279 0
M  V30 4 C -0.774446 -3.736336 -7.375156 0 CFG=1
M  V30 5 C -0.426780 -2.633874 -6.432566 0
M  V30 6 C 1.076495 -2.454498 -6.559651 0 CFG=1
M  V30 7 C 1.729819 -2.627729 -5.224637 0
M  V30 8 N 1.012450 -2.426844 -4.101743 0
M  V30 9 C 1.756539 -2.584416 -2.993817 0
M  V30 10 C 1.170240 -2.393793 -1.670311 0
M  V30 11 C -0.186913 -2.088486 -1.549135 0
M  V30 12 C -0.622813 -1.793307 -0.244121 0
M  V30 13 C 0.243980 -1.809544 0.830983 0
M  V30 14 C 1.563051 -2.120945 0.650922 0
M  V30 15 C 2.066537 -2.425437 -0.621692 0
M  V30 16 C 2.496296 -2.147233 1.820111 0
M  V30 17 O 1.951464 -1.537755 2.956806 0
M  V30 18 C 0.625042 -1.222204 3.161266 0
M  V30 19 C 0.190384 -0.771320 4.410393 0
M  V30 20 C -1.146098 -0.467366 4.542377 0
M  V30 21 C -2.075036 -0.583556 3.527055 0
M  V30 22 C -3.411645 -0.239064 3.659388 0
M  V30 23 C -3.869466 0.257714 4.865592 0
M  V30 24 C -2.902276 0.367156 5.862171 0
M  V30 25 N -3.024507 0.877941 7.109154 0
M  V30 26 C -1.844397 0.865523 7.757308 0
M  V30 27 C -1.869189 1.492794 9.111095 0 CFG=2
M  V30 28 C -2.933457 0.931890 10.009889 0
M  V30 29 C -3.130911 2.079911 10.994996 0
M  V30 30 C -3.137223 3.296029 10.088582 0 CFG=2
M  V30 31 C -4.566692 3.667691 9.792945 0
M  V30 32 N -2.370292 2.887074 8.935254 0
M  V30 33 C -2.444823 4.054090 8.070466 0
M  V30 34 O -1.654228 3.384700 7.320918 0
M  V30 35 C -1.962664 4.627816 6.801684 0 CFG=1
M  V30 36 N -1.177116 3.745056 6.008701 0
M  V30 37 C 0.196909 4.035563 5.705801 0
M  V30 38 O 1.182323 4.761071 5.791460 0
M  V30 39 O 0.766413 3.060075 4.938827 0
M  V30 40 C 2.084805 3.052811 4.471297 0
M  V30 41 C -3.103732 5.187697 5.965463 0
M  V30 42 C -2.491525 5.711601 4.700269 0
M  V30 43 C -4.149723 4.169409 5.667034 0
M  V30 44 N -0.963431 0.335167 6.906897 0
M  V30 45 C -1.571675 0.027531 5.753119 0
M  V30 46 C -1.629171 -1.036917 2.274295 0
M  V30 47 C -0.295877 -1.340083 2.127505 0
M  V30 48 C 3.010577 -2.906049 -3.437327 0
M  V30 49 N 2.961899 -2.925432 -4.795653 0
M  V30 50 N 1.491082 -3.328970 -7.581193 0
M  V30 51 C 2.518620 -3.273626 -8.567781 0
M  V30 52 O 2.907290 -4.048221 -9.476342 0
M  V30 53 C 3.547036 -2.299659 -8.945613 0 CFG=2
M  V30 54 N 4.235240 -2.865591 -10.110254 0
M  V30 55 C 4.306828 -2.171355 -11.376845 0
M  V30 56 O 3.708411 -1.042938 -11.342939 0
M  V30 57 O 4.982408 -2.776655 -12.433965 0
M  V30 58 C 5.071547 -2.127437 -13.711250 0
M  V30 59 C 4.546912 -2.024163 -7.875295 0
M  V30 60 C 4.609874 -0.906296 -7.095199 0
M  V30 61 C 5.644415 -0.883129 -6.150524 0
M  V30 62 C 6.563619 -1.877624 -5.970369 0
M  V30 63 C 6.454882 -3.006093 -6.801212 0
M  V30 64 C 5.453359 -3.044096 -7.723418 0
M  V30 65 C 0.572388 -4.476241 -7.553868 0
M  V30 66 H -3.138638 -7.352707 -7.853712 0
M  V30 67 H -3.847462 -6.052742 -6.731771 0
M  V30 68 H -2.432771 -7.055648 -6.178031 0
M  V30 69 H -1.242434 -5.128847 -5.831028 0
M  V30 70 H -2.673481 -4.137114 -6.400197 0
M  V30 71 H -1.137814 -3.351592 -8.351041 0
M  V30 72 H -0.639118 -2.990326 -5.364275 0
M  V30 73 H -0.990853 -1.703282 -6.596177 0
M  V30 74 H 1.188273 -1.360519 -6.870485 0
M  V30 75 H -0.834103 -2.085683 -2.424667 0
M  V30 76 H -1.664732 -1.576483 -0.250157 0
M  V30 77 H 3.112181 -2.665021 -0.726902 0
M  V30 78 H 2.654197 -3.221563 2.078445 0
M  V30 79 H 3.508398 -1.753181 1.558838 0
M  V30 80 H 0.900551 -0.672465 5.234905 0
M  V30 81 H -4.121955 -0.353732 2.825912 0
M  V30 82 H -4.890897 0.548549 5.058039 0
M  V30 83 H -0.915975 1.488363 9.603788 0
M  V30 84 H -3.898230 0.749999 9.487906 0
M  V30 85 H -2.603159 0.065371 10.579612 0
M  V30 86 H -4.094910 2.028346 11.530173 0
M  V30 87 H -2.342005 2.159944 11.737964 0
M  V30 88 H -2.641920 4.166629 10.606819 0
M  V30 89 H -5.109737 3.881653 10.756406 0
M  V30 90 H -4.622952 4.583127 9.146219 0
M  V30 91 H -5.130529 2.875216 9.302233 0
M  V30 92 H -1.323754 5.560774 7.006848 0
M  V30 93 H -1.647387 2.897138 5.634177 0
M  V30 94 H 2.796128 3.691622 4.991632 0
M  V30 95 H 2.408744 1.967083 4.492828 0
M  V30 96 H 2.046498 3.391156 3.393481 0
M  V30 97 H -3.560164 6.047581 6.506288 0
M  V30 98 H -1.854842 6.596921 4.814824 0
M  V30 99 H -1.835016 4.920108 4.230758 0
M  V30 100 H -3.317993 5.893457 3.962979 0
M  V30 101 H -5.149277 4.627372 5.663771 0
M  V30 102 H -3.945447 3.694923 4.687143 0
M  V30 103 H -4.052382 3.378051 6.462321 0
M  V30 104 H 0.024254 0.225920 7.207715 0
M  V30 105 H -2.351626 -1.110970 1.521901 0
M  V30 106 H 3.812396 -3.086673 -2.751745 0
M  V30 107 H 3.752197 -3.144753 -5.411756 0
M  V30 108 H 3.130714 -1.332393 -9.250300 0
M  V30 109 H 4.709518 -3.806370 -10.090388 0
M  V30 110 H 4.655673 -1.125736 -13.733835 0
M  V30 111 H 4.508909 -2.824573 -14.403084 0
M  V30 112 H 6.133527 -2.184927 -14.031090 0
M  V30 113 H 3.876053 -0.153146 -7.264135 0
M  V30 114 H 5.674005 0.018243 -5.531754 0
M  V30 115 H 7.347662 -1.775604 -5.201756 0
M  V30 116 H 7.232218 -3.751133 -6.584026 0
M  V30 117 H 5.540151 -3.986386 -8.259433 0
M  V30 118 H 0.747517 -5.176389 -6.749416 0
M  V30 119 H 0.543966 -4.939339 -8.555190 0
M  V30 END ATOM
M  V30 BEGIN BOND
M  V30 1 1 1 2
M  V30 2 1 2 3
M  V30 3 1 3 4
M  V30 4 1 4 5
M  V30 5 1 5 6
M  V30 6 1 6 7
M  V30 7 2 7 8
M  V30 8 1 8 9
M  V30 9 1 9 10
M  V30 10 2 10 11
M  V30 11 1 11 12
M  V30 12 2 12 13
M  V30 13 1 13 14
M  V30 14 2 14 15
M  V30 15 1 14 16
M  V30 16 1 16 17
M  V30 17 1 17 18
M  V30 18 2 18 19
M  V30 19 1 19 20
M  V30 20 2 20 21
M  V30 21 1 21 22
M  V30 22 2 22 23
M  V30 23 1 23 24
M  V30 24 1 24 25
M  V30 25 2 25 26
M  V30 26 1 26 27
M  V30 27 1 27 28
M  V30 28 1 28 29
M  V30 29 1 29 30
M  V30 30 1 30 31
M  V30 31 1 30 32
M  V30 32 1 32 33
M  V30 33 2 33 34
M  V30 34 1 33 35
M  V30 35 1 35 36
M  V30 36 1 36 37
M  V30 37 2 37 38
M  V30 38 1 37 39
M  V30 39 1 39 40
M  V30 40 1 35 41
M  V30 41 1 41 42
M  V30 42 1 41 43
M  V30 43 1 26 44
M  V30 44 1 44 45
M  V30 45 1 21 46
M  V30 46 2 46 47
M  V30 47 2 9 48
M  V30 48 1 48 49
M  V30 49 1 6 50
M  V30 50 1 50 51
M  V30 51 2 51 52
M  V30 52 1 51 53
M  V30 53 1 53 54
M  V30 54 1 54 55
M  V30 55 2 55 56
M  V30 56 1 55 57
M  V30 57 1 57 58
M  V30 58 1 53 59
M  V30 59 2 59 60
M  V30 60 1 60 61
M  V30 61 2 61 62
M  V30 62 1 62 63
M  V30 63 2 63 64
M  V30 64 1 50 65
M  V30 65 1 65 4
M  V30 66 1 49 7
M  V30 67 1 64 59
M  V30 68 1 15 10
M  V30 69 1 47 18
M  V30 70 1 47 13
M  V30 71 1 45 20
M  V30 72 2 45 24
M  V30 73 1 32 27
M  V30 74 1 1 66
M  V30 75 1 1 67
M  V30 76 1 1 68
M  V30 77 1 3 69
M  V30 78 1 3 70
M  V30 79 1 4 71 CFG=3
M  V30 80 1 5 72
M  V30 81 1 5 73
M  V30 82 1 6 74 CFG=3
M  V30 83 1 11 75
M  V30 84 1 12 76
M  V30 85 1 15 77
M  V30 86 1 16 78
M  V30 87 1 16 79
M  V30 88 1 19 80
M  V30 89 1 22 81
M  V30 90 1 23 82
M  V30 91 1 27 83 CFG=1
M  V30 92 1 28 84
M  V30 93 1 28 85
M  V30 94 1 29 86
M  V30 95 1 29 87
M  V30 96 1 30 88 CFG=1
M  V30 97 1 31 89
M  V30 98 1 31 90
M  V30 99 1 31 91
M  V30 100 1 35 92 CFG=1
M  V30 101 1 36 93
M  V30 102 1 40 94
M  V30 103 1 40 95
M  V30 104 1 40 96
M  V30 105 1 41 97
M  V30 106 1 42 98
M  V30 107 1 42 99
M  V30 108 1 42 100
M  V30 109 1 43 101
M  V30 110 1 43 102
M  V30 111 1 43 103
M  V30 112 1 44 104
M  V30 113 1 46 105
M  V30 114 1 48 106
M  V30 115 1 49 107
M  V30 116 1 53 108 CFG=3
M  V30 117 1 54 109
M  V30 118 1 58 110
M  V30 119 1 58 111
M  V30 120 1 58 112
M  V30 121 1 60 113
M  V30 122 1 61 114
M  V30 123 1 62 115
M  V30 124 1 63 116
M  V30 125 1 64 117
M  V30 126 1 65 118
M  V30 127 1 65 119
M  V30 END BOND
M  V30 END CTAB
M  END
>  <Dataset>  (34) 
OralDrugs

>  <Ligand_Instance>  (34) 
nan

>  <PDB_ID>  (34) 
nan

>  <Standardized_SMILES>  (34) 
COC[C@H]1C[C@@H](c2nc(-c3ccc4c(c3)COc3cc5c(ccc6nc([C@@H]7CC[C@H](C)N7C(=O)[C@@H](NC(=O)OC)C(C)C)[nH]c65)cc3-4)c[nH]2)N(C(=O)[C@H](NC(=O)OC)c2ccccc2)C1

>  <Name>  (34) 
Velpatasvir

>  <Pocket>  (34) 
nan

>  <ATP_Site>  (34) 
nan

>  <Peripheral>  (34) 
nan

>  <Num_H_Atoms_ProtBoundConf>  (34) 
nan

>  <Num_Resolved_Atoms>  (34) 
nan

>  <Num_Not_Resolved_Atoms>  (34) 
nan

>  <2D_Mol_H>  (34) 
<rdkit.Chem.rdchem.Mol object at 0x72a238bbc270>

>  <MW>  (34) 
883.019

>  <HBA>  (34) 
10

>  <HBD>  (34) 
4

>  <LogP>  (34) 
7.7315

>  <NRB>  (34) 
17

>  <TPSA>  (34) 
193.1

>  <Num_Heavy_Atoms>  (34) 
65

>  <Ro5>  (34) 
[False, True, True, False, False, False]

>  <Ro5_Fulfilled>  (34) 
False

>  <Ro3>  (34) 
[False, False, False, False]

>  <Ro3_Fulfilled>  (34) 
False

>  <Fsp3>  (34) 
0.387755

>  <Fsp3_0.42>  (34) 
False

>  <Fsp3_0.45>  (34) 
False

>  <Stereogenic_Carbons>  (34) 
6

>  <C_Atoms>  (34) 
49

>  <FCStereo>  (34) 
0.122449

>  <SPS>  (34) 
1299

>  <nSPS>  (34) 
19.984615

>  <PBF>  (34) 
1.459437

>  <PBF_0.6>  (34) 
True

>  <nPBF>  (34) 
0.022453

>  <nPBF_0.016>  (34) 
True

>  <PMI1>  (34) 
6203.06095

>  <PMI2>  (34) 
53832.016175

>  <PMI3>  (34) 
55903.439438

>  <NPR1>  (34) 
0.11096

>  <NPR2>  (34) 
0.962946

>  <Sum_NPR>  (34) 
1.073907

>  <Sum_NPR_1.07>  (34) 
True

>  <Sum_NPR_1.2>  (34) 
False

>  <MaxAbsEStateIndex>  (34) 
14.316982

>  <MaxEStateIndex>  (34) 
14.316982

>  <MinAbsEStateIndex>  (34) 
0.034387

>  <MinEStateIndex>  (34) 
-0.947748

>  <qed>  (34) 
0.100106

>  <MolWt>  (34) 
883.019

>  <HeavyAtomMolWt>  (34) 
828.587

>  <ExactMolWt>  (34) 
882.406461

>  <NumValenceElectrons>  (34) 
338

>  <NumRadicalElectrons>  (34) 
0

>  <MaxPartialCharge>  (34) 
0.407276

>  <MinPartialCharge>  (34) 
-0.488214

>  <MaxAbsPartialCharge>  (34) 
0.488214

>  <MinAbsPartialCharge>  (34) 
0.407276

>  <FpDensityMorgan1>  (34) 
0.861538

>  <FpDensityMorgan2>  (34) 
1.646154

>  <FpDensityMorgan3>  (34) 
2.4

>  <BCUT2D_MWHI>  (34) 
16.542528

>  <BCUT2D_MWLOW>  (34) 
9.922607

>  <BCUT2D_CHGHI>  (34) 
2.427115

>  <BCUT2D_CHGLO>  (34) 
-2.324533

>  <BCUT2D_LOGPHI>  (34) 
2.441212

>  <BCUT2D_LOGPLOW>  (34) 
-2.522166

>  <BCUT2D_MRHI>  (34) 
6.067478

>  <BCUT2D_MRLOW>  (34) 
-0.137169

>  <AvgIpc>  (34) 
4.14727

>  <BalabanJ>  (34) 
0.974346

>  <BertzCT>  (34) 
2768.771045

>  <Chi0>  (34) 
45.517204

>  <Chi0n>  (34) 
37.344487

>  <Chi0v>  (34) 
37.344487

>  <Chi1>  (34) 
31.451462

>  <Chi1n>  (34) 
22.094034

>  <Chi1v>  (34) 
22.094034

>  <Chi2n>  (34) 
17.571163

>  <Chi2v>  (34) 
17.571163

>  <Chi3n>  (34) 
13.110316

>  <Chi3v>  (34) 
13.110316

>  <Chi4n>  (34) 
9.826614

>  <Chi4v>  (34) 
9.826614

>  <HallKierAlpha>  (34) 
-6.94

>  <Ipc>  (34) 
506407269690755.125

>  <Kappa1>  (34) 
43.317504

>  <Kappa2>  (34) 
17.910881

>  <Kappa3>  (34) 
8.220701

>  <LabuteASA>  (34) 
375.919468

>  <PEOE_VSA1>  (34) 
49.348806

>  <PEOE_VSA10>  (34) 
36.088884

>  <PEOE_VSA11>  (34) 
0.0

>  <PEOE_VSA12>  (34) 
5.90718

>  <PEOE_VSA13>  (34) 
5.90718

>  <PEOE_VSA14>  (34) 
12.18648

>  <PEOE_VSA2>  (34) 
9.589074

>  <PEOE_VSA3>  (34) 
19.557031

>  <PEOE_VSA4>  (34) 
0.0

>  <PEOE_VSA5>  (34) 
0.0

>  <PEOE_VSA6>  (34) 
62.378411

>  <PEOE_VSA7>  (34) 
78.446155

>  <PEOE_VSA8>  (34) 
48.324272

>  <PEOE_VSA9>  (34) 
49.637488

>  <SMR_VSA1>  (34) 
38.125601

>  <SMR_VSA10>  (34) 
45.806689

>  <SMR_VSA2>  (34) 
0.0

>  <SMR_VSA3>  (34) 
40.369311

>  <SMR_VSA4>  (34) 
11.835812

>  <SMR_VSA5>  (34) 
76.849763

>  <SMR_VSA6>  (34) 
34.481031

>  <SMR_VSA7>  (34) 
101.76896

>  <SMR_VSA8>  (34) 
0.0

>  <SMR_VSA9>  (34) 
28.133794

>  <SlogP_VSA1>  (34) 
15.37044

>  <SlogP_VSA10>  (34) 
9.589074

>  <SlogP_VSA11>  (34) 
5.749512

>  <SlogP_VSA12>  (34) 
0.0

>  <SlogP_VSA2>  (34) 
100.301286

>  <SlogP_VSA3>  (34) 
30.406545

>  <SlogP_VSA4>  (34) 
11.835812

>  <SlogP_VSA5>  (34) 
80.934911

>  <SlogP_VSA6>  (34) 
78.993248

>  <SlogP_VSA7>  (34) 
0.0

>  <SlogP_VSA8>  (34) 
44.190132

>  <SlogP_VSA9>  (34) 
0.0

>  <EState_VSA1>  (34) 
24.270162

>  <EState_VSA10>  (34) 
19.178149

>  <EState_VSA11>  (34) 
0.0

>  <EState_VSA2>  (34) 
41.775694

>  <EState_VSA3>  (34) 
43.391602

>  <EState_VSA4>  (34) 
68.344739

>  <EState_VSA5>  (34) 
14.219595

>  <EState_VSA6>  (34) 
12.009707

>  <EState_VSA7>  (34) 
68.266167

>  <EState_VSA8>  (34) 
56.999737

>  <EState_VSA9>  (34) 
28.915409

>  <VSA_EState1>  (34) 
21.692835

>  <VSA_EState10>  (34) 
0.0

>  <VSA_EState2>  (34) 
73.56666

>  <VSA_EState3>  (34) 
7.448603

>  <VSA_EState4>  (34) 
6.995496

>  <VSA_EState5>  (34) 
1.618598

>  <VSA_EState6>  (34) 
21.300579

>  <VSA_EState7>  (34) 
2.712437

>  <VSA_EState8>  (34) 
7.112378

>  <VSA_EState9>  (34) 
4.219081

>  <FractionCSP3>  (34) 
0.387755

>  <HeavyAtomCount>  (34) 
65

>  <NHOHCount>  (34) 
4

>  <NOCount>  (34) 
16

>  <NumAliphaticCarbocycles>  (34) 
0

>  <NumAliphaticHeterocycles>  (34) 
3

>  <NumAliphaticRings>  (34) 
3

>  <NumAromaticCarbocycles>  (34) 
4

>  <NumAromaticHeterocycles>  (34) 
2

>  <NumAromaticRings>  (34) 
6

>  <NumHAcceptors>  (34) 
10

>  <NumHDonors>  (34) 
4

>  <NumHeteroatoms>  (34) 
16

>  <NumRotatableBonds>  (34) 
11

>  <NumSaturatedCarbocycles>  (34) 
0

>  <NumSaturatedHeterocycles>  (34) 
2

>  <NumSaturatedRings>  (34) 
2

>  <RingCount>  (34) 
9

>  <MolLogP>  (34) 
7.7315

>  <MolMR>  (34) 
242.5598

>  <fr_Al_COO>  (34) 
0

>  <fr_Al_OH>  (34) 
0

>  <fr_Al_OH_noTert>  (34) 
0

>  <fr_ArN>  (34) 
0

>  <fr_Ar_COO>  (34) 
0

>  <fr_Ar_N>  (34) 
4

>  <fr_Ar_NH>  (34) 
2

>  <fr_Ar_OH>  (34) 
0

>  <fr_COO>  (34) 
0

>  <fr_COO2>  (34) 
0

>  <fr_C_O>  (34) 
4

>  <fr_C_O_noCOO>  (34) 
4

>  <fr_C_S>  (34) 
0

>  <fr_HOCCN>  (34) 
0

>  <fr_Imine>  (34) 
0

>  <fr_NH0>  (34) 
4

>  <fr_NH1>  (34) 
4

>  <fr_NH2>  (34) 
0

>  <fr_N_O>  (34) 
0

>  <fr_Ndealkylation1>  (34) 
0

>  <fr_Ndealkylation2>  (34) 
2

>  <fr_Nhpyrrole>  (34) 
2

>  <fr_SH>  (34) 
0

>  <fr_aldehyde>  (34) 
0

>  <fr_alkyl_carbamate>  (34) 
2

>  <fr_alkyl_halide>  (34) 
0

>  <fr_allylic_oxid>  (34) 
0

>  <fr_amide>  (34) 
4

>  <fr_amidine>  (34) 
0

>  <fr_aniline>  (34) 
0

>  <fr_aryl_methyl>  (34) 
0

>  <fr_azide>  (34) 
0

>  <fr_azo>  (34) 
0

>  <fr_barbitur>  (34) 
0

>  <fr_benzene>  (34) 
4

>  <fr_benzodiazepine>  (34) 
0

>  <fr_bicyclic>  (34) 
6

>  <fr_diazo>  (34) 
0

>  <fr_dihydropyridine>  (34) 
0

>  <fr_epoxide>  (34) 
0

>  <fr_ester>  (34) 
0

>  <fr_ether>  (34) 
4

>  <fr_furan>  (34) 
0

>  <fr_guanido>  (34) 
0

>  <fr_halogen>  (34) 
0

>  <fr_hdrzine>  (34) 
0

>  <fr_hdrzone>  (34) 
0

>  <fr_imidazole>  (34) 
2

>  <fr_imide>  (34) 
0

>  <fr_isocyan>  (34) 
0

>  <fr_isothiocyan>  (34) 
0

>  <fr_ketone>  (34) 
0

>  <fr_ketone_Topliss>  (34) 
0

>  <fr_lactam>  (34) 
0

>  <fr_lactone>  (34) 
0

>  <fr_methoxy>  (34) 
3

>  <fr_morpholine>  (34) 
0

>  <fr_nitrile>  (34) 
0

>  <fr_nitro>  (34) 
0

>  <fr_nitro_arom>  (34) 
0

>  <fr_nitro_arom_nonortho>  (34) 
0

>  <fr_nitroso>  (34) 
0

>  <fr_oxazole>  (34) 
0

>  <fr_oxime>  (34) 
0

>  <fr_para_hydroxylation>  (34) 
0

>  <fr_phenol>  (34) 
0

>  <fr_phenol_noOrthoHbond>  (34) 
0

>  <fr_phos_acid>  (34) 
0

>  <fr_phos_ester>  (34) 
0

>  <fr_piperdine>  (34) 
0

>  <fr_piperzine>  (34) 
0

>  <fr_priamide>  (34) 
0

>  <fr_prisulfonamd>  (34) 
0

>  <fr_pyridine>  (34) 
0

>  <fr_quatN>  (34) 
0

>  <fr_sulfide>  (34) 
0

>  <fr_sulfonamd>  (34) 
0

>  <fr_sulfone>  (34) 
0

>  <fr_term_acetylene>  (34) 
0

>  <fr_tetrazole>  (34) 
0

>  <fr_thiazole>  (34) 
0

>  <fr_thiocyan>  (34) 
0

>  <fr_thiophene>  (34) 
0

>  <fr_unbrch_alkane>  (34) 
0

>  <fr_urea>  (34) 
0

>  <NP_Likeness>  (34) 
-0.268081

$$$$
CHEMBL1229517
     RDKit          3D

  0  0  0  0  0  0  0  0  0  0999 V3000
M  V30 BEGIN CTAB
M  V30 COUNTS 51 54 0 0 0
M  V30 BEGIN ATOM
M  V30 1 C 2.918687 -2.399836 3.539877 0
M  V30 2 C 3.136319 -2.189833 2.065724 0
M  V30 3 C 4.207355 -1.125120 1.870114 0
M  V30 4 S 4.474671 -0.861046 0.111814 0
M  V30 5 O 5.563045 0.167439 -0.032441 0
M  V30 6 O 4.951342 -2.143308 -0.498111 0
M  V30 7 N 3.002879 -0.338075 -0.620573 0
M  V30 8 C 2.346867 0.855013 -0.265119 0
M  V30 9 C 2.970295 1.820108 0.507476 0
M  V30 10 C 2.288303 2.974986 0.824766 0
M  V30 11 C 0.996371 3.191333 0.389636 0
M  V30 12 F 0.435647 4.383867 0.777995 0
M  V30 13 C 0.343752 2.254137 -0.380217 0
M  V30 14 C -0.990280 2.568008 -0.800944 0
M  V30 15 O -1.395418 3.766373 -0.603135 0
M  V30 16 C -2.060310 1.843611 -1.426866 0
M  V30 17 C -2.825157 2.187500 -2.540869 0
M  V30 18 N -3.703010 1.201652 -2.792128 0
M  V30 19 C -3.570828 0.204765 -1.901100 0
M  V30 20 N -4.249192 -0.951731 -1.789798 0
M  V30 21 C -3.966122 -1.841589 -0.795853 0
M  V30 22 C -2.958757 -1.512681 0.091579 0
M  V30 23 C -2.632765 -2.444056 1.169047 0
M  V30 24 C -3.699443 -3.195029 1.660190 0
M  V30 25 C -3.435172 -4.087991 2.679789 0
M  V30 26 C -2.178278 -4.266728 3.226071 0
M  V30 27 Cl -1.847670 -5.399276 4.518406 0
M  V30 28 C -1.113376 -3.509908 2.728178 0
M  V30 29 C -1.368761 -2.608002 1.701615 0
M  V30 30 C -2.280839 -0.319673 -0.048375 0
M  V30 31 C -2.556042 0.591088 -1.049978 0
M  V30 32 C 1.059229 1.124289 -0.670996 0
M  V30 33 F 0.481557 0.183190 -1.434803 0
M  V30 34 H 2.436790 -3.350908 3.790738 0
M  V30 35 H 3.893106 -2.248367 4.048299 0
M  V30 36 H 2.242739 -1.594604 3.905448 0
M  V30 37 H 2.231260 -1.872187 1.520658 0
M  V30 38 H 3.511841 -3.128532 1.580842 0
M  V30 39 H 5.151870 -1.407681 2.360503 0
M  V30 40 H 3.856456 -0.186180 2.317790 0
M  V30 41 H 2.584518 -0.929135 -1.354409 0
M  V30 42 H 3.980316 1.704971 0.873099 0
M  V30 43 H 2.803155 3.719314 1.434355 0
M  V30 44 H -2.730322 3.101189 -3.114858 0
M  V30 45 H -4.397363 1.210831 -3.578752 0
M  V30 46 H -4.525451 -2.768555 -0.722995 0
M  V30 47 H -4.734950 -3.135133 1.303119 0
M  V30 48 H -4.249946 -4.697996 3.092919 0
M  V30 49 H -0.103905 -3.602421 3.113076 0
M  V30 50 H -0.560357 -2.008881 1.296883 0
M  V30 51 H -1.486955 -0.055910 0.646975 0
M  V30 END ATOM
M  V30 BEGIN BOND
M  V30 1 1 1 2
M  V30 2 1 2 3
M  V30 3 1 3 4
M  V30 4 2 4 5
M  V30 5 2 4 6
M  V30 6 1 4 7
M  V30 7 1 7 8
M  V30 8 2 8 9
M  V30 9 1 9 10
M  V30 10 2 10 11
M  V30 11 1 11 12
M  V30 12 1 11 13
M  V30 13 1 13 14
M  V30 14 2 14 15
M  V30 15 1 14 16
M  V30 16 2 16 17
M  V30 17 1 17 18
M  V30 18 1 18 19
M  V30 19 2 19 20
M  V30 20 1 20 21
M  V30 21 2 21 22
M  V30 22 1 22 23
M  V30 23 2 23 24
M  V30 24 1 24 25
M  V30 25 2 25 26
M  V30 26 1 26 27
M  V30 27 1 26 28
M  V30 28 2 28 29
M  V30 29 1 22 30
M  V30 30 2 30 31
M  V30 31 2 13 32
M  V30 32 1 32 33
M  V30 33 1 32 8
M  V30 34 1 31 16
M  V30 35 1 31 19
M  V30 36 1 29 23
M  V30 37 1 1 34
M  V30 38 1 1 35
M  V30 39 1 1 36
M  V30 40 1 2 37
M  V30 41 1 2 38
M  V30 42 1 3 39
M  V30 43 1 3 40
M  V30 44 1 7 41
M  V30 45 1 9 42
M  V30 46 1 10 43
M  V30 47 1 17 44
M  V30 48 1 18 45
M  V30 49 1 21 46
M  V30 50 1 24 47
M  V30 51 1 25 48
M  V30 52 1 28 49
M  V30 53 1 29 50
M  V30 54 1 30 51
M  V30 END BOND
M  V30 END CTAB
M  END
>  <Dataset>  (35) 
OralDrugs

>  <Ligand_Instance>  (35) 
nan

>  <PDB_ID>  (35) 
nan

>  <Standardized_SMILES>  (35) 
CCCS(=O)(=O)Nc1ccc(F)c(C(=O)c2c[nH]c3ncc(-c4ccc(Cl)cc4)cc23)c1F

>  <Name>  (35) 
Vemurafenib

>  <Pocket>  (35) 
nan

>  <ATP_Site>  (35) 
nan

>  <Peripheral>  (35) 
nan

>  <Num_H_Atoms_ProtBoundConf>  (35) 
nan

>  <Num_Resolved_Atoms>  (35) 
nan

>  <Num_Not_Resolved_Atoms>  (35) 
nan

>  <2D_Mol_H>  (35) 
<rdkit.Chem.rdchem.Mol object at 0x72a238bbc350>

>  <MW>  (35) 
489.931

>  <HBA>  (35) 
4

>  <HBD>  (35) 
2

>  <LogP>  (35) 
5.5442

>  <NRB>  (35) 
8

>  <TPSA>  (35) 
91.92

>  <Num_Heavy_Atoms>  (35) 
33

>  <Ro5>  (35) 
[True, True, True, False, True, True]

>  <Ro5_Fulfilled>  (35) 
True

>  <Ro3>  (35) 
[False, False, True, False]

>  <Ro3_Fulfilled>  (35) 
False

>  <Fsp3>  (35) 
0.130435

>  <Fsp3_0.42>  (35) 
False

>  <Fsp3_0.45>  (35) 
False

>  <Stereogenic_Carbons>  (35) 
0

>  <C_Atoms>  (35) 
23

>  <FCStereo>  (35) 
0.0

>  <SPS>  (35) 
384

>  <nSPS>  (35) 
11.636364

>  <PBF>  (35) 
0.871509

>  <PBF_0.6>  (35) 
True

>  <nPBF>  (35) 
0.026409

>  <nPBF_0.016>  (35) 
True

>  <PMI1>  (35) 
4713.910254

>  <PMI2>  (35) 
5468.942181

>  <PMI3>  (35) 
8836.932474

>  <NPR1>  (35) 
0.533433

>  <NPR2>  (35) 
0.618873

>  <Sum_NPR>  (35) 
1.152306

>  <Sum_NPR_1.07>  (35) 
True

>  <Sum_NPR_1.2>  (35) 
False

>  <MaxAbsEStateIndex>  (35) 
15.102389

>  <MaxEStateIndex>  (35) 
15.102389

>  <MinAbsEStateIndex>  (35) 
0.000297

>  <MinEStateIndex>  (35) 
-3.839656

>  <qed>  (35) 
0.333091

>  <MolWt>  (35) 
489.931

>  <HeavyAtomMolWt>  (35) 
471.787

>  <ExactMolWt>  (35) 
489.072547

>  <NumValenceElectrons>  (35) 
170

>  <NumRadicalElectrons>  (35) 
0

>  <MaxPartialCharge>  (35) 
0.232305

>  <MinPartialCharge>  (35) 
-0.34539

>  <MaxAbsPartialCharge>  (35) 
0.34539

>  <MinAbsPartialCharge>  (35) 
0.232305

>  <FpDensityMorgan1>  (35) 
1.121212

>  <FpDensityMorgan2>  (35) 
1.848485

>  <FpDensityMorgan3>  (35) 
2.545455

>  <BCUT2D_MWHI>  (35) 
35.495692

>  <BCUT2D_MWLOW>  (35) 
9.996136

>  <BCUT2D_CHGHI>  (35) 
2.255728

>  <BCUT2D_CHGLO>  (35) 
-2.111987

>  <BCUT2D_LOGPHI>  (35) 
2.296668

>  <BCUT2D_LOGPLOW>  (35) 
-2.183168

>  <BCUT2D_MRHI>  (35) 
7.922065

>  <BCUT2D_MRLOW>  (35) 
0.102793

>  <AvgIpc>  (35) 
3.192655

>  <BalabanJ>  (35) 
1.77794

>  <BertzCT>  (35) 
1468.590752

>  <Chi0>  (35) 
23.750348

>  <Chi0n>  (35) 
17.324466

>  <Chi0v>  (35) 
18.896892

>  <Chi1>  (35) 
15.697509

>  <Chi1n>  (35) 
9.961542

>  <Chi1v>  (35) 
11.991772

>  <Chi2n>  (35) 
7.36339

>  <Chi2v>  (35) 
9.641694

>  <Chi3n>  (35) 
5.00976

>  <Chi3v>  (35) 
6.73836

>  <Chi4n>  (35) 
3.452862

>  <Chi4v>  (35) 
4.711079

>  <HallKierAlpha>  (35) 
-3.3

>  <Ipc>  (35) 
25694615.183989

>  <Kappa1>  (35) 
22.878352

>  <Kappa2>  (35) 
8.91515

>  <Kappa3>  (35) 
4.598887

>  <LabuteASA>  (35) 
193.22233

>  <PEOE_VSA1>  (35) 
4.983979

>  <PEOE_VSA10>  (35) 
11.464398

>  <PEOE_VSA11>  (35) 
5.817221

>  <PEOE_VSA12>  (35) 
15.806536

>  <PEOE_VSA13>  (35) 
0.0

>  <PEOE_VSA14>  (35) 
0.0

>  <PEOE_VSA2>  (35) 
9.516632

>  <PEOE_VSA3>  (35) 
22.182606

>  <PEOE_VSA4>  (35) 
0.0

>  <PEOE_VSA5>  (35) 
0.0

>  <PEOE_VSA6>  (35) 
30.657411

>  <PEOE_VSA7>  (35) 
42.316108

>  <PEOE_VSA8>  (35) 
33.929448

>  <PEOE_VSA9>  (35) 
17.003691

>  <SMR_VSA1>  (35) 
21.993164

>  <SMR_VSA10>  (35) 
44.128264

>  <SMR_VSA2>  (35) 
0.0

>  <SMR_VSA3>  (35) 
9.967957

>  <SMR_VSA4>  (35) 
0.0

>  <SMR_VSA5>  (35) 
13.344559

>  <SMR_VSA6>  (35) 
10.474948

>  <SMR_VSA7>  (35) 
82.642235

>  <SMR_VSA8>  (35) 
0.0

>  <SMR_VSA9>  (35) 
11.126903

>  <SlogP_VSA1>  (35) 
4.722095

>  <SlogP_VSA10>  (35) 
14.468216

>  <SlogP_VSA11>  (35) 
0.0

>  <SlogP_VSA12>  (35) 
11.60094

>  <SlogP_VSA2>  (35) 
29.921853

>  <SlogP_VSA3>  (35) 
10.023291

>  <SlogP_VSA4>  (35) 
11.634442

>  <SlogP_VSA5>  (35) 
29.265999

>  <SlogP_VSA6>  (35) 
54.858257

>  <SlogP_VSA7>  (35) 
5.022633

>  <SlogP_VSA8>  (35) 
22.160304

>  <SlogP_VSA9>  (35) 
0.0

>  <EState_VSA1>  (35) 
38.691816

>  <EState_VSA10>  (35) 
17.602749

>  <EState_VSA11>  (35) 
4.390415

>  <EState_VSA2>  (35) 
11.316305

>  <EState_VSA3>  (35) 
28.040308

>  <EState_VSA4>  (35) 
17.696186

>  <EState_VSA5>  (35) 
6.196844

>  <EState_VSA6>  (35) 
43.452416

>  <EState_VSA7>  (35) 
0.0

>  <EState_VSA8>  (35) 
14.690052

>  <EState_VSA9>  (35) 
11.60094

>  <VSA_EState1>  (35) 
55.810823

>  <VSA_EState10>  (35) 
5.932253

>  <VSA_EState2>  (35) 
20.29042

>  <VSA_EState3>  (35) 
0.924915

>  <VSA_EState4>  (35) 
0.47389

>  <VSA_EState5>  (35) 
-3.56935

>  <VSA_EState6>  (35) 
10.462962

>  <VSA_EState7>  (35) 
3.223515

>  <VSA_EState8>  (35) 
1.651339

>  <VSA_EState9>  (35) 
-3.839656

>  <FractionCSP3>  (35) 
0.130435

>  <HeavyAtomCount>  (35) 
33

>  <NHOHCount>  (35) 
2

>  <NOCount>  (35) 
6

>  <NumAliphaticCarbocycles>  (35) 
0

>  <NumAliphaticHeterocycles>  (35) 
0

>  <NumAliphaticRings>  (35) 
0

>  <NumAromaticCarbocycles>  (35) 
2

>  <NumAromaticHeterocycles>  (35) 
2

>  <NumAromaticRings>  (35) 
4

>  <NumHAcceptors>  (35) 
4

>  <NumHDonors>  (35) 
2

>  <NumHeteroatoms>  (35) 
10

>  <NumRotatableBonds>  (35) 
7

>  <NumSaturatedCarbocycles>  (35) 
0

>  <NumSaturatedHeterocycles>  (35) 
0

>  <NumSaturatedRings>  (35) 
0

>  <RingCount>  (35) 
4

>  <MolLogP>  (35) 
5.5442

>  <MolMR>  (35) 
124.0307

>  <fr_Al_COO>  (35) 
0

>  <fr_Al_OH>  (35) 
0

>  <fr_Al_OH_noTert>  (35) 
0

>  <fr_ArN>  (35) 
0

>  <fr_Ar_COO>  (35) 
0

>  <fr_Ar_N>  (35) 
2

>  <fr_Ar_NH>  (35) 
1

>  <fr_Ar_OH>  (35) 
0

>  <fr_COO>  (35) 
0

>  <fr_COO2>  (35) 
0

>  <fr_C_O>  (35) 
1

>  <fr_C_O_noCOO>  (35) 
1

>  <fr_C_S>  (35) 
0

>  <fr_HOCCN>  (35) 
0

>  <fr_Imine>  (35) 
0

>  <fr_NH0>  (35) 
1

>  <fr_NH1>  (35) 
2

>  <fr_NH2>  (35) 
0

>  <fr_N_O>  (35) 
0

>  <fr_Ndealkylation1>  (35) 
0

>  <fr_Ndealkylation2>  (35) 
0

>  <fr_Nhpyrrole>  (35) 
1

>  <fr_SH>  (35) 
0

>  <fr_aldehyde>  (35) 
0

>  <fr_alkyl_carbamate>  (35) 
0

>  <fr_alkyl_halide>  (35) 
0

>  <fr_allylic_oxid>  (35) 
0

>  <fr_amide>  (35) 
0

>  <fr_amidine>  (35) 
0

>  <fr_aniline>  (35) 
1

>  <fr_aryl_methyl>  (35) 
0

>  <fr_azide>  (35) 
0

>  <fr_azo>  (35) 
0

>  <fr_barbitur>  (35) 
0

>  <fr_benzene>  (35) 
2

>  <fr_benzodiazepine>  (35) 
0

>  <fr_bicyclic>  (35) 
1

>  <fr_diazo>  (35) 
0

>  <fr_dihydropyridine>  (35) 
0

>  <fr_epoxide>  (35) 
0

>  <fr_ester>  (35) 
0

>  <fr_ether>  (35) 
0

>  <fr_furan>  (35) 
0

>  <fr_guanido>  (35) 
0

>  <fr_halogen>  (35) 
3

>  <fr_hdrzine>  (35) 
0

>  <fr_hdrzone>  (35) 
0

>  <fr_imidazole>  (35) 
0

>  <fr_imide>  (35) 
0

>  <fr_isocyan>  (35) 
0

>  <fr_isothiocyan>  (35) 
0

>  <fr_ketone>  (35) 
1

>  <fr_ketone_Topliss>  (35) 
0

>  <fr_lactam>  (35) 
0

>  <fr_lactone>  (35) 
0

>  <fr_methoxy>  (35) 
0

>  <fr_morpholine>  (35) 
0

>  <fr_nitrile>  (35) 
0

>  <fr_nitro>  (35) 
0

>  <fr_nitro_arom>  (35) 
0

>  <fr_nitro_arom_nonortho>  (35) 
0

>  <fr_nitroso>  (35) 
0

>  <fr_oxazole>  (35) 
0

>  <fr_oxime>  (35) 
0

>  <fr_para_hydroxylation>  (35) 
0

>  <fr_phenol>  (35) 
0

>  <fr_phenol_noOrthoHbond>  (35) 
0

>  <fr_phos_acid>  (35) 
0

>  <fr_phos_ester>  (35) 
0

>  <fr_piperdine>  (35) 
0

>  <fr_piperzine>  (35) 
0

>  <fr_priamide>  (35) 
0

>  <fr_prisulfonamd>  (35) 
0

>  <fr_pyridine>  (35) 
1

>  <fr_quatN>  (35) 
0

>  <fr_sulfide>  (35) 
0

>  <fr_sulfonamd>  (35) 
1

>  <fr_sulfone>  (35) 
0

>  <fr_term_acetylene>  (35) 
0

>  <fr_tetrazole>  (35) 
0

>  <fr_thiazole>  (35) 
0

>  <fr_thiocyan>  (35) 
0

>  <fr_thiophene>  (35) 
0

>  <fr_unbrch_alkane>  (35) 
0

>  <fr_urea>  (35) 
0

>  <NP_Likeness>  (35) 
-1.377373

$$$$
CHEMBL3137309
     RDKit          3D

  0  0  0  0  0  0  0  0  0  0999 V3000
M  V30 BEGIN CTAB
M  V30 COUNTS 111 118 0 0 0
M  V30 BEGIN ATOM
M  V30 1 C -1.398980 4.591582 4.000895 0
M  V30 2 C -0.280580 4.953863 3.036790 0
M  V30 3 C -0.049073 6.431874 3.156323 0
M  V30 4 C 0.920756 4.141583 3.392300 0
M  V30 5 C 1.829542 3.816530 2.233198 0
M  V30 6 C 1.569658 4.624530 1.009479 0
M  V30 7 C 2.689160 4.960667 0.108624 0
M  V30 8 N 3.439988 3.922039 -0.452588 0
M  V30 9 C 4.287776 3.070518 0.204752 0
M  V30 10 C 4.576142 1.887049 -0.755229 0
M  V30 11 N 3.236199 1.385087 -1.099394 0
M  V30 12 C 2.584987 0.240904 -0.565170 0
M  V30 13 C 1.397369 -0.206364 -1.094268 0
M  V30 14 C 0.755005 -1.298326 -0.569806 0
M  V30 15 C 1.251962 -2.003527 0.502977 0
M  V30 16 C 0.394769 -3.034140 1.016289 0
M  V30 17 O -0.633544 -3.391652 0.389976 0
M  V30 18 N 0.403270 -3.845727 2.162051 0
M  V30 19 S -0.668022 -5.064115 2.658464 0
M  V30 20 O -1.238385 -4.689858 4.004808 0
M  V30 21 O 0.081234 -6.350504 2.867708 0
M  V30 22 C -1.934801 -5.266906 1.472859 0
M  V30 23 C -3.055223 -4.472295 1.517982 0
M  V30 24 C -4.042543 -4.668236 0.578503 0
M  V30 25 C -4.010995 -5.607303 -0.425011 0
M  V30 26 N -5.038613 -5.805275 -1.358229 0
M  V30 27 C -6.290366 -5.102988 -1.533963 0
M  V30 28 C -6.064425 -3.717123 -2.063368 0
M  V30 29 C -7.399250 -2.992050 -2.236580 0
M  V30 30 C -7.227235 -1.962066 -3.326368 0
M  V30 31 O -5.894181 -1.558831 -3.431923 0
M  V30 32 C -5.245924 -2.565005 -4.147068 0
M  V30 33 C -5.480561 -3.870225 -3.457693 0
M  V30 34 C -2.875263 -6.378023 -0.433245 0
M  V30 35 N -2.638985 -7.405718 -1.377658 0 CHG=1 VAL=4
M  V30 36 O -3.275609 -8.237885 -2.045233 0
M  V30 37 O -1.366665 -7.736715 -1.816458 0 CHG=-1 VAL=1
M  V30 38 C -1.863806 -6.219546 0.483232 0
M  V30 39 C 2.432164 -1.540629 1.003709 0
M  V30 40 O 3.093810 -2.118220 2.068268 0
M  V30 41 C 3.648940 -3.404997 2.001069 0
M  V30 42 C 4.315252 -4.074770 3.015800 0
M  V30 43 N 4.791699 -5.311565 2.793192 0
M  V30 44 C 4.665063 -5.959266 1.630713 0
M  V30 45 N 5.044459 -7.177594 1.163985 0
M  V30 46 C 4.649551 -7.329188 -0.122272 0
M  V30 47 C 3.997826 -6.194269 -0.516515 0
M  V30 48 C 4.016726 -5.366787 0.568892 0
M  V30 49 C 3.524968 -4.096682 0.790215 0
M  V30 50 C 3.107165 -0.445330 0.505012 0
M  V30 51 C 2.638412 2.263701 -2.087704 0
M  V30 52 C 3.155237 3.673155 -1.831512 0
M  V30 53 C 0.339619 5.037366 0.649987 0
M  V30 54 C -0.094353 5.827463 -0.490781 0
M  V30 55 C 0.324071 7.013859 -1.051301 0
M  V30 56 C -0.278643 7.510337 -2.184554 0
M  V30 57 C -1.313194 6.853670 -2.800525 0
M  V30 58 Cl -1.962560 7.631288 -4.234873 0
M  V30 59 C -1.765704 5.659641 -2.270821 0
M  V30 60 C -1.152488 5.165604 -1.128301 0
M  V30 61 C -0.675572 4.541074 1.646188 0
M  V30 62 H -0.954489 4.285839 4.969689 0
M  V30 63 H -1.929960 3.672521 3.633073 0
M  V30 64 H -2.146242 5.381457 4.056413 0
M  V30 65 H 0.277142 6.611444 4.207031 0
M  V30 66 H 0.758060 6.780860 2.491706 0
M  V30 67 H -1.008236 6.964667 3.000869 0
M  V30 68 H 1.513824 4.592310 4.220977 0
M  V30 69 H 0.525870 3.178926 3.840425 0
M  V30 70 H 1.692029 2.729886 2.040148 0
M  V30 71 H 2.866480 4.067504 2.590559 0
M  V30 72 H 3.366351 5.656330 0.649038 0
M  V30 73 H 2.306827 5.544988 -0.771507 0
M  V30 74 H 5.294587 3.511929 0.348805 0
M  V30 75 H 3.865525 2.587547 1.080575 0
M  V30 76 H 5.172003 1.116986 -0.248977 0
M  V30 77 H 5.121599 2.284433 -1.613032 0
M  V30 78 H 0.965305 0.310998 -1.937718 0
M  V30 79 H -0.184658 -1.575673 -1.062796 0
M  V30 80 H 1.162648 -3.663367 2.840995 0
M  V30 81 H -3.115601 -3.721131 2.295278 0
M  V30 82 H -4.887101 -4.006758 0.698101 0
M  V30 83 H -4.903711 -6.586294 -2.061243 0
M  V30 84 H -6.785597 -4.995157 -0.529477 0
M  V30 85 H -7.010148 -5.676344 -2.138158 0
M  V30 86 H -5.420941 -3.142726 -1.402290 0
M  V30 87 H -8.209082 -3.708219 -2.464034 0
M  V30 88 H -7.680918 -2.476045 -1.296992 0
M  V30 89 H -7.479241 -2.433841 -4.315405 0
M  V30 90 H -7.917503 -1.100516 -3.213607 0
M  V30 91 H -5.679577 -2.647883 -5.181381 0
M  V30 92 H -4.155063 -2.346434 -4.287856 0
M  V30 93 H -6.163230 -4.553272 -4.019832 0
M  V30 94 H -4.521396 -4.405296 -3.365126 0
M  V30 95 H -0.965234 -6.818644 0.489125 0
M  V30 96 H 4.403444 -3.529220 3.944774 0
M  V30 97 H 5.566839 -7.901363 1.712914 0
M  V30 98 H 4.818065 -8.200486 -0.741291 0
M  V30 99 H 3.555303 -5.974894 -1.473489 0
M  V30 100 H 3.015418 -3.631528 -0.051207 0
M  V30 101 H 4.032633 -0.077515 0.901095 0
M  V30 102 H 3.006902 1.938073 -3.079652 0
M  V30 103 H 1.528779 2.242633 -2.085124 0
M  V30 104 H 4.086661 3.843116 -2.409682 0
M  V30 105 H 2.378763 4.373463 -2.159355 0
M  V30 106 H 1.125798 7.472301 -0.493348 0
M  V30 107 H 0.138085 8.449932 -2.530787 0
M  V30 108 H -2.571241 5.208284 -2.802570 0
M  V30 109 H -1.625829 4.217118 -0.838211 0
M  V30 110 H -1.615441 5.081070 1.419803 0
M  V30 111 H -0.862994 3.477352 1.535426 0
M  V30 END ATOM
M  V30 BEGIN BOND
M  V30 1 1 1 2
M  V30 2 1 2 3
M  V30 3 1 2 4
M  V30 4 1 4 5
M  V30 5 1 5 6
M  V30 6 1 6 7
M  V30 7 1 7 8
M  V30 8 1 8 9
M  V30 9 1 9 10
M  V30 10 1 10 11
M  V30 11 1 11 12
M  V30 12 2 12 13
M  V30 13 1 13 14
M  V30 14 2 14 15
M  V30 15 1 15 16
M  V30 16 2 16 17
M  V30 17 1 16 18
M  V30 18 1 18 19
M  V30 19 2 19 20
M  V30 20 2 19 21
M  V30 21 1 19 22
M  V30 22 2 22 23
M  V30 23 1 23 24
M  V30 24 2 24 25
M  V30 25 1 25 26
M  V30 26 1 26 27
M  V30 27 1 27 28
M  V30 28 1 28 29
M  V30 29 1 29 30
M  V30 30 1 30 31
M  V30 31 1 31 32
M  V30 32 1 32 33
M  V30 33 1 25 34
M  V30 34 1 34 35
M  V30 35 2 35 36
M  V30 36 1 35 37
M  V30 37 2 34 38
M  V30 38 1 15 39
M  V30 39 1 39 40
M  V30 40 1 40 41
M  V30 41 2 41 42
M  V30 42 1 42 43
M  V30 43 2 43 44
M  V30 44 1 44 45
M  V30 45 1 45 46
M  V30 46 2 46 47
M  V30 47 1 47 48
M  V30 48 2 48 49
M  V30 49 2 39 50
M  V30 50 1 11 51
M  V30 51 1 51 52
M  V30 52 2 6 53
M  V30 53 1 53 54
M  V30 54 2 54 55
M  V30 55 1 55 56
M  V30 56 2 56 57
M  V30 57 1 57 58
M  V30 58 1 57 59
M  V30 59 2 59 60
M  V30 60 1 53 61
M  V30 61 1 61 2
M  V30 62 1 52 8
M  V30 63 1 60 54
M  V30 64 1 50 12
M  V30 65 1 38 22
M  V30 66 1 49 41
M  V30 67 1 33 28
M  V30 68 1 48 44
M  V30 69 1 1 62
M  V30 70 1 1 63
M  V30 71 1 1 64
M  V30 72 1 3 65
M  V30 73 1 3 66
M  V30 74 1 3 67
M  V30 75 1 4 68
M  V30 76 1 4 69
M  V30 77 1 5 70
M  V30 78 1 5 71
M  V30 79 1 7 72
M  V30 80 1 7 73
M  V30 81 1 9 74
M  V30 82 1 9 75
M  V30 83 1 10 76
M  V30 84 1 10 77
M  V30 85 1 13 78
M  V30 86 1 14 79
M  V30 87 1 18 80
M  V30 88 1 23 81
M  V30 89 1 24 82
M  V30 90 1 26 83
M  V30 91 1 27 84
M  V30 92 1 27 85
M  V30 93 1 28 86
M  V30 94 1 29 87
M  V30 95 1 29 88
M  V30 96 1 30 89
M  V30 97 1 30 90
M  V30 98 1 32 91
M  V30 99 1 32 92
M  V30 100 1 33 93
M  V30 101 1 33 94
M  V30 102 1 38 95
M  V30 103 1 42 96
M  V30 104 1 45 97
M  V30 105 1 46 98
M  V30 106 1 47 99
M  V30 107 1 49 100
M  V30 108 1 50 101
M  V30 109 1 51 102
M  V30 110 1 51 103
M  V30 111 1 52 104
M  V30 112 1 52 105
M  V30 113 1 55 106
M  V30 114 1 56 107
M  V30 115 1 59 108
M  V30 116 1 60 109
M  V30 117 1 61 110
M  V30 118 1 61 111
M  V30 END BOND
M  V30 END CTAB
M  END
>  <Dataset>  (36) 
OralDrugs

>  <Ligand_Instance>  (36) 
nan

>  <PDB_ID>  (36) 
nan

>  <Standardized_SMILES>  (36) 
CC1(C)CCC(CN2CCN(c3ccc(C(=O)NS(=O)(=O)c4ccc(NCC5CCOCC5)c([N+](=O)[O-])c4)c(Oc4cnc5[nH]ccc5c4)c3)CC2)=C(c2ccc(Cl)cc2)C1

>  <Name>  (36) 
Venetoclax

>  <Pocket>  (36) 
nan

>  <ATP_Site>  (36) 
nan

>  <Peripheral>  (36) 
nan

>  <Num_H_Atoms_ProtBoundConf>  (36) 
nan

>  <Num_Resolved_Atoms>  (36) 
nan

>  <Num_Not_Resolved_Atoms>  (36) 
nan

>  <2D_Mol_H>  (36) 
<rdkit.Chem.rdchem.Mol object at 0x72a238bbc430>

>  <MW>  (36) 
868.457

>  <HBA>  (36) 
11

>  <HBD>  (36) 
3

>  <LogP>  (36) 
8.6599

>  <NRB>  (36) 
15

>  <TPSA>  (36) 
172.03

>  <Num_Heavy_Atoms>  (36) 
61

>  <Ro5>  (36) 
[False, False, True, False, False, False]

>  <Ro5_Fulfilled>  (36) 
False

>  <Ro3>  (36) 
[False, False, True, False]

>  <Ro3_Fulfilled>  (36) 
False

>  <Fsp3>  (36) 
0.377778

>  <Fsp3_0.42>  (36) 
False

>  <Fsp3_0.45>  (36) 
False

>  <Stereogenic_Carbons>  (36) 
0

>  <C_Atoms>  (36) 
45

>  <FCStereo>  (36) 
0.0

>  <SPS>  (36) 
1077

>  <nSPS>  (36) 
17.655738

>  <PBF>  (36) 
1.686806

>  <PBF_0.6>  (36) 
True

>  <nPBF>  (36) 
0.027653

>  <nPBF_0.016>  (36) 
True

>  <PMI1>  (36) 
13527.035997

>  <PMI2>  (36) 
23989.856254

>  <PMI3>  (36) 
31930.215681

>  <NPR1>  (36) 
0.423644

>  <NPR2>  (36) 
0.751321

>  <Sum_NPR>  (36) 
1.174965

>  <Sum_NPR_1.07>  (36) 
True

>  <Sum_NPR_1.2>  (36) 
False

>  <MaxAbsEStateIndex>  (36) 
13.906068

>  <MaxEStateIndex>  (36) 
13.906068

>  <MinAbsEStateIndex>  (36) 
0.035867

>  <MinEStateIndex>  (36) 
-4.551966

>  <qed>  (36) 
0.076408

>  <MolWt>  (36) 
868.457

>  <HeavyAtomMolWt>  (36) 
818.057

>  <ExactMolWt>  (36) 
867.318096

>  <NumValenceElectrons>  (36) 
320

>  <NumRadicalElectrons>  (36) 
0

>  <MaxPartialCharge>  (36) 
0.29319

>  <MinPartialCharge>  (36) 
-0.454803

>  <MaxAbsPartialCharge>  (36) 
0.454803

>  <MinAbsPartialCharge>  (36) 
0.29319

>  <FpDensityMorgan1>  (36) 
1.032787

>  <FpDensityMorgan2>  (36) 
1.803279

>  <FpDensityMorgan3>  (36) 
2.557377

>  <BCUT2D_MWHI>  (36) 
35.495694

>  <BCUT2D_MWLOW>  (36) 
9.72217

>  <BCUT2D_CHGHI>  (36) 
2.305065

>  <BCUT2D_CHGLO>  (36) 
-2.390924

>  <BCUT2D_LOGPHI>  (36) 
2.433908

>  <BCUT2D_LOGPLOW>  (36) 
-2.468301

>  <BCUT2D_MRHI>  (36) 
7.897103

>  <BCUT2D_MRLOW>  (36) 
-0.383683

>  <AvgIpc>  (36) 
3.72191

>  <BalabanJ>  (36) 
1.003209

>  <BertzCT>  (36) 
2563.538281

>  <Chi0>  (36) 
42.726829

>  <Chi0n>  (36) 
34.285447

>  <Chi0v>  (36) 
35.857873

>  <Chi1>  (36) 
29.297597

>  <Chi1n>  (36) 
20.665802

>  <Chi1v>  (36) 
22.52693

>  <Chi2n>  (36) 
16.869573

>  <Chi2v>  (36) 
18.988411

>  <Chi3n>  (36) 
11.968229

>  <Chi3v>  (36) 
13.548865

>  <Chi4n>  (36) 
8.400013

>  <Chi4v>  (36) 
9.511856

>  <HallKierAlpha>  (36) 
-5.48

>  <Ipc>  (36) 
43762524630358.6875

>  <Kappa1>  (36) 
42.220485

>  <Kappa2>  (36) 
17.85579

>  <Kappa3>  (36) 
10.018237

>  <LabuteASA>  (36) 
360.029927

>  <PEOE_VSA1>  (36) 
24.674403

>  <PEOE_VSA10>  (36) 
22.833587

>  <PEOE_VSA11>  (36) 
0.0

>  <PEOE_VSA12>  (36) 
0.0

>  <PEOE_VSA13>  (36) 
21.617857

>  <PEOE_VSA14>  (36) 
0.0

>  <PEOE_VSA2>  (36) 
19.808765

>  <PEOE_VSA3>  (36) 
18.12387

>  <PEOE_VSA4>  (36) 
0.0

>  <PEOE_VSA5>  (36) 
0.0

>  <PEOE_VSA6>  (36) 
43.154253

>  <PEOE_VSA7>  (36) 
103.104497

>  <PEOE_VSA8>  (36) 
86.908124

>  <PEOE_VSA9>  (36) 
21.57909

>  <SMR_VSA1>  (36) 
27.609371

>  <SMR_VSA10>  (36) 
61.200076

>  <SMR_VSA2>  (36) 
0.0

>  <SMR_VSA3>  (36) 
19.589962

>  <SMR_VSA4>  (36) 
11.332897

>  <SMR_VSA5>  (36) 
50.847066

>  <SMR_VSA6>  (36) 
62.699001

>  <SMR_VSA7>  (36) 
117.027051

>  <SMR_VSA8>  (36) 
0.0

>  <SMR_VSA9>  (36) 
11.499024

>  <SlogP_VSA1>  (36) 
19.675656

>  <SlogP_VSA10>  (36) 
17.062159

>  <SlogP_VSA11>  (36) 
11.499024

>  <SlogP_VSA12>  (36) 
11.60094

>  <SlogP_VSA2>  (36) 
86.598457

>  <SlogP_VSA3>  (36) 
14.760154

>  <SlogP_VSA4>  (36) 
21.447215

>  <SlogP_VSA5>  (36) 
61.873023

>  <SlogP_VSA6>  (36) 
95.65868

>  <SlogP_VSA7>  (36) 
5.022633

>  <SlogP_VSA8>  (36) 
16.606506

>  <SlogP_VSA9>  (36) 
0.0

>  <EState_VSA1>  (36) 
31.436652

>  <EState_VSA10>  (36) 
23.326652

>  <EState_VSA11>  (36) 
0.0

>  <EState_VSA2>  (36) 
28.333246

>  <EState_VSA3>  (36) 
31.155209

>  <EState_VSA4>  (36) 
86.990501

>  <EState_VSA5>  (36) 
35.039238

>  <EState_VSA6>  (36) 
30.462312

>  <EState_VSA7>  (36) 
18.199101

>  <EState_VSA8>  (36) 
55.786869

>  <EState_VSA9>  (36) 
21.074666

>  <VSA_EState1>  (36) 
41.163266

>  <VSA_EState10>  (36) 
6.238459

>  <VSA_EState2>  (36) 
37.099112

>  <VSA_EState3>  (36) 
16.693683

>  <VSA_EState4>  (36) 
5.553398

>  <VSA_EState5>  (36) 
-0.195002

>  <VSA_EState6>  (36) 
20.430117

>  <VSA_EState7>  (36) 
8.130103

>  <VSA_EState8>  (36) 
10.383276

>  <VSA_EState9>  (36) 
-4.551966

>  <FractionCSP3>  (36) 
0.377778

>  <HeavyAtomCount>  (36) 
61

>  <NHOHCount>  (36) 
3

>  <NOCount>  (36) 
14

>  <NumAliphaticCarbocycles>  (36) 
1

>  <NumAliphaticHeterocycles>  (36) 
2

>  <NumAliphaticRings>  (36) 
3

>  <NumAromaticCarbocycles>  (36) 
3

>  <NumAromaticHeterocycles>  (36) 
2

>  <NumAromaticRings>  (36) 
5

>  <NumHAcceptors>  (36) 
11

>  <NumHDonors>  (36) 
3

>  <NumHeteroatoms>  (36) 
16

>  <NumRotatableBonds>  (36) 
13

>  <NumSaturatedCarbocycles>  (36) 
0

>  <NumSaturatedHeterocycles>  (36) 
2

>  <NumSaturatedRings>  (36) 
2

>  <RingCount>  (36) 
8

>  <MolLogP>  (36) 
8.6599

>  <MolMR>  (36) 
237.0478

>  <fr_Al_COO>  (36) 
0

>  <fr_Al_OH>  (36) 
0

>  <fr_Al_OH_noTert>  (36) 
0

>  <fr_ArN>  (36) 
0

>  <fr_Ar_COO>  (36) 
0

>  <fr_Ar_N>  (36) 
2

>  <fr_Ar_NH>  (36) 
1

>  <fr_Ar_OH>  (36) 
0

>  <fr_COO>  (36) 
0

>  <fr_COO2>  (36) 
0

>  <fr_C_O>  (36) 
1

>  <fr_C_O_noCOO>  (36) 
1

>  <fr_C_S>  (36) 
0

>  <fr_HOCCN>  (36) 
0

>  <fr_Imine>  (36) 
0

>  <fr_NH0>  (36) 
4

>  <fr_NH1>  (36) 
3

>  <fr_NH2>  (36) 
0

>  <fr_N_O>  (36) 
0

>  <fr_Ndealkylation1>  (36) 
0

>  <fr_Ndealkylation2>  (36) 
0

>  <fr_Nhpyrrole>  (36) 
1

>  <fr_SH>  (36) 
0

>  <fr_aldehyde>  (36) 
0

>  <fr_alkyl_carbamate>  (36) 
0

>  <fr_alkyl_halide>  (36) 
0

>  <fr_allylic_oxid>  (36) 
1

>  <fr_amide>  (36) 
1

>  <fr_amidine>  (36) 
0

>  <fr_aniline>  (36) 
2

>  <fr_aryl_methyl>  (36) 
0

>  <fr_azide>  (36) 
0

>  <fr_azo>  (36) 
0

>  <fr_barbitur>  (36) 
0

>  <fr_benzene>  (36) 
3

>  <fr_benzodiazepine>  (36) 
0

>  <fr_bicyclic>  (36) 
1

>  <fr_diazo>  (36) 
0

>  <fr_dihydropyridine>  (36) 
0

>  <fr_epoxide>  (36) 
0

>  <fr_ester>  (36) 
0

>  <fr_ether>  (36) 
2

>  <fr_furan>  (36) 
0

>  <fr_guanido>  (36) 
0

>  <fr_halogen>  (36) 
1

>  <fr_hdrzine>  (36) 
0

>  <fr_hdrzone>  (36) 
0

>  <fr_imidazole>  (36) 
0

>  <fr_imide>  (36) 
0

>  <fr_isocyan>  (36) 
0

>  <fr_isothiocyan>  (36) 
0

>  <fr_ketone>  (36) 
0

>  <fr_ketone_Topliss>  (36) 
0

>  <fr_lactam>  (36) 
0

>  <fr_lactone>  (36) 
0

>  <fr_methoxy>  (36) 
0

>  <fr_morpholine>  (36) 
0

>  <fr_nitrile>  (36) 
0

>  <fr_nitro>  (36) 
1

>  <fr_nitro_arom>  (36) 
1

>  <fr_nitro_arom_nonortho>  (36) 
0

>  <fr_nitroso>  (36) 
0

>  <fr_oxazole>  (36) 
0

>  <fr_oxime>  (36) 
0

>  <fr_para_hydroxylation>  (36) 
0

>  <fr_phenol>  (36) 
0

>  <fr_phenol_noOrthoHbond>  (36) 
0

>  <fr_phos_acid>  (36) 
0

>  <fr_phos_ester>  (36) 
0

>  <fr_piperdine>  (36) 
0

>  <fr_piperzine>  (36) 
1

>  <fr_priamide>  (36) 
0

>  <fr_prisulfonamd>  (36) 
0

>  <fr_pyridine>  (36) 
1

>  <fr_quatN>  (36) 
0

>  <fr_sulfide>  (36) 
0

>  <fr_sulfonamd>  (36) 
1

>  <fr_sulfone>  (36) 
0

>  <fr_term_acetylene>  (36) 
0

>  <fr_tetrazole>  (36) 
0

>  <fr_thiazole>  (36) 
0

>  <fr_thiocyan>  (36) 
0

>  <fr_thiophene>  (36) 
0

>  <fr_unbrch_alkane>  (36) 
0

>  <fr_urea>  (36) 
0

>  <NP_Likeness>  (36) 
-1.019603

$$$$
CHEMBL637
     RDKit          3D

  0  0  0  0  0  0  0  0  0  0999 V3000
M  V30 BEGIN CTAB
M  V30 COUNTS 47 48 0 0 0
M  V30 BEGIN ATOM
M  V30 1 C -3.555371 -2.756445 4.734555 0
M  V30 2 O -2.243437 -3.020156 4.288827 0
M  V30 3 C -1.627771 -2.427773 3.202658 0
M  V30 4 C -0.331249 -2.946750 3.069229 0
M  V30 5 C 0.496167 -2.504745 2.042345 0
M  V30 6 C 0.041861 -1.548948 1.144553 0
M  V30 7 C 0.876974 -1.015383 0.005338 0 CFG=1
M  V30 8 C 0.460979 -1.440722 -1.325716 0
M  V30 9 N -0.831057 -1.165089 -1.848825 0
M  V30 10 C -0.879735 -1.981078 -3.107257 0
M  V30 11 C -0.940374 0.202031 -2.384503 0
M  V30 12 C 1.389796 0.346301 0.281443 0
M  V30 13 O 2.140129 0.829647 -0.771808 0
M  V30 14 C 2.446673 0.156208 1.409631 0
M  V30 15 C 2.985554 1.428088 1.934714 0
M  V30 16 C 1.903974 2.420727 2.320421 0
M  V30 17 C 1.145669 2.681799 1.026291 0
M  V30 18 C 0.403135 1.370504 0.718133 0
M  V30 19 C -1.253139 -1.031114 1.276867 0
M  V30 20 C -2.075476 -1.482881 2.313424 0
M  V30 21 H -3.655011 -1.801346 5.254778 0
M  V30 22 H -3.934879 -3.570158 5.390115 0
M  V30 23 H -4.204148 -2.687855 3.835226 0
M  V30 24 H 0.145741 -3.703537 3.710614 0
M  V30 25 H 1.512189 -2.898655 1.923273 0
M  V30 26 H 1.835007 -1.677039 0.159134 0
M  V30 27 H 0.717019 -2.548608 -1.446076 0
M  V30 28 H 1.206718 -0.981435 -2.055101 0
M  V30 29 H -0.943149 -3.035758 -2.823735 0
M  V30 30 H -0.028456 -1.698969 -3.726528 0
M  V30 31 H -1.795870 -1.674180 -3.608143 0
M  V30 32 H -1.361856 0.216228 -3.424307 0
M  V30 33 H 0.041192 0.699010 -2.490570 0
M  V30 34 H -1.687962 0.807304 -1.806080 0
M  V30 35 H 2.901810 1.403507 -0.507883 0
M  V30 36 H 3.257131 -0.417406 0.921384 0
M  V30 37 H 2.059956 -0.490043 2.209302 0
M  V30 38 H 3.726150 1.920103 1.278951 0
M  V30 39 H 3.536414 1.189412 2.874724 0
M  V30 40 H 2.404594 3.316414 2.723492 0
M  V30 41 H 1.235794 1.951508 3.064881 0
M  V30 42 H 1.816640 2.969234 0.219250 0
M  V30 43 H 0.378758 3.445767 1.294107 0
M  V30 44 H -0.013129 1.080818 1.711133 0
M  V30 45 H -0.343066 1.573949 -0.028582 0
M  V30 46 H -1.697889 -0.279198 0.620853 0
M  V30 47 H -3.072915 -1.167560 2.517059 0
M  V30 END ATOM
M  V30 BEGIN BOND
M  V30 1 1 1 2
M  V30 2 1 2 3
M  V30 3 2 3 4
M  V30 4 1 4 5
M  V30 5 2 5 6
M  V30 6 1 6 7
M  V30 7 1 7 8
M  V30 8 1 8 9
M  V30 9 1 9 10
M  V30 10 1 9 11
M  V30 11 1 7 12
M  V30 12 1 12 13
M  V30 13 1 12 14
M  V30 14 1 14 15
M  V30 15 1 15 16
M  V30 16 1 16 17
M  V30 17 1 17 18
M  V30 18 1 6 19
M  V30 19 2 19 20
M  V30 20 1 20 3
M  V30 21 1 18 12
M  V30 22 1 1 21
M  V30 23 1 1 22
M  V30 24 1 1 23
M  V30 25 1 4 24
M  V30 26 1 5 25
M  V30 27 1 7 26 CFG=1
M  V30 28 1 8 27
M  V30 29 1 8 28
M  V30 30 1 10 29
M  V30 31 1 10 30
M  V30 32 1 10 31
M  V30 33 1 11 32
M  V30 34 1 11 33
M  V30 35 1 11 34
M  V30 36 1 13 35
M  V30 37 1 14 36
M  V30 38 1 14 37
M  V30 39 1 15 38
M  V30 40 1 15 39
M  V30 41 1 16 40
M  V30 42 1 16 41
M  V30 43 1 17 42
M  V30 44 1 17 43
M  V30 45 1 18 44
M  V30 46 1 18 45
M  V30 47 1 19 46
M  V30 48 1 20 47
M  V30 END BOND
M  V30 END CTAB
M  END
>  <Dataset>  (37) 
OralDrugs

>  <Ligand_Instance>  (37) 
nan

>  <PDB_ID>  (37) 
nan

>  <Standardized_SMILES>  (37) 
COc1ccc(C(CN(C)C)C2(O)CCCCC2)cc1

>  <Name>  (37) 
Venlafaxine

>  <Pocket>  (37) 
nan

>  <ATP_Site>  (37) 
nan

>  <Peripheral>  (37) 
nan

>  <Num_H_Atoms_ProtBoundConf>  (37) 
nan

>  <Num_Resolved_Atoms>  (37) 
nan

>  <Num_Not_Resolved_Atoms>  (37) 
nan

>  <2D_Mol_H>  (37) 
<rdkit.Chem.rdchem.Mol object at 0x72a238bbc510>

>  <MW>  (37) 
277.408

>  <HBA>  (37) 
3

>  <HBD>  (37) 
1

>  <LogP>  (37) 
3.0356

>  <NRB>  (37) 
9

>  <TPSA>  (37) 
32.7

>  <Num_Heavy_Atoms>  (37) 
20

>  <Ro5>  (37) 
[True, True, True, True, True, True]

>  <Ro5_Fulfilled>  (37) 
True

>  <Ro3>  (37) 
[True, True, True, False]

>  <Ro3_Fulfilled>  (37) 
True

>  <Fsp3>  (37) 
0.647059

>  <Fsp3_0.42>  (37) 
True

>  <Fsp3_0.45>  (37) 
True

>  <Stereogenic_Carbons>  (37) 
1

>  <C_Atoms>  (37) 
17

>  <FCStereo>  (37) 
0.058824

>  <SPS>  (37) 
397

>  <nSPS>  (37) 
19.85

>  <PBF>  (37) 
1.167001

>  <PBF_0.6>  (37) 
True

>  <nPBF>  (37) 
0.05835

>  <nPBF_0.016>  (37) 
True

>  <PMI1>  (37) 
1241.813545

>  <PMI2>  (37) 
2052.331384

>  <PMI3>  (37) 
2747.769869

>  <NPR1>  (37) 
0.451935

>  <NPR2>  (37) 
0.746908

>  <Sum_NPR>  (37) 
1.198843

>  <Sum_NPR_1.07>  (37) 
True

>  <Sum_NPR_1.2>  (37) 
False

>  <MaxAbsEStateIndex>  (37) 
11.101927

>  <MaxEStateIndex>  (37) 
11.101927

>  <MinAbsEStateIndex>  (37) 
0.170098

>  <MinEStateIndex>  (37) 
-0.558424

>  <qed>  (37) 
0.897682

>  <MolWt>  (37) 
277.408

>  <HeavyAtomMolWt>  (37) 
250.192

>  <ExactMolWt>  (37) 
277.204179

>  <NumValenceElectrons>  (37) 
112

>  <NumRadicalElectrons>  (37) 
0

>  <MaxPartialCharge>  (37) 
0.118378

>  <MinPartialCharge>  (37) 
-0.496768

>  <MaxAbsPartialCharge>  (37) 
0.496768

>  <MinAbsPartialCharge>  (37) 
0.118378

>  <FpDensityMorgan1>  (37) 
1.15

>  <FpDensityMorgan2>  (37) 
1.75

>  <FpDensityMorgan3>  (37) 
2.25

>  <BCUT2D_MWHI>  (37) 
16.465295

>  <BCUT2D_MWLOW>  (37) 
9.723569

>  <BCUT2D_CHGHI>  (37) 
2.382944

>  <BCUT2D_CHGLO>  (37) 
-2.40476

>  <BCUT2D_LOGPHI>  (37) 
2.400848

>  <BCUT2D_LOGPLOW>  (37) 
-2.42413

>  <BCUT2D_MRHI>  (37) 
5.311262

>  <BCUT2D_MRLOW>  (37) 
-0.027726

>  <AvgIpc>  (37) 
2.45352

>  <BalabanJ>  (37) 
2.250738

>  <BertzCT>  (37) 
407.50311

>  <Chi0>  (37) 
14.587576

>  <Chi0n>  (37) 
12.932068

>  <Chi0v>  (37) 
12.932068

>  <Chi1>  (37) 
9.548661

>  <Chi1n>  (37) 
7.560707

>  <Chi1v>  (37) 
7.560707

>  <Chi2n>  (37) 
6.252225

>  <Chi2v>  (37) 
6.252225

>  <Chi3n>  (37) 
4.433918

>  <Chi3v>  (37) 
4.433918

>  <Chi4n>  (37) 
3.299414

>  <Chi4v>  (37) 
3.299414

>  <HallKierAlpha>  (37) 
-1.06

>  <Ipc>  (37) 
32347.209354

>  <Kappa1>  (37) 
15.331143

>  <Kappa2>  (37) 
6.594721

>  <Kappa3>  (37) 
3.525691

>  <LabuteASA>  (37) 
122.107548

>  <PEOE_VSA1>  (37) 
14.7433

>  <PEOE_VSA10>  (37) 
5.749512

>  <PEOE_VSA11>  (37) 
0.0

>  <PEOE_VSA12>  (37) 
0.0

>  <PEOE_VSA13>  (37) 
0.0

>  <PEOE_VSA14>  (37) 
0.0

>  <PEOE_VSA2>  (37) 
0.0

>  <PEOE_VSA3>  (37) 
0.0

>  <PEOE_VSA4>  (37) 
0.0

>  <PEOE_VSA5>  (37) 
0.0

>  <PEOE_VSA6>  (37) 
31.395199

>  <PEOE_VSA7>  (37) 
44.633173

>  <PEOE_VSA8>  (37) 
12.462662

>  <PEOE_VSA9>  (37) 
12.710848

>  <SMR_VSA1>  (37) 
9.84339

>  <SMR_VSA10>  (37) 
0.0

>  <SMR_VSA2>  (37) 
0.0

>  <SMR_VSA3>  (37) 
4.89991

>  <SMR_VSA4>  (37) 
0.0

>  <SMR_VSA5>  (37) 
43.623065

>  <SMR_VSA6>  (37) 
27.749898

>  <SMR_VSA7>  (37) 
29.82892

>  <SMR_VSA8>  (37) 
0.0

>  <SMR_VSA9>  (37) 
5.749512

>  <SlogP_VSA1>  (37) 
4.736863

>  <SlogP_VSA10>  (37) 
0.0

>  <SlogP_VSA11>  (37) 
5.749512

>  <SlogP_VSA12>  (37) 
0.0

>  <SlogP_VSA2>  (37) 
43.357386

>  <SlogP_VSA3>  (37) 
0.0

>  <SlogP_VSA4>  (37) 
0.0

>  <SlogP_VSA5>  (37) 
43.585466

>  <SlogP_VSA6>  (37) 
24.265468

>  <SlogP_VSA7>  (37) 
0.0

>  <SlogP_VSA8>  (37) 
0.0

>  <SlogP_VSA9>  (37) 
0.0

>  <EState_VSA1>  (37) 
5.601051

>  <EState_VSA10>  (37) 
5.106527

>  <EState_VSA11>  (37) 
0.0

>  <EState_VSA2>  (37) 
5.917906

>  <EState_VSA3>  (37) 
0.0

>  <EState_VSA4>  (37) 
37.977555

>  <EState_VSA5>  (37) 
11.984273

>  <EState_VSA6>  (37) 
7.109798

>  <EState_VSA7>  (37) 
12.132734

>  <EState_VSA8>  (37) 
31.127988

>  <EState_VSA9>  (37) 
4.736863

>  <VSA_EState1>  (37) 
5.227715

>  <VSA_EState10>  (37) 
0.0

>  <VSA_EState2>  (37) 
2.168129

>  <VSA_EState3>  (37) 
11.101927

>  <VSA_EState4>  (37) 
0.65352

>  <VSA_EState5>  (37) 
1.038605

>  <VSA_EState6>  (37) 
8.174118

>  <VSA_EState7>  (37) 
5.349053

>  <VSA_EState8>  (37) 
0.877806

>  <VSA_EState9>  (37) 
5.825794

>  <FractionCSP3>  (37) 
0.647059

>  <HeavyAtomCount>  (37) 
20

>  <NHOHCount>  (37) 
1

>  <NOCount>  (37) 
3

>  <NumAliphaticCarbocycles>  (37) 
1

>  <NumAliphaticHeterocycles>  (37) 
0

>  <NumAliphaticRings>  (37) 
1

>  <NumAromaticCarbocycles>  (37) 
1

>  <NumAromaticHeterocycles>  (37) 
0

>  <NumAromaticRings>  (37) 
1

>  <NumHAcceptors>  (37) 
3

>  <NumHDonors>  (37) 
1

>  <NumHeteroatoms>  (37) 
3

>  <NumRotatableBonds>  (37) 
5

>  <NumSaturatedCarbocycles>  (37) 
1

>  <NumSaturatedHeterocycles>  (37) 
0

>  <NumSaturatedRings>  (37) 
1

>  <RingCount>  (37) 
2

>  <MolLogP>  (37) 
3.0356

>  <MolMR>  (37) 
82.3238

>  <fr_Al_COO>  (37) 
0

>  <fr_Al_OH>  (37) 
1

>  <fr_Al_OH_noTert>  (37) 
0

>  <fr_ArN>  (37) 
0

>  <fr_Ar_COO>  (37) 
0

>  <fr_Ar_N>  (37) 
0

>  <fr_Ar_NH>  (37) 
0

>  <fr_Ar_OH>  (37) 
0

>  <fr_COO>  (37) 
0

>  <fr_COO2>  (37) 
0

>  <fr_C_O>  (37) 
0

>  <fr_C_O_noCOO>  (37) 
0

>  <fr_C_S>  (37) 
0

>  <fr_HOCCN>  (37) 
0

>  <fr_Imine>  (37) 
0

>  <fr_NH0>  (37) 
1

>  <fr_NH1>  (37) 
0

>  <fr_NH2>  (37) 
0

>  <fr_N_O>  (37) 
0

>  <fr_Ndealkylation1>  (37) 
1

>  <fr_Ndealkylation2>  (37) 
0

>  <fr_Nhpyrrole>  (37) 
0

>  <fr_SH>  (37) 
0

>  <fr_aldehyde>  (37) 
0

>  <fr_alkyl_carbamate>  (37) 
0

>  <fr_alkyl_halide>  (37) 
0

>  <fr_allylic_oxid>  (37) 
0

>  <fr_amide>  (37) 
0

>  <fr_amidine>  (37) 
0

>  <fr_aniline>  (37) 
0

>  <fr_aryl_methyl>  (37) 
0

>  <fr_azide>  (37) 
0

>  <fr_azo>  (37) 
0

>  <fr_barbitur>  (37) 
0

>  <fr_benzene>  (37) 
1

>  <fr_benzodiazepine>  (37) 
0

>  <fr_bicyclic>  (37) 
0

>  <fr_diazo>  (37) 
0

>  <fr_dihydropyridine>  (37) 
0

>  <fr_epoxide>  (37) 
0

>  <fr_ester>  (37) 
0

>  <fr_ether>  (37) 
1

>  <fr_furan>  (37) 
0

>  <fr_guanido>  (37) 
0

>  <fr_halogen>  (37) 
0

>  <fr_hdrzine>  (37) 
0

>  <fr_hdrzone>  (37) 
0

>  <fr_imidazole>  (37) 
0

>  <fr_imide>  (37) 
0

>  <fr_isocyan>  (37) 
0

>  <fr_isothiocyan>  (37) 
0

>  <fr_ketone>  (37) 
0

>  <fr_ketone_Topliss>  (37) 
0

>  <fr_lactam>  (37) 
0

>  <fr_lactone>  (37) 
0

>  <fr_methoxy>  (37) 
1

>  <fr_morpholine>  (37) 
0

>  <fr_nitrile>  (37) 
0

>  <fr_nitro>  (37) 
0

>  <fr_nitro_arom>  (37) 
0

>  <fr_nitro_arom_nonortho>  (37) 
0

>  <fr_nitroso>  (37) 
0

>  <fr_oxazole>  (37) 
0

>  <fr_oxime>  (37) 
0

>  <fr_para_hydroxylation>  (37) 
0

>  <fr_phenol>  (37) 
0

>  <fr_phenol_noOrthoHbond>  (37) 
0

>  <fr_phos_acid>  (37) 
0

>  <fr_phos_ester>  (37) 
0

>  <fr_piperdine>  (37) 
0

>  <fr_piperzine>  (37) 
0

>  <fr_priamide>  (37) 
0

>  <fr_prisulfonamd>  (37) 
0

>  <fr_pyridine>  (37) 
0

>  <fr_quatN>  (37) 
0

>  <fr_sulfide>  (37) 
0

>  <fr_sulfonamd>  (37) 
0

>  <fr_sulfone>  (37) 
0

>  <fr_term_acetylene>  (37) 
0

>  <fr_tetrazole>  (37) 
0

>  <fr_thiazole>  (37) 
0

>  <fr_thiocyan>  (37) 
0

>  <fr_thiophene>  (37) 
0

>  <fr_unbrch_alkane>  (37) 
0

>  <fr_urea>  (37) 
0

>  <NP_Likeness>  (37) 
0.13431

$$$$
CHEMBL6966
     RDKit          3D

  0  0  0  0  0  0  0  0  0  0999 V3000
M  V30 BEGIN CTAB
M  V30 COUNTS 71 72 0 0 0
M  V30 BEGIN ATOM
M  V30 1 C 4.641841 -5.080546 4.669727 0
M  V30 2 O 4.098038 -4.530898 3.507485 0
M  V30 3 C 3.985093 -3.215707 3.164422 0
M  V30 4 C 4.348434 -2.094295 3.872860 0
M  V30 5 C 4.155346 -0.833095 3.355877 0
M  V30 6 C 3.592983 -0.655567 2.111870 0
M  V30 7 C 3.295054 0.630396 1.433475 0
M  V30 8 C 1.806115 0.909386 1.729014 0
M  V30 9 N 1.369842 2.104329 1.132174 0
M  V30 10 C 1.900527 3.309767 1.643715 0
M  V30 11 C 0.646309 2.114646 -0.056628 0
M  V30 12 C -0.779663 1.688254 -0.041787 0
M  V30 13 C -1.075789 0.334964 0.464172 0
M  V30 14 C -2.553963 -0.038592 0.316830 0 CFG=2
M  V30 15 C -2.692633 -1.381735 0.871659 0
M  V30 16 N -2.817638 -2.466590 1.310940 0
M  V30 17 C -2.866611 -0.167986 -1.134683 0
M  V30 18 C -3.336966 0.813329 -1.981858 0
M  V30 19 C -3.563978 0.571277 -3.319195 0
M  V30 20 C -3.333656 -0.666255 -3.886660 0
M  V30 21 O -3.527975 -1.005137 -5.207269 0
M  V30 22 C -3.994126 -0.103364 -6.191256 0
M  V30 23 C -2.863860 -1.687101 -3.091964 0
M  V30 24 O -2.603592 -2.956217 -3.568311 0
M  V30 25 C -2.129106 -3.965710 -2.672709 0
M  V30 26 C -2.649871 -1.404451 -1.759291 0
M  V30 27 C -3.496242 0.870833 1.001614 0
M  V30 28 C -3.321413 0.982693 2.476285 0
M  V30 29 C -4.900301 0.306982 0.743199 0
M  V30 30 C 3.215251 -1.782470 1.370373 0
M  V30 31 C 3.411550 -3.057494 1.897702 0
M  V30 32 O 3.009671 -4.146234 1.102075 0
M  V30 33 C 2.441290 -3.935507 -0.155001 0
M  V30 34 H 5.667607 -5.449145 4.397700 0
M  V30 35 H 4.825488 -4.331438 5.475160 0
M  V30 36 H 4.062087 -5.964750 5.040177 0
M  V30 37 H 4.786296 -2.266950 4.842870 0
M  V30 38 H 4.430944 0.061717 3.892127 0
M  V30 39 H 3.918840 1.465966 1.784386 0
M  V30 40 H 3.384449 0.524890 0.346100 0
M  V30 41 H 1.721007 0.947090 2.832028 0
M  V30 42 H 1.321274 -0.012144 1.348597 0
M  V30 43 H 2.766474 3.735548 1.097409 0
M  V30 44 H 2.250477 3.116282 2.694050 0
M  V30 45 H 1.071232 4.047194 1.777688 0
M  V30 46 H 0.626662 3.204363 -0.429511 0
M  V30 47 H 1.204390 1.619749 -0.918600 0
M  V30 48 H -1.324028 2.492823 0.548949 0
M  V30 49 H -1.158978 1.849805 -1.086581 0
M  V30 50 H -0.504785 -0.418699 -0.085122 0
M  V30 51 H -0.863681 0.289656 1.560696 0
M  V30 52 H -3.512596 1.775601 -1.521258 0
M  V30 53 H -3.930238 1.347293 -3.963724 0
M  V30 54 H -4.317244 -0.659503 -7.117393 0
M  V30 55 H -4.896485 0.413891 -5.751957 0
M  V30 56 H -3.192784 0.630918 -6.436452 0
M  V30 57 H -1.988461 -4.921213 -3.216793 0
M  V30 58 H -2.960724 -4.106561 -1.947793 0
M  V30 59 H -1.223519 -3.663527 -2.134879 0
M  V30 60 H -2.274439 -2.217787 -1.119211 0
M  V30 61 H -3.518442 1.902902 0.593115 0
M  V30 62 H -4.149193 0.456955 3.039604 0
M  V30 63 H -2.402133 0.504594 2.870400 0
M  V30 64 H -3.400758 2.037045 2.854979 0
M  V30 65 H -5.164627 -0.335990 1.604126 0
M  V30 66 H -5.658704 1.094053 0.664401 0
M  V30 67 H -4.904991 -0.358681 -0.148646 0
M  V30 68 H 2.762702 -1.689617 0.372181 0
M  V30 69 H 1.539974 -3.275455 -0.140668 0
M  V30 70 H 3.125370 -3.515240 -0.911940 0
M  V30 71 H 2.108852 -4.922970 -0.545472 0
M  V30 END ATOM
M  V30 BEGIN BOND
M  V30 1 1 1 2
M  V30 2 1 2 3
M  V30 3 2 3 4
M  V30 4 1 4 5
M  V30 5 2 5 6
M  V30 6 1 6 7
M  V30 7 1 7 8
M  V30 8 1 8 9
M  V30 9 1 9 10
M  V30 10 1 9 11
M  V30 11 1 11 12
M  V30 12 1 12 13
M  V30 13 1 13 14
M  V30 14 1 14 15 CFG=1
M  V30 15 3 15 16
M  V30 16 1 14 17
M  V30 17 2 17 18
M  V30 18 1 18 19
M  V30 19 2 19 20
M  V30 20 1 20 21
M  V30 21 1 21 22
M  V30 22 1 20 23
M  V30 23 1 23 24
M  V30 24 1 24 25
M  V30 25 2 23 26
M  V30 26 1 14 27
M  V30 27 1 27 28
M  V30 28 1 27 29
M  V30 29 1 6 30
M  V30 30 2 30 31
M  V30 31 1 31 32
M  V30 32 1 32 33
M  V30 33 1 31 3
M  V30 34 1 26 17
M  V30 35 1 1 34
M  V30 36 1 1 35
M  V30 37 1 1 36
M  V30 38 1 4 37
M  V30 39 1 5 38
M  V30 40 1 7 39
M  V30 41 1 7 40
M  V30 42 1 8 41
M  V30 43 1 8 42
M  V30 44 1 10 43
M  V30 45 1 10 44
M  V30 46 1 10 45
M  V30 47 1 11 46
M  V30 48 1 11 47
M  V30 49 1 12 48
M  V30 50 1 12 49
M  V30 51 1 13 50
M  V30 52 1 13 51
M  V30 53 1 18 52
M  V30 54 1 19 53
M  V30 55 1 22 54
M  V30 56 1 22 55
M  V30 57 1 22 56
M  V30 58 1 25 57
M  V30 59 1 25 58
M  V30 60 1 25 59
M  V30 61 1 26 60
M  V30 62 1 27 61
M  V30 63 1 28 62
M  V30 64 1 28 63
M  V30 65 1 28 64
M  V30 66 1 29 65
M  V30 67 1 29 66
M  V30 68 1 29 67
M  V30 69 1 30 68
M  V30 70 1 33 69
M  V30 71 1 33 70
M  V30 72 1 33 71
M  V30 END BOND
M  V30 END CTAB
M  END
>  <Dataset>  (38) 
OralDrugs

>  <Ligand_Instance>  (38) 
nan

>  <PDB_ID>  (38) 
nan

>  <Standardized_SMILES>  (38) 
COc1ccc(CCN(C)CCCC(C#N)(c2ccc(OC)c(OC)c2)C(C)C)cc1OC

>  <Name>  (38) 
Verapamil

>  <Pocket>  (38) 
nan

>  <ATP_Site>  (38) 
nan

>  <Peripheral>  (38) 
nan

>  <Num_H_Atoms_ProtBoundConf>  (38) 
nan

>  <Num_Resolved_Atoms>  (38) 
nan

>  <Num_Not_Resolved_Atoms>  (38) 
nan

>  <2D_Mol_H>  (38) 
<rdkit.Chem.rdchem.Mol object at 0x72a238bbc5f0>

>  <MW>  (38) 
454.611

>  <HBA>  (38) 
6

>  <HBD>  (38) 
0

>  <LogP>  (38) 
5.09308

>  <NRB>  (38) 
20

>  <TPSA>  (38) 
63.95

>  <Num_Heavy_Atoms>  (38) 
33

>  <Ro5>  (38) 
[True, True, True, False, False, True]

>  <Ro5_Fulfilled>  (38) 
False

>  <Ro3>  (38) 
[False, False, True, False]

>  <Ro3_Fulfilled>  (38) 
False

>  <Fsp3>  (38) 
0.518519

>  <Fsp3_0.42>  (38) 
True

>  <Fsp3_0.45>  (38) 
True

>  <Stereogenic_Carbons>  (38) 
1

>  <C_Atoms>  (38) 
27

>  <FCStereo>  (38) 
0.037037

>  <SPS>  (38) 
424

>  <nSPS>  (38) 
12.848485

>  <PBF>  (38) 
1.37656

>  <PBF_0.6>  (38) 
True

>  <nPBF>  (38) 
0.041714

>  <nPBF_0.016>  (38) 
True

>  <PMI1>  (38) 
3046.71114

>  <PMI2>  (38) 
7965.38744

>  <PMI3>  (38) 
9058.710677

>  <NPR1>  (38) 
0.336329

>  <NPR2>  (38) 
0.879307

>  <Sum_NPR>  (38) 
1.215636

>  <Sum_NPR_1.07>  (38) 
True

>  <Sum_NPR_1.2>  (38) 
True

>  <MaxAbsEStateIndex>  (38) 
10.242105

>  <MaxEStateIndex>  (38) 
10.242105

>  <MinAbsEStateIndex>  (38) 
0.16451

>  <MinEStateIndex>  (38) 
-0.579622

>  <qed>  (38) 
0.419905

>  <MolWt>  (38) 
454.611

>  <HeavyAtomMolWt>  (38) 
416.307

>  <ExactMolWt>  (38) 
454.283158

>  <NumValenceElectrons>  (38) 
180

>  <NumRadicalElectrons>  (38) 
0

>  <MaxPartialCharge>  (38) 
0.160544

>  <MinPartialCharge>  (38) 
-0.49287

>  <MaxAbsPartialCharge>  (38) 
0.49287

>  <MinAbsPartialCharge>  (38) 
0.160544

>  <FpDensityMorgan1>  (38) 
0.848485

>  <FpDensityMorgan2>  (38) 
1.424242

>  <FpDensityMorgan3>  (38) 
1.969697

>  <BCUT2D_MWHI>  (38) 
16.512201

>  <BCUT2D_MWLOW>  (38) 
9.694753

>  <BCUT2D_CHGHI>  (38) 
2.359328

>  <BCUT2D_CHGLO>  (38) 
-2.322792

>  <BCUT2D_LOGPHI>  (38) 
2.40073

>  <BCUT2D_LOGPLOW>  (38) 
-2.323057

>  <BCUT2D_MRHI>  (38) 
5.471867

>  <BCUT2D_MRLOW>  (38) 
0.292257

>  <AvgIpc>  (38) 
2.840657

>  <BalabanJ>  (38) 
2.023333

>  <BertzCT>  (38) 
938.203977

>  <Chi0>  (38) 
24.432511

>  <Chi0n>  (38) 
21.104406

>  <Chi0v>  (38) 
21.104406

>  <Chi1>  (38) 
15.842433

>  <Chi1n>  (38) 
11.379316

>  <Chi1v>  (38) 
11.379316

>  <Chi2n>  (38) 
8.653784

>  <Chi2v>  (38) 
8.653784

>  <Chi3n>  (38) 
6.424875

>  <Chi3v>  (38) 
6.424875

>  <Chi4n>  (38) 
4.225327

>  <Chi4v>  (38) 
4.225327

>  <HallKierAlpha>  (38) 
-2.91

>  <Ipc>  (38) 
15777873.299052

>  <Kappa1>  (38) 
26.343179

>  <Kappa2>  (38) 
12.362156

>  <Kappa3>  (38) 
6.326434

>  <LabuteASA>  (38) 
198.569223

>  <PEOE_VSA1>  (38) 
23.847362

>  <PEOE_VSA10>  (38) 
0.0

>  <PEOE_VSA11>  (38) 
22.998047

>  <PEOE_VSA12>  (38) 
0.0

>  <PEOE_VSA13>  (38) 
0.0

>  <PEOE_VSA14>  (38) 
0.0

>  <PEOE_VSA2>  (38) 
0.0

>  <PEOE_VSA3>  (38) 
0.0

>  <PEOE_VSA4>  (38) 
5.261892

>  <PEOE_VSA5>  (38) 
0.0

>  <PEOE_VSA6>  (38) 
25.980209

>  <PEOE_VSA7>  (38) 
74.165171

>  <PEOE_VSA8>  (38) 
6.544756

>  <PEOE_VSA9>  (38) 
39.923402

>  <SMR_VSA1>  (38) 
18.947452

>  <SMR_VSA10>  (38) 
0.0

>  <SMR_VSA2>  (38) 
5.261892

>  <SMR_VSA3>  (38) 
4.89991

>  <SMR_VSA4>  (38) 
5.917906

>  <SMR_VSA5>  (38) 
38.52493

>  <SMR_VSA6>  (38) 
48.576375

>  <SMR_VSA7>  (38) 
47.525105

>  <SMR_VSA8>  (38) 
0.0

>  <SMR_VSA9>  (38) 
29.067269

>  <SlogP_VSA1>  (38) 
18.947452

>  <SlogP_VSA10>  (38) 
0.0

>  <SlogP_VSA11>  (38) 
22.998047

>  <SlogP_VSA12>  (38) 
0.0

>  <SlogP_VSA2>  (38) 
53.476285

>  <SlogP_VSA3>  (38) 
11.835812

>  <SlogP_VSA4>  (38) 
17.249019

>  <SlogP_VSA5>  (38) 
37.816021

>  <SlogP_VSA6>  (38) 
36.398202

>  <SlogP_VSA7>  (38) 
0.0

>  <SlogP_VSA8>  (38) 
0.0

>  <SlogP_VSA9>  (38) 
0.0

>  <EState_VSA1>  (38) 
5.41499

>  <EState_VSA10>  (38) 
5.261892

>  <EState_VSA11>  (38) 
0.0

>  <EState_VSA2>  (38) 
5.917906

>  <EState_VSA3>  (38) 
11.499024

>  <EState_VSA4>  (38) 
49.414453

>  <EState_VSA5>  (38) 
5.563451

>  <EState_VSA6>  (38) 
28.43919

>  <EState_VSA7>  (38) 
30.331835

>  <EState_VSA8>  (38) 
37.930644

>  <EState_VSA9>  (38) 
18.947452

>  <VSA_EState1>  (38) 
21.583324

>  <VSA_EState10>  (38) 
0.0

>  <VSA_EState2>  (38) 
2.313268

>  <VSA_EState3>  (38) 
10.242105

>  <VSA_EState4>  (38) 
1.604647

>  <VSA_EState5>  (38) 
2.987344

>  <VSA_EState6>  (38) 
14.511702

>  <VSA_EState7>  (38) 
2.611085

>  <VSA_EState8>  (38) 
6.060729

>  <VSA_EState9>  (38) 
8.669129

>  <FractionCSP3>  (38) 
0.518519

>  <HeavyAtomCount>  (38) 
33

>  <NHOHCount>  (38) 
0

>  <NOCount>  (38) 
6

>  <NumAliphaticCarbocycles>  (38) 
0

>  <NumAliphaticHeterocycles>  (38) 
0

>  <NumAliphaticRings>  (38) 
0

>  <NumAromaticCarbocycles>  (38) 
2

>  <NumAromaticHeterocycles>  (38) 
0

>  <NumAromaticRings>  (38) 
2

>  <NumHAcceptors>  (38) 
6

>  <NumHDonors>  (38) 
0

>  <NumHeteroatoms>  (38) 
6

>  <NumRotatableBonds>  (38) 
13

>  <NumSaturatedCarbocycles>  (38) 
0

>  <NumSaturatedHeterocycles>  (38) 
0

>  <NumSaturatedRings>  (38) 
0

>  <RingCount>  (38) 
2

>  <MolLogP>  (38) 
5.09308

>  <MolMR>  (38) 
131.656

>  <fr_Al_COO>  (38) 
0

>  <fr_Al_OH>  (38) 
0

>  <fr_Al_OH_noTert>  (38) 
0

>  <fr_ArN>  (38) 
0

>  <fr_Ar_COO>  (38) 
0

>  <fr_Ar_N>  (38) 
0

>  <fr_Ar_NH>  (38) 
0

>  <fr_Ar_OH>  (38) 
0

>  <fr_COO>  (38) 
0

>  <fr_COO2>  (38) 
0

>  <fr_C_O>  (38) 
0

>  <fr_C_O_noCOO>  (38) 
0

>  <fr_C_S>  (38) 
0

>  <fr_HOCCN>  (38) 
0

>  <fr_Imine>  (38) 
0

>  <fr_NH0>  (38) 
2

>  <fr_NH1>  (38) 
0

>  <fr_NH2>  (38) 
0

>  <fr_N_O>  (38) 
0

>  <fr_Ndealkylation1>  (38) 
1

>  <fr_Ndealkylation2>  (38) 
0

>  <fr_Nhpyrrole>  (38) 
0

>  <fr_SH>  (38) 
0

>  <fr_aldehyde>  (38) 
0

>  <fr_alkyl_carbamate>  (38) 
0

>  <fr_alkyl_halide>  (38) 
0

>  <fr_allylic_oxid>  (38) 
0

>  <fr_amide>  (38) 
0

>  <fr_amidine>  (38) 
0

>  <fr_aniline>  (38) 
0

>  <fr_aryl_methyl>  (38) 
0

>  <fr_azide>  (38) 
0

>  <fr_azo>  (38) 
0

>  <fr_barbitur>  (38) 
0

>  <fr_benzene>  (38) 
2

>  <fr_benzodiazepine>  (38) 
0

>  <fr_bicyclic>  (38) 
0

>  <fr_diazo>  (38) 
0

>  <fr_dihydropyridine>  (38) 
0

>  <fr_epoxide>  (38) 
0

>  <fr_ester>  (38) 
0

>  <fr_ether>  (38) 
4

>  <fr_furan>  (38) 
0

>  <fr_guanido>  (38) 
0

>  <fr_halogen>  (38) 
0

>  <fr_hdrzine>  (38) 
0

>  <fr_hdrzone>  (38) 
0

>  <fr_imidazole>  (38) 
0

>  <fr_imide>  (38) 
0

>  <fr_isocyan>  (38) 
0

>  <fr_isothiocyan>  (38) 
0

>  <fr_ketone>  (38) 
0

>  <fr_ketone_Topliss>  (38) 
0

>  <fr_lactam>  (38) 
0

>  <fr_lactone>  (38) 
0

>  <fr_methoxy>  (38) 
4

>  <fr_morpholine>  (38) 
0

>  <fr_nitrile>  (38) 
1

>  <fr_nitro>  (38) 
0

>  <fr_nitro_arom>  (38) 
0

>  <fr_nitro_arom_nonortho>  (38) 
0

>  <fr_nitroso>  (38) 
0

>  <fr_oxazole>  (38) 
0

>  <fr_oxime>  (38) 
0

>  <fr_para_hydroxylation>  (38) 
0

>  <fr_phenol>  (38) 
0

>  <fr_phenol_noOrthoHbond>  (38) 
0

>  <fr_phos_acid>  (38) 
0

>  <fr_phos_ester>  (38) 
0

>  <fr_piperdine>  (38) 
0

>  <fr_piperzine>  (38) 
0

>  <fr_priamide>  (38) 
0

>  <fr_prisulfonamd>  (38) 
0

>  <fr_pyridine>  (38) 
0

>  <fr_quatN>  (38) 
0

>  <fr_sulfide>  (38) 
0

>  <fr_sulfonamd>  (38) 
0

>  <fr_sulfone>  (38) 
0

>  <fr_term_acetylene>  (38) 
0

>  <fr_tetrazole>  (38) 
0

>  <fr_thiazole>  (38) 
0

>  <fr_thiocyan>  (38) 
0

>  <fr_thiophene>  (38) 
0

>  <fr_unbrch_alkane>  (38) 
0

>  <fr_urea>  (38) 
0

>  <NP_Likeness>  (38) 
-0.073702

$$$$
CHEMBL4066936
     RDKit          3D

  0  0  0  0  0  0  0  0  0  0999 V3000
M  V30 BEGIN CTAB
M  V30 COUNTS 47 50 0 0 0
M  V30 BEGIN ATOM
M  V30 1 C 1.119435 -6.002953 5.625800 0
M  V30 2 O 2.157184 -5.638753 4.707242 0
M  V30 3 C 1.903863 -4.642631 3.750829 0
M  V30 4 O 0.733548 -4.180057 3.836392 0
M  V30 5 N 2.800317 -4.149533 2.763259 0
M  V30 6 C 2.215460 -3.120065 1.937239 0
M  V30 7 C 1.544702 -3.474984 0.763797 0
M  V30 8 N 1.419950 -4.832969 0.353570 0
M  V30 9 N 1.020108 -2.458111 0.038116 0
M  V30 10 C 1.134238 -1.187674 0.417255 0
M  V30 11 C 0.569353 -0.090760 -0.362984 0
M  V30 12 N 0.608497 1.222341 -0.103754 0
M  V30 13 N -0.021832 1.929855 -1.050257 0
M  V30 14 C -0.073093 3.371822 -0.914534 0
M  V30 15 C -1.260437 3.805264 -0.131989 0
M  V30 16 C -1.053141 4.181798 1.201547 0
M  V30 17 C -2.029527 4.608846 2.089692 0
M  V30 18 C -3.305584 4.660467 1.600235 0
M  V30 19 C -3.567992 4.303383 0.301229 0
M  V30 20 C -2.569067 3.885586 -0.545410 0
M  V30 21 F -2.812507 3.538963 -1.816904 0
M  V30 22 C -0.460423 1.015047 -1.917049 0
M  V30 23 N -1.153654 1.260988 -3.040419 0
M  V30 24 C -1.567144 0.294679 -3.876107 0
M  V30 25 C -1.227094 -1.007411 -3.500921 0
M  V30 26 F -1.620220 -2.023550 -4.309781 0
M  V30 27 C -0.513127 -1.307722 -2.351176 0
M  V30 28 C -0.123281 -0.256308 -1.542632 0
M  V30 29 N 1.792860 -0.897150 1.560784 0
M  V30 30 C 2.346676 -1.807724 2.351101 0
M  V30 31 N 3.042573 -1.511260 3.557911 0
M  V30 32 H 0.264079 -6.490898 5.133144 0
M  V30 33 H 1.560271 -6.547757 6.457820 0
M  V30 34 H 0.723672 -5.032881 6.030097 0
M  V30 35 H 3.744292 -4.605567 2.784546 0
M  V30 36 H 0.536736 -5.111312 0.861274 0
M  V30 37 H 2.267953 -4.953991 -0.275843 0
M  V30 38 H 0.842970 3.777514 -0.443447 0
M  V30 39 H -0.134654 3.792806 -1.944003 0
M  V30 40 H -0.031134 4.139790 1.592480 0
M  V30 41 H -1.746857 4.873246 3.097157 0
M  V30 42 H -4.115085 4.986278 2.244401 0
M  V30 43 H -4.574428 4.335776 -0.111952 0
M  V30 44 H -2.126637 0.494909 -4.782538 0
M  V30 45 H -0.247372 -2.291475 -2.052965 0
M  V30 46 H 4.042105 -1.212029 3.664104 0
M  V30 47 H 2.533533 -1.588107 4.475237 0
M  V30 END ATOM
M  V30 BEGIN BOND
M  V30 1 1 1 2
M  V30 2 1 2 3
M  V30 3 2 3 4
M  V30 4 1 3 5
M  V30 5 1 5 6
M  V30 6 2 6 7
M  V30 7 1 7 8
M  V30 8 1 7 9
M  V30 9 2 9 10
M  V30 10 1 10 11
M  V30 11 2 11 12
M  V30 12 1 12 13
M  V30 13 1 13 14
M  V30 14 1 14 15
M  V30 15 2 15 16
M  V30 16 1 16 17
M  V30 17 2 17 18
M  V30 18 1 18 19
M  V30 19 2 19 20
M  V30 20 1 20 21
M  V30 21 1 13 22
M  V30 22 2 22 23
M  V30 23 1 23 24
M  V30 24 2 24 25
M  V30 25 1 25 26
M  V30 26 1 25 27
M  V30 27 2 27 28
M  V30 28 1 10 29
M  V30 29 2 29 30
M  V30 30 1 30 31
M  V30 31 1 30 6
M  V30 32 1 28 11
M  V30 33 1 20 15
M  V30 34 1 28 22
M  V30 35 1 1 32
M  V30 36 1 1 33
M  V30 37 1 1 34
M  V30 38 1 5 35
M  V30 39 1 8 36
M  V30 40 1 8 37
M  V30 41 1 14 38
M  V30 42 1 14 39
M  V30 43 1 16 40
M  V30 44 1 17 41
M  V30 45 1 18 42
M  V30 46 1 19 43
M  V30 47 1 24 44
M  V30 48 1 27 45
M  V30 49 1 31 46
M  V30 50 1 31 47
M  V30 END BOND
M  V30 END CTAB
M  END
>  <Dataset>  (39) 
OralDrugs

>  <Ligand_Instance>  (39) 
nan

>  <PDB_ID>  (39) 
nan

>  <Standardized_SMILES>  (39) 
COC(=O)Nc1c(N)nc(-c2nn(Cc3ccccc3F)c3ncc(F)cc23)nc1N

>  <Name>  (39) 
Vericiguat

>  <Pocket>  (39) 
nan

>  <ATP_Site>  (39) 
nan

>  <Peripheral>  (39) 
nan

>  <Num_H_Atoms_ProtBoundConf>  (39) 
nan

>  <Num_Resolved_Atoms>  (39) 
nan

>  <Num_Not_Resolved_Atoms>  (39) 
nan

>  <2D_Mol_H>  (39) 
<rdkit.Chem.rdchem.Mol object at 0x72a238bbc6d0>

>  <MW>  (39) 
426.387

>  <HBA>  (39) 
9

>  <HBD>  (39) 
3

>  <LogP>  (39) 
2.5575

>  <NRB>  (39) 
7

>  <TPSA>  (39) 
146.86

>  <Num_Heavy_Atoms>  (39) 
31

>  <Ro5>  (39) 
[True, True, True, True, True, False]

>  <Ro5_Fulfilled>  (39) 
True

>  <Ro3>  (39) 
[False, False, True, True]

>  <Ro3_Fulfilled>  (39) 
False

>  <Fsp3>  (39) 
0.105263

>  <Fsp3_0.42>  (39) 
False

>  <Fsp3_0.45>  (39) 
False

>  <Stereogenic_Carbons>  (39) 
0

>  <C_Atoms>  (39) 
19

>  <FCStereo>  (39) 
0.0

>  <SPS>  (39) 
339

>  <nSPS>  (39) 
10.935484

>  <PBF>  (39) 
1.089331

>  <PBF_0.6>  (39) 
True

>  <nPBF>  (39) 
0.03514

>  <nPBF_0.016>  (39) 
True

>  <PMI1>  (39) 
2385.30925

>  <PMI2>  (39) 
6983.606364

>  <PMI3>  (39) 
8499.827994

>  <NPR1>  (39) 
0.28063

>  <NPR2>  (39) 
0.821617

>  <Sum_NPR>  (39) 
1.102248

>  <Sum_NPR_1.07>  (39) 
True

>  <Sum_NPR_1.2>  (39) 
False

>  <MaxAbsEStateIndex>  (39) 
14.128939

>  <MaxEStateIndex>  (39) 
14.128939

>  <MinAbsEStateIndex>  (39) 
0.018426

>  <MinEStateIndex>  (39) 
-0.804966

>  <qed>  (39) 
0.451073

>  <MolWt>  (39) 
426.387

>  <HeavyAtomMolWt>  (39) 
410.259

>  <ExactMolWt>  (39) 
426.136428

>  <NumValenceElectrons>  (39) 
158

>  <NumRadicalElectrons>  (39) 
0

>  <MaxPartialCharge>  (39) 
0.411056

>  <MinPartialCharge>  (39) 
-0.452631

>  <MaxAbsPartialCharge>  (39) 
0.452631

>  <MinAbsPartialCharge>  (39) 
0.411056

>  <FpDensityMorgan1>  (39) 
1.193548

>  <FpDensityMorgan2>  (39) 
1.903226

>  <FpDensityMorgan3>  (39) 
2.580645

>  <BCUT2D_MWHI>  (39) 
19.14356

>  <BCUT2D_MWLOW>  (39) 
10.183329

>  <BCUT2D_CHGHI>  (39) 
2.206745

>  <BCUT2D_CHGLO>  (39) 
-2.095549

>  <BCUT2D_LOGPHI>  (39) 
2.303651

>  <BCUT2D_LOGPLOW>  (39) 
-2.157859

>  <BCUT2D_MRHI>  (39) 
5.941399

>  <BCUT2D_MRLOW>  (39) 
0.186651

>  <AvgIpc>  (39) 
3.090856

>  <BalabanJ>  (39) 
1.835913

>  <BertzCT>  (39) 
1284.552643

>  <Chi0>  (39) 
22.120591

>  <Chi0n>  (39) 
16.134402

>  <Chi0v>  (39) 
16.134402

>  <Chi1>  (39) 
14.867412

>  <Chi1n>  (39) 
8.908415

>  <Chi1v>  (39) 
8.908415

>  <Chi2n>  (39) 
6.431644

>  <Chi2v>  (39) 
6.431644

>  <Chi3n>  (39) 
4.420812

>  <Chi3v>  (39) 
4.420812

>  <Chi4n>  (39) 
2.980599

>  <Chi4v>  (39) 
2.980599

>  <HallKierAlpha>  (39) 
-4.35

>  <Ipc>  (39) 
11176910.991772

>  <Kappa1>  (39) 
19.944473

>  <Kappa2>  (39) 
7.817687

>  <Kappa3>  (39) 
3.774709

>  <LabuteASA>  (39) 
173.424042

>  <PEOE_VSA1>  (39) 
16.204198

>  <PEOE_VSA10>  (39) 
23.015756

>  <PEOE_VSA11>  (39) 
23.107307

>  <PEOE_VSA12>  (39) 
0.0

>  <PEOE_VSA13>  (39) 
0.0

>  <PEOE_VSA14>  (39) 
6.09324

>  <PEOE_VSA2>  (39) 
5.316789

>  <PEOE_VSA3>  (39) 
33.209106

>  <PEOE_VSA4>  (39) 
5.098682

>  <PEOE_VSA5>  (39) 
0.0

>  <PEOE_VSA6>  (39) 
18.199101

>  <PEOE_VSA7>  (39) 
12.132734

>  <PEOE_VSA8>  (39) 
5.563451

>  <PEOE_VSA9>  (39) 
25.237622

>  <SMR_VSA1>  (39) 
18.31223

>  <SMR_VSA10>  (39) 
34.449753

>  <SMR_VSA2>  (39) 
0.0

>  <SMR_VSA3>  (39) 
24.73242

>  <SMR_VSA4>  (39) 
0.0

>  <SMR_VSA5>  (39) 
6.544756

>  <SMR_VSA6>  (39) 
23.893921

>  <SMR_VSA7>  (39) 
53.726572

>  <SMR_VSA8>  (39) 
0.0

>  <SMR_VSA9>  (39) 
11.518332

>  <SlogP_VSA1>  (39) 
16.784124

>  <SlogP_VSA10>  (39) 
30.898479

>  <SlogP_VSA11>  (39) 
0.0

>  <SlogP_VSA12>  (39) 
0.0

>  <SlogP_VSA2>  (39) 
37.935458

>  <SlogP_VSA3>  (39) 
11.281619

>  <SlogP_VSA4>  (39) 
11.634442

>  <SlogP_VSA5>  (39) 
5.563451

>  <SlogP_VSA6>  (39) 
36.528679

>  <SlogP_VSA7>  (39) 
0.0

>  <SlogP_VSA8>  (39) 
22.551734

>  <SlogP_VSA9>  (39) 
0.0

>  <EState_VSA1>  (39) 
17.727682

>  <EState_VSA10>  (39) 
13.575367

>  <EState_VSA11>  (39) 
0.0

>  <EState_VSA2>  (39) 
46.419602

>  <EState_VSA3>  (39) 
5.563451

>  <EState_VSA4>  (39) 
6.196844

>  <EState_VSA5>  (39) 
23.924335

>  <EState_VSA6>  (39) 
18.199101

>  <EState_VSA7>  (39) 
0.0

>  <EState_VSA8>  (39) 
30.104269

>  <EState_VSA9>  (39) 
11.467335

>  <VSA_EState1>  (39) 
33.963653

>  <VSA_EState10>  (39) 
0.0

>  <VSA_EState2>  (39) 
23.789101

>  <VSA_EState3>  (39) 
7.001515

>  <VSA_EState4>  (39) 
12.582846

>  <VSA_EState5>  (39) 
-1.33321

>  <VSA_EState6>  (39) 
7.398098

>  <VSA_EState7>  (39) 
0.221424

>  <VSA_EState8>  (39) 
0.036458

>  <VSA_EState9>  (39) 
1.173448

>  <FractionCSP3>  (39) 
0.105263

>  <HeavyAtomCount>  (39) 
31

>  <NHOHCount>  (39) 
5

>  <NOCount>  (39) 
10

>  <NumAliphaticCarbocycles>  (39) 
0

>  <NumAliphaticHeterocycles>  (39) 
0

>  <NumAliphaticRings>  (39) 
0

>  <NumAromaticCarbocycles>  (39) 
1

>  <NumAromaticHeterocycles>  (39) 
3

>  <NumAromaticRings>  (39) 
4

>  <NumHAcceptors>  (39) 
9

>  <NumHDonors>  (39) 
3

>  <NumHeteroatoms>  (39) 
12

>  <NumRotatableBonds>  (39) 
4

>  <NumSaturatedCarbocycles>  (39) 
0

>  <NumSaturatedHeterocycles>  (39) 
0

>  <NumSaturatedRings>  (39) 
0

>  <RingCount>  (39) 
4

>  <MolLogP>  (39) 
2.5575

>  <MolMR>  (39) 
108.8665

>  <fr_Al_COO>  (39) 
0

>  <fr_Al_OH>  (39) 
0

>  <fr_Al_OH_noTert>  (39) 
0

>  <fr_ArN>  (39) 
2

>  <fr_Ar_COO>  (39) 
0

>  <fr_Ar_N>  (39) 
5

>  <fr_Ar_NH>  (39) 
0

>  <fr_Ar_OH>  (39) 
0

>  <fr_COO>  (39) 
0

>  <fr_COO2>  (39) 
0

>  <fr_C_O>  (39) 
1

>  <fr_C_O_noCOO>  (39) 
1

>  <fr_C_S>  (39) 
0

>  <fr_HOCCN>  (39) 
0

>  <fr_Imine>  (39) 
0

>  <fr_NH0>  (39) 
5

>  <fr_NH1>  (39) 
1

>  <fr_NH2>  (39) 
2

>  <fr_N_O>  (39) 
0

>  <fr_Ndealkylation1>  (39) 
0

>  <fr_Ndealkylation2>  (39) 
0

>  <fr_Nhpyrrole>  (39) 
0

>  <fr_SH>  (39) 
0

>  <fr_aldehyde>  (39) 
0

>  <fr_alkyl_carbamate>  (39) 
0

>  <fr_alkyl_halide>  (39) 
0

>  <fr_allylic_oxid>  (39) 
0

>  <fr_amide>  (39) 
1

>  <fr_amidine>  (39) 
0

>  <fr_aniline>  (39) 
3

>  <fr_aryl_methyl>  (39) 
0

>  <fr_azide>  (39) 
0

>  <fr_azo>  (39) 
0

>  <fr_barbitur>  (39) 
0

>  <fr_benzene>  (39) 
1

>  <fr_benzodiazepine>  (39) 
0

>  <fr_bicyclic>  (39) 
1

>  <fr_diazo>  (39) 
0

>  <fr_dihydropyridine>  (39) 
0

>  <fr_epoxide>  (39) 
0

>  <fr_ester>  (39) 
0

>  <fr_ether>  (39) 
1

>  <fr_furan>  (39) 
0

>  <fr_guanido>  (39) 
0

>  <fr_halogen>  (39) 
2

>  <fr_hdrzine>  (39) 
0

>  <fr_hdrzone>  (39) 
0

>  <fr_imidazole>  (39) 
0

>  <fr_imide>  (39) 
0

>  <fr_isocyan>  (39) 
0

>  <fr_isothiocyan>  (39) 
0

>  <fr_ketone>  (39) 
0

>  <fr_ketone_Topliss>  (39) 
0

>  <fr_lactam>  (39) 
0

>  <fr_lactone>  (39) 
0

>  <fr_methoxy>  (39) 
1

>  <fr_morpholine>  (39) 
0

>  <fr_nitrile>  (39) 
0

>  <fr_nitro>  (39) 
0

>  <fr_nitro_arom>  (39) 
0

>  <fr_nitro_arom_nonortho>  (39) 
0

>  <fr_nitroso>  (39) 
0

>  <fr_oxazole>  (39) 
0

>  <fr_oxime>  (39) 
0

>  <fr_para_hydroxylation>  (39) 
0

>  <fr_phenol>  (39) 
0

>  <fr_phenol_noOrthoHbond>  (39) 
0

>  <fr_phos_acid>  (39) 
0

>  <fr_phos_ester>  (39) 
0

>  <fr_piperdine>  (39) 
0

>  <fr_piperzine>  (39) 
0

>  <fr_priamide>  (39) 
0

>  <fr_prisulfonamd>  (39) 
0

>  <fr_pyridine>  (39) 
1

>  <fr_quatN>  (39) 
0

>  <fr_sulfide>  (39) 
0

>  <fr_sulfonamd>  (39) 
0

>  <fr_sulfone>  (39) 
0

>  <fr_term_acetylene>  (39) 
0

>  <fr_tetrazole>  (39) 
0

>  <fr_thiazole>  (39) 
0

>  <fr_thiocyan>  (39) 
0

>  <fr_thiophene>  (39) 
0

>  <fr_unbrch_alkane>  (39) 
0

>  <fr_urea>  (39) 
0

>  <NP_Likeness>  (39) 
-1.659898

$$$$
CHEMBL2107826
     RDKit          3D

  0  0  0  0  0  0  0  0  0  0999 V3000
M  V30 BEGIN CTAB
M  V30 COUNTS 61 65 0 0 0
M  V30 BEGIN ATOM
M  V30 1 O 3.669750 -1.795383 0.759058 0
M  V30 2 C 3.900170 -2.597194 1.731320 0
M  V30 3 N 2.866228 -2.926241 2.645615 0
M  V30 4 C 1.620283 -2.292728 2.354402 0
M  V30 5 C 1.267290 -1.058225 2.867883 0
M  V30 6 C 0.030022 -0.559949 2.504678 0
M  V30 7 C -0.843694 -1.230124 1.670809 0
M  V30 8 C -2.163894 -0.675985 1.295905 0
M  V30 9 C -2.115953 0.163630 0.049827 0 CFG=2
M  V30 10 C -1.214336 1.352129 0.129207 0
M  V30 11 C -1.768308 2.281039 -0.906824 0
M  V30 12 C -3.226508 1.957439 -0.914808 0 CFG=2
M  V30 13 C -4.109612 3.068126 -0.388786 0 CFG=2
M  V30 14 O -3.857002 3.379122 0.920775 0
M  V30 15 C -5.516464 2.755965 -0.691772 0
M  V30 16 C -6.259329 1.926295 0.123080 0
M  V30 17 C -7.586324 1.616587 -0.140229 0
M  V30 18 C -8.203683 2.150631 -1.257003 0
M  V30 19 C -7.501403 2.984469 -2.099911 0
M  V30 20 C -6.174588 3.272867 -1.805452 0
M  V30 21 N -3.429278 0.749750 -0.136753 0
M  V30 22 C -0.455972 -2.476293 1.168837 0
M  V30 23 C 0.775426 -2.994896 1.517495 0
M  V30 24 C 5.311981 -2.940052 1.549316 0 CFG=2
M  V30 25 C 5.830966 -2.086323 0.375518 0
M  V30 26 C 7.095585 -2.839886 0.000703 0
M  V30 27 C 6.618819 -4.261825 0.149460 0
M  V30 28 N 7.110852 -5.332920 -0.486372 0
M  V30 29 C 6.604982 -6.573889 -0.287653 0
M  V30 30 C 5.559389 -6.630522 0.610330 0
M  V30 31 C 5.106245 -5.497482 1.224532 0
M  V30 32 O 4.164348 -5.716945 2.000589 0
M  V30 33 N 5.585967 -4.253155 1.049413 0
M  V30 34 H 3.242767 -3.566760 3.350604 0
M  V30 35 H 1.972292 -0.577031 3.507077 0
M  V30 36 H -0.254490 0.402019 2.899916 0
M  V30 37 H -2.653032 -0.127392 2.121533 0
M  V30 38 H -2.828247 -1.535576 1.069518 0
M  V30 39 H -1.834240 -0.448748 -0.813960 0
M  V30 40 H -0.207581 1.038250 -0.181988 0
M  V30 41 H -1.149044 1.798653 1.137302 0
M  V30 42 H -1.273739 2.070533 -1.883833 0
M  V30 43 H -1.552054 3.344837 -0.692833 0
M  V30 44 H -3.509635 1.691376 -1.953639 0
M  V30 45 H -3.856614 3.987239 -0.994495 0
M  V30 46 H -3.340026 2.731389 1.436322 0
M  V30 47 H -5.793777 1.498715 1.001652 0
M  V30 48 H -8.132955 0.958400 0.529325 0
M  V30 49 H -9.245774 1.921098 -1.483870 0
M  V30 50 H -7.972287 3.414746 -2.985349 0
M  V30 51 H -5.594954 3.928026 -2.452681 0
M  V30 52 H -4.099223 0.078129 -0.592845 0
M  V30 53 H -1.167745 -2.979749 0.513505 0
M  V30 54 H 1.034541 -3.965890 1.103964 0
M  V30 55 H 5.937288 -2.712226 2.440271 0
M  V30 56 H 5.992023 -1.044992 0.649755 0
M  V30 57 H 5.101453 -2.218198 -0.441671 0
M  V30 58 H 7.330596 -2.639698 -1.058357 0
M  V30 59 H 7.917393 -2.638520 0.696790 0
M  V30 60 H 7.061741 -7.358609 -0.837150 0
M  V30 61 H 5.155554 -7.628669 0.767376 0
M  V30 END ATOM
M  V30 BEGIN BOND
M  V30 1 2 1 2
M  V30 2 1 2 3
M  V30 3 1 3 4
M  V30 4 2 4 5
M  V30 5 1 5 6
M  V30 6 2 6 7
M  V30 7 1 7 8
M  V30 8 1 8 9
M  V30 9 1 9 10
M  V30 10 1 10 11
M  V30 11 1 11 12
M  V30 12 1 12 13
M  V30 13 1 13 14
M  V30 14 1 13 15
M  V30 15 2 15 16
M  V30 16 1 16 17
M  V30 17 2 17 18
M  V30 18 1 18 19
M  V30 19 2 19 20
M  V30 20 1 12 21
M  V30 21 1 7 22
M  V30 22 2 22 23
M  V30 23 1 2 24
M  V30 24 1 24 25
M  V30 25 1 25 26
M  V30 26 1 26 27
M  V30 27 2 27 28
M  V30 28 1 28 29
M  V30 29 2 29 30
M  V30 30 1 30 31
M  V30 31 2 31 32
M  V30 32 1 31 33
M  V30 33 1 23 4
M  V30 34 1 33 24
M  V30 35 1 21 9
M  V30 36 1 33 27
M  V30 37 1 20 15
M  V30 38 1 3 34
M  V30 39 1 5 35
M  V30 40 1 6 36
M  V30 41 1 8 37
M  V30 42 1 8 38
M  V30 43 1 9 39 CFG=3
M  V30 44 1 10 40
M  V30 45 1 10 41
M  V30 46 1 11 42
M  V30 47 1 11 43
M  V30 48 1 12 44 CFG=3
M  V30 49 1 13 45 CFG=3
M  V30 50 1 14 46
M  V30 51 1 16 47
M  V30 52 1 17 48
M  V30 53 1 18 49
M  V30 54 1 19 50
M  V30 55 1 20 51
M  V30 56 1 21 52
M  V30 57 1 22 53
M  V30 58 1 23 54
M  V30 59 1 24 55 CFG=1
M  V30 60 1 25 56
M  V30 61 1 25 57
M  V30 62 1 26 58
M  V30 63 1 26 59
M  V30 64 1 29 60
M  V30 65 1 30 61
M  V30 END BOND
M  V30 END CTAB
M  END
>  <Dataset>  (40) 
OralDrugs

>  <Ligand_Instance>  (40) 
nan

>  <PDB_ID>  (40) 
nan

>  <Standardized_SMILES>  (40) 
O=C(Nc1ccc(C[C@@H]2CC[C@H]([C@H](O)c3ccccc3)N2)cc1)[C@@H]1CCc2nccc(=O)n21

>  <Name>  (40) 
Vibegron

>  <Pocket>  (40) 
nan

>  <ATP_Site>  (40) 
nan

>  <Peripheral>  (40) 
nan

>  <Num_H_Atoms_ProtBoundConf>  (40) 
nan

>  <Num_Resolved_Atoms>  (40) 
nan

>  <Num_Not_Resolved_Atoms>  (40) 
nan

>  <2D_Mol_H>  (40) 
<rdkit.Chem.rdchem.Mol object at 0x72a238bbc7b0>

>  <MW>  (40) 
444.535

>  <HBA>  (40) 
6

>  <HBD>  (40) 
3

>  <LogP>  (40) 
2.766

>  <NRB>  (40) 
7

>  <TPSA>  (40) 
96.25

>  <Num_Heavy_Atoms>  (40) 
33

>  <Ro5>  (40) 
[True, True, True, True, True, True]

>  <Ro5_Fulfilled>  (40) 
True

>  <Ro3>  (40) 
[False, False, True, True]

>  <Ro3_Fulfilled>  (40) 
False

>  <Fsp3>  (40) 
0.346154

>  <Fsp3_0.42>  (40) 
False

>  <Fsp3_0.45>  (40) 
False

>  <Stereogenic_Carbons>  (40) 
4

>  <C_Atoms>  (40) 
26

>  <FCStereo>  (40) 
0.153846

>  <SPS>  (40) 
747

>  <nSPS>  (40) 
22.636364

>  <PBF>  (40) 
1.024082

>  <PBF_0.6>  (40) 
True

>  <nPBF>  (40) 
0.031033

>  <nPBF_0.016>  (40) 
True

>  <PMI1>  (40) 
1247.646033

>  <PMI2>  (40) 
14293.739633

>  <PMI3>  (40) 
14477.597369

>  <NPR1>  (40) 
0.086178

>  <NPR2>  (40) 
0.987301

>  <Sum_NPR>  (40) 
1.073478

>  <Sum_NPR_1.07>  (40) 
True

>  <Sum_NPR_1.2>  (40) 
False

>  <MaxAbsEStateIndex>  (40) 
12.777881

>  <MaxEStateIndex>  (40) 
12.777881

>  <MinAbsEStateIndex>  (40) 
0.058469

>  <MinEStateIndex>  (40) 
-0.517092

>  <qed>  (40) 
0.543393

>  <MolWt>  (40) 
444.535

>  <HeavyAtomMolWt>  (40) 
416.311

>  <ExactMolWt>  (40) 
444.216141

>  <NumValenceElectrons>  (40) 
170

>  <NumRadicalElectrons>  (40) 
0

>  <MaxPartialCharge>  (40) 
0.253686

>  <MinPartialCharge>  (40) 
-0.386782

>  <MaxAbsPartialCharge>  (40) 
0.386782

>  <MinAbsPartialCharge>  (40) 
0.253686

>  <FpDensityMorgan1>  (40) 
1.090909

>  <FpDensityMorgan2>  (40) 
1.878788

>  <FpDensityMorgan3>  (40) 
2.666667

>  <BCUT2D_MWHI>  (40) 
16.268779

>  <BCUT2D_MWLOW>  (40) 
10.006236

>  <BCUT2D_CHGHI>  (40) 
2.307584

>  <BCUT2D_CHGLO>  (40) 
-2.203152

>  <BCUT2D_LOGPHI>  (40) 
2.272336

>  <BCUT2D_LOGPLOW>  (40) 
-2.34654

>  <BCUT2D_MRHI>  (40) 
5.935649

>  <BCUT2D_MRLOW>  (40) 
-0.118689

>  <AvgIpc>  (40) 
3.485094

>  <BalabanJ>  (40) 
1.166134

>  <BertzCT>  (40) 
1176.146318

>  <Chi0>  (40) 
22.785882

>  <Chi0n>  (40) 
18.353925

>  <Chi0v>  (40) 
18.353925

>  <Chi1>  (40) 
16.08052

>  <Chi1n>  (40) 
11.535858

>  <Chi1v>  (40) 
11.535858

>  <Chi2n>  (40) 
8.917031

>  <Chi2v>  (40) 
8.917031

>  <Chi3n>  (40) 
6.713597

>  <Chi3v>  (40) 
6.713597

>  <Chi4n>  (40) 
4.995443

>  <Chi4v>  (40) 
4.995443

>  <HallKierAlpha>  (40) 
-3.29

>  <Ipc>  (40) 
62065781.695566

>  <Kappa1>  (40) 
21.550211

>  <Kappa2>  (40) 
9.291161

>  <Kappa3>  (40) 
4.602556

>  <LabuteASA>  (40) 
192.04962

>  <PEOE_VSA1>  (40) 
15.740105

>  <PEOE_VSA10>  (40) 
11.866245

>  <PEOE_VSA11>  (40) 
0.0

>  <PEOE_VSA12>  (40) 
5.90718

>  <PEOE_VSA13>  (40) 
5.559267

>  <PEOE_VSA14>  (40) 
0.0

>  <PEOE_VSA2>  (40) 
14.156174

>  <PEOE_VSA3>  (40) 
4.983979

>  <PEOE_VSA4>  (40) 
0.0

>  <PEOE_VSA5>  (40) 
0.0

>  <PEOE_VSA6>  (40) 
42.464569

>  <PEOE_VSA7>  (40) 
48.942924

>  <PEOE_VSA8>  (40) 
36.4551

>  <PEOE_VSA9>  (40) 
6.103966

>  <SMR_VSA1>  (40) 
9.901065

>  <SMR_VSA10>  (40) 
11.594566

>  <SMR_VSA2>  (40) 
0.0

>  <SMR_VSA3>  (40) 
14.867867

>  <SMR_VSA4>  (40) 
0.0

>  <SMR_VSA5>  (40) 
56.333597

>  <SMR_VSA6>  (40) 
5.316789

>  <SMR_VSA7>  (40) 
94.165626

>  <SMR_VSA8>  (40) 
0.0

>  <SMR_VSA9>  (40) 
0.0

>  <SlogP_VSA1>  (40) 
16.192844

>  <SlogP_VSA10>  (40) 
5.687386

>  <SlogP_VSA11>  (40) 
0.0

>  <SlogP_VSA12>  (40) 
0.0

>  <SlogP_VSA2>  (40) 
32.648467

>  <SlogP_VSA3>  (40) 
17.63618

>  <SlogP_VSA4>  (40) 
0.0

>  <SlogP_VSA5>  (40) 
48.35958

>  <SlogP_VSA6>  (40) 
71.655051

>  <SlogP_VSA7>  (40) 
0.0

>  <SlogP_VSA8>  (40) 
0.0

>  <SlogP_VSA9>  (40) 
0.0

>  <EState_VSA1>  (40) 
12.145807

>  <EState_VSA10>  (40) 
14.695602

>  <EState_VSA11>  (40) 
0.0

>  <EState_VSA2>  (40) 
17.508287

>  <EState_VSA3>  (40) 
30.395275

>  <EState_VSA4>  (40) 
24.825916

>  <EState_VSA5>  (40) 
22.393762

>  <EState_VSA6>  (40) 
0.0

>  <EState_VSA7>  (40) 
54.597304

>  <EState_VSA8>  (40) 
15.617556

>  <EState_VSA9>  (40) 
0.0

>  <VSA_EState1>  (40) 
1.495785

>  <VSA_EState10>  (40) 
0.0

>  <VSA_EState2>  (40) 
29.147526

>  <VSA_EState3>  (40) 
17.180994

>  <VSA_EState4>  (40) 
2.642872

>  <VSA_EState5>  (40) 
0.476435

>  <VSA_EState6>  (40) 
18.874327

>  <VSA_EState7>  (40) 
5.015395

>  <VSA_EState8>  (40) 
0.0

>  <VSA_EState9>  (40) 
0.0

>  <FractionCSP3>  (40) 
0.346154

>  <HeavyAtomCount>  (40) 
33

>  <NHOHCount>  (40) 
3

>  <NOCount>  (40) 
7

>  <NumAliphaticCarbocycles>  (40) 
0

>  <NumAliphaticHeterocycles>  (40) 
2

>  <NumAliphaticRings>  (40) 
2

>  <NumAromaticCarbocycles>  (40) 
2

>  <NumAromaticHeterocycles>  (40) 
1

>  <NumAromaticRings>  (40) 
3

>  <NumHAcceptors>  (40) 
6

>  <NumHDonors>  (40) 
3

>  <NumHeteroatoms>  (40) 
7

>  <NumRotatableBonds>  (40) 
6

>  <NumSaturatedCarbocycles>  (40) 
0

>  <NumSaturatedHeterocycles>  (40) 
1

>  <NumSaturatedRings>  (40) 
1

>  <RingCount>  (40) 
5

>  <MolLogP>  (40) 
2.766

>  <MolMR>  (40) 
125.9782

>  <fr_Al_COO>  (40) 
0

>  <fr_Al_OH>  (40) 
1

>  <fr_Al_OH_noTert>  (40) 
1

>  <fr_ArN>  (40) 
0

>  <fr_Ar_COO>  (40) 
0

>  <fr_Ar_N>  (40) 
2

>  <fr_Ar_NH>  (40) 
0

>  <fr_Ar_OH>  (40) 
0

>  <fr_COO>  (40) 
0

>  <fr_COO2>  (40) 
0

>  <fr_C_O>  (40) 
1

>  <fr_C_O_noCOO>  (40) 
1

>  <fr_C_S>  (40) 
0

>  <fr_HOCCN>  (40) 
0

>  <fr_Imine>  (40) 
0

>  <fr_NH0>  (40) 
2

>  <fr_NH1>  (40) 
2

>  <fr_NH2>  (40) 
0

>  <fr_N_O>  (40) 
0

>  <fr_Ndealkylation1>  (40) 
0

>  <fr_Ndealkylation2>  (40) 
0

>  <fr_Nhpyrrole>  (40) 
0

>  <fr_SH>  (40) 
0

>  <fr_aldehyde>  (40) 
0

>  <fr_alkyl_carbamate>  (40) 
0

>  <fr_alkyl_halide>  (40) 
0

>  <fr_allylic_oxid>  (40) 
0

>  <fr_amide>  (40) 
1

>  <fr_amidine>  (40) 
0

>  <fr_aniline>  (40) 
1

>  <fr_aryl_methyl>  (40) 
1

>  <fr_azide>  (40) 
0

>  <fr_azo>  (40) 
0

>  <fr_barbitur>  (40) 
0

>  <fr_benzene>  (40) 
2

>  <fr_benzodiazepine>  (40) 
0

>  <fr_bicyclic>  (40) 
1

>  <fr_diazo>  (40) 
0

>  <fr_dihydropyridine>  (40) 
0

>  <fr_epoxide>  (40) 
0

>  <fr_ester>  (40) 
0

>  <fr_ether>  (40) 
0

>  <fr_furan>  (40) 
0

>  <fr_guanido>  (40) 
0

>  <fr_halogen>  (40) 
0

>  <fr_hdrzine>  (40) 
0

>  <fr_hdrzone>  (40) 
0

>  <fr_imidazole>  (40) 
0

>  <fr_imide>  (40) 
0

>  <fr_isocyan>  (40) 
0

>  <fr_isothiocyan>  (40) 
0

>  <fr_ketone>  (40) 
0

>  <fr_ketone_Topliss>  (40) 
0

>  <fr_lactam>  (40) 
0

>  <fr_lactone>  (40) 
0

>  <fr_methoxy>  (40) 
0

>  <fr_morpholine>  (40) 
0

>  <fr_nitrile>  (40) 
0

>  <fr_nitro>  (40) 
0

>  <fr_nitro_arom>  (40) 
0

>  <fr_nitro_arom_nonortho>  (40) 
0

>  <fr_nitroso>  (40) 
0

>  <fr_oxazole>  (40) 
0

>  <fr_oxime>  (40) 
0

>  <fr_para_hydroxylation>  (40) 
0

>  <fr_phenol>  (40) 
0

>  <fr_phenol_noOrthoHbond>  (40) 
0

>  <fr_phos_acid>  (40) 
0

>  <fr_phos_ester>  (40) 
0

>  <fr_piperdine>  (40) 
0

>  <fr_piperzine>  (40) 
0

>  <fr_priamide>  (40) 
0

>  <fr_prisulfonamd>  (40) 
0

>  <fr_pyridine>  (40) 
0

>  <fr_quatN>  (40) 
0

>  <fr_sulfide>  (40) 
0

>  <fr_sulfonamd>  (40) 
0

>  <fr_sulfone>  (40) 
0

>  <fr_term_acetylene>  (40) 
0

>  <fr_tetrazole>  (40) 
0

>  <fr_thiazole>  (40) 
0

>  <fr_thiocyan>  (40) 
0

>  <fr_thiophene>  (40) 
0

>  <fr_unbrch_alkane>  (40) 
0

>  <fr_urea>  (40) 
0

>  <NP_Likeness>  (40) 
-0.248982

$$$$
CHEMBL89598
     RDKit          3D

  0  0  0  0  0  0  0  0  0  0999 V3000
M  V30 BEGIN CTAB
M  V30 COUNTS 20 19 0 0 0
M  V30 BEGIN ATOM
M  V30 1 C 1.998457 -0.481602 2.338295 0
M  V30 2 C 0.673044 -0.411956 2.136524 0
M  V30 3 C 0.457411 0.620727 1.071478 0 CFG=1
M  V30 4 N 1.033045 1.896259 1.449797 0
M  V30 5 C 1.084075 0.076518 -0.191330 0
M  V30 6 C 0.382962 -1.232551 -0.525236 0
M  V30 7 C -1.060696 -1.083652 -0.749573 0
M  V30 8 O -1.713188 -2.118474 -1.030584 0
M  V30 9 O -2.020129 -0.056598 -0.747413 0
M  V30 10 H 3.039253 -0.670431 2.632303 0
M  V30 11 H 2.952977 -0.062995 2.009869 0
M  V30 12 H 0.662500 -1.169085 2.900665 0
M  V30 13 H -0.621281 0.809110 0.915884 0
M  V30 14 H 2.032409 1.740588 1.701117 0
M  V30 15 H 0.525795 2.230667 2.298787 0
M  V30 16 H 1.081588 0.769692 -1.038070 0
M  V30 17 H 2.138614 -0.191086 0.027298 0
M  V30 18 H 0.802371 -1.644298 -1.488057 0
M  V30 19 H 0.549613 -1.951302 0.302776 0
M  V30 20 H -2.438724 0.259352 -1.621095 0
M  V30 END ATOM
M  V30 BEGIN BOND
M  V30 1 2 1 2
M  V30 2 1 2 3
M  V30 3 1 3 4
M  V30 4 1 3 5
M  V30 5 1 5 6
M  V30 6 1 6 7
M  V30 7 2 7 8
M  V30 8 1 7 9
M  V30 9 1 1 10
M  V30 10 1 1 11
M  V30 11 1 2 12
M  V30 12 1 3 13 CFG=3
M  V30 13 1 4 14
M  V30 14 1 4 15
M  V30 15 1 5 16
M  V30 16 1 5 17
M  V30 17 1 6 18
M  V30 18 1 6 19
M  V30 19 1 9 20
M  V30 END BOND
M  V30 END CTAB
M  END
>  <Dataset>  (41) 
OralDrugs

>  <Ligand_Instance>  (41) 
nan

>  <PDB_ID>  (41) 
nan

>  <Standardized_SMILES>  (41) 
C=CC(N)CCC(=O)O

>  <Name>  (41) 
Vigabatrin

>  <Pocket>  (41) 
nan

>  <ATP_Site>  (41) 
nan

>  <Peripheral>  (41) 
nan

>  <Num_H_Atoms_ProtBoundConf>  (41) 
nan

>  <Num_Resolved_Atoms>  (41) 
nan

>  <Num_Not_Resolved_Atoms>  (41) 
nan

>  <2D_Mol_H>  (41) 
<rdkit.Chem.rdchem.Mol object at 0x72a238bbc890>

>  <MW>  (41) 
129.159

>  <HBA>  (41) 
3

>  <HBD>  (41) 
2

>  <LogP>  (41) 
0.3645

>  <NRB>  (41) 
5

>  <TPSA>  (41) 
63.32

>  <Num_Heavy_Atoms>  (41) 
9

>  <Ro5>  (41) 
[True, True, True, True, True, True]

>  <Ro5_Fulfilled>  (41) 
True

>  <Ro3>  (41) 
[True, True, True, True]

>  <Ro3_Fulfilled>  (41) 
True

>  <Fsp3>  (41) 
0.5

>  <Fsp3_0.42>  (41) 
True

>  <Fsp3_0.45>  (41) 
True

>  <Stereogenic_Carbons>  (41) 
1

>  <C_Atoms>  (41) 
6

>  <FCStereo>  (41) 
0.166667

>  <SPS>  (41) 
113

>  <nSPS>  (41) 
12.555556

>  <PBF>  (41) 
0.713063

>  <PBF_0.6>  (41) 
True

>  <nPBF>  (41) 
0.079229

>  <nPBF_0.016>  (41) 
True

>  <PMI1>  (41) 
170.510836

>  <PMI2>  (41) 
517.112292

>  <PMI3>  (41) 
581.400584

>  <NPR1>  (41) 
0.293276

>  <NPR2>  (41) 
0.889425

>  <Sum_NPR>  (41) 
1.182701

>  <Sum_NPR_1.07>  (41) 
True

>  <Sum_NPR_1.2>  (41) 
False

>  <MaxAbsEStateIndex>  (41) 
9.929827

>  <MaxEStateIndex>  (41) 
9.929827

>  <MinAbsEStateIndex>  (41) 
0.118241

>  <MinEStateIndex>  (41) 
-0.812685

>  <qed>  (41) 
0.538674

>  <MolWt>  (41) 
129.159

>  <HeavyAtomMolWt>  (41) 
118.071

>  <ExactMolWt>  (41) 
129.078979

>  <NumValenceElectrons>  (41) 
52

>  <NumRadicalElectrons>  (41) 
0

>  <MaxPartialCharge>  (41) 
0.302912

>  <MinPartialCharge>  (41) 
-0.48123

>  <MaxAbsPartialCharge>  (41) 
0.48123

>  <MinAbsPartialCharge>  (41) 
0.302912

>  <FpDensityMorgan1>  (41) 
1.888889

>  <FpDensityMorgan2>  (41) 
2.444444

>  <FpDensityMorgan3>  (41) 
2.777778

>  <BCUT2D_MWHI>  (41) 
16.365136

>  <BCUT2D_MWLOW>  (41) 
10.158303

>  <BCUT2D_CHGHI>  (41) 
1.994128

>  <BCUT2D_CHGLO>  (41) 
-1.999062

>  <BCUT2D_LOGPHI>  (41) 
1.930971

>  <BCUT2D_LOGPLOW>  (41) 
-2.169055

>  <BCUT2D_MRHI>  (41) 
5.661956

>  <BCUT2D_MRLOW>  (41) 
-0.136668

>  <AvgIpc>  (41) 
1.825885

>  <BalabanJ>  (41) 
3.264771

>  <BertzCT>  (41) 
111.625488

>  <Chi0>  (41) 
7.276021

>  <Chi0n>  (41) 
5.208833

>  <Chi0v>  (41) 
5.208833

>  <Chi1>  (41) 
4.163902

>  <Chi1n>  (41) 
2.764448

>  <Chi1v>  (41) 
2.764448

>  <Chi2n>  (41) 
1.831971

>  <Chi2v>  (41) 
1.831971

>  <Chi3n>  (41) 
0.994286

>  <Chi3v>  (41) 
0.994286

>  <Chi4n>  (41) 
0.407993

>  <Chi4v>  (41) 
0.407993

>  <HallKierAlpha>  (41) 
-0.83

>  <Ipc>  (41) 
78.513045

>  <Kappa1>  (41) 
8.17

>  <Kappa2>  (41) 
4.089266

>  <Kappa3>  (41) 
5.034194

>  <LabuteASA>  (41) 
54.170005

>  <PEOE_VSA1>  (41) 
10.840195

>  <PEOE_VSA10>  (41) 
0.0

>  <PEOE_VSA11>  (41) 
0.0

>  <PEOE_VSA12>  (41) 
0.0

>  <PEOE_VSA13>  (41) 
0.0

>  <PEOE_VSA14>  (41) 
5.969305

>  <PEOE_VSA2>  (41) 
4.794537

>  <PEOE_VSA3>  (41) 
0.0

>  <PEOE_VSA4>  (41) 
0.0

>  <PEOE_VSA5>  (41) 
6.578936

>  <PEOE_VSA6>  (41) 
6.07602

>  <PEOE_VSA7>  (41) 
6.420822

>  <PEOE_VSA8>  (41) 
12.462662

>  <PEOE_VSA9>  (41) 
0.0

>  <SMR_VSA1>  (41) 
9.901065

>  <SMR_VSA10>  (41) 
5.969305

>  <SMR_VSA2>  (41) 
0.0

>  <SMR_VSA3>  (41) 
0.0

>  <SMR_VSA4>  (41) 
5.733667

>  <SMR_VSA5>  (41) 
18.883484

>  <SMR_VSA6>  (41) 
0.0

>  <SMR_VSA7>  (41) 
12.654956

>  <SMR_VSA8>  (41) 
0.0

>  <SMR_VSA9>  (41) 
0.0

>  <SlogP_VSA1>  (41) 
5.733667

>  <SlogP_VSA10>  (41) 
0.0

>  <SlogP_VSA11>  (41) 
0.0

>  <SlogP_VSA12>  (41) 
0.0

>  <SlogP_VSA2>  (41) 
17.117674

>  <SlogP_VSA3>  (41) 
4.794537

>  <SlogP_VSA4>  (41) 
0.0

>  <SlogP_VSA5>  (41) 
12.841643

>  <SlogP_VSA6>  (41) 
12.654956

>  <SlogP_VSA7>  (41) 
0.0

>  <SlogP_VSA8>  (41) 
0.0

>  <SlogP_VSA9>  (41) 
0.0

>  <EState_VSA1>  (41) 
5.969305

>  <EState_VSA10>  (41) 
4.794537

>  <EState_VSA11>  (41) 
0.0

>  <EState_VSA2>  (41) 
12.462662

>  <EState_VSA3>  (41) 
6.420822

>  <EState_VSA4>  (41) 
0.0

>  <EState_VSA5>  (41) 
0.0

>  <EState_VSA6>  (41) 
6.07602

>  <EState_VSA7>  (41) 
0.0

>  <EState_VSA8>  (41) 
6.578936

>  <EState_VSA9>  (41) 
10.840195

>  <VSA_EState1>  (41) 
0.0

>  <VSA_EState10>  (41) 
0.0

>  <VSA_EState2>  (41) 
9.929827

>  <VSA_EState3>  (41) 
8.16803

>  <VSA_EState4>  (41) 
5.339861

>  <VSA_EState5>  (41) 
-0.812685

>  <VSA_EState6>  (41) 
-0.179537

>  <VSA_EState7>  (41) 
2.133889

>  <VSA_EState8>  (41) 
3.420615

>  <VSA_EState9>  (41) 
0.0

>  <FractionCSP3>  (41) 
0.5

>  <HeavyAtomCount>  (41) 
9

>  <NHOHCount>  (41) 
3

>  <NOCount>  (41) 
3

>  <NumAliphaticCarbocycles>  (41) 
0

>  <NumAliphaticHeterocycles>  (41) 
0

>  <NumAliphaticRings>  (41) 
0

>  <NumAromaticCarbocycles>  (41) 
0

>  <NumAromaticHeterocycles>  (41) 
0

>  <NumAromaticRings>  (41) 
0

>  <NumHAcceptors>  (41) 
2

>  <NumHDonors>  (41) 
2

>  <NumHeteroatoms>  (41) 
3

>  <NumRotatableBonds>  (41) 
4

>  <NumSaturatedCarbocycles>  (41) 
0

>  <NumSaturatedHeterocycles>  (41) 
0

>  <NumSaturatedRings>  (41) 
0

>  <RingCount>  (41) 
0

>  <MolLogP>  (41) 
0.3645

>  <MolMR>  (41) 
35.0422

>  <fr_Al_COO>  (41) 
1

>  <fr_Al_OH>  (41) 
0

>  <fr_Al_OH_noTert>  (41) 
0

>  <fr_ArN>  (41) 
0

>  <fr_Ar_COO>  (41) 
0

>  <fr_Ar_N>  (41) 
0

>  <fr_Ar_NH>  (41) 
0

>  <fr_Ar_OH>  (41) 
0

>  <fr_COO>  (41) 
1

>  <fr_COO2>  (41) 
1

>  <fr_C_O>  (41) 
1

>  <fr_C_O_noCOO>  (41) 
0

>  <fr_C_S>  (41) 
0

>  <fr_HOCCN>  (41) 
0

>  <fr_Imine>  (41) 
0

>  <fr_NH0>  (41) 
0

>  <fr_NH1>  (41) 
0

>  <fr_NH2>  (41) 
1

>  <fr_N_O>  (41) 
0

>  <fr_Ndealkylation1>  (41) 
0

>  <fr_Ndealkylation2>  (41) 
0

>  <fr_Nhpyrrole>  (41) 
0

>  <fr_SH>  (41) 
0

>  <fr_aldehyde>  (41) 
0

>  <fr_alkyl_carbamate>  (41) 
0

>  <fr_alkyl_halide>  (41) 
0

>  <fr_allylic_oxid>  (41) 
0

>  <fr_amide>  (41) 
0

>  <fr_amidine>  (41) 
0

>  <fr_aniline>  (41) 
0

>  <fr_aryl_methyl>  (41) 
0

>  <fr_azide>  (41) 
0

>  <fr_azo>  (41) 
0

>  <fr_barbitur>  (41) 
0

>  <fr_benzene>  (41) 
0

>  <fr_benzodiazepine>  (41) 
0

>  <fr_bicyclic>  (41) 
0

>  <fr_diazo>  (41) 
0

>  <fr_dihydropyridine>  (41) 
0

>  <fr_epoxide>  (41) 
0

>  <fr_ester>  (41) 
0

>  <fr_ether>  (41) 
0

>  <fr_furan>  (41) 
0

>  <fr_guanido>  (41) 
0

>  <fr_halogen>  (41) 
0

>  <fr_hdrzine>  (41) 
0

>  <fr_hdrzone>  (41) 
0

>  <fr_imidazole>  (41) 
0

>  <fr_imide>  (41) 
0

>  <fr_isocyan>  (41) 
0

>  <fr_isothiocyan>  (41) 
0

>  <fr_ketone>  (41) 
0

>  <fr_ketone_Topliss>  (41) 
0

>  <fr_lactam>  (41) 
0

>  <fr_lactone>  (41) 
0

>  <fr_methoxy>  (41) 
0

>  <fr_morpholine>  (41) 
0

>  <fr_nitrile>  (41) 
0

>  <fr_nitro>  (41) 
0

>  <fr_nitro_arom>  (41) 
0

>  <fr_nitro_arom_nonortho>  (41) 
0

>  <fr_nitroso>  (41) 
0

>  <fr_oxazole>  (41) 
0

>  <fr_oxime>  (41) 
0

>  <fr_para_hydroxylation>  (41) 
0

>  <fr_phenol>  (41) 
0

>  <fr_phenol_noOrthoHbond>  (41) 
0

>  <fr_phos_acid>  (41) 
0

>  <fr_phos_ester>  (41) 
0

>  <fr_piperdine>  (41) 
0

>  <fr_piperzine>  (41) 
0

>  <fr_priamide>  (41) 
0

>  <fr_prisulfonamd>  (41) 
0

>  <fr_pyridine>  (41) 
0

>  <fr_quatN>  (41) 
0

>  <fr_sulfide>  (41) 
0

>  <fr_sulfonamd>  (41) 
0

>  <fr_sulfone>  (41) 
0

>  <fr_term_acetylene>  (41) 
0

>  <fr_tetrazole>  (41) 
0

>  <fr_thiazole>  (41) 
0

>  <fr_thiocyan>  (41) 
0

>  <fr_thiophene>  (41) 
0

>  <fr_unbrch_alkane>  (41) 
0

>  <fr_urea>  (41) 
0

>  <NP_Likeness>  (41) 
1.303859

$$$$
CHEMBL439849
     RDKit          3D

  0  0  0  0  0  0  0  0  0  0999 V3000
M  V30 BEGIN CTAB
M  V30 COUNTS 60 64 0 0 0
M  V30 BEGIN ATOM
M  V30 1 N 0.556648 -3.624557 2.931130 0
M  V30 2 C 1.514295 -3.078725 2.546088 0
M  V30 3 C 2.700089 -2.413738 2.095287 0
M  V30 4 C 3.807204 -3.102381 1.663739 0
M  V30 5 C 4.937056 -2.401536 1.234572 0
M  V30 6 C 4.893544 -1.022992 1.262478 0
M  V30 7 N 5.866175 -0.168651 0.894683 0
M  V30 8 C 5.430159 1.097490 1.072717 0
M  V30 9 C 4.139445 1.048264 1.569313 0
M  V30 10 C 3.141797 2.101046 1.962967 0
M  V30 11 C 2.065722 2.241079 0.909261 0
M  V30 12 C 1.100290 3.323290 1.382463 0
M  V30 13 C -0.017583 3.522294 0.377458 0
M  V30 14 N -0.781166 2.355371 0.145439 0
M  V30 15 C -1.865673 2.460680 -0.784716 0
M  V30 16 C -2.920531 1.401569 -0.604645 0
M  V30 17 N -2.354514 0.135303 -0.164788 0
M  V30 18 C -2.918323 -1.109073 -0.551224 0
M  V30 19 C -4.081515 -1.236706 -1.277876 0
M  V30 20 C -4.605908 -2.461992 -1.648607 0
M  V30 21 C -3.962323 -3.644348 -1.292539 0
M  V30 22 O -4.252096 -4.894946 -1.518830 0
M  V30 23 C -3.328414 -5.685639 -0.974882 0
M  V30 24 C -3.175845 -7.136202 -0.934352 0
M  V30 25 N -4.150047 -7.956523 -1.570991 0
M  V30 26 O -2.218990 -7.737059 -0.361681 0
M  V30 27 C -2.405459 -4.848824 -0.370830 0
M  V30 28 C -2.799918 -3.544573 -0.567165 0
M  V30 29 C -2.319206 -2.306031 -0.223255 0
M  V30 30 C -1.179684 0.101653 0.697582 0
M  V30 31 C -1.067180 1.509798 1.245426 0
M  V30 32 C 3.807153 -0.295213 1.686454 0
M  V30 33 C 2.712779 -1.027471 2.101547 0
M  V30 34 H 3.706734 -4.193389 1.693395 0
M  V30 35 H 5.772091 -2.979762 0.908909 0
M  V30 36 H 6.812490 -0.348300 0.529443 0
M  V30 37 H 5.877769 2.070281 0.907954 0
M  V30 38 H 2.741073 1.886705 2.964245 0
M  V30 39 H 3.734601 3.034732 2.040095 0
M  V30 40 H 1.562879 1.299023 0.687403 0
M  V30 41 H 2.567884 2.569047 -0.024011 0
M  V30 42 H 0.770952 3.193763 2.414118 0
M  V30 43 H 1.695779 4.289554 1.395579 0
M  V30 44 H 0.490747 3.905791 -0.546684 0
M  V30 45 H -0.675190 4.356385 0.717416 0
M  V30 46 H -2.348093 3.448424 -0.638981 0
M  V30 47 H -1.488194 2.411767 -1.809304 0
M  V30 48 H -3.706458 1.782023 0.055053 0
M  V30 49 H -3.374192 1.218310 -1.599690 0
M  V30 50 H -4.624836 -0.374891 -1.581946 0
M  V30 51 H -5.522918 -2.536118 -2.220957 0
M  V30 52 H -4.762960 -7.712466 -2.393851 0
M  V30 53 H -4.411969 -8.934755 -1.321971 0
M  V30 54 H -1.509209 -5.127379 0.175117 0
M  V30 55 H -1.402195 -2.350897 0.344285 0
M  V30 56 H -0.332026 -0.131490 0.015528 0
M  V30 57 H -1.218705 -0.662301 1.467990 0
M  V30 58 H -0.406989 1.596250 2.093626 0
M  V30 59 H -2.090203 1.816799 1.614415 0
M  V30 60 H 1.829828 -0.472726 2.445469 0
M  V30 END ATOM
M  V30 BEGIN BOND
M  V30 1 3 1 2
M  V30 2 1 2 3
M  V30 3 2 3 4
M  V30 4 1 4 5
M  V30 5 2 5 6
M  V30 6 1 6 7
M  V30 7 1 7 8
M  V30 8 2 8 9
M  V30 9 1 9 10
M  V30 10 1 10 11
M  V30 11 1 11 12
M  V30 12 1 12 13
M  V30 13 1 13 14
M  V30 14 1 14 15
M  V30 15 1 15 16
M  V30 16 1 16 17
M  V30 17 1 17 18
M  V30 18 2 18 19
M  V30 19 1 19 20
M  V30 20 2 20 21
M  V30 21 1 21 22
M  V30 22 1 22 23
M  V30 23 1 23 24
M  V30 24 1 24 25
M  V30 25 2 24 26
M  V30 26 2 23 27
M  V30 27 1 27 28
M  V30 28 2 28 29
M  V30 29 1 17 30
M  V30 30 1 30 31
M  V30 31 1 9 32
M  V30 32 2 32 33
M  V30 33 1 33 3
M  V30 34 1 32 6
M  V30 35 1 31 14
M  V30 36 1 29 18
M  V30 37 1 28 21
M  V30 38 1 4 34
M  V30 39 1 5 35
M  V30 40 1 7 36
M  V30 41 1 8 37
M  V30 42 1 10 38
M  V30 43 1 10 39
M  V30 44 1 11 40
M  V30 45 1 11 41
M  V30 46 1 12 42
M  V30 47 1 12 43
M  V30 48 1 13 44
M  V30 49 1 13 45
M  V30 50 1 15 46
M  V30 51 1 15 47
M  V30 52 1 16 48
M  V30 53 1 16 49
M  V30 54 1 19 50
M  V30 55 1 20 51
M  V30 56 1 25 52
M  V30 57 1 25 53
M  V30 58 1 27 54
M  V30 59 1 29 55
M  V30 60 1 30 56
M  V30 61 1 30 57
M  V30 62 1 31 58
M  V30 63 1 31 59
M  V30 64 1 33 60
M  V30 END BOND
M  V30 END CTAB
M  END
>  <Dataset>  (42) 
OralDrugs

>  <Ligand_Instance>  (42) 
nan

>  <PDB_ID>  (42) 
nan

>  <Standardized_SMILES>  (42) 
N#Cc1ccc2[nH]cc(CCCCN3CCN(c4ccc5oc(C(N)=O)cc5c4)CC3)c2c1

>  <Name>  (42) 
Vilazodone

>  <Pocket>  (42) 
nan

>  <ATP_Site>  (42) 
nan

>  <Peripheral>  (42) 
nan

>  <Num_H_Atoms_ProtBoundConf>  (42) 
nan

>  <Num_Resolved_Atoms>  (42) 
nan

>  <Num_Not_Resolved_Atoms>  (42) 
nan

>  <2D_Mol_H>  (42) 
<rdkit.Chem.rdchem.Mol object at 0x72a238bbc970>

>  <MW>  (42) 
441.535

>  <HBA>  (42) 
5

>  <HBD>  (42) 
2

>  <LogP>  (42) 
4.02958

>  <NRB>  (42) 
7

>  <TPSA>  (42) 
102.29

>  <Num_Heavy_Atoms>  (42) 
33

>  <Ro5>  (42) 
[True, True, True, True, True, True]

>  <Ro5_Fulfilled>  (42) 
True

>  <Ro3>  (42) 
[False, False, True, False]

>  <Ro3_Fulfilled>  (42) 
False

>  <Fsp3>  (42) 
0.307692

>  <Fsp3_0.42>  (42) 
False

>  <Fsp3_0.45>  (42) 
False

>  <Stereogenic_Carbons>  (42) 
0

>  <C_Atoms>  (42) 
26

>  <FCStereo>  (42) 
0.0

>  <SPS>  (42) 
485

>  <nSPS>  (42) 
14.69697

>  <PBF>  (42) 
0.691012

>  <PBF_0.6>  (42) 
True

>  <nPBF>  (42) 
0.02094

>  <nPBF_0.016>  (42) 
True

>  <PMI1>  (42) 
3154.429719

>  <PMI2>  (42) 
7179.472442

>  <PMI3>  (42) 
9840.713283

>  <NPR1>  (42) 
0.320549

>  <NPR2>  (42) 
0.729568

>  <Sum_NPR>  (42) 
1.050117

>  <Sum_NPR_1.07>  (42) 
False

>  <Sum_NPR_1.2>  (42) 
False

>  <MaxAbsEStateIndex>  (42) 
11.351345

>  <MaxEStateIndex>  (42) 
11.351345

>  <MinAbsEStateIndex>  (42) 
0.199176

>  <MinEStateIndex>  (42) 
-0.543541

>  <qed>  (42) 
0.421693

>  <MolWt>  (42) 
441.535

>  <HeavyAtomMolWt>  (42) 
414.319

>  <ExactMolWt>  (42) 
441.216475

>  <NumValenceElectrons>  (42) 
168

>  <NumRadicalElectrons>  (42) 
0

>  <MaxPartialCharge>  (42) 
0.283959

>  <MinPartialCharge>  (42) 
-0.450925

>  <MaxAbsPartialCharge>  (42) 
0.450925

>  <MinAbsPartialCharge>  (42) 
0.283959

>  <FpDensityMorgan1>  (42) 
1.090909

>  <FpDensityMorgan2>  (42) 
1.939394

>  <FpDensityMorgan3>  (42) 
2.727273

>  <BCUT2D_MWHI>  (42) 
16.346409

>  <BCUT2D_MWLOW>  (42) 
10.050114

>  <BCUT2D_CHGHI>  (42) 
2.179638

>  <BCUT2D_CHGLO>  (42) 
-2.357588

>  <BCUT2D_LOGPHI>  (42) 
2.260836

>  <BCUT2D_LOGPLOW>  (42) 
-2.461754

>  <BCUT2D_MRHI>  (42) 
5.953121

>  <BCUT2D_MRLOW>  (42) 
0.097575

>  <AvgIpc>  (42) 
3.453439

>  <BalabanJ>  (42) 
1.10662

>  <BertzCT>  (42) 
1337.978238

>  <Chi0>  (42) 
22.785882

>  <Chi0n>  (42) 
18.511144

>  <Chi0v>  (42) 
18.511144

>  <Chi1>  (42) 
16.101688

>  <Chi1n>  (42) 
11.413722

>  <Chi1v>  (42) 
11.413722

>  <Chi2n>  (42) 
8.668906

>  <Chi2v>  (42) 
8.668906

>  <Chi3n>  (42) 
6.54715

>  <Chi3v>  (42) 
6.54715

>  <Chi4n>  (42) 
4.68421

>  <Chi4v>  (42) 
4.68421

>  <HallKierAlpha>  (42) 
-3.76

>  <Ipc>  (42) 
60429134.509203

>  <Kappa1>  (42) 
21.104969

>  <Kappa2>  (42) 
9.004597

>  <Kappa3>  (42) 
4.43151

>  <LabuteASA>  (42) 
191.912566

>  <PEOE_VSA1>  (42) 
20.034707

>  <PEOE_VSA10>  (42) 
5.58302

>  <PEOE_VSA11>  (42) 
5.760247

>  <PEOE_VSA12>  (42) 
0.0

>  <PEOE_VSA13>  (42) 
5.90718

>  <PEOE_VSA14>  (42) 
0.0

>  <PEOE_VSA2>  (42) 
9.694447

>  <PEOE_VSA3>  (42) 
0.0

>  <PEOE_VSA4>  (42) 
5.261892

>  <PEOE_VSA5>  (42) 
0.0

>  <PEOE_VSA6>  (42) 
0.0

>  <PEOE_VSA7>  (42) 
73.835242

>  <PEOE_VSA8>  (42) 
54.352405

>  <PEOE_VSA9>  (42) 
11.632673

>  <SMR_VSA1>  (42) 
9.211688

>  <SMR_VSA10>  (42) 
33.466735

>  <SMR_VSA2>  (42) 
5.261892

>  <SMR_VSA3>  (42) 
9.883888

>  <SMR_VSA4>  (42) 
5.733667

>  <SMR_VSA5>  (42) 
19.262465

>  <SMR_VSA6>  (42) 
37.623692

>  <SMR_VSA7>  (42) 
65.548563

>  <SMR_VSA8>  (42) 
0.0

>  <SMR_VSA9>  (42) 
6.069221

>  <SlogP_VSA1>  (42) 
10.633577

>  <SlogP_VSA10>  (42) 
5.687386

>  <SlogP_VSA11>  (42) 
0.0

>  <SlogP_VSA12>  (42) 
0.0

>  <SlogP_VSA2>  (42) 
48.51485

>  <SlogP_VSA3>  (42) 
6.420822

>  <SlogP_VSA4>  (42) 
11.331113

>  <SlogP_VSA5>  (42) 
34.523331

>  <SlogP_VSA6>  (42) 
53.078564

>  <SlogP_VSA7>  (42) 
0.0

>  <SlogP_VSA8>  (42) 
21.872169

>  <SlogP_VSA9>  (42) 
0.0

>  <EState_VSA1>  (42) 
5.90718

>  <EState_VSA10>  (42) 
4.794537

>  <EState_VSA11>  (42) 
0.0

>  <EState_VSA2>  (42) 
5.760247

>  <EState_VSA3>  (42) 
11.146472

>  <EState_VSA4>  (42) 
68.576558

>  <EState_VSA5>  (42) 
10.949676

>  <EState_VSA6>  (42) 
6.066367

>  <EState_VSA7>  (42) 
30.331835

>  <EState_VSA8>  (42) 
33.11623

>  <EState_VSA9>  (42) 
15.41271

>  <VSA_EState1>  (42) 
5.488231

>  <VSA_EState10>  (42) 
0.0

>  <VSA_EState2>  (42) 
19.574704

>  <VSA_EState3>  (42) 
11.224957

>  <VSA_EState4>  (42) 
10.258323

>  <VSA_EState5>  (42) 
-0.344365

>  <VSA_EState6>  (42) 
15.79038

>  <VSA_EState7>  (42) 
5.380423

>  <VSA_EState8>  (42) 
5.127348

>  <VSA_EState9>  (42) 
0.0

>  <FractionCSP3>  (42) 
0.307692

>  <HeavyAtomCount>  (42) 
33

>  <NHOHCount>  (42) 
3

>  <NOCount>  (42) 
7

>  <NumAliphaticCarbocycles>  (42) 
0

>  <NumAliphaticHeterocycles>  (42) 
1

>  <NumAliphaticRings>  (42) 
1

>  <NumAromaticCarbocycles>  (42) 
2

>  <NumAromaticHeterocycles>  (42) 
2

>  <NumAromaticRings>  (42) 
4

>  <NumHAcceptors>  (42) 
5

>  <NumHDonors>  (42) 
2

>  <NumHeteroatoms>  (42) 
7

>  <NumRotatableBonds>  (42) 
7

>  <NumSaturatedCarbocycles>  (42) 
0

>  <NumSaturatedHeterocycles>  (42) 
1

>  <NumSaturatedRings>  (42) 
1

>  <RingCount>  (42) 
5

>  <MolLogP>  (42) 
4.02958

>  <MolMR>  (42) 
129.3366

>  <fr_Al_COO>  (42) 
0

>  <fr_Al_OH>  (42) 
0

>  <fr_Al_OH_noTert>  (42) 
0

>  <fr_ArN>  (42) 
0

>  <fr_Ar_COO>  (42) 
0

>  <fr_Ar_N>  (42) 
1

>  <fr_Ar_NH>  (42) 
1

>  <fr_Ar_OH>  (42) 
0

>  <fr_COO>  (42) 
0

>  <fr_COO2>  (42) 
0

>  <fr_C_O>  (42) 
1

>  <fr_C_O_noCOO>  (42) 
1

>  <fr_C_S>  (42) 
0

>  <fr_HOCCN>  (42) 
0

>  <fr_Imine>  (42) 
0

>  <fr_NH0>  (42) 
3

>  <fr_NH1>  (42) 
1

>  <fr_NH2>  (42) 
1

>  <fr_N_O>  (42) 
0

>  <fr_Ndealkylation1>  (42) 
0

>  <fr_Ndealkylation2>  (42) 
0

>  <fr_Nhpyrrole>  (42) 
1

>  <fr_SH>  (42) 
0

>  <fr_aldehyde>  (42) 
0

>  <fr_alkyl_carbamate>  (42) 
0

>  <fr_alkyl_halide>  (42) 
0

>  <fr_allylic_oxid>  (42) 
0

>  <fr_amide>  (42) 
1

>  <fr_amidine>  (42) 
0

>  <fr_aniline>  (42) 
1

>  <fr_aryl_methyl>  (42) 
1

>  <fr_azide>  (42) 
0

>  <fr_azo>  (42) 
0

>  <fr_barbitur>  (42) 
0

>  <fr_benzene>  (42) 
2

>  <fr_benzodiazepine>  (42) 
0

>  <fr_bicyclic>  (42) 
2

>  <fr_diazo>  (42) 
0

>  <fr_dihydropyridine>  (42) 
0

>  <fr_epoxide>  (42) 
0

>  <fr_ester>  (42) 
0

>  <fr_ether>  (42) 
0

>  <fr_furan>  (42) 
1

>  <fr_guanido>  (42) 
0

>  <fr_halogen>  (42) 
0

>  <fr_hdrzine>  (42) 
0

>  <fr_hdrzone>  (42) 
0

>  <fr_imidazole>  (42) 
0

>  <fr_imide>  (42) 
0

>  <fr_isocyan>  (42) 
0

>  <fr_isothiocyan>  (42) 
0

>  <fr_ketone>  (42) 
0

>  <fr_ketone_Topliss>  (42) 
0

>  <fr_lactam>  (42) 
0

>  <fr_lactone>  (42) 
0

>  <fr_methoxy>  (42) 
0

>  <fr_morpholine>  (42) 
0

>  <fr_nitrile>  (42) 
1

>  <fr_nitro>  (42) 
0

>  <fr_nitro_arom>  (42) 
0

>  <fr_nitro_arom_nonortho>  (42) 
0

>  <fr_nitroso>  (42) 
0

>  <fr_oxazole>  (42) 
0

>  <fr_oxime>  (42) 
0

>  <fr_para_hydroxylation>  (42) 
0

>  <fr_phenol>  (42) 
0

>  <fr_phenol_noOrthoHbond>  (42) 
0

>  <fr_phos_acid>  (42) 
0

>  <fr_phos_ester>  (42) 
0

>  <fr_piperdine>  (42) 
0

>  <fr_piperzine>  (42) 
1

>  <fr_priamide>  (42) 
1

>  <fr_prisulfonamd>  (42) 
0

>  <fr_pyridine>  (42) 
0

>  <fr_quatN>  (42) 
0

>  <fr_sulfide>  (42) 
0

>  <fr_sulfonamd>  (42) 
0

>  <fr_sulfone>  (42) 
0

>  <fr_term_acetylene>  (42) 
0

>  <fr_tetrazole>  (42) 
0

>  <fr_thiazole>  (42) 
0

>  <fr_thiocyan>  (42) 
0

>  <fr_thiophene>  (42) 
0

>  <fr_unbrch_alkane>  (42) 
1

>  <fr_urea>  (42) 
0

>  <NP_Likeness>  (42) 
-1.199003

$$$$
CHEMBL142703
     RDKit          3D

  0  0  0  0  0  0  0  0  0  0999 V3000
M  V30 BEGIN CTAB
M  V30 COUNTS 47 50 0 0 0
M  V30 BEGIN ATOM
M  V30 1 N -2.556532 -3.856197 -3.733161 0
M  V30 2 C -1.411456 -3.874144 -3.554789 0
M  V30 3 C 0.042384 -3.885627 -3.306213 0 CFG=2
M  V30 4 C 0.405071 -5.136089 -2.595614 0
M  V30 5 C 0.676050 -4.685787 -1.177433 0
M  V30 6 C 0.136978 -3.272060 -1.168270 0
M  V30 7 N 0.438268 -2.745908 -2.508330 0
M  V30 8 C 0.940782 -1.533118 -3.048585 0
M  V30 9 O 1.094288 -1.623141 -4.330550 0
M  V30 10 C 1.381294 -0.178365 -2.796883 0
M  V30 11 N 1.290874 0.395017 -1.512393 0
M  V30 12 C 0.030450 0.816011 -1.018254 0 CFG=1
M  V30 13 C -1.034590 -0.192038 -0.816395 0
M  V30 14 C -2.290332 0.488263 -0.276677 0 CFG=2
M  V30 15 C -2.809769 1.582716 -1.144134 0
M  V30 16 C -1.690441 2.614038 -1.293829 0 CFG=1
M  V30 17 C -1.381300 3.220139 0.045886 0
M  V30 18 C -0.923972 2.087590 0.941148 0 CFG=1
M  V30 19 O -0.580123 2.548144 2.214369 0
M  V30 20 C -2.005765 1.062038 1.101021 0
M  V30 21 C 0.296847 1.468010 0.351079 0
M  V30 22 C -0.505745 1.949925 -1.901624 0
M  V30 23 H 0.550560 -3.888934 -4.302666 0
M  V30 24 H -0.470912 -5.849131 -2.580864 0
M  V30 25 H 1.311928 -5.660186 -2.995585 0
M  V30 26 H 0.182240 -5.352428 -0.449406 0
M  V30 27 H 1.778797 -4.647678 -0.980445 0
M  V30 28 H 0.713412 -2.664866 -0.414761 0
M  V30 29 H -0.937649 -3.249491 -0.984923 0
M  V30 30 H 2.496959 -0.130367 -3.059039 0
M  V30 31 H 0.958040 0.566295 -3.539388 0
M  V30 32 H 2.126127 0.868803 -1.160753 0
M  V30 33 H -1.339031 -0.732431 -1.730692 0
M  V30 34 H -0.765518 -0.890074 0.035897 0
M  V30 35 H -3.068864 -0.299349 -0.149072 0
M  V30 36 H -3.659229 2.044426 -0.620859 0
M  V30 37 H -3.121679 1.223476 -2.146978 0
M  V30 38 H -2.061519 3.378161 -1.989199 0
M  V30 39 H -0.524242 3.904790 -0.068983 0
M  V30 40 H -2.263226 3.730551 0.443364 0
M  V30 41 H -0.213162 1.751084 2.692424 0
M  V30 42 H -1.696861 0.294106 1.834555 0
M  V30 43 H -2.941227 1.542886 1.423171 0
M  V30 44 H 0.766897 0.713603 1.014542 0
M  V30 45 H 1.045845 2.259172 0.154014 0
M  V30 46 H 0.307346 2.721026 -1.955839 0
M  V30 47 H -0.790128 1.552473 -2.899475 0
M  V30 END ATOM
M  V30 BEGIN BOND
M  V30 1 3 1 2
M  V30 2 1 2 3
M  V30 3 1 3 4
M  V30 4 1 4 5
M  V30 5 1 5 6
M  V30 6 1 6 7
M  V30 7 1 7 8
M  V30 8 2 8 9
M  V30 9 1 8 10
M  V30 10 1 10 11
M  V30 11 1 12 11 CFG=3
M  V30 12 1 12 13
M  V30 13 1 13 14
M  V30 14 1 14 15
M  V30 15 1 15 16
M  V30 16 1 16 17
M  V30 17 1 17 18
M  V30 18 1 18 19 CFG=1
M  V30 19 1 18 20
M  V30 20 1 18 21
M  V30 21 1 16 22
M  V30 22 1 7 3
M  V30 23 1 21 12
M  V30 24 1 22 12
M  V30 25 1 20 14
M  V30 26 1 3 23 CFG=3
M  V30 27 1 4 24
M  V30 28 1 4 25
M  V30 29 1 5 26
M  V30 30 1 5 27
M  V30 31 1 6 28
M  V30 32 1 6 29
M  V30 33 1 10 30
M  V30 34 1 10 31
M  V30 35 1 11 32
M  V30 36 1 13 33
M  V30 37 1 13 34
M  V30 38 1 14 35 CFG=1
M  V30 39 1 15 36
M  V30 40 1 15 37
M  V30 41 1 16 38 CFG=3
M  V30 42 1 17 39
M  V30 43 1 17 40
M  V30 44 1 19 41
M  V30 45 1 20 42
M  V30 46 1 20 43
M  V30 47 1 21 44
M  V30 48 1 21 45
M  V30 49 1 22 46
M  V30 50 1 22 47
M  V30 END BOND
M  V30 END CTAB
M  END
>  <Dataset>  (43) 
OralDrugs

>  <Ligand_Instance>  (43) 
nan

>  <PDB_ID>  (43) 
nan

>  <Standardized_SMILES>  (43) 
N#C[C@@H]1CCCN1C(=O)CNC12CC3CC(CC(O)(C3)C1)C2

>  <Name>  (43) 
Vildagliptin

>  <Pocket>  (43) 
nan

>  <ATP_Site>  (43) 
nan

>  <Peripheral>  (43) 
nan

>  <Num_H_Atoms_ProtBoundConf>  (43) 
nan

>  <Num_Resolved_Atoms>  (43) 
nan

>  <Num_Not_Resolved_Atoms>  (43) 
nan

>  <2D_Mol_H>  (43) 
<rdkit.Chem.rdchem.Mol object at 0x72a238bbca50>

>  <MW>  (43) 
303.406

>  <HBA>  (43) 
4

>  <HBD>  (43) 
2

>  <LogP>  (43) 
1.17428

>  <NRB>  (43) 
4

>  <TPSA>  (43) 
76.36

>  <Num_Heavy_Atoms>  (43) 
22

>  <Ro5>  (43) 
[True, True, True, True, True, True]

>  <Ro5_Fulfilled>  (43) 
True

>  <Ro3>  (43) 
[False, False, True, True]

>  <Ro3_Fulfilled>  (43) 
False

>  <Fsp3>  (43) 
0.882353

>  <Fsp3_0.42>  (43) 
True

>  <Fsp3_0.45>  (43) 
True

>  <Stereogenic_Carbons>  (43) 
5

>  <C_Atoms>  (43) 
17

>  <FCStereo>  (43) 
0.294118

>  <SPS>  (43) 
1012

>  <nSPS>  (43) 
46.0

>  <PBF>  (43) 
1.0724

>  <PBF_0.6>  (43) 
True

>  <nPBF>  (43) 
0.048745

>  <nPBF_0.016>  (43) 
True

>  <PMI1>  (43) 
894.643379

>  <PMI2>  (43) 
3026.977555

>  <PMI3>  (43) 
3095.414854

>  <NPR1>  (43) 
0.289022

>  <NPR2>  (43) 
0.977891

>  <Sum_NPR>  (43) 
1.266913

>  <Sum_NPR_1.07>  (43) 
True

>  <Sum_NPR_1.2>  (43) 
True

>  <MaxAbsEStateIndex>  (43) 
12.437355

>  <MaxEStateIndex>  (43) 
12.437355

>  <MinAbsEStateIndex>  (43) 
0.04528

>  <MinEStateIndex>  (43) 
-0.497059

>  <qed>  (43) 
0.820503

>  <MolWt>  (43) 
303.406

>  <HeavyAtomMolWt>  (43) 
278.206

>  <ExactMolWt>  (43) 
303.194677

>  <NumValenceElectrons>  (43) 
120

>  <NumRadicalElectrons>  (43) 
0

>  <MaxPartialCharge>  (43) 
0.237115

>  <MinPartialCharge>  (43) 
-0.389799

>  <MaxAbsPartialCharge>  (43) 
0.389799

>  <MinAbsPartialCharge>  (43) 
0.237115

>  <FpDensityMorgan1>  (43) 
1.318182

>  <FpDensityMorgan2>  (43) 
2.045455

>  <FpDensityMorgan3>  (43) 
2.681818

>  <BCUT2D_MWHI>  (43) 
16.284391

>  <BCUT2D_MWLOW>  (43) 
9.508581

>  <BCUT2D_CHGHI>  (43) 
2.566257

>  <BCUT2D_CHGLO>  (43) 
-2.600845

>  <BCUT2D_LOGPHI>  (43) 
2.568888

>  <BCUT2D_LOGPLOW>  (43) 
-2.65034

>  <BCUT2D_MRHI>  (43) 
5.789573

>  <BCUT2D_MRLOW>  (43) 
-0.146577

>  <AvgIpc>  (43) 
2.903684

>  <BalabanJ>  (43) 
1.414733

>  <BertzCT>  (43) 
512.487317

>  <Chi0>  (43) 
15.372033

>  <Chi0n>  (43) 
13.053008

>  <Chi0v>  (43) 
13.053008

>  <Chi1>  (43) 
10.50848

>  <Chi1n>  (43) 
8.674211

>  <Chi1v>  (43) 
8.674211

>  <Chi2n>  (43) 
8.19351

>  <Chi2v>  (43) 
8.19351

>  <Chi3n>  (43) 
6.366994

>  <Chi3v>  (43) 
6.366994

>  <Chi4n>  (43) 
5.985075

>  <Chi4v>  (43) 
5.985075

>  <HallKierAlpha>  (43) 
-1.12

>  <Ipc>  (43) 
148950.267654

>  <Kappa1>  (43) 
14.470869

>  <Kappa2>  (43) 
4.938561

>  <Kappa3>  (43) 
2.33154

>  <LabuteASA>  (43) 
131.213032

>  <PEOE_VSA1>  (43) 
15.323226

>  <PEOE_VSA10>  (43) 
6.041841

>  <PEOE_VSA11>  (43) 
0.0

>  <PEOE_VSA12>  (43) 
5.90718

>  <PEOE_VSA13>  (43) 
0.0

>  <PEOE_VSA14>  (43) 
0.0

>  <PEOE_VSA2>  (43) 
4.794537

>  <PEOE_VSA3>  (43) 
0.0

>  <PEOE_VSA4>  (43) 
5.261892

>  <PEOE_VSA5>  (43) 
0.0

>  <PEOE_VSA6>  (43) 
0.0

>  <PEOE_VSA7>  (43) 
63.202385

>  <PEOE_VSA8>  (43) 
12.083682

>  <PEOE_VSA9>  (43) 
18.215029

>  <SMR_VSA1>  (43) 
9.901065

>  <SMR_VSA10>  (43) 
5.90718

>  <SMR_VSA2>  (43) 
5.261892

>  <SMR_VSA3>  (43) 
10.216698

>  <SMR_VSA4>  (43) 
11.835812

>  <SMR_VSA5>  (43) 
68.54839

>  <SMR_VSA6>  (43) 
13.089513

>  <SMR_VSA7>  (43) 
0.0

>  <SMR_VSA8>  (43) 
0.0

>  <SMR_VSA9>  (43) 
6.069221

>  <SlogP_VSA1>  (43) 
5.316789

>  <SlogP_VSA10>  (43) 
0.0

>  <SlogP_VSA11>  (43) 
0.0

>  <SlogP_VSA12>  (43) 
0.0

>  <SlogP_VSA2>  (43) 
46.184947

>  <SlogP_VSA3>  (43) 
4.794537

>  <SlogP_VSA4>  (43) 
23.166925

>  <SlogP_VSA5>  (43) 
51.366573

>  <SlogP_VSA6>  (43) 
0.0

>  <SlogP_VSA7>  (43) 
0.0

>  <SlogP_VSA8>  (43) 
0.0

>  <SlogP_VSA9>  (43) 
0.0

>  <EState_VSA1>  (43) 
5.601051

>  <EState_VSA10>  (43) 
9.901065

>  <EState_VSA11>  (43) 
0.0

>  <EState_VSA2>  (43) 
17.487946

>  <EState_VSA3>  (43) 
24.925325

>  <EState_VSA4>  (43) 
44.945751

>  <EState_VSA5>  (43) 
6.420822

>  <EState_VSA6>  (43) 
4.89991

>  <EState_VSA7>  (43) 
0.0

>  <EState_VSA8>  (43) 
11.38601

>  <EState_VSA9>  (43) 
5.261892

>  <VSA_EState1>  (43) 
0.0

>  <VSA_EState10>  (43) 
0.0

>  <VSA_EState2>  (43) 
14.161781

>  <VSA_EState3>  (43) 
23.379407

>  <VSA_EState4>  (43) 
-0.542339

>  <VSA_EState5>  (43) 
1.284052

>  <VSA_EState6>  (43) 
1.991158

>  <VSA_EState7>  (43) 
7.870159

>  <VSA_EState8>  (43) 
1.022448

>  <VSA_EState9>  (43) 
0.0

>  <FractionCSP3>  (43) 
0.882353

>  <HeavyAtomCount>  (43) 
22

>  <NHOHCount>  (43) 
2

>  <NOCount>  (43) 
5

>  <NumAliphaticCarbocycles>  (43) 
4

>  <NumAliphaticHeterocycles>  (43) 
1

>  <NumAliphaticRings>  (43) 
5

>  <NumAromaticCarbocycles>  (43) 
0

>  <NumAromaticHeterocycles>  (43) 
0

>  <NumAromaticRings>  (43) 
0

>  <NumHAcceptors>  (43) 
4

>  <NumHDonors>  (43) 
2

>  <NumHeteroatoms>  (43) 
5

>  <NumRotatableBonds>  (43) 
3

>  <NumSaturatedCarbocycles>  (43) 
4

>  <NumSaturatedHeterocycles>  (43) 
1

>  <NumSaturatedRings>  (43) 
5

>  <RingCount>  (43) 
5

>  <MolLogP>  (43) 
1.17428

>  <MolMR>  (43) 
80.7135

>  <fr_Al_COO>  (43) 
0

>  <fr_Al_OH>  (43) 
1

>  <fr_Al_OH_noTert>  (43) 
0

>  <fr_ArN>  (43) 
0

>  <fr_Ar_COO>  (43) 
0

>  <fr_Ar_N>  (43) 
0

>  <fr_Ar_NH>  (43) 
0

>  <fr_Ar_OH>  (43) 
0

>  <fr_COO>  (43) 
0

>  <fr_COO2>  (43) 
0

>  <fr_C_O>  (43) 
1

>  <fr_C_O_noCOO>  (43) 
1

>  <fr_C_S>  (43) 
0

>  <fr_HOCCN>  (43) 
0

>  <fr_Imine>  (43) 
0

>  <fr_NH0>  (43) 
2

>  <fr_NH1>  (43) 
1

>  <fr_NH2>  (43) 
0

>  <fr_N_O>  (43) 
0

>  <fr_Ndealkylation1>  (43) 
0

>  <fr_Ndealkylation2>  (43) 
1

>  <fr_Nhpyrrole>  (43) 
0

>  <fr_SH>  (43) 
0

>  <fr_aldehyde>  (43) 
0

>  <fr_alkyl_carbamate>  (43) 
0

>  <fr_alkyl_halide>  (43) 
0

>  <fr_allylic_oxid>  (43) 
0

>  <fr_amide>  (43) 
1

>  <fr_amidine>  (43) 
0

>  <fr_aniline>  (43) 
0

>  <fr_aryl_methyl>  (43) 
0

>  <fr_azide>  (43) 
0

>  <fr_azo>  (43) 
0

>  <fr_barbitur>  (43) 
0

>  <fr_benzene>  (43) 
0

>  <fr_benzodiazepine>  (43) 
0

>  <fr_bicyclic>  (43) 
0

>  <fr_diazo>  (43) 
0

>  <fr_dihydropyridine>  (43) 
0

>  <fr_epoxide>  (43) 
0

>  <fr_ester>  (43) 
0

>  <fr_ether>  (43) 
0

>  <fr_furan>  (43) 
0

>  <fr_guanido>  (43) 
0

>  <fr_halogen>  (43) 
0

>  <fr_hdrzine>  (43) 
0

>  <fr_hdrzone>  (43) 
0

>  <fr_imidazole>  (43) 
0

>  <fr_imide>  (43) 
0

>  <fr_isocyan>  (43) 
0

>  <fr_isothiocyan>  (43) 
0

>  <fr_ketone>  (43) 
0

>  <fr_ketone_Topliss>  (43) 
0

>  <fr_lactam>  (43) 
0

>  <fr_lactone>  (43) 
0

>  <fr_methoxy>  (43) 
0

>  <fr_morpholine>  (43) 
0

>  <fr_nitrile>  (43) 
1

>  <fr_nitro>  (43) 
0

>  <fr_nitro_arom>  (43) 
0

>  <fr_nitro_arom_nonortho>  (43) 
0

>  <fr_nitroso>  (43) 
0

>  <fr_oxazole>  (43) 
0

>  <fr_oxime>  (43) 
0

>  <fr_para_hydroxylation>  (43) 
0

>  <fr_phenol>  (43) 
0

>  <fr_phenol_noOrthoHbond>  (43) 
0

>  <fr_phos_acid>  (43) 
0

>  <fr_phos_ester>  (43) 
0

>  <fr_piperdine>  (43) 
0

>  <fr_piperzine>  (43) 
0

>  <fr_priamide>  (43) 
0

>  <fr_prisulfonamd>  (43) 
0

>  <fr_pyridine>  (43) 
0

>  <fr_quatN>  (43) 
0

>  <fr_sulfide>  (43) 
0

>  <fr_sulfonamd>  (43) 
0

>  <fr_sulfone>  (43) 
0

>  <fr_term_acetylene>  (43) 
0

>  <fr_tetrazole>  (43) 
0

>  <fr_thiazole>  (43) 
0

>  <fr_thiocyan>  (43) 
0

>  <fr_thiophene>  (43) 
0

>  <fr_unbrch_alkane>  (43) 
0

>  <fr_urea>  (43) 
0

>  <NP_Likeness>  (43) 
-0.496261

$$$$
CHEMBL306700
     RDKit          3D

  0  0  0  0  0  0  0  0  0  0999 V3000
M  V30 BEGIN CTAB
M  V30 COUNTS 36 37 0 0 0
M  V30 BEGIN ATOM
M  V30 1 C -1.834647 -3.295559 3.799991 0
M  V30 2 C -0.765739 -2.258006 3.870039 0
M  V30 3 O -0.314709 -1.832348 2.607395 0
M  V30 4 C 0.254875 -2.631519 1.653338 0
M  V30 5 C 0.488126 -3.986597 1.755498 0
M  V30 6 C 1.067381 -4.743301 0.758342 0
M  V30 7 C 1.444371 -4.117011 -0.427085 0
M  V30 8 C 1.229796 -2.762083 -0.573004 0
M  V30 9 C 0.644575 -2.055563 0.462220 0
M  V30 10 O 0.442568 -0.683398 0.278566 0
M  V30 11 C 0.799586 -0.003613 -0.885770 0
M  V30 12 C 0.453834 1.465021 -0.778595 0 CFG=2
M  V30 13 C 0.669596 2.203682 -2.064112 0
M  V30 14 N -0.168816 3.389872 -2.039835 0
M  V30 15 C -0.304756 3.868644 -0.689707 0
M  V30 16 C 0.915076 3.473298 0.119133 0
M  V30 17 O 1.080388 2.117110 0.256098 0
M  V30 18 H -2.057495 -3.647435 2.771652 0
M  V30 19 H -1.506552 -4.198260 4.354367 0
M  V30 20 H -2.765043 -2.967002 4.330602 0
M  V30 21 H -1.194620 -1.352429 4.369753 0
M  V30 22 H 0.089802 -2.616136 4.444796 0
M  V30 23 H 0.194091 -4.470895 2.678381 0
M  V30 24 H 1.240287 -5.806684 0.862213 0
M  V30 25 H 1.907491 -4.632578 -1.267067 0
M  V30 26 H 1.504831 -2.230227 -1.473779 0
M  V30 27 H 0.253732 -0.381204 -1.775519 0
M  V30 28 H 1.899622 -0.036022 -1.118797 0
M  V30 29 H -0.637072 1.507246 -0.572087 0
M  V30 30 H 1.721002 2.517602 -2.215651 0
M  V30 31 H 0.302684 1.563164 -2.913891 0
M  V30 32 H 0.163823 4.118407 -2.702185 0
M  V30 33 H -0.349380 4.980895 -0.664497 0
M  V30 34 H -1.232135 3.538867 -0.177266 0
M  V30 35 H 0.774929 3.929928 1.138336 0
M  V30 36 H 1.802163 3.907259 -0.376887 0
M  V30 END ATOM
M  V30 BEGIN BOND
M  V30 1 1 1 2
M  V30 2 1 2 3
M  V30 3 1 3 4
M  V30 4 2 4 5
M  V30 5 1 5 6
M  V30 6 2 6 7
M  V30 7 1 7 8
M  V30 8 2 8 9
M  V30 9 1 9 10
M  V30 10 1 10 11
M  V30 11 1 11 12
M  V30 12 1 12 13
M  V30 13 1 13 14
M  V30 14 1 14 15
M  V30 15 1 15 16
M  V30 16 1 16 17
M  V30 17 1 9 4
M  V30 18 1 17 12
M  V30 19 1 1 18
M  V30 20 1 1 19
M  V30 21 1 1 20
M  V30 22 1 2 21
M  V30 23 1 2 22
M  V30 24 1 5 23
M  V30 25 1 6 24
M  V30 26 1 7 25
M  V30 27 1 8 26
M  V30 28 1 11 27
M  V30 29 1 11 28
M  V30 30 1 12 29 CFG=1
M  V30 31 1 13 30
M  V30 32 1 13 31
M  V30 33 1 14 32
M  V30 34 1 15 33
M  V30 35 1 15 34
M  V30 36 1 16 35
M  V30 37 1 16 36
M  V30 END BOND
M  V30 END CTAB
M  END
>  <Dataset>  (44) 
OralDrugs

>  <Ligand_Instance>  (44) 
nan

>  <PDB_ID>  (44) 
nan

>  <Standardized_SMILES>  (44) 
CCOc1ccccc1OCC1CNCCO1

>  <Name>  (44) 
Viloxazine

>  <Pocket>  (44) 
nan

>  <ATP_Site>  (44) 
nan

>  <Peripheral>  (44) 
nan

>  <Num_H_Atoms_ProtBoundConf>  (44) 
nan

>  <Num_Resolved_Atoms>  (44) 
nan

>  <Num_Not_Resolved_Atoms>  (44) 
nan

>  <2D_Mol_H>  (44) 
<rdkit.Chem.rdchem.Mol object at 0x72a238bbcb30>

>  <MW>  (44) 
237.299

>  <HBA>  (44) 
4

>  <HBD>  (44) 
1

>  <LogP>  (44) 
1.4525

>  <NRB>  (44) 
6

>  <TPSA>  (44) 
39.72

>  <Num_Heavy_Atoms>  (44) 
17

>  <Ro5>  (44) 
[True, True, True, True, True, True]

>  <Ro5_Fulfilled>  (44) 
True

>  <Ro3>  (44) 
[True, False, True, True]

>  <Ro3_Fulfilled>  (44) 
True

>  <Fsp3>  (44) 
0.538462

>  <Fsp3_0.42>  (44) 
True

>  <Fsp3_0.45>  (44) 
True

>  <Stereogenic_Carbons>  (44) 
1

>  <C_Atoms>  (44) 
13

>  <FCStereo>  (44) 
0.076923

>  <SPS>  (44) 
339

>  <nSPS>  (44) 
19.941176

>  <PBF>  (44) 
0.59263

>  <PBF_0.6>  (44) 
False

>  <nPBF>  (44) 
0.034861

>  <nPBF_0.016>  (44) 
True

>  <PMI1>  (44) 
599.283832

>  <PMI2>  (44) 
2319.29227

>  <PMI3>  (44) 
2775.148165

>  <NPR1>  (44) 
0.215947

>  <NPR2>  (44) 
0.835736

>  <Sum_NPR>  (44) 
1.051683

>  <Sum_NPR_1.07>  (44) 
False

>  <Sum_NPR_1.2>  (44) 
False

>  <MaxAbsEStateIndex>  (44) 
5.739167

>  <MaxEStateIndex>  (44) 
5.739167

>  <MinAbsEStateIndex>  (44) 
0.123549

>  <MinEStateIndex>  (44) 
0.123549

>  <qed>  (44) 
0.841156

>  <MolWt>  (44) 
237.299

>  <HeavyAtomMolWt>  (44) 
218.147

>  <ExactMolWt>  (44) 
237.136493

>  <NumValenceElectrons>  (44) 
94

>  <NumRadicalElectrons>  (44) 
0

>  <MaxPartialCharge>  (44) 
0.160807

>  <MinPartialCharge>  (44) 
-0.489991

>  <MaxAbsPartialCharge>  (44) 
0.489991

>  <MinAbsPartialCharge>  (44) 
0.160807

>  <FpDensityMorgan1>  (44) 
1.294118

>  <FpDensityMorgan2>  (44) 
2.058824

>  <FpDensityMorgan3>  (44) 
2.705882

>  <BCUT2D_MWHI>  (44) 
16.547381

>  <BCUT2D_MWLOW>  (44) 
10.276395

>  <BCUT2D_CHGHI>  (44) 
2.143775

>  <BCUT2D_CHGLO>  (44) 
-2.235673

>  <BCUT2D_LOGPHI>  (44) 
2.260069

>  <BCUT2D_LOGPLOW>  (44) 
-2.411804

>  <BCUT2D_MRHI>  (44) 
5.38906

>  <BCUT2D_MRLOW>  (44) 
-0.00035

>  <AvgIpc>  (44) 
2.393076

>  <BalabanJ>  (44) 
1.882771

>  <BertzCT>  (44) 
337.191389

>  <Chi0>  (44) 
11.924439

>  <Chi0n>  (44) 
10.14703

>  <Chi0v>  (44) 
10.14703

>  <Chi1>  (44) 
8.398178

>  <Chi1n>  (44) 
6.068036

>  <Chi1v>  (44) 
6.068036

>  <Chi2n>  (44) 
3.887675

>  <Chi2v>  (44) 
3.887675

>  <Chi3n>  (44) 
2.57813

>  <Chi3v>  (44) 
2.57813

>  <Chi4n>  (44) 
1.753656

>  <Chi4v>  (44) 
1.753656

>  <HallKierAlpha>  (44) 
-1.26

>  <Ipc>  (44) 
11008.151678

>  <Kappa1>  (44) 
12.203623

>  <Kappa2>  (44) 
6.469243

>  <Kappa3>  (44) 
3.610932

>  <LabuteASA>  (44) 
101.870665

>  <PEOE_VSA1>  (44) 
19.527377

>  <PEOE_VSA10>  (44) 
12.710848

>  <PEOE_VSA11>  (44) 
11.499024

>  <PEOE_VSA12>  (44) 
0.0

>  <PEOE_VSA13>  (44) 
0.0

>  <PEOE_VSA14>  (44) 
0.0

>  <PEOE_VSA2>  (44) 
0.0

>  <PEOE_VSA3>  (44) 
0.0

>  <PEOE_VSA4>  (44) 
0.0

>  <PEOE_VSA5>  (44) 
0.0

>  <PEOE_VSA6>  (44) 
12.132734

>  <PEOE_VSA7>  (44) 
19.056471

>  <PEOE_VSA8>  (44) 
13.089513

>  <PEOE_VSA9>  (44) 
13.213764

>  <SMR_VSA1>  (44) 
14.210589

>  <SMR_VSA10>  (44) 
0.0

>  <SMR_VSA2>  (44) 
0.0

>  <SMR_VSA3>  (44) 
5.316789

>  <SMR_VSA4>  (44) 
0.0

>  <SMR_VSA5>  (44) 
13.027704

>  <SMR_VSA6>  (44) 
32.910159

>  <SMR_VSA7>  (44) 
24.265468

>  <SMR_VSA8>  (44) 
0.0

>  <SMR_VSA9>  (44) 
11.499024

>  <SlogP_VSA1>  (44) 
14.790515

>  <SlogP_VSA10>  (44) 
0.0

>  <SlogP_VSA11>  (44) 
11.499024

>  <SlogP_VSA12>  (44) 
0.0

>  <SlogP_VSA2>  (44) 
39.014125

>  <SlogP_VSA3>  (44) 
4.736863

>  <SlogP_VSA4>  (44) 
0.0

>  <SlogP_VSA5>  (44) 
6.923737

>  <SlogP_VSA6>  (44) 
24.265468

>  <SlogP_VSA7>  (44) 
0.0

>  <SlogP_VSA8>  (44) 
0.0

>  <SlogP_VSA9>  (44) 
0.0

>  <EState_VSA1>  (44) 
0.0

>  <EState_VSA10>  (44) 
0.0

>  <EState_VSA11>  (44) 
0.0

>  <EState_VSA2>  (44) 
6.103966

>  <EState_VSA3>  (44) 
13.213764

>  <EState_VSA4>  (44) 
31.195418

>  <EState_VSA5>  (44) 
0.0

>  <EState_VSA6>  (44) 
0.0

>  <EState_VSA7>  (44) 
31.189205

>  <EState_VSA8>  (44) 
5.316789

>  <EState_VSA9>  (44) 
14.210589

>  <VSA_EState1>  (44) 
16.805795

>  <VSA_EState10>  (44) 
0.0

>  <VSA_EState2>  (44) 
0.0

>  <VSA_EState3>  (44) 
3.274618

>  <VSA_EState4>  (44) 
0.0

>  <VSA_EState5>  (44) 
1.571567

>  <VSA_EState6>  (44) 
7.716674

>  <VSA_EState7>  (44) 
0.123549

>  <VSA_EState8>  (44) 
5.674464

>  <VSA_EState9>  (44) 
0.0

>  <FractionCSP3>  (44) 
0.538462

>  <HeavyAtomCount>  (44) 
17

>  <NHOHCount>  (44) 
1

>  <NOCount>  (44) 
4

>  <NumAliphaticCarbocycles>  (44) 
0

>  <NumAliphaticHeterocycles>  (44) 
1

>  <NumAliphaticRings>  (44) 
1

>  <NumAromaticCarbocycles>  (44) 
1

>  <NumAromaticHeterocycles>  (44) 
0

>  <NumAromaticRings>  (44) 
1

>  <NumHAcceptors>  (44) 
4

>  <NumHDonors>  (44) 
1

>  <NumHeteroatoms>  (44) 
4

>  <NumRotatableBonds>  (44) 
5

>  <NumSaturatedCarbocycles>  (44) 
0

>  <NumSaturatedHeterocycles>  (44) 
1

>  <NumSaturatedRings>  (44) 
1

>  <RingCount>  (44) 
2

>  <MolLogP>  (44) 
1.4525

>  <MolMR>  (44) 
65.7157

>  <fr_Al_COO>  (44) 
0

>  <fr_Al_OH>  (44) 
0

>  <fr_Al_OH_noTert>  (44) 
0

>  <fr_ArN>  (44) 
0

>  <fr_Ar_COO>  (44) 
0

>  <fr_Ar_N>  (44) 
0

>  <fr_Ar_NH>  (44) 
0

>  <fr_Ar_OH>  (44) 
0

>  <fr_COO>  (44) 
0

>  <fr_COO2>  (44) 
0

>  <fr_C_O>  (44) 
0

>  <fr_C_O_noCOO>  (44) 
0

>  <fr_C_S>  (44) 
0

>  <fr_HOCCN>  (44) 
0

>  <fr_Imine>  (44) 
0

>  <fr_NH0>  (44) 
0

>  <fr_NH1>  (44) 
1

>  <fr_NH2>  (44) 
0

>  <fr_N_O>  (44) 
0

>  <fr_Ndealkylation1>  (44) 
0

>  <fr_Ndealkylation2>  (44) 
0

>  <fr_Nhpyrrole>  (44) 
0

>  <fr_SH>  (44) 
0

>  <fr_aldehyde>  (44) 
0

>  <fr_alkyl_carbamate>  (44) 
0

>  <fr_alkyl_halide>  (44) 
0

>  <fr_allylic_oxid>  (44) 
0

>  <fr_amide>  (44) 
0

>  <fr_amidine>  (44) 
0

>  <fr_aniline>  (44) 
0

>  <fr_aryl_methyl>  (44) 
0

>  <fr_azide>  (44) 
0

>  <fr_azo>  (44) 
0

>  <fr_barbitur>  (44) 
0

>  <fr_benzene>  (44) 
1

>  <fr_benzodiazepine>  (44) 
0

>  <fr_bicyclic>  (44) 
0

>  <fr_diazo>  (44) 
0

>  <fr_dihydropyridine>  (44) 
0

>  <fr_epoxide>  (44) 
0

>  <fr_ester>  (44) 
0

>  <fr_ether>  (44) 
3

>  <fr_furan>  (44) 
0

>  <fr_guanido>  (44) 
0

>  <fr_halogen>  (44) 
0

>  <fr_hdrzine>  (44) 
0

>  <fr_hdrzone>  (44) 
0

>  <fr_imidazole>  (44) 
0

>  <fr_imide>  (44) 
0

>  <fr_isocyan>  (44) 
0

>  <fr_isothiocyan>  (44) 
0

>  <fr_ketone>  (44) 
0

>  <fr_ketone_Topliss>  (44) 
0

>  <fr_lactam>  (44) 
0

>  <fr_lactone>  (44) 
0

>  <fr_methoxy>  (44) 
0

>  <fr_morpholine>  (44) 
1

>  <fr_nitrile>  (44) 
0

>  <fr_nitro>  (44) 
0

>  <fr_nitro_arom>  (44) 
0

>  <fr_nitro_arom_nonortho>  (44) 
0

>  <fr_nitroso>  (44) 
0

>  <fr_oxazole>  (44) 
0

>  <fr_oxime>  (44) 
0

>  <fr_para_hydroxylation>  (44) 
2

>  <fr_phenol>  (44) 
0

>  <fr_phenol_noOrthoHbond>  (44) 
0

>  <fr_phos_acid>  (44) 
0

>  <fr_phos_ester>  (44) 
0

>  <fr_piperdine>  (44) 
0

>  <fr_piperzine>  (44) 
0

>  <fr_priamide>  (44) 
0

>  <fr_prisulfonamd>  (44) 
0

>  <fr_pyridine>  (44) 
0

>  <fr_quatN>  (44) 
0

>  <fr_sulfide>  (44) 
0

>  <fr_sulfonamd>  (44) 
0

>  <fr_sulfone>  (44) 
0

>  <fr_term_acetylene>  (44) 
0

>  <fr_tetrazole>  (44) 
0

>  <fr_thiazole>  (44) 
0

>  <fr_thiocyan>  (44) 
0

>  <fr_thiophene>  (44) 
0

>  <fr_unbrch_alkane>  (44) 
0

>  <fr_urea>  (44) 
0

>  <NP_Likeness>  (44) 
-0.366711

$$$$
CHEMBL473417
     RDKit          3D

  0  0  0  0  0  0  0  0  0  0999 V3000
M  V30 BEGIN CTAB
M  V30 COUNTS 41 43 0 0 0
M  V30 BEGIN ATOM
M  V30 1 C -0.835340 -7.513744 0.924151 0
M  V30 2 S -0.139540 -7.003858 -0.623537 0
M  V30 3 O -1.026167 -7.514813 -1.724721 0
M  V30 4 O 1.212083 -7.642367 -0.750856 0
M  V30 5 C -0.057548 -5.269859 -0.757751 0
M  V30 6 C 1.076037 -4.621244 -0.317086 0
M  V30 7 C 1.226589 -3.253583 -0.385507 0
M  V30 8 C 0.165045 -2.524746 -0.930613 0
M  V30 9 C 0.273446 -1.073684 -1.026337 0
M  V30 10 O 0.246066 -0.642127 -2.201152 0
M  V30 11 N 0.399555 -0.167490 0.041054 0
M  V30 12 C 0.507778 1.246657 -0.011098 0
M  V30 13 C 0.508914 1.969691 -1.167348 0
M  V30 14 C 0.620089 3.341402 -1.094805 0
M  V30 15 C 0.725897 3.932888 0.141439 0
M  V30 16 Cl 0.853777 5.659359 0.108193 0
M  V30 17 C 0.729774 3.252772 1.329901 0
M  V30 18 C 0.832883 3.795649 2.668277 0
M  V30 19 C 0.992047 5.057695 3.107373 0
M  V30 20 C 1.085351 5.496707 4.392335 0
M  V30 21 C 1.012556 4.562691 5.404240 0
M  V30 22 C 0.849879 3.260407 4.992948 0
M  V30 23 N 0.769511 2.938376 3.697082 0
M  V30 24 C 0.616393 1.887173 1.199949 0
M  V30 25 C -0.995851 -3.140194 -1.386796 0
M  V30 26 Cl -2.313369 -2.213109 -2.065386 0
M  V30 27 C -1.093490 -4.518082 -1.293722 0
M  V30 28 H -0.543733 -8.565123 1.094282 0
M  V30 29 H -0.413293 -6.920052 1.762780 0
M  V30 30 H -1.946348 -7.488300 0.934557 0
M  V30 31 H 1.881412 -5.209426 0.100212 0
M  V30 32 H 2.132058 -2.763705 -0.030770 0
M  V30 33 H 0.403441 -0.707804 0.933189 0
M  V30 34 H 0.428691 1.537489 -2.128778 0
M  V30 35 H 0.620286 3.908842 -2.018062 0
M  V30 36 H 1.058869 5.828888 2.376752 0
M  V30 37 H 1.211003 6.521404 4.645029 0
M  V30 38 H 1.075142 4.802166 6.453522 0
M  V30 39 H 0.777579 2.424640 5.691314 0
M  V30 40 H 0.611677 1.266498 2.111231 0
M  V30 41 H -1.986315 -5.034134 -1.640404 0
M  V30 END ATOM
M  V30 BEGIN BOND
M  V30 1 1 1 2
M  V30 2 2 2 3
M  V30 3 2 2 4
M  V30 4 1 2 5
M  V30 5 2 5 6
M  V30 6 1 6 7
M  V30 7 2 7 8
M  V30 8 1 8 9
M  V30 9 2 9 10
M  V30 10 1 9 11
M  V30 11 1 11 12
M  V30 12 2 12 13
M  V30 13 1 13 14
M  V30 14 2 14 15
M  V30 15 1 15 16
M  V30 16 1 15 17
M  V30 17 1 17 18
M  V30 18 2 18 19
M  V30 19 1 19 20
M  V30 20 2 20 21
M  V30 21 1 21 22
M  V30 22 2 22 23
M  V30 23 2 17 24
M  V30 24 1 8 25
M  V30 25 1 25 26
M  V30 26 2 25 27
M  V30 27 1 27 5
M  V30 28 1 24 12
M  V30 29 1 23 18
M  V30 30 1 1 28
M  V30 31 1 1 29
M  V30 32 1 1 30
M  V30 33 1 6 31
M  V30 34 1 7 32
M  V30 35 1 11 33
M  V30 36 1 13 34
M  V30 37 1 14 35
M  V30 38 1 19 36
M  V30 39 1 20 37
M  V30 40 1 21 38
M  V30 41 1 22 39
M  V30 42 1 24 40
M  V30 43 1 27 41
M  V30 END BOND
M  V30 END CTAB
M  END
>  <Dataset>  (45) 
OralDrugs

>  <Ligand_Instance>  (45) 
nan

>  <PDB_ID>  (45) 
nan

>  <Standardized_SMILES>  (45) 
CS(=O)(=O)c1ccc(C(=O)Nc2ccc(Cl)c(-c3ccccn3)c2)c(Cl)c1

>  <Name>  (45) 
Vismodegib

>  <Pocket>  (45) 
nan

>  <ATP_Site>  (45) 
nan

>  <Peripheral>  (45) 
nan

>  <Num_H_Atoms_ProtBoundConf>  (45) 
nan

>  <Num_Resolved_Atoms>  (45) 
nan

>  <Num_Not_Resolved_Atoms>  (45) 
nan

>  <2D_Mol_H>  (45) 
<rdkit.Chem.rdchem.Mol object at 0x72a238bbcc10>

>  <MW>  (45) 
421.305

>  <HBA>  (45) 
4

>  <HBD>  (45) 
1

>  <LogP>  (45) 
4.7112

>  <NRB>  (45) 
5

>  <TPSA>  (45) 
76.13

>  <Num_Heavy_Atoms>  (45) 
27

>  <Ro5>  (45) 
[True, True, True, True, True, True]

>  <Ro5_Fulfilled>  (45) 
True

>  <Ro3>  (45) 
[False, False, True, False]

>  <Ro3_Fulfilled>  (45) 
False

>  <Fsp3>  (45) 
0.052632

>  <Fsp3_0.42>  (45) 
False

>  <Fsp3_0.45>  (45) 
False

>  <Stereogenic_Carbons>  (45) 
0

>  <C_Atoms>  (45) 
19

>  <FCStereo>  (45) 
0.0

>  <SPS>  (45) 
303

>  <nSPS>  (45) 
11.222222

>  <PBF>  (45) 
0.488391

>  <PBF_0.6>  (45) 
False

>  <nPBF>  (45) 
0.018089

>  <nPBF_0.016>  (45) 
True

>  <PMI1>  (45) 
1509.229927

>  <PMI2>  (45) 
9705.234392

>  <PMI3>  (45) 
10670.596842

>  <NPR1>  (45) 
0.141438

>  <NPR2>  (45) 
0.909531

>  <Sum_NPR>  (45) 
1.050969

>  <Sum_NPR_1.07>  (45) 
False

>  <Sum_NPR_1.2>  (45) 
False

>  <MaxAbsEStateIndex>  (45) 
12.535016

>  <MaxEStateIndex>  (45) 
12.535016

>  <MinAbsEStateIndex>  (45) 
0.049057

>  <MinEStateIndex>  (45) 
-3.405451

>  <qed>  (45) 
0.662102

>  <MolWt>  (45) 
421.305

>  <HeavyAtomMolWt>  (45) 
407.193

>  <ExactMolWt>  (45) 
420.010219

>  <NumValenceElectrons>  (45) 
138

>  <NumRadicalElectrons>  (45) 
0

>  <MaxPartialCharge>  (45) 
0.256675

>  <MinPartialCharge>  (45) 
-0.321927

>  <MaxAbsPartialCharge>  (45) 
0.321927

>  <MinAbsPartialCharge>  (45) 
0.256675

>  <FpDensityMorgan1>  (45) 
1.0

>  <FpDensityMorgan2>  (45) 
1.777778

>  <FpDensityMorgan3>  (45) 
2.407407

>  <BCUT2D_MWHI>  (45) 
35.496786

>  <BCUT2D_MWLOW>  (45) 
10.102691

>  <BCUT2D_CHGHI>  (45) 
2.154663

>  <BCUT2D_CHGLO>  (45) 
-2.103362

>  <BCUT2D_LOGPHI>  (45) 
2.295736

>  <BCUT2D_LOGPLOW>  (45) 
-2.127402

>  <BCUT2D_MRHI>  (45) 
7.90311

>  <BCUT2D_MRLOW>  (45) 
0.102212

>  <AvgIpc>  (45) 
2.627801

>  <BalabanJ>  (45) 
1.889033

>  <BertzCT>  (45) 
1117.053613

>  <Chi0>  (45) 
19.604084

>  <Chi0n>  (45) 
14.109638

>  <Chi0v>  (45) 
16.437993

>  <Chi1>  (45) 
12.753039

>  <Chi1n>  (45) 
7.774343

>  <Chi1v>  (45) 
10.421683

>  <Chi2n>  (45) 
5.777546

>  <Chi2v>  (45) 
8.607681

>  <Chi3n>  (45) 
3.778404

>  <Chi3v>  (45) 
5.53094

>  <Chi4n>  (45) 
2.430448

>  <Chi4v>  (45) 
3.62303

>  <HallKierAlpha>  (45) 
-2.41

>  <Ipc>  (45) 
968733.520836

>  <Kappa1>  (45) 
19.354312

>  <Kappa2>  (45) 
7.680498

>  <Kappa3>  (45) 
4.471415

>  <LabuteASA>  (45) 
166.438439

>  <PEOE_VSA1>  (45) 
5.316789

>  <PEOE_VSA10>  (45) 
0.0

>  <PEOE_VSA11>  (45) 
9.837253

>  <PEOE_VSA12>  (45) 
0.0

>  <PEOE_VSA13>  (45) 
5.90718

>  <PEOE_VSA14>  (45) 
0.0

>  <PEOE_VSA2>  (45) 
9.778516

>  <PEOE_VSA3>  (45) 
8.417797

>  <PEOE_VSA4>  (45) 
0.0

>  <PEOE_VSA5>  (45) 
0.0

>  <PEOE_VSA6>  (45) 
29.268247

>  <PEOE_VSA7>  (45) 
48.530937

>  <PEOE_VSA8>  (45) 
23.703451

>  <PEOE_VSA9>  (45) 
26.19813

>  <SMR_VSA1>  (45) 
13.212334

>  <SMR_VSA10>  (45) 
44.633699

>  <SMR_VSA2>  (45) 
0.0

>  <SMR_VSA3>  (45) 
4.983979

>  <SMR_VSA4>  (45) 
0.0

>  <SMR_VSA5>  (45) 
4.895483

>  <SMR_VSA6>  (45) 
11.572558

>  <SMR_VSA7>  (45) 
76.402865

>  <SMR_VSA8>  (45) 
0.0

>  <SMR_VSA9>  (45) 
11.257379

>  <SlogP_VSA1>  (45) 
5.316789

>  <SlogP_VSA10>  (45) 
5.687386

>  <SlogP_VSA11>  (45) 
0.0

>  <SlogP_VSA12>  (45) 
23.20188

>  <SlogP_VSA2>  (45) 
25.564724

>  <SlogP_VSA3>  (45) 
9.837253

>  <SlogP_VSA4>  (45) 
0.0

>  <SlogP_VSA5>  (45) 
10.357989

>  <SlogP_VSA6>  (45) 
65.689631

>  <SlogP_VSA7>  (45) 
10.045267

>  <SlogP_VSA8>  (45) 
11.257379

>  <SlogP_VSA9>  (45) 
0.0

>  <EState_VSA1>  (45) 
15.744433

>  <EState_VSA10>  (45) 
13.212334

>  <EState_VSA11>  (45) 
0.0

>  <EState_VSA2>  (45) 
15.481568

>  <EState_VSA3>  (45) 
21.967399

>  <EState_VSA4>  (45) 
6.255769

>  <EState_VSA5>  (45) 
18.199101

>  <EState_VSA6>  (45) 
30.462312

>  <EState_VSA7>  (45) 
12.132734

>  <EState_VSA8>  (45) 
10.300767

>  <EState_VSA9>  (45) 
23.20188

>  <VSA_EState1>  (45) 
23.167548

>  <VSA_EState10>  (45) 
12.331482

>  <VSA_EState2>  (45) 
16.843971

>  <VSA_EState3>  (45) 
3.287759

>  <VSA_EState4>  (45) 
2.022627

>  <VSA_EState5>  (45) 
-0.46357

>  <VSA_EState6>  (45) 
14.460387

>  <VSA_EState7>  (45) 
2.727469

>  <VSA_EState8>  (45) 
0.0

>  <VSA_EState9>  (45) 
-3.405451

>  <FractionCSP3>  (45) 
0.052632

>  <HeavyAtomCount>  (45) 
27

>  <NHOHCount>  (45) 
1

>  <NOCount>  (45) 
5

>  <NumAliphaticCarbocycles>  (45) 
0

>  <NumAliphaticHeterocycles>  (45) 
0

>  <NumAliphaticRings>  (45) 
0

>  <NumAromaticCarbocycles>  (45) 
2

>  <NumAromaticHeterocycles>  (45) 
1

>  <NumAromaticRings>  (45) 
3

>  <NumHAcceptors>  (45) 
4

>  <NumHDonors>  (45) 
1

>  <NumHeteroatoms>  (45) 
8

>  <NumRotatableBonds>  (45) 
4

>  <NumSaturatedCarbocycles>  (45) 
0

>  <NumSaturatedHeterocycles>  (45) 
0

>  <NumSaturatedRings>  (45) 
0

>  <RingCount>  (45) 
3

>  <MolLogP>  (45) 
4.7112

>  <MolMR>  (45) 
107.198

>  <fr_Al_COO>  (45) 
0

>  <fr_Al_OH>  (45) 
0

>  <fr_Al_OH_noTert>  (45) 
0

>  <fr_ArN>  (45) 
0

>  <fr_Ar_COO>  (45) 
0

>  <fr_Ar_N>  (45) 
1

>  <fr_Ar_NH>  (45) 
0

>  <fr_Ar_OH>  (45) 
0

>  <fr_COO>  (45) 
0

>  <fr_COO2>  (45) 
0

>  <fr_C_O>  (45) 
1

>  <fr_C_O_noCOO>  (45) 
1

>  <fr_C_S>  (45) 
0

>  <fr_HOCCN>  (45) 
0

>  <fr_Imine>  (45) 
0

>  <fr_NH0>  (45) 
1

>  <fr_NH1>  (45) 
1

>  <fr_NH2>  (45) 
0

>  <fr_N_O>  (45) 
0

>  <fr_Ndealkylation1>  (45) 
0

>  <fr_Ndealkylation2>  (45) 
0

>  <fr_Nhpyrrole>  (45) 
0

>  <fr_SH>  (45) 
0

>  <fr_aldehyde>  (45) 
0

>  <fr_alkyl_carbamate>  (45) 
0

>  <fr_alkyl_halide>  (45) 
0

>  <fr_allylic_oxid>  (45) 
0

>  <fr_amide>  (45) 
1

>  <fr_amidine>  (45) 
0

>  <fr_aniline>  (45) 
1

>  <fr_aryl_methyl>  (45) 
0

>  <fr_azide>  (45) 
0

>  <fr_azo>  (45) 
0

>  <fr_barbitur>  (45) 
0

>  <fr_benzene>  (45) 
2

>  <fr_benzodiazepine>  (45) 
0

>  <fr_bicyclic>  (45) 
0

>  <fr_diazo>  (45) 
0

>  <fr_dihydropyridine>  (45) 
0

>  <fr_epoxide>  (45) 
0

>  <fr_ester>  (45) 
0

>  <fr_ether>  (45) 
0

>  <fr_furan>  (45) 
0

>  <fr_guanido>  (45) 
0

>  <fr_halogen>  (45) 
2

>  <fr_hdrzine>  (45) 
0

>  <fr_hdrzone>  (45) 
0

>  <fr_imidazole>  (45) 
0

>  <fr_imide>  (45) 
0

>  <fr_isocyan>  (45) 
0

>  <fr_isothiocyan>  (45) 
0

>  <fr_ketone>  (45) 
0

>  <fr_ketone_Topliss>  (45) 
0

>  <fr_lactam>  (45) 
0

>  <fr_lactone>  (45) 
0

>  <fr_methoxy>  (45) 
0

>  <fr_morpholine>  (45) 
0

>  <fr_nitrile>  (45) 
0

>  <fr_nitro>  (45) 
0

>  <fr_nitro_arom>  (45) 
0

>  <fr_nitro_arom_nonortho>  (45) 
0

>  <fr_nitroso>  (45) 
0

>  <fr_oxazole>  (45) 
0

>  <fr_oxime>  (45) 
0

>  <fr_para_hydroxylation>  (45) 
0

>  <fr_phenol>  (45) 
0

>  <fr_phenol_noOrthoHbond>  (45) 
0

>  <fr_phos_acid>  (45) 
0

>  <fr_phos_ester>  (45) 
0

>  <fr_piperdine>  (45) 
0

>  <fr_piperzine>  (45) 
0

>  <fr_priamide>  (45) 
0

>  <fr_prisulfonamd>  (45) 
0

>  <fr_pyridine>  (45) 
1

>  <fr_quatN>  (45) 
0

>  <fr_sulfide>  (45) 
0

>  <fr_sulfonamd>  (45) 
0

>  <fr_sulfone>  (45) 
1

>  <fr_term_acetylene>  (45) 
0

>  <fr_tetrazole>  (45) 
0

>  <fr_thiazole>  (45) 
0

>  <fr_thiocyan>  (45) 
0

>  <fr_thiophene>  (45) 
0

>  <fr_unbrch_alkane>  (45) 
0

>  <fr_urea>  (45) 
0

>  <NP_Likeness>  (45) 
-2.121454

$$$$
CHEMBL1675
     RDKit          3D

  0  0  0  0  0  0  0  0  0  0999 V3000
M  V30 BEGIN CTAB
M  V30 COUNTS 98 98 0 0 0
M  V30 BEGIN ATOM
M  V30 1 C -4.678028 2.684868 1.394739 0
M  V30 2 C -3.829224 3.933814 1.641257 0
M  V30 3 C -3.196269 3.786161 2.992699 0
M  V30 4 C -2.323193 2.525516 2.967397 0
M  V30 5 C -1.667929 2.264434 4.272031 0
M  V30 6 C -0.723222 3.265453 4.808464 0
M  V30 7 C 0.513616 3.566290 4.047143 0
M  V30 8 C 1.450954 2.382763 3.832032 0
M  V30 9 C 1.824835 1.826274 5.160288 0
M  V30 10 C 2.768831 0.666283 5.209699 0
M  V30 11 C 4.158412 0.808802 4.774018 0
M  V30 12 C 4.877650 -0.541527 4.981170 0
M  V30 13 C 4.178540 -1.610669 4.181270 0
M  V30 14 C 4.772679 -3.003027 4.406806 0
M  V30 15 C 4.026121 -4.029016 3.600921 0
M  V30 16 C 2.542199 -4.049772 3.940345 0
M  V30 17 O 1.313011 -3.993969 4.267116 0
M  V30 18 O 1.122983 -4.002045 4.317383 0
M  V30 19 C 0.689095 -2.604070 4.441195 0
M  V30 20 C 0.728572 -1.988780 3.143050 0
M  V30 21 C -0.052191 -1.351909 2.346698 0
M  V30 22 C -1.366610 -1.245895 3.081911 0
M  V30 23 C -0.266146 -1.056575 0.902917 0
M  V30 24 C -0.973485 -0.341063 0.182552 0
M  V30 25 C -0.624018 -0.577022 -1.325852 0
M  V30 26 C -1.264462 0.032763 -2.452842 0
M  V30 27 C -1.975488 0.634852 -1.375382 0
M  V30 28 C -0.166324 -0.758871 -3.127301 0
M  V30 29 C -0.156722 -0.799308 -4.471947 0
M  V30 30 C 0.765611 -1.465458 -5.336902 0
M  V30 31 C 1.844621 -2.166588 -5.499075 0
M  V30 32 C 2.447797 -2.443189 -4.136787 0
M  V30 33 C 2.511593 -2.795030 -6.648434 0
M  V30 34 C 1.481476 -3.816480 -7.176315 0
M  V30 35 C 0.098271 -3.276795 -6.828044 0
M  V30 36 C 0.096463 -1.739233 -6.693435 0
M  V30 37 C 0.712574 -1.142283 -7.873116 0
M  V30 38 C -1.382472 -1.403877 -6.664967 0
M  V30 39 H -5.527036 2.937437 0.734234 0
M  V30 40 H -5.061458 2.326662 2.376690 0
M  V30 41 H -3.991942 1.911423 0.961946 0
M  V30 42 H -3.001972 3.956249 0.878318 0
M  V30 43 H -4.416544 4.867500 1.544147 0
M  V30 44 H -3.981335 3.631162 3.745751 0
M  V30 45 H -2.582928 4.663769 3.264613 0
M  V30 46 H -1.640094 2.636652 2.111612 0
M  V30 47 H -2.990004 1.666498 2.708279 0
M  V30 48 H -1.192536 1.260376 4.334660 0
M  V30 49 H -2.511455 2.214984 5.019551 0
M  V30 50 H -1.225164 4.240394 5.011047 0
M  V30 51 H -0.445881 2.915125 5.849120 0
M  V30 52 H 1.056629 4.354665 4.660213 0
M  V30 53 H 0.387621 4.047729 3.066967 0
M  V30 54 H 2.338166 2.743300 3.290092 0
M  V30 55 H 0.978266 1.608105 3.188961 0
M  V30 56 H 2.195714 2.644804 5.797631 0
M  V30 57 H 0.863691 1.490083 5.672088 0
M  V30 58 H 2.770736 0.305567 6.285450 0
M  V30 59 H 2.263318 -0.148957 4.627861 0
M  V30 60 H 4.663968 1.505502 5.561585 0
M  V30 61 H 4.379389 1.234692 3.820670 0
M  V30 62 H 5.945027 -0.466640 4.770032 0
M  V30 63 H 4.797263 -0.844551 6.051518 0
M  V30 64 H 4.115923 -1.349626 3.119853 0
M  V30 65 H 3.194697 -1.704566 4.643088 0
M  V30 66 H 4.617009 -3.252112 5.465522 0
M  V30 67 H 5.821917 -3.080831 4.113177 0
M  V30 68 H 4.080761 -3.864383 2.521594 0
M  V30 69 H 4.387098 -5.050106 3.873415 0
M  V30 70 H 1.186266 -2.117867 5.236273 0
M  V30 71 H -0.398170 -2.704784 4.818552 0
M  V30 72 H 1.720849 -2.010141 2.594752 0
M  V30 73 H -1.994494 -2.153484 3.003622 0
M  V30 74 H -1.226358 -1.036397 4.187266 0
M  V30 75 H -1.909404 -0.385589 2.666276 0
M  V30 76 H 0.529514 -1.787785 0.626521 0
M  V30 77 H -1.620317 0.248748 0.829662 0
M  V30 78 H 0.246126 -1.392039 -1.305386 0
M  V30 79 H -2.756406 0.084992 -0.830027 0
M  V30 80 H -1.430283 1.425298 -0.802169 0
M  V30 81 H -2.703851 1.431530 -1.992452 0
M  V30 82 H 0.692207 -1.345484 -3.119625 0
M  V30 83 H -0.941341 -0.218758 -4.928733 0
M  V30 84 H 3.288320 -3.141854 -4.362595 0
M  V30 85 H 1.753812 -2.997180 -3.496806 0
M  V30 86 H 2.851160 -1.587258 -3.653555 0
M  V30 87 H 2.967511 -2.186821 -7.421654 0
M  V30 88 H 3.333447 -3.441005 -6.212447 0
M  V30 89 H 1.643623 -4.760512 -6.631148 0
M  V30 90 H 1.583523 -3.990844 -8.251018 0
M  V30 91 H -0.635087 -3.630730 -7.546965 0
M  V30 92 H -0.191024 -3.651291 -5.835929 0
M  V30 93 H -0.025806 -0.520651 -8.491841 0
M  V30 94 H 1.529015 -0.414328 -7.742778 0
M  V30 95 H 0.987919 -1.962537 -8.626563 0
M  V30 96 H -1.868797 -1.634510 -5.698465 0
M  V30 97 H -1.624155 -0.388965 -6.962718 0
M  V30 98 H -1.949485 -2.082538 -7.380187 0
M  V30 END ATOM
M  V30 BEGIN BOND
M  V30 1 1 1 2
M  V30 2 1 2 3
M  V30 3 1 3 4
M  V30 4 1 4 5
M  V30 5 1 5 6
M  V30 6 1 6 7
M  V30 7 1 7 8
M  V30 8 1 8 9
M  V30 9 1 9 10
M  V30 10 1 10 11
M  V30 11 1 11 12
M  V30 12 1 12 13
M  V30 13 1 13 14
M  V30 14 1 14 15
M  V30 15 1 15 16
M  V30 16 2 16 17
M  V30 17 1 16 18
M  V30 18 1 18 19
M  V30 19 1 19 20
M  V30 20 2 20 21
M  V30 21 1 21 22
M  V30 22 1 21 23
M  V30 23 2 23 24
M  V30 24 1 24 25
M  V30 25 2 25 26
M  V30 26 1 26 27
M  V30 27 1 26 28
M  V30 28 2 28 29
M  V30 29 1 29 30
M  V30 30 2 30 31
M  V30 31 1 31 32
M  V30 32 1 31 33
M  V30 33 1 33 34
M  V30 34 1 34 35
M  V30 35 1 35 36
M  V30 36 1 36 37
M  V30 37 1 36 38
M  V30 38 1 36 30
M  V30 39 1 1 39
M  V30 40 1 1 40
M  V30 41 1 1 41
M  V30 42 1 2 42
M  V30 43 1 2 43
M  V30 44 1 3 44
M  V30 45 1 3 45
M  V30 46 1 4 46
M  V30 47 1 4 47
M  V30 48 1 5 48
M  V30 49 1 5 49
M  V30 50 1 6 50
M  V30 51 1 6 51
M  V30 52 1 7 52
M  V30 53 1 7 53
M  V30 54 1 8 54
M  V30 55 1 8 55
M  V30 56 1 9 56
M  V30 57 1 9 57
M  V30 58 1 10 58
M  V30 59 1 10 59
M  V30 60 1 11 60
M  V30 61 1 11 61
M  V30 62 1 12 62
M  V30 63 1 12 63
M  V30 64 1 13 64
M  V30 65 1 13 65
M  V30 66 1 14 66
M  V30 67 1 14 67
M  V30 68 1 15 68
M  V30 69 1 15 69
M  V30 70 1 19 70
M  V30 71 1 19 71
M  V30 72 1 20 72
M  V30 73 1 22 73
M  V30 74 1 22 74
M  V30 75 1 22 75
M  V30 76 1 23 76
M  V30 77 1 24 77
M  V30 78 1 25 78
M  V30 79 1 27 79
M  V30 80 1 27 80
M  V30 81 1 27 81
M  V30 82 1 28 82
M  V30 83 1 29 83
M  V30 84 1 32 84
M  V30 85 1 32 85
M  V30 86 1 32 86
M  V30 87 1 33 87
M  V30 88 1 33 88
M  V30 89 1 34 89
M  V30 90 1 34 90
M  V30 91 1 35 91
M  V30 92 1 35 92
M  V30 93 1 37 93
M  V30 94 1 37 94
M  V30 95 1 37 95
M  V30 96 1 38 96
M  V30 97 1 38 97
M  V30 98 1 38 98
M  V30 END BOND
M  V30 END CTAB
M  END
>  <Dataset>  (46) 
OralDrugs

>  <Ligand_Instance>  (46) 
nan

>  <PDB_ID>  (46) 
nan

>  <Standardized_SMILES>  (46) 
CCCCCCCCCCCCCCCC(=O)OC/C=C(C)/C=C/C=C(C)/C=C/C1=C(C)CCCC1(C)C

>  <Name>  (46) 
Vitamin A Palmitate

>  <Pocket>  (46) 
nan

>  <ATP_Site>  (46) 
nan

>  <Peripheral>  (46) 
nan

>  <Num_H_Atoms_ProtBoundConf>  (46) 
nan

>  <Num_Resolved_Atoms>  (46) 
nan

>  <Num_Not_Resolved_Atoms>  (46) 
nan

>  <2D_Mol_H>  (46) 
<rdkit.Chem.rdchem.Mol object at 0x72a238bbccf0>

>  <MW>  (46) 
524.874

>  <HBA>  (46) 
2

>  <HBD>  (46) 
0

>  <LogP>  (46) 
11.5425

>  <NRB>  (46) 
26

>  <TPSA>  (46) 
26.3

>  <Num_Heavy_Atoms>  (46) 
38

>  <Ro5>  (46) 
[False, True, True, False, False, True]

>  <Ro5_Fulfilled>  (46) 
False

>  <Ro3>  (46) 
[False, True, True, False]

>  <Ro3_Fulfilled>  (46) 
False

>  <Fsp3>  (46) 
0.694444

>  <Fsp3_0.42>  (46) 
True

>  <Fsp3_0.45>  (46) 
True

>  <Stereogenic_Carbons>  (46) 
0

>  <C_Atoms>  (46) 
36

>  <FCStereo>  (46) 
0.0

>  <SPS>  (46) 
634

>  <nSPS>  (46) 
16.684211

>  <PBF>  (46) 
1.205103

>  <PBF_0.6>  (46) 
True

>  <nPBF>  (46) 
0.031713

>  <nPBF_0.016>  (46) 
True

>  <PMI1>  (46) 
5495.356246

>  <PMI2>  (46) 
11883.539312

>  <PMI3>  (46) 
15294.723795

>  <NPR1>  (46) 
0.359298

>  <NPR2>  (46) 
0.77697

>  <Sum_NPR>  (46) 
1.136267

>  <Sum_NPR_1.07>  (46) 
True

>  <Sum_NPR_1.2>  (46) 
False

>  <MaxAbsEStateIndex>  (46) 
12.010108

>  <MaxEStateIndex>  (46) 
12.010108

>  <MinAbsEStateIndex>  (46) 
0.072023

>  <MinEStateIndex>  (46) 
-0.072023

>  <qed>  (46) 
0.089874

>  <MolWt>  (46) 
524.874

>  <HeavyAtomMolWt>  (46) 
464.394

>  <ExactMolWt>  (46) 
524.459331

>  <NumValenceElectrons>  (46) 
216

>  <NumRadicalElectrons>  (46) 
0

>  <MaxPartialCharge>  (46) 
0.305595

>  <MinPartialCharge>  (46) 
-0.461421

>  <MaxAbsPartialCharge>  (46) 
0.461421

>  <MinAbsPartialCharge>  (46) 
0.305595

>  <FpDensityMorgan1>  (46) 
0.842105

>  <FpDensityMorgan2>  (46) 
1.421053

>  <FpDensityMorgan3>  (46) 
2.0

>  <BCUT2D_MWHI>  (46) 
16.53213

>  <BCUT2D_MWLOW>  (46) 
9.724054

>  <BCUT2D_CHGHI>  (46) 
2.25827

>  <BCUT2D_CHGLO>  (46) 
-2.324859

>  <BCUT2D_LOGPHI>  (46) 
2.40325

>  <BCUT2D_LOGPLOW>  (46) 
-2.185145

>  <BCUT2D_MRHI>  (46) 
5.688913

>  <BCUT2D_MRLOW>  (46) 
-0.142049

>  <AvgIpc>  (46) 
2.858357

>  <BalabanJ>  (46) 
2.133276

>  <BertzCT>  (46) 
803.198892

>  <Chi0>  (46) 
28.064421

>  <Chi0n>  (46) 
26.00852

>  <Chi0v>  (46) 
26.00852

>  <Chi1>  (46) 
18.258056

>  <Chi1n>  (46) 
15.816314

>  <Chi1v>  (46) 
15.816314

>  <Chi2n>  (46) 
12.15837

>  <Chi2v>  (46) 
12.15837

>  <Chi3n>  (46) 
7.907676

>  <Chi3v>  (46) 
7.907676

>  <Chi4n>  (46) 
5.325731

>  <Chi4v>  (46) 
5.325731

>  <HallKierAlpha>  (46) 
-1.83

>  <Ipc>  (46) 
115206821.792741

>  <Kappa1>  (46) 
34.197647

>  <Kappa2>  (46) 
21.04784

>  <Kappa3>  (46) 
16.896789

>  <LabuteASA>  (46) 
236.333446

>  <PEOE_VSA1>  (46) 
4.736863

>  <PEOE_VSA10>  (46) 
6.606882

>  <PEOE_VSA11>  (46) 
0.0

>  <PEOE_VSA12>  (46) 
0.0

>  <PEOE_VSA13>  (46) 
0.0

>  <PEOE_VSA14>  (46) 
5.969305

>  <PEOE_VSA2>  (46) 
4.794537

>  <PEOE_VSA3>  (46) 
0.0

>  <PEOE_VSA4>  (46) 
0.0

>  <PEOE_VSA5>  (46) 
0.0

>  <PEOE_VSA6>  (46) 
144.920485

>  <PEOE_VSA7>  (46) 
63.518613

>  <PEOE_VSA8>  (46) 
6.420822

>  <PEOE_VSA9>  (46) 
0.0

>  <SMR_VSA1>  (46) 
9.5314

>  <SMR_VSA10>  (46) 
5.969305

>  <SMR_VSA2>  (46) 
0.0

>  <SMR_VSA3>  (46) 
0.0

>  <SMR_VSA4>  (46) 
5.41499

>  <SMR_VSA5>  (46) 
150.696391

>  <SMR_VSA6>  (46) 
6.606882

>  <SMR_VSA7>  (46) 
58.748539

>  <SMR_VSA8>  (46) 
0.0

>  <SMR_VSA9>  (46) 
0.0

>  <SlogP_VSA1>  (46) 
0.0

>  <SlogP_VSA10>  (46) 
0.0

>  <SlogP_VSA11>  (46) 
0.0

>  <SlogP_VSA12>  (46) 
0.0

>  <SlogP_VSA2>  (46) 
12.576187

>  <SlogP_VSA3>  (46) 
9.5314

>  <SlogP_VSA4>  (46) 
5.41499

>  <SlogP_VSA5>  (46) 
150.696391

>  <SlogP_VSA6>  (46) 
58.748539

>  <SlogP_VSA7>  (46) 
0.0

>  <SlogP_VSA8>  (46) 
0.0

>  <SlogP_VSA9>  (46) 
0.0

>  <EState_VSA1>  (46) 
0.0

>  <EState_VSA10>  (46) 
4.794537

>  <EState_VSA11>  (46) 
0.0

>  <EState_VSA2>  (46) 
11.384296

>  <EState_VSA3>  (46) 
13.027704

>  <EState_VSA4>  (46) 
18.414748

>  <EState_VSA5>  (46) 
106.610816

>  <EState_VSA6>  (46) 
0.0

>  <EState_VSA7>  (46) 
6.07602

>  <EState_VSA8>  (46) 
71.922524

>  <EState_VSA9>  (46) 
4.736863

>  <VSA_EState1>  (46) 
5.401548

>  <VSA_EState10>  (46) 
0.0

>  <VSA_EState2>  (46) 
12.010108

>  <VSA_EState3>  (46) 
0.0

>  <VSA_EState4>  (46) 
5.65038

>  <VSA_EState5>  (46) 
-0.072023

>  <VSA_EState6>  (46) 
0.0

>  <VSA_EState7>  (46) 
34.276022

>  <VSA_EState8>  (46) 
13.817299

>  <VSA_EState9>  (46) 
0.0

>  <FractionCSP3>  (46) 
0.694444

>  <HeavyAtomCount>  (46) 
38

>  <NHOHCount>  (46) 
0

>  <NOCount>  (46) 
2

>  <NumAliphaticCarbocycles>  (46) 
1

>  <NumAliphaticHeterocycles>  (46) 
0

>  <NumAliphaticRings>  (46) 
1

>  <NumAromaticCarbocycles>  (46) 
0

>  <NumAromaticHeterocycles>  (46) 
0

>  <NumAromaticRings>  (46) 
0

>  <NumHAcceptors>  (46) 
2

>  <NumHDonors>  (46) 
0

>  <NumHeteroatoms>  (46) 
2

>  <NumRotatableBonds>  (46) 
20

>  <NumSaturatedCarbocycles>  (46) 
0

>  <NumSaturatedHeterocycles>  (46) 
0

>  <NumSaturatedRings>  (46) 
0

>  <RingCount>  (46) 
1

>  <MolLogP>  (46) 
11.5425

>  <MolMR>  (46) 
167.397

>  <fr_Al_COO>  (46) 
0

>  <fr_Al_OH>  (46) 
0

>  <fr_Al_OH_noTert>  (46) 
0

>  <fr_ArN>  (46) 
0

>  <fr_Ar_COO>  (46) 
0

>  <fr_Ar_N>  (46) 
0

>  <fr_Ar_NH>  (46) 
0

>  <fr_Ar_OH>  (46) 
0

>  <fr_COO>  (46) 
0

>  <fr_COO2>  (46) 
0

>  <fr_C_O>  (46) 
1

>  <fr_C_O_noCOO>  (46) 
1

>  <fr_C_S>  (46) 
0

>  <fr_HOCCN>  (46) 
0

>  <fr_Imine>  (46) 
0

>  <fr_NH0>  (46) 
0

>  <fr_NH1>  (46) 
0

>  <fr_NH2>  (46) 
0

>  <fr_N_O>  (46) 
0

>  <fr_Ndealkylation1>  (46) 
0

>  <fr_Ndealkylation2>  (46) 
0

>  <fr_Nhpyrrole>  (46) 
0

>  <fr_SH>  (46) 
0

>  <fr_aldehyde>  (46) 
0

>  <fr_alkyl_carbamate>  (46) 
0

>  <fr_alkyl_halide>  (46) 
0

>  <fr_allylic_oxid>  (46) 
9

>  <fr_amide>  (46) 
0

>  <fr_amidine>  (46) 
0

>  <fr_aniline>  (46) 
0

>  <fr_aryl_methyl>  (46) 
0

>  <fr_azide>  (46) 
0

>  <fr_azo>  (46) 
0

>  <fr_barbitur>  (46) 
0

>  <fr_benzene>  (46) 
0

>  <fr_benzodiazepine>  (46) 
0

>  <fr_bicyclic>  (46) 
0

>  <fr_diazo>  (46) 
0

>  <fr_dihydropyridine>  (46) 
0

>  <fr_epoxide>  (46) 
0

>  <fr_ester>  (46) 
1

>  <fr_ether>  (46) 
1

>  <fr_furan>  (46) 
0

>  <fr_guanido>  (46) 
0

>  <fr_halogen>  (46) 
0

>  <fr_hdrzine>  (46) 
0

>  <fr_hdrzone>  (46) 
0

>  <fr_imidazole>  (46) 
0

>  <fr_imide>  (46) 
0

>  <fr_isocyan>  (46) 
0

>  <fr_isothiocyan>  (46) 
0

>  <fr_ketone>  (46) 
0

>  <fr_ketone_Topliss>  (46) 
0

>  <fr_lactam>  (46) 
0

>  <fr_lactone>  (46) 
0

>  <fr_methoxy>  (46) 
0

>  <fr_morpholine>  (46) 
0

>  <fr_nitrile>  (46) 
0

>  <fr_nitro>  (46) 
0

>  <fr_nitro_arom>  (46) 
0

>  <fr_nitro_arom_nonortho>  (46) 
0

>  <fr_nitroso>  (46) 
0

>  <fr_oxazole>  (46) 
0

>  <fr_oxime>  (46) 
0

>  <fr_para_hydroxylation>  (46) 
0

>  <fr_phenol>  (46) 
0

>  <fr_phenol_noOrthoHbond>  (46) 
0

>  <fr_phos_acid>  (46) 
0

>  <fr_phos_ester>  (46) 
0

>  <fr_piperdine>  (46) 
0

>  <fr_piperzine>  (46) 
0

>  <fr_priamide>  (46) 
0

>  <fr_prisulfonamd>  (46) 
0

>  <fr_pyridine>  (46) 
0

>  <fr_quatN>  (46) 
0

>  <fr_sulfide>  (46) 
0

>  <fr_sulfonamd>  (46) 
0

>  <fr_sulfone>  (46) 
0

>  <fr_term_acetylene>  (46) 
0

>  <fr_tetrazole>  (46) 
0

>  <fr_thiazole>  (46) 
0

>  <fr_thiocyan>  (46) 
0

>  <fr_thiophene>  (46) 
0

>  <fr_unbrch_alkane>  (46) 
12

>  <fr_urea>  (46) 
0

>  <NP_Likeness>  (46) 
1.489105

$$$$
CHEMBL476960
     RDKit          3D

  0  0  0  0  0  0  0  0  0  0999 V3000
M  V30 BEGIN CTAB
M  V30 COUNTS 39 39 0 0 0
M  V30 BEGIN ATOM
M  V30 1 O -2.641367 -4.276354 2.158066 0
M  V30 2 C -2.010971 -3.717181 1.071080 0
M  V30 3 C -1.073727 -2.602908 1.589641 0
M  V30 4 C -0.175176 -3.287128 2.588498 0
M  V30 5 O 0.759119 -2.492992 3.191415 0
M  V30 6 N -0.415375 -2.017127 0.468289 0
M  V30 7 C 0.443299 -0.895366 0.734787 0 CFG=1
M  V30 8 C 0.979073 -0.440052 -0.605636 0
M  V30 9 C 1.107535 1.061157 -0.666023 0 CFG=2
M  V30 10 O -0.142972 1.604619 -0.950763 0
M  V30 11 C 2.014117 1.482408 -1.796995 0
M  V30 12 O 2.071591 2.874264 -1.852582 0
M  V30 13 C 1.644148 1.496854 0.680851 0 CFG=1
M  V30 14 O 2.162217 2.782701 0.645843 0
M  V30 15 C 0.441676 1.454377 1.615881 0 CFG=2
M  V30 16 O 0.899240 1.667071 2.894264 0
M  V30 17 C -0.337123 0.174499 1.445014 0 CFG=1
M  V30 18 O -1.594175 0.377956 0.874707 0
M  V30 19 H -3.276797 -3.609917 2.560931 0
M  V30 20 H -1.346603 -4.459190 0.596751 0
M  V30 21 H -2.697310 -3.303411 0.319189 0
M  V30 22 H -1.732157 -1.878183 2.126876 0
M  V30 23 H 0.322494 -4.178222 2.111542 0
M  V30 24 H -0.790701 -3.738399 3.404073 0
M  V30 25 H 0.928338 -2.771793 4.122051 0
M  V30 26 H 0.159106 -2.757992 0.008418 0
M  V30 27 H 1.275419 -1.236631 1.379272 0
M  V30 28 H 1.997555 -0.865057 -0.724392 0
M  V30 29 H 0.394399 -0.841102 -1.452791 0
M  V30 30 H -0.033732 2.477269 -1.364326 0
M  V30 31 H 1.534201 1.139358 -2.737432 0
M  V30 32 H 3.056014 1.138910 -1.686051 0
M  V30 33 H 1.660126 3.236038 -2.696918 0
M  V30 34 H 2.379319 0.752759 1.047196 0
M  V30 35 H 2.910446 2.914384 1.277804 0
M  V30 36 H -0.197278 2.320749 1.310046 0
M  V30 37 H 0.301269 2.302773 3.366380 0
M  V30 38 H -0.553573 -0.203071 2.465133 0
M  V30 39 H -1.834697 -0.326874 0.226029 0
M  V30 END ATOM
M  V30 BEGIN BOND
M  V30 1 1 1 2
M  V30 2 1 2 3
M  V30 3 1 3 4
M  V30 4 1 4 5
M  V30 5 1 3 6
M  V30 6 1 6 7
M  V30 7 1 7 8
M  V30 8 1 8 9
M  V30 9 1 9 10 CFG=3
M  V30 10 1 9 11
M  V30 11 1 11 12
M  V30 12 1 9 13
M  V30 13 1 13 14
M  V30 14 1 13 15
M  V30 15 1 15 16
M  V30 16 1 15 17
M  V30 17 1 17 18
M  V30 18 1 17 7
M  V30 19 1 1 19
M  V30 20 1 2 20
M  V30 21 1 2 21
M  V30 22 1 3 22
M  V30 23 1 4 23
M  V30 24 1 4 24
M  V30 25 1 5 25
M  V30 26 1 6 26
M  V30 27 1 7 27 CFG=1
M  V30 28 1 8 28
M  V30 29 1 8 29
M  V30 30 1 10 30
M  V30 31 1 11 31
M  V30 32 1 11 32
M  V30 33 1 12 33
M  V30 34 1 13 34 CFG=1
M  V30 35 1 14 35
M  V30 36 1 15 36 CFG=3
M  V30 37 1 16 37
M  V30 38 1 17 38 CFG=1
M  V30 39 1 18 39
M  V30 END BOND
M  V30 END CTAB
M  END
>  <Dataset>  (47) 
OralDrugs

>  <Ligand_Instance>  (47) 
nan

>  <PDB_ID>  (47) 
nan

>  <Standardized_SMILES>  (47) 
OCC(CO)N[C@H]1C[C@](O)(CO)[C@@H](O)[C@H](O)[C@H]1O

>  <Name>  (47) 
Voglibose

>  <Pocket>  (47) 
nan

>  <ATP_Site>  (47) 
nan

>  <Peripheral>  (47) 
nan

>  <Num_H_Atoms_ProtBoundConf>  (47) 
nan

>  <Num_Resolved_Atoms>  (47) 
nan

>  <Num_Not_Resolved_Atoms>  (47) 
nan

>  <2D_Mol_H>  (47) 
<rdkit.Chem.rdchem.Mol object at 0x72a238bbcdd0>

>  <MW>  (47) 
267.278

>  <HBA>  (47) 
8

>  <HBD>  (47) 
8

>  <LogP>  (47) 
-4.4924

>  <NRB>  (47) 
12

>  <TPSA>  (47) 
153.64

>  <Num_Heavy_Atoms>  (47) 
18

>  <Ro5>  (47) 
[True, True, False, True, False, False]

>  <Ro5_Fulfilled>  (47) 
False

>  <Ro3>  (47) 
[True, False, False, True]

>  <Ro3_Fulfilled>  (47) 
False

>  <Fsp3>  (47) 
1.0

>  <Fsp3_0.42>  (47) 
True

>  <Fsp3_0.45>  (47) 
True

>  <Stereogenic_Carbons>  (47) 
5

>  <C_Atoms>  (47) 
10

>  <FCStereo>  (47) 
0.5

>  <SPS>  (47) 
744

>  <nSPS>  (47) 
41.333333

>  <PBF>  (47) 
0.929122

>  <PBF_0.6>  (47) 
True

>  <nPBF>  (47) 
0.051618

>  <nPBF_0.016>  (47) 
True

>  <PMI1>  (47) 
614.440758

>  <PMI2>  (47) 
2160.168319

>  <PMI3>  (47) 
2361.124076

>  <NPR1>  (47) 
0.260232

>  <NPR2>  (47) 
0.91489

>  <Sum_NPR>  (47) 
1.175122

>  <Sum_NPR_1.07>  (47) 
True

>  <Sum_NPR_1.2>  (47) 
False

>  <MaxAbsEStateIndex>  (47) 
9.929322

>  <MaxEStateIndex>  (47) 
9.929322

>  <MinAbsEStateIndex>  (47) 
0.222824

>  <MinEStateIndex>  (47) 
-1.938716

>  <qed>  (47) 
0.247886

>  <MolWt>  (47) 
267.278

>  <HeavyAtomMolWt>  (47) 
246.11

>  <ExactMolWt>  (47) 
267.131802

>  <NumValenceElectrons>  (47) 
108

>  <NumRadicalElectrons>  (47) 
0

>  <MaxPartialCharge>  (47) 
0.117614

>  <MinPartialCharge>  (47) 
-0.394663

>  <MaxAbsPartialCharge>  (47) 
0.394663

>  <MinAbsPartialCharge>  (47) 
0.117614

>  <FpDensityMorgan1>  (47) 
1.055556

>  <FpDensityMorgan2>  (47) 
1.611111

>  <FpDensityMorgan3>  (47) 
2.055556

>  <BCUT2D_MWHI>  (47) 
16.399863

>  <BCUT2D_MWLOW>  (47) 
9.759272

>  <BCUT2D_CHGHI>  (47) 
2.508319

>  <BCUT2D_CHGLO>  (47) 
-2.455885

>  <BCUT2D_LOGPHI>  (47) 
2.291709

>  <BCUT2D_LOGPLOW>  (47) 
-2.677043

>  <BCUT2D_MRHI>  (47) 
5.046187

>  <BCUT2D_MRLOW>  (47) 
-0.20745

>  <AvgIpc>  (47) 
2.387201

>  <BalabanJ>  (47) 
2.789498

>  <BertzCT>  (47) 
262.61075

>  <Chi0>  (47) 
13.922285

>  <Chi0n>  (47) 
9.845674

>  <Chi0v>  (47) 
9.845674

>  <Chi1>  (47) 
8.390395

>  <Chi1n>  (47) 
5.744764

>  <Chi1v>  (47) 
5.744764

>  <Chi2n>  (47) 
4.727067

>  <Chi2v>  (47) 
4.727067

>  <Chi3n>  (47) 
3.373945

>  <Chi3v>  (47) 
3.373945

>  <Chi4n>  (47) 
2.146438

>  <Chi4v>  (47) 
2.146438

>  <HallKierAlpha>  (47) 
-0.32

>  <Ipc>  (47) 
7724.981223

>  <Kappa1>  (47) 
15.736561

>  <Kappa2>  (47) 
6.218679

>  <Kappa3>  (47) 
2.978887

>  <LabuteASA>  (47) 
104.127397

>  <PEOE_VSA1>  (47) 
41.06248

>  <PEOE_VSA10>  (47) 
17.808984

>  <PEOE_VSA11>  (47) 
0.0

>  <PEOE_VSA12>  (47) 
0.0

>  <PEOE_VSA13>  (47) 
0.0

>  <PEOE_VSA14>  (47) 
0.0

>  <PEOE_VSA2>  (47) 
0.0

>  <PEOE_VSA3>  (47) 
0.0

>  <PEOE_VSA4>  (47) 
0.0

>  <PEOE_VSA5>  (47) 
0.0

>  <PEOE_VSA6>  (47) 
0.0

>  <PEOE_VSA7>  (47) 
6.420822

>  <PEOE_VSA8>  (47) 
6.041841

>  <PEOE_VSA9>  (47) 
31.966453

>  <SMR_VSA1>  (47) 
35.745692

>  <SMR_VSA10>  (47) 
0.0

>  <SMR_VSA2>  (47) 
0.0

>  <SMR_VSA3>  (47) 
5.316789

>  <SMR_VSA4>  (47) 
0.0

>  <SMR_VSA5>  (47) 
42.417453

>  <SMR_VSA6>  (47) 
19.820646

>  <SMR_VSA7>  (47) 
0.0

>  <SMR_VSA8>  (47) 
0.0

>  <SMR_VSA9>  (47) 
0.0

>  <SlogP_VSA1>  (47) 
5.316789

>  <SlogP_VSA10>  (47) 
0.0

>  <SlogP_VSA11>  (47) 
0.0

>  <SlogP_VSA12>  (47) 
0.0

>  <SlogP_VSA2>  (47) 
91.562969

>  <SlogP_VSA3>  (47) 
0.0

>  <SlogP_VSA4>  (47) 
0.0

>  <SlogP_VSA5>  (47) 
6.420822

>  <SlogP_VSA6>  (47) 
0.0

>  <SlogP_VSA7>  (47) 
0.0

>  <SlogP_VSA8>  (47) 
0.0

>  <SlogP_VSA9>  (47) 
0.0

>  <EState_VSA1>  (47) 
55.817278

>  <EState_VSA10>  (47) 
20.42611

>  <EState_VSA11>  (47) 
0.0

>  <EState_VSA2>  (47) 
6.420822

>  <EState_VSA3>  (47) 
0.0

>  <EState_VSA4>  (47) 
0.0

>  <EState_VSA5>  (47) 
0.0

>  <EState_VSA6>  (47) 
0.0

>  <EState_VSA7>  (47) 
0.0

>  <EState_VSA8>  (47) 
5.316789

>  <EState_VSA9>  (47) 
15.319582

>  <VSA_EState1>  (47) 
0.0

>  <VSA_EState10>  (47) 
0.0

>  <VSA_EState2>  (47) 
0.0

>  <VSA_EState3>  (47) 
68.424283

>  <VSA_EState4>  (47) 
-1.938716

>  <VSA_EState5>  (47) 
0.0

>  <VSA_EState6>  (47) 
-1.597328

>  <VSA_EState7>  (47) 
-4.906978

>  <VSA_EState8>  (47) 
-1.564595

>  <VSA_EState9>  (47) 
0.0

>  <FractionCSP3>  (47) 
1.0

>  <HeavyAtomCount>  (47) 
18

>  <NHOHCount>  (47) 
8

>  <NOCount>  (47) 
8

>  <NumAliphaticCarbocycles>  (47) 
1

>  <NumAliphaticHeterocycles>  (47) 
0

>  <NumAliphaticRings>  (47) 
1

>  <NumAromaticCarbocycles>  (47) 
0

>  <NumAromaticHeterocycles>  (47) 
0

>  <NumAromaticRings>  (47) 
0

>  <NumHAcceptors>  (47) 
8

>  <NumHDonors>  (47) 
8

>  <NumHeteroatoms>  (47) 
8

>  <NumRotatableBonds>  (47) 
5

>  <NumSaturatedCarbocycles>  (47) 
1

>  <NumSaturatedHeterocycles>  (47) 
0

>  <NumSaturatedRings>  (47) 
1

>  <RingCount>  (47) 
1

>  <MolLogP>  (47) 
-4.4924

>  <MolMR>  (47) 
59.5563

>  <fr_Al_COO>  (47) 
0

>  <fr_Al_OH>  (47) 
7

>  <fr_Al_OH_noTert>  (47) 
6

>  <fr_ArN>  (47) 
0

>  <fr_Ar_COO>  (47) 
0

>  <fr_Ar_N>  (47) 
0

>  <fr_Ar_NH>  (47) 
0

>  <fr_Ar_OH>  (47) 
0

>  <fr_COO>  (47) 
0

>  <fr_COO2>  (47) 
0

>  <fr_C_O>  (47) 
0

>  <fr_C_O_noCOO>  (47) 
0

>  <fr_C_S>  (47) 
0

>  <fr_HOCCN>  (47) 
0

>  <fr_Imine>  (47) 
0

>  <fr_NH0>  (47) 
0

>  <fr_NH1>  (47) 
1

>  <fr_NH2>  (47) 
0

>  <fr_N_O>  (47) 
0

>  <fr_Ndealkylation1>  (47) 
0

>  <fr_Ndealkylation2>  (47) 
0

>  <fr_Nhpyrrole>  (47) 
0

>  <fr_SH>  (47) 
0

>  <fr_aldehyde>  (47) 
0

>  <fr_alkyl_carbamate>  (47) 
0

>  <fr_alkyl_halide>  (47) 
0

>  <fr_allylic_oxid>  (47) 
0

>  <fr_amide>  (47) 
0

>  <fr_amidine>  (47) 
0

>  <fr_aniline>  (47) 
0

>  <fr_aryl_methyl>  (47) 
0

>  <fr_azide>  (47) 
0

>  <fr_azo>  (47) 
0

>  <fr_barbitur>  (47) 
0

>  <fr_benzene>  (47) 
0

>  <fr_benzodiazepine>  (47) 
0

>  <fr_bicyclic>  (47) 
0

>  <fr_diazo>  (47) 
0

>  <fr_dihydropyridine>  (47) 
0

>  <fr_epoxide>  (47) 
0

>  <fr_ester>  (47) 
0

>  <fr_ether>  (47) 
0

>  <fr_furan>  (47) 
0

>  <fr_guanido>  (47) 
0

>  <fr_halogen>  (47) 
0

>  <fr_hdrzine>  (47) 
0

>  <fr_hdrzone>  (47) 
0

>  <fr_imidazole>  (47) 
0

>  <fr_imide>  (47) 
0

>  <fr_isocyan>  (47) 
0

>  <fr_isothiocyan>  (47) 
0

>  <fr_ketone>  (47) 
0

>  <fr_ketone_Topliss>  (47) 
0

>  <fr_lactam>  (47) 
0

>  <fr_lactone>  (47) 
0

>  <fr_methoxy>  (47) 
0

>  <fr_morpholine>  (47) 
0

>  <fr_nitrile>  (47) 
0

>  <fr_nitro>  (47) 
0

>  <fr_nitro_arom>  (47) 
0

>  <fr_nitro_arom_nonortho>  (47) 
0

>  <fr_nitroso>  (47) 
0

>  <fr_oxazole>  (47) 
0

>  <fr_oxime>  (47) 
0

>  <fr_para_hydroxylation>  (47) 
0

>  <fr_phenol>  (47) 
0

>  <fr_phenol_noOrthoHbond>  (47) 
0

>  <fr_phos_acid>  (47) 
0

>  <fr_phos_ester>  (47) 
0

>  <fr_piperdine>  (47) 
0

>  <fr_piperzine>  (47) 
0

>  <fr_priamide>  (47) 
0

>  <fr_prisulfonamd>  (47) 
0

>  <fr_pyridine>  (47) 
0

>  <fr_quatN>  (47) 
0

>  <fr_sulfide>  (47) 
0

>  <fr_sulfonamd>  (47) 
0

>  <fr_sulfone>  (47) 
0

>  <fr_term_acetylene>  (47) 
0

>  <fr_tetrazole>  (47) 
0

>  <fr_thiazole>  (47) 
0

>  <fr_thiocyan>  (47) 
0

>  <fr_thiophene>  (47) 
0

>  <fr_unbrch_alkane>  (47) 
0

>  <fr_urea>  (47) 
0

>  <NP_Likeness>  (47) 
1.696028

$$$$
CHEMBL2079130
     RDKit          3D

  0  0  0  0  0  0  0  0  0  0999 V3000
M  V30 BEGIN CTAB
M  V30 COUNTS 40 42 0 0 0
M  V30 BEGIN ATOM
M  V30 1 C 1.213713 -6.024507 1.144241 0
M  V30 2 N 1.548359 -4.608978 1.066139 0
M  V30 3 C 0.345064 -3.888089 0.799736 0
M  V30 4 C 0.540617 -2.404349 0.692262 0
M  V30 5 C 0.828345 -1.849662 -0.536508 0
M  V30 6 C 0.949473 -0.498414 -0.319156 0
M  V30 7 C 1.220300 0.595535 -1.237618 0
M  V30 8 C 0.537108 0.914142 -2.392418 0
M  V30 9 C 0.921568 1.957095 -3.207971 0
M  V30 10 C 2.014858 2.715978 -2.881124 0
M  V30 11 C 2.729693 2.419114 -1.717696 0
M  V30 12 C 2.337228 1.373293 -0.908822 0
M  V30 13 F 3.189070 1.243590 0.146524 0
M  V30 14 N 0.747692 -0.209096 0.976079 0
M  V30 15 S 0.642838 1.141701 2.047253 0
M  V30 16 O 1.677422 1.120574 3.123976 0
M  V30 17 O 0.783040 2.461640 1.318068 0
M  V30 18 C -1.002891 1.225485 2.729151 0
M  V30 19 C -2.009037 1.941598 2.114021 0
M  V30 20 C -3.279860 2.002713 2.646134 0
M  V30 21 C -3.481889 1.298793 3.838407 0
M  V30 22 N -2.491907 0.609665 4.419630 0
M  V30 23 C -1.247123 0.540646 3.912628 0
M  V30 24 C 0.492805 -1.385528 1.621978 0
M  V30 25 H 2.090410 -6.640441 1.431152 0
M  V30 26 H 0.457814 -6.124115 1.956077 0
M  V30 27 H 0.724366 -6.361492 0.222198 0
M  V30 28 H 2.044335 -4.310447 1.910730 0
M  V30 29 H -0.423214 -4.071695 1.603240 0
M  V30 30 H -0.116317 -4.299922 -0.119153 0
M  V30 31 H 0.959545 -2.241302 -1.520444 0
M  V30 32 H -0.318891 0.240435 -2.552970 0
M  V30 33 H 0.254195 2.037280 -4.059027 0
M  V30 34 H 2.235800 3.509205 -3.581358 0
M  V30 35 H 3.564087 3.083967 -1.570831 0
M  V30 36 H -1.760761 2.464555 1.179812 0
M  V30 37 H -4.024525 2.580944 2.116007 0
M  V30 38 H -4.482905 1.353485 4.247393 0
M  V30 39 H -0.474949 -0.024441 4.408789 0
M  V30 40 H 0.268004 -1.737399 2.639300 0
M  V30 END ATOM
M  V30 BEGIN BOND
M  V30 1 1 1 2
M  V30 2 1 2 3
M  V30 3 1 3 4
M  V30 4 1 4 5
M  V30 5 2 5 6
M  V30 6 1 6 7
M  V30 7 2 7 8
M  V30 8 1 8 9
M  V30 9 2 9 10
M  V30 10 1 10 11
M  V30 11 2 11 12
M  V30 12 1 12 13
M  V30 13 1 6 14
M  V30 14 1 14 15
M  V30 15 2 15 16
M  V30 16 2 15 17
M  V30 17 1 15 18
M  V30 18 2 18 19
M  V30 19 1 19 20
M  V30 20 2 20 21
M  V30 21 1 21 22
M  V30 22 2 22 23
M  V30 23 1 14 24
M  V30 24 2 24 4
M  V30 25 1 12 7
M  V30 26 1 23 18
M  V30 27 1 1 25
M  V30 28 1 1 26
M  V30 29 1 1 27
M  V30 30 1 2 28
M  V30 31 1 3 29
M  V30 32 1 3 30
M  V30 33 1 5 31
M  V30 34 1 8 32
M  V30 35 1 9 33
M  V30 36 1 10 34
M  V30 37 1 11 35
M  V30 38 1 19 36
M  V30 39 1 20 37
M  V30 40 1 21 38
M  V30 41 1 23 39
M  V30 42 1 24 40
M  V30 END BOND
M  V30 END CTAB
M  END
>  <Dataset>  (48) 
OralDrugs

>  <Ligand_Instance>  (48) 
nan

>  <PDB_ID>  (48) 
nan

>  <Standardized_SMILES>  (48) 
CNCc1cc(-c2ccccc2F)n(S(=O)(=O)c2cccnc2)c1

>  <Name>  (48) 
Vonoprazan

>  <Pocket>  (48) 
nan

>  <ATP_Site>  (48) 
nan

>  <Peripheral>  (48) 
nan

>  <Num_H_Atoms_ProtBoundConf>  (48) 
nan

>  <Num_Resolved_Atoms>  (48) 
nan

>  <Num_Not_Resolved_Atoms>  (48) 
nan

>  <2D_Mol_H>  (48) 
<rdkit.Chem.rdchem.Mol object at 0x72a238bbceb0>

>  <MW>  (48) 
345.399

>  <HBA>  (48) 
5

>  <HBD>  (48) 
1

>  <LogP>  (48) 
2.6456

>  <NRB>  (48) 
6

>  <TPSA>  (48) 
63.99

>  <Num_Heavy_Atoms>  (48) 
24

>  <Ro5>  (48) 
[True, True, True, True, True, True]

>  <Ro5_Fulfilled>  (48) 
True

>  <Ro3>  (48) 
[False, False, True, True]

>  <Ro3_Fulfilled>  (48) 
False

>  <Fsp3>  (48) 
0.117647

>  <Fsp3_0.42>  (48) 
False

>  <Fsp3_0.45>  (48) 
False

>  <Stereogenic_Carbons>  (48) 
0

>  <C_Atoms>  (48) 
17

>  <FCStereo>  (48) 
0.0

>  <SPS>  (48) 
278

>  <nSPS>  (48) 
11.583333

>  <PBF>  (48) 
0.994238

>  <PBF_0.6>  (48) 
True

>  <nPBF>  (48) 
0.041427

>  <nPBF_0.016>  (48) 
True

>  <PMI1>  (48) 
2293.489861

>  <PMI2>  (48) 
2443.667023

>  <PMI3>  (48) 
3888.7087

>  <NPR1>  (48) 
0.589782

>  <NPR2>  (48) 
0.628401

>  <Sum_NPR>  (48) 
1.218182

>  <Sum_NPR_1.07>  (48) 
True

>  <Sum_NPR_1.2>  (48) 
True

>  <MaxAbsEStateIndex>  (48) 
14.204924

>  <MaxEStateIndex>  (48) 
14.204924

>  <MinAbsEStateIndex>  (48) 
0.050182

>  <MinEStateIndex>  (48) 
-3.872296

>  <qed>  (48) 
0.77208

>  <MolWt>  (48) 
345.399

>  <HeavyAtomMolWt>  (48) 
329.271

>  <ExactMolWt>  (48) 
345.094726

>  <NumValenceElectrons>  (48) 
124

>  <NumRadicalElectrons>  (48) 
0

>  <MaxPartialCharge>  (48) 
0.2692

>  <MinPartialCharge>  (48) 
-0.315637

>  <MaxAbsPartialCharge>  (48) 
0.315637

>  <MinAbsPartialCharge>  (48) 
0.2692

>  <FpDensityMorgan1>  (48) 
1.208333

>  <FpDensityMorgan2>  (48) 
2.0

>  <FpDensityMorgan3>  (48) 
2.666667

>  <BCUT2D_MWHI>  (48) 
32.233325

>  <BCUT2D_MWLOW>  (48) 
10.124886

>  <BCUT2D_CHGHI>  (48) 
2.226823

>  <BCUT2D_CHGLO>  (48) 
-2.104768

>  <BCUT2D_LOGPHI>  (48) 
2.283262

>  <BCUT2D_LOGPLOW>  (48) 
-2.13627

>  <BCUT2D_MRHI>  (48) 
7.896399

>  <BCUT2D_MRLOW>  (48) 
0.58674

>  <AvgIpc>  (48) 
3.008943

>  <BalabanJ>  (48) 
2.225231

>  <BertzCT>  (48) 
952.97682

>  <Chi0>  (48) 
17.15649

>  <Chi0n>  (48) 
12.977746

>  <Chi0v>  (48) 
13.794243

>  <Chi1>  (48) 
11.536042

>  <Chi1n>  (48) 
7.301717

>  <Chi1v>  (48) 
8.74178

>  <Chi2n>  (48) 
5.233358

>  <Chi2v>  (48) 
7.048288

>  <Chi3n>  (48) 
3.564546

>  <Chi3v>  (48) 
5.221762

>  <Chi4n>  (48) 
2.474952

>  <Chi4v>  (48) 
3.830846

>  <HallKierAlpha>  (48) 
-2.51

>  <Ipc>  (48) 
371881.317784

>  <Kappa1>  (48) 
16.351376

>  <Kappa2>  (48) 
6.543035

>  <Kappa3>  (48) 
2.954482

>  <LabuteASA>  (48) 
139.390429

>  <PEOE_VSA1>  (48) 
5.316789

>  <PEOE_VSA10>  (48) 
10.712704

>  <PEOE_VSA11>  (48) 
0.0

>  <PEOE_VSA12>  (48) 
0.0

>  <PEOE_VSA13>  (48) 
10.023291

>  <PEOE_VSA14>  (48) 
0.0

>  <PEOE_VSA2>  (48) 
4.983979

>  <PEOE_VSA3>  (48) 
16.780618

>  <PEOE_VSA4>  (48) 
0.0

>  <PEOE_VSA5>  (48) 
0.0

>  <PEOE_VSA6>  (48) 
12.132734

>  <PEOE_VSA7>  (48) 
42.942959

>  <PEOE_VSA8>  (48) 
30.698739

>  <PEOE_VSA9>  (48) 
5.693928

>  <SMR_VSA1>  (48) 
12.808212

>  <SMR_VSA10>  (48) 
10.023291

>  <SMR_VSA2>  (48) 
0.0

>  <SMR_VSA3>  (48) 
14.273173

>  <SMR_VSA4>  (48) 
0.0

>  <SMR_VSA5>  (48) 
11.44024

>  <SMR_VSA6>  (48) 
7.047672

>  <SMR_VSA7>  (48) 
72.435773

>  <SMR_VSA8>  (48) 
0.0

>  <SMR_VSA9>  (48) 
11.257379

>  <SlogP_VSA1>  (48) 
5.316789

>  <SlogP_VSA10>  (48) 
4.390415

>  <SlogP_VSA11>  (48) 
0.0

>  <SlogP_VSA12>  (48) 
0.0

>  <SlogP_VSA2>  (48) 
24.421853

>  <SlogP_VSA3>  (48) 
16.568048

>  <SlogP_VSA4>  (48) 
5.817221

>  <SlogP_VSA5>  (48) 
5.563451

>  <SlogP_VSA6>  (48) 
65.950584

>  <SlogP_VSA7>  (48) 
0.0

>  <SlogP_VSA8>  (48) 
11.257379

>  <SlogP_VSA9>  (48) 
0.0

>  <EState_VSA1>  (48) 
15.840512

>  <EState_VSA10>  (48) 
12.808212

>  <EState_VSA11>  (48) 
0.0

>  <EState_VSA2>  (48) 
16.152863

>  <EState_VSA3>  (48) 
6.544756

>  <EState_VSA4>  (48) 
9.535857

>  <EState_VSA5>  (48) 
30.723265

>  <EState_VSA6>  (48) 
37.379507

>  <EState_VSA7>  (48) 
0.0

>  <EState_VSA8>  (48) 
10.300767

>  <EState_VSA9>  (48) 
0.0

>  <VSA_EState1>  (48) 
41.185065

>  <VSA_EState10>  (48) 
0.0

>  <VSA_EState2>  (48) 
3.910826

>  <VSA_EState3>  (48) 
2.967585

>  <VSA_EState4>  (48) 
1.247907

>  <VSA_EState5>  (48) 
-0.477552

>  <VSA_EState6>  (48) 
10.784056

>  <VSA_EState7>  (48) 
4.275498

>  <VSA_EState8>  (48) 
0.469258

>  <VSA_EState9>  (48) 
-2.112644

>  <FractionCSP3>  (48) 
0.117647

>  <HeavyAtomCount>  (48) 
24

>  <NHOHCount>  (48) 
1

>  <NOCount>  (48) 
5

>  <NumAliphaticCarbocycles>  (48) 
0

>  <NumAliphaticHeterocycles>  (48) 
0

>  <NumAliphaticRings>  (48) 
0

>  <NumAromaticCarbocycles>  (48) 
1

>  <NumAromaticHeterocycles>  (48) 
2

>  <NumAromaticRings>  (48) 
3

>  <NumHAcceptors>  (48) 
5

>  <NumHDonors>  (48) 
1

>  <NumHeteroatoms>  (48) 
7

>  <NumRotatableBonds>  (48) 
5

>  <NumSaturatedCarbocycles>  (48) 
0

>  <NumSaturatedHeterocycles>  (48) 
0

>  <NumSaturatedRings>  (48) 
0

>  <RingCount>  (48) 
3

>  <MolLogP>  (48) 
2.6456

>  <MolMR>  (48) 
89.4105

>  <fr_Al_COO>  (48) 
0

>  <fr_Al_OH>  (48) 
0

>  <fr_Al_OH_noTert>  (48) 
0

>  <fr_ArN>  (48) 
0

>  <fr_Ar_COO>  (48) 
0

>  <fr_Ar_N>  (48) 
2

>  <fr_Ar_NH>  (48) 
0

>  <fr_Ar_OH>  (48) 
0

>  <fr_COO>  (48) 
0

>  <fr_COO2>  (48) 
0

>  <fr_C_O>  (48) 
0

>  <fr_C_O_noCOO>  (48) 
0

>  <fr_C_S>  (48) 
0

>  <fr_HOCCN>  (48) 
0

>  <fr_Imine>  (48) 
0

>  <fr_NH0>  (48) 
2

>  <fr_NH1>  (48) 
1

>  <fr_NH2>  (48) 
0

>  <fr_N_O>  (48) 
0

>  <fr_Ndealkylation1>  (48) 
0

>  <fr_Ndealkylation2>  (48) 
0

>  <fr_Nhpyrrole>  (48) 
0

>  <fr_SH>  (48) 
0

>  <fr_aldehyde>  (48) 
0

>  <fr_alkyl_carbamate>  (48) 
0

>  <fr_alkyl_halide>  (48) 
0

>  <fr_allylic_oxid>  (48) 
0

>  <fr_amide>  (48) 
0

>  <fr_amidine>  (48) 
0

>  <fr_aniline>  (48) 
0

>  <fr_aryl_methyl>  (48) 
0

>  <fr_azide>  (48) 
0

>  <fr_azo>  (48) 
0

>  <fr_barbitur>  (48) 
0

>  <fr_benzene>  (48) 
1

>  <fr_benzodiazepine>  (48) 
0

>  <fr_bicyclic>  (48) 
0

>  <fr_diazo>  (48) 
0

>  <fr_dihydropyridine>  (48) 
0

>  <fr_epoxide>  (48) 
0

>  <fr_ester>  (48) 
0

>  <fr_ether>  (48) 
0

>  <fr_furan>  (48) 
0

>  <fr_guanido>  (48) 
0

>  <fr_halogen>  (48) 
1

>  <fr_hdrzine>  (48) 
0

>  <fr_hdrzone>  (48) 
0

>  <fr_imidazole>  (48) 
0

>  <fr_imide>  (48) 
0

>  <fr_isocyan>  (48) 
0

>  <fr_isothiocyan>  (48) 
0

>  <fr_ketone>  (48) 
0

>  <fr_ketone_Topliss>  (48) 
0

>  <fr_lactam>  (48) 
0

>  <fr_lactone>  (48) 
0

>  <fr_methoxy>  (48) 
0

>  <fr_morpholine>  (48) 
0

>  <fr_nitrile>  (48) 
0

>  <fr_nitro>  (48) 
0

>  <fr_nitro_arom>  (48) 
0

>  <fr_nitro_arom_nonortho>  (48) 
0

>  <fr_nitroso>  (48) 
0

>  <fr_oxazole>  (48) 
0

>  <fr_oxime>  (48) 
0

>  <fr_para_hydroxylation>  (48) 
0

>  <fr_phenol>  (48) 
0

>  <fr_phenol_noOrthoHbond>  (48) 
0

>  <fr_phos_acid>  (48) 
0

>  <fr_phos_ester>  (48) 
0

>  <fr_piperdine>  (48) 
0

>  <fr_piperzine>  (48) 
0

>  <fr_priamide>  (48) 
0

>  <fr_prisulfonamd>  (48) 
0

>  <fr_pyridine>  (48) 
1

>  <fr_quatN>  (48) 
0

>  <fr_sulfide>  (48) 
0

>  <fr_sulfonamd>  (48) 
0

>  <fr_sulfone>  (48) 
0

>  <fr_term_acetylene>  (48) 
0

>  <fr_tetrazole>  (48) 
0

>  <fr_thiazole>  (48) 
0

>  <fr_thiocyan>  (48) 
0

>  <fr_thiophene>  (48) 
0

>  <fr_unbrch_alkane>  (48) 
0

>  <fr_urea>  (48) 
0

>  <NP_Likeness>  (48) 
-1.341761

$$$$
CHEMBL493982
     RDKit          3D

  0  0  0  0  0  0  0  0  0  0999 V3000
M  V30 BEGIN CTAB
M  V30 COUNTS 69 73 0 0 0
M  V30 BEGIN ATOM
M  V30 1 C 4.105121 2.850070 6.409063 0
M  V30 2 C 4.603594 2.210017 5.143178 0
M  V30 3 O 3.566895 1.546510 4.432440 0
M  V30 4 C 2.464717 2.251238 3.980030 0
M  V30 5 O 2.806239 3.370344 4.407706 0
M  V30 6 N 1.332624 1.794078 3.261627 0
M  V30 7 C 0.282458 2.701554 2.880978 0 CFG=2
M  V30 8 C -1.051993 2.429726 3.473278 0
M  V30 9 C -1.809666 1.274133 2.929315 0
M  V30 10 C -1.346905 1.033831 1.480419 0 CFG=2
M  V30 11 C -1.110376 2.394514 0.922105 0 CFG=1
M  V30 12 C 0.218448 2.878122 1.370955 0
M  V30 13 C -1.370337 2.477131 -0.562760 0
M  V30 14 C -2.845579 2.199991 -0.699395 0 CFG=1
M  V30 15 C -3.333575 2.180460 -2.095081 0
M  V30 16 O -2.772098 3.029200 -2.871557 0
M  V30 17 O -4.325304 1.176654 -2.150628 0
M  V30 18 C -3.735626 0.138890 -1.338919 0 CFG=2
M  V30 19 C -4.793263 -0.862330 -0.966268 0
M  V30 20 C -3.272873 0.899301 -0.118713 0 CFG=1
M  V30 21 C -2.275408 0.159219 0.712117 0 CFG=1
M  V30 22 C -1.660299 -0.979915 0.002754 0
M  V30 23 C -0.454614 -1.471853 -0.169152 0
M  V30 24 C -0.100226 -2.641632 -0.936623 0
M  V30 25 C -1.005695 -3.425744 -1.615201 0
M  V30 26 C -0.598918 -4.549948 -2.341022 0
M  V30 27 C 0.749426 -4.862781 -2.364158 0
M  V30 28 C 1.273477 -6.028775 -3.101129 0
M  V30 29 C 2.403642 -6.639268 -2.576083 0
M  V30 30 C 3.008855 -7.744098 -3.158330 0
M  V30 31 C 2.451321 -8.252408 -4.315879 0
M  V30 32 C 1.313707 -7.648476 -4.856012 0
M  V30 33 F 0.744033 -8.130865 -5.996530 0
M  V30 34 C 0.729974 -6.549934 -4.257859 0
M  V30 35 C 1.629559 -4.049533 -1.669117 0
M  V30 36 N 1.201158 -2.975455 -0.981297 0
M  V30 37 H 3.157290 2.357704 6.751643 0
M  V30 38 H 4.841180 2.653614 7.210298 0
M  V30 39 H 3.982245 3.950987 6.338204 0
M  V30 40 H 5.371896 1.455425 5.399085 0
M  V30 41 H 5.069848 2.980214 4.495358 0
M  V30 42 H 1.473065 0.770959 3.119677 0
M  V30 43 H 0.603561 3.703809 3.275791 0
M  V30 44 H -1.647181 3.384147 3.360220 0
M  V30 45 H -0.966161 2.312774 4.571643 0
M  V30 46 H -1.582374 0.364845 3.553921 0
M  V30 47 H -2.880528 1.488290 2.983915 0
M  V30 48 H -0.387158 0.466229 1.650219 0
M  V30 49 H -1.873098 3.104919 1.361210 0
M  V30 50 H 0.320824 3.943550 1.063135 0
M  V30 51 H 1.005162 2.249939 0.903926 0
M  V30 52 H -0.722595 1.872994 -1.190519 0
M  V30 53 H -1.198978 3.547739 -0.851565 0
M  V30 54 H -3.358644 3.067509 -0.218963 0
M  V30 55 H -2.940293 -0.264729 -1.965459 0
M  V30 56 H -4.643153 -1.851546 -1.482968 0
M  V30 57 H -4.814228 -1.059635 0.117667 0
M  V30 58 H -5.815497 -0.528655 -1.276736 0
M  V30 59 H -4.190450 1.096854 0.488269 0
M  V30 60 H -2.885881 -0.352070 1.528387 0
M  V30 61 H -2.476943 -1.537951 -0.493902 0
M  V30 62 H 0.254287 -0.877186 0.345177 0
M  V30 63 H -2.050493 -3.183929 -1.597837 0
M  V30 64 H -1.285526 -5.178098 -2.879130 0
M  V30 65 H 2.886738 -6.297489 -1.682497 0
M  V30 66 H 3.890781 -8.207158 -2.733925 0
M  V30 67 H 2.896536 -9.118347 -4.803645 0
M  V30 68 H -0.154148 -6.052421 -4.646795 0
M  V30 69 H 2.706262 -4.251029 -1.653731 0
M  V30 END ATOM
M  V30 BEGIN BOND
M  V30 1 1 1 2
M  V30 2 1 2 3
M  V30 3 1 3 4
M  V30 4 2 4 5
M  V30 5 1 4 6
M  V30 6 1 6 7
M  V30 7 1 7 8
M  V30 8 1 8 9
M  V30 9 1 9 10
M  V30 10 1 10 11
M  V30 11 1 11 12
M  V30 12 1 11 13
M  V30 13 1 13 14
M  V30 14 1 14 15
M  V30 15 2 15 16
M  V30 16 1 15 17
M  V30 17 1 17 18
M  V30 18 1 18 19
M  V30 19 1 18 20
M  V30 20 1 20 21
M  V30 21 1 21 22
M  V30 22 2 22 23
M  V30 23 1 23 24
M  V30 24 2 24 25
M  V30 25 1 25 26
M  V30 26 2 26 27
M  V30 27 1 27 28
M  V30 28 2 28 29
M  V30 29 1 29 30
M  V30 30 2 30 31
M  V30 31 1 31 32
M  V30 32 1 32 33
M  V30 33 2 32 34
M  V30 34 1 27 35
M  V30 35 2 35 36
M  V30 36 1 12 7
M  V30 37 1 20 14
M  V30 38 1 36 24
M  V30 39 1 21 10
M  V30 40 1 34 28
M  V30 41 1 1 37
M  V30 42 1 1 38
M  V30 43 1 1 39
M  V30 44 1 2 40
M  V30 45 1 2 41
M  V30 46 1 6 42
M  V30 47 1 7 43 CFG=1
M  V30 48 1 8 44
M  V30 49 1 8 45
M  V30 50 1 9 46
M  V30 51 1 9 47
M  V30 52 1 10 48 CFG=1
M  V30 53 1 11 49 CFG=1
M  V30 54 1 12 50
M  V30 55 1 12 51
M  V30 56 1 13 52
M  V30 57 1 13 53
M  V30 58 1 14 54 CFG=1
M  V30 59 1 18 55 CFG=3
M  V30 60 1 19 56
M  V30 61 1 19 57
M  V30 62 1 19 58
M  V30 63 1 20 59 CFG=1
M  V30 64 1 21 60 CFG=1
M  V30 65 1 22 61
M  V30 66 1 23 62
M  V30 67 1 25 63
M  V30 68 1 26 64
M  V30 69 1 29 65
M  V30 70 1 30 66
M  V30 71 1 31 67
M  V30 72 1 34 68
M  V30 73 1 35 69
M  V30 END BOND
M  V30 END CTAB
M  END
>  <Dataset>  (49) 
OralDrugs

>  <Ligand_Instance>  (49) 
nan

>  <PDB_ID>  (49) 
nan

>  <Standardized_SMILES>  (49) 
CCOC(=O)N[C@@H]1CC[C@@H]2[C@@H](C1)C[C@H]1C(=O)O[C@H](C)[C@H]1[C@H]2/C=C/c1ccc(-c2cccc(F)c2)cn1

>  <Name>  (49) 
Vorapaxar

>  <Pocket>  (49) 
nan

>  <ATP_Site>  (49) 
nan

>  <Peripheral>  (49) 
nan

>  <Num_H_Atoms_ProtBoundConf>  (49) 
nan

>  <Num_Resolved_Atoms>  (49) 
nan

>  <Num_Not_Resolved_Atoms>  (49) 
nan

>  <2D_Mol_H>  (49) 
<rdkit.Chem.rdchem.Mol object at 0x72a238bbcf90>

>  <MW>  (49) 
492.591

>  <HBA>  (49) 
5

>  <HBD>  (49) 
1

>  <LogP>  (49) 
5.6295

>  <NRB>  (49) 
7

>  <TPSA>  (49) 
77.52

>  <Num_Heavy_Atoms>  (49) 
36

>  <Ro5>  (49) 
[True, True, True, False, True, True]

>  <Ro5_Fulfilled>  (49) 
True

>  <Ro3>  (49) 
[False, False, True, False]

>  <Ro3_Fulfilled>  (49) 
False

>  <Fsp3>  (49) 
0.482759

>  <Fsp3_0.42>  (49) 
True

>  <Fsp3_0.45>  (49) 
True

>  <Stereogenic_Carbons>  (49) 
7

>  <C_Atoms>  (49) 
29

>  <FCStereo>  (49) 
0.241379

>  <SPS>  (49) 
1131

>  <nSPS>  (49) 
31.416667

>  <PBF>  (49) 
0.841814

>  <PBF_0.6>  (49) 
True

>  <nPBF>  (49) 
0.023384

>  <nPBF_0.016>  (49) 
True

>  <PMI1>  (49) 
4353.983166

>  <PMI2>  (49) 
11105.403057

>  <PMI3>  (49) 
14630.538858

>  <NPR1>  (49) 
0.297596

>  <NPR2>  (49) 
0.759056

>  <Sum_NPR>  (49) 
1.056652

>  <Sum_NPR_1.07>  (49) 
False

>  <Sum_NPR_1.2>  (49) 
False

>  <MaxAbsEStateIndex>  (49) 
13.589011

>  <MaxEStateIndex>  (49) 
13.589011

>  <MinAbsEStateIndex>  (49) 
0.067927

>  <MinEStateIndex>  (49) 
-0.367831

>  <qed>  (49) 
0.547646

>  <MolWt>  (49) 
492.591

>  <HeavyAtomMolWt>  (49) 
459.327

>  <ExactMolWt>  (49) 
492.242436

>  <NumValenceElectrons>  (49) 
190

>  <NumRadicalElectrons>  (49) 
0

>  <MaxPartialCharge>  (49) 
0.406832

>  <MinPartialCharge>  (49) 
-0.462097

>  <MaxAbsPartialCharge>  (49) 
0.462097

>  <MinAbsPartialCharge>  (49) 
0.406832

>  <FpDensityMorgan1>  (49) 
1.222222

>  <FpDensityMorgan2>  (49) 
2.083333

>  <FpDensityMorgan3>  (49) 
2.833333

>  <BCUT2D_MWHI>  (49) 
19.142149

>  <BCUT2D_MWLOW>  (49) 
9.565581

>  <BCUT2D_CHGHI>  (49) 
2.541291

>  <BCUT2D_CHGLO>  (49) 
-2.471621

>  <BCUT2D_LOGPHI>  (49) 
2.531835

>  <BCUT2D_LOGPLOW>  (49) 
-2.479531

>  <BCUT2D_MRHI>  (49) 
5.75484

>  <BCUT2D_MRLOW>  (49) 
-0.144046

>  <AvgIpc>  (49) 
3.146841

>  <BalabanJ>  (49) 
1.338811

>  <BertzCT>  (49) 
1134.349019

>  <Chi0>  (49) 
25.233476

>  <Chi0n>  (49) 
20.731309

>  <Chi0v>  (49) 
20.731309

>  <Chi1>  (49) 
17.423055

>  <Chi1n>  (49) 
12.965693

>  <Chi1v>  (49) 
12.965693

>  <Chi2n>  (49) 
10.278823

>  <Chi2v>  (49) 
10.278823

>  <Chi3n>  (49) 
8.179114

>  <Chi3v>  (49) 
8.179114

>  <Chi4n>  (49) 
6.638717

>  <Chi4v>  (49) 
6.638717

>  <HallKierAlpha>  (49) 
-3.22

>  <Ipc>  (49) 
171524082.259127

>  <Kappa1>  (49) 
24.473342

>  <Kappa2>  (49) 
10.409971

>  <Kappa3>  (49) 
5.014651

>  <LabuteASA>  (49) 
210.835539

>  <PEOE_VSA1>  (49) 
14.790515

>  <PEOE_VSA10>  (49) 
11.921187

>  <PEOE_VSA11>  (49) 
0.0

>  <PEOE_VSA12>  (49) 
0.0

>  <PEOE_VSA13>  (49) 
0.0

>  <PEOE_VSA14>  (49) 
12.062545

>  <PEOE_VSA2>  (49) 
9.778516

>  <PEOE_VSA3>  (49) 
9.184952

>  <PEOE_VSA4>  (49) 
0.0

>  <PEOE_VSA5>  (49) 
0.0

>  <PEOE_VSA6>  (49) 
24.275121

>  <PEOE_VSA7>  (49) 
87.123052

>  <PEOE_VSA8>  (49) 
23.720042

>  <PEOE_VSA9>  (49) 
18.218716

>  <SMR_VSA1>  (49) 
23.453215

>  <SMR_VSA10>  (49) 
18.138565

>  <SMR_VSA2>  (49) 
0.0

>  <SMR_VSA3>  (49) 
10.300767

>  <SMR_VSA4>  (49) 
29.58953

>  <SMR_VSA5>  (49) 
51.676568

>  <SMR_VSA6>  (49) 
6.606882

>  <SMR_VSA7>  (49) 
60.182215

>  <SMR_VSA8>  (49) 
0.0

>  <SMR_VSA9>  (49) 
11.126903

>  <SlogP_VSA1>  (49) 
5.316789

>  <SlogP_VSA10>  (49) 
9.184952

>  <SlogP_VSA11>  (49) 
0.0

>  <SlogP_VSA12>  (49) 
0.0

>  <SlogP_VSA2>  (49) 
35.799213

>  <SlogP_VSA3>  (49) 
14.268263

>  <SlogP_VSA4>  (49) 
35.406751

>  <SlogP_VSA5>  (49) 
45.224689

>  <SlogP_VSA6>  (49) 
48.671066

>  <SlogP_VSA7>  (49) 
0.0

>  <SlogP_VSA8>  (49) 
17.202923

>  <SlogP_VSA9>  (49) 
0.0

>  <EState_VSA1>  (49) 
0.0

>  <EState_VSA10>  (49) 
13.979489

>  <EState_VSA11>  (49) 
0.0

>  <EState_VSA2>  (49) 
47.779292

>  <EState_VSA3>  (49) 
18.442694

>  <EState_VSA4>  (49) 
42.504117

>  <EState_VSA5>  (49) 
12.132734

>  <EState_VSA6>  (49) 
19.186948

>  <EState_VSA7>  (49) 
31.198859

>  <EState_VSA8>  (49) 
16.376787

>  <EState_VSA9>  (49) 
9.473726

>  <VSA_EState1>  (49) 
24.345848

>  <VSA_EState10>  (49) 
0.0

>  <VSA_EState2>  (49) 
29.22445

>  <VSA_EState3>  (49) 
2.998574

>  <VSA_EState4>  (49) 
2.476191

>  <VSA_EState5>  (49) 
0.628733

>  <VSA_EState6>  (49) 
10.44149

>  <VSA_EState7>  (49) 
9.067891

>  <VSA_EState8>  (49) 
4.150157

>  <VSA_EState9>  (49) 
0.0

>  <FractionCSP3>  (49) 
0.482759

>  <HeavyAtomCount>  (49) 
36

>  <NHOHCount>  (49) 
1

>  <NOCount>  (49) 
6

>  <NumAliphaticCarbocycles>  (49) 
2

>  <NumAliphaticHeterocycles>  (49) 
1

>  <NumAliphaticRings>  (49) 
3

>  <NumAromaticCarbocycles>  (49) 
1

>  <NumAromaticHeterocycles>  (49) 
1

>  <NumAromaticRings>  (49) 
2

>  <NumHAcceptors>  (49) 
5

>  <NumHDonors>  (49) 
1

>  <NumHeteroatoms>  (49) 
7

>  <NumRotatableBonds>  (49) 
5

>  <NumSaturatedCarbocycles>  (49) 
2

>  <NumSaturatedHeterocycles>  (49) 
1

>  <NumSaturatedRings>  (49) 
3

>  <RingCount>  (49) 
5

>  <MolLogP>  (49) 
5.6295

>  <MolMR>  (49) 
134.0827

>  <fr_Al_COO>  (49) 
0

>  <fr_Al_OH>  (49) 
0

>  <fr_Al_OH_noTert>  (49) 
0

>  <fr_ArN>  (49) 
0

>  <fr_Ar_COO>  (49) 
0

>  <fr_Ar_N>  (49) 
1

>  <fr_Ar_NH>  (49) 
0

>  <fr_Ar_OH>  (49) 
0

>  <fr_COO>  (49) 
0

>  <fr_COO2>  (49) 
0

>  <fr_C_O>  (49) 
2

>  <fr_C_O_noCOO>  (49) 
2

>  <fr_C_S>  (49) 
0

>  <fr_HOCCN>  (49) 
0

>  <fr_Imine>  (49) 
0

>  <fr_NH0>  (49) 
1

>  <fr_NH1>  (49) 
1

>  <fr_NH2>  (49) 
0

>  <fr_N_O>  (49) 
0

>  <fr_Ndealkylation1>  (49) 
0

>  <fr_Ndealkylation2>  (49) 
0

>  <fr_Nhpyrrole>  (49) 
0

>  <fr_SH>  (49) 
0

>  <fr_aldehyde>  (49) 
0

>  <fr_alkyl_carbamate>  (49) 
1

>  <fr_alkyl_halide>  (49) 
0

>  <fr_allylic_oxid>  (49) 
1

>  <fr_amide>  (49) 
1

>  <fr_amidine>  (49) 
0

>  <fr_aniline>  (49) 
0

>  <fr_aryl_methyl>  (49) 
0

>  <fr_azide>  (49) 
0

>  <fr_azo>  (49) 
0

>  <fr_barbitur>  (49) 
0

>  <fr_benzene>  (49) 
1

>  <fr_benzodiazepine>  (49) 
0

>  <fr_bicyclic>  (49) 
2

>  <fr_diazo>  (49) 
0

>  <fr_dihydropyridine>  (49) 
0

>  <fr_epoxide>  (49) 
0

>  <fr_ester>  (49) 
1

>  <fr_ether>  (49) 
2

>  <fr_furan>  (49) 
0

>  <fr_guanido>  (49) 
0

>  <fr_halogen>  (49) 
1

>  <fr_hdrzine>  (49) 
0

>  <fr_hdrzone>  (49) 
0

>  <fr_imidazole>  (49) 
0

>  <fr_imide>  (49) 
0

>  <fr_isocyan>  (49) 
0

>  <fr_isothiocyan>  (49) 
0

>  <fr_ketone>  (49) 
0

>  <fr_ketone_Topliss>  (49) 
0

>  <fr_lactam>  (49) 
0

>  <fr_lactone>  (49) 
1

>  <fr_methoxy>  (49) 
0

>  <fr_morpholine>  (49) 
0

>  <fr_nitrile>  (49) 
0

>  <fr_nitro>  (49) 
0

>  <fr_nitro_arom>  (49) 
0

>  <fr_nitro_arom_nonortho>  (49) 
0

>  <fr_nitroso>  (49) 
0

>  <fr_oxazole>  (49) 
0

>  <fr_oxime>  (49) 
0

>  <fr_para_hydroxylation>  (49) 
0

>  <fr_phenol>  (49) 
0

>  <fr_phenol_noOrthoHbond>  (49) 
0

>  <fr_phos_acid>  (49) 
0

>  <fr_phos_ester>  (49) 
0

>  <fr_piperdine>  (49) 
0

>  <fr_piperzine>  (49) 
0

>  <fr_priamide>  (49) 
0

>  <fr_prisulfonamd>  (49) 
0

>  <fr_pyridine>  (49) 
1

>  <fr_quatN>  (49) 
0

>  <fr_sulfide>  (49) 
0

>  <fr_sulfonamd>  (49) 
0

>  <fr_sulfone>  (49) 
0

>  <fr_term_acetylene>  (49) 
0

>  <fr_tetrazole>  (49) 
0

>  <fr_thiazole>  (49) 
0

>  <fr_thiocyan>  (49) 
0

>  <fr_thiophene>  (49) 
0

>  <fr_unbrch_alkane>  (49) 
0

>  <fr_urea>  (49) 
0

>  <NP_Likeness>  (49) 
-0.077763

$$$$
CHEMBL638
     RDKit          3D

  0  0  0  0  0  0  0  0  0  0999 V3000
M  V30 BEGIN CTAB
M  V30 COUNTS 39 41 0 0 0
M  V30 BEGIN ATOM
M  V30 1 C -0.010369 -2.929881 0.587233 0
M  V30 2 C 0.635939 -1.531274 0.580424 0 CFG=1
M  V30 3 C 1.886206 -1.608182 -0.182171 0
M  V30 4 N 3.083674 -1.756234 0.470463 0
M  V30 5 C 4.268867 -1.832779 -0.094130 0
M  V30 6 N 4.417931 -1.770624 -1.407071 0
M  V30 7 C 3.324271 -1.626503 -2.162719 0
M  V30 8 C 2.099808 -1.549919 -1.540398 0
M  V30 9 F 1.044454 -1.420933 -2.351257 0
M  V30 10 C -0.338730 -0.479991 0.266985 0 CFG=2
M  V30 11 O -0.907218 -0.745734 -1.026059 0
M  V30 12 C 0.270282 0.880597 0.043152 0
M  V30 13 N 1.006283 1.505946 1.088680 0
M  V30 14 C 0.744351 2.387612 2.103630 0
M  V30 15 N 1.879200 2.630085 2.803030 0
M  V30 16 C 2.820517 1.899344 2.214019 0
M  V30 17 N 2.296660 1.233047 1.195644 0
M  V30 18 C -1.476170 -0.387038 1.186345 0
M  V30 19 C -2.794705 -0.419634 0.703440 0
M  V30 20 C -3.953295 -0.294354 1.434584 0
M  V30 21 C -3.810357 -0.116862 2.792711 0
M  V30 22 F -4.913317 0.011304 3.547573 0
M  V30 23 C -2.565039 -0.069488 3.381149 0
M  V30 24 C -1.481601 -0.207381 2.549391 0
M  V30 25 F -0.280818 -0.222976 3.172627 0
M  V30 26 H -0.886240 -2.991496 1.231418 0
M  V30 27 H -0.237039 -3.266105 -0.439555 0
M  V30 28 H 0.731024 -3.655089 1.034270 0
M  V30 29 H 0.963248 -1.430559 1.669298 0
M  V30 30 H 5.164044 -1.950164 0.510119 0
M  V30 31 H 3.416756 -1.573233 -3.232138 0
M  V30 32 H -1.348972 -1.641457 -0.994916 0
M  V30 33 H 0.876365 0.848544 -0.925710 0
M  V30 34 H -0.529327 1.629171 -0.237886 0
M  V30 35 H -0.297696 2.728110 2.167968 0
M  V30 36 H 3.843333 1.907345 2.580226 0
M  V30 37 H -2.964295 -0.559464 -0.377140 0
M  V30 38 H -4.925015 -0.333014 0.968904 0
M  V30 39 H -2.466045 0.068461 4.433981 0
M  V30 END ATOM
M  V30 BEGIN BOND
M  V30 1 1 1 2
M  V30 2 1 2 3
M  V30 3 2 3 4
M  V30 4 1 4 5
M  V30 5 2 5 6
M  V30 6 1 6 7
M  V30 7 2 7 8
M  V30 8 1 8 9
M  V30 9 1 2 10
M  V30 10 1 10 11 CFG=3
M  V30 11 1 10 12
M  V30 12 1 12 13
M  V30 13 1 13 14
M  V30 14 2 14 15
M  V30 15 1 15 16
M  V30 16 2 16 17
M  V30 17 1 10 18
M  V30 18 2 18 19
M  V30 19 1 19 20
M  V30 20 2 20 21
M  V30 21 1 21 22
M  V30 22 1 21 23
M  V30 23 2 23 24
M  V30 24 1 24 25
M  V30 25 1 8 3
M  V30 26 1 17 13
M  V30 27 1 24 18
M  V30 28 1 1 26
M  V30 29 1 1 27
M  V30 30 1 1 28
M  V30 31 1 2 29 CFG=1
M  V30 32 1 5 30
M  V30 33 1 7 31
M  V30 34 1 11 32
M  V30 35 1 12 33
M  V30 36 1 12 34
M  V30 37 1 14 35
M  V30 38 1 16 36
M  V30 39 1 19 37
M  V30 40 1 20 38
M  V30 41 1 23 39
M  V30 END BOND
M  V30 END CTAB
M  END
>  <Dataset>  (50) 
OralDrugs

>  <Ligand_Instance>  (50) 
nan

>  <PDB_ID>  (50) 
nan

>  <Standardized_SMILES>  (50) 
C[C@@H](c1ncncc1F)[C@](O)(Cn1cncn1)c1ccc(F)cc1F

>  <Name>  (50) 
Voriconazole

>  <Pocket>  (50) 
nan

>  <ATP_Site>  (50) 
nan

>  <Peripheral>  (50) 
nan

>  <Num_H_Atoms_ProtBoundConf>  (50) 
nan

>  <Num_Resolved_Atoms>  (50) 
nan

>  <Num_Not_Resolved_Atoms>  (50) 
nan

>  <2D_Mol_H>  (50) 
<rdkit.Chem.rdchem.Mol object at 0x72a238bbd070>

>  <MW>  (50) 
349.316

>  <HBA>  (50) 
6

>  <HBD>  (50) 
1

>  <LogP>  (50) 
2.1769

>  <NRB>  (50) 
7

>  <TPSA>  (50) 
76.72

>  <Num_Heavy_Atoms>  (50) 
25

>  <Ro5>  (50) 
[True, True, True, True, True, True]

>  <Ro5_Fulfilled>  (50) 
True

>  <Ro3>  (50) 
[False, False, True, True]

>  <Ro3_Fulfilled>  (50) 
False

>  <Fsp3>  (50) 
0.25

>  <Fsp3_0.42>  (50) 
False

>  <Fsp3_0.45>  (50) 
False

>  <Stereogenic_Carbons>  (50) 
2

>  <C_Atoms>  (50) 
16

>  <FCStereo>  (50) 
0.125

>  <SPS>  (50) 
373

>  <nSPS>  (50) 
14.92

>  <PBF>  (50) 
1.016073

>  <PBF_0.6>  (50) 
True

>  <nPBF>  (50) 
0.040643

>  <nPBF_0.016>  (50) 
True

>  <PMI1>  (50) 
1290.021104

>  <PMI2>  (50) 
3054.732593

>  <PMI3>  (50) 
3740.468295

>  <NPR1>  (50) 
0.344882

>  <NPR2>  (50) 
0.816671

>  <Sum_NPR>  (50) 
1.161553

>  <Sum_NPR_1.07>  (50) 
True

>  <Sum_NPR_1.2>  (50) 
False

>  <MaxAbsEStateIndex>  (50) 
14.379224

>  <MaxEStateIndex>  (50) 
14.379224

>  <MinAbsEStateIndex>  (50) 
0.095981

>  <MinEStateIndex>  (50) 
-1.957662

>  <qed>  (50) 
0.763976

>  <MolWt>  (50) 
349.316

>  <HeavyAtomMolWt>  (50) 
335.204

>  <ExactMolWt>  (50) 
349.115045

>  <NumValenceElectrons>  (50) 
130

>  <NumRadicalElectrons>  (50) 
0

>  <MaxPartialCharge>  (50) 
0.162866

>  <MinPartialCharge>  (50) 
-0.382403

>  <MaxAbsPartialCharge>  (50) 
0.382403

>  <MinAbsPartialCharge>  (50) 
0.162866

>  <FpDensityMorgan1>  (50) 
1.16

>  <FpDensityMorgan2>  (50) 
1.96

>  <FpDensityMorgan3>  (50) 
2.6

>  <BCUT2D_MWHI>  (50) 
19.146385

>  <BCUT2D_MWLOW>  (50) 
9.794074

>  <BCUT2D_CHGHI>  (50) 
2.41305

>  <BCUT2D_CHGLO>  (50) 
-2.341066

>  <BCUT2D_LOGPHI>  (50) 
2.390065

>  <BCUT2D_LOGPLOW>  (50) 
-2.38553

>  <BCUT2D_MRHI>  (50) 
5.295904

>  <BCUT2D_MRLOW>  (50) 
-0.013345

>  <AvgIpc>  (50) 
3.068502

>  <BalabanJ>  (50) 
2.127146

>  <BertzCT>  (50) 
873.966564

>  <Chi0>  (50) 
18.026733

>  <Chi0n>  (50) 
13.143084

>  <Chi0v>  (50) 
13.143084

>  <Chi1>  (50) 
11.914539

>  <Chi1n>  (50) 
7.372743

>  <Chi1v>  (50) 
7.372743

>  <Chi2n>  (50) 
5.61909

>  <Chi2v>  (50) 
5.61909

>  <Chi3n>  (50) 
4.089727

>  <Chi3v>  (50) 
4.089727

>  <Chi4n>  (50) 
2.724196

>  <Chi4v>  (50) 
2.724196

>  <HallKierAlpha>  (50) 
-2.81

>  <Ipc>  (50) 
537334.587903

>  <Kappa1>  (50) 
17.027366

>  <Kappa2>  (50) 
6.595177

>  <Kappa3>  (50) 
3.224982

>  <LabuteASA>  (50) 
140.562377

>  <PEOE_VSA1>  (50) 
5.106527

>  <PEOE_VSA10>  (50) 
36.217453

>  <PEOE_VSA11>  (50) 
5.817221

>  <PEOE_VSA12>  (50) 
0.0

>  <PEOE_VSA13>  (50) 
0.0

>  <PEOE_VSA14>  (50) 
0.0

>  <PEOE_VSA2>  (50) 
0.0

>  <PEOE_VSA3>  (50) 
32.804984

>  <PEOE_VSA4>  (50) 
5.098682

>  <PEOE_VSA5>  (50) 
0.0

>  <PEOE_VSA6>  (50) 
12.990104

>  <PEOE_VSA7>  (50) 
6.066367

>  <PEOE_VSA8>  (50) 
17.547725

>  <PEOE_VSA9>  (50) 
18.435528

>  <SMR_VSA1>  (50) 
18.277773

>  <SMR_VSA10>  (50) 
0.0

>  <SMR_VSA2>  (50) 
0.0

>  <SMR_VSA3>  (50) 
24.73242

>  <SMR_VSA4>  (50) 
0.0

>  <SMR_VSA5>  (50) 
24.98745

>  <SMR_VSA6>  (50) 
0.0

>  <SMR_VSA7>  (50) 
72.086947

>  <SMR_VSA8>  (50) 
0.0

>  <SMR_VSA9>  (50) 
0.0

>  <SlogP_VSA1>  (50) 
0.0

>  <SlogP_VSA10>  (50) 
13.171245

>  <SlogP_VSA11>  (50) 
0.0

>  <SlogP_VSA12>  (50) 
0.0

>  <SlogP_VSA2>  (50) 
29.838948

>  <SlogP_VSA3>  (50) 
12.145807

>  <SlogP_VSA4>  (50) 
17.451663

>  <SlogP_VSA5>  (50) 
24.099023

>  <SlogP_VSA6>  (50) 
43.377905

>  <SlogP_VSA7>  (50) 
0.0

>  <SlogP_VSA8>  (50) 
0.0

>  <SlogP_VSA9>  (50) 
0.0

>  <EState_VSA1>  (50) 
28.970619

>  <EState_VSA10>  (50) 
18.277773

>  <EState_VSA11>  (50) 
0.0

>  <EState_VSA2>  (50) 
17.802136

>  <EState_VSA3>  (50) 
6.066367

>  <EState_VSA4>  (50) 
24.656898

>  <EState_VSA5>  (50) 
24.26018

>  <EState_VSA6>  (50) 
0.0

>  <EState_VSA7>  (50) 
0.0

>  <EState_VSA8>  (50) 
20.050617

>  <EState_VSA9>  (50) 
0.0

>  <VSA_EState1>  (50) 
43.031688

>  <VSA_EState10>  (50) 
0.0

>  <VSA_EState2>  (50) 
11.199901

>  <VSA_EState3>  (50) 
15.189388

>  <VSA_EState4>  (50) 
-2.252799

>  <VSA_EState5>  (50) 
-3.469119

>  <VSA_EState6>  (50) 
2.801253

>  <VSA_EState7>  (50) 
4.661095

>  <VSA_EState8>  (50) 
1.255259

>  <VSA_EState9>  (50) 
0.0

>  <FractionCSP3>  (50) 
0.25

>  <HeavyAtomCount>  (50) 
25

>  <NHOHCount>  (50) 
1

>  <NOCount>  (50) 
6

>  <NumAliphaticCarbocycles>  (50) 
0

>  <NumAliphaticHeterocycles>  (50) 
0

>  <NumAliphaticRings>  (50) 
0

>  <NumAromaticCarbocycles>  (50) 
1

>  <NumAromaticHeterocycles>  (50) 
2

>  <NumAromaticRings>  (50) 
3

>  <NumHAcceptors>  (50) 
6

>  <NumHDonors>  (50) 
1

>  <NumHeteroatoms>  (50) 
9

>  <NumRotatableBonds>  (50) 
5

>  <NumSaturatedCarbocycles>  (50) 
0

>  <NumSaturatedHeterocycles>  (50) 
0

>  <NumSaturatedRings>  (50) 
0

>  <RingCount>  (50) 
3

>  <MolLogP>  (50) 
2.1769

>  <MolMR>  (50) 
80.6818

>  <fr_Al_COO>  (50) 
0

>  <fr_Al_OH>  (50) 
1

>  <fr_Al_OH_noTert>  (50) 
0

>  <fr_ArN>  (50) 
0

>  <fr_Ar_COO>  (50) 
0

>  <fr_Ar_N>  (50) 
5

>  <fr_Ar_NH>  (50) 
0

>  <fr_Ar_OH>  (50) 
0

>  <fr_COO>  (50) 
0

>  <fr_COO2>  (50) 
0

>  <fr_C_O>  (50) 
0

>  <fr_C_O_noCOO>  (50) 
0

>  <fr_C_S>  (50) 
0

>  <fr_HOCCN>  (50) 
0

>  <fr_Imine>  (50) 
0

>  <fr_NH0>  (50) 
5

>  <fr_NH1>  (50) 
0

>  <fr_NH2>  (50) 
0

>  <fr_N_O>  (50) 
0

>  <fr_Ndealkylation1>  (50) 
0

>  <fr_Ndealkylation2>  (50) 
0

>  <fr_Nhpyrrole>  (50) 
0

>  <fr_SH>  (50) 
0

>  <fr_aldehyde>  (50) 
0

>  <fr_alkyl_carbamate>  (50) 
0

>  <fr_alkyl_halide>  (50) 
0

>  <fr_allylic_oxid>  (50) 
0

>  <fr_amide>  (50) 
0

>  <fr_amidine>  (50) 
0

>  <fr_aniline>  (50) 
0

>  <fr_aryl_methyl>  (50) 
0

>  <fr_azide>  (50) 
0

>  <fr_azo>  (50) 
0

>  <fr_barbitur>  (50) 
0

>  <fr_benzene>  (50) 
1

>  <fr_benzodiazepine>  (50) 
0

>  <fr_bicyclic>  (50) 
0

>  <fr_diazo>  (50) 
0

>  <fr_dihydropyridine>  (50) 
0

>  <fr_epoxide>  (50) 
0

>  <fr_ester>  (50) 
0

>  <fr_ether>  (50) 
0

>  <fr_furan>  (50) 
0

>  <fr_guanido>  (50) 
0

>  <fr_halogen>  (50) 
3

>  <fr_hdrzine>  (50) 
0

>  <fr_hdrzone>  (50) 
0

>  <fr_imidazole>  (50) 
0

>  <fr_imide>  (50) 
0

>  <fr_isocyan>  (50) 
0

>  <fr_isothiocyan>  (50) 
0

>  <fr_ketone>  (50) 
0

>  <fr_ketone_Topliss>  (50) 
0

>  <fr_lactam>  (50) 
0

>  <fr_lactone>  (50) 
0

>  <fr_methoxy>  (50) 
0

>  <fr_morpholine>  (50) 
0

>  <fr_nitrile>  (50) 
0

>  <fr_nitro>  (50) 
0

>  <fr_nitro_arom>  (50) 
0

>  <fr_nitro_arom_nonortho>  (50) 
0

>  <fr_nitroso>  (50) 
0

>  <fr_oxazole>  (50) 
0

>  <fr_oxime>  (50) 
0

>  <fr_para_hydroxylation>  (50) 
0

>  <fr_phenol>  (50) 
0

>  <fr_phenol_noOrthoHbond>  (50) 
0

>  <fr_phos_acid>  (50) 
0

>  <fr_phos_ester>  (50) 
0

>  <fr_piperdine>  (50) 
0

>  <fr_piperzine>  (50) 
0

>  <fr_priamide>  (50) 
0

>  <fr_prisulfonamd>  (50) 
0

>  <fr_pyridine>  (50) 
0

>  <fr_quatN>  (50) 
0

>  <fr_sulfide>  (50) 
0

>  <fr_sulfonamd>  (50) 
0

>  <fr_sulfone>  (50) 
0

>  <fr_term_acetylene>  (50) 
0

>  <fr_tetrazole>  (50) 
0

>  <fr_thiazole>  (50) 
0

>  <fr_thiocyan>  (50) 
0

>  <fr_thiophene>  (50) 
0

>  <fr_unbrch_alkane>  (50) 
0

>  <fr_urea>  (50) 
0

>  <NP_Likeness>  (50) 
-0.758921

$$$$
CHEMBL98
     RDKit          3D

  0  0  0  0  0  0  0  0  0  0999 V3000
M  V30 BEGIN CTAB
M  V30 COUNTS 39 39 0 0 0
M  V30 BEGIN ATOM
M  V30 1 O -2.582579 -4.954122 2.657457 0
M  V30 2 C -2.260399 -4.109898 3.534378 0
M  V30 3 C -1.549862 -2.831046 3.501677 0
M  V30 4 C -1.092889 -2.416843 2.103043 0
M  V30 5 C -0.175927 -3.383127 1.483938 0
M  V30 6 C 0.216744 -3.085396 0.094743 0
M  V30 7 C 0.898494 -1.848753 -0.294000 0
M  V30 8 C 0.255208 -0.531992 -0.195313 0
M  V30 9 C 1.274829 0.492390 -0.699446 0
M  V30 10 O 2.449632 0.309673 -1.127952 0
M  V30 11 N 0.732318 1.806592 -0.639032 0
M  V30 12 C 1.391864 2.989915 -1.023316 0
M  V30 13 C 1.377259 3.562393 -2.290450 0
M  V30 14 C 2.070987 4.727212 -2.524553 0
M  V30 15 C 2.796113 5.374444 -1.554074 0
M  V30 16 C 2.813457 4.812359 -0.300214 0
M  V30 17 C 2.129188 3.651919 -0.044789 0
M  V30 18 N -2.685318 -4.491061 4.848029 0
M  V30 19 O -3.364115 -5.669888 5.023982 0
M  V30 20 H -2.155020 -1.978163 3.880313 0
M  V30 21 H -0.665222 -2.891223 4.166097 0
M  V30 22 H -0.461001 -1.496346 2.342786 0
M  V30 23 H -1.887416 -2.093622 1.445859 0
M  V30 24 H -0.596625 -4.432122 1.493983 0
M  V30 25 H 0.792005 -3.477216 2.065222 0
M  V30 26 H -0.657084 -3.312399 -0.605745 0
M  V30 27 H 0.927663 -3.943139 -0.220876 0
M  V30 28 H 1.275602 -1.929122 -1.377716 0
M  V30 29 H 1.911364 -1.747642 0.245112 0
M  V30 30 H -0.217047 -0.182393 0.691127 0
M  V30 31 H -0.543150 -0.458961 -1.009523 0
M  V30 32 H -0.215462 2.094906 -0.309093 0
M  V30 33 H 0.800893 3.037429 -3.039438 0
M  V30 34 H 2.044225 5.158233 -3.529676 0
M  V30 35 H 3.309645 6.279996 -1.819624 0
M  V30 36 H 3.390672 5.338149 0.449771 0
M  V30 37 H 2.190965 3.266184 0.977277 0
M  V30 38 H -2.569256 -4.009016 5.764125 0
M  V30 39 H -2.783793 -6.269107 5.582024 0
M  V30 END ATOM
M  V30 BEGIN BOND
M  V30 1 2 1 2
M  V30 2 1 2 3
M  V30 3 1 3 4
M  V30 4 1 4 5
M  V30 5 1 5 6
M  V30 6 1 6 7
M  V30 7 1 7 8
M  V30 8 1 8 9
M  V30 9 2 9 10
M  V30 10 1 9 11
M  V30 11 1 11 12
M  V30 12 2 12 13
M  V30 13 1 13 14
M  V30 14 2 14 15
M  V30 15 1 15 16
M  V30 16 2 16 17
M  V30 17 1 2 18
M  V30 18 1 18 19
M  V30 19 1 17 12
M  V30 20 1 3 20
M  V30 21 1 3 21
M  V30 22 1 4 22
M  V30 23 1 4 23
M  V30 24 1 5 24
M  V30 25 1 5 25
M  V30 26 1 6 26
M  V30 27 1 6 27
M  V30 28 1 7 28
M  V30 29 1 7 29
M  V30 30 1 8 30
M  V30 31 1 8 31
M  V30 32 1 11 32
M  V30 33 1 13 33
M  V30 34 1 14 34
M  V30 35 1 15 35
M  V30 36 1 16 36
M  V30 37 1 17 37
M  V30 38 1 18 38
M  V30 39 1 19 39
M  V30 END BOND
M  V30 END CTAB
M  END
>  <Dataset>  (51) 
OralDrugs

>  <Ligand_Instance>  (51) 
nan

>  <PDB_ID>  (51) 
nan

>  <Standardized_SMILES>  (51) 
O=C(CCCCCCC(=O)Nc1ccccc1)NO

>  <Name>  (51) 
Vorinostat

>  <Pocket>  (51) 
nan

>  <ATP_Site>  (51) 
nan

>  <Peripheral>  (51) 
nan

>  <Num_H_Atoms_ProtBoundConf>  (51) 
nan

>  <Num_Resolved_Atoms>  (51) 
nan

>  <Num_Not_Resolved_Atoms>  (51) 
nan

>  <2D_Mol_H>  (51) 
<rdkit.Chem.rdchem.Mol object at 0x72a238bbd150>

>  <MW>  (51) 
264.325

>  <HBA>  (51) 
3

>  <HBD>  (51) 
3

>  <LogP>  (51) 
2.4711

>  <NRB>  (51) 
9

>  <TPSA>  (51) 
78.43

>  <Num_Heavy_Atoms>  (51) 
19

>  <Ro5>  (51) 
[True, True, True, True, True, True]

>  <Ro5_Fulfilled>  (51) 
True

>  <Ro3>  (51) 
[True, True, True, True]

>  <Ro3_Fulfilled>  (51) 
True

>  <Fsp3>  (51) 
0.428571

>  <Fsp3_0.42>  (51) 
True

>  <Fsp3_0.45>  (51) 
False

>  <Stereogenic_Carbons>  (51) 
0

>  <C_Atoms>  (51) 
14

>  <FCStereo>  (51) 
0.0

>  <SPS>  (51) 
189

>  <nSPS>  (51) 
9.947368

>  <PBF>  (51) 
0.715018

>  <PBF_0.6>  (51) 
True

>  <nPBF>  (51) 
0.037633

>  <nPBF_0.016>  (51) 
True

>  <PMI1>  (51) 
457.020118

>  <PMI2>  (51) 
5510.509677

>  <PMI3>  (51) 
5771.413457

>  <NPR1>  (51) 
0.079187

>  <NPR2>  (51) 
0.954794

>  <Sum_NPR>  (51) 
1.033981

>  <Sum_NPR_1.07>  (51) 
False

>  <Sum_NPR_1.2>  (51) 
False

>  <MaxAbsEStateIndex>  (51) 
11.591415

>  <MaxEStateIndex>  (51) 
11.591415

>  <MinAbsEStateIndex>  (51) 
0.013242

>  <MinEStateIndex>  (51) 
-0.359425

>  <qed>  (51) 
0.38322

>  <MolWt>  (51) 
264.325

>  <HeavyAtomMolWt>  (51) 
244.165

>  <ExactMolWt>  (51) 
264.147393

>  <NumValenceElectrons>  (51) 
104

>  <NumRadicalElectrons>  (51) 
0

>  <MaxPartialCharge>  (51) 
0.242829

>  <MinPartialCharge>  (51) 
-0.326098

>  <MaxAbsPartialCharge>  (51) 
0.326098

>  <MinAbsPartialCharge>  (51) 
0.242829

>  <FpDensityMorgan1>  (51) 
0.894737

>  <FpDensityMorgan2>  (51) 
1.473684

>  <FpDensityMorgan3>  (51) 
2.052632

>  <BCUT2D_MWHI>  (51) 
16.466913

>  <BCUT2D_MWLOW>  (51) 
10.105131

>  <BCUT2D_CHGHI>  (51) 
2.022074

>  <BCUT2D_CHGLO>  (51) 
-2.04371

>  <BCUT2D_LOGPHI>  (51) 
2.085995

>  <BCUT2D_LOGPLOW>  (51) 
-2.17245

>  <BCUT2D_MRHI>  (51) 
5.900458

>  <BCUT2D_MRLOW>  (51) 
-0.128887

>  <AvgIpc>  (51) 
2.430211

>  <BalabanJ>  (51) 
2.032661

>  <BertzCT>  (51) 
392.937367

>  <Chi0>  (51) 
13.924439

>  <Chi0n>  (51) 
10.893102

>  <Chi0v>  (51) 
10.893102

>  <Chi1>  (51) 
9.219545

>  <Chi1n>  (51) 
6.499645

>  <Chi1v>  (51) 
6.499645

>  <Chi2n>  (51) 
4.363395

>  <Chi2v>  (51) 
4.363395

>  <Chi3n>  (51) 
2.739924

>  <Chi3v>  (51) 
2.739924

>  <Chi4n>  (51) 
1.725543

>  <Chi4v>  (51) 
1.725543

>  <HallKierAlpha>  (51) 
-1.88

>  <Ipc>  (51) 
18362.672352

>  <Kappa1>  (51) 
15.178411

>  <Kappa2>  (51) 
9.10359

>  <Kappa3>  (51) 
7.205209

>  <LabuteASA>  (51) 
112.521981

>  <PEOE_VSA1>  (51) 
5.316789

>  <PEOE_VSA10>  (51) 
0.0

>  <PEOE_VSA11>  (51) 
0.0

>  <PEOE_VSA12>  (51) 
11.814359

>  <PEOE_VSA13>  (51) 
0.0

>  <PEOE_VSA14>  (51) 
0.0

>  <PEOE_VSA2>  (51) 
14.796327

>  <PEOE_VSA3>  (51) 
5.480097

>  <PEOE_VSA4>  (51) 
0.0

>  <PEOE_VSA5>  (51) 
0.0

>  <PEOE_VSA6>  (51) 
31.040744

>  <PEOE_VSA7>  (51) 
24.974377

>  <PEOE_VSA8>  (51) 
18.52903

>  <PEOE_VSA9>  (51) 
0.0

>  <SMR_VSA1>  (51) 
14.796327

>  <SMR_VSA10>  (51) 
17.501746

>  <SMR_VSA2>  (51) 
0.0

>  <SMR_VSA3>  (51) 
5.480097

>  <SMR_VSA4>  (51) 
0.0

>  <SMR_VSA5>  (51) 
38.52493

>  <SMR_VSA6>  (51) 
5.316789

>  <SMR_VSA7>  (51) 
30.331835

>  <SMR_VSA8>  (51) 
0.0

>  <SMR_VSA9>  (51) 
0.0

>  <SlogP_VSA1>  (51) 
10.796885

>  <SlogP_VSA10>  (51) 
5.687386

>  <SlogP_VSA11>  (51) 
0.0

>  <SlogP_VSA12>  (51) 
0.0

>  <SlogP_VSA2>  (51) 
17.021612

>  <SlogP_VSA3>  (51) 
9.589074

>  <SlogP_VSA4>  (51) 
0.0

>  <SlogP_VSA5>  (51) 
38.52493

>  <SlogP_VSA6>  (51) 
30.331835

>  <SlogP_VSA7>  (51) 
0.0

>  <SlogP_VSA8>  (51) 
0.0

>  <SlogP_VSA9>  (51) 
0.0

>  <EState_VSA1>  (51) 
0.0

>  <EState_VSA10>  (51) 
9.589074

>  <EState_VSA11>  (51) 
0.0

>  <EState_VSA2>  (51) 
11.814359

>  <EState_VSA3>  (51) 
12.841643

>  <EState_VSA4>  (51) 
31.370673

>  <EState_VSA5>  (51) 
0.0

>  <EState_VSA6>  (51) 
5.480097

>  <EState_VSA7>  (51) 
30.331835

>  <EState_VSA8>  (51) 
5.316789

>  <EState_VSA9>  (51) 
5.207253

>  <VSA_EState1>  (51) 
0.0

>  <VSA_EState10>  (51) 
0.0

>  <VSA_EState2>  (51) 
22.322116

>  <VSA_EState3>  (51) 
11.122017

>  <VSA_EState4>  (51) 
2.410488

>  <VSA_EState5>  (51) 
-0.346183

>  <VSA_EState6>  (51) 
9.35975

>  <VSA_EState7>  (51) 
4.131812

>  <VSA_EState8>  (51) 
0.0

>  <VSA_EState9>  (51) 
0.0

>  <FractionCSP3>  (51) 
0.428571

>  <HeavyAtomCount>  (51) 
19

>  <NHOHCount>  (51) 
3

>  <NOCount>  (51) 
5

>  <NumAliphaticCarbocycles>  (51) 
0

>  <NumAliphaticHeterocycles>  (51) 
0

>  <NumAliphaticRings>  (51) 
0

>  <NumAromaticCarbocycles>  (51) 
1

>  <NumAromaticHeterocycles>  (51) 
0

>  <NumAromaticRings>  (51) 
1

>  <NumHAcceptors>  (51) 
3

>  <NumHDonors>  (51) 
3

>  <NumHeteroatoms>  (51) 
5

>  <NumRotatableBonds>  (51) 
8

>  <NumSaturatedCarbocycles>  (51) 
0

>  <NumSaturatedHeterocycles>  (51) 
0

>  <NumSaturatedRings>  (51) 
0

>  <RingCount>  (51) 
1

>  <MolLogP>  (51) 
2.4711

>  <MolMR>  (51) 
72.7029

>  <fr_Al_COO>  (51) 
0

>  <fr_Al_OH>  (51) 
0

>  <fr_Al_OH_noTert>  (51) 
0

>  <fr_ArN>  (51) 
0

>  <fr_Ar_COO>  (51) 
0

>  <fr_Ar_N>  (51) 
0

>  <fr_Ar_NH>  (51) 
0

>  <fr_Ar_OH>  (51) 
0

>  <fr_COO>  (51) 
0

>  <fr_COO2>  (51) 
0

>  <fr_C_O>  (51) 
2

>  <fr_C_O_noCOO>  (51) 
2

>  <fr_C_S>  (51) 
0

>  <fr_HOCCN>  (51) 
0

>  <fr_Imine>  (51) 
0

>  <fr_NH0>  (51) 
0

>  <fr_NH1>  (51) 
2

>  <fr_NH2>  (51) 
0

>  <fr_N_O>  (51) 
1

>  <fr_Ndealkylation1>  (51) 
0

>  <fr_Ndealkylation2>  (51) 
0

>  <fr_Nhpyrrole>  (51) 
0

>  <fr_SH>  (51) 
0

>  <fr_aldehyde>  (51) 
0

>  <fr_alkyl_carbamate>  (51) 
0

>  <fr_alkyl_halide>  (51) 
0

>  <fr_allylic_oxid>  (51) 
0

>  <fr_amide>  (51) 
2

>  <fr_amidine>  (51) 
0

>  <fr_aniline>  (51) 
1

>  <fr_aryl_methyl>  (51) 
0

>  <fr_azide>  (51) 
0

>  <fr_azo>  (51) 
0

>  <fr_barbitur>  (51) 
0

>  <fr_benzene>  (51) 
1

>  <fr_benzodiazepine>  (51) 
0

>  <fr_bicyclic>  (51) 
0

>  <fr_diazo>  (51) 
0

>  <fr_dihydropyridine>  (51) 
0

>  <fr_epoxide>  (51) 
0

>  <fr_ester>  (51) 
0

>  <fr_ether>  (51) 
0

>  <fr_furan>  (51) 
0

>  <fr_guanido>  (51) 
0

>  <fr_halogen>  (51) 
0

>  <fr_hdrzine>  (51) 
0

>  <fr_hdrzone>  (51) 
0

>  <fr_imidazole>  (51) 
0

>  <fr_imide>  (51) 
0

>  <fr_isocyan>  (51) 
0

>  <fr_isothiocyan>  (51) 
0

>  <fr_ketone>  (51) 
0

>  <fr_ketone_Topliss>  (51) 
0

>  <fr_lactam>  (51) 
0

>  <fr_lactone>  (51) 
0

>  <fr_methoxy>  (51) 
0

>  <fr_morpholine>  (51) 
0

>  <fr_nitrile>  (51) 
0

>  <fr_nitro>  (51) 
0

>  <fr_nitro_arom>  (51) 
0

>  <fr_nitro_arom_nonortho>  (51) 
0

>  <fr_nitroso>  (51) 
0

>  <fr_oxazole>  (51) 
0

>  <fr_oxime>  (51) 
0

>  <fr_para_hydroxylation>  (51) 
1

>  <fr_phenol>  (51) 
0

>  <fr_phenol_noOrthoHbond>  (51) 
0

>  <fr_phos_acid>  (51) 
0

>  <fr_phos_ester>  (51) 
0

>  <fr_piperdine>  (51) 
0

>  <fr_piperzine>  (51) 
0

>  <fr_priamide>  (51) 
0

>  <fr_prisulfonamd>  (51) 
0

>  <fr_pyridine>  (51) 
0

>  <fr_quatN>  (51) 
0

>  <fr_sulfide>  (51) 
0

>  <fr_sulfonamd>  (51) 
0

>  <fr_sulfone>  (51) 
0

>  <fr_term_acetylene>  (51) 
0

>  <fr_tetrazole>  (51) 
0

>  <fr_thiazole>  (51) 
0

>  <fr_thiocyan>  (51) 
0

>  <fr_thiophene>  (51) 
0

>  <fr_unbrch_alkane>  (51) 
3

>  <fr_urea>  (51) 
0

>  <NP_Likeness>  (51) 
-0.623917

$$$$
CHEMBL2104993
     RDKit          3D

  0  0  0  0  0  0  0  0  0  0999 V3000
M  V30 BEGIN CTAB
M  V30 COUNTS 43 45 0 0 0
M  V30 BEGIN ATOM
M  V30 1 C -1.623946 -4.584211 3.830734 0
M  V30 2 C -1.213773 -3.811847 2.627492 0
M  V30 3 C -1.544186 -2.456050 2.568204 0
M  V30 4 C -1.164574 -1.739861 1.453830 0
M  V30 5 C -0.466441 -2.305292 0.383422 0
M  V30 6 S -0.089122 -1.191080 -0.933471 0
M  V30 7 C 1.492270 -0.379344 -0.706724 0
M  V30 8 C 2.609713 -1.001359 -1.237596 0
M  V30 9 C 3.899059 -0.485657 -1.137187 0
M  V30 10 C 4.034539 0.718529 -0.461897 0
M  V30 11 C 2.945740 1.352000 0.071207 0
M  V30 12 C 1.655099 0.827968 -0.033820 0
M  V30 13 N 0.490192 1.445553 0.501799 0
M  V30 14 C -0.683857 1.883287 -0.267284 0
M  V30 15 C -1.007333 3.311207 0.100561 0
M  V30 16 N 0.013474 3.964939 0.878076 0
M  V30 17 C 0.420059 3.242273 2.055995 0
M  V30 18 C 0.282691 1.743293 1.927228 0
M  V30 19 C -0.154535 -3.642937 0.469440 0
M  V30 20 C 0.583034 -4.193240 -0.685855 0
M  V30 21 C -0.524449 -4.382704 1.577121 0
M  V30 22 H -1.436503 -4.019472 4.785461 0
M  V30 23 H -2.700552 -4.856432 3.792994 0
M  V30 24 H -0.992361 -5.492258 3.920338 0
M  V30 25 H -2.081991 -2.024655 3.394988 0
M  V30 26 H -1.461948 -0.697535 1.492983 0
M  V30 27 H 2.511824 -1.955563 -1.774136 0
M  V30 28 H 4.739380 -0.998323 -1.562364 0
M  V30 29 H 4.995909 1.175856 -0.344938 0
M  V30 30 H 3.053984 2.281668 0.592023 0
M  V30 31 H -0.589196 1.691448 -1.335801 0
M  V30 32 H -1.525738 1.265915 0.113860 0
M  V30 33 H -1.984663 3.415868 0.616986 0
M  V30 34 H -1.090191 3.874055 -0.852327 0
M  V30 35 H 0.808146 4.342648 0.322783 0
M  V30 36 H 1.500958 3.487876 2.259179 0
M  V30 37 H -0.148380 3.645950 2.924659 0
M  V30 38 H -0.736956 1.468037 2.254195 0
M  V30 39 H 1.076341 1.279274 2.553665 0
M  V30 40 H 0.117728 -3.914687 -1.633607 0
M  V30 41 H 1.655743 -3.921980 -0.696600 0
M  V30 42 H 0.573570 -5.310558 -0.530168 0
M  V30 43 H -0.263793 -5.431983 1.613344 0
M  V30 END ATOM
M  V30 BEGIN BOND
M  V30 1 1 1 2
M  V30 2 2 2 3
M  V30 3 1 3 4
M  V30 4 2 4 5
M  V30 5 1 5 6
M  V30 6 1 6 7
M  V30 7 2 7 8
M  V30 8 1 8 9
M  V30 9 2 9 10
M  V30 10 1 10 11
M  V30 11 2 11 12
M  V30 12 1 12 13
M  V30 13 1 13 14
M  V30 14 1 14 15
M  V30 15 1 15 16
M  V30 16 1 16 17
M  V30 17 1 17 18
M  V30 18 1 5 19
M  V30 19 1 19 20
M  V30 20 2 19 21
M  V30 21 1 21 2
M  V30 22 1 12 7
M  V30 23 1 18 13
M  V30 24 1 1 22
M  V30 25 1 1 23
M  V30 26 1 1 24
M  V30 27 1 3 25
M  V30 28 1 4 26
M  V30 29 1 8 27
M  V30 30 1 9 28
M  V30 31 1 10 29
M  V30 32 1 11 30
M  V30 33 1 14 31
M  V30 34 1 14 32
M  V30 35 1 15 33
M  V30 36 1 15 34
M  V30 37 1 16 35
M  V30 38 1 17 36
M  V30 39 1 17 37
M  V30 40 1 18 38
M  V30 41 1 18 39
M  V30 42 1 20 40
M  V30 43 1 20 41
M  V30 44 1 20 42
M  V30 45 1 21 43
M  V30 END BOND
M  V30 END CTAB
M  END
>  <Dataset>  (52) 
OralDrugs

>  <Ligand_Instance>  (52) 
nan

>  <PDB_ID>  (52) 
nan

>  <Standardized_SMILES>  (52) 
Cc1ccc(Sc2ccccc2N2CCNCC2)c(C)c1

>  <Name>  (52) 
Vortioxetine

>  <Pocket>  (52) 
nan

>  <ATP_Site>  (52) 
nan

>  <Peripheral>  (52) 
nan

>  <Num_H_Atoms_ProtBoundConf>  (52) 
nan

>  <Num_Resolved_Atoms>  (52) 
nan

>  <Num_Not_Resolved_Atoms>  (52) 
nan

>  <2D_Mol_H>  (52) 
<rdkit.Chem.rdchem.Mol object at 0x72a238bbd230>

>  <MW>  (52) 
298.455

>  <HBA>  (52) 
3

>  <HBD>  (52) 
1

>  <LogP>  (52) 
3.86424

>  <NRB>  (52) 
5

>  <TPSA>  (52) 
15.27

>  <Num_Heavy_Atoms>  (52) 
21

>  <Ro5>  (52) 
[True, True, True, True, True, True]

>  <Ro5_Fulfilled>  (52) 
True

>  <Ro3>  (52) 
[True, True, True, False]

>  <Ro3_Fulfilled>  (52) 
True

>  <Fsp3>  (52) 
0.333333

>  <Fsp3_0.42>  (52) 
False

>  <Fsp3_0.45>  (52) 
False

>  <Stereogenic_Carbons>  (52) 
0

>  <C_Atoms>  (52) 
18

>  <FCStereo>  (52) 
0.0

>  <SPS>  (52) 
320

>  <nSPS>  (52) 
15.238095

>  <PBF>  (52) 
0.974124

>  <PBF_0.6>  (52) 
True

>  <nPBF>  (52) 
0.046387

>  <nPBF_0.016>  (52) 
True

>  <PMI1>  (52) 
1247.705467

>  <PMI2>  (52) 
2486.374873

>  <PMI3>  (52) 
3171.093901

>  <NPR1>  (52) 
0.393462

>  <NPR2>  (52) 
0.784075

>  <Sum_NPR>  (52) 
1.177537

>  <Sum_NPR_1.07>  (52) 
True

>  <Sum_NPR_1.2>  (52) 
False

>  <MaxAbsEStateIndex>  (52) 
3.42051

>  <MaxEStateIndex>  (52) 
3.42051

>  <MinAbsEStateIndex>  (52) 
1.071985

>  <MinEStateIndex>  (52) 
1.071985

>  <qed>  (52) 
0.92596

>  <MolWt>  (52) 
298.455

>  <HeavyAtomMolWt>  (52) 
276.279

>  <ExactMolWt>  (52) 
298.15037

>  <NumValenceElectrons>  (52) 
110

>  <NumRadicalElectrons>  (52) 
0

>  <MaxPartialCharge>  (52) 
0.050843

>  <MinPartialCharge>  (52) 
-0.368071

>  <MaxAbsPartialCharge>  (52) 
0.368071

>  <MinAbsPartialCharge>  (52) 
0.050843

>  <FpDensityMorgan1>  (52) 
0.952381

>  <FpDensityMorgan2>  (52) 
1.714286

>  <FpDensityMorgan3>  (52) 
2.47619

>  <BCUT2D_MWHI>  (52) 
32.16658

>  <BCUT2D_MWLOW>  (52) 
10.156001

>  <BCUT2D_CHGHI>  (52) 
2.143763

>  <BCUT2D_CHGLO>  (52) 
-2.305996

>  <BCUT2D_LOGPHI>  (52) 
2.366335

>  <BCUT2D_LOGPLOW>  (52) 
-2.43238

>  <BCUT2D_MRHI>  (52) 
7.991952

>  <BCUT2D_MRLOW>  (52) 
0.586643

>  <AvgIpc>  (52) 
2.514116

>  <BalabanJ>  (52) 
1.876312

>  <BertzCT>  (52) 
618.365433

>  <Chi0>  (52) 
14.65649

>  <Chi0n>  (52) 
12.725341

>  <Chi0v>  (52) 
13.541837

>  <Chi1>  (52) 
10.237183

>  <Chi1n>  (52) 
7.536802

>  <Chi1v>  (52) 
8.353298

>  <Chi2n>  (52) 
5.575786

>  <Chi2v>  (52) 
6.659563

>  <Chi3n>  (52) 
3.873289

>  <Chi3v>  (52) 
5.116394

>  <Chi4n>  (52) 
2.742759

>  <Chi4v>  (52) 
3.783997

>  <HallKierAlpha>  (52) 
-1.45

>  <Ipc>  (52) 
87270.002847

>  <Kappa1>  (52) 
14.485718

>  <Kappa2>  (52) 
6.543094

>  <Kappa3>  (52) 
3.418937

>  <LabuteASA>  (52) 
131.105125

>  <PEOE_VSA1>  (52) 
10.216698

>  <PEOE_VSA10>  (52) 
0.0

>  <PEOE_VSA11>  (52) 
0.0

>  <PEOE_VSA12>  (52) 
0.0

>  <PEOE_VSA13>  (52) 
0.0

>  <PEOE_VSA14>  (52) 
0.0

>  <PEOE_VSA2>  (52) 
0.0

>  <PEOE_VSA3>  (52) 
0.0

>  <PEOE_VSA4>  (52) 
0.0

>  <PEOE_VSA5>  (52) 
0.0

>  <PEOE_VSA6>  (52) 
41.590805

>  <PEOE_VSA7>  (52) 
37.610027

>  <PEOE_VSA8>  (52) 
35.969993

>  <PEOE_VSA9>  (52) 
5.687386

>  <SMR_VSA1>  (52) 
0.0

>  <SMR_VSA10>  (52) 
17.449271

>  <SMR_VSA2>  (52) 
0.0

>  <SMR_VSA3>  (52) 
5.316789

>  <SMR_VSA4>  (52) 
0.0

>  <SMR_VSA5>  (52) 
23.638441

>  <SMR_VSA6>  (52) 
31.078935

>  <SMR_VSA7>  (52) 
53.591472

>  <SMR_VSA8>  (52) 
0.0

>  <SMR_VSA9>  (52) 
0.0

>  <SlogP_VSA1>  (52) 
10.216698

>  <SlogP_VSA10>  (52) 
5.687386

>  <SlogP_VSA11>  (52) 
0.0

>  <SlogP_VSA12>  (52) 
11.761885

>  <SlogP_VSA2>  (52) 
26.179026

>  <SlogP_VSA3>  (52) 
0.0

>  <SlogP_VSA4>  (52) 
13.847474

>  <SlogP_VSA5>  (52) 
11.126903

>  <SlogP_VSA6>  (52) 
52.255536

>  <SlogP_VSA7>  (52) 
0.0

>  <SlogP_VSA8>  (52) 
0.0

>  <SlogP_VSA9>  (52) 
0.0

>  <EState_VSA1>  (52) 
0.0

>  <EState_VSA10>  (52) 
0.0

>  <EState_VSA11>  (52) 
0.0

>  <EState_VSA2>  (52) 
0.0

>  <EState_VSA3>  (52) 
0.0

>  <EState_VSA4>  (52) 
26.179026

>  <EState_VSA5>  (52) 
26.605256

>  <EState_VSA6>  (52) 
0.0

>  <EState_VSA7>  (52) 
11.761885

>  <EState_VSA8>  (52) 
66.528742

>  <EState_VSA9>  (52) 
0.0

>  <VSA_EState1>  (52) 
0.0

>  <VSA_EState10>  (52) 
1.881117

>  <VSA_EState2>  (52) 
5.191725

>  <VSA_EState3>  (52) 
3.42051

>  <VSA_EState4>  (52) 
4.047527

>  <VSA_EState5>  (52) 
0.0

>  <VSA_EState6>  (52) 
15.460201

>  <VSA_EState7>  (52) 
0.0

>  <VSA_EState8>  (52) 
8.665588

>  <VSA_EState9>  (52) 
0.0

>  <FractionCSP3>  (52) 
0.333333

>  <HeavyAtomCount>  (52) 
21

>  <NHOHCount>  (52) 
1

>  <NOCount>  (52) 
2

>  <NumAliphaticCarbocycles>  (52) 
0

>  <NumAliphaticHeterocycles>  (52) 
1

>  <NumAliphaticRings>  (52) 
1

>  <NumAromaticCarbocycles>  (52) 
2

>  <NumAromaticHeterocycles>  (52) 
0

>  <NumAromaticRings>  (52) 
2

>  <NumHAcceptors>  (52) 
3

>  <NumHDonors>  (52) 
1

>  <NumHeteroatoms>  (52) 
3

>  <NumRotatableBonds>  (52) 
3

>  <NumSaturatedCarbocycles>  (52) 
0

>  <NumSaturatedHeterocycles>  (52) 
1

>  <NumSaturatedRings>  (52) 
1

>  <RingCount>  (52) 
3

>  <MolLogP>  (52) 
3.86424

>  <MolMR>  (52) 
91.5637

>  <fr_Al_COO>  (52) 
0

>  <fr_Al_OH>  (52) 
0

>  <fr_Al_OH_noTert>  (52) 
0

>  <fr_ArN>  (52) 
0

>  <fr_Ar_COO>  (52) 
0

>  <fr_Ar_N>  (52) 
0

>  <fr_Ar_NH>  (52) 
0

>  <fr_Ar_OH>  (52) 
0

>  <fr_COO>  (52) 
0

>  <fr_COO2>  (52) 
0

>  <fr_C_O>  (52) 
0

>  <fr_C_O_noCOO>  (52) 
0

>  <fr_C_S>  (52) 
0

>  <fr_HOCCN>  (52) 
0

>  <fr_Imine>  (52) 
0

>  <fr_NH0>  (52) 
1

>  <fr_NH1>  (52) 
1

>  <fr_NH2>  (52) 
0

>  <fr_N_O>  (52) 
0

>  <fr_Ndealkylation1>  (52) 
0

>  <fr_Ndealkylation2>  (52) 
0

>  <fr_Nhpyrrole>  (52) 
0

>  <fr_SH>  (52) 
0

>  <fr_aldehyde>  (52) 
0

>  <fr_alkyl_carbamate>  (52) 
0

>  <fr_alkyl_halide>  (52) 
0

>  <fr_allylic_oxid>  (52) 
0

>  <fr_amide>  (52) 
0

>  <fr_amidine>  (52) 
0

>  <fr_aniline>  (52) 
1

>  <fr_aryl_methyl>  (52) 
2

>  <fr_azide>  (52) 
0

>  <fr_azo>  (52) 
0

>  <fr_barbitur>  (52) 
0

>  <fr_benzene>  (52) 
2

>  <fr_benzodiazepine>  (52) 
0

>  <fr_bicyclic>  (52) 
0

>  <fr_diazo>  (52) 
0

>  <fr_dihydropyridine>  (52) 
0

>  <fr_epoxide>  (52) 
0

>  <fr_ester>  (52) 
0

>  <fr_ether>  (52) 
0

>  <fr_furan>  (52) 
0

>  <fr_guanido>  (52) 
0

>  <fr_halogen>  (52) 
0

>  <fr_hdrzine>  (52) 
0

>  <fr_hdrzone>  (52) 
0

>  <fr_imidazole>  (52) 
0

>  <fr_imide>  (52) 
0

>  <fr_isocyan>  (52) 
0

>  <fr_isothiocyan>  (52) 
0

>  <fr_ketone>  (52) 
0

>  <fr_ketone_Topliss>  (52) 
0

>  <fr_lactam>  (52) 
0

>  <fr_lactone>  (52) 
0

>  <fr_methoxy>  (52) 
0

>  <fr_morpholine>  (52) 
0

>  <fr_nitrile>  (52) 
0

>  <fr_nitro>  (52) 
0

>  <fr_nitro_arom>  (52) 
0

>  <fr_nitro_arom_nonortho>  (52) 
0

>  <fr_nitroso>  (52) 
0

>  <fr_oxazole>  (52) 
0

>  <fr_oxime>  (52) 
0

>  <fr_para_hydroxylation>  (52) 
1

>  <fr_phenol>  (52) 
0

>  <fr_phenol_noOrthoHbond>  (52) 
0

>  <fr_phos_acid>  (52) 
0

>  <fr_phos_ester>  (52) 
0

>  <fr_piperdine>  (52) 
0

>  <fr_piperzine>  (52) 
1

>  <fr_priamide>  (52) 
0

>  <fr_prisulfonamd>  (52) 
0

>  <fr_pyridine>  (52) 
0

>  <fr_quatN>  (52) 
0

>  <fr_sulfide>  (52) 
0

>  <fr_sulfonamd>  (52) 
0

>  <fr_sulfone>  (52) 
0

>  <fr_term_acetylene>  (52) 
0

>  <fr_tetrazole>  (52) 
0

>  <fr_thiazole>  (52) 
0

>  <fr_thiocyan>  (52) 
0

>  <fr_thiophene>  (52) 
0

>  <fr_unbrch_alkane>  (52) 
0

>  <fr_urea>  (52) 
0

>  <NP_Likeness>  (52) 
-1.109267

$$$$
CHEMBL4101807
     RDKit          3D

  0  0  0  0  0  0  0  0  0  0999 V3000
M  V30 BEGIN CTAB
M  V30 COUNTS 44 46 0 0 0
M  V30 BEGIN ATOM
M  V30 1 C 4.139158 -2.844039 0.893224 0
M  V30 2 C 2.876651 -1.997904 1.158942 0
M  V30 3 C 2.149996 -2.733984 2.239616 0
M  V30 4 N 2.151000 -1.900732 -0.066114 0
M  V30 5 N 1.860655 -2.985973 -0.745532 0
M  V30 6 C 1.205003 -2.645453 -1.894388 0
M  V30 7 C 1.152293 -1.271765 -1.799684 0
M  V30 8 C 1.750966 -0.754410 -0.633904 0
M  V30 9 C 1.766069 0.671833 -0.480605 0
M  V30 10 N 2.290122 1.358304 -1.539365 0
M  V30 11 C 2.391886 2.689955 -1.596601 0
M  V30 12 C 1.939388 3.416403 -0.518905 0
M  V30 13 C 1.415724 2.718290 0.535066 0
M  V30 14 C 1.297236 1.320300 0.618127 0
M  V30 15 C 0.645947 0.879704 1.859815 0
M  V30 16 O -0.672406 0.621485 1.872738 0
M  V30 17 C -1.657027 -0.107141 1.411219 0
M  V30 18 C -1.842271 -1.152956 0.541159 0
M  V30 19 C -3.022997 -1.772400 0.210937 0
M  V30 20 C -4.131233 -1.262291 0.842883 0
M  V30 21 C -4.097295 -0.216089 1.740225 0
M  V30 22 O -5.312946 0.167252 2.281611 0
M  V30 23 C -2.845382 0.352456 2.014240 0
M  V30 24 C -3.003350 1.456295 2.994288 0
M  V30 25 O -1.946269 2.058411 3.314736 0
M  V30 26 H 3.724516 -3.868876 0.674022 0
M  V30 27 H 4.559230 -2.477193 -0.058420 0
M  V30 28 H 4.817882 -2.858319 1.741013 0
M  V30 29 H 3.276490 -1.010566 1.487101 0
M  V30 30 H 2.385944 -3.810014 2.223580 0
M  V30 31 H 1.049726 -2.625348 2.230118 0
M  V30 32 H 2.540893 -2.333807 3.220873 0
M  V30 33 H 0.846253 -3.328252 -2.644902 0
M  V30 34 H 0.654047 -0.751329 -2.636516 0
M  V30 35 H 2.825083 3.162191 -2.481744 0
M  V30 36 H 2.020546 4.489118 -0.559940 0
M  V30 37 H 1.086625 3.384752 1.335654 0
M  V30 38 H 0.881451 1.618293 2.703513 0
M  V30 39 H 1.255487 -0.004968 2.204859 0
M  V30 40 H -0.909119 -1.466276 0.123637 0
M  V30 41 H -2.990137 -2.586209 -0.497554 0
M  V30 42 H -5.067555 -1.740971 0.590872 0
M  V30 43 H -5.963357 -0.477877 2.718681 0
M  V30 44 H -2.097040 1.949279 3.249010 0
M  V30 END ATOM
M  V30 BEGIN BOND
M  V30 1 1 1 2
M  V30 2 1 2 3
M  V30 3 1 2 4
M  V30 4 1 4 5
M  V30 5 2 5 6
M  V30 6 1 6 7
M  V30 7 2 7 8
M  V30 8 1 8 9
M  V30 9 2 9 10
M  V30 10 1 10 11
M  V30 11 2 11 12
M  V30 12 1 12 13
M  V30 13 2 13 14
M  V30 14 1 14 15
M  V30 15 1 15 16
M  V30 16 1 16 17
M  V30 17 2 17 18
M  V30 18 1 18 19
M  V30 19 2 19 20
M  V30 20 1 20 21
M  V30 21 1 21 22
M  V30 22 2 21 23
M  V30 23 1 23 24
M  V30 24 2 24 25
M  V30 25 1 8 4
M  V30 26 1 14 9
M  V30 27 1 23 17
M  V30 28 1 1 26
M  V30 29 1 1 27
M  V30 30 1 1 28
M  V30 31 1 2 29
M  V30 32 1 3 30
M  V30 33 1 3 31
M  V30 34 1 3 32
M  V30 35 1 6 33
M  V30 36 1 7 34
M  V30 37 1 11 35
M  V30 38 1 12 36
M  V30 39 1 13 37
M  V30 40 1 15 38
M  V30 41 1 15 39
M  V30 42 1 18 40
M  V30 43 1 19 41
M  V30 44 1 20 42
M  V30 45 1 22 43
M  V30 46 1 24 44
M  V30 END BOND
M  V30 END CTAB
M  END
>  <Dataset>  (53) 
OralDrugs

>  <Ligand_Instance>  (53) 
nan

>  <PDB_ID>  (53) 
nan

>  <Standardized_SMILES>  (53) 
CC(C)n1nccc1-c1ncccc1COc1cccc(O)c1C=O

>  <Name>  (53) 
Voxelotor

>  <Pocket>  (53) 
nan

>  <ATP_Site>  (53) 
nan

>  <Peripheral>  (53) 
nan

>  <Num_H_Atoms_ProtBoundConf>  (53) 
nan

>  <Num_Resolved_Atoms>  (53) 
nan

>  <Num_Not_Resolved_Atoms>  (53) 
nan

>  <2D_Mol_H>  (53) 
<rdkit.Chem.rdchem.Mol object at 0x72a238bbd310>

>  <MW>  (53) 
337.379

>  <HBA>  (53) 
6

>  <HBD>  (53) 
1

>  <LogP>  (53) 
3.6231

>  <NRB>  (53) 
9

>  <TPSA>  (53) 
77.24

>  <Num_Heavy_Atoms>  (53) 
25

>  <Ro5>  (53) 
[True, True, True, True, True, True]

>  <Ro5_Fulfilled>  (53) 
True

>  <Ro3>  (53) 
[False, False, True, False]

>  <Ro3_Fulfilled>  (53) 
False

>  <Fsp3>  (53) 
0.210526

>  <Fsp3_0.42>  (53) 
False

>  <Fsp3_0.45>  (53) 
False

>  <Stereogenic_Carbons>  (53) 
0

>  <C_Atoms>  (53) 
19

>  <FCStereo>  (53) 
0.0

>  <SPS>  (53) 
271

>  <nSPS>  (53) 
10.84

>  <PBF>  (53) 
1.302542

>  <PBF_0.6>  (53) 
True

>  <nPBF>  (53) 
0.052102

>  <nPBF_0.016>  (53) 
True

>  <PMI1>  (53) 
1658.161207

>  <PMI2>  (53) 
3121.576068

>  <PMI3>  (53) 
3774.548908

>  <NPR1>  (53) 
0.4393

>  <NPR2>  (53) 
0.827006

>  <Sum_NPR>  (53) 
1.266307

>  <Sum_NPR_1.07>  (53) 
True

>  <Sum_NPR_1.2>  (53) 
True

>  <MaxAbsEStateIndex>  (53) 
11.168839

>  <MaxEStateIndex>  (53) 
11.168839

>  <MinAbsEStateIndex>  (53) 
0.10019

>  <MinEStateIndex>  (53) 
-0.10019

>  <qed>  (53) 
0.695168

>  <MolWt>  (53) 
337.379

>  <HeavyAtomMolWt>  (53) 
318.227

>  <ExactMolWt>  (53) 
337.142641

>  <NumValenceElectrons>  (53) 
128

>  <NumRadicalElectrons>  (53) 
0

>  <MaxPartialCharge>  (53) 
0.157035

>  <MinPartialCharge>  (53) 
-0.507063

>  <MaxAbsPartialCharge>  (53) 
0.507063

>  <MinAbsPartialCharge>  (53) 
0.157035

>  <FpDensityMorgan1>  (53) 
1.2

>  <FpDensityMorgan2>  (53) 
2.04

>  <FpDensityMorgan3>  (53) 
2.8

>  <BCUT2D_MWHI>  (53) 
16.478264

>  <BCUT2D_MWLOW>  (53) 
10.121028

>  <BCUT2D_CHGHI>  (53) 
2.146424

>  <BCUT2D_CHGLO>  (53) 
-2.143999

>  <BCUT2D_LOGPHI>  (53) 
2.280916

>  <BCUT2D_LOGPLOW>  (53) 
-2.076116

>  <BCUT2D_MRHI>  (53) 
5.829131

>  <BCUT2D_MRLOW>  (53) 
0.111192

>  <AvgIpc>  (53) 
3.0985

>  <BalabanJ>  (53) 
1.914

>  <BertzCT>  (53) 
887.12576

>  <Chi0>  (53) 
17.81119

>  <Chi0n>  (53) 
14.08596

>  <Chi0v>  (53) 
14.08596

>  <Chi1>  (53) 
12.113392

>  <Chi1n>  (53) 
7.992215

>  <Chi1v>  (53) 
7.992215

>  <Chi2n>  (53) 
5.861374

>  <Chi2v>  (53) 
5.861374

>  <Chi3n>  (53) 
3.837457

>  <Chi3v>  (53) 
3.837457

>  <Chi4n>  (53) 
2.631231

>  <Chi4v>  (53) 
2.631231

>  <HallKierAlpha>  (53) 
-3.15

>  <Ipc>  (53) 
668625.369598

>  <Kappa1>  (53) 
16.698859

>  <Kappa2>  (53) 
7.169844

>  <Kappa3>  (53) 
3.375278

>  <LabuteASA>  (53) 
145.266485

>  <PEOE_VSA1>  (53) 
9.84339

>  <PEOE_VSA10>  (53) 
18.105906

>  <PEOE_VSA11>  (53) 
6.286161

>  <PEOE_VSA12>  (53) 
0.0

>  <PEOE_VSA13>  (53) 
0.0

>  <PEOE_VSA14>  (53) 
0.0

>  <PEOE_VSA2>  (53) 
14.460319

>  <PEOE_VSA3>  (53) 
0.0

>  <PEOE_VSA4>  (53) 
5.098682

>  <PEOE_VSA5>  (53) 
0.0

>  <PEOE_VSA6>  (53) 
12.132734

>  <PEOE_VSA7>  (53) 
38.112943

>  <PEOE_VSA8>  (53) 
23.998979

>  <PEOE_VSA9>  (53) 
16.951307

>  <SMR_VSA1>  (53) 
14.637928

>  <SMR_VSA10>  (53) 
6.286161

>  <SMR_VSA2>  (53) 
0.0

>  <SMR_VSA3>  (53) 
14.764463

>  <SMR_VSA4>  (53) 
0.0

>  <SMR_VSA5>  (53) 
26.496197

>  <SMR_VSA6>  (53) 
0.0

>  <SMR_VSA7>  (53) 
59.918793

>  <SMR_VSA8>  (53) 
0.0

>  <SMR_VSA9>  (53) 
22.88688

>  <SlogP_VSA1>  (53) 
4.736863

>  <SlogP_VSA10>  (53) 
0.0

>  <SlogP_VSA11>  (53) 
11.499024

>  <SlogP_VSA12>  (53) 
0.0

>  <SlogP_VSA2>  (53) 
26.157151

>  <SlogP_VSA3>  (53) 
6.606882

>  <SlogP_VSA4>  (53) 
0.0

>  <SlogP_VSA5>  (53) 
35.810755

>  <SlogP_VSA6>  (53) 
48.79189

>  <SlogP_VSA7>  (53) 
0.0

>  <SlogP_VSA8>  (53) 
11.387856

>  <SlogP_VSA9>  (53) 
0.0

>  <EState_VSA1>  (53) 
0.0

>  <EState_VSA10>  (53) 
9.901065

>  <EState_VSA11>  (53) 
0.0

>  <EState_VSA2>  (53) 
23.961686

>  <EState_VSA3>  (53) 
12.035672

>  <EState_VSA4>  (53) 
16.951307

>  <EState_VSA5>  (53) 
6.066367

>  <EState_VSA6>  (53) 
24.526421

>  <EState_VSA7>  (53) 
22.880904

>  <EState_VSA8>  (53) 
23.930135

>  <EState_VSA9>  (53) 
4.736863

>  <VSA_EState1>  (53) 
7.672896

>  <VSA_EState10>  (53) 
0.0

>  <VSA_EState2>  (53) 
15.645717

>  <VSA_EState3>  (53) 
14.102552

>  <VSA_EState4>  (53) 
2.687482

>  <VSA_EState5>  (53) 
0.235152

>  <VSA_EState6>  (53) 
10.607677

>  <VSA_EState7>  (53) 
4.054297

>  <VSA_EState8>  (53) 
4.32756

>  <VSA_EState9>  (53) 
0.0

>  <FractionCSP3>  (53) 
0.210526

>  <HeavyAtomCount>  (53) 
25

>  <NHOHCount>  (53) 
1

>  <NOCount>  (53) 
6

>  <NumAliphaticCarbocycles>  (53) 
0

>  <NumAliphaticHeterocycles>  (53) 
0

>  <NumAliphaticRings>  (53) 
0

>  <NumAromaticCarbocycles>  (53) 
1

>  <NumAromaticHeterocycles>  (53) 
2

>  <NumAromaticRings>  (53) 
3

>  <NumHAcceptors>  (53) 
6

>  <NumHDonors>  (53) 
1

>  <NumHeteroatoms>  (53) 
6

>  <NumRotatableBonds>  (53) 
6

>  <NumSaturatedCarbocycles>  (53) 
0

>  <NumSaturatedHeterocycles>  (53) 
0

>  <NumSaturatedRings>  (53) 
0

>  <RingCount>  (53) 
3

>  <MolLogP>  (53) 
3.6231

>  <MolMR>  (53) 
93.6693

>  <fr_Al_COO>  (53) 
0

>  <fr_Al_OH>  (53) 
0

>  <fr_Al_OH_noTert>  (53) 
0

>  <fr_ArN>  (53) 
0

>  <fr_Ar_COO>  (53) 
0

>  <fr_Ar_N>  (53) 
3

>  <fr_Ar_NH>  (53) 
0

>  <fr_Ar_OH>  (53) 
1

>  <fr_COO>  (53) 
0

>  <fr_COO2>  (53) 
0

>  <fr_C_O>  (53) 
1

>  <fr_C_O_noCOO>  (53) 
1

>  <fr_C_S>  (53) 
0

>  <fr_HOCCN>  (53) 
0

>  <fr_Imine>  (53) 
0

>  <fr_NH0>  (53) 
3

>  <fr_NH1>  (53) 
0

>  <fr_NH2>  (53) 
0

>  <fr_N_O>  (53) 
0

>  <fr_Ndealkylation1>  (53) 
0

>  <fr_Ndealkylation2>  (53) 
0

>  <fr_Nhpyrrole>  (53) 
0

>  <fr_SH>  (53) 
0

>  <fr_aldehyde>  (53) 
1

>  <fr_alkyl_carbamate>  (53) 
0

>  <fr_alkyl_halide>  (53) 
0

>  <fr_allylic_oxid>  (53) 
0

>  <fr_amide>  (53) 
0

>  <fr_amidine>  (53) 
0

>  <fr_aniline>  (53) 
0

>  <fr_aryl_methyl>  (53) 
0

>  <fr_azide>  (53) 
0

>  <fr_azo>  (53) 
0

>  <fr_barbitur>  (53) 
0

>  <fr_benzene>  (53) 
1

>  <fr_benzodiazepine>  (53) 
0

>  <fr_bicyclic>  (53) 
0

>  <fr_diazo>  (53) 
0

>  <fr_dihydropyridine>  (53) 
0

>  <fr_epoxide>  (53) 
0

>  <fr_ester>  (53) 
0

>  <fr_ether>  (53) 
1

>  <fr_furan>  (53) 
0

>  <fr_guanido>  (53) 
0

>  <fr_halogen>  (53) 
0

>  <fr_hdrzine>  (53) 
0

>  <fr_hdrzone>  (53) 
0

>  <fr_imidazole>  (53) 
0

>  <fr_imide>  (53) 
0

>  <fr_isocyan>  (53) 
0

>  <fr_isothiocyan>  (53) 
0

>  <fr_ketone>  (53) 
0

>  <fr_ketone_Topliss>  (53) 
0

>  <fr_lactam>  (53) 
0

>  <fr_lactone>  (53) 
0

>  <fr_methoxy>  (53) 
0

>  <fr_morpholine>  (53) 
0

>  <fr_nitrile>  (53) 
0

>  <fr_nitro>  (53) 
0

>  <fr_nitro_arom>  (53) 
0

>  <fr_nitro_arom_nonortho>  (53) 
0

>  <fr_nitroso>  (53) 
0

>  <fr_oxazole>  (53) 
0

>  <fr_oxime>  (53) 
0

>  <fr_para_hydroxylation>  (53) 
0

>  <fr_phenol>  (53) 
1

>  <fr_phenol_noOrthoHbond>  (53) 
1

>  <fr_phos_acid>  (53) 
0

>  <fr_phos_ester>  (53) 
0

>  <fr_piperdine>  (53) 
0

>  <fr_piperzine>  (53) 
0

>  <fr_priamide>  (53) 
0

>  <fr_prisulfonamd>  (53) 
0

>  <fr_pyridine>  (53) 
1

>  <fr_quatN>  (53) 
0

>  <fr_sulfide>  (53) 
0

>  <fr_sulfonamd>  (53) 
0

>  <fr_sulfone>  (53) 
0

>  <fr_term_acetylene>  (53) 
0

>  <fr_tetrazole>  (53) 
0

>  <fr_thiazole>  (53) 
0

>  <fr_thiocyan>  (53) 
0

>  <fr_thiophene>  (53) 
0

>  <fr_unbrch_alkane>  (53) 
0

>  <fr_urea>  (53) 
0

>  <NP_Likeness>  (53) 
-0.814411

$$$$
CHEMBL3707372
     RDKit          3D

  0  0  0  0  0  0  0  0  0  0999 V3000
M  V30 BEGIN CTAB
M  V30 COUNTS 118 124 0 0 0
M  V30 BEGIN ATOM
M  V30 1 C -4.347513 -2.003263 0.168156 0
M  V30 2 C -2.924950 -1.578631 0.462440 0
M  V30 3 C -2.011432 -1.345895 -0.659141 0 CFG=2
M  V30 4 C -2.039320 -2.739915 -1.284473 0 CFG=2
M  V30 5 C -1.016603 -3.375555 -0.289949 0
M  V30 6 N -0.554384 -2.273816 0.547899 0
M  V30 7 C -0.298111 -2.123557 1.890836 0
M  V30 8 O -0.209154 -3.328182 2.158914 0
M  V30 9 C -0.125131 -0.982837 2.890365 0 CFG=2
M  V30 10 C -0.269311 -1.408302 4.284057 0
M  V30 11 C -0.068038 -0.164926 5.152881 0
M  V30 12 C 0.884259 -2.340888 4.600135 0
M  V30 13 C -1.496078 -2.119722 4.704681 0
M  V30 14 N -0.658202 0.226854 2.404385 0
M  V30 15 C -1.188081 1.431399 1.920474 0
M  V30 16 O -0.217889 2.027754 1.693878 0
M  V30 17 O -2.394466 1.882176 1.721756 0
M  V30 18 C -3.047222 2.961507 1.264233 0 CFG=2
M  V30 19 C -4.488113 3.091933 1.068189 0
M  V30 20 C -3.719882 2.524863 -0.064710 0 CFG=1
M  V30 21 C -3.341614 3.305675 -1.240839 0
M  V30 22 C -3.305209 2.720340 -2.596544 0
M  V30 23 C -4.473672 2.089483 -3.198395 0
M  V30 24 C -4.939797 0.730220 -2.906197 0
M  V30 25 C -4.287135 -0.438060 -3.494410 0
M  V30 26 F -4.792605 -1.608823 -2.966828 0
M  V30 27 F -4.934810 -0.521092 -4.801006 0
M  V30 28 C -2.870767 -0.575289 -3.746996 0
M  V30 29 N -2.526301 0.398115 -4.608365 0
M  V30 30 C -1.313947 0.639579 -5.133688 0
M  V30 31 C -1.102457 1.705346 -6.028531 0
M  V30 32 C 0.189135 1.890225 -6.529694 0
M  V30 33 C 1.209832 1.051631 -6.151895 0
M  V30 34 O 2.411537 1.367120 -6.730592 0
M  V30 35 C 3.611289 0.690087 -6.528668 0
M  V30 36 C 0.919660 0.042405 -5.279016 0
M  V30 37 C -0.310085 -0.212802 -4.740723 0
M  V30 38 N -0.627770 -1.188445 -3.885599 0
M  V30 39 C -1.851323 -1.429756 -3.357396 0
M  V30 40 O -1.610054 -2.537653 -2.557355 0
M  V30 41 C -0.568423 -1.355048 -0.485420 0 CFG=2
M  V30 42 C 0.329647 -0.228423 -0.553353 0
M  V30 43 O 0.240597 0.865833 -1.137041 0
M  V30 44 N 1.541267 -0.404440 0.175066 0
M  V30 45 C 2.608322 0.565087 0.263380 0 CFG=2
M  V30 46 C 3.705681 0.125875 1.160892 0
M  V30 47 O 3.439398 -1.085214 1.230483 0
M  V30 48 N 4.742326 0.779248 1.777652 0
M  V30 49 S 6.064816 0.580462 2.798107 0
M  V30 50 O 7.368787 1.009930 2.111594 0
M  V30 51 O 5.900288 1.575437 3.956748 0
M  V30 52 C 6.368348 -1.009146 3.450898 0
M  V30 53 C 7.615165 -1.068521 4.356443 0
M  V30 54 C 6.222915 -2.216864 2.511507 0
M  V30 55 C 5.324849 -2.036283 3.668892 0
M  V30 56 C 2.516066 1.955562 -0.097853 0
M  V30 57 C 3.043054 1.037589 -1.138132 0 CFG=1
M  V30 58 C 4.491272 0.949943 -1.484345 0
M  V30 59 C 4.928447 -0.495576 -1.401601 0
M  V30 60 C 4.752166 1.391418 -2.922579 0
M  V30 61 H -4.922219 -2.040744 1.165211 0
M  V30 62 H -4.489989 -3.043407 -0.158825 0
M  V30 63 H -4.928233 -1.235790 -0.359407 0
M  V30 64 H -3.111376 -0.694233 1.109136 0
M  V30 65 H -2.584191 -2.373303 1.123952 0
M  V30 66 H -2.286108 -0.569901 -1.370614 0
M  V30 67 H -2.960028 -3.265347 -1.296602 0
M  V30 68 H -0.187967 -3.705984 -0.918325 0
M  V30 69 H -1.483006 -4.179104 0.273709 0
M  V30 70 H 0.979802 -0.811714 2.841308 0
M  V30 71 H 0.199570 -0.437996 6.192464 0
M  V30 72 H -0.987153 0.454937 5.222459 0
M  V30 73 H 0.820509 0.420063 4.788896 0
M  V30 74 H 1.158872 -2.177788 5.668925 0
M  V30 75 H 1.755529 -1.993777 4.001909 0
M  V30 76 H 0.616113 -3.402832 4.424418 0
M  V30 77 H -1.339167 -2.726989 5.626265 0
M  V30 78 H -1.971394 -2.780813 3.995685 0
M  V30 79 H -2.245687 -1.349466 4.991127 0
M  V30 80 H -1.533244 -0.260969 2.671298 0
M  V30 81 H -2.432041 3.863778 1.078207 0
M  V30 82 H -5.126493 2.427552 1.668018 0
M  V30 83 H -4.875670 4.098308 0.927742 0
M  V30 84 H -3.854524 1.460069 -0.229209 0
M  V30 85 H -4.083494 4.173098 -1.293655 0
M  V30 86 H -2.381763 3.861577 -0.992773 0
M  V30 87 H -3.056353 3.607964 -3.277953 0
M  V30 88 H -2.340889 2.155313 -2.636673 0
M  V30 89 H -4.294479 2.118639 -4.328769 0
M  V30 90 H -5.318111 2.860616 -3.122112 0
M  V30 91 H -6.009595 0.728043 -3.337591 0
M  V30 92 H -5.226772 0.619913 -1.832428 0
M  V30 93 H -1.958391 2.299381 -6.258980 0
M  V30 94 H 0.203859 2.739901 -7.198888 0
M  V30 95 H 3.525233 -0.295402 -6.036231 0
M  V30 96 H 4.146946 0.534980 -7.489072 0
M  V30 97 H 4.339466 1.280660 -5.905901 0
M  V30 98 H 1.739619 -0.604753 -4.997205 0
M  V30 99 H -0.037685 -1.943466 -1.367715 0
M  V30 100 H 1.669446 -1.339691 0.675833 0
M  V30 101 H 4.689262 1.801118 1.504797 0
M  V30 102 H 8.465612 -1.493692 3.791096 0
M  V30 103 H 7.901405 -0.070680 4.713839 0
M  V30 104 H 7.379232 -1.746761 5.207401 0
M  V30 105 H 5.959180 -2.004619 1.471685 0
M  V30 106 H 7.027943 -2.989628 2.573490 0
M  V30 107 H 4.269723 -1.801161 3.641002 0
M  V30 108 H 5.550955 -2.750853 4.523497 0
M  V30 109 H 3.307602 2.642270 0.293168 0
M  V30 110 H 1.598495 2.551614 -0.275061 0
M  V30 111 H 2.391526 0.815096 -2.006400 0
M  V30 112 H 5.166918 1.508457 -0.812634 0
M  V30 113 H 4.080733 -1.216260 -1.409987 0
M  V30 114 H 5.519925 -0.702298 -0.487393 0
M  V30 115 H 5.528668 -0.795584 -2.317359 0
M  V30 116 H 4.189788 0.721423 -3.597499 0
M  V30 117 H 4.569260 2.455720 -3.076242 0
M  V30 118 H 5.835614 1.187869 -3.098565 0
M  V30 END ATOM
M  V30 BEGIN BOND
M  V30 1 1 1 2
M  V30 2 1 2 3
M  V30 3 1 3 4
M  V30 4 1 4 5
M  V30 5 1 5 6
M  V30 6 1 6 7
M  V30 7 2 7 8
M  V30 8 1 7 9
M  V30 9 1 9 10
M  V30 10 1 10 11
M  V30 11 1 10 12
M  V30 12 1 10 13
M  V30 13 1 9 14
M  V30 14 1 14 15
M  V30 15 2 15 16
M  V30 16 1 15 17
M  V30 17 1 17 18
M  V30 18 1 18 19
M  V30 19 1 19 20
M  V30 20 1 20 21
M  V30 21 1 21 22
M  V30 22 1 22 23
M  V30 23 1 23 24
M  V30 24 1 24 25
M  V30 25 1 25 26
M  V30 26 1 25 27
M  V30 27 1 25 28
M  V30 28 2 28 29
M  V30 29 1 29 30
M  V30 30 2 30 31
M  V30 31 1 31 32
M  V30 32 2 32 33
M  V30 33 1 33 34
M  V30 34 1 34 35
M  V30 35 1 33 36
M  V30 36 2 36 37
M  V30 37 1 37 38
M  V30 38 2 38 39
M  V30 39 1 39 40
M  V30 40 1 6 41
M  V30 41 1 41 42
M  V30 42 2 42 43
M  V30 43 1 42 44
M  V30 44 1 45 44 CFG=3
M  V30 45 1 45 46
M  V30 46 2 46 47
M  V30 47 1 46 48
M  V30 48 1 48 49
M  V30 49 2 49 50
M  V30 50 2 49 51
M  V30 51 1 49 52
M  V30 52 1 52 53
M  V30 53 1 52 54
M  V30 54 1 54 55
M  V30 55 1 45 56
M  V30 56 1 56 57
M  V30 57 1 57 58
M  V30 58 1 58 59
M  V30 59 1 58 60
M  V30 60 1 41 3
M  V30 61 1 57 45
M  V30 62 1 40 4
M  V30 63 1 55 52
M  V30 64 1 20 18
M  V30 65 1 39 28
M  V30 66 1 37 30
M  V30 67 1 1 61
M  V30 68 1 1 62
M  V30 69 1 1 63
M  V30 70 1 2 64
M  V30 71 1 2 65
M  V30 72 1 3 66 CFG=3
M  V30 73 1 4 67 CFG=3
M  V30 74 1 5 68
M  V30 75 1 5 69
M  V30 76 1 9 70 CFG=1
M  V30 77 1 11 71
M  V30 78 1 11 72
M  V30 79 1 11 73
M  V30 80 1 12 74
M  V30 81 1 12 75
M  V30 82 1 12 76
M  V30 83 1 13 77
M  V30 84 1 13 78
M  V30 85 1 13 79
M  V30 86 1 14 80
M  V30 87 1 18 81 CFG=3
M  V30 88 1 19 82
M  V30 89 1 19 83
M  V30 90 1 20 84 CFG=3
M  V30 91 1 21 85
M  V30 92 1 21 86
M  V30 93 1 22 87
M  V30 94 1 22 88
M  V30 95 1 23 89
M  V30 96 1 23 90
M  V30 97 1 24 91
M  V30 98 1 24 92
M  V30 99 1 31 93
M  V30 100 1 32 94
M  V30 101 1 35 95
M  V30 102 1 35 96
M  V30 103 1 35 97
M  V30 104 1 36 98
M  V30 105 1 41 99 CFG=3
M  V30 106 1 44 100
M  V30 107 1 48 101
M  V30 108 1 53 102
M  V30 109 1 53 103
M  V30 110 1 53 104
M  V30 111 1 54 105
M  V30 112 1 54 106
M  V30 113 1 55 107
M  V30 114 1 55 108
M  V30 115 1 56 109
M  V30 116 1 56 110
M  V30 117 1 57 111 CFG=3
M  V30 118 1 58 112
M  V30 119 1 59 113
M  V30 120 1 59 114
M  V30 121 1 59 115
M  V30 122 1 60 116
M  V30 123 1 60 117
M  V30 124 1 60 118
M  V30 END BOND
M  V30 END CTAB
M  END
>  <Dataset>  (54) 
OralDrugs

>  <Ligand_Instance>  (54) 
nan

>  <PDB_ID>  (54) 
nan

>  <Standardized_SMILES>  (54) 
CC[C@@H]1[C@@H]2CN(C(=O)[C@H](C(C)(C)C)NC(=O)O[C@@H]3C[C@H]3CCCCC(F)(F)c3nc4ccc(OC)cc4nc3O2)[C@@H]1C(=O)N[C@]1(C(=O)NS(=O)(=O)C2(C)CC2)C[C@H]1C(C)C

>  <Name>  (54) 
Voxilaprevir

>  <Pocket>  (54) 
nan

>  <ATP_Site>  (54) 
nan

>  <Peripheral>  (54) 
nan

>  <Num_H_Atoms_ProtBoundConf>  (54) 
nan

>  <Num_Resolved_Atoms>  (54) 
nan

>  <Num_Not_Resolved_Atoms>  (54) 
nan

>  <2D_Mol_H>  (54) 
<rdkit.Chem.rdchem.Mol object at 0x72a238bbd3f0>

>  <MW>  (54) 
861.022

>  <HBA>  (54) 
11

>  <HBD>  (54) 
3

>  <LogP>  (54) 
5.3474

>  <NRB>  (54) 
13

>  <TPSA>  (54) 
195.22

>  <Num_Heavy_Atoms>  (54) 
60

>  <Ro5>  (54) 
[False, False, True, False, False, False]

>  <Ro5_Fulfilled>  (54) 
False

>  <Ro3>  (54) 
[False, False, True, False]

>  <Ro3_Fulfilled>  (54) 
False

>  <Fsp3>  (54) 
0.714286

>  <Fsp3_0.42>  (54) 
True

>  <Fsp3_0.45>  (54) 
True

>  <Stereogenic_Carbons>  (54) 
8

>  <C_Atoms>  (54) 
42

>  <FCStereo>  (54) 
0.190476

>  <SPS>  (54) 
1879

>  <nSPS>  (54) 
31.316667

>  <PBF>  (54) 
1.45899

>  <PBF_0.6>  (54) 
True

>  <nPBF>  (54) 
0.024316

>  <nPBF_0.016>  (54) 
True

>  <PMI1>  (54) 
8885.698608

>  <PMI2>  (54) 
15864.719441

>  <PMI3>  (54) 
20134.296422

>  <NPR1>  (54) 
0.441322

>  <NPR2>  (54) 
0.787945

>  <Sum_NPR>  (54) 
1.229267

>  <Sum_NPR_1.07>  (54) 
True

>  <Sum_NPR_1.2>  (54) 
True

>  <MaxAbsEStateIndex>  (54) 
16.404153

>  <MaxEStateIndex>  (54) 
16.404153

>  <MinAbsEStateIndex>  (54) 
0.011258

>  <MinEStateIndex>  (54) 
-4.069125

>  <qed>  (54) 
0.309942

>  <MolWt>  (54) 
861.022

>  <HeavyAtomMolWt>  (54) 
802.558

>  <ExactMolWt>  (54) 
860.395405

>  <NumValenceElectrons>  (54) 
330

>  <NumRadicalElectrons>  (54) 
0

>  <MaxPartialCharge>  (54) 
0.40759

>  <MinPartialCharge>  (54) 
-0.496684

>  <MaxAbsPartialCharge>  (54) 
0.496684

>  <MinAbsPartialCharge>  (54) 
0.40759

>  <FpDensityMorgan1>  (54) 
1.066667

>  <FpDensityMorgan2>  (54) 
1.783333

>  <FpDensityMorgan3>  (54) 
2.4

>  <BCUT2D_MWHI>  (54) 
32.233497

>  <BCUT2D_MWLOW>  (54) 
9.851111

>  <BCUT2D_CHGHI>  (54) 
2.651362

>  <BCUT2D_CHGLO>  (54) 
-2.358229

>  <BCUT2D_LOGPHI>  (54) 
2.505862

>  <BCUT2D_LOGPLOW>  (54) 
-2.610217

>  <BCUT2D_MRHI>  (54) 
7.912926

>  <BCUT2D_MRLOW>  (54) 
-0.143441

>  <AvgIpc>  (54) 
4.123315

>  <BalabanJ>  (54) 
1.300873

>  <BertzCT>  (54) 
2161.59571

>  <Chi0>  (54) 
43.741547

>  <Chi0n>  (54) 
35.601973

>  <Chi0v>  (54) 
36.41847

>  <Chi1>  (54) 
28.035628

>  <Chi1n>  (54) 
21.110782

>  <Chi1v>  (54) 
22.593945

>  <Chi2n>  (54) 
19.128769

>  <Chi2v>  (54) 
21.325365

>  <Chi3n>  (54) 
13.275328

>  <Chi3v>  (54) 
15.435238

>  <Chi4n>  (54) 
8.932648

>  <Chi4v>  (54) 
10.244765

>  <HallKierAlpha>  (54) 
-4.35

>  <Ipc>  (54) 
10070832033790.941406

>  <Kappa1>  (54) 
43.729986

>  <Kappa2>  (54) 
15.527519

>  <Kappa3>  (54) 
8.325849

>  <LabuteASA>  (54) 
349.419231

>  <PEOE_VSA1>  (54) 
29.744076

>  <PEOE_VSA10>  (54) 
35.580052

>  <PEOE_VSA11>  (54) 
5.693928

>  <PEOE_VSA12>  (54) 
27.717639

>  <PEOE_VSA13>  (54) 
11.829709

>  <PEOE_VSA14>  (54) 
6.09324

>  <PEOE_VSA2>  (54) 
19.105706

>  <PEOE_VSA3>  (54) 
23.180291

>  <PEOE_VSA4>  (54) 
8.78083

>  <PEOE_VSA5>  (54) 
0.0

>  <PEOE_VSA6>  (54) 
47.963245

>  <PEOE_VSA7>  (54) 
87.170931

>  <PEOE_VSA8>  (54) 
18.405095

>  <PEOE_VSA9>  (54) 
29.434978

>  <SMR_VSA1>  (54) 
50.587365

>  <SMR_VSA10>  (54) 
44.871472

>  <SMR_VSA2>  (54) 
0.0

>  <SMR_VSA3>  (54) 
30.223539

>  <SMR_VSA4>  (54) 
29.086615

>  <SMR_VSA5>  (54) 
146.753646

>  <SMR_VSA6>  (54) 
13.654554

>  <SMR_VSA7>  (54) 
23.893029

>  <SMR_VSA8>  (54) 
0.0

>  <SMR_VSA9>  (54) 
11.6295

>  <SlogP_VSA1>  (54) 
24.829398

>  <SlogP_VSA10>  (54) 
13.575367

>  <SlogP_VSA11>  (54) 
11.6295

>  <SlogP_VSA12>  (54) 
0.0

>  <SlogP_VSA2>  (54) 
95.332559

>  <SlogP_VSA3>  (54) 
35.066295

>  <SlogP_VSA4>  (54) 
29.086615

>  <SlogP_VSA5>  (54) 
111.947483

>  <SlogP_VSA6>  (54) 
18.199101

>  <SlogP_VSA7>  (54) 
0.0

>  <SlogP_VSA8>  (54) 
11.033401

>  <SlogP_VSA9>  (54) 
0.0

>  <EState_VSA1>  (54) 
109.583702

>  <EState_VSA10>  (54) 
27.595946

>  <EState_VSA11>  (54) 
8.78083

>  <EState_VSA2>  (54) 
48.676435

>  <EState_VSA3>  (54) 
37.85362

>  <EState_VSA4>  (54) 
0.0

>  <EState_VSA5>  (54) 
18.076074

>  <EState_VSA6>  (54) 
46.75142

>  <EState_VSA7>  (54) 
13.847474

>  <EState_VSA8>  (54) 
25.323629

>  <EState_VSA9>  (54) 
14.210589

>  <VSA_EState1>  (54) 
77.982523

>  <VSA_EState10>  (54) 
0.0

>  <VSA_EState2>  (54) 
67.446865

>  <VSA_EState3>  (54) 
5.641574

>  <VSA_EState4>  (54) 
-2.765354

>  <VSA_EState5>  (54) 
-7.222594

>  <VSA_EState6>  (54) 
2.112966

>  <VSA_EState7>  (54) 
-0.025302

>  <VSA_EState8>  (54) 
12.020421

>  <VSA_EState9>  (54) 
-2.607767

>  <FractionCSP3>  (54) 
0.714286

>  <HeavyAtomCount>  (54) 
60

>  <NHOHCount>  (54) 
3

>  <NOCount>  (54) 
15

>  <NumAliphaticCarbocycles>  (54) 
3

>  <NumAliphaticHeterocycles>  (54) 
2

>  <NumAliphaticRings>  (54) 
5

>  <NumAromaticCarbocycles>  (54) 
1

>  <NumAromaticHeterocycles>  (54) 
1

>  <NumAromaticRings>  (54) 
2

>  <NumHAcceptors>  (54) 
11

>  <NumHDonors>  (54) 
3

>  <NumHeteroatoms>  (54) 
18

>  <NumRotatableBonds>  (54) 
8

>  <NumSaturatedCarbocycles>  (54) 
3

>  <NumSaturatedHeterocycles>  (54) 
1

>  <NumSaturatedRings>  (54) 
4

>  <RingCount>  (54) 
7

>  <MolLogP>  (54) 
5.3474

>  <MolMR>  (54) 
215.4249

>  <fr_Al_COO>  (54) 
0

>  <fr_Al_OH>  (54) 
0

>  <fr_Al_OH_noTert>  (54) 
0

>  <fr_ArN>  (54) 
0

>  <fr_Ar_COO>  (54) 
0

>  <fr_Ar_N>  (54) 
2

>  <fr_Ar_NH>  (54) 
0

>  <fr_Ar_OH>  (54) 
0

>  <fr_COO>  (54) 
0

>  <fr_COO2>  (54) 
0

>  <fr_C_O>  (54) 
4

>  <fr_C_O_noCOO>  (54) 
4

>  <fr_C_S>  (54) 
0

>  <fr_HOCCN>  (54) 
0

>  <fr_Imine>  (54) 
0

>  <fr_NH0>  (54) 
3

>  <fr_NH1>  (54) 
3

>  <fr_NH2>  (54) 
0

>  <fr_N_O>  (54) 
0

>  <fr_Ndealkylation1>  (54) 
0

>  <fr_Ndealkylation2>  (54) 
0

>  <fr_Nhpyrrole>  (54) 
0

>  <fr_SH>  (54) 
0

>  <fr_aldehyde>  (54) 
0

>  <fr_alkyl_carbamate>  (54) 
1

>  <fr_alkyl_halide>  (54) 
2

>  <fr_allylic_oxid>  (54) 
0

>  <fr_amide>  (54) 
4

>  <fr_amidine>  (54) 
0

>  <fr_aniline>  (54) 
0

>  <fr_aryl_methyl>  (54) 
0

>  <fr_azide>  (54) 
0

>  <fr_azo>  (54) 
0

>  <fr_barbitur>  (54) 
0

>  <fr_benzene>  (54) 
1

>  <fr_benzodiazepine>  (54) 
0

>  <fr_bicyclic>  (54) 
5

>  <fr_diazo>  (54) 
0

>  <fr_dihydropyridine>  (54) 
0

>  <fr_epoxide>  (54) 
0

>  <fr_ester>  (54) 
0

>  <fr_ether>  (54) 
3

>  <fr_furan>  (54) 
0

>  <fr_guanido>  (54) 
0

>  <fr_halogen>  (54) 
2

>  <fr_hdrzine>  (54) 
0

>  <fr_hdrzone>  (54) 
0

>  <fr_imidazole>  (54) 
0

>  <fr_imide>  (54) 
0

>  <fr_isocyan>  (54) 
0

>  <fr_isothiocyan>  (54) 
0

>  <fr_ketone>  (54) 
0

>  <fr_ketone_Topliss>  (54) 
0

>  <fr_lactam>  (54) 
0

>  <fr_lactone>  (54) 
0

>  <fr_methoxy>  (54) 
1

>  <fr_morpholine>  (54) 
0

>  <fr_nitrile>  (54) 
0

>  <fr_nitro>  (54) 
0

>  <fr_nitro_arom>  (54) 
0

>  <fr_nitro_arom_nonortho>  (54) 
0

>  <fr_nitroso>  (54) 
0

>  <fr_oxazole>  (54) 
0

>  <fr_oxime>  (54) 
0

>  <fr_para_hydroxylation>  (54) 
0

>  <fr_phenol>  (54) 
0

>  <fr_phenol_noOrthoHbond>  (54) 
0

>  <fr_phos_acid>  (54) 
0

>  <fr_phos_ester>  (54) 
0

>  <fr_piperdine>  (54) 
0

>  <fr_piperzine>  (54) 
0

>  <fr_priamide>  (54) 
0

>  <fr_prisulfonamd>  (54) 
0

>  <fr_pyridine>  (54) 
0

>  <fr_quatN>  (54) 
0

>  <fr_sulfide>  (54) 
0

>  <fr_sulfonamd>  (54) 
1

>  <fr_sulfone>  (54) 
0

>  <fr_term_acetylene>  (54) 
0

>  <fr_tetrazole>  (54) 
0

>  <fr_thiazole>  (54) 
0

>  <fr_thiocyan>  (54) 
0

>  <fr_thiophene>  (54) 
0

>  <fr_unbrch_alkane>  (54) 
0

>  <fr_urea>  (54) 
0

>  <NP_Likeness>  (54) 
0.410462

$$$$
CHEMBL1464
     RDKit          3D

  0  0  0  0  0  0  0  0  0  0999 V3000
M  V30 BEGIN CTAB
M  V30 COUNTS 39 41 0 0 0
M  V30 BEGIN ATOM
M  V30 1 C 1.770099 -3.015500 -1.703345 0
M  V30 2 C 1.923219 -2.335453 -0.362810 0
M  V30 3 O 1.719768 -3.209914 0.462600 0
M  V30 4 C 2.256051 -0.891475 -0.371833 0
M  V30 5 C 1.132143 0.051287 -0.137930 0 CFG=1
M  V30 6 C 0.045093 -0.112917 -1.158849 0
M  V30 7 C -0.757364 -1.233293 -1.202951 0
M  V30 8 C -1.757039 -1.420907 -2.136722 0
M  V30 9 C -1.961245 -0.428950 -3.076456 0
M  V30 10 C -1.192879 0.718208 -3.087254 0
M  V30 11 C -0.225315 0.827136 -2.131158 0
M  V30 12 C 0.598535 0.188807 1.198517 0
M  V30 13 C 1.008008 -0.237454 2.442615 0
M  V30 14 O 2.194652 -0.937151 2.405297 0
M  V30 15 C 0.306504 0.011291 3.601588 0
M  V30 16 C 0.849158 -0.483325 4.768168 0
M  V30 17 C 0.183663 -0.259926 5.954888 0
M  V30 18 C -1.008411 0.455177 5.930123 0
M  V30 19 C -1.520476 0.935315 4.740076 0
M  V30 20 C -0.877360 0.727508 3.539497 0
M  V30 21 O -1.258528 1.130132 2.348443 0
M  V30 22 C -0.607956 0.903554 1.241520 0
M  V30 23 O -1.280307 1.441256 0.313888 0
M  V30 24 H 0.833624 -3.588373 -1.730698 0
M  V30 25 H 2.644719 -3.656255 -1.918344 0
M  V30 26 H 1.748593 -2.256184 -2.504993 0
M  V30 27 H 2.683328 -0.626712 -1.386714 0
M  V30 28 H 3.133512 -0.687551 0.310397 0
M  V30 29 H 1.580547 1.085876 -0.375675 0
M  V30 30 H -0.636328 -2.036211 -0.480823 0
M  V30 31 H -2.356324 -2.325086 -2.120875 0
M  V30 32 H -2.747834 -0.580260 -3.808670 0
M  V30 33 H -1.353283 1.499561 -3.827796 0
M  V30 34 H 0.370932 1.744737 -2.158914 0
M  V30 35 H 2.982741 -0.623037 2.942347 0
M  V30 36 H 1.761909 -1.038051 4.845183 0
M  V30 37 H 0.500362 -0.592710 6.933588 0
M  V30 38 H -1.650817 0.715208 6.782704 0
M  V30 39 H -2.448730 1.500839 4.667484 0
M  V30 END ATOM
M  V30 BEGIN BOND
M  V30 1 1 1 2
M  V30 2 2 2 3
M  V30 3 1 2 4
M  V30 4 1 4 5
M  V30 5 1 5 6
M  V30 6 2 6 7
M  V30 7 1 7 8
M  V30 8 2 8 9
M  V30 9 1 9 10
M  V30 10 2 10 11
M  V30 11 1 5 12
M  V30 12 2 12 13
M  V30 13 1 13 14
M  V30 14 1 13 15
M  V30 15 2 15 16
M  V30 16 1 16 17
M  V30 17 2 17 18
M  V30 18 1 18 19
M  V30 19 2 19 20
M  V30 20 1 20 21
M  V30 21 1 21 22
M  V30 22 2 22 23
M  V30 23 1 11 6
M  V30 24 1 22 12
M  V30 25 1 20 15
M  V30 26 1 1 24
M  V30 27 1 1 25
M  V30 28 1 1 26
M  V30 29 1 4 27
M  V30 30 1 4 28
M  V30 31 1 5 29 CFG=3
M  V30 32 1 7 30
M  V30 33 1 8 31
M  V30 34 1 9 32
M  V30 35 1 10 33
M  V30 36 1 11 34
M  V30 37 1 14 35
M  V30 38 1 16 36
M  V30 39 1 17 37
M  V30 40 1 18 38
M  V30 41 1 19 39
M  V30 END BOND
M  V30 END CTAB
M  END
>  <Dataset>  (55) 
OralDrugs

>  <Ligand_Instance>  (55) 
nan

>  <PDB_ID>  (55) 
nan

>  <Standardized_SMILES>  (55) 
CC(=O)CC(c1ccccc1)c1c(O)c2ccccc2oc1=O

>  <Name>  (55) 
Warfarin

>  <Pocket>  (55) 
nan

>  <ATP_Site>  (55) 
nan

>  <Peripheral>  (55) 
nan

>  <Num_H_Atoms_ProtBoundConf>  (55) 
nan

>  <Num_Resolved_Atoms>  (55) 
nan

>  <Num_Not_Resolved_Atoms>  (55) 
nan

>  <2D_Mol_H>  (55) 
<rdkit.Chem.rdchem.Mol object at 0x72a238bbd4d0>

>  <MW>  (55) 
308.333

>  <HBA>  (55) 
4

>  <HBD>  (55) 
1

>  <LogP>  (55) 
3.6096

>  <NRB>  (55) 
6

>  <TPSA>  (55) 
67.51

>  <Num_Heavy_Atoms>  (55) 
23

>  <Ro5>  (55) 
[True, True, True, True, True, True]

>  <Ro5_Fulfilled>  (55) 
True

>  <Ro3>  (55) 
[False, False, True, False]

>  <Ro3_Fulfilled>  (55) 
False

>  <Fsp3>  (55) 
0.157895

>  <Fsp3_0.42>  (55) 
False

>  <Fsp3_0.45>  (55) 
False

>  <Stereogenic_Carbons>  (55) 
1

>  <C_Atoms>  (55) 
19

>  <FCStereo>  (55) 
0.052632

>  <SPS>  (55) 
281

>  <nSPS>  (55) 
12.217391

>  <PBF>  (55) 
0.906553

>  <PBF_0.6>  (55) 
True

>  <nPBF>  (55) 
0.039415

>  <nPBF_0.016>  (55) 
True

>  <PMI1>  (55) 
1067.753733

>  <PMI2>  (55) 
2532.63539

>  <PMI3>  (55) 
3207.976403

>  <NPR1>  (55) 
0.332843

>  <NPR2>  (55) 
0.789481

>  <Sum_NPR>  (55) 
1.122324

>  <Sum_NPR_1.07>  (55) 
True

>  <Sum_NPR_1.2>  (55) 
False

>  <MaxAbsEStateIndex>  (55) 
12.412307

>  <MaxEStateIndex>  (55) 
12.412307

>  <MinAbsEStateIndex>  (55) 
0.064063

>  <MinEStateIndex>  (55) 
-0.614534

>  <qed>  (55) 
0.747626

>  <MolWt>  (55) 
308.333

>  <HeavyAtomMolWt>  (55) 
292.205

>  <ExactMolWt>  (55) 
308.104859

>  <NumValenceElectrons>  (55) 
116

>  <NumRadicalElectrons>  (55) 
0

>  <MaxPartialCharge>  (55) 
0.343366

>  <MinPartialCharge>  (55) 
-0.506592

>  <MaxAbsPartialCharge>  (55) 
0.506592

>  <MinAbsPartialCharge>  (55) 
0.343366

>  <FpDensityMorgan1>  (55) 
1.086957

>  <FpDensityMorgan2>  (55) 
1.73913

>  <FpDensityMorgan3>  (55) 
2.434783

>  <BCUT2D_MWHI>  (55) 
16.39494

>  <BCUT2D_MWLOW>  (55) 
9.86892

>  <BCUT2D_CHGHI>  (55) 
2.251678

>  <BCUT2D_CHGLO>  (55) 
-2.169199

>  <BCUT2D_LOGPHI>  (55) 
2.354357

>  <BCUT2D_LOGPLOW>  (55) 
-2.161027

>  <BCUT2D_MRHI>  (55) 
5.847714

>  <BCUT2D_MRLOW>  (55) 
-0.116735

>  <AvgIpc>  (55) 
2.541895

>  <BalabanJ>  (55) 
2.258072

>  <BertzCT>  (55) 
909.550973

>  <Chi0>  (55) 
16.396977

>  <Chi0n>  (55) 
12.652568

>  <Chi0v>  (55) 
12.652568

>  <Chi1>  (55) 
11.075387

>  <Chi1n>  (55) 
7.367289

>  <Chi1v>  (55) 
7.367289

>  <Chi2n>  (55) 
5.51737

>  <Chi2v>  (55) 
5.51737

>  <Chi3n>  (55) 
3.861854

>  <Chi3v>  (55) 
3.861854

>  <Chi4n>  (55) 
2.814558

>  <Chi4v>  (55) 
2.814558

>  <HallKierAlpha>  (55) 
-2.88

>  <Ipc>  (55) 
187785.023491

>  <Kappa1>  (55) 
15.032579

>  <Kappa2>  (55) 
6.084897

>  <Kappa3>  (55) 
2.878886

>  <LabuteASA>  (55) 
132.552025

>  <PEOE_VSA1>  (55) 
9.523678

>  <PEOE_VSA10>  (55) 
17.115777

>  <PEOE_VSA11>  (55) 
0.0

>  <PEOE_VSA12>  (55) 
0.0

>  <PEOE_VSA13>  (55) 
0.0

>  <PEOE_VSA14>  (55) 
5.625586

>  <PEOE_VSA2>  (55) 
4.794537

>  <PEOE_VSA3>  (55) 
4.794537

>  <PEOE_VSA4>  (55) 
0.0

>  <PEOE_VSA5>  (55) 
0.0

>  <PEOE_VSA6>  (55) 
42.464569

>  <PEOE_VSA7>  (55) 
24.619923

>  <PEOE_VSA8>  (55) 
12.338728

>  <PEOE_VSA9>  (55) 
10.949676

>  <SMR_VSA1>  (55) 
14.318216

>  <SMR_VSA10>  (55) 
16.752489

>  <SMR_VSA2>  (55) 
0.0

>  <SMR_VSA3>  (55) 
0.0

>  <SMR_VSA4>  (55) 
0.0

>  <SMR_VSA5>  (55) 
19.262465

>  <SMR_VSA6>  (55) 
0.0

>  <SMR_VSA7>  (55) 
76.14433

>  <SMR_VSA8>  (55) 
0.0

>  <SMR_VSA9>  (55) 
5.749512

>  <SlogP_VSA1>  (55) 
5.625586

>  <SlogP_VSA10>  (55) 
0.0

>  <SlogP_VSA11>  (55) 
5.749512

>  <SlogP_VSA12>  (55) 
0.0

>  <SlogP_VSA2>  (55) 
10.889772

>  <SlogP_VSA3>  (55) 
4.794537

>  <SlogP_VSA4>  (55) 
0.0

>  <SlogP_VSA5>  (55) 
30.389368

>  <SlogP_VSA6>  (55) 
63.808992

>  <SlogP_VSA7>  (55) 
0.0

>  <SlogP_VSA8>  (55) 
10.969244

>  <SlogP_VSA9>  (55) 
0.0

>  <EState_VSA1>  (55) 
11.543492

>  <EState_VSA10>  (55) 
14.695602

>  <EState_VSA11>  (55) 
0.0

>  <EState_VSA2>  (55) 
23.51703

>  <EState_VSA3>  (55) 
10.969244

>  <EState_VSA4>  (55) 
5.563451

>  <EState_VSA5>  (55) 
6.923737

>  <EState_VSA6>  (55) 
24.265468

>  <EState_VSA7>  (55) 
30.331835

>  <EState_VSA8>  (55) 
0.0

>  <EState_VSA9>  (55) 
4.417151

>  <VSA_EState1>  (55) 
5.33079

>  <VSA_EState10>  (55) 
0.0

>  <VSA_EState2>  (55) 
24.085016

>  <VSA_EState3>  (55) 
11.068085

>  <VSA_EState4>  (55) 
0.634603

>  <VSA_EState5>  (55) 
-0.715444

>  <VSA_EState6>  (55) 
16.003371

>  <VSA_EState7>  (55) 
0.125668

>  <VSA_EState8>  (55) 
1.467911

>  <VSA_EState9>  (55) 
0.0

>  <FractionCSP3>  (55) 
0.157895

>  <HeavyAtomCount>  (55) 
23

>  <NHOHCount>  (55) 
1

>  <NOCount>  (55) 
4

>  <NumAliphaticCarbocycles>  (55) 
0

>  <NumAliphaticHeterocycles>  (55) 
0

>  <NumAliphaticRings>  (55) 
0

>  <NumAromaticCarbocycles>  (55) 
2

>  <NumAromaticHeterocycles>  (55) 
1

>  <NumAromaticRings>  (55) 
3

>  <NumHAcceptors>  (55) 
4

>  <NumHDonors>  (55) 
1

>  <NumHeteroatoms>  (55) 
4

>  <NumRotatableBonds>  (55) 
4

>  <NumSaturatedCarbocycles>  (55) 
0

>  <NumSaturatedHeterocycles>  (55) 
0

>  <NumSaturatedRings>  (55) 
0

>  <RingCount>  (55) 
3

>  <MolLogP>  (55) 
3.6096

>  <MolMR>  (55) 
87.7318

>  <fr_Al_COO>  (55) 
0

>  <fr_Al_OH>  (55) 
0

>  <fr_Al_OH_noTert>  (55) 
0

>  <fr_ArN>  (55) 
0

>  <fr_Ar_COO>  (55) 
0

>  <fr_Ar_N>  (55) 
0

>  <fr_Ar_NH>  (55) 
0

>  <fr_Ar_OH>  (55) 
1

>  <fr_COO>  (55) 
0

>  <fr_COO2>  (55) 
0

>  <fr_C_O>  (55) 
1

>  <fr_C_O_noCOO>  (55) 
1

>  <fr_C_S>  (55) 
0

>  <fr_HOCCN>  (55) 
0

>  <fr_Imine>  (55) 
0

>  <fr_NH0>  (55) 
0

>  <fr_NH1>  (55) 
0

>  <fr_NH2>  (55) 
0

>  <fr_N_O>  (55) 
0

>  <fr_Ndealkylation1>  (55) 
0

>  <fr_Ndealkylation2>  (55) 
0

>  <fr_Nhpyrrole>  (55) 
0

>  <fr_SH>  (55) 
0

>  <fr_aldehyde>  (55) 
0

>  <fr_alkyl_carbamate>  (55) 
0

>  <fr_alkyl_halide>  (55) 
0

>  <fr_allylic_oxid>  (55) 
0

>  <fr_amide>  (55) 
0

>  <fr_amidine>  (55) 
0

>  <fr_aniline>  (55) 
0

>  <fr_aryl_methyl>  (55) 
0

>  <fr_azide>  (55) 
0

>  <fr_azo>  (55) 
0

>  <fr_barbitur>  (55) 
0

>  <fr_benzene>  (55) 
2

>  <fr_benzodiazepine>  (55) 
0

>  <fr_bicyclic>  (55) 
1

>  <fr_diazo>  (55) 
0

>  <fr_dihydropyridine>  (55) 
0

>  <fr_epoxide>  (55) 
0

>  <fr_ester>  (55) 
0

>  <fr_ether>  (55) 
0

>  <fr_furan>  (55) 
0

>  <fr_guanido>  (55) 
0

>  <fr_halogen>  (55) 
0

>  <fr_hdrzine>  (55) 
0

>  <fr_hdrzone>  (55) 
0

>  <fr_imidazole>  (55) 
0

>  <fr_imide>  (55) 
0

>  <fr_isocyan>  (55) 
0

>  <fr_isothiocyan>  (55) 
0

>  <fr_ketone>  (55) 
1

>  <fr_ketone_Topliss>  (55) 
1

>  <fr_lactam>  (55) 
0

>  <fr_lactone>  (55) 
0

>  <fr_methoxy>  (55) 
0

>  <fr_morpholine>  (55) 
0

>  <fr_nitrile>  (55) 
0

>  <fr_nitro>  (55) 
0

>  <fr_nitro_arom>  (55) 
0

>  <fr_nitro_arom_nonortho>  (55) 
0

>  <fr_nitroso>  (55) 
0

>  <fr_oxazole>  (55) 
0

>  <fr_oxime>  (55) 
0

>  <fr_para_hydroxylation>  (55) 
1

>  <fr_phenol>  (55) 
0

>  <fr_phenol_noOrthoHbond>  (55) 
0

>  <fr_phos_acid>  (55) 
0

>  <fr_phos_ester>  (55) 
0

>  <fr_piperdine>  (55) 
0

>  <fr_piperzine>  (55) 
0

>  <fr_priamide>  (55) 
0

>  <fr_prisulfonamd>  (55) 
0

>  <fr_pyridine>  (55) 
0

>  <fr_quatN>  (55) 
0

>  <fr_sulfide>  (55) 
0

>  <fr_sulfonamd>  (55) 
0

>  <fr_sulfone>  (55) 
0

>  <fr_term_acetylene>  (55) 
0

>  <fr_tetrazole>  (55) 
0

>  <fr_thiazole>  (55) 
0

>  <fr_thiocyan>  (55) 
0

>  <fr_thiophene>  (55) 
0

>  <fr_unbrch_alkane>  (55) 
0

>  <fr_urea>  (55) 
0

>  <NP_Likeness>  (55) 
0.392658

$$$$
CHEMBL502135
     RDKit          3D

  0  0  0  0  0  0  0  0  0  0999 V3000
M  V30 BEGIN CTAB
M  V30 COUNTS 20 20 0 0 0
M  V30 BEGIN ATOM
M  V30 1 O -2.144844 -0.617220 1.074832 0
M  V30 2 C -0.790384 -0.400024 1.125027 0 CFG=1
M  V30 3 O -0.104930 -1.559363 1.447284 0
M  V30 4 C 1.253181 -1.408508 1.366548 0
M  V30 5 C 1.713441 0.020135 1.315893 0 CFG=1
M  V30 6 O 3.080624 0.052717 1.145835 0
M  V30 7 C 1.109203 0.705340 0.112629 0 CFG=2
M  V30 8 O 0.976263 2.056889 0.395441 0
M  V30 9 C -0.234414 0.069319 -0.214962 0 CFG=1
M  V30 10 O -0.063474 -1.062951 -1.011152 0
M  V30 11 H -2.650530 0.217609 1.317253 0
M  V30 12 H -0.574415 0.335123 1.914716 0
M  V30 13 H 1.677424 -1.925561 0.480409 0
M  V30 14 H 1.713524 -1.914018 2.247799 0
M  V30 15 H 1.428341 0.524911 2.258376 0
M  V30 16 H 3.534434 -0.809596 1.257273 0
M  V30 17 H 1.765585 0.546685 -0.758432 0
M  V30 18 H 0.999432 2.579134 -0.451450 0
M  V30 19 H -0.935978 0.797349 -0.660513 0
M  V30 20 H -0.192388 -0.879089 -1.969369 0
M  V30 END ATOM
M  V30 BEGIN BOND
M  V30 1 1 1 2
M  V30 2 1 2 3
M  V30 3 1 3 4
M  V30 4 1 4 5
M  V30 5 1 5 6
M  V30 6 1 5 7
M  V30 7 1 7 8
M  V30 8 1 7 9
M  V30 9 1 9 10
M  V30 10 1 9 2
M  V30 11 1 1 11
M  V30 12 1 2 12 CFG=1
M  V30 13 1 4 13
M  V30 14 1 4 14
M  V30 15 1 5 15 CFG=1
M  V30 16 1 6 16
M  V30 17 1 7 17 CFG=3
M  V30 18 1 8 18
M  V30 19 1 9 19 CFG=3
M  V30 20 1 10 20
M  V30 END BOND
M  V30 END CTAB
M  END
>  <Dataset>  (56) 
OralDrugs

>  <Ligand_Instance>  (56) 
nan

>  <PDB_ID>  (56) 
nan

>  <Standardized_SMILES>  (56) 
OC1OC[C@@H](O)[C@H](O)[C@H]1O

>  <Name>  (56) 
Xylose

>  <Pocket>  (56) 
nan

>  <ATP_Site>  (56) 
nan

>  <Peripheral>  (56) 
nan

>  <Num_H_Atoms_ProtBoundConf>  (56) 
nan

>  <Num_Resolved_Atoms>  (56) 
nan

>  <Num_Not_Resolved_Atoms>  (56) 
nan

>  <2D_Mol_H>  (56) 
<rdkit.Chem.rdchem.Mol object at 0x72a238bbd5b0>

>  <MW>  (56) 
150.13

>  <HBA>  (56) 
5

>  <HBD>  (56) 
4

>  <LogP>  (56) 
-2.5823

>  <NRB>  (56) 
4

>  <TPSA>  (56) 
90.15

>  <Num_Heavy_Atoms>  (56) 
10

>  <Ro5>  (56) 
[True, True, True, True, True, True]

>  <Ro5_Fulfilled>  (56) 
True

>  <Ro3>  (56) 
[True, False, False, True]

>  <Ro3_Fulfilled>  (56) 
False

>  <Fsp3>  (56) 
1.0

>  <Fsp3_0.42>  (56) 
True

>  <Fsp3_0.45>  (56) 
True

>  <Stereogenic_Carbons>  (56) 
4

>  <C_Atoms>  (56) 
5

>  <FCStereo>  (56) 
0.8

>  <SPS>  (56) 
492

>  <nSPS>  (56) 
49.2

>  <PBF>  (56) 
0.76501

>  <PBF_0.6>  (56) 
True

>  <nPBF>  (56) 
0.076501

>  <nPBF_0.016>  (56) 
True

>  <PMI1>  (56) 
259.121477

>  <PMI2>  (56) 
428.97357

>  <PMI3>  (56) 
509.045285

>  <NPR1>  (56) 
0.509034

>  <NPR2>  (56) 
0.842702

>  <Sum_NPR>  (56) 
1.351736

>  <Sum_NPR_1.07>  (56) 
True

>  <Sum_NPR_1.2>  (56) 
True

>  <MaxAbsEStateIndex>  (56) 
8.87662

>  <MaxEStateIndex>  (56) 
8.87662

>  <MinAbsEStateIndex>  (56) 
0.15338

>  <MinEStateIndex>  (56) 
-1.413194

>  <qed>  (56) 
0.30425

>  <MolWt>  (56) 
150.13

>  <HeavyAtomMolWt>  (56) 
140.05

>  <ExactMolWt>  (56) 
150.052823

>  <NumValenceElectrons>  (56) 
60

>  <NumRadicalElectrons>  (56) 
0

>  <MaxPartialCharge>  (56) 
0.183115

>  <MinPartialCharge>  (56) 
-0.3879

>  <MaxAbsPartialCharge>  (56) 
0.3879

>  <MinAbsPartialCharge>  (56) 
0.183115

>  <FpDensityMorgan1>  (56) 
1.0

>  <FpDensityMorgan2>  (56) 
1.6

>  <FpDensityMorgan3>  (56) 
2.1

>  <BCUT2D_MWHI>  (56) 
16.627203

>  <BCUT2D_MWLOW>  (56) 
10.06334

>  <BCUT2D_CHGHI>  (56) 
2.355682

>  <BCUT2D_CHGLO>  (56) 
-2.314106

>  <BCUT2D_LOGPHI>  (56) 
2.121204

>  <BCUT2D_LOGPLOW>  (56) 
-2.521912

>  <BCUT2D_MRHI>  (56) 
4.806542

>  <BCUT2D_MRLOW>  (56) 
-0.251705

>  <AvgIpc>  (56) 
1.93216

>  <BalabanJ>  (56) 
2.515836

>  <BertzCT>  (56) 
102.605938

>  <Chi0>  (56) 
7.723615

>  <Chi0n>  (56) 
5.213611

>  <Chi0v>  (56) 
5.213611

>  <Chi1>  (56) 
4.625898

>  <Chi1n>  (56) 
2.965421

>  <Chi1v>  (56) 
2.965421

>  <Chi2n>  (56) 
2.272429

>  <Chi2v>  (56) 
2.272429

>  <Chi3n>  (56) 
1.47404

>  <Chi3v>  (56) 
1.47404

>  <Chi4n>  (56) 
0.790638

>  <Chi4v>  (56) 
0.790638

>  <HallKierAlpha>  (56) 
-0.2

>  <Ipc>  (56) 
171.962255

>  <Kappa1>  (56) 
7.902041

>  <Kappa2>  (56) 
2.811342

>  <Kappa3>  (56) 
1.277891

>  <LabuteASA>  (56) 
57.483669

>  <PEOE_VSA1>  (56) 
25.162973

>  <PEOE_VSA10>  (56) 
18.311899

>  <PEOE_VSA11>  (56) 
6.290027

>  <PEOE_VSA12>  (56) 
0.0

>  <PEOE_VSA13>  (56) 
0.0

>  <PEOE_VSA14>  (56) 
0.0

>  <PEOE_VSA2>  (56) 
0.0

>  <PEOE_VSA3>  (56) 
0.0

>  <PEOE_VSA4>  (56) 
0.0

>  <PEOE_VSA5>  (56) 
0.0

>  <PEOE_VSA6>  (56) 
0.0

>  <PEOE_VSA7>  (56) 
0.0

>  <PEOE_VSA8>  (56) 
0.0

>  <PEOE_VSA9>  (56) 
6.606882

>  <SMR_VSA1>  (56) 
25.162973

>  <SMR_VSA10>  (56) 
0.0

>  <SMR_VSA2>  (56) 
0.0

>  <SMR_VSA3>  (56) 
0.0

>  <SMR_VSA4>  (56) 
0.0

>  <SMR_VSA5>  (56) 
24.601926

>  <SMR_VSA6>  (56) 
6.606882

>  <SMR_VSA7>  (56) 
0.0

>  <SMR_VSA8>  (56) 
0.0

>  <SMR_VSA9>  (56) 
0.0

>  <SlogP_VSA1>  (56) 
0.0

>  <SlogP_VSA10>  (56) 
0.0

>  <SlogP_VSA11>  (56) 
0.0

>  <SlogP_VSA12>  (56) 
0.0

>  <SlogP_VSA2>  (56) 
51.634917

>  <SlogP_VSA3>  (56) 
4.736863

>  <SlogP_VSA4>  (56) 
0.0

>  <SlogP_VSA5>  (56) 
0.0

>  <SlogP_VSA6>  (56) 
0.0

>  <SlogP_VSA7>  (56) 
0.0

>  <SlogP_VSA8>  (56) 
0.0

>  <SlogP_VSA9>  (56) 
0.0

>  <EState_VSA1>  (56) 
24.601926

>  <EState_VSA10>  (56) 
0.0

>  <EState_VSA11>  (56) 
0.0

>  <EState_VSA2>  (56) 
6.606882

>  <EState_VSA3>  (56) 
0.0

>  <EState_VSA4>  (56) 
0.0

>  <EState_VSA5>  (56) 
0.0

>  <EState_VSA6>  (56) 
0.0

>  <EState_VSA7>  (56) 
0.0

>  <EState_VSA8>  (56) 
4.736863

>  <EState_VSA9>  (56) 
20.42611

>  <VSA_EState1>  (56) 
4.468287

>  <VSA_EState10>  (56) 
0.0

>  <VSA_EState2>  (56) 
0.0

>  <VSA_EState3>  (56) 
35.250556

>  <VSA_EState4>  (56) 
0.0

>  <VSA_EState5>  (56) 
0.0

>  <VSA_EState6>  (56) 
0.0

>  <VSA_EState7>  (56) 
-5.23213

>  <VSA_EState8>  (56) 
-0.15338

>  <VSA_EState9>  (56) 
0.0

>  <FractionCSP3>  (56) 
1.0

>  <HeavyAtomCount>  (56) 
10

>  <NHOHCount>  (56) 
4

>  <NOCount>  (56) 
5

>  <NumAliphaticCarbocycles>  (56) 
0

>  <NumAliphaticHeterocycles>  (56) 
1

>  <NumAliphaticRings>  (56) 
1

>  <NumAromaticCarbocycles>  (56) 
0

>  <NumAromaticHeterocycles>  (56) 
0

>  <NumAromaticRings>  (56) 
0

>  <NumHAcceptors>  (56) 
5

>  <NumHDonors>  (56) 
4

>  <NumHeteroatoms>  (56) 
5

>  <NumRotatableBonds>  (56) 
0

>  <NumSaturatedCarbocycles>  (56) 
0

>  <NumSaturatedHeterocycles>  (56) 
1

>  <NumSaturatedRings>  (56) 
1

>  <RingCount>  (56) 
1

>  <MolLogP>  (56) 
-2.5823

>  <MolMR>  (56) 
29.9792

>  <fr_Al_COO>  (56) 
0

>  <fr_Al_OH>  (56) 
4

>  <fr_Al_OH_noTert>  (56) 
4

>  <fr_ArN>  (56) 
0

>  <fr_Ar_COO>  (56) 
0

>  <fr_Ar_N>  (56) 
0

>  <fr_Ar_NH>  (56) 
0

>  <fr_Ar_OH>  (56) 
0

>  <fr_COO>  (56) 
0

>  <fr_COO2>  (56) 
0

>  <fr_C_O>  (56) 
0

>  <fr_C_O_noCOO>  (56) 
0

>  <fr_C_S>  (56) 
0

>  <fr_HOCCN>  (56) 
0

>  <fr_Imine>  (56) 
0

>  <fr_NH0>  (56) 
0

>  <fr_NH1>  (56) 
0

>  <fr_NH2>  (56) 
0

>  <fr_N_O>  (56) 
0

>  <fr_Ndealkylation1>  (56) 
0

>  <fr_Ndealkylation2>  (56) 
0

>  <fr_Nhpyrrole>  (56) 
0

>  <fr_SH>  (56) 
0

>  <fr_aldehyde>  (56) 
0

>  <fr_alkyl_carbamate>  (56) 
0

>  <fr_alkyl_halide>  (56) 
0

>  <fr_allylic_oxid>  (56) 
0

>  <fr_amide>  (56) 
0

>  <fr_amidine>  (56) 
0

>  <fr_aniline>  (56) 
0

>  <fr_aryl_methyl>  (56) 
0

>  <fr_azide>  (56) 
0

>  <fr_azo>  (56) 
0

>  <fr_barbitur>  (56) 
0

>  <fr_benzene>  (56) 
0

>  <fr_benzodiazepine>  (56) 
0

>  <fr_bicyclic>  (56) 
0

>  <fr_diazo>  (56) 
0

>  <fr_dihydropyridine>  (56) 
0

>  <fr_epoxide>  (56) 
0

>  <fr_ester>  (56) 
0

>  <fr_ether>  (56) 
1

>  <fr_furan>  (56) 
0

>  <fr_guanido>  (56) 
0

>  <fr_halogen>  (56) 
0

>  <fr_hdrzine>  (56) 
0

>  <fr_hdrzone>  (56) 
0

>  <fr_imidazole>  (56) 
0

>  <fr_imide>  (56) 
0

>  <fr_isocyan>  (56) 
0

>  <fr_isothiocyan>  (56) 
0

>  <fr_ketone>  (56) 
0

>  <fr_ketone_Topliss>  (56) 
0

>  <fr_lactam>  (56) 
0

>  <fr_lactone>  (56) 
0

>  <fr_methoxy>  (56) 
0

>  <fr_morpholine>  (56) 
0

>  <fr_nitrile>  (56) 
0

>  <fr_nitro>  (56) 
0

>  <fr_nitro_arom>  (56) 
0

>  <fr_nitro_arom_nonortho>  (56) 
0

>  <fr_nitroso>  (56) 
0

>  <fr_oxazole>  (56) 
0

>  <fr_oxime>  (56) 
0

>  <fr_para_hydroxylation>  (56) 
0

>  <fr_phenol>  (56) 
0

>  <fr_phenol_noOrthoHbond>  (56) 
0

>  <fr_phos_acid>  (56) 
0

>  <fr_phos_ester>  (56) 
0

>  <fr_piperdine>  (56) 
0

>  <fr_piperzine>  (56) 
0

>  <fr_priamide>  (56) 
0

>  <fr_prisulfonamd>  (56) 
0

>  <fr_pyridine>  (56) 
0

>  <fr_quatN>  (56) 
0

>  <fr_sulfide>  (56) 
0

>  <fr_sulfonamd>  (56) 
0

>  <fr_sulfone>  (56) 
0

>  <fr_term_acetylene>  (56) 
0

>  <fr_tetrazole>  (56) 
0

>  <fr_thiazole>  (56) 
0

>  <fr_thiocyan>  (56) 
0

>  <fr_thiophene>  (56) 
0

>  <fr_unbrch_alkane>  (56) 
0

>  <fr_urea>  (56) 
0

>  <NP_Likeness>  (56) 
2.511853

$$$$
CHEMBL603
     RDKit          3D

  0  0  0  0  0  0  0  0  0  0999 V3000
M  V30 BEGIN CTAB
M  V30 COUNTS 74 78 0 0 0
M  V30 BEGIN ATOM
M  V30 1 C 1.670690 0.499466 4.678566 0
M  V30 2 O 1.666497 -0.612229 3.819882 0
M  V30 3 C 1.645709 -0.542002 2.433607 0
M  V30 4 C 1.628274 0.717876 1.866892 0
M  V30 5 C 1.607741 0.836511 0.493385 0
M  V30 6 C 1.586812 2.115764 -0.221945 0
M  V30 7 O 1.575602 2.245615 -1.486775 0
M  V30 8 N 1.576209 3.380568 0.440647 0
M  V30 9 S 1.551488 4.740575 -0.639391 0
M  V30 10 O 2.895636 4.706697 -1.353757 0
M  V30 11 O 0.496570 4.645329 -1.673329 0
M  V30 12 C 1.533699 6.232889 0.259665 0
M  V30 13 C 2.492255 7.219515 0.187306 0
M  V30 14 C 2.347640 8.369705 0.970028 0
M  V30 15 C 1.266006 8.537752 1.812864 0
M  V30 16 C 0.315970 7.530742 1.867252 0
M  V30 17 C 0.439246 6.384645 1.101742 0
M  V30 18 C -0.635271 5.370589 1.236861 0
M  V30 19 C 1.603903 -0.290492 -0.335565 0
M  V30 20 C 1.621933 -1.539212 0.278288 0
M  V30 21 C 1.643244 -1.714029 1.666050 0
M  V30 22 C 1.661899 -3.048834 2.297845 0
M  V30 23 C 0.344471 -3.428563 2.858412 0
M  V30 24 C -0.005040 -3.417790 4.199153 0
M  V30 25 N -1.291138 -3.824184 4.343739 0
M  V30 26 C -1.997366 -3.937051 5.604858 0
M  V30 27 C -1.744929 -4.087925 3.105044 0
M  V30 28 C -2.968614 -4.530524 2.647776 0
M  V30 29 C -3.198360 -4.730680 1.309388 0
M  V30 30 C -2.245631 -4.508949 0.352540 0
M  V30 31 N -2.571614 -4.741366 -1.001667 0
M  V30 32 C -1.761672 -4.590882 -2.147466 0
M  V30 33 O -0.586647 -4.205429 -2.040697 0
M  V30 34 O -2.158191 -4.840524 -3.447157 0
M  V30 35 C -1.320161 -4.678763 -4.555305 0
M  V30 36 C -1.125809 -5.945222 -5.339972 0
M  V30 37 C -1.706898 -5.720120 -6.708687 0
M  V30 38 C -2.150857 -4.281992 -6.793306 0
M  V30 39 C -1.809910 -3.611138 -5.501630 0
M  V30 40 C -1.043154 -4.069329 0.852294 0
M  V30 41 C -0.757158 -3.851743 2.178225 0
M  V30 42 H 0.729358 1.073236 4.603986 0
M  V30 43 H 1.778518 0.111723 5.712877 0
M  V30 44 H 2.530715 1.180607 4.506589 0
M  V30 45 H 1.629896 1.620502 2.462155 0
M  V30 46 H 1.583825 3.409292 1.485861 0
M  V30 47 H 3.322918 7.046285 -0.486328 0
M  V30 48 H 3.099573 9.134274 0.907759 0
M  V30 49 H 1.163603 9.439027 2.418493 0
M  V30 50 H -0.544063 7.658042 2.533676 0
M  V30 51 H -0.837881 5.052670 2.264666 0
M  V30 52 H -0.502914 4.533121 0.511081 0
M  V30 53 H -1.578909 5.876825 0.876680 0
M  V30 54 H 1.588053 -0.214989 -1.396319 0
M  V30 55 H 1.619108 -2.408895 -0.366778 0
M  V30 56 H 1.974691 -3.803607 1.575242 0
M  V30 57 H 2.409526 -3.049648 3.124132 0
M  V30 58 H 0.700275 -3.114717 4.980562 0
M  V30 59 H -1.289341 -4.044589 6.446830 0
M  V30 60 H -2.626642 -3.038044 5.761910 0
M  V30 61 H -2.698097 -4.803283 5.577288 0
M  V30 62 H -3.781763 -4.732133 3.325787 0
M  V30 63 H -4.190334 -5.084568 0.989926 0
M  V30 64 H -3.523207 -5.069899 -1.257196 0
M  V30 65 H -0.329372 -4.331126 -4.184295 0
M  V30 66 H -0.052705 -6.239440 -5.457701 0
M  V30 67 H -1.613782 -6.813643 -4.821988 0
M  V30 68 H -0.965031 -5.888751 -7.519150 0
M  V30 69 H -2.554106 -6.432297 -6.928712 0
M  V30 70 H -3.251742 -4.189180 -6.958716 0
M  V30 71 H -1.667359 -3.732188 -7.616470 0
M  V30 72 H -2.684381 -3.102443 -5.030543 0
M  V30 73 H -1.063249 -2.774587 -5.637611 0
M  V30 74 H -0.232043 -3.868047 0.172115 0
M  V30 END ATOM
M  V30 BEGIN BOND
M  V30 1 1 1 2
M  V30 2 1 2 3
M  V30 3 2 3 4
M  V30 4 1 4 5
M  V30 5 1 5 6
M  V30 6 2 6 7
M  V30 7 1 6 8
M  V30 8 1 8 9
M  V30 9 2 9 10
M  V30 10 2 9 11
M  V30 11 1 9 12
M  V30 12 2 12 13
M  V30 13 1 13 14
M  V30 14 2 14 15
M  V30 15 1 15 16
M  V30 16 2 16 17
M  V30 17 1 17 18
M  V30 18 2 5 19
M  V30 19 1 19 20
M  V30 20 2 20 21
M  V30 21 1 21 22
M  V30 22 1 22 23
M  V30 23 2 23 24
M  V30 24 1 24 25
M  V30 25 1 25 26
M  V30 26 1 25 27
M  V30 27 2 27 28
M  V30 28 1 28 29
M  V30 29 2 29 30
M  V30 30 1 30 31
M  V30 31 1 31 32
M  V30 32 2 32 33
M  V30 33 1 32 34
M  V30 34 1 34 35
M  V30 35 1 35 36
M  V30 36 1 36 37
M  V30 37 1 37 38
M  V30 38 1 38 39
M  V30 39 1 30 40
M  V30 40 2 40 41
M  V30 41 1 21 3
M  V30 42 1 41 23
M  V30 43 1 17 12
M  V30 44 1 41 27
M  V30 45 1 39 35
M  V30 46 1 1 42
M  V30 47 1 1 43
M  V30 48 1 1 44
M  V30 49 1 4 45
M  V30 50 1 8 46
M  V30 51 1 13 47
M  V30 52 1 14 48
M  V30 53 1 15 49
M  V30 54 1 16 50
M  V30 55 1 18 51
M  V30 56 1 18 52
M  V30 57 1 18 53
M  V30 58 1 19 54
M  V30 59 1 20 55
M  V30 60 1 22 56
M  V30 61 1 22 57
M  V30 62 1 24 58
M  V30 63 1 26 59
M  V30 64 1 26 60
M  V30 65 1 26 61
M  V30 66 1 28 62
M  V30 67 1 29 63
M  V30 68 1 31 64
M  V30 69 1 35 65
M  V30 70 1 36 66
M  V30 71 1 36 67
M  V30 72 1 37 68
M  V30 73 1 37 69
M  V30 74 1 38 70
M  V30 75 1 38 71
M  V30 76 1 39 72
M  V30 77 1 39 73
M  V30 78 1 40 74
M  V30 END BOND
M  V30 END CTAB
M  END
>  <Dataset>  (57) 
OralDrugs

>  <Ligand_Instance>  (57) 
nan

>  <PDB_ID>  (57) 
nan

>  <Standardized_SMILES>  (57) 
COc1cc(C(=O)NS(=O)(=O)c2ccccc2C)ccc1Cc1cn(C)c2ccc(NC(=O)OC3CCCC3)cc12

>  <Name>  (57) 
Zafirlukast

>  <Pocket>  (57) 
nan

>  <ATP_Site>  (57) 
nan

>  <Peripheral>  (57) 
nan

>  <Num_H_Atoms_ProtBoundConf>  (57) 
nan

>  <Num_Resolved_Atoms>  (57) 
nan

>  <Num_Not_Resolved_Atoms>  (57) 
nan

>  <2D_Mol_H>  (57) 
<rdkit.Chem.rdchem.Mol object at 0x72a238bbd690>

>  <MW>  (57) 
575.687

>  <HBA>  (57) 
7

>  <HBD>  (57) 
2

>  <LogP>  (57) 
5.69592

>  <NRB>  (57) 
11

>  <TPSA>  (57) 
115.73

>  <Num_Heavy_Atoms>  (57) 
41

>  <Ro5>  (57) 
[False, True, True, False, False, True]

>  <Ro5_Fulfilled>  (57) 
False

>  <Ro3>  (57) 
[False, False, True, False]

>  <Ro3_Fulfilled>  (57) 
False

>  <Fsp3>  (57) 
0.290323

>  <Fsp3_0.42>  (57) 
False

>  <Fsp3_0.45>  (57) 
False

>  <Stereogenic_Carbons>  (57) 
0

>  <C_Atoms>  (57) 
31

>  <FCStereo>  (57) 
0.0

>  <SPS>  (57) 
563

>  <nSPS>  (57) 
13.731707

>  <PBF>  (57) 
1.224858

>  <PBF_0.6>  (57) 
True

>  <nPBF>  (57) 
0.029875

>  <nPBF_0.016>  (57) 
True

>  <PMI1>  (57) 
5695.253899

>  <PMI2>  (57) 
13726.5647

>  <PMI3>  (57) 
17816.326612

>  <NPR1>  (57) 
0.319665

>  <NPR2>  (57) 
0.770449

>  <Sum_NPR>  (57) 
1.090114

>  <Sum_NPR_1.07>  (57) 
True

>  <Sum_NPR_1.2>  (57) 
False

>  <MaxAbsEStateIndex>  (57) 
12.901306

>  <MaxEStateIndex>  (57) 
12.901306

>  <MinAbsEStateIndex>  (57) 
0.022131

>  <MinEStateIndex>  (57) 
-4.039915

>  <qed>  (57) 
0.278693

>  <MolWt>  (57) 
575.687

>  <HeavyAtomMolWt>  (57) 
542.423

>  <ExactMolWt>  (57) 
575.209007

>  <NumValenceElectrons>  (57) 
214

>  <NumRadicalElectrons>  (57) 
0

>  <MaxPartialCharge>  (57) 
0.411391

>  <MinPartialCharge>  (57) 
-0.496439

>  <MaxAbsPartialCharge>  (57) 
0.496439

>  <MinAbsPartialCharge>  (57) 
0.411391

>  <FpDensityMorgan1>  (57) 
1.0

>  <FpDensityMorgan2>  (57) 
1.756098

>  <FpDensityMorgan3>  (57) 
2.487805

>  <BCUT2D_MWHI>  (57) 
32.233274

>  <BCUT2D_MWLOW>  (57) 
10.010005

>  <BCUT2D_CHGHI>  (57) 
2.221445

>  <BCUT2D_CHGLO>  (57) 
-2.129513

>  <BCUT2D_LOGPHI>  (57) 
2.301737

>  <BCUT2D_LOGPLOW>  (57) 
-2.306371

>  <BCUT2D_MRHI>  (57) 
7.897503

>  <BCUT2D_MRLOW>  (57) 
0.098027

>  <AvgIpc>  (57) 
3.555863

>  <BalabanJ>  (57) 
1.350689

>  <BertzCT>  (57) 
1721.201688

>  <Chi0>  (57) 
29.147689

>  <Chi0n>  (57) 
23.268689

>  <Chi0v>  (57) 
24.085185

>  <Chi1>  (57) 
19.640199

>  <Chi1n>  (57) 
13.496745

>  <Chi1v>  (57) 
14.979908

>  <Chi2n>  (57) 
10.337468

>  <Chi2v>  (57) 
11.988292

>  <Chi3n>  (57) 
7.43462

>  <Chi3v>  (57) 
8.925833

>  <Chi4n>  (57) 
5.328072

>  <Chi4v>  (57) 
6.549593

>  <HallKierAlpha>  (57) 
-4.31

>  <Ipc>  (57) 
1711400272.135766

>  <Kappa1>  (57) 
28.227046

>  <Kappa2>  (57) 
11.660599

>  <Kappa3>  (57) 
6.221701

>  <LabuteASA>  (57) 
239.065555

>  <PEOE_VSA1>  (57) 
14.040826

>  <PEOE_VSA10>  (57) 
11.853478

>  <PEOE_VSA11>  (57) 
0.0

>  <PEOE_VSA12>  (57) 
0.0

>  <PEOE_VSA13>  (57) 
15.930471

>  <PEOE_VSA14>  (57) 
6.09324

>  <PEOE_VSA2>  (57) 
10.111326

>  <PEOE_VSA3>  (57) 
17.934429

>  <PEOE_VSA4>  (57) 
0.0

>  <PEOE_VSA5>  (57) 
0.0

>  <PEOE_VSA6>  (57) 
24.265468

>  <PEOE_VSA7>  (57) 
85.695581

>  <PEOE_VSA8>  (57) 
41.8191

>  <PEOE_VSA9>  (57) 
12.005281

>  <SMR_VSA1>  (57) 
27.480597

>  <SMR_VSA10>  (57) 
38.614022

>  <SMR_VSA2>  (57) 
0.0

>  <SMR_VSA3>  (57) 
9.289195

>  <SMR_VSA4>  (57) 
7.047672

>  <SMR_VSA5>  (57) 
50.027295

>  <SMR_VSA6>  (57) 
12.426586

>  <SMR_VSA7>  (57) 
89.11432

>  <SMR_VSA8>  (57) 
0.0

>  <SMR_VSA9>  (57) 
5.749512

>  <SlogP_VSA1>  (57) 
14.775746

>  <SlogP_VSA10>  (57) 
10.481923

>  <SlogP_VSA11>  (57) 
5.749512

>  <SlogP_VSA12>  (57) 
0.0

>  <SlogP_VSA2>  (57) 
38.19908

>  <SlogP_VSA3>  (57) 
28.228648

>  <SlogP_VSA4>  (57) 
6.923737

>  <SlogP_VSA5>  (57) 
52.73163

>  <SlogP_VSA6>  (57) 
71.755998

>  <SlogP_VSA7>  (57) 
0.0

>  <SlogP_VSA8>  (57) 
10.902925

>  <SlogP_VSA9>  (57) 
0.0

>  <EState_VSA1>  (57) 
22.023711

>  <EState_VSA10>  (57) 
18.006871

>  <EState_VSA11>  (57) 
0.0

>  <EState_VSA2>  (57) 
16.562901

>  <EState_VSA3>  (57) 
23.421171

>  <EState_VSA4>  (57) 
47.713114

>  <EState_VSA5>  (57) 
19.242532

>  <EState_VSA6>  (57) 
37.255573

>  <EState_VSA7>  (57) 
36.010716

>  <EState_VSA8>  (57) 
10.038883

>  <EState_VSA9>  (57) 
9.473726

>  <VSA_EState1>  (57) 
40.904588

>  <VSA_EState10>  (57) 
0.0

>  <VSA_EState2>  (57) 
25.365602

>  <VSA_EState3>  (57) 
3.80667

>  <VSA_EState4>  (57) 
4.144406

>  <VSA_EState5>  (57) 
-0.290895

>  <VSA_EState6>  (57) 
17.066331

>  <VSA_EState7>  (57) 
5.997774

>  <VSA_EState8>  (57) 
1.671903

>  <VSA_EState9>  (57) 
-0.583046

>  <FractionCSP3>  (57) 
0.290323

>  <HeavyAtomCount>  (57) 
41

>  <NHOHCount>  (57) 
2

>  <NOCount>  (57) 
9

>  <NumAliphaticCarbocycles>  (57) 
1

>  <NumAliphaticHeterocycles>  (57) 
0

>  <NumAliphaticRings>  (57) 
1

>  <NumAromaticCarbocycles>  (57) 
3

>  <NumAromaticHeterocycles>  (57) 
1

>  <NumAromaticRings>  (57) 
4

>  <NumHAcceptors>  (57) 
7

>  <NumHDonors>  (57) 
2

>  <NumHeteroatoms>  (57) 
10

>  <NumRotatableBonds>  (57) 
8

>  <NumSaturatedCarbocycles>  (57) 
1

>  <NumSaturatedHeterocycles>  (57) 
0

>  <NumSaturatedRings>  (57) 
1

>  <RingCount>  (57) 
5

>  <MolLogP>  (57) 
5.69592

>  <MolMR>  (57) 
156.9097

>  <fr_Al_COO>  (57) 
0

>  <fr_Al_OH>  (57) 
0

>  <fr_Al_OH_noTert>  (57) 
0

>  <fr_ArN>  (57) 
0

>  <fr_Ar_COO>  (57) 
0

>  <fr_Ar_N>  (57) 
1

>  <fr_Ar_NH>  (57) 
0

>  <fr_Ar_OH>  (57) 
0

>  <fr_COO>  (57) 
0

>  <fr_COO2>  (57) 
0

>  <fr_C_O>  (57) 
2

>  <fr_C_O_noCOO>  (57) 
2

>  <fr_C_S>  (57) 
0

>  <fr_HOCCN>  (57) 
0

>  <fr_Imine>  (57) 
0

>  <fr_NH0>  (57) 
1

>  <fr_NH1>  (57) 
2

>  <fr_NH2>  (57) 
0

>  <fr_N_O>  (57) 
0

>  <fr_Ndealkylation1>  (57) 
0

>  <fr_Ndealkylation2>  (57) 
0

>  <fr_Nhpyrrole>  (57) 
0

>  <fr_SH>  (57) 
0

>  <fr_aldehyde>  (57) 
0

>  <fr_alkyl_carbamate>  (57) 
0

>  <fr_alkyl_halide>  (57) 
0

>  <fr_allylic_oxid>  (57) 
0

>  <fr_amide>  (57) 
2

>  <fr_amidine>  (57) 
0

>  <fr_aniline>  (57) 
1

>  <fr_aryl_methyl>  (57) 
2

>  <fr_azide>  (57) 
0

>  <fr_azo>  (57) 
0

>  <fr_barbitur>  (57) 
0

>  <fr_benzene>  (57) 
3

>  <fr_benzodiazepine>  (57) 
0

>  <fr_bicyclic>  (57) 
1

>  <fr_diazo>  (57) 
0

>  <fr_dihydropyridine>  (57) 
0

>  <fr_epoxide>  (57) 
0

>  <fr_ester>  (57) 
0

>  <fr_ether>  (57) 
2

>  <fr_furan>  (57) 
0

>  <fr_guanido>  (57) 
0

>  <fr_halogen>  (57) 
0

>  <fr_hdrzine>  (57) 
0

>  <fr_hdrzone>  (57) 
0

>  <fr_imidazole>  (57) 
0

>  <fr_imide>  (57) 
0

>  <fr_isocyan>  (57) 
0

>  <fr_isothiocyan>  (57) 
0

>  <fr_ketone>  (57) 
0

>  <fr_ketone_Topliss>  (57) 
0

>  <fr_lactam>  (57) 
0

>  <fr_lactone>  (57) 
0

>  <fr_methoxy>  (57) 
1

>  <fr_morpholine>  (57) 
0

>  <fr_nitrile>  (57) 
0

>  <fr_nitro>  (57) 
0

>  <fr_nitro_arom>  (57) 
0

>  <fr_nitro_arom_nonortho>  (57) 
0

>  <fr_nitroso>  (57) 
0

>  <fr_oxazole>  (57) 
0

>  <fr_oxime>  (57) 
0

>  <fr_para_hydroxylation>  (57) 
0

>  <fr_phenol>  (57) 
0

>  <fr_phenol_noOrthoHbond>  (57) 
0

>  <fr_phos_acid>  (57) 
0

>  <fr_phos_ester>  (57) 
0

>  <fr_piperdine>  (57) 
0

>  <fr_piperzine>  (57) 
0

>  <fr_priamide>  (57) 
0

>  <fr_prisulfonamd>  (57) 
0

>  <fr_pyridine>  (57) 
0

>  <fr_quatN>  (57) 
0

>  <fr_sulfide>  (57) 
0

>  <fr_sulfonamd>  (57) 
1

>  <fr_sulfone>  (57) 
0

>  <fr_term_acetylene>  (57) 
0

>  <fr_tetrazole>  (57) 
0

>  <fr_thiazole>  (57) 
0

>  <fr_thiocyan>  (57) 
0

>  <fr_thiophene>  (57) 
0

>  <fr_unbrch_alkane>  (57) 
0

>  <fr_urea>  (57) 
0

>  <NP_Likeness>  (57) 
-0.946898

$$$$
CHEMBL1521
     RDKit          3D

  0  0  0  0  0  0  0  0  0  0999 V3000
M  V30 BEGIN CTAB
M  V30 COUNTS 38 40 0 0 0
M  V30 BEGIN ATOM
M  V30 1 C -1.111825 -3.775817 0.608993 0
M  V30 2 C -0.246054 -3.709250 -0.625839 0
M  V30 3 N 0.904517 -2.849731 -0.384513 0
M  V30 4 C 2.153986 -3.289163 0.126555 0
M  V30 5 C 3.267318 -4.108921 0.659649 0
M  V30 6 O 2.432013 -2.049435 -0.002443 0
M  V30 7 C 0.893626 -1.446210 -0.642867 0
M  V30 8 C 1.274670 -0.970361 -1.886839 0
M  V30 9 C 1.288722 0.384857 -2.210096 0
M  V30 10 C 0.908731 1.307662 -1.259311 0
M  V30 11 C 0.530968 0.823609 -0.023501 0
M  V30 12 C 0.120611 1.801580 1.007089 0
M  V30 13 C 0.918807 2.919187 1.149172 0
M  V30 14 C 0.571071 3.856911 2.099967 0
M  V30 15 N -0.527742 3.628469 2.835651 0
M  V30 16 C -1.271757 2.521396 2.656775 0
M  V30 17 C -2.421173 2.111349 3.304719 0
M  V30 18 C -3.080059 2.844322 4.364264 0
M  V30 19 N -3.605465 3.437875 5.217575 0
M  V30 20 C -2.800727 0.888578 2.745717 0
M  V30 21 N -1.879191 0.598096 1.786045 0
M  V30 22 N -0.984387 1.555869 1.735552 0
M  V30 23 C 0.514137 -0.514828 0.304628 0
M  V30 24 H -0.592423 -3.463979 1.530825 0
M  V30 25 H -1.408964 -4.848870 0.739559 0
M  V30 26 H -2.033128 -3.164358 0.436371 0
M  V30 27 H -0.832261 -3.317986 -1.465695 0
M  V30 28 H 0.172639 -4.711378 -0.877579 0
M  V30 29 H 3.138053 -5.196231 0.524765 0
M  V30 30 H 4.176900 -3.819209 0.093526 0
M  V30 31 H 3.365094 -3.947893 1.758721 0
M  V30 32 H 1.574083 -1.696758 -2.636171 0
M  V30 33 H 1.600425 0.700187 -3.212356 0
M  V30 34 H 0.905066 2.373107 -1.469236 0
M  V30 35 H 1.799151 3.089085 0.550430 0
M  V30 36 H 1.207584 4.734557 2.203602 0
M  V30 37 H -3.660926 0.337570 3.057079 0
M  V30 38 H 0.212627 -0.855022 1.281398 0
M  V30 END ATOM
M  V30 BEGIN BOND
M  V30 1 1 1 2
M  V30 2 1 2 3
M  V30 3 1 3 4
M  V30 4 1 4 5
M  V30 5 2 4 6
M  V30 6 1 3 7
M  V30 7 2 7 8
M  V30 8 1 8 9
M  V30 9 2 9 10
M  V30 10 1 10 11
M  V30 11 1 11 12
M  V30 12 2 12 13
M  V30 13 1 13 14
M  V30 14 2 14 15
M  V30 15 1 15 16
M  V30 16 2 16 17
M  V30 17 1 17 18
M  V30 18 3 18 19
M  V30 19 1 17 20
M  V30 20 2 20 21
M  V30 21 1 21 22
M  V30 22 2 11 23
M  V30 23 1 23 7
M  V30 24 1 22 12
M  V30 25 1 22 16
M  V30 26 1 1 24
M  V30 27 1 1 25
M  V30 28 1 1 26
M  V30 29 1 2 27
M  V30 30 1 2 28
M  V30 31 1 5 29
M  V30 32 1 5 30
M  V30 33 1 5 31
M  V30 34 1 8 32
M  V30 35 1 9 33
M  V30 36 1 10 34
M  V30 37 1 13 35
M  V30 38 1 14 36
M  V30 39 1 20 37
M  V30 40 1 23 38
M  V30 END BOND
M  V30 END CTAB
M  END
>  <Dataset>  (58) 
OralDrugs

>  <Ligand_Instance>  (58) 
nan

>  <PDB_ID>  (58) 
nan

>  <Standardized_SMILES>  (58) 
CCN(C(C)=O)c1cccc(-c2ccnc3c(C#N)cnn23)c1

>  <Name>  (58) 
Zaleplon

>  <Pocket>  (58) 
nan

>  <ATP_Site>  (58) 
nan

>  <Peripheral>  (58) 
nan

>  <Num_H_Atoms_ProtBoundConf>  (58) 
nan

>  <Num_Resolved_Atoms>  (58) 
nan

>  <Num_Not_Resolved_Atoms>  (58) 
nan

>  <2D_Mol_H>  (58) 
<rdkit.Chem.rdchem.Mol object at 0x72a238bbd770>

>  <MW>  (58) 
305.341

>  <HBA>  (58) 
5

>  <HBD>  (58) 
0

>  <LogP>  (58) 
2.64078

>  <NRB>  (58) 
5

>  <TPSA>  (58) 
74.29

>  <Num_Heavy_Atoms>  (58) 
23

>  <Ro5>  (58) 
[True, True, True, True, True, True]

>  <Ro5_Fulfilled>  (58) 
True

>  <Ro3>  (58) 
[False, False, True, True]

>  <Ro3_Fulfilled>  (58) 
False

>  <Fsp3>  (58) 
0.176471

>  <Fsp3_0.42>  (58) 
False

>  <Fsp3_0.45>  (58) 
False

>  <Stereogenic_Carbons>  (58) 
0

>  <C_Atoms>  (58) 
17

>  <FCStereo>  (58) 
0.0

>  <SPS>  (58) 
241

>  <nSPS>  (58) 
10.478261

>  <PBF>  (58) 
0.995201

>  <PBF_0.6>  (58) 
True

>  <nPBF>  (58) 
0.04327

>  <nPBF_0.016>  (58) 
True

>  <PMI1>  (58) 
1039.986063

>  <PMI2>  (58) 
3329.97513

>  <PMI3>  (58) 
3855.273952

>  <NPR1>  (58) 
0.269757

>  <NPR2>  (58) 
0.863745

>  <Sum_NPR>  (58) 
1.133502

>  <Sum_NPR_1.07>  (58) 
True

>  <Sum_NPR_1.2>  (58) 
False

>  <MaxAbsEStateIndex>  (58) 
11.740122

>  <MaxEStateIndex>  (58) 
11.740122

>  <MinAbsEStateIndex>  (58) 
0.004277

>  <MinEStateIndex>  (58) 
-0.004277

>  <qed>  (58) 
0.745264

>  <MolWt>  (58) 
305.341

>  <HeavyAtomMolWt>  (58) 
290.221

>  <ExactMolWt>  (58) 
305.12766

>  <NumValenceElectrons>  (58) 
114

>  <NumRadicalElectrons>  (58) 
0

>  <MaxPartialCharge>  (58) 
0.223345

>  <MinPartialCharge>  (58) 
-0.312933

>  <MaxAbsPartialCharge>  (58) 
0.312933

>  <MinAbsPartialCharge>  (58) 
0.223345

>  <FpDensityMorgan1>  (58) 
1.391304

>  <FpDensityMorgan2>  (58) 
2.217391

>  <FpDensityMorgan3>  (58) 
2.913043

>  <BCUT2D_MWHI>  (58) 
16.151912

>  <BCUT2D_MWLOW>  (58) 
10.10695

>  <BCUT2D_CHGHI>  (58) 
2.127047

>  <BCUT2D_CHGLO>  (58) 
-2.194217

>  <BCUT2D_LOGPHI>  (58) 
2.251806

>  <BCUT2D_LOGPLOW>  (58) 
-2.27282

>  <BCUT2D_MRHI>  (58) 
5.91714

>  <BCUT2D_MRLOW>  (58) 
-0.116045

>  <AvgIpc>  (58) 
2.982826

>  <BalabanJ>  (58) 
2.149202

>  <BertzCT>  (58) 
922.123581

>  <Chi0>  (58) 
16.396977

>  <Chi0n>  (58) 
12.892875

>  <Chi0v>  (58) 
12.892875

>  <Chi1>  (58) 
11.151397

>  <Chi1n>  (58) 
7.267548

>  <Chi1v>  (58) 
7.267548

>  <Chi2n>  (58) 
5.049141

>  <Chi2v>  (58) 
5.049141

>  <Chi3n>  (58) 
3.671626

>  <Chi3v>  (58) 
3.671626

>  <Chi4n>  (58) 
2.609129

>  <Chi4v>  (58) 
2.609129

>  <HallKierAlpha>  (58) 
-3.2

>  <Ipc>  (58) 
250265.054241

>  <Kappa1>  (58) 
14.725427

>  <Kappa2>  (58) 
5.890384

>  <Kappa3>  (58) 
2.529563

>  <LabuteASA>  (58) 
133.153053

>  <PEOE_VSA1>  (58) 
4.89991

>  <PEOE_VSA10>  (58) 
11.632673

>  <PEOE_VSA11>  (58) 
5.647177

>  <PEOE_VSA12>  (58) 
5.90718

>  <PEOE_VSA13>  (58) 
0.0

>  <PEOE_VSA14>  (58) 
0.0

>  <PEOE_VSA2>  (58) 
4.794537

>  <PEOE_VSA3>  (58) 
9.499376

>  <PEOE_VSA4>  (58) 
10.360573

>  <PEOE_VSA5>  (58) 
0.0

>  <PEOE_VSA6>  (58) 
12.132734

>  <PEOE_VSA7>  (58) 
25.122838

>  <PEOE_VSA8>  (58) 
30.916175

>  <PEOE_VSA9>  (58) 
11.890772

>  <SMR_VSA1>  (58) 
4.794537

>  <SMR_VSA10>  (58) 
17.241743

>  <SMR_VSA2>  (58) 
5.261892

>  <SMR_VSA3>  (58) 
14.598058

>  <SMR_VSA4>  (58) 
0.0

>  <SMR_VSA5>  (58) 
13.847474

>  <SMR_VSA6>  (58) 
11.444666

>  <SMR_VSA7>  (58) 
48.288974

>  <SMR_VSA8>  (58) 
0.0

>  <SMR_VSA9>  (58) 
17.326601

>  <SlogP_VSA1>  (58) 
4.89991

>  <SlogP_VSA10>  (58) 
5.687386

>  <SlogP_VSA11>  (58) 
0.0

>  <SlogP_VSA12>  (58) 
0.0

>  <SlogP_VSA2>  (58) 
27.049994

>  <SlogP_VSA3>  (58) 
4.794537

>  <SlogP_VSA4>  (58) 
11.331113

>  <SlogP_VSA5>  (58) 
19.410926

>  <SlogP_VSA6>  (58) 
42.725522

>  <SlogP_VSA7>  (58) 
0.0

>  <SlogP_VSA8>  (58) 
16.904557

>  <SlogP_VSA9>  (58) 
0.0

>  <EState_VSA1>  (58) 
0.0

>  <EState_VSA10>  (58) 
4.794537

>  <EState_VSA11>  (58) 
0.0

>  <EState_VSA2>  (58) 
5.90718

>  <EState_VSA3>  (58) 
17.755385

>  <EState_VSA4>  (58) 
16.944766

>  <EState_VSA5>  (58) 
6.196844

>  <EState_VSA6>  (58) 
22.535888

>  <EState_VSA7>  (58) 
37.255573

>  <EState_VSA8>  (58) 
16.151882

>  <EState_VSA9>  (58) 
5.261892

>  <VSA_EState1>  (58) 
1.640595

>  <VSA_EState10>  (58) 
0.0

>  <VSA_EState2>  (58) 
17.653729

>  <VSA_EState3>  (58) 
13.355097

>  <VSA_EState4>  (58) 
3.506031

>  <VSA_EState5>  (58) 
-0.004277

>  <VSA_EState6>  (58) 
11.602957

>  <VSA_EState7>  (58) 
3.158754

>  <VSA_EState8>  (58) 
4.087114

>  <VSA_EState9>  (58) 
0.0

>  <FractionCSP3>  (58) 
0.176471

>  <HeavyAtomCount>  (58) 
23

>  <NHOHCount>  (58) 
0

>  <NOCount>  (58) 
6

>  <NumAliphaticCarbocycles>  (58) 
0

>  <NumAliphaticHeterocycles>  (58) 
0

>  <NumAliphaticRings>  (58) 
0

>  <NumAromaticCarbocycles>  (58) 
1

>  <NumAromaticHeterocycles>  (58) 
2

>  <NumAromaticRings>  (58) 
3

>  <NumHAcceptors>  (58) 
5

>  <NumHDonors>  (58) 
0

>  <NumHeteroatoms>  (58) 
6

>  <NumRotatableBonds>  (58) 
3

>  <NumSaturatedCarbocycles>  (58) 
0

>  <NumSaturatedHeterocycles>  (58) 
0

>  <NumSaturatedRings>  (58) 
0

>  <RingCount>  (58) 
3

>  <MolLogP>  (58) 
2.64078

>  <MolMR>  (58) 
86.839

>  <fr_Al_COO>  (58) 
0

>  <fr_Al_OH>  (58) 
0

>  <fr_Al_OH_noTert>  (58) 
0

>  <fr_ArN>  (58) 
0

>  <fr_Ar_COO>  (58) 
0

>  <fr_Ar_N>  (58) 
3

>  <fr_Ar_NH>  (58) 
0

>  <fr_Ar_OH>  (58) 
0

>  <fr_COO>  (58) 
0

>  <fr_COO2>  (58) 
0

>  <fr_C_O>  (58) 
1

>  <fr_C_O_noCOO>  (58) 
1

>  <fr_C_S>  (58) 
0

>  <fr_HOCCN>  (58) 
0

>  <fr_Imine>  (58) 
0

>  <fr_NH0>  (58) 
5

>  <fr_NH1>  (58) 
0

>  <fr_NH2>  (58) 
0

>  <fr_N_O>  (58) 
0

>  <fr_Ndealkylation1>  (58) 
0

>  <fr_Ndealkylation2>  (58) 
0

>  <fr_Nhpyrrole>  (58) 
0

>  <fr_SH>  (58) 
0

>  <fr_aldehyde>  (58) 
0

>  <fr_alkyl_carbamate>  (58) 
0

>  <fr_alkyl_halide>  (58) 
0

>  <fr_allylic_oxid>  (58) 
0

>  <fr_amide>  (58) 
1

>  <fr_amidine>  (58) 
0

>  <fr_aniline>  (58) 
1

>  <fr_aryl_methyl>  (58) 
0

>  <fr_azide>  (58) 
0

>  <fr_azo>  (58) 
0

>  <fr_barbitur>  (58) 
0

>  <fr_benzene>  (58) 
1

>  <fr_benzodiazepine>  (58) 
0

>  <fr_bicyclic>  (58) 
1

>  <fr_diazo>  (58) 
0

>  <fr_dihydropyridine>  (58) 
0

>  <fr_epoxide>  (58) 
0

>  <fr_ester>  (58) 
0

>  <fr_ether>  (58) 
0

>  <fr_furan>  (58) 
0

>  <fr_guanido>  (58) 
0

>  <fr_halogen>  (58) 
0

>  <fr_hdrzine>  (58) 
0

>  <fr_hdrzone>  (58) 
0

>  <fr_imidazole>  (58) 
0

>  <fr_imide>  (58) 
0

>  <fr_isocyan>  (58) 
0

>  <fr_isothiocyan>  (58) 
0

>  <fr_ketone>  (58) 
0

>  <fr_ketone_Topliss>  (58) 
0

>  <fr_lactam>  (58) 
0

>  <fr_lactone>  (58) 
0

>  <fr_methoxy>  (58) 
0

>  <fr_morpholine>  (58) 
0

>  <fr_nitrile>  (58) 
1

>  <fr_nitro>  (58) 
0

>  <fr_nitro_arom>  (58) 
0

>  <fr_nitro_arom_nonortho>  (58) 
0

>  <fr_nitroso>  (58) 
0

>  <fr_oxazole>  (58) 
0

>  <fr_oxime>  (58) 
0

>  <fr_para_hydroxylation>  (58) 
0

>  <fr_phenol>  (58) 
0

>  <fr_phenol_noOrthoHbond>  (58) 
0

>  <fr_phos_acid>  (58) 
0

>  <fr_phos_ester>  (58) 
0

>  <fr_piperdine>  (58) 
0

>  <fr_piperzine>  (58) 
0

>  <fr_priamide>  (58) 
0

>  <fr_prisulfonamd>  (58) 
0

>  <fr_pyridine>  (58) 
0

>  <fr_quatN>  (58) 
0

>  <fr_sulfide>  (58) 
0

>  <fr_sulfonamd>  (58) 
0

>  <fr_sulfone>  (58) 
0

>  <fr_term_acetylene>  (58) 
0

>  <fr_tetrazole>  (58) 
0

>  <fr_thiazole>  (58) 
0

>  <fr_thiocyan>  (58) 
0

>  <fr_thiophene>  (58) 
0

>  <fr_unbrch_alkane>  (58) 
0

>  <fr_urea>  (58) 
0

>  <NP_Likeness>  (58) 
-2.102058

$$$$
CHEMBL3936761
     RDKit          3D

  0  0  0  0  0  0  0  0  0  0999 V3000
M  V30 BEGIN CTAB
M  V30 COUNTS 64 68 0 0 0
M  V30 BEGIN ATOM
M  V30 1 C -2.618483 -5.139076 1.834622 0
M  V30 2 C -1.979609 -3.980921 1.836492 0
M  V30 3 C -0.592357 -4.005493 2.273827 0
M  V30 4 O -0.276721 -5.197640 2.575859 0
M  V30 5 N 0.248909 -2.860716 2.341121 0
M  V30 6 C -0.359309 -1.607070 1.936866 0
M  V30 7 C 0.708621 -0.539573 1.926624 0
M  V30 8 C 1.971595 -1.162355 1.365302 0
M  V30 9 C 2.923642 -0.117514 0.867249 0 CFG=2
M  V30 10 C 3.335688 0.817866 1.953872 0
M  V30 11 C 4.257299 1.888870 1.447628 0
M  V30 12 N 3.728401 2.563448 0.277374 0
M  V30 13 C 2.683421 1.922138 -0.436944 0
M  V30 14 C 1.847669 2.282653 -1.464907 0
M  V30 15 C 1.932885 3.605610 -2.057117 0
M  V30 16 N 1.311340 4.368352 -3.058625 0
M  V30 17 O 2.769170 4.457727 -1.668488 0
M  V30 18 C 0.972797 1.286277 -1.825753 0
M  V30 19 C -0.063698 1.249137 -2.843729 0
M  V30 20 C -0.016636 1.638913 -4.163989 0
M  V30 21 C -1.144438 1.515610 -4.949410 0
M  V30 22 C -2.342456 1.012124 -4.474308 0
M  V30 23 O -3.384093 0.954258 -5.396909 0
M  V30 24 C -4.593964 0.438720 -4.895609 0
M  V30 25 C -5.457177 1.368163 -4.356234 0
M  V30 26 C -6.680270 0.964162 -3.833113 0
M  V30 27 C -6.994002 -0.398057 -3.875239 0
M  V30 28 C -6.124110 -1.321563 -4.416908 0
M  V30 29 C -4.918979 -0.901490 -4.929290 0
M  V30 30 C -2.400856 0.618113 -3.152347 0
M  V30 31 C -1.273707 0.740820 -2.364990 0
M  V30 32 N 1.286168 0.283811 -0.987773 0
M  V30 33 N 2.271089 0.644159 -0.185246 0
M  V30 34 C 2.557934 -2.027156 2.430941 0
M  V30 35 C 1.596756 -3.118600 2.806417 0
M  V30 36 H -3.653989 -5.273114 1.534166 0
M  V30 37 H -2.175271 -6.079969 2.133595 0
M  V30 38 H -2.569986 -3.125360 1.506228 0
M  V30 39 H -0.783954 -1.702092 0.905075 0
M  V30 40 H -1.211206 -1.339897 2.588659 0
M  V30 41 H 0.924760 -0.318709 3.003957 0
M  V30 42 H 0.413861 0.371345 1.395429 0
M  V30 43 H 1.670275 -1.797062 0.493030 0
M  V30 44 H 3.787457 -0.637094 0.411213 0
M  V30 45 H 2.456038 1.228911 2.456809 0
M  V30 46 H 3.937254 0.237844 2.709691 0
M  V30 47 H 4.319897 2.674463 2.242539 0
M  V30 48 H 5.275472 1.529588 1.244715 0
M  V30 49 H 4.098327 3.469733 -0.019670 0
M  V30 50 H 1.666012 4.361592 -4.020305 0
M  V30 51 H 0.482789 4.994696 -2.996853 0
M  V30 52 H 0.938032 2.013966 -4.469236 0
M  V30 53 H -0.969257 1.859929 -5.970833 0
M  V30 54 H -5.255204 2.414480 -4.305368 0
M  V30 55 H -7.380697 1.666489 -3.402799 0
M  V30 56 H -7.934054 -0.791798 -3.484922 0
M  V30 57 H -6.331037 -2.385362 -4.467738 0
M  V30 58 H -4.195488 -1.567066 -5.365321 0
M  V30 59 H -3.338020 0.231843 -2.807672 0
M  V30 60 H -1.437335 0.399109 -1.340407 0
M  V30 61 H 3.583129 -2.401570 2.215178 0
M  V30 62 H 2.675340 -1.395747 3.349774 0
M  V30 63 H 1.958895 -4.044987 2.307400 0
M  V30 64 H 1.560399 -3.330751 3.881711 0
M  V30 END ATOM
M  V30 BEGIN BOND
M  V30 1 2 1 2
M  V30 2 1 2 3
M  V30 3 2 3 4
M  V30 4 1 3 5
M  V30 5 1 5 6
M  V30 6 1 6 7
M  V30 7 1 7 8
M  V30 8 1 8 9
M  V30 9 1 9 10
M  V30 10 1 10 11
M  V30 11 1 11 12
M  V30 12 1 12 13
M  V30 13 2 13 14
M  V30 14 1 14 15
M  V30 15 1 15 16
M  V30 16 2 15 17
M  V30 17 1 14 18
M  V30 18 1 18 19
M  V30 19 2 19 20
M  V30 20 1 20 21
M  V30 21 2 21 22
M  V30 22 1 22 23
M  V30 23 1 23 24
M  V30 24 2 24 25
M  V30 25 1 25 26
M  V30 26 2 26 27
M  V30 27 1 27 28
M  V30 28 2 28 29
M  V30 29 1 22 30
M  V30 30 2 30 31
M  V30 31 2 18 32
M  V30 32 1 32 33
M  V30 33 1 8 34
M  V30 34 1 34 35
M  V30 35 1 35 5
M  V30 36 1 33 9
M  V30 37 1 33 13
M  V30 38 1 31 19
M  V30 39 1 29 24
M  V30 40 1 1 36
M  V30 41 1 1 37
M  V30 42 1 2 38
M  V30 43 1 6 39
M  V30 44 1 6 40
M  V30 45 1 7 41
M  V30 46 1 7 42
M  V30 47 1 8 43
M  V30 48 1 9 44 CFG=3
M  V30 49 1 10 45
M  V30 50 1 10 46
M  V30 51 1 11 47
M  V30 52 1 11 48
M  V30 53 1 12 49
M  V30 54 1 16 50
M  V30 55 1 16 51
M  V30 56 1 20 52
M  V30 57 1 21 53
M  V30 58 1 25 54
M  V30 59 1 26 55
M  V30 60 1 27 56
M  V30 61 1 28 57
M  V30 62 1 29 58
M  V30 63 1 30 59
M  V30 64 1 31 60
M  V30 65 1 34 61
M  V30 66 1 34 62
M  V30 67 1 35 63
M  V30 68 1 35 64
M  V30 END BOND
M  V30 END CTAB
M  END
>  <Dataset>  (59) 
OralDrugs

>  <Ligand_Instance>  (59) 
nan

>  <PDB_ID>  (59) 
nan

>  <Standardized_SMILES>  (59) 
C=CC(=O)N1CCC([C@@H]2CCNc3c(C(N)=O)c(-c4ccc(Oc5ccccc5)cc4)nn32)CC1

>  <Name>  (59) 
Zanubrutinib

>  <Pocket>  (59) 
nan

>  <ATP_Site>  (59) 
nan

>  <Peripheral>  (59) 
nan

>  <Num_H_Atoms_ProtBoundConf>  (59) 
nan

>  <Num_Resolved_Atoms>  (59) 
nan

>  <Num_Not_Resolved_Atoms>  (59) 
nan

>  <2D_Mol_H>  (59) 
<rdkit.Chem.rdchem.Mol object at 0x72a238bbd850>

>  <MW>  (59) 
471.561

>  <HBA>  (59) 
6

>  <HBD>  (59) 
2

>  <LogP>  (59) 
4.2226

>  <NRB>  (59) 
6

>  <TPSA>  (59) 
102.48

>  <Num_Heavy_Atoms>  (59) 
35

>  <Ro5>  (59) 
[True, True, True, True, True, True]

>  <Ro5_Fulfilled>  (59) 
True

>  <Ro3>  (59) 
[False, False, True, False]

>  <Ro3_Fulfilled>  (59) 
False

>  <Fsp3>  (59) 
0.296296

>  <Fsp3_0.42>  (59) 
False

>  <Fsp3_0.45>  (59) 
False

>  <Stereogenic_Carbons>  (59) 
1

>  <C_Atoms>  (59) 
27

>  <FCStereo>  (59) 
0.037037

>  <SPS>  (59) 
624

>  <nSPS>  (59) 
17.828571

>  <PBF>  (59) 
0.81233

>  <PBF_0.6>  (59) 
True

>  <nPBF>  (59) 
0.023209

>  <nPBF_0.016>  (59) 
True

>  <PMI1>  (59) 
4441.807115

>  <PMI2>  (59) 
6830.298669

>  <PMI3>  (59) 
10756.010514

>  <NPR1>  (59) 
0.41296

>  <NPR2>  (59) 
0.635022

>  <Sum_NPR>  (59) 
1.047982

>  <Sum_NPR_1.07>  (59) 
False

>  <Sum_NPR_1.2>  (59) 
False

>  <MaxAbsEStateIndex>  (59) 
12.520892

>  <MaxEStateIndex>  (59) 
12.520892

>  <MinAbsEStateIndex>  (59) 
0.021731

>  <MinEStateIndex>  (59) 
-0.508879

>  <qed>  (59) 
0.524184

>  <MolWt>  (59) 
471.561

>  <HeavyAtomMolWt>  (59) 
442.329

>  <ExactMolWt>  (59) 
471.22704

>  <NumValenceElectrons>  (59) 
180

>  <NumRadicalElectrons>  (59) 
0

>  <MaxPartialCharge>  (59) 
0.254245

>  <MinPartialCharge>  (59) 
-0.457384

>  <MaxAbsPartialCharge>  (59) 
0.457384

>  <MinAbsPartialCharge>  (59) 
0.254245

>  <FpDensityMorgan1>  (59) 
1.028571

>  <FpDensityMorgan2>  (59) 
1.714286

>  <FpDensityMorgan3>  (59) 
2.371429

>  <BCUT2D_MWHI>  (59) 
16.480569

>  <BCUT2D_MWLOW>  (59) 
9.865395

>  <BCUT2D_CHGHI>  (59) 
2.352315

>  <BCUT2D_CHGLO>  (59) 
-2.377041

>  <BCUT2D_LOGPHI>  (59) 
2.39797

>  <BCUT2D_LOGPLOW>  (59) 
-2.407328

>  <BCUT2D_MRHI>  (59) 
6.034746

>  <BCUT2D_MRLOW>  (59) 
-0.127115

>  <AvgIpc>  (59) 
3.294127

>  <BalabanJ>  (59) 
1.412464

>  <BertzCT>  (59) 
1227.707584

>  <Chi0>  (59) 
24.363232

>  <Chi0n>  (59) 
19.521687

>  <Chi0v>  (59) 
19.521687

>  <Chi1>  (59) 
17.046045

>  <Chi1n>  (59) 
11.957252

>  <Chi1v>  (59) 
11.957252

>  <Chi2n>  (59) 
8.970165

>  <Chi2v>  (59) 
8.970165

>  <Chi3n>  (59) 
6.880251

>  <Chi3v>  (59) 
6.880251

>  <Chi4n>  (59) 
5.114586

>  <Chi4v>  (59) 
5.114586

>  <HallKierAlpha>  (59) 
-4.07

>  <Ipc>  (59) 
143203562.881165

>  <Kappa1>  (59) 
22.708904

>  <Kappa2>  (59) 
9.657311

>  <Kappa3>  (59) 
4.512617

>  <LabuteASA>  (59) 
203.917041

>  <PEOE_VSA1>  (59) 
20.687229

>  <PEOE_VSA10>  (59) 
28.574266

>  <PEOE_VSA11>  (59) 
0.0

>  <PEOE_VSA12>  (59) 
5.90718

>  <PEOE_VSA13>  (59) 
5.90718

>  <PEOE_VSA14>  (59) 
0.0

>  <PEOE_VSA2>  (59) 
9.589074

>  <PEOE_VSA3>  (59) 
4.681803

>  <PEOE_VSA4>  (59) 
5.098682

>  <PEOE_VSA5>  (59) 
0.0

>  <PEOE_VSA6>  (59) 
24.778037

>  <PEOE_VSA7>  (59) 
67.654593

>  <PEOE_VSA8>  (59) 
25.197721

>  <PEOE_VSA9>  (59) 
6.041841

>  <SMR_VSA1>  (59) 
14.325937

>  <SMR_VSA10>  (59) 
17.632222

>  <SMR_VSA2>  (59) 
0.0

>  <SMR_VSA3>  (59) 
14.680394

>  <SMR_VSA4>  (59) 
11.651574

>  <SMR_VSA5>  (59) 
25.304306

>  <SMR_VSA6>  (59) 
24.951058

>  <SMR_VSA7>  (59) 
72.815711

>  <SMR_VSA8>  (59) 
0.0

>  <SMR_VSA9>  (59) 
22.756403

>  <SlogP_VSA1>  (59) 
15.787319

>  <SlogP_VSA10>  (59) 
5.817863

>  <SlogP_VSA11>  (59) 
11.499024

>  <SlogP_VSA12>  (59) 
0.0

>  <SlogP_VSA2>  (59) 
46.129023

>  <SlogP_VSA3>  (59) 
4.794537

>  <SlogP_VSA4>  (59) 
5.917906

>  <SlogP_VSA5>  (59) 
35.662294

>  <SlogP_VSA6>  (59) 
67.252259

>  <SlogP_VSA7>  (59) 
0.0

>  <SlogP_VSA8>  (59) 
11.257379

>  <SlogP_VSA9>  (59) 
0.0

>  <EState_VSA1>  (59) 
5.90718

>  <EState_VSA10>  (59) 
9.589074

>  <EState_VSA11>  (59) 
0.0

>  <EState_VSA2>  (59) 
11.949021

>  <EState_VSA3>  (59) 
41.832173

>  <EState_VSA4>  (59) 
37.120185

>  <EState_VSA5>  (59) 
6.07602

>  <EState_VSA6>  (59) 
0.0

>  <EState_VSA7>  (59) 
64.179016

>  <EState_VSA8>  (59) 
11.895724

>  <EState_VSA9>  (59) 
15.569212

>  <VSA_EState1>  (59) 
7.841826

>  <VSA_EState10>  (59) 
0.0

>  <VSA_EState2>  (59) 
26.336451

>  <VSA_EState3>  (59) 
8.247751

>  <VSA_EState4>  (59) 
7.60696

>  <VSA_EState5>  (59) 
1.9579

>  <VSA_EState6>  (59) 
17.225897

>  <VSA_EState7>  (59) 
4.042562

>  <VSA_EState8>  (59) 
5.740653

>  <VSA_EState9>  (59) 
0.0

>  <FractionCSP3>  (59) 
0.296296

>  <HeavyAtomCount>  (59) 
35

>  <NHOHCount>  (59) 
3

>  <NOCount>  (59) 
8

>  <NumAliphaticCarbocycles>  (59) 
0

>  <NumAliphaticHeterocycles>  (59) 
2

>  <NumAliphaticRings>  (59) 
2

>  <NumAromaticCarbocycles>  (59) 
2

>  <NumAromaticHeterocycles>  (59) 
1

>  <NumAromaticRings>  (59) 
3

>  <NumHAcceptors>  (59) 
6

>  <NumHDonors>  (59) 
2

>  <NumHeteroatoms>  (59) 
8

>  <NumRotatableBonds>  (59) 
6

>  <NumSaturatedCarbocycles>  (59) 
0

>  <NumSaturatedHeterocycles>  (59) 
1

>  <NumSaturatedRings>  (59) 
1

>  <RingCount>  (59) 
5

>  <MolLogP>  (59) 
4.2226

>  <MolMR>  (59) 
134.3416

>  <fr_Al_COO>  (59) 
0

>  <fr_Al_OH>  (59) 
0

>  <fr_Al_OH_noTert>  (59) 
0

>  <fr_ArN>  (59) 
0

>  <fr_Ar_COO>  (59) 
0

>  <fr_Ar_N>  (59) 
2

>  <fr_Ar_NH>  (59) 
0

>  <fr_Ar_OH>  (59) 
0

>  <fr_COO>  (59) 
0

>  <fr_COO2>  (59) 
0

>  <fr_C_O>  (59) 
2

>  <fr_C_O_noCOO>  (59) 
2

>  <fr_C_S>  (59) 
0

>  <fr_HOCCN>  (59) 
0

>  <fr_Imine>  (59) 
0

>  <fr_NH0>  (59) 
3

>  <fr_NH1>  (59) 
1

>  <fr_NH2>  (59) 
1

>  <fr_N_O>  (59) 
0

>  <fr_Ndealkylation1>  (59) 
0

>  <fr_Ndealkylation2>  (59) 
1

>  <fr_Nhpyrrole>  (59) 
0

>  <fr_SH>  (59) 
0

>  <fr_aldehyde>  (59) 
0

>  <fr_alkyl_carbamate>  (59) 
0

>  <fr_alkyl_halide>  (59) 
0

>  <fr_allylic_oxid>  (59) 
0

>  <fr_amide>  (59) 
2

>  <fr_amidine>  (59) 
0

>  <fr_aniline>  (59) 
1

>  <fr_aryl_methyl>  (59) 
0

>  <fr_azide>  (59) 
0

>  <fr_azo>  (59) 
0

>  <fr_barbitur>  (59) 
0

>  <fr_benzene>  (59) 
2

>  <fr_benzodiazepine>  (59) 
0

>  <fr_bicyclic>  (59) 
1

>  <fr_diazo>  (59) 
0

>  <fr_dihydropyridine>  (59) 
0

>  <fr_epoxide>  (59) 
0

>  <fr_ester>  (59) 
0

>  <fr_ether>  (59) 
1

>  <fr_furan>  (59) 
0

>  <fr_guanido>  (59) 
0

>  <fr_halogen>  (59) 
0

>  <fr_hdrzine>  (59) 
0

>  <fr_hdrzone>  (59) 
0

>  <fr_imidazole>  (59) 
0

>  <fr_imide>  (59) 
0

>  <fr_isocyan>  (59) 
0

>  <fr_isothiocyan>  (59) 
0

>  <fr_ketone>  (59) 
0

>  <fr_ketone_Topliss>  (59) 
0

>  <fr_lactam>  (59) 
0

>  <fr_lactone>  (59) 
0

>  <fr_methoxy>  (59) 
0

>  <fr_morpholine>  (59) 
0

>  <fr_nitrile>  (59) 
0

>  <fr_nitro>  (59) 
0

>  <fr_nitro_arom>  (59) 
0

>  <fr_nitro_arom_nonortho>  (59) 
0

>  <fr_nitroso>  (59) 
0

>  <fr_oxazole>  (59) 
0

>  <fr_oxime>  (59) 
0

>  <fr_para_hydroxylation>  (59) 
1

>  <fr_phenol>  (59) 
0

>  <fr_phenol_noOrthoHbond>  (59) 
0

>  <fr_phos_acid>  (59) 
0

>  <fr_phos_ester>  (59) 
0

>  <fr_piperdine>  (59) 
1

>  <fr_piperzine>  (59) 
0

>  <fr_priamide>  (59) 
1

>  <fr_prisulfonamd>  (59) 
0

>  <fr_pyridine>  (59) 
0

>  <fr_quatN>  (59) 
0

>  <fr_sulfide>  (59) 
0

>  <fr_sulfonamd>  (59) 
0

>  <fr_sulfone>  (59) 
0

>  <fr_term_acetylene>  (59) 
0

>  <fr_tetrazole>  (59) 
0

>  <fr_thiazole>  (59) 
0

>  <fr_thiocyan>  (59) 
0

>  <fr_thiophene>  (59) 
0

>  <fr_unbrch_alkane>  (59) 
0

>  <fr_urea>  (59) 
0

>  <NP_Likeness>  (59) 
-0.592054

$$$$
CHEMBL93
     RDKit          3D

  0  0  0  0  0  0  0  0  0  0999 V3000
M  V30 BEGIN CTAB
M  V30 COUNTS 28 29 0 0 0
M  V30 BEGIN ATOM
M  V30 1 C -2.217016 0.883725 0.977924 0
M  V30 2 C -0.965931 0.951531 0.120969 0 CFG=2
M  V30 3 C -0.326749 -0.342605 0.127942 0
M  V30 4 C 0.472688 -1.028765 0.973393 0
M  V30 5 C 0.938751 -2.287785 0.694505 0
M  V30 6 C 1.753070 -3.095927 1.457336 0
M  V30 7 C 2.071459 -4.323013 0.937142 0
M  V30 8 C 1.677731 -4.861924 -0.266796 0
M  V30 9 C 0.864661 -4.061093 -1.033913 0
M  V30 10 C 0.519521 -2.812552 -0.543360 0
M  V30 11 S -0.514571 -1.516685 -1.269924 0
M  V30 12 N -0.079558 2.022348 0.529992 0
M  V30 13 O 0.163834 3.021707 -0.390264 0
M  V30 14 C 0.729887 2.510548 1.620089 0
M  V30 15 N 1.010006 2.044789 2.946941 0
M  V30 16 O 1.486564 3.484164 1.867659 0
M  V30 17 H -2.438098 1.844923 1.472643 0
M  V30 18 H -2.130905 0.042144 1.712494 0
M  V30 19 H -3.115472 0.613633 0.353399 0
M  V30 20 H -1.305503 1.168666 -0.912585 0
M  V30 21 H 0.698872 -0.485198 1.880252 0
M  V30 22 H 2.130747 -2.793760 2.419276 0
M  V30 23 H 2.724682 -4.952355 1.566068 0
M  V30 24 H 1.973536 -5.841753 -0.606173 0
M  V30 25 H 0.487967 -4.350693 -1.982751 0
M  V30 26 H -0.702851 3.292542 -0.780094 0
M  V30 27 H 1.758913 1.404632 3.344451 0
M  V30 28 H 0.539369 2.215769 3.885995 0
M  V30 END ATOM
M  V30 BEGIN BOND
M  V30 1 1 1 2
M  V30 2 1 2 3
M  V30 3 2 3 4
M  V30 4 1 4 5
M  V30 5 2 5 6
M  V30 6 1 6 7
M  V30 7 2 7 8
M  V30 8 1 8 9
M  V30 9 2 9 10
M  V30 10 1 10 11
M  V30 11 1 2 12
M  V30 12 1 12 13
M  V30 13 1 12 14
M  V30 14 1 14 15
M  V30 15 2 14 16
M  V30 16 1 11 3
M  V30 17 1 10 5
M  V30 18 1 1 17
M  V30 19 1 1 18
M  V30 20 1 1 19
M  V30 21 1 2 20 CFG=3
M  V30 22 1 4 21
M  V30 23 1 6 22
M  V30 24 1 7 23
M  V30 25 1 8 24
M  V30 26 1 9 25
M  V30 27 1 13 26
M  V30 28 1 15 27
M  V30 29 1 15 28
M  V30 END BOND
M  V30 END CTAB
M  END
>  <Dataset>  (60) 
OralDrugs

>  <Ligand_Instance>  (60) 
nan

>  <PDB_ID>  (60) 
nan

>  <Standardized_SMILES>  (60) 
CC(c1cc2ccccc2s1)N(O)C(N)=O

>  <Name>  (60) 
Zileuton

>  <Pocket>  (60) 
nan

>  <ATP_Site>  (60) 
nan

>  <Peripheral>  (60) 
nan

>  <Num_H_Atoms_ProtBoundConf>  (60) 
nan

>  <Num_Resolved_Atoms>  (60) 
nan

>  <Num_Not_Resolved_Atoms>  (60) 
nan

>  <2D_Mol_H>  (60) 
<rdkit.Chem.rdchem.Mol object at 0x72a238bbd930>

>  <MW>  (60) 
236.296

>  <HBA>  (60) 
3

>  <HBD>  (60) 
2

>  <LogP>  (60) 
2.7322

>  <NRB>  (60) 
4

>  <TPSA>  (60) 
66.56

>  <Num_Heavy_Atoms>  (60) 
16

>  <Ro5>  (60) 
[True, True, True, True, True, True]

>  <Ro5_Fulfilled>  (60) 
True

>  <Ro3>  (60) 
[True, True, True, True]

>  <Ro3_Fulfilled>  (60) 
True

>  <Fsp3>  (60) 
0.181818

>  <Fsp3_0.42>  (60) 
False

>  <Fsp3_0.45>  (60) 
False

>  <Stereogenic_Carbons>  (60) 
1

>  <C_Atoms>  (60) 
11

>  <FCStereo>  (60) 
0.090909

>  <SPS>  (60) 
202

>  <nSPS>  (60) 
12.625

>  <PBF>  (60) 
0.668186

>  <PBF_0.6>  (60) 
True

>  <nPBF>  (60) 
0.041762

>  <nPBF_0.016>  (60) 
True

>  <PMI1>  (60) 
545.835126

>  <PMI2>  (60) 
1886.610635

>  <PMI3>  (60) 
2199.109816

>  <NPR1>  (60) 
0.248207

>  <NPR2>  (60) 
0.857897

>  <Sum_NPR>  (60) 
1.106105

>  <Sum_NPR_1.07>  (60) 
True

>  <Sum_NPR_1.2>  (60) 
False

>  <MaxAbsEStateIndex>  (60) 
10.832023

>  <MaxEStateIndex>  (60) 
10.832023

>  <MinAbsEStateIndex>  (60) 
0.421389

>  <MinEStateIndex>  (60) 
-0.842633

>  <qed>  (60) 
0.621568

>  <MolWt>  (60) 
236.296

>  <HeavyAtomMolWt>  (60) 
224.2

>  <ExactMolWt>  (60) 
236.061949

>  <NumValenceElectrons>  (60) 
84

>  <NumRadicalElectrons>  (60) 
0

>  <MaxPartialCharge>  (60) 
0.338621

>  <MinPartialCharge>  (60) 
-0.349691

>  <MaxAbsPartialCharge>  (60) 
0.349691

>  <MinAbsPartialCharge>  (60) 
0.338621

>  <FpDensityMorgan1>  (60) 
1.5

>  <FpDensityMorgan2>  (60) 
2.1875

>  <FpDensityMorgan3>  (60) 
2.8125

>  <BCUT2D_MWHI>  (60) 
32.133532

>  <BCUT2D_MWLOW>  (60) 
10.191316

>  <BCUT2D_CHGHI>  (60) 
2.184618

>  <BCUT2D_CHGLO>  (60) 
-2.182463

>  <BCUT2D_LOGPHI>  (60) 
2.311514

>  <BCUT2D_LOGPLOW>  (60) 
-2.339457

>  <BCUT2D_MRHI>  (60) 
7.186676

>  <BCUT2D_MRLOW>  (60) 
-0.069956

>  <AvgIpc>  (60) 
2.698418

>  <BalabanJ>  (60) 
2.362961

>  <BertzCT>  (60) 
490.433849

>  <Chi0>  (60) 
11.706742

>  <Chi0n>  (60) 
8.752376

>  <Chi0v>  (60) 
9.568872

>  <Chi1>  (60) 
7.592224

>  <Chi1n>  (60) 
4.853579

>  <Chi1v>  (60) 
5.670076

>  <Chi2n>  (60) 
3.545375

>  <Chi2v>  (60) 
4.66073

>  <Chi3n>  (60) 
2.448993

>  <Chi3v>  (60) 
3.735356

>  <Chi4n>  (60) 
1.519677

>  <Chi4v>  (60) 
2.621331

>  <HallKierAlpha>  (60) 
-1.59

>  <Ipc>  (60) 
5774.615508

>  <Kappa1>  (60) 
10.912299

>  <Kappa2>  (60) 
4.112336

>  <Kappa3>  (60) 
1.867897

>  <LabuteASA>  (60) 
96.857776

>  <PEOE_VSA1>  (60) 
5.733667

>  <PEOE_VSA10>  (60) 
0.0

>  <PEOE_VSA11>  (60) 
0.0

>  <PEOE_VSA12>  (60) 
0.0

>  <PEOE_VSA13>  (60) 
0.0

>  <PEOE_VSA14>  (60) 
6.031115

>  <PEOE_VSA2>  (60) 
5.207253

>  <PEOE_VSA3>  (60) 
4.794537

>  <PEOE_VSA4>  (60) 
5.063218

>  <PEOE_VSA5>  (60) 
11.336786

>  <PEOE_VSA6>  (60) 
18.199101

>  <PEOE_VSA7>  (60) 
24.442696

>  <PEOE_VSA8>  (60) 
9.577067

>  <PEOE_VSA9>  (60) 
6.041841

>  <SMR_VSA1>  (60) 
10.00179

>  <SMR_VSA10>  (60) 
27.454045

>  <SMR_VSA2>  (60) 
0.0

>  <SMR_VSA3>  (60) 
5.063218

>  <SMR_VSA4>  (60) 
5.733667

>  <SMR_VSA5>  (60) 
12.965578

>  <SMR_VSA6>  (60) 
0.0

>  <SMR_VSA7>  (60) 
35.208983

>  <SMR_VSA8>  (60) 
0.0

>  <SMR_VSA9>  (60) 
0.0

>  <SlogP_VSA1>  (60) 
5.733667

>  <SlogP_VSA10>  (60) 
4.794537

>  <SlogP_VSA11>  (60) 
0.0

>  <SlogP_VSA12>  (60) 
11.336786

>  <SlogP_VSA2>  (60) 
16.301585

>  <SlogP_VSA3>  (60) 
0.0

>  <SlogP_VSA4>  (60) 
0.0

>  <SlogP_VSA5>  (60) 
17.842725

>  <SlogP_VSA6>  (60) 
30.331835

>  <SlogP_VSA7>  (60) 
0.0

>  <SlogP_VSA8>  (60) 
10.086144

>  <SlogP_VSA9>  (60) 
0.0

>  <EState_VSA1>  (60) 
12.072955

>  <EState_VSA10>  (60) 
10.00179

>  <EState_VSA11>  (60) 
0.0

>  <EState_VSA2>  (60) 
0.0

>  <EState_VSA3>  (60) 
5.063218

>  <EState_VSA4>  (60) 
14.963291

>  <EState_VSA5>  (60) 
0.0

>  <EState_VSA6>  (60) 
18.260523

>  <EState_VSA7>  (60) 
30.331835

>  <EState_VSA8>  (60) 
0.0

>  <EState_VSA9>  (60) 
5.733667

>  <VSA_EState1>  (60) 
1.127056

>  <VSA_EState10>  (60) 
1.541667

>  <VSA_EState2>  (60) 
11.737116

>  <VSA_EState3>  (60) 
11.089256

>  <VSA_EState4>  (60) 
5.010084

>  <VSA_EState5>  (60) 
0.0

>  <VSA_EState6>  (60) 
8.596534

>  <VSA_EState7>  (60) 
0.0

>  <VSA_EState8>  (60) 
1.73162

>  <VSA_EState9>  (60) 
0.0

>  <FractionCSP3>  (60) 
0.181818

>  <HeavyAtomCount>  (60) 
16

>  <NHOHCount>  (60) 
3

>  <NOCount>  (60) 
4

>  <NumAliphaticCarbocycles>  (60) 
0

>  <NumAliphaticHeterocycles>  (60) 
0

>  <NumAliphaticRings>  (60) 
0

>  <NumAromaticCarbocycles>  (60) 
1

>  <NumAromaticHeterocycles>  (60) 
1

>  <NumAromaticRings>  (60) 
2

>  <NumHAcceptors>  (60) 
3

>  <NumHDonors>  (60) 
2

>  <NumHeteroatoms>  (60) 
5

>  <NumRotatableBonds>  (60) 
2

>  <NumSaturatedCarbocycles>  (60) 
0

>  <NumSaturatedHeterocycles>  (60) 
0

>  <NumSaturatedRings>  (60) 
0

>  <RingCount>  (60) 
2

>  <MolLogP>  (60) 
2.7322

>  <MolMR>  (60) 
63.4489

>  <fr_Al_COO>  (60) 
0

>  <fr_Al_OH>  (60) 
0

>  <fr_Al_OH_noTert>  (60) 
0

>  <fr_ArN>  (60) 
0

>  <fr_Ar_COO>  (60) 
0

>  <fr_Ar_N>  (60) 
0

>  <fr_Ar_NH>  (60) 
0

>  <fr_Ar_OH>  (60) 
0

>  <fr_COO>  (60) 
0

>  <fr_COO2>  (60) 
0

>  <fr_C_O>  (60) 
1

>  <fr_C_O_noCOO>  (60) 
1

>  <fr_C_S>  (60) 
0

>  <fr_HOCCN>  (60) 
0

>  <fr_Imine>  (60) 
0

>  <fr_NH0>  (60) 
1

>  <fr_NH1>  (60) 
0

>  <fr_NH2>  (60) 
1

>  <fr_N_O>  (60) 
2

>  <fr_Ndealkylation1>  (60) 
0

>  <fr_Ndealkylation2>  (60) 
0

>  <fr_Nhpyrrole>  (60) 
0

>  <fr_SH>  (60) 
0

>  <fr_aldehyde>  (60) 
0

>  <fr_alkyl_carbamate>  (60) 
0

>  <fr_alkyl_halide>  (60) 
0

>  <fr_allylic_oxid>  (60) 
0

>  <fr_amide>  (60) 
2

>  <fr_amidine>  (60) 
0

>  <fr_aniline>  (60) 
0

>  <fr_aryl_methyl>  (60) 
0

>  <fr_azide>  (60) 
0

>  <fr_azo>  (60) 
0

>  <fr_barbitur>  (60) 
0

>  <fr_benzene>  (60) 
1

>  <fr_benzodiazepine>  (60) 
0

>  <fr_bicyclic>  (60) 
1

>  <fr_diazo>  (60) 
0

>  <fr_dihydropyridine>  (60) 
0

>  <fr_epoxide>  (60) 
0

>  <fr_ester>  (60) 
0

>  <fr_ether>  (60) 
0

>  <fr_furan>  (60) 
0

>  <fr_guanido>  (60) 
0

>  <fr_halogen>  (60) 
0

>  <fr_hdrzine>  (60) 
0

>  <fr_hdrzone>  (60) 
0

>  <fr_imidazole>  (60) 
0

>  <fr_imide>  (60) 
0

>  <fr_isocyan>  (60) 
0

>  <fr_isothiocyan>  (60) 
0

>  <fr_ketone>  (60) 
0

>  <fr_ketone_Topliss>  (60) 
0

>  <fr_lactam>  (60) 
0

>  <fr_lactone>  (60) 
0

>  <fr_methoxy>  (60) 
0

>  <fr_morpholine>  (60) 
0

>  <fr_nitrile>  (60) 
0

>  <fr_nitro>  (60) 
0

>  <fr_nitro_arom>  (60) 
0

>  <fr_nitro_arom_nonortho>  (60) 
0

>  <fr_nitroso>  (60) 
0

>  <fr_oxazole>  (60) 
0

>  <fr_oxime>  (60) 
0

>  <fr_para_hydroxylation>  (60) 
0

>  <fr_phenol>  (60) 
0

>  <fr_phenol_noOrthoHbond>  (60) 
0

>  <fr_phos_acid>  (60) 
0

>  <fr_phos_ester>  (60) 
0

>  <fr_piperdine>  (60) 
0

>  <fr_piperzine>  (60) 
0

>  <fr_priamide>  (60) 
1

>  <fr_prisulfonamd>  (60) 
0

>  <fr_pyridine>  (60) 
0

>  <fr_quatN>  (60) 
0

>  <fr_sulfide>  (60) 
0

>  <fr_sulfonamd>  (60) 
0

>  <fr_sulfone>  (60) 
0

>  <fr_term_acetylene>  (60) 
0

>  <fr_tetrazole>  (60) 
0

>  <fr_thiazole>  (60) 
0

>  <fr_thiocyan>  (60) 
0

>  <fr_thiophene>  (60) 
1

>  <fr_unbrch_alkane>  (60) 
0

>  <fr_urea>  (60) 
1

>  <NP_Likeness>  (60) 
-0.228162

$$$$
CHEMBL708
     RDKit          3D

  0  0  0  0  0  0  0  0  0  0999 V3000
M  V30 BEGIN CTAB
M  V30 COUNTS 49 53 0 0 0
M  V30 BEGIN ATOM
M  V30 1 O 2.047076 -6.837882 1.592760 0
M  V30 2 C 1.259714 -6.070335 0.944008 0
M  V30 3 C 1.507355 -4.585140 0.938297 0
M  V30 4 C 0.361895 -4.072662 0.180666 0
M  V30 5 C -0.053457 -2.781494 -0.154754 0
M  V30 6 C -1.191088 -2.569431 -0.917848 0
M  V30 7 C -1.630425 -1.200435 -1.280657 0
M  V30 8 C -0.528272 -0.186190 -1.258947 0
M  V30 9 N -0.944478 1.159407 -1.584034 0
M  V30 10 C 0.256288 1.971587 -1.692317 0
M  V30 11 C 1.065492 2.025441 -0.431143 0
M  V30 12 N 0.186981 2.512188 0.628293 0
M  V30 13 C 0.514543 2.686467 2.012168 0
M  V30 14 N 0.462531 4.073419 2.229732 0
M  V30 15 S 0.921452 4.054299 4.048342 0
M  V30 16 C 1.078744 2.343433 4.152341 0
M  V30 17 C 1.416251 1.713304 5.363971 0
M  V30 18 C 1.483061 0.314015 5.248515 0
M  V30 19 C 1.223209 -0.267760 4.026784 0
M  V30 20 C 0.896719 0.420308 2.886061 0
M  V30 21 C 0.822304 1.778233 2.955165 0
M  V30 22 C -1.165549 2.841611 0.196603 0
M  V30 23 C -1.820830 1.710845 -0.556691 0
M  V30 24 C -1.949268 -3.639571 -1.369490 0
M  V30 25 Cl -3.387788 -3.396902 -2.338233 0
M  V30 26 C -1.568022 -4.950431 -1.055389 0
M  V30 27 C -0.416769 -5.086447 -0.287109 0
M  V30 28 N 0.110158 -6.322679 0.163056 0
M  V30 29 H 2.477510 -4.407382 0.380086 0
M  V30 30 H 1.619210 -4.188524 1.947511 0
M  V30 31 H 0.569177 -1.973839 0.224657 0
M  V30 32 H -2.432064 -0.899712 -0.588762 0
M  V30 33 H -2.106547 -1.256658 -2.306165 0
M  V30 34 H -0.030063 -0.119544 -0.281588 0
M  V30 35 H 0.219826 -0.469137 -2.045510 0
M  V30 36 H -0.007323 3.030311 -1.970755 0
M  V30 37 H 0.842622 1.500918 -2.525272 0
M  V30 38 H 1.901189 2.748036 -0.600007 0
M  V30 39 H 1.533228 1.078723 -0.137000 0
M  V30 40 H 1.616657 2.199009 6.303991 0
M  V30 41 H 1.736266 -0.313293 6.108605 0
M  V30 42 H 1.261531 -1.357907 3.870517 0
M  V30 43 H 0.701166 -0.085894 1.956991 0
M  V30 44 H -1.164377 3.738968 -0.451822 0
M  V30 45 H -1.817969 3.007786 1.103019 0
M  V30 46 H -2.687878 2.156988 -1.108816 0
M  V30 47 H -2.215090 0.946897 0.131466 0
M  V30 48 H -2.166724 -5.778705 -1.415826 0
M  V30 49 H -0.215276 -7.301692 0.010129 0
M  V30 END ATOM
M  V30 BEGIN BOND
M  V30 1 2 1 2
M  V30 2 1 2 3
M  V30 3 1 3 4
M  V30 4 2 4 5
M  V30 5 1 5 6
M  V30 6 1 6 7
M  V30 7 1 7 8
M  V30 8 1 8 9
M  V30 9 1 9 10
M  V30 10 1 10 11
M  V30 11 1 11 12
M  V30 12 1 12 13
M  V30 13 2 13 14
M  V30 14 1 14 15
M  V30 15 1 15 16
M  V30 16 2 16 17
M  V30 17 1 17 18
M  V30 18 2 18 19
M  V30 19 1 19 20
M  V30 20 2 20 21
M  V30 21 1 12 22
M  V30 22 1 22 23
M  V30 23 2 6 24
M  V30 24 1 24 25
M  V30 25 1 24 26
M  V30 26 2 26 27
M  V30 27 1 27 28
M  V30 28 1 28 2
M  V30 29 1 27 4
M  V30 30 1 23 9
M  V30 31 1 21 13
M  V30 32 1 21 16
M  V30 33 1 3 29
M  V30 34 1 3 30
M  V30 35 1 5 31
M  V30 36 1 7 32
M  V30 37 1 7 33
M  V30 38 1 8 34
M  V30 39 1 8 35
M  V30 40 1 10 36
M  V30 41 1 10 37
M  V30 42 1 11 38
M  V30 43 1 11 39
M  V30 44 1 17 40
M  V30 45 1 18 41
M  V30 46 1 19 42
M  V30 47 1 20 43
M  V30 48 1 22 44
M  V30 49 1 22 45
M  V30 50 1 23 46
M  V30 51 1 23 47
M  V30 52 1 26 48
M  V30 53 1 28 49
M  V30 END BOND
M  V30 END CTAB
M  END
>  <Dataset>  (61) 
OralDrugs

>  <Ligand_Instance>  (61) 
nan

>  <PDB_ID>  (61) 
nan

>  <Standardized_SMILES>  (61) 
O=C1Cc2cc(CCN3CCN(c4nsc5ccccc45)CC3)c(Cl)cc2N1

>  <Name>  (61) 
Ziprasidone

>  <Pocket>  (61) 
nan

>  <ATP_Site>  (61) 
nan

>  <Peripheral>  (61) 
nan

>  <Num_H_Atoms_ProtBoundConf>  (61) 
nan

>  <Num_Resolved_Atoms>  (61) 
nan

>  <Num_Not_Resolved_Atoms>  (61) 
nan

>  <2D_Mol_H>  (61) 
<rdkit.Chem.rdchem.Mol object at 0x72a238bbda10>

>  <MW>  (61) 
412.946

>  <HBA>  (61) 
5

>  <HBD>  (61) 
1

>  <LogP>  (61) 
3.809

>  <NRB>  (61) 
4

>  <TPSA>  (61) 
48.47

>  <Num_Heavy_Atoms>  (61) 
28

>  <Ro5>  (61) 
[True, True, True, True, True, True]

>  <Ro5_Fulfilled>  (61) 
True

>  <Ro3>  (61) 
[False, False, True, False]

>  <Ro3_Fulfilled>  (61) 
False

>  <Fsp3>  (61) 
0.333333

>  <Fsp3_0.42>  (61) 
False

>  <Fsp3_0.45>  (61) 
False

>  <Stereogenic_Carbons>  (61) 
0

>  <C_Atoms>  (61) 
21

>  <FCStereo>  (61) 
0.0

>  <SPS>  (61) 
481

>  <nSPS>  (61) 
17.178571

>  <PBF>  (61) 
0.838574

>  <PBF_0.6>  (61) 
True

>  <nPBF>  (61) 
0.029949

>  <nPBF_0.016>  (61) 
True

>  <PMI1>  (61) 
2399.171651

>  <PMI2>  (61) 
5869.168922

>  <PMI3>  (61) 
7688.016087

>  <NPR1>  (61) 
0.312066

>  <NPR2>  (61) 
0.763418

>  <Sum_NPR>  (61) 
1.075484

>  <Sum_NPR_1.07>  (61) 
True

>  <Sum_NPR_1.2>  (61) 
False

>  <MaxAbsEStateIndex>  (61) 
11.566336

>  <MaxEStateIndex>  (61) 
11.566336

>  <MinAbsEStateIndex>  (61) 
0.04991

>  <MinEStateIndex>  (61) 
0.04991

>  <qed>  (61) 
0.707487

>  <MolWt>  (61) 
412.946

>  <HeavyAtomMolWt>  (61) 
391.778

>  <ExactMolWt>  (61) 
412.11246

>  <NumValenceElectrons>  (61) 
144

>  <NumRadicalElectrons>  (61) 
0

>  <MaxPartialCharge>  (61) 
0.228384

>  <MinPartialCharge>  (61) 
-0.352692

>  <MaxAbsPartialCharge>  (61) 
0.352692

>  <MinAbsPartialCharge>  (61) 
0.228384

>  <FpDensityMorgan1>  (61) 
1.142857

>  <FpDensityMorgan2>  (61) 
1.964286

>  <FpDensityMorgan3>  (61) 
2.821429

>  <BCUT2D_MWHI>  (61) 
35.495692

>  <BCUT2D_MWLOW>  (61) 
10.052628

>  <BCUT2D_CHGHI>  (61) 
2.221131

>  <BCUT2D_CHGLO>  (61) 
-2.347304

>  <BCUT2D_LOGPHI>  (61) 
2.31149

>  <BCUT2D_LOGPLOW>  (61) 
-2.466979

>  <BCUT2D_MRHI>  (61) 
7.133127

>  <BCUT2D_MRLOW>  (61) 
-0.114626

>  <AvgIpc>  (61) 
3.287074

>  <BalabanJ>  (61) 
1.203754

>  <BertzCT>  (61) 
1042.061661

>  <Chi0>  (61) 
19.087211

>  <Chi0n>  (61) 
15.449951

>  <Chi0v>  (61) 
17.022376

>  <Chi1>  (61) 
13.669836

>  <Chi1n>  (61) 
9.600868

>  <Chi1v>  (61) 
10.752229

>  <Chi2n>  (61) 
7.406747

>  <Chi2v>  (61) 
8.618922

>  <Chi3n>  (61) 
5.624954

>  <Chi3v>  (61) 
6.793719

>  <Chi4n>  (61) 
4.05319

>  <Chi4v>  (61) 
5.107081

>  <HallKierAlpha>  (61) 
-2.15

>  <Ipc>  (61) 
5377534.572193

>  <Kappa1>  (61) 
17.915324

>  <Kappa2>  (61) 
7.351297

>  <Kappa3>  (61) 
3.363099

>  <LabuteASA>  (61) 
172.613456

>  <PEOE_VSA1>  (61) 
10.216698

>  <PEOE_VSA10>  (61) 
5.817863

>  <PEOE_VSA11>  (61) 
0.0

>  <PEOE_VSA12>  (61) 
5.90718

>  <PEOE_VSA13>  (61) 
0.0

>  <PEOE_VSA14>  (61) 
0.0

>  <PEOE_VSA2>  (61) 
9.694447

>  <PEOE_VSA3>  (61) 
0.0

>  <PEOE_VSA4>  (61) 
4.37354

>  <PEOE_VSA5>  (61) 
0.0

>  <PEOE_VSA6>  (61) 
29.800041

>  <PEOE_VSA7>  (61) 
47.279312

>  <PEOE_VSA8>  (61) 
48.820026

>  <PEOE_VSA9>  (61) 
11.120742

>  <SMR_VSA1>  (61) 
4.794537

>  <SMR_VSA10>  (61) 
50.631999

>  <SMR_VSA2>  (61) 
0.0

>  <SMR_VSA3>  (61) 
9.27345

>  <SMR_VSA4>  (61) 
0.0

>  <SMR_VSA5>  (61) 
12.841643

>  <SMR_VSA6>  (61) 
42.94048

>  <SMR_VSA7>  (61) 
52.547739

>  <SMR_VSA8>  (61) 
0.0

>  <SMR_VSA9>  (61) 
0.0

>  <SlogP_VSA1>  (61) 
10.216698

>  <SlogP_VSA10>  (61) 
11.505249

>  <SlogP_VSA11>  (61) 
0.0

>  <SlogP_VSA12>  (61) 
23.133427

>  <SlogP_VSA2>  (61) 
47.904411

>  <SlogP_VSA3>  (61) 
17.63618

>  <SlogP_VSA4>  (61) 
0.0

>  <SlogP_VSA5>  (61) 
11.126903

>  <SlogP_VSA6>  (61) 
36.398202

>  <SlogP_VSA7>  (61) 
5.022633

>  <SlogP_VSA8>  (61) 
10.086144

>  <SlogP_VSA9>  (61) 
0.0

>  <EState_VSA1>  (61) 
0.0

>  <EState_VSA10>  (61) 
4.794537

>  <EState_VSA11>  (61) 
0.0

>  <EState_VSA2>  (61) 
5.90718

>  <EState_VSA3>  (61) 
6.420822

>  <EState_VSA4>  (61) 
66.799389

>  <EState_VSA5>  (61) 
10.086144

>  <EState_VSA6>  (61) 
11.532487

>  <EState_VSA7>  (61) 
6.066367

>  <EState_VSA8>  (61) 
49.821983

>  <EState_VSA9>  (61) 
11.60094

>  <VSA_EState1>  (61) 
5.935961

>  <VSA_EState10>  (61) 
8.012705

>  <VSA_EState2>  (61) 
16.448286

>  <VSA_EState3>  (61) 
4.8597

>  <VSA_EState4>  (61) 
3.053079

>  <VSA_EState5>  (61) 
1.174061

>  <VSA_EState6>  (61) 
12.4306

>  <VSA_EState7>  (61) 
1.360823

>  <VSA_EState8>  (61) 
5.002563

>  <VSA_EState9>  (61) 
0.0

>  <FractionCSP3>  (61) 
0.333333

>  <HeavyAtomCount>  (61) 
28

>  <NHOHCount>  (61) 
1

>  <NOCount>  (61) 
5

>  <NumAliphaticCarbocycles>  (61) 
0

>  <NumAliphaticHeterocycles>  (61) 
2

>  <NumAliphaticRings>  (61) 
2

>  <NumAromaticCarbocycles>  (61) 
2

>  <NumAromaticHeterocycles>  (61) 
1

>  <NumAromaticRings>  (61) 
3

>  <NumHAcceptors>  (61) 
5

>  <NumHDonors>  (61) 
1

>  <NumHeteroatoms>  (61) 
7

>  <NumRotatableBonds>  (61) 
4

>  <NumSaturatedCarbocycles>  (61) 
0

>  <NumSaturatedHeterocycles>  (61) 
1

>  <NumSaturatedRings>  (61) 
1

>  <RingCount>  (61) 
5

>  <MolLogP>  (61) 
3.809

>  <MolMR>  (61) 
115.7627

>  <fr_Al_COO>  (61) 
0

>  <fr_Al_OH>  (61) 
0

>  <fr_Al_OH_noTert>  (61) 
0

>  <fr_ArN>  (61) 
0

>  <fr_Ar_COO>  (61) 
0

>  <fr_Ar_N>  (61) 
1

>  <fr_Ar_NH>  (61) 
0

>  <fr_Ar_OH>  (61) 
0

>  <fr_COO>  (61) 
0

>  <fr_COO2>  (61) 
0

>  <fr_C_O>  (61) 
1

>  <fr_C_O_noCOO>  (61) 
1

>  <fr_C_S>  (61) 
0

>  <fr_HOCCN>  (61) 
0

>  <fr_Imine>  (61) 
0

>  <fr_NH0>  (61) 
3

>  <fr_NH1>  (61) 
1

>  <fr_NH2>  (61) 
0

>  <fr_N_O>  (61) 
0

>  <fr_Ndealkylation1>  (61) 
0

>  <fr_Ndealkylation2>  (61) 
0

>  <fr_Nhpyrrole>  (61) 
0

>  <fr_SH>  (61) 
0

>  <fr_aldehyde>  (61) 
0

>  <fr_alkyl_carbamate>  (61) 
0

>  <fr_alkyl_halide>  (61) 
0

>  <fr_allylic_oxid>  (61) 
0

>  <fr_amide>  (61) 
1

>  <fr_amidine>  (61) 
0

>  <fr_aniline>  (61) 
2

>  <fr_aryl_methyl>  (61) 
0

>  <fr_azide>  (61) 
0

>  <fr_azo>  (61) 
0

>  <fr_barbitur>  (61) 
0

>  <fr_benzene>  (61) 
2

>  <fr_benzodiazepine>  (61) 
0

>  <fr_bicyclic>  (61) 
2

>  <fr_diazo>  (61) 
0

>  <fr_dihydropyridine>  (61) 
0

>  <fr_epoxide>  (61) 
0

>  <fr_ester>  (61) 
0

>  <fr_ether>  (61) 
0

>  <fr_furan>  (61) 
0

>  <fr_guanido>  (61) 
0

>  <fr_halogen>  (61) 
1

>  <fr_hdrzine>  (61) 
0

>  <fr_hdrzone>  (61) 
0

>  <fr_imidazole>  (61) 
0

>  <fr_imide>  (61) 
0

>  <fr_isocyan>  (61) 
0

>  <fr_isothiocyan>  (61) 
0

>  <fr_ketone>  (61) 
0

>  <fr_ketone_Topliss>  (61) 
0

>  <fr_lactam>  (61) 
0

>  <fr_lactone>  (61) 
0

>  <fr_methoxy>  (61) 
0

>  <fr_morpholine>  (61) 
0

>  <fr_nitrile>  (61) 
0

>  <fr_nitro>  (61) 
0

>  <fr_nitro_arom>  (61) 
0

>  <fr_nitro_arom_nonortho>  (61) 
0

>  <fr_nitroso>  (61) 
0

>  <fr_oxazole>  (61) 
0

>  <fr_oxime>  (61) 
0

>  <fr_para_hydroxylation>  (61) 
0

>  <fr_phenol>  (61) 
0

>  <fr_phenol_noOrthoHbond>  (61) 
0

>  <fr_phos_acid>  (61) 
0

>  <fr_phos_ester>  (61) 
0

>  <fr_piperdine>  (61) 
0

>  <fr_piperzine>  (61) 
1

>  <fr_priamide>  (61) 
0

>  <fr_prisulfonamd>  (61) 
0

>  <fr_pyridine>  (61) 
0

>  <fr_quatN>  (61) 
0

>  <fr_sulfide>  (61) 
0

>  <fr_sulfonamd>  (61) 
0

>  <fr_sulfone>  (61) 
0

>  <fr_term_acetylene>  (61) 
0

>  <fr_tetrazole>  (61) 
0

>  <fr_thiazole>  (61) 
0

>  <fr_thiocyan>  (61) 
0

>  <fr_thiophene>  (61) 
0

>  <fr_unbrch_alkane>  (61) 
0

>  <fr_urea>  (61) 
0

>  <NP_Likeness>  (61) 
-1.569177

$$$$
CHEMBL1185
     RDKit          3D

  0  0  0  0  0  0  0  0  0  0999 V3000
M  V30 BEGIN CTAB
M  V30 COUNTS 42 44 0 0 0
M  V30 BEGIN ATOM
M  V30 1 C -0.004185 -4.076885 2.219101 0
M  V30 2 N -0.159478 -4.484170 0.832855 0
M  V30 3 C -1.506815 -4.997570 0.700894 0
M  V30 4 C 0.098812 -3.400774 -0.093198 0
M  V30 5 C -0.988661 -2.376197 0.049197 0
M  V30 6 C -0.799881 -1.221856 -0.873580 0
M  V30 7 C -1.411970 -0.857005 -2.057090 0
M  V30 8 N -0.839204 0.287728 -2.461353 0
M  V30 9 C 0.107636 0.660049 -1.583509 0
M  V30 10 C 0.928399 1.767927 -1.621921 0
M  V30 11 C 1.845934 1.939633 -0.580004 0
M  V30 12 C 1.927402 1.036932 0.446335 0
M  V30 13 C 2.907098 1.231007 1.545958 0
M  V30 14 C 2.345216 2.030189 2.685280 0 CFG=1
M  V30 15 C 1.895295 3.408382 2.325178 0
M  V30 16 O 0.509021 3.279170 2.056205 0
M  V30 17 C 0.050766 2.224486 2.831534 0
M  V30 18 O -1.085673 1.834166 3.265020 0
M  V30 19 N 1.159726 1.390233 3.220673 0
M  V30 20 C 1.094300 -0.086656 0.484426 0
M  V30 21 C 0.173981 -0.270389 -0.549019 0
M  V30 22 H -0.870427 -3.455329 2.580100 0
M  V30 23 H -0.046623 -5.023408 2.820957 0
M  V30 24 H 0.948662 -3.573057 2.431600 0
M  V30 25 H -2.234065 -4.422771 1.311979 0
M  V30 26 H -1.818634 -4.984141 -0.354091 0
M  V30 27 H -1.467789 -6.060289 1.032805 0
M  V30 28 H 1.104613 -3.008293 0.098325 0
M  V30 29 H 0.107266 -3.853592 -1.103262 0
M  V30 30 H -1.025846 -2.048415 1.110383 0
M  V30 31 H -1.945929 -2.913162 -0.133048 0
M  V30 32 H -2.199388 -1.460317 -2.488724 0
M  V30 33 H -1.171565 0.738266 -3.360328 0
M  V30 34 H 0.853393 2.475542 -2.439599 0
M  V30 35 H 2.470979 2.829542 -0.654890 0
M  V30 36 H 3.856224 1.658740 1.173187 0
M  V30 37 H 3.155178 0.228903 1.953252 0
M  V30 38 H 3.094801 2.099862 3.479673 0
M  V30 39 H 1.972410 4.098328 3.198880 0
M  V30 40 H 2.464513 3.881791 1.500286 0
M  V30 41 H 1.245852 0.502099 3.760728 0
M  V30 42 H 1.123546 -0.821245 1.270518 0
M  V30 END ATOM
M  V30 BEGIN BOND
M  V30 1 1 1 2
M  V30 2 1 2 3
M  V30 3 1 2 4
M  V30 4 1 4 5
M  V30 5 1 5 6
M  V30 6 2 6 7
M  V30 7 1 7 8
M  V30 8 1 8 9
M  V30 9 2 9 10
M  V30 10 1 10 11
M  V30 11 2 11 12
M  V30 12 1 12 13
M  V30 13 1 13 14
M  V30 14 1 14 15
M  V30 15 1 15 16
M  V30 16 1 16 17
M  V30 17 2 17 18
M  V30 18 1 17 19
M  V30 19 1 12 20
M  V30 20 2 20 21
M  V30 21 1 21 6
M  V30 22 1 21 9
M  V30 23 1 19 14
M  V30 24 1 1 22
M  V30 25 1 1 23
M  V30 26 1 1 24
M  V30 27 1 3 25
M  V30 28 1 3 26
M  V30 29 1 3 27
M  V30 30 1 4 28
M  V30 31 1 4 29
M  V30 32 1 5 30
M  V30 33 1 5 31
M  V30 34 1 7 32
M  V30 35 1 8 33
M  V30 36 1 10 34
M  V30 37 1 11 35
M  V30 38 1 13 36
M  V30 39 1 13 37
M  V30 40 1 14 38 CFG=1
M  V30 41 1 15 39
M  V30 42 1 15 40
M  V30 43 1 19 41
M  V30 44 1 20 42
M  V30 END BOND
M  V30 END CTAB
M  END
>  <Dataset>  (62) 
OralDrugs

>  <Ligand_Instance>  (62) 
nan

>  <PDB_ID>  (62) 
nan

>  <Standardized_SMILES>  (62) 
CN(C)CCc1c[nH]c2ccc(C[C@H]3COC(=O)N3)cc12

>  <Name>  (62) 
Zolmitriptan

>  <Pocket>  (62) 
nan

>  <ATP_Site>  (62) 
nan

>  <Peripheral>  (62) 
nan

>  <Num_H_Atoms_ProtBoundConf>  (62) 
nan

>  <Num_Resolved_Atoms>  (62) 
nan

>  <Num_Not_Resolved_Atoms>  (62) 
nan

>  <2D_Mol_H>  (62) 
<rdkit.Chem.rdchem.Mol object at 0x72a238bbdaf0>

>  <MW>  (62) 
287.363

>  <HBA>  (62) 
3

>  <HBD>  (62) 
2

>  <LogP>  (62) 
1.9229

>  <NRB>  (62) 
7

>  <TPSA>  (62) 
57.36

>  <Num_Heavy_Atoms>  (62) 
21

>  <Ro5>  (62) 
[True, True, True, True, True, True]

>  <Ro5_Fulfilled>  (62) 
True

>  <Ro3>  (62) 
[True, True, True, True]

>  <Ro3_Fulfilled>  (62) 
True

>  <Fsp3>  (62) 
0.4375

>  <Fsp3_0.42>  (62) 
True

>  <Fsp3_0.45>  (62) 
False

>  <Stereogenic_Carbons>  (62) 
1

>  <C_Atoms>  (62) 
16

>  <FCStereo>  (62) 
0.0625

>  <SPS>  (62) 
383

>  <nSPS>  (62) 
18.238095

>  <PBF>  (62) 
0.818406

>  <PBF_0.6>  (62) 
True

>  <nPBF>  (62) 
0.038972

>  <nPBF_0.016>  (62) 
True

>  <PMI1>  (62) 
1136.784414

>  <PMI2>  (62) 
2422.860814

>  <PMI3>  (62) 
2966.685018

>  <NPR1>  (62) 
0.383183

>  <NPR2>  (62) 
0.81669

>  <Sum_NPR>  (62) 
1.199873

>  <Sum_NPR_1.07>  (62) 
True

>  <Sum_NPR_1.2>  (62) 
False

>  <MaxAbsEStateIndex>  (62) 
11.074863

>  <MaxEStateIndex>  (62) 
11.074863

>  <MinAbsEStateIndex>  (62) 
0.082516

>  <MinEStateIndex>  (62) 
-0.310746

>  <qed>  (62) 
0.883131

>  <MolWt>  (62) 
287.363

>  <HeavyAtomMolWt>  (62) 
266.195

>  <ExactMolWt>  (62) 
287.163377

>  <NumValenceElectrons>  (62) 
112

>  <NumRadicalElectrons>  (62) 
0

>  <MaxPartialCharge>  (62) 
0.407051

>  <MinPartialCharge>  (62) 
-0.447355

>  <MaxAbsPartialCharge>  (62) 
0.447355

>  <MinAbsPartialCharge>  (62) 
0.407051

>  <FpDensityMorgan1>  (62) 
1.380952

>  <FpDensityMorgan2>  (62) 
2.238095

>  <FpDensityMorgan3>  (62) 
2.952381

>  <BCUT2D_MWHI>  (62) 
16.559061

>  <BCUT2D_MWLOW>  (62) 
10.023302

>  <BCUT2D_CHGHI>  (62) 
2.21847

>  <BCUT2D_CHGLO>  (62) 
-2.094904

>  <BCUT2D_LOGPHI>  (62) 
2.214032

>  <BCUT2D_LOGPLOW>  (62) 
-2.276216

>  <BCUT2D_MRHI>  (62) 
5.835835

>  <BCUT2D_MRLOW>  (62) 
0.176523

>  <AvgIpc>  (62) 
3.025871

>  <BalabanJ>  (62) 
1.773955

>  <BertzCT>  (62) 
648.009549

>  <Chi0>  (62) 
14.819626

>  <Chi0n>  (62) 
12.478889

>  <Chi0v>  (62) 
12.478889

>  <Chi1>  (62) 
10.114194

>  <Chi1n>  (62) 
7.285241

>  <Chi1v>  (62) 
7.285241

>  <Chi2n>  (62) 
5.890972

>  <Chi2v>  (62) 
5.890972

>  <Chi3n>  (62) 
3.879878

>  <Chi3v>  (62) 
3.879878

>  <Chi4n>  (62) 
2.724181

>  <Chi4v>  (62) 
2.724181

>  <HallKierAlpha>  (62) 
-2.01

>  <Ipc>  (62) 
92019.76487

>  <Kappa1>  (62) 
13.949621

>  <Kappa2>  (62) 
5.773843

>  <Kappa3>  (62) 
3.187055

>  <LabuteASA>  (62) 
123.820697

>  <PEOE_VSA1>  (62) 
19.93754

>  <PEOE_VSA10>  (62) 
6.606882

>  <PEOE_VSA11>  (62) 
0.0

>  <PEOE_VSA12>  (62) 
0.0

>  <PEOE_VSA13>  (62) 
0.0

>  <PEOE_VSA14>  (62) 
6.09324

>  <PEOE_VSA2>  (62) 
0.0

>  <PEOE_VSA3>  (62) 
4.794537

>  <PEOE_VSA4>  (62) 
0.0

>  <PEOE_VSA5>  (62) 
0.0

>  <PEOE_VSA6>  (62) 
6.066367

>  <PEOE_VSA7>  (62) 
50.196624

>  <PEOE_VSA8>  (62) 
23.644525

>  <PEOE_VSA9>  (62) 
6.041841

>  <SMR_VSA1>  (62) 
9.5314

>  <SMR_VSA10>  (62) 
16.996165

>  <SMR_VSA2>  (62) 
0.0

>  <SMR_VSA3>  (62) 
15.200677

>  <SMR_VSA4>  (62) 
0.0

>  <SMR_VSA5>  (62) 
18.883484

>  <SMR_VSA6>  (62) 
27.246982

>  <SMR_VSA7>  (62) 
35.522848

>  <SMR_VSA8>  (62) 
0.0

>  <SMR_VSA9>  (62) 
0.0

>  <SlogP_VSA1>  (62) 
5.316789

>  <SlogP_VSA10>  (62) 
4.794537

>  <SlogP_VSA11>  (62) 
0.0

>  <SlogP_VSA12>  (62) 
0.0

>  <SlogP_VSA2>  (62) 
49.265951

>  <SlogP_VSA3>  (62) 
17.578506

>  <SlogP_VSA4>  (62) 
0.0

>  <SlogP_VSA5>  (62) 
11.126903

>  <SlogP_VSA6>  (62) 
24.395945

>  <SlogP_VSA7>  (62) 
0.0

>  <SlogP_VSA8>  (62) 
10.902925

>  <SlogP_VSA9>  (62) 
0.0

>  <EState_VSA1>  (62) 
0.0

>  <EState_VSA10>  (62) 
4.794537

>  <EState_VSA11>  (62) 
0.0

>  <EState_VSA2>  (62) 
12.135081

>  <EState_VSA3>  (62) 
6.606882

>  <EState_VSA4>  (62) 
19.3864

>  <EState_VSA5>  (62) 
22.029828

>  <EState_VSA6>  (62) 
0.0

>  <EState_VSA7>  (62) 
0.0

>  <EState_VSA8>  (62) 
53.691966

>  <EState_VSA9>  (62) 
4.736863

>  <VSA_EState1>  (62) 
4.937067

>  <VSA_EState10>  (62) 
0.0

>  <VSA_EState2>  (62) 
16.590296

>  <VSA_EState3>  (62) 
4.100693

>  <VSA_EState4>  (62) 
3.731921

>  <VSA_EState5>  (62) 
0.0

>  <VSA_EState6>  (62) 
6.528741

>  <VSA_EState7>  (62) 
3.617937

>  <VSA_EState8>  (62) 
1.487299

>  <VSA_EState9>  (62) 
4.172714

>  <FractionCSP3>  (62) 
0.4375

>  <HeavyAtomCount>  (62) 
21

>  <NHOHCount>  (62) 
2

>  <NOCount>  (62) 
5

>  <NumAliphaticCarbocycles>  (62) 
0

>  <NumAliphaticHeterocycles>  (62) 
1

>  <NumAliphaticRings>  (62) 
1

>  <NumAromaticCarbocycles>  (62) 
1

>  <NumAromaticHeterocycles>  (62) 
1

>  <NumAromaticRings>  (62) 
2

>  <NumHAcceptors>  (62) 
3

>  <NumHDonors>  (62) 
2

>  <NumHeteroatoms>  (62) 
5

>  <NumRotatableBonds>  (62) 
5

>  <NumSaturatedCarbocycles>  (62) 
0

>  <NumSaturatedHeterocycles>  (62) 
1

>  <NumSaturatedRings>  (62) 
1

>  <RingCount>  (62) 
3

>  <MolLogP>  (62) 
1.9229

>  <MolMR>  (62) 
82.5324

>  <fr_Al_COO>  (62) 
0

>  <fr_Al_OH>  (62) 
0

>  <fr_Al_OH_noTert>  (62) 
0

>  <fr_ArN>  (62) 
0

>  <fr_Ar_COO>  (62) 
0

>  <fr_Ar_N>  (62) 
1

>  <fr_Ar_NH>  (62) 
1

>  <fr_Ar_OH>  (62) 
0

>  <fr_COO>  (62) 
0

>  <fr_COO2>  (62) 
0

>  <fr_C_O>  (62) 
1

>  <fr_C_O_noCOO>  (62) 
1

>  <fr_C_S>  (62) 
0

>  <fr_HOCCN>  (62) 
0

>  <fr_Imine>  (62) 
0

>  <fr_NH0>  (62) 
1

>  <fr_NH1>  (62) 
2

>  <fr_NH2>  (62) 
0

>  <fr_N_O>  (62) 
0

>  <fr_Ndealkylation1>  (62) 
1

>  <fr_Ndealkylation2>  (62) 
0

>  <fr_Nhpyrrole>  (62) 
1

>  <fr_SH>  (62) 
0

>  <fr_aldehyde>  (62) 
0

>  <fr_alkyl_carbamate>  (62) 
1

>  <fr_alkyl_halide>  (62) 
0

>  <fr_allylic_oxid>  (62) 
0

>  <fr_amide>  (62) 
1

>  <fr_amidine>  (62) 
0

>  <fr_aniline>  (62) 
0

>  <fr_aryl_methyl>  (62) 
0

>  <fr_azide>  (62) 
0

>  <fr_azo>  (62) 
0

>  <fr_barbitur>  (62) 
0

>  <fr_benzene>  (62) 
1

>  <fr_benzodiazepine>  (62) 
0

>  <fr_bicyclic>  (62) 
1

>  <fr_diazo>  (62) 
0

>  <fr_dihydropyridine>  (62) 
0

>  <fr_epoxide>  (62) 
0

>  <fr_ester>  (62) 
0

>  <fr_ether>  (62) 
1

>  <fr_furan>  (62) 
0

>  <fr_guanido>  (62) 
0

>  <fr_halogen>  (62) 
0

>  <fr_hdrzine>  (62) 
0

>  <fr_hdrzone>  (62) 
0

>  <fr_imidazole>  (62) 
0

>  <fr_imide>  (62) 
0

>  <fr_isocyan>  (62) 
0

>  <fr_isothiocyan>  (62) 
0

>  <fr_ketone>  (62) 
0

>  <fr_ketone_Topliss>  (62) 
0

>  <fr_lactam>  (62) 
0

>  <fr_lactone>  (62) 
1

>  <fr_methoxy>  (62) 
0

>  <fr_morpholine>  (62) 
0

>  <fr_nitrile>  (62) 
0

>  <fr_nitro>  (62) 
0

>  <fr_nitro_arom>  (62) 
0

>  <fr_nitro_arom_nonortho>  (62) 
0

>  <fr_nitroso>  (62) 
0

>  <fr_oxazole>  (62) 
0

>  <fr_oxime>  (62) 
0

>  <fr_para_hydroxylation>  (62) 
0

>  <fr_phenol>  (62) 
0

>  <fr_phenol_noOrthoHbond>  (62) 
0

>  <fr_phos_acid>  (62) 
0

>  <fr_phos_ester>  (62) 
0

>  <fr_piperdine>  (62) 
0

>  <fr_piperzine>  (62) 
0

>  <fr_priamide>  (62) 
0

>  <fr_prisulfonamd>  (62) 
0

>  <fr_pyridine>  (62) 
0

>  <fr_quatN>  (62) 
0

>  <fr_sulfide>  (62) 
0

>  <fr_sulfonamd>  (62) 
0

>  <fr_sulfone>  (62) 
0

>  <fr_term_acetylene>  (62) 
0

>  <fr_tetrazole>  (62) 
0

>  <fr_thiazole>  (62) 
0

>  <fr_thiocyan>  (62) 
0

>  <fr_thiophene>  (62) 
0

>  <fr_unbrch_alkane>  (62) 
0

>  <fr_urea>  (62) 
0

>  <NP_Likeness>  (62) 
0.140205

$$$$
CHEMBL911
     RDKit          3D

  0  0  0  0  0  0  0  0  0  0999 V3000
M  V30 BEGIN CTAB
M  V30 COUNTS 44 46 0 0 0
M  V30 BEGIN ATOM
M  V30 1 C 0.251695 -3.980153 5.550267 0
M  V30 2 C 0.294737 -2.866547 4.558970 0
M  V30 3 C 1.404598 -2.723553 3.776110 0
M  V30 4 C 1.454403 -1.712283 2.870384 0
M  V30 5 C 0.452794 -0.799554 2.674017 0
M  V30 6 C 0.416693 0.310147 1.729134 0
M  V30 7 N -0.006076 1.522768 2.200092 0
M  V30 8 C 0.023326 2.417388 1.195254 0
M  V30 9 C -0.293534 3.777801 1.099402 0
M  V30 10 C -0.172298 4.479131 -0.077856 0
M  V30 11 C 0.282555 3.759467 -1.165502 0
M  V30 12 C 0.415717 4.515172 -2.444397 0
M  V30 13 C 0.608496 2.415905 -1.122685 0
M  V30 14 N 0.464380 1.796580 0.063908 0
M  V30 15 C 0.701760 0.514868 0.395380 0
M  V30 16 C 1.180755 -0.580473 -0.438077 0
M  V30 17 C 0.072995 -1.526405 -0.816120 0
M  V30 18 O -1.132231 -1.385641 -0.452605 0
M  V30 19 N 0.323183 -2.664941 -1.626598 0
M  V30 20 C -0.810593 -3.490811 -1.922830 0
M  V30 21 C 1.610764 -3.048017 -2.165672 0
M  V30 22 C -0.652375 -1.012185 3.514600 0
M  V30 23 C -0.766865 -2.010285 4.447482 0
M  V30 24 H 1.281402 -4.277148 5.834180 0
M  V30 25 H -0.325278 -3.668000 6.456489 0
M  V30 26 H -0.256475 -4.852909 5.107884 0
M  V30 27 H 2.250214 -3.391607 3.852853 0
M  V30 28 H 2.330958 -1.596082 2.253758 0
M  V30 29 H -0.638847 4.260471 1.988876 0
M  V30 30 H -0.419863 5.535968 -0.146938 0
M  V30 31 H 1.253992 4.059848 -3.010387 0
M  V30 32 H 0.489958 5.593625 -2.306001 0
M  V30 33 H -0.505800 4.252462 -3.037025 0
M  V30 34 H 0.963600 1.871091 -1.988068 0
M  V30 35 H 1.998874 -1.181210 -0.062479 0
M  V30 36 H 1.571077 -0.116758 -1.393322 0
M  V30 37 H -1.734841 -2.848071 -2.003804 0
M  V30 38 H -0.974303 -4.251470 -1.121439 0
M  V30 39 H -0.716544 -3.957931 -2.933999 0
M  V30 40 H 1.611397 -2.928946 -3.277035 0
M  V30 41 H 1.827328 -4.096294 -1.870703 0
M  V30 42 H 2.427578 -2.394590 -1.757798 0
M  V30 43 H -1.493725 -0.309786 3.405836 0
M  V30 44 H -1.667697 -2.081863 5.044053 0
M  V30 END ATOM
M  V30 BEGIN BOND
M  V30 1 1 1 2
M  V30 2 2 2 3
M  V30 3 1 3 4
M  V30 4 2 4 5
M  V30 5 1 5 6
M  V30 6 1 6 7
M  V30 7 2 7 8
M  V30 8 1 8 9
M  V30 9 2 9 10
M  V30 10 1 10 11
M  V30 11 1 11 12
M  V30 12 2 11 13
M  V30 13 1 13 14
M  V30 14 1 14 15
M  V30 15 1 15 16
M  V30 16 1 16 17
M  V30 17 2 17 18
M  V30 18 1 17 19
M  V30 19 1 19 20
M  V30 20 1 19 21
M  V30 21 1 5 22
M  V30 22 2 22 23
M  V30 23 1 23 2
M  V30 24 2 15 6
M  V30 25 1 14 8
M  V30 26 1 1 24
M  V30 27 1 1 25
M  V30 28 1 1 26
M  V30 29 1 3 27
M  V30 30 1 4 28
M  V30 31 1 9 29
M  V30 32 1 10 30
M  V30 33 1 12 31
M  V30 34 1 12 32
M  V30 35 1 12 33
M  V30 36 1 13 34
M  V30 37 1 16 35
M  V30 38 1 16 36
M  V30 39 1 20 37
M  V30 40 1 20 38
M  V30 41 1 20 39
M  V30 42 1 21 40
M  V30 43 1 21 41
M  V30 44 1 21 42
M  V30 45 1 22 43
M  V30 46 1 23 44
M  V30 END BOND
M  V30 END CTAB
M  END
>  <Dataset>  (63) 
OralDrugs

>  <Ligand_Instance>  (63) 
nan

>  <PDB_ID>  (63) 
nan

>  <Standardized_SMILES>  (63) 
Cc1ccc(-c2nc3ccc(C)cn3c2CC(=O)N(C)C)cc1

>  <Name>  (63) 
Zolpidem

>  <Pocket>  (63) 
nan

>  <ATP_Site>  (63) 
nan

>  <Peripheral>  (63) 
nan

>  <Num_H_Atoms_ProtBoundConf>  (63) 
nan

>  <Num_Resolved_Atoms>  (63) 
nan

>  <Num_Not_Resolved_Atoms>  (63) 
nan

>  <2D_Mol_H>  (63) 
<rdkit.Chem.rdchem.Mol object at 0x72a238bbdbd0>

>  <MW>  (63) 
307.397

>  <HBA>  (63) 
3

>  <HBD>  (63) 
0

>  <LogP>  (63) 
3.24884

>  <NRB>  (63) 
7

>  <TPSA>  (63) 
37.61

>  <Num_Heavy_Atoms>  (63) 
23

>  <Ro5>  (63) 
[True, True, True, True, True, True]

>  <Ro5_Fulfilled>  (63) 
True

>  <Ro3>  (63) 
[False, True, True, False]

>  <Ro3_Fulfilled>  (63) 
False

>  <Fsp3>  (63) 
0.263158

>  <Fsp3_0.42>  (63) 
False

>  <Fsp3_0.45>  (63) 
False

>  <Stereogenic_Carbons>  (63) 
0

>  <C_Atoms>  (63) 
19

>  <FCStereo>  (63) 
0.0

>  <SPS>  (63) 
252

>  <nSPS>  (63) 
10.956522

>  <PBF>  (63) 
0.836646

>  <PBF_0.6>  (63) 
True

>  <nPBF>  (63) 
0.036376

>  <nPBF_0.016>  (63) 
True

>  <PMI1>  (63) 
1459.548242

>  <PMI2>  (63) 
2862.48855

>  <PMI3>  (63) 
3955.625533

>  <NPR1>  (63) 
0.36898

>  <NPR2>  (63) 
0.72365

>  <Sum_NPR>  (63) 
1.09263

>  <Sum_NPR_1.07>  (63) 
True

>  <Sum_NPR_1.2>  (63) 
False

>  <MaxAbsEStateIndex>  (63) 
12.261273

>  <MaxEStateIndex>  (63) 
12.261273

>  <MinAbsEStateIndex>  (63) 
0.070989

>  <MinEStateIndex>  (63) 
0.070989

>  <qed>  (63) 
0.744697

>  <MolWt>  (63) 
307.397

>  <HeavyAtomMolWt>  (63) 
286.229

>  <ExactMolWt>  (63) 
307.168462

>  <NumValenceElectrons>  (63) 
118

>  <NumRadicalElectrons>  (63) 
0

>  <MaxPartialCharge>  (63) 
0.227589

>  <MinPartialCharge>  (63) 
-0.348485

>  <MaxAbsPartialCharge>  (63) 
0.348485

>  <MinAbsPartialCharge>  (63) 
0.227589

>  <FpDensityMorgan1>  (63) 
1.043478

>  <FpDensityMorgan2>  (63) 
1.695652

>  <FpDensityMorgan3>  (63) 
2.347826

>  <BCUT2D_MWHI>  (63) 
16.152093

>  <BCUT2D_MWLOW>  (63) 
10.065564

>  <BCUT2D_CHGHI>  (63) 
2.175524

>  <BCUT2D_CHGLO>  (63) 
-2.112353

>  <BCUT2D_LOGPHI>  (63) 
2.256948

>  <BCUT2D_LOGPLOW>  (63) 
-2.239118

>  <BCUT2D_MRHI>  (63) 
5.809396

>  <BCUT2D_MRLOW>  (63) 
-0.127527

>  <AvgIpc>  (63) 
2.857884

>  <BalabanJ>  (63) 
2.190011

>  <BertzCT>  (63) 
860.202152

>  <Chi0>  (63) 
16.560113

>  <Chi0n>  (63) 
13.998448

>  <Chi0v>  (63) 
13.998448

>  <Chi1>  (63) 
10.952397

>  <Chi1n>  (63) 
7.702617

>  <Chi1v>  (63) 
7.702617

>  <Chi2n>  (63) 
6.172723

>  <Chi2v>  (63) 
6.172723

>  <Chi3n>  (63) 
4.007823

>  <Chi3v>  (63) 
4.007823

>  <Chi4n>  (63) 
2.612428

>  <Chi4v>  (63) 
2.612428

>  <HallKierAlpha>  (63) 
-2.62

>  <Ipc>  (63) 
190014.973122

>  <Kappa1>  (63) 
15.2824

>  <Kappa2>  (63) 
5.875869

>  <Kappa3>  (63) 
2.972205

>  <LabuteASA>  (63) 
135.937314

>  <PEOE_VSA1>  (63) 
9.300604

>  <PEOE_VSA10>  (63) 
5.647177

>  <PEOE_VSA11>  (63) 
0.0

>  <PEOE_VSA12>  (63) 
5.90718

>  <PEOE_VSA13>  (63) 
0.0

>  <PEOE_VSA14>  (63) 
0.0

>  <PEOE_VSA2>  (63) 
4.794537

>  <PEOE_VSA3>  (63) 
4.983979

>  <PEOE_VSA4>  (63) 
0.0

>  <PEOE_VSA5>  (63) 
0.0

>  <PEOE_VSA6>  (63) 
35.895287

>  <PEOE_VSA7>  (63) 
25.477293

>  <PEOE_VSA8>  (63) 
25.855639

>  <PEOE_VSA9>  (63) 
17.808678

>  <SMR_VSA1>  (63) 
4.794537

>  <SMR_VSA10>  (63) 
11.554357

>  <SMR_VSA2>  (63) 
0.0

>  <SMR_VSA3>  (63) 
14.284583

>  <SMR_VSA4>  (63) 
0.0

>  <SMR_VSA5>  (63) 
20.268296

>  <SMR_VSA6>  (63) 
14.095344

>  <SMR_VSA7>  (63) 
59.415877

>  <SMR_VSA8>  (63) 
0.0

>  <SMR_VSA9>  (63) 
11.257379

>  <SlogP_VSA1>  (63) 
0.0

>  <SlogP_VSA10>  (63) 
0.0

>  <SlogP_VSA11>  (63) 
0.0

>  <SlogP_VSA12>  (63) 
0.0

>  <SlogP_VSA2>  (63) 
34.287107

>  <SlogP_VSA3>  (63) 
11.215359

>  <SlogP_VSA4>  (63) 
13.847474

>  <SlogP_VSA5>  (63) 
16.820831

>  <SlogP_VSA6>  (63) 
42.595046

>  <SlogP_VSA7>  (63) 
0.0

>  <SlogP_VSA8>  (63) 
16.904557

>  <SlogP_VSA9>  (63) 
0.0

>  <EState_VSA1>  (63) 
0.0

>  <EState_VSA10>  (63) 
4.794537

>  <EState_VSA11>  (63) 
0.0

>  <EState_VSA2>  (63) 
5.90718

>  <EState_VSA3>  (63) 
6.420822

>  <EState_VSA4>  (63) 
28.161936

>  <EState_VSA5>  (63) 
5.563451

>  <EState_VSA6>  (63) 
18.995254

>  <EState_VSA7>  (63) 
29.65401

>  <EState_VSA8>  (63) 
31.189205

>  <EState_VSA9>  (63) 
4.983979

>  <VSA_EState1>  (63) 
2.033655

>  <VSA_EState10>  (63) 
0.0

>  <VSA_EState2>  (63) 
18.638739

>  <VSA_EState3>  (63) 
0.0

>  <VSA_EState4>  (63) 
6.075443

>  <VSA_EState5>  (63) 
0.070989

>  <VSA_EState6>  (63) 
12.306497

>  <VSA_EState7>  (63) 
2.374133

>  <VSA_EState8>  (63) 
4.106974

>  <VSA_EState9>  (63) 
3.560237

>  <FractionCSP3>  (63) 
0.263158

>  <HeavyAtomCount>  (63) 
23

>  <NHOHCount>  (63) 
0

>  <NOCount>  (63) 
4

>  <NumAliphaticCarbocycles>  (63) 
0

>  <NumAliphaticHeterocycles>  (63) 
0

>  <NumAliphaticRings>  (63) 
0

>  <NumAromaticCarbocycles>  (63) 
1

>  <NumAromaticHeterocycles>  (63) 
2

>  <NumAromaticRings>  (63) 
3

>  <NumHAcceptors>  (63) 
3

>  <NumHDonors>  (63) 
0

>  <NumHeteroatoms>  (63) 
4

>  <NumRotatableBonds>  (63) 
3

>  <NumSaturatedCarbocycles>  (63) 
0

>  <NumSaturatedHeterocycles>  (63) 
0

>  <NumSaturatedRings>  (63) 
0

>  <RingCount>  (63) 
3

>  <MolLogP>  (63) 
3.24884

>  <MolMR>  (63) 
92.5

>  <fr_Al_COO>  (63) 
0

>  <fr_Al_OH>  (63) 
0

>  <fr_Al_OH_noTert>  (63) 
0

>  <fr_ArN>  (63) 
0

>  <fr_Ar_COO>  (63) 
0

>  <fr_Ar_N>  (63) 
2

>  <fr_Ar_NH>  (63) 
0

>  <fr_Ar_OH>  (63) 
0

>  <fr_COO>  (63) 
0

>  <fr_COO2>  (63) 
0

>  <fr_C_O>  (63) 
1

>  <fr_C_O_noCOO>  (63) 
1

>  <fr_C_S>  (63) 
0

>  <fr_HOCCN>  (63) 
0

>  <fr_Imine>  (63) 
0

>  <fr_NH0>  (63) 
3

>  <fr_NH1>  (63) 
0

>  <fr_NH2>  (63) 
0

>  <fr_N_O>  (63) 
0

>  <fr_Ndealkylation1>  (63) 
1

>  <fr_Ndealkylation2>  (63) 
0

>  <fr_Nhpyrrole>  (63) 
0

>  <fr_SH>  (63) 
0

>  <fr_aldehyde>  (63) 
0

>  <fr_alkyl_carbamate>  (63) 
0

>  <fr_alkyl_halide>  (63) 
0

>  <fr_allylic_oxid>  (63) 
0

>  <fr_amide>  (63) 
1

>  <fr_amidine>  (63) 
0

>  <fr_aniline>  (63) 
0

>  <fr_aryl_methyl>  (63) 
2

>  <fr_azide>  (63) 
0

>  <fr_azo>  (63) 
0

>  <fr_barbitur>  (63) 
0

>  <fr_benzene>  (63) 
1

>  <fr_benzodiazepine>  (63) 
0

>  <fr_bicyclic>  (63) 
1

>  <fr_diazo>  (63) 
0

>  <fr_dihydropyridine>  (63) 
0

>  <fr_epoxide>  (63) 
0

>  <fr_ester>  (63) 
0

>  <fr_ether>  (63) 
0

>  <fr_furan>  (63) 
0

>  <fr_guanido>  (63) 
0

>  <fr_halogen>  (63) 
0

>  <fr_hdrzine>  (63) 
0

>  <fr_hdrzone>  (63) 
0

>  <fr_imidazole>  (63) 
1

>  <fr_imide>  (63) 
0

>  <fr_isocyan>  (63) 
0

>  <fr_isothiocyan>  (63) 
0

>  <fr_ketone>  (63) 
0

>  <fr_ketone_Topliss>  (63) 
0

>  <fr_lactam>  (63) 
0

>  <fr_lactone>  (63) 
0

>  <fr_methoxy>  (63) 
0

>  <fr_morpholine>  (63) 
0

>  <fr_nitrile>  (63) 
0

>  <fr_nitro>  (63) 
0

>  <fr_nitro_arom>  (63) 
0

>  <fr_nitro_arom_nonortho>  (63) 
0

>  <fr_nitroso>  (63) 
0

>  <fr_oxazole>  (63) 
0

>  <fr_oxime>  (63) 
0

>  <fr_para_hydroxylation>  (63) 
0

>  <fr_phenol>  (63) 
0

>  <fr_phenol_noOrthoHbond>  (63) 
0

>  <fr_phos_acid>  (63) 
0

>  <fr_phos_ester>  (63) 
0

>  <fr_piperdine>  (63) 
0

>  <fr_piperzine>  (63) 
0

>  <fr_priamide>  (63) 
0

>  <fr_prisulfonamd>  (63) 
0

>  <fr_pyridine>  (63) 
1

>  <fr_quatN>  (63) 
0

>  <fr_sulfide>  (63) 
0

>  <fr_sulfonamd>  (63) 
0

>  <fr_sulfone>  (63) 
0

>  <fr_term_acetylene>  (63) 
0

>  <fr_tetrazole>  (63) 
0

>  <fr_thiazole>  (63) 
0

>  <fr_thiocyan>  (63) 
0

>  <fr_thiophene>  (63) 
0

>  <fr_unbrch_alkane>  (63) 
0

>  <fr_urea>  (63) 
0

>  <NP_Likeness>  (63) 
-1.866576

$$$$
CHEMBL750
     RDKit          3D

  0  0  0  0  0  0  0  0  0  0999 V3000
M  V30 BEGIN CTAB
M  V30 COUNTS 22 23 0 0 0
M  V30 BEGIN ATOM
M  V30 1 N -0.825390 -0.983678 3.073739 0
M  V30 2 S 0.787523 -1.532864 3.221575 0
M  V30 3 O 1.152238 -1.718528 4.662403 0
M  V30 4 O 0.872934 -2.920830 2.607682 0
M  V30 5 C 1.946293 -0.467013 2.410846 0
M  V30 6 C 1.711320 -0.322490 0.964063 0
M  V30 7 N 2.408013 -0.936740 -0.037075 0
M  V30 8 O 1.939331 -0.593782 -1.190617 0
M  V30 9 C 0.944427 0.232383 -1.106105 0
M  V30 10 C 0.150624 0.853897 -2.046645 0
M  V30 11 C -0.847511 1.699106 -1.573905 0
M  V30 12 C -1.028097 1.900200 -0.210174 0
M  V30 13 C -0.212595 1.259982 0.709726 0
M  V30 14 C 0.782113 0.418459 0.252964 0
M  V30 15 H -1.510079 -1.728943 3.329757 0
M  V30 16 H -0.997924 -0.114705 3.636544 0
M  V30 17 H 1.927274 0.555211 2.867675 0
M  V30 18 H 2.961874 -0.913947 2.544273 0
M  V30 19 H 0.357887 0.642667 -3.073173 0
M  V30 20 H -1.445983 2.166004 -2.351601 0
M  V30 21 H -1.825989 2.569569 0.063806 0
M  V30 22 H -0.361758 1.428460 1.760499 0
M  V30 END ATOM
M  V30 BEGIN BOND
M  V30 1 1 1 2
M  V30 2 2 2 3
M  V30 3 2 2 4
M  V30 4 1 2 5
M  V30 5 1 5 6
M  V30 6 2 6 7
M  V30 7 1 7 8
M  V30 8 1 8 9
M  V30 9 2 9 10
M  V30 10 1 10 11
M  V30 11 2 11 12
M  V30 12 1 12 13
M  V30 13 2 13 14
M  V30 14 1 14 6
M  V30 15 1 14 9
M  V30 16 1 1 15
M  V30 17 1 1 16
M  V30 18 1 5 17
M  V30 19 1 5 18
M  V30 20 1 10 19
M  V30 21 1 11 20
M  V30 22 1 12 21
M  V30 23 1 13 22
M  V30 END BOND
M  V30 END CTAB
M  END
>  <Dataset>  (64) 
OralDrugs

>  <Ligand_Instance>  (64) 
nan

>  <PDB_ID>  (64) 
nan

>  <Standardized_SMILES>  (64) 
NS(=O)(=O)Cc1noc2ccccc12

>  <Name>  (64) 
Zonisamide

>  <Pocket>  (64) 
nan

>  <ATP_Site>  (64) 
nan

>  <Peripheral>  (64) 
nan

>  <Num_H_Atoms_ProtBoundConf>  (64) 
nan

>  <Num_Resolved_Atoms>  (64) 
nan

>  <Num_Not_Resolved_Atoms>  (64) 
nan

>  <2D_Mol_H>  (64) 
<rdkit.Chem.rdchem.Mol object at 0x72a238bbdcb0>

>  <MW>  (64) 
212.23

>  <HBA>  (64) 
4

>  <HBD>  (64) 
1

>  <LogP>  (64) 
0.6163

>  <NRB>  (64) 
3

>  <TPSA>  (64) 
86.19

>  <Num_Heavy_Atoms>  (64) 
14

>  <Ro5>  (64) 
[True, True, True, True, True, True]

>  <Ro5_Fulfilled>  (64) 
True

>  <Ro3>  (64) 
[True, False, True, True]

>  <Ro3_Fulfilled>  (64) 
True

>  <Fsp3>  (64) 
0.125

>  <Fsp3_0.42>  (64) 
False

>  <Fsp3_0.45>  (64) 
False

>  <Stereogenic_Carbons>  (64) 
0

>  <C_Atoms>  (64) 
8

>  <FCStereo>  (64) 
0.0

>  <SPS>  (64) 
169

>  <nSPS>  (64) 
12.071429

>  <PBF>  (64) 
0.626959

>  <PBF_0.6>  (64) 
True

>  <nPBF>  (64) 
0.044783

>  <nPBF_0.016>  (64) 
True

>  <PMI1>  (64) 
380.474769

>  <PMI2>  (64) 
1221.506217

>  <PMI3>  (64) 
1450.14348

>  <NPR1>  (64) 
0.26237

>  <NPR2>  (64) 
0.842335

>  <Sum_NPR>  (64) 
1.104705

>  <Sum_NPR_1.07>  (64) 
True

>  <Sum_NPR_1.2>  (64) 
False

>  <MaxAbsEStateIndex>  (64) 
10.83841

>  <MaxEStateIndex>  (64) 
10.83841

>  <MinAbsEStateIndex>  (64) 
0.301574

>  <MinEStateIndex>  (64) 
-3.561044

>  <qed>  (64) 
0.789958

>  <MolWt>  (64) 
212.23

>  <HeavyAtomMolWt>  (64) 
204.166

>  <ExactMolWt>  (64) 
212.025563

>  <NumValenceElectrons>  (64) 
74

>  <NumRadicalElectrons>  (64) 
0

>  <MaxPartialCharge>  (64) 
0.214484

>  <MinPartialCharge>  (64) 
-0.355979

>  <MaxAbsPartialCharge>  (64) 
0.355979

>  <MinAbsPartialCharge>  (64) 
0.214484

>  <FpDensityMorgan1>  (64) 
1.357143

>  <FpDensityMorgan2>  (64) 
2.071429

>  <FpDensityMorgan3>  (64) 
2.785714

>  <BCUT2D_MWHI>  (64) 
32.233072

>  <BCUT2D_MWLOW>  (64) 
10.209894

>  <BCUT2D_CHGHI>  (64) 
2.124173

>  <BCUT2D_CHGLO>  (64) 
-1.919881

>  <BCUT2D_LOGPHI>  (64) 
2.181373

>  <BCUT2D_LOGPLOW>  (64) 
-2.142415

>  <BCUT2D_MRHI>  (64) 
7.878758

>  <BCUT2D_MRLOW>  (64) 
0.448387

>  <AvgIpc>  (64) 
2.466938

>  <BalabanJ>  (64) 
2.539001

>  <BertzCT>  (64) 
558.725009

>  <Chi0>  (64) 
10.181798

>  <Chi0n>  (64) 
7.174065

>  <Chi0v>  (64) 
7.990561

>  <Chi1>  (64) 
6.561462

>  <Chi1n>  (64) 
3.89892

>  <Chi1v>  (64) 
5.614341

>  <Chi2n>  (64) 
2.932626

>  <Chi2v>  (64) 
4.547021

>  <Chi3n>  (64) 
1.790051

>  <Chi3v>  (64) 
2.465857

>  <Chi4n>  (64) 
1.232766

>  <Chi4v>  (64) 
1.822102

>  <HallKierAlpha>  (64) 
-1.4

>  <Ipc>  (64) 
1818.133527

>  <Kappa1>  (64) 
9.166609

>  <Kappa2>  (64) 
3.071392

>  <Kappa3>  (64) 
1.753979

>  <LabuteASA>  (64) 
80.54401

>  <PEOE_VSA1>  (64) 
4.523095

>  <PEOE_VSA10>  (64) 
11.446782

>  <PEOE_VSA11>  (64) 
5.58302

>  <PEOE_VSA12>  (64) 
10.023291

>  <PEOE_VSA13>  (64) 
0.0

>  <PEOE_VSA14>  (64) 
0.0

>  <PEOE_VSA2>  (64) 
0.0

>  <PEOE_VSA3>  (64) 
13.556771

>  <PEOE_VSA4>  (64) 
0.0

>  <PEOE_VSA5>  (64) 
0.0

>  <PEOE_VSA6>  (64) 
17.289397

>  <PEOE_VSA7>  (64) 
12.132734

>  <PEOE_VSA8>  (64) 
5.386224

>  <PEOE_VSA9>  (64) 
0.0

>  <SMR_VSA1>  (64) 
12.940892

>  <SMR_VSA10>  (64) 
20.992536

>  <SMR_VSA2>  (64) 
0.0

>  <SMR_VSA3>  (64) 
5.156663

>  <SMR_VSA4>  (64) 
5.138974

>  <SMR_VSA5>  (64) 
5.752854

>  <SMR_VSA6>  (64) 
0.0

>  <SMR_VSA7>  (64) 
29.959396

>  <SMR_VSA8>  (64) 
0.0

>  <SMR_VSA9>  (64) 
0.0

>  <SlogP_VSA1>  (64) 
5.138974

>  <SlogP_VSA10>  (64) 
0.0

>  <SlogP_VSA11>  (64) 
0.0

>  <SlogP_VSA12>  (64) 
0.0

>  <SlogP_VSA2>  (64) 
13.57446

>  <SlogP_VSA3>  (64) 
15.776145

>  <SlogP_VSA4>  (64) 
0.0

>  <SlogP_VSA5>  (64) 
5.693928

>  <SlogP_VSA6>  (64) 
28.788563

>  <SlogP_VSA7>  (64) 
0.0

>  <SlogP_VSA8>  (64) 
10.969244

>  <SlogP_VSA9>  (64) 
0.0

>  <EState_VSA1>  (64) 
10.023291

>  <EState_VSA10>  (64) 
8.417797

>  <EState_VSA11>  (64) 
0.0

>  <EState_VSA2>  (64) 
5.752854

>  <EState_VSA3>  (64) 
16.663172

>  <EState_VSA4>  (64) 
0.0

>  <EState_VSA5>  (64) 
0.0

>  <EState_VSA6>  (64) 
24.265468

>  <EState_VSA7>  (64) 
0.0

>  <EState_VSA8>  (64) 
5.156663

>  <EState_VSA9>  (64) 
9.662069

>  <VSA_EState1>  (64) 
26.601728

>  <VSA_EState10>  (64) 
0.0

>  <VSA_EState2>  (64) 
0.0

>  <VSA_EState3>  (64) 
9.236725

>  <VSA_EState4>  (64) 
0.911343

>  <VSA_EState5>  (64) 
-0.301574

>  <VSA_EState6>  (64) 
7.029489

>  <VSA_EState7>  (64) 
0.0

>  <VSA_EState8>  (64) 
0.0

>  <VSA_EState9>  (64) 
-3.561044

>  <FractionCSP3>  (64) 
0.125

>  <HeavyAtomCount>  (64) 
14

>  <NHOHCount>  (64) 
2

>  <NOCount>  (64) 
5

>  <NumAliphaticCarbocycles>  (64) 
0

>  <NumAliphaticHeterocycles>  (64) 
0

>  <NumAliphaticRings>  (64) 
0

>  <NumAromaticCarbocycles>  (64) 
1

>  <NumAromaticHeterocycles>  (64) 
1

>  <NumAromaticRings>  (64) 
2

>  <NumHAcceptors>  (64) 
4

>  <NumHDonors>  (64) 
1

>  <NumHeteroatoms>  (64) 
6

>  <NumRotatableBonds>  (64) 
2

>  <NumSaturatedCarbocycles>  (64) 
0

>  <NumSaturatedHeterocycles>  (64) 
0

>  <NumSaturatedRings>  (64) 
0

>  <RingCount>  (64) 
2

>  <MolLogP>  (64) 
0.6163

>  <MolMR>  (64) 
50.8202

>  <fr_Al_COO>  (64) 
0

>  <fr_Al_OH>  (64) 
0

>  <fr_Al_OH_noTert>  (64) 
0

>  <fr_ArN>  (64) 
0

>  <fr_Ar_COO>  (64) 
0

>  <fr_Ar_N>  (64) 
1

>  <fr_Ar_NH>  (64) 
0

>  <fr_Ar_OH>  (64) 
0

>  <fr_COO>  (64) 
0

>  <fr_COO2>  (64) 
0

>  <fr_C_O>  (64) 
0

>  <fr_C_O_noCOO>  (64) 
0

>  <fr_C_S>  (64) 
0

>  <fr_HOCCN>  (64) 
0

>  <fr_Imine>  (64) 
0

>  <fr_NH0>  (64) 
1

>  <fr_NH1>  (64) 
0

>  <fr_NH2>  (64) 
1

>  <fr_N_O>  (64) 
0

>  <fr_Ndealkylation1>  (64) 
0

>  <fr_Ndealkylation2>  (64) 
0

>  <fr_Nhpyrrole>  (64) 
0

>  <fr_SH>  (64) 
0

>  <fr_aldehyde>  (64) 
0

>  <fr_alkyl_carbamate>  (64) 
0

>  <fr_alkyl_halide>  (64) 
0

>  <fr_allylic_oxid>  (64) 
0

>  <fr_amide>  (64) 
0

>  <fr_amidine>  (64) 
0

>  <fr_aniline>  (64) 
0

>  <fr_aryl_methyl>  (64) 
0

>  <fr_azide>  (64) 
0

>  <fr_azo>  (64) 
0

>  <fr_barbitur>  (64) 
0

>  <fr_benzene>  (64) 
1

>  <fr_benzodiazepine>  (64) 
0

>  <fr_bicyclic>  (64) 
1

>  <fr_diazo>  (64) 
0

>  <fr_dihydropyridine>  (64) 
0

>  <fr_epoxide>  (64) 
0

>  <fr_ester>  (64) 
0

>  <fr_ether>  (64) 
0

>  <fr_furan>  (64) 
0

>  <fr_guanido>  (64) 
0

>  <fr_halogen>  (64) 
0

>  <fr_hdrzine>  (64) 
0

>  <fr_hdrzone>  (64) 
0

>  <fr_imidazole>  (64) 
0

>  <fr_imide>  (64) 
0

>  <fr_isocyan>  (64) 
0

>  <fr_isothiocyan>  (64) 
0

>  <fr_ketone>  (64) 
0

>  <fr_ketone_Topliss>  (64) 
0

>  <fr_lactam>  (64) 
0

>  <fr_lactone>  (64) 
0

>  <fr_methoxy>  (64) 
0

>  <fr_morpholine>  (64) 
0

>  <fr_nitrile>  (64) 
0

>  <fr_nitro>  (64) 
0

>  <fr_nitro_arom>  (64) 
0

>  <fr_nitro_arom_nonortho>  (64) 
0

>  <fr_nitroso>  (64) 
0

>  <fr_oxazole>  (64) 
0

>  <fr_oxime>  (64) 
0

>  <fr_para_hydroxylation>  (64) 
1

>  <fr_phenol>  (64) 
0

>  <fr_phenol_noOrthoHbond>  (64) 
0

>  <fr_phos_acid>  (64) 
0

>  <fr_phos_ester>  (64) 
0

>  <fr_piperdine>  (64) 
0

>  <fr_piperzine>  (64) 
0

>  <fr_priamide>  (64) 
0

>  <fr_prisulfonamd>  (64) 
0

>  <fr_pyridine>  (64) 
0

>  <fr_quatN>  (64) 
0

>  <fr_sulfide>  (64) 
0

>  <fr_sulfonamd>  (64) 
1

>  <fr_sulfone>  (64) 
0

>  <fr_term_acetylene>  (64) 
0

>  <fr_tetrazole>  (64) 
0

>  <fr_thiazole>  (64) 
0

>  <fr_thiocyan>  (64) 
0

>  <fr_thiophene>  (64) 
0

>  <fr_unbrch_alkane>  (64) 
0

>  <fr_urea>  (64) 
0

>  <NP_Likeness>  (64) 
-1.699129

$$$$
CHEMBL4105630
     RDKit          3D

  0  0  0  0  0  0  0  0  0  0999 V3000
M  V30 BEGIN CTAB
M  V30 COUNTS 65 69 0 0 0
M  V30 BEGIN ATOM
M  V30 1 C 3.317869 2.647289 4.101710 0
M  V30 2 C 2.613601 2.372516 2.779789 0 CFG=1
M  V30 3 O 1.692848 3.424083 2.562745 0
M  V30 4 C 3.658397 2.323368 1.709323 0
M  V30 5 C 3.211625 1.648836 0.436838 0
M  V30 6 C 2.565950 0.304733 0.660999 0 CFG=1
M  V30 7 C 2.661495 0.014796 2.142336 0 CFG=2
M  V30 8 C 1.982516 -1.318058 2.383036 0
M  V30 9 C 0.519269 -1.195307 2.097151 0
M  V30 10 C 0.282264 -0.783649 0.681694 0 CFG=2
M  V30 11 C 1.152408 0.405434 0.250047 0 CFG=2
M  V30 12 C 1.034196 0.414478 -1.271390 0
M  V30 13 C -0.359999 0.523750 -1.772346 0
M  V30 14 C -1.249377 -0.556881 -1.172360 0 CFG=2
M  V30 15 C -0.844862 -1.919593 -1.587791 0
M  V30 16 C -2.697461 -0.249881 -1.334890 0 CFG=1
M  V30 17 C -3.341575 -1.098569 -2.321213 0
M  V30 18 O -3.524816 -0.441469 -3.381702 0
M  V30 19 C -3.897905 -2.386715 -2.677307 0
M  V30 20 N -3.891381 -3.435033 -1.689682 0
M  V30 21 C -3.048659 -4.446640 -1.344068 0
M  V30 22 C -3.536233 -5.176506 -0.284602 0
M  V30 23 C -2.906937 -6.305771 0.331456 0
M  V30 24 N -2.419094 -7.199700 0.835908 0
M  V30 25 C -4.723789 -4.530884 -0.024827 0
M  V30 26 N -4.942032 -3.499870 -0.850810 0
M  V30 27 C -3.314940 -0.308753 0.040647 0
M  V30 28 C -2.252324 -1.068072 0.855287 0
M  V30 29 C -1.064703 -0.339748 0.339105 0 CFG=1
M  V30 30 C 1.907036 1.041512 2.956076 0
M  V30 31 H 3.800751 1.691533 4.391774 0
M  V30 32 H 2.492352 2.792823 4.846865 0
M  V30 33 H 4.010173 3.488022 4.051607 0
M  V30 34 H 1.814122 3.874743 1.710216 0
M  V30 35 H 3.880318 3.387079 1.434719 0
M  V30 36 H 4.614520 1.936129 2.112967 0
M  V30 37 H 4.107493 1.542626 -0.197149 0
M  V30 38 H 2.530242 2.375938 -0.078910 0
M  V30 39 H 3.114513 -0.486095 0.130011 0
M  V30 40 H 3.702447 0.022905 2.502341 0
M  V30 41 H 2.131025 -1.571636 3.464462 0
M  V30 42 H 2.481951 -2.093880 1.801397 0
M  V30 43 H 0.110500 -2.243834 2.173605 0
M  V30 44 H -0.002042 -0.627164 2.864929 0
M  V30 45 H 0.638687 -1.615409 0.043649 0
M  V30 46 H 0.703847 1.355046 0.582781 0
M  V30 47 H 1.586051 -0.467095 -1.613664 0
M  V30 48 H 1.647257 1.290141 -1.620761 0
M  V30 49 H -0.786205 1.484336 -1.451303 0
M  V30 50 H -0.336785 0.475230 -2.859904 0
M  V30 51 H -0.888225 -2.672591 -0.761281 0
M  V30 52 H 0.234615 -1.939908 -1.922908 0
M  V30 53 H -1.388958 -2.356690 -2.440619 0
M  V30 54 H -2.746005 0.830630 -1.644913 0
M  V30 55 H -4.956041 -2.251467 -3.056494 0
M  V30 56 H -3.383235 -2.837824 -3.564692 0
M  V30 57 H -2.132536 -4.569894 -1.904268 0
M  V30 58 H -5.411792 -4.839885 0.779805 0
M  V30 59 H -4.305285 -0.723372 0.112985 0
M  V30 60 H -3.322694 0.700543 0.499461 0
M  V30 61 H -2.492019 -0.886424 1.922227 0
M  V30 62 H -2.281973 -2.142882 0.678257 0
M  V30 63 H -1.221180 0.736822 0.545909 0
M  V30 64 H 0.872482 1.199245 2.618590 0
M  V30 65 H 1.917175 0.674757 4.001939 0
M  V30 END ATOM
M  V30 BEGIN BOND
M  V30 1 1 1 2
M  V30 2 1 2 3 CFG=3
M  V30 3 1 2 4
M  V30 4 1 4 5
M  V30 5 1 5 6
M  V30 6 1 6 7
M  V30 7 1 7 8
M  V30 8 1 8 9
M  V30 9 1 9 10
M  V30 10 1 10 11
M  V30 11 1 11 12
M  V30 12 1 12 13
M  V30 13 1 13 14
M  V30 14 1 14 15 CFG=3
M  V30 15 1 14 16
M  V30 16 1 16 17
M  V30 17 2 17 18
M  V30 18 1 17 19
M  V30 19 1 19 20
M  V30 20 1 20 21
M  V30 21 2 21 22
M  V30 22 1 22 23
M  V30 23 3 23 24
M  V30 24 1 22 25
M  V30 25 2 25 26
M  V30 26 1 16 27
M  V30 27 1 27 28
M  V30 28 1 28 29
M  V30 29 1 7 30
M  V30 30 1 30 2
M  V30 31 1 11 6
M  V30 32 1 29 14
M  V30 33 1 29 10
M  V30 34 1 26 20
M  V30 35 1 1 31
M  V30 36 1 1 32
M  V30 37 1 1 33
M  V30 38 1 3 34
M  V30 39 1 4 35
M  V30 40 1 4 36
M  V30 41 1 5 37
M  V30 42 1 5 38
M  V30 43 1 6 39 CFG=3
M  V30 44 1 7 40 CFG=1
M  V30 45 1 8 41
M  V30 46 1 8 42
M  V30 47 1 9 43
M  V30 48 1 9 44
M  V30 49 1 10 45 CFG=3
M  V30 50 1 11 46 CFG=1
M  V30 51 1 12 47
M  V30 52 1 12 48
M  V30 53 1 13 49
M  V30 54 1 13 50
M  V30 55 1 15 51
M  V30 56 1 15 52
M  V30 57 1 15 53
M  V30 58 1 16 54 CFG=3
M  V30 59 1 19 55
M  V30 60 1 19 56
M  V30 61 1 21 57
M  V30 62 1 25 58
M  V30 63 1 27 59
M  V30 64 1 27 60
M  V30 65 1 28 61
M  V30 66 1 28 62
M  V30 67 1 29 63 CFG=3
M  V30 68 1 30 64
M  V30 69 1 30 65
M  V30 END BOND
M  V30 END CTAB
M  END
>  <Dataset>  (65) 
OralDrugs

>  <Ligand_Instance>  (65) 
nan

>  <PDB_ID>  (65) 
nan

>  <Standardized_SMILES>  (65) 
C[C@@]1(O)CC[C@H]2[C@H](CC[C@@H]3[C@@H]2CC[C@]2(C)[C@@H](C(=O)Cn4cc(C#N)cn4)CC[C@@H]32)C1

>  <Name>  (65) 
Zuranolone

>  <Pocket>  (65) 
nan

>  <ATP_Site>  (65) 
nan

>  <Peripheral>  (65) 
nan

>  <Num_H_Atoms_ProtBoundConf>  (65) 
nan

>  <Num_Resolved_Atoms>  (65) 
nan

>  <Num_Not_Resolved_Atoms>  (65) 
nan

>  <2D_Mol_H>  (65) 
<rdkit.Chem.rdchem.Mol object at 0x72a238bbdd90>

>  <MW>  (65) 
409.574

>  <HBA>  (65) 
5

>  <HBD>  (65) 
1

>  <LogP>  (65) 
4.34368

>  <NRB>  (65) 
6

>  <TPSA>  (65) 
78.91

>  <Num_Heavy_Atoms>  (65) 
30

>  <Ro5>  (65) 
[True, True, True, True, True, True]

>  <Ro5_Fulfilled>  (65) 
True

>  <Ro3>  (65) 
[False, False, True, False]

>  <Ro3_Fulfilled>  (65) 
False

>  <Fsp3>  (65) 
0.8

>  <Fsp3_0.42>  (65) 
True

>  <Fsp3_0.45>  (65) 
True

>  <Stereogenic_Carbons>  (65) 
8

>  <C_Atoms>  (65) 
25

>  <FCStereo>  (65) 
0.32

>  <SPS>  (65) 
1354

>  <nSPS>  (65) 
45.133333

>  <PBF>  (65) 
1.115331

>  <PBF_0.6>  (65) 
True

>  <nPBF>  (65) 
0.037178

>  <nPBF_0.016>  (65) 
True

>  <PMI1>  (65) 
1657.464979

>  <PMI2>  (65) 
6034.04357

>  <PMI3>  (65) 
6838.508299

>  <NPR1>  (65) 
0.242372

>  <NPR2>  (65) 
0.882363

>  <Sum_NPR>  (65) 
1.124735

>  <Sum_NPR_1.07>  (65) 
True

>  <Sum_NPR_1.2>  (65) 
False

>  <MaxAbsEStateIndex>  (65) 
13.260467

>  <MaxEStateIndex>  (65) 
13.260467

>  <MinAbsEStateIndex>  (65) 
0.121486

>  <MinEStateIndex>  (65) 
-0.458364

>  <qed>  (65) 
0.805144

>  <MolWt>  (65) 
409.574

>  <HeavyAtomMolWt>  (65) 
374.294

>  <ExactMolWt>  (65) 
409.272927

>  <NumValenceElectrons>  (65) 
162

>  <NumRadicalElectrons>  (65) 
0

>  <MaxPartialCharge>  (65) 
0.157398

>  <MinPartialCharge>  (65) 
-0.390172

>  <MaxAbsPartialCharge>  (65) 
0.390172

>  <MinAbsPartialCharge>  (65) 
0.157398

>  <FpDensityMorgan1>  (65) 
1.166667

>  <FpDensityMorgan2>  (65) 
1.966667

>  <FpDensityMorgan3>  (65) 
2.733333

>  <BCUT2D_MWHI>  (65) 
16.282422

>  <BCUT2D_MWLOW>  (65) 
9.486305

>  <BCUT2D_CHGHI>  (65) 
2.58238

>  <BCUT2D_CHGLO>  (65) 
-2.564575

>  <BCUT2D_LOGPHI>  (65) 
2.642677

>  <BCUT2D_LOGPLOW>  (65) 
-2.507319

>  <BCUT2D_MRHI>  (65) 
5.816483

>  <BCUT2D_MRLOW>  (65) 
-0.132627

>  <AvgIpc>  (65) 
3.298496

>  <BalabanJ>  (65) 
1.304299

>  <BertzCT>  (65) 
867.989933

>  <Chi0>  (65) 
21.095647

>  <Chi0n>  (65) 
18.386973

>  <Chi0v>  (65) 
18.386973

>  <Chi1>  (65) 
14.30461

>  <Chi1n>  (65) 
11.982624

>  <Chi1v>  (65) 
11.982624

>  <Chi2n>  (65) 
11.354364

>  <Chi2v>  (65) 
11.354364

>  <Chi3n>  (65) 
9.705821

>  <Chi3v>  (65) 
9.705821

>  <Chi4n>  (65) 
8.38815

>  <Chi4v>  (65) 
8.38815

>  <HallKierAlpha>  (65) 
-1.67

>  <Ipc>  (65) 
8889053.735623

>  <Kappa1>  (65) 
20.244844

>  <Kappa2>  (65) 
7.191158

>  <Kappa3>  (65) 
3.229121

>  <LabuteASA>  (65) 
179.392374

>  <PEOE_VSA1>  (65) 
5.106527

>  <PEOE_VSA10>  (65) 
6.069221

>  <PEOE_VSA11>  (65) 
5.783245

>  <PEOE_VSA12>  (65) 
0.0

>  <PEOE_VSA13>  (65) 
0.0

>  <PEOE_VSA14>  (65) 
0.0

>  <PEOE_VSA2>  (65) 
9.47634

>  <PEOE_VSA3>  (65) 
0.0

>  <PEOE_VSA4>  (65) 
10.360573

>  <PEOE_VSA5>  (65) 
0.0

>  <PEOE_VSA6>  (65) 
6.923737

>  <PEOE_VSA7>  (65) 
99.715653

>  <PEOE_VSA8>  (65) 
12.11475

>  <PEOE_VSA9>  (65) 
23.906102

>  <SMR_VSA1>  (65) 
9.901065

>  <SMR_VSA10>  (65) 
5.783245

>  <SMR_VSA2>  (65) 
5.261892

>  <SMR_VSA3>  (65) 
9.780485

>  <SMR_VSA4>  (65) 
40.922427

>  <SMR_VSA5>  (65) 
83.780676

>  <SMR_VSA6>  (65) 
0.0

>  <SMR_VSA7>  (65) 
17.957139

>  <SMR_VSA8>  (65) 
0.0

>  <SMR_VSA9>  (65) 
6.069221

>  <SlogP_VSA1>  (65) 
0.0

>  <SlogP_VSA10>  (65) 
0.0

>  <SlogP_VSA11>  (65) 
0.0

>  <SlogP_VSA12>  (65) 
0.0

>  <SlogP_VSA2>  (65) 
26.271308

>  <SlogP_VSA3>  (65) 
11.339294

>  <SlogP_VSA4>  (65) 
52.25354

>  <SlogP_VSA5>  (65) 
77.19832

>  <SlogP_VSA6>  (65) 
12.393687

>  <SlogP_VSA7>  (65) 
0.0

>  <SlogP_VSA8>  (65) 
0.0

>  <SlogP_VSA9>  (65) 
0.0

>  <EState_VSA1>  (65) 
5.601051

>  <EState_VSA10>  (65) 
9.901065

>  <EState_VSA11>  (65) 
0.0

>  <EState_VSA2>  (65) 
11.332897

>  <EState_VSA3>  (65) 
29.727265

>  <EState_VSA4>  (65) 
43.437005

>  <EState_VSA5>  (65) 
38.300952

>  <EState_VSA6>  (65) 
10.878647

>  <EState_VSA7>  (65) 
6.923737

>  <EState_VSA8>  (65) 
18.09164

>  <EState_VSA9>  (65) 
5.261892

>  <VSA_EState1>  (65) 
1.6412

>  <VSA_EState10>  (65) 
0.0

>  <VSA_EState2>  (65) 
13.260467

>  <VSA_EState3>  (65) 
23.783924

>  <VSA_EState4>  (65) 
0.178898

>  <VSA_EState5>  (65) 
4.151135

>  <VSA_EState6>  (65) 
2.09147

>  <VSA_EState7>  (65) 
13.510826

>  <VSA_EState8>  (65) 
4.715414

>  <VSA_EState9>  (65) 
0.0

>  <FractionCSP3>  (65) 
0.8

>  <HeavyAtomCount>  (65) 
30

>  <NHOHCount>  (65) 
1

>  <NOCount>  (65) 
5

>  <NumAliphaticCarbocycles>  (65) 
4

>  <NumAliphaticHeterocycles>  (65) 
0

>  <NumAliphaticRings>  (65) 
4

>  <NumAromaticCarbocycles>  (65) 
0

>  <NumAromaticHeterocycles>  (65) 
1

>  <NumAromaticRings>  (65) 
1

>  <NumHAcceptors>  (65) 
5

>  <NumHDonors>  (65) 
1

>  <NumHeteroatoms>  (65) 
5

>  <NumRotatableBonds>  (65) 
3

>  <NumSaturatedCarbocycles>  (65) 
4

>  <NumSaturatedHeterocycles>  (65) 
0

>  <NumSaturatedRings>  (65) 
4

>  <RingCount>  (65) 
5

>  <MolLogP>  (65) 
4.34368

>  <MolMR>  (65) 
113.1728

>  <fr_Al_COO>  (65) 
0

>  <fr_Al_OH>  (65) 
1

>  <fr_Al_OH_noTert>  (65) 
0

>  <fr_ArN>  (65) 
0

>  <fr_Ar_COO>  (65) 
0

>  <fr_Ar_N>  (65) 
2

>  <fr_Ar_NH>  (65) 
0

>  <fr_Ar_OH>  (65) 
0

>  <fr_COO>  (65) 
0

>  <fr_COO2>  (65) 
0

>  <fr_C_O>  (65) 
1

>  <fr_C_O_noCOO>  (65) 
1

>  <fr_C_S>  (65) 
0

>  <fr_HOCCN>  (65) 
0

>  <fr_Imine>  (65) 
0

>  <fr_NH0>  (65) 
3

>  <fr_NH1>  (65) 
0

>  <fr_NH2>  (65) 
0

>  <fr_N_O>  (65) 
0

>  <fr_Ndealkylation1>  (65) 
0

>  <fr_Ndealkylation2>  (65) 
0

>  <fr_Nhpyrrole>  (65) 
0

>  <fr_SH>  (65) 
0

>  <fr_aldehyde>  (65) 
0

>  <fr_alkyl_carbamate>  (65) 
0

>  <fr_alkyl_halide>  (65) 
0

>  <fr_allylic_oxid>  (65) 
0

>  <fr_amide>  (65) 
0

>  <fr_amidine>  (65) 
0

>  <fr_aniline>  (65) 
0

>  <fr_aryl_methyl>  (65) 
0

>  <fr_azide>  (65) 
0

>  <fr_azo>  (65) 
0

>  <fr_barbitur>  (65) 
0

>  <fr_benzene>  (65) 
0

>  <fr_benzodiazepine>  (65) 
0

>  <fr_bicyclic>  (65) 
5

>  <fr_diazo>  (65) 
0

>  <fr_dihydropyridine>  (65) 
0

>  <fr_epoxide>  (65) 
0

>  <fr_ester>  (65) 
0

>  <fr_ether>  (65) 
0

>  <fr_furan>  (65) 
0

>  <fr_guanido>  (65) 
0

>  <fr_halogen>  (65) 
0

>  <fr_hdrzine>  (65) 
0

>  <fr_hdrzone>  (65) 
0

>  <fr_imidazole>  (65) 
0

>  <fr_imide>  (65) 
0

>  <fr_isocyan>  (65) 
0

>  <fr_isothiocyan>  (65) 
0

>  <fr_ketone>  (65) 
1

>  <fr_ketone_Topliss>  (65) 
1

>  <fr_lactam>  (65) 
0

>  <fr_lactone>  (65) 
0

>  <fr_methoxy>  (65) 
0

>  <fr_morpholine>  (65) 
0

>  <fr_nitrile>  (65) 
1

>  <fr_nitro>  (65) 
0

>  <fr_nitro_arom>  (65) 
0

>  <fr_nitro_arom_nonortho>  (65) 
0

>  <fr_nitroso>  (65) 
0

>  <fr_oxazole>  (65) 
0

>  <fr_oxime>  (65) 
0

>  <fr_para_hydroxylation>  (65) 
0

>  <fr_phenol>  (65) 
0

>  <fr_phenol_noOrthoHbond>  (65) 
0

>  <fr_phos_acid>  (65) 
0

>  <fr_phos_ester>  (65) 
0

>  <fr_piperdine>  (65) 
0

>  <fr_piperzine>  (65) 
0

>  <fr_priamide>  (65) 
0

>  <fr_prisulfonamd>  (65) 
0

>  <fr_pyridine>  (65) 
0

>  <fr_quatN>  (65) 
0

>  <fr_sulfide>  (65) 
0

>  <fr_sulfonamd>  (65) 
0

>  <fr_sulfone>  (65) 
0

>  <fr_term_acetylene>  (65) 
0

>  <fr_tetrazole>  (65) 
0

>  <fr_thiazole>  (65) 
0

>  <fr_thiocyan>  (65) 
0

>  <fr_thiophene>  (65) 
0

>  <fr_unbrch_alkane>  (65) 
0

>  <fr_urea>  (65) 
0

>  <NP_Likeness>  (65) 
0.802192

$$$$
