0RW
     RDKit          3D

  0  0  0  0  0  0  0  0  0  0999 V3000
M  V30 BEGIN CTAB
M  V30 COUNTS 18 19 0 0 0
M  V30 BEGIN ATOM
M  V30 1 C 1.075823 -1.007620 2.920641 0
M  V30 2 C 0.970896 -2.105744 2.091199 0
M  V30 3 C 0.892756 -2.069282 0.711243 0
M  V30 4 C 0.927051 -0.785313 0.156807 0
M  V30 5 C 1.031397 0.348021 0.944884 0
M  V30 6 C 1.105506 0.236401 2.322434 0
M  V30 7 C 1.034510 1.415433 0.045536 0
M  V30 8 C 1.135115 2.823658 0.523185 0
M  V30 9 N 0.935639 0.899488 -1.199250 0
M  V30 10 N 0.870899 -0.419488 -1.138363 0
M  V30 11 H 1.133013 -1.103769 3.992291 0
M  V30 12 H 0.946806 -3.098597 2.561281 0
M  V30 13 H 0.811957 -2.974635 0.125902 0
M  V30 14 H 1.186207 1.144805 2.903544 0
M  V30 15 H 1.146848 3.500178 -0.352468 0
M  V30 16 H 1.985219 2.951770 1.211902 0
M  V30 17 H 0.207171 3.117098 1.090184 0
M  V30 18 H 0.791164 -1.049012 -1.951496 0
M  V30 END ATOM
M  V30 BEGIN BOND
M  V30 1 2 1 2
M  V30 2 1 2 3
M  V30 3 2 3 4
M  V30 4 1 4 5
M  V30 5 2 5 6
M  V30 6 1 5 7
M  V30 7 1 7 8
M  V30 8 2 7 9
M  V30 9 1 9 10
M  V30 10 1 6 1
M  V30 11 1 10 4
M  V30 12 1 1 11
M  V30 13 1 2 12
M  V30 14 1 3 13
M  V30 15 1 6 14
M  V30 16 1 8 15
M  V30 17 1 8 16
M  V30 18 1 8 17
M  V30 19 1 10 18
M  V30 END BOND
M  V30 END CTAB
M  END
>  <Dataset>  (1) 
PDB

>  <Ligand_Instance>  (1) 
4YXR_0RW_A_401

>  <PDB_ID>  (1) 
4YXR

>  <Standardized_SMILES>  (1) 
[H]C1=C([H])C([H])=C2C(=C1[H])C(C([H])([H])[H])=NN2[H]

>  <Name>  (1) 
3-methyl-2H-indazole

>  <Pocket>  (1) 
A

>  <ATP_Site>  (1) 
1.0

>  <Peripheral>  (1) 
0.0

>  <Num_H_Atoms_ProtBoundConf>  (1) 
8.0

>  <Num_Resolved_Atoms>  (1) 
10.0

>  <Num_Not_Resolved_Atoms>  (1) 
0.0

>  <2D_Mol_H>  (1) 
<rdkit.Chem.rdchem.Mol object at 0x72a238db67a0>

>  <MW>  (1) 
132.166

>  <HBA>  (1) 
1

>  <HBD>  (1) 
1

>  <LogP>  (1) 
1.87132

>  <NRB>  (1) 
1

>  <TPSA>  (1) 
28.68

>  <Num_Heavy_Atoms>  (1) 
10

>  <Ro5>  (1) 
[True, True, True, True, True, True]

>  <Ro5_Fulfilled>  (1) 
True

>  <Ro3>  (1) 
[True, True, True, True]

>  <Ro3_Fulfilled>  (1) 
True

>  <Fsp3>  (1) 
0.125

>  <Fsp3_0.42>  (1) 
False

>  <Fsp3_0.45>  (1) 
False

>  <Stereogenic_Carbons>  (1) 
0

>  <C_Atoms>  (1) 
8

>  <FCStereo>  (1) 
0.0

>  <SPS>  (1) 
105

>  <nSPS>  (1) 
10.5

>  <PBF>  (1) 
0.110034

>  <PBF_0.6>  (1) 
False

>  <nPBF>  (1) 
0.011003

>  <nPBF_0.016>  (1) 
False

>  <PMI1>  (1) 
193.405221

>  <PMI2>  (1) 
373.982686

>  <PMI3>  (1) 
564.18558

>  <NPR1>  (1) 
0.342804

>  <NPR2>  (1) 
0.662872

>  <Sum_NPR>  (1) 
1.005676

>  <Sum_NPR_1.07>  (1) 
False

>  <Sum_NPR_1.2>  (1) 
False

>  <MaxAbsEStateIndex>  (1) 
4.070741

>  <MaxEStateIndex>  (1) 
4.070741

>  <MinAbsEStateIndex>  (1) 
1.06537

>  <MinEStateIndex>  (1) 
1.06537

>  <qed>  (1) 
0.582039

>  <MolWt>  (1) 
132.166

>  <HeavyAtomMolWt>  (1) 
124.102

>  <ExactMolWt>  (1) 
132.068748

>  <NumValenceElectrons>  (1) 
50

>  <NumRadicalElectrons>  (1) 
0

>  <MaxPartialCharge>  (1) 
0.066945

>  <MinPartialCharge>  (1) 
-0.277564

>  <MaxAbsPartialCharge>  (1) 
0.277564

>  <MinAbsPartialCharge>  (1) 
0.066945

>  <FpDensityMorgan1>  (1) 
1.3

>  <FpDensityMorgan2>  (1) 
2.1

>  <FpDensityMorgan3>  (1) 
2.9

>  <BCUT2D_MWHI>  (1) 
15.109128

>  <BCUT2D_MWLOW>  (1) 
10.205736

>  <BCUT2D_CHGHI>  (1) 
1.956765

>  <BCUT2D_CHGLO>  (1) 
-1.841131

>  <BCUT2D_LOGPHI>  (1) 
2.122136

>  <BCUT2D_LOGPLOW>  (1) 
-1.670321

>  <BCUT2D_MRHI>  (1) 
5.801623

>  <BCUT2D_MRLOW>  (1) 
1.067923

>  <AvgIpc>  (1) 
2.340585

>  <BalabanJ>  (1) 
2.931346

>  <BertzCT>  (1) 
348.785078

>  <Chi0>  (1) 
6.974691

>  <Chi0n>  (1) 
5.756615

>  <Chi0v>  (1) 
5.756615

>  <Chi1>  (1) 
4.87701

>  <Chi1n>  (1) 
3.274564

>  <Chi1v>  (1) 
3.274564

>  <Chi2n>  (1) 
2.354601

>  <Chi2v>  (1) 
2.354601

>  <Chi3n>  (1) 
1.660913

>  <Chi3v>  (1) 
1.660913

>  <Chi4n>  (1) 
1.100413

>  <Chi4v>  (1) 
1.100413

>  <HallKierAlpha>  (1) 
-1.31

>  <Ipc>  (1) 
367.471828

>  <Kappa1>  (1) 
5.472993

>  <Kappa2>  (1) 
1.836419

>  <Kappa3>  (1) 
0.620058

>  <LabuteASA>  (1) 
58.875272

>  <PEOE_VSA1>  (1) 
0.0

>  <PEOE_VSA10>  (1) 
0.0

>  <PEOE_VSA11>  (1) 
0.0

>  <PEOE_VSA12>  (1) 
0.0

>  <PEOE_VSA13>  (1) 
0.0

>  <PEOE_VSA14>  (1) 
0.0

>  <PEOE_VSA2>  (1) 
5.098682

>  <PEOE_VSA3>  (1) 
0.0

>  <PEOE_VSA4>  (1) 
5.098682

>  <PEOE_VSA5>  (1) 
0.0

>  <PEOE_VSA6>  (1) 
18.199101

>  <PEOE_VSA7>  (1) 
12.990104

>  <PEOE_VSA8>  (1) 
5.386224

>  <PEOE_VSA9>  (1) 
11.210629

>  <SMR_VSA1>  (1) 
0.0

>  <SMR_VSA10>  (1) 
10.902925

>  <SMR_VSA2>  (1) 
0.0

>  <SMR_VSA3>  (1) 
10.197364

>  <SMR_VSA4>  (1) 
0.0

>  <SMR_VSA5>  (1) 
6.923737

>  <SMR_VSA6>  (1) 
0.0

>  <SMR_VSA7>  (1) 
29.959396

>  <SMR_VSA8>  (1) 
0.0

>  <SMR_VSA9>  (1) 
0.0

>  <SlogP_VSA1>  (1) 
0.0

>  <SlogP_VSA10>  (1) 
0.0

>  <SlogP_VSA11>  (1) 
0.0

>  <SlogP_VSA12>  (1) 
0.0

>  <SlogP_VSA2>  (1) 
10.197364

>  <SlogP_VSA3>  (1) 
0.0

>  <SlogP_VSA4>  (1) 
6.923737

>  <SlogP_VSA5>  (1) 
5.693928

>  <SlogP_VSA6>  (1) 
24.265468

>  <SlogP_VSA7>  (1) 
0.0

>  <SlogP_VSA8>  (1) 
10.902925

>  <SlogP_VSA9>  (1) 
0.0

>  <EState_VSA1>  (1) 
0.0

>  <EState_VSA10>  (1) 
0.0

>  <EState_VSA11>  (1) 
0.0

>  <EState_VSA2>  (1) 
0.0

>  <EState_VSA3>  (1) 
0.0

>  <EState_VSA4>  (1) 
11.210629

>  <EState_VSA5>  (1) 
5.386224

>  <EState_VSA6>  (1) 
0.0

>  <EState_VSA7>  (1) 
25.122838

>  <EState_VSA8>  (1) 
16.263731

>  <EState_VSA9>  (1) 
0.0

>  <VSA_EState1>  (1) 
0.0

>  <VSA_EState10>  (1) 
0.0

>  <VSA_EState2>  (1) 
0.0

>  <VSA_EState3>  (1) 
8.219213

>  <VSA_EState4>  (1) 
2.176481

>  <VSA_EState5>  (1) 
0.0

>  <VSA_EState6>  (1) 
8.105463

>  <VSA_EState7>  (1) 
0.0

>  <VSA_EState8>  (1) 
1.998843

>  <VSA_EState9>  (1) 
0.0

>  <FractionCSP3>  (1) 
0.125

>  <HeavyAtomCount>  (1) 
10

>  <NHOHCount>  (1) 
1

>  <NOCount>  (1) 
2

>  <NumAliphaticCarbocycles>  (1) 
0

>  <NumAliphaticHeterocycles>  (1) 
0

>  <NumAliphaticRings>  (1) 
0

>  <NumAromaticCarbocycles>  (1) 
1

>  <NumAromaticHeterocycles>  (1) 
1

>  <NAR>  (1) 
2

>  <NumHAcceptors>  (1) 
1

>  <NumHDonors>  (1) 
1

>  <NumHeteroatoms>  (1) 
2

>  <NumRotatableBonds>  (1) 
0

>  <NumSaturatedCarbocycles>  (1) 
0

>  <NumSaturatedHeterocycles>  (1) 
0

>  <NumSaturatedRings>  (1) 
0

>  <RingCount>  (1) 
2

>  <MolLogP>  (1) 
1.87132

>  <MolMR>  (1) 
40.8307

>  <fr_Al_COO>  (1) 
0

>  <fr_Al_OH>  (1) 
0

>  <fr_Al_OH_noTert>  (1) 
0

>  <fr_ArN>  (1) 
0

>  <fr_Ar_COO>  (1) 
0

>  <fr_Ar_N>  (1) 
2

>  <fr_Ar_NH>  (1) 
1

>  <fr_Ar_OH>  (1) 
0

>  <fr_COO>  (1) 
0

>  <fr_COO2>  (1) 
0

>  <fr_C_O>  (1) 
0

>  <fr_C_O_noCOO>  (1) 
0

>  <fr_C_S>  (1) 
0

>  <fr_HOCCN>  (1) 
0

>  <fr_Imine>  (1) 
0

>  <fr_NH0>  (1) 
1

>  <fr_NH1>  (1) 
1

>  <fr_NH2>  (1) 
0

>  <fr_N_O>  (1) 
0

>  <fr_Ndealkylation1>  (1) 
0

>  <fr_Ndealkylation2>  (1) 
0

>  <fr_Nhpyrrole>  (1) 
1

>  <fr_SH>  (1) 
0

>  <fr_aldehyde>  (1) 
0

>  <fr_alkyl_carbamate>  (1) 
0

>  <fr_alkyl_halide>  (1) 
0

>  <fr_allylic_oxid>  (1) 
0

>  <fr_amide>  (1) 
0

>  <fr_amidine>  (1) 
0

>  <fr_aniline>  (1) 
0

>  <fr_aryl_methyl>  (1) 
1

>  <fr_azide>  (1) 
0

>  <fr_azo>  (1) 
0

>  <fr_barbitur>  (1) 
0

>  <fr_benzene>  (1) 
1

>  <fr_benzodiazepine>  (1) 
0

>  <fr_bicyclic>  (1) 
1

>  <fr_diazo>  (1) 
0

>  <fr_dihydropyridine>  (1) 
0

>  <fr_epoxide>  (1) 
0

>  <fr_ester>  (1) 
0

>  <fr_ether>  (1) 
0

>  <fr_furan>  (1) 
0

>  <fr_guanido>  (1) 
0

>  <fr_halogen>  (1) 
0

>  <fr_hdrzine>  (1) 
0

>  <fr_hdrzone>  (1) 
0

>  <fr_imidazole>  (1) 
0

>  <fr_imide>  (1) 
0

>  <fr_isocyan>  (1) 
0

>  <fr_isothiocyan>  (1) 
0

>  <fr_ketone>  (1) 
0

>  <fr_ketone_Topliss>  (1) 
0

>  <fr_lactam>  (1) 
0

>  <fr_lactone>  (1) 
0

>  <fr_methoxy>  (1) 
0

>  <fr_morpholine>  (1) 
0

>  <fr_nitrile>  (1) 
0

>  <fr_nitro>  (1) 
0

>  <fr_nitro_arom>  (1) 
0

>  <fr_nitro_arom_nonortho>  (1) 
0

>  <fr_nitroso>  (1) 
0

>  <fr_oxazole>  (1) 
0

>  <fr_oxime>  (1) 
0

>  <fr_para_hydroxylation>  (1) 
1

>  <fr_phenol>  (1) 
0

>  <fr_phenol_noOrthoHbond>  (1) 
0

>  <fr_phos_acid>  (1) 
0

>  <fr_phos_ester>  (1) 
0

>  <fr_piperdine>  (1) 
0

>  <fr_piperzine>  (1) 
0

>  <fr_priamide>  (1) 
0

>  <fr_prisulfonamd>  (1) 
0

>  <fr_pyridine>  (1) 
0

>  <fr_quatN>  (1) 
0

>  <fr_sulfide>  (1) 
0

>  <fr_sulfonamd>  (1) 
0

>  <fr_sulfone>  (1) 
0

>  <fr_term_acetylene>  (1) 
0

>  <fr_tetrazole>  (1) 
0

>  <fr_thiazole>  (1) 
0

>  <fr_thiocyan>  (1) 
0

>  <fr_thiophene>  (1) 
0

>  <fr_unbrch_alkane>  (1) 
0

>  <fr_urea>  (1) 
0

>  <NP-Likeness>  (1) 
-1.430583

$$$$
152
     RDKit          3D

  0  0  0  0  0  0  0  0  0  0999 V3000
M  V30 BEGIN CTAB
M  V30 COUNTS 26 25 0 0 0
M  V30 BEGIN ATOM
M  V30 1 O -0.718207 0.940316 2.149785 0
M  V30 2 C 0.350763 0.086084 1.922783 0 CFG=2
M  V30 3 C 1.576273 0.860298 2.428646 0
M  V30 4 C 2.785112 0.028885 2.235089 0
M  V30 5 O 3.839032 0.625096 1.860474 0
M  V30 6 O 2.968325 -1.322062 2.396606 0 CHG=-1 VAL=1
M  V30 7 C 0.589095 -0.220282 0.480636 0
M  V30 8 N -0.519756 -0.847353 -0.189728 0 CHG=1 VAL=4
M  V30 9 C -0.083012 -1.096566 -1.550318 0
M  V30 10 C -1.672064 0.024840 -0.302772 0
M  V30 11 C -0.848156 -2.101933 0.425606 0
M  V30 12 H -1.411893 0.556411 2.726684 0
M  V30 13 H 0.245491 -0.805297 2.552402 0
M  V30 14 H 1.420049 1.114447 3.482198 0
M  V30 15 H 1.626920 1.805681 1.819054 0
M  V30 16 H 0.942682 0.661623 -0.081874 0
M  V30 17 H 1.428777 -0.969645 0.435880 0
M  V30 18 H 0.592594 -1.984377 -1.610514 0
M  V30 19 H -0.982372 -1.329853 -2.152095 0
M  V30 20 H 0.418045 -0.186549 -1.958940 0
M  V30 21 H -1.388243 1.101059 -0.212776 0
M  V30 22 H -2.482440 -0.251933 0.426474 0
M  V30 23 H -2.156991 -0.084355 -1.292822 0
M  V30 24 H 0.075042 -2.684201 0.568045 0
M  V30 25 H -1.321152 -1.959631 1.415551 0
M  V30 26 H -1.497955 -2.697632 -0.255930 0
M  V30 END ATOM
M  V30 BEGIN BOND
M  V30 1 1 1 2
M  V30 2 1 2 3
M  V30 3 1 3 4
M  V30 4 2 4 5
M  V30 5 1 4 6
M  V30 6 1 2 7
M  V30 7 1 7 8
M  V30 8 1 8 9
M  V30 9 1 8 10
M  V30 10 1 8 11
M  V30 11 1 1 12
M  V30 12 1 2 13 CFG=1
M  V30 13 1 3 14
M  V30 14 1 3 15
M  V30 15 1 7 16
M  V30 16 1 7 17
M  V30 17 1 9 18
M  V30 18 1 9 19
M  V30 19 1 9 20
M  V30 20 1 10 21
M  V30 21 1 10 22
M  V30 22 1 10 23
M  V30 23 1 11 24
M  V30 24 1 11 25
M  V30 25 1 11 26
M  V30 END BOND
M  V30 END CTAB
M  END
>  <Dataset>  (2) 
PDB

>  <Ligand_Instance>  (2) 
5N3N_152_A_403

>  <PDB_ID>  (2) 
5N3N

>  <Standardized_SMILES>  (2) 
[H]O[C@]([H])(C([H])([H])C(=O)[O-])C([H])([H])[N+](C([H])([H])[H])(C([H])([H])[H])C([H])([H])[H]

>  <Name>  (2) 
CARNITINE

>  <Pocket>  (2) 
X

>  <ATP_Site>  (2) 
0.0

>  <Peripheral>  (2) 
1.0

>  <Num_H_Atoms_ProtBoundConf>  (2) 
15.0

>  <Num_Resolved_Atoms>  (2) 
11.0

>  <Num_Not_Resolved_Atoms>  (2) 
0.0

>  <2D_Mol_H>  (2) 
<rdkit.Chem.rdchem.Mol object at 0x72a238db6880>

>  <MW>  (2) 
161.201

>  <HBA>  (2) 
3

>  <HBD>  (2) 
1

>  <LogP>  (2) 
-1.8065

>  <NRB>  (2) 
8

>  <TPSA>  (2) 
60.36

>  <Num_Heavy_Atoms>  (2) 
11

>  <Ro5>  (2) 
[True, True, True, True, True, True]

>  <Ro5_Fulfilled>  (2) 
True

>  <Ro3>  (2) 
[True, True, True, True]

>  <Ro3_Fulfilled>  (2) 
True

>  <Fsp3>  (2) 
0.857143

>  <Fsp3_0.42>  (2) 
True

>  <Fsp3_0.45>  (2) 
True

>  <Stereogenic_Carbons>  (2) 
1

>  <C_Atoms>  (2) 
7

>  <FCStereo>  (2) 
0.142857

>  <SPS>  (2) 
160

>  <nSPS>  (2) 
14.545455

>  <PBF>  (2) 
0.808491

>  <PBF_0.6>  (2) 
True

>  <nPBF>  (2) 
0.073499

>  <nPBF_0.016>  (2) 
True

>  <PMI1>  (2) 
290.244893

>  <PMI2>  (2) 
748.589063

>  <PMI3>  (2) 
855.991755

>  <NPR1>  (2) 
0.339074

>  <NPR2>  (2) 
0.874528

>  <Sum_NPR>  (2) 
1.213603

>  <Sum_NPR_1.07>  (2) 
True

>  <Sum_NPR_1.2>  (2) 
True

>  <MaxAbsEStateIndex>  (2) 
10.017511

>  <MaxEStateIndex>  (2) 
10.017511

>  <MinAbsEStateIndex>  (2) 
0.282222

>  <MinEStateIndex>  (2) 
-1.202824

>  <qed>  (2) 
0.494486

>  <MolWt>  (2) 
161.201

>  <HeavyAtomMolWt>  (2) 
146.081

>  <ExactMolWt>  (2) 
161.105193

>  <NumValenceElectrons>  (2) 
66

>  <NumRadicalElectrons>  (2) 
0

>  <MaxPartialCharge>  (2) 
0.108046

>  <MinPartialCharge>  (2) 
-0.550064

>  <MaxAbsPartialCharge>  (2) 
0.550064

>  <MinAbsPartialCharge>  (2) 
0.108046

>  <FpDensityMorgan1>  (2) 
1.545455

>  <FpDensityMorgan2>  (2) 
2.0

>  <FpDensityMorgan3>  (2) 
2.272727

>  <BCUT2D_MWHI>  (2) 
16.368572

>  <BCUT2D_MWLOW>  (2) 
10.214394

>  <BCUT2D_CHGHI>  (2) 
2.143201

>  <BCUT2D_CHGLO>  (2) 
-2.262512

>  <BCUT2D_LOGPHI>  (2) 
1.972156

>  <BCUT2D_LOGPLOW>  (2) 
-2.428755

>  <BCUT2D_MRHI>  (2) 
5.642884

>  <BCUT2D_MRLOW>  (2) 
-0.873101

>  <AvgIpc>  (2) 
1.534524

>  <BalabanJ>  (2) 
3.694259

>  <BertzCT>  (2) 
139.111337

>  <Chi0>  (2) 
9.068914

>  <Chi0n>  (2) 
7.202488

>  <Chi0v>  (2) 
7.202488

>  <Chi1>  (2) 
4.810349

>  <Chi1n>  (2) 
3.494366

>  <Chi1v>  (2) 
3.494366

>  <Chi2n>  (2) 
3.702854

>  <Chi2v>  (2) 
3.702854

>  <Chi3n>  (2) 
1.160763

>  <Chi3v>  (2) 
1.160763

>  <Chi4n>  (2) 
0.889184

>  <Chi4v>  (2) 
0.889184

>  <HallKierAlpha>  (2) 
-0.61

>  <Ipc>  (2) 
108.95123

>  <Kappa1>  (2) 
10.39

>  <Kappa2>  (2) 
3.68662

>  <Kappa3>  (2) 
7.285017

>  <LabuteASA>  (2) 
66.648698

>  <PEOE_VSA1>  (2) 
19.490623

>  <PEOE_VSA10>  (2) 
12.648723

>  <PEOE_VSA11>  (2) 
0.0

>  <PEOE_VSA12>  (2) 
0.0

>  <PEOE_VSA13>  (2) 
0.0

>  <PEOE_VSA14>  (2) 
0.0

>  <PEOE_VSA2>  (2) 
0.0

>  <PEOE_VSA3>  (2) 
0.0

>  <PEOE_VSA4>  (2) 
0.0

>  <PEOE_VSA5>  (2) 
0.0

>  <PEOE_VSA6>  (2) 
0.0

>  <PEOE_VSA7>  (2) 
0.0

>  <PEOE_VSA8>  (2) 
12.390127

>  <PEOE_VSA9>  (2) 
21.143016

>  <SMR_VSA1>  (2) 
19.490623

>  <SMR_VSA10>  (2) 
5.969305

>  <SMR_VSA2>  (2) 
0.0

>  <SMR_VSA3>  (2) 
0.0

>  <SMR_VSA4>  (2) 
0.0

>  <SMR_VSA5>  (2) 
12.524788

>  <SMR_VSA6>  (2) 
27.687772

>  <SMR_VSA7>  (2) 
0.0

>  <SMR_VSA8>  (2) 
0.0

>  <SMR_VSA9>  (2) 
0.0

>  <SlogP_VSA1>  (2) 
5.106527

>  <SlogP_VSA10>  (2) 
0.0

>  <SlogP_VSA11>  (2) 
0.0

>  <SlogP_VSA12>  (2) 
0.0

>  <SlogP_VSA2>  (2) 
49.350602

>  <SlogP_VSA3>  (2) 
4.794537

>  <SlogP_VSA4>  (2) 
0.0

>  <SlogP_VSA5>  (2) 
6.420822

>  <SlogP_VSA6>  (2) 
0.0

>  <SlogP_VSA7>  (2) 
0.0

>  <SlogP_VSA8>  (2) 
0.0

>  <SlogP_VSA9>  (2) 
0.0

>  <EState_VSA1>  (2) 
12.073272

>  <EState_VSA10>  (2) 
9.901065

>  <EState_VSA11>  (2) 
0.0

>  <EState_VSA2>  (2) 
6.420822

>  <EState_VSA3>  (2) 
11.027787

>  <EState_VSA4>  (2) 
0.0

>  <EState_VSA5>  (2) 
0.0

>  <EState_VSA6>  (2) 
0.0

>  <EState_VSA7>  (2) 
21.143016

>  <EState_VSA8>  (2) 
0.0

>  <EState_VSA9>  (2) 
5.106527

>  <VSA_EState1>  (2) 
0.550046

>  <VSA_EState10>  (2) 
0.0

>  <VSA_EState2>  (2) 
10.017511

>  <VSA_EState3>  (2) 
19.136261

>  <VSA_EState4>  (2) 
0.0

>  <VSA_EState5>  (2) 
-1.202824

>  <VSA_EState6>  (2) 
0.0

>  <VSA_EState7>  (2) 
-1.087778

>  <VSA_EState8>  (2) 
0.424583

>  <VSA_EState9>  (2) 
5.6622

>  <FractionCSP3>  (2) 
0.857143

>  <HeavyAtomCount>  (2) 
11

>  <NHOHCount>  (2) 
1

>  <NOCount>  (2) 
4

>  <NumAliphaticCarbocycles>  (2) 
0

>  <NumAliphaticHeterocycles>  (2) 
0

>  <NumAliphaticRings>  (2) 
0

>  <NumAromaticCarbocycles>  (2) 
0

>  <NumAromaticHeterocycles>  (2) 
0

>  <NAR>  (2) 
0

>  <NumHAcceptors>  (2) 
3

>  <NumHDonors>  (2) 
1

>  <NumHeteroatoms>  (2) 
4

>  <NumRotatableBonds>  (2) 
4

>  <NumSaturatedCarbocycles>  (2) 
0

>  <NumSaturatedHeterocycles>  (2) 
0

>  <NumSaturatedRings>  (2) 
0

>  <RingCount>  (2) 
0

>  <MolLogP>  (2) 
-1.8065

>  <MolMR>  (2) 
38.5302

>  <fr_Al_COO>  (2) 
1

>  <fr_Al_OH>  (2) 
1

>  <fr_Al_OH_noTert>  (2) 
1

>  <fr_ArN>  (2) 
0

>  <fr_Ar_COO>  (2) 
0

>  <fr_Ar_N>  (2) 
0

>  <fr_Ar_NH>  (2) 
0

>  <fr_Ar_OH>  (2) 
0

>  <fr_COO>  (2) 
1

>  <fr_COO2>  (2) 
1

>  <fr_C_O>  (2) 
1

>  <fr_C_O_noCOO>  (2) 
1

>  <fr_C_S>  (2) 
0

>  <fr_HOCCN>  (2) 
0

>  <fr_Imine>  (2) 
0

>  <fr_NH0>  (2) 
1

>  <fr_NH1>  (2) 
0

>  <fr_NH2>  (2) 
0

>  <fr_N_O>  (2) 
0

>  <fr_Ndealkylation1>  (2) 
1

>  <fr_Ndealkylation2>  (2) 
0

>  <fr_Nhpyrrole>  (2) 
0

>  <fr_SH>  (2) 
0

>  <fr_aldehyde>  (2) 
0

>  <fr_alkyl_carbamate>  (2) 
0

>  <fr_alkyl_halide>  (2) 
0

>  <fr_allylic_oxid>  (2) 
0

>  <fr_amide>  (2) 
0

>  <fr_amidine>  (2) 
0

>  <fr_aniline>  (2) 
0

>  <fr_aryl_methyl>  (2) 
0

>  <fr_azide>  (2) 
0

>  <fr_azo>  (2) 
0

>  <fr_barbitur>  (2) 
0

>  <fr_benzene>  (2) 
0

>  <fr_benzodiazepine>  (2) 
0

>  <fr_bicyclic>  (2) 
0

>  <fr_diazo>  (2) 
0

>  <fr_dihydropyridine>  (2) 
0

>  <fr_epoxide>  (2) 
0

>  <fr_ester>  (2) 
0

>  <fr_ether>  (2) 
0

>  <fr_furan>  (2) 
0

>  <fr_guanido>  (2) 
0

>  <fr_halogen>  (2) 
0

>  <fr_hdrzine>  (2) 
0

>  <fr_hdrzone>  (2) 
0

>  <fr_imidazole>  (2) 
0

>  <fr_imide>  (2) 
0

>  <fr_isocyan>  (2) 
0

>  <fr_isothiocyan>  (2) 
0

>  <fr_ketone>  (2) 
0

>  <fr_ketone_Topliss>  (2) 
0

>  <fr_lactam>  (2) 
0

>  <fr_lactone>  (2) 
0

>  <fr_methoxy>  (2) 
0

>  <fr_morpholine>  (2) 
0

>  <fr_nitrile>  (2) 
0

>  <fr_nitro>  (2) 
0

>  <fr_nitro_arom>  (2) 
0

>  <fr_nitro_arom_nonortho>  (2) 
0

>  <fr_nitroso>  (2) 
0

>  <fr_oxazole>  (2) 
0

>  <fr_oxime>  (2) 
0

>  <fr_para_hydroxylation>  (2) 
0

>  <fr_phenol>  (2) 
0

>  <fr_phenol_noOrthoHbond>  (2) 
0

>  <fr_phos_acid>  (2) 
0

>  <fr_phos_ester>  (2) 
0

>  <fr_piperdine>  (2) 
0

>  <fr_piperzine>  (2) 
0

>  <fr_priamide>  (2) 
0

>  <fr_prisulfonamd>  (2) 
0

>  <fr_pyridine>  (2) 
0

>  <fr_quatN>  (2) 
1

>  <fr_sulfide>  (2) 
0

>  <fr_sulfonamd>  (2) 
0

>  <fr_sulfone>  (2) 
0

>  <fr_term_acetylene>  (2) 
0

>  <fr_tetrazole>  (2) 
0

>  <fr_thiazole>  (2) 
0

>  <fr_thiocyan>  (2) 
0

>  <fr_thiophene>  (2) 
0

>  <fr_unbrch_alkane>  (2) 
0

>  <fr_urea>  (2) 
0

>  <NP-Likeness>  (2) 
0.613942

$$$$
15I
     RDKit          3D

  0  0  0  0  0  0  0  0  0  0999 V3000
M  V30 BEGIN CTAB
M  V30 COUNTS 41 44 0 0 0
M  V30 BEGIN ATOM
M  V30 1 C -2.030887 -4.810432 1.935560 0
M  V30 2 N -0.879710 -5.293398 2.460765 0
M  V30 3 C 0.229266 -4.563549 2.308118 0
M  V30 4 C 0.213957 -3.344938 1.633122 0
M  V30 5 N 1.458463 -2.895218 1.665334 0
M  V30 6 C 2.279316 -3.750670 2.321466 0
M  V30 7 N 1.504671 -4.784121 2.716668 0
M  V30 8 C -0.971520 -2.857508 1.097740 0
M  V30 9 N -1.006289 -1.636675 0.417149 0
M  V30 10 C -0.190205 -1.522659 -0.736626 0
M  V30 11 C 0.202065 -0.122205 -1.067305 0
M  V30 12 C 0.267224 0.828451 0.077699 0
M  V30 13 C -0.730083 0.557074 1.179308 0
M  V30 14 C -1.797022 -0.435770 0.754318 0
M  V30 15 C 0.002334 2.235348 -0.398747 0
M  V30 16 C 1.218092 3.116578 -0.351955 0
M  V30 17 C 1.951312 3.072601 0.960951 0
M  V30 18 N 1.669818 1.843272 1.695433 0 CHG=1 VAL=4
M  V30 19 C 1.645352 0.793048 0.693794 0
M  V30 20 N -2.065337 -3.623298 1.273604 0
M  V30 21 H -2.898630 -5.439978 2.087212 0
M  V30 22 H 3.329671 -3.492817 2.415710 0
M  V30 23 H 1.918533 -5.570222 3.243013 0
M  V30 24 H 0.702500 -2.162623 -0.761233 0
M  V30 25 H -0.815626 -1.891250 -1.601821 0
M  V30 26 H -0.465920 0.330254 -1.847492 0
M  V30 27 H 1.220708 -0.109197 -1.544556 0
M  V30 28 H -0.234256 0.043664 2.055313 0
M  V30 29 H -1.263658 1.461116 1.527819 0
M  V30 30 H -2.310205 -0.019792 -0.138885 0
M  V30 31 H -2.443690 -0.612791 1.621124 0
M  V30 32 H -0.325346 2.210567 -1.459647 0
M  V30 33 H -0.817262 2.745682 0.150098 0
M  V30 34 H 0.850822 4.162950 -0.478937 0
M  V30 35 H 1.867280 2.904485 -1.217554 0
M  V30 36 H 1.784707 3.943169 1.598286 0
M  V30 37 H 3.048169 3.040376 0.729460 0
M  V30 38 H 2.382811 1.670436 2.411797 0
M  V30 39 H 0.749449 2.013674 2.153954 0
M  V30 40 H 2.368546 1.048154 -0.118273 0
M  V30 41 H 1.933412 -0.177838 1.093297 0
M  V30 END ATOM
M  V30 BEGIN BOND
M  V30 1 2 1 2
M  V30 2 1 2 3
M  V30 3 2 3 4
M  V30 4 1 4 5
M  V30 5 2 5 6
M  V30 6 1 6 7
M  V30 7 1 4 8
M  V30 8 1 8 9
M  V30 9 1 9 10
M  V30 10 1 10 11
M  V30 11 1 11 12
M  V30 12 1 12 13
M  V30 13 1 13 14
M  V30 14 1 12 15
M  V30 15 1 15 16
M  V30 16 1 16 17
M  V30 17 1 17 18
M  V30 18 1 18 19
M  V30 19 2 8 20
M  V30 20 1 20 1
M  V30 21 1 7 3
M  V30 22 1 14 9
M  V30 23 1 19 12
M  V30 24 1 1 21
M  V30 25 1 6 22
M  V30 26 1 7 23
M  V30 27 1 10 24
M  V30 28 1 10 25
M  V30 29 1 11 26
M  V30 30 1 11 27
M  V30 31 1 13 28
M  V30 32 1 13 29
M  V30 33 1 14 30
M  V30 34 1 14 31
M  V30 35 1 15 32
M  V30 36 1 15 33
M  V30 37 1 16 34
M  V30 38 1 16 35
M  V30 39 1 17 36
M  V30 40 1 17 37
M  V30 41 1 18 38
M  V30 42 1 18 39
M  V30 43 1 19 40
M  V30 44 1 19 41
M  V30 END BOND
M  V30 END CTAB
M  END
>  <Dataset>  (3) 
PDB

>  <Ligand_Instance>  (3) 
3ZO2_15I_A_1351

>  <PDB_ID>  (3) 
3ZO2

>  <Standardized_SMILES>  (3) 
[H]C1=NC2=C(N=C([H])N2[H])C(N2C([H])([H])C([H])([H])C3(C([H])([H])C2([H])[H])C([H])([H])C([H])([H])C([H])([H])[N+]([H])([H])C3([H])[H])=N1

>  <Name>  (3) 
6-(2,9-Diazaspiro[5.5]undecan-9-yl)-9H-purine

>  <Pocket>  (3) 
A

>  <ATP_Site>  (3) 
1.0

>  <Peripheral>  (3) 
0.0

>  <Num_H_Atoms_ProtBoundConf>  (3) 
21.0

>  <Num_Resolved_Atoms>  (3) 
20.0

>  <Num_Not_Resolved_Atoms>  (3) 
0.0

>  <2D_Mol_H>  (3) 
<rdkit.Chem.rdchem.Mol object at 0x72a238db6960>

>  <MW>  (3) 
273.364

>  <HBA>  (3) 
4

>  <HBD>  (3) 
2

>  <LogP>  (3) 
0.2967

>  <NRB>  (3) 
1

>  <TPSA>  (3) 
74.31

>  <Num_Heavy_Atoms>  (3) 
20

>  <Ro5>  (3) 
[True, True, True, True, True, True]

>  <Ro5_Fulfilled>  (3) 
True

>  <Ro3>  (3) 
[True, False, True, True]

>  <Ro3_Fulfilled>  (3) 
True

>  <Fsp3>  (3) 
0.642857

>  <Fsp3_0.42>  (3) 
True

>  <Fsp3_0.45>  (3) 
True

>  <Stereogenic_Carbons>  (3) 
0

>  <C_Atoms>  (3) 
14

>  <FCStereo>  (3) 
0.0

>  <SPS>  (3) 
450

>  <nSPS>  (3) 
22.5

>  <PBF>  (3) 
0.834538

>  <PBF_0.6>  (3) 
True

>  <nPBF>  (3) 
0.041727

>  <nPBF_0.016>  (3) 
True

>  <PMI1>  (3) 
658.716325

>  <PMI2>  (3) 
2418.287032

>  <PMI3>  (3) 
2788.761433

>  <NPR1>  (3) 
0.236204

>  <NPR2>  (3) 
0.867155

>  <Sum_NPR>  (3) 
1.103358

>  <Sum_NPR_1.07>  (3) 
True

>  <Sum_NPR_1.2>  (3) 
False

>  <MaxAbsEStateIndex>  (3) 
4.460843

>  <MaxEStateIndex>  (3) 
4.460843

>  <MinAbsEStateIndex>  (3) 
0.575864

>  <MinEStateIndex>  (3) 
0.575864

>  <qed>  (3) 
0.783339

>  <MolWt>  (3) 
273.364

>  <HeavyAtomMolWt>  (3) 
252.196

>  <ExactMolWt>  (3) 
273.182221

>  <NumValenceElectrons>  (3) 
106

>  <NumRadicalElectrons>  (3) 
0

>  <MaxPartialCharge>  (3) 
0.16229

>  <MinPartialCharge>  (3) 
-0.35461

>  <MaxAbsPartialCharge>  (3) 
0.35461

>  <MinAbsPartialCharge>  (3) 
0.16229

>  <FpDensityMorgan1>  (3) 
1.15

>  <FpDensityMorgan2>  (3) 
2.05

>  <FpDensityMorgan3>  (3) 
2.85

>  <BCUT2D_MWHI>  (3) 
15.217492

>  <BCUT2D_MWLOW>  (3) 
9.729212

>  <BCUT2D_CHGHI>  (3) 
2.380047

>  <BCUT2D_CHGLO>  (3) 
-2.424713

>  <BCUT2D_LOGPHI>  (3) 
2.370237

>  <BCUT2D_LOGPLOW>  (3) 
-2.889209

>  <BCUT2D_MRHI>  (3) 
5.821693

>  <BCUT2D_MRLOW>  (3) 
-0.676555

>  <AvgIpc>  (3) 
2.974442

>  <BalabanJ>  (3) 
1.55189

>  <BertzCT>  (3) 
590.484865

>  <Chi0>  (3) 
13.416003

>  <Chi0n>  (3) 
11.677759

>  <Chi0v>  (3) 
11.677759

>  <Chi1>  (3) 
9.863703

>  <Chi1n>  (3) 
7.570865

>  <Chi1v>  (3) 
7.570865

>  <Chi2n>  (3) 
6.169102

>  <Chi2v>  (3) 
6.169102

>  <Chi3n>  (3) 
5.014221

>  <Chi3v>  (3) 
5.014221

>  <Chi4n>  (3) 
3.762065

>  <Chi4v>  (3) 
3.762065

>  <HallKierAlpha>  (3) 
-1.69

>  <Ipc>  (3) 
99322.572112

>  <Kappa1>  (3) 
12.081353

>  <Kappa2>  (3) 
4.697198

>  <Kappa3>  (3) 
1.947156

>  <LabuteASA>  (3) 
117.563685

>  <PEOE_VSA1>  (3) 
15.200677

>  <PEOE_VSA10>  (3) 
11.844021

>  <PEOE_VSA11>  (3) 
11.46504

>  <PEOE_VSA12>  (3) 
0.0

>  <PEOE_VSA13>  (3) 
0.0

>  <PEOE_VSA14>  (3) 
0.0

>  <PEOE_VSA2>  (3) 
0.0

>  <PEOE_VSA3>  (3) 
14.951936

>  <PEOE_VSA4>  (3) 
0.0

>  <PEOE_VSA5>  (3) 
0.0

>  <PEOE_VSA6>  (3) 
0.0

>  <PEOE_VSA7>  (3) 
25.683286

>  <PEOE_VSA8>  (3) 
18.504503

>  <PEOE_VSA9>  (3) 
19.416833

>  <SMR_VSA1>  (3) 
5.316789

>  <SMR_VSA10>  (3) 
16.981741

>  <SMR_VSA2>  (3) 
0.0

>  <SMR_VSA3>  (3) 
19.935914

>  <SMR_VSA4>  (3) 
5.41499

>  <SMR_VSA5>  (3) 
25.683286

>  <SMR_VSA6>  (3) 
31.078935

>  <SMR_VSA7>  (3) 
12.65464

>  <SMR_VSA8>  (3) 
0.0

>  <SMR_VSA9>  (3) 
0.0

>  <SlogP_VSA1>  (3) 
10.216698

>  <SlogP_VSA10>  (3) 
5.817863

>  <SlogP_VSA11>  (3) 
0.0

>  <SlogP_VSA12>  (3) 
0.0

>  <SlogP_VSA2>  (3) 
46.11494

>  <SlogP_VSA3>  (3) 
0.0

>  <SlogP_VSA4>  (3) 
5.41499

>  <SlogP_VSA5>  (3) 
25.683286

>  <SlogP_VSA6>  (3) 
12.65464

>  <SlogP_VSA7>  (3) 
0.0

>  <SlogP_VSA8>  (3) 
11.163878

>  <SlogP_VSA9>  (3) 
0.0

>  <EState_VSA1>  (3) 
0.0

>  <EState_VSA10>  (3) 
0.0

>  <EState_VSA11>  (3) 
0.0

>  <EState_VSA2>  (3) 
0.0

>  <EState_VSA3>  (3) 
5.41499

>  <EState_VSA4>  (3) 
30.071254

>  <EState_VSA5>  (3) 
38.772799

>  <EState_VSA6>  (3) 
12.65464

>  <EState_VSA7>  (3) 
0.0

>  <EState_VSA8>  (3) 
30.152612

>  <EState_VSA9>  (3) 
0.0

>  <VSA_EState1>  (3) 
0.0

>  <VSA_EState10>  (3) 
0.0

>  <VSA_EState2>  (3) 
18.491199

>  <VSA_EState3>  (3) 
2.495794

>  <VSA_EState4>  (3) 
2.311922

>  <VSA_EState5>  (3) 
0.991564

>  <VSA_EState6>  (3) 
0.0

>  <VSA_EState7>  (3) 
8.660589

>  <VSA_EState8>  (3) 
4.798931

>  <VSA_EState9>  (3) 
0.0

>  <FractionCSP3>  (3) 
0.642857

>  <HeavyAtomCount>  (3) 
20

>  <NHOHCount>  (3) 
3

>  <NOCount>  (3) 
6

>  <NumAliphaticCarbocycles>  (3) 
0

>  <NumAliphaticHeterocycles>  (3) 
2

>  <NumAliphaticRings>  (3) 
2

>  <NumAromaticCarbocycles>  (3) 
0

>  <NumAromaticHeterocycles>  (3) 
2

>  <NAR>  (3) 
2

>  <NumHAcceptors>  (3) 
4

>  <NumHDonors>  (3) 
2

>  <NumHeteroatoms>  (3) 
6

>  <NumRotatableBonds>  (3) 
1

>  <NumSaturatedCarbocycles>  (3) 
0

>  <NumSaturatedHeterocycles>  (3) 
2

>  <NumSaturatedRings>  (3) 
2

>  <RingCount>  (3) 
4

>  <MolLogP>  (3) 
0.2967

>  <MolMR>  (3) 
76.4571

>  <fr_Al_COO>  (3) 
0

>  <fr_Al_OH>  (3) 
0

>  <fr_Al_OH_noTert>  (3) 
0

>  <fr_ArN>  (3) 
0

>  <fr_Ar_COO>  (3) 
0

>  <fr_Ar_N>  (3) 
4

>  <fr_Ar_NH>  (3) 
1

>  <fr_Ar_OH>  (3) 
0

>  <fr_COO>  (3) 
0

>  <fr_COO2>  (3) 
0

>  <fr_C_O>  (3) 
0

>  <fr_C_O_noCOO>  (3) 
0

>  <fr_C_S>  (3) 
0

>  <fr_HOCCN>  (3) 
0

>  <fr_Imine>  (3) 
0

>  <fr_NH0>  (3) 
4

>  <fr_NH1>  (3) 
1

>  <fr_NH2>  (3) 
1

>  <fr_N_O>  (3) 
0

>  <fr_Ndealkylation1>  (3) 
0

>  <fr_Ndealkylation2>  (3) 
0

>  <fr_Nhpyrrole>  (3) 
1

>  <fr_SH>  (3) 
0

>  <fr_aldehyde>  (3) 
0

>  <fr_alkyl_carbamate>  (3) 
0

>  <fr_alkyl_halide>  (3) 
0

>  <fr_allylic_oxid>  (3) 
0

>  <fr_amide>  (3) 
0

>  <fr_amidine>  (3) 
0

>  <fr_aniline>  (3) 
1

>  <fr_aryl_methyl>  (3) 
0

>  <fr_azide>  (3) 
0

>  <fr_azo>  (3) 
0

>  <fr_barbitur>  (3) 
0

>  <fr_benzene>  (3) 
0

>  <fr_benzodiazepine>  (3) 
0

>  <fr_bicyclic>  (3) 
1

>  <fr_diazo>  (3) 
0

>  <fr_dihydropyridine>  (3) 
0

>  <fr_epoxide>  (3) 
0

>  <fr_ester>  (3) 
0

>  <fr_ether>  (3) 
0

>  <fr_furan>  (3) 
0

>  <fr_guanido>  (3) 
0

>  <fr_halogen>  (3) 
0

>  <fr_hdrzine>  (3) 
0

>  <fr_hdrzone>  (3) 
0

>  <fr_imidazole>  (3) 
1

>  <fr_imide>  (3) 
0

>  <fr_isocyan>  (3) 
0

>  <fr_isothiocyan>  (3) 
0

>  <fr_ketone>  (3) 
0

>  <fr_ketone_Topliss>  (3) 
0

>  <fr_lactam>  (3) 
0

>  <fr_lactone>  (3) 
0

>  <fr_methoxy>  (3) 
0

>  <fr_morpholine>  (3) 
0

>  <fr_nitrile>  (3) 
0

>  <fr_nitro>  (3) 
0

>  <fr_nitro_arom>  (3) 
0

>  <fr_nitro_arom_nonortho>  (3) 
0

>  <fr_nitroso>  (3) 
0

>  <fr_oxazole>  (3) 
0

>  <fr_oxime>  (3) 
0

>  <fr_para_hydroxylation>  (3) 
0

>  <fr_phenol>  (3) 
0

>  <fr_phenol_noOrthoHbond>  (3) 
0

>  <fr_phos_acid>  (3) 
0

>  <fr_phos_ester>  (3) 
0

>  <fr_piperdine>  (3) 
2

>  <fr_piperzine>  (3) 
0

>  <fr_priamide>  (3) 
0

>  <fr_prisulfonamd>  (3) 
0

>  <fr_pyridine>  (3) 
0

>  <fr_quatN>  (3) 
1

>  <fr_sulfide>  (3) 
0

>  <fr_sulfonamd>  (3) 
0

>  <fr_sulfone>  (3) 
0

>  <fr_term_acetylene>  (3) 
0

>  <fr_tetrazole>  (3) 
0

>  <fr_thiazole>  (3) 
0

>  <fr_thiocyan>  (3) 
0

>  <fr_thiophene>  (3) 
0

>  <fr_unbrch_alkane>  (3) 
0

>  <fr_urea>  (3) 
0

>  <NP-Likeness>  (3) 
-0.715747

$$$$
1LQ
     RDKit          3D

  0  0  0  0  0  0  0  0  0  0999 V3000
M  V30 BEGIN CTAB
M  V30 COUNTS 18 19 0 0 0
M  V30 BEGIN ATOM
M  V30 1 C -1.631220 0.410676 1.366502 0
M  V30 2 N -0.680711 1.085686 2.018471 0
M  V30 3 C 0.607300 0.818511 1.704982 0
M  V30 4 C 1.566578 1.531283 2.394896 0
M  V30 5 C 2.908886 1.312935 2.129048 0
M  V30 6 C 3.269947 0.381528 1.173725 0
M  V30 7 C 2.324701 -0.345892 0.468512 0
M  V30 8 C 1.006871 -0.095560 0.765934 0
M  V30 9 C -0.019099 -0.770627 0.116421 0
M  V30 10 N 0.285845 -1.728943 -0.864284 0
M  V30 11 N -1.308179 -0.507627 0.425708 0
M  V30 12 H -2.696173 0.580799 1.574281 0
M  V30 13 H 1.374231 2.286114 3.165796 0
M  V30 14 H 3.705124 1.854538 2.651061 0
M  V30 15 H 4.303727 0.150936 0.905732 0
M  V30 16 H 2.540994 -1.082786 -0.284972 0
M  V30 17 H -0.182592 -1.460348 -1.763584 0
M  V30 18 H 0.811746 -2.597833 -0.988773 0
M  V30 END ATOM
M  V30 BEGIN BOND
M  V30 1 2 1 2
M  V30 2 1 2 3
M  V30 3 2 3 4
M  V30 4 1 4 5
M  V30 5 2 5 6
M  V30 6 1 6 7
M  V30 7 2 7 8
M  V30 8 1 8 9
M  V30 9 1 9 10
M  V30 10 2 9 11
M  V30 11 1 11 1
M  V30 12 1 8 3
M  V30 13 1 1 12
M  V30 14 1 4 13
M  V30 15 1 5 14
M  V30 16 1 6 15
M  V30 17 1 7 16
M  V30 18 1 10 17
M  V30 19 1 10 18
M  V30 END BOND
M  V30 END CTAB
M  END
>  <Dataset>  (4) 
PDB

>  <Ligand_Instance>  (4) 
6Y0B_1LQ_A_401

>  <PDB_ID>  (4) 
6Y0B

>  <Standardized_SMILES>  (4) 
[H]C1=NC2=C([H])C([H])=C([H])C([H])=C2C(N([H])[H])=N1

>  <Name>  (4) 
quinazolin-4-amine

>  <Pocket>  (4) 
A

>  <ATP_Site>  (4) 
1.0

>  <Peripheral>  (4) 
0.0

>  <Num_H_Atoms_ProtBoundConf>  (4) 
7.0

>  <Num_Resolved_Atoms>  (4) 
11.0

>  <Num_Not_Resolved_Atoms>  (4) 
0.0

>  <2D_Mol_H>  (4) 
<rdkit.Chem.rdchem.Mol object at 0x72a238db6a40>

>  <MW>  (4) 
145.165

>  <HBA>  (4) 
3

>  <HBD>  (4) 
1

>  <LogP>  (4) 
1.212

>  <NRB>  (4) 
1

>  <TPSA>  (4) 
51.8

>  <Num_Heavy_Atoms>  (4) 
11

>  <Ro5>  (4) 
[True, True, True, True, True, True]

>  <Ro5_Fulfilled>  (4) 
True

>  <Ro3>  (4) 
[True, True, True, True]

>  <Ro3_Fulfilled>  (4) 
True

>  <Fsp3>  (4) 
0.0

>  <Fsp3_0.42>  (4) 
False

>  <Fsp3_0.45>  (4) 
False

>  <Stereogenic_Carbons>  (4) 
0

>  <C_Atoms>  (4) 
8

>  <FCStereo>  (4) 
0.0

>  <SPS>  (4) 
112

>  <nSPS>  (4) 
10.181818

>  <PBF>  (4) 
0.100882

>  <PBF_0.6>  (4) 
False

>  <nPBF>  (4) 
0.009171

>  <nPBF_0.016>  (4) 
False

>  <PMI1>  (4) 
252.780788

>  <PMI2>  (4) 
419.54112

>  <PMI3>  (4) 
670.333572

>  <NPR1>  (4) 
0.377097

>  <NPR2>  (4) 
0.625869

>  <Sum_NPR>  (4) 
1.002966

>  <Sum_NPR_1.07>  (4) 
False

>  <Sum_NPR_1.2>  (4) 
False

>  <MaxAbsEStateIndex>  (4) 
5.605093

>  <MaxEStateIndex>  (4) 
5.605093

>  <MinAbsEStateIndex>  (4) 
0.537593

>  <MinEStateIndex>  (4) 
0.537593

>  <qed>  (4) 
0.605817

>  <MolWt>  (4) 
145.165

>  <HeavyAtomMolWt>  (4) 
138.109

>  <ExactMolWt>  (4) 
145.063997

>  <NumValenceElectrons>  (4) 
54

>  <NumRadicalElectrons>  (4) 
0

>  <MaxPartialCharge>  (4) 
0.134188

>  <MinPartialCharge>  (4) 
-0.383082

>  <MaxAbsPartialCharge>  (4) 
0.383082

>  <MinAbsPartialCharge>  (4) 
0.134188

>  <FpDensityMorgan1>  (4) 
1.090909

>  <FpDensityMorgan2>  (4) 
1.909091

>  <FpDensityMorgan3>  (4) 
2.727273

>  <BCUT2D_MWHI>  (4) 
14.901151

>  <BCUT2D_MWLOW>  (4) 
10.219802

>  <BCUT2D_CHGHI>  (4) 
1.950864

>  <BCUT2D_CHGLO>  (4) 
-1.963213

>  <BCUT2D_LOGPHI>  (4) 
2.137

>  <BCUT2D_LOGPLOW>  (4) 
-1.914153

>  <BCUT2D_MRHI>  (4) 
5.867731

>  <BCUT2D_MRLOW>  (4) 
1.229597

>  <AvgIpc>  (4) 
2.05595

>  <BalabanJ>  (4) 
2.913161

>  <BertzCT>  (4) 
378.498884

>  <Chi0>  (4) 
7.681798

>  <Chi0n>  (4) 
5.858529

>  <Chi0v>  (4) 
5.858529

>  <Chi1>  (4) 
5.37701

>  <Chi1n>  (4) 
3.329637

>  <Chi1v>  (4) 
3.329637

>  <Chi2n>  (4) 
2.276058

>  <Chi2v>  (4) 
2.276058

>  <Chi3n>  (4) 
1.573645

>  <Chi3v>  (4) 
1.573645

>  <Chi4n>  (4) 
1.025626

>  <Chi4v>  (4) 
1.025626

>  <HallKierAlpha>  (4) 
-1.64

>  <Ipc>  (4) 
505.763735

>  <Kappa1>  (4) 
6.094932

>  <Kappa2>  (4) 
2.196105

>  <Kappa3>  (4) 
0.902215

>  <LabuteASA>  (4) 
63.892254

>  <PEOE_VSA1>  (4) 
5.733667

>  <PEOE_VSA10>  (4) 
12.145183

>  <PEOE_VSA11>  (4) 
0.0

>  <PEOE_VSA12>  (4) 
0.0

>  <PEOE_VSA13>  (4) 
0.0

>  <PEOE_VSA14>  (4) 
0.0

>  <PEOE_VSA2>  (4) 
0.0

>  <PEOE_VSA3>  (4) 
9.967957

>  <PEOE_VSA4>  (4) 
0.0

>  <PEOE_VSA5>  (4) 
0.0

>  <PEOE_VSA6>  (4) 
12.132734

>  <PEOE_VSA7>  (4) 
12.132734

>  <PEOE_VSA8>  (4) 
5.386224

>  <PEOE_VSA9>  (4) 
5.516701

>  <SMR_VSA1>  (4) 
0.0

>  <SMR_VSA10>  (4) 
16.720788

>  <SMR_VSA2>  (4) 
0.0

>  <SMR_VSA3>  (4) 
9.967957

>  <SMR_VSA4>  (4) 
0.0

>  <SMR_VSA5>  (4) 
0.0

>  <SMR_VSA6>  (4) 
5.733667

>  <SMR_VSA7>  (4) 
30.592788

>  <SMR_VSA8>  (4) 
0.0

>  <SMR_VSA9>  (4) 
0.0

>  <SlogP_VSA1>  (4) 
5.733667

>  <SlogP_VSA10>  (4) 
5.817863

>  <SlogP_VSA11>  (4) 
0.0

>  <SlogP_VSA12>  (4) 
0.0

>  <SlogP_VSA2>  (4) 
9.967957

>  <SlogP_VSA3>  (4) 
0.0

>  <SlogP_VSA4>  (4) 
0.0

>  <SlogP_VSA5>  (4) 
0.0

>  <SlogP_VSA6>  (4) 
30.592788

>  <SlogP_VSA7>  (4) 
0.0

>  <SlogP_VSA8>  (4) 
10.902925

>  <SlogP_VSA9>  (4) 
0.0

>  <EState_VSA1>  (4) 
0.0

>  <EState_VSA10>  (4) 
0.0

>  <EState_VSA11>  (4) 
0.0

>  <EState_VSA2>  (4) 
0.0

>  <EState_VSA3>  (4) 
5.817863

>  <EState_VSA4>  (4) 
10.902925

>  <EState_VSA5>  (4) 
6.32732

>  <EState_VSA6>  (4) 
0.0

>  <EState_VSA7>  (4) 
24.265468

>  <EState_VSA8>  (4) 
9.967957

>  <EState_VSA9>  (4) 
5.733667

>  <VSA_EState1>  (4) 
0.0

>  <VSA_EState10>  (4) 
0.0

>  <VSA_EState2>  (4) 
7.924907

>  <VSA_EState3>  (4) 
0.912037

>  <VSA_EState4>  (4) 
6.493981

>  <VSA_EState5>  (4) 
0.537593

>  <VSA_EState6>  (4) 
7.661574

>  <VSA_EState7>  (4) 
1.469907

>  <VSA_EState8>  (4) 
0.0

>  <VSA_EState9>  (4) 
0.0

>  <FractionCSP3>  (4) 
0.0

>  <HeavyAtomCount>  (4) 
11

>  <NHOHCount>  (4) 
2

>  <NOCount>  (4) 
3

>  <NumAliphaticCarbocycles>  (4) 
0

>  <NumAliphaticHeterocycles>  (4) 
0

>  <NumAliphaticRings>  (4) 
0

>  <NumAromaticCarbocycles>  (4) 
1

>  <NumAromaticHeterocycles>  (4) 
1

>  <NAR>  (4) 
2

>  <NumHAcceptors>  (4) 
3

>  <NumHDonors>  (4) 
1

>  <NumHeteroatoms>  (4) 
3

>  <NumRotatableBonds>  (4) 
0

>  <NumSaturatedCarbocycles>  (4) 
0

>  <NumSaturatedHeterocycles>  (4) 
0

>  <NumSaturatedRings>  (4) 
0

>  <RingCount>  (4) 
2

>  <MolLogP>  (4) 
1.212

>  <MolMR>  (4) 
43.9504

>  <fr_Al_COO>  (4) 
0

>  <fr_Al_OH>  (4) 
0

>  <fr_Al_OH_noTert>  (4) 
0

>  <fr_ArN>  (4) 
1

>  <fr_Ar_COO>  (4) 
0

>  <fr_Ar_N>  (4) 
2

>  <fr_Ar_NH>  (4) 
0

>  <fr_Ar_OH>  (4) 
0

>  <fr_COO>  (4) 
0

>  <fr_COO2>  (4) 
0

>  <fr_C_O>  (4) 
0

>  <fr_C_O_noCOO>  (4) 
0

>  <fr_C_S>  (4) 
0

>  <fr_HOCCN>  (4) 
0

>  <fr_Imine>  (4) 
0

>  <fr_NH0>  (4) 
2

>  <fr_NH1>  (4) 
0

>  <fr_NH2>  (4) 
1

>  <fr_N_O>  (4) 
0

>  <fr_Ndealkylation1>  (4) 
0

>  <fr_Ndealkylation2>  (4) 
0

>  <fr_Nhpyrrole>  (4) 
0

>  <fr_SH>  (4) 
0

>  <fr_aldehyde>  (4) 
0

>  <fr_alkyl_carbamate>  (4) 
0

>  <fr_alkyl_halide>  (4) 
0

>  <fr_allylic_oxid>  (4) 
0

>  <fr_amide>  (4) 
0

>  <fr_amidine>  (4) 
0

>  <fr_aniline>  (4) 
1

>  <fr_aryl_methyl>  (4) 
0

>  <fr_azide>  (4) 
0

>  <fr_azo>  (4) 
0

>  <fr_barbitur>  (4) 
0

>  <fr_benzene>  (4) 
1

>  <fr_benzodiazepine>  (4) 
0

>  <fr_bicyclic>  (4) 
1

>  <fr_diazo>  (4) 
0

>  <fr_dihydropyridine>  (4) 
0

>  <fr_epoxide>  (4) 
0

>  <fr_ester>  (4) 
0

>  <fr_ether>  (4) 
0

>  <fr_furan>  (4) 
0

>  <fr_guanido>  (4) 
0

>  <fr_halogen>  (4) 
0

>  <fr_hdrzine>  (4) 
0

>  <fr_hdrzone>  (4) 
0

>  <fr_imidazole>  (4) 
0

>  <fr_imide>  (4) 
0

>  <fr_isocyan>  (4) 
0

>  <fr_isothiocyan>  (4) 
0

>  <fr_ketone>  (4) 
0

>  <fr_ketone_Topliss>  (4) 
0

>  <fr_lactam>  (4) 
0

>  <fr_lactone>  (4) 
0

>  <fr_methoxy>  (4) 
0

>  <fr_morpholine>  (4) 
0

>  <fr_nitrile>  (4) 
0

>  <fr_nitro>  (4) 
0

>  <fr_nitro_arom>  (4) 
0

>  <fr_nitro_arom_nonortho>  (4) 
0

>  <fr_nitroso>  (4) 
0

>  <fr_oxazole>  (4) 
0

>  <fr_oxime>  (4) 
0

>  <fr_para_hydroxylation>  (4) 
1

>  <fr_phenol>  (4) 
0

>  <fr_phenol_noOrthoHbond>  (4) 
0

>  <fr_phos_acid>  (4) 
0

>  <fr_phos_ester>  (4) 
0

>  <fr_piperdine>  (4) 
0

>  <fr_piperzine>  (4) 
0

>  <fr_priamide>  (4) 
0

>  <fr_prisulfonamd>  (4) 
0

>  <fr_pyridine>  (4) 
0

>  <fr_quatN>  (4) 
0

>  <fr_sulfide>  (4) 
0

>  <fr_sulfonamd>  (4) 
0

>  <fr_sulfone>  (4) 
0

>  <fr_term_acetylene>  (4) 
0

>  <fr_tetrazole>  (4) 
0

>  <fr_thiazole>  (4) 
0

>  <fr_thiocyan>  (4) 
0

>  <fr_thiophene>  (4) 
0

>  <fr_unbrch_alkane>  (4) 
0

>  <fr_urea>  (4) 
0

>  <NP-Likeness>  (4) 
-0.797907

$$$$
1SB
     RDKit          3D

  0  0  0  0  0  0  0  0  0  0999 V3000
M  V30 BEGIN CTAB
M  V30 COUNTS 37 38 0 0 0
M  V30 BEGIN ATOM
M  V30 1 O -2.782083 -7.609292 -1.394142 0
M  V30 2 C -2.040239 -6.473337 -1.120834 0
M  V30 3 C -2.192924 -5.355422 -1.945434 0
M  V30 4 C -1.440328 -4.236697 -1.649006 0
M  V30 5 C -0.574096 -4.184438 -0.605600 0
M  V30 6 C 0.203916 -2.980242 -0.326267 0
M  V30 7 N 0.117397 -1.923650 -1.034071 0
M  V30 8 N 0.852252 -0.752088 -0.789655 0
M  V30 9 C 0.514906 0.451002 -0.110938 0
M  V30 10 O -0.628520 0.585324 0.397969 0
M  V30 11 C 1.685953 1.376455 -0.149188 0
M  V30 12 C 1.268674 2.608073 0.573912 0
M  V30 13 C 0.666181 3.719107 0.021518 0
M  V30 14 C 0.314353 4.811884 0.761102 0
M  V30 15 C 0.591171 4.762057 2.116903 0
M  V30 16 C 1.189314 3.674958 2.703387 0
M  V30 17 O 1.435866 3.697458 4.070939 0
M  V30 18 C 2.048331 2.588459 4.681337 0
M  V30 19 C 1.542557 2.569440 1.940863 0
M  V30 20 C -0.418627 -5.285669 0.212960 0
M  V30 21 C -1.152959 -6.424565 -0.049375 0
M  V30 22 H -2.801060 -8.361541 -0.708068 0
M  V30 23 H -2.902037 -5.440328 -2.775639 0
M  V30 24 H -1.597004 -3.411482 -2.312175 0
M  V30 25 H 0.893590 -2.943543 0.507304 0
M  V30 26 H 1.738630 -1.032861 -1.264372 0
M  V30 27 H 1.926286 1.691976 -1.202259 0
M  V30 28 H 2.611586 0.949881 0.240277 0
M  V30 29 H 0.488396 3.668376 -1.047146 0
M  V30 30 H -0.159170 5.662040 0.271803 0
M  V30 31 H 0.322316 5.619026 2.734494 0
M  V30 32 H 1.491136 1.669729 4.403904 0
M  V30 33 H 3.112377 2.452430 4.413223 0
M  V30 34 H 1.987630 2.656667 5.790290 0
M  V30 35 H 2.010351 1.732832 2.432084 0
M  V30 36 H 0.292930 -5.200642 1.046114 0
M  V30 37 H -1.019405 -7.287804 0.606756 0
M  V30 END ATOM
M  V30 BEGIN BOND
M  V30 1 1 1 2
M  V30 2 2 2 3
M  V30 3 1 3 4
M  V30 4 2 4 5
M  V30 5 1 5 6
M  V30 6 2 6 7
M  V30 7 1 7 8
M  V30 8 1 8 9
M  V30 9 2 9 10
M  V30 10 1 9 11
M  V30 11 1 11 12
M  V30 12 2 12 13
M  V30 13 1 13 14
M  V30 14 2 14 15
M  V30 15 1 15 16
M  V30 16 1 16 17
M  V30 17 1 17 18
M  V30 18 2 16 19
M  V30 19 1 5 20
M  V30 20 2 20 21
M  V30 21 1 21 2
M  V30 22 1 19 12
M  V30 23 1 1 22
M  V30 24 1 3 23
M  V30 25 1 4 24
M  V30 26 1 6 25
M  V30 27 1 8 26
M  V30 28 1 11 27
M  V30 29 1 11 28
M  V30 30 1 13 29
M  V30 31 1 14 30
M  V30 32 1 15 31
M  V30 33 1 18 32
M  V30 34 1 18 33
M  V30 35 1 18 34
M  V30 36 1 19 35
M  V30 37 1 20 36
M  V30 38 1 21 37
M  V30 END BOND
M  V30 END CTAB
M  END
>  <Dataset>  (5) 
PDB

>  <Ligand_Instance>  (5) 
3OVV_1SB_A_2001

>  <PDB_ID>  (5) 
3OVV

>  <Standardized_SMILES>  (5) 
[H]OC1=C([H])C([H])=C(/C([H])=N/N([H])C(=O)C([H])([H])C2=C([H])C([H])=C([H])C(OC([H])([H])[H])=C2[H])C([H])=C1[H]

>  <Name>  (5) 
N'-[(1E)-(4-hydroxyphenyl)methylidene]-2-(3-methoxyphenyl)acetohydrazide

>  <Pocket>  (5) 
A

>  <ATP_Site>  (5) 
1.0

>  <Peripheral>  (5) 
0.0

>  <Num_H_Atoms_ProtBoundConf>  (5) 
16.0

>  <Num_Resolved_Atoms>  (5) 
21.0

>  <Num_Not_Resolved_Atoms>  (5) 
0.0

>  <2D_Mol_H>  (5) 
<rdkit.Chem.rdchem.Mol object at 0x72a238db6b20>

>  <MW>  (5) 
284.315

>  <HBA>  (5) 
4

>  <HBD>  (5) 
2

>  <LogP>  (5) 
2.0936

>  <NRB>  (5) 
7

>  <TPSA>  (5) 
70.92

>  <Num_Heavy_Atoms>  (5) 
21

>  <Ro5>  (5) 
[True, True, True, True, True, True]

>  <Ro5_Fulfilled>  (5) 
True

>  <Ro3>  (5) 
[True, False, True, True]

>  <Ro3_Fulfilled>  (5) 
True

>  <Fsp3>  (5) 
0.125

>  <Fsp3_0.42>  (5) 
False

>  <Fsp3_0.45>  (5) 
False

>  <Stereogenic_Carbons>  (5) 
0

>  <C_Atoms>  (5) 
16

>  <FCStereo>  (5) 
0.0

>  <SPS>  (5) 
221

>  <nSPS>  (5) 
10.52381

>  <PBF>  (5) 
0.754923

>  <PBF_0.6>  (5) 
True

>  <nPBF>  (5) 
0.035949

>  <nPBF_0.016>  (5) 
True

>  <PMI1>  (5) 
607.424443

>  <PMI2>  (5) 
5751.248741

>  <PMI3>  (5) 
6071.249104

>  <NPR1>  (5) 
0.100049

>  <NPR2>  (5) 
0.947292

>  <Sum_NPR>  (5) 
1.047342

>  <Sum_NPR_1.07>  (5) 
False

>  <Sum_NPR_1.2>  (5) 
False

>  <MaxAbsEStateIndex>  (5) 
11.750733

>  <MaxEStateIndex>  (5) 
11.750733

>  <MinAbsEStateIndex>  (5) 
0.189084

>  <MinEStateIndex>  (5) 
-0.209925

>  <qed>  (5) 
0.652149

>  <MolWt>  (5) 
284.315

>  <HeavyAtomMolWt>  (5) 
268.187

>  <ExactMolWt>  (5) 
284.116092

>  <NumValenceElectrons>  (5) 
108

>  <NumRadicalElectrons>  (5) 
0

>  <MaxPartialCharge>  (5) 
0.243984

>  <MinPartialCharge>  (5) 
-0.507966

>  <MaxAbsPartialCharge>  (5) 
0.507966

>  <MinAbsPartialCharge>  (5) 
0.243984

>  <FpDensityMorgan1>  (5) 
1.285714

>  <FpDensityMorgan2>  (5) 
2.047619

>  <FpDensityMorgan3>  (5) 
2.761905

>  <BCUT2D_MWHI>  (5) 
16.465321

>  <BCUT2D_MWLOW>  (5) 
10.132069

>  <BCUT2D_CHGHI>  (5) 
2.02605

>  <BCUT2D_CHGLO>  (5) 
-2.031672

>  <BCUT2D_LOGPHI>  (5) 
2.124186

>  <BCUT2D_LOGPLOW>  (5) 
-2.192562

>  <BCUT2D_MRHI>  (5) 
5.829293

>  <BCUT2D_MRLOW>  (5) 
-0.119914

>  <AvgIpc>  (5) 
2.492639

>  <BalabanJ>  (5) 
1.87813

>  <BertzCT>  (5) 
636.225278

>  <Chi0>  (5) 
15.07914

>  <Chi0n>  (5) 
11.614183

>  <Chi0v>  (5) 
11.614183

>  <Chi1>  (5) 
10.169035

>  <Chi1n>  (5) 
6.410425

>  <Chi1v>  (5) 
6.410425

>  <Chi2n>  (5) 
4.413017

>  <Chi2v>  (5) 
4.413017

>  <Chi3n>  (5) 
2.79479

>  <Chi3v>  (5) 
2.79479

>  <Chi4n>  (5) 
1.746541

>  <Chi4v>  (5) 
1.746541

>  <HallKierAlpha>  (5) 
-2.82

>  <Ipc>  (5) 
60351.764301

>  <Kappa1>  (5) 
14.586228

>  <Kappa2>  (5) 
7.093633

>  <Kappa3>  (5) 
4.649392

>  <LabuteASA>  (5) 
122.432888

>  <PEOE_VSA1>  (5) 
9.84339

>  <PEOE_VSA10>  (5) 
11.499024

>  <PEOE_VSA11>  (5) 
0.0

>  <PEOE_VSA12>  (5) 
5.90718

>  <PEOE_VSA13>  (5) 
0.0

>  <PEOE_VSA14>  (5) 
0.0

>  <PEOE_VSA2>  (5) 
4.794537

>  <PEOE_VSA3>  (5) 
5.425791

>  <PEOE_VSA4>  (5) 
5.101408

>  <PEOE_VSA5>  (5) 
0.0

>  <PEOE_VSA6>  (5) 
12.132734

>  <PEOE_VSA7>  (5) 
47.525105

>  <PEOE_VSA8>  (5) 
0.0

>  <PEOE_VSA9>  (5) 
19.74522

>  <SMR_VSA1>  (5) 
14.637928

>  <SMR_VSA10>  (5) 
12.12178

>  <SMR_VSA2>  (5) 
0.0

>  <SMR_VSA3>  (5) 
5.425791

>  <SMR_VSA4>  (5) 
5.101408

>  <SMR_VSA5>  (5) 
6.420822

>  <SMR_VSA6>  (5) 
7.109798

>  <SMR_VSA7>  (5) 
59.65784

>  <SMR_VSA8>  (5) 
0.0

>  <SMR_VSA9>  (5) 
11.499024

>  <SlogP_VSA1>  (5) 
10.162654

>  <SlogP_VSA10>  (5) 
0.0

>  <SlogP_VSA11>  (5) 
11.499024

>  <SlogP_VSA12>  (5) 
0.0

>  <SlogP_VSA2>  (5) 
24.338105

>  <SlogP_VSA3>  (5) 
11.215359

>  <SlogP_VSA4>  (5) 
0.0

>  <SlogP_VSA5>  (5) 
11.126903

>  <SlogP_VSA6>  (5) 
53.632344

>  <SlogP_VSA7>  (5) 
0.0

>  <SlogP_VSA8>  (5) 
0.0

>  <SlogP_VSA9>  (5) 
0.0

>  <EState_VSA1>  (5) 
0.0

>  <EState_VSA10>  (5) 
4.794537

>  <EState_VSA11>  (5) 
0.0

>  <EState_VSA2>  (5) 
18.077513

>  <EState_VSA3>  (5) 
5.749512

>  <EState_VSA4>  (5) 
11.126903

>  <EState_VSA5>  (5) 
6.214601

>  <EState_VSA6>  (5) 
31.375266

>  <EState_VSA7>  (5) 
24.265468

>  <EState_VSA8>  (5) 
10.527199

>  <EState_VSA9>  (5) 
9.84339

>  <VSA_EState1>  (5) 
5.10329

>  <VSA_EState10>  (5) 
0.0

>  <VSA_EState2>  (5) 
11.750733

>  <VSA_EState3>  (5) 
13.02522

>  <VSA_EState4>  (5) 
4.098876

>  <VSA_EState5>  (5) 
0.694802

>  <VSA_EState6>  (5) 
13.832866

>  <VSA_EState7>  (5) 
1.74309

>  <VSA_EState8>  (5) 
0.0

>  <VSA_EState9>  (5) 
1.584457

>  <FractionCSP3>  (5) 
0.125

>  <HeavyAtomCount>  (5) 
21

>  <NHOHCount>  (5) 
2

>  <NOCount>  (5) 
5

>  <NumAliphaticCarbocycles>  (5) 
0

>  <NumAliphaticHeterocycles>  (5) 
0

>  <NumAliphaticRings>  (5) 
0

>  <NumAromaticCarbocycles>  (5) 
2

>  <NumAromaticHeterocycles>  (5) 
0

>  <NAR>  (5) 
2

>  <NumHAcceptors>  (5) 
4

>  <NumHDonors>  (5) 
2

>  <NumHeteroatoms>  (5) 
5

>  <NumRotatableBonds>  (5) 
5

>  <NumSaturatedCarbocycles>  (5) 
0

>  <NumSaturatedHeterocycles>  (5) 
0

>  <NumSaturatedRings>  (5) 
0

>  <RingCount>  (5) 
2

>  <MolLogP>  (5) 
2.0936

>  <MolMR>  (5) 
80.5415

>  <fr_Al_COO>  (5) 
0

>  <fr_Al_OH>  (5) 
0

>  <fr_Al_OH_noTert>  (5) 
0

>  <fr_ArN>  (5) 
0

>  <fr_Ar_COO>  (5) 
0

>  <fr_Ar_N>  (5) 
0

>  <fr_Ar_NH>  (5) 
0

>  <fr_Ar_OH>  (5) 
1

>  <fr_COO>  (5) 
0

>  <fr_COO2>  (5) 
0

>  <fr_C_O>  (5) 
1

>  <fr_C_O_noCOO>  (5) 
1

>  <fr_C_S>  (5) 
0

>  <fr_HOCCN>  (5) 
0

>  <fr_Imine>  (5) 
0

>  <fr_NH0>  (5) 
1

>  <fr_NH1>  (5) 
1

>  <fr_NH2>  (5) 
0

>  <fr_N_O>  (5) 
0

>  <fr_Ndealkylation1>  (5) 
0

>  <fr_Ndealkylation2>  (5) 
0

>  <fr_Nhpyrrole>  (5) 
0

>  <fr_SH>  (5) 
0

>  <fr_aldehyde>  (5) 
0

>  <fr_alkyl_carbamate>  (5) 
0

>  <fr_alkyl_halide>  (5) 
0

>  <fr_allylic_oxid>  (5) 
0

>  <fr_amide>  (5) 
1

>  <fr_amidine>  (5) 
0

>  <fr_aniline>  (5) 
0

>  <fr_aryl_methyl>  (5) 
0

>  <fr_azide>  (5) 
0

>  <fr_azo>  (5) 
0

>  <fr_barbitur>  (5) 
0

>  <fr_benzene>  (5) 
2

>  <fr_benzodiazepine>  (5) 
0

>  <fr_bicyclic>  (5) 
0

>  <fr_diazo>  (5) 
0

>  <fr_dihydropyridine>  (5) 
0

>  <fr_epoxide>  (5) 
0

>  <fr_ester>  (5) 
0

>  <fr_ether>  (5) 
1

>  <fr_furan>  (5) 
0

>  <fr_guanido>  (5) 
0

>  <fr_halogen>  (5) 
0

>  <fr_hdrzine>  (5) 
0

>  <fr_hdrzone>  (5) 
1

>  <fr_imidazole>  (5) 
0

>  <fr_imide>  (5) 
0

>  <fr_isocyan>  (5) 
0

>  <fr_isothiocyan>  (5) 
0

>  <fr_ketone>  (5) 
0

>  <fr_ketone_Topliss>  (5) 
0

>  <fr_lactam>  (5) 
0

>  <fr_lactone>  (5) 
0

>  <fr_methoxy>  (5) 
1

>  <fr_morpholine>  (5) 
0

>  <fr_nitrile>  (5) 
0

>  <fr_nitro>  (5) 
0

>  <fr_nitro_arom>  (5) 
0

>  <fr_nitro_arom_nonortho>  (5) 
0

>  <fr_nitroso>  (5) 
0

>  <fr_oxazole>  (5) 
0

>  <fr_oxime>  (5) 
0

>  <fr_para_hydroxylation>  (5) 
0

>  <fr_phenol>  (5) 
1

>  <fr_phenol_noOrthoHbond>  (5) 
1

>  <fr_phos_acid>  (5) 
0

>  <fr_phos_ester>  (5) 
0

>  <fr_piperdine>  (5) 
0

>  <fr_piperzine>  (5) 
0

>  <fr_priamide>  (5) 
0

>  <fr_prisulfonamd>  (5) 
0

>  <fr_pyridine>  (5) 
0

>  <fr_quatN>  (5) 
0

>  <fr_sulfide>  (5) 
0

>  <fr_sulfonamd>  (5) 
0

>  <fr_sulfone>  (5) 
0

>  <fr_term_acetylene>  (5) 
0

>  <fr_tetrazole>  (5) 
0

>  <fr_thiazole>  (5) 
0

>  <fr_thiocyan>  (5) 
0

>  <fr_thiophene>  (5) 
0

>  <fr_unbrch_alkane>  (5) 
0

>  <fr_urea>  (5) 
0

>  <NP-Likeness>  (5) 
-1.182484

$$$$
1SQ
     RDKit          3D

  0  0  0  0  0  0  0  0  0  0999 V3000
M  V30 BEGIN CTAB
M  V30 COUNTS 19 20 0 0 0
M  V30 BEGIN ATOM
M  V30 1 C -1.664685 0.409345 0.468914 0
M  V30 2 C -0.904566 1.000140 1.459286 0
M  V30 3 C 0.422864 0.630549 1.501313 0
M  V30 4 C 1.260559 1.154297 2.439395 0
M  V30 5 C 2.602438 0.788150 2.490857 0
M  V30 6 C 3.112849 -0.116629 1.588602 0
M  V30 7 C 2.241999 -0.645877 0.631729 0
M  V30 8 C 0.919417 -0.277152 0.590448 0
M  V30 9 C 0.103376 -0.838223 -0.384651 0
M  V30 10 N 0.560665 -1.766162 -1.334303 0
M  V30 11 N -1.193997 -0.471770 -0.419429 0
M  V30 12 H -2.727771 0.656633 0.376578 0
M  V30 13 H -1.318448 1.713916 2.166977 0
M  V30 14 H 0.886355 1.874508 3.169374 0
M  V30 15 H 3.212512 1.247530 3.267900 0
M  V30 16 H 4.156018 -0.373943 1.661511 0
M  V30 17 H 2.660783 -1.346617 -0.058452 0
M  V30 18 H 1.536609 -1.867423 -1.730918 0
M  V30 19 H -0.068478 -2.479645 -1.754204 0
M  V30 END ATOM
M  V30 BEGIN BOND
M  V30 1 2 1 2
M  V30 2 1 2 3
M  V30 3 2 3 4
M  V30 4 1 4 5
M  V30 5 2 5 6
M  V30 6 1 6 7
M  V30 7 2 7 8
M  V30 8 1 8 9
M  V30 9 1 9 10
M  V30 10 2 9 11
M  V30 11 1 11 1
M  V30 12 1 8 3
M  V30 13 1 1 12
M  V30 14 1 2 13
M  V30 15 1 4 14
M  V30 16 1 5 15
M  V30 17 1 6 16
M  V30 18 1 7 17
M  V30 19 1 10 18
M  V30 20 1 10 19
M  V30 END BOND
M  V30 END CTAB
M  END
>  <Dataset>  (6) 
PDB

>  <Ligand_Instance>  (6) 
7AXW_1SQ_A_401

>  <PDB_ID>  (6) 
7AXW

>  <Standardized_SMILES>  (6) 
[H]C1=C([H])C2=C([H])C([H])=C([H])C([H])=C2C(N([H])[H])=N1

>  <Name>  (6) 
ISOQUINOLIN-1-AMINE

>  <Pocket>  (6) 
A

>  <ATP_Site>  (6) 
1.0

>  <Peripheral>  (6) 
0.0

>  <Num_H_Atoms_ProtBoundConf>  (6) 
8.0

>  <Num_Resolved_Atoms>  (6) 
11.0

>  <Num_Not_Resolved_Atoms>  (6) 
0.0

>  <2D_Mol_H>  (6) 
<rdkit.Chem.rdchem.Mol object at 0x72a238db6c00>

>  <MW>  (6) 
144.177

>  <HBA>  (6) 
2

>  <HBD>  (6) 
1

>  <LogP>  (6) 
1.817

>  <NRB>  (6) 
1

>  <TPSA>  (6) 
38.91

>  <Num_Heavy_Atoms>  (6) 
11

>  <Ro5>  (6) 
[True, True, True, True, True, True]

>  <Ro5_Fulfilled>  (6) 
True

>  <Ro3>  (6) 
[True, True, True, True]

>  <Ro3_Fulfilled>  (6) 
True

>  <Fsp3>  (6) 
0.0

>  <Fsp3_0.42>  (6) 
False

>  <Fsp3_0.45>  (6) 
False

>  <Stereogenic_Carbons>  (6) 
0

>  <C_Atoms>  (6) 
9

>  <FCStereo>  (6) 
0.0

>  <SPS>  (6) 
112

>  <nSPS>  (6) 
10.181818

>  <PBF>  (6) 
0.055889

>  <PBF_0.6>  (6) 
False

>  <nPBF>  (6) 
0.005081

>  <nPBF_0.016>  (6) 
False

>  <PMI1>  (6) 
252.727379

>  <PMI2>  (6) 
427.859494

>  <PMI3>  (6) 
679.926344

>  <NPR1>  (6) 
0.371698

>  <NPR2>  (6) 
0.629273

>  <Sum_NPR>  (6) 
1.000971

>  <Sum_NPR_1.07>  (6) 
False

>  <Sum_NPR_1.2>  (6) 
False

>  <MaxAbsEStateIndex>  (6) 
5.645093

>  <MaxEStateIndex>  (6) 
5.645093

>  <MinAbsEStateIndex>  (6) 
0.600093

>  <MinEStateIndex>  (6) 
0.600093

>  <qed>  (6) 
0.612085

>  <MolWt>  (6) 
144.177

>  <HeavyAtomMolWt>  (6) 
136.113

>  <ExactMolWt>  (6) 
144.068748

>  <NumValenceElectrons>  (6) 
54

>  <NumRadicalElectrons>  (6) 
0

>  <MaxPartialCharge>  (6) 
0.130712

>  <MinPartialCharge>  (6) 
-0.383186

>  <MaxAbsPartialCharge>  (6) 
0.383186

>  <MinAbsPartialCharge>  (6) 
0.130712

>  <FpDensityMorgan1>  (6) 
1.090909

>  <FpDensityMorgan2>  (6) 
1.909091

>  <FpDensityMorgan3>  (6) 
2.727273

>  <BCUT2D_MWHI>  (6) 
14.814548

>  <BCUT2D_MWLOW>  (6) 
10.154542

>  <BCUT2D_CHGHI>  (6) 
1.936312

>  <BCUT2D_CHGLO>  (6) 
-1.973274

>  <BCUT2D_LOGPHI>  (6) 
2.162052

>  <BCUT2D_LOGPLOW>  (6) 
-1.889825

>  <BCUT2D_MRHI>  (6) 
5.899059

>  <BCUT2D_MRLOW>  (6) 
1.369076

>  <AvgIpc>  (6) 
2.05595

>  <BalabanJ>  (6) 
2.913161

>  <BertzCT>  (6) 
376.724446

>  <Chi0>  (6) 
7.681798

>  <Chi0n>  (6) 
5.988665

>  <Chi0v>  (6) 
5.988665

>  <Chi1>  (6) 
5.37701

>  <Chi1n>  (6) 
3.46984

>  <Chi1v>  (6) 
3.46984

>  <Chi2n>  (6) 
2.417328

>  <Chi2v>  (6) 
2.417328

>  <Chi3n>  (6) 
1.704459

>  <Chi3v>  (6) 
1.704459

>  <Chi4n>  (6) 
1.143019

>  <Chi4v>  (6) 
1.143019

>  <HallKierAlpha>  (6) 
-1.57

>  <Ipc>  (6) 
505.763735

>  <Kappa1>  (6) 
6.160248

>  <Kappa2>  (6) 
2.234974

>  <Kappa3>  (6) 
0.923217

>  <LabuteASA>  (6) 
64.672606

>  <PEOE_VSA1>  (6) 
5.733667

>  <PEOE_VSA10>  (6) 
5.817863

>  <PEOE_VSA11>  (6) 
0.0

>  <PEOE_VSA12>  (6) 
0.0

>  <PEOE_VSA13>  (6) 
0.0

>  <PEOE_VSA14>  (6) 
0.0

>  <PEOE_VSA2>  (6) 
0.0

>  <PEOE_VSA3>  (6) 
4.983979

>  <PEOE_VSA4>  (6) 
0.0

>  <PEOE_VSA5>  (6) 
0.0

>  <PEOE_VSA6>  (6) 
24.265468

>  <PEOE_VSA7>  (6) 
11.452591

>  <PEOE_VSA8>  (6) 
11.583068

>  <PEOE_VSA9>  (6) 
0.0

>  <SMR_VSA1>  (6) 
0.0

>  <SMR_VSA10>  (6) 
16.590311

>  <SMR_VSA2>  (6) 
0.0

>  <SMR_VSA3>  (6) 
4.983979

>  <SMR_VSA4>  (6) 
0.0

>  <SMR_VSA5>  (6) 
0.0

>  <SMR_VSA6>  (6) 
5.733667

>  <SMR_VSA7>  (6) 
36.528679

>  <SMR_VSA8>  (6) 
0.0

>  <SMR_VSA9>  (6) 
0.0

>  <SlogP_VSA1>  (6) 
5.733667

>  <SlogP_VSA10>  (6) 
5.817863

>  <SlogP_VSA11>  (6) 
0.0

>  <SlogP_VSA12>  (6) 
0.0

>  <SlogP_VSA2>  (6) 
4.983979

>  <SlogP_VSA3>  (6) 
0.0

>  <SlogP_VSA4>  (6) 
0.0

>  <SlogP_VSA5>  (6) 
0.0

>  <SlogP_VSA6>  (6) 
36.528679

>  <SlogP_VSA7>  (6) 
0.0

>  <SlogP_VSA8>  (6) 
10.772448

>  <SlogP_VSA9>  (6) 
0.0

>  <EState_VSA1>  (6) 
0.0

>  <EState_VSA10>  (6) 
0.0

>  <EState_VSA11>  (6) 
0.0

>  <EState_VSA2>  (6) 
0.0

>  <EState_VSA3>  (6) 
5.817863

>  <EState_VSA4>  (6) 
10.772448

>  <EState_VSA5>  (6) 
0.0

>  <EState_VSA6>  (6) 
6.196844

>  <EState_VSA7>  (6) 
30.331835

>  <EState_VSA8>  (6) 
4.983979

>  <EState_VSA9>  (6) 
5.733667

>  <VSA_EState1>  (6) 
0.0

>  <VSA_EState10>  (6) 
0.0

>  <VSA_EState2>  (6) 
3.985093

>  <VSA_EState3>  (6) 
2.162037

>  <VSA_EState4>  (6) 
5.645093

>  <VSA_EState5>  (6) 
0.600093

>  <VSA_EState6>  (6) 
9.887778

>  <VSA_EState7>  (6) 
1.719907

>  <VSA_EState8>  (6) 
0.0

>  <VSA_EState9>  (6) 
0.0

>  <FractionCSP3>  (6) 
0.0

>  <HeavyAtomCount>  (6) 
11

>  <NHOHCount>  (6) 
2

>  <NOCount>  (6) 
2

>  <NumAliphaticCarbocycles>  (6) 
0

>  <NumAliphaticHeterocycles>  (6) 
0

>  <NumAliphaticRings>  (6) 
0

>  <NumAromaticCarbocycles>  (6) 
1

>  <NumAromaticHeterocycles>  (6) 
1

>  <NAR>  (6) 
2

>  <NumHAcceptors>  (6) 
2

>  <NumHDonors>  (6) 
1

>  <NumHeteroatoms>  (6) 
2

>  <NumRotatableBonds>  (6) 
0

>  <NumSaturatedCarbocycles>  (6) 
0

>  <NumSaturatedHeterocycles>  (6) 
0

>  <NumSaturatedRings>  (6) 
0

>  <RingCount>  (6) 
2

>  <MolLogP>  (6) 
1.817

>  <MolMR>  (6) 
46.1554

>  <fr_Al_COO>  (6) 
0

>  <fr_Al_OH>  (6) 
0

>  <fr_Al_OH_noTert>  (6) 
0

>  <fr_ArN>  (6) 
1

>  <fr_Ar_COO>  (6) 
0

>  <fr_Ar_N>  (6) 
1

>  <fr_Ar_NH>  (6) 
0

>  <fr_Ar_OH>  (6) 
0

>  <fr_COO>  (6) 
0

>  <fr_COO2>  (6) 
0

>  <fr_C_O>  (6) 
0

>  <fr_C_O_noCOO>  (6) 
0

>  <fr_C_S>  (6) 
0

>  <fr_HOCCN>  (6) 
0

>  <fr_Imine>  (6) 
0

>  <fr_NH0>  (6) 
1

>  <fr_NH1>  (6) 
0

>  <fr_NH2>  (6) 
1

>  <fr_N_O>  (6) 
0

>  <fr_Ndealkylation1>  (6) 
0

>  <fr_Ndealkylation2>  (6) 
0

>  <fr_Nhpyrrole>  (6) 
0

>  <fr_SH>  (6) 
0

>  <fr_aldehyde>  (6) 
0

>  <fr_alkyl_carbamate>  (6) 
0

>  <fr_alkyl_halide>  (6) 
0

>  <fr_allylic_oxid>  (6) 
0

>  <fr_amide>  (6) 
0

>  <fr_amidine>  (6) 
0

>  <fr_aniline>  (6) 
1

>  <fr_aryl_methyl>  (6) 
0

>  <fr_azide>  (6) 
0

>  <fr_azo>  (6) 
0

>  <fr_barbitur>  (6) 
0

>  <fr_benzene>  (6) 
1

>  <fr_benzodiazepine>  (6) 
0

>  <fr_bicyclic>  (6) 
1

>  <fr_diazo>  (6) 
0

>  <fr_dihydropyridine>  (6) 
0

>  <fr_epoxide>  (6) 
0

>  <fr_ester>  (6) 
0

>  <fr_ether>  (6) 
0

>  <fr_furan>  (6) 
0

>  <fr_guanido>  (6) 
0

>  <fr_halogen>  (6) 
0

>  <fr_hdrzine>  (6) 
0

>  <fr_hdrzone>  (6) 
0

>  <fr_imidazole>  (6) 
0

>  <fr_imide>  (6) 
0

>  <fr_isocyan>  (6) 
0

>  <fr_isothiocyan>  (6) 
0

>  <fr_ketone>  (6) 
0

>  <fr_ketone_Topliss>  (6) 
0

>  <fr_lactam>  (6) 
0

>  <fr_lactone>  (6) 
0

>  <fr_methoxy>  (6) 
0

>  <fr_morpholine>  (6) 
0

>  <fr_nitrile>  (6) 
0

>  <fr_nitro>  (6) 
0

>  <fr_nitro_arom>  (6) 
0

>  <fr_nitro_arom_nonortho>  (6) 
0

>  <fr_nitroso>  (6) 
0

>  <fr_oxazole>  (6) 
0

>  <fr_oxime>  (6) 
0

>  <fr_para_hydroxylation>  (6) 
0

>  <fr_phenol>  (6) 
0

>  <fr_phenol_noOrthoHbond>  (6) 
0

>  <fr_phos_acid>  (6) 
0

>  <fr_phos_ester>  (6) 
0

>  <fr_piperdine>  (6) 
0

>  <fr_piperzine>  (6) 
0

>  <fr_priamide>  (6) 
0

>  <fr_prisulfonamd>  (6) 
0

>  <fr_pyridine>  (6) 
1

>  <fr_quatN>  (6) 
0

>  <fr_sulfide>  (6) 
0

>  <fr_sulfonamd>  (6) 
0

>  <fr_sulfone>  (6) 
0

>  <fr_term_acetylene>  (6) 
0

>  <fr_tetrazole>  (6) 
0

>  <fr_thiazole>  (6) 
0

>  <fr_thiocyan>  (6) 
0

>  <fr_thiophene>  (6) 
0

>  <fr_unbrch_alkane>  (6) 
0

>  <fr_urea>  (6) 
0

>  <NP-Likeness>  (6) 
-0.310668

$$$$
2PY
     RDKit          3D

  0  0  0  0  0  0  0  0  0  0999 V3000
M  V30 BEGIN CTAB
M  V30 COUNTS 51 55 0 0 0
M  V30 BEGIN ATOM
M  V30 1 C 0.560158 -1.798735 2.801627 0
M  V30 2 N 1.731005 -2.380324 3.225152 0
M  V30 3 C 2.910562 -1.917005 2.722938 0
M  V30 4 C 2.895852 -0.885502 1.811976 0
M  V30 5 C 4.099973 -0.326915 1.220042 0
M  V30 6 C 5.178997 -1.203967 1.021965 0
M  V30 7 C 6.350705 -0.742403 0.468918 0
M  V30 8 C 6.563322 0.557889 0.077365 0
M  V30 9 C 5.487922 1.432870 0.274295 0
M  V30 10 C 4.311592 0.976106 0.827933 0
M  V30 11 C 5.893450 2.672923 -0.175091 0
M  V30 12 N 7.181467 2.569893 -0.636639 0
M  V30 13 N 7.545920 1.288037 -0.467957 0
M  V30 14 C 1.706957 -0.327990 1.411591 0
M  V30 15 C 0.480078 -0.736516 1.867817 0
M  V30 16 O -0.834437 -0.519629 1.778296 0
M  V30 17 C -1.642982 0.311155 1.086113 0
M  V30 18 C -1.700990 0.258683 -0.393119 0 CFG=2
M  V30 19 C -2.297961 -0.972575 -0.999066 0
M  V30 20 C -3.701347 -1.231501 -0.619491 0
M  V30 21 C -4.764115 -0.807231 -1.435079 0
M  V30 22 N -5.948574 -1.135291 -0.841500 0
M  V30 23 C -5.668293 -1.743498 0.302427 0
M  V30 24 C -6.453698 -2.301756 1.316460 0
M  V30 25 C -5.931009 -2.906100 2.438979 0
M  V30 26 C -4.566735 -2.949908 2.544590 0
M  V30 27 C -3.747018 -2.425154 1.594230 0
M  V30 28 C -4.304774 -1.831160 0.491979 0
M  V30 29 N -0.448431 0.530768 -1.073510 0 CHG=1 VAL=4
M  V30 30 H -0.185512 -2.372894 3.368485 0
M  V30 31 H 3.901614 -2.261905 2.949150 0
M  V30 32 H 5.099338 -2.233587 1.298227 0
M  V30 33 H 7.187329 -1.441284 0.320473 0
M  V30 34 H 3.459104 1.627339 0.994997 0
M  V30 35 H 5.293142 3.583191 -0.166758 0
M  V30 36 H 8.435129 0.785762 -0.682471 0
M  V30 37 H 1.569431 0.479394 0.729214 0
M  V30 38 H -1.430527 1.423564 1.323042 0
M  V30 39 H -2.702842 0.227335 1.455240 0
M  V30 40 H -2.352452 1.153339 -0.691443 0
M  V30 41 H -1.638015 -1.847186 -0.726519 0
M  V30 42 H -2.226889 -0.923436 -2.102614 0
M  V30 43 H -4.690801 -0.301158 -2.384927 0
M  V30 44 H -6.887022 -0.921040 -1.258181 0
M  V30 45 H -7.518663 -2.260990 1.222642 0
M  V30 46 H -6.570318 -3.334834 3.215342 0
M  V30 47 H -4.136096 -3.421826 3.421839 0
M  V30 48 H -2.676334 -2.460367 1.657509 0
M  V30 49 H -0.693655 0.749692 -2.078302 0
M  V30 50 H 0.201411 -0.263750 -1.075162 0
M  V30 51 H -0.077268 1.432768 -0.708362 0
M  V30 END ATOM
M  V30 BEGIN BOND
M  V30 1 2 1 2
M  V30 2 1 2 3
M  V30 3 2 3 4
M  V30 4 1 4 5
M  V30 5 2 5 6
M  V30 6 1 6 7
M  V30 7 2 7 8
M  V30 8 1 8 9
M  V30 9 2 9 10
M  V30 10 1 9 11
M  V30 11 2 11 12
M  V30 12 1 12 13
M  V30 13 1 4 14
M  V30 14 2 14 15
M  V30 15 1 15 16
M  V30 16 1 16 17
M  V30 17 1 17 18
M  V30 18 1 18 19
M  V30 19 1 19 20
M  V30 20 2 20 21
M  V30 21 1 21 22
M  V30 22 1 22 23
M  V30 23 2 23 24
M  V30 24 1 24 25
M  V30 25 2 25 26
M  V30 26 1 26 27
M  V30 27 2 27 28
M  V30 28 1 18 29
M  V30 29 1 15 1
M  V30 30 1 28 20
M  V30 31 1 10 5
M  V30 32 1 28 23
M  V30 33 1 13 8
M  V30 34 1 1 30
M  V30 35 1 3 31
M  V30 36 1 6 32
M  V30 37 1 7 33
M  V30 38 1 10 34
M  V30 39 1 11 35
M  V30 40 1 13 36
M  V30 41 1 14 37
M  V30 42 1 17 38
M  V30 43 1 17 39
M  V30 44 1 18 40 CFG=3
M  V30 45 1 19 41
M  V30 46 1 19 42
M  V30 47 1 21 43
M  V30 48 1 22 44
M  V30 49 1 24 45
M  V30 50 1 25 46
M  V30 51 1 26 47
M  V30 52 1 27 48
M  V30 53 1 29 49
M  V30 54 1 29 50
M  V30 55 1 29 51
M  V30 END BOND
M  V30 END CTAB
M  END
>  <Dataset>  (7) 
PDB

>  <Ligand_Instance>  (7) 
2OH0_2PY_E_351

>  <PDB_ID>  (7) 
2OH0

>  <Standardized_SMILES>  (7) 
[H]C1=NC([H])=C(C2=C([H])C([H])=C3C(=C2[H])C([H])=NN3[H])C([H])=C1OC([H])([H])[C@]([H])(C([H])([H])C1=C([H])N([H])C2=C([H])C([H])=C([H])C([H])=C21)[N+]([H])([H])[H]

>  <Name>  (7) 
(2S)-1-{[5-(1H-INDAZOL-5-YL)PYRIDIN-3-YL]OXY}-3-[(7AS)-7AH-INDOL-3-YL]PROPAN-2-AMINE

>  <Pocket>  (7) 
A

>  <ATP_Site>  (7) 
1.0

>  <Peripheral>  (7) 
0.0

>  <Num_H_Atoms_ProtBoundConf>  (7) 
22.0

>  <Num_Resolved_Atoms>  (7) 
29.0

>  <Num_Not_Resolved_Atoms>  (7) 
0.0

>  <2D_Mol_H>  (7) 
<rdkit.Chem.rdchem.Mol object at 0x72a238db6ce0>

>  <MW>  (7) 
384.463

>  <HBA>  (7) 
3

>  <HBD>  (7) 
3

>  <LogP>  (7) 
3.3382

>  <NRB>  (7) 
7

>  <TPSA>  (7) 
94.23

>  <Num_Heavy_Atoms>  (7) 
29

>  <Ro5>  (7) 
[True, True, True, True, True, True]

>  <Ro5_Fulfilled>  (7) 
True

>  <Ro3>  (7) 
[False, True, True, False]

>  <Ro3_Fulfilled>  (7) 
False

>  <Fsp3>  (7) 
0.130435

>  <Fsp3_0.42>  (7) 
False

>  <Fsp3_0.45>  (7) 
False

>  <Stereogenic_Carbons>  (7) 
1

>  <C_Atoms>  (7) 
23

>  <FCStereo>  (7) 
0.043478

>  <SPS>  (7) 
361

>  <nSPS>  (7) 
12.448276

>  <PBF>  (7) 
0.71492

>  <PBF_0.6>  (7) 
True

>  <nPBF>  (7) 
0.024652

>  <nPBF_0.016>  (7) 
True

>  <PMI1>  (7) 
1149.222877

>  <PMI2>  (7) 
8292.749732

>  <PMI3>  (7) 
9121.734172

>  <NPR1>  (7) 
0.125987

>  <NPR2>  (7) 
0.90912

>  <Sum_NPR>  (7) 
1.035107

>  <Sum_NPR_1.07>  (7) 
False

>  <Sum_NPR_1.2>  (7) 
False

>  <MaxAbsEStateIndex>  (7) 
6.009541

>  <MaxEStateIndex>  (7) 
6.009541

>  <MinAbsEStateIndex>  (7) 
0.139021

>  <MinEStateIndex>  (7) 
0.139021

>  <qed>  (7) 
0.419021

>  <MolWt>  (7) 
384.463

>  <HeavyAtomMolWt>  (7) 
362.287

>  <ExactMolWt>  (7) 
384.181887

>  <NumValenceElectrons>  (7) 
144

>  <NumRadicalElectrons>  (7) 
0

>  <MaxPartialCharge>  (7) 
0.140113

>  <MinPartialCharge>  (7) 
-0.485747

>  <MaxAbsPartialCharge>  (7) 
0.485747

>  <MinAbsPartialCharge>  (7) 
0.140113

>  <FpDensityMorgan1>  (7) 
0.965517

>  <FpDensityMorgan2>  (7) 
1.896552

>  <FpDensityMorgan3>  (7) 
2.862069

>  <BCUT2D_MWHI>  (7) 
16.478402

>  <BCUT2D_MWLOW>  (7) 
10.056707

>  <BCUT2D_CHGHI>  (7) 
2.126628

>  <BCUT2D_CHGLO>  (7) 
-2.111435

>  <BCUT2D_LOGPHI>  (7) 
2.255652

>  <BCUT2D_LOGPLOW>  (7) 
-2.641605

>  <BCUT2D_MRHI>  (7) 
5.840077

>  <BCUT2D_MRLOW>  (7) 
-0.422665

>  <AvgIpc>  (7) 
3.390447

>  <BalabanJ>  (7) 
1.273792

>  <BertzCT>  (7) 
1272.501214

>  <Chi0>  (7) 
19.631181

>  <Chi0n>  (7) 
15.929549

>  <Chi0v>  (7) 
15.929549

>  <Chi1>  (7) 
14.259153

>  <Chi1n>  (7) 
9.655411

>  <Chi1v>  (7) 
9.655411

>  <Chi2n>  (7) 
7.322001

>  <Chi2v>  (7) 
7.322001

>  <Chi3n>  (7) 
5.155904

>  <Chi3v>  (7) 
5.155904

>  <Chi4n>  (7) 
3.662414

>  <Chi4v>  (7) 
3.662414

>  <HallKierAlpha>  (7) 
-3.64

>  <Ipc>  (7) 
10394608.161931

>  <Kappa1>  (7) 
17.457888

>  <Kappa2>  (7) 
7.408172

>  <Kappa3>  (7) 
3.575941

>  <LabuteASA>  (7) 
167.283253

>  <PEOE_VSA1>  (7) 
15.454509

>  <PEOE_VSA10>  (7) 
18.398235

>  <PEOE_VSA11>  (7) 
0.0

>  <PEOE_VSA12>  (7) 
0.0

>  <PEOE_VSA13>  (7) 
0.0

>  <PEOE_VSA14>  (7) 
0.0

>  <PEOE_VSA2>  (7) 
10.08266

>  <PEOE_VSA3>  (7) 
0.0

>  <PEOE_VSA4>  (7) 
5.098682

>  <PEOE_VSA5>  (7) 
0.0

>  <PEOE_VSA6>  (7) 
24.265468

>  <PEOE_VSA7>  (7) 
35.392371

>  <PEOE_VSA8>  (7) 
40.667109

>  <PEOE_VSA9>  (7) 
17.910388

>  <SMR_VSA1>  (7) 
10.47053

>  <SMR_VSA10>  (7) 
21.80585

>  <SMR_VSA2>  (7) 
0.0

>  <SMR_VSA3>  (7) 
20.165321

>  <SMR_VSA4>  (7) 
0.0

>  <SMR_VSA5>  (7) 
12.462662

>  <SMR_VSA6>  (7) 
6.606882

>  <SMR_VSA7>  (7) 
78.881762

>  <SMR_VSA8>  (7) 
0.0

>  <SMR_VSA9>  (7) 
16.876415

>  <SlogP_VSA1>  (7) 
10.47053

>  <SlogP_VSA10>  (7) 
0.0

>  <SlogP_VSA11>  (7) 
5.749512

>  <SlogP_VSA12>  (7) 
0.0

>  <SlogP_VSA2>  (7) 
32.814043

>  <SlogP_VSA3>  (7) 
6.420822

>  <SlogP_VSA4>  (7) 
0.0

>  <SlogP_VSA5>  (7) 
5.563451

>  <SlogP_VSA6>  (7) 
73.318311

>  <SlogP_VSA7>  (7) 
0.0

>  <SlogP_VSA8>  (7) 
32.932753

>  <SlogP_VSA9>  (7) 
0.0

>  <EState_VSA1>  (7) 
0.0

>  <EState_VSA10>  (7) 
0.0

>  <EState_VSA11>  (7) 
0.0

>  <EState_VSA2>  (7) 
6.041841

>  <EState_VSA3>  (7) 
6.606882

>  <EState_VSA4>  (7) 
39.716862

>  <EState_VSA5>  (7) 
10.949676

>  <EState_VSA6>  (7) 
6.196844

>  <EState_VSA7>  (7) 
30.592788

>  <EState_VSA8>  (7) 
62.427667

>  <EState_VSA9>  (7) 
4.736863

>  <VSA_EState1>  (7) 
6.009541

>  <VSA_EState10>  (7) 
0.0

>  <VSA_EState2>  (7) 
7.667836

>  <VSA_EState3>  (7) 
9.373124

>  <VSA_EState4>  (7) 
9.81793

>  <VSA_EState5>  (7) 
0.752192

>  <VSA_EState6>  (7) 
16.669627

>  <VSA_EState7>  (7) 
8.343275

>  <VSA_EState8>  (7) 
0.533141

>  <VSA_EState9>  (7) 
0.0

>  <FractionCSP3>  (7) 
0.130435

>  <HeavyAtomCount>  (7) 
29

>  <NHOHCount>  (7) 
5

>  <NOCount>  (7) 
6

>  <NumAliphaticCarbocycles>  (7) 
0

>  <NumAliphaticHeterocycles>  (7) 
0

>  <NumAliphaticRings>  (7) 
0

>  <NumAromaticCarbocycles>  (7) 
2

>  <NumAromaticHeterocycles>  (7) 
3

>  <NAR>  (7) 
5

>  <NumHAcceptors>  (7) 
3

>  <NumHDonors>  (7) 
3

>  <NumHeteroatoms>  (7) 
6

>  <NumRotatableBonds>  (7) 
6

>  <NumSaturatedCarbocycles>  (7) 
0

>  <NumSaturatedHeterocycles>  (7) 
0

>  <NumSaturatedRings>  (7) 
0

>  <RingCount>  (7) 
5

>  <MolLogP>  (7) 
3.3382

>  <MolMR>  (7) 
113.4985

>  <fr_Al_COO>  (7) 
0

>  <fr_Al_OH>  (7) 
0

>  <fr_Al_OH_noTert>  (7) 
0

>  <fr_ArN>  (7) 
0

>  <fr_Ar_COO>  (7) 
0

>  <fr_Ar_N>  (7) 
4

>  <fr_Ar_NH>  (7) 
2

>  <fr_Ar_OH>  (7) 
0

>  <fr_COO>  (7) 
0

>  <fr_COO2>  (7) 
0

>  <fr_C_O>  (7) 
0

>  <fr_C_O_noCOO>  (7) 
0

>  <fr_C_S>  (7) 
0

>  <fr_HOCCN>  (7) 
0

>  <fr_Imine>  (7) 
0

>  <fr_NH0>  (7) 
2

>  <fr_NH1>  (7) 
2

>  <fr_NH2>  (7) 
0

>  <fr_N_O>  (7) 
0

>  <fr_Ndealkylation1>  (7) 
0

>  <fr_Ndealkylation2>  (7) 
0

>  <fr_Nhpyrrole>  (7) 
2

>  <fr_SH>  (7) 
0

>  <fr_aldehyde>  (7) 
0

>  <fr_alkyl_carbamate>  (7) 
0

>  <fr_alkyl_halide>  (7) 
0

>  <fr_allylic_oxid>  (7) 
0

>  <fr_amide>  (7) 
0

>  <fr_amidine>  (7) 
0

>  <fr_aniline>  (7) 
0

>  <fr_aryl_methyl>  (7) 
0

>  <fr_azide>  (7) 
0

>  <fr_azo>  (7) 
0

>  <fr_barbitur>  (7) 
0

>  <fr_benzene>  (7) 
2

>  <fr_benzodiazepine>  (7) 
0

>  <fr_bicyclic>  (7) 
2

>  <fr_diazo>  (7) 
0

>  <fr_dihydropyridine>  (7) 
0

>  <fr_epoxide>  (7) 
0

>  <fr_ester>  (7) 
0

>  <fr_ether>  (7) 
1

>  <fr_furan>  (7) 
0

>  <fr_guanido>  (7) 
0

>  <fr_halogen>  (7) 
0

>  <fr_hdrzine>  (7) 
0

>  <fr_hdrzone>  (7) 
0

>  <fr_imidazole>  (7) 
0

>  <fr_imide>  (7) 
0

>  <fr_isocyan>  (7) 
0

>  <fr_isothiocyan>  (7) 
0

>  <fr_ketone>  (7) 
0

>  <fr_ketone_Topliss>  (7) 
0

>  <fr_lactam>  (7) 
0

>  <fr_lactone>  (7) 
0

>  <fr_methoxy>  (7) 
0

>  <fr_morpholine>  (7) 
0

>  <fr_nitrile>  (7) 
0

>  <fr_nitro>  (7) 
0

>  <fr_nitro_arom>  (7) 
0

>  <fr_nitro_arom_nonortho>  (7) 
0

>  <fr_nitroso>  (7) 
0

>  <fr_oxazole>  (7) 
0

>  <fr_oxime>  (7) 
0

>  <fr_para_hydroxylation>  (7) 
1

>  <fr_phenol>  (7) 
0

>  <fr_phenol_noOrthoHbond>  (7) 
0

>  <fr_phos_acid>  (7) 
0

>  <fr_phos_ester>  (7) 
0

>  <fr_piperdine>  (7) 
0

>  <fr_piperzine>  (7) 
0

>  <fr_priamide>  (7) 
0

>  <fr_prisulfonamd>  (7) 
0

>  <fr_pyridine>  (7) 
1

>  <fr_quatN>  (7) 
1

>  <fr_sulfide>  (7) 
0

>  <fr_sulfonamd>  (7) 
0

>  <fr_sulfone>  (7) 
0

>  <fr_term_acetylene>  (7) 
0

>  <fr_tetrazole>  (7) 
0

>  <fr_thiazole>  (7) 
0

>  <fr_thiocyan>  (7) 
0

>  <fr_thiophene>  (7) 
0

>  <fr_unbrch_alkane>  (7) 
0

>  <fr_urea>  (7) 
0

>  <NP-Likeness>  (7) 
-0.900702

$$$$
2SB
     RDKit          3D

  0  0  0  0  0  0  0  0  0  0999 V3000
M  V30 BEGIN CTAB
M  V30 COUNTS 36 37 0 0 0
M  V30 BEGIN ATOM
M  V30 1 O 1.895591 -5.228970 5.508794 0
M  V30 2 C 1.528115 -4.626070 4.299629 0
M  V30 3 C 0.291677 -4.909336 3.719434 0
M  V30 4 C -0.059247 -4.308460 2.526813 0
M  V30 5 C 0.768763 -3.424799 1.868251 0
M  V30 6 C 0.430389 -2.772764 0.608635 0
M  V30 7 N 1.259441 -1.962564 0.061789 0
M  V30 8 N 1.006135 -1.299083 -1.145770 0
M  V30 9 C 0.958160 0.105430 -0.826980 0
M  V30 10 O 1.128442 0.533032 0.358825 0
M  V30 11 C 0.727433 1.318527 -1.666321 0 CFG=2
M  V30 12 C -0.369855 2.148739 -1.154338 0
M  V30 13 C -0.109402 3.277155 -0.373555 0
M  V30 14 C -1.019427 4.151786 0.177750 0
M  V30 15 C -2.343322 3.859146 -0.085612 0
M  V30 16 C -2.684642 2.753583 -0.854759 0
M  V30 17 C -1.718974 1.914674 -1.379050 0
M  V30 18 N 0.514723 0.988738 -3.059906 0 CHG=1 VAL=4
M  V30 19 C 1.978675 -3.174961 2.477269 0
M  V30 20 C 2.373875 -3.749549 3.666307 0
M  V30 21 Br 4.072820 -3.317869 4.399456 0
M  V30 22 H 1.536922 -4.740248 6.336025 0
M  V30 23 H -0.324975 -5.596305 4.253453 0
M  V30 24 H -1.025483 -4.537401 2.084843 0
M  V30 25 H -0.521261 -2.974249 0.137082 0
M  V30 26 H 0.833153 -1.365880 -2.193048 0
M  V30 27 H 1.662213 1.935984 -1.625136 0
M  V30 28 H 0.952352 3.476584 -0.186348 0
M  V30 29 H -0.664314 4.979382 0.758343 0
M  V30 30 H -3.088208 4.531492 0.335993 0
M  V30 31 H -3.736640 2.539773 -1.051288 0
M  V30 32 H -1.983748 1.042856 -1.985363 0
M  V30 33 H 1.333836 0.501232 -3.463175 0
M  V30 34 H -0.351374 0.399927 -3.160031 0
M  V30 35 H 0.312761 1.881727 -3.545193 0
M  V30 36 H 2.649063 -2.478128 1.972164 0
M  V30 END ATOM
M  V30 BEGIN BOND
M  V30 1 1 1 2
M  V30 2 2 2 3
M  V30 3 1 3 4
M  V30 4 2 4 5
M  V30 5 1 5 6
M  V30 6 2 6 7
M  V30 7 1 7 8
M  V30 8 1 8 9
M  V30 9 2 9 10
M  V30 10 1 9 11
M  V30 11 1 11 12
M  V30 12 2 12 13
M  V30 13 1 13 14
M  V30 14 2 14 15
M  V30 15 1 15 16
M  V30 16 2 16 17
M  V30 17 1 11 18
M  V30 18 1 5 19
M  V30 19 2 19 20
M  V30 20 1 20 21
M  V30 21 1 20 2
M  V30 22 1 17 12
M  V30 23 1 1 22
M  V30 24 1 3 23
M  V30 25 1 4 24
M  V30 26 1 6 25
M  V30 27 1 8 26
M  V30 28 1 11 27 CFG=3
M  V30 29 1 13 28
M  V30 30 1 14 29
M  V30 31 1 15 30
M  V30 32 1 16 31
M  V30 33 1 17 32
M  V30 34 1 18 33
M  V30 35 1 18 34
M  V30 36 1 18 35
M  V30 37 1 19 36
M  V30 END BOND
M  V30 END CTAB
M  END
>  <Dataset>  (8) 
PDB

>  <Ligand_Instance>  (8) 
3OWP_2SB_A_2001

>  <PDB_ID>  (8) 
3OWP

>  <Standardized_SMILES>  (8) 
[H]OC1=C([H])C([H])=C(/C([H])=N/N([H])C(=O)[C@]([H])(C2=C([H])C([H])=C([H])C([H])=C2[H])[N+]([H])([H])[H])C([H])=C1Br

>  <Name>  (8) 
(2S)-2-amino-N'-[(1E)-(3-bromo-4-hydroxyphenyl)methylidene]-2-phenylethanehydrazide

>  <Pocket>  (8) 
A

>  <ATP_Site>  (8) 
1.0

>  <Peripheral>  (8) 
0.0

>  <Num_H_Atoms_ProtBoundConf>  (8) 
15.0

>  <Num_Resolved_Atoms>  (8) 
21.0

>  <Num_Not_Resolved_Atoms>  (8) 
0.0

>  <2D_Mol_H>  (8) 
<rdkit.Chem.rdchem.Mol object at 0x72a238db6dc0>

>  <MW>  (8) 
349.208

>  <HBA>  (8) 
3

>  <HBD>  (8) 
3

>  <LogP>  (8) 
1.588

>  <NRB>  (8) 
6

>  <TPSA>  (8) 
89.33

>  <Num_Heavy_Atoms>  (8) 
21

>  <Ro5>  (8) 
[True, True, True, True, True, True]

>  <Ro5_Fulfilled>  (8) 
True

>  <Ro3>  (8) 
[False, True, True, True]

>  <Ro3_Fulfilled>  (8) 
True

>  <Fsp3>  (8) 
0.066667

>  <Fsp3_0.42>  (8) 
False

>  <Fsp3_0.45>  (8) 
False

>  <Stereogenic_Carbons>  (8) 
1

>  <C_Atoms>  (8) 
15

>  <FCStereo>  (8) 
0.066667

>  <SPS>  (8) 
258

>  <nSPS>  (8) 
12.285714

>  <PBF>  (8) 
1.076196

>  <PBF_0.6>  (8) 
True

>  <nPBF>  (8) 
0.051247

>  <nPBF_0.016>  (8) 
True

>  <PMI1>  (8) 
1080.950349

>  <PMI2>  (8) 
6041.490259

>  <PMI3>  (8) 
6156.130346

>  <NPR1>  (8) 
0.175589

>  <NPR2>  (8) 
0.981378

>  <Sum_NPR>  (8) 
1.156967

>  <Sum_NPR_1.07>  (8) 
True

>  <Sum_NPR_1.2>  (8) 
False

>  <MaxAbsEStateIndex>  (8) 
11.918116

>  <MaxEStateIndex>  (8) 
11.918116

>  <MinAbsEStateIndex>  (8) 
0.151005

>  <MinEStateIndex>  (8) 
-0.518607

>  <qed>  (8) 
0.578052

>  <MolWt>  (8) 
349.208

>  <HeavyAtomMolWt>  (8) 
334.088

>  <ExactMolWt>  (8) 
348.034215

>  <NumValenceElectrons>  (8) 
108

>  <NumRadicalElectrons>  (8) 
0

>  <MaxPartialCharge>  (8) 
0.302519

>  <MinPartialCharge>  (8) 
-0.506775

>  <MaxAbsPartialCharge>  (8) 
0.506775

>  <MinAbsPartialCharge>  (8) 
0.302519

>  <FpDensityMorgan1>  (8) 
1.285714

>  <FpDensityMorgan2>  (8) 
2.0

>  <FpDensityMorgan3>  (8) 
2.666667

>  <BCUT2D_MWHI>  (8) 
79.918731

>  <BCUT2D_MWLOW>  (8) 
10.084763

>  <BCUT2D_CHGHI>  (8) 
2.178032

>  <BCUT2D_CHGLO>  (8) 
-2.059854

>  <BCUT2D_LOGPHI>  (8) 
2.22934

>  <BCUT2D_LOGPLOW>  (8) 
-2.591497

>  <BCUT2D_MRHI>  (8) 
9.103462

>  <BCUT2D_MRLOW>  (8) 
-0.409347

>  <AvgIpc>  (8) 
2.505458

>  <BalabanJ>  (8) 
1.970139

>  <BertzCT>  (8) 
659.223235

>  <Chi0>  (8) 
15.242276

>  <Chi0n>  (8) 
11.161249

>  <Chi0v>  (8) 
12.747246

>  <Chi1>  (8) 
10.075387

>  <Chi1n>  (8) 
6.27151

>  <Chi1v>  (8) 
7.064508

>  <Chi2n>  (8) 
4.408371

>  <Chi2v>  (8) 
5.262708

>  <Chi3n>  (8) 
2.878533

>  <Chi3v>  (8) 
3.51369

>  <Chi4n>  (8) 
1.688522

>  <Chi4v>  (8) 
2.085021

>  <HallKierAlpha>  (8) 
-2.18

>  <Ipc>  (8) 
57535.329908

>  <Kappa1>  (8) 
15.21345

>  <Kappa2>  (8) 
7.008775

>  <Kappa3>  (8) 
4.140411

>  <LabuteASA>  (8) 
130.161839

>  <PEOE_VSA1>  (8) 
10.840195

>  <PEOE_VSA10>  (8) 
5.749512

>  <PEOE_VSA11>  (8) 
6.041841

>  <PEOE_VSA12>  (8) 
0.0

>  <PEOE_VSA13>  (8) 
0.0

>  <PEOE_VSA14>  (8) 
5.90718

>  <PEOE_VSA2>  (8) 
4.794537

>  <PEOE_VSA3>  (8) 
5.425791

>  <PEOE_VSA4>  (8) 
5.101408

>  <PEOE_VSA5>  (8) 
0.0

>  <PEOE_VSA6>  (8) 
30.331835

>  <PEOE_VSA7>  (8) 
39.692497

>  <PEOE_VSA8>  (8) 
5.563451

>  <PEOE_VSA9>  (8) 
10.68732

>  <SMR_VSA1>  (8) 
15.634732

>  <SMR_VSA10>  (8) 
28.051724

>  <SMR_VSA2>  (8) 
0.0

>  <SMR_VSA3>  (8) 
5.425791

>  <SMR_VSA4>  (8) 
5.101408

>  <SMR_VSA5>  (8) 
6.041841

>  <SMR_VSA6>  (8) 
0.0

>  <SMR_VSA7>  (8) 
64.130559

>  <SMR_VSA8>  (8) 
0.0

>  <SMR_VSA9>  (8) 
5.749512

>  <SlogP_VSA1>  (8) 
11.159459

>  <SlogP_VSA10>  (8) 
0.0

>  <SlogP_VSA11>  (8) 
5.749512

>  <SlogP_VSA12>  (8) 
15.929944

>  <SlogP_VSA2>  (8) 
17.228308

>  <SlogP_VSA3>  (8) 
4.794537

>  <SlogP_VSA4>  (8) 
0.0

>  <SlogP_VSA5>  (8) 
17.168744

>  <SlogP_VSA6>  (8) 
58.105064

>  <SlogP_VSA7>  (8) 
0.0

>  <SlogP_VSA8>  (8) 
0.0

>  <SlogP_VSA9>  (8) 
0.0

>  <EState_VSA1>  (8) 
6.041841

>  <EState_VSA10>  (8) 
9.901065

>  <EState_VSA11>  (8) 
0.0

>  <EState_VSA2>  (8) 
11.656692

>  <EState_VSA3>  (8) 
4.47272

>  <EState_VSA4>  (8) 
11.126903

>  <EState_VSA5>  (8) 
6.214601

>  <EState_VSA6>  (8) 
18.199101

>  <EState_VSA7>  (8) 
30.331835

>  <EState_VSA8>  (8) 
32.19081

>  <EState_VSA9>  (8) 
0.0

>  <VSA_EState1>  (8) 
0.566756

>  <VSA_EState10>  (8) 
3.211685

>  <VSA_EState2>  (8) 
11.918116

>  <VSA_EState3>  (8) 
13.278696

>  <VSA_EState4>  (8) 
7.868114

>  <VSA_EState5>  (8) 
-0.13113

>  <VSA_EState6>  (8) 
13.704615

>  <VSA_EState7>  (8) 
1.499815

>  <VSA_EState8>  (8) 
0.0

>  <VSA_EState9>  (8) 
0.0

>  <FractionCSP3>  (8) 
0.066667

>  <HeavyAtomCount>  (8) 
21

>  <NHOHCount>  (8) 
5

>  <NOCount>  (8) 
5

>  <NumAliphaticCarbocycles>  (8) 
0

>  <NumAliphaticHeterocycles>  (8) 
0

>  <NumAliphaticRings>  (8) 
0

>  <NumAromaticCarbocycles>  (8) 
2

>  <NumAromaticHeterocycles>  (8) 
0

>  <NAR>  (8) 
2

>  <NumHAcceptors>  (8) 
3

>  <NumHDonors>  (8) 
3

>  <NumHeteroatoms>  (8) 
6

>  <NumRotatableBonds>  (8) 
4

>  <NumSaturatedCarbocycles>  (8) 
0

>  <NumSaturatedHeterocycles>  (8) 
0

>  <NumSaturatedRings>  (8) 
0

>  <RingCount>  (8) 
2

>  <MolLogP>  (8) 
1.588

>  <MolMR>  (8) 
83.6146

>  <fr_Al_COO>  (8) 
0

>  <fr_Al_OH>  (8) 
0

>  <fr_Al_OH_noTert>  (8) 
0

>  <fr_ArN>  (8) 
0

>  <fr_Ar_COO>  (8) 
0

>  <fr_Ar_N>  (8) 
0

>  <fr_Ar_NH>  (8) 
0

>  <fr_Ar_OH>  (8) 
1

>  <fr_COO>  (8) 
0

>  <fr_COO2>  (8) 
0

>  <fr_C_O>  (8) 
1

>  <fr_C_O_noCOO>  (8) 
1

>  <fr_C_S>  (8) 
0

>  <fr_HOCCN>  (8) 
0

>  <fr_Imine>  (8) 
0

>  <fr_NH0>  (8) 
1

>  <fr_NH1>  (8) 
1

>  <fr_NH2>  (8) 
0

>  <fr_N_O>  (8) 
0

>  <fr_Ndealkylation1>  (8) 
0

>  <fr_Ndealkylation2>  (8) 
0

>  <fr_Nhpyrrole>  (8) 
0

>  <fr_SH>  (8) 
0

>  <fr_aldehyde>  (8) 
0

>  <fr_alkyl_carbamate>  (8) 
0

>  <fr_alkyl_halide>  (8) 
0

>  <fr_allylic_oxid>  (8) 
0

>  <fr_amide>  (8) 
1

>  <fr_amidine>  (8) 
0

>  <fr_aniline>  (8) 
0

>  <fr_aryl_methyl>  (8) 
0

>  <fr_azide>  (8) 
0

>  <fr_azo>  (8) 
0

>  <fr_barbitur>  (8) 
0

>  <fr_benzene>  (8) 
2

>  <fr_benzodiazepine>  (8) 
0

>  <fr_bicyclic>  (8) 
0

>  <fr_diazo>  (8) 
0

>  <fr_dihydropyridine>  (8) 
0

>  <fr_epoxide>  (8) 
0

>  <fr_ester>  (8) 
0

>  <fr_ether>  (8) 
0

>  <fr_furan>  (8) 
0

>  <fr_guanido>  (8) 
0

>  <fr_halogen>  (8) 
1

>  <fr_hdrzine>  (8) 
0

>  <fr_hdrzone>  (8) 
1

>  <fr_imidazole>  (8) 
0

>  <fr_imide>  (8) 
0

>  <fr_isocyan>  (8) 
0

>  <fr_isothiocyan>  (8) 
0

>  <fr_ketone>  (8) 
0

>  <fr_ketone_Topliss>  (8) 
0

>  <fr_lactam>  (8) 
0

>  <fr_lactone>  (8) 
0

>  <fr_methoxy>  (8) 
0

>  <fr_morpholine>  (8) 
0

>  <fr_nitrile>  (8) 
0

>  <fr_nitro>  (8) 
0

>  <fr_nitro_arom>  (8) 
0

>  <fr_nitro_arom_nonortho>  (8) 
0

>  <fr_nitroso>  (8) 
0

>  <fr_oxazole>  (8) 
0

>  <fr_oxime>  (8) 
0

>  <fr_para_hydroxylation>  (8) 
0

>  <fr_phenol>  (8) 
1

>  <fr_phenol_noOrthoHbond>  (8) 
1

>  <fr_phos_acid>  (8) 
0

>  <fr_phos_ester>  (8) 
0

>  <fr_piperdine>  (8) 
0

>  <fr_piperzine>  (8) 
0

>  <fr_priamide>  (8) 
0

>  <fr_prisulfonamd>  (8) 
0

>  <fr_pyridine>  (8) 
0

>  <fr_quatN>  (8) 
1

>  <fr_sulfide>  (8) 
0

>  <fr_sulfonamd>  (8) 
0

>  <fr_sulfone>  (8) 
0

>  <fr_term_acetylene>  (8) 
0

>  <fr_tetrazole>  (8) 
0

>  <fr_thiazole>  (8) 
0

>  <fr_thiocyan>  (8) 
0

>  <fr_thiophene>  (8) 
0

>  <fr_unbrch_alkane>  (8) 
0

>  <fr_urea>  (8) 
0

>  <NP-Likeness>  (8) 
-0.735688

$$$$
35R
     RDKit          3D

  0  0  0  0  0  0  0  0  0  0999 V3000
M  V30 BEGIN CTAB
M  V30 COUNTS 52 56 0 0 0
M  V30 BEGIN ATOM
M  V30 1 C -0.968068 -1.346351 0.881927 0
M  V30 2 C 0.384439 -1.512123 1.101112 0
M  V30 3 N 1.499623 -0.752164 1.155435 0
M  V30 4 C 2.567596 -1.526811 1.419251 0
M  V30 5 C 3.952843 -1.093802 1.558757 0
M  V30 6 N 4.999385 -1.884249 1.821707 0
M  V30 7 N 6.116342 -1.153214 1.880360 0
M  V30 8 C 5.815181 0.151156 1.652880 0
M  V30 9 C 4.434092 0.178160 1.449121 0
M  V30 10 N 3.723074 1.374606 1.177515 0
M  V30 11 C 3.120892 2.274627 2.112567 0
M  V30 12 O 3.182043 2.055326 3.333066 0
M  V30 13 N 2.480718 3.385687 1.520151 0
M  V30 14 C 1.824599 4.385552 2.341018 0
M  V30 15 C 2.151274 5.808514 1.877699 0
M  V30 16 C 0.773666 5.259321 1.802165 0
M  V30 17 N 2.113670 -2.792722 1.531989 0
M  V30 18 C 0.781752 -2.831785 1.344665 0
M  V30 19 C -0.081275 -3.905395 1.371060 0
M  V30 20 C -1.429815 -3.700756 1.146972 0
M  V30 21 C -1.862106 -2.398077 0.900748 0
M  V30 22 C -3.298514 -2.236145 0.669968 0
M  V30 23 N -3.715548 -2.348307 -0.704018 0 CHG=1 VAL=4
M  V30 24 C -4.995262 -3.044999 -0.686483 0
M  V30 25 C -5.404186 -3.594502 -2.011048 0
M  V30 26 O -4.372354 -4.131503 -2.747229 0
M  V30 27 C -3.368647 -3.151476 -2.924823 0
M  V30 28 C -2.751001 -2.976931 -1.551932 0
M  V30 29 H -1.314523 -0.355878 0.692150 0
M  V30 30 H 7.048468 -1.585354 2.076222 0
M  V30 31 H 6.571021 0.915836 1.654514 0
M  V30 32 H 3.701905 1.510935 0.133788 0
M  V30 33 H 2.445068 3.545949 0.475299 0
M  V30 34 H 1.858892 4.221930 3.442711 0
M  V30 35 H 2.675076 5.967509 0.929467 0
M  V30 36 H 2.432832 6.520777 2.687529 0
M  V30 37 H 0.030450 5.682286 2.500650 0
M  V30 38 H 0.327516 5.096820 0.791043 0
M  V30 39 H 2.761611 -3.609074 1.740876 0
M  V30 40 H 0.281985 -4.893511 1.562948 0
M  V30 41 H -2.079635 -4.546950 1.172181 0
M  V30 42 H -3.874660 -2.916575 1.359112 0
M  V30 43 H -3.591510 -1.211919 1.018892 0
M  V30 44 H -3.912864 -1.397739 -1.129602 0
M  V30 45 H -5.764601 -2.269247 -0.405246 0
M  V30 46 H -4.970468 -3.780362 0.132272 0
M  V30 47 H -5.928434 -2.803501 -2.607890 0
M  V30 48 H -6.135965 -4.420273 -1.824492 0
M  V30 49 H -2.636369 -3.558181 -3.648410 0
M  V30 50 H -3.875695 -2.242747 -3.281491 0
M  V30 51 H -1.912039 -2.277585 -1.683213 0
M  V30 52 H -2.448134 -3.981325 -1.230224 0
M  V30 END ATOM
M  V30 BEGIN BOND
M  V30 1 2 1 2
M  V30 2 1 2 3
M  V30 3 2 3 4
M  V30 4 1 4 5
M  V30 5 2 5 6
M  V30 6 1 6 7
M  V30 7 1 7 8
M  V30 8 2 8 9
M  V30 9 1 9 10
M  V30 10 1 10 11
M  V30 11 2 11 12
M  V30 12 1 11 13
M  V30 13 1 13 14
M  V30 14 1 14 15
M  V30 15 1 15 16
M  V30 16 1 4 17
M  V30 17 1 17 18
M  V30 18 2 18 19
M  V30 19 1 19 20
M  V30 20 2 20 21
M  V30 21 1 21 22
M  V30 22 1 22 23
M  V30 23 1 23 24
M  V30 24 1 24 25
M  V30 25 1 25 26
M  V30 26 1 26 27
M  V30 27 1 27 28
M  V30 28 1 21 1
M  V30 29 1 28 23
M  V30 30 1 18 2
M  V30 31 1 9 5
M  V30 32 1 16 14
M  V30 33 1 1 29
M  V30 34 1 7 30
M  V30 35 1 8 31
M  V30 36 1 10 32
M  V30 37 1 13 33
M  V30 38 1 14 34
M  V30 39 1 15 35
M  V30 40 1 15 36
M  V30 41 1 16 37
M  V30 42 1 16 38
M  V30 43 1 17 39
M  V30 44 1 19 40
M  V30 45 1 20 41
M  V30 46 1 22 42
M  V30 47 1 22 43
M  V30 48 1 23 44
M  V30 49 1 24 45
M  V30 50 1 24 46
M  V30 51 1 25 47
M  V30 52 1 25 48
M  V30 53 1 27 49
M  V30 54 1 27 50
M  V30 55 1 28 51
M  V30 56 1 28 52
M  V30 END BOND
M  V30 END CTAB
M  END
>  <Dataset>  (9) 
PDB

>  <Ligand_Instance>  (9) 
5N23_35R_A_401

>  <PDB_ID>  (9) 
5N23

>  <Standardized_SMILES>  (9) 
[H]C1=C2N=C(C3=NN([H])C([H])=C3N([H])C(=O)N([H])C3([H])C([H])([H])C3([H])[H])N([H])C2=C([H])C([H])=C1C([H])([H])[N+]1([H])C([H])([H])C([H])([H])OC([H])([H])C1([H])[H]

>  <Name>  (9) 
1-cyclopropyl-3-{3-[5-(morpholin-4-ylmethyl)-1H-benzimidazol-2-yl]-1H-pyrazol-4-yl}urea

>  <Pocket>  (9) 
A

>  <ATP_Site>  (9) 
1.0

>  <Peripheral>  (9) 
0.0

>  <Num_H_Atoms_ProtBoundConf>  (9) 
24.0

>  <Num_Resolved_Atoms>  (9) 
28.0

>  <Num_Not_Resolved_Atoms>  (9) 
0.0

>  <2D_Mol_H>  (9) 
<rdkit.Chem.rdchem.Mol object at 0x72a238db6ea0>

>  <MW>  (9) 
382.448

>  <HBA>  (9) 
4

>  <HBD>  (9) 
5

>  <LogP>  (9) 
0.652

>  <NRB>  (9) 
5

>  <TPSA>  (9) 
112.16

>  <Num_Heavy_Atoms>  (9) 
28

>  <Ro5>  (9) 
[True, True, True, True, True, True]

>  <Ro5_Fulfilled>  (9) 
True

>  <Ro3>  (9) 
[False, False, False, True]

>  <Ro3_Fulfilled>  (9) 
False

>  <Fsp3>  (9) 
0.421053

>  <Fsp3_0.42>  (9) 
True

>  <Fsp3_0.45>  (9) 
False

>  <Stereogenic_Carbons>  (9) 
0

>  <C_Atoms>  (9) 
19

>  <FCStereo>  (9) 
0.0

>  <SPS>  (9) 
496

>  <nSPS>  (9) 
17.714286

>  <PBF>  (9) 
0.907964

>  <PBF_0.6>  (9) 
True

>  <nPBF>  (9) 
0.032427

>  <nPBF_0.016>  (9) 
True

>  <PMI1>  (9) 
2059.729828

>  <PMI2>  (9) 
6619.442536

>  <PMI3>  (9) 
8097.028609

>  <NPR1>  (9) 
0.254381

>  <NPR2>  (9) 
0.817515

>  <Sum_NPR>  (9) 
1.071896

>  <Sum_NPR_1.07>  (9) 
True

>  <Sum_NPR_1.2>  (9) 
False

>  <MaxAbsEStateIndex>  (9) 
12.04461

>  <MaxEStateIndex>  (9) 
12.04461

>  <MinAbsEStateIndex>  (9) 
0.21108

>  <MinEStateIndex>  (9) 
-0.21108

>  <qed>  (9) 
0.446029

>  <MolWt>  (9) 
382.448

>  <HeavyAtomMolWt>  (9) 
358.256

>  <ExactMolWt>  (9) 
382.198599

>  <NumValenceElectrons>  (9) 
146

>  <NumRadicalElectrons>  (9) 
0

>  <MaxPartialCharge>  (9) 
0.319061

>  <MinPartialCharge>  (9) 
-0.369752

>  <MaxAbsPartialCharge>  (9) 
0.369752

>  <MinAbsPartialCharge>  (9) 
0.319061

>  <FpDensityMorgan1>  (9) 
1.285714

>  <FpDensityMorgan2>  (9) 
2.142857

>  <FpDensityMorgan3>  (9) 
2.964286

>  <BCUT2D_MWHI>  (9) 
16.477485

>  <BCUT2D_MWLOW>  (9) 
10.156401

>  <BCUT2D_CHGHI>  (9) 
2.239543

>  <BCUT2D_CHGLO>  (9) 
-2.231698

>  <BCUT2D_LOGPHI>  (9) 
2.259012

>  <BCUT2D_LOGPLOW>  (9) 
-3.12357

>  <BCUT2D_MRHI>  (9) 
5.932954

>  <BCUT2D_MRLOW>  (9) 
-0.921055

>  <AvgIpc>  (9) 
3.222409

>  <BalabanJ>  (9) 
1.345663

>  <BertzCT>  (9) 
985.251837

>  <Chi0>  (9) 
18.924074

>  <Chi0n>  (9) 
15.547423

>  <Chi0v>  (9) 
15.547423

>  <Chi1>  (9) 
13.742316

>  <Chi1n>  (9) 
9.760671

>  <Chi1v>  (9) 
9.760671

>  <Chi2n>  (9) 
7.496318

>  <Chi2v>  (9) 
7.496318

>  <Chi3n>  (9) 
5.226932

>  <Chi3v>  (9) 
5.226932

>  <Chi4n>  (9) 
3.536243

>  <Chi4v>  (9) 
3.536243

>  <HallKierAlpha>  (9) 
-2.91

>  <Ipc>  (9) 
5368998.12176

>  <Kappa1>  (9) 
17.206273

>  <Kappa2>  (9) 
7.249813

>  <Kappa3>  (9) 
3.712529

>  <LabuteASA>  (9) 
161.403674

>  <PEOE_VSA1>  (9) 
25.254328

>  <PEOE_VSA10>  (9) 
19.634269

>  <PEOE_VSA11>  (9) 
11.518332

>  <PEOE_VSA12>  (9) 
0.0

>  <PEOE_VSA13>  (9) 
0.0

>  <PEOE_VSA14>  (9) 
6.031115

>  <PEOE_VSA2>  (9) 
5.098682

>  <PEOE_VSA3>  (9) 
9.778516

>  <PEOE_VSA4>  (9) 
5.098682

>  <PEOE_VSA5>  (9) 
0.0

>  <PEOE_VSA6>  (9) 
6.066367

>  <PEOE_VSA7>  (9) 
24.974377

>  <PEOE_VSA8>  (9) 
17.802136

>  <PEOE_VSA9>  (9) 
29.934552

>  <SMR_VSA1>  (9) 
14.43131

>  <SMR_VSA10>  (9) 
22.751902

>  <SMR_VSA2>  (9) 
0.0

>  <SMR_VSA3>  (9) 
25.482109

>  <SMR_VSA4>  (9) 
0.0

>  <SMR_VSA5>  (9) 
25.42824

>  <SMR_VSA6>  (9) 
31.620065

>  <SMR_VSA7>  (9) 
29.959396

>  <SMR_VSA8>  (9) 
0.0

>  <SMR_VSA9>  (9) 
11.518332

>  <SlogP_VSA1>  (9) 
15.533487

>  <SlogP_VSA10>  (9) 
10.481923

>  <SlogP_VSA11>  (9) 
0.0

>  <SlogP_VSA12>  (9) 
0.0

>  <SlogP_VSA2>  (9) 
58.541553

>  <SlogP_VSA3>  (9) 
11.281619

>  <SlogP_VSA4>  (9) 
0.0

>  <SlogP_VSA5>  (9) 
18.405095

>  <SlogP_VSA6>  (9) 
24.395945

>  <SlogP_VSA7>  (9) 
0.0

>  <SlogP_VSA8>  (9) 
22.551734

>  <SlogP_VSA9>  (9) 
0.0

>  <EState_VSA1>  (9) 
0.0

>  <EState_VSA10>  (9) 
4.794537

>  <EState_VSA11>  (9) 
0.0

>  <EState_VSA2>  (9) 
6.031115

>  <EState_VSA3>  (9) 
23.24756

>  <EState_VSA4>  (9) 
56.723078

>  <EState_VSA5>  (9) 
10.463361

>  <EState_VSA6>  (9) 
6.196844

>  <EState_VSA7>  (9) 
0.0

>  <EState_VSA8>  (9) 
44.014021

>  <EState_VSA9>  (9) 
9.720841

>  <VSA_EState1>  (9) 
5.433014

>  <VSA_EState10>  (9) 
0.0

>  <VSA_EState2>  (9) 
21.583999

>  <VSA_EState3>  (9) 
12.841023

>  <VSA_EState4>  (9) 
4.312945

>  <VSA_EState5>  (9) 
0.633186

>  <VSA_EState6>  (9) 
6.405498

>  <VSA_EState7>  (9) 
3.759613

>  <VSA_EState8>  (9) 
4.69739

>  <VSA_EState9>  (9) 
0.0

>  <FractionCSP3>  (9) 
0.421053

>  <HeavyAtomCount>  (9) 
28

>  <NHOHCount>  (9) 
5

>  <NOCount>  (9) 
9

>  <NumAliphaticCarbocycles>  (9) 
1

>  <NumAliphaticHeterocycles>  (9) 
1

>  <NumAliphaticRings>  (9) 
2

>  <NumAromaticCarbocycles>  (9) 
1

>  <NumAromaticHeterocycles>  (9) 
2

>  <NAR>  (9) 
3

>  <NumHAcceptors>  (9) 
4

>  <NumHDonors>  (9) 
5

>  <NumHeteroatoms>  (9) 
9

>  <NumRotatableBonds>  (9) 
5

>  <NumSaturatedCarbocycles>  (9) 
1

>  <NumSaturatedHeterocycles>  (9) 
1

>  <NumSaturatedRings>  (9) 
2

>  <RingCount>  (9) 
5

>  <MolLogP>  (9) 
0.652

>  <MolMR>  (9) 
104.0715

>  <fr_Al_COO>  (9) 
0

>  <fr_Al_OH>  (9) 
0

>  <fr_Al_OH_noTert>  (9) 
0

>  <fr_ArN>  (9) 
0

>  <fr_Ar_COO>  (9) 
0

>  <fr_Ar_N>  (9) 
4

>  <fr_Ar_NH>  (9) 
2

>  <fr_Ar_OH>  (9) 
0

>  <fr_COO>  (9) 
0

>  <fr_COO2>  (9) 
0

>  <fr_C_O>  (9) 
1

>  <fr_C_O_noCOO>  (9) 
1

>  <fr_C_S>  (9) 
0

>  <fr_HOCCN>  (9) 
0

>  <fr_Imine>  (9) 
0

>  <fr_NH0>  (9) 
2

>  <fr_NH1>  (9) 
5

>  <fr_NH2>  (9) 
0

>  <fr_N_O>  (9) 
0

>  <fr_Ndealkylation1>  (9) 
0

>  <fr_Ndealkylation2>  (9) 
0

>  <fr_Nhpyrrole>  (9) 
2

>  <fr_SH>  (9) 
0

>  <fr_aldehyde>  (9) 
0

>  <fr_alkyl_carbamate>  (9) 
0

>  <fr_alkyl_halide>  (9) 
0

>  <fr_allylic_oxid>  (9) 
0

>  <fr_amide>  (9) 
2

>  <fr_amidine>  (9) 
0

>  <fr_aniline>  (9) 
1

>  <fr_aryl_methyl>  (9) 
0

>  <fr_azide>  (9) 
0

>  <fr_azo>  (9) 
0

>  <fr_barbitur>  (9) 
0

>  <fr_benzene>  (9) 
1

>  <fr_benzodiazepine>  (9) 
0

>  <fr_bicyclic>  (9) 
1

>  <fr_diazo>  (9) 
0

>  <fr_dihydropyridine>  (9) 
0

>  <fr_epoxide>  (9) 
0

>  <fr_ester>  (9) 
0

>  <fr_ether>  (9) 
1

>  <fr_furan>  (9) 
0

>  <fr_guanido>  (9) 
0

>  <fr_halogen>  (9) 
0

>  <fr_hdrzine>  (9) 
0

>  <fr_hdrzone>  (9) 
0

>  <fr_imidazole>  (9) 
1

>  <fr_imide>  (9) 
0

>  <fr_isocyan>  (9) 
0

>  <fr_isothiocyan>  (9) 
0

>  <fr_ketone>  (9) 
0

>  <fr_ketone_Topliss>  (9) 
0

>  <fr_lactam>  (9) 
0

>  <fr_lactone>  (9) 
0

>  <fr_methoxy>  (9) 
0

>  <fr_morpholine>  (9) 
1

>  <fr_nitrile>  (9) 
0

>  <fr_nitro>  (9) 
0

>  <fr_nitro_arom>  (9) 
0

>  <fr_nitro_arom_nonortho>  (9) 
0

>  <fr_nitroso>  (9) 
0

>  <fr_oxazole>  (9) 
0

>  <fr_oxime>  (9) 
0

>  <fr_para_hydroxylation>  (9) 
0

>  <fr_phenol>  (9) 
0

>  <fr_phenol_noOrthoHbond>  (9) 
0

>  <fr_phos_acid>  (9) 
0

>  <fr_phos_ester>  (9) 
0

>  <fr_piperdine>  (9) 
0

>  <fr_piperzine>  (9) 
0

>  <fr_priamide>  (9) 
0

>  <fr_prisulfonamd>  (9) 
0

>  <fr_pyridine>  (9) 
0

>  <fr_quatN>  (9) 
1

>  <fr_sulfide>  (9) 
0

>  <fr_sulfonamd>  (9) 
0

>  <fr_sulfone>  (9) 
0

>  <fr_term_acetylene>  (9) 
0

>  <fr_tetrazole>  (9) 
0

>  <fr_thiazole>  (9) 
0

>  <fr_thiocyan>  (9) 
0

>  <fr_thiophene>  (9) 
0

>  <fr_unbrch_alkane>  (9) 
0

>  <fr_urea>  (9) 
1

>  <NP-Likeness>  (9) 
-1.524556

$$$$
3AB
     RDKit          3D

  0  0  0  0  0  0  0  0  0  0999 V3000
M  V30 BEGIN CTAB
M  V30 COUNTS 18 18 0 0 0
M  V30 BEGIN ATOM
M  V30 1 C -0.091686 -1.812765 0.890995 0
M  V30 2 C -0.964457 -0.752301 1.044431 0
M  V30 3 C -0.404349 0.507393 1.086227 0
M  V30 4 N -1.288601 1.626694 1.244911 0
M  V30 5 C 0.925260 0.812230 0.991303 0
M  V30 6 C 1.774677 -0.277503 0.837805 0
M  V30 7 C 3.224258 -0.164221 0.718469 0
M  V30 8 O 4.132840 -1.001145 0.578114 0
M  V30 9 N 3.753490 1.164324 0.767835 0
M  V30 10 C 1.281223 -1.580625 0.787010 0
M  V30 11 H -0.517115 -2.815462 0.855940 0
M  V30 12 H -2.037758 -0.849383 1.131830 0
M  V30 13 H -1.799568 1.534508 2.150998 0
M  V30 14 H -1.398129 2.405471 0.559137 0
M  V30 15 H 1.340719 1.786515 1.025194 0
M  V30 16 H 4.721679 1.489404 0.902665 0
M  V30 17 H 3.582038 2.192310 0.721011 0
M  V30 18 H 1.953453 -2.442051 0.665581 0
M  V30 END ATOM
M  V30 BEGIN BOND
M  V30 1 2 1 2
M  V30 2 1 2 3
M  V30 3 1 3 4
M  V30 4 2 3 5
M  V30 5 1 5 6
M  V30 6 1 6 7
M  V30 7 2 7 8
M  V30 8 1 7 9
M  V30 9 2 6 10
M  V30 10 1 10 1
M  V30 11 1 1 11
M  V30 12 1 2 12
M  V30 13 1 4 13
M  V30 14 1 4 14
M  V30 15 1 5 15
M  V30 16 1 9 16
M  V30 17 1 9 17
M  V30 18 1 10 18
M  V30 END BOND
M  V30 END CTAB
M  END
>  <Dataset>  (10) 
PDB

>  <Ligand_Instance>  (10) 
5N3Q_3AB_A_402

>  <PDB_ID>  (10) 
5N3Q

>  <Standardized_SMILES>  (10) 
[H]C1=C([H])C(N([H])[H])=C([H])C(C(=O)N([H])[H])=C1[H]

>  <Name>  (10) 
3-aminobenzamide

>  <Pocket>  (10) 
A

>  <ATP_Site>  (10) 
1.0

>  <Peripheral>  (10) 
1.0

>  <Num_H_Atoms_ProtBoundConf>  (10) 
8.0

>  <Num_Resolved_Atoms>  (10) 
10.0

>  <Num_Not_Resolved_Atoms>  (10) 
0.0

>  <2D_Mol_H>  (10) 
<rdkit.Chem.rdchem.Mol object at 0x72a238db6f80>

>  <MW>  (10) 
136.154

>  <HBA>  (10) 
2

>  <HBD>  (10) 
2

>  <LogP>  (10) 
0.3677

>  <NRB>  (10) 
2

>  <TPSA>  (10) 
69.11

>  <Num_Heavy_Atoms>  (10) 
10

>  <Ro5>  (10) 
[True, True, True, True, True, True]

>  <Ro5_Fulfilled>  (10) 
True

>  <Ro3>  (10) 
[True, True, True, True]

>  <Ro3_Fulfilled>  (10) 
True

>  <Fsp3>  (10) 
0.0

>  <Fsp3_0.42>  (10) 
False

>  <Fsp3_0.45>  (10) 
False

>  <Stereogenic_Carbons>  (10) 
0

>  <C_Atoms>  (10) 
7

>  <FCStereo>  (10) 
0.0

>  <SPS>  (10) 
92

>  <nSPS>  (10) 
9.2

>  <PBF>  (10) 
0.120397

>  <PBF_0.6>  (10) 
False

>  <nPBF>  (10) 
0.01204

>  <nPBF_0.016>  (10) 
False

>  <PMI1>  (10) 
192.490779

>  <PMI2>  (10) 
532.537794

>  <PMI3>  (10) 
722.294229

>  <NPR1>  (10) 
0.266499

>  <NPR2>  (10) 
0.737287

>  <Sum_NPR>  (10) 
1.003786

>  <Sum_NPR_1.07>  (10) 
False

>  <Sum_NPR_1.2>  (10) 
False

>  <MaxAbsEStateIndex>  (10) 
10.519815

>  <MaxEStateIndex>  (10) 
10.519815

>  <MinAbsEStateIndex>  (10) 
0.444444

>  <MinEStateIndex>  (10) 
-0.451574

>  <qed>  (10) 
0.547342

>  <MolWt>  (10) 
136.154

>  <HeavyAtomMolWt>  (10) 
128.09

>  <ExactMolWt>  (10) 
136.063663

>  <NumValenceElectrons>  (10) 
52

>  <NumRadicalElectrons>  (10) 
0

>  <MaxPartialCharge>  (10) 
0.248273

>  <MinPartialCharge>  (10) 
-0.398709

>  <MaxAbsPartialCharge>  (10) 
0.398709

>  <MinAbsPartialCharge>  (10) 
0.248273

>  <FpDensityMorgan1>  (10) 
1.4

>  <FpDensityMorgan2>  (10) 
2.1

>  <FpDensityMorgan3>  (10) 
2.5

>  <BCUT2D_MWHI>  (10) 
16.146266

>  <BCUT2D_MWLOW>  (10) 
10.1766

>  <BCUT2D_CHGHI>  (10) 
1.96704

>  <BCUT2D_CHGLO>  (10) 
-1.942641

>  <BCUT2D_LOGPHI>  (10) 
2.040165

>  <BCUT2D_LOGPLOW>  (10) 
-2.102398

>  <BCUT2D_MRHI>  (10) 
5.930391

>  <BCUT2D_MRLOW>  (10) 
0.10001

>  <AvgIpc>  (10) 
1.875714

>  <BalabanJ>  (10) 
3.069899

>  <BertzCT>  (10) 
257.537949

>  <Chi0>  (10) 
7.560478

>  <Chi0n>  (10) 
5.37235

>  <Chi0v>  (10) 
5.37235

>  <Chi1>  (10) 
4.698377

>  <Chi1n>  (10) 
2.852842

>  <Chi1v>  (10) 
2.852842

>  <Chi2n>  (10) 
1.989714

>  <Chi2v>  (10) 
1.989714

>  <Chi3n>  (10) 
1.171145

>  <Chi3v>  (10) 
1.171145

>  <Chi4n>  (10) 
0.691938

>  <Chi4v>  (10) 
0.691938

>  <HallKierAlpha>  (10) 
-1.51

>  <Ipc>  (10) 
178.192787

>  <Kappa1>  (10) 
6.607786

>  <Kappa2>  (10) 
2.389633

>  <Kappa3>  (10) 
1.253905

>  <LabuteASA>  (10) 
58.637649

>  <PEOE_VSA1>  (10) 
11.467335

>  <PEOE_VSA10>  (10) 
0.0

>  <PEOE_VSA11>  (10) 
0.0

>  <PEOE_VSA12>  (10) 
5.90718

>  <PEOE_VSA13>  (10) 
0.0

>  <PEOE_VSA14>  (10) 
0.0

>  <PEOE_VSA2>  (10) 
4.794537

>  <PEOE_VSA3>  (10) 
0.0

>  <PEOE_VSA4>  (10) 
0.0

>  <PEOE_VSA5>  (10) 
0.0

>  <PEOE_VSA6>  (10) 
6.066367

>  <PEOE_VSA7>  (10) 
18.199101

>  <PEOE_VSA8>  (10) 
11.250838

>  <PEOE_VSA9>  (10) 
0.0

>  <SMR_VSA1>  (10) 
4.794537

>  <SMR_VSA10>  (10) 
11.594566

>  <SMR_VSA2>  (10) 
0.0

>  <SMR_VSA3>  (10) 
0.0

>  <SMR_VSA4>  (10) 
5.733667

>  <SMR_VSA5>  (10) 
0.0

>  <SMR_VSA6>  (10) 
5.733667

>  <SMR_VSA7>  (10) 
29.82892

>  <SMR_VSA8>  (10) 
0.0

>  <SMR_VSA9>  (10) 
0.0

>  <SlogP_VSA1>  (10) 
11.467335

>  <SlogP_VSA10>  (10) 
5.687386

>  <SlogP_VSA11>  (10) 
0.0

>  <SlogP_VSA12>  (10) 
0.0

>  <SlogP_VSA2>  (10) 
5.90718

>  <SlogP_VSA3>  (10) 
0.0

>  <SlogP_VSA4>  (10) 
0.0

>  <SlogP_VSA5>  (10) 
10.357989

>  <SlogP_VSA6>  (10) 
24.265468

>  <SlogP_VSA7>  (10) 
0.0

>  <SlogP_VSA8>  (10) 
0.0

>  <SlogP_VSA9>  (10) 
0.0

>  <EState_VSA1>  (10) 
5.90718

>  <EState_VSA10>  (10) 
4.794537

>  <EState_VSA11>  (10) 
0.0

>  <EState_VSA2>  (10) 
0.0

>  <EState_VSA3>  (10) 
11.250838

>  <EState_VSA4>  (10) 
0.0

>  <EState_VSA5>  (10) 
0.0

>  <EState_VSA6>  (10) 
24.265468

>  <EState_VSA7>  (10) 
0.0

>  <EState_VSA8>  (10) 
0.0

>  <EState_VSA9>  (10) 
11.467335

>  <VSA_EState1>  (10) 
0.0

>  <VSA_EState10>  (10) 
0.0

>  <VSA_EState2>  (10) 
10.519815

>  <VSA_EState3>  (10) 
0.0

>  <VSA_EState4>  (10) 
11.373333

>  <VSA_EState5>  (10) 
-0.451574

>  <VSA_EState6>  (10) 
6.558426

>  <VSA_EState7>  (10) 
0.0

>  <VSA_EState8>  (10) 
0.0

>  <VSA_EState9>  (10) 
0.0

>  <FractionCSP3>  (10) 
0.0

>  <HeavyAtomCount>  (10) 
10

>  <NHOHCount>  (10) 
4

>  <NOCount>  (10) 
3

>  <NumAliphaticCarbocycles>  (10) 
0

>  <NumAliphaticHeterocycles>  (10) 
0

>  <NumAliphaticRings>  (10) 
0

>  <NumAromaticCarbocycles>  (10) 
1

>  <NumAromaticHeterocycles>  (10) 
0

>  <NAR>  (10) 
1

>  <NumHAcceptors>  (10) 
2

>  <NumHDonors>  (10) 
2

>  <NumHeteroatoms>  (10) 
3

>  <NumRotatableBonds>  (10) 
1

>  <NumSaturatedCarbocycles>  (10) 
0

>  <NumSaturatedHeterocycles>  (10) 
0

>  <NumSaturatedRings>  (10) 
0

>  <RingCount>  (10) 
1

>  <MolLogP>  (10) 
0.3677

>  <MolMR>  (10) 
39.3723

>  <fr_Al_COO>  (10) 
0

>  <fr_Al_OH>  (10) 
0

>  <fr_Al_OH_noTert>  (10) 
0

>  <fr_ArN>  (10) 
1

>  <fr_Ar_COO>  (10) 
0

>  <fr_Ar_N>  (10) 
0

>  <fr_Ar_NH>  (10) 
0

>  <fr_Ar_OH>  (10) 
0

>  <fr_COO>  (10) 
0

>  <fr_COO2>  (10) 
0

>  <fr_C_O>  (10) 
1

>  <fr_C_O_noCOO>  (10) 
1

>  <fr_C_S>  (10) 
0

>  <fr_HOCCN>  (10) 
0

>  <fr_Imine>  (10) 
0

>  <fr_NH0>  (10) 
0

>  <fr_NH1>  (10) 
0

>  <fr_NH2>  (10) 
2

>  <fr_N_O>  (10) 
0

>  <fr_Ndealkylation1>  (10) 
0

>  <fr_Ndealkylation2>  (10) 
0

>  <fr_Nhpyrrole>  (10) 
0

>  <fr_SH>  (10) 
0

>  <fr_aldehyde>  (10) 
0

>  <fr_alkyl_carbamate>  (10) 
0

>  <fr_alkyl_halide>  (10) 
0

>  <fr_allylic_oxid>  (10) 
0

>  <fr_amide>  (10) 
1

>  <fr_amidine>  (10) 
0

>  <fr_aniline>  (10) 
1

>  <fr_aryl_methyl>  (10) 
0

>  <fr_azide>  (10) 
0

>  <fr_azo>  (10) 
0

>  <fr_barbitur>  (10) 
0

>  <fr_benzene>  (10) 
1

>  <fr_benzodiazepine>  (10) 
0

>  <fr_bicyclic>  (10) 
0

>  <fr_diazo>  (10) 
0

>  <fr_dihydropyridine>  (10) 
0

>  <fr_epoxide>  (10) 
0

>  <fr_ester>  (10) 
0

>  <fr_ether>  (10) 
0

>  <fr_furan>  (10) 
0

>  <fr_guanido>  (10) 
0

>  <fr_halogen>  (10) 
0

>  <fr_hdrzine>  (10) 
0

>  <fr_hdrzone>  (10) 
0

>  <fr_imidazole>  (10) 
0

>  <fr_imide>  (10) 
0

>  <fr_isocyan>  (10) 
0

>  <fr_isothiocyan>  (10) 
0

>  <fr_ketone>  (10) 
0

>  <fr_ketone_Topliss>  (10) 
0

>  <fr_lactam>  (10) 
0

>  <fr_lactone>  (10) 
0

>  <fr_methoxy>  (10) 
0

>  <fr_morpholine>  (10) 
0

>  <fr_nitrile>  (10) 
0

>  <fr_nitro>  (10) 
0

>  <fr_nitro_arom>  (10) 
0

>  <fr_nitro_arom_nonortho>  (10) 
0

>  <fr_nitroso>  (10) 
0

>  <fr_oxazole>  (10) 
0

>  <fr_oxime>  (10) 
0

>  <fr_para_hydroxylation>  (10) 
0

>  <fr_phenol>  (10) 
0

>  <fr_phenol_noOrthoHbond>  (10) 
0

>  <fr_phos_acid>  (10) 
0

>  <fr_phos_ester>  (10) 
0

>  <fr_piperdine>  (10) 
0

>  <fr_piperzine>  (10) 
0

>  <fr_priamide>  (10) 
1

>  <fr_prisulfonamd>  (10) 
0

>  <fr_pyridine>  (10) 
0

>  <fr_quatN>  (10) 
0

>  <fr_sulfide>  (10) 
0

>  <fr_sulfonamd>  (10) 
0

>  <fr_sulfone>  (10) 
0

>  <fr_term_acetylene>  (10) 
0

>  <fr_tetrazole>  (10) 
0

>  <fr_thiazole>  (10) 
0

>  <fr_thiocyan>  (10) 
0

>  <fr_thiophene>  (10) 
0

>  <fr_unbrch_alkane>  (10) 
0

>  <fr_urea>  (10) 
0

>  <NP-Likeness>  (10) 
-1.068861

$$$$
3AB
     RDKit          3D

  0  0  0  0  0  0  0  0  0  0999 V3000
M  V30 BEGIN CTAB
M  V30 COUNTS 18 18 0 0 0
M  V30 BEGIN ATOM
M  V30 1 C -0.091686 -1.812765 0.890995 0
M  V30 2 C -0.964457 -0.752301 1.044431 0
M  V30 3 C -0.404349 0.507393 1.086227 0
M  V30 4 N -1.288601 1.626694 1.244911 0
M  V30 5 C 0.925260 0.812230 0.991303 0
M  V30 6 C 1.774677 -0.277503 0.837805 0
M  V30 7 C 3.224258 -0.164221 0.718469 0
M  V30 8 O 4.132840 -1.001145 0.578114 0
M  V30 9 N 3.753490 1.164324 0.767835 0
M  V30 10 C 1.281223 -1.580625 0.787010 0
M  V30 11 H -0.517115 -2.815462 0.855940 0
M  V30 12 H -2.037758 -0.849383 1.131830 0
M  V30 13 H -1.799568 1.534508 2.150998 0
M  V30 14 H -1.398129 2.405471 0.559137 0
M  V30 15 H 1.340719 1.786515 1.025194 0
M  V30 16 H 4.721679 1.489404 0.902665 0
M  V30 17 H 3.582038 2.192310 0.721011 0
M  V30 18 H 1.953453 -2.442051 0.665581 0
M  V30 END ATOM
M  V30 BEGIN BOND
M  V30 1 2 1 2
M  V30 2 1 2 3
M  V30 3 1 3 4
M  V30 4 2 3 5
M  V30 5 1 5 6
M  V30 6 1 6 7
M  V30 7 2 7 8
M  V30 8 1 7 9
M  V30 9 2 6 10
M  V30 10 1 10 1
M  V30 11 1 1 11
M  V30 12 1 2 12
M  V30 13 1 4 13
M  V30 14 1 4 14
M  V30 15 1 5 15
M  V30 16 1 9 16
M  V30 17 1 9 17
M  V30 18 1 10 18
M  V30 END BOND
M  V30 END CTAB
M  END
>  <Dataset>  (11) 
PDB

>  <Ligand_Instance>  (11) 
5N3Q_3AB_A_403

>  <PDB_ID>  (11) 
5N3Q

>  <Standardized_SMILES>  (11) 
[H]C1=C([H])C(N([H])[H])=C([H])C(C(=O)N([H])[H])=C1[H]

>  <Name>  (11) 
3-aminobenzamide

>  <Pocket>  (11) 
F

>  <ATP_Site>  (11) 
1.0

>  <Peripheral>  (11) 
1.0

>  <Num_H_Atoms_ProtBoundConf>  (11) 
8.0

>  <Num_Resolved_Atoms>  (11) 
10.0

>  <Num_Not_Resolved_Atoms>  (11) 
0.0

>  <2D_Mol_H>  (11) 
<rdkit.Chem.rdchem.Mol object at 0x72a238db7060>

>  <MW>  (11) 
136.154

>  <HBA>  (11) 
2

>  <HBD>  (11) 
2

>  <LogP>  (11) 
0.3677

>  <NRB>  (11) 
2

>  <TPSA>  (11) 
69.11

>  <Num_Heavy_Atoms>  (11) 
10

>  <Ro5>  (11) 
[True, True, True, True, True, True]

>  <Ro5_Fulfilled>  (11) 
True

>  <Ro3>  (11) 
[True, True, True, True]

>  <Ro3_Fulfilled>  (11) 
True

>  <Fsp3>  (11) 
0.0

>  <Fsp3_0.42>  (11) 
False

>  <Fsp3_0.45>  (11) 
False

>  <Stereogenic_Carbons>  (11) 
0

>  <C_Atoms>  (11) 
7

>  <FCStereo>  (11) 
0.0

>  <SPS>  (11) 
92

>  <nSPS>  (11) 
9.2

>  <PBF>  (11) 
0.120397

>  <PBF_0.6>  (11) 
False

>  <nPBF>  (11) 
0.01204

>  <nPBF_0.016>  (11) 
False

>  <PMI1>  (11) 
192.490779

>  <PMI2>  (11) 
532.537794

>  <PMI3>  (11) 
722.294229

>  <NPR1>  (11) 
0.266499

>  <NPR2>  (11) 
0.737287

>  <Sum_NPR>  (11) 
1.003786

>  <Sum_NPR_1.07>  (11) 
False

>  <Sum_NPR_1.2>  (11) 
False

>  <MaxAbsEStateIndex>  (11) 
10.519815

>  <MaxEStateIndex>  (11) 
10.519815

>  <MinAbsEStateIndex>  (11) 
0.444444

>  <MinEStateIndex>  (11) 
-0.451574

>  <qed>  (11) 
0.547342

>  <MolWt>  (11) 
136.154

>  <HeavyAtomMolWt>  (11) 
128.09

>  <ExactMolWt>  (11) 
136.063663

>  <NumValenceElectrons>  (11) 
52

>  <NumRadicalElectrons>  (11) 
0

>  <MaxPartialCharge>  (11) 
0.248273

>  <MinPartialCharge>  (11) 
-0.398709

>  <MaxAbsPartialCharge>  (11) 
0.398709

>  <MinAbsPartialCharge>  (11) 
0.248273

>  <FpDensityMorgan1>  (11) 
1.4

>  <FpDensityMorgan2>  (11) 
2.1

>  <FpDensityMorgan3>  (11) 
2.5

>  <BCUT2D_MWHI>  (11) 
16.146266

>  <BCUT2D_MWLOW>  (11) 
10.1766

>  <BCUT2D_CHGHI>  (11) 
1.96704

>  <BCUT2D_CHGLO>  (11) 
-1.942641

>  <BCUT2D_LOGPHI>  (11) 
2.040165

>  <BCUT2D_LOGPLOW>  (11) 
-2.102398

>  <BCUT2D_MRHI>  (11) 
5.930391

>  <BCUT2D_MRLOW>  (11) 
0.10001

>  <AvgIpc>  (11) 
1.875714

>  <BalabanJ>  (11) 
3.069899

>  <BertzCT>  (11) 
257.537949

>  <Chi0>  (11) 
7.560478

>  <Chi0n>  (11) 
5.37235

>  <Chi0v>  (11) 
5.37235

>  <Chi1>  (11) 
4.698377

>  <Chi1n>  (11) 
2.852842

>  <Chi1v>  (11) 
2.852842

>  <Chi2n>  (11) 
1.989714

>  <Chi2v>  (11) 
1.989714

>  <Chi3n>  (11) 
1.171145

>  <Chi3v>  (11) 
1.171145

>  <Chi4n>  (11) 
0.691938

>  <Chi4v>  (11) 
0.691938

>  <HallKierAlpha>  (11) 
-1.51

>  <Ipc>  (11) 
178.192787

>  <Kappa1>  (11) 
6.607786

>  <Kappa2>  (11) 
2.389633

>  <Kappa3>  (11) 
1.253905

>  <LabuteASA>  (11) 
58.637649

>  <PEOE_VSA1>  (11) 
11.467335

>  <PEOE_VSA10>  (11) 
0.0

>  <PEOE_VSA11>  (11) 
0.0

>  <PEOE_VSA12>  (11) 
5.90718

>  <PEOE_VSA13>  (11) 
0.0

>  <PEOE_VSA14>  (11) 
0.0

>  <PEOE_VSA2>  (11) 
4.794537

>  <PEOE_VSA3>  (11) 
0.0

>  <PEOE_VSA4>  (11) 
0.0

>  <PEOE_VSA5>  (11) 
0.0

>  <PEOE_VSA6>  (11) 
6.066367

>  <PEOE_VSA7>  (11) 
18.199101

>  <PEOE_VSA8>  (11) 
11.250838

>  <PEOE_VSA9>  (11) 
0.0

>  <SMR_VSA1>  (11) 
4.794537

>  <SMR_VSA10>  (11) 
11.594566

>  <SMR_VSA2>  (11) 
0.0

>  <SMR_VSA3>  (11) 
0.0

>  <SMR_VSA4>  (11) 
5.733667

>  <SMR_VSA5>  (11) 
0.0

>  <SMR_VSA6>  (11) 
5.733667

>  <SMR_VSA7>  (11) 
29.82892

>  <SMR_VSA8>  (11) 
0.0

>  <SMR_VSA9>  (11) 
0.0

>  <SlogP_VSA1>  (11) 
11.467335

>  <SlogP_VSA10>  (11) 
5.687386

>  <SlogP_VSA11>  (11) 
0.0

>  <SlogP_VSA12>  (11) 
0.0

>  <SlogP_VSA2>  (11) 
5.90718

>  <SlogP_VSA3>  (11) 
0.0

>  <SlogP_VSA4>  (11) 
0.0

>  <SlogP_VSA5>  (11) 
10.357989

>  <SlogP_VSA6>  (11) 
24.265468

>  <SlogP_VSA7>  (11) 
0.0

>  <SlogP_VSA8>  (11) 
0.0

>  <SlogP_VSA9>  (11) 
0.0

>  <EState_VSA1>  (11) 
5.90718

>  <EState_VSA10>  (11) 
4.794537

>  <EState_VSA11>  (11) 
0.0

>  <EState_VSA2>  (11) 
0.0

>  <EState_VSA3>  (11) 
11.250838

>  <EState_VSA4>  (11) 
0.0

>  <EState_VSA5>  (11) 
0.0

>  <EState_VSA6>  (11) 
24.265468

>  <EState_VSA7>  (11) 
0.0

>  <EState_VSA8>  (11) 
0.0

>  <EState_VSA9>  (11) 
11.467335

>  <VSA_EState1>  (11) 
0.0

>  <VSA_EState10>  (11) 
0.0

>  <VSA_EState2>  (11) 
10.519815

>  <VSA_EState3>  (11) 
0.0

>  <VSA_EState4>  (11) 
11.373333

>  <VSA_EState5>  (11) 
-0.451574

>  <VSA_EState6>  (11) 
6.558426

>  <VSA_EState7>  (11) 
0.0

>  <VSA_EState8>  (11) 
0.0

>  <VSA_EState9>  (11) 
0.0

>  <FractionCSP3>  (11) 
0.0

>  <HeavyAtomCount>  (11) 
10

>  <NHOHCount>  (11) 
4

>  <NOCount>  (11) 
3

>  <NumAliphaticCarbocycles>  (11) 
0

>  <NumAliphaticHeterocycles>  (11) 
0

>  <NumAliphaticRings>  (11) 
0

>  <NumAromaticCarbocycles>  (11) 
1

>  <NumAromaticHeterocycles>  (11) 
0

>  <NAR>  (11) 
1

>  <NumHAcceptors>  (11) 
2

>  <NumHDonors>  (11) 
2

>  <NumHeteroatoms>  (11) 
3

>  <NumRotatableBonds>  (11) 
1

>  <NumSaturatedCarbocycles>  (11) 
0

>  <NumSaturatedHeterocycles>  (11) 
0

>  <NumSaturatedRings>  (11) 
0

>  <RingCount>  (11) 
1

>  <MolLogP>  (11) 
0.3677

>  <MolMR>  (11) 
39.3723

>  <fr_Al_COO>  (11) 
0

>  <fr_Al_OH>  (11) 
0

>  <fr_Al_OH_noTert>  (11) 
0

>  <fr_ArN>  (11) 
1

>  <fr_Ar_COO>  (11) 
0

>  <fr_Ar_N>  (11) 
0

>  <fr_Ar_NH>  (11) 
0

>  <fr_Ar_OH>  (11) 
0

>  <fr_COO>  (11) 
0

>  <fr_COO2>  (11) 
0

>  <fr_C_O>  (11) 
1

>  <fr_C_O_noCOO>  (11) 
1

>  <fr_C_S>  (11) 
0

>  <fr_HOCCN>  (11) 
0

>  <fr_Imine>  (11) 
0

>  <fr_NH0>  (11) 
0

>  <fr_NH1>  (11) 
0

>  <fr_NH2>  (11) 
2

>  <fr_N_O>  (11) 
0

>  <fr_Ndealkylation1>  (11) 
0

>  <fr_Ndealkylation2>  (11) 
0

>  <fr_Nhpyrrole>  (11) 
0

>  <fr_SH>  (11) 
0

>  <fr_aldehyde>  (11) 
0

>  <fr_alkyl_carbamate>  (11) 
0

>  <fr_alkyl_halide>  (11) 
0

>  <fr_allylic_oxid>  (11) 
0

>  <fr_amide>  (11) 
1

>  <fr_amidine>  (11) 
0

>  <fr_aniline>  (11) 
1

>  <fr_aryl_methyl>  (11) 
0

>  <fr_azide>  (11) 
0

>  <fr_azo>  (11) 
0

>  <fr_barbitur>  (11) 
0

>  <fr_benzene>  (11) 
1

>  <fr_benzodiazepine>  (11) 
0

>  <fr_bicyclic>  (11) 
0

>  <fr_diazo>  (11) 
0

>  <fr_dihydropyridine>  (11) 
0

>  <fr_epoxide>  (11) 
0

>  <fr_ester>  (11) 
0

>  <fr_ether>  (11) 
0

>  <fr_furan>  (11) 
0

>  <fr_guanido>  (11) 
0

>  <fr_halogen>  (11) 
0

>  <fr_hdrzine>  (11) 
0

>  <fr_hdrzone>  (11) 
0

>  <fr_imidazole>  (11) 
0

>  <fr_imide>  (11) 
0

>  <fr_isocyan>  (11) 
0

>  <fr_isothiocyan>  (11) 
0

>  <fr_ketone>  (11) 
0

>  <fr_ketone_Topliss>  (11) 
0

>  <fr_lactam>  (11) 
0

>  <fr_lactone>  (11) 
0

>  <fr_methoxy>  (11) 
0

>  <fr_morpholine>  (11) 
0

>  <fr_nitrile>  (11) 
0

>  <fr_nitro>  (11) 
0

>  <fr_nitro_arom>  (11) 
0

>  <fr_nitro_arom_nonortho>  (11) 
0

>  <fr_nitroso>  (11) 
0

>  <fr_oxazole>  (11) 
0

>  <fr_oxime>  (11) 
0

>  <fr_para_hydroxylation>  (11) 
0

>  <fr_phenol>  (11) 
0

>  <fr_phenol_noOrthoHbond>  (11) 
0

>  <fr_phos_acid>  (11) 
0

>  <fr_phos_ester>  (11) 
0

>  <fr_piperdine>  (11) 
0

>  <fr_piperzine>  (11) 
0

>  <fr_priamide>  (11) 
1

>  <fr_prisulfonamd>  (11) 
0

>  <fr_pyridine>  (11) 
0

>  <fr_quatN>  (11) 
0

>  <fr_sulfide>  (11) 
0

>  <fr_sulfonamd>  (11) 
0

>  <fr_sulfone>  (11) 
0

>  <fr_term_acetylene>  (11) 
0

>  <fr_tetrazole>  (11) 
0

>  <fr_thiazole>  (11) 
0

>  <fr_thiocyan>  (11) 
0

>  <fr_thiophene>  (11) 
0

>  <fr_unbrch_alkane>  (11) 
0

>  <fr_urea>  (11) 
0

>  <NP-Likeness>  (11) 
-1.068861

$$$$
3AE
     RDKit          3D

  0  0  0  0  0  0  0  0  0  0999 V3000
M  V30 BEGIN CTAB
M  V30 COUNTS 18 18 0 0 0
M  V30 BEGIN ATOM
M  V30 1 O 1.535806 -1.058464 4.450925 0
M  V30 2 C 0.591866 -0.984400 3.437810 0
M  V30 3 O -0.535692 -1.473342 3.780530 0
M  V30 4 C 0.850867 -0.409229 2.114275 0
M  V30 5 C 2.053158 0.128228 1.705355 0
M  V30 6 C 2.218105 0.651436 0.440581 0
M  V30 7 C 1.127327 0.623085 -0.423432 0
M  V30 8 C 1.324928 1.193231 -1.786264 0
M  V30 9 F 1.896231 2.434294 -1.738017 0
M  V30 10 F 0.104081 1.253365 -2.424278 0
M  V30 11 F 2.143287 0.366685 -2.558686 0
M  V30 12 C -0.097225 0.089010 -0.042827 0
M  V30 13 C -0.207591 -0.419871 1.230486 0
M  V30 14 H 1.249018 -1.003740 5.425261 0
M  V30 15 H 2.874463 0.119164 2.437613 0
M  V30 16 H 3.155948 1.062186 0.144513 0
M  V30 17 H -0.926215 0.087317 -0.752835 0
M  V30 18 H -1.170385 -0.835564 1.518444 0
M  V30 END ATOM
M  V30 BEGIN BOND
M  V30 1 1 1 2
M  V30 2 2 2 3
M  V30 3 1 2 4
M  V30 4 2 4 5
M  V30 5 1 5 6
M  V30 6 2 6 7
M  V30 7 1 7 8
M  V30 8 1 8 9
M  V30 9 1 8 10
M  V30 10 1 8 11
M  V30 11 1 7 12
M  V30 12 2 12 13
M  V30 13 1 13 4
M  V30 14 1 1 14
M  V30 15 1 5 15
M  V30 16 1 6 16
M  V30 17 1 12 17
M  V30 18 1 13 18
M  V30 END BOND
M  V30 END CTAB
M  END
>  <Dataset>  (12) 
PDB

>  <Ligand_Instance>  (12) 
6SPM_3AE_A_401

>  <PDB_ID>  (12) 
6SPM

>  <Standardized_SMILES>  (12) 
[H]OC(=O)C1=C([H])C([H])=C(C(F)(F)F)C([H])=C1[H]

>  <Name>  (12) 
4-(trifluoromethyl)benzoic acid

>  <Pocket>  (12) 
A

>  <ATP_Site>  (12) 
1.0

>  <Peripheral>  (12) 
0.0

>  <Num_H_Atoms_ProtBoundConf>  (12) 
5.0

>  <Num_Resolved_Atoms>  (12) 
13.0

>  <Num_Not_Resolved_Atoms>  (12) 
0.0

>  <2D_Mol_H>  (12) 
<rdkit.Chem.rdchem.Mol object at 0x72a238db7140>

>  <MW>  (12) 
190.12

>  <HBA>  (12) 
2

>  <HBD>  (12) 
1

>  <LogP>  (12) 
2.4036

>  <NRB>  (12) 
1

>  <TPSA>  (12) 
37.3

>  <Num_Heavy_Atoms>  (12) 
13

>  <Ro5>  (12) 
[True, True, True, True, True, True]

>  <Ro5_Fulfilled>  (12) 
True

>  <Ro3>  (12) 
[True, True, True, True]

>  <Ro3_Fulfilled>  (12) 
True

>  <Fsp3>  (12) 
0.125

>  <Fsp3_0.42>  (12) 
False

>  <Fsp3_0.45>  (12) 
False

>  <Stereogenic_Carbons>  (12) 
0

>  <C_Atoms>  (12) 
8

>  <FCStereo>  (12) 
0.0

>  <SPS>  (12) 
147

>  <nSPS>  (12) 
11.307692

>  <PBF>  (12) 
0.189025

>  <PBF_0.6>  (12) 
False

>  <nPBF>  (12) 
0.01454

>  <nPBF_0.016>  (12) 
False

>  <PMI1>  (12) 
223.351576

>  <PMI2>  (12) 
1361.191312

>  <PMI3>  (12) 
1489.399964

>  <NPR1>  (12) 
0.149961

>  <NPR2>  (12) 
0.913919

>  <Sum_NPR>  (12) 
1.06388

>  <Sum_NPR_1.07>  (12) 
False

>  <Sum_NPR_1.2>  (12) 
False

>  <MaxAbsEStateIndex>  (12) 
11.973256

>  <MaxEStateIndex>  (12) 
11.973256

>  <MinAbsEStateIndex>  (12) 
0.159259

>  <MinEStateIndex>  (12) 
-4.41961

>  <qed>  (12) 
0.737706

>  <MolWt>  (12) 
190.12

>  <HeavyAtomMolWt>  (12) 
185.08

>  <ExactMolWt>  (12) 
190.024164

>  <NumValenceElectrons>  (12) 
70

>  <NumRadicalElectrons>  (12) 
0

>  <MaxPartialCharge>  (12) 
0.41591

>  <MinPartialCharge>  (12) 
-0.477639

>  <MaxAbsPartialCharge>  (12) 
0.477639

>  <MinAbsPartialCharge>  (12) 
0.41591

>  <FpDensityMorgan1>  (12) 
1.153846

>  <FpDensityMorgan2>  (12) 
1.615385

>  <FpDensityMorgan3>  (12) 
1.923077

>  <BCUT2D_MWHI>  (12) 
19.41317

>  <BCUT2D_MWLOW>  (12) 
10.129826

>  <BCUT2D_CHGHI>  (12) 
2.295922

>  <BCUT2D_CHGLO>  (12) 
-2.049932

>  <BCUT2D_LOGPHI>  (12) 
2.284355

>  <BCUT2D_LOGPLOW>  (12) 
-2.051094

>  <BCUT2D_MRHI>  (12) 
5.870261

>  <BCUT2D_MRLOW>  (12) 
-0.137148

>  <AvgIpc>  (12) 
2.028259

>  <BalabanJ>  (12) 
3.008741

>  <BertzCT>  (12) 
313.156178

>  <Chi0>  (12) 
10.060478

>  <Chi0n>  (12) 
6.298756

>  <Chi0v>  (12) 
6.298756

>  <Chi1>  (12) 
5.909702

>  <Chi1n>  (12) 
3.316045

>  <Chi1v>  (12) 
3.316045

>  <Chi2n>  (12) 
2.380262

>  <Chi2v>  (12) 
2.380262

>  <Chi3n>  (12) 
1.459178

>  <Chi3v>  (12) 
1.459178

>  <Chi4n>  (12) 
0.801787

>  <Chi4v>  (12) 
0.801787

>  <HallKierAlpha>  (12) 
-1.52

>  <Ipc>  (12) 
608.477849

>  <Kappa1>  (12) 
9.567108

>  <Kappa2>  (12) 
3.082443

>  <Kappa3>  (12) 
2.206729

>  <LabuteASA>  (12) 
71.613649

>  <PEOE_VSA1>  (12) 
5.106527

>  <PEOE_VSA10>  (12) 
0.0

>  <PEOE_VSA11>  (12) 
0.0

>  <PEOE_VSA12>  (12) 
0.0

>  <PEOE_VSA13>  (12) 
0.0

>  <PEOE_VSA14>  (12) 
12.145604

>  <PEOE_VSA2>  (12) 
0.0

>  <PEOE_VSA3>  (12) 
4.794537

>  <PEOE_VSA4>  (12) 
13.171245

>  <PEOE_VSA5>  (12) 
0.0

>  <PEOE_VSA6>  (12) 
0.0

>  <PEOE_VSA7>  (12) 
24.265468

>  <PEOE_VSA8>  (12) 
0.0

>  <PEOE_VSA9>  (12) 
11.126903

>  <SMR_VSA1>  (12) 
23.07231

>  <SMR_VSA10>  (12) 
5.969305

>  <SMR_VSA2>  (12) 
0.0

>  <SMR_VSA3>  (12) 
0.0

>  <SMR_VSA4>  (12) 
0.0

>  <SMR_VSA5>  (12) 
6.176299

>  <SMR_VSA6>  (12) 
0.0

>  <SMR_VSA7>  (12) 
35.392371

>  <SMR_VSA8>  (12) 
0.0

>  <SMR_VSA9>  (12) 
0.0

>  <SlogP_VSA1>  (12) 
0.0

>  <SlogP_VSA10>  (12) 
13.171245

>  <SlogP_VSA11>  (12) 
0.0

>  <SlogP_VSA12>  (12) 
0.0

>  <SlogP_VSA2>  (12) 
11.075833

>  <SlogP_VSA3>  (12) 
6.176299

>  <SlogP_VSA4>  (12) 
0.0

>  <SlogP_VSA5>  (12) 
15.92144

>  <SlogP_VSA6>  (12) 
24.265468

>  <SlogP_VSA7>  (12) 
0.0

>  <SlogP_VSA8>  (12) 
0.0

>  <SlogP_VSA9>  (12) 
0.0

>  <EState_VSA1>  (12) 
17.709055

>  <EState_VSA10>  (12) 
17.965782

>  <EState_VSA11>  (12) 
0.0

>  <EState_VSA2>  (12) 
5.563451

>  <EState_VSA3>  (12) 
0.0

>  <EState_VSA4>  (12) 
24.265468

>  <EState_VSA5>  (12) 
0.0

>  <EState_VSA6>  (12) 
0.0

>  <EState_VSA7>  (12) 
0.0

>  <EState_VSA8>  (12) 
0.0

>  <EState_VSA9>  (12) 
5.106527

>  <VSA_EState1>  (12) 
35.919769

>  <VSA_EState10>  (12) 
0.0

>  <VSA_EState2>  (12) 
10.280657

>  <VSA_EState3>  (12) 
8.397263

>  <VSA_EState4>  (12) 
-1.008796

>  <VSA_EState5>  (12) 
-1.241922

>  <VSA_EState6>  (12) 
3.322639

>  <VSA_EState7>  (12) 
-4.41961

>  <VSA_EState8>  (12) 
0.0

>  <VSA_EState9>  (12) 
0.0

>  <FractionCSP3>  (12) 
0.125

>  <HeavyAtomCount>  (12) 
13

>  <NHOHCount>  (12) 
1

>  <NOCount>  (12) 
2

>  <NumAliphaticCarbocycles>  (12) 
0

>  <NumAliphaticHeterocycles>  (12) 
0

>  <NumAliphaticRings>  (12) 
0

>  <NumAromaticCarbocycles>  (12) 
1

>  <NumAromaticHeterocycles>  (12) 
0

>  <NAR>  (12) 
1

>  <NumHAcceptors>  (12) 
1

>  <NumHDonors>  (12) 
1

>  <NumHeteroatoms>  (12) 
5

>  <NumRotatableBonds>  (12) 
1

>  <NumSaturatedCarbocycles>  (12) 
0

>  <NumSaturatedHeterocycles>  (12) 
0

>  <NumSaturatedRings>  (12) 
0

>  <RingCount>  (12) 
1

>  <MolLogP>  (12) 
2.4036

>  <MolMR>  (12) 
38.4033

>  <fr_Al_COO>  (12) 
0

>  <fr_Al_OH>  (12) 
0

>  <fr_Al_OH_noTert>  (12) 
0

>  <fr_ArN>  (12) 
0

>  <fr_Ar_COO>  (12) 
1

>  <fr_Ar_N>  (12) 
0

>  <fr_Ar_NH>  (12) 
0

>  <fr_Ar_OH>  (12) 
0

>  <fr_COO>  (12) 
1

>  <fr_COO2>  (12) 
1

>  <fr_C_O>  (12) 
1

>  <fr_C_O_noCOO>  (12) 
0

>  <fr_C_S>  (12) 
0

>  <fr_HOCCN>  (12) 
0

>  <fr_Imine>  (12) 
0

>  <fr_NH0>  (12) 
0

>  <fr_NH1>  (12) 
0

>  <fr_NH2>  (12) 
0

>  <fr_N_O>  (12) 
0

>  <fr_Ndealkylation1>  (12) 
0

>  <fr_Ndealkylation2>  (12) 
0

>  <fr_Nhpyrrole>  (12) 
0

>  <fr_SH>  (12) 
0

>  <fr_aldehyde>  (12) 
0

>  <fr_alkyl_carbamate>  (12) 
0

>  <fr_alkyl_halide>  (12) 
3

>  <fr_allylic_oxid>  (12) 
0

>  <fr_amide>  (12) 
0

>  <fr_amidine>  (12) 
0

>  <fr_aniline>  (12) 
0

>  <fr_aryl_methyl>  (12) 
0

>  <fr_azide>  (12) 
0

>  <fr_azo>  (12) 
0

>  <fr_barbitur>  (12) 
0

>  <fr_benzene>  (12) 
1

>  <fr_benzodiazepine>  (12) 
0

>  <fr_bicyclic>  (12) 
0

>  <fr_diazo>  (12) 
0

>  <fr_dihydropyridine>  (12) 
0

>  <fr_epoxide>  (12) 
0

>  <fr_ester>  (12) 
0

>  <fr_ether>  (12) 
0

>  <fr_furan>  (12) 
0

>  <fr_guanido>  (12) 
0

>  <fr_halogen>  (12) 
3

>  <fr_hdrzine>  (12) 
0

>  <fr_hdrzone>  (12) 
0

>  <fr_imidazole>  (12) 
0

>  <fr_imide>  (12) 
0

>  <fr_isocyan>  (12) 
0

>  <fr_isothiocyan>  (12) 
0

>  <fr_ketone>  (12) 
0

>  <fr_ketone_Topliss>  (12) 
0

>  <fr_lactam>  (12) 
0

>  <fr_lactone>  (12) 
0

>  <fr_methoxy>  (12) 
0

>  <fr_morpholine>  (12) 
0

>  <fr_nitrile>  (12) 
0

>  <fr_nitro>  (12) 
0

>  <fr_nitro_arom>  (12) 
0

>  <fr_nitro_arom_nonortho>  (12) 
0

>  <fr_nitroso>  (12) 
0

>  <fr_oxazole>  (12) 
0

>  <fr_oxime>  (12) 
0

>  <fr_para_hydroxylation>  (12) 
0

>  <fr_phenol>  (12) 
0

>  <fr_phenol_noOrthoHbond>  (12) 
0

>  <fr_phos_acid>  (12) 
0

>  <fr_phos_ester>  (12) 
0

>  <fr_piperdine>  (12) 
0

>  <fr_piperzine>  (12) 
0

>  <fr_priamide>  (12) 
0

>  <fr_prisulfonamd>  (12) 
0

>  <fr_pyridine>  (12) 
0

>  <fr_quatN>  (12) 
0

>  <fr_sulfide>  (12) 
0

>  <fr_sulfonamd>  (12) 
0

>  <fr_sulfone>  (12) 
0

>  <fr_term_acetylene>  (12) 
0

>  <fr_tetrazole>  (12) 
0

>  <fr_thiazole>  (12) 
0

>  <fr_thiocyan>  (12) 
0

>  <fr_thiophene>  (12) 
0

>  <fr_unbrch_alkane>  (12) 
0

>  <fr_urea>  (12) 
0

>  <NP-Likeness>  (12) 
-0.83681

$$$$
3SB
     RDKit          3D

  0  0  0  0  0  0  0  0  0  0999 V3000
M  V30 BEGIN CTAB
M  V30 COUNTS 40 41 0 0 0
M  V30 BEGIN ATOM
M  V30 1 O -1.022635 -7.300406 1.981001 0
M  V30 2 C -0.809756 -5.969289 1.602842 0
M  V30 3 C 0.034246 -5.659935 0.554852 0
M  V30 4 C 0.199834 -4.315830 0.232611 0
M  V30 5 O 1.037241 -3.999511 -0.807913 0
M  V30 6 C -0.490021 -3.384936 0.981510 0
M  V30 7 C -0.300315 -1.968656 0.622229 0
M  V30 8 N 0.489612 -1.658139 -0.360992 0
M  V30 9 N 0.690059 -0.302036 -0.727796 0
M  V30 10 C 1.706825 0.631527 -0.310531 0
M  V30 11 O 2.439438 -0.020891 0.498373 0
M  V30 12 C 1.601161 1.964308 -0.902174 0 CFG=2
M  V30 13 C 1.474072 2.989421 0.166301 0
M  V30 14 C 1.200229 4.310317 -0.203014 0
M  V30 15 C 1.065481 5.324704 0.728836 0
M  V30 16 C 1.197496 5.068728 2.070637 0
M  V30 17 C 1.465230 3.781453 2.442742 0
M  V30 18 C 1.596696 2.783576 1.508023 0
M  V30 19 N 0.512356 2.139478 -1.829929 0 CHG=1 VAL=4
M  V30 20 C -1.336605 -3.673689 2.030785 0
M  V30 21 C -2.029474 -2.595481 2.770323 0
M  V30 22 C -1.486575 -5.020681 2.334407 0
M  V30 23 H -1.637921 -7.848054 1.370322 0
M  V30 24 H 0.520362 -6.465424 0.040590 0
M  V30 25 H 2.039142 -3.937829 -0.616407 0
M  V30 26 H -0.795480 -1.164540 1.146775 0
M  V30 27 H -0.121781 -0.159256 -1.400478 0
M  V30 28 H 2.540421 2.241011 -1.461784 0
M  V30 29 H 1.073777 4.645329 -1.222436 0
M  V30 30 H 0.852891 6.352632 0.449981 0
M  V30 31 H 1.101619 5.818761 2.818154 0
M  V30 32 H 1.582179 3.513088 3.504438 0
M  V30 33 H 1.807491 1.780218 1.836264 0
M  V30 34 H 0.715189 3.008135 -2.373420 0
M  V30 35 H 0.570499 1.363926 -2.557167 0
M  V30 36 H -0.418566 2.235871 -1.416379 0
M  V30 37 H -2.592357 -3.100072 3.601230 0
M  V30 38 H -2.781135 -2.069316 2.167635 0
M  V30 39 H -1.348978 -1.893836 3.288393 0
M  V30 40 H -2.138467 -5.293121 3.146994 0
M  V30 END ATOM
M  V30 BEGIN BOND
M  V30 1 1 1 2
M  V30 2 2 2 3
M  V30 3 1 3 4
M  V30 4 1 4 5
M  V30 5 2 4 6
M  V30 6 1 6 7
M  V30 7 2 7 8
M  V30 8 1 8 9
M  V30 9 1 9 10
M  V30 10 2 10 11
M  V30 11 1 10 12
M  V30 12 1 12 13
M  V30 13 2 13 14
M  V30 14 1 14 15
M  V30 15 2 15 16
M  V30 16 1 16 17
M  V30 17 2 17 18
M  V30 18 1 12 19
M  V30 19 1 6 20
M  V30 20 1 20 21
M  V30 21 2 20 22
M  V30 22 1 22 2
M  V30 23 1 18 13
M  V30 24 1 1 23
M  V30 25 1 3 24
M  V30 26 1 5 25
M  V30 27 1 7 26
M  V30 28 1 9 27
M  V30 29 1 12 28 CFG=3
M  V30 30 1 14 29
M  V30 31 1 15 30
M  V30 32 1 16 31
M  V30 33 1 17 32
M  V30 34 1 18 33
M  V30 35 1 19 34
M  V30 36 1 19 35
M  V30 37 1 19 36
M  V30 38 1 21 37
M  V30 39 1 21 38
M  V30 40 1 21 39
M  V30 41 1 22 40
M  V30 END BOND
M  V30 END CTAB
M  END
>  <Dataset>  (13) 
PDB

>  <Ligand_Instance>  (13) 
3OXT_3SB_A_2001

>  <PDB_ID>  (13) 
3OXT

>  <Standardized_SMILES>  (13) 
[H]OC1=C([H])C(O[H])=C(/C([H])=N/N([H])C(=O)[C@]([H])(C2=C([H])C([H])=C([H])C([H])=C2[H])[N+]([H])([H])[H])C(C([H])([H])[H])=C1[H]

>  <Name>  (13) 
(2S)-2-amino-N'-[(1E)-(2,4-dihydroxy-6-methylphenyl)methylidene]-2-phenylethanehydrazide

>  <Pocket>  (13) 
A

>  <ATP_Site>  (13) 
1.0

>  <Peripheral>  (13) 
0.0

>  <Num_H_Atoms_ProtBoundConf>  (13) 
18.0

>  <Num_Resolved_Atoms>  (13) 
22.0

>  <Num_Not_Resolved_Atoms>  (13) 
0.0

>  <2D_Mol_H>  (13) 
<rdkit.Chem.rdchem.Mol object at 0x72a238db7220>

>  <MW>  (13) 
300.338

>  <HBA>  (13) 
4

>  <HBD>  (13) 
4

>  <LogP>  (13) 
0.83952

>  <NRB>  (13) 
8

>  <TPSA>  (13) 
109.56

>  <Num_Heavy_Atoms>  (13) 
22

>  <Ro5>  (13) 
[True, True, True, True, True, True]

>  <Ro5_Fulfilled>  (13) 
True

>  <Ro3>  (13) 
[False, False, False, True]

>  <Ro3_Fulfilled>  (13) 
False

>  <Fsp3>  (13) 
0.125

>  <Fsp3_0.42>  (13) 
False

>  <Fsp3_0.45>  (13) 
False

>  <Stereogenic_Carbons>  (13) 
1

>  <C_Atoms>  (13) 
16

>  <FCStereo>  (13) 
0.0625

>  <SPS>  (13) 
270

>  <nSPS>  (13) 
12.272727

>  <PBF>  (13) 
0.766536

>  <PBF_0.6>  (13) 
True

>  <nPBF>  (13) 
0.034843

>  <nPBF_0.016>  (13) 
True

>  <PMI1>  (13) 
715.308933

>  <PMI2>  (13) 
4769.462936

>  <PMI3>  (13) 
5171.016214

>  <NPR1>  (13) 
0.13833

>  <NPR2>  (13) 
0.922345

>  <Sum_NPR>  (13) 
1.060676

>  <Sum_NPR_1.07>  (13) 
False

>  <Sum_NPR_1.2>  (13) 
False

>  <MaxAbsEStateIndex>  (13) 
11.967794

>  <MaxEStateIndex>  (13) 
11.967794

>  <MinAbsEStateIndex>  (13) 
0.029551

>  <MinEStateIndex>  (13) 
-0.576054

>  <qed>  (13) 
0.495856

>  <MolWt>  (13) 
300.338

>  <HeavyAtomMolWt>  (13) 
282.194

>  <ExactMolWt>  (13) 
300.134268

>  <NumValenceElectrons>  (13) 
114

>  <NumRadicalElectrons>  (13) 
0

>  <MaxPartialCharge>  (13) 
0.302519

>  <MinPartialCharge>  (13) 
-0.507812

>  <MaxAbsPartialCharge>  (13) 
0.507812

>  <MinAbsPartialCharge>  (13) 
0.302519

>  <FpDensityMorgan1>  (13) 
1.272727

>  <FpDensityMorgan2>  (13) 
1.954545

>  <FpDensityMorgan3>  (13) 
2.590909

>  <BCUT2D_MWHI>  (13) 
16.266835

>  <BCUT2D_MWLOW>  (13) 
10.08228

>  <BCUT2D_CHGHI>  (13) 
2.180417

>  <BCUT2D_CHGLO>  (13) 
-2.070748

>  <BCUT2D_LOGPHI>  (13) 
2.244888

>  <BCUT2D_LOGPLOW>  (13) 
-2.591506

>  <BCUT2D_MRHI>  (13) 
5.876439

>  <BCUT2D_MRLOW>  (13) 
-0.409347

>  <AvgIpc>  (13) 
2.493746

>  <BalabanJ>  (13) 
2.052255

>  <BertzCT>  (13) 
676.032261

>  <Chi0>  (13) 
16.11252

>  <Chi0n>  (13) 
12.153148

>  <Chi0v>  (13) 
12.153148

>  <Chi1>  (13) 
10.486071

>  <Chi1n>  (13) 
6.722801

>  <Chi1v>  (13) 
6.722801

>  <Chi2n>  (13) 
4.892991

>  <Chi2v>  (13) 
4.892991

>  <Chi3n>  (13) 
3.236608

>  <Chi3v>  (13) 
3.236608

>  <Chi4n>  (13) 
2.00412

>  <Chi4v>  (13) 
2.00412

>  <HallKierAlpha>  (13) 
-2.86

>  <Ipc>  (13) 
80737.512781

>  <Kappa1>  (13) 
15.527358

>  <Kappa2>  (13) 
6.729933

>  <Kappa3>  (13) 
3.615883

>  <LabuteASA>  (13) 
127.453467

>  <PEOE_VSA1>  (13) 
15.946722

>  <PEOE_VSA10>  (13) 
11.499024

>  <PEOE_VSA11>  (13) 
6.041841

>  <PEOE_VSA12>  (13) 
0.0

>  <PEOE_VSA13>  (13) 
0.0

>  <PEOE_VSA14>  (13) 
5.90718

>  <PEOE_VSA2>  (13) 
4.794537

>  <PEOE_VSA3>  (13) 
5.425791

>  <PEOE_VSA4>  (13) 
5.101408

>  <PEOE_VSA5>  (13) 
0.0

>  <PEOE_VSA6>  (13) 
30.331835

>  <PEOE_VSA7>  (13) 
18.553556

>  <PEOE_VSA8>  (13) 
17.19327

>  <PEOE_VSA9>  (13) 
6.214601

>  <SMR_VSA1>  (13) 
20.741259

>  <SMR_VSA10>  (13) 
12.12178

>  <SMR_VSA2>  (13) 
0.0

>  <SMR_VSA3>  (13) 
5.425791

>  <SMR_VSA4>  (13) 
5.101408

>  <SMR_VSA5>  (13) 
12.965578

>  <SMR_VSA6>  (13) 
0.0

>  <SMR_VSA7>  (13) 
59.154924

>  <SMR_VSA8>  (13) 
0.0

>  <SMR_VSA9>  (13) 
11.499024

>  <SlogP_VSA1>  (13) 
11.159459

>  <SlogP_VSA10>  (13) 
0.0

>  <SlogP_VSA11>  (13) 
11.499024

>  <SlogP_VSA12>  (13) 
0.0

>  <SlogP_VSA2>  (13) 
22.334835

>  <SlogP_VSA3>  (13) 
4.794537

>  <SlogP_VSA4>  (13) 
6.923737

>  <SlogP_VSA5>  (13) 
22.732195

>  <SlogP_VSA6>  (13) 
47.565977

>  <SlogP_VSA7>  (13) 
0.0

>  <SlogP_VSA8>  (13) 
0.0

>  <SlogP_VSA9>  (13) 
0.0

>  <EState_VSA1>  (13) 
6.041841

>  <EState_VSA10>  (13) 
15.007592

>  <EState_VSA11>  (13) 
0.0

>  <EState_VSA2>  (13) 
17.406203

>  <EState_VSA3>  (13) 
11.126903

>  <EState_VSA4>  (13) 
5.563451

>  <EState_VSA5>  (13) 
18.347335

>  <EState_VSA6>  (13) 
6.923737

>  <EState_VSA7>  (13) 
30.331835

>  <EState_VSA8>  (13) 
16.260866

>  <EState_VSA9>  (13) 
0.0

>  <VSA_EState1>  (13) 
0.0

>  <VSA_EState10>  (13) 
0.0

>  <VSA_EState2>  (13) 
11.967794

>  <VSA_EState3>  (13) 
22.929893

>  <VSA_EState4>  (13) 
8.068012

>  <VSA_EState5>  (13) 
-0.485011

>  <VSA_EState6>  (13) 
11.300578

>  <VSA_EState7>  (13) 
1.333056

>  <VSA_EState8>  (13) 
1.719012

>  <VSA_EState9>  (13) 
0.0

>  <FractionCSP3>  (13) 
0.125

>  <HeavyAtomCount>  (13) 
22

>  <NHOHCount>  (13) 
6

>  <NOCount>  (13) 
6

>  <NumAliphaticCarbocycles>  (13) 
0

>  <NumAliphaticHeterocycles>  (13) 
0

>  <NumAliphaticRings>  (13) 
0

>  <NumAromaticCarbocycles>  (13) 
2

>  <NumAromaticHeterocycles>  (13) 
0

>  <NAR>  (13) 
2

>  <NumHAcceptors>  (13) 
4

>  <NumHDonors>  (13) 
4

>  <NumHeteroatoms>  (13) 
6

>  <NumRotatableBonds>  (13) 
4

>  <NumSaturatedCarbocycles>  (13) 
0

>  <NumSaturatedHeterocycles>  (13) 
0

>  <NumSaturatedRings>  (13) 
0

>  <RingCount>  (13) 
2

>  <MolLogP>  (13) 
0.83952

>  <MolMR>  (13) 
82.3164

>  <fr_Al_COO>  (13) 
0

>  <fr_Al_OH>  (13) 
0

>  <fr_Al_OH_noTert>  (13) 
0

>  <fr_ArN>  (13) 
0

>  <fr_Ar_COO>  (13) 
0

>  <fr_Ar_N>  (13) 
0

>  <fr_Ar_NH>  (13) 
0

>  <fr_Ar_OH>  (13) 
2

>  <fr_COO>  (13) 
0

>  <fr_COO2>  (13) 
0

>  <fr_C_O>  (13) 
1

>  <fr_C_O_noCOO>  (13) 
1

>  <fr_C_S>  (13) 
0

>  <fr_HOCCN>  (13) 
0

>  <fr_Imine>  (13) 
0

>  <fr_NH0>  (13) 
1

>  <fr_NH1>  (13) 
1

>  <fr_NH2>  (13) 
0

>  <fr_N_O>  (13) 
0

>  <fr_Ndealkylation1>  (13) 
0

>  <fr_Ndealkylation2>  (13) 
0

>  <fr_Nhpyrrole>  (13) 
0

>  <fr_SH>  (13) 
0

>  <fr_aldehyde>  (13) 
0

>  <fr_alkyl_carbamate>  (13) 
0

>  <fr_alkyl_halide>  (13) 
0

>  <fr_allylic_oxid>  (13) 
0

>  <fr_amide>  (13) 
1

>  <fr_amidine>  (13) 
0

>  <fr_aniline>  (13) 
0

>  <fr_aryl_methyl>  (13) 
1

>  <fr_azide>  (13) 
0

>  <fr_azo>  (13) 
0

>  <fr_barbitur>  (13) 
0

>  <fr_benzene>  (13) 
2

>  <fr_benzodiazepine>  (13) 
0

>  <fr_bicyclic>  (13) 
0

>  <fr_diazo>  (13) 
0

>  <fr_dihydropyridine>  (13) 
0

>  <fr_epoxide>  (13) 
0

>  <fr_ester>  (13) 
0

>  <fr_ether>  (13) 
0

>  <fr_furan>  (13) 
0

>  <fr_guanido>  (13) 
0

>  <fr_halogen>  (13) 
0

>  <fr_hdrzine>  (13) 
0

>  <fr_hdrzone>  (13) 
1

>  <fr_imidazole>  (13) 
0

>  <fr_imide>  (13) 
0

>  <fr_isocyan>  (13) 
0

>  <fr_isothiocyan>  (13) 
0

>  <fr_ketone>  (13) 
0

>  <fr_ketone_Topliss>  (13) 
0

>  <fr_lactam>  (13) 
0

>  <fr_lactone>  (13) 
0

>  <fr_methoxy>  (13) 
0

>  <fr_morpholine>  (13) 
0

>  <fr_nitrile>  (13) 
0

>  <fr_nitro>  (13) 
0

>  <fr_nitro_arom>  (13) 
0

>  <fr_nitro_arom_nonortho>  (13) 
0

>  <fr_nitroso>  (13) 
0

>  <fr_oxazole>  (13) 
0

>  <fr_oxime>  (13) 
0

>  <fr_para_hydroxylation>  (13) 
0

>  <fr_phenol>  (13) 
2

>  <fr_phenol_noOrthoHbond>  (13) 
2

>  <fr_phos_acid>  (13) 
0

>  <fr_phos_ester>  (13) 
0

>  <fr_piperdine>  (13) 
0

>  <fr_piperzine>  (13) 
0

>  <fr_priamide>  (13) 
0

>  <fr_prisulfonamd>  (13) 
0

>  <fr_pyridine>  (13) 
0

>  <fr_quatN>  (13) 
1

>  <fr_sulfide>  (13) 
0

>  <fr_sulfonamd>  (13) 
0

>  <fr_sulfone>  (13) 
0

>  <fr_term_acetylene>  (13) 
0

>  <fr_tetrazole>  (13) 
0

>  <fr_thiazole>  (13) 
0

>  <fr_thiocyan>  (13) 
0

>  <fr_thiophene>  (13) 
0

>  <fr_unbrch_alkane>  (13) 
0

>  <fr_urea>  (13) 
0

>  <NP-Likeness>  (13) 
-0.329096

$$$$
463
     RDKit          3D

  0  0  0  0  0  0  0  0  0  0999 V3000
M  V30 BEGIN CTAB
M  V30 COUNTS 25 25 0 0 0
M  V30 BEGIN ATOM
M  V30 1 C -0.976045 0.970419 2.703778 0
M  V30 2 C 0.004463 0.173700 3.250547 0
M  V30 3 C 0.698050 -0.637106 2.394742 0
M  V30 4 C 1.767592 -1.516254 2.940463 0
M  V30 5 N 3.022981 -0.787799 2.910381 0 CHG=1 VAL=4
M  V30 6 C 0.403776 -0.632228 1.053364 0
M  V30 7 C -0.566159 0.149355 0.479638 0
M  V30 8 N -0.919948 0.203656 -0.889551 0
M  V30 9 C -0.371709 -0.517869 -1.971597 0
M  V30 10 O 0.544341 -1.326625 -1.784841 0
M  V30 11 C -0.815861 -0.388308 -3.382028 0
M  V30 12 C -1.254199 0.958664 1.353663 0
M  V30 13 H -1.566049 1.637388 3.317416 0
M  V30 14 H 0.182999 0.220875 4.316301 0
M  V30 15 H 1.870085 -2.443024 2.363886 0
M  V30 16 H 1.560154 -1.742054 4.001168 0
M  V30 17 H 2.964956 0.075228 3.491461 0
M  V30 18 H 3.767456 -1.381577 3.351810 0
M  V30 19 H 3.283890 -0.592161 1.922307 0
M  V30 20 H 0.976972 -1.282564 0.445282 0
M  V30 21 H -1.680208 0.842129 -1.209150 0
M  V30 22 H -1.558226 0.444275 -3.467873 0
M  V30 23 H -1.296321 -1.325326 -3.746721 0
M  V30 24 H 0.091255 -0.123669 -3.984982 0
M  V30 25 H -2.048795 1.616242 0.970501 0
M  V30 END ATOM
M  V30 BEGIN BOND
M  V30 1 2 1 2
M  V30 2 1 2 3
M  V30 3 1 3 4
M  V30 4 1 4 5
M  V30 5 2 3 6
M  V30 6 1 6 7
M  V30 7 1 7 8
M  V30 8 1 8 9
M  V30 9 2 9 10
M  V30 10 1 9 11
M  V30 11 2 7 12
M  V30 12 1 12 1
M  V30 13 1 1 13
M  V30 14 1 2 14
M  V30 15 1 4 15
M  V30 16 1 4 16
M  V30 17 1 5 17
M  V30 18 1 5 18
M  V30 19 1 5 19
M  V30 20 1 6 20
M  V30 21 1 8 21
M  V30 22 1 11 22
M  V30 23 1 11 23
M  V30 24 1 11 24
M  V30 25 1 12 25
M  V30 END BOND
M  V30 END CTAB
M  END
>  <Dataset>  (14) 
PDB

>  <Ligand_Instance>  (14) 
5N3F_463_A_403

>  <PDB_ID>  (14) 
5N3F

>  <Standardized_SMILES>  (14) 
[H]C1=C([H])C(C([H])([H])[N+]([H])([H])[H])=C([H])C(N([H])C(=O)C([H])([H])[H])=C1[H]

>  <Name>  (14) 
N-[3-(aminomethyl)phenyl]acetamide

>  <Pocket>  (14) 
A

>  <ATP_Site>  (14) 
1.0

>  <Peripheral>  (14) 
1.0

>  <Num_H_Atoms_ProtBoundConf>  (14) 
13.0

>  <Num_Resolved_Atoms>  (14) 
12.0

>  <Num_Not_Resolved_Atoms>  (14) 
0.0

>  <2D_Mol_H>  (14) 
<rdkit.Chem.rdchem.Mol object at 0x72a238db7300>

>  <MW>  (14) 
165.216

>  <HBA>  (14) 
1

>  <HBD>  (14) 
2

>  <LogP>  (14) 
0.3869

>  <NRB>  (14) 
4

>  <TPSA>  (14) 
56.74

>  <Num_Heavy_Atoms>  (14) 
12

>  <Ro5>  (14) 
[True, True, True, True, True, True]

>  <Ro5_Fulfilled>  (14) 
True

>  <Ro3>  (14) 
[True, True, True, True]

>  <Ro3_Fulfilled>  (14) 
True

>  <Fsp3>  (14) 
0.222222

>  <Fsp3_0.42>  (14) 
False

>  <Fsp3_0.45>  (14) 
False

>  <Stereogenic_Carbons>  (14) 
0

>  <C_Atoms>  (14) 
9

>  <FCStereo>  (14) 
0.0

>  <SPS>  (14) 
114

>  <nSPS>  (14) 
9.5

>  <PBF>  (14) 
0.455572

>  <PBF_0.6>  (14) 
False

>  <nPBF>  (14) 
0.037964

>  <nPBF_0.016>  (14) 
True

>  <PMI1>  (14) 
314.853552

>  <PMI2>  (14) 
928.918583

>  <PMI3>  (14) 
1198.711057

>  <NPR1>  (14) 
0.26266

>  <NPR2>  (14) 
0.774931

>  <Sum_NPR>  (14) 
1.037591

>  <Sum_NPR_1.07>  (14) 
False

>  <Sum_NPR_1.2>  (14) 
False

>  <MaxAbsEStateIndex>  (14) 
10.686045

>  <MaxEStateIndex>  (14) 
10.686045

>  <MinAbsEStateIndex>  (14) 
0.045174

>  <MinEStateIndex>  (14) 
-0.045174

>  <qed>  (14) 
0.653914

>  <MolWt>  (14) 
165.216

>  <HeavyAtomMolWt>  (14) 
152.112

>  <ExactMolWt>  (14) 
165.102239

>  <NumValenceElectrons>  (14) 
64

>  <NumRadicalElectrons>  (14) 
0

>  <MaxPartialCharge>  (14) 
0.220748

>  <MinPartialCharge>  (14) 
-0.353807

>  <MaxAbsPartialCharge>  (14) 
0.353807

>  <MinAbsPartialCharge>  (14) 
0.220748

>  <FpDensityMorgan1>  (14) 
1.583333

>  <FpDensityMorgan2>  (14) 
2.333333

>  <FpDensityMorgan3>  (14) 
2.916667

>  <BCUT2D_MWHI>  (14) 
16.148144

>  <BCUT2D_MWLOW>  (14) 
10.177035

>  <BCUT2D_CHGHI>  (14) 
1.957878

>  <BCUT2D_CHGLO>  (14) 
-2.015361

>  <BCUT2D_LOGPHI>  (14) 
2.085038

>  <BCUT2D_LOGPLOW>  (14) 
-2.469692

>  <BCUT2D_MRHI>  (14) 
5.881386

>  <BCUT2D_MRLOW>  (14) 
-0.385962

>  <AvgIpc>  (14) 
2.03486

>  <BalabanJ>  (14) 
2.790011

>  <BertzCT>  (14) 
283.611954

>  <Chi0>  (14) 
8.974691

>  <Chi0n>  (14) 
7.131863

>  <Chi0v>  (14) 
7.131863

>  <Chi1>  (14) 
5.719545

>  <Chi1n>  (14) 
3.879045

>  <Chi1v>  (14) 
3.879045

>  <Chi2n>  (14) 
2.631564

>  <Chi2v>  (14) 
2.631564

>  <Chi3n>  (14) 
1.536026

>  <Chi3v>  (14) 
1.536026

>  <Chi4n>  (14) 
1.007855

>  <Chi4v>  (14) 
1.007855

>  <HallKierAlpha>  (14) 
-1.35

>  <Ipc>  (14) 
506.680044

>  <Kappa1>  (14) 
8.743897

>  <Kappa2>  (14) 
3.875201

>  <Kappa3>  (14) 
2.358651

>  <LabuteASA>  (14) 
71.577504

>  <PEOE_VSA1>  (14) 
11.050456

>  <PEOE_VSA10>  (14) 
0.0

>  <PEOE_VSA11>  (14) 
0.0

>  <PEOE_VSA12>  (14) 
5.90718

>  <PEOE_VSA13>  (14) 
0.0

>  <PEOE_VSA14>  (14) 
0.0

>  <PEOE_VSA2>  (14) 
4.794537

>  <PEOE_VSA3>  (14) 
0.0

>  <PEOE_VSA4>  (14) 
0.0

>  <PEOE_VSA5>  (14) 
0.0

>  <PEOE_VSA6>  (14) 
12.132734

>  <PEOE_VSA7>  (14) 
12.132734

>  <PEOE_VSA8>  (14) 
18.174575

>  <PEOE_VSA9>  (14) 
6.544756

>  <SMR_VSA1>  (14) 
10.528205

>  <SMR_VSA10>  (14) 
11.594566

>  <SMR_VSA2>  (14) 
0.0

>  <SMR_VSA3>  (14) 
0.0

>  <SMR_VSA4>  (14) 
0.0

>  <SMR_VSA5>  (14) 
13.468494

>  <SMR_VSA6>  (14) 
5.316789

>  <SMR_VSA7>  (14) 
29.82892

>  <SMR_VSA8>  (14) 
0.0

>  <SMR_VSA9>  (14) 
0.0

>  <SlogP_VSA1>  (14) 
11.050456

>  <SlogP_VSA10>  (14) 
5.687386

>  <SlogP_VSA11>  (14) 
0.0

>  <SlogP_VSA12>  (14) 
0.0

>  <SlogP_VSA2>  (14) 
5.90718

>  <SlogP_VSA3>  (14) 
11.339294

>  <SlogP_VSA4>  (14) 
0.0

>  <SlogP_VSA5>  (14) 
12.487189

>  <SlogP_VSA6>  (14) 
24.265468

>  <SlogP_VSA7>  (14) 
0.0

>  <SlogP_VSA8>  (14) 
0.0

>  <SlogP_VSA9>  (14) 
0.0

>  <EState_VSA1>  (14) 
0.0

>  <EState_VSA10>  (14) 
4.794537

>  <EState_VSA11>  (14) 
0.0

>  <EState_VSA2>  (14) 
5.90718

>  <EState_VSA3>  (14) 
0.0

>  <EState_VSA4>  (14) 
17.795594

>  <EState_VSA5>  (14) 
6.923737

>  <EState_VSA6>  (14) 
0.0

>  <EState_VSA7>  (14) 
24.265468

>  <EState_VSA8>  (14) 
11.050456

>  <EState_VSA9>  (14) 
0.0

>  <VSA_EState1>  (14) 
0.0

>  <VSA_EState10>  (14) 
0.0

>  <VSA_EState2>  (14) 
10.686045

>  <VSA_EState3>  (14) 
2.712778

>  <VSA_EState4>  (14) 
5.726354

>  <VSA_EState5>  (14) 
-0.045174

>  <VSA_EState6>  (14) 
7.679626

>  <VSA_EState7>  (14) 
0.0

>  <VSA_EState8>  (14) 
2.240371

>  <VSA_EState9>  (14) 
0.0

>  <FractionCSP3>  (14) 
0.222222

>  <HeavyAtomCount>  (14) 
12

>  <NHOHCount>  (14) 
4

>  <NOCount>  (14) 
3

>  <NumAliphaticCarbocycles>  (14) 
0

>  <NumAliphaticHeterocycles>  (14) 
0

>  <NumAliphaticRings>  (14) 
0

>  <NumAromaticCarbocycles>  (14) 
1

>  <NumAromaticHeterocycles>  (14) 
0

>  <NAR>  (14) 
1

>  <NumHAcceptors>  (14) 
1

>  <NumHDonors>  (14) 
2

>  <NumHeteroatoms>  (14) 
3

>  <NumRotatableBonds>  (14) 
2

>  <NumSaturatedCarbocycles>  (14) 
0

>  <NumSaturatedHeterocycles>  (14) 
0

>  <NumSaturatedRings>  (14) 
0

>  <RingCount>  (14) 
1

>  <MolLogP>  (14) 
0.3869

>  <MolMR>  (14) 
47.3378

>  <fr_Al_COO>  (14) 
0

>  <fr_Al_OH>  (14) 
0

>  <fr_Al_OH_noTert>  (14) 
0

>  <fr_ArN>  (14) 
0

>  <fr_Ar_COO>  (14) 
0

>  <fr_Ar_N>  (14) 
0

>  <fr_Ar_NH>  (14) 
0

>  <fr_Ar_OH>  (14) 
0

>  <fr_COO>  (14) 
0

>  <fr_COO2>  (14) 
0

>  <fr_C_O>  (14) 
1

>  <fr_C_O_noCOO>  (14) 
1

>  <fr_C_S>  (14) 
0

>  <fr_HOCCN>  (14) 
0

>  <fr_Imine>  (14) 
0

>  <fr_NH0>  (14) 
0

>  <fr_NH1>  (14) 
1

>  <fr_NH2>  (14) 
0

>  <fr_N_O>  (14) 
0

>  <fr_Ndealkylation1>  (14) 
0

>  <fr_Ndealkylation2>  (14) 
0

>  <fr_Nhpyrrole>  (14) 
0

>  <fr_SH>  (14) 
0

>  <fr_aldehyde>  (14) 
0

>  <fr_alkyl_carbamate>  (14) 
0

>  <fr_alkyl_halide>  (14) 
0

>  <fr_allylic_oxid>  (14) 
0

>  <fr_amide>  (14) 
1

>  <fr_amidine>  (14) 
0

>  <fr_aniline>  (14) 
1

>  <fr_aryl_methyl>  (14) 
0

>  <fr_azide>  (14) 
0

>  <fr_azo>  (14) 
0

>  <fr_barbitur>  (14) 
0

>  <fr_benzene>  (14) 
1

>  <fr_benzodiazepine>  (14) 
0

>  <fr_bicyclic>  (14) 
0

>  <fr_diazo>  (14) 
0

>  <fr_dihydropyridine>  (14) 
0

>  <fr_epoxide>  (14) 
0

>  <fr_ester>  (14) 
0

>  <fr_ether>  (14) 
0

>  <fr_furan>  (14) 
0

>  <fr_guanido>  (14) 
0

>  <fr_halogen>  (14) 
0

>  <fr_hdrzine>  (14) 
0

>  <fr_hdrzone>  (14) 
0

>  <fr_imidazole>  (14) 
0

>  <fr_imide>  (14) 
0

>  <fr_isocyan>  (14) 
0

>  <fr_isothiocyan>  (14) 
0

>  <fr_ketone>  (14) 
0

>  <fr_ketone_Topliss>  (14) 
0

>  <fr_lactam>  (14) 
0

>  <fr_lactone>  (14) 
0

>  <fr_methoxy>  (14) 
0

>  <fr_morpholine>  (14) 
0

>  <fr_nitrile>  (14) 
0

>  <fr_nitro>  (14) 
0

>  <fr_nitro_arom>  (14) 
0

>  <fr_nitro_arom_nonortho>  (14) 
0

>  <fr_nitroso>  (14) 
0

>  <fr_oxazole>  (14) 
0

>  <fr_oxime>  (14) 
0

>  <fr_para_hydroxylation>  (14) 
0

>  <fr_phenol>  (14) 
0

>  <fr_phenol_noOrthoHbond>  (14) 
0

>  <fr_phos_acid>  (14) 
0

>  <fr_phos_ester>  (14) 
0

>  <fr_piperdine>  (14) 
0

>  <fr_piperzine>  (14) 
0

>  <fr_priamide>  (14) 
0

>  <fr_prisulfonamd>  (14) 
0

>  <fr_pyridine>  (14) 
0

>  <fr_quatN>  (14) 
1

>  <fr_sulfide>  (14) 
0

>  <fr_sulfonamd>  (14) 
0

>  <fr_sulfone>  (14) 
0

>  <fr_term_acetylene>  (14) 
0

>  <fr_tetrazole>  (14) 
0

>  <fr_thiazole>  (14) 
0

>  <fr_thiocyan>  (14) 
0

>  <fr_thiophene>  (14) 
0

>  <fr_unbrch_alkane>  (14) 
0

>  <fr_urea>  (14) 
0

>  <NP-Likeness>  (14) 
-1.230034

$$$$
463
     RDKit          3D

  0  0  0  0  0  0  0  0  0  0999 V3000
M  V30 BEGIN CTAB
M  V30 COUNTS 25 25 0 0 0
M  V30 BEGIN ATOM
M  V30 1 C -0.976045 0.970419 2.703778 0
M  V30 2 C 0.004463 0.173700 3.250547 0
M  V30 3 C 0.698050 -0.637106 2.394742 0
M  V30 4 C 1.767592 -1.516254 2.940463 0
M  V30 5 N 3.022981 -0.787799 2.910381 0 CHG=1 VAL=4
M  V30 6 C 0.403776 -0.632228 1.053364 0
M  V30 7 C -0.566159 0.149355 0.479638 0
M  V30 8 N -0.919948 0.203656 -0.889551 0
M  V30 9 C -0.371709 -0.517869 -1.971597 0
M  V30 10 O 0.544341 -1.326625 -1.784841 0
M  V30 11 C -0.815861 -0.388308 -3.382028 0
M  V30 12 C -1.254199 0.958664 1.353663 0
M  V30 13 H -1.566049 1.637388 3.317416 0
M  V30 14 H 0.182999 0.220875 4.316301 0
M  V30 15 H 1.870085 -2.443024 2.363886 0
M  V30 16 H 1.560154 -1.742054 4.001168 0
M  V30 17 H 2.964956 0.075228 3.491461 0
M  V30 18 H 3.767456 -1.381577 3.351810 0
M  V30 19 H 3.283890 -0.592161 1.922307 0
M  V30 20 H 0.976972 -1.282564 0.445282 0
M  V30 21 H -1.680208 0.842129 -1.209150 0
M  V30 22 H -1.558226 0.444275 -3.467873 0
M  V30 23 H -1.296321 -1.325326 -3.746721 0
M  V30 24 H 0.091255 -0.123669 -3.984982 0
M  V30 25 H -2.048795 1.616242 0.970501 0
M  V30 END ATOM
M  V30 BEGIN BOND
M  V30 1 2 1 2
M  V30 2 1 2 3
M  V30 3 1 3 4
M  V30 4 1 4 5
M  V30 5 2 3 6
M  V30 6 1 6 7
M  V30 7 1 7 8
M  V30 8 1 8 9
M  V30 9 2 9 10
M  V30 10 1 9 11
M  V30 11 2 7 12
M  V30 12 1 12 1
M  V30 13 1 1 13
M  V30 14 1 2 14
M  V30 15 1 4 15
M  V30 16 1 4 16
M  V30 17 1 5 17
M  V30 18 1 5 18
M  V30 19 1 5 19
M  V30 20 1 6 20
M  V30 21 1 8 21
M  V30 22 1 11 22
M  V30 23 1 11 23
M  V30 24 1 11 24
M  V30 25 1 12 25
M  V30 END BOND
M  V30 END CTAB
M  END
>  <Dataset>  (15) 
PDB

>  <Ligand_Instance>  (15) 
5N3F_463_A_404

>  <PDB_ID>  (15) 
5N3F

>  <Standardized_SMILES>  (15) 
[H]C1=C([H])C(C([H])([H])[N+]([H])([H])[H])=C([H])C(N([H])C(=O)C([H])([H])[H])=C1[H]

>  <Name>  (15) 
N-[3-(aminomethyl)phenyl]acetamide

>  <Pocket>  (15) 
X

>  <ATP_Site>  (15) 
1.0

>  <Peripheral>  (15) 
1.0

>  <Num_H_Atoms_ProtBoundConf>  (15) 
13.0

>  <Num_Resolved_Atoms>  (15) 
12.0

>  <Num_Not_Resolved_Atoms>  (15) 
0.0

>  <2D_Mol_H>  (15) 
<rdkit.Chem.rdchem.Mol object at 0x72a238db73e0>

>  <MW>  (15) 
165.216

>  <HBA>  (15) 
1

>  <HBD>  (15) 
2

>  <LogP>  (15) 
0.3869

>  <NRB>  (15) 
4

>  <TPSA>  (15) 
56.74

>  <Num_Heavy_Atoms>  (15) 
12

>  <Ro5>  (15) 
[True, True, True, True, True, True]

>  <Ro5_Fulfilled>  (15) 
True

>  <Ro3>  (15) 
[True, True, True, True]

>  <Ro3_Fulfilled>  (15) 
True

>  <Fsp3>  (15) 
0.222222

>  <Fsp3_0.42>  (15) 
False

>  <Fsp3_0.45>  (15) 
False

>  <Stereogenic_Carbons>  (15) 
0

>  <C_Atoms>  (15) 
9

>  <FCStereo>  (15) 
0.0

>  <SPS>  (15) 
114

>  <nSPS>  (15) 
9.5

>  <PBF>  (15) 
0.455572

>  <PBF_0.6>  (15) 
False

>  <nPBF>  (15) 
0.037964

>  <nPBF_0.016>  (15) 
True

>  <PMI1>  (15) 
314.853552

>  <PMI2>  (15) 
928.918583

>  <PMI3>  (15) 
1198.711057

>  <NPR1>  (15) 
0.26266

>  <NPR2>  (15) 
0.774931

>  <Sum_NPR>  (15) 
1.037591

>  <Sum_NPR_1.07>  (15) 
False

>  <Sum_NPR_1.2>  (15) 
False

>  <MaxAbsEStateIndex>  (15) 
10.686045

>  <MaxEStateIndex>  (15) 
10.686045

>  <MinAbsEStateIndex>  (15) 
0.045174

>  <MinEStateIndex>  (15) 
-0.045174

>  <qed>  (15) 
0.653914

>  <MolWt>  (15) 
165.216

>  <HeavyAtomMolWt>  (15) 
152.112

>  <ExactMolWt>  (15) 
165.102239

>  <NumValenceElectrons>  (15) 
64

>  <NumRadicalElectrons>  (15) 
0

>  <MaxPartialCharge>  (15) 
0.220748

>  <MinPartialCharge>  (15) 
-0.353807

>  <MaxAbsPartialCharge>  (15) 
0.353807

>  <MinAbsPartialCharge>  (15) 
0.220748

>  <FpDensityMorgan1>  (15) 
1.583333

>  <FpDensityMorgan2>  (15) 
2.333333

>  <FpDensityMorgan3>  (15) 
2.916667

>  <BCUT2D_MWHI>  (15) 
16.148144

>  <BCUT2D_MWLOW>  (15) 
10.177035

>  <BCUT2D_CHGHI>  (15) 
1.957878

>  <BCUT2D_CHGLO>  (15) 
-2.015361

>  <BCUT2D_LOGPHI>  (15) 
2.085038

>  <BCUT2D_LOGPLOW>  (15) 
-2.469692

>  <BCUT2D_MRHI>  (15) 
5.881386

>  <BCUT2D_MRLOW>  (15) 
-0.385962

>  <AvgIpc>  (15) 
2.03486

>  <BalabanJ>  (15) 
2.790011

>  <BertzCT>  (15) 
283.611954

>  <Chi0>  (15) 
8.974691

>  <Chi0n>  (15) 
7.131863

>  <Chi0v>  (15) 
7.131863

>  <Chi1>  (15) 
5.719545

>  <Chi1n>  (15) 
3.879045

>  <Chi1v>  (15) 
3.879045

>  <Chi2n>  (15) 
2.631564

>  <Chi2v>  (15) 
2.631564

>  <Chi3n>  (15) 
1.536026

>  <Chi3v>  (15) 
1.536026

>  <Chi4n>  (15) 
1.007855

>  <Chi4v>  (15) 
1.007855

>  <HallKierAlpha>  (15) 
-1.35

>  <Ipc>  (15) 
506.680044

>  <Kappa1>  (15) 
8.743897

>  <Kappa2>  (15) 
3.875201

>  <Kappa3>  (15) 
2.358651

>  <LabuteASA>  (15) 
71.577504

>  <PEOE_VSA1>  (15) 
11.050456

>  <PEOE_VSA10>  (15) 
0.0

>  <PEOE_VSA11>  (15) 
0.0

>  <PEOE_VSA12>  (15) 
5.90718

>  <PEOE_VSA13>  (15) 
0.0

>  <PEOE_VSA14>  (15) 
0.0

>  <PEOE_VSA2>  (15) 
4.794537

>  <PEOE_VSA3>  (15) 
0.0

>  <PEOE_VSA4>  (15) 
0.0

>  <PEOE_VSA5>  (15) 
0.0

>  <PEOE_VSA6>  (15) 
12.132734

>  <PEOE_VSA7>  (15) 
12.132734

>  <PEOE_VSA8>  (15) 
18.174575

>  <PEOE_VSA9>  (15) 
6.544756

>  <SMR_VSA1>  (15) 
10.528205

>  <SMR_VSA10>  (15) 
11.594566

>  <SMR_VSA2>  (15) 
0.0

>  <SMR_VSA3>  (15) 
0.0

>  <SMR_VSA4>  (15) 
0.0

>  <SMR_VSA5>  (15) 
13.468494

>  <SMR_VSA6>  (15) 
5.316789

>  <SMR_VSA7>  (15) 
29.82892

>  <SMR_VSA8>  (15) 
0.0

>  <SMR_VSA9>  (15) 
0.0

>  <SlogP_VSA1>  (15) 
11.050456

>  <SlogP_VSA10>  (15) 
5.687386

>  <SlogP_VSA11>  (15) 
0.0

>  <SlogP_VSA12>  (15) 
0.0

>  <SlogP_VSA2>  (15) 
5.90718

>  <SlogP_VSA3>  (15) 
11.339294

>  <SlogP_VSA4>  (15) 
0.0

>  <SlogP_VSA5>  (15) 
12.487189

>  <SlogP_VSA6>  (15) 
24.265468

>  <SlogP_VSA7>  (15) 
0.0

>  <SlogP_VSA8>  (15) 
0.0

>  <SlogP_VSA9>  (15) 
0.0

>  <EState_VSA1>  (15) 
0.0

>  <EState_VSA10>  (15) 
4.794537

>  <EState_VSA11>  (15) 
0.0

>  <EState_VSA2>  (15) 
5.90718

>  <EState_VSA3>  (15) 
0.0

>  <EState_VSA4>  (15) 
17.795594

>  <EState_VSA5>  (15) 
6.923737

>  <EState_VSA6>  (15) 
0.0

>  <EState_VSA7>  (15) 
24.265468

>  <EState_VSA8>  (15) 
11.050456

>  <EState_VSA9>  (15) 
0.0

>  <VSA_EState1>  (15) 
0.0

>  <VSA_EState10>  (15) 
0.0

>  <VSA_EState2>  (15) 
10.686045

>  <VSA_EState3>  (15) 
2.712778

>  <VSA_EState4>  (15) 
5.726354

>  <VSA_EState5>  (15) 
-0.045174

>  <VSA_EState6>  (15) 
7.679626

>  <VSA_EState7>  (15) 
0.0

>  <VSA_EState8>  (15) 
2.240371

>  <VSA_EState9>  (15) 
0.0

>  <FractionCSP3>  (15) 
0.222222

>  <HeavyAtomCount>  (15) 
12

>  <NHOHCount>  (15) 
4

>  <NOCount>  (15) 
3

>  <NumAliphaticCarbocycles>  (15) 
0

>  <NumAliphaticHeterocycles>  (15) 
0

>  <NumAliphaticRings>  (15) 
0

>  <NumAromaticCarbocycles>  (15) 
1

>  <NumAromaticHeterocycles>  (15) 
0

>  <NAR>  (15) 
1

>  <NumHAcceptors>  (15) 
1

>  <NumHDonors>  (15) 
2

>  <NumHeteroatoms>  (15) 
3

>  <NumRotatableBonds>  (15) 
2

>  <NumSaturatedCarbocycles>  (15) 
0

>  <NumSaturatedHeterocycles>  (15) 
0

>  <NumSaturatedRings>  (15) 
0

>  <RingCount>  (15) 
1

>  <MolLogP>  (15) 
0.3869

>  <MolMR>  (15) 
47.3378

>  <fr_Al_COO>  (15) 
0

>  <fr_Al_OH>  (15) 
0

>  <fr_Al_OH_noTert>  (15) 
0

>  <fr_ArN>  (15) 
0

>  <fr_Ar_COO>  (15) 
0

>  <fr_Ar_N>  (15) 
0

>  <fr_Ar_NH>  (15) 
0

>  <fr_Ar_OH>  (15) 
0

>  <fr_COO>  (15) 
0

>  <fr_COO2>  (15) 
0

>  <fr_C_O>  (15) 
1

>  <fr_C_O_noCOO>  (15) 
1

>  <fr_C_S>  (15) 
0

>  <fr_HOCCN>  (15) 
0

>  <fr_Imine>  (15) 
0

>  <fr_NH0>  (15) 
0

>  <fr_NH1>  (15) 
1

>  <fr_NH2>  (15) 
0

>  <fr_N_O>  (15) 
0

>  <fr_Ndealkylation1>  (15) 
0

>  <fr_Ndealkylation2>  (15) 
0

>  <fr_Nhpyrrole>  (15) 
0

>  <fr_SH>  (15) 
0

>  <fr_aldehyde>  (15) 
0

>  <fr_alkyl_carbamate>  (15) 
0

>  <fr_alkyl_halide>  (15) 
0

>  <fr_allylic_oxid>  (15) 
0

>  <fr_amide>  (15) 
1

>  <fr_amidine>  (15) 
0

>  <fr_aniline>  (15) 
1

>  <fr_aryl_methyl>  (15) 
0

>  <fr_azide>  (15) 
0

>  <fr_azo>  (15) 
0

>  <fr_barbitur>  (15) 
0

>  <fr_benzene>  (15) 
1

>  <fr_benzodiazepine>  (15) 
0

>  <fr_bicyclic>  (15) 
0

>  <fr_diazo>  (15) 
0

>  <fr_dihydropyridine>  (15) 
0

>  <fr_epoxide>  (15) 
0

>  <fr_ester>  (15) 
0

>  <fr_ether>  (15) 
0

>  <fr_furan>  (15) 
0

>  <fr_guanido>  (15) 
0

>  <fr_halogen>  (15) 
0

>  <fr_hdrzine>  (15) 
0

>  <fr_hdrzone>  (15) 
0

>  <fr_imidazole>  (15) 
0

>  <fr_imide>  (15) 
0

>  <fr_isocyan>  (15) 
0

>  <fr_isothiocyan>  (15) 
0

>  <fr_ketone>  (15) 
0

>  <fr_ketone_Topliss>  (15) 
0

>  <fr_lactam>  (15) 
0

>  <fr_lactone>  (15) 
0

>  <fr_methoxy>  (15) 
0

>  <fr_morpholine>  (15) 
0

>  <fr_nitrile>  (15) 
0

>  <fr_nitro>  (15) 
0

>  <fr_nitro_arom>  (15) 
0

>  <fr_nitro_arom_nonortho>  (15) 
0

>  <fr_nitroso>  (15) 
0

>  <fr_oxazole>  (15) 
0

>  <fr_oxime>  (15) 
0

>  <fr_para_hydroxylation>  (15) 
0

>  <fr_phenol>  (15) 
0

>  <fr_phenol_noOrthoHbond>  (15) 
0

>  <fr_phos_acid>  (15) 
0

>  <fr_phos_ester>  (15) 
0

>  <fr_piperdine>  (15) 
0

>  <fr_piperzine>  (15) 
0

>  <fr_priamide>  (15) 
0

>  <fr_prisulfonamd>  (15) 
0

>  <fr_pyridine>  (15) 
0

>  <fr_quatN>  (15) 
1

>  <fr_sulfide>  (15) 
0

>  <fr_sulfonamd>  (15) 
0

>  <fr_sulfone>  (15) 
0

>  <fr_term_acetylene>  (15) 
0

>  <fr_tetrazole>  (15) 
0

>  <fr_thiazole>  (15) 
0

>  <fr_thiocyan>  (15) 
0

>  <fr_thiophene>  (15) 
0

>  <fr_unbrch_alkane>  (15) 
0

>  <fr_urea>  (15) 
0

>  <NP-Likeness>  (15) 
-1.230034

$$$$
46L
     RDKit          3D

  0  0  0  0  0  0  0  0  0  0999 V3000
M  V30 BEGIN CTAB
M  V30 COUNTS 22 22 0 0 0
M  V30 BEGIN ATOM
M  V30 1 O -0.152124 -0.793472 5.351558 0
M  V30 2 C 0.662456 -0.842655 4.252304 0
M  V30 3 O 1.253307 -1.311007 5.249921 0
M  V30 4 C 0.523304 -0.458589 2.868114 0
M  V30 5 C 1.671870 -0.714165 2.159239 0
M  V30 6 N 1.733402 -0.420282 0.823180 0
M  V30 7 C 0.601933 0.130432 0.252803 0
M  V30 8 N 0.566436 0.504794 -1.113665 0
M  V30 9 C 0.619917 1.975967 -1.138329 0
M  V30 10 C 0.494694 -0.426073 -2.232194 0
M  V30 11 C -0.529948 0.371551 0.994603 0
M  V30 12 C -0.608817 0.086889 2.330964 0
M  V30 13 H -0.975357 -1.240566 5.639949 0
M  V30 14 H 2.616561 -1.147568 2.529042 0
M  V30 15 H 1.483192 2.347141 -0.600424 0
M  V30 16 H -0.353301 2.322689 -0.752522 0
M  V30 17 H 0.681892 2.235824 -2.211622 0
M  V30 18 H 1.500084 -0.899178 -2.404675 0
M  V30 19 H -0.161526 -1.263228 -1.916923 0
M  V30 20 H 0.097560 0.006940 -3.148177 0
M  V30 21 H -1.427386 0.804083 0.555338 0
M  V30 22 H -1.411624 0.222890 3.027775 0
M  V30 END ATOM
M  V30 BEGIN BOND
M  V30 1 1 1 2
M  V30 2 2 2 3
M  V30 3 1 2 4
M  V30 4 2 4 5
M  V30 5 1 5 6
M  V30 6 2 6 7
M  V30 7 1 7 8
M  V30 8 1 8 9
M  V30 9 1 8 10
M  V30 10 1 7 11
M  V30 11 2 11 12
M  V30 12 1 12 4
M  V30 13 1 1 13
M  V30 14 1 5 14
M  V30 15 1 9 15
M  V30 16 1 9 16
M  V30 17 1 9 17
M  V30 18 1 10 18
M  V30 19 1 10 19
M  V30 20 1 10 20
M  V30 21 1 11 21
M  V30 22 1 12 22
M  V30 END BOND
M  V30 END CTAB
M  END
>  <Dataset>  (16) 
PDB

>  <Ligand_Instance>  (16) 
5N3E_46L_A_401

>  <PDB_ID>  (16) 
5N3E

>  <Standardized_SMILES>  (16) 
[H]OC(=O)C1=C([H])N=C(N(C([H])([H])[H])C([H])([H])[H])C([H])=C1[H]

>  <Name>  (16) 
6-(dimethylamino)pyridine-3-carboxylic acid

>  <Pocket>  (16) 
A

>  <ATP_Site>  (16) 
1.0

>  <Peripheral>  (16) 
0.0

>  <Num_H_Atoms_ProtBoundConf>  (16) 
10.0

>  <Num_Resolved_Atoms>  (16) 
12.0

>  <Num_Not_Resolved_Atoms>  (16) 
0.0

>  <2D_Mol_H>  (16) 
<rdkit.Chem.rdchem.Mol object at 0x72a238db74c0>

>  <MW>  (16) 
166.18

>  <HBA>  (16) 
4

>  <HBD>  (16) 
1

>  <LogP>  (16) 
0.8458

>  <NRB>  (16) 
4

>  <TPSA>  (16) 
53.43

>  <Num_Heavy_Atoms>  (16) 
12

>  <Ro5>  (16) 
[True, True, True, True, True, True]

>  <Ro5_Fulfilled>  (16) 
True

>  <Ro3>  (16) 
[True, False, True, True]

>  <Ro3_Fulfilled>  (16) 
True

>  <Fsp3>  (16) 
0.25

>  <Fsp3_0.42>  (16) 
False

>  <Fsp3_0.45>  (16) 
False

>  <Stereogenic_Carbons>  (16) 
0

>  <C_Atoms>  (16) 
8

>  <FCStereo>  (16) 
0.0

>  <SPS>  (16) 
114

>  <nSPS>  (16) 
9.5

>  <PBF>  (16) 
0.708509

>  <PBF_0.6>  (16) 
True

>  <nPBF>  (16) 
0.059042

>  <nPBF_0.016>  (16) 
True

>  <PMI1>  (16) 
168.254532

>  <PMI2>  (16) 
1161.869025

>  <PMI3>  (16) 
1230.45616

>  <NPR1>  (16) 
0.136742

>  <NPR2>  (16) 
0.944259

>  <Sum_NPR>  (16) 
1.081

>  <Sum_NPR_1.07>  (16) 
True

>  <Sum_NPR_1.2>  (16) 
False

>  <MaxAbsEStateIndex>  (16) 
10.428476

>  <MaxEStateIndex>  (16) 
10.428476

>  <MinAbsEStateIndex>  (16) 
0.208889

>  <MinEStateIndex>  (16) 
-0.951105

>  <qed>  (16) 
0.70709

>  <MolWt>  (16) 
166.18

>  <HeavyAtomMolWt>  (16) 
156.1

>  <ExactMolWt>  (16) 
166.074228

>  <NumValenceElectrons>  (16) 
64

>  <NumRadicalElectrons>  (16) 
0

>  <MaxPartialCharge>  (16) 
0.336761

>  <MinPartialCharge>  (16) 
-0.477599

>  <MaxAbsPartialCharge>  (16) 
0.477599

>  <MinAbsPartialCharge>  (16) 
0.336761

>  <FpDensityMorgan1>  (16) 
1.5

>  <FpDensityMorgan2>  (16) 
2.166667

>  <FpDensityMorgan3>  (16) 
2.5

>  <BCUT2D_MWHI>  (16) 
16.365589

>  <BCUT2D_MWLOW>  (16) 
10.267922

>  <BCUT2D_CHGHI>  (16) 
2.022673

>  <BCUT2D_CHGLO>  (16) 
-2.094

>  <BCUT2D_LOGPHI>  (16) 
2.065539

>  <BCUT2D_LOGPLOW>  (16) 
-2.104182

>  <BCUT2D_MRHI>  (16) 
5.868487

>  <BCUT2D_MRLOW>  (16) 
0.069623

>  <AvgIpc>  (16) 
2.042911

>  <BalabanJ>  (16) 
2.929146

>  <BertzCT>  (16) 
279.614264

>  <Chi0>  (16) 
9.137828

>  <Chi0n>  (16) 
6.98194

>  <Chi0v>  (16) 
6.98194

>  <Chi1>  (16) 
5.609061

>  <Chi1n>  (16) 
3.476929

>  <Chi1v>  (16) 
3.476929

>  <Chi2n>  (16) 
2.604653

>  <Chi2v>  (16) 
2.604653

>  <Chi3n>  (16) 
1.453018

>  <Chi3v>  (16) 
1.453018

>  <Chi4n>  (16) 
0.777109

>  <Chi4v>  (16) 
0.777109

>  <HallKierAlpha>  (16) 
-1.58

>  <Ipc>  (16) 
473.955341

>  <Kappa1>  (16) 
8.515969

>  <Kappa2>  (16) 
3.211771

>  <Kappa3>  (16) 
1.719387

>  <LabuteASA>  (16) 
70.461467

>  <PEOE_VSA1>  (16) 
10.006437

>  <PEOE_VSA10>  (16) 
5.817863

>  <PEOE_VSA11>  (16) 
0.0

>  <PEOE_VSA12>  (16) 
0.0

>  <PEOE_VSA13>  (16) 
0.0

>  <PEOE_VSA14>  (16) 
5.969305

>  <PEOE_VSA2>  (16) 
0.0

>  <PEOE_VSA3>  (16) 
9.778516

>  <PEOE_VSA4>  (16) 
0.0

>  <PEOE_VSA5>  (16) 
0.0

>  <PEOE_VSA6>  (16) 
0.0

>  <PEOE_VSA7>  (16) 
12.132734

>  <PEOE_VSA8>  (16) 
20.292188

>  <PEOE_VSA9>  (16) 
5.563451

>  <SMR_VSA1>  (16) 
9.901065

>  <SMR_VSA10>  (16) 
11.787168

>  <SMR_VSA2>  (16) 
0.0

>  <SMR_VSA3>  (16) 
4.983979

>  <SMR_VSA4>  (16) 
0.0

>  <SMR_VSA5>  (16) 
0.0

>  <SMR_VSA6>  (16) 
18.995254

>  <SMR_VSA7>  (16) 
23.893029

>  <SMR_VSA8>  (16) 
0.0

>  <SMR_VSA9>  (16) 
0.0

>  <SlogP_VSA1>  (16) 
4.89991

>  <SlogP_VSA10>  (16) 
5.817863

>  <SlogP_VSA11>  (16) 
0.0

>  <SlogP_VSA12>  (16) 
0.0

>  <SlogP_VSA2>  (16) 
30.155155

>  <SlogP_VSA3>  (16) 
0.0

>  <SlogP_VSA4>  (16) 
0.0

>  <SlogP_VSA5>  (16) 
10.357989

>  <SlogP_VSA6>  (16) 
18.329578

>  <SlogP_VSA7>  (16) 
0.0

>  <SlogP_VSA8>  (16) 
0.0

>  <SlogP_VSA9>  (16) 
0.0

>  <EState_VSA1>  (16) 
5.969305

>  <EState_VSA10>  (16) 
4.794537

>  <EState_VSA11>  (16) 
0.0

>  <EState_VSA2>  (16) 
5.563451

>  <EState_VSA3>  (16) 
0.0

>  <EState_VSA4>  (16) 
5.817863

>  <EState_VSA5>  (16) 
12.263211

>  <EState_VSA6>  (16) 
6.066367

>  <EState_VSA7>  (16) 
18.995254

>  <EState_VSA8>  (16) 
4.983979

>  <EState_VSA9>  (16) 
5.106527

>  <VSA_EState1>  (16) 
0.0

>  <VSA_EState10>  (16) 
0.0

>  <VSA_EState2>  (16) 
16.184154

>  <VSA_EState3>  (16) 
8.560707

>  <VSA_EState4>  (16) 
0.208889

>  <VSA_EState5>  (16) 
-0.201105

>  <VSA_EState6>  (16) 
3.2025

>  <VSA_EState7>  (16) 
1.344907

>  <VSA_EState8>  (16) 
0.0

>  <VSA_EState9>  (16) 
3.699948

>  <FractionCSP3>  (16) 
0.25

>  <HeavyAtomCount>  (16) 
12

>  <NHOHCount>  (16) 
1

>  <NOCount>  (16) 
4

>  <NumAliphaticCarbocycles>  (16) 
0

>  <NumAliphaticHeterocycles>  (16) 
0

>  <NumAliphaticRings>  (16) 
0

>  <NumAromaticCarbocycles>  (16) 
0

>  <NumAromaticHeterocycles>  (16) 
1

>  <NAR>  (16) 
1

>  <NumHAcceptors>  (16) 
3

>  <NumHDonors>  (16) 
1

>  <NumHeteroatoms>  (16) 
4

>  <NumRotatableBonds>  (16) 
2

>  <NumSaturatedCarbocycles>  (16) 
0

>  <NumSaturatedHeterocycles>  (16) 
0

>  <NumSaturatedRings>  (16) 
0

>  <RingCount>  (16) 
1

>  <MolLogP>  (16) 
0.8458

>  <MolMR>  (16) 
45.5233

>  <fr_Al_COO>  (16) 
0

>  <fr_Al_OH>  (16) 
0

>  <fr_Al_OH_noTert>  (16) 
0

>  <fr_ArN>  (16) 
0

>  <fr_Ar_COO>  (16) 
1

>  <fr_Ar_N>  (16) 
1

>  <fr_Ar_NH>  (16) 
0

>  <fr_Ar_OH>  (16) 
0

>  <fr_COO>  (16) 
1

>  <fr_COO2>  (16) 
1

>  <fr_C_O>  (16) 
1

>  <fr_C_O_noCOO>  (16) 
0

>  <fr_C_S>  (16) 
0

>  <fr_HOCCN>  (16) 
0

>  <fr_Imine>  (16) 
0

>  <fr_NH0>  (16) 
2

>  <fr_NH1>  (16) 
0

>  <fr_NH2>  (16) 
0

>  <fr_N_O>  (16) 
0

>  <fr_Ndealkylation1>  (16) 
0

>  <fr_Ndealkylation2>  (16) 
0

>  <fr_Nhpyrrole>  (16) 
0

>  <fr_SH>  (16) 
0

>  <fr_aldehyde>  (16) 
0

>  <fr_alkyl_carbamate>  (16) 
0

>  <fr_alkyl_halide>  (16) 
0

>  <fr_allylic_oxid>  (16) 
0

>  <fr_amide>  (16) 
0

>  <fr_amidine>  (16) 
0

>  <fr_aniline>  (16) 
1

>  <fr_aryl_methyl>  (16) 
0

>  <fr_azide>  (16) 
0

>  <fr_azo>  (16) 
0

>  <fr_barbitur>  (16) 
0

>  <fr_benzene>  (16) 
0

>  <fr_benzodiazepine>  (16) 
0

>  <fr_bicyclic>  (16) 
0

>  <fr_diazo>  (16) 
0

>  <fr_dihydropyridine>  (16) 
0

>  <fr_epoxide>  (16) 
0

>  <fr_ester>  (16) 
0

>  <fr_ether>  (16) 
0

>  <fr_furan>  (16) 
0

>  <fr_guanido>  (16) 
0

>  <fr_halogen>  (16) 
0

>  <fr_hdrzine>  (16) 
0

>  <fr_hdrzone>  (16) 
0

>  <fr_imidazole>  (16) 
0

>  <fr_imide>  (16) 
0

>  <fr_isocyan>  (16) 
0

>  <fr_isothiocyan>  (16) 
0

>  <fr_ketone>  (16) 
0

>  <fr_ketone_Topliss>  (16) 
0

>  <fr_lactam>  (16) 
0

>  <fr_lactone>  (16) 
0

>  <fr_methoxy>  (16) 
0

>  <fr_morpholine>  (16) 
0

>  <fr_nitrile>  (16) 
0

>  <fr_nitro>  (16) 
0

>  <fr_nitro_arom>  (16) 
0

>  <fr_nitro_arom_nonortho>  (16) 
0

>  <fr_nitroso>  (16) 
0

>  <fr_oxazole>  (16) 
0

>  <fr_oxime>  (16) 
0

>  <fr_para_hydroxylation>  (16) 
0

>  <fr_phenol>  (16) 
0

>  <fr_phenol_noOrthoHbond>  (16) 
0

>  <fr_phos_acid>  (16) 
0

>  <fr_phos_ester>  (16) 
0

>  <fr_piperdine>  (16) 
0

>  <fr_piperzine>  (16) 
0

>  <fr_priamide>  (16) 
0

>  <fr_prisulfonamd>  (16) 
0

>  <fr_pyridine>  (16) 
1

>  <fr_quatN>  (16) 
0

>  <fr_sulfide>  (16) 
0

>  <fr_sulfonamd>  (16) 
0

>  <fr_sulfone>  (16) 
0

>  <fr_term_acetylene>  (16) 
0

>  <fr_tetrazole>  (16) 
0

>  <fr_thiazole>  (16) 
0

>  <fr_thiocyan>  (16) 
0

>  <fr_thiophene>  (16) 
0

>  <fr_unbrch_alkane>  (16) 
0

>  <fr_urea>  (16) 
0

>  <NP-Likeness>  (16) 
-1.482032

$$$$
46P
     RDKit          3D

  0  0  0  0  0  0  0  0  0  0999 V3000
M  V30 BEGIN CTAB
M  V30 COUNTS 19 19 0 0 0
M  V30 BEGIN ATOM
M  V30 1 C 1.868013 -0.987006 -0.291810 0
M  V30 2 C 0.949955 -0.411412 0.639301 0
M  V30 3 C 1.187712 0.391907 1.833833 0
M  V30 4 N 0.229530 1.374205 2.193434 0
M  V30 5 C 0.626007 2.442285 3.069938 0
M  V30 6 N 2.259660 0.166749 2.501688 0 CHG=1 VAL=4
M  V30 7 S -0.665376 -0.938449 -0.036010 0
M  V30 8 C 0.185586 -1.859988 -1.482069 0
M  V30 9 N -0.499026 -2.579850 -2.514012 0
M  V30 10 N 1.334572 -1.680854 -1.295884 0
M  V30 11 H 2.939082 -0.815488 -0.111343 0
M  V30 12 H -0.759279 1.376213 1.861032 0
M  V30 13 H 0.388618 3.409034 2.535688 0
M  V30 14 H 1.687762 2.472533 3.317090 0
M  V30 15 H -0.042696 2.440435 3.980081 0
M  V30 16 H 2.583526 0.641256 3.368774 0
M  V30 17 H 2.949123 -0.553077 2.226362 0
M  V30 18 H -0.158998 -3.533975 -2.657128 0
M  V30 19 H -1.265273 -2.062890 -3.008037 0
M  V30 END ATOM
M  V30 BEGIN BOND
M  V30 1 2 1 2
M  V30 2 1 2 3
M  V30 3 1 3 4
M  V30 4 1 4 5
M  V30 5 2 3 6
M  V30 6 1 2 7
M  V30 7 1 7 8
M  V30 8 1 8 9
M  V30 9 2 8 10
M  V30 10 1 10 1
M  V30 11 1 1 11
M  V30 12 1 4 12
M  V30 13 1 5 13
M  V30 14 1 5 14
M  V30 15 1 5 15
M  V30 16 1 6 16
M  V30 17 1 6 17
M  V30 18 1 9 18
M  V30 19 1 9 19
M  V30 END BOND
M  V30 END CTAB
M  END
>  <Dataset>  (17) 
PDB

>  <Ligand_Instance>  (17) 
5N3A_46P_A_404

>  <PDB_ID>  (17) 
5N3A

>  <Standardized_SMILES>  (17) 
[H]C1=C(C(N([H])C([H])([H])[H])=[N+]([H])[H])SC(N([H])[H])=N1

>  <Name>  (17) 
4-methyl-5-(1-methyl-1H-imidazol-2-yl)-1,3-thiazol-2-amine

>  <Pocket>  (17) 
A

>  <ATP_Site>  (17) 
1.0

>  <Peripheral>  (17) 
0.0

>  <Num_H_Atoms_ProtBoundConf>  (17) 
9.0

>  <Num_Resolved_Atoms>  (17) 
10.0

>  <Num_Not_Resolved_Atoms>  (17) 
3.0

>  <2D_Mol_H>  (17) 
<rdkit.Chem.rdchem.Mol object at 0x72a238db75a0>

>  <MW>  (17) 
157.222

>  <HBA>  (17) 
3

>  <HBD>  (17) 
3

>  <LogP>  (17) 
-1.5496

>  <NRB>  (17) 
3

>  <TPSA>  (17) 
76.53

>  <Num_Heavy_Atoms>  (17) 
10

>  <Ro5>  (17) 
[True, True, True, True, True, True]

>  <Ro5_Fulfilled>  (17) 
True

>  <Ro3>  (17) 
[True, True, True, True]

>  <Ro3_Fulfilled>  (17) 
True

>  <Fsp3>  (17) 
0.2

>  <Fsp3_0.42>  (17) 
False

>  <Fsp3_0.45>  (17) 
False

>  <Stereogenic_Carbons>  (17) 
0

>  <C_Atoms>  (17) 
5

>  <FCStereo>  (17) 
0.0

>  <SPS>  (17) 
93

>  <nSPS>  (17) 
9.3

>  <PBF>  (17) 
0.401884

>  <PBF_0.6>  (17) 
False

>  <nPBF>  (17) 
0.040188

>  <nPBF_0.016>  (17) 
True

>  <PMI1>  (17) 
167.086544

>  <PMI2>  (17) 
839.715989

>  <PMI3>  (17) 
970.852253

>  <NPR1>  (17) 
0.172103

>  <NPR2>  (17) 
0.864927

>  <Sum_NPR>  (17) 
1.03703

>  <Sum_NPR_1.07>  (17) 
False

>  <Sum_NPR_1.2>  (17) 
False

>  <MaxAbsEStateIndex>  (17) 
5.528009

>  <MaxEStateIndex>  (17) 
5.528009

>  <MinAbsEStateIndex>  (17) 
0.53537

>  <MinEStateIndex>  (17) 
0.53537

>  <qed>  (17) 
0.341057

>  <MolWt>  (17) 
157.222

>  <HeavyAtomMolWt>  (17) 
148.15

>  <ExactMolWt>  (17) 
157.054244

>  <NumValenceElectrons>  (17) 
54

>  <NumRadicalElectrons>  (17) 
0

>  <MaxPartialCharge>  (17) 
0.284062

>  <MinPartialCharge>  (17) 
-0.375097

>  <MaxAbsPartialCharge>  (17) 
0.375097

>  <MinAbsPartialCharge>  (17) 
0.284062

>  <FpDensityMorgan1>  (17) 
1.9

>  <FpDensityMorgan2>  (17) 
2.6

>  <FpDensityMorgan3>  (17) 
3.0

>  <BCUT2D_MWHI>  (17) 
32.133576

>  <BCUT2D_MWLOW>  (17) 
10.49484

>  <BCUT2D_CHGHI>  (17) 
2.066631

>  <BCUT2D_CHGLO>  (17) 
-1.858606

>  <BCUT2D_LOGPHI>  (17) 
2.117358

>  <BCUT2D_LOGPLOW>  (17) 
-2.470452

>  <BCUT2D_MRHI>  (17) 
7.167723

>  <BCUT2D_MRLOW>  (17) 
-0.115917

>  <AvgIpc>  (17) 
2.33905

>  <BalabanJ>  (17) 
2.845595

>  <BertzCT>  (17) 
241.550919

>  <Chi0>  (17) 
7.560478

>  <Chi0n>  (17) 
5.587513

>  <Chi0v>  (17) 
6.404009

>  <Chi1>  (17) 
4.736382

>  <Chi1n>  (17) 
2.756079

>  <Chi1v>  (17) 
3.572576

>  <Chi2n>  (17) 
1.726425

>  <Chi2v>  (17) 
2.788652

>  <Chi3n>  (17) 
1.058366

>  <Chi3v>  (17) 
1.918149

>  <Chi4n>  (17) 
0.53533

>  <Chi4v>  (17) 
1.183483

>  <HallKierAlpha>  (17) 
-1.1

>  <Ipc>  (17) 
243.261184

>  <Kappa1>  (17) 
7.01236

>  <Kappa2>  (17) 
2.65602

>  <Kappa3>  (17) 
1.24315

>  <LabuteASA>  (17) 
62.596402

>  <PEOE_VSA1>  (17) 
5.733667

>  <PEOE_VSA10>  (17) 
4.877147

>  <PEOE_VSA11>  (17) 
5.131558

>  <PEOE_VSA12>  (17) 
0.0

>  <PEOE_VSA13>  (17) 
5.83562

>  <PEOE_VSA14>  (17) 
0.0

>  <PEOE_VSA2>  (17) 
10.726072

>  <PEOE_VSA3>  (17) 
4.983979

>  <PEOE_VSA4>  (17) 
0.0

>  <PEOE_VSA5>  (17) 
0.0

>  <PEOE_VSA6>  (17) 
11.336786

>  <PEOE_VSA7>  (17) 
0.0

>  <PEOE_VSA8>  (17) 
0.0

>  <PEOE_VSA9>  (17) 
13.244516

>  <SMR_VSA1>  (17) 
5.409284

>  <SMR_VSA10>  (17) 
22.303964

>  <SMR_VSA2>  (17) 
0.0

>  <SMR_VSA3>  (17) 
10.300767

>  <SMR_VSA4>  (17) 
0.0

>  <SMR_VSA5>  (17) 
0.0

>  <SMR_VSA6>  (17) 
12.781339

>  <SMR_VSA7>  (17) 
11.073991

>  <SMR_VSA8>  (17) 
0.0

>  <SMR_VSA9>  (17) 
0.0

>  <SlogP_VSA1>  (17) 
16.45974

>  <SlogP_VSA10>  (17) 
5.131558

>  <SlogP_VSA11>  (17) 
0.0

>  <SlogP_VSA12>  (17) 
11.336786

>  <SlogP_VSA2>  (17) 
17.86727

>  <SlogP_VSA3>  (17) 
0.0

>  <SlogP_VSA4>  (17) 
0.0

>  <SlogP_VSA5>  (17) 
4.877147

>  <SlogP_VSA6>  (17) 
6.196844

>  <SlogP_VSA7>  (17) 
0.0

>  <SlogP_VSA8>  (17) 
0.0

>  <SlogP_VSA9>  (17) 
0.0

>  <EState_VSA1>  (17) 
0.0

>  <EState_VSA10>  (17) 
0.0

>  <EState_VSA11>  (17) 
0.0

>  <EState_VSA2>  (17) 
0.0

>  <EState_VSA3>  (17) 
10.967178

>  <EState_VSA4>  (17) 
4.877147

>  <EState_VSA5>  (17) 
11.336786

>  <EState_VSA6>  (17) 
13.244516

>  <EState_VSA7>  (17) 
0.0

>  <EState_VSA8>  (17) 
10.300767

>  <EState_VSA9>  (17) 
11.142951

>  <VSA_EState1>  (17) 
0.0

>  <VSA_EState10>  (17) 
1.362546

>  <VSA_EState2>  (17) 
4.716111

>  <VSA_EState3>  (17) 
8.867222

>  <VSA_EState4>  (17) 
5.381835

>  <VSA_EState5>  (17) 
0.605741

>  <VSA_EState6>  (17) 
0.0

>  <VSA_EState7>  (17) 
1.644676

>  <VSA_EState8>  (17) 
0.0

>  <VSA_EState9>  (17) 
1.755202

>  <FractionCSP3>  (17) 
0.2

>  <HeavyAtomCount>  (17) 
10

>  <NHOHCount>  (17) 
5

>  <NOCount>  (17) 
4

>  <NumAliphaticCarbocycles>  (17) 
0

>  <NumAliphaticHeterocycles>  (17) 
0

>  <NumAliphaticRings>  (17) 
0

>  <NumAromaticCarbocycles>  (17) 
0

>  <NumAromaticHeterocycles>  (17) 
1

>  <NAR>  (17) 
1

>  <NumHAcceptors>  (17) 
3

>  <NumHDonors>  (17) 
3

>  <NumHeteroatoms>  (17) 
5

>  <NumRotatableBonds>  (17) 
1

>  <NumSaturatedCarbocycles>  (17) 
0

>  <NumSaturatedHeterocycles>  (17) 
0

>  <NumSaturatedRings>  (17) 
0

>  <RingCount>  (17) 
1

>  <MolLogP>  (17) 
-1.5496

>  <MolMR>  (17) 
41.6205

>  <fr_Al_COO>  (17) 
0

>  <fr_Al_OH>  (17) 
0

>  <fr_Al_OH_noTert>  (17) 
0

>  <fr_ArN>  (17) 
1

>  <fr_Ar_COO>  (17) 
0

>  <fr_Ar_N>  (17) 
1

>  <fr_Ar_NH>  (17) 
0

>  <fr_Ar_OH>  (17) 
0

>  <fr_COO>  (17) 
0

>  <fr_COO2>  (17) 
0

>  <fr_C_O>  (17) 
0

>  <fr_C_O_noCOO>  (17) 
0

>  <fr_C_S>  (17) 
0

>  <fr_HOCCN>  (17) 
0

>  <fr_Imine>  (17) 
0

>  <fr_NH0>  (17) 
1

>  <fr_NH1>  (17) 
1

>  <fr_NH2>  (17) 
2

>  <fr_N_O>  (17) 
0

>  <fr_Ndealkylation1>  (17) 
0

>  <fr_Ndealkylation2>  (17) 
0

>  <fr_Nhpyrrole>  (17) 
0

>  <fr_SH>  (17) 
0

>  <fr_aldehyde>  (17) 
0

>  <fr_alkyl_carbamate>  (17) 
0

>  <fr_alkyl_halide>  (17) 
0

>  <fr_allylic_oxid>  (17) 
0

>  <fr_amide>  (17) 
0

>  <fr_amidine>  (17) 
1

>  <fr_aniline>  (17) 
1

>  <fr_aryl_methyl>  (17) 
0

>  <fr_azide>  (17) 
0

>  <fr_azo>  (17) 
0

>  <fr_barbitur>  (17) 
0

>  <fr_benzene>  (17) 
0

>  <fr_benzodiazepine>  (17) 
0

>  <fr_bicyclic>  (17) 
0

>  <fr_diazo>  (17) 
0

>  <fr_dihydropyridine>  (17) 
0

>  <fr_epoxide>  (17) 
0

>  <fr_ester>  (17) 
0

>  <fr_ether>  (17) 
0

>  <fr_furan>  (17) 
0

>  <fr_guanido>  (17) 
0

>  <fr_halogen>  (17) 
0

>  <fr_hdrzine>  (17) 
0

>  <fr_hdrzone>  (17) 
0

>  <fr_imidazole>  (17) 
0

>  <fr_imide>  (17) 
0

>  <fr_isocyan>  (17) 
0

>  <fr_isothiocyan>  (17) 
0

>  <fr_ketone>  (17) 
0

>  <fr_ketone_Topliss>  (17) 
0

>  <fr_lactam>  (17) 
0

>  <fr_lactone>  (17) 
0

>  <fr_methoxy>  (17) 
0

>  <fr_morpholine>  (17) 
0

>  <fr_nitrile>  (17) 
0

>  <fr_nitro>  (17) 
0

>  <fr_nitro_arom>  (17) 
0

>  <fr_nitro_arom_nonortho>  (17) 
0

>  <fr_nitroso>  (17) 
0

>  <fr_oxazole>  (17) 
0

>  <fr_oxime>  (17) 
0

>  <fr_para_hydroxylation>  (17) 
0

>  <fr_phenol>  (17) 
0

>  <fr_phenol_noOrthoHbond>  (17) 
0

>  <fr_phos_acid>  (17) 
0

>  <fr_phos_ester>  (17) 
0

>  <fr_piperdine>  (17) 
0

>  <fr_piperzine>  (17) 
0

>  <fr_priamide>  (17) 
0

>  <fr_prisulfonamd>  (17) 
0

>  <fr_pyridine>  (17) 
0

>  <fr_quatN>  (17) 
0

>  <fr_sulfide>  (17) 
0

>  <fr_sulfonamd>  (17) 
0

>  <fr_sulfone>  (17) 
0

>  <fr_term_acetylene>  (17) 
0

>  <fr_tetrazole>  (17) 
0

>  <fr_thiazole>  (17) 
1

>  <fr_thiocyan>  (17) 
0

>  <fr_thiophene>  (17) 
0

>  <fr_unbrch_alkane>  (17) 
0

>  <fr_urea>  (17) 
0

>  <NP-Likeness>  (17) 
-1.038351

$$$$
47V
     RDKit          3D

  0  0  0  0  0  0  0  0  0  0999 V3000
M  V30 BEGIN CTAB
M  V30 COUNTS 28 29 0 0 0
M  V30 BEGIN ATOM
M  V30 1 C 3.628541 -2.275806 3.314006 0
M  V30 2 N 3.165952 -3.522331 3.507422 0
M  V30 3 C 2.210223 -4.006995 2.670253 0
M  V30 4 C 1.742765 -3.205480 1.645512 0
M  V30 5 C 2.243715 -1.928556 1.480419 0
M  V30 6 N 1.622703 -1.279061 0.367474 0
M  V30 7 C 0.489313 -0.619768 0.910144 0
M  V30 8 O 0.355191 -0.785630 2.173849 0
M  V30 9 C -0.514824 0.205653 0.198983 0
M  V30 10 C -0.526864 1.234069 -0.722784 0
M  V30 11 C 0.789829 1.725010 -1.198146 0
M  V30 12 O -1.759836 1.537320 -0.960547 0
M  V30 13 C -2.611762 0.821054 -0.294615 0
M  V30 14 C -4.100508 0.904071 -0.326402 0
M  V30 15 C -1.860828 -0.062210 0.476365 0
M  V30 16 C 3.210692 -1.422502 2.317456 0
M  V30 17 H 4.404570 -1.866131 3.984756 0
M  V30 18 H 1.873231 -5.005899 2.867905 0
M  V30 19 H 0.983806 -3.699353 1.040664 0
M  V30 20 H 1.742629 -1.152086 -0.661634 0
M  V30 21 H 1.549741 1.792133 -0.400665 0
M  V30 22 H 0.648672 2.774938 -1.569927 0
M  V30 23 H 1.116788 1.145326 -2.085451 0
M  V30 24 H -4.460508 1.902345 -0.602997 0
M  V30 25 H -4.492187 0.670118 0.704135 0
M  V30 26 H -4.443073 0.086061 -0.981977 0
M  V30 27 H -2.332690 -0.786844 1.139523 0
M  V30 28 H 3.530322 -0.432431 2.108890 0
M  V30 END ATOM
M  V30 BEGIN BOND
M  V30 1 2 1 2
M  V30 2 1 2 3
M  V30 3 2 3 4
M  V30 4 1 4 5
M  V30 5 1 5 6
M  V30 6 1 6 7
M  V30 7 2 7 8
M  V30 8 1 7 9
M  V30 9 2 9 10
M  V30 10 1 10 11
M  V30 11 1 10 12
M  V30 12 1 12 13
M  V30 13 1 13 14
M  V30 14 2 13 15
M  V30 15 2 5 16
M  V30 16 1 16 1
M  V30 17 1 15 9
M  V30 18 1 1 17
M  V30 19 1 3 18
M  V30 20 1 4 19
M  V30 21 1 6 20
M  V30 22 1 11 21
M  V30 23 1 11 22
M  V30 24 1 11 23
M  V30 25 1 14 24
M  V30 26 1 14 25
M  V30 27 1 14 26
M  V30 28 1 15 27
M  V30 29 1 16 28
M  V30 END BOND
M  V30 END CTAB
M  END
>  <Dataset>  (18) 
PDB

>  <Ligand_Instance>  (18) 
5N1L_47V_A_401

>  <PDB_ID>  (18) 
5N1L

>  <Standardized_SMILES>  (18) 
[H]C1=NC([H])=C([H])C(N([H])C(=O)C2=C(C([H])([H])[H])OC(C([H])([H])[H])=C2[H])=C1[H]

>  <Name>  (18) 
2,5-dimethyl-N-(pyridin-4-yl)furan-3-carboxamide

>  <Pocket>  (18) 
A

>  <ATP_Site>  (18) 
1.0

>  <Peripheral>  (18) 
0.0

>  <Num_H_Atoms_ProtBoundConf>  (18) 
12.0

>  <Num_Resolved_Atoms>  (18) 
16.0

>  <Num_Not_Resolved_Atoms>  (18) 
0.0

>  <2D_Mol_H>  (18) 
<rdkit.Chem.rdchem.Mol object at 0x72a238db7680>

>  <MW>  (18) 
216.24

>  <HBA>  (18) 
3

>  <HBD>  (18) 
1

>  <LogP>  (18) 
2.54374

>  <NRB>  (18) 
4

>  <TPSA>  (18) 
55.13

>  <Num_Heavy_Atoms>  (18) 
16

>  <Ro5>  (18) 
[True, True, True, True, True, True]

>  <Ro5_Fulfilled>  (18) 
True

>  <Ro3>  (18) 
[True, True, True, True]

>  <Ro3_Fulfilled>  (18) 
True

>  <Fsp3>  (18) 
0.166667

>  <Fsp3_0.42>  (18) 
False

>  <Fsp3_0.45>  (18) 
False

>  <Stereogenic_Carbons>  (18) 
0

>  <C_Atoms>  (18) 
12

>  <FCStereo>  (18) 
0.0

>  <SPS>  (18) 
162

>  <nSPS>  (18) 
10.125

>  <PBF>  (18) 
0.638233

>  <PBF_0.6>  (18) 
True

>  <nPBF>  (18) 
0.03989

>  <nPBF_0.016>  (18) 
True

>  <PMI1>  (18) 
348.283631

>  <PMI2>  (18) 
1991.010078

>  <PMI3>  (18) 
2196.716286

>  <NPR1>  (18) 
0.158547

>  <NPR2>  (18) 
0.906357

>  <Sum_NPR>  (18) 
1.064905

>  <Sum_NPR_1.07>  (18) 
False

>  <Sum_NPR_1.2>  (18) 
False

>  <MaxAbsEStateIndex>  (18) 
11.856725

>  <MaxEStateIndex>  (18) 
11.856725

>  <MinAbsEStateIndex>  (18) 
0.166157

>  <MinEStateIndex>  (18) 
-0.166157

>  <qed>  (18) 
0.838789

>  <MolWt>  (18) 
216.24

>  <HeavyAtomMolWt>  (18) 
204.144

>  <ExactMolWt>  (18) 
216.089878

>  <NumValenceElectrons>  (18) 
82

>  <NumRadicalElectrons>  (18) 
0

>  <MaxPartialCharge>  (18) 
0.258711

>  <MinPartialCharge>  (18) 
-0.465826

>  <MaxAbsPartialCharge>  (18) 
0.465826

>  <MinAbsPartialCharge>  (18) 
0.258711

>  <FpDensityMorgan1>  (18) 
1.3125

>  <FpDensityMorgan2>  (18) 
2.0

>  <FpDensityMorgan3>  (18) 
2.5625

>  <BCUT2D_MWHI>  (18) 
16.341979

>  <BCUT2D_MWLOW>  (18) 
10.203264

>  <BCUT2D_CHGHI>  (18) 
2.126236

>  <BCUT2D_CHGLO>  (18) 
-2.022205

>  <BCUT2D_LOGPHI>  (18) 
2.15154

>  <BCUT2D_LOGPLOW>  (18) 
-2.114497

>  <BCUT2D_MRHI>  (18) 
6.044799

>  <BCUT2D_MRLOW>  (18) 
0.10207

>  <AvgIpc>  (18) 
2.59189

>  <BalabanJ>  (18) 
2.180494

>  <BertzCT>  (18) 
502.992242

>  <Chi0>  (18) 
11.543606

>  <Chi0n>  (18) 
9.150462

>  <Chi0v>  (18) 
9.150462

>  <Chi1>  (18) 
7.664704

>  <Chi1n>  (18) 
4.950137

>  <Chi1v>  (18) 
4.950137

>  <Chi2n>  (18) 
3.516924

>  <Chi2v>  (18) 
3.516924

>  <Chi3n>  (18) 
2.22379

>  <Chi3v>  (18) 
2.22379

>  <Chi4n>  (18) 
1.489921

>  <Chi4v>  (18) 
1.489921

>  <HallKierAlpha>  (18) 
-2.1

>  <Ipc>  (18) 
5722.892821

>  <Kappa1>  (18) 
10.418896

>  <Kappa2>  (18) 
4.182068

>  <Kappa3>  (18) 
2.107659

>  <LabuteASA>  (18) 
93.308685

>  <PEOE_VSA1>  (18) 
9.73394

>  <PEOE_VSA10>  (18) 
11.520495

>  <PEOE_VSA11>  (18) 
0.0

>  <PEOE_VSA12>  (18) 
0.0

>  <PEOE_VSA13>  (18) 
5.90718

>  <PEOE_VSA14>  (18) 
0.0

>  <PEOE_VSA2>  (18) 
9.778516

>  <PEOE_VSA3>  (18) 
0.0

>  <PEOE_VSA4>  (18) 
0.0

>  <PEOE_VSA5>  (18) 
0.0

>  <PEOE_VSA6>  (18) 
0.0

>  <PEOE_VSA7>  (18) 
32.046576

>  <PEOE_VSA8>  (18) 
18.081073

>  <PEOE_VSA9>  (18) 
5.563451

>  <SMR_VSA1>  (18) 
9.211688

>  <SMR_VSA10>  (18) 
11.594566

>  <SMR_VSA2>  (18) 
0.0

>  <SMR_VSA3>  (18) 
4.983979

>  <SMR_VSA4>  (18) 
0.0

>  <SMR_VSA5>  (18) 
13.847474

>  <SMR_VSA6>  (18) 
5.316789

>  <SMR_VSA7>  (18) 
47.676735

>  <SMR_VSA8>  (18) 
0.0

>  <SMR_VSA9>  (18) 
0.0

>  <SlogP_VSA1>  (18) 
5.316789

>  <SlogP_VSA10>  (18) 
5.687386

>  <SlogP_VSA11>  (18) 
0.0

>  <SlogP_VSA12>  (18) 
0.0

>  <SlogP_VSA2>  (18) 
10.891158

>  <SlogP_VSA3>  (18) 
0.0

>  <SlogP_VSA4>  (18) 
13.847474

>  <SlogP_VSA5>  (18) 
21.878484

>  <SlogP_VSA6>  (18) 
35.009939

>  <SlogP_VSA7>  (18) 
0.0

>  <SlogP_VSA8>  (18) 
0.0

>  <SlogP_VSA9>  (18) 
0.0

>  <EState_VSA1>  (18) 
0.0

>  <EState_VSA10>  (18) 
4.794537

>  <EState_VSA11>  (18) 
0.0

>  <EState_VSA2>  (18) 
5.90718

>  <EState_VSA3>  (18) 
11.323699

>  <EState_VSA4>  (18) 
11.447634

>  <EState_VSA5>  (18) 
0.0

>  <EState_VSA6>  (18) 
37.516526

>  <EState_VSA7>  (18) 
6.923737

>  <EState_VSA8>  (18) 
10.300767

>  <EState_VSA9>  (18) 
4.417151

>  <VSA_EState1>  (18) 
5.300152

>  <VSA_EState10>  (18) 
0.0

>  <VSA_EState2>  (18) 
15.733988

>  <VSA_EState3>  (18) 
2.773426

>  <VSA_EState4>  (18) 
1.284783

>  <VSA_EState5>  (18) 
1.196282

>  <VSA_EState6>  (18) 
5.200599

>  <VSA_EState7>  (18) 
3.256129

>  <VSA_EState8>  (18) 
3.587976

>  <VSA_EState9>  (18) 
0.0

>  <FractionCSP3>  (18) 
0.166667

>  <HeavyAtomCount>  (18) 
16

>  <NHOHCount>  (18) 
1

>  <NOCount>  (18) 
4

>  <NumAliphaticCarbocycles>  (18) 
0

>  <NumAliphaticHeterocycles>  (18) 
0

>  <NumAliphaticRings>  (18) 
0

>  <NumAromaticCarbocycles>  (18) 
0

>  <NumAromaticHeterocycles>  (18) 
2

>  <NAR>  (18) 
2

>  <NumHAcceptors>  (18) 
3

>  <NumHDonors>  (18) 
1

>  <NumHeteroatoms>  (18) 
4

>  <NumRotatableBonds>  (18) 
2

>  <NumSaturatedCarbocycles>  (18) 
0

>  <NumSaturatedHeterocycles>  (18) 
0

>  <NumSaturatedRings>  (18) 
0

>  <RingCount>  (18) 
2

>  <MolLogP>  (18) 
2.54374

>  <MolMR>  (18) 
60.3722

>  <fr_Al_COO>  (18) 
0

>  <fr_Al_OH>  (18) 
0

>  <fr_Al_OH_noTert>  (18) 
0

>  <fr_ArN>  (18) 
0

>  <fr_Ar_COO>  (18) 
0

>  <fr_Ar_N>  (18) 
1

>  <fr_Ar_NH>  (18) 
0

>  <fr_Ar_OH>  (18) 
0

>  <fr_COO>  (18) 
0

>  <fr_COO2>  (18) 
0

>  <fr_C_O>  (18) 
1

>  <fr_C_O_noCOO>  (18) 
1

>  <fr_C_S>  (18) 
0

>  <fr_HOCCN>  (18) 
0

>  <fr_Imine>  (18) 
0

>  <fr_NH0>  (18) 
1

>  <fr_NH1>  (18) 
1

>  <fr_NH2>  (18) 
0

>  <fr_N_O>  (18) 
0

>  <fr_Ndealkylation1>  (18) 
0

>  <fr_Ndealkylation2>  (18) 
0

>  <fr_Nhpyrrole>  (18) 
0

>  <fr_SH>  (18) 
0

>  <fr_aldehyde>  (18) 
0

>  <fr_alkyl_carbamate>  (18) 
0

>  <fr_alkyl_halide>  (18) 
0

>  <fr_allylic_oxid>  (18) 
0

>  <fr_amide>  (18) 
1

>  <fr_amidine>  (18) 
0

>  <fr_aniline>  (18) 
1

>  <fr_aryl_methyl>  (18) 
2

>  <fr_azide>  (18) 
0

>  <fr_azo>  (18) 
0

>  <fr_barbitur>  (18) 
0

>  <fr_benzene>  (18) 
0

>  <fr_benzodiazepine>  (18) 
0

>  <fr_bicyclic>  (18) 
0

>  <fr_diazo>  (18) 
0

>  <fr_dihydropyridine>  (18) 
0

>  <fr_epoxide>  (18) 
0

>  <fr_ester>  (18) 
0

>  <fr_ether>  (18) 
0

>  <fr_furan>  (18) 
1

>  <fr_guanido>  (18) 
0

>  <fr_halogen>  (18) 
0

>  <fr_hdrzine>  (18) 
0

>  <fr_hdrzone>  (18) 
0

>  <fr_imidazole>  (18) 
0

>  <fr_imide>  (18) 
0

>  <fr_isocyan>  (18) 
0

>  <fr_isothiocyan>  (18) 
0

>  <fr_ketone>  (18) 
0

>  <fr_ketone_Topliss>  (18) 
0

>  <fr_lactam>  (18) 
0

>  <fr_lactone>  (18) 
0

>  <fr_methoxy>  (18) 
0

>  <fr_morpholine>  (18) 
0

>  <fr_nitrile>  (18) 
0

>  <fr_nitro>  (18) 
0

>  <fr_nitro_arom>  (18) 
0

>  <fr_nitro_arom_nonortho>  (18) 
0

>  <fr_nitroso>  (18) 
0

>  <fr_oxazole>  (18) 
0

>  <fr_oxime>  (18) 
0

>  <fr_para_hydroxylation>  (18) 
0

>  <fr_phenol>  (18) 
0

>  <fr_phenol_noOrthoHbond>  (18) 
0

>  <fr_phos_acid>  (18) 
0

>  <fr_phos_ester>  (18) 
0

>  <fr_piperdine>  (18) 
0

>  <fr_piperzine>  (18) 
0

>  <fr_priamide>  (18) 
0

>  <fr_prisulfonamd>  (18) 
0

>  <fr_pyridine>  (18) 
1

>  <fr_quatN>  (18) 
0

>  <fr_sulfide>  (18) 
0

>  <fr_sulfonamd>  (18) 
0

>  <fr_sulfone>  (18) 
0

>  <fr_term_acetylene>  (18) 
0

>  <fr_tetrazole>  (18) 
0

>  <fr_thiazole>  (18) 
0

>  <fr_thiocyan>  (18) 
0

>  <fr_thiophene>  (18) 
0

>  <fr_unbrch_alkane>  (18) 
0

>  <fr_urea>  (18) 
0

>  <NP-Likeness>  (18) 
-1.832874

$$$$
489
     RDKit          3D

  0  0  0  0  0  0  0  0  0  0999 V3000
M  V30 BEGIN CTAB
M  V30 COUNTS 22 22 0 0 0
M  V30 BEGIN ATOM
M  V30 1 O 0.125199 1.885742 1.948935 0
M  V30 2 C 0.670896 0.584415 1.874922 0 CFG=1
M  V30 3 C -0.153878 -0.177626 0.929540 0
M  V30 4 C 0.426746 -0.976791 -0.038188 0
M  V30 5 C -0.429913 -1.642299 -0.866038 0
M  V30 6 C -1.813641 -1.602950 -0.840603 0
M  V30 7 F -2.524364 -2.323030 -1.732799 0
M  V30 8 C -2.356353 -0.794872 0.138645 0
M  V30 9 C -1.534147 -0.085233 1.019896 0
M  V30 10 C 2.118256 0.650980 1.443178 0
M  V30 11 N 2.876931 1.422478 2.392555 0 CHG=1 VAL=4
M  V30 12 H 0.685451 2.509731 1.464688 0
M  V30 13 H 0.632646 0.097132 2.871144 0
M  V30 14 H 1.497543 -1.079688 -0.146432 0
M  V30 15 H 0.021847 -2.274262 -1.631419 0
M  V30 16 H -3.435733 -0.742258 0.185285 0
M  V30 17 H -2.034971 0.531974 1.766437 0
M  V30 18 H 2.251269 1.048526 0.435569 0
M  V30 19 H 2.522718 -0.375978 1.473639 0
M  V30 20 H 2.581788 1.252591 3.366926 0
M  V30 21 H 3.889000 1.130778 2.264107 0
M  V30 22 H 2.869236 2.453057 2.196271 0
M  V30 END ATOM
M  V30 BEGIN BOND
M  V30 1 1 1 2
M  V30 2 1 2 3
M  V30 3 2 3 4
M  V30 4 1 4 5
M  V30 5 2 5 6
M  V30 6 1 6 7
M  V30 7 1 6 8
M  V30 8 2 8 9
M  V30 9 1 2 10
M  V30 10 1 10 11
M  V30 11 1 9 3
M  V30 12 1 1 12
M  V30 13 1 2 13 CFG=1
M  V30 14 1 4 14
M  V30 15 1 5 15
M  V30 16 1 8 16
M  V30 17 1 9 17
M  V30 18 1 10 18
M  V30 19 1 10 19
M  V30 20 1 11 20
M  V30 21 1 11 21
M  V30 22 1 11 22
M  V30 END BOND
M  V30 END CTAB
M  END
>  <Dataset>  (19) 
PDB

>  <Ligand_Instance>  (19) 
5N1K_489_A_401

>  <PDB_ID>  (19) 
5N1K

>  <Standardized_SMILES>  (19) 
[H]O[C@@]([H])(C1=C([H])C([H])=C(F)C([H])=C1[H])C([H])([H])[N+]([H])([H])[H]

>  <Name>  (19) 
(1S)-2-amino-1-(4-fluorophenyl)ethanol

>  <Pocket>  (19) 
A

>  <ATP_Site>  (19) 
1.0

>  <Peripheral>  (19) 
1.0

>  <Num_H_Atoms_ProtBoundConf>  (19) 
11.0

>  <Num_Resolved_Atoms>  (19) 
11.0

>  <Num_Not_Resolved_Atoms>  (19) 
0.0

>  <2D_Mol_H>  (19) 
<rdkit.Chem.rdchem.Mol object at 0x72a238db7760>

>  <MW>  (19) 
156.18

>  <HBA>  (19) 
1

>  <HBD>  (19) 
2

>  <LogP>  (19) 
0.101

>  <NRB>  (19) 
4

>  <TPSA>  (19) 
47.87

>  <Num_Heavy_Atoms>  (19) 
11

>  <Ro5>  (19) 
[True, True, True, True, True, True]

>  <Ro5_Fulfilled>  (19) 
True

>  <Ro3>  (19) 
[True, True, True, True]

>  <Ro3_Fulfilled>  (19) 
True

>  <Fsp3>  (19) 
0.25

>  <Fsp3_0.42>  (19) 
False

>  <Fsp3_0.45>  (19) 
False

>  <Stereogenic_Carbons>  (19) 
1

>  <C_Atoms>  (19) 
8

>  <FCStereo>  (19) 
0.125

>  <SPS>  (19) 
143

>  <nSPS>  (19) 
13.0

>  <PBF>  (19) 
0.389478

>  <PBF_0.6>  (19) 
False

>  <nPBF>  (19) 
0.035407

>  <nPBF_0.016>  (19) 
True

>  <PMI1>  (19) 
158.972683

>  <PMI2>  (19) 
934.142709

>  <PMI3>  (19) 
1064.569424

>  <NPR1>  (19) 
0.14933

>  <NPR2>  (19) 
0.877484

>  <Sum_NPR>  (19) 
1.026815

>  <Sum_NPR_1.07>  (19) 
False

>  <Sum_NPR_1.2>  (19) 
False

>  <MaxAbsEStateIndex>  (19) 
12.35678

>  <MaxEStateIndex>  (19) 
12.35678

>  <MinAbsEStateIndex>  (19) 
0.287026

>  <MinEStateIndex>  (19) 
-0.573519

>  <qed>  (19) 
0.626522

>  <MolWt>  (19) 
156.18

>  <HeavyAtomMolWt>  (19) 
145.092

>  <ExactMolWt>  (19) 
156.081919

>  <NumValenceElectrons>  (19) 
60

>  <NumRadicalElectrons>  (19) 
0

>  <MaxPartialCharge>  (19) 
0.127634

>  <MinPartialCharge>  (19) 
-0.382496

>  <MaxAbsPartialCharge>  (19) 
0.382496

>  <MinAbsPartialCharge>  (19) 
0.127634

>  <FpDensityMorgan1>  (19) 
1.363636

>  <FpDensityMorgan2>  (19) 
1.909091

>  <FpDensityMorgan3>  (19) 
2.363636

>  <BCUT2D_MWHI>  (19) 
19.142139

>  <BCUT2D_MWLOW>  (19) 
10.112208

>  <BCUT2D_CHGHI>  (19) 
2.048621

>  <BCUT2D_CHGLO>  (19) 
-2.037901

>  <BCUT2D_LOGPHI>  (19) 
2.101536

>  <BCUT2D_LOGPLOW>  (19) 
-2.524409

>  <BCUT2D_MRHI>  (19) 
5.176722

>  <BCUT2D_MRLOW>  (19) 
-0.384658

>  <AvgIpc>  (19) 
2.045606

>  <BalabanJ>  (19) 
2.805745

>  <BertzCT>  (19) 
222.038597

>  <Chi0>  (19) 
8.267585

>  <Chi0n>  (19) 
6.126143

>  <Chi0v>  (19) 
6.126143

>  <Chi1>  (19) 
5.236382

>  <Chi1n>  (19) 
3.465472

>  <Chi1v>  (19) 
3.465472

>  <Chi2n>  (19) 
2.356024

>  <Chi2v>  (19) 
2.356024

>  <Chi3n>  (19) 
1.528216

>  <Chi3v>  (19) 
1.528216

>  <Chi4n>  (19) 
0.851596

>  <Chi4v>  (19) 
0.851596

>  <HallKierAlpha>  (19) 
-0.93

>  <Ipc>  (19) 
335.47939

>  <Kappa1>  (19) 
8.169305

>  <Kappa2>  (19) 
3.457826

>  <Kappa3>  (19) 
1.996272

>  <LabuteASA>  (19) 
64.460947

>  <PEOE_VSA1>  (19) 
10.840195

>  <PEOE_VSA10>  (19) 
18.465944

>  <PEOE_VSA11>  (19) 
0.0

>  <PEOE_VSA12>  (19) 
0.0

>  <PEOE_VSA13>  (19) 
0.0

>  <PEOE_VSA14>  (19) 
0.0

>  <PEOE_VSA2>  (19) 
0.0

>  <PEOE_VSA3>  (19) 
4.390415

>  <PEOE_VSA4>  (19) 
0.0

>  <PEOE_VSA5>  (19) 
0.0

>  <PEOE_VSA6>  (19) 
12.132734

>  <PEOE_VSA7>  (19) 
17.696186

>  <PEOE_VSA8>  (19) 
0.0

>  <PEOE_VSA9>  (19) 
0.0

>  <SMR_VSA1>  (19) 
15.23061

>  <SMR_VSA10>  (19) 
0.0

>  <SMR_VSA2>  (19) 
0.0

>  <SMR_VSA3>  (19) 
0.0

>  <SMR_VSA4>  (19) 
0.0

>  <SMR_VSA5>  (19) 
6.103966

>  <SMR_VSA6>  (19) 
6.544756

>  <SMR_VSA7>  (19) 
35.646141

>  <SMR_VSA8>  (19) 
0.0

>  <SMR_VSA9>  (19) 
0.0

>  <SlogP_VSA1>  (19) 
5.733667

>  <SlogP_VSA10>  (19) 
4.390415

>  <SlogP_VSA11>  (19) 
0.0

>  <SlogP_VSA12>  (19) 
0.0

>  <SlogP_VSA2>  (19) 
11.651284

>  <SlogP_VSA3>  (19) 
0.0

>  <SlogP_VSA4>  (19) 
5.817221

>  <SlogP_VSA5>  (19) 
11.667418

>  <SlogP_VSA6>  (19) 
24.265468

>  <SlogP_VSA7>  (19) 
0.0

>  <SlogP_VSA8>  (19) 
0.0

>  <SlogP_VSA9>  (19) 
0.0

>  <EState_VSA1>  (19) 
6.103966

>  <EState_VSA10>  (19) 
9.496942

>  <EState_VSA11>  (19) 
0.0

>  <EState_VSA2>  (19) 
5.817221

>  <EState_VSA3>  (19) 
12.108208

>  <EState_VSA4>  (19) 
0.0

>  <EState_VSA5>  (19) 
12.132734

>  <EState_VSA6>  (19) 
12.132734

>  <EState_VSA7>  (19) 
0.0

>  <EState_VSA8>  (19) 
5.733667

>  <EState_VSA9>  (19) 
0.0

>  <VSA_EState1>  (19) 
12.35678

>  <VSA_EState10>  (19) 
0.0

>  <VSA_EState2>  (19) 
0.0

>  <VSA_EState3>  (19) 
9.235202

>  <VSA_EState4>  (19) 
4.25029

>  <VSA_EState5>  (19) 
-0.287026

>  <VSA_EState6>  (19) 
5.776574

>  <VSA_EState7>  (19) 
-0.573519

>  <VSA_EState8>  (19) 
0.408365

>  <VSA_EState9>  (19) 
0.0

>  <FractionCSP3>  (19) 
0.25

>  <HeavyAtomCount>  (19) 
11

>  <NHOHCount>  (19) 
4

>  <NOCount>  (19) 
2

>  <NumAliphaticCarbocycles>  (19) 
0

>  <NumAliphaticHeterocycles>  (19) 
0

>  <NumAliphaticRings>  (19) 
0

>  <NumAromaticCarbocycles>  (19) 
1

>  <NumAromaticHeterocycles>  (19) 
0

>  <NAR>  (19) 
1

>  <NumHAcceptors>  (19) 
1

>  <NumHDonors>  (19) 
2

>  <NumHeteroatoms>  (19) 
3

>  <NumRotatableBonds>  (19) 
2

>  <NumSaturatedCarbocycles>  (19) 
0

>  <NumSaturatedHeterocycles>  (19) 
0

>  <NumSaturatedRings>  (19) 
0

>  <RingCount>  (19) 
1

>  <MolLogP>  (19) 
0.101

>  <MolMR>  (19) 
39.1149

>  <fr_Al_COO>  (19) 
0

>  <fr_Al_OH>  (19) 
1

>  <fr_Al_OH_noTert>  (19) 
1

>  <fr_ArN>  (19) 
0

>  <fr_Ar_COO>  (19) 
0

>  <fr_Ar_N>  (19) 
0

>  <fr_Ar_NH>  (19) 
0

>  <fr_Ar_OH>  (19) 
0

>  <fr_COO>  (19) 
0

>  <fr_COO2>  (19) 
0

>  <fr_C_O>  (19) 
0

>  <fr_C_O_noCOO>  (19) 
0

>  <fr_C_S>  (19) 
0

>  <fr_HOCCN>  (19) 
0

>  <fr_Imine>  (19) 
0

>  <fr_NH0>  (19) 
0

>  <fr_NH1>  (19) 
0

>  <fr_NH2>  (19) 
0

>  <fr_N_O>  (19) 
0

>  <fr_Ndealkylation1>  (19) 
0

>  <fr_Ndealkylation2>  (19) 
0

>  <fr_Nhpyrrole>  (19) 
0

>  <fr_SH>  (19) 
0

>  <fr_aldehyde>  (19) 
0

>  <fr_alkyl_carbamate>  (19) 
0

>  <fr_alkyl_halide>  (19) 
0

>  <fr_allylic_oxid>  (19) 
0

>  <fr_amide>  (19) 
0

>  <fr_amidine>  (19) 
0

>  <fr_aniline>  (19) 
0

>  <fr_aryl_methyl>  (19) 
0

>  <fr_azide>  (19) 
0

>  <fr_azo>  (19) 
0

>  <fr_barbitur>  (19) 
0

>  <fr_benzene>  (19) 
1

>  <fr_benzodiazepine>  (19) 
0

>  <fr_bicyclic>  (19) 
0

>  <fr_diazo>  (19) 
0

>  <fr_dihydropyridine>  (19) 
0

>  <fr_epoxide>  (19) 
0

>  <fr_ester>  (19) 
0

>  <fr_ether>  (19) 
0

>  <fr_furan>  (19) 
0

>  <fr_guanido>  (19) 
0

>  <fr_halogen>  (19) 
1

>  <fr_hdrzine>  (19) 
0

>  <fr_hdrzone>  (19) 
0

>  <fr_imidazole>  (19) 
0

>  <fr_imide>  (19) 
0

>  <fr_isocyan>  (19) 
0

>  <fr_isothiocyan>  (19) 
0

>  <fr_ketone>  (19) 
0

>  <fr_ketone_Topliss>  (19) 
0

>  <fr_lactam>  (19) 
0

>  <fr_lactone>  (19) 
0

>  <fr_methoxy>  (19) 
0

>  <fr_morpholine>  (19) 
0

>  <fr_nitrile>  (19) 
0

>  <fr_nitro>  (19) 
0

>  <fr_nitro_arom>  (19) 
0

>  <fr_nitro_arom_nonortho>  (19) 
0

>  <fr_nitroso>  (19) 
0

>  <fr_oxazole>  (19) 
0

>  <fr_oxime>  (19) 
0

>  <fr_para_hydroxylation>  (19) 
0

>  <fr_phenol>  (19) 
0

>  <fr_phenol_noOrthoHbond>  (19) 
0

>  <fr_phos_acid>  (19) 
0

>  <fr_phos_ester>  (19) 
0

>  <fr_piperdine>  (19) 
0

>  <fr_piperzine>  (19) 
0

>  <fr_priamide>  (19) 
0

>  <fr_prisulfonamd>  (19) 
0

>  <fr_pyridine>  (19) 
0

>  <fr_quatN>  (19) 
1

>  <fr_sulfide>  (19) 
0

>  <fr_sulfonamd>  (19) 
0

>  <fr_sulfone>  (19) 
0

>  <fr_term_acetylene>  (19) 
0

>  <fr_tetrazole>  (19) 
0

>  <fr_thiazole>  (19) 
0

>  <fr_thiocyan>  (19) 
0

>  <fr_thiophene>  (19) 
0

>  <fr_unbrch_alkane>  (19) 
0

>  <fr_urea>  (19) 
0

>  <NP-Likeness>  (19) 
-0.743339

$$$$
495
     RDKit          3D

  0  0  0  0  0  0  0  0  0  0999 V3000
M  V30 BEGIN CTAB
M  V30 COUNTS 17 18 0 0 0
M  V30 BEGIN ATOM
M  V30 1 C -0.758264 1.390665 1.985467 0
M  V30 2 C -0.176654 0.668081 3.002063 0
M  V30 3 C 0.944475 -0.107223 2.760084 0
M  V30 4 C 1.517121 -0.184285 1.499464 0
M  V30 5 C 2.629873 -0.947027 1.235151 0
M  V30 6 Cl 3.362647 -1.868887 2.556969 0
M  V30 7 N 3.112751 -0.956850 -0.024473 0
M  V30 8 N 2.507270 -0.237570 -0.965267 0
M  V30 9 C 1.424554 0.528920 -0.794855 0
M  V30 10 O 0.941075 1.164550 -1.764541 0
M  V30 11 C 0.928694 0.542059 0.487749 0
M  V30 12 C -0.203289 1.325402 0.730155 0
M  V30 13 H -1.629140 1.981052 2.215715 0
M  V30 14 H -0.615909 0.720975 3.991182 0
M  V30 15 H 1.421212 -0.684830 3.541009 0
M  V30 16 H 2.952853 -0.308860 -1.905771 0
M  V30 17 H -0.642319 1.880883 -0.073075 0
M  V30 END ATOM
M  V30 BEGIN BOND
M  V30 1 2 1 2
M  V30 2 1 2 3
M  V30 3 2 3 4
M  V30 4 1 4 5
M  V30 5 1 5 6
M  V30 6 2 5 7
M  V30 7 1 7 8
M  V30 8 1 8 9
M  V30 9 2 9 10
M  V30 10 1 9 11
M  V30 11 2 11 12
M  V30 12 1 12 1
M  V30 13 1 11 4
M  V30 14 1 1 13
M  V30 15 1 2 14
M  V30 16 1 3 15
M  V30 17 1 8 16
M  V30 18 1 12 17
M  V30 END BOND
M  V30 END CTAB
M  END
>  <Dataset>  (20) 
PDB

>  <Ligand_Instance>  (20) 
5BX6_495_A_401

>  <PDB_ID>  (20) 
5BX6

>  <Standardized_SMILES>  (20) 
[H]C1=C([H])C([H])=C2C(Cl)=NN([H])C(=O)C2=C1[H]

>  <Name>  (20) 
4-chlorophthalazin-1(2H)-one

>  <Pocket>  (20) 
A

>  <ATP_Site>  (20) 
1.0

>  <Peripheral>  (20) 
0.0

>  <Num_H_Atoms_ProtBoundConf>  (20) 
5.0

>  <Num_Resolved_Atoms>  (20) 
12.0

>  <Num_Not_Resolved_Atoms>  (20) 
0.0

>  <2D_Mol_H>  (20) 
<rdkit.Chem.rdchem.Mol object at 0x72a238db7840>

>  <MW>  (20) 
180.594

>  <HBA>  (20) 
2

>  <HBD>  (20) 
1

>  <LogP>  (20) 
1.5765

>  <NRB>  (20) 
0

>  <TPSA>  (20) 
45.75

>  <Num_Heavy_Atoms>  (20) 
12

>  <Ro5>  (20) 
[True, True, True, True, True, True]

>  <Ro5_Fulfilled>  (20) 
True

>  <Ro3>  (20) 
[True, True, True, True]

>  <Ro3_Fulfilled>  (20) 
True

>  <Fsp3>  (20) 
0.0

>  <Fsp3_0.42>  (20) 
False

>  <Fsp3_0.45>  (20) 
False

>  <Stereogenic_Carbons>  (20) 
0

>  <C_Atoms>  (20) 
8

>  <FCStereo>  (20) 
0.0

>  <SPS>  (20) 
125

>  <nSPS>  (20) 
10.416667

>  <PBF>  (20) 
0.000005

>  <PBF_0.6>  (20) 
False

>  <nPBF>  (20) 
0.0

>  <nPBF_0.016>  (20) 
False

>  <PMI1>  (20) 
426.754714

>  <PMI2>  (20) 
603.651975

>  <PMI3>  (20) 
1030.406689

>  <NPR1>  (20) 
0.414161

>  <NPR2>  (20) 
0.585839

>  <Sum_NPR>  (20) 
1.0

>  <Sum_NPR_1.07>  (20) 
False

>  <Sum_NPR_1.2>  (20) 
False

>  <MaxAbsEStateIndex>  (20) 
11.154228

>  <MaxEStateIndex>  (20) 
11.154228

>  <MinAbsEStateIndex>  (20) 
0.212963

>  <MinEStateIndex>  (20) 
-0.212963

>  <qed>  (20) 
0.669193

>  <MolWt>  (20) 
180.594

>  <HeavyAtomMolWt>  (20) 
175.554

>  <ExactMolWt>  (20) 
180.00904

>  <NumValenceElectrons>  (20) 
60

>  <NumRadicalElectrons>  (20) 
0

>  <MaxPartialCharge>  (20) 
0.271634

>  <MinPartialCharge>  (20) 
-0.267336

>  <MaxAbsPartialCharge>  (20) 
0.271634

>  <MinAbsPartialCharge>  (20) 
0.267336

>  <FpDensityMorgan1>  (20) 
1.25

>  <FpDensityMorgan2>  (20) 
1.916667

>  <FpDensityMorgan3>  (20) 
2.583333

>  <BCUT2D_MWHI>  (20) 
35.495696

>  <BCUT2D_MWLOW>  (20) 
10.188594

>  <BCUT2D_CHGHI>  (20) 
2.007469

>  <BCUT2D_CHGLO>  (20) 
-1.95107

>  <BCUT2D_LOGPHI>  (20) 
2.152857

>  <BCUT2D_LOGPLOW>  (20) 
-2.072566

>  <BCUT2D_MRHI>  (20) 
6.335474

>  <BCUT2D_MRLOW>  (20) 
1.011346

>  <AvgIpc>  (20) 
2.122552

>  <BalabanJ>  (20) 
3.048407

>  <BertzCT>  (20) 
477.686709

>  <Chi0>  (20) 
8.552042

>  <Chi0n>  (20) 
6.042827

>  <Chi0v>  (20) 
6.798756

>  <Chi1>  (20) 
5.787694

>  <Chi1n>  (20) 
3.41767

>  <Chi1v>  (20) 
3.795635

>  <Chi2n>  (20) 
2.389125

>  <Chi2v>  (20) 
2.747138

>  <Chi3n>  (20) 
1.649549

>  <Chi3v>  (20) 
1.937664

>  <Chi4n>  (20) 
1.081314

>  <Chi4v>  (20) 
1.288366

>  <HallKierAlpha>  (20) 
-1.35

>  <Ipc>  (20) 
768.36393

>  <Kappa1>  (20) 
7.307223

>  <Kappa2>  (20) 
2.60454

>  <Kappa3>  (20) 
0.98674

>  <LabuteASA>  (20) 
72.985606

>  <PEOE_VSA1>  (20) 
0.0

>  <PEOE_VSA10>  (20) 
0.0

>  <PEOE_VSA11>  (20) 
5.15311

>  <PEOE_VSA12>  (20) 
0.0

>  <PEOE_VSA13>  (20) 
5.559267

>  <PEOE_VSA14>  (20) 
0.0

>  <PEOE_VSA2>  (20) 
4.794537

>  <PEOE_VSA3>  (20) 
5.098682

>  <PEOE_VSA4>  (20) 
5.098682

>  <PEOE_VSA5>  (20) 
0.0

>  <PEOE_VSA6>  (20) 
29.800041

>  <PEOE_VSA7>  (20) 
6.066367

>  <PEOE_VSA8>  (20) 
5.386224

>  <PEOE_VSA9>  (20) 
5.386224

>  <SMR_VSA1>  (20) 
0.0

>  <SMR_VSA10>  (20) 
22.373388

>  <SMR_VSA2>  (20) 
0.0

>  <SMR_VSA3>  (20) 
10.197364

>  <SMR_VSA4>  (20) 
0.0

>  <SMR_VSA5>  (20) 
0.0

>  <SMR_VSA6>  (20) 
0.0

>  <SMR_VSA7>  (20) 
39.772382

>  <SMR_VSA8>  (20) 
0.0

>  <SMR_VSA9>  (20) 
0.0

>  <SlogP_VSA1>  (20) 
5.559267

>  <SlogP_VSA10>  (20) 
0.0

>  <SlogP_VSA11>  (20) 
0.0

>  <SlogP_VSA12>  (20) 
11.60094

>  <SlogP_VSA2>  (20) 
10.197364

>  <SlogP_VSA3>  (20) 
0.0

>  <SlogP_VSA4>  (20) 
0.0

>  <SlogP_VSA5>  (20) 
0.0

>  <SlogP_VSA6>  (20) 
29.060005

>  <SlogP_VSA7>  (20) 
5.15311

>  <SlogP_VSA8>  (20) 
10.772448

>  <SlogP_VSA9>  (20) 
0.0

>  <EState_VSA1>  (20) 
0.0

>  <EState_VSA10>  (20) 
4.794537

>  <EState_VSA11>  (20) 
0.0

>  <EState_VSA2>  (20) 
5.559267

>  <EState_VSA3>  (20) 
15.925558

>  <EState_VSA4>  (20) 
0.0

>  <EState_VSA5>  (20) 
0.0

>  <EState_VSA6>  (20) 
18.199101

>  <EState_VSA7>  (20) 
6.066367

>  <EState_VSA8>  (20) 
10.197364

>  <EState_VSA9>  (20) 
11.60094

>  <VSA_EState1>  (20) 
0.0

>  <VSA_EState10>  (20) 
5.747762

>  <VSA_EState2>  (20) 
11.154228

>  <VSA_EState3>  (20) 
7.514475

>  <VSA_EState4>  (20) 
-0.212963

>  <VSA_EState5>  (20) 
0.0

>  <VSA_EState6>  (20) 
7.074275

>  <VSA_EState7>  (20) 
0.0

>  <VSA_EState8>  (20) 
0.0

>  <VSA_EState9>  (20) 
0.0

>  <FractionCSP3>  (20) 
0.0

>  <HeavyAtomCount>  (20) 
12

>  <NHOHCount>  (20) 
1

>  <NOCount>  (20) 
3

>  <NumAliphaticCarbocycles>  (20) 
0

>  <NumAliphaticHeterocycles>  (20) 
0

>  <NumAliphaticRings>  (20) 
0

>  <NumAromaticCarbocycles>  (20) 
1

>  <NumAromaticHeterocycles>  (20) 
1

>  <NAR>  (20) 
2

>  <NumHAcceptors>  (20) 
2

>  <NumHDonors>  (20) 
1

>  <NumHeteroatoms>  (20) 
4

>  <NumRotatableBonds>  (20) 
0

>  <NumSaturatedCarbocycles>  (20) 
0

>  <NumSaturatedHeterocycles>  (20) 
0

>  <NumSaturatedRings>  (20) 
0

>  <RingCount>  (20) 
2

>  <MolLogP>  (20) 
1.5765

>  <MolMR>  (20) 
47.3737

>  <fr_Al_COO>  (20) 
0

>  <fr_Al_OH>  (20) 
0

>  <fr_Al_OH_noTert>  (20) 
0

>  <fr_ArN>  (20) 
0

>  <fr_Ar_COO>  (20) 
0

>  <fr_Ar_N>  (20) 
2

>  <fr_Ar_NH>  (20) 
1

>  <fr_Ar_OH>  (20) 
0

>  <fr_COO>  (20) 
0

>  <fr_COO2>  (20) 
0

>  <fr_C_O>  (20) 
0

>  <fr_C_O_noCOO>  (20) 
0

>  <fr_C_S>  (20) 
0

>  <fr_HOCCN>  (20) 
0

>  <fr_Imine>  (20) 
0

>  <fr_NH0>  (20) 
1

>  <fr_NH1>  (20) 
1

>  <fr_NH2>  (20) 
0

>  <fr_N_O>  (20) 
0

>  <fr_Ndealkylation1>  (20) 
0

>  <fr_Ndealkylation2>  (20) 
0

>  <fr_Nhpyrrole>  (20) 
1

>  <fr_SH>  (20) 
0

>  <fr_aldehyde>  (20) 
0

>  <fr_alkyl_carbamate>  (20) 
0

>  <fr_alkyl_halide>  (20) 
0

>  <fr_allylic_oxid>  (20) 
0

>  <fr_amide>  (20) 
0

>  <fr_amidine>  (20) 
0

>  <fr_aniline>  (20) 
0

>  <fr_aryl_methyl>  (20) 
0

>  <fr_azide>  (20) 
0

>  <fr_azo>  (20) 
0

>  <fr_barbitur>  (20) 
0

>  <fr_benzene>  (20) 
1

>  <fr_benzodiazepine>  (20) 
0

>  <fr_bicyclic>  (20) 
1

>  <fr_diazo>  (20) 
0

>  <fr_dihydropyridine>  (20) 
0

>  <fr_epoxide>  (20) 
0

>  <fr_ester>  (20) 
0

>  <fr_ether>  (20) 
0

>  <fr_furan>  (20) 
0

>  <fr_guanido>  (20) 
0

>  <fr_halogen>  (20) 
1

>  <fr_hdrzine>  (20) 
0

>  <fr_hdrzone>  (20) 
0

>  <fr_imidazole>  (20) 
0

>  <fr_imide>  (20) 
0

>  <fr_isocyan>  (20) 
0

>  <fr_isothiocyan>  (20) 
0

>  <fr_ketone>  (20) 
0

>  <fr_ketone_Topliss>  (20) 
0

>  <fr_lactam>  (20) 
0

>  <fr_lactone>  (20) 
0

>  <fr_methoxy>  (20) 
0

>  <fr_morpholine>  (20) 
0

>  <fr_nitrile>  (20) 
0

>  <fr_nitro>  (20) 
0

>  <fr_nitro_arom>  (20) 
0

>  <fr_nitro_arom_nonortho>  (20) 
0

>  <fr_nitroso>  (20) 
0

>  <fr_oxazole>  (20) 
0

>  <fr_oxime>  (20) 
0

>  <fr_para_hydroxylation>  (20) 
0

>  <fr_phenol>  (20) 
0

>  <fr_phenol_noOrthoHbond>  (20) 
0

>  <fr_phos_acid>  (20) 
0

>  <fr_phos_ester>  (20) 
0

>  <fr_piperdine>  (20) 
0

>  <fr_piperzine>  (20) 
0

>  <fr_priamide>  (20) 
0

>  <fr_prisulfonamd>  (20) 
0

>  <fr_pyridine>  (20) 
0

>  <fr_quatN>  (20) 
0

>  <fr_sulfide>  (20) 
0

>  <fr_sulfonamd>  (20) 
0

>  <fr_sulfone>  (20) 
0

>  <fr_term_acetylene>  (20) 
0

>  <fr_tetrazole>  (20) 
0

>  <fr_thiazole>  (20) 
0

>  <fr_thiocyan>  (20) 
0

>  <fr_thiophene>  (20) 
0

>  <fr_unbrch_alkane>  (20) 
0

>  <fr_urea>  (20) 
0

>  <NP-Likeness>  (20) 
-1.431004

$$$$
4L7
     RDKit          3D

  0  0  0  0  0  0  0  0  0  0999 V3000
M  V30 BEGIN CTAB
M  V30 COUNTS 39 42 0 0 0
M  V30 BEGIN ATOM
M  V30 1 C -0.049822 -3.042551 4.946702 0
M  V30 2 N 0.544246 -2.601732 3.818525 0
M  V30 3 C -0.161138 -2.097000 2.791337 0
M  V30 4 C 0.443082 -1.636732 1.616132 0
M  V30 5 C -0.297952 -1.115687 0.558007 0
M  V30 6 C 0.515439 -0.679304 -0.585490 0 CFG=1
M  V30 7 C 0.363317 -1.697755 -1.691518 0
M  V30 8 N -0.589680 -1.145062 -2.606419 0 CHG=1 VAL=4
M  V30 9 C -0.344854 0.261554 -2.621996 0
M  V30 10 C 0.126932 0.591955 -1.230149 0 CFG=2
M  V30 11 C 1.329947 1.482686 -1.310824 0
M  V30 12 O 1.740337 1.855945 -2.458600 0
M  V30 13 C 2.089905 1.969772 -0.138310 0
M  V30 14 C 1.970912 1.804675 1.179306 0
M  V30 15 C 2.848130 2.398241 2.039073 0
M  V30 16 C 3.884621 3.197835 1.390192 0
M  V30 17 Br 5.253336 4.139647 2.466256 0
M  V30 18 S 3.456613 2.990882 -0.430088 0
M  V30 19 C -1.659450 -1.077536 0.730739 0
M  V30 20 C -2.267061 -1.528136 1.884050 0
M  V30 21 C -1.532594 -2.044233 2.931741 0
M  V30 22 C -2.182303 -2.483723 4.067478 0
M  V30 23 O -3.436550 -2.413357 4.144961 0
M  V30 24 N -1.391790 -2.981927 5.063387 0
M  V30 25 H 0.534043 -3.451547 5.776777 0
M  V30 26 H 1.533285 -1.728806 1.619816 0
M  V30 27 H 1.603015 -0.694328 -0.320150 0
M  V30 28 H 0.046480 -2.687764 -1.291662 0
M  V30 29 H 1.341724 -1.887926 -2.185174 0
M  V30 30 H -0.482329 -1.528534 -3.582248 0
M  V30 31 H -1.564380 -1.340751 -2.274977 0
M  V30 32 H -1.314729 0.773557 -2.861781 0
M  V30 33 H 0.399378 0.567576 -3.391512 0
M  V30 34 H -0.680022 1.154019 -0.725930 0
M  V30 35 H 1.154537 1.186656 1.513789 0
M  V30 36 H 2.812032 2.308353 3.112940 0
M  V30 37 H -2.211677 -0.665936 -0.100648 0
M  V30 38 H -3.322533 -1.484855 1.986104 0
M  V30 39 H -1.915486 -3.308975 5.916275 0
M  V30 END ATOM
M  V30 BEGIN BOND
M  V30 1 2 1 2
M  V30 2 1 2 3
M  V30 3 2 3 4
M  V30 4 1 4 5
M  V30 5 1 5 6
M  V30 6 1 6 7
M  V30 7 1 7 8
M  V30 8 1 8 9
M  V30 9 1 9 10
M  V30 10 1 10 11
M  V30 11 2 11 12
M  V30 12 1 11 13
M  V30 13 2 13 14
M  V30 14 1 14 15
M  V30 15 2 15 16
M  V30 16 1 16 17
M  V30 17 1 16 18
M  V30 18 2 5 19
M  V30 19 1 19 20
M  V30 20 2 20 21
M  V30 21 1 21 22
M  V30 22 2 22 23
M  V30 23 1 22 24
M  V30 24 1 24 1
M  V30 25 1 21 3
M  V30 26 1 10 6
M  V30 27 1 18 13
M  V30 28 1 1 25
M  V30 29 1 4 26
M  V30 30 1 6 27 CFG=1
M  V30 31 1 7 28
M  V30 32 1 7 29
M  V30 33 1 8 30
M  V30 34 1 8 31
M  V30 35 1 9 32
M  V30 36 1 9 33
M  V30 37 1 10 34 CFG=1
M  V30 38 1 14 35
M  V30 39 1 15 36
M  V30 40 1 19 37
M  V30 41 1 20 38
M  V30 42 1 24 39
M  V30 END BOND
M  V30 END CTAB
M  END
>  <Dataset>  (21) 
PDB

>  <Ligand_Instance>  (21) 
4UJA_4L7_A_1351

>  <PDB_ID>  (21) 
4UJA

>  <Standardized_SMILES>  (21) 
[H]C1=NC2=C([H])C([C@@]3([H])C([H])([H])[N+]([H])([H])C([H])([H])[C@]3([H])C(=O)C3=C([H])C([H])=C(Br)S3)=C([H])C([H])=C2C(=O)N1[H]

>  <Name>  (21) 
7-{(3S,4R)-4-[(5-bromothiophen-2-yl)carbonyl]pyrrolidin-3-yl}quinazolin-4(3H)-one

>  <Pocket>  (21) 
A

>  <ATP_Site>  (21) 
1.0

>  <Peripheral>  (21) 
0.0

>  <Num_H_Atoms_ProtBoundConf>  (21) 
15.0

>  <Num_Resolved_Atoms>  (21) 
24.0

>  <Num_Not_Resolved_Atoms>  (21) 
0.0

>  <2D_Mol_H>  (21) 
<rdkit.Chem.rdchem.Mol object at 0x72a238db7920>

>  <MW>  (21) 
405.297

>  <HBA>  (21) 
4

>  <HBD>  (21) 
2

>  <LogP>  (21) 
1.9068

>  <NRB>  (21) 
3

>  <TPSA>  (21) 
79.43

>  <Num_Heavy_Atoms>  (21) 
24

>  <Ro5>  (21) 
[True, True, True, True, True, True]

>  <Ro5_Fulfilled>  (21) 
True

>  <Ro3>  (21) 
[False, False, True, True]

>  <Ro3_Fulfilled>  (21) 
False

>  <Fsp3>  (21) 
0.235294

>  <Fsp3_0.42>  (21) 
False

>  <Fsp3_0.45>  (21) 
False

>  <Stereogenic_Carbons>  (21) 
2

>  <C_Atoms>  (21) 
17

>  <FCStereo>  (21) 
0.117647

>  <SPS>  (21) 
493

>  <nSPS>  (21) 
20.541667

>  <PBF>  (21) 
0.800905

>  <PBF_0.6>  (21) 
True

>  <nPBF>  (21) 
0.033371

>  <nPBF_0.016>  (21) 
True

>  <PMI1>  (21) 
2233.66522

>  <PMI2>  (21) 
5461.743508

>  <PMI3>  (21) 
7315.314995

>  <NPR1>  (21) 
0.305341

>  <NPR2>  (21) 
0.746618

>  <Sum_NPR>  (21) 
1.051959

>  <Sum_NPR_1.07>  (21) 
False

>  <Sum_NPR_1.2>  (21) 
False

>  <MaxAbsEStateIndex>  (21) 
12.860679

>  <MaxEStateIndex>  (21) 
12.860679

>  <MinAbsEStateIndex>  (21) 
0.046299

>  <MinEStateIndex>  (21) 
-0.138336

>  <qed>  (21) 
0.653805

>  <MolWt>  (21) 
405.297

>  <HeavyAtomMolWt>  (21) 
390.177

>  <ExactMolWt>  (21) 
404.006286

>  <NumValenceElectrons>  (21) 
122

>  <NumRadicalElectrons>  (21) 
0

>  <MaxPartialCharge>  (21) 
0.258052

>  <MinPartialCharge>  (21) 
-0.345088

>  <MaxAbsPartialCharge>  (21) 
0.345088

>  <MinAbsPartialCharge>  (21) 
0.258052

>  <FpDensityMorgan1>  (21) 
1.291667

>  <FpDensityMorgan2>  (21) 
2.166667

>  <FpDensityMorgan3>  (21) 
2.958333

>  <BCUT2D_MWHI>  (21) 
79.918732

>  <BCUT2D_MWLOW>  (21) 
9.850575

>  <BCUT2D_CHGHI>  (21) 
2.378505

>  <BCUT2D_CHGLO>  (21) 
-2.146417

>  <BCUT2D_LOGPHI>  (21) 
2.3198

>  <BCUT2D_LOGPLOW>  (21) 
-2.813041

>  <BCUT2D_MRHI>  (21) 
9.108492

>  <BCUT2D_MRLOW>  (21) 
-0.637599

>  <AvgIpc>  (21) 
3.229225

>  <BalabanJ>  (21) 
1.696821

>  <BertzCT>  (21) 
981.12615

>  <Chi0>  (21) 
16.681434

>  <Chi0n>  (21) 
12.660289

>  <Chi0v>  (21) 
15.062782

>  <Chi1>  (21) 
11.63103

>  <Chi1n>  (21) 
7.718354

>  <Chi1v>  (21) 
9.327849

>  <Chi2n>  (21) 
5.949322

>  <Chi2v>  (21) 
8.412336

>  <Chi3n>  (21) 
4.573572

>  <Chi3v>  (21) 
6.211781

>  <Chi4n>  (21) 
3.387793

>  <Chi4v>  (21) 
4.77735

>  <HallKierAlpha>  (21) 
-1.83

>  <Ipc>  (21) 
588845.892381

>  <Kappa1>  (21) 
15.683427

>  <Kappa2>  (21) 
6.233723

>  <Kappa3>  (21) 
2.723381

>  <LabuteASA>  (21) 
149.809154

>  <PEOE_VSA1>  (21) 
10.300767

>  <PEOE_VSA10>  (21) 
0.0

>  <PEOE_VSA11>  (21) 
5.783245

>  <PEOE_VSA12>  (21) 
0.0

>  <PEOE_VSA13>  (21) 
5.559267

>  <PEOE_VSA14>  (21) 
0.0

>  <PEOE_VSA2>  (21) 
9.589074

>  <PEOE_VSA3>  (21) 
4.983979

>  <PEOE_VSA4>  (21) 
0.0

>  <PEOE_VSA5>  (21) 
11.336786

>  <PEOE_VSA6>  (21) 
6.066367

>  <PEOE_VSA7>  (21) 
45.758864

>  <PEOE_VSA8>  (21) 
5.917906

>  <PEOE_VSA9>  (21) 
44.901226

>  <SMR_VSA1>  (21) 
10.111326

>  <SMR_VSA10>  (21) 
43.9529

>  <SMR_VSA2>  (21) 
0.0

>  <SMR_VSA3>  (21) 
9.967957

>  <SMR_VSA4>  (21) 
5.917906

>  <SMR_VSA5>  (21) 
5.917906

>  <SMR_VSA6>  (21) 
13.089513

>  <SMR_VSA7>  (21) 
61.239973

>  <SMR_VSA8>  (21) 
0.0

>  <SMR_VSA9>  (21) 
0.0

>  <SlogP_VSA1>  (21) 
10.876055

>  <SlogP_VSA10>  (21) 
0.0

>  <SlogP_VSA11>  (21) 
0.0

>  <SlogP_VSA12>  (21) 
27.26673

>  <SlogP_VSA2>  (21) 
28.840715

>  <SlogP_VSA3>  (21) 
0.0

>  <SlogP_VSA4>  (21) 
5.917906

>  <SlogP_VSA5>  (21) 
21.153042

>  <SlogP_VSA6>  (21) 
45.240108

>  <SlogP_VSA7>  (21) 
0.0

>  <SlogP_VSA8>  (21) 
10.902925

>  <SlogP_VSA9>  (21) 
0.0

>  <EState_VSA1>  (21) 
0.0

>  <EState_VSA10>  (21) 
9.589074

>  <EState_VSA11>  (21) 
0.0

>  <EState_VSA2>  (21) 
23.178324

>  <EState_VSA3>  (21) 
10.902925

>  <EState_VSA4>  (21) 
27.316527

>  <EState_VSA5>  (21) 
17.664106

>  <EState_VSA6>  (21) 
6.066367

>  <EState_VSA7>  (21) 
24.265468

>  <EState_VSA8>  (21) 
31.21469

>  <EState_VSA9>  (21) 
0.0

>  <VSA_EState1>  (21) 
0.97084

>  <VSA_EState10>  (21) 
4.900497

>  <VSA_EState2>  (21) 
32.301695

>  <VSA_EState3>  (21) 
2.762943

>  <VSA_EState4>  (21) 
1.608459

>  <VSA_EState5>  (21) 
0.293773

>  <VSA_EState6>  (21) 
9.496578

>  <VSA_EState7>  (21) 
1.41769

>  <VSA_EState8>  (21) 
1.664193

>  <VSA_EState9>  (21) 
0.0

>  <FractionCSP3>  (21) 
0.235294

>  <HeavyAtomCount>  (21) 
24

>  <NHOHCount>  (21) 
3

>  <NOCount>  (21) 
5

>  <NumAliphaticCarbocycles>  (21) 
0

>  <NumAliphaticHeterocycles>  (21) 
1

>  <NumAliphaticRings>  (21) 
1

>  <NumAromaticCarbocycles>  (21) 
1

>  <NumAromaticHeterocycles>  (21) 
2

>  <NAR>  (21) 
3

>  <NumHAcceptors>  (21) 
4

>  <NumHDonors>  (21) 
2

>  <NumHeteroatoms>  (21) 
7

>  <NumRotatableBonds>  (21) 
3

>  <NumSaturatedCarbocycles>  (21) 
0

>  <NumSaturatedHeterocycles>  (21) 
1

>  <NumSaturatedRings>  (21) 
1

>  <RingCount>  (21) 
4

>  <MolLogP>  (21) 
1.9068

>  <MolMR>  (21) 
96.6036

>  <fr_Al_COO>  (21) 
0

>  <fr_Al_OH>  (21) 
0

>  <fr_Al_OH_noTert>  (21) 
0

>  <fr_ArN>  (21) 
0

>  <fr_Ar_COO>  (21) 
0

>  <fr_Ar_N>  (21) 
2

>  <fr_Ar_NH>  (21) 
1

>  <fr_Ar_OH>  (21) 
0

>  <fr_COO>  (21) 
0

>  <fr_COO2>  (21) 
0

>  <fr_C_O>  (21) 
1

>  <fr_C_O_noCOO>  (21) 
1

>  <fr_C_S>  (21) 
0

>  <fr_HOCCN>  (21) 
0

>  <fr_Imine>  (21) 
0

>  <fr_NH0>  (21) 
1

>  <fr_NH1>  (21) 
1

>  <fr_NH2>  (21) 
1

>  <fr_N_O>  (21) 
0

>  <fr_Ndealkylation1>  (21) 
0

>  <fr_Ndealkylation2>  (21) 
0

>  <fr_Nhpyrrole>  (21) 
1

>  <fr_SH>  (21) 
0

>  <fr_aldehyde>  (21) 
0

>  <fr_alkyl_carbamate>  (21) 
0

>  <fr_alkyl_halide>  (21) 
0

>  <fr_allylic_oxid>  (21) 
0

>  <fr_amide>  (21) 
0

>  <fr_amidine>  (21) 
0

>  <fr_aniline>  (21) 
0

>  <fr_aryl_methyl>  (21) 
0

>  <fr_azide>  (21) 
0

>  <fr_azo>  (21) 
0

>  <fr_barbitur>  (21) 
0

>  <fr_benzene>  (21) 
1

>  <fr_benzodiazepine>  (21) 
0

>  <fr_bicyclic>  (21) 
1

>  <fr_diazo>  (21) 
0

>  <fr_dihydropyridine>  (21) 
0

>  <fr_epoxide>  (21) 
0

>  <fr_ester>  (21) 
0

>  <fr_ether>  (21) 
0

>  <fr_furan>  (21) 
0

>  <fr_guanido>  (21) 
0

>  <fr_halogen>  (21) 
1

>  <fr_hdrzine>  (21) 
0

>  <fr_hdrzone>  (21) 
0

>  <fr_imidazole>  (21) 
0

>  <fr_imide>  (21) 
0

>  <fr_isocyan>  (21) 
0

>  <fr_isothiocyan>  (21) 
0

>  <fr_ketone>  (21) 
1

>  <fr_ketone_Topliss>  (21) 
1

>  <fr_lactam>  (21) 
0

>  <fr_lactone>  (21) 
0

>  <fr_methoxy>  (21) 
0

>  <fr_morpholine>  (21) 
0

>  <fr_nitrile>  (21) 
0

>  <fr_nitro>  (21) 
0

>  <fr_nitro_arom>  (21) 
0

>  <fr_nitro_arom_nonortho>  (21) 
0

>  <fr_nitroso>  (21) 
0

>  <fr_oxazole>  (21) 
0

>  <fr_oxime>  (21) 
0

>  <fr_para_hydroxylation>  (21) 
0

>  <fr_phenol>  (21) 
0

>  <fr_phenol_noOrthoHbond>  (21) 
0

>  <fr_phos_acid>  (21) 
0

>  <fr_phos_ester>  (21) 
0

>  <fr_piperdine>  (21) 
0

>  <fr_piperzine>  (21) 
0

>  <fr_priamide>  (21) 
0

>  <fr_prisulfonamd>  (21) 
0

>  <fr_pyridine>  (21) 
0

>  <fr_quatN>  (21) 
1

>  <fr_sulfide>  (21) 
0

>  <fr_sulfonamd>  (21) 
0

>  <fr_sulfone>  (21) 
0

>  <fr_term_acetylene>  (21) 
0

>  <fr_tetrazole>  (21) 
0

>  <fr_thiazole>  (21) 
0

>  <fr_thiocyan>  (21) 
0

>  <fr_thiophene>  (21) 
1

>  <fr_unbrch_alkane>  (21) 
0

>  <fr_urea>  (21) 
0

>  <NP-Likeness>  (21) 
-0.501467

$$$$
4L7
     RDKit          3D

  0  0  0  0  0  0  0  0  0  0999 V3000
M  V30 BEGIN CTAB
M  V30 COUNTS 39 42 0 0 0
M  V30 BEGIN ATOM
M  V30 1 C -0.049822 -3.042551 4.946702 0
M  V30 2 N 0.544246 -2.601732 3.818525 0
M  V30 3 C -0.161138 -2.097000 2.791337 0
M  V30 4 C 0.443082 -1.636732 1.616132 0
M  V30 5 C -0.297952 -1.115687 0.558007 0
M  V30 6 C 0.515439 -0.679304 -0.585490 0 CFG=1
M  V30 7 C 0.363317 -1.697755 -1.691518 0
M  V30 8 N -0.589680 -1.145062 -2.606419 0 CHG=1 VAL=4
M  V30 9 C -0.344854 0.261554 -2.621996 0
M  V30 10 C 0.126932 0.591955 -1.230149 0 CFG=2
M  V30 11 C 1.329947 1.482686 -1.310824 0
M  V30 12 O 1.740337 1.855945 -2.458600 0
M  V30 13 C 2.089905 1.969772 -0.138310 0
M  V30 14 C 1.970912 1.804675 1.179306 0
M  V30 15 C 2.848130 2.398241 2.039073 0
M  V30 16 C 3.884621 3.197835 1.390192 0
M  V30 17 Br 5.253336 4.139647 2.466256 0
M  V30 18 S 3.456613 2.990882 -0.430088 0
M  V30 19 C -1.659450 -1.077536 0.730739 0
M  V30 20 C -2.267061 -1.528136 1.884050 0
M  V30 21 C -1.532594 -2.044233 2.931741 0
M  V30 22 C -2.182303 -2.483723 4.067478 0
M  V30 23 O -3.436550 -2.413357 4.144961 0
M  V30 24 N -1.391790 -2.981927 5.063387 0
M  V30 25 H 0.534043 -3.451547 5.776777 0
M  V30 26 H 1.533285 -1.728806 1.619816 0
M  V30 27 H 1.603015 -0.694328 -0.320150 0
M  V30 28 H 0.046480 -2.687764 -1.291662 0
M  V30 29 H 1.341724 -1.887926 -2.185174 0
M  V30 30 H -0.482329 -1.528534 -3.582248 0
M  V30 31 H -1.564380 -1.340751 -2.274977 0
M  V30 32 H -1.314729 0.773557 -2.861781 0
M  V30 33 H 0.399378 0.567576 -3.391512 0
M  V30 34 H -0.680022 1.154019 -0.725930 0
M  V30 35 H 1.154537 1.186656 1.513789 0
M  V30 36 H 2.812032 2.308353 3.112940 0
M  V30 37 H -2.211677 -0.665936 -0.100648 0
M  V30 38 H -3.322533 -1.484855 1.986104 0
M  V30 39 H -1.915486 -3.308975 5.916275 0
M  V30 END ATOM
M  V30 BEGIN BOND
M  V30 1 2 1 2
M  V30 2 1 2 3
M  V30 3 2 3 4
M  V30 4 1 4 5
M  V30 5 1 5 6
M  V30 6 1 6 7
M  V30 7 1 7 8
M  V30 8 1 8 9
M  V30 9 1 9 10
M  V30 10 1 10 11
M  V30 11 2 11 12
M  V30 12 1 11 13
M  V30 13 2 13 14
M  V30 14 1 14 15
M  V30 15 2 15 16
M  V30 16 1 16 17
M  V30 17 1 16 18
M  V30 18 2 5 19
M  V30 19 1 19 20
M  V30 20 2 20 21
M  V30 21 1 21 22
M  V30 22 2 22 23
M  V30 23 1 22 24
M  V30 24 1 24 1
M  V30 25 1 21 3
M  V30 26 1 10 6
M  V30 27 1 18 13
M  V30 28 1 1 25
M  V30 29 1 4 26
M  V30 30 1 6 27 CFG=1
M  V30 31 1 7 28
M  V30 32 1 7 29
M  V30 33 1 8 30
M  V30 34 1 8 31
M  V30 35 1 9 32
M  V30 36 1 9 33
M  V30 37 1 10 34 CFG=1
M  V30 38 1 14 35
M  V30 39 1 15 36
M  V30 40 1 19 37
M  V30 41 1 20 38
M  V30 42 1 24 39
M  V30 END BOND
M  V30 END CTAB
M  END
>  <Dataset>  (22) 
PDB

>  <Ligand_Instance>  (22) 
4Z83_4L7_E_401

>  <PDB_ID>  (22) 
4Z83

>  <Standardized_SMILES>  (22) 
[H]C1=NC2=C([H])C([C@@]3([H])C([H])([H])[N+]([H])([H])C([H])([H])[C@]3([H])C(=O)C3=C([H])C([H])=C(Br)S3)=C([H])C([H])=C2C(=O)N1[H]

>  <Name>  (22) 
7-{(3S,4R)-4-[(5-bromothiophen-2-yl)carbonyl]pyrrolidin-3-yl}quinazolin-4(3H)-one

>  <Pocket>  (22) 
A

>  <ATP_Site>  (22) 
1.0

>  <Peripheral>  (22) 
1.0

>  <Num_H_Atoms_ProtBoundConf>  (22) 
15.0

>  <Num_Resolved_Atoms>  (22) 
24.0

>  <Num_Not_Resolved_Atoms>  (22) 
0.0

>  <2D_Mol_H>  (22) 
<rdkit.Chem.rdchem.Mol object at 0x72a238db7a00>

>  <MW>  (22) 
405.297

>  <HBA>  (22) 
4

>  <HBD>  (22) 
2

>  <LogP>  (22) 
1.9068

>  <NRB>  (22) 
3

>  <TPSA>  (22) 
79.43

>  <Num_Heavy_Atoms>  (22) 
24

>  <Ro5>  (22) 
[True, True, True, True, True, True]

>  <Ro5_Fulfilled>  (22) 
True

>  <Ro3>  (22) 
[False, False, True, True]

>  <Ro3_Fulfilled>  (22) 
False

>  <Fsp3>  (22) 
0.235294

>  <Fsp3_0.42>  (22) 
False

>  <Fsp3_0.45>  (22) 
False

>  <Stereogenic_Carbons>  (22) 
2

>  <C_Atoms>  (22) 
17

>  <FCStereo>  (22) 
0.117647

>  <SPS>  (22) 
493

>  <nSPS>  (22) 
20.541667

>  <PBF>  (22) 
0.800905

>  <PBF_0.6>  (22) 
True

>  <nPBF>  (22) 
0.033371

>  <nPBF_0.016>  (22) 
True

>  <PMI1>  (22) 
2233.66522

>  <PMI2>  (22) 
5461.743508

>  <PMI3>  (22) 
7315.314995

>  <NPR1>  (22) 
0.305341

>  <NPR2>  (22) 
0.746618

>  <Sum_NPR>  (22) 
1.051959

>  <Sum_NPR_1.07>  (22) 
False

>  <Sum_NPR_1.2>  (22) 
False

>  <MaxAbsEStateIndex>  (22) 
12.860679

>  <MaxEStateIndex>  (22) 
12.860679

>  <MinAbsEStateIndex>  (22) 
0.046299

>  <MinEStateIndex>  (22) 
-0.138336

>  <qed>  (22) 
0.653805

>  <MolWt>  (22) 
405.297

>  <HeavyAtomMolWt>  (22) 
390.177

>  <ExactMolWt>  (22) 
404.006286

>  <NumValenceElectrons>  (22) 
122

>  <NumRadicalElectrons>  (22) 
0

>  <MaxPartialCharge>  (22) 
0.258052

>  <MinPartialCharge>  (22) 
-0.345088

>  <MaxAbsPartialCharge>  (22) 
0.345088

>  <MinAbsPartialCharge>  (22) 
0.258052

>  <FpDensityMorgan1>  (22) 
1.291667

>  <FpDensityMorgan2>  (22) 
2.166667

>  <FpDensityMorgan3>  (22) 
2.958333

>  <BCUT2D_MWHI>  (22) 
79.918732

>  <BCUT2D_MWLOW>  (22) 
9.850575

>  <BCUT2D_CHGHI>  (22) 
2.378505

>  <BCUT2D_CHGLO>  (22) 
-2.146417

>  <BCUT2D_LOGPHI>  (22) 
2.3198

>  <BCUT2D_LOGPLOW>  (22) 
-2.813041

>  <BCUT2D_MRHI>  (22) 
9.108492

>  <BCUT2D_MRLOW>  (22) 
-0.637599

>  <AvgIpc>  (22) 
3.229225

>  <BalabanJ>  (22) 
1.696821

>  <BertzCT>  (22) 
981.12615

>  <Chi0>  (22) 
16.681434

>  <Chi0n>  (22) 
12.660289

>  <Chi0v>  (22) 
15.062782

>  <Chi1>  (22) 
11.63103

>  <Chi1n>  (22) 
7.718354

>  <Chi1v>  (22) 
9.327849

>  <Chi2n>  (22) 
5.949322

>  <Chi2v>  (22) 
8.412336

>  <Chi3n>  (22) 
4.573572

>  <Chi3v>  (22) 
6.211781

>  <Chi4n>  (22) 
3.387793

>  <Chi4v>  (22) 
4.77735

>  <HallKierAlpha>  (22) 
-1.83

>  <Ipc>  (22) 
588845.892381

>  <Kappa1>  (22) 
15.683427

>  <Kappa2>  (22) 
6.233723

>  <Kappa3>  (22) 
2.723381

>  <LabuteASA>  (22) 
149.809154

>  <PEOE_VSA1>  (22) 
10.300767

>  <PEOE_VSA10>  (22) 
0.0

>  <PEOE_VSA11>  (22) 
5.783245

>  <PEOE_VSA12>  (22) 
0.0

>  <PEOE_VSA13>  (22) 
5.559267

>  <PEOE_VSA14>  (22) 
0.0

>  <PEOE_VSA2>  (22) 
9.589074

>  <PEOE_VSA3>  (22) 
4.983979

>  <PEOE_VSA4>  (22) 
0.0

>  <PEOE_VSA5>  (22) 
11.336786

>  <PEOE_VSA6>  (22) 
6.066367

>  <PEOE_VSA7>  (22) 
45.758864

>  <PEOE_VSA8>  (22) 
5.917906

>  <PEOE_VSA9>  (22) 
44.901226

>  <SMR_VSA1>  (22) 
10.111326

>  <SMR_VSA10>  (22) 
43.9529

>  <SMR_VSA2>  (22) 
0.0

>  <SMR_VSA3>  (22) 
9.967957

>  <SMR_VSA4>  (22) 
5.917906

>  <SMR_VSA5>  (22) 
5.917906

>  <SMR_VSA6>  (22) 
13.089513

>  <SMR_VSA7>  (22) 
61.239973

>  <SMR_VSA8>  (22) 
0.0

>  <SMR_VSA9>  (22) 
0.0

>  <SlogP_VSA1>  (22) 
10.876055

>  <SlogP_VSA10>  (22) 
0.0

>  <SlogP_VSA11>  (22) 
0.0

>  <SlogP_VSA12>  (22) 
27.26673

>  <SlogP_VSA2>  (22) 
28.840715

>  <SlogP_VSA3>  (22) 
0.0

>  <SlogP_VSA4>  (22) 
5.917906

>  <SlogP_VSA5>  (22) 
21.153042

>  <SlogP_VSA6>  (22) 
45.240108

>  <SlogP_VSA7>  (22) 
0.0

>  <SlogP_VSA8>  (22) 
10.902925

>  <SlogP_VSA9>  (22) 
0.0

>  <EState_VSA1>  (22) 
0.0

>  <EState_VSA10>  (22) 
9.589074

>  <EState_VSA11>  (22) 
0.0

>  <EState_VSA2>  (22) 
23.178324

>  <EState_VSA3>  (22) 
10.902925

>  <EState_VSA4>  (22) 
27.316527

>  <EState_VSA5>  (22) 
17.664106

>  <EState_VSA6>  (22) 
6.066367

>  <EState_VSA7>  (22) 
24.265468

>  <EState_VSA8>  (22) 
31.21469

>  <EState_VSA9>  (22) 
0.0

>  <VSA_EState1>  (22) 
0.97084

>  <VSA_EState10>  (22) 
4.900497

>  <VSA_EState2>  (22) 
32.301695

>  <VSA_EState3>  (22) 
2.762943

>  <VSA_EState4>  (22) 
1.608459

>  <VSA_EState5>  (22) 
0.293773

>  <VSA_EState6>  (22) 
9.496578

>  <VSA_EState7>  (22) 
1.41769

>  <VSA_EState8>  (22) 
1.664193

>  <VSA_EState9>  (22) 
0.0

>  <FractionCSP3>  (22) 
0.235294

>  <HeavyAtomCount>  (22) 
24

>  <NHOHCount>  (22) 
3

>  <NOCount>  (22) 
5

>  <NumAliphaticCarbocycles>  (22) 
0

>  <NumAliphaticHeterocycles>  (22) 
1

>  <NumAliphaticRings>  (22) 
1

>  <NumAromaticCarbocycles>  (22) 
1

>  <NumAromaticHeterocycles>  (22) 
2

>  <NAR>  (22) 
3

>  <NumHAcceptors>  (22) 
4

>  <NumHDonors>  (22) 
2

>  <NumHeteroatoms>  (22) 
7

>  <NumRotatableBonds>  (22) 
3

>  <NumSaturatedCarbocycles>  (22) 
0

>  <NumSaturatedHeterocycles>  (22) 
1

>  <NumSaturatedRings>  (22) 
1

>  <RingCount>  (22) 
4

>  <MolLogP>  (22) 
1.9068

>  <MolMR>  (22) 
96.6036

>  <fr_Al_COO>  (22) 
0

>  <fr_Al_OH>  (22) 
0

>  <fr_Al_OH_noTert>  (22) 
0

>  <fr_ArN>  (22) 
0

>  <fr_Ar_COO>  (22) 
0

>  <fr_Ar_N>  (22) 
2

>  <fr_Ar_NH>  (22) 
1

>  <fr_Ar_OH>  (22) 
0

>  <fr_COO>  (22) 
0

>  <fr_COO2>  (22) 
0

>  <fr_C_O>  (22) 
1

>  <fr_C_O_noCOO>  (22) 
1

>  <fr_C_S>  (22) 
0

>  <fr_HOCCN>  (22) 
0

>  <fr_Imine>  (22) 
0

>  <fr_NH0>  (22) 
1

>  <fr_NH1>  (22) 
1

>  <fr_NH2>  (22) 
1

>  <fr_N_O>  (22) 
0

>  <fr_Ndealkylation1>  (22) 
0

>  <fr_Ndealkylation2>  (22) 
0

>  <fr_Nhpyrrole>  (22) 
1

>  <fr_SH>  (22) 
0

>  <fr_aldehyde>  (22) 
0

>  <fr_alkyl_carbamate>  (22) 
0

>  <fr_alkyl_halide>  (22) 
0

>  <fr_allylic_oxid>  (22) 
0

>  <fr_amide>  (22) 
0

>  <fr_amidine>  (22) 
0

>  <fr_aniline>  (22) 
0

>  <fr_aryl_methyl>  (22) 
0

>  <fr_azide>  (22) 
0

>  <fr_azo>  (22) 
0

>  <fr_barbitur>  (22) 
0

>  <fr_benzene>  (22) 
1

>  <fr_benzodiazepine>  (22) 
0

>  <fr_bicyclic>  (22) 
1

>  <fr_diazo>  (22) 
0

>  <fr_dihydropyridine>  (22) 
0

>  <fr_epoxide>  (22) 
0

>  <fr_ester>  (22) 
0

>  <fr_ether>  (22) 
0

>  <fr_furan>  (22) 
0

>  <fr_guanido>  (22) 
0

>  <fr_halogen>  (22) 
1

>  <fr_hdrzine>  (22) 
0

>  <fr_hdrzone>  (22) 
0

>  <fr_imidazole>  (22) 
0

>  <fr_imide>  (22) 
0

>  <fr_isocyan>  (22) 
0

>  <fr_isothiocyan>  (22) 
0

>  <fr_ketone>  (22) 
1

>  <fr_ketone_Topliss>  (22) 
1

>  <fr_lactam>  (22) 
0

>  <fr_lactone>  (22) 
0

>  <fr_methoxy>  (22) 
0

>  <fr_morpholine>  (22) 
0

>  <fr_nitrile>  (22) 
0

>  <fr_nitro>  (22) 
0

>  <fr_nitro_arom>  (22) 
0

>  <fr_nitro_arom_nonortho>  (22) 
0

>  <fr_nitroso>  (22) 
0

>  <fr_oxazole>  (22) 
0

>  <fr_oxime>  (22) 
0

>  <fr_para_hydroxylation>  (22) 
0

>  <fr_phenol>  (22) 
0

>  <fr_phenol_noOrthoHbond>  (22) 
0

>  <fr_phos_acid>  (22) 
0

>  <fr_phos_ester>  (22) 
0

>  <fr_piperdine>  (22) 
0

>  <fr_piperzine>  (22) 
0

>  <fr_priamide>  (22) 
0

>  <fr_prisulfonamd>  (22) 
0

>  <fr_pyridine>  (22) 
0

>  <fr_quatN>  (22) 
1

>  <fr_sulfide>  (22) 
0

>  <fr_sulfonamd>  (22) 
0

>  <fr_sulfone>  (22) 
0

>  <fr_term_acetylene>  (22) 
0

>  <fr_tetrazole>  (22) 
0

>  <fr_thiazole>  (22) 
0

>  <fr_thiocyan>  (22) 
0

>  <fr_thiophene>  (22) 
1

>  <fr_unbrch_alkane>  (22) 
0

>  <fr_urea>  (22) 
0

>  <NP-Likeness>  (22) 
-0.501467

$$$$
4NB
     RDKit          3D

  0  0  0  0  0  0  0  0  0  0999 V3000
M  V30 BEGIN CTAB
M  V30 COUNTS 16 16 0 0 0
M  V30 BEGIN ATOM
M  V30 1 C 1.180608 1.469635 0.929593 0
M  V30 2 C 1.733782 0.792299 2.012040 0
M  V30 3 C 1.846539 -0.582372 1.934692 0
M  V30 4 N 2.414969 -1.255092 3.052600 0 CHG=1 VAL=4
M  V30 5 O 2.561040 -2.493216 3.083201 0
M  V30 6 O 2.851360 -0.590156 4.195490 0 CHG=-1 VAL=1
M  V30 7 C 1.427183 -1.266682 0.825472 0
M  V30 8 C 0.869691 -0.594960 -0.268047 0
M  V30 9 C 0.762276 0.776722 -0.179401 0
M  V30 10 C 0.177412 1.407627 -1.344407 0
M  V30 11 O -0.225563 0.820833 -2.393280 0
M  V30 12 O -0.100478 2.714677 -1.655177 0 CHG=-1 VAL=1
M  V30 13 H 1.074429 2.541602 0.948800 0
M  V30 14 H 2.056411 1.358896 2.875068 0
M  V30 15 H 1.516816 -2.363493 0.763014 0
M  V30 16 H 0.561436 -1.200540 -1.108108 0
M  V30 END ATOM
M  V30 BEGIN BOND
M  V30 1 2 1 2
M  V30 2 1 2 3
M  V30 3 1 3 4
M  V30 4 2 4 5
M  V30 5 1 4 6
M  V30 6 2 3 7
M  V30 7 1 7 8
M  V30 8 2 8 9
M  V30 9 1 9 10
M  V30 10 2 10 11
M  V30 11 1 10 12
M  V30 12 1 9 1
M  V30 13 1 1 13
M  V30 14 1 2 14
M  V30 15 1 7 15
M  V30 16 1 8 16
M  V30 END BOND
M  V30 END CTAB
M  END
>  <Dataset>  (23) 
PDB

>  <Ligand_Instance>  (23) 
5N3J_4NB_A_402

>  <PDB_ID>  (23) 
5N3J

>  <Standardized_SMILES>  (23) 
[H]C1=C([H])C([N+](=O)[O-])=C([H])C([H])=C1C(=O)[O-]

>  <Name>  (23) 
4-NITROBENZOIC ACID

>  <Pocket>  (23) 
A

>  <ATP_Site>  (23) 
1.0

>  <Peripheral>  (23) 
0.0

>  <Num_H_Atoms_ProtBoundConf>  (23) 
4.0

>  <Num_Resolved_Atoms>  (23) 
12.0

>  <Num_Not_Resolved_Atoms>  (23) 
0.0

>  <2D_Mol_H>  (23) 
<rdkit.Chem.rdchem.Mol object at 0x72a238db7ae0>

>  <MW>  (23) 
166.112

>  <HBA>  (23) 
4

>  <HBD>  (23) 
0

>  <LogP>  (23) 
-0.0417

>  <NRB>  (23) 
2

>  <TPSA>  (23) 
83.27

>  <Num_Heavy_Atoms>  (23) 
12

>  <Ro5>  (23) 
[True, True, True, True, True, True]

>  <Ro5_Fulfilled>  (23) 
True

>  <Ro3>  (23) 
[True, False, True, True]

>  <Ro3_Fulfilled>  (23) 
True

>  <Fsp3>  (23) 
0.0

>  <Fsp3_0.42>  (23) 
False

>  <Fsp3_0.45>  (23) 
False

>  <Stereogenic_Carbons>  (23) 
0

>  <C_Atoms>  (23) 
7

>  <FCStereo>  (23) 
0.0

>  <SPS>  (23) 
112

>  <nSPS>  (23) 
9.333333

>  <PBF>  (23) 
0.000005

>  <PBF_0.6>  (23) 
False

>  <nPBF>  (23) 
0.0

>  <nPBF_0.016>  (23) 
False

>  <PMI1>  (23) 
160.087061

>  <PMI2>  (23) 
1099.778439

>  <PMI3>  (23) 
1259.865499

>  <NPR1>  (23) 
0.127067

>  <NPR2>  (23) 
0.872933

>  <Sum_NPR>  (23) 
1.0

>  <Sum_NPR_1.07>  (23) 
False

>  <Sum_NPR_1.2>  (23) 
False

>  <MaxAbsEStateIndex>  (23) 
10.201115

>  <MaxEStateIndex>  (23) 
10.201115

>  <MinAbsEStateIndex>  (23) 
0.068889

>  <MinEStateIndex>  (23) 
-1.342687

>  <qed>  (23) 
0.455374

>  <MolWt>  (23) 
166.112

>  <HeavyAtomMolWt>  (23) 
162.08

>  <ExactMolWt>  (23) 
166.014581

>  <NumValenceElectrons>  (23) 
62

>  <NumRadicalElectrons>  (23) 
0

>  <MaxPartialCharge>  (23) 
0.268967

>  <MinPartialCharge>  (23) 
-0.544815

>  <MaxAbsPartialCharge>  (23) 
0.544815

>  <MinAbsPartialCharge>  (23) 
0.268967

>  <FpDensityMorgan1>  (23) 
1.25

>  <FpDensityMorgan2>  (23) 
1.75

>  <FpDensityMorgan3>  (23) 
2.083333

>  <BCUT2D_MWHI>  (23) 
16.628248

>  <BCUT2D_MWLOW>  (23) 
10.189548

>  <BCUT2D_CHGHI>  (23) 
2.026624

>  <BCUT2D_CHGLO>  (23) 
-1.989074

>  <BCUT2D_LOGPHI>  (23) 
2.10295

>  <BCUT2D_LOGPLOW>  (23) 
-2.214263

>  <BCUT2D_MRHI>  (23) 
5.854293

>  <BCUT2D_MRLOW>  (23) 
-0.384444

>  <AvgIpc>  (23) 
2.042911

>  <BalabanJ>  (23) 
3.00615

>  <BertzCT>  (23) 
283.68319

>  <Chi0>  (23) 
9.137828

>  <Chi0n>  (23) 
5.889608

>  <Chi0v>  (23) 
5.889608

>  <Chi1>  (23) 
5.609061

>  <Chi1n>  (23) 
3.068371

>  <Chi1v>  (23) 
3.068371

>  <Chi2n>  (23) 
2.091441

>  <Chi2v>  (23) 
2.091441

>  <Chi3n>  (23) 
1.313825

>  <Chi3v>  (23) 
1.313825

>  <Chi4n>  (23) 
0.719229

>  <Chi4v>  (23) 
0.719229

>  <HallKierAlpha>  (23) 
-1.91

>  <Ipc>  (23) 
473.955341

>  <Kappa1>  (23) 
8.189108

>  <Kappa2>  (23) 
2.99667

>  <Kappa3>  (23) 
1.570829

>  <LabuteASA>  (23) 
67.405077

>  <PEOE_VSA1>  (23) 
9.901065

>  <PEOE_VSA10>  (23) 
0.0

>  <PEOE_VSA11>  (23) 
0.0

>  <PEOE_VSA12>  (23) 
0.0

>  <PEOE_VSA13>  (23) 
5.687386

>  <PEOE_VSA14>  (23) 
0.0

>  <PEOE_VSA2>  (23) 
10.114318

>  <PEOE_VSA3>  (23) 
0.0

>  <PEOE_VSA4>  (23) 
0.0

>  <PEOE_VSA5>  (23) 
0.0

>  <PEOE_VSA6>  (23) 
0.0

>  <PEOE_VSA7>  (23) 
17.696186

>  <PEOE_VSA8>  (23) 
12.132734

>  <PEOE_VSA9>  (23) 
10.892616

>  <SMR_VSA1>  (23) 
14.824376

>  <SMR_VSA10>  (23) 
11.656692

>  <SMR_VSA2>  (23) 
0.0

>  <SMR_VSA3>  (23) 
0.0

>  <SMR_VSA4>  (23) 
0.0

>  <SMR_VSA5>  (23) 
0.0

>  <SMR_VSA6>  (23) 
0.0

>  <SMR_VSA7>  (23) 
39.943238

>  <SMR_VSA8>  (23) 
0.0

>  <SMR_VSA9>  (23) 
0.0

>  <SlogP_VSA1>  (23) 
5.106527

>  <SlogP_VSA10>  (23) 
5.687386

>  <SlogP_VSA11>  (23) 
0.0

>  <SlogP_VSA12>  (23) 
0.0

>  <SlogP_VSA2>  (23) 
10.892616

>  <SlogP_VSA3>  (23) 
0.0

>  <SlogP_VSA4>  (23) 
10.114318

>  <SlogP_VSA5>  (23) 
10.357989

>  <SlogP_VSA6>  (23) 
24.265468

>  <SlogP_VSA7>  (23) 
0.0

>  <SlogP_VSA8>  (23) 
0.0

>  <SlogP_VSA9>  (23) 
0.0

>  <EState_VSA1>  (23) 
10.892616

>  <EState_VSA10>  (23) 
20.015383

>  <EState_VSA11>  (23) 
0.0

>  <EState_VSA2>  (23) 
11.250838

>  <EState_VSA3>  (23) 
0.0

>  <EState_VSA4>  (23) 
24.265468

>  <EState_VSA5>  (23) 
0.0

>  <EState_VSA6>  (23) 
0.0

>  <EState_VSA7>  (23) 
0.0

>  <EState_VSA8>  (23) 
0.0

>  <EState_VSA9>  (23) 
0.0

>  <VSA_EState1>  (23) 
0.0

>  <VSA_EState10>  (23) 
0.0

>  <VSA_EState2>  (23) 
19.727543

>  <VSA_EState3>  (23) 
20.325699

>  <VSA_EState4>  (23) 
-0.207778

>  <VSA_EState5>  (23) 
-1.342687

>  <VSA_EState6>  (23) 
4.497222

>  <VSA_EState7>  (23) 
0.0

>  <VSA_EState8>  (23) 
0.0

>  <VSA_EState9>  (23) 
0.0

>  <FractionCSP3>  (23) 
0.0

>  <HeavyAtomCount>  (23) 
12

>  <NHOHCount>  (23) 
0

>  <NOCount>  (23) 
5

>  <NumAliphaticCarbocycles>  (23) 
0

>  <NumAliphaticHeterocycles>  (23) 
0

>  <NumAliphaticRings>  (23) 
0

>  <NumAromaticCarbocycles>  (23) 
1

>  <NumAromaticHeterocycles>  (23) 
0

>  <NAR>  (23) 
1

>  <NumHAcceptors>  (23) 
4

>  <NumHDonors>  (23) 
0

>  <NumHeteroatoms>  (23) 
5

>  <NumRotatableBonds>  (23) 
2

>  <NumSaturatedCarbocycles>  (23) 
0

>  <NumSaturatedHeterocycles>  (23) 
0

>  <NumSaturatedRings>  (23) 
0

>  <RingCount>  (23) 
1

>  <MolLogP>  (23) 
-0.0417

>  <MolMR>  (23) 
37.4269

>  <fr_Al_COO>  (23) 
0

>  <fr_Al_OH>  (23) 
0

>  <fr_Al_OH_noTert>  (23) 
0

>  <fr_ArN>  (23) 
0

>  <fr_Ar_COO>  (23) 
1

>  <fr_Ar_N>  (23) 
0

>  <fr_Ar_NH>  (23) 
0

>  <fr_Ar_OH>  (23) 
0

>  <fr_COO>  (23) 
1

>  <fr_COO2>  (23) 
1

>  <fr_C_O>  (23) 
1

>  <fr_C_O_noCOO>  (23) 
1

>  <fr_C_S>  (23) 
0

>  <fr_HOCCN>  (23) 
0

>  <fr_Imine>  (23) 
0

>  <fr_NH0>  (23) 
1

>  <fr_NH1>  (23) 
0

>  <fr_NH2>  (23) 
0

>  <fr_N_O>  (23) 
0

>  <fr_Ndealkylation1>  (23) 
0

>  <fr_Ndealkylation2>  (23) 
0

>  <fr_Nhpyrrole>  (23) 
0

>  <fr_SH>  (23) 
0

>  <fr_aldehyde>  (23) 
0

>  <fr_alkyl_carbamate>  (23) 
0

>  <fr_alkyl_halide>  (23) 
0

>  <fr_allylic_oxid>  (23) 
0

>  <fr_amide>  (23) 
0

>  <fr_amidine>  (23) 
0

>  <fr_aniline>  (23) 
0

>  <fr_aryl_methyl>  (23) 
0

>  <fr_azide>  (23) 
0

>  <fr_azo>  (23) 
0

>  <fr_barbitur>  (23) 
0

>  <fr_benzene>  (23) 
1

>  <fr_benzodiazepine>  (23) 
0

>  <fr_bicyclic>  (23) 
0

>  <fr_diazo>  (23) 
0

>  <fr_dihydropyridine>  (23) 
0

>  <fr_epoxide>  (23) 
0

>  <fr_ester>  (23) 
0

>  <fr_ether>  (23) 
0

>  <fr_furan>  (23) 
0

>  <fr_guanido>  (23) 
0

>  <fr_halogen>  (23) 
0

>  <fr_hdrzine>  (23) 
0

>  <fr_hdrzone>  (23) 
0

>  <fr_imidazole>  (23) 
0

>  <fr_imide>  (23) 
0

>  <fr_isocyan>  (23) 
0

>  <fr_isothiocyan>  (23) 
0

>  <fr_ketone>  (23) 
0

>  <fr_ketone_Topliss>  (23) 
0

>  <fr_lactam>  (23) 
0

>  <fr_lactone>  (23) 
0

>  <fr_methoxy>  (23) 
0

>  <fr_morpholine>  (23) 
0

>  <fr_nitrile>  (23) 
0

>  <fr_nitro>  (23) 
1

>  <fr_nitro_arom>  (23) 
1

>  <fr_nitro_arom_nonortho>  (23) 
1

>  <fr_nitroso>  (23) 
0

>  <fr_oxazole>  (23) 
0

>  <fr_oxime>  (23) 
0

>  <fr_para_hydroxylation>  (23) 
0

>  <fr_phenol>  (23) 
0

>  <fr_phenol_noOrthoHbond>  (23) 
0

>  <fr_phos_acid>  (23) 
0

>  <fr_phos_ester>  (23) 
0

>  <fr_piperdine>  (23) 
0

>  <fr_piperzine>  (23) 
0

>  <fr_priamide>  (23) 
0

>  <fr_prisulfonamd>  (23) 
0

>  <fr_pyridine>  (23) 
0

>  <fr_quatN>  (23) 
0

>  <fr_sulfide>  (23) 
0

>  <fr_sulfonamd>  (23) 
0

>  <fr_sulfone>  (23) 
0

>  <fr_term_acetylene>  (23) 
0

>  <fr_tetrazole>  (23) 
0

>  <fr_thiazole>  (23) 
0

>  <fr_thiocyan>  (23) 
0

>  <fr_thiophene>  (23) 
0

>  <fr_unbrch_alkane>  (23) 
0

>  <fr_urea>  (23) 
0

>  <NP-Likeness>  (23) 
-1.146165

$$$$
4PY
     RDKit          3D

  0  0  0  0  0  0  0  0  0  0999 V3000
M  V30 BEGIN CTAB
M  V30 COUNTS 50 54 0 0 0
M  V30 BEGIN ATOM
M  V30 1 C 3.007705 -2.316410 2.604684 0
M  V30 2 N 4.079328 -2.583866 1.789372 0
M  V30 3 C 4.287723 -1.735043 0.738495 0
M  V30 4 C 3.451605 -0.668174 0.525248 0
M  V30 5 C 3.656807 0.243945 -0.583892 0
M  V30 6 N 4.691705 0.028013 -1.413798 0
M  V30 7 C 4.927550 0.851320 -2.465675 0
M  V30 8 C 4.139594 1.957295 -2.764545 0
M  V30 9 C 3.076106 2.200029 -1.932346 0
M  V30 10 C 2.876162 1.336399 -0.877049 0
M  V30 11 C 2.434437 3.327936 -2.400252 0
M  V30 12 N 3.113948 3.730537 -3.483107 0
M  V30 13 N 4.141531 2.905907 -3.704052 0
M  V30 14 C 2.390735 -0.430371 1.359688 0
M  V30 15 C 2.110485 -1.234348 2.437241 0
M  V30 16 O 1.249352 -1.380308 3.452242 0
M  V30 17 C 0.140889 -0.748297 3.914893 0
M  V30 18 C -1.095070 -0.704021 3.081818 0 CFG=2
M  V30 19 C -1.830675 -2.025702 3.056785 0
M  V30 20 C -3.051513 -1.966052 2.226660 0
M  V30 21 C -4.269032 -1.738692 2.853831 0
M  V30 22 N -5.273123 -1.682749 1.933587 0
M  V30 23 C -4.728359 -1.872231 0.700997 0
M  V30 24 C -5.228622 -1.926346 -0.579475 0
M  V30 25 C -4.352399 -2.152665 -1.625313 0
M  V30 26 C -2.990113 -2.325827 -1.418653 0
M  V30 27 C -2.492176 -2.270572 -0.132931 0
M  V30 28 C -3.381902 -2.042904 0.895678 0
M  V30 29 N -0.986846 -0.073667 1.806433 0 CHG=1 VAL=4
M  V30 30 H 3.067103 -3.130065 3.350859 0
M  V30 31 H 5.097203 -1.837967 0.023528 0
M  V30 32 H 5.762193 0.689654 -3.148098 0
M  V30 33 H 2.029344 1.561829 -0.246718 0
M  V30 34 H 1.551402 3.734600 -1.911642 0
M  V30 35 H 4.839397 2.988244 -4.488543 0
M  V30 36 H 1.683596 0.351544 1.322415 0
M  V30 37 H -0.114785 -1.169298 4.946152 0
M  V30 38 H 0.334984 0.350279 4.187011 0
M  V30 39 H -1.816198 -0.023688 3.667736 0
M  V30 40 H -1.115721 -2.754083 2.571571 0
M  V30 41 H -2.006395 -2.417726 4.058761 0
M  V30 42 H -4.510993 -1.607038 3.918646 0
M  V30 43 H -6.292141 -1.525137 2.095368 0
M  V30 44 H -6.287865 -1.793268 -0.759827 0
M  V30 45 H -4.671975 -2.206940 -2.650121 0
M  V30 46 H -2.296677 -2.504456 -2.239902 0
M  V30 47 H -1.444715 -2.414900 0.014928 0
M  V30 48 H -0.558529 0.876608 1.906368 0
M  V30 49 H -1.982158 0.079311 1.465776 0
M  V30 50 H -0.461381 -0.592075 1.088434 0
M  V30 END ATOM
M  V30 BEGIN BOND
M  V30 1 2 1 2
M  V30 2 1 2 3
M  V30 3 2 3 4
M  V30 4 1 4 5
M  V30 5 2 5 6
M  V30 6 1 6 7
M  V30 7 2 7 8
M  V30 8 1 8 9
M  V30 9 2 9 10
M  V30 10 1 9 11
M  V30 11 2 11 12
M  V30 12 1 12 13
M  V30 13 1 4 14
M  V30 14 2 14 15
M  V30 15 1 15 16
M  V30 16 1 16 17
M  V30 17 1 17 18
M  V30 18 1 18 19
M  V30 19 1 19 20
M  V30 20 2 20 21
M  V30 21 1 21 22
M  V30 22 1 22 23
M  V30 23 2 23 24
M  V30 24 1 24 25
M  V30 25 2 25 26
M  V30 26 1 26 27
M  V30 27 2 27 28
M  V30 28 1 18 29
M  V30 29 1 15 1
M  V30 30 1 28 20
M  V30 31 1 10 5
M  V30 32 1 28 23
M  V30 33 1 13 8
M  V30 34 1 1 30
M  V30 35 1 3 31
M  V30 36 1 7 32
M  V30 37 1 10 33
M  V30 38 1 11 34
M  V30 39 1 13 35
M  V30 40 1 14 36
M  V30 41 1 17 37
M  V30 42 1 17 38
M  V30 43 1 18 39 CFG=1
M  V30 44 1 19 40
M  V30 45 1 19 41
M  V30 46 1 21 42
M  V30 47 1 22 43
M  V30 48 1 24 44
M  V30 49 1 25 45
M  V30 50 1 26 46
M  V30 51 1 27 47
M  V30 52 1 29 48
M  V30 53 1 29 49
M  V30 54 1 29 50
M  V30 END BOND
M  V30 END CTAB
M  END
>  <Dataset>  (24) 
PDB

>  <Ligand_Instance>  (24) 
2OJF_4PY_E_1000

>  <PDB_ID>  (24) 
2OJF

>  <Standardized_SMILES>  (24) 
[H]C1=NC([H])=C(C2=NC([H])=C3C(=C2[H])C([H])=NN3[H])C([H])=C1OC([H])([H])[C@]([H])(C([H])([H])C1=C([H])N([H])C2=C([H])C([H])=C([H])C([H])=C21)[N+]([H])([H])[H]

>  <Name>  (24) 
(2S)-1-(6H-INDOL-3-YL)-3-{[5-(7H-PYRAZOLO[3,4-C]PYRIDIN-5-YL)PYRIDIN-3-YL]OXY}PROPAN-2-AMINE

>  <Pocket>  (24) 
A

>  <ATP_Site>  (24) 
1.0

>  <Peripheral>  (24) 
0.0

>  <Num_H_Atoms_ProtBoundConf>  (24) 
21.0

>  <Num_Resolved_Atoms>  (24) 
29.0

>  <Num_Not_Resolved_Atoms>  (24) 
0.0

>  <2D_Mol_H>  (24) 
<rdkit.Chem.rdchem.Mol object at 0x72a238db7bc0>

>  <MW>  (24) 
385.451

>  <HBA>  (24) 
4

>  <HBD>  (24) 
3

>  <LogP>  (24) 
2.7332

>  <NRB>  (24) 
7

>  <TPSA>  (24) 
107.12

>  <Num_Heavy_Atoms>  (24) 
29

>  <Ro5>  (24) 
[True, True, True, True, True, True]

>  <Ro5_Fulfilled>  (24) 
True

>  <Ro3>  (24) 
[False, False, True, True]

>  <Ro3_Fulfilled>  (24) 
False

>  <Fsp3>  (24) 
0.136364

>  <Fsp3_0.42>  (24) 
False

>  <Fsp3_0.45>  (24) 
False

>  <Stereogenic_Carbons>  (24) 
1

>  <C_Atoms>  (24) 
22

>  <FCStereo>  (24) 
0.045455

>  <SPS>  (24) 
361

>  <nSPS>  (24) 
12.448276

>  <PBF>  (24) 
1.086937

>  <PBF_0.6>  (24) 
True

>  <nPBF>  (24) 
0.037481

>  <nPBF_0.016>  (24) 
True

>  <PMI1>  (24) 
2256.106958

>  <PMI2>  (24) 
6020.748412

>  <PMI3>  (24) 
7398.272468

>  <NPR1>  (24) 
0.304951

>  <NPR2>  (24) 
0.813805

>  <Sum_NPR>  (24) 
1.118755

>  <Sum_NPR_1.07>  (24) 
True

>  <Sum_NPR_1.2>  (24) 
False

>  <MaxAbsEStateIndex>  (24) 
5.981764

>  <MaxEStateIndex>  (24) 
5.981764

>  <MinAbsEStateIndex>  (24) 
0.123396

>  <MinEStateIndex>  (24) 
0.123396

>  <qed>  (24) 
0.417631

>  <MolWt>  (24) 
385.451

>  <HeavyAtomMolWt>  (24) 
364.283

>  <ExactMolWt>  (24) 
385.177136

>  <NumValenceElectrons>  (24) 
144

>  <NumRadicalElectrons>  (24) 
0

>  <MaxPartialCharge>  (24) 
0.140113

>  <MinPartialCharge>  (24) 
-0.485746

>  <MaxAbsPartialCharge>  (24) 
0.485746

>  <MinAbsPartialCharge>  (24) 
0.140113

>  <FpDensityMorgan1>  (24) 
1.034483

>  <FpDensityMorgan2>  (24) 
1.965517

>  <FpDensityMorgan3>  (24) 
2.931034

>  <BCUT2D_MWHI>  (24) 
16.478406

>  <BCUT2D_MWLOW>  (24) 
10.063481

>  <BCUT2D_CHGHI>  (24) 
2.128346

>  <BCUT2D_CHGLO>  (24) 
-2.109254

>  <BCUT2D_LOGPHI>  (24) 
2.236408

>  <BCUT2D_LOGPLOW>  (24) 
-2.641605

>  <BCUT2D_MRHI>  (24) 
5.82914

>  <BCUT2D_MRLOW>  (24) 
-0.422665

>  <AvgIpc>  (24) 
3.390447

>  <BalabanJ>  (24) 
1.273792

>  <BertzCT>  (24) 
1274.535509

>  <Chi0>  (24) 
19.631181

>  <Chi0n>  (24) 
15.799413

>  <Chi0v>  (24) 
15.799413

>  <Chi1>  (24) 
14.259153

>  <Chi1n>  (24) 
9.515208

>  <Chi1v>  (24) 
9.515208

>  <Chi2n>  (24) 
7.176766

>  <Chi2v>  (24) 
7.176766

>  <Chi3n>  (24) 
5.00273

>  <Chi3v>  (24) 
5.00273

>  <Chi4n>  (24) 
3.522741

>  <Chi4v>  (24) 
3.522741

>  <HallKierAlpha>  (24) 
-3.71

>  <Ipc>  (24) 
10394608.161931

>  <Kappa1>  (24) 
17.392624

>  <Kappa2>  (24) 
7.367008

>  <Kappa3>  (24) 
3.55189

>  <LabuteASA>  (24) 
166.502901

>  <PEOE_VSA1>  (24) 
15.454509

>  <PEOE_VSA10>  (24) 
18.398235

>  <PEOE_VSA11>  (24) 
0.0

>  <PEOE_VSA12>  (24) 
0.0

>  <PEOE_VSA13>  (24) 
0.0

>  <PEOE_VSA14>  (24) 
0.0

>  <PEOE_VSA2>  (24) 
15.066639

>  <PEOE_VSA3>  (24) 
0.0

>  <PEOE_VSA4>  (24) 
5.098682

>  <PEOE_VSA5>  (24) 
0.0

>  <PEOE_VSA6>  (24) 
18.199101

>  <PEOE_VSA7>  (24) 
23.762553

>  <PEOE_VSA8>  (24) 
40.667109

>  <PEOE_VSA9>  (24) 
29.801159

>  <SMR_VSA1>  (24) 
10.47053

>  <SMR_VSA10>  (24) 
21.80585

>  <SMR_VSA2>  (24) 
0.0

>  <SMR_VSA3>  (24) 
25.149299

>  <SMR_VSA4>  (24) 
0.0

>  <SMR_VSA5>  (24) 
12.462662

>  <SMR_VSA6>  (24) 
6.606882

>  <SMR_VSA7>  (24) 
72.945872

>  <SMR_VSA8>  (24) 
0.0

>  <SMR_VSA9>  (24) 
17.006891

>  <SlogP_VSA1>  (24) 
10.47053

>  <SlogP_VSA10>  (24) 
0.0

>  <SlogP_VSA11>  (24) 
5.749512

>  <SlogP_VSA12>  (24) 
0.0

>  <SlogP_VSA2>  (24) 
37.798022

>  <SlogP_VSA3>  (24) 
6.420822

>  <SlogP_VSA4>  (24) 
0.0

>  <SlogP_VSA5>  (24) 
5.563451

>  <SlogP_VSA6>  (24) 
67.38242

>  <SlogP_VSA7>  (24) 
0.0

>  <SlogP_VSA8>  (24) 
33.063229

>  <SlogP_VSA9>  (24) 
0.0

>  <EState_VSA1>  (24) 
0.0

>  <EState_VSA10>  (24) 
0.0

>  <EState_VSA11>  (24) 
0.0

>  <EState_VSA2>  (24) 
6.041841

>  <EState_VSA3>  (24) 
12.356394

>  <EState_VSA4>  (24) 
34.097827

>  <EState_VSA5>  (24) 
10.949676

>  <EState_VSA6>  (24) 
24.787374

>  <EState_VSA7>  (24) 
18.199101

>  <EState_VSA8>  (24) 
55.278911

>  <EState_VSA9>  (24) 
4.736863

>  <VSA_EState1>  (24) 
5.981764

>  <VSA_EState10>  (24) 
0.0

>  <VSA_EState2>  (24) 
12.10284

>  <VSA_EState3>  (24) 
9.19986

>  <VSA_EState4>  (24) 
9.316418

>  <VSA_EState5>  (24) 
0.712192

>  <VSA_EState6>  (24) 
12.372293

>  <VSA_EState7>  (24) 
9.968568

>  <VSA_EState8>  (24) 
0.512733

>  <VSA_EState9>  (24) 
0.0

>  <FractionCSP3>  (24) 
0.136364

>  <HeavyAtomCount>  (24) 
29

>  <NHOHCount>  (24) 
5

>  <NOCount>  (24) 
7

>  <NumAliphaticCarbocycles>  (24) 
0

>  <NumAliphaticHeterocycles>  (24) 
0

>  <NumAliphaticRings>  (24) 
0

>  <NumAromaticCarbocycles>  (24) 
1

>  <NumAromaticHeterocycles>  (24) 
4

>  <NAR>  (24) 
5

>  <NumHAcceptors>  (24) 
4

>  <NumHDonors>  (24) 
3

>  <NumHeteroatoms>  (24) 
7

>  <NumRotatableBonds>  (24) 
6

>  <NumSaturatedCarbocycles>  (24) 
0

>  <NumSaturatedHeterocycles>  (24) 
0

>  <NumSaturatedRings>  (24) 
0

>  <RingCount>  (24) 
5

>  <MolLogP>  (24) 
2.7332

>  <MolMR>  (24) 
111.2935

>  <fr_Al_COO>  (24) 
0

>  <fr_Al_OH>  (24) 
0

>  <fr_Al_OH_noTert>  (24) 
0

>  <fr_ArN>  (24) 
0

>  <fr_Ar_COO>  (24) 
0

>  <fr_Ar_N>  (24) 
5

>  <fr_Ar_NH>  (24) 
2

>  <fr_Ar_OH>  (24) 
0

>  <fr_COO>  (24) 
0

>  <fr_COO2>  (24) 
0

>  <fr_C_O>  (24) 
0

>  <fr_C_O_noCOO>  (24) 
0

>  <fr_C_S>  (24) 
0

>  <fr_HOCCN>  (24) 
0

>  <fr_Imine>  (24) 
0

>  <fr_NH0>  (24) 
3

>  <fr_NH1>  (24) 
2

>  <fr_NH2>  (24) 
0

>  <fr_N_O>  (24) 
0

>  <fr_Ndealkylation1>  (24) 
0

>  <fr_Ndealkylation2>  (24) 
0

>  <fr_Nhpyrrole>  (24) 
2

>  <fr_SH>  (24) 
0

>  <fr_aldehyde>  (24) 
0

>  <fr_alkyl_carbamate>  (24) 
0

>  <fr_alkyl_halide>  (24) 
0

>  <fr_allylic_oxid>  (24) 
0

>  <fr_amide>  (24) 
0

>  <fr_amidine>  (24) 
0

>  <fr_aniline>  (24) 
0

>  <fr_aryl_methyl>  (24) 
0

>  <fr_azide>  (24) 
0

>  <fr_azo>  (24) 
0

>  <fr_barbitur>  (24) 
0

>  <fr_benzene>  (24) 
1

>  <fr_benzodiazepine>  (24) 
0

>  <fr_bicyclic>  (24) 
2

>  <fr_diazo>  (24) 
0

>  <fr_dihydropyridine>  (24) 
0

>  <fr_epoxide>  (24) 
0

>  <fr_ester>  (24) 
0

>  <fr_ether>  (24) 
1

>  <fr_furan>  (24) 
0

>  <fr_guanido>  (24) 
0

>  <fr_halogen>  (24) 
0

>  <fr_hdrzine>  (24) 
0

>  <fr_hdrzone>  (24) 
0

>  <fr_imidazole>  (24) 
0

>  <fr_imide>  (24) 
0

>  <fr_isocyan>  (24) 
0

>  <fr_isothiocyan>  (24) 
0

>  <fr_ketone>  (24) 
0

>  <fr_ketone_Topliss>  (24) 
0

>  <fr_lactam>  (24) 
0

>  <fr_lactone>  (24) 
0

>  <fr_methoxy>  (24) 
0

>  <fr_morpholine>  (24) 
0

>  <fr_nitrile>  (24) 
0

>  <fr_nitro>  (24) 
0

>  <fr_nitro_arom>  (24) 
0

>  <fr_nitro_arom_nonortho>  (24) 
0

>  <fr_nitroso>  (24) 
0

>  <fr_oxazole>  (24) 
0

>  <fr_oxime>  (24) 
0

>  <fr_para_hydroxylation>  (24) 
1

>  <fr_phenol>  (24) 
0

>  <fr_phenol_noOrthoHbond>  (24) 
0

>  <fr_phos_acid>  (24) 
0

>  <fr_phos_ester>  (24) 
0

>  <fr_piperdine>  (24) 
0

>  <fr_piperzine>  (24) 
0

>  <fr_priamide>  (24) 
0

>  <fr_prisulfonamd>  (24) 
0

>  <fr_pyridine>  (24) 
2

>  <fr_quatN>  (24) 
1

>  <fr_sulfide>  (24) 
0

>  <fr_sulfonamd>  (24) 
0

>  <fr_sulfone>  (24) 
0

>  <fr_term_acetylene>  (24) 
0

>  <fr_tetrazole>  (24) 
0

>  <fr_thiazole>  (24) 
0

>  <fr_thiocyan>  (24) 
0

>  <fr_thiophene>  (24) 
0

>  <fr_unbrch_alkane>  (24) 
0

>  <fr_urea>  (24) 
0

>  <NP-Likeness>  (24) 
-0.942594

$$$$
4SB
     RDKit          3D

  0  0  0  0  0  0  0  0  0  0999 V3000
M  V30 BEGIN CTAB
M  V30 COUNTS 42 43 0 0 0
M  V30 BEGIN ATOM
M  V30 1 O 2.880856 -5.852916 5.825884 0
M  V30 2 C 2.639080 -4.929204 4.799866 0
M  V30 3 C 1.349244 -4.509363 4.541497 0
M  V30 4 C 1.219309 -3.599712 3.512033 0
M  V30 5 C 2.278161 -3.119190 2.769493 0
M  V30 6 C 2.058110 -2.155619 1.693709 0
M  V30 7 N 0.849205 -1.775088 1.466543 0
M  V30 8 N 0.550289 -0.840248 0.437911 0
M  V30 9 C -0.506462 0.063226 0.690726 0
M  V30 10 O -1.037132 -0.119106 1.843218 0
M  V30 11 C -1.059229 1.145548 -0.161781 0 CFG=1
M  V30 12 C -0.095131 2.215937 -0.480361 0
M  V30 13 C 0.998335 2.146078 -1.316333 0
M  V30 14 C 1.857438 3.184723 -1.558387 0
M  V30 15 C 1.655840 4.393426 -0.951109 0
M  V30 16 C 0.594485 4.567902 -0.099625 0
M  V30 17 C -0.225446 3.484539 0.096679 0
M  V30 18 C -1.607232 0.519490 -1.425149 0
M  V30 19 C -2.691677 -0.471320 -1.156130 0
M  V30 20 N -3.152553 -1.016504 -2.425818 0 CHG=1 VAL=4
M  V30 21 C 3.534894 -3.589635 3.092241 0
M  V30 22 C 3.759690 -4.510649 4.118132 0
M  V30 23 Br 5.505936 -5.144982 4.544287 0
M  V30 24 H 2.486504 -6.778697 5.727081 0
M  V30 25 H 0.515398 -4.884760 5.122769 0
M  V30 26 H 0.229941 -3.241753 3.272295 0
M  V30 27 H 2.880922 -1.784632 1.119748 0
M  V30 28 H 1.010018 -0.731919 -0.491112 0
M  V30 29 H -1.930927 1.636878 0.352087 0
M  V30 30 H 1.180645 1.207912 -1.814969 0
M  V30 31 H 2.692069 3.033633 -2.233280 0
M  V30 32 H 2.338044 5.208221 -1.147104 0
M  V30 33 H 0.386086 5.499531 0.407518 0
M  V30 34 H -1.073535 3.634083 0.780893 0
M  V30 35 H -0.819131 -0.003246 -2.004722 0
M  V30 36 H -2.030353 1.300768 -2.089548 0
M  V30 37 H -3.592693 -0.006265 -0.689405 0
M  V30 38 H -2.319323 -1.329985 -0.540877 0
M  V30 39 H -3.726299 -1.875608 -2.249824 0
M  V30 40 H -3.757963 -0.283812 -2.848830 0
M  V30 41 H -2.333130 -1.243481 -3.034791 0
M  V30 42 H 4.372610 -3.236747 2.536257 0
M  V30 END ATOM
M  V30 BEGIN BOND
M  V30 1 1 1 2
M  V30 2 2 2 3
M  V30 3 1 3 4
M  V30 4 2 4 5
M  V30 5 1 5 6
M  V30 6 2 6 7
M  V30 7 1 7 8
M  V30 8 1 8 9
M  V30 9 2 9 10
M  V30 10 1 9 11
M  V30 11 1 11 12
M  V30 12 2 12 13
M  V30 13 1 13 14
M  V30 14 2 14 15
M  V30 15 1 15 16
M  V30 16 2 16 17
M  V30 17 1 11 18
M  V30 18 1 18 19
M  V30 19 1 19 20
M  V30 20 1 5 21
M  V30 21 2 21 22
M  V30 22 1 22 23
M  V30 23 1 22 2
M  V30 24 1 17 12
M  V30 25 1 1 24
M  V30 26 1 3 25
M  V30 27 1 4 26
M  V30 28 1 6 27
M  V30 29 1 8 28
M  V30 30 1 11 29 CFG=1
M  V30 31 1 13 30
M  V30 32 1 14 31
M  V30 33 1 15 32
M  V30 34 1 16 33
M  V30 35 1 17 34
M  V30 36 1 18 35
M  V30 37 1 18 36
M  V30 38 1 19 37
M  V30 39 1 19 38
M  V30 40 1 20 39
M  V30 41 1 20 40
M  V30 42 1 20 41
M  V30 43 1 21 42
M  V30 END BOND
M  V30 END CTAB
M  END
>  <Dataset>  (25) 
PDB

>  <Ligand_Instance>  (25) 
3P0M_4SB_A_351

>  <PDB_ID>  (25) 
3P0M

>  <Standardized_SMILES>  (25) 
[H]OC1=C([H])C([H])=C(/C([H])=N/N([H])C(=O)[C@@]([H])(C2=C([H])C([H])=C([H])C([H])=C2[H])C([H])([H])C([H])([H])[N+]([H])([H])[H])C([H])=C1Br

>  <Name>  (25) 
(2R)-4-amino-N'-[(1E)-(3-bromo-4-hydroxyphenyl)methylidene]-2-phenylbutanehydrazide

>  <Pocket>  (25) 
A

>  <ATP_Site>  (25) 
1.0

>  <Peripheral>  (25) 
0.0

>  <Num_H_Atoms_ProtBoundConf>  (25) 
19.0

>  <Num_Resolved_Atoms>  (25) 
23.0

>  <Num_Not_Resolved_Atoms>  (25) 
0.0

>  <2D_Mol_H>  (25) 
<rdkit.Chem.rdchem.Mol object at 0x72a238db7ca0>

>  <MW>  (25) 
377.262

>  <HBA>  (25) 
3

>  <HBD>  (25) 
3

>  <LogP>  (25) 
2.0206

>  <NRB>  (25) 
8

>  <TPSA>  (25) 
89.33

>  <Num_Heavy_Atoms>  (25) 
23

>  <Ro5>  (25) 
[True, True, True, True, True, True]

>  <Ro5_Fulfilled>  (25) 
True

>  <Ro3>  (25) 
[False, True, True, True]

>  <Ro3_Fulfilled>  (25) 
True

>  <Fsp3>  (25) 
0.176471

>  <Fsp3_0.42>  (25) 
False

>  <Fsp3_0.45>  (25) 
False

>  <Stereogenic_Carbons>  (25) 
1

>  <C_Atoms>  (25) 
17

>  <FCStereo>  (25) 
0.058824

>  <SPS>  (25) 
282

>  <nSPS>  (25) 
12.26087

>  <PBF>  (25) 
0.944502

>  <PBF_0.6>  (25) 
True

>  <nPBF>  (25) 
0.041065

>  <nPBF_0.016>  (25) 
True

>  <PMI1>  (25) 
1390.413563

>  <PMI2>  (25) 
7918.493617

>  <PMI3>  (25) 
8750.017297

>  <NPR1>  (25) 
0.158904

>  <NPR2>  (25) 
0.904969

>  <Sum_NPR>  (25) 
1.063873

>  <Sum_NPR_1.07>  (25) 
False

>  <Sum_NPR_1.2>  (25) 
False

>  <MaxAbsEStateIndex>  (25) 
12.342977

>  <MaxEStateIndex>  (25) 
12.342977

>  <MinAbsEStateIndex>  (25) 
0.158123

>  <MinEStateIndex>  (25) 
-0.266293

>  <qed>  (25) 
0.531233

>  <MolWt>  (25) 
377.262

>  <HeavyAtomMolWt>  (25) 
358.11

>  <ExactMolWt>  (25) 
376.065515

>  <NumValenceElectrons>  (25) 
120

>  <NumRadicalElectrons>  (25) 
0

>  <MaxPartialCharge>  (25) 
0.24733

>  <MinPartialCharge>  (25) 
-0.506775

>  <MaxAbsPartialCharge>  (25) 
0.506775

>  <MinAbsPartialCharge>  (25) 
0.24733

>  <FpDensityMorgan1>  (25) 
1.304348

>  <FpDensityMorgan2>  (25) 
2.043478

>  <FpDensityMorgan3>  (25) 
2.695652

>  <BCUT2D_MWHI>  (25) 
79.918731

>  <BCUT2D_MWLOW>  (25) 
9.950275

>  <BCUT2D_CHGHI>  (25) 
2.194139

>  <BCUT2D_CHGLO>  (25) 
-2.130711

>  <BCUT2D_LOGPHI>  (25) 
2.232042

>  <BCUT2D_LOGPLOW>  (25) 
-2.509118

>  <BCUT2D_MRHI>  (25) 
9.103463

>  <BCUT2D_MRLOW>  (25) 
-0.368327

>  <AvgIpc>  (25) 
2.562915

>  <BalabanJ>  (25) 
2.036594

>  <BertzCT>  (25) 
689.492765

>  <Chi0>  (25) 
16.65649

>  <Chi0n>  (25) 
12.575463

>  <Chi0v>  (25) 
14.16146

>  <Chi1>  (25) 
11.113392

>  <Chi1n>  (25) 
7.27151

>  <Chi1v>  (25) 
8.064508

>  <Chi2n>  (25) 
5.0506

>  <Chi2v>  (25) 
5.904937

>  <Chi3n>  (25) 
3.371332

>  <Chi3v>  (25) 
4.006489

>  <Chi4n>  (25) 
2.190407

>  <Chi4v>  (25) 
2.586906

>  <HallKierAlpha>  (25) 
-2.18

>  <Ipc>  (25) 
155394.690784

>  <Kappa1>  (25) 
17.178235

>  <Kappa2>  (25) 
8.451911

>  <Kappa3>  (25) 
4.905326

>  <LabuteASA>  (25) 
142.891723

>  <PEOE_VSA1>  (25) 
10.840195

>  <PEOE_VSA10>  (25) 
5.749512

>  <PEOE_VSA11>  (25) 
0.0

>  <PEOE_VSA12>  (25) 
5.90718

>  <PEOE_VSA13>  (25) 
0.0

>  <PEOE_VSA14>  (25) 
0.0

>  <PEOE_VSA2>  (25) 
4.794537

>  <PEOE_VSA3>  (25) 
5.425791

>  <PEOE_VSA4>  (25) 
5.101408

>  <PEOE_VSA5>  (25) 
0.0

>  <PEOE_VSA6>  (25) 
30.331835

>  <PEOE_VSA7>  (25) 
45.255948

>  <PEOE_VSA8>  (25) 
6.420822

>  <PEOE_VSA9>  (25) 
23.149983

>  <SMR_VSA1>  (25) 
15.634732

>  <SMR_VSA10>  (25) 
28.051724

>  <SMR_VSA2>  (25) 
0.0

>  <SMR_VSA3>  (25) 
5.425791

>  <SMR_VSA4>  (25) 
5.101408

>  <SMR_VSA5>  (25) 
12.338728

>  <SMR_VSA6>  (25) 
6.544756

>  <SMR_VSA7>  (25) 
64.130559

>  <SMR_VSA8>  (25) 
0.0

>  <SMR_VSA9>  (25) 
5.749512

>  <SlogP_VSA1>  (25) 
11.159459

>  <SlogP_VSA10>  (25) 
0.0

>  <SlogP_VSA11>  (25) 
5.749512

>  <SlogP_VSA12>  (25) 
15.929944

>  <SlogP_VSA2>  (25) 
23.773064

>  <SlogP_VSA3>  (25) 
4.794537

>  <SlogP_VSA4>  (25) 
0.0

>  <SlogP_VSA5>  (25) 
23.465631

>  <SlogP_VSA6>  (25) 
58.105064

>  <SlogP_VSA7>  (25) 
0.0

>  <SlogP_VSA8>  (25) 
0.0

>  <SlogP_VSA9>  (25) 
0.0

>  <EState_VSA1>  (25) 
0.0

>  <EState_VSA10>  (25) 
9.901065

>  <EState_VSA11>  (25) 
0.0

>  <EState_VSA2>  (25) 
17.574598

>  <EState_VSA3>  (25) 
17.438298

>  <EState_VSA4>  (25) 
11.126903

>  <EState_VSA5>  (25) 
6.214601

>  <EState_VSA6>  (25) 
18.199101

>  <EState_VSA7>  (25) 
30.331835

>  <EState_VSA8>  (25) 
32.19081

>  <EState_VSA9>  (25) 
0.0

>  <VSA_EState1>  (25) 
0.575922

>  <VSA_EState10>  (25) 
3.23528

>  <VSA_EState2>  (25) 
12.342977

>  <VSA_EState3>  (25) 
13.441761

>  <VSA_EState4>  (25) 
8.127293

>  <VSA_EState5>  (25) 
-0.266555

>  <VSA_EState6>  (25) 
14.592849

>  <VSA_EState7>  (25) 
2.198882

>  <VSA_EState8>  (25) 
0.668258

>  <VSA_EState9>  (25) 
0.0

>  <FractionCSP3>  (25) 
0.176471

>  <HeavyAtomCount>  (25) 
23

>  <NHOHCount>  (25) 
5

>  <NOCount>  (25) 
5

>  <NumAliphaticCarbocycles>  (25) 
0

>  <NumAliphaticHeterocycles>  (25) 
0

>  <NumAliphaticRings>  (25) 
0

>  <NumAromaticCarbocycles>  (25) 
2

>  <NumAromaticHeterocycles>  (25) 
0

>  <NAR>  (25) 
2

>  <NumHAcceptors>  (25) 
3

>  <NumHDonors>  (25) 
3

>  <NumHeteroatoms>  (25) 
6

>  <NumRotatableBonds>  (25) 
6

>  <NumSaturatedCarbocycles>  (25) 
0

>  <NumSaturatedHeterocycles>  (25) 
0

>  <NumSaturatedRings>  (25) 
0

>  <RingCount>  (25) 
2

>  <MolLogP>  (25) 
2.0206

>  <MolMR>  (25) 
93.0986

>  <fr_Al_COO>  (25) 
0

>  <fr_Al_OH>  (25) 
0

>  <fr_Al_OH_noTert>  (25) 
0

>  <fr_ArN>  (25) 
0

>  <fr_Ar_COO>  (25) 
0

>  <fr_Ar_N>  (25) 
0

>  <fr_Ar_NH>  (25) 
0

>  <fr_Ar_OH>  (25) 
1

>  <fr_COO>  (25) 
0

>  <fr_COO2>  (25) 
0

>  <fr_C_O>  (25) 
1

>  <fr_C_O_noCOO>  (25) 
1

>  <fr_C_S>  (25) 
0

>  <fr_HOCCN>  (25) 
0

>  <fr_Imine>  (25) 
0

>  <fr_NH0>  (25) 
1

>  <fr_NH1>  (25) 
1

>  <fr_NH2>  (25) 
0

>  <fr_N_O>  (25) 
0

>  <fr_Ndealkylation1>  (25) 
0

>  <fr_Ndealkylation2>  (25) 
0

>  <fr_Nhpyrrole>  (25) 
0

>  <fr_SH>  (25) 
0

>  <fr_aldehyde>  (25) 
0

>  <fr_alkyl_carbamate>  (25) 
0

>  <fr_alkyl_halide>  (25) 
0

>  <fr_allylic_oxid>  (25) 
0

>  <fr_amide>  (25) 
1

>  <fr_amidine>  (25) 
0

>  <fr_aniline>  (25) 
0

>  <fr_aryl_methyl>  (25) 
0

>  <fr_azide>  (25) 
0

>  <fr_azo>  (25) 
0

>  <fr_barbitur>  (25) 
0

>  <fr_benzene>  (25) 
2

>  <fr_benzodiazepine>  (25) 
0

>  <fr_bicyclic>  (25) 
0

>  <fr_diazo>  (25) 
0

>  <fr_dihydropyridine>  (25) 
0

>  <fr_epoxide>  (25) 
0

>  <fr_ester>  (25) 
0

>  <fr_ether>  (25) 
0

>  <fr_furan>  (25) 
0

>  <fr_guanido>  (25) 
0

>  <fr_halogen>  (25) 
1

>  <fr_hdrzine>  (25) 
0

>  <fr_hdrzone>  (25) 
1

>  <fr_imidazole>  (25) 
0

>  <fr_imide>  (25) 
0

>  <fr_isocyan>  (25) 
0

>  <fr_isothiocyan>  (25) 
0

>  <fr_ketone>  (25) 
0

>  <fr_ketone_Topliss>  (25) 
0

>  <fr_lactam>  (25) 
0

>  <fr_lactone>  (25) 
0

>  <fr_methoxy>  (25) 
0

>  <fr_morpholine>  (25) 
0

>  <fr_nitrile>  (25) 
0

>  <fr_nitro>  (25) 
0

>  <fr_nitro_arom>  (25) 
0

>  <fr_nitro_arom_nonortho>  (25) 
0

>  <fr_nitroso>  (25) 
0

>  <fr_oxazole>  (25) 
0

>  <fr_oxime>  (25) 
0

>  <fr_para_hydroxylation>  (25) 
0

>  <fr_phenol>  (25) 
1

>  <fr_phenol_noOrthoHbond>  (25) 
1

>  <fr_phos_acid>  (25) 
0

>  <fr_phos_ester>  (25) 
0

>  <fr_piperdine>  (25) 
0

>  <fr_piperzine>  (25) 
0

>  <fr_priamide>  (25) 
0

>  <fr_prisulfonamd>  (25) 
0

>  <fr_pyridine>  (25) 
0

>  <fr_quatN>  (25) 
1

>  <fr_sulfide>  (25) 
0

>  <fr_sulfonamd>  (25) 
0

>  <fr_sulfone>  (25) 
0

>  <fr_term_acetylene>  (25) 
0

>  <fr_tetrazole>  (25) 
0

>  <fr_thiazole>  (25) 
0

>  <fr_thiocyan>  (25) 
0

>  <fr_thiophene>  (25) 
0

>  <fr_unbrch_alkane>  (25) 
0

>  <fr_urea>  (25) 
0

>  <NP-Likeness>  (25) 
-0.674107

$$$$
4W1
     RDKit          3D

  0  0  0  0  0  0  0  0  0  0999 V3000
M  V30 BEGIN CTAB
M  V30 COUNTS 19 20 0 0 0
M  V30 BEGIN ATOM
M  V30 1 O -1.096058 -0.958943 2.960121 0
M  V30 2 C -0.325313 0.184613 2.948586 0
M  V30 3 C 0.948177 0.003243 2.161172 0
M  V30 4 C 2.111086 -0.174193 2.904977 0
M  V30 5 S 3.423510 -0.359760 1.578510 0
M  V30 6 C 2.291946 -0.182730 0.263528 0
M  V30 7 C 2.566608 -0.213787 -1.096254 0
M  V30 8 C 1.554472 -0.056899 -2.020872 0
M  V30 9 C 0.315472 0.122804 -1.445191 0
M  V30 10 C 0.030812 0.155388 -0.100036 0
M  V30 11 C 1.058236 -0.003375 0.805360 0
M  V30 12 H -1.993053 -0.680025 3.293855 0
M  V30 13 H -0.147069 0.572450 3.943192 0
M  V30 14 H -0.966929 0.963454 2.435877 0
M  V30 15 H 2.272290 -0.205330 3.980730 0
M  V30 16 H 3.585353 -0.364335 -1.419252 0
M  V30 17 H 1.714055 -0.073203 -3.074370 0
M  V30 18 H -0.518262 0.251256 -2.157515 0
M  V30 19 H -1.026834 0.310999 0.168511 0
M  V30 END ATOM
M  V30 BEGIN BOND
M  V30 1 1 1 2
M  V30 2 1 2 3
M  V30 3 2 3 4
M  V30 4 1 4 5
M  V30 5 1 5 6
M  V30 6 2 6 7
M  V30 7 1 7 8
M  V30 8 2 8 9
M  V30 9 1 9 10
M  V30 10 2 10 11
M  V30 11 1 11 3
M  V30 12 1 11 6
M  V30 13 1 1 12
M  V30 14 1 2 13
M  V30 15 1 2 14
M  V30 16 1 4 15
M  V30 17 1 7 16
M  V30 18 1 8 17
M  V30 19 1 9 18
M  V30 20 1 10 19
M  V30 END BOND
M  V30 END CTAB
M  END
>  <Dataset>  (26) 
PDB

>  <Ligand_Instance>  (26) 
5BX7_4W1_A_401

>  <PDB_ID>  (26) 
5BX7

>  <Standardized_SMILES>  (26) 
[H]OC([H])([H])C1=C([H])SC2=C([H])C([H])=C([H])C([H])=C21

>  <Name>  (26) 
1-benzothiophen-3-ylmethanol

>  <Pocket>  (26) 
A

>  <ATP_Site>  (26) 
1.0

>  <Peripheral>  (26) 
0.0

>  <Num_H_Atoms_ProtBoundConf>  (26) 
8.0

>  <Num_Resolved_Atoms>  (26) 
11.0

>  <Num_Not_Resolved_Atoms>  (26) 
0.0

>  <2D_Mol_H>  (26) 
<rdkit.Chem.rdchem.Mol object at 0x72a238db7d80>

>  <MW>  (26) 
164.229

>  <HBA>  (26) 
2

>  <HBD>  (26) 
1

>  <LogP>  (26) 
2.3936

>  <NRB>  (26) 
2

>  <TPSA>  (26) 
20.23

>  <Num_Heavy_Atoms>  (26) 
11

>  <Ro5>  (26) 
[True, True, True, True, True, True]

>  <Ro5_Fulfilled>  (26) 
True

>  <Ro3>  (26) 
[True, True, True, True]

>  <Ro3_Fulfilled>  (26) 
True

>  <Fsp3>  (26) 
0.111111

>  <Fsp3_0.42>  (26) 
False

>  <Fsp3_0.45>  (26) 
False

>  <Stereogenic_Carbons>  (26) 
0

>  <C_Atoms>  (26) 
9

>  <FCStereo>  (26) 
0.0

>  <SPS>  (26) 
117

>  <nSPS>  (26) 
10.636364

>  <PBF>  (26) 
0.244718

>  <PBF_0.6>  (26) 
False

>  <nPBF>  (26) 
0.022247

>  <nPBF_0.016>  (26) 
True

>  <PMI1>  (26) 
354.191944

>  <PMI2>  (26) 
545.647002

>  <PMI3>  (26) 
868.15415

>  <NPR1>  (26) 
0.407983

>  <NPR2>  (26) 
0.628514

>  <Sum_NPR>  (26) 
1.036497

>  <Sum_NPR_1.07>  (26) 
False

>  <Sum_NPR_1.2>  (26) 
False

>  <MaxAbsEStateIndex>  (26) 
8.93117

>  <MaxEStateIndex>  (26) 
8.93117

>  <MinAbsEStateIndex>  (26) 
0.14287

>  <MinEStateIndex>  (26) 
0.14287

>  <qed>  (26) 
0.685783

>  <MolWt>  (26) 
164.229

>  <HeavyAtomMolWt>  (26) 
156.165

>  <ExactMolWt>  (26) 
164.029586

>  <NumValenceElectrons>  (26) 
56

>  <NumRadicalElectrons>  (26) 
0

>  <MaxPartialCharge>  (26) 
0.069555

>  <MinPartialCharge>  (26) 
-0.391627

>  <MaxAbsPartialCharge>  (26) 
0.391627

>  <MinAbsPartialCharge>  (26) 
0.069555

>  <FpDensityMorgan1>  (26) 
1.272727

>  <FpDensityMorgan2>  (26) 
2.090909

>  <FpDensityMorgan3>  (26) 
2.909091

>  <BCUT2D_MWHI>  (26) 
32.133445

>  <BCUT2D_MWLOW>  (26) 
10.173694

>  <BCUT2D_CHGHI>  (26) 
1.991322

>  <BCUT2D_CHGLO>  (26) 
-1.900779

>  <BCUT2D_LOGPHI>  (26) 
2.245157

>  <BCUT2D_LOGPLOW>  (26) 
-1.763143

>  <BCUT2D_MRHI>  (26) 
7.169109

>  <BCUT2D_MRLOW>  (26) 
0.283545

>  <AvgIpc>  (26) 
2.467091

>  <BalabanJ>  (26) 
2.760005

>  <BertzCT>  (26) 
364.355169

>  <Chi0>  (26) 
7.681798

>  <Chi0n>  (26) 
5.94932

>  <Chi0v>  (26) 
6.765817

>  <Chi1>  (26) 
5.415015

>  <Chi1n>  (26) 
3.475633

>  <Chi1v>  (26) 
4.355286

>  <Chi2n>  (26) 
2.415214

>  <Chi2v>  (26) 
3.326445

>  <Chi3n>  (26) 
1.731509

>  <Chi3v>  (26) 
2.743808

>  <Chi4n>  (26) 
1.155231

>  <Chi4v>  (26) 
2.109197

>  <HallKierAlpha>  (26) 
-0.86

>  <Ipc>  (26) 
656.246275

>  <Kappa1>  (26) 
6.825901

>  <Kappa2>  (26) 
2.642064

>  <Kappa3>  (26) 
1.042636

>  <LabuteASA>  (26) 
68.912607

>  <PEOE_VSA1>  (26) 
5.106527

>  <PEOE_VSA10>  (26) 
0.0

>  <PEOE_VSA11>  (26) 
0.0

>  <PEOE_VSA12>  (26) 
0.0

>  <PEOE_VSA13>  (26) 
0.0

>  <PEOE_VSA14>  (26) 
0.0

>  <PEOE_VSA2>  (26) 
0.0

>  <PEOE_VSA3>  (26) 
0.0

>  <PEOE_VSA4>  (26) 
0.0

>  <PEOE_VSA5>  (26) 
11.336786

>  <PEOE_VSA6>  (26) 
18.199101

>  <PEOE_VSA7>  (26) 
22.396106

>  <PEOE_VSA8>  (26) 
4.69992

>  <PEOE_VSA9>  (26) 
6.606882

>  <SMR_VSA1>  (26) 
5.106527

>  <SMR_VSA10>  (26) 
21.42293

>  <SMR_VSA2>  (26) 
0.0

>  <SMR_VSA3>  (26) 
0.0

>  <SMR_VSA4>  (26) 
0.0

>  <SMR_VSA5>  (26) 
6.606882

>  <SMR_VSA6>  (26) 
0.0

>  <SMR_VSA7>  (26) 
35.208983

>  <SMR_VSA8>  (26) 
0.0

>  <SMR_VSA9>  (26) 
0.0

>  <SlogP_VSA1>  (26) 
0.0

>  <SlogP_VSA10>  (26) 
0.0

>  <SlogP_VSA11>  (26) 
0.0

>  <SlogP_VSA12>  (26) 
11.336786

>  <SlogP_VSA2>  (26) 
5.106527

>  <SlogP_VSA3>  (26) 
6.606882

>  <SlogP_VSA4>  (26) 
0.0

>  <SlogP_VSA5>  (26) 
5.563451

>  <SlogP_VSA6>  (26) 
29.645531

>  <SlogP_VSA7>  (26) 
0.0

>  <SlogP_VSA8>  (26) 
10.086144

>  <SlogP_VSA9>  (26) 
0.0

>  <EState_VSA1>  (26) 
0.0

>  <EState_VSA10>  (26) 
0.0

>  <EState_VSA11>  (26) 
0.0

>  <EState_VSA2>  (26) 
6.606882

>  <EState_VSA3>  (26) 
0.0

>  <EState_VSA4>  (26) 
5.563451

>  <EState_VSA5>  (26) 
10.086144

>  <EState_VSA6>  (26) 
11.336786

>  <EState_VSA7>  (26) 
23.579164

>  <EState_VSA8>  (26) 
6.066367

>  <EState_VSA9>  (26) 
5.106527

>  <VSA_EState1>  (26) 
1.246806

>  <VSA_EState10>  (26) 
1.678519

>  <VSA_EState2>  (26) 
0.0

>  <VSA_EState3>  (26) 
12.116355

>  <VSA_EState4>  (26) 
1.032963

>  <VSA_EState5>  (26) 
0.0

>  <VSA_EState6>  (26) 
8.115821

>  <VSA_EState7>  (26) 
0.0

>  <VSA_EState8>  (26) 
0.14287

>  <VSA_EState9>  (26) 
0.0

>  <FractionCSP3>  (26) 
0.111111

>  <HeavyAtomCount>  (26) 
11

>  <NHOHCount>  (26) 
1

>  <NOCount>  (26) 
1

>  <NumAliphaticCarbocycles>  (26) 
0

>  <NumAliphaticHeterocycles>  (26) 
0

>  <NumAliphaticRings>  (26) 
0

>  <NumAromaticCarbocycles>  (26) 
1

>  <NumAromaticHeterocycles>  (26) 
1

>  <NAR>  (26) 
2

>  <NumHAcceptors>  (26) 
2

>  <NumHDonors>  (26) 
1

>  <NumHeteroatoms>  (26) 
2

>  <NumRotatableBonds>  (26) 
1

>  <NumSaturatedCarbocycles>  (26) 
0

>  <NumSaturatedHeterocycles>  (26) 
0

>  <NumSaturatedRings>  (26) 
0

>  <RingCount>  (26) 
2

>  <MolLogP>  (26) 
2.3936

>  <MolMR>  (26) 
47.7478

>  <fr_Al_COO>  (26) 
0

>  <fr_Al_OH>  (26) 
1

>  <fr_Al_OH_noTert>  (26) 
1

>  <fr_ArN>  (26) 
0

>  <fr_Ar_COO>  (26) 
0

>  <fr_Ar_N>  (26) 
0

>  <fr_Ar_NH>  (26) 
0

>  <fr_Ar_OH>  (26) 
0

>  <fr_COO>  (26) 
0

>  <fr_COO2>  (26) 
0

>  <fr_C_O>  (26) 
0

>  <fr_C_O_noCOO>  (26) 
0

>  <fr_C_S>  (26) 
0

>  <fr_HOCCN>  (26) 
0

>  <fr_Imine>  (26) 
0

>  <fr_NH0>  (26) 
0

>  <fr_NH1>  (26) 
0

>  <fr_NH2>  (26) 
0

>  <fr_N_O>  (26) 
0

>  <fr_Ndealkylation1>  (26) 
0

>  <fr_Ndealkylation2>  (26) 
0

>  <fr_Nhpyrrole>  (26) 
0

>  <fr_SH>  (26) 
0

>  <fr_aldehyde>  (26) 
0

>  <fr_alkyl_carbamate>  (26) 
0

>  <fr_alkyl_halide>  (26) 
0

>  <fr_allylic_oxid>  (26) 
0

>  <fr_amide>  (26) 
0

>  <fr_amidine>  (26) 
0

>  <fr_aniline>  (26) 
0

>  <fr_aryl_methyl>  (26) 
0

>  <fr_azide>  (26) 
0

>  <fr_azo>  (26) 
0

>  <fr_barbitur>  (26) 
0

>  <fr_benzene>  (26) 
1

>  <fr_benzodiazepine>  (26) 
0

>  <fr_bicyclic>  (26) 
1

>  <fr_diazo>  (26) 
0

>  <fr_dihydropyridine>  (26) 
0

>  <fr_epoxide>  (26) 
0

>  <fr_ester>  (26) 
0

>  <fr_ether>  (26) 
0

>  <fr_furan>  (26) 
0

>  <fr_guanido>  (26) 
0

>  <fr_halogen>  (26) 
0

>  <fr_hdrzine>  (26) 
0

>  <fr_hdrzone>  (26) 
0

>  <fr_imidazole>  (26) 
0

>  <fr_imide>  (26) 
0

>  <fr_isocyan>  (26) 
0

>  <fr_isothiocyan>  (26) 
0

>  <fr_ketone>  (26) 
0

>  <fr_ketone_Topliss>  (26) 
0

>  <fr_lactam>  (26) 
0

>  <fr_lactone>  (26) 
0

>  <fr_methoxy>  (26) 
0

>  <fr_morpholine>  (26) 
0

>  <fr_nitrile>  (26) 
0

>  <fr_nitro>  (26) 
0

>  <fr_nitro_arom>  (26) 
0

>  <fr_nitro_arom_nonortho>  (26) 
0

>  <fr_nitroso>  (26) 
0

>  <fr_oxazole>  (26) 
0

>  <fr_oxime>  (26) 
0

>  <fr_para_hydroxylation>  (26) 
0

>  <fr_phenol>  (26) 
0

>  <fr_phenol_noOrthoHbond>  (26) 
0

>  <fr_phos_acid>  (26) 
0

>  <fr_phos_ester>  (26) 
0

>  <fr_piperdine>  (26) 
0

>  <fr_piperzine>  (26) 
0

>  <fr_priamide>  (26) 
0

>  <fr_prisulfonamd>  (26) 
0

>  <fr_pyridine>  (26) 
0

>  <fr_quatN>  (26) 
0

>  <fr_sulfide>  (26) 
0

>  <fr_sulfonamd>  (26) 
0

>  <fr_sulfone>  (26) 
0

>  <fr_term_acetylene>  (26) 
0

>  <fr_tetrazole>  (26) 
0

>  <fr_thiazole>  (26) 
0

>  <fr_thiocyan>  (26) 
0

>  <fr_thiophene>  (26) 
1

>  <fr_unbrch_alkane>  (26) 
0

>  <fr_urea>  (26) 
0

>  <NP-Likeness>  (26) 
-1.027109

$$$$
504
     RDKit          3D

  0  0  0  0  0  0  0  0  0  0999 V3000
M  V30 BEGIN CTAB
M  V30 COUNTS 64 68 0 0 0
M  V30 BEGIN ATOM
M  V30 1 C 8.086698 -0.181558 -1.196346 0
M  V30 2 C 7.713674 1.166520 -1.195896 0
M  V30 3 C 6.570398 1.520222 -0.520493 0
M  V30 4 C 5.792449 0.608730 0.145241 0
M  V30 5 C 6.226327 -0.693524 0.096779 0
M  V30 6 N 7.334830 -1.083968 -0.549759 0
M  V30 7 N 5.312338 -1.379544 0.802167 0
M  V30 8 C 4.380335 -0.521468 1.247506 0
M  V30 9 C 4.637355 0.803758 0.850896 0
M  V30 10 C 3.814889 1.963814 1.157141 0
M  V30 11 C 4.158202 3.274530 0.871627 0
M  V30 12 S 2.663921 4.211374 1.555688 0
M  V30 13 C 1.888708 2.662127 2.082855 0
M  V30 14 N 0.589465 2.449410 2.760857 0
M  V30 15 C -0.533477 2.252777 1.908485 0
M  V30 16 O -0.353093 2.271638 0.643634 0
M  V30 17 C -1.766522 2.052503 2.703149 0
M  V30 18 C -2.878075 1.847476 1.732190 0
M  V30 19 C -3.668738 2.851594 1.198274 0
M  V30 20 C -4.680672 2.615186 0.308255 0
M  V30 21 C -4.947472 1.325140 -0.092942 0
M  V30 22 C -4.193223 0.275562 0.404222 0
M  V30 23 O -4.328165 -1.071014 0.107571 0
M  V30 24 C -5.253001 -1.645219 -0.751223 0
M  V30 25 C -5.167609 -3.144208 -0.888361 0
M  V30 26 C -3.862307 -3.644239 -1.407328 0
M  V30 27 C -2.660744 -3.325143 -0.590105 0
M  V30 28 C -2.740525 -3.900391 0.805152 0
M  V30 29 C -1.368088 -4.187605 1.370132 0
M  V30 30 N -0.322905 -3.369762 0.792236 0 CHG=1 VAL=4
M  V30 31 C -0.202009 -3.553675 -0.635439 0
M  V30 32 C -1.487251 -4.069441 -1.248466 0
M  V30 33 C -3.173307 0.546694 1.305473 0
M  V30 34 N 2.638873 1.795699 1.772587 0
M  V30 35 H 8.999876 -0.478435 -1.733415 0
M  V30 36 H 8.345971 1.860413 -1.728889 0
M  V30 37 H 6.356298 2.550251 -0.573673 0
M  V30 38 H 5.347391 -2.404112 0.959312 0
M  V30 39 H 3.541842 -0.887666 1.848472 0
M  V30 40 H 4.929728 3.810504 0.438759 0
M  V30 41 H 0.650628 2.469641 3.791935 0
M  V30 42 H -1.983745 2.867645 3.402488 0
M  V30 43 H -1.726695 1.116443 3.329109 0
M  V30 44 H -3.448822 3.863506 1.521693 0
M  V30 45 H -5.280555 3.416684 -0.091154 0
M  V30 46 H -5.725412 1.040245 -0.789690 0
M  V30 47 H -5.217646 -1.237870 -1.786082 0
M  V30 48 H -6.280923 -1.426559 -0.365512 0
M  V30 49 H -5.932127 -3.430803 -1.659685 0
M  V30 50 H -5.516173 -3.665447 0.031596 0
M  V30 51 H -3.774920 -3.277224 -2.457590 0
M  V30 52 H -3.918725 -4.763881 -1.525933 0
M  V30 53 H -2.437307 -2.229388 -0.587757 0
M  V30 54 H -3.336595 -3.243575 1.435841 0
M  V30 55 H -3.214486 -4.919186 0.689116 0
M  V30 56 H -1.403690 -3.948630 2.452789 0
M  V30 57 H -1.068922 -5.255041 1.294760 0
M  V30 58 H 0.567725 -3.717658 1.212999 0
M  V30 59 H -0.412830 -2.366173 1.067928 0
M  V30 60 H 0.648980 -4.173160 -0.937296 0
M  V30 61 H -0.049559 -2.529005 -1.073395 0
M  V30 62 H -1.508188 -3.973149 -2.331877 0
M  V30 63 H -1.621145 -5.131640 -0.981060 0
M  V30 64 H -2.540787 -0.246105 1.734163 0
M  V30 END ATOM
M  V30 BEGIN BOND
M  V30 1 2 1 2
M  V30 2 1 2 3
M  V30 3 2 3 4
M  V30 4 1 4 5
M  V30 5 2 5 6
M  V30 6 1 5 7
M  V30 7 1 7 8
M  V30 8 2 8 9
M  V30 9 1 9 10
M  V30 10 2 10 11
M  V30 11 1 11 12
M  V30 12 1 12 13
M  V30 13 1 13 14
M  V30 14 1 14 15
M  V30 15 2 15 16
M  V30 16 1 15 17
M  V30 17 1 17 18
M  V30 18 2 18 19
M  V30 19 1 19 20
M  V30 20 2 20 21
M  V30 21 1 21 22
M  V30 22 1 22 23
M  V30 23 1 23 24
M  V30 24 1 24 25
M  V30 25 1 25 26
M  V30 26 1 26 27
M  V30 27 1 27 28
M  V30 28 1 28 29
M  V30 29 1 29 30
M  V30 30 1 30 31
M  V30 31 1 31 32
M  V30 32 2 22 33
M  V30 33 2 13 34
M  V30 34 1 6 1
M  V30 35 1 34 10
M  V30 36 1 9 4
M  V30 37 1 33 18
M  V30 38 1 32 27
M  V30 39 1 1 35
M  V30 40 1 2 36
M  V30 41 1 3 37
M  V30 42 1 7 38
M  V30 43 1 8 39
M  V30 44 1 11 40
M  V30 45 1 14 41
M  V30 46 1 17 42
M  V30 47 1 17 43
M  V30 48 1 19 44
M  V30 49 1 20 45
M  V30 50 1 21 46
M  V30 51 1 24 47
M  V30 52 1 24 48
M  V30 53 1 25 49
M  V30 54 1 25 50
M  V30 55 1 26 51
M  V30 56 1 26 52
M  V30 57 1 27 53
M  V30 58 1 28 54
M  V30 59 1 28 55
M  V30 60 1 29 56
M  V30 61 1 29 57
M  V30 62 1 30 58
M  V30 63 1 30 59
M  V30 64 1 31 60
M  V30 65 1 31 61
M  V30 66 1 32 62
M  V30 67 1 32 63
M  V30 68 1 33 64
M  V30 END BOND
M  V30 END CTAB
M  END
>  <Dataset>  (27) 
PDB

>  <Ligand_Instance>  (27) 
5UZK_504_A_401

>  <PDB_ID>  (27) 
5UZK

>  <Standardized_SMILES>  (27) 
[H]C1=C([H])C([H])=C2C(=N1)N([H])C([H])=C2C1=C([H])SC(N([H])C(=O)C([H])([H])C2=C([H])C([H])=C([H])C(OC([H])([H])C([H])([H])C([H])([H])C3([H])C([H])([H])C([H])([H])[N+]([H])([H])C([H])([H])C3([H])[H])=C2[H])=N1

>  <Name>  (27) 
2-{3-[3-(piperidin-4-yl)propoxy]phenyl}-N-[4-(1H-pyrrolo[2,3-b]pyridin-3-yl)-1,3-thiazol-2-yl]acetamide

>  <Pocket>  (27) 
A

>  <ATP_Site>  (27) 
1.0

>  <Peripheral>  (27) 
0.0

>  <Num_H_Atoms_ProtBoundConf>  (27) 
30.0

>  <Num_Resolved_Atoms>  (27) 
34.0

>  <Num_Not_Resolved_Atoms>  (27) 
0.0

>  <2D_Mol_H>  (27) 
<rdkit.Chem.rdchem.Mol object at 0x72a238db7e60>

>  <MW>  (27) 
476.626

>  <HBA>  (27) 
5

>  <HBD>  (27) 
3

>  <LogP>  (27) 
4.0

>  <NRB>  (27) 
9

>  <TPSA>  (27) 
96.51

>  <Num_Heavy_Atoms>  (27) 
34

>  <Ro5>  (27) 
[True, True, True, True, True, True]

>  <Ro5_Fulfilled>  (27) 
True

>  <Ro3>  (27) 
[False, False, True, False]

>  <Ro3_Fulfilled>  (27) 
False

>  <Fsp3>  (27) 
0.346154

>  <Fsp3_0.42>  (27) 
False

>  <Fsp3_0.45>  (27) 
False

>  <Stereogenic_Carbons>  (27) 
0

>  <C_Atoms>  (27) 
26

>  <FCStereo>  (27) 
0.0

>  <SPS>  (27) 
488

>  <nSPS>  (27) 
14.352941

>  <PBF>  (27) 
1.075889

>  <PBF_0.6>  (27) 
True

>  <nPBF>  (27) 
0.031644

>  <nPBF_0.016>  (27) 
True

>  <PMI1>  (27) 
3515.466121

>  <PMI2>  (27) 
8964.965602

>  <PMI3>  (27) 
11646.250252

>  <NPR1>  (27) 
0.301854

>  <NPR2>  (27) 
0.769773

>  <Sum_NPR>  (27) 
1.071627

>  <Sum_NPR_1.07>  (27) 
True

>  <Sum_NPR_1.2>  (27) 
False

>  <MaxAbsEStateIndex>  (27) 
12.632732

>  <MaxEStateIndex>  (27) 
12.632732

>  <MinAbsEStateIndex>  (27) 
0.090049

>  <MinEStateIndex>  (27) 
-0.090049

>  <qed>  (27) 
0.318235

>  <MolWt>  (27) 
476.626

>  <HeavyAtomMolWt>  (27) 
446.386

>  <ExactMolWt>  (27) 
476.211473

>  <NumValenceElectrons>  (27) 
176

>  <NumRadicalElectrons>  (27) 
0

>  <MaxPartialCharge>  (27) 
0.230077

>  <MinPartialCharge>  (27) 
-0.493591

>  <MaxAbsPartialCharge>  (27) 
0.493591

>  <MinAbsPartialCharge>  (27) 
0.230077

>  <FpDensityMorgan1>  (27) 
1.235294

>  <FpDensityMorgan2>  (27) 
2.147059

>  <FpDensityMorgan3>  (27) 
3.058824

>  <BCUT2D_MWHI>  (27) 
32.133491

>  <BCUT2D_MWLOW>  (27) 
9.933577

>  <BCUT2D_CHGHI>  (27) 
2.150411

>  <BCUT2D_CHGLO>  (27) 
-2.195678

>  <BCUT2D_LOGPHI>  (27) 
2.299531

>  <BCUT2D_LOGPLOW>  (27) 
-2.85843

>  <BCUT2D_MRHI>  (27) 
7.137709

>  <BCUT2D_MRLOW>  (27) 
-0.664464

>  <AvgIpc>  (27) 
3.493798

>  <BalabanJ>  (27) 
1.122914

>  <BertzCT>  (27) 
1244.718368

>  <Chi0>  (27) 
23.166715

>  <Chi0n>  (27) 
19.126879

>  <Chi0v>  (27) 
19.943376

>  <Chi1>  (27) 
16.742316

>  <Chi1n>  (27) 
11.956852

>  <Chi1v>  (27) 
12.836505

>  <Chi2n>  (27) 
8.812267

>  <Chi2v>  (27) 
9.67037

>  <Chi3n>  (27) 
6.324243

>  <Chi3v>  (27) 
7.081964

>  <Chi4n>  (27) 
4.563295

>  <Chi4v>  (27) 
5.290041

>  <HallKierAlpha>  (27) 
-3.23

>  <Ipc>  (27) 
116223196.553656

>  <Kappa1>  (27) 
22.556711

>  <Kappa2>  (27) 
10.798118

>  <Kappa3>  (27) 
5.631024

>  <LabuteASA>  (27) 
202.534457

>  <PEOE_VSA1>  (27) 
20.354419

>  <PEOE_VSA10>  (27) 
11.396689

>  <PEOE_VSA11>  (27) 
5.131558

>  <PEOE_VSA12>  (27) 
5.90718

>  <PEOE_VSA13>  (27) 
0.0

>  <PEOE_VSA14>  (27) 
0.0

>  <PEOE_VSA2>  (27) 
4.794537

>  <PEOE_VSA3>  (27) 
9.967957

>  <PEOE_VSA4>  (27) 
0.0

>  <PEOE_VSA5>  (27) 
11.336786

>  <PEOE_VSA6>  (27) 
12.132734

>  <PEOE_VSA7>  (27) 
61.430112

>  <PEOE_VSA8>  (27) 
28.723426

>  <PEOE_VSA9>  (27) 
31.811144

>  <SMR_VSA1>  (27) 
14.848189

>  <SMR_VSA10>  (27) 
33.408926

>  <SMR_VSA2>  (27) 
0.0

>  <SMR_VSA3>  (27) 
14.951936

>  <SMR_VSA4>  (27) 
5.917906

>  <SMR_VSA5>  (27) 
32.104108

>  <SMR_VSA6>  (27) 
25.013183

>  <SMR_VSA7>  (27) 
59.735404

>  <SMR_VSA8>  (27) 
0.0

>  <SMR_VSA9>  (27) 
17.006891

>  <SlogP_VSA1>  (27) 
15.37044

>  <SlogP_VSA10>  (27) 
5.131558

>  <SlogP_VSA11>  (27) 
5.749512

>  <SlogP_VSA12>  (27) 
11.336786

>  <SlogP_VSA2>  (27) 
40.55551

>  <SlogP_VSA3>  (27) 
11.215359

>  <SlogP_VSA4>  (27) 
5.917906

>  <SlogP_VSA5>  (27) 
31.246738

>  <SlogP_VSA6>  (27) 
54.171952

>  <SlogP_VSA7>  (27) 
0.0

>  <SlogP_VSA8>  (27) 
22.290781

>  <SlogP_VSA9>  (27) 
0.0

>  <EState_VSA1>  (27) 
0.0

>  <EState_VSA10>  (27) 
4.794537

>  <EState_VSA11>  (27) 
0.0

>  <EState_VSA2>  (27) 
12.328001

>  <EState_VSA3>  (27) 
5.131558

>  <EState_VSA4>  (27) 
52.549354

>  <EState_VSA5>  (27) 
43.688764

>  <EState_VSA6>  (27) 
6.196844

>  <EState_VSA7>  (27) 
47.975109

>  <EState_VSA8>  (27) 
25.585513

>  <EState_VSA9>  (27) 
4.736863

>  <VSA_EState1>  (27) 
5.959515

>  <VSA_EState10>  (27) 
1.419583

>  <VSA_EState2>  (27) 
24.7177

>  <VSA_EState3>  (27) 
8.886684

>  <VSA_EState4>  (27) 
3.551803

>  <VSA_EState5>  (27) 
1.585319

>  <VSA_EState6>  (27) 
11.734048

>  <VSA_EState7>  (27) 
8.897329

>  <VSA_EState8>  (27) 
3.24802

>  <VSA_EState9>  (27) 
0.0

>  <FractionCSP3>  (27) 
0.346154

>  <HeavyAtomCount>  (27) 
34

>  <NHOHCount>  (27) 
4

>  <NOCount>  (27) 
7

>  <NumAliphaticCarbocycles>  (27) 
0

>  <NumAliphaticHeterocycles>  (27) 
1

>  <NumAliphaticRings>  (27) 
1

>  <NumAromaticCarbocycles>  (27) 
1

>  <NumAromaticHeterocycles>  (27) 
3

>  <NAR>  (27) 
4

>  <NumHAcceptors>  (27) 
5

>  <NumHDonors>  (27) 
3

>  <NumHeteroatoms>  (27) 
8

>  <NumRotatableBonds>  (27) 
9

>  <NumSaturatedCarbocycles>  (27) 
0

>  <NumSaturatedHeterocycles>  (27) 
1

>  <NumSaturatedRings>  (27) 
1

>  <RingCount>  (27) 
5

>  <MolLogP>  (27) 
4.0

>  <MolMR>  (27) 
135.0898

>  <fr_Al_COO>  (27) 
0

>  <fr_Al_OH>  (27) 
0

>  <fr_Al_OH_noTert>  (27) 
0

>  <fr_ArN>  (27) 
0

>  <fr_Ar_COO>  (27) 
0

>  <fr_Ar_N>  (27) 
3

>  <fr_Ar_NH>  (27) 
1

>  <fr_Ar_OH>  (27) 
0

>  <fr_COO>  (27) 
0

>  <fr_COO2>  (27) 
0

>  <fr_C_O>  (27) 
1

>  <fr_C_O_noCOO>  (27) 
1

>  <fr_C_S>  (27) 
0

>  <fr_HOCCN>  (27) 
0

>  <fr_Imine>  (27) 
0

>  <fr_NH0>  (27) 
2

>  <fr_NH1>  (27) 
2

>  <fr_NH2>  (27) 
1

>  <fr_N_O>  (27) 
0

>  <fr_Ndealkylation1>  (27) 
0

>  <fr_Ndealkylation2>  (27) 
0

>  <fr_Nhpyrrole>  (27) 
1

>  <fr_SH>  (27) 
0

>  <fr_aldehyde>  (27) 
0

>  <fr_alkyl_carbamate>  (27) 
0

>  <fr_alkyl_halide>  (27) 
0

>  <fr_allylic_oxid>  (27) 
0

>  <fr_amide>  (27) 
1

>  <fr_amidine>  (27) 
0

>  <fr_aniline>  (27) 
1

>  <fr_aryl_methyl>  (27) 
0

>  <fr_azide>  (27) 
0

>  <fr_azo>  (27) 
0

>  <fr_barbitur>  (27) 
0

>  <fr_benzene>  (27) 
1

>  <fr_benzodiazepine>  (27) 
0

>  <fr_bicyclic>  (27) 
1

>  <fr_diazo>  (27) 
0

>  <fr_dihydropyridine>  (27) 
0

>  <fr_epoxide>  (27) 
0

>  <fr_ester>  (27) 
0

>  <fr_ether>  (27) 
1

>  <fr_furan>  (27) 
0

>  <fr_guanido>  (27) 
0

>  <fr_halogen>  (27) 
0

>  <fr_hdrzine>  (27) 
0

>  <fr_hdrzone>  (27) 
0

>  <fr_imidazole>  (27) 
0

>  <fr_imide>  (27) 
0

>  <fr_isocyan>  (27) 
0

>  <fr_isothiocyan>  (27) 
0

>  <fr_ketone>  (27) 
0

>  <fr_ketone_Topliss>  (27) 
0

>  <fr_lactam>  (27) 
0

>  <fr_lactone>  (27) 
0

>  <fr_methoxy>  (27) 
0

>  <fr_morpholine>  (27) 
0

>  <fr_nitrile>  (27) 
0

>  <fr_nitro>  (27) 
0

>  <fr_nitro_arom>  (27) 
0

>  <fr_nitro_arom_nonortho>  (27) 
0

>  <fr_nitroso>  (27) 
0

>  <fr_oxazole>  (27) 
0

>  <fr_oxime>  (27) 
0

>  <fr_para_hydroxylation>  (27) 
0

>  <fr_phenol>  (27) 
0

>  <fr_phenol_noOrthoHbond>  (27) 
0

>  <fr_phos_acid>  (27) 
0

>  <fr_phos_ester>  (27) 
0

>  <fr_piperdine>  (27) 
1

>  <fr_piperzine>  (27) 
0

>  <fr_priamide>  (27) 
0

>  <fr_prisulfonamd>  (27) 
0

>  <fr_pyridine>  (27) 
1

>  <fr_quatN>  (27) 
1

>  <fr_sulfide>  (27) 
0

>  <fr_sulfonamd>  (27) 
0

>  <fr_sulfone>  (27) 
0

>  <fr_term_acetylene>  (27) 
0

>  <fr_tetrazole>  (27) 
0

>  <fr_thiazole>  (27) 
1

>  <fr_thiocyan>  (27) 
0

>  <fr_thiophene>  (27) 
0

>  <fr_unbrch_alkane>  (27) 
0

>  <fr_urea>  (27) 
0

>  <NP-Likeness>  (27) 
-1.384147

$$$$
5AO
     RDKit          3D

  0  0  0  0  0  0  0  0  0  0999 V3000
M  V30 BEGIN CTAB
M  V30 COUNTS 20 21 0 0 0
M  V30 BEGIN ATOM
M  V30 1 C -2.317342 -0.942189 3.046908 0
M  V30 2 N -1.455244 -0.313158 3.855054 0
M  V30 3 C -0.410009 0.004379 3.091404 0
M  V30 4 C -0.660989 -0.442491 1.823107 0
M  V30 5 C 0.203411 -0.316687 0.655770 0
M  V30 6 C 1.447697 0.313012 0.732606 0
M  V30 7 C 2.244498 0.419092 -0.382237 0
M  V30 8 N 3.530458 1.061470 -0.335769 0
M  V30 9 C 1.820890 -0.097719 -1.593107 0
M  V30 10 C 0.581296 -0.731906 -1.696540 0
M  V30 11 C -0.172900 -0.812690 -0.564435 0
M  V30 12 O -1.843680 -1.022326 1.823361 0
M  V30 13 H -3.276308 -1.330596 3.367271 0
M  V30 14 H 0.489629 0.521228 3.388053 0
M  V30 15 H 1.795125 0.726379 1.684575 0
M  V30 16 H 4.373722 0.974127 0.283242 0
M  V30 17 H 3.704991 1.791008 -1.072803 0
M  V30 18 H 2.441067 -0.017756 -2.471048 0
M  V30 19 H 0.202028 -1.152276 -2.614813 0
M  V30 20 H -1.138246 -1.302020 -0.627165 0
M  V30 END ATOM
M  V30 BEGIN BOND
M  V30 1 2 1 2
M  V30 2 1 2 3
M  V30 3 2 3 4
M  V30 4 1 4 5
M  V30 5 2 5 6
M  V30 6 1 6 7
M  V30 7 1 7 8
M  V30 8 2 7 9
M  V30 9 1 9 10
M  V30 10 2 10 11
M  V30 11 1 4 12
M  V30 12 1 12 1
M  V30 13 1 11 5
M  V30 14 1 1 13
M  V30 15 1 3 14
M  V30 16 1 6 15
M  V30 17 1 8 16
M  V30 18 1 8 17
M  V30 19 1 9 18
M  V30 20 1 10 19
M  V30 21 1 11 20
M  V30 END BOND
M  V30 END CTAB
M  END
>  <Dataset>  (28) 
PDB

>  <Ligand_Instance>  (28) 
5N3O_5AO_A_403

>  <PDB_ID>  (28) 
5N3O

>  <Standardized_SMILES>  (28) 
[H]C1=NC([H])=C(C2=C([H])C(N([H])[H])=C([H])C([H])=C2[H])O1

>  <Name>  (28) 
3-(1,3-oxazol-5-yl)aniline

>  <Pocket>  (28) 
X

>  <ATP_Site>  (28) 
1.0

>  <Peripheral>  (28) 
1.0

>  <Num_H_Atoms_ProtBoundConf>  (28) 
8.0

>  <Num_Resolved_Atoms>  (28) 
12.0

>  <Num_Not_Resolved_Atoms>  (28) 
0.0

>  <2D_Mol_H>  (28) 
<rdkit.Chem.rdchem.Mol object at 0x72a238db7f40>

>  <MW>  (28) 
160.176

>  <HBA>  (28) 
3

>  <HBD>  (28) 
1

>  <LogP>  (28) 
1.9238

>  <NRB>  (28) 
2

>  <TPSA>  (28) 
52.05

>  <Num_Heavy_Atoms>  (28) 
12

>  <Ro5>  (28) 
[True, True, True, True, True, True]

>  <Ro5_Fulfilled>  (28) 
True

>  <Ro3>  (28) 
[True, True, True, True]

>  <Ro3_Fulfilled>  (28) 
True

>  <Fsp3>  (28) 
0.0

>  <Fsp3_0.42>  (28) 
False

>  <Fsp3_0.45>  (28) 
False

>  <Stereogenic_Carbons>  (28) 
0

>  <C_Atoms>  (28) 
9

>  <FCStereo>  (28) 
0.0

>  <SPS>  (28) 
120

>  <nSPS>  (28) 
10.0

>  <PBF>  (28) 
0.082766

>  <PBF_0.6>  (28) 
False

>  <nPBF>  (28) 
0.006897

>  <nPBF_0.016>  (28) 
False

>  <PMI1>  (28) 
202.688776

>  <PMI2>  (28) 
896.731561

>  <PMI3>  (28) 
1097.684282

>  <NPR1>  (28) 
0.184651

>  <NPR2>  (28) 
0.81693

>  <Sum_NPR>  (28) 
1.001582

>  <Sum_NPR_1.07>  (28) 
False

>  <Sum_NPR_1.2>  (28) 
False

>  <MaxAbsEStateIndex>  (28) 
5.602613

>  <MaxEStateIndex>  (28) 
5.602613

>  <MinAbsEStateIndex>  (28) 
0.725833

>  <MinEStateIndex>  (28) 
0.725833

>  <qed>  (28) 
0.648202

>  <MolWt>  (28) 
160.176

>  <HeavyAtomMolWt>  (28) 
152.112

>  <ExactMolWt>  (28) 
160.063663

>  <NumValenceElectrons>  (28) 
60

>  <NumRadicalElectrons>  (28) 
0

>  <MaxPartialCharge>  (28) 
0.180889

>  <MinPartialCharge>  (28) 
-0.44352

>  <MaxAbsPartialCharge>  (28) 
0.44352

>  <MinAbsPartialCharge>  (28) 
0.180889

>  <FpDensityMorgan1>  (28) 
1.333333

>  <FpDensityMorgan2>  (28) 
2.25

>  <FpDensityMorgan3>  (28) 
2.916667

>  <BCUT2D_MWHI>  (28) 
16.340598

>  <BCUT2D_MWLOW>  (28) 
10.153035

>  <BCUT2D_CHGHI>  (28) 
1.990739

>  <BCUT2D_CHGLO>  (28) 
-1.956548

>  <BCUT2D_LOGPHI>  (28) 
2.19486

>  <BCUT2D_LOGPLOW>  (28) 
-1.830812

>  <BCUT2D_MRHI>  (28) 
5.610575

>  <BCUT2D_MRLOW>  (28) 
0.571774

>  <AvgIpc>  (28) 
2.557102

>  <BalabanJ>  (28) 
2.480542

>  <BertzCT>  (28) 
367.777378

>  <Chi0>  (28) 
8.388905

>  <Chi0n>  (28) 
6.396914

>  <Chi0v>  (28) 
6.396914

>  <Chi1>  (28) 
5.860173

>  <Chi1n>  (28) 
3.604942

>  <Chi1v>  (28) 
3.604942

>  <Chi2n>  (28) 
2.491145

>  <Chi2v>  (28) 
2.491145

>  <Chi3n>  (28) 
1.603465

>  <Chi3v>  (28) 
1.603465

>  <Chi4n>  (28) 
1.05028

>  <Chi4v>  (28) 
1.05028

>  <HallKierAlpha>  (28) 
-1.77

>  <Ipc>  (28) 
1071.425836

>  <Kappa1>  (28) 
6.91066

>  <Kappa2>  (28) 
2.695266

>  <Kappa3>  (28) 
1.16337

>  <LabuteASA>  (28) 
69.842365

>  <PEOE_VSA1>  (28) 
10.150818

>  <PEOE_VSA10>  (28) 
0.0

>  <PEOE_VSA11>  (28) 
12.153887

>  <PEOE_VSA12>  (28) 
0.0

>  <PEOE_VSA13>  (28) 
0.0

>  <PEOE_VSA14>  (28) 
0.0

>  <PEOE_VSA2>  (28) 
0.0

>  <PEOE_VSA3>  (28) 
4.983979

>  <PEOE_VSA4>  (28) 
0.0

>  <PEOE_VSA5>  (28) 
0.0

>  <PEOE_VSA6>  (28) 
12.132734

>  <PEOE_VSA7>  (28) 
12.132734

>  <PEOE_VSA8>  (28) 
11.250838

>  <PEOE_VSA9>  (28) 
6.196844

>  <SMR_VSA1>  (28) 
4.417151

>  <SMR_VSA10>  (28) 
5.687386

>  <SMR_VSA2>  (28) 
0.0

>  <SMR_VSA3>  (28) 
4.983979

>  <SMR_VSA4>  (28) 
0.0

>  <SMR_VSA5>  (28) 
0.0

>  <SMR_VSA6>  (28) 
5.733667

>  <SMR_VSA7>  (28) 
36.855951

>  <SMR_VSA8>  (28) 
0.0

>  <SMR_VSA9>  (28) 
11.323699

>  <SlogP_VSA1>  (28) 
5.733667

>  <SlogP_VSA10>  (28) 
5.687386

>  <SlogP_VSA11>  (28) 
0.0

>  <SlogP_VSA12>  (28) 
0.0

>  <SlogP_VSA2>  (28) 
4.983979

>  <SlogP_VSA3>  (28) 
0.0

>  <SlogP_VSA4>  (28) 
0.0

>  <SlogP_VSA5>  (28) 
0.0

>  <SlogP_VSA6>  (28) 
41.273102

>  <SlogP_VSA7>  (28) 
0.0

>  <SlogP_VSA8>  (28) 
11.323699

>  <SlogP_VSA9>  (28) 
0.0

>  <EState_VSA1>  (28) 
0.0

>  <EState_VSA10>  (28) 
0.0

>  <EState_VSA11>  (28) 
0.0

>  <EState_VSA2>  (28) 
0.0

>  <EState_VSA3>  (28) 
0.0

>  <EState_VSA4>  (28) 
17.011085

>  <EState_VSA5>  (28) 
6.393639

>  <EState_VSA6>  (28) 
6.196844

>  <EState_VSA7>  (28) 
24.265468

>  <EState_VSA8>  (28) 
4.983979

>  <EState_VSA9>  (28) 
10.150818

>  <VSA_EState1>  (28) 
5.10787

>  <VSA_EState10>  (28) 
0.0

>  <VSA_EState2>  (28) 
3.820741

>  <VSA_EState3>  (28) 
0.0

>  <VSA_EState4>  (28) 
7.279836

>  <VSA_EState5>  (28) 
0.738241

>  <VSA_EState6>  (28) 
7.490518

>  <VSA_EState7>  (28) 
3.062795

>  <VSA_EState8>  (28) 
0.0

>  <VSA_EState9>  (28) 
0.0

>  <FractionCSP3>  (28) 
0.0

>  <HeavyAtomCount>  (28) 
12

>  <NHOHCount>  (28) 
2

>  <NOCount>  (28) 
3

>  <NumAliphaticCarbocycles>  (28) 
0

>  <NumAliphaticHeterocycles>  (28) 
0

>  <NumAliphaticRings>  (28) 
0

>  <NumAromaticCarbocycles>  (28) 
1

>  <NumAromaticHeterocycles>  (28) 
1

>  <NAR>  (28) 
2

>  <NumHAcceptors>  (28) 
3

>  <NumHDonors>  (28) 
1

>  <NumHeteroatoms>  (28) 
3

>  <NumRotatableBonds>  (28) 
1

>  <NumSaturatedCarbocycles>  (28) 
0

>  <NumSaturatedHeterocycles>  (28) 
0

>  <NumSaturatedRings>  (28) 
0

>  <RingCount>  (28) 
2

>  <MolLogP>  (28) 
1.9238

>  <MolMR>  (28) 
46.3514

>  <fr_Al_COO>  (28) 
0

>  <fr_Al_OH>  (28) 
0

>  <fr_Al_OH_noTert>  (28) 
0

>  <fr_ArN>  (28) 
1

>  <fr_Ar_COO>  (28) 
0

>  <fr_Ar_N>  (28) 
1

>  <fr_Ar_NH>  (28) 
0

>  <fr_Ar_OH>  (28) 
0

>  <fr_COO>  (28) 
0

>  <fr_COO2>  (28) 
0

>  <fr_C_O>  (28) 
0

>  <fr_C_O_noCOO>  (28) 
0

>  <fr_C_S>  (28) 
0

>  <fr_HOCCN>  (28) 
0

>  <fr_Imine>  (28) 
0

>  <fr_NH0>  (28) 
1

>  <fr_NH1>  (28) 
0

>  <fr_NH2>  (28) 
1

>  <fr_N_O>  (28) 
0

>  <fr_Ndealkylation1>  (28) 
0

>  <fr_Ndealkylation2>  (28) 
0

>  <fr_Nhpyrrole>  (28) 
0

>  <fr_SH>  (28) 
0

>  <fr_aldehyde>  (28) 
0

>  <fr_alkyl_carbamate>  (28) 
0

>  <fr_alkyl_halide>  (28) 
0

>  <fr_allylic_oxid>  (28) 
0

>  <fr_amide>  (28) 
0

>  <fr_amidine>  (28) 
0

>  <fr_aniline>  (28) 
1

>  <fr_aryl_methyl>  (28) 
0

>  <fr_azide>  (28) 
0

>  <fr_azo>  (28) 
0

>  <fr_barbitur>  (28) 
0

>  <fr_benzene>  (28) 
1

>  <fr_benzodiazepine>  (28) 
0

>  <fr_bicyclic>  (28) 
0

>  <fr_diazo>  (28) 
0

>  <fr_dihydropyridine>  (28) 
0

>  <fr_epoxide>  (28) 
0

>  <fr_ester>  (28) 
0

>  <fr_ether>  (28) 
0

>  <fr_furan>  (28) 
0

>  <fr_guanido>  (28) 
0

>  <fr_halogen>  (28) 
0

>  <fr_hdrzine>  (28) 
0

>  <fr_hdrzone>  (28) 
0

>  <fr_imidazole>  (28) 
0

>  <fr_imide>  (28) 
0

>  <fr_isocyan>  (28) 
0

>  <fr_isothiocyan>  (28) 
0

>  <fr_ketone>  (28) 
0

>  <fr_ketone_Topliss>  (28) 
0

>  <fr_lactam>  (28) 
0

>  <fr_lactone>  (28) 
0

>  <fr_methoxy>  (28) 
0

>  <fr_morpholine>  (28) 
0

>  <fr_nitrile>  (28) 
0

>  <fr_nitro>  (28) 
0

>  <fr_nitro_arom>  (28) 
0

>  <fr_nitro_arom_nonortho>  (28) 
0

>  <fr_nitroso>  (28) 
0

>  <fr_oxazole>  (28) 
1

>  <fr_oxime>  (28) 
0

>  <fr_para_hydroxylation>  (28) 
0

>  <fr_phenol>  (28) 
0

>  <fr_phenol_noOrthoHbond>  (28) 
0

>  <fr_phos_acid>  (28) 
0

>  <fr_phos_ester>  (28) 
0

>  <fr_piperdine>  (28) 
0

>  <fr_piperzine>  (28) 
0

>  <fr_priamide>  (28) 
0

>  <fr_prisulfonamd>  (28) 
0

>  <fr_pyridine>  (28) 
0

>  <fr_quatN>  (28) 
0

>  <fr_sulfide>  (28) 
0

>  <fr_sulfonamd>  (28) 
0

>  <fr_sulfone>  (28) 
0

>  <fr_term_acetylene>  (28) 
0

>  <fr_tetrazole>  (28) 
0

>  <fr_thiazole>  (28) 
0

>  <fr_thiocyan>  (28) 
0

>  <fr_thiophene>  (28) 
0

>  <fr_unbrch_alkane>  (28) 
0

>  <fr_urea>  (28) 
0

>  <NP-Likeness>  (28) 
-0.998874

$$$$
5AO
     RDKit          3D

  0  0  0  0  0  0  0  0  0  0999 V3000
M  V30 BEGIN CTAB
M  V30 COUNTS 20 21 0 0 0
M  V30 BEGIN ATOM
M  V30 1 C -2.317342 -0.942189 3.046908 0
M  V30 2 N -1.455244 -0.313158 3.855054 0
M  V30 3 C -0.410009 0.004379 3.091404 0
M  V30 4 C -0.660989 -0.442491 1.823107 0
M  V30 5 C 0.203411 -0.316687 0.655770 0
M  V30 6 C 1.447697 0.313012 0.732606 0
M  V30 7 C 2.244498 0.419092 -0.382237 0
M  V30 8 N 3.530458 1.061470 -0.335769 0
M  V30 9 C 1.820890 -0.097719 -1.593107 0
M  V30 10 C 0.581296 -0.731906 -1.696540 0
M  V30 11 C -0.172900 -0.812690 -0.564435 0
M  V30 12 O -1.843680 -1.022326 1.823361 0
M  V30 13 H -3.276308 -1.330596 3.367271 0
M  V30 14 H 0.489629 0.521228 3.388053 0
M  V30 15 H 1.795125 0.726379 1.684575 0
M  V30 16 H 4.373722 0.974127 0.283242 0
M  V30 17 H 3.704991 1.791008 -1.072803 0
M  V30 18 H 2.441067 -0.017756 -2.471048 0
M  V30 19 H 0.202028 -1.152276 -2.614813 0
M  V30 20 H -1.138246 -1.302020 -0.627165 0
M  V30 END ATOM
M  V30 BEGIN BOND
M  V30 1 2 1 2
M  V30 2 1 2 3
M  V30 3 2 3 4
M  V30 4 1 4 5
M  V30 5 2 5 6
M  V30 6 1 6 7
M  V30 7 1 7 8
M  V30 8 2 7 9
M  V30 9 1 9 10
M  V30 10 2 10 11
M  V30 11 1 4 12
M  V30 12 1 12 1
M  V30 13 1 11 5
M  V30 14 1 1 13
M  V30 15 1 3 14
M  V30 16 1 6 15
M  V30 17 1 8 16
M  V30 18 1 8 17
M  V30 19 1 9 18
M  V30 20 1 10 19
M  V30 21 1 11 20
M  V30 END BOND
M  V30 END CTAB
M  END
>  <Dataset>  (29) 
PDB

>  <Ligand_Instance>  (29) 
5N3O_5AO_A_404

>  <PDB_ID>  (29) 
5N3O

>  <Standardized_SMILES>  (29) 
[H]C1=NC([H])=C(C2=C([H])C(N([H])[H])=C([H])C([H])=C2[H])O1

>  <Name>  (29) 
3-(1,3-oxazol-5-yl)aniline

>  <Pocket>  (29) 
A

>  <ATP_Site>  (29) 
1.0

>  <Peripheral>  (29) 
1.0

>  <Num_H_Atoms_ProtBoundConf>  (29) 
8.0

>  <Num_Resolved_Atoms>  (29) 
12.0

>  <Num_Not_Resolved_Atoms>  (29) 
0.0

>  <2D_Mol_H>  (29) 
<rdkit.Chem.rdchem.Mol object at 0x72a238dc40b0>

>  <MW>  (29) 
160.176

>  <HBA>  (29) 
3

>  <HBD>  (29) 
1

>  <LogP>  (29) 
1.9238

>  <NRB>  (29) 
2

>  <TPSA>  (29) 
52.05

>  <Num_Heavy_Atoms>  (29) 
12

>  <Ro5>  (29) 
[True, True, True, True, True, True]

>  <Ro5_Fulfilled>  (29) 
True

>  <Ro3>  (29) 
[True, True, True, True]

>  <Ro3_Fulfilled>  (29) 
True

>  <Fsp3>  (29) 
0.0

>  <Fsp3_0.42>  (29) 
False

>  <Fsp3_0.45>  (29) 
False

>  <Stereogenic_Carbons>  (29) 
0

>  <C_Atoms>  (29) 
9

>  <FCStereo>  (29) 
0.0

>  <SPS>  (29) 
120

>  <nSPS>  (29) 
10.0

>  <PBF>  (29) 
0.082766

>  <PBF_0.6>  (29) 
False

>  <nPBF>  (29) 
0.006897

>  <nPBF_0.016>  (29) 
False

>  <PMI1>  (29) 
202.688776

>  <PMI2>  (29) 
896.731561

>  <PMI3>  (29) 
1097.684282

>  <NPR1>  (29) 
0.184651

>  <NPR2>  (29) 
0.81693

>  <Sum_NPR>  (29) 
1.001582

>  <Sum_NPR_1.07>  (29) 
False

>  <Sum_NPR_1.2>  (29) 
False

>  <MaxAbsEStateIndex>  (29) 
5.602613

>  <MaxEStateIndex>  (29) 
5.602613

>  <MinAbsEStateIndex>  (29) 
0.725833

>  <MinEStateIndex>  (29) 
0.725833

>  <qed>  (29) 
0.648202

>  <MolWt>  (29) 
160.176

>  <HeavyAtomMolWt>  (29) 
152.112

>  <ExactMolWt>  (29) 
160.063663

>  <NumValenceElectrons>  (29) 
60

>  <NumRadicalElectrons>  (29) 
0

>  <MaxPartialCharge>  (29) 
0.180889

>  <MinPartialCharge>  (29) 
-0.44352

>  <MaxAbsPartialCharge>  (29) 
0.44352

>  <MinAbsPartialCharge>  (29) 
0.180889

>  <FpDensityMorgan1>  (29) 
1.333333

>  <FpDensityMorgan2>  (29) 
2.25

>  <FpDensityMorgan3>  (29) 
2.916667

>  <BCUT2D_MWHI>  (29) 
16.340598

>  <BCUT2D_MWLOW>  (29) 
10.153035

>  <BCUT2D_CHGHI>  (29) 
1.990739

>  <BCUT2D_CHGLO>  (29) 
-1.956548

>  <BCUT2D_LOGPHI>  (29) 
2.19486

>  <BCUT2D_LOGPLOW>  (29) 
-1.830812

>  <BCUT2D_MRHI>  (29) 
5.610575

>  <BCUT2D_MRLOW>  (29) 
0.571774

>  <AvgIpc>  (29) 
2.557102

>  <BalabanJ>  (29) 
2.480542

>  <BertzCT>  (29) 
367.777378

>  <Chi0>  (29) 
8.388905

>  <Chi0n>  (29) 
6.396914

>  <Chi0v>  (29) 
6.396914

>  <Chi1>  (29) 
5.860173

>  <Chi1n>  (29) 
3.604942

>  <Chi1v>  (29) 
3.604942

>  <Chi2n>  (29) 
2.491145

>  <Chi2v>  (29) 
2.491145

>  <Chi3n>  (29) 
1.603465

>  <Chi3v>  (29) 
1.603465

>  <Chi4n>  (29) 
1.05028

>  <Chi4v>  (29) 
1.05028

>  <HallKierAlpha>  (29) 
-1.77

>  <Ipc>  (29) 
1071.425836

>  <Kappa1>  (29) 
6.91066

>  <Kappa2>  (29) 
2.695266

>  <Kappa3>  (29) 
1.16337

>  <LabuteASA>  (29) 
69.842365

>  <PEOE_VSA1>  (29) 
10.150818

>  <PEOE_VSA10>  (29) 
0.0

>  <PEOE_VSA11>  (29) 
12.153887

>  <PEOE_VSA12>  (29) 
0.0

>  <PEOE_VSA13>  (29) 
0.0

>  <PEOE_VSA14>  (29) 
0.0

>  <PEOE_VSA2>  (29) 
0.0

>  <PEOE_VSA3>  (29) 
4.983979

>  <PEOE_VSA4>  (29) 
0.0

>  <PEOE_VSA5>  (29) 
0.0

>  <PEOE_VSA6>  (29) 
12.132734

>  <PEOE_VSA7>  (29) 
12.132734

>  <PEOE_VSA8>  (29) 
11.250838

>  <PEOE_VSA9>  (29) 
6.196844

>  <SMR_VSA1>  (29) 
4.417151

>  <SMR_VSA10>  (29) 
5.687386

>  <SMR_VSA2>  (29) 
0.0

>  <SMR_VSA3>  (29) 
4.983979

>  <SMR_VSA4>  (29) 
0.0

>  <SMR_VSA5>  (29) 
0.0

>  <SMR_VSA6>  (29) 
5.733667

>  <SMR_VSA7>  (29) 
36.855951

>  <SMR_VSA8>  (29) 
0.0

>  <SMR_VSA9>  (29) 
11.323699

>  <SlogP_VSA1>  (29) 
5.733667

>  <SlogP_VSA10>  (29) 
5.687386

>  <SlogP_VSA11>  (29) 
0.0

>  <SlogP_VSA12>  (29) 
0.0

>  <SlogP_VSA2>  (29) 
4.983979

>  <SlogP_VSA3>  (29) 
0.0

>  <SlogP_VSA4>  (29) 
0.0

>  <SlogP_VSA5>  (29) 
0.0

>  <SlogP_VSA6>  (29) 
41.273102

>  <SlogP_VSA7>  (29) 
0.0

>  <SlogP_VSA8>  (29) 
11.323699

>  <SlogP_VSA9>  (29) 
0.0

>  <EState_VSA1>  (29) 
0.0

>  <EState_VSA10>  (29) 
0.0

>  <EState_VSA11>  (29) 
0.0

>  <EState_VSA2>  (29) 
0.0

>  <EState_VSA3>  (29) 
0.0

>  <EState_VSA4>  (29) 
17.011085

>  <EState_VSA5>  (29) 
6.393639

>  <EState_VSA6>  (29) 
6.196844

>  <EState_VSA7>  (29) 
24.265468

>  <EState_VSA8>  (29) 
4.983979

>  <EState_VSA9>  (29) 
10.150818

>  <VSA_EState1>  (29) 
5.10787

>  <VSA_EState10>  (29) 
0.0

>  <VSA_EState2>  (29) 
3.820741

>  <VSA_EState3>  (29) 
0.0

>  <VSA_EState4>  (29) 
7.279836

>  <VSA_EState5>  (29) 
0.738241

>  <VSA_EState6>  (29) 
7.490518

>  <VSA_EState7>  (29) 
3.062795

>  <VSA_EState8>  (29) 
0.0

>  <VSA_EState9>  (29) 
0.0

>  <FractionCSP3>  (29) 
0.0

>  <HeavyAtomCount>  (29) 
12

>  <NHOHCount>  (29) 
2

>  <NOCount>  (29) 
3

>  <NumAliphaticCarbocycles>  (29) 
0

>  <NumAliphaticHeterocycles>  (29) 
0

>  <NumAliphaticRings>  (29) 
0

>  <NumAromaticCarbocycles>  (29) 
1

>  <NumAromaticHeterocycles>  (29) 
1

>  <NAR>  (29) 
2

>  <NumHAcceptors>  (29) 
3

>  <NumHDonors>  (29) 
1

>  <NumHeteroatoms>  (29) 
3

>  <NumRotatableBonds>  (29) 
1

>  <NumSaturatedCarbocycles>  (29) 
0

>  <NumSaturatedHeterocycles>  (29) 
0

>  <NumSaturatedRings>  (29) 
0

>  <RingCount>  (29) 
2

>  <MolLogP>  (29) 
1.9238

>  <MolMR>  (29) 
46.3514

>  <fr_Al_COO>  (29) 
0

>  <fr_Al_OH>  (29) 
0

>  <fr_Al_OH_noTert>  (29) 
0

>  <fr_ArN>  (29) 
1

>  <fr_Ar_COO>  (29) 
0

>  <fr_Ar_N>  (29) 
1

>  <fr_Ar_NH>  (29) 
0

>  <fr_Ar_OH>  (29) 
0

>  <fr_COO>  (29) 
0

>  <fr_COO2>  (29) 
0

>  <fr_C_O>  (29) 
0

>  <fr_C_O_noCOO>  (29) 
0

>  <fr_C_S>  (29) 
0

>  <fr_HOCCN>  (29) 
0

>  <fr_Imine>  (29) 
0

>  <fr_NH0>  (29) 
1

>  <fr_NH1>  (29) 
0

>  <fr_NH2>  (29) 
1

>  <fr_N_O>  (29) 
0

>  <fr_Ndealkylation1>  (29) 
0

>  <fr_Ndealkylation2>  (29) 
0

>  <fr_Nhpyrrole>  (29) 
0

>  <fr_SH>  (29) 
0

>  <fr_aldehyde>  (29) 
0

>  <fr_alkyl_carbamate>  (29) 
0

>  <fr_alkyl_halide>  (29) 
0

>  <fr_allylic_oxid>  (29) 
0

>  <fr_amide>  (29) 
0

>  <fr_amidine>  (29) 
0

>  <fr_aniline>  (29) 
1

>  <fr_aryl_methyl>  (29) 
0

>  <fr_azide>  (29) 
0

>  <fr_azo>  (29) 
0

>  <fr_barbitur>  (29) 
0

>  <fr_benzene>  (29) 
1

>  <fr_benzodiazepine>  (29) 
0

>  <fr_bicyclic>  (29) 
0

>  <fr_diazo>  (29) 
0

>  <fr_dihydropyridine>  (29) 
0

>  <fr_epoxide>  (29) 
0

>  <fr_ester>  (29) 
0

>  <fr_ether>  (29) 
0

>  <fr_furan>  (29) 
0

>  <fr_guanido>  (29) 
0

>  <fr_halogen>  (29) 
0

>  <fr_hdrzine>  (29) 
0

>  <fr_hdrzone>  (29) 
0

>  <fr_imidazole>  (29) 
0

>  <fr_imide>  (29) 
0

>  <fr_isocyan>  (29) 
0

>  <fr_isothiocyan>  (29) 
0

>  <fr_ketone>  (29) 
0

>  <fr_ketone_Topliss>  (29) 
0

>  <fr_lactam>  (29) 
0

>  <fr_lactone>  (29) 
0

>  <fr_methoxy>  (29) 
0

>  <fr_morpholine>  (29) 
0

>  <fr_nitrile>  (29) 
0

>  <fr_nitro>  (29) 
0

>  <fr_nitro_arom>  (29) 
0

>  <fr_nitro_arom_nonortho>  (29) 
0

>  <fr_nitroso>  (29) 
0

>  <fr_oxazole>  (29) 
1

>  <fr_oxime>  (29) 
0

>  <fr_para_hydroxylation>  (29) 
0

>  <fr_phenol>  (29) 
0

>  <fr_phenol_noOrthoHbond>  (29) 
0

>  <fr_phos_acid>  (29) 
0

>  <fr_phos_ester>  (29) 
0

>  <fr_piperdine>  (29) 
0

>  <fr_piperzine>  (29) 
0

>  <fr_priamide>  (29) 
0

>  <fr_prisulfonamd>  (29) 
0

>  <fr_pyridine>  (29) 
0

>  <fr_quatN>  (29) 
0

>  <fr_sulfide>  (29) 
0

>  <fr_sulfonamd>  (29) 
0

>  <fr_sulfone>  (29) 
0

>  <fr_term_acetylene>  (29) 
0

>  <fr_tetrazole>  (29) 
0

>  <fr_thiazole>  (29) 
0

>  <fr_thiocyan>  (29) 
0

>  <fr_thiophene>  (29) 
0

>  <fr_unbrch_alkane>  (29) 
0

>  <fr_urea>  (29) 
0

>  <NP-Likeness>  (29) 
-0.998874

$$$$
5AO
     RDKit          3D

  0  0  0  0  0  0  0  0  0  0999 V3000
M  V30 BEGIN CTAB
M  V30 COUNTS 20 21 0 0 0
M  V30 BEGIN ATOM
M  V30 1 C -2.317342 -0.942189 3.046908 0
M  V30 2 N -1.455244 -0.313158 3.855054 0
M  V30 3 C -0.410009 0.004379 3.091404 0
M  V30 4 C -0.660989 -0.442491 1.823107 0
M  V30 5 C 0.203411 -0.316687 0.655770 0
M  V30 6 C 1.447697 0.313012 0.732606 0
M  V30 7 C 2.244498 0.419092 -0.382237 0
M  V30 8 N 3.530458 1.061470 -0.335769 0
M  V30 9 C 1.820890 -0.097719 -1.593107 0
M  V30 10 C 0.581296 -0.731906 -1.696540 0
M  V30 11 C -0.172900 -0.812690 -0.564435 0
M  V30 12 O -1.843680 -1.022326 1.823361 0
M  V30 13 H -3.276308 -1.330596 3.367271 0
M  V30 14 H 0.489629 0.521228 3.388053 0
M  V30 15 H 1.795125 0.726379 1.684575 0
M  V30 16 H 4.373722 0.974127 0.283242 0
M  V30 17 H 3.704991 1.791008 -1.072803 0
M  V30 18 H 2.441067 -0.017756 -2.471048 0
M  V30 19 H 0.202028 -1.152276 -2.614813 0
M  V30 20 H -1.138246 -1.302020 -0.627165 0
M  V30 END ATOM
M  V30 BEGIN BOND
M  V30 1 2 1 2
M  V30 2 1 2 3
M  V30 3 2 3 4
M  V30 4 1 4 5
M  V30 5 2 5 6
M  V30 6 1 6 7
M  V30 7 1 7 8
M  V30 8 2 7 9
M  V30 9 1 9 10
M  V30 10 2 10 11
M  V30 11 1 4 12
M  V30 12 1 12 1
M  V30 13 1 11 5
M  V30 14 1 1 13
M  V30 15 1 3 14
M  V30 16 1 6 15
M  V30 17 1 8 16
M  V30 18 1 8 17
M  V30 19 1 9 18
M  V30 20 1 10 19
M  V30 21 1 11 20
M  V30 END BOND
M  V30 END CTAB
M  END
>  <Dataset>  (30) 
PDB

>  <Ligand_Instance>  (30) 
5N3O_5AO_A_405

>  <PDB_ID>  (30) 
5N3O

>  <Standardized_SMILES>  (30) 
[H]C1=NC([H])=C(C2=C([H])C(N([H])[H])=C([H])C([H])=C2[H])O1

>  <Name>  (30) 
3-(1,3-oxazol-5-yl)aniline

>  <Pocket>  (30) 
K

>  <ATP_Site>  (30) 
1.0

>  <Peripheral>  (30) 
1.0

>  <Num_H_Atoms_ProtBoundConf>  (30) 
8.0

>  <Num_Resolved_Atoms>  (30) 
12.0

>  <Num_Not_Resolved_Atoms>  (30) 
0.0

>  <2D_Mol_H>  (30) 
<rdkit.Chem.rdchem.Mol object at 0x72a238dc4190>

>  <MW>  (30) 
160.176

>  <HBA>  (30) 
3

>  <HBD>  (30) 
1

>  <LogP>  (30) 
1.9238

>  <NRB>  (30) 
2

>  <TPSA>  (30) 
52.05

>  <Num_Heavy_Atoms>  (30) 
12

>  <Ro5>  (30) 
[True, True, True, True, True, True]

>  <Ro5_Fulfilled>  (30) 
True

>  <Ro3>  (30) 
[True, True, True, True]

>  <Ro3_Fulfilled>  (30) 
True

>  <Fsp3>  (30) 
0.0

>  <Fsp3_0.42>  (30) 
False

>  <Fsp3_0.45>  (30) 
False

>  <Stereogenic_Carbons>  (30) 
0

>  <C_Atoms>  (30) 
9

>  <FCStereo>  (30) 
0.0

>  <SPS>  (30) 
120

>  <nSPS>  (30) 
10.0

>  <PBF>  (30) 
0.082766

>  <PBF_0.6>  (30) 
False

>  <nPBF>  (30) 
0.006897

>  <nPBF_0.016>  (30) 
False

>  <PMI1>  (30) 
202.688776

>  <PMI2>  (30) 
896.731561

>  <PMI3>  (30) 
1097.684282

>  <NPR1>  (30) 
0.184651

>  <NPR2>  (30) 
0.81693

>  <Sum_NPR>  (30) 
1.001582

>  <Sum_NPR_1.07>  (30) 
False

>  <Sum_NPR_1.2>  (30) 
False

>  <MaxAbsEStateIndex>  (30) 
5.602613

>  <MaxEStateIndex>  (30) 
5.602613

>  <MinAbsEStateIndex>  (30) 
0.725833

>  <MinEStateIndex>  (30) 
0.725833

>  <qed>  (30) 
0.648202

>  <MolWt>  (30) 
160.176

>  <HeavyAtomMolWt>  (30) 
152.112

>  <ExactMolWt>  (30) 
160.063663

>  <NumValenceElectrons>  (30) 
60

>  <NumRadicalElectrons>  (30) 
0

>  <MaxPartialCharge>  (30) 
0.180889

>  <MinPartialCharge>  (30) 
-0.44352

>  <MaxAbsPartialCharge>  (30) 
0.44352

>  <MinAbsPartialCharge>  (30) 
0.180889

>  <FpDensityMorgan1>  (30) 
1.333333

>  <FpDensityMorgan2>  (30) 
2.25

>  <FpDensityMorgan3>  (30) 
2.916667

>  <BCUT2D_MWHI>  (30) 
16.340598

>  <BCUT2D_MWLOW>  (30) 
10.153035

>  <BCUT2D_CHGHI>  (30) 
1.990739

>  <BCUT2D_CHGLO>  (30) 
-1.956548

>  <BCUT2D_LOGPHI>  (30) 
2.19486

>  <BCUT2D_LOGPLOW>  (30) 
-1.830812

>  <BCUT2D_MRHI>  (30) 
5.610575

>  <BCUT2D_MRLOW>  (30) 
0.571774

>  <AvgIpc>  (30) 
2.557102

>  <BalabanJ>  (30) 
2.480542

>  <BertzCT>  (30) 
367.777378

>  <Chi0>  (30) 
8.388905

>  <Chi0n>  (30) 
6.396914

>  <Chi0v>  (30) 
6.396914

>  <Chi1>  (30) 
5.860173

>  <Chi1n>  (30) 
3.604942

>  <Chi1v>  (30) 
3.604942

>  <Chi2n>  (30) 
2.491145

>  <Chi2v>  (30) 
2.491145

>  <Chi3n>  (30) 
1.603465

>  <Chi3v>  (30) 
1.603465

>  <Chi4n>  (30) 
1.05028

>  <Chi4v>  (30) 
1.05028

>  <HallKierAlpha>  (30) 
-1.77

>  <Ipc>  (30) 
1071.425836

>  <Kappa1>  (30) 
6.91066

>  <Kappa2>  (30) 
2.695266

>  <Kappa3>  (30) 
1.16337

>  <LabuteASA>  (30) 
69.842365

>  <PEOE_VSA1>  (30) 
10.150818

>  <PEOE_VSA10>  (30) 
0.0

>  <PEOE_VSA11>  (30) 
12.153887

>  <PEOE_VSA12>  (30) 
0.0

>  <PEOE_VSA13>  (30) 
0.0

>  <PEOE_VSA14>  (30) 
0.0

>  <PEOE_VSA2>  (30) 
0.0

>  <PEOE_VSA3>  (30) 
4.983979

>  <PEOE_VSA4>  (30) 
0.0

>  <PEOE_VSA5>  (30) 
0.0

>  <PEOE_VSA6>  (30) 
12.132734

>  <PEOE_VSA7>  (30) 
12.132734

>  <PEOE_VSA8>  (30) 
11.250838

>  <PEOE_VSA9>  (30) 
6.196844

>  <SMR_VSA1>  (30) 
4.417151

>  <SMR_VSA10>  (30) 
5.687386

>  <SMR_VSA2>  (30) 
0.0

>  <SMR_VSA3>  (30) 
4.983979

>  <SMR_VSA4>  (30) 
0.0

>  <SMR_VSA5>  (30) 
0.0

>  <SMR_VSA6>  (30) 
5.733667

>  <SMR_VSA7>  (30) 
36.855951

>  <SMR_VSA8>  (30) 
0.0

>  <SMR_VSA9>  (30) 
11.323699

>  <SlogP_VSA1>  (30) 
5.733667

>  <SlogP_VSA10>  (30) 
5.687386

>  <SlogP_VSA11>  (30) 
0.0

>  <SlogP_VSA12>  (30) 
0.0

>  <SlogP_VSA2>  (30) 
4.983979

>  <SlogP_VSA3>  (30) 
0.0

>  <SlogP_VSA4>  (30) 
0.0

>  <SlogP_VSA5>  (30) 
0.0

>  <SlogP_VSA6>  (30) 
41.273102

>  <SlogP_VSA7>  (30) 
0.0

>  <SlogP_VSA8>  (30) 
11.323699

>  <SlogP_VSA9>  (30) 
0.0

>  <EState_VSA1>  (30) 
0.0

>  <EState_VSA10>  (30) 
0.0

>  <EState_VSA11>  (30) 
0.0

>  <EState_VSA2>  (30) 
0.0

>  <EState_VSA3>  (30) 
0.0

>  <EState_VSA4>  (30) 
17.011085

>  <EState_VSA5>  (30) 
6.393639

>  <EState_VSA6>  (30) 
6.196844

>  <EState_VSA7>  (30) 
24.265468

>  <EState_VSA8>  (30) 
4.983979

>  <EState_VSA9>  (30) 
10.150818

>  <VSA_EState1>  (30) 
5.10787

>  <VSA_EState10>  (30) 
0.0

>  <VSA_EState2>  (30) 
3.820741

>  <VSA_EState3>  (30) 
0.0

>  <VSA_EState4>  (30) 
7.279836

>  <VSA_EState5>  (30) 
0.738241

>  <VSA_EState6>  (30) 
7.490518

>  <VSA_EState7>  (30) 
3.062795

>  <VSA_EState8>  (30) 
0.0

>  <VSA_EState9>  (30) 
0.0

>  <FractionCSP3>  (30) 
0.0

>  <HeavyAtomCount>  (30) 
12

>  <NHOHCount>  (30) 
2

>  <NOCount>  (30) 
3

>  <NumAliphaticCarbocycles>  (30) 
0

>  <NumAliphaticHeterocycles>  (30) 
0

>  <NumAliphaticRings>  (30) 
0

>  <NumAromaticCarbocycles>  (30) 
1

>  <NumAromaticHeterocycles>  (30) 
1

>  <NAR>  (30) 
2

>  <NumHAcceptors>  (30) 
3

>  <NumHDonors>  (30) 
1

>  <NumHeteroatoms>  (30) 
3

>  <NumRotatableBonds>  (30) 
1

>  <NumSaturatedCarbocycles>  (30) 
0

>  <NumSaturatedHeterocycles>  (30) 
0

>  <NumSaturatedRings>  (30) 
0

>  <RingCount>  (30) 
2

>  <MolLogP>  (30) 
1.9238

>  <MolMR>  (30) 
46.3514

>  <fr_Al_COO>  (30) 
0

>  <fr_Al_OH>  (30) 
0

>  <fr_Al_OH_noTert>  (30) 
0

>  <fr_ArN>  (30) 
1

>  <fr_Ar_COO>  (30) 
0

>  <fr_Ar_N>  (30) 
1

>  <fr_Ar_NH>  (30) 
0

>  <fr_Ar_OH>  (30) 
0

>  <fr_COO>  (30) 
0

>  <fr_COO2>  (30) 
0

>  <fr_C_O>  (30) 
0

>  <fr_C_O_noCOO>  (30) 
0

>  <fr_C_S>  (30) 
0

>  <fr_HOCCN>  (30) 
0

>  <fr_Imine>  (30) 
0

>  <fr_NH0>  (30) 
1

>  <fr_NH1>  (30) 
0

>  <fr_NH2>  (30) 
1

>  <fr_N_O>  (30) 
0

>  <fr_Ndealkylation1>  (30) 
0

>  <fr_Ndealkylation2>  (30) 
0

>  <fr_Nhpyrrole>  (30) 
0

>  <fr_SH>  (30) 
0

>  <fr_aldehyde>  (30) 
0

>  <fr_alkyl_carbamate>  (30) 
0

>  <fr_alkyl_halide>  (30) 
0

>  <fr_allylic_oxid>  (30) 
0

>  <fr_amide>  (30) 
0

>  <fr_amidine>  (30) 
0

>  <fr_aniline>  (30) 
1

>  <fr_aryl_methyl>  (30) 
0

>  <fr_azide>  (30) 
0

>  <fr_azo>  (30) 
0

>  <fr_barbitur>  (30) 
0

>  <fr_benzene>  (30) 
1

>  <fr_benzodiazepine>  (30) 
0

>  <fr_bicyclic>  (30) 
0

>  <fr_diazo>  (30) 
0

>  <fr_dihydropyridine>  (30) 
0

>  <fr_epoxide>  (30) 
0

>  <fr_ester>  (30) 
0

>  <fr_ether>  (30) 
0

>  <fr_furan>  (30) 
0

>  <fr_guanido>  (30) 
0

>  <fr_halogen>  (30) 
0

>  <fr_hdrzine>  (30) 
0

>  <fr_hdrzone>  (30) 
0

>  <fr_imidazole>  (30) 
0

>  <fr_imide>  (30) 
0

>  <fr_isocyan>  (30) 
0

>  <fr_isothiocyan>  (30) 
0

>  <fr_ketone>  (30) 
0

>  <fr_ketone_Topliss>  (30) 
0

>  <fr_lactam>  (30) 
0

>  <fr_lactone>  (30) 
0

>  <fr_methoxy>  (30) 
0

>  <fr_morpholine>  (30) 
0

>  <fr_nitrile>  (30) 
0

>  <fr_nitro>  (30) 
0

>  <fr_nitro_arom>  (30) 
0

>  <fr_nitro_arom_nonortho>  (30) 
0

>  <fr_nitroso>  (30) 
0

>  <fr_oxazole>  (30) 
1

>  <fr_oxime>  (30) 
0

>  <fr_para_hydroxylation>  (30) 
0

>  <fr_phenol>  (30) 
0

>  <fr_phenol_noOrthoHbond>  (30) 
0

>  <fr_phos_acid>  (30) 
0

>  <fr_phos_ester>  (30) 
0

>  <fr_piperdine>  (30) 
0

>  <fr_piperzine>  (30) 
0

>  <fr_priamide>  (30) 
0

>  <fr_prisulfonamd>  (30) 
0

>  <fr_pyridine>  (30) 
0

>  <fr_quatN>  (30) 
0

>  <fr_sulfide>  (30) 
0

>  <fr_sulfonamd>  (30) 
0

>  <fr_sulfone>  (30) 
0

>  <fr_term_acetylene>  (30) 
0

>  <fr_tetrazole>  (30) 
0

>  <fr_thiazole>  (30) 
0

>  <fr_thiocyan>  (30) 
0

>  <fr_thiophene>  (30) 
0

>  <fr_unbrch_alkane>  (30) 
0

>  <fr_urea>  (30) 
0

>  <NP-Likeness>  (30) 
-0.998874

$$$$
5H1
     RDKit          3D

  0  0  0  0  0  0  0  0  0  0999 V3000
M  V30 BEGIN CTAB
M  V30 COUNTS 17 18 0 0 0
M  V30 BEGIN ATOM
M  V30 1 O 1.708551 -2.883078 1.543745 0
M  V30 2 C 1.242637 -1.606030 1.262668 0
M  V30 3 C 0.083483 -1.376371 0.554417 0
M  V30 4 C -0.321839 -0.088518 0.310431 0
M  V30 5 C 0.458716 0.921423 0.790893 0
M  V30 6 C 1.630089 0.714238 1.506688 0
M  V30 7 C 2.020027 -0.571868 1.741271 0
M  V30 8 C 2.080937 1.995001 1.786323 0
M  V30 9 C 1.221956 2.917660 1.263766 0
M  V30 10 N 0.230150 2.250945 0.655142 0
M  V30 11 H 2.219523 -3.394314 0.852791 0
M  V30 12 H -0.448603 -2.262272 0.226296 0
M  V30 13 H -1.234858 0.085011 -0.247458 0
M  V30 14 H 2.940793 -0.729619 2.303941 0
M  V30 15 H 2.995241 2.146726 2.345982 0
M  V30 16 H 1.413247 3.988075 1.384016 0
M  V30 17 H -0.523100 2.800047 0.196114 0
M  V30 END ATOM
M  V30 BEGIN BOND
M  V30 1 1 1 2
M  V30 2 2 2 3
M  V30 3 1 3 4
M  V30 4 2 4 5
M  V30 5 1 5 6
M  V30 6 2 6 7
M  V30 7 1 6 8
M  V30 8 2 8 9
M  V30 9 1 9 10
M  V30 10 1 7 2
M  V30 11 1 10 5
M  V30 12 1 1 11
M  V30 13 1 3 12
M  V30 14 1 4 13
M  V30 15 1 7 14
M  V30 16 1 8 15
M  V30 17 1 9 16
M  V30 18 1 10 17
M  V30 END BOND
M  V30 END CTAB
M  END
>  <Dataset>  (31) 
PDB

>  <Ligand_Instance>  (31) 
5N3P_5H1_A_403

>  <PDB_ID>  (31) 
5N3P

>  <Standardized_SMILES>  (31) 
[H]OC1=C([H])C([H])=C2C(=C1[H])C([H])=C([H])N2[H]

>  <Name>  (31) 
1H-indol-5-ol

>  <Pocket>  (31) 
A

>  <ATP_Site>  (31) 
1.0

>  <Peripheral>  (31) 
0.0

>  <Num_H_Atoms_ProtBoundConf>  (31) 
7.0

>  <Num_Resolved_Atoms>  (31) 
10.0

>  <Num_Not_Resolved_Atoms>  (31) 
0.0

>  <2D_Mol_H>  (31) 
<rdkit.Chem.rdchem.Mol object at 0x72a238dc4270>

>  <MW>  (31) 
133.15

>  <HBA>  (31) 
1

>  <HBD>  (31) 
2

>  <LogP>  (31) 
1.8735

>  <NRB>  (31) 
1

>  <TPSA>  (31) 
36.02

>  <Num_Heavy_Atoms>  (31) 
10

>  <Ro5>  (31) 
[True, True, True, True, True, True]

>  <Ro5_Fulfilled>  (31) 
True

>  <Ro3>  (31) 
[True, True, True, True]

>  <Ro3_Fulfilled>  (31) 
True

>  <Fsp3>  (31) 
0.0

>  <Fsp3_0.42>  (31) 
False

>  <Fsp3_0.45>  (31) 
False

>  <Stereogenic_Carbons>  (31) 
0

>  <C_Atoms>  (31) 
8

>  <FCStereo>  (31) 
0.0

>  <SPS>  (31) 
104

>  <nSPS>  (31) 
10.4

>  <PBF>  (31) 
0.108945

>  <PBF_0.6>  (31) 
False

>  <nPBF>  (31) 
0.010895

>  <nPBF_0.016>  (31) 
False

>  <PMI1>  (31) 
138.508648

>  <PMI2>  (31) 
472.20207

>  <PMI3>  (31) 
609.294463

>  <NPR1>  (31) 
0.227326

>  <NPR2>  (31) 
0.774998

>  <Sum_NPR>  (31) 
1.002324

>  <Sum_NPR_1.07>  (31) 
False

>  <Sum_NPR_1.2>  (31) 
False

>  <MaxAbsEStateIndex>  (31) 
9.034722

>  <MaxEStateIndex>  (31) 
9.034722

>  <MinAbsEStateIndex>  (31) 
0.31213

>  <MinEStateIndex>  (31) 
0.31213

>  <qed>  (31) 
0.565083

>  <MolWt>  (31) 
133.15

>  <HeavyAtomMolWt>  (31) 
126.094

>  <ExactMolWt>  (31) 
133.052764

>  <NumValenceElectrons>  (31) 
50

>  <NumRadicalElectrons>  (31) 
0

>  <MaxPartialCharge>  (31) 
0.115828

>  <MinPartialCharge>  (31) 
-0.507942

>  <MaxAbsPartialCharge>  (31) 
0.507942

>  <MinAbsPartialCharge>  (31) 
0.115828

>  <FpDensityMorgan1>  (31) 
1.2

>  <FpDensityMorgan2>  (31) 
2.1

>  <FpDensityMorgan3>  (31) 
3.0

>  <BCUT2D_MWHI>  (31) 
16.254665

>  <BCUT2D_MWLOW>  (31) 
10.233272

>  <BCUT2D_CHGHI>  (31) 
1.921513

>  <BCUT2D_CHGLO>  (31) 
-1.892284

>  <BCUT2D_LOGPHI>  (31) 
2.169892

>  <BCUT2D_LOGPLOW>  (31) 
-1.650677

>  <BCUT2D_MRHI>  (31) 
5.800245

>  <BCUT2D_MRLOW>  (31) 
0.475952

>  <AvgIpc>  (31) 
2.333876

>  <BalabanJ>  (31) 
2.860782

>  <BertzCT>  (31) 
350.785078

>  <Chi0>  (31) 
6.974691

>  <Chi0n>  (31) 
5.333965

>  <Chi0v>  (31) 
5.333965

>  <Chi1>  (31) 
4.860173

>  <Chi1n>  (31) 
3.122324

>  <Chi1v>  (31) 
3.122324

>  <Chi2n>  (31) 
2.249224

>  <Chi2v>  (31) 
2.249224

>  <Chi3n>  (31) 
1.536877

>  <Chi3v>  (31) 
1.536877

>  <Chi4n>  (31) 
1.040687

>  <Chi4v>  (31) 
1.040687

>  <HallKierAlpha>  (31) 
-1.44

>  <Ipc>  (31) 
357.083

>  <Kappa1>  (31) 
5.353053

>  <Kappa2>  (31) 
1.769335

>  <Kappa3>  (31) 
0.657664

>  <LabuteASA>  (31) 
58.116462

>  <PEOE_VSA1>  (31) 
10.090506

>  <PEOE_VSA10>  (31) 
5.749512

>  <PEOE_VSA11>  (31) 
0.0

>  <PEOE_VSA12>  (31) 
0.0

>  <PEOE_VSA13>  (31) 
0.0

>  <PEOE_VSA14>  (31) 
0.0

>  <PEOE_VSA2>  (31) 
0.0

>  <PEOE_VSA3>  (31) 
0.0

>  <PEOE_VSA4>  (31) 
0.0

>  <PEOE_VSA5>  (31) 
0.0

>  <PEOE_VSA6>  (31) 
0.0

>  <PEOE_VSA7>  (31) 
24.265468

>  <PEOE_VSA8>  (31) 
17.099769

>  <PEOE_VSA9>  (31) 
0.0

>  <SMR_VSA1>  (31) 
5.106527

>  <SMR_VSA10>  (31) 
10.902925

>  <SMR_VSA2>  (31) 
0.0

>  <SMR_VSA3>  (31) 
4.983979

>  <SMR_VSA4>  (31) 
0.0

>  <SMR_VSA5>  (31) 
0.0

>  <SMR_VSA6>  (31) 
0.0

>  <SMR_VSA7>  (31) 
30.462312

>  <SMR_VSA8>  (31) 
0.0

>  <SMR_VSA9>  (31) 
5.749512

>  <SlogP_VSA1>  (31) 
0.0

>  <SlogP_VSA10>  (31) 
0.0

>  <SlogP_VSA11>  (31) 
5.749512

>  <SlogP_VSA12>  (31) 
0.0

>  <SlogP_VSA2>  (31) 
10.090506

>  <SlogP_VSA3>  (31) 
0.0

>  <SlogP_VSA4>  (31) 
0.0

>  <SlogP_VSA5>  (31) 
0.0

>  <SlogP_VSA6>  (31) 
30.462312

>  <SlogP_VSA7>  (31) 
0.0

>  <SlogP_VSA8>  (31) 
10.902925

>  <SlogP_VSA9>  (31) 
0.0

>  <EState_VSA1>  (31) 
0.0

>  <EState_VSA10>  (31) 
0.0

>  <EState_VSA11>  (31) 
0.0

>  <EState_VSA2>  (31) 
0.0

>  <EState_VSA3>  (31) 
5.749512

>  <EState_VSA4>  (31) 
10.902925

>  <EState_VSA5>  (31) 
0.0

>  <EState_VSA6>  (31) 
12.132734

>  <EState_VSA7>  (31) 
18.329578

>  <EState_VSA8>  (31) 
4.983979

>  <EState_VSA9>  (31) 
5.106527

>  <VSA_EState1>  (31) 
0.0

>  <VSA_EState10>  (31) 
0.0

>  <VSA_EState2>  (31) 
3.035648

>  <VSA_EState3>  (31) 
10.076389

>  <VSA_EState4>  (31) 
1.053519

>  <VSA_EState5>  (31) 
0.31213

>  <VSA_EState6>  (31) 
7.171019

>  <VSA_EState7>  (31) 
1.851296

>  <VSA_EState8>  (31) 
0.0

>  <VSA_EState9>  (31) 
0.0

>  <FractionCSP3>  (31) 
0.0

>  <HeavyAtomCount>  (31) 
10

>  <NHOHCount>  (31) 
2

>  <NOCount>  (31) 
2

>  <NumAliphaticCarbocycles>  (31) 
0

>  <NumAliphaticHeterocycles>  (31) 
0

>  <NumAliphaticRings>  (31) 
0

>  <NumAromaticCarbocycles>  (31) 
1

>  <NumAromaticHeterocycles>  (31) 
1

>  <NAR>  (31) 
2

>  <NumHAcceptors>  (31) 
1

>  <NumHDonors>  (31) 
2

>  <NumHeteroatoms>  (31) 
2

>  <NumRotatableBonds>  (31) 
0

>  <NumSaturatedCarbocycles>  (31) 
0

>  <NumSaturatedHeterocycles>  (31) 
0

>  <NumSaturatedRings>  (31) 
0

>  <RingCount>  (31) 
2

>  <MolLogP>  (31) 
1.8735

>  <MolMR>  (31) 
39.9635

>  <fr_Al_COO>  (31) 
0

>  <fr_Al_OH>  (31) 
0

>  <fr_Al_OH_noTert>  (31) 
0

>  <fr_ArN>  (31) 
0

>  <fr_Ar_COO>  (31) 
0

>  <fr_Ar_N>  (31) 
1

>  <fr_Ar_NH>  (31) 
1

>  <fr_Ar_OH>  (31) 
1

>  <fr_COO>  (31) 
0

>  <fr_COO2>  (31) 
0

>  <fr_C_O>  (31) 
0

>  <fr_C_O_noCOO>  (31) 
0

>  <fr_C_S>  (31) 
0

>  <fr_HOCCN>  (31) 
0

>  <fr_Imine>  (31) 
0

>  <fr_NH0>  (31) 
0

>  <fr_NH1>  (31) 
1

>  <fr_NH2>  (31) 
0

>  <fr_N_O>  (31) 
0

>  <fr_Ndealkylation1>  (31) 
0

>  <fr_Ndealkylation2>  (31) 
0

>  <fr_Nhpyrrole>  (31) 
1

>  <fr_SH>  (31) 
0

>  <fr_aldehyde>  (31) 
0

>  <fr_alkyl_carbamate>  (31) 
0

>  <fr_alkyl_halide>  (31) 
0

>  <fr_allylic_oxid>  (31) 
0

>  <fr_amide>  (31) 
0

>  <fr_amidine>  (31) 
0

>  <fr_aniline>  (31) 
0

>  <fr_aryl_methyl>  (31) 
0

>  <fr_azide>  (31) 
0

>  <fr_azo>  (31) 
0

>  <fr_barbitur>  (31) 
0

>  <fr_benzene>  (31) 
1

>  <fr_benzodiazepine>  (31) 
0

>  <fr_bicyclic>  (31) 
1

>  <fr_diazo>  (31) 
0

>  <fr_dihydropyridine>  (31) 
0

>  <fr_epoxide>  (31) 
0

>  <fr_ester>  (31) 
0

>  <fr_ether>  (31) 
0

>  <fr_furan>  (31) 
0

>  <fr_guanido>  (31) 
0

>  <fr_halogen>  (31) 
0

>  <fr_hdrzine>  (31) 
0

>  <fr_hdrzone>  (31) 
0

>  <fr_imidazole>  (31) 
0

>  <fr_imide>  (31) 
0

>  <fr_isocyan>  (31) 
0

>  <fr_isothiocyan>  (31) 
0

>  <fr_ketone>  (31) 
0

>  <fr_ketone_Topliss>  (31) 
0

>  <fr_lactam>  (31) 
0

>  <fr_lactone>  (31) 
0

>  <fr_methoxy>  (31) 
0

>  <fr_morpholine>  (31) 
0

>  <fr_nitrile>  (31) 
0

>  <fr_nitro>  (31) 
0

>  <fr_nitro_arom>  (31) 
0

>  <fr_nitro_arom_nonortho>  (31) 
0

>  <fr_nitroso>  (31) 
0

>  <fr_oxazole>  (31) 
0

>  <fr_oxime>  (31) 
0

>  <fr_para_hydroxylation>  (31) 
0

>  <fr_phenol>  (31) 
1

>  <fr_phenol_noOrthoHbond>  (31) 
1

>  <fr_phos_acid>  (31) 
0

>  <fr_phos_ester>  (31) 
0

>  <fr_piperdine>  (31) 
0

>  <fr_piperzine>  (31) 
0

>  <fr_priamide>  (31) 
0

>  <fr_prisulfonamd>  (31) 
0

>  <fr_pyridine>  (31) 
0

>  <fr_quatN>  (31) 
0

>  <fr_sulfide>  (31) 
0

>  <fr_sulfonamd>  (31) 
0

>  <fr_sulfone>  (31) 
0

>  <fr_term_acetylene>  (31) 
0

>  <fr_tetrazole>  (31) 
0

>  <fr_thiazole>  (31) 
0

>  <fr_thiocyan>  (31) 
0

>  <fr_thiophene>  (31) 
0

>  <fr_unbrch_alkane>  (31) 
0

>  <fr_urea>  (31) 
0

>  <NP-Likeness>  (31) 
0.405951

$$$$
6J9
     RDKit          3D

  0  0  0  0  0  0  0  0  0  0999 V3000
M  V30 BEGIN CTAB
M  V30 COUNTS 29 31 0 0 0
M  V30 BEGIN ATOM
M  V30 1 C 2.154136 -1.792352 3.321145 0
M  V30 2 N 2.306351 -0.570011 3.859044 0
M  V30 3 C 1.639096 0.491846 3.381460 0
M  V30 4 C 0.805801 0.236369 2.322725 0
M  V30 5 C 0.604645 -0.982343 1.729658 0
M  V30 6 N -0.260181 -1.357147 0.666323 0
M  V30 7 C -0.017375 -2.616561 -0.023910 0
M  V30 8 C 0.198781 -2.365990 -1.461371 0
M  V30 9 N -0.081802 -1.085296 -1.993158 0 CHG=1 VAL=4
M  V30 10 C -1.144628 -0.353924 -1.366500 0
M  V30 11 C -1.423172 -0.791101 0.045309 0
M  V30 12 N 1.326939 -1.990484 2.286461 0
M  V30 13 C 0.235496 1.435166 1.979661 0
M  V30 14 C 0.720558 2.391811 2.823162 0
M  V30 15 N 1.572183 1.788946 3.665384 0
M  V30 16 H 2.688744 -2.678627 3.692619 0
M  V30 17 H 0.850718 -3.099717 0.452025 0
M  V30 18 H -0.917979 -3.258783 0.130521 0
M  V30 19 H 1.280392 -2.601529 -1.696713 0
M  V30 20 H -0.344388 -3.172165 -2.038130 0
M  V30 21 H 0.782359 -0.498863 -2.030328 0
M  V30 22 H -0.367059 -1.207759 -3.004692 0
M  V30 23 H -2.087134 -0.389365 -1.950847 0
M  V30 24 H -0.849797 0.714756 -1.320994 0
M  V30 25 H -2.216752 -1.604719 0.013026 0
M  V30 26 H -1.884447 -0.023594 0.680897 0
M  V30 27 H -0.452493 1.660982 1.211531 0
M  V30 28 H 0.482548 3.445277 2.835451 0
M  V30 29 H 2.121357 2.222778 4.438933 0
M  V30 END ATOM
M  V30 BEGIN BOND
M  V30 1 2 1 2
M  V30 2 1 2 3
M  V30 3 2 3 4
M  V30 4 1 4 5
M  V30 5 1 5 6
M  V30 6 1 6 7
M  V30 7 1 7 8
M  V30 8 1 8 9
M  V30 9 1 9 10
M  V30 10 1 10 11
M  V30 11 2 5 12
M  V30 12 1 4 13
M  V30 13 2 13 14
M  V30 14 1 14 15
M  V30 15 1 12 1
M  V30 16 1 15 3
M  V30 17 1 11 6
M  V30 18 1 1 16
M  V30 19 1 7 17
M  V30 20 1 7 18
M  V30 21 1 8 19
M  V30 22 1 8 20
M  V30 23 1 9 21
M  V30 24 1 9 22
M  V30 25 1 10 23
M  V30 26 1 10 24
M  V30 27 1 11 25
M  V30 28 1 11 26
M  V30 29 1 13 27
M  V30 30 1 14 28
M  V30 31 1 15 29
M  V30 END BOND
M  V30 END CTAB
M  END
>  <Dataset>  (32) 
PDB

>  <Ligand_Instance>  (32) 
5IZJ_6J9_A_414

>  <PDB_ID>  (32) 
5IZJ

>  <Standardized_SMILES>  (32) 
[H]C1=NC2=C(C(N3C([H])([H])C([H])([H])[N+]([H])([H])C([H])([H])C3([H])[H])=N1)C([H])=C([H])N2[H]

>  <Name>  (32) 
4-(piperazin-1-yl)-7H-pyrrolo[2,3-d]pyrimidine

>  <Pocket>  (32) 
X

>  <ATP_Site>  (32) 
0.0

>  <Peripheral>  (32) 
1.0

>  <Num_H_Atoms_ProtBoundConf>  (32) 
14.0

>  <Num_Resolved_Atoms>  (32) 
15.0

>  <Num_Not_Resolved_Atoms>  (32) 
0.0

>  <2D_Mol_H>  (32) 
<rdkit.Chem.rdchem.Mol object at 0x72a238dc4350>

>  <MW>  (32) 
204.257

>  <HBA>  (32) 
3

>  <HBD>  (32) 
2

>  <LogP>  (32) 
-0.6587

>  <NRB>  (32) 
1

>  <TPSA>  (32) 
61.42

>  <Num_Heavy_Atoms>  (32) 
15

>  <Ro5>  (32) 
[True, True, True, True, True, True]

>  <Ro5_Fulfilled>  (32) 
True

>  <Ro3>  (32) 
[True, True, True, True]

>  <Ro3_Fulfilled>  (32) 
True

>  <Fsp3>  (32) 
0.4

>  <Fsp3_0.42>  (32) 
False

>  <Fsp3_0.45>  (32) 
False

>  <Stereogenic_Carbons>  (32) 
0

>  <C_Atoms>  (32) 
10

>  <FCStereo>  (32) 
0.0

>  <SPS>  (32) 
258

>  <nSPS>  (32) 
17.2

>  <PBF>  (32) 
0.578633

>  <PBF_0.6>  (32) 
False

>  <nPBF>  (32) 
0.038576

>  <nPBF_0.016>  (32) 
True

>  <PMI1>  (32) 
422.347321

>  <PMI2>  (32) 
1148.136233

>  <PMI3>  (32) 
1455.377706

>  <NPR1>  (32) 
0.290198

>  <NPR2>  (32) 
0.788892

>  <Sum_NPR>  (32) 
1.07909

>  <Sum_NPR_1.07>  (32) 
True

>  <Sum_NPR_1.2>  (32) 
False

>  <MaxAbsEStateIndex>  (32) 
4.383704

>  <MaxEStateIndex>  (32) 
4.383704

>  <MinAbsEStateIndex>  (32) 
0.925512

>  <MinEStateIndex>  (32) 
0.925512

>  <qed>  (32) 
0.648106

>  <MolWt>  (32) 
204.257

>  <HeavyAtomMolWt>  (32) 
190.145

>  <ExactMolWt>  (32) 
204.124372

>  <NumValenceElectrons>  (32) 
78

>  <NumRadicalElectrons>  (32) 
0

>  <MaxPartialCharge>  (32) 
0.142344

>  <MinPartialCharge>  (32) 
-0.345986

>  <MaxAbsPartialCharge>  (32) 
0.345986

>  <MinAbsPartialCharge>  (32) 
0.142344

>  <FpDensityMorgan1>  (32) 
1.266667

>  <FpDensityMorgan2>  (32) 
2.133333

>  <FpDensityMorgan3>  (32) 
3.0

>  <BCUT2D_MWHI>  (32) 
15.235688

>  <BCUT2D_MWLOW>  (32) 
10.277533

>  <BCUT2D_CHGHI>  (32) 
2.161617

>  <BCUT2D_CHGLO>  (32) 
-2.258953

>  <BCUT2D_LOGPHI>  (32) 
2.207434

>  <BCUT2D_LOGPLOW>  (32) 
-2.894459

>  <BCUT2D_MRHI>  (32) 
5.867192

>  <BCUT2D_MRLOW>  (32) 
-0.655218

>  <AvgIpc>  (32) 
2.776181

>  <BalabanJ>  (32) 
2.045727

>  <BertzCT>  (32) 
457.535617

>  <Chi0>  (32) 
10.087576

>  <Chi0n>  (32) 
8.479469

>  <Chi0v>  (32) 
8.479469

>  <Chi1>  (32) 
7.44949

>  <Chi1n>  (32) 
5.296854

>  <Chi1v>  (32) 
5.296854

>  <Chi2n>  (32) 
3.790302

>  <Chi2v>  (32) 
3.790302

>  <Chi3n>  (32) 
2.838746

>  <Chi3v>  (32) 
2.838746

>  <Chi4n>  (32) 
2.072886

>  <Chi4v>  (32) 
2.072886

>  <HallKierAlpha>  (32) 
-1.62

>  <Ipc>  (32) 
7140.336991

>  <Kappa1>  (32) 
8.669314

>  <Kappa2>  (32) 
3.507436

>  <Kappa3>  (32) 
1.445239

>  <LabuteASA>  (32) 
87.525157

>  <PEOE_VSA1>  (32) 
15.200677

>  <PEOE_VSA10>  (32) 
17.79236

>  <PEOE_VSA11>  (32) 
0.0

>  <PEOE_VSA12>  (32) 
0.0

>  <PEOE_VSA13>  (32) 
0.0

>  <PEOE_VSA14>  (32) 
0.0

>  <PEOE_VSA2>  (32) 
0.0

>  <PEOE_VSA3>  (32) 
9.967957

>  <PEOE_VSA4>  (32) 
0.0

>  <PEOE_VSA5>  (32) 
0.0

>  <PEOE_VSA6>  (32) 
0.0

>  <PEOE_VSA7>  (32) 
6.066367

>  <PEOE_VSA8>  (32) 
6.196844

>  <PEOE_VSA9>  (32) 
31.56525

>  <SMR_VSA1>  (32) 
5.316789

>  <SMR_VSA10>  (32) 
16.851264

>  <SMR_VSA2>  (32) 
0.0

>  <SMR_VSA3>  (32) 
14.951936

>  <SMR_VSA4>  (32) 
0.0

>  <SMR_VSA5>  (32) 
0.0

>  <SMR_VSA6>  (32) 
31.078935

>  <SMR_VSA7>  (32) 
18.590531

>  <SMR_VSA8>  (32) 
0.0

>  <SMR_VSA9>  (32) 
0.0

>  <SlogP_VSA1>  (32) 
10.216698

>  <SlogP_VSA10>  (32) 
5.817863

>  <SlogP_VSA11>  (32) 
0.0

>  <SlogP_VSA12>  (32) 
0.0

>  <SlogP_VSA2>  (32) 
41.130961

>  <SlogP_VSA3>  (32) 
0.0

>  <SlogP_VSA4>  (32) 
0.0

>  <SlogP_VSA5>  (32) 
0.0

>  <SlogP_VSA6>  (32) 
18.590531

>  <SlogP_VSA7>  (32) 
0.0

>  <SlogP_VSA8>  (32) 
11.033401

>  <SlogP_VSA9>  (32) 
0.0

>  <EState_VSA1>  (32) 
0.0

>  <EState_VSA10>  (32) 
0.0

>  <EState_VSA11>  (32) 
0.0

>  <EState_VSA2>  (32) 
0.0

>  <EState_VSA3>  (32) 
0.0

>  <EState_VSA4>  (32) 
43.03029

>  <EState_VSA5>  (32) 
0.0

>  <EState_VSA6>  (32) 
6.32732

>  <EState_VSA7>  (32) 
12.263211

>  <EState_VSA8>  (32) 
25.168634

>  <EState_VSA9>  (32) 
0.0

>  <VSA_EState1>  (32) 
0.0

>  <VSA_EState10>  (32) 
0.0

>  <VSA_EState2>  (32) 
14.023904

>  <VSA_EState3>  (32) 
3.463736

>  <VSA_EState4>  (32) 
0.925512

>  <VSA_EState5>  (32) 
1.064213

>  <VSA_EState6>  (32) 
2.04463

>  <VSA_EState7>  (32) 
3.547029

>  <VSA_EState8>  (32) 
4.430977

>  <VSA_EState9>  (32) 
0.0

>  <FractionCSP3>  (32) 
0.4

>  <HeavyAtomCount>  (32) 
15

>  <NHOHCount>  (32) 
3

>  <NOCount>  (32) 
5

>  <NumAliphaticCarbocycles>  (32) 
0

>  <NumAliphaticHeterocycles>  (32) 
1

>  <NumAliphaticRings>  (32) 
1

>  <NumAromaticCarbocycles>  (32) 
0

>  <NumAromaticHeterocycles>  (32) 
2

>  <NAR>  (32) 
2

>  <NumHAcceptors>  (32) 
3

>  <NumHDonors>  (32) 
2

>  <NumHeteroatoms>  (32) 
5

>  <NumRotatableBonds>  (32) 
1

>  <NumSaturatedCarbocycles>  (32) 
0

>  <NumSaturatedHeterocycles>  (32) 
1

>  <NumSaturatedRings>  (32) 
1

>  <RingCount>  (32) 
3

>  <MolLogP>  (32) 
-0.6587

>  <MolMR>  (32) 
57.7611

>  <fr_Al_COO>  (32) 
0

>  <fr_Al_OH>  (32) 
0

>  <fr_Al_OH_noTert>  (32) 
0

>  <fr_ArN>  (32) 
0

>  <fr_Ar_COO>  (32) 
0

>  <fr_Ar_N>  (32) 
3

>  <fr_Ar_NH>  (32) 
1

>  <fr_Ar_OH>  (32) 
0

>  <fr_COO>  (32) 
0

>  <fr_COO2>  (32) 
0

>  <fr_C_O>  (32) 
0

>  <fr_C_O_noCOO>  (32) 
0

>  <fr_C_S>  (32) 
0

>  <fr_HOCCN>  (32) 
0

>  <fr_Imine>  (32) 
0

>  <fr_NH0>  (32) 
3

>  <fr_NH1>  (32) 
1

>  <fr_NH2>  (32) 
1

>  <fr_N_O>  (32) 
0

>  <fr_Ndealkylation1>  (32) 
0

>  <fr_Ndealkylation2>  (32) 
0

>  <fr_Nhpyrrole>  (32) 
1

>  <fr_SH>  (32) 
0

>  <fr_aldehyde>  (32) 
0

>  <fr_alkyl_carbamate>  (32) 
0

>  <fr_alkyl_halide>  (32) 
0

>  <fr_allylic_oxid>  (32) 
0

>  <fr_amide>  (32) 
0

>  <fr_amidine>  (32) 
0

>  <fr_aniline>  (32) 
1

>  <fr_aryl_methyl>  (32) 
0

>  <fr_azide>  (32) 
0

>  <fr_azo>  (32) 
0

>  <fr_barbitur>  (32) 
0

>  <fr_benzene>  (32) 
0

>  <fr_benzodiazepine>  (32) 
0

>  <fr_bicyclic>  (32) 
1

>  <fr_diazo>  (32) 
0

>  <fr_dihydropyridine>  (32) 
0

>  <fr_epoxide>  (32) 
0

>  <fr_ester>  (32) 
0

>  <fr_ether>  (32) 
0

>  <fr_furan>  (32) 
0

>  <fr_guanido>  (32) 
0

>  <fr_halogen>  (32) 
0

>  <fr_hdrzine>  (32) 
0

>  <fr_hdrzone>  (32) 
0

>  <fr_imidazole>  (32) 
0

>  <fr_imide>  (32) 
0

>  <fr_isocyan>  (32) 
0

>  <fr_isothiocyan>  (32) 
0

>  <fr_ketone>  (32) 
0

>  <fr_ketone_Topliss>  (32) 
0

>  <fr_lactam>  (32) 
0

>  <fr_lactone>  (32) 
0

>  <fr_methoxy>  (32) 
0

>  <fr_morpholine>  (32) 
0

>  <fr_nitrile>  (32) 
0

>  <fr_nitro>  (32) 
0

>  <fr_nitro_arom>  (32) 
0

>  <fr_nitro_arom_nonortho>  (32) 
0

>  <fr_nitroso>  (32) 
0

>  <fr_oxazole>  (32) 
0

>  <fr_oxime>  (32) 
0

>  <fr_para_hydroxylation>  (32) 
0

>  <fr_phenol>  (32) 
0

>  <fr_phenol_noOrthoHbond>  (32) 
0

>  <fr_phos_acid>  (32) 
0

>  <fr_phos_ester>  (32) 
0

>  <fr_piperdine>  (32) 
0

>  <fr_piperzine>  (32) 
1

>  <fr_priamide>  (32) 
0

>  <fr_prisulfonamd>  (32) 
0

>  <fr_pyridine>  (32) 
0

>  <fr_quatN>  (32) 
1

>  <fr_sulfide>  (32) 
0

>  <fr_sulfonamd>  (32) 
0

>  <fr_sulfone>  (32) 
0

>  <fr_term_acetylene>  (32) 
0

>  <fr_tetrazole>  (32) 
0

>  <fr_thiazole>  (32) 
0

>  <fr_thiocyan>  (32) 
0

>  <fr_thiophene>  (32) 
0

>  <fr_unbrch_alkane>  (32) 
0

>  <fr_urea>  (32) 
0

>  <NP-Likeness>  (32) 
-1.094575

$$$$
6J9
     RDKit          3D

  0  0  0  0  0  0  0  0  0  0999 V3000
M  V30 BEGIN CTAB
M  V30 COUNTS 29 31 0 0 0
M  V30 BEGIN ATOM
M  V30 1 C 2.154136 -1.792352 3.321145 0
M  V30 2 N 2.306351 -0.570011 3.859044 0
M  V30 3 C 1.639096 0.491846 3.381460 0
M  V30 4 C 0.805801 0.236369 2.322725 0
M  V30 5 C 0.604645 -0.982343 1.729658 0
M  V30 6 N -0.260181 -1.357147 0.666323 0
M  V30 7 C -0.017375 -2.616561 -0.023910 0
M  V30 8 C 0.198781 -2.365990 -1.461371 0
M  V30 9 N -0.081802 -1.085296 -1.993158 0 CHG=1 VAL=4
M  V30 10 C -1.144628 -0.353924 -1.366500 0
M  V30 11 C -1.423172 -0.791101 0.045309 0
M  V30 12 N 1.326939 -1.990484 2.286461 0
M  V30 13 C 0.235496 1.435166 1.979661 0
M  V30 14 C 0.720558 2.391811 2.823162 0
M  V30 15 N 1.572183 1.788946 3.665384 0
M  V30 16 H 2.688744 -2.678627 3.692619 0
M  V30 17 H 0.850718 -3.099717 0.452025 0
M  V30 18 H -0.917979 -3.258783 0.130521 0
M  V30 19 H 1.280392 -2.601529 -1.696713 0
M  V30 20 H -0.344388 -3.172165 -2.038130 0
M  V30 21 H 0.782359 -0.498863 -2.030328 0
M  V30 22 H -0.367059 -1.207759 -3.004692 0
M  V30 23 H -2.087134 -0.389365 -1.950847 0
M  V30 24 H -0.849797 0.714756 -1.320994 0
M  V30 25 H -2.216752 -1.604719 0.013026 0
M  V30 26 H -1.884447 -0.023594 0.680897 0
M  V30 27 H -0.452493 1.660982 1.211531 0
M  V30 28 H 0.482548 3.445277 2.835451 0
M  V30 29 H 2.121357 2.222778 4.438933 0
M  V30 END ATOM
M  V30 BEGIN BOND
M  V30 1 2 1 2
M  V30 2 1 2 3
M  V30 3 2 3 4
M  V30 4 1 4 5
M  V30 5 1 5 6
M  V30 6 1 6 7
M  V30 7 1 7 8
M  V30 8 1 8 9
M  V30 9 1 9 10
M  V30 10 1 10 11
M  V30 11 2 5 12
M  V30 12 1 4 13
M  V30 13 2 13 14
M  V30 14 1 14 15
M  V30 15 1 12 1
M  V30 16 1 15 3
M  V30 17 1 11 6
M  V30 18 1 1 16
M  V30 19 1 7 17
M  V30 20 1 7 18
M  V30 21 1 8 19
M  V30 22 1 8 20
M  V30 23 1 9 21
M  V30 24 1 9 22
M  V30 25 1 10 23
M  V30 26 1 10 24
M  V30 27 1 11 25
M  V30 28 1 11 26
M  V30 29 1 13 27
M  V30 30 1 14 28
M  V30 31 1 15 29
M  V30 END BOND
M  V30 END CTAB
M  END
>  <Dataset>  (33) 
PDB

>  <Ligand_Instance>  (33) 
5IZJ_6J9_B_413

>  <PDB_ID>  (33) 
5IZJ

>  <Standardized_SMILES>  (33) 
[H]C1=NC2=C(C(N3C([H])([H])C([H])([H])[N+]([H])([H])C([H])([H])C3([H])[H])=N1)C([H])=C([H])N2[H]

>  <Name>  (33) 
4-(piperazin-1-yl)-7H-pyrrolo[2,3-d]pyrimidine

>  <Pocket>  (33) 
X

>  <ATP_Site>  (33) 
0.0

>  <Peripheral>  (33) 
1.0

>  <Num_H_Atoms_ProtBoundConf>  (33) 
14.0

>  <Num_Resolved_Atoms>  (33) 
15.0

>  <Num_Not_Resolved_Atoms>  (33) 
0.0

>  <2D_Mol_H>  (33) 
<rdkit.Chem.rdchem.Mol object at 0x72a238dc4430>

>  <MW>  (33) 
204.257

>  <HBA>  (33) 
3

>  <HBD>  (33) 
2

>  <LogP>  (33) 
-0.6587

>  <NRB>  (33) 
1

>  <TPSA>  (33) 
61.42

>  <Num_Heavy_Atoms>  (33) 
15

>  <Ro5>  (33) 
[True, True, True, True, True, True]

>  <Ro5_Fulfilled>  (33) 
True

>  <Ro3>  (33) 
[True, True, True, True]

>  <Ro3_Fulfilled>  (33) 
True

>  <Fsp3>  (33) 
0.4

>  <Fsp3_0.42>  (33) 
False

>  <Fsp3_0.45>  (33) 
False

>  <Stereogenic_Carbons>  (33) 
0

>  <C_Atoms>  (33) 
10

>  <FCStereo>  (33) 
0.0

>  <SPS>  (33) 
258

>  <nSPS>  (33) 
17.2

>  <PBF>  (33) 
0.578633

>  <PBF_0.6>  (33) 
False

>  <nPBF>  (33) 
0.038576

>  <nPBF_0.016>  (33) 
True

>  <PMI1>  (33) 
422.347321

>  <PMI2>  (33) 
1148.136233

>  <PMI3>  (33) 
1455.377706

>  <NPR1>  (33) 
0.290198

>  <NPR2>  (33) 
0.788892

>  <Sum_NPR>  (33) 
1.07909

>  <Sum_NPR_1.07>  (33) 
True

>  <Sum_NPR_1.2>  (33) 
False

>  <MaxAbsEStateIndex>  (33) 
4.383704

>  <MaxEStateIndex>  (33) 
4.383704

>  <MinAbsEStateIndex>  (33) 
0.925512

>  <MinEStateIndex>  (33) 
0.925512

>  <qed>  (33) 
0.648106

>  <MolWt>  (33) 
204.257

>  <HeavyAtomMolWt>  (33) 
190.145

>  <ExactMolWt>  (33) 
204.124372

>  <NumValenceElectrons>  (33) 
78

>  <NumRadicalElectrons>  (33) 
0

>  <MaxPartialCharge>  (33) 
0.142344

>  <MinPartialCharge>  (33) 
-0.345986

>  <MaxAbsPartialCharge>  (33) 
0.345986

>  <MinAbsPartialCharge>  (33) 
0.142344

>  <FpDensityMorgan1>  (33) 
1.266667

>  <FpDensityMorgan2>  (33) 
2.133333

>  <FpDensityMorgan3>  (33) 
3.0

>  <BCUT2D_MWHI>  (33) 
15.235688

>  <BCUT2D_MWLOW>  (33) 
10.277533

>  <BCUT2D_CHGHI>  (33) 
2.161617

>  <BCUT2D_CHGLO>  (33) 
-2.258953

>  <BCUT2D_LOGPHI>  (33) 
2.207434

>  <BCUT2D_LOGPLOW>  (33) 
-2.894459

>  <BCUT2D_MRHI>  (33) 
5.867192

>  <BCUT2D_MRLOW>  (33) 
-0.655218

>  <AvgIpc>  (33) 
2.776181

>  <BalabanJ>  (33) 
2.045727

>  <BertzCT>  (33) 
457.535617

>  <Chi0>  (33) 
10.087576

>  <Chi0n>  (33) 
8.479469

>  <Chi0v>  (33) 
8.479469

>  <Chi1>  (33) 
7.44949

>  <Chi1n>  (33) 
5.296854

>  <Chi1v>  (33) 
5.296854

>  <Chi2n>  (33) 
3.790302

>  <Chi2v>  (33) 
3.790302

>  <Chi3n>  (33) 
2.838746

>  <Chi3v>  (33) 
2.838746

>  <Chi4n>  (33) 
2.072886

>  <Chi4v>  (33) 
2.072886

>  <HallKierAlpha>  (33) 
-1.62

>  <Ipc>  (33) 
7140.336991

>  <Kappa1>  (33) 
8.669314

>  <Kappa2>  (33) 
3.507436

>  <Kappa3>  (33) 
1.445239

>  <LabuteASA>  (33) 
87.525157

>  <PEOE_VSA1>  (33) 
15.200677

>  <PEOE_VSA10>  (33) 
17.79236

>  <PEOE_VSA11>  (33) 
0.0

>  <PEOE_VSA12>  (33) 
0.0

>  <PEOE_VSA13>  (33) 
0.0

>  <PEOE_VSA14>  (33) 
0.0

>  <PEOE_VSA2>  (33) 
0.0

>  <PEOE_VSA3>  (33) 
9.967957

>  <PEOE_VSA4>  (33) 
0.0

>  <PEOE_VSA5>  (33) 
0.0

>  <PEOE_VSA6>  (33) 
0.0

>  <PEOE_VSA7>  (33) 
6.066367

>  <PEOE_VSA8>  (33) 
6.196844

>  <PEOE_VSA9>  (33) 
31.56525

>  <SMR_VSA1>  (33) 
5.316789

>  <SMR_VSA10>  (33) 
16.851264

>  <SMR_VSA2>  (33) 
0.0

>  <SMR_VSA3>  (33) 
14.951936

>  <SMR_VSA4>  (33) 
0.0

>  <SMR_VSA5>  (33) 
0.0

>  <SMR_VSA6>  (33) 
31.078935

>  <SMR_VSA7>  (33) 
18.590531

>  <SMR_VSA8>  (33) 
0.0

>  <SMR_VSA9>  (33) 
0.0

>  <SlogP_VSA1>  (33) 
10.216698

>  <SlogP_VSA10>  (33) 
5.817863

>  <SlogP_VSA11>  (33) 
0.0

>  <SlogP_VSA12>  (33) 
0.0

>  <SlogP_VSA2>  (33) 
41.130961

>  <SlogP_VSA3>  (33) 
0.0

>  <SlogP_VSA4>  (33) 
0.0

>  <SlogP_VSA5>  (33) 
0.0

>  <SlogP_VSA6>  (33) 
18.590531

>  <SlogP_VSA7>  (33) 
0.0

>  <SlogP_VSA8>  (33) 
11.033401

>  <SlogP_VSA9>  (33) 
0.0

>  <EState_VSA1>  (33) 
0.0

>  <EState_VSA10>  (33) 
0.0

>  <EState_VSA11>  (33) 
0.0

>  <EState_VSA2>  (33) 
0.0

>  <EState_VSA3>  (33) 
0.0

>  <EState_VSA4>  (33) 
43.03029

>  <EState_VSA5>  (33) 
0.0

>  <EState_VSA6>  (33) 
6.32732

>  <EState_VSA7>  (33) 
12.263211

>  <EState_VSA8>  (33) 
25.168634

>  <EState_VSA9>  (33) 
0.0

>  <VSA_EState1>  (33) 
0.0

>  <VSA_EState10>  (33) 
0.0

>  <VSA_EState2>  (33) 
14.023904

>  <VSA_EState3>  (33) 
3.463736

>  <VSA_EState4>  (33) 
0.925512

>  <VSA_EState5>  (33) 
1.064213

>  <VSA_EState6>  (33) 
2.04463

>  <VSA_EState7>  (33) 
3.547029

>  <VSA_EState8>  (33) 
4.430977

>  <VSA_EState9>  (33) 
0.0

>  <FractionCSP3>  (33) 
0.4

>  <HeavyAtomCount>  (33) 
15

>  <NHOHCount>  (33) 
3

>  <NOCount>  (33) 
5

>  <NumAliphaticCarbocycles>  (33) 
0

>  <NumAliphaticHeterocycles>  (33) 
1

>  <NumAliphaticRings>  (33) 
1

>  <NumAromaticCarbocycles>  (33) 
0

>  <NumAromaticHeterocycles>  (33) 
2

>  <NAR>  (33) 
2

>  <NumHAcceptors>  (33) 
3

>  <NumHDonors>  (33) 
2

>  <NumHeteroatoms>  (33) 
5

>  <NumRotatableBonds>  (33) 
1

>  <NumSaturatedCarbocycles>  (33) 
0

>  <NumSaturatedHeterocycles>  (33) 
1

>  <NumSaturatedRings>  (33) 
1

>  <RingCount>  (33) 
3

>  <MolLogP>  (33) 
-0.6587

>  <MolMR>  (33) 
57.7611

>  <fr_Al_COO>  (33) 
0

>  <fr_Al_OH>  (33) 
0

>  <fr_Al_OH_noTert>  (33) 
0

>  <fr_ArN>  (33) 
0

>  <fr_Ar_COO>  (33) 
0

>  <fr_Ar_N>  (33) 
3

>  <fr_Ar_NH>  (33) 
1

>  <fr_Ar_OH>  (33) 
0

>  <fr_COO>  (33) 
0

>  <fr_COO2>  (33) 
0

>  <fr_C_O>  (33) 
0

>  <fr_C_O_noCOO>  (33) 
0

>  <fr_C_S>  (33) 
0

>  <fr_HOCCN>  (33) 
0

>  <fr_Imine>  (33) 
0

>  <fr_NH0>  (33) 
3

>  <fr_NH1>  (33) 
1

>  <fr_NH2>  (33) 
1

>  <fr_N_O>  (33) 
0

>  <fr_Ndealkylation1>  (33) 
0

>  <fr_Ndealkylation2>  (33) 
0

>  <fr_Nhpyrrole>  (33) 
1

>  <fr_SH>  (33) 
0

>  <fr_aldehyde>  (33) 
0

>  <fr_alkyl_carbamate>  (33) 
0

>  <fr_alkyl_halide>  (33) 
0

>  <fr_allylic_oxid>  (33) 
0

>  <fr_amide>  (33) 
0

>  <fr_amidine>  (33) 
0

>  <fr_aniline>  (33) 
1

>  <fr_aryl_methyl>  (33) 
0

>  <fr_azide>  (33) 
0

>  <fr_azo>  (33) 
0

>  <fr_barbitur>  (33) 
0

>  <fr_benzene>  (33) 
0

>  <fr_benzodiazepine>  (33) 
0

>  <fr_bicyclic>  (33) 
1

>  <fr_diazo>  (33) 
0

>  <fr_dihydropyridine>  (33) 
0

>  <fr_epoxide>  (33) 
0

>  <fr_ester>  (33) 
0

>  <fr_ether>  (33) 
0

>  <fr_furan>  (33) 
0

>  <fr_guanido>  (33) 
0

>  <fr_halogen>  (33) 
0

>  <fr_hdrzine>  (33) 
0

>  <fr_hdrzone>  (33) 
0

>  <fr_imidazole>  (33) 
0

>  <fr_imide>  (33) 
0

>  <fr_isocyan>  (33) 
0

>  <fr_isothiocyan>  (33) 
0

>  <fr_ketone>  (33) 
0

>  <fr_ketone_Topliss>  (33) 
0

>  <fr_lactam>  (33) 
0

>  <fr_lactone>  (33) 
0

>  <fr_methoxy>  (33) 
0

>  <fr_morpholine>  (33) 
0

>  <fr_nitrile>  (33) 
0

>  <fr_nitro>  (33) 
0

>  <fr_nitro_arom>  (33) 
0

>  <fr_nitro_arom_nonortho>  (33) 
0

>  <fr_nitroso>  (33) 
0

>  <fr_oxazole>  (33) 
0

>  <fr_oxime>  (33) 
0

>  <fr_para_hydroxylation>  (33) 
0

>  <fr_phenol>  (33) 
0

>  <fr_phenol_noOrthoHbond>  (33) 
0

>  <fr_phos_acid>  (33) 
0

>  <fr_phos_ester>  (33) 
0

>  <fr_piperdine>  (33) 
0

>  <fr_piperzine>  (33) 
1

>  <fr_priamide>  (33) 
0

>  <fr_prisulfonamd>  (33) 
0

>  <fr_pyridine>  (33) 
0

>  <fr_quatN>  (33) 
1

>  <fr_sulfide>  (33) 
0

>  <fr_sulfonamd>  (33) 
0

>  <fr_sulfone>  (33) 
0

>  <fr_term_acetylene>  (33) 
0

>  <fr_tetrazole>  (33) 
0

>  <fr_thiazole>  (33) 
0

>  <fr_thiocyan>  (33) 
0

>  <fr_thiophene>  (33) 
0

>  <fr_unbrch_alkane>  (33) 
0

>  <fr_urea>  (33) 
0

>  <NP-Likeness>  (33) 
-1.094575

$$$$
6J9
     RDKit          3D

  0  0  0  0  0  0  0  0  0  0999 V3000
M  V30 BEGIN CTAB
M  V30 COUNTS 29 31 0 0 0
M  V30 BEGIN ATOM
M  V30 1 C 2.154136 -1.792352 3.321145 0
M  V30 2 N 2.306351 -0.570011 3.859044 0
M  V30 3 C 1.639096 0.491846 3.381460 0
M  V30 4 C 0.805801 0.236369 2.322725 0
M  V30 5 C 0.604645 -0.982343 1.729658 0
M  V30 6 N -0.260181 -1.357147 0.666323 0
M  V30 7 C -0.017375 -2.616561 -0.023910 0
M  V30 8 C 0.198781 -2.365990 -1.461371 0
M  V30 9 N -0.081802 -1.085296 -1.993158 0 CHG=1 VAL=4
M  V30 10 C -1.144628 -0.353924 -1.366500 0
M  V30 11 C -1.423172 -0.791101 0.045309 0
M  V30 12 N 1.326939 -1.990484 2.286461 0
M  V30 13 C 0.235496 1.435166 1.979661 0
M  V30 14 C 0.720558 2.391811 2.823162 0
M  V30 15 N 1.572183 1.788946 3.665384 0
M  V30 16 H 2.688744 -2.678627 3.692619 0
M  V30 17 H 0.850718 -3.099717 0.452025 0
M  V30 18 H -0.917979 -3.258783 0.130521 0
M  V30 19 H 1.280392 -2.601529 -1.696713 0
M  V30 20 H -0.344388 -3.172165 -2.038130 0
M  V30 21 H 0.782359 -0.498863 -2.030328 0
M  V30 22 H -0.367059 -1.207759 -3.004692 0
M  V30 23 H -2.087134 -0.389365 -1.950847 0
M  V30 24 H -0.849797 0.714756 -1.320994 0
M  V30 25 H -2.216752 -1.604719 0.013026 0
M  V30 26 H -1.884447 -0.023594 0.680897 0
M  V30 27 H -0.452493 1.660982 1.211531 0
M  V30 28 H 0.482548 3.445277 2.835451 0
M  V30 29 H 2.121357 2.222778 4.438933 0
M  V30 END ATOM
M  V30 BEGIN BOND
M  V30 1 2 1 2
M  V30 2 1 2 3
M  V30 3 2 3 4
M  V30 4 1 4 5
M  V30 5 1 5 6
M  V30 6 1 6 7
M  V30 7 1 7 8
M  V30 8 1 8 9
M  V30 9 1 9 10
M  V30 10 1 10 11
M  V30 11 2 5 12
M  V30 12 1 4 13
M  V30 13 2 13 14
M  V30 14 1 14 15
M  V30 15 1 12 1
M  V30 16 1 15 3
M  V30 17 1 11 6
M  V30 18 1 1 16
M  V30 19 1 7 17
M  V30 20 1 7 18
M  V30 21 1 8 19
M  V30 22 1 8 20
M  V30 23 1 9 21
M  V30 24 1 9 22
M  V30 25 1 10 23
M  V30 26 1 10 24
M  V30 27 1 11 25
M  V30 28 1 11 26
M  V30 29 1 13 27
M  V30 30 1 14 28
M  V30 31 1 15 29
M  V30 END BOND
M  V30 END CTAB
M  END
>  <Dataset>  (34) 
PDB

>  <Ligand_Instance>  (34) 
5J5X_6J9_A_404

>  <PDB_ID>  (34) 
5J5X

>  <Standardized_SMILES>  (34) 
[H]C1=NC2=C(C(N3C([H])([H])C([H])([H])[N+]([H])([H])C([H])([H])C3([H])[H])=N1)C([H])=C([H])N2[H]

>  <Name>  (34) 
4-(piperazin-1-yl)-7H-pyrrolo[2,3-d]pyrimidine

>  <Pocket>  (34) 
X

>  <ATP_Site>  (34) 
0.0

>  <Peripheral>  (34) 
1.0

>  <Num_H_Atoms_ProtBoundConf>  (34) 
14.0

>  <Num_Resolved_Atoms>  (34) 
15.0

>  <Num_Not_Resolved_Atoms>  (34) 
0.0

>  <2D_Mol_H>  (34) 
<rdkit.Chem.rdchem.Mol object at 0x72a238dc4510>

>  <MW>  (34) 
204.257

>  <HBA>  (34) 
3

>  <HBD>  (34) 
2

>  <LogP>  (34) 
-0.6587

>  <NRB>  (34) 
1

>  <TPSA>  (34) 
61.42

>  <Num_Heavy_Atoms>  (34) 
15

>  <Ro5>  (34) 
[True, True, True, True, True, True]

>  <Ro5_Fulfilled>  (34) 
True

>  <Ro3>  (34) 
[True, True, True, True]

>  <Ro3_Fulfilled>  (34) 
True

>  <Fsp3>  (34) 
0.4

>  <Fsp3_0.42>  (34) 
False

>  <Fsp3_0.45>  (34) 
False

>  <Stereogenic_Carbons>  (34) 
0

>  <C_Atoms>  (34) 
10

>  <FCStereo>  (34) 
0.0

>  <SPS>  (34) 
258

>  <nSPS>  (34) 
17.2

>  <PBF>  (34) 
0.578633

>  <PBF_0.6>  (34) 
False

>  <nPBF>  (34) 
0.038576

>  <nPBF_0.016>  (34) 
True

>  <PMI1>  (34) 
422.347321

>  <PMI2>  (34) 
1148.136233

>  <PMI3>  (34) 
1455.377706

>  <NPR1>  (34) 
0.290198

>  <NPR2>  (34) 
0.788892

>  <Sum_NPR>  (34) 
1.07909

>  <Sum_NPR_1.07>  (34) 
True

>  <Sum_NPR_1.2>  (34) 
False

>  <MaxAbsEStateIndex>  (34) 
4.383704

>  <MaxEStateIndex>  (34) 
4.383704

>  <MinAbsEStateIndex>  (34) 
0.925512

>  <MinEStateIndex>  (34) 
0.925512

>  <qed>  (34) 
0.648106

>  <MolWt>  (34) 
204.257

>  <HeavyAtomMolWt>  (34) 
190.145

>  <ExactMolWt>  (34) 
204.124372

>  <NumValenceElectrons>  (34) 
78

>  <NumRadicalElectrons>  (34) 
0

>  <MaxPartialCharge>  (34) 
0.142344

>  <MinPartialCharge>  (34) 
-0.345986

>  <MaxAbsPartialCharge>  (34) 
0.345986

>  <MinAbsPartialCharge>  (34) 
0.142344

>  <FpDensityMorgan1>  (34) 
1.266667

>  <FpDensityMorgan2>  (34) 
2.133333

>  <FpDensityMorgan3>  (34) 
3.0

>  <BCUT2D_MWHI>  (34) 
15.235688

>  <BCUT2D_MWLOW>  (34) 
10.277533

>  <BCUT2D_CHGHI>  (34) 
2.161617

>  <BCUT2D_CHGLO>  (34) 
-2.258953

>  <BCUT2D_LOGPHI>  (34) 
2.207434

>  <BCUT2D_LOGPLOW>  (34) 
-2.894459

>  <BCUT2D_MRHI>  (34) 
5.867192

>  <BCUT2D_MRLOW>  (34) 
-0.655218

>  <AvgIpc>  (34) 
2.776181

>  <BalabanJ>  (34) 
2.045727

>  <BertzCT>  (34) 
457.535617

>  <Chi0>  (34) 
10.087576

>  <Chi0n>  (34) 
8.479469

>  <Chi0v>  (34) 
8.479469

>  <Chi1>  (34) 
7.44949

>  <Chi1n>  (34) 
5.296854

>  <Chi1v>  (34) 
5.296854

>  <Chi2n>  (34) 
3.790302

>  <Chi2v>  (34) 
3.790302

>  <Chi3n>  (34) 
2.838746

>  <Chi3v>  (34) 
2.838746

>  <Chi4n>  (34) 
2.072886

>  <Chi4v>  (34) 
2.072886

>  <HallKierAlpha>  (34) 
-1.62

>  <Ipc>  (34) 
7140.336991

>  <Kappa1>  (34) 
8.669314

>  <Kappa2>  (34) 
3.507436

>  <Kappa3>  (34) 
1.445239

>  <LabuteASA>  (34) 
87.525157

>  <PEOE_VSA1>  (34) 
15.200677

>  <PEOE_VSA10>  (34) 
17.79236

>  <PEOE_VSA11>  (34) 
0.0

>  <PEOE_VSA12>  (34) 
0.0

>  <PEOE_VSA13>  (34) 
0.0

>  <PEOE_VSA14>  (34) 
0.0

>  <PEOE_VSA2>  (34) 
0.0

>  <PEOE_VSA3>  (34) 
9.967957

>  <PEOE_VSA4>  (34) 
0.0

>  <PEOE_VSA5>  (34) 
0.0

>  <PEOE_VSA6>  (34) 
0.0

>  <PEOE_VSA7>  (34) 
6.066367

>  <PEOE_VSA8>  (34) 
6.196844

>  <PEOE_VSA9>  (34) 
31.56525

>  <SMR_VSA1>  (34) 
5.316789

>  <SMR_VSA10>  (34) 
16.851264

>  <SMR_VSA2>  (34) 
0.0

>  <SMR_VSA3>  (34) 
14.951936

>  <SMR_VSA4>  (34) 
0.0

>  <SMR_VSA5>  (34) 
0.0

>  <SMR_VSA6>  (34) 
31.078935

>  <SMR_VSA7>  (34) 
18.590531

>  <SMR_VSA8>  (34) 
0.0

>  <SMR_VSA9>  (34) 
0.0

>  <SlogP_VSA1>  (34) 
10.216698

>  <SlogP_VSA10>  (34) 
5.817863

>  <SlogP_VSA11>  (34) 
0.0

>  <SlogP_VSA12>  (34) 
0.0

>  <SlogP_VSA2>  (34) 
41.130961

>  <SlogP_VSA3>  (34) 
0.0

>  <SlogP_VSA4>  (34) 
0.0

>  <SlogP_VSA5>  (34) 
0.0

>  <SlogP_VSA6>  (34) 
18.590531

>  <SlogP_VSA7>  (34) 
0.0

>  <SlogP_VSA8>  (34) 
11.033401

>  <SlogP_VSA9>  (34) 
0.0

>  <EState_VSA1>  (34) 
0.0

>  <EState_VSA10>  (34) 
0.0

>  <EState_VSA11>  (34) 
0.0

>  <EState_VSA2>  (34) 
0.0

>  <EState_VSA3>  (34) 
0.0

>  <EState_VSA4>  (34) 
43.03029

>  <EState_VSA5>  (34) 
0.0

>  <EState_VSA6>  (34) 
6.32732

>  <EState_VSA7>  (34) 
12.263211

>  <EState_VSA8>  (34) 
25.168634

>  <EState_VSA9>  (34) 
0.0

>  <VSA_EState1>  (34) 
0.0

>  <VSA_EState10>  (34) 
0.0

>  <VSA_EState2>  (34) 
14.023904

>  <VSA_EState3>  (34) 
3.463736

>  <VSA_EState4>  (34) 
0.925512

>  <VSA_EState5>  (34) 
1.064213

>  <VSA_EState6>  (34) 
2.04463

>  <VSA_EState7>  (34) 
3.547029

>  <VSA_EState8>  (34) 
4.430977

>  <VSA_EState9>  (34) 
0.0

>  <FractionCSP3>  (34) 
0.4

>  <HeavyAtomCount>  (34) 
15

>  <NHOHCount>  (34) 
3

>  <NOCount>  (34) 
5

>  <NumAliphaticCarbocycles>  (34) 
0

>  <NumAliphaticHeterocycles>  (34) 
1

>  <NumAliphaticRings>  (34) 
1

>  <NumAromaticCarbocycles>  (34) 
0

>  <NumAromaticHeterocycles>  (34) 
2

>  <NAR>  (34) 
2

>  <NumHAcceptors>  (34) 
3

>  <NumHDonors>  (34) 
2

>  <NumHeteroatoms>  (34) 
5

>  <NumRotatableBonds>  (34) 
1

>  <NumSaturatedCarbocycles>  (34) 
0

>  <NumSaturatedHeterocycles>  (34) 
1

>  <NumSaturatedRings>  (34) 
1

>  <RingCount>  (34) 
3

>  <MolLogP>  (34) 
-0.6587

>  <MolMR>  (34) 
57.7611

>  <fr_Al_COO>  (34) 
0

>  <fr_Al_OH>  (34) 
0

>  <fr_Al_OH_noTert>  (34) 
0

>  <fr_ArN>  (34) 
0

>  <fr_Ar_COO>  (34) 
0

>  <fr_Ar_N>  (34) 
3

>  <fr_Ar_NH>  (34) 
1

>  <fr_Ar_OH>  (34) 
0

>  <fr_COO>  (34) 
0

>  <fr_COO2>  (34) 
0

>  <fr_C_O>  (34) 
0

>  <fr_C_O_noCOO>  (34) 
0

>  <fr_C_S>  (34) 
0

>  <fr_HOCCN>  (34) 
0

>  <fr_Imine>  (34) 
0

>  <fr_NH0>  (34) 
3

>  <fr_NH1>  (34) 
1

>  <fr_NH2>  (34) 
1

>  <fr_N_O>  (34) 
0

>  <fr_Ndealkylation1>  (34) 
0

>  <fr_Ndealkylation2>  (34) 
0

>  <fr_Nhpyrrole>  (34) 
1

>  <fr_SH>  (34) 
0

>  <fr_aldehyde>  (34) 
0

>  <fr_alkyl_carbamate>  (34) 
0

>  <fr_alkyl_halide>  (34) 
0

>  <fr_allylic_oxid>  (34) 
0

>  <fr_amide>  (34) 
0

>  <fr_amidine>  (34) 
0

>  <fr_aniline>  (34) 
1

>  <fr_aryl_methyl>  (34) 
0

>  <fr_azide>  (34) 
0

>  <fr_azo>  (34) 
0

>  <fr_barbitur>  (34) 
0

>  <fr_benzene>  (34) 
0

>  <fr_benzodiazepine>  (34) 
0

>  <fr_bicyclic>  (34) 
1

>  <fr_diazo>  (34) 
0

>  <fr_dihydropyridine>  (34) 
0

>  <fr_epoxide>  (34) 
0

>  <fr_ester>  (34) 
0

>  <fr_ether>  (34) 
0

>  <fr_furan>  (34) 
0

>  <fr_guanido>  (34) 
0

>  <fr_halogen>  (34) 
0

>  <fr_hdrzine>  (34) 
0

>  <fr_hdrzone>  (34) 
0

>  <fr_imidazole>  (34) 
0

>  <fr_imide>  (34) 
0

>  <fr_isocyan>  (34) 
0

>  <fr_isothiocyan>  (34) 
0

>  <fr_ketone>  (34) 
0

>  <fr_ketone_Topliss>  (34) 
0

>  <fr_lactam>  (34) 
0

>  <fr_lactone>  (34) 
0

>  <fr_methoxy>  (34) 
0

>  <fr_morpholine>  (34) 
0

>  <fr_nitrile>  (34) 
0

>  <fr_nitro>  (34) 
0

>  <fr_nitro_arom>  (34) 
0

>  <fr_nitro_arom_nonortho>  (34) 
0

>  <fr_nitroso>  (34) 
0

>  <fr_oxazole>  (34) 
0

>  <fr_oxime>  (34) 
0

>  <fr_para_hydroxylation>  (34) 
0

>  <fr_phenol>  (34) 
0

>  <fr_phenol_noOrthoHbond>  (34) 
0

>  <fr_phos_acid>  (34) 
0

>  <fr_phos_ester>  (34) 
0

>  <fr_piperdine>  (34) 
0

>  <fr_piperzine>  (34) 
1

>  <fr_priamide>  (34) 
0

>  <fr_prisulfonamd>  (34) 
0

>  <fr_pyridine>  (34) 
0

>  <fr_quatN>  (34) 
1

>  <fr_sulfide>  (34) 
0

>  <fr_sulfonamd>  (34) 
0

>  <fr_sulfone>  (34) 
0

>  <fr_term_acetylene>  (34) 
0

>  <fr_tetrazole>  (34) 
0

>  <fr_thiazole>  (34) 
0

>  <fr_thiocyan>  (34) 
0

>  <fr_thiophene>  (34) 
0

>  <fr_unbrch_alkane>  (34) 
0

>  <fr_urea>  (34) 
0

>  <NP-Likeness>  (34) 
-1.094575

$$$$
6TV
     RDKit          3D

  0  0  0  0  0  0  0  0  0  0999 V3000
M  V30 BEGIN CTAB
M  V30 COUNTS 40 41 0 0 0
M  V30 BEGIN ATOM
M  V30 1 C -0.867645 -3.368883 2.881635 0
M  V30 2 N -0.029772 -4.355828 3.189101 0
M  V30 3 C 0.781785 -4.936852 2.275015 0
M  V30 4 C 0.703214 -4.450873 0.974364 0
M  V30 5 C 1.526805 -5.038994 0.042021 0
M  V30 6 C 1.477815 -4.583748 -1.260804 0
M  V30 7 C 0.632803 -3.560265 -1.661890 0
M  V30 8 C -0.193527 -2.977674 -0.702202 0
M  V30 9 S -1.281069 -1.681955 -1.148486 0
M  V30 10 O -1.157512 -1.423397 -2.621509 0
M  V30 11 O -2.695767 -2.099559 -0.876763 0
M  V30 12 N -0.892706 -0.251360 -0.222846 0
M  V30 13 C 0.439257 0.194950 -0.496089 0
M  V30 14 C 0.798795 1.434346 0.295281 0
M  V30 15 N -0.035051 2.563251 0.043684 0 CHG=1 VAL=4
M  V30 16 C -0.209079 3.292367 1.294508 0
M  V30 17 C 1.111804 3.692234 1.884290 0
M  V30 18 C 0.981119 4.444816 3.172235 0
M  V30 19 C -0.144505 -3.433536 0.602500 0
M  V30 20 C -0.936402 -2.894693 1.585363 0
M  V30 21 H -1.474934 -2.966007 3.668843 0
M  V30 22 H 1.458741 -5.740751 2.544532 0
M  V30 23 H 2.189361 -5.828686 0.315241 0
M  V30 24 H 2.141162 -5.072617 -1.962671 0
M  V30 25 H 0.632197 -3.239274 -2.697233 0
M  V30 26 H -1.619572 0.447045 -0.425755 0
M  V30 27 H 1.134413 -0.598354 -0.093562 0
M  V30 28 H 0.668748 0.304569 -1.571829 0
M  V30 29 H 0.653536 1.131672 1.365960 0
M  V30 30 H 1.846491 1.708240 0.095216 0
M  V30 31 H 0.469739 3.252048 -0.590736 0
M  V30 32 H -0.926243 2.364561 -0.421044 0
M  V30 33 H -0.814451 4.209459 1.078650 0
M  V30 34 H -0.812248 2.666719 1.979451 0
M  V30 35 H 1.624159 4.361156 1.167596 0
M  V30 36 H 1.691402 2.765239 2.085746 0
M  V30 37 H 0.015610 4.250132 3.687066 0
M  V30 38 H 1.159707 5.538273 3.033331 0
M  V30 39 H 1.770483 4.121773 3.884512 0
M  V30 40 H -1.615184 -2.087988 1.313108 0
M  V30 END ATOM
M  V30 BEGIN BOND
M  V30 1 2 1 2
M  V30 2 1 2 3
M  V30 3 2 3 4
M  V30 4 1 4 5
M  V30 5 2 5 6
M  V30 6 1 6 7
M  V30 7 2 7 8
M  V30 8 1 8 9
M  V30 9 2 9 10
M  V30 10 2 9 11
M  V30 11 1 9 12
M  V30 12 1 12 13
M  V30 13 1 13 14
M  V30 14 1 14 15
M  V30 15 1 15 16
M  V30 16 1 16 17
M  V30 17 1 17 18
M  V30 18 1 8 19
M  V30 19 2 19 20
M  V30 20 1 20 1
M  V30 21 1 19 4
M  V30 22 1 1 21
M  V30 23 1 3 22
M  V30 24 1 5 23
M  V30 25 1 6 24
M  V30 26 1 7 25
M  V30 27 1 12 26
M  V30 28 1 13 27
M  V30 29 1 13 28
M  V30 30 1 14 29
M  V30 31 1 14 30
M  V30 32 1 15 31
M  V30 33 1 15 32
M  V30 34 1 16 33
M  V30 35 1 16 34
M  V30 36 1 17 35
M  V30 37 1 17 36
M  V30 38 1 18 37
M  V30 39 1 18 38
M  V30 40 1 18 39
M  V30 41 1 20 40
M  V30 END BOND
M  V30 END CTAB
M  END
>  <Dataset>  (35) 
PDB

>  <Ligand_Instance>  (35) 
5LCQ_6TV_A_401

>  <PDB_ID>  (35) 
5LCQ

>  <Standardized_SMILES>  (35) 
[H]C1=NC([H])=C2C([H])=C([H])C([H])=C(S(=O)(=O)N([H])C([H])([H])C([H])([H])[N+]([H])([H])C([H])([H])C([H])([H])C([H])([H])[H])C2=C1[H]

>  <Name>  (35) 
~{N}-[2-(propylamino)ethyl]isoquinoline-5-sulfonamide

>  <Pocket>  (35) 
A

>  <ATP_Site>  (35) 
1.0

>  <Peripheral>  (35) 
0.0

>  <Num_H_Atoms_ProtBoundConf>  (35) 
20.0

>  <Num_Resolved_Atoms>  (35) 
20.0

>  <Num_Not_Resolved_Atoms>  (35) 
0.0

>  <2D_Mol_H>  (35) 
<rdkit.Chem.rdchem.Mol object at 0x72a238dc45f0>

>  <MW>  (35) 
294.4

>  <HBA>  (35) 
3

>  <HBD>  (35) 
2

>  <LogP>  (35) 
0.4865

>  <NRB>  (35) 
8

>  <TPSA>  (35) 
75.67

>  <Num_Heavy_Atoms>  (35) 
20

>  <Ro5>  (35) 
[True, True, True, True, True, True]

>  <Ro5_Fulfilled>  (35) 
True

>  <Ro3>  (35) 
[True, True, True, True]

>  <Ro3_Fulfilled>  (35) 
True

>  <Fsp3>  (35) 
0.357143

>  <Fsp3_0.42>  (35) 
False

>  <Fsp3_0.45>  (35) 
False

>  <Stereogenic_Carbons>  (35) 
0

>  <C_Atoms>  (35) 
14

>  <FCStereo>  (35) 
0.0

>  <SPS>  (35) 
237

>  <nSPS>  (35) 
11.85

>  <PBF>  (35) 
1.020795

>  <PBF_0.6>  (35) 
True

>  <nPBF>  (35) 
0.05104

>  <nPBF_0.016>  (35) 
True

>  <PMI1>  (35) 
1147.673346

>  <PMI2>  (35) 
2911.439677

>  <PMI3>  (35) 
3430.2569

>  <NPR1>  (35) 
0.334574

>  <NPR2>  (35) 
0.848753

>  <Sum_NPR>  (35) 
1.183326

>  <Sum_NPR_1.07>  (35) 
True

>  <Sum_NPR_1.2>  (35) 
False

>  <MaxAbsEStateIndex>  (35) 
12.333442

>  <MaxEStateIndex>  (35) 
12.333442

>  <MinAbsEStateIndex>  (35) 
0.312863

>  <MinEStateIndex>  (35) 
-3.471841

>  <qed>  (35) 
0.72965

>  <MolWt>  (35) 
294.4

>  <HeavyAtomMolWt>  (35) 
274.24

>  <ExactMolWt>  (35) 
294.127074

>  <NumValenceElectrons>  (35) 
108

>  <NumRadicalElectrons>  (35) 
0

>  <MaxPartialCharge>  (35) 
0.240888

>  <MinPartialCharge>  (35) 
-0.345177

>  <MaxAbsPartialCharge>  (35) 
0.345177

>  <MinAbsPartialCharge>  (35) 
0.240888

>  <FpDensityMorgan1>  (35) 
1.25

>  <FpDensityMorgan2>  (35) 
2.1

>  <FpDensityMorgan3>  (35) 
2.9

>  <BCUT2D_MWHI>  (35) 
32.233271

>  <BCUT2D_MWLOW>  (35) 
10.168345

>  <BCUT2D_CHGHI>  (35) 
2.160755

>  <BCUT2D_CHGLO>  (35) 
-2.08476

>  <BCUT2D_LOGPHI>  (35) 
2.209221

>  <BCUT2D_LOGPLOW>  (35) 
-2.852126

>  <BCUT2D_MRHI>  (35) 
7.893356

>  <BCUT2D_MRLOW>  (35) 
-0.652241

>  <AvgIpc>  (35) 
2.461221

>  <BalabanJ>  (35) 
2.153688

>  <BertzCT>  (35) 
665.678281

>  <Chi0>  (35) 
14.424439

>  <Chi0n>  (35) 
11.541837

>  <Chi0v>  (35) 
12.358334

>  <Chi1>  (35) 
9.648995

>  <Chi1n>  (35) 
6.789837

>  <Chi1v>  (35) 
8.273

>  <Chi2n>  (35) 
4.616759

>  <Chi2v>  (35) 
6.352135

>  <Chi3n>  (35) 
3.063594

>  <Chi3v>  (35) 
4.582783

>  <Chi4n>  (35) 
2.04873

>  <Chi4v>  (35) 
3.323939

>  <HallKierAlpha>  (35) 
-1.5

>  <Ipc>  (35) 
35727.090436

>  <Kappa1>  (35) 
14.899737

>  <Kappa2>  (35) 
6.784443

>  <Kappa3>  (35) 
3.532301

>  <LabuteASA>  (35) 
119.017926

>  <PEOE_VSA1>  (35) 
5.316789

>  <PEOE_VSA10>  (35) 
0.0

>  <PEOE_VSA11>  (35) 
0.0

>  <PEOE_VSA12>  (35) 
10.023291

>  <PEOE_VSA13>  (35) 
0.0

>  <PEOE_VSA14>  (35) 
0.0

>  <PEOE_VSA2>  (35) 
4.983979

>  <PEOE_VSA3>  (35) 
13.139892

>  <PEOE_VSA4>  (35) 
0.0

>  <PEOE_VSA5>  (35) 
0.0

>  <PEOE_VSA6>  (35) 
19.056471

>  <PEOE_VSA7>  (35) 
18.553556

>  <PEOE_VSA8>  (35) 
23.166136

>  <PEOE_VSA9>  (35) 
24.529753

>  <SMR_VSA1>  (35) 
13.734586

>  <SMR_VSA10>  (35) 
20.79574

>  <SMR_VSA2>  (35) 
0.0

>  <SMR_VSA3>  (35) 
9.706073

>  <SMR_VSA4>  (35) 
0.0

>  <SMR_VSA5>  (35) 
18.240042

>  <SMR_VSA6>  (35) 
19.634269

>  <SMR_VSA7>  (35) 
36.659155

>  <SMR_VSA8>  (35) 
0.0

>  <SMR_VSA9>  (35) 
0.0

>  <SlogP_VSA1>  (35) 
10.038883

>  <SlogP_VSA10>  (35) 
0.0

>  <SlogP_VSA11>  (35) 
0.0

>  <SlogP_VSA12>  (35) 
0.0

>  <SlogP_VSA2>  (35) 
33.036045

>  <SlogP_VSA3>  (35) 
10.023291

>  <SlogP_VSA4>  (35) 
0.0

>  <SlogP_VSA5>  (35) 
13.344559

>  <SlogP_VSA6>  (35) 
41.554639

>  <SlogP_VSA7>  (35) 
0.0

>  <SlogP_VSA8>  (35) 
10.772448

>  <SlogP_VSA9>  (35) 
0.0

>  <EState_VSA1>  (35) 
10.023291

>  <EState_VSA10>  (35) 
8.417797

>  <EState_VSA11>  (35) 
0.0

>  <EState_VSA2>  (35) 
0.0

>  <EState_VSA3>  (35) 
16.826464

>  <EState_VSA4>  (35) 
24.896559

>  <EState_VSA5>  (35) 
0.0

>  <EState_VSA6>  (35) 
30.592788

>  <EState_VSA7>  (35) 
6.066367

>  <EState_VSA8>  (35) 
21.946599

>  <EState_VSA9>  (35) 
0.0

>  <VSA_EState1>  (35) 
27.313781

>  <VSA_EState10>  (35) 
0.0

>  <VSA_EState2>  (35) 
4.324562

>  <VSA_EState3>  (35) 
3.634889

>  <VSA_EState4>  (35) 
0.0

>  <VSA_EState5>  (35) 
0.0

>  <VSA_EState6>  (35) 
6.950092

>  <VSA_EState7>  (35) 
4.36392

>  <VSA_EState8>  (35) 
4.301264

>  <VSA_EState9>  (35) 
-3.471841

>  <FractionCSP3>  (35) 
0.357143

>  <HeavyAtomCount>  (35) 
20

>  <NHOHCount>  (35) 
3

>  <NOCount>  (35) 
5

>  <NumAliphaticCarbocycles>  (35) 
0

>  <NumAliphaticHeterocycles>  (35) 
0

>  <NumAliphaticRings>  (35) 
0

>  <NumAromaticCarbocycles>  (35) 
1

>  <NumAromaticHeterocycles>  (35) 
1

>  <NAR>  (35) 
2

>  <NumHAcceptors>  (35) 
3

>  <NumHDonors>  (35) 
2

>  <NumHeteroatoms>  (35) 
6

>  <NumRotatableBonds>  (35) 
7

>  <NumSaturatedCarbocycles>  (35) 
0

>  <NumSaturatedHeterocycles>  (35) 
0

>  <NumSaturatedRings>  (35) 
0

>  <RingCount>  (35) 
2

>  <MolLogP>  (35) 
0.4865

>  <MolMR>  (35) 
78.8819

>  <fr_Al_COO>  (35) 
0

>  <fr_Al_OH>  (35) 
0

>  <fr_Al_OH_noTert>  (35) 
0

>  <fr_ArN>  (35) 
0

>  <fr_Ar_COO>  (35) 
0

>  <fr_Ar_N>  (35) 
1

>  <fr_Ar_NH>  (35) 
0

>  <fr_Ar_OH>  (35) 
0

>  <fr_COO>  (35) 
0

>  <fr_COO2>  (35) 
0

>  <fr_C_O>  (35) 
0

>  <fr_C_O_noCOO>  (35) 
0

>  <fr_C_S>  (35) 
0

>  <fr_HOCCN>  (35) 
0

>  <fr_Imine>  (35) 
0

>  <fr_NH0>  (35) 
1

>  <fr_NH1>  (35) 
1

>  <fr_NH2>  (35) 
1

>  <fr_N_O>  (35) 
0

>  <fr_Ndealkylation1>  (35) 
0

>  <fr_Ndealkylation2>  (35) 
0

>  <fr_Nhpyrrole>  (35) 
0

>  <fr_SH>  (35) 
0

>  <fr_aldehyde>  (35) 
0

>  <fr_alkyl_carbamate>  (35) 
0

>  <fr_alkyl_halide>  (35) 
0

>  <fr_allylic_oxid>  (35) 
0

>  <fr_amide>  (35) 
0

>  <fr_amidine>  (35) 
0

>  <fr_aniline>  (35) 
0

>  <fr_aryl_methyl>  (35) 
0

>  <fr_azide>  (35) 
0

>  <fr_azo>  (35) 
0

>  <fr_barbitur>  (35) 
0

>  <fr_benzene>  (35) 
1

>  <fr_benzodiazepine>  (35) 
0

>  <fr_bicyclic>  (35) 
1

>  <fr_diazo>  (35) 
0

>  <fr_dihydropyridine>  (35) 
0

>  <fr_epoxide>  (35) 
0

>  <fr_ester>  (35) 
0

>  <fr_ether>  (35) 
0

>  <fr_furan>  (35) 
0

>  <fr_guanido>  (35) 
0

>  <fr_halogen>  (35) 
0

>  <fr_hdrzine>  (35) 
0

>  <fr_hdrzone>  (35) 
0

>  <fr_imidazole>  (35) 
0

>  <fr_imide>  (35) 
0

>  <fr_isocyan>  (35) 
0

>  <fr_isothiocyan>  (35) 
0

>  <fr_ketone>  (35) 
0

>  <fr_ketone_Topliss>  (35) 
0

>  <fr_lactam>  (35) 
0

>  <fr_lactone>  (35) 
0

>  <fr_methoxy>  (35) 
0

>  <fr_morpholine>  (35) 
0

>  <fr_nitrile>  (35) 
0

>  <fr_nitro>  (35) 
0

>  <fr_nitro_arom>  (35) 
0

>  <fr_nitro_arom_nonortho>  (35) 
0

>  <fr_nitroso>  (35) 
0

>  <fr_oxazole>  (35) 
0

>  <fr_oxime>  (35) 
0

>  <fr_para_hydroxylation>  (35) 
0

>  <fr_phenol>  (35) 
0

>  <fr_phenol_noOrthoHbond>  (35) 
0

>  <fr_phos_acid>  (35) 
0

>  <fr_phos_ester>  (35) 
0

>  <fr_piperdine>  (35) 
0

>  <fr_piperzine>  (35) 
0

>  <fr_priamide>  (35) 
0

>  <fr_prisulfonamd>  (35) 
0

>  <fr_pyridine>  (35) 
1

>  <fr_quatN>  (35) 
1

>  <fr_sulfide>  (35) 
0

>  <fr_sulfonamd>  (35) 
1

>  <fr_sulfone>  (35) 
0

>  <fr_term_acetylene>  (35) 
0

>  <fr_tetrazole>  (35) 
0

>  <fr_thiazole>  (35) 
0

>  <fr_thiocyan>  (35) 
0

>  <fr_thiophene>  (35) 
0

>  <fr_unbrch_alkane>  (35) 
0

>  <fr_urea>  (35) 
0

>  <NP-Likeness>  (35) 
-1.266721

$$$$
6TV
     RDKit          3D

  0  0  0  0  0  0  0  0  0  0999 V3000
M  V30 BEGIN CTAB
M  V30 COUNTS 40 41 0 0 0
M  V30 BEGIN ATOM
M  V30 1 C -0.867645 -3.368883 2.881635 0
M  V30 2 N -0.029772 -4.355828 3.189101 0
M  V30 3 C 0.781785 -4.936852 2.275015 0
M  V30 4 C 0.703214 -4.450873 0.974364 0
M  V30 5 C 1.526805 -5.038994 0.042021 0
M  V30 6 C 1.477815 -4.583748 -1.260804 0
M  V30 7 C 0.632803 -3.560265 -1.661890 0
M  V30 8 C -0.193527 -2.977674 -0.702202 0
M  V30 9 S -1.281069 -1.681955 -1.148486 0
M  V30 10 O -1.157512 -1.423397 -2.621509 0
M  V30 11 O -2.695767 -2.099559 -0.876763 0
M  V30 12 N -0.892706 -0.251360 -0.222846 0
M  V30 13 C 0.439257 0.194950 -0.496089 0
M  V30 14 C 0.798795 1.434346 0.295281 0
M  V30 15 N -0.035051 2.563251 0.043684 0 CHG=1 VAL=4
M  V30 16 C -0.209079 3.292367 1.294508 0
M  V30 17 C 1.111804 3.692234 1.884290 0
M  V30 18 C 0.981119 4.444816 3.172235 0
M  V30 19 C -0.144505 -3.433536 0.602500 0
M  V30 20 C -0.936402 -2.894693 1.585363 0
M  V30 21 H -1.474934 -2.966007 3.668843 0
M  V30 22 H 1.458741 -5.740751 2.544532 0
M  V30 23 H 2.189361 -5.828686 0.315241 0
M  V30 24 H 2.141162 -5.072617 -1.962671 0
M  V30 25 H 0.632197 -3.239274 -2.697233 0
M  V30 26 H -1.619572 0.447045 -0.425755 0
M  V30 27 H 1.134413 -0.598354 -0.093562 0
M  V30 28 H 0.668748 0.304569 -1.571829 0
M  V30 29 H 0.653536 1.131672 1.365960 0
M  V30 30 H 1.846491 1.708240 0.095216 0
M  V30 31 H 0.469739 3.252048 -0.590736 0
M  V30 32 H -0.926243 2.364561 -0.421044 0
M  V30 33 H -0.814451 4.209459 1.078650 0
M  V30 34 H -0.812248 2.666719 1.979451 0
M  V30 35 H 1.624159 4.361156 1.167596 0
M  V30 36 H 1.691402 2.765239 2.085746 0
M  V30 37 H 0.015610 4.250132 3.687066 0
M  V30 38 H 1.159707 5.538273 3.033331 0
M  V30 39 H 1.770483 4.121773 3.884512 0
M  V30 40 H -1.615184 -2.087988 1.313108 0
M  V30 END ATOM
M  V30 BEGIN BOND
M  V30 1 2 1 2
M  V30 2 1 2 3
M  V30 3 2 3 4
M  V30 4 1 4 5
M  V30 5 2 5 6
M  V30 6 1 6 7
M  V30 7 2 7 8
M  V30 8 1 8 9
M  V30 9 2 9 10
M  V30 10 2 9 11
M  V30 11 1 9 12
M  V30 12 1 12 13
M  V30 13 1 13 14
M  V30 14 1 14 15
M  V30 15 1 15 16
M  V30 16 1 16 17
M  V30 17 1 17 18
M  V30 18 1 8 19
M  V30 19 2 19 20
M  V30 20 1 20 1
M  V30 21 1 19 4
M  V30 22 1 1 21
M  V30 23 1 3 22
M  V30 24 1 5 23
M  V30 25 1 6 24
M  V30 26 1 7 25
M  V30 27 1 12 26
M  V30 28 1 13 27
M  V30 29 1 13 28
M  V30 30 1 14 29
M  V30 31 1 14 30
M  V30 32 1 15 31
M  V30 33 1 15 32
M  V30 34 1 16 33
M  V30 35 1 16 34
M  V30 36 1 17 35
M  V30 37 1 17 36
M  V30 38 1 18 37
M  V30 39 1 18 38
M  V30 40 1 18 39
M  V30 41 1 20 40
M  V30 END BOND
M  V30 END CTAB
M  END
>  <Dataset>  (36) 
PDB

>  <Ligand_Instance>  (36) 
6YQI_6TV_A_401

>  <PDB_ID>  (36) 
6YQI

>  <Standardized_SMILES>  (36) 
[H]C1=NC([H])=C2C([H])=C([H])C([H])=C(S(=O)(=O)N([H])C([H])([H])C([H])([H])[N+]([H])([H])C([H])([H])C([H])([H])C([H])([H])[H])C2=C1[H]

>  <Name>  (36) 
~{N}-[2-(propylamino)ethyl]isoquinoline-5-sulfonamide

>  <Pocket>  (36) 
A

>  <ATP_Site>  (36) 
1.0

>  <Peripheral>  (36) 
0.0

>  <Num_H_Atoms_ProtBoundConf>  (36) 
20.0

>  <Num_Resolved_Atoms>  (36) 
20.0

>  <Num_Not_Resolved_Atoms>  (36) 
0.0

>  <2D_Mol_H>  (36) 
<rdkit.Chem.rdchem.Mol object at 0x72a238dc46d0>

>  <MW>  (36) 
294.4

>  <HBA>  (36) 
3

>  <HBD>  (36) 
2

>  <LogP>  (36) 
0.4865

>  <NRB>  (36) 
8

>  <TPSA>  (36) 
75.67

>  <Num_Heavy_Atoms>  (36) 
20

>  <Ro5>  (36) 
[True, True, True, True, True, True]

>  <Ro5_Fulfilled>  (36) 
True

>  <Ro3>  (36) 
[True, True, True, True]

>  <Ro3_Fulfilled>  (36) 
True

>  <Fsp3>  (36) 
0.357143

>  <Fsp3_0.42>  (36) 
False

>  <Fsp3_0.45>  (36) 
False

>  <Stereogenic_Carbons>  (36) 
0

>  <C_Atoms>  (36) 
14

>  <FCStereo>  (36) 
0.0

>  <SPS>  (36) 
237

>  <nSPS>  (36) 
11.85

>  <PBF>  (36) 
1.020795

>  <PBF_0.6>  (36) 
True

>  <nPBF>  (36) 
0.05104

>  <nPBF_0.016>  (36) 
True

>  <PMI1>  (36) 
1147.673346

>  <PMI2>  (36) 
2911.439677

>  <PMI3>  (36) 
3430.2569

>  <NPR1>  (36) 
0.334574

>  <NPR2>  (36) 
0.848753

>  <Sum_NPR>  (36) 
1.183326

>  <Sum_NPR_1.07>  (36) 
True

>  <Sum_NPR_1.2>  (36) 
False

>  <MaxAbsEStateIndex>  (36) 
12.333442

>  <MaxEStateIndex>  (36) 
12.333442

>  <MinAbsEStateIndex>  (36) 
0.312863

>  <MinEStateIndex>  (36) 
-3.471841

>  <qed>  (36) 
0.72965

>  <MolWt>  (36) 
294.4

>  <HeavyAtomMolWt>  (36) 
274.24

>  <ExactMolWt>  (36) 
294.127074

>  <NumValenceElectrons>  (36) 
108

>  <NumRadicalElectrons>  (36) 
0

>  <MaxPartialCharge>  (36) 
0.240888

>  <MinPartialCharge>  (36) 
-0.345177

>  <MaxAbsPartialCharge>  (36) 
0.345177

>  <MinAbsPartialCharge>  (36) 
0.240888

>  <FpDensityMorgan1>  (36) 
1.25

>  <FpDensityMorgan2>  (36) 
2.1

>  <FpDensityMorgan3>  (36) 
2.9

>  <BCUT2D_MWHI>  (36) 
32.233271

>  <BCUT2D_MWLOW>  (36) 
10.168345

>  <BCUT2D_CHGHI>  (36) 
2.160755

>  <BCUT2D_CHGLO>  (36) 
-2.08476

>  <BCUT2D_LOGPHI>  (36) 
2.209221

>  <BCUT2D_LOGPLOW>  (36) 
-2.852126

>  <BCUT2D_MRHI>  (36) 
7.893356

>  <BCUT2D_MRLOW>  (36) 
-0.652241

>  <AvgIpc>  (36) 
2.461221

>  <BalabanJ>  (36) 
2.153688

>  <BertzCT>  (36) 
665.678281

>  <Chi0>  (36) 
14.424439

>  <Chi0n>  (36) 
11.541837

>  <Chi0v>  (36) 
12.358334

>  <Chi1>  (36) 
9.648995

>  <Chi1n>  (36) 
6.789837

>  <Chi1v>  (36) 
8.273

>  <Chi2n>  (36) 
4.616759

>  <Chi2v>  (36) 
6.352135

>  <Chi3n>  (36) 
3.063594

>  <Chi3v>  (36) 
4.582783

>  <Chi4n>  (36) 
2.04873

>  <Chi4v>  (36) 
3.323939

>  <HallKierAlpha>  (36) 
-1.5

>  <Ipc>  (36) 
35727.090436

>  <Kappa1>  (36) 
14.899737

>  <Kappa2>  (36) 
6.784443

>  <Kappa3>  (36) 
3.532301

>  <LabuteASA>  (36) 
119.017926

>  <PEOE_VSA1>  (36) 
5.316789

>  <PEOE_VSA10>  (36) 
0.0

>  <PEOE_VSA11>  (36) 
0.0

>  <PEOE_VSA12>  (36) 
10.023291

>  <PEOE_VSA13>  (36) 
0.0

>  <PEOE_VSA14>  (36) 
0.0

>  <PEOE_VSA2>  (36) 
4.983979

>  <PEOE_VSA3>  (36) 
13.139892

>  <PEOE_VSA4>  (36) 
0.0

>  <PEOE_VSA5>  (36) 
0.0

>  <PEOE_VSA6>  (36) 
19.056471

>  <PEOE_VSA7>  (36) 
18.553556

>  <PEOE_VSA8>  (36) 
23.166136

>  <PEOE_VSA9>  (36) 
24.529753

>  <SMR_VSA1>  (36) 
13.734586

>  <SMR_VSA10>  (36) 
20.79574

>  <SMR_VSA2>  (36) 
0.0

>  <SMR_VSA3>  (36) 
9.706073

>  <SMR_VSA4>  (36) 
0.0

>  <SMR_VSA5>  (36) 
18.240042

>  <SMR_VSA6>  (36) 
19.634269

>  <SMR_VSA7>  (36) 
36.659155

>  <SMR_VSA8>  (36) 
0.0

>  <SMR_VSA9>  (36) 
0.0

>  <SlogP_VSA1>  (36) 
10.038883

>  <SlogP_VSA10>  (36) 
0.0

>  <SlogP_VSA11>  (36) 
0.0

>  <SlogP_VSA12>  (36) 
0.0

>  <SlogP_VSA2>  (36) 
33.036045

>  <SlogP_VSA3>  (36) 
10.023291

>  <SlogP_VSA4>  (36) 
0.0

>  <SlogP_VSA5>  (36) 
13.344559

>  <SlogP_VSA6>  (36) 
41.554639

>  <SlogP_VSA7>  (36) 
0.0

>  <SlogP_VSA8>  (36) 
10.772448

>  <SlogP_VSA9>  (36) 
0.0

>  <EState_VSA1>  (36) 
10.023291

>  <EState_VSA10>  (36) 
8.417797

>  <EState_VSA11>  (36) 
0.0

>  <EState_VSA2>  (36) 
0.0

>  <EState_VSA3>  (36) 
16.826464

>  <EState_VSA4>  (36) 
24.896559

>  <EState_VSA5>  (36) 
0.0

>  <EState_VSA6>  (36) 
30.592788

>  <EState_VSA7>  (36) 
6.066367

>  <EState_VSA8>  (36) 
21.946599

>  <EState_VSA9>  (36) 
0.0

>  <VSA_EState1>  (36) 
27.313781

>  <VSA_EState10>  (36) 
0.0

>  <VSA_EState2>  (36) 
4.324562

>  <VSA_EState3>  (36) 
3.634889

>  <VSA_EState4>  (36) 
0.0

>  <VSA_EState5>  (36) 
0.0

>  <VSA_EState6>  (36) 
6.950092

>  <VSA_EState7>  (36) 
4.36392

>  <VSA_EState8>  (36) 
4.301264

>  <VSA_EState9>  (36) 
-3.471841

>  <FractionCSP3>  (36) 
0.357143

>  <HeavyAtomCount>  (36) 
20

>  <NHOHCount>  (36) 
3

>  <NOCount>  (36) 
5

>  <NumAliphaticCarbocycles>  (36) 
0

>  <NumAliphaticHeterocycles>  (36) 
0

>  <NumAliphaticRings>  (36) 
0

>  <NumAromaticCarbocycles>  (36) 
1

>  <NumAromaticHeterocycles>  (36) 
1

>  <NAR>  (36) 
2

>  <NumHAcceptors>  (36) 
3

>  <NumHDonors>  (36) 
2

>  <NumHeteroatoms>  (36) 
6

>  <NumRotatableBonds>  (36) 
7

>  <NumSaturatedCarbocycles>  (36) 
0

>  <NumSaturatedHeterocycles>  (36) 
0

>  <NumSaturatedRings>  (36) 
0

>  <RingCount>  (36) 
2

>  <MolLogP>  (36) 
0.4865

>  <MolMR>  (36) 
78.8819

>  <fr_Al_COO>  (36) 
0

>  <fr_Al_OH>  (36) 
0

>  <fr_Al_OH_noTert>  (36) 
0

>  <fr_ArN>  (36) 
0

>  <fr_Ar_COO>  (36) 
0

>  <fr_Ar_N>  (36) 
1

>  <fr_Ar_NH>  (36) 
0

>  <fr_Ar_OH>  (36) 
0

>  <fr_COO>  (36) 
0

>  <fr_COO2>  (36) 
0

>  <fr_C_O>  (36) 
0

>  <fr_C_O_noCOO>  (36) 
0

>  <fr_C_S>  (36) 
0

>  <fr_HOCCN>  (36) 
0

>  <fr_Imine>  (36) 
0

>  <fr_NH0>  (36) 
1

>  <fr_NH1>  (36) 
1

>  <fr_NH2>  (36) 
1

>  <fr_N_O>  (36) 
0

>  <fr_Ndealkylation1>  (36) 
0

>  <fr_Ndealkylation2>  (36) 
0

>  <fr_Nhpyrrole>  (36) 
0

>  <fr_SH>  (36) 
0

>  <fr_aldehyde>  (36) 
0

>  <fr_alkyl_carbamate>  (36) 
0

>  <fr_alkyl_halide>  (36) 
0

>  <fr_allylic_oxid>  (36) 
0

>  <fr_amide>  (36) 
0

>  <fr_amidine>  (36) 
0

>  <fr_aniline>  (36) 
0

>  <fr_aryl_methyl>  (36) 
0

>  <fr_azide>  (36) 
0

>  <fr_azo>  (36) 
0

>  <fr_barbitur>  (36) 
0

>  <fr_benzene>  (36) 
1

>  <fr_benzodiazepine>  (36) 
0

>  <fr_bicyclic>  (36) 
1

>  <fr_diazo>  (36) 
0

>  <fr_dihydropyridine>  (36) 
0

>  <fr_epoxide>  (36) 
0

>  <fr_ester>  (36) 
0

>  <fr_ether>  (36) 
0

>  <fr_furan>  (36) 
0

>  <fr_guanido>  (36) 
0

>  <fr_halogen>  (36) 
0

>  <fr_hdrzine>  (36) 
0

>  <fr_hdrzone>  (36) 
0

>  <fr_imidazole>  (36) 
0

>  <fr_imide>  (36) 
0

>  <fr_isocyan>  (36) 
0

>  <fr_isothiocyan>  (36) 
0

>  <fr_ketone>  (36) 
0

>  <fr_ketone_Topliss>  (36) 
0

>  <fr_lactam>  (36) 
0

>  <fr_lactone>  (36) 
0

>  <fr_methoxy>  (36) 
0

>  <fr_morpholine>  (36) 
0

>  <fr_nitrile>  (36) 
0

>  <fr_nitro>  (36) 
0

>  <fr_nitro_arom>  (36) 
0

>  <fr_nitro_arom_nonortho>  (36) 
0

>  <fr_nitroso>  (36) 
0

>  <fr_oxazole>  (36) 
0

>  <fr_oxime>  (36) 
0

>  <fr_para_hydroxylation>  (36) 
0

>  <fr_phenol>  (36) 
0

>  <fr_phenol_noOrthoHbond>  (36) 
0

>  <fr_phos_acid>  (36) 
0

>  <fr_phos_ester>  (36) 
0

>  <fr_piperdine>  (36) 
0

>  <fr_piperzine>  (36) 
0

>  <fr_priamide>  (36) 
0

>  <fr_prisulfonamd>  (36) 
0

>  <fr_pyridine>  (36) 
1

>  <fr_quatN>  (36) 
1

>  <fr_sulfide>  (36) 
0

>  <fr_sulfonamd>  (36) 
1

>  <fr_sulfone>  (36) 
0

>  <fr_term_acetylene>  (36) 
0

>  <fr_tetrazole>  (36) 
0

>  <fr_thiazole>  (36) 
0

>  <fr_thiocyan>  (36) 
0

>  <fr_thiophene>  (36) 
0

>  <fr_unbrch_alkane>  (36) 
0

>  <fr_urea>  (36) 
0

>  <NP-Likeness>  (36) 
-1.266721

$$$$
6TX
     RDKit          3D

  0  0  0  0  0  0  0  0  0  0999 V3000
M  V30 BEGIN CTAB
M  V30 COUNTS 40 41 0 0 0
M  V30 BEGIN ATOM
M  V30 1 C -2.695976 -2.806502 0.414595 0
M  V30 2 N -2.624594 -4.069619 0.928674 0
M  V30 3 C -1.415098 -4.666742 1.112438 0
M  V30 4 C -0.210741 -4.030274 0.791252 0
M  V30 5 C 1.008854 -4.637353 0.949753 0
M  V30 6 C 2.159876 -3.975924 0.593738 0
M  V30 7 C 2.032533 -2.703454 0.083343 0
M  V30 8 C 0.829254 -2.001933 -0.113439 0
M  V30 9 S 0.848000 -0.381445 -0.689151 0
M  V30 10 O 2.250748 -0.155708 -1.276853 0
M  V30 11 O -0.013387 -0.221330 -1.942579 0
M  V30 12 N 0.570341 0.867503 0.347739 0
M  V30 13 C -0.581663 1.079490 1.073239 0
M  V30 14 C -1.666534 1.774384 0.273629 0
M  V30 15 C -2.853926 1.930886 1.207096 0
M  V30 16 C 1.629549 1.827309 0.510071 0
M  V30 17 C 2.594132 1.478364 1.622945 0
M  V30 18 N 3.615619 2.525462 1.683739 0 CHG=1 VAL=4
M  V30 19 C -0.246452 -2.765881 0.276357 0
M  V30 20 C -1.487447 -2.215240 0.111964 0
M  V30 21 H -3.642661 -2.307598 0.257395 0
M  V30 22 H -1.368050 -5.663159 1.518152 0
M  V30 23 H 1.058838 -5.636070 1.355125 0
M  V30 24 H 3.130723 -4.430069 0.706927 0
M  V30 25 H 2.964190 -2.215117 -0.185743 0
M  V30 26 H -1.007532 0.164456 1.503262 0
M  V30 27 H -0.442960 1.795469 1.958430 0
M  V30 28 H -1.322946 2.831941 0.082437 0
M  V30 29 H -1.920368 1.275958 -0.660906 0
M  V30 30 H -2.791867 2.831552 1.838483 0
M  V30 31 H -3.750053 1.942354 0.542663 0
M  V30 32 H -2.923953 0.983341 1.788688 0
M  V30 33 H 2.211897 1.847180 -0.433825 0
M  V30 34 H 1.209037 2.838657 0.664252 0
M  V30 35 H 3.065971 0.495543 1.419251 0
M  V30 36 H 2.022992 1.475984 2.564936 0
M  V30 37 H 3.202285 3.400929 1.304842 0
M  V30 38 H 4.459515 2.215208 1.145827 0
M  V30 39 H 3.880429 2.678966 2.684144 0
M  V30 40 H -1.575095 -1.225964 -0.307061 0
M  V30 END ATOM
M  V30 BEGIN BOND
M  V30 1 2 1 2
M  V30 2 1 2 3
M  V30 3 2 3 4
M  V30 4 1 4 5
M  V30 5 2 5 6
M  V30 6 1 6 7
M  V30 7 2 7 8
M  V30 8 1 8 9
M  V30 9 2 9 10
M  V30 10 2 9 11
M  V30 11 1 9 12
M  V30 12 1 12 13
M  V30 13 1 13 14
M  V30 14 1 14 15
M  V30 15 1 12 16
M  V30 16 1 16 17
M  V30 17 1 17 18
M  V30 18 1 8 19
M  V30 19 2 19 20
M  V30 20 1 20 1
M  V30 21 1 19 4
M  V30 22 1 1 21
M  V30 23 1 3 22
M  V30 24 1 5 23
M  V30 25 1 6 24
M  V30 26 1 7 25
M  V30 27 1 13 26
M  V30 28 1 13 27
M  V30 29 1 14 28
M  V30 30 1 14 29
M  V30 31 1 15 30
M  V30 32 1 15 31
M  V30 33 1 15 32
M  V30 34 1 16 33
M  V30 35 1 16 34
M  V30 36 1 17 35
M  V30 37 1 17 36
M  V30 38 1 18 37
M  V30 39 1 18 38
M  V30 40 1 18 39
M  V30 41 1 20 40
M  V30 END BOND
M  V30 END CTAB
M  END
>  <Dataset>  (37) 
PDB

>  <Ligand_Instance>  (37) 
5LCR_6TX_A_401

>  <PDB_ID>  (37) 
5LCR

>  <Standardized_SMILES>  (37) 
[H]C1=NC([H])=C2C([H])=C([H])C([H])=C(S(=O)(=O)N(C([H])([H])C([H])([H])C([H])([H])[H])C([H])([H])C([H])([H])[N+]([H])([H])[H])C2=C1[H]

>  <Name>  (37) 
2-[isoquinolin-5-ylsulfonyl(propyl)amino]ethylazanium

>  <Pocket>  (37) 
A

>  <ATP_Site>  (37) 
1.0

>  <Peripheral>  (37) 
0.0

>  <Num_H_Atoms_ProtBoundConf>  (37) 
20.0

>  <Num_Resolved_Atoms>  (37) 
20.0

>  <Num_Not_Resolved_Atoms>  (37) 
0.0

>  <2D_Mol_H>  (37) 
<rdkit.Chem.rdchem.Mol object at 0x72a238dc47b0>

>  <MW>  (37) 
294.4

>  <HBA>  (37) 
3

>  <HBD>  (37) 
1

>  <LogP>  (37) 
0.8774

>  <NRB>  (37) 
8

>  <TPSA>  (37) 
77.91

>  <Num_Heavy_Atoms>  (37) 
20

>  <Ro5>  (37) 
[True, True, True, True, True, True]

>  <Ro5_Fulfilled>  (37) 
True

>  <Ro3>  (37) 
[True, True, True, True]

>  <Ro3_Fulfilled>  (37) 
True

>  <Fsp3>  (37) 
0.357143

>  <Fsp3_0.42>  (37) 
False

>  <Fsp3_0.45>  (37) 
False

>  <Stereogenic_Carbons>  (37) 
0

>  <C_Atoms>  (37) 
14

>  <FCStereo>  (37) 
0.0

>  <SPS>  (37) 
243

>  <nSPS>  (37) 
12.15

>  <PBF>  (37) 
0.752519

>  <PBF_0.6>  (37) 
True

>  <nPBF>  (37) 
0.037626

>  <nPBF_0.016>  (37) 
True

>  <PMI1>  (37) 
1166.197296

>  <PMI2>  (37) 
2067.880074

>  <PMI3>  (37) 
2695.273127

>  <NPR1>  (37) 
0.432682

>  <NPR2>  (37) 
0.767225

>  <Sum_NPR>  (37) 
1.199907

>  <Sum_NPR_1.07>  (37) 
True

>  <Sum_NPR_1.2>  (37) 
False

>  <MaxAbsEStateIndex>  (37) 
12.803947

>  <MaxEStateIndex>  (37) 
12.803947

>  <MinAbsEStateIndex>  (37) 
0.346574

>  <MinEStateIndex>  (37) 
-3.486412

>  <qed>  (37) 
0.858693

>  <MolWt>  (37) 
294.4

>  <HeavyAtomMolWt>  (37) 
274.24

>  <ExactMolWt>  (37) 
294.127074

>  <NumValenceElectrons>  (37) 
108

>  <NumRadicalElectrons>  (37) 
0

>  <MaxPartialCharge>  (37) 
0.243393

>  <MinPartialCharge>  (37) 
-0.356467

>  <MaxAbsPartialCharge>  (37) 
0.356467

>  <MinAbsPartialCharge>  (37) 
0.243393

>  <FpDensityMorgan1>  (37) 
1.25

>  <FpDensityMorgan2>  (37) 
2.05

>  <FpDensityMorgan3>  (37) 
2.75

>  <BCUT2D_MWHI>  (37) 
32.233427

>  <BCUT2D_MWLOW>  (37) 
10.168307

>  <BCUT2D_CHGHI>  (37) 
2.248395

>  <BCUT2D_CHGLO>  (37) 
-2.205334

>  <BCUT2D_LOGPHI>  (37) 
2.245243

>  <BCUT2D_LOGPLOW>  (37) 
-2.552775

>  <BCUT2D_MRHI>  (37) 
7.889635

>  <BCUT2D_MRLOW>  (37) 
-0.36689

>  <AvgIpc>  (37) 
2.460858

>  <BalabanJ>  (37) 
2.555317

>  <BertzCT>  (37) 
674.383424

>  <Chi0>  (37) 
14.587576

>  <Chi0n>  (37) 
11.618808

>  <Chi0v>  (37) 
12.435304

>  <Chi1>  (37) 
9.60772

>  <Chi1n>  (37) 
6.730692

>  <Chi1v>  (37) 
8.170756

>  <Chi2n>  (37) 
4.610599

>  <Chi2v>  (37) 
6.516956

>  <Chi3n>  (37) 
3.139083

>  <Chi3v>  (37) 
5.095876

>  <Chi4n>  (37) 
2.23477

>  <Chi4v>  (37) 
4.019667

>  <HallKierAlpha>  (37) 
-1.5

>  <Ipc>  (37) 
34048.426157

>  <Kappa1>  (37) 
14.899737

>  <Kappa2>  (37) 
6.3

>  <Kappa3>  (37) 
2.818933

>  <LabuteASA>  (37) 
119.017926

>  <PEOE_VSA1>  (37) 
5.733667

>  <PEOE_VSA10>  (37) 
0.0

>  <PEOE_VSA11>  (37) 
0.0

>  <PEOE_VSA12>  (37) 
10.023291

>  <PEOE_VSA13>  (37) 
0.0

>  <PEOE_VSA14>  (37) 
0.0

>  <PEOE_VSA2>  (37) 
4.983979

>  <PEOE_VSA3>  (37) 
8.417797

>  <PEOE_VSA4>  (37) 
4.305216

>  <PEOE_VSA5>  (37) 
0.0

>  <PEOE_VSA6>  (37) 
19.056471

>  <PEOE_VSA7>  (37) 
18.553556

>  <PEOE_VSA8>  (37) 
29.710892

>  <PEOE_VSA9>  (37) 
17.984996

>  <SMR_VSA1>  (37) 
14.151464

>  <SMR_VSA10>  (37) 
20.79574

>  <SMR_VSA2>  (37) 
0.0

>  <SMR_VSA3>  (37) 
9.289195

>  <SMR_VSA4>  (37) 
0.0

>  <SMR_VSA5>  (37) 
18.240042

>  <SMR_VSA6>  (37) 
19.634269

>  <SMR_VSA7>  (37) 
36.659155

>  <SMR_VSA8>  (37) 
0.0

>  <SMR_VSA9>  (37) 
0.0

>  <SlogP_VSA1>  (37) 
5.733667

>  <SlogP_VSA10>  (37) 
0.0

>  <SlogP_VSA11>  (37) 
0.0

>  <SlogP_VSA12>  (37) 
0.0

>  <SlogP_VSA2>  (37) 
37.341261

>  <SlogP_VSA3>  (37) 
10.023291

>  <SlogP_VSA4>  (37) 
0.0

>  <SlogP_VSA5>  (37) 
13.344559

>  <SlogP_VSA6>  (37) 
41.554639

>  <SlogP_VSA7>  (37) 
0.0

>  <SlogP_VSA8>  (37) 
10.772448

>  <SlogP_VSA9>  (37) 
0.0

>  <EState_VSA1>  (37) 
10.023291

>  <EState_VSA10>  (37) 
8.417797

>  <EState_VSA11>  (37) 
0.0

>  <EState_VSA2>  (37) 
0.0

>  <EState_VSA3>  (37) 
29.915977

>  <EState_VSA4>  (37) 
11.807046

>  <EState_VSA5>  (37) 
4.305216

>  <EState_VSA6>  (37) 
30.592788

>  <EState_VSA7>  (37) 
12.990104

>  <EState_VSA8>  (37) 
10.717646

>  <EState_VSA9>  (37) 
0.0

>  <VSA_EState1>  (37) 
27.117024

>  <VSA_EState10>  (37) 
0.0

>  <VSA_EState2>  (37) 
4.381703

>  <VSA_EState3>  (37) 
1.548437

>  <VSA_EState4>  (37) 
3.761129

>  <VSA_EState5>  (37) 
0.0

>  <VSA_EState6>  (37) 
7.025855

>  <VSA_EState7>  (37) 
4.081679

>  <VSA_EState8>  (37) 
3.487252

>  <VSA_EState9>  (37) 
-3.486412

>  <FractionCSP3>  (37) 
0.357143

>  <HeavyAtomCount>  (37) 
20

>  <NHOHCount>  (37) 
3

>  <NOCount>  (37) 
5

>  <NumAliphaticCarbocycles>  (37) 
0

>  <NumAliphaticHeterocycles>  (37) 
0

>  <NumAliphaticRings>  (37) 
0

>  <NumAromaticCarbocycles>  (37) 
1

>  <NumAromaticHeterocycles>  (37) 
1

>  <NAR>  (37) 
2

>  <NumHAcceptors>  (37) 
3

>  <NumHDonors>  (37) 
1

>  <NumHeteroatoms>  (37) 
6

>  <NumRotatableBonds>  (37) 
6

>  <NumSaturatedCarbocycles>  (37) 
0

>  <NumSaturatedHeterocycles>  (37) 
0

>  <NumSaturatedRings>  (37) 
0

>  <RingCount>  (37) 
2

>  <MolLogP>  (37) 
0.8774

>  <MolMR>  (37) 
78.5479

>  <fr_Al_COO>  (37) 
0

>  <fr_Al_OH>  (37) 
0

>  <fr_Al_OH_noTert>  (37) 
0

>  <fr_ArN>  (37) 
0

>  <fr_Ar_COO>  (37) 
0

>  <fr_Ar_N>  (37) 
1

>  <fr_Ar_NH>  (37) 
0

>  <fr_Ar_OH>  (37) 
0

>  <fr_COO>  (37) 
0

>  <fr_COO2>  (37) 
0

>  <fr_C_O>  (37) 
0

>  <fr_C_O_noCOO>  (37) 
0

>  <fr_C_S>  (37) 
0

>  <fr_HOCCN>  (37) 
0

>  <fr_Imine>  (37) 
0

>  <fr_NH0>  (37) 
2

>  <fr_NH1>  (37) 
0

>  <fr_NH2>  (37) 
0

>  <fr_N_O>  (37) 
0

>  <fr_Ndealkylation1>  (37) 
0

>  <fr_Ndealkylation2>  (37) 
0

>  <fr_Nhpyrrole>  (37) 
0

>  <fr_SH>  (37) 
0

>  <fr_aldehyde>  (37) 
0

>  <fr_alkyl_carbamate>  (37) 
0

>  <fr_alkyl_halide>  (37) 
0

>  <fr_allylic_oxid>  (37) 
0

>  <fr_amide>  (37) 
0

>  <fr_amidine>  (37) 
0

>  <fr_aniline>  (37) 
0

>  <fr_aryl_methyl>  (37) 
0

>  <fr_azide>  (37) 
0

>  <fr_azo>  (37) 
0

>  <fr_barbitur>  (37) 
0

>  <fr_benzene>  (37) 
1

>  <fr_benzodiazepine>  (37) 
0

>  <fr_bicyclic>  (37) 
1

>  <fr_diazo>  (37) 
0

>  <fr_dihydropyridine>  (37) 
0

>  <fr_epoxide>  (37) 
0

>  <fr_ester>  (37) 
0

>  <fr_ether>  (37) 
0

>  <fr_furan>  (37) 
0

>  <fr_guanido>  (37) 
0

>  <fr_halogen>  (37) 
0

>  <fr_hdrzine>  (37) 
0

>  <fr_hdrzone>  (37) 
0

>  <fr_imidazole>  (37) 
0

>  <fr_imide>  (37) 
0

>  <fr_isocyan>  (37) 
0

>  <fr_isothiocyan>  (37) 
0

>  <fr_ketone>  (37) 
0

>  <fr_ketone_Topliss>  (37) 
0

>  <fr_lactam>  (37) 
0

>  <fr_lactone>  (37) 
0

>  <fr_methoxy>  (37) 
0

>  <fr_morpholine>  (37) 
0

>  <fr_nitrile>  (37) 
0

>  <fr_nitro>  (37) 
0

>  <fr_nitro_arom>  (37) 
0

>  <fr_nitro_arom_nonortho>  (37) 
0

>  <fr_nitroso>  (37) 
0

>  <fr_oxazole>  (37) 
0

>  <fr_oxime>  (37) 
0

>  <fr_para_hydroxylation>  (37) 
0

>  <fr_phenol>  (37) 
0

>  <fr_phenol_noOrthoHbond>  (37) 
0

>  <fr_phos_acid>  (37) 
0

>  <fr_phos_ester>  (37) 
0

>  <fr_piperdine>  (37) 
0

>  <fr_piperzine>  (37) 
0

>  <fr_priamide>  (37) 
0

>  <fr_prisulfonamd>  (37) 
0

>  <fr_pyridine>  (37) 
1

>  <fr_quatN>  (37) 
1

>  <fr_sulfide>  (37) 
0

>  <fr_sulfonamd>  (37) 
1

>  <fr_sulfone>  (37) 
0

>  <fr_term_acetylene>  (37) 
0

>  <fr_tetrazole>  (37) 
0

>  <fr_thiazole>  (37) 
0

>  <fr_thiocyan>  (37) 
0

>  <fr_thiophene>  (37) 
0

>  <fr_unbrch_alkane>  (37) 
0

>  <fr_urea>  (37) 
0

>  <NP-Likeness>  (37) 
-1.566217

$$$$
6TX
     RDKit          3D

  0  0  0  0  0  0  0  0  0  0999 V3000
M  V30 BEGIN CTAB
M  V30 COUNTS 40 41 0 0 0
M  V30 BEGIN ATOM
M  V30 1 C -2.695976 -2.806502 0.414595 0
M  V30 2 N -2.624594 -4.069619 0.928674 0
M  V30 3 C -1.415098 -4.666742 1.112438 0
M  V30 4 C -0.210741 -4.030274 0.791252 0
M  V30 5 C 1.008854 -4.637353 0.949753 0
M  V30 6 C 2.159876 -3.975924 0.593738 0
M  V30 7 C 2.032533 -2.703454 0.083343 0
M  V30 8 C 0.829254 -2.001933 -0.113439 0
M  V30 9 S 0.848000 -0.381445 -0.689151 0
M  V30 10 O 2.250748 -0.155708 -1.276853 0
M  V30 11 O -0.013387 -0.221330 -1.942579 0
M  V30 12 N 0.570341 0.867503 0.347739 0
M  V30 13 C -0.581663 1.079490 1.073239 0
M  V30 14 C -1.666534 1.774384 0.273629 0
M  V30 15 C -2.853926 1.930886 1.207096 0
M  V30 16 C 1.629549 1.827309 0.510071 0
M  V30 17 C 2.594132 1.478364 1.622945 0
M  V30 18 N 3.615619 2.525462 1.683739 0 CHG=1 VAL=4
M  V30 19 C -0.246452 -2.765881 0.276357 0
M  V30 20 C -1.487447 -2.215240 0.111964 0
M  V30 21 H -3.642661 -2.307598 0.257395 0
M  V30 22 H -1.368050 -5.663159 1.518152 0
M  V30 23 H 1.058838 -5.636070 1.355125 0
M  V30 24 H 3.130723 -4.430069 0.706927 0
M  V30 25 H 2.964190 -2.215117 -0.185743 0
M  V30 26 H -1.007532 0.164456 1.503262 0
M  V30 27 H -0.442960 1.795469 1.958430 0
M  V30 28 H -1.322946 2.831941 0.082437 0
M  V30 29 H -1.920368 1.275958 -0.660906 0
M  V30 30 H -2.791867 2.831552 1.838483 0
M  V30 31 H -3.750053 1.942354 0.542663 0
M  V30 32 H -2.923953 0.983341 1.788688 0
M  V30 33 H 2.211897 1.847180 -0.433825 0
M  V30 34 H 1.209037 2.838657 0.664252 0
M  V30 35 H 3.065971 0.495543 1.419251 0
M  V30 36 H 2.022992 1.475984 2.564936 0
M  V30 37 H 3.202285 3.400929 1.304842 0
M  V30 38 H 4.459515 2.215208 1.145827 0
M  V30 39 H 3.880429 2.678966 2.684144 0
M  V30 40 H -1.575095 -1.225964 -0.307061 0
M  V30 END ATOM
M  V30 BEGIN BOND
M  V30 1 2 1 2
M  V30 2 1 2 3
M  V30 3 2 3 4
M  V30 4 1 4 5
M  V30 5 2 5 6
M  V30 6 1 6 7
M  V30 7 2 7 8
M  V30 8 1 8 9
M  V30 9 2 9 10
M  V30 10 2 9 11
M  V30 11 1 9 12
M  V30 12 1 12 13
M  V30 13 1 13 14
M  V30 14 1 14 15
M  V30 15 1 12 16
M  V30 16 1 16 17
M  V30 17 1 17 18
M  V30 18 1 8 19
M  V30 19 2 19 20
M  V30 20 1 20 1
M  V30 21 1 19 4
M  V30 22 1 1 21
M  V30 23 1 3 22
M  V30 24 1 5 23
M  V30 25 1 6 24
M  V30 26 1 7 25
M  V30 27 1 13 26
M  V30 28 1 13 27
M  V30 29 1 14 28
M  V30 30 1 14 29
M  V30 31 1 15 30
M  V30 32 1 15 31
M  V30 33 1 15 32
M  V30 34 1 16 33
M  V30 35 1 16 34
M  V30 36 1 17 35
M  V30 37 1 17 36
M  V30 38 1 18 37
M  V30 39 1 18 38
M  V30 40 1 18 39
M  V30 41 1 20 40
M  V30 END BOND
M  V30 END CTAB
M  END
>  <Dataset>  (38) 
PDB

>  <Ligand_Instance>  (38) 
6YQJ_6TX_A_401

>  <PDB_ID>  (38) 
6YQJ

>  <Standardized_SMILES>  (38) 
[H]C1=NC([H])=C2C([H])=C([H])C([H])=C(S(=O)(=O)N(C([H])([H])C([H])([H])C([H])([H])[H])C([H])([H])C([H])([H])[N+]([H])([H])[H])C2=C1[H]

>  <Name>  (38) 
2-[isoquinolin-5-ylsulfonyl(propyl)amino]ethylazanium

>  <Pocket>  (38) 
A

>  <ATP_Site>  (38) 
1.0

>  <Peripheral>  (38) 
0.0

>  <Num_H_Atoms_ProtBoundConf>  (38) 
20.0

>  <Num_Resolved_Atoms>  (38) 
20.0

>  <Num_Not_Resolved_Atoms>  (38) 
0.0

>  <2D_Mol_H>  (38) 
<rdkit.Chem.rdchem.Mol object at 0x72a238dc4890>

>  <MW>  (38) 
294.4

>  <HBA>  (38) 
3

>  <HBD>  (38) 
1

>  <LogP>  (38) 
0.8774

>  <NRB>  (38) 
8

>  <TPSA>  (38) 
77.91

>  <Num_Heavy_Atoms>  (38) 
20

>  <Ro5>  (38) 
[True, True, True, True, True, True]

>  <Ro5_Fulfilled>  (38) 
True

>  <Ro3>  (38) 
[True, True, True, True]

>  <Ro3_Fulfilled>  (38) 
True

>  <Fsp3>  (38) 
0.357143

>  <Fsp3_0.42>  (38) 
False

>  <Fsp3_0.45>  (38) 
False

>  <Stereogenic_Carbons>  (38) 
0

>  <C_Atoms>  (38) 
14

>  <FCStereo>  (38) 
0.0

>  <SPS>  (38) 
243

>  <nSPS>  (38) 
12.15

>  <PBF>  (38) 
0.752519

>  <PBF_0.6>  (38) 
True

>  <nPBF>  (38) 
0.037626

>  <nPBF_0.016>  (38) 
True

>  <PMI1>  (38) 
1166.197296

>  <PMI2>  (38) 
2067.880074

>  <PMI3>  (38) 
2695.273127

>  <NPR1>  (38) 
0.432682

>  <NPR2>  (38) 
0.767225

>  <Sum_NPR>  (38) 
1.199907

>  <Sum_NPR_1.07>  (38) 
True

>  <Sum_NPR_1.2>  (38) 
False

>  <MaxAbsEStateIndex>  (38) 
12.803947

>  <MaxEStateIndex>  (38) 
12.803947

>  <MinAbsEStateIndex>  (38) 
0.346574

>  <MinEStateIndex>  (38) 
-3.486412

>  <qed>  (38) 
0.858693

>  <MolWt>  (38) 
294.4

>  <HeavyAtomMolWt>  (38) 
274.24

>  <ExactMolWt>  (38) 
294.127074

>  <NumValenceElectrons>  (38) 
108

>  <NumRadicalElectrons>  (38) 
0

>  <MaxPartialCharge>  (38) 
0.243393

>  <MinPartialCharge>  (38) 
-0.356467

>  <MaxAbsPartialCharge>  (38) 
0.356467

>  <MinAbsPartialCharge>  (38) 
0.243393

>  <FpDensityMorgan1>  (38) 
1.25

>  <FpDensityMorgan2>  (38) 
2.05

>  <FpDensityMorgan3>  (38) 
2.75

>  <BCUT2D_MWHI>  (38) 
32.233427

>  <BCUT2D_MWLOW>  (38) 
10.168307

>  <BCUT2D_CHGHI>  (38) 
2.248395

>  <BCUT2D_CHGLO>  (38) 
-2.205334

>  <BCUT2D_LOGPHI>  (38) 
2.245243

>  <BCUT2D_LOGPLOW>  (38) 
-2.552775

>  <BCUT2D_MRHI>  (38) 
7.889635

>  <BCUT2D_MRLOW>  (38) 
-0.36689

>  <AvgIpc>  (38) 
2.460858

>  <BalabanJ>  (38) 
2.555317

>  <BertzCT>  (38) 
674.383424

>  <Chi0>  (38) 
14.587576

>  <Chi0n>  (38) 
11.618808

>  <Chi0v>  (38) 
12.435304

>  <Chi1>  (38) 
9.60772

>  <Chi1n>  (38) 
6.730692

>  <Chi1v>  (38) 
8.170756

>  <Chi2n>  (38) 
4.610599

>  <Chi2v>  (38) 
6.516956

>  <Chi3n>  (38) 
3.139083

>  <Chi3v>  (38) 
5.095876

>  <Chi4n>  (38) 
2.23477

>  <Chi4v>  (38) 
4.019667

>  <HallKierAlpha>  (38) 
-1.5

>  <Ipc>  (38) 
34048.426157

>  <Kappa1>  (38) 
14.899737

>  <Kappa2>  (38) 
6.3

>  <Kappa3>  (38) 
2.818933

>  <LabuteASA>  (38) 
119.017926

>  <PEOE_VSA1>  (38) 
5.733667

>  <PEOE_VSA10>  (38) 
0.0

>  <PEOE_VSA11>  (38) 
0.0

>  <PEOE_VSA12>  (38) 
10.023291

>  <PEOE_VSA13>  (38) 
0.0

>  <PEOE_VSA14>  (38) 
0.0

>  <PEOE_VSA2>  (38) 
4.983979

>  <PEOE_VSA3>  (38) 
8.417797

>  <PEOE_VSA4>  (38) 
4.305216

>  <PEOE_VSA5>  (38) 
0.0

>  <PEOE_VSA6>  (38) 
19.056471

>  <PEOE_VSA7>  (38) 
18.553556

>  <PEOE_VSA8>  (38) 
29.710892

>  <PEOE_VSA9>  (38) 
17.984996

>  <SMR_VSA1>  (38) 
14.151464

>  <SMR_VSA10>  (38) 
20.79574

>  <SMR_VSA2>  (38) 
0.0

>  <SMR_VSA3>  (38) 
9.289195

>  <SMR_VSA4>  (38) 
0.0

>  <SMR_VSA5>  (38) 
18.240042

>  <SMR_VSA6>  (38) 
19.634269

>  <SMR_VSA7>  (38) 
36.659155

>  <SMR_VSA8>  (38) 
0.0

>  <SMR_VSA9>  (38) 
0.0

>  <SlogP_VSA1>  (38) 
5.733667

>  <SlogP_VSA10>  (38) 
0.0

>  <SlogP_VSA11>  (38) 
0.0

>  <SlogP_VSA12>  (38) 
0.0

>  <SlogP_VSA2>  (38) 
37.341261

>  <SlogP_VSA3>  (38) 
10.023291

>  <SlogP_VSA4>  (38) 
0.0

>  <SlogP_VSA5>  (38) 
13.344559

>  <SlogP_VSA6>  (38) 
41.554639

>  <SlogP_VSA7>  (38) 
0.0

>  <SlogP_VSA8>  (38) 
10.772448

>  <SlogP_VSA9>  (38) 
0.0

>  <EState_VSA1>  (38) 
10.023291

>  <EState_VSA10>  (38) 
8.417797

>  <EState_VSA11>  (38) 
0.0

>  <EState_VSA2>  (38) 
0.0

>  <EState_VSA3>  (38) 
29.915977

>  <EState_VSA4>  (38) 
11.807046

>  <EState_VSA5>  (38) 
4.305216

>  <EState_VSA6>  (38) 
30.592788

>  <EState_VSA7>  (38) 
12.990104

>  <EState_VSA8>  (38) 
10.717646

>  <EState_VSA9>  (38) 
0.0

>  <VSA_EState1>  (38) 
27.117024

>  <VSA_EState10>  (38) 
0.0

>  <VSA_EState2>  (38) 
4.381703

>  <VSA_EState3>  (38) 
1.548437

>  <VSA_EState4>  (38) 
3.761129

>  <VSA_EState5>  (38) 
0.0

>  <VSA_EState6>  (38) 
7.025855

>  <VSA_EState7>  (38) 
4.081679

>  <VSA_EState8>  (38) 
3.487252

>  <VSA_EState9>  (38) 
-3.486412

>  <FractionCSP3>  (38) 
0.357143

>  <HeavyAtomCount>  (38) 
20

>  <NHOHCount>  (38) 
3

>  <NOCount>  (38) 
5

>  <NumAliphaticCarbocycles>  (38) 
0

>  <NumAliphaticHeterocycles>  (38) 
0

>  <NumAliphaticRings>  (38) 
0

>  <NumAromaticCarbocycles>  (38) 
1

>  <NumAromaticHeterocycles>  (38) 
1

>  <NAR>  (38) 
2

>  <NumHAcceptors>  (38) 
3

>  <NumHDonors>  (38) 
1

>  <NumHeteroatoms>  (38) 
6

>  <NumRotatableBonds>  (38) 
6

>  <NumSaturatedCarbocycles>  (38) 
0

>  <NumSaturatedHeterocycles>  (38) 
0

>  <NumSaturatedRings>  (38) 
0

>  <RingCount>  (38) 
2

>  <MolLogP>  (38) 
0.8774

>  <MolMR>  (38) 
78.5479

>  <fr_Al_COO>  (38) 
0

>  <fr_Al_OH>  (38) 
0

>  <fr_Al_OH_noTert>  (38) 
0

>  <fr_ArN>  (38) 
0

>  <fr_Ar_COO>  (38) 
0

>  <fr_Ar_N>  (38) 
1

>  <fr_Ar_NH>  (38) 
0

>  <fr_Ar_OH>  (38) 
0

>  <fr_COO>  (38) 
0

>  <fr_COO2>  (38) 
0

>  <fr_C_O>  (38) 
0

>  <fr_C_O_noCOO>  (38) 
0

>  <fr_C_S>  (38) 
0

>  <fr_HOCCN>  (38) 
0

>  <fr_Imine>  (38) 
0

>  <fr_NH0>  (38) 
2

>  <fr_NH1>  (38) 
0

>  <fr_NH2>  (38) 
0

>  <fr_N_O>  (38) 
0

>  <fr_Ndealkylation1>  (38) 
0

>  <fr_Ndealkylation2>  (38) 
0

>  <fr_Nhpyrrole>  (38) 
0

>  <fr_SH>  (38) 
0

>  <fr_aldehyde>  (38) 
0

>  <fr_alkyl_carbamate>  (38) 
0

>  <fr_alkyl_halide>  (38) 
0

>  <fr_allylic_oxid>  (38) 
0

>  <fr_amide>  (38) 
0

>  <fr_amidine>  (38) 
0

>  <fr_aniline>  (38) 
0

>  <fr_aryl_methyl>  (38) 
0

>  <fr_azide>  (38) 
0

>  <fr_azo>  (38) 
0

>  <fr_barbitur>  (38) 
0

>  <fr_benzene>  (38) 
1

>  <fr_benzodiazepine>  (38) 
0

>  <fr_bicyclic>  (38) 
1

>  <fr_diazo>  (38) 
0

>  <fr_dihydropyridine>  (38) 
0

>  <fr_epoxide>  (38) 
0

>  <fr_ester>  (38) 
0

>  <fr_ether>  (38) 
0

>  <fr_furan>  (38) 
0

>  <fr_guanido>  (38) 
0

>  <fr_halogen>  (38) 
0

>  <fr_hdrzine>  (38) 
0

>  <fr_hdrzone>  (38) 
0

>  <fr_imidazole>  (38) 
0

>  <fr_imide>  (38) 
0

>  <fr_isocyan>  (38) 
0

>  <fr_isothiocyan>  (38) 
0

>  <fr_ketone>  (38) 
0

>  <fr_ketone_Topliss>  (38) 
0

>  <fr_lactam>  (38) 
0

>  <fr_lactone>  (38) 
0

>  <fr_methoxy>  (38) 
0

>  <fr_morpholine>  (38) 
0

>  <fr_nitrile>  (38) 
0

>  <fr_nitro>  (38) 
0

>  <fr_nitro_arom>  (38) 
0

>  <fr_nitro_arom_nonortho>  (38) 
0

>  <fr_nitroso>  (38) 
0

>  <fr_oxazole>  (38) 
0

>  <fr_oxime>  (38) 
0

>  <fr_para_hydroxylation>  (38) 
0

>  <fr_phenol>  (38) 
0

>  <fr_phenol_noOrthoHbond>  (38) 
0

>  <fr_phos_acid>  (38) 
0

>  <fr_phos_ester>  (38) 
0

>  <fr_piperdine>  (38) 
0

>  <fr_piperzine>  (38) 
0

>  <fr_priamide>  (38) 
0

>  <fr_prisulfonamd>  (38) 
0

>  <fr_pyridine>  (38) 
1

>  <fr_quatN>  (38) 
1

>  <fr_sulfide>  (38) 
0

>  <fr_sulfonamd>  (38) 
1

>  <fr_sulfone>  (38) 
0

>  <fr_term_acetylene>  (38) 
0

>  <fr_tetrazole>  (38) 
0

>  <fr_thiazole>  (38) 
0

>  <fr_thiocyan>  (38) 
0

>  <fr_thiophene>  (38) 
0

>  <fr_unbrch_alkane>  (38) 
0

>  <fr_urea>  (38) 
0

>  <NP-Likeness>  (38) 
-1.566217

$$$$
6TY
     RDKit          3D

  0  0  0  0  0  0  0  0  0  0999 V3000
M  V30 BEGIN CTAB
M  V30 COUNTS 38 40 0 0 0
M  V30 BEGIN ATOM
M  V30 1 C -1.782988 -1.935741 3.472092 0
M  V30 2 N -1.442596 -3.082268 4.129297 0
M  V30 3 C -0.591075 -3.978937 3.566061 0
M  V30 4 C -0.034237 -3.765624 2.303163 0
M  V30 5 C 0.810838 -4.665269 1.690851 0
M  V30 6 C 1.307469 -4.410216 0.432019 0
M  V30 7 C 0.934714 -3.249250 -0.171248 0
M  V30 8 C 0.082422 -2.262482 0.358846 0
M  V30 9 S -0.205909 -0.824134 -0.526449 0
M  V30 10 O -1.711075 -0.597165 -0.752801 0
M  V30 11 O 0.262901 -1.065501 -1.965517 0
M  V30 12 N 0.587600 0.520036 0.003828 0
M  V30 13 C 0.449844 1.112870 1.249331 0
M  V30 14 C -0.717264 2.083513 1.193401 0
M  V30 15 N -0.872939 2.621423 -0.147800 0 CHG=1 VAL=4
M  V30 16 C 0.375322 2.705458 -0.876385 0
M  V30 17 C 1.096079 1.401541 -1.027272 0 CFG=1
M  V30 18 C 2.576060 1.651826 -0.834770 0
M  V30 19 C -0.356502 -2.617850 1.614500 0
M  V30 20 C -1.214613 -1.759081 2.229584 0
M  V30 21 H -2.467983 -1.200626 3.908724 0
M  V30 22 H -0.318155 -4.893210 4.086842 0
M  V30 23 H 1.069848 -5.568574 2.223017 0
M  V30 24 H 1.969768 -5.108749 -0.057779 0
M  V30 25 H 1.348668 -3.080246 -1.170879 0
M  V30 26 H 0.482283 0.454845 2.090606 0
M  V30 27 H 1.348978 1.805046 1.389554 0
M  V30 28 H -1.633937 1.504600 1.419030 0
M  V30 29 H -0.649600 2.893891 1.937874 0
M  V30 30 H -1.198035 3.609418 -0.036905 0
M  V30 31 H -1.606635 2.150272 -0.704925 0
M  V30 32 H 0.116909 3.055568 -1.891006 0
M  V30 33 H 1.007587 3.499871 -0.403210 0
M  V30 34 H 0.950877 0.894872 -1.994832 0
M  V30 35 H 2.802509 2.588084 -0.295090 0
M  V30 36 H 3.130891 1.716681 -1.807775 0
M  V30 37 H 3.075073 0.833821 -0.278772 0
M  V30 38 H -1.508376 -0.859844 1.726974 0
M  V30 END ATOM
M  V30 BEGIN BOND
M  V30 1 2 1 2
M  V30 2 1 2 3
M  V30 3 2 3 4
M  V30 4 1 4 5
M  V30 5 2 5 6
M  V30 6 1 6 7
M  V30 7 2 7 8
M  V30 8 1 8 9
M  V30 9 2 9 10
M  V30 10 2 9 11
M  V30 11 1 9 12
M  V30 12 1 12 13
M  V30 13 1 13 14
M  V30 14 1 14 15
M  V30 15 1 15 16
M  V30 16 1 16 17
M  V30 17 1 17 18
M  V30 18 1 8 19
M  V30 19 2 19 20
M  V30 20 1 20 1
M  V30 21 1 19 4
M  V30 22 1 17 12
M  V30 23 1 1 21
M  V30 24 1 3 22
M  V30 25 1 5 23
M  V30 26 1 6 24
M  V30 27 1 7 25
M  V30 28 1 13 26
M  V30 29 1 13 27
M  V30 30 1 14 28
M  V30 31 1 14 29
M  V30 32 1 15 30
M  V30 33 1 15 31
M  V30 34 1 16 32
M  V30 35 1 16 33
M  V30 36 1 17 34 CFG=3
M  V30 37 1 18 35
M  V30 38 1 18 36
M  V30 39 1 18 37
M  V30 40 1 20 38
M  V30 END BOND
M  V30 END CTAB
M  END
>  <Dataset>  (39) 
PDB

>  <Ligand_Instance>  (39) 
5LCT_6TY_A_401

>  <PDB_ID>  (39) 
5LCT

>  <Standardized_SMILES>  (39) 
[H]C1=NC([H])=C2C([H])=C([H])C([H])=C(S(=O)(=O)N3C([H])([H])C([H])([H])[N+]([H])([H])C([H])([H])[C@@]3([H])C([H])([H])[H])C2=C1[H]

>  <Name>  (39) 
5-[(2~{R})-2-methylpiperazin-1-yl]sulfonylisoquinoline

>  <Pocket>  (39) 
A

>  <ATP_Site>  (39) 
1.0

>  <Peripheral>  (39) 
0.0

>  <Num_H_Atoms_ProtBoundConf>  (39) 
18.0

>  <Num_Resolved_Atoms>  (39) 
20.0

>  <Num_Not_Resolved_Atoms>  (39) 
0.0

>  <2D_Mol_H>  (39) 
<rdkit.Chem.rdchem.Mol object at 0x72a238dc4970>

>  <MW>  (39) 
292.384

>  <HBA>  (39) 
3

>  <HBD>  (39) 
1

>  <LogP>  (39) 
0.191

>  <NRB>  (39) 
3

>  <TPSA>  (39) 
66.88

>  <Num_Heavy_Atoms>  (39) 
20

>  <Ro5>  (39) 
[True, True, True, True, True, True]

>  <Ro5_Fulfilled>  (39) 
True

>  <Ro3>  (39) 
[True, True, True, True]

>  <Ro3_Fulfilled>  (39) 
True

>  <Fsp3>  (39) 
0.357143

>  <Fsp3_0.42>  (39) 
False

>  <Fsp3_0.45>  (39) 
False

>  <Stereogenic_Carbons>  (39) 
1

>  <C_Atoms>  (39) 
14

>  <FCStereo>  (39) 
0.071429

>  <SPS>  (39) 
423

>  <nSPS>  (39) 
21.15

>  <PBF>  (39) 
0.771561

>  <PBF_0.6>  (39) 
True

>  <nPBF>  (39) 
0.038578

>  <nPBF_0.016>  (39) 
True

>  <PMI1>  (39) 
845.062383

>  <PMI2>  (39) 
2123.69744

>  <PMI3>  (39) 
2537.131309

>  <NPR1>  (39) 
0.333078

>  <NPR2>  (39) 
0.837047

>  <Sum_NPR>  (39) 
1.170125

>  <Sum_NPR_1.07>  (39) 
True

>  <Sum_NPR_1.2>  (39) 
False

>  <MaxAbsEStateIndex>  (39) 
12.903253

>  <MaxEStateIndex>  (39) 
12.903253

>  <MinAbsEStateIndex>  (39) 
0.019299

>  <MinEStateIndex>  (39) 
-3.452269

>  <qed>  (39) 
0.859119

>  <MolWt>  (39) 
292.384

>  <HeavyAtomMolWt>  (39) 
274.24

>  <ExactMolWt>  (39) 
292.111424

>  <NumValenceElectrons>  (39) 
106

>  <NumRadicalElectrons>  (39) 
0

>  <MaxPartialCharge>  (39) 
0.243846

>  <MinPartialCharge>  (39) 
-0.343838

>  <MaxAbsPartialCharge>  (39) 
0.343838

>  <MinAbsPartialCharge>  (39) 
0.243846

>  <FpDensityMorgan1>  (39) 
1.35

>  <FpDensityMorgan2>  (39) 
2.2

>  <FpDensityMorgan3>  (39) 
3.0

>  <BCUT2D_MWHI>  (39) 
32.233428

>  <BCUT2D_MWLOW>  (39) 
10.168204

>  <BCUT2D_CHGHI>  (39) 
2.33008

>  <BCUT2D_CHGLO>  (39) 
-2.3047

>  <BCUT2D_LOGPHI>  (39) 
2.257115

>  <BCUT2D_LOGPLOW>  (39) 
-2.910992

>  <BCUT2D_MRHI>  (39) 
7.889883

>  <BCUT2D_MRLOW>  (39) 
-0.665891

>  <AvgIpc>  (39) 
2.466246

>  <BalabanJ>  (39) 
2.137974

>  <BertzCT>  (39) 
724.781365

>  <Chi0>  (39) 
14.164926

>  <Chi0n>  (39) 
11.359295

>  <Chi0v>  (39) 
12.175791

>  <Chi1>  (39) 
9.60419

>  <Chi1n>  (39) 
6.767652

>  <Chi1v>  (39) 
8.207715

>  <Chi2n>  (39) 
5.13079

>  <Chi2v>  (39) 
6.989766

>  <Chi3n>  (39) 
3.780379

>  <Chi3v>  (39) 
5.852112

>  <Chi4n>  (39) 
2.716705

>  <Chi4v>  (39) 
4.589316

>  <HallKierAlpha>  (39) 
-1.5

>  <Ipc>  (39) 
45916.573653

>  <Kappa1>  (39) 
13.481559

>  <Kappa2>  (39) 
5.121607

>  <Kappa3>  (39) 
2.194671

>  <LabuteASA>  (39) 
118.222067

>  <PEOE_VSA1>  (39) 
5.316789

>  <PEOE_VSA10>  (39) 
0.0

>  <PEOE_VSA11>  (39) 
0.0

>  <PEOE_VSA12>  (39) 
10.023291

>  <PEOE_VSA13>  (39) 
0.0

>  <PEOE_VSA14>  (39) 
0.0

>  <PEOE_VSA2>  (39) 
4.983979

>  <PEOE_VSA3>  (39) 
8.417797

>  <PEOE_VSA4>  (39) 
4.305216

>  <PEOE_VSA5>  (39) 
0.0

>  <PEOE_VSA6>  (39) 
12.132734

>  <PEOE_VSA7>  (39) 
19.056471

>  <PEOE_VSA8>  (39) 
23.166136

>  <PEOE_VSA9>  (39) 
30.571594

>  <SMR_VSA1>  (39) 
13.734586

>  <SMR_VSA10>  (39) 
20.79574

>  <SMR_VSA2>  (39) 
0.0

>  <SMR_VSA3>  (39) 
9.289195

>  <SMR_VSA4>  (39) 
0.0

>  <SMR_VSA5>  (39) 
17.861062

>  <SMR_VSA6>  (39) 
19.634269

>  <SMR_VSA7>  (39) 
36.659155

>  <SMR_VSA8>  (39) 
0.0

>  <SMR_VSA9>  (39) 
0.0

>  <SlogP_VSA1>  (39) 
5.316789

>  <SlogP_VSA10>  (39) 
0.0

>  <SlogP_VSA11>  (39) 
0.0

>  <SlogP_VSA12>  (39) 
0.0

>  <SlogP_VSA2>  (39) 
43.383102

>  <SlogP_VSA3>  (39) 
10.023291

>  <SlogP_VSA4>  (39) 
0.0

>  <SlogP_VSA5>  (39) 
6.923737

>  <SlogP_VSA6>  (39) 
41.554639

>  <SlogP_VSA7>  (39) 
0.0

>  <SlogP_VSA8>  (39) 
10.772448

>  <SlogP_VSA9>  (39) 
0.0

>  <EState_VSA1>  (39) 
10.023291

>  <EState_VSA10>  (39) 
8.417797

>  <EState_VSA11>  (39) 
0.0

>  <EState_VSA2>  (39) 
6.041841

>  <EState_VSA3>  (39) 
11.44024

>  <EState_VSA4>  (39) 
23.861961

>  <EState_VSA5>  (39) 
0.0

>  <EState_VSA6>  (39) 
34.898004

>  <EState_VSA7>  (39) 
12.990104

>  <EState_VSA8>  (39) 
10.300767

>  <EState_VSA9>  (39) 
0.0

>  <VSA_EState1>  (39) 
27.419802

>  <VSA_EState10>  (39) 
0.0

>  <VSA_EState2>  (39) 
4.430773

>  <VSA_EState3>  (39) 
3.748171

>  <VSA_EState4>  (39) 
0.0

>  <VSA_EState5>  (39) 
0.0

>  <VSA_EState6>  (39) 
7.128485

>  <VSA_EState7>  (39) 
3.329888

>  <VSA_EState8>  (39) 
4.145149

>  <VSA_EState9>  (39) 
-3.452269

>  <FractionCSP3>  (39) 
0.357143

>  <HeavyAtomCount>  (39) 
20

>  <NHOHCount>  (39) 
2

>  <NOCount>  (39) 
5

>  <NumAliphaticCarbocycles>  (39) 
0

>  <NumAliphaticHeterocycles>  (39) 
1

>  <NumAliphaticRings>  (39) 
1

>  <NumAromaticCarbocycles>  (39) 
1

>  <NumAromaticHeterocycles>  (39) 
1

>  <NAR>  (39) 
2

>  <NumHAcceptors>  (39) 
3

>  <NumHDonors>  (39) 
1

>  <NumHeteroatoms>  (39) 
6

>  <NumRotatableBonds>  (39) 
2

>  <NumSaturatedCarbocycles>  (39) 
0

>  <NumSaturatedHeterocycles>  (39) 
1

>  <NumSaturatedRings>  (39) 
1

>  <RingCount>  (39) 
3

>  <MolLogP>  (39) 
0.191

>  <MolMR>  (39) 
76.7562

>  <fr_Al_COO>  (39) 
0

>  <fr_Al_OH>  (39) 
0

>  <fr_Al_OH_noTert>  (39) 
0

>  <fr_ArN>  (39) 
0

>  <fr_Ar_COO>  (39) 
0

>  <fr_Ar_N>  (39) 
1

>  <fr_Ar_NH>  (39) 
0

>  <fr_Ar_OH>  (39) 
0

>  <fr_COO>  (39) 
0

>  <fr_COO2>  (39) 
0

>  <fr_C_O>  (39) 
0

>  <fr_C_O_noCOO>  (39) 
0

>  <fr_C_S>  (39) 
0

>  <fr_HOCCN>  (39) 
0

>  <fr_Imine>  (39) 
0

>  <fr_NH0>  (39) 
2

>  <fr_NH1>  (39) 
0

>  <fr_NH2>  (39) 
1

>  <fr_N_O>  (39) 
0

>  <fr_Ndealkylation1>  (39) 
0

>  <fr_Ndealkylation2>  (39) 
0

>  <fr_Nhpyrrole>  (39) 
0

>  <fr_SH>  (39) 
0

>  <fr_aldehyde>  (39) 
0

>  <fr_alkyl_carbamate>  (39) 
0

>  <fr_alkyl_halide>  (39) 
0

>  <fr_allylic_oxid>  (39) 
0

>  <fr_amide>  (39) 
0

>  <fr_amidine>  (39) 
0

>  <fr_aniline>  (39) 
0

>  <fr_aryl_methyl>  (39) 
0

>  <fr_azide>  (39) 
0

>  <fr_azo>  (39) 
0

>  <fr_barbitur>  (39) 
0

>  <fr_benzene>  (39) 
1

>  <fr_benzodiazepine>  (39) 
0

>  <fr_bicyclic>  (39) 
1

>  <fr_diazo>  (39) 
0

>  <fr_dihydropyridine>  (39) 
0

>  <fr_epoxide>  (39) 
0

>  <fr_ester>  (39) 
0

>  <fr_ether>  (39) 
0

>  <fr_furan>  (39) 
0

>  <fr_guanido>  (39) 
0

>  <fr_halogen>  (39) 
0

>  <fr_hdrzine>  (39) 
0

>  <fr_hdrzone>  (39) 
0

>  <fr_imidazole>  (39) 
0

>  <fr_imide>  (39) 
0

>  <fr_isocyan>  (39) 
0

>  <fr_isothiocyan>  (39) 
0

>  <fr_ketone>  (39) 
0

>  <fr_ketone_Topliss>  (39) 
0

>  <fr_lactam>  (39) 
0

>  <fr_lactone>  (39) 
0

>  <fr_methoxy>  (39) 
0

>  <fr_morpholine>  (39) 
0

>  <fr_nitrile>  (39) 
0

>  <fr_nitro>  (39) 
0

>  <fr_nitro_arom>  (39) 
0

>  <fr_nitro_arom_nonortho>  (39) 
0

>  <fr_nitroso>  (39) 
0

>  <fr_oxazole>  (39) 
0

>  <fr_oxime>  (39) 
0

>  <fr_para_hydroxylation>  (39) 
0

>  <fr_phenol>  (39) 
0

>  <fr_phenol_noOrthoHbond>  (39) 
0

>  <fr_phos_acid>  (39) 
0

>  <fr_phos_ester>  (39) 
0

>  <fr_piperdine>  (39) 
0

>  <fr_piperzine>  (39) 
1

>  <fr_priamide>  (39) 
0

>  <fr_prisulfonamd>  (39) 
0

>  <fr_pyridine>  (39) 
1

>  <fr_quatN>  (39) 
1

>  <fr_sulfide>  (39) 
0

>  <fr_sulfonamd>  (39) 
1

>  <fr_sulfone>  (39) 
0

>  <fr_term_acetylene>  (39) 
0

>  <fr_tetrazole>  (39) 
0

>  <fr_thiazole>  (39) 
0

>  <fr_thiocyan>  (39) 
0

>  <fr_thiophene>  (39) 
0

>  <fr_unbrch_alkane>  (39) 
0

>  <fr_urea>  (39) 
0

>  <NP-Likeness>  (39) 
-1.165265

$$$$
7CB
     RDKit          3D

  0  0  0  0  0  0  0  0  0  0999 V3000
M  V30 BEGIN CTAB
M  V30 COUNTS 22 23 0 0 0
M  V30 BEGIN ATOM
M  V30 1 C 0.268569 1.181777 3.425664 0
M  V30 2 N 1.010130 0.262576 4.082914 0
M  V30 3 C 1.574330 -0.740679 3.397261 0
M  V30 4 C 1.377117 -0.801231 2.032477 0
M  V30 5 C 1.968661 -1.847798 1.334318 0
M  V30 6 C 1.792973 -1.939788 -0.029964 0
M  V30 7 C 1.030135 -0.986766 -0.677005 0
M  V30 8 C 0.417241 0.078692 -0.027313 0
M  V30 9 S -0.541747 1.276494 -0.841747 0
M  V30 10 O -0.619877 0.846956 -2.299836 0
M  V30 11 O 0.132864 2.618922 -0.838327 0
M  V30 12 N -2.167286 1.354823 -0.282550 0
M  V30 13 C 0.629960 0.115485 1.333524 0
M  V30 14 C 0.058341 1.141565 2.065758 0
M  V30 15 H -0.161081 1.963143 4.015531 0
M  V30 16 H 2.182867 -1.503559 3.903261 0
M  V30 17 H 2.565493 -2.589524 1.855769 0
M  V30 18 H 2.248230 -2.753629 -0.599999 0
M  V30 19 H 0.906541 -1.080919 -1.751630 0
M  V30 20 H -2.481235 2.355039 -0.436438 0
M  V30 21 H -2.769829 0.651049 -0.730087 0
M  V30 22 H -0.535871 1.889791 1.584678 0
M  V30 END ATOM
M  V30 BEGIN BOND
M  V30 1 2 1 2
M  V30 2 1 2 3
M  V30 3 2 3 4
M  V30 4 1 4 5
M  V30 5 2 5 6
M  V30 6 1 6 7
M  V30 7 2 7 8
M  V30 8 1 8 9
M  V30 9 2 9 10
M  V30 10 2 9 11
M  V30 11 1 9 12
M  V30 12 1 8 13
M  V30 13 2 13 14
M  V30 14 1 14 1
M  V30 15 1 13 4
M  V30 16 1 1 15
M  V30 17 1 3 16
M  V30 18 1 5 17
M  V30 19 1 6 18
M  V30 20 1 7 19
M  V30 21 1 12 20
M  V30 22 1 12 21
M  V30 23 1 14 22
M  V30 END BOND
M  V30 END CTAB
M  END
>  <Dataset>  (40) 
PDB

>  <Ligand_Instance>  (40) 
5M0C_7CB_A_401

>  <PDB_ID>  (40) 
5M0C

>  <Standardized_SMILES>  (40) 
[H]C1=NC([H])=C2C([H])=C([H])C([H])=C(S(=O)(=O)N([H])[H])C2=C1[H]

>  <Name>  (40) 
isoquinoline-5-sulfonamide

>  <Pocket>  (40) 
A

>  <ATP_Site>  (40) 
1.0

>  <Peripheral>  (40) 
0.0

>  <Num_H_Atoms_ProtBoundConf>  (40) 
8.0

>  <Num_Resolved_Atoms>  (40) 
14.0

>  <Num_Not_Resolved_Atoms>  (40) 
0.0

>  <2D_Mol_H>  (40) 
<rdkit.Chem.rdchem.Mol object at 0x72a238dc4a50>

>  <MW>  (40) 
208.242

>  <HBA>  (40) 
3

>  <HBD>  (40) 
1

>  <LogP>  (40) 
0.8822

>  <NRB>  (40) 
2

>  <TPSA>  (40) 
73.05

>  <Num_Heavy_Atoms>  (40) 
14

>  <Ro5>  (40) 
[True, True, True, True, True, True]

>  <Ro5_Fulfilled>  (40) 
True

>  <Ro3>  (40) 
[True, True, True, True]

>  <Ro3_Fulfilled>  (40) 
True

>  <Fsp3>  (40) 
0.0

>  <Fsp3_0.42>  (40) 
False

>  <Fsp3_0.45>  (40) 
False

>  <Stereogenic_Carbons>  (40) 
0

>  <C_Atoms>  (40) 
9

>  <FCStereo>  (40) 
0.0

>  <SPS>  (40) 
165

>  <nSPS>  (40) 
11.785714

>  <PBF>  (40) 
0.359538

>  <PBF_0.6>  (40) 
False

>  <nPBF>  (40) 
0.025681

>  <nPBF_0.016>  (40) 
True

>  <PMI1>  (40) 
450.792153

>  <PMI2>  (40) 
953.338811

>  <PMI3>  (40) 
1286.305589

>  <NPR1>  (40) 
0.350455

>  <NPR2>  (40) 
0.741145

>  <Sum_NPR>  (40) 
1.0916

>  <Sum_NPR_1.07>  (40) 
True

>  <Sum_NPR_1.2>  (40) 
False

>  <MaxAbsEStateIndex>  (40) 
11.204225

>  <MaxEStateIndex>  (40) 
11.204225

>  <MinAbsEStateIndex>  (40) 
0.136481

>  <MinEStateIndex>  (40) 
-3.657199

>  <qed>  (40) 
0.755682

>  <MolWt>  (40) 
208.242

>  <HeavyAtomMolWt>  (40) 
200.178

>  <ExactMolWt>  (40) 
208.030648

>  <NumValenceElectrons>  (40) 
72

>  <NumRadicalElectrons>  (40) 
0

>  <MaxPartialCharge>  (40) 
0.238167

>  <MinPartialCharge>  (40) 
-0.264064

>  <MaxAbsPartialCharge>  (40) 
0.264064

>  <MinAbsPartialCharge>  (40) 
0.238167

>  <FpDensityMorgan1>  (40) 
1.214286

>  <FpDensityMorgan2>  (40) 
2.0

>  <FpDensityMorgan3>  (40) 
2.714286

>  <BCUT2D_MWHI>  (40) 
32.233116

>  <BCUT2D_MWLOW>  (40) 
10.168363

>  <BCUT2D_CHGHI>  (40) 
2.104082

>  <BCUT2D_CHGLO>  (40) 
-2.019932

>  <BCUT2D_LOGPHI>  (40) 
2.197427

>  <BCUT2D_LOGPLOW>  (40) 
-2.119335

>  <BCUT2D_MRHI>  (40) 
7.889897

>  <BCUT2D_MRLOW>  (40) 
0.598416

>  <AvgIpc>  (40) 
2.153976

>  <BalabanJ>  (40) 
2.916803

>  <BertzCT>  (40) 
572.886578

>  <Chi0>  (40) 
10.181798

>  <Chi0n>  (40) 
7.21341

>  <Chi0v>  (40) 
8.029907

>  <Chi1>  (40) 
6.588335

>  <Chi1n>  (40) 
3.944258

>  <Chi1v>  (40) 
5.490578

>  <Chi2n>  (40) 
2.897969

>  <Chi2v>  (40) 
4.427814

>  <Chi3n>  (40) 
1.947261

>  <Chi3v>  (40) 
2.916308

>  <Chi4n>  (40) 
1.340933

>  <Chi4v>  (40) 
2.101597

>  <HallKierAlpha>  (40) 
-1.46

>  <Ipc>  (40) 
1628.40582

>  <Kappa1>  (40) 
9.109024

>  <Kappa2>  (40) 
3.038688

>  <Kappa3>  (40) 
1.470603

>  <LabuteASA>  (40) 
81.433382

>  <PEOE_VSA1>  (40) 
0.0

>  <PEOE_VSA10>  (40) 
0.0

>  <PEOE_VSA11>  (40) 
0.0

>  <PEOE_VSA12>  (40) 
10.023291

>  <PEOE_VSA13>  (40) 
0.0

>  <PEOE_VSA14>  (40) 
0.0

>  <PEOE_VSA2>  (40) 
4.983979

>  <PEOE_VSA3>  (40) 
13.556771

>  <PEOE_VSA4>  (40) 
0.0

>  <PEOE_VSA5>  (40) 
0.0

>  <PEOE_VSA6>  (40) 
12.132734

>  <PEOE_VSA7>  (40) 
12.132734

>  <PEOE_VSA8>  (40) 
23.166136

>  <PEOE_VSA9>  (40) 
4.895483

>  <SMR_VSA1>  (40) 
8.417797

>  <SMR_VSA10>  (40) 
20.79574

>  <SMR_VSA2>  (40) 
0.0

>  <SMR_VSA3>  (40) 
4.983979

>  <SMR_VSA4>  (40) 
5.138974

>  <SMR_VSA5>  (40) 
4.895483

>  <SMR_VSA6>  (40) 
0.0

>  <SMR_VSA7>  (40) 
36.659155

>  <SMR_VSA8>  (40) 
0.0

>  <SMR_VSA9>  (40) 
0.0

>  <SlogP_VSA1>  (40) 
5.138974

>  <SlogP_VSA10>  (40) 
0.0

>  <SlogP_VSA11>  (40) 
0.0

>  <SlogP_VSA12>  (40) 
0.0

>  <SlogP_VSA2>  (40) 
13.401776

>  <SlogP_VSA3>  (40) 
10.023291

>  <SlogP_VSA4>  (40) 
0.0

>  <SlogP_VSA5>  (40) 
0.0

>  <SlogP_VSA6>  (40) 
41.554639

>  <SlogP_VSA7>  (40) 
0.0

>  <SlogP_VSA8>  (40) 
10.772448

>  <SlogP_VSA9>  (40) 
0.0

>  <EState_VSA1>  (40) 
10.023291

>  <EState_VSA10>  (40) 
8.417797

>  <EState_VSA11>  (40) 
0.0

>  <EState_VSA2>  (40) 
4.895483

>  <EState_VSA3>  (40) 
5.386224

>  <EState_VSA4>  (40) 
5.386224

>  <EState_VSA5>  (40) 
12.263211

>  <EState_VSA6>  (40) 
24.395945

>  <EState_VSA7>  (40) 
0.0

>  <EState_VSA8>  (40) 
4.983979

>  <EState_VSA9>  (40) 
5.138974

>  <VSA_EState1>  (40) 
22.40845

>  <VSA_EState10>  (40) 
0.0

>  <VSA_EState2>  (40) 
4.036882

>  <VSA_EState3>  (40) 
6.439505

>  <VSA_EState4>  (40) 
0.0

>  <VSA_EState5>  (40) 
0.0

>  <VSA_EState6>  (40) 
6.54912

>  <VSA_EState7>  (40) 
3.139907

>  <VSA_EState8>  (40) 
0.0

>  <VSA_EState9>  (40) 
-3.657199

>  <FractionCSP3>  (40) 
0.0

>  <HeavyAtomCount>  (40) 
14

>  <NHOHCount>  (40) 
2

>  <NOCount>  (40) 
4

>  <NumAliphaticCarbocycles>  (40) 
0

>  <NumAliphaticHeterocycles>  (40) 
0

>  <NumAliphaticRings>  (40) 
0

>  <NumAromaticCarbocycles>  (40) 
1

>  <NumAromaticHeterocycles>  (40) 
1

>  <NAR>  (40) 
2

>  <NumHAcceptors>  (40) 
3

>  <NumHDonors>  (40) 
1

>  <NumHeteroatoms>  (40) 
5

>  <NumRotatableBonds>  (40) 
1

>  <NumSaturatedCarbocycles>  (40) 
0

>  <NumSaturatedHeterocycles>  (40) 
0

>  <NumSaturatedRings>  (40) 
0

>  <RingCount>  (40) 
2

>  <MolLogP>  (40) 
0.8822

>  <MolMR>  (40) 
53.1162

>  <fr_Al_COO>  (40) 
0

>  <fr_Al_OH>  (40) 
0

>  <fr_Al_OH_noTert>  (40) 
0

>  <fr_ArN>  (40) 
0

>  <fr_Ar_COO>  (40) 
0

>  <fr_Ar_N>  (40) 
1

>  <fr_Ar_NH>  (40) 
0

>  <fr_Ar_OH>  (40) 
0

>  <fr_COO>  (40) 
0

>  <fr_COO2>  (40) 
0

>  <fr_C_O>  (40) 
0

>  <fr_C_O_noCOO>  (40) 
0

>  <fr_C_S>  (40) 
0

>  <fr_HOCCN>  (40) 
0

>  <fr_Imine>  (40) 
0

>  <fr_NH0>  (40) 
1

>  <fr_NH1>  (40) 
0

>  <fr_NH2>  (40) 
1

>  <fr_N_O>  (40) 
0

>  <fr_Ndealkylation1>  (40) 
0

>  <fr_Ndealkylation2>  (40) 
0

>  <fr_Nhpyrrole>  (40) 
0

>  <fr_SH>  (40) 
0

>  <fr_aldehyde>  (40) 
0

>  <fr_alkyl_carbamate>  (40) 
0

>  <fr_alkyl_halide>  (40) 
0

>  <fr_allylic_oxid>  (40) 
0

>  <fr_amide>  (40) 
0

>  <fr_amidine>  (40) 
0

>  <fr_aniline>  (40) 
0

>  <fr_aryl_methyl>  (40) 
0

>  <fr_azide>  (40) 
0

>  <fr_azo>  (40) 
0

>  <fr_barbitur>  (40) 
0

>  <fr_benzene>  (40) 
1

>  <fr_benzodiazepine>  (40) 
0

>  <fr_bicyclic>  (40) 
1

>  <fr_diazo>  (40) 
0

>  <fr_dihydropyridine>  (40) 
0

>  <fr_epoxide>  (40) 
0

>  <fr_ester>  (40) 
0

>  <fr_ether>  (40) 
0

>  <fr_furan>  (40) 
0

>  <fr_guanido>  (40) 
0

>  <fr_halogen>  (40) 
0

>  <fr_hdrzine>  (40) 
0

>  <fr_hdrzone>  (40) 
0

>  <fr_imidazole>  (40) 
0

>  <fr_imide>  (40) 
0

>  <fr_isocyan>  (40) 
0

>  <fr_isothiocyan>  (40) 
0

>  <fr_ketone>  (40) 
0

>  <fr_ketone_Topliss>  (40) 
0

>  <fr_lactam>  (40) 
0

>  <fr_lactone>  (40) 
0

>  <fr_methoxy>  (40) 
0

>  <fr_morpholine>  (40) 
0

>  <fr_nitrile>  (40) 
0

>  <fr_nitro>  (40) 
0

>  <fr_nitro_arom>  (40) 
0

>  <fr_nitro_arom_nonortho>  (40) 
0

>  <fr_nitroso>  (40) 
0

>  <fr_oxazole>  (40) 
0

>  <fr_oxime>  (40) 
0

>  <fr_para_hydroxylation>  (40) 
0

>  <fr_phenol>  (40) 
0

>  <fr_phenol_noOrthoHbond>  (40) 
0

>  <fr_phos_acid>  (40) 
0

>  <fr_phos_ester>  (40) 
0

>  <fr_piperdine>  (40) 
0

>  <fr_piperzine>  (40) 
0

>  <fr_priamide>  (40) 
0

>  <fr_prisulfonamd>  (40) 
0

>  <fr_pyridine>  (40) 
1

>  <fr_quatN>  (40) 
0

>  <fr_sulfide>  (40) 
0

>  <fr_sulfonamd>  (40) 
1

>  <fr_sulfone>  (40) 
0

>  <fr_term_acetylene>  (40) 
0

>  <fr_tetrazole>  (40) 
0

>  <fr_thiazole>  (40) 
0

>  <fr_thiocyan>  (40) 
0

>  <fr_thiophene>  (40) 
0

>  <fr_unbrch_alkane>  (40) 
0

>  <fr_urea>  (40) 
0

>  <NP-Likeness>  (40) 
-1.460013

$$$$
7CT
     RDKit          3D

  0  0  0  0  0  0  0  0  0  0999 V3000
M  V30 BEGIN CTAB
M  V30 COUNTS 25 26 0 0 0
M  V30 BEGIN ATOM
M  V30 1 C 1.341536 0.295840 3.483237 0
M  V30 2 N 1.007461 -0.816208 4.195202 0
M  V30 3 C 0.544744 -1.909825 3.522389 0
M  V30 4 C 0.441967 -1.821023 2.140914 0
M  V30 5 C -0.018645 -2.899205 1.432319 0
M  V30 6 C -0.144658 -2.873882 0.048808 0
M  V30 7 C 0.206196 -1.725957 -0.624701 0
M  V30 8 C 0.677396 -0.610293 0.053024 0
M  V30 9 S 1.130404 0.862059 -0.780231 0
M  V30 10 O 2.583665 1.161578 -0.601913 0
M  V30 11 O 0.906884 0.624925 -2.260251 0
M  V30 12 N 0.133626 2.129607 -0.183245 0
M  V30 13 C -1.243064 1.831144 -0.471311 0
M  V30 14 C 0.787398 -0.681545 1.443251 0
M  V30 15 C 1.255907 0.428019 2.116131 0
M  V30 16 H 1.700023 1.109747 4.128043 0
M  V30 17 H 0.251333 -2.841338 3.979790 0
M  V30 18 H -0.306910 -3.824515 1.919611 0
M  V30 19 H -0.495346 -3.672490 -0.573424 0
M  V30 20 H 0.144348 -1.606746 -1.700363 0
M  V30 21 H 0.449492 3.067672 -0.438896 0
M  V30 22 H -1.472410 1.899048 -1.562294 0
M  V30 23 H -1.385285 0.739626 -0.238974 0
M  V30 24 H -1.954537 2.381842 0.153833 0
M  V30 25 H 1.543921 1.347284 1.649011 0
M  V30 END ATOM
M  V30 BEGIN BOND
M  V30 1 2 1 2
M  V30 2 1 2 3
M  V30 3 2 3 4
M  V30 4 1 4 5
M  V30 5 2 5 6
M  V30 6 1 6 7
M  V30 7 2 7 8
M  V30 8 1 8 9
M  V30 9 2 9 10
M  V30 10 2 9 11
M  V30 11 1 9 12
M  V30 12 1 12 13
M  V30 13 1 8 14
M  V30 14 2 14 15
M  V30 15 1 15 1
M  V30 16 1 14 4
M  V30 17 1 1 16
M  V30 18 1 3 17
M  V30 19 1 5 18
M  V30 20 1 6 19
M  V30 21 1 7 20
M  V30 22 1 12 21
M  V30 23 1 13 22
M  V30 24 1 13 23
M  V30 25 1 13 24
M  V30 26 1 15 25
M  V30 END BOND
M  V30 END CTAB
M  END
>  <Dataset>  (41) 
PDB

>  <Ligand_Instance>  (41) 
5M0L_7CT_A_401

>  <PDB_ID>  (41) 
5M0L

>  <Standardized_SMILES>  (41) 
[H]C1=NC([H])=C2C([H])=C([H])C([H])=C(S(=O)(=O)N([H])C([H])([H])[H])C2=C1[H]

>  <Name>  (41) 
~{N}-methylisoquinoline-5-sulfonamide

>  <Pocket>  (41) 
A

>  <ATP_Site>  (41) 
1.0

>  <Peripheral>  (41) 
1.0

>  <Num_H_Atoms_ProtBoundConf>  (41) 
10.0

>  <Num_Resolved_Atoms>  (41) 
15.0

>  <Num_Not_Resolved_Atoms>  (41) 
0.0

>  <2D_Mol_H>  (41) 
<rdkit.Chem.rdchem.Mol object at 0x72a238dc4b30>

>  <MW>  (41) 
222.269

>  <HBA>  (41) 
3

>  <HBD>  (41) 
1

>  <LogP>  (41) 
1.1429

>  <NRB>  (41) 
3

>  <TPSA>  (41) 
59.06

>  <Num_Heavy_Atoms>  (41) 
15

>  <Ro5>  (41) 
[True, True, True, True, True, True]

>  <Ro5_Fulfilled>  (41) 
True

>  <Ro3>  (41) 
[True, True, True, True]

>  <Ro3_Fulfilled>  (41) 
True

>  <Fsp3>  (41) 
0.1

>  <Fsp3_0.42>  (41) 
False

>  <Fsp3_0.45>  (41) 
False

>  <Stereogenic_Carbons>  (41) 
0

>  <C_Atoms>  (41) 
10

>  <FCStereo>  (41) 
0.0

>  <SPS>  (41) 
177

>  <nSPS>  (41) 
11.8

>  <PBF>  (41) 
0.689295

>  <PBF_0.6>  (41) 
True

>  <nPBF>  (41) 
0.045953

>  <nPBF_0.016>  (41) 
True

>  <PMI1>  (41) 
541.945484

>  <PMI2>  (41) 
1073.267885

>  <PMI3>  (41) 
1326.326462

>  <NPR1>  (41) 
0.408606

>  <NPR2>  (41) 
0.809203

>  <Sum_NPR>  (41) 
1.21781

>  <Sum_NPR_1.07>  (41) 
True

>  <Sum_NPR_1.2>  (41) 
True

>  <MaxAbsEStateIndex>  (41) 
11.683392

>  <MaxEStateIndex>  (41) 
11.683392

>  <MinAbsEStateIndex>  (41) 
0.282315

>  <MinEStateIndex>  (41) 
-3.402569

>  <qed>  (41) 
0.828609

>  <MolWt>  (41) 
222.269

>  <HeavyAtomMolWt>  (41) 
212.189

>  <ExactMolWt>  (41) 
222.046299

>  <NumValenceElectrons>  (41) 
78

>  <NumRadicalElectrons>  (41) 
0

>  <MaxPartialCharge>  (41) 
0.240429

>  <MinPartialCharge>  (41) 
-0.264064

>  <MaxAbsPartialCharge>  (41) 
0.264064

>  <MinAbsPartialCharge>  (41) 
0.240429

>  <FpDensityMorgan1>  (41) 
1.266667

>  <FpDensityMorgan2>  (41) 
2.066667

>  <FpDensityMorgan3>  (41) 
2.8

>  <BCUT2D_MWHI>  (41) 
32.23327

>  <BCUT2D_MWLOW>  (41) 
10.168353

>  <BCUT2D_CHGHI>  (41) 
2.135682

>  <BCUT2D_CHGLO>  (41) 
-2.052244

>  <BCUT2D_LOGPHI>  (41) 
2.206868

>  <BCUT2D_LOGPLOW>  (41) 
-2.182712

>  <BCUT2D_MRHI>  (41) 
7.893087

>  <BCUT2D_MRLOW>  (41) 
0.588932

>  <AvgIpc>  (41) 
2.280673

>  <BalabanJ>  (41) 
2.83096

>  <BertzCT>  (41) 
587.898807

>  <Chi0>  (41) 
10.888905

>  <Chi0n>  (41) 
8.13606

>  <Chi0v>  (41) 
8.952557

>  <Chi1>  (41) 
7.148995

>  <Chi1n>  (41) 
4.41268

>  <Chi1v>  (41) 
5.895843

>  <Chi2n>  (41) 
3.060521

>  <Chi2v>  (41) 
4.915469

>  <Chi3n>  (41) 
2.198979

>  <Chi3v>  (41) 
3.671463

>  <Chi4n>  (41) 
1.437121

>  <Chi4v>  (41) 
2.390162

>  <HallKierAlpha>  (41) 
-1.46

>  <Ipc>  (41) 
3060.662649

>  <Kappa1>  (41) 
10.071286

>  <Kappa2>  (41) 
3.599298

>  <Kappa3>  (41) 
1.710294

>  <LabuteASA>  (41) 
88.008296

>  <PEOE_VSA1>  (41) 
0.0

>  <PEOE_VSA10>  (41) 
0.0

>  <PEOE_VSA11>  (41) 
0.0

>  <PEOE_VSA12>  (41) 
10.023291

>  <PEOE_VSA13>  (41) 
0.0

>  <PEOE_VSA14>  (41) 
0.0

>  <PEOE_VSA2>  (41) 
4.983979

>  <PEOE_VSA3>  (41) 
13.139892

>  <PEOE_VSA4>  (41) 
0.0

>  <PEOE_VSA5>  (41) 
0.0

>  <PEOE_VSA6>  (41) 
12.132734

>  <PEOE_VSA7>  (41) 
19.180406

>  <PEOE_VSA8>  (41) 
23.166136

>  <PEOE_VSA9>  (41) 
4.895483

>  <SMR_VSA1>  (41) 
8.417797

>  <SMR_VSA10>  (41) 
20.79574

>  <SMR_VSA2>  (41) 
0.0

>  <SMR_VSA3>  (41) 
9.706073

>  <SMR_VSA4>  (41) 
0.0

>  <SMR_VSA5>  (41) 
4.895483

>  <SMR_VSA6>  (41) 
7.047672

>  <SMR_VSA7>  (41) 
36.659155

>  <SMR_VSA8>  (41) 
0.0

>  <SMR_VSA9>  (41) 
0.0

>  <SlogP_VSA1>  (41) 
4.722095

>  <SlogP_VSA10>  (41) 
0.0

>  <SlogP_VSA11>  (41) 
0.0

>  <SlogP_VSA12>  (41) 
0.0

>  <SlogP_VSA2>  (41) 
20.449447

>  <SlogP_VSA3>  (41) 
10.023291

>  <SlogP_VSA4>  (41) 
0.0

>  <SlogP_VSA5>  (41) 
0.0

>  <SlogP_VSA6>  (41) 
41.554639

>  <SlogP_VSA7>  (41) 
0.0

>  <SlogP_VSA8>  (41) 
10.772448

>  <SlogP_VSA9>  (41) 
0.0

>  <EState_VSA1>  (41) 
10.023291

>  <EState_VSA10>  (41) 
8.417797

>  <EState_VSA11>  (41) 
0.0

>  <EState_VSA2>  (41) 
4.895483

>  <EState_VSA3>  (41) 
5.386224

>  <EState_VSA4>  (41) 
5.386224

>  <EState_VSA5>  (41) 
7.047672

>  <EState_VSA6>  (41) 
30.592788

>  <EState_VSA7>  (41) 
6.066367

>  <EState_VSA8>  (41) 
9.706073

>  <EState_VSA9>  (41) 
0.0

>  <VSA_EState1>  (41) 
25.668339

>  <VSA_EState10>  (41) 
0.0

>  <VSA_EState2>  (41) 
4.228953

>  <VSA_EState3>  (41) 
1.495995

>  <VSA_EState4>  (41) 
0.0

>  <VSA_EState5>  (41) 
0.0

>  <VSA_EState6>  (41) 
6.804537

>  <VSA_EState7>  (41) 
3.223241

>  <VSA_EState8>  (41) 
0.0

>  <VSA_EState9>  (41) 
-2.004398

>  <FractionCSP3>  (41) 
0.1

>  <HeavyAtomCount>  (41) 
15

>  <NHOHCount>  (41) 
1

>  <NOCount>  (41) 
4

>  <NumAliphaticCarbocycles>  (41) 
0

>  <NumAliphaticHeterocycles>  (41) 
0

>  <NumAliphaticRings>  (41) 
0

>  <NumAromaticCarbocycles>  (41) 
1

>  <NumAromaticHeterocycles>  (41) 
1

>  <NAR>  (41) 
2

>  <NumHAcceptors>  (41) 
3

>  <NumHDonors>  (41) 
1

>  <NumHeteroatoms>  (41) 
5

>  <NumRotatableBonds>  (41) 
2

>  <NumSaturatedCarbocycles>  (41) 
0

>  <NumSaturatedHeterocycles>  (41) 
0

>  <NumSaturatedRings>  (41) 
0

>  <RingCount>  (41) 
2

>  <MolLogP>  (41) 
1.1429

>  <MolMR>  (41) 
57.9885

>  <fr_Al_COO>  (41) 
0

>  <fr_Al_OH>  (41) 
0

>  <fr_Al_OH_noTert>  (41) 
0

>  <fr_ArN>  (41) 
0

>  <fr_Ar_COO>  (41) 
0

>  <fr_Ar_N>  (41) 
1

>  <fr_Ar_NH>  (41) 
0

>  <fr_Ar_OH>  (41) 
0

>  <fr_COO>  (41) 
0

>  <fr_COO2>  (41) 
0

>  <fr_C_O>  (41) 
0

>  <fr_C_O_noCOO>  (41) 
0

>  <fr_C_S>  (41) 
0

>  <fr_HOCCN>  (41) 
0

>  <fr_Imine>  (41) 
0

>  <fr_NH0>  (41) 
1

>  <fr_NH1>  (41) 
1

>  <fr_NH2>  (41) 
0

>  <fr_N_O>  (41) 
0

>  <fr_Ndealkylation1>  (41) 
0

>  <fr_Ndealkylation2>  (41) 
0

>  <fr_Nhpyrrole>  (41) 
0

>  <fr_SH>  (41) 
0

>  <fr_aldehyde>  (41) 
0

>  <fr_alkyl_carbamate>  (41) 
0

>  <fr_alkyl_halide>  (41) 
0

>  <fr_allylic_oxid>  (41) 
0

>  <fr_amide>  (41) 
0

>  <fr_amidine>  (41) 
0

>  <fr_aniline>  (41) 
0

>  <fr_aryl_methyl>  (41) 
0

>  <fr_azide>  (41) 
0

>  <fr_azo>  (41) 
0

>  <fr_barbitur>  (41) 
0

>  <fr_benzene>  (41) 
1

>  <fr_benzodiazepine>  (41) 
0

>  <fr_bicyclic>  (41) 
1

>  <fr_diazo>  (41) 
0

>  <fr_dihydropyridine>  (41) 
0

>  <fr_epoxide>  (41) 
0

>  <fr_ester>  (41) 
0

>  <fr_ether>  (41) 
0

>  <fr_furan>  (41) 
0

>  <fr_guanido>  (41) 
0

>  <fr_halogen>  (41) 
0

>  <fr_hdrzine>  (41) 
0

>  <fr_hdrzone>  (41) 
0

>  <fr_imidazole>  (41) 
0

>  <fr_imide>  (41) 
0

>  <fr_isocyan>  (41) 
0

>  <fr_isothiocyan>  (41) 
0

>  <fr_ketone>  (41) 
0

>  <fr_ketone_Topliss>  (41) 
0

>  <fr_lactam>  (41) 
0

>  <fr_lactone>  (41) 
0

>  <fr_methoxy>  (41) 
0

>  <fr_morpholine>  (41) 
0

>  <fr_nitrile>  (41) 
0

>  <fr_nitro>  (41) 
0

>  <fr_nitro_arom>  (41) 
0

>  <fr_nitro_arom_nonortho>  (41) 
0

>  <fr_nitroso>  (41) 
0

>  <fr_oxazole>  (41) 
0

>  <fr_oxime>  (41) 
0

>  <fr_para_hydroxylation>  (41) 
0

>  <fr_phenol>  (41) 
0

>  <fr_phenol_noOrthoHbond>  (41) 
0

>  <fr_phos_acid>  (41) 
0

>  <fr_phos_ester>  (41) 
0

>  <fr_piperdine>  (41) 
0

>  <fr_piperzine>  (41) 
0

>  <fr_priamide>  (41) 
0

>  <fr_prisulfonamd>  (41) 
0

>  <fr_pyridine>  (41) 
1

>  <fr_quatN>  (41) 
0

>  <fr_sulfide>  (41) 
0

>  <fr_sulfonamd>  (41) 
1

>  <fr_sulfone>  (41) 
0

>  <fr_term_acetylene>  (41) 
0

>  <fr_tetrazole>  (41) 
0

>  <fr_thiazole>  (41) 
0

>  <fr_thiocyan>  (41) 
0

>  <fr_thiophene>  (41) 
0

>  <fr_unbrch_alkane>  (41) 
0

>  <fr_urea>  (41) 
0

>  <NP-Likeness>  (41) 
-1.6448

$$$$
7CT
     RDKit          3D

  0  0  0  0  0  0  0  0  0  0999 V3000
M  V30 BEGIN CTAB
M  V30 COUNTS 25 26 0 0 0
M  V30 BEGIN ATOM
M  V30 1 C 1.341536 0.295840 3.483237 0
M  V30 2 N 1.007461 -0.816208 4.195202 0
M  V30 3 C 0.544744 -1.909825 3.522389 0
M  V30 4 C 0.441967 -1.821023 2.140914 0
M  V30 5 C -0.018645 -2.899205 1.432319 0
M  V30 6 C -0.144658 -2.873882 0.048808 0
M  V30 7 C 0.206196 -1.725957 -0.624701 0
M  V30 8 C 0.677396 -0.610293 0.053024 0
M  V30 9 S 1.130404 0.862059 -0.780231 0
M  V30 10 O 2.583665 1.161578 -0.601913 0
M  V30 11 O 0.906884 0.624925 -2.260251 0
M  V30 12 N 0.133626 2.129607 -0.183245 0
M  V30 13 C -1.243064 1.831144 -0.471311 0
M  V30 14 C 0.787398 -0.681545 1.443251 0
M  V30 15 C 1.255907 0.428019 2.116131 0
M  V30 16 H 1.700023 1.109747 4.128043 0
M  V30 17 H 0.251333 -2.841338 3.979790 0
M  V30 18 H -0.306910 -3.824515 1.919611 0
M  V30 19 H -0.495346 -3.672490 -0.573424 0
M  V30 20 H 0.144348 -1.606746 -1.700363 0
M  V30 21 H 0.449492 3.067672 -0.438896 0
M  V30 22 H -1.472410 1.899048 -1.562294 0
M  V30 23 H -1.385285 0.739626 -0.238974 0
M  V30 24 H -1.954537 2.381842 0.153833 0
M  V30 25 H 1.543921 1.347284 1.649011 0
M  V30 END ATOM
M  V30 BEGIN BOND
M  V30 1 2 1 2
M  V30 2 1 2 3
M  V30 3 2 3 4
M  V30 4 1 4 5
M  V30 5 2 5 6
M  V30 6 1 6 7
M  V30 7 2 7 8
M  V30 8 1 8 9
M  V30 9 2 9 10
M  V30 10 2 9 11
M  V30 11 1 9 12
M  V30 12 1 12 13
M  V30 13 1 8 14
M  V30 14 2 14 15
M  V30 15 1 15 1
M  V30 16 1 14 4
M  V30 17 1 1 16
M  V30 18 1 3 17
M  V30 19 1 5 18
M  V30 20 1 6 19
M  V30 21 1 7 20
M  V30 22 1 12 21
M  V30 23 1 13 22
M  V30 24 1 13 23
M  V30 25 1 13 24
M  V30 26 1 15 25
M  V30 END BOND
M  V30 END CTAB
M  END
>  <Dataset>  (42) 
PDB

>  <Ligand_Instance>  (42) 
5M0L_7CT_A_402

>  <PDB_ID>  (42) 
5M0L

>  <Standardized_SMILES>  (42) 
[H]C1=NC([H])=C2C([H])=C([H])C([H])=C(S(=O)(=O)N([H])C([H])([H])[H])C2=C1[H]

>  <Name>  (42) 
~{N}-methylisoquinoline-5-sulfonamide

>  <Pocket>  (42) 
X

>  <ATP_Site>  (42) 
1.0

>  <Peripheral>  (42) 
1.0

>  <Num_H_Atoms_ProtBoundConf>  (42) 
10.0

>  <Num_Resolved_Atoms>  (42) 
15.0

>  <Num_Not_Resolved_Atoms>  (42) 
0.0

>  <2D_Mol_H>  (42) 
<rdkit.Chem.rdchem.Mol object at 0x72a238dc4c10>

>  <MW>  (42) 
222.269

>  <HBA>  (42) 
3

>  <HBD>  (42) 
1

>  <LogP>  (42) 
1.1429

>  <NRB>  (42) 
3

>  <TPSA>  (42) 
59.06

>  <Num_Heavy_Atoms>  (42) 
15

>  <Ro5>  (42) 
[True, True, True, True, True, True]

>  <Ro5_Fulfilled>  (42) 
True

>  <Ro3>  (42) 
[True, True, True, True]

>  <Ro3_Fulfilled>  (42) 
True

>  <Fsp3>  (42) 
0.1

>  <Fsp3_0.42>  (42) 
False

>  <Fsp3_0.45>  (42) 
False

>  <Stereogenic_Carbons>  (42) 
0

>  <C_Atoms>  (42) 
10

>  <FCStereo>  (42) 
0.0

>  <SPS>  (42) 
177

>  <nSPS>  (42) 
11.8

>  <PBF>  (42) 
0.689295

>  <PBF_0.6>  (42) 
True

>  <nPBF>  (42) 
0.045953

>  <nPBF_0.016>  (42) 
True

>  <PMI1>  (42) 
541.945484

>  <PMI2>  (42) 
1073.267885

>  <PMI3>  (42) 
1326.326462

>  <NPR1>  (42) 
0.408606

>  <NPR2>  (42) 
0.809203

>  <Sum_NPR>  (42) 
1.21781

>  <Sum_NPR_1.07>  (42) 
True

>  <Sum_NPR_1.2>  (42) 
True

>  <MaxAbsEStateIndex>  (42) 
11.683392

>  <MaxEStateIndex>  (42) 
11.683392

>  <MinAbsEStateIndex>  (42) 
0.282315

>  <MinEStateIndex>  (42) 
-3.402569

>  <qed>  (42) 
0.828609

>  <MolWt>  (42) 
222.269

>  <HeavyAtomMolWt>  (42) 
212.189

>  <ExactMolWt>  (42) 
222.046299

>  <NumValenceElectrons>  (42) 
78

>  <NumRadicalElectrons>  (42) 
0

>  <MaxPartialCharge>  (42) 
0.240429

>  <MinPartialCharge>  (42) 
-0.264064

>  <MaxAbsPartialCharge>  (42) 
0.264064

>  <MinAbsPartialCharge>  (42) 
0.240429

>  <FpDensityMorgan1>  (42) 
1.266667

>  <FpDensityMorgan2>  (42) 
2.066667

>  <FpDensityMorgan3>  (42) 
2.8

>  <BCUT2D_MWHI>  (42) 
32.23327

>  <BCUT2D_MWLOW>  (42) 
10.168353

>  <BCUT2D_CHGHI>  (42) 
2.135682

>  <BCUT2D_CHGLO>  (42) 
-2.052244

>  <BCUT2D_LOGPHI>  (42) 
2.206868

>  <BCUT2D_LOGPLOW>  (42) 
-2.182712

>  <BCUT2D_MRHI>  (42) 
7.893087

>  <BCUT2D_MRLOW>  (42) 
0.588932

>  <AvgIpc>  (42) 
2.280673

>  <BalabanJ>  (42) 
2.83096

>  <BertzCT>  (42) 
587.898807

>  <Chi0>  (42) 
10.888905

>  <Chi0n>  (42) 
8.13606

>  <Chi0v>  (42) 
8.952557

>  <Chi1>  (42) 
7.148995

>  <Chi1n>  (42) 
4.41268

>  <Chi1v>  (42) 
5.895843

>  <Chi2n>  (42) 
3.060521

>  <Chi2v>  (42) 
4.915469

>  <Chi3n>  (42) 
2.198979

>  <Chi3v>  (42) 
3.671463

>  <Chi4n>  (42) 
1.437121

>  <Chi4v>  (42) 
2.390162

>  <HallKierAlpha>  (42) 
-1.46

>  <Ipc>  (42) 
3060.662649

>  <Kappa1>  (42) 
10.071286

>  <Kappa2>  (42) 
3.599298

>  <Kappa3>  (42) 
1.710294

>  <LabuteASA>  (42) 
88.008296

>  <PEOE_VSA1>  (42) 
0.0

>  <PEOE_VSA10>  (42) 
0.0

>  <PEOE_VSA11>  (42) 
0.0

>  <PEOE_VSA12>  (42) 
10.023291

>  <PEOE_VSA13>  (42) 
0.0

>  <PEOE_VSA14>  (42) 
0.0

>  <PEOE_VSA2>  (42) 
4.983979

>  <PEOE_VSA3>  (42) 
13.139892

>  <PEOE_VSA4>  (42) 
0.0

>  <PEOE_VSA5>  (42) 
0.0

>  <PEOE_VSA6>  (42) 
12.132734

>  <PEOE_VSA7>  (42) 
19.180406

>  <PEOE_VSA8>  (42) 
23.166136

>  <PEOE_VSA9>  (42) 
4.895483

>  <SMR_VSA1>  (42) 
8.417797

>  <SMR_VSA10>  (42) 
20.79574

>  <SMR_VSA2>  (42) 
0.0

>  <SMR_VSA3>  (42) 
9.706073

>  <SMR_VSA4>  (42) 
0.0

>  <SMR_VSA5>  (42) 
4.895483

>  <SMR_VSA6>  (42) 
7.047672

>  <SMR_VSA7>  (42) 
36.659155

>  <SMR_VSA8>  (42) 
0.0

>  <SMR_VSA9>  (42) 
0.0

>  <SlogP_VSA1>  (42) 
4.722095

>  <SlogP_VSA10>  (42) 
0.0

>  <SlogP_VSA11>  (42) 
0.0

>  <SlogP_VSA12>  (42) 
0.0

>  <SlogP_VSA2>  (42) 
20.449447

>  <SlogP_VSA3>  (42) 
10.023291

>  <SlogP_VSA4>  (42) 
0.0

>  <SlogP_VSA5>  (42) 
0.0

>  <SlogP_VSA6>  (42) 
41.554639

>  <SlogP_VSA7>  (42) 
0.0

>  <SlogP_VSA8>  (42) 
10.772448

>  <SlogP_VSA9>  (42) 
0.0

>  <EState_VSA1>  (42) 
10.023291

>  <EState_VSA10>  (42) 
8.417797

>  <EState_VSA11>  (42) 
0.0

>  <EState_VSA2>  (42) 
4.895483

>  <EState_VSA3>  (42) 
5.386224

>  <EState_VSA4>  (42) 
5.386224

>  <EState_VSA5>  (42) 
7.047672

>  <EState_VSA6>  (42) 
30.592788

>  <EState_VSA7>  (42) 
6.066367

>  <EState_VSA8>  (42) 
9.706073

>  <EState_VSA9>  (42) 
0.0

>  <VSA_EState1>  (42) 
25.668339

>  <VSA_EState10>  (42) 
0.0

>  <VSA_EState2>  (42) 
4.228953

>  <VSA_EState3>  (42) 
1.495995

>  <VSA_EState4>  (42) 
0.0

>  <VSA_EState5>  (42) 
0.0

>  <VSA_EState6>  (42) 
6.804537

>  <VSA_EState7>  (42) 
3.223241

>  <VSA_EState8>  (42) 
0.0

>  <VSA_EState9>  (42) 
-2.004398

>  <FractionCSP3>  (42) 
0.1

>  <HeavyAtomCount>  (42) 
15

>  <NHOHCount>  (42) 
1

>  <NOCount>  (42) 
4

>  <NumAliphaticCarbocycles>  (42) 
0

>  <NumAliphaticHeterocycles>  (42) 
0

>  <NumAliphaticRings>  (42) 
0

>  <NumAromaticCarbocycles>  (42) 
1

>  <NumAromaticHeterocycles>  (42) 
1

>  <NAR>  (42) 
2

>  <NumHAcceptors>  (42) 
3

>  <NumHDonors>  (42) 
1

>  <NumHeteroatoms>  (42) 
5

>  <NumRotatableBonds>  (42) 
2

>  <NumSaturatedCarbocycles>  (42) 
0

>  <NumSaturatedHeterocycles>  (42) 
0

>  <NumSaturatedRings>  (42) 
0

>  <RingCount>  (42) 
2

>  <MolLogP>  (42) 
1.1429

>  <MolMR>  (42) 
57.9885

>  <fr_Al_COO>  (42) 
0

>  <fr_Al_OH>  (42) 
0

>  <fr_Al_OH_noTert>  (42) 
0

>  <fr_ArN>  (42) 
0

>  <fr_Ar_COO>  (42) 
0

>  <fr_Ar_N>  (42) 
1

>  <fr_Ar_NH>  (42) 
0

>  <fr_Ar_OH>  (42) 
0

>  <fr_COO>  (42) 
0

>  <fr_COO2>  (42) 
0

>  <fr_C_O>  (42) 
0

>  <fr_C_O_noCOO>  (42) 
0

>  <fr_C_S>  (42) 
0

>  <fr_HOCCN>  (42) 
0

>  <fr_Imine>  (42) 
0

>  <fr_NH0>  (42) 
1

>  <fr_NH1>  (42) 
1

>  <fr_NH2>  (42) 
0

>  <fr_N_O>  (42) 
0

>  <fr_Ndealkylation1>  (42) 
0

>  <fr_Ndealkylation2>  (42) 
0

>  <fr_Nhpyrrole>  (42) 
0

>  <fr_SH>  (42) 
0

>  <fr_aldehyde>  (42) 
0

>  <fr_alkyl_carbamate>  (42) 
0

>  <fr_alkyl_halide>  (42) 
0

>  <fr_allylic_oxid>  (42) 
0

>  <fr_amide>  (42) 
0

>  <fr_amidine>  (42) 
0

>  <fr_aniline>  (42) 
0

>  <fr_aryl_methyl>  (42) 
0

>  <fr_azide>  (42) 
0

>  <fr_azo>  (42) 
0

>  <fr_barbitur>  (42) 
0

>  <fr_benzene>  (42) 
1

>  <fr_benzodiazepine>  (42) 
0

>  <fr_bicyclic>  (42) 
1

>  <fr_diazo>  (42) 
0

>  <fr_dihydropyridine>  (42) 
0

>  <fr_epoxide>  (42) 
0

>  <fr_ester>  (42) 
0

>  <fr_ether>  (42) 
0

>  <fr_furan>  (42) 
0

>  <fr_guanido>  (42) 
0

>  <fr_halogen>  (42) 
0

>  <fr_hdrzine>  (42) 
0

>  <fr_hdrzone>  (42) 
0

>  <fr_imidazole>  (42) 
0

>  <fr_imide>  (42) 
0

>  <fr_isocyan>  (42) 
0

>  <fr_isothiocyan>  (42) 
0

>  <fr_ketone>  (42) 
0

>  <fr_ketone_Topliss>  (42) 
0

>  <fr_lactam>  (42) 
0

>  <fr_lactone>  (42) 
0

>  <fr_methoxy>  (42) 
0

>  <fr_morpholine>  (42) 
0

>  <fr_nitrile>  (42) 
0

>  <fr_nitro>  (42) 
0

>  <fr_nitro_arom>  (42) 
0

>  <fr_nitro_arom_nonortho>  (42) 
0

>  <fr_nitroso>  (42) 
0

>  <fr_oxazole>  (42) 
0

>  <fr_oxime>  (42) 
0

>  <fr_para_hydroxylation>  (42) 
0

>  <fr_phenol>  (42) 
0

>  <fr_phenol_noOrthoHbond>  (42) 
0

>  <fr_phos_acid>  (42) 
0

>  <fr_phos_ester>  (42) 
0

>  <fr_piperdine>  (42) 
0

>  <fr_piperzine>  (42) 
0

>  <fr_priamide>  (42) 
0

>  <fr_prisulfonamd>  (42) 
0

>  <fr_pyridine>  (42) 
1

>  <fr_quatN>  (42) 
0

>  <fr_sulfide>  (42) 
0

>  <fr_sulfonamd>  (42) 
1

>  <fr_sulfone>  (42) 
0

>  <fr_term_acetylene>  (42) 
0

>  <fr_tetrazole>  (42) 
0

>  <fr_thiazole>  (42) 
0

>  <fr_thiocyan>  (42) 
0

>  <fr_thiophene>  (42) 
0

>  <fr_unbrch_alkane>  (42) 
0

>  <fr_urea>  (42) 
0

>  <NP-Likeness>  (42) 
-1.6448

$$$$
7CT
     RDKit          3D

  0  0  0  0  0  0  0  0  0  0999 V3000
M  V30 BEGIN CTAB
M  V30 COUNTS 25 26 0 0 0
M  V30 BEGIN ATOM
M  V30 1 C 1.341536 0.295840 3.483237 0
M  V30 2 N 1.007461 -0.816208 4.195202 0
M  V30 3 C 0.544744 -1.909825 3.522389 0
M  V30 4 C 0.441967 -1.821023 2.140914 0
M  V30 5 C -0.018645 -2.899205 1.432319 0
M  V30 6 C -0.144658 -2.873882 0.048808 0
M  V30 7 C 0.206196 -1.725957 -0.624701 0
M  V30 8 C 0.677396 -0.610293 0.053024 0
M  V30 9 S 1.130404 0.862059 -0.780231 0
M  V30 10 O 2.583665 1.161578 -0.601913 0
M  V30 11 O 0.906884 0.624925 -2.260251 0
M  V30 12 N 0.133626 2.129607 -0.183245 0
M  V30 13 C -1.243064 1.831144 -0.471311 0
M  V30 14 C 0.787398 -0.681545 1.443251 0
M  V30 15 C 1.255907 0.428019 2.116131 0
M  V30 16 H 1.700023 1.109747 4.128043 0
M  V30 17 H 0.251333 -2.841338 3.979790 0
M  V30 18 H -0.306910 -3.824515 1.919611 0
M  V30 19 H -0.495346 -3.672490 -0.573424 0
M  V30 20 H 0.144348 -1.606746 -1.700363 0
M  V30 21 H 0.449492 3.067672 -0.438896 0
M  V30 22 H -1.472410 1.899048 -1.562294 0
M  V30 23 H -1.385285 0.739626 -0.238974 0
M  V30 24 H -1.954537 2.381842 0.153833 0
M  V30 25 H 1.543921 1.347284 1.649011 0
M  V30 END ATOM
M  V30 BEGIN BOND
M  V30 1 2 1 2
M  V30 2 1 2 3
M  V30 3 2 3 4
M  V30 4 1 4 5
M  V30 5 2 5 6
M  V30 6 1 6 7
M  V30 7 2 7 8
M  V30 8 1 8 9
M  V30 9 2 9 10
M  V30 10 2 9 11
M  V30 11 1 9 12
M  V30 12 1 12 13
M  V30 13 1 8 14
M  V30 14 2 14 15
M  V30 15 1 15 1
M  V30 16 1 14 4
M  V30 17 1 1 16
M  V30 18 1 3 17
M  V30 19 1 5 18
M  V30 20 1 6 19
M  V30 21 1 7 20
M  V30 22 1 12 21
M  V30 23 1 13 22
M  V30 24 1 13 23
M  V30 25 1 13 24
M  V30 26 1 15 25
M  V30 END BOND
M  V30 END CTAB
M  END
>  <Dataset>  (43) 
PDB

>  <Ligand_Instance>  (43) 
6YNC_7CT_A_401

>  <PDB_ID>  (43) 
6YNC

>  <Standardized_SMILES>  (43) 
[H]C1=NC([H])=C2C([H])=C([H])C([H])=C(S(=O)(=O)N([H])C([H])([H])[H])C2=C1[H]

>  <Name>  (43) 
~{N}-methylisoquinoline-5-sulfonamide

>  <Pocket>  (43) 
A

>  <ATP_Site>  (43) 
1.0

>  <Peripheral>  (43) 
0.0

>  <Num_H_Atoms_ProtBoundConf>  (43) 
10.0

>  <Num_Resolved_Atoms>  (43) 
15.0

>  <Num_Not_Resolved_Atoms>  (43) 
0.0

>  <2D_Mol_H>  (43) 
<rdkit.Chem.rdchem.Mol object at 0x72a238dc4cf0>

>  <MW>  (43) 
222.269

>  <HBA>  (43) 
3

>  <HBD>  (43) 
1

>  <LogP>  (43) 
1.1429

>  <NRB>  (43) 
3

>  <TPSA>  (43) 
59.06

>  <Num_Heavy_Atoms>  (43) 
15

>  <Ro5>  (43) 
[True, True, True, True, True, True]

>  <Ro5_Fulfilled>  (43) 
True

>  <Ro3>  (43) 
[True, True, True, True]

>  <Ro3_Fulfilled>  (43) 
True

>  <Fsp3>  (43) 
0.1

>  <Fsp3_0.42>  (43) 
False

>  <Fsp3_0.45>  (43) 
False

>  <Stereogenic_Carbons>  (43) 
0

>  <C_Atoms>  (43) 
10

>  <FCStereo>  (43) 
0.0

>  <SPS>  (43) 
177

>  <nSPS>  (43) 
11.8

>  <PBF>  (43) 
0.689295

>  <PBF_0.6>  (43) 
True

>  <nPBF>  (43) 
0.045953

>  <nPBF_0.016>  (43) 
True

>  <PMI1>  (43) 
541.945484

>  <PMI2>  (43) 
1073.267885

>  <PMI3>  (43) 
1326.326462

>  <NPR1>  (43) 
0.408606

>  <NPR2>  (43) 
0.809203

>  <Sum_NPR>  (43) 
1.21781

>  <Sum_NPR_1.07>  (43) 
True

>  <Sum_NPR_1.2>  (43) 
True

>  <MaxAbsEStateIndex>  (43) 
11.683392

>  <MaxEStateIndex>  (43) 
11.683392

>  <MinAbsEStateIndex>  (43) 
0.282315

>  <MinEStateIndex>  (43) 
-3.402569

>  <qed>  (43) 
0.828609

>  <MolWt>  (43) 
222.269

>  <HeavyAtomMolWt>  (43) 
212.189

>  <ExactMolWt>  (43) 
222.046299

>  <NumValenceElectrons>  (43) 
78

>  <NumRadicalElectrons>  (43) 
0

>  <MaxPartialCharge>  (43) 
0.240429

>  <MinPartialCharge>  (43) 
-0.264064

>  <MaxAbsPartialCharge>  (43) 
0.264064

>  <MinAbsPartialCharge>  (43) 
0.240429

>  <FpDensityMorgan1>  (43) 
1.266667

>  <FpDensityMorgan2>  (43) 
2.066667

>  <FpDensityMorgan3>  (43) 
2.8

>  <BCUT2D_MWHI>  (43) 
32.23327

>  <BCUT2D_MWLOW>  (43) 
10.168353

>  <BCUT2D_CHGHI>  (43) 
2.135682

>  <BCUT2D_CHGLO>  (43) 
-2.052244

>  <BCUT2D_LOGPHI>  (43) 
2.206868

>  <BCUT2D_LOGPLOW>  (43) 
-2.182712

>  <BCUT2D_MRHI>  (43) 
7.893087

>  <BCUT2D_MRLOW>  (43) 
0.588932

>  <AvgIpc>  (43) 
2.280673

>  <BalabanJ>  (43) 
2.83096

>  <BertzCT>  (43) 
587.898807

>  <Chi0>  (43) 
10.888905

>  <Chi0n>  (43) 
8.13606

>  <Chi0v>  (43) 
8.952557

>  <Chi1>  (43) 
7.148995

>  <Chi1n>  (43) 
4.41268

>  <Chi1v>  (43) 
5.895843

>  <Chi2n>  (43) 
3.060521

>  <Chi2v>  (43) 
4.915469

>  <Chi3n>  (43) 
2.198979

>  <Chi3v>  (43) 
3.671463

>  <Chi4n>  (43) 
1.437121

>  <Chi4v>  (43) 
2.390162

>  <HallKierAlpha>  (43) 
-1.46

>  <Ipc>  (43) 
3060.662649

>  <Kappa1>  (43) 
10.071286

>  <Kappa2>  (43) 
3.599298

>  <Kappa3>  (43) 
1.710294

>  <LabuteASA>  (43) 
88.008296

>  <PEOE_VSA1>  (43) 
0.0

>  <PEOE_VSA10>  (43) 
0.0

>  <PEOE_VSA11>  (43) 
0.0

>  <PEOE_VSA12>  (43) 
10.023291

>  <PEOE_VSA13>  (43) 
0.0

>  <PEOE_VSA14>  (43) 
0.0

>  <PEOE_VSA2>  (43) 
4.983979

>  <PEOE_VSA3>  (43) 
13.139892

>  <PEOE_VSA4>  (43) 
0.0

>  <PEOE_VSA5>  (43) 
0.0

>  <PEOE_VSA6>  (43) 
12.132734

>  <PEOE_VSA7>  (43) 
19.180406

>  <PEOE_VSA8>  (43) 
23.166136

>  <PEOE_VSA9>  (43) 
4.895483

>  <SMR_VSA1>  (43) 
8.417797

>  <SMR_VSA10>  (43) 
20.79574

>  <SMR_VSA2>  (43) 
0.0

>  <SMR_VSA3>  (43) 
9.706073

>  <SMR_VSA4>  (43) 
0.0

>  <SMR_VSA5>  (43) 
4.895483

>  <SMR_VSA6>  (43) 
7.047672

>  <SMR_VSA7>  (43) 
36.659155

>  <SMR_VSA8>  (43) 
0.0

>  <SMR_VSA9>  (43) 
0.0

>  <SlogP_VSA1>  (43) 
4.722095

>  <SlogP_VSA10>  (43) 
0.0

>  <SlogP_VSA11>  (43) 
0.0

>  <SlogP_VSA12>  (43) 
0.0

>  <SlogP_VSA2>  (43) 
20.449447

>  <SlogP_VSA3>  (43) 
10.023291

>  <SlogP_VSA4>  (43) 
0.0

>  <SlogP_VSA5>  (43) 
0.0

>  <SlogP_VSA6>  (43) 
41.554639

>  <SlogP_VSA7>  (43) 
0.0

>  <SlogP_VSA8>  (43) 
10.772448

>  <SlogP_VSA9>  (43) 
0.0

>  <EState_VSA1>  (43) 
10.023291

>  <EState_VSA10>  (43) 
8.417797

>  <EState_VSA11>  (43) 
0.0

>  <EState_VSA2>  (43) 
4.895483

>  <EState_VSA3>  (43) 
5.386224

>  <EState_VSA4>  (43) 
5.386224

>  <EState_VSA5>  (43) 
7.047672

>  <EState_VSA6>  (43) 
30.592788

>  <EState_VSA7>  (43) 
6.066367

>  <EState_VSA8>  (43) 
9.706073

>  <EState_VSA9>  (43) 
0.0

>  <VSA_EState1>  (43) 
25.668339

>  <VSA_EState10>  (43) 
0.0

>  <VSA_EState2>  (43) 
4.228953

>  <VSA_EState3>  (43) 
1.495995

>  <VSA_EState4>  (43) 
0.0

>  <VSA_EState5>  (43) 
0.0

>  <VSA_EState6>  (43) 
6.804537

>  <VSA_EState7>  (43) 
3.223241

>  <VSA_EState8>  (43) 
0.0

>  <VSA_EState9>  (43) 
-2.004398

>  <FractionCSP3>  (43) 
0.1

>  <HeavyAtomCount>  (43) 
15

>  <NHOHCount>  (43) 
1

>  <NOCount>  (43) 
4

>  <NumAliphaticCarbocycles>  (43) 
0

>  <NumAliphaticHeterocycles>  (43) 
0

>  <NumAliphaticRings>  (43) 
0

>  <NumAromaticCarbocycles>  (43) 
1

>  <NumAromaticHeterocycles>  (43) 
1

>  <NAR>  (43) 
2

>  <NumHAcceptors>  (43) 
3

>  <NumHDonors>  (43) 
1

>  <NumHeteroatoms>  (43) 
5

>  <NumRotatableBonds>  (43) 
2

>  <NumSaturatedCarbocycles>  (43) 
0

>  <NumSaturatedHeterocycles>  (43) 
0

>  <NumSaturatedRings>  (43) 
0

>  <RingCount>  (43) 
2

>  <MolLogP>  (43) 
1.1429

>  <MolMR>  (43) 
57.9885

>  <fr_Al_COO>  (43) 
0

>  <fr_Al_OH>  (43) 
0

>  <fr_Al_OH_noTert>  (43) 
0

>  <fr_ArN>  (43) 
0

>  <fr_Ar_COO>  (43) 
0

>  <fr_Ar_N>  (43) 
1

>  <fr_Ar_NH>  (43) 
0

>  <fr_Ar_OH>  (43) 
0

>  <fr_COO>  (43) 
0

>  <fr_COO2>  (43) 
0

>  <fr_C_O>  (43) 
0

>  <fr_C_O_noCOO>  (43) 
0

>  <fr_C_S>  (43) 
0

>  <fr_HOCCN>  (43) 
0

>  <fr_Imine>  (43) 
0

>  <fr_NH0>  (43) 
1

>  <fr_NH1>  (43) 
1

>  <fr_NH2>  (43) 
0

>  <fr_N_O>  (43) 
0

>  <fr_Ndealkylation1>  (43) 
0

>  <fr_Ndealkylation2>  (43) 
0

>  <fr_Nhpyrrole>  (43) 
0

>  <fr_SH>  (43) 
0

>  <fr_aldehyde>  (43) 
0

>  <fr_alkyl_carbamate>  (43) 
0

>  <fr_alkyl_halide>  (43) 
0

>  <fr_allylic_oxid>  (43) 
0

>  <fr_amide>  (43) 
0

>  <fr_amidine>  (43) 
0

>  <fr_aniline>  (43) 
0

>  <fr_aryl_methyl>  (43) 
0

>  <fr_azide>  (43) 
0

>  <fr_azo>  (43) 
0

>  <fr_barbitur>  (43) 
0

>  <fr_benzene>  (43) 
1

>  <fr_benzodiazepine>  (43) 
0

>  <fr_bicyclic>  (43) 
1

>  <fr_diazo>  (43) 
0

>  <fr_dihydropyridine>  (43) 
0

>  <fr_epoxide>  (43) 
0

>  <fr_ester>  (43) 
0

>  <fr_ether>  (43) 
0

>  <fr_furan>  (43) 
0

>  <fr_guanido>  (43) 
0

>  <fr_halogen>  (43) 
0

>  <fr_hdrzine>  (43) 
0

>  <fr_hdrzone>  (43) 
0

>  <fr_imidazole>  (43) 
0

>  <fr_imide>  (43) 
0

>  <fr_isocyan>  (43) 
0

>  <fr_isothiocyan>  (43) 
0

>  <fr_ketone>  (43) 
0

>  <fr_ketone_Topliss>  (43) 
0

>  <fr_lactam>  (43) 
0

>  <fr_lactone>  (43) 
0

>  <fr_methoxy>  (43) 
0

>  <fr_morpholine>  (43) 
0

>  <fr_nitrile>  (43) 
0

>  <fr_nitro>  (43) 
0

>  <fr_nitro_arom>  (43) 
0

>  <fr_nitro_arom_nonortho>  (43) 
0

>  <fr_nitroso>  (43) 
0

>  <fr_oxazole>  (43) 
0

>  <fr_oxime>  (43) 
0

>  <fr_para_hydroxylation>  (43) 
0

>  <fr_phenol>  (43) 
0

>  <fr_phenol_noOrthoHbond>  (43) 
0

>  <fr_phos_acid>  (43) 
0

>  <fr_phos_ester>  (43) 
0

>  <fr_piperdine>  (43) 
0

>  <fr_piperzine>  (43) 
0

>  <fr_priamide>  (43) 
0

>  <fr_prisulfonamd>  (43) 
0

>  <fr_pyridine>  (43) 
1

>  <fr_quatN>  (43) 
0

>  <fr_sulfide>  (43) 
0

>  <fr_sulfonamd>  (43) 
1

>  <fr_sulfone>  (43) 
0

>  <fr_term_acetylene>  (43) 
0

>  <fr_tetrazole>  (43) 
0

>  <fr_thiazole>  (43) 
0

>  <fr_thiocyan>  (43) 
0

>  <fr_thiophene>  (43) 
0

>  <fr_unbrch_alkane>  (43) 
0

>  <fr_urea>  (43) 
0

>  <NP-Likeness>  (43) 
-1.6448

$$$$
7K7
     RDKit          3D

  0  0  0  0  0  0  0  0  0  0999 V3000
M  V30 BEGIN CTAB
M  V30 COUNTS 41 43 0 0 0
M  V30 BEGIN ATOM
M  V30 1 C 0.091300 -2.570194 3.773058 0
M  V30 2 N -0.468949 -3.803666 3.861648 0
M  V30 3 C -0.501552 -4.618889 2.786867 0
M  V30 4 C 0.031540 -4.237741 1.551332 0
M  V30 5 C -0.044115 -5.124624 0.517013 0
M  V30 6 C 0.492481 -4.701875 -0.669800 0
M  V30 7 C 1.075881 -3.457894 -0.820826 0
M  V30 8 C 1.139461 -2.566603 0.260424 0
M  V30 9 S 1.838072 -0.996153 0.196731 0
M  V30 10 O 3.156717 -0.813129 0.831052 0
M  V30 11 O 2.151494 -0.750745 -1.282591 0
M  V30 12 N 0.719232 0.261446 0.573223 0
M  V30 13 C -0.378179 0.330468 -0.330069 0
M  V30 14 C -1.470538 1.154187 0.263702 0
M  V30 15 C -1.228202 2.623462 0.227050 0
M  V30 16 N -0.057799 3.047887 -0.464826 0 CHG=1 VAL=4
M  V30 17 C 1.196662 2.589934 -0.089276 0
M  V30 18 C 1.323429 1.492654 0.911611 0 CFG=1
M  V30 19 C 1.077434 1.916367 2.346267 0
M  V30 20 C 0.604121 -2.992450 1.438522 0
M  V30 21 C 0.622842 -2.182588 2.552098 0
M  V30 22 H 0.109052 -1.922808 4.653861 0
M  V30 23 H -0.966903 -5.579141 2.953897 0
M  V30 24 H -0.491434 -6.103336 0.596668 0
M  V30 25 H 0.460355 -5.370259 -1.532794 0
M  V30 26 H 1.504662 -3.107457 -1.750812 0
M  V30 27 H -0.788510 -0.718276 -0.411799 0
M  V30 28 H -0.130979 0.600283 -1.374159 0
M  V30 29 H -1.623188 0.775662 1.309005 0
M  V30 30 H -2.420531 0.839936 -0.259711 0
M  V30 31 H -2.095305 3.073968 -0.346425 0
M  V30 32 H -1.352794 3.117610 1.232186 0
M  V30 33 H -0.264196 2.909348 -1.500970 0
M  V30 34 H -0.075658 4.112418 -0.395861 0
M  V30 35 H 1.868816 3.404622 0.260519 0
M  V30 36 H 1.734384 2.215865 -1.013362 0
M  V30 37 H 2.431356 1.287563 0.919708 0
M  V30 38 H 0.045167 1.816130 2.686392 0
M  V30 39 H 1.660021 1.239662 3.038911 0
M  V30 40 H 1.533061 2.914679 2.494608 0
M  V30 41 H 1.044130 -1.202374 2.562011 0
M  V30 END ATOM
M  V30 BEGIN BOND
M  V30 1 2 1 2
M  V30 2 1 2 3
M  V30 3 2 3 4
M  V30 4 1 4 5
M  V30 5 2 5 6
M  V30 6 1 6 7
M  V30 7 2 7 8
M  V30 8 1 8 9
M  V30 9 2 9 10
M  V30 10 2 9 11
M  V30 11 1 9 12
M  V30 12 1 12 13
M  V30 13 1 13 14
M  V30 14 1 14 15
M  V30 15 1 15 16
M  V30 16 1 16 17
M  V30 17 1 17 18
M  V30 18 1 18 19
M  V30 19 1 8 20
M  V30 20 2 20 21
M  V30 21 1 21 1
M  V30 22 1 20 4
M  V30 23 1 18 12
M  V30 24 1 1 22
M  V30 25 1 3 23
M  V30 26 1 5 24
M  V30 27 1 6 25
M  V30 28 1 7 26
M  V30 29 1 13 27
M  V30 30 1 13 28
M  V30 31 1 14 29
M  V30 32 1 14 30
M  V30 33 1 15 31
M  V30 34 1 15 32
M  V30 35 1 16 33
M  V30 36 1 16 34
M  V30 37 1 17 35
M  V30 38 1 17 36
M  V30 39 1 18 37 CFG=1
M  V30 40 1 19 38
M  V30 41 1 19 39
M  V30 42 1 19 40
M  V30 43 1 21 41
M  V30 END BOND
M  V30 END CTAB
M  END
>  <Dataset>  (44) 
PDB

>  <Ligand_Instance>  (44) 
5M71_7K7_A_401

>  <PDB_ID>  (44) 
5M71

>  <Standardized_SMILES>  (44) 
[H]C1=NC([H])=C2C([H])=C([H])C([H])=C(S(=O)(=O)N3C([H])([H])C([H])([H])C([H])([H])[N+]([H])([H])C([H])([H])[C@@]3([H])C([H])([H])[H])C2=C1[H]

>  <Name>  (44) 
5-[[(2~{R})-2-methyl-1,4-diazepan-4-ium-1-yl]sulfonyl]isoquinoline

>  <Pocket>  (44) 
A

>  <ATP_Site>  (44) 
1.0

>  <Peripheral>  (44) 
0.0

>  <Num_H_Atoms_ProtBoundConf>  (44) 
20.0

>  <Num_Resolved_Atoms>  (44) 
21.0

>  <Num_Not_Resolved_Atoms>  (44) 
0.0

>  <2D_Mol_H>  (44) 
<rdkit.Chem.rdchem.Mol object at 0x72a238dc4dd0>

>  <MW>  (44) 
306.411

>  <HBA>  (44) 
3

>  <HBD>  (44) 
1

>  <LogP>  (44) 
0.5811

>  <NRB>  (44) 
3

>  <TPSA>  (44) 
66.88

>  <Num_Heavy_Atoms>  (44) 
21

>  <Ro5>  (44) 
[True, True, True, True, True, True]

>  <Ro5_Fulfilled>  (44) 
True

>  <Ro3>  (44) 
[False, True, True, True]

>  <Ro3_Fulfilled>  (44) 
True

>  <Fsp3>  (44) 
0.4

>  <Fsp3_0.42>  (44) 
False

>  <Fsp3_0.45>  (44) 
False

>  <Stereogenic_Carbons>  (44) 
1

>  <C_Atoms>  (44) 
15

>  <FCStereo>  (44) 
0.066667

>  <SPS>  (44) 
447

>  <nSPS>  (44) 
21.285714

>  <PBF>  (44) 
1.012404

>  <PBF_0.6>  (44) 
True

>  <nPBF>  (44) 
0.04821

>  <nPBF_0.016>  (44) 
True

>  <PMI1>  (44) 
956.963502

>  <PMI2>  (44) 
2417.143071

>  <PMI3>  (44) 
2685.134442

>  <NPR1>  (44) 
0.356393

>  <NPR2>  (44) 
0.900194

>  <Sum_NPR>  (44) 
1.256588

>  <Sum_NPR_1.07>  (44) 
True

>  <Sum_NPR_1.2>  (44) 
True

>  <MaxAbsEStateIndex>  (44) 
13.056031

>  <MaxEStateIndex>  (44) 
13.056031

>  <MinAbsEStateIndex>  (44) 
0.008883

>  <MinEStateIndex>  (44) 
-3.475602

>  <qed>  (44) 
0.882456

>  <MolWt>  (44) 
306.411

>  <HeavyAtomMolWt>  (44) 
286.251

>  <ExactMolWt>  (44) 
306.127074

>  <NumValenceElectrons>  (44) 
112

>  <NumRadicalElectrons>  (44) 
0

>  <MaxPartialCharge>  (44) 
0.243643

>  <MinPartialCharge>  (44) 
-0.344891

>  <MaxAbsPartialCharge>  (44) 
0.344891

>  <MinAbsPartialCharge>  (44) 
0.243643

>  <FpDensityMorgan1>  (44) 
1.333333

>  <FpDensityMorgan2>  (44) 
2.190476

>  <FpDensityMorgan3>  (44) 
3.047619

>  <BCUT2D_MWHI>  (44) 
32.233428

>  <BCUT2D_MWLOW>  (44) 
10.168262

>  <BCUT2D_CHGHI>  (44) 
2.317314

>  <BCUT2D_CHGLO>  (44) 
-2.248381

>  <BCUT2D_LOGPHI>  (44) 
2.260173

>  <BCUT2D_LOGPLOW>  (44) 
-2.855536

>  <BCUT2D_MRHI>  (44) 
7.889867

>  <BCUT2D_MRLOW>  (44) 
-0.654222

>  <AvgIpc>  (44) 
2.712915

>  <BalabanJ>  (44) 
2.113525

>  <BertzCT>  (44) 
740.17207

>  <Chi0>  (44) 
14.872033

>  <Chi0n>  (44) 
12.066401

>  <Chi0v>  (44) 
12.882898

>  <Chi1>  (44) 
10.10419

>  <Chi1n>  (44) 
7.267652

>  <Chi1v>  (44) 
8.707715

>  <Chi2n>  (44) 
5.484343

>  <Chi2v>  (44) 
7.343319

>  <Chi3n>  (44) 
4.013517

>  <Chi3v>  (44) 
6.08525

>  <Chi4n>  (44) 
2.889639

>  <Chi4v>  (44) 
4.78594

>  <HallKierAlpha>  (44) 
-1.5

>  <Ipc>  (44) 
79634.902196

>  <Kappa1>  (44) 
14.437804

>  <Kappa2>  (44) 
5.709877

>  <Kappa3>  (44) 
2.661712

>  <LabuteASA>  (44) 
124.587009

>  <PEOE_VSA1>  (44) 
5.316789

>  <PEOE_VSA10>  (44) 
0.0

>  <PEOE_VSA11>  (44) 
0.0

>  <PEOE_VSA12>  (44) 
10.023291

>  <PEOE_VSA13>  (44) 
0.0

>  <PEOE_VSA14>  (44) 
0.0

>  <PEOE_VSA2>  (44) 
4.983979

>  <PEOE_VSA3>  (44) 
8.417797

>  <PEOE_VSA4>  (44) 
4.305216

>  <PEOE_VSA5>  (44) 
0.0

>  <PEOE_VSA6>  (44) 
12.132734

>  <PEOE_VSA7>  (44) 
19.056471

>  <PEOE_VSA8>  (44) 
36.131714

>  <PEOE_VSA9>  (44) 
24.026837

>  <SMR_VSA1>  (44) 
13.734586

>  <SMR_VSA10>  (44) 
20.79574

>  <SMR_VSA2>  (44) 
0.0

>  <SMR_VSA3>  (44) 
9.289195

>  <SMR_VSA4>  (44) 
0.0

>  <SMR_VSA5>  (44) 
24.281883

>  <SMR_VSA6>  (44) 
19.634269

>  <SMR_VSA7>  (44) 
36.659155

>  <SMR_VSA8>  (44) 
0.0

>  <SMR_VSA9>  (44) 
0.0

>  <SlogP_VSA1>  (44) 
5.316789

>  <SlogP_VSA10>  (44) 
0.0

>  <SlogP_VSA11>  (44) 
0.0

>  <SlogP_VSA12>  (44) 
0.0

>  <SlogP_VSA2>  (44) 
43.383102

>  <SlogP_VSA3>  (44) 
10.023291

>  <SlogP_VSA4>  (44) 
0.0

>  <SlogP_VSA5>  (44) 
13.344559

>  <SlogP_VSA6>  (44) 
41.554639

>  <SlogP_VSA7>  (44) 
0.0

>  <SlogP_VSA8>  (44) 
10.772448

>  <SlogP_VSA9>  (44) 
0.0

>  <EState_VSA1>  (44) 
10.023291

>  <EState_VSA10>  (44) 
8.417797

>  <EState_VSA11>  (44) 
0.0

>  <EState_VSA2>  (44) 
6.041841

>  <EState_VSA3>  (44) 
11.44024

>  <EState_VSA4>  (44) 
30.282783

>  <EState_VSA5>  (44) 
0.0

>  <EState_VSA6>  (44) 
34.898004

>  <EState_VSA7>  (44) 
12.990104

>  <EState_VSA8>  (44) 
10.300767

>  <EState_VSA9>  (44) 
0.0

>  <VSA_EState1>  (44) 
27.756607

>  <VSA_EState10>  (44) 
0.0

>  <VSA_EState2>  (44) 
4.450403

>  <VSA_EState3>  (44) 
3.785427

>  <VSA_EState4>  (44) 
0.0

>  <VSA_EState5>  (44) 
0.0

>  <VSA_EState6>  (44) 
7.150071

>  <VSA_EState7>  (44) 
4.227046

>  <VSA_EState8>  (44) 
4.356048

>  <VSA_EState9>  (44) 
-3.475602

>  <FractionCSP3>  (44) 
0.4

>  <HeavyAtomCount>  (44) 
21

>  <NHOHCount>  (44) 
2

>  <NOCount>  (44) 
5

>  <NumAliphaticCarbocycles>  (44) 
0

>  <NumAliphaticHeterocycles>  (44) 
1

>  <NumAliphaticRings>  (44) 
1

>  <NumAromaticCarbocycles>  (44) 
1

>  <NumAromaticHeterocycles>  (44) 
1

>  <NAR>  (44) 
2

>  <NumHAcceptors>  (44) 
3

>  <NumHDonors>  (44) 
1

>  <NumHeteroatoms>  (44) 
6

>  <NumRotatableBonds>  (44) 
2

>  <NumSaturatedCarbocycles>  (44) 
0

>  <NumSaturatedHeterocycles>  (44) 
1

>  <NumSaturatedRings>  (44) 
1

>  <RingCount>  (44) 
3

>  <MolLogP>  (44) 
0.5811

>  <MolMR>  (44) 
81.3732

>  <fr_Al_COO>  (44) 
0

>  <fr_Al_OH>  (44) 
0

>  <fr_Al_OH_noTert>  (44) 
0

>  <fr_ArN>  (44) 
0

>  <fr_Ar_COO>  (44) 
0

>  <fr_Ar_N>  (44) 
1

>  <fr_Ar_NH>  (44) 
0

>  <fr_Ar_OH>  (44) 
0

>  <fr_COO>  (44) 
0

>  <fr_COO2>  (44) 
0

>  <fr_C_O>  (44) 
0

>  <fr_C_O_noCOO>  (44) 
0

>  <fr_C_S>  (44) 
0

>  <fr_HOCCN>  (44) 
0

>  <fr_Imine>  (44) 
0

>  <fr_NH0>  (44) 
2

>  <fr_NH1>  (44) 
0

>  <fr_NH2>  (44) 
1

>  <fr_N_O>  (44) 
0

>  <fr_Ndealkylation1>  (44) 
0

>  <fr_Ndealkylation2>  (44) 
0

>  <fr_Nhpyrrole>  (44) 
0

>  <fr_SH>  (44) 
0

>  <fr_aldehyde>  (44) 
0

>  <fr_alkyl_carbamate>  (44) 
0

>  <fr_alkyl_halide>  (44) 
0

>  <fr_allylic_oxid>  (44) 
0

>  <fr_amide>  (44) 
0

>  <fr_amidine>  (44) 
0

>  <fr_aniline>  (44) 
0

>  <fr_aryl_methyl>  (44) 
0

>  <fr_azide>  (44) 
0

>  <fr_azo>  (44) 
0

>  <fr_barbitur>  (44) 
0

>  <fr_benzene>  (44) 
1

>  <fr_benzodiazepine>  (44) 
0

>  <fr_bicyclic>  (44) 
1

>  <fr_diazo>  (44) 
0

>  <fr_dihydropyridine>  (44) 
0

>  <fr_epoxide>  (44) 
0

>  <fr_ester>  (44) 
0

>  <fr_ether>  (44) 
0

>  <fr_furan>  (44) 
0

>  <fr_guanido>  (44) 
0

>  <fr_halogen>  (44) 
0

>  <fr_hdrzine>  (44) 
0

>  <fr_hdrzone>  (44) 
0

>  <fr_imidazole>  (44) 
0

>  <fr_imide>  (44) 
0

>  <fr_isocyan>  (44) 
0

>  <fr_isothiocyan>  (44) 
0

>  <fr_ketone>  (44) 
0

>  <fr_ketone_Topliss>  (44) 
0

>  <fr_lactam>  (44) 
0

>  <fr_lactone>  (44) 
0

>  <fr_methoxy>  (44) 
0

>  <fr_morpholine>  (44) 
0

>  <fr_nitrile>  (44) 
0

>  <fr_nitro>  (44) 
0

>  <fr_nitro_arom>  (44) 
0

>  <fr_nitro_arom_nonortho>  (44) 
0

>  <fr_nitroso>  (44) 
0

>  <fr_oxazole>  (44) 
0

>  <fr_oxime>  (44) 
0

>  <fr_para_hydroxylation>  (44) 
0

>  <fr_phenol>  (44) 
0

>  <fr_phenol_noOrthoHbond>  (44) 
0

>  <fr_phos_acid>  (44) 
0

>  <fr_phos_ester>  (44) 
0

>  <fr_piperdine>  (44) 
0

>  <fr_piperzine>  (44) 
0

>  <fr_priamide>  (44) 
0

>  <fr_prisulfonamd>  (44) 
0

>  <fr_pyridine>  (44) 
1

>  <fr_quatN>  (44) 
1

>  <fr_sulfide>  (44) 
0

>  <fr_sulfonamd>  (44) 
1

>  <fr_sulfone>  (44) 
0

>  <fr_term_acetylene>  (44) 
0

>  <fr_tetrazole>  (44) 
0

>  <fr_thiazole>  (44) 
0

>  <fr_thiocyan>  (44) 
0

>  <fr_thiophene>  (44) 
0

>  <fr_unbrch_alkane>  (44) 
0

>  <fr_urea>  (44) 
0

>  <NP-Likeness>  (44) 
-1.234159

$$$$
7KB
     RDKit          3D

  0  0  0  0  0  0  0  0  0  0999 V3000
M  V30 BEGIN CTAB
M  V30 COUNTS 41 43 0 0 0
M  V30 BEGIN ATOM
M  V30 1 C 0.105180 -2.870682 3.826447 0
M  V30 2 N -0.275965 -4.186185 3.847813 0
M  V30 3 C -0.141363 -4.880067 2.688343 0
M  V30 4 C 0.363264 -4.204446 1.597577 0
M  V30 5 C 0.465635 -4.999754 0.475749 0
M  V30 6 C 0.955515 -4.469951 -0.685102 0
M  V30 7 C 1.318495 -3.125776 -0.624884 0
M  V30 8 C 1.253304 -2.228581 0.466569 0
M  V30 9 S 1.719740 -0.594873 0.347757 0
M  V30 10 O 3.139082 -0.192403 0.478597 0
M  V30 11 O 1.722594 -0.395841 -1.191496 0
M  V30 12 N 0.515975 0.603097 0.598697 0
M  V30 13 C -0.568985 0.564880 -0.323265 0
M  V30 14 C -1.698489 1.418338 0.198278 0
M  V30 15 C -1.351664 2.888042 0.182207 0
M  V30 16 N -0.313336 3.202114 -0.759796 0 CHG=1 VAL=4
M  V30 17 C 1.001364 2.838810 -0.336195 0
M  V30 18 C 1.076280 1.898487 0.817120 0
M  V30 19 C 0.744106 -2.888477 1.574535 0
M  V30 20 C 0.626847 -2.132080 2.740546 0
M  V30 21 C 0.988311 -0.728617 2.933967 0
M  V30 22 H -0.035398 -2.387423 4.797729 0
M  V30 23 H -0.432788 -5.905282 2.687262 0
M  V30 24 H 0.180348 -6.040636 0.441038 0
M  V30 25 H 1.064788 -5.029956 -1.599955 0
M  V30 26 H 1.709755 -2.744820 -1.585907 0
M  V30 27 H -0.273096 0.791219 -1.360908 0
M  V30 28 H -0.935538 -0.484298 -0.342963 0
M  V30 29 H -2.618510 1.228468 -0.399277 0
M  V30 30 H -1.899459 1.109480 1.227483 0
M  V30 31 H -2.258744 3.473535 -0.126766 0
M  V30 32 H -1.074676 3.254030 1.175609 0
M  V30 33 H -0.531472 2.797618 -1.710264 0
M  V30 34 H -0.368254 4.237461 -0.915587 0
M  V30 35 H 1.595030 2.425436 -1.180158 0
M  V30 36 H 1.556664 3.758643 -0.033622 0
M  V30 37 H 2.158426 1.749963 1.033296 0
M  V30 38 H 0.651195 2.327795 1.745431 0
M  V30 39 H 0.174758 -0.015150 3.083895 0
M  V30 40 H 1.989632 -0.399399 2.688201 0
M  V30 41 H 1.254283 -0.758768 4.077082 0
M  V30 END ATOM
M  V30 BEGIN BOND
M  V30 1 2 1 2
M  V30 2 1 2 3
M  V30 3 2 3 4
M  V30 4 1 4 5
M  V30 5 2 5 6
M  V30 6 1 6 7
M  V30 7 2 7 8
M  V30 8 1 8 9
M  V30 9 2 9 10
M  V30 10 2 9 11
M  V30 11 1 9 12
M  V30 12 1 12 13
M  V30 13 1 13 14
M  V30 14 1 14 15
M  V30 15 1 15 16
M  V30 16 1 16 17
M  V30 17 1 17 18
M  V30 18 1 8 19
M  V30 19 2 19 20
M  V30 20 1 20 21
M  V30 21 1 20 1
M  V30 22 1 19 4
M  V30 23 1 18 12
M  V30 24 1 1 22
M  V30 25 1 3 23
M  V30 26 1 5 24
M  V30 27 1 6 25
M  V30 28 1 7 26
M  V30 29 1 13 27
M  V30 30 1 13 28
M  V30 31 1 14 29
M  V30 32 1 14 30
M  V30 33 1 15 31
M  V30 34 1 15 32
M  V30 35 1 16 33
M  V30 36 1 16 34
M  V30 37 1 17 35
M  V30 38 1 17 36
M  V30 39 1 18 37
M  V30 40 1 18 38
M  V30 41 1 21 39
M  V30 42 1 21 40
M  V30 43 1 21 41
M  V30 END BOND
M  V30 END CTAB
M  END
>  <Dataset>  (45) 
PDB

>  <Ligand_Instance>  (45) 
5M6Y_7KB_A_401

>  <PDB_ID>  (45) 
5M6Y

>  <Standardized_SMILES>  (45) 
[H]C1=NC([H])=C2C([H])=C([H])C([H])=C(S(=O)(=O)N3C([H])([H])C([H])([H])C([H])([H])[N+]([H])([H])C([H])([H])C3([H])[H])C2=C1C([H])([H])[H]

>  <Name>  (45) 
5-(1,4-diazepan-1-ylsulfonyl)-4-methyl-isoquinoline

>  <Pocket>  (45) 
A

>  <ATP_Site>  (45) 
1.0

>  <Peripheral>  (45) 
0.0

>  <Num_H_Atoms_ProtBoundConf>  (45) 
20.0

>  <Num_Resolved_Atoms>  (45) 
21.0

>  <Num_Not_Resolved_Atoms>  (45) 
0.0

>  <2D_Mol_H>  (45) 
<rdkit.Chem.rdchem.Mol object at 0x72a238dc4eb0>

>  <MW>  (45) 
306.411

>  <HBA>  (45) 
3

>  <HBD>  (45) 
1

>  <LogP>  (45) 
0.50102

>  <NRB>  (45) 
3

>  <TPSA>  (45) 
66.88

>  <Num_Heavy_Atoms>  (45) 
21

>  <Ro5>  (45) 
[True, True, True, True, True, True]

>  <Ro5_Fulfilled>  (45) 
True

>  <Ro3>  (45) 
[False, True, True, True]

>  <Ro3_Fulfilled>  (45) 
True

>  <Fsp3>  (45) 
0.4

>  <Fsp3_0.42>  (45) 
False

>  <Fsp3_0.45>  (45) 
False

>  <Stereogenic_Carbons>  (45) 
0

>  <C_Atoms>  (45) 
15

>  <FCStereo>  (45) 
0.0

>  <SPS>  (45) 
373

>  <nSPS>  (45) 
17.761905

>  <PBF>  (45) 
0.980713

>  <PBF_0.6>  (45) 
True

>  <nPBF>  (45) 
0.046701

>  <nPBF_0.016>  (45) 
True

>  <PMI1>  (45) 
880.022365

>  <PMI2>  (45) 
2529.247947

>  <PMI3>  (45) 
2783.575245

>  <NPR1>  (45) 
0.316148

>  <NPR2>  (45) 
0.908633

>  <Sum_NPR>  (45) 
1.224781

>  <Sum_NPR_1.07>  (45) 
True

>  <Sum_NPR_1.2>  (45) 
True

>  <MaxAbsEStateIndex>  (45) 
12.997836

>  <MaxEStateIndex>  (45) 
12.997836

>  <MinAbsEStateIndex>  (45) 
0.404444

>  <MinEStateIndex>  (45) 
-3.448912

>  <qed>  (45) 
0.878489

>  <MolWt>  (45) 
306.411

>  <HeavyAtomMolWt>  (45) 
286.251

>  <ExactMolWt>  (45) 
306.127074

>  <NumValenceElectrons>  (45) 
112

>  <NumRadicalElectrons>  (45) 
0

>  <MaxPartialCharge>  (45) 
0.243407

>  <MinPartialCharge>  (45) 
-0.345118

>  <MaxAbsPartialCharge>  (45) 
0.345118

>  <MinAbsPartialCharge>  (45) 
0.243407

>  <FpDensityMorgan1>  (45) 
1.190476

>  <FpDensityMorgan2>  (45) 
2.047619

>  <FpDensityMorgan3>  (45) 
2.904762

>  <BCUT2D_MWHI>  (45) 
32.233427

>  <BCUT2D_MWLOW>  (45) 
10.102646

>  <BCUT2D_CHGHI>  (45) 
2.275231

>  <BCUT2D_CHGLO>  (45) 
-2.199057

>  <BCUT2D_LOGPHI>  (45) 
2.27385

>  <BCUT2D_LOGPLOW>  (45) 
-2.843702

>  <BCUT2D_MRHI>  (45) 
7.889685

>  <BCUT2D_MRLOW>  (45) 
-0.650697

>  <AvgIpc>  (45) 
2.763908

>  <BalabanJ>  (45) 
2.143612

>  <BertzCT>  (45) 
745.352823

>  <Chi0>  (45) 
14.872033

>  <Chi0n>  (45) 
12.118808

>  <Chi0v>  (45) 
12.935304

>  <Chi1>  (45) 
10.10419

>  <Chi1n>  (45) 
7.256749

>  <Chi1v>  (45) 
8.696812

>  <Chi2n>  (45) 
5.434323

>  <Chi2v>  (45) 
7.34068

>  <Chi3n>  (45) 
3.950813

>  <Chi3v>  (45) 
5.891818

>  <Chi4n>  (45) 
2.86941

>  <Chi4v>  (45) 
4.650135

>  <HallKierAlpha>  (45) 
-1.5

>  <Ipc>  (45) 
81153.852418

>  <Kappa1>  (45) 
14.437804

>  <Kappa2>  (45) 
5.709877

>  <Kappa3>  (45) 
2.661712

>  <LabuteASA>  (45) 
124.587009

>  <PEOE_VSA1>  (45) 
5.316789

>  <PEOE_VSA10>  (45) 
0.0

>  <PEOE_VSA11>  (45) 
0.0

>  <PEOE_VSA12>  (45) 
10.023291

>  <PEOE_VSA13>  (45) 
0.0

>  <PEOE_VSA14>  (45) 
0.0

>  <PEOE_VSA2>  (45) 
4.983979

>  <PEOE_VSA3>  (45) 
8.417797

>  <PEOE_VSA4>  (45) 
4.305216

>  <PEOE_VSA5>  (45) 
0.0

>  <PEOE_VSA6>  (45) 
12.132734

>  <PEOE_VSA7>  (45) 
18.553556

>  <PEOE_VSA8>  (45) 
36.131714

>  <PEOE_VSA9>  (45) 
24.529753

>  <SMR_VSA1>  (45) 
13.734586

>  <SMR_VSA10>  (45) 
20.79574

>  <SMR_VSA2>  (45) 
0.0

>  <SMR_VSA3>  (45) 
9.289195

>  <SMR_VSA4>  (45) 
0.0

>  <SMR_VSA5>  (45) 
18.240042

>  <SMR_VSA6>  (45) 
26.179026

>  <SMR_VSA7>  (45) 
36.15624

>  <SMR_VSA8>  (45) 
0.0

>  <SMR_VSA9>  (45) 
0.0

>  <SlogP_VSA1>  (45) 
5.316789

>  <SlogP_VSA10>  (45) 
0.0

>  <SlogP_VSA11>  (45) 
0.0

>  <SlogP_VSA12>  (45) 
0.0

>  <SlogP_VSA2>  (45) 
43.886017

>  <SlogP_VSA3>  (45) 
10.023291

>  <SlogP_VSA4>  (45) 
6.923737

>  <SlogP_VSA5>  (45) 
11.984273

>  <SlogP_VSA6>  (45) 
35.488272

>  <SlogP_VSA7>  (45) 
0.0

>  <SlogP_VSA8>  (45) 
10.772448

>  <SlogP_VSA9>  (45) 
0.0

>  <EState_VSA1>  (45) 
10.023291

>  <EState_VSA10>  (45) 
8.417797

>  <EState_VSA11>  (45) 
0.0

>  <EState_VSA2>  (45) 
0.0

>  <EState_VSA3>  (45) 
17.984996

>  <EState_VSA4>  (45) 
35.846234

>  <EState_VSA5>  (45) 
0.0

>  <EState_VSA6>  (45) 
28.831637

>  <EState_VSA7>  (45) 
12.990104

>  <EState_VSA8>  (45) 
10.300767

>  <EState_VSA9>  (45) 
0.0

>  <VSA_EState1>  (45) 
27.611885

>  <VSA_EState10>  (45) 
0.0

>  <VSA_EState2>  (45) 
4.55411

>  <VSA_EState3>  (45) 
3.839382

>  <VSA_EState4>  (45) 
0.896351

>  <VSA_EState5>  (45) 
0.0

>  <VSA_EState6>  (45) 
5.406858

>  <VSA_EState7>  (45) 
4.332984

>  <VSA_EState8>  (45) 
4.890675

>  <VSA_EState9>  (45) 
-3.448912

>  <FractionCSP3>  (45) 
0.4

>  <HeavyAtomCount>  (45) 
21

>  <NHOHCount>  (45) 
2

>  <NOCount>  (45) 
5

>  <NumAliphaticCarbocycles>  (45) 
0

>  <NumAliphaticHeterocycles>  (45) 
1

>  <NumAliphaticRings>  (45) 
1

>  <NumAromaticCarbocycles>  (45) 
1

>  <NumAromaticHeterocycles>  (45) 
1

>  <NAR>  (45) 
2

>  <NumHAcceptors>  (45) 
3

>  <NumHDonors>  (45) 
1

>  <NumHeteroatoms>  (45) 
6

>  <NumRotatableBonds>  (45) 
2

>  <NumSaturatedCarbocycles>  (45) 
0

>  <NumSaturatedHeterocycles>  (45) 
1

>  <NumSaturatedRings>  (45) 
1

>  <RingCount>  (45) 
3

>  <MolLogP>  (45) 
0.50102

>  <MolMR>  (45) 
81.5152

>  <fr_Al_COO>  (45) 
0

>  <fr_Al_OH>  (45) 
0

>  <fr_Al_OH_noTert>  (45) 
0

>  <fr_ArN>  (45) 
0

>  <fr_Ar_COO>  (45) 
0

>  <fr_Ar_N>  (45) 
1

>  <fr_Ar_NH>  (45) 
0

>  <fr_Ar_OH>  (45) 
0

>  <fr_COO>  (45) 
0

>  <fr_COO2>  (45) 
0

>  <fr_C_O>  (45) 
0

>  <fr_C_O_noCOO>  (45) 
0

>  <fr_C_S>  (45) 
0

>  <fr_HOCCN>  (45) 
0

>  <fr_Imine>  (45) 
0

>  <fr_NH0>  (45) 
2

>  <fr_NH1>  (45) 
0

>  <fr_NH2>  (45) 
1

>  <fr_N_O>  (45) 
0

>  <fr_Ndealkylation1>  (45) 
0

>  <fr_Ndealkylation2>  (45) 
0

>  <fr_Nhpyrrole>  (45) 
0

>  <fr_SH>  (45) 
0

>  <fr_aldehyde>  (45) 
0

>  <fr_alkyl_carbamate>  (45) 
0

>  <fr_alkyl_halide>  (45) 
0

>  <fr_allylic_oxid>  (45) 
0

>  <fr_amide>  (45) 
0

>  <fr_amidine>  (45) 
0

>  <fr_aniline>  (45) 
0

>  <fr_aryl_methyl>  (45) 
1

>  <fr_azide>  (45) 
0

>  <fr_azo>  (45) 
0

>  <fr_barbitur>  (45) 
0

>  <fr_benzene>  (45) 
1

>  <fr_benzodiazepine>  (45) 
0

>  <fr_bicyclic>  (45) 
1

>  <fr_diazo>  (45) 
0

>  <fr_dihydropyridine>  (45) 
0

>  <fr_epoxide>  (45) 
0

>  <fr_ester>  (45) 
0

>  <fr_ether>  (45) 
0

>  <fr_furan>  (45) 
0

>  <fr_guanido>  (45) 
0

>  <fr_halogen>  (45) 
0

>  <fr_hdrzine>  (45) 
0

>  <fr_hdrzone>  (45) 
0

>  <fr_imidazole>  (45) 
0

>  <fr_imide>  (45) 
0

>  <fr_isocyan>  (45) 
0

>  <fr_isothiocyan>  (45) 
0

>  <fr_ketone>  (45) 
0

>  <fr_ketone_Topliss>  (45) 
0

>  <fr_lactam>  (45) 
0

>  <fr_lactone>  (45) 
0

>  <fr_methoxy>  (45) 
0

>  <fr_morpholine>  (45) 
0

>  <fr_nitrile>  (45) 
0

>  <fr_nitro>  (45) 
0

>  <fr_nitro_arom>  (45) 
0

>  <fr_nitro_arom_nonortho>  (45) 
0

>  <fr_nitroso>  (45) 
0

>  <fr_oxazole>  (45) 
0

>  <fr_oxime>  (45) 
0

>  <fr_para_hydroxylation>  (45) 
0

>  <fr_phenol>  (45) 
0

>  <fr_phenol_noOrthoHbond>  (45) 
0

>  <fr_phos_acid>  (45) 
0

>  <fr_phos_ester>  (45) 
0

>  <fr_piperdine>  (45) 
0

>  <fr_piperzine>  (45) 
0

>  <fr_priamide>  (45) 
0

>  <fr_prisulfonamd>  (45) 
0

>  <fr_pyridine>  (45) 
1

>  <fr_quatN>  (45) 
1

>  <fr_sulfide>  (45) 
0

>  <fr_sulfonamd>  (45) 
1

>  <fr_sulfone>  (45) 
0

>  <fr_term_acetylene>  (45) 
0

>  <fr_tetrazole>  (45) 
0

>  <fr_thiazole>  (45) 
0

>  <fr_thiocyan>  (45) 
0

>  <fr_thiophene>  (45) 
0

>  <fr_unbrch_alkane>  (45) 
0

>  <fr_urea>  (45) 
0

>  <NP-Likeness>  (45) 
-1.285221

$$$$
7KB
     RDKit          3D

  0  0  0  0  0  0  0  0  0  0999 V3000
M  V30 BEGIN CTAB
M  V30 COUNTS 41 43 0 0 0
M  V30 BEGIN ATOM
M  V30 1 C 0.105180 -2.870682 3.826447 0
M  V30 2 N -0.275965 -4.186185 3.847813 0
M  V30 3 C -0.141363 -4.880067 2.688343 0
M  V30 4 C 0.363264 -4.204446 1.597577 0
M  V30 5 C 0.465635 -4.999754 0.475749 0
M  V30 6 C 0.955515 -4.469951 -0.685102 0
M  V30 7 C 1.318495 -3.125776 -0.624884 0
M  V30 8 C 1.253304 -2.228581 0.466569 0
M  V30 9 S 1.719740 -0.594873 0.347757 0
M  V30 10 O 3.139082 -0.192403 0.478597 0
M  V30 11 O 1.722594 -0.395841 -1.191496 0
M  V30 12 N 0.515975 0.603097 0.598697 0
M  V30 13 C -0.568985 0.564880 -0.323265 0
M  V30 14 C -1.698489 1.418338 0.198278 0
M  V30 15 C -1.351664 2.888042 0.182207 0
M  V30 16 N -0.313336 3.202114 -0.759796 0 CHG=1 VAL=4
M  V30 17 C 1.001364 2.838810 -0.336195 0
M  V30 18 C 1.076280 1.898487 0.817120 0
M  V30 19 C 0.744106 -2.888477 1.574535 0
M  V30 20 C 0.626847 -2.132080 2.740546 0
M  V30 21 C 0.988311 -0.728617 2.933967 0
M  V30 22 H -0.035398 -2.387423 4.797729 0
M  V30 23 H -0.432788 -5.905282 2.687262 0
M  V30 24 H 0.180348 -6.040636 0.441038 0
M  V30 25 H 1.064788 -5.029956 -1.599955 0
M  V30 26 H 1.709755 -2.744820 -1.585907 0
M  V30 27 H -0.273096 0.791219 -1.360908 0
M  V30 28 H -0.935538 -0.484298 -0.342963 0
M  V30 29 H -2.618510 1.228468 -0.399277 0
M  V30 30 H -1.899459 1.109480 1.227483 0
M  V30 31 H -2.258744 3.473535 -0.126766 0
M  V30 32 H -1.074676 3.254030 1.175609 0
M  V30 33 H -0.531472 2.797618 -1.710264 0
M  V30 34 H -0.368254 4.237461 -0.915587 0
M  V30 35 H 1.595030 2.425436 -1.180158 0
M  V30 36 H 1.556664 3.758643 -0.033622 0
M  V30 37 H 2.158426 1.749963 1.033296 0
M  V30 38 H 0.651195 2.327795 1.745431 0
M  V30 39 H 0.174758 -0.015150 3.083895 0
M  V30 40 H 1.989632 -0.399399 2.688201 0
M  V30 41 H 1.254283 -0.758768 4.077082 0
M  V30 END ATOM
M  V30 BEGIN BOND
M  V30 1 2 1 2
M  V30 2 1 2 3
M  V30 3 2 3 4
M  V30 4 1 4 5
M  V30 5 2 5 6
M  V30 6 1 6 7
M  V30 7 2 7 8
M  V30 8 1 8 9
M  V30 9 2 9 10
M  V30 10 2 9 11
M  V30 11 1 9 12
M  V30 12 1 12 13
M  V30 13 1 13 14
M  V30 14 1 14 15
M  V30 15 1 15 16
M  V30 16 1 16 17
M  V30 17 1 17 18
M  V30 18 1 8 19
M  V30 19 2 19 20
M  V30 20 1 20 21
M  V30 21 1 20 1
M  V30 22 1 19 4
M  V30 23 1 18 12
M  V30 24 1 1 22
M  V30 25 1 3 23
M  V30 26 1 5 24
M  V30 27 1 6 25
M  V30 28 1 7 26
M  V30 29 1 13 27
M  V30 30 1 13 28
M  V30 31 1 14 29
M  V30 32 1 14 30
M  V30 33 1 15 31
M  V30 34 1 15 32
M  V30 35 1 16 33
M  V30 36 1 16 34
M  V30 37 1 17 35
M  V30 38 1 17 36
M  V30 39 1 18 37
M  V30 40 1 18 38
M  V30 41 1 21 39
M  V30 42 1 21 40
M  V30 43 1 21 41
M  V30 END BOND
M  V30 END CTAB
M  END
>  <Dataset>  (46) 
PDB

>  <Ligand_Instance>  (46) 
6YQK_7KB_A_401

>  <PDB_ID>  (46) 
6YQK

>  <Standardized_SMILES>  (46) 
[H]C1=NC([H])=C2C([H])=C([H])C([H])=C(S(=O)(=O)N3C([H])([H])C([H])([H])C([H])([H])[N+]([H])([H])C([H])([H])C3([H])[H])C2=C1C([H])([H])[H]

>  <Name>  (46) 
5-(1,4-diazepan-1-ylsulfonyl)-4-methyl-isoquinoline

>  <Pocket>  (46) 
A

>  <ATP_Site>  (46) 
1.0

>  <Peripheral>  (46) 
0.0

>  <Num_H_Atoms_ProtBoundConf>  (46) 
20.0

>  <Num_Resolved_Atoms>  (46) 
21.0

>  <Num_Not_Resolved_Atoms>  (46) 
0.0

>  <2D_Mol_H>  (46) 
<rdkit.Chem.rdchem.Mol object at 0x72a238dc4f90>

>  <MW>  (46) 
306.411

>  <HBA>  (46) 
3

>  <HBD>  (46) 
1

>  <LogP>  (46) 
0.50102

>  <NRB>  (46) 
3

>  <TPSA>  (46) 
66.88

>  <Num_Heavy_Atoms>  (46) 
21

>  <Ro5>  (46) 
[True, True, True, True, True, True]

>  <Ro5_Fulfilled>  (46) 
True

>  <Ro3>  (46) 
[False, True, True, True]

>  <Ro3_Fulfilled>  (46) 
True

>  <Fsp3>  (46) 
0.4

>  <Fsp3_0.42>  (46) 
False

>  <Fsp3_0.45>  (46) 
False

>  <Stereogenic_Carbons>  (46) 
0

>  <C_Atoms>  (46) 
15

>  <FCStereo>  (46) 
0.0

>  <SPS>  (46) 
373

>  <nSPS>  (46) 
17.761905

>  <PBF>  (46) 
0.980713

>  <PBF_0.6>  (46) 
True

>  <nPBF>  (46) 
0.046701

>  <nPBF_0.016>  (46) 
True

>  <PMI1>  (46) 
880.022365

>  <PMI2>  (46) 
2529.247947

>  <PMI3>  (46) 
2783.575245

>  <NPR1>  (46) 
0.316148

>  <NPR2>  (46) 
0.908633

>  <Sum_NPR>  (46) 
1.224781

>  <Sum_NPR_1.07>  (46) 
True

>  <Sum_NPR_1.2>  (46) 
True

>  <MaxAbsEStateIndex>  (46) 
12.997836

>  <MaxEStateIndex>  (46) 
12.997836

>  <MinAbsEStateIndex>  (46) 
0.404444

>  <MinEStateIndex>  (46) 
-3.448912

>  <qed>  (46) 
0.878489

>  <MolWt>  (46) 
306.411

>  <HeavyAtomMolWt>  (46) 
286.251

>  <ExactMolWt>  (46) 
306.127074

>  <NumValenceElectrons>  (46) 
112

>  <NumRadicalElectrons>  (46) 
0

>  <MaxPartialCharge>  (46) 
0.243407

>  <MinPartialCharge>  (46) 
-0.345118

>  <MaxAbsPartialCharge>  (46) 
0.345118

>  <MinAbsPartialCharge>  (46) 
0.243407

>  <FpDensityMorgan1>  (46) 
1.190476

>  <FpDensityMorgan2>  (46) 
2.047619

>  <FpDensityMorgan3>  (46) 
2.904762

>  <BCUT2D_MWHI>  (46) 
32.233427

>  <BCUT2D_MWLOW>  (46) 
10.102646

>  <BCUT2D_CHGHI>  (46) 
2.275231

>  <BCUT2D_CHGLO>  (46) 
-2.199057

>  <BCUT2D_LOGPHI>  (46) 
2.27385

>  <BCUT2D_LOGPLOW>  (46) 
-2.843702

>  <BCUT2D_MRHI>  (46) 
7.889685

>  <BCUT2D_MRLOW>  (46) 
-0.650697

>  <AvgIpc>  (46) 
2.763908

>  <BalabanJ>  (46) 
2.143612

>  <BertzCT>  (46) 
745.352823

>  <Chi0>  (46) 
14.872033

>  <Chi0n>  (46) 
12.118808

>  <Chi0v>  (46) 
12.935304

>  <Chi1>  (46) 
10.10419

>  <Chi1n>  (46) 
7.256749

>  <Chi1v>  (46) 
8.696812

>  <Chi2n>  (46) 
5.434323

>  <Chi2v>  (46) 
7.34068

>  <Chi3n>  (46) 
3.950813

>  <Chi3v>  (46) 
5.891818

>  <Chi4n>  (46) 
2.86941

>  <Chi4v>  (46) 
4.650135

>  <HallKierAlpha>  (46) 
-1.5

>  <Ipc>  (46) 
81153.852418

>  <Kappa1>  (46) 
14.437804

>  <Kappa2>  (46) 
5.709877

>  <Kappa3>  (46) 
2.661712

>  <LabuteASA>  (46) 
124.587009

>  <PEOE_VSA1>  (46) 
5.316789

>  <PEOE_VSA10>  (46) 
0.0

>  <PEOE_VSA11>  (46) 
0.0

>  <PEOE_VSA12>  (46) 
10.023291

>  <PEOE_VSA13>  (46) 
0.0

>  <PEOE_VSA14>  (46) 
0.0

>  <PEOE_VSA2>  (46) 
4.983979

>  <PEOE_VSA3>  (46) 
8.417797

>  <PEOE_VSA4>  (46) 
4.305216

>  <PEOE_VSA5>  (46) 
0.0

>  <PEOE_VSA6>  (46) 
12.132734

>  <PEOE_VSA7>  (46) 
18.553556

>  <PEOE_VSA8>  (46) 
36.131714

>  <PEOE_VSA9>  (46) 
24.529753

>  <SMR_VSA1>  (46) 
13.734586

>  <SMR_VSA10>  (46) 
20.79574

>  <SMR_VSA2>  (46) 
0.0

>  <SMR_VSA3>  (46) 
9.289195

>  <SMR_VSA4>  (46) 
0.0

>  <SMR_VSA5>  (46) 
18.240042

>  <SMR_VSA6>  (46) 
26.179026

>  <SMR_VSA7>  (46) 
36.15624

>  <SMR_VSA8>  (46) 
0.0

>  <SMR_VSA9>  (46) 
0.0

>  <SlogP_VSA1>  (46) 
5.316789

>  <SlogP_VSA10>  (46) 
0.0

>  <SlogP_VSA11>  (46) 
0.0

>  <SlogP_VSA12>  (46) 
0.0

>  <SlogP_VSA2>  (46) 
43.886017

>  <SlogP_VSA3>  (46) 
10.023291

>  <SlogP_VSA4>  (46) 
6.923737

>  <SlogP_VSA5>  (46) 
11.984273

>  <SlogP_VSA6>  (46) 
35.488272

>  <SlogP_VSA7>  (46) 
0.0

>  <SlogP_VSA8>  (46) 
10.772448

>  <SlogP_VSA9>  (46) 
0.0

>  <EState_VSA1>  (46) 
10.023291

>  <EState_VSA10>  (46) 
8.417797

>  <EState_VSA11>  (46) 
0.0

>  <EState_VSA2>  (46) 
0.0

>  <EState_VSA3>  (46) 
17.984996

>  <EState_VSA4>  (46) 
35.846234

>  <EState_VSA5>  (46) 
0.0

>  <EState_VSA6>  (46) 
28.831637

>  <EState_VSA7>  (46) 
12.990104

>  <EState_VSA8>  (46) 
10.300767

>  <EState_VSA9>  (46) 
0.0

>  <VSA_EState1>  (46) 
27.611885

>  <VSA_EState10>  (46) 
0.0

>  <VSA_EState2>  (46) 
4.55411

>  <VSA_EState3>  (46) 
3.839382

>  <VSA_EState4>  (46) 
0.896351

>  <VSA_EState5>  (46) 
0.0

>  <VSA_EState6>  (46) 
5.406858

>  <VSA_EState7>  (46) 
4.332984

>  <VSA_EState8>  (46) 
4.890675

>  <VSA_EState9>  (46) 
-3.448912

>  <FractionCSP3>  (46) 
0.4

>  <HeavyAtomCount>  (46) 
21

>  <NHOHCount>  (46) 
2

>  <NOCount>  (46) 
5

>  <NumAliphaticCarbocycles>  (46) 
0

>  <NumAliphaticHeterocycles>  (46) 
1

>  <NumAliphaticRings>  (46) 
1

>  <NumAromaticCarbocycles>  (46) 
1

>  <NumAromaticHeterocycles>  (46) 
1

>  <NAR>  (46) 
2

>  <NumHAcceptors>  (46) 
3

>  <NumHDonors>  (46) 
1

>  <NumHeteroatoms>  (46) 
6

>  <NumRotatableBonds>  (46) 
2

>  <NumSaturatedCarbocycles>  (46) 
0

>  <NumSaturatedHeterocycles>  (46) 
1

>  <NumSaturatedRings>  (46) 
1

>  <RingCount>  (46) 
3

>  <MolLogP>  (46) 
0.50102

>  <MolMR>  (46) 
81.5152

>  <fr_Al_COO>  (46) 
0

>  <fr_Al_OH>  (46) 
0

>  <fr_Al_OH_noTert>  (46) 
0

>  <fr_ArN>  (46) 
0

>  <fr_Ar_COO>  (46) 
0

>  <fr_Ar_N>  (46) 
1

>  <fr_Ar_NH>  (46) 
0

>  <fr_Ar_OH>  (46) 
0

>  <fr_COO>  (46) 
0

>  <fr_COO2>  (46) 
0

>  <fr_C_O>  (46) 
0

>  <fr_C_O_noCOO>  (46) 
0

>  <fr_C_S>  (46) 
0

>  <fr_HOCCN>  (46) 
0

>  <fr_Imine>  (46) 
0

>  <fr_NH0>  (46) 
2

>  <fr_NH1>  (46) 
0

>  <fr_NH2>  (46) 
1

>  <fr_N_O>  (46) 
0

>  <fr_Ndealkylation1>  (46) 
0

>  <fr_Ndealkylation2>  (46) 
0

>  <fr_Nhpyrrole>  (46) 
0

>  <fr_SH>  (46) 
0

>  <fr_aldehyde>  (46) 
0

>  <fr_alkyl_carbamate>  (46) 
0

>  <fr_alkyl_halide>  (46) 
0

>  <fr_allylic_oxid>  (46) 
0

>  <fr_amide>  (46) 
0

>  <fr_amidine>  (46) 
0

>  <fr_aniline>  (46) 
0

>  <fr_aryl_methyl>  (46) 
1

>  <fr_azide>  (46) 
0

>  <fr_azo>  (46) 
0

>  <fr_barbitur>  (46) 
0

>  <fr_benzene>  (46) 
1

>  <fr_benzodiazepine>  (46) 
0

>  <fr_bicyclic>  (46) 
1

>  <fr_diazo>  (46) 
0

>  <fr_dihydropyridine>  (46) 
0

>  <fr_epoxide>  (46) 
0

>  <fr_ester>  (46) 
0

>  <fr_ether>  (46) 
0

>  <fr_furan>  (46) 
0

>  <fr_guanido>  (46) 
0

>  <fr_halogen>  (46) 
0

>  <fr_hdrzine>  (46) 
0

>  <fr_hdrzone>  (46) 
0

>  <fr_imidazole>  (46) 
0

>  <fr_imide>  (46) 
0

>  <fr_isocyan>  (46) 
0

>  <fr_isothiocyan>  (46) 
0

>  <fr_ketone>  (46) 
0

>  <fr_ketone_Topliss>  (46) 
0

>  <fr_lactam>  (46) 
0

>  <fr_lactone>  (46) 
0

>  <fr_methoxy>  (46) 
0

>  <fr_morpholine>  (46) 
0

>  <fr_nitrile>  (46) 
0

>  <fr_nitro>  (46) 
0

>  <fr_nitro_arom>  (46) 
0

>  <fr_nitro_arom_nonortho>  (46) 
0

>  <fr_nitroso>  (46) 
0

>  <fr_oxazole>  (46) 
0

>  <fr_oxime>  (46) 
0

>  <fr_para_hydroxylation>  (46) 
0

>  <fr_phenol>  (46) 
0

>  <fr_phenol_noOrthoHbond>  (46) 
0

>  <fr_phos_acid>  (46) 
0

>  <fr_phos_ester>  (46) 
0

>  <fr_piperdine>  (46) 
0

>  <fr_piperzine>  (46) 
0

>  <fr_priamide>  (46) 
0

>  <fr_prisulfonamd>  (46) 
0

>  <fr_pyridine>  (46) 
1

>  <fr_quatN>  (46) 
1

>  <fr_sulfide>  (46) 
0

>  <fr_sulfonamd>  (46) 
1

>  <fr_sulfone>  (46) 
0

>  <fr_term_acetylene>  (46) 
0

>  <fr_tetrazole>  (46) 
0

>  <fr_thiazole>  (46) 
0

>  <fr_thiocyan>  (46) 
0

>  <fr_thiophene>  (46) 
0

>  <fr_unbrch_alkane>  (46) 
0

>  <fr_urea>  (46) 
0

>  <NP-Likeness>  (46) 
-1.285221

$$$$
7N9
     RDKit          3D

  0  0  0  0  0  0  0  0  0  0999 V3000
M  V30 BEGIN CTAB
M  V30 COUNTS 22 22 0 0 0
M  V30 BEGIN ATOM
M  V30 1 C 1.195761 2.379215 0.581691 0
M  V30 2 C 1.751849 1.352268 1.325131 0
M  V30 3 C 1.132161 0.121239 1.377424 0
M  V30 4 O 1.623355 -0.959441 2.098448 0
M  V30 5 C 2.834296 -0.751703 2.811186 0
M  V30 6 C -0.051538 -0.075328 0.678327 0
M  V30 7 C -0.728461 -1.392304 0.725159 0
M  V30 8 N -1.952150 -1.393264 -0.072223 0 CHG=1 VAL=4
M  V30 9 C -0.620851 0.931842 -0.066403 0
M  V30 10 C 0.003915 2.169487 -0.117844 0
M  V30 11 Cl -0.661983 3.487012 -1.040604 0
M  V30 12 H 1.706522 3.345629 0.556462 0
M  V30 13 H 2.683960 1.497111 1.879301 0
M  V30 14 H 3.209437 -1.666509 3.282356 0
M  V30 15 H 2.559695 -0.046188 3.637164 0
M  V30 16 H 3.584174 -0.316841 2.132926 0
M  V30 17 H -1.042358 -1.611197 1.766287 0
M  V30 18 H -0.052241 -2.156421 0.286507 0
M  V30 19 H -2.424844 -2.312073 0.127747 0
M  V30 20 H -2.612309 -0.651439 0.266459 0
M  V30 21 H -1.708567 -1.294308 -1.086910 0
M  V30 22 H -1.543297 0.835631 -0.632334 0
M  V30 END ATOM
M  V30 BEGIN BOND
M  V30 1 2 1 2
M  V30 2 1 2 3
M  V30 3 1 3 4
M  V30 4 1 4 5
M  V30 5 2 3 6
M  V30 6 1 6 7
M  V30 7 1 7 8
M  V30 8 1 6 9
M  V30 9 2 9 10
M  V30 10 1 10 11
M  V30 11 1 10 1
M  V30 12 1 1 12
M  V30 13 1 2 13
M  V30 14 1 5 14
M  V30 15 1 5 15
M  V30 16 1 5 16
M  V30 17 1 7 17
M  V30 18 1 7 18
M  V30 19 1 8 19
M  V30 20 1 8 20
M  V30 21 1 8 21
M  V30 22 1 9 22
M  V30 END BOND
M  V30 END CTAB
M  END
>  <Dataset>  (47) 
PDB

>  <Ligand_Instance>  (47) 
5MHI_7N9_A_402

>  <PDB_ID>  (47) 
5MHI

>  <Standardized_SMILES>  (47) 
[H]C1=C([H])C(OC([H])([H])[H])=C(C([H])([H])[N+]([H])([H])[H])C([H])=C1Cl

>  <Name>  (47) 
(5-chloranyl-2-methoxy-phenyl)methylazanium

>  <Pocket>  (47) 
A

>  <ATP_Site>  (47) 
1.0

>  <Peripheral>  (47) 
1.0

>  <Num_H_Atoms_ProtBoundConf>  (47) 
11.0

>  <Num_Resolved_Atoms>  (47) 
11.0

>  <Num_Not_Resolved_Atoms>  (47) 
0.0

>  <2D_Mol_H>  (47) 
<rdkit.Chem.rdchem.Mol object at 0x72a238dc5070>

>  <MW>  (47) 
172.635

>  <HBA>  (47) 
1

>  <HBD>  (47) 
1

>  <LogP>  (47) 
1.0905

>  <NRB>  (47) 
4

>  <TPSA>  (47) 
36.87

>  <Num_Heavy_Atoms>  (47) 
11

>  <Ro5>  (47) 
[True, True, True, True, True, True]

>  <Ro5_Fulfilled>  (47) 
True

>  <Ro3>  (47) 
[True, True, True, True]

>  <Ro3_Fulfilled>  (47) 
True

>  <Fsp3>  (47) 
0.25

>  <Fsp3_0.42>  (47) 
False

>  <Fsp3_0.45>  (47) 
False

>  <Stereogenic_Carbons>  (47) 
0

>  <C_Atoms>  (47) 
8

>  <FCStereo>  (47) 
0.0

>  <SPS>  (47) 
107

>  <nSPS>  (47) 
9.727273

>  <PBF>  (47) 
0.262311

>  <PBF_0.6>  (47) 
False

>  <nPBF>  (47) 
0.023846

>  <nPBF_0.016>  (47) 
True

>  <PMI1>  (47) 
391.938646

>  <PMI2>  (47) 
773.177762

>  <PMI3>  (47) 
1155.120896

>  <NPR1>  (47) 
0.339305

>  <NPR2>  (47) 
0.669348

>  <Sum_NPR>  (47) 
1.008653

>  <Sum_NPR_1.07>  (47) 
False

>  <Sum_NPR_1.2>  (47) 
False

>  <MaxAbsEStateIndex>  (47) 
5.769226

>  <MaxEStateIndex>  (47) 
5.769226

>  <MinAbsEStateIndex>  (47) 
0.698148

>  <MinEStateIndex>  (47) 
0.698148

>  <qed>  (47) 
0.712708

>  <MolWt>  (47) 
172.635

>  <HeavyAtomMolWt>  (47) 
161.547

>  <ExactMolWt>  (47) 
172.052368

>  <NumValenceElectrons>  (47) 
60

>  <NumRadicalElectrons>  (47) 
0

>  <MaxPartialCharge>  (47) 
0.127298

>  <MinPartialCharge>  (47) 
-0.496241

>  <MaxAbsPartialCharge>  (47) 
0.496241

>  <MinAbsPartialCharge>  (47) 
0.127298

>  <FpDensityMorgan1>  (47) 
1.545455

>  <FpDensityMorgan2>  (47) 
2.272727

>  <FpDensityMorgan3>  (47) 
2.818182

>  <BCUT2D_MWHI>  (47) 
35.495691

>  <BCUT2D_MWLOW>  (47) 
10.18059

>  <BCUT2D_CHGHI>  (47) 
2.013718

>  <BCUT2D_CHGLO>  (47) 
-2.034737

>  <BCUT2D_LOGPHI>  (47) 
2.206485

>  <BCUT2D_LOGPLOW>  (47) 
-2.47097

>  <BCUT2D_MRHI>  (47) 
6.302091

>  <BCUT2D_MRLOW>  (47) 
-0.386131

>  <AvgIpc>  (47) 
2.041531

>  <BalabanJ>  (47) 
3.057989

>  <BertzCT>  (47) 
249.847416

>  <Chi0>  (47) 
8.267585

>  <Chi0n>  (47) 
6.432477

>  <Chi0v>  (47) 
7.188406

>  <Chi1>  (47) 
5.274387

>  <Chi1n>  (47) 
3.392942

>  <Chi1v>  (47) 
3.770906

>  <Chi2n>  (47) 
2.206169

>  <Chi2v>  (47) 
2.642605

>  <Chi3n>  (47) 
1.511786

>  <Chi3v>  (47) 
1.746883

>  <Chi4n>  (47) 
0.942527

>  <Chi4v>  (47) 
1.137227

>  <HallKierAlpha>  (47) 
-0.73

>  <Ipc>  (47) 
336.852662

>  <Kappa1>  (47) 
8.367371

>  <Kappa2>  (47) 
3.600385

>  <Kappa3>  (47) 
1.850859

>  <LabuteASA>  (47) 
70.91799

>  <PEOE_VSA1>  (47) 
10.47053

>  <PEOE_VSA10>  (47) 
12.294268

>  <PEOE_VSA11>  (47) 
0.0

>  <PEOE_VSA12>  (47) 
0.0

>  <PEOE_VSA13>  (47) 
0.0

>  <PEOE_VSA14>  (47) 
0.0

>  <PEOE_VSA2>  (47) 
0.0

>  <PEOE_VSA3>  (47) 
0.0

>  <PEOE_VSA4>  (47) 
0.0

>  <PEOE_VSA5>  (47) 
0.0

>  <PEOE_VSA6>  (47) 
11.60094

>  <PEOE_VSA7>  (47) 
18.199101

>  <PEOE_VSA8>  (47) 
10.586085

>  <PEOE_VSA9>  (47) 
7.109798

>  <SMR_VSA1>  (47) 
10.47053

>  <SMR_VSA10>  (47) 
11.60094

>  <SMR_VSA2>  (47) 
0.0

>  <SMR_VSA3>  (47) 
0.0

>  <SMR_VSA4>  (47) 
0.0

>  <SMR_VSA5>  (47) 
6.544756

>  <SMR_VSA6>  (47) 
7.109798

>  <SMR_VSA7>  (47) 
28.785186

>  <SMR_VSA8>  (47) 
0.0

>  <SMR_VSA9>  (47) 
5.749512

>  <SlogP_VSA1>  (47) 
10.47053

>  <SlogP_VSA10>  (47) 
0.0

>  <SlogP_VSA11>  (47) 
5.749512

>  <SlogP_VSA12>  (47) 
11.60094

>  <SlogP_VSA2>  (47) 
7.109798

>  <SlogP_VSA3>  (47) 
6.544756

>  <SlogP_VSA4>  (47) 
0.0

>  <SlogP_VSA5>  (47) 
5.563451

>  <SlogP_VSA6>  (47) 
18.199101

>  <SlogP_VSA7>  (47) 
5.022633

>  <SlogP_VSA8>  (47) 
0.0

>  <SlogP_VSA9>  (47) 
0.0

>  <EState_VSA1>  (47) 
0.0

>  <EState_VSA10>  (47) 
0.0

>  <EState_VSA11>  (47) 
0.0

>  <EState_VSA2>  (47) 
0.0

>  <EState_VSA3>  (47) 
6.544756

>  <EState_VSA4>  (47) 
16.335597

>  <EState_VSA5>  (47) 
0.0

>  <EState_VSA6>  (47) 
13.176165

>  <EState_VSA7>  (47) 
12.132734

>  <EState_VSA8>  (47) 
5.733667

>  <EState_VSA9>  (47) 
16.337803

>  <VSA_EState1>  (47) 
5.092562

>  <VSA_EState10>  (47) 
5.769226

>  <VSA_EState2>  (47) 
0.0

>  <VSA_EState3>  (47) 
0.726343

>  <VSA_EState4>  (47) 
4.808673

>  <VSA_EState5>  (47) 
0.851296

>  <VSA_EState6>  (47) 
5.523596

>  <VSA_EState7>  (47) 
0.0

>  <VSA_EState8>  (47) 
0.698148

>  <VSA_EState9>  (47) 
1.641268

>  <FractionCSP3>  (47) 
0.25

>  <HeavyAtomCount>  (47) 
11

>  <NHOHCount>  (47) 
3

>  <NOCount>  (47) 
2

>  <NumAliphaticCarbocycles>  (47) 
0

>  <NumAliphaticHeterocycles>  (47) 
0

>  <NumAliphaticRings>  (47) 
0

>  <NumAromaticCarbocycles>  (47) 
1

>  <NumAromaticHeterocycles>  (47) 
0

>  <NAR>  (47) 
1

>  <NumHAcceptors>  (47) 
1

>  <NumHDonors>  (47) 
1

>  <NumHeteroatoms>  (47) 
3

>  <NumRotatableBonds>  (47) 
2

>  <NumSaturatedCarbocycles>  (47) 
0

>  <NumSaturatedHeterocycles>  (47) 
0

>  <NumSaturatedRings>  (47) 
0

>  <RingCount>  (47) 
1

>  <MolLogP>  (47) 
1.0905

>  <MolMR>  (47) 
44.5961

>  <fr_Al_COO>  (47) 
0

>  <fr_Al_OH>  (47) 
0

>  <fr_Al_OH_noTert>  (47) 
0

>  <fr_ArN>  (47) 
0

>  <fr_Ar_COO>  (47) 
0

>  <fr_Ar_N>  (47) 
0

>  <fr_Ar_NH>  (47) 
0

>  <fr_Ar_OH>  (47) 
0

>  <fr_COO>  (47) 
0

>  <fr_COO2>  (47) 
0

>  <fr_C_O>  (47) 
0

>  <fr_C_O_noCOO>  (47) 
0

>  <fr_C_S>  (47) 
0

>  <fr_HOCCN>  (47) 
0

>  <fr_Imine>  (47) 
0

>  <fr_NH0>  (47) 
0

>  <fr_NH1>  (47) 
0

>  <fr_NH2>  (47) 
0

>  <fr_N_O>  (47) 
0

>  <fr_Ndealkylation1>  (47) 
0

>  <fr_Ndealkylation2>  (47) 
0

>  <fr_Nhpyrrole>  (47) 
0

>  <fr_SH>  (47) 
0

>  <fr_aldehyde>  (47) 
0

>  <fr_alkyl_carbamate>  (47) 
0

>  <fr_alkyl_halide>  (47) 
0

>  <fr_allylic_oxid>  (47) 
0

>  <fr_amide>  (47) 
0

>  <fr_amidine>  (47) 
0

>  <fr_aniline>  (47) 
0

>  <fr_aryl_methyl>  (47) 
0

>  <fr_azide>  (47) 
0

>  <fr_azo>  (47) 
0

>  <fr_barbitur>  (47) 
0

>  <fr_benzene>  (47) 
1

>  <fr_benzodiazepine>  (47) 
0

>  <fr_bicyclic>  (47) 
0

>  <fr_diazo>  (47) 
0

>  <fr_dihydropyridine>  (47) 
0

>  <fr_epoxide>  (47) 
0

>  <fr_ester>  (47) 
0

>  <fr_ether>  (47) 
1

>  <fr_furan>  (47) 
0

>  <fr_guanido>  (47) 
0

>  <fr_halogen>  (47) 
1

>  <fr_hdrzine>  (47) 
0

>  <fr_hdrzone>  (47) 
0

>  <fr_imidazole>  (47) 
0

>  <fr_imide>  (47) 
0

>  <fr_isocyan>  (47) 
0

>  <fr_isothiocyan>  (47) 
0

>  <fr_ketone>  (47) 
0

>  <fr_ketone_Topliss>  (47) 
0

>  <fr_lactam>  (47) 
0

>  <fr_lactone>  (47) 
0

>  <fr_methoxy>  (47) 
1

>  <fr_morpholine>  (47) 
0

>  <fr_nitrile>  (47) 
0

>  <fr_nitro>  (47) 
0

>  <fr_nitro_arom>  (47) 
0

>  <fr_nitro_arom_nonortho>  (47) 
0

>  <fr_nitroso>  (47) 
0

>  <fr_oxazole>  (47) 
0

>  <fr_oxime>  (47) 
0

>  <fr_para_hydroxylation>  (47) 
0

>  <fr_phenol>  (47) 
0

>  <fr_phenol_noOrthoHbond>  (47) 
0

>  <fr_phos_acid>  (47) 
0

>  <fr_phos_ester>  (47) 
0

>  <fr_piperdine>  (47) 
0

>  <fr_piperzine>  (47) 
0

>  <fr_priamide>  (47) 
0

>  <fr_prisulfonamd>  (47) 
0

>  <fr_pyridine>  (47) 
0

>  <fr_quatN>  (47) 
1

>  <fr_sulfide>  (47) 
0

>  <fr_sulfonamd>  (47) 
0

>  <fr_sulfone>  (47) 
0

>  <fr_term_acetylene>  (47) 
0

>  <fr_tetrazole>  (47) 
0

>  <fr_thiazole>  (47) 
0

>  <fr_thiocyan>  (47) 
0

>  <fr_thiophene>  (47) 
0

>  <fr_unbrch_alkane>  (47) 
0

>  <fr_urea>  (47) 
0

>  <NP-Likeness>  (47) 
-0.899239

$$$$
7QF
     RDKit          3D

  0  0  0  0  0  0  0  0  0  0999 V3000
M  V30 BEGIN CTAB
M  V30 COUNTS 39 41 0 0 0
M  V30 BEGIN ATOM
M  V30 1 C -2.518991 -0.142486 1.922430 0
M  V30 2 C -2.310087 -1.288452 1.189096 0
M  V30 3 C -1.181516 -1.391119 0.395567 0
M  V30 4 C -0.887051 -2.595760 -0.423942 0 CFG=1
M  V30 5 O 0.453312 -2.876779 -0.227150 0
M  V30 6 C 0.737684 -4.223210 -0.076610 0
M  V30 7 C 0.045847 -4.841911 1.106644 0
M  V30 8 N -1.272178 -4.228018 1.320043 0 CHG=1 VAL=4
M  V30 9 C -1.712226 -3.785209 0.009490 0
M  V30 10 C -0.280749 -0.345253 0.349048 0
M  V30 11 C -0.451488 0.827543 1.071274 0
M  V30 12 C 0.510912 1.923082 1.009962 0
M  V30 13 C 0.243872 3.258465 1.141804 0
M  V30 14 C 1.256917 4.190794 1.062458 0
M  V30 15 C 2.569033 3.825299 0.849286 0
M  V30 16 N 3.631861 4.752085 0.762198 0
M  V30 17 C 2.866017 2.484258 0.712725 0
M  V30 18 C 4.236154 2.060072 0.487294 0
M  V30 19 N 5.340433 1.727191 0.323639 0
M  V30 20 C 1.834706 1.571090 0.796094 0
M  V30 21 C -1.604052 0.881837 1.855457 0
M  V30 22 H -3.414272 -0.091960 2.535953 0
M  V30 23 H -3.022187 -2.103971 1.231786 0
M  V30 24 H -1.111281 -2.415028 -1.495796 0
M  V30 25 H 1.834257 -4.262296 0.149116 0
M  V30 26 H 0.606328 -4.815708 -1.013280 0
M  V30 27 H -0.149099 -5.907971 0.869264 0
M  V30 28 H 0.652380 -4.807003 2.032571 0
M  V30 29 H -1.940635 -4.953965 1.656812 0
M  V30 30 H -1.161791 -3.416966 1.991188 0
M  V30 31 H -2.785184 -3.648669 -0.095066 0
M  V30 32 H -1.422776 -4.615798 -0.694817 0
M  V30 33 H 0.608408 -0.433296 -0.279814 0
M  V30 34 H -0.790739 3.516310 1.307635 0
M  V30 35 H 1.026959 5.256922 1.170026 0
M  V30 36 H 3.947055 5.112389 -0.163529 0
M  V30 37 H 3.863216 4.854810 1.785195 0
M  V30 38 H 2.124875 0.534621 0.682293 0
M  V30 39 H -1.786959 1.773258 2.439768 0
M  V30 END ATOM
M  V30 BEGIN BOND
M  V30 1 2 1 2
M  V30 2 1 2 3
M  V30 3 1 3 4
M  V30 4 1 4 5
M  V30 5 1 5 6
M  V30 6 1 6 7
M  V30 7 1 7 8
M  V30 8 1 8 9
M  V30 9 2 3 10
M  V30 10 1 10 11
M  V30 11 1 11 12
M  V30 12 2 12 13
M  V30 13 1 13 14
M  V30 14 2 14 15
M  V30 15 1 15 16
M  V30 16 1 15 17
M  V30 17 1 17 18
M  V30 18 3 18 19
M  V30 19 2 17 20
M  V30 20 2 11 21
M  V30 21 1 21 1
M  V30 22 1 9 4
M  V30 23 1 20 12
M  V30 24 1 1 22
M  V30 25 1 2 23
M  V30 26 1 4 24 CFG=3
M  V30 27 1 6 25
M  V30 28 1 6 26
M  V30 29 1 7 27
M  V30 30 1 7 28
M  V30 31 1 8 29
M  V30 32 1 8 30
M  V30 33 1 9 31
M  V30 34 1 9 32
M  V30 35 1 10 33
M  V30 36 1 13 34
M  V30 37 1 14 35
M  V30 38 1 16 36
M  V30 39 1 16 37
M  V30 40 1 20 38
M  V30 41 1 21 39
M  V30 END BOND
M  V30 END CTAB
M  END
>  <Dataset>  (48) 
PDB

>  <Ligand_Instance>  (48) 
7PIE_7QF_A_401

>  <PDB_ID>  (48) 
7PIE

>  <Standardized_SMILES>  (48) 
[H]C1=C([H])C([C@@]2([H])OC([H])([H])C([H])([H])[N+]([H])([H])C2([H])[H])=C([H])C(C2=C([H])C([H])=C(N([H])[H])C(C#N)=C2[H])=C1[H]

>  <Name>  (48) 
2-azanyl-5-[3-[(2R)-morpholin-2-yl]phenyl]benzenecarbonitrile

>  <Pocket>  (48) 
A

>  <ATP_Site>  (48) 
1.0

>  <Peripheral>  (48) 
0.0

>  <Num_H_Atoms_ProtBoundConf>  (48) 
18.0

>  <Num_Resolved_Atoms>  (48) 
21.0

>  <Num_Not_Resolved_Atoms>  (48) 
0.0

>  <2D_Mol_H>  (48) 
<rdkit.Chem.rdchem.Mol object at 0x72a238dc5150>

>  <MW>  (48) 
280.351

>  <HBA>  (48) 
3

>  <HBD>  (48) 
2

>  <LogP>  (48) 
1.44218

>  <NRB>  (48) 
3

>  <TPSA>  (48) 
75.65

>  <Num_Heavy_Atoms>  (48) 
21

>  <Ro5>  (48) 
[True, True, True, True, True, True]

>  <Ro5_Fulfilled>  (48) 
True

>  <Ro3>  (48) 
[True, True, True, True]

>  <Ro3_Fulfilled>  (48) 
True

>  <Fsp3>  (48) 
0.235294

>  <Fsp3_0.42>  (48) 
False

>  <Fsp3_0.45>  (48) 
False

>  <Stereogenic_Carbons>  (48) 
1

>  <C_Atoms>  (48) 
17

>  <FCStereo>  (48) 
0.058824

>  <SPS>  (48) 
381

>  <nSPS>  (48) 
18.142857

>  <PBF>  (48) 
0.607458

>  <PBF_0.6>  (48) 
True

>  <nPBF>  (48) 
0.028927

>  <nPBF_0.016>  (48) 
True

>  <PMI1>  (48) 
847.456151

>  <PMI2>  (48) 
3203.981928

>  <PMI3>  (48) 
3895.528407

>  <NPR1>  (48) 
0.217546

>  <NPR2>  (48) 
0.822477

>  <Sum_NPR>  (48) 
1.040023

>  <Sum_NPR_1.07>  (48) 
False

>  <Sum_NPR_1.2>  (48) 
False

>  <MaxAbsEStateIndex>  (48) 
9.094097

>  <MaxEStateIndex>  (48) 
9.094097

>  <MinAbsEStateIndex>  (48) 
0.141592

>  <MinEStateIndex>  (48) 
0.141592

>  <qed>  (48) 
0.817356

>  <MolWt>  (48) 
280.351

>  <HeavyAtomMolWt>  (48) 
262.207

>  <ExactMolWt>  (48) 
280.144439

>  <NumValenceElectrons>  (48) 
106

>  <NumRadicalElectrons>  (48) 
0

>  <MaxPartialCharge>  (48) 
0.131497

>  <MinPartialCharge>  (48) 
-0.397657

>  <MaxAbsPartialCharge>  (48) 
0.397657

>  <MinAbsPartialCharge>  (48) 
0.131497

>  <FpDensityMorgan1>  (48) 
1.190476

>  <FpDensityMorgan2>  (48) 
2.047619

>  <FpDensityMorgan3>  (48) 
2.809524

>  <BCUT2D_MWHI>  (48) 
16.489739

>  <BCUT2D_MWLOW>  (48) 
9.981944

>  <BCUT2D_CHGHI>  (48) 
2.182511

>  <BCUT2D_CHGLO>  (48) 
-2.214054

>  <BCUT2D_LOGPHI>  (48) 
2.266725

>  <BCUT2D_LOGPLOW>  (48) 
-2.877308

>  <BCUT2D_MRHI>  (48) 
5.699731

>  <BCUT2D_MRLOW>  (48) 
-0.678099

>  <AvgIpc>  (48) 
2.561012

>  <BalabanJ>  (48) 
1.938652

>  <BertzCT>  (48) 
684.674843

>  <Chi0>  (48) 
14.65649

>  <Chi0n>  (48) 
11.750285

>  <Chi0v>  (48) 
11.750285

>  <Chi1>  (48) 
10.275188

>  <Chi1n>  (48) 
7.10948

>  <Chi1v>  (48) 
7.10948

>  <Chi2n>  (48) 
5.211781

>  <Chi2v>  (48) 
5.211781

>  <Chi3n>  (48) 
3.787245

>  <Chi3v>  (48) 
3.787245

>  <Chi4n>  (48) 
2.614382

>  <Chi4v>  (48) 
2.614382

>  <HallKierAlpha>  (48) 
-2.35

>  <Ipc>  (48) 
95658.9208

>  <Kappa1>  (48) 
13.624737

>  <Kappa2>  (48) 
5.961066

>  <Kappa3>  (48) 
2.893839

>  <LabuteASA>  (48) 
123.703255

>  <PEOE_VSA1>  (48) 
15.787319

>  <PEOE_VSA10>  (48) 
18.717944

>  <PEOE_VSA11>  (48) 
0.0

>  <PEOE_VSA12>  (48) 
0.0

>  <PEOE_VSA13>  (48) 
0.0

>  <PEOE_VSA14>  (48) 
0.0

>  <PEOE_VSA2>  (48) 
0.0

>  <PEOE_VSA3>  (48) 
0.0

>  <PEOE_VSA4>  (48) 
5.261892

>  <PEOE_VSA5>  (48) 
0.0

>  <PEOE_VSA6>  (48) 
24.265468

>  <PEOE_VSA7>  (48) 
34.889456

>  <PEOE_VSA8>  (48) 
5.687386

>  <PEOE_VSA9>  (48) 
18.71509

>  <SMR_VSA1>  (48) 
10.053652

>  <SMR_VSA10>  (48) 
5.687386

>  <SMR_VSA2>  (48) 
5.261892

>  <SMR_VSA3>  (48) 
0.0

>  <SMR_VSA4>  (48) 
0.0

>  <SMR_VSA5>  (48) 
6.103966

>  <SMR_VSA6>  (48) 
25.430062

>  <SMR_VSA7>  (48) 
53.591472

>  <SMR_VSA8>  (48) 
0.0

>  <SMR_VSA9>  (48) 
17.196124

>  <SlogP_VSA1>  (48) 
11.050456

>  <SlogP_VSA10>  (48) 
5.687386

>  <SlogP_VSA11>  (48) 
0.0

>  <SlogP_VSA12>  (48) 
0.0

>  <SlogP_VSA2>  (48) 
19.696395

>  <SlogP_VSA3>  (48) 
4.736863

>  <SlogP_VSA4>  (48) 
11.331113

>  <SlogP_VSA5>  (48) 
17.230869

>  <SlogP_VSA6>  (48) 
42.464569

>  <SlogP_VSA7>  (48) 
0.0

>  <SlogP_VSA8>  (48) 
11.126903

>  <SlogP_VSA9>  (48) 
0.0

>  <EState_VSA1>  (48) 
0.0

>  <EState_VSA10>  (48) 
0.0

>  <EState_VSA11>  (48) 
0.0

>  <EState_VSA2>  (48) 
6.103966

>  <EState_VSA3>  (48) 
11.250838

>  <EState_VSA4>  (48) 
30.823298

>  <EState_VSA5>  (48) 
5.563451

>  <EState_VSA6>  (48) 
6.066367

>  <EState_VSA7>  (48) 
24.265468

>  <EState_VSA8>  (48) 
23.518744

>  <EState_VSA9>  (48) 
15.732422

>  <VSA_EState1>  (48) 
5.815278

>  <VSA_EState10>  (48) 
0.0

>  <VSA_EState2>  (48) 
0.0

>  <VSA_EState3>  (48) 
11.369734

>  <VSA_EState4>  (48) 
10.071845

>  <VSA_EState5>  (48) 
0.0

>  <VSA_EState6>  (48) 
16.000695

>  <VSA_EState7>  (48) 
0.141592

>  <VSA_EState8>  (48) 
2.767524

>  <VSA_EState9>  (48) 
0.0

>  <FractionCSP3>  (48) 
0.235294

>  <HeavyAtomCount>  (48) 
21

>  <NHOHCount>  (48) 
4

>  <NOCount>  (48) 
4

>  <NumAliphaticCarbocycles>  (48) 
0

>  <NumAliphaticHeterocycles>  (48) 
1

>  <NumAliphaticRings>  (48) 
1

>  <NumAromaticCarbocycles>  (48) 
2

>  <NumAromaticHeterocycles>  (48) 
0

>  <NAR>  (48) 
2

>  <NumHAcceptors>  (48) 
3

>  <NumHDonors>  (48) 
2

>  <NumHeteroatoms>  (48) 
4

>  <NumRotatableBonds>  (48) 
2

>  <NumSaturatedCarbocycles>  (48) 
0

>  <NumSaturatedHeterocycles>  (48) 
1

>  <NumSaturatedRings>  (48) 
1

>  <RingCount>  (48) 
3

>  <MolLogP>  (48) 
1.44218

>  <MolMR>  (48) 
81.3578

>  <fr_Al_COO>  (48) 
0

>  <fr_Al_OH>  (48) 
0

>  <fr_Al_OH_noTert>  (48) 
0

>  <fr_ArN>  (48) 
1

>  <fr_Ar_COO>  (48) 
0

>  <fr_Ar_N>  (48) 
0

>  <fr_Ar_NH>  (48) 
0

>  <fr_Ar_OH>  (48) 
0

>  <fr_COO>  (48) 
0

>  <fr_COO2>  (48) 
0

>  <fr_C_O>  (48) 
0

>  <fr_C_O_noCOO>  (48) 
0

>  <fr_C_S>  (48) 
0

>  <fr_HOCCN>  (48) 
0

>  <fr_Imine>  (48) 
0

>  <fr_NH0>  (48) 
1

>  <fr_NH1>  (48) 
0

>  <fr_NH2>  (48) 
2

>  <fr_N_O>  (48) 
0

>  <fr_Ndealkylation1>  (48) 
0

>  <fr_Ndealkylation2>  (48) 
0

>  <fr_Nhpyrrole>  (48) 
0

>  <fr_SH>  (48) 
0

>  <fr_aldehyde>  (48) 
0

>  <fr_alkyl_carbamate>  (48) 
0

>  <fr_alkyl_halide>  (48) 
0

>  <fr_allylic_oxid>  (48) 
0

>  <fr_amide>  (48) 
0

>  <fr_amidine>  (48) 
0

>  <fr_aniline>  (48) 
1

>  <fr_aryl_methyl>  (48) 
0

>  <fr_azide>  (48) 
0

>  <fr_azo>  (48) 
0

>  <fr_barbitur>  (48) 
0

>  <fr_benzene>  (48) 
2

>  <fr_benzodiazepine>  (48) 
0

>  <fr_bicyclic>  (48) 
0

>  <fr_diazo>  (48) 
0

>  <fr_dihydropyridine>  (48) 
0

>  <fr_epoxide>  (48) 
0

>  <fr_ester>  (48) 
0

>  <fr_ether>  (48) 
1

>  <fr_furan>  (48) 
0

>  <fr_guanido>  (48) 
0

>  <fr_halogen>  (48) 
0

>  <fr_hdrzine>  (48) 
0

>  <fr_hdrzone>  (48) 
0

>  <fr_imidazole>  (48) 
0

>  <fr_imide>  (48) 
0

>  <fr_isocyan>  (48) 
0

>  <fr_isothiocyan>  (48) 
0

>  <fr_ketone>  (48) 
0

>  <fr_ketone_Topliss>  (48) 
0

>  <fr_lactam>  (48) 
0

>  <fr_lactone>  (48) 
0

>  <fr_methoxy>  (48) 
0

>  <fr_morpholine>  (48) 
1

>  <fr_nitrile>  (48) 
1

>  <fr_nitro>  (48) 
0

>  <fr_nitro_arom>  (48) 
0

>  <fr_nitro_arom_nonortho>  (48) 
0

>  <fr_nitroso>  (48) 
0

>  <fr_oxazole>  (48) 
0

>  <fr_oxime>  (48) 
0

>  <fr_para_hydroxylation>  (48) 
0

>  <fr_phenol>  (48) 
0

>  <fr_phenol_noOrthoHbond>  (48) 
0

>  <fr_phos_acid>  (48) 
0

>  <fr_phos_ester>  (48) 
0

>  <fr_piperdine>  (48) 
0

>  <fr_piperzine>  (48) 
0

>  <fr_priamide>  (48) 
0

>  <fr_prisulfonamd>  (48) 
0

>  <fr_pyridine>  (48) 
0

>  <fr_quatN>  (48) 
1

>  <fr_sulfide>  (48) 
0

>  <fr_sulfonamd>  (48) 
0

>  <fr_sulfone>  (48) 
0

>  <fr_term_acetylene>  (48) 
0

>  <fr_tetrazole>  (48) 
0

>  <fr_thiazole>  (48) 
0

>  <fr_thiocyan>  (48) 
0

>  <fr_thiophene>  (48) 
0

>  <fr_unbrch_alkane>  (48) 
0

>  <fr_urea>  (48) 
0

>  <NP-Likeness>  (48) 
-0.509778

$$$$
7QI
     RDKit          3D

  0  0  0  0  0  0  0  0  0  0999 V3000
M  V30 BEGIN CTAB
M  V30 COUNTS 39 41 0 0 0
M  V30 BEGIN ATOM
M  V30 1 C -2.517256 0.258525 1.247014 0
M  V30 2 C -2.340518 -1.074139 0.940731 0
M  V30 3 C -1.179332 -1.623803 0.438022 0
M  V30 4 C -0.953590 -3.030618 0.101782 0 CFG=2
M  V30 5 C -2.043814 -3.903214 0.681260 0
M  V30 6 O -2.095893 -3.806516 2.060095 0
M  V30 7 C -0.864753 -4.024926 2.643817 0
M  V30 8 C 0.140017 -4.529766 1.632519 0
M  V30 9 N 0.299907 -3.567849 0.551276 0 CHG=1 VAL=4
M  V30 10 C -0.135642 -0.731458 0.241291 0
M  V30 11 C -0.267542 0.622505 0.536021 0
M  V30 12 C 0.845455 1.545019 0.321525 0
M  V30 13 C 1.703556 1.265984 -0.721754 0
M  V30 14 C 2.752713 2.138802 -0.920279 0
M  V30 15 C 2.837282 3.216741 -0.042429 0
M  V30 16 N 3.916986 4.103665 -0.259401 0
M  V30 17 C 1.973121 3.486632 0.998418 0
M  V30 18 C 2.189945 4.642722 1.823203 0
M  V30 19 N 2.380275 5.576946 2.483661 0
M  V30 20 C 0.943400 2.618442 1.183022 0
M  V30 21 C -1.457845 1.120658 1.039252 0
M  V30 22 H -3.453821 0.635710 1.639759 0
M  V30 23 H -3.169093 -1.750317 1.102861 0
M  V30 24 H -1.080767 -3.108921 -1.017258 0
M  V30 25 H -3.017875 -3.594513 0.249633 0
M  V30 26 H -1.920585 -4.965418 0.339403 0
M  V30 27 H -0.501413 -3.050238 3.059484 0
M  V30 28 H -0.891583 -4.720859 3.499180 0
M  V30 29 H -0.186845 -5.512477 1.266233 0
M  V30 30 H 1.119905 -4.664461 2.127910 0
M  V30 31 H 1.021503 -2.884531 0.801544 0
M  V30 32 H 0.700082 -4.140260 -0.250804 0
M  V30 33 H 0.824380 -1.043901 -0.147896 0
M  V30 34 H 1.577389 0.409085 -1.364691 0
M  V30 35 H 3.479563 2.008685 -1.709559 0
M  V30 36 H 4.682227 3.708452 0.355736 0
M  V30 37 H 4.665250 4.781903 -0.457515 0
M  V30 38 H 0.239275 2.786254 1.984302 0
M  V30 39 H -1.627101 2.160652 1.288747 0
M  V30 END ATOM
M  V30 BEGIN BOND
M  V30 1 2 1 2
M  V30 2 1 2 3
M  V30 3 1 3 4
M  V30 4 1 4 5
M  V30 5 1 5 6
M  V30 6 1 6 7
M  V30 7 1 7 8
M  V30 8 1 8 9
M  V30 9 2 3 10
M  V30 10 1 10 11
M  V30 11 1 11 12
M  V30 12 2 12 13
M  V30 13 1 13 14
M  V30 14 2 14 15
M  V30 15 1 15 16
M  V30 16 1 15 17
M  V30 17 1 17 18
M  V30 18 3 18 19
M  V30 19 2 17 20
M  V30 20 2 11 21
M  V30 21 1 21 1
M  V30 22 1 9 4
M  V30 23 1 20 12
M  V30 24 1 1 22
M  V30 25 1 2 23
M  V30 26 1 4 24 CFG=3
M  V30 27 1 5 25
M  V30 28 1 5 26
M  V30 29 1 7 27
M  V30 30 1 7 28
M  V30 31 1 8 29
M  V30 32 1 8 30
M  V30 33 1 9 31
M  V30 34 1 9 32
M  V30 35 1 10 33
M  V30 36 1 13 34
M  V30 37 1 14 35
M  V30 38 1 16 36
M  V30 39 1 16 37
M  V30 40 1 20 38
M  V30 41 1 21 39
M  V30 END BOND
M  V30 END CTAB
M  END
>  <Dataset>  (49) 
PDB

>  <Ligand_Instance>  (49) 
7PID_7QI_A_401

>  <PDB_ID>  (49) 
7PID

>  <Standardized_SMILES>  (49) 
[H]C1=C([H])C([C@]2([H])C([H])([H])OC([H])([H])C([H])([H])[N+]2([H])[H])=C([H])C(C2=C([H])C([H])=C(N([H])[H])C(C#N)=C2[H])=C1[H]

>  <Name>  (49) 
2-azanyl-5-[3-[(3R)-morpholin-3-yl]phenyl]benzenecarbonitrile

>  <Pocket>  (49) 
A

>  <ATP_Site>  (49) 
1.0

>  <Peripheral>  (49) 
0.0

>  <Num_H_Atoms_ProtBoundConf>  (49) 
18.0

>  <Num_Resolved_Atoms>  (49) 
21.0

>  <Num_Not_Resolved_Atoms>  (49) 
0.0

>  <2D_Mol_H>  (49) 
<rdkit.Chem.rdchem.Mol object at 0x72a238dc5230>

>  <MW>  (49) 
280.351

>  <HBA>  (49) 
3

>  <HBD>  (49) 
2

>  <LogP>  (49) 
1.44218

>  <NRB>  (49) 
3

>  <TPSA>  (49) 
75.65

>  <Num_Heavy_Atoms>  (49) 
21

>  <Ro5>  (49) 
[True, True, True, True, True, True]

>  <Ro5_Fulfilled>  (49) 
True

>  <Ro3>  (49) 
[True, True, True, True]

>  <Ro3_Fulfilled>  (49) 
True

>  <Fsp3>  (49) 
0.235294

>  <Fsp3_0.42>  (49) 
False

>  <Fsp3_0.45>  (49) 
False

>  <Stereogenic_Carbons>  (49) 
1

>  <C_Atoms>  (49) 
17

>  <FCStereo>  (49) 
0.058824

>  <SPS>  (49) 
381

>  <nSPS>  (49) 
18.142857

>  <PBF>  (49) 
0.867634

>  <PBF_0.6>  (49) 
True

>  <nPBF>  (49) 
0.041316

>  <nPBF_0.016>  (49) 
True

>  <PMI1>  (49) 
674.94733

>  <PMI2>  (49) 
3673.08964

>  <PMI3>  (49) 
3920.657413

>  <NPR1>  (49) 
0.172152

>  <NPR2>  (49) 
0.936856

>  <Sum_NPR>  (49) 
1.109007

>  <Sum_NPR_1.07>  (49) 
True

>  <Sum_NPR_1.2>  (49) 
False

>  <MaxAbsEStateIndex>  (49) 
9.0967

>  <MaxEStateIndex>  (49) 
9.0967

>  <MinAbsEStateIndex>  (49) 
0.349925

>  <MinEStateIndex>  (49) 
0.349925

>  <qed>  (49) 
0.817356

>  <MolWt>  (49) 
280.351

>  <HeavyAtomMolWt>  (49) 
262.207

>  <ExactMolWt>  (49) 
280.144439

>  <NumValenceElectrons>  (49) 
106

>  <NumRadicalElectrons>  (49) 
0

>  <MaxPartialCharge>  (49) 
0.135275

>  <MinPartialCharge>  (49) 
-0.397657

>  <MaxAbsPartialCharge>  (49) 
0.397657

>  <MinAbsPartialCharge>  (49) 
0.135275

>  <FpDensityMorgan1>  (49) 
1.190476

>  <FpDensityMorgan2>  (49) 
2.047619

>  <FpDensityMorgan3>  (49) 
2.809524

>  <BCUT2D_MWHI>  (49) 
16.477763

>  <BCUT2D_MWLOW>  (49) 
9.975889

>  <BCUT2D_CHGHI>  (49) 
2.187835

>  <BCUT2D_CHGLO>  (49) 
-2.209274

>  <BCUT2D_LOGPHI>  (49) 
2.253817

>  <BCUT2D_LOGPLOW>  (49) 
-2.884408

>  <BCUT2D_MRHI>  (49) 
5.69959

>  <BCUT2D_MRLOW>  (49) 
-0.711291

>  <AvgIpc>  (49) 
2.561012

>  <BalabanJ>  (49) 
1.938652

>  <BertzCT>  (49) 
684.674843

>  <Chi0>  (49) 
14.65649

>  <Chi0n>  (49) 
11.750285

>  <Chi0v>  (49) 
11.750285

>  <Chi1>  (49) 
10.275188

>  <Chi1n>  (49) 
7.087538

>  <Chi1v>  (49) 
7.087538

>  <Chi2n>  (49) 
5.245081

>  <Chi2v>  (49) 
5.245081

>  <Chi3n>  (49) 
3.832641

>  <Chi3v>  (49) 
3.832641

>  <Chi4n>  (49) 
2.644746

>  <Chi4v>  (49) 
2.644746

>  <HallKierAlpha>  (49) 
-2.35

>  <Ipc>  (49) 
95658.9208

>  <Kappa1>  (49) 
13.624737

>  <Kappa2>  (49) 
5.961066

>  <Kappa3>  (49) 
2.893839

>  <LabuteASA>  (49) 
123.703255

>  <PEOE_VSA1>  (49) 
15.787319

>  <PEOE_VSA10>  (49) 
18.717944

>  <PEOE_VSA11>  (49) 
0.0

>  <PEOE_VSA12>  (49) 
0.0

>  <PEOE_VSA13>  (49) 
0.0

>  <PEOE_VSA14>  (49) 
0.0

>  <PEOE_VSA2>  (49) 
0.0

>  <PEOE_VSA3>  (49) 
0.0

>  <PEOE_VSA4>  (49) 
5.261892

>  <PEOE_VSA5>  (49) 
0.0

>  <PEOE_VSA6>  (49) 
24.265468

>  <PEOE_VSA7>  (49) 
29.326004

>  <PEOE_VSA8>  (49) 
11.250838

>  <PEOE_VSA9>  (49) 
18.71509

>  <SMR_VSA1>  (49) 
10.053652

>  <SMR_VSA10>  (49) 
5.687386

>  <SMR_VSA2>  (49) 
5.261892

>  <SMR_VSA3>  (49) 
0.0

>  <SMR_VSA4>  (49) 
0.0

>  <SMR_VSA5>  (49) 
6.041841

>  <SMR_VSA6>  (49) 
25.492188

>  <SMR_VSA7>  (49) 
53.591472

>  <SMR_VSA8>  (49) 
0.0

>  <SMR_VSA9>  (49) 
17.196124

>  <SlogP_VSA1>  (49) 
11.050456

>  <SlogP_VSA10>  (49) 
5.687386

>  <SlogP_VSA11>  (49) 
0.0

>  <SlogP_VSA12>  (49) 
0.0

>  <SlogP_VSA2>  (49) 
19.75852

>  <SlogP_VSA3>  (49) 
4.736863

>  <SlogP_VSA4>  (49) 
11.331113

>  <SlogP_VSA5>  (49) 
17.168744

>  <SlogP_VSA6>  (49) 
42.464569

>  <SlogP_VSA7>  (49) 
0.0

>  <SlogP_VSA8>  (49) 
11.126903

>  <SlogP_VSA9>  (49) 
0.0

>  <EState_VSA1>  (49) 
0.0

>  <EState_VSA10>  (49) 
0.0

>  <EState_VSA11>  (49) 
0.0

>  <EState_VSA2>  (49) 
0.0

>  <EState_VSA3>  (49) 
17.292679

>  <EState_VSA4>  (49) 
30.885423

>  <EState_VSA5>  (49) 
5.563451

>  <EState_VSA6>  (49) 
6.066367

>  <EState_VSA7>  (49) 
12.132734

>  <EState_VSA8>  (49) 
35.651478

>  <EState_VSA9>  (49) 
15.732422

>  <VSA_EState1>  (49) 
5.543483

>  <VSA_EState10>  (49) 
0.0

>  <VSA_EState2>  (49) 
0.0

>  <VSA_EState3>  (49) 
11.408509

>  <VSA_EState4>  (49) 
10.18519

>  <VSA_EState5>  (49) 
0.0

>  <VSA_EState6>  (49) 
16.470294

>  <VSA_EState7>  (49) 
0.0

>  <VSA_EState8>  (49) 
2.559191

>  <VSA_EState9>  (49) 
0.0

>  <FractionCSP3>  (49) 
0.235294

>  <HeavyAtomCount>  (49) 
21

>  <NHOHCount>  (49) 
4

>  <NOCount>  (49) 
4

>  <NumAliphaticCarbocycles>  (49) 
0

>  <NumAliphaticHeterocycles>  (49) 
1

>  <NumAliphaticRings>  (49) 
1

>  <NumAromaticCarbocycles>  (49) 
2

>  <NumAromaticHeterocycles>  (49) 
0

>  <NAR>  (49) 
2

>  <NumHAcceptors>  (49) 
3

>  <NumHDonors>  (49) 
2

>  <NumHeteroatoms>  (49) 
4

>  <NumRotatableBonds>  (49) 
2

>  <NumSaturatedCarbocycles>  (49) 
0

>  <NumSaturatedHeterocycles>  (49) 
1

>  <NumSaturatedRings>  (49) 
1

>  <RingCount>  (49) 
3

>  <MolLogP>  (49) 
1.44218

>  <MolMR>  (49) 
81.3578

>  <fr_Al_COO>  (49) 
0

>  <fr_Al_OH>  (49) 
0

>  <fr_Al_OH_noTert>  (49) 
0

>  <fr_ArN>  (49) 
1

>  <fr_Ar_COO>  (49) 
0

>  <fr_Ar_N>  (49) 
0

>  <fr_Ar_NH>  (49) 
0

>  <fr_Ar_OH>  (49) 
0

>  <fr_COO>  (49) 
0

>  <fr_COO2>  (49) 
0

>  <fr_C_O>  (49) 
0

>  <fr_C_O_noCOO>  (49) 
0

>  <fr_C_S>  (49) 
0

>  <fr_HOCCN>  (49) 
0

>  <fr_Imine>  (49) 
0

>  <fr_NH0>  (49) 
1

>  <fr_NH1>  (49) 
0

>  <fr_NH2>  (49) 
2

>  <fr_N_O>  (49) 
0

>  <fr_Ndealkylation1>  (49) 
0

>  <fr_Ndealkylation2>  (49) 
0

>  <fr_Nhpyrrole>  (49) 
0

>  <fr_SH>  (49) 
0

>  <fr_aldehyde>  (49) 
0

>  <fr_alkyl_carbamate>  (49) 
0

>  <fr_alkyl_halide>  (49) 
0

>  <fr_allylic_oxid>  (49) 
0

>  <fr_amide>  (49) 
0

>  <fr_amidine>  (49) 
0

>  <fr_aniline>  (49) 
1

>  <fr_aryl_methyl>  (49) 
0

>  <fr_azide>  (49) 
0

>  <fr_azo>  (49) 
0

>  <fr_barbitur>  (49) 
0

>  <fr_benzene>  (49) 
2

>  <fr_benzodiazepine>  (49) 
0

>  <fr_bicyclic>  (49) 
0

>  <fr_diazo>  (49) 
0

>  <fr_dihydropyridine>  (49) 
0

>  <fr_epoxide>  (49) 
0

>  <fr_ester>  (49) 
0

>  <fr_ether>  (49) 
1

>  <fr_furan>  (49) 
0

>  <fr_guanido>  (49) 
0

>  <fr_halogen>  (49) 
0

>  <fr_hdrzine>  (49) 
0

>  <fr_hdrzone>  (49) 
0

>  <fr_imidazole>  (49) 
0

>  <fr_imide>  (49) 
0

>  <fr_isocyan>  (49) 
0

>  <fr_isothiocyan>  (49) 
0

>  <fr_ketone>  (49) 
0

>  <fr_ketone_Topliss>  (49) 
0

>  <fr_lactam>  (49) 
0

>  <fr_lactone>  (49) 
0

>  <fr_methoxy>  (49) 
0

>  <fr_morpholine>  (49) 
1

>  <fr_nitrile>  (49) 
1

>  <fr_nitro>  (49) 
0

>  <fr_nitro_arom>  (49) 
0

>  <fr_nitro_arom_nonortho>  (49) 
0

>  <fr_nitroso>  (49) 
0

>  <fr_oxazole>  (49) 
0

>  <fr_oxime>  (49) 
0

>  <fr_para_hydroxylation>  (49) 
0

>  <fr_phenol>  (49) 
0

>  <fr_phenol_noOrthoHbond>  (49) 
0

>  <fr_phos_acid>  (49) 
0

>  <fr_phos_ester>  (49) 
0

>  <fr_piperdine>  (49) 
0

>  <fr_piperzine>  (49) 
0

>  <fr_priamide>  (49) 
0

>  <fr_prisulfonamd>  (49) 
0

>  <fr_pyridine>  (49) 
0

>  <fr_quatN>  (49) 
1

>  <fr_sulfide>  (49) 
0

>  <fr_sulfonamd>  (49) 
0

>  <fr_sulfone>  (49) 
0

>  <fr_term_acetylene>  (49) 
0

>  <fr_tetrazole>  (49) 
0

>  <fr_thiazole>  (49) 
0

>  <fr_thiocyan>  (49) 
0

>  <fr_thiophene>  (49) 
0

>  <fr_unbrch_alkane>  (49) 
0

>  <fr_urea>  (49) 
0

>  <NP-Likeness>  (49) 
-0.516991

$$$$
7QL
     RDKit          3D

  0  0  0  0  0  0  0  0  0  0999 V3000
M  V30 BEGIN CTAB
M  V30 COUNTS 45 47 0 0 0
M  V30 BEGIN ATOM
M  V30 1 C -1.651907 -1.952075 2.569616 0
M  V30 2 C -0.582817 -2.548629 1.935754 0
M  V30 3 C 0.274319 -1.925788 1.053732 0
M  V30 4 C 1.433678 -2.541014 0.370544 0
M  V30 5 C 1.744360 -3.940942 0.816424 0
M  V30 6 N 2.062552 -3.956372 2.226436 0 CHG=1 VAL=4
M  V30 7 C 1.149101 -2.483478 -1.128941 0
M  V30 8 C 2.442210 -2.214786 -1.905669 0
M  V30 9 O 3.510780 -2.864675 -1.293994 0
M  V30 10 C 3.857853 -2.169491 -0.161508 0
M  V30 11 C 2.649143 -1.624639 0.556308 0
M  V30 12 C -0.001465 -0.605176 0.820596 0
M  V30 13 C -1.061882 0.036635 1.432476 0
M  V30 14 C -1.408210 1.444018 1.230147 0
M  V30 15 C -0.328234 2.291279 0.980328 0
M  V30 16 C -0.571891 3.639531 0.778876 0
M  V30 17 C -1.882536 4.055721 0.840166 0
M  V30 18 N -2.088258 5.450907 0.627701 0
M  V30 19 C -2.975476 3.254607 1.083379 0
M  V30 20 C -4.317101 3.769066 1.130563 0
M  V30 21 N -5.412298 4.172802 1.176022 0
M  V30 22 C -2.711106 1.894975 1.284724 0
M  V30 23 C -1.906271 -0.618486 2.315842 0
M  V30 24 H -2.278873 -2.509813 3.248940 0
M  V30 25 H -0.429945 -3.592987 2.158842 0
M  V30 26 H 0.858345 -4.587316 0.641623 0
M  V30 27 H 2.598617 -4.331839 0.257678 0
M  V30 28 H 1.823388 -3.027707 2.629622 0
M  V30 29 H 3.106107 -4.077030 2.305441 0
M  V30 30 H 1.566466 -4.703335 2.767759 0
M  V30 31 H 0.533559 -1.575683 -1.296117 0
M  V30 32 H 0.657885 -3.400347 -1.466648 0
M  V30 33 H 2.686029 -1.132951 -1.927894 0
M  V30 34 H 2.308380 -2.602639 -2.948869 0
M  V30 35 H 4.440466 -2.737918 0.578511 0
M  V30 36 H 4.530678 -1.322384 -0.492199 0
M  V30 37 H 2.396158 -0.677040 0.037693 0
M  V30 38 H 2.843232 -1.393516 1.616771 0
M  V30 39 H 0.524738 0.057105 0.181499 0
M  V30 40 H 0.690768 1.950058 0.935686 0
M  V30 41 H 0.243078 4.324047 0.582946 0
M  V30 42 H -1.624022 6.082398 -0.063968 0
M  V30 43 H -2.620439 6.279967 0.939826 0
M  V30 44 H -3.509720 1.203102 1.480425 0
M  V30 45 H -2.740604 -0.161169 2.813058 0
M  V30 END ATOM
M  V30 BEGIN BOND
M  V30 1 2 1 2
M  V30 2 1 2 3
M  V30 3 1 3 4
M  V30 4 1 4 5
M  V30 5 1 5 6
M  V30 6 1 4 7
M  V30 7 1 7 8
M  V30 8 1 8 9
M  V30 9 1 9 10
M  V30 10 1 10 11
M  V30 11 2 3 12
M  V30 12 1 12 13
M  V30 13 1 13 14
M  V30 14 2 14 15
M  V30 15 1 15 16
M  V30 16 2 16 17
M  V30 17 1 17 18
M  V30 18 1 17 19
M  V30 19 1 19 20
M  V30 20 3 20 21
M  V30 21 2 19 22
M  V30 22 2 13 23
M  V30 23 1 23 1
M  V30 24 1 11 4
M  V30 25 1 22 14
M  V30 26 1 1 24
M  V30 27 1 2 25
M  V30 28 1 5 26
M  V30 29 1 5 27
M  V30 30 1 6 28
M  V30 31 1 6 29
M  V30 32 1 6 30
M  V30 33 1 7 31
M  V30 34 1 7 32
M  V30 35 1 8 33
M  V30 36 1 8 34
M  V30 37 1 10 35
M  V30 38 1 10 36
M  V30 39 1 11 37
M  V30 40 1 11 38
M  V30 41 1 12 39
M  V30 42 1 15 40
M  V30 43 1 16 41
M  V30 44 1 18 42
M  V30 45 1 18 43
M  V30 46 1 22 44
M  V30 47 1 23 45
M  V30 END BOND
M  V30 END CTAB
M  END
>  <Dataset>  (50) 
PDB

>  <Ligand_Instance>  (50) 
7PIF_7QL_A_401

>  <PDB_ID>  (50) 
7PIF

>  <Standardized_SMILES>  (50) 
[H]C1=C([H])C(C2(C([H])([H])[N+]([H])([H])[H])C([H])([H])C([H])([H])OC([H])([H])C2([H])[H])=C([H])C(C2=C([H])C([H])=C(N([H])[H])C(C#N)=C2[H])=C1[H]

>  <Name>  (50) 
5-[3-[4-(aminomethyl)oxan-4-yl]phenyl]-2-azanyl-benzenecarbonitrile

>  <Pocket>  (50) 
A

>  <ATP_Site>  (50) 
1.0

>  <Peripheral>  (50) 
0.0

>  <Num_H_Atoms_ProtBoundConf>  (50) 
22.0

>  <Num_Resolved_Atoms>  (50) 
23.0

>  <Num_Not_Resolved_Atoms>  (50) 
0.0

>  <2D_Mol_H>  (50) 
<rdkit.Chem.rdchem.Mol object at 0x72a238dc5310>

>  <MW>  (50) 
308.405

>  <HBA>  (50) 
3

>  <HBD>  (50) 
2

>  <LogP>  (50) 
2.09758

>  <NRB>  (50) 
5

>  <TPSA>  (50) 
86.68

>  <Num_Heavy_Atoms>  (50) 
23

>  <Ro5>  (50) 
[True, True, True, True, True, True]

>  <Ro5_Fulfilled>  (50) 
True

>  <Ro3>  (50) 
[False, True, True, True]

>  <Ro3_Fulfilled>  (50) 
True

>  <Fsp3>  (50) 
0.315789

>  <Fsp3_0.42>  (50) 
False

>  <Fsp3_0.45>  (50) 
False

>  <Stereogenic_Carbons>  (50) 
0

>  <C_Atoms>  (50) 
19

>  <FCStereo>  (50) 
0.0

>  <SPS>  (50) 
384

>  <nSPS>  (50) 
16.695652

>  <PBF>  (50) 
0.780616

>  <PBF_0.6>  (50) 
True

>  <nPBF>  (50) 
0.03394

>  <nPBF_0.016>  (50) 
True

>  <PMI1>  (50) 
883.474554

>  <PMI2>  (50) 
4231.238927

>  <PMI3>  (50) 
4757.265078

>  <NPR1>  (50) 
0.185711

>  <NPR2>  (50) 
0.889427

>  <Sum_NPR>  (50) 
1.075137

>  <Sum_NPR_1.07>  (50) 
True

>  <Sum_NPR_1.2>  (50) 
False

>  <MaxAbsEStateIndex>  (50) 
9.175163

>  <MaxEStateIndex>  (50) 
9.175163

>  <MinAbsEStateIndex>  (50) 
0.097348

>  <MinEStateIndex>  (50) 
0.097348

>  <qed>  (50) 
0.851267

>  <MolWt>  (50) 
308.405

>  <HeavyAtomMolWt>  (50) 
286.229

>  <ExactMolWt>  (50) 
308.175739

>  <NumValenceElectrons>  (50) 
118

>  <NumRadicalElectrons>  (50) 
0

>  <MaxPartialCharge>  (50) 
0.101314

>  <MinPartialCharge>  (50) 
-0.397657

>  <MaxAbsPartialCharge>  (50) 
0.397657

>  <MinAbsPartialCharge>  (50) 
0.101314

>  <FpDensityMorgan1>  (50) 
1.130435

>  <FpDensityMorgan2>  (50) 
1.869565

>  <FpDensityMorgan3>  (50) 
2.565217

>  <BCUT2D_MWHI>  (50) 
16.474539

>  <BCUT2D_MWLOW>  (50) 
9.734635

>  <BCUT2D_CHGHI>  (50) 
2.347897

>  <BCUT2D_CHGLO>  (50) 
-2.346686

>  <BCUT2D_LOGPHI>  (50) 
2.353317

>  <BCUT2D_LOGPLOW>  (50) 
-2.60904

>  <BCUT2D_MRHI>  (50) 
5.70202

>  <BCUT2D_MRLOW>  (50) 
-0.385987

>  <AvgIpc>  (50) 
2.62555

>  <BalabanJ>  (50) 
2.013751

>  <BertzCT>  (50) 
742.520212

>  <Chi0>  (50) 
16.286246

>  <Chi0n>  (50) 
13.216905

>  <Chi0v>  (50) 
13.216905

>  <Chi1>  (50) 
11.1818

>  <Chi1n>  (50) 
7.959693

>  <Chi1v>  (50) 
7.959693

>  <Chi2n>  (50) 
6.13734

>  <Chi2v>  (50) 
6.13734

>  <Chi3n>  (50) 
4.910482

>  <Chi3v>  (50) 
4.910482

>  <Chi4n>  (50) 
3.30645

>  <Chi4v>  (50) 
3.30645

>  <HallKierAlpha>  (50) 
-2.35

>  <Ipc>  (50) 
229998.209767

>  <Kappa1>  (50) 
15.542066

>  <Kappa2>  (50) 
6.411415

>  <Kappa3>  (50) 
2.93745

>  <LabuteASA>  (50) 
136.223167

>  <PEOE_VSA1>  (50) 
16.204198

>  <PEOE_VSA10>  (50) 
6.069221

>  <PEOE_VSA11>  (50) 
0.0

>  <PEOE_VSA12>  (50) 
0.0

>  <PEOE_VSA13>  (50) 
0.0

>  <PEOE_VSA14>  (50) 
0.0

>  <PEOE_VSA2>  (50) 
0.0

>  <PEOE_VSA3>  (50) 
0.0

>  <PEOE_VSA4>  (50) 
5.261892

>  <PEOE_VSA5>  (50) 
0.0

>  <PEOE_VSA6>  (50) 
30.331835

>  <PEOE_VSA7>  (50) 
41.664732

>  <PEOE_VSA8>  (50) 
24.316141

>  <PEOE_VSA9>  (50) 
12.108208

>  <SMR_VSA1>  (50) 
10.47053

>  <SMR_VSA10>  (50) 
5.687386

>  <SMR_VSA2>  (50) 
5.261892

>  <SMR_VSA3>  (50) 
0.0

>  <SMR_VSA4>  (50) 
0.0

>  <SMR_VSA5>  (50) 
18.256634

>  <SMR_VSA6>  (50) 
25.492188

>  <SMR_VSA7>  (50) 
53.591472

>  <SMR_VSA8>  (50) 
0.0

>  <SMR_VSA9>  (50) 
17.196124

>  <SlogP_VSA1>  (50) 
11.467335

>  <SlogP_VSA10>  (50) 
5.687386

>  <SlogP_VSA11>  (50) 
0.0

>  <SlogP_VSA12>  (50) 
0.0

>  <SlogP_VSA2>  (50) 
19.75852

>  <SlogP_VSA3>  (50) 
10.151853

>  <SlogP_VSA4>  (50) 
11.331113

>  <SlogP_VSA5>  (50) 
23.968546

>  <SlogP_VSA6>  (50) 
42.464569

>  <SlogP_VSA7>  (50) 
0.0

>  <SlogP_VSA8>  (50) 
11.126903

>  <SlogP_VSA9>  (50) 
0.0

>  <EState_VSA1>  (50) 
0.0

>  <EState_VSA10>  (50) 
5.261892

>  <EState_VSA11>  (50) 
0.0

>  <EState_VSA2>  (50) 
5.41499

>  <EState_VSA3>  (50) 
11.250838

>  <EState_VSA4>  (50) 
43.727067

>  <EState_VSA5>  (50) 
5.563451

>  <EState_VSA6>  (50) 
6.066367

>  <EState_VSA7>  (50) 
12.132734

>  <EState_VSA8>  (50) 
36.068357

>  <EState_VSA9>  (50) 
10.47053

>  <VSA_EState1>  (50) 
5.528689

>  <VSA_EState10>  (50) 
0.0

>  <VSA_EState2>  (50) 
0.0

>  <VSA_EState3>  (50) 
9.175163

>  <VSA_EState4>  (50) 
14.579002

>  <VSA_EState5>  (50) 
0.0

>  <VSA_EState6>  (50) 
16.340492

>  <VSA_EState7>  (50) 
2.010192

>  <VSA_EState8>  (50) 
2.449796

>  <VSA_EState9>  (50) 
0.0

>  <FractionCSP3>  (50) 
0.315789

>  <HeavyAtomCount>  (50) 
23

>  <NHOHCount>  (50) 
5

>  <NOCount>  (50) 
4

>  <NumAliphaticCarbocycles>  (50) 
0

>  <NumAliphaticHeterocycles>  (50) 
1

>  <NumAliphaticRings>  (50) 
1

>  <NumAromaticCarbocycles>  (50) 
2

>  <NumAromaticHeterocycles>  (50) 
0

>  <NAR>  (50) 
2

>  <NumHAcceptors>  (50) 
3

>  <NumHDonors>  (50) 
2

>  <NumHeteroatoms>  (50) 
4

>  <NumRotatableBonds>  (50) 
3

>  <NumSaturatedCarbocycles>  (50) 
0

>  <NumSaturatedHeterocycles>  (50) 
1

>  <NumSaturatedRings>  (50) 
1

>  <RingCount>  (50) 
3

>  <MolLogP>  (50) 
2.09758

>  <MolMR>  (50) 
90.4915

>  <fr_Al_COO>  (50) 
0

>  <fr_Al_OH>  (50) 
0

>  <fr_Al_OH_noTert>  (50) 
0

>  <fr_ArN>  (50) 
1

>  <fr_Ar_COO>  (50) 
0

>  <fr_Ar_N>  (50) 
0

>  <fr_Ar_NH>  (50) 
0

>  <fr_Ar_OH>  (50) 
0

>  <fr_COO>  (50) 
0

>  <fr_COO2>  (50) 
0

>  <fr_C_O>  (50) 
0

>  <fr_C_O_noCOO>  (50) 
0

>  <fr_C_S>  (50) 
0

>  <fr_HOCCN>  (50) 
0

>  <fr_Imine>  (50) 
0

>  <fr_NH0>  (50) 
1

>  <fr_NH1>  (50) 
0

>  <fr_NH2>  (50) 
1

>  <fr_N_O>  (50) 
0

>  <fr_Ndealkylation1>  (50) 
0

>  <fr_Ndealkylation2>  (50) 
0

>  <fr_Nhpyrrole>  (50) 
0

>  <fr_SH>  (50) 
0

>  <fr_aldehyde>  (50) 
0

>  <fr_alkyl_carbamate>  (50) 
0

>  <fr_alkyl_halide>  (50) 
0

>  <fr_allylic_oxid>  (50) 
0

>  <fr_amide>  (50) 
0

>  <fr_amidine>  (50) 
0

>  <fr_aniline>  (50) 
1

>  <fr_aryl_methyl>  (50) 
0

>  <fr_azide>  (50) 
0

>  <fr_azo>  (50) 
0

>  <fr_barbitur>  (50) 
0

>  <fr_benzene>  (50) 
2

>  <fr_benzodiazepine>  (50) 
0

>  <fr_bicyclic>  (50) 
0

>  <fr_diazo>  (50) 
0

>  <fr_dihydropyridine>  (50) 
0

>  <fr_epoxide>  (50) 
0

>  <fr_ester>  (50) 
0

>  <fr_ether>  (50) 
1

>  <fr_furan>  (50) 
0

>  <fr_guanido>  (50) 
0

>  <fr_halogen>  (50) 
0

>  <fr_hdrzine>  (50) 
0

>  <fr_hdrzone>  (50) 
0

>  <fr_imidazole>  (50) 
0

>  <fr_imide>  (50) 
0

>  <fr_isocyan>  (50) 
0

>  <fr_isothiocyan>  (50) 
0

>  <fr_ketone>  (50) 
0

>  <fr_ketone_Topliss>  (50) 
0

>  <fr_lactam>  (50) 
0

>  <fr_lactone>  (50) 
0

>  <fr_methoxy>  (50) 
0

>  <fr_morpholine>  (50) 
0

>  <fr_nitrile>  (50) 
1

>  <fr_nitro>  (50) 
0

>  <fr_nitro_arom>  (50) 
0

>  <fr_nitro_arom_nonortho>  (50) 
0

>  <fr_nitroso>  (50) 
0

>  <fr_oxazole>  (50) 
0

>  <fr_oxime>  (50) 
0

>  <fr_para_hydroxylation>  (50) 
0

>  <fr_phenol>  (50) 
0

>  <fr_phenol_noOrthoHbond>  (50) 
0

>  <fr_phos_acid>  (50) 
0

>  <fr_phos_ester>  (50) 
0

>  <fr_piperdine>  (50) 
0

>  <fr_piperzine>  (50) 
0

>  <fr_priamide>  (50) 
0

>  <fr_prisulfonamd>  (50) 
0

>  <fr_pyridine>  (50) 
0

>  <fr_quatN>  (50) 
1

>  <fr_sulfide>  (50) 
0

>  <fr_sulfonamd>  (50) 
0

>  <fr_sulfone>  (50) 
0

>  <fr_term_acetylene>  (50) 
0

>  <fr_tetrazole>  (50) 
0

>  <fr_thiazole>  (50) 
0

>  <fr_thiocyan>  (50) 
0

>  <fr_thiophene>  (50) 
0

>  <fr_unbrch_alkane>  (50) 
0

>  <fr_urea>  (50) 
0

>  <NP-Likeness>  (50) 
-0.614165

$$$$
7QR
     RDKit          3D

  0  0  0  0  0  0  0  0  0  0999 V3000
M  V30 BEGIN CTAB
M  V30 COUNTS 32 33 0 0 0
M  V30 BEGIN ATOM
M  V30 1 C 0.805519 -1.770029 1.242584 0
M  V30 2 C 1.829502 -2.432735 1.926316 0
M  V30 3 C 3.096854 -2.070917 1.524121 0
M  V30 4 N 4.156398 -2.727434 2.200624 0
M  V30 5 C 3.462235 -1.158305 0.555019 0
M  V30 6 C 4.847262 -0.906713 0.268737 0
M  V30 7 N 5.966597 -0.706220 0.053235 0
M  V30 8 C 2.418744 -0.535786 -0.085000 0
M  V30 9 Cl 2.834323 0.636964 -1.330573 0
M  V30 10 C 1.121320 -0.852132 0.269726 0
M  V30 11 C 0.129006 -0.097316 -0.482225 0
M  V30 12 C -0.895236 0.472797 0.074193 0
M  V30 13 C -1.900203 1.242112 -0.743787 0
M  V30 14 C -3.229225 0.533777 -0.530091 0
M  V30 15 C -3.043821 -0.623839 0.423331 0
M  V30 16 N -2.445541 -0.234393 1.685223 0 CHG=1 VAL=4
M  V30 17 C -1.202653 0.470833 1.510309 0
M  V30 18 H -0.214800 -2.008594 1.491444 0
M  V30 19 H 1.659465 -3.160490 2.697597 0
M  V30 20 H 4.958641 -3.129256 2.692869 0
M  V30 21 H 4.174135 -3.764902 2.428288 0
M  V30 22 H 0.205241 0.025035 -1.570517 0
M  V30 23 H -1.597845 1.301183 -1.800949 0
M  V30 24 H -1.992063 2.234115 -0.259199 0
M  V30 25 H -3.500596 0.090080 -1.521107 0
M  V30 26 H -4.048733 1.217023 -0.254180 0
M  V30 27 H -2.507184 -1.424756 -0.088872 0
M  V30 28 H -4.066113 -0.999235 0.673053 0
M  V30 29 H -2.283420 -1.078508 2.237554 0
M  V30 30 H -3.193109 0.348876 2.164610 0
M  V30 31 H -0.398391 0.211494 2.188239 0
M  V30 32 H -1.448426 1.552971 1.766804 0
M  V30 END ATOM
M  V30 BEGIN BOND
M  V30 1 2 1 2
M  V30 2 1 2 3
M  V30 3 1 3 4
M  V30 4 2 3 5
M  V30 5 1 5 6
M  V30 6 3 6 7
M  V30 7 1 5 8
M  V30 8 1 8 9
M  V30 9 2 8 10
M  V30 10 1 10 11
M  V30 11 2 11 12
M  V30 12 1 12 13
M  V30 13 1 13 14
M  V30 14 1 14 15
M  V30 15 1 15 16
M  V30 16 1 16 17
M  V30 17 1 10 1
M  V30 18 1 17 12
M  V30 19 1 1 18
M  V30 20 1 2 19
M  V30 21 1 4 20
M  V30 22 1 4 21
M  V30 23 1 11 22
M  V30 24 1 13 23
M  V30 25 1 13 24
M  V30 26 1 14 25
M  V30 27 1 14 26
M  V30 28 1 15 27
M  V30 29 1 15 28
M  V30 30 1 16 29
M  V30 31 1 16 30
M  V30 32 1 17 31
M  V30 33 1 17 32
M  V30 END BOND
M  V30 END CTAB
M  END
>  <Dataset>  (51) 
PDB

>  <Ligand_Instance>  (51) 
7PIG_7QR_A_401

>  <PDB_ID>  (51) 
7PIG

>  <Standardized_SMILES>  (51) 
[H]C1=C([H])C(N([H])[H])=C(C#N)C(Cl)=C1/C([H])=C1/C([H])([H])C([H])([H])C([H])([H])[N+]([H])([H])C1([H])[H]

>  <Name>  (51) 
6-azanyl-2-chloranyl-3-[(Z)-piperidin-3-ylidenemethyl]benzenecarbonitrile

>  <Pocket>  (51) 
A

>  <ATP_Site>  (51) 
1.0

>  <Peripheral>  (51) 
0.0

>  <Num_H_Atoms_ProtBoundConf>  (51) 
15.0

>  <Num_Resolved_Atoms>  (51) 
17.0

>  <Num_Not_Resolved_Atoms>  (51) 
0.0

>  <2D_Mol_H>  (51) 
<rdkit.Chem.rdchem.Mol object at 0x72a238dc53f0>

>  <MW>  (51) 
248.737

>  <HBA>  (51) 
2

>  <HBD>  (51) 
2

>  <LogP>  (51) 
1.53448

>  <NRB>  (51) 
2

>  <TPSA>  (51) 
66.42

>  <Num_Heavy_Atoms>  (51) 
17

>  <Ro5>  (51) 
[True, True, True, True, True, True]

>  <Ro5_Fulfilled>  (51) 
True

>  <Ro3>  (51) 
[True, True, True, True]

>  <Ro3_Fulfilled>  (51) 
True

>  <Fsp3>  (51) 
0.307692

>  <Fsp3_0.42>  (51) 
False

>  <Fsp3_0.45>  (51) 
False

>  <Stereogenic_Carbons>  (51) 
0

>  <C_Atoms>  (51) 
13

>  <FCStereo>  (51) 
0.0

>  <SPS>  (51) 
306

>  <nSPS>  (51) 
18.0

>  <PBF>  (51) 
0.588264

>  <PBF_0.6>  (51) 
False

>  <nPBF>  (51) 
0.034604

>  <nPBF_0.016>  (51) 
True

>  <PMI1>  (51) 
587.580018

>  <PMI2>  (51) 
2022.881987

>  <PMI3>  (51) 
2503.020402

>  <NPR1>  (51) 
0.234748

>  <NPR2>  (51) 
0.808176

>  <Sum_NPR>  (51) 
1.042925

>  <Sum_NPR_1.07>  (51) 
False

>  <Sum_NPR_1.2>  (51) 
False

>  <MaxAbsEStateIndex>  (51) 
8.988258

>  <MaxEStateIndex>  (51) 
8.988258

>  <MinAbsEStateIndex>  (51) 
0.375746

>  <MinEStateIndex>  (51) 
0.375746

>  <qed>  (51) 
0.740626

>  <MolWt>  (51) 
248.737

>  <HeavyAtomMolWt>  (51) 
233.617

>  <ExactMolWt>  (51) 
248.094902

>  <NumValenceElectrons>  (51) 
88

>  <NumRadicalElectrons>  (51) 
0

>  <MaxPartialCharge>  (51) 
0.102901

>  <MinPartialCharge>  (51) 
-0.397613

>  <MaxAbsPartialCharge>  (51) 
0.397613

>  <MinAbsPartialCharge>  (51) 
0.102901

>  <FpDensityMorgan1>  (51) 
1.470588

>  <FpDensityMorgan2>  (51) 
2.294118

>  <FpDensityMorgan3>  (51) 
2.941176

>  <BCUT2D_MWHI>  (51) 
35.495692

>  <BCUT2D_MWLOW>  (51) 
10.014579

>  <BCUT2D_CHGHI>  (51) 
2.112482

>  <BCUT2D_CHGLO>  (51) 
-2.127472

>  <BCUT2D_LOGPHI>  (51) 
2.275

>  <BCUT2D_LOGPLOW>  (51) 
-2.855577

>  <BCUT2D_MRHI>  (51) 
6.332357

>  <BCUT2D_MRLOW>  (51) 
-0.652637

>  <AvgIpc>  (51) 
2.348678

>  <BalabanJ>  (51) 
2.365188

>  <BertzCT>  (51) 
492.121418

>  <Chi0>  (51) 
12.250712

>  <Chi0n>  (51) 
9.540357

>  <Chi0v>  (51) 
10.296285

>  <Chi1>  (51) 
8.219545

>  <Chi1n>  (51) 
5.712901

>  <Chi1v>  (51) 
6.090866

>  <Chi2n>  (51) 
4.232416

>  <Chi2v>  (51) 
4.610381

>  <Chi3n>  (51) 
2.988158

>  <Chi3v>  (51) 
3.395358

>  <Chi4n>  (51) 
2.046209

>  <Chi4v>  (51) 
2.315124

>  <HallKierAlpha>  (51) 
-1.5

>  <Ipc>  (51) 
8765.266513

>  <Kappa1>  (51) 
11.970156

>  <Kappa2>  (51) 
5.22

>  <Kappa3>  (51) 
2.603419

>  <LabuteASA>  (51) 
105.876163

>  <PEOE_VSA1>  (51) 
11.050456

>  <PEOE_VSA10>  (51) 
6.069221

>  <PEOE_VSA11>  (51) 
0.0

>  <PEOE_VSA12>  (51) 
0.0

>  <PEOE_VSA13>  (51) 
0.0

>  <PEOE_VSA14>  (51) 
0.0

>  <PEOE_VSA2>  (51) 
0.0

>  <PEOE_VSA3>  (51) 
0.0

>  <PEOE_VSA4>  (51) 
5.261892

>  <PEOE_VSA5>  (51) 
0.0

>  <PEOE_VSA6>  (51) 
17.667307

>  <PEOE_VSA7>  (51) 
29.699765

>  <PEOE_VSA8>  (51) 
6.420822

>  <PEOE_VSA9>  (51) 
29.362984

>  <SMR_VSA1>  (51) 
5.316789

>  <SMR_VSA10>  (51) 
23.364346

>  <SMR_VSA2>  (51) 
5.261892

>  <SMR_VSA3>  (51) 
0.0

>  <SMR_VSA4>  (51) 
0.0

>  <SMR_VSA5>  (51) 
12.841643

>  <SMR_VSA6>  (51) 
18.82318

>  <SMR_VSA7>  (51) 
33.855375

>  <SMR_VSA8>  (51) 
0.0

>  <SMR_VSA9>  (51) 
6.069221

>  <SlogP_VSA1>  (51) 
11.050456

>  <SlogP_VSA10>  (51) 
5.687386

>  <SlogP_VSA11>  (51) 
0.0

>  <SlogP_VSA12>  (51) 
11.60094

>  <SlogP_VSA2>  (51) 
13.089513

>  <SlogP_VSA3>  (51) 
0.0

>  <SlogP_VSA4>  (51) 
11.331113

>  <SlogP_VSA5>  (51) 
23.968546

>  <SlogP_VSA6>  (51) 
17.705839

>  <SlogP_VSA7>  (51) 
5.022633

>  <SlogP_VSA8>  (51) 
6.07602

>  <SlogP_VSA9>  (51) 
0.0

>  <EState_VSA1>  (51) 
0.0

>  <EState_VSA10>  (51) 
0.0

>  <EState_VSA11>  (51) 
0.0

>  <EState_VSA2>  (51) 
0.0

>  <EState_VSA3>  (51) 
16.273471

>  <EState_VSA4>  (51) 
18.52903

>  <EState_VSA5>  (51) 
18.538683

>  <EState_VSA6>  (51) 
6.066367

>  <EState_VSA7>  (51) 
12.135588

>  <EState_VSA8>  (51) 
11.392809

>  <EState_VSA9>  (51) 
22.596499

>  <VSA_EState1>  (51) 
0.0

>  <VSA_EState10>  (51) 
6.176137

>  <VSA_EState2>  (51) 
0.0

>  <VSA_EState3>  (51) 
11.735228

>  <VSA_EState4>  (51) 
8.774392

>  <VSA_EState5>  (51) 
0.0

>  <VSA_EState6>  (51) 
5.661718

>  <VSA_EState7>  (51) 
4.389779

>  <VSA_EState8>  (51) 
2.20719

>  <VSA_EState9>  (51) 
0.0

>  <FractionCSP3>  (51) 
0.307692

>  <HeavyAtomCount>  (51) 
17

>  <NHOHCount>  (51) 
4

>  <NOCount>  (51) 
3

>  <NumAliphaticCarbocycles>  (51) 
0

>  <NumAliphaticHeterocycles>  (51) 
1

>  <NumAliphaticRings>  (51) 
1

>  <NumAromaticCarbocycles>  (51) 
1

>  <NumAromaticHeterocycles>  (51) 
0

>  <NAR>  (51) 
1

>  <NumHAcceptors>  (51) 
2

>  <NumHDonors>  (51) 
2

>  <NumHeteroatoms>  (51) 
4

>  <NumRotatableBonds>  (51) 
1

>  <NumSaturatedCarbocycles>  (51) 
0

>  <NumSaturatedHeterocycles>  (51) 
1

>  <NumSaturatedRings>  (51) 
1

>  <RingCount>  (51) 
2

>  <MolLogP>  (51) 
1.53448

>  <MolMR>  (51) 
69.4498

>  <fr_Al_COO>  (51) 
0

>  <fr_Al_OH>  (51) 
0

>  <fr_Al_OH_noTert>  (51) 
0

>  <fr_ArN>  (51) 
1

>  <fr_Ar_COO>  (51) 
0

>  <fr_Ar_N>  (51) 
0

>  <fr_Ar_NH>  (51) 
0

>  <fr_Ar_OH>  (51) 
0

>  <fr_COO>  (51) 
0

>  <fr_COO2>  (51) 
0

>  <fr_C_O>  (51) 
0

>  <fr_C_O_noCOO>  (51) 
0

>  <fr_C_S>  (51) 
0

>  <fr_HOCCN>  (51) 
0

>  <fr_Imine>  (51) 
0

>  <fr_NH0>  (51) 
1

>  <fr_NH1>  (51) 
0

>  <fr_NH2>  (51) 
2

>  <fr_N_O>  (51) 
0

>  <fr_Ndealkylation1>  (51) 
0

>  <fr_Ndealkylation2>  (51) 
0

>  <fr_Nhpyrrole>  (51) 
0

>  <fr_SH>  (51) 
0

>  <fr_aldehyde>  (51) 
0

>  <fr_alkyl_carbamate>  (51) 
0

>  <fr_alkyl_halide>  (51) 
0

>  <fr_allylic_oxid>  (51) 
0

>  <fr_amide>  (51) 
0

>  <fr_amidine>  (51) 
0

>  <fr_aniline>  (51) 
1

>  <fr_aryl_methyl>  (51) 
0

>  <fr_azide>  (51) 
0

>  <fr_azo>  (51) 
0

>  <fr_barbitur>  (51) 
0

>  <fr_benzene>  (51) 
1

>  <fr_benzodiazepine>  (51) 
0

>  <fr_bicyclic>  (51) 
0

>  <fr_diazo>  (51) 
0

>  <fr_dihydropyridine>  (51) 
0

>  <fr_epoxide>  (51) 
0

>  <fr_ester>  (51) 
0

>  <fr_ether>  (51) 
0

>  <fr_furan>  (51) 
0

>  <fr_guanido>  (51) 
0

>  <fr_halogen>  (51) 
1

>  <fr_hdrzine>  (51) 
0

>  <fr_hdrzone>  (51) 
0

>  <fr_imidazole>  (51) 
0

>  <fr_imide>  (51) 
0

>  <fr_isocyan>  (51) 
0

>  <fr_isothiocyan>  (51) 
0

>  <fr_ketone>  (51) 
0

>  <fr_ketone_Topliss>  (51) 
0

>  <fr_lactam>  (51) 
0

>  <fr_lactone>  (51) 
0

>  <fr_methoxy>  (51) 
0

>  <fr_morpholine>  (51) 
0

>  <fr_nitrile>  (51) 
1

>  <fr_nitro>  (51) 
0

>  <fr_nitro_arom>  (51) 
0

>  <fr_nitro_arom_nonortho>  (51) 
0

>  <fr_nitroso>  (51) 
0

>  <fr_oxazole>  (51) 
0

>  <fr_oxime>  (51) 
0

>  <fr_para_hydroxylation>  (51) 
0

>  <fr_phenol>  (51) 
0

>  <fr_phenol_noOrthoHbond>  (51) 
0

>  <fr_phos_acid>  (51) 
0

>  <fr_phos_ester>  (51) 
0

>  <fr_piperdine>  (51) 
1

>  <fr_piperzine>  (51) 
0

>  <fr_priamide>  (51) 
0

>  <fr_prisulfonamd>  (51) 
0

>  <fr_pyridine>  (51) 
0

>  <fr_quatN>  (51) 
1

>  <fr_sulfide>  (51) 
0

>  <fr_sulfonamd>  (51) 
0

>  <fr_sulfone>  (51) 
0

>  <fr_term_acetylene>  (51) 
0

>  <fr_tetrazole>  (51) 
0

>  <fr_thiazole>  (51) 
0

>  <fr_thiocyan>  (51) 
0

>  <fr_thiophene>  (51) 
0

>  <fr_unbrch_alkane>  (51) 
0

>  <fr_urea>  (51) 
0

>  <NP-Likeness>  (51) 
-0.641955

$$$$
7QW
     RDKit          3D

  0  0  0  0  0  0  0  0  0  0999 V3000
M  V30 BEGIN CTAB
M  V30 COUNTS 47 50 0 0 0
M  V30 BEGIN ATOM
M  V30 1 C -1.745654 -2.478944 2.871661 0
M  V30 2 C -0.381953 -2.678053 2.767702 0
M  V30 3 C 0.472232 -1.719855 2.261268 0
M  V30 4 C 1.949474 -1.933128 2.147655 0
M  V30 5 N 2.325644 -2.509188 0.884751 0 CFG=2 CHG=1 VAL=4
M  V30 6 C 2.627821 -3.932226 0.963092 0
M  V30 7 C 3.580204 -4.128812 -0.206581 0
M  V30 8 C 4.477345 -2.917254 -0.066820 0 CFG=1
M  V30 9 N 5.036145 -2.573800 -1.367232 0 CHG=1 VAL=4
M  V30 10 C 3.546764 -1.867049 0.442828 0
M  V30 11 C -0.049058 -0.493237 1.832215 0
M  V30 12 C -1.430267 -0.308565 1.944446 0
M  V30 13 C -1.872308 1.004405 1.469637 0
M  V30 14 C -1.041807 2.099610 1.598031 0
M  V30 15 C -1.502123 3.323996 1.134147 0
M  V30 16 C -2.760726 3.385813 0.570416 0
M  V30 17 C -3.186951 4.637864 0.115421 0
M  V30 18 O -2.423223 5.636374 0.235367 0
M  V30 19 N -4.411155 4.741035 -0.442234 0
M  V30 20 C -5.240750 3.681745 -0.577977 0
M  V30 21 C -4.846170 2.420724 -0.134897 0
M  V30 22 C -3.591375 2.290577 0.441947 0
M  V30 23 C -3.133609 1.053191 0.907521 0
M  V30 24 C -2.284641 -1.276410 2.454780 0
M  V30 25 H -2.389765 -3.255964 3.275870 0
M  V30 26 H 0.076235 -3.621950 3.090345 0
M  V30 27 H 2.222590 -2.699295 2.918942 0
M  V30 28 H 2.440902 -0.976853 2.349036 0
M  V30 29 H 1.609231 -2.406297 0.147785 0
M  V30 30 H 3.148583 -4.189882 1.905309 0
M  V30 31 H 1.740799 -4.571716 0.776296 0
M  V30 32 H 3.054060 -4.103723 -1.165300 0
M  V30 33 H 4.162458 -5.078409 -0.110501 0
M  V30 34 H 5.310802 -3.143138 0.636661 0
M  V30 35 H 4.395102 -1.874029 -1.816160 0
M  V30 36 H 5.080143 -3.475359 -1.890807 0
M  V30 37 H 5.976637 -2.169279 -1.204165 0
M  V30 38 H 4.055209 -1.343838 1.295233 0
M  V30 39 H 3.365792 -1.117836 -0.352219 0
M  V30 40 H 0.628272 0.228225 1.446356 0
M  V30 41 H -0.066065 2.053555 2.034724 0
M  V30 42 H -0.879102 4.209670 1.216901 0
M  V30 43 H -4.695289 5.692644 -0.770657 0
M  V30 44 H -6.208169 3.796229 -1.025739 0
M  V30 45 H -5.458034 1.533481 -0.212082 0
M  V30 46 H -3.763154 0.162956 0.823078 0
M  V30 47 H -3.331010 -1.052276 2.505547 0
M  V30 END ATOM
M  V30 BEGIN BOND
M  V30 1 2 1 2
M  V30 2 1 2 3
M  V30 3 1 3 4
M  V30 4 1 4 5
M  V30 5 1 5 6
M  V30 6 1 6 7
M  V30 7 1 7 8
M  V30 8 1 8 9
M  V30 9 1 8 10
M  V30 10 2 3 11
M  V30 11 1 11 12
M  V30 12 1 12 13
M  V30 13 2 13 14
M  V30 14 1 14 15
M  V30 15 2 15 16
M  V30 16 1 16 17
M  V30 17 2 17 18
M  V30 18 1 17 19
M  V30 19 1 19 20
M  V30 20 2 20 21
M  V30 21 1 21 22
M  V30 22 2 22 23
M  V30 23 2 12 24
M  V30 24 1 24 1
M  V30 25 1 10 5
M  V30 26 1 23 13
M  V30 27 1 22 16
M  V30 28 1 1 25
M  V30 29 1 2 26
M  V30 30 1 4 27
M  V30 31 1 4 28
M  V30 32 1 5 29 CFG=3
M  V30 33 1 6 30
M  V30 34 1 6 31
M  V30 35 1 7 32
M  V30 36 1 7 33
M  V30 37 1 8 34 CFG=1
M  V30 38 1 9 35
M  V30 39 1 9 36
M  V30 40 1 9 37
M  V30 41 1 10 38
M  V30 42 1 10 39
M  V30 43 1 11 40
M  V30 44 1 14 41
M  V30 45 1 15 42
M  V30 46 1 19 43
M  V30 47 1 20 44
M  V30 48 1 21 45
M  V30 49 1 23 46
M  V30 50 1 24 47
M  V30 END BOND
M  V30 END CTAB
M  END
>  <Dataset>  (52) 
PDB

>  <Ligand_Instance>  (52) 
7PIH_7QW_A_401

>  <PDB_ID>  (52) 
7PIH

>  <Standardized_SMILES>  (52) 
[H]C1=C([H])C(C([H])([H])[N@+]2([H])C([H])([H])C([H])([H])[C@@]([H])([N+]([H])([H])[H])C2([H])[H])=C([H])C(C2=C([H])C([H])=C3C(=O)N([H])C([H])=C([H])C3=C2[H])=C1[H]

>  <Name>  (52) 
6-[3-[[(3~{R})-3-azanylpyrrolidin-1-yl]methyl]phenyl]-4~{H}-isoquinolin-1-one

>  <Pocket>  (52) 
A

>  <ATP_Site>  (52) 
1.0

>  <Peripheral>  (52) 
0.0

>  <Num_H_Atoms_ProtBoundConf>  (52) 
23.0

>  <Num_Resolved_Atoms>  (52) 
24.0

>  <Num_Not_Resolved_Atoms>  (52) 
0.0

>  <2D_Mol_H>  (52) 
<rdkit.Chem.rdchem.Mol object at 0x72a238dc54d0>

>  <MW>  (52) 
321.424

>  <HBA>  (52) 
1

>  <HBD>  (52) 
3

>  <LogP>  (52) 
0.5942

>  <NRB>  (52) 
4

>  <TPSA>  (52) 
64.94

>  <Num_Heavy_Atoms>  (52) 
24

>  <Ro5>  (52) 
[True, True, True, True, True, True]

>  <Ro5_Fulfilled>  (52) 
True

>  <Ro3>  (52) 
[False, True, True, True]

>  <Ro3_Fulfilled>  (52) 
True

>  <Fsp3>  (52) 
0.25

>  <Fsp3_0.42>  (52) 
False

>  <Fsp3_0.45>  (52) 
False

>  <Stereogenic_Carbons>  (52) 
1

>  <C_Atoms>  (52) 
20

>  <FCStereo>  (52) 
0.05

>  <SPS>  (52) 
493

>  <nSPS>  (52) 
20.541667

>  <PBF>  (52) 
0.893495

>  <PBF_0.6>  (52) 
True

>  <nPBF>  (52) 
0.037229

>  <nPBF_0.016>  (52) 
True

>  <PMI1>  (52) 
1062.956297

>  <PMI2>  (52) 
5519.501405

>  <PMI3>  (52) 
6128.646815

>  <NPR1>  (52) 
0.173441

>  <NPR2>  (52) 
0.900607

>  <Sum_NPR>  (52) 
1.074047

>  <Sum_NPR_1.07>  (52) 
True

>  <Sum_NPR_1.2>  (52) 
False

>  <MaxAbsEStateIndex>  (52) 
11.837022

>  <MaxEStateIndex>  (52) 
11.837022

>  <MinAbsEStateIndex>  (52) 
0.034108

>  <MinEStateIndex>  (52) 
-0.034108

>  <qed>  (52) 
0.649596

>  <MolWt>  (52) 
321.424

>  <HeavyAtomMolWt>  (52) 
298.24

>  <ExactMolWt>  (52) 
321.183015

>  <NumValenceElectrons>  (52) 
122

>  <NumRadicalElectrons>  (52) 
0

>  <MaxPartialCharge>  (52) 
0.255304

>  <MinPartialCharge>  (52) 
-0.350271

>  <MaxAbsPartialCharge>  (52) 
0.350271

>  <MinAbsPartialCharge>  (52) 
0.255304

>  <FpDensityMorgan1>  (52) 
1.125

>  <FpDensityMorgan2>  (52) 
2.0

>  <FpDensityMorgan3>  (52) 
2.833333

>  <BCUT2D_MWHI>  (52) 
16.137917

>  <BCUT2D_MWLOW>  (52) 
10.000805

>  <BCUT2D_CHGHI>  (52) 
2.250079

>  <BCUT2D_CHGLO>  (52) 
-2.12548

>  <BCUT2D_LOGPHI>  (52) 
2.233228

>  <BCUT2D_LOGPLOW>  (52) 
-3.093709

>  <BCUT2D_MRHI>  (52) 
5.860189

>  <BCUT2D_MRLOW>  (52) 
-0.905298

>  <AvgIpc>  (52) 
2.998007

>  <BalabanJ>  (52) 
1.642192

>  <BertzCT>  (52) 
931.315321

>  <Chi0>  (52) 
16.518297

>  <Chi0n>  (52) 
13.717285

>  <Chi0v>  (52) 
13.717285

>  <Chi1>  (52) 
11.686673

>  <Chi1n>  (52) 
8.563167

>  <Chi1v>  (52) 
8.563167

>  <Chi2n>  (52) 
6.844804

>  <Chi2v>  (52) 
6.844804

>  <Chi3n>  (52) 
4.971441

>  <Chi3v>  (52) 
4.971441

>  <Chi4n>  (52) 
3.702554

>  <Chi4v>  (52) 
3.702554

>  <HallKierAlpha>  (52) 
-2.43

>  <Ipc>  (52) 
550344.178215

>  <Kappa1>  (52) 
15.11849

>  <Kappa2>  (52) 
6.226561

>  <Kappa3>  (52) 
2.982279

>  <LabuteASA>  (52) 
140.469936

>  <PEOE_VSA1>  (52) 
15.617556

>  <PEOE_VSA10>  (52) 
19.131354

>  <PEOE_VSA11>  (52) 
0.0

>  <PEOE_VSA12>  (52) 
0.0

>  <PEOE_VSA13>  (52) 
5.559267

>  <PEOE_VSA14>  (52) 
0.0

>  <PEOE_VSA2>  (52) 
4.794537

>  <PEOE_VSA3>  (52) 
0.0

>  <PEOE_VSA4>  (52) 
0.0

>  <PEOE_VSA5>  (52) 
0.0

>  <PEOE_VSA6>  (52) 
24.265468

>  <PEOE_VSA7>  (52) 
40.778595

>  <PEOE_VSA8>  (52) 
17.146519

>  <PEOE_VSA9>  (52) 
12.965578

>  <SMR_VSA1>  (52) 
10.633577

>  <SMR_VSA10>  (52) 
10.772448

>  <SMR_VSA2>  (52) 
0.0

>  <SMR_VSA3>  (52) 
4.983979

>  <SMR_VSA4>  (52) 
0.0

>  <SMR_VSA5>  (52) 
19.007419

>  <SMR_VSA6>  (52) 
13.089513

>  <SMR_VSA7>  (52) 
70.645036

>  <SMR_VSA8>  (52) 
0.0

>  <SMR_VSA9>  (52) 
11.126903

>  <SlogP_VSA1>  (52) 
16.192844

>  <SlogP_VSA10>  (52) 
0.0

>  <SlogP_VSA11>  (52) 
0.0

>  <SlogP_VSA12>  (52) 
0.0

>  <SlogP_VSA2>  (52) 
24.115332

>  <SlogP_VSA3>  (52) 
6.544756

>  <SlogP_VSA4>  (52) 
0.0

>  <SlogP_VSA5>  (52) 
11.984273

>  <SlogP_VSA6>  (52) 
59.522317

>  <SlogP_VSA7>  (52) 
0.0

>  <SlogP_VSA8>  (52) 
21.899351

>  <SlogP_VSA9>  (52) 
0.0

>  <EState_VSA1>  (52) 
0.0

>  <EState_VSA10>  (52) 
4.794537

>  <EState_VSA11>  (52) 
0.0

>  <EState_VSA2>  (52) 
5.559267

>  <EState_VSA3>  (52) 
6.041841

>  <EState_VSA4>  (52) 
22.880656

>  <EState_VSA5>  (52) 
30.637237

>  <EState_VSA6>  (52) 
11.096753

>  <EState_VSA7>  (52) 
18.199101

>  <EState_VSA8>  (52) 
41.049481

>  <EState_VSA9>  (52) 
0.0

>  <VSA_EState1>  (52) 
0.0

>  <VSA_EState10>  (52) 
0.0

>  <VSA_EState2>  (52) 
16.182526

>  <VSA_EState3>  (52) 
1.714929

>  <VSA_EState4>  (52) 
7.872961

>  <VSA_EState5>  (52) 
0.0

>  <VSA_EState6>  (52) 
17.342397

>  <VSA_EState7>  (52) 
2.935565

>  <VSA_EState8>  (52) 
3.451621

>  <VSA_EState9>  (52) 
0.0

>  <FractionCSP3>  (52) 
0.25

>  <HeavyAtomCount>  (52) 
24

>  <NHOHCount>  (52) 
5

>  <NOCount>  (52) 
4

>  <NumAliphaticCarbocycles>  (52) 
0

>  <NumAliphaticHeterocycles>  (52) 
1

>  <NumAliphaticRings>  (52) 
1

>  <NumAromaticCarbocycles>  (52) 
2

>  <NumAromaticHeterocycles>  (52) 
1

>  <NAR>  (52) 
3

>  <NumHAcceptors>  (52) 
1

>  <NumHDonors>  (52) 
3

>  <NumHeteroatoms>  (52) 
4

>  <NumRotatableBonds>  (52) 
3

>  <NumSaturatedCarbocycles>  (52) 
0

>  <NumSaturatedHeterocycles>  (52) 
1

>  <NumSaturatedRings>  (52) 
1

>  <RingCount>  (52) 
4

>  <MolLogP>  (52) 
0.5942

>  <MolMR>  (52) 
95.6985

>  <fr_Al_COO>  (52) 
0

>  <fr_Al_OH>  (52) 
0

>  <fr_Al_OH_noTert>  (52) 
0

>  <fr_ArN>  (52) 
0

>  <fr_Ar_COO>  (52) 
0

>  <fr_Ar_N>  (52) 
1

>  <fr_Ar_NH>  (52) 
1

>  <fr_Ar_OH>  (52) 
0

>  <fr_COO>  (52) 
0

>  <fr_COO2>  (52) 
0

>  <fr_C_O>  (52) 
0

>  <fr_C_O_noCOO>  (52) 
0

>  <fr_C_S>  (52) 
0

>  <fr_HOCCN>  (52) 
0

>  <fr_Imine>  (52) 
0

>  <fr_NH0>  (52) 
0

>  <fr_NH1>  (52) 
2

>  <fr_NH2>  (52) 
0

>  <fr_N_O>  (52) 
0

>  <fr_Ndealkylation1>  (52) 
0

>  <fr_Ndealkylation2>  (52) 
1

>  <fr_Nhpyrrole>  (52) 
1

>  <fr_SH>  (52) 
0

>  <fr_aldehyde>  (52) 
0

>  <fr_alkyl_carbamate>  (52) 
0

>  <fr_alkyl_halide>  (52) 
0

>  <fr_allylic_oxid>  (52) 
0

>  <fr_amide>  (52) 
0

>  <fr_amidine>  (52) 
0

>  <fr_aniline>  (52) 
0

>  <fr_aryl_methyl>  (52) 
0

>  <fr_azide>  (52) 
0

>  <fr_azo>  (52) 
0

>  <fr_barbitur>  (52) 
0

>  <fr_benzene>  (52) 
2

>  <fr_benzodiazepine>  (52) 
0

>  <fr_bicyclic>  (52) 
1

>  <fr_diazo>  (52) 
0

>  <fr_dihydropyridine>  (52) 
0

>  <fr_epoxide>  (52) 
0

>  <fr_ester>  (52) 
0

>  <fr_ether>  (52) 
0

>  <fr_furan>  (52) 
0

>  <fr_guanido>  (52) 
0

>  <fr_halogen>  (52) 
0

>  <fr_hdrzine>  (52) 
0

>  <fr_hdrzone>  (52) 
0

>  <fr_imidazole>  (52) 
0

>  <fr_imide>  (52) 
0

>  <fr_isocyan>  (52) 
0

>  <fr_isothiocyan>  (52) 
0

>  <fr_ketone>  (52) 
0

>  <fr_ketone_Topliss>  (52) 
0

>  <fr_lactam>  (52) 
0

>  <fr_lactone>  (52) 
0

>  <fr_methoxy>  (52) 
0

>  <fr_morpholine>  (52) 
0

>  <fr_nitrile>  (52) 
0

>  <fr_nitro>  (52) 
0

>  <fr_nitro_arom>  (52) 
0

>  <fr_nitro_arom_nonortho>  (52) 
0

>  <fr_nitroso>  (52) 
0

>  <fr_oxazole>  (52) 
0

>  <fr_oxime>  (52) 
0

>  <fr_para_hydroxylation>  (52) 
0

>  <fr_phenol>  (52) 
0

>  <fr_phenol_noOrthoHbond>  (52) 
0

>  <fr_phos_acid>  (52) 
0

>  <fr_phos_ester>  (52) 
0

>  <fr_piperdine>  (52) 
0

>  <fr_piperzine>  (52) 
0

>  <fr_priamide>  (52) 
0

>  <fr_prisulfonamd>  (52) 
0

>  <fr_pyridine>  (52) 
1

>  <fr_quatN>  (52) 
2

>  <fr_sulfide>  (52) 
0

>  <fr_sulfonamd>  (52) 
0

>  <fr_sulfone>  (52) 
0

>  <fr_term_acetylene>  (52) 
0

>  <fr_tetrazole>  (52) 
0

>  <fr_thiazole>  (52) 
0

>  <fr_thiocyan>  (52) 
0

>  <fr_thiophene>  (52) 
0

>  <fr_unbrch_alkane>  (52) 
0

>  <fr_urea>  (52) 
0

>  <NP-Likeness>  (52) 
-0.111636

$$$$
7W8
     RDKit          3D

  0  0  0  0  0  0  0  0  0  0999 V3000
M  V30 BEGIN CTAB
M  V30 COUNTS 32 34 0 0 0
M  V30 BEGIN ATOM
M  V30 1 C -1.577596 -3.222950 3.070545 0
M  V30 2 C -0.732523 -2.201207 2.679058 0
M  V30 3 F 0.005680 -1.519636 3.590125 0
M  V30 4 C -0.694846 -1.928629 1.313156 0
M  V30 5 C 0.182299 -0.855623 0.832639 0
M  V30 6 C 0.915995 -1.198931 -0.290032 0
M  V30 7 C 1.769647 -0.229115 -0.800928 0
M  V30 8 C 1.847327 1.011743 -0.177925 0
M  V30 9 C 2.615502 2.121344 -0.500061 0
M  V30 10 C 3.524811 2.198291 -1.599611 0
M  V30 11 N 4.263989 2.248198 -2.486470 0
M  V30 12 C 2.302734 3.090801 0.456628 0
M  V30 13 N 2.938384 4.363681 0.396104 0
M  V30 14 N 1.391521 2.608258 1.322986 0
M  V30 15 C 1.111506 1.345613 0.941940 0
M  V30 16 C 0.263539 0.378785 1.447416 0
M  V30 17 C -1.480825 -2.672466 0.450984 0
M  V30 18 C -2.312441 -3.685992 0.884064 0
M  V30 19 C -3.101011 -4.403540 -0.151712 0
M  V30 20 C -2.370326 -3.978231 2.230987 0
M  V30 21 H -1.645874 -3.479142 4.133536 0
M  V30 22 H 0.875691 -2.145518 -0.789141 0
M  V30 23 H 2.374290 -0.442295 -1.685625 0
M  V30 24 H 2.321303 5.224472 0.483783 0
M  V30 25 H 2.399231 5.263937 0.474755 0
M  V30 26 H 1.002570 3.141755 2.122316 0
M  V30 27 H -0.333353 0.583017 2.317159 0
M  V30 28 H -1.379956 -2.381417 -0.600061 0
M  V30 29 H -3.222104 -5.450418 0.204898 0
M  V30 30 H -4.058557 -3.887145 -0.353906 0
M  V30 31 H -2.486865 -4.481121 -1.079630 0
M  V30 32 H -3.011856 -4.760818 2.569398 0
M  V30 END ATOM
M  V30 BEGIN BOND
M  V30 1 2 1 2
M  V30 2 1 2 3
M  V30 3 1 2 4
M  V30 4 1 4 5
M  V30 5 2 5 6
M  V30 6 1 6 7
M  V30 7 2 7 8
M  V30 8 1 8 9
M  V30 9 1 9 10
M  V30 10 3 10 11
M  V30 11 2 9 12
M  V30 12 1 12 13
M  V30 13 1 12 14
M  V30 14 1 14 15
M  V30 15 2 15 16
M  V30 16 2 4 17
M  V30 17 1 17 18
M  V30 18 1 18 19
M  V30 19 2 18 20
M  V30 20 1 20 1
M  V30 21 1 16 5
M  V30 22 1 15 8
M  V30 23 1 1 21
M  V30 24 1 6 22
M  V30 25 1 7 23
M  V30 26 1 13 24
M  V30 27 1 13 25
M  V30 28 1 14 26
M  V30 29 1 16 27
M  V30 30 1 17 28
M  V30 31 1 19 29
M  V30 32 1 19 30
M  V30 33 1 19 31
M  V30 34 1 20 32
M  V30 END BOND
M  V30 END CTAB
M  END
>  <Dataset>  (53) 
PDB

>  <Ligand_Instance>  (53) 
7PNS_7W8_A_402

>  <PDB_ID>  (53) 
7PNS

>  <Standardized_SMILES>  (53) 
[H]C1=C(F)C(C2=C([H])C([H])=C3C(C#N)=C(N([H])[H])N([H])C3=C2[H])=C([H])C(C([H])([H])[H])=C1[H]

>  <Name>  (53) 
2-azanyl-6-[5-[(dimethylamino)methyl]-2-fluoranyl-phenyl]-1H-indole-3-carbonitrile

>  <Pocket>  (53) 
A

>  <ATP_Site>  (53) 
1.0

>  <Peripheral>  (53) 
0.0

>  <Num_H_Atoms_ProtBoundConf>  (53) 
12.0

>  <Num_Resolved_Atoms>  (53) 
20.0

>  <Num_Not_Resolved_Atoms>  (53) 
3.0

>  <2D_Mol_H>  (53) 
<rdkit.Chem.rdchem.Mol object at 0x72a238dc55b0>

>  <MW>  (53) 
265.291

>  <HBA>  (53) 
2

>  <HBD>  (53) 
2

>  <LogP>  (53) 
3.7363

>  <NRB>  (53) 
3

>  <TPSA>  (53) 
65.6

>  <Num_Heavy_Atoms>  (53) 
20

>  <Ro5>  (53) 
[True, True, True, True, True, True]

>  <Ro5_Fulfilled>  (53) 
True

>  <Ro3>  (53) 
[True, True, True, False]

>  <Ro3_Fulfilled>  (53) 
True

>  <Fsp3>  (53) 
0.0625

>  <Fsp3_0.42>  (53) 
False

>  <Fsp3_0.45>  (53) 
False

>  <Stereogenic_Carbons>  (53) 
0

>  <C_Atoms>  (53) 
16

>  <FCStereo>  (53) 
0.0

>  <SPS>  (53) 
213

>  <nSPS>  (53) 
10.65

>  <PBF>  (53) 
0.627253

>  <PBF_0.6>  (53) 
True

>  <nPBF>  (53) 
0.031363

>  <nPBF_0.016>  (53) 
True

>  <PMI1>  (53) 
580.973795

>  <PMI2>  (53) 
3072.223757

>  <PMI3>  (53) 
3470.522551

>  <NPR1>  (53) 
0.167402

>  <NPR2>  (53) 
0.885234

>  <Sum_NPR>  (53) 
1.052636

>  <Sum_NPR_1.07>  (53) 
False

>  <Sum_NPR_1.2>  (53) 
False

>  <MaxAbsEStateIndex>  (53) 
13.918827

>  <MaxEStateIndex>  (53) 
13.918827

>  <MinAbsEStateIndex>  (53) 
0.268533

>  <MinEStateIndex>  (53) 
-0.268533

>  <qed>  (53) 
0.703558

>  <MolWt>  (53) 
265.291

>  <HeavyAtomMolWt>  (53) 
253.195

>  <ExactMolWt>  (53) 
265.101526

>  <NumValenceElectrons>  (53) 
98

>  <NumRadicalElectrons>  (53) 
0

>  <MaxPartialCharge>  (53) 
0.130545

>  <MinPartialCharge>  (53) 
-0.384135

>  <MaxAbsPartialCharge>  (53) 
0.384135

>  <MinAbsPartialCharge>  (53) 
0.130545

>  <FpDensityMorgan1>  (53) 
1.2

>  <FpDensityMorgan2>  (53) 
2.0

>  <FpDensityMorgan3>  (53) 
2.75

>  <BCUT2D_MWHI>  (53) 
19.14219

>  <BCUT2D_MWLOW>  (53) 
10.00911

>  <BCUT2D_CHGHI>  (53) 
2.110219

>  <BCUT2D_CHGLO>  (53) 
-2.048921

>  <BCUT2D_LOGPHI>  (53) 
2.298771

>  <BCUT2D_LOGPLOW>  (53) 
-1.85685

>  <BCUT2D_MRHI>  (53) 
5.933339

>  <BCUT2D_MRLOW>  (53) 
0.630711

>  <AvgIpc>  (53) 
2.752134

>  <BalabanJ>  (53) 
2.238627

>  <BertzCT>  (53) 
856.019868

>  <Chi0>  (53) 
14.275656

>  <Chi0n>  (53) 
10.86663

>  <Chi0v>  (53) 
10.86663

>  <Chi1>  (53) 
9.596555

>  <Chi1n>  (53) 
6.177332

>  <Chi1v>  (53) 
6.177332

>  <Chi2n>  (53) 
4.769142

>  <Chi2v>  (53) 
4.769142

>  <Chi3n>  (53) 
3.372252

>  <Chi3v>  (53) 
3.372252

>  <Chi4n>  (53) 
2.366668

>  <Chi4v>  (53) 
2.366668

>  <HallKierAlpha>  (53) 
-2.8

>  <Ipc>  (53) 
48921.940812

>  <Kappa1>  (53) 
12.244922

>  <Kappa2>  (53) 
4.389717

>  <Kappa3>  (53) 
1.805618

>  <LabuteASA>  (53) 
115.007212

>  <PEOE_VSA1>  (53) 
10.717646

>  <PEOE_VSA10>  (53) 
23.267756

>  <PEOE_VSA11>  (53) 
0.0

>  <PEOE_VSA12>  (53) 
0.0

>  <PEOE_VSA13>  (53) 
0.0

>  <PEOE_VSA14>  (53) 
0.0

>  <PEOE_VSA2>  (53) 
0.0

>  <PEOE_VSA3>  (53) 
4.390415

>  <PEOE_VSA4>  (53) 
5.261892

>  <PEOE_VSA5>  (53) 
0.0

>  <PEOE_VSA6>  (53) 
23.762553

>  <PEOE_VSA7>  (53) 
30.68629

>  <PEOE_VSA8>  (53) 
16.466376

>  <PEOE_VSA9>  (53) 
0.0

>  <SMR_VSA1>  (53) 
4.390415

>  <SMR_VSA10>  (53) 
16.720788

>  <SMR_VSA2>  (53) 
5.261892

>  <SMR_VSA3>  (53) 
4.983979

>  <SMR_VSA4>  (53) 
0.0

>  <SMR_VSA5>  (53) 
6.923737

>  <SMR_VSA6>  (53) 
5.733667

>  <SMR_VSA7>  (53) 
53.342326

>  <SMR_VSA8>  (53) 
0.0

>  <SMR_VSA9>  (53) 
17.196124

>  <SlogP_VSA1>  (53) 
5.733667

>  <SlogP_VSA10>  (53) 
10.208278

>  <SlogP_VSA11>  (53) 
0.0

>  <SlogP_VSA12>  (53) 
0.0

>  <SlogP_VSA2>  (53) 
4.983979

>  <SlogP_VSA3>  (53) 
0.0

>  <SlogP_VSA4>  (53) 
24.072071

>  <SlogP_VSA5>  (53) 
11.126903

>  <SlogP_VSA6>  (53) 
36.398202

>  <SlogP_VSA7>  (53) 
0.0

>  <SlogP_VSA8>  (53) 
22.029828

>  <SlogP_VSA9>  (53) 
0.0

>  <EState_VSA1>  (53) 
0.0

>  <EState_VSA10>  (53) 
4.390415

>  <EState_VSA11>  (53) 
0.0

>  <EState_VSA2>  (53) 
5.817221

>  <EState_VSA3>  (53) 
16.944766

>  <EState_VSA4>  (53) 
22.029828

>  <EState_VSA5>  (53) 
6.066367

>  <EState_VSA6>  (53) 
24.265468

>  <EState_VSA7>  (53) 
12.990104

>  <EState_VSA8>  (53) 
11.0532

>  <EState_VSA9>  (53) 
10.995559

>  <VSA_EState1>  (53) 
13.918827

>  <VSA_EState10>  (53) 
0.0

>  <VSA_EState2>  (53) 
2.955035

>  <VSA_EState3>  (53) 
9.813854

>  <VSA_EState4>  (53) 
9.200739

>  <VSA_EState5>  (53) 
0.068842

>  <VSA_EState6>  (53) 
12.457499

>  <VSA_EState7>  (53) 
0.0

>  <VSA_EState8>  (53) 
1.918538

>  <VSA_EState9>  (53) 
0.0

>  <FractionCSP3>  (53) 
0.0625

>  <HeavyAtomCount>  (53) 
20

>  <NHOHCount>  (53) 
3

>  <NOCount>  (53) 
3

>  <NumAliphaticCarbocycles>  (53) 
0

>  <NumAliphaticHeterocycles>  (53) 
0

>  <NumAliphaticRings>  (53) 
0

>  <NumAromaticCarbocycles>  (53) 
2

>  <NumAromaticHeterocycles>  (53) 
1

>  <NAR>  (53) 
3

>  <NumHAcceptors>  (53) 
2

>  <NumHDonors>  (53) 
2

>  <NumHeteroatoms>  (53) 
4

>  <NumRotatableBonds>  (53) 
1

>  <NumSaturatedCarbocycles>  (53) 
0

>  <NumSaturatedHeterocycles>  (53) 
0

>  <NumSaturatedRings>  (53) 
0

>  <RingCount>  (53) 
3

>  <MolLogP>  (53) 
3.7363

>  <MolMR>  (53) 
77.5571

>  <fr_Al_COO>  (53) 
0

>  <fr_Al_OH>  (53) 
0

>  <fr_Al_OH_noTert>  (53) 
0

>  <fr_ArN>  (53) 
1

>  <fr_Ar_COO>  (53) 
0

>  <fr_Ar_N>  (53) 
1

>  <fr_Ar_NH>  (53) 
1

>  <fr_Ar_OH>  (53) 
0

>  <fr_COO>  (53) 
0

>  <fr_COO2>  (53) 
0

>  <fr_C_O>  (53) 
0

>  <fr_C_O_noCOO>  (53) 
0

>  <fr_C_S>  (53) 
0

>  <fr_HOCCN>  (53) 
0

>  <fr_Imine>  (53) 
0

>  <fr_NH0>  (53) 
1

>  <fr_NH1>  (53) 
1

>  <fr_NH2>  (53) 
1

>  <fr_N_O>  (53) 
0

>  <fr_Ndealkylation1>  (53) 
0

>  <fr_Ndealkylation2>  (53) 
0

>  <fr_Nhpyrrole>  (53) 
1

>  <fr_SH>  (53) 
0

>  <fr_aldehyde>  (53) 
0

>  <fr_alkyl_carbamate>  (53) 
0

>  <fr_alkyl_halide>  (53) 
0

>  <fr_allylic_oxid>  (53) 
0

>  <fr_amide>  (53) 
0

>  <fr_amidine>  (53) 
0

>  <fr_aniline>  (53) 
1

>  <fr_aryl_methyl>  (53) 
1

>  <fr_azide>  (53) 
0

>  <fr_azo>  (53) 
0

>  <fr_barbitur>  (53) 
0

>  <fr_benzene>  (53) 
2

>  <fr_benzodiazepine>  (53) 
0

>  <fr_bicyclic>  (53) 
1

>  <fr_diazo>  (53) 
0

>  <fr_dihydropyridine>  (53) 
0

>  <fr_epoxide>  (53) 
0

>  <fr_ester>  (53) 
0

>  <fr_ether>  (53) 
0

>  <fr_furan>  (53) 
0

>  <fr_guanido>  (53) 
0

>  <fr_halogen>  (53) 
1

>  <fr_hdrzine>  (53) 
0

>  <fr_hdrzone>  (53) 
0

>  <fr_imidazole>  (53) 
0

>  <fr_imide>  (53) 
0

>  <fr_isocyan>  (53) 
0

>  <fr_isothiocyan>  (53) 
0

>  <fr_ketone>  (53) 
0

>  <fr_ketone_Topliss>  (53) 
0

>  <fr_lactam>  (53) 
0

>  <fr_lactone>  (53) 
0

>  <fr_methoxy>  (53) 
0

>  <fr_morpholine>  (53) 
0

>  <fr_nitrile>  (53) 
1

>  <fr_nitro>  (53) 
0

>  <fr_nitro_arom>  (53) 
0

>  <fr_nitro_arom_nonortho>  (53) 
0

>  <fr_nitroso>  (53) 
0

>  <fr_oxazole>  (53) 
0

>  <fr_oxime>  (53) 
0

>  <fr_para_hydroxylation>  (53) 
0

>  <fr_phenol>  (53) 
0

>  <fr_phenol_noOrthoHbond>  (53) 
0

>  <fr_phos_acid>  (53) 
0

>  <fr_phos_ester>  (53) 
0

>  <fr_piperdine>  (53) 
0

>  <fr_piperzine>  (53) 
0

>  <fr_priamide>  (53) 
0

>  <fr_prisulfonamd>  (53) 
0

>  <fr_pyridine>  (53) 
0

>  <fr_quatN>  (53) 
0

>  <fr_sulfide>  (53) 
0

>  <fr_sulfonamd>  (53) 
0

>  <fr_sulfone>  (53) 
0

>  <fr_term_acetylene>  (53) 
0

>  <fr_tetrazole>  (53) 
0

>  <fr_thiazole>  (53) 
0

>  <fr_thiocyan>  (53) 
0

>  <fr_thiophene>  (53) 
0

>  <fr_unbrch_alkane>  (53) 
0

>  <fr_urea>  (53) 
0

>  <NP-Likeness>  (53) 
-1.019338

$$$$
8BQ
     RDKit          3D

  0  0  0  0  0  0  0  0  0  0999 V3000
M  V30 BEGIN CTAB
M  V30 COUNTS 39 42 0 0 0
M  V30 BEGIN ATOM
M  V30 1 C -2.215880 -5.031591 2.720604 0
M  V30 2 N -1.647720 -4.198419 1.801860 0
M  V30 3 C -0.612235 -3.412780 2.195216 0
M  V30 4 C -0.062483 -2.583465 1.240953 0
M  V30 5 C 0.992952 -1.756216 1.567443 0
M  V30 6 C 1.715315 -0.793650 0.680725 0 CFG=1
M  V30 7 C 2.122802 -1.445294 -0.595926 0
M  V30 8 N 0.933901 -1.407697 -1.385101 0
M  V30 9 C 0.142613 -0.487586 -0.988354 0
M  V30 10 C 0.729825 0.237277 0.167597 0 CFG=2
M  V30 11 C 1.437396 1.454882 -0.301716 0
M  V30 12 O 2.670684 1.598212 -0.272870 0
M  V30 13 C 0.632903 2.550534 -0.829413 0
M  V30 14 C 1.317918 3.687695 -1.265938 0
M  V30 15 C 0.612268 4.777348 -1.783858 0
M  V30 16 C -0.750850 4.742798 -1.868784 0
M  V30 17 C -1.422331 3.602927 -1.430109 0
M  V30 18 F -2.771224 3.631591 -1.541052 0
M  V30 19 C -0.742307 2.524644 -0.918929 0
M  V30 20 C 1.424128 -1.842992 2.898984 0
M  V30 21 C 0.891201 -2.664759 3.874225 0
M  V30 22 C -0.162033 -3.472104 3.497417 0
M  V30 23 C -0.737821 -4.315380 4.425438 0
M  V30 24 O -0.295308 -4.337488 5.603241 0
M  V30 25 N -1.766752 -5.079214 3.987084 0
M  V30 26 H -3.039368 -5.674645 2.459303 0
M  V30 27 H -0.397941 -2.529739 0.238221 0
M  V30 28 H 2.559382 -0.310401 1.220749 0
M  V30 29 H 2.848223 -0.778843 -1.126069 0
M  V30 30 H 2.539638 -2.458802 -0.474032 0
M  V30 31 H -0.769607 -0.466219 -1.601860 0
M  V30 32 H -0.025288 0.488095 0.938728 0
M  V30 33 H 2.392765 3.770237 -1.222633 0
M  V30 34 H 1.177143 5.639752 -2.111591 0
M  V30 35 H -1.253608 5.613991 -2.278377 0
M  V30 36 H -1.270103 1.648496 -0.582592 0
M  V30 37 H 2.263515 -1.204705 3.213796 0
M  V30 38 H 1.301045 -2.650869 4.867972 0
M  V30 39 H -2.175793 -5.706424 4.725763 0
M  V30 END ATOM
M  V30 BEGIN BOND
M  V30 1 2 1 2
M  V30 2 1 2 3
M  V30 3 2 3 4
M  V30 4 1 4 5
M  V30 5 1 5 6
M  V30 6 1 6 7
M  V30 7 1 7 8
M  V30 8 2 8 9
M  V30 9 1 9 10
M  V30 10 1 10 11
M  V30 11 2 11 12
M  V30 12 1 11 13
M  V30 13 2 13 14
M  V30 14 1 14 15
M  V30 15 2 15 16
M  V30 16 1 16 17
M  V30 17 1 17 18
M  V30 18 2 17 19
M  V30 19 2 5 20
M  V30 20 1 20 21
M  V30 21 2 21 22
M  V30 22 1 22 23
M  V30 23 2 23 24
M  V30 24 1 23 25
M  V30 25 1 25 1
M  V30 26 1 22 3
M  V30 27 1 10 6
M  V30 28 1 19 13
M  V30 29 1 1 26
M  V30 30 1 4 27
M  V30 31 1 6 28 CFG=1
M  V30 32 1 7 29
M  V30 33 1 7 30
M  V30 34 1 9 31
M  V30 35 1 10 32 CFG=1
M  V30 36 1 14 33
M  V30 37 1 15 34
M  V30 38 1 16 35
M  V30 39 1 19 36
M  V30 40 1 20 37
M  V30 41 1 21 38
M  V30 42 1 25 39
M  V30 END BOND
M  V30 END CTAB
M  END
>  <Dataset>  (54) 
PDB

>  <Ligand_Instance>  (54) 
4UJB_8BQ_A_1351

>  <PDB_ID>  (54) 
4UJB

>  <Standardized_SMILES>  (54) 
[H]C1=NC2=C([H])C([C@@]3([H])C([H])([H])N=C([H])[C@]3([H])C(=O)C3=C([H])C([H])=C([H])C(F)=C3[H])=C([H])C([H])=C2C(=O)N1[H]

>  <Name>  (54) 
7-[(3S,4R)-4-(3-fluorophenyl)carbonylpyrrolidin-3-yl]-3H-quinazolin-4-one

>  <Pocket>  (54) 
A

>  <ATP_Site>  (54) 
1.0

>  <Peripheral>  (54) 
0.0

>  <Num_H_Atoms_ProtBoundConf>  (54) 
14.0

>  <Num_Resolved_Atoms>  (54) 
25.0

>  <Num_Not_Resolved_Atoms>  (54) 
0.0

>  <2D_Mol_H>  (54) 
<rdkit.Chem.rdchem.Mol object at 0x72a238dc5690>

>  <MW>  (54) 
335.338

>  <HBA>  (54) 
4

>  <HBD>  (54) 
1

>  <LogP>  (54) 
2.7293

>  <NRB>  (54) 
3

>  <TPSA>  (54) 
75.18

>  <Num_Heavy_Atoms>  (54) 
25

>  <Ro5>  (54) 
[True, True, True, True, True, True]

>  <Ro5_Fulfilled>  (54) 
True

>  <Ro3>  (54) 
[False, False, True, True]

>  <Ro3_Fulfilled>  (54) 
False

>  <Fsp3>  (54) 
0.157895

>  <Fsp3_0.42>  (54) 
False

>  <Fsp3_0.45>  (54) 
False

>  <Stereogenic_Carbons>  (54) 
2

>  <C_Atoms>  (54) 
19

>  <FCStereo>  (54) 
0.105263

>  <SPS>  (54) 
485

>  <nSPS>  (54) 
19.4

>  <PBF>  (54) 
0.905736

>  <PBF_0.6>  (54) 
True

>  <nPBF>  (54) 
0.036229

>  <nPBF_0.016>  (54) 
True

>  <PMI1>  (54) 
1028.40969

>  <PMI2>  (54) 
5158.411906

>  <PMI3>  (54) 
5519.724612

>  <NPR1>  (54) 
0.186315

>  <NPR2>  (54) 
0.934542

>  <Sum_NPR>  (54) 
1.120857

>  <Sum_NPR_1.07>  (54) 
True

>  <Sum_NPR_1.2>  (54) 
False

>  <MaxAbsEStateIndex>  (54) 
13.420201

>  <MaxEStateIndex>  (54) 
13.420201

>  <MinAbsEStateIndex>  (54) 
0.151616

>  <MinEStateIndex>  (54) 
-0.457179

>  <qed>  (54) 
0.74792

>  <MolWt>  (54) 
335.338

>  <HeavyAtomMolWt>  (54) 
321.226

>  <ExactMolWt>  (54) 
335.107005

>  <NumValenceElectrons>  (54) 
124

>  <NumRadicalElectrons>  (54) 
0

>  <MaxPartialCharge>  (54) 
0.258052

>  <MinPartialCharge>  (54) 
-0.312614

>  <MaxAbsPartialCharge>  (54) 
0.312614

>  <MinAbsPartialCharge>  (54) 
0.258052

>  <FpDensityMorgan1>  (54) 
1.2

>  <FpDensityMorgan2>  (54) 
2.08

>  <FpDensityMorgan3>  (54) 
2.92

>  <BCUT2D_MWHI>  (54) 
19.142145

>  <BCUT2D_MWLOW>  (54) 
9.832111

>  <BCUT2D_CHGHI>  (54) 
2.32151

>  <BCUT2D_CHGLO>  (54) 
-2.174742

>  <BCUT2D_LOGPHI>  (54) 
2.316074

>  <BCUT2D_LOGPLOW>  (54) 
-2.216696

>  <BCUT2D_MRHI>  (54) 
6.072533

>  <BCUT2D_MRLOW>  (54) 
0.094729

>  <AvgIpc>  (54) 
3.105067

>  <BalabanJ>  (54) 
1.70377

>  <BertzCT>  (54) 
1057.718603

>  <Chi0>  (54) 
17.388541

>  <Chi0n>  (54) 
13.146848

>  <Chi0v>  (54) 
13.146848

>  <Chi1>  (54) 
12.13103

>  <Chi1n>  (54) 
7.903804

>  <Chi1v>  (54) 
7.903804

>  <Chi2n>  (54) 
6.029341

>  <Chi2v>  (54) 
6.029341

>  <Chi3n>  (54) 
4.507339

>  <Chi3v>  (54) 
4.507339

>  <Chi4n>  (54) 
3.219122

>  <Chi4v>  (54) 
3.219122

>  <HallKierAlpha>  (54) 
-3.15

>  <Ipc>  (54) 
901050.141588

>  <Kappa1>  (54) 
15.381928

>  <Kappa2>  (54) 
6.049954

>  <Kappa3>  (54) 
2.755696

>  <LabuteASA>  (54) 
141.812239

>  <PEOE_VSA1>  (54) 
4.983979

>  <PEOE_VSA10>  (54) 
5.817221

>  <PEOE_VSA11>  (54) 
5.783245

>  <PEOE_VSA12>  (54) 
0.0

>  <PEOE_VSA13>  (54) 
5.559267

>  <PEOE_VSA14>  (54) 
0.0

>  <PEOE_VSA2>  (54) 
14.581479

>  <PEOE_VSA3>  (54) 
9.374394

>  <PEOE_VSA4>  (54) 
0.0

>  <PEOE_VSA5>  (54) 
0.0

>  <PEOE_VSA6>  (54) 
18.199101

>  <PEOE_VSA7>  (54) 
29.82892

>  <PEOE_VSA8>  (54) 
24.240715

>  <PEOE_VSA9>  (54) 
23.148151

>  <SMR_VSA1>  (54) 
9.184952

>  <SMR_VSA10>  (54) 
22.90077

>  <SMR_VSA2>  (54) 
0.0

>  <SMR_VSA3>  (54) 
9.967957

>  <SMR_VSA4>  (54) 
10.910311

>  <SMR_VSA5>  (54) 
5.917906

>  <SMR_VSA6>  (54) 
6.544756

>  <SMR_VSA7>  (54) 
76.089817

>  <SMR_VSA8>  (54) 
0.0

>  <SMR_VSA9>  (54) 
0.0

>  <SlogP_VSA1>  (54) 
5.559267

>  <SlogP_VSA10>  (54) 
4.390415

>  <SlogP_VSA11>  (54) 
0.0

>  <SlogP_VSA12>  (54) 
0.0

>  <SlogP_VSA2>  (54) 
28.510559

>  <SlogP_VSA3>  (54) 
0.0

>  <SlogP_VSA4>  (54) 
11.735127

>  <SlogP_VSA5>  (54) 
21.839346

>  <SlogP_VSA6>  (54) 
58.578831

>  <SlogP_VSA7>  (54) 
0.0

>  <SlogP_VSA8>  (54) 
10.902925

>  <SlogP_VSA9>  (54) 
0.0

>  <EState_VSA1>  (54) 
11.735127

>  <EState_VSA10>  (54) 
13.979489

>  <EState_VSA11>  (54) 
0.0

>  <EState_VSA2>  (54) 
17.260418

>  <EState_VSA3>  (54) 
23.011133

>  <EState_VSA4>  (54) 
5.563451

>  <EState_VSA5>  (54) 
24.526421

>  <EState_VSA6>  (54) 
18.347335

>  <EState_VSA7>  (54) 
12.132734

>  <EState_VSA8>  (54) 
14.960362

>  <EState_VSA9>  (54) 
0.0

>  <VSA_EState1>  (54) 
13.420201

>  <VSA_EState10>  (54) 
0.0

>  <VSA_EState2>  (54) 
35.543219

>  <VSA_EState3>  (54) 
0.498308

>  <VSA_EState4>  (54) 
1.590996

>  <VSA_EState5>  (54) 
-1.209553

>  <VSA_EState6>  (54) 
11.029127

>  <VSA_EState7>  (54) 
2.988398

>  <VSA_EState8>  (54) 
0.472639

>  <VSA_EState9>  (54) 
0.0

>  <FractionCSP3>  (54) 
0.157895

>  <HeavyAtomCount>  (54) 
25

>  <NHOHCount>  (54) 
1

>  <NOCount>  (54) 
5

>  <NumAliphaticCarbocycles>  (54) 
0

>  <NumAliphaticHeterocycles>  (54) 
1

>  <NumAliphaticRings>  (54) 
1

>  <NumAromaticCarbocycles>  (54) 
2

>  <NumAromaticHeterocycles>  (54) 
1

>  <NAR>  (54) 
3

>  <NumHAcceptors>  (54) 
4

>  <NumHDonors>  (54) 
1

>  <NumHeteroatoms>  (54) 
6

>  <NumRotatableBonds>  (54) 
3

>  <NumSaturatedCarbocycles>  (54) 
0

>  <NumSaturatedHeterocycles>  (54) 
0

>  <NumSaturatedRings>  (54) 
0

>  <RingCount>  (54) 
4

>  <MolLogP>  (54) 
2.7293

>  <MolMR>  (54) 
92.6842

>  <fr_Al_COO>  (54) 
0

>  <fr_Al_OH>  (54) 
0

>  <fr_Al_OH_noTert>  (54) 
0

>  <fr_ArN>  (54) 
0

>  <fr_Ar_COO>  (54) 
0

>  <fr_Ar_N>  (54) 
2

>  <fr_Ar_NH>  (54) 
1

>  <fr_Ar_OH>  (54) 
0

>  <fr_COO>  (54) 
0

>  <fr_COO2>  (54) 
0

>  <fr_C_O>  (54) 
1

>  <fr_C_O_noCOO>  (54) 
1

>  <fr_C_S>  (54) 
0

>  <fr_HOCCN>  (54) 
0

>  <fr_Imine>  (54) 
1

>  <fr_NH0>  (54) 
2

>  <fr_NH1>  (54) 
1

>  <fr_NH2>  (54) 
0

>  <fr_N_O>  (54) 
0

>  <fr_Ndealkylation1>  (54) 
0

>  <fr_Ndealkylation2>  (54) 
0

>  <fr_Nhpyrrole>  (54) 
1

>  <fr_SH>  (54) 
0

>  <fr_aldehyde>  (54) 
0

>  <fr_alkyl_carbamate>  (54) 
0

>  <fr_alkyl_halide>  (54) 
0

>  <fr_allylic_oxid>  (54) 
0

>  <fr_amide>  (54) 
0

>  <fr_amidine>  (54) 
0

>  <fr_aniline>  (54) 
0

>  <fr_aryl_methyl>  (54) 
0

>  <fr_azide>  (54) 
0

>  <fr_azo>  (54) 
0

>  <fr_barbitur>  (54) 
0

>  <fr_benzene>  (54) 
2

>  <fr_benzodiazepine>  (54) 
0

>  <fr_bicyclic>  (54) 
1

>  <fr_diazo>  (54) 
0

>  <fr_dihydropyridine>  (54) 
0

>  <fr_epoxide>  (54) 
0

>  <fr_ester>  (54) 
0

>  <fr_ether>  (54) 
0

>  <fr_furan>  (54) 
0

>  <fr_guanido>  (54) 
0

>  <fr_halogen>  (54) 
1

>  <fr_hdrzine>  (54) 
0

>  <fr_hdrzone>  (54) 
0

>  <fr_imidazole>  (54) 
0

>  <fr_imide>  (54) 
0

>  <fr_isocyan>  (54) 
0

>  <fr_isothiocyan>  (54) 
0

>  <fr_ketone>  (54) 
1

>  <fr_ketone_Topliss>  (54) 
1

>  <fr_lactam>  (54) 
0

>  <fr_lactone>  (54) 
0

>  <fr_methoxy>  (54) 
0

>  <fr_morpholine>  (54) 
0

>  <fr_nitrile>  (54) 
0

>  <fr_nitro>  (54) 
0

>  <fr_nitro_arom>  (54) 
0

>  <fr_nitro_arom_nonortho>  (54) 
0

>  <fr_nitroso>  (54) 
0

>  <fr_oxazole>  (54) 
0

>  <fr_oxime>  (54) 
0

>  <fr_para_hydroxylation>  (54) 
0

>  <fr_phenol>  (54) 
0

>  <fr_phenol_noOrthoHbond>  (54) 
0

>  <fr_phos_acid>  (54) 
0

>  <fr_phos_ester>  (54) 
0

>  <fr_piperdine>  (54) 
0

>  <fr_piperzine>  (54) 
0

>  <fr_priamide>  (54) 
0

>  <fr_prisulfonamd>  (54) 
0

>  <fr_pyridine>  (54) 
0

>  <fr_quatN>  (54) 
0

>  <fr_sulfide>  (54) 
0

>  <fr_sulfonamd>  (54) 
0

>  <fr_sulfone>  (54) 
0

>  <fr_term_acetylene>  (54) 
0

>  <fr_tetrazole>  (54) 
0

>  <fr_thiazole>  (54) 
0

>  <fr_thiocyan>  (54) 
0

>  <fr_thiophene>  (54) 
0

>  <fr_unbrch_alkane>  (54) 
0

>  <fr_urea>  (54) 
0

>  <NP-Likeness>  (54) 
-0.585524

$$$$
8ET
     RDKit          3D

  0  0  0  0  0  0  0  0  0  0999 V3000
M  V30 BEGIN CTAB
M  V30 COUNTS 30 32 0 0 0
M  V30 BEGIN ATOM
M  V30 1 C -0.415282 -4.978954 3.626535 0
M  V30 2 N 0.378403 -3.942664 4.016758 0
M  V30 3 C 0.634662 -2.924156 3.143358 0
M  V30 4 C 0.070804 -2.989692 1.886086 0
M  V30 5 C 0.234721 -1.991759 0.821217 0
M  V30 6 O -0.268774 -2.032599 -0.327673 0
M  V30 7 N 1.034584 -0.828582 1.041372 0
M  V30 8 C 1.240182 0.190826 0.045157 0
M  V30 9 C 2.327717 0.000355 -0.783060 0
M  V30 10 C 2.523655 0.994214 -1.750322 0
M  V30 11 C 1.652160 2.065556 -1.817581 0
M  V30 12 C 0.577886 2.206127 -0.961609 0
M  V30 13 N -0.244433 3.272575 -1.069262 0
M  V30 14 C -1.278798 3.368729 -0.213884 0
M  V30 15 C -1.560331 2.432737 0.784452 0
M  V30 16 C -0.700325 1.356332 0.866070 0
M  V30 17 C 0.352609 1.246827 0.004588 0
M  V30 18 C -0.742629 -4.065464 1.506164 0
M  V30 19 C -1.013627 -5.115825 2.390749 0
M  V30 20 H -0.543009 -5.726208 4.411975 0
M  V30 21 H 1.242369 -2.071852 3.356158 0
M  V30 22 H 1.516782 -0.642527 1.926915 0
M  V30 23 H 2.969921 -0.861853 -0.675648 0
M  V30 24 H 3.360288 0.894914 -2.425072 0
M  V30 25 H 1.855516 2.809467 -2.592628 0
M  V30 26 H -1.894419 4.246130 -0.357338 0
M  V30 27 H -2.400895 2.576620 1.427268 0
M  V30 28 H -0.879023 0.593942 1.633628 0
M  V30 29 H -1.203895 -4.148404 0.520457 0
M  V30 30 H -1.623944 -5.951952 2.148073 0
M  V30 END ATOM
M  V30 BEGIN BOND
M  V30 1 2 1 2
M  V30 2 1 2 3
M  V30 3 2 3 4
M  V30 4 1 4 5
M  V30 5 2 5 6
M  V30 6 1 5 7
M  V30 7 1 7 8
M  V30 8 2 8 9
M  V30 9 1 9 10
M  V30 10 2 10 11
M  V30 11 1 11 12
M  V30 12 2 12 13
M  V30 13 1 13 14
M  V30 14 2 14 15
M  V30 15 1 15 16
M  V30 16 2 16 17
M  V30 17 1 4 18
M  V30 18 2 18 19
M  V30 19 1 19 1
M  V30 20 1 17 8
M  V30 21 1 17 12
M  V30 22 1 1 20
M  V30 23 1 3 21
M  V30 24 1 7 22
M  V30 25 1 9 23
M  V30 26 1 10 24
M  V30 27 1 11 25
M  V30 28 1 14 26
M  V30 29 1 15 27
M  V30 30 1 16 28
M  V30 31 1 18 29
M  V30 32 1 19 30
M  V30 END BOND
M  V30 END CTAB
M  END
>  <Dataset>  (55) 
PDB

>  <Ligand_Instance>  (55) 
5N1F_8ET_A_403

>  <PDB_ID>  (55) 
5N1F

>  <Standardized_SMILES>  (55) 
[H]C1=NC([H])=C(C(=O)N([H])C2=C([H])C([H])=C([H])C3=NC([H])=C([H])C([H])=C32)C([H])=C1[H]

>  <Name>  (55) 
~{N}-quinolin-5-ylpyridine-3-carboxamide

>  <Pocket>  (55) 
A

>  <ATP_Site>  (55) 
1.0

>  <Peripheral>  (55) 
0.0

>  <Num_H_Atoms_ProtBoundConf>  (55) 
11.0

>  <Num_Resolved_Atoms>  (55) 
19.0

>  <Num_Not_Resolved_Atoms>  (55) 
0.0

>  <2D_Mol_H>  (55) 
<rdkit.Chem.rdchem.Mol object at 0x72a238dc5770>

>  <MW>  (55) 
249.273

>  <HBA>  (55) 
3

>  <HBD>  (55) 
1

>  <LogP>  (55) 
2.8821

>  <NRB>  (55) 
2

>  <TPSA>  (55) 
54.88

>  <Num_Heavy_Atoms>  (55) 
19

>  <Ro5>  (55) 
[True, True, True, True, True, True]

>  <Ro5_Fulfilled>  (55) 
True

>  <Ro3>  (55) 
[True, True, True, True]

>  <Ro3_Fulfilled>  (55) 
True

>  <Fsp3>  (55) 
0.0

>  <Fsp3_0.42>  (55) 
False

>  <Fsp3_0.45>  (55) 
False

>  <Stereogenic_Carbons>  (55) 
0

>  <C_Atoms>  (55) 
15

>  <FCStereo>  (55) 
0.0

>  <SPS>  (55) 
196

>  <nSPS>  (55) 
10.315789

>  <PBF>  (55) 
0.663035

>  <PBF_0.6>  (55) 
True

>  <nPBF>  (55) 
0.034897

>  <nPBF_0.016>  (55) 
True

>  <PMI1>  (55) 
543.986507

>  <PMI2>  (55) 
2557.949609

>  <PMI3>  (55) 
2817.119491

>  <NPR1>  (55) 
0.1931

>  <NPR2>  (55) 
0.908002

>  <Sum_NPR>  (55) 
1.101102

>  <Sum_NPR_1.07>  (55) 
True

>  <Sum_NPR_1.2>  (55) 
False

>  <MaxAbsEStateIndex>  (55) 
12.086247

>  <MaxEStateIndex>  (55) 
12.086247

>  <MinAbsEStateIndex>  (55) 
0.176432

>  <MinEStateIndex>  (55) 
-0.176432

>  <qed>  (55) 
0.759365

>  <MolWt>  (55) 
249.273

>  <HeavyAtomMolWt>  (55) 
238.185

>  <ExactMolWt>  (55) 
249.090212

>  <NumValenceElectrons>  (55) 
92

>  <NumRadicalElectrons>  (55) 
0

>  <MaxPartialCharge>  (55) 
0.256743

>  <MinPartialCharge>  (55) 
-0.321306

>  <MaxAbsPartialCharge>  (55) 
0.321306

>  <MinAbsPartialCharge>  (55) 
0.256743

>  <FpDensityMorgan1>  (55) 
1.0

>  <FpDensityMorgan2>  (55) 
1.894737

>  <FpDensityMorgan3>  (55) 
2.736842

>  <BCUT2D_MWHI>  (55) 
16.149185

>  <BCUT2D_MWLOW>  (55) 
10.145504

>  <BCUT2D_CHGHI>  (55) 
2.075431

>  <BCUT2D_CHGLO>  (55) 
-2.074045

>  <BCUT2D_LOGPHI>  (55) 
2.212152

>  <BCUT2D_LOGPLOW>  (55) 
-2.117863

>  <BCUT2D_MRHI>  (55) 
6.07959

>  <BCUT2D_MRLOW>  (55) 
0.102189

>  <AvgIpc>  (55) 
2.484001

>  <BalabanJ>  (55) 
1.959876

>  <BertzCT>  (55) 
720.302025

>  <Chi0>  (55) 
13.07914

>  <Chi0n>  (55) 
10.076178

>  <Chi0v>  (55) 
10.076178

>  <Chi1>  (55) 
9.343337

>  <Chi1n>  (55) 
5.895703

>  <Chi1v>  (55) 
5.895703

>  <Chi2n>  (55) 
4.071486

>  <Chi2v>  (55) 
4.071486

>  <Chi3n>  (55) 
2.817615

>  <Chi3v>  (55) 
2.817615

>  <Chi4n>  (55) 
1.903902

>  <Chi4v>  (55) 
1.903902

>  <HallKierAlpha>  (55) 
-2.75

>  <Ipc>  (55) 
37776.683251

>  <Kappa1>  (55) 
11.346641

>  <Kappa2>  (55) 
4.857097

>  <Kappa3>  (55) 
2.282341

>  <LabuteASA>  (55) 
109.685784

>  <PEOE_VSA1>  (55) 
5.316789

>  <PEOE_VSA10>  (55) 
0.0

>  <PEOE_VSA11>  (55) 
0.0

>  <PEOE_VSA12>  (55) 
0.0

>  <PEOE_VSA13>  (55) 
5.90718

>  <PEOE_VSA14>  (55) 
0.0

>  <PEOE_VSA2>  (55) 
14.762494

>  <PEOE_VSA3>  (55) 
0.0

>  <PEOE_VSA4>  (55) 
0.0

>  <PEOE_VSA5>  (55) 
0.0

>  <PEOE_VSA6>  (55) 
6.066367

>  <PEOE_VSA7>  (55) 
36.398202

>  <PEOE_VSA8>  (55) 
23.976755

>  <PEOE_VSA9>  (55) 
16.767538

>  <SMR_VSA1>  (55) 
4.794537

>  <SMR_VSA10>  (55) 
22.497491

>  <SMR_VSA2>  (55) 
0.0

>  <SMR_VSA3>  (55) 
9.967957

>  <SMR_VSA4>  (55) 
0.0

>  <SMR_VSA5>  (55) 
0.0

>  <SMR_VSA6>  (55) 
5.316789

>  <SMR_VSA7>  (55) 
66.618552

>  <SMR_VSA8>  (55) 
0.0

>  <SMR_VSA9>  (55) 
0.0

>  <SlogP_VSA1>  (55) 
5.316789

>  <SlogP_VSA10>  (55) 
5.687386

>  <SlogP_VSA11>  (55) 
0.0

>  <SlogP_VSA12>  (55) 
0.0

>  <SlogP_VSA2>  (55) 
15.875137

>  <SlogP_VSA3>  (55) 
0.0

>  <SlogP_VSA4>  (55) 
0.0

>  <SlogP_VSA5>  (55) 
10.357989

>  <SlogP_VSA6>  (55) 
61.0551

>  <SlogP_VSA7>  (55) 
0.0

>  <SlogP_VSA8>  (55) 
10.902925

>  <SlogP_VSA9>  (55) 
0.0

>  <EState_VSA1>  (55) 
0.0

>  <EState_VSA10>  (55) 
4.794537

>  <EState_VSA11>  (55) 
0.0

>  <EState_VSA2>  (55) 
5.90718

>  <EState_VSA3>  (55) 
5.563451

>  <EState_VSA4>  (55) 
16.590311

>  <EState_VSA5>  (55) 
0.0

>  <EState_VSA6>  (55) 
30.723265

>  <EState_VSA7>  (55) 
30.331835

>  <EState_VSA8>  (55) 
15.284746

>  <EState_VSA9>  (55) 
0.0

>  <VSA_EState1>  (55) 
0.0

>  <VSA_EState10>  (55) 
0.0

>  <VSA_EState2>  (55) 
20.281018

>  <VSA_EState3>  (55) 
3.80101

>  <VSA_EState4>  (55) 
2.133642

>  <VSA_EState5>  (55) 
-0.176432

>  <VSA_EState6>  (55) 
12.88499

>  <VSA_EState7>  (55) 
4.909107

>  <VSA_EState8>  (55) 
0.0

>  <VSA_EState9>  (55) 
0.0

>  <FractionCSP3>  (55) 
0.0

>  <HeavyAtomCount>  (55) 
19

>  <NHOHCount>  (55) 
1

>  <NOCount>  (55) 
4

>  <NumAliphaticCarbocycles>  (55) 
0

>  <NumAliphaticHeterocycles>  (55) 
0

>  <NumAliphaticRings>  (55) 
0

>  <NumAromaticCarbocycles>  (55) 
1

>  <NumAromaticHeterocycles>  (55) 
2

>  <NAR>  (55) 
3

>  <NumHAcceptors>  (55) 
3

>  <NumHDonors>  (55) 
1

>  <NumHeteroatoms>  (55) 
4

>  <NumRotatableBonds>  (55) 
2

>  <NumSaturatedCarbocycles>  (55) 
0

>  <NumSaturatedHeterocycles>  (55) 
0

>  <NumSaturatedRings>  (55) 
0

>  <RingCount>  (55) 
3

>  <MolLogP>  (55) 
2.8821

>  <MolMR>  (55) 
73.9332

>  <fr_Al_COO>  (55) 
0

>  <fr_Al_OH>  (55) 
0

>  <fr_Al_OH_noTert>  (55) 
0

>  <fr_ArN>  (55) 
0

>  <fr_Ar_COO>  (55) 
0

>  <fr_Ar_N>  (55) 
2

>  <fr_Ar_NH>  (55) 
0

>  <fr_Ar_OH>  (55) 
0

>  <fr_COO>  (55) 
0

>  <fr_COO2>  (55) 
0

>  <fr_C_O>  (55) 
1

>  <fr_C_O_noCOO>  (55) 
1

>  <fr_C_S>  (55) 
0

>  <fr_HOCCN>  (55) 
0

>  <fr_Imine>  (55) 
0

>  <fr_NH0>  (55) 
2

>  <fr_NH1>  (55) 
1

>  <fr_NH2>  (55) 
0

>  <fr_N_O>  (55) 
0

>  <fr_Ndealkylation1>  (55) 
0

>  <fr_Ndealkylation2>  (55) 
0

>  <fr_Nhpyrrole>  (55) 
0

>  <fr_SH>  (55) 
0

>  <fr_aldehyde>  (55) 
0

>  <fr_alkyl_carbamate>  (55) 
0

>  <fr_alkyl_halide>  (55) 
0

>  <fr_allylic_oxid>  (55) 
0

>  <fr_amide>  (55) 
1

>  <fr_amidine>  (55) 
0

>  <fr_aniline>  (55) 
1

>  <fr_aryl_methyl>  (55) 
0

>  <fr_azide>  (55) 
0

>  <fr_azo>  (55) 
0

>  <fr_barbitur>  (55) 
0

>  <fr_benzene>  (55) 
1

>  <fr_benzodiazepine>  (55) 
0

>  <fr_bicyclic>  (55) 
1

>  <fr_diazo>  (55) 
0

>  <fr_dihydropyridine>  (55) 
0

>  <fr_epoxide>  (55) 
0

>  <fr_ester>  (55) 
0

>  <fr_ether>  (55) 
0

>  <fr_furan>  (55) 
0

>  <fr_guanido>  (55) 
0

>  <fr_halogen>  (55) 
0

>  <fr_hdrzine>  (55) 
0

>  <fr_hdrzone>  (55) 
0

>  <fr_imidazole>  (55) 
0

>  <fr_imide>  (55) 
0

>  <fr_isocyan>  (55) 
0

>  <fr_isothiocyan>  (55) 
0

>  <fr_ketone>  (55) 
0

>  <fr_ketone_Topliss>  (55) 
0

>  <fr_lactam>  (55) 
0

>  <fr_lactone>  (55) 
0

>  <fr_methoxy>  (55) 
0

>  <fr_morpholine>  (55) 
0

>  <fr_nitrile>  (55) 
0

>  <fr_nitro>  (55) 
0

>  <fr_nitro_arom>  (55) 
0

>  <fr_nitro_arom_nonortho>  (55) 
0

>  <fr_nitroso>  (55) 
0

>  <fr_oxazole>  (55) 
0

>  <fr_oxime>  (55) 
0

>  <fr_para_hydroxylation>  (55) 
0

>  <fr_phenol>  (55) 
0

>  <fr_phenol_noOrthoHbond>  (55) 
0

>  <fr_phos_acid>  (55) 
0

>  <fr_phos_ester>  (55) 
0

>  <fr_piperdine>  (55) 
0

>  <fr_piperzine>  (55) 
0

>  <fr_priamide>  (55) 
0

>  <fr_prisulfonamd>  (55) 
0

>  <fr_pyridine>  (55) 
2

>  <fr_quatN>  (55) 
0

>  <fr_sulfide>  (55) 
0

>  <fr_sulfonamd>  (55) 
0

>  <fr_sulfone>  (55) 
0

>  <fr_term_acetylene>  (55) 
0

>  <fr_tetrazole>  (55) 
0

>  <fr_thiazole>  (55) 
0

>  <fr_thiocyan>  (55) 
0

>  <fr_thiophene>  (55) 
0

>  <fr_unbrch_alkane>  (55) 
0

>  <fr_urea>  (55) 
0

>  <NP-Likeness>  (55) 
-1.62378

$$$$
8FZ
     RDKit          3D

  0  0  0  0  0  0  0  0  0  0999 V3000
M  V30 BEGIN CTAB
M  V30 COUNTS 25 26 0 0 0
M  V30 BEGIN ATOM
M  V30 1 C 1.811688 -0.989261 5.250398 0
M  V30 2 N 2.657440 -1.445926 4.309128 0
M  V30 3 C 2.673706 -0.992423 3.042324 0
M  V30 4 C 1.778395 -0.005815 2.679568 0
M  V30 5 O 1.697482 0.549612 1.387396 0
M  V30 6 C 0.852923 -0.026110 0.446152 0
M  V30 7 C 0.035144 -1.125990 0.602495 0
M  V30 8 C -0.653523 -1.388808 -0.571772 0
M  V30 9 C -0.186788 -0.377276 -1.416501 0
M  V30 10 C -0.599419 -0.169361 -2.839369 0
M  V30 11 N -1.747892 0.717799 -2.802826 0 CHG=1 VAL=4
M  V30 12 O 0.668535 0.367030 -0.780672 0
M  V30 13 C 0.852568 0.544255 3.574425 0
M  V30 14 C 0.927919 -0.003606 4.860531 0
M  V30 15 H 1.780286 -1.338224 6.273785 0
M  V30 16 H 3.345348 -1.352254 2.287208 0
M  V30 17 H -0.084459 -1.736838 1.511168 0
M  V30 18 H -1.372746 -2.157025 -0.826234 0
M  V30 19 H 0.204419 0.175202 -3.489091 0
M  V30 20 H -0.978018 -1.148338 -3.213728 0
M  V30 21 H -2.295336 0.595549 -3.671898 0
M  V30 22 H -1.374181 1.696843 -2.780685 0
M  V30 23 H -2.282137 0.510005 -1.931582 0
M  V30 24 H 0.145730 1.306098 3.334171 0
M  V30 25 H 0.228363 0.390226 5.595574 0
M  V30 END ATOM
M  V30 BEGIN BOND
M  V30 1 2 1 2
M  V30 2 1 2 3
M  V30 3 2 3 4
M  V30 4 1 4 5
M  V30 5 1 5 6
M  V30 6 2 6 7
M  V30 7 1 7 8
M  V30 8 2 8 9
M  V30 9 1 9 10
M  V30 10 1 10 11
M  V30 11 1 9 12
M  V30 12 1 4 13
M  V30 13 2 13 14
M  V30 14 1 14 1
M  V30 15 1 12 6
M  V30 16 1 1 15
M  V30 17 1 3 16
M  V30 18 1 7 17
M  V30 19 1 8 18
M  V30 20 1 10 19
M  V30 21 1 10 20
M  V30 22 1 11 21
M  V30 23 1 11 22
M  V30 24 1 11 23
M  V30 25 1 13 24
M  V30 26 1 14 25
M  V30 END BOND
M  V30 END CTAB
M  END
>  <Dataset>  (56) 
PDB

>  <Ligand_Instance>  (56) 
5N1D_8FZ_A_403

>  <PDB_ID>  (56) 
5N1D

>  <Standardized_SMILES>  (56) 
[H]C1=NC([H])=C(OC2=C([H])C([H])=C(C([H])([H])[N+]([H])([H])[H])O2)C([H])=C1[H]

>  <Name>  (56) 
(5-pyridin-3-yloxyfuran-2-yl)methanamine

>  <Pocket>  (56) 
A

>  <ATP_Site>  (56) 
1.0

>  <Peripheral>  (56) 
0.0

>  <Num_H_Atoms_ProtBoundConf>  (56) 
11.0

>  <Num_Resolved_Atoms>  (56) 
14.0

>  <Num_Not_Resolved_Atoms>  (56) 
0.0

>  <2D_Mol_H>  (56) 
<rdkit.Chem.rdchem.Mol object at 0x72a238dc5850>

>  <MW>  (56) 
191.21

>  <HBA>  (56) 
3

>  <HBD>  (56) 
1

>  <LogP>  (56) 
1.2088

>  <NRB>  (56) 
4

>  <TPSA>  (56) 
62.9

>  <Num_Heavy_Atoms>  (56) 
14

>  <Ro5>  (56) 
[True, True, True, True, True, True]

>  <Ro5_Fulfilled>  (56) 
True

>  <Ro3>  (56) 
[True, True, True, True]

>  <Ro3_Fulfilled>  (56) 
True

>  <Fsp3>  (56) 
0.1

>  <Fsp3_0.42>  (56) 
False

>  <Fsp3_0.45>  (56) 
False

>  <Stereogenic_Carbons>  (56) 
0

>  <C_Atoms>  (56) 
10

>  <FCStereo>  (56) 
0.0

>  <SPS>  (56) 
141

>  <nSPS>  (56) 
10.071429

>  <PBF>  (56) 
0.706623

>  <PBF_0.6>  (56) 
True

>  <nPBF>  (56) 
0.050473

>  <nPBF_0.016>  (56) 
True

>  <PMI1>  (56) 
208.558867

>  <PMI2>  (56) 
1718.918697

>  <PMI3>  (56) 
1733.653369

>  <NPR1>  (56) 
0.1203

>  <NPR2>  (56) 
0.991501

>  <Sum_NPR>  (56) 
1.111801

>  <Sum_NPR_1.07>  (56) 
True

>  <Sum_NPR_1.2>  (56) 
False

>  <MaxAbsEStateIndex>  (56) 
5.403889

>  <MaxEStateIndex>  (56) 
5.403889

>  <MinAbsEStateIndex>  (56) 
0.46912

>  <MinEStateIndex>  (56) 
0.46912

>  <qed>  (56) 
0.792613

>  <MolWt>  (56) 
191.21

>  <HeavyAtomMolWt>  (56) 
180.122

>  <ExactMolWt>  (56) 
191.081504

>  <NumValenceElectrons>  (56) 
72

>  <NumRadicalElectrons>  (56) 
0

>  <MaxPartialCharge>  (56) 
0.289795

>  <MinPartialCharge>  (56) 
-0.424409

>  <MaxAbsPartialCharge>  (56) 
0.424409

>  <MinAbsPartialCharge>  (56) 
0.289795

>  <FpDensityMorgan1>  (56) 
1.357143

>  <FpDensityMorgan2>  (56) 
2.285714

>  <FpDensityMorgan3>  (56) 
2.928571

>  <BCUT2D_MWHI>  (56) 
16.587314

>  <BCUT2D_MWLOW>  (56) 
10.442886

>  <BCUT2D_CHGHI>  (56) 
2.027703

>  <BCUT2D_CHGLO>  (56) 
-1.987255

>  <BCUT2D_LOGPHI>  (56) 
2.215793

>  <BCUT2D_LOGPLOW>  (56) 
-2.467901

>  <BCUT2D_MRHI>  (56) 
5.221467

>  <BCUT2D_MRLOW>  (56) 
-0.389727

>  <AvgIpc>  (56) 
2.671409

>  <BalabanJ>  (56) 
2.111416

>  <BertzCT>  (56) 
397.514067

>  <Chi0>  (56) 
9.803119

>  <Chi0n>  (56) 
7.642025

>  <Chi0v>  (56) 
7.642025

>  <Chi1>  (56) 
6.881341

>  <Chi1n>  (56) 
4.341148

>  <Chi1v>  (56) 
4.341148

>  <Chi2n>  (56) 
2.761533

>  <Chi2v>  (56) 
2.761533

>  <Chi3n>  (56) 
1.736238

>  <Chi3v>  (56) 
1.736238

>  <Chi4n>  (56) 
1.071072

>  <Chi4v>  (56) 
1.071072

>  <HallKierAlpha>  (56) 
-1.81

>  <Ipc>  (56) 
2959.921102

>  <Kappa1>  (56) 
8.773528

>  <Kappa2>  (56) 
3.932119

>  <Kappa3>  (56) 
1.916652

>  <LabuteASA>  (56) 
81.320853

>  <PEOE_VSA1>  (56) 
14.887681

>  <PEOE_VSA10>  (56) 
12.294268

>  <PEOE_VSA11>  (56) 
5.760247

>  <PEOE_VSA12>  (56) 
0.0

>  <PEOE_VSA13>  (56) 
5.946308

>  <PEOE_VSA14>  (56) 
0.0

>  <PEOE_VSA2>  (56) 
4.983979

>  <PEOE_VSA3>  (56) 
0.0

>  <PEOE_VSA4>  (56) 
0.0

>  <PEOE_VSA5>  (56) 
0.0

>  <PEOE_VSA6>  (56) 
0.0

>  <PEOE_VSA7>  (56) 
18.199101

>  <PEOE_VSA8>  (56) 
12.263211

>  <PEOE_VSA9>  (56) 
6.196844

>  <SMR_VSA1>  (56) 
14.887681

>  <SMR_VSA10>  (56) 
0.0

>  <SMR_VSA2>  (56) 
0.0

>  <SMR_VSA3>  (56) 
4.983979

>  <SMR_VSA4>  (56) 
0.0

>  <SMR_VSA5>  (56) 
6.544756

>  <SMR_VSA6>  (56) 
0.0

>  <SMR_VSA7>  (56) 
42.419403

>  <SMR_VSA8>  (56) 
0.0

>  <SMR_VSA9>  (56) 
11.69582

>  <SlogP_VSA1>  (56) 
10.47053

>  <SlogP_VSA10>  (56) 
0.0

>  <SlogP_VSA11>  (56) 
11.69582

>  <SlogP_VSA12>  (56) 
0.0

>  <SlogP_VSA2>  (56) 
4.983979

>  <SlogP_VSA3>  (56) 
6.544756

>  <SlogP_VSA4>  (56) 
0.0

>  <SlogP_VSA5>  (56) 
5.760247

>  <SlogP_VSA6>  (56) 
41.076306

>  <SlogP_VSA7>  (56) 
0.0

>  <SlogP_VSA8>  (56) 
0.0

>  <SlogP_VSA9>  (56) 
0.0

>  <EState_VSA1>  (56) 
0.0

>  <EState_VSA10>  (56) 
0.0

>  <EState_VSA11>  (56) 
0.0

>  <EState_VSA2>  (56) 
0.0

>  <EState_VSA3>  (56) 
18.240576

>  <EState_VSA4>  (56) 
5.760247

>  <EState_VSA5>  (56) 
0.0

>  <EState_VSA6>  (56) 
24.526421

>  <EState_VSA7>  (56) 
12.132734

>  <EState_VSA8>  (56) 
10.717646

>  <EState_VSA9>  (56) 
9.154014

>  <VSA_EState1>  (56) 
10.728112

>  <VSA_EState10>  (56) 
0.0

>  <VSA_EState2>  (56) 
3.928788

>  <VSA_EState3>  (56) 
0.0

>  <VSA_EState4>  (56) 
3.714649

>  <VSA_EState5>  (56) 
1.942595

>  <VSA_EState6>  (56) 
7.242227

>  <VSA_EState7>  (56) 
3.3222

>  <VSA_EState8>  (56) 
0.621428

>  <VSA_EState9>  (56) 
0.0

>  <FractionCSP3>  (56) 
0.1

>  <HeavyAtomCount>  (56) 
14

>  <NHOHCount>  (56) 
3

>  <NOCount>  (56) 
4

>  <NumAliphaticCarbocycles>  (56) 
0

>  <NumAliphaticHeterocycles>  (56) 
0

>  <NumAliphaticRings>  (56) 
0

>  <NumAromaticCarbocycles>  (56) 
0

>  <NumAromaticHeterocycles>  (56) 
2

>  <NAR>  (56) 
2

>  <NumHAcceptors>  (56) 
3

>  <NumHDonors>  (56) 
1

>  <NumHeteroatoms>  (56) 
4

>  <NumRotatableBonds>  (56) 
3

>  <NumSaturatedCarbocycles>  (56) 
0

>  <NumSaturatedHeterocycles>  (56) 
0

>  <NumSaturatedRings>  (56) 
0

>  <RingCount>  (56) 
2

>  <MolLogP>  (56) 
1.2088

>  <MolMR>  (56) 
49.6111

>  <fr_Al_COO>  (56) 
0

>  <fr_Al_OH>  (56) 
0

>  <fr_Al_OH_noTert>  (56) 
0

>  <fr_ArN>  (56) 
0

>  <fr_Ar_COO>  (56) 
0

>  <fr_Ar_N>  (56) 
1

>  <fr_Ar_NH>  (56) 
0

>  <fr_Ar_OH>  (56) 
0

>  <fr_COO>  (56) 
0

>  <fr_COO2>  (56) 
0

>  <fr_C_O>  (56) 
0

>  <fr_C_O_noCOO>  (56) 
0

>  <fr_C_S>  (56) 
0

>  <fr_HOCCN>  (56) 
0

>  <fr_Imine>  (56) 
0

>  <fr_NH0>  (56) 
1

>  <fr_NH1>  (56) 
0

>  <fr_NH2>  (56) 
0

>  <fr_N_O>  (56) 
0

>  <fr_Ndealkylation1>  (56) 
0

>  <fr_Ndealkylation2>  (56) 
0

>  <fr_Nhpyrrole>  (56) 
0

>  <fr_SH>  (56) 
0

>  <fr_aldehyde>  (56) 
0

>  <fr_alkyl_carbamate>  (56) 
0

>  <fr_alkyl_halide>  (56) 
0

>  <fr_allylic_oxid>  (56) 
0

>  <fr_amide>  (56) 
0

>  <fr_amidine>  (56) 
0

>  <fr_aniline>  (56) 
0

>  <fr_aryl_methyl>  (56) 
0

>  <fr_azide>  (56) 
0

>  <fr_azo>  (56) 
0

>  <fr_barbitur>  (56) 
0

>  <fr_benzene>  (56) 
0

>  <fr_benzodiazepine>  (56) 
0

>  <fr_bicyclic>  (56) 
0

>  <fr_diazo>  (56) 
0

>  <fr_dihydropyridine>  (56) 
0

>  <fr_epoxide>  (56) 
0

>  <fr_ester>  (56) 
0

>  <fr_ether>  (56) 
1

>  <fr_furan>  (56) 
1

>  <fr_guanido>  (56) 
0

>  <fr_halogen>  (56) 
0

>  <fr_hdrzine>  (56) 
0

>  <fr_hdrzone>  (56) 
0

>  <fr_imidazole>  (56) 
0

>  <fr_imide>  (56) 
0

>  <fr_isocyan>  (56) 
0

>  <fr_isothiocyan>  (56) 
0

>  <fr_ketone>  (56) 
0

>  <fr_ketone_Topliss>  (56) 
0

>  <fr_lactam>  (56) 
0

>  <fr_lactone>  (56) 
0

>  <fr_methoxy>  (56) 
0

>  <fr_morpholine>  (56) 
0

>  <fr_nitrile>  (56) 
0

>  <fr_nitro>  (56) 
0

>  <fr_nitro_arom>  (56) 
0

>  <fr_nitro_arom_nonortho>  (56) 
0

>  <fr_nitroso>  (56) 
0

>  <fr_oxazole>  (56) 
0

>  <fr_oxime>  (56) 
0

>  <fr_para_hydroxylation>  (56) 
0

>  <fr_phenol>  (56) 
0

>  <fr_phenol_noOrthoHbond>  (56) 
0

>  <fr_phos_acid>  (56) 
0

>  <fr_phos_ester>  (56) 
0

>  <fr_piperdine>  (56) 
0

>  <fr_piperzine>  (56) 
0

>  <fr_priamide>  (56) 
0

>  <fr_prisulfonamd>  (56) 
0

>  <fr_pyridine>  (56) 
1

>  <fr_quatN>  (56) 
1

>  <fr_sulfide>  (56) 
0

>  <fr_sulfonamd>  (56) 
0

>  <fr_sulfone>  (56) 
0

>  <fr_term_acetylene>  (56) 
0

>  <fr_tetrazole>  (56) 
0

>  <fr_thiazole>  (56) 
0

>  <fr_thiocyan>  (56) 
0

>  <fr_thiophene>  (56) 
0

>  <fr_unbrch_alkane>  (56) 
0

>  <fr_urea>  (56) 
0

>  <NP-Likeness>  (56) 
-0.724893

$$$$
8G2
     RDKit          3D

  0  0  0  0  0  0  0  0  0  0999 V3000
M  V30 BEGIN CTAB
M  V30 COUNTS 24 24 0 0 0
M  V30 BEGIN ATOM
M  V30 1 C 0.020489 0.718979 0.559516 0
M  V30 2 C 0.218803 0.563251 1.915922 0
M  V30 3 C 1.083554 -0.349027 2.488669 0
M  V30 4 C 1.196805 -0.407210 3.966193 0
M  V30 5 N 0.198728 -1.373863 4.427235 0 CHG=1 VAL=4
M  V30 6 C 1.786761 -1.149521 1.611395 0
M  V30 7 C 1.647407 -1.058375 0.239333 0
M  V30 8 C 0.750944 -0.108961 -0.270151 0
M  V30 9 C 0.630405 -0.041789 -1.725183 0
M  V30 10 O 1.202330 -0.701257 -2.631916 0
M  V30 11 O -0.242964 0.881294 -2.265162 0
M  V30 12 C -0.497909 1.098633 -3.617527 0
M  V30 13 H -0.667988 1.447489 0.153607 0
M  V30 14 H -0.353709 1.211926 2.560359 0
M  V30 15 H 0.975089 0.569049 4.420905 0
M  V30 16 H 2.180409 -0.817368 4.215898 0
M  V30 17 H 0.312902 -2.260668 3.856161 0
M  V30 18 H 0.261184 -1.568982 5.436749 0
M  V30 19 H -0.742076 -1.006865 4.176044 0
M  V30 20 H 2.477685 -1.879068 2.054562 0
M  V30 21 H 2.222661 -1.709051 -0.383120 0
M  V30 22 H -1.613994 1.048760 -3.766507 0
M  V30 23 H -0.132191 2.111904 -3.954482 0
M  V30 24 H -0.063188 0.372468 -4.314489 0
M  V30 END ATOM
M  V30 BEGIN BOND
M  V30 1 2 1 2
M  V30 2 1 2 3
M  V30 3 1 3 4
M  V30 4 1 4 5
M  V30 5 2 3 6
M  V30 6 1 6 7
M  V30 7 2 7 8
M  V30 8 1 8 9
M  V30 9 2 9 10
M  V30 10 1 9 11
M  V30 11 1 11 12
M  V30 12 1 8 1
M  V30 13 1 1 13
M  V30 14 1 2 14
M  V30 15 1 4 15
M  V30 16 1 4 16
M  V30 17 1 5 17
M  V30 18 1 5 18
M  V30 19 1 5 19
M  V30 20 1 6 20
M  V30 21 1 7 21
M  V30 22 1 12 22
M  V30 23 1 12 23
M  V30 24 1 12 24
M  V30 END BOND
M  V30 END CTAB
M  END
>  <Dataset>  (57) 
PDB

>  <Ligand_Instance>  (57) 
5N1H_8G2_A_403

>  <PDB_ID>  (57) 
5N1H

>  <Standardized_SMILES>  (57) 
[H]C1=C([H])C(C([H])([H])[N+]([H])([H])[H])=C([H])C([H])=C1C(=O)OC([H])([H])[H]

>  <Name>  (57) 
(4-methoxycarbonylphenyl)methylazanium

>  <Pocket>  (57) 
A

>  <ATP_Site>  (57) 
1.0

>  <Peripheral>  (57) 
0.0

>  <Num_H_Atoms_ProtBoundConf>  (57) 
12.0

>  <Num_Resolved_Atoms>  (57) 
12.0

>  <Num_Not_Resolved_Atoms>  (57) 
0.0

>  <2D_Mol_H>  (57) 
<rdkit.Chem.rdchem.Mol object at 0x72a238dc5930>

>  <MW>  (57) 
166.2

>  <HBA>  (57) 
2

>  <HBD>  (57) 
1

>  <LogP>  (57) 
0.2151

>  <NRB>  (57) 
4

>  <TPSA>  (57) 
53.94

>  <Num_Heavy_Atoms>  (57) 
12

>  <Ro5>  (57) 
[True, True, True, True, True, True]

>  <Ro5_Fulfilled>  (57) 
True

>  <Ro3>  (57) 
[True, True, True, True]

>  <Ro3_Fulfilled>  (57) 
True

>  <Fsp3>  (57) 
0.222222

>  <Fsp3_0.42>  (57) 
False

>  <Fsp3_0.45>  (57) 
False

>  <Stereogenic_Carbons>  (57) 
0

>  <C_Atoms>  (57) 
9

>  <FCStereo>  (57) 
0.0

>  <SPS>  (57) 
114

>  <nSPS>  (57) 
9.5

>  <PBF>  (57) 
0.501778

>  <PBF_0.6>  (57) 
False

>  <nPBF>  (57) 
0.041815

>  <nPBF_0.016>  (57) 
True

>  <PMI1>  (57) 
173.441761

>  <PMI2>  (57) 
1217.240914

>  <PMI3>  (57) 
1336.658035

>  <NPR1>  (57) 
0.129758

>  <NPR2>  (57) 
0.91066

>  <Sum_NPR>  (57) 
1.040418

>  <Sum_NPR_1.07>  (57) 
False

>  <Sum_NPR_1.2>  (57) 
False

>  <MaxAbsEStateIndex>  (57) 
10.975208

>  <MaxEStateIndex>  (57) 
10.975208

>  <MinAbsEStateIndex>  (57) 
0.300359

>  <MinEStateIndex>  (57) 
-0.300359

>  <qed>  (57) 
0.638615

>  <MolWt>  (57) 
166.2

>  <HeavyAtomMolWt>  (57) 
154.104

>  <ExactMolWt>  (57) 
166.086255

>  <NumValenceElectrons>  (57) 
64

>  <NumRadicalElectrons>  (57) 
0

>  <MaxPartialCharge>  (57) 
0.337342

>  <MinPartialCharge>  (57) 
-0.465418

>  <MaxAbsPartialCharge>  (57) 
0.465418

>  <MinAbsPartialCharge>  (57) 
0.337342

>  <FpDensityMorgan1>  (57) 
1.416667

>  <FpDensityMorgan2>  (57) 
2.0

>  <FpDensityMorgan3>  (57) 
2.416667

>  <BCUT2D_MWHI>  (57) 
16.52326

>  <BCUT2D_MWLOW>  (57) 
10.134891

>  <BCUT2D_CHGHI>  (57) 
2.027939

>  <BCUT2D_CHGLO>  (57) 
-1.982506

>  <BCUT2D_LOGPHI>  (57) 
2.035294

>  <BCUT2D_LOGPLOW>  (57) 
-2.469515

>  <BCUT2D_MRHI>  (57) 
5.887235

>  <BCUT2D_MRLOW>  (57) 
-0.385971

>  <AvgIpc>  (57) 
2.167053

>  <BalabanJ>  (57) 
2.843524

>  <BertzCT>  (57) 
266.361954

>  <Chi0>  (57) 
8.974691

>  <Chi0n>  (57) 
7.040111

>  <Chi0v>  (57) 
7.040111

>  <Chi1>  (57) 
5.774387

>  <Chi1n>  (57) 
3.741417

>  <Chi1v>  (57) 
3.741417

>  <Chi2n>  (57) 
2.438505

>  <Chi2v>  (57) 
2.438505

>  <Chi3n>  (57) 
1.663709

>  <Chi3v>  (57) 
1.663709

>  <Chi4n>  (57) 
0.925346

>  <Chi4v>  (57) 
0.925346

>  <HallKierAlpha>  (57) 
-1.35

>  <Ipc>  (57) 
606.774939

>  <Kappa1>  (57) 
8.743897

>  <Kappa2>  (57) 
3.875201

>  <Kappa3>  (57) 
1.826041

>  <LabuteASA>  (57) 
71.141187

>  <PEOE_VSA1>  (57) 
10.47053

>  <PEOE_VSA10>  (57) 
0.0

>  <PEOE_VSA11>  (57) 
0.0

>  <PEOE_VSA12>  (57) 
0.0

>  <PEOE_VSA13>  (57) 
0.0

>  <PEOE_VSA14>  (57) 
5.969305

>  <PEOE_VSA2>  (57) 
0.0

>  <PEOE_VSA3>  (57) 
4.794537

>  <PEOE_VSA4>  (57) 
0.0

>  <PEOE_VSA5>  (57) 
0.0

>  <PEOE_VSA6>  (57) 
12.132734

>  <PEOE_VSA7>  (57) 
12.132734

>  <PEOE_VSA8>  (57) 
5.563451

>  <PEOE_VSA9>  (57) 
19.218005

>  <SMR_VSA1>  (57) 
15.265068

>  <SMR_VSA10>  (57) 
5.969305

>  <SMR_VSA2>  (57) 
0.0

>  <SMR_VSA3>  (57) 
0.0

>  <SMR_VSA4>  (57) 
0.0

>  <SMR_VSA5>  (57) 
6.544756

>  <SMR_VSA6>  (57) 
7.109798

>  <SMR_VSA7>  (57) 
35.392371

>  <SMR_VSA8>  (57) 
0.0

>  <SMR_VSA9>  (57) 
0.0

>  <SlogP_VSA1>  (57) 
5.733667

>  <SlogP_VSA10>  (57) 
0.0

>  <SlogP_VSA11>  (57) 
0.0

>  <SlogP_VSA12>  (57) 
0.0

>  <SlogP_VSA2>  (57) 
13.079103

>  <SlogP_VSA3>  (57) 
11.281619

>  <SlogP_VSA4>  (57) 
0.0

>  <SlogP_VSA5>  (57) 
15.92144

>  <SlogP_VSA6>  (57) 
24.265468

>  <SlogP_VSA7>  (57) 
0.0

>  <SlogP_VSA8>  (57) 
0.0

>  <SlogP_VSA9>  (57) 
0.0

>  <EState_VSA1>  (57) 
0.0

>  <EState_VSA10>  (57) 
4.794537

>  <EState_VSA11>  (57) 
0.0

>  <EState_VSA2>  (57) 
5.969305

>  <EState_VSA3>  (57) 
5.563451

>  <EState_VSA4>  (57) 
12.108208

>  <EState_VSA5>  (57) 
7.109798

>  <EState_VSA6>  (57) 
12.132734

>  <EState_VSA7>  (57) 
12.132734

>  <EState_VSA8>  (57) 
10.47053

>  <EState_VSA9>  (57) 
0.0

>  <VSA_EState1>  (57) 
4.555203

>  <VSA_EState10>  (57) 
0.0

>  <VSA_EState2>  (57) 
10.975208

>  <VSA_EState3>  (57) 
0.0

>  <VSA_EState4>  (57) 
5.426423

>  <VSA_EState5>  (57) 
-0.300359

>  <VSA_EState6>  (57) 
7.233333

>  <VSA_EState7>  (57) 
0.0

>  <VSA_EState8>  (57) 
0.737552

>  <VSA_EState9>  (57) 
1.37264

>  <FractionCSP3>  (57) 
0.222222

>  <HeavyAtomCount>  (57) 
12

>  <NHOHCount>  (57) 
3

>  <NOCount>  (57) 
3

>  <NumAliphaticCarbocycles>  (57) 
0

>  <NumAliphaticHeterocycles>  (57) 
0

>  <NumAliphaticRings>  (57) 
0

>  <NumAromaticCarbocycles>  (57) 
1

>  <NumAromaticHeterocycles>  (57) 
0

>  <NAR>  (57) 
1

>  <NumHAcceptors>  (57) 
2

>  <NumHDonors>  (57) 
1

>  <NumHeteroatoms>  (57) 
3

>  <NumRotatableBonds>  (57) 
2

>  <NumSaturatedCarbocycles>  (57) 
0

>  <NumSaturatedHeterocycles>  (57) 
0

>  <NumSaturatedRings>  (57) 
0

>  <RingCount>  (57) 
1

>  <MolLogP>  (57) 
0.2151

>  <MolMR>  (57) 
44.3736

>  <fr_Al_COO>  (57) 
0

>  <fr_Al_OH>  (57) 
0

>  <fr_Al_OH_noTert>  (57) 
0

>  <fr_ArN>  (57) 
0

>  <fr_Ar_COO>  (57) 
0

>  <fr_Ar_N>  (57) 
0

>  <fr_Ar_NH>  (57) 
0

>  <fr_Ar_OH>  (57) 
0

>  <fr_COO>  (57) 
0

>  <fr_COO2>  (57) 
0

>  <fr_C_O>  (57) 
1

>  <fr_C_O_noCOO>  (57) 
1

>  <fr_C_S>  (57) 
0

>  <fr_HOCCN>  (57) 
0

>  <fr_Imine>  (57) 
0

>  <fr_NH0>  (57) 
0

>  <fr_NH1>  (57) 
0

>  <fr_NH2>  (57) 
0

>  <fr_N_O>  (57) 
0

>  <fr_Ndealkylation1>  (57) 
0

>  <fr_Ndealkylation2>  (57) 
0

>  <fr_Nhpyrrole>  (57) 
0

>  <fr_SH>  (57) 
0

>  <fr_aldehyde>  (57) 
0

>  <fr_alkyl_carbamate>  (57) 
0

>  <fr_alkyl_halide>  (57) 
0

>  <fr_allylic_oxid>  (57) 
0

>  <fr_amide>  (57) 
0

>  <fr_amidine>  (57) 
0

>  <fr_aniline>  (57) 
0

>  <fr_aryl_methyl>  (57) 
0

>  <fr_azide>  (57) 
0

>  <fr_azo>  (57) 
0

>  <fr_barbitur>  (57) 
0

>  <fr_benzene>  (57) 
1

>  <fr_benzodiazepine>  (57) 
0

>  <fr_bicyclic>  (57) 
0

>  <fr_diazo>  (57) 
0

>  <fr_dihydropyridine>  (57) 
0

>  <fr_epoxide>  (57) 
0

>  <fr_ester>  (57) 
1

>  <fr_ether>  (57) 
1

>  <fr_furan>  (57) 
0

>  <fr_guanido>  (57) 
0

>  <fr_halogen>  (57) 
0

>  <fr_hdrzine>  (57) 
0

>  <fr_hdrzone>  (57) 
0

>  <fr_imidazole>  (57) 
0

>  <fr_imide>  (57) 
0

>  <fr_isocyan>  (57) 
0

>  <fr_isothiocyan>  (57) 
0

>  <fr_ketone>  (57) 
0

>  <fr_ketone_Topliss>  (57) 
0

>  <fr_lactam>  (57) 
0

>  <fr_lactone>  (57) 
0

>  <fr_methoxy>  (57) 
1

>  <fr_morpholine>  (57) 
0

>  <fr_nitrile>  (57) 
0

>  <fr_nitro>  (57) 
0

>  <fr_nitro_arom>  (57) 
0

>  <fr_nitro_arom_nonortho>  (57) 
0

>  <fr_nitroso>  (57) 
0

>  <fr_oxazole>  (57) 
0

>  <fr_oxime>  (57) 
0

>  <fr_para_hydroxylation>  (57) 
0

>  <fr_phenol>  (57) 
0

>  <fr_phenol_noOrthoHbond>  (57) 
0

>  <fr_phos_acid>  (57) 
0

>  <fr_phos_ester>  (57) 
0

>  <fr_piperdine>  (57) 
0

>  <fr_piperzine>  (57) 
0

>  <fr_priamide>  (57) 
0

>  <fr_prisulfonamd>  (57) 
0

>  <fr_pyridine>  (57) 
0

>  <fr_quatN>  (57) 
1

>  <fr_sulfide>  (57) 
0

>  <fr_sulfonamd>  (57) 
0

>  <fr_sulfone>  (57) 
0

>  <fr_term_acetylene>  (57) 
0

>  <fr_tetrazole>  (57) 
0

>  <fr_thiazole>  (57) 
0

>  <fr_thiocyan>  (57) 
0

>  <fr_thiophene>  (57) 
0

>  <fr_unbrch_alkane>  (57) 
0

>  <fr_urea>  (57) 
0

>  <NP-Likeness>  (57) 
-0.266043

$$$$
8G5
     RDKit          3D

  0  0  0  0  0  0  0  0  0  0999 V3000
M  V30 BEGIN CTAB
M  V30 COUNTS 33 35 0 0 0
M  V30 BEGIN ATOM
M  V30 1 C -1.617970 0.496220 2.173370 0
M  V30 2 C -0.539715 0.974335 1.429373 0
M  V30 3 C 0.672257 0.108142 1.373816 0 CFG=1
M  V30 4 C 1.091421 -0.386574 2.711341 0
M  V30 5 C 1.803969 -1.649028 2.383315 0
M  V30 6 O 2.919737 -2.115877 2.796603 0
M  V30 7 O 0.876132 -2.190359 1.469028 0
M  V30 8 C 0.492438 -1.139489 0.570590 0
M  V30 9 C -0.867147 -1.415949 0.065444 0
M  V30 10 C -0.940126 -2.361385 -1.066391 0
M  V30 11 C 0.226351 -3.265593 -1.263472 0
M  V30 12 C 1.555775 -2.667104 -0.919339 0
M  V30 13 C 1.416256 -1.159755 -0.650987 0
M  V30 14 N -0.726198 2.158614 0.848353 0
M  V30 15 C -1.655068 2.824951 0.885161 0
M  V30 16 N -1.834100 4.129913 0.233226 0
M  V30 17 S -2.872101 1.860908 1.962425 0
M  V30 18 H -1.893795 -0.362096 2.779622 0
M  V30 19 H 1.529365 0.685948 0.920311 0
M  V30 20 H 0.222719 -0.687847 3.334584 0
M  V30 21 H 1.768608 0.308823 3.253948 0
M  V30 22 H -1.495882 -1.793417 0.927490 0
M  V30 23 H -1.335117 -0.428753 -0.211915 0
M  V30 24 H -1.083453 -1.773925 -2.004892 0
M  V30 25 H -1.878709 -2.946909 -0.970053 0
M  V30 26 H 0.092452 -4.164233 -0.629197 0
M  V30 27 H 0.281110 -3.628647 -2.309792 0
M  V30 28 H 2.303737 -2.884501 -1.686541 0
M  V30 29 H 1.924730 -3.075785 0.043174 0
M  V30 30 H 2.403731 -0.749541 -0.435485 0
M  V30 31 H 0.907757 -0.722519 -1.533258 0
M  V30 32 H -2.106369 3.984494 -0.770933 0
M  V30 33 H -1.701816 5.054867 0.726190 0
M  V30 END ATOM
M  V30 BEGIN BOND
M  V30 1 2 1 2
M  V30 2 1 2 3
M  V30 3 1 3 4
M  V30 4 1 4 5
M  V30 5 2 5 6
M  V30 6 1 5 7
M  V30 7 1 7 8
M  V30 8 1 8 9
M  V30 9 1 9 10
M  V30 10 1 10 11
M  V30 11 1 11 12
M  V30 12 1 12 13
M  V30 13 1 2 14
M  V30 14 2 14 15
M  V30 15 1 15 16
M  V30 16 1 15 17
M  V30 17 1 17 1
M  V30 18 1 8 3
M  V30 19 1 13 8
M  V30 20 1 1 18
M  V30 21 1 3 19 CFG=3
M  V30 22 1 4 20
M  V30 23 1 4 21
M  V30 24 1 9 22
M  V30 25 1 9 23
M  V30 26 1 10 24
M  V30 27 1 10 25
M  V30 28 1 11 26
M  V30 29 1 11 27
M  V30 30 1 12 28
M  V30 31 1 12 29
M  V30 32 1 13 30
M  V30 33 1 13 31
M  V30 34 1 16 32
M  V30 35 1 16 33
M  V30 END BOND
M  V30 END CTAB
M  END
>  <Dataset>  (58) 
PDB

>  <Ligand_Instance>  (58) 
5N1G_8G5_A_403

>  <PDB_ID>  (58) 
5N1G

>  <Standardized_SMILES>  (58) 
[H]C1=C([C@@]2([H])C([H])([H])C(=O)OC23C([H])([H])C([H])([H])C([H])([H])C([H])([H])C3([H])[H])N=C(N([H])[H])S1

>  <Name>  (58) 
(4R)-4-(2-amino-1,3-thiazol-4-yl)-1-oxaspiro[4.5]decan-2-one

>  <Pocket>  (58) 
X

>  <ATP_Site>  (58) 
0.0

>  <Peripheral>  (58) 
1.0

>  <Num_H_Atoms_ProtBoundConf>  (58) 
16.0

>  <Num_Resolved_Atoms>  (58) 
17.0

>  <Num_Not_Resolved_Atoms>  (58) 
0.0

>  <2D_Mol_H>  (58) 
<rdkit.Chem.rdchem.Mol object at 0x72a238dc5a10>

>  <MW>  (58) 
252.339

>  <HBA>  (58) 
5

>  <HBD>  (58) 
1

>  <LogP>  (58) 
2.4587

>  <NRB>  (58) 
2

>  <TPSA>  (58) 
65.21

>  <Num_Heavy_Atoms>  (58) 
17

>  <Ro5>  (58) 
[True, True, True, True, True, True]

>  <Ro5_Fulfilled>  (58) 
True

>  <Ro3>  (58) 
[True, False, True, True]

>  <Ro3_Fulfilled>  (58) 
True

>  <Fsp3>  (58) 
0.666667

>  <Fsp3_0.42>  (58) 
True

>  <Fsp3_0.45>  (58) 
True

>  <Stereogenic_Carbons>  (58) 
1

>  <C_Atoms>  (58) 
12

>  <FCStereo>  (58) 
0.083333

>  <SPS>  (58) 
464

>  <nSPS>  (58) 
27.294118

>  <PBF>  (58) 
0.913896

>  <PBF_0.6>  (58) 
True

>  <nPBF>  (58) 
0.053759

>  <nPBF_0.016>  (58) 
True

>  <PMI1>  (58) 
686.635726

>  <PMI2>  (58) 
1798.787297

>  <PMI3>  (58) 
2078.211261

>  <NPR1>  (58) 
0.330397

>  <NPR2>  (58) 
0.865546

>  <Sum_NPR>  (58) 
1.195943

>  <Sum_NPR_1.07>  (58) 
True

>  <Sum_NPR_1.2>  (58) 
False

>  <MaxAbsEStateIndex>  (58) 
11.62917

>  <MaxEStateIndex>  (58) 
11.62917

>  <MinAbsEStateIndex>  (58) 
0.080119

>  <MinEStateIndex>  (58) 
-0.281898

>  <qed>  (58) 
0.779658

>  <MolWt>  (58) 
252.339

>  <HeavyAtomMolWt>  (58) 
236.211

>  <ExactMolWt>  (58) 
252.093249

>  <NumValenceElectrons>  (58) 
92

>  <NumRadicalElectrons>  (58) 
0

>  <MaxPartialCharge>  (58) 
0.306696

>  <MinPartialCharge>  (58) 
-0.458308

>  <MaxAbsPartialCharge>  (58) 
0.458308

>  <MinAbsPartialCharge>  (58) 
0.306696

>  <FpDensityMorgan1>  (58) 
1.411765

>  <FpDensityMorgan2>  (58) 
2.176471

>  <FpDensityMorgan3>  (58) 
2.823529

>  <BCUT2D_MWHI>  (58) 
32.13349

>  <BCUT2D_MWLOW>  (58) 
9.745613

>  <BCUT2D_CHGHI>  (58) 
2.504236

>  <BCUT2D_CHGLO>  (58) 
-2.356385

>  <BCUT2D_LOGPHI>  (58) 
2.487279

>  <BCUT2D_LOGPLOW>  (58) 
-2.362207

>  <BCUT2D_MRHI>  (58) 
7.130851

>  <BCUT2D_MRLOW>  (58) 
-0.150775

>  <AvgIpc>  (58) 
2.846868

>  <BalabanJ>  (58) 
1.930567

>  <BertzCT>  (58) 
437.468958

>  <Chi0>  (58) 
11.880469

>  <Chi0n>  (58) 
9.64665

>  <Chi0v>  (58) 
10.463147

>  <Chi1>  (58) 
8.195107

>  <Chi1n>  (58) 
6.123021

>  <Chi1v>  (58) 
7.002674

>  <Chi2n>  (58) 
4.966824

>  <Chi2v>  (58) 
5.856505

>  <Chi3n>  (58) 
3.919585

>  <Chi3v>  (58) 
4.611707

>  <Chi4n>  (58) 
3.127763

>  <Chi4v>  (58) 
3.74434

>  <HallKierAlpha>  (58) 
-1.1

>  <Ipc>  (58) 
13573.866611

>  <Kappa1>  (58) 
11.017006

>  <Kappa2>  (58) 
3.978426

>  <Kappa3>  (58) 
1.821013

>  <LabuteASA>  (58) 
104.179189

>  <PEOE_VSA1>  (58) 
10.47053

>  <PEOE_VSA10>  (58) 
5.601051

>  <PEOE_VSA11>  (58) 
5.131558

>  <PEOE_VSA12>  (58) 
0.0

>  <PEOE_VSA13>  (58) 
0.0

>  <PEOE_VSA14>  (58) 
5.969305

>  <PEOE_VSA2>  (58) 
4.794537

>  <PEOE_VSA3>  (58) 
4.983979

>  <PEOE_VSA4>  (58) 
0.0

>  <PEOE_VSA5>  (58) 
11.336786

>  <PEOE_VSA6>  (58) 
6.420822

>  <PEOE_VSA7>  (58) 
25.683286

>  <PEOE_VSA8>  (58) 
5.380063

>  <PEOE_VSA9>  (58) 
18.032656

>  <SMR_VSA1>  (58) 
9.5314

>  <SMR_VSA10>  (58) 
22.43765

>  <SMR_VSA2>  (58) 
0.0

>  <SMR_VSA3>  (58) 
4.983979

>  <SMR_VSA4>  (58) 
0.0

>  <SMR_VSA5>  (58) 
50.043887

>  <SMR_VSA6>  (58) 
5.733667

>  <SMR_VSA7>  (58) 
11.073991

>  <SMR_VSA8>  (58) 
0.0

>  <SMR_VSA9>  (58) 
0.0

>  <SlogP_VSA1>  (58) 
5.733667

>  <SlogP_VSA10>  (58) 
5.131558

>  <SlogP_VSA11>  (58) 
0.0

>  <SlogP_VSA12>  (58) 
11.336786

>  <SlogP_VSA2>  (58) 
16.554335

>  <SlogP_VSA3>  (58) 
9.5314

>  <SlogP_VSA4>  (58) 
0.0

>  <SlogP_VSA5>  (58) 
50.136764

>  <SlogP_VSA6>  (58) 
5.380063

>  <SlogP_VSA7>  (58) 
0.0

>  <SlogP_VSA8>  (58) 
0.0

>  <SlogP_VSA9>  (58) 
0.0

>  <EState_VSA1>  (58) 
0.0

>  <EState_VSA10>  (58) 
4.794537

>  <EState_VSA11>  (58) 
0.0

>  <EState_VSA2>  (58) 
17.488262

>  <EState_VSA3>  (58) 
11.55238

>  <EState_VSA4>  (58) 
31.377214

>  <EState_VSA5>  (58) 
17.757608

>  <EState_VSA6>  (58) 
0.0

>  <EState_VSA7>  (58) 
5.380063

>  <EState_VSA8>  (58) 
4.983979

>  <EState_VSA9>  (58) 
10.47053

>  <VSA_EState1>  (58) 
5.650953

>  <VSA_EState10>  (58) 
1.439622

>  <VSA_EState2>  (58) 
15.969944

>  <VSA_EState3>  (58) 
2.544911

>  <VSA_EState4>  (58) 
6.343274

>  <VSA_EState5>  (58) 
0.034557

>  <VSA_EState6>  (58) 
0.0

>  <VSA_EState7>  (58) 
5.933406

>  <VSA_EState8>  (58) 
0.0

>  <VSA_EState9>  (58) 
0.0

>  <FractionCSP3>  (58) 
0.666667

>  <HeavyAtomCount>  (58) 
17

>  <NHOHCount>  (58) 
2

>  <NOCount>  (58) 
4

>  <NumAliphaticCarbocycles>  (58) 
1

>  <NumAliphaticHeterocycles>  (58) 
1

>  <NumAliphaticRings>  (58) 
2

>  <NumAromaticCarbocycles>  (58) 
0

>  <NumAromaticHeterocycles>  (58) 
1

>  <NAR>  (58) 
1

>  <NumHAcceptors>  (58) 
5

>  <NumHDonors>  (58) 
1

>  <NumHeteroatoms>  (58) 
5

>  <NumRotatableBonds>  (58) 
1

>  <NumSaturatedCarbocycles>  (58) 
1

>  <NumSaturatedHeterocycles>  (58) 
1

>  <NumSaturatedRings>  (58) 
2

>  <RingCount>  (58) 
3

>  <MolLogP>  (58) 
2.4587

>  <MolMR>  (58) 
65.7924

>  <fr_Al_COO>  (58) 
0

>  <fr_Al_OH>  (58) 
0

>  <fr_Al_OH_noTert>  (58) 
0

>  <fr_ArN>  (58) 
1

>  <fr_Ar_COO>  (58) 
0

>  <fr_Ar_N>  (58) 
1

>  <fr_Ar_NH>  (58) 
0

>  <fr_Ar_OH>  (58) 
0

>  <fr_COO>  (58) 
0

>  <fr_COO2>  (58) 
0

>  <fr_C_O>  (58) 
1

>  <fr_C_O_noCOO>  (58) 
1

>  <fr_C_S>  (58) 
0

>  <fr_HOCCN>  (58) 
0

>  <fr_Imine>  (58) 
0

>  <fr_NH0>  (58) 
1

>  <fr_NH1>  (58) 
0

>  <fr_NH2>  (58) 
1

>  <fr_N_O>  (58) 
0

>  <fr_Ndealkylation1>  (58) 
0

>  <fr_Ndealkylation2>  (58) 
0

>  <fr_Nhpyrrole>  (58) 
0

>  <fr_SH>  (58) 
0

>  <fr_aldehyde>  (58) 
0

>  <fr_alkyl_carbamate>  (58) 
0

>  <fr_alkyl_halide>  (58) 
0

>  <fr_allylic_oxid>  (58) 
0

>  <fr_amide>  (58) 
0

>  <fr_amidine>  (58) 
0

>  <fr_aniline>  (58) 
1

>  <fr_aryl_methyl>  (58) 
0

>  <fr_azide>  (58) 
0

>  <fr_azo>  (58) 
0

>  <fr_barbitur>  (58) 
0

>  <fr_benzene>  (58) 
0

>  <fr_benzodiazepine>  (58) 
0

>  <fr_bicyclic>  (58) 
0

>  <fr_diazo>  (58) 
0

>  <fr_dihydropyridine>  (58) 
0

>  <fr_epoxide>  (58) 
0

>  <fr_ester>  (58) 
1

>  <fr_ether>  (58) 
1

>  <fr_furan>  (58) 
0

>  <fr_guanido>  (58) 
0

>  <fr_halogen>  (58) 
0

>  <fr_hdrzine>  (58) 
0

>  <fr_hdrzone>  (58) 
0

>  <fr_imidazole>  (58) 
0

>  <fr_imide>  (58) 
0

>  <fr_isocyan>  (58) 
0

>  <fr_isothiocyan>  (58) 
0

>  <fr_ketone>  (58) 
0

>  <fr_ketone_Topliss>  (58) 
0

>  <fr_lactam>  (58) 
0

>  <fr_lactone>  (58) 
0

>  <fr_methoxy>  (58) 
0

>  <fr_morpholine>  (58) 
0

>  <fr_nitrile>  (58) 
0

>  <fr_nitro>  (58) 
0

>  <fr_nitro_arom>  (58) 
0

>  <fr_nitro_arom_nonortho>  (58) 
0

>  <fr_nitroso>  (58) 
0

>  <fr_oxazole>  (58) 
0

>  <fr_oxime>  (58) 
0

>  <fr_para_hydroxylation>  (58) 
0

>  <fr_phenol>  (58) 
0

>  <fr_phenol_noOrthoHbond>  (58) 
0

>  <fr_phos_acid>  (58) 
0

>  <fr_phos_ester>  (58) 
0

>  <fr_piperdine>  (58) 
0

>  <fr_piperzine>  (58) 
0

>  <fr_priamide>  (58) 
0

>  <fr_prisulfonamd>  (58) 
0

>  <fr_pyridine>  (58) 
0

>  <fr_quatN>  (58) 
0

>  <fr_sulfide>  (58) 
0

>  <fr_sulfonamd>  (58) 
0

>  <fr_sulfone>  (58) 
0

>  <fr_term_acetylene>  (58) 
0

>  <fr_tetrazole>  (58) 
0

>  <fr_thiazole>  (58) 
1

>  <fr_thiocyan>  (58) 
0

>  <fr_thiophene>  (58) 
0

>  <fr_unbrch_alkane>  (58) 
0

>  <fr_urea>  (58) 
0

>  <NP-Likeness>  (58) 
0.273806

$$$$
8G8
     RDKit          3D

  0  0  0  0  0  0  0  0  0  0999 V3000
M  V30 BEGIN CTAB
M  V30 COUNTS 16 17 0 0 0
M  V30 BEGIN ATOM
M  V30 1 C -0.255087 -1.511541 1.810945 0
M  V30 2 N 0.688579 -2.419124 2.103504 0
M  V30 3 C 1.989405 -2.153649 1.800141 0
M  V30 4 Cl 3.103458 -3.416557 2.234725 0
M  V30 5 N 2.332733 -0.997143 1.213841 0
M  V30 6 C 1.374797 -0.072109 0.915121 0
M  V30 7 C 0.030429 -0.306750 1.210131 0
M  V30 8 N -0.623155 0.797574 0.785837 0
M  V30 9 C 0.294677 1.627780 0.272233 0
M  V30 10 N 1.533301 1.138027 0.329363 0
M  V30 11 C 2.689688 1.826250 -0.151033 0
M  V30 12 H -1.307762 -1.670834 2.030558 0
M  V30 13 H -0.121356 2.567840 -0.108336 0
M  V30 14 H 2.714003 2.835965 0.326517 0
M  V30 15 H 2.655208 1.966450 -1.268929 0
M  V30 16 H 3.608994 1.323600 0.166931 0
M  V30 END ATOM
M  V30 BEGIN BOND
M  V30 1 2 1 2
M  V30 2 1 2 3
M  V30 3 1 3 4
M  V30 4 2 3 5
M  V30 5 1 5 6
M  V30 6 2 6 7
M  V30 7 1 7 8
M  V30 8 2 8 9
M  V30 9 1 9 10
M  V30 10 1 10 11
M  V30 11 1 7 1
M  V30 12 1 10 6
M  V30 13 1 1 12
M  V30 14 1 9 13
M  V30 15 1 11 14
M  V30 16 1 11 15
M  V30 17 1 11 16
M  V30 END BOND
M  V30 END CTAB
M  END
>  <Dataset>  (59) 
PDB

>  <Ligand_Instance>  (59) 
5N1N_8G8_A_402

>  <PDB_ID>  (59) 
5N1N

>  <Standardized_SMILES>  (59) 
[H]C1=NC(Cl)=NC2=C1N=C([H])N2C([H])([H])[H]

>  <Name>  (59) 
2-chloranyl-9-methyl-purine

>  <Pocket>  (59) 
X

>  <ATP_Site>  (59) 
0.0

>  <Peripheral>  (59) 
1.0

>  <Num_H_Atoms_ProtBoundConf>  (59) 
5.0

>  <Num_Resolved_Atoms>  (59) 
11.0

>  <Num_Not_Resolved_Atoms>  (59) 
0.0

>  <2D_Mol_H>  (59) 
<rdkit.Chem.rdchem.Mol object at 0x72a238dc5af0>

>  <MW>  (59) 
168.587

>  <HBA>  (59) 
4

>  <HBD>  (59) 
0

>  <LogP>  (59) 
1.0167

>  <NRB>  (59) 
1

>  <TPSA>  (59) 
43.6

>  <Num_Heavy_Atoms>  (59) 
11

>  <Ro5>  (59) 
[True, True, True, True, True, True]

>  <Ro5_Fulfilled>  (59) 
True

>  <Ro3>  (59) 
[True, False, True, True]

>  <Ro3_Fulfilled>  (59) 
True

>  <Fsp3>  (59) 
0.166667

>  <Fsp3_0.42>  (59) 
False

>  <Fsp3_0.45>  (59) 
False

>  <Stereogenic_Carbons>  (59) 
0

>  <C_Atoms>  (59) 
6

>  <FCStereo>  (59) 
0.0

>  <SPS>  (59) 
118

>  <nSPS>  (59) 
10.727273

>  <PBF>  (59) 
0.128264

>  <PBF_0.6>  (59) 
False

>  <nPBF>  (59) 
0.01166

>  <nPBF_0.016>  (59) 
False

>  <PMI1>  (59) 
234.234086

>  <PMI2>  (59) 
769.865732

>  <PMI3>  (59) 
1000.728637

>  <NPR1>  (59) 
0.234064

>  <NPR2>  (59) 
0.769305

>  <Sum_NPR>  (59) 
1.003369

>  <Sum_NPR_1.07>  (59) 
False

>  <Sum_NPR_1.2>  (59) 
False

>  <MaxAbsEStateIndex>  (59) 
5.584228

>  <MaxEStateIndex>  (59) 
5.584228

>  <MinAbsEStateIndex>  (59) 
0.251019

>  <MinEStateIndex>  (59) 
0.251019

>  <qed>  (59) 
0.551941

>  <MolWt>  (59) 
168.587

>  <HeavyAtomMolWt>  (59) 
163.547

>  <ExactMolWt>  (59) 
168.020274

>  <NumValenceElectrons>  (59) 
56

>  <NumRadicalElectrons>  (59) 
0

>  <MaxPartialCharge>  (59) 
0.223946

>  <MinPartialCharge>  (59) 
-0.3183

>  <MaxAbsPartialCharge>  (59) 
0.3183

>  <MinAbsPartialCharge>  (59) 
0.223946

>  <FpDensityMorgan1>  (59) 
1.454545

>  <FpDensityMorgan2>  (59) 
2.272727

>  <FpDensityMorgan3>  (59) 
3.090909

>  <BCUT2D_MWHI>  (59) 
35.495701

>  <BCUT2D_MWLOW>  (59) 
10.556672

>  <BCUT2D_CHGHI>  (59) 
2.004339

>  <BCUT2D_CHGLO>  (59) 
-1.909215

>  <BCUT2D_LOGPHI>  (59) 
2.085585

>  <BCUT2D_LOGPLOW>  (59) 
-1.885078

>  <BCUT2D_MRHI>  (59) 
6.280278

>  <BCUT2D_MRLOW>  (59) 
0.927901

>  <AvgIpc>  (59) 
2.331244

>  <BalabanJ>  (59) 
2.873086

>  <BertzCT>  (59) 
394.381655

>  <Chi0>  (59) 
7.844935

>  <Chi0n>  (59) 
5.821519

>  <Chi0v>  (59) 
6.577448

>  <Chi1>  (59) 
5.270857

>  <Chi1n>  (59) 
3.067502

>  <Chi1v>  (59) 
3.445466

>  <Chi2n>  (59) 
2.203355

>  <Chi2v>  (59) 
2.541417

>  <Chi3n>  (59) 
1.424737

>  <Chi3v>  (59) 
1.606842

>  <Chi4n>  (59) 
0.899784

>  <Chi4v>  (59) 
1.028633

>  <HallKierAlpha>  (59) 
-1.16

>  <Ipc>  (59) 
515.204904

>  <Kappa1>  (59) 
6.543966

>  <Kappa2>  (59) 
2.165579

>  <Kappa3>  (59) 
0.95229

>  <LabuteASA>  (59) 
67.859352

>  <PEOE_VSA1>  (59) 
4.5671

>  <PEOE_VSA10>  (59) 
5.516701

>  <PEOE_VSA11>  (59) 
5.647177

>  <PEOE_VSA12>  (59) 
5.283586

>  <PEOE_VSA13>  (59) 
0.0

>  <PEOE_VSA14>  (59) 
0.0

>  <PEOE_VSA2>  (59) 
0.0

>  <PEOE_VSA3>  (59) 
9.967957

>  <PEOE_VSA4>  (59) 
4.983979

>  <PEOE_VSA5>  (59) 
0.0

>  <PEOE_VSA6>  (59) 
0.0

>  <PEOE_VSA7>  (59) 
11.60094

>  <PEOE_VSA8>  (59) 
7.047672

>  <PEOE_VSA9>  (59) 
12.524164

>  <SMR_VSA1>  (59) 
0.0

>  <SMR_VSA10>  (59) 
22.764818

>  <SMR_VSA2>  (59) 
0.0

>  <SMR_VSA3>  (59) 
19.519035

>  <SMR_VSA4>  (59) 
7.047672

>  <SMR_VSA5>  (59) 
0.0

>  <SMR_VSA6>  (59) 
0.0

>  <SMR_VSA7>  (59) 
17.80775

>  <SMR_VSA8>  (59) 
0.0

>  <SMR_VSA9>  (59) 
0.0

>  <SlogP_VSA1>  (59) 
0.0

>  <SlogP_VSA10>  (59) 
0.0

>  <SlogP_VSA11>  (59) 
0.0

>  <SlogP_VSA12>  (59) 
11.60094

>  <SlogP_VSA2>  (59) 
19.519035

>  <SlogP_VSA3>  (59) 
7.047672

>  <SlogP_VSA4>  (59) 
0.0

>  <SlogP_VSA5>  (59) 
0.0

>  <SlogP_VSA6>  (59) 
12.524164

>  <SlogP_VSA7>  (59) 
5.283586

>  <SlogP_VSA8>  (59) 
11.163878

>  <SlogP_VSA9>  (59) 
0.0

>  <EState_VSA1>  (59) 
0.0

>  <EState_VSA10>  (59) 
0.0

>  <EState_VSA11>  (59) 
0.0

>  <EState_VSA2>  (59) 
5.283586

>  <EState_VSA3>  (59) 
0.0

>  <EState_VSA4>  (59) 
11.163878

>  <EState_VSA5>  (59) 
0.0

>  <EState_VSA6>  (59) 
17.091263

>  <EState_VSA7>  (59) 
7.047672

>  <EState_VSA8>  (59) 
14.951936

>  <EState_VSA9>  (59) 
11.60094

>  <VSA_EState1>  (59) 
1.794537

>  <VSA_EState10>  (59) 
5.584228

>  <VSA_EState2>  (59) 
11.827778

>  <VSA_EState3>  (59) 
0.251019

>  <VSA_EState4>  (59) 
1.515648

>  <VSA_EState5>  (59) 
0.0

>  <VSA_EState6>  (59) 
0.0

>  <VSA_EState7>  (59) 
3.278117

>  <VSA_EState8>  (59) 
0.0

>  <VSA_EState9>  (59) 
1.859784

>  <FractionCSP3>  (59) 
0.166667

>  <HeavyAtomCount>  (59) 
11

>  <NHOHCount>  (59) 
0

>  <NOCount>  (59) 
4

>  <NumAliphaticCarbocycles>  (59) 
0

>  <NumAliphaticHeterocycles>  (59) 
0

>  <NumAliphaticRings>  (59) 
0

>  <NumAromaticCarbocycles>  (59) 
0

>  <NumAromaticHeterocycles>  (59) 
2

>  <NAR>  (59) 
2

>  <NumHAcceptors>  (59) 
4

>  <NumHDonors>  (59) 
0

>  <NumHeteroatoms>  (59) 
5

>  <NumRotatableBonds>  (59) 
0

>  <NumSaturatedCarbocycles>  (59) 
0

>  <NumSaturatedHeterocycles>  (59) 
0

>  <NumSaturatedRings>  (59) 
0

>  <RingCount>  (59) 
2

>  <MolLogP>  (59) 
1.0167

>  <MolMR>  (59) 
41.314

>  <fr_Al_COO>  (59) 
0

>  <fr_Al_OH>  (59) 
0

>  <fr_Al_OH_noTert>  (59) 
0

>  <fr_ArN>  (59) 
0

>  <fr_Ar_COO>  (59) 
0

>  <fr_Ar_N>  (59) 
4

>  <fr_Ar_NH>  (59) 
0

>  <fr_Ar_OH>  (59) 
0

>  <fr_COO>  (59) 
0

>  <fr_COO2>  (59) 
0

>  <fr_C_O>  (59) 
0

>  <fr_C_O_noCOO>  (59) 
0

>  <fr_C_S>  (59) 
0

>  <fr_HOCCN>  (59) 
0

>  <fr_Imine>  (59) 
0

>  <fr_NH0>  (59) 
4

>  <fr_NH1>  (59) 
0

>  <fr_NH2>  (59) 
0

>  <fr_N_O>  (59) 
0

>  <fr_Ndealkylation1>  (59) 
0

>  <fr_Ndealkylation2>  (59) 
0

>  <fr_Nhpyrrole>  (59) 
0

>  <fr_SH>  (59) 
0

>  <fr_aldehyde>  (59) 
0

>  <fr_alkyl_carbamate>  (59) 
0

>  <fr_alkyl_halide>  (59) 
0

>  <fr_allylic_oxid>  (59) 
0

>  <fr_amide>  (59) 
0

>  <fr_amidine>  (59) 
0

>  <fr_aniline>  (59) 
0

>  <fr_aryl_methyl>  (59) 
1

>  <fr_azide>  (59) 
0

>  <fr_azo>  (59) 
0

>  <fr_barbitur>  (59) 
0

>  <fr_benzene>  (59) 
0

>  <fr_benzodiazepine>  (59) 
0

>  <fr_bicyclic>  (59) 
1

>  <fr_diazo>  (59) 
0

>  <fr_dihydropyridine>  (59) 
0

>  <fr_epoxide>  (59) 
0

>  <fr_ester>  (59) 
0

>  <fr_ether>  (59) 
0

>  <fr_furan>  (59) 
0

>  <fr_guanido>  (59) 
0

>  <fr_halogen>  (59) 
1

>  <fr_hdrzine>  (59) 
0

>  <fr_hdrzone>  (59) 
0

>  <fr_imidazole>  (59) 
1

>  <fr_imide>  (59) 
0

>  <fr_isocyan>  (59) 
0

>  <fr_isothiocyan>  (59) 
0

>  <fr_ketone>  (59) 
0

>  <fr_ketone_Topliss>  (59) 
0

>  <fr_lactam>  (59) 
0

>  <fr_lactone>  (59) 
0

>  <fr_methoxy>  (59) 
0

>  <fr_morpholine>  (59) 
0

>  <fr_nitrile>  (59) 
0

>  <fr_nitro>  (59) 
0

>  <fr_nitro_arom>  (59) 
0

>  <fr_nitro_arom_nonortho>  (59) 
0

>  <fr_nitroso>  (59) 
0

>  <fr_oxazole>  (59) 
0

>  <fr_oxime>  (59) 
0

>  <fr_para_hydroxylation>  (59) 
0

>  <fr_phenol>  (59) 
0

>  <fr_phenol_noOrthoHbond>  (59) 
0

>  <fr_phos_acid>  (59) 
0

>  <fr_phos_ester>  (59) 
0

>  <fr_piperdine>  (59) 
0

>  <fr_piperzine>  (59) 
0

>  <fr_priamide>  (59) 
0

>  <fr_prisulfonamd>  (59) 
0

>  <fr_pyridine>  (59) 
0

>  <fr_quatN>  (59) 
0

>  <fr_sulfide>  (59) 
0

>  <fr_sulfonamd>  (59) 
0

>  <fr_sulfone>  (59) 
0

>  <fr_term_acetylene>  (59) 
0

>  <fr_tetrazole>  (59) 
0

>  <fr_thiazole>  (59) 
0

>  <fr_thiocyan>  (59) 
0

>  <fr_thiophene>  (59) 
0

>  <fr_unbrch_alkane>  (59) 
0

>  <fr_urea>  (59) 
0

>  <NP-Likeness>  (59) 
-1.12318

$$$$
8GB
     RDKit          3D

  0  0  0  0  0  0  0  0  0  0999 V3000
M  V30 BEGIN CTAB
M  V30 COUNTS 21 21 0 0 0
M  V30 BEGIN ATOM
M  V30 1 O 2.168098 1.540977 1.016917 0
M  V30 2 C 1.311865 0.440766 1.037991 0
M  V30 3 C 1.553185 -0.552625 1.950671 0
M  V30 4 C 2.700808 -0.455817 2.891641 0
M  V30 5 Cl 2.277117 0.708787 4.188416 0
M  V30 6 C 0.741305 -1.663503 2.017281 0
M  V30 7 C -0.323702 -1.749115 1.139305 0
M  V30 8 Cl -1.360564 -3.161103 1.227184 0
M  V30 9 C -0.572456 -0.744211 0.211671 0
M  V30 10 C 0.254064 0.349053 0.169951 0
M  V30 11 C -0.000516 1.398101 -0.785427 0
M  V30 12 O 0.746906 2.422726 -0.834851 0
M  V30 13 C -1.137257 1.320809 -1.738275 0
M  V30 14 H 1.996636 2.326447 1.642720 0
M  V30 15 H 2.919236 -1.459890 3.327931 0
M  V30 16 H 3.577766 -0.050508 2.333761 0
M  V30 17 H 0.926902 -2.455548 2.731409 0
M  V30 18 H -1.426538 -0.905109 -0.424445 0
M  V30 19 H -1.374380 0.298851 -2.073791 0
M  V30 20 H -0.889037 1.934957 -2.629213 0
M  V30 21 H -2.041599 1.741119 -1.232291 0
M  V30 END ATOM
M  V30 BEGIN BOND
M  V30 1 1 1 2
M  V30 2 2 2 3
M  V30 3 1 3 4
M  V30 4 1 4 5
M  V30 5 1 3 6
M  V30 6 2 6 7
M  V30 7 1 7 8
M  V30 8 1 7 9
M  V30 9 2 9 10
M  V30 10 1 10 11
M  V30 11 2 11 12
M  V30 12 1 11 13
M  V30 13 1 10 2
M  V30 14 1 1 14
M  V30 15 1 4 15
M  V30 16 1 4 16
M  V30 17 1 6 17
M  V30 18 1 9 18
M  V30 19 1 13 19
M  V30 20 1 13 20
M  V30 21 1 13 21
M  V30 END BOND
M  V30 END CTAB
M  END
>  <Dataset>  (60) 
PDB

>  <Ligand_Instance>  (60) 
5N1O_8GB_A_402

>  <PDB_ID>  (60) 
5N1O

>  <Standardized_SMILES>  (60) 
[H]OC1=C(C([H])([H])Cl)C([H])=C(Cl)C([H])=C1C(=O)C([H])([H])[H]

>  <Name>  (60) 
1-[5-chloranyl-3-(chloromethyl)-2-oxidanyl-phenyl]ethanone

>  <Pocket>  (60) 
A

>  <ATP_Site>  (60) 
1.0

>  <Peripheral>  (60) 
0.0

>  <Num_H_Atoms_ProtBoundConf>  (60) 
8.0

>  <Num_Resolved_Atoms>  (60) 
13.0

>  <Num_Not_Resolved_Atoms>  (60) 
0.0

>  <2D_Mol_H>  (60) 
<rdkit.Chem.rdchem.Mol object at 0x72a238dc5bd0>

>  <MW>  (60) 
219.067

>  <HBA>  (60) 
2

>  <HBD>  (60) 
1

>  <LogP>  (60) 
2.987

>  <NRB>  (60) 
4

>  <TPSA>  (60) 
37.3

>  <Num_Heavy_Atoms>  (60) 
13

>  <Ro5>  (60) 
[True, True, True, True, True, True]

>  <Ro5_Fulfilled>  (60) 
True

>  <Ro3>  (60) 
[True, True, True, True]

>  <Ro3_Fulfilled>  (60) 
True

>  <Fsp3>  (60) 
0.222222

>  <Fsp3_0.42>  (60) 
False

>  <Fsp3_0.45>  (60) 
False

>  <Stereogenic_Carbons>  (60) 
0

>  <C_Atoms>  (60) 
9

>  <FCStereo>  (60) 
0.0

>  <SPS>  (60) 
131

>  <nSPS>  (60) 
10.076923

>  <PBF>  (60) 
0.328832

>  <PBF_0.6>  (60) 
False

>  <nPBF>  (60) 
0.025295

>  <nPBF_0.016>  (60) 
True

>  <PMI1>  (60) 
817.410141

>  <PMI2>  (60) 
972.672141

>  <PMI3>  (60) 
1702.394225

>  <NPR1>  (60) 
0.480153

>  <NPR2>  (60) 
0.571355

>  <Sum_NPR>  (60) 
1.051509

>  <Sum_NPR_1.07>  (60) 
False

>  <Sum_NPR_1.2>  (60) 
False

>  <MaxAbsEStateIndex>  (60) 
11.024852

>  <MaxEStateIndex>  (60) 
11.024852

>  <MinAbsEStateIndex>  (60) 
0.076944

>  <MinEStateIndex>  (60) 
-0.230216

>  <qed>  (60) 
0.612701

>  <MolWt>  (60) 
219.067

>  <HeavyAtomMolWt>  (60) 
211.003

>  <ExactMolWt>  (60) 
217.990135

>  <NumValenceElectrons>  (60) 
70

>  <NumRadicalElectrons>  (60) 
0

>  <MaxPartialCharge>  (60) 
0.163079

>  <MinPartialCharge>  (60) 
-0.506859

>  <MaxAbsPartialCharge>  (60) 
0.506859

>  <MinAbsPartialCharge>  (60) 
0.163079

>  <FpDensityMorgan1>  (60) 
1.538462

>  <FpDensityMorgan2>  (60) 
2.153846

>  <FpDensityMorgan3>  (60) 
2.615385

>  <BCUT2D_MWHI>  (60) 
35.49677

>  <BCUT2D_MWLOW>  (60) 
10.07235

>  <BCUT2D_CHGHI>  (60) 
2.112151

>  <BCUT2D_CHGLO>  (60) 
-2.053191

>  <BCUT2D_LOGPHI>  (60) 
2.280281

>  <BCUT2D_LOGPLOW>  (60) 
-1.948897

>  <BCUT2D_MRHI>  (60) 
6.30935

>  <BCUT2D_MRLOW>  (60) 
0.101033

>  <AvgIpc>  (60) 
2.075817

>  <BalabanJ>  (60) 
3.351866

>  <BertzCT>  (60) 
347.713093

>  <Chi0>  (60) 
10.008072

>  <Chi0n>  (60) 
6.973198

>  <Chi0v>  (60) 
8.485056

>  <Chi1>  (60) 
6.057749

>  <Chi1n>  (60) 
3.642228

>  <Chi1v>  (60) 
4.554715

>  <Chi2n>  (60) 
2.650897

>  <Chi2v>  (60) 
3.354594

>  <Chi3n>  (60) 
1.676889

>  <Chi3v>  (60) 
2.183041

>  <Chi4n>  (60) 
1.025929

>  <Chi4v>  (60) 
1.470473

>  <HallKierAlpha>  (60) 
-0.73

>  <Ipc>  (60) 
701.626169

>  <Kappa1>  (60) 
10.3515

>  <Kappa2>  (60) 
3.985475

>  <Kappa3>  (60) 
2.140664

>  <LabuteASA>  (60) 
86.088518

>  <PEOE_VSA1>  (60) 
5.106527

>  <PEOE_VSA10>  (60) 
5.749512

>  <PEOE_VSA11>  (60) 
5.783245

>  <PEOE_VSA12>  (60) 
0.0

>  <PEOE_VSA13>  (60) 
0.0

>  <PEOE_VSA14>  (60) 
0.0

>  <PEOE_VSA2>  (60) 
4.794537

>  <PEOE_VSA3>  (60) 
0.0

>  <PEOE_VSA4>  (60) 
0.0

>  <PEOE_VSA5>  (60) 
11.60094

>  <PEOE_VSA6>  (60) 
11.60094

>  <PEOE_VSA7>  (60) 
19.056471

>  <PEOE_VSA8>  (60) 
10.586085

>  <PEOE_VSA9>  (60) 
11.443455

>  <SMR_VSA1>  (60) 
9.901065

>  <SMR_VSA10>  (60) 
28.985125

>  <SMR_VSA2>  (60) 
0.0

>  <SMR_VSA3>  (60) 
0.0

>  <SMR_VSA4>  (60) 
0.0

>  <SMR_VSA5>  (60) 
12.803741

>  <SMR_VSA6>  (60) 
0.0

>  <SMR_VSA7>  (60) 
28.28227

>  <SMR_VSA8>  (60) 
0.0

>  <SMR_VSA9>  (60) 
5.749512

>  <SlogP_VSA1>  (60) 
0.0

>  <SlogP_VSA10>  (60) 
0.0

>  <SlogP_VSA11>  (60) 
5.749512

>  <SlogP_VSA12>  (60) 
23.20188

>  <SlogP_VSA2>  (60) 
10.889772

>  <SlogP_VSA3>  (60) 
5.880003

>  <SlogP_VSA4>  (60) 
0.0

>  <SlogP_VSA5>  (60) 
22.845177

>  <SlogP_VSA6>  (60) 
12.132734

>  <SlogP_VSA7>  (60) 
5.022633

>  <SlogP_VSA8>  (60) 
0.0

>  <SlogP_VSA9>  (60) 
0.0

>  <EState_VSA1>  (60) 
0.0

>  <EState_VSA10>  (60) 
9.901065

>  <EState_VSA11>  (60) 
0.0

>  <EState_VSA2>  (60) 
22.976212

>  <EState_VSA3>  (60) 
10.586085

>  <EState_VSA4>  (60) 
0.0

>  <EState_VSA5>  (60) 
19.056471

>  <EState_VSA6>  (60) 
0.0

>  <EState_VSA7>  (60) 
0.0

>  <EState_VSA8>  (60) 
0.0

>  <EState_VSA9>  (60) 
23.20188

>  <VSA_EState1>  (60) 
0.0

>  <VSA_EState10>  (60) 
11.273726

>  <VSA_EState2>  (60) 
11.024852

>  <VSA_EState3>  (60) 
9.921265

>  <VSA_EState4>  (60) 
0.682886

>  <VSA_EState5>  (60) 
-0.17554

>  <VSA_EState6>  (60) 
2.963889

>  <VSA_EState7>  (60) 
0.0

>  <VSA_EState8>  (60) 
1.364478

>  <VSA_EState9>  (60) 
0.0

>  <FractionCSP3>  (60) 
0.222222

>  <HeavyAtomCount>  (60) 
13

>  <NHOHCount>  (60) 
1

>  <NOCount>  (60) 
2

>  <NumAliphaticCarbocycles>  (60) 
0

>  <NumAliphaticHeterocycles>  (60) 
0

>  <NumAliphaticRings>  (60) 
0

>  <NumAromaticCarbocycles>  (60) 
1

>  <NumAromaticHeterocycles>  (60) 
0

>  <NAR>  (60) 
1

>  <NumHAcceptors>  (60) 
2

>  <NumHDonors>  (60) 
1

>  <NumHeteroatoms>  (60) 
4

>  <NumRotatableBonds>  (60) 
2

>  <NumSaturatedCarbocycles>  (60) 
0

>  <NumSaturatedHeterocycles>  (60) 
0

>  <NumSaturatedRings>  (60) 
0

>  <RingCount>  (60) 
1

>  <MolLogP>  (60) 
2.987

>  <MolMR>  (60) 
52.6783

>  <fr_Al_COO>  (60) 
0

>  <fr_Al_OH>  (60) 
0

>  <fr_Al_OH_noTert>  (60) 
0

>  <fr_ArN>  (60) 
0

>  <fr_Ar_COO>  (60) 
0

>  <fr_Ar_N>  (60) 
0

>  <fr_Ar_NH>  (60) 
0

>  <fr_Ar_OH>  (60) 
1

>  <fr_COO>  (60) 
0

>  <fr_COO2>  (60) 
0

>  <fr_C_O>  (60) 
1

>  <fr_C_O_noCOO>  (60) 
1

>  <fr_C_S>  (60) 
0

>  <fr_HOCCN>  (60) 
0

>  <fr_Imine>  (60) 
0

>  <fr_NH0>  (60) 
0

>  <fr_NH1>  (60) 
0

>  <fr_NH2>  (60) 
0

>  <fr_N_O>  (60) 
0

>  <fr_Ndealkylation1>  (60) 
0

>  <fr_Ndealkylation2>  (60) 
0

>  <fr_Nhpyrrole>  (60) 
0

>  <fr_SH>  (60) 
0

>  <fr_aldehyde>  (60) 
0

>  <fr_alkyl_carbamate>  (60) 
0

>  <fr_alkyl_halide>  (60) 
1

>  <fr_allylic_oxid>  (60) 
0

>  <fr_amide>  (60) 
0

>  <fr_amidine>  (60) 
0

>  <fr_aniline>  (60) 
0

>  <fr_aryl_methyl>  (60) 
0

>  <fr_azide>  (60) 
0

>  <fr_azo>  (60) 
0

>  <fr_barbitur>  (60) 
0

>  <fr_benzene>  (60) 
1

>  <fr_benzodiazepine>  (60) 
0

>  <fr_bicyclic>  (60) 
0

>  <fr_diazo>  (60) 
0

>  <fr_dihydropyridine>  (60) 
0

>  <fr_epoxide>  (60) 
0

>  <fr_ester>  (60) 
0

>  <fr_ether>  (60) 
0

>  <fr_furan>  (60) 
0

>  <fr_guanido>  (60) 
0

>  <fr_halogen>  (60) 
2

>  <fr_hdrzine>  (60) 
0

>  <fr_hdrzone>  (60) 
0

>  <fr_imidazole>  (60) 
0

>  <fr_imide>  (60) 
0

>  <fr_isocyan>  (60) 
0

>  <fr_isothiocyan>  (60) 
0

>  <fr_ketone>  (60) 
1

>  <fr_ketone_Topliss>  (60) 
1

>  <fr_lactam>  (60) 
0

>  <fr_lactone>  (60) 
0

>  <fr_methoxy>  (60) 
0

>  <fr_morpholine>  (60) 
0

>  <fr_nitrile>  (60) 
0

>  <fr_nitro>  (60) 
0

>  <fr_nitro_arom>  (60) 
0

>  <fr_nitro_arom_nonortho>  (60) 
0

>  <fr_nitroso>  (60) 
0

>  <fr_oxazole>  (60) 
0

>  <fr_oxime>  (60) 
0

>  <fr_para_hydroxylation>  (60) 
0

>  <fr_phenol>  (60) 
1

>  <fr_phenol_noOrthoHbond>  (60) 
1

>  <fr_phos_acid>  (60) 
0

>  <fr_phos_ester>  (60) 
0

>  <fr_piperdine>  (60) 
0

>  <fr_piperzine>  (60) 
0

>  <fr_priamide>  (60) 
0

>  <fr_prisulfonamd>  (60) 
0

>  <fr_pyridine>  (60) 
0

>  <fr_quatN>  (60) 
0

>  <fr_sulfide>  (60) 
0

>  <fr_sulfonamd>  (60) 
0

>  <fr_sulfone>  (60) 
0

>  <fr_term_acetylene>  (60) 
0

>  <fr_tetrazole>  (60) 
0

>  <fr_thiazole>  (60) 
0

>  <fr_thiocyan>  (60) 
0

>  <fr_thiophene>  (60) 
0

>  <fr_unbrch_alkane>  (60) 
0

>  <fr_urea>  (60) 
0

>  <NP-Likeness>  (60) 
-0.402667

$$$$
8JT
     RDKit          3D

  0  0  0  0  0  0  0  0  0  0999 V3000
M  V30 BEGIN CTAB
M  V30 COUNTS 34 36 0 0 0
M  V30 BEGIN ATOM
M  V30 1 C -0.838543 2.152951 2.786482 0
M  V30 2 C -0.966586 0.923257 2.181576 0
M  V30 3 C -0.512878 0.675064 0.883237 0
M  V30 4 C -0.655306 -0.666486 0.230104 0
M  V30 5 N 0.523410 -1.463256 0.522600 0 CHG=1 VAL=4
M  V30 6 C 0.801913 -2.433546 -0.494483 0
M  V30 7 C 1.497377 -3.638231 0.127808 0
M  V30 8 C 0.462079 -4.735273 0.227884 0
M  V30 9 C -0.853098 -4.026304 -0.047018 0
M  V30 10 C -0.412898 -3.050501 -1.119610 0
M  V30 11 C 0.088385 1.739584 0.203997 0
M  V30 12 C 0.226729 2.969268 0.783624 0
M  V30 13 C -0.237679 3.186054 2.084727 0
M  V30 14 O 0.058908 4.529256 2.361039 0
M  V30 15 C 0.147787 5.196835 1.098905 0
M  V30 16 O 0.783758 4.174902 0.318316 0
M  V30 17 H -1.192698 2.321314 3.781040 0
M  V30 18 H -1.442863 0.102452 2.736453 0
M  V30 19 H -1.592771 -1.148375 0.524431 0
M  V30 20 H -0.630403 -0.465396 -0.879580 0
M  V30 21 H 1.324892 -0.778016 0.533607 0
M  V30 22 H 0.496963 -1.856674 1.488801 0
M  V30 23 H 1.458252 -1.993250 -1.275084 0
M  V30 24 H 1.827154 -3.408544 1.163752 0
M  V30 25 H 2.328867 -3.947359 -0.515568 0
M  V30 26 H 0.635713 -5.524299 -0.538632 0
M  V30 27 H 0.402914 -5.190541 1.234644 0
M  V30 28 H -1.202047 -3.502893 0.858449 0
M  V30 29 H -1.621884 -4.720714 -0.438123 0
M  V30 30 H -0.046214 -3.657036 -1.987506 0
M  V30 31 H -1.206092 -2.350519 -1.406120 0
M  V30 32 H 0.448978 1.567670 -0.808959 0
M  V30 33 H 0.766980 6.100583 1.140277 0
M  V30 34 H -0.870706 5.374540 0.697174 0
M  V30 END ATOM
M  V30 BEGIN BOND
M  V30 1 2 1 2
M  V30 2 1 2 3
M  V30 3 1 3 4
M  V30 4 1 4 5
M  V30 5 1 5 6
M  V30 6 1 6 7
M  V30 7 1 7 8
M  V30 8 1 8 9
M  V30 9 1 9 10
M  V30 10 2 3 11
M  V30 11 1 11 12
M  V30 12 2 12 13
M  V30 13 1 13 14
M  V30 14 1 14 15
M  V30 15 1 15 16
M  V30 16 1 13 1
M  V30 17 1 10 6
M  V30 18 1 16 12
M  V30 19 1 1 17
M  V30 20 1 2 18
M  V30 21 1 4 19
M  V30 22 1 4 20
M  V30 23 1 5 21
M  V30 24 1 5 22
M  V30 25 1 6 23
M  V30 26 1 7 24
M  V30 27 1 7 25
M  V30 28 1 8 26
M  V30 29 1 8 27
M  V30 30 1 9 28
M  V30 31 1 9 29
M  V30 32 1 10 30
M  V30 33 1 10 31
M  V30 34 1 11 32
M  V30 35 1 15 33
M  V30 36 1 15 34
M  V30 END BOND
M  V30 END CTAB
M  END
>  <Dataset>  (61) 
PDB

>  <Ligand_Instance>  (61) 
5N37_8JT_A_402

>  <PDB_ID>  (61) 
5N37

>  <Standardized_SMILES>  (61) 
[H]C1=C([H])C(C([H])([H])[N+]([H])([H])C2([H])C([H])([H])C([H])([H])C([H])([H])C2([H])[H])=C([H])C2=C1OC([H])([H])O2

>  <Name>  (61) 
1,3-benzodioxol-5-ylmethyl(cyclopentyl)azanium

>  <Pocket>  (61) 
A

>  <ATP_Site>  (61) 
1.0

>  <Peripheral>  (61) 
1.0

>  <Num_H_Atoms_ProtBoundConf>  (61) 
18.0

>  <Num_Resolved_Atoms>  (61) 
16.0

>  <Num_Not_Resolved_Atoms>  (61) 
0.0

>  <2D_Mol_H>  (61) 
<rdkit.Chem.rdchem.Mol object at 0x72a238dc5cb0>

>  <MW>  (61) 
220.292

>  <HBA>  (61) 
2

>  <HBD>  (61) 
1

>  <LogP>  (61) 
1.4213

>  <NRB>  (61) 
3

>  <TPSA>  (61) 
35.07

>  <Num_Heavy_Atoms>  (61) 
16

>  <Ro5>  (61) 
[True, True, True, True, True, True]

>  <Ro5_Fulfilled>  (61) 
True

>  <Ro3>  (61) 
[True, True, True, True]

>  <Ro3_Fulfilled>  (61) 
True

>  <Fsp3>  (61) 
0.538462

>  <Fsp3_0.42>  (61) 
True

>  <Fsp3_0.45>  (61) 
True

>  <Stereogenic_Carbons>  (61) 
0

>  <C_Atoms>  (61) 
13

>  <FCStereo>  (61) 
0.0

>  <SPS>  (61) 
308

>  <nSPS>  (61) 
19.25

>  <PBF>  (61) 
0.754703

>  <PBF_0.6>  (61) 
True

>  <nPBF>  (61) 
0.047169

>  <nPBF_0.016>  (61) 
True

>  <PMI1>  (61) 
280.51215

>  <PMI2>  (61) 
2498.272069

>  <PMI3>  (61) 
2603.042422

>  <NPR1>  (61) 
0.107763

>  <NPR2>  (61) 
0.959751

>  <Sum_NPR>  (61) 
1.067514

>  <Sum_NPR_1.07>  (61) 
False

>  <Sum_NPR_1.2>  (61) 
False

>  <MaxAbsEStateIndex>  (61) 
5.374804

>  <MaxEStateIndex>  (61) 
5.374804

>  <MinAbsEStateIndex>  (61) 
0.366196

>  <MinEStateIndex>  (61) 
0.366196

>  <qed>  (61) 
0.835816

>  <MolWt>  (61) 
220.292

>  <HeavyAtomMolWt>  (61) 
202.148

>  <ExactMolWt>  (61) 
220.133205

>  <NumValenceElectrons>  (61) 
86

>  <NumRadicalElectrons>  (61) 
0

>  <MaxPartialCharge>  (61) 
0.2308

>  <MinPartialCharge>  (61) 
-0.453595

>  <MaxAbsPartialCharge>  (61) 
0.453595

>  <MinAbsPartialCharge>  (61) 
0.2308

>  <FpDensityMorgan1>  (61) 
1.125

>  <FpDensityMorgan2>  (61) 
1.9375

>  <FpDensityMorgan3>  (61) 
2.8125

>  <BCUT2D_MWHI>  (61) 
16.696686

>  <BCUT2D_MWLOW>  (61) 
10.15064

>  <BCUT2D_CHGHI>  (61) 
2.182417

>  <BCUT2D_CHGLO>  (61) 
-2.081289

>  <BCUT2D_LOGPHI>  (61) 
2.31722

>  <BCUT2D_LOGPLOW>  (61) 
-2.874418

>  <BCUT2D_MRHI>  (61) 
5.436913

>  <BCUT2D_MRLOW>  (61) 
-0.70272

>  <AvgIpc>  (61) 
2.965804

>  <BalabanJ>  (61) 
1.613398

>  <BertzCT>  (61) 
372.195385

>  <Chi0>  (61) 
10.794682

>  <Chi0n>  (61) 
9.445889

>  <Chi0v>  (61) 
9.445889

>  <Chi1>  (61) 
7.915816

>  <Chi1n>  (61) 
6.135264

>  <Chi1v>  (61) 
6.135264

>  <Chi2n>  (61) 
4.671977

>  <Chi2v>  (61) 
4.671977

>  <Chi3n>  (61) 
3.523697

>  <Chi3v>  (61) 
3.523697

>  <Chi4n>  (61) 
2.563762

>  <Chi4v>  (61) 
2.563762

>  <HallKierAlpha>  (61) 
-1.22

>  <Ipc>  (61) 
12079.718684

>  <Kappa1>  (61) 
9.967562

>  <Kappa2>  (61) 
4.33714

>  <Kappa3>  (61) 
1.999733

>  <LabuteASA>  (61) 
95.751288

>  <PEOE_VSA1>  (61) 
14.790515

>  <PEOE_VSA10>  (61) 
6.544756

>  <PEOE_VSA11>  (61) 
11.499024

>  <PEOE_VSA12>  (61) 
6.792942

>  <PEOE_VSA13>  (61) 
0.0

>  <PEOE_VSA14>  (61) 
0.0

>  <PEOE_VSA2>  (61) 
0.0

>  <PEOE_VSA3>  (61) 
0.0

>  <PEOE_VSA4>  (61) 
0.0

>  <PEOE_VSA5>  (61) 
0.0

>  <PEOE_VSA6>  (61) 
0.0

>  <PEOE_VSA7>  (61) 
43.882388

>  <PEOE_VSA8>  (61) 
5.563451

>  <PEOE_VSA9>  (61) 
6.041841

>  <SMR_VSA1>  (61) 
14.790515

>  <SMR_VSA10>  (61) 
0.0

>  <SMR_VSA2>  (61) 
0.0

>  <SMR_VSA3>  (61) 
0.0

>  <SMR_VSA4>  (61) 
0.0

>  <SMR_VSA5>  (61) 
38.269884

>  <SMR_VSA6>  (61) 
6.792942

>  <SMR_VSA7>  (61) 
23.762553

>  <SMR_VSA8>  (61) 
0.0

>  <SMR_VSA9>  (61) 
11.499024

>  <SlogP_VSA1>  (61) 
14.790515

>  <SlogP_VSA10>  (61) 
0.0

>  <SlogP_VSA11>  (61) 
11.499024

>  <SlogP_VSA12>  (61) 
0.0

>  <SlogP_VSA2>  (61) 
12.834783

>  <SlogP_VSA3>  (61) 
6.544756

>  <SlogP_VSA4>  (61) 
0.0

>  <SlogP_VSA5>  (61) 
31.246738

>  <SlogP_VSA6>  (61) 
18.199101

>  <SlogP_VSA7>  (61) 
0.0

>  <SlogP_VSA8>  (61) 
0.0

>  <SlogP_VSA9>  (61) 
0.0

>  <EState_VSA1>  (61) 
0.0

>  <EState_VSA10>  (61) 
0.0

>  <EState_VSA11>  (61) 
0.0

>  <EState_VSA2>  (61) 
0.0

>  <EState_VSA3>  (61) 
6.792942

>  <EState_VSA4>  (61) 
24.085621

>  <EState_VSA5>  (61) 
31.246738

>  <EState_VSA6>  (61) 
0.0

>  <EState_VSA7>  (61) 
6.066367

>  <EState_VSA8>  (61) 
17.449523

>  <EState_VSA9>  (61) 
9.473726

>  <VSA_EState1>  (61) 
10.673746

>  <VSA_EState10>  (61) 
0.0

>  <VSA_EState2>  (61) 
0.0

>  <VSA_EState3>  (61) 
2.462833

>  <VSA_EState4>  (61) 
1.329769

>  <VSA_EState5>  (61) 
1.779573

>  <VSA_EState6>  (61) 
7.095204

>  <VSA_EState7>  (61) 
5.569162

>  <VSA_EState8>  (61) 
1.423048

>  <VSA_EState9>  (61) 
0.0

>  <FractionCSP3>  (61) 
0.538462

>  <HeavyAtomCount>  (61) 
16

>  <NHOHCount>  (61) 
2

>  <NOCount>  (61) 
3

>  <NumAliphaticCarbocycles>  (61) 
1

>  <NumAliphaticHeterocycles>  (61) 
1

>  <NumAliphaticRings>  (61) 
2

>  <NumAromaticCarbocycles>  (61) 
1

>  <NumAromaticHeterocycles>  (61) 
0

>  <NAR>  (61) 
1

>  <NumHAcceptors>  (61) 
2

>  <NumHDonors>  (61) 
1

>  <NumHeteroatoms>  (61) 
3

>  <NumRotatableBonds>  (61) 
3

>  <NumSaturatedCarbocycles>  (61) 
1

>  <NumSaturatedHeterocycles>  (61) 
0

>  <NumSaturatedRings>  (61) 
1

>  <RingCount>  (61) 
3

>  <MolLogP>  (61) 
1.4213

>  <MolMR>  (61) 
60.4504

>  <fr_Al_COO>  (61) 
0

>  <fr_Al_OH>  (61) 
0

>  <fr_Al_OH_noTert>  (61) 
0

>  <fr_ArN>  (61) 
0

>  <fr_Ar_COO>  (61) 
0

>  <fr_Ar_N>  (61) 
0

>  <fr_Ar_NH>  (61) 
0

>  <fr_Ar_OH>  (61) 
0

>  <fr_COO>  (61) 
0

>  <fr_COO2>  (61) 
0

>  <fr_C_O>  (61) 
0

>  <fr_C_O_noCOO>  (61) 
0

>  <fr_C_S>  (61) 
0

>  <fr_HOCCN>  (61) 
0

>  <fr_Imine>  (61) 
0

>  <fr_NH0>  (61) 
0

>  <fr_NH1>  (61) 
0

>  <fr_NH2>  (61) 
1

>  <fr_N_O>  (61) 
0

>  <fr_Ndealkylation1>  (61) 
0

>  <fr_Ndealkylation2>  (61) 
0

>  <fr_Nhpyrrole>  (61) 
0

>  <fr_SH>  (61) 
0

>  <fr_aldehyde>  (61) 
0

>  <fr_alkyl_carbamate>  (61) 
0

>  <fr_alkyl_halide>  (61) 
0

>  <fr_allylic_oxid>  (61) 
0

>  <fr_amide>  (61) 
0

>  <fr_amidine>  (61) 
0

>  <fr_aniline>  (61) 
0

>  <fr_aryl_methyl>  (61) 
0

>  <fr_azide>  (61) 
0

>  <fr_azo>  (61) 
0

>  <fr_barbitur>  (61) 
0

>  <fr_benzene>  (61) 
1

>  <fr_benzodiazepine>  (61) 
0

>  <fr_bicyclic>  (61) 
1

>  <fr_diazo>  (61) 
0

>  <fr_dihydropyridine>  (61) 
0

>  <fr_epoxide>  (61) 
0

>  <fr_ester>  (61) 
0

>  <fr_ether>  (61) 
2

>  <fr_furan>  (61) 
0

>  <fr_guanido>  (61) 
0

>  <fr_halogen>  (61) 
0

>  <fr_hdrzine>  (61) 
0

>  <fr_hdrzone>  (61) 
0

>  <fr_imidazole>  (61) 
0

>  <fr_imide>  (61) 
0

>  <fr_isocyan>  (61) 
0

>  <fr_isothiocyan>  (61) 
0

>  <fr_ketone>  (61) 
0

>  <fr_ketone_Topliss>  (61) 
0

>  <fr_lactam>  (61) 
0

>  <fr_lactone>  (61) 
0

>  <fr_methoxy>  (61) 
0

>  <fr_morpholine>  (61) 
0

>  <fr_nitrile>  (61) 
0

>  <fr_nitro>  (61) 
0

>  <fr_nitro_arom>  (61) 
0

>  <fr_nitro_arom_nonortho>  (61) 
0

>  <fr_nitroso>  (61) 
0

>  <fr_oxazole>  (61) 
0

>  <fr_oxime>  (61) 
0

>  <fr_para_hydroxylation>  (61) 
0

>  <fr_phenol>  (61) 
0

>  <fr_phenol_noOrthoHbond>  (61) 
0

>  <fr_phos_acid>  (61) 
0

>  <fr_phos_ester>  (61) 
0

>  <fr_piperdine>  (61) 
0

>  <fr_piperzine>  (61) 
0

>  <fr_priamide>  (61) 
0

>  <fr_prisulfonamd>  (61) 
0

>  <fr_pyridine>  (61) 
0

>  <fr_quatN>  (61) 
1

>  <fr_sulfide>  (61) 
0

>  <fr_sulfonamd>  (61) 
0

>  <fr_sulfone>  (61) 
0

>  <fr_term_acetylene>  (61) 
0

>  <fr_tetrazole>  (61) 
0

>  <fr_thiazole>  (61) 
0

>  <fr_thiocyan>  (61) 
0

>  <fr_thiophene>  (61) 
0

>  <fr_unbrch_alkane>  (61) 
0

>  <fr_urea>  (61) 
0

>  <NP-Likeness>  (61) 
0.065472

$$$$
8JW
     RDKit          3D

  0  0  0  0  0  0  0  0  0  0999 V3000
M  V30 BEGIN CTAB
M  V30 COUNTS 17 17 0 0 0
M  V30 BEGIN ATOM
M  V30 1 C 0.322552 -0.070256 1.534780 0
M  V30 2 C 1.368437 0.141380 2.401189 0
M  V30 3 N 1.279855 -0.164036 3.787368 0
M  V30 4 C 2.543404 0.667740 1.909234 0
M  V30 5 O 3.533601 0.881564 2.661198 0
M  V30 6 N 2.700742 0.977842 0.626788 0
M  V30 7 C 1.705128 0.787920 -0.256601 0
M  V30 8 C 0.526323 0.264254 0.214547 0
M  V30 9 C -0.587353 0.045627 -0.742173 0
M  V30 10 F -0.665134 -1.294037 -1.001364 0
M  V30 11 F -0.385555 0.740000 -1.923456 0
M  V30 12 F -1.763029 0.534290 -0.177465 0
M  V30 13 H -0.616426 -0.489228 1.919517 0
M  V30 14 H 2.039648 -0.463828 4.404240 0
M  V30 15 H 0.323868 -0.060679 4.184338 0
M  V30 16 H 3.598868 1.382769 0.237710 0
M  V30 17 H 1.792023 1.025733 -1.302824 0
M  V30 END ATOM
M  V30 BEGIN BOND
M  V30 1 2 1 2
M  V30 2 1 2 3
M  V30 3 1 2 4
M  V30 4 2 4 5
M  V30 5 1 4 6
M  V30 6 1 6 7
M  V30 7 2 7 8
M  V30 8 1 8 9
M  V30 9 1 9 10
M  V30 10 1 9 11
M  V30 11 1 9 12
M  V30 12 1 8 1
M  V30 13 1 1 13
M  V30 14 1 3 14
M  V30 15 1 3 15
M  V30 16 1 6 16
M  V30 17 1 7 17
M  V30 END BOND
M  V30 END CTAB
M  END
>  <Dataset>  (62) 
PDB

>  <Ligand_Instance>  (62) 
5N33_8JW_A_401

>  <PDB_ID>  (62) 
5N33

>  <Standardized_SMILES>  (62) 
[H]C1=C(N([H])[H])C(=O)N([H])C([H])=C1C(F)(F)F

>  <Name>  (62) 
3-azanyl-5-(trifluoromethyl)-1~{H}-pyridin-2-one

>  <Pocket>  (62) 
A

>  <ATP_Site>  (62) 
1.0

>  <Peripheral>  (62) 
0.0

>  <Num_H_Atoms_ProtBoundConf>  (62) 
5.0

>  <Num_Resolved_Atoms>  (62) 
12.0

>  <Num_Not_Resolved_Atoms>  (62) 
0.0

>  <2D_Mol_H>  (62) 
<rdkit.Chem.rdchem.Mol object at 0x72a238dc5d90>

>  <MW>  (62) 
178.113

>  <HBA>  (62) 
2

>  <HBD>  (62) 
2

>  <LogP>  (62) 
0.9759

>  <NRB>  (62) 
1

>  <TPSA>  (62) 
58.88

>  <Num_Heavy_Atoms>  (62) 
12

>  <Ro5>  (62) 
[True, True, True, True, True, True]

>  <Ro5_Fulfilled>  (62) 
True

>  <Ro3>  (62) 
[True, True, True, True]

>  <Ro3_Fulfilled>  (62) 
True

>  <Fsp3>  (62) 
0.166667

>  <Fsp3_0.42>  (62) 
False

>  <Fsp3_0.45>  (62) 
False

>  <Stereogenic_Carbons>  (62) 
0

>  <C_Atoms>  (62) 
6

>  <FCStereo>  (62) 
0.0

>  <SPS>  (62) 
139

>  <nSPS>  (62) 
11.583333

>  <PBF>  (62) 
0.221048

>  <PBF_0.6>  (62) 
False

>  <nPBF>  (62) 
0.018421

>  <nPBF_0.016>  (62) 
True

>  <PMI1>  (62) 
261.661434

>  <PMI2>  (62) 
847.95179

>  <PMI3>  (62) 
1009.454391

>  <NPR1>  (62) 
0.259211

>  <NPR2>  (62) 
0.84001

>  <Sum_NPR>  (62) 
1.099221

>  <Sum_NPR_1.07>  (62) 
True

>  <Sum_NPR_1.2>  (62) 
False

>  <MaxAbsEStateIndex>  (62) 
11.921982

>  <MaxEStateIndex>  (62) 
11.921982

>  <MinAbsEStateIndex>  (62) 
0.439977

>  <MinEStateIndex>  (62) 
-4.473889

>  <qed>  (62) 
0.621521

>  <MolWt>  (62) 
178.113

>  <HeavyAtomMolWt>  (62) 
173.073

>  <ExactMolWt>  (62) 
178.035397

>  <NumValenceElectrons>  (62) 
66

>  <NumRadicalElectrons>  (62) 
0

>  <MaxPartialCharge>  (62) 
0.417385

>  <MinPartialCharge>  (62) 
-0.394255

>  <MaxAbsPartialCharge>  (62) 
0.417385

>  <MinAbsPartialCharge>  (62) 
0.394255

>  <FpDensityMorgan1>  (62) 
1.416667

>  <FpDensityMorgan2>  (62) 
2.0

>  <FpDensityMorgan3>  (62) 
2.416667

>  <BCUT2D_MWHI>  (62) 
19.413171

>  <BCUT2D_MWLOW>  (62) 
10.242538

>  <BCUT2D_CHGHI>  (62) 
2.304843

>  <BCUT2D_CHGLO>  (62) 
-2.047994

>  <BCUT2D_LOGPHI>  (62) 
2.279207

>  <BCUT2D_LOGPLOW>  (62) 
-2.148507

>  <BCUT2D_MRHI>  (62) 
5.3749

>  <BCUT2D_MRLOW>  (62) 
-0.137344

>  <AvgIpc>  (62) 
1.922545

>  <BalabanJ>  (62) 
3.228414

>  <BertzCT>  (62) 
341.381814

>  <Chi0>  (62) 
9.353371

>  <Chi0n>  (62) 
5.774193

>  <Chi0v>  (62) 
5.774193

>  <Chi1>  (62) 
5.409702

>  <Chi1n>  (62) 
2.964447

>  <Chi1v>  (62) 
2.964447

>  <Chi2n>  (62) 
2.17058

>  <Chi2v>  (62) 
2.17058

>  <Chi3n>  (62) 
1.259285

>  <Chi3v>  (62) 
1.259285

>  <Chi4n>  (62) 
0.665039

>  <Chi4v>  (62) 
0.665039

>  <HallKierAlpha>  (62) 
-1.46

>  <Ipc>  (62) 
347.980734

>  <Kappa1>  (62) 
8.634877

>  <Kappa2>  (62) 
2.543274

>  <Kappa3>  (62) 
1.578125

>  <LabuteASA>  (62) 
65.014012

>  <PEOE_VSA1>  (62) 
10.717646

>  <PEOE_VSA10>  (62) 
0.0

>  <PEOE_VSA11>  (62) 
0.0

>  <PEOE_VSA12>  (62) 
0.0

>  <PEOE_VSA13>  (62) 
5.559267

>  <PEOE_VSA14>  (62) 
6.176299

>  <PEOE_VSA2>  (62) 
4.794537

>  <PEOE_VSA3>  (62) 
0.0

>  <PEOE_VSA4>  (62) 
13.171245

>  <PEOE_VSA5>  (62) 
0.0

>  <PEOE_VSA6>  (62) 
0.0

>  <PEOE_VSA7>  (62) 
6.066367

>  <PEOE_VSA8>  (62) 
6.196844

>  <PEOE_VSA9>  (62) 
11.250838

>  <SMR_VSA1>  (62) 
13.171245

>  <SMR_VSA10>  (62) 
5.687386

>  <SMR_VSA2>  (62) 
0.0

>  <SMR_VSA3>  (62) 
4.983979

>  <SMR_VSA4>  (62) 
0.0

>  <SMR_VSA5>  (62) 
6.176299

>  <SMR_VSA6>  (62) 
5.733667

>  <SMR_VSA7>  (62) 
28.180466

>  <SMR_VSA8>  (62) 
0.0

>  <SMR_VSA9>  (62) 
0.0

>  <SlogP_VSA1>  (62) 
11.292934

>  <SlogP_VSA10>  (62) 
18.858631

>  <SlogP_VSA11>  (62) 
0.0

>  <SlogP_VSA12>  (62) 
0.0

>  <SlogP_VSA2>  (62) 
4.983979

>  <SlogP_VSA3>  (62) 
6.176299

>  <SlogP_VSA4>  (62) 
0.0

>  <SlogP_VSA5>  (62) 
5.563451

>  <SlogP_VSA6>  (62) 
17.057748

>  <SlogP_VSA7>  (62) 
0.0

>  <SlogP_VSA8>  (62) 
0.0

>  <SlogP_VSA9>  (62) 
0.0

>  <EState_VSA1>  (62) 
22.986403

>  <EState_VSA10>  (62) 
17.965782

>  <EState_VSA11>  (62) 
0.0

>  <EState_VSA2>  (62) 
0.0

>  <EState_VSA3>  (62) 
12.263211

>  <EState_VSA4>  (62) 
0.0

>  <EState_VSA5>  (62) 
0.0

>  <EState_VSA6>  (62) 
0.0

>  <EState_VSA7>  (62) 
4.983979

>  <EState_VSA8>  (62) 
0.0

>  <EState_VSA9>  (62) 
5.733667

>  <VSA_EState1>  (62) 
35.765947

>  <VSA_EState10>  (62) 
0.0

>  <VSA_EState2>  (62) 
12.424401

>  <VSA_EState3>  (62) 
0.0

>  <VSA_EState4>  (62) 
2.85544

>  <VSA_EState5>  (62) 
0.0

>  <VSA_EState6>  (62) 
0.596065

>  <VSA_EState7>  (62) 
-3.891852

>  <VSA_EState8>  (62) 
0.0

>  <VSA_EState9>  (62) 
0.0

>  <FractionCSP3>  (62) 
0.166667

>  <HeavyAtomCount>  (62) 
12

>  <NHOHCount>  (62) 
3

>  <NOCount>  (62) 
3

>  <NumAliphaticCarbocycles>  (62) 
0

>  <NumAliphaticHeterocycles>  (62) 
0

>  <NumAliphaticRings>  (62) 
0

>  <NumAromaticCarbocycles>  (62) 
0

>  <NumAromaticHeterocycles>  (62) 
1

>  <NAR>  (62) 
1

>  <NumHAcceptors>  (62) 
2

>  <NumHDonors>  (62) 
2

>  <NumHeteroatoms>  (62) 
6

>  <NumRotatableBonds>  (62) 
0

>  <NumSaturatedCarbocycles>  (62) 
0

>  <NumSaturatedHeterocycles>  (62) 
0

>  <NumSaturatedRings>  (62) 
0

>  <RingCount>  (62) 
1

>  <MolLogP>  (62) 
0.9759

>  <MolMR>  (62) 
36.4771

>  <fr_Al_COO>  (62) 
0

>  <fr_Al_OH>  (62) 
0

>  <fr_Al_OH_noTert>  (62) 
0

>  <fr_ArN>  (62) 
1

>  <fr_Ar_COO>  (62) 
0

>  <fr_Ar_N>  (62) 
1

>  <fr_Ar_NH>  (62) 
1

>  <fr_Ar_OH>  (62) 
0

>  <fr_COO>  (62) 
0

>  <fr_COO2>  (62) 
0

>  <fr_C_O>  (62) 
0

>  <fr_C_O_noCOO>  (62) 
0

>  <fr_C_S>  (62) 
0

>  <fr_HOCCN>  (62) 
0

>  <fr_Imine>  (62) 
0

>  <fr_NH0>  (62) 
0

>  <fr_NH1>  (62) 
1

>  <fr_NH2>  (62) 
1

>  <fr_N_O>  (62) 
0

>  <fr_Ndealkylation1>  (62) 
0

>  <fr_Ndealkylation2>  (62) 
0

>  <fr_Nhpyrrole>  (62) 
1

>  <fr_SH>  (62) 
0

>  <fr_aldehyde>  (62) 
0

>  <fr_alkyl_carbamate>  (62) 
0

>  <fr_alkyl_halide>  (62) 
3

>  <fr_allylic_oxid>  (62) 
0

>  <fr_amide>  (62) 
0

>  <fr_amidine>  (62) 
0

>  <fr_aniline>  (62) 
1

>  <fr_aryl_methyl>  (62) 
0

>  <fr_azide>  (62) 
0

>  <fr_azo>  (62) 
0

>  <fr_barbitur>  (62) 
0

>  <fr_benzene>  (62) 
0

>  <fr_benzodiazepine>  (62) 
0

>  <fr_bicyclic>  (62) 
0

>  <fr_diazo>  (62) 
0

>  <fr_dihydropyridine>  (62) 
0

>  <fr_epoxide>  (62) 
0

>  <fr_ester>  (62) 
0

>  <fr_ether>  (62) 
0

>  <fr_furan>  (62) 
0

>  <fr_guanido>  (62) 
0

>  <fr_halogen>  (62) 
3

>  <fr_hdrzine>  (62) 
0

>  <fr_hdrzone>  (62) 
0

>  <fr_imidazole>  (62) 
0

>  <fr_imide>  (62) 
0

>  <fr_isocyan>  (62) 
0

>  <fr_isothiocyan>  (62) 
0

>  <fr_ketone>  (62) 
0

>  <fr_ketone_Topliss>  (62) 
0

>  <fr_lactam>  (62) 
0

>  <fr_lactone>  (62) 
0

>  <fr_methoxy>  (62) 
0

>  <fr_morpholine>  (62) 
0

>  <fr_nitrile>  (62) 
0

>  <fr_nitro>  (62) 
0

>  <fr_nitro_arom>  (62) 
0

>  <fr_nitro_arom_nonortho>  (62) 
0

>  <fr_nitroso>  (62) 
0

>  <fr_oxazole>  (62) 
0

>  <fr_oxime>  (62) 
0

>  <fr_para_hydroxylation>  (62) 
0

>  <fr_phenol>  (62) 
0

>  <fr_phenol_noOrthoHbond>  (62) 
0

>  <fr_phos_acid>  (62) 
0

>  <fr_phos_ester>  (62) 
0

>  <fr_piperdine>  (62) 
0

>  <fr_piperzine>  (62) 
0

>  <fr_priamide>  (62) 
0

>  <fr_prisulfonamd>  (62) 
0

>  <fr_pyridine>  (62) 
1

>  <fr_quatN>  (62) 
0

>  <fr_sulfide>  (62) 
0

>  <fr_sulfonamd>  (62) 
0

>  <fr_sulfone>  (62) 
0

>  <fr_term_acetylene>  (62) 
0

>  <fr_tetrazole>  (62) 
0

>  <fr_thiazole>  (62) 
0

>  <fr_thiocyan>  (62) 
0

>  <fr_thiophene>  (62) 
0

>  <fr_unbrch_alkane>  (62) 
0

>  <fr_urea>  (62) 
0

>  <NP-Likeness>  (62) 
-1.030858

$$$$
8K2
     RDKit          3D

  0  0  0  0  0  0  0  0  0  0999 V3000
M  V30 BEGIN CTAB
M  V30 COUNTS 14 14 0 0 0
M  V30 BEGIN ATOM
M  V30 1 C 3.165862 -1.204465 1.713008 0
M  V30 2 C 3.838637 0.087850 1.739795 0
M  V30 3 Cl 5.615111 0.132221 2.189748 0
M  V30 4 S 2.427518 1.255203 1.246994 0
M  V30 5 C 1.213800 0.020297 1.075215 0
M  V30 6 S -0.371498 0.484208 0.617019 0
M  V30 7 O -1.188232 -0.774073 0.453777 0
M  V30 8 O -1.066976 1.327212 1.654557 0
M  V30 9 N -0.419029 1.279886 -0.921653 0
M  V30 10 C 1.844539 -1.162573 1.369916 0
M  V30 11 H 3.656787 -2.134194 1.943412 0
M  V30 12 H -1.385305 1.167432 -1.310870 0
M  V30 13 H 0.309775 0.933081 -1.560949 0
M  V30 14 H 1.186867 -2.012829 1.297223 0
M  V30 END ATOM
M  V30 BEGIN BOND
M  V30 1 2 1 2
M  V30 2 1 2 3
M  V30 3 1 2 4
M  V30 4 1 4 5
M  V30 5 1 5 6
M  V30 6 2 6 7
M  V30 7 2 6 8
M  V30 8 1 6 9
M  V30 9 2 5 10
M  V30 10 1 10 1
M  V30 11 1 1 11
M  V30 12 1 9 12
M  V30 13 1 9 13
M  V30 14 1 10 14
M  V30 END BOND
M  V30 END CTAB
M  END
>  <Dataset>  (63) 
PDB

>  <Ligand_Instance>  (63) 
5N3T_8K2_A_401

>  <PDB_ID>  (63) 
5N3T

>  <Standardized_SMILES>  (63) 
[H]C1=C(Cl)SC(S(=O)(=O)N([H])[H])=C1[H]

>  <Name>  (63) 
5-chloranylthiophene-2-sulfonamide

>  <Pocket>  (63) 
F

>  <ATP_Site>  (63) 
0.0

>  <Peripheral>  (63) 
1.0

>  <Num_H_Atoms_ProtBoundConf>  (63) 
4.0

>  <Num_Resolved_Atoms>  (63) 
10.0

>  <Num_Not_Resolved_Atoms>  (63) 
0.0

>  <2D_Mol_H>  (63) 
<rdkit.Chem.rdchem.Mol object at 0x72a238dc5e70>

>  <MW>  (63) 
197.668

>  <HBA>  (63) 
3

>  <HBD>  (63) 
1

>  <LogP>  (63) 
1.0489

>  <NRB>  (63) 
2

>  <TPSA>  (63) 
60.16

>  <Num_Heavy_Atoms>  (63) 
10

>  <Ro5>  (63) 
[True, True, True, True, True, True]

>  <Ro5_Fulfilled>  (63) 
True

>  <Ro3>  (63) 
[True, True, True, True]

>  <Ro3_Fulfilled>  (63) 
True

>  <Fsp3>  (63) 
0.0

>  <Fsp3_0.42>  (63) 
False

>  <Fsp3_0.45>  (63) 
False

>  <Stereogenic_Carbons>  (63) 
0

>  <C_Atoms>  (63) 
4

>  <FCStereo>  (63) 
0.0

>  <SPS>  (63) 
118

>  <nSPS>  (63) 
11.8

>  <PBF>  (63) 
0.522373

>  <PBF_0.6>  (63) 
False

>  <nPBF>  (63) 
0.052237

>  <nPBF_0.016>  (63) 
True

>  <PMI1>  (63) 
201.75388

>  <PMI2>  (63) 
1262.601369

>  <PMI3>  (63) 
1345.912442

>  <NPR1>  (63) 
0.149901

>  <NPR2>  (63) 
0.938101

>  <Sum_NPR>  (63) 
1.088002

>  <Sum_NPR_1.07>  (63) 
True

>  <Sum_NPR_1.2>  (63) 
False

>  <MaxAbsEStateIndex>  (63) 
10.575756

>  <MaxEStateIndex>  (63) 
10.575756

>  <MinAbsEStateIndex>  (63) 
0.094907

>  <MinEStateIndex>  (63) 
-3.547917

>  <qed>  (63) 
0.731784

>  <MolWt>  (63) 
197.668

>  <HeavyAtomMolWt>  (63) 
193.636

>  <ExactMolWt>  (63) 
196.937198

>  <NumValenceElectrons>  (63) 
56

>  <NumRadicalElectrons>  (63) 
0

>  <MaxPartialCharge>  (63) 
0.247081

>  <MinPartialCharge>  (63) 
-0.223929

>  <MaxAbsPartialCharge>  (63) 
0.247081

>  <MinAbsPartialCharge>  (63) 
0.223929

>  <FpDensityMorgan1>  (63) 
1.5

>  <FpDensityMorgan2>  (63) 
2.1

>  <FpDensityMorgan3>  (63) 
2.3

>  <BCUT2D_MWHI>  (63) 
35.496017

>  <BCUT2D_MWLOW>  (63) 
10.678114

>  <BCUT2D_CHGHI>  (63) 
2.087385

>  <BCUT2D_CHGLO>  (63) 
-1.863598

>  <BCUT2D_LOGPHI>  (63) 
2.234341

>  <BCUT2D_LOGPLOW>  (63) 
-2.092544

>  <BCUT2D_MRHI>  (63) 
7.909032

>  <BCUT2D_MRLOW>  (63) 
0.59955

>  <AvgIpc>  (63) 
2.112988

>  <BalabanJ>  (63) 
3.20683

>  <BertzCT>  (63) 
328.78172

>  <Chi0>  (63) 
7.776021

>  <Chi0n>  (63) 
4.743008

>  <Chi0v>  (63) 
7.131931

>  <Chi1>  (63) 
4.499019

>  <Chi1n>  (63) 
2.281074

>  <Chi1v>  (63) 
5.021854

>  <Chi2n>  (63) 
1.603552

>  <Chi2v>  (63) 
5.106899

>  <Chi3n>  (63) 
0.828966

>  <Chi3v>  (63) 
3.498608

>  <Chi4n>  (63) 
0.450614

>  <Chi4v>  (63) 
2.356236

>  <HallKierAlpha>  (63) 
-0.1

>  <Ipc>  (63) 
166.926055

>  <Kappa1>  (63) 
8.00101

>  <Kappa2>  (63) 
2.50191

>  <Kappa3>  (63) 
1.694153

>  <LabuteASA>  (63) 
67.475699

>  <PEOE_VSA1>  (63) 
0.0

>  <PEOE_VSA10>  (63) 
4.209179

>  <PEOE_VSA11>  (63) 
0.0

>  <PEOE_VSA12>  (63) 
10.023291

>  <PEOE_VSA13>  (63) 
0.0

>  <PEOE_VSA14>  (63) 
0.0

>  <PEOE_VSA2>  (63) 
0.0

>  <PEOE_VSA3>  (63) 
13.556771

>  <PEOE_VSA4>  (63) 
0.0

>  <PEOE_VSA5>  (63) 
11.336786

>  <PEOE_VSA6>  (63) 
11.60094

>  <PEOE_VSA7>  (63) 
12.132734

>  <PEOE_VSA8>  (63) 
0.0

>  <PEOE_VSA9>  (63) 
4.336329

>  <SMR_VSA1>  (63) 
8.417797

>  <SMR_VSA10>  (63) 
32.961017

>  <SMR_VSA2>  (63) 
0.0

>  <SMR_VSA3>  (63) 
0.0

>  <SMR_VSA4>  (63) 
5.138974

>  <SMR_VSA5>  (63) 
4.209179

>  <SMR_VSA6>  (63) 
0.0

>  <SMR_VSA7>  (63) 
16.469063

>  <SMR_VSA8>  (63) 
0.0

>  <SMR_VSA9>  (63) 
0.0

>  <SlogP_VSA1>  (63) 
5.138974

>  <SlogP_VSA10>  (63) 
0.0

>  <SlogP_VSA11>  (63) 
0.0

>  <SlogP_VSA12>  (63) 
22.937726

>  <SlogP_VSA2>  (63) 
8.417797

>  <SlogP_VSA3>  (63) 
10.023291

>  <SlogP_VSA4>  (63) 
0.0

>  <SlogP_VSA5>  (63) 
0.0

>  <SlogP_VSA6>  (63) 
16.341913

>  <SlogP_VSA7>  (63) 
4.336329

>  <SlogP_VSA8>  (63) 
0.0

>  <SlogP_VSA9>  (63) 
0.0

>  <EState_VSA1>  (63) 
10.023291

>  <EState_VSA10>  (63) 
8.417797

>  <EState_VSA11>  (63) 
0.0

>  <EState_VSA2>  (63) 
4.209179

>  <EState_VSA3>  (63) 
4.336329

>  <EState_VSA4>  (63) 
11.336786

>  <EState_VSA5>  (63) 
12.132734

>  <EState_VSA6>  (63) 
0.0

>  <EState_VSA7>  (63) 
0.0

>  <EState_VSA8>  (63) 
0.0

>  <EState_VSA9>  (63) 
16.739914

>  <VSA_EState1>  (63) 
21.666813

>  <VSA_EState10>  (63) 
6.412114

>  <VSA_EState2>  (63) 
0.0

>  <VSA_EState3>  (63) 
4.79409

>  <VSA_EState4>  (63) 
0.0

>  <VSA_EState5>  (63) 
0.0

>  <VSA_EState6>  (63) 
2.869344

>  <VSA_EState7>  (63) 
0.0

>  <VSA_EState8>  (63) 
0.0

>  <VSA_EState9>  (63) 
-3.547917

>  <FractionCSP3>  (63) 
0.0

>  <HeavyAtomCount>  (63) 
10

>  <NHOHCount>  (63) 
2

>  <NOCount>  (63) 
3

>  <NumAliphaticCarbocycles>  (63) 
0

>  <NumAliphaticHeterocycles>  (63) 
0

>  <NumAliphaticRings>  (63) 
0

>  <NumAromaticCarbocycles>  (63) 
0

>  <NumAromaticHeterocycles>  (63) 
1

>  <NAR>  (63) 
1

>  <NumHAcceptors>  (63) 
3

>  <NumHDonors>  (63) 
1

>  <NumHeteroatoms>  (63) 
6

>  <NumRotatableBonds>  (63) 
1

>  <NumSaturatedCarbocycles>  (63) 
0

>  <NumSaturatedHeterocycles>  (63) 
0

>  <NumSaturatedRings>  (63) 
0

>  <RingCount>  (63) 
1

>  <MolLogP>  (63) 
1.0489

>  <MolMR>  (63) 
40.7022

>  <fr_Al_COO>  (63) 
0

>  <fr_Al_OH>  (63) 
0

>  <fr_Al_OH_noTert>  (63) 
0

>  <fr_ArN>  (63) 
0

>  <fr_Ar_COO>  (63) 
0

>  <fr_Ar_N>  (63) 
0

>  <fr_Ar_NH>  (63) 
0

>  <fr_Ar_OH>  (63) 
0

>  <fr_COO>  (63) 
0

>  <fr_COO2>  (63) 
0

>  <fr_C_O>  (63) 
0

>  <fr_C_O_noCOO>  (63) 
0

>  <fr_C_S>  (63) 
0

>  <fr_HOCCN>  (63) 
0

>  <fr_Imine>  (63) 
0

>  <fr_NH0>  (63) 
0

>  <fr_NH1>  (63) 
0

>  <fr_NH2>  (63) 
1

>  <fr_N_O>  (63) 
0

>  <fr_Ndealkylation1>  (63) 
0

>  <fr_Ndealkylation2>  (63) 
0

>  <fr_Nhpyrrole>  (63) 
0

>  <fr_SH>  (63) 
0

>  <fr_aldehyde>  (63) 
0

>  <fr_alkyl_carbamate>  (63) 
0

>  <fr_alkyl_halide>  (63) 
0

>  <fr_allylic_oxid>  (63) 
0

>  <fr_amide>  (63) 
0

>  <fr_amidine>  (63) 
0

>  <fr_aniline>  (63) 
0

>  <fr_aryl_methyl>  (63) 
0

>  <fr_azide>  (63) 
0

>  <fr_azo>  (63) 
0

>  <fr_barbitur>  (63) 
0

>  <fr_benzene>  (63) 
0

>  <fr_benzodiazepine>  (63) 
0

>  <fr_bicyclic>  (63) 
0

>  <fr_diazo>  (63) 
0

>  <fr_dihydropyridine>  (63) 
0

>  <fr_epoxide>  (63) 
0

>  <fr_ester>  (63) 
0

>  <fr_ether>  (63) 
0

>  <fr_furan>  (63) 
0

>  <fr_guanido>  (63) 
0

>  <fr_halogen>  (63) 
1

>  <fr_hdrzine>  (63) 
0

>  <fr_hdrzone>  (63) 
0

>  <fr_imidazole>  (63) 
0

>  <fr_imide>  (63) 
0

>  <fr_isocyan>  (63) 
0

>  <fr_isothiocyan>  (63) 
0

>  <fr_ketone>  (63) 
0

>  <fr_ketone_Topliss>  (63) 
0

>  <fr_lactam>  (63) 
0

>  <fr_lactone>  (63) 
0

>  <fr_methoxy>  (63) 
0

>  <fr_morpholine>  (63) 
0

>  <fr_nitrile>  (63) 
0

>  <fr_nitro>  (63) 
0

>  <fr_nitro_arom>  (63) 
0

>  <fr_nitro_arom_nonortho>  (63) 
0

>  <fr_nitroso>  (63) 
0

>  <fr_oxazole>  (63) 
0

>  <fr_oxime>  (63) 
0

>  <fr_para_hydroxylation>  (63) 
0

>  <fr_phenol>  (63) 
0

>  <fr_phenol_noOrthoHbond>  (63) 
0

>  <fr_phos_acid>  (63) 
0

>  <fr_phos_ester>  (63) 
0

>  <fr_piperdine>  (63) 
0

>  <fr_piperzine>  (63) 
0

>  <fr_priamide>  (63) 
0

>  <fr_prisulfonamd>  (63) 
0

>  <fr_pyridine>  (63) 
0

>  <fr_quatN>  (63) 
0

>  <fr_sulfide>  (63) 
0

>  <fr_sulfonamd>  (63) 
1

>  <fr_sulfone>  (63) 
0

>  <fr_term_acetylene>  (63) 
0

>  <fr_tetrazole>  (63) 
0

>  <fr_thiazole>  (63) 
0

>  <fr_thiocyan>  (63) 
0

>  <fr_thiophene>  (63) 
1

>  <fr_unbrch_alkane>  (63) 
0

>  <fr_urea>  (63) 
0

>  <NP-Likeness>  (63) 
-2.773418

$$$$
8K2
     RDKit          3D

  0  0  0  0  0  0  0  0  0  0999 V3000
M  V30 BEGIN CTAB
M  V30 COUNTS 14 14 0 0 0
M  V30 BEGIN ATOM
M  V30 1 C 3.165862 -1.204465 1.713008 0
M  V30 2 C 3.838637 0.087850 1.739795 0
M  V30 3 Cl 5.615111 0.132221 2.189748 0
M  V30 4 S 2.427518 1.255203 1.246994 0
M  V30 5 C 1.213800 0.020297 1.075215 0
M  V30 6 S -0.371498 0.484208 0.617019 0
M  V30 7 O -1.188232 -0.774073 0.453777 0
M  V30 8 O -1.066976 1.327212 1.654557 0
M  V30 9 N -0.419029 1.279886 -0.921653 0
M  V30 10 C 1.844539 -1.162573 1.369916 0
M  V30 11 H 3.656787 -2.134194 1.943412 0
M  V30 12 H -1.385305 1.167432 -1.310870 0
M  V30 13 H 0.309775 0.933081 -1.560949 0
M  V30 14 H 1.186867 -2.012829 1.297223 0
M  V30 END ATOM
M  V30 BEGIN BOND
M  V30 1 2 1 2
M  V30 2 1 2 3
M  V30 3 1 2 4
M  V30 4 1 4 5
M  V30 5 1 5 6
M  V30 6 2 6 7
M  V30 7 2 6 8
M  V30 8 1 6 9
M  V30 9 2 5 10
M  V30 10 1 10 1
M  V30 11 1 1 11
M  V30 12 1 9 12
M  V30 13 1 9 13
M  V30 14 1 10 14
M  V30 END BOND
M  V30 END CTAB
M  END
>  <Dataset>  (64) 
PDB

>  <Ligand_Instance>  (64) 
5N3T_8K2_A_402

>  <PDB_ID>  (64) 
5N3T

>  <Standardized_SMILES>  (64) 
[H]C1=C(Cl)SC(S(=O)(=O)N([H])[H])=C1[H]

>  <Name>  (64) 
5-chloranylthiophene-2-sulfonamide

>  <Pocket>  (64) 
X

>  <ATP_Site>  (64) 
0.0

>  <Peripheral>  (64) 
1.0

>  <Num_H_Atoms_ProtBoundConf>  (64) 
4.0

>  <Num_Resolved_Atoms>  (64) 
10.0

>  <Num_Not_Resolved_Atoms>  (64) 
0.0

>  <2D_Mol_H>  (64) 
<rdkit.Chem.rdchem.Mol object at 0x72a238dc5f50>

>  <MW>  (64) 
197.668

>  <HBA>  (64) 
3

>  <HBD>  (64) 
1

>  <LogP>  (64) 
1.0489

>  <NRB>  (64) 
2

>  <TPSA>  (64) 
60.16

>  <Num_Heavy_Atoms>  (64) 
10

>  <Ro5>  (64) 
[True, True, True, True, True, True]

>  <Ro5_Fulfilled>  (64) 
True

>  <Ro3>  (64) 
[True, True, True, True]

>  <Ro3_Fulfilled>  (64) 
True

>  <Fsp3>  (64) 
0.0

>  <Fsp3_0.42>  (64) 
False

>  <Fsp3_0.45>  (64) 
False

>  <Stereogenic_Carbons>  (64) 
0

>  <C_Atoms>  (64) 
4

>  <FCStereo>  (64) 
0.0

>  <SPS>  (64) 
118

>  <nSPS>  (64) 
11.8

>  <PBF>  (64) 
0.522373

>  <PBF_0.6>  (64) 
False

>  <nPBF>  (64) 
0.052237

>  <nPBF_0.016>  (64) 
True

>  <PMI1>  (64) 
201.75388

>  <PMI2>  (64) 
1262.601369

>  <PMI3>  (64) 
1345.912442

>  <NPR1>  (64) 
0.149901

>  <NPR2>  (64) 
0.938101

>  <Sum_NPR>  (64) 
1.088002

>  <Sum_NPR_1.07>  (64) 
True

>  <Sum_NPR_1.2>  (64) 
False

>  <MaxAbsEStateIndex>  (64) 
10.575756

>  <MaxEStateIndex>  (64) 
10.575756

>  <MinAbsEStateIndex>  (64) 
0.094907

>  <MinEStateIndex>  (64) 
-3.547917

>  <qed>  (64) 
0.731784

>  <MolWt>  (64) 
197.668

>  <HeavyAtomMolWt>  (64) 
193.636

>  <ExactMolWt>  (64) 
196.937198

>  <NumValenceElectrons>  (64) 
56

>  <NumRadicalElectrons>  (64) 
0

>  <MaxPartialCharge>  (64) 
0.247081

>  <MinPartialCharge>  (64) 
-0.223929

>  <MaxAbsPartialCharge>  (64) 
0.247081

>  <MinAbsPartialCharge>  (64) 
0.223929

>  <FpDensityMorgan1>  (64) 
1.5

>  <FpDensityMorgan2>  (64) 
2.1

>  <FpDensityMorgan3>  (64) 
2.3

>  <BCUT2D_MWHI>  (64) 
35.496017

>  <BCUT2D_MWLOW>  (64) 
10.678114

>  <BCUT2D_CHGHI>  (64) 
2.087385

>  <BCUT2D_CHGLO>  (64) 
-1.863598

>  <BCUT2D_LOGPHI>  (64) 
2.234341

>  <BCUT2D_LOGPLOW>  (64) 
-2.092544

>  <BCUT2D_MRHI>  (64) 
7.909032

>  <BCUT2D_MRLOW>  (64) 
0.59955

>  <AvgIpc>  (64) 
2.112988

>  <BalabanJ>  (64) 
3.20683

>  <BertzCT>  (64) 
328.78172

>  <Chi0>  (64) 
7.776021

>  <Chi0n>  (64) 
4.743008

>  <Chi0v>  (64) 
7.131931

>  <Chi1>  (64) 
4.499019

>  <Chi1n>  (64) 
2.281074

>  <Chi1v>  (64) 
5.021854

>  <Chi2n>  (64) 
1.603552

>  <Chi2v>  (64) 
5.106899

>  <Chi3n>  (64) 
0.828966

>  <Chi3v>  (64) 
3.498608

>  <Chi4n>  (64) 
0.450614

>  <Chi4v>  (64) 
2.356236

>  <HallKierAlpha>  (64) 
-0.1

>  <Ipc>  (64) 
166.926055

>  <Kappa1>  (64) 
8.00101

>  <Kappa2>  (64) 
2.50191

>  <Kappa3>  (64) 
1.694153

>  <LabuteASA>  (64) 
67.475699

>  <PEOE_VSA1>  (64) 
0.0

>  <PEOE_VSA10>  (64) 
4.209179

>  <PEOE_VSA11>  (64) 
0.0

>  <PEOE_VSA12>  (64) 
10.023291

>  <PEOE_VSA13>  (64) 
0.0

>  <PEOE_VSA14>  (64) 
0.0

>  <PEOE_VSA2>  (64) 
0.0

>  <PEOE_VSA3>  (64) 
13.556771

>  <PEOE_VSA4>  (64) 
0.0

>  <PEOE_VSA5>  (64) 
11.336786

>  <PEOE_VSA6>  (64) 
11.60094

>  <PEOE_VSA7>  (64) 
12.132734

>  <PEOE_VSA8>  (64) 
0.0

>  <PEOE_VSA9>  (64) 
4.336329

>  <SMR_VSA1>  (64) 
8.417797

>  <SMR_VSA10>  (64) 
32.961017

>  <SMR_VSA2>  (64) 
0.0

>  <SMR_VSA3>  (64) 
0.0

>  <SMR_VSA4>  (64) 
5.138974

>  <SMR_VSA5>  (64) 
4.209179

>  <SMR_VSA6>  (64) 
0.0

>  <SMR_VSA7>  (64) 
16.469063

>  <SMR_VSA8>  (64) 
0.0

>  <SMR_VSA9>  (64) 
0.0

>  <SlogP_VSA1>  (64) 
5.138974

>  <SlogP_VSA10>  (64) 
0.0

>  <SlogP_VSA11>  (64) 
0.0

>  <SlogP_VSA12>  (64) 
22.937726

>  <SlogP_VSA2>  (64) 
8.417797

>  <SlogP_VSA3>  (64) 
10.023291

>  <SlogP_VSA4>  (64) 
0.0

>  <SlogP_VSA5>  (64) 
0.0

>  <SlogP_VSA6>  (64) 
16.341913

>  <SlogP_VSA7>  (64) 
4.336329

>  <SlogP_VSA8>  (64) 
0.0

>  <SlogP_VSA9>  (64) 
0.0

>  <EState_VSA1>  (64) 
10.023291

>  <EState_VSA10>  (64) 
8.417797

>  <EState_VSA11>  (64) 
0.0

>  <EState_VSA2>  (64) 
4.209179

>  <EState_VSA3>  (64) 
4.336329

>  <EState_VSA4>  (64) 
11.336786

>  <EState_VSA5>  (64) 
12.132734

>  <EState_VSA6>  (64) 
0.0

>  <EState_VSA7>  (64) 
0.0

>  <EState_VSA8>  (64) 
0.0

>  <EState_VSA9>  (64) 
16.739914

>  <VSA_EState1>  (64) 
21.666813

>  <VSA_EState10>  (64) 
6.412114

>  <VSA_EState2>  (64) 
0.0

>  <VSA_EState3>  (64) 
4.79409

>  <VSA_EState4>  (64) 
0.0

>  <VSA_EState5>  (64) 
0.0

>  <VSA_EState6>  (64) 
2.869344

>  <VSA_EState7>  (64) 
0.0

>  <VSA_EState8>  (64) 
0.0

>  <VSA_EState9>  (64) 
-3.547917

>  <FractionCSP3>  (64) 
0.0

>  <HeavyAtomCount>  (64) 
10

>  <NHOHCount>  (64) 
2

>  <NOCount>  (64) 
3

>  <NumAliphaticCarbocycles>  (64) 
0

>  <NumAliphaticHeterocycles>  (64) 
0

>  <NumAliphaticRings>  (64) 
0

>  <NumAromaticCarbocycles>  (64) 
0

>  <NumAromaticHeterocycles>  (64) 
1

>  <NAR>  (64) 
1

>  <NumHAcceptors>  (64) 
3

>  <NumHDonors>  (64) 
1

>  <NumHeteroatoms>  (64) 
6

>  <NumRotatableBonds>  (64) 
1

>  <NumSaturatedCarbocycles>  (64) 
0

>  <NumSaturatedHeterocycles>  (64) 
0

>  <NumSaturatedRings>  (64) 
0

>  <RingCount>  (64) 
1

>  <MolLogP>  (64) 
1.0489

>  <MolMR>  (64) 
40.7022

>  <fr_Al_COO>  (64) 
0

>  <fr_Al_OH>  (64) 
0

>  <fr_Al_OH_noTert>  (64) 
0

>  <fr_ArN>  (64) 
0

>  <fr_Ar_COO>  (64) 
0

>  <fr_Ar_N>  (64) 
0

>  <fr_Ar_NH>  (64) 
0

>  <fr_Ar_OH>  (64) 
0

>  <fr_COO>  (64) 
0

>  <fr_COO2>  (64) 
0

>  <fr_C_O>  (64) 
0

>  <fr_C_O_noCOO>  (64) 
0

>  <fr_C_S>  (64) 
0

>  <fr_HOCCN>  (64) 
0

>  <fr_Imine>  (64) 
0

>  <fr_NH0>  (64) 
0

>  <fr_NH1>  (64) 
0

>  <fr_NH2>  (64) 
1

>  <fr_N_O>  (64) 
0

>  <fr_Ndealkylation1>  (64) 
0

>  <fr_Ndealkylation2>  (64) 
0

>  <fr_Nhpyrrole>  (64) 
0

>  <fr_SH>  (64) 
0

>  <fr_aldehyde>  (64) 
0

>  <fr_alkyl_carbamate>  (64) 
0

>  <fr_alkyl_halide>  (64) 
0

>  <fr_allylic_oxid>  (64) 
0

>  <fr_amide>  (64) 
0

>  <fr_amidine>  (64) 
0

>  <fr_aniline>  (64) 
0

>  <fr_aryl_methyl>  (64) 
0

>  <fr_azide>  (64) 
0

>  <fr_azo>  (64) 
0

>  <fr_barbitur>  (64) 
0

>  <fr_benzene>  (64) 
0

>  <fr_benzodiazepine>  (64) 
0

>  <fr_bicyclic>  (64) 
0

>  <fr_diazo>  (64) 
0

>  <fr_dihydropyridine>  (64) 
0

>  <fr_epoxide>  (64) 
0

>  <fr_ester>  (64) 
0

>  <fr_ether>  (64) 
0

>  <fr_furan>  (64) 
0

>  <fr_guanido>  (64) 
0

>  <fr_halogen>  (64) 
1

>  <fr_hdrzine>  (64) 
0

>  <fr_hdrzone>  (64) 
0

>  <fr_imidazole>  (64) 
0

>  <fr_imide>  (64) 
0

>  <fr_isocyan>  (64) 
0

>  <fr_isothiocyan>  (64) 
0

>  <fr_ketone>  (64) 
0

>  <fr_ketone_Topliss>  (64) 
0

>  <fr_lactam>  (64) 
0

>  <fr_lactone>  (64) 
0

>  <fr_methoxy>  (64) 
0

>  <fr_morpholine>  (64) 
0

>  <fr_nitrile>  (64) 
0

>  <fr_nitro>  (64) 
0

>  <fr_nitro_arom>  (64) 
0

>  <fr_nitro_arom_nonortho>  (64) 
0

>  <fr_nitroso>  (64) 
0

>  <fr_oxazole>  (64) 
0

>  <fr_oxime>  (64) 
0

>  <fr_para_hydroxylation>  (64) 
0

>  <fr_phenol>  (64) 
0

>  <fr_phenol_noOrthoHbond>  (64) 
0

>  <fr_phos_acid>  (64) 
0

>  <fr_phos_ester>  (64) 
0

>  <fr_piperdine>  (64) 
0

>  <fr_piperzine>  (64) 
0

>  <fr_priamide>  (64) 
0

>  <fr_prisulfonamd>  (64) 
0

>  <fr_pyridine>  (64) 
0

>  <fr_quatN>  (64) 
0

>  <fr_sulfide>  (64) 
0

>  <fr_sulfonamd>  (64) 
1

>  <fr_sulfone>  (64) 
0

>  <fr_term_acetylene>  (64) 
0

>  <fr_tetrazole>  (64) 
0

>  <fr_thiazole>  (64) 
0

>  <fr_thiocyan>  (64) 
0

>  <fr_thiophene>  (64) 
1

>  <fr_unbrch_alkane>  (64) 
0

>  <fr_urea>  (64) 
0

>  <NP-Likeness>  (64) 
-2.773418

$$$$
8K5
     RDKit          3D

  0  0  0  0  0  0  0  0  0  0999 V3000
M  V30 BEGIN CTAB
M  V30 COUNTS 21 21 0 0 0
M  V30 BEGIN ATOM
M  V30 1 H -0.672662 -3.124465 3.819940 0
M  V30 2 N -0.067936 -2.271272 3.850968 0
M  V30 3 C -0.268313 -1.312740 2.992153 0
M  V30 4 S 0.827534 0.056725 3.168865 0
M  V30 5 C 0.575205 1.382076 1.996035 0
M  V30 6 C 0.896165 0.978302 0.606883 0
M  V30 7 C 2.222574 1.164632 0.264916 0
M  V30 8 C 2.761688 0.861311 -0.992507 0
M  V30 9 C 1.892570 0.346688 -1.926783 0
M  V30 10 Cl 2.424576 -0.079355 -3.542696 0
M  V30 11 C 0.589821 0.163697 -1.590665 0
M  V30 12 C 0.041199 0.462083 -0.341706 0
M  V30 13 N -1.309561 -1.476099 2.045469 0
M  V30 14 H 1.173937 2.250620 2.315209 0
M  V30 15 H -0.506732 1.685345 1.977457 0
M  V30 16 H 2.975927 1.567325 0.948886 0
M  V30 17 H 3.800874 1.015885 -1.235533 0
M  V30 18 H -0.137450 -0.242116 -2.300569 0
M  V30 19 H -0.968226 0.340021 -0.033165 0
M  V30 20 H -2.199747 -1.485877 1.508019 0
M  V30 21 H -2.003603 -0.997622 2.637383 0
M  V30 END ATOM
M  V30 BEGIN BOND
M  V30 1 1 1 2
M  V30 2 2 2 3
M  V30 3 1 3 4
M  V30 4 1 4 5
M  V30 5 1 5 6
M  V30 6 2 6 7
M  V30 7 1 7 8
M  V30 8 2 8 9
M  V30 9 1 9 10
M  V30 10 1 9 11
M  V30 11 2 11 12
M  V30 12 1 3 13
M  V30 13 1 12 6
M  V30 14 1 5 14
M  V30 15 1 5 15
M  V30 16 1 7 16
M  V30 17 1 8 17
M  V30 18 1 11 18
M  V30 19 1 12 19
M  V30 20 1 13 20
M  V30 21 1 13 21
M  V30 END BOND
M  V30 END CTAB
M  END
>  <Dataset>  (65) 
PDB

>  <Ligand_Instance>  (65) 
5N32_8K5_A_401

>  <PDB_ID>  (65) 
5N32

>  <Standardized_SMILES>  (65) 
[H]/N=C(/SC([H])([H])C1=C([H])C([H])=C(Cl)C([H])=C1[H])N([H])[H]

>  <Name>  (65) 
[azanyl-[(4-chlorophenyl)methylsulfanyl]methylidene]azanium

>  <Pocket>  (65) 
A

>  <ATP_Site>  (65) 
1.0

>  <Peripheral>  (65) 
1.0

>  <Num_H_Atoms_ProtBoundConf>  (65) 
9.0

>  <Num_Resolved_Atoms>  (65) 
12.0

>  <Num_Not_Resolved_Atoms>  (65) 
0.0

>  <2D_Mol_H>  (65) 
<rdkit.Chem.rdchem.Mol object at 0x72a238dc6030>

>  <MW>  (65) 
200.694

>  <HBA>  (65) 
2

>  <HBD>  (65) 
2

>  <LogP>  (65) 
2.46667

>  <NRB>  (65) 
2

>  <TPSA>  (65) 
49.87

>  <Num_Heavy_Atoms>  (65) 
12

>  <Ro5>  (65) 
[True, True, True, True, True, True]

>  <Ro5_Fulfilled>  (65) 
True

>  <Ro3>  (65) 
[True, True, True, True]

>  <Ro3_Fulfilled>  (65) 
True

>  <Fsp3>  (65) 
0.125

>  <Fsp3_0.42>  (65) 
False

>  <Fsp3_0.45>  (65) 
False

>  <Stereogenic_Carbons>  (65) 
0

>  <C_Atoms>  (65) 
8

>  <FCStereo>  (65) 
0.0

>  <SPS>  (65) 
153

>  <nSPS>  (65) 
12.75

>  <PBF>  (65) 
0.799968

>  <PBF_0.6>  (65) 
True

>  <nPBF>  (65) 
0.066664

>  <nPBF_0.016>  (65) 
True

>  <PMI1>  (65) 
322.994335

>  <PMI2>  (65) 
1579.378142

>  <PMI3>  (65) 
1713.950817

>  <NPR1>  (65) 
0.18845

>  <NPR2>  (65) 
0.921484

>  <Sum_NPR>  (65) 
1.109934

>  <Sum_NPR_1.07>  (65) 
True

>  <Sum_NPR_1.2>  (65) 
False

>  <MaxAbsEStateIndex>  (65) 
6.62962

>  <MaxEStateIndex>  (65) 
6.62962

>  <MinAbsEStateIndex>  (65) 
0.273102

>  <MinEStateIndex>  (65) 
0.273102

>  <qed>  (65) 
0.569381

>  <MolWt>  (65) 
200.694

>  <HeavyAtomMolWt>  (65) 
191.622

>  <ExactMolWt>  (65) 
200.017497

>  <NumValenceElectrons>  (65) 
64

>  <NumRadicalElectrons>  (65) 
0

>  <MaxPartialCharge>  (65) 
0.189944

>  <MinPartialCharge>  (65) 
-0.378707

>  <MaxAbsPartialCharge>  (65) 
0.378707

>  <MinAbsPartialCharge>  (65) 
0.189944

>  <FpDensityMorgan1>  (65) 
1.583333

>  <FpDensityMorgan2>  (65) 
2.25

>  <FpDensityMorgan3>  (65) 
2.833333

>  <BCUT2D_MWHI>  (65) 
35.495691

>  <BCUT2D_MWLOW>  (65) 
0.931263

>  <BCUT2D_CHGHI>  (65) 
1.952071

>  <BCUT2D_CHGLO>  (65) 
-1.996087

>  <BCUT2D_LOGPHI>  (65) 
2.145201

>  <BCUT2D_LOGPLOW>  (65) 
-2.053645

>  <BCUT2D_MRHI>  (65) 
8.125292

>  <BCUT2D_MRLOW>  (65) 
0.244224

>  <AvgIpc>  (65) 
2.163527

>  <BalabanJ>  (65) 
2.505806

>  <BertzCT>  (65) 
299.517266

>  <Chi0>  (65) 
9.681798

>  <Chi0n>  (65) 
7.327284

>  <Chi0v>  (65) 
7.89971

>  <Chi1>  (65) 
6.219545

>  <Chi1n>  (65) 
3.816198

>  <Chi1v>  (65) 
4.732547

>  <Chi2n>  (65) 
2.253379

>  <Chi2v>  (65) 
3.685441

>  <Chi3n>  (65) 
1.299976

>  <Chi3v>  (65) 
2.325389

>  <Chi4n>  (65) 
0.737906

>  <Chi4v>  (65) 
1.370894

>  <HallKierAlpha>  (65) 
-0.67

>  <Ipc>  (65) 
908.681253

>  <Kappa1>  (65) 
7.952513

>  <Kappa2>  (65) 
4.378963

>  <Kappa3>  (65) 
3.152675

>  <LabuteASA>  (65) 
82.075932

>  <PEOE_VSA1>  (65) 
5.733667

>  <PEOE_VSA10>  (65) 
0.0

>  <PEOE_VSA11>  (65) 
6.579494

>  <PEOE_VSA12>  (65) 
0.0

>  <PEOE_VSA13>  (65) 
0.0

>  <PEOE_VSA14>  (65) 
0.0

>  <PEOE_VSA2>  (65) 
5.402308

>  <PEOE_VSA3>  (65) 
0.0

>  <PEOE_VSA4>  (65) 
0.0

>  <PEOE_VSA5>  (65) 
0.0

>  <PEOE_VSA6>  (65) 
35.495559

>  <PEOE_VSA7>  (65) 
17.696186

>  <PEOE_VSA8>  (65) 
10.775487

>  <PEOE_VSA9>  (65) 
0.0

>  <SMR_VSA1>  (65) 
1.411842

>  <SMR_VSA10>  (65) 
28.530477

>  <SMR_VSA2>  (65) 
5.402308

>  <SMR_VSA3>  (65) 
0.0

>  <SMR_VSA4>  (65) 
5.733667

>  <SMR_VSA5>  (65) 
5.752854

>  <SMR_VSA6>  (65) 
0.0

>  <SMR_VSA7>  (65) 
34.851553

>  <SMR_VSA8>  (65) 
0.0

>  <SMR_VSA9>  (65) 
0.0

>  <SlogP_VSA1>  (65) 
5.733667

>  <SlogP_VSA10>  (65) 
0.0

>  <SlogP_VSA11>  (65) 
0.0

>  <SlogP_VSA12>  (65) 
23.362825

>  <SlogP_VSA2>  (65) 
5.167652

>  <SlogP_VSA3>  (65) 
5.752854

>  <SlogP_VSA4>  (65) 
5.402308

>  <SlogP_VSA5>  (65) 
5.563451

>  <SlogP_VSA6>  (65) 
24.265468

>  <SlogP_VSA7>  (65) 
6.434475

>  <SlogP_VSA8>  (65) 
0.0

>  <SlogP_VSA9>  (65) 
0.0

>  <EState_VSA1>  (65) 
0.0

>  <EState_VSA10>  (65) 
0.0

>  <EState_VSA11>  (65) 
0.0

>  <EState_VSA2>  (65) 
5.167652

>  <EState_VSA3>  (65) 
5.752854

>  <EState_VSA4>  (65) 
10.586085

>  <EState_VSA5>  (65) 
11.761885

>  <EState_VSA6>  (65) 
0.0

>  <EState_VSA7>  (65) 
24.265468

>  <EState_VSA8>  (65) 
5.402308

>  <EState_VSA9>  (65) 
18.746449

>  <VSA_EState1>  (65) 
6.62962

>  <VSA_EState10>  (65) 
7.048978

>  <VSA_EState2>  (65) 
0.0

>  <VSA_EState3>  (65) 
4.093933

>  <VSA_EState4>  (65) 
6.462136

>  <VSA_EState5>  (65) 
0.713673

>  <VSA_EState6>  (65) 
7.496105

>  <VSA_EState7>  (65) 
0.0

>  <VSA_EState8>  (65) 
0.0

>  <VSA_EState9>  (65) 
0.0

>  <FractionCSP3>  (65) 
0.125

>  <HeavyAtomCount>  (65) 
12

>  <NHOHCount>  (65) 
3

>  <NOCount>  (65) 
2

>  <NumAliphaticCarbocycles>  (65) 
0

>  <NumAliphaticHeterocycles>  (65) 
0

>  <NumAliphaticRings>  (65) 
0

>  <NumAromaticCarbocycles>  (65) 
1

>  <NumAromaticHeterocycles>  (65) 
0

>  <NAR>  (65) 
1

>  <NumHAcceptors>  (65) 
2

>  <NumHDonors>  (65) 
2

>  <NumHeteroatoms>  (65) 
4

>  <NumRotatableBonds>  (65) 
2

>  <NumSaturatedCarbocycles>  (65) 
0

>  <NumSaturatedHeterocycles>  (65) 
0

>  <NumSaturatedRings>  (65) 
0

>  <RingCount>  (65) 
1

>  <MolLogP>  (65) 
2.46667

>  <MolMR>  (65) 
54.6611

>  <fr_Al_COO>  (65) 
0

>  <fr_Al_OH>  (65) 
0

>  <fr_Al_OH_noTert>  (65) 
0

>  <fr_ArN>  (65) 
0

>  <fr_Ar_COO>  (65) 
0

>  <fr_Ar_N>  (65) 
0

>  <fr_Ar_NH>  (65) 
0

>  <fr_Ar_OH>  (65) 
0

>  <fr_COO>  (65) 
0

>  <fr_COO2>  (65) 
0

>  <fr_C_O>  (65) 
0

>  <fr_C_O_noCOO>  (65) 
0

>  <fr_C_S>  (65) 
0

>  <fr_HOCCN>  (65) 
0

>  <fr_Imine>  (65) 
0

>  <fr_NH0>  (65) 
0

>  <fr_NH1>  (65) 
1

>  <fr_NH2>  (65) 
1

>  <fr_N_O>  (65) 
0

>  <fr_Ndealkylation1>  (65) 
0

>  <fr_Ndealkylation2>  (65) 
0

>  <fr_Nhpyrrole>  (65) 
0

>  <fr_SH>  (65) 
0

>  <fr_aldehyde>  (65) 
0

>  <fr_alkyl_carbamate>  (65) 
0

>  <fr_alkyl_halide>  (65) 
0

>  <fr_allylic_oxid>  (65) 
0

>  <fr_amide>  (65) 
0

>  <fr_amidine>  (65) 
1

>  <fr_aniline>  (65) 
0

>  <fr_aryl_methyl>  (65) 
0

>  <fr_azide>  (65) 
0

>  <fr_azo>  (65) 
0

>  <fr_barbitur>  (65) 
0

>  <fr_benzene>  (65) 
1

>  <fr_benzodiazepine>  (65) 
0

>  <fr_bicyclic>  (65) 
0

>  <fr_diazo>  (65) 
0

>  <fr_dihydropyridine>  (65) 
0

>  <fr_epoxide>  (65) 
0

>  <fr_ester>  (65) 
0

>  <fr_ether>  (65) 
0

>  <fr_furan>  (65) 
0

>  <fr_guanido>  (65) 
0

>  <fr_halogen>  (65) 
1

>  <fr_hdrzine>  (65) 
0

>  <fr_hdrzone>  (65) 
0

>  <fr_imidazole>  (65) 
0

>  <fr_imide>  (65) 
0

>  <fr_isocyan>  (65) 
0

>  <fr_isothiocyan>  (65) 
0

>  <fr_ketone>  (65) 
0

>  <fr_ketone_Topliss>  (65) 
0

>  <fr_lactam>  (65) 
0

>  <fr_lactone>  (65) 
0

>  <fr_methoxy>  (65) 
0

>  <fr_morpholine>  (65) 
0

>  <fr_nitrile>  (65) 
0

>  <fr_nitro>  (65) 
0

>  <fr_nitro_arom>  (65) 
0

>  <fr_nitro_arom_nonortho>  (65) 
0

>  <fr_nitroso>  (65) 
0

>  <fr_oxazole>  (65) 
0

>  <fr_oxime>  (65) 
0

>  <fr_para_hydroxylation>  (65) 
0

>  <fr_phenol>  (65) 
0

>  <fr_phenol_noOrthoHbond>  (65) 
0

>  <fr_phos_acid>  (65) 
0

>  <fr_phos_ester>  (65) 
0

>  <fr_piperdine>  (65) 
0

>  <fr_piperzine>  (65) 
0

>  <fr_priamide>  (65) 
0

>  <fr_prisulfonamd>  (65) 
0

>  <fr_pyridine>  (65) 
0

>  <fr_quatN>  (65) 
0

>  <fr_sulfide>  (65) 
1

>  <fr_sulfonamd>  (65) 
0

>  <fr_sulfone>  (65) 
0

>  <fr_term_acetylene>  (65) 
0

>  <fr_tetrazole>  (65) 
0

>  <fr_thiazole>  (65) 
0

>  <fr_thiocyan>  (65) 
0

>  <fr_thiophene>  (65) 
0

>  <fr_unbrch_alkane>  (65) 
0

>  <fr_urea>  (65) 
0

>  <NP-Likeness>  (65) 
-1.178662

$$$$
8K5
     RDKit          3D

  0  0  0  0  0  0  0  0  0  0999 V3000
M  V30 BEGIN CTAB
M  V30 COUNTS 21 21 0 0 0
M  V30 BEGIN ATOM
M  V30 1 H -0.672662 -3.124465 3.819940 0
M  V30 2 N -0.067936 -2.271272 3.850968 0
M  V30 3 C -0.268313 -1.312740 2.992153 0
M  V30 4 S 0.827534 0.056725 3.168865 0
M  V30 5 C 0.575205 1.382076 1.996035 0
M  V30 6 C 0.896165 0.978302 0.606883 0
M  V30 7 C 2.222574 1.164632 0.264916 0
M  V30 8 C 2.761688 0.861311 -0.992507 0
M  V30 9 C 1.892570 0.346688 -1.926783 0
M  V30 10 Cl 2.424576 -0.079355 -3.542696 0
M  V30 11 C 0.589821 0.163697 -1.590665 0
M  V30 12 C 0.041199 0.462083 -0.341706 0
M  V30 13 N -1.309561 -1.476099 2.045469 0
M  V30 14 H 1.173937 2.250620 2.315209 0
M  V30 15 H -0.506732 1.685345 1.977457 0
M  V30 16 H 2.975927 1.567325 0.948886 0
M  V30 17 H 3.800874 1.015885 -1.235533 0
M  V30 18 H -0.137450 -0.242116 -2.300569 0
M  V30 19 H -0.968226 0.340021 -0.033165 0
M  V30 20 H -2.199747 -1.485877 1.508019 0
M  V30 21 H -2.003603 -0.997622 2.637383 0
M  V30 END ATOM
M  V30 BEGIN BOND
M  V30 1 1 1 2
M  V30 2 2 2 3
M  V30 3 1 3 4
M  V30 4 1 4 5
M  V30 5 1 5 6
M  V30 6 2 6 7
M  V30 7 1 7 8
M  V30 8 2 8 9
M  V30 9 1 9 10
M  V30 10 1 9 11
M  V30 11 2 11 12
M  V30 12 1 3 13
M  V30 13 1 12 6
M  V30 14 1 5 14
M  V30 15 1 5 15
M  V30 16 1 7 16
M  V30 17 1 8 17
M  V30 18 1 11 18
M  V30 19 1 12 19
M  V30 20 1 13 20
M  V30 21 1 13 21
M  V30 END BOND
M  V30 END CTAB
M  END
>  <Dataset>  (66) 
PDB

>  <Ligand_Instance>  (66) 
5N32_8K5_A_402

>  <PDB_ID>  (66) 
5N32

>  <Standardized_SMILES>  (66) 
[H]/N=C(/SC([H])([H])C1=C([H])C([H])=C(Cl)C([H])=C1[H])N([H])[H]

>  <Name>  (66) 
[azanyl-[(4-chlorophenyl)methylsulfanyl]methylidene]azanium

>  <Pocket>  (66) 
X

>  <ATP_Site>  (66) 
1.0

>  <Peripheral>  (66) 
1.0

>  <Num_H_Atoms_ProtBoundConf>  (66) 
9.0

>  <Num_Resolved_Atoms>  (66) 
12.0

>  <Num_Not_Resolved_Atoms>  (66) 
0.0

>  <2D_Mol_H>  (66) 
<rdkit.Chem.rdchem.Mol object at 0x72a238dc6110>

>  <MW>  (66) 
200.694

>  <HBA>  (66) 
2

>  <HBD>  (66) 
2

>  <LogP>  (66) 
2.46667

>  <NRB>  (66) 
2

>  <TPSA>  (66) 
49.87

>  <Num_Heavy_Atoms>  (66) 
12

>  <Ro5>  (66) 
[True, True, True, True, True, True]

>  <Ro5_Fulfilled>  (66) 
True

>  <Ro3>  (66) 
[True, True, True, True]

>  <Ro3_Fulfilled>  (66) 
True

>  <Fsp3>  (66) 
0.125

>  <Fsp3_0.42>  (66) 
False

>  <Fsp3_0.45>  (66) 
False

>  <Stereogenic_Carbons>  (66) 
0

>  <C_Atoms>  (66) 
8

>  <FCStereo>  (66) 
0.0

>  <SPS>  (66) 
153

>  <nSPS>  (66) 
12.75

>  <PBF>  (66) 
0.799968

>  <PBF_0.6>  (66) 
True

>  <nPBF>  (66) 
0.066664

>  <nPBF_0.016>  (66) 
True

>  <PMI1>  (66) 
322.994335

>  <PMI2>  (66) 
1579.378142

>  <PMI3>  (66) 
1713.950817

>  <NPR1>  (66) 
0.18845

>  <NPR2>  (66) 
0.921484

>  <Sum_NPR>  (66) 
1.109934

>  <Sum_NPR_1.07>  (66) 
True

>  <Sum_NPR_1.2>  (66) 
False

>  <MaxAbsEStateIndex>  (66) 
6.62962

>  <MaxEStateIndex>  (66) 
6.62962

>  <MinAbsEStateIndex>  (66) 
0.273102

>  <MinEStateIndex>  (66) 
0.273102

>  <qed>  (66) 
0.569381

>  <MolWt>  (66) 
200.694

>  <HeavyAtomMolWt>  (66) 
191.622

>  <ExactMolWt>  (66) 
200.017497

>  <NumValenceElectrons>  (66) 
64

>  <NumRadicalElectrons>  (66) 
0

>  <MaxPartialCharge>  (66) 
0.189944

>  <MinPartialCharge>  (66) 
-0.378707

>  <MaxAbsPartialCharge>  (66) 
0.378707

>  <MinAbsPartialCharge>  (66) 
0.189944

>  <FpDensityMorgan1>  (66) 
1.583333

>  <FpDensityMorgan2>  (66) 
2.25

>  <FpDensityMorgan3>  (66) 
2.833333

>  <BCUT2D_MWHI>  (66) 
35.495691

>  <BCUT2D_MWLOW>  (66) 
0.931263

>  <BCUT2D_CHGHI>  (66) 
1.952071

>  <BCUT2D_CHGLO>  (66) 
-1.996087

>  <BCUT2D_LOGPHI>  (66) 
2.145201

>  <BCUT2D_LOGPLOW>  (66) 
-2.053645

>  <BCUT2D_MRHI>  (66) 
8.125292

>  <BCUT2D_MRLOW>  (66) 
0.244224

>  <AvgIpc>  (66) 
2.163527

>  <BalabanJ>  (66) 
2.505806

>  <BertzCT>  (66) 
299.517266

>  <Chi0>  (66) 
9.681798

>  <Chi0n>  (66) 
7.327284

>  <Chi0v>  (66) 
7.89971

>  <Chi1>  (66) 
6.219545

>  <Chi1n>  (66) 
3.816198

>  <Chi1v>  (66) 
4.732547

>  <Chi2n>  (66) 
2.253379

>  <Chi2v>  (66) 
3.685441

>  <Chi3n>  (66) 
1.299976

>  <Chi3v>  (66) 
2.325389

>  <Chi4n>  (66) 
0.737906

>  <Chi4v>  (66) 
1.370894

>  <HallKierAlpha>  (66) 
-0.67

>  <Ipc>  (66) 
908.681253

>  <Kappa1>  (66) 
7.952513

>  <Kappa2>  (66) 
4.378963

>  <Kappa3>  (66) 
3.152675

>  <LabuteASA>  (66) 
82.075932

>  <PEOE_VSA1>  (66) 
5.733667

>  <PEOE_VSA10>  (66) 
0.0

>  <PEOE_VSA11>  (66) 
6.579494

>  <PEOE_VSA12>  (66) 
0.0

>  <PEOE_VSA13>  (66) 
0.0

>  <PEOE_VSA14>  (66) 
0.0

>  <PEOE_VSA2>  (66) 
5.402308

>  <PEOE_VSA3>  (66) 
0.0

>  <PEOE_VSA4>  (66) 
0.0

>  <PEOE_VSA5>  (66) 
0.0

>  <PEOE_VSA6>  (66) 
35.495559

>  <PEOE_VSA7>  (66) 
17.696186

>  <PEOE_VSA8>  (66) 
10.775487

>  <PEOE_VSA9>  (66) 
0.0

>  <SMR_VSA1>  (66) 
1.411842

>  <SMR_VSA10>  (66) 
28.530477

>  <SMR_VSA2>  (66) 
5.402308

>  <SMR_VSA3>  (66) 
0.0

>  <SMR_VSA4>  (66) 
5.733667

>  <SMR_VSA5>  (66) 
5.752854

>  <SMR_VSA6>  (66) 
0.0

>  <SMR_VSA7>  (66) 
34.851553

>  <SMR_VSA8>  (66) 
0.0

>  <SMR_VSA9>  (66) 
0.0

>  <SlogP_VSA1>  (66) 
5.733667

>  <SlogP_VSA10>  (66) 
0.0

>  <SlogP_VSA11>  (66) 
0.0

>  <SlogP_VSA12>  (66) 
23.362825

>  <SlogP_VSA2>  (66) 
5.167652

>  <SlogP_VSA3>  (66) 
5.752854

>  <SlogP_VSA4>  (66) 
5.402308

>  <SlogP_VSA5>  (66) 
5.563451

>  <SlogP_VSA6>  (66) 
24.265468

>  <SlogP_VSA7>  (66) 
6.434475

>  <SlogP_VSA8>  (66) 
0.0

>  <SlogP_VSA9>  (66) 
0.0

>  <EState_VSA1>  (66) 
0.0

>  <EState_VSA10>  (66) 
0.0

>  <EState_VSA11>  (66) 
0.0

>  <EState_VSA2>  (66) 
5.167652

>  <EState_VSA3>  (66) 
5.752854

>  <EState_VSA4>  (66) 
10.586085

>  <EState_VSA5>  (66) 
11.761885

>  <EState_VSA6>  (66) 
0.0

>  <EState_VSA7>  (66) 
24.265468

>  <EState_VSA8>  (66) 
5.402308

>  <EState_VSA9>  (66) 
18.746449

>  <VSA_EState1>  (66) 
6.62962

>  <VSA_EState10>  (66) 
7.048978

>  <VSA_EState2>  (66) 
0.0

>  <VSA_EState3>  (66) 
4.093933

>  <VSA_EState4>  (66) 
6.462136

>  <VSA_EState5>  (66) 
0.713673

>  <VSA_EState6>  (66) 
7.496105

>  <VSA_EState7>  (66) 
0.0

>  <VSA_EState8>  (66) 
0.0

>  <VSA_EState9>  (66) 
0.0

>  <FractionCSP3>  (66) 
0.125

>  <HeavyAtomCount>  (66) 
12

>  <NHOHCount>  (66) 
3

>  <NOCount>  (66) 
2

>  <NumAliphaticCarbocycles>  (66) 
0

>  <NumAliphaticHeterocycles>  (66) 
0

>  <NumAliphaticRings>  (66) 
0

>  <NumAromaticCarbocycles>  (66) 
1

>  <NumAromaticHeterocycles>  (66) 
0

>  <NAR>  (66) 
1

>  <NumHAcceptors>  (66) 
2

>  <NumHDonors>  (66) 
2

>  <NumHeteroatoms>  (66) 
4

>  <NumRotatableBonds>  (66) 
2

>  <NumSaturatedCarbocycles>  (66) 
0

>  <NumSaturatedHeterocycles>  (66) 
0

>  <NumSaturatedRings>  (66) 
0

>  <RingCount>  (66) 
1

>  <MolLogP>  (66) 
2.46667

>  <MolMR>  (66) 
54.6611

>  <fr_Al_COO>  (66) 
0

>  <fr_Al_OH>  (66) 
0

>  <fr_Al_OH_noTert>  (66) 
0

>  <fr_ArN>  (66) 
0

>  <fr_Ar_COO>  (66) 
0

>  <fr_Ar_N>  (66) 
0

>  <fr_Ar_NH>  (66) 
0

>  <fr_Ar_OH>  (66) 
0

>  <fr_COO>  (66) 
0

>  <fr_COO2>  (66) 
0

>  <fr_C_O>  (66) 
0

>  <fr_C_O_noCOO>  (66) 
0

>  <fr_C_S>  (66) 
0

>  <fr_HOCCN>  (66) 
0

>  <fr_Imine>  (66) 
0

>  <fr_NH0>  (66) 
0

>  <fr_NH1>  (66) 
1

>  <fr_NH2>  (66) 
1

>  <fr_N_O>  (66) 
0

>  <fr_Ndealkylation1>  (66) 
0

>  <fr_Ndealkylation2>  (66) 
0

>  <fr_Nhpyrrole>  (66) 
0

>  <fr_SH>  (66) 
0

>  <fr_aldehyde>  (66) 
0

>  <fr_alkyl_carbamate>  (66) 
0

>  <fr_alkyl_halide>  (66) 
0

>  <fr_allylic_oxid>  (66) 
0

>  <fr_amide>  (66) 
0

>  <fr_amidine>  (66) 
1

>  <fr_aniline>  (66) 
0

>  <fr_aryl_methyl>  (66) 
0

>  <fr_azide>  (66) 
0

>  <fr_azo>  (66) 
0

>  <fr_barbitur>  (66) 
0

>  <fr_benzene>  (66) 
1

>  <fr_benzodiazepine>  (66) 
0

>  <fr_bicyclic>  (66) 
0

>  <fr_diazo>  (66) 
0

>  <fr_dihydropyridine>  (66) 
0

>  <fr_epoxide>  (66) 
0

>  <fr_ester>  (66) 
0

>  <fr_ether>  (66) 
0

>  <fr_furan>  (66) 
0

>  <fr_guanido>  (66) 
0

>  <fr_halogen>  (66) 
1

>  <fr_hdrzine>  (66) 
0

>  <fr_hdrzone>  (66) 
0

>  <fr_imidazole>  (66) 
0

>  <fr_imide>  (66) 
0

>  <fr_isocyan>  (66) 
0

>  <fr_isothiocyan>  (66) 
0

>  <fr_ketone>  (66) 
0

>  <fr_ketone_Topliss>  (66) 
0

>  <fr_lactam>  (66) 
0

>  <fr_lactone>  (66) 
0

>  <fr_methoxy>  (66) 
0

>  <fr_morpholine>  (66) 
0

>  <fr_nitrile>  (66) 
0

>  <fr_nitro>  (66) 
0

>  <fr_nitro_arom>  (66) 
0

>  <fr_nitro_arom_nonortho>  (66) 
0

>  <fr_nitroso>  (66) 
0

>  <fr_oxazole>  (66) 
0

>  <fr_oxime>  (66) 
0

>  <fr_para_hydroxylation>  (66) 
0

>  <fr_phenol>  (66) 
0

>  <fr_phenol_noOrthoHbond>  (66) 
0

>  <fr_phos_acid>  (66) 
0

>  <fr_phos_ester>  (66) 
0

>  <fr_piperdine>  (66) 
0

>  <fr_piperzine>  (66) 
0

>  <fr_priamide>  (66) 
0

>  <fr_prisulfonamd>  (66) 
0

>  <fr_pyridine>  (66) 
0

>  <fr_quatN>  (66) 
0

>  <fr_sulfide>  (66) 
1

>  <fr_sulfonamd>  (66) 
0

>  <fr_sulfone>  (66) 
0

>  <fr_term_acetylene>  (66) 
0

>  <fr_tetrazole>  (66) 
0

>  <fr_thiazole>  (66) 
0

>  <fr_thiocyan>  (66) 
0

>  <fr_thiophene>  (66) 
0

>  <fr_unbrch_alkane>  (66) 
0

>  <fr_urea>  (66) 
0

>  <NP-Likeness>  (66) 
-1.178662

$$$$
8KB
     RDKit          3D

  0  0  0  0  0  0  0  0  0  0999 V3000
M  V30 BEGIN CTAB
M  V30 COUNTS 20 20 0 0 0
M  V30 BEGIN ATOM
M  V30 1 O -1.114759 0.602365 -1.166723 0
M  V30 2 C -0.139681 0.351601 -0.217755 0 CFG=1
M  V30 3 C -0.590393 0.926581 1.093222 0
M  V30 4 O 0.340945 0.797181 2.105367 0
M  V30 5 C 1.647283 0.719827 1.665989 0
M  V30 6 C 2.046885 -0.614302 1.130878 0
M  V30 7 N 0.964784 -1.531067 0.926917 0 CHG=1 VAL=4
M  V30 8 C 0.002466 -1.130906 -0.052097 0
M  V30 9 H -0.686564 0.538943 -2.067984 0
M  V30 10 H 0.805019 0.751540 -0.597870 0
M  V30 11 H -1.482872 0.328253 1.409523 0
M  V30 12 H -0.963786 1.968874 0.976655 0
M  V30 13 H 1.907076 1.533687 0.939377 0
M  V30 14 H 2.286787 0.961739 2.559757 0
M  V30 15 H 2.757302 -1.128339 1.832624 0
M  V30 16 H 2.643157 -0.466721 0.196019 0
M  V30 17 H 1.405030 -2.418341 0.573550 0
M  V30 18 H 0.562778 -1.783064 1.855708 0
M  V30 19 H 0.162219 -1.565480 -1.056505 0
M  V30 20 H -0.993581 -1.513491 0.286784 0
M  V30 END ATOM
M  V30 BEGIN BOND
M  V30 1 1 1 2
M  V30 2 1 2 3
M  V30 3 1 3 4
M  V30 4 1 4 5
M  V30 5 1 5 6
M  V30 6 1 6 7
M  V30 7 1 7 8
M  V30 8 1 8 2
M  V30 9 1 1 9
M  V30 10 1 2 10 CFG=3
M  V30 11 1 3 11
M  V30 12 1 3 12
M  V30 13 1 5 13
M  V30 14 1 5 14
M  V30 15 1 6 15
M  V30 16 1 6 16
M  V30 17 1 7 17
M  V30 18 1 7 18
M  V30 19 1 8 19
M  V30 20 1 8 20
M  V30 END BOND
M  V30 END CTAB
M  END
>  <Dataset>  (67) 
PDB

>  <Ligand_Instance>  (67) 
5N3G_8KB_A_401

>  <PDB_ID>  (67) 
5N3G

>  <Standardized_SMILES>  (67) 
[H]O[C@@]1([H])C([H])([H])OC([H])([H])C([H])([H])[N+]([H])([H])C1([H])[H]

>  <Name>  (67) 
(6~{R})-1,4-oxazepan-6-ol

>  <Pocket>  (67) 
B

>  <ATP_Site>  (67) 
0.0

>  <Peripheral>  (67) 
1.0

>  <Num_H_Atoms_ProtBoundConf>  (67) 
12.0

>  <Num_Resolved_Atoms>  (67) 
8.0

>  <Num_Not_Resolved_Atoms>  (67) 
0.0

>  <2D_Mol_H>  (67) 
<rdkit.Chem.rdchem.Mol object at 0x72a238dc61f0>

>  <MW>  (67) 
118.156

>  <HBA>  (67) 
2

>  <HBD>  (67) 
2

>  <LogP>  (67) 
-2.0591

>  <NRB>  (67) 
1

>  <TPSA>  (67) 
46.07

>  <Num_Heavy_Atoms>  (67) 
8

>  <Ro5>  (67) 
[True, True, True, True, True, True]

>  <Ro5_Fulfilled>  (67) 
True

>  <Ro3>  (67) 
[True, True, True, True]

>  <Ro3_Fulfilled>  (67) 
True

>  <Fsp3>  (67) 
1.0

>  <Fsp3_0.42>  (67) 
True

>  <Fsp3_0.45>  (67) 
True

>  <Stereogenic_Carbons>  (67) 
1

>  <C_Atoms>  (67) 
5

>  <FCStereo>  (67) 
0.2

>  <SPS>  (67) 
255

>  <nSPS>  (67) 
31.875

>  <PBF>  (67) 
0.728679

>  <PBF_0.6>  (67) 
True

>  <nPBF>  (67) 
0.091085

>  <nPBF_0.016>  (67) 
True

>  <PMI1>  (67) 
163.79302

>  <PMI2>  (67) 
260.012923

>  <PMI3>  (67) 
348.580398

>  <NPR1>  (67) 
0.469886

>  <NPR2>  (67) 
0.74592

>  <Sum_NPR>  (67) 
1.215805

>  <Sum_NPR_1.07>  (67) 
True

>  <Sum_NPR_1.2>  (67) 
True

>  <MaxAbsEStateIndex>  (67) 
8.932917

>  <MaxEStateIndex>  (67) 
8.932917

>  <MinAbsEStateIndex>  (67) 
0.252315

>  <MinEStateIndex>  (67) 
-0.252315

>  <qed>  (67) 
0.384056

>  <MolWt>  (67) 
118.156

>  <HeavyAtomMolWt>  (67) 
106.06

>  <ExactMolWt>  (67) 
118.086255

>  <NumValenceElectrons>  (67) 
48

>  <NumRadicalElectrons>  (67) 
0

>  <MaxPartialCharge>  (67) 
0.12593

>  <MinPartialCharge>  (67) 
-0.384815

>  <MaxAbsPartialCharge>  (67) 
0.384815

>  <MinAbsPartialCharge>  (67) 
0.12593

>  <FpDensityMorgan1>  (67) 
1.625

>  <FpDensityMorgan2>  (67) 
2.5

>  <FpDensityMorgan3>  (67) 
3.375

>  <BCUT2D_MWHI>  (67) 
16.487347

>  <BCUT2D_MWLOW>  (67) 
10.377861

>  <BCUT2D_CHGHI>  (67) 
2.086955

>  <BCUT2D_CHGLO>  (67) 
-1.997295

>  <BCUT2D_LOGPHI>  (67) 
1.816217

>  <BCUT2D_LOGPLOW>  (67) 
-2.860342

>  <BCUT2D_MRHI>  (67) 
4.497547

>  <BCUT2D_MRLOW>  (67) 
-0.656812

>  <AvgIpc>  (67) 
1.940878

>  <BalabanJ>  (67) 
2.165964

>  <BertzCT>  (67) 
59.44901

>  <Chi0>  (67) 
5.819991

>  <Chi0n>  (67) 
4.83859

>  <Chi0v>  (67) 
4.83859

>  <Chi1>  (67) 
3.893847

>  <Chi1n>  (67) 
2.968542

>  <Chi1v>  (67) 
2.968542

>  <Chi2n>  (67) 
2.041791

>  <Chi2v>  (67) 
2.041791

>  <Chi3n>  (67) 
1.215293

>  <Chi3v>  (67) 
1.215293

>  <Chi4n>  (67) 
0.764317

>  <Chi4v>  (67) 
0.764317

>  <HallKierAlpha>  (67) 
-0.12

>  <Ipc>  (67) 
85.398652

>  <Kappa1>  (67) 
6.006904

>  <Kappa2>  (67) 
3.016596

>  <Kappa3>  (67) 
1.775788

>  <LabuteASA>  (67) 
48.650829

>  <PEOE_VSA1>  (67) 
15.160179

>  <PEOE_VSA10>  (67) 
12.648723

>  <PEOE_VSA11>  (67) 
0.0

>  <PEOE_VSA12>  (67) 
0.0

>  <PEOE_VSA13>  (67) 
0.0

>  <PEOE_VSA14>  (67) 
0.0

>  <PEOE_VSA2>  (67) 
0.0

>  <PEOE_VSA3>  (67) 
0.0

>  <PEOE_VSA4>  (67) 
0.0

>  <PEOE_VSA5>  (67) 
0.0

>  <PEOE_VSA6>  (67) 
0.0

>  <PEOE_VSA7>  (67) 
0.0

>  <PEOE_VSA8>  (67) 
0.0

>  <PEOE_VSA9>  (67) 
19.75852

>  <SMR_VSA1>  (67) 
15.160179

>  <SMR_VSA10>  (67) 
0.0

>  <SMR_VSA2>  (67) 
0.0

>  <SMR_VSA3>  (67) 
0.0

>  <SMR_VSA4>  (67) 
0.0

>  <SMR_VSA5>  (67) 
6.103966

>  <SMR_VSA6>  (67) 
26.303277

>  <SMR_VSA7>  (67) 
0.0

>  <SMR_VSA8>  (67) 
0.0

>  <SMR_VSA9>  (67) 
0.0

>  <SlogP_VSA1>  (67) 
5.316789

>  <SlogP_VSA10>  (67) 
0.0

>  <SlogP_VSA11>  (67) 
0.0

>  <SlogP_VSA12>  (67) 
0.0

>  <SlogP_VSA2>  (67) 
37.513771

>  <SlogP_VSA3>  (67) 
4.736863

>  <SlogP_VSA4>  (67) 
0.0

>  <SlogP_VSA5>  (67) 
0.0

>  <SlogP_VSA6>  (67) 
0.0

>  <SlogP_VSA7>  (67) 
0.0

>  <SlogP_VSA8>  (67) 
0.0

>  <SlogP_VSA9>  (67) 
0.0

>  <EState_VSA1>  (67) 
0.0

>  <EState_VSA10>  (67) 
0.0

>  <EState_VSA11>  (67) 
0.0

>  <EState_VSA2>  (67) 
6.103966

>  <EState_VSA3>  (67) 
6.606882

>  <EState_VSA4>  (67) 
19.696395

>  <EState_VSA5>  (67) 
0.0

>  <EState_VSA6>  (67) 
0.0

>  <EState_VSA7>  (67) 
0.0

>  <EState_VSA8>  (67) 
5.316789

>  <EState_VSA9>  (67) 
9.84339

>  <VSA_EState1>  (67) 
5.025463

>  <VSA_EState10>  (67) 
0.0

>  <VSA_EState2>  (67) 
0.0

>  <VSA_EState3>  (67) 
11.000046

>  <VSA_EState4>  (67) 
0.0

>  <VSA_EState5>  (67) 
0.0

>  <VSA_EState6>  (67) 
0.0

>  <VSA_EState7>  (67) 
-0.252315

>  <VSA_EState8>  (67) 
3.060139

>  <VSA_EState9>  (67) 
0.0

>  <FractionCSP3>  (67) 
1.0

>  <HeavyAtomCount>  (67) 
8

>  <NHOHCount>  (67) 
3

>  <NOCount>  (67) 
3

>  <NumAliphaticCarbocycles>  (67) 
0

>  <NumAliphaticHeterocycles>  (67) 
1

>  <NumAliphaticRings>  (67) 
1

>  <NumAromaticCarbocycles>  (67) 
0

>  <NumAromaticHeterocycles>  (67) 
0

>  <NAR>  (67) 
0

>  <NumHAcceptors>  (67) 
2

>  <NumHDonors>  (67) 
2

>  <NumHeteroatoms>  (67) 
3

>  <NumRotatableBonds>  (67) 
0

>  <NumSaturatedCarbocycles>  (67) 
0

>  <NumSaturatedHeterocycles>  (67) 
1

>  <NumSaturatedRings>  (67) 
1

>  <RingCount>  (67) 
1

>  <MolLogP>  (67) 
-2.0591

>  <MolMR>  (67) 
28.4852

>  <fr_Al_COO>  (67) 
0

>  <fr_Al_OH>  (67) 
1

>  <fr_Al_OH_noTert>  (67) 
1

>  <fr_ArN>  (67) 
0

>  <fr_Ar_COO>  (67) 
0

>  <fr_Ar_N>  (67) 
0

>  <fr_Ar_NH>  (67) 
0

>  <fr_Ar_OH>  (67) 
0

>  <fr_COO>  (67) 
0

>  <fr_COO2>  (67) 
0

>  <fr_C_O>  (67) 
0

>  <fr_C_O_noCOO>  (67) 
0

>  <fr_C_S>  (67) 
0

>  <fr_HOCCN>  (67) 
0

>  <fr_Imine>  (67) 
0

>  <fr_NH0>  (67) 
0

>  <fr_NH1>  (67) 
0

>  <fr_NH2>  (67) 
1

>  <fr_N_O>  (67) 
0

>  <fr_Ndealkylation1>  (67) 
0

>  <fr_Ndealkylation2>  (67) 
0

>  <fr_Nhpyrrole>  (67) 
0

>  <fr_SH>  (67) 
0

>  <fr_aldehyde>  (67) 
0

>  <fr_alkyl_carbamate>  (67) 
0

>  <fr_alkyl_halide>  (67) 
0

>  <fr_allylic_oxid>  (67) 
0

>  <fr_amide>  (67) 
0

>  <fr_amidine>  (67) 
0

>  <fr_aniline>  (67) 
0

>  <fr_aryl_methyl>  (67) 
0

>  <fr_azide>  (67) 
0

>  <fr_azo>  (67) 
0

>  <fr_barbitur>  (67) 
0

>  <fr_benzene>  (67) 
0

>  <fr_benzodiazepine>  (67) 
0

>  <fr_bicyclic>  (67) 
0

>  <fr_diazo>  (67) 
0

>  <fr_dihydropyridine>  (67) 
0

>  <fr_epoxide>  (67) 
0

>  <fr_ester>  (67) 
0

>  <fr_ether>  (67) 
1

>  <fr_furan>  (67) 
0

>  <fr_guanido>  (67) 
0

>  <fr_halogen>  (67) 
0

>  <fr_hdrzine>  (67) 
0

>  <fr_hdrzone>  (67) 
0

>  <fr_imidazole>  (67) 
0

>  <fr_imide>  (67) 
0

>  <fr_isocyan>  (67) 
0

>  <fr_isothiocyan>  (67) 
0

>  <fr_ketone>  (67) 
0

>  <fr_ketone_Topliss>  (67) 
0

>  <fr_lactam>  (67) 
0

>  <fr_lactone>  (67) 
0

>  <fr_methoxy>  (67) 
0

>  <fr_morpholine>  (67) 
0

>  <fr_nitrile>  (67) 
0

>  <fr_nitro>  (67) 
0

>  <fr_nitro_arom>  (67) 
0

>  <fr_nitro_arom_nonortho>  (67) 
0

>  <fr_nitroso>  (67) 
0

>  <fr_oxazole>  (67) 
0

>  <fr_oxime>  (67) 
0

>  <fr_para_hydroxylation>  (67) 
0

>  <fr_phenol>  (67) 
0

>  <fr_phenol_noOrthoHbond>  (67) 
0

>  <fr_phos_acid>  (67) 
0

>  <fr_phos_ester>  (67) 
0

>  <fr_piperdine>  (67) 
0

>  <fr_piperzine>  (67) 
0

>  <fr_priamide>  (67) 
0

>  <fr_prisulfonamd>  (67) 
0

>  <fr_pyridine>  (67) 
0

>  <fr_quatN>  (67) 
1

>  <fr_sulfide>  (67) 
0

>  <fr_sulfonamd>  (67) 
0

>  <fr_sulfone>  (67) 
0

>  <fr_term_acetylene>  (67) 
0

>  <fr_tetrazole>  (67) 
0

>  <fr_thiazole>  (67) 
0

>  <fr_thiocyan>  (67) 
0

>  <fr_thiophene>  (67) 
0

>  <fr_unbrch_alkane>  (67) 
0

>  <fr_urea>  (67) 
0

>  <NP-Likeness>  (67) 
0.506486

$$$$
8KB
     RDKit          3D

  0  0  0  0  0  0  0  0  0  0999 V3000
M  V30 BEGIN CTAB
M  V30 COUNTS 20 20 0 0 0
M  V30 BEGIN ATOM
M  V30 1 O -1.114759 0.602365 -1.166723 0
M  V30 2 C -0.139681 0.351601 -0.217755 0 CFG=1
M  V30 3 C -0.590393 0.926581 1.093222 0
M  V30 4 O 0.340945 0.797181 2.105367 0
M  V30 5 C 1.647283 0.719827 1.665989 0
M  V30 6 C 2.046885 -0.614302 1.130878 0
M  V30 7 N 0.964784 -1.531067 0.926917 0 CHG=1 VAL=4
M  V30 8 C 0.002466 -1.130906 -0.052097 0
M  V30 9 H -0.686564 0.538943 -2.067984 0
M  V30 10 H 0.805019 0.751540 -0.597870 0
M  V30 11 H -1.482872 0.328253 1.409523 0
M  V30 12 H -0.963786 1.968874 0.976655 0
M  V30 13 H 1.907076 1.533687 0.939377 0
M  V30 14 H 2.286787 0.961739 2.559757 0
M  V30 15 H 2.757302 -1.128339 1.832624 0
M  V30 16 H 2.643157 -0.466721 0.196019 0
M  V30 17 H 1.405030 -2.418341 0.573550 0
M  V30 18 H 0.562778 -1.783064 1.855708 0
M  V30 19 H 0.162219 -1.565480 -1.056505 0
M  V30 20 H -0.993581 -1.513491 0.286784 0
M  V30 END ATOM
M  V30 BEGIN BOND
M  V30 1 1 1 2
M  V30 2 1 2 3
M  V30 3 1 3 4
M  V30 4 1 4 5
M  V30 5 1 5 6
M  V30 6 1 6 7
M  V30 7 1 7 8
M  V30 8 1 8 2
M  V30 9 1 1 9
M  V30 10 1 2 10 CFG=3
M  V30 11 1 3 11
M  V30 12 1 3 12
M  V30 13 1 5 13
M  V30 14 1 5 14
M  V30 15 1 6 15
M  V30 16 1 6 16
M  V30 17 1 7 17
M  V30 18 1 7 18
M  V30 19 1 8 19
M  V30 20 1 8 20
M  V30 END BOND
M  V30 END CTAB
M  END
>  <Dataset>  (68) 
PDB

>  <Ligand_Instance>  (68) 
5N3G_8KB_A_402

>  <PDB_ID>  (68) 
5N3G

>  <Standardized_SMILES>  (68) 
[H]O[C@@]1([H])C([H])([H])OC([H])([H])C([H])([H])[N+]([H])([H])C1([H])[H]

>  <Name>  (68) 
(6~{R})-1,4-oxazepan-6-ol

>  <Pocket>  (68) 
X

>  <ATP_Site>  (68) 
0.0

>  <Peripheral>  (68) 
1.0

>  <Num_H_Atoms_ProtBoundConf>  (68) 
12.0

>  <Num_Resolved_Atoms>  (68) 
8.0

>  <Num_Not_Resolved_Atoms>  (68) 
0.0

>  <2D_Mol_H>  (68) 
<rdkit.Chem.rdchem.Mol object at 0x72a238dc62d0>

>  <MW>  (68) 
118.156

>  <HBA>  (68) 
2

>  <HBD>  (68) 
2

>  <LogP>  (68) 
-2.0591

>  <NRB>  (68) 
1

>  <TPSA>  (68) 
46.07

>  <Num_Heavy_Atoms>  (68) 
8

>  <Ro5>  (68) 
[True, True, True, True, True, True]

>  <Ro5_Fulfilled>  (68) 
True

>  <Ro3>  (68) 
[True, True, True, True]

>  <Ro3_Fulfilled>  (68) 
True

>  <Fsp3>  (68) 
1.0

>  <Fsp3_0.42>  (68) 
True

>  <Fsp3_0.45>  (68) 
True

>  <Stereogenic_Carbons>  (68) 
1

>  <C_Atoms>  (68) 
5

>  <FCStereo>  (68) 
0.2

>  <SPS>  (68) 
255

>  <nSPS>  (68) 
31.875

>  <PBF>  (68) 
0.728679

>  <PBF_0.6>  (68) 
True

>  <nPBF>  (68) 
0.091085

>  <nPBF_0.016>  (68) 
True

>  <PMI1>  (68) 
163.79302

>  <PMI2>  (68) 
260.012923

>  <PMI3>  (68) 
348.580398

>  <NPR1>  (68) 
0.469886

>  <NPR2>  (68) 
0.74592

>  <Sum_NPR>  (68) 
1.215805

>  <Sum_NPR_1.07>  (68) 
True

>  <Sum_NPR_1.2>  (68) 
True

>  <MaxAbsEStateIndex>  (68) 
8.932917

>  <MaxEStateIndex>  (68) 
8.932917

>  <MinAbsEStateIndex>  (68) 
0.252315

>  <MinEStateIndex>  (68) 
-0.252315

>  <qed>  (68) 
0.384056

>  <MolWt>  (68) 
118.156

>  <HeavyAtomMolWt>  (68) 
106.06

>  <ExactMolWt>  (68) 
118.086255

>  <NumValenceElectrons>  (68) 
48

>  <NumRadicalElectrons>  (68) 
0

>  <MaxPartialCharge>  (68) 
0.12593

>  <MinPartialCharge>  (68) 
-0.384815

>  <MaxAbsPartialCharge>  (68) 
0.384815

>  <MinAbsPartialCharge>  (68) 
0.12593

>  <FpDensityMorgan1>  (68) 
1.625

>  <FpDensityMorgan2>  (68) 
2.5

>  <FpDensityMorgan3>  (68) 
3.375

>  <BCUT2D_MWHI>  (68) 
16.487347

>  <BCUT2D_MWLOW>  (68) 
10.377861

>  <BCUT2D_CHGHI>  (68) 
2.086955

>  <BCUT2D_CHGLO>  (68) 
-1.997295

>  <BCUT2D_LOGPHI>  (68) 
1.816217

>  <BCUT2D_LOGPLOW>  (68) 
-2.860342

>  <BCUT2D_MRHI>  (68) 
4.497547

>  <BCUT2D_MRLOW>  (68) 
-0.656812

>  <AvgIpc>  (68) 
1.940878

>  <BalabanJ>  (68) 
2.165964

>  <BertzCT>  (68) 
59.44901

>  <Chi0>  (68) 
5.819991

>  <Chi0n>  (68) 
4.83859

>  <Chi0v>  (68) 
4.83859

>  <Chi1>  (68) 
3.893847

>  <Chi1n>  (68) 
2.968542

>  <Chi1v>  (68) 
2.968542

>  <Chi2n>  (68) 
2.041791

>  <Chi2v>  (68) 
2.041791

>  <Chi3n>  (68) 
1.215293

>  <Chi3v>  (68) 
1.215293

>  <Chi4n>  (68) 
0.764317

>  <Chi4v>  (68) 
0.764317

>  <HallKierAlpha>  (68) 
-0.12

>  <Ipc>  (68) 
85.398652

>  <Kappa1>  (68) 
6.006904

>  <Kappa2>  (68) 
3.016596

>  <Kappa3>  (68) 
1.775788

>  <LabuteASA>  (68) 
48.650829

>  <PEOE_VSA1>  (68) 
15.160179

>  <PEOE_VSA10>  (68) 
12.648723

>  <PEOE_VSA11>  (68) 
0.0

>  <PEOE_VSA12>  (68) 
0.0

>  <PEOE_VSA13>  (68) 
0.0

>  <PEOE_VSA14>  (68) 
0.0

>  <PEOE_VSA2>  (68) 
0.0

>  <PEOE_VSA3>  (68) 
0.0

>  <PEOE_VSA4>  (68) 
0.0

>  <PEOE_VSA5>  (68) 
0.0

>  <PEOE_VSA6>  (68) 
0.0

>  <PEOE_VSA7>  (68) 
0.0

>  <PEOE_VSA8>  (68) 
0.0

>  <PEOE_VSA9>  (68) 
19.75852

>  <SMR_VSA1>  (68) 
15.160179

>  <SMR_VSA10>  (68) 
0.0

>  <SMR_VSA2>  (68) 
0.0

>  <SMR_VSA3>  (68) 
0.0

>  <SMR_VSA4>  (68) 
0.0

>  <SMR_VSA5>  (68) 
6.103966

>  <SMR_VSA6>  (68) 
26.303277

>  <SMR_VSA7>  (68) 
0.0

>  <SMR_VSA8>  (68) 
0.0

>  <SMR_VSA9>  (68) 
0.0

>  <SlogP_VSA1>  (68) 
5.316789

>  <SlogP_VSA10>  (68) 
0.0

>  <SlogP_VSA11>  (68) 
0.0

>  <SlogP_VSA12>  (68) 
0.0

>  <SlogP_VSA2>  (68) 
37.513771

>  <SlogP_VSA3>  (68) 
4.736863

>  <SlogP_VSA4>  (68) 
0.0

>  <SlogP_VSA5>  (68) 
0.0

>  <SlogP_VSA6>  (68) 
0.0

>  <SlogP_VSA7>  (68) 
0.0

>  <SlogP_VSA8>  (68) 
0.0

>  <SlogP_VSA9>  (68) 
0.0

>  <EState_VSA1>  (68) 
0.0

>  <EState_VSA10>  (68) 
0.0

>  <EState_VSA11>  (68) 
0.0

>  <EState_VSA2>  (68) 
6.103966

>  <EState_VSA3>  (68) 
6.606882

>  <EState_VSA4>  (68) 
19.696395

>  <EState_VSA5>  (68) 
0.0

>  <EState_VSA6>  (68) 
0.0

>  <EState_VSA7>  (68) 
0.0

>  <EState_VSA8>  (68) 
5.316789

>  <EState_VSA9>  (68) 
9.84339

>  <VSA_EState1>  (68) 
5.025463

>  <VSA_EState10>  (68) 
0.0

>  <VSA_EState2>  (68) 
0.0

>  <VSA_EState3>  (68) 
11.000046

>  <VSA_EState4>  (68) 
0.0

>  <VSA_EState5>  (68) 
0.0

>  <VSA_EState6>  (68) 
0.0

>  <VSA_EState7>  (68) 
-0.252315

>  <VSA_EState8>  (68) 
3.060139

>  <VSA_EState9>  (68) 
0.0

>  <FractionCSP3>  (68) 
1.0

>  <HeavyAtomCount>  (68) 
8

>  <NHOHCount>  (68) 
3

>  <NOCount>  (68) 
3

>  <NumAliphaticCarbocycles>  (68) 
0

>  <NumAliphaticHeterocycles>  (68) 
1

>  <NumAliphaticRings>  (68) 
1

>  <NumAromaticCarbocycles>  (68) 
0

>  <NumAromaticHeterocycles>  (68) 
0

>  <NAR>  (68) 
0

>  <NumHAcceptors>  (68) 
2

>  <NumHDonors>  (68) 
2

>  <NumHeteroatoms>  (68) 
3

>  <NumRotatableBonds>  (68) 
0

>  <NumSaturatedCarbocycles>  (68) 
0

>  <NumSaturatedHeterocycles>  (68) 
1

>  <NumSaturatedRings>  (68) 
1

>  <RingCount>  (68) 
1

>  <MolLogP>  (68) 
-2.0591

>  <MolMR>  (68) 
28.4852

>  <fr_Al_COO>  (68) 
0

>  <fr_Al_OH>  (68) 
1

>  <fr_Al_OH_noTert>  (68) 
1

>  <fr_ArN>  (68) 
0

>  <fr_Ar_COO>  (68) 
0

>  <fr_Ar_N>  (68) 
0

>  <fr_Ar_NH>  (68) 
0

>  <fr_Ar_OH>  (68) 
0

>  <fr_COO>  (68) 
0

>  <fr_COO2>  (68) 
0

>  <fr_C_O>  (68) 
0

>  <fr_C_O_noCOO>  (68) 
0

>  <fr_C_S>  (68) 
0

>  <fr_HOCCN>  (68) 
0

>  <fr_Imine>  (68) 
0

>  <fr_NH0>  (68) 
0

>  <fr_NH1>  (68) 
0

>  <fr_NH2>  (68) 
1

>  <fr_N_O>  (68) 
0

>  <fr_Ndealkylation1>  (68) 
0

>  <fr_Ndealkylation2>  (68) 
0

>  <fr_Nhpyrrole>  (68) 
0

>  <fr_SH>  (68) 
0

>  <fr_aldehyde>  (68) 
0

>  <fr_alkyl_carbamate>  (68) 
0

>  <fr_alkyl_halide>  (68) 
0

>  <fr_allylic_oxid>  (68) 
0

>  <fr_amide>  (68) 
0

>  <fr_amidine>  (68) 
0

>  <fr_aniline>  (68) 
0

>  <fr_aryl_methyl>  (68) 
0

>  <fr_azide>  (68) 
0

>  <fr_azo>  (68) 
0

>  <fr_barbitur>  (68) 
0

>  <fr_benzene>  (68) 
0

>  <fr_benzodiazepine>  (68) 
0

>  <fr_bicyclic>  (68) 
0

>  <fr_diazo>  (68) 
0

>  <fr_dihydropyridine>  (68) 
0

>  <fr_epoxide>  (68) 
0

>  <fr_ester>  (68) 
0

>  <fr_ether>  (68) 
1

>  <fr_furan>  (68) 
0

>  <fr_guanido>  (68) 
0

>  <fr_halogen>  (68) 
0

>  <fr_hdrzine>  (68) 
0

>  <fr_hdrzone>  (68) 
0

>  <fr_imidazole>  (68) 
0

>  <fr_imide>  (68) 
0

>  <fr_isocyan>  (68) 
0

>  <fr_isothiocyan>  (68) 
0

>  <fr_ketone>  (68) 
0

>  <fr_ketone_Topliss>  (68) 
0

>  <fr_lactam>  (68) 
0

>  <fr_lactone>  (68) 
0

>  <fr_methoxy>  (68) 
0

>  <fr_morpholine>  (68) 
0

>  <fr_nitrile>  (68) 
0

>  <fr_nitro>  (68) 
0

>  <fr_nitro_arom>  (68) 
0

>  <fr_nitro_arom_nonortho>  (68) 
0

>  <fr_nitroso>  (68) 
0

>  <fr_oxazole>  (68) 
0

>  <fr_oxime>  (68) 
0

>  <fr_para_hydroxylation>  (68) 
0

>  <fr_phenol>  (68) 
0

>  <fr_phenol_noOrthoHbond>  (68) 
0

>  <fr_phos_acid>  (68) 
0

>  <fr_phos_ester>  (68) 
0

>  <fr_piperdine>  (68) 
0

>  <fr_piperzine>  (68) 
0

>  <fr_priamide>  (68) 
0

>  <fr_prisulfonamd>  (68) 
0

>  <fr_pyridine>  (68) 
0

>  <fr_quatN>  (68) 
1

>  <fr_sulfide>  (68) 
0

>  <fr_sulfonamd>  (68) 
0

>  <fr_sulfone>  (68) 
0

>  <fr_term_acetylene>  (68) 
0

>  <fr_tetrazole>  (68) 
0

>  <fr_thiazole>  (68) 
0

>  <fr_thiocyan>  (68) 
0

>  <fr_thiophene>  (68) 
0

>  <fr_unbrch_alkane>  (68) 
0

>  <fr_urea>  (68) 
0

>  <NP-Likeness>  (68) 
0.506486

$$$$
8LZ
     RDKit          3D

  0  0  0  0  0  0  0  0  0  0999 V3000
M  V30 BEGIN CTAB
M  V30 COUNTS 31 33 0 0 0
M  V30 BEGIN ATOM
M  V30 1 C 0.780389 0.488284 2.207677 0
M  V30 2 C 0.458986 -0.795220 1.796113 0
M  V30 3 C 0.380507 -1.157392 0.467763 0
M  V30 4 C 0.029946 -2.554685 0.089751 0 CFG=2
M  V30 5 C -1.447754 -2.818824 0.215177 0
M  V30 6 C -1.551263 -3.621339 1.470520 0
M  V30 7 C -0.250802 -4.393697 1.476484 0
M  V30 8 N 0.723199 -3.536690 0.845374 0 CHG=1 VAL=4
M  V30 9 C 0.642746 -0.160593 -0.466549 0
M  V30 10 C 0.962808 1.117072 -0.068848 0
M  V30 11 C 1.036801 1.461949 1.269394 0
M  V30 12 O 1.366760 2.771613 1.490411 0
M  V30 13 C 0.988944 3.846563 0.659376 0
M  V30 14 C 0.753392 3.470458 -0.764271 0
M  V30 15 O 1.229998 2.134072 -0.985175 0
M  V30 16 H 0.849354 0.801224 3.243419 0
M  V30 17 H 0.279335 -1.471652 2.599979 0
M  V30 18 H 0.265799 -2.623511 -1.010385 0
M  V30 19 H -1.877460 -3.327531 -0.668727 0
M  V30 20 H -1.947786 -1.812230 0.308807 0
M  V30 21 H -1.603094 -2.943979 2.359122 0
M  V30 22 H -2.434240 -4.297045 1.441778 0
M  V30 23 H -0.423226 -5.350935 0.921768 0
M  V30 24 H -0.019689 -4.614912 2.536704 0
M  V30 25 H 1.432951 -3.166099 1.510905 0
M  V30 26 H 1.262268 -4.150023 0.169007 0
M  V30 27 H 0.588174 -0.417350 -1.514292 0
M  V30 28 H 1.742191 4.656160 0.667465 0
M  V30 29 H 0.070687 4.300889 1.117912 0
M  V30 30 H -0.351527 3.518654 -0.954178 0
M  V30 31 H 1.216244 4.122455 -1.517018 0
M  V30 END ATOM
M  V30 BEGIN BOND
M  V30 1 2 1 2
M  V30 2 1 2 3
M  V30 3 1 3 4
M  V30 4 1 4 5
M  V30 5 1 5 6
M  V30 6 1 6 7
M  V30 7 1 7 8
M  V30 8 2 3 9
M  V30 9 1 9 10
M  V30 10 2 10 11
M  V30 11 1 11 12
M  V30 12 1 12 13
M  V30 13 1 13 14
M  V30 14 1 14 15
M  V30 15 1 11 1
M  V30 16 1 8 4
M  V30 17 1 15 10
M  V30 18 1 1 16
M  V30 19 1 2 17
M  V30 20 1 4 18 CFG=3
M  V30 21 1 5 19
M  V30 22 1 5 20
M  V30 23 1 6 21
M  V30 24 1 6 22
M  V30 25 1 7 23
M  V30 26 1 7 24
M  V30 27 1 8 25
M  V30 28 1 8 26
M  V30 29 1 9 27
M  V30 30 1 13 28
M  V30 31 1 13 29
M  V30 32 1 14 30
M  V30 33 1 14 31
M  V30 END BOND
M  V30 END CTAB
M  END
>  <Dataset>  (69) 
PDB

>  <Ligand_Instance>  (69) 
5N39_8LZ_A_401

>  <PDB_ID>  (69) 
5N39

>  <Standardized_SMILES>  (69) 
[H]C1=C([H])C([C@]2([H])C([H])([H])C([H])([H])C([H])([H])[N+]2([H])[H])=C([H])C2=C1OC([H])([H])C([H])([H])O2

>  <Name>  (69) 
(2~{S})-2-(2,3-dihydro-1,4-benzodioxin-6-yl)pyrrolidin-1-ium

>  <Pocket>  (69) 
A

>  <ATP_Site>  (69) 
1.0

>  <Peripheral>  (69) 
0.0

>  <Num_H_Atoms_ProtBoundConf>  (69) 
16.0

>  <Num_Resolved_Atoms>  (69) 
15.0

>  <Num_Not_Resolved_Atoms>  (69) 
0.0

>  <2D_Mol_H>  (69) 
<rdkit.Chem.rdchem.Mol object at 0x72a238dc63b0>

>  <MW>  (69) 
206.265

>  <HBA>  (69) 
2

>  <HBD>  (69) 
1

>  <LogP>  (69) 
0.8561

>  <NRB>  (69) 
1

>  <TPSA>  (69) 
35.07

>  <Num_Heavy_Atoms>  (69) 
15

>  <Ro5>  (69) 
[True, True, True, True, True, True]

>  <Ro5_Fulfilled>  (69) 
True

>  <Ro3>  (69) 
[True, True, True, True]

>  <Ro3_Fulfilled>  (69) 
True

>  <Fsp3>  (69) 
0.5

>  <Fsp3_0.42>  (69) 
True

>  <Fsp3_0.45>  (69) 
True

>  <Stereogenic_Carbons>  (69) 
1

>  <C_Atoms>  (69) 
12

>  <FCStereo>  (69) 
0.083333

>  <SPS>  (69) 
362

>  <nSPS>  (69) 
24.133333

>  <PBF>  (69) 
0.717991

>  <PBF_0.6>  (69) 
True

>  <nPBF>  (69) 
0.047866

>  <nPBF_0.016>  (69) 
True

>  <PMI1>  (69) 
273.328559

>  <PMI2>  (69) 
1694.462402

>  <PMI3>  (69) 
1805.142103

>  <NPR1>  (69) 
0.151417

>  <NPR2>  (69) 
0.938686

>  <Sum_NPR>  (69) 
1.090103

>  <Sum_NPR_1.07>  (69) 
True

>  <Sum_NPR_1.2>  (69) 
False

>  <MaxAbsEStateIndex>  (69) 
5.584781

>  <MaxEStateIndex>  (69) 
5.584781

>  <MinAbsEStateIndex>  (69) 
0.625765

>  <MinEStateIndex>  (69) 
0.625765

>  <qed>  (69) 
0.739208

>  <MolWt>  (69) 
206.265

>  <HeavyAtomMolWt>  (69) 
190.137

>  <ExactMolWt>  (69) 
206.117555

>  <NumValenceElectrons>  (69) 
80

>  <NumRadicalElectrons>  (69) 
0

>  <MaxPartialCharge>  (69) 
0.161365

>  <MinPartialCharge>  (69) 
-0.486147

>  <MaxAbsPartialCharge>  (69) 
0.486147

>  <MinAbsPartialCharge>  (69) 
0.161365

>  <FpDensityMorgan1>  (69) 
1.133333

>  <FpDensityMorgan2>  (69) 
2.0

>  <FpDensityMorgan3>  (69) 
2.8

>  <BCUT2D_MWHI>  (69) 
16.562563

>  <BCUT2D_MWLOW>  (69) 
10.047217

>  <BCUT2D_CHGHI>  (69) 
2.22027

>  <BCUT2D_CHGLO>  (69) 
-2.191711

>  <BCUT2D_LOGPHI>  (69) 
2.32595

>  <BCUT2D_LOGPLOW>  (69) 
-2.81342

>  <BCUT2D_MRHI>  (69) 
5.438943

>  <BCUT2D_MRLOW>  (69) 
-0.675828

>  <AvgIpc>  (69) 
2.817875

>  <BalabanJ>  (69) 
1.893269

>  <BertzCT>  (69) 
358.639794

>  <Chi0>  (69) 
10.087576

>  <Chi0n>  (69) 
8.738782

>  <Chi0v>  (69) 
8.738782

>  <Chi1>  (69) 
7.432653

>  <Chi1n>  (69) 
5.662137

>  <Chi1v>  (69) 
5.662137

>  <Chi2n>  (69) 
4.176195

>  <Chi2v>  (69) 
4.176195

>  <Chi3n>  (69) 
3.164821

>  <Chi3v>  (69) 
3.164821

>  <Chi4n>  (69) 
2.367982

>  <Chi4v>  (69) 
2.367982

>  <HallKierAlpha>  (69) 
-1.22

>  <Ipc>  (69) 
7199.670495

>  <Kappa1>  (69) 
9.038512

>  <Kappa2>  (69) 
3.738571

>  <Kappa3>  (69) 
1.67463

>  <LabuteASA>  (69) 
89.386346

>  <PEOE_VSA1>  (69) 
14.790515

>  <PEOE_VSA10>  (69) 
19.255605

>  <PEOE_VSA11>  (69) 
11.499024

>  <PEOE_VSA12>  (69) 
0.0

>  <PEOE_VSA13>  (69) 
0.0

>  <PEOE_VSA14>  (69) 
0.0

>  <PEOE_VSA2>  (69) 
0.0

>  <PEOE_VSA3>  (69) 
0.0

>  <PEOE_VSA4>  (69) 
0.0

>  <PEOE_VSA5>  (69) 
0.0

>  <PEOE_VSA6>  (69) 
0.0

>  <PEOE_VSA7>  (69) 
18.199101

>  <PEOE_VSA8>  (69) 
18.405095

>  <PEOE_VSA9>  (69) 
6.544756

>  <SMR_VSA1>  (69) 
14.790515

>  <SMR_VSA10>  (69) 
0.0

>  <SMR_VSA2>  (69) 
0.0

>  <SMR_VSA3>  (69) 
0.0

>  <SMR_VSA4>  (69) 
0.0

>  <SMR_VSA5>  (69) 
18.883484

>  <SMR_VSA6>  (69) 
19.75852

>  <SMR_VSA7>  (69) 
23.762553

>  <SMR_VSA8>  (69) 
0.0

>  <SMR_VSA9>  (69) 
11.499024

>  <SlogP_VSA1>  (69) 
14.790515

>  <SlogP_VSA10>  (69) 
0.0

>  <SlogP_VSA11>  (69) 
11.499024

>  <SlogP_VSA12>  (69) 
0.0

>  <SlogP_VSA2>  (69) 
19.75852

>  <SlogP_VSA3>  (69) 
0.0

>  <SlogP_VSA4>  (69) 
0.0

>  <SlogP_VSA5>  (69) 
24.446936

>  <SlogP_VSA6>  (69) 
18.199101

>  <SlogP_VSA7>  (69) 
0.0

>  <SlogP_VSA8>  (69) 
0.0

>  <SlogP_VSA9>  (69) 
0.0

>  <EState_VSA1>  (69) 
0.0

>  <EState_VSA10>  (69) 
0.0

>  <EState_VSA11>  (69) 
0.0

>  <EState_VSA2>  (69) 
0.0

>  <EState_VSA3>  (69) 
19.255605

>  <EState_VSA4>  (69) 
11.499024

>  <EState_VSA5>  (69) 
24.949851

>  <EState_VSA6>  (69) 
0.0

>  <EState_VSA7>  (69) 
6.066367

>  <EState_VSA8>  (69) 
17.449523

>  <EState_VSA9>  (69) 
9.473726

>  <VSA_EState1>  (69) 
11.090654

>  <VSA_EState10>  (69) 
0.0

>  <VSA_EState2>  (69) 
0.0

>  <VSA_EState3>  (69) 
2.408145

>  <VSA_EState4>  (69) 
1.371991

>  <VSA_EState5>  (69) 
1.807451

>  <VSA_EState6>  (69) 
6.969978

>  <VSA_EState7>  (69) 
2.595985

>  <VSA_EState8>  (69) 
2.58913

>  <VSA_EState9>  (69) 
0.0

>  <FractionCSP3>  (69) 
0.5

>  <HeavyAtomCount>  (69) 
15

>  <NHOHCount>  (69) 
2

>  <NOCount>  (69) 
3

>  <NumAliphaticCarbocycles>  (69) 
0

>  <NumAliphaticHeterocycles>  (69) 
2

>  <NumAliphaticRings>  (69) 
2

>  <NumAromaticCarbocycles>  (69) 
1

>  <NumAromaticHeterocycles>  (69) 
0

>  <NAR>  (69) 
1

>  <NumHAcceptors>  (69) 
2

>  <NumHDonors>  (69) 
1

>  <NumHeteroatoms>  (69) 
3

>  <NumRotatableBonds>  (69) 
1

>  <NumSaturatedCarbocycles>  (69) 
0

>  <NumSaturatedHeterocycles>  (69) 
1

>  <NumSaturatedRings>  (69) 
1

>  <RingCount>  (69) 
3

>  <MolLogP>  (69) 
0.8561

>  <MolMR>  (69) 
56.1994

>  <fr_Al_COO>  (69) 
0

>  <fr_Al_OH>  (69) 
0

>  <fr_Al_OH_noTert>  (69) 
0

>  <fr_ArN>  (69) 
0

>  <fr_Ar_COO>  (69) 
0

>  <fr_Ar_N>  (69) 
0

>  <fr_Ar_NH>  (69) 
0

>  <fr_Ar_OH>  (69) 
0

>  <fr_COO>  (69) 
0

>  <fr_COO2>  (69) 
0

>  <fr_C_O>  (69) 
0

>  <fr_C_O_noCOO>  (69) 
0

>  <fr_C_S>  (69) 
0

>  <fr_HOCCN>  (69) 
0

>  <fr_Imine>  (69) 
0

>  <fr_NH0>  (69) 
0

>  <fr_NH1>  (69) 
0

>  <fr_NH2>  (69) 
1

>  <fr_N_O>  (69) 
0

>  <fr_Ndealkylation1>  (69) 
0

>  <fr_Ndealkylation2>  (69) 
0

>  <fr_Nhpyrrole>  (69) 
0

>  <fr_SH>  (69) 
0

>  <fr_aldehyde>  (69) 
0

>  <fr_alkyl_carbamate>  (69) 
0

>  <fr_alkyl_halide>  (69) 
0

>  <fr_allylic_oxid>  (69) 
0

>  <fr_amide>  (69) 
0

>  <fr_amidine>  (69) 
0

>  <fr_aniline>  (69) 
0

>  <fr_aryl_methyl>  (69) 
0

>  <fr_azide>  (69) 
0

>  <fr_azo>  (69) 
0

>  <fr_barbitur>  (69) 
0

>  <fr_benzene>  (69) 
1

>  <fr_benzodiazepine>  (69) 
0

>  <fr_bicyclic>  (69) 
1

>  <fr_diazo>  (69) 
0

>  <fr_dihydropyridine>  (69) 
0

>  <fr_epoxide>  (69) 
0

>  <fr_ester>  (69) 
0

>  <fr_ether>  (69) 
2

>  <fr_furan>  (69) 
0

>  <fr_guanido>  (69) 
0

>  <fr_halogen>  (69) 
0

>  <fr_hdrzine>  (69) 
0

>  <fr_hdrzone>  (69) 
0

>  <fr_imidazole>  (69) 
0

>  <fr_imide>  (69) 
0

>  <fr_isocyan>  (69) 
0

>  <fr_isothiocyan>  (69) 
0

>  <fr_ketone>  (69) 
0

>  <fr_ketone_Topliss>  (69) 
0

>  <fr_lactam>  (69) 
0

>  <fr_lactone>  (69) 
0

>  <fr_methoxy>  (69) 
0

>  <fr_morpholine>  (69) 
0

>  <fr_nitrile>  (69) 
0

>  <fr_nitro>  (69) 
0

>  <fr_nitro_arom>  (69) 
0

>  <fr_nitro_arom_nonortho>  (69) 
0

>  <fr_nitroso>  (69) 
0

>  <fr_oxazole>  (69) 
0

>  <fr_oxime>  (69) 
0

>  <fr_para_hydroxylation>  (69) 
0

>  <fr_phenol>  (69) 
0

>  <fr_phenol_noOrthoHbond>  (69) 
0

>  <fr_phos_acid>  (69) 
0

>  <fr_phos_ester>  (69) 
0

>  <fr_piperdine>  (69) 
0

>  <fr_piperzine>  (69) 
0

>  <fr_priamide>  (69) 
0

>  <fr_prisulfonamd>  (69) 
0

>  <fr_pyridine>  (69) 
0

>  <fr_quatN>  (69) 
1

>  <fr_sulfide>  (69) 
0

>  <fr_sulfonamd>  (69) 
0

>  <fr_sulfone>  (69) 
0

>  <fr_term_acetylene>  (69) 
0

>  <fr_tetrazole>  (69) 
0

>  <fr_thiazole>  (69) 
0

>  <fr_thiocyan>  (69) 
0

>  <fr_thiophene>  (69) 
0

>  <fr_unbrch_alkane>  (69) 
0

>  <fr_urea>  (69) 
0

>  <NP-Likeness>  (69) 
-0.134281

$$$$
8M2
     RDKit          3D

  0  0  0  0  0  0  0  0  0  0999 V3000
M  V30 BEGIN CTAB
M  V30 COUNTS 15 15 0 0 0
M  V30 BEGIN ATOM
M  V30 1 C 0.556969 -1.279390 3.410511 0
M  V30 2 C 1.303510 -0.881434 2.373677 0
M  V30 3 C 0.747698 -0.109060 1.385129 0
M  V30 4 C 1.491905 0.364048 0.225277 0
M  V30 5 N 1.185144 1.604667 -0.393483 0
M  V30 6 N 2.444891 -0.381337 -0.222327 0 CHG=1 VAL=4
M  V30 7 C -0.605826 0.231420 1.515364 0
M  V30 8 S -1.120776 -0.595587 3.140761 0
M  V30 9 H 0.720334 -1.857589 4.279795 0
M  V30 10 H 2.332885 -1.205906 2.382295 0
M  V30 11 H 0.944325 2.473363 -0.887835 0
M  V30 12 H 1.409477 2.437783 0.203413 0
M  V30 13 H 3.044162 -0.155254 -1.037468 0
M  V30 14 H 3.047776 -0.154297 -1.042071 0
M  V30 15 H -1.211713 0.807411 0.876283 0
M  V30 END ATOM
M  V30 BEGIN BOND
M  V30 1 2 1 2
M  V30 2 1 2 3
M  V30 3 1 3 4
M  V30 4 1 4 5
M  V30 5 2 4 6
M  V30 6 2 3 7
M  V30 7 1 7 8
M  V30 8 1 8 1
M  V30 9 1 1 9
M  V30 10 1 2 10
M  V30 11 1 5 11
M  V30 12 1 5 12
M  V30 13 1 6 13
M  V30 14 1 6 14
M  V30 15 1 7 15
M  V30 END BOND
M  V30 END CTAB
M  END
>  <Dataset>  (70) 
PDB

>  <Ligand_Instance>  (70) 
5N3C_8M2_A_401

>  <PDB_ID>  (70) 
5N3C

>  <Standardized_SMILES>  (70) 
[H]C1=C([H])C(C(N([H])[H])=[N+]([H])[H])=C([H])S1

>  <Name>  (70) 
[azanyl(thiophen-3-yl)methylidene]azanium

>  <Pocket>  (70) 
A

>  <ATP_Site>  (70) 
1.0

>  <Peripheral>  (70) 
0.0

>  <Num_H_Atoms_ProtBoundConf>  (70) 
7.0

>  <Num_Resolved_Atoms>  (70) 
8.0

>  <Num_Not_Resolved_Atoms>  (70) 
0.0

>  <2D_Mol_H>  (70) 
<rdkit.Chem.rdchem.Mol object at 0x72a238dc6490>

>  <MW>  (70) 
127.192

>  <HBA>  (70) 
1

>  <HBD>  (70) 
2

>  <LogP>  (70) 
-0.7875

>  <NRB>  (70) 
1

>  <TPSA>  (70) 
51.61

>  <Num_Heavy_Atoms>  (70) 
8

>  <Ro5>  (70) 
[True, True, True, True, True, True]

>  <Ro5_Fulfilled>  (70) 
True

>  <Ro3>  (70) 
[True, True, True, True]

>  <Ro3_Fulfilled>  (70) 
True

>  <Fsp3>  (70) 
0.0

>  <Fsp3_0.42>  (70) 
False

>  <Fsp3_0.45>  (70) 
False

>  <Stereogenic_Carbons>  (70) 
0

>  <C_Atoms>  (70) 
5

>  <FCStereo>  (70) 
0.0

>  <SPS>  (70) 
72

>  <nSPS>  (70) 
9.0

>  <PBF>  (70) 
0.405804

>  <PBF_0.6>  (70) 
False

>  <nPBF>  (70) 
0.050725

>  <nPBF_0.016>  (70) 
True

>  <PMI1>  (70) 
124.956571

>  <PMI2>  (70) 
459.019657

>  <PMI3>  (70) 
563.336423

>  <NPR1>  (70) 
0.221815

>  <NPR2>  (70) 
0.814823

>  <Sum_NPR>  (70) 
1.036639

>  <Sum_NPR_1.07>  (70) 
False

>  <Sum_NPR_1.2>  (70) 
False

>  <MaxAbsEStateIndex>  (70) 
5.259259

>  <MaxEStateIndex>  (70) 
5.259259

>  <MinAbsEStateIndex>  (70) 
0.394676

>  <MinEStateIndex>  (70) 
0.394676

>  <qed>  (70) 
0.376892

>  <MolWt>  (70) 
127.192

>  <HeavyAtomMolWt>  (70) 
120.136

>  <ExactMolWt>  (70) 
127.032446

>  <NumValenceElectrons>  (70) 
42

>  <NumRadicalElectrons>  (70) 
0

>  <MaxPartialCharge>  (70) 
0.271029

>  <MinPartialCharge>  (70) 
-0.287014

>  <MaxAbsPartialCharge>  (70) 
0.287014

>  <MinAbsPartialCharge>  (70) 
0.271029

>  <FpDensityMorgan1>  (70) 
1.75

>  <FpDensityMorgan2>  (70) 
2.5

>  <FpDensityMorgan3>  (70) 
2.75

>  <BCUT2D_MWHI>  (70) 
32.133386

>  <BCUT2D_MWLOW>  (70) 
10.322212

>  <BCUT2D_CHGHI>  (70) 
1.971565

>  <BCUT2D_CHGLO>  (70) 
-1.776241

>  <BCUT2D_LOGPHI>  (70) 
2.016666

>  <BCUT2D_LOGPLOW>  (70) 
-2.453905

>  <BCUT2D_MRHI>  (70) 
7.076797

>  <BCUT2D_MRLOW>  (70) 
-0.113704

>  <AvgIpc>  (70) 
2.115968

>  <BalabanJ>  (70) 
2.928375

>  <BertzCT>  (70) 
178.318557

>  <Chi0>  (70) 
5.983128

>  <Chi0n>  (70) 
4.295

>  <Chi0v>  (70) 
5.111496

>  <Chi1>  (70) 
3.80453

>  <Chi1n>  (70) 
2.209438

>  <Chi1v>  (70) 
3.152247

>  <Chi2n>  (70) 
1.467367

>  <Chi2v>  (70) 
2.2474

>  <Chi3n>  (70) 
0.854509

>  <Chi3v>  (70) 
1.537743

>  <Chi4n>  (70) 
0.428726

>  <Chi4v>  (70) 
1.093729

>  <HallKierAlpha>  (70) 
-0.83

>  <Ipc>  (70) 
93.102593

>  <Kappa1>  (70) 
5.30947

>  <Kappa2>  (70) 
1.961226

>  <Kappa3>  (70) 
0.869202

>  <LabuteASA>  (70) 
51.46195

>  <PEOE_VSA1>  (70) 
0.0

>  <PEOE_VSA10>  (70) 
0.0

>  <PEOE_VSA11>  (70) 
0.0

>  <PEOE_VSA12>  (70) 
0.0

>  <PEOE_VSA13>  (70) 
5.83562

>  <PEOE_VSA14>  (70) 
0.0

>  <PEOE_VSA2>  (70) 
11.142951

>  <PEOE_VSA3>  (70) 
0.0

>  <PEOE_VSA4>  (70) 
11.336786

>  <PEOE_VSA5>  (70) 
0.0

>  <PEOE_VSA6>  (70) 
0.0

>  <PEOE_VSA7>  (70) 
11.44643

>  <PEOE_VSA8>  (70) 
5.380063

>  <PEOE_VSA9>  (70) 
5.563451

>  <SMR_VSA1>  (70) 
5.409284

>  <SMR_VSA10>  (70) 
17.172406

>  <SMR_VSA2>  (70) 
0.0

>  <SMR_VSA3>  (70) 
0.0

>  <SMR_VSA4>  (70) 
5.733667

>  <SMR_VSA5>  (70) 
0.0

>  <SMR_VSA6>  (70) 
0.0

>  <SMR_VSA7>  (70) 
22.389944

>  <SMR_VSA8>  (70) 
0.0

>  <SMR_VSA9>  (70) 
0.0

>  <SlogP_VSA1>  (70) 
11.142951

>  <SlogP_VSA10>  (70) 
0.0

>  <SlogP_VSA11>  (70) 
0.0

>  <SlogP_VSA12>  (70) 
11.336786

>  <SlogP_VSA2>  (70) 
5.83562

>  <SlogP_VSA3>  (70) 
0.0

>  <SlogP_VSA4>  (70) 
0.0

>  <SlogP_VSA5>  (70) 
5.563451

>  <SlogP_VSA6>  (70) 
16.826493

>  <SlogP_VSA7>  (70) 
0.0

>  <SlogP_VSA8>  (70) 
0.0

>  <SlogP_VSA9>  (70) 
0.0

>  <EState_VSA1>  (70) 
0.0

>  <EState_VSA10>  (70) 
0.0

>  <EState_VSA11>  (70) 
0.0

>  <EState_VSA2>  (70) 
0.0

>  <EState_VSA3>  (70) 
5.83562

>  <EState_VSA4>  (70) 
5.563451

>  <EState_VSA5>  (70) 
0.0

>  <EState_VSA6>  (70) 
11.336786

>  <EState_VSA7>  (70) 
16.826493

>  <EState_VSA8>  (70) 
0.0

>  <EState_VSA9>  (70) 
11.142951

>  <VSA_EState1>  (70) 
0.0

>  <VSA_EState10>  (70) 
1.587083

>  <VSA_EState2>  (70) 
0.0

>  <VSA_EState3>  (70) 
9.110833

>  <VSA_EState4>  (70) 
6.185185

>  <VSA_EState5>  (70) 
0.394676

>  <VSA_EState6>  (70) 
1.888889

>  <VSA_EState7>  (70) 
0.0

>  <VSA_EState8>  (70) 
0.0

>  <VSA_EState9>  (70) 
0.0

>  <FractionCSP3>  (70) 
0.0

>  <HeavyAtomCount>  (70) 
8

>  <NHOHCount>  (70) 
4

>  <NOCount>  (70) 
2

>  <NumAliphaticCarbocycles>  (70) 
0

>  <NumAliphaticHeterocycles>  (70) 
0

>  <NumAliphaticRings>  (70) 
0

>  <NumAromaticCarbocycles>  (70) 
0

>  <NumAromaticHeterocycles>  (70) 
1

>  <NAR>  (70) 
1

>  <NumHAcceptors>  (70) 
1

>  <NumHDonors>  (70) 
2

>  <NumHeteroatoms>  (70) 
3

>  <NumRotatableBonds>  (70) 
1

>  <NumSaturatedCarbocycles>  (70) 
0

>  <NumSaturatedHeterocycles>  (70) 
0

>  <NumSaturatedRings>  (70) 
0

>  <RingCount>  (70) 
1

>  <MolLogP>  (70) 
-0.7875

>  <MolMR>  (70) 
34.5408

>  <fr_Al_COO>  (70) 
0

>  <fr_Al_OH>  (70) 
0

>  <fr_Al_OH_noTert>  (70) 
0

>  <fr_ArN>  (70) 
0

>  <fr_Ar_COO>  (70) 
0

>  <fr_Ar_N>  (70) 
0

>  <fr_Ar_NH>  (70) 
0

>  <fr_Ar_OH>  (70) 
0

>  <fr_COO>  (70) 
0

>  <fr_COO2>  (70) 
0

>  <fr_C_O>  (70) 
0

>  <fr_C_O_noCOO>  (70) 
0

>  <fr_C_S>  (70) 
0

>  <fr_HOCCN>  (70) 
0

>  <fr_Imine>  (70) 
0

>  <fr_NH0>  (70) 
0

>  <fr_NH1>  (70) 
0

>  <fr_NH2>  (70) 
2

>  <fr_N_O>  (70) 
0

>  <fr_Ndealkylation1>  (70) 
0

>  <fr_Ndealkylation2>  (70) 
0

>  <fr_Nhpyrrole>  (70) 
0

>  <fr_SH>  (70) 
0

>  <fr_aldehyde>  (70) 
0

>  <fr_alkyl_carbamate>  (70) 
0

>  <fr_alkyl_halide>  (70) 
0

>  <fr_allylic_oxid>  (70) 
0

>  <fr_amide>  (70) 
0

>  <fr_amidine>  (70) 
1

>  <fr_aniline>  (70) 
0

>  <fr_aryl_methyl>  (70) 
0

>  <fr_azide>  (70) 
0

>  <fr_azo>  (70) 
0

>  <fr_barbitur>  (70) 
0

>  <fr_benzene>  (70) 
0

>  <fr_benzodiazepine>  (70) 
0

>  <fr_bicyclic>  (70) 
0

>  <fr_diazo>  (70) 
0

>  <fr_dihydropyridine>  (70) 
0

>  <fr_epoxide>  (70) 
0

>  <fr_ester>  (70) 
0

>  <fr_ether>  (70) 
0

>  <fr_furan>  (70) 
0

>  <fr_guanido>  (70) 
0

>  <fr_halogen>  (70) 
0

>  <fr_hdrzine>  (70) 
0

>  <fr_hdrzone>  (70) 
0

>  <fr_imidazole>  (70) 
0

>  <fr_imide>  (70) 
0

>  <fr_isocyan>  (70) 
0

>  <fr_isothiocyan>  (70) 
0

>  <fr_ketone>  (70) 
0

>  <fr_ketone_Topliss>  (70) 
0

>  <fr_lactam>  (70) 
0

>  <fr_lactone>  (70) 
0

>  <fr_methoxy>  (70) 
0

>  <fr_morpholine>  (70) 
0

>  <fr_nitrile>  (70) 
0

>  <fr_nitro>  (70) 
0

>  <fr_nitro_arom>  (70) 
0

>  <fr_nitro_arom_nonortho>  (70) 
0

>  <fr_nitroso>  (70) 
0

>  <fr_oxazole>  (70) 
0

>  <fr_oxime>  (70) 
0

>  <fr_para_hydroxylation>  (70) 
0

>  <fr_phenol>  (70) 
0

>  <fr_phenol_noOrthoHbond>  (70) 
0

>  <fr_phos_acid>  (70) 
0

>  <fr_phos_ester>  (70) 
0

>  <fr_piperdine>  (70) 
0

>  <fr_piperzine>  (70) 
0

>  <fr_priamide>  (70) 
0

>  <fr_prisulfonamd>  (70) 
0

>  <fr_pyridine>  (70) 
0

>  <fr_quatN>  (70) 
0

>  <fr_sulfide>  (70) 
0

>  <fr_sulfonamd>  (70) 
0

>  <fr_sulfone>  (70) 
0

>  <fr_term_acetylene>  (70) 
0

>  <fr_tetrazole>  (70) 
0

>  <fr_thiazole>  (70) 
0

>  <fr_thiocyan>  (70) 
0

>  <fr_thiophene>  (70) 
1

>  <fr_unbrch_alkane>  (70) 
0

>  <fr_urea>  (70) 
0

>  <NP-Likeness>  (70) 
-2.318577

$$$$
8NE
     RDKit          3D

  0  0  0  0  0  0  0  0  0  0999 V3000
M  V30 BEGIN CTAB
M  V30 COUNTS 20 20 0 0 0
M  V30 BEGIN ATOM
M  V30 1 H 0.978188 -1.791268 3.680897 0
M  V30 2 N 0.038951 -2.092531 3.336905 0
M  V30 3 C -0.434130 -1.660599 2.217423 0
M  V30 4 C 0.206366 -0.749295 1.307702 0
M  V30 5 C 1.581881 -0.722569 1.225111 0
M  V30 6 C 2.230640 0.137235 0.364973 0
M  V30 7 C 1.436362 0.965004 -0.404644 0
M  V30 8 C 2.113382 1.907931 -1.346481 0
M  V30 9 F 2.457990 3.097219 -0.745058 0
M  V30 10 F 1.263470 2.192061 -2.398939 0
M  V30 11 F 3.242084 1.260450 -1.850363 0
M  V30 12 C 0.050288 0.979546 -0.361618 0
M  V30 13 C -0.537991 0.104330 0.510964 0
M  V30 14 N -1.721405 -2.132404 1.841476 0
M  V30 15 H 2.151313 -1.387344 1.846006 0
M  V30 16 H 3.319845 0.191102 0.267858 0
M  V30 17 H -0.522594 1.653276 -0.991046 0
M  V30 18 H -1.629353 0.098189 0.561900 0
M  V30 19 H -2.461983 -1.677928 1.252800 0
M  V30 20 H -2.203207 -3.043525 2.077570 0
M  V30 END ATOM
M  V30 BEGIN BOND
M  V30 1 1 1 2
M  V30 2 2 2 3
M  V30 3 1 3 4
M  V30 4 2 4 5
M  V30 5 1 5 6
M  V30 6 2 6 7
M  V30 7 1 7 8
M  V30 8 1 8 9
M  V30 9 1 8 10
M  V30 10 1 8 11
M  V30 11 1 7 12
M  V30 12 2 12 13
M  V30 13 1 3 14
M  V30 14 1 13 4
M  V30 15 1 5 15
M  V30 16 1 6 16
M  V30 17 1 12 17
M  V30 18 1 13 18
M  V30 19 1 14 19
M  V30 20 1 14 20
M  V30 END BOND
M  V30 END CTAB
M  END
>  <Dataset>  (71) 
PDB

>  <Ligand_Instance>  (71) 
5N3D_8NE_A_401

>  <PDB_ID>  (71) 
5N3D

>  <Standardized_SMILES>  (71) 
[H]/N=C(\C1=C([H])C([H])=C(C(F)(F)F)C([H])=C1[H])N([H])[H]

>  <Name>  (71) 
[azanyl-[4-(trifluoromethyl)phenyl]methylidene]azanium

>  <Pocket>  (71) 
A

>  <ATP_Site>  (71) 
1.0

>  <Peripheral>  (71) 
0.0

>  <Num_H_Atoms_ProtBoundConf>  (71) 
7.0

>  <Num_Resolved_Atoms>  (71) 
13.0

>  <Num_Not_Resolved_Atoms>  (71) 
0.0

>  <2D_Mol_H>  (71) 
<rdkit.Chem.rdchem.Mol object at 0x72a238dc6570>

>  <MW>  (71) 
188.152

>  <HBA>  (71) 
1

>  <HBD>  (71) 
2

>  <LogP>  (71) 
1.98947

>  <NRB>  (71) 
1

>  <TPSA>  (71) 
49.87

>  <Num_Heavy_Atoms>  (71) 
13

>  <Ro5>  (71) 
[True, True, True, True, True, True]

>  <Ro5_Fulfilled>  (71) 
True

>  <Ro3>  (71) 
[True, True, True, True]

>  <Ro3_Fulfilled>  (71) 
True

>  <Fsp3>  (71) 
0.125

>  <Fsp3_0.42>  (71) 
False

>  <Fsp3_0.45>  (71) 
False

>  <Stereogenic_Carbons>  (71) 
0

>  <C_Atoms>  (71) 
8

>  <FCStereo>  (71) 
0.0

>  <SPS>  (71) 
183

>  <nSPS>  (71) 
14.076923

>  <PBF>  (71) 
0.386681

>  <PBF_0.6>  (71) 
False

>  <nPBF>  (71) 
0.029745

>  <nPBF_0.016>  (71) 
True

>  <PMI1>  (71) 
234.045064

>  <PMI2>  (71) 
1297.965098

>  <PMI3>  (71) 
1417.204742

>  <NPR1>  (71) 
0.165146

>  <NPR2>  (71) 
0.915863

>  <Sum_NPR>  (71) 
1.081008

>  <Sum_NPR_1.07>  (71) 
True

>  <Sum_NPR_1.2>  (71) 
False

>  <MaxAbsEStateIndex>  (71) 
12.104043

>  <MaxEStateIndex>  (71) 
12.104043

>  <MinAbsEStateIndex>  (71) 
0.112292

>  <MinEStateIndex>  (71) 
-4.355755

>  <qed>  (71) 
0.51349

>  <MolWt>  (71) 
188.152

>  <HeavyAtomMolWt>  (71) 
181.096

>  <ExactMolWt>  (71) 
188.056133

>  <NumValenceElectrons>  (71) 
70

>  <NumRadicalElectrons>  (71) 
0

>  <MaxPartialCharge>  (71) 
0.41591

>  <MinPartialCharge>  (71) 
-0.383682

>  <MaxAbsPartialCharge>  (71) 
0.41591

>  <MinAbsPartialCharge>  (71) 
0.383682

>  <FpDensityMorgan1>  (71) 
1.307692

>  <FpDensityMorgan2>  (71) 
1.846154

>  <FpDensityMorgan3>  (71) 
2.230769

>  <BCUT2D_MWHI>  (71) 
19.413169

>  <BCUT2D_MWLOW>  (71) 
0.931261

>  <BCUT2D_CHGHI>  (71) 
2.294302

>  <BCUT2D_CHGLO>  (71) 
-2.063647

>  <BCUT2D_LOGPHI>  (71) 
2.284305

>  <BCUT2D_LOGPLOW>  (71) 
-2.132098

>  <BCUT2D_MRHI>  (71) 
5.947928

>  <BCUT2D_MRLOW>  (71) 
-0.137131

>  <AvgIpc>  (71) 
2.154137

>  <BalabanJ>  (71) 
3.010942

>  <BertzCT>  (71) 
342.599179

>  <Chi0>  (71) 
10.767585

>  <Chi0n>  (71) 
7.467858

>  <Chi0v>  (71) 
6.467858

>  <Chi1>  (71) 
6.447707

>  <Chi1n>  (71) 
3.847809

>  <Chi1v>  (71) 
3.400596

>  <Chi2n>  (71) 
2.46035

>  <Chi2v>  (71) 
2.46035

>  <Chi3n>  (71) 
1.507993

>  <Chi3v>  (71) 
1.507993

>  <Chi4n>  (71) 
0.829971

>  <Chi4v>  (71) 
0.829971

>  <HallKierAlpha>  (71) 
-1.52

>  <Ipc>  (71) 
1102.91795

>  <Kappa1>  (71) 
8.095344

>  <Kappa2>  (71) 
3.082443

>  <Kappa3>  (71) 
2.206729

>  <LabuteASA>  (71) 
74.146162

>  <PEOE_VSA1>  (71) 
5.733667

>  <PEOE_VSA10>  (71) 
5.83562

>  <PEOE_VSA11>  (71) 
1.411842

>  <PEOE_VSA12>  (71) 
0.0

>  <PEOE_VSA13>  (71) 
0.0

>  <PEOE_VSA14>  (71) 
6.176299

>  <PEOE_VSA2>  (71) 
5.402308

>  <PEOE_VSA3>  (71) 
0.0

>  <PEOE_VSA4>  (71) 
13.171245

>  <PEOE_VSA5>  (71) 
0.0

>  <PEOE_VSA6>  (71) 
12.132734

>  <PEOE_VSA7>  (71) 
12.132734

>  <PEOE_VSA8>  (71) 
5.563451

>  <PEOE_VSA9>  (71) 
5.563451

>  <SMR_VSA1>  (71) 
14.583087

>  <SMR_VSA10>  (71) 
5.83562

>  <SMR_VSA2>  (71) 
5.402308

>  <SMR_VSA3>  (71) 
0.0

>  <SMR_VSA4>  (71) 
5.733667

>  <SMR_VSA5>  (71) 
6.176299

>  <SMR_VSA6>  (71) 
0.0

>  <SMR_VSA7>  (71) 
35.392371

>  <SMR_VSA8>  (71) 
0.0

>  <SMR_VSA9>  (71) 
0.0

>  <SlogP_VSA1>  (71) 
5.733667

>  <SlogP_VSA10>  (71) 
13.171245

>  <SlogP_VSA11>  (71) 
0.0

>  <SlogP_VSA12>  (71) 
0.0

>  <SlogP_VSA2>  (71) 
5.83562

>  <SlogP_VSA3>  (71) 
6.176299

>  <SlogP_VSA4>  (71) 
5.402308

>  <SlogP_VSA5>  (71) 
11.126903

>  <SlogP_VSA6>  (71) 
24.265468

>  <SlogP_VSA7>  (71) 
1.411842

>  <SlogP_VSA8>  (71) 
0.0

>  <SlogP_VSA9>  (71) 
0.0

>  <EState_VSA1>  (71) 
11.73975

>  <EState_VSA10>  (71) 
13.171245

>  <EState_VSA11>  (71) 
0.0

>  <EState_VSA2>  (71) 
5.83562

>  <EState_VSA3>  (71) 
5.563451

>  <EState_VSA4>  (71) 
12.132734

>  <EState_VSA5>  (71) 
12.132734

>  <EState_VSA6>  (71) 
0.0

>  <EState_VSA7>  (71) 
0.0

>  <EState_VSA8>  (71) 
5.402308

>  <EState_VSA9>  (71) 
7.14551

>  <VSA_EState1>  (71) 
42.87551

>  <VSA_EState10>  (71) 
0.0

>  <VSA_EState2>  (71) 
0.0

>  <VSA_EState3>  (71) 
2.913747

>  <VSA_EState4>  (71) 
4.782817

>  <VSA_EState5>  (71) 
-0.112292

>  <VSA_EState6>  (71) 
4.145972

>  <VSA_EState7>  (71) 
-4.355755

>  <VSA_EState8>  (71) 
0.0

>  <VSA_EState9>  (71) 
0.0

>  <FractionCSP3>  (71) 
0.125

>  <HeavyAtomCount>  (71) 
13

>  <NHOHCount>  (71) 
3

>  <NOCount>  (71) 
2

>  <NumAliphaticCarbocycles>  (71) 
0

>  <NumAliphaticHeterocycles>  (71) 
0

>  <NumAliphaticRings>  (71) 
0

>  <NumAromaticCarbocycles>  (71) 
1

>  <NumAromaticHeterocycles>  (71) 
0

>  <NAR>  (71) 
1

>  <NumHAcceptors>  (71) 
1

>  <NumHDonors>  (71) 
2

>  <NumHeteroatoms>  (71) 
5

>  <NumRotatableBonds>  (71) 
1

>  <NumSaturatedCarbocycles>  (71) 
0

>  <NumSaturatedHeterocycles>  (71) 
0

>  <NumSaturatedRings>  (71) 
0

>  <RingCount>  (71) 
1

>  <MolLogP>  (71) 
1.98947

>  <MolMR>  (71) 
42.4601

>  <fr_Al_COO>  (71) 
0

>  <fr_Al_OH>  (71) 
0

>  <fr_Al_OH_noTert>  (71) 
0

>  <fr_ArN>  (71) 
1

>  <fr_Ar_COO>  (71) 
0

>  <fr_Ar_N>  (71) 
0

>  <fr_Ar_NH>  (71) 
0

>  <fr_Ar_OH>  (71) 
0

>  <fr_COO>  (71) 
0

>  <fr_COO2>  (71) 
0

>  <fr_C_O>  (71) 
0

>  <fr_C_O_noCOO>  (71) 
0

>  <fr_C_S>  (71) 
0

>  <fr_HOCCN>  (71) 
0

>  <fr_Imine>  (71) 
0

>  <fr_NH0>  (71) 
0

>  <fr_NH1>  (71) 
1

>  <fr_NH2>  (71) 
1

>  <fr_N_O>  (71) 
0

>  <fr_Ndealkylation1>  (71) 
0

>  <fr_Ndealkylation2>  (71) 
0

>  <fr_Nhpyrrole>  (71) 
0

>  <fr_SH>  (71) 
0

>  <fr_aldehyde>  (71) 
0

>  <fr_alkyl_carbamate>  (71) 
0

>  <fr_alkyl_halide>  (71) 
3

>  <fr_allylic_oxid>  (71) 
0

>  <fr_amide>  (71) 
0

>  <fr_amidine>  (71) 
1

>  <fr_aniline>  (71) 
0

>  <fr_aryl_methyl>  (71) 
0

>  <fr_azide>  (71) 
0

>  <fr_azo>  (71) 
0

>  <fr_barbitur>  (71) 
0

>  <fr_benzene>  (71) 
1

>  <fr_benzodiazepine>  (71) 
0

>  <fr_bicyclic>  (71) 
0

>  <fr_diazo>  (71) 
0

>  <fr_dihydropyridine>  (71) 
0

>  <fr_epoxide>  (71) 
0

>  <fr_ester>  (71) 
0

>  <fr_ether>  (71) 
0

>  <fr_furan>  (71) 
0

>  <fr_guanido>  (71) 
0

>  <fr_halogen>  (71) 
3

>  <fr_hdrzine>  (71) 
0

>  <fr_hdrzone>  (71) 
0

>  <fr_imidazole>  (71) 
0

>  <fr_imide>  (71) 
0

>  <fr_isocyan>  (71) 
0

>  <fr_isothiocyan>  (71) 
0

>  <fr_ketone>  (71) 
0

>  <fr_ketone_Topliss>  (71) 
0

>  <fr_lactam>  (71) 
0

>  <fr_lactone>  (71) 
0

>  <fr_methoxy>  (71) 
0

>  <fr_morpholine>  (71) 
0

>  <fr_nitrile>  (71) 
0

>  <fr_nitro>  (71) 
0

>  <fr_nitro_arom>  (71) 
0

>  <fr_nitro_arom_nonortho>  (71) 
0

>  <fr_nitroso>  (71) 
0

>  <fr_oxazole>  (71) 
0

>  <fr_oxime>  (71) 
0

>  <fr_para_hydroxylation>  (71) 
0

>  <fr_phenol>  (71) 
0

>  <fr_phenol_noOrthoHbond>  (71) 
0

>  <fr_phos_acid>  (71) 
0

>  <fr_phos_ester>  (71) 
0

>  <fr_piperdine>  (71) 
0

>  <fr_piperzine>  (71) 
0

>  <fr_priamide>  (71) 
0

>  <fr_prisulfonamd>  (71) 
0

>  <fr_pyridine>  (71) 
0

>  <fr_quatN>  (71) 
0

>  <fr_sulfide>  (71) 
0

>  <fr_sulfonamd>  (71) 
0

>  <fr_sulfone>  (71) 
0

>  <fr_term_acetylene>  (71) 
0

>  <fr_tetrazole>  (71) 
0

>  <fr_thiazole>  (71) 
0

>  <fr_thiocyan>  (71) 
0

>  <fr_thiophene>  (71) 
0

>  <fr_unbrch_alkane>  (71) 
0

>  <fr_urea>  (71) 
0

>  <NP-Likeness>  (71) 
-0.804157

$$$$
8PQ
     RDKit          3D

  0  0  0  0  0  0  0  0  0  0999 V3000
M  V30 BEGIN CTAB
M  V30 COUNTS 15 15 0 0 0
M  V30 BEGIN ATOM
M  V30 1 N -0.382450 0.276871 1.817588 0
M  V30 2 N -0.324929 -0.839529 1.111897 0
M  V30 3 C 0.880044 -0.973421 0.537999 0
M  V30 4 C 1.405155 -2.065212 -0.343607 0
M  V30 5 C 1.672054 0.102692 0.872145 0
M  V30 6 Br 3.469509 0.517501 0.391588 0
M  V30 7 C 0.834707 0.871639 1.683979 0
M  V30 8 C 1.237677 2.159743 2.306541 0
M  V30 9 H -1.159669 0.684359 2.383990 0
M  V30 10 H 0.579165 -2.697548 -0.684802 0
M  V30 11 H 1.851894 -1.603418 -1.265894 0
M  V30 12 H 2.189128 -2.641827 0.163799 0
M  V30 13 H 0.688297 2.371521 3.238897 0
M  V30 14 H 1.000770 2.974290 1.566612 0
M  V30 15 H 2.349408 2.161178 2.428586 0
M  V30 END ATOM
M  V30 BEGIN BOND
M  V30 1 1 1 2
M  V30 2 2 2 3
M  V30 3 1 3 4
M  V30 4 1 3 5
M  V30 5 1 5 6
M  V30 6 2 5 7
M  V30 7 1 7 8
M  V30 8 1 7 1
M  V30 9 1 1 9
M  V30 10 1 4 10
M  V30 11 1 4 11
M  V30 12 1 4 12
M  V30 13 1 8 13
M  V30 14 1 8 14
M  V30 15 1 8 15
M  V30 END BOND
M  V30 END CTAB
M  END
>  <Dataset>  (72) 
PDB

>  <Ligand_Instance>  (72) 
5N7U_8PQ_A_402

>  <PDB_ID>  (72) 
5N7U

>  <Standardized_SMILES>  (72) 
[H]N1N=C(C([H])([H])[H])C(Br)=C1C([H])([H])[H]

>  <Name>  (72) 
4-bromanyl-3,5-dimethyl-1~{H}-pyrazole

>  <Pocket>  (72) 
A

>  <ATP_Site>  (72) 
1.0

>  <Peripheral>  (72) 
0.0

>  <Num_H_Atoms_ProtBoundConf>  (72) 
7.0

>  <Num_Resolved_Atoms>  (72) 
8.0

>  <Num_Not_Resolved_Atoms>  (72) 
0.0

>  <2D_Mol_H>  (72) 
<rdkit.Chem.rdchem.Mol object at 0x72a238dc6650>

>  <MW>  (72) 
175.029

>  <HBA>  (72) 
1

>  <HBD>  (72) 
1

>  <LogP>  (72) 
1.78904

>  <NRB>  (72) 
2

>  <TPSA>  (72) 
28.68

>  <Num_Heavy_Atoms>  (72) 
8

>  <Ro5>  (72) 
[True, True, True, True, True, True]

>  <Ro5_Fulfilled>  (72) 
True

>  <Ro3>  (72) 
[True, True, True, True]

>  <Ro3_Fulfilled>  (72) 
True

>  <Fsp3>  (72) 
0.4

>  <Fsp3_0.42>  (72) 
False

>  <Fsp3_0.45>  (72) 
False

>  <Stereogenic_Carbons>  (72) 
0

>  <C_Atoms>  (72) 
5

>  <FCStereo>  (72) 
0.0

>  <SPS>  (72) 
79

>  <nSPS>  (72) 
9.875

>  <PBF>  (72) 
0.277879

>  <PBF_0.6>  (72) 
False

>  <nPBF>  (72) 
0.034735

>  <nPBF_0.016>  (72) 
True

>  <PMI1>  (72) 
244.336796

>  <PMI2>  (72) 
436.315403

>  <PMI3>  (72) 
674.149891

>  <NPR1>  (72) 
0.362437

>  <NPR2>  (72) 
0.647208

>  <Sum_NPR>  (72) 
1.009645

>  <Sum_NPR_1.07>  (72) 
False

>  <Sum_NPR_1.2>  (72) 
False

>  <MaxAbsEStateIndex>  (72) 
3.943866

>  <MaxEStateIndex>  (72) 
3.943866

>  <MinAbsEStateIndex>  (72) 
1.016204

>  <MinEStateIndex>  (72) 
1.016204

>  <qed>  (72) 
0.639154

>  <MolWt>  (72) 
175.029

>  <HeavyAtomMolWt>  (72) 
167.973

>  <ExactMolWt>  (72) 
173.97926

>  <NumValenceElectrons>  (72) 
44

>  <NumRadicalElectrons>  (72) 
0

>  <MaxPartialCharge>  (72) 
0.073556

>  <MinPartialCharge>  (72) 
-0.281418

>  <MaxAbsPartialCharge>  (72) 
0.281418

>  <MinAbsPartialCharge>  (72) 
0.073556

>  <FpDensityMorgan1>  (72) 
1.5

>  <FpDensityMorgan2>  (72) 
2.125

>  <FpDensityMorgan3>  (72) 
2.25

>  <BCUT2D_MWHI>  (72) 
79.918731

>  <BCUT2D_MWLOW>  (72) 
10.403264

>  <BCUT2D_CHGHI>  (72) 
1.981513

>  <BCUT2D_CHGLO>  (72) 
-1.805846

>  <BCUT2D_LOGPHI>  (72) 
2.15276

>  <BCUT2D_LOGPLOW>  (72) 
-1.675411

>  <BCUT2D_MRHI>  (72) 
9.103408

>  <BCUT2D_MRLOW>  (72) 
1.016392

>  <AvgIpc>  (72) 
1.984343

>  <BalabanJ>  (72) 
3.194946

>  <BertzCT>  (72) 
172.808782

>  <Chi0>  (72) 
6.146264

>  <Chi0n>  (72) 
4.825178

>  <Chi0v>  (72) 
6.411175

>  <Chi1>  (72) 
3.715214

>  <Chi1n>  (72) 
2.386196

>  <Chi1v>  (72) 
3.179194

>  <Chi2n>  (72) 
1.747999

>  <Chi2v>  (72) 
2.540998

>  <Chi3n>  (72) 
1.038199

>  <Chi3v>  (72) 
2.206767

>  <Chi4n>  (72) 
0.537217

>  <Chi4v>  (72) 
0.714537

>  <HallKierAlpha>  (72) 
-0.31

>  <Ipc>  (72) 
75.405052

>  <Kappa1>  (72) 
5.820039

>  <Kappa2>  (72) 
1.895375

>  <Kappa3>  (72) 
0.777203

>  <LabuteASA>  (72) 
56.426097

>  <PEOE_VSA1>  (72) 
0.0

>  <PEOE_VSA10>  (72) 
0.0

>  <PEOE_VSA11>  (72) 
0.0

>  <PEOE_VSA12>  (72) 
0.0

>  <PEOE_VSA13>  (72) 
0.0

>  <PEOE_VSA14>  (72) 
0.0

>  <PEOE_VSA2>  (72) 
5.098682

>  <PEOE_VSA3>  (72) 
0.0

>  <PEOE_VSA4>  (72) 
5.098682

>  <PEOE_VSA5>  (72) 
0.0

>  <PEOE_VSA6>  (72) 
0.0

>  <PEOE_VSA7>  (72) 
29.777418

>  <PEOE_VSA8>  (72) 
5.693928

>  <PEOE_VSA9>  (72) 
10.166648

>  <SMR_VSA1>  (72) 
0.0

>  <SMR_VSA10>  (72) 
15.929944

>  <SMR_VSA2>  (72) 
0.0

>  <SMR_VSA3>  (72) 
10.197364

>  <SMR_VSA4>  (72) 
0.0

>  <SMR_VSA5>  (72) 
13.847474

>  <SMR_VSA6>  (72) 
0.0

>  <SMR_VSA7>  (72) 
15.860576

>  <SMR_VSA8>  (72) 
0.0

>  <SMR_VSA9>  (72) 
0.0

>  <SlogP_VSA1>  (72) 
0.0

>  <SlogP_VSA10>  (72) 
0.0

>  <SlogP_VSA11>  (72) 
0.0

>  <SlogP_VSA12>  (72) 
15.929944

>  <SlogP_VSA2>  (72) 
10.197364

>  <SlogP_VSA3>  (72) 
0.0

>  <SlogP_VSA4>  (72) 
13.847474

>  <SlogP_VSA5>  (72) 
11.387856

>  <SlogP_VSA6>  (72) 
4.47272

>  <SlogP_VSA7>  (72) 
0.0

>  <SlogP_VSA8>  (72) 
0.0

>  <SlogP_VSA9>  (72) 
0.0

>  <EState_VSA1>  (72) 
0.0

>  <EState_VSA10>  (72) 
0.0

>  <EState_VSA11>  (72) 
0.0

>  <EState_VSA2>  (72) 
0.0

>  <EState_VSA3>  (72) 
0.0

>  <EState_VSA4>  (72) 
15.860576

>  <EState_VSA5>  (72) 
0.0

>  <EState_VSA6>  (72) 
0.0

>  <EState_VSA7>  (72) 
13.847474

>  <EState_VSA8>  (72) 
26.127308

>  <EState_VSA9>  (72) 
0.0

>  <VSA_EState1>  (72) 
1.081019

>  <VSA_EState10>  (72) 
3.355324

>  <VSA_EState2>  (72) 
0.0

>  <VSA_EState3>  (72) 
6.783565

>  <VSA_EState4>  (72) 
2.101852

>  <VSA_EState5>  (72) 
0.0

>  <VSA_EState6>  (72) 
0.0

>  <VSA_EState7>  (72) 
0.0

>  <VSA_EState8>  (72) 
3.928241

>  <VSA_EState9>  (72) 
0.0

>  <FractionCSP3>  (72) 
0.4

>  <HeavyAtomCount>  (72) 
8

>  <NHOHCount>  (72) 
1

>  <NOCount>  (72) 
2

>  <NumAliphaticCarbocycles>  (72) 
0

>  <NumAliphaticHeterocycles>  (72) 
0

>  <NumAliphaticRings>  (72) 
0

>  <NumAromaticCarbocycles>  (72) 
0

>  <NumAromaticHeterocycles>  (72) 
1

>  <NAR>  (72) 
1

>  <NumHAcceptors>  (72) 
1

>  <NumHDonors>  (72) 
1

>  <NumHeteroatoms>  (72) 
3

>  <NumRotatableBonds>  (72) 
0

>  <NumSaturatedCarbocycles>  (72) 
0

>  <NumSaturatedHeterocycles>  (72) 
0

>  <NumSaturatedRings>  (72) 
0

>  <RingCount>  (72) 
1

>  <MolLogP>  (72) 
1.78904

>  <MolMR>  (72) 
35.7617

>  <fr_Al_COO>  (72) 
0

>  <fr_Al_OH>  (72) 
0

>  <fr_Al_OH_noTert>  (72) 
0

>  <fr_ArN>  (72) 
0

>  <fr_Ar_COO>  (72) 
0

>  <fr_Ar_N>  (72) 
2

>  <fr_Ar_NH>  (72) 
1

>  <fr_Ar_OH>  (72) 
0

>  <fr_COO>  (72) 
0

>  <fr_COO2>  (72) 
0

>  <fr_C_O>  (72) 
0

>  <fr_C_O_noCOO>  (72) 
0

>  <fr_C_S>  (72) 
0

>  <fr_HOCCN>  (72) 
0

>  <fr_Imine>  (72) 
0

>  <fr_NH0>  (72) 
1

>  <fr_NH1>  (72) 
1

>  <fr_NH2>  (72) 
0

>  <fr_N_O>  (72) 
0

>  <fr_Ndealkylation1>  (72) 
0

>  <fr_Ndealkylation2>  (72) 
0

>  <fr_Nhpyrrole>  (72) 
1

>  <fr_SH>  (72) 
0

>  <fr_aldehyde>  (72) 
0

>  <fr_alkyl_carbamate>  (72) 
0

>  <fr_alkyl_halide>  (72) 
0

>  <fr_allylic_oxid>  (72) 
0

>  <fr_amide>  (72) 
0

>  <fr_amidine>  (72) 
0

>  <fr_aniline>  (72) 
0

>  <fr_aryl_methyl>  (72) 
2

>  <fr_azide>  (72) 
0

>  <fr_azo>  (72) 
0

>  <fr_barbitur>  (72) 
0

>  <fr_benzene>  (72) 
0

>  <fr_benzodiazepine>  (72) 
0

>  <fr_bicyclic>  (72) 
0

>  <fr_diazo>  (72) 
0

>  <fr_dihydropyridine>  (72) 
0

>  <fr_epoxide>  (72) 
0

>  <fr_ester>  (72) 
0

>  <fr_ether>  (72) 
0

>  <fr_furan>  (72) 
0

>  <fr_guanido>  (72) 
0

>  <fr_halogen>  (72) 
1

>  <fr_hdrzine>  (72) 
0

>  <fr_hdrzone>  (72) 
0

>  <fr_imidazole>  (72) 
0

>  <fr_imide>  (72) 
0

>  <fr_isocyan>  (72) 
0

>  <fr_isothiocyan>  (72) 
0

>  <fr_ketone>  (72) 
0

>  <fr_ketone_Topliss>  (72) 
0

>  <fr_lactam>  (72) 
0

>  <fr_lactone>  (72) 
0

>  <fr_methoxy>  (72) 
0

>  <fr_morpholine>  (72) 
0

>  <fr_nitrile>  (72) 
0

>  <fr_nitro>  (72) 
0

>  <fr_nitro_arom>  (72) 
0

>  <fr_nitro_arom_nonortho>  (72) 
0

>  <fr_nitroso>  (72) 
0

>  <fr_oxazole>  (72) 
0

>  <fr_oxime>  (72) 
0

>  <fr_para_hydroxylation>  (72) 
0

>  <fr_phenol>  (72) 
0

>  <fr_phenol_noOrthoHbond>  (72) 
0

>  <fr_phos_acid>  (72) 
0

>  <fr_phos_ester>  (72) 
0

>  <fr_piperdine>  (72) 
0

>  <fr_piperzine>  (72) 
0

>  <fr_priamide>  (72) 
0

>  <fr_prisulfonamd>  (72) 
0

>  <fr_pyridine>  (72) 
0

>  <fr_quatN>  (72) 
0

>  <fr_sulfide>  (72) 
0

>  <fr_sulfonamd>  (72) 
0

>  <fr_sulfone>  (72) 
0

>  <fr_term_acetylene>  (72) 
0

>  <fr_tetrazole>  (72) 
0

>  <fr_thiazole>  (72) 
0

>  <fr_thiocyan>  (72) 
0

>  <fr_thiophene>  (72) 
0

>  <fr_unbrch_alkane>  (72) 
0

>  <fr_urea>  (72) 
0

>  <NP-Likeness>  (72) 
-1.886826

$$$$
9CY
     RDKit          3D

  0  0  0  0  0  0  0  0  0  0999 V3000
M  V30 BEGIN CTAB
M  V30 COUNTS 45 47 0 0 0
M  V30 BEGIN ATOM
M  V30 1 O 0.586337 -5.989031 1.612448 0
M  V30 2 C 0.851459 -4.721512 1.142963 0
M  V30 3 C -0.070123 -3.655731 1.757844 0 CFG=1
M  V30 4 N 0.376124 -2.423572 1.135214 0
M  V30 5 C 1.017267 -1.327250 1.772780 0
M  V30 6 O 1.201566 -1.479503 3.018686 0
M  V30 7 C 1.411440 -0.146593 1.012772 0
M  V30 8 C 1.240842 0.082395 -0.340589 0
M  V30 9 C 1.675041 1.263284 -0.905875 0
M  V30 10 C 2.290429 2.259270 -0.166313 0
M  V30 11 C 2.694247 3.450309 -0.903220 0
M  V30 12 C 1.990009 3.906822 -1.997888 0
M  V30 13 C 2.415884 5.051058 -2.670029 0
M  V30 14 N 3.519747 5.752525 -2.285209 0
M  V30 15 C 4.192147 5.290152 -1.215119 0
M  V30 16 C 3.810305 4.163017 -0.517427 0
M  V30 17 C 2.454667 2.026560 1.164465 0
M  V30 18 C 2.029010 0.854672 1.750961 0
M  V30 19 C -1.442384 -3.982857 1.326069 0
M  V30 20 C -2.532103 -3.131964 1.764995 0
M  V30 21 C -3.170349 -3.421798 2.928195 0
M  V30 22 C -4.215778 -2.625436 3.372088 0
M  V30 23 C -4.655532 -1.520427 2.673526 0
M  V30 24 C -4.007079 -1.213004 1.476846 0
M  V30 25 C -2.960330 -2.026785 1.051255 0
M  V30 26 H 0.405323 -5.968267 2.580867 0
M  V30 27 H 0.585380 -4.704838 0.056154 0
M  V30 28 H 1.904148 -4.413907 1.209493 0
M  V30 29 H 0.128476 -3.699192 2.826136 0
M  V30 30 H 0.167338 -2.413235 0.092485 0
M  V30 31 H 0.758902 -0.717424 -0.874545 0
M  V30 32 H 1.487872 1.337061 -1.987272 0
M  V30 33 H 1.117480 3.383688 -2.331472 0
M  V30 34 H 1.896389 5.451501 -3.537432 0
M  V30 35 H 5.080398 5.796206 -0.850651 0
M  V30 36 H 4.390481 3.827537 0.346270 0
M  V30 37 H 2.945322 2.838409 1.713857 0
M  V30 38 H 2.210551 0.769701 2.830392 0
M  V30 39 H -1.448160 -4.011198 0.204076 0
M  V30 40 H -1.708382 -5.041725 1.607951 0
M  V30 41 H -2.867643 -4.272791 3.512955 0
M  V30 42 H -4.692797 -2.905866 4.314747 0
M  V30 43 H -5.481213 -0.906474 3.041403 0
M  V30 44 H -4.309345 -0.362269 0.891833 0
M  V30 45 H -2.444532 -1.794521 0.113463 0
M  V30 END ATOM
M  V30 BEGIN BOND
M  V30 1 1 1 2
M  V30 2 1 2 3
M  V30 3 1 3 4
M  V30 4 1 4 5
M  V30 5 2 5 6
M  V30 6 1 5 7
M  V30 7 2 7 8
M  V30 8 1 8 9
M  V30 9 2 9 10
M  V30 10 1 10 11
M  V30 11 2 11 12
M  V30 12 1 12 13
M  V30 13 2 13 14
M  V30 14 1 14 15
M  V30 15 2 15 16
M  V30 16 1 10 17
M  V30 17 2 17 18
M  V30 18 1 3 19
M  V30 19 1 19 20
M  V30 20 2 20 21
M  V30 21 1 21 22
M  V30 22 2 22 23
M  V30 23 1 23 24
M  V30 24 2 24 25
M  V30 25 1 18 7
M  V30 26 1 25 20
M  V30 27 1 16 11
M  V30 28 1 1 26
M  V30 29 1 2 27
M  V30 30 1 2 28
M  V30 31 1 3 29 CFG=1
M  V30 32 1 4 30
M  V30 33 1 8 31
M  V30 34 1 9 32
M  V30 35 1 12 33
M  V30 36 1 13 34
M  V30 37 1 15 35
M  V30 38 1 16 36
M  V30 39 1 17 37
M  V30 40 1 18 38
M  V30 41 1 19 39
M  V30 42 1 19 40
M  V30 43 1 21 41
M  V30 44 1 22 42
M  V30 45 1 23 43
M  V30 46 1 24 44
M  V30 47 1 25 45
M  V30 END BOND
M  V30 END CTAB
M  END
>  <Dataset>  (73) 
PDB

>  <Ligand_Instance>  (73) 
5VHB_9CY_A_401

>  <PDB_ID>  (73) 
5VHB

>  <Standardized_SMILES>  (73) 
[H]OC([H])([H])[C@@]([H])(N([H])C(=O)C1=C([H])C([H])=C(C2=C([H])C([H])=NC([H])=C2[H])C([H])=C1[H])C([H])([H])C1=C([H])C([H])=C([H])C([H])=C1[H]

>  <Name>  (73) 
N-[(2S)-1-hydroxy-3-phenylpropan-2-yl]-4-(pyridin-4-yl)benzamide

>  <Pocket>  (73) 
A

>  <ATP_Site>  (73) 
1.0

>  <Peripheral>  (73) 
0.0

>  <Num_H_Atoms_ProtBoundConf>  (73) 
20.0

>  <Num_Resolved_Atoms>  (73) 
25.0

>  <Num_Not_Resolved_Atoms>  (73) 
0.0

>  <2D_Mol_H>  (73) 
<rdkit.Chem.rdchem.Mol object at 0x72a238dc6730>

>  <MW>  (73) 
332.403

>  <HBA>  (73) 
3

>  <HBD>  (73) 
2

>  <LogP>  (73) 
3.082

>  <NRB>  (73) 
7

>  <TPSA>  (73) 
62.22

>  <Num_Heavy_Atoms>  (73) 
25

>  <Ro5>  (73) 
[True, True, True, True, True, True]

>  <Ro5_Fulfilled>  (73) 
True

>  <Ro3>  (73) 
[False, True, True, False]

>  <Ro3_Fulfilled>  (73) 
False

>  <Fsp3>  (73) 
0.142857

>  <Fsp3_0.42>  (73) 
False

>  <Fsp3_0.45>  (73) 
False

>  <Stereogenic_Carbons>  (73) 
1

>  <C_Atoms>  (73) 
21

>  <FCStereo>  (73) 
0.047619

>  <SPS>  (73) 
293

>  <nSPS>  (73) 
11.72

>  <PBF>  (73) 
1.029603

>  <PBF_0.6>  (73) 
True

>  <nPBF>  (73) 
0.041184

>  <nPBF_0.016>  (73) 
True

>  <PMI1>  (73) 
1220.453183

>  <PMI2>  (73) 
5984.279534

>  <PMI3>  (73) 
6619.352086

>  <NPR1>  (73) 
0.184377

>  <NPR2>  (73) 
0.904058

>  <Sum_NPR>  (73) 
1.088435

>  <Sum_NPR_1.07>  (73) 
True

>  <Sum_NPR_1.2>  (73) 
False

>  <MaxAbsEStateIndex>  (73) 
12.419777

>  <MaxEStateIndex>  (73) 
12.419777

>  <MinAbsEStateIndex>  (73) 
0.101455

>  <MinEStateIndex>  (73) 
-0.310394

>  <qed>  (73) 
0.729068

>  <MolWt>  (73) 
332.403

>  <HeavyAtomMolWt>  (73) 
312.243

>  <ExactMolWt>  (73) 
332.152478

>  <NumValenceElectrons>  (73) 
126

>  <NumRadicalElectrons>  (73) 
0

>  <MaxPartialCharge>  (73) 
0.251085

>  <MinPartialCharge>  (73) 
-0.39423

>  <MaxAbsPartialCharge>  (73) 
0.39423

>  <MinAbsPartialCharge>  (73) 
0.251085

>  <FpDensityMorgan1>  (73) 
0.92

>  <FpDensityMorgan2>  (73) 
1.56

>  <FpDensityMorgan3>  (73) 
2.2

>  <BCUT2D_MWHI>  (73) 
16.252828

>  <BCUT2D_MWLOW>  (73) 
10.036379

>  <BCUT2D_CHGHI>  (73) 
2.133969

>  <BCUT2D_CHGLO>  (73) 
-2.163319

>  <BCUT2D_LOGPHI>  (73) 
2.183165

>  <BCUT2D_LOGPLOW>  (73) 
-2.385989

>  <BCUT2D_MRHI>  (73) 
5.944576

>  <BCUT2D_MRLOW>  (73) 
0.091627

>  <AvgIpc>  (73) 
2.687437

>  <BalabanJ>  (73) 
1.656516

>  <BertzCT>  (73) 
802.31931

>  <Chi0>  (73) 
17.484917

>  <Chi0n>  (73) 
13.799793

>  <Chi0v>  (73) 
13.799793

>  <Chi1>  (73) 
12.258351

>  <Chi1n>  (73) 
8.221543

>  <Chi1v>  (73) 
8.221543

>  <Chi2n>  (73) 
5.855921

>  <Chi2v>  (73) 
5.855921

>  <Chi3n>  (73) 
4.041274

>  <Chi3v>  (73) 
4.041274

>  <Chi4n>  (73) 
2.686981

>  <Chi4v>  (73) 
2.686981

>  <HallKierAlpha>  (73) 
-2.98

>  <Ipc>  (73) 
696411.760187

>  <Kappa1>  (73) 
16.863073

>  <Kappa2>  (73) 
8.217093

>  <Kappa3>  (73) 
4.519209

>  <LabuteASA>  (73) 
146.730626

>  <PEOE_VSA1>  (73) 
10.423316

>  <PEOE_VSA10>  (73) 
0.0

>  <PEOE_VSA11>  (73) 
0.0

>  <PEOE_VSA12>  (73) 
0.0

>  <PEOE_VSA13>  (73) 
5.90718

>  <PEOE_VSA14>  (73) 
0.0

>  <PEOE_VSA2>  (73) 
9.778516

>  <PEOE_VSA3>  (73) 
0.0

>  <PEOE_VSA4>  (73) 
0.0

>  <PEOE_VSA5>  (73) 
0.0

>  <PEOE_VSA6>  (73) 
42.464569

>  <PEOE_VSA7>  (73) 
47.376644

>  <PEOE_VSA8>  (73) 
17.957139

>  <PEOE_VSA9>  (73) 
12.648723

>  <SMR_VSA1>  (73) 
9.901065

>  <SMR_VSA10>  (73) 
5.90718

>  <SMR_VSA2>  (73) 
0.0

>  <SMR_VSA3>  (73) 
10.300767

>  <SMR_VSA4>  (73) 
0.0

>  <SMR_VSA5>  (73) 
12.462662

>  <SMR_VSA6>  (73) 
6.606882

>  <SMR_VSA7>  (73) 
90.250628

>  <SMR_VSA8>  (73) 
0.0

>  <SMR_VSA9>  (73) 
11.126903

>  <SlogP_VSA1>  (73) 
5.316789

>  <SlogP_VSA10>  (73) 
0.0

>  <SlogP_VSA11>  (73) 
0.0

>  <SlogP_VSA12>  (73) 
0.0

>  <SlogP_VSA2>  (73) 
28.646408

>  <SlogP_VSA3>  (73) 
6.420822

>  <SlogP_VSA4>  (73) 
0.0

>  <SlogP_VSA5>  (73) 
15.92144

>  <SlogP_VSA6>  (73) 
79.123725

>  <SlogP_VSA7>  (73) 
0.0

>  <SlogP_VSA8>  (73) 
11.126903

>  <SlogP_VSA9>  (73) 
0.0

>  <EState_VSA1>  (73) 
0.0

>  <EState_VSA10>  (73) 
9.901065

>  <EState_VSA11>  (73) 
0.0

>  <EState_VSA2>  (73) 
18.555903

>  <EState_VSA3>  (73) 
11.984273

>  <EState_VSA4>  (73) 
16.690354

>  <EState_VSA5>  (73) 
0.0

>  <EState_VSA6>  (73) 
24.526421

>  <EState_VSA7>  (73) 
54.597304

>  <EState_VSA8>  (73) 
10.300767

>  <EState_VSA9>  (73) 
0.0

>  <VSA_EState1>  (73) 
0.0

>  <VSA_EState10>  (73) 
0.0

>  <VSA_EState2>  (73) 
16.425077

>  <VSA_EState3>  (73) 
12.44704

>  <VSA_EState4>  (73) 
3.736497

>  <VSA_EState5>  (73) 
-0.184019

>  <VSA_EState6>  (73) 
20.765214

>  <VSA_EState7>  (73) 
4.078312

>  <VSA_EState8>  (73) 
-0.101455

>  <VSA_EState9>  (73) 
0.0

>  <FractionCSP3>  (73) 
0.142857

>  <HeavyAtomCount>  (73) 
25

>  <NHOHCount>  (73) 
2

>  <NOCount>  (73) 
4

>  <NumAliphaticCarbocycles>  (73) 
0

>  <NumAliphaticHeterocycles>  (73) 
0

>  <NumAliphaticRings>  (73) 
0

>  <NumAromaticCarbocycles>  (73) 
2

>  <NumAromaticHeterocycles>  (73) 
1

>  <NAR>  (73) 
3

>  <NumHAcceptors>  (73) 
3

>  <NumHDonors>  (73) 
2

>  <NumHeteroatoms>  (73) 
4

>  <NumRotatableBonds>  (73) 
6

>  <NumSaturatedCarbocycles>  (73) 
0

>  <NumSaturatedHeterocycles>  (73) 
0

>  <NumSaturatedRings>  (73) 
0

>  <RingCount>  (73) 
3

>  <MolLogP>  (73) 
3.082

>  <MolMR>  (73) 
98.159

>  <fr_Al_COO>  (73) 
0

>  <fr_Al_OH>  (73) 
1

>  <fr_Al_OH_noTert>  (73) 
1

>  <fr_ArN>  (73) 
0

>  <fr_Ar_COO>  (73) 
0

>  <fr_Ar_N>  (73) 
1

>  <fr_Ar_NH>  (73) 
0

>  <fr_Ar_OH>  (73) 
0

>  <fr_COO>  (73) 
0

>  <fr_COO2>  (73) 
0

>  <fr_C_O>  (73) 
1

>  <fr_C_O_noCOO>  (73) 
1

>  <fr_C_S>  (73) 
0

>  <fr_HOCCN>  (73) 
0

>  <fr_Imine>  (73) 
0

>  <fr_NH0>  (73) 
1

>  <fr_NH1>  (73) 
1

>  <fr_NH2>  (73) 
0

>  <fr_N_O>  (73) 
0

>  <fr_Ndealkylation1>  (73) 
0

>  <fr_Ndealkylation2>  (73) 
0

>  <fr_Nhpyrrole>  (73) 
0

>  <fr_SH>  (73) 
0

>  <fr_aldehyde>  (73) 
0

>  <fr_alkyl_carbamate>  (73) 
0

>  <fr_alkyl_halide>  (73) 
0

>  <fr_allylic_oxid>  (73) 
0

>  <fr_amide>  (73) 
1

>  <fr_amidine>  (73) 
0

>  <fr_aniline>  (73) 
0

>  <fr_aryl_methyl>  (73) 
0

>  <fr_azide>  (73) 
0

>  <fr_azo>  (73) 
0

>  <fr_barbitur>  (73) 
0

>  <fr_benzene>  (73) 
2

>  <fr_benzodiazepine>  (73) 
0

>  <fr_bicyclic>  (73) 
0

>  <fr_diazo>  (73) 
0

>  <fr_dihydropyridine>  (73) 
0

>  <fr_epoxide>  (73) 
0

>  <fr_ester>  (73) 
0

>  <fr_ether>  (73) 
0

>  <fr_furan>  (73) 
0

>  <fr_guanido>  (73) 
0

>  <fr_halogen>  (73) 
0

>  <fr_hdrzine>  (73) 
0

>  <fr_hdrzone>  (73) 
0

>  <fr_imidazole>  (73) 
0

>  <fr_imide>  (73) 
0

>  <fr_isocyan>  (73) 
0

>  <fr_isothiocyan>  (73) 
0

>  <fr_ketone>  (73) 
0

>  <fr_ketone_Topliss>  (73) 
0

>  <fr_lactam>  (73) 
0

>  <fr_lactone>  (73) 
0

>  <fr_methoxy>  (73) 
0

>  <fr_morpholine>  (73) 
0

>  <fr_nitrile>  (73) 
0

>  <fr_nitro>  (73) 
0

>  <fr_nitro_arom>  (73) 
0

>  <fr_nitro_arom_nonortho>  (73) 
0

>  <fr_nitroso>  (73) 
0

>  <fr_oxazole>  (73) 
0

>  <fr_oxime>  (73) 
0

>  <fr_para_hydroxylation>  (73) 
0

>  <fr_phenol>  (73) 
0

>  <fr_phenol_noOrthoHbond>  (73) 
0

>  <fr_phos_acid>  (73) 
0

>  <fr_phos_ester>  (73) 
0

>  <fr_piperdine>  (73) 
0

>  <fr_piperzine>  (73) 
0

>  <fr_priamide>  (73) 
0

>  <fr_prisulfonamd>  (73) 
0

>  <fr_pyridine>  (73) 
1

>  <fr_quatN>  (73) 
0

>  <fr_sulfide>  (73) 
0

>  <fr_sulfonamd>  (73) 
0

>  <fr_sulfone>  (73) 
0

>  <fr_term_acetylene>  (73) 
0

>  <fr_tetrazole>  (73) 
0

>  <fr_thiazole>  (73) 
0

>  <fr_thiocyan>  (73) 
0

>  <fr_thiophene>  (73) 
0

>  <fr_unbrch_alkane>  (73) 
0

>  <fr_urea>  (73) 
0

>  <NP-Likeness>  (73) 
-0.476367

$$$$
9D1
     RDKit          3D

  0  0  0  0  0  0  0  0  0  0999 V3000
M  V30 BEGIN CTAB
M  V30 COUNTS 58 62 0 0 0
M  V30 BEGIN ATOM
M  V30 1 O 0.939507 -3.137728 6.323383 0
M  V30 2 C 1.273362 -2.623371 5.060746 0
M  V30 3 C 2.186970 -1.601209 4.990859 0
M  V30 4 C 2.530629 -1.079885 3.761773 0
M  V30 5 C 1.900615 -1.654344 2.665399 0
M  V30 6 C 0.975020 -2.688887 2.721967 0
M  V30 7 C 0.417315 -3.150836 1.400810 0
M  V30 8 N -0.788433 -2.401011 1.138307 0
M  V30 9 C -0.466743 -0.969682 1.146562 0
M  V30 10 N -0.384004 0.019103 1.702901 0
M  V30 11 C -0.016482 1.215564 1.296803 0
M  V30 12 C 0.058755 2.388186 2.021379 0
M  V30 13 C 0.464020 3.530177 1.391406 0
M  V30 14 C 0.818079 3.642758 0.066959 0
M  V30 15 C 1.243525 4.845241 -0.628008 0
M  V30 16 C 0.827087 6.145663 -0.371545 0
M  V30 17 C 1.347796 7.172061 -1.136828 0
M  V30 18 N 2.235796 7.005422 -2.120225 0
M  V30 19 C 2.678819 5.761508 -2.416119 0
M  V30 20 C 2.159355 4.746340 -1.654561 0
M  V30 21 C 0.752305 2.483371 -0.681498 0
M  V30 22 C 0.336046 1.318081 -0.029692 0
M  V30 23 S 0.097065 -0.387086 -0.598747 0
M  V30 24 C -2.169129 -2.634950 0.856585 0
M  V30 25 C -2.479267 -3.210296 -0.481248 0
M  V30 26 N -1.899373 -4.474907 -0.784549 0 CHG=1 VAL=4
M  V30 27 C -0.793008 -4.323676 -1.712732 0
M  V30 28 C -1.482576 -4.055705 -3.012672 0
M  V30 29 C -2.657428 -5.010970 -2.963537 0
M  V30 30 C -2.787998 -5.367011 -1.514216 0
M  V30 31 C 0.658531 -3.181591 3.962071 0
M  V30 32 H 0.012830 -3.549879 6.457444 0
M  V30 33 H 2.662092 -1.173097 5.862004 0
M  V30 34 H 3.242070 -0.274947 3.623032 0
M  V30 35 H 2.182764 -1.232467 1.695356 0
M  V30 36 H 1.128983 -2.937053 0.586551 0
M  V30 37 H 0.194387 -4.224107 1.440559 0
M  V30 38 H -0.176572 2.508801 3.074813 0
M  V30 39 H 0.537459 4.488357 1.935476 0
M  V30 40 H 0.107460 6.259414 0.427881 0
M  V30 41 H 1.006172 8.194011 -0.918605 0
M  V30 42 H 3.396281 5.570744 -3.200914 0
M  V30 43 H 2.521807 3.741899 -1.897723 0
M  V30 44 H 0.980654 2.352228 -1.707654 0
M  V30 45 H -2.815352 -1.765813 1.080420 0
M  V30 46 H -2.509770 -3.412679 1.610260 0
M  V30 47 H -3.599403 -3.365815 -0.513183 0
M  V30 48 H -2.296992 -2.446594 -1.287158 0
M  V30 49 H -1.591085 -4.984485 0.066699 0
M  V30 50 H -0.247322 -5.278288 -1.828555 0
M  V30 51 H -0.092507 -3.530063 -1.411356 0
M  V30 52 H -1.811135 -3.009127 -3.164194 0
M  V30 53 H -0.813968 -4.274616 -3.894634 0
M  V30 54 H -2.376692 -5.891244 -3.604970 0
M  V30 55 H -3.593542 -4.549001 -3.375288 0
M  V30 56 H -3.808781 -5.188968 -1.178998 0
M  V30 57 H -2.406497 -6.398736 -1.369594 0
M  V30 58 H -0.064895 -3.986658 3.977866 0
M  V30 END ATOM
M  V30 BEGIN BOND
M  V30 1 1 1 2
M  V30 2 2 2 3
M  V30 3 1 3 4
M  V30 4 2 4 5
M  V30 5 1 5 6
M  V30 6 1 6 7
M  V30 7 1 7 8
M  V30 8 1 8 9
M  V30 9 2 9 10
M  V30 10 1 10 11
M  V30 11 2 11 12
M  V30 12 1 12 13
M  V30 13 2 13 14
M  V30 14 1 14 15
M  V30 15 2 15 16
M  V30 16 1 16 17
M  V30 17 2 17 18
M  V30 18 1 18 19
M  V30 19 2 19 20
M  V30 20 1 14 21
M  V30 21 2 21 22
M  V30 22 1 22 23
M  V30 23 1 8 24
M  V30 24 1 24 25
M  V30 25 1 25 26
M  V30 26 1 26 27
M  V30 27 1 27 28
M  V30 28 1 28 29
M  V30 29 1 29 30
M  V30 30 2 6 31
M  V30 31 1 31 2
M  V30 32 1 23 9
M  V30 33 1 30 26
M  V30 34 1 22 11
M  V30 35 1 20 15
M  V30 36 1 1 32
M  V30 37 1 3 33
M  V30 38 1 4 34
M  V30 39 1 5 35
M  V30 40 1 7 36
M  V30 41 1 7 37
M  V30 42 1 12 38
M  V30 43 1 13 39
M  V30 44 1 16 40
M  V30 45 1 17 41
M  V30 46 1 19 42
M  V30 47 1 20 43
M  V30 48 1 21 44
M  V30 49 1 24 45
M  V30 50 1 24 46
M  V30 51 1 25 47
M  V30 52 1 25 48
M  V30 53 1 26 49
M  V30 54 1 27 50
M  V30 55 1 27 51
M  V30 56 1 28 52
M  V30 57 1 28 53
M  V30 58 1 29 54
M  V30 59 1 29 55
M  V30 60 1 30 56
M  V30 61 1 30 57
M  V30 62 1 31 58
M  V30 END BOND
M  V30 END CTAB
M  END
>  <Dataset>  (74) 
PDB

>  <Ligand_Instance>  (74) 
5VIB_9D1_A_401

>  <PDB_ID>  (74) 
5VIB

>  <Standardized_SMILES>  (74) 
[H]OC1=C([H])C([H])=C([H])C(C([H])([H])N(C2=NC3=C([H])C([H])=C(C4=C([H])C([H])=NC([H])=C4[H])C([H])=C3S2)C([H])([H])C([H])([H])[N+]2([H])C([H])([H])C([H])([H])C([H])([H])C2([H])[H])=C1[H]

>  <Name>  (74) 
3-({[6-(pyridin-4-yl)-1,3-benzothiazol-2-yl][2-(pyrrolidin-1-yl)ethyl]amino}methyl)phenol

>  <Pocket>  (74) 
A

>  <ATP_Site>  (74) 
1.0

>  <Peripheral>  (74) 
0.0

>  <Num_H_Atoms_ProtBoundConf>  (74) 
27.0

>  <Num_Resolved_Atoms>  (74) 
31.0

>  <Num_Not_Resolved_Atoms>  (74) 
0.0

>  <2D_Mol_H>  (74) 
<rdkit.Chem.rdchem.Mol object at 0x72a238dc6810>

>  <MW>  (74) 
431.585

>  <HBA>  (74) 
5

>  <HBD>  (74) 
2

>  <LogP>  (74) 
3.7492

>  <NRB>  (74) 
8

>  <TPSA>  (74) 
53.69

>  <Num_Heavy_Atoms>  (74) 
31

>  <Ro5>  (74) 
[True, True, True, True, True, True]

>  <Ro5_Fulfilled>  (74) 
True

>  <Ro3>  (74) 
[False, False, True, False]

>  <Ro3_Fulfilled>  (74) 
False

>  <Fsp3>  (74) 
0.28

>  <Fsp3_0.42>  (74) 
False

>  <Fsp3_0.45>  (74) 
False

>  <Stereogenic_Carbons>  (74) 
0

>  <C_Atoms>  (74) 
25

>  <FCStereo>  (74) 
0.0

>  <SPS>  (74) 
444

>  <nSPS>  (74) 
14.322581

>  <PBF>  (74) 
0.988935

>  <PBF_0.6>  (74) 
True

>  <nPBF>  (74) 
0.031901

>  <nPBF_0.016>  (74) 
True

>  <PMI1>  (74) 
2977.250765

>  <PMI2>  (74) 
6865.676058

>  <PMI3>  (74) 
9199.48134

>  <NPR1>  (74) 
0.323632

>  <NPR2>  (74) 
0.746311

>  <Sum_NPR>  (74) 
1.069944

>  <Sum_NPR_1.07>  (74) 
False

>  <Sum_NPR_1.2>  (74) 
False

>  <MaxAbsEStateIndex>  (74) 
9.912054

>  <MaxEStateIndex>  (74) 
9.912054

>  <MinAbsEStateIndex>  (74) 
0.313806

>  <MinEStateIndex>  (74) 
0.313806

>  <qed>  (74) 
0.468006

>  <MolWt>  (74) 
431.585

>  <HeavyAtomMolWt>  (74) 
404.369

>  <ExactMolWt>  (74) 
431.190009

>  <NumValenceElectrons>  (74) 
158

>  <NumRadicalElectrons>  (74) 
0

>  <MaxPartialCharge>  (74) 
0.186447

>  <MinPartialCharge>  (74) 
-0.507955

>  <MaxAbsPartialCharge>  (74) 
0.507955

>  <MinAbsPartialCharge>  (74) 
0.186447

>  <FpDensityMorgan1>  (74) 
0.967742

>  <FpDensityMorgan2>  (74) 
1.806452

>  <FpDensityMorgan3>  (74) 
2.612903

>  <BCUT2D_MWHI>  (74) 
32.13355

>  <BCUT2D_MWLOW>  (74) 
10.07918

>  <BCUT2D_CHGHI>  (74) 
2.192011

>  <BCUT2D_CHGLO>  (74) 
-2.233395

>  <BCUT2D_LOGPHI>  (74) 
2.326111

>  <BCUT2D_LOGPLOW>  (74) 
-3.10276

>  <BCUT2D_MRHI>  (74) 
7.217962

>  <BCUT2D_MRLOW>  (74) 
-0.885342

>  <AvgIpc>  (74) 
3.46328

>  <BalabanJ>  (74) 
1.432032

>  <BertzCT>  (74) 
1154.630592

>  <Chi0>  (74) 
21.045395

>  <Chi0n>  (74) 
17.497703

>  <Chi0v>  (74) 
18.3142

>  <Chi1>  (74) 
15.242316

>  <Chi1n>  (74) 
10.91916

>  <Chi1v>  (74) 
11.735657

>  <Chi2n>  (74) 
8.213396

>  <Chi2v>  (74) 
9.222495

>  <Chi3n>  (74) 
5.991257

>  <Chi3v>  (74) 
7.070219

>  <Chi4n>  (74) 
4.307252

>  <Chi4v>  (74) 
5.337023

>  <HallKierAlpha>  (74) 
-2.96

>  <Ipc>  (74) 
27721672.665485

>  <Kappa1>  (74) 
19.971302

>  <Kappa2>  (74) 
9.038407

>  <Kappa3>  (74) 
4.703206

>  <LabuteASA>  (74) 
186.16958

>  <PEOE_VSA1>  (74) 
14.906347

>  <PEOE_VSA10>  (74) 
5.749512

>  <PEOE_VSA11>  (74) 
5.131558

>  <PEOE_VSA12>  (74) 
0.0

>  <PEOE_VSA13>  (74) 
0.0

>  <PEOE_VSA14>  (74) 
0.0

>  <PEOE_VSA2>  (74) 
4.983979

>  <PEOE_VSA3>  (74) 
4.983979

>  <PEOE_VSA4>  (74) 
0.0

>  <PEOE_VSA5>  (74) 
0.0

>  <PEOE_VSA6>  (74) 
29.535887

>  <PEOE_VSA7>  (74) 
53.088557

>  <PEOE_VSA8>  (74) 
31.780087

>  <PEOE_VSA9>  (74) 
36.395646

>  <SMR_VSA1>  (74) 
10.006437

>  <SMR_VSA10>  (74) 
26.684965

>  <SMR_VSA2>  (74) 
0.0

>  <SMR_VSA3>  (74) 
9.967957

>  <SMR_VSA4>  (74) 
0.0

>  <SMR_VSA5>  (74) 
19.3864

>  <SMR_VSA6>  (74) 
31.078935

>  <SMR_VSA7>  (74) 
72.554442

>  <SMR_VSA8>  (74) 
0.0

>  <SMR_VSA9>  (74) 
16.876415

>  <SlogP_VSA1>  (74) 
9.799819

>  <SlogP_VSA10>  (74) 
5.131558

>  <SlogP_VSA11>  (74) 
5.749512

>  <SlogP_VSA12>  (74) 
11.336786

>  <SlogP_VSA2>  (74) 
41.25351

>  <SlogP_VSA3>  (74) 
6.544756

>  <SlogP_VSA4>  (74) 
0.0

>  <SlogP_VSA5>  (74) 
18.405095

>  <SlogP_VSA6>  (74) 
66.990991

>  <SlogP_VSA7>  (74) 
0.0

>  <SlogP_VSA8>  (74) 
21.343524

>  <SlogP_VSA9>  (74) 
0.0

>  <EState_VSA1>  (74) 
0.0

>  <EState_VSA10>  (74) 
5.106527

>  <EState_VSA11>  (74) 
0.0

>  <EState_VSA2>  (74) 
0.0

>  <EState_VSA3>  (74) 
5.749512

>  <EState_VSA4>  (74) 
35.84598

>  <EState_VSA5>  (74) 
41.757979

>  <EState_VSA6>  (74) 
22.303063

>  <EState_VSA7>  (74) 
36.659155

>  <EState_VSA8>  (74) 
34.149357

>  <EState_VSA9>  (74) 
4.983979

>  <VSA_EState1>  (74) 
1.193278

>  <VSA_EState10>  (74) 
1.747578

>  <VSA_EState2>  (74) 
13.14973

>  <VSA_EState3>  (74) 
10.957256

>  <VSA_EState4>  (74) 
4.493176

>  <VSA_EState5>  (74) 
0.313806

>  <VSA_EState6>  (74) 
18.109227

>  <VSA_EState7>  (74) 
6.325682

>  <VSA_EState8>  (74) 
5.376933

>  <VSA_EState9>  (74) 
0.0

>  <FractionCSP3>  (74) 
0.28

>  <HeavyAtomCount>  (74) 
31

>  <NHOHCount>  (74) 
2

>  <NOCount>  (74) 
5

>  <NumAliphaticCarbocycles>  (74) 
0

>  <NumAliphaticHeterocycles>  (74) 
1

>  <NumAliphaticRings>  (74) 
1

>  <NumAromaticCarbocycles>  (74) 
2

>  <NumAromaticHeterocycles>  (74) 
2

>  <NAR>  (74) 
4

>  <NumHAcceptors>  (74) 
5

>  <NumHDonors>  (74) 
2

>  <NumHeteroatoms>  (74) 
6

>  <NumRotatableBonds>  (74) 
7

>  <NumSaturatedCarbocycles>  (74) 
0

>  <NumSaturatedHeterocycles>  (74) 
1

>  <NumSaturatedRings>  (74) 
1

>  <RingCount>  (74) 
5

>  <MolLogP>  (74) 
3.7492

>  <MolMR>  (74) 
126.8055

>  <fr_Al_COO>  (74) 
0

>  <fr_Al_OH>  (74) 
0

>  <fr_Al_OH_noTert>  (74) 
0

>  <fr_ArN>  (74) 
0

>  <fr_Ar_COO>  (74) 
0

>  <fr_Ar_N>  (74) 
2

>  <fr_Ar_NH>  (74) 
0

>  <fr_Ar_OH>  (74) 
1

>  <fr_COO>  (74) 
0

>  <fr_COO2>  (74) 
0

>  <fr_C_O>  (74) 
0

>  <fr_C_O_noCOO>  (74) 
0

>  <fr_C_S>  (74) 
0

>  <fr_HOCCN>  (74) 
0

>  <fr_Imine>  (74) 
0

>  <fr_NH0>  (74) 
3

>  <fr_NH1>  (74) 
1

>  <fr_NH2>  (74) 
0

>  <fr_N_O>  (74) 
0

>  <fr_Ndealkylation1>  (74) 
0

>  <fr_Ndealkylation2>  (74) 
1

>  <fr_Nhpyrrole>  (74) 
0

>  <fr_SH>  (74) 
0

>  <fr_aldehyde>  (74) 
0

>  <fr_alkyl_carbamate>  (74) 
0

>  <fr_alkyl_halide>  (74) 
0

>  <fr_allylic_oxid>  (74) 
0

>  <fr_amide>  (74) 
0

>  <fr_amidine>  (74) 
0

>  <fr_aniline>  (74) 
1

>  <fr_aryl_methyl>  (74) 
0

>  <fr_azide>  (74) 
0

>  <fr_azo>  (74) 
0

>  <fr_barbitur>  (74) 
0

>  <fr_benzene>  (74) 
2

>  <fr_benzodiazepine>  (74) 
0

>  <fr_bicyclic>  (74) 
1

>  <fr_diazo>  (74) 
0

>  <fr_dihydropyridine>  (74) 
0

>  <fr_epoxide>  (74) 
0

>  <fr_ester>  (74) 
0

>  <fr_ether>  (74) 
0

>  <fr_furan>  (74) 
0

>  <fr_guanido>  (74) 
0

>  <fr_halogen>  (74) 
0

>  <fr_hdrzine>  (74) 
0

>  <fr_hdrzone>  (74) 
0

>  <fr_imidazole>  (74) 
0

>  <fr_imide>  (74) 
0

>  <fr_isocyan>  (74) 
0

>  <fr_isothiocyan>  (74) 
0

>  <fr_ketone>  (74) 
0

>  <fr_ketone_Topliss>  (74) 
0

>  <fr_lactam>  (74) 
0

>  <fr_lactone>  (74) 
0

>  <fr_methoxy>  (74) 
0

>  <fr_morpholine>  (74) 
0

>  <fr_nitrile>  (74) 
0

>  <fr_nitro>  (74) 
0

>  <fr_nitro_arom>  (74) 
0

>  <fr_nitro_arom_nonortho>  (74) 
0

>  <fr_nitroso>  (74) 
0

>  <fr_oxazole>  (74) 
0

>  <fr_oxime>  (74) 
0

>  <fr_para_hydroxylation>  (74) 
0

>  <fr_phenol>  (74) 
1

>  <fr_phenol_noOrthoHbond>  (74) 
1

>  <fr_phos_acid>  (74) 
0

>  <fr_phos_ester>  (74) 
0

>  <fr_piperdine>  (74) 
0

>  <fr_piperzine>  (74) 
0

>  <fr_priamide>  (74) 
0

>  <fr_prisulfonamd>  (74) 
0

>  <fr_pyridine>  (74) 
1

>  <fr_quatN>  (74) 
1

>  <fr_sulfide>  (74) 
0

>  <fr_sulfonamd>  (74) 
0

>  <fr_sulfone>  (74) 
0

>  <fr_term_acetylene>  (74) 
0

>  <fr_tetrazole>  (74) 
0

>  <fr_thiazole>  (74) 
1

>  <fr_thiocyan>  (74) 
0

>  <fr_thiophene>  (74) 
0

>  <fr_unbrch_alkane>  (74) 
0

>  <fr_urea>  (74) 
0

>  <NP-Likeness>  (74) 
-1.098899

$$$$
9K6
     RDKit          3D

  0  0  0  0  0  0  0  0  0  0999 V3000
M  V30 BEGIN CTAB
M  V30 COUNTS 41 43 0 0 0
M  V30 BEGIN ATOM
M  V30 1 C 0.775303 -1.826843 4.069674 0
M  V30 2 N 0.007416 -2.860055 4.521111 0
M  V30 3 C -0.469166 -3.767480 3.623279 0
M  V30 4 C -0.217878 -3.705219 2.253213 0
M  V30 5 C -0.692956 -4.619696 1.368306 0
M  V30 6 C -0.402491 -4.504733 0.027038 0
M  V30 7 C 0.378515 -3.431696 -0.345342 0
M  V30 8 C 0.907198 -2.448786 0.488839 0
M  V30 9 S 1.859620 -1.137574 -0.165160 0
M  V30 10 O 3.288612 -1.220253 0.356186 0
M  V30 11 O 2.002433 -1.413023 -1.655962 0
M  V30 12 N 1.198378 0.397642 0.010299 0
M  V30 13 C 1.894059 1.342174 0.792569 0
M  V30 14 C 1.058493 2.022761 1.834661 0
M  V30 15 C -0.357459 2.268230 1.480346 0
M  V30 16 N -0.720215 2.683808 0.199686 0 CHG=1 VAL=4
M  V30 17 C -0.007452 2.300566 -0.945160 0
M  V30 18 C 0.413044 0.871743 -1.066853 0 CFG=2
M  V30 19 C -0.771623 -0.048146 -1.239254 0
M  V30 20 C 0.556367 -2.661933 1.800999 0
M  V30 21 C 1.016737 -1.771757 2.732612 0
M  V30 22 H 1.170876 -1.084259 4.768846 0
M  V30 23 H -1.084322 -4.611729 3.912617 0
M  V30 24 H -1.301647 -5.442539 1.712800 0
M  V30 25 H -0.764044 -5.213476 -0.698252 0
M  V30 26 H 0.588942 -3.371123 -1.413413 0
M  V30 27 H 2.455302 2.109674 0.170044 0
M  V30 28 H 2.718067 0.830030 1.323762 0
M  V30 29 H 1.073267 1.377475 2.738367 0
M  V30 30 H 1.589637 2.955793 2.116569 0
M  V30 31 H -0.962020 1.358186 1.776760 0
M  V30 32 H -0.727884 3.023702 2.212628 0
M  V30 33 H -1.737169 2.403009 0.045339 0
M  V30 34 H -0.794548 3.747137 0.172723 0
M  V30 35 H 0.892043 2.950971 -1.108913 0
M  V30 36 H -0.638372 2.502334 -1.838747 0
M  V30 37 H 0.999256 0.787192 -2.007071 0
M  V30 38 H -1.672909 0.512346 -1.603310 0
M  V30 39 H -1.005524 -0.598959 -0.283431 0
M  V30 40 H -0.592686 -0.846116 -1.990816 0
M  V30 41 H 1.629633 -0.955428 2.407490 0
M  V30 END ATOM
M  V30 BEGIN BOND
M  V30 1 2 1 2
M  V30 2 1 2 3
M  V30 3 2 3 4
M  V30 4 1 4 5
M  V30 5 2 5 6
M  V30 6 1 6 7
M  V30 7 2 7 8
M  V30 8 1 8 9
M  V30 9 2 9 10
M  V30 10 2 9 11
M  V30 11 1 9 12
M  V30 12 1 12 13
M  V30 13 1 13 14
M  V30 14 1 14 15
M  V30 15 1 15 16
M  V30 16 1 16 17
M  V30 17 1 17 18
M  V30 18 1 18 19
M  V30 19 1 8 20
M  V30 20 2 20 21
M  V30 21 1 21 1
M  V30 22 1 20 4
M  V30 23 1 18 12
M  V30 24 1 1 22
M  V30 25 1 3 23
M  V30 26 1 5 24
M  V30 27 1 6 25
M  V30 28 1 7 26
M  V30 29 1 13 27
M  V30 30 1 13 28
M  V30 31 1 14 29
M  V30 32 1 14 30
M  V30 33 1 15 31
M  V30 34 1 15 32
M  V30 35 1 16 33
M  V30 36 1 16 34
M  V30 37 1 17 35
M  V30 38 1 17 36
M  V30 39 1 18 37 CFG=3
M  V30 40 1 19 38
M  V30 41 1 19 39
M  V30 42 1 19 40
M  V30 43 1 21 41
M  V30 END BOND
M  V30 END CTAB
M  END
>  <Dataset>  (75) 
PDB

>  <Ligand_Instance>  (75) 
5M75_9K6_A_402

>  <PDB_ID>  (75) 
5M75

>  <Standardized_SMILES>  (75) 
[H]C1=NC([H])=C2C([H])=C([H])C([H])=C(S(=O)(=O)N3C([H])([H])C([H])([H])C([H])([H])[N+]([H])([H])C([H])([H])[C@]3([H])C([H])([H])[H])C2=C1[H]

>  <Name>  (75) 
5-[[(2~{S})-2-methyl-1,4-diazepan-1-yl]sulfonyl]isoquinoline

>  <Pocket>  (75) 
A

>  <ATP_Site>  (75) 
1.0

>  <Peripheral>  (75) 
0.0

>  <Num_H_Atoms_ProtBoundConf>  (75) 
20.0

>  <Num_Resolved_Atoms>  (75) 
21.0

>  <Num_Not_Resolved_Atoms>  (75) 
0.0

>  <2D_Mol_H>  (75) 
<rdkit.Chem.rdchem.Mol object at 0x72a238dc68f0>

>  <MW>  (75) 
306.411

>  <HBA>  (75) 
3

>  <HBD>  (75) 
1

>  <LogP>  (75) 
0.5811

>  <NRB>  (75) 
3

>  <TPSA>  (75) 
66.88

>  <Num_Heavy_Atoms>  (75) 
21

>  <Ro5>  (75) 
[True, True, True, True, True, True]

>  <Ro5_Fulfilled>  (75) 
True

>  <Ro3>  (75) 
[False, True, True, True]

>  <Ro3_Fulfilled>  (75) 
True

>  <Fsp3>  (75) 
0.4

>  <Fsp3_0.42>  (75) 
False

>  <Fsp3_0.45>  (75) 
False

>  <Stereogenic_Carbons>  (75) 
1

>  <C_Atoms>  (75) 
15

>  <FCStereo>  (75) 
0.066667

>  <SPS>  (75) 
447

>  <nSPS>  (75) 
21.285714

>  <PBF>  (75) 
1.003004

>  <PBF_0.6>  (75) 
True

>  <nPBF>  (75) 
0.047762

>  <nPBF_0.016>  (75) 
True

>  <PMI1>  (75) 
1113.526441

>  <PMI2>  (75) 
2113.867005

>  <PMI3>  (75) 
2490.114049

>  <NPR1>  (75) 
0.447179

>  <NPR2>  (75) 
0.848904

>  <Sum_NPR>  (75) 
1.296083

>  <Sum_NPR_1.07>  (75) 
True

>  <Sum_NPR_1.2>  (75) 
True

>  <MaxAbsEStateIndex>  (75) 
13.056031

>  <MaxEStateIndex>  (75) 
13.056031

>  <MinAbsEStateIndex>  (75) 
0.008883

>  <MinEStateIndex>  (75) 
-3.475602

>  <qed>  (75) 
0.882456

>  <MolWt>  (75) 
306.411

>  <HeavyAtomMolWt>  (75) 
286.251

>  <ExactMolWt>  (75) 
306.127074

>  <NumValenceElectrons>  (75) 
112

>  <NumRadicalElectrons>  (75) 
0

>  <MaxPartialCharge>  (75) 
0.243643

>  <MinPartialCharge>  (75) 
-0.344891

>  <MaxAbsPartialCharge>  (75) 
0.344891

>  <MinAbsPartialCharge>  (75) 
0.243643

>  <FpDensityMorgan1>  (75) 
1.333333

>  <FpDensityMorgan2>  (75) 
2.190476

>  <FpDensityMorgan3>  (75) 
3.047619

>  <BCUT2D_MWHI>  (75) 
32.233428

>  <BCUT2D_MWLOW>  (75) 
10.168262

>  <BCUT2D_CHGHI>  (75) 
2.317314

>  <BCUT2D_CHGLO>  (75) 
-2.248381

>  <BCUT2D_LOGPHI>  (75) 
2.260173

>  <BCUT2D_LOGPLOW>  (75) 
-2.855536

>  <BCUT2D_MRHI>  (75) 
7.889867

>  <BCUT2D_MRLOW>  (75) 
-0.654222

>  <AvgIpc>  (75) 
2.712915

>  <BalabanJ>  (75) 
2.113525

>  <BertzCT>  (75) 
740.17207

>  <Chi0>  (75) 
14.872033

>  <Chi0n>  (75) 
12.066401

>  <Chi0v>  (75) 
12.882898

>  <Chi1>  (75) 
10.10419

>  <Chi1n>  (75) 
7.267652

>  <Chi1v>  (75) 
8.707715

>  <Chi2n>  (75) 
5.484343

>  <Chi2v>  (75) 
7.343319

>  <Chi3n>  (75) 
4.013517

>  <Chi3v>  (75) 
6.08525

>  <Chi4n>  (75) 
2.889639

>  <Chi4v>  (75) 
4.78594

>  <HallKierAlpha>  (75) 
-1.5

>  <Ipc>  (75) 
79634.902196

>  <Kappa1>  (75) 
14.437804

>  <Kappa2>  (75) 
5.709877

>  <Kappa3>  (75) 
2.661712

>  <LabuteASA>  (75) 
124.587009

>  <PEOE_VSA1>  (75) 
5.316789

>  <PEOE_VSA10>  (75) 
0.0

>  <PEOE_VSA11>  (75) 
0.0

>  <PEOE_VSA12>  (75) 
10.023291

>  <PEOE_VSA13>  (75) 
0.0

>  <PEOE_VSA14>  (75) 
0.0

>  <PEOE_VSA2>  (75) 
4.983979

>  <PEOE_VSA3>  (75) 
8.417797

>  <PEOE_VSA4>  (75) 
4.305216

>  <PEOE_VSA5>  (75) 
0.0

>  <PEOE_VSA6>  (75) 
12.132734

>  <PEOE_VSA7>  (75) 
19.056471

>  <PEOE_VSA8>  (75) 
36.131714

>  <PEOE_VSA9>  (75) 
24.026837

>  <SMR_VSA1>  (75) 
13.734586

>  <SMR_VSA10>  (75) 
20.79574

>  <SMR_VSA2>  (75) 
0.0

>  <SMR_VSA3>  (75) 
9.289195

>  <SMR_VSA4>  (75) 
0.0

>  <SMR_VSA5>  (75) 
24.281883

>  <SMR_VSA6>  (75) 
19.634269

>  <SMR_VSA7>  (75) 
36.659155

>  <SMR_VSA8>  (75) 
0.0

>  <SMR_VSA9>  (75) 
0.0

>  <SlogP_VSA1>  (75) 
5.316789

>  <SlogP_VSA10>  (75) 
0.0

>  <SlogP_VSA11>  (75) 
0.0

>  <SlogP_VSA12>  (75) 
0.0

>  <SlogP_VSA2>  (75) 
43.383102

>  <SlogP_VSA3>  (75) 
10.023291

>  <SlogP_VSA4>  (75) 
0.0

>  <SlogP_VSA5>  (75) 
13.344559

>  <SlogP_VSA6>  (75) 
41.554639

>  <SlogP_VSA7>  (75) 
0.0

>  <SlogP_VSA8>  (75) 
10.772448

>  <SlogP_VSA9>  (75) 
0.0

>  <EState_VSA1>  (75) 
10.023291

>  <EState_VSA10>  (75) 
8.417797

>  <EState_VSA11>  (75) 
0.0

>  <EState_VSA2>  (75) 
6.041841

>  <EState_VSA3>  (75) 
11.44024

>  <EState_VSA4>  (75) 
30.282783

>  <EState_VSA5>  (75) 
0.0

>  <EState_VSA6>  (75) 
34.898004

>  <EState_VSA7>  (75) 
12.990104

>  <EState_VSA8>  (75) 
10.300767

>  <EState_VSA9>  (75) 
0.0

>  <VSA_EState1>  (75) 
27.756607

>  <VSA_EState10>  (75) 
0.0

>  <VSA_EState2>  (75) 
4.450403

>  <VSA_EState3>  (75) 
3.785427

>  <VSA_EState4>  (75) 
0.0

>  <VSA_EState5>  (75) 
0.0

>  <VSA_EState6>  (75) 
7.150071

>  <VSA_EState7>  (75) 
4.227046

>  <VSA_EState8>  (75) 
4.356048

>  <VSA_EState9>  (75) 
-3.475602

>  <FractionCSP3>  (75) 
0.4

>  <HeavyAtomCount>  (75) 
21

>  <NHOHCount>  (75) 
2

>  <NOCount>  (75) 
5

>  <NumAliphaticCarbocycles>  (75) 
0

>  <NumAliphaticHeterocycles>  (75) 
1

>  <NumAliphaticRings>  (75) 
1

>  <NumAromaticCarbocycles>  (75) 
1

>  <NumAromaticHeterocycles>  (75) 
1

>  <NAR>  (75) 
2

>  <NumHAcceptors>  (75) 
3

>  <NumHDonors>  (75) 
1

>  <NumHeteroatoms>  (75) 
6

>  <NumRotatableBonds>  (75) 
2

>  <NumSaturatedCarbocycles>  (75) 
0

>  <NumSaturatedHeterocycles>  (75) 
1

>  <NumSaturatedRings>  (75) 
1

>  <RingCount>  (75) 
3

>  <MolLogP>  (75) 
0.5811

>  <MolMR>  (75) 
81.3732

>  <fr_Al_COO>  (75) 
0

>  <fr_Al_OH>  (75) 
0

>  <fr_Al_OH_noTert>  (75) 
0

>  <fr_ArN>  (75) 
0

>  <fr_Ar_COO>  (75) 
0

>  <fr_Ar_N>  (75) 
1

>  <fr_Ar_NH>  (75) 
0

>  <fr_Ar_OH>  (75) 
0

>  <fr_COO>  (75) 
0

>  <fr_COO2>  (75) 
0

>  <fr_C_O>  (75) 
0

>  <fr_C_O_noCOO>  (75) 
0

>  <fr_C_S>  (75) 
0

>  <fr_HOCCN>  (75) 
0

>  <fr_Imine>  (75) 
0

>  <fr_NH0>  (75) 
2

>  <fr_NH1>  (75) 
0

>  <fr_NH2>  (75) 
1

>  <fr_N_O>  (75) 
0

>  <fr_Ndealkylation1>  (75) 
0

>  <fr_Ndealkylation2>  (75) 
0

>  <fr_Nhpyrrole>  (75) 
0

>  <fr_SH>  (75) 
0

>  <fr_aldehyde>  (75) 
0

>  <fr_alkyl_carbamate>  (75) 
0

>  <fr_alkyl_halide>  (75) 
0

>  <fr_allylic_oxid>  (75) 
0

>  <fr_amide>  (75) 
0

>  <fr_amidine>  (75) 
0

>  <fr_aniline>  (75) 
0

>  <fr_aryl_methyl>  (75) 
0

>  <fr_azide>  (75) 
0

>  <fr_azo>  (75) 
0

>  <fr_barbitur>  (75) 
0

>  <fr_benzene>  (75) 
1

>  <fr_benzodiazepine>  (75) 
0

>  <fr_bicyclic>  (75) 
1

>  <fr_diazo>  (75) 
0

>  <fr_dihydropyridine>  (75) 
0

>  <fr_epoxide>  (75) 
0

>  <fr_ester>  (75) 
0

>  <fr_ether>  (75) 
0

>  <fr_furan>  (75) 
0

>  <fr_guanido>  (75) 
0

>  <fr_halogen>  (75) 
0

>  <fr_hdrzine>  (75) 
0

>  <fr_hdrzone>  (75) 
0

>  <fr_imidazole>  (75) 
0

>  <fr_imide>  (75) 
0

>  <fr_isocyan>  (75) 
0

>  <fr_isothiocyan>  (75) 
0

>  <fr_ketone>  (75) 
0

>  <fr_ketone_Topliss>  (75) 
0

>  <fr_lactam>  (75) 
0

>  <fr_lactone>  (75) 
0

>  <fr_methoxy>  (75) 
0

>  <fr_morpholine>  (75) 
0

>  <fr_nitrile>  (75) 
0

>  <fr_nitro>  (75) 
0

>  <fr_nitro_arom>  (75) 
0

>  <fr_nitro_arom_nonortho>  (75) 
0

>  <fr_nitroso>  (75) 
0

>  <fr_oxazole>  (75) 
0

>  <fr_oxime>  (75) 
0

>  <fr_para_hydroxylation>  (75) 
0

>  <fr_phenol>  (75) 
0

>  <fr_phenol_noOrthoHbond>  (75) 
0

>  <fr_phos_acid>  (75) 
0

>  <fr_phos_ester>  (75) 
0

>  <fr_piperdine>  (75) 
0

>  <fr_piperzine>  (75) 
0

>  <fr_priamide>  (75) 
0

>  <fr_prisulfonamd>  (75) 
0

>  <fr_pyridine>  (75) 
1

>  <fr_quatN>  (75) 
1

>  <fr_sulfide>  (75) 
0

>  <fr_sulfonamd>  (75) 
1

>  <fr_sulfone>  (75) 
0

>  <fr_term_acetylene>  (75) 
0

>  <fr_tetrazole>  (75) 
0

>  <fr_thiazole>  (75) 
0

>  <fr_thiocyan>  (75) 
0

>  <fr_thiophene>  (75) 
0

>  <fr_unbrch_alkane>  (75) 
0

>  <fr_urea>  (75) 
0

>  <NP-Likeness>  (75) 
-1.234159

$$$$
9LQ
     RDKit          3D

  0  0  0  0  0  0  0  0  0  0999 V3000
M  V30 BEGIN CTAB
M  V30 COUNTS 55 58 0 0 0
M  V30 BEGIN ATOM
M  V30 1 O 1.985844 -3.395984 1.835417 0
M  V30 2 B 2.953750 -2.290878 1.913970 0
M  V30 3 O 3.218963 -1.735243 3.253659 0
M  V30 4 C 3.847222 -1.874605 0.737575 0
M  V30 5 C 5.179705 -2.203416 0.658629 0
M  V30 6 C 5.985740 -1.837979 -0.402310 0
M  V30 7 C 5.388137 -1.105270 -1.417785 0
M  V30 8 C 4.049750 -0.776338 -1.335874 0
M  V30 9 C 3.240070 -1.150691 -0.256704 0
M  V30 10 C 1.826723 -0.691596 -0.349226 0
M  V30 11 N 1.591065 0.457414 0.476437 0 CFG=2 CHG=1 VAL=4
M  V30 12 C 0.675231 0.145174 1.512282 0
M  V30 13 C -0.393326 1.176037 1.774064 0
M  V30 14 N -1.419238 1.279666 0.833438 0
M  V30 15 S -3.022815 1.155117 1.297549 0
M  V30 16 O -3.714034 2.376312 0.702097 0
M  V30 17 O -3.254551 1.325639 2.774682 0
M  V30 18 C -3.860460 -0.217267 0.647268 0
M  V30 19 C -4.933229 -0.071032 -0.249483 0
M  V30 20 C -5.635792 -1.084711 -0.830573 0
M  V30 21 C -5.290745 -2.384233 -0.535205 0
M  V30 22 C -4.250930 -2.614898 0.335383 0
M  V30 23 C -3.903442 -3.912003 0.643400 0
M  V30 24 N -2.883748 -4.147554 1.508955 0
M  V30 25 C -2.200205 -3.114859 2.076837 0
M  V30 26 C -2.576933 -1.852813 1.744144 0
M  V30 27 C -3.597270 -1.532968 0.875683 0
M  V30 28 C -1.150833 2.040485 -0.342721 0
M  V30 29 C 0.035234 1.527426 -1.124164 0
M  V30 30 C 1.263826 1.633357 -0.298045 0
M  V30 31 H 1.091136 -2.985435 1.946322 0
M  V30 32 H 2.515824 -1.989074 3.894756 0
M  V30 33 H 5.568673 -2.784207 1.505795 0
M  V30 34 H 7.016493 -2.157489 -0.346712 0
M  V30 35 H 6.013888 -0.825947 -2.233505 0
M  V30 36 H 3.693089 -0.201929 -2.188131 0
M  V30 37 H 1.512580 -0.572373 -1.408507 0
M  V30 38 H 1.193024 -1.552211 0.018041 0
M  V30 39 H 2.521366 0.703818 0.935871 0
M  V30 40 H 0.181716 -0.828274 1.352946 0
M  V30 41 H 1.207765 0.033850 2.505473 0
M  V30 42 H 0.080713 2.188240 1.945423 0
M  V30 43 H -0.830929 0.938476 2.773388 0
M  V30 44 H -5.271571 0.921809 -0.538036 0
M  V30 45 H -6.448955 -0.922542 -1.510929 0
M  V30 46 H -5.816764 -3.214548 -0.970069 0
M  V30 47 H -4.433154 -4.761980 0.203956 0
M  V30 48 H -1.394241 -3.292770 2.761325 0
M  V30 49 H -2.037554 -1.049690 2.209175 0
M  V30 50 H -2.085028 2.099764 -0.934565 0
M  V30 51 H -0.921363 3.082174 -0.038525 0
M  V30 52 H -0.138438 0.562291 -1.589476 0
M  V30 53 H 0.158494 2.260999 -1.973677 0
M  V30 54 H 2.139936 1.761794 -1.000196 0
M  V30 55 H 1.274673 2.522025 0.327724 0
M  V30 END ATOM
M  V30 BEGIN BOND
M  V30 1 1 1 2
M  V30 2 1 2 3
M  V30 3 1 2 4
M  V30 4 2 4 5
M  V30 5 1 5 6
M  V30 6 2 6 7
M  V30 7 1 7 8
M  V30 8 2 8 9
M  V30 9 1 9 10
M  V30 10 1 10 11
M  V30 11 1 11 12
M  V30 12 1 12 13
M  V30 13 1 13 14
M  V30 14 1 14 15
M  V30 15 2 15 16
M  V30 16 2 15 17
M  V30 17 1 15 18
M  V30 18 2 18 19
M  V30 19 1 19 20
M  V30 20 2 20 21
M  V30 21 1 21 22
M  V30 22 2 22 23
M  V30 23 1 23 24
M  V30 24 2 24 25
M  V30 25 1 25 26
M  V30 26 2 26 27
M  V30 27 1 14 28
M  V30 28 1 28 29
M  V30 29 1 29 30
M  V30 30 1 9 4
M  V30 31 1 30 11
M  V30 32 1 27 18
M  V30 33 1 27 22
M  V30 34 1 1 31
M  V30 35 1 3 32
M  V30 36 1 5 33
M  V30 37 1 6 34
M  V30 38 1 7 35
M  V30 39 1 8 36
M  V30 40 1 10 37
M  V30 41 1 10 38
M  V30 42 1 11 39 CFG=1
M  V30 43 1 12 40
M  V30 44 1 12 41
M  V30 45 1 13 42
M  V30 46 1 13 43
M  V30 47 1 19 44
M  V30 48 1 20 45
M  V30 49 1 21 46
M  V30 50 1 23 47
M  V30 51 1 25 48
M  V30 52 1 26 49
M  V30 53 1 28 50
M  V30 54 1 28 51
M  V30 55 1 29 52
M  V30 56 1 29 53
M  V30 57 1 30 54
M  V30 58 1 30 55
M  V30 END BOND
M  V30 END CTAB
M  END
>  <Dataset>  (76) 
PDB

>  <Ligand_Instance>  (76) 
5O5M_9LQ_A_401

>  <PDB_ID>  (76) 
5O5M

>  <Standardized_SMILES>  (76) 
[H]OB(O[H])C1=C([H])C([H])=C([H])C([H])=C1C([H])([H])[N@+]1([H])C([H])([H])C([H])([H])N(S(=O)(=O)C2=C([H])C([H])=C([H])C3=C([H])N=C([H])C([H])=C32)C([H])([H])C([H])([H])C1([H])[H]

>  <Name>  (76) 
[2-[(4-isoquinolin-5-ylsulfonyl-1,4-diazepan-1-yl)methyl]phenyl]boronic acid

>  <Pocket>  (76) 
A

>  <ATP_Site>  (76) 
1.0

>  <Peripheral>  (76) 
0.0

>  <Num_H_Atoms_ProtBoundConf>  (76) 
25.0

>  <Num_Resolved_Atoms>  (76) 
30.0

>  <Num_Not_Resolved_Atoms>  (76) 
0.0

>  <2D_Mol_H>  (76) 
<rdkit.Chem.rdchem.Mol object at 0x72a238dc69d0>

>  <MW>  (76) 
426.327

>  <HBA>  (76) 
5

>  <HBD>  (76) 
3

>  <LogP>  (76) 
-0.6059

>  <NRB>  (76) 
7

>  <TPSA>  (76) 
95.17

>  <Num_Heavy_Atoms>  (76) 
30

>  <Ro5>  (76) 
[True, True, True, True, True, True]

>  <Ro5_Fulfilled>  (76) 
True

>  <Ro3>  (76) 
[False, False, True, True]

>  <Ro3_Fulfilled>  (76) 
False

>  <Fsp3>  (76) 
0.285714

>  <Fsp3_0.42>  (76) 
False

>  <Fsp3_0.45>  (76) 
False

>  <Stereogenic_Carbons>  (76) 
0

>  <C_Atoms>  (76) 
21

>  <FCStereo>  (76) 
0.0

>  <SPS>  (76) 
548

>  <nSPS>  (76) 
18.266667

>  <PBF>  (76) 
1.165122

>  <PBF_0.6>  (76) 
True

>  <nPBF>  (76) 
0.038837

>  <nPBF_0.016>  (76) 
True

>  <PMI1>  (76) 
2068.393699

>  <PMI2>  (76) 
5592.941043

>  <PMI3>  (76) 
6462.822015

>  <NPR1>  (76) 
0.320045

>  <NPR2>  (76) 
0.865402

>  <Sum_NPR>  (76) 
1.185447

>  <Sum_NPR_1.07>  (76) 
True

>  <Sum_NPR_1.2>  (76) 
False

>  <MaxAbsEStateIndex>  (76) 
13.392542

>  <MaxEStateIndex>  (76) 
13.392542

>  <MinAbsEStateIndex>  (76) 
0.319073

>  <MinEStateIndex>  (76) 
-3.617627

>  <qed>  (76) 
0.473798

>  <MolWt>  (76) 
426.327

>  <HeavyAtomMolWt>  (76) 
401.127

>  <ExactMolWt>  (76) 
426.165334

>  <NumValenceElectrons>  (76) 
156

>  <NumRadicalElectrons>  (76) 
0

>  <MaxPartialCharge>  (76) 
0.488428

>  <MinPartialCharge>  (76) 
-0.423168

>  <MaxAbsPartialCharge>  (76) 
0.488428

>  <MinAbsPartialCharge>  (76) 
0.423168

>  <FpDensityMorgan1>  (76) 
1.033333

>  <FpDensityMorgan2>  (76) 
1.866667

>  <FpDensityMorgan3>  (76) 
2.7

>  <BCUT2D_MWHI>  (76) 
32.233428

>  <BCUT2D_MWLOW>  (76) 
9.767095

>  <BCUT2D_CHGHI>  (76) 
2.297856

>  <BCUT2D_CHGLO>  (76) 
-2.211151

>  <BCUT2D_LOGPHI>  (76) 
2.248417

>  <BCUT2D_LOGPLOW>  (76) 
-3.107912

>  <BCUT2D_MRHI>  (76) 
7.889656

>  <BCUT2D_MRLOW>  (76) 
-0.911282

>  <AvgIpc>  (76) 
2.99481

>  <BalabanJ>  (76) 
1.529212

>  <BertzCT>  (76) 
1134.559461

>  <Chi0>  (76) 
21.139617

>  <Chi0n>  (76) 
16.607093

>  <Chi0v>  (76) 
17.423589

>  <Chi1>  (76) 
14.464364

>  <Chi1n>  (76) 
10.070222

>  <Chi1v>  (76) 
11.510286

>  <Chi2n>  (76) 
7.609858

>  <Chi2v>  (76) 
9.516215

>  <Chi3n>  (76) 
5.684879

>  <Chi3v>  (76) 
7.641672

>  <Chi4n>  (76) 
4.115427

>  <Chi4v>  (76) 
5.809037

>  <HallKierAlpha>  (76) 
-2.295065

>  <Ipc>  (76) 
7678260.565908

>  <Kappa1>  (76) 
20.956745

>  <Kappa2>  (76) 
8.829043

>  <Kappa3>  (76) 
4.257317

>  <LabuteASA>  (76) 
176.335146

>  <PEOE_VSA1>  (76) 
14.947955

>  <PEOE_VSA10>  (76) 
6.544756

>  <PEOE_VSA11>  (76) 
0.0

>  <PEOE_VSA12>  (76) 
10.023291

>  <PEOE_VSA13>  (76) 
0.0

>  <PEOE_VSA14>  (76) 
7.118392

>  <PEOE_VSA2>  (76) 
4.983979

>  <PEOE_VSA3>  (76) 
8.417797

>  <PEOE_VSA4>  (76) 
4.305216

>  <PEOE_VSA5>  (76) 
0.0

>  <PEOE_VSA6>  (76) 
36.398202

>  <PEOE_VSA7>  (76) 
17.595537

>  <PEOE_VSA8>  (76) 
41.695165

>  <PEOE_VSA9>  (76) 
24.529753

>  <SMR_VSA1>  (76) 
23.365752

>  <SMR_VSA10>  (76) 
33.376935

>  <SMR_VSA2>  (76) 
0.0

>  <SMR_VSA3>  (76) 
9.289195

>  <SMR_VSA4>  (76) 
0.0

>  <SMR_VSA5>  (76) 
17.861062

>  <SMR_VSA6>  (76) 
26.179026

>  <SMR_VSA7>  (76) 
66.488075

>  <SMR_VSA8>  (76) 
0.0

>  <SMR_VSA9>  (76) 
0.0

>  <SlogP_VSA1>  (76) 
10.362713

>  <SlogP_VSA10>  (76) 
0.0

>  <SlogP_VSA11>  (76) 
0.0

>  <SlogP_VSA12>  (76) 
0.0

>  <SlogP_VSA2>  (76) 
61.052455

>  <SlogP_VSA3>  (76) 
16.568048

>  <SlogP_VSA4>  (76) 
0.0

>  <SlogP_VSA5>  (76) 
11.984273

>  <SlogP_VSA6>  (76) 
65.820107

>  <SlogP_VSA7>  (76) 
0.0

>  <SlogP_VSA8>  (76) 
10.772448

>  <SlogP_VSA9>  (76) 
0.0

>  <EState_VSA1>  (76) 
17.141683

>  <EState_VSA10>  (76) 
18.465842

>  <EState_VSA11>  (76) 
0.0

>  <EState_VSA2>  (76) 
0.0

>  <EState_VSA3>  (76) 
41.923537

>  <EState_VSA4>  (76) 
23.915254

>  <EState_VSA5>  (76) 
4.89991

>  <EState_VSA6>  (76) 
47.030738

>  <EState_VSA7>  (76) 
18.199101

>  <EState_VSA8>  (76) 
4.983979

>  <EState_VSA9>  (76) 
0.0

>  <VSA_EState1>  (76) 
28.356509

>  <VSA_EState10>  (76) 
0.0

>  <VSA_EState2>  (76) 
5.629409

>  <VSA_EState3>  (76) 
20.702694

>  <VSA_EState4>  (76) 
1.378194

>  <VSA_EState5>  (76) 
0.0

>  <VSA_EState6>  (76) 
14.287942

>  <VSA_EState7>  (76) 
4.030861

>  <VSA_EState8>  (76) 
2.990995

>  <VSA_EState9>  (76) 
-5.126604

>  <FractionCSP3>  (76) 
0.285714

>  <HeavyAtomCount>  (76) 
30

>  <NHOHCount>  (76) 
3

>  <NOCount>  (76) 
7

>  <NumAliphaticCarbocycles>  (76) 
0

>  <NumAliphaticHeterocycles>  (76) 
1

>  <NumAliphaticRings>  (76) 
1

>  <NumAromaticCarbocycles>  (76) 
2

>  <NumAromaticHeterocycles>  (76) 
1

>  <NAR>  (76) 
3

>  <NumHAcceptors>  (76) 
5

>  <NumHDonors>  (76) 
3

>  <NumHeteroatoms>  (76) 
9

>  <NumRotatableBonds>  (76) 
5

>  <NumSaturatedCarbocycles>  (76) 
0

>  <NumSaturatedHeterocycles>  (76) 
1

>  <NumSaturatedRings>  (76) 
1

>  <RingCount>  (76) 
4

>  <MolLogP>  (76) 
-0.6059

>  <MolMR>  (76) 
115.7871

>  <fr_Al_COO>  (76) 
0

>  <fr_Al_OH>  (76) 
0

>  <fr_Al_OH_noTert>  (76) 
0

>  <fr_ArN>  (76) 
0

>  <fr_Ar_COO>  (76) 
0

>  <fr_Ar_N>  (76) 
1

>  <fr_Ar_NH>  (76) 
0

>  <fr_Ar_OH>  (76) 
0

>  <fr_COO>  (76) 
0

>  <fr_COO2>  (76) 
0

>  <fr_C_O>  (76) 
0

>  <fr_C_O_noCOO>  (76) 
0

>  <fr_C_S>  (76) 
0

>  <fr_HOCCN>  (76) 
0

>  <fr_Imine>  (76) 
0

>  <fr_NH0>  (76) 
2

>  <fr_NH1>  (76) 
1

>  <fr_NH2>  (76) 
0

>  <fr_N_O>  (76) 
0

>  <fr_Ndealkylation1>  (76) 
0

>  <fr_Ndealkylation2>  (76) 
0

>  <fr_Nhpyrrole>  (76) 
0

>  <fr_SH>  (76) 
0

>  <fr_aldehyde>  (76) 
0

>  <fr_alkyl_carbamate>  (76) 
0

>  <fr_alkyl_halide>  (76) 
0

>  <fr_allylic_oxid>  (76) 
0

>  <fr_amide>  (76) 
0

>  <fr_amidine>  (76) 
0

>  <fr_aniline>  (76) 
0

>  <fr_aryl_methyl>  (76) 
0

>  <fr_azide>  (76) 
0

>  <fr_azo>  (76) 
0

>  <fr_barbitur>  (76) 
0

>  <fr_benzene>  (76) 
2

>  <fr_benzodiazepine>  (76) 
0

>  <fr_bicyclic>  (76) 
1

>  <fr_diazo>  (76) 
0

>  <fr_dihydropyridine>  (76) 
0

>  <fr_epoxide>  (76) 
0

>  <fr_ester>  (76) 
0

>  <fr_ether>  (76) 
0

>  <fr_furan>  (76) 
0

>  <fr_guanido>  (76) 
0

>  <fr_halogen>  (76) 
0

>  <fr_hdrzine>  (76) 
0

>  <fr_hdrzone>  (76) 
0

>  <fr_imidazole>  (76) 
0

>  <fr_imide>  (76) 
0

>  <fr_isocyan>  (76) 
0

>  <fr_isothiocyan>  (76) 
0

>  <fr_ketone>  (76) 
0

>  <fr_ketone_Topliss>  (76) 
0

>  <fr_lactam>  (76) 
0

>  <fr_lactone>  (76) 
0

>  <fr_methoxy>  (76) 
0

>  <fr_morpholine>  (76) 
0

>  <fr_nitrile>  (76) 
0

>  <fr_nitro>  (76) 
0

>  <fr_nitro_arom>  (76) 
0

>  <fr_nitro_arom_nonortho>  (76) 
0

>  <fr_nitroso>  (76) 
0

>  <fr_oxazole>  (76) 
0

>  <fr_oxime>  (76) 
0

>  <fr_para_hydroxylation>  (76) 
0

>  <fr_phenol>  (76) 
0

>  <fr_phenol_noOrthoHbond>  (76) 
0

>  <fr_phos_acid>  (76) 
0

>  <fr_phos_ester>  (76) 
0

>  <fr_piperdine>  (76) 
0

>  <fr_piperzine>  (76) 
0

>  <fr_priamide>  (76) 
0

>  <fr_prisulfonamd>  (76) 
0

>  <fr_pyridine>  (76) 
1

>  <fr_quatN>  (76) 
1

>  <fr_sulfide>  (76) 
0

>  <fr_sulfonamd>  (76) 
1

>  <fr_sulfone>  (76) 
0

>  <fr_term_acetylene>  (76) 
0

>  <fr_tetrazole>  (76) 
0

>  <fr_thiazole>  (76) 
0

>  <fr_thiocyan>  (76) 
0

>  <fr_thiophene>  (76) 
0

>  <fr_unbrch_alkane>  (76) 
0

>  <fr_urea>  (76) 
0

>  <NP-Likeness>  (76) 
-1.032216

$$$$
9LQ
     RDKit          3D

  0  0  0  0  0  0  0  0  0  0999 V3000
M  V30 BEGIN CTAB
M  V30 COUNTS 55 58 0 0 0
M  V30 BEGIN ATOM
M  V30 1 O 1.985844 -3.395984 1.835417 0
M  V30 2 B 2.953750 -2.290878 1.913970 0
M  V30 3 O 3.218963 -1.735243 3.253659 0
M  V30 4 C 3.847222 -1.874605 0.737575 0
M  V30 5 C 5.179705 -2.203416 0.658629 0
M  V30 6 C 5.985740 -1.837979 -0.402310 0
M  V30 7 C 5.388137 -1.105270 -1.417785 0
M  V30 8 C 4.049750 -0.776338 -1.335874 0
M  V30 9 C 3.240070 -1.150691 -0.256704 0
M  V30 10 C 1.826723 -0.691596 -0.349226 0
M  V30 11 N 1.591065 0.457414 0.476437 0 CFG=2 CHG=1 VAL=4
M  V30 12 C 0.675231 0.145174 1.512282 0
M  V30 13 C -0.393326 1.176037 1.774064 0
M  V30 14 N -1.419238 1.279666 0.833438 0
M  V30 15 S -3.022815 1.155117 1.297549 0
M  V30 16 O -3.714034 2.376312 0.702097 0
M  V30 17 O -3.254551 1.325639 2.774682 0
M  V30 18 C -3.860460 -0.217267 0.647268 0
M  V30 19 C -4.933229 -0.071032 -0.249483 0
M  V30 20 C -5.635792 -1.084711 -0.830573 0
M  V30 21 C -5.290745 -2.384233 -0.535205 0
M  V30 22 C -4.250930 -2.614898 0.335383 0
M  V30 23 C -3.903442 -3.912003 0.643400 0
M  V30 24 N -2.883748 -4.147554 1.508955 0
M  V30 25 C -2.200205 -3.114859 2.076837 0
M  V30 26 C -2.576933 -1.852813 1.744144 0
M  V30 27 C -3.597270 -1.532968 0.875683 0
M  V30 28 C -1.150833 2.040485 -0.342721 0
M  V30 29 C 0.035234 1.527426 -1.124164 0
M  V30 30 C 1.263826 1.633357 -0.298045 0
M  V30 31 H 1.091136 -2.985435 1.946322 0
M  V30 32 H 2.515824 -1.989074 3.894756 0
M  V30 33 H 5.568673 -2.784207 1.505795 0
M  V30 34 H 7.016493 -2.157489 -0.346712 0
M  V30 35 H 6.013888 -0.825947 -2.233505 0
M  V30 36 H 3.693089 -0.201929 -2.188131 0
M  V30 37 H 1.512580 -0.572373 -1.408507 0
M  V30 38 H 1.193024 -1.552211 0.018041 0
M  V30 39 H 2.521366 0.703818 0.935871 0
M  V30 40 H 0.181716 -0.828274 1.352946 0
M  V30 41 H 1.207765 0.033850 2.505473 0
M  V30 42 H 0.080713 2.188240 1.945423 0
M  V30 43 H -0.830929 0.938476 2.773388 0
M  V30 44 H -5.271571 0.921809 -0.538036 0
M  V30 45 H -6.448955 -0.922542 -1.510929 0
M  V30 46 H -5.816764 -3.214548 -0.970069 0
M  V30 47 H -4.433154 -4.761980 0.203956 0
M  V30 48 H -1.394241 -3.292770 2.761325 0
M  V30 49 H -2.037554 -1.049690 2.209175 0
M  V30 50 H -2.085028 2.099764 -0.934565 0
M  V30 51 H -0.921363 3.082174 -0.038525 0
M  V30 52 H -0.138438 0.562291 -1.589476 0
M  V30 53 H 0.158494 2.260999 -1.973677 0
M  V30 54 H 2.139936 1.761794 -1.000196 0
M  V30 55 H 1.274673 2.522025 0.327724 0
M  V30 END ATOM
M  V30 BEGIN BOND
M  V30 1 1 1 2
M  V30 2 1 2 3
M  V30 3 1 2 4
M  V30 4 2 4 5
M  V30 5 1 5 6
M  V30 6 2 6 7
M  V30 7 1 7 8
M  V30 8 2 8 9
M  V30 9 1 9 10
M  V30 10 1 10 11
M  V30 11 1 11 12
M  V30 12 1 12 13
M  V30 13 1 13 14
M  V30 14 1 14 15
M  V30 15 2 15 16
M  V30 16 2 15 17
M  V30 17 1 15 18
M  V30 18 2 18 19
M  V30 19 1 19 20
M  V30 20 2 20 21
M  V30 21 1 21 22
M  V30 22 2 22 23
M  V30 23 1 23 24
M  V30 24 2 24 25
M  V30 25 1 25 26
M  V30 26 2 26 27
M  V30 27 1 14 28
M  V30 28 1 28 29
M  V30 29 1 29 30
M  V30 30 1 9 4
M  V30 31 1 30 11
M  V30 32 1 27 18
M  V30 33 1 27 22
M  V30 34 1 1 31
M  V30 35 1 3 32
M  V30 36 1 5 33
M  V30 37 1 6 34
M  V30 38 1 7 35
M  V30 39 1 8 36
M  V30 40 1 10 37
M  V30 41 1 10 38
M  V30 42 1 11 39 CFG=1
M  V30 43 1 12 40
M  V30 44 1 12 41
M  V30 45 1 13 42
M  V30 46 1 13 43
M  V30 47 1 19 44
M  V30 48 1 20 45
M  V30 49 1 21 46
M  V30 50 1 23 47
M  V30 51 1 25 48
M  V30 52 1 26 49
M  V30 53 1 28 50
M  V30 54 1 28 51
M  V30 55 1 29 52
M  V30 56 1 29 53
M  V30 57 1 30 54
M  V30 58 1 30 55
M  V30 END BOND
M  V30 END CTAB
M  END
>  <Dataset>  (77) 
PDB

>  <Ligand_Instance>  (77) 
5OL3_9LQ_A_401

>  <PDB_ID>  (77) 
5OL3

>  <Standardized_SMILES>  (77) 
[H]OB(O[H])C1=C([H])C([H])=C([H])C([H])=C1C([H])([H])[N@+]1([H])C([H])([H])C([H])([H])N(S(=O)(=O)C2=C([H])C([H])=C([H])C3=C([H])N=C([H])C([H])=C32)C([H])([H])C([H])([H])C1([H])[H]

>  <Name>  (77) 
[2-[(4-isoquinolin-5-ylsulfonyl-1,4-diazepan-1-yl)methyl]phenyl]boronic acid

>  <Pocket>  (77) 
A

>  <ATP_Site>  (77) 
1.0

>  <Peripheral>  (77) 
0.0

>  <Num_H_Atoms_ProtBoundConf>  (77) 
25.0

>  <Num_Resolved_Atoms>  (77) 
30.0

>  <Num_Not_Resolved_Atoms>  (77) 
0.0

>  <2D_Mol_H>  (77) 
<rdkit.Chem.rdchem.Mol object at 0x72a238dc6ab0>

>  <MW>  (77) 
426.327

>  <HBA>  (77) 
5

>  <HBD>  (77) 
3

>  <LogP>  (77) 
-0.6059

>  <NRB>  (77) 
7

>  <TPSA>  (77) 
95.17

>  <Num_Heavy_Atoms>  (77) 
30

>  <Ro5>  (77) 
[True, True, True, True, True, True]

>  <Ro5_Fulfilled>  (77) 
True

>  <Ro3>  (77) 
[False, False, True, True]

>  <Ro3_Fulfilled>  (77) 
False

>  <Fsp3>  (77) 
0.285714

>  <Fsp3_0.42>  (77) 
False

>  <Fsp3_0.45>  (77) 
False

>  <Stereogenic_Carbons>  (77) 
0

>  <C_Atoms>  (77) 
21

>  <FCStereo>  (77) 
0.0

>  <SPS>  (77) 
548

>  <nSPS>  (77) 
18.266667

>  <PBF>  (77) 
1.165122

>  <PBF_0.6>  (77) 
True

>  <nPBF>  (77) 
0.038837

>  <nPBF_0.016>  (77) 
True

>  <PMI1>  (77) 
2068.393699

>  <PMI2>  (77) 
5592.941043

>  <PMI3>  (77) 
6462.822015

>  <NPR1>  (77) 
0.320045

>  <NPR2>  (77) 
0.865402

>  <Sum_NPR>  (77) 
1.185447

>  <Sum_NPR_1.07>  (77) 
True

>  <Sum_NPR_1.2>  (77) 
False

>  <MaxAbsEStateIndex>  (77) 
13.392542

>  <MaxEStateIndex>  (77) 
13.392542

>  <MinAbsEStateIndex>  (77) 
0.319073

>  <MinEStateIndex>  (77) 
-3.617627

>  <qed>  (77) 
0.473798

>  <MolWt>  (77) 
426.327

>  <HeavyAtomMolWt>  (77) 
401.127

>  <ExactMolWt>  (77) 
426.165334

>  <NumValenceElectrons>  (77) 
156

>  <NumRadicalElectrons>  (77) 
0

>  <MaxPartialCharge>  (77) 
0.488428

>  <MinPartialCharge>  (77) 
-0.423168

>  <MaxAbsPartialCharge>  (77) 
0.488428

>  <MinAbsPartialCharge>  (77) 
0.423168

>  <FpDensityMorgan1>  (77) 
1.033333

>  <FpDensityMorgan2>  (77) 
1.866667

>  <FpDensityMorgan3>  (77) 
2.7

>  <BCUT2D_MWHI>  (77) 
32.233428

>  <BCUT2D_MWLOW>  (77) 
9.767095

>  <BCUT2D_CHGHI>  (77) 
2.297856

>  <BCUT2D_CHGLO>  (77) 
-2.211151

>  <BCUT2D_LOGPHI>  (77) 
2.248417

>  <BCUT2D_LOGPLOW>  (77) 
-3.107912

>  <BCUT2D_MRHI>  (77) 
7.889656

>  <BCUT2D_MRLOW>  (77) 
-0.911282

>  <AvgIpc>  (77) 
2.99481

>  <BalabanJ>  (77) 
1.529212

>  <BertzCT>  (77) 
1134.559461

>  <Chi0>  (77) 
21.139617

>  <Chi0n>  (77) 
16.607093

>  <Chi0v>  (77) 
17.423589

>  <Chi1>  (77) 
14.464364

>  <Chi1n>  (77) 
10.070222

>  <Chi1v>  (77) 
11.510286

>  <Chi2n>  (77) 
7.609858

>  <Chi2v>  (77) 
9.516215

>  <Chi3n>  (77) 
5.684879

>  <Chi3v>  (77) 
7.641672

>  <Chi4n>  (77) 
4.115427

>  <Chi4v>  (77) 
5.809037

>  <HallKierAlpha>  (77) 
-2.295065

>  <Ipc>  (77) 
7678260.565908

>  <Kappa1>  (77) 
20.956745

>  <Kappa2>  (77) 
8.829043

>  <Kappa3>  (77) 
4.257317

>  <LabuteASA>  (77) 
176.335146

>  <PEOE_VSA1>  (77) 
14.947955

>  <PEOE_VSA10>  (77) 
6.544756

>  <PEOE_VSA11>  (77) 
0.0

>  <PEOE_VSA12>  (77) 
10.023291

>  <PEOE_VSA13>  (77) 
0.0

>  <PEOE_VSA14>  (77) 
7.118392

>  <PEOE_VSA2>  (77) 
4.983979

>  <PEOE_VSA3>  (77) 
8.417797

>  <PEOE_VSA4>  (77) 
4.305216

>  <PEOE_VSA5>  (77) 
0.0

>  <PEOE_VSA6>  (77) 
36.398202

>  <PEOE_VSA7>  (77) 
17.595537

>  <PEOE_VSA8>  (77) 
41.695165

>  <PEOE_VSA9>  (77) 
24.529753

>  <SMR_VSA1>  (77) 
23.365752

>  <SMR_VSA10>  (77) 
33.376935

>  <SMR_VSA2>  (77) 
0.0

>  <SMR_VSA3>  (77) 
9.289195

>  <SMR_VSA4>  (77) 
0.0

>  <SMR_VSA5>  (77) 
17.861062

>  <SMR_VSA6>  (77) 
26.179026

>  <SMR_VSA7>  (77) 
66.488075

>  <SMR_VSA8>  (77) 
0.0

>  <SMR_VSA9>  (77) 
0.0

>  <SlogP_VSA1>  (77) 
10.362713

>  <SlogP_VSA10>  (77) 
0.0

>  <SlogP_VSA11>  (77) 
0.0

>  <SlogP_VSA12>  (77) 
0.0

>  <SlogP_VSA2>  (77) 
61.052455

>  <SlogP_VSA3>  (77) 
16.568048

>  <SlogP_VSA4>  (77) 
0.0

>  <SlogP_VSA5>  (77) 
11.984273

>  <SlogP_VSA6>  (77) 
65.820107

>  <SlogP_VSA7>  (77) 
0.0

>  <SlogP_VSA8>  (77) 
10.772448

>  <SlogP_VSA9>  (77) 
0.0

>  <EState_VSA1>  (77) 
17.141683

>  <EState_VSA10>  (77) 
18.465842

>  <EState_VSA11>  (77) 
0.0

>  <EState_VSA2>  (77) 
0.0

>  <EState_VSA3>  (77) 
41.923537

>  <EState_VSA4>  (77) 
23.915254

>  <EState_VSA5>  (77) 
4.89991

>  <EState_VSA6>  (77) 
47.030738

>  <EState_VSA7>  (77) 
18.199101

>  <EState_VSA8>  (77) 
4.983979

>  <EState_VSA9>  (77) 
0.0

>  <VSA_EState1>  (77) 
28.356509

>  <VSA_EState10>  (77) 
0.0

>  <VSA_EState2>  (77) 
5.629409

>  <VSA_EState3>  (77) 
20.702694

>  <VSA_EState4>  (77) 
1.378194

>  <VSA_EState5>  (77) 
0.0

>  <VSA_EState6>  (77) 
14.287942

>  <VSA_EState7>  (77) 
4.030861

>  <VSA_EState8>  (77) 
2.990995

>  <VSA_EState9>  (77) 
-5.126604

>  <FractionCSP3>  (77) 
0.285714

>  <HeavyAtomCount>  (77) 
30

>  <NHOHCount>  (77) 
3

>  <NOCount>  (77) 
7

>  <NumAliphaticCarbocycles>  (77) 
0

>  <NumAliphaticHeterocycles>  (77) 
1

>  <NumAliphaticRings>  (77) 
1

>  <NumAromaticCarbocycles>  (77) 
2

>  <NumAromaticHeterocycles>  (77) 
1

>  <NAR>  (77) 
3

>  <NumHAcceptors>  (77) 
5

>  <NumHDonors>  (77) 
3

>  <NumHeteroatoms>  (77) 
9

>  <NumRotatableBonds>  (77) 
5

>  <NumSaturatedCarbocycles>  (77) 
0

>  <NumSaturatedHeterocycles>  (77) 
1

>  <NumSaturatedRings>  (77) 
1

>  <RingCount>  (77) 
4

>  <MolLogP>  (77) 
-0.6059

>  <MolMR>  (77) 
115.7871

>  <fr_Al_COO>  (77) 
0

>  <fr_Al_OH>  (77) 
0

>  <fr_Al_OH_noTert>  (77) 
0

>  <fr_ArN>  (77) 
0

>  <fr_Ar_COO>  (77) 
0

>  <fr_Ar_N>  (77) 
1

>  <fr_Ar_NH>  (77) 
0

>  <fr_Ar_OH>  (77) 
0

>  <fr_COO>  (77) 
0

>  <fr_COO2>  (77) 
0

>  <fr_C_O>  (77) 
0

>  <fr_C_O_noCOO>  (77) 
0

>  <fr_C_S>  (77) 
0

>  <fr_HOCCN>  (77) 
0

>  <fr_Imine>  (77) 
0

>  <fr_NH0>  (77) 
2

>  <fr_NH1>  (77) 
1

>  <fr_NH2>  (77) 
0

>  <fr_N_O>  (77) 
0

>  <fr_Ndealkylation1>  (77) 
0

>  <fr_Ndealkylation2>  (77) 
0

>  <fr_Nhpyrrole>  (77) 
0

>  <fr_SH>  (77) 
0

>  <fr_aldehyde>  (77) 
0

>  <fr_alkyl_carbamate>  (77) 
0

>  <fr_alkyl_halide>  (77) 
0

>  <fr_allylic_oxid>  (77) 
0

>  <fr_amide>  (77) 
0

>  <fr_amidine>  (77) 
0

>  <fr_aniline>  (77) 
0

>  <fr_aryl_methyl>  (77) 
0

>  <fr_azide>  (77) 
0

>  <fr_azo>  (77) 
0

>  <fr_barbitur>  (77) 
0

>  <fr_benzene>  (77) 
2

>  <fr_benzodiazepine>  (77) 
0

>  <fr_bicyclic>  (77) 
1

>  <fr_diazo>  (77) 
0

>  <fr_dihydropyridine>  (77) 
0

>  <fr_epoxide>  (77) 
0

>  <fr_ester>  (77) 
0

>  <fr_ether>  (77) 
0

>  <fr_furan>  (77) 
0

>  <fr_guanido>  (77) 
0

>  <fr_halogen>  (77) 
0

>  <fr_hdrzine>  (77) 
0

>  <fr_hdrzone>  (77) 
0

>  <fr_imidazole>  (77) 
0

>  <fr_imide>  (77) 
0

>  <fr_isocyan>  (77) 
0

>  <fr_isothiocyan>  (77) 
0

>  <fr_ketone>  (77) 
0

>  <fr_ketone_Topliss>  (77) 
0

>  <fr_lactam>  (77) 
0

>  <fr_lactone>  (77) 
0

>  <fr_methoxy>  (77) 
0

>  <fr_morpholine>  (77) 
0

>  <fr_nitrile>  (77) 
0

>  <fr_nitro>  (77) 
0

>  <fr_nitro_arom>  (77) 
0

>  <fr_nitro_arom_nonortho>  (77) 
0

>  <fr_nitroso>  (77) 
0

>  <fr_oxazole>  (77) 
0

>  <fr_oxime>  (77) 
0

>  <fr_para_hydroxylation>  (77) 
0

>  <fr_phenol>  (77) 
0

>  <fr_phenol_noOrthoHbond>  (77) 
0

>  <fr_phos_acid>  (77) 
0

>  <fr_phos_ester>  (77) 
0

>  <fr_piperdine>  (77) 
0

>  <fr_piperzine>  (77) 
0

>  <fr_priamide>  (77) 
0

>  <fr_prisulfonamd>  (77) 
0

>  <fr_pyridine>  (77) 
1

>  <fr_quatN>  (77) 
1

>  <fr_sulfide>  (77) 
0

>  <fr_sulfonamd>  (77) 
1

>  <fr_sulfone>  (77) 
0

>  <fr_term_acetylene>  (77) 
0

>  <fr_tetrazole>  (77) 
0

>  <fr_thiazole>  (77) 
0

>  <fr_thiocyan>  (77) 
0

>  <fr_thiophene>  (77) 
0

>  <fr_unbrch_alkane>  (77) 
0

>  <fr_urea>  (77) 
0

>  <NP-Likeness>  (77) 
-1.032216

$$$$
9LQ
     RDKit          3D

  0  0  0  0  0  0  0  0  0  0999 V3000
M  V30 BEGIN CTAB
M  V30 COUNTS 55 58 0 0 0
M  V30 BEGIN ATOM
M  V30 1 O 1.775789 -0.990101 3.302848 0
M  V30 2 B 2.790967 -1.697749 2.494314 0
M  V30 3 O 2.647005 -3.135305 2.286149 0
M  V30 4 C 3.852886 -0.825626 1.791734 0
M  V30 5 C 4.768488 -0.164346 2.594649 0
M  V30 6 C 5.742784 0.632144 2.010225 0
M  V30 7 C 5.809677 0.773544 0.625499 0
M  V30 8 C 4.892110 0.109813 -0.163721 0
M  V30 9 C 3.913256 -0.690206 0.420353 0
M  V30 10 C 2.954648 -1.379919 -0.448756 0
M  V30 11 N 1.644329 -0.795816 -0.494557 0 CFG=1 CHG=1 VAL=4
M  V30 12 C 1.583813 0.571716 -0.045193 0
M  V30 13 C 0.133838 0.992239 -0.009868 0
M  V30 14 N -0.631054 -0.142027 0.502409 0
M  V30 15 S -1.857599 0.382235 1.579984 0
M  V30 16 O -1.682221 1.869537 1.791482 0
M  V30 17 O -1.609226 -0.228071 2.955607 0
M  V30 18 C -3.444528 0.058688 1.014823 0
M  V30 19 C -4.247494 1.118229 0.577598 0
M  V30 20 C -5.504404 0.953753 0.071170 0
M  V30 21 C -6.064063 -0.309540 -0.037706 0
M  V30 22 C -5.310544 -1.392913 0.382614 0
M  V30 23 C -5.774661 -2.677473 0.336781 0
M  V30 24 N -5.063490 -3.748111 0.760490 0
M  V30 25 C -3.810719 -3.574078 1.267559 0
M  V30 26 C -3.365744 -2.269625 1.302311 0
M  V30 27 C -4.058971 -1.152522 0.879404 0
M  V30 28 C -1.103114 -0.973041 -0.564596 0
M  V30 29 C -0.384939 -0.793838 -1.879146 0
M  V30 30 C 1.093289 -0.867932 -1.826595 0
M  V30 31 H 1.554610 -1.475557 4.135916 0
M  V30 32 H 1.785889 -3.449724 2.655674 0
M  V30 33 H 4.823891 -0.189968 3.662393 0
M  V30 34 H 6.523923 1.209888 2.491937 0
M  V30 35 H 6.532036 1.370470 0.093301 0
M  V30 36 H 4.904884 0.189391 -1.242566 0
M  V30 37 H 3.336192 -1.428771 -1.505583 0
M  V30 38 H 2.901285 -2.460769 -0.135020 0
M  V30 39 H 1.018413 -1.382608 0.118142 0
M  V30 40 H 2.137397 1.213727 -0.765459 0
M  V30 41 H 1.981898 0.745890 0.957324 0
M  V30 42 H -0.176978 1.340296 -0.992991 0
M  V30 43 H 0.014174 1.869320 0.680416 0
M  V30 44 H -3.924677 2.151870 0.611035 0
M  V30 45 H -6.129614 1.766389 -0.268298 0
M  V30 46 H -7.044381 -0.454688 -0.431655 0
M  V30 47 H -6.762917 -2.869530 -0.056757 0
M  V30 48 H -3.202037 -4.394765 1.619693 0
M  V30 49 H -2.370196 -2.147353 1.715622 0
M  V30 50 H -1.024836 -2.036939 -0.281309 0
M  V30 51 H -2.158887 -0.711651 -0.769700 0
M  V30 52 H -0.737206 -1.673031 -2.505885 0
M  V30 53 H -0.775136 0.080963 -2.439391 0
M  V30 54 H 1.490700 -1.811644 -2.269789 0
M  V30 55 H 1.556543 -0.045800 -2.447664 0
M  V30 END ATOM
M  V30 BEGIN BOND
M  V30 1 1 1 2
M  V30 2 1 2 3
M  V30 3 1 2 4
M  V30 4 2 4 5
M  V30 5 1 5 6
M  V30 6 2 6 7
M  V30 7 1 7 8
M  V30 8 2 8 9
M  V30 9 1 9 10
M  V30 10 1 10 11
M  V30 11 1 11 12
M  V30 12 1 12 13
M  V30 13 1 13 14
M  V30 14 1 14 15
M  V30 15 2 15 16
M  V30 16 2 15 17
M  V30 17 1 15 18
M  V30 18 2 18 19
M  V30 19 1 19 20
M  V30 20 2 20 21
M  V30 21 1 21 22
M  V30 22 2 22 23
M  V30 23 1 23 24
M  V30 24 2 24 25
M  V30 25 1 25 26
M  V30 26 2 26 27
M  V30 27 1 14 28
M  V30 28 1 28 29
M  V30 29 1 29 30
M  V30 30 1 9 4
M  V30 31 1 30 11
M  V30 32 1 27 18
M  V30 33 1 27 22
M  V30 34 1 1 31
M  V30 35 1 3 32
M  V30 36 1 5 33
M  V30 37 1 6 34
M  V30 38 1 7 35
M  V30 39 1 8 36
M  V30 40 1 10 37
M  V30 41 1 10 38
M  V30 42 1 11 39 CFG=1
M  V30 43 1 12 40
M  V30 44 1 12 41
M  V30 45 1 13 42
M  V30 46 1 13 43
M  V30 47 1 19 44
M  V30 48 1 20 45
M  V30 49 1 21 46
M  V30 50 1 23 47
M  V30 51 1 25 48
M  V30 52 1 26 49
M  V30 53 1 28 50
M  V30 54 1 28 51
M  V30 55 1 29 52
M  V30 56 1 29 53
M  V30 57 1 30 54
M  V30 58 1 30 55
M  V30 END BOND
M  V30 END CTAB
M  END
>  <Dataset>  (78) 
PDB

>  <Ligand_Instance>  (78) 
5OT3_9LQ_A_401

>  <PDB_ID>  (78) 
5OT3

>  <Standardized_SMILES>  (78) 
[H]OB(O[H])C1=C([H])C([H])=C([H])C([H])=C1C([H])([H])[N@@+]1([H])C([H])([H])C([H])([H])N(S(=O)(=O)C2=C([H])C([H])=C([H])C3=C([H])N=C([H])C([H])=C32)C([H])([H])C([H])([H])C1([H])[H]

>  <Name>  (78) 
[2-[(4-isoquinolin-5-ylsulfonyl-1,4-diazepan-1-yl)methyl]phenyl]boronic acid

>  <Pocket>  (78) 
A

>  <ATP_Site>  (78) 
1.0

>  <Peripheral>  (78) 
0.0

>  <Num_H_Atoms_ProtBoundConf>  (78) 
25.0

>  <Num_Resolved_Atoms>  (78) 
30.0

>  <Num_Not_Resolved_Atoms>  (78) 
0.0

>  <2D_Mol_H>  (78) 
<rdkit.Chem.rdchem.Mol object at 0x72a238dc6b90>

>  <MW>  (78) 
426.327

>  <HBA>  (78) 
5

>  <HBD>  (78) 
3

>  <LogP>  (78) 
-0.6059

>  <NRB>  (78) 
7

>  <TPSA>  (78) 
95.17

>  <Num_Heavy_Atoms>  (78) 
30

>  <Ro5>  (78) 
[True, True, True, True, True, True]

>  <Ro5_Fulfilled>  (78) 
True

>  <Ro3>  (78) 
[False, False, True, True]

>  <Ro3_Fulfilled>  (78) 
False

>  <Fsp3>  (78) 
0.285714

>  <Fsp3_0.42>  (78) 
False

>  <Fsp3_0.45>  (78) 
False

>  <Stereogenic_Carbons>  (78) 
0

>  <C_Atoms>  (78) 
21

>  <FCStereo>  (78) 
0.0

>  <SPS>  (78) 
548

>  <nSPS>  (78) 
18.266667

>  <PBF>  (78) 
1.216711

>  <PBF_0.6>  (78) 
True

>  <nPBF>  (78) 
0.040557

>  <nPBF_0.016>  (78) 
True

>  <PMI1>  (78) 
1533.47974

>  <PMI2>  (78) 
6165.379581

>  <PMI3>  (78) 
6323.552313

>  <NPR1>  (78) 
0.242503

>  <NPR2>  (78) 
0.974987

>  <Sum_NPR>  (78) 
1.21749

>  <Sum_NPR_1.07>  (78) 
True

>  <Sum_NPR_1.2>  (78) 
True

>  <MaxAbsEStateIndex>  (78) 
13.392542

>  <MaxEStateIndex>  (78) 
13.392542

>  <MinAbsEStateIndex>  (78) 
0.319073

>  <MinEStateIndex>  (78) 
-3.617627

>  <qed>  (78) 
0.473798

>  <MolWt>  (78) 
426.327

>  <HeavyAtomMolWt>  (78) 
401.127

>  <ExactMolWt>  (78) 
426.165334

>  <NumValenceElectrons>  (78) 
156

>  <NumRadicalElectrons>  (78) 
0

>  <MaxPartialCharge>  (78) 
0.488428

>  <MinPartialCharge>  (78) 
-0.423168

>  <MaxAbsPartialCharge>  (78) 
0.488428

>  <MinAbsPartialCharge>  (78) 
0.423168

>  <FpDensityMorgan1>  (78) 
1.033333

>  <FpDensityMorgan2>  (78) 
1.866667

>  <FpDensityMorgan3>  (78) 
2.7

>  <BCUT2D_MWHI>  (78) 
32.233428

>  <BCUT2D_MWLOW>  (78) 
9.767095

>  <BCUT2D_CHGHI>  (78) 
2.297856

>  <BCUT2D_CHGLO>  (78) 
-2.211151

>  <BCUT2D_LOGPHI>  (78) 
2.248417

>  <BCUT2D_LOGPLOW>  (78) 
-3.107912

>  <BCUT2D_MRHI>  (78) 
7.889656

>  <BCUT2D_MRLOW>  (78) 
-0.911282

>  <AvgIpc>  (78) 
2.99481

>  <BalabanJ>  (78) 
1.529212

>  <BertzCT>  (78) 
1134.559461

>  <Chi0>  (78) 
21.139617

>  <Chi0n>  (78) 
16.607093

>  <Chi0v>  (78) 
17.423589

>  <Chi1>  (78) 
14.464364

>  <Chi1n>  (78) 
10.070222

>  <Chi1v>  (78) 
11.510286

>  <Chi2n>  (78) 
7.609858

>  <Chi2v>  (78) 
9.516215

>  <Chi3n>  (78) 
5.684879

>  <Chi3v>  (78) 
7.641672

>  <Chi4n>  (78) 
4.115427

>  <Chi4v>  (78) 
5.809037

>  <HallKierAlpha>  (78) 
-2.295065

>  <Ipc>  (78) 
7678260.565908

>  <Kappa1>  (78) 
20.956745

>  <Kappa2>  (78) 
8.829043

>  <Kappa3>  (78) 
4.257317

>  <LabuteASA>  (78) 
176.335146

>  <PEOE_VSA1>  (78) 
14.947955

>  <PEOE_VSA10>  (78) 
6.544756

>  <PEOE_VSA11>  (78) 
0.0

>  <PEOE_VSA12>  (78) 
10.023291

>  <PEOE_VSA13>  (78) 
0.0

>  <PEOE_VSA14>  (78) 
7.118392

>  <PEOE_VSA2>  (78) 
4.983979

>  <PEOE_VSA3>  (78) 
8.417797

>  <PEOE_VSA4>  (78) 
4.305216

>  <PEOE_VSA5>  (78) 
0.0

>  <PEOE_VSA6>  (78) 
36.398202

>  <PEOE_VSA7>  (78) 
17.595537

>  <PEOE_VSA8>  (78) 
41.695165

>  <PEOE_VSA9>  (78) 
24.529753

>  <SMR_VSA1>  (78) 
23.365752

>  <SMR_VSA10>  (78) 
33.376935

>  <SMR_VSA2>  (78) 
0.0

>  <SMR_VSA3>  (78) 
9.289195

>  <SMR_VSA4>  (78) 
0.0

>  <SMR_VSA5>  (78) 
17.861062

>  <SMR_VSA6>  (78) 
26.179026

>  <SMR_VSA7>  (78) 
66.488075

>  <SMR_VSA8>  (78) 
0.0

>  <SMR_VSA9>  (78) 
0.0

>  <SlogP_VSA1>  (78) 
10.362713

>  <SlogP_VSA10>  (78) 
0.0

>  <SlogP_VSA11>  (78) 
0.0

>  <SlogP_VSA12>  (78) 
0.0

>  <SlogP_VSA2>  (78) 
61.052455

>  <SlogP_VSA3>  (78) 
16.568048

>  <SlogP_VSA4>  (78) 
0.0

>  <SlogP_VSA5>  (78) 
11.984273

>  <SlogP_VSA6>  (78) 
65.820107

>  <SlogP_VSA7>  (78) 
0.0

>  <SlogP_VSA8>  (78) 
10.772448

>  <SlogP_VSA9>  (78) 
0.0

>  <EState_VSA1>  (78) 
17.141683

>  <EState_VSA10>  (78) 
18.465842

>  <EState_VSA11>  (78) 
0.0

>  <EState_VSA2>  (78) 
0.0

>  <EState_VSA3>  (78) 
41.923537

>  <EState_VSA4>  (78) 
23.915254

>  <EState_VSA5>  (78) 
4.89991

>  <EState_VSA6>  (78) 
47.030738

>  <EState_VSA7>  (78) 
18.199101

>  <EState_VSA8>  (78) 
4.983979

>  <EState_VSA9>  (78) 
0.0

>  <VSA_EState1>  (78) 
28.356509

>  <VSA_EState10>  (78) 
0.0

>  <VSA_EState2>  (78) 
5.629409

>  <VSA_EState3>  (78) 
20.702694

>  <VSA_EState4>  (78) 
1.378194

>  <VSA_EState5>  (78) 
0.0

>  <VSA_EState6>  (78) 
14.287942

>  <VSA_EState7>  (78) 
4.030861

>  <VSA_EState8>  (78) 
2.990995

>  <VSA_EState9>  (78) 
-5.126604

>  <FractionCSP3>  (78) 
0.285714

>  <HeavyAtomCount>  (78) 
30

>  <NHOHCount>  (78) 
3

>  <NOCount>  (78) 
7

>  <NumAliphaticCarbocycles>  (78) 
0

>  <NumAliphaticHeterocycles>  (78) 
1

>  <NumAliphaticRings>  (78) 
1

>  <NumAromaticCarbocycles>  (78) 
2

>  <NumAromaticHeterocycles>  (78) 
1

>  <NAR>  (78) 
3

>  <NumHAcceptors>  (78) 
5

>  <NumHDonors>  (78) 
3

>  <NumHeteroatoms>  (78) 
9

>  <NumRotatableBonds>  (78) 
5

>  <NumSaturatedCarbocycles>  (78) 
0

>  <NumSaturatedHeterocycles>  (78) 
1

>  <NumSaturatedRings>  (78) 
1

>  <RingCount>  (78) 
4

>  <MolLogP>  (78) 
-0.6059

>  <MolMR>  (78) 
115.7871

>  <fr_Al_COO>  (78) 
0

>  <fr_Al_OH>  (78) 
0

>  <fr_Al_OH_noTert>  (78) 
0

>  <fr_ArN>  (78) 
0

>  <fr_Ar_COO>  (78) 
0

>  <fr_Ar_N>  (78) 
1

>  <fr_Ar_NH>  (78) 
0

>  <fr_Ar_OH>  (78) 
0

>  <fr_COO>  (78) 
0

>  <fr_COO2>  (78) 
0

>  <fr_C_O>  (78) 
0

>  <fr_C_O_noCOO>  (78) 
0

>  <fr_C_S>  (78) 
0

>  <fr_HOCCN>  (78) 
0

>  <fr_Imine>  (78) 
0

>  <fr_NH0>  (78) 
2

>  <fr_NH1>  (78) 
1

>  <fr_NH2>  (78) 
0

>  <fr_N_O>  (78) 
0

>  <fr_Ndealkylation1>  (78) 
0

>  <fr_Ndealkylation2>  (78) 
0

>  <fr_Nhpyrrole>  (78) 
0

>  <fr_SH>  (78) 
0

>  <fr_aldehyde>  (78) 
0

>  <fr_alkyl_carbamate>  (78) 
0

>  <fr_alkyl_halide>  (78) 
0

>  <fr_allylic_oxid>  (78) 
0

>  <fr_amide>  (78) 
0

>  <fr_amidine>  (78) 
0

>  <fr_aniline>  (78) 
0

>  <fr_aryl_methyl>  (78) 
0

>  <fr_azide>  (78) 
0

>  <fr_azo>  (78) 
0

>  <fr_barbitur>  (78) 
0

>  <fr_benzene>  (78) 
2

>  <fr_benzodiazepine>  (78) 
0

>  <fr_bicyclic>  (78) 
1

>  <fr_diazo>  (78) 
0

>  <fr_dihydropyridine>  (78) 
0

>  <fr_epoxide>  (78) 
0

>  <fr_ester>  (78) 
0

>  <fr_ether>  (78) 
0

>  <fr_furan>  (78) 
0

>  <fr_guanido>  (78) 
0

>  <fr_halogen>  (78) 
0

>  <fr_hdrzine>  (78) 
0

>  <fr_hdrzone>  (78) 
0

>  <fr_imidazole>  (78) 
0

>  <fr_imide>  (78) 
0

>  <fr_isocyan>  (78) 
0

>  <fr_isothiocyan>  (78) 
0

>  <fr_ketone>  (78) 
0

>  <fr_ketone_Topliss>  (78) 
0

>  <fr_lactam>  (78) 
0

>  <fr_lactone>  (78) 
0

>  <fr_methoxy>  (78) 
0

>  <fr_morpholine>  (78) 
0

>  <fr_nitrile>  (78) 
0

>  <fr_nitro>  (78) 
0

>  <fr_nitro_arom>  (78) 
0

>  <fr_nitro_arom_nonortho>  (78) 
0

>  <fr_nitroso>  (78) 
0

>  <fr_oxazole>  (78) 
0

>  <fr_oxime>  (78) 
0

>  <fr_para_hydroxylation>  (78) 
0

>  <fr_phenol>  (78) 
0

>  <fr_phenol_noOrthoHbond>  (78) 
0

>  <fr_phos_acid>  (78) 
0

>  <fr_phos_ester>  (78) 
0

>  <fr_piperdine>  (78) 
0

>  <fr_piperzine>  (78) 
0

>  <fr_priamide>  (78) 
0

>  <fr_prisulfonamd>  (78) 
0

>  <fr_pyridine>  (78) 
1

>  <fr_quatN>  (78) 
1

>  <fr_sulfide>  (78) 
0

>  <fr_sulfonamd>  (78) 
1

>  <fr_sulfone>  (78) 
0

>  <fr_term_acetylene>  (78) 
0

>  <fr_tetrazole>  (78) 
0

>  <fr_thiazole>  (78) 
0

>  <fr_thiocyan>  (78) 
0

>  <fr_thiophene>  (78) 
0

>  <fr_unbrch_alkane>  (78) 
0

>  <fr_urea>  (78) 
0

>  <NP-Likeness>  (78) 
-1.032216

$$$$
9LQ
     RDKit          3D

  0  0  0  0  0  0  0  0  0  0999 V3000
M  V30 BEGIN CTAB
M  V30 COUNTS 55 58 0 0 0
M  V30 BEGIN ATOM
M  V30 1 O 1.985844 -3.395984 1.835417 0
M  V30 2 B 2.953750 -2.290878 1.913970 0
M  V30 3 O 3.218963 -1.735243 3.253659 0
M  V30 4 C 3.847222 -1.874605 0.737575 0
M  V30 5 C 5.179705 -2.203416 0.658629 0
M  V30 6 C 5.985740 -1.837979 -0.402310 0
M  V30 7 C 5.388137 -1.105270 -1.417785 0
M  V30 8 C 4.049750 -0.776338 -1.335874 0
M  V30 9 C 3.240070 -1.150691 -0.256704 0
M  V30 10 C 1.826723 -0.691596 -0.349226 0
M  V30 11 N 1.591065 0.457414 0.476437 0 CFG=2 CHG=1 VAL=4
M  V30 12 C 0.675231 0.145174 1.512282 0
M  V30 13 C -0.393326 1.176037 1.774064 0
M  V30 14 N -1.419238 1.279666 0.833438 0
M  V30 15 S -3.022815 1.155117 1.297549 0
M  V30 16 O -3.714034 2.376312 0.702097 0
M  V30 17 O -3.254551 1.325639 2.774682 0
M  V30 18 C -3.860460 -0.217267 0.647268 0
M  V30 19 C -4.933229 -0.071032 -0.249483 0
M  V30 20 C -5.635792 -1.084711 -0.830573 0
M  V30 21 C -5.290745 -2.384233 -0.535205 0
M  V30 22 C -4.250930 -2.614898 0.335383 0
M  V30 23 C -3.903442 -3.912003 0.643400 0
M  V30 24 N -2.883748 -4.147554 1.508955 0
M  V30 25 C -2.200205 -3.114859 2.076837 0
M  V30 26 C -2.576933 -1.852813 1.744144 0
M  V30 27 C -3.597270 -1.532968 0.875683 0
M  V30 28 C -1.150833 2.040485 -0.342721 0
M  V30 29 C 0.035234 1.527426 -1.124164 0
M  V30 30 C 1.263826 1.633357 -0.298045 0
M  V30 31 H 1.091136 -2.985435 1.946322 0
M  V30 32 H 2.515824 -1.989074 3.894756 0
M  V30 33 H 5.568673 -2.784207 1.505795 0
M  V30 34 H 7.016493 -2.157489 -0.346712 0
M  V30 35 H 6.013888 -0.825947 -2.233505 0
M  V30 36 H 3.693089 -0.201929 -2.188131 0
M  V30 37 H 1.512580 -0.572373 -1.408507 0
M  V30 38 H 1.193024 -1.552211 0.018041 0
M  V30 39 H 2.521366 0.703818 0.935871 0
M  V30 40 H 0.181716 -0.828274 1.352946 0
M  V30 41 H 1.207765 0.033850 2.505473 0
M  V30 42 H 0.080713 2.188240 1.945423 0
M  V30 43 H -0.830929 0.938476 2.773388 0
M  V30 44 H -5.271571 0.921809 -0.538036 0
M  V30 45 H -6.448955 -0.922542 -1.510929 0
M  V30 46 H -5.816764 -3.214548 -0.970069 0
M  V30 47 H -4.433154 -4.761980 0.203956 0
M  V30 48 H -1.394241 -3.292770 2.761325 0
M  V30 49 H -2.037554 -1.049690 2.209175 0
M  V30 50 H -2.085028 2.099764 -0.934565 0
M  V30 51 H -0.921363 3.082174 -0.038525 0
M  V30 52 H -0.138438 0.562291 -1.589476 0
M  V30 53 H 0.158494 2.260999 -1.973677 0
M  V30 54 H 2.139936 1.761794 -1.000196 0
M  V30 55 H 1.274673 2.522025 0.327724 0
M  V30 END ATOM
M  V30 BEGIN BOND
M  V30 1 1 1 2
M  V30 2 1 2 3
M  V30 3 1 2 4
M  V30 4 2 4 5
M  V30 5 1 5 6
M  V30 6 2 6 7
M  V30 7 1 7 8
M  V30 8 2 8 9
M  V30 9 1 9 10
M  V30 10 1 10 11
M  V30 11 1 11 12
M  V30 12 1 12 13
M  V30 13 1 13 14
M  V30 14 1 14 15
M  V30 15 2 15 16
M  V30 16 2 15 17
M  V30 17 1 15 18
M  V30 18 2 18 19
M  V30 19 1 19 20
M  V30 20 2 20 21
M  V30 21 1 21 22
M  V30 22 2 22 23
M  V30 23 1 23 24
M  V30 24 2 24 25
M  V30 25 1 25 26
M  V30 26 2 26 27
M  V30 27 1 14 28
M  V30 28 1 28 29
M  V30 29 1 29 30
M  V30 30 1 9 4
M  V30 31 1 30 11
M  V30 32 1 27 18
M  V30 33 1 27 22
M  V30 34 1 1 31
M  V30 35 1 3 32
M  V30 36 1 5 33
M  V30 37 1 6 34
M  V30 38 1 7 35
M  V30 39 1 8 36
M  V30 40 1 10 37
M  V30 41 1 10 38
M  V30 42 1 11 39 CFG=1
M  V30 43 1 12 40
M  V30 44 1 12 41
M  V30 45 1 13 42
M  V30 46 1 13 43
M  V30 47 1 19 44
M  V30 48 1 20 45
M  V30 49 1 21 46
M  V30 50 1 23 47
M  V30 51 1 25 48
M  V30 52 1 26 49
M  V30 53 1 28 50
M  V30 54 1 28 51
M  V30 55 1 29 52
M  V30 56 1 29 53
M  V30 57 1 30 54
M  V30 58 1 30 55
M  V30 END BOND
M  V30 END CTAB
M  END
>  <Dataset>  (79) 
PDB

>  <Ligand_Instance>  (79) 
6I2B_9LQ_A_401

>  <PDB_ID>  (79) 
6I2B

>  <Standardized_SMILES>  (79) 
[H]OB(O[H])C1=C([H])C([H])=C([H])C([H])=C1C([H])([H])[N@+]1([H])C([H])([H])C([H])([H])N(S(=O)(=O)C2=C([H])C([H])=C([H])C3=C([H])N=C([H])C([H])=C32)C([H])([H])C([H])([H])C1([H])[H]

>  <Name>  (79) 
[2-[(4-isoquinolin-5-ylsulfonyl-1,4-diazepan-1-yl)methyl]phenyl]boronic acid

>  <Pocket>  (79) 
A

>  <ATP_Site>  (79) 
1.0

>  <Peripheral>  (79) 
1.0

>  <Num_H_Atoms_ProtBoundConf>  (79) 
25.0

>  <Num_Resolved_Atoms>  (79) 
30.0

>  <Num_Not_Resolved_Atoms>  (79) 
0.0

>  <2D_Mol_H>  (79) 
<rdkit.Chem.rdchem.Mol object at 0x72a238dc6c70>

>  <MW>  (79) 
426.327

>  <HBA>  (79) 
5

>  <HBD>  (79) 
3

>  <LogP>  (79) 
-0.6059

>  <NRB>  (79) 
7

>  <TPSA>  (79) 
95.17

>  <Num_Heavy_Atoms>  (79) 
30

>  <Ro5>  (79) 
[True, True, True, True, True, True]

>  <Ro5_Fulfilled>  (79) 
True

>  <Ro3>  (79) 
[False, False, True, True]

>  <Ro3_Fulfilled>  (79) 
False

>  <Fsp3>  (79) 
0.285714

>  <Fsp3_0.42>  (79) 
False

>  <Fsp3_0.45>  (79) 
False

>  <Stereogenic_Carbons>  (79) 
0

>  <C_Atoms>  (79) 
21

>  <FCStereo>  (79) 
0.0

>  <SPS>  (79) 
548

>  <nSPS>  (79) 
18.266667

>  <PBF>  (79) 
1.165122

>  <PBF_0.6>  (79) 
True

>  <nPBF>  (79) 
0.038837

>  <nPBF_0.016>  (79) 
True

>  <PMI1>  (79) 
2068.393699

>  <PMI2>  (79) 
5592.941043

>  <PMI3>  (79) 
6462.822015

>  <NPR1>  (79) 
0.320045

>  <NPR2>  (79) 
0.865402

>  <Sum_NPR>  (79) 
1.185447

>  <Sum_NPR_1.07>  (79) 
True

>  <Sum_NPR_1.2>  (79) 
False

>  <MaxAbsEStateIndex>  (79) 
13.392542

>  <MaxEStateIndex>  (79) 
13.392542

>  <MinAbsEStateIndex>  (79) 
0.319073

>  <MinEStateIndex>  (79) 
-3.617627

>  <qed>  (79) 
0.473798

>  <MolWt>  (79) 
426.327

>  <HeavyAtomMolWt>  (79) 
401.127

>  <ExactMolWt>  (79) 
426.165334

>  <NumValenceElectrons>  (79) 
156

>  <NumRadicalElectrons>  (79) 
0

>  <MaxPartialCharge>  (79) 
0.488428

>  <MinPartialCharge>  (79) 
-0.423168

>  <MaxAbsPartialCharge>  (79) 
0.488428

>  <MinAbsPartialCharge>  (79) 
0.423168

>  <FpDensityMorgan1>  (79) 
1.033333

>  <FpDensityMorgan2>  (79) 
1.866667

>  <FpDensityMorgan3>  (79) 
2.7

>  <BCUT2D_MWHI>  (79) 
32.233428

>  <BCUT2D_MWLOW>  (79) 
9.767095

>  <BCUT2D_CHGHI>  (79) 
2.297856

>  <BCUT2D_CHGLO>  (79) 
-2.211151

>  <BCUT2D_LOGPHI>  (79) 
2.248417

>  <BCUT2D_LOGPLOW>  (79) 
-3.107912

>  <BCUT2D_MRHI>  (79) 
7.889656

>  <BCUT2D_MRLOW>  (79) 
-0.911282

>  <AvgIpc>  (79) 
2.99481

>  <BalabanJ>  (79) 
1.529212

>  <BertzCT>  (79) 
1134.559461

>  <Chi0>  (79) 
21.139617

>  <Chi0n>  (79) 
16.607093

>  <Chi0v>  (79) 
17.423589

>  <Chi1>  (79) 
14.464364

>  <Chi1n>  (79) 
10.070222

>  <Chi1v>  (79) 
11.510286

>  <Chi2n>  (79) 
7.609858

>  <Chi2v>  (79) 
9.516215

>  <Chi3n>  (79) 
5.684879

>  <Chi3v>  (79) 
7.641672

>  <Chi4n>  (79) 
4.115427

>  <Chi4v>  (79) 
5.809037

>  <HallKierAlpha>  (79) 
-2.295065

>  <Ipc>  (79) 
7678260.565908

>  <Kappa1>  (79) 
20.956745

>  <Kappa2>  (79) 
8.829043

>  <Kappa3>  (79) 
4.257317

>  <LabuteASA>  (79) 
176.335146

>  <PEOE_VSA1>  (79) 
14.947955

>  <PEOE_VSA10>  (79) 
6.544756

>  <PEOE_VSA11>  (79) 
0.0

>  <PEOE_VSA12>  (79) 
10.023291

>  <PEOE_VSA13>  (79) 
0.0

>  <PEOE_VSA14>  (79) 
7.118392

>  <PEOE_VSA2>  (79) 
4.983979

>  <PEOE_VSA3>  (79) 
8.417797

>  <PEOE_VSA4>  (79) 
4.305216

>  <PEOE_VSA5>  (79) 
0.0

>  <PEOE_VSA6>  (79) 
36.398202

>  <PEOE_VSA7>  (79) 
17.595537

>  <PEOE_VSA8>  (79) 
41.695165

>  <PEOE_VSA9>  (79) 
24.529753

>  <SMR_VSA1>  (79) 
23.365752

>  <SMR_VSA10>  (79) 
33.376935

>  <SMR_VSA2>  (79) 
0.0

>  <SMR_VSA3>  (79) 
9.289195

>  <SMR_VSA4>  (79) 
0.0

>  <SMR_VSA5>  (79) 
17.861062

>  <SMR_VSA6>  (79) 
26.179026

>  <SMR_VSA7>  (79) 
66.488075

>  <SMR_VSA8>  (79) 
0.0

>  <SMR_VSA9>  (79) 
0.0

>  <SlogP_VSA1>  (79) 
10.362713

>  <SlogP_VSA10>  (79) 
0.0

>  <SlogP_VSA11>  (79) 
0.0

>  <SlogP_VSA12>  (79) 
0.0

>  <SlogP_VSA2>  (79) 
61.052455

>  <SlogP_VSA3>  (79) 
16.568048

>  <SlogP_VSA4>  (79) 
0.0

>  <SlogP_VSA5>  (79) 
11.984273

>  <SlogP_VSA6>  (79) 
65.820107

>  <SlogP_VSA7>  (79) 
0.0

>  <SlogP_VSA8>  (79) 
10.772448

>  <SlogP_VSA9>  (79) 
0.0

>  <EState_VSA1>  (79) 
17.141683

>  <EState_VSA10>  (79) 
18.465842

>  <EState_VSA11>  (79) 
0.0

>  <EState_VSA2>  (79) 
0.0

>  <EState_VSA3>  (79) 
41.923537

>  <EState_VSA4>  (79) 
23.915254

>  <EState_VSA5>  (79) 
4.89991

>  <EState_VSA6>  (79) 
47.030738

>  <EState_VSA7>  (79) 
18.199101

>  <EState_VSA8>  (79) 
4.983979

>  <EState_VSA9>  (79) 
0.0

>  <VSA_EState1>  (79) 
28.356509

>  <VSA_EState10>  (79) 
0.0

>  <VSA_EState2>  (79) 
5.629409

>  <VSA_EState3>  (79) 
20.702694

>  <VSA_EState4>  (79) 
1.378194

>  <VSA_EState5>  (79) 
0.0

>  <VSA_EState6>  (79) 
14.287942

>  <VSA_EState7>  (79) 
4.030861

>  <VSA_EState8>  (79) 
2.990995

>  <VSA_EState9>  (79) 
-5.126604

>  <FractionCSP3>  (79) 
0.285714

>  <HeavyAtomCount>  (79) 
30

>  <NHOHCount>  (79) 
3

>  <NOCount>  (79) 
7

>  <NumAliphaticCarbocycles>  (79) 
0

>  <NumAliphaticHeterocycles>  (79) 
1

>  <NumAliphaticRings>  (79) 
1

>  <NumAromaticCarbocycles>  (79) 
2

>  <NumAromaticHeterocycles>  (79) 
1

>  <NAR>  (79) 
3

>  <NumHAcceptors>  (79) 
5

>  <NumHDonors>  (79) 
3

>  <NumHeteroatoms>  (79) 
9

>  <NumRotatableBonds>  (79) 
5

>  <NumSaturatedCarbocycles>  (79) 
0

>  <NumSaturatedHeterocycles>  (79) 
1

>  <NumSaturatedRings>  (79) 
1

>  <RingCount>  (79) 
4

>  <MolLogP>  (79) 
-0.6059

>  <MolMR>  (79) 
115.7871

>  <fr_Al_COO>  (79) 
0

>  <fr_Al_OH>  (79) 
0

>  <fr_Al_OH_noTert>  (79) 
0

>  <fr_ArN>  (79) 
0

>  <fr_Ar_COO>  (79) 
0

>  <fr_Ar_N>  (79) 
1

>  <fr_Ar_NH>  (79) 
0

>  <fr_Ar_OH>  (79) 
0

>  <fr_COO>  (79) 
0

>  <fr_COO2>  (79) 
0

>  <fr_C_O>  (79) 
0

>  <fr_C_O_noCOO>  (79) 
0

>  <fr_C_S>  (79) 
0

>  <fr_HOCCN>  (79) 
0

>  <fr_Imine>  (79) 
0

>  <fr_NH0>  (79) 
2

>  <fr_NH1>  (79) 
1

>  <fr_NH2>  (79) 
0

>  <fr_N_O>  (79) 
0

>  <fr_Ndealkylation1>  (79) 
0

>  <fr_Ndealkylation2>  (79) 
0

>  <fr_Nhpyrrole>  (79) 
0

>  <fr_SH>  (79) 
0

>  <fr_aldehyde>  (79) 
0

>  <fr_alkyl_carbamate>  (79) 
0

>  <fr_alkyl_halide>  (79) 
0

>  <fr_allylic_oxid>  (79) 
0

>  <fr_amide>  (79) 
0

>  <fr_amidine>  (79) 
0

>  <fr_aniline>  (79) 
0

>  <fr_aryl_methyl>  (79) 
0

>  <fr_azide>  (79) 
0

>  <fr_azo>  (79) 
0

>  <fr_barbitur>  (79) 
0

>  <fr_benzene>  (79) 
2

>  <fr_benzodiazepine>  (79) 
0

>  <fr_bicyclic>  (79) 
1

>  <fr_diazo>  (79) 
0

>  <fr_dihydropyridine>  (79) 
0

>  <fr_epoxide>  (79) 
0

>  <fr_ester>  (79) 
0

>  <fr_ether>  (79) 
0

>  <fr_furan>  (79) 
0

>  <fr_guanido>  (79) 
0

>  <fr_halogen>  (79) 
0

>  <fr_hdrzine>  (79) 
0

>  <fr_hdrzone>  (79) 
0

>  <fr_imidazole>  (79) 
0

>  <fr_imide>  (79) 
0

>  <fr_isocyan>  (79) 
0

>  <fr_isothiocyan>  (79) 
0

>  <fr_ketone>  (79) 
0

>  <fr_ketone_Topliss>  (79) 
0

>  <fr_lactam>  (79) 
0

>  <fr_lactone>  (79) 
0

>  <fr_methoxy>  (79) 
0

>  <fr_morpholine>  (79) 
0

>  <fr_nitrile>  (79) 
0

>  <fr_nitro>  (79) 
0

>  <fr_nitro_arom>  (79) 
0

>  <fr_nitro_arom_nonortho>  (79) 
0

>  <fr_nitroso>  (79) 
0

>  <fr_oxazole>  (79) 
0

>  <fr_oxime>  (79) 
0

>  <fr_para_hydroxylation>  (79) 
0

>  <fr_phenol>  (79) 
0

>  <fr_phenol_noOrthoHbond>  (79) 
0

>  <fr_phos_acid>  (79) 
0

>  <fr_phos_ester>  (79) 
0

>  <fr_piperdine>  (79) 
0

>  <fr_piperzine>  (79) 
0

>  <fr_priamide>  (79) 
0

>  <fr_prisulfonamd>  (79) 
0

>  <fr_pyridine>  (79) 
1

>  <fr_quatN>  (79) 
1

>  <fr_sulfide>  (79) 
0

>  <fr_sulfonamd>  (79) 
1

>  <fr_sulfone>  (79) 
0

>  <fr_term_acetylene>  (79) 
0

>  <fr_tetrazole>  (79) 
0

>  <fr_thiazole>  (79) 
0

>  <fr_thiocyan>  (79) 
0

>  <fr_thiophene>  (79) 
0

>  <fr_unbrch_alkane>  (79) 
0

>  <fr_urea>  (79) 
0

>  <NP-Likeness>  (79) 
-1.032216

$$$$
9LQ
     RDKit          3D

  0  0  0  0  0  0  0  0  0  0999 V3000
M  V30 BEGIN CTAB
M  V30 COUNTS 55 58 0 0 0
M  V30 BEGIN ATOM
M  V30 1 O 1.775789 -0.990101 3.302848 0
M  V30 2 B 2.790967 -1.697749 2.494314 0
M  V30 3 O 2.647005 -3.135305 2.286149 0
M  V30 4 C 3.852886 -0.825626 1.791734 0
M  V30 5 C 4.768488 -0.164346 2.594649 0
M  V30 6 C 5.742784 0.632144 2.010225 0
M  V30 7 C 5.809677 0.773544 0.625499 0
M  V30 8 C 4.892110 0.109813 -0.163721 0
M  V30 9 C 3.913256 -0.690206 0.420353 0
M  V30 10 C 2.954648 -1.379919 -0.448756 0
M  V30 11 N 1.644329 -0.795816 -0.494557 0 CFG=1 CHG=1 VAL=4
M  V30 12 C 1.583813 0.571716 -0.045193 0
M  V30 13 C 0.133838 0.992239 -0.009868 0
M  V30 14 N -0.631054 -0.142027 0.502409 0
M  V30 15 S -1.857599 0.382235 1.579984 0
M  V30 16 O -1.682221 1.869537 1.791482 0
M  V30 17 O -1.609226 -0.228071 2.955607 0
M  V30 18 C -3.444528 0.058688 1.014823 0
M  V30 19 C -4.247494 1.118229 0.577598 0
M  V30 20 C -5.504404 0.953753 0.071170 0
M  V30 21 C -6.064063 -0.309540 -0.037706 0
M  V30 22 C -5.310544 -1.392913 0.382614 0
M  V30 23 C -5.774661 -2.677473 0.336781 0
M  V30 24 N -5.063490 -3.748111 0.760490 0
M  V30 25 C -3.810719 -3.574078 1.267559 0
M  V30 26 C -3.365744 -2.269625 1.302311 0
M  V30 27 C -4.058971 -1.152522 0.879404 0
M  V30 28 C -1.103114 -0.973041 -0.564596 0
M  V30 29 C -0.384939 -0.793838 -1.879146 0
M  V30 30 C 1.093289 -0.867932 -1.826595 0
M  V30 31 H 1.554610 -1.475557 4.135916 0
M  V30 32 H 1.785889 -3.449724 2.655674 0
M  V30 33 H 4.823891 -0.189968 3.662393 0
M  V30 34 H 6.523923 1.209888 2.491937 0
M  V30 35 H 6.532036 1.370470 0.093301 0
M  V30 36 H 4.904884 0.189391 -1.242566 0
M  V30 37 H 3.336192 -1.428771 -1.505583 0
M  V30 38 H 2.901285 -2.460769 -0.135020 0
M  V30 39 H 1.018413 -1.382608 0.118142 0
M  V30 40 H 2.137397 1.213727 -0.765459 0
M  V30 41 H 1.981898 0.745890 0.957324 0
M  V30 42 H -0.176978 1.340296 -0.992991 0
M  V30 43 H 0.014174 1.869320 0.680416 0
M  V30 44 H -3.924677 2.151870 0.611035 0
M  V30 45 H -6.129614 1.766389 -0.268298 0
M  V30 46 H -7.044381 -0.454688 -0.431655 0
M  V30 47 H -6.762917 -2.869530 -0.056757 0
M  V30 48 H -3.202037 -4.394765 1.619693 0
M  V30 49 H -2.370196 -2.147353 1.715622 0
M  V30 50 H -1.024836 -2.036939 -0.281309 0
M  V30 51 H -2.158887 -0.711651 -0.769700 0
M  V30 52 H -0.737206 -1.673031 -2.505885 0
M  V30 53 H -0.775136 0.080963 -2.439391 0
M  V30 54 H 1.490700 -1.811644 -2.269789 0
M  V30 55 H 1.556543 -0.045800 -2.447664 0
M  V30 END ATOM
M  V30 BEGIN BOND
M  V30 1 1 1 2
M  V30 2 1 2 3
M  V30 3 1 2 4
M  V30 4 2 4 5
M  V30 5 1 5 6
M  V30 6 2 6 7
M  V30 7 1 7 8
M  V30 8 2 8 9
M  V30 9 1 9 10
M  V30 10 1 10 11
M  V30 11 1 11 12
M  V30 12 1 12 13
M  V30 13 1 13 14
M  V30 14 1 14 15
M  V30 15 2 15 16
M  V30 16 2 15 17
M  V30 17 1 15 18
M  V30 18 2 18 19
M  V30 19 1 19 20
M  V30 20 2 20 21
M  V30 21 1 21 22
M  V30 22 2 22 23
M  V30 23 1 23 24
M  V30 24 2 24 25
M  V30 25 1 25 26
M  V30 26 2 26 27
M  V30 27 1 14 28
M  V30 28 1 28 29
M  V30 29 1 29 30
M  V30 30 1 9 4
M  V30 31 1 30 11
M  V30 32 1 27 18
M  V30 33 1 27 22
M  V30 34 1 1 31
M  V30 35 1 3 32
M  V30 36 1 5 33
M  V30 37 1 6 34
M  V30 38 1 7 35
M  V30 39 1 8 36
M  V30 40 1 10 37
M  V30 41 1 10 38
M  V30 42 1 11 39 CFG=1
M  V30 43 1 12 40
M  V30 44 1 12 41
M  V30 45 1 13 42
M  V30 46 1 13 43
M  V30 47 1 19 44
M  V30 48 1 20 45
M  V30 49 1 21 46
M  V30 50 1 23 47
M  V30 51 1 25 48
M  V30 52 1 26 49
M  V30 53 1 28 50
M  V30 54 1 28 51
M  V30 55 1 29 52
M  V30 56 1 29 53
M  V30 57 1 30 54
M  V30 58 1 30 55
M  V30 END BOND
M  V30 END CTAB
M  END
>  <Dataset>  (80) 
PDB

>  <Ligand_Instance>  (80) 
6I2D_9LQ_A_401

>  <PDB_ID>  (80) 
6I2D

>  <Standardized_SMILES>  (80) 
[H]OB(O[H])C1=C([H])C([H])=C([H])C([H])=C1C([H])([H])[N@@+]1([H])C([H])([H])C([H])([H])N(S(=O)(=O)C2=C([H])C([H])=C([H])C3=C([H])N=C([H])C([H])=C32)C([H])([H])C([H])([H])C1([H])[H]

>  <Name>  (80) 
[2-[(4-isoquinolin-5-ylsulfonyl-1,4-diazepan-1-yl)methyl]phenyl]boronic acid

>  <Pocket>  (80) 
A

>  <ATP_Site>  (80) 
1.0

>  <Peripheral>  (80) 
0.0

>  <Num_H_Atoms_ProtBoundConf>  (80) 
25.0

>  <Num_Resolved_Atoms>  (80) 
30.0

>  <Num_Not_Resolved_Atoms>  (80) 
0.0

>  <2D_Mol_H>  (80) 
<rdkit.Chem.rdchem.Mol object at 0x72a238dc6d50>

>  <MW>  (80) 
426.327

>  <HBA>  (80) 
5

>  <HBD>  (80) 
3

>  <LogP>  (80) 
-0.6059

>  <NRB>  (80) 
7

>  <TPSA>  (80) 
95.17

>  <Num_Heavy_Atoms>  (80) 
30

>  <Ro5>  (80) 
[True, True, True, True, True, True]

>  <Ro5_Fulfilled>  (80) 
True

>  <Ro3>  (80) 
[False, False, True, True]

>  <Ro3_Fulfilled>  (80) 
False

>  <Fsp3>  (80) 
0.285714

>  <Fsp3_0.42>  (80) 
False

>  <Fsp3_0.45>  (80) 
False

>  <Stereogenic_Carbons>  (80) 
0

>  <C_Atoms>  (80) 
21

>  <FCStereo>  (80) 
0.0

>  <SPS>  (80) 
548

>  <nSPS>  (80) 
18.266667

>  <PBF>  (80) 
1.216711

>  <PBF_0.6>  (80) 
True

>  <nPBF>  (80) 
0.040557

>  <nPBF_0.016>  (80) 
True

>  <PMI1>  (80) 
1533.47974

>  <PMI2>  (80) 
6165.379581

>  <PMI3>  (80) 
6323.552313

>  <NPR1>  (80) 
0.242503

>  <NPR2>  (80) 
0.974987

>  <Sum_NPR>  (80) 
1.21749

>  <Sum_NPR_1.07>  (80) 
True

>  <Sum_NPR_1.2>  (80) 
True

>  <MaxAbsEStateIndex>  (80) 
13.392542

>  <MaxEStateIndex>  (80) 
13.392542

>  <MinAbsEStateIndex>  (80) 
0.319073

>  <MinEStateIndex>  (80) 
-3.617627

>  <qed>  (80) 
0.473798

>  <MolWt>  (80) 
426.327

>  <HeavyAtomMolWt>  (80) 
401.127

>  <ExactMolWt>  (80) 
426.165334

>  <NumValenceElectrons>  (80) 
156

>  <NumRadicalElectrons>  (80) 
0

>  <MaxPartialCharge>  (80) 
0.488428

>  <MinPartialCharge>  (80) 
-0.423168

>  <MaxAbsPartialCharge>  (80) 
0.488428

>  <MinAbsPartialCharge>  (80) 
0.423168

>  <FpDensityMorgan1>  (80) 
1.033333

>  <FpDensityMorgan2>  (80) 
1.866667

>  <FpDensityMorgan3>  (80) 
2.7

>  <BCUT2D_MWHI>  (80) 
32.233428

>  <BCUT2D_MWLOW>  (80) 
9.767095

>  <BCUT2D_CHGHI>  (80) 
2.297856

>  <BCUT2D_CHGLO>  (80) 
-2.211151

>  <BCUT2D_LOGPHI>  (80) 
2.248417

>  <BCUT2D_LOGPLOW>  (80) 
-3.107912

>  <BCUT2D_MRHI>  (80) 
7.889656

>  <BCUT2D_MRLOW>  (80) 
-0.911282

>  <AvgIpc>  (80) 
2.99481

>  <BalabanJ>  (80) 
1.529212

>  <BertzCT>  (80) 
1134.559461

>  <Chi0>  (80) 
21.139617

>  <Chi0n>  (80) 
16.607093

>  <Chi0v>  (80) 
17.423589

>  <Chi1>  (80) 
14.464364

>  <Chi1n>  (80) 
10.070222

>  <Chi1v>  (80) 
11.510286

>  <Chi2n>  (80) 
7.609858

>  <Chi2v>  (80) 
9.516215

>  <Chi3n>  (80) 
5.684879

>  <Chi3v>  (80) 
7.641672

>  <Chi4n>  (80) 
4.115427

>  <Chi4v>  (80) 
5.809037

>  <HallKierAlpha>  (80) 
-2.295065

>  <Ipc>  (80) 
7678260.565908

>  <Kappa1>  (80) 
20.956745

>  <Kappa2>  (80) 
8.829043

>  <Kappa3>  (80) 
4.257317

>  <LabuteASA>  (80) 
176.335146

>  <PEOE_VSA1>  (80) 
14.947955

>  <PEOE_VSA10>  (80) 
6.544756

>  <PEOE_VSA11>  (80) 
0.0

>  <PEOE_VSA12>  (80) 
10.023291

>  <PEOE_VSA13>  (80) 
0.0

>  <PEOE_VSA14>  (80) 
7.118392

>  <PEOE_VSA2>  (80) 
4.983979

>  <PEOE_VSA3>  (80) 
8.417797

>  <PEOE_VSA4>  (80) 
4.305216

>  <PEOE_VSA5>  (80) 
0.0

>  <PEOE_VSA6>  (80) 
36.398202

>  <PEOE_VSA7>  (80) 
17.595537

>  <PEOE_VSA8>  (80) 
41.695165

>  <PEOE_VSA9>  (80) 
24.529753

>  <SMR_VSA1>  (80) 
23.365752

>  <SMR_VSA10>  (80) 
33.376935

>  <SMR_VSA2>  (80) 
0.0

>  <SMR_VSA3>  (80) 
9.289195

>  <SMR_VSA4>  (80) 
0.0

>  <SMR_VSA5>  (80) 
17.861062

>  <SMR_VSA6>  (80) 
26.179026

>  <SMR_VSA7>  (80) 
66.488075

>  <SMR_VSA8>  (80) 
0.0

>  <SMR_VSA9>  (80) 
0.0

>  <SlogP_VSA1>  (80) 
10.362713

>  <SlogP_VSA10>  (80) 
0.0

>  <SlogP_VSA11>  (80) 
0.0

>  <SlogP_VSA12>  (80) 
0.0

>  <SlogP_VSA2>  (80) 
61.052455

>  <SlogP_VSA3>  (80) 
16.568048

>  <SlogP_VSA4>  (80) 
0.0

>  <SlogP_VSA5>  (80) 
11.984273

>  <SlogP_VSA6>  (80) 
65.820107

>  <SlogP_VSA7>  (80) 
0.0

>  <SlogP_VSA8>  (80) 
10.772448

>  <SlogP_VSA9>  (80) 
0.0

>  <EState_VSA1>  (80) 
17.141683

>  <EState_VSA10>  (80) 
18.465842

>  <EState_VSA11>  (80) 
0.0

>  <EState_VSA2>  (80) 
0.0

>  <EState_VSA3>  (80) 
41.923537

>  <EState_VSA4>  (80) 
23.915254

>  <EState_VSA5>  (80) 
4.89991

>  <EState_VSA6>  (80) 
47.030738

>  <EState_VSA7>  (80) 
18.199101

>  <EState_VSA8>  (80) 
4.983979

>  <EState_VSA9>  (80) 
0.0

>  <VSA_EState1>  (80) 
28.356509

>  <VSA_EState10>  (80) 
0.0

>  <VSA_EState2>  (80) 
5.629409

>  <VSA_EState3>  (80) 
20.702694

>  <VSA_EState4>  (80) 
1.378194

>  <VSA_EState5>  (80) 
0.0

>  <VSA_EState6>  (80) 
14.287942

>  <VSA_EState7>  (80) 
4.030861

>  <VSA_EState8>  (80) 
2.990995

>  <VSA_EState9>  (80) 
-5.126604

>  <FractionCSP3>  (80) 
0.285714

>  <HeavyAtomCount>  (80) 
30

>  <NHOHCount>  (80) 
3

>  <NOCount>  (80) 
7

>  <NumAliphaticCarbocycles>  (80) 
0

>  <NumAliphaticHeterocycles>  (80) 
1

>  <NumAliphaticRings>  (80) 
1

>  <NumAromaticCarbocycles>  (80) 
2

>  <NumAromaticHeterocycles>  (80) 
1

>  <NAR>  (80) 
3

>  <NumHAcceptors>  (80) 
5

>  <NumHDonors>  (80) 
3

>  <NumHeteroatoms>  (80) 
9

>  <NumRotatableBonds>  (80) 
5

>  <NumSaturatedCarbocycles>  (80) 
0

>  <NumSaturatedHeterocycles>  (80) 
1

>  <NumSaturatedRings>  (80) 
1

>  <RingCount>  (80) 
4

>  <MolLogP>  (80) 
-0.6059

>  <MolMR>  (80) 
115.7871

>  <fr_Al_COO>  (80) 
0

>  <fr_Al_OH>  (80) 
0

>  <fr_Al_OH_noTert>  (80) 
0

>  <fr_ArN>  (80) 
0

>  <fr_Ar_COO>  (80) 
0

>  <fr_Ar_N>  (80) 
1

>  <fr_Ar_NH>  (80) 
0

>  <fr_Ar_OH>  (80) 
0

>  <fr_COO>  (80) 
0

>  <fr_COO2>  (80) 
0

>  <fr_C_O>  (80) 
0

>  <fr_C_O_noCOO>  (80) 
0

>  <fr_C_S>  (80) 
0

>  <fr_HOCCN>  (80) 
0

>  <fr_Imine>  (80) 
0

>  <fr_NH0>  (80) 
2

>  <fr_NH1>  (80) 
1

>  <fr_NH2>  (80) 
0

>  <fr_N_O>  (80) 
0

>  <fr_Ndealkylation1>  (80) 
0

>  <fr_Ndealkylation2>  (80) 
0

>  <fr_Nhpyrrole>  (80) 
0

>  <fr_SH>  (80) 
0

>  <fr_aldehyde>  (80) 
0

>  <fr_alkyl_carbamate>  (80) 
0

>  <fr_alkyl_halide>  (80) 
0

>  <fr_allylic_oxid>  (80) 
0

>  <fr_amide>  (80) 
0

>  <fr_amidine>  (80) 
0

>  <fr_aniline>  (80) 
0

>  <fr_aryl_methyl>  (80) 
0

>  <fr_azide>  (80) 
0

>  <fr_azo>  (80) 
0

>  <fr_barbitur>  (80) 
0

>  <fr_benzene>  (80) 
2

>  <fr_benzodiazepine>  (80) 
0

>  <fr_bicyclic>  (80) 
1

>  <fr_diazo>  (80) 
0

>  <fr_dihydropyridine>  (80) 
0

>  <fr_epoxide>  (80) 
0

>  <fr_ester>  (80) 
0

>  <fr_ether>  (80) 
0

>  <fr_furan>  (80) 
0

>  <fr_guanido>  (80) 
0

>  <fr_halogen>  (80) 
0

>  <fr_hdrzine>  (80) 
0

>  <fr_hdrzone>  (80) 
0

>  <fr_imidazole>  (80) 
0

>  <fr_imide>  (80) 
0

>  <fr_isocyan>  (80) 
0

>  <fr_isothiocyan>  (80) 
0

>  <fr_ketone>  (80) 
0

>  <fr_ketone_Topliss>  (80) 
0

>  <fr_lactam>  (80) 
0

>  <fr_lactone>  (80) 
0

>  <fr_methoxy>  (80) 
0

>  <fr_morpholine>  (80) 
0

>  <fr_nitrile>  (80) 
0

>  <fr_nitro>  (80) 
0

>  <fr_nitro_arom>  (80) 
0

>  <fr_nitro_arom_nonortho>  (80) 
0

>  <fr_nitroso>  (80) 
0

>  <fr_oxazole>  (80) 
0

>  <fr_oxime>  (80) 
0

>  <fr_para_hydroxylation>  (80) 
0

>  <fr_phenol>  (80) 
0

>  <fr_phenol_noOrthoHbond>  (80) 
0

>  <fr_phos_acid>  (80) 
0

>  <fr_phos_ester>  (80) 
0

>  <fr_piperdine>  (80) 
0

>  <fr_piperzine>  (80) 
0

>  <fr_priamide>  (80) 
0

>  <fr_prisulfonamd>  (80) 
0

>  <fr_pyridine>  (80) 
1

>  <fr_quatN>  (80) 
1

>  <fr_sulfide>  (80) 
0

>  <fr_sulfonamd>  (80) 
1

>  <fr_sulfone>  (80) 
0

>  <fr_term_acetylene>  (80) 
0

>  <fr_tetrazole>  (80) 
0

>  <fr_thiazole>  (80) 
0

>  <fr_thiocyan>  (80) 
0

>  <fr_thiophene>  (80) 
0

>  <fr_unbrch_alkane>  (80) 
0

>  <fr_urea>  (80) 
0

>  <NP-Likeness>  (80) 
-1.032216

$$$$
9NT
     RDKit          3D

  0  0  0  0  0  0  0  0  0  0999 V3000
M  V30 BEGIN CTAB
M  V30 COUNTS 28 29 0 0 0
M  V30 BEGIN ATOM
M  V30 1 C 1.474431 -1.024282 3.604469 0
M  V30 2 C 1.792170 -2.330083 3.333791 0
M  V30 3 O 2.417072 -3.373595 4.014303 0
M  V30 4 C 2.036155 -4.615549 3.402446 0
M  V30 5 O 1.860963 -4.144495 2.056857 0
M  V30 6 C 1.441626 -2.822234 2.094920 0
M  V30 7 C 0.798806 -2.049529 1.155708 0
M  V30 8 C 0.470430 -0.737437 1.405720 0
M  V30 9 N -0.190225 -0.007863 0.389555 0
M  V30 10 C -0.634265 1.336539 0.387049 0
M  V30 11 O -0.445980 2.040816 1.403487 0
M  V30 12 C -1.320340 1.991650 -0.749929 0
M  V30 13 N -1.507077 1.133880 -1.884901 0 CHG=1 VAL=4
M  V30 14 C -0.254610 0.949277 -2.604990 0
M  V30 15 C 0.830756 -0.272079 2.646904 0
M  V30 16 H 1.736159 -0.610639 4.566165 0
M  V30 17 H 2.834784 -5.355833 3.460202 0
M  V30 18 H 1.069535 -4.911577 3.826305 0
M  V30 19 H 0.552286 -2.498106 0.202927 0
M  V30 20 H -0.411576 -0.474265 -0.517307 0
M  V30 21 H -0.815749 2.920644 -1.078587 0
M  V30 22 H -2.330262 2.304791 -0.402978 0
M  V30 23 H -1.963221 0.237753 -1.638909 0
M  V30 24 H -2.143020 1.647876 -2.542208 0
M  V30 25 H -0.099280 -0.110717 -2.869033 0
M  V30 26 H -0.215889 1.560855 -3.545129 0
M  V30 27 H 0.607644 1.232638 -1.933846 0
M  V30 28 H 0.614281 0.728579 2.919619 0
M  V30 END ATOM
M  V30 BEGIN BOND
M  V30 1 2 1 2
M  V30 2 1 2 3
M  V30 3 1 3 4
M  V30 4 1 4 5
M  V30 5 1 5 6
M  V30 6 2 6 7
M  V30 7 1 7 8
M  V30 8 1 8 9
M  V30 9 1 9 10
M  V30 10 2 10 11
M  V30 11 1 10 12
M  V30 12 1 12 13
M  V30 13 1 13 14
M  V30 14 2 8 15
M  V30 15 1 15 1
M  V30 16 1 6 2
M  V30 17 1 1 16
M  V30 18 1 4 17
M  V30 19 1 4 18
M  V30 20 1 7 19
M  V30 21 1 9 20
M  V30 22 1 12 21
M  V30 23 1 12 22
M  V30 24 1 13 23
M  V30 25 1 13 24
M  V30 26 1 14 25
M  V30 27 1 14 26
M  V30 28 1 14 27
M  V30 29 1 15 28
M  V30 END BOND
M  V30 END CTAB
M  END
>  <Dataset>  (81) 
PDB

>  <Ligand_Instance>  (81) 
5N1E_9NT_A_402

>  <PDB_ID>  (81) 
5N1E

>  <Standardized_SMILES>  (81) 
[H]C1=C2OC([H])([H])OC2=C([H])C(N([H])C(=O)C([H])([H])[N+]([H])([H])C([H])([H])[H])=C1[H]

>  <Name>  (81) 
~{N}-(1,3-benzodioxol-5-yl)-2-piperidin-1-ium-1-yl-ethanamide

>  <Pocket>  (81) 
A

>  <ATP_Site>  (81) 
1.0

>  <Peripheral>  (81) 
0.0

>  <Num_H_Atoms_ProtBoundConf>  (81) 
13.0

>  <Num_Resolved_Atoms>  (81) 
15.0

>  <Num_Not_Resolved_Atoms>  (81) 
4.0

>  <2D_Mol_H>  (81) 
<rdkit.Chem.rdchem.Mol object at 0x72a238dc6e30>

>  <MW>  (81) 
209.225

>  <HBA>  (81) 
3

>  <HBD>  (81) 
2

>  <LogP>  (81) 
-0.453

>  <NRB>  (81) 
4

>  <TPSA>  (81) 
64.17

>  <Num_Heavy_Atoms>  (81) 
15

>  <Ro5>  (81) 
[True, True, True, True, True, True]

>  <Ro5_Fulfilled>  (81) 
True

>  <Ro3>  (81) 
[True, True, True, True]

>  <Ro3_Fulfilled>  (81) 
True

>  <Fsp3>  (81) 
0.3

>  <Fsp3_0.42>  (81) 
False

>  <Fsp3_0.45>  (81) 
False

>  <Stereogenic_Carbons>  (81) 
0

>  <C_Atoms>  (81) 
10

>  <FCStereo>  (81) 
0.0

>  <SPS>  (81) 
189

>  <nSPS>  (81) 
12.6

>  <PBF>  (81) 
0.48254

>  <PBF_0.6>  (81) 
False

>  <nPBF>  (81) 
0.032169

>  <nPBF_0.016>  (81) 
True

>  <PMI1>  (81) 
315.714353

>  <PMI2>  (81) 
1894.303482

>  <PMI3>  (81) 
2156.358392

>  <NPR1>  (81) 
0.146411

>  <NPR2>  (81) 
0.878473

>  <Sum_NPR>  (81) 
1.024884

>  <Sum_NPR_1.07>  (81) 
False

>  <Sum_NPR_1.2>  (81) 
False

>  <MaxAbsEStateIndex>  (81) 
11.298212

>  <MaxEStateIndex>  (81) 
11.298212

>  <MinAbsEStateIndex>  (81) 
0.031143

>  <MinEStateIndex>  (81) 
-0.031143

>  <qed>  (81) 
0.708163

>  <MolWt>  (81) 
209.225

>  <HeavyAtomMolWt>  (81) 
196.121

>  <ExactMolWt>  (81) 
209.092069

>  <NumValenceElectrons>  (81) 
80

>  <NumRadicalElectrons>  (81) 
0

>  <MaxPartialCharge>  (81) 
0.278972

>  <MinPartialCharge>  (81) 
-0.453593

>  <MaxAbsPartialCharge>  (81) 
0.453593

>  <MinAbsPartialCharge>  (81) 
0.278972

>  <FpDensityMorgan1>  (81) 
1.466667

>  <FpDensityMorgan2>  (81) 
2.266667

>  <FpDensityMorgan3>  (81) 
3.066667

>  <BCUT2D_MWHI>  (81) 
16.696717

>  <BCUT2D_MWLOW>  (81) 
10.251428

>  <BCUT2D_CHGHI>  (81) 
2.135038

>  <BCUT2D_CHGLO>  (81) 
-2.036022

>  <BCUT2D_LOGPHI>  (81) 
2.33514

>  <BCUT2D_LOGPLOW>  (81) 
-2.815882

>  <BCUT2D_MRHI>  (81) 
5.912507

>  <BCUT2D_MRLOW>  (81) 
-0.614598

>  <AvgIpc>  (81) 
2.645733

>  <BalabanJ>  (81) 
2.064975

>  <BertzCT>  (81) 
378.930292

>  <Chi0>  (81) 
10.673362

>  <Chi0n>  (81) 
8.44836

>  <Chi0v>  (81) 
8.44836

>  <Chi1>  (81) 
7.292025

>  <Chi1n>  (81) 
4.766909

>  <Chi1v>  (81) 
4.766909

>  <Chi2n>  (81) 
3.228589

>  <Chi2v>  (81) 
3.228589

>  <Chi3n>  (81) 
2.045846

>  <Chi3v>  (81) 
2.045846

>  <Chi4n>  (81) 
1.371709

>  <Chi4v>  (81) 
1.371709

>  <HallKierAlpha>  (81) 
-1.75

>  <Ipc>  (81) 
4103.532597

>  <Kappa1>  (81) 
9.791705

>  <Kappa2>  (81) 
4.183884

>  <Kappa3>  (81) 
2.188569

>  <LabuteASA>  (81) 
87.373677

>  <PEOE_VSA1>  (81) 
20.107303

>  <PEOE_VSA10>  (81) 
0.0

>  <PEOE_VSA11>  (81) 
18.04378

>  <PEOE_VSA12>  (81) 
6.792942

>  <PEOE_VSA13>  (81) 
5.90718

>  <PEOE_VSA14>  (81) 
0.0

>  <PEOE_VSA2>  (81) 
4.794537

>  <PEOE_VSA3>  (81) 
0.0

>  <PEOE_VSA4>  (81) 
0.0

>  <PEOE_VSA5>  (81) 
0.0

>  <PEOE_VSA6>  (81) 
0.0

>  <PEOE_VSA7>  (81) 
12.132734

>  <PEOE_VSA8>  (81) 
11.753753

>  <PEOE_VSA9>  (81) 
7.047672

>  <SMR_VSA1>  (81) 
19.585052

>  <SMR_VSA10>  (81) 
11.594566

>  <SMR_VSA2>  (81) 
0.0

>  <SMR_VSA3>  (81) 
0.0

>  <SMR_VSA4>  (81) 
0.0

>  <SMR_VSA5>  (81) 
0.0

>  <SMR_VSA6>  (81) 
25.702159

>  <SMR_VSA7>  (81) 
18.199101

>  <SMR_VSA8>  (81) 
0.0

>  <SMR_VSA9>  (81) 
11.499024

>  <SlogP_VSA1>  (81) 
20.107303

>  <SlogP_VSA10>  (81) 
5.687386

>  <SlogP_VSA11>  (81) 
11.499024

>  <SlogP_VSA12>  (81) 
0.0

>  <SlogP_VSA2>  (81) 
26.29255

>  <SlogP_VSA3>  (81) 
4.794537

>  <SlogP_VSA4>  (81) 
0.0

>  <SlogP_VSA5>  (81) 
0.0

>  <SlogP_VSA6>  (81) 
18.199101

>  <SlogP_VSA7>  (81) 
0.0

>  <SlogP_VSA8>  (81) 
0.0

>  <SlogP_VSA9>  (81) 
0.0

>  <EState_VSA1>  (81) 
0.0

>  <EState_VSA10>  (81) 
4.794537

>  <EState_VSA11>  (81) 
0.0

>  <EState_VSA2>  (81) 
12.700122

>  <EState_VSA3>  (81) 
12.294268

>  <EState_VSA4>  (81) 
11.436898

>  <EState_VSA5>  (81) 
0.0

>  <EState_VSA6>  (81) 
18.199101

>  <EState_VSA7>  (81) 
12.364461

>  <EState_VSA8>  (81) 
5.316789

>  <EState_VSA9>  (81) 
9.473726

>  <VSA_EState1>  (81) 
10.364118

>  <VSA_EState10>  (81) 
0.0

>  <VSA_EState2>  (81) 
11.298212

>  <VSA_EState3>  (81) 
4.574654

>  <VSA_EState4>  (81) 
0.72787

>  <VSA_EState5>  (81) 
1.36083

>  <VSA_EState6>  (81) 
5.33787

>  <VSA_EState7>  (81) 
0.0

>  <VSA_EState8>  (81) 
0.65666

>  <VSA_EState9>  (81) 
1.846453

>  <FractionCSP3>  (81) 
0.3

>  <HeavyAtomCount>  (81) 
15

>  <NHOHCount>  (81) 
3

>  <NOCount>  (81) 
5

>  <NumAliphaticCarbocycles>  (81) 
0

>  <NumAliphaticHeterocycles>  (81) 
1

>  <NumAliphaticRings>  (81) 
1

>  <NumAromaticCarbocycles>  (81) 
1

>  <NumAromaticHeterocycles>  (81) 
0

>  <NAR>  (81) 
1

>  <NumHAcceptors>  (81) 
3

>  <NumHDonors>  (81) 
2

>  <NumHeteroatoms>  (81) 
5

>  <NumRotatableBonds>  (81) 
3

>  <NumSaturatedCarbocycles>  (81) 
0

>  <NumSaturatedHeterocycles>  (81) 
0

>  <NumSaturatedRings>  (81) 
0

>  <RingCount>  (81) 
2

>  <MolLogP>  (81) 
-0.453

>  <MolMR>  (81) 
53.9111

>  <fr_Al_COO>  (81) 
0

>  <fr_Al_OH>  (81) 
0

>  <fr_Al_OH_noTert>  (81) 
0

>  <fr_ArN>  (81) 
0

>  <fr_Ar_COO>  (81) 
0

>  <fr_Ar_N>  (81) 
0

>  <fr_Ar_NH>  (81) 
0

>  <fr_Ar_OH>  (81) 
0

>  <fr_COO>  (81) 
0

>  <fr_COO2>  (81) 
0

>  <fr_C_O>  (81) 
1

>  <fr_C_O_noCOO>  (81) 
1

>  <fr_C_S>  (81) 
0

>  <fr_HOCCN>  (81) 
0

>  <fr_Imine>  (81) 
0

>  <fr_NH0>  (81) 
0

>  <fr_NH1>  (81) 
1

>  <fr_NH2>  (81) 
1

>  <fr_N_O>  (81) 
0

>  <fr_Ndealkylation1>  (81) 
1

>  <fr_Ndealkylation2>  (81) 
0

>  <fr_Nhpyrrole>  (81) 
0

>  <fr_SH>  (81) 
0

>  <fr_aldehyde>  (81) 
0

>  <fr_alkyl_carbamate>  (81) 
0

>  <fr_alkyl_halide>  (81) 
0

>  <fr_allylic_oxid>  (81) 
0

>  <fr_amide>  (81) 
1

>  <fr_amidine>  (81) 
0

>  <fr_aniline>  (81) 
1

>  <fr_aryl_methyl>  (81) 
0

>  <fr_azide>  (81) 
0

>  <fr_azo>  (81) 
0

>  <fr_barbitur>  (81) 
0

>  <fr_benzene>  (81) 
1

>  <fr_benzodiazepine>  (81) 
0

>  <fr_bicyclic>  (81) 
1

>  <fr_diazo>  (81) 
0

>  <fr_dihydropyridine>  (81) 
0

>  <fr_epoxide>  (81) 
0

>  <fr_ester>  (81) 
0

>  <fr_ether>  (81) 
2

>  <fr_furan>  (81) 
0

>  <fr_guanido>  (81) 
0

>  <fr_halogen>  (81) 
0

>  <fr_hdrzine>  (81) 
0

>  <fr_hdrzone>  (81) 
0

>  <fr_imidazole>  (81) 
0

>  <fr_imide>  (81) 
0

>  <fr_isocyan>  (81) 
0

>  <fr_isothiocyan>  (81) 
0

>  <fr_ketone>  (81) 
0

>  <fr_ketone_Topliss>  (81) 
0

>  <fr_lactam>  (81) 
0

>  <fr_lactone>  (81) 
0

>  <fr_methoxy>  (81) 
0

>  <fr_morpholine>  (81) 
0

>  <fr_nitrile>  (81) 
0

>  <fr_nitro>  (81) 
0

>  <fr_nitro_arom>  (81) 
0

>  <fr_nitro_arom_nonortho>  (81) 
0

>  <fr_nitroso>  (81) 
0

>  <fr_oxazole>  (81) 
0

>  <fr_oxime>  (81) 
0

>  <fr_para_hydroxylation>  (81) 
0

>  <fr_phenol>  (81) 
0

>  <fr_phenol_noOrthoHbond>  (81) 
0

>  <fr_phos_acid>  (81) 
0

>  <fr_phos_ester>  (81) 
0

>  <fr_piperdine>  (81) 
0

>  <fr_piperzine>  (81) 
0

>  <fr_priamide>  (81) 
0

>  <fr_prisulfonamd>  (81) 
0

>  <fr_pyridine>  (81) 
0

>  <fr_quatN>  (81) 
1

>  <fr_sulfide>  (81) 
0

>  <fr_sulfonamd>  (81) 
0

>  <fr_sulfone>  (81) 
0

>  <fr_term_acetylene>  (81) 
0

>  <fr_tetrazole>  (81) 
0

>  <fr_thiazole>  (81) 
0

>  <fr_thiocyan>  (81) 
0

>  <fr_thiophene>  (81) 
0

>  <fr_unbrch_alkane>  (81) 
0

>  <fr_urea>  (81) 
0

>  <NP-Likeness>  (81) 
-0.979466

$$$$
A02
     RDKit          3D

  0  0  0  0  0  0  0  0  0  0999 V3000
M  V30 BEGIN CTAB
M  V30 COUNTS 140 142 0 0 0
M  V30 BEGIN ATOM
M  V30 1 O 2.601672 0.332111 -5.985830 0
M  V30 2 C 2.819463 1.407865 -5.116333 0 CFG=1
M  V30 3 C 4.287722 1.329357 -4.733083 0 CFG=1
M  V30 4 O 5.002315 0.569867 -5.656892 0
M  V30 5 C 4.703363 2.783934 -4.777380 0 CFG=2
M  V30 6 N 4.955360 3.240340 -3.426887 0
M  V30 7 C 5.835856 2.577171 -2.691100 0
M  V30 8 N 6.025557 3.051799 -1.426999 0
M  V30 9 C 5.166192 4.122398 -1.376503 0
M  V30 10 C 4.525181 4.214034 -2.614285 0
M  V30 11 N 3.595376 5.153825 -2.948852 0
M  V30 12 C 3.262339 6.061720 -2.042557 0
M  V30 13 N 3.841307 6.021234 -0.847993 0
M  V30 14 C 4.755899 5.100242 -0.506012 0
M  V30 15 N 5.364569 5.082793 0.759489 0
M  V30 16 O 3.687648 3.540844 -5.324179 0
M  V30 17 C 2.769895 2.703836 -5.889765 0 CFG=2
M  V30 18 C 1.446052 3.315414 -6.017531 0
M  V30 19 O 0.984408 4.482488 -5.797026 0
M  V30 20 N 0.399426 2.449984 -6.494048 0
M  V30 21 C -1.014957 2.649015 -6.779495 0
M  V30 22 C -1.663309 1.331980 -7.189893 0
M  V30 23 C -1.583017 0.432010 -5.957435 0
M  V30 24 C -2.063397 -0.956632 -6.189305 0
M  V30 25 C -2.047824 -1.849726 -4.982810 0
M  V30 26 C -0.670219 -1.976954 -4.467634 0
M  V30 27 O 0.110776 -1.484727 -5.334049 0
M  V30 28 N -0.119616 -2.507008 -3.260761 0
M  V30 29 C 1.348858 -2.368100 -3.170469 0 CFG=1
M  V30 30 C 1.569381 -1.300489 -2.174262 0
M  V30 31 O 0.312119 -1.573607 -2.009690 0
M  V30 32 N 2.205020 -0.304750 -1.394692 0
M  V30 33 C 1.259353 0.260327 -0.463048 0
M  V30 34 C 1.877245 1.394869 0.328856 0
M  V30 35 C 0.918097 1.969997 1.333764 0
M  V30 36 C 0.563501 1.016587 2.460345 0
M  V30 37 C -0.440886 1.643359 3.382279 0
M  V30 38 C -0.795667 0.841188 4.563128 0
M  V30 39 O 0.248987 0.165911 4.705331 0
M  V30 40 N -2.038631 0.900066 5.284362 0
M  V30 41 C -2.320006 0.110706 6.475182 0 CFG=1
M  V30 42 C -3.722430 -0.399180 6.391231 0
M  V30 43 O -4.281897 -1.231563 7.142767 0
M  V30 44 N -4.635225 0.026119 5.357945 0
M  V30 45 C -5.976210 -0.198122 4.801347 0 CFG=1
M  V30 46 C -6.859892 0.894333 5.343011 0
M  V30 47 O -7.815152 1.646004 5.627387 0
M  V30 48 N -6.198056 1.871540 6.192992 0
M  V30 49 C -5.821953 0.101766 3.276414 0
M  V30 50 C -4.679465 -0.725461 2.805205 0
M  V30 51 C -4.195667 -0.489977 1.370046 0
M  V30 52 N -2.908306 -1.248637 1.374840 0
M  V30 53 C -2.785238 -2.645967 1.337286 0
M  V30 54 N -1.348706 -2.838683 1.397051 0
M  V30 55 N -3.624872 -3.598084 1.268981 0 CHG=1 VAL=4
M  V30 56 C -1.473376 -1.188220 6.494835 0
M  V30 57 C -1.861039 -2.124322 5.393178 0
M  V30 58 C -0.982554 -3.375786 5.410971 0
M  V30 59 N -1.494757 -4.358727 4.470633 0
M  V30 60 C -1.113682 -5.638839 4.000448 0
M  V30 61 N -1.973218 -6.278295 3.005111 0
M  V30 62 N 0.044139 -5.880368 4.676877 0 CHG=1 VAL=4
M  V30 63 C 1.867444 -3.715976 -2.757314 0
M  V30 64 C 1.283670 -4.152581 -1.426515 0
M  V30 65 C 1.798222 -5.497631 -1.038220 0
M  V30 66 C 1.236727 -5.959511 0.295679 0
M  V30 67 N 1.749353 -7.279124 0.664097 0 CHG=1 VAL=4
M  V30 68 H 2.895669 -0.525051 -5.604052 0
M  V30 69 H 2.124049 1.332840 -4.286442 0
M  V30 70 H 4.486332 0.937115 -3.744125 0
M  V30 71 H 5.098016 -0.364080 -5.364026 0
M  V30 72 H 5.662103 2.838555 -5.336300 0
M  V30 73 H 6.460516 1.702094 -2.901542 0
M  V30 74 H 2.548562 6.860694 -2.165105 0
M  V30 75 H 5.876344 5.531336 1.534260 0
M  V30 76 H 5.329647 4.147111 1.264383 0
M  V30 77 H 3.095514 2.472891 -6.960935 0
M  V30 78 H 0.708378 1.458169 -6.697105 0
M  V30 79 H -1.106358 3.392291 -7.587325 0
M  V30 80 H -1.523126 2.982548 -5.854825 0
M  V30 81 H -1.201547 0.869786 -8.062546 0
M  V30 82 H -2.729778 1.541219 -7.369883 0
M  V30 83 H -0.588131 0.495460 -5.550798 0
M  V30 84 H -2.249335 0.939341 -5.191566 0
M  V30 85 H -1.517737 -1.430796 -7.056081 0
M  V30 86 H -3.121352 -0.869521 -6.570511 0
M  V30 87 H -2.464399 -2.838114 -5.289083 0
M  V30 88 H -2.703114 -1.398622 -4.205488 0
M  V30 89 H -0.878025 -2.894184 -2.673508 0
M  V30 90 H 1.791651 -2.014685 -4.106529 0
M  V30 91 H 3.117920 -0.456434 -1.898237 0
M  V30 92 H 0.352262 0.632821 -1.021581 0
M  V30 93 H 0.909887 -0.489793 0.256484 0
M  V30 94 H 2.846997 1.109097 0.759948 0
M  V30 95 H 2.091092 2.192729 -0.411849 0
M  V30 96 H -0.027165 2.190341 0.729755 0
M  V30 97 H 1.218018 2.935152 1.744368 0
M  V30 98 H 0.124669 0.120637 2.020046 0
M  V30 99 H 1.481924 0.851748 3.024879 0
M  V30 100 H -1.352992 1.902496 2.769612 0
M  V30 101 H -0.049126 2.658388 3.707593 0
M  V30 102 H -2.559683 1.611792 4.748189 0
M  V30 103 H -2.107262 0.671999 7.358012 0
M  V30 104 H -4.223077 0.793866 4.804062 0
M  V30 105 H -6.343764 -1.149991 5.064847 0
M  V30 106 H -5.630658 2.739465 6.430435 0
M  V30 107 H -5.624820 2.752337 6.340422 0
M  V30 108 H -6.761357 -0.178808 2.800613 0
M  V30 109 H -5.651206 1.169189 3.183909 0
M  V30 110 H -3.810119 -0.648407 3.485425 0
M  V30 111 H -5.008652 -1.811094 2.784542 0
M  V30 112 H -4.864868 -0.960708 0.628365 0
M  V30 113 H -4.060236 0.547020 1.195624 0
M  V30 114 H -2.143615 -0.529061 1.413871 0
M  V30 115 H -0.641554 -3.290003 2.051017 0
M  V30 116 H -0.633732 -2.532523 0.714257 0
M  V30 117 H -3.041005 -4.380541 1.298125 0
M  V30 118 H -4.628922 -3.927028 1.126396 0
M  V30 119 H -0.409306 -0.985390 6.567364 0
M  V30 120 H -1.763308 -1.657100 7.469244 0
M  V30 121 H -2.900696 -2.520437 5.518389 0
M  V30 122 H -1.808564 -1.596401 4.432053 0
M  V30 123 H -0.813440 -3.752693 6.421675 0
M  V30 124 H 0.011720 -3.038506 4.989869 0
M  V30 125 H -2.405340 -4.018435 4.018023 0
M  V30 126 H -1.102398 -6.055878 2.447005 0
M  V30 127 H -1.125619 -6.084265 2.382645 0
M  V30 128 H 0.081014 -6.795551 4.181246 0
M  V30 129 H 0.203934 -6.818377 4.264352 0
M  V30 130 H 2.982150 -3.737373 -2.727842 0
M  V30 131 H 1.541683 -4.453090 -3.511059 0
M  V30 132 H 0.189870 -4.240008 -1.570371 0
M  V30 133 H 1.437346 -3.385545 -0.641779 0
M  V30 134 H 2.907552 -5.530526 -0.958740 0
M  V30 135 H 1.532187 -6.289869 -1.764905 0
M  V30 136 H 1.661226 -5.247941 1.063761 0
M  V30 137 H 0.147649 -6.001297 0.328374 0
M  V30 138 H 1.140444 -8.056516 0.304149 0
M  V30 139 H 1.765348 -7.300071 1.723395 0
M  V30 140 H 2.741739 -7.367861 0.351882 0
M  V30 END ATOM
M  V30 BEGIN BOND
M  V30 1 1 1 2
M  V30 2 1 2 3
M  V30 3 1 3 4
M  V30 4 1 3 5
M  V30 5 1 5 6
M  V30 6 1 6 7
M  V30 7 2 7 8
M  V30 8 1 8 9
M  V30 9 2 9 10
M  V30 10 1 10 11
M  V30 11 2 11 12
M  V30 12 1 12 13
M  V30 13 2 13 14
M  V30 14 1 14 15
M  V30 15 1 5 16
M  V30 16 1 16 17
M  V30 17 1 17 18
M  V30 18 2 18 19
M  V30 19 1 18 20
M  V30 20 1 20 21
M  V30 21 1 21 22
M  V30 22 1 22 23
M  V30 23 1 23 24
M  V30 24 1 24 25
M  V30 25 1 25 26
M  V30 26 2 26 27
M  V30 27 1 26 28
M  V30 28 1 28 29
M  V30 29 1 29 30
M  V30 30 2 30 31
M  V30 31 1 30 32
M  V30 32 1 32 33
M  V30 33 1 33 34
M  V30 34 1 34 35
M  V30 35 1 35 36
M  V30 36 1 36 37
M  V30 37 1 37 38
M  V30 38 2 38 39
M  V30 39 1 38 40
M  V30 40 1 40 41
M  V30 41 1 41 42
M  V30 42 2 42 43
M  V30 43 1 42 44
M  V30 44 1 44 45
M  V30 45 1 45 46
M  V30 46 2 46 47
M  V30 47 1 46 48
M  V30 48 1 45 49
M  V30 49 1 49 50
M  V30 50 1 50 51
M  V30 51 1 51 52
M  V30 52 1 52 53
M  V30 53 1 53 54
M  V30 54 2 53 55
M  V30 55 1 41 56
M  V30 56 1 56 57
M  V30 57 1 57 58
M  V30 58 1 58 59
M  V30 59 1 59 60
M  V30 60 1 60 61
M  V30 61 2 60 62
M  V30 62 1 29 63
M  V30 63 1 63 64
M  V30 64 1 64 65
M  V30 65 1 65 66
M  V30 66 1 66 67
M  V30 67 1 17 2
M  V30 68 1 10 6
M  V30 69 1 14 9
M  V30 70 1 1 68
M  V30 71 1 2 69 CFG=1
M  V30 72 1 3 70 CFG=1
M  V30 73 1 4 71
M  V30 74 1 5 72 CFG=3
M  V30 75 1 7 73
M  V30 76 1 12 74
M  V30 77 1 15 75
M  V30 78 1 15 76
M  V30 79 1 17 77 CFG=3
M  V30 80 1 20 78
M  V30 81 1 21 79
M  V30 82 1 21 80
M  V30 83 1 22 81
M  V30 84 1 22 82
M  V30 85 1 23 83
M  V30 86 1 23 84
M  V30 87 1 24 85
M  V30 88 1 24 86
M  V30 89 1 25 87
M  V30 90 1 25 88
M  V30 91 1 28 89
M  V30 92 1 29 90 CFG=3
M  V30 93 1 32 91
M  V30 94 1 33 92
M  V30 95 1 33 93
M  V30 96 1 34 94
M  V30 97 1 34 95
M  V30 98 1 35 96
M  V30 99 1 35 97
M  V30 100 1 36 98
M  V30 101 1 36 99
M  V30 102 1 37 100
M  V30 103 1 37 101
M  V30 104 1 40 102
M  V30 105 1 41 103 CFG=1
M  V30 106 1 44 104
M  V30 107 1 45 105 CFG=3
M  V30 108 1 48 106
M  V30 109 1 48 107
M  V30 110 1 49 108
M  V30 111 1 49 109
M  V30 112 1 50 110
M  V30 113 1 50 111
M  V30 114 1 51 112
M  V30 115 1 51 113
M  V30 116 1 52 114
M  V30 117 1 54 115
M  V30 118 1 54 116
M  V30 119 1 55 117
M  V30 120 1 55 118
M  V30 121 1 56 119
M  V30 122 1 56 120
M  V30 123 1 57 121
M  V30 124 1 57 122
M  V30 125 1 58 123
M  V30 126 1 58 124
M  V30 127 1 59 125
M  V30 128 1 61 126
M  V30 129 1 61 127
M  V30 130 1 62 128
M  V30 131 1 62 129
M  V30 132 1 63 130
M  V30 133 1 63 131
M  V30 134 1 64 132
M  V30 135 1 64 133
M  V30 136 1 65 134
M  V30 137 1 65 135
M  V30 138 1 66 136
M  V30 139 1 66 137
M  V30 140 1 67 138
M  V30 141 1 67 139
M  V30 142 1 67 140
M  V30 END BOND
M  V30 END CTAB
M  END
>  <Dataset>  (82) 
PDB

>  <Ligand_Instance>  (82) 
3AG9_A02_B_351

>  <PDB_ID>  (82) 
3AG9

>  <Standardized_SMILES>  (82) 
[H]O[C@@]1([H])[C@@]([H])(O[H])[C@]([H])(N2C([H])=NC3=C2N=C([H])N=C3N([H])[H])O[C@]1([H])C(=O)N([H])C([H])([H])C([H])([H])C([H])([H])C([H])([H])C([H])([H])C(=O)N([H])[C@@]([H])(C(=O)N([H])C([H])([H])C([H])([H])C([H])([H])C([H])([H])C([H])([H])C(=O)N([H])[C@@]([H])(C(=O)N([H])[C@@]([H])(C(=O)N([H])[H])C([H])([H])C([H])([H])C([H])([H])N([H])C(N([H])[H])=[N+]([H])[H])C([H])([H])C([H])([H])C([H])([H])N([H])C(N([H])[H])=[N+]([H])[H])C([H])([H])C([H])([H])C([H])([H])C([H])([H])[N+]([H])([H])[H]

>  <Name>  (82) 
(10R,20R,23R)-10-(4-aminobutyl)-1-[(2S,3S,4R,5R)-5-(6-amino-9H-purin-9-yl)-3,4-dihydroxytetrahydrofuran-2-yl]-20,23-bis(3-carbamimidamidopropyl)-1,8,11,18,21-pentaoxo-2,9,12,19,22-pentaazatetracosan-24-amide

>  <Pocket>  (82) 
A

>  <ATP_Site>  (82) 
1.0

>  <Peripheral>  (82) 
0.0

>  <Num_H_Atoms_ProtBoundConf>  (82) 
73.0

>  <Num_Resolved_Atoms>  (82) 
67.0

>  <Num_Not_Resolved_Atoms>  (82) 
0.0

>  <2D_Mol_H>  (82) 
<rdkit.Chem.rdchem.Mol object at 0x72a238dc6f10>

>  <MW>  (82) 
950.141

>  <HBA>  (82) 
14

>  <HBD>  (82) 
16

>  <LogP>  (82) 
-8.38

>  <NRB>  (82) 
36

>  <TPSA>  (82) 
462.82

>  <Num_Heavy_Atoms>  (82) 
67

>  <Ro5>  (82) 
[False, False, False, True, False, False]

>  <Ro5_Fulfilled>  (82) 
False

>  <Ro3>  (82) 
[False, False, False, True]

>  <Ro3_Fulfilled>  (82) 
False

>  <Fsp3>  (82) 
0.675

>  <Fsp3_0.42>  (82) 
True

>  <Fsp3_0.45>  (82) 
True

>  <Stereogenic_Carbons>  (82) 
7

>  <C_Atoms>  (82) 
40

>  <FCStereo>  (82) 
0.175

>  <SPS>  (82) 
1203

>  <nSPS>  (82) 
17.955224

>  <PBF>  (82) 
2.134889

>  <PBF_0.6>  (82) 
True

>  <nPBF>  (82) 
0.031864

>  <nPBF_0.016>  (82) 
True

>  <PMI1>  (82) 
13325.568409

>  <PMI2>  (82) 
29420.949179

>  <PMI3>  (82) 
32207.020416

>  <NPR1>  (82) 
0.413747

>  <NPR2>  (82) 
0.913495

>  <Sum_NPR>  (82) 
1.327242

>  <Sum_NPR_1.07>  (82) 
True

>  <Sum_NPR_1.2>  (82) 
True

>  <MaxAbsEStateIndex>  (82) 
13.203161

>  <MaxEStateIndex>  (82) 
13.203161

>  <MinAbsEStateIndex>  (82) 
0.01531

>  <MinEStateIndex>  (82) 
-1.514889

>  <qed>  (82) 
0.018395

>  <MolWt>  (82) 
950.141

>  <HeavyAtomMolWt>  (82) 
876.557

>  <ExactMolWt>  (82) 
949.579145

>  <NumValenceElectrons>  (82) 
374

>  <NumRadicalElectrons>  (82) 
0

>  <MaxPartialCharge>  (82) 
0.338266

>  <MinPartialCharge>  (82) 
-0.386941

>  <MaxAbsPartialCharge>  (82) 
0.386941

>  <MinAbsPartialCharge>  (82) 
0.338266

>  <FpDensityMorgan1>  (82) 
0.671642

>  <FpDensityMorgan2>  (82) 
1.223881

>  <FpDensityMorgan3>  (82) 
1.80597

>  <BCUT2D_MWHI>  (82) 
16.559959

>  <BCUT2D_MWLOW>  (82) 
10.066156

>  <BCUT2D_CHGHI>  (82) 
2.474006

>  <BCUT2D_CHGLO>  (82) 
-2.217346

>  <BCUT2D_LOGPHI>  (82) 
2.317369

>  <BCUT2D_LOGPLOW>  (82) 
-2.553642

>  <BCUT2D_MRHI>  (82) 
5.914853

>  <BCUT2D_MRLOW>  (82) 
-0.368045

>  <AvgIpc>  (82) 
3.843155

>  <BalabanJ>  (82) 
1.35956

>  <BertzCT>  (82) 
1953.329079

>  <Chi0>  (82) 
49.304179

>  <Chi0n>  (82) 
38.050516

>  <Chi0v>  (82) 
38.050516

>  <Chi1>  (82) 
32.029891

>  <Chi1n>  (82) 
22.746811

>  <Chi1v>  (82) 
22.746811

>  <Chi2n>  (82) 
16.316541

>  <Chi2v>  (82) 
16.316541

>  <Chi3n>  (82) 
10.871178

>  <Chi3v>  (82) 
10.871178

>  <Chi4n>  (82) 
7.215424

>  <Chi4v>  (82) 
7.215424

>  <HallKierAlpha>  (82) 
-6.45

>  <Ipc>  (82) 
149950214833228.0625

>  <Kappa1>  (82) 
54.881131

>  <Kappa2>  (82) 
29.244396

>  <Kappa3>  (82) 
19.12549

>  <LabuteASA>  (82) 
387.548622

>  <PEOE_VSA1>  (82) 
58.734863

>  <PEOE_VSA10>  (82) 
42.177476

>  <PEOE_VSA11>  (82) 
23.796908

>  <PEOE_VSA12>  (82) 
29.535899

>  <PEOE_VSA13>  (82) 
5.90718

>  <PEOE_VSA14>  (82) 
11.919109

>  <PEOE_VSA2>  (82) 
66.253802

>  <PEOE_VSA3>  (82) 
14.951936

>  <PEOE_VSA4>  (82) 
0.0

>  <PEOE_VSA5>  (82) 
0.0

>  <PEOE_VSA6>  (82) 
12.841643

>  <PEOE_VSA7>  (82) 
70.629038

>  <PEOE_VSA8>  (82) 
25.931156

>  <PEOE_VSA9>  (82) 
25.961589

>  <SMR_VSA1>  (82) 
60.269376

>  <SMR_VSA10>  (82) 
64.343928

>  <SMR_VSA2>  (82) 
0.0

>  <SMR_VSA3>  (82) 
56.736555

>  <SMR_VSA4>  (82) 
17.201002

>  <SMR_VSA5>  (82) 
138.977647

>  <SMR_VSA6>  (82) 
38.45745

>  <SMR_VSA7>  (82) 
12.65464

>  <SMR_VSA8>  (82) 
0.0

>  <SMR_VSA9>  (82) 
0.0

>  <SlogP_VSA1>  (82) 
76.704425

>  <SlogP_VSA10>  (82) 
5.817863

>  <SlogP_VSA11>  (82) 
0.0

>  <SlogP_VSA12>  (82) 
0.0

>  <SlogP_VSA2>  (82) 
146.255481

>  <SlogP_VSA3>  (82) 
33.504086

>  <SlogP_VSA4>  (82) 
0.0

>  <SlogP_VSA5>  (82) 
102.540226

>  <SlogP_VSA6>  (82) 
12.65464

>  <SlogP_VSA7>  (82) 
0.0

>  <SlogP_VSA8>  (82) 
11.163878

>  <SlogP_VSA9>  (82) 
0.0

>  <EState_VSA1>  (82) 
60.386862

>  <EState_VSA10>  (82) 
38.980278

>  <EState_VSA11>  (82) 
0.0

>  <EState_VSA2>  (82) 
78.850432

>  <EState_VSA3>  (82) 
90.387242

>  <EState_VSA4>  (82) 
6.420822

>  <EState_VSA5>  (82) 
17.22174

>  <EState_VSA6>  (82) 
0.0

>  <EState_VSA7>  (82) 
0.0

>  <EState_VSA8>  (82) 
57.903123

>  <EState_VSA9>  (82) 
38.4901

>  <VSA_EState1>  (82) 
7.10392

>  <VSA_EState10>  (82) 
0.0

>  <VSA_EState2>  (82) 
89.227329

>  <VSA_EState3>  (82) 
51.376313

>  <VSA_EState4>  (82) 
26.617477

>  <VSA_EState5>  (82) 
-2.716961

>  <VSA_EState6>  (82) 
-2.682673

>  <VSA_EState7>  (82) 
3.791163

>  <VSA_EState8>  (82) 
1.950098

>  <VSA_EState9>  (82) 
0.0

>  <FractionCSP3>  (82) 
0.675

>  <HeavyAtomCount>  (82) 
67

>  <NHOHCount>  (82) 
24

>  <NOCount>  (82) 
27

>  <NumAliphaticCarbocycles>  (82) 
0

>  <NumAliphaticHeterocycles>  (82) 
1

>  <NumAliphaticRings>  (82) 
1

>  <NumAromaticCarbocycles>  (82) 
0

>  <NumAromaticHeterocycles>  (82) 
2

>  <NAR>  (82) 
2

>  <NumHAcceptors>  (82) 
14

>  <NumHDonors>  (82) 
16

>  <NumHeteroatoms>  (82) 
27

>  <NumRotatableBonds>  (82) 
32

>  <NumSaturatedCarbocycles>  (82) 
0

>  <NumSaturatedHeterocycles>  (82) 
1

>  <NumSaturatedRings>  (82) 
1

>  <RingCount>  (82) 
3

>  <MolLogP>  (82) 
-8.38

>  <MolMR>  (82) 
241.92

>  <fr_Al_COO>  (82) 
0

>  <fr_Al_OH>  (82) 
2

>  <fr_Al_OH_noTert>  (82) 
2

>  <fr_ArN>  (82) 
1

>  <fr_Ar_COO>  (82) 
0

>  <fr_Ar_N>  (82) 
4

>  <fr_Ar_NH>  (82) 
0

>  <fr_Ar_OH>  (82) 
0

>  <fr_COO>  (82) 
0

>  <fr_COO2>  (82) 
0

>  <fr_C_O>  (82) 
6

>  <fr_C_O_noCOO>  (82) 
6

>  <fr_C_S>  (82) 
0

>  <fr_HOCCN>  (82) 
0

>  <fr_Imine>  (82) 
0

>  <fr_NH0>  (82) 
4

>  <fr_NH1>  (82) 
7

>  <fr_NH2>  (82) 
6

>  <fr_N_O>  (82) 
0

>  <fr_Ndealkylation1>  (82) 
0

>  <fr_Ndealkylation2>  (82) 
0

>  <fr_Nhpyrrole>  (82) 
0

>  <fr_SH>  (82) 
0

>  <fr_aldehyde>  (82) 
0

>  <fr_alkyl_carbamate>  (82) 
0

>  <fr_alkyl_halide>  (82) 
0

>  <fr_allylic_oxid>  (82) 
0

>  <fr_amide>  (82) 
6

>  <fr_amidine>  (82) 
0

>  <fr_aniline>  (82) 
1

>  <fr_aryl_methyl>  (82) 
0

>  <fr_azide>  (82) 
0

>  <fr_azo>  (82) 
0

>  <fr_barbitur>  (82) 
0

>  <fr_benzene>  (82) 
0

>  <fr_benzodiazepine>  (82) 
0

>  <fr_bicyclic>  (82) 
1

>  <fr_diazo>  (82) 
0

>  <fr_dihydropyridine>  (82) 
0

>  <fr_epoxide>  (82) 
0

>  <fr_ester>  (82) 
0

>  <fr_ether>  (82) 
1

>  <fr_furan>  (82) 
0

>  <fr_guanido>  (82) 
2

>  <fr_halogen>  (82) 
0

>  <fr_hdrzine>  (82) 
0

>  <fr_hdrzone>  (82) 
0

>  <fr_imidazole>  (82) 
1

>  <fr_imide>  (82) 
0

>  <fr_isocyan>  (82) 
0

>  <fr_isothiocyan>  (82) 
0

>  <fr_ketone>  (82) 
0

>  <fr_ketone_Topliss>  (82) 
0

>  <fr_lactam>  (82) 
0

>  <fr_lactone>  (82) 
0

>  <fr_methoxy>  (82) 
0

>  <fr_morpholine>  (82) 
0

>  <fr_nitrile>  (82) 
0

>  <fr_nitro>  (82) 
0

>  <fr_nitro_arom>  (82) 
0

>  <fr_nitro_arom_nonortho>  (82) 
0

>  <fr_nitroso>  (82) 
0

>  <fr_oxazole>  (82) 
0

>  <fr_oxime>  (82) 
0

>  <fr_para_hydroxylation>  (82) 
0

>  <fr_phenol>  (82) 
0

>  <fr_phenol_noOrthoHbond>  (82) 
0

>  <fr_phos_acid>  (82) 
0

>  <fr_phos_ester>  (82) 
0

>  <fr_piperdine>  (82) 
0

>  <fr_piperzine>  (82) 
0

>  <fr_priamide>  (82) 
1

>  <fr_prisulfonamd>  (82) 
0

>  <fr_pyridine>  (82) 
0

>  <fr_quatN>  (82) 
1

>  <fr_sulfide>  (82) 
0

>  <fr_sulfonamd>  (82) 
0

>  <fr_sulfone>  (82) 
0

>  <fr_term_acetylene>  (82) 
0

>  <fr_tetrazole>  (82) 
0

>  <fr_thiazole>  (82) 
0

>  <fr_thiocyan>  (82) 
0

>  <fr_thiophene>  (82) 
0

>  <fr_unbrch_alkane>  (82) 
5

>  <fr_urea>  (82) 
0

>  <NP-Likeness>  (82) 
0.190946

$$$$
A03
     RDKit          3D

  0  0  0  0  0  0  0  0  0  0999 V3000
M  V30 BEGIN CTAB
M  V30 COUNTS 128 130 0 0 0
M  V30 BEGIN ATOM
M  V30 1 O 8.891589 -2.761050 3.427921 0
M  V30 2 C 7.832588 -2.857632 2.519934 0 CFG=1
M  V30 3 C 6.733662 -1.929910 2.987440 0 CFG=1
M  V30 4 O 6.800075 -1.838083 4.369585 0
M  V30 5 C 7.152660 -0.618139 2.399525 0 CFG=2
M  V30 6 N 5.997710 0.152160 2.003546 0
M  V30 7 C 4.742557 -0.151787 2.351857 0
M  V30 8 N 3.872690 0.746249 1.820938 0
M  V30 9 C 4.572253 1.641471 1.121990 0
M  V30 10 C 5.900902 1.254623 1.247606 0
M  V30 11 N 6.795919 2.010020 0.630546 0
M  V30 12 C 6.437901 3.092361 -0.080285 0
M  V30 13 N 5.146105 3.452110 -0.193029 0
M  V30 14 C 4.155736 2.741078 0.403506 0
M  V30 15 N 2.757869 3.064548 0.307984 0
M  V30 16 O 7.981030 -0.854545 1.314652 0
M  V30 17 C 8.185584 -2.218048 1.199178 0 CFG=2
M  V30 18 C 7.451173 -2.827473 0.045570 0
M  V30 19 O 7.374996 -4.025219 -0.313348 0
M  V30 20 N 6.713045 -1.924264 -0.801436 0
M  V30 21 C 5.911830 -2.213268 -1.978632 0
M  V30 22 C 4.754084 -3.140617 -1.641171 0
M  V30 23 C 3.870994 -2.542554 -0.602403 0
M  V30 24 C 3.268137 -1.225301 -0.874689 0
M  V30 25 C 2.320023 -0.994569 -1.968328 0
M  V30 26 C 2.695298 -1.227463 -3.352063 0
M  V30 27 O 3.471369 -1.696714 -4.238712 0
M  V30 28 N 1.694777 -0.631310 -4.230489 0
M  V30 29 C 1.530018 -0.564321 -5.656307 0 CFG=1
M  V30 30 C 0.434604 0.324139 -6.046793 0
M  V30 31 O -0.242070 0.335280 -7.081668 0
M  V30 32 N -0.016229 1.393999 -5.186914 0
M  V30 33 C -1.114471 2.310811 -5.510287 0
M  V30 34 C -1.234166 3.329617 -4.389927 0
M  V30 35 C -2.334331 4.299299 -4.525717 0
M  V30 36 C -3.728351 3.844555 -4.568157 0
M  V30 37 C -4.299291 3.123177 -3.397293 0
M  V30 38 C -3.634620 1.839443 -3.132610 0
M  V30 39 O -2.830137 0.898209 -3.233276 0
M  V30 40 N -4.394340 1.250334 -2.028166 0
M  V30 41 C -4.210060 -0.057139 -1.299501 0 CFG=1
M  V30 42 C -4.125025 0.114317 0.100147 0
M  V30 43 O -3.355288 -0.701918 0.702543 0
M  V30 44 N -4.599475 0.903727 1.156970 0
M  V30 45 C -4.922183 1.552448 2.341077 0 CFG=1
M  V30 46 C -6.019698 2.497664 2.252082 0
M  V30 47 O -6.817913 2.899191 1.345172 0
M  V30 48 N -6.196379 3.085012 3.506123 0
M  V30 49 C -5.046371 0.725829 3.621210 0
M  V30 50 C -3.728302 0.124598 4.016869 0
M  V30 51 C -3.771396 -0.662004 5.310454 0
M  V30 52 N -4.608082 -1.808392 5.319976 0
M  V30 53 C -4.535903 -2.964873 4.517722 0
M  V30 54 N -5.363983 -4.109428 4.572908 0
M  V30 55 N -3.573039 -3.017727 3.623461 0 CHG=1 VAL=4
M  V30 56 C -5.151495 -1.001574 -1.960058 0
M  V30 57 C -5.252836 -2.359153 -1.406534 0
M  V30 58 C -5.929054 -2.527286 -0.088959 0
M  V30 59 N -5.954935 -3.950226 0.288117 0
M  V30 60 C -6.654239 -4.211659 1.479026 0
M  V30 61 N -6.769317 -5.559507 1.968109 0
M  V30 62 N -7.235647 -3.310271 2.203946 0 CHG=1 VAL=4
M  V30 63 C 2.809539 0.171205 -6.230489 0
M  V30 64 H 9.037985 -1.780813 3.546334 0
M  V30 65 H 7.533884 -3.899457 2.449269 0
M  V30 66 H 5.739276 -2.280629 2.730138 0
M  V30 67 H 6.226051 -2.491901 4.836333 0
M  V30 68 H 7.791271 -0.056913 3.136787 0
M  V30 69 H 4.273080 -0.929074 2.939824 0
M  V30 70 H 7.127856 3.757963 -0.610158 0
M  V30 71 H 2.672445 4.107579 0.436745 0
M  V30 72 H 2.102965 2.270047 0.137848 0
M  V30 73 H 9.260551 -2.398020 1.016090 0
M  V30 74 H 6.749589 -0.907856 -0.541540 0
M  V30 75 H 6.517943 -2.672897 -2.770164 0
M  V30 76 H 5.463845 -1.297989 -2.403211 0
M  V30 77 H 5.207895 -4.064301 -1.166256 0
M  V30 78 H 4.178142 -3.504012 -2.481706 0
M  V30 79 H 3.016023 -3.252743 -0.375785 0
M  V30 80 H 4.420833 -2.495373 0.373267 0
M  V30 81 H 4.062485 -0.407123 -0.899907 0
M  V30 82 H 2.676107 -0.953602 0.081809 0
M  V30 83 H 1.329785 -1.528874 -1.728008 0
M  V30 84 H 1.976528 0.097200 -1.856225 0
M  V30 85 H 0.858623 -0.147813 -3.761430 0
M  V30 86 H 1.583568 -1.507523 -6.171730 0
M  V30 87 H 0.428838 1.607763 -4.258698 0
M  V30 88 H -2.042171 1.725248 -5.637014 0
M  V30 89 H -0.911191 2.815724 -6.496947 0
M  V30 90 H -1.095305 2.830661 -3.428980 0
M  V30 91 H -0.274897 3.985497 -4.521088 0
M  V30 92 H -2.239655 5.043778 -3.671281 0
M  V30 93 H -2.163668 4.886297 -5.492087 0
M  V30 94 H -3.850907 3.222030 -5.514891 0
M  V30 95 H -4.373439 4.738844 -4.808944 0
M  V30 96 H -5.401903 2.922832 -3.576750 0
M  V30 97 H -4.281686 3.778689 -2.472032 0
M  V30 98 H -5.260425 1.624195 -1.505618 0
M  V30 99 H -3.175587 -0.393011 -1.685549 0
M  V30 100 H -5.233557 1.468556 0.475174 0
M  V30 101 H -3.977422 2.195803 2.681240 0
M  V30 102 H -5.920536 3.849093 4.159323 0
M  V30 103 H -6.761712 2.942010 4.383301 0
M  V30 104 H -5.318206 1.449813 4.415400 0
M  V30 105 H -5.862652 -0.015490 3.569281 0
M  V30 106 H -3.198348 -0.433595 3.228892 0
M  V30 107 H -2.996038 0.975552 4.243490 0
M  V30 108 H -2.718552 -0.957900 5.527386 0
M  V30 109 H -4.020166 0.034116 6.174361 0
M  V30 110 H -5.410414 -1.865637 5.997145 0
M  V30 111 H -6.309306 -4.538981 4.541661 0
M  V30 112 H -5.134171 -5.103360 4.702310 0
M  V30 113 H -2.856463 -3.163793 2.889621 0
M  V30 114 H -2.729338 -2.778401 3.067264 0
M  V30 115 H -6.168773 -0.489102 -2.000652 0
M  V30 116 H -4.818397 -1.070429 -3.038753 0
M  V30 117 H -4.239508 -2.857768 -1.333942 0
M  V30 118 H -5.790947 -3.028028 -2.140366 0
M  V30 119 H -5.579050 -1.940278 0.756006 0
M  V30 120 H -7.033863 -2.236627 -0.183552 0
M  V30 121 H -5.533828 -4.767351 -0.198175 0
M  V30 122 H -5.792792 -5.939381 2.150928 0
M  V30 123 H -7.552767 -6.213410 2.174973 0
M  V30 124 H -7.779703 -3.312828 3.083461 0
M  V30 125 H -7.205705 -2.323478 1.923694 0
M  V30 126 H 2.509903 0.366627 -7.273578 0
M  V30 127 H 2.967236 1.106744 -5.687490 0
M  V30 128 H 3.597676 -0.569214 -6.198264 0
M  V30 END ATOM
M  V30 BEGIN BOND
M  V30 1 1 1 2
M  V30 2 1 2 3
M  V30 3 1 3 4
M  V30 4 1 3 5
M  V30 5 1 5 6
M  V30 6 1 6 7
M  V30 7 2 7 8
M  V30 8 1 8 9
M  V30 9 2 9 10
M  V30 10 1 10 11
M  V30 11 2 11 12
M  V30 12 1 12 13
M  V30 13 2 13 14
M  V30 14 1 14 15
M  V30 15 1 5 16
M  V30 16 1 16 17
M  V30 17 1 17 18
M  V30 18 2 18 19
M  V30 19 1 18 20
M  V30 20 1 20 21
M  V30 21 1 21 22
M  V30 22 1 22 23
M  V30 23 1 23 24
M  V30 24 1 24 25
M  V30 25 1 25 26
M  V30 26 2 26 27
M  V30 27 1 26 28
M  V30 28 1 28 29
M  V30 29 1 29 30
M  V30 30 2 30 31
M  V30 31 1 30 32
M  V30 32 1 32 33
M  V30 33 1 33 34
M  V30 34 1 34 35
M  V30 35 1 35 36
M  V30 36 1 36 37
M  V30 37 1 37 38
M  V30 38 2 38 39
M  V30 39 1 38 40
M  V30 40 1 40 41
M  V30 41 1 41 42
M  V30 42 2 42 43
M  V30 43 1 42 44
M  V30 44 1 44 45
M  V30 45 1 45 46
M  V30 46 2 46 47
M  V30 47 1 46 48
M  V30 48 1 45 49
M  V30 49 1 49 50
M  V30 50 1 50 51
M  V30 51 1 51 52
M  V30 52 1 52 53
M  V30 53 1 53 54
M  V30 54 2 53 55
M  V30 55 1 41 56
M  V30 56 1 56 57
M  V30 57 1 57 58
M  V30 58 1 58 59
M  V30 59 1 59 60
M  V30 60 1 60 61
M  V30 61 2 60 62
M  V30 62 1 29 63
M  V30 63 1 17 2
M  V30 64 1 10 6
M  V30 65 1 14 9
M  V30 66 1 1 64
M  V30 67 1 2 65 CFG=3
M  V30 68 1 3 66 CFG=1
M  V30 69 1 4 67
M  V30 70 1 5 68 CFG=1
M  V30 71 1 7 69
M  V30 72 1 12 70
M  V30 73 1 15 71
M  V30 74 1 15 72
M  V30 75 1 17 73 CFG=3
M  V30 76 1 20 74
M  V30 77 1 21 75
M  V30 78 1 21 76
M  V30 79 1 22 77
M  V30 80 1 22 78
M  V30 81 1 23 79
M  V30 82 1 23 80
M  V30 83 1 24 81
M  V30 84 1 24 82
M  V30 85 1 25 83
M  V30 86 1 25 84
M  V30 87 1 28 85
M  V30 88 1 29 86 CFG=3
M  V30 89 1 32 87
M  V30 90 1 33 88
M  V30 91 1 33 89
M  V30 92 1 34 90
M  V30 93 1 34 91
M  V30 94 1 35 92
M  V30 95 1 35 93
M  V30 96 1 36 94
M  V30 97 1 36 95
M  V30 98 1 37 96
M  V30 99 1 37 97
M  V30 100 1 40 98
M  V30 101 1 41 99 CFG=3
M  V30 102 1 44 100
M  V30 103 1 45 101 CFG=1
M  V30 104 1 48 102
M  V30 105 1 48 103
M  V30 106 1 49 104
M  V30 107 1 49 105
M  V30 108 1 50 106
M  V30 109 1 50 107
M  V30 110 1 51 108
M  V30 111 1 51 109
M  V30 112 1 52 110
M  V30 113 1 54 111
M  V30 114 1 54 112
M  V30 115 1 55 113
M  V30 116 1 55 114
M  V30 117 1 56 115
M  V30 118 1 56 116
M  V30 119 1 57 117
M  V30 120 1 57 118
M  V30 121 1 58 119
M  V30 122 1 58 120
M  V30 123 1 59 121
M  V30 124 1 61 122
M  V30 125 1 61 123
M  V30 126 1 62 124
M  V30 127 1 62 125
M  V30 128 1 63 126
M  V30 129 1 63 127
M  V30 130 1 63 128
M  V30 END BOND
M  V30 END CTAB
M  END
>  <Dataset>  (83) 
PDB

>  <Ligand_Instance>  (83) 
3AGL_A03_A_351

>  <PDB_ID>  (83) 
3AGL

>  <Standardized_SMILES>  (83) 
[H]O[C@@]1([H])[C@@]([H])(O[H])[C@]([H])(N2C([H])=NC3=C2N=C([H])N=C3N([H])[H])O[C@]1([H])C(=O)N([H])C([H])([H])C([H])([H])C([H])([H])C([H])([H])C([H])([H])C(=O)N([H])[C@@]([H])(C(=O)N([H])C([H])([H])C([H])([H])C([H])([H])C([H])([H])C([H])([H])C(=O)N([H])[C@@]([H])(C(=O)N([H])[C@@]([H])(C(=O)N([H])[H])C([H])([H])C([H])([H])C([H])([H])N([H])C(N([H])[H])=[N+]([H])[H])C([H])([H])C([H])([H])C([H])([H])N([H])C(N([H])[H])=[N+]([H])[H])C([H])([H])[H]

>  <Name>  (83) 
(10R,20R,23R)-1-[(2S,3S,4R,5R)-5-(6-amino-9H-purin-9-yl)-3,4-dihydroxytetrahydrofuran-2-yl]-20,23-bis(3-carbamimidamido
propyl)-10-methyl-1,8,11,18,21-pentaoxo-2,9,12,19,22-pentaazatetracosan-24-amide

>  <Pocket>  (83) 
A

>  <ATP_Site>  (83) 
1.0

>  <Peripheral>  (83) 
0.0

>  <Num_H_Atoms_ProtBoundConf>  (83) 
65.0

>  <Num_Resolved_Atoms>  (83) 
63.0

>  <Num_Not_Resolved_Atoms>  (83) 
0.0

>  <2D_Mol_H>  (83) 
<rdkit.Chem.rdchem.Mol object at 0x72a238dc6ff0>

>  <MW>  (83) 
892.037

>  <HBA>  (83) 
14

>  <HBD>  (83) 
15

>  <LogP>  (83) 
-7.7723

>  <NRB>  (83) 
32

>  <TPSA>  (83) 
435.18

>  <Num_Heavy_Atoms>  (83) 
63

>  <Ro5>  (83) 
[False, False, False, True, False, False]

>  <Ro5_Fulfilled>  (83) 
False

>  <Ro3>  (83) 
[False, False, False, True]

>  <Ro3_Fulfilled>  (83) 
False

>  <Fsp3>  (83) 
0.648649

>  <Fsp3_0.42>  (83) 
True

>  <Fsp3_0.45>  (83) 
True

>  <Stereogenic_Carbons>  (83) 
7

>  <C_Atoms>  (83) 
37

>  <FCStereo>  (83) 
0.189189

>  <SPS>  (83) 
1155

>  <nSPS>  (83) 
18.333333

>  <PBF>  (83) 
1.924143

>  <PBF_0.6>  (83) 
True

>  <nPBF>  (83) 
0.030542

>  <nPBF_0.016>  (83) 
True

>  <PMI1>  (83) 
14159.796284

>  <PMI2>  (83) 
27808.128152

>  <PMI3>  (83) 
33682.79357

>  <NPR1>  (83) 
0.420387

>  <NPR2>  (83) 
0.825589

>  <Sum_NPR>  (83) 
1.245975

>  <Sum_NPR_1.07>  (83) 
True

>  <Sum_NPR_1.2>  (83) 
True

>  <MaxAbsEStateIndex>  (83) 
13.123304

>  <MaxEStateIndex>  (83) 
13.123304

>  <MinAbsEStateIndex>  (83) 
0.01521

>  <MinEStateIndex>  (83) 
-1.509839

>  <qed>  (83) 
0.021428

>  <MolWt>  (83) 
892.037

>  <HeavyAtomMolWt>  (83) 
826.517

>  <ExactMolWt>  (83) 
891.51402

>  <NumValenceElectrons>  (83) 
350

>  <NumRadicalElectrons>  (83) 
0

>  <MaxPartialCharge>  (83) 
0.338266

>  <MinPartialCharge>  (83) 
-0.386941

>  <MaxAbsPartialCharge>  (83) 
0.386941

>  <MinAbsPartialCharge>  (83) 
0.338266

>  <FpDensityMorgan1>  (83) 
0.714286

>  <FpDensityMorgan2>  (83) 
1.285714

>  <FpDensityMorgan3>  (83) 
1.888889

>  <BCUT2D_MWHI>  (83) 
16.559945

>  <BCUT2D_MWLOW>  (83) 
10.067823

>  <BCUT2D_CHGHI>  (83) 
2.473778

>  <BCUT2D_CHGLO>  (83) 
-2.217113

>  <BCUT2D_LOGPHI>  (83) 
2.317023

>  <BCUT2D_LOGPLOW>  (83) 
-2.553641

>  <BCUT2D_MRHI>  (83) 
5.914567

>  <BCUT2D_MRLOW>  (83) 
-0.137314

>  <AvgIpc>  (83) 
3.79018

>  <BalabanJ>  (83) 
1.275799

>  <BertzCT>  (83) 
1881.099024

>  <Chi0>  (83) 
46.475752

>  <Chi0n>  (83) 
35.514982

>  <Chi0v>  (83) 
35.514982

>  <Chi1>  (83) 
29.991887

>  <Chi1n>  (83) 
20.915913

>  <Chi1v>  (83) 
20.915913

>  <Chi2n>  (83) 
15.136308

>  <Chi2v>  (83) 
15.136308

>  <Chi3n>  (83) 
9.997447

>  <Chi3v>  (83) 
9.997447

>  <Chi4n>  (83) 
6.563968

>  <Chi4v>  (83) 
6.563968

>  <HallKierAlpha>  (83) 
-6.41

>  <Ipc>  (83) 
21024017513324.308594

>  <Kappa1>  (83) 
50.943179

>  <Kappa2>  (83) 
26.152057

>  <Kappa3>  (83) 
17.111964

>  <LabuteASA>  (83) 
363.113905

>  <PEOE_VSA1>  (83) 
53.001196

>  <PEOE_VSA10>  (83) 
42.177476

>  <PEOE_VSA11>  (83) 
23.796908

>  <PEOE_VSA12>  (83) 
29.535899

>  <PEOE_VSA13>  (83) 
5.90718

>  <PEOE_VSA14>  (83) 
11.919109

>  <PEOE_VSA2>  (83) 
66.253802

>  <PEOE_VSA3>  (83) 
14.951936

>  <PEOE_VSA4>  (83) 
0.0

>  <PEOE_VSA5>  (83) 
0.0

>  <PEOE_VSA6>  (83) 
12.841643

>  <PEOE_VSA7>  (83) 
58.29031

>  <PEOE_VSA8>  (83) 
25.931156

>  <PEOE_VSA9>  (83) 
19.416833

>  <SMR_VSA1>  (83) 
54.535708

>  <SMR_VSA10>  (83) 
64.343928

>  <SMR_VSA2>  (83) 
0.0

>  <SMR_VSA3>  (83) 
56.736555

>  <SMR_VSA4>  (83) 
17.201002

>  <SMR_VSA5>  (83) 
126.638919

>  <SMR_VSA6>  (83) 
31.912693

>  <SMR_VSA7>  (83) 
12.65464

>  <SMR_VSA8>  (83) 
0.0

>  <SMR_VSA9>  (83) 
0.0

>  <SlogP_VSA1>  (83) 
70.970757

>  <SlogP_VSA10>  (83) 
5.817863

>  <SlogP_VSA11>  (83) 
0.0

>  <SlogP_VSA12>  (83) 
0.0

>  <SlogP_VSA2>  (83) 
139.710725

>  <SlogP_VSA3>  (83) 
33.504086

>  <SlogP_VSA4>  (83) 
0.0

>  <SlogP_VSA5>  (83) 
90.201498

>  <SlogP_VSA6>  (83) 
12.65464

>  <SlogP_VSA7>  (83) 
0.0

>  <SlogP_VSA8>  (83) 
11.163878

>  <SlogP_VSA9>  (83) 
0.0

>  <EState_VSA1>  (83) 
60.386862

>  <EState_VSA10>  (83) 
38.980278

>  <EState_VSA11>  (83) 
0.0

>  <EState_VSA2>  (83) 
78.850432

>  <EState_VSA3>  (83) 
71.000842

>  <EState_VSA4>  (83) 
0.0

>  <EState_VSA5>  (83) 
17.22174

>  <EState_VSA6>  (83) 
6.923737

>  <EState_VSA7>  (83) 
0.0

>  <EState_VSA8>  (83) 
52.169456

>  <EState_VSA9>  (83) 
38.4901

>  <VSA_EState1>  (83) 
7.067647

>  <VSA_EState10>  (83) 
0.0

>  <VSA_EState2>  (83) 
87.826573

>  <VSA_EState3>  (83) 
50.853551

>  <VSA_EState4>  (83) 
22.682948

>  <VSA_EState5>  (83) 
-2.795928

>  <VSA_EState6>  (83) 
-2.716023

>  <VSA_EState7>  (83) 
1.913606

>  <VSA_EState8>  (83) 
2.834291

>  <VSA_EState9>  (83) 
0.0

>  <FractionCSP3>  (83) 
0.648649

>  <HeavyAtomCount>  (83) 
63

>  <NHOHCount>  (83) 
21

>  <NOCount>  (83) 
26

>  <NumAliphaticCarbocycles>  (83) 
0

>  <NumAliphaticHeterocycles>  (83) 
1

>  <NumAliphaticRings>  (83) 
1

>  <NumAromaticCarbocycles>  (83) 
0

>  <NumAromaticHeterocycles>  (83) 
2

>  <NAR>  (83) 
2

>  <NumHAcceptors>  (83) 
14

>  <NumHDonors>  (83) 
15

>  <NumHeteroatoms>  (83) 
26

>  <NumRotatableBonds>  (83) 
28

>  <NumSaturatedCarbocycles>  (83) 
0

>  <NumSaturatedHeterocycles>  (83) 
1

>  <NumSaturatedRings>  (83) 
1

>  <RingCount>  (83) 
3

>  <MolLogP>  (83) 
-7.7723

>  <MolMR>  (83) 
225.9879

>  <fr_Al_COO>  (83) 
0

>  <fr_Al_OH>  (83) 
2

>  <fr_Al_OH_noTert>  (83) 
2

>  <fr_ArN>  (83) 
1

>  <fr_Ar_COO>  (83) 
0

>  <fr_Ar_N>  (83) 
4

>  <fr_Ar_NH>  (83) 
0

>  <fr_Ar_OH>  (83) 
0

>  <fr_COO>  (83) 
0

>  <fr_COO2>  (83) 
0

>  <fr_C_O>  (83) 
6

>  <fr_C_O_noCOO>  (83) 
6

>  <fr_C_S>  (83) 
0

>  <fr_HOCCN>  (83) 
0

>  <fr_Imine>  (83) 
0

>  <fr_NH0>  (83) 
4

>  <fr_NH1>  (83) 
7

>  <fr_NH2>  (83) 
6

>  <fr_N_O>  (83) 
0

>  <fr_Ndealkylation1>  (83) 
0

>  <fr_Ndealkylation2>  (83) 
0

>  <fr_Nhpyrrole>  (83) 
0

>  <fr_SH>  (83) 
0

>  <fr_aldehyde>  (83) 
0

>  <fr_alkyl_carbamate>  (83) 
0

>  <fr_alkyl_halide>  (83) 
0

>  <fr_allylic_oxid>  (83) 
0

>  <fr_amide>  (83) 
6

>  <fr_amidine>  (83) 
0

>  <fr_aniline>  (83) 
1

>  <fr_aryl_methyl>  (83) 
0

>  <fr_azide>  (83) 
0

>  <fr_azo>  (83) 
0

>  <fr_barbitur>  (83) 
0

>  <fr_benzene>  (83) 
0

>  <fr_benzodiazepine>  (83) 
0

>  <fr_bicyclic>  (83) 
1

>  <fr_diazo>  (83) 
0

>  <fr_dihydropyridine>  (83) 
0

>  <fr_epoxide>  (83) 
0

>  <fr_ester>  (83) 
0

>  <fr_ether>  (83) 
1

>  <fr_furan>  (83) 
0

>  <fr_guanido>  (83) 
2

>  <fr_halogen>  (83) 
0

>  <fr_hdrzine>  (83) 
0

>  <fr_hdrzone>  (83) 
0

>  <fr_imidazole>  (83) 
1

>  <fr_imide>  (83) 
0

>  <fr_isocyan>  (83) 
0

>  <fr_isothiocyan>  (83) 
0

>  <fr_ketone>  (83) 
0

>  <fr_ketone_Topliss>  (83) 
0

>  <fr_lactam>  (83) 
0

>  <fr_lactone>  (83) 
0

>  <fr_methoxy>  (83) 
0

>  <fr_morpholine>  (83) 
0

>  <fr_nitrile>  (83) 
0

>  <fr_nitro>  (83) 
0

>  <fr_nitro_arom>  (83) 
0

>  <fr_nitro_arom_nonortho>  (83) 
0

>  <fr_nitroso>  (83) 
0

>  <fr_oxazole>  (83) 
0

>  <fr_oxime>  (83) 
0

>  <fr_para_hydroxylation>  (83) 
0

>  <fr_phenol>  (83) 
0

>  <fr_phenol_noOrthoHbond>  (83) 
0

>  <fr_phos_acid>  (83) 
0

>  <fr_phos_ester>  (83) 
0

>  <fr_piperdine>  (83) 
0

>  <fr_piperzine>  (83) 
0

>  <fr_priamide>  (83) 
1

>  <fr_prisulfonamd>  (83) 
0

>  <fr_pyridine>  (83) 
0

>  <fr_quatN>  (83) 
0

>  <fr_sulfide>  (83) 
0

>  <fr_sulfonamd>  (83) 
0

>  <fr_sulfone>  (83) 
0

>  <fr_term_acetylene>  (83) 
0

>  <fr_tetrazole>  (83) 
0

>  <fr_thiazole>  (83) 
0

>  <fr_thiocyan>  (83) 
0

>  <fr_thiophene>  (83) 
0

>  <fr_unbrch_alkane>  (83) 
4

>  <fr_urea>  (83) 
0

>  <NP-Likeness>  (83) 
0.116726

$$$$
A03
     RDKit          3D

  0  0  0  0  0  0  0  0  0  0999 V3000
M  V30 BEGIN CTAB
M  V30 COUNTS 128 130 0 0 0
M  V30 BEGIN ATOM
M  V30 1 O 8.891589 -2.761050 3.427921 0
M  V30 2 C 7.832588 -2.857632 2.519934 0 CFG=1
M  V30 3 C 6.733662 -1.929910 2.987440 0 CFG=1
M  V30 4 O 6.800075 -1.838083 4.369585 0
M  V30 5 C 7.152660 -0.618139 2.399525 0 CFG=2
M  V30 6 N 5.997710 0.152160 2.003546 0
M  V30 7 C 4.742557 -0.151787 2.351857 0
M  V30 8 N 3.872690 0.746249 1.820938 0
M  V30 9 C 4.572253 1.641471 1.121990 0
M  V30 10 C 5.900902 1.254623 1.247606 0
M  V30 11 N 6.795919 2.010020 0.630546 0
M  V30 12 C 6.437901 3.092361 -0.080285 0
M  V30 13 N 5.146105 3.452110 -0.193029 0
M  V30 14 C 4.155736 2.741078 0.403506 0
M  V30 15 N 2.757869 3.064548 0.307984 0
M  V30 16 O 7.981030 -0.854545 1.314652 0
M  V30 17 C 8.185584 -2.218048 1.199178 0 CFG=2
M  V30 18 C 7.451173 -2.827473 0.045570 0
M  V30 19 O 7.374996 -4.025219 -0.313348 0
M  V30 20 N 6.713045 -1.924264 -0.801436 0
M  V30 21 C 5.911830 -2.213268 -1.978632 0
M  V30 22 C 4.754084 -3.140617 -1.641171 0
M  V30 23 C 3.870994 -2.542554 -0.602403 0
M  V30 24 C 3.268137 -1.225301 -0.874689 0
M  V30 25 C 2.320023 -0.994569 -1.968328 0
M  V30 26 C 2.695298 -1.227463 -3.352063 0
M  V30 27 O 3.471369 -1.696714 -4.238712 0
M  V30 28 N 1.694777 -0.631310 -4.230489 0
M  V30 29 C 1.530018 -0.564321 -5.656307 0 CFG=1
M  V30 30 C 0.434604 0.324139 -6.046793 0
M  V30 31 O -0.242070 0.335280 -7.081668 0
M  V30 32 N -0.016229 1.393999 -5.186914 0
M  V30 33 C -1.114471 2.310811 -5.510287 0
M  V30 34 C -1.234166 3.329617 -4.389927 0
M  V30 35 C -2.334331 4.299299 -4.525717 0
M  V30 36 C -3.728351 3.844555 -4.568157 0
M  V30 37 C -4.299291 3.123177 -3.397293 0
M  V30 38 C -3.634620 1.839443 -3.132610 0
M  V30 39 O -2.830137 0.898209 -3.233276 0
M  V30 40 N -4.394340 1.250334 -2.028166 0
M  V30 41 C -4.210060 -0.057139 -1.299501 0 CFG=1
M  V30 42 C -4.125025 0.114317 0.100147 0
M  V30 43 O -3.355288 -0.701918 0.702543 0
M  V30 44 N -4.599475 0.903727 1.156970 0
M  V30 45 C -4.922183 1.552448 2.341077 0 CFG=1
M  V30 46 C -6.019698 2.497664 2.252082 0
M  V30 47 O -6.817913 2.899191 1.345172 0
M  V30 48 N -6.196379 3.085012 3.506123 0
M  V30 49 C -5.046371 0.725829 3.621210 0
M  V30 50 C -3.728302 0.124598 4.016869 0
M  V30 51 C -3.771396 -0.662004 5.310454 0
M  V30 52 N -4.608082 -1.808392 5.319976 0
M  V30 53 C -4.535903 -2.964873 4.517722 0
M  V30 54 N -5.363983 -4.109428 4.572908 0
M  V30 55 N -3.573039 -3.017727 3.623461 0 CHG=1 VAL=4
M  V30 56 C -5.151495 -1.001574 -1.960058 0
M  V30 57 C -5.252836 -2.359153 -1.406534 0
M  V30 58 C -5.929054 -2.527286 -0.088959 0
M  V30 59 N -5.954935 -3.950226 0.288117 0
M  V30 60 C -6.654239 -4.211659 1.479026 0
M  V30 61 N -6.769317 -5.559507 1.968109 0
M  V30 62 N -7.235647 -3.310271 2.203946 0 CHG=1 VAL=4
M  V30 63 C 2.809539 0.171205 -6.230489 0
M  V30 64 H 9.037985 -1.780813 3.546334 0
M  V30 65 H 7.533884 -3.899457 2.449269 0
M  V30 66 H 5.739276 -2.280629 2.730138 0
M  V30 67 H 6.226051 -2.491901 4.836333 0
M  V30 68 H 7.791271 -0.056913 3.136787 0
M  V30 69 H 4.273080 -0.929074 2.939824 0
M  V30 70 H 7.127856 3.757963 -0.610158 0
M  V30 71 H 2.672445 4.107579 0.436745 0
M  V30 72 H 2.102965 2.270047 0.137848 0
M  V30 73 H 9.260551 -2.398020 1.016090 0
M  V30 74 H 6.749589 -0.907856 -0.541540 0
M  V30 75 H 6.517943 -2.672897 -2.770164 0
M  V30 76 H 5.463845 -1.297989 -2.403211 0
M  V30 77 H 5.207895 -4.064301 -1.166256 0
M  V30 78 H 4.178142 -3.504012 -2.481706 0
M  V30 79 H 3.016023 -3.252743 -0.375785 0
M  V30 80 H 4.420833 -2.495373 0.373267 0
M  V30 81 H 4.062485 -0.407123 -0.899907 0
M  V30 82 H 2.676107 -0.953602 0.081809 0
M  V30 83 H 1.329785 -1.528874 -1.728008 0
M  V30 84 H 1.976528 0.097200 -1.856225 0
M  V30 85 H 0.858623 -0.147813 -3.761430 0
M  V30 86 H 1.583568 -1.507523 -6.171730 0
M  V30 87 H 0.428838 1.607763 -4.258698 0
M  V30 88 H -2.042171 1.725248 -5.637014 0
M  V30 89 H -0.911191 2.815724 -6.496947 0
M  V30 90 H -1.095305 2.830661 -3.428980 0
M  V30 91 H -0.274897 3.985497 -4.521088 0
M  V30 92 H -2.239655 5.043778 -3.671281 0
M  V30 93 H -2.163668 4.886297 -5.492087 0
M  V30 94 H -3.850907 3.222030 -5.514891 0
M  V30 95 H -4.373439 4.738844 -4.808944 0
M  V30 96 H -5.401903 2.922832 -3.576750 0
M  V30 97 H -4.281686 3.778689 -2.472032 0
M  V30 98 H -5.260425 1.624195 -1.505618 0
M  V30 99 H -3.175587 -0.393011 -1.685549 0
M  V30 100 H -5.233557 1.468556 0.475174 0
M  V30 101 H -3.977422 2.195803 2.681240 0
M  V30 102 H -5.920536 3.849093 4.159323 0
M  V30 103 H -6.761712 2.942010 4.383301 0
M  V30 104 H -5.318206 1.449813 4.415400 0
M  V30 105 H -5.862652 -0.015490 3.569281 0
M  V30 106 H -3.198348 -0.433595 3.228892 0
M  V30 107 H -2.996038 0.975552 4.243490 0
M  V30 108 H -2.718552 -0.957900 5.527386 0
M  V30 109 H -4.020166 0.034116 6.174361 0
M  V30 110 H -5.410414 -1.865637 5.997145 0
M  V30 111 H -6.309306 -4.538981 4.541661 0
M  V30 112 H -5.134171 -5.103360 4.702310 0
M  V30 113 H -2.856463 -3.163793 2.889621 0
M  V30 114 H -2.729338 -2.778401 3.067264 0
M  V30 115 H -6.168773 -0.489102 -2.000652 0
M  V30 116 H -4.818397 -1.070429 -3.038753 0
M  V30 117 H -4.239508 -2.857768 -1.333942 0
M  V30 118 H -5.790947 -3.028028 -2.140366 0
M  V30 119 H -5.579050 -1.940278 0.756006 0
M  V30 120 H -7.033863 -2.236627 -0.183552 0
M  V30 121 H -5.533828 -4.767351 -0.198175 0
M  V30 122 H -5.792792 -5.939381 2.150928 0
M  V30 123 H -7.552767 -6.213410 2.174973 0
M  V30 124 H -7.779703 -3.312828 3.083461 0
M  V30 125 H -7.205705 -2.323478 1.923694 0
M  V30 126 H 2.509903 0.366627 -7.273578 0
M  V30 127 H 2.967236 1.106744 -5.687490 0
M  V30 128 H 3.597676 -0.569214 -6.198264 0
M  V30 END ATOM
M  V30 BEGIN BOND
M  V30 1 1 1 2
M  V30 2 1 2 3
M  V30 3 1 3 4
M  V30 4 1 3 5
M  V30 5 1 5 6
M  V30 6 1 6 7
M  V30 7 2 7 8
M  V30 8 1 8 9
M  V30 9 2 9 10
M  V30 10 1 10 11
M  V30 11 2 11 12
M  V30 12 1 12 13
M  V30 13 2 13 14
M  V30 14 1 14 15
M  V30 15 1 5 16
M  V30 16 1 16 17
M  V30 17 1 17 18
M  V30 18 2 18 19
M  V30 19 1 18 20
M  V30 20 1 20 21
M  V30 21 1 21 22
M  V30 22 1 22 23
M  V30 23 1 23 24
M  V30 24 1 24 25
M  V30 25 1 25 26
M  V30 26 2 26 27
M  V30 27 1 26 28
M  V30 28 1 28 29
M  V30 29 1 29 30
M  V30 30 2 30 31
M  V30 31 1 30 32
M  V30 32 1 32 33
M  V30 33 1 33 34
M  V30 34 1 34 35
M  V30 35 1 35 36
M  V30 36 1 36 37
M  V30 37 1 37 38
M  V30 38 2 38 39
M  V30 39 1 38 40
M  V30 40 1 40 41
M  V30 41 1 41 42
M  V30 42 2 42 43
M  V30 43 1 42 44
M  V30 44 1 44 45
M  V30 45 1 45 46
M  V30 46 2 46 47
M  V30 47 1 46 48
M  V30 48 1 45 49
M  V30 49 1 49 50
M  V30 50 1 50 51
M  V30 51 1 51 52
M  V30 52 1 52 53
M  V30 53 1 53 54
M  V30 54 2 53 55
M  V30 55 1 41 56
M  V30 56 1 56 57
M  V30 57 1 57 58
M  V30 58 1 58 59
M  V30 59 1 59 60
M  V30 60 1 60 61
M  V30 61 2 60 62
M  V30 62 1 29 63
M  V30 63 1 17 2
M  V30 64 1 10 6
M  V30 65 1 14 9
M  V30 66 1 1 64
M  V30 67 1 2 65 CFG=3
M  V30 68 1 3 66 CFG=1
M  V30 69 1 4 67
M  V30 70 1 5 68 CFG=1
M  V30 71 1 7 69
M  V30 72 1 12 70
M  V30 73 1 15 71
M  V30 74 1 15 72
M  V30 75 1 17 73 CFG=3
M  V30 76 1 20 74
M  V30 77 1 21 75
M  V30 78 1 21 76
M  V30 79 1 22 77
M  V30 80 1 22 78
M  V30 81 1 23 79
M  V30 82 1 23 80
M  V30 83 1 24 81
M  V30 84 1 24 82
M  V30 85 1 25 83
M  V30 86 1 25 84
M  V30 87 1 28 85
M  V30 88 1 29 86 CFG=3
M  V30 89 1 32 87
M  V30 90 1 33 88
M  V30 91 1 33 89
M  V30 92 1 34 90
M  V30 93 1 34 91
M  V30 94 1 35 92
M  V30 95 1 35 93
M  V30 96 1 36 94
M  V30 97 1 36 95
M  V30 98 1 37 96
M  V30 99 1 37 97
M  V30 100 1 40 98
M  V30 101 1 41 99 CFG=3
M  V30 102 1 44 100
M  V30 103 1 45 101 CFG=1
M  V30 104 1 48 102
M  V30 105 1 48 103
M  V30 106 1 49 104
M  V30 107 1 49 105
M  V30 108 1 50 106
M  V30 109 1 50 107
M  V30 110 1 51 108
M  V30 111 1 51 109
M  V30 112 1 52 110
M  V30 113 1 54 111
M  V30 114 1 54 112
M  V30 115 1 55 113
M  V30 116 1 55 114
M  V30 117 1 56 115
M  V30 118 1 56 116
M  V30 119 1 57 117
M  V30 120 1 57 118
M  V30 121 1 58 119
M  V30 122 1 58 120
M  V30 123 1 59 121
M  V30 124 1 61 122
M  V30 125 1 61 123
M  V30 126 1 62 124
M  V30 127 1 62 125
M  V30 128 1 63 126
M  V30 129 1 63 127
M  V30 130 1 63 128
M  V30 END BOND
M  V30 END CTAB
M  END
>  <Dataset>  (84) 
PDB

>  <Ligand_Instance>  (84) 
3AGL_A03_B_351

>  <PDB_ID>  (84) 
3AGL

>  <Standardized_SMILES>  (84) 
[H]O[C@@]1([H])[C@@]([H])(O[H])[C@]([H])(N2C([H])=NC3=C2N=C([H])N=C3N([H])[H])O[C@]1([H])C(=O)N([H])C([H])([H])C([H])([H])C([H])([H])C([H])([H])C([H])([H])C(=O)N([H])[C@@]([H])(C(=O)N([H])C([H])([H])C([H])([H])C([H])([H])C([H])([H])C([H])([H])C(=O)N([H])[C@@]([H])(C(=O)N([H])[C@@]([H])(C(=O)N([H])[H])C([H])([H])C([H])([H])C([H])([H])N([H])C(N([H])[H])=[N+]([H])[H])C([H])([H])C([H])([H])C([H])([H])N([H])C(N([H])[H])=[N+]([H])[H])C([H])([H])[H]

>  <Name>  (84) 
(10R,20R,23R)-1-[(2S,3S,4R,5R)-5-(6-amino-9H-purin-9-yl)-3,4-dihydroxytetrahydrofuran-2-yl]-20,23-bis(3-carbamimidamido
propyl)-10-methyl-1,8,11,18,21-pentaoxo-2,9,12,19,22-pentaazatetracosan-24-amide

>  <Pocket>  (84) 
A

>  <ATP_Site>  (84) 
1.0

>  <Peripheral>  (84) 
0.0

>  <Num_H_Atoms_ProtBoundConf>  (84) 
65.0

>  <Num_Resolved_Atoms>  (84) 
63.0

>  <Num_Not_Resolved_Atoms>  (84) 
0.0

>  <2D_Mol_H>  (84) 
<rdkit.Chem.rdchem.Mol object at 0x72a238dc70d0>

>  <MW>  (84) 
892.037

>  <HBA>  (84) 
14

>  <HBD>  (84) 
15

>  <LogP>  (84) 
-7.7723

>  <NRB>  (84) 
32

>  <TPSA>  (84) 
435.18

>  <Num_Heavy_Atoms>  (84) 
63

>  <Ro5>  (84) 
[False, False, False, True, False, False]

>  <Ro5_Fulfilled>  (84) 
False

>  <Ro3>  (84) 
[False, False, False, True]

>  <Ro3_Fulfilled>  (84) 
False

>  <Fsp3>  (84) 
0.648649

>  <Fsp3_0.42>  (84) 
True

>  <Fsp3_0.45>  (84) 
True

>  <Stereogenic_Carbons>  (84) 
7

>  <C_Atoms>  (84) 
37

>  <FCStereo>  (84) 
0.189189

>  <SPS>  (84) 
1155

>  <nSPS>  (84) 
18.333333

>  <PBF>  (84) 
1.924143

>  <PBF_0.6>  (84) 
True

>  <nPBF>  (84) 
0.030542

>  <nPBF_0.016>  (84) 
True

>  <PMI1>  (84) 
14159.796284

>  <PMI2>  (84) 
27808.128152

>  <PMI3>  (84) 
33682.79357

>  <NPR1>  (84) 
0.420387

>  <NPR2>  (84) 
0.825589

>  <Sum_NPR>  (84) 
1.245975

>  <Sum_NPR_1.07>  (84) 
True

>  <Sum_NPR_1.2>  (84) 
True

>  <MaxAbsEStateIndex>  (84) 
13.123304

>  <MaxEStateIndex>  (84) 
13.123304

>  <MinAbsEStateIndex>  (84) 
0.01521

>  <MinEStateIndex>  (84) 
-1.509839

>  <qed>  (84) 
0.021428

>  <MolWt>  (84) 
892.037

>  <HeavyAtomMolWt>  (84) 
826.517

>  <ExactMolWt>  (84) 
891.51402

>  <NumValenceElectrons>  (84) 
350

>  <NumRadicalElectrons>  (84) 
0

>  <MaxPartialCharge>  (84) 
0.338266

>  <MinPartialCharge>  (84) 
-0.386941

>  <MaxAbsPartialCharge>  (84) 
0.386941

>  <MinAbsPartialCharge>  (84) 
0.338266

>  <FpDensityMorgan1>  (84) 
0.714286

>  <FpDensityMorgan2>  (84) 
1.285714

>  <FpDensityMorgan3>  (84) 
1.888889

>  <BCUT2D_MWHI>  (84) 
16.559945

>  <BCUT2D_MWLOW>  (84) 
10.067823

>  <BCUT2D_CHGHI>  (84) 
2.473778

>  <BCUT2D_CHGLO>  (84) 
-2.217113

>  <BCUT2D_LOGPHI>  (84) 
2.317023

>  <BCUT2D_LOGPLOW>  (84) 
-2.553641

>  <BCUT2D_MRHI>  (84) 
5.914567

>  <BCUT2D_MRLOW>  (84) 
-0.137314

>  <AvgIpc>  (84) 
3.79018

>  <BalabanJ>  (84) 
1.275799

>  <BertzCT>  (84) 
1881.099024

>  <Chi0>  (84) 
46.475752

>  <Chi0n>  (84) 
35.514982

>  <Chi0v>  (84) 
35.514982

>  <Chi1>  (84) 
29.991887

>  <Chi1n>  (84) 
20.915913

>  <Chi1v>  (84) 
20.915913

>  <Chi2n>  (84) 
15.136308

>  <Chi2v>  (84) 
15.136308

>  <Chi3n>  (84) 
9.997447

>  <Chi3v>  (84) 
9.997447

>  <Chi4n>  (84) 
6.563968

>  <Chi4v>  (84) 
6.563968

>  <HallKierAlpha>  (84) 
-6.41

>  <Ipc>  (84) 
21024017513324.308594

>  <Kappa1>  (84) 
50.943179

>  <Kappa2>  (84) 
26.152057

>  <Kappa3>  (84) 
17.111964

>  <LabuteASA>  (84) 
363.113905

>  <PEOE_VSA1>  (84) 
53.001196

>  <PEOE_VSA10>  (84) 
42.177476

>  <PEOE_VSA11>  (84) 
23.796908

>  <PEOE_VSA12>  (84) 
29.535899

>  <PEOE_VSA13>  (84) 
5.90718

>  <PEOE_VSA14>  (84) 
11.919109

>  <PEOE_VSA2>  (84) 
66.253802

>  <PEOE_VSA3>  (84) 
14.951936

>  <PEOE_VSA4>  (84) 
0.0

>  <PEOE_VSA5>  (84) 
0.0

>  <PEOE_VSA6>  (84) 
12.841643

>  <PEOE_VSA7>  (84) 
58.29031

>  <PEOE_VSA8>  (84) 
25.931156

>  <PEOE_VSA9>  (84) 
19.416833

>  <SMR_VSA1>  (84) 
54.535708

>  <SMR_VSA10>  (84) 
64.343928

>  <SMR_VSA2>  (84) 
0.0

>  <SMR_VSA3>  (84) 
56.736555

>  <SMR_VSA4>  (84) 
17.201002

>  <SMR_VSA5>  (84) 
126.638919

>  <SMR_VSA6>  (84) 
31.912693

>  <SMR_VSA7>  (84) 
12.65464

>  <SMR_VSA8>  (84) 
0.0

>  <SMR_VSA9>  (84) 
0.0

>  <SlogP_VSA1>  (84) 
70.970757

>  <SlogP_VSA10>  (84) 
5.817863

>  <SlogP_VSA11>  (84) 
0.0

>  <SlogP_VSA12>  (84) 
0.0

>  <SlogP_VSA2>  (84) 
139.710725

>  <SlogP_VSA3>  (84) 
33.504086

>  <SlogP_VSA4>  (84) 
0.0

>  <SlogP_VSA5>  (84) 
90.201498

>  <SlogP_VSA6>  (84) 
12.65464

>  <SlogP_VSA7>  (84) 
0.0

>  <SlogP_VSA8>  (84) 
11.163878

>  <SlogP_VSA9>  (84) 
0.0

>  <EState_VSA1>  (84) 
60.386862

>  <EState_VSA10>  (84) 
38.980278

>  <EState_VSA11>  (84) 
0.0

>  <EState_VSA2>  (84) 
78.850432

>  <EState_VSA3>  (84) 
71.000842

>  <EState_VSA4>  (84) 
0.0

>  <EState_VSA5>  (84) 
17.22174

>  <EState_VSA6>  (84) 
6.923737

>  <EState_VSA7>  (84) 
0.0

>  <EState_VSA8>  (84) 
52.169456

>  <EState_VSA9>  (84) 
38.4901

>  <VSA_EState1>  (84) 
7.067647

>  <VSA_EState10>  (84) 
0.0

>  <VSA_EState2>  (84) 
87.826573

>  <VSA_EState3>  (84) 
50.853551

>  <VSA_EState4>  (84) 
22.682948

>  <VSA_EState5>  (84) 
-2.795928

>  <VSA_EState6>  (84) 
-2.716023

>  <VSA_EState7>  (84) 
1.913606

>  <VSA_EState8>  (84) 
2.834291

>  <VSA_EState9>  (84) 
0.0

>  <FractionCSP3>  (84) 
0.648649

>  <HeavyAtomCount>  (84) 
63

>  <NHOHCount>  (84) 
21

>  <NOCount>  (84) 
26

>  <NumAliphaticCarbocycles>  (84) 
0

>  <NumAliphaticHeterocycles>  (84) 
1

>  <NumAliphaticRings>  (84) 
1

>  <NumAromaticCarbocycles>  (84) 
0

>  <NumAromaticHeterocycles>  (84) 
2

>  <NAR>  (84) 
2

>  <NumHAcceptors>  (84) 
14

>  <NumHDonors>  (84) 
15

>  <NumHeteroatoms>  (84) 
26

>  <NumRotatableBonds>  (84) 
28

>  <NumSaturatedCarbocycles>  (84) 
0

>  <NumSaturatedHeterocycles>  (84) 
1

>  <NumSaturatedRings>  (84) 
1

>  <RingCount>  (84) 
3

>  <MolLogP>  (84) 
-7.7723

>  <MolMR>  (84) 
225.9879

>  <fr_Al_COO>  (84) 
0

>  <fr_Al_OH>  (84) 
2

>  <fr_Al_OH_noTert>  (84) 
2

>  <fr_ArN>  (84) 
1

>  <fr_Ar_COO>  (84) 
0

>  <fr_Ar_N>  (84) 
4

>  <fr_Ar_NH>  (84) 
0

>  <fr_Ar_OH>  (84) 
0

>  <fr_COO>  (84) 
0

>  <fr_COO2>  (84) 
0

>  <fr_C_O>  (84) 
6

>  <fr_C_O_noCOO>  (84) 
6

>  <fr_C_S>  (84) 
0

>  <fr_HOCCN>  (84) 
0

>  <fr_Imine>  (84) 
0

>  <fr_NH0>  (84) 
4

>  <fr_NH1>  (84) 
7

>  <fr_NH2>  (84) 
6

>  <fr_N_O>  (84) 
0

>  <fr_Ndealkylation1>  (84) 
0

>  <fr_Ndealkylation2>  (84) 
0

>  <fr_Nhpyrrole>  (84) 
0

>  <fr_SH>  (84) 
0

>  <fr_aldehyde>  (84) 
0

>  <fr_alkyl_carbamate>  (84) 
0

>  <fr_alkyl_halide>  (84) 
0

>  <fr_allylic_oxid>  (84) 
0

>  <fr_amide>  (84) 
6

>  <fr_amidine>  (84) 
0

>  <fr_aniline>  (84) 
1

>  <fr_aryl_methyl>  (84) 
0

>  <fr_azide>  (84) 
0

>  <fr_azo>  (84) 
0

>  <fr_barbitur>  (84) 
0

>  <fr_benzene>  (84) 
0

>  <fr_benzodiazepine>  (84) 
0

>  <fr_bicyclic>  (84) 
1

>  <fr_diazo>  (84) 
0

>  <fr_dihydropyridine>  (84) 
0

>  <fr_epoxide>  (84) 
0

>  <fr_ester>  (84) 
0

>  <fr_ether>  (84) 
1

>  <fr_furan>  (84) 
0

>  <fr_guanido>  (84) 
2

>  <fr_halogen>  (84) 
0

>  <fr_hdrzine>  (84) 
0

>  <fr_hdrzone>  (84) 
0

>  <fr_imidazole>  (84) 
1

>  <fr_imide>  (84) 
0

>  <fr_isocyan>  (84) 
0

>  <fr_isothiocyan>  (84) 
0

>  <fr_ketone>  (84) 
0

>  <fr_ketone_Topliss>  (84) 
0

>  <fr_lactam>  (84) 
0

>  <fr_lactone>  (84) 
0

>  <fr_methoxy>  (84) 
0

>  <fr_morpholine>  (84) 
0

>  <fr_nitrile>  (84) 
0

>  <fr_nitro>  (84) 
0

>  <fr_nitro_arom>  (84) 
0

>  <fr_nitro_arom_nonortho>  (84) 
0

>  <fr_nitroso>  (84) 
0

>  <fr_oxazole>  (84) 
0

>  <fr_oxime>  (84) 
0

>  <fr_para_hydroxylation>  (84) 
0

>  <fr_phenol>  (84) 
0

>  <fr_phenol_noOrthoHbond>  (84) 
0

>  <fr_phos_acid>  (84) 
0

>  <fr_phos_ester>  (84) 
0

>  <fr_piperdine>  (84) 
0

>  <fr_piperzine>  (84) 
0

>  <fr_priamide>  (84) 
1

>  <fr_prisulfonamd>  (84) 
0

>  <fr_pyridine>  (84) 
0

>  <fr_quatN>  (84) 
0

>  <fr_sulfide>  (84) 
0

>  <fr_sulfonamd>  (84) 
0

>  <fr_sulfone>  (84) 
0

>  <fr_term_acetylene>  (84) 
0

>  <fr_tetrazole>  (84) 
0

>  <fr_thiazole>  (84) 
0

>  <fr_thiocyan>  (84) 
0

>  <fr_thiophene>  (84) 
0

>  <fr_unbrch_alkane>  (84) 
4

>  <fr_urea>  (84) 
0

>  <NP-Likeness>  (84) 
0.116726

$$$$
ACP
     RDKit          3D

  0  0  0  0  0  0  0  0  0  0999 V3000
M  V30 BEGIN CTAB
M  V30 COUNTS 45 47 0 0 0
M  V30 BEGIN ATOM
M  V30 1 O 4.084766 0.003712 1.853064 0
M  V30 2 C 2.877762 -0.608022 2.234073 0 CFG=1
M  V30 3 C 2.189814 0.280145 3.276529 0 CFG=1
M  V30 4 O 3.105529 0.963339 4.065988 0
M  V30 5 C 1.437387 1.210596 2.323154 0 CFG=2
M  V30 6 N 0.544222 2.091726 3.005343 0
M  V30 7 C 0.292226 2.293778 4.290966 0
M  V30 8 N -0.648689 3.247446 4.412370 0
M  V30 9 C -0.997751 3.656069 3.169767 0
M  V30 10 C -0.238842 2.920124 2.290885 0
M  V30 11 N -0.447704 3.188514 0.985630 0
M  V30 12 C -1.329129 4.105505 0.544255 0
M  V30 13 N -2.083304 4.837780 1.396146 0
M  V30 14 C -1.898223 4.593405 2.706487 0
M  V30 15 N -2.655543 5.324364 3.664042 0
M  V30 16 O 0.840311 0.284802 1.493772 0
M  V30 17 C 1.937021 -0.475367 1.068161 0 CFG=2
M  V30 18 C 1.506887 -1.816241 0.520074 0
M  V30 19 O 0.663829 -1.580796 -0.560355 0
M  V30 20 P 0.115960 -3.020043 -1.258781 0 CFG=2 VAL=5
M  V30 21 O -1.375090 -2.966457 -1.526244 0
M  V30 22 O 0.476885 -4.257020 -0.163643 0 CHG=-1 VAL=1
M  V30 23 O 0.879322 -3.294420 -2.742469 0
M  V30 24 P -0.185131 -4.192917 -3.699795 0 CFG=1 VAL=5
M  V30 25 O -1.561244 -3.530745 -3.756517 0
M  V30 26 O 0.354820 -4.248971 -5.311803 0 CHG=-1 VAL=1
M  V30 27 C -0.344539 -5.865158 -3.023837 0
M  V30 28 P -2.063605 -6.245282 -2.601060 0
M  V30 29 O -2.315597 -7.695694 -2.866565 0
M  V30 30 O -2.354448 -5.856934 -0.980416 0 CHG=-1 VAL=1
M  V30 31 O -3.093029 -5.282253 -3.529307 0 CHG=-1 VAL=1
M  V30 32 H 3.945755 0.629094 1.089425 0
M  V30 33 H 3.018825 -1.634691 2.588904 0
M  V30 34 H 1.502619 -0.372289 3.838243 0
M  V30 35 H 3.208453 0.395045 4.893234 0
M  V30 36 H 2.198105 1.757744 1.735685 0
M  V30 37 H 0.784607 1.758195 5.085070 0
M  V30 38 H -1.482510 4.306601 -0.508157 0
M  V30 39 H -2.601193 6.167822 4.292941 0
M  V30 40 H -3.547759 4.784634 3.701327 0
M  V30 41 H 2.380182 0.072992 0.200479 0
M  V30 42 H 2.434360 -2.282904 0.104643 0
M  V30 43 H 1.016586 -2.450857 1.265785 0
M  V30 44 H 0.245065 -5.941318 -2.079640 0
M  V30 45 H 0.010865 -6.628056 -3.767707 0
M  V30 END ATOM
M  V30 BEGIN BOND
M  V30 1 1 1 2
M  V30 2 1 2 3
M  V30 3 1 3 4
M  V30 4 1 3 5
M  V30 5 1 5 6
M  V30 6 1 6 7
M  V30 7 2 7 8
M  V30 8 1 8 9
M  V30 9 2 9 10
M  V30 10 1 10 11
M  V30 11 2 11 12
M  V30 12 1 12 13
M  V30 13 2 13 14
M  V30 14 1 14 15
M  V30 15 1 5 16
M  V30 16 1 16 17
M  V30 17 1 17 18
M  V30 18 1 18 19
M  V30 19 1 19 20
M  V30 20 2 20 21
M  V30 21 1 20 22 CFG=1
M  V30 22 1 20 23
M  V30 23 1 23 24
M  V30 24 2 24 25
M  V30 25 1 24 26 CFG=3
M  V30 26 1 24 27
M  V30 27 1 27 28
M  V30 28 2 28 29
M  V30 29 1 28 30
M  V30 30 1 28 31
M  V30 31 1 17 2
M  V30 32 1 10 6
M  V30 33 1 14 9
M  V30 34 1 1 32
M  V30 35 1 2 33 CFG=1
M  V30 36 1 3 34 CFG=1
M  V30 37 1 4 35
M  V30 38 1 5 36 CFG=3
M  V30 39 1 7 37
M  V30 40 1 12 38
M  V30 41 1 15 39
M  V30 42 1 15 40
M  V30 43 1 17 41 CFG=3
M  V30 44 1 18 42
M  V30 45 1 18 43
M  V30 46 1 27 44
M  V30 47 1 27 45
M  V30 END BOND
M  V30 END CTAB
M  END
>  <Dataset>  (85) 
PDB

>  <Ligand_Instance>  (85) 
4IAC_ACP_A_403

>  <PDB_ID>  (85) 
4IAC

>  <Standardized_SMILES>  (85) 
[H]O[C@@]1([H])[C@@]([H])(O[H])[C@]([H])(N2C([H])=NC3=C2N=C([H])N=C3N([H])[H])O[C@]1([H])C([H])([H])O[P@](=O)([O-])O[P@@](=O)([O-])C([H])([H])P(=O)([O-])[O-]

>  <Name>  (85) 
PHOSPHOMETHYLPHOSPHONIC ACID ADENYLATE ESTER

>  <Pocket>  (85) 
A

>  <ATP_Site>  (85) 
1.0

>  <Peripheral>  (85) 
0.0

>  <Num_H_Atoms_ProtBoundConf>  (85) 
14.0

>  <Num_Resolved_Atoms>  (85) 
31.0

>  <Num_Not_Resolved_Atoms>  (85) 
0.0

>  <2D_Mol_H>  (85) 
<rdkit.Chem.rdchem.Mol object at 0x72a238dc71b0>

>  <MW>  (85) 
501.178

>  <HBA>  (85) 
17

>  <HBD>  (85) 
3

>  <LogP>  (85) 
-4.0461

>  <NRB>  (85) 
11

>  <TPSA>  (85) 
281.22

>  <Num_Heavy_Atoms>  (85) 
31

>  <Ro5>  (85) 
[False, False, True, True, False, False]

>  <Ro5_Fulfilled>  (85) 
False

>  <Ro3>  (85) 
[False, False, True, True]

>  <Ro3_Fulfilled>  (85) 
False

>  <Fsp3>  (85) 
0.545455

>  <Fsp3_0.42>  (85) 
True

>  <Fsp3_0.45>  (85) 
True

>  <Stereogenic_Carbons>  (85) 
4

>  <C_Atoms>  (85) 
11

>  <FCStereo>  (85) 
0.363636

>  <SPS>  (85) 
882

>  <nSPS>  (85) 
28.451613

>  <PBF>  (85) 
0.982296

>  <PBF_0.6>  (85) 
True

>  <nPBF>  (85) 
0.031687

>  <nPBF_0.016>  (85) 
True

>  <PMI1>  (85) 
2320.265151

>  <PMI2>  (85) 
10619.592745

>  <PMI3>  (85) 
11605.264748

>  <NPR1>  (85) 
0.199932

>  <NPR2>  (85) 
0.915067

>  <Sum_NPR>  (85) 
1.114999

>  <Sum_NPR_1.07>  (85) 
True

>  <Sum_NPR_1.2>  (85) 
False

>  <MaxAbsEStateIndex>  (85) 
11.671022

>  <MaxEStateIndex>  (85) 
11.671022

>  <MinAbsEStateIndex>  (85) 
0.031351

>  <MinEStateIndex>  (85) 
-5.677858

>  <qed>  (85) 
0.290067

>  <MolWt>  (85) 
501.178

>  <HeavyAtomMolWt>  (85) 
487.066

>  <ExactMolWt>  (85) 
500.987375

>  <NumValenceElectrons>  (85) 
174

>  <NumRadicalElectrons>  (85) 
0

>  <MaxPartialCharge>  (85) 
0.272377

>  <MinPartialCharge>  (85) 
-0.810376

>  <MaxAbsPartialCharge>  (85) 
0.810376

>  <MinAbsPartialCharge>  (85) 
0.272377

>  <FpDensityMorgan1>  (85) 
1.129032

>  <FpDensityMorgan2>  (85) 
1.806452

>  <FpDensityMorgan3>  (85) 
2.451613

>  <BCUT2D_MWHI>  (85) 
31.280375

>  <BCUT2D_MWLOW>  (85) 
10.128388

>  <BCUT2D_CHGHI>  (85) 
2.446071

>  <BCUT2D_CHGLO>  (85) 
-2.38011

>  <BCUT2D_LOGPHI>  (85) 
2.588004

>  <BCUT2D_LOGPLOW>  (85) 
-2.337231

>  <BCUT2D_MRHI>  (85) 
7.714836

>  <BCUT2D_MRLOW>  (85) 
-0.312451

>  <AvgIpc>  (85) 
3.133568

>  <BalabanJ>  (85) 
1.689409

>  <BertzCT>  (85) 
1105.036107

>  <Chi0>  (85) 
23.18987

>  <Chi0n>  (85) 
15.063071

>  <Chi0v>  (85) 
17.746352

>  <Chi1>  (85) 
14.190889

>  <Chi1n>  (85) 
8.11702

>  <Chi1v>  (85) 
13.033415

>  <Chi2n>  (85) 
6.317106

>  <Chi2v>  (85) 
11.697921

>  <Chi3n>  (85) 
3.966166

>  <Chi3v>  (85) 
8.99796

>  <Chi4n>  (85) 
2.731563

>  <Chi4v>  (85) 
6.83688

>  <HallKierAlpha>  (85) 
-1.32

>  <Ipc>  (85) 
3947352.346056

>  <Kappa1>  (85) 
24.324944

>  <Kappa2>  (85) 
8.555356

>  <Kappa3>  (85) 
5.731828

>  <LabuteASA>  (85) 
172.296385

>  <PEOE_VSA1>  (85) 
53.911075

>  <PEOE_VSA10>  (85) 
37.751682

>  <PEOE_VSA11>  (85) 
17.692941

>  <PEOE_VSA12>  (85) 
0.0

>  <PEOE_VSA13>  (85) 
7.822697

>  <PEOE_VSA14>  (85) 
0.0

>  <PEOE_VSA2>  (85) 
13.442779

>  <PEOE_VSA3>  (85) 
14.951936

>  <PEOE_VSA4>  (85) 
0.0

>  <PEOE_VSA5>  (85) 
0.0

>  <PEOE_VSA6>  (85) 
7.595762

>  <PEOE_VSA7>  (85) 
0.0

>  <PEOE_VSA8>  (85) 
5.902998

>  <PEOE_VSA9>  (85) 
12.934202

>  <SMR_VSA1>  (85) 
57.053088

>  <SMR_VSA10>  (85) 
39.995962

>  <SMR_VSA2>  (85) 
0.0

>  <SMR_VSA3>  (85) 
19.519035

>  <SMR_VSA4>  (85) 
0.0

>  <SMR_VSA5>  (85) 
24.5398

>  <SMR_VSA6>  (85) 
18.243548

>  <SMR_VSA7>  (85) 
12.65464

>  <SMR_VSA8>  (85) 
0.0

>  <SMR_VSA9>  (85) 
0.0

>  <SlogP_VSA1>  (85) 
25.307314

>  <SlogP_VSA10>  (85) 
5.817863

>  <SlogP_VSA11>  (85) 
0.0

>  <SlogP_VSA12>  (85) 
23.014222

>  <SlogP_VSA2>  (85) 
60.55387

>  <SlogP_VSA3>  (85) 
27.266386

>  <SlogP_VSA4>  (85) 
0.0

>  <SlogP_VSA5>  (85) 
6.227901

>  <SlogP_VSA6>  (85) 
12.65464

>  <SlogP_VSA7>  (85) 
0.0

>  <SlogP_VSA8>  (85) 
11.163878

>  <SlogP_VSA9>  (85) 
0.0

>  <EState_VSA1>  (85) 
60.063903

>  <EState_VSA10>  (85) 
43.481846

>  <EState_VSA11>  (85) 
0.0

>  <EState_VSA2>  (85) 
16.981741

>  <EState_VSA3>  (85) 
0.0

>  <EState_VSA4>  (85) 
6.32732

>  <EState_VSA5>  (85) 
10.89442

>  <EState_VSA6>  (85) 
0.0

>  <EState_VSA7>  (85) 
0.0

>  <EState_VSA8>  (85) 
23.786314

>  <EState_VSA9>  (85) 
10.47053

>  <VSA_EState1>  (85) 
48.07839

>  <VSA_EState10>  (85) 
0.0

>  <VSA_EState2>  (85) 
55.711655

>  <VSA_EState3>  (85) 
20.36552

>  <VSA_EState4>  (85) 
5.9631

>  <VSA_EState5>  (85) 
-2.05434

>  <VSA_EState6>  (85) 
0.0

>  <VSA_EState7>  (85) 
-3.843566

>  <VSA_EState8>  (85) 
-1.022155

>  <VSA_EState9>  (85) 
-16.948605

>  <FractionCSP3>  (85) 
0.545455

>  <HeavyAtomCount>  (85) 
31

>  <NHOHCount>  (85) 
4

>  <NOCount>  (85) 
17

>  <NumAliphaticCarbocycles>  (85) 
0

>  <NumAliphaticHeterocycles>  (85) 
1

>  <NumAliphaticRings>  (85) 
1

>  <NumAromaticCarbocycles>  (85) 
0

>  <NumAromaticHeterocycles>  (85) 
2

>  <NAR>  (85) 
2

>  <NumHAcceptors>  (85) 
17

>  <NumHDonors>  (85) 
3

>  <NumHeteroatoms>  (85) 
20

>  <NumRotatableBonds>  (85) 
8

>  <NumSaturatedCarbocycles>  (85) 
0

>  <NumSaturatedHeterocycles>  (85) 
1

>  <NumSaturatedRings>  (85) 
1

>  <RingCount>  (85) 
3

>  <MolLogP>  (85) 
-4.0461

>  <MolMR>  (85) 
90.3825

>  <fr_Al_COO>  (85) 
0

>  <fr_Al_OH>  (85) 
2

>  <fr_Al_OH_noTert>  (85) 
2

>  <fr_ArN>  (85) 
1

>  <fr_Ar_COO>  (85) 
0

>  <fr_Ar_N>  (85) 
4

>  <fr_Ar_NH>  (85) 
0

>  <fr_Ar_OH>  (85) 
0

>  <fr_COO>  (85) 
0

>  <fr_COO2>  (85) 
0

>  <fr_C_O>  (85) 
0

>  <fr_C_O_noCOO>  (85) 
0

>  <fr_C_S>  (85) 
0

>  <fr_HOCCN>  (85) 
0

>  <fr_Imine>  (85) 
0

>  <fr_NH0>  (85) 
4

>  <fr_NH1>  (85) 
0

>  <fr_NH2>  (85) 
1

>  <fr_N_O>  (85) 
0

>  <fr_Ndealkylation1>  (85) 
0

>  <fr_Ndealkylation2>  (85) 
0

>  <fr_Nhpyrrole>  (85) 
0

>  <fr_SH>  (85) 
0

>  <fr_aldehyde>  (85) 
0

>  <fr_alkyl_carbamate>  (85) 
0

>  <fr_alkyl_halide>  (85) 
0

>  <fr_allylic_oxid>  (85) 
0

>  <fr_amide>  (85) 
0

>  <fr_amidine>  (85) 
0

>  <fr_aniline>  (85) 
1

>  <fr_aryl_methyl>  (85) 
0

>  <fr_azide>  (85) 
0

>  <fr_azo>  (85) 
0

>  <fr_barbitur>  (85) 
0

>  <fr_benzene>  (85) 
0

>  <fr_benzodiazepine>  (85) 
0

>  <fr_bicyclic>  (85) 
1

>  <fr_diazo>  (85) 
0

>  <fr_dihydropyridine>  (85) 
0

>  <fr_epoxide>  (85) 
0

>  <fr_ester>  (85) 
0

>  <fr_ether>  (85) 
1

>  <fr_furan>  (85) 
0

>  <fr_guanido>  (85) 
0

>  <fr_halogen>  (85) 
0

>  <fr_hdrzine>  (85) 
0

>  <fr_hdrzone>  (85) 
0

>  <fr_imidazole>  (85) 
1

>  <fr_imide>  (85) 
0

>  <fr_isocyan>  (85) 
0

>  <fr_isothiocyan>  (85) 
0

>  <fr_ketone>  (85) 
0

>  <fr_ketone_Topliss>  (85) 
0

>  <fr_lactam>  (85) 
0

>  <fr_lactone>  (85) 
0

>  <fr_methoxy>  (85) 
0

>  <fr_morpholine>  (85) 
0

>  <fr_nitrile>  (85) 
0

>  <fr_nitro>  (85) 
0

>  <fr_nitro_arom>  (85) 
0

>  <fr_nitro_arom_nonortho>  (85) 
0

>  <fr_nitroso>  (85) 
0

>  <fr_oxazole>  (85) 
0

>  <fr_oxime>  (85) 
0

>  <fr_para_hydroxylation>  (85) 
0

>  <fr_phenol>  (85) 
0

>  <fr_phenol_noOrthoHbond>  (85) 
0

>  <fr_phos_acid>  (85) 
1

>  <fr_phos_ester>  (85) 
1

>  <fr_piperdine>  (85) 
0

>  <fr_piperzine>  (85) 
0

>  <fr_priamide>  (85) 
0

>  <fr_prisulfonamd>  (85) 
0

>  <fr_pyridine>  (85) 
0

>  <fr_quatN>  (85) 
0

>  <fr_sulfide>  (85) 
0

>  <fr_sulfonamd>  (85) 
0

>  <fr_sulfone>  (85) 
0

>  <fr_term_acetylene>  (85) 
0

>  <fr_tetrazole>  (85) 
0

>  <fr_thiazole>  (85) 
0

>  <fr_thiocyan>  (85) 
0

>  <fr_thiophene>  (85) 
0

>  <fr_unbrch_alkane>  (85) 
0

>  <fr_urea>  (85) 
0

>  <NP-Likeness>  (85) 
0.811139

$$$$
ADE
     RDKit          3D

  0  0  0  0  0  0  0  0  0  0999 V3000
M  V30 BEGIN CTAB
M  V30 COUNTS 15 16 0 0 0
M  V30 BEGIN ATOM
M  V30 1 C -0.199463 -0.457388 -0.745622 0
M  V30 2 N 0.829291 -1.240343 -0.384807 0
M  V30 3 C 1.566851 -0.921736 0.673840 0
M  V30 4 C 1.224080 0.230738 1.364192 0
M  V30 5 N 2.090209 0.368803 2.392798 0
M  V30 6 C 2.974353 -0.643717 2.394160 0
M  V30 7 N 2.632296 -1.408289 1.342413 0
M  V30 8 C 0.158491 1.060709 1.007726 0
M  V30 9 N -0.139221 2.230753 1.761045 0
M  V30 10 N -0.541362 0.668556 -0.078476 0
M  V30 11 H -0.807388 -0.723658 -1.621555 0
M  V30 12 H 3.808322 -0.862402 3.064906 0
M  V30 13 H 3.108613 -2.279947 1.046639 0
M  V30 14 H 0.541229 3.022526 1.593965 0
M  V30 15 H -0.955540 2.254233 2.398096 0
M  V30 END ATOM
M  V30 BEGIN BOND
M  V30 1 2 1 2
M  V30 2 1 2 3
M  V30 3 2 3 4
M  V30 4 1 4 5
M  V30 5 2 5 6
M  V30 6 1 6 7
M  V30 7 1 4 8
M  V30 8 1 8 9
M  V30 9 2 8 10
M  V30 10 1 10 1
M  V30 11 1 7 3
M  V30 12 1 1 11
M  V30 13 1 6 12
M  V30 14 1 7 13
M  V30 15 1 9 14
M  V30 16 1 9 15
M  V30 END BOND
M  V30 END CTAB
M  END
>  <Dataset>  (86) 
PDB

>  <Ligand_Instance>  (86) 
6Y05_ADE_A_401

>  <PDB_ID>  (86) 
6Y05

>  <Standardized_SMILES>  (86) 
[H]C1=NC2=C(N=C([H])N2[H])C(N([H])[H])=N1

>  <Name>  (86) 
ADENINE

>  <Pocket>  (86) 
A

>  <ATP_Site>  (86) 
1.0

>  <Peripheral>  (86) 
0.0

>  <Num_H_Atoms_ProtBoundConf>  (86) 
5.0

>  <Num_Resolved_Atoms>  (86) 
10.0

>  <Num_Not_Resolved_Atoms>  (86) 
0.0

>  <2D_Mol_H>  (86) 
<rdkit.Chem.rdchem.Mol object at 0x72a238dc7290>

>  <MW>  (86) 
135.13

>  <HBA>  (86) 
4

>  <HBD>  (86) 
2

>  <LogP>  (86) 
-0.0649

>  <NRB>  (86) 
1

>  <TPSA>  (86) 
80.48

>  <Num_Heavy_Atoms>  (86) 
10

>  <Ro5>  (86) 
[True, True, True, True, True, True]

>  <Ro5_Fulfilled>  (86) 
True

>  <Ro3>  (86) 
[True, False, True, True]

>  <Ro3_Fulfilled>  (86) 
True

>  <Fsp3>  (86) 
0.0

>  <Fsp3_0.42>  (86) 
False

>  <Fsp3_0.45>  (86) 
False

>  <Stereogenic_Carbons>  (86) 
0

>  <C_Atoms>  (86) 
5

>  <FCStereo>  (86) 
0.0

>  <SPS>  (86) 
104

>  <nSPS>  (86) 
10.4

>  <PBF>  (86) 
0.132512

>  <PBF_0.6>  (86) 
False

>  <nPBF>  (86) 
0.013251

>  <nPBF_0.016>  (86) 
False

>  <PMI1>  (86) 
216.153579

>  <PMI2>  (86) 
324.045313

>  <PMI3>  (86) 
536.948161

>  <NPR1>  (86) 
0.402559

>  <NPR2>  (86) 
0.603495

>  <Sum_NPR>  (86) 
1.006054

>  <Sum_NPR_1.07>  (86) 
False

>  <Sum_NPR_1.2>  (86) 
False

>  <MaxAbsEStateIndex>  (86) 
5.467037

>  <MaxEStateIndex>  (86) 
5.467037

>  <MinAbsEStateIndex>  (86) 
0.408565

>  <MinEStateIndex>  (86) 
0.408565

>  <qed>  (86) 
0.529676

>  <MolWt>  (86) 
135.13

>  <HeavyAtomMolWt>  (86) 
130.09

>  <ExactMolWt>  (86) 
135.054495

>  <NumValenceElectrons>  (86) 
50

>  <NumRadicalElectrons>  (86) 
0

>  <MaxPartialCharge>  (86) 
0.162275

>  <MinPartialCharge>  (86) 
-0.381731

>  <MaxAbsPartialCharge>  (86) 
0.381731

>  <MinAbsPartialCharge>  (86) 
0.162275

>  <FpDensityMorgan1>  (86) 
1.3

>  <FpDensityMorgan2>  (86) 
2.2

>  <FpDensityMorgan3>  (86) 
3.0

>  <BCUT2D_MWHI>  (86) 
15.021488

>  <BCUT2D_MWLOW>  (86) 
10.504288

>  <BCUT2D_CHGHI>  (86) 
1.988419

>  <BCUT2D_CHGLO>  (86) 
-1.883476

>  <BCUT2D_LOGPHI>  (86) 
2.085581

>  <BCUT2D_LOGPLOW>  (86) 
-1.912359

>  <BCUT2D_MRHI>  (86) 
5.79688

>  <BCUT2D_MRLOW>  (86) 
1.206507

>  <AvgIpc>  (86) 
2.357102

>  <BalabanJ>  (86) 
2.95009

>  <BertzCT>  (86) 
351.565797

>  <Chi0>  (86) 
6.974691

>  <Chi0n>  (86) 
5.073692

>  <Chi0v>  (86) 
5.073692

>  <Chi1>  (86) 
4.87701

>  <Chi1n>  (86) 
2.772767

>  <Chi1v>  (86) 
2.772767

>  <Chi2n>  (86) 
1.858659

>  <Chi2v>  (86) 
1.858659

>  <Chi3n>  (86) 
1.245496

>  <Chi3v>  (86) 
1.245496

>  <Chi4n>  (86) 
0.78327

>  <Chi4v>  (86) 
0.78327

>  <HallKierAlpha>  (86) 
-1.65

>  <Ipc>  (86) 
372.42214

>  <Kappa1>  (86) 
5.15986

>  <Kappa2>  (86) 
1.662923

>  <Kappa3>  (86) 
0.539771

>  <LabuteASA>  (86) 
56.321063

>  <PEOE_VSA1>  (86) 
10.717646

>  <PEOE_VSA10>  (86) 
11.844021

>  <PEOE_VSA11>  (86) 
11.46504

>  <PEOE_VSA12>  (86) 
0.0

>  <PEOE_VSA13>  (86) 
0.0

>  <PEOE_VSA14>  (86) 
0.0

>  <PEOE_VSA2>  (86) 
0.0

>  <PEOE_VSA3>  (86) 
14.951936

>  <PEOE_VSA4>  (86) 
0.0

>  <PEOE_VSA5>  (86) 
0.0

>  <PEOE_VSA6>  (86) 
0.0

>  <PEOE_VSA7>  (86) 
0.0

>  <PEOE_VSA8>  (86) 
0.0

>  <PEOE_VSA9>  (86) 
6.32732

>  <SMR_VSA1>  (86) 
0.0

>  <SMR_VSA10>  (86) 
16.981741

>  <SMR_VSA2>  (86) 
0.0

>  <SMR_VSA3>  (86) 
19.935914

>  <SMR_VSA4>  (86) 
0.0

>  <SMR_VSA5>  (86) 
0.0

>  <SMR_VSA6>  (86) 
5.733667

>  <SMR_VSA7>  (86) 
12.65464

>  <SMR_VSA8>  (86) 
0.0

>  <SMR_VSA9>  (86) 
0.0

>  <SlogP_VSA1>  (86) 
5.733667

>  <SlogP_VSA10>  (86) 
5.817863

>  <SlogP_VSA11>  (86) 
0.0

>  <SlogP_VSA12>  (86) 
0.0

>  <SlogP_VSA2>  (86) 
19.935914

>  <SlogP_VSA3>  (86) 
0.0

>  <SlogP_VSA4>  (86) 
0.0

>  <SlogP_VSA5>  (86) 
0.0

>  <SlogP_VSA6>  (86) 
12.65464

>  <SlogP_VSA7>  (86) 
0.0

>  <SlogP_VSA8>  (86) 
11.163878

>  <SlogP_VSA9>  (86) 
0.0

>  <EState_VSA1>  (86) 
0.0

>  <EState_VSA10>  (86) 
0.0

>  <EState_VSA11>  (86) 
0.0

>  <EState_VSA2>  (86) 
0.0

>  <EState_VSA3>  (86) 
16.981741

>  <EState_VSA4>  (86) 
0.0

>  <EState_VSA5>  (86) 
12.65464

>  <EState_VSA6>  (86) 
0.0

>  <EState_VSA7>  (86) 
0.0

>  <EState_VSA8>  (86) 
19.935914

>  <EState_VSA9>  (86) 
5.733667

>  <VSA_EState1>  (86) 
0.0

>  <VSA_EState10>  (86) 
0.0

>  <VSA_EState2>  (86) 
14.387407

>  <VSA_EState3>  (86) 
0.0

>  <VSA_EState4>  (86) 
6.767963

>  <VSA_EState5>  (86) 
0.408565

>  <VSA_EState6>  (86) 
0.0

>  <VSA_EState7>  (86) 
2.936065

>  <VSA_EState8>  (86) 
0.0

>  <VSA_EState9>  (86) 
0.0

>  <FractionCSP3>  (86) 
0.0

>  <HeavyAtomCount>  (86) 
10

>  <NHOHCount>  (86) 
3

>  <NOCount>  (86) 
5

>  <NumAliphaticCarbocycles>  (86) 
0

>  <NumAliphaticHeterocycles>  (86) 
0

>  <NumAliphaticRings>  (86) 
0

>  <NumAromaticCarbocycles>  (86) 
0

>  <NumAromaticHeterocycles>  (86) 
2

>  <NAR>  (86) 
2

>  <NumHAcceptors>  (86) 
4

>  <NumHDonors>  (86) 
2

>  <NumHeteroatoms>  (86) 
5

>  <NumRotatableBonds>  (86) 
0

>  <NumSaturatedCarbocycles>  (86) 
0

>  <NumSaturatedHeterocycles>  (86) 
0

>  <NumSaturatedRings>  (86) 
0

>  <RingCount>  (86) 
2

>  <MolLogP>  (86) 
-0.0649

>  <MolMR>  (86) 
36.0961

>  <fr_Al_COO>  (86) 
0

>  <fr_Al_OH>  (86) 
0

>  <fr_Al_OH_noTert>  (86) 
0

>  <fr_ArN>  (86) 
1

>  <fr_Ar_COO>  (86) 
0

>  <fr_Ar_N>  (86) 
4

>  <fr_Ar_NH>  (86) 
1

>  <fr_Ar_OH>  (86) 
0

>  <fr_COO>  (86) 
0

>  <fr_COO2>  (86) 
0

>  <fr_C_O>  (86) 
0

>  <fr_C_O_noCOO>  (86) 
0

>  <fr_C_S>  (86) 
0

>  <fr_HOCCN>  (86) 
0

>  <fr_Imine>  (86) 
0

>  <fr_NH0>  (86) 
3

>  <fr_NH1>  (86) 
1

>  <fr_NH2>  (86) 
1

>  <fr_N_O>  (86) 
0

>  <fr_Ndealkylation1>  (86) 
0

>  <fr_Ndealkylation2>  (86) 
0

>  <fr_Nhpyrrole>  (86) 
1

>  <fr_SH>  (86) 
0

>  <fr_aldehyde>  (86) 
0

>  <fr_alkyl_carbamate>  (86) 
0

>  <fr_alkyl_halide>  (86) 
0

>  <fr_allylic_oxid>  (86) 
0

>  <fr_amide>  (86) 
0

>  <fr_amidine>  (86) 
0

>  <fr_aniline>  (86) 
1

>  <fr_aryl_methyl>  (86) 
0

>  <fr_azide>  (86) 
0

>  <fr_azo>  (86) 
0

>  <fr_barbitur>  (86) 
0

>  <fr_benzene>  (86) 
0

>  <fr_benzodiazepine>  (86) 
0

>  <fr_bicyclic>  (86) 
1

>  <fr_diazo>  (86) 
0

>  <fr_dihydropyridine>  (86) 
0

>  <fr_epoxide>  (86) 
0

>  <fr_ester>  (86) 
0

>  <fr_ether>  (86) 
0

>  <fr_furan>  (86) 
0

>  <fr_guanido>  (86) 
0

>  <fr_halogen>  (86) 
0

>  <fr_hdrzine>  (86) 
0

>  <fr_hdrzone>  (86) 
0

>  <fr_imidazole>  (86) 
1

>  <fr_imide>  (86) 
0

>  <fr_isocyan>  (86) 
0

>  <fr_isothiocyan>  (86) 
0

>  <fr_ketone>  (86) 
0

>  <fr_ketone_Topliss>  (86) 
0

>  <fr_lactam>  (86) 
0

>  <fr_lactone>  (86) 
0

>  <fr_methoxy>  (86) 
0

>  <fr_morpholine>  (86) 
0

>  <fr_nitrile>  (86) 
0

>  <fr_nitro>  (86) 
0

>  <fr_nitro_arom>  (86) 
0

>  <fr_nitro_arom_nonortho>  (86) 
0

>  <fr_nitroso>  (86) 
0

>  <fr_oxazole>  (86) 
0

>  <fr_oxime>  (86) 
0

>  <fr_para_hydroxylation>  (86) 
0

>  <fr_phenol>  (86) 
0

>  <fr_phenol_noOrthoHbond>  (86) 
0

>  <fr_phos_acid>  (86) 
0

>  <fr_phos_ester>  (86) 
0

>  <fr_piperdine>  (86) 
0

>  <fr_piperzine>  (86) 
0

>  <fr_priamide>  (86) 
0

>  <fr_prisulfonamd>  (86) 
0

>  <fr_pyridine>  (86) 
0

>  <fr_quatN>  (86) 
0

>  <fr_sulfide>  (86) 
0

>  <fr_sulfonamd>  (86) 
0

>  <fr_sulfone>  (86) 
0

>  <fr_term_acetylene>  (86) 
0

>  <fr_tetrazole>  (86) 
0

>  <fr_thiazole>  (86) 
0

>  <fr_thiocyan>  (86) 
0

>  <fr_thiophene>  (86) 
0

>  <fr_unbrch_alkane>  (86) 
0

>  <fr_urea>  (86) 
0

>  <NP-Likeness>  (86) 
-0.222169

$$$$
ADP
     RDKit          3D

  0  0  0  0  0  0  0  0  0  0999 V3000
M  V30 BEGIN CTAB
M  V30 COUNTS 39 41 0 0 0
M  V30 BEGIN ATOM
M  V30 1 O -0.948285 -0.438583 4.255156 0
M  V30 2 C -0.411171 -0.255040 2.979968 0 CFG=1
M  V30 3 C 1.092178 -0.234105 3.045441 0 CFG=1
M  V30 4 O 1.474056 -0.912258 4.222552 0
M  V30 5 C 1.506228 -0.966081 1.819101 0 CFG=2
M  V30 6 N 2.233989 -0.193765 0.858355 0
M  V30 7 C 3.405953 -0.569193 0.290616 0
M  V30 8 N 3.775171 0.412104 -0.553372 0
M  V30 9 C 2.841851 1.378111 -0.504725 0
M  V30 10 C 1.841459 1.007625 0.397855 0
M  V30 11 N 0.833709 1.848388 0.572746 0
M  V30 12 C 0.798356 3.009814 -0.105821 0
M  V30 13 N 1.756149 3.378451 -0.978390 0
M  V30 14 C 2.825105 2.577588 -1.218927 0
M  V30 15 N 3.876306 2.894850 -2.123767 0
M  V30 16 O 0.375978 -1.480544 1.215317 0
M  V30 17 C -0.633812 -1.513038 2.138200 0 CFG=2
M  V30 18 C -2.014257 -1.365032 1.534430 0
M  V30 19 O -2.203385 -2.413883 0.644895 0
M  V30 20 P -3.712747 -2.369453 -0.103693 0 CFG=2 VAL=5
M  V30 21 O -4.183525 -0.939805 -0.202494 0
M  V30 22 O -4.824228 -3.304172 0.763507 0 CHG=-1 VAL=1
M  V30 23 O -3.512953 -3.048156 -1.649054 0
M  V30 24 P -2.467036 -4.373660 -1.493633 0
M  V30 25 O -3.034914 -5.398648 -0.528818 0
M  V30 26 O -2.251903 -5.116515 -3.005593 0 CHG=-1 VAL=1
M  V30 27 O -0.976837 -3.814647 -0.958446 0 CHG=-1 VAL=1
M  V30 28 H -1.249546 0.460417 4.565166 0
M  V30 29 H -0.849340 0.579238 2.433626 0
M  V30 30 H 1.506209 0.786595 3.129986 0
M  V30 31 H 2.375076 -0.559672 4.486506 0
M  V30 32 H 2.104238 -1.862424 2.148636 0
M  V30 33 H 3.911678 -1.512796 0.518410 0
M  V30 34 H 0.006807 3.762144 -0.024072 0
M  V30 35 H 4.664131 3.602715 -2.092400 0
M  V30 36 H 4.178059 2.540901 -3.055154 0
M  V30 37 H -0.589421 -2.343916 2.868457 0
M  V30 38 H -2.757307 -1.531700 2.351388 0
M  V30 39 H -2.175056 -0.362661 1.104157 0
M  V30 END ATOM
M  V30 BEGIN BOND
M  V30 1 1 1 2
M  V30 2 1 2 3
M  V30 3 1 3 4
M  V30 4 1 3 5
M  V30 5 1 5 6
M  V30 6 1 6 7
M  V30 7 2 7 8
M  V30 8 1 8 9
M  V30 9 2 9 10
M  V30 10 1 10 11
M  V30 11 2 11 12
M  V30 12 1 12 13
M  V30 13 2 13 14
M  V30 14 1 14 15
M  V30 15 1 5 16
M  V30 16 1 16 17
M  V30 17 1 17 18
M  V30 18 1 18 19
M  V30 19 1 19 20
M  V30 20 2 20 21
M  V30 21 1 20 22 CFG=1
M  V30 22 1 20 23
M  V30 23 1 23 24
M  V30 24 2 24 25
M  V30 25 1 24 26
M  V30 26 1 24 27
M  V30 27 1 17 2
M  V30 28 1 10 6
M  V30 29 1 14 9
M  V30 30 1 1 28
M  V30 31 1 2 29 CFG=3
M  V30 32 1 3 30 CFG=1
M  V30 33 1 4 31
M  V30 34 1 5 32 CFG=1
M  V30 35 1 7 33
M  V30 36 1 12 34
M  V30 37 1 15 35
M  V30 38 1 15 36
M  V30 39 1 17 37 CFG=1
M  V30 40 1 18 38
M  V30 41 1 18 39
M  V30 END BOND
M  V30 END CTAB
M  END
>  <Dataset>  (87) 
PDB

>  <Ligand_Instance>  (87) 
2QUR_ADP_B_1

>  <PDB_ID>  (87) 
2QUR

>  <Standardized_SMILES>  (87) 
[H]O[C@@]1([H])[C@@]([H])(O[H])[C@]([H])(N2C([H])=NC3=C2N=C([H])N=C3N([H])[H])O[C@]1([H])C([H])([H])O[P@](=O)([O-])OP(=O)([O-])[O-]

>  <Name>  (87) 
ADENOSINE-5'-DIPHOSPHATE

>  <Pocket>  (87) 
A

>  <ATP_Site>  (87) 
1.0

>  <Peripheral>  (87) 
0.0

>  <Num_H_Atoms_ProtBoundConf>  (87) 
12.0

>  <Num_Resolved_Atoms>  (87) 
27.0

>  <Num_Not_Resolved_Atoms>  (87) 
0.0

>  <2D_Mol_H>  (87) 
<rdkit.Chem.rdchem.Mol object at 0x72a238dc7370>

>  <MW>  (87) 
424.179

>  <HBA>  (87) 
15

>  <HBD>  (87) 
3

>  <LogP>  (87) 
-3.642

>  <NRB>  (87) 
9

>  <TPSA>  (87) 
241.09

>  <Num_Heavy_Atoms>  (87) 
27

>  <Ro5>  (87) 
[True, False, True, True, True, False]

>  <Ro5_Fulfilled>  (87) 
False

>  <Ro3>  (87) 
[False, False, True, True]

>  <Ro3_Fulfilled>  (87) 
False

>  <Fsp3>  (87) 
0.5

>  <Fsp3_0.42>  (87) 
True

>  <Fsp3_0.45>  (87) 
True

>  <Stereogenic_Carbons>  (87) 
4

>  <C_Atoms>  (87) 
10

>  <FCStereo>  (87) 
0.4

>  <SPS>  (87) 
769

>  <nSPS>  (87) 
28.481481

>  <PBF>  (87) 
1.2091

>  <PBF_0.6>  (87) 
True

>  <nPBF>  (87) 
0.044781

>  <nPBF_0.016>  (87) 
True

>  <PMI1>  (87) 
2079.437579

>  <PMI2>  (87) 
5362.911313

>  <PMI3>  (87) 
6018.095926

>  <NPR1>  (87) 
0.345531

>  <NPR2>  (87) 
0.891131

>  <Sum_NPR>  (87) 
1.236662

>  <Sum_NPR_1.07>  (87) 
True

>  <Sum_NPR_1.2>  (87) 
True

>  <MaxAbsEStateIndex>  (87) 
11.278955

>  <MaxEStateIndex>  (87) 
11.278955

>  <MinAbsEStateIndex>  (87) 
0.065524

>  <MinEStateIndex>  (87) 
-5.851432

>  <qed>  (87) 
0.378904

>  <MolWt>  (87) 
424.179

>  <HeavyAtomMolWt>  (87) 
412.083

>  <ExactMolWt>  (87) 
424.007586

>  <NumValenceElectrons>  (87) 
150

>  <NumRadicalElectrons>  (87) 
0

>  <MaxPartialCharge>  (87) 
0.271368

>  <MinPartialCharge>  (87) 
-0.789509

>  <MaxAbsPartialCharge>  (87) 
0.789509

>  <MinAbsPartialCharge>  (87) 
0.271368

>  <FpDensityMorgan1>  (87) 
1.222222

>  <FpDensityMorgan2>  (87) 
1.925926

>  <FpDensityMorgan3>  (87) 
2.592593

>  <BCUT2D_MWHI>  (87) 
31.27025

>  <BCUT2D_MWLOW>  (87) 
10.128388

>  <BCUT2D_CHGHI>  (87) 
2.444842

>  <BCUT2D_CHGLO>  (87) 
-2.350424

>  <BCUT2D_LOGPHI>  (87) 
2.503664

>  <BCUT2D_LOGPLOW>  (87) 
-2.337741

>  <BCUT2D_MRHI>  (87) 
7.580921

>  <BCUT2D_MRLOW>  (87) 
-0.339423

>  <AvgIpc>  (87) 
3.072773

>  <BalabanJ>  (87) 
1.748652

>  <BertzCT>  (87) 
932.232873

>  <Chi0>  (87) 
19.982763

>  <Chi0n>  (87) 
13.092254

>  <Chi0v>  (87) 
14.881108

>  <Chi1>  (87) 
12.483782

>  <Chi1n>  (87) 
7.119416

>  <Chi1v>  (87) 
10.040603

>  <Chi2n>  (87) 
5.401088

>  <Chi2v>  (87) 
8.101339

>  <Chi3n>  (87) 
3.595354

>  <Chi3v>  (87) 
5.660653

>  <Chi4n>  (87) 
2.463726

>  <Chi4v>  (87) 
3.961582

>  <HallKierAlpha>  (87) 
-1.51

>  <Ipc>  (87) 
807942.564302

>  <Kappa1>  (87) 
20.230095

>  <Kappa2>  (87) 
7.144568

>  <Kappa3>  (87) 
4.329348

>  <LabuteASA>  (87) 
149.760939

>  <PEOE_VSA1>  (87) 
44.452615

>  <PEOE_VSA10>  (87) 
30.15592

>  <PEOE_VSA11>  (87) 
17.692941

>  <PEOE_VSA12>  (87) 
0.0

>  <PEOE_VSA13>  (87) 
7.822697

>  <PEOE_VSA14>  (87) 
0.0

>  <PEOE_VSA2>  (87) 
13.442779

>  <PEOE_VSA3>  (87) 
14.951936

>  <PEOE_VSA4>  (87) 
0.0

>  <PEOE_VSA5>  (87) 
0.0

>  <PEOE_VSA6>  (87) 
0.0

>  <PEOE_VSA7>  (87) 
0.0

>  <PEOE_VSA8>  (87) 
0.0

>  <PEOE_VSA9>  (87) 
20.756899

>  <SMR_VSA1>  (87) 
47.594628

>  <SMR_VSA10>  (87) 
32.627135

>  <SMR_VSA2>  (87) 
0.0

>  <SMR_VSA3>  (87) 
19.519035

>  <SMR_VSA4>  (87) 
0.0

>  <SMR_VSA5>  (87) 
24.5398

>  <SMR_VSA6>  (87) 
12.340549

>  <SMR_VSA7>  (87) 
12.65464

>  <SMR_VSA8>  (87) 
0.0

>  <SMR_VSA9>  (87) 
0.0

>  <SlogP_VSA1>  (87) 
20.413902

>  <SlogP_VSA10>  (87) 
5.817863

>  <SlogP_VSA11>  (87) 
0.0

>  <SlogP_VSA12>  (87) 
15.645394

>  <SlogP_VSA2>  (87) 
54.650871

>  <SlogP_VSA3>  (87) 
22.701338

>  <SlogP_VSA4>  (87) 
0.0

>  <SlogP_VSA5>  (87) 
6.227901

>  <SlogP_VSA6>  (87) 
12.65464

>  <SlogP_VSA7>  (87) 
0.0

>  <SlogP_VSA8>  (87) 
11.163878

>  <SlogP_VSA9>  (87) 
0.0

>  <EState_VSA1>  (87) 
46.792077

>  <EState_VSA10>  (87) 
34.023386

>  <EState_VSA11>  (87) 
0.0

>  <EState_VSA2>  (87) 
16.981741

>  <EState_VSA3>  (87) 
0.0

>  <EState_VSA4>  (87) 
6.32732

>  <EState_VSA5>  (87) 
10.89442

>  <EState_VSA6>  (87) 
0.0

>  <EState_VSA7>  (87) 
0.0

>  <EState_VSA8>  (87) 
23.786314

>  <EState_VSA9>  (87) 
10.47053

>  <VSA_EState1>  (87) 
35.749107

>  <VSA_EState10>  (87) 
0.0

>  <VSA_EState2>  (87) 
43.665953

>  <VSA_EState3>  (87) 
20.193372

>  <VSA_EState4>  (87) 
6.037581

>  <VSA_EState5>  (87) 
0.065524

>  <VSA_EState6>  (87) 
0.0

>  <VSA_EState7>  (87) 
-3.478964

>  <VSA_EState8>  (87) 
-0.931293

>  <VSA_EState9>  (87) 
-11.356836

>  <FractionCSP3>  (87) 
0.5

>  <HeavyAtomCount>  (87) 
27

>  <NHOHCount>  (87) 
4

>  <NOCount>  (87) 
15

>  <NumAliphaticCarbocycles>  (87) 
0

>  <NumAliphaticHeterocycles>  (87) 
1

>  <NumAliphaticRings>  (87) 
1

>  <NumAromaticCarbocycles>  (87) 
0

>  <NumAromaticHeterocycles>  (87) 
2

>  <NAR>  (87) 
2

>  <NumHAcceptors>  (87) 
15

>  <NumHDonors>  (87) 
3

>  <NumHeteroatoms>  (87) 
17

>  <NumRotatableBonds>  (87) 
6

>  <NumSaturatedCarbocycles>  (87) 
0

>  <NumSaturatedHeterocycles>  (87) 
1

>  <NumSaturatedRings>  (87) 
1

>  <RingCount>  (87) 
3

>  <MolLogP>  (87) 
-3.642

>  <MolMR>  (87) 
77.909

>  <fr_Al_COO>  (87) 
0

>  <fr_Al_OH>  (87) 
2

>  <fr_Al_OH_noTert>  (87) 
2

>  <fr_ArN>  (87) 
1

>  <fr_Ar_COO>  (87) 
0

>  <fr_Ar_N>  (87) 
4

>  <fr_Ar_NH>  (87) 
0

>  <fr_Ar_OH>  (87) 
0

>  <fr_COO>  (87) 
0

>  <fr_COO2>  (87) 
0

>  <fr_C_O>  (87) 
0

>  <fr_C_O_noCOO>  (87) 
0

>  <fr_C_S>  (87) 
0

>  <fr_HOCCN>  (87) 
0

>  <fr_Imine>  (87) 
0

>  <fr_NH0>  (87) 
4

>  <fr_NH1>  (87) 
0

>  <fr_NH2>  (87) 
1

>  <fr_N_O>  (87) 
0

>  <fr_Ndealkylation1>  (87) 
0

>  <fr_Ndealkylation2>  (87) 
0

>  <fr_Nhpyrrole>  (87) 
0

>  <fr_SH>  (87) 
0

>  <fr_aldehyde>  (87) 
0

>  <fr_alkyl_carbamate>  (87) 
0

>  <fr_alkyl_halide>  (87) 
0

>  <fr_allylic_oxid>  (87) 
0

>  <fr_amide>  (87) 
0

>  <fr_amidine>  (87) 
0

>  <fr_aniline>  (87) 
1

>  <fr_aryl_methyl>  (87) 
0

>  <fr_azide>  (87) 
0

>  <fr_azo>  (87) 
0

>  <fr_barbitur>  (87) 
0

>  <fr_benzene>  (87) 
0

>  <fr_benzodiazepine>  (87) 
0

>  <fr_bicyclic>  (87) 
1

>  <fr_diazo>  (87) 
0

>  <fr_dihydropyridine>  (87) 
0

>  <fr_epoxide>  (87) 
0

>  <fr_ester>  (87) 
0

>  <fr_ether>  (87) 
1

>  <fr_furan>  (87) 
0

>  <fr_guanido>  (87) 
0

>  <fr_halogen>  (87) 
0

>  <fr_hdrzine>  (87) 
0

>  <fr_hdrzone>  (87) 
0

>  <fr_imidazole>  (87) 
1

>  <fr_imide>  (87) 
0

>  <fr_isocyan>  (87) 
0

>  <fr_isothiocyan>  (87) 
0

>  <fr_ketone>  (87) 
0

>  <fr_ketone_Topliss>  (87) 
0

>  <fr_lactam>  (87) 
0

>  <fr_lactone>  (87) 
0

>  <fr_methoxy>  (87) 
0

>  <fr_morpholine>  (87) 
0

>  <fr_nitrile>  (87) 
0

>  <fr_nitro>  (87) 
0

>  <fr_nitro_arom>  (87) 
0

>  <fr_nitro_arom_nonortho>  (87) 
0

>  <fr_nitroso>  (87) 
0

>  <fr_oxazole>  (87) 
0

>  <fr_oxime>  (87) 
0

>  <fr_para_hydroxylation>  (87) 
0

>  <fr_phenol>  (87) 
0

>  <fr_phenol_noOrthoHbond>  (87) 
0

>  <fr_phos_acid>  (87) 
2

>  <fr_phos_ester>  (87) 
1

>  <fr_piperdine>  (87) 
0

>  <fr_piperzine>  (87) 
0

>  <fr_priamide>  (87) 
0

>  <fr_prisulfonamd>  (87) 
0

>  <fr_pyridine>  (87) 
0

>  <fr_quatN>  (87) 
0

>  <fr_sulfide>  (87) 
0

>  <fr_sulfonamd>  (87) 
0

>  <fr_sulfone>  (87) 
0

>  <fr_term_acetylene>  (87) 
0

>  <fr_tetrazole>  (87) 
0

>  <fr_thiazole>  (87) 
0

>  <fr_thiocyan>  (87) 
0

>  <fr_thiophene>  (87) 
0

>  <fr_unbrch_alkane>  (87) 
0

>  <fr_urea>  (87) 
0

>  <NP-Likeness>  (87) 
0.931308

$$$$
ADP
     RDKit          3D

  0  0  0  0  0  0  0  0  0  0999 V3000
M  V30 BEGIN CTAB
M  V30 COUNTS 39 41 0 0 0
M  V30 BEGIN ATOM
M  V30 1 O -0.948285 -0.438583 4.255156 0
M  V30 2 C -0.411171 -0.255040 2.979968 0 CFG=1
M  V30 3 C 1.092178 -0.234105 3.045441 0 CFG=1
M  V30 4 O 1.474056 -0.912258 4.222552 0
M  V30 5 C 1.506228 -0.966081 1.819101 0 CFG=2
M  V30 6 N 2.233989 -0.193765 0.858355 0
M  V30 7 C 3.405953 -0.569193 0.290616 0
M  V30 8 N 3.775171 0.412104 -0.553372 0
M  V30 9 C 2.841851 1.378111 -0.504725 0
M  V30 10 C 1.841459 1.007625 0.397855 0
M  V30 11 N 0.833709 1.848388 0.572746 0
M  V30 12 C 0.798356 3.009814 -0.105821 0
M  V30 13 N 1.756149 3.378451 -0.978390 0
M  V30 14 C 2.825105 2.577588 -1.218927 0
M  V30 15 N 3.876306 2.894850 -2.123767 0
M  V30 16 O 0.375978 -1.480544 1.215317 0
M  V30 17 C -0.633812 -1.513038 2.138200 0 CFG=2
M  V30 18 C -2.014257 -1.365032 1.534430 0
M  V30 19 O -2.203385 -2.413883 0.644895 0
M  V30 20 P -3.712747 -2.369453 -0.103693 0 CFG=2 VAL=5
M  V30 21 O -4.183525 -0.939805 -0.202494 0
M  V30 22 O -4.824228 -3.304172 0.763507 0 CHG=-1 VAL=1
M  V30 23 O -3.512953 -3.048156 -1.649054 0
M  V30 24 P -2.467036 -4.373660 -1.493633 0
M  V30 25 O -3.034914 -5.398648 -0.528818 0
M  V30 26 O -2.251903 -5.116515 -3.005593 0 CHG=-1 VAL=1
M  V30 27 O -0.976837 -3.814647 -0.958446 0 CHG=-1 VAL=1
M  V30 28 H -1.249546 0.460417 4.565166 0
M  V30 29 H -0.849340 0.579238 2.433626 0
M  V30 30 H 1.506209 0.786595 3.129986 0
M  V30 31 H 2.375076 -0.559672 4.486506 0
M  V30 32 H 2.104238 -1.862424 2.148636 0
M  V30 33 H 3.911678 -1.512796 0.518410 0
M  V30 34 H 0.006807 3.762144 -0.024072 0
M  V30 35 H 4.664131 3.602715 -2.092400 0
M  V30 36 H 4.178059 2.540901 -3.055154 0
M  V30 37 H -0.589421 -2.343916 2.868457 0
M  V30 38 H -2.757307 -1.531700 2.351388 0
M  V30 39 H -2.175056 -0.362661 1.104157 0
M  V30 END ATOM
M  V30 BEGIN BOND
M  V30 1 1 1 2
M  V30 2 1 2 3
M  V30 3 1 3 4
M  V30 4 1 3 5
M  V30 5 1 5 6
M  V30 6 1 6 7
M  V30 7 2 7 8
M  V30 8 1 8 9
M  V30 9 2 9 10
M  V30 10 1 10 11
M  V30 11 2 11 12
M  V30 12 1 12 13
M  V30 13 2 13 14
M  V30 14 1 14 15
M  V30 15 1 5 16
M  V30 16 1 16 17
M  V30 17 1 17 18
M  V30 18 1 18 19
M  V30 19 1 19 20
M  V30 20 2 20 21
M  V30 21 1 20 22 CFG=1
M  V30 22 1 20 23
M  V30 23 1 23 24
M  V30 24 2 24 25
M  V30 25 1 24 26
M  V30 26 1 24 27
M  V30 27 1 17 2
M  V30 28 1 10 6
M  V30 29 1 14 9
M  V30 30 1 1 28
M  V30 31 1 2 29 CFG=3
M  V30 32 1 3 30 CFG=1
M  V30 33 1 4 31
M  V30 34 1 5 32 CFG=1
M  V30 35 1 7 33
M  V30 36 1 12 34
M  V30 37 1 15 35
M  V30 38 1 15 36
M  V30 39 1 17 37 CFG=1
M  V30 40 1 18 38
M  V30 41 1 18 39
M  V30 END BOND
M  V30 END CTAB
M  END
>  <Dataset>  (88) 
PDB

>  <Ligand_Instance>  (88) 
4DH5_ADP_A_403

>  <PDB_ID>  (88) 
4DH5

>  <Standardized_SMILES>  (88) 
[H]O[C@@]1([H])[C@@]([H])(O[H])[C@]([H])(N2C([H])=NC3=C2N=C([H])N=C3N([H])[H])O[C@]1([H])C([H])([H])O[P@](=O)([O-])OP(=O)([O-])[O-]

>  <Name>  (88) 
ADENOSINE-5'-DIPHOSPHATE

>  <Pocket>  (88) 
A

>  <ATP_Site>  (88) 
1.0

>  <Peripheral>  (88) 
0.0

>  <Num_H_Atoms_ProtBoundConf>  (88) 
12.0

>  <Num_Resolved_Atoms>  (88) 
27.0

>  <Num_Not_Resolved_Atoms>  (88) 
0.0

>  <2D_Mol_H>  (88) 
<rdkit.Chem.rdchem.Mol object at 0x72a238dc7450>

>  <MW>  (88) 
424.179

>  <HBA>  (88) 
15

>  <HBD>  (88) 
3

>  <LogP>  (88) 
-3.642

>  <NRB>  (88) 
9

>  <TPSA>  (88) 
241.09

>  <Num_Heavy_Atoms>  (88) 
27

>  <Ro5>  (88) 
[True, False, True, True, True, False]

>  <Ro5_Fulfilled>  (88) 
False

>  <Ro3>  (88) 
[False, False, True, True]

>  <Ro3_Fulfilled>  (88) 
False

>  <Fsp3>  (88) 
0.5

>  <Fsp3_0.42>  (88) 
True

>  <Fsp3_0.45>  (88) 
True

>  <Stereogenic_Carbons>  (88) 
4

>  <C_Atoms>  (88) 
10

>  <FCStereo>  (88) 
0.4

>  <SPS>  (88) 
769

>  <nSPS>  (88) 
28.481481

>  <PBF>  (88) 
1.2091

>  <PBF_0.6>  (88) 
True

>  <nPBF>  (88) 
0.044781

>  <nPBF_0.016>  (88) 
True

>  <PMI1>  (88) 
2079.437579

>  <PMI2>  (88) 
5362.911313

>  <PMI3>  (88) 
6018.095926

>  <NPR1>  (88) 
0.345531

>  <NPR2>  (88) 
0.891131

>  <Sum_NPR>  (88) 
1.236662

>  <Sum_NPR_1.07>  (88) 
True

>  <Sum_NPR_1.2>  (88) 
True

>  <MaxAbsEStateIndex>  (88) 
11.278955

>  <MaxEStateIndex>  (88) 
11.278955

>  <MinAbsEStateIndex>  (88) 
0.065524

>  <MinEStateIndex>  (88) 
-5.851432

>  <qed>  (88) 
0.378904

>  <MolWt>  (88) 
424.179

>  <HeavyAtomMolWt>  (88) 
412.083

>  <ExactMolWt>  (88) 
424.007586

>  <NumValenceElectrons>  (88) 
150

>  <NumRadicalElectrons>  (88) 
0

>  <MaxPartialCharge>  (88) 
0.271368

>  <MinPartialCharge>  (88) 
-0.789509

>  <MaxAbsPartialCharge>  (88) 
0.789509

>  <MinAbsPartialCharge>  (88) 
0.271368

>  <FpDensityMorgan1>  (88) 
1.222222

>  <FpDensityMorgan2>  (88) 
1.925926

>  <FpDensityMorgan3>  (88) 
2.592593

>  <BCUT2D_MWHI>  (88) 
31.27025

>  <BCUT2D_MWLOW>  (88) 
10.128388

>  <BCUT2D_CHGHI>  (88) 
2.444842

>  <BCUT2D_CHGLO>  (88) 
-2.350424

>  <BCUT2D_LOGPHI>  (88) 
2.503664

>  <BCUT2D_LOGPLOW>  (88) 
-2.337741

>  <BCUT2D_MRHI>  (88) 
7.580921

>  <BCUT2D_MRLOW>  (88) 
-0.339423

>  <AvgIpc>  (88) 
3.072773

>  <BalabanJ>  (88) 
1.748652

>  <BertzCT>  (88) 
932.232873

>  <Chi0>  (88) 
19.982763

>  <Chi0n>  (88) 
13.092254

>  <Chi0v>  (88) 
14.881108

>  <Chi1>  (88) 
12.483782

>  <Chi1n>  (88) 
7.119416

>  <Chi1v>  (88) 
10.040603

>  <Chi2n>  (88) 
5.401088

>  <Chi2v>  (88) 
8.101339

>  <Chi3n>  (88) 
3.595354

>  <Chi3v>  (88) 
5.660653

>  <Chi4n>  (88) 
2.463726

>  <Chi4v>  (88) 
3.961582

>  <HallKierAlpha>  (88) 
-1.51

>  <Ipc>  (88) 
807942.564302

>  <Kappa1>  (88) 
20.230095

>  <Kappa2>  (88) 
7.144568

>  <Kappa3>  (88) 
4.329348

>  <LabuteASA>  (88) 
149.760939

>  <PEOE_VSA1>  (88) 
44.452615

>  <PEOE_VSA10>  (88) 
30.15592

>  <PEOE_VSA11>  (88) 
17.692941

>  <PEOE_VSA12>  (88) 
0.0

>  <PEOE_VSA13>  (88) 
7.822697

>  <PEOE_VSA14>  (88) 
0.0

>  <PEOE_VSA2>  (88) 
13.442779

>  <PEOE_VSA3>  (88) 
14.951936

>  <PEOE_VSA4>  (88) 
0.0

>  <PEOE_VSA5>  (88) 
0.0

>  <PEOE_VSA6>  (88) 
0.0

>  <PEOE_VSA7>  (88) 
0.0

>  <PEOE_VSA8>  (88) 
0.0

>  <PEOE_VSA9>  (88) 
20.756899

>  <SMR_VSA1>  (88) 
47.594628

>  <SMR_VSA10>  (88) 
32.627135

>  <SMR_VSA2>  (88) 
0.0

>  <SMR_VSA3>  (88) 
19.519035

>  <SMR_VSA4>  (88) 
0.0

>  <SMR_VSA5>  (88) 
24.5398

>  <SMR_VSA6>  (88) 
12.340549

>  <SMR_VSA7>  (88) 
12.65464

>  <SMR_VSA8>  (88) 
0.0

>  <SMR_VSA9>  (88) 
0.0

>  <SlogP_VSA1>  (88) 
20.413902

>  <SlogP_VSA10>  (88) 
5.817863

>  <SlogP_VSA11>  (88) 
0.0

>  <SlogP_VSA12>  (88) 
15.645394

>  <SlogP_VSA2>  (88) 
54.650871

>  <SlogP_VSA3>  (88) 
22.701338

>  <SlogP_VSA4>  (88) 
0.0

>  <SlogP_VSA5>  (88) 
6.227901

>  <SlogP_VSA6>  (88) 
12.65464

>  <SlogP_VSA7>  (88) 
0.0

>  <SlogP_VSA8>  (88) 
11.163878

>  <SlogP_VSA9>  (88) 
0.0

>  <EState_VSA1>  (88) 
46.792077

>  <EState_VSA10>  (88) 
34.023386

>  <EState_VSA11>  (88) 
0.0

>  <EState_VSA2>  (88) 
16.981741

>  <EState_VSA3>  (88) 
0.0

>  <EState_VSA4>  (88) 
6.32732

>  <EState_VSA5>  (88) 
10.89442

>  <EState_VSA6>  (88) 
0.0

>  <EState_VSA7>  (88) 
0.0

>  <EState_VSA8>  (88) 
23.786314

>  <EState_VSA9>  (88) 
10.47053

>  <VSA_EState1>  (88) 
35.749107

>  <VSA_EState10>  (88) 
0.0

>  <VSA_EState2>  (88) 
43.665953

>  <VSA_EState3>  (88) 
20.193372

>  <VSA_EState4>  (88) 
6.037581

>  <VSA_EState5>  (88) 
0.065524

>  <VSA_EState6>  (88) 
0.0

>  <VSA_EState7>  (88) 
-3.478964

>  <VSA_EState8>  (88) 
-0.931293

>  <VSA_EState9>  (88) 
-11.356836

>  <FractionCSP3>  (88) 
0.5

>  <HeavyAtomCount>  (88) 
27

>  <NHOHCount>  (88) 
4

>  <NOCount>  (88) 
15

>  <NumAliphaticCarbocycles>  (88) 
0

>  <NumAliphaticHeterocycles>  (88) 
1

>  <NumAliphaticRings>  (88) 
1

>  <NumAromaticCarbocycles>  (88) 
0

>  <NumAromaticHeterocycles>  (88) 
2

>  <NAR>  (88) 
2

>  <NumHAcceptors>  (88) 
15

>  <NumHDonors>  (88) 
3

>  <NumHeteroatoms>  (88) 
17

>  <NumRotatableBonds>  (88) 
6

>  <NumSaturatedCarbocycles>  (88) 
0

>  <NumSaturatedHeterocycles>  (88) 
1

>  <NumSaturatedRings>  (88) 
1

>  <RingCount>  (88) 
3

>  <MolLogP>  (88) 
-3.642

>  <MolMR>  (88) 
77.909

>  <fr_Al_COO>  (88) 
0

>  <fr_Al_OH>  (88) 
2

>  <fr_Al_OH_noTert>  (88) 
2

>  <fr_ArN>  (88) 
1

>  <fr_Ar_COO>  (88) 
0

>  <fr_Ar_N>  (88) 
4

>  <fr_Ar_NH>  (88) 
0

>  <fr_Ar_OH>  (88) 
0

>  <fr_COO>  (88) 
0

>  <fr_COO2>  (88) 
0

>  <fr_C_O>  (88) 
0

>  <fr_C_O_noCOO>  (88) 
0

>  <fr_C_S>  (88) 
0

>  <fr_HOCCN>  (88) 
0

>  <fr_Imine>  (88) 
0

>  <fr_NH0>  (88) 
4

>  <fr_NH1>  (88) 
0

>  <fr_NH2>  (88) 
1

>  <fr_N_O>  (88) 
0

>  <fr_Ndealkylation1>  (88) 
0

>  <fr_Ndealkylation2>  (88) 
0

>  <fr_Nhpyrrole>  (88) 
0

>  <fr_SH>  (88) 
0

>  <fr_aldehyde>  (88) 
0

>  <fr_alkyl_carbamate>  (88) 
0

>  <fr_alkyl_halide>  (88) 
0

>  <fr_allylic_oxid>  (88) 
0

>  <fr_amide>  (88) 
0

>  <fr_amidine>  (88) 
0

>  <fr_aniline>  (88) 
1

>  <fr_aryl_methyl>  (88) 
0

>  <fr_azide>  (88) 
0

>  <fr_azo>  (88) 
0

>  <fr_barbitur>  (88) 
0

>  <fr_benzene>  (88) 
0

>  <fr_benzodiazepine>  (88) 
0

>  <fr_bicyclic>  (88) 
1

>  <fr_diazo>  (88) 
0

>  <fr_dihydropyridine>  (88) 
0

>  <fr_epoxide>  (88) 
0

>  <fr_ester>  (88) 
0

>  <fr_ether>  (88) 
1

>  <fr_furan>  (88) 
0

>  <fr_guanido>  (88) 
0

>  <fr_halogen>  (88) 
0

>  <fr_hdrzine>  (88) 
0

>  <fr_hdrzone>  (88) 
0

>  <fr_imidazole>  (88) 
1

>  <fr_imide>  (88) 
0

>  <fr_isocyan>  (88) 
0

>  <fr_isothiocyan>  (88) 
0

>  <fr_ketone>  (88) 
0

>  <fr_ketone_Topliss>  (88) 
0

>  <fr_lactam>  (88) 
0

>  <fr_lactone>  (88) 
0

>  <fr_methoxy>  (88) 
0

>  <fr_morpholine>  (88) 
0

>  <fr_nitrile>  (88) 
0

>  <fr_nitro>  (88) 
0

>  <fr_nitro_arom>  (88) 
0

>  <fr_nitro_arom_nonortho>  (88) 
0

>  <fr_nitroso>  (88) 
0

>  <fr_oxazole>  (88) 
0

>  <fr_oxime>  (88) 
0

>  <fr_para_hydroxylation>  (88) 
0

>  <fr_phenol>  (88) 
0

>  <fr_phenol_noOrthoHbond>  (88) 
0

>  <fr_phos_acid>  (88) 
2

>  <fr_phos_ester>  (88) 
1

>  <fr_piperdine>  (88) 
0

>  <fr_piperzine>  (88) 
0

>  <fr_priamide>  (88) 
0

>  <fr_prisulfonamd>  (88) 
0

>  <fr_pyridine>  (88) 
0

>  <fr_quatN>  (88) 
0

>  <fr_sulfide>  (88) 
0

>  <fr_sulfonamd>  (88) 
0

>  <fr_sulfone>  (88) 
0

>  <fr_term_acetylene>  (88) 
0

>  <fr_tetrazole>  (88) 
0

>  <fr_thiazole>  (88) 
0

>  <fr_thiocyan>  (88) 
0

>  <fr_thiophene>  (88) 
0

>  <fr_unbrch_alkane>  (88) 
0

>  <fr_urea>  (88) 
0

>  <NP-Likeness>  (88) 
0.931308

$$$$
ADP
     RDKit          3D

  0  0  0  0  0  0  0  0  0  0999 V3000
M  V30 BEGIN CTAB
M  V30 COUNTS 39 41 0 0 0
M  V30 BEGIN ATOM
M  V30 1 O -0.948285 -0.438583 4.255156 0
M  V30 2 C -0.411171 -0.255040 2.979968 0 CFG=1
M  V30 3 C 1.092178 -0.234105 3.045441 0 CFG=1
M  V30 4 O 1.474056 -0.912258 4.222552 0
M  V30 5 C 1.506228 -0.966081 1.819101 0 CFG=2
M  V30 6 N 2.233989 -0.193765 0.858355 0
M  V30 7 C 3.405953 -0.569193 0.290616 0
M  V30 8 N 3.775171 0.412104 -0.553372 0
M  V30 9 C 2.841851 1.378111 -0.504725 0
M  V30 10 C 1.841459 1.007625 0.397855 0
M  V30 11 N 0.833709 1.848388 0.572746 0
M  V30 12 C 0.798356 3.009814 -0.105821 0
M  V30 13 N 1.756149 3.378451 -0.978390 0
M  V30 14 C 2.825105 2.577588 -1.218927 0
M  V30 15 N 3.876306 2.894850 -2.123767 0
M  V30 16 O 0.375978 -1.480544 1.215317 0
M  V30 17 C -0.633812 -1.513038 2.138200 0 CFG=2
M  V30 18 C -2.014257 -1.365032 1.534430 0
M  V30 19 O -2.203385 -2.413883 0.644895 0
M  V30 20 P -3.712747 -2.369453 -0.103693 0 CFG=2 VAL=5
M  V30 21 O -4.183525 -0.939805 -0.202494 0
M  V30 22 O -4.824228 -3.304172 0.763507 0 CHG=-1 VAL=1
M  V30 23 O -3.512953 -3.048156 -1.649054 0
M  V30 24 P -2.467036 -4.373660 -1.493633 0
M  V30 25 O -3.034914 -5.398648 -0.528818 0
M  V30 26 O -2.251903 -5.116515 -3.005593 0 CHG=-1 VAL=1
M  V30 27 O -0.976837 -3.814647 -0.958446 0 CHG=-1 VAL=1
M  V30 28 H -1.249546 0.460417 4.565166 0
M  V30 29 H -0.849340 0.579238 2.433626 0
M  V30 30 H 1.506209 0.786595 3.129986 0
M  V30 31 H 2.375076 -0.559672 4.486506 0
M  V30 32 H 2.104238 -1.862424 2.148636 0
M  V30 33 H 3.911678 -1.512796 0.518410 0
M  V30 34 H 0.006807 3.762144 -0.024072 0
M  V30 35 H 4.664131 3.602715 -2.092400 0
M  V30 36 H 4.178059 2.540901 -3.055154 0
M  V30 37 H -0.589421 -2.343916 2.868457 0
M  V30 38 H -2.757307 -1.531700 2.351388 0
M  V30 39 H -2.175056 -0.362661 1.104157 0
M  V30 END ATOM
M  V30 BEGIN BOND
M  V30 1 1 1 2
M  V30 2 1 2 3
M  V30 3 1 3 4
M  V30 4 1 3 5
M  V30 5 1 5 6
M  V30 6 1 6 7
M  V30 7 2 7 8
M  V30 8 1 8 9
M  V30 9 2 9 10
M  V30 10 1 10 11
M  V30 11 2 11 12
M  V30 12 1 12 13
M  V30 13 2 13 14
M  V30 14 1 14 15
M  V30 15 1 5 16
M  V30 16 1 16 17
M  V30 17 1 17 18
M  V30 18 1 18 19
M  V30 19 1 19 20
M  V30 20 2 20 21
M  V30 21 1 20 22 CFG=1
M  V30 22 1 20 23
M  V30 23 1 23 24
M  V30 24 2 24 25
M  V30 25 1 24 26
M  V30 26 1 24 27
M  V30 27 1 17 2
M  V30 28 1 10 6
M  V30 29 1 14 9
M  V30 30 1 1 28
M  V30 31 1 2 29 CFG=3
M  V30 32 1 3 30 CFG=1
M  V30 33 1 4 31
M  V30 34 1 5 32 CFG=1
M  V30 35 1 7 33
M  V30 36 1 12 34
M  V30 37 1 15 35
M  V30 38 1 15 36
M  V30 39 1 17 37 CFG=1
M  V30 40 1 18 38
M  V30 41 1 18 39
M  V30 END BOND
M  V30 END CTAB
M  END
>  <Dataset>  (89) 
PDB

>  <Ligand_Instance>  (89) 
4IAD_ADP_A_403

>  <PDB_ID>  (89) 
4IAD

>  <Standardized_SMILES>  (89) 
[H]O[C@@]1([H])[C@@]([H])(O[H])[C@]([H])(N2C([H])=NC3=C2N=C([H])N=C3N([H])[H])O[C@]1([H])C([H])([H])O[P@](=O)([O-])OP(=O)([O-])[O-]

>  <Name>  (89) 
ADENOSINE-5'-DIPHOSPHATE

>  <Pocket>  (89) 
A

>  <ATP_Site>  (89) 
1.0

>  <Peripheral>  (89) 
0.0

>  <Num_H_Atoms_ProtBoundConf>  (89) 
12.0

>  <Num_Resolved_Atoms>  (89) 
27.0

>  <Num_Not_Resolved_Atoms>  (89) 
0.0

>  <2D_Mol_H>  (89) 
<rdkit.Chem.rdchem.Mol object at 0x72a238dc7530>

>  <MW>  (89) 
424.179

>  <HBA>  (89) 
15

>  <HBD>  (89) 
3

>  <LogP>  (89) 
-3.642

>  <NRB>  (89) 
9

>  <TPSA>  (89) 
241.09

>  <Num_Heavy_Atoms>  (89) 
27

>  <Ro5>  (89) 
[True, False, True, True, True, False]

>  <Ro5_Fulfilled>  (89) 
False

>  <Ro3>  (89) 
[False, False, True, True]

>  <Ro3_Fulfilled>  (89) 
False

>  <Fsp3>  (89) 
0.5

>  <Fsp3_0.42>  (89) 
True

>  <Fsp3_0.45>  (89) 
True

>  <Stereogenic_Carbons>  (89) 
4

>  <C_Atoms>  (89) 
10

>  <FCStereo>  (89) 
0.4

>  <SPS>  (89) 
769

>  <nSPS>  (89) 
28.481481

>  <PBF>  (89) 
1.2091

>  <PBF_0.6>  (89) 
True

>  <nPBF>  (89) 
0.044781

>  <nPBF_0.016>  (89) 
True

>  <PMI1>  (89) 
2079.437579

>  <PMI2>  (89) 
5362.911313

>  <PMI3>  (89) 
6018.095926

>  <NPR1>  (89) 
0.345531

>  <NPR2>  (89) 
0.891131

>  <Sum_NPR>  (89) 
1.236662

>  <Sum_NPR_1.07>  (89) 
True

>  <Sum_NPR_1.2>  (89) 
True

>  <MaxAbsEStateIndex>  (89) 
11.278955

>  <MaxEStateIndex>  (89) 
11.278955

>  <MinAbsEStateIndex>  (89) 
0.065524

>  <MinEStateIndex>  (89) 
-5.851432

>  <qed>  (89) 
0.378904

>  <MolWt>  (89) 
424.179

>  <HeavyAtomMolWt>  (89) 
412.083

>  <ExactMolWt>  (89) 
424.007586

>  <NumValenceElectrons>  (89) 
150

>  <NumRadicalElectrons>  (89) 
0

>  <MaxPartialCharge>  (89) 
0.271368

>  <MinPartialCharge>  (89) 
-0.789509

>  <MaxAbsPartialCharge>  (89) 
0.789509

>  <MinAbsPartialCharge>  (89) 
0.271368

>  <FpDensityMorgan1>  (89) 
1.222222

>  <FpDensityMorgan2>  (89) 
1.925926

>  <FpDensityMorgan3>  (89) 
2.592593

>  <BCUT2D_MWHI>  (89) 
31.27025

>  <BCUT2D_MWLOW>  (89) 
10.128388

>  <BCUT2D_CHGHI>  (89) 
2.444842

>  <BCUT2D_CHGLO>  (89) 
-2.350424

>  <BCUT2D_LOGPHI>  (89) 
2.503664

>  <BCUT2D_LOGPLOW>  (89) 
-2.337741

>  <BCUT2D_MRHI>  (89) 
7.580921

>  <BCUT2D_MRLOW>  (89) 
-0.339423

>  <AvgIpc>  (89) 
3.072773

>  <BalabanJ>  (89) 
1.748652

>  <BertzCT>  (89) 
932.232873

>  <Chi0>  (89) 
19.982763

>  <Chi0n>  (89) 
13.092254

>  <Chi0v>  (89) 
14.881108

>  <Chi1>  (89) 
12.483782

>  <Chi1n>  (89) 
7.119416

>  <Chi1v>  (89) 
10.040603

>  <Chi2n>  (89) 
5.401088

>  <Chi2v>  (89) 
8.101339

>  <Chi3n>  (89) 
3.595354

>  <Chi3v>  (89) 
5.660653

>  <Chi4n>  (89) 
2.463726

>  <Chi4v>  (89) 
3.961582

>  <HallKierAlpha>  (89) 
-1.51

>  <Ipc>  (89) 
807942.564302

>  <Kappa1>  (89) 
20.230095

>  <Kappa2>  (89) 
7.144568

>  <Kappa3>  (89) 
4.329348

>  <LabuteASA>  (89) 
149.760939

>  <PEOE_VSA1>  (89) 
44.452615

>  <PEOE_VSA10>  (89) 
30.15592

>  <PEOE_VSA11>  (89) 
17.692941

>  <PEOE_VSA12>  (89) 
0.0

>  <PEOE_VSA13>  (89) 
7.822697

>  <PEOE_VSA14>  (89) 
0.0

>  <PEOE_VSA2>  (89) 
13.442779

>  <PEOE_VSA3>  (89) 
14.951936

>  <PEOE_VSA4>  (89) 
0.0

>  <PEOE_VSA5>  (89) 
0.0

>  <PEOE_VSA6>  (89) 
0.0

>  <PEOE_VSA7>  (89) 
0.0

>  <PEOE_VSA8>  (89) 
0.0

>  <PEOE_VSA9>  (89) 
20.756899

>  <SMR_VSA1>  (89) 
47.594628

>  <SMR_VSA10>  (89) 
32.627135

>  <SMR_VSA2>  (89) 
0.0

>  <SMR_VSA3>  (89) 
19.519035

>  <SMR_VSA4>  (89) 
0.0

>  <SMR_VSA5>  (89) 
24.5398

>  <SMR_VSA6>  (89) 
12.340549

>  <SMR_VSA7>  (89) 
12.65464

>  <SMR_VSA8>  (89) 
0.0

>  <SMR_VSA9>  (89) 
0.0

>  <SlogP_VSA1>  (89) 
20.413902

>  <SlogP_VSA10>  (89) 
5.817863

>  <SlogP_VSA11>  (89) 
0.0

>  <SlogP_VSA12>  (89) 
15.645394

>  <SlogP_VSA2>  (89) 
54.650871

>  <SlogP_VSA3>  (89) 
22.701338

>  <SlogP_VSA4>  (89) 
0.0

>  <SlogP_VSA5>  (89) 
6.227901

>  <SlogP_VSA6>  (89) 
12.65464

>  <SlogP_VSA7>  (89) 
0.0

>  <SlogP_VSA8>  (89) 
11.163878

>  <SlogP_VSA9>  (89) 
0.0

>  <EState_VSA1>  (89) 
46.792077

>  <EState_VSA10>  (89) 
34.023386

>  <EState_VSA11>  (89) 
0.0

>  <EState_VSA2>  (89) 
16.981741

>  <EState_VSA3>  (89) 
0.0

>  <EState_VSA4>  (89) 
6.32732

>  <EState_VSA5>  (89) 
10.89442

>  <EState_VSA6>  (89) 
0.0

>  <EState_VSA7>  (89) 
0.0

>  <EState_VSA8>  (89) 
23.786314

>  <EState_VSA9>  (89) 
10.47053

>  <VSA_EState1>  (89) 
35.749107

>  <VSA_EState10>  (89) 
0.0

>  <VSA_EState2>  (89) 
43.665953

>  <VSA_EState3>  (89) 
20.193372

>  <VSA_EState4>  (89) 
6.037581

>  <VSA_EState5>  (89) 
0.065524

>  <VSA_EState6>  (89) 
0.0

>  <VSA_EState7>  (89) 
-3.478964

>  <VSA_EState8>  (89) 
-0.931293

>  <VSA_EState9>  (89) 
-11.356836

>  <FractionCSP3>  (89) 
0.5

>  <HeavyAtomCount>  (89) 
27

>  <NHOHCount>  (89) 
4

>  <NOCount>  (89) 
15

>  <NumAliphaticCarbocycles>  (89) 
0

>  <NumAliphaticHeterocycles>  (89) 
1

>  <NumAliphaticRings>  (89) 
1

>  <NumAromaticCarbocycles>  (89) 
0

>  <NumAromaticHeterocycles>  (89) 
2

>  <NAR>  (89) 
2

>  <NumHAcceptors>  (89) 
15

>  <NumHDonors>  (89) 
3

>  <NumHeteroatoms>  (89) 
17

>  <NumRotatableBonds>  (89) 
6

>  <NumSaturatedCarbocycles>  (89) 
0

>  <NumSaturatedHeterocycles>  (89) 
1

>  <NumSaturatedRings>  (89) 
1

>  <RingCount>  (89) 
3

>  <MolLogP>  (89) 
-3.642

>  <MolMR>  (89) 
77.909

>  <fr_Al_COO>  (89) 
0

>  <fr_Al_OH>  (89) 
2

>  <fr_Al_OH_noTert>  (89) 
2

>  <fr_ArN>  (89) 
1

>  <fr_Ar_COO>  (89) 
0

>  <fr_Ar_N>  (89) 
4

>  <fr_Ar_NH>  (89) 
0

>  <fr_Ar_OH>  (89) 
0

>  <fr_COO>  (89) 
0

>  <fr_COO2>  (89) 
0

>  <fr_C_O>  (89) 
0

>  <fr_C_O_noCOO>  (89) 
0

>  <fr_C_S>  (89) 
0

>  <fr_HOCCN>  (89) 
0

>  <fr_Imine>  (89) 
0

>  <fr_NH0>  (89) 
4

>  <fr_NH1>  (89) 
0

>  <fr_NH2>  (89) 
1

>  <fr_N_O>  (89) 
0

>  <fr_Ndealkylation1>  (89) 
0

>  <fr_Ndealkylation2>  (89) 
0

>  <fr_Nhpyrrole>  (89) 
0

>  <fr_SH>  (89) 
0

>  <fr_aldehyde>  (89) 
0

>  <fr_alkyl_carbamate>  (89) 
0

>  <fr_alkyl_halide>  (89) 
0

>  <fr_allylic_oxid>  (89) 
0

>  <fr_amide>  (89) 
0

>  <fr_amidine>  (89) 
0

>  <fr_aniline>  (89) 
1

>  <fr_aryl_methyl>  (89) 
0

>  <fr_azide>  (89) 
0

>  <fr_azo>  (89) 
0

>  <fr_barbitur>  (89) 
0

>  <fr_benzene>  (89) 
0

>  <fr_benzodiazepine>  (89) 
0

>  <fr_bicyclic>  (89) 
1

>  <fr_diazo>  (89) 
0

>  <fr_dihydropyridine>  (89) 
0

>  <fr_epoxide>  (89) 
0

>  <fr_ester>  (89) 
0

>  <fr_ether>  (89) 
1

>  <fr_furan>  (89) 
0

>  <fr_guanido>  (89) 
0

>  <fr_halogen>  (89) 
0

>  <fr_hdrzine>  (89) 
0

>  <fr_hdrzone>  (89) 
0

>  <fr_imidazole>  (89) 
1

>  <fr_imide>  (89) 
0

>  <fr_isocyan>  (89) 
0

>  <fr_isothiocyan>  (89) 
0

>  <fr_ketone>  (89) 
0

>  <fr_ketone_Topliss>  (89) 
0

>  <fr_lactam>  (89) 
0

>  <fr_lactone>  (89) 
0

>  <fr_methoxy>  (89) 
0

>  <fr_morpholine>  (89) 
0

>  <fr_nitrile>  (89) 
0

>  <fr_nitro>  (89) 
0

>  <fr_nitro_arom>  (89) 
0

>  <fr_nitro_arom_nonortho>  (89) 
0

>  <fr_nitroso>  (89) 
0

>  <fr_oxazole>  (89) 
0

>  <fr_oxime>  (89) 
0

>  <fr_para_hydroxylation>  (89) 
0

>  <fr_phenol>  (89) 
0

>  <fr_phenol_noOrthoHbond>  (89) 
0

>  <fr_phos_acid>  (89) 
2

>  <fr_phos_ester>  (89) 
1

>  <fr_piperdine>  (89) 
0

>  <fr_piperzine>  (89) 
0

>  <fr_priamide>  (89) 
0

>  <fr_prisulfonamd>  (89) 
0

>  <fr_pyridine>  (89) 
0

>  <fr_quatN>  (89) 
0

>  <fr_sulfide>  (89) 
0

>  <fr_sulfonamd>  (89) 
0

>  <fr_sulfone>  (89) 
0

>  <fr_term_acetylene>  (89) 
0

>  <fr_tetrazole>  (89) 
0

>  <fr_thiazole>  (89) 
0

>  <fr_thiocyan>  (89) 
0

>  <fr_thiophene>  (89) 
0

>  <fr_unbrch_alkane>  (89) 
0

>  <fr_urea>  (89) 
0

>  <NP-Likeness>  (89) 
0.931308

$$$$
ADP
     RDKit          3D

  0  0  0  0  0  0  0  0  0  0999 V3000
M  V30 BEGIN CTAB
M  V30 COUNTS 39 41 0 0 0
M  V30 BEGIN ATOM
M  V30 1 O -0.948285 -0.438583 4.255156 0
M  V30 2 C -0.411171 -0.255040 2.979968 0 CFG=1
M  V30 3 C 1.092178 -0.234105 3.045441 0 CFG=1
M  V30 4 O 1.474056 -0.912258 4.222552 0
M  V30 5 C 1.506228 -0.966081 1.819101 0 CFG=2
M  V30 6 N 2.233989 -0.193765 0.858355 0
M  V30 7 C 3.405953 -0.569193 0.290616 0
M  V30 8 N 3.775171 0.412104 -0.553372 0
M  V30 9 C 2.841851 1.378111 -0.504725 0
M  V30 10 C 1.841459 1.007625 0.397855 0
M  V30 11 N 0.833709 1.848388 0.572746 0
M  V30 12 C 0.798356 3.009814 -0.105821 0
M  V30 13 N 1.756149 3.378451 -0.978390 0
M  V30 14 C 2.825105 2.577588 -1.218927 0
M  V30 15 N 3.876306 2.894850 -2.123767 0
M  V30 16 O 0.375978 -1.480544 1.215317 0
M  V30 17 C -0.633812 -1.513038 2.138200 0 CFG=2
M  V30 18 C -2.014257 -1.365032 1.534430 0
M  V30 19 O -2.203385 -2.413883 0.644895 0
M  V30 20 P -3.712747 -2.369453 -0.103693 0 CFG=2 VAL=5
M  V30 21 O -4.183525 -0.939805 -0.202494 0
M  V30 22 O -4.824228 -3.304172 0.763507 0 CHG=-1 VAL=1
M  V30 23 O -3.512953 -3.048156 -1.649054 0
M  V30 24 P -2.467036 -4.373660 -1.493633 0
M  V30 25 O -3.034914 -5.398648 -0.528818 0
M  V30 26 O -2.251903 -5.116515 -3.005593 0 CHG=-1 VAL=1
M  V30 27 O -0.976837 -3.814647 -0.958446 0 CHG=-1 VAL=1
M  V30 28 H -1.249546 0.460417 4.565166 0
M  V30 29 H -0.849340 0.579238 2.433626 0
M  V30 30 H 1.506209 0.786595 3.129986 0
M  V30 31 H 2.375076 -0.559672 4.486506 0
M  V30 32 H 2.104238 -1.862424 2.148636 0
M  V30 33 H 3.911678 -1.512796 0.518410 0
M  V30 34 H 0.006807 3.762144 -0.024072 0
M  V30 35 H 4.664131 3.602715 -2.092400 0
M  V30 36 H 4.178059 2.540901 -3.055154 0
M  V30 37 H -0.589421 -2.343916 2.868457 0
M  V30 38 H -2.757307 -1.531700 2.351388 0
M  V30 39 H -2.175056 -0.362661 1.104157 0
M  V30 END ATOM
M  V30 BEGIN BOND
M  V30 1 1 1 2
M  V30 2 1 2 3
M  V30 3 1 3 4
M  V30 4 1 3 5
M  V30 5 1 5 6
M  V30 6 1 6 7
M  V30 7 2 7 8
M  V30 8 1 8 9
M  V30 9 2 9 10
M  V30 10 1 10 11
M  V30 11 2 11 12
M  V30 12 1 12 13
M  V30 13 2 13 14
M  V30 14 1 14 15
M  V30 15 1 5 16
M  V30 16 1 16 17
M  V30 17 1 17 18
M  V30 18 1 18 19
M  V30 19 1 19 20
M  V30 20 2 20 21
M  V30 21 1 20 22 CFG=1
M  V30 22 1 20 23
M  V30 23 1 23 24
M  V30 24 2 24 25
M  V30 25 1 24 26
M  V30 26 1 24 27
M  V30 27 1 17 2
M  V30 28 1 10 6
M  V30 29 1 14 9
M  V30 30 1 1 28
M  V30 31 1 2 29 CFG=3
M  V30 32 1 3 30 CFG=1
M  V30 33 1 4 31
M  V30 34 1 5 32 CFG=1
M  V30 35 1 7 33
M  V30 36 1 12 34
M  V30 37 1 15 35
M  V30 38 1 15 36
M  V30 39 1 17 37 CFG=1
M  V30 40 1 18 38
M  V30 41 1 18 39
M  V30 END BOND
M  V30 END CTAB
M  END
>  <Dataset>  (90) 
PDB

>  <Ligand_Instance>  (90) 
4IAF_ADP_A_403

>  <PDB_ID>  (90) 
4IAF

>  <Standardized_SMILES>  (90) 
[H]O[C@@]1([H])[C@@]([H])(O[H])[C@]([H])(N2C([H])=NC3=C2N=C([H])N=C3N([H])[H])O[C@]1([H])C([H])([H])O[P@](=O)([O-])OP(=O)([O-])[O-]

>  <Name>  (90) 
ADENOSINE-5'-DIPHOSPHATE

>  <Pocket>  (90) 
A

>  <ATP_Site>  (90) 
1.0

>  <Peripheral>  (90) 
0.0

>  <Num_H_Atoms_ProtBoundConf>  (90) 
12.0

>  <Num_Resolved_Atoms>  (90) 
27.0

>  <Num_Not_Resolved_Atoms>  (90) 
0.0

>  <2D_Mol_H>  (90) 
<rdkit.Chem.rdchem.Mol object at 0x72a238dc7610>

>  <MW>  (90) 
424.179

>  <HBA>  (90) 
15

>  <HBD>  (90) 
3

>  <LogP>  (90) 
-3.642

>  <NRB>  (90) 
9

>  <TPSA>  (90) 
241.09

>  <Num_Heavy_Atoms>  (90) 
27

>  <Ro5>  (90) 
[True, False, True, True, True, False]

>  <Ro5_Fulfilled>  (90) 
False

>  <Ro3>  (90) 
[False, False, True, True]

>  <Ro3_Fulfilled>  (90) 
False

>  <Fsp3>  (90) 
0.5

>  <Fsp3_0.42>  (90) 
True

>  <Fsp3_0.45>  (90) 
True

>  <Stereogenic_Carbons>  (90) 
4

>  <C_Atoms>  (90) 
10

>  <FCStereo>  (90) 
0.4

>  <SPS>  (90) 
769

>  <nSPS>  (90) 
28.481481

>  <PBF>  (90) 
1.2091

>  <PBF_0.6>  (90) 
True

>  <nPBF>  (90) 
0.044781

>  <nPBF_0.016>  (90) 
True

>  <PMI1>  (90) 
2079.437579

>  <PMI2>  (90) 
5362.911313

>  <PMI3>  (90) 
6018.095926

>  <NPR1>  (90) 
0.345531

>  <NPR2>  (90) 
0.891131

>  <Sum_NPR>  (90) 
1.236662

>  <Sum_NPR_1.07>  (90) 
True

>  <Sum_NPR_1.2>  (90) 
True

>  <MaxAbsEStateIndex>  (90) 
11.278955

>  <MaxEStateIndex>  (90) 
11.278955

>  <MinAbsEStateIndex>  (90) 
0.065524

>  <MinEStateIndex>  (90) 
-5.851432

>  <qed>  (90) 
0.378904

>  <MolWt>  (90) 
424.179

>  <HeavyAtomMolWt>  (90) 
412.083

>  <ExactMolWt>  (90) 
424.007586

>  <NumValenceElectrons>  (90) 
150

>  <NumRadicalElectrons>  (90) 
0

>  <MaxPartialCharge>  (90) 
0.271368

>  <MinPartialCharge>  (90) 
-0.789509

>  <MaxAbsPartialCharge>  (90) 
0.789509

>  <MinAbsPartialCharge>  (90) 
0.271368

>  <FpDensityMorgan1>  (90) 
1.222222

>  <FpDensityMorgan2>  (90) 
1.925926

>  <FpDensityMorgan3>  (90) 
2.592593

>  <BCUT2D_MWHI>  (90) 
31.27025

>  <BCUT2D_MWLOW>  (90) 
10.128388

>  <BCUT2D_CHGHI>  (90) 
2.444842

>  <BCUT2D_CHGLO>  (90) 
-2.350424

>  <BCUT2D_LOGPHI>  (90) 
2.503664

>  <BCUT2D_LOGPLOW>  (90) 
-2.337741

>  <BCUT2D_MRHI>  (90) 
7.580921

>  <BCUT2D_MRLOW>  (90) 
-0.339423

>  <AvgIpc>  (90) 
3.072773

>  <BalabanJ>  (90) 
1.748652

>  <BertzCT>  (90) 
932.232873

>  <Chi0>  (90) 
19.982763

>  <Chi0n>  (90) 
13.092254

>  <Chi0v>  (90) 
14.881108

>  <Chi1>  (90) 
12.483782

>  <Chi1n>  (90) 
7.119416

>  <Chi1v>  (90) 
10.040603

>  <Chi2n>  (90) 
5.401088

>  <Chi2v>  (90) 
8.101339

>  <Chi3n>  (90) 
3.595354

>  <Chi3v>  (90) 
5.660653

>  <Chi4n>  (90) 
2.463726

>  <Chi4v>  (90) 
3.961582

>  <HallKierAlpha>  (90) 
-1.51

>  <Ipc>  (90) 
807942.564302

>  <Kappa1>  (90) 
20.230095

>  <Kappa2>  (90) 
7.144568

>  <Kappa3>  (90) 
4.329348

>  <LabuteASA>  (90) 
149.760939

>  <PEOE_VSA1>  (90) 
44.452615

>  <PEOE_VSA10>  (90) 
30.15592

>  <PEOE_VSA11>  (90) 
17.692941

>  <PEOE_VSA12>  (90) 
0.0

>  <PEOE_VSA13>  (90) 
7.822697

>  <PEOE_VSA14>  (90) 
0.0

>  <PEOE_VSA2>  (90) 
13.442779

>  <PEOE_VSA3>  (90) 
14.951936

>  <PEOE_VSA4>  (90) 
0.0

>  <PEOE_VSA5>  (90) 
0.0

>  <PEOE_VSA6>  (90) 
0.0

>  <PEOE_VSA7>  (90) 
0.0

>  <PEOE_VSA8>  (90) 
0.0

>  <PEOE_VSA9>  (90) 
20.756899

>  <SMR_VSA1>  (90) 
47.594628

>  <SMR_VSA10>  (90) 
32.627135

>  <SMR_VSA2>  (90) 
0.0

>  <SMR_VSA3>  (90) 
19.519035

>  <SMR_VSA4>  (90) 
0.0

>  <SMR_VSA5>  (90) 
24.5398

>  <SMR_VSA6>  (90) 
12.340549

>  <SMR_VSA7>  (90) 
12.65464

>  <SMR_VSA8>  (90) 
0.0

>  <SMR_VSA9>  (90) 
0.0

>  <SlogP_VSA1>  (90) 
20.413902

>  <SlogP_VSA10>  (90) 
5.817863

>  <SlogP_VSA11>  (90) 
0.0

>  <SlogP_VSA12>  (90) 
15.645394

>  <SlogP_VSA2>  (90) 
54.650871

>  <SlogP_VSA3>  (90) 
22.701338

>  <SlogP_VSA4>  (90) 
0.0

>  <SlogP_VSA5>  (90) 
6.227901

>  <SlogP_VSA6>  (90) 
12.65464

>  <SlogP_VSA7>  (90) 
0.0

>  <SlogP_VSA8>  (90) 
11.163878

>  <SlogP_VSA9>  (90) 
0.0

>  <EState_VSA1>  (90) 
46.792077

>  <EState_VSA10>  (90) 
34.023386

>  <EState_VSA11>  (90) 
0.0

>  <EState_VSA2>  (90) 
16.981741

>  <EState_VSA3>  (90) 
0.0

>  <EState_VSA4>  (90) 
6.32732

>  <EState_VSA5>  (90) 
10.89442

>  <EState_VSA6>  (90) 
0.0

>  <EState_VSA7>  (90) 
0.0

>  <EState_VSA8>  (90) 
23.786314

>  <EState_VSA9>  (90) 
10.47053

>  <VSA_EState1>  (90) 
35.749107

>  <VSA_EState10>  (90) 
0.0

>  <VSA_EState2>  (90) 
43.665953

>  <VSA_EState3>  (90) 
20.193372

>  <VSA_EState4>  (90) 
6.037581

>  <VSA_EState5>  (90) 
0.065524

>  <VSA_EState6>  (90) 
0.0

>  <VSA_EState7>  (90) 
-3.478964

>  <VSA_EState8>  (90) 
-0.931293

>  <VSA_EState9>  (90) 
-11.356836

>  <FractionCSP3>  (90) 
0.5

>  <HeavyAtomCount>  (90) 
27

>  <NHOHCount>  (90) 
4

>  <NOCount>  (90) 
15

>  <NumAliphaticCarbocycles>  (90) 
0

>  <NumAliphaticHeterocycles>  (90) 
1

>  <NumAliphaticRings>  (90) 
1

>  <NumAromaticCarbocycles>  (90) 
0

>  <NumAromaticHeterocycles>  (90) 
2

>  <NAR>  (90) 
2

>  <NumHAcceptors>  (90) 
15

>  <NumHDonors>  (90) 
3

>  <NumHeteroatoms>  (90) 
17

>  <NumRotatableBonds>  (90) 
6

>  <NumSaturatedCarbocycles>  (90) 
0

>  <NumSaturatedHeterocycles>  (90) 
1

>  <NumSaturatedRings>  (90) 
1

>  <RingCount>  (90) 
3

>  <MolLogP>  (90) 
-3.642

>  <MolMR>  (90) 
77.909

>  <fr_Al_COO>  (90) 
0

>  <fr_Al_OH>  (90) 
2

>  <fr_Al_OH_noTert>  (90) 
2

>  <fr_ArN>  (90) 
1

>  <fr_Ar_COO>  (90) 
0

>  <fr_Ar_N>  (90) 
4

>  <fr_Ar_NH>  (90) 
0

>  <fr_Ar_OH>  (90) 
0

>  <fr_COO>  (90) 
0

>  <fr_COO2>  (90) 
0

>  <fr_C_O>  (90) 
0

>  <fr_C_O_noCOO>  (90) 
0

>  <fr_C_S>  (90) 
0

>  <fr_HOCCN>  (90) 
0

>  <fr_Imine>  (90) 
0

>  <fr_NH0>  (90) 
4

>  <fr_NH1>  (90) 
0

>  <fr_NH2>  (90) 
1

>  <fr_N_O>  (90) 
0

>  <fr_Ndealkylation1>  (90) 
0

>  <fr_Ndealkylation2>  (90) 
0

>  <fr_Nhpyrrole>  (90) 
0

>  <fr_SH>  (90) 
0

>  <fr_aldehyde>  (90) 
0

>  <fr_alkyl_carbamate>  (90) 
0

>  <fr_alkyl_halide>  (90) 
0

>  <fr_allylic_oxid>  (90) 
0

>  <fr_amide>  (90) 
0

>  <fr_amidine>  (90) 
0

>  <fr_aniline>  (90) 
1

>  <fr_aryl_methyl>  (90) 
0

>  <fr_azide>  (90) 
0

>  <fr_azo>  (90) 
0

>  <fr_barbitur>  (90) 
0

>  <fr_benzene>  (90) 
0

>  <fr_benzodiazepine>  (90) 
0

>  <fr_bicyclic>  (90) 
1

>  <fr_diazo>  (90) 
0

>  <fr_dihydropyridine>  (90) 
0

>  <fr_epoxide>  (90) 
0

>  <fr_ester>  (90) 
0

>  <fr_ether>  (90) 
1

>  <fr_furan>  (90) 
0

>  <fr_guanido>  (90) 
0

>  <fr_halogen>  (90) 
0

>  <fr_hdrzine>  (90) 
0

>  <fr_hdrzone>  (90) 
0

>  <fr_imidazole>  (90) 
1

>  <fr_imide>  (90) 
0

>  <fr_isocyan>  (90) 
0

>  <fr_isothiocyan>  (90) 
0

>  <fr_ketone>  (90) 
0

>  <fr_ketone_Topliss>  (90) 
0

>  <fr_lactam>  (90) 
0

>  <fr_lactone>  (90) 
0

>  <fr_methoxy>  (90) 
0

>  <fr_morpholine>  (90) 
0

>  <fr_nitrile>  (90) 
0

>  <fr_nitro>  (90) 
0

>  <fr_nitro_arom>  (90) 
0

>  <fr_nitro_arom_nonortho>  (90) 
0

>  <fr_nitroso>  (90) 
0

>  <fr_oxazole>  (90) 
0

>  <fr_oxime>  (90) 
0

>  <fr_para_hydroxylation>  (90) 
0

>  <fr_phenol>  (90) 
0

>  <fr_phenol_noOrthoHbond>  (90) 
0

>  <fr_phos_acid>  (90) 
2

>  <fr_phos_ester>  (90) 
1

>  <fr_piperdine>  (90) 
0

>  <fr_piperzine>  (90) 
0

>  <fr_priamide>  (90) 
0

>  <fr_prisulfonamd>  (90) 
0

>  <fr_pyridine>  (90) 
0

>  <fr_quatN>  (90) 
0

>  <fr_sulfide>  (90) 
0

>  <fr_sulfonamd>  (90) 
0

>  <fr_sulfone>  (90) 
0

>  <fr_term_acetylene>  (90) 
0

>  <fr_tetrazole>  (90) 
0

>  <fr_thiazole>  (90) 
0

>  <fr_thiocyan>  (90) 
0

>  <fr_thiophene>  (90) 
0

>  <fr_unbrch_alkane>  (90) 
0

>  <fr_urea>  (90) 
0

>  <NP-Likeness>  (90) 
0.931308

$$$$
ADP
     RDKit          3D

  0  0  0  0  0  0  0  0  0  0999 V3000
M  V30 BEGIN CTAB
M  V30 COUNTS 39 41 0 0 0
M  V30 BEGIN ATOM
M  V30 1 O -0.948285 -0.438583 4.255156 0
M  V30 2 C -0.411171 -0.255040 2.979968 0 CFG=1
M  V30 3 C 1.092178 -0.234105 3.045441 0 CFG=1
M  V30 4 O 1.474056 -0.912258 4.222552 0
M  V30 5 C 1.506228 -0.966081 1.819101 0 CFG=2
M  V30 6 N 2.233989 -0.193765 0.858355 0
M  V30 7 C 3.405953 -0.569193 0.290616 0
M  V30 8 N 3.775171 0.412104 -0.553372 0
M  V30 9 C 2.841851 1.378111 -0.504725 0
M  V30 10 C 1.841459 1.007625 0.397855 0
M  V30 11 N 0.833709 1.848388 0.572746 0
M  V30 12 C 0.798356 3.009814 -0.105821 0
M  V30 13 N 1.756149 3.378451 -0.978390 0
M  V30 14 C 2.825105 2.577588 -1.218927 0
M  V30 15 N 3.876306 2.894850 -2.123767 0
M  V30 16 O 0.375978 -1.480544 1.215317 0
M  V30 17 C -0.633812 -1.513038 2.138200 0 CFG=2
M  V30 18 C -2.014257 -1.365032 1.534430 0
M  V30 19 O -2.203385 -2.413883 0.644895 0
M  V30 20 P -3.712747 -2.369453 -0.103693 0 CFG=2 VAL=5
M  V30 21 O -4.183525 -0.939805 -0.202494 0
M  V30 22 O -4.824228 -3.304172 0.763507 0 CHG=-1 VAL=1
M  V30 23 O -3.512953 -3.048156 -1.649054 0
M  V30 24 P -2.467036 -4.373660 -1.493633 0
M  V30 25 O -3.034914 -5.398648 -0.528818 0
M  V30 26 O -2.251903 -5.116515 -3.005593 0 CHG=-1 VAL=1
M  V30 27 O -0.976837 -3.814647 -0.958446 0 CHG=-1 VAL=1
M  V30 28 H -1.249546 0.460417 4.565166 0
M  V30 29 H -0.849340 0.579238 2.433626 0
M  V30 30 H 1.506209 0.786595 3.129986 0
M  V30 31 H 2.375076 -0.559672 4.486506 0
M  V30 32 H 2.104238 -1.862424 2.148636 0
M  V30 33 H 3.911678 -1.512796 0.518410 0
M  V30 34 H 0.006807 3.762144 -0.024072 0
M  V30 35 H 4.664131 3.602715 -2.092400 0
M  V30 36 H 4.178059 2.540901 -3.055154 0
M  V30 37 H -0.589421 -2.343916 2.868457 0
M  V30 38 H -2.757307 -1.531700 2.351388 0
M  V30 39 H -2.175056 -0.362661 1.104157 0
M  V30 END ATOM
M  V30 BEGIN BOND
M  V30 1 1 1 2
M  V30 2 1 2 3
M  V30 3 1 3 4
M  V30 4 1 3 5
M  V30 5 1 5 6
M  V30 6 1 6 7
M  V30 7 2 7 8
M  V30 8 1 8 9
M  V30 9 2 9 10
M  V30 10 1 10 11
M  V30 11 2 11 12
M  V30 12 1 12 13
M  V30 13 2 13 14
M  V30 14 1 14 15
M  V30 15 1 5 16
M  V30 16 1 16 17
M  V30 17 1 17 18
M  V30 18 1 18 19
M  V30 19 1 19 20
M  V30 20 2 20 21
M  V30 21 1 20 22 CFG=1
M  V30 22 1 20 23
M  V30 23 1 23 24
M  V30 24 2 24 25
M  V30 25 1 24 26
M  V30 26 1 24 27
M  V30 27 1 17 2
M  V30 28 1 10 6
M  V30 29 1 14 9
M  V30 30 1 1 28
M  V30 31 1 2 29 CFG=3
M  V30 32 1 3 30 CFG=1
M  V30 33 1 4 31
M  V30 34 1 5 32 CFG=1
M  V30 35 1 7 33
M  V30 36 1 12 34
M  V30 37 1 15 35
M  V30 38 1 15 36
M  V30 39 1 17 37 CFG=1
M  V30 40 1 18 38
M  V30 41 1 18 39
M  V30 END BOND
M  V30 END CTAB
M  END
>  <Dataset>  (91) 
PDB

>  <Ligand_Instance>  (91) 
4IAI_ADP_A_403

>  <PDB_ID>  (91) 
4IAI

>  <Standardized_SMILES>  (91) 
[H]O[C@@]1([H])[C@@]([H])(O[H])[C@]([H])(N2C([H])=NC3=C2N=C([H])N=C3N([H])[H])O[C@]1([H])C([H])([H])O[P@](=O)([O-])OP(=O)([O-])[O-]

>  <Name>  (91) 
ADENOSINE-5'-DIPHOSPHATE

>  <Pocket>  (91) 
A

>  <ATP_Site>  (91) 
1.0

>  <Peripheral>  (91) 
0.0

>  <Num_H_Atoms_ProtBoundConf>  (91) 
12.0

>  <Num_Resolved_Atoms>  (91) 
27.0

>  <Num_Not_Resolved_Atoms>  (91) 
0.0

>  <2D_Mol_H>  (91) 
<rdkit.Chem.rdchem.Mol object at 0x72a238dc76f0>

>  <MW>  (91) 
424.179

>  <HBA>  (91) 
15

>  <HBD>  (91) 
3

>  <LogP>  (91) 
-3.642

>  <NRB>  (91) 
9

>  <TPSA>  (91) 
241.09

>  <Num_Heavy_Atoms>  (91) 
27

>  <Ro5>  (91) 
[True, False, True, True, True, False]

>  <Ro5_Fulfilled>  (91) 
False

>  <Ro3>  (91) 
[False, False, True, True]

>  <Ro3_Fulfilled>  (91) 
False

>  <Fsp3>  (91) 
0.5

>  <Fsp3_0.42>  (91) 
True

>  <Fsp3_0.45>  (91) 
True

>  <Stereogenic_Carbons>  (91) 
4

>  <C_Atoms>  (91) 
10

>  <FCStereo>  (91) 
0.4

>  <SPS>  (91) 
769

>  <nSPS>  (91) 
28.481481

>  <PBF>  (91) 
1.2091

>  <PBF_0.6>  (91) 
True

>  <nPBF>  (91) 
0.044781

>  <nPBF_0.016>  (91) 
True

>  <PMI1>  (91) 
2079.437579

>  <PMI2>  (91) 
5362.911313

>  <PMI3>  (91) 
6018.095926

>  <NPR1>  (91) 
0.345531

>  <NPR2>  (91) 
0.891131

>  <Sum_NPR>  (91) 
1.236662

>  <Sum_NPR_1.07>  (91) 
True

>  <Sum_NPR_1.2>  (91) 
True

>  <MaxAbsEStateIndex>  (91) 
11.278955

>  <MaxEStateIndex>  (91) 
11.278955

>  <MinAbsEStateIndex>  (91) 
0.065524

>  <MinEStateIndex>  (91) 
-5.851432

>  <qed>  (91) 
0.378904

>  <MolWt>  (91) 
424.179

>  <HeavyAtomMolWt>  (91) 
412.083

>  <ExactMolWt>  (91) 
424.007586

>  <NumValenceElectrons>  (91) 
150

>  <NumRadicalElectrons>  (91) 
0

>  <MaxPartialCharge>  (91) 
0.271368

>  <MinPartialCharge>  (91) 
-0.789509

>  <MaxAbsPartialCharge>  (91) 
0.789509

>  <MinAbsPartialCharge>  (91) 
0.271368

>  <FpDensityMorgan1>  (91) 
1.222222

>  <FpDensityMorgan2>  (91) 
1.925926

>  <FpDensityMorgan3>  (91) 
2.592593

>  <BCUT2D_MWHI>  (91) 
31.27025

>  <BCUT2D_MWLOW>  (91) 
10.128388

>  <BCUT2D_CHGHI>  (91) 
2.444842

>  <BCUT2D_CHGLO>  (91) 
-2.350424

>  <BCUT2D_LOGPHI>  (91) 
2.503664

>  <BCUT2D_LOGPLOW>  (91) 
-2.337741

>  <BCUT2D_MRHI>  (91) 
7.580921

>  <BCUT2D_MRLOW>  (91) 
-0.339423

>  <AvgIpc>  (91) 
3.072773

>  <BalabanJ>  (91) 
1.748652

>  <BertzCT>  (91) 
932.232873

>  <Chi0>  (91) 
19.982763

>  <Chi0n>  (91) 
13.092254

>  <Chi0v>  (91) 
14.881108

>  <Chi1>  (91) 
12.483782

>  <Chi1n>  (91) 
7.119416

>  <Chi1v>  (91) 
10.040603

>  <Chi2n>  (91) 
5.401088

>  <Chi2v>  (91) 
8.101339

>  <Chi3n>  (91) 
3.595354

>  <Chi3v>  (91) 
5.660653

>  <Chi4n>  (91) 
2.463726

>  <Chi4v>  (91) 
3.961582

>  <HallKierAlpha>  (91) 
-1.51

>  <Ipc>  (91) 
807942.564302

>  <Kappa1>  (91) 
20.230095

>  <Kappa2>  (91) 
7.144568

>  <Kappa3>  (91) 
4.329348

>  <LabuteASA>  (91) 
149.760939

>  <PEOE_VSA1>  (91) 
44.452615

>  <PEOE_VSA10>  (91) 
30.15592

>  <PEOE_VSA11>  (91) 
17.692941

>  <PEOE_VSA12>  (91) 
0.0

>  <PEOE_VSA13>  (91) 
7.822697

>  <PEOE_VSA14>  (91) 
0.0

>  <PEOE_VSA2>  (91) 
13.442779

>  <PEOE_VSA3>  (91) 
14.951936

>  <PEOE_VSA4>  (91) 
0.0

>  <PEOE_VSA5>  (91) 
0.0

>  <PEOE_VSA6>  (91) 
0.0

>  <PEOE_VSA7>  (91) 
0.0

>  <PEOE_VSA8>  (91) 
0.0

>  <PEOE_VSA9>  (91) 
20.756899

>  <SMR_VSA1>  (91) 
47.594628

>  <SMR_VSA10>  (91) 
32.627135

>  <SMR_VSA2>  (91) 
0.0

>  <SMR_VSA3>  (91) 
19.519035

>  <SMR_VSA4>  (91) 
0.0

>  <SMR_VSA5>  (91) 
24.5398

>  <SMR_VSA6>  (91) 
12.340549

>  <SMR_VSA7>  (91) 
12.65464

>  <SMR_VSA8>  (91) 
0.0

>  <SMR_VSA9>  (91) 
0.0

>  <SlogP_VSA1>  (91) 
20.413902

>  <SlogP_VSA10>  (91) 
5.817863

>  <SlogP_VSA11>  (91) 
0.0

>  <SlogP_VSA12>  (91) 
15.645394

>  <SlogP_VSA2>  (91) 
54.650871

>  <SlogP_VSA3>  (91) 
22.701338

>  <SlogP_VSA4>  (91) 
0.0

>  <SlogP_VSA5>  (91) 
6.227901

>  <SlogP_VSA6>  (91) 
12.65464

>  <SlogP_VSA7>  (91) 
0.0

>  <SlogP_VSA8>  (91) 
11.163878

>  <SlogP_VSA9>  (91) 
0.0

>  <EState_VSA1>  (91) 
46.792077

>  <EState_VSA10>  (91) 
34.023386

>  <EState_VSA11>  (91) 
0.0

>  <EState_VSA2>  (91) 
16.981741

>  <EState_VSA3>  (91) 
0.0

>  <EState_VSA4>  (91) 
6.32732

>  <EState_VSA5>  (91) 
10.89442

>  <EState_VSA6>  (91) 
0.0

>  <EState_VSA7>  (91) 
0.0

>  <EState_VSA8>  (91) 
23.786314

>  <EState_VSA9>  (91) 
10.47053

>  <VSA_EState1>  (91) 
35.749107

>  <VSA_EState10>  (91) 
0.0

>  <VSA_EState2>  (91) 
43.665953

>  <VSA_EState3>  (91) 
20.193372

>  <VSA_EState4>  (91) 
6.037581

>  <VSA_EState5>  (91) 
0.065524

>  <VSA_EState6>  (91) 
0.0

>  <VSA_EState7>  (91) 
-3.478964

>  <VSA_EState8>  (91) 
-0.931293

>  <VSA_EState9>  (91) 
-11.356836

>  <FractionCSP3>  (91) 
0.5

>  <HeavyAtomCount>  (91) 
27

>  <NHOHCount>  (91) 
4

>  <NOCount>  (91) 
15

>  <NumAliphaticCarbocycles>  (91) 
0

>  <NumAliphaticHeterocycles>  (91) 
1

>  <NumAliphaticRings>  (91) 
1

>  <NumAromaticCarbocycles>  (91) 
0

>  <NumAromaticHeterocycles>  (91) 
2

>  <NAR>  (91) 
2

>  <NumHAcceptors>  (91) 
15

>  <NumHDonors>  (91) 
3

>  <NumHeteroatoms>  (91) 
17

>  <NumRotatableBonds>  (91) 
6

>  <NumSaturatedCarbocycles>  (91) 
0

>  <NumSaturatedHeterocycles>  (91) 
1

>  <NumSaturatedRings>  (91) 
1

>  <RingCount>  (91) 
3

>  <MolLogP>  (91) 
-3.642

>  <MolMR>  (91) 
77.909

>  <fr_Al_COO>  (91) 
0

>  <fr_Al_OH>  (91) 
2

>  <fr_Al_OH_noTert>  (91) 
2

>  <fr_ArN>  (91) 
1

>  <fr_Ar_COO>  (91) 
0

>  <fr_Ar_N>  (91) 
4

>  <fr_Ar_NH>  (91) 
0

>  <fr_Ar_OH>  (91) 
0

>  <fr_COO>  (91) 
0

>  <fr_COO2>  (91) 
0

>  <fr_C_O>  (91) 
0

>  <fr_C_O_noCOO>  (91) 
0

>  <fr_C_S>  (91) 
0

>  <fr_HOCCN>  (91) 
0

>  <fr_Imine>  (91) 
0

>  <fr_NH0>  (91) 
4

>  <fr_NH1>  (91) 
0

>  <fr_NH2>  (91) 
1

>  <fr_N_O>  (91) 
0

>  <fr_Ndealkylation1>  (91) 
0

>  <fr_Ndealkylation2>  (91) 
0

>  <fr_Nhpyrrole>  (91) 
0

>  <fr_SH>  (91) 
0

>  <fr_aldehyde>  (91) 
0

>  <fr_alkyl_carbamate>  (91) 
0

>  <fr_alkyl_halide>  (91) 
0

>  <fr_allylic_oxid>  (91) 
0

>  <fr_amide>  (91) 
0

>  <fr_amidine>  (91) 
0

>  <fr_aniline>  (91) 
1

>  <fr_aryl_methyl>  (91) 
0

>  <fr_azide>  (91) 
0

>  <fr_azo>  (91) 
0

>  <fr_barbitur>  (91) 
0

>  <fr_benzene>  (91) 
0

>  <fr_benzodiazepine>  (91) 
0

>  <fr_bicyclic>  (91) 
1

>  <fr_diazo>  (91) 
0

>  <fr_dihydropyridine>  (91) 
0

>  <fr_epoxide>  (91) 
0

>  <fr_ester>  (91) 
0

>  <fr_ether>  (91) 
1

>  <fr_furan>  (91) 
0

>  <fr_guanido>  (91) 
0

>  <fr_halogen>  (91) 
0

>  <fr_hdrzine>  (91) 
0

>  <fr_hdrzone>  (91) 
0

>  <fr_imidazole>  (91) 
1

>  <fr_imide>  (91) 
0

>  <fr_isocyan>  (91) 
0

>  <fr_isothiocyan>  (91) 
0

>  <fr_ketone>  (91) 
0

>  <fr_ketone_Topliss>  (91) 
0

>  <fr_lactam>  (91) 
0

>  <fr_lactone>  (91) 
0

>  <fr_methoxy>  (91) 
0

>  <fr_morpholine>  (91) 
0

>  <fr_nitrile>  (91) 
0

>  <fr_nitro>  (91) 
0

>  <fr_nitro_arom>  (91) 
0

>  <fr_nitro_arom_nonortho>  (91) 
0

>  <fr_nitroso>  (91) 
0

>  <fr_oxazole>  (91) 
0

>  <fr_oxime>  (91) 
0

>  <fr_para_hydroxylation>  (91) 
0

>  <fr_phenol>  (91) 
0

>  <fr_phenol_noOrthoHbond>  (91) 
0

>  <fr_phos_acid>  (91) 
2

>  <fr_phos_ester>  (91) 
1

>  <fr_piperdine>  (91) 
0

>  <fr_piperzine>  (91) 
0

>  <fr_priamide>  (91) 
0

>  <fr_prisulfonamd>  (91) 
0

>  <fr_pyridine>  (91) 
0

>  <fr_quatN>  (91) 
0

>  <fr_sulfide>  (91) 
0

>  <fr_sulfonamd>  (91) 
0

>  <fr_sulfone>  (91) 
0

>  <fr_term_acetylene>  (91) 
0

>  <fr_tetrazole>  (91) 
0

>  <fr_thiazole>  (91) 
0

>  <fr_thiocyan>  (91) 
0

>  <fr_thiophene>  (91) 
0

>  <fr_unbrch_alkane>  (91) 
0

>  <fr_urea>  (91) 
0

>  <NP-Likeness>  (91) 
0.931308

$$$$
ADP
     RDKit          3D

  0  0  0  0  0  0  0  0  0  0999 V3000
M  V30 BEGIN CTAB
M  V30 COUNTS 39 41 0 0 0
M  V30 BEGIN ATOM
M  V30 1 O -0.948285 -0.438583 4.255156 0
M  V30 2 C -0.411171 -0.255040 2.979968 0 CFG=1
M  V30 3 C 1.092178 -0.234105 3.045441 0 CFG=1
M  V30 4 O 1.474056 -0.912258 4.222552 0
M  V30 5 C 1.506228 -0.966081 1.819101 0 CFG=2
M  V30 6 N 2.233989 -0.193765 0.858355 0
M  V30 7 C 3.405953 -0.569193 0.290616 0
M  V30 8 N 3.775171 0.412104 -0.553372 0
M  V30 9 C 2.841851 1.378111 -0.504725 0
M  V30 10 C 1.841459 1.007625 0.397855 0
M  V30 11 N 0.833709 1.848388 0.572746 0
M  V30 12 C 0.798356 3.009814 -0.105821 0
M  V30 13 N 1.756149 3.378451 -0.978390 0
M  V30 14 C 2.825105 2.577588 -1.218927 0
M  V30 15 N 3.876306 2.894850 -2.123767 0
M  V30 16 O 0.375978 -1.480544 1.215317 0
M  V30 17 C -0.633812 -1.513038 2.138200 0 CFG=2
M  V30 18 C -2.014257 -1.365032 1.534430 0
M  V30 19 O -2.203385 -2.413883 0.644895 0
M  V30 20 P -3.712747 -2.369453 -0.103693 0 CFG=2 VAL=5
M  V30 21 O -4.183525 -0.939805 -0.202494 0
M  V30 22 O -4.824228 -3.304172 0.763507 0 CHG=-1 VAL=1
M  V30 23 O -3.512953 -3.048156 -1.649054 0
M  V30 24 P -2.467036 -4.373660 -1.493633 0
M  V30 25 O -3.034914 -5.398648 -0.528818 0
M  V30 26 O -2.251903 -5.116515 -3.005593 0 CHG=-1 VAL=1
M  V30 27 O -0.976837 -3.814647 -0.958446 0 CHG=-1 VAL=1
M  V30 28 H -1.249546 0.460417 4.565166 0
M  V30 29 H -0.849340 0.579238 2.433626 0
M  V30 30 H 1.506209 0.786595 3.129986 0
M  V30 31 H 2.375076 -0.559672 4.486506 0
M  V30 32 H 2.104238 -1.862424 2.148636 0
M  V30 33 H 3.911678 -1.512796 0.518410 0
M  V30 34 H 0.006807 3.762144 -0.024072 0
M  V30 35 H 4.664131 3.602715 -2.092400 0
M  V30 36 H 4.178059 2.540901 -3.055154 0
M  V30 37 H -0.589421 -2.343916 2.868457 0
M  V30 38 H -2.757307 -1.531700 2.351388 0
M  V30 39 H -2.175056 -0.362661 1.104157 0
M  V30 END ATOM
M  V30 BEGIN BOND
M  V30 1 1 1 2
M  V30 2 1 2 3
M  V30 3 1 3 4
M  V30 4 1 3 5
M  V30 5 1 5 6
M  V30 6 1 6 7
M  V30 7 2 7 8
M  V30 8 1 8 9
M  V30 9 2 9 10
M  V30 10 1 10 11
M  V30 11 2 11 12
M  V30 12 1 12 13
M  V30 13 2 13 14
M  V30 14 1 14 15
M  V30 15 1 5 16
M  V30 16 1 16 17
M  V30 17 1 17 18
M  V30 18 1 18 19
M  V30 19 1 19 20
M  V30 20 2 20 21
M  V30 21 1 20 22 CFG=1
M  V30 22 1 20 23
M  V30 23 1 23 24
M  V30 24 2 24 25
M  V30 25 1 24 26
M  V30 26 1 24 27
M  V30 27 1 17 2
M  V30 28 1 10 6
M  V30 29 1 14 9
M  V30 30 1 1 28
M  V30 31 1 2 29 CFG=3
M  V30 32 1 3 30 CFG=1
M  V30 33 1 4 31
M  V30 34 1 5 32 CFG=1
M  V30 35 1 7 33
M  V30 36 1 12 34
M  V30 37 1 15 35
M  V30 38 1 15 36
M  V30 39 1 17 37 CFG=1
M  V30 40 1 18 38
M  V30 41 1 18 39
M  V30 END BOND
M  V30 END CTAB
M  END
>  <Dataset>  (92) 
PDB

>  <Ligand_Instance>  (92) 
4IAK_ADP_A_403

>  <PDB_ID>  (92) 
4IAK

>  <Standardized_SMILES>  (92) 
[H]O[C@@]1([H])[C@@]([H])(O[H])[C@]([H])(N2C([H])=NC3=C2N=C([H])N=C3N([H])[H])O[C@]1([H])C([H])([H])O[P@](=O)([O-])OP(=O)([O-])[O-]

>  <Name>  (92) 
ADENOSINE-5'-DIPHOSPHATE

>  <Pocket>  (92) 
A

>  <ATP_Site>  (92) 
1.0

>  <Peripheral>  (92) 
0.0

>  <Num_H_Atoms_ProtBoundConf>  (92) 
12.0

>  <Num_Resolved_Atoms>  (92) 
27.0

>  <Num_Not_Resolved_Atoms>  (92) 
0.0

>  <2D_Mol_H>  (92) 
<rdkit.Chem.rdchem.Mol object at 0x72a238dc77d0>

>  <MW>  (92) 
424.179

>  <HBA>  (92) 
15

>  <HBD>  (92) 
3

>  <LogP>  (92) 
-3.642

>  <NRB>  (92) 
9

>  <TPSA>  (92) 
241.09

>  <Num_Heavy_Atoms>  (92) 
27

>  <Ro5>  (92) 
[True, False, True, True, True, False]

>  <Ro5_Fulfilled>  (92) 
False

>  <Ro3>  (92) 
[False, False, True, True]

>  <Ro3_Fulfilled>  (92) 
False

>  <Fsp3>  (92) 
0.5

>  <Fsp3_0.42>  (92) 
True

>  <Fsp3_0.45>  (92) 
True

>  <Stereogenic_Carbons>  (92) 
4

>  <C_Atoms>  (92) 
10

>  <FCStereo>  (92) 
0.4

>  <SPS>  (92) 
769

>  <nSPS>  (92) 
28.481481

>  <PBF>  (92) 
1.2091

>  <PBF_0.6>  (92) 
True

>  <nPBF>  (92) 
0.044781

>  <nPBF_0.016>  (92) 
True

>  <PMI1>  (92) 
2079.437579

>  <PMI2>  (92) 
5362.911313

>  <PMI3>  (92) 
6018.095926

>  <NPR1>  (92) 
0.345531

>  <NPR2>  (92) 
0.891131

>  <Sum_NPR>  (92) 
1.236662

>  <Sum_NPR_1.07>  (92) 
True

>  <Sum_NPR_1.2>  (92) 
True

>  <MaxAbsEStateIndex>  (92) 
11.278955

>  <MaxEStateIndex>  (92) 
11.278955

>  <MinAbsEStateIndex>  (92) 
0.065524

>  <MinEStateIndex>  (92) 
-5.851432

>  <qed>  (92) 
0.378904

>  <MolWt>  (92) 
424.179

>  <HeavyAtomMolWt>  (92) 
412.083

>  <ExactMolWt>  (92) 
424.007586

>  <NumValenceElectrons>  (92) 
150

>  <NumRadicalElectrons>  (92) 
0

>  <MaxPartialCharge>  (92) 
0.271368

>  <MinPartialCharge>  (92) 
-0.789509

>  <MaxAbsPartialCharge>  (92) 
0.789509

>  <MinAbsPartialCharge>  (92) 
0.271368

>  <FpDensityMorgan1>  (92) 
1.222222

>  <FpDensityMorgan2>  (92) 
1.925926

>  <FpDensityMorgan3>  (92) 
2.592593

>  <BCUT2D_MWHI>  (92) 
31.27025

>  <BCUT2D_MWLOW>  (92) 
10.128388

>  <BCUT2D_CHGHI>  (92) 
2.444842

>  <BCUT2D_CHGLO>  (92) 
-2.350424

>  <BCUT2D_LOGPHI>  (92) 
2.503664

>  <BCUT2D_LOGPLOW>  (92) 
-2.337741

>  <BCUT2D_MRHI>  (92) 
7.580921

>  <BCUT2D_MRLOW>  (92) 
-0.339423

>  <AvgIpc>  (92) 
3.072773

>  <BalabanJ>  (92) 
1.748652

>  <BertzCT>  (92) 
932.232873

>  <Chi0>  (92) 
19.982763

>  <Chi0n>  (92) 
13.092254

>  <Chi0v>  (92) 
14.881108

>  <Chi1>  (92) 
12.483782

>  <Chi1n>  (92) 
7.119416

>  <Chi1v>  (92) 
10.040603

>  <Chi2n>  (92) 
5.401088

>  <Chi2v>  (92) 
8.101339

>  <Chi3n>  (92) 
3.595354

>  <Chi3v>  (92) 
5.660653

>  <Chi4n>  (92) 
2.463726

>  <Chi4v>  (92) 
3.961582

>  <HallKierAlpha>  (92) 
-1.51

>  <Ipc>  (92) 
807942.564302

>  <Kappa1>  (92) 
20.230095

>  <Kappa2>  (92) 
7.144568

>  <Kappa3>  (92) 
4.329348

>  <LabuteASA>  (92) 
149.760939

>  <PEOE_VSA1>  (92) 
44.452615

>  <PEOE_VSA10>  (92) 
30.15592

>  <PEOE_VSA11>  (92) 
17.692941

>  <PEOE_VSA12>  (92) 
0.0

>  <PEOE_VSA13>  (92) 
7.822697

>  <PEOE_VSA14>  (92) 
0.0

>  <PEOE_VSA2>  (92) 
13.442779

>  <PEOE_VSA3>  (92) 
14.951936

>  <PEOE_VSA4>  (92) 
0.0

>  <PEOE_VSA5>  (92) 
0.0

>  <PEOE_VSA6>  (92) 
0.0

>  <PEOE_VSA7>  (92) 
0.0

>  <PEOE_VSA8>  (92) 
0.0

>  <PEOE_VSA9>  (92) 
20.756899

>  <SMR_VSA1>  (92) 
47.594628

>  <SMR_VSA10>  (92) 
32.627135

>  <SMR_VSA2>  (92) 
0.0

>  <SMR_VSA3>  (92) 
19.519035

>  <SMR_VSA4>  (92) 
0.0

>  <SMR_VSA5>  (92) 
24.5398

>  <SMR_VSA6>  (92) 
12.340549

>  <SMR_VSA7>  (92) 
12.65464

>  <SMR_VSA8>  (92) 
0.0

>  <SMR_VSA9>  (92) 
0.0

>  <SlogP_VSA1>  (92) 
20.413902

>  <SlogP_VSA10>  (92) 
5.817863

>  <SlogP_VSA11>  (92) 
0.0

>  <SlogP_VSA12>  (92) 
15.645394

>  <SlogP_VSA2>  (92) 
54.650871

>  <SlogP_VSA3>  (92) 
22.701338

>  <SlogP_VSA4>  (92) 
0.0

>  <SlogP_VSA5>  (92) 
6.227901

>  <SlogP_VSA6>  (92) 
12.65464

>  <SlogP_VSA7>  (92) 
0.0

>  <SlogP_VSA8>  (92) 
11.163878

>  <SlogP_VSA9>  (92) 
0.0

>  <EState_VSA1>  (92) 
46.792077

>  <EState_VSA10>  (92) 
34.023386

>  <EState_VSA11>  (92) 
0.0

>  <EState_VSA2>  (92) 
16.981741

>  <EState_VSA3>  (92) 
0.0

>  <EState_VSA4>  (92) 
6.32732

>  <EState_VSA5>  (92) 
10.89442

>  <EState_VSA6>  (92) 
0.0

>  <EState_VSA7>  (92) 
0.0

>  <EState_VSA8>  (92) 
23.786314

>  <EState_VSA9>  (92) 
10.47053

>  <VSA_EState1>  (92) 
35.749107

>  <VSA_EState10>  (92) 
0.0

>  <VSA_EState2>  (92) 
43.665953

>  <VSA_EState3>  (92) 
20.193372

>  <VSA_EState4>  (92) 
6.037581

>  <VSA_EState5>  (92) 
0.065524

>  <VSA_EState6>  (92) 
0.0

>  <VSA_EState7>  (92) 
-3.478964

>  <VSA_EState8>  (92) 
-0.931293

>  <VSA_EState9>  (92) 
-11.356836

>  <FractionCSP3>  (92) 
0.5

>  <HeavyAtomCount>  (92) 
27

>  <NHOHCount>  (92) 
4

>  <NOCount>  (92) 
15

>  <NumAliphaticCarbocycles>  (92) 
0

>  <NumAliphaticHeterocycles>  (92) 
1

>  <NumAliphaticRings>  (92) 
1

>  <NumAromaticCarbocycles>  (92) 
0

>  <NumAromaticHeterocycles>  (92) 
2

>  <NAR>  (92) 
2

>  <NumHAcceptors>  (92) 
15

>  <NumHDonors>  (92) 
3

>  <NumHeteroatoms>  (92) 
17

>  <NumRotatableBonds>  (92) 
6

>  <NumSaturatedCarbocycles>  (92) 
0

>  <NumSaturatedHeterocycles>  (92) 
1

>  <NumSaturatedRings>  (92) 
1

>  <RingCount>  (92) 
3

>  <MolLogP>  (92) 
-3.642

>  <MolMR>  (92) 
77.909

>  <fr_Al_COO>  (92) 
0

>  <fr_Al_OH>  (92) 
2

>  <fr_Al_OH_noTert>  (92) 
2

>  <fr_ArN>  (92) 
1

>  <fr_Ar_COO>  (92) 
0

>  <fr_Ar_N>  (92) 
4

>  <fr_Ar_NH>  (92) 
0

>  <fr_Ar_OH>  (92) 
0

>  <fr_COO>  (92) 
0

>  <fr_COO2>  (92) 
0

>  <fr_C_O>  (92) 
0

>  <fr_C_O_noCOO>  (92) 
0

>  <fr_C_S>  (92) 
0

>  <fr_HOCCN>  (92) 
0

>  <fr_Imine>  (92) 
0

>  <fr_NH0>  (92) 
4

>  <fr_NH1>  (92) 
0

>  <fr_NH2>  (92) 
1

>  <fr_N_O>  (92) 
0

>  <fr_Ndealkylation1>  (92) 
0

>  <fr_Ndealkylation2>  (92) 
0

>  <fr_Nhpyrrole>  (92) 
0

>  <fr_SH>  (92) 
0

>  <fr_aldehyde>  (92) 
0

>  <fr_alkyl_carbamate>  (92) 
0

>  <fr_alkyl_halide>  (92) 
0

>  <fr_allylic_oxid>  (92) 
0

>  <fr_amide>  (92) 
0

>  <fr_amidine>  (92) 
0

>  <fr_aniline>  (92) 
1

>  <fr_aryl_methyl>  (92) 
0

>  <fr_azide>  (92) 
0

>  <fr_azo>  (92) 
0

>  <fr_barbitur>  (92) 
0

>  <fr_benzene>  (92) 
0

>  <fr_benzodiazepine>  (92) 
0

>  <fr_bicyclic>  (92) 
1

>  <fr_diazo>  (92) 
0

>  <fr_dihydropyridine>  (92) 
0

>  <fr_epoxide>  (92) 
0

>  <fr_ester>  (92) 
0

>  <fr_ether>  (92) 
1

>  <fr_furan>  (92) 
0

>  <fr_guanido>  (92) 
0

>  <fr_halogen>  (92) 
0

>  <fr_hdrzine>  (92) 
0

>  <fr_hdrzone>  (92) 
0

>  <fr_imidazole>  (92) 
1

>  <fr_imide>  (92) 
0

>  <fr_isocyan>  (92) 
0

>  <fr_isothiocyan>  (92) 
0

>  <fr_ketone>  (92) 
0

>  <fr_ketone_Topliss>  (92) 
0

>  <fr_lactam>  (92) 
0

>  <fr_lactone>  (92) 
0

>  <fr_methoxy>  (92) 
0

>  <fr_morpholine>  (92) 
0

>  <fr_nitrile>  (92) 
0

>  <fr_nitro>  (92) 
0

>  <fr_nitro_arom>  (92) 
0

>  <fr_nitro_arom_nonortho>  (92) 
0

>  <fr_nitroso>  (92) 
0

>  <fr_oxazole>  (92) 
0

>  <fr_oxime>  (92) 
0

>  <fr_para_hydroxylation>  (92) 
0

>  <fr_phenol>  (92) 
0

>  <fr_phenol_noOrthoHbond>  (92) 
0

>  <fr_phos_acid>  (92) 
2

>  <fr_phos_ester>  (92) 
1

>  <fr_piperdine>  (92) 
0

>  <fr_piperzine>  (92) 
0

>  <fr_priamide>  (92) 
0

>  <fr_prisulfonamd>  (92) 
0

>  <fr_pyridine>  (92) 
0

>  <fr_quatN>  (92) 
0

>  <fr_sulfide>  (92) 
0

>  <fr_sulfonamd>  (92) 
0

>  <fr_sulfone>  (92) 
0

>  <fr_term_acetylene>  (92) 
0

>  <fr_tetrazole>  (92) 
0

>  <fr_thiazole>  (92) 
0

>  <fr_thiocyan>  (92) 
0

>  <fr_thiophene>  (92) 
0

>  <fr_unbrch_alkane>  (92) 
0

>  <fr_urea>  (92) 
0

>  <NP-Likeness>  (92) 
0.931308

$$$$
ADP
     RDKit          3D

  0  0  0  0  0  0  0  0  0  0999 V3000
M  V30 BEGIN CTAB
M  V30 COUNTS 39 41 0 0 0
M  V30 BEGIN ATOM
M  V30 1 O -0.948285 -0.438583 4.255156 0
M  V30 2 C -0.411171 -0.255040 2.979968 0 CFG=1
M  V30 3 C 1.092178 -0.234105 3.045441 0 CFG=1
M  V30 4 O 1.474056 -0.912258 4.222552 0
M  V30 5 C 1.506228 -0.966081 1.819101 0 CFG=2
M  V30 6 N 2.233989 -0.193765 0.858355 0
M  V30 7 C 3.405953 -0.569193 0.290616 0
M  V30 8 N 3.775171 0.412104 -0.553372 0
M  V30 9 C 2.841851 1.378111 -0.504725 0
M  V30 10 C 1.841459 1.007625 0.397855 0
M  V30 11 N 0.833709 1.848388 0.572746 0
M  V30 12 C 0.798356 3.009814 -0.105821 0
M  V30 13 N 1.756149 3.378451 -0.978390 0
M  V30 14 C 2.825105 2.577588 -1.218927 0
M  V30 15 N 3.876306 2.894850 -2.123767 0
M  V30 16 O 0.375978 -1.480544 1.215317 0
M  V30 17 C -0.633812 -1.513038 2.138200 0 CFG=2
M  V30 18 C -2.014257 -1.365032 1.534430 0
M  V30 19 O -2.203385 -2.413883 0.644895 0
M  V30 20 P -3.712747 -2.369453 -0.103693 0 CFG=2 VAL=5
M  V30 21 O -4.183525 -0.939805 -0.202494 0
M  V30 22 O -4.824228 -3.304172 0.763507 0 CHG=-1 VAL=1
M  V30 23 O -3.512953 -3.048156 -1.649054 0
M  V30 24 P -2.467036 -4.373660 -1.493633 0
M  V30 25 O -3.034914 -5.398648 -0.528818 0
M  V30 26 O -2.251903 -5.116515 -3.005593 0 CHG=-1 VAL=1
M  V30 27 O -0.976837 -3.814647 -0.958446 0 CHG=-1 VAL=1
M  V30 28 H -1.249546 0.460417 4.565166 0
M  V30 29 H -0.849340 0.579238 2.433626 0
M  V30 30 H 1.506209 0.786595 3.129986 0
M  V30 31 H 2.375076 -0.559672 4.486506 0
M  V30 32 H 2.104238 -1.862424 2.148636 0
M  V30 33 H 3.911678 -1.512796 0.518410 0
M  V30 34 H 0.006807 3.762144 -0.024072 0
M  V30 35 H 4.664131 3.602715 -2.092400 0
M  V30 36 H 4.178059 2.540901 -3.055154 0
M  V30 37 H -0.589421 -2.343916 2.868457 0
M  V30 38 H -2.757307 -1.531700 2.351388 0
M  V30 39 H -2.175056 -0.362661 1.104157 0
M  V30 END ATOM
M  V30 BEGIN BOND
M  V30 1 1 1 2
M  V30 2 1 2 3
M  V30 3 1 3 4
M  V30 4 1 3 5
M  V30 5 1 5 6
M  V30 6 1 6 7
M  V30 7 2 7 8
M  V30 8 1 8 9
M  V30 9 2 9 10
M  V30 10 1 10 11
M  V30 11 2 11 12
M  V30 12 1 12 13
M  V30 13 2 13 14
M  V30 14 1 14 15
M  V30 15 1 5 16
M  V30 16 1 16 17
M  V30 17 1 17 18
M  V30 18 1 18 19
M  V30 19 1 19 20
M  V30 20 2 20 21
M  V30 21 1 20 22 CFG=1
M  V30 22 1 20 23
M  V30 23 1 23 24
M  V30 24 2 24 25
M  V30 25 1 24 26
M  V30 26 1 24 27
M  V30 27 1 17 2
M  V30 28 1 10 6
M  V30 29 1 14 9
M  V30 30 1 1 28
M  V30 31 1 2 29 CFG=3
M  V30 32 1 3 30 CFG=1
M  V30 33 1 4 31
M  V30 34 1 5 32 CFG=1
M  V30 35 1 7 33
M  V30 36 1 12 34
M  V30 37 1 15 35
M  V30 38 1 15 36
M  V30 39 1 17 37 CFG=1
M  V30 40 1 18 38
M  V30 41 1 18 39
M  V30 END BOND
M  V30 END CTAB
M  END
>  <Dataset>  (93) 
PDB

>  <Ligand_Instance>  (93) 
4IAY_ADP_A_403

>  <PDB_ID>  (93) 
4IAY

>  <Standardized_SMILES>  (93) 
[H]O[C@@]1([H])[C@@]([H])(O[H])[C@]([H])(N2C([H])=NC3=C2N=C([H])N=C3N([H])[H])O[C@]1([H])C([H])([H])O[P@](=O)([O-])OP(=O)([O-])[O-]

>  <Name>  (93) 
ADENOSINE-5'-DIPHOSPHATE

>  <Pocket>  (93) 
A

>  <ATP_Site>  (93) 
1.0

>  <Peripheral>  (93) 
0.0

>  <Num_H_Atoms_ProtBoundConf>  (93) 
12.0

>  <Num_Resolved_Atoms>  (93) 
27.0

>  <Num_Not_Resolved_Atoms>  (93) 
0.0

>  <2D_Mol_H>  (93) 
<rdkit.Chem.rdchem.Mol object at 0x72a238dc78b0>

>  <MW>  (93) 
424.179

>  <HBA>  (93) 
15

>  <HBD>  (93) 
3

>  <LogP>  (93) 
-3.642

>  <NRB>  (93) 
9

>  <TPSA>  (93) 
241.09

>  <Num_Heavy_Atoms>  (93) 
27

>  <Ro5>  (93) 
[True, False, True, True, True, False]

>  <Ro5_Fulfilled>  (93) 
False

>  <Ro3>  (93) 
[False, False, True, True]

>  <Ro3_Fulfilled>  (93) 
False

>  <Fsp3>  (93) 
0.5

>  <Fsp3_0.42>  (93) 
True

>  <Fsp3_0.45>  (93) 
True

>  <Stereogenic_Carbons>  (93) 
4

>  <C_Atoms>  (93) 
10

>  <FCStereo>  (93) 
0.4

>  <SPS>  (93) 
769

>  <nSPS>  (93) 
28.481481

>  <PBF>  (93) 
1.2091

>  <PBF_0.6>  (93) 
True

>  <nPBF>  (93) 
0.044781

>  <nPBF_0.016>  (93) 
True

>  <PMI1>  (93) 
2079.437579

>  <PMI2>  (93) 
5362.911313

>  <PMI3>  (93) 
6018.095926

>  <NPR1>  (93) 
0.345531

>  <NPR2>  (93) 
0.891131

>  <Sum_NPR>  (93) 
1.236662

>  <Sum_NPR_1.07>  (93) 
True

>  <Sum_NPR_1.2>  (93) 
True

>  <MaxAbsEStateIndex>  (93) 
11.278955

>  <MaxEStateIndex>  (93) 
11.278955

>  <MinAbsEStateIndex>  (93) 
0.065524

>  <MinEStateIndex>  (93) 
-5.851432

>  <qed>  (93) 
0.378904

>  <MolWt>  (93) 
424.179

>  <HeavyAtomMolWt>  (93) 
412.083

>  <ExactMolWt>  (93) 
424.007586

>  <NumValenceElectrons>  (93) 
150

>  <NumRadicalElectrons>  (93) 
0

>  <MaxPartialCharge>  (93) 
0.271368

>  <MinPartialCharge>  (93) 
-0.789509

>  <MaxAbsPartialCharge>  (93) 
0.789509

>  <MinAbsPartialCharge>  (93) 
0.271368

>  <FpDensityMorgan1>  (93) 
1.222222

>  <FpDensityMorgan2>  (93) 
1.925926

>  <FpDensityMorgan3>  (93) 
2.592593

>  <BCUT2D_MWHI>  (93) 
31.27025

>  <BCUT2D_MWLOW>  (93) 
10.128388

>  <BCUT2D_CHGHI>  (93) 
2.444842

>  <BCUT2D_CHGLO>  (93) 
-2.350424

>  <BCUT2D_LOGPHI>  (93) 
2.503664

>  <BCUT2D_LOGPLOW>  (93) 
-2.337741

>  <BCUT2D_MRHI>  (93) 
7.580921

>  <BCUT2D_MRLOW>  (93) 
-0.339423

>  <AvgIpc>  (93) 
3.072773

>  <BalabanJ>  (93) 
1.748652

>  <BertzCT>  (93) 
932.232873

>  <Chi0>  (93) 
19.982763

>  <Chi0n>  (93) 
13.092254

>  <Chi0v>  (93) 
14.881108

>  <Chi1>  (93) 
12.483782

>  <Chi1n>  (93) 
7.119416

>  <Chi1v>  (93) 
10.040603

>  <Chi2n>  (93) 
5.401088

>  <Chi2v>  (93) 
8.101339

>  <Chi3n>  (93) 
3.595354

>  <Chi3v>  (93) 
5.660653

>  <Chi4n>  (93) 
2.463726

>  <Chi4v>  (93) 
3.961582

>  <HallKierAlpha>  (93) 
-1.51

>  <Ipc>  (93) 
807942.564302

>  <Kappa1>  (93) 
20.230095

>  <Kappa2>  (93) 
7.144568

>  <Kappa3>  (93) 
4.329348

>  <LabuteASA>  (93) 
149.760939

>  <PEOE_VSA1>  (93) 
44.452615

>  <PEOE_VSA10>  (93) 
30.15592

>  <PEOE_VSA11>  (93) 
17.692941

>  <PEOE_VSA12>  (93) 
0.0

>  <PEOE_VSA13>  (93) 
7.822697

>  <PEOE_VSA14>  (93) 
0.0

>  <PEOE_VSA2>  (93) 
13.442779

>  <PEOE_VSA3>  (93) 
14.951936

>  <PEOE_VSA4>  (93) 
0.0

>  <PEOE_VSA5>  (93) 
0.0

>  <PEOE_VSA6>  (93) 
0.0

>  <PEOE_VSA7>  (93) 
0.0

>  <PEOE_VSA8>  (93) 
0.0

>  <PEOE_VSA9>  (93) 
20.756899

>  <SMR_VSA1>  (93) 
47.594628

>  <SMR_VSA10>  (93) 
32.627135

>  <SMR_VSA2>  (93) 
0.0

>  <SMR_VSA3>  (93) 
19.519035

>  <SMR_VSA4>  (93) 
0.0

>  <SMR_VSA5>  (93) 
24.5398

>  <SMR_VSA6>  (93) 
12.340549

>  <SMR_VSA7>  (93) 
12.65464

>  <SMR_VSA8>  (93) 
0.0

>  <SMR_VSA9>  (93) 
0.0

>  <SlogP_VSA1>  (93) 
20.413902

>  <SlogP_VSA10>  (93) 
5.817863

>  <SlogP_VSA11>  (93) 
0.0

>  <SlogP_VSA12>  (93) 
15.645394

>  <SlogP_VSA2>  (93) 
54.650871

>  <SlogP_VSA3>  (93) 
22.701338

>  <SlogP_VSA4>  (93) 
0.0

>  <SlogP_VSA5>  (93) 
6.227901

>  <SlogP_VSA6>  (93) 
12.65464

>  <SlogP_VSA7>  (93) 
0.0

>  <SlogP_VSA8>  (93) 
11.163878

>  <SlogP_VSA9>  (93) 
0.0

>  <EState_VSA1>  (93) 
46.792077

>  <EState_VSA10>  (93) 
34.023386

>  <EState_VSA11>  (93) 
0.0

>  <EState_VSA2>  (93) 
16.981741

>  <EState_VSA3>  (93) 
0.0

>  <EState_VSA4>  (93) 
6.32732

>  <EState_VSA5>  (93) 
10.89442

>  <EState_VSA6>  (93) 
0.0

>  <EState_VSA7>  (93) 
0.0

>  <EState_VSA8>  (93) 
23.786314

>  <EState_VSA9>  (93) 
10.47053

>  <VSA_EState1>  (93) 
35.749107

>  <VSA_EState10>  (93) 
0.0

>  <VSA_EState2>  (93) 
43.665953

>  <VSA_EState3>  (93) 
20.193372

>  <VSA_EState4>  (93) 
6.037581

>  <VSA_EState5>  (93) 
0.065524

>  <VSA_EState6>  (93) 
0.0

>  <VSA_EState7>  (93) 
-3.478964

>  <VSA_EState8>  (93) 
-0.931293

>  <VSA_EState9>  (93) 
-11.356836

>  <FractionCSP3>  (93) 
0.5

>  <HeavyAtomCount>  (93) 
27

>  <NHOHCount>  (93) 
4

>  <NOCount>  (93) 
15

>  <NumAliphaticCarbocycles>  (93) 
0

>  <NumAliphaticHeterocycles>  (93) 
1

>  <NumAliphaticRings>  (93) 
1

>  <NumAromaticCarbocycles>  (93) 
0

>  <NumAromaticHeterocycles>  (93) 
2

>  <NAR>  (93) 
2

>  <NumHAcceptors>  (93) 
15

>  <NumHDonors>  (93) 
3

>  <NumHeteroatoms>  (93) 
17

>  <NumRotatableBonds>  (93) 
6

>  <NumSaturatedCarbocycles>  (93) 
0

>  <NumSaturatedHeterocycles>  (93) 
1

>  <NumSaturatedRings>  (93) 
1

>  <RingCount>  (93) 
3

>  <MolLogP>  (93) 
-3.642

>  <MolMR>  (93) 
77.909

>  <fr_Al_COO>  (93) 
0

>  <fr_Al_OH>  (93) 
2

>  <fr_Al_OH_noTert>  (93) 
2

>  <fr_ArN>  (93) 
1

>  <fr_Ar_COO>  (93) 
0

>  <fr_Ar_N>  (93) 
4

>  <fr_Ar_NH>  (93) 
0

>  <fr_Ar_OH>  (93) 
0

>  <fr_COO>  (93) 
0

>  <fr_COO2>  (93) 
0

>  <fr_C_O>  (93) 
0

>  <fr_C_O_noCOO>  (93) 
0

>  <fr_C_S>  (93) 
0

>  <fr_HOCCN>  (93) 
0

>  <fr_Imine>  (93) 
0

>  <fr_NH0>  (93) 
4

>  <fr_NH1>  (93) 
0

>  <fr_NH2>  (93) 
1

>  <fr_N_O>  (93) 
0

>  <fr_Ndealkylation1>  (93) 
0

>  <fr_Ndealkylation2>  (93) 
0

>  <fr_Nhpyrrole>  (93) 
0

>  <fr_SH>  (93) 
0

>  <fr_aldehyde>  (93) 
0

>  <fr_alkyl_carbamate>  (93) 
0

>  <fr_alkyl_halide>  (93) 
0

>  <fr_allylic_oxid>  (93) 
0

>  <fr_amide>  (93) 
0

>  <fr_amidine>  (93) 
0

>  <fr_aniline>  (93) 
1

>  <fr_aryl_methyl>  (93) 
0

>  <fr_azide>  (93) 
0

>  <fr_azo>  (93) 
0

>  <fr_barbitur>  (93) 
0

>  <fr_benzene>  (93) 
0

>  <fr_benzodiazepine>  (93) 
0

>  <fr_bicyclic>  (93) 
1

>  <fr_diazo>  (93) 
0

>  <fr_dihydropyridine>  (93) 
0

>  <fr_epoxide>  (93) 
0

>  <fr_ester>  (93) 
0

>  <fr_ether>  (93) 
1

>  <fr_furan>  (93) 
0

>  <fr_guanido>  (93) 
0

>  <fr_halogen>  (93) 
0

>  <fr_hdrzine>  (93) 
0

>  <fr_hdrzone>  (93) 
0

>  <fr_imidazole>  (93) 
1

>  <fr_imide>  (93) 
0

>  <fr_isocyan>  (93) 
0

>  <fr_isothiocyan>  (93) 
0

>  <fr_ketone>  (93) 
0

>  <fr_ketone_Topliss>  (93) 
0

>  <fr_lactam>  (93) 
0

>  <fr_lactone>  (93) 
0

>  <fr_methoxy>  (93) 
0

>  <fr_morpholine>  (93) 
0

>  <fr_nitrile>  (93) 
0

>  <fr_nitro>  (93) 
0

>  <fr_nitro_arom>  (93) 
0

>  <fr_nitro_arom_nonortho>  (93) 
0

>  <fr_nitroso>  (93) 
0

>  <fr_oxazole>  (93) 
0

>  <fr_oxime>  (93) 
0

>  <fr_para_hydroxylation>  (93) 
0

>  <fr_phenol>  (93) 
0

>  <fr_phenol_noOrthoHbond>  (93) 
0

>  <fr_phos_acid>  (93) 
2

>  <fr_phos_ester>  (93) 
1

>  <fr_piperdine>  (93) 
0

>  <fr_piperzine>  (93) 
0

>  <fr_priamide>  (93) 
0

>  <fr_prisulfonamd>  (93) 
0

>  <fr_pyridine>  (93) 
0

>  <fr_quatN>  (93) 
0

>  <fr_sulfide>  (93) 
0

>  <fr_sulfonamd>  (93) 
0

>  <fr_sulfone>  (93) 
0

>  <fr_term_acetylene>  (93) 
0

>  <fr_tetrazole>  (93) 
0

>  <fr_thiazole>  (93) 
0

>  <fr_thiocyan>  (93) 
0

>  <fr_thiophene>  (93) 
0

>  <fr_unbrch_alkane>  (93) 
0

>  <fr_urea>  (93) 
0

>  <NP-Likeness>  (93) 
0.931308

$$$$
ADP
     RDKit          3D

  0  0  0  0  0  0  0  0  0  0999 V3000
M  V30 BEGIN CTAB
M  V30 COUNTS 39 41 0 0 0
M  V30 BEGIN ATOM
M  V30 1 O -0.948285 -0.438583 4.255156 0
M  V30 2 C -0.411171 -0.255040 2.979968 0 CFG=1
M  V30 3 C 1.092178 -0.234105 3.045441 0 CFG=1
M  V30 4 O 1.474056 -0.912258 4.222552 0
M  V30 5 C 1.506228 -0.966081 1.819101 0 CFG=2
M  V30 6 N 2.233989 -0.193765 0.858355 0
M  V30 7 C 3.405953 -0.569193 0.290616 0
M  V30 8 N 3.775171 0.412104 -0.553372 0
M  V30 9 C 2.841851 1.378111 -0.504725 0
M  V30 10 C 1.841459 1.007625 0.397855 0
M  V30 11 N 0.833709 1.848388 0.572746 0
M  V30 12 C 0.798356 3.009814 -0.105821 0
M  V30 13 N 1.756149 3.378451 -0.978390 0
M  V30 14 C 2.825105 2.577588 -1.218927 0
M  V30 15 N 3.876306 2.894850 -2.123767 0
M  V30 16 O 0.375978 -1.480544 1.215317 0
M  V30 17 C -0.633812 -1.513038 2.138200 0 CFG=2
M  V30 18 C -2.014257 -1.365032 1.534430 0
M  V30 19 O -2.203385 -2.413883 0.644895 0
M  V30 20 P -3.712747 -2.369453 -0.103693 0 CFG=2 VAL=5
M  V30 21 O -4.183525 -0.939805 -0.202494 0
M  V30 22 O -4.824228 -3.304172 0.763507 0 CHG=-1 VAL=1
M  V30 23 O -3.512953 -3.048156 -1.649054 0
M  V30 24 P -2.467036 -4.373660 -1.493633 0
M  V30 25 O -3.034914 -5.398648 -0.528818 0
M  V30 26 O -2.251903 -5.116515 -3.005593 0 CHG=-1 VAL=1
M  V30 27 O -0.976837 -3.814647 -0.958446 0 CHG=-1 VAL=1
M  V30 28 H -1.249546 0.460417 4.565166 0
M  V30 29 H -0.849340 0.579238 2.433626 0
M  V30 30 H 1.506209 0.786595 3.129986 0
M  V30 31 H 2.375076 -0.559672 4.486506 0
M  V30 32 H 2.104238 -1.862424 2.148636 0
M  V30 33 H 3.911678 -1.512796 0.518410 0
M  V30 34 H 0.006807 3.762144 -0.024072 0
M  V30 35 H 4.664131 3.602715 -2.092400 0
M  V30 36 H 4.178059 2.540901 -3.055154 0
M  V30 37 H -0.589421 -2.343916 2.868457 0
M  V30 38 H -2.757307 -1.531700 2.351388 0
M  V30 39 H -2.175056 -0.362661 1.104157 0
M  V30 END ATOM
M  V30 BEGIN BOND
M  V30 1 1 1 2
M  V30 2 1 2 3
M  V30 3 1 3 4
M  V30 4 1 3 5
M  V30 5 1 5 6
M  V30 6 1 6 7
M  V30 7 2 7 8
M  V30 8 1 8 9
M  V30 9 2 9 10
M  V30 10 1 10 11
M  V30 11 2 11 12
M  V30 12 1 12 13
M  V30 13 2 13 14
M  V30 14 1 14 15
M  V30 15 1 5 16
M  V30 16 1 16 17
M  V30 17 1 17 18
M  V30 18 1 18 19
M  V30 19 1 19 20
M  V30 20 2 20 21
M  V30 21 1 20 22 CFG=1
M  V30 22 1 20 23
M  V30 23 1 23 24
M  V30 24 2 24 25
M  V30 25 1 24 26
M  V30 26 1 24 27
M  V30 27 1 17 2
M  V30 28 1 10 6
M  V30 29 1 14 9
M  V30 30 1 1 28
M  V30 31 1 2 29 CFG=3
M  V30 32 1 3 30 CFG=1
M  V30 33 1 4 31
M  V30 34 1 5 32 CFG=1
M  V30 35 1 7 33
M  V30 36 1 12 34
M  V30 37 1 15 35
M  V30 38 1 15 36
M  V30 39 1 17 37 CFG=1
M  V30 40 1 18 38
M  V30 41 1 18 39
M  V30 END BOND
M  V30 END CTAB
M  END
>  <Dataset>  (94) 
PDB

>  <Ligand_Instance>  (94) 
4IAZ_ADP_A_403

>  <PDB_ID>  (94) 
4IAZ

>  <Standardized_SMILES>  (94) 
[H]O[C@@]1([H])[C@@]([H])(O[H])[C@]([H])(N2C([H])=NC3=C2N=C([H])N=C3N([H])[H])O[C@]1([H])C([H])([H])O[P@](=O)([O-])OP(=O)([O-])[O-]

>  <Name>  (94) 
ADENOSINE-5'-DIPHOSPHATE

>  <Pocket>  (94) 
A

>  <ATP_Site>  (94) 
1.0

>  <Peripheral>  (94) 
0.0

>  <Num_H_Atoms_ProtBoundConf>  (94) 
12.0

>  <Num_Resolved_Atoms>  (94) 
27.0

>  <Num_Not_Resolved_Atoms>  (94) 
0.0

>  <2D_Mol_H>  (94) 
<rdkit.Chem.rdchem.Mol object at 0x72a238dc7990>

>  <MW>  (94) 
424.179

>  <HBA>  (94) 
15

>  <HBD>  (94) 
3

>  <LogP>  (94) 
-3.642

>  <NRB>  (94) 
9

>  <TPSA>  (94) 
241.09

>  <Num_Heavy_Atoms>  (94) 
27

>  <Ro5>  (94) 
[True, False, True, True, True, False]

>  <Ro5_Fulfilled>  (94) 
False

>  <Ro3>  (94) 
[False, False, True, True]

>  <Ro3_Fulfilled>  (94) 
False

>  <Fsp3>  (94) 
0.5

>  <Fsp3_0.42>  (94) 
True

>  <Fsp3_0.45>  (94) 
True

>  <Stereogenic_Carbons>  (94) 
4

>  <C_Atoms>  (94) 
10

>  <FCStereo>  (94) 
0.4

>  <SPS>  (94) 
769

>  <nSPS>  (94) 
28.481481

>  <PBF>  (94) 
1.2091

>  <PBF_0.6>  (94) 
True

>  <nPBF>  (94) 
0.044781

>  <nPBF_0.016>  (94) 
True

>  <PMI1>  (94) 
2079.437579

>  <PMI2>  (94) 
5362.911313

>  <PMI3>  (94) 
6018.095926

>  <NPR1>  (94) 
0.345531

>  <NPR2>  (94) 
0.891131

>  <Sum_NPR>  (94) 
1.236662

>  <Sum_NPR_1.07>  (94) 
True

>  <Sum_NPR_1.2>  (94) 
True

>  <MaxAbsEStateIndex>  (94) 
11.278955

>  <MaxEStateIndex>  (94) 
11.278955

>  <MinAbsEStateIndex>  (94) 
0.065524

>  <MinEStateIndex>  (94) 
-5.851432

>  <qed>  (94) 
0.378904

>  <MolWt>  (94) 
424.179

>  <HeavyAtomMolWt>  (94) 
412.083

>  <ExactMolWt>  (94) 
424.007586

>  <NumValenceElectrons>  (94) 
150

>  <NumRadicalElectrons>  (94) 
0

>  <MaxPartialCharge>  (94) 
0.271368

>  <MinPartialCharge>  (94) 
-0.789509

>  <MaxAbsPartialCharge>  (94) 
0.789509

>  <MinAbsPartialCharge>  (94) 
0.271368

>  <FpDensityMorgan1>  (94) 
1.222222

>  <FpDensityMorgan2>  (94) 
1.925926

>  <FpDensityMorgan3>  (94) 
2.592593

>  <BCUT2D_MWHI>  (94) 
31.27025

>  <BCUT2D_MWLOW>  (94) 
10.128388

>  <BCUT2D_CHGHI>  (94) 
2.444842

>  <BCUT2D_CHGLO>  (94) 
-2.350424

>  <BCUT2D_LOGPHI>  (94) 
2.503664

>  <BCUT2D_LOGPLOW>  (94) 
-2.337741

>  <BCUT2D_MRHI>  (94) 
7.580921

>  <BCUT2D_MRLOW>  (94) 
-0.339423

>  <AvgIpc>  (94) 
3.072773

>  <BalabanJ>  (94) 
1.748652

>  <BertzCT>  (94) 
932.232873

>  <Chi0>  (94) 
19.982763

>  <Chi0n>  (94) 
13.092254

>  <Chi0v>  (94) 
14.881108

>  <Chi1>  (94) 
12.483782

>  <Chi1n>  (94) 
7.119416

>  <Chi1v>  (94) 
10.040603

>  <Chi2n>  (94) 
5.401088

>  <Chi2v>  (94) 
8.101339

>  <Chi3n>  (94) 
3.595354

>  <Chi3v>  (94) 
5.660653

>  <Chi4n>  (94) 
2.463726

>  <Chi4v>  (94) 
3.961582

>  <HallKierAlpha>  (94) 
-1.51

>  <Ipc>  (94) 
807942.564302

>  <Kappa1>  (94) 
20.230095

>  <Kappa2>  (94) 
7.144568

>  <Kappa3>  (94) 
4.329348

>  <LabuteASA>  (94) 
149.760939

>  <PEOE_VSA1>  (94) 
44.452615

>  <PEOE_VSA10>  (94) 
30.15592

>  <PEOE_VSA11>  (94) 
17.692941

>  <PEOE_VSA12>  (94) 
0.0

>  <PEOE_VSA13>  (94) 
7.822697

>  <PEOE_VSA14>  (94) 
0.0

>  <PEOE_VSA2>  (94) 
13.442779

>  <PEOE_VSA3>  (94) 
14.951936

>  <PEOE_VSA4>  (94) 
0.0

>  <PEOE_VSA5>  (94) 
0.0

>  <PEOE_VSA6>  (94) 
0.0

>  <PEOE_VSA7>  (94) 
0.0

>  <PEOE_VSA8>  (94) 
0.0

>  <PEOE_VSA9>  (94) 
20.756899

>  <SMR_VSA1>  (94) 
47.594628

>  <SMR_VSA10>  (94) 
32.627135

>  <SMR_VSA2>  (94) 
0.0

>  <SMR_VSA3>  (94) 
19.519035

>  <SMR_VSA4>  (94) 
0.0

>  <SMR_VSA5>  (94) 
24.5398

>  <SMR_VSA6>  (94) 
12.340549

>  <SMR_VSA7>  (94) 
12.65464

>  <SMR_VSA8>  (94) 
0.0

>  <SMR_VSA9>  (94) 
0.0

>  <SlogP_VSA1>  (94) 
20.413902

>  <SlogP_VSA10>  (94) 
5.817863

>  <SlogP_VSA11>  (94) 
0.0

>  <SlogP_VSA12>  (94) 
15.645394

>  <SlogP_VSA2>  (94) 
54.650871

>  <SlogP_VSA3>  (94) 
22.701338

>  <SlogP_VSA4>  (94) 
0.0

>  <SlogP_VSA5>  (94) 
6.227901

>  <SlogP_VSA6>  (94) 
12.65464

>  <SlogP_VSA7>  (94) 
0.0

>  <SlogP_VSA8>  (94) 
11.163878

>  <SlogP_VSA9>  (94) 
0.0

>  <EState_VSA1>  (94) 
46.792077

>  <EState_VSA10>  (94) 
34.023386

>  <EState_VSA11>  (94) 
0.0

>  <EState_VSA2>  (94) 
16.981741

>  <EState_VSA3>  (94) 
0.0

>  <EState_VSA4>  (94) 
6.32732

>  <EState_VSA5>  (94) 
10.89442

>  <EState_VSA6>  (94) 
0.0

>  <EState_VSA7>  (94) 
0.0

>  <EState_VSA8>  (94) 
23.786314

>  <EState_VSA9>  (94) 
10.47053

>  <VSA_EState1>  (94) 
35.749107

>  <VSA_EState10>  (94) 
0.0

>  <VSA_EState2>  (94) 
43.665953

>  <VSA_EState3>  (94) 
20.193372

>  <VSA_EState4>  (94) 
6.037581

>  <VSA_EState5>  (94) 
0.065524

>  <VSA_EState6>  (94) 
0.0

>  <VSA_EState7>  (94) 
-3.478964

>  <VSA_EState8>  (94) 
-0.931293

>  <VSA_EState9>  (94) 
-11.356836

>  <FractionCSP3>  (94) 
0.5

>  <HeavyAtomCount>  (94) 
27

>  <NHOHCount>  (94) 
4

>  <NOCount>  (94) 
15

>  <NumAliphaticCarbocycles>  (94) 
0

>  <NumAliphaticHeterocycles>  (94) 
1

>  <NumAliphaticRings>  (94) 
1

>  <NumAromaticCarbocycles>  (94) 
0

>  <NumAromaticHeterocycles>  (94) 
2

>  <NAR>  (94) 
2

>  <NumHAcceptors>  (94) 
15

>  <NumHDonors>  (94) 
3

>  <NumHeteroatoms>  (94) 
17

>  <NumRotatableBonds>  (94) 
6

>  <NumSaturatedCarbocycles>  (94) 
0

>  <NumSaturatedHeterocycles>  (94) 
1

>  <NumSaturatedRings>  (94) 
1

>  <RingCount>  (94) 
3

>  <MolLogP>  (94) 
-3.642

>  <MolMR>  (94) 
77.909

>  <fr_Al_COO>  (94) 
0

>  <fr_Al_OH>  (94) 
2

>  <fr_Al_OH_noTert>  (94) 
2

>  <fr_ArN>  (94) 
1

>  <fr_Ar_COO>  (94) 
0

>  <fr_Ar_N>  (94) 
4

>  <fr_Ar_NH>  (94) 
0

>  <fr_Ar_OH>  (94) 
0

>  <fr_COO>  (94) 
0

>  <fr_COO2>  (94) 
0

>  <fr_C_O>  (94) 
0

>  <fr_C_O_noCOO>  (94) 
0

>  <fr_C_S>  (94) 
0

>  <fr_HOCCN>  (94) 
0

>  <fr_Imine>  (94) 
0

>  <fr_NH0>  (94) 
4

>  <fr_NH1>  (94) 
0

>  <fr_NH2>  (94) 
1

>  <fr_N_O>  (94) 
0

>  <fr_Ndealkylation1>  (94) 
0

>  <fr_Ndealkylation2>  (94) 
0

>  <fr_Nhpyrrole>  (94) 
0

>  <fr_SH>  (94) 
0

>  <fr_aldehyde>  (94) 
0

>  <fr_alkyl_carbamate>  (94) 
0

>  <fr_alkyl_halide>  (94) 
0

>  <fr_allylic_oxid>  (94) 
0

>  <fr_amide>  (94) 
0

>  <fr_amidine>  (94) 
0

>  <fr_aniline>  (94) 
1

>  <fr_aryl_methyl>  (94) 
0

>  <fr_azide>  (94) 
0

>  <fr_azo>  (94) 
0

>  <fr_barbitur>  (94) 
0

>  <fr_benzene>  (94) 
0

>  <fr_benzodiazepine>  (94) 
0

>  <fr_bicyclic>  (94) 
1

>  <fr_diazo>  (94) 
0

>  <fr_dihydropyridine>  (94) 
0

>  <fr_epoxide>  (94) 
0

>  <fr_ester>  (94) 
0

>  <fr_ether>  (94) 
1

>  <fr_furan>  (94) 
0

>  <fr_guanido>  (94) 
0

>  <fr_halogen>  (94) 
0

>  <fr_hdrzine>  (94) 
0

>  <fr_hdrzone>  (94) 
0

>  <fr_imidazole>  (94) 
1

>  <fr_imide>  (94) 
0

>  <fr_isocyan>  (94) 
0

>  <fr_isothiocyan>  (94) 
0

>  <fr_ketone>  (94) 
0

>  <fr_ketone_Topliss>  (94) 
0

>  <fr_lactam>  (94) 
0

>  <fr_lactone>  (94) 
0

>  <fr_methoxy>  (94) 
0

>  <fr_morpholine>  (94) 
0

>  <fr_nitrile>  (94) 
0

>  <fr_nitro>  (94) 
0

>  <fr_nitro_arom>  (94) 
0

>  <fr_nitro_arom_nonortho>  (94) 
0

>  <fr_nitroso>  (94) 
0

>  <fr_oxazole>  (94) 
0

>  <fr_oxime>  (94) 
0

>  <fr_para_hydroxylation>  (94) 
0

>  <fr_phenol>  (94) 
0

>  <fr_phenol_noOrthoHbond>  (94) 
0

>  <fr_phos_acid>  (94) 
2

>  <fr_phos_ester>  (94) 
1

>  <fr_piperdine>  (94) 
0

>  <fr_piperzine>  (94) 
0

>  <fr_priamide>  (94) 
0

>  <fr_prisulfonamd>  (94) 
0

>  <fr_pyridine>  (94) 
0

>  <fr_quatN>  (94) 
0

>  <fr_sulfide>  (94) 
0

>  <fr_sulfonamd>  (94) 
0

>  <fr_sulfone>  (94) 
0

>  <fr_term_acetylene>  (94) 
0

>  <fr_tetrazole>  (94) 
0

>  <fr_thiazole>  (94) 
0

>  <fr_thiocyan>  (94) 
0

>  <fr_thiophene>  (94) 
0

>  <fr_unbrch_alkane>  (94) 
0

>  <fr_urea>  (94) 
0

>  <NP-Likeness>  (94) 
0.931308

$$$$
ADP
     RDKit          3D

  0  0  0  0  0  0  0  0  0  0999 V3000
M  V30 BEGIN CTAB
M  V30 COUNTS 39 41 0 0 0
M  V30 BEGIN ATOM
M  V30 1 O -0.948285 -0.438583 4.255156 0
M  V30 2 C -0.411171 -0.255040 2.979968 0 CFG=1
M  V30 3 C 1.092178 -0.234105 3.045441 0 CFG=1
M  V30 4 O 1.474056 -0.912258 4.222552 0
M  V30 5 C 1.506228 -0.966081 1.819101 0 CFG=2
M  V30 6 N 2.233989 -0.193765 0.858355 0
M  V30 7 C 3.405953 -0.569193 0.290616 0
M  V30 8 N 3.775171 0.412104 -0.553372 0
M  V30 9 C 2.841851 1.378111 -0.504725 0
M  V30 10 C 1.841459 1.007625 0.397855 0
M  V30 11 N 0.833709 1.848388 0.572746 0
M  V30 12 C 0.798356 3.009814 -0.105821 0
M  V30 13 N 1.756149 3.378451 -0.978390 0
M  V30 14 C 2.825105 2.577588 -1.218927 0
M  V30 15 N 3.876306 2.894850 -2.123767 0
M  V30 16 O 0.375978 -1.480544 1.215317 0
M  V30 17 C -0.633812 -1.513038 2.138200 0 CFG=2
M  V30 18 C -2.014257 -1.365032 1.534430 0
M  V30 19 O -2.203385 -2.413883 0.644895 0
M  V30 20 P -3.712747 -2.369453 -0.103693 0 CFG=2 VAL=5
M  V30 21 O -4.183525 -0.939805 -0.202494 0
M  V30 22 O -4.824228 -3.304172 0.763507 0 CHG=-1 VAL=1
M  V30 23 O -3.512953 -3.048156 -1.649054 0
M  V30 24 P -2.467036 -4.373660 -1.493633 0
M  V30 25 O -3.034914 -5.398648 -0.528818 0
M  V30 26 O -2.251903 -5.116515 -3.005593 0 CHG=-1 VAL=1
M  V30 27 O -0.976837 -3.814647 -0.958446 0 CHG=-1 VAL=1
M  V30 28 H -1.249546 0.460417 4.565166 0
M  V30 29 H -0.849340 0.579238 2.433626 0
M  V30 30 H 1.506209 0.786595 3.129986 0
M  V30 31 H 2.375076 -0.559672 4.486506 0
M  V30 32 H 2.104238 -1.862424 2.148636 0
M  V30 33 H 3.911678 -1.512796 0.518410 0
M  V30 34 H 0.006807 3.762144 -0.024072 0
M  V30 35 H 4.664131 3.602715 -2.092400 0
M  V30 36 H 4.178059 2.540901 -3.055154 0
M  V30 37 H -0.589421 -2.343916 2.868457 0
M  V30 38 H -2.757307 -1.531700 2.351388 0
M  V30 39 H -2.175056 -0.362661 1.104157 0
M  V30 END ATOM
M  V30 BEGIN BOND
M  V30 1 1 1 2
M  V30 2 1 2 3
M  V30 3 1 3 4
M  V30 4 1 3 5
M  V30 5 1 5 6
M  V30 6 1 6 7
M  V30 7 2 7 8
M  V30 8 1 8 9
M  V30 9 2 9 10
M  V30 10 1 10 11
M  V30 11 2 11 12
M  V30 12 1 12 13
M  V30 13 2 13 14
M  V30 14 1 14 15
M  V30 15 1 5 16
M  V30 16 1 16 17
M  V30 17 1 17 18
M  V30 18 1 18 19
M  V30 19 1 19 20
M  V30 20 2 20 21
M  V30 21 1 20 22 CFG=1
M  V30 22 1 20 23
M  V30 23 1 23 24
M  V30 24 2 24 25
M  V30 25 1 24 26
M  V30 26 1 24 27
M  V30 27 1 17 2
M  V30 28 1 10 6
M  V30 29 1 14 9
M  V30 30 1 1 28
M  V30 31 1 2 29 CFG=3
M  V30 32 1 3 30 CFG=1
M  V30 33 1 4 31
M  V30 34 1 5 32 CFG=1
M  V30 35 1 7 33
M  V30 36 1 12 34
M  V30 37 1 15 35
M  V30 38 1 15 36
M  V30 39 1 17 37 CFG=1
M  V30 40 1 18 38
M  V30 41 1 18 39
M  V30 END BOND
M  V30 END CTAB
M  END
>  <Dataset>  (95) 
PDB

>  <Ligand_Instance>  (95) 
4IB0_ADP_A_403

>  <PDB_ID>  (95) 
4IB0

>  <Standardized_SMILES>  (95) 
[H]O[C@@]1([H])[C@@]([H])(O[H])[C@]([H])(N2C([H])=NC3=C2N=C([H])N=C3N([H])[H])O[C@]1([H])C([H])([H])O[P@](=O)([O-])OP(=O)([O-])[O-]

>  <Name>  (95) 
ADENOSINE-5'-DIPHOSPHATE

>  <Pocket>  (95) 
A

>  <ATP_Site>  (95) 
1.0

>  <Peripheral>  (95) 
0.0

>  <Num_H_Atoms_ProtBoundConf>  (95) 
12.0

>  <Num_Resolved_Atoms>  (95) 
27.0

>  <Num_Not_Resolved_Atoms>  (95) 
0.0

>  <2D_Mol_H>  (95) 
<rdkit.Chem.rdchem.Mol object at 0x72a238dc7a70>

>  <MW>  (95) 
424.179

>  <HBA>  (95) 
15

>  <HBD>  (95) 
3

>  <LogP>  (95) 
-3.642

>  <NRB>  (95) 
9

>  <TPSA>  (95) 
241.09

>  <Num_Heavy_Atoms>  (95) 
27

>  <Ro5>  (95) 
[True, False, True, True, True, False]

>  <Ro5_Fulfilled>  (95) 
False

>  <Ro3>  (95) 
[False, False, True, True]

>  <Ro3_Fulfilled>  (95) 
False

>  <Fsp3>  (95) 
0.5

>  <Fsp3_0.42>  (95) 
True

>  <Fsp3_0.45>  (95) 
True

>  <Stereogenic_Carbons>  (95) 
4

>  <C_Atoms>  (95) 
10

>  <FCStereo>  (95) 
0.4

>  <SPS>  (95) 
769

>  <nSPS>  (95) 
28.481481

>  <PBF>  (95) 
1.2091

>  <PBF_0.6>  (95) 
True

>  <nPBF>  (95) 
0.044781

>  <nPBF_0.016>  (95) 
True

>  <PMI1>  (95) 
2079.437579

>  <PMI2>  (95) 
5362.911313

>  <PMI3>  (95) 
6018.095926

>  <NPR1>  (95) 
0.345531

>  <NPR2>  (95) 
0.891131

>  <Sum_NPR>  (95) 
1.236662

>  <Sum_NPR_1.07>  (95) 
True

>  <Sum_NPR_1.2>  (95) 
True

>  <MaxAbsEStateIndex>  (95) 
11.278955

>  <MaxEStateIndex>  (95) 
11.278955

>  <MinAbsEStateIndex>  (95) 
0.065524

>  <MinEStateIndex>  (95) 
-5.851432

>  <qed>  (95) 
0.378904

>  <MolWt>  (95) 
424.179

>  <HeavyAtomMolWt>  (95) 
412.083

>  <ExactMolWt>  (95) 
424.007586

>  <NumValenceElectrons>  (95) 
150

>  <NumRadicalElectrons>  (95) 
0

>  <MaxPartialCharge>  (95) 
0.271368

>  <MinPartialCharge>  (95) 
-0.789509

>  <MaxAbsPartialCharge>  (95) 
0.789509

>  <MinAbsPartialCharge>  (95) 
0.271368

>  <FpDensityMorgan1>  (95) 
1.222222

>  <FpDensityMorgan2>  (95) 
1.925926

>  <FpDensityMorgan3>  (95) 
2.592593

>  <BCUT2D_MWHI>  (95) 
31.27025

>  <BCUT2D_MWLOW>  (95) 
10.128388

>  <BCUT2D_CHGHI>  (95) 
2.444842

>  <BCUT2D_CHGLO>  (95) 
-2.350424

>  <BCUT2D_LOGPHI>  (95) 
2.503664

>  <BCUT2D_LOGPLOW>  (95) 
-2.337741

>  <BCUT2D_MRHI>  (95) 
7.580921

>  <BCUT2D_MRLOW>  (95) 
-0.339423

>  <AvgIpc>  (95) 
3.072773

>  <BalabanJ>  (95) 
1.748652

>  <BertzCT>  (95) 
932.232873

>  <Chi0>  (95) 
19.982763

>  <Chi0n>  (95) 
13.092254

>  <Chi0v>  (95) 
14.881108

>  <Chi1>  (95) 
12.483782

>  <Chi1n>  (95) 
7.119416

>  <Chi1v>  (95) 
10.040603

>  <Chi2n>  (95) 
5.401088

>  <Chi2v>  (95) 
8.101339

>  <Chi3n>  (95) 
3.595354

>  <Chi3v>  (95) 
5.660653

>  <Chi4n>  (95) 
2.463726

>  <Chi4v>  (95) 
3.961582

>  <HallKierAlpha>  (95) 
-1.51

>  <Ipc>  (95) 
807942.564302

>  <Kappa1>  (95) 
20.230095

>  <Kappa2>  (95) 
7.144568

>  <Kappa3>  (95) 
4.329348

>  <LabuteASA>  (95) 
149.760939

>  <PEOE_VSA1>  (95) 
44.452615

>  <PEOE_VSA10>  (95) 
30.15592

>  <PEOE_VSA11>  (95) 
17.692941

>  <PEOE_VSA12>  (95) 
0.0

>  <PEOE_VSA13>  (95) 
7.822697

>  <PEOE_VSA14>  (95) 
0.0

>  <PEOE_VSA2>  (95) 
13.442779

>  <PEOE_VSA3>  (95) 
14.951936

>  <PEOE_VSA4>  (95) 
0.0

>  <PEOE_VSA5>  (95) 
0.0

>  <PEOE_VSA6>  (95) 
0.0

>  <PEOE_VSA7>  (95) 
0.0

>  <PEOE_VSA8>  (95) 
0.0

>  <PEOE_VSA9>  (95) 
20.756899

>  <SMR_VSA1>  (95) 
47.594628

>  <SMR_VSA10>  (95) 
32.627135

>  <SMR_VSA2>  (95) 
0.0

>  <SMR_VSA3>  (95) 
19.519035

>  <SMR_VSA4>  (95) 
0.0

>  <SMR_VSA5>  (95) 
24.5398

>  <SMR_VSA6>  (95) 
12.340549

>  <SMR_VSA7>  (95) 
12.65464

>  <SMR_VSA8>  (95) 
0.0

>  <SMR_VSA9>  (95) 
0.0

>  <SlogP_VSA1>  (95) 
20.413902

>  <SlogP_VSA10>  (95) 
5.817863

>  <SlogP_VSA11>  (95) 
0.0

>  <SlogP_VSA12>  (95) 
15.645394

>  <SlogP_VSA2>  (95) 
54.650871

>  <SlogP_VSA3>  (95) 
22.701338

>  <SlogP_VSA4>  (95) 
0.0

>  <SlogP_VSA5>  (95) 
6.227901

>  <SlogP_VSA6>  (95) 
12.65464

>  <SlogP_VSA7>  (95) 
0.0

>  <SlogP_VSA8>  (95) 
11.163878

>  <SlogP_VSA9>  (95) 
0.0

>  <EState_VSA1>  (95) 
46.792077

>  <EState_VSA10>  (95) 
34.023386

>  <EState_VSA11>  (95) 
0.0

>  <EState_VSA2>  (95) 
16.981741

>  <EState_VSA3>  (95) 
0.0

>  <EState_VSA4>  (95) 
6.32732

>  <EState_VSA5>  (95) 
10.89442

>  <EState_VSA6>  (95) 
0.0

>  <EState_VSA7>  (95) 
0.0

>  <EState_VSA8>  (95) 
23.786314

>  <EState_VSA9>  (95) 
10.47053

>  <VSA_EState1>  (95) 
35.749107

>  <VSA_EState10>  (95) 
0.0

>  <VSA_EState2>  (95) 
43.665953

>  <VSA_EState3>  (95) 
20.193372

>  <VSA_EState4>  (95) 
6.037581

>  <VSA_EState5>  (95) 
0.065524

>  <VSA_EState6>  (95) 
0.0

>  <VSA_EState7>  (95) 
-3.478964

>  <VSA_EState8>  (95) 
-0.931293

>  <VSA_EState9>  (95) 
-11.356836

>  <FractionCSP3>  (95) 
0.5

>  <HeavyAtomCount>  (95) 
27

>  <NHOHCount>  (95) 
4

>  <NOCount>  (95) 
15

>  <NumAliphaticCarbocycles>  (95) 
0

>  <NumAliphaticHeterocycles>  (95) 
1

>  <NumAliphaticRings>  (95) 
1

>  <NumAromaticCarbocycles>  (95) 
0

>  <NumAromaticHeterocycles>  (95) 
2

>  <NAR>  (95) 
2

>  <NumHAcceptors>  (95) 
15

>  <NumHDonors>  (95) 
3

>  <NumHeteroatoms>  (95) 
17

>  <NumRotatableBonds>  (95) 
6

>  <NumSaturatedCarbocycles>  (95) 
0

>  <NumSaturatedHeterocycles>  (95) 
1

>  <NumSaturatedRings>  (95) 
1

>  <RingCount>  (95) 
3

>  <MolLogP>  (95) 
-3.642

>  <MolMR>  (95) 
77.909

>  <fr_Al_COO>  (95) 
0

>  <fr_Al_OH>  (95) 
2

>  <fr_Al_OH_noTert>  (95) 
2

>  <fr_ArN>  (95) 
1

>  <fr_Ar_COO>  (95) 
0

>  <fr_Ar_N>  (95) 
4

>  <fr_Ar_NH>  (95) 
0

>  <fr_Ar_OH>  (95) 
0

>  <fr_COO>  (95) 
0

>  <fr_COO2>  (95) 
0

>  <fr_C_O>  (95) 
0

>  <fr_C_O_noCOO>  (95) 
0

>  <fr_C_S>  (95) 
0

>  <fr_HOCCN>  (95) 
0

>  <fr_Imine>  (95) 
0

>  <fr_NH0>  (95) 
4

>  <fr_NH1>  (95) 
0

>  <fr_NH2>  (95) 
1

>  <fr_N_O>  (95) 
0

>  <fr_Ndealkylation1>  (95) 
0

>  <fr_Ndealkylation2>  (95) 
0

>  <fr_Nhpyrrole>  (95) 
0

>  <fr_SH>  (95) 
0

>  <fr_aldehyde>  (95) 
0

>  <fr_alkyl_carbamate>  (95) 
0

>  <fr_alkyl_halide>  (95) 
0

>  <fr_allylic_oxid>  (95) 
0

>  <fr_amide>  (95) 
0

>  <fr_amidine>  (95) 
0

>  <fr_aniline>  (95) 
1

>  <fr_aryl_methyl>  (95) 
0

>  <fr_azide>  (95) 
0

>  <fr_azo>  (95) 
0

>  <fr_barbitur>  (95) 
0

>  <fr_benzene>  (95) 
0

>  <fr_benzodiazepine>  (95) 
0

>  <fr_bicyclic>  (95) 
1

>  <fr_diazo>  (95) 
0

>  <fr_dihydropyridine>  (95) 
0

>  <fr_epoxide>  (95) 
0

>  <fr_ester>  (95) 
0

>  <fr_ether>  (95) 
1

>  <fr_furan>  (95) 
0

>  <fr_guanido>  (95) 
0

>  <fr_halogen>  (95) 
0

>  <fr_hdrzine>  (95) 
0

>  <fr_hdrzone>  (95) 
0

>  <fr_imidazole>  (95) 
1

>  <fr_imide>  (95) 
0

>  <fr_isocyan>  (95) 
0

>  <fr_isothiocyan>  (95) 
0

>  <fr_ketone>  (95) 
0

>  <fr_ketone_Topliss>  (95) 
0

>  <fr_lactam>  (95) 
0

>  <fr_lactone>  (95) 
0

>  <fr_methoxy>  (95) 
0

>  <fr_morpholine>  (95) 
0

>  <fr_nitrile>  (95) 
0

>  <fr_nitro>  (95) 
0

>  <fr_nitro_arom>  (95) 
0

>  <fr_nitro_arom_nonortho>  (95) 
0

>  <fr_nitroso>  (95) 
0

>  <fr_oxazole>  (95) 
0

>  <fr_oxime>  (95) 
0

>  <fr_para_hydroxylation>  (95) 
0

>  <fr_phenol>  (95) 
0

>  <fr_phenol_noOrthoHbond>  (95) 
0

>  <fr_phos_acid>  (95) 
2

>  <fr_phos_ester>  (95) 
1

>  <fr_piperdine>  (95) 
0

>  <fr_piperzine>  (95) 
0

>  <fr_priamide>  (95) 
0

>  <fr_prisulfonamd>  (95) 
0

>  <fr_pyridine>  (95) 
0

>  <fr_quatN>  (95) 
0

>  <fr_sulfide>  (95) 
0

>  <fr_sulfonamd>  (95) 
0

>  <fr_sulfone>  (95) 
0

>  <fr_term_acetylene>  (95) 
0

>  <fr_tetrazole>  (95) 
0

>  <fr_thiazole>  (95) 
0

>  <fr_thiocyan>  (95) 
0

>  <fr_thiophene>  (95) 
0

>  <fr_unbrch_alkane>  (95) 
0

>  <fr_urea>  (95) 
0

>  <NP-Likeness>  (95) 
0.931308

$$$$
ADP
     RDKit          3D

  0  0  0  0  0  0  0  0  0  0999 V3000
M  V30 BEGIN CTAB
M  V30 COUNTS 39 41 0 0 0
M  V30 BEGIN ATOM
M  V30 1 O -0.948285 -0.438583 4.255156 0
M  V30 2 C -0.411171 -0.255040 2.979968 0 CFG=1
M  V30 3 C 1.092178 -0.234105 3.045441 0 CFG=1
M  V30 4 O 1.474056 -0.912258 4.222552 0
M  V30 5 C 1.506228 -0.966081 1.819101 0 CFG=2
M  V30 6 N 2.233989 -0.193765 0.858355 0
M  V30 7 C 3.405953 -0.569193 0.290616 0
M  V30 8 N 3.775171 0.412104 -0.553372 0
M  V30 9 C 2.841851 1.378111 -0.504725 0
M  V30 10 C 1.841459 1.007625 0.397855 0
M  V30 11 N 0.833709 1.848388 0.572746 0
M  V30 12 C 0.798356 3.009814 -0.105821 0
M  V30 13 N 1.756149 3.378451 -0.978390 0
M  V30 14 C 2.825105 2.577588 -1.218927 0
M  V30 15 N 3.876306 2.894850 -2.123767 0
M  V30 16 O 0.375978 -1.480544 1.215317 0
M  V30 17 C -0.633812 -1.513038 2.138200 0 CFG=2
M  V30 18 C -2.014257 -1.365032 1.534430 0
M  V30 19 O -2.203385 -2.413883 0.644895 0
M  V30 20 P -3.712747 -2.369453 -0.103693 0 CFG=2 VAL=5
M  V30 21 O -4.183525 -0.939805 -0.202494 0
M  V30 22 O -4.824228 -3.304172 0.763507 0 CHG=-1 VAL=1
M  V30 23 O -3.512953 -3.048156 -1.649054 0
M  V30 24 P -2.467036 -4.373660 -1.493633 0
M  V30 25 O -3.034914 -5.398648 -0.528818 0
M  V30 26 O -2.251903 -5.116515 -3.005593 0 CHG=-1 VAL=1
M  V30 27 O -0.976837 -3.814647 -0.958446 0 CHG=-1 VAL=1
M  V30 28 H -1.249546 0.460417 4.565166 0
M  V30 29 H -0.849340 0.579238 2.433626 0
M  V30 30 H 1.506209 0.786595 3.129986 0
M  V30 31 H 2.375076 -0.559672 4.486506 0
M  V30 32 H 2.104238 -1.862424 2.148636 0
M  V30 33 H 3.911678 -1.512796 0.518410 0
M  V30 34 H 0.006807 3.762144 -0.024072 0
M  V30 35 H 4.664131 3.602715 -2.092400 0
M  V30 36 H 4.178059 2.540901 -3.055154 0
M  V30 37 H -0.589421 -2.343916 2.868457 0
M  V30 38 H -2.757307 -1.531700 2.351388 0
M  V30 39 H -2.175056 -0.362661 1.104157 0
M  V30 END ATOM
M  V30 BEGIN BOND
M  V30 1 1 1 2
M  V30 2 1 2 3
M  V30 3 1 3 4
M  V30 4 1 3 5
M  V30 5 1 5 6
M  V30 6 1 6 7
M  V30 7 2 7 8
M  V30 8 1 8 9
M  V30 9 2 9 10
M  V30 10 1 10 11
M  V30 11 2 11 12
M  V30 12 1 12 13
M  V30 13 2 13 14
M  V30 14 1 14 15
M  V30 15 1 5 16
M  V30 16 1 16 17
M  V30 17 1 17 18
M  V30 18 1 18 19
M  V30 19 1 19 20
M  V30 20 2 20 21
M  V30 21 1 20 22 CFG=1
M  V30 22 1 20 23
M  V30 23 1 23 24
M  V30 24 2 24 25
M  V30 25 1 24 26
M  V30 26 1 24 27
M  V30 27 1 17 2
M  V30 28 1 10 6
M  V30 29 1 14 9
M  V30 30 1 1 28
M  V30 31 1 2 29 CFG=3
M  V30 32 1 3 30 CFG=1
M  V30 33 1 4 31
M  V30 34 1 5 32 CFG=1
M  V30 35 1 7 33
M  V30 36 1 12 34
M  V30 37 1 15 35
M  V30 38 1 15 36
M  V30 39 1 17 37 CFG=1
M  V30 40 1 18 38
M  V30 41 1 18 39
M  V30 END BOND
M  V30 END CTAB
M  END
>  <Dataset>  (96) 
PDB

>  <Ligand_Instance>  (96) 
4IB1_ADP_A_403

>  <PDB_ID>  (96) 
4IB1

>  <Standardized_SMILES>  (96) 
[H]O[C@@]1([H])[C@@]([H])(O[H])[C@]([H])(N2C([H])=NC3=C2N=C([H])N=C3N([H])[H])O[C@]1([H])C([H])([H])O[P@](=O)([O-])OP(=O)([O-])[O-]

>  <Name>  (96) 
ADENOSINE-5'-DIPHOSPHATE

>  <Pocket>  (96) 
A

>  <ATP_Site>  (96) 
1.0

>  <Peripheral>  (96) 
0.0

>  <Num_H_Atoms_ProtBoundConf>  (96) 
12.0

>  <Num_Resolved_Atoms>  (96) 
27.0

>  <Num_Not_Resolved_Atoms>  (96) 
0.0

>  <2D_Mol_H>  (96) 
<rdkit.Chem.rdchem.Mol object at 0x72a238dc7b50>

>  <MW>  (96) 
424.179

>  <HBA>  (96) 
15

>  <HBD>  (96) 
3

>  <LogP>  (96) 
-3.642

>  <NRB>  (96) 
9

>  <TPSA>  (96) 
241.09

>  <Num_Heavy_Atoms>  (96) 
27

>  <Ro5>  (96) 
[True, False, True, True, True, False]

>  <Ro5_Fulfilled>  (96) 
False

>  <Ro3>  (96) 
[False, False, True, True]

>  <Ro3_Fulfilled>  (96) 
False

>  <Fsp3>  (96) 
0.5

>  <Fsp3_0.42>  (96) 
True

>  <Fsp3_0.45>  (96) 
True

>  <Stereogenic_Carbons>  (96) 
4

>  <C_Atoms>  (96) 
10

>  <FCStereo>  (96) 
0.4

>  <SPS>  (96) 
769

>  <nSPS>  (96) 
28.481481

>  <PBF>  (96) 
1.2091

>  <PBF_0.6>  (96) 
True

>  <nPBF>  (96) 
0.044781

>  <nPBF_0.016>  (96) 
True

>  <PMI1>  (96) 
2079.437579

>  <PMI2>  (96) 
5362.911313

>  <PMI3>  (96) 
6018.095926

>  <NPR1>  (96) 
0.345531

>  <NPR2>  (96) 
0.891131

>  <Sum_NPR>  (96) 
1.236662

>  <Sum_NPR_1.07>  (96) 
True

>  <Sum_NPR_1.2>  (96) 
True

>  <MaxAbsEStateIndex>  (96) 
11.278955

>  <MaxEStateIndex>  (96) 
11.278955

>  <MinAbsEStateIndex>  (96) 
0.065524

>  <MinEStateIndex>  (96) 
-5.851432

>  <qed>  (96) 
0.378904

>  <MolWt>  (96) 
424.179

>  <HeavyAtomMolWt>  (96) 
412.083

>  <ExactMolWt>  (96) 
424.007586

>  <NumValenceElectrons>  (96) 
150

>  <NumRadicalElectrons>  (96) 
0

>  <MaxPartialCharge>  (96) 
0.271368

>  <MinPartialCharge>  (96) 
-0.789509

>  <MaxAbsPartialCharge>  (96) 
0.789509

>  <MinAbsPartialCharge>  (96) 
0.271368

>  <FpDensityMorgan1>  (96) 
1.222222

>  <FpDensityMorgan2>  (96) 
1.925926

>  <FpDensityMorgan3>  (96) 
2.592593

>  <BCUT2D_MWHI>  (96) 
31.27025

>  <BCUT2D_MWLOW>  (96) 
10.128388

>  <BCUT2D_CHGHI>  (96) 
2.444842

>  <BCUT2D_CHGLO>  (96) 
-2.350424

>  <BCUT2D_LOGPHI>  (96) 
2.503664

>  <BCUT2D_LOGPLOW>  (96) 
-2.337741

>  <BCUT2D_MRHI>  (96) 
7.580921

>  <BCUT2D_MRLOW>  (96) 
-0.339423

>  <AvgIpc>  (96) 
3.072773

>  <BalabanJ>  (96) 
1.748652

>  <BertzCT>  (96) 
932.232873

>  <Chi0>  (96) 
19.982763

>  <Chi0n>  (96) 
13.092254

>  <Chi0v>  (96) 
14.881108

>  <Chi1>  (96) 
12.483782

>  <Chi1n>  (96) 
7.119416

>  <Chi1v>  (96) 
10.040603

>  <Chi2n>  (96) 
5.401088

>  <Chi2v>  (96) 
8.101339

>  <Chi3n>  (96) 
3.595354

>  <Chi3v>  (96) 
5.660653

>  <Chi4n>  (96) 
2.463726

>  <Chi4v>  (96) 
3.961582

>  <HallKierAlpha>  (96) 
-1.51

>  <Ipc>  (96) 
807942.564302

>  <Kappa1>  (96) 
20.230095

>  <Kappa2>  (96) 
7.144568

>  <Kappa3>  (96) 
4.329348

>  <LabuteASA>  (96) 
149.760939

>  <PEOE_VSA1>  (96) 
44.452615

>  <PEOE_VSA10>  (96) 
30.15592

>  <PEOE_VSA11>  (96) 
17.692941

>  <PEOE_VSA12>  (96) 
0.0

>  <PEOE_VSA13>  (96) 
7.822697

>  <PEOE_VSA14>  (96) 
0.0

>  <PEOE_VSA2>  (96) 
13.442779

>  <PEOE_VSA3>  (96) 
14.951936

>  <PEOE_VSA4>  (96) 
0.0

>  <PEOE_VSA5>  (96) 
0.0

>  <PEOE_VSA6>  (96) 
0.0

>  <PEOE_VSA7>  (96) 
0.0

>  <PEOE_VSA8>  (96) 
0.0

>  <PEOE_VSA9>  (96) 
20.756899

>  <SMR_VSA1>  (96) 
47.594628

>  <SMR_VSA10>  (96) 
32.627135

>  <SMR_VSA2>  (96) 
0.0

>  <SMR_VSA3>  (96) 
19.519035

>  <SMR_VSA4>  (96) 
0.0

>  <SMR_VSA5>  (96) 
24.5398

>  <SMR_VSA6>  (96) 
12.340549

>  <SMR_VSA7>  (96) 
12.65464

>  <SMR_VSA8>  (96) 
0.0

>  <SMR_VSA9>  (96) 
0.0

>  <SlogP_VSA1>  (96) 
20.413902

>  <SlogP_VSA10>  (96) 
5.817863

>  <SlogP_VSA11>  (96) 
0.0

>  <SlogP_VSA12>  (96) 
15.645394

>  <SlogP_VSA2>  (96) 
54.650871

>  <SlogP_VSA3>  (96) 
22.701338

>  <SlogP_VSA4>  (96) 
0.0

>  <SlogP_VSA5>  (96) 
6.227901

>  <SlogP_VSA6>  (96) 
12.65464

>  <SlogP_VSA7>  (96) 
0.0

>  <SlogP_VSA8>  (96) 
11.163878

>  <SlogP_VSA9>  (96) 
0.0

>  <EState_VSA1>  (96) 
46.792077

>  <EState_VSA10>  (96) 
34.023386

>  <EState_VSA11>  (96) 
0.0

>  <EState_VSA2>  (96) 
16.981741

>  <EState_VSA3>  (96) 
0.0

>  <EState_VSA4>  (96) 
6.32732

>  <EState_VSA5>  (96) 
10.89442

>  <EState_VSA6>  (96) 
0.0

>  <EState_VSA7>  (96) 
0.0

>  <EState_VSA8>  (96) 
23.786314

>  <EState_VSA9>  (96) 
10.47053

>  <VSA_EState1>  (96) 
35.749107

>  <VSA_EState10>  (96) 
0.0

>  <VSA_EState2>  (96) 
43.665953

>  <VSA_EState3>  (96) 
20.193372

>  <VSA_EState4>  (96) 
6.037581

>  <VSA_EState5>  (96) 
0.065524

>  <VSA_EState6>  (96) 
0.0

>  <VSA_EState7>  (96) 
-3.478964

>  <VSA_EState8>  (96) 
-0.931293

>  <VSA_EState9>  (96) 
-11.356836

>  <FractionCSP3>  (96) 
0.5

>  <HeavyAtomCount>  (96) 
27

>  <NHOHCount>  (96) 
4

>  <NOCount>  (96) 
15

>  <NumAliphaticCarbocycles>  (96) 
0

>  <NumAliphaticHeterocycles>  (96) 
1

>  <NumAliphaticRings>  (96) 
1

>  <NumAromaticCarbocycles>  (96) 
0

>  <NumAromaticHeterocycles>  (96) 
2

>  <NAR>  (96) 
2

>  <NumHAcceptors>  (96) 
15

>  <NumHDonors>  (96) 
3

>  <NumHeteroatoms>  (96) 
17

>  <NumRotatableBonds>  (96) 
6

>  <NumSaturatedCarbocycles>  (96) 
0

>  <NumSaturatedHeterocycles>  (96) 
1

>  <NumSaturatedRings>  (96) 
1

>  <RingCount>  (96) 
3

>  <MolLogP>  (96) 
-3.642

>  <MolMR>  (96) 
77.909

>  <fr_Al_COO>  (96) 
0

>  <fr_Al_OH>  (96) 
2

>  <fr_Al_OH_noTert>  (96) 
2

>  <fr_ArN>  (96) 
1

>  <fr_Ar_COO>  (96) 
0

>  <fr_Ar_N>  (96) 
4

>  <fr_Ar_NH>  (96) 
0

>  <fr_Ar_OH>  (96) 
0

>  <fr_COO>  (96) 
0

>  <fr_COO2>  (96) 
0

>  <fr_C_O>  (96) 
0

>  <fr_C_O_noCOO>  (96) 
0

>  <fr_C_S>  (96) 
0

>  <fr_HOCCN>  (96) 
0

>  <fr_Imine>  (96) 
0

>  <fr_NH0>  (96) 
4

>  <fr_NH1>  (96) 
0

>  <fr_NH2>  (96) 
1

>  <fr_N_O>  (96) 
0

>  <fr_Ndealkylation1>  (96) 
0

>  <fr_Ndealkylation2>  (96) 
0

>  <fr_Nhpyrrole>  (96) 
0

>  <fr_SH>  (96) 
0

>  <fr_aldehyde>  (96) 
0

>  <fr_alkyl_carbamate>  (96) 
0

>  <fr_alkyl_halide>  (96) 
0

>  <fr_allylic_oxid>  (96) 
0

>  <fr_amide>  (96) 
0

>  <fr_amidine>  (96) 
0

>  <fr_aniline>  (96) 
1

>  <fr_aryl_methyl>  (96) 
0

>  <fr_azide>  (96) 
0

>  <fr_azo>  (96) 
0

>  <fr_barbitur>  (96) 
0

>  <fr_benzene>  (96) 
0

>  <fr_benzodiazepine>  (96) 
0

>  <fr_bicyclic>  (96) 
1

>  <fr_diazo>  (96) 
0

>  <fr_dihydropyridine>  (96) 
0

>  <fr_epoxide>  (96) 
0

>  <fr_ester>  (96) 
0

>  <fr_ether>  (96) 
1

>  <fr_furan>  (96) 
0

>  <fr_guanido>  (96) 
0

>  <fr_halogen>  (96) 
0

>  <fr_hdrzine>  (96) 
0

>  <fr_hdrzone>  (96) 
0

>  <fr_imidazole>  (96) 
1

>  <fr_imide>  (96) 
0

>  <fr_isocyan>  (96) 
0

>  <fr_isothiocyan>  (96) 
0

>  <fr_ketone>  (96) 
0

>  <fr_ketone_Topliss>  (96) 
0

>  <fr_lactam>  (96) 
0

>  <fr_lactone>  (96) 
0

>  <fr_methoxy>  (96) 
0

>  <fr_morpholine>  (96) 
0

>  <fr_nitrile>  (96) 
0

>  <fr_nitro>  (96) 
0

>  <fr_nitro_arom>  (96) 
0

>  <fr_nitro_arom_nonortho>  (96) 
0

>  <fr_nitroso>  (96) 
0

>  <fr_oxazole>  (96) 
0

>  <fr_oxime>  (96) 
0

>  <fr_para_hydroxylation>  (96) 
0

>  <fr_phenol>  (96) 
0

>  <fr_phenol_noOrthoHbond>  (96) 
0

>  <fr_phos_acid>  (96) 
2

>  <fr_phos_ester>  (96) 
1

>  <fr_piperdine>  (96) 
0

>  <fr_piperzine>  (96) 
0

>  <fr_priamide>  (96) 
0

>  <fr_prisulfonamd>  (96) 
0

>  <fr_pyridine>  (96) 
0

>  <fr_quatN>  (96) 
0

>  <fr_sulfide>  (96) 
0

>  <fr_sulfonamd>  (96) 
0

>  <fr_sulfone>  (96) 
0

>  <fr_term_acetylene>  (96) 
0

>  <fr_tetrazole>  (96) 
0

>  <fr_thiazole>  (96) 
0

>  <fr_thiocyan>  (96) 
0

>  <fr_thiophene>  (96) 
0

>  <fr_unbrch_alkane>  (96) 
0

>  <fr_urea>  (96) 
0

>  <NP-Likeness>  (96) 
0.931308

$$$$
ADP
     RDKit          3D

  0  0  0  0  0  0  0  0  0  0999 V3000
M  V30 BEGIN CTAB
M  V30 COUNTS 39 41 0 0 0
M  V30 BEGIN ATOM
M  V30 1 O -0.948285 -0.438583 4.255156 0
M  V30 2 C -0.411171 -0.255040 2.979968 0 CFG=1
M  V30 3 C 1.092178 -0.234105 3.045441 0 CFG=1
M  V30 4 O 1.474056 -0.912258 4.222552 0
M  V30 5 C 1.506228 -0.966081 1.819101 0 CFG=2
M  V30 6 N 2.233989 -0.193765 0.858355 0
M  V30 7 C 3.405953 -0.569193 0.290616 0
M  V30 8 N 3.775171 0.412104 -0.553372 0
M  V30 9 C 2.841851 1.378111 -0.504725 0
M  V30 10 C 1.841459 1.007625 0.397855 0
M  V30 11 N 0.833709 1.848388 0.572746 0
M  V30 12 C 0.798356 3.009814 -0.105821 0
M  V30 13 N 1.756149 3.378451 -0.978390 0
M  V30 14 C 2.825105 2.577588 -1.218927 0
M  V30 15 N 3.876306 2.894850 -2.123767 0
M  V30 16 O 0.375978 -1.480544 1.215317 0
M  V30 17 C -0.633812 -1.513038 2.138200 0 CFG=2
M  V30 18 C -2.014257 -1.365032 1.534430 0
M  V30 19 O -2.203385 -2.413883 0.644895 0
M  V30 20 P -3.712747 -2.369453 -0.103693 0 CFG=2 VAL=5
M  V30 21 O -4.183525 -0.939805 -0.202494 0
M  V30 22 O -4.824228 -3.304172 0.763507 0 CHG=-1 VAL=1
M  V30 23 O -3.512953 -3.048156 -1.649054 0
M  V30 24 P -2.467036 -4.373660 -1.493633 0
M  V30 25 O -3.034914 -5.398648 -0.528818 0
M  V30 26 O -2.251903 -5.116515 -3.005593 0 CHG=-1 VAL=1
M  V30 27 O -0.976837 -3.814647 -0.958446 0 CHG=-1 VAL=1
M  V30 28 H -1.249546 0.460417 4.565166 0
M  V30 29 H -0.849340 0.579238 2.433626 0
M  V30 30 H 1.506209 0.786595 3.129986 0
M  V30 31 H 2.375076 -0.559672 4.486506 0
M  V30 32 H 2.104238 -1.862424 2.148636 0
M  V30 33 H 3.911678 -1.512796 0.518410 0
M  V30 34 H 0.006807 3.762144 -0.024072 0
M  V30 35 H 4.664131 3.602715 -2.092400 0
M  V30 36 H 4.178059 2.540901 -3.055154 0
M  V30 37 H -0.589421 -2.343916 2.868457 0
M  V30 38 H -2.757307 -1.531700 2.351388 0
M  V30 39 H -2.175056 -0.362661 1.104157 0
M  V30 END ATOM
M  V30 BEGIN BOND
M  V30 1 1 1 2
M  V30 2 1 2 3
M  V30 3 1 3 4
M  V30 4 1 3 5
M  V30 5 1 5 6
M  V30 6 1 6 7
M  V30 7 2 7 8
M  V30 8 1 8 9
M  V30 9 2 9 10
M  V30 10 1 10 11
M  V30 11 2 11 12
M  V30 12 1 12 13
M  V30 13 2 13 14
M  V30 14 1 14 15
M  V30 15 1 5 16
M  V30 16 1 16 17
M  V30 17 1 17 18
M  V30 18 1 18 19
M  V30 19 1 19 20
M  V30 20 2 20 21
M  V30 21 1 20 22 CFG=1
M  V30 22 1 20 23
M  V30 23 1 23 24
M  V30 24 2 24 25
M  V30 25 1 24 26
M  V30 26 1 24 27
M  V30 27 1 17 2
M  V30 28 1 10 6
M  V30 29 1 14 9
M  V30 30 1 1 28
M  V30 31 1 2 29 CFG=3
M  V30 32 1 3 30 CFG=1
M  V30 33 1 4 31
M  V30 34 1 5 32 CFG=1
M  V30 35 1 7 33
M  V30 36 1 12 34
M  V30 37 1 15 35
M  V30 38 1 15 36
M  V30 39 1 17 37 CFG=1
M  V30 40 1 18 38
M  V30 41 1 18 39
M  V30 END BOND
M  V30 END CTAB
M  END
>  <Dataset>  (97) 
PDB

>  <Ligand_Instance>  (97) 
4IB3_ADP_A_401

>  <PDB_ID>  (97) 
4IB3

>  <Standardized_SMILES>  (97) 
[H]O[C@@]1([H])[C@@]([H])(O[H])[C@]([H])(N2C([H])=NC3=C2N=C([H])N=C3N([H])[H])O[C@]1([H])C([H])([H])O[P@](=O)([O-])OP(=O)([O-])[O-]

>  <Name>  (97) 
ADENOSINE-5'-DIPHOSPHATE

>  <Pocket>  (97) 
A

>  <ATP_Site>  (97) 
1.0

>  <Peripheral>  (97) 
0.0

>  <Num_H_Atoms_ProtBoundConf>  (97) 
12.0

>  <Num_Resolved_Atoms>  (97) 
27.0

>  <Num_Not_Resolved_Atoms>  (97) 
0.0

>  <2D_Mol_H>  (97) 
<rdkit.Chem.rdchem.Mol object at 0x72a238dc7c30>

>  <MW>  (97) 
424.179

>  <HBA>  (97) 
15

>  <HBD>  (97) 
3

>  <LogP>  (97) 
-3.642

>  <NRB>  (97) 
9

>  <TPSA>  (97) 
241.09

>  <Num_Heavy_Atoms>  (97) 
27

>  <Ro5>  (97) 
[True, False, True, True, True, False]

>  <Ro5_Fulfilled>  (97) 
False

>  <Ro3>  (97) 
[False, False, True, True]

>  <Ro3_Fulfilled>  (97) 
False

>  <Fsp3>  (97) 
0.5

>  <Fsp3_0.42>  (97) 
True

>  <Fsp3_0.45>  (97) 
True

>  <Stereogenic_Carbons>  (97) 
4

>  <C_Atoms>  (97) 
10

>  <FCStereo>  (97) 
0.4

>  <SPS>  (97) 
769

>  <nSPS>  (97) 
28.481481

>  <PBF>  (97) 
1.2091

>  <PBF_0.6>  (97) 
True

>  <nPBF>  (97) 
0.044781

>  <nPBF_0.016>  (97) 
True

>  <PMI1>  (97) 
2079.437579

>  <PMI2>  (97) 
5362.911313

>  <PMI3>  (97) 
6018.095926

>  <NPR1>  (97) 
0.345531

>  <NPR2>  (97) 
0.891131

>  <Sum_NPR>  (97) 
1.236662

>  <Sum_NPR_1.07>  (97) 
True

>  <Sum_NPR_1.2>  (97) 
True

>  <MaxAbsEStateIndex>  (97) 
11.278955

>  <MaxEStateIndex>  (97) 
11.278955

>  <MinAbsEStateIndex>  (97) 
0.065524

>  <MinEStateIndex>  (97) 
-5.851432

>  <qed>  (97) 
0.378904

>  <MolWt>  (97) 
424.179

>  <HeavyAtomMolWt>  (97) 
412.083

>  <ExactMolWt>  (97) 
424.007586

>  <NumValenceElectrons>  (97) 
150

>  <NumRadicalElectrons>  (97) 
0

>  <MaxPartialCharge>  (97) 
0.271368

>  <MinPartialCharge>  (97) 
-0.789509

>  <MaxAbsPartialCharge>  (97) 
0.789509

>  <MinAbsPartialCharge>  (97) 
0.271368

>  <FpDensityMorgan1>  (97) 
1.222222

>  <FpDensityMorgan2>  (97) 
1.925926

>  <FpDensityMorgan3>  (97) 
2.592593

>  <BCUT2D_MWHI>  (97) 
31.27025

>  <BCUT2D_MWLOW>  (97) 
10.128388

>  <BCUT2D_CHGHI>  (97) 
2.444842

>  <BCUT2D_CHGLO>  (97) 
-2.350424

>  <BCUT2D_LOGPHI>  (97) 
2.503664

>  <BCUT2D_LOGPLOW>  (97) 
-2.337741

>  <BCUT2D_MRHI>  (97) 
7.580921

>  <BCUT2D_MRLOW>  (97) 
-0.339423

>  <AvgIpc>  (97) 
3.072773

>  <BalabanJ>  (97) 
1.748652

>  <BertzCT>  (97) 
932.232873

>  <Chi0>  (97) 
19.982763

>  <Chi0n>  (97) 
13.092254

>  <Chi0v>  (97) 
14.881108

>  <Chi1>  (97) 
12.483782

>  <Chi1n>  (97) 
7.119416

>  <Chi1v>  (97) 
10.040603

>  <Chi2n>  (97) 
5.401088

>  <Chi2v>  (97) 
8.101339

>  <Chi3n>  (97) 
3.595354

>  <Chi3v>  (97) 
5.660653

>  <Chi4n>  (97) 
2.463726

>  <Chi4v>  (97) 
3.961582

>  <HallKierAlpha>  (97) 
-1.51

>  <Ipc>  (97) 
807942.564302

>  <Kappa1>  (97) 
20.230095

>  <Kappa2>  (97) 
7.144568

>  <Kappa3>  (97) 
4.329348

>  <LabuteASA>  (97) 
149.760939

>  <PEOE_VSA1>  (97) 
44.452615

>  <PEOE_VSA10>  (97) 
30.15592

>  <PEOE_VSA11>  (97) 
17.692941

>  <PEOE_VSA12>  (97) 
0.0

>  <PEOE_VSA13>  (97) 
7.822697

>  <PEOE_VSA14>  (97) 
0.0

>  <PEOE_VSA2>  (97) 
13.442779

>  <PEOE_VSA3>  (97) 
14.951936

>  <PEOE_VSA4>  (97) 
0.0

>  <PEOE_VSA5>  (97) 
0.0

>  <PEOE_VSA6>  (97) 
0.0

>  <PEOE_VSA7>  (97) 
0.0

>  <PEOE_VSA8>  (97) 
0.0

>  <PEOE_VSA9>  (97) 
20.756899

>  <SMR_VSA1>  (97) 
47.594628

>  <SMR_VSA10>  (97) 
32.627135

>  <SMR_VSA2>  (97) 
0.0

>  <SMR_VSA3>  (97) 
19.519035

>  <SMR_VSA4>  (97) 
0.0

>  <SMR_VSA5>  (97) 
24.5398

>  <SMR_VSA6>  (97) 
12.340549

>  <SMR_VSA7>  (97) 
12.65464

>  <SMR_VSA8>  (97) 
0.0

>  <SMR_VSA9>  (97) 
0.0

>  <SlogP_VSA1>  (97) 
20.413902

>  <SlogP_VSA10>  (97) 
5.817863

>  <SlogP_VSA11>  (97) 
0.0

>  <SlogP_VSA12>  (97) 
15.645394

>  <SlogP_VSA2>  (97) 
54.650871

>  <SlogP_VSA3>  (97) 
22.701338

>  <SlogP_VSA4>  (97) 
0.0

>  <SlogP_VSA5>  (97) 
6.227901

>  <SlogP_VSA6>  (97) 
12.65464

>  <SlogP_VSA7>  (97) 
0.0

>  <SlogP_VSA8>  (97) 
11.163878

>  <SlogP_VSA9>  (97) 
0.0

>  <EState_VSA1>  (97) 
46.792077

>  <EState_VSA10>  (97) 
34.023386

>  <EState_VSA11>  (97) 
0.0

>  <EState_VSA2>  (97) 
16.981741

>  <EState_VSA3>  (97) 
0.0

>  <EState_VSA4>  (97) 
6.32732

>  <EState_VSA5>  (97) 
10.89442

>  <EState_VSA6>  (97) 
0.0

>  <EState_VSA7>  (97) 
0.0

>  <EState_VSA8>  (97) 
23.786314

>  <EState_VSA9>  (97) 
10.47053

>  <VSA_EState1>  (97) 
35.749107

>  <VSA_EState10>  (97) 
0.0

>  <VSA_EState2>  (97) 
43.665953

>  <VSA_EState3>  (97) 
20.193372

>  <VSA_EState4>  (97) 
6.037581

>  <VSA_EState5>  (97) 
0.065524

>  <VSA_EState6>  (97) 
0.0

>  <VSA_EState7>  (97) 
-3.478964

>  <VSA_EState8>  (97) 
-0.931293

>  <VSA_EState9>  (97) 
-11.356836

>  <FractionCSP3>  (97) 
0.5

>  <HeavyAtomCount>  (97) 
27

>  <NHOHCount>  (97) 
4

>  <NOCount>  (97) 
15

>  <NumAliphaticCarbocycles>  (97) 
0

>  <NumAliphaticHeterocycles>  (97) 
1

>  <NumAliphaticRings>  (97) 
1

>  <NumAromaticCarbocycles>  (97) 
0

>  <NumAromaticHeterocycles>  (97) 
2

>  <NAR>  (97) 
2

>  <NumHAcceptors>  (97) 
15

>  <NumHDonors>  (97) 
3

>  <NumHeteroatoms>  (97) 
17

>  <NumRotatableBonds>  (97) 
6

>  <NumSaturatedCarbocycles>  (97) 
0

>  <NumSaturatedHeterocycles>  (97) 
1

>  <NumSaturatedRings>  (97) 
1

>  <RingCount>  (97) 
3

>  <MolLogP>  (97) 
-3.642

>  <MolMR>  (97) 
77.909

>  <fr_Al_COO>  (97) 
0

>  <fr_Al_OH>  (97) 
2

>  <fr_Al_OH_noTert>  (97) 
2

>  <fr_ArN>  (97) 
1

>  <fr_Ar_COO>  (97) 
0

>  <fr_Ar_N>  (97) 
4

>  <fr_Ar_NH>  (97) 
0

>  <fr_Ar_OH>  (97) 
0

>  <fr_COO>  (97) 
0

>  <fr_COO2>  (97) 
0

>  <fr_C_O>  (97) 
0

>  <fr_C_O_noCOO>  (97) 
0

>  <fr_C_S>  (97) 
0

>  <fr_HOCCN>  (97) 
0

>  <fr_Imine>  (97) 
0

>  <fr_NH0>  (97) 
4

>  <fr_NH1>  (97) 
0

>  <fr_NH2>  (97) 
1

>  <fr_N_O>  (97) 
0

>  <fr_Ndealkylation1>  (97) 
0

>  <fr_Ndealkylation2>  (97) 
0

>  <fr_Nhpyrrole>  (97) 
0

>  <fr_SH>  (97) 
0

>  <fr_aldehyde>  (97) 
0

>  <fr_alkyl_carbamate>  (97) 
0

>  <fr_alkyl_halide>  (97) 
0

>  <fr_allylic_oxid>  (97) 
0

>  <fr_amide>  (97) 
0

>  <fr_amidine>  (97) 
0

>  <fr_aniline>  (97) 
1

>  <fr_aryl_methyl>  (97) 
0

>  <fr_azide>  (97) 
0

>  <fr_azo>  (97) 
0

>  <fr_barbitur>  (97) 
0

>  <fr_benzene>  (97) 
0

>  <fr_benzodiazepine>  (97) 
0

>  <fr_bicyclic>  (97) 
1

>  <fr_diazo>  (97) 
0

>  <fr_dihydropyridine>  (97) 
0

>  <fr_epoxide>  (97) 
0

>  <fr_ester>  (97) 
0

>  <fr_ether>  (97) 
1

>  <fr_furan>  (97) 
0

>  <fr_guanido>  (97) 
0

>  <fr_halogen>  (97) 
0

>  <fr_hdrzine>  (97) 
0

>  <fr_hdrzone>  (97) 
0

>  <fr_imidazole>  (97) 
1

>  <fr_imide>  (97) 
0

>  <fr_isocyan>  (97) 
0

>  <fr_isothiocyan>  (97) 
0

>  <fr_ketone>  (97) 
0

>  <fr_ketone_Topliss>  (97) 
0

>  <fr_lactam>  (97) 
0

>  <fr_lactone>  (97) 
0

>  <fr_methoxy>  (97) 
0

>  <fr_morpholine>  (97) 
0

>  <fr_nitrile>  (97) 
0

>  <fr_nitro>  (97) 
0

>  <fr_nitro_arom>  (97) 
0

>  <fr_nitro_arom_nonortho>  (97) 
0

>  <fr_nitroso>  (97) 
0

>  <fr_oxazole>  (97) 
0

>  <fr_oxime>  (97) 
0

>  <fr_para_hydroxylation>  (97) 
0

>  <fr_phenol>  (97) 
0

>  <fr_phenol_noOrthoHbond>  (97) 
0

>  <fr_phos_acid>  (97) 
2

>  <fr_phos_ester>  (97) 
1

>  <fr_piperdine>  (97) 
0

>  <fr_piperzine>  (97) 
0

>  <fr_priamide>  (97) 
0

>  <fr_prisulfonamd>  (97) 
0

>  <fr_pyridine>  (97) 
0

>  <fr_quatN>  (97) 
0

>  <fr_sulfide>  (97) 
0

>  <fr_sulfonamd>  (97) 
0

>  <fr_sulfone>  (97) 
0

>  <fr_term_acetylene>  (97) 
0

>  <fr_tetrazole>  (97) 
0

>  <fr_thiazole>  (97) 
0

>  <fr_thiocyan>  (97) 
0

>  <fr_thiophene>  (97) 
0

>  <fr_unbrch_alkane>  (97) 
0

>  <fr_urea>  (97) 
0

>  <NP-Likeness>  (97) 
0.931308

$$$$
ADP
     RDKit          3D

  0  0  0  0  0  0  0  0  0  0999 V3000
M  V30 BEGIN CTAB
M  V30 COUNTS 39 41 0 0 0
M  V30 BEGIN ATOM
M  V30 1 O -0.948285 -0.438583 4.255156 0
M  V30 2 C -0.411171 -0.255040 2.979968 0 CFG=1
M  V30 3 C 1.092178 -0.234105 3.045441 0 CFG=1
M  V30 4 O 1.474056 -0.912258 4.222552 0
M  V30 5 C 1.506228 -0.966081 1.819101 0 CFG=2
M  V30 6 N 2.233989 -0.193765 0.858355 0
M  V30 7 C 3.405953 -0.569193 0.290616 0
M  V30 8 N 3.775171 0.412104 -0.553372 0
M  V30 9 C 2.841851 1.378111 -0.504725 0
M  V30 10 C 1.841459 1.007625 0.397855 0
M  V30 11 N 0.833709 1.848388 0.572746 0
M  V30 12 C 0.798356 3.009814 -0.105821 0
M  V30 13 N 1.756149 3.378451 -0.978390 0
M  V30 14 C 2.825105 2.577588 -1.218927 0
M  V30 15 N 3.876306 2.894850 -2.123767 0
M  V30 16 O 0.375978 -1.480544 1.215317 0
M  V30 17 C -0.633812 -1.513038 2.138200 0 CFG=2
M  V30 18 C -2.014257 -1.365032 1.534430 0
M  V30 19 O -2.203385 -2.413883 0.644895 0
M  V30 20 P -3.712747 -2.369453 -0.103693 0 CFG=2 VAL=5
M  V30 21 O -4.183525 -0.939805 -0.202494 0
M  V30 22 O -4.824228 -3.304172 0.763507 0 CHG=-1 VAL=1
M  V30 23 O -3.512953 -3.048156 -1.649054 0
M  V30 24 P -2.467036 -4.373660 -1.493633 0
M  V30 25 O -3.034914 -5.398648 -0.528818 0
M  V30 26 O -2.251903 -5.116515 -3.005593 0 CHG=-1 VAL=1
M  V30 27 O -0.976837 -3.814647 -0.958446 0 CHG=-1 VAL=1
M  V30 28 H -1.249546 0.460417 4.565166 0
M  V30 29 H -0.849340 0.579238 2.433626 0
M  V30 30 H 1.506209 0.786595 3.129986 0
M  V30 31 H 2.375076 -0.559672 4.486506 0
M  V30 32 H 2.104238 -1.862424 2.148636 0
M  V30 33 H 3.911678 -1.512796 0.518410 0
M  V30 34 H 0.006807 3.762144 -0.024072 0
M  V30 35 H 4.664131 3.602715 -2.092400 0
M  V30 36 H 4.178059 2.540901 -3.055154 0
M  V30 37 H -0.589421 -2.343916 2.868457 0
M  V30 38 H -2.757307 -1.531700 2.351388 0
M  V30 39 H -2.175056 -0.362661 1.104157 0
M  V30 END ATOM
M  V30 BEGIN BOND
M  V30 1 1 1 2
M  V30 2 1 2 3
M  V30 3 1 3 4
M  V30 4 1 3 5
M  V30 5 1 5 6
M  V30 6 1 6 7
M  V30 7 2 7 8
M  V30 8 1 8 9
M  V30 9 2 9 10
M  V30 10 1 10 11
M  V30 11 2 11 12
M  V30 12 1 12 13
M  V30 13 2 13 14
M  V30 14 1 14 15
M  V30 15 1 5 16
M  V30 16 1 16 17
M  V30 17 1 17 18
M  V30 18 1 18 19
M  V30 19 1 19 20
M  V30 20 2 20 21
M  V30 21 1 20 22 CFG=1
M  V30 22 1 20 23
M  V30 23 1 23 24
M  V30 24 2 24 25
M  V30 25 1 24 26
M  V30 26 1 24 27
M  V30 27 1 17 2
M  V30 28 1 10 6
M  V30 29 1 14 9
M  V30 30 1 1 28
M  V30 31 1 2 29 CFG=3
M  V30 32 1 3 30 CFG=1
M  V30 33 1 4 31
M  V30 34 1 5 32 CFG=1
M  V30 35 1 7 33
M  V30 36 1 12 34
M  V30 37 1 15 35
M  V30 38 1 15 36
M  V30 39 1 17 37 CFG=1
M  V30 40 1 18 38
M  V30 41 1 18 39
M  V30 END BOND
M  V30 END CTAB
M  END
>  <Dataset>  (98) 
PDB

>  <Ligand_Instance>  (98) 
4NTT_ADP_A_401

>  <PDB_ID>  (98) 
4NTT

>  <Standardized_SMILES>  (98) 
[H]O[C@@]1([H])[C@@]([H])(O[H])[C@]([H])(N2C([H])=NC3=C2N=C([H])N=C3N([H])[H])O[C@]1([H])C([H])([H])O[P@](=O)([O-])OP(=O)([O-])[O-]

>  <Name>  (98) 
ADENOSINE-5'-DIPHOSPHATE

>  <Pocket>  (98) 
A

>  <ATP_Site>  (98) 
1.0

>  <Peripheral>  (98) 
0.0

>  <Num_H_Atoms_ProtBoundConf>  (98) 
12.0

>  <Num_Resolved_Atoms>  (98) 
27.0

>  <Num_Not_Resolved_Atoms>  (98) 
0.0

>  <2D_Mol_H>  (98) 
<rdkit.Chem.rdchem.Mol object at 0x72a238dc7d10>

>  <MW>  (98) 
424.179

>  <HBA>  (98) 
15

>  <HBD>  (98) 
3

>  <LogP>  (98) 
-3.642

>  <NRB>  (98) 
9

>  <TPSA>  (98) 
241.09

>  <Num_Heavy_Atoms>  (98) 
27

>  <Ro5>  (98) 
[True, False, True, True, True, False]

>  <Ro5_Fulfilled>  (98) 
False

>  <Ro3>  (98) 
[False, False, True, True]

>  <Ro3_Fulfilled>  (98) 
False

>  <Fsp3>  (98) 
0.5

>  <Fsp3_0.42>  (98) 
True

>  <Fsp3_0.45>  (98) 
True

>  <Stereogenic_Carbons>  (98) 
4

>  <C_Atoms>  (98) 
10

>  <FCStereo>  (98) 
0.4

>  <SPS>  (98) 
769

>  <nSPS>  (98) 
28.481481

>  <PBF>  (98) 
1.2091

>  <PBF_0.6>  (98) 
True

>  <nPBF>  (98) 
0.044781

>  <nPBF_0.016>  (98) 
True

>  <PMI1>  (98) 
2079.437579

>  <PMI2>  (98) 
5362.911313

>  <PMI3>  (98) 
6018.095926

>  <NPR1>  (98) 
0.345531

>  <NPR2>  (98) 
0.891131

>  <Sum_NPR>  (98) 
1.236662

>  <Sum_NPR_1.07>  (98) 
True

>  <Sum_NPR_1.2>  (98) 
True

>  <MaxAbsEStateIndex>  (98) 
11.278955

>  <MaxEStateIndex>  (98) 
11.278955

>  <MinAbsEStateIndex>  (98) 
0.065524

>  <MinEStateIndex>  (98) 
-5.851432

>  <qed>  (98) 
0.378904

>  <MolWt>  (98) 
424.179

>  <HeavyAtomMolWt>  (98) 
412.083

>  <ExactMolWt>  (98) 
424.007586

>  <NumValenceElectrons>  (98) 
150

>  <NumRadicalElectrons>  (98) 
0

>  <MaxPartialCharge>  (98) 
0.271368

>  <MinPartialCharge>  (98) 
-0.789509

>  <MaxAbsPartialCharge>  (98) 
0.789509

>  <MinAbsPartialCharge>  (98) 
0.271368

>  <FpDensityMorgan1>  (98) 
1.222222

>  <FpDensityMorgan2>  (98) 
1.925926

>  <FpDensityMorgan3>  (98) 
2.592593

>  <BCUT2D_MWHI>  (98) 
31.27025

>  <BCUT2D_MWLOW>  (98) 
10.128388

>  <BCUT2D_CHGHI>  (98) 
2.444842

>  <BCUT2D_CHGLO>  (98) 
-2.350424

>  <BCUT2D_LOGPHI>  (98) 
2.503664

>  <BCUT2D_LOGPLOW>  (98) 
-2.337741

>  <BCUT2D_MRHI>  (98) 
7.580921

>  <BCUT2D_MRLOW>  (98) 
-0.339423

>  <AvgIpc>  (98) 
3.072773

>  <BalabanJ>  (98) 
1.748652

>  <BertzCT>  (98) 
932.232873

>  <Chi0>  (98) 
19.982763

>  <Chi0n>  (98) 
13.092254

>  <Chi0v>  (98) 
14.881108

>  <Chi1>  (98) 
12.483782

>  <Chi1n>  (98) 
7.119416

>  <Chi1v>  (98) 
10.040603

>  <Chi2n>  (98) 
5.401088

>  <Chi2v>  (98) 
8.101339

>  <Chi3n>  (98) 
3.595354

>  <Chi3v>  (98) 
5.660653

>  <Chi4n>  (98) 
2.463726

>  <Chi4v>  (98) 
3.961582

>  <HallKierAlpha>  (98) 
-1.51

>  <Ipc>  (98) 
807942.564302

>  <Kappa1>  (98) 
20.230095

>  <Kappa2>  (98) 
7.144568

>  <Kappa3>  (98) 
4.329348

>  <LabuteASA>  (98) 
149.760939

>  <PEOE_VSA1>  (98) 
44.452615

>  <PEOE_VSA10>  (98) 
30.15592

>  <PEOE_VSA11>  (98) 
17.692941

>  <PEOE_VSA12>  (98) 
0.0

>  <PEOE_VSA13>  (98) 
7.822697

>  <PEOE_VSA14>  (98) 
0.0

>  <PEOE_VSA2>  (98) 
13.442779

>  <PEOE_VSA3>  (98) 
14.951936

>  <PEOE_VSA4>  (98) 
0.0

>  <PEOE_VSA5>  (98) 
0.0

>  <PEOE_VSA6>  (98) 
0.0

>  <PEOE_VSA7>  (98) 
0.0

>  <PEOE_VSA8>  (98) 
0.0

>  <PEOE_VSA9>  (98) 
20.756899

>  <SMR_VSA1>  (98) 
47.594628

>  <SMR_VSA10>  (98) 
32.627135

>  <SMR_VSA2>  (98) 
0.0

>  <SMR_VSA3>  (98) 
19.519035

>  <SMR_VSA4>  (98) 
0.0

>  <SMR_VSA5>  (98) 
24.5398

>  <SMR_VSA6>  (98) 
12.340549

>  <SMR_VSA7>  (98) 
12.65464

>  <SMR_VSA8>  (98) 
0.0

>  <SMR_VSA9>  (98) 
0.0

>  <SlogP_VSA1>  (98) 
20.413902

>  <SlogP_VSA10>  (98) 
5.817863

>  <SlogP_VSA11>  (98) 
0.0

>  <SlogP_VSA12>  (98) 
15.645394

>  <SlogP_VSA2>  (98) 
54.650871

>  <SlogP_VSA3>  (98) 
22.701338

>  <SlogP_VSA4>  (98) 
0.0

>  <SlogP_VSA5>  (98) 
6.227901

>  <SlogP_VSA6>  (98) 
12.65464

>  <SlogP_VSA7>  (98) 
0.0

>  <SlogP_VSA8>  (98) 
11.163878

>  <SlogP_VSA9>  (98) 
0.0

>  <EState_VSA1>  (98) 
46.792077

>  <EState_VSA10>  (98) 
34.023386

>  <EState_VSA11>  (98) 
0.0

>  <EState_VSA2>  (98) 
16.981741

>  <EState_VSA3>  (98) 
0.0

>  <EState_VSA4>  (98) 
6.32732

>  <EState_VSA5>  (98) 
10.89442

>  <EState_VSA6>  (98) 
0.0

>  <EState_VSA7>  (98) 
0.0

>  <EState_VSA8>  (98) 
23.786314

>  <EState_VSA9>  (98) 
10.47053

>  <VSA_EState1>  (98) 
35.749107

>  <VSA_EState10>  (98) 
0.0

>  <VSA_EState2>  (98) 
43.665953

>  <VSA_EState3>  (98) 
20.193372

>  <VSA_EState4>  (98) 
6.037581

>  <VSA_EState5>  (98) 
0.065524

>  <VSA_EState6>  (98) 
0.0

>  <VSA_EState7>  (98) 
-3.478964

>  <VSA_EState8>  (98) 
-0.931293

>  <VSA_EState9>  (98) 
-11.356836

>  <FractionCSP3>  (98) 
0.5

>  <HeavyAtomCount>  (98) 
27

>  <NHOHCount>  (98) 
4

>  <NOCount>  (98) 
15

>  <NumAliphaticCarbocycles>  (98) 
0

>  <NumAliphaticHeterocycles>  (98) 
1

>  <NumAliphaticRings>  (98) 
1

>  <NumAromaticCarbocycles>  (98) 
0

>  <NumAromaticHeterocycles>  (98) 
2

>  <NAR>  (98) 
2

>  <NumHAcceptors>  (98) 
15

>  <NumHDonors>  (98) 
3

>  <NumHeteroatoms>  (98) 
17

>  <NumRotatableBonds>  (98) 
6

>  <NumSaturatedCarbocycles>  (98) 
0

>  <NumSaturatedHeterocycles>  (98) 
1

>  <NumSaturatedRings>  (98) 
1

>  <RingCount>  (98) 
3

>  <MolLogP>  (98) 
-3.642

>  <MolMR>  (98) 
77.909

>  <fr_Al_COO>  (98) 
0

>  <fr_Al_OH>  (98) 
2

>  <fr_Al_OH_noTert>  (98) 
2

>  <fr_ArN>  (98) 
1

>  <fr_Ar_COO>  (98) 
0

>  <fr_Ar_N>  (98) 
4

>  <fr_Ar_NH>  (98) 
0

>  <fr_Ar_OH>  (98) 
0

>  <fr_COO>  (98) 
0

>  <fr_COO2>  (98) 
0

>  <fr_C_O>  (98) 
0

>  <fr_C_O_noCOO>  (98) 
0

>  <fr_C_S>  (98) 
0

>  <fr_HOCCN>  (98) 
0

>  <fr_Imine>  (98) 
0

>  <fr_NH0>  (98) 
4

>  <fr_NH1>  (98) 
0

>  <fr_NH2>  (98) 
1

>  <fr_N_O>  (98) 
0

>  <fr_Ndealkylation1>  (98) 
0

>  <fr_Ndealkylation2>  (98) 
0

>  <fr_Nhpyrrole>  (98) 
0

>  <fr_SH>  (98) 
0

>  <fr_aldehyde>  (98) 
0

>  <fr_alkyl_carbamate>  (98) 
0

>  <fr_alkyl_halide>  (98) 
0

>  <fr_allylic_oxid>  (98) 
0

>  <fr_amide>  (98) 
0

>  <fr_amidine>  (98) 
0

>  <fr_aniline>  (98) 
1

>  <fr_aryl_methyl>  (98) 
0

>  <fr_azide>  (98) 
0

>  <fr_azo>  (98) 
0

>  <fr_barbitur>  (98) 
0

>  <fr_benzene>  (98) 
0

>  <fr_benzodiazepine>  (98) 
0

>  <fr_bicyclic>  (98) 
1

>  <fr_diazo>  (98) 
0

>  <fr_dihydropyridine>  (98) 
0

>  <fr_epoxide>  (98) 
0

>  <fr_ester>  (98) 
0

>  <fr_ether>  (98) 
1

>  <fr_furan>  (98) 
0

>  <fr_guanido>  (98) 
0

>  <fr_halogen>  (98) 
0

>  <fr_hdrzine>  (98) 
0

>  <fr_hdrzone>  (98) 
0

>  <fr_imidazole>  (98) 
1

>  <fr_imide>  (98) 
0

>  <fr_isocyan>  (98) 
0

>  <fr_isothiocyan>  (98) 
0

>  <fr_ketone>  (98) 
0

>  <fr_ketone_Topliss>  (98) 
0

>  <fr_lactam>  (98) 
0

>  <fr_lactone>  (98) 
0

>  <fr_methoxy>  (98) 
0

>  <fr_morpholine>  (98) 
0

>  <fr_nitrile>  (98) 
0

>  <fr_nitro>  (98) 
0

>  <fr_nitro_arom>  (98) 
0

>  <fr_nitro_arom_nonortho>  (98) 
0

>  <fr_nitroso>  (98) 
0

>  <fr_oxazole>  (98) 
0

>  <fr_oxime>  (98) 
0

>  <fr_para_hydroxylation>  (98) 
0

>  <fr_phenol>  (98) 
0

>  <fr_phenol_noOrthoHbond>  (98) 
0

>  <fr_phos_acid>  (98) 
2

>  <fr_phos_ester>  (98) 
1

>  <fr_piperdine>  (98) 
0

>  <fr_piperzine>  (98) 
0

>  <fr_priamide>  (98) 
0

>  <fr_prisulfonamd>  (98) 
0

>  <fr_pyridine>  (98) 
0

>  <fr_quatN>  (98) 
0

>  <fr_sulfide>  (98) 
0

>  <fr_sulfonamd>  (98) 
0

>  <fr_sulfone>  (98) 
0

>  <fr_term_acetylene>  (98) 
0

>  <fr_tetrazole>  (98) 
0

>  <fr_thiazole>  (98) 
0

>  <fr_thiocyan>  (98) 
0

>  <fr_thiophene>  (98) 
0

>  <fr_unbrch_alkane>  (98) 
0

>  <fr_urea>  (98) 
0

>  <NP-Likeness>  (98) 
0.931308

$$$$
ADP
     RDKit          3D

  0  0  0  0  0  0  0  0  0  0999 V3000
M  V30 BEGIN CTAB
M  V30 COUNTS 39 41 0 0 0
M  V30 BEGIN ATOM
M  V30 1 O -0.948285 -0.438583 4.255156 0
M  V30 2 C -0.411171 -0.255040 2.979968 0 CFG=1
M  V30 3 C 1.092178 -0.234105 3.045441 0 CFG=1
M  V30 4 O 1.474056 -0.912258 4.222552 0
M  V30 5 C 1.506228 -0.966081 1.819101 0 CFG=2
M  V30 6 N 2.233989 -0.193765 0.858355 0
M  V30 7 C 3.405953 -0.569193 0.290616 0
M  V30 8 N 3.775171 0.412104 -0.553372 0
M  V30 9 C 2.841851 1.378111 -0.504725 0
M  V30 10 C 1.841459 1.007625 0.397855 0
M  V30 11 N 0.833709 1.848388 0.572746 0
M  V30 12 C 0.798356 3.009814 -0.105821 0
M  V30 13 N 1.756149 3.378451 -0.978390 0
M  V30 14 C 2.825105 2.577588 -1.218927 0
M  V30 15 N 3.876306 2.894850 -2.123767 0
M  V30 16 O 0.375978 -1.480544 1.215317 0
M  V30 17 C -0.633812 -1.513038 2.138200 0 CFG=2
M  V30 18 C -2.014257 -1.365032 1.534430 0
M  V30 19 O -2.203385 -2.413883 0.644895 0
M  V30 20 P -3.712747 -2.369453 -0.103693 0 CFG=2 VAL=5
M  V30 21 O -4.183525 -0.939805 -0.202494 0
M  V30 22 O -4.824228 -3.304172 0.763507 0 CHG=-1 VAL=1
M  V30 23 O -3.512953 -3.048156 -1.649054 0
M  V30 24 P -2.467036 -4.373660 -1.493633 0
M  V30 25 O -3.034914 -5.398648 -0.528818 0
M  V30 26 O -2.251903 -5.116515 -3.005593 0 CHG=-1 VAL=1
M  V30 27 O -0.976837 -3.814647 -0.958446 0 CHG=-1 VAL=1
M  V30 28 H -1.249546 0.460417 4.565166 0
M  V30 29 H -0.849340 0.579238 2.433626 0
M  V30 30 H 1.506209 0.786595 3.129986 0
M  V30 31 H 2.375076 -0.559672 4.486506 0
M  V30 32 H 2.104238 -1.862424 2.148636 0
M  V30 33 H 3.911678 -1.512796 0.518410 0
M  V30 34 H 0.006807 3.762144 -0.024072 0
M  V30 35 H 4.664131 3.602715 -2.092400 0
M  V30 36 H 4.178059 2.540901 -3.055154 0
M  V30 37 H -0.589421 -2.343916 2.868457 0
M  V30 38 H -2.757307 -1.531700 2.351388 0
M  V30 39 H -2.175056 -0.362661 1.104157 0
M  V30 END ATOM
M  V30 BEGIN BOND
M  V30 1 1 1 2
M  V30 2 1 2 3
M  V30 3 1 3 4
M  V30 4 1 3 5
M  V30 5 1 5 6
M  V30 6 1 6 7
M  V30 7 2 7 8
M  V30 8 1 8 9
M  V30 9 2 9 10
M  V30 10 1 10 11
M  V30 11 2 11 12
M  V30 12 1 12 13
M  V30 13 2 13 14
M  V30 14 1 14 15
M  V30 15 1 5 16
M  V30 16 1 16 17
M  V30 17 1 17 18
M  V30 18 1 18 19
M  V30 19 1 19 20
M  V30 20 2 20 21
M  V30 21 1 20 22 CFG=1
M  V30 22 1 20 23
M  V30 23 1 23 24
M  V30 24 2 24 25
M  V30 25 1 24 26
M  V30 26 1 24 27
M  V30 27 1 17 2
M  V30 28 1 10 6
M  V30 29 1 14 9
M  V30 30 1 1 28
M  V30 31 1 2 29 CFG=3
M  V30 32 1 3 30 CFG=1
M  V30 33 1 4 31
M  V30 34 1 5 32 CFG=1
M  V30 35 1 7 33
M  V30 36 1 12 34
M  V30 37 1 15 35
M  V30 38 1 15 36
M  V30 39 1 17 37 CFG=1
M  V30 40 1 18 38
M  V30 41 1 18 39
M  V30 END BOND
M  V30 END CTAB
M  END
>  <Dataset>  (99) 
PDB

>  <Ligand_Instance>  (99) 
4NTT_ADP_B_401

>  <PDB_ID>  (99) 
4NTT

>  <Standardized_SMILES>  (99) 
[H]O[C@@]1([H])[C@@]([H])(O[H])[C@]([H])(N2C([H])=NC3=C2N=C([H])N=C3N([H])[H])O[C@]1([H])C([H])([H])O[P@](=O)([O-])OP(=O)([O-])[O-]

>  <Name>  (99) 
ADENOSINE-5'-DIPHOSPHATE

>  <Pocket>  (99) 
A

>  <ATP_Site>  (99) 
1.0

>  <Peripheral>  (99) 
0.0

>  <Num_H_Atoms_ProtBoundConf>  (99) 
12.0

>  <Num_Resolved_Atoms>  (99) 
27.0

>  <Num_Not_Resolved_Atoms>  (99) 
0.0

>  <2D_Mol_H>  (99) 
<rdkit.Chem.rdchem.Mol object at 0x72a238dc7df0>

>  <MW>  (99) 
424.179

>  <HBA>  (99) 
15

>  <HBD>  (99) 
3

>  <LogP>  (99) 
-3.642

>  <NRB>  (99) 
9

>  <TPSA>  (99) 
241.09

>  <Num_Heavy_Atoms>  (99) 
27

>  <Ro5>  (99) 
[True, False, True, True, True, False]

>  <Ro5_Fulfilled>  (99) 
False

>  <Ro3>  (99) 
[False, False, True, True]

>  <Ro3_Fulfilled>  (99) 
False

>  <Fsp3>  (99) 
0.5

>  <Fsp3_0.42>  (99) 
True

>  <Fsp3_0.45>  (99) 
True

>  <Stereogenic_Carbons>  (99) 
4

>  <C_Atoms>  (99) 
10

>  <FCStereo>  (99) 
0.4

>  <SPS>  (99) 
769

>  <nSPS>  (99) 
28.481481

>  <PBF>  (99) 
1.2091

>  <PBF_0.6>  (99) 
True

>  <nPBF>  (99) 
0.044781

>  <nPBF_0.016>  (99) 
True

>  <PMI1>  (99) 
2079.437579

>  <PMI2>  (99) 
5362.911313

>  <PMI3>  (99) 
6018.095926

>  <NPR1>  (99) 
0.345531

>  <NPR2>  (99) 
0.891131

>  <Sum_NPR>  (99) 
1.236662

>  <Sum_NPR_1.07>  (99) 
True

>  <Sum_NPR_1.2>  (99) 
True

>  <MaxAbsEStateIndex>  (99) 
11.278955

>  <MaxEStateIndex>  (99) 
11.278955

>  <MinAbsEStateIndex>  (99) 
0.065524

>  <MinEStateIndex>  (99) 
-5.851432

>  <qed>  (99) 
0.378904

>  <MolWt>  (99) 
424.179

>  <HeavyAtomMolWt>  (99) 
412.083

>  <ExactMolWt>  (99) 
424.007586

>  <NumValenceElectrons>  (99) 
150

>  <NumRadicalElectrons>  (99) 
0

>  <MaxPartialCharge>  (99) 
0.271368

>  <MinPartialCharge>  (99) 
-0.789509

>  <MaxAbsPartialCharge>  (99) 
0.789509

>  <MinAbsPartialCharge>  (99) 
0.271368

>  <FpDensityMorgan1>  (99) 
1.222222

>  <FpDensityMorgan2>  (99) 
1.925926

>  <FpDensityMorgan3>  (99) 
2.592593

>  <BCUT2D_MWHI>  (99) 
31.27025

>  <BCUT2D_MWLOW>  (99) 
10.128388

>  <BCUT2D_CHGHI>  (99) 
2.444842

>  <BCUT2D_CHGLO>  (99) 
-2.350424

>  <BCUT2D_LOGPHI>  (99) 
2.503664

>  <BCUT2D_LOGPLOW>  (99) 
-2.337741

>  <BCUT2D_MRHI>  (99) 
7.580921

>  <BCUT2D_MRLOW>  (99) 
-0.339423

>  <AvgIpc>  (99) 
3.072773

>  <BalabanJ>  (99) 
1.748652

>  <BertzCT>  (99) 
932.232873

>  <Chi0>  (99) 
19.982763

>  <Chi0n>  (99) 
13.092254

>  <Chi0v>  (99) 
14.881108

>  <Chi1>  (99) 
12.483782

>  <Chi1n>  (99) 
7.119416

>  <Chi1v>  (99) 
10.040603

>  <Chi2n>  (99) 
5.401088

>  <Chi2v>  (99) 
8.101339

>  <Chi3n>  (99) 
3.595354

>  <Chi3v>  (99) 
5.660653

>  <Chi4n>  (99) 
2.463726

>  <Chi4v>  (99) 
3.961582

>  <HallKierAlpha>  (99) 
-1.51

>  <Ipc>  (99) 
807942.564302

>  <Kappa1>  (99) 
20.230095

>  <Kappa2>  (99) 
7.144568

>  <Kappa3>  (99) 
4.329348

>  <LabuteASA>  (99) 
149.760939

>  <PEOE_VSA1>  (99) 
44.452615

>  <PEOE_VSA10>  (99) 
30.15592

>  <PEOE_VSA11>  (99) 
17.692941

>  <PEOE_VSA12>  (99) 
0.0

>  <PEOE_VSA13>  (99) 
7.822697

>  <PEOE_VSA14>  (99) 
0.0

>  <PEOE_VSA2>  (99) 
13.442779

>  <PEOE_VSA3>  (99) 
14.951936

>  <PEOE_VSA4>  (99) 
0.0

>  <PEOE_VSA5>  (99) 
0.0

>  <PEOE_VSA6>  (99) 
0.0

>  <PEOE_VSA7>  (99) 
0.0

>  <PEOE_VSA8>  (99) 
0.0

>  <PEOE_VSA9>  (99) 
20.756899

>  <SMR_VSA1>  (99) 
47.594628

>  <SMR_VSA10>  (99) 
32.627135

>  <SMR_VSA2>  (99) 
0.0

>  <SMR_VSA3>  (99) 
19.519035

>  <SMR_VSA4>  (99) 
0.0

>  <SMR_VSA5>  (99) 
24.5398

>  <SMR_VSA6>  (99) 
12.340549

>  <SMR_VSA7>  (99) 
12.65464

>  <SMR_VSA8>  (99) 
0.0

>  <SMR_VSA9>  (99) 
0.0

>  <SlogP_VSA1>  (99) 
20.413902

>  <SlogP_VSA10>  (99) 
5.817863

>  <SlogP_VSA11>  (99) 
0.0

>  <SlogP_VSA12>  (99) 
15.645394

>  <SlogP_VSA2>  (99) 
54.650871

>  <SlogP_VSA3>  (99) 
22.701338

>  <SlogP_VSA4>  (99) 
0.0

>  <SlogP_VSA5>  (99) 
6.227901

>  <SlogP_VSA6>  (99) 
12.65464

>  <SlogP_VSA7>  (99) 
0.0

>  <SlogP_VSA8>  (99) 
11.163878

>  <SlogP_VSA9>  (99) 
0.0

>  <EState_VSA1>  (99) 
46.792077

>  <EState_VSA10>  (99) 
34.023386

>  <EState_VSA11>  (99) 
0.0

>  <EState_VSA2>  (99) 
16.981741

>  <EState_VSA3>  (99) 
0.0

>  <EState_VSA4>  (99) 
6.32732

>  <EState_VSA5>  (99) 
10.89442

>  <EState_VSA6>  (99) 
0.0

>  <EState_VSA7>  (99) 
0.0

>  <EState_VSA8>  (99) 
23.786314

>  <EState_VSA9>  (99) 
10.47053

>  <VSA_EState1>  (99) 
35.749107

>  <VSA_EState10>  (99) 
0.0

>  <VSA_EState2>  (99) 
43.665953

>  <VSA_EState3>  (99) 
20.193372

>  <VSA_EState4>  (99) 
6.037581

>  <VSA_EState5>  (99) 
0.065524

>  <VSA_EState6>  (99) 
0.0

>  <VSA_EState7>  (99) 
-3.478964

>  <VSA_EState8>  (99) 
-0.931293

>  <VSA_EState9>  (99) 
-11.356836

>  <FractionCSP3>  (99) 
0.5

>  <HeavyAtomCount>  (99) 
27

>  <NHOHCount>  (99) 
4

>  <NOCount>  (99) 
15

>  <NumAliphaticCarbocycles>  (99) 
0

>  <NumAliphaticHeterocycles>  (99) 
1

>  <NumAliphaticRings>  (99) 
1

>  <NumAromaticCarbocycles>  (99) 
0

>  <NumAromaticHeterocycles>  (99) 
2

>  <NAR>  (99) 
2

>  <NumHAcceptors>  (99) 
15

>  <NumHDonors>  (99) 
3

>  <NumHeteroatoms>  (99) 
17

>  <NumRotatableBonds>  (99) 
6

>  <NumSaturatedCarbocycles>  (99) 
0

>  <NumSaturatedHeterocycles>  (99) 
1

>  <NumSaturatedRings>  (99) 
1

>  <RingCount>  (99) 
3

>  <MolLogP>  (99) 
-3.642

>  <MolMR>  (99) 
77.909

>  <fr_Al_COO>  (99) 
0

>  <fr_Al_OH>  (99) 
2

>  <fr_Al_OH_noTert>  (99) 
2

>  <fr_ArN>  (99) 
1

>  <fr_Ar_COO>  (99) 
0

>  <fr_Ar_N>  (99) 
4

>  <fr_Ar_NH>  (99) 
0

>  <fr_Ar_OH>  (99) 
0

>  <fr_COO>  (99) 
0

>  <fr_COO2>  (99) 
0

>  <fr_C_O>  (99) 
0

>  <fr_C_O_noCOO>  (99) 
0

>  <fr_C_S>  (99) 
0

>  <fr_HOCCN>  (99) 
0

>  <fr_Imine>  (99) 
0

>  <fr_NH0>  (99) 
4

>  <fr_NH1>  (99) 
0

>  <fr_NH2>  (99) 
1

>  <fr_N_O>  (99) 
0

>  <fr_Ndealkylation1>  (99) 
0

>  <fr_Ndealkylation2>  (99) 
0

>  <fr_Nhpyrrole>  (99) 
0

>  <fr_SH>  (99) 
0

>  <fr_aldehyde>  (99) 
0

>  <fr_alkyl_carbamate>  (99) 
0

>  <fr_alkyl_halide>  (99) 
0

>  <fr_allylic_oxid>  (99) 
0

>  <fr_amide>  (99) 
0

>  <fr_amidine>  (99) 
0

>  <fr_aniline>  (99) 
1

>  <fr_aryl_methyl>  (99) 
0

>  <fr_azide>  (99) 
0

>  <fr_azo>  (99) 
0

>  <fr_barbitur>  (99) 
0

>  <fr_benzene>  (99) 
0

>  <fr_benzodiazepine>  (99) 
0

>  <fr_bicyclic>  (99) 
1

>  <fr_diazo>  (99) 
0

>  <fr_dihydropyridine>  (99) 
0

>  <fr_epoxide>  (99) 
0

>  <fr_ester>  (99) 
0

>  <fr_ether>  (99) 
1

>  <fr_furan>  (99) 
0

>  <fr_guanido>  (99) 
0

>  <fr_halogen>  (99) 
0

>  <fr_hdrzine>  (99) 
0

>  <fr_hdrzone>  (99) 
0

>  <fr_imidazole>  (99) 
1

>  <fr_imide>  (99) 
0

>  <fr_isocyan>  (99) 
0

>  <fr_isothiocyan>  (99) 
0

>  <fr_ketone>  (99) 
0

>  <fr_ketone_Topliss>  (99) 
0

>  <fr_lactam>  (99) 
0

>  <fr_lactone>  (99) 
0

>  <fr_methoxy>  (99) 
0

>  <fr_morpholine>  (99) 
0

>  <fr_nitrile>  (99) 
0

>  <fr_nitro>  (99) 
0

>  <fr_nitro_arom>  (99) 
0

>  <fr_nitro_arom_nonortho>  (99) 
0

>  <fr_nitroso>  (99) 
0

>  <fr_oxazole>  (99) 
0

>  <fr_oxime>  (99) 
0

>  <fr_para_hydroxylation>  (99) 
0

>  <fr_phenol>  (99) 
0

>  <fr_phenol_noOrthoHbond>  (99) 
0

>  <fr_phos_acid>  (99) 
2

>  <fr_phos_ester>  (99) 
1

>  <fr_piperdine>  (99) 
0

>  <fr_piperzine>  (99) 
0

>  <fr_priamide>  (99) 
0

>  <fr_prisulfonamd>  (99) 
0

>  <fr_pyridine>  (99) 
0

>  <fr_quatN>  (99) 
0

>  <fr_sulfide>  (99) 
0

>  <fr_sulfonamd>  (99) 
0

>  <fr_sulfone>  (99) 
0

>  <fr_term_acetylene>  (99) 
0

>  <fr_tetrazole>  (99) 
0

>  <fr_thiazole>  (99) 
0

>  <fr_thiocyan>  (99) 
0

>  <fr_thiophene>  (99) 
0

>  <fr_unbrch_alkane>  (99) 
0

>  <fr_urea>  (99) 
0

>  <NP-Likeness>  (99) 
0.931308

$$$$
ADP
     RDKit          3D

  0  0  0  0  0  0  0  0  0  0999 V3000
M  V30 BEGIN CTAB
M  V30 COUNTS 39 41 0 0 0
M  V30 BEGIN ATOM
M  V30 1 O -0.948285 -0.438583 4.255156 0
M  V30 2 C -0.411171 -0.255040 2.979968 0 CFG=1
M  V30 3 C 1.092178 -0.234105 3.045441 0 CFG=1
M  V30 4 O 1.474056 -0.912258 4.222552 0
M  V30 5 C 1.506228 -0.966081 1.819101 0 CFG=2
M  V30 6 N 2.233989 -0.193765 0.858355 0
M  V30 7 C 3.405953 -0.569193 0.290616 0
M  V30 8 N 3.775171 0.412104 -0.553372 0
M  V30 9 C 2.841851 1.378111 -0.504725 0
M  V30 10 C 1.841459 1.007625 0.397855 0
M  V30 11 N 0.833709 1.848388 0.572746 0
M  V30 12 C 0.798356 3.009814 -0.105821 0
M  V30 13 N 1.756149 3.378451 -0.978390 0
M  V30 14 C 2.825105 2.577588 -1.218927 0
M  V30 15 N 3.876306 2.894850 -2.123767 0
M  V30 16 O 0.375978 -1.480544 1.215317 0
M  V30 17 C -0.633812 -1.513038 2.138200 0 CFG=2
M  V30 18 C -2.014257 -1.365032 1.534430 0
M  V30 19 O -2.203385 -2.413883 0.644895 0
M  V30 20 P -3.712747 -2.369453 -0.103693 0 CFG=2 VAL=5
M  V30 21 O -4.183525 -0.939805 -0.202494 0
M  V30 22 O -4.824228 -3.304172 0.763507 0 CHG=-1 VAL=1
M  V30 23 O -3.512953 -3.048156 -1.649054 0
M  V30 24 P -2.467036 -4.373660 -1.493633 0
M  V30 25 O -3.034914 -5.398648 -0.528818 0
M  V30 26 O -2.251903 -5.116515 -3.005593 0 CHG=-1 VAL=1
M  V30 27 O -0.976837 -3.814647 -0.958446 0 CHG=-1 VAL=1
M  V30 28 H -1.249546 0.460417 4.565166 0
M  V30 29 H -0.849340 0.579238 2.433626 0
M  V30 30 H 1.506209 0.786595 3.129986 0
M  V30 31 H 2.375076 -0.559672 4.486506 0
M  V30 32 H 2.104238 -1.862424 2.148636 0
M  V30 33 H 3.911678 -1.512796 0.518410 0
M  V30 34 H 0.006807 3.762144 -0.024072 0
M  V30 35 H 4.664131 3.602715 -2.092400 0
M  V30 36 H 4.178059 2.540901 -3.055154 0
M  V30 37 H -0.589421 -2.343916 2.868457 0
M  V30 38 H -2.757307 -1.531700 2.351388 0
M  V30 39 H -2.175056 -0.362661 1.104157 0
M  V30 END ATOM
M  V30 BEGIN BOND
M  V30 1 1 1 2
M  V30 2 1 2 3
M  V30 3 1 3 4
M  V30 4 1 3 5
M  V30 5 1 5 6
M  V30 6 1 6 7
M  V30 7 2 7 8
M  V30 8 1 8 9
M  V30 9 2 9 10
M  V30 10 1 10 11
M  V30 11 2 11 12
M  V30 12 1 12 13
M  V30 13 2 13 14
M  V30 14 1 14 15
M  V30 15 1 5 16
M  V30 16 1 16 17
M  V30 17 1 17 18
M  V30 18 1 18 19
M  V30 19 1 19 20
M  V30 20 2 20 21
M  V30 21 1 20 22 CFG=1
M  V30 22 1 20 23
M  V30 23 1 23 24
M  V30 24 2 24 25
M  V30 25 1 24 26
M  V30 26 1 24 27
M  V30 27 1 17 2
M  V30 28 1 10 6
M  V30 29 1 14 9
M  V30 30 1 1 28
M  V30 31 1 2 29 CFG=3
M  V30 32 1 3 30 CFG=1
M  V30 33 1 4 31
M  V30 34 1 5 32 CFG=1
M  V30 35 1 7 33
M  V30 36 1 12 34
M  V30 37 1 15 35
M  V30 38 1 15 36
M  V30 39 1 17 37 CFG=1
M  V30 40 1 18 38
M  V30 41 1 18 39
M  V30 END BOND
M  V30 END CTAB
M  END
>  <Dataset>  (100) 
PDB

>  <Ligand_Instance>  (100) 
4O21_ADP_A_401

>  <PDB_ID>  (100) 
4O21

>  <Standardized_SMILES>  (100) 
[H]O[C@@]1([H])[C@@]([H])(O[H])[C@]([H])(N2C([H])=NC3=C2N=C([H])N=C3N([H])[H])O[C@]1([H])C([H])([H])O[P@](=O)([O-])OP(=O)([O-])[O-]

>  <Name>  (100) 
ADENOSINE-5'-DIPHOSPHATE

>  <Pocket>  (100) 
A

>  <ATP_Site>  (100) 
1.0

>  <Peripheral>  (100) 
0.0

>  <Num_H_Atoms_ProtBoundConf>  (100) 
12.0

>  <Num_Resolved_Atoms>  (100) 
27.0

>  <Num_Not_Resolved_Atoms>  (100) 
0.0

>  <2D_Mol_H>  (100) 
<rdkit.Chem.rdchem.Mol object at 0x72a238dc7ed0>

>  <MW>  (100) 
424.179

>  <HBA>  (100) 
15

>  <HBD>  (100) 
3

>  <LogP>  (100) 
-3.642

>  <NRB>  (100) 
9

>  <TPSA>  (100) 
241.09

>  <Num_Heavy_Atoms>  (100) 
27

>  <Ro5>  (100) 
[True, False, True, True, True, False]

>  <Ro5_Fulfilled>  (100) 
False

>  <Ro3>  (100) 
[False, False, True, True]

>  <Ro3_Fulfilled>  (100) 
False

>  <Fsp3>  (100) 
0.5

>  <Fsp3_0.42>  (100) 
True

>  <Fsp3_0.45>  (100) 
True

>  <Stereogenic_Carbons>  (100) 
4

>  <C_Atoms>  (100) 
10

>  <FCStereo>  (100) 
0.4

>  <SPS>  (100) 
769

>  <nSPS>  (100) 
28.481481

>  <PBF>  (100) 
1.2091

>  <PBF_0.6>  (100) 
True

>  <nPBF>  (100) 
0.044781

>  <nPBF_0.016>  (100) 
True

>  <PMI1>  (100) 
2079.437579

>  <PMI2>  (100) 
5362.911313

>  <PMI3>  (100) 
6018.095926

>  <NPR1>  (100) 
0.345531

>  <NPR2>  (100) 
0.891131

>  <Sum_NPR>  (100) 
1.236662

>  <Sum_NPR_1.07>  (100) 
True

>  <Sum_NPR_1.2>  (100) 
True

>  <MaxAbsEStateIndex>  (100) 
11.278955

>  <MaxEStateIndex>  (100) 
11.278955

>  <MinAbsEStateIndex>  (100) 
0.065524

>  <MinEStateIndex>  (100) 
-5.851432

>  <qed>  (100) 
0.378904

>  <MolWt>  (100) 
424.179

>  <HeavyAtomMolWt>  (100) 
412.083

>  <ExactMolWt>  (100) 
424.007586

>  <NumValenceElectrons>  (100) 
150

>  <NumRadicalElectrons>  (100) 
0

>  <MaxPartialCharge>  (100) 
0.271368

>  <MinPartialCharge>  (100) 
-0.789509

>  <MaxAbsPartialCharge>  (100) 
0.789509

>  <MinAbsPartialCharge>  (100) 
0.271368

>  <FpDensityMorgan1>  (100) 
1.222222

>  <FpDensityMorgan2>  (100) 
1.925926

>  <FpDensityMorgan3>  (100) 
2.592593

>  <BCUT2D_MWHI>  (100) 
31.27025

>  <BCUT2D_MWLOW>  (100) 
10.128388

>  <BCUT2D_CHGHI>  (100) 
2.444842

>  <BCUT2D_CHGLO>  (100) 
-2.350424

>  <BCUT2D_LOGPHI>  (100) 
2.503664

>  <BCUT2D_LOGPLOW>  (100) 
-2.337741

>  <BCUT2D_MRHI>  (100) 
7.580921

>  <BCUT2D_MRLOW>  (100) 
-0.339423

>  <AvgIpc>  (100) 
3.072773

>  <BalabanJ>  (100) 
1.748652

>  <BertzCT>  (100) 
932.232873

>  <Chi0>  (100) 
19.982763

>  <Chi0n>  (100) 
13.092254

>  <Chi0v>  (100) 
14.881108

>  <Chi1>  (100) 
12.483782

>  <Chi1n>  (100) 
7.119416

>  <Chi1v>  (100) 
10.040603

>  <Chi2n>  (100) 
5.401088

>  <Chi2v>  (100) 
8.101339

>  <Chi3n>  (100) 
3.595354

>  <Chi3v>  (100) 
5.660653

>  <Chi4n>  (100) 
2.463726

>  <Chi4v>  (100) 
3.961582

>  <HallKierAlpha>  (100) 
-1.51

>  <Ipc>  (100) 
807942.564302

>  <Kappa1>  (100) 
20.230095

>  <Kappa2>  (100) 
7.144568

>  <Kappa3>  (100) 
4.329348

>  <LabuteASA>  (100) 
149.760939

>  <PEOE_VSA1>  (100) 
44.452615

>  <PEOE_VSA10>  (100) 
30.15592

>  <PEOE_VSA11>  (100) 
17.692941

>  <PEOE_VSA12>  (100) 
0.0

>  <PEOE_VSA13>  (100) 
7.822697

>  <PEOE_VSA14>  (100) 
0.0

>  <PEOE_VSA2>  (100) 
13.442779

>  <PEOE_VSA3>  (100) 
14.951936

>  <PEOE_VSA4>  (100) 
0.0

>  <PEOE_VSA5>  (100) 
0.0

>  <PEOE_VSA6>  (100) 
0.0

>  <PEOE_VSA7>  (100) 
0.0

>  <PEOE_VSA8>  (100) 
0.0

>  <PEOE_VSA9>  (100) 
20.756899

>  <SMR_VSA1>  (100) 
47.594628

>  <SMR_VSA10>  (100) 
32.627135

>  <SMR_VSA2>  (100) 
0.0

>  <SMR_VSA3>  (100) 
19.519035

>  <SMR_VSA4>  (100) 
0.0

>  <SMR_VSA5>  (100) 
24.5398

>  <SMR_VSA6>  (100) 
12.340549

>  <SMR_VSA7>  (100) 
12.65464

>  <SMR_VSA8>  (100) 
0.0

>  <SMR_VSA9>  (100) 
0.0

>  <SlogP_VSA1>  (100) 
20.413902

>  <SlogP_VSA10>  (100) 
5.817863

>  <SlogP_VSA11>  (100) 
0.0

>  <SlogP_VSA12>  (100) 
15.645394

>  <SlogP_VSA2>  (100) 
54.650871

>  <SlogP_VSA3>  (100) 
22.701338

>  <SlogP_VSA4>  (100) 
0.0

>  <SlogP_VSA5>  (100) 
6.227901

>  <SlogP_VSA6>  (100) 
12.65464

>  <SlogP_VSA7>  (100) 
0.0

>  <SlogP_VSA8>  (100) 
11.163878

>  <SlogP_VSA9>  (100) 
0.0

>  <EState_VSA1>  (100) 
46.792077

>  <EState_VSA10>  (100) 
34.023386

>  <EState_VSA11>  (100) 
0.0

>  <EState_VSA2>  (100) 
16.981741

>  <EState_VSA3>  (100) 
0.0

>  <EState_VSA4>  (100) 
6.32732

>  <EState_VSA5>  (100) 
10.89442

>  <EState_VSA6>  (100) 
0.0

>  <EState_VSA7>  (100) 
0.0

>  <EState_VSA8>  (100) 
23.786314

>  <EState_VSA9>  (100) 
10.47053

>  <VSA_EState1>  (100) 
35.749107

>  <VSA_EState10>  (100) 
0.0

>  <VSA_EState2>  (100) 
43.665953

>  <VSA_EState3>  (100) 
20.193372

>  <VSA_EState4>  (100) 
6.037581

>  <VSA_EState5>  (100) 
0.065524

>  <VSA_EState6>  (100) 
0.0

>  <VSA_EState7>  (100) 
-3.478964

>  <VSA_EState8>  (100) 
-0.931293

>  <VSA_EState9>  (100) 
-11.356836

>  <FractionCSP3>  (100) 
0.5

>  <HeavyAtomCount>  (100) 
27

>  <NHOHCount>  (100) 
4

>  <NOCount>  (100) 
15

>  <NumAliphaticCarbocycles>  (100) 
0

>  <NumAliphaticHeterocycles>  (100) 
1

>  <NumAliphaticRings>  (100) 
1

>  <NumAromaticCarbocycles>  (100) 
0

>  <NumAromaticHeterocycles>  (100) 
2

>  <NAR>  (100) 
2

>  <NumHAcceptors>  (100) 
15

>  <NumHDonors>  (100) 
3

>  <NumHeteroatoms>  (100) 
17

>  <NumRotatableBonds>  (100) 
6

>  <NumSaturatedCarbocycles>  (100) 
0

>  <NumSaturatedHeterocycles>  (100) 
1

>  <NumSaturatedRings>  (100) 
1

>  <RingCount>  (100) 
3

>  <MolLogP>  (100) 
-3.642

>  <MolMR>  (100) 
77.909

>  <fr_Al_COO>  (100) 
0

>  <fr_Al_OH>  (100) 
2

>  <fr_Al_OH_noTert>  (100) 
2

>  <fr_ArN>  (100) 
1

>  <fr_Ar_COO>  (100) 
0

>  <fr_Ar_N>  (100) 
4

>  <fr_Ar_NH>  (100) 
0

>  <fr_Ar_OH>  (100) 
0

>  <fr_COO>  (100) 
0

>  <fr_COO2>  (100) 
0

>  <fr_C_O>  (100) 
0

>  <fr_C_O_noCOO>  (100) 
0

>  <fr_C_S>  (100) 
0

>  <fr_HOCCN>  (100) 
0

>  <fr_Imine>  (100) 
0

>  <fr_NH0>  (100) 
4

>  <fr_NH1>  (100) 
0

>  <fr_NH2>  (100) 
1

>  <fr_N_O>  (100) 
0

>  <fr_Ndealkylation1>  (100) 
0

>  <fr_Ndealkylation2>  (100) 
0

>  <fr_Nhpyrrole>  (100) 
0

>  <fr_SH>  (100) 
0

>  <fr_aldehyde>  (100) 
0

>  <fr_alkyl_carbamate>  (100) 
0

>  <fr_alkyl_halide>  (100) 
0

>  <fr_allylic_oxid>  (100) 
0

>  <fr_amide>  (100) 
0

>  <fr_amidine>  (100) 
0

>  <fr_aniline>  (100) 
1

>  <fr_aryl_methyl>  (100) 
0

>  <fr_azide>  (100) 
0

>  <fr_azo>  (100) 
0

>  <fr_barbitur>  (100) 
0

>  <fr_benzene>  (100) 
0

>  <fr_benzodiazepine>  (100) 
0

>  <fr_bicyclic>  (100) 
1

>  <fr_diazo>  (100) 
0

>  <fr_dihydropyridine>  (100) 
0

>  <fr_epoxide>  (100) 
0

>  <fr_ester>  (100) 
0

>  <fr_ether>  (100) 
1

>  <fr_furan>  (100) 
0

>  <fr_guanido>  (100) 
0

>  <fr_halogen>  (100) 
0

>  <fr_hdrzine>  (100) 
0

>  <fr_hdrzone>  (100) 
0

>  <fr_imidazole>  (100) 
1

>  <fr_imide>  (100) 
0

>  <fr_isocyan>  (100) 
0

>  <fr_isothiocyan>  (100) 
0

>  <fr_ketone>  (100) 
0

>  <fr_ketone_Topliss>  (100) 
0

>  <fr_lactam>  (100) 
0

>  <fr_lactone>  (100) 
0

>  <fr_methoxy>  (100) 
0

>  <fr_morpholine>  (100) 
0

>  <fr_nitrile>  (100) 
0

>  <fr_nitro>  (100) 
0

>  <fr_nitro_arom>  (100) 
0

>  <fr_nitro_arom_nonortho>  (100) 
0

>  <fr_nitroso>  (100) 
0

>  <fr_oxazole>  (100) 
0

>  <fr_oxime>  (100) 
0

>  <fr_para_hydroxylation>  (100) 
0

>  <fr_phenol>  (100) 
0

>  <fr_phenol_noOrthoHbond>  (100) 
0

>  <fr_phos_acid>  (100) 
2

>  <fr_phos_ester>  (100) 
1

>  <fr_piperdine>  (100) 
0

>  <fr_piperzine>  (100) 
0

>  <fr_priamide>  (100) 
0

>  <fr_prisulfonamd>  (100) 
0

>  <fr_pyridine>  (100) 
0

>  <fr_quatN>  (100) 
0

>  <fr_sulfide>  (100) 
0

>  <fr_sulfonamd>  (100) 
0

>  <fr_sulfone>  (100) 
0

>  <fr_term_acetylene>  (100) 
0

>  <fr_tetrazole>  (100) 
0

>  <fr_thiazole>  (100) 
0

>  <fr_thiocyan>  (100) 
0

>  <fr_thiophene>  (100) 
0

>  <fr_unbrch_alkane>  (100) 
0

>  <fr_urea>  (100) 
0

>  <NP-Likeness>  (100) 
0.931308

$$$$
ADP
     RDKit          3D

  0  0  0  0  0  0  0  0  0  0999 V3000
M  V30 BEGIN CTAB
M  V30 COUNTS 39 41 0 0 0
M  V30 BEGIN ATOM
M  V30 1 O -0.948285 -0.438583 4.255156 0
M  V30 2 C -0.411171 -0.255040 2.979968 0 CFG=1
M  V30 3 C 1.092178 -0.234105 3.045441 0 CFG=1
M  V30 4 O 1.474056 -0.912258 4.222552 0
M  V30 5 C 1.506228 -0.966081 1.819101 0 CFG=2
M  V30 6 N 2.233989 -0.193765 0.858355 0
M  V30 7 C 3.405953 -0.569193 0.290616 0
M  V30 8 N 3.775171 0.412104 -0.553372 0
M  V30 9 C 2.841851 1.378111 -0.504725 0
M  V30 10 C 1.841459 1.007625 0.397855 0
M  V30 11 N 0.833709 1.848388 0.572746 0
M  V30 12 C 0.798356 3.009814 -0.105821 0
M  V30 13 N 1.756149 3.378451 -0.978390 0
M  V30 14 C 2.825105 2.577588 -1.218927 0
M  V30 15 N 3.876306 2.894850 -2.123767 0
M  V30 16 O 0.375978 -1.480544 1.215317 0
M  V30 17 C -0.633812 -1.513038 2.138200 0 CFG=2
M  V30 18 C -2.014257 -1.365032 1.534430 0
M  V30 19 O -2.203385 -2.413883 0.644895 0
M  V30 20 P -3.712747 -2.369453 -0.103693 0 CFG=2 VAL=5
M  V30 21 O -4.183525 -0.939805 -0.202494 0
M  V30 22 O -4.824228 -3.304172 0.763507 0 CHG=-1 VAL=1
M  V30 23 O -3.512953 -3.048156 -1.649054 0
M  V30 24 P -2.467036 -4.373660 -1.493633 0
M  V30 25 O -3.034914 -5.398648 -0.528818 0
M  V30 26 O -2.251903 -5.116515 -3.005593 0 CHG=-1 VAL=1
M  V30 27 O -0.976837 -3.814647 -0.958446 0 CHG=-1 VAL=1
M  V30 28 H -1.249546 0.460417 4.565166 0
M  V30 29 H -0.849340 0.579238 2.433626 0
M  V30 30 H 1.506209 0.786595 3.129986 0
M  V30 31 H 2.375076 -0.559672 4.486506 0
M  V30 32 H 2.104238 -1.862424 2.148636 0
M  V30 33 H 3.911678 -1.512796 0.518410 0
M  V30 34 H 0.006807 3.762144 -0.024072 0
M  V30 35 H 4.664131 3.602715 -2.092400 0
M  V30 36 H 4.178059 2.540901 -3.055154 0
M  V30 37 H -0.589421 -2.343916 2.868457 0
M  V30 38 H -2.757307 -1.531700 2.351388 0
M  V30 39 H -2.175056 -0.362661 1.104157 0
M  V30 END ATOM
M  V30 BEGIN BOND
M  V30 1 1 1 2
M  V30 2 1 2 3
M  V30 3 1 3 4
M  V30 4 1 3 5
M  V30 5 1 5 6
M  V30 6 1 6 7
M  V30 7 2 7 8
M  V30 8 1 8 9
M  V30 9 2 9 10
M  V30 10 1 10 11
M  V30 11 2 11 12
M  V30 12 1 12 13
M  V30 13 2 13 14
M  V30 14 1 14 15
M  V30 15 1 5 16
M  V30 16 1 16 17
M  V30 17 1 17 18
M  V30 18 1 18 19
M  V30 19 1 19 20
M  V30 20 2 20 21
M  V30 21 1 20 22 CFG=1
M  V30 22 1 20 23
M  V30 23 1 23 24
M  V30 24 2 24 25
M  V30 25 1 24 26
M  V30 26 1 24 27
M  V30 27 1 17 2
M  V30 28 1 10 6
M  V30 29 1 14 9
M  V30 30 1 1 28
M  V30 31 1 2 29 CFG=3
M  V30 32 1 3 30 CFG=1
M  V30 33 1 4 31
M  V30 34 1 5 32 CFG=1
M  V30 35 1 7 33
M  V30 36 1 12 34
M  V30 37 1 15 35
M  V30 38 1 15 36
M  V30 39 1 17 37 CFG=1
M  V30 40 1 18 38
M  V30 41 1 18 39
M  V30 END BOND
M  V30 END CTAB
M  END
>  <Dataset>  (101) 
PDB

>  <Ligand_Instance>  (101) 
4XW6_ADP_A_403

>  <PDB_ID>  (101) 
4XW6

>  <Standardized_SMILES>  (101) 
[H]O[C@@]1([H])[C@@]([H])(O[H])[C@]([H])(N2C([H])=NC3=C2N=C([H])N=C3N([H])[H])O[C@]1([H])C([H])([H])O[P@](=O)([O-])OP(=O)([O-])[O-]

>  <Name>  (101) 
ADENOSINE-5'-DIPHOSPHATE

>  <Pocket>  (101) 
A

>  <ATP_Site>  (101) 
1.0

>  <Peripheral>  (101) 
0.0

>  <Num_H_Atoms_ProtBoundConf>  (101) 
12.0

>  <Num_Resolved_Atoms>  (101) 
27.0

>  <Num_Not_Resolved_Atoms>  (101) 
0.0

>  <2D_Mol_H>  (101) 
<rdkit.Chem.rdchem.Mol object at 0x72a238da4040>

>  <MW>  (101) 
424.179

>  <HBA>  (101) 
15

>  <HBD>  (101) 
3

>  <LogP>  (101) 
-3.642

>  <NRB>  (101) 
9

>  <TPSA>  (101) 
241.09

>  <Num_Heavy_Atoms>  (101) 
27

>  <Ro5>  (101) 
[True, False, True, True, True, False]

>  <Ro5_Fulfilled>  (101) 
False

>  <Ro3>  (101) 
[False, False, True, True]

>  <Ro3_Fulfilled>  (101) 
False

>  <Fsp3>  (101) 
0.5

>  <Fsp3_0.42>  (101) 
True

>  <Fsp3_0.45>  (101) 
True

>  <Stereogenic_Carbons>  (101) 
4

>  <C_Atoms>  (101) 
10

>  <FCStereo>  (101) 
0.4

>  <SPS>  (101) 
769

>  <nSPS>  (101) 
28.481481

>  <PBF>  (101) 
1.2091

>  <PBF_0.6>  (101) 
True

>  <nPBF>  (101) 
0.044781

>  <nPBF_0.016>  (101) 
True

>  <PMI1>  (101) 
2079.437579

>  <PMI2>  (101) 
5362.911313

>  <PMI3>  (101) 
6018.095926

>  <NPR1>  (101) 
0.345531

>  <NPR2>  (101) 
0.891131

>  <Sum_NPR>  (101) 
1.236662

>  <Sum_NPR_1.07>  (101) 
True

>  <Sum_NPR_1.2>  (101) 
True

>  <MaxAbsEStateIndex>  (101) 
11.278955

>  <MaxEStateIndex>  (101) 
11.278955

>  <MinAbsEStateIndex>  (101) 
0.065524

>  <MinEStateIndex>  (101) 
-5.851432

>  <qed>  (101) 
0.378904

>  <MolWt>  (101) 
424.179

>  <HeavyAtomMolWt>  (101) 
412.083

>  <ExactMolWt>  (101) 
424.007586

>  <NumValenceElectrons>  (101) 
150

>  <NumRadicalElectrons>  (101) 
0

>  <MaxPartialCharge>  (101) 
0.271368

>  <MinPartialCharge>  (101) 
-0.789509

>  <MaxAbsPartialCharge>  (101) 
0.789509

>  <MinAbsPartialCharge>  (101) 
0.271368

>  <FpDensityMorgan1>  (101) 
1.222222

>  <FpDensityMorgan2>  (101) 
1.925926

>  <FpDensityMorgan3>  (101) 
2.592593

>  <BCUT2D_MWHI>  (101) 
31.27025

>  <BCUT2D_MWLOW>  (101) 
10.128388

>  <BCUT2D_CHGHI>  (101) 
2.444842

>  <BCUT2D_CHGLO>  (101) 
-2.350424

>  <BCUT2D_LOGPHI>  (101) 
2.503664

>  <BCUT2D_LOGPLOW>  (101) 
-2.337741

>  <BCUT2D_MRHI>  (101) 
7.580921

>  <BCUT2D_MRLOW>  (101) 
-0.339423

>  <AvgIpc>  (101) 
3.072773

>  <BalabanJ>  (101) 
1.748652

>  <BertzCT>  (101) 
932.232873

>  <Chi0>  (101) 
19.982763

>  <Chi0n>  (101) 
13.092254

>  <Chi0v>  (101) 
14.881108

>  <Chi1>  (101) 
12.483782

>  <Chi1n>  (101) 
7.119416

>  <Chi1v>  (101) 
10.040603

>  <Chi2n>  (101) 
5.401088

>  <Chi2v>  (101) 
8.101339

>  <Chi3n>  (101) 
3.595354

>  <Chi3v>  (101) 
5.660653

>  <Chi4n>  (101) 
2.463726

>  <Chi4v>  (101) 
3.961582

>  <HallKierAlpha>  (101) 
-1.51

>  <Ipc>  (101) 
807942.564302

>  <Kappa1>  (101) 
20.230095

>  <Kappa2>  (101) 
7.144568

>  <Kappa3>  (101) 
4.329348

>  <LabuteASA>  (101) 
149.760939

>  <PEOE_VSA1>  (101) 
44.452615

>  <PEOE_VSA10>  (101) 
30.15592

>  <PEOE_VSA11>  (101) 
17.692941

>  <PEOE_VSA12>  (101) 
0.0

>  <PEOE_VSA13>  (101) 
7.822697

>  <PEOE_VSA14>  (101) 
0.0

>  <PEOE_VSA2>  (101) 
13.442779

>  <PEOE_VSA3>  (101) 
14.951936

>  <PEOE_VSA4>  (101) 
0.0

>  <PEOE_VSA5>  (101) 
0.0

>  <PEOE_VSA6>  (101) 
0.0

>  <PEOE_VSA7>  (101) 
0.0

>  <PEOE_VSA8>  (101) 
0.0

>  <PEOE_VSA9>  (101) 
20.756899

>  <SMR_VSA1>  (101) 
47.594628

>  <SMR_VSA10>  (101) 
32.627135

>  <SMR_VSA2>  (101) 
0.0

>  <SMR_VSA3>  (101) 
19.519035

>  <SMR_VSA4>  (101) 
0.0

>  <SMR_VSA5>  (101) 
24.5398

>  <SMR_VSA6>  (101) 
12.340549

>  <SMR_VSA7>  (101) 
12.65464

>  <SMR_VSA8>  (101) 
0.0

>  <SMR_VSA9>  (101) 
0.0

>  <SlogP_VSA1>  (101) 
20.413902

>  <SlogP_VSA10>  (101) 
5.817863

>  <SlogP_VSA11>  (101) 
0.0

>  <SlogP_VSA12>  (101) 
15.645394

>  <SlogP_VSA2>  (101) 
54.650871

>  <SlogP_VSA3>  (101) 
22.701338

>  <SlogP_VSA4>  (101) 
0.0

>  <SlogP_VSA5>  (101) 
6.227901

>  <SlogP_VSA6>  (101) 
12.65464

>  <SlogP_VSA7>  (101) 
0.0

>  <SlogP_VSA8>  (101) 
11.163878

>  <SlogP_VSA9>  (101) 
0.0

>  <EState_VSA1>  (101) 
46.792077

>  <EState_VSA10>  (101) 
34.023386

>  <EState_VSA11>  (101) 
0.0

>  <EState_VSA2>  (101) 
16.981741

>  <EState_VSA3>  (101) 
0.0

>  <EState_VSA4>  (101) 
6.32732

>  <EState_VSA5>  (101) 
10.89442

>  <EState_VSA6>  (101) 
0.0

>  <EState_VSA7>  (101) 
0.0

>  <EState_VSA8>  (101) 
23.786314

>  <EState_VSA9>  (101) 
10.47053

>  <VSA_EState1>  (101) 
35.749107

>  <VSA_EState10>  (101) 
0.0

>  <VSA_EState2>  (101) 
43.665953

>  <VSA_EState3>  (101) 
20.193372

>  <VSA_EState4>  (101) 
6.037581

>  <VSA_EState5>  (101) 
0.065524

>  <VSA_EState6>  (101) 
0.0

>  <VSA_EState7>  (101) 
-3.478964

>  <VSA_EState8>  (101) 
-0.931293

>  <VSA_EState9>  (101) 
-11.356836

>  <FractionCSP3>  (101) 
0.5

>  <HeavyAtomCount>  (101) 
27

>  <NHOHCount>  (101) 
4

>  <NOCount>  (101) 
15

>  <NumAliphaticCarbocycles>  (101) 
0

>  <NumAliphaticHeterocycles>  (101) 
1

>  <NumAliphaticRings>  (101) 
1

>  <NumAromaticCarbocycles>  (101) 
0

>  <NumAromaticHeterocycles>  (101) 
2

>  <NAR>  (101) 
2

>  <NumHAcceptors>  (101) 
15

>  <NumHDonors>  (101) 
3

>  <NumHeteroatoms>  (101) 
17

>  <NumRotatableBonds>  (101) 
6

>  <NumSaturatedCarbocycles>  (101) 
0

>  <NumSaturatedHeterocycles>  (101) 
1

>  <NumSaturatedRings>  (101) 
1

>  <RingCount>  (101) 
3

>  <MolLogP>  (101) 
-3.642

>  <MolMR>  (101) 
77.909

>  <fr_Al_COO>  (101) 
0

>  <fr_Al_OH>  (101) 
2

>  <fr_Al_OH_noTert>  (101) 
2

>  <fr_ArN>  (101) 
1

>  <fr_Ar_COO>  (101) 
0

>  <fr_Ar_N>  (101) 
4

>  <fr_Ar_NH>  (101) 
0

>  <fr_Ar_OH>  (101) 
0

>  <fr_COO>  (101) 
0

>  <fr_COO2>  (101) 
0

>  <fr_C_O>  (101) 
0

>  <fr_C_O_noCOO>  (101) 
0

>  <fr_C_S>  (101) 
0

>  <fr_HOCCN>  (101) 
0

>  <fr_Imine>  (101) 
0

>  <fr_NH0>  (101) 
4

>  <fr_NH1>  (101) 
0

>  <fr_NH2>  (101) 
1

>  <fr_N_O>  (101) 
0

>  <fr_Ndealkylation1>  (101) 
0

>  <fr_Ndealkylation2>  (101) 
0

>  <fr_Nhpyrrole>  (101) 
0

>  <fr_SH>  (101) 
0

>  <fr_aldehyde>  (101) 
0

>  <fr_alkyl_carbamate>  (101) 
0

>  <fr_alkyl_halide>  (101) 
0

>  <fr_allylic_oxid>  (101) 
0

>  <fr_amide>  (101) 
0

>  <fr_amidine>  (101) 
0

>  <fr_aniline>  (101) 
1

>  <fr_aryl_methyl>  (101) 
0

>  <fr_azide>  (101) 
0

>  <fr_azo>  (101) 
0

>  <fr_barbitur>  (101) 
0

>  <fr_benzene>  (101) 
0

>  <fr_benzodiazepine>  (101) 
0

>  <fr_bicyclic>  (101) 
1

>  <fr_diazo>  (101) 
0

>  <fr_dihydropyridine>  (101) 
0

>  <fr_epoxide>  (101) 
0

>  <fr_ester>  (101) 
0

>  <fr_ether>  (101) 
1

>  <fr_furan>  (101) 
0

>  <fr_guanido>  (101) 
0

>  <fr_halogen>  (101) 
0

>  <fr_hdrzine>  (101) 
0

>  <fr_hdrzone>  (101) 
0

>  <fr_imidazole>  (101) 
1

>  <fr_imide>  (101) 
0

>  <fr_isocyan>  (101) 
0

>  <fr_isothiocyan>  (101) 
0

>  <fr_ketone>  (101) 
0

>  <fr_ketone_Topliss>  (101) 
0

>  <fr_lactam>  (101) 
0

>  <fr_lactone>  (101) 
0

>  <fr_methoxy>  (101) 
0

>  <fr_morpholine>  (101) 
0

>  <fr_nitrile>  (101) 
0

>  <fr_nitro>  (101) 
0

>  <fr_nitro_arom>  (101) 
0

>  <fr_nitro_arom_nonortho>  (101) 
0

>  <fr_nitroso>  (101) 
0

>  <fr_oxazole>  (101) 
0

>  <fr_oxime>  (101) 
0

>  <fr_para_hydroxylation>  (101) 
0

>  <fr_phenol>  (101) 
0

>  <fr_phenol_noOrthoHbond>  (101) 
0

>  <fr_phos_acid>  (101) 
2

>  <fr_phos_ester>  (101) 
1

>  <fr_piperdine>  (101) 
0

>  <fr_piperzine>  (101) 
0

>  <fr_priamide>  (101) 
0

>  <fr_prisulfonamd>  (101) 
0

>  <fr_pyridine>  (101) 
0

>  <fr_quatN>  (101) 
0

>  <fr_sulfide>  (101) 
0

>  <fr_sulfonamd>  (101) 
0

>  <fr_sulfone>  (101) 
0

>  <fr_term_acetylene>  (101) 
0

>  <fr_tetrazole>  (101) 
0

>  <fr_thiazole>  (101) 
0

>  <fr_thiocyan>  (101) 
0

>  <fr_thiophene>  (101) 
0

>  <fr_unbrch_alkane>  (101) 
0

>  <fr_urea>  (101) 
0

>  <NP-Likeness>  (101) 
0.931308

$$$$
ADP
     RDKit          3D

  0  0  0  0  0  0  0  0  0  0999 V3000
M  V30 BEGIN CTAB
M  V30 COUNTS 39 41 0 0 0
M  V30 BEGIN ATOM
M  V30 1 O -1.717774 -0.034959 3.559082 0
M  V30 2 C -0.759199 -0.272865 2.585384 0 CFG=1
M  V30 3 C 0.643594 -0.069815 3.073638 0 CFG=1
M  V30 4 O 0.644694 -0.511894 4.415048 0
M  V30 5 C 1.404472 -1.003986 2.179438 0 CFG=2
M  V30 6 N 2.259305 -0.335498 1.220754 0
M  V30 7 C 3.407023 -0.884949 0.746764 0
M  V30 8 N 3.977040 -0.026214 -0.124551 0
M  V30 9 C 3.201225 1.059903 -0.205780 0
M  V30 10 C 2.117438 0.885630 0.631299 0
M  V30 11 N 1.172844 1.803400 0.759782 0
M  V30 12 C 1.186206 2.972749 0.093562 0
M  V30 13 N 2.236504 3.194793 -0.747525 0
M  V30 14 C 3.208254 2.262079 -0.886130 0
M  V30 15 N 4.291340 2.525317 -1.772728 0
M  V30 16 O 0.506723 -1.861257 1.596420 0
M  V30 17 C -0.690569 -1.769661 2.253343 0 CFG=2
M  V30 18 C -1.901948 -2.114247 1.424313 0
M  V30 19 O -2.047234 -1.303298 0.326420 0
M  V30 20 P -3.388360 -1.653880 -0.627909 0 CFG=1 VAL=5
M  V30 21 O -4.298734 -2.682784 0.033025 0
M  V30 22 O -4.313191 -0.237643 -0.847801 0 CHG=-1 VAL=1
M  V30 23 O -2.865398 -2.162845 -2.150798 0
M  V30 24 P -2.660432 -3.847963 -2.090819 0
M  V30 25 O -3.625383 -4.486098 -1.122570 0
M  V30 26 O -3.078664 -4.427175 -3.633317 0 CHG=-1 VAL=1
M  V30 27 O -1.068445 -4.208177 -1.684313 0 CHG=-1 VAL=1
M  V30 28 H -1.722699 0.935829 3.717851 0
M  V30 29 H -1.027595 0.251078 1.667040 0
M  V30 30 H 0.998391 0.973799 3.021783 0
M  V30 31 H 1.547358 -0.509045 4.796058 0
M  V30 32 H 2.058534 -1.608915 2.866401 0
M  V30 33 H 3.805364 -1.858009 1.021901 0
M  V30 34 H 0.358645 3.620646 0.293881 0
M  V30 35 H 4.863229 3.184411 -1.184479 0
M  V30 36 H 5.184065 3.023931 -1.931429 0
M  V30 37 H -0.658288 -2.302573 3.201667 0
M  V30 38 H -1.874987 -3.192151 1.192057 0
M  V30 39 H -2.786382 -1.968468 2.079350 0
M  V30 END ATOM
M  V30 BEGIN BOND
M  V30 1 1 1 2
M  V30 2 1 2 3
M  V30 3 1 3 4
M  V30 4 1 3 5
M  V30 5 1 5 6
M  V30 6 1 6 7
M  V30 7 2 7 8
M  V30 8 1 8 9
M  V30 9 2 9 10
M  V30 10 1 10 11
M  V30 11 2 11 12
M  V30 12 1 12 13
M  V30 13 2 13 14
M  V30 14 1 14 15
M  V30 15 1 5 16
M  V30 16 1 16 17
M  V30 17 1 17 18
M  V30 18 1 18 19
M  V30 19 1 19 20
M  V30 20 2 20 21
M  V30 21 1 20 22 CFG=3
M  V30 22 1 20 23
M  V30 23 1 23 24
M  V30 24 2 24 25
M  V30 25 1 24 26
M  V30 26 1 24 27
M  V30 27 1 17 2
M  V30 28 1 10 6
M  V30 29 1 14 9
M  V30 30 1 1 28
M  V30 31 1 2 29 CFG=3
M  V30 32 1 3 30 CFG=1
M  V30 33 1 4 31
M  V30 34 1 5 32 CFG=1
M  V30 35 1 7 33
M  V30 36 1 12 34
M  V30 37 1 15 35
M  V30 38 1 15 36
M  V30 39 1 17 37 CFG=1
M  V30 40 1 18 38
M  V30 41 1 18 39
M  V30 END BOND
M  V30 END CTAB
M  END
>  <Dataset>  (102) 
PDB

>  <Ligand_Instance>  (102) 
6E21_ADP_A_403

>  <PDB_ID>  (102) 
6000000000000000000000.0

>  <Standardized_SMILES>  (102) 
[H]O[C@@]1([H])[C@@]([H])(O[H])[C@]([H])(N2C([H])=NC3=C2N=C([H])N=C3N([H])[H])O[C@]1([H])C([H])([H])O[P@@](=O)([O-])OP(=O)([O-])[O-]

>  <Name>  (102) 
ADENOSINE-5'-DIPHOSPHATE

>  <Pocket>  (102) 
A

>  <ATP_Site>  (102) 
1.0

>  <Peripheral>  (102) 
0.0

>  <Num_H_Atoms_ProtBoundConf>  (102) 
12.0

>  <Num_Resolved_Atoms>  (102) 
27.0

>  <Num_Not_Resolved_Atoms>  (102) 
0.0

>  <2D_Mol_H>  (102) 
<rdkit.Chem.rdchem.Mol object at 0x72a238da4120>

>  <MW>  (102) 
424.179

>  <HBA>  (102) 
15

>  <HBD>  (102) 
3

>  <LogP>  (102) 
-3.642

>  <NRB>  (102) 
9

>  <TPSA>  (102) 
241.09

>  <Num_Heavy_Atoms>  (102) 
27

>  <Ro5>  (102) 
[True, False, True, True, True, False]

>  <Ro5_Fulfilled>  (102) 
False

>  <Ro3>  (102) 
[False, False, True, True]

>  <Ro3_Fulfilled>  (102) 
False

>  <Fsp3>  (102) 
0.5

>  <Fsp3_0.42>  (102) 
True

>  <Fsp3_0.45>  (102) 
True

>  <Stereogenic_Carbons>  (102) 
4

>  <C_Atoms>  (102) 
10

>  <FCStereo>  (102) 
0.4

>  <SPS>  (102) 
769

>  <nSPS>  (102) 
28.481481

>  <PBF>  (102) 
1.15283

>  <PBF_0.6>  (102) 
True

>  <nPBF>  (102) 
0.042697

>  <nPBF_0.016>  (102) 
True

>  <PMI1>  (102) 
2102.319253

>  <PMI2>  (102) 
5166.999745

>  <PMI3>  (102) 
5841.477038

>  <NPR1>  (102) 
0.359895

>  <NPR2>  (102) 
0.884537

>  <Sum_NPR>  (102) 
1.244432

>  <Sum_NPR_1.07>  (102) 
True

>  <Sum_NPR_1.2>  (102) 
True

>  <MaxAbsEStateIndex>  (102) 
11.278955

>  <MaxEStateIndex>  (102) 
11.278955

>  <MinAbsEStateIndex>  (102) 
0.065524

>  <MinEStateIndex>  (102) 
-5.851432

>  <qed>  (102) 
0.378904

>  <MolWt>  (102) 
424.179

>  <HeavyAtomMolWt>  (102) 
412.083

>  <ExactMolWt>  (102) 
424.007586

>  <NumValenceElectrons>  (102) 
150

>  <NumRadicalElectrons>  (102) 
0

>  <MaxPartialCharge>  (102) 
0.271368

>  <MinPartialCharge>  (102) 
-0.789509

>  <MaxAbsPartialCharge>  (102) 
0.789509

>  <MinAbsPartialCharge>  (102) 
0.271368

>  <FpDensityMorgan1>  (102) 
1.222222

>  <FpDensityMorgan2>  (102) 
1.925926

>  <FpDensityMorgan3>  (102) 
2.592593

>  <BCUT2D_MWHI>  (102) 
31.27025

>  <BCUT2D_MWLOW>  (102) 
10.128388

>  <BCUT2D_CHGHI>  (102) 
2.444842

>  <BCUT2D_CHGLO>  (102) 
-2.350424

>  <BCUT2D_LOGPHI>  (102) 
2.503664

>  <BCUT2D_LOGPLOW>  (102) 
-2.337741

>  <BCUT2D_MRHI>  (102) 
7.580921

>  <BCUT2D_MRLOW>  (102) 
-0.339423

>  <AvgIpc>  (102) 
3.072773

>  <BalabanJ>  (102) 
1.748652

>  <BertzCT>  (102) 
932.232873

>  <Chi0>  (102) 
19.982763

>  <Chi0n>  (102) 
13.092254

>  <Chi0v>  (102) 
14.881108

>  <Chi1>  (102) 
12.483782

>  <Chi1n>  (102) 
7.119416

>  <Chi1v>  (102) 
10.040603

>  <Chi2n>  (102) 
5.401088

>  <Chi2v>  (102) 
8.101339

>  <Chi3n>  (102) 
3.595354

>  <Chi3v>  (102) 
5.660653

>  <Chi4n>  (102) 
2.463726

>  <Chi4v>  (102) 
3.961582

>  <HallKierAlpha>  (102) 
-1.51

>  <Ipc>  (102) 
807942.564302

>  <Kappa1>  (102) 
20.230095

>  <Kappa2>  (102) 
7.144568

>  <Kappa3>  (102) 
4.329348

>  <LabuteASA>  (102) 
149.760939

>  <PEOE_VSA1>  (102) 
44.452615

>  <PEOE_VSA10>  (102) 
30.15592

>  <PEOE_VSA11>  (102) 
17.692941

>  <PEOE_VSA12>  (102) 
0.0

>  <PEOE_VSA13>  (102) 
7.822697

>  <PEOE_VSA14>  (102) 
0.0

>  <PEOE_VSA2>  (102) 
13.442779

>  <PEOE_VSA3>  (102) 
14.951936

>  <PEOE_VSA4>  (102) 
0.0

>  <PEOE_VSA5>  (102) 
0.0

>  <PEOE_VSA6>  (102) 
0.0

>  <PEOE_VSA7>  (102) 
0.0

>  <PEOE_VSA8>  (102) 
0.0

>  <PEOE_VSA9>  (102) 
20.756899

>  <SMR_VSA1>  (102) 
47.594628

>  <SMR_VSA10>  (102) 
32.627135

>  <SMR_VSA2>  (102) 
0.0

>  <SMR_VSA3>  (102) 
19.519035

>  <SMR_VSA4>  (102) 
0.0

>  <SMR_VSA5>  (102) 
24.5398

>  <SMR_VSA6>  (102) 
12.340549

>  <SMR_VSA7>  (102) 
12.65464

>  <SMR_VSA8>  (102) 
0.0

>  <SMR_VSA9>  (102) 
0.0

>  <SlogP_VSA1>  (102) 
20.413902

>  <SlogP_VSA10>  (102) 
5.817863

>  <SlogP_VSA11>  (102) 
0.0

>  <SlogP_VSA12>  (102) 
15.645394

>  <SlogP_VSA2>  (102) 
54.650871

>  <SlogP_VSA3>  (102) 
22.701338

>  <SlogP_VSA4>  (102) 
0.0

>  <SlogP_VSA5>  (102) 
6.227901

>  <SlogP_VSA6>  (102) 
12.65464

>  <SlogP_VSA7>  (102) 
0.0

>  <SlogP_VSA8>  (102) 
11.163878

>  <SlogP_VSA9>  (102) 
0.0

>  <EState_VSA1>  (102) 
46.792077

>  <EState_VSA10>  (102) 
34.023386

>  <EState_VSA11>  (102) 
0.0

>  <EState_VSA2>  (102) 
16.981741

>  <EState_VSA3>  (102) 
0.0

>  <EState_VSA4>  (102) 
6.32732

>  <EState_VSA5>  (102) 
10.89442

>  <EState_VSA6>  (102) 
0.0

>  <EState_VSA7>  (102) 
0.0

>  <EState_VSA8>  (102) 
23.786314

>  <EState_VSA9>  (102) 
10.47053

>  <VSA_EState1>  (102) 
35.749107

>  <VSA_EState10>  (102) 
0.0

>  <VSA_EState2>  (102) 
43.665953

>  <VSA_EState3>  (102) 
20.193372

>  <VSA_EState4>  (102) 
6.037581

>  <VSA_EState5>  (102) 
0.065524

>  <VSA_EState6>  (102) 
0.0

>  <VSA_EState7>  (102) 
-3.478964

>  <VSA_EState8>  (102) 
-0.931293

>  <VSA_EState9>  (102) 
-11.356836

>  <FractionCSP3>  (102) 
0.5

>  <HeavyAtomCount>  (102) 
27

>  <NHOHCount>  (102) 
4

>  <NOCount>  (102) 
15

>  <NumAliphaticCarbocycles>  (102) 
0

>  <NumAliphaticHeterocycles>  (102) 
1

>  <NumAliphaticRings>  (102) 
1

>  <NumAromaticCarbocycles>  (102) 
0

>  <NumAromaticHeterocycles>  (102) 
2

>  <NAR>  (102) 
2

>  <NumHAcceptors>  (102) 
15

>  <NumHDonors>  (102) 
3

>  <NumHeteroatoms>  (102) 
17

>  <NumRotatableBonds>  (102) 
6

>  <NumSaturatedCarbocycles>  (102) 
0

>  <NumSaturatedHeterocycles>  (102) 
1

>  <NumSaturatedRings>  (102) 
1

>  <RingCount>  (102) 
3

>  <MolLogP>  (102) 
-3.642

>  <MolMR>  (102) 
77.909

>  <fr_Al_COO>  (102) 
0

>  <fr_Al_OH>  (102) 
2

>  <fr_Al_OH_noTert>  (102) 
2

>  <fr_ArN>  (102) 
1

>  <fr_Ar_COO>  (102) 
0

>  <fr_Ar_N>  (102) 
4

>  <fr_Ar_NH>  (102) 
0

>  <fr_Ar_OH>  (102) 
0

>  <fr_COO>  (102) 
0

>  <fr_COO2>  (102) 
0

>  <fr_C_O>  (102) 
0

>  <fr_C_O_noCOO>  (102) 
0

>  <fr_C_S>  (102) 
0

>  <fr_HOCCN>  (102) 
0

>  <fr_Imine>  (102) 
0

>  <fr_NH0>  (102) 
4

>  <fr_NH1>  (102) 
0

>  <fr_NH2>  (102) 
1

>  <fr_N_O>  (102) 
0

>  <fr_Ndealkylation1>  (102) 
0

>  <fr_Ndealkylation2>  (102) 
0

>  <fr_Nhpyrrole>  (102) 
0

>  <fr_SH>  (102) 
0

>  <fr_aldehyde>  (102) 
0

>  <fr_alkyl_carbamate>  (102) 
0

>  <fr_alkyl_halide>  (102) 
0

>  <fr_allylic_oxid>  (102) 
0

>  <fr_amide>  (102) 
0

>  <fr_amidine>  (102) 
0

>  <fr_aniline>  (102) 
1

>  <fr_aryl_methyl>  (102) 
0

>  <fr_azide>  (102) 
0

>  <fr_azo>  (102) 
0

>  <fr_barbitur>  (102) 
0

>  <fr_benzene>  (102) 
0

>  <fr_benzodiazepine>  (102) 
0

>  <fr_bicyclic>  (102) 
1

>  <fr_diazo>  (102) 
0

>  <fr_dihydropyridine>  (102) 
0

>  <fr_epoxide>  (102) 
0

>  <fr_ester>  (102) 
0

>  <fr_ether>  (102) 
1

>  <fr_furan>  (102) 
0

>  <fr_guanido>  (102) 
0

>  <fr_halogen>  (102) 
0

>  <fr_hdrzine>  (102) 
0

>  <fr_hdrzone>  (102) 
0

>  <fr_imidazole>  (102) 
1

>  <fr_imide>  (102) 
0

>  <fr_isocyan>  (102) 
0

>  <fr_isothiocyan>  (102) 
0

>  <fr_ketone>  (102) 
0

>  <fr_ketone_Topliss>  (102) 
0

>  <fr_lactam>  (102) 
0

>  <fr_lactone>  (102) 
0

>  <fr_methoxy>  (102) 
0

>  <fr_morpholine>  (102) 
0

>  <fr_nitrile>  (102) 
0

>  <fr_nitro>  (102) 
0

>  <fr_nitro_arom>  (102) 
0

>  <fr_nitro_arom_nonortho>  (102) 
0

>  <fr_nitroso>  (102) 
0

>  <fr_oxazole>  (102) 
0

>  <fr_oxime>  (102) 
0

>  <fr_para_hydroxylation>  (102) 
0

>  <fr_phenol>  (102) 
0

>  <fr_phenol_noOrthoHbond>  (102) 
0

>  <fr_phos_acid>  (102) 
2

>  <fr_phos_ester>  (102) 
1

>  <fr_piperdine>  (102) 
0

>  <fr_piperzine>  (102) 
0

>  <fr_priamide>  (102) 
0

>  <fr_prisulfonamd>  (102) 
0

>  <fr_pyridine>  (102) 
0

>  <fr_quatN>  (102) 
0

>  <fr_sulfide>  (102) 
0

>  <fr_sulfonamd>  (102) 
0

>  <fr_sulfone>  (102) 
0

>  <fr_term_acetylene>  (102) 
0

>  <fr_tetrazole>  (102) 
0

>  <fr_thiazole>  (102) 
0

>  <fr_thiocyan>  (102) 
0

>  <fr_thiophene>  (102) 
0

>  <fr_unbrch_alkane>  (102) 
0

>  <fr_urea>  (102) 
0

>  <NP-Likeness>  (102) 
0.931308

$$$$
ADP
     RDKit          3D

  0  0  0  0  0  0  0  0  0  0999 V3000
M  V30 BEGIN CTAB
M  V30 COUNTS 39 41 0 0 0
M  V30 BEGIN ATOM
M  V30 1 O -1.717774 -0.034959 3.559082 0
M  V30 2 C -0.759199 -0.272865 2.585384 0 CFG=1
M  V30 3 C 0.643594 -0.069815 3.073638 0 CFG=1
M  V30 4 O 0.644694 -0.511894 4.415048 0
M  V30 5 C 1.404472 -1.003986 2.179438 0 CFG=2
M  V30 6 N 2.259305 -0.335498 1.220754 0
M  V30 7 C 3.407023 -0.884949 0.746764 0
M  V30 8 N 3.977040 -0.026214 -0.124551 0
M  V30 9 C 3.201225 1.059903 -0.205780 0
M  V30 10 C 2.117438 0.885630 0.631299 0
M  V30 11 N 1.172844 1.803400 0.759782 0
M  V30 12 C 1.186206 2.972749 0.093562 0
M  V30 13 N 2.236504 3.194793 -0.747525 0
M  V30 14 C 3.208254 2.262079 -0.886130 0
M  V30 15 N 4.291340 2.525317 -1.772728 0
M  V30 16 O 0.506723 -1.861257 1.596420 0
M  V30 17 C -0.690569 -1.769661 2.253343 0 CFG=2
M  V30 18 C -1.901948 -2.114247 1.424313 0
M  V30 19 O -2.047234 -1.303298 0.326420 0
M  V30 20 P -3.388360 -1.653880 -0.627909 0 CFG=1 VAL=5
M  V30 21 O -4.298734 -2.682784 0.033025 0
M  V30 22 O -4.313191 -0.237643 -0.847801 0 CHG=-1 VAL=1
M  V30 23 O -2.865398 -2.162845 -2.150798 0
M  V30 24 P -2.660432 -3.847963 -2.090819 0
M  V30 25 O -3.625383 -4.486098 -1.122570 0
M  V30 26 O -3.078664 -4.427175 -3.633317 0 CHG=-1 VAL=1
M  V30 27 O -1.068445 -4.208177 -1.684313 0 CHG=-1 VAL=1
M  V30 28 H -1.722699 0.935829 3.717851 0
M  V30 29 H -1.027595 0.251078 1.667040 0
M  V30 30 H 0.998391 0.973799 3.021783 0
M  V30 31 H 1.547358 -0.509045 4.796058 0
M  V30 32 H 2.058534 -1.608915 2.866401 0
M  V30 33 H 3.805364 -1.858009 1.021901 0
M  V30 34 H 0.358645 3.620646 0.293881 0
M  V30 35 H 4.863229 3.184411 -1.184479 0
M  V30 36 H 5.184065 3.023931 -1.931429 0
M  V30 37 H -0.658288 -2.302573 3.201667 0
M  V30 38 H -1.874987 -3.192151 1.192057 0
M  V30 39 H -2.786382 -1.968468 2.079350 0
M  V30 END ATOM
M  V30 BEGIN BOND
M  V30 1 1 1 2
M  V30 2 1 2 3
M  V30 3 1 3 4
M  V30 4 1 3 5
M  V30 5 1 5 6
M  V30 6 1 6 7
M  V30 7 2 7 8
M  V30 8 1 8 9
M  V30 9 2 9 10
M  V30 10 1 10 11
M  V30 11 2 11 12
M  V30 12 1 12 13
M  V30 13 2 13 14
M  V30 14 1 14 15
M  V30 15 1 5 16
M  V30 16 1 16 17
M  V30 17 1 17 18
M  V30 18 1 18 19
M  V30 19 1 19 20
M  V30 20 2 20 21
M  V30 21 1 20 22 CFG=3
M  V30 22 1 20 23
M  V30 23 1 23 24
M  V30 24 2 24 25
M  V30 25 1 24 26
M  V30 26 1 24 27
M  V30 27 1 17 2
M  V30 28 1 10 6
M  V30 29 1 14 9
M  V30 30 1 1 28
M  V30 31 1 2 29 CFG=3
M  V30 32 1 3 30 CFG=1
M  V30 33 1 4 31
M  V30 34 1 5 32 CFG=1
M  V30 35 1 7 33
M  V30 36 1 12 34
M  V30 37 1 15 35
M  V30 38 1 15 36
M  V30 39 1 17 37 CFG=1
M  V30 40 1 18 38
M  V30 41 1 18 39
M  V30 END BOND
M  V30 END CTAB
M  END
>  <Dataset>  (103) 
PDB

>  <Ligand_Instance>  (103) 
6EM6_ADP_A_401

>  <PDB_ID>  (103) 
6EM6

>  <Standardized_SMILES>  (103) 
[H]O[C@@]1([H])[C@@]([H])(O[H])[C@]([H])(N2C([H])=NC3=C2N=C([H])N=C3N([H])[H])O[C@]1([H])C([H])([H])O[P@@](=O)([O-])OP(=O)([O-])[O-]

>  <Name>  (103) 
ADENOSINE-5'-DIPHOSPHATE

>  <Pocket>  (103) 
A

>  <ATP_Site>  (103) 
1.0

>  <Peripheral>  (103) 
0.0

>  <Num_H_Atoms_ProtBoundConf>  (103) 
12.0

>  <Num_Resolved_Atoms>  (103) 
27.0

>  <Num_Not_Resolved_Atoms>  (103) 
0.0

>  <2D_Mol_H>  (103) 
<rdkit.Chem.rdchem.Mol object at 0x72a238da4200>

>  <MW>  (103) 
424.179

>  <HBA>  (103) 
15

>  <HBD>  (103) 
3

>  <LogP>  (103) 
-3.642

>  <NRB>  (103) 
9

>  <TPSA>  (103) 
241.09

>  <Num_Heavy_Atoms>  (103) 
27

>  <Ro5>  (103) 
[True, False, True, True, True, False]

>  <Ro5_Fulfilled>  (103) 
False

>  <Ro3>  (103) 
[False, False, True, True]

>  <Ro3_Fulfilled>  (103) 
False

>  <Fsp3>  (103) 
0.5

>  <Fsp3_0.42>  (103) 
True

>  <Fsp3_0.45>  (103) 
True

>  <Stereogenic_Carbons>  (103) 
4

>  <C_Atoms>  (103) 
10

>  <FCStereo>  (103) 
0.4

>  <SPS>  (103) 
769

>  <nSPS>  (103) 
28.481481

>  <PBF>  (103) 
1.15283

>  <PBF_0.6>  (103) 
True

>  <nPBF>  (103) 
0.042697

>  <nPBF_0.016>  (103) 
True

>  <PMI1>  (103) 
2102.319253

>  <PMI2>  (103) 
5166.999745

>  <PMI3>  (103) 
5841.477038

>  <NPR1>  (103) 
0.359895

>  <NPR2>  (103) 
0.884537

>  <Sum_NPR>  (103) 
1.244432

>  <Sum_NPR_1.07>  (103) 
True

>  <Sum_NPR_1.2>  (103) 
True

>  <MaxAbsEStateIndex>  (103) 
11.278955

>  <MaxEStateIndex>  (103) 
11.278955

>  <MinAbsEStateIndex>  (103) 
0.065524

>  <MinEStateIndex>  (103) 
-5.851432

>  <qed>  (103) 
0.378904

>  <MolWt>  (103) 
424.179

>  <HeavyAtomMolWt>  (103) 
412.083

>  <ExactMolWt>  (103) 
424.007586

>  <NumValenceElectrons>  (103) 
150

>  <NumRadicalElectrons>  (103) 
0

>  <MaxPartialCharge>  (103) 
0.271368

>  <MinPartialCharge>  (103) 
-0.789509

>  <MaxAbsPartialCharge>  (103) 
0.789509

>  <MinAbsPartialCharge>  (103) 
0.271368

>  <FpDensityMorgan1>  (103) 
1.222222

>  <FpDensityMorgan2>  (103) 
1.925926

>  <FpDensityMorgan3>  (103) 
2.592593

>  <BCUT2D_MWHI>  (103) 
31.27025

>  <BCUT2D_MWLOW>  (103) 
10.128388

>  <BCUT2D_CHGHI>  (103) 
2.444842

>  <BCUT2D_CHGLO>  (103) 
-2.350424

>  <BCUT2D_LOGPHI>  (103) 
2.503664

>  <BCUT2D_LOGPLOW>  (103) 
-2.337741

>  <BCUT2D_MRHI>  (103) 
7.580921

>  <BCUT2D_MRLOW>  (103) 
-0.339423

>  <AvgIpc>  (103) 
3.072773

>  <BalabanJ>  (103) 
1.748652

>  <BertzCT>  (103) 
932.232873

>  <Chi0>  (103) 
19.982763

>  <Chi0n>  (103) 
13.092254

>  <Chi0v>  (103) 
14.881108

>  <Chi1>  (103) 
12.483782

>  <Chi1n>  (103) 
7.119416

>  <Chi1v>  (103) 
10.040603

>  <Chi2n>  (103) 
5.401088

>  <Chi2v>  (103) 
8.101339

>  <Chi3n>  (103) 
3.595354

>  <Chi3v>  (103) 
5.660653

>  <Chi4n>  (103) 
2.463726

>  <Chi4v>  (103) 
3.961582

>  <HallKierAlpha>  (103) 
-1.51

>  <Ipc>  (103) 
807942.564302

>  <Kappa1>  (103) 
20.230095

>  <Kappa2>  (103) 
7.144568

>  <Kappa3>  (103) 
4.329348

>  <LabuteASA>  (103) 
149.760939

>  <PEOE_VSA1>  (103) 
44.452615

>  <PEOE_VSA10>  (103) 
30.15592

>  <PEOE_VSA11>  (103) 
17.692941

>  <PEOE_VSA12>  (103) 
0.0

>  <PEOE_VSA13>  (103) 
7.822697

>  <PEOE_VSA14>  (103) 
0.0

>  <PEOE_VSA2>  (103) 
13.442779

>  <PEOE_VSA3>  (103) 
14.951936

>  <PEOE_VSA4>  (103) 
0.0

>  <PEOE_VSA5>  (103) 
0.0

>  <PEOE_VSA6>  (103) 
0.0

>  <PEOE_VSA7>  (103) 
0.0

>  <PEOE_VSA8>  (103) 
0.0

>  <PEOE_VSA9>  (103) 
20.756899

>  <SMR_VSA1>  (103) 
47.594628

>  <SMR_VSA10>  (103) 
32.627135

>  <SMR_VSA2>  (103) 
0.0

>  <SMR_VSA3>  (103) 
19.519035

>  <SMR_VSA4>  (103) 
0.0

>  <SMR_VSA5>  (103) 
24.5398

>  <SMR_VSA6>  (103) 
12.340549

>  <SMR_VSA7>  (103) 
12.65464

>  <SMR_VSA8>  (103) 
0.0

>  <SMR_VSA9>  (103) 
0.0

>  <SlogP_VSA1>  (103) 
20.413902

>  <SlogP_VSA10>  (103) 
5.817863

>  <SlogP_VSA11>  (103) 
0.0

>  <SlogP_VSA12>  (103) 
15.645394

>  <SlogP_VSA2>  (103) 
54.650871

>  <SlogP_VSA3>  (103) 
22.701338

>  <SlogP_VSA4>  (103) 
0.0

>  <SlogP_VSA5>  (103) 
6.227901

>  <SlogP_VSA6>  (103) 
12.65464

>  <SlogP_VSA7>  (103) 
0.0

>  <SlogP_VSA8>  (103) 
11.163878

>  <SlogP_VSA9>  (103) 
0.0

>  <EState_VSA1>  (103) 
46.792077

>  <EState_VSA10>  (103) 
34.023386

>  <EState_VSA11>  (103) 
0.0

>  <EState_VSA2>  (103) 
16.981741

>  <EState_VSA3>  (103) 
0.0

>  <EState_VSA4>  (103) 
6.32732

>  <EState_VSA5>  (103) 
10.89442

>  <EState_VSA6>  (103) 
0.0

>  <EState_VSA7>  (103) 
0.0

>  <EState_VSA8>  (103) 
23.786314

>  <EState_VSA9>  (103) 
10.47053

>  <VSA_EState1>  (103) 
35.749107

>  <VSA_EState10>  (103) 
0.0

>  <VSA_EState2>  (103) 
43.665953

>  <VSA_EState3>  (103) 
20.193372

>  <VSA_EState4>  (103) 
6.037581

>  <VSA_EState5>  (103) 
0.065524

>  <VSA_EState6>  (103) 
0.0

>  <VSA_EState7>  (103) 
-3.478964

>  <VSA_EState8>  (103) 
-0.931293

>  <VSA_EState9>  (103) 
-11.356836

>  <FractionCSP3>  (103) 
0.5

>  <HeavyAtomCount>  (103) 
27

>  <NHOHCount>  (103) 
4

>  <NOCount>  (103) 
15

>  <NumAliphaticCarbocycles>  (103) 
0

>  <NumAliphaticHeterocycles>  (103) 
1

>  <NumAliphaticRings>  (103) 
1

>  <NumAromaticCarbocycles>  (103) 
0

>  <NumAromaticHeterocycles>  (103) 
2

>  <NAR>  (103) 
2

>  <NumHAcceptors>  (103) 
15

>  <NumHDonors>  (103) 
3

>  <NumHeteroatoms>  (103) 
17

>  <NumRotatableBonds>  (103) 
6

>  <NumSaturatedCarbocycles>  (103) 
0

>  <NumSaturatedHeterocycles>  (103) 
1

>  <NumSaturatedRings>  (103) 
1

>  <RingCount>  (103) 
3

>  <MolLogP>  (103) 
-3.642

>  <MolMR>  (103) 
77.909

>  <fr_Al_COO>  (103) 
0

>  <fr_Al_OH>  (103) 
2

>  <fr_Al_OH_noTert>  (103) 
2

>  <fr_ArN>  (103) 
1

>  <fr_Ar_COO>  (103) 
0

>  <fr_Ar_N>  (103) 
4

>  <fr_Ar_NH>  (103) 
0

>  <fr_Ar_OH>  (103) 
0

>  <fr_COO>  (103) 
0

>  <fr_COO2>  (103) 
0

>  <fr_C_O>  (103) 
0

>  <fr_C_O_noCOO>  (103) 
0

>  <fr_C_S>  (103) 
0

>  <fr_HOCCN>  (103) 
0

>  <fr_Imine>  (103) 
0

>  <fr_NH0>  (103) 
4

>  <fr_NH1>  (103) 
0

>  <fr_NH2>  (103) 
1

>  <fr_N_O>  (103) 
0

>  <fr_Ndealkylation1>  (103) 
0

>  <fr_Ndealkylation2>  (103) 
0

>  <fr_Nhpyrrole>  (103) 
0

>  <fr_SH>  (103) 
0

>  <fr_aldehyde>  (103) 
0

>  <fr_alkyl_carbamate>  (103) 
0

>  <fr_alkyl_halide>  (103) 
0

>  <fr_allylic_oxid>  (103) 
0

>  <fr_amide>  (103) 
0

>  <fr_amidine>  (103) 
0

>  <fr_aniline>  (103) 
1

>  <fr_aryl_methyl>  (103) 
0

>  <fr_azide>  (103) 
0

>  <fr_azo>  (103) 
0

>  <fr_barbitur>  (103) 
0

>  <fr_benzene>  (103) 
0

>  <fr_benzodiazepine>  (103) 
0

>  <fr_bicyclic>  (103) 
1

>  <fr_diazo>  (103) 
0

>  <fr_dihydropyridine>  (103) 
0

>  <fr_epoxide>  (103) 
0

>  <fr_ester>  (103) 
0

>  <fr_ether>  (103) 
1

>  <fr_furan>  (103) 
0

>  <fr_guanido>  (103) 
0

>  <fr_halogen>  (103) 
0

>  <fr_hdrzine>  (103) 
0

>  <fr_hdrzone>  (103) 
0

>  <fr_imidazole>  (103) 
1

>  <fr_imide>  (103) 
0

>  <fr_isocyan>  (103) 
0

>  <fr_isothiocyan>  (103) 
0

>  <fr_ketone>  (103) 
0

>  <fr_ketone_Topliss>  (103) 
0

>  <fr_lactam>  (103) 
0

>  <fr_lactone>  (103) 
0

>  <fr_methoxy>  (103) 
0

>  <fr_morpholine>  (103) 
0

>  <fr_nitrile>  (103) 
0

>  <fr_nitro>  (103) 
0

>  <fr_nitro_arom>  (103) 
0

>  <fr_nitro_arom_nonortho>  (103) 
0

>  <fr_nitroso>  (103) 
0

>  <fr_oxazole>  (103) 
0

>  <fr_oxime>  (103) 
0

>  <fr_para_hydroxylation>  (103) 
0

>  <fr_phenol>  (103) 
0

>  <fr_phenol_noOrthoHbond>  (103) 
0

>  <fr_phos_acid>  (103) 
2

>  <fr_phos_ester>  (103) 
1

>  <fr_piperdine>  (103) 
0

>  <fr_piperzine>  (103) 
0

>  <fr_priamide>  (103) 
0

>  <fr_prisulfonamd>  (103) 
0

>  <fr_pyridine>  (103) 
0

>  <fr_quatN>  (103) 
0

>  <fr_sulfide>  (103) 
0

>  <fr_sulfonamd>  (103) 
0

>  <fr_sulfone>  (103) 
0

>  <fr_term_acetylene>  (103) 
0

>  <fr_tetrazole>  (103) 
0

>  <fr_thiazole>  (103) 
0

>  <fr_thiocyan>  (103) 
0

>  <fr_thiophene>  (103) 
0

>  <fr_unbrch_alkane>  (103) 
0

>  <fr_urea>  (103) 
0

>  <NP-Likeness>  (103) 
0.931308

$$$$
ADP
     RDKit          3D

  0  0  0  0  0  0  0  0  0  0999 V3000
M  V30 BEGIN CTAB
M  V30 COUNTS 39 41 0 0 0
M  V30 BEGIN ATOM
M  V30 1 O -1.717774 -0.034959 3.559082 0
M  V30 2 C -0.759199 -0.272865 2.585384 0 CFG=1
M  V30 3 C 0.643594 -0.069815 3.073638 0 CFG=1
M  V30 4 O 0.644694 -0.511894 4.415048 0
M  V30 5 C 1.404472 -1.003986 2.179438 0 CFG=2
M  V30 6 N 2.259305 -0.335498 1.220754 0
M  V30 7 C 3.407023 -0.884949 0.746764 0
M  V30 8 N 3.977040 -0.026214 -0.124551 0
M  V30 9 C 3.201225 1.059903 -0.205780 0
M  V30 10 C 2.117438 0.885630 0.631299 0
M  V30 11 N 1.172844 1.803400 0.759782 0
M  V30 12 C 1.186206 2.972749 0.093562 0
M  V30 13 N 2.236504 3.194793 -0.747525 0
M  V30 14 C 3.208254 2.262079 -0.886130 0
M  V30 15 N 4.291340 2.525317 -1.772728 0
M  V30 16 O 0.506723 -1.861257 1.596420 0
M  V30 17 C -0.690569 -1.769661 2.253343 0 CFG=2
M  V30 18 C -1.901948 -2.114247 1.424313 0
M  V30 19 O -2.047234 -1.303298 0.326420 0
M  V30 20 P -3.388360 -1.653880 -0.627909 0 CFG=1 VAL=5
M  V30 21 O -4.298734 -2.682784 0.033025 0
M  V30 22 O -4.313191 -0.237643 -0.847801 0 CHG=-1 VAL=1
M  V30 23 O -2.865398 -2.162845 -2.150798 0
M  V30 24 P -2.660432 -3.847963 -2.090819 0
M  V30 25 O -3.625383 -4.486098 -1.122570 0
M  V30 26 O -3.078664 -4.427175 -3.633317 0 CHG=-1 VAL=1
M  V30 27 O -1.068445 -4.208177 -1.684313 0 CHG=-1 VAL=1
M  V30 28 H -1.722699 0.935829 3.717851 0
M  V30 29 H -1.027595 0.251078 1.667040 0
M  V30 30 H 0.998391 0.973799 3.021783 0
M  V30 31 H 1.547358 -0.509045 4.796058 0
M  V30 32 H 2.058534 -1.608915 2.866401 0
M  V30 33 H 3.805364 -1.858009 1.021901 0
M  V30 34 H 0.358645 3.620646 0.293881 0
M  V30 35 H 4.863229 3.184411 -1.184479 0
M  V30 36 H 5.184065 3.023931 -1.931429 0
M  V30 37 H -0.658288 -2.302573 3.201667 0
M  V30 38 H -1.874987 -3.192151 1.192057 0
M  V30 39 H -2.786382 -1.968468 2.079350 0
M  V30 END ATOM
M  V30 BEGIN BOND
M  V30 1 1 1 2
M  V30 2 1 2 3
M  V30 3 1 3 4
M  V30 4 1 3 5
M  V30 5 1 5 6
M  V30 6 1 6 7
M  V30 7 2 7 8
M  V30 8 1 8 9
M  V30 9 2 9 10
M  V30 10 1 10 11
M  V30 11 2 11 12
M  V30 12 1 12 13
M  V30 13 2 13 14
M  V30 14 1 14 15
M  V30 15 1 5 16
M  V30 16 1 16 17
M  V30 17 1 17 18
M  V30 18 1 18 19
M  V30 19 1 19 20
M  V30 20 2 20 21
M  V30 21 1 20 22 CFG=3
M  V30 22 1 20 23
M  V30 23 1 23 24
M  V30 24 2 24 25
M  V30 25 1 24 26
M  V30 26 1 24 27
M  V30 27 1 17 2
M  V30 28 1 10 6
M  V30 29 1 14 9
M  V30 30 1 1 28
M  V30 31 1 2 29 CFG=3
M  V30 32 1 3 30 CFG=1
M  V30 33 1 4 31
M  V30 34 1 5 32 CFG=1
M  V30 35 1 7 33
M  V30 36 1 12 34
M  V30 37 1 15 35
M  V30 38 1 15 36
M  V30 39 1 17 37 CFG=1
M  V30 40 1 18 38
M  V30 41 1 18 39
M  V30 END BOND
M  V30 END CTAB
M  END
>  <Dataset>  (104) 
PDB

>  <Ligand_Instance>  (104) 
7UJX_ADP_E_401

>  <PDB_ID>  (104) 
7UJX

>  <Standardized_SMILES>  (104) 
[H]O[C@@]1([H])[C@@]([H])(O[H])[C@]([H])(N2C([H])=NC3=C2N=C([H])N=C3N([H])[H])O[C@]1([H])C([H])([H])O[P@@](=O)([O-])OP(=O)([O-])[O-]

>  <Name>  (104) 
ADENOSINE-5'-DIPHOSPHATE

>  <Pocket>  (104) 
A

>  <ATP_Site>  (104) 
1.0

>  <Peripheral>  (104) 
0.0

>  <Num_H_Atoms_ProtBoundConf>  (104) 
12.0

>  <Num_Resolved_Atoms>  (104) 
27.0

>  <Num_Not_Resolved_Atoms>  (104) 
0.0

>  <2D_Mol_H>  (104) 
<rdkit.Chem.rdchem.Mol object at 0x72a238da42e0>

>  <MW>  (104) 
424.179

>  <HBA>  (104) 
15

>  <HBD>  (104) 
3

>  <LogP>  (104) 
-3.642

>  <NRB>  (104) 
9

>  <TPSA>  (104) 
241.09

>  <Num_Heavy_Atoms>  (104) 
27

>  <Ro5>  (104) 
[True, False, True, True, True, False]

>  <Ro5_Fulfilled>  (104) 
False

>  <Ro3>  (104) 
[False, False, True, True]

>  <Ro3_Fulfilled>  (104) 
False

>  <Fsp3>  (104) 
0.5

>  <Fsp3_0.42>  (104) 
True

>  <Fsp3_0.45>  (104) 
True

>  <Stereogenic_Carbons>  (104) 
4

>  <C_Atoms>  (104) 
10

>  <FCStereo>  (104) 
0.4

>  <SPS>  (104) 
769

>  <nSPS>  (104) 
28.481481

>  <PBF>  (104) 
1.15283

>  <PBF_0.6>  (104) 
True

>  <nPBF>  (104) 
0.042697

>  <nPBF_0.016>  (104) 
True

>  <PMI1>  (104) 
2102.319253

>  <PMI2>  (104) 
5166.999745

>  <PMI3>  (104) 
5841.477038

>  <NPR1>  (104) 
0.359895

>  <NPR2>  (104) 
0.884537

>  <Sum_NPR>  (104) 
1.244432

>  <Sum_NPR_1.07>  (104) 
True

>  <Sum_NPR_1.2>  (104) 
True

>  <MaxAbsEStateIndex>  (104) 
11.278955

>  <MaxEStateIndex>  (104) 
11.278955

>  <MinAbsEStateIndex>  (104) 
0.065524

>  <MinEStateIndex>  (104) 
-5.851432

>  <qed>  (104) 
0.378904

>  <MolWt>  (104) 
424.179

>  <HeavyAtomMolWt>  (104) 
412.083

>  <ExactMolWt>  (104) 
424.007586

>  <NumValenceElectrons>  (104) 
150

>  <NumRadicalElectrons>  (104) 
0

>  <MaxPartialCharge>  (104) 
0.271368

>  <MinPartialCharge>  (104) 
-0.789509

>  <MaxAbsPartialCharge>  (104) 
0.789509

>  <MinAbsPartialCharge>  (104) 
0.271368

>  <FpDensityMorgan1>  (104) 
1.222222

>  <FpDensityMorgan2>  (104) 
1.925926

>  <FpDensityMorgan3>  (104) 
2.592593

>  <BCUT2D_MWHI>  (104) 
31.27025

>  <BCUT2D_MWLOW>  (104) 
10.128388

>  <BCUT2D_CHGHI>  (104) 
2.444842

>  <BCUT2D_CHGLO>  (104) 
-2.350424

>  <BCUT2D_LOGPHI>  (104) 
2.503664

>  <BCUT2D_LOGPLOW>  (104) 
-2.337741

>  <BCUT2D_MRHI>  (104) 
7.580921

>  <BCUT2D_MRLOW>  (104) 
-0.339423

>  <AvgIpc>  (104) 
3.072773

>  <BalabanJ>  (104) 
1.748652

>  <BertzCT>  (104) 
932.232873

>  <Chi0>  (104) 
19.982763

>  <Chi0n>  (104) 
13.092254

>  <Chi0v>  (104) 
14.881108

>  <Chi1>  (104) 
12.483782

>  <Chi1n>  (104) 
7.119416

>  <Chi1v>  (104) 
10.040603

>  <Chi2n>  (104) 
5.401088

>  <Chi2v>  (104) 
8.101339

>  <Chi3n>  (104) 
3.595354

>  <Chi3v>  (104) 
5.660653

>  <Chi4n>  (104) 
2.463726

>  <Chi4v>  (104) 
3.961582

>  <HallKierAlpha>  (104) 
-1.51

>  <Ipc>  (104) 
807942.564302

>  <Kappa1>  (104) 
20.230095

>  <Kappa2>  (104) 
7.144568

>  <Kappa3>  (104) 
4.329348

>  <LabuteASA>  (104) 
149.760939

>  <PEOE_VSA1>  (104) 
44.452615

>  <PEOE_VSA10>  (104) 
30.15592

>  <PEOE_VSA11>  (104) 
17.692941

>  <PEOE_VSA12>  (104) 
0.0

>  <PEOE_VSA13>  (104) 
7.822697

>  <PEOE_VSA14>  (104) 
0.0

>  <PEOE_VSA2>  (104) 
13.442779

>  <PEOE_VSA3>  (104) 
14.951936

>  <PEOE_VSA4>  (104) 
0.0

>  <PEOE_VSA5>  (104) 
0.0

>  <PEOE_VSA6>  (104) 
0.0

>  <PEOE_VSA7>  (104) 
0.0

>  <PEOE_VSA8>  (104) 
0.0

>  <PEOE_VSA9>  (104) 
20.756899

>  <SMR_VSA1>  (104) 
47.594628

>  <SMR_VSA10>  (104) 
32.627135

>  <SMR_VSA2>  (104) 
0.0

>  <SMR_VSA3>  (104) 
19.519035

>  <SMR_VSA4>  (104) 
0.0

>  <SMR_VSA5>  (104) 
24.5398

>  <SMR_VSA6>  (104) 
12.340549

>  <SMR_VSA7>  (104) 
12.65464

>  <SMR_VSA8>  (104) 
0.0

>  <SMR_VSA9>  (104) 
0.0

>  <SlogP_VSA1>  (104) 
20.413902

>  <SlogP_VSA10>  (104) 
5.817863

>  <SlogP_VSA11>  (104) 
0.0

>  <SlogP_VSA12>  (104) 
15.645394

>  <SlogP_VSA2>  (104) 
54.650871

>  <SlogP_VSA3>  (104) 
22.701338

>  <SlogP_VSA4>  (104) 
0.0

>  <SlogP_VSA5>  (104) 
6.227901

>  <SlogP_VSA6>  (104) 
12.65464

>  <SlogP_VSA7>  (104) 
0.0

>  <SlogP_VSA8>  (104) 
11.163878

>  <SlogP_VSA9>  (104) 
0.0

>  <EState_VSA1>  (104) 
46.792077

>  <EState_VSA10>  (104) 
34.023386

>  <EState_VSA11>  (104) 
0.0

>  <EState_VSA2>  (104) 
16.981741

>  <EState_VSA3>  (104) 
0.0

>  <EState_VSA4>  (104) 
6.32732

>  <EState_VSA5>  (104) 
10.89442

>  <EState_VSA6>  (104) 
0.0

>  <EState_VSA7>  (104) 
0.0

>  <EState_VSA8>  (104) 
23.786314

>  <EState_VSA9>  (104) 
10.47053

>  <VSA_EState1>  (104) 
35.749107

>  <VSA_EState10>  (104) 
0.0

>  <VSA_EState2>  (104) 
43.665953

>  <VSA_EState3>  (104) 
20.193372

>  <VSA_EState4>  (104) 
6.037581

>  <VSA_EState5>  (104) 
0.065524

>  <VSA_EState6>  (104) 
0.0

>  <VSA_EState7>  (104) 
-3.478964

>  <VSA_EState8>  (104) 
-0.931293

>  <VSA_EState9>  (104) 
-11.356836

>  <FractionCSP3>  (104) 
0.5

>  <HeavyAtomCount>  (104) 
27

>  <NHOHCount>  (104) 
4

>  <NOCount>  (104) 
15

>  <NumAliphaticCarbocycles>  (104) 
0

>  <NumAliphaticHeterocycles>  (104) 
1

>  <NumAliphaticRings>  (104) 
1

>  <NumAromaticCarbocycles>  (104) 
0

>  <NumAromaticHeterocycles>  (104) 
2

>  <NAR>  (104) 
2

>  <NumHAcceptors>  (104) 
15

>  <NumHDonors>  (104) 
3

>  <NumHeteroatoms>  (104) 
17

>  <NumRotatableBonds>  (104) 
6

>  <NumSaturatedCarbocycles>  (104) 
0

>  <NumSaturatedHeterocycles>  (104) 
1

>  <NumSaturatedRings>  (104) 
1

>  <RingCount>  (104) 
3

>  <MolLogP>  (104) 
-3.642

>  <MolMR>  (104) 
77.909

>  <fr_Al_COO>  (104) 
0

>  <fr_Al_OH>  (104) 
2

>  <fr_Al_OH_noTert>  (104) 
2

>  <fr_ArN>  (104) 
1

>  <fr_Ar_COO>  (104) 
0

>  <fr_Ar_N>  (104) 
4

>  <fr_Ar_NH>  (104) 
0

>  <fr_Ar_OH>  (104) 
0

>  <fr_COO>  (104) 
0

>  <fr_COO2>  (104) 
0

>  <fr_C_O>  (104) 
0

>  <fr_C_O_noCOO>  (104) 
0

>  <fr_C_S>  (104) 
0

>  <fr_HOCCN>  (104) 
0

>  <fr_Imine>  (104) 
0

>  <fr_NH0>  (104) 
4

>  <fr_NH1>  (104) 
0

>  <fr_NH2>  (104) 
1

>  <fr_N_O>  (104) 
0

>  <fr_Ndealkylation1>  (104) 
0

>  <fr_Ndealkylation2>  (104) 
0

>  <fr_Nhpyrrole>  (104) 
0

>  <fr_SH>  (104) 
0

>  <fr_aldehyde>  (104) 
0

>  <fr_alkyl_carbamate>  (104) 
0

>  <fr_alkyl_halide>  (104) 
0

>  <fr_allylic_oxid>  (104) 
0

>  <fr_amide>  (104) 
0

>  <fr_amidine>  (104) 
0

>  <fr_aniline>  (104) 
1

>  <fr_aryl_methyl>  (104) 
0

>  <fr_azide>  (104) 
0

>  <fr_azo>  (104) 
0

>  <fr_barbitur>  (104) 
0

>  <fr_benzene>  (104) 
0

>  <fr_benzodiazepine>  (104) 
0

>  <fr_bicyclic>  (104) 
1

>  <fr_diazo>  (104) 
0

>  <fr_dihydropyridine>  (104) 
0

>  <fr_epoxide>  (104) 
0

>  <fr_ester>  (104) 
0

>  <fr_ether>  (104) 
1

>  <fr_furan>  (104) 
0

>  <fr_guanido>  (104) 
0

>  <fr_halogen>  (104) 
0

>  <fr_hdrzine>  (104) 
0

>  <fr_hdrzone>  (104) 
0

>  <fr_imidazole>  (104) 
1

>  <fr_imide>  (104) 
0

>  <fr_isocyan>  (104) 
0

>  <fr_isothiocyan>  (104) 
0

>  <fr_ketone>  (104) 
0

>  <fr_ketone_Topliss>  (104) 
0

>  <fr_lactam>  (104) 
0

>  <fr_lactone>  (104) 
0

>  <fr_methoxy>  (104) 
0

>  <fr_morpholine>  (104) 
0

>  <fr_nitrile>  (104) 
0

>  <fr_nitro>  (104) 
0

>  <fr_nitro_arom>  (104) 
0

>  <fr_nitro_arom_nonortho>  (104) 
0

>  <fr_nitroso>  (104) 
0

>  <fr_oxazole>  (104) 
0

>  <fr_oxime>  (104) 
0

>  <fr_para_hydroxylation>  (104) 
0

>  <fr_phenol>  (104) 
0

>  <fr_phenol_noOrthoHbond>  (104) 
0

>  <fr_phos_acid>  (104) 
2

>  <fr_phos_ester>  (104) 
1

>  <fr_piperdine>  (104) 
0

>  <fr_piperzine>  (104) 
0

>  <fr_priamide>  (104) 
0

>  <fr_prisulfonamd>  (104) 
0

>  <fr_pyridine>  (104) 
0

>  <fr_quatN>  (104) 
0

>  <fr_sulfide>  (104) 
0

>  <fr_sulfonamd>  (104) 
0

>  <fr_sulfone>  (104) 
0

>  <fr_term_acetylene>  (104) 
0

>  <fr_tetrazole>  (104) 
0

>  <fr_thiazole>  (104) 
0

>  <fr_thiocyan>  (104) 
0

>  <fr_thiophene>  (104) 
0

>  <fr_unbrch_alkane>  (104) 
0

>  <fr_urea>  (104) 
0

>  <NP-Likeness>  (104) 
0.931308

$$$$
ADP
     RDKit          3D

  0  0  0  0  0  0  0  0  0  0999 V3000
M  V30 BEGIN CTAB
M  V30 COUNTS 39 41 0 0 0
M  V30 BEGIN ATOM
M  V30 1 O -1.717774 -0.034959 3.559082 0
M  V30 2 C -0.759199 -0.272865 2.585384 0 CFG=1
M  V30 3 C 0.643594 -0.069815 3.073638 0 CFG=1
M  V30 4 O 0.644694 -0.511894 4.415048 0
M  V30 5 C 1.404472 -1.003986 2.179438 0 CFG=2
M  V30 6 N 2.259305 -0.335498 1.220754 0
M  V30 7 C 3.407023 -0.884949 0.746764 0
M  V30 8 N 3.977040 -0.026214 -0.124551 0
M  V30 9 C 3.201225 1.059903 -0.205780 0
M  V30 10 C 2.117438 0.885630 0.631299 0
M  V30 11 N 1.172844 1.803400 0.759782 0
M  V30 12 C 1.186206 2.972749 0.093562 0
M  V30 13 N 2.236504 3.194793 -0.747525 0
M  V30 14 C 3.208254 2.262079 -0.886130 0
M  V30 15 N 4.291340 2.525317 -1.772728 0
M  V30 16 O 0.506723 -1.861257 1.596420 0
M  V30 17 C -0.690569 -1.769661 2.253343 0 CFG=2
M  V30 18 C -1.901948 -2.114247 1.424313 0
M  V30 19 O -2.047234 -1.303298 0.326420 0
M  V30 20 P -3.388360 -1.653880 -0.627909 0 CFG=1 VAL=5
M  V30 21 O -4.298734 -2.682784 0.033025 0
M  V30 22 O -4.313191 -0.237643 -0.847801 0 CHG=-1 VAL=1
M  V30 23 O -2.865398 -2.162845 -2.150798 0
M  V30 24 P -2.660432 -3.847963 -2.090819 0
M  V30 25 O -3.625383 -4.486098 -1.122570 0
M  V30 26 O -3.078664 -4.427175 -3.633317 0 CHG=-1 VAL=1
M  V30 27 O -1.068445 -4.208177 -1.684313 0 CHG=-1 VAL=1
M  V30 28 H -1.722699 0.935829 3.717851 0
M  V30 29 H -1.027595 0.251078 1.667040 0
M  V30 30 H 0.998391 0.973799 3.021783 0
M  V30 31 H 1.547358 -0.509045 4.796058 0
M  V30 32 H 2.058534 -1.608915 2.866401 0
M  V30 33 H 3.805364 -1.858009 1.021901 0
M  V30 34 H 0.358645 3.620646 0.293881 0
M  V30 35 H 4.863229 3.184411 -1.184479 0
M  V30 36 H 5.184065 3.023931 -1.931429 0
M  V30 37 H -0.658288 -2.302573 3.201667 0
M  V30 38 H -1.874987 -3.192151 1.192057 0
M  V30 39 H -2.786382 -1.968468 2.079350 0
M  V30 END ATOM
M  V30 BEGIN BOND
M  V30 1 1 1 2
M  V30 2 1 2 3
M  V30 3 1 3 4
M  V30 4 1 3 5
M  V30 5 1 5 6
M  V30 6 1 6 7
M  V30 7 2 7 8
M  V30 8 1 8 9
M  V30 9 2 9 10
M  V30 10 1 10 11
M  V30 11 2 11 12
M  V30 12 1 12 13
M  V30 13 2 13 14
M  V30 14 1 14 15
M  V30 15 1 5 16
M  V30 16 1 16 17
M  V30 17 1 17 18
M  V30 18 1 18 19
M  V30 19 1 19 20
M  V30 20 2 20 21
M  V30 21 1 20 22 CFG=3
M  V30 22 1 20 23
M  V30 23 1 23 24
M  V30 24 2 24 25
M  V30 25 1 24 26
M  V30 26 1 24 27
M  V30 27 1 17 2
M  V30 28 1 10 6
M  V30 29 1 14 9
M  V30 30 1 1 28
M  V30 31 1 2 29 CFG=3
M  V30 32 1 3 30 CFG=1
M  V30 33 1 4 31
M  V30 34 1 5 32 CFG=1
M  V30 35 1 7 33
M  V30 36 1 12 34
M  V30 37 1 15 35
M  V30 38 1 15 36
M  V30 39 1 17 37 CFG=1
M  V30 40 1 18 38
M  V30 41 1 18 39
M  V30 END BOND
M  V30 END CTAB
M  END
>  <Dataset>  (105) 
PDB

>  <Ligand_Instance>  (105) 
7V0G_ADP_E_401

>  <PDB_ID>  (105) 
7V0G

>  <Standardized_SMILES>  (105) 
[H]O[C@@]1([H])[C@@]([H])(O[H])[C@]([H])(N2C([H])=NC3=C2N=C([H])N=C3N([H])[H])O[C@]1([H])C([H])([H])O[P@@](=O)([O-])OP(=O)([O-])[O-]

>  <Name>  (105) 
ADENOSINE-5'-DIPHOSPHATE

>  <Pocket>  (105) 
A

>  <ATP_Site>  (105) 
1.0

>  <Peripheral>  (105) 
0.0

>  <Num_H_Atoms_ProtBoundConf>  (105) 
12.0

>  <Num_Resolved_Atoms>  (105) 
27.0

>  <Num_Not_Resolved_Atoms>  (105) 
0.0

>  <2D_Mol_H>  (105) 
<rdkit.Chem.rdchem.Mol object at 0x72a238da43c0>

>  <MW>  (105) 
424.179

>  <HBA>  (105) 
15

>  <HBD>  (105) 
3

>  <LogP>  (105) 
-3.642

>  <NRB>  (105) 
9

>  <TPSA>  (105) 
241.09

>  <Num_Heavy_Atoms>  (105) 
27

>  <Ro5>  (105) 
[True, False, True, True, True, False]

>  <Ro5_Fulfilled>  (105) 
False

>  <Ro3>  (105) 
[False, False, True, True]

>  <Ro3_Fulfilled>  (105) 
False

>  <Fsp3>  (105) 
0.5

>  <Fsp3_0.42>  (105) 
True

>  <Fsp3_0.45>  (105) 
True

>  <Stereogenic_Carbons>  (105) 
4

>  <C_Atoms>  (105) 
10

>  <FCStereo>  (105) 
0.4

>  <SPS>  (105) 
769

>  <nSPS>  (105) 
28.481481

>  <PBF>  (105) 
1.15283

>  <PBF_0.6>  (105) 
True

>  <nPBF>  (105) 
0.042697

>  <nPBF_0.016>  (105) 
True

>  <PMI1>  (105) 
2102.319253

>  <PMI2>  (105) 
5166.999745

>  <PMI3>  (105) 
5841.477038

>  <NPR1>  (105) 
0.359895

>  <NPR2>  (105) 
0.884537

>  <Sum_NPR>  (105) 
1.244432

>  <Sum_NPR_1.07>  (105) 
True

>  <Sum_NPR_1.2>  (105) 
True

>  <MaxAbsEStateIndex>  (105) 
11.278955

>  <MaxEStateIndex>  (105) 
11.278955

>  <MinAbsEStateIndex>  (105) 
0.065524

>  <MinEStateIndex>  (105) 
-5.851432

>  <qed>  (105) 
0.378904

>  <MolWt>  (105) 
424.179

>  <HeavyAtomMolWt>  (105) 
412.083

>  <ExactMolWt>  (105) 
424.007586

>  <NumValenceElectrons>  (105) 
150

>  <NumRadicalElectrons>  (105) 
0

>  <MaxPartialCharge>  (105) 
0.271368

>  <MinPartialCharge>  (105) 
-0.789509

>  <MaxAbsPartialCharge>  (105) 
0.789509

>  <MinAbsPartialCharge>  (105) 
0.271368

>  <FpDensityMorgan1>  (105) 
1.222222

>  <FpDensityMorgan2>  (105) 
1.925926

>  <FpDensityMorgan3>  (105) 
2.592593

>  <BCUT2D_MWHI>  (105) 
31.27025

>  <BCUT2D_MWLOW>  (105) 
10.128388

>  <BCUT2D_CHGHI>  (105) 
2.444842

>  <BCUT2D_CHGLO>  (105) 
-2.350424

>  <BCUT2D_LOGPHI>  (105) 
2.503664

>  <BCUT2D_LOGPLOW>  (105) 
-2.337741

>  <BCUT2D_MRHI>  (105) 
7.580921

>  <BCUT2D_MRLOW>  (105) 
-0.339423

>  <AvgIpc>  (105) 
3.072773

>  <BalabanJ>  (105) 
1.748652

>  <BertzCT>  (105) 
932.232873

>  <Chi0>  (105) 
19.982763

>  <Chi0n>  (105) 
13.092254

>  <Chi0v>  (105) 
14.881108

>  <Chi1>  (105) 
12.483782

>  <Chi1n>  (105) 
7.119416

>  <Chi1v>  (105) 
10.040603

>  <Chi2n>  (105) 
5.401088

>  <Chi2v>  (105) 
8.101339

>  <Chi3n>  (105) 
3.595354

>  <Chi3v>  (105) 
5.660653

>  <Chi4n>  (105) 
2.463726

>  <Chi4v>  (105) 
3.961582

>  <HallKierAlpha>  (105) 
-1.51

>  <Ipc>  (105) 
807942.564302

>  <Kappa1>  (105) 
20.230095

>  <Kappa2>  (105) 
7.144568

>  <Kappa3>  (105) 
4.329348

>  <LabuteASA>  (105) 
149.760939

>  <PEOE_VSA1>  (105) 
44.452615

>  <PEOE_VSA10>  (105) 
30.15592

>  <PEOE_VSA11>  (105) 
17.692941

>  <PEOE_VSA12>  (105) 
0.0

>  <PEOE_VSA13>  (105) 
7.822697

>  <PEOE_VSA14>  (105) 
0.0

>  <PEOE_VSA2>  (105) 
13.442779

>  <PEOE_VSA3>  (105) 
14.951936

>  <PEOE_VSA4>  (105) 
0.0

>  <PEOE_VSA5>  (105) 
0.0

>  <PEOE_VSA6>  (105) 
0.0

>  <PEOE_VSA7>  (105) 
0.0

>  <PEOE_VSA8>  (105) 
0.0

>  <PEOE_VSA9>  (105) 
20.756899

>  <SMR_VSA1>  (105) 
47.594628

>  <SMR_VSA10>  (105) 
32.627135

>  <SMR_VSA2>  (105) 
0.0

>  <SMR_VSA3>  (105) 
19.519035

>  <SMR_VSA4>  (105) 
0.0

>  <SMR_VSA5>  (105) 
24.5398

>  <SMR_VSA6>  (105) 
12.340549

>  <SMR_VSA7>  (105) 
12.65464

>  <SMR_VSA8>  (105) 
0.0

>  <SMR_VSA9>  (105) 
0.0

>  <SlogP_VSA1>  (105) 
20.413902

>  <SlogP_VSA10>  (105) 
5.817863

>  <SlogP_VSA11>  (105) 
0.0

>  <SlogP_VSA12>  (105) 
15.645394

>  <SlogP_VSA2>  (105) 
54.650871

>  <SlogP_VSA3>  (105) 
22.701338

>  <SlogP_VSA4>  (105) 
0.0

>  <SlogP_VSA5>  (105) 
6.227901

>  <SlogP_VSA6>  (105) 
12.65464

>  <SlogP_VSA7>  (105) 
0.0

>  <SlogP_VSA8>  (105) 
11.163878

>  <SlogP_VSA9>  (105) 
0.0

>  <EState_VSA1>  (105) 
46.792077

>  <EState_VSA10>  (105) 
34.023386

>  <EState_VSA11>  (105) 
0.0

>  <EState_VSA2>  (105) 
16.981741

>  <EState_VSA3>  (105) 
0.0

>  <EState_VSA4>  (105) 
6.32732

>  <EState_VSA5>  (105) 
10.89442

>  <EState_VSA6>  (105) 
0.0

>  <EState_VSA7>  (105) 
0.0

>  <EState_VSA8>  (105) 
23.786314

>  <EState_VSA9>  (105) 
10.47053

>  <VSA_EState1>  (105) 
35.749107

>  <VSA_EState10>  (105) 
0.0

>  <VSA_EState2>  (105) 
43.665953

>  <VSA_EState3>  (105) 
20.193372

>  <VSA_EState4>  (105) 
6.037581

>  <VSA_EState5>  (105) 
0.065524

>  <VSA_EState6>  (105) 
0.0

>  <VSA_EState7>  (105) 
-3.478964

>  <VSA_EState8>  (105) 
-0.931293

>  <VSA_EState9>  (105) 
-11.356836

>  <FractionCSP3>  (105) 
0.5

>  <HeavyAtomCount>  (105) 
27

>  <NHOHCount>  (105) 
4

>  <NOCount>  (105) 
15

>  <NumAliphaticCarbocycles>  (105) 
0

>  <NumAliphaticHeterocycles>  (105) 
1

>  <NumAliphaticRings>  (105) 
1

>  <NumAromaticCarbocycles>  (105) 
0

>  <NumAromaticHeterocycles>  (105) 
2

>  <NAR>  (105) 
2

>  <NumHAcceptors>  (105) 
15

>  <NumHDonors>  (105) 
3

>  <NumHeteroatoms>  (105) 
17

>  <NumRotatableBonds>  (105) 
6

>  <NumSaturatedCarbocycles>  (105) 
0

>  <NumSaturatedHeterocycles>  (105) 
1

>  <NumSaturatedRings>  (105) 
1

>  <RingCount>  (105) 
3

>  <MolLogP>  (105) 
-3.642

>  <MolMR>  (105) 
77.909

>  <fr_Al_COO>  (105) 
0

>  <fr_Al_OH>  (105) 
2

>  <fr_Al_OH_noTert>  (105) 
2

>  <fr_ArN>  (105) 
1

>  <fr_Ar_COO>  (105) 
0

>  <fr_Ar_N>  (105) 
4

>  <fr_Ar_NH>  (105) 
0

>  <fr_Ar_OH>  (105) 
0

>  <fr_COO>  (105) 
0

>  <fr_COO2>  (105) 
0

>  <fr_C_O>  (105) 
0

>  <fr_C_O_noCOO>  (105) 
0

>  <fr_C_S>  (105) 
0

>  <fr_HOCCN>  (105) 
0

>  <fr_Imine>  (105) 
0

>  <fr_NH0>  (105) 
4

>  <fr_NH1>  (105) 
0

>  <fr_NH2>  (105) 
1

>  <fr_N_O>  (105) 
0

>  <fr_Ndealkylation1>  (105) 
0

>  <fr_Ndealkylation2>  (105) 
0

>  <fr_Nhpyrrole>  (105) 
0

>  <fr_SH>  (105) 
0

>  <fr_aldehyde>  (105) 
0

>  <fr_alkyl_carbamate>  (105) 
0

>  <fr_alkyl_halide>  (105) 
0

>  <fr_allylic_oxid>  (105) 
0

>  <fr_amide>  (105) 
0

>  <fr_amidine>  (105) 
0

>  <fr_aniline>  (105) 
1

>  <fr_aryl_methyl>  (105) 
0

>  <fr_azide>  (105) 
0

>  <fr_azo>  (105) 
0

>  <fr_barbitur>  (105) 
0

>  <fr_benzene>  (105) 
0

>  <fr_benzodiazepine>  (105) 
0

>  <fr_bicyclic>  (105) 
1

>  <fr_diazo>  (105) 
0

>  <fr_dihydropyridine>  (105) 
0

>  <fr_epoxide>  (105) 
0

>  <fr_ester>  (105) 
0

>  <fr_ether>  (105) 
1

>  <fr_furan>  (105) 
0

>  <fr_guanido>  (105) 
0

>  <fr_halogen>  (105) 
0

>  <fr_hdrzine>  (105) 
0

>  <fr_hdrzone>  (105) 
0

>  <fr_imidazole>  (105) 
1

>  <fr_imide>  (105) 
0

>  <fr_isocyan>  (105) 
0

>  <fr_isothiocyan>  (105) 
0

>  <fr_ketone>  (105) 
0

>  <fr_ketone_Topliss>  (105) 
0

>  <fr_lactam>  (105) 
0

>  <fr_lactone>  (105) 
0

>  <fr_methoxy>  (105) 
0

>  <fr_morpholine>  (105) 
0

>  <fr_nitrile>  (105) 
0

>  <fr_nitro>  (105) 
0

>  <fr_nitro_arom>  (105) 
0

>  <fr_nitro_arom_nonortho>  (105) 
0

>  <fr_nitroso>  (105) 
0

>  <fr_oxazole>  (105) 
0

>  <fr_oxime>  (105) 
0

>  <fr_para_hydroxylation>  (105) 
0

>  <fr_phenol>  (105) 
0

>  <fr_phenol_noOrthoHbond>  (105) 
0

>  <fr_phos_acid>  (105) 
2

>  <fr_phos_ester>  (105) 
1

>  <fr_piperdine>  (105) 
0

>  <fr_piperzine>  (105) 
0

>  <fr_priamide>  (105) 
0

>  <fr_prisulfonamd>  (105) 
0

>  <fr_pyridine>  (105) 
0

>  <fr_quatN>  (105) 
0

>  <fr_sulfide>  (105) 
0

>  <fr_sulfonamd>  (105) 
0

>  <fr_sulfone>  (105) 
0

>  <fr_term_acetylene>  (105) 
0

>  <fr_tetrazole>  (105) 
0

>  <fr_thiazole>  (105) 
0

>  <fr_thiocyan>  (105) 
0

>  <fr_thiophene>  (105) 
0

>  <fr_unbrch_alkane>  (105) 
0

>  <fr_urea>  (105) 
0

>  <NP-Likeness>  (105) 
0.931308

$$$$
AMP
     RDKit          3D

  0  0  0  0  0  0  0  0  0  0999 V3000
M  V30 BEGIN CTAB
M  V30 COUNTS 35 37 0 0 0
M  V30 BEGIN ATOM
M  V30 1 O 1.682160 -4.128904 -0.214121 0
M  V30 2 C 0.610126 -3.441729 0.357545 0 CFG=1
M  V30 3 C 1.074096 -2.571447 1.510829 0 CFG=1
M  V30 4 O 2.091840 -3.251757 2.198413 0
M  V30 5 C 1.612184 -1.386291 0.771940 0 CFG=2
M  V30 6 N 1.240412 -0.121251 1.356082 0
M  V30 7 C 1.068677 0.150479 2.662993 0
M  V30 8 N 0.721820 1.447820 2.819484 0
M  V30 9 C 0.659574 2.051289 1.617978 0
M  V30 10 C 0.991843 1.035768 0.714158 0
M  V30 11 N 1.031204 1.283819 -0.614786 0
M  V30 12 C 0.751570 2.517345 -1.110970 0
M  V30 13 N 0.430225 3.506969 -0.261712 0
M  V30 14 C 0.382330 3.289606 1.075187 0
M  V30 15 N 0.044215 4.312390 2.030267 0
M  V30 16 O 1.147400 -1.435186 -0.519940 0
M  V30 17 C 0.173104 -2.391166 -0.641214 0 CFG=2
M  V30 18 C -1.217597 -1.928937 -0.287669 0
M  V30 19 O -1.657382 -0.889181 -1.067731 0
M  V30 20 P -3.219294 -0.447044 -0.593544 0
M  V30 21 O -3.377007 1.061434 -0.513095 0
M  V30 22 O -3.532720 -1.067157 0.946948 0 CHG=-1 VAL=1
M  V30 23 O -4.363687 -1.084585 -1.687192 0 CHG=-1 VAL=1
M  V30 24 H 2.180904 -3.472173 -0.762871 0
M  V30 25 H -0.214241 -4.113737 0.649192 0
M  V30 26 H 0.222166 -2.343586 2.176052 0
M  V30 27 H 2.003138 -4.231057 1.991569 0
M  V30 28 H 2.730475 -1.421568 0.794785 0
M  V30 29 H 1.181050 -0.538062 3.502204 0
M  V30 30 H 0.773899 2.750937 -2.173033 0
M  V30 31 H 0.634616 4.917216 2.659683 0
M  V30 32 H -0.992935 4.289664 1.923635 0
M  V30 33 H 0.176443 -2.786386 -1.677584 0
M  V30 34 H -1.874421 -2.827025 -0.370345 0
M  V30 35 H -1.272024 -1.607962 0.766149 0
M  V30 END ATOM
M  V30 BEGIN BOND
M  V30 1 1 1 2
M  V30 2 1 2 3
M  V30 3 1 3 4
M  V30 4 1 3 5
M  V30 5 1 5 6
M  V30 6 1 6 7
M  V30 7 2 7 8
M  V30 8 1 8 9
M  V30 9 2 9 10
M  V30 10 1 10 11
M  V30 11 2 11 12
M  V30 12 1 12 13
M  V30 13 2 13 14
M  V30 14 1 14 15
M  V30 15 1 5 16
M  V30 16 1 16 17
M  V30 17 1 17 18
M  V30 18 1 18 19
M  V30 19 1 19 20
M  V30 20 2 20 21
M  V30 21 1 20 22
M  V30 22 1 20 23
M  V30 23 1 17 2
M  V30 24 1 10 6
M  V30 25 1 14 9
M  V30 26 1 1 24
M  V30 27 1 2 25 CFG=1
M  V30 28 1 3 26 CFG=1
M  V30 29 1 4 27
M  V30 30 1 5 28 CFG=3
M  V30 31 1 7 29
M  V30 32 1 12 30
M  V30 33 1 15 31
M  V30 34 1 15 32
M  V30 35 1 17 33 CFG=3
M  V30 36 1 18 34
M  V30 37 1 18 35
M  V30 END BOND
M  V30 END CTAB
M  END
>  <Dataset>  (106) 
PDB

>  <Ligand_Instance>  (106) 
6EH2_AMP_A_401

>  <PDB_ID>  (106) 
6EH2

>  <Standardized_SMILES>  (106) 
[H]O[C@@]1([H])[C@@]([H])(O[H])[C@]([H])(N2C([H])=NC3=C2N=C([H])N=C3N([H])[H])O[C@]1([H])C([H])([H])OP(=O)([O-])[O-]

>  <Name>  (106) 
ADENOSINE MONOPHOSPHATE

>  <Pocket>  (106) 
A

>  <ATP_Site>  (106) 
1.0

>  <Peripheral>  (106) 
0.0

>  <Num_H_Atoms_ProtBoundConf>  (106) 
12.0

>  <Num_Resolved_Atoms>  (106) 
23.0

>  <Num_Not_Resolved_Atoms>  (106) 
0.0

>  <2D_Mol_H>  (106) 
<rdkit.Chem.rdchem.Mol object at 0x72a238da44a0>

>  <MW>  (106) 
345.208

>  <HBA>  (106) 
12

>  <HBD>  (106) 
3

>  <LogP>  (106) 
-3.127

>  <NRB>  (106) 
7

>  <TPSA>  (106) 
191.73

>  <Num_Heavy_Atoms>  (106) 
23

>  <Ro5>  (106) 
[True, False, True, True, True, False]

>  <Ro5_Fulfilled>  (106) 
False

>  <Ro3>  (106) 
[False, False, True, True]

>  <Ro3_Fulfilled>  (106) 
False

>  <Fsp3>  (106) 
0.5

>  <Fsp3_0.42>  (106) 
True

>  <Fsp3_0.45>  (106) 
True

>  <Stereogenic_Carbons>  (106) 
4

>  <C_Atoms>  (106) 
10

>  <FCStereo>  (106) 
0.4

>  <SPS>  (106) 
656

>  <nSPS>  (106) 
28.521739

>  <PBF>  (106) 
1.002996

>  <PBF_0.6>  (106) 
True

>  <nPBF>  (106) 
0.043609

>  <nPBF_0.016>  (106) 
True

>  <PMI1>  (106) 
1880.071266

>  <PMI2>  (106) 
2147.045132

>  <PMI3>  (106) 
3302.262214

>  <NPR1>  (106) 
0.569328

>  <NPR2>  (106) 
0.650174

>  <Sum_NPR>  (106) 
1.219502

>  <Sum_NPR_1.07>  (106) 
True

>  <Sum_NPR_1.2>  (106) 
True

>  <MaxAbsEStateIndex>  (106) 
10.502913

>  <MaxEStateIndex>  (106) 
10.502913

>  <MinAbsEStateIndex>  (106) 
0.125293

>  <MinEStateIndex>  (106) 
-5.218946

>  <qed>  (106) 
0.474435

>  <MolWt>  (106) 
345.208

>  <HeavyAtomMolWt>  (106) 
333.112

>  <ExactMolWt>  (106) 
345.048532

>  <NumValenceElectrons>  (106) 
126

>  <NumRadicalElectrons>  (106) 
0

>  <MaxPartialCharge>  (106) 
0.167139

>  <MinPartialCharge>  (106) 
-0.789873

>  <MaxAbsPartialCharge>  (106) 
0.789873

>  <MinAbsPartialCharge>  (106) 
0.167139

>  <FpDensityMorgan1>  (106) 
1.347826

>  <FpDensityMorgan2>  (106) 
2.086957

>  <FpDensityMorgan3>  (106) 
2.782609

>  <BCUT2D_MWHI>  (106) 
31.204462

>  <BCUT2D_MWLOW>  (106) 
10.128388

>  <BCUT2D_CHGHI>  (106) 
2.440792

>  <BCUT2D_CHGLO>  (106) 
-2.297431

>  <BCUT2D_LOGPHI>  (106) 
2.339241

>  <BCUT2D_LOGPLOW>  (106) 
-2.341674

>  <BCUT2D_MRHI>  (106) 
7.427304

>  <BCUT2D_MRLOW>  (106) 
-0.342707

>  <AvgIpc>  (106) 
3.007281

>  <BalabanJ>  (106) 
1.851148

>  <BertzCT>  (106) 
763.137828

>  <Chi0>  (106) 
16.775656

>  <Chi0n>  (106) 
11.420295

>  <Chi0v>  (106) 
12.314722

>  <Chi1>  (106) 
10.776676

>  <Chi1n>  (106) 
6.389119

>  <Chi1v>  (106) 
7.849713

>  <Chi2n>  (106) 
4.872225

>  <Chi2v>  (106) 
6.024851

>  <Chi3n>  (106) 
3.395354

>  <Chi3v>  (106) 
3.860653

>  <Chi4n>  (106) 
2.317681

>  <Chi4v>  (106) 
2.647179

>  <HallKierAlpha>  (106) 
-1.66

>  <Ipc>  (106) 
165343.290184

>  <Kappa1>  (106) 
16.206701

>  <Kappa2>  (106) 
5.760949

>  <Kappa3>  (106) 
3.052763

>  <LabuteASA>  (106) 
128.30355

>  <PEOE_VSA1>  (106) 
39.559204

>  <PEOE_VSA10>  (106) 
30.15592

>  <PEOE_VSA11>  (106) 
17.692941

>  <PEOE_VSA12>  (106) 
0.0

>  <PEOE_VSA13>  (106) 
0.0

>  <PEOE_VSA14>  (106) 
0.0

>  <PEOE_VSA2>  (106) 
4.5671

>  <PEOE_VSA3>  (106) 
14.951936

>  <PEOE_VSA4>  (106) 
0.0

>  <PEOE_VSA5>  (106) 
0.0

>  <PEOE_VSA6>  (106) 
0.0

>  <PEOE_VSA7>  (106) 
0.0

>  <PEOE_VSA8>  (106) 
0.0

>  <PEOE_VSA9>  (106) 
20.756899

>  <SMR_VSA1>  (106) 
33.825536

>  <SMR_VSA10>  (106) 
24.804438

>  <SMR_VSA2>  (106) 
0.0

>  <SMR_VSA3>  (106) 
19.519035

>  <SMR_VSA4>  (106) 
0.0

>  <SMR_VSA5>  (106) 
24.5398

>  <SMR_VSA6>  (106) 
12.340549

>  <SMR_VSA7>  (106) 
12.65464

>  <SMR_VSA8>  (106) 
0.0

>  <SMR_VSA9>  (106) 
0.0

>  <SlogP_VSA1>  (106) 
15.520491

>  <SlogP_VSA10>  (106) 
5.817863

>  <SlogP_VSA11>  (106) 
0.0

>  <SlogP_VSA12>  (106) 
7.822697

>  <SlogP_VSA2>  (106) 
54.650871

>  <SlogP_VSA3>  (106) 
13.825658

>  <SlogP_VSA4>  (106) 
0.0

>  <SlogP_VSA5>  (106) 
6.227901

>  <SlogP_VSA6>  (106) 
12.65464

>  <SlogP_VSA7>  (106) 
0.0

>  <SlogP_VSA8>  (106) 
11.163878

>  <SlogP_VSA9>  (106) 
0.0

>  <EState_VSA1>  (106) 
38.969379

>  <EState_VSA10>  (106) 
24.564926

>  <EState_VSA11>  (106) 
0.0

>  <EState_VSA2>  (106) 
16.981741

>  <EState_VSA3>  (106) 
0.0

>  <EState_VSA4>  (106) 
0.0

>  <EState_VSA5>  (106) 
17.22174

>  <EState_VSA6>  (106) 
0.0

>  <EState_VSA7>  (106) 
0.0

>  <EState_VSA8>  (106) 
19.475683

>  <EState_VSA9>  (106) 
10.47053

>  <VSA_EState1>  (106) 
21.271318

>  <VSA_EState10>  (106) 
0.0

>  <VSA_EState2>  (106) 
32.750314

>  <VSA_EState3>  (106) 
19.989001

>  <VSA_EState4>  (106) 
6.189696

>  <VSA_EState5>  (106) 
0.125293

>  <VSA_EState6>  (106) 
0.0

>  <VSA_EState7>  (106) 
-2.748301

>  <VSA_EState8>  (106) 
-0.719487

>  <VSA_EState9>  (106) 
-5.218946

>  <FractionCSP3>  (106) 
0.5

>  <HeavyAtomCount>  (106) 
23

>  <NHOHCount>  (106) 
4

>  <NOCount>  (106) 
12

>  <NumAliphaticCarbocycles>  (106) 
0

>  <NumAliphaticHeterocycles>  (106) 
1

>  <NumAliphaticRings>  (106) 
1

>  <NumAromaticCarbocycles>  (106) 
0

>  <NumAromaticHeterocycles>  (106) 
2

>  <NAR>  (106) 
2

>  <NumHAcceptors>  (106) 
12

>  <NumHDonors>  (106) 
3

>  <NumHeteroatoms>  (106) 
13

>  <NumRotatableBonds>  (106) 
4

>  <NumSaturatedCarbocycles>  (106) 
0

>  <NumSaturatedHeterocycles>  (106) 
1

>  <NumSaturatedRings>  (106) 
1

>  <RingCount>  (106) 
3

>  <MolLogP>  (106) 
-3.127

>  <MolMR>  (106) 
69.2175

>  <fr_Al_COO>  (106) 
0

>  <fr_Al_OH>  (106) 
2

>  <fr_Al_OH_noTert>  (106) 
2

>  <fr_ArN>  (106) 
1

>  <fr_Ar_COO>  (106) 
0

>  <fr_Ar_N>  (106) 
4

>  <fr_Ar_NH>  (106) 
0

>  <fr_Ar_OH>  (106) 
0

>  <fr_COO>  (106) 
0

>  <fr_COO2>  (106) 
0

>  <fr_C_O>  (106) 
0

>  <fr_C_O_noCOO>  (106) 
0

>  <fr_C_S>  (106) 
0

>  <fr_HOCCN>  (106) 
0

>  <fr_Imine>  (106) 
0

>  <fr_NH0>  (106) 
4

>  <fr_NH1>  (106) 
0

>  <fr_NH2>  (106) 
1

>  <fr_N_O>  (106) 
0

>  <fr_Ndealkylation1>  (106) 
0

>  <fr_Ndealkylation2>  (106) 
0

>  <fr_Nhpyrrole>  (106) 
0

>  <fr_SH>  (106) 
0

>  <fr_aldehyde>  (106) 
0

>  <fr_alkyl_carbamate>  (106) 
0

>  <fr_alkyl_halide>  (106) 
0

>  <fr_allylic_oxid>  (106) 
0

>  <fr_amide>  (106) 
0

>  <fr_amidine>  (106) 
0

>  <fr_aniline>  (106) 
1

>  <fr_aryl_methyl>  (106) 
0

>  <fr_azide>  (106) 
0

>  <fr_azo>  (106) 
0

>  <fr_barbitur>  (106) 
0

>  <fr_benzene>  (106) 
0

>  <fr_benzodiazepine>  (106) 
0

>  <fr_bicyclic>  (106) 
1

>  <fr_diazo>  (106) 
0

>  <fr_dihydropyridine>  (106) 
0

>  <fr_epoxide>  (106) 
0

>  <fr_ester>  (106) 
0

>  <fr_ether>  (106) 
1

>  <fr_furan>  (106) 
0

>  <fr_guanido>  (106) 
0

>  <fr_halogen>  (106) 
0

>  <fr_hdrzine>  (106) 
0

>  <fr_hdrzone>  (106) 
0

>  <fr_imidazole>  (106) 
1

>  <fr_imide>  (106) 
0

>  <fr_isocyan>  (106) 
0

>  <fr_isothiocyan>  (106) 
0

>  <fr_ketone>  (106) 
0

>  <fr_ketone_Topliss>  (106) 
0

>  <fr_lactam>  (106) 
0

>  <fr_lactone>  (106) 
0

>  <fr_methoxy>  (106) 
0

>  <fr_morpholine>  (106) 
0

>  <fr_nitrile>  (106) 
0

>  <fr_nitro>  (106) 
0

>  <fr_nitro_arom>  (106) 
0

>  <fr_nitro_arom_nonortho>  (106) 
0

>  <fr_nitroso>  (106) 
0

>  <fr_oxazole>  (106) 
0

>  <fr_oxime>  (106) 
0

>  <fr_para_hydroxylation>  (106) 
0

>  <fr_phenol>  (106) 
0

>  <fr_phenol_noOrthoHbond>  (106) 
0

>  <fr_phos_acid>  (106) 
1

>  <fr_phos_ester>  (106) 
1

>  <fr_piperdine>  (106) 
0

>  <fr_piperzine>  (106) 
0

>  <fr_priamide>  (106) 
0

>  <fr_prisulfonamd>  (106) 
0

>  <fr_pyridine>  (106) 
0

>  <fr_quatN>  (106) 
0

>  <fr_sulfide>  (106) 
0

>  <fr_sulfonamd>  (106) 
0

>  <fr_sulfone>  (106) 
0

>  <fr_term_acetylene>  (106) 
0

>  <fr_tetrazole>  (106) 
0

>  <fr_thiazole>  (106) 
0

>  <fr_thiocyan>  (106) 
0

>  <fr_thiophene>  (106) 
0

>  <fr_unbrch_alkane>  (106) 
0

>  <fr_urea>  (106) 
0

>  <NP-Likeness>  (106) 
1.016411

$$$$
ANP
     RDKit          3D

  0  0  0  0  0  0  0  0  0  0999 V3000
M  V30 BEGIN CTAB
M  V30 COUNTS 44 46 0 0 0
M  V30 BEGIN ATOM
M  V30 1 O -0.695907 -0.352663 -2.648680 0
M  V30 2 C 0.287716 -0.632771 -1.695539 0 CFG=1
M  V30 3 C 0.755801 0.734905 -1.180767 0 CFG=1
M  V30 4 O 0.817679 1.565722 -2.290114 0
M  V30 5 C -0.388257 1.057103 -0.248182 0 CFG=2
M  V30 6 N -0.002806 1.934380 0.844747 0
M  V30 7 C 0.819379 1.643501 1.868661 0
M  V30 8 N 0.937393 2.710053 2.685776 0
M  V30 9 C 0.190445 3.711687 2.201416 0
M  V30 10 C -0.387796 3.210040 1.054280 0
M  V30 11 N -1.213160 4.036993 0.349857 0
M  V30 12 C -1.451449 5.309757 0.771705 0
M  V30 13 N -0.880199 5.784622 1.892447 0
M  V30 14 C -0.070219 5.009876 2.605984 0
M  V30 15 N 0.569073 5.452959 3.806786 0
M  V30 16 O -0.821163 -0.135494 0.289383 0
M  V30 17 C -0.327644 -1.189960 -0.434697 0 CFG=2
M  V30 18 C 0.792726 -1.807912 0.408854 0
M  V30 19 O 1.376479 -2.910987 -0.245667 0
M  V30 20 P 2.609887 -3.590492 0.684126 0 CFG=2 VAL=5
M  V30 21 O 2.798908 -2.740631 1.938883 0
M  V30 22 O 4.071495 -3.451516 -0.193416 0 CHG=-1 VAL=1
M  V30 23 O 2.391584 -5.192726 1.058900 0
M  V30 24 P 1.327718 -5.522383 2.288669 0 CFG=2 VAL=5
M  V30 25 O 0.621214 -4.352360 2.873162 0
M  V30 26 O 2.228369 -6.222783 3.563216 0 CHG=-1 VAL=1
M  V30 27 N 0.227015 -6.769371 1.724564 0
M  V30 28 P -1.081137 -6.091338 0.794405 0
M  V30 29 O -1.621422 -4.835722 1.399666 0
M  V30 30 O -0.564198 -5.868351 -0.797332 0 CHG=-1 VAL=1
M  V30 31 O -2.348242 -7.222588 0.759276 0 CHG=-1 VAL=1
M  V30 32 H -1.496843 -0.034440 -2.200301 0
M  V30 33 H 1.121970 -1.230156 -2.070755 0
M  V30 34 H 1.706097 0.634646 -0.632895 0
M  V30 35 H 1.755388 1.730419 -2.573087 0
M  V30 36 H -1.167376 1.557615 -0.854712 0
M  V30 37 H 1.338204 0.718148 2.066242 0
M  V30 38 H -2.107380 5.942182 0.196937 0
M  V30 39 H 0.479502 5.016674 4.754472 0
M  V30 40 H 1.185105 6.290589 3.739264 0
M  V30 41 H -1.057657 -1.965196 -0.685177 0
M  V30 42 H 0.302490 -2.079884 1.357643 0
M  V30 43 H 1.605555 -1.072958 0.491282 0
M  V30 44 H 0.763550 -7.450006 1.158307 0
M  V30 END ATOM
M  V30 BEGIN BOND
M  V30 1 1 1 2
M  V30 2 1 2 3
M  V30 3 1 3 4
M  V30 4 1 3 5
M  V30 5 1 5 6
M  V30 6 1 6 7
M  V30 7 2 7 8
M  V30 8 1 8 9
M  V30 9 2 9 10
M  V30 10 1 10 11
M  V30 11 2 11 12
M  V30 12 1 12 13
M  V30 13 2 13 14
M  V30 14 1 14 15
M  V30 15 1 5 16
M  V30 16 1 16 17
M  V30 17 1 17 18
M  V30 18 1 18 19
M  V30 19 1 19 20
M  V30 20 2 20 21
M  V30 21 1 20 22 CFG=3
M  V30 22 1 20 23
M  V30 23 1 23 24
M  V30 24 2 24 25
M  V30 25 1 24 26 CFG=1
M  V30 26 1 24 27
M  V30 27 1 27 28
M  V30 28 2 28 29
M  V30 29 1 28 30
M  V30 30 1 28 31
M  V30 31 1 17 2
M  V30 32 1 10 6
M  V30 33 1 14 9
M  V30 34 1 1 32
M  V30 35 1 2 33 CFG=3
M  V30 36 1 3 34 CFG=1
M  V30 37 1 4 35
M  V30 38 1 5 36 CFG=3
M  V30 39 1 7 37
M  V30 40 1 12 38
M  V30 41 1 15 39
M  V30 42 1 15 40
M  V30 43 1 17 41 CFG=3
M  V30 44 1 18 42
M  V30 45 1 18 43
M  V30 46 1 27 44
M  V30 END BOND
M  V30 END CTAB
M  END
>  <Dataset>  (107) 
PDB

>  <Ligand_Instance>  (107) 
1CDK_ANP_A_400

>  <PDB_ID>  (107) 
1CDK

>  <Standardized_SMILES>  (107) 
[H]O[C@@]1([H])[C@@]([H])(O[H])[C@]([H])(N2C([H])=NC3=C2N=C([H])N=C3N([H])[H])O[C@]1([H])C([H])([H])O[P@](=O)([O-])O[P@](=O)([O-])N([H])P(=O)([O-])[O-]

>  <Name>  (107) 
PHOSPHOAMINOPHOSPHONIC ACID-ADENYLATE ESTER

>  <Pocket>  (107) 
A

>  <ATP_Site>  (107) 
1.0

>  <Peripheral>  (107) 
0.0

>  <Num_H_Atoms_ProtBoundConf>  (107) 
13.0

>  <Num_Resolved_Atoms>  (107) 
31.0

>  <Num_Not_Resolved_Atoms>  (107) 
0.0

>  <2D_Mol_H>  (107) 
<rdkit.Chem.rdchem.Mol object at 0x72a238da4580>

>  <MW>  (107) 
502.166

>  <HBA>  (107) 
17

>  <HBD>  (107) 
4

>  <LogP>  (107) 
-4.584

>  <NRB>  (107) 
11

>  <TPSA>  (107) 
293.25

>  <Num_Heavy_Atoms>  (107) 
31

>  <Ro5>  (107) 
[False, False, True, True, False, False]

>  <Ro5_Fulfilled>  (107) 
False

>  <Ro3>  (107) 
[False, False, False, True]

>  <Ro3_Fulfilled>  (107) 
False

>  <Fsp3>  (107) 
0.5

>  <Fsp3_0.42>  (107) 
True

>  <Fsp3_0.45>  (107) 
True

>  <Stereogenic_Carbons>  (107) 
4

>  <C_Atoms>  (107) 
10

>  <FCStereo>  (107) 
0.4

>  <SPS>  (107) 
882

>  <nSPS>  (107) 
28.451613

>  <PBF>  (107) 
1.009347

>  <PBF_0.6>  (107) 
True

>  <nPBF>  (107) 
0.03256

>  <nPBF_0.016>  (107) 
True

>  <PMI1>  (107) 
2255.801837

>  <PMI2>  (107) 
9108.79239

>  <PMI3>  (107) 
9495.45624

>  <NPR1>  (107) 
0.237566

>  <NPR2>  (107) 
0.959279

>  <Sum_NPR>  (107) 
1.196846

>  <Sum_NPR_1.07>  (107) 
True

>  <Sum_NPR_1.2>  (107) 
False

>  <MaxAbsEStateIndex>  (107) 
11.631022

>  <MaxEStateIndex>  (107) 
11.631022

>  <MinAbsEStateIndex>  (107) 
0.025434

>  <MinEStateIndex>  (107) 
-5.88789

>  <qed>  (107) 
0.246841

>  <MolWt>  (107) 
502.166

>  <HeavyAtomMolWt>  (107) 
489.062

>  <ExactMolWt>  (107) 
501.982624

>  <NumValenceElectrons>  (107) 
174

>  <NumRadicalElectrons>  (107) 
0

>  <MaxPartialCharge>  (107) 
0.273292

>  <MinPartialCharge>  (107) 
-0.799075

>  <MaxAbsPartialCharge>  (107) 
0.799075

>  <MinAbsPartialCharge>  (107) 
0.273292

>  <FpDensityMorgan1>  (107) 
1.16129

>  <FpDensityMorgan2>  (107) 
1.83871

>  <FpDensityMorgan3>  (107) 
2.483871

>  <BCUT2D_MWHI>  (107) 
31.287813

>  <BCUT2D_MWLOW>  (107) 
10.128388

>  <BCUT2D_CHGHI>  (107) 
2.44611

>  <BCUT2D_CHGLO>  (107) 
-2.388133

>  <BCUT2D_LOGPHI>  (107) 
2.552246

>  <BCUT2D_LOGPLOW>  (107) 
-2.341071

>  <BCUT2D_MRHI>  (107) 
7.684213

>  <BCUT2D_MRLOW>  (107) 
-0.316952

>  <AvgIpc>  (107) 
3.133568

>  <BalabanJ>  (107) 
1.689409

>  <BertzCT>  (107) 
1105.970439

>  <Chi0>  (107) 
23.18987

>  <Chi0n>  (107) 
14.855964

>  <Chi0v>  (107) 
17.539246

>  <Chi1>  (107) 
14.190889

>  <Chi1n>  (107) 
7.931778

>  <Chi1v>  (107) 
12.477689

>  <Chi2n>  (107) 
6.048811

>  <Chi2v>  (107) 
10.644506

>  <Chi3n>  (107) 
3.847795

>  <Chi3v>  (107) 
7.932617

>  <Chi4n>  (107) 
2.641158

>  <Chi4v>  (107) 
5.887109

>  <HallKierAlpha>  (107) 
-1.36

>  <Ipc>  (107) 
3947352.346056

>  <Kappa1>  (107) 
24.285736

>  <Kappa2>  (107) 
8.532213

>  <Kappa3>  (107) 
5.714341

>  <LabuteASA>  (107) 
171.593724

>  <PEOE_VSA1>  (107) 
49.346027

>  <PEOE_VSA10>  (107) 
30.15592

>  <PEOE_VSA11>  (107) 
17.692941

>  <PEOE_VSA12>  (107) 
7.746488

>  <PEOE_VSA13>  (107) 
7.822697

>  <PEOE_VSA14>  (107) 
0.0

>  <PEOE_VSA2>  (107) 
18.007828

>  <PEOE_VSA3>  (107) 
19.809737

>  <PEOE_VSA4>  (107) 
0.0

>  <PEOE_VSA5>  (107) 
0.0

>  <PEOE_VSA6>  (107) 
0.0

>  <PEOE_VSA7>  (107) 
0.0

>  <PEOE_VSA8>  (107) 
7.746488

>  <PEOE_VSA9>  (107) 
12.934202

>  <SMR_VSA1>  (107) 
57.053088

>  <SMR_VSA10>  (107) 
40.297415

>  <SMR_VSA2>  (107) 
0.0

>  <SMR_VSA3>  (107) 
24.376837

>  <SMR_VSA4>  (107) 
0.0

>  <SMR_VSA5>  (107) 
24.5398

>  <SMR_VSA6>  (107) 
12.340549

>  <SMR_VSA7>  (107) 
12.65464

>  <SMR_VSA8>  (107) 
0.0

>  <SMR_VSA9>  (107) 
0.0

>  <SlogP_VSA1>  (107) 
30.165115

>  <SlogP_VSA10>  (107) 
5.817863

>  <SlogP_VSA11>  (107) 
0.0

>  <SlogP_VSA12>  (107) 
23.315674

>  <SlogP_VSA2>  (107) 
54.650871

>  <SlogP_VSA3>  (107) 
27.266386

>  <SlogP_VSA4>  (107) 
0.0

>  <SlogP_VSA5>  (107) 
6.227901

>  <SlogP_VSA6>  (107) 
12.65464

>  <SlogP_VSA7>  (107) 
0.0

>  <SlogP_VSA8>  (107) 
11.163878

>  <SlogP_VSA9>  (107) 
0.0

>  <EState_VSA1>  (107) 
54.462356

>  <EState_VSA10>  (107) 
43.481846

>  <EState_VSA11>  (107) 
0.0

>  <EState_VSA2>  (107) 
16.981741

>  <EState_VSA3>  (107) 
4.857802

>  <EState_VSA4>  (107) 
6.32732

>  <EState_VSA5>  (107) 
10.89442

>  <EState_VSA6>  (107) 
0.0

>  <EState_VSA7>  (107) 
0.0

>  <EState_VSA8>  (107) 
23.786314

>  <EState_VSA9>  (107) 
10.47053

>  <VSA_EState1>  (107) 
47.639432

>  <VSA_EState10>  (107) 
0.0

>  <VSA_EState2>  (107) 
55.77868

>  <VSA_EState3>  (107) 
20.343175

>  <VSA_EState4>  (107) 
5.942789

>  <VSA_EState5>  (107) 
0.025434

>  <VSA_EState6>  (107) 
0.0

>  <VSA_EState7>  (107) 
-3.918472

>  <VSA_EState8>  (107) 
-1.049933

>  <VSA_EState9>  (107) 
-17.511105

>  <FractionCSP3>  (107) 
0.5

>  <HeavyAtomCount>  (107) 
31

>  <NHOHCount>  (107) 
5

>  <NOCount>  (107) 
18

>  <NumAliphaticCarbocycles>  (107) 
0

>  <NumAliphaticHeterocycles>  (107) 
1

>  <NumAliphaticRings>  (107) 
1

>  <NumAromaticCarbocycles>  (107) 
0

>  <NumAromaticHeterocycles>  (107) 
2

>  <NAR>  (107) 
2

>  <NumHAcceptors>  (107) 
17

>  <NumHDonors>  (107) 
4

>  <NumHeteroatoms>  (107) 
21

>  <NumRotatableBonds>  (107) 
8

>  <NumSaturatedCarbocycles>  (107) 
0

>  <NumSaturatedHeterocycles>  (107) 
1

>  <NumSaturatedRings>  (107) 
1

>  <RingCount>  (107) 
3

>  <MolLogP>  (107) 
-4.584

>  <MolMR>  (107) 
88.6512

>  <fr_Al_COO>  (107) 
0

>  <fr_Al_OH>  (107) 
2

>  <fr_Al_OH_noTert>  (107) 
2

>  <fr_ArN>  (107) 
1

>  <fr_Ar_COO>  (107) 
0

>  <fr_Ar_N>  (107) 
4

>  <fr_Ar_NH>  (107) 
0

>  <fr_Ar_OH>  (107) 
0

>  <fr_COO>  (107) 
0

>  <fr_COO2>  (107) 
0

>  <fr_C_O>  (107) 
0

>  <fr_C_O_noCOO>  (107) 
0

>  <fr_C_S>  (107) 
0

>  <fr_HOCCN>  (107) 
0

>  <fr_Imine>  (107) 
0

>  <fr_NH0>  (107) 
4

>  <fr_NH1>  (107) 
1

>  <fr_NH2>  (107) 
1

>  <fr_N_O>  (107) 
0

>  <fr_Ndealkylation1>  (107) 
0

>  <fr_Ndealkylation2>  (107) 
0

>  <fr_Nhpyrrole>  (107) 
0

>  <fr_SH>  (107) 
0

>  <fr_aldehyde>  (107) 
0

>  <fr_alkyl_carbamate>  (107) 
0

>  <fr_alkyl_halide>  (107) 
0

>  <fr_allylic_oxid>  (107) 
0

>  <fr_amide>  (107) 
0

>  <fr_amidine>  (107) 
0

>  <fr_aniline>  (107) 
1

>  <fr_aryl_methyl>  (107) 
0

>  <fr_azide>  (107) 
0

>  <fr_azo>  (107) 
0

>  <fr_barbitur>  (107) 
0

>  <fr_benzene>  (107) 
0

>  <fr_benzodiazepine>  (107) 
0

>  <fr_bicyclic>  (107) 
1

>  <fr_diazo>  (107) 
0

>  <fr_dihydropyridine>  (107) 
0

>  <fr_epoxide>  (107) 
0

>  <fr_ester>  (107) 
0

>  <fr_ether>  (107) 
1

>  <fr_furan>  (107) 
0

>  <fr_guanido>  (107) 
0

>  <fr_halogen>  (107) 
0

>  <fr_hdrzine>  (107) 
0

>  <fr_hdrzone>  (107) 
0

>  <fr_imidazole>  (107) 
1

>  <fr_imide>  (107) 
0

>  <fr_isocyan>  (107) 
0

>  <fr_isothiocyan>  (107) 
0

>  <fr_ketone>  (107) 
0

>  <fr_ketone_Topliss>  (107) 
0

>  <fr_lactam>  (107) 
0

>  <fr_lactone>  (107) 
0

>  <fr_methoxy>  (107) 
0

>  <fr_morpholine>  (107) 
0

>  <fr_nitrile>  (107) 
0

>  <fr_nitro>  (107) 
0

>  <fr_nitro_arom>  (107) 
0

>  <fr_nitro_arom_nonortho>  (107) 
0

>  <fr_nitroso>  (107) 
0

>  <fr_oxazole>  (107) 
0

>  <fr_oxime>  (107) 
0

>  <fr_para_hydroxylation>  (107) 
0

>  <fr_phenol>  (107) 
0

>  <fr_phenol_noOrthoHbond>  (107) 
0

>  <fr_phos_acid>  (107) 
1

>  <fr_phos_ester>  (107) 
1

>  <fr_piperdine>  (107) 
0

>  <fr_piperzine>  (107) 
0

>  <fr_priamide>  (107) 
0

>  <fr_prisulfonamd>  (107) 
0

>  <fr_pyridine>  (107) 
0

>  <fr_quatN>  (107) 
0

>  <fr_sulfide>  (107) 
0

>  <fr_sulfonamd>  (107) 
0

>  <fr_sulfone>  (107) 
0

>  <fr_term_acetylene>  (107) 
0

>  <fr_tetrazole>  (107) 
0

>  <fr_thiazole>  (107) 
0

>  <fr_thiocyan>  (107) 
0

>  <fr_thiophene>  (107) 
0

>  <fr_unbrch_alkane>  (107) 
0

>  <fr_urea>  (107) 
0

>  <NP-Likeness>  (107) 
0.781644

$$$$
ANP
     RDKit          3D

  0  0  0  0  0  0  0  0  0  0999 V3000
M  V30 BEGIN CTAB
M  V30 COUNTS 44 46 0 0 0
M  V30 BEGIN ATOM
M  V30 1 O -0.695907 -0.352663 -2.648680 0
M  V30 2 C 0.287716 -0.632771 -1.695539 0 CFG=1
M  V30 3 C 0.755801 0.734905 -1.180767 0 CFG=1
M  V30 4 O 0.817679 1.565722 -2.290114 0
M  V30 5 C -0.388257 1.057103 -0.248182 0 CFG=2
M  V30 6 N -0.002806 1.934380 0.844747 0
M  V30 7 C 0.819379 1.643501 1.868661 0
M  V30 8 N 0.937393 2.710053 2.685776 0
M  V30 9 C 0.190445 3.711687 2.201416 0
M  V30 10 C -0.387796 3.210040 1.054280 0
M  V30 11 N -1.213160 4.036993 0.349857 0
M  V30 12 C -1.451449 5.309757 0.771705 0
M  V30 13 N -0.880199 5.784622 1.892447 0
M  V30 14 C -0.070219 5.009876 2.605984 0
M  V30 15 N 0.569073 5.452959 3.806786 0
M  V30 16 O -0.821163 -0.135494 0.289383 0
M  V30 17 C -0.327644 -1.189960 -0.434697 0 CFG=2
M  V30 18 C 0.792726 -1.807912 0.408854 0
M  V30 19 O 1.376479 -2.910987 -0.245667 0
M  V30 20 P 2.609887 -3.590492 0.684126 0 CFG=2 VAL=5
M  V30 21 O 2.798908 -2.740631 1.938883 0
M  V30 22 O 4.071495 -3.451516 -0.193416 0 CHG=-1 VAL=1
M  V30 23 O 2.391584 -5.192726 1.058900 0
M  V30 24 P 1.327718 -5.522383 2.288669 0 CFG=2 VAL=5
M  V30 25 O 0.621214 -4.352360 2.873162 0
M  V30 26 O 2.228369 -6.222783 3.563216 0 CHG=-1 VAL=1
M  V30 27 N 0.227015 -6.769371 1.724564 0
M  V30 28 P -1.081137 -6.091338 0.794405 0
M  V30 29 O -1.621422 -4.835722 1.399666 0
M  V30 30 O -0.564198 -5.868351 -0.797332 0 CHG=-1 VAL=1
M  V30 31 O -2.348242 -7.222588 0.759276 0 CHG=-1 VAL=1
M  V30 32 H -1.496843 -0.034440 -2.200301 0
M  V30 33 H 1.121970 -1.230156 -2.070755 0
M  V30 34 H 1.706097 0.634646 -0.632895 0
M  V30 35 H 1.755388 1.730419 -2.573087 0
M  V30 36 H -1.167376 1.557615 -0.854712 0
M  V30 37 H 1.338204 0.718148 2.066242 0
M  V30 38 H -2.107380 5.942182 0.196937 0
M  V30 39 H 0.479502 5.016674 4.754472 0
M  V30 40 H 1.185105 6.290589 3.739264 0
M  V30 41 H -1.057657 -1.965196 -0.685177 0
M  V30 42 H 0.302490 -2.079884 1.357643 0
M  V30 43 H 1.605555 -1.072958 0.491282 0
M  V30 44 H 0.763550 -7.450006 1.158307 0
M  V30 END ATOM
M  V30 BEGIN BOND
M  V30 1 1 1 2
M  V30 2 1 2 3
M  V30 3 1 3 4
M  V30 4 1 3 5
M  V30 5 1 5 6
M  V30 6 1 6 7
M  V30 7 2 7 8
M  V30 8 1 8 9
M  V30 9 2 9 10
M  V30 10 1 10 11
M  V30 11 2 11 12
M  V30 12 1 12 13
M  V30 13 2 13 14
M  V30 14 1 14 15
M  V30 15 1 5 16
M  V30 16 1 16 17
M  V30 17 1 17 18
M  V30 18 1 18 19
M  V30 19 1 19 20
M  V30 20 2 20 21
M  V30 21 1 20 22 CFG=3
M  V30 22 1 20 23
M  V30 23 1 23 24
M  V30 24 2 24 25
M  V30 25 1 24 26 CFG=1
M  V30 26 1 24 27
M  V30 27 1 27 28
M  V30 28 2 28 29
M  V30 29 1 28 30
M  V30 30 1 28 31
M  V30 31 1 17 2
M  V30 32 1 10 6
M  V30 33 1 14 9
M  V30 34 1 1 32
M  V30 35 1 2 33 CFG=3
M  V30 36 1 3 34 CFG=1
M  V30 37 1 4 35
M  V30 38 1 5 36 CFG=3
M  V30 39 1 7 37
M  V30 40 1 12 38
M  V30 41 1 15 39
M  V30 42 1 15 40
M  V30 43 1 17 41 CFG=3
M  V30 44 1 18 42
M  V30 45 1 18 43
M  V30 46 1 27 44
M  V30 END BOND
M  V30 END CTAB
M  END
>  <Dataset>  (108) 
PDB

>  <Ligand_Instance>  (108) 
1CDK_ANP_B_400

>  <PDB_ID>  (108) 
1CDK

>  <Standardized_SMILES>  (108) 
[H]O[C@@]1([H])[C@@]([H])(O[H])[C@]([H])(N2C([H])=NC3=C2N=C([H])N=C3N([H])[H])O[C@]1([H])C([H])([H])O[P@](=O)([O-])O[P@](=O)([O-])N([H])P(=O)([O-])[O-]

>  <Name>  (108) 
PHOSPHOAMINOPHOSPHONIC ACID-ADENYLATE ESTER

>  <Pocket>  (108) 
A

>  <ATP_Site>  (108) 
1.0

>  <Peripheral>  (108) 
0.0

>  <Num_H_Atoms_ProtBoundConf>  (108) 
13.0

>  <Num_Resolved_Atoms>  (108) 
31.0

>  <Num_Not_Resolved_Atoms>  (108) 
0.0

>  <2D_Mol_H>  (108) 
<rdkit.Chem.rdchem.Mol object at 0x72a238da4660>

>  <MW>  (108) 
502.166

>  <HBA>  (108) 
17

>  <HBD>  (108) 
4

>  <LogP>  (108) 
-4.584

>  <NRB>  (108) 
11

>  <TPSA>  (108) 
293.25

>  <Num_Heavy_Atoms>  (108) 
31

>  <Ro5>  (108) 
[False, False, True, True, False, False]

>  <Ro5_Fulfilled>  (108) 
False

>  <Ro3>  (108) 
[False, False, False, True]

>  <Ro3_Fulfilled>  (108) 
False

>  <Fsp3>  (108) 
0.5

>  <Fsp3_0.42>  (108) 
True

>  <Fsp3_0.45>  (108) 
True

>  <Stereogenic_Carbons>  (108) 
4

>  <C_Atoms>  (108) 
10

>  <FCStereo>  (108) 
0.4

>  <SPS>  (108) 
882

>  <nSPS>  (108) 
28.451613

>  <PBF>  (108) 
1.009347

>  <PBF_0.6>  (108) 
True

>  <nPBF>  (108) 
0.03256

>  <nPBF_0.016>  (108) 
True

>  <PMI1>  (108) 
2255.801837

>  <PMI2>  (108) 
9108.79239

>  <PMI3>  (108) 
9495.45624

>  <NPR1>  (108) 
0.237566

>  <NPR2>  (108) 
0.959279

>  <Sum_NPR>  (108) 
1.196846

>  <Sum_NPR_1.07>  (108) 
True

>  <Sum_NPR_1.2>  (108) 
False

>  <MaxAbsEStateIndex>  (108) 
11.631022

>  <MaxEStateIndex>  (108) 
11.631022

>  <MinAbsEStateIndex>  (108) 
0.025434

>  <MinEStateIndex>  (108) 
-5.88789

>  <qed>  (108) 
0.246841

>  <MolWt>  (108) 
502.166

>  <HeavyAtomMolWt>  (108) 
489.062

>  <ExactMolWt>  (108) 
501.982624

>  <NumValenceElectrons>  (108) 
174

>  <NumRadicalElectrons>  (108) 
0

>  <MaxPartialCharge>  (108) 
0.273292

>  <MinPartialCharge>  (108) 
-0.799075

>  <MaxAbsPartialCharge>  (108) 
0.799075

>  <MinAbsPartialCharge>  (108) 
0.273292

>  <FpDensityMorgan1>  (108) 
1.16129

>  <FpDensityMorgan2>  (108) 
1.83871

>  <FpDensityMorgan3>  (108) 
2.483871

>  <BCUT2D_MWHI>  (108) 
31.287813

>  <BCUT2D_MWLOW>  (108) 
10.128388

>  <BCUT2D_CHGHI>  (108) 
2.44611

>  <BCUT2D_CHGLO>  (108) 
-2.388133

>  <BCUT2D_LOGPHI>  (108) 
2.552246

>  <BCUT2D_LOGPLOW>  (108) 
-2.341071

>  <BCUT2D_MRHI>  (108) 
7.684213

>  <BCUT2D_MRLOW>  (108) 
-0.316952

>  <AvgIpc>  (108) 
3.133568

>  <BalabanJ>  (108) 
1.689409

>  <BertzCT>  (108) 
1105.970439

>  <Chi0>  (108) 
23.18987

>  <Chi0n>  (108) 
14.855964

>  <Chi0v>  (108) 
17.539246

>  <Chi1>  (108) 
14.190889

>  <Chi1n>  (108) 
7.931778

>  <Chi1v>  (108) 
12.477689

>  <Chi2n>  (108) 
6.048811

>  <Chi2v>  (108) 
10.644506

>  <Chi3n>  (108) 
3.847795

>  <Chi3v>  (108) 
7.932617

>  <Chi4n>  (108) 
2.641158

>  <Chi4v>  (108) 
5.887109

>  <HallKierAlpha>  (108) 
-1.36

>  <Ipc>  (108) 
3947352.346056

>  <Kappa1>  (108) 
24.285736

>  <Kappa2>  (108) 
8.532213

>  <Kappa3>  (108) 
5.714341

>  <LabuteASA>  (108) 
171.593724

>  <PEOE_VSA1>  (108) 
49.346027

>  <PEOE_VSA10>  (108) 
30.15592

>  <PEOE_VSA11>  (108) 
17.692941

>  <PEOE_VSA12>  (108) 
7.746488

>  <PEOE_VSA13>  (108) 
7.822697

>  <PEOE_VSA14>  (108) 
0.0

>  <PEOE_VSA2>  (108) 
18.007828

>  <PEOE_VSA3>  (108) 
19.809737

>  <PEOE_VSA4>  (108) 
0.0

>  <PEOE_VSA5>  (108) 
0.0

>  <PEOE_VSA6>  (108) 
0.0

>  <PEOE_VSA7>  (108) 
0.0

>  <PEOE_VSA8>  (108) 
7.746488

>  <PEOE_VSA9>  (108) 
12.934202

>  <SMR_VSA1>  (108) 
57.053088

>  <SMR_VSA10>  (108) 
40.297415

>  <SMR_VSA2>  (108) 
0.0

>  <SMR_VSA3>  (108) 
24.376837

>  <SMR_VSA4>  (108) 
0.0

>  <SMR_VSA5>  (108) 
24.5398

>  <SMR_VSA6>  (108) 
12.340549

>  <SMR_VSA7>  (108) 
12.65464

>  <SMR_VSA8>  (108) 
0.0

>  <SMR_VSA9>  (108) 
0.0

>  <SlogP_VSA1>  (108) 
30.165115

>  <SlogP_VSA10>  (108) 
5.817863

>  <SlogP_VSA11>  (108) 
0.0

>  <SlogP_VSA12>  (108) 
23.315674

>  <SlogP_VSA2>  (108) 
54.650871

>  <SlogP_VSA3>  (108) 
27.266386

>  <SlogP_VSA4>  (108) 
0.0

>  <SlogP_VSA5>  (108) 
6.227901

>  <SlogP_VSA6>  (108) 
12.65464

>  <SlogP_VSA7>  (108) 
0.0

>  <SlogP_VSA8>  (108) 
11.163878

>  <SlogP_VSA9>  (108) 
0.0

>  <EState_VSA1>  (108) 
54.462356

>  <EState_VSA10>  (108) 
43.481846

>  <EState_VSA11>  (108) 
0.0

>  <EState_VSA2>  (108) 
16.981741

>  <EState_VSA3>  (108) 
4.857802

>  <EState_VSA4>  (108) 
6.32732

>  <EState_VSA5>  (108) 
10.89442

>  <EState_VSA6>  (108) 
0.0

>  <EState_VSA7>  (108) 
0.0

>  <EState_VSA8>  (108) 
23.786314

>  <EState_VSA9>  (108) 
10.47053

>  <VSA_EState1>  (108) 
47.639432

>  <VSA_EState10>  (108) 
0.0

>  <VSA_EState2>  (108) 
55.77868

>  <VSA_EState3>  (108) 
20.343175

>  <VSA_EState4>  (108) 
5.942789

>  <VSA_EState5>  (108) 
0.025434

>  <VSA_EState6>  (108) 
0.0

>  <VSA_EState7>  (108) 
-3.918472

>  <VSA_EState8>  (108) 
-1.049933

>  <VSA_EState9>  (108) 
-17.511105

>  <FractionCSP3>  (108) 
0.5

>  <HeavyAtomCount>  (108) 
31

>  <NHOHCount>  (108) 
5

>  <NOCount>  (108) 
18

>  <NumAliphaticCarbocycles>  (108) 
0

>  <NumAliphaticHeterocycles>  (108) 
1

>  <NumAliphaticRings>  (108) 
1

>  <NumAromaticCarbocycles>  (108) 
0

>  <NumAromaticHeterocycles>  (108) 
2

>  <NAR>  (108) 
2

>  <NumHAcceptors>  (108) 
17

>  <NumHDonors>  (108) 
4

>  <NumHeteroatoms>  (108) 
21

>  <NumRotatableBonds>  (108) 
8

>  <NumSaturatedCarbocycles>  (108) 
0

>  <NumSaturatedHeterocycles>  (108) 
1

>  <NumSaturatedRings>  (108) 
1

>  <RingCount>  (108) 
3

>  <MolLogP>  (108) 
-4.584

>  <MolMR>  (108) 
88.6512

>  <fr_Al_COO>  (108) 
0

>  <fr_Al_OH>  (108) 
2

>  <fr_Al_OH_noTert>  (108) 
2

>  <fr_ArN>  (108) 
1

>  <fr_Ar_COO>  (108) 
0

>  <fr_Ar_N>  (108) 
4

>  <fr_Ar_NH>  (108) 
0

>  <fr_Ar_OH>  (108) 
0

>  <fr_COO>  (108) 
0

>  <fr_COO2>  (108) 
0

>  <fr_C_O>  (108) 
0

>  <fr_C_O_noCOO>  (108) 
0

>  <fr_C_S>  (108) 
0

>  <fr_HOCCN>  (108) 
0

>  <fr_Imine>  (108) 
0

>  <fr_NH0>  (108) 
4

>  <fr_NH1>  (108) 
1

>  <fr_NH2>  (108) 
1

>  <fr_N_O>  (108) 
0

>  <fr_Ndealkylation1>  (108) 
0

>  <fr_Ndealkylation2>  (108) 
0

>  <fr_Nhpyrrole>  (108) 
0

>  <fr_SH>  (108) 
0

>  <fr_aldehyde>  (108) 
0

>  <fr_alkyl_carbamate>  (108) 
0

>  <fr_alkyl_halide>  (108) 
0

>  <fr_allylic_oxid>  (108) 
0

>  <fr_amide>  (108) 
0

>  <fr_amidine>  (108) 
0

>  <fr_aniline>  (108) 
1

>  <fr_aryl_methyl>  (108) 
0

>  <fr_azide>  (108) 
0

>  <fr_azo>  (108) 
0

>  <fr_barbitur>  (108) 
0

>  <fr_benzene>  (108) 
0

>  <fr_benzodiazepine>  (108) 
0

>  <fr_bicyclic>  (108) 
1

>  <fr_diazo>  (108) 
0

>  <fr_dihydropyridine>  (108) 
0

>  <fr_epoxide>  (108) 
0

>  <fr_ester>  (108) 
0

>  <fr_ether>  (108) 
1

>  <fr_furan>  (108) 
0

>  <fr_guanido>  (108) 
0

>  <fr_halogen>  (108) 
0

>  <fr_hdrzine>  (108) 
0

>  <fr_hdrzone>  (108) 
0

>  <fr_imidazole>  (108) 
1

>  <fr_imide>  (108) 
0

>  <fr_isocyan>  (108) 
0

>  <fr_isothiocyan>  (108) 
0

>  <fr_ketone>  (108) 
0

>  <fr_ketone_Topliss>  (108) 
0

>  <fr_lactam>  (108) 
0

>  <fr_lactone>  (108) 
0

>  <fr_methoxy>  (108) 
0

>  <fr_morpholine>  (108) 
0

>  <fr_nitrile>  (108) 
0

>  <fr_nitro>  (108) 
0

>  <fr_nitro_arom>  (108) 
0

>  <fr_nitro_arom_nonortho>  (108) 
0

>  <fr_nitroso>  (108) 
0

>  <fr_oxazole>  (108) 
0

>  <fr_oxime>  (108) 
0

>  <fr_para_hydroxylation>  (108) 
0

>  <fr_phenol>  (108) 
0

>  <fr_phenol_noOrthoHbond>  (108) 
0

>  <fr_phos_acid>  (108) 
1

>  <fr_phos_ester>  (108) 
1

>  <fr_piperdine>  (108) 
0

>  <fr_piperzine>  (108) 
0

>  <fr_priamide>  (108) 
0

>  <fr_prisulfonamd>  (108) 
0

>  <fr_pyridine>  (108) 
0

>  <fr_quatN>  (108) 
0

>  <fr_sulfide>  (108) 
0

>  <fr_sulfonamd>  (108) 
0

>  <fr_sulfone>  (108) 
0

>  <fr_term_acetylene>  (108) 
0

>  <fr_tetrazole>  (108) 
0

>  <fr_thiazole>  (108) 
0

>  <fr_thiocyan>  (108) 
0

>  <fr_thiophene>  (108) 
0

>  <fr_unbrch_alkane>  (108) 
0

>  <fr_urea>  (108) 
0

>  <NP-Likeness>  (108) 
0.781644

$$$$
ANP
     RDKit          3D

  0  0  0  0  0  0  0  0  0  0999 V3000
M  V30 BEGIN CTAB
M  V30 COUNTS 44 46 0 0 0
M  V30 BEGIN ATOM
M  V30 1 O 3.804972 0.256954 0.199957 0
M  V30 2 C 3.071562 -0.699356 0.920550 0 CFG=1
M  V30 3 C 2.793476 -0.034110 2.276014 0 CFG=1
M  V30 4 O 3.860673 0.729209 2.714109 0
M  V30 5 C 1.609080 0.829414 1.819143 0 CFG=2
M  V30 6 N 0.999910 1.511799 2.929364 0
M  V30 7 C 1.391537 1.566846 4.215518 0
M  V30 8 N 0.497200 2.328062 4.870940 0
M  V30 9 C -0.438095 2.741281 4.005576 0
M  V30 10 C -0.127687 2.225293 2.758228 0
M  V30 11 N -0.936299 2.512619 1.726839 0
M  V30 12 C -2.037811 3.277333 1.833979 0
M  V30 13 N -2.324767 3.770978 3.054492 0
M  V30 14 C -1.574365 3.538385 4.149548 0
M  V30 15 N -1.883559 4.063176 5.435864 0
M  V30 16 O 0.817449 -0.147290 1.265944 0
M  V30 17 C 1.662532 -0.768875 0.348130 0 CFG=2
M  V30 18 C 1.309787 -2.234938 0.170964 0
M  V30 19 O 0.019078 -2.406076 -0.286665 0
M  V30 20 P -0.346050 -4.056956 -0.475479 0 CFG=2 VAL=5
M  V30 21 O -1.830535 -4.254716 -0.233766 0
M  V30 22 O 0.494676 -4.914502 0.738920 0 CHG=-1 VAL=1
M  V30 23 O 0.115221 -4.633660 -1.996434 0
M  V30 24 P -1.264318 -4.755191 -2.995361 0 CFG=1 VAL=5
M  V30 25 O -1.667435 -6.203821 -3.149764 0
M  V30 26 O -2.565210 -3.932456 -2.258537 0 CHG=-1 VAL=1
M  V30 27 N -0.939646 -4.114999 -4.589935 0
M  V30 28 P -1.697966 -2.558248 -4.844712 0
M  V30 29 O -2.758341 -2.369451 -3.768950 0
M  V30 30 O -0.580966 -1.290427 -4.770205 0 CHG=-1 VAL=1
M  V30 31 O -2.485242 -2.506038 -6.334258 0 CHG=-1 VAL=1
M  V30 32 H 4.661309 -0.073356 -0.117656 0
M  V30 33 H 3.563103 -1.667569 1.007388 0
M  V30 34 H 2.460322 -0.797577 3.003953 0
M  V30 35 H 4.271901 0.218109 3.465092 0
M  V30 36 H 1.999913 1.478554 1.031413 0
M  V30 37 H 2.260112 1.076506 4.587367 0
M  V30 38 H -2.671125 3.489463 0.973906 0
M  V30 39 H -1.695810 4.896999 6.038486 0
M  V30 40 H -1.619631 4.947964 5.938005 0
M  V30 41 H 1.585363 -0.287887 -0.643267 0
M  V30 42 H 2.086832 -2.659649 -0.503986 0
M  V30 43 H 1.425899 -2.693440 1.183988 0
M  V30 44 H 0.080834 -4.069179 -4.817113 0
M  V30 END ATOM
M  V30 BEGIN BOND
M  V30 1 1 1 2
M  V30 2 1 2 3
M  V30 3 1 3 4
M  V30 4 1 3 5
M  V30 5 1 5 6
M  V30 6 1 6 7
M  V30 7 2 7 8
M  V30 8 1 8 9
M  V30 9 2 9 10
M  V30 10 1 10 11
M  V30 11 2 11 12
M  V30 12 1 12 13
M  V30 13 2 13 14
M  V30 14 1 14 15
M  V30 15 1 5 16
M  V30 16 1 16 17
M  V30 17 1 17 18
M  V30 18 1 18 19
M  V30 19 1 19 20
M  V30 20 2 20 21
M  V30 21 1 20 22 CFG=1
M  V30 22 1 20 23
M  V30 23 1 23 24
M  V30 24 2 24 25
M  V30 25 1 24 26 CFG=1
M  V30 26 1 24 27
M  V30 27 1 27 28
M  V30 28 2 28 29
M  V30 29 1 28 30
M  V30 30 1 28 31
M  V30 31 1 17 2
M  V30 32 1 10 6
M  V30 33 1 14 9
M  V30 34 1 1 32
M  V30 35 1 2 33 CFG=1
M  V30 36 1 3 34 CFG=1
M  V30 37 1 4 35
M  V30 38 1 5 36 CFG=3
M  V30 39 1 7 37
M  V30 40 1 12 38
M  V30 41 1 15 39
M  V30 42 1 15 40
M  V30 43 1 17 41 CFG=3
M  V30 44 1 18 42
M  V30 45 1 18 43
M  V30 46 1 27 44
M  V30 END BOND
M  V30 END CTAB
M  END
>  <Dataset>  (109) 
PDB

>  <Ligand_Instance>  (109) 
4DFX_ANP_E_402

>  <PDB_ID>  (109) 
4DFX

>  <Standardized_SMILES>  (109) 
[H]O[C@@]1([H])[C@@]([H])(O[H])[C@]([H])(N2C([H])=NC3=C2N=C([H])N=C3N([H])[H])O[C@]1([H])C([H])([H])O[P@](=O)([O-])O[P@@](=O)([O-])N([H])P(=O)([O-])[O-]

>  <Name>  (109) 
PHOSPHOAMINOPHOSPHONIC ACID-ADENYLATE ESTER

>  <Pocket>  (109) 
A

>  <ATP_Site>  (109) 
1.0

>  <Peripheral>  (109) 
0.0

>  <Num_H_Atoms_ProtBoundConf>  (109) 
13.0

>  <Num_Resolved_Atoms>  (109) 
31.0

>  <Num_Not_Resolved_Atoms>  (109) 
0.0

>  <2D_Mol_H>  (109) 
<rdkit.Chem.rdchem.Mol object at 0x72a238da4740>

>  <MW>  (109) 
502.166

>  <HBA>  (109) 
17

>  <HBD>  (109) 
4

>  <LogP>  (109) 
-4.584

>  <NRB>  (109) 
11

>  <TPSA>  (109) 
293.25

>  <Num_Heavy_Atoms>  (109) 
31

>  <Ro5>  (109) 
[False, False, True, True, False, False]

>  <Ro5_Fulfilled>  (109) 
False

>  <Ro3>  (109) 
[False, False, False, True]

>  <Ro3_Fulfilled>  (109) 
False

>  <Fsp3>  (109) 
0.5

>  <Fsp3_0.42>  (109) 
True

>  <Fsp3_0.45>  (109) 
True

>  <Stereogenic_Carbons>  (109) 
4

>  <C_Atoms>  (109) 
10

>  <FCStereo>  (109) 
0.4

>  <SPS>  (109) 
882

>  <nSPS>  (109) 
28.451613

>  <PBF>  (109) 
1.009701

>  <PBF_0.6>  (109) 
True

>  <nPBF>  (109) 
0.032571

>  <nPBF_0.016>  (109) 
True

>  <PMI1>  (109) 
2650.741576

>  <PMI2>  (109) 
9393.551801

>  <PMI3>  (109) 
10259.69058

>  <NPR1>  (109) 
0.258365

>  <NPR2>  (109) 
0.915578

>  <Sum_NPR>  (109) 
1.173943

>  <Sum_NPR_1.07>  (109) 
True

>  <Sum_NPR_1.2>  (109) 
False

>  <MaxAbsEStateIndex>  (109) 
11.631022

>  <MaxEStateIndex>  (109) 
11.631022

>  <MinAbsEStateIndex>  (109) 
0.025434

>  <MinEStateIndex>  (109) 
-5.88789

>  <qed>  (109) 
0.246841

>  <MolWt>  (109) 
502.166

>  <HeavyAtomMolWt>  (109) 
489.062

>  <ExactMolWt>  (109) 
501.982624

>  <NumValenceElectrons>  (109) 
174

>  <NumRadicalElectrons>  (109) 
0

>  <MaxPartialCharge>  (109) 
0.273292

>  <MinPartialCharge>  (109) 
-0.799075

>  <MaxAbsPartialCharge>  (109) 
0.799075

>  <MinAbsPartialCharge>  (109) 
0.273292

>  <FpDensityMorgan1>  (109) 
1.16129

>  <FpDensityMorgan2>  (109) 
1.83871

>  <FpDensityMorgan3>  (109) 
2.483871

>  <BCUT2D_MWHI>  (109) 
31.287813

>  <BCUT2D_MWLOW>  (109) 
10.128388

>  <BCUT2D_CHGHI>  (109) 
2.44611

>  <BCUT2D_CHGLO>  (109) 
-2.388133

>  <BCUT2D_LOGPHI>  (109) 
2.552246

>  <BCUT2D_LOGPLOW>  (109) 
-2.341071

>  <BCUT2D_MRHI>  (109) 
7.684213

>  <BCUT2D_MRLOW>  (109) 
-0.316952

>  <AvgIpc>  (109) 
3.133568

>  <BalabanJ>  (109) 
1.689409

>  <BertzCT>  (109) 
1105.970439

>  <Chi0>  (109) 
23.18987

>  <Chi0n>  (109) 
14.855964

>  <Chi0v>  (109) 
17.539246

>  <Chi1>  (109) 
14.190889

>  <Chi1n>  (109) 
7.931778

>  <Chi1v>  (109) 
12.477689

>  <Chi2n>  (109) 
6.048811

>  <Chi2v>  (109) 
10.644506

>  <Chi3n>  (109) 
3.847795

>  <Chi3v>  (109) 
7.932617

>  <Chi4n>  (109) 
2.641158

>  <Chi4v>  (109) 
5.887109

>  <HallKierAlpha>  (109) 
-1.36

>  <Ipc>  (109) 
3947352.346056

>  <Kappa1>  (109) 
24.285736

>  <Kappa2>  (109) 
8.532213

>  <Kappa3>  (109) 
5.714341

>  <LabuteASA>  (109) 
171.593724

>  <PEOE_VSA1>  (109) 
49.346027

>  <PEOE_VSA10>  (109) 
30.15592

>  <PEOE_VSA11>  (109) 
17.692941

>  <PEOE_VSA12>  (109) 
7.746488

>  <PEOE_VSA13>  (109) 
7.822697

>  <PEOE_VSA14>  (109) 
0.0

>  <PEOE_VSA2>  (109) 
18.007828

>  <PEOE_VSA3>  (109) 
19.809737

>  <PEOE_VSA4>  (109) 
0.0

>  <PEOE_VSA5>  (109) 
0.0

>  <PEOE_VSA6>  (109) 
0.0

>  <PEOE_VSA7>  (109) 
0.0

>  <PEOE_VSA8>  (109) 
7.746488

>  <PEOE_VSA9>  (109) 
12.934202

>  <SMR_VSA1>  (109) 
57.053088

>  <SMR_VSA10>  (109) 
40.297415

>  <SMR_VSA2>  (109) 
0.0

>  <SMR_VSA3>  (109) 
24.376837

>  <SMR_VSA4>  (109) 
0.0

>  <SMR_VSA5>  (109) 
24.5398

>  <SMR_VSA6>  (109) 
12.340549

>  <SMR_VSA7>  (109) 
12.65464

>  <SMR_VSA8>  (109) 
0.0

>  <SMR_VSA9>  (109) 
0.0

>  <SlogP_VSA1>  (109) 
30.165115

>  <SlogP_VSA10>  (109) 
5.817863

>  <SlogP_VSA11>  (109) 
0.0

>  <SlogP_VSA12>  (109) 
23.315674

>  <SlogP_VSA2>  (109) 
54.650871

>  <SlogP_VSA3>  (109) 
27.266386

>  <SlogP_VSA4>  (109) 
0.0

>  <SlogP_VSA5>  (109) 
6.227901

>  <SlogP_VSA6>  (109) 
12.65464

>  <SlogP_VSA7>  (109) 
0.0

>  <SlogP_VSA8>  (109) 
11.163878

>  <SlogP_VSA9>  (109) 
0.0

>  <EState_VSA1>  (109) 
54.462356

>  <EState_VSA10>  (109) 
43.481846

>  <EState_VSA11>  (109) 
0.0

>  <EState_VSA2>  (109) 
16.981741

>  <EState_VSA3>  (109) 
4.857802

>  <EState_VSA4>  (109) 
6.32732

>  <EState_VSA5>  (109) 
10.89442

>  <EState_VSA6>  (109) 
0.0

>  <EState_VSA7>  (109) 
0.0

>  <EState_VSA8>  (109) 
23.786314

>  <EState_VSA9>  (109) 
10.47053

>  <VSA_EState1>  (109) 
47.639432

>  <VSA_EState10>  (109) 
0.0

>  <VSA_EState2>  (109) 
55.77868

>  <VSA_EState3>  (109) 
20.343175

>  <VSA_EState4>  (109) 
5.942789

>  <VSA_EState5>  (109) 
0.025434

>  <VSA_EState6>  (109) 
0.0

>  <VSA_EState7>  (109) 
-3.918472

>  <VSA_EState8>  (109) 
-1.049933

>  <VSA_EState9>  (109) 
-17.511105

>  <FractionCSP3>  (109) 
0.5

>  <HeavyAtomCount>  (109) 
31

>  <NHOHCount>  (109) 
5

>  <NOCount>  (109) 
18

>  <NumAliphaticCarbocycles>  (109) 
0

>  <NumAliphaticHeterocycles>  (109) 
1

>  <NumAliphaticRings>  (109) 
1

>  <NumAromaticCarbocycles>  (109) 
0

>  <NumAromaticHeterocycles>  (109) 
2

>  <NAR>  (109) 
2

>  <NumHAcceptors>  (109) 
17

>  <NumHDonors>  (109) 
4

>  <NumHeteroatoms>  (109) 
21

>  <NumRotatableBonds>  (109) 
8

>  <NumSaturatedCarbocycles>  (109) 
0

>  <NumSaturatedHeterocycles>  (109) 
1

>  <NumSaturatedRings>  (109) 
1

>  <RingCount>  (109) 
3

>  <MolLogP>  (109) 
-4.584

>  <MolMR>  (109) 
88.6512

>  <fr_Al_COO>  (109) 
0

>  <fr_Al_OH>  (109) 
2

>  <fr_Al_OH_noTert>  (109) 
2

>  <fr_ArN>  (109) 
1

>  <fr_Ar_COO>  (109) 
0

>  <fr_Ar_N>  (109) 
4

>  <fr_Ar_NH>  (109) 
0

>  <fr_Ar_OH>  (109) 
0

>  <fr_COO>  (109) 
0

>  <fr_COO2>  (109) 
0

>  <fr_C_O>  (109) 
0

>  <fr_C_O_noCOO>  (109) 
0

>  <fr_C_S>  (109) 
0

>  <fr_HOCCN>  (109) 
0

>  <fr_Imine>  (109) 
0

>  <fr_NH0>  (109) 
4

>  <fr_NH1>  (109) 
1

>  <fr_NH2>  (109) 
1

>  <fr_N_O>  (109) 
0

>  <fr_Ndealkylation1>  (109) 
0

>  <fr_Ndealkylation2>  (109) 
0

>  <fr_Nhpyrrole>  (109) 
0

>  <fr_SH>  (109) 
0

>  <fr_aldehyde>  (109) 
0

>  <fr_alkyl_carbamate>  (109) 
0

>  <fr_alkyl_halide>  (109) 
0

>  <fr_allylic_oxid>  (109) 
0

>  <fr_amide>  (109) 
0

>  <fr_amidine>  (109) 
0

>  <fr_aniline>  (109) 
1

>  <fr_aryl_methyl>  (109) 
0

>  <fr_azide>  (109) 
0

>  <fr_azo>  (109) 
0

>  <fr_barbitur>  (109) 
0

>  <fr_benzene>  (109) 
0

>  <fr_benzodiazepine>  (109) 
0

>  <fr_bicyclic>  (109) 
1

>  <fr_diazo>  (109) 
0

>  <fr_dihydropyridine>  (109) 
0

>  <fr_epoxide>  (109) 
0

>  <fr_ester>  (109) 
0

>  <fr_ether>  (109) 
1

>  <fr_furan>  (109) 
0

>  <fr_guanido>  (109) 
0

>  <fr_halogen>  (109) 
0

>  <fr_hdrzine>  (109) 
0

>  <fr_hdrzone>  (109) 
0

>  <fr_imidazole>  (109) 
1

>  <fr_imide>  (109) 
0

>  <fr_isocyan>  (109) 
0

>  <fr_isothiocyan>  (109) 
0

>  <fr_ketone>  (109) 
0

>  <fr_ketone_Topliss>  (109) 
0

>  <fr_lactam>  (109) 
0

>  <fr_lactone>  (109) 
0

>  <fr_methoxy>  (109) 
0

>  <fr_morpholine>  (109) 
0

>  <fr_nitrile>  (109) 
0

>  <fr_nitro>  (109) 
0

>  <fr_nitro_arom>  (109) 
0

>  <fr_nitro_arom_nonortho>  (109) 
0

>  <fr_nitroso>  (109) 
0

>  <fr_oxazole>  (109) 
0

>  <fr_oxime>  (109) 
0

>  <fr_para_hydroxylation>  (109) 
0

>  <fr_phenol>  (109) 
0

>  <fr_phenol_noOrthoHbond>  (109) 
0

>  <fr_phos_acid>  (109) 
1

>  <fr_phos_ester>  (109) 
1

>  <fr_piperdine>  (109) 
0

>  <fr_piperzine>  (109) 
0

>  <fr_priamide>  (109) 
0

>  <fr_prisulfonamd>  (109) 
0

>  <fr_pyridine>  (109) 
0

>  <fr_quatN>  (109) 
0

>  <fr_sulfide>  (109) 
0

>  <fr_sulfonamd>  (109) 
0

>  <fr_sulfone>  (109) 
0

>  <fr_term_acetylene>  (109) 
0

>  <fr_tetrazole>  (109) 
0

>  <fr_thiazole>  (109) 
0

>  <fr_thiocyan>  (109) 
0

>  <fr_thiophene>  (109) 
0

>  <fr_unbrch_alkane>  (109) 
0

>  <fr_urea>  (109) 
0

>  <NP-Likeness>  (109) 
0.781644

$$$$
ANP
     RDKit          3D

  0  0  0  0  0  0  0  0  0  0999 V3000
M  V30 BEGIN CTAB
M  V30 COUNTS 44 46 0 0 0
M  V30 BEGIN ATOM
M  V30 1 O 3.804972 0.256954 0.199957 0
M  V30 2 C 3.071562 -0.699356 0.920550 0 CFG=1
M  V30 3 C 2.793476 -0.034110 2.276014 0 CFG=1
M  V30 4 O 3.860673 0.729209 2.714109 0
M  V30 5 C 1.609080 0.829414 1.819143 0 CFG=2
M  V30 6 N 0.999910 1.511799 2.929364 0
M  V30 7 C 1.391537 1.566846 4.215518 0
M  V30 8 N 0.497200 2.328062 4.870940 0
M  V30 9 C -0.438095 2.741281 4.005576 0
M  V30 10 C -0.127687 2.225293 2.758228 0
M  V30 11 N -0.936299 2.512619 1.726839 0
M  V30 12 C -2.037811 3.277333 1.833979 0
M  V30 13 N -2.324767 3.770978 3.054492 0
M  V30 14 C -1.574365 3.538385 4.149548 0
M  V30 15 N -1.883559 4.063176 5.435864 0
M  V30 16 O 0.817449 -0.147290 1.265944 0
M  V30 17 C 1.662532 -0.768875 0.348130 0 CFG=2
M  V30 18 C 1.309787 -2.234938 0.170964 0
M  V30 19 O 0.019078 -2.406076 -0.286665 0
M  V30 20 P -0.346050 -4.056956 -0.475479 0 CFG=2 VAL=5
M  V30 21 O -1.830535 -4.254716 -0.233766 0
M  V30 22 O 0.494676 -4.914502 0.738920 0 CHG=-1 VAL=1
M  V30 23 O 0.115221 -4.633660 -1.996434 0
M  V30 24 P -1.264318 -4.755191 -2.995361 0 CFG=1 VAL=5
M  V30 25 O -1.667435 -6.203821 -3.149764 0
M  V30 26 O -2.565210 -3.932456 -2.258537 0 CHG=-1 VAL=1
M  V30 27 N -0.939646 -4.114999 -4.589935 0
M  V30 28 P -1.697966 -2.558248 -4.844712 0
M  V30 29 O -2.758341 -2.369451 -3.768950 0
M  V30 30 O -0.580966 -1.290427 -4.770205 0 CHG=-1 VAL=1
M  V30 31 O -2.485242 -2.506038 -6.334258 0 CHG=-1 VAL=1
M  V30 32 H 4.661309 -0.073356 -0.117656 0
M  V30 33 H 3.563103 -1.667569 1.007388 0
M  V30 34 H 2.460322 -0.797577 3.003953 0
M  V30 35 H 4.271901 0.218109 3.465092 0
M  V30 36 H 1.999913 1.478554 1.031413 0
M  V30 37 H 2.260112 1.076506 4.587367 0
M  V30 38 H -2.671125 3.489463 0.973906 0
M  V30 39 H -1.695810 4.896999 6.038486 0
M  V30 40 H -1.619631 4.947964 5.938005 0
M  V30 41 H 1.585363 -0.287887 -0.643267 0
M  V30 42 H 2.086832 -2.659649 -0.503986 0
M  V30 43 H 1.425899 -2.693440 1.183988 0
M  V30 44 H 0.080834 -4.069179 -4.817113 0
M  V30 END ATOM
M  V30 BEGIN BOND
M  V30 1 1 1 2
M  V30 2 1 2 3
M  V30 3 1 3 4
M  V30 4 1 3 5
M  V30 5 1 5 6
M  V30 6 1 6 7
M  V30 7 2 7 8
M  V30 8 1 8 9
M  V30 9 2 9 10
M  V30 10 1 10 11
M  V30 11 2 11 12
M  V30 12 1 12 13
M  V30 13 2 13 14
M  V30 14 1 14 15
M  V30 15 1 5 16
M  V30 16 1 16 17
M  V30 17 1 17 18
M  V30 18 1 18 19
M  V30 19 1 19 20
M  V30 20 2 20 21
M  V30 21 1 20 22 CFG=1
M  V30 22 1 20 23
M  V30 23 1 23 24
M  V30 24 2 24 25
M  V30 25 1 24 26 CFG=1
M  V30 26 1 24 27
M  V30 27 1 27 28
M  V30 28 2 28 29
M  V30 29 1 28 30
M  V30 30 1 28 31
M  V30 31 1 17 2
M  V30 32 1 10 6
M  V30 33 1 14 9
M  V30 34 1 1 32
M  V30 35 1 2 33 CFG=1
M  V30 36 1 3 34 CFG=1
M  V30 37 1 4 35
M  V30 38 1 5 36 CFG=3
M  V30 39 1 7 37
M  V30 40 1 12 38
M  V30 41 1 15 39
M  V30 42 1 15 40
M  V30 43 1 17 41 CFG=3
M  V30 44 1 18 42
M  V30 45 1 18 43
M  V30 46 1 27 44
M  V30 END BOND
M  V30 END CTAB
M  END
>  <Dataset>  (110) 
PDB

>  <Ligand_Instance>  (110) 
4DG0_ANP_E_402

>  <PDB_ID>  (110) 
4DG0

>  <Standardized_SMILES>  (110) 
[H]O[C@@]1([H])[C@@]([H])(O[H])[C@]([H])(N2C([H])=NC3=C2N=C([H])N=C3N([H])[H])O[C@]1([H])C([H])([H])O[P@](=O)([O-])O[P@@](=O)([O-])N([H])P(=O)([O-])[O-]

>  <Name>  (110) 
PHOSPHOAMINOPHOSPHONIC ACID-ADENYLATE ESTER

>  <Pocket>  (110) 
A

>  <ATP_Site>  (110) 
1.0

>  <Peripheral>  (110) 
0.0

>  <Num_H_Atoms_ProtBoundConf>  (110) 
13.0

>  <Num_Resolved_Atoms>  (110) 
31.0

>  <Num_Not_Resolved_Atoms>  (110) 
0.0

>  <2D_Mol_H>  (110) 
<rdkit.Chem.rdchem.Mol object at 0x72a238da4820>

>  <MW>  (110) 
502.166

>  <HBA>  (110) 
17

>  <HBD>  (110) 
4

>  <LogP>  (110) 
-4.584

>  <NRB>  (110) 
11

>  <TPSA>  (110) 
293.25

>  <Num_Heavy_Atoms>  (110) 
31

>  <Ro5>  (110) 
[False, False, True, True, False, False]

>  <Ro5_Fulfilled>  (110) 
False

>  <Ro3>  (110) 
[False, False, False, True]

>  <Ro3_Fulfilled>  (110) 
False

>  <Fsp3>  (110) 
0.5

>  <Fsp3_0.42>  (110) 
True

>  <Fsp3_0.45>  (110) 
True

>  <Stereogenic_Carbons>  (110) 
4

>  <C_Atoms>  (110) 
10

>  <FCStereo>  (110) 
0.4

>  <SPS>  (110) 
882

>  <nSPS>  (110) 
28.451613

>  <PBF>  (110) 
1.009701

>  <PBF_0.6>  (110) 
True

>  <nPBF>  (110) 
0.032571

>  <nPBF_0.016>  (110) 
True

>  <PMI1>  (110) 
2650.741576

>  <PMI2>  (110) 
9393.551801

>  <PMI3>  (110) 
10259.69058

>  <NPR1>  (110) 
0.258365

>  <NPR2>  (110) 
0.915578

>  <Sum_NPR>  (110) 
1.173943

>  <Sum_NPR_1.07>  (110) 
True

>  <Sum_NPR_1.2>  (110) 
False

>  <MaxAbsEStateIndex>  (110) 
11.631022

>  <MaxEStateIndex>  (110) 
11.631022

>  <MinAbsEStateIndex>  (110) 
0.025434

>  <MinEStateIndex>  (110) 
-5.88789

>  <qed>  (110) 
0.246841

>  <MolWt>  (110) 
502.166

>  <HeavyAtomMolWt>  (110) 
489.062

>  <ExactMolWt>  (110) 
501.982624

>  <NumValenceElectrons>  (110) 
174

>  <NumRadicalElectrons>  (110) 
0

>  <MaxPartialCharge>  (110) 
0.273292

>  <MinPartialCharge>  (110) 
-0.799075

>  <MaxAbsPartialCharge>  (110) 
0.799075

>  <MinAbsPartialCharge>  (110) 
0.273292

>  <FpDensityMorgan1>  (110) 
1.16129

>  <FpDensityMorgan2>  (110) 
1.83871

>  <FpDensityMorgan3>  (110) 
2.483871

>  <BCUT2D_MWHI>  (110) 
31.287813

>  <BCUT2D_MWLOW>  (110) 
10.128388

>  <BCUT2D_CHGHI>  (110) 
2.44611

>  <BCUT2D_CHGLO>  (110) 
-2.388133

>  <BCUT2D_LOGPHI>  (110) 
2.552246

>  <BCUT2D_LOGPLOW>  (110) 
-2.341071

>  <BCUT2D_MRHI>  (110) 
7.684213

>  <BCUT2D_MRLOW>  (110) 
-0.316952

>  <AvgIpc>  (110) 
3.133568

>  <BalabanJ>  (110) 
1.689409

>  <BertzCT>  (110) 
1105.970439

>  <Chi0>  (110) 
23.18987

>  <Chi0n>  (110) 
14.855964

>  <Chi0v>  (110) 
17.539246

>  <Chi1>  (110) 
14.190889

>  <Chi1n>  (110) 
7.931778

>  <Chi1v>  (110) 
12.477689

>  <Chi2n>  (110) 
6.048811

>  <Chi2v>  (110) 
10.644506

>  <Chi3n>  (110) 
3.847795

>  <Chi3v>  (110) 
7.932617

>  <Chi4n>  (110) 
2.641158

>  <Chi4v>  (110) 
5.887109

>  <HallKierAlpha>  (110) 
-1.36

>  <Ipc>  (110) 
3947352.346056

>  <Kappa1>  (110) 
24.285736

>  <Kappa2>  (110) 
8.532213

>  <Kappa3>  (110) 
5.714341

>  <LabuteASA>  (110) 
171.593724

>  <PEOE_VSA1>  (110) 
49.346027

>  <PEOE_VSA10>  (110) 
30.15592

>  <PEOE_VSA11>  (110) 
17.692941

>  <PEOE_VSA12>  (110) 
7.746488

>  <PEOE_VSA13>  (110) 
7.822697

>  <PEOE_VSA14>  (110) 
0.0

>  <PEOE_VSA2>  (110) 
18.007828

>  <PEOE_VSA3>  (110) 
19.809737

>  <PEOE_VSA4>  (110) 
0.0

>  <PEOE_VSA5>  (110) 
0.0

>  <PEOE_VSA6>  (110) 
0.0

>  <PEOE_VSA7>  (110) 
0.0

>  <PEOE_VSA8>  (110) 
7.746488

>  <PEOE_VSA9>  (110) 
12.934202

>  <SMR_VSA1>  (110) 
57.053088

>  <SMR_VSA10>  (110) 
40.297415

>  <SMR_VSA2>  (110) 
0.0

>  <SMR_VSA3>  (110) 
24.376837

>  <SMR_VSA4>  (110) 
0.0

>  <SMR_VSA5>  (110) 
24.5398

>  <SMR_VSA6>  (110) 
12.340549

>  <SMR_VSA7>  (110) 
12.65464

>  <SMR_VSA8>  (110) 
0.0

>  <SMR_VSA9>  (110) 
0.0

>  <SlogP_VSA1>  (110) 
30.165115

>  <SlogP_VSA10>  (110) 
5.817863

>  <SlogP_VSA11>  (110) 
0.0

>  <SlogP_VSA12>  (110) 
23.315674

>  <SlogP_VSA2>  (110) 
54.650871

>  <SlogP_VSA3>  (110) 
27.266386

>  <SlogP_VSA4>  (110) 
0.0

>  <SlogP_VSA5>  (110) 
6.227901

>  <SlogP_VSA6>  (110) 
12.65464

>  <SlogP_VSA7>  (110) 
0.0

>  <SlogP_VSA8>  (110) 
11.163878

>  <SlogP_VSA9>  (110) 
0.0

>  <EState_VSA1>  (110) 
54.462356

>  <EState_VSA10>  (110) 
43.481846

>  <EState_VSA11>  (110) 
0.0

>  <EState_VSA2>  (110) 
16.981741

>  <EState_VSA3>  (110) 
4.857802

>  <EState_VSA4>  (110) 
6.32732

>  <EState_VSA5>  (110) 
10.89442

>  <EState_VSA6>  (110) 
0.0

>  <EState_VSA7>  (110) 
0.0

>  <EState_VSA8>  (110) 
23.786314

>  <EState_VSA9>  (110) 
10.47053

>  <VSA_EState1>  (110) 
47.639432

>  <VSA_EState10>  (110) 
0.0

>  <VSA_EState2>  (110) 
55.77868

>  <VSA_EState3>  (110) 
20.343175

>  <VSA_EState4>  (110) 
5.942789

>  <VSA_EState5>  (110) 
0.025434

>  <VSA_EState6>  (110) 
0.0

>  <VSA_EState7>  (110) 
-3.918472

>  <VSA_EState8>  (110) 
-1.049933

>  <VSA_EState9>  (110) 
-17.511105

>  <FractionCSP3>  (110) 
0.5

>  <HeavyAtomCount>  (110) 
31

>  <NHOHCount>  (110) 
5

>  <NOCount>  (110) 
18

>  <NumAliphaticCarbocycles>  (110) 
0

>  <NumAliphaticHeterocycles>  (110) 
1

>  <NumAliphaticRings>  (110) 
1

>  <NumAromaticCarbocycles>  (110) 
0

>  <NumAromaticHeterocycles>  (110) 
2

>  <NAR>  (110) 
2

>  <NumHAcceptors>  (110) 
17

>  <NumHDonors>  (110) 
4

>  <NumHeteroatoms>  (110) 
21

>  <NumRotatableBonds>  (110) 
8

>  <NumSaturatedCarbocycles>  (110) 
0

>  <NumSaturatedHeterocycles>  (110) 
1

>  <NumSaturatedRings>  (110) 
1

>  <RingCount>  (110) 
3

>  <MolLogP>  (110) 
-4.584

>  <MolMR>  (110) 
88.6512

>  <fr_Al_COO>  (110) 
0

>  <fr_Al_OH>  (110) 
2

>  <fr_Al_OH_noTert>  (110) 
2

>  <fr_ArN>  (110) 
1

>  <fr_Ar_COO>  (110) 
0

>  <fr_Ar_N>  (110) 
4

>  <fr_Ar_NH>  (110) 
0

>  <fr_Ar_OH>  (110) 
0

>  <fr_COO>  (110) 
0

>  <fr_COO2>  (110) 
0

>  <fr_C_O>  (110) 
0

>  <fr_C_O_noCOO>  (110) 
0

>  <fr_C_S>  (110) 
0

>  <fr_HOCCN>  (110) 
0

>  <fr_Imine>  (110) 
0

>  <fr_NH0>  (110) 
4

>  <fr_NH1>  (110) 
1

>  <fr_NH2>  (110) 
1

>  <fr_N_O>  (110) 
0

>  <fr_Ndealkylation1>  (110) 
0

>  <fr_Ndealkylation2>  (110) 
0

>  <fr_Nhpyrrole>  (110) 
0

>  <fr_SH>  (110) 
0

>  <fr_aldehyde>  (110) 
0

>  <fr_alkyl_carbamate>  (110) 
0

>  <fr_alkyl_halide>  (110) 
0

>  <fr_allylic_oxid>  (110) 
0

>  <fr_amide>  (110) 
0

>  <fr_amidine>  (110) 
0

>  <fr_aniline>  (110) 
1

>  <fr_aryl_methyl>  (110) 
0

>  <fr_azide>  (110) 
0

>  <fr_azo>  (110) 
0

>  <fr_barbitur>  (110) 
0

>  <fr_benzene>  (110) 
0

>  <fr_benzodiazepine>  (110) 
0

>  <fr_bicyclic>  (110) 
1

>  <fr_diazo>  (110) 
0

>  <fr_dihydropyridine>  (110) 
0

>  <fr_epoxide>  (110) 
0

>  <fr_ester>  (110) 
0

>  <fr_ether>  (110) 
1

>  <fr_furan>  (110) 
0

>  <fr_guanido>  (110) 
0

>  <fr_halogen>  (110) 
0

>  <fr_hdrzine>  (110) 
0

>  <fr_hdrzone>  (110) 
0

>  <fr_imidazole>  (110) 
1

>  <fr_imide>  (110) 
0

>  <fr_isocyan>  (110) 
0

>  <fr_isothiocyan>  (110) 
0

>  <fr_ketone>  (110) 
0

>  <fr_ketone_Topliss>  (110) 
0

>  <fr_lactam>  (110) 
0

>  <fr_lactone>  (110) 
0

>  <fr_methoxy>  (110) 
0

>  <fr_morpholine>  (110) 
0

>  <fr_nitrile>  (110) 
0

>  <fr_nitro>  (110) 
0

>  <fr_nitro_arom>  (110) 
0

>  <fr_nitro_arom_nonortho>  (110) 
0

>  <fr_nitroso>  (110) 
0

>  <fr_oxazole>  (110) 
0

>  <fr_oxime>  (110) 
0

>  <fr_para_hydroxylation>  (110) 
0

>  <fr_phenol>  (110) 
0

>  <fr_phenol_noOrthoHbond>  (110) 
0

>  <fr_phos_acid>  (110) 
1

>  <fr_phos_ester>  (110) 
1

>  <fr_piperdine>  (110) 
0

>  <fr_piperzine>  (110) 
0

>  <fr_priamide>  (110) 
0

>  <fr_prisulfonamd>  (110) 
0

>  <fr_pyridine>  (110) 
0

>  <fr_quatN>  (110) 
0

>  <fr_sulfide>  (110) 
0

>  <fr_sulfonamd>  (110) 
0

>  <fr_sulfone>  (110) 
0

>  <fr_term_acetylene>  (110) 
0

>  <fr_tetrazole>  (110) 
0

>  <fr_thiazole>  (110) 
0

>  <fr_thiocyan>  (110) 
0

>  <fr_thiophene>  (110) 
0

>  <fr_unbrch_alkane>  (110) 
0

>  <fr_urea>  (110) 
0

>  <NP-Likeness>  (110) 
0.781644

$$$$
ANP
     RDKit          3D

  0  0  0  0  0  0  0  0  0  0999 V3000
M  V30 BEGIN CTAB
M  V30 COUNTS 44 46 0 0 0
M  V30 BEGIN ATOM
M  V30 1 O 3.804972 0.256954 0.199957 0
M  V30 2 C 3.071562 -0.699356 0.920550 0 CFG=1
M  V30 3 C 2.793476 -0.034110 2.276014 0 CFG=1
M  V30 4 O 3.860673 0.729209 2.714109 0
M  V30 5 C 1.609080 0.829414 1.819143 0 CFG=2
M  V30 6 N 0.999910 1.511799 2.929364 0
M  V30 7 C 1.391537 1.566846 4.215518 0
M  V30 8 N 0.497200 2.328062 4.870940 0
M  V30 9 C -0.438095 2.741281 4.005576 0
M  V30 10 C -0.127687 2.225293 2.758228 0
M  V30 11 N -0.936299 2.512619 1.726839 0
M  V30 12 C -2.037811 3.277333 1.833979 0
M  V30 13 N -2.324767 3.770978 3.054492 0
M  V30 14 C -1.574365 3.538385 4.149548 0
M  V30 15 N -1.883559 4.063176 5.435864 0
M  V30 16 O 0.817449 -0.147290 1.265944 0
M  V30 17 C 1.662532 -0.768875 0.348130 0 CFG=2
M  V30 18 C 1.309787 -2.234938 0.170964 0
M  V30 19 O 0.019078 -2.406076 -0.286665 0
M  V30 20 P -0.346050 -4.056956 -0.475479 0 CFG=2 VAL=5
M  V30 21 O -1.830535 -4.254716 -0.233766 0
M  V30 22 O 0.494676 -4.914502 0.738920 0 CHG=-1 VAL=1
M  V30 23 O 0.115221 -4.633660 -1.996434 0
M  V30 24 P -1.264318 -4.755191 -2.995361 0 CFG=1 VAL=5
M  V30 25 O -1.667435 -6.203821 -3.149764 0
M  V30 26 O -2.565210 -3.932456 -2.258537 0 CHG=-1 VAL=1
M  V30 27 N -0.939646 -4.114999 -4.589935 0
M  V30 28 P -1.697966 -2.558248 -4.844712 0
M  V30 29 O -2.758341 -2.369451 -3.768950 0
M  V30 30 O -0.580966 -1.290427 -4.770205 0 CHG=-1 VAL=1
M  V30 31 O -2.485242 -2.506038 -6.334258 0 CHG=-1 VAL=1
M  V30 32 H 4.661309 -0.073356 -0.117656 0
M  V30 33 H 3.563103 -1.667569 1.007388 0
M  V30 34 H 2.460322 -0.797577 3.003953 0
M  V30 35 H 4.271901 0.218109 3.465092 0
M  V30 36 H 1.999913 1.478554 1.031413 0
M  V30 37 H 2.260112 1.076506 4.587367 0
M  V30 38 H -2.671125 3.489463 0.973906 0
M  V30 39 H -1.695810 4.896999 6.038486 0
M  V30 40 H -1.619631 4.947964 5.938005 0
M  V30 41 H 1.585363 -0.287887 -0.643267 0
M  V30 42 H 2.086832 -2.659649 -0.503986 0
M  V30 43 H 1.425899 -2.693440 1.183988 0
M  V30 44 H 0.080834 -4.069179 -4.817113 0
M  V30 END ATOM
M  V30 BEGIN BOND
M  V30 1 1 1 2
M  V30 2 1 2 3
M  V30 3 1 3 4
M  V30 4 1 3 5
M  V30 5 1 5 6
M  V30 6 1 6 7
M  V30 7 2 7 8
M  V30 8 1 8 9
M  V30 9 2 9 10
M  V30 10 1 10 11
M  V30 11 2 11 12
M  V30 12 1 12 13
M  V30 13 2 13 14
M  V30 14 1 14 15
M  V30 15 1 5 16
M  V30 16 1 16 17
M  V30 17 1 17 18
M  V30 18 1 18 19
M  V30 19 1 19 20
M  V30 20 2 20 21
M  V30 21 1 20 22 CFG=1
M  V30 22 1 20 23
M  V30 23 1 23 24
M  V30 24 2 24 25
M  V30 25 1 24 26 CFG=1
M  V30 26 1 24 27
M  V30 27 1 27 28
M  V30 28 2 28 29
M  V30 29 1 28 30
M  V30 30 1 28 31
M  V30 31 1 17 2
M  V30 32 1 10 6
M  V30 33 1 14 9
M  V30 34 1 1 32
M  V30 35 1 2 33 CFG=1
M  V30 36 1 3 34 CFG=1
M  V30 37 1 4 35
M  V30 38 1 5 36 CFG=3
M  V30 39 1 7 37
M  V30 40 1 12 38
M  V30 41 1 15 39
M  V30 42 1 15 40
M  V30 43 1 17 41 CFG=3
M  V30 44 1 18 42
M  V30 45 1 18 43
M  V30 46 1 27 44
M  V30 END BOND
M  V30 END CTAB
M  END
>  <Dataset>  (111) 
PDB

>  <Ligand_Instance>  (111) 
4DG3_ANP_E_401

>  <PDB_ID>  (111) 
4DG3

>  <Standardized_SMILES>  (111) 
[H]O[C@@]1([H])[C@@]([H])(O[H])[C@]([H])(N2C([H])=NC3=C2N=C([H])N=C3N([H])[H])O[C@]1([H])C([H])([H])O[P@](=O)([O-])O[P@@](=O)([O-])N([H])P(=O)([O-])[O-]

>  <Name>  (111) 
PHOSPHOAMINOPHOSPHONIC ACID-ADENYLATE ESTER

>  <Pocket>  (111) 
A

>  <ATP_Site>  (111) 
1.0

>  <Peripheral>  (111) 
0.0

>  <Num_H_Atoms_ProtBoundConf>  (111) 
13.0

>  <Num_Resolved_Atoms>  (111) 
31.0

>  <Num_Not_Resolved_Atoms>  (111) 
0.0

>  <2D_Mol_H>  (111) 
<rdkit.Chem.rdchem.Mol object at 0x72a238da4900>

>  <MW>  (111) 
502.166

>  <HBA>  (111) 
17

>  <HBD>  (111) 
4

>  <LogP>  (111) 
-4.584

>  <NRB>  (111) 
11

>  <TPSA>  (111) 
293.25

>  <Num_Heavy_Atoms>  (111) 
31

>  <Ro5>  (111) 
[False, False, True, True, False, False]

>  <Ro5_Fulfilled>  (111) 
False

>  <Ro3>  (111) 
[False, False, False, True]

>  <Ro3_Fulfilled>  (111) 
False

>  <Fsp3>  (111) 
0.5

>  <Fsp3_0.42>  (111) 
True

>  <Fsp3_0.45>  (111) 
True

>  <Stereogenic_Carbons>  (111) 
4

>  <C_Atoms>  (111) 
10

>  <FCStereo>  (111) 
0.4

>  <SPS>  (111) 
882

>  <nSPS>  (111) 
28.451613

>  <PBF>  (111) 
1.009701

>  <PBF_0.6>  (111) 
True

>  <nPBF>  (111) 
0.032571

>  <nPBF_0.016>  (111) 
True

>  <PMI1>  (111) 
2650.741576

>  <PMI2>  (111) 
9393.551801

>  <PMI3>  (111) 
10259.69058

>  <NPR1>  (111) 
0.258365

>  <NPR2>  (111) 
0.915578

>  <Sum_NPR>  (111) 
1.173943

>  <Sum_NPR_1.07>  (111) 
True

>  <Sum_NPR_1.2>  (111) 
False

>  <MaxAbsEStateIndex>  (111) 
11.631022

>  <MaxEStateIndex>  (111) 
11.631022

>  <MinAbsEStateIndex>  (111) 
0.025434

>  <MinEStateIndex>  (111) 
-5.88789

>  <qed>  (111) 
0.246841

>  <MolWt>  (111) 
502.166

>  <HeavyAtomMolWt>  (111) 
489.062

>  <ExactMolWt>  (111) 
501.982624

>  <NumValenceElectrons>  (111) 
174

>  <NumRadicalElectrons>  (111) 
0

>  <MaxPartialCharge>  (111) 
0.273292

>  <MinPartialCharge>  (111) 
-0.799075

>  <MaxAbsPartialCharge>  (111) 
0.799075

>  <MinAbsPartialCharge>  (111) 
0.273292

>  <FpDensityMorgan1>  (111) 
1.16129

>  <FpDensityMorgan2>  (111) 
1.83871

>  <FpDensityMorgan3>  (111) 
2.483871

>  <BCUT2D_MWHI>  (111) 
31.287813

>  <BCUT2D_MWLOW>  (111) 
10.128388

>  <BCUT2D_CHGHI>  (111) 
2.44611

>  <BCUT2D_CHGLO>  (111) 
-2.388133

>  <BCUT2D_LOGPHI>  (111) 
2.552246

>  <BCUT2D_LOGPLOW>  (111) 
-2.341071

>  <BCUT2D_MRHI>  (111) 
7.684213

>  <BCUT2D_MRLOW>  (111) 
-0.316952

>  <AvgIpc>  (111) 
3.133568

>  <BalabanJ>  (111) 
1.689409

>  <BertzCT>  (111) 
1105.970439

>  <Chi0>  (111) 
23.18987

>  <Chi0n>  (111) 
14.855964

>  <Chi0v>  (111) 
17.539246

>  <Chi1>  (111) 
14.190889

>  <Chi1n>  (111) 
7.931778

>  <Chi1v>  (111) 
12.477689

>  <Chi2n>  (111) 
6.048811

>  <Chi2v>  (111) 
10.644506

>  <Chi3n>  (111) 
3.847795

>  <Chi3v>  (111) 
7.932617

>  <Chi4n>  (111) 
2.641158

>  <Chi4v>  (111) 
5.887109

>  <HallKierAlpha>  (111) 
-1.36

>  <Ipc>  (111) 
3947352.346056

>  <Kappa1>  (111) 
24.285736

>  <Kappa2>  (111) 
8.532213

>  <Kappa3>  (111) 
5.714341

>  <LabuteASA>  (111) 
171.593724

>  <PEOE_VSA1>  (111) 
49.346027

>  <PEOE_VSA10>  (111) 
30.15592

>  <PEOE_VSA11>  (111) 
17.692941

>  <PEOE_VSA12>  (111) 
7.746488

>  <PEOE_VSA13>  (111) 
7.822697

>  <PEOE_VSA14>  (111) 
0.0

>  <PEOE_VSA2>  (111) 
18.007828

>  <PEOE_VSA3>  (111) 
19.809737

>  <PEOE_VSA4>  (111) 
0.0

>  <PEOE_VSA5>  (111) 
0.0

>  <PEOE_VSA6>  (111) 
0.0

>  <PEOE_VSA7>  (111) 
0.0

>  <PEOE_VSA8>  (111) 
7.746488

>  <PEOE_VSA9>  (111) 
12.934202

>  <SMR_VSA1>  (111) 
57.053088

>  <SMR_VSA10>  (111) 
40.297415

>  <SMR_VSA2>  (111) 
0.0

>  <SMR_VSA3>  (111) 
24.376837

>  <SMR_VSA4>  (111) 
0.0

>  <SMR_VSA5>  (111) 
24.5398

>  <SMR_VSA6>  (111) 
12.340549

>  <SMR_VSA7>  (111) 
12.65464

>  <SMR_VSA8>  (111) 
0.0

>  <SMR_VSA9>  (111) 
0.0

>  <SlogP_VSA1>  (111) 
30.165115

>  <SlogP_VSA10>  (111) 
5.817863

>  <SlogP_VSA11>  (111) 
0.0

>  <SlogP_VSA12>  (111) 
23.315674

>  <SlogP_VSA2>  (111) 
54.650871

>  <SlogP_VSA3>  (111) 
27.266386

>  <SlogP_VSA4>  (111) 
0.0

>  <SlogP_VSA5>  (111) 
6.227901

>  <SlogP_VSA6>  (111) 
12.65464

>  <SlogP_VSA7>  (111) 
0.0

>  <SlogP_VSA8>  (111) 
11.163878

>  <SlogP_VSA9>  (111) 
0.0

>  <EState_VSA1>  (111) 
54.462356

>  <EState_VSA10>  (111) 
43.481846

>  <EState_VSA11>  (111) 
0.0

>  <EState_VSA2>  (111) 
16.981741

>  <EState_VSA3>  (111) 
4.857802

>  <EState_VSA4>  (111) 
6.32732

>  <EState_VSA5>  (111) 
10.89442

>  <EState_VSA6>  (111) 
0.0

>  <EState_VSA7>  (111) 
0.0

>  <EState_VSA8>  (111) 
23.786314

>  <EState_VSA9>  (111) 
10.47053

>  <VSA_EState1>  (111) 
47.639432

>  <VSA_EState10>  (111) 
0.0

>  <VSA_EState2>  (111) 
55.77868

>  <VSA_EState3>  (111) 
20.343175

>  <VSA_EState4>  (111) 
5.942789

>  <VSA_EState5>  (111) 
0.025434

>  <VSA_EState6>  (111) 
0.0

>  <VSA_EState7>  (111) 
-3.918472

>  <VSA_EState8>  (111) 
-1.049933

>  <VSA_EState9>  (111) 
-17.511105

>  <FractionCSP3>  (111) 
0.5

>  <HeavyAtomCount>  (111) 
31

>  <NHOHCount>  (111) 
5

>  <NOCount>  (111) 
18

>  <NumAliphaticCarbocycles>  (111) 
0

>  <NumAliphaticHeterocycles>  (111) 
1

>  <NumAliphaticRings>  (111) 
1

>  <NumAromaticCarbocycles>  (111) 
0

>  <NumAromaticHeterocycles>  (111) 
2

>  <NAR>  (111) 
2

>  <NumHAcceptors>  (111) 
17

>  <NumHDonors>  (111) 
4

>  <NumHeteroatoms>  (111) 
21

>  <NumRotatableBonds>  (111) 
8

>  <NumSaturatedCarbocycles>  (111) 
0

>  <NumSaturatedHeterocycles>  (111) 
1

>  <NumSaturatedRings>  (111) 
1

>  <RingCount>  (111) 
3

>  <MolLogP>  (111) 
-4.584

>  <MolMR>  (111) 
88.6512

>  <fr_Al_COO>  (111) 
0

>  <fr_Al_OH>  (111) 
2

>  <fr_Al_OH_noTert>  (111) 
2

>  <fr_ArN>  (111) 
1

>  <fr_Ar_COO>  (111) 
0

>  <fr_Ar_N>  (111) 
4

>  <fr_Ar_NH>  (111) 
0

>  <fr_Ar_OH>  (111) 
0

>  <fr_COO>  (111) 
0

>  <fr_COO2>  (111) 
0

>  <fr_C_O>  (111) 
0

>  <fr_C_O_noCOO>  (111) 
0

>  <fr_C_S>  (111) 
0

>  <fr_HOCCN>  (111) 
0

>  <fr_Imine>  (111) 
0

>  <fr_NH0>  (111) 
4

>  <fr_NH1>  (111) 
1

>  <fr_NH2>  (111) 
1

>  <fr_N_O>  (111) 
0

>  <fr_Ndealkylation1>  (111) 
0

>  <fr_Ndealkylation2>  (111) 
0

>  <fr_Nhpyrrole>  (111) 
0

>  <fr_SH>  (111) 
0

>  <fr_aldehyde>  (111) 
0

>  <fr_alkyl_carbamate>  (111) 
0

>  <fr_alkyl_halide>  (111) 
0

>  <fr_allylic_oxid>  (111) 
0

>  <fr_amide>  (111) 
0

>  <fr_amidine>  (111) 
0

>  <fr_aniline>  (111) 
1

>  <fr_aryl_methyl>  (111) 
0

>  <fr_azide>  (111) 
0

>  <fr_azo>  (111) 
0

>  <fr_barbitur>  (111) 
0

>  <fr_benzene>  (111) 
0

>  <fr_benzodiazepine>  (111) 
0

>  <fr_bicyclic>  (111) 
1

>  <fr_diazo>  (111) 
0

>  <fr_dihydropyridine>  (111) 
0

>  <fr_epoxide>  (111) 
0

>  <fr_ester>  (111) 
0

>  <fr_ether>  (111) 
1

>  <fr_furan>  (111) 
0

>  <fr_guanido>  (111) 
0

>  <fr_halogen>  (111) 
0

>  <fr_hdrzine>  (111) 
0

>  <fr_hdrzone>  (111) 
0

>  <fr_imidazole>  (111) 
1

>  <fr_imide>  (111) 
0

>  <fr_isocyan>  (111) 
0

>  <fr_isothiocyan>  (111) 
0

>  <fr_ketone>  (111) 
0

>  <fr_ketone_Topliss>  (111) 
0

>  <fr_lactam>  (111) 
0

>  <fr_lactone>  (111) 
0

>  <fr_methoxy>  (111) 
0

>  <fr_morpholine>  (111) 
0

>  <fr_nitrile>  (111) 
0

>  <fr_nitro>  (111) 
0

>  <fr_nitro_arom>  (111) 
0

>  <fr_nitro_arom_nonortho>  (111) 
0

>  <fr_nitroso>  (111) 
0

>  <fr_oxazole>  (111) 
0

>  <fr_oxime>  (111) 
0

>  <fr_para_hydroxylation>  (111) 
0

>  <fr_phenol>  (111) 
0

>  <fr_phenol_noOrthoHbond>  (111) 
0

>  <fr_phos_acid>  (111) 
1

>  <fr_phos_ester>  (111) 
1

>  <fr_piperdine>  (111) 
0

>  <fr_piperzine>  (111) 
0

>  <fr_priamide>  (111) 
0

>  <fr_prisulfonamd>  (111) 
0

>  <fr_pyridine>  (111) 
0

>  <fr_quatN>  (111) 
0

>  <fr_sulfide>  (111) 
0

>  <fr_sulfonamd>  (111) 
0

>  <fr_sulfone>  (111) 
0

>  <fr_term_acetylene>  (111) 
0

>  <fr_tetrazole>  (111) 
0

>  <fr_thiazole>  (111) 
0

>  <fr_thiocyan>  (111) 
0

>  <fr_thiophene>  (111) 
0

>  <fr_unbrch_alkane>  (111) 
0

>  <fr_urea>  (111) 
0

>  <NP-Likeness>  (111) 
0.781644

$$$$
ANP
     RDKit          3D

  0  0  0  0  0  0  0  0  0  0999 V3000
M  V30 BEGIN CTAB
M  V30 COUNTS 44 46 0 0 0
M  V30 BEGIN ATOM
M  V30 1 O 3.804972 0.256954 0.199957 0
M  V30 2 C 3.071562 -0.699356 0.920550 0 CFG=1
M  V30 3 C 2.793476 -0.034110 2.276014 0 CFG=1
M  V30 4 O 3.860673 0.729209 2.714109 0
M  V30 5 C 1.609080 0.829414 1.819143 0 CFG=2
M  V30 6 N 0.999910 1.511799 2.929364 0
M  V30 7 C 1.391537 1.566846 4.215518 0
M  V30 8 N 0.497200 2.328062 4.870940 0
M  V30 9 C -0.438095 2.741281 4.005576 0
M  V30 10 C -0.127687 2.225293 2.758228 0
M  V30 11 N -0.936299 2.512619 1.726839 0
M  V30 12 C -2.037811 3.277333 1.833979 0
M  V30 13 N -2.324767 3.770978 3.054492 0
M  V30 14 C -1.574365 3.538385 4.149548 0
M  V30 15 N -1.883559 4.063176 5.435864 0
M  V30 16 O 0.817449 -0.147290 1.265944 0
M  V30 17 C 1.662532 -0.768875 0.348130 0 CFG=2
M  V30 18 C 1.309787 -2.234938 0.170964 0
M  V30 19 O 0.019078 -2.406076 -0.286665 0
M  V30 20 P -0.346050 -4.056956 -0.475479 0 CFG=2 VAL=5
M  V30 21 O -1.830535 -4.254716 -0.233766 0
M  V30 22 O 0.494676 -4.914502 0.738920 0 CHG=-1 VAL=1
M  V30 23 O 0.115221 -4.633660 -1.996434 0
M  V30 24 P -1.264318 -4.755191 -2.995361 0 CFG=1 VAL=5
M  V30 25 O -1.667435 -6.203821 -3.149764 0
M  V30 26 O -2.565210 -3.932456 -2.258537 0 CHG=-1 VAL=1
M  V30 27 N -0.939646 -4.114999 -4.589935 0
M  V30 28 P -1.697966 -2.558248 -4.844712 0
M  V30 29 O -2.758341 -2.369451 -3.768950 0
M  V30 30 O -0.580966 -1.290427 -4.770205 0 CHG=-1 VAL=1
M  V30 31 O -2.485242 -2.506038 -6.334258 0 CHG=-1 VAL=1
M  V30 32 H 4.661309 -0.073356 -0.117656 0
M  V30 33 H 3.563103 -1.667569 1.007388 0
M  V30 34 H 2.460322 -0.797577 3.003953 0
M  V30 35 H 4.271901 0.218109 3.465092 0
M  V30 36 H 1.999913 1.478554 1.031413 0
M  V30 37 H 2.260112 1.076506 4.587367 0
M  V30 38 H -2.671125 3.489463 0.973906 0
M  V30 39 H -1.695810 4.896999 6.038486 0
M  V30 40 H -1.619631 4.947964 5.938005 0
M  V30 41 H 1.585363 -0.287887 -0.643267 0
M  V30 42 H 2.086832 -2.659649 -0.503986 0
M  V30 43 H 1.425899 -2.693440 1.183988 0
M  V30 44 H 0.080834 -4.069179 -4.817113 0
M  V30 END ATOM
M  V30 BEGIN BOND
M  V30 1 1 1 2
M  V30 2 1 2 3
M  V30 3 1 3 4
M  V30 4 1 3 5
M  V30 5 1 5 6
M  V30 6 1 6 7
M  V30 7 2 7 8
M  V30 8 1 8 9
M  V30 9 2 9 10
M  V30 10 1 10 11
M  V30 11 2 11 12
M  V30 12 1 12 13
M  V30 13 2 13 14
M  V30 14 1 14 15
M  V30 15 1 5 16
M  V30 16 1 16 17
M  V30 17 1 17 18
M  V30 18 1 18 19
M  V30 19 1 19 20
M  V30 20 2 20 21
M  V30 21 1 20 22 CFG=1
M  V30 22 1 20 23
M  V30 23 1 23 24
M  V30 24 2 24 25
M  V30 25 1 24 26 CFG=1
M  V30 26 1 24 27
M  V30 27 1 27 28
M  V30 28 2 28 29
M  V30 29 1 28 30
M  V30 30 1 28 31
M  V30 31 1 17 2
M  V30 32 1 10 6
M  V30 33 1 14 9
M  V30 34 1 1 32
M  V30 35 1 2 33 CFG=1
M  V30 36 1 3 34 CFG=1
M  V30 37 1 4 35
M  V30 38 1 5 36 CFG=3
M  V30 39 1 7 37
M  V30 40 1 12 38
M  V30 41 1 15 39
M  V30 42 1 15 40
M  V30 43 1 17 41 CFG=3
M  V30 44 1 18 42
M  V30 45 1 18 43
M  V30 46 1 27 44
M  V30 END BOND
M  V30 END CTAB
M  END
>  <Dataset>  (112) 
PDB

>  <Ligand_Instance>  (112) 
4DH7_ANP_A_403

>  <PDB_ID>  (112) 
4DH7

>  <Standardized_SMILES>  (112) 
[H]O[C@@]1([H])[C@@]([H])(O[H])[C@]([H])(N2C([H])=NC3=C2N=C([H])N=C3N([H])[H])O[C@]1([H])C([H])([H])O[P@](=O)([O-])O[P@@](=O)([O-])N([H])P(=O)([O-])[O-]

>  <Name>  (112) 
PHOSPHOAMINOPHOSPHONIC ACID-ADENYLATE ESTER

>  <Pocket>  (112) 
A

>  <ATP_Site>  (112) 
1.0

>  <Peripheral>  (112) 
0.0

>  <Num_H_Atoms_ProtBoundConf>  (112) 
13.0

>  <Num_Resolved_Atoms>  (112) 
31.0

>  <Num_Not_Resolved_Atoms>  (112) 
0.0

>  <2D_Mol_H>  (112) 
<rdkit.Chem.rdchem.Mol object at 0x72a238da49e0>

>  <MW>  (112) 
502.166

>  <HBA>  (112) 
17

>  <HBD>  (112) 
4

>  <LogP>  (112) 
-4.584

>  <NRB>  (112) 
11

>  <TPSA>  (112) 
293.25

>  <Num_Heavy_Atoms>  (112) 
31

>  <Ro5>  (112) 
[False, False, True, True, False, False]

>  <Ro5_Fulfilled>  (112) 
False

>  <Ro3>  (112) 
[False, False, False, True]

>  <Ro3_Fulfilled>  (112) 
False

>  <Fsp3>  (112) 
0.5

>  <Fsp3_0.42>  (112) 
True

>  <Fsp3_0.45>  (112) 
True

>  <Stereogenic_Carbons>  (112) 
4

>  <C_Atoms>  (112) 
10

>  <FCStereo>  (112) 
0.4

>  <SPS>  (112) 
882

>  <nSPS>  (112) 
28.451613

>  <PBF>  (112) 
1.009701

>  <PBF_0.6>  (112) 
True

>  <nPBF>  (112) 
0.032571

>  <nPBF_0.016>  (112) 
True

>  <PMI1>  (112) 
2650.741576

>  <PMI2>  (112) 
9393.551801

>  <PMI3>  (112) 
10259.69058

>  <NPR1>  (112) 
0.258365

>  <NPR2>  (112) 
0.915578

>  <Sum_NPR>  (112) 
1.173943

>  <Sum_NPR_1.07>  (112) 
True

>  <Sum_NPR_1.2>  (112) 
False

>  <MaxAbsEStateIndex>  (112) 
11.631022

>  <MaxEStateIndex>  (112) 
11.631022

>  <MinAbsEStateIndex>  (112) 
0.025434

>  <MinEStateIndex>  (112) 
-5.88789

>  <qed>  (112) 
0.246841

>  <MolWt>  (112) 
502.166

>  <HeavyAtomMolWt>  (112) 
489.062

>  <ExactMolWt>  (112) 
501.982624

>  <NumValenceElectrons>  (112) 
174

>  <NumRadicalElectrons>  (112) 
0

>  <MaxPartialCharge>  (112) 
0.273292

>  <MinPartialCharge>  (112) 
-0.799075

>  <MaxAbsPartialCharge>  (112) 
0.799075

>  <MinAbsPartialCharge>  (112) 
0.273292

>  <FpDensityMorgan1>  (112) 
1.16129

>  <FpDensityMorgan2>  (112) 
1.83871

>  <FpDensityMorgan3>  (112) 
2.483871

>  <BCUT2D_MWHI>  (112) 
31.287813

>  <BCUT2D_MWLOW>  (112) 
10.128388

>  <BCUT2D_CHGHI>  (112) 
2.44611

>  <BCUT2D_CHGLO>  (112) 
-2.388133

>  <BCUT2D_LOGPHI>  (112) 
2.552246

>  <BCUT2D_LOGPLOW>  (112) 
-2.341071

>  <BCUT2D_MRHI>  (112) 
7.684213

>  <BCUT2D_MRLOW>  (112) 
-0.316952

>  <AvgIpc>  (112) 
3.133568

>  <BalabanJ>  (112) 
1.689409

>  <BertzCT>  (112) 
1105.970439

>  <Chi0>  (112) 
23.18987

>  <Chi0n>  (112) 
14.855964

>  <Chi0v>  (112) 
17.539246

>  <Chi1>  (112) 
14.190889

>  <Chi1n>  (112) 
7.931778

>  <Chi1v>  (112) 
12.477689

>  <Chi2n>  (112) 
6.048811

>  <Chi2v>  (112) 
10.644506

>  <Chi3n>  (112) 
3.847795

>  <Chi3v>  (112) 
7.932617

>  <Chi4n>  (112) 
2.641158

>  <Chi4v>  (112) 
5.887109

>  <HallKierAlpha>  (112) 
-1.36

>  <Ipc>  (112) 
3947352.346056

>  <Kappa1>  (112) 
24.285736

>  <Kappa2>  (112) 
8.532213

>  <Kappa3>  (112) 
5.714341

>  <LabuteASA>  (112) 
171.593724

>  <PEOE_VSA1>  (112) 
49.346027

>  <PEOE_VSA10>  (112) 
30.15592

>  <PEOE_VSA11>  (112) 
17.692941

>  <PEOE_VSA12>  (112) 
7.746488

>  <PEOE_VSA13>  (112) 
7.822697

>  <PEOE_VSA14>  (112) 
0.0

>  <PEOE_VSA2>  (112) 
18.007828

>  <PEOE_VSA3>  (112) 
19.809737

>  <PEOE_VSA4>  (112) 
0.0

>  <PEOE_VSA5>  (112) 
0.0

>  <PEOE_VSA6>  (112) 
0.0

>  <PEOE_VSA7>  (112) 
0.0

>  <PEOE_VSA8>  (112) 
7.746488

>  <PEOE_VSA9>  (112) 
12.934202

>  <SMR_VSA1>  (112) 
57.053088

>  <SMR_VSA10>  (112) 
40.297415

>  <SMR_VSA2>  (112) 
0.0

>  <SMR_VSA3>  (112) 
24.376837

>  <SMR_VSA4>  (112) 
0.0

>  <SMR_VSA5>  (112) 
24.5398

>  <SMR_VSA6>  (112) 
12.340549

>  <SMR_VSA7>  (112) 
12.65464

>  <SMR_VSA8>  (112) 
0.0

>  <SMR_VSA9>  (112) 
0.0

>  <SlogP_VSA1>  (112) 
30.165115

>  <SlogP_VSA10>  (112) 
5.817863

>  <SlogP_VSA11>  (112) 
0.0

>  <SlogP_VSA12>  (112) 
23.315674

>  <SlogP_VSA2>  (112) 
54.650871

>  <SlogP_VSA3>  (112) 
27.266386

>  <SlogP_VSA4>  (112) 
0.0

>  <SlogP_VSA5>  (112) 
6.227901

>  <SlogP_VSA6>  (112) 
12.65464

>  <SlogP_VSA7>  (112) 
0.0

>  <SlogP_VSA8>  (112) 
11.163878

>  <SlogP_VSA9>  (112) 
0.0

>  <EState_VSA1>  (112) 
54.462356

>  <EState_VSA10>  (112) 
43.481846

>  <EState_VSA11>  (112) 
0.0

>  <EState_VSA2>  (112) 
16.981741

>  <EState_VSA3>  (112) 
4.857802

>  <EState_VSA4>  (112) 
6.32732

>  <EState_VSA5>  (112) 
10.89442

>  <EState_VSA6>  (112) 
0.0

>  <EState_VSA7>  (112) 
0.0

>  <EState_VSA8>  (112) 
23.786314

>  <EState_VSA9>  (112) 
10.47053

>  <VSA_EState1>  (112) 
47.639432

>  <VSA_EState10>  (112) 
0.0

>  <VSA_EState2>  (112) 
55.77868

>  <VSA_EState3>  (112) 
20.343175

>  <VSA_EState4>  (112) 
5.942789

>  <VSA_EState5>  (112) 
0.025434

>  <VSA_EState6>  (112) 
0.0

>  <VSA_EState7>  (112) 
-3.918472

>  <VSA_EState8>  (112) 
-1.049933

>  <VSA_EState9>  (112) 
-17.511105

>  <FractionCSP3>  (112) 
0.5

>  <HeavyAtomCount>  (112) 
31

>  <NHOHCount>  (112) 
5

>  <NOCount>  (112) 
18

>  <NumAliphaticCarbocycles>  (112) 
0

>  <NumAliphaticHeterocycles>  (112) 
1

>  <NumAliphaticRings>  (112) 
1

>  <NumAromaticCarbocycles>  (112) 
0

>  <NumAromaticHeterocycles>  (112) 
2

>  <NAR>  (112) 
2

>  <NumHAcceptors>  (112) 
17

>  <NumHDonors>  (112) 
4

>  <NumHeteroatoms>  (112) 
21

>  <NumRotatableBonds>  (112) 
8

>  <NumSaturatedCarbocycles>  (112) 
0

>  <NumSaturatedHeterocycles>  (112) 
1

>  <NumSaturatedRings>  (112) 
1

>  <RingCount>  (112) 
3

>  <MolLogP>  (112) 
-4.584

>  <MolMR>  (112) 
88.6512

>  <fr_Al_COO>  (112) 
0

>  <fr_Al_OH>  (112) 
2

>  <fr_Al_OH_noTert>  (112) 
2

>  <fr_ArN>  (112) 
1

>  <fr_Ar_COO>  (112) 
0

>  <fr_Ar_N>  (112) 
4

>  <fr_Ar_NH>  (112) 
0

>  <fr_Ar_OH>  (112) 
0

>  <fr_COO>  (112) 
0

>  <fr_COO2>  (112) 
0

>  <fr_C_O>  (112) 
0

>  <fr_C_O_noCOO>  (112) 
0

>  <fr_C_S>  (112) 
0

>  <fr_HOCCN>  (112) 
0

>  <fr_Imine>  (112) 
0

>  <fr_NH0>  (112) 
4

>  <fr_NH1>  (112) 
1

>  <fr_NH2>  (112) 
1

>  <fr_N_O>  (112) 
0

>  <fr_Ndealkylation1>  (112) 
0

>  <fr_Ndealkylation2>  (112) 
0

>  <fr_Nhpyrrole>  (112) 
0

>  <fr_SH>  (112) 
0

>  <fr_aldehyde>  (112) 
0

>  <fr_alkyl_carbamate>  (112) 
0

>  <fr_alkyl_halide>  (112) 
0

>  <fr_allylic_oxid>  (112) 
0

>  <fr_amide>  (112) 
0

>  <fr_amidine>  (112) 
0

>  <fr_aniline>  (112) 
1

>  <fr_aryl_methyl>  (112) 
0

>  <fr_azide>  (112) 
0

>  <fr_azo>  (112) 
0

>  <fr_barbitur>  (112) 
0

>  <fr_benzene>  (112) 
0

>  <fr_benzodiazepine>  (112) 
0

>  <fr_bicyclic>  (112) 
1

>  <fr_diazo>  (112) 
0

>  <fr_dihydropyridine>  (112) 
0

>  <fr_epoxide>  (112) 
0

>  <fr_ester>  (112) 
0

>  <fr_ether>  (112) 
1

>  <fr_furan>  (112) 
0

>  <fr_guanido>  (112) 
0

>  <fr_halogen>  (112) 
0

>  <fr_hdrzine>  (112) 
0

>  <fr_hdrzone>  (112) 
0

>  <fr_imidazole>  (112) 
1

>  <fr_imide>  (112) 
0

>  <fr_isocyan>  (112) 
0

>  <fr_isothiocyan>  (112) 
0

>  <fr_ketone>  (112) 
0

>  <fr_ketone_Topliss>  (112) 
0

>  <fr_lactam>  (112) 
0

>  <fr_lactone>  (112) 
0

>  <fr_methoxy>  (112) 
0

>  <fr_morpholine>  (112) 
0

>  <fr_nitrile>  (112) 
0

>  <fr_nitro>  (112) 
0

>  <fr_nitro_arom>  (112) 
0

>  <fr_nitro_arom_nonortho>  (112) 
0

>  <fr_nitroso>  (112) 
0

>  <fr_oxazole>  (112) 
0

>  <fr_oxime>  (112) 
0

>  <fr_para_hydroxylation>  (112) 
0

>  <fr_phenol>  (112) 
0

>  <fr_phenol_noOrthoHbond>  (112) 
0

>  <fr_phos_acid>  (112) 
1

>  <fr_phos_ester>  (112) 
1

>  <fr_piperdine>  (112) 
0

>  <fr_piperzine>  (112) 
0

>  <fr_priamide>  (112) 
0

>  <fr_prisulfonamd>  (112) 
0

>  <fr_pyridine>  (112) 
0

>  <fr_quatN>  (112) 
0

>  <fr_sulfide>  (112) 
0

>  <fr_sulfonamd>  (112) 
0

>  <fr_sulfone>  (112) 
0

>  <fr_term_acetylene>  (112) 
0

>  <fr_tetrazole>  (112) 
0

>  <fr_thiazole>  (112) 
0

>  <fr_thiocyan>  (112) 
0

>  <fr_thiophene>  (112) 
0

>  <fr_unbrch_alkane>  (112) 
0

>  <fr_urea>  (112) 
0

>  <NP-Likeness>  (112) 
0.781644

$$$$
ANP
     RDKit          3D

  0  0  0  0  0  0  0  0  0  0999 V3000
M  V30 BEGIN CTAB
M  V30 COUNTS 44 46 0 0 0
M  V30 BEGIN ATOM
M  V30 1 O 3.804972 0.256954 0.199957 0
M  V30 2 C 3.071562 -0.699356 0.920550 0 CFG=1
M  V30 3 C 2.793476 -0.034110 2.276014 0 CFG=1
M  V30 4 O 3.860673 0.729209 2.714109 0
M  V30 5 C 1.609080 0.829414 1.819143 0 CFG=2
M  V30 6 N 0.999910 1.511799 2.929364 0
M  V30 7 C 1.391537 1.566846 4.215518 0
M  V30 8 N 0.497200 2.328062 4.870940 0
M  V30 9 C -0.438095 2.741281 4.005576 0
M  V30 10 C -0.127687 2.225293 2.758228 0
M  V30 11 N -0.936299 2.512619 1.726839 0
M  V30 12 C -2.037811 3.277333 1.833979 0
M  V30 13 N -2.324767 3.770978 3.054492 0
M  V30 14 C -1.574365 3.538385 4.149548 0
M  V30 15 N -1.883559 4.063176 5.435864 0
M  V30 16 O 0.817449 -0.147290 1.265944 0
M  V30 17 C 1.662532 -0.768875 0.348130 0 CFG=2
M  V30 18 C 1.309787 -2.234938 0.170964 0
M  V30 19 O 0.019078 -2.406076 -0.286665 0
M  V30 20 P -0.346050 -4.056956 -0.475479 0 CFG=2 VAL=5
M  V30 21 O -1.830535 -4.254716 -0.233766 0
M  V30 22 O 0.494676 -4.914502 0.738920 0 CHG=-1 VAL=1
M  V30 23 O 0.115221 -4.633660 -1.996434 0
M  V30 24 P -1.264318 -4.755191 -2.995361 0 CFG=1 VAL=5
M  V30 25 O -1.667435 -6.203821 -3.149764 0
M  V30 26 O -2.565210 -3.932456 -2.258537 0 CHG=-1 VAL=1
M  V30 27 N -0.939646 -4.114999 -4.589935 0
M  V30 28 P -1.697966 -2.558248 -4.844712 0
M  V30 29 O -2.758341 -2.369451 -3.768950 0
M  V30 30 O -0.580966 -1.290427 -4.770205 0 CHG=-1 VAL=1
M  V30 31 O -2.485242 -2.506038 -6.334258 0 CHG=-1 VAL=1
M  V30 32 H 4.661309 -0.073356 -0.117656 0
M  V30 33 H 3.563103 -1.667569 1.007388 0
M  V30 34 H 2.460322 -0.797577 3.003953 0
M  V30 35 H 4.271901 0.218109 3.465092 0
M  V30 36 H 1.999913 1.478554 1.031413 0
M  V30 37 H 2.260112 1.076506 4.587367 0
M  V30 38 H -2.671125 3.489463 0.973906 0
M  V30 39 H -1.695810 4.896999 6.038486 0
M  V30 40 H -1.619631 4.947964 5.938005 0
M  V30 41 H 1.585363 -0.287887 -0.643267 0
M  V30 42 H 2.086832 -2.659649 -0.503986 0
M  V30 43 H 1.425899 -2.693440 1.183988 0
M  V30 44 H 0.080834 -4.069179 -4.817113 0
M  V30 END ATOM
M  V30 BEGIN BOND
M  V30 1 1 1 2
M  V30 2 1 2 3
M  V30 3 1 3 4
M  V30 4 1 3 5
M  V30 5 1 5 6
M  V30 6 1 6 7
M  V30 7 2 7 8
M  V30 8 1 8 9
M  V30 9 2 9 10
M  V30 10 1 10 11
M  V30 11 2 11 12
M  V30 12 1 12 13
M  V30 13 2 13 14
M  V30 14 1 14 15
M  V30 15 1 5 16
M  V30 16 1 16 17
M  V30 17 1 17 18
M  V30 18 1 18 19
M  V30 19 1 19 20
M  V30 20 2 20 21
M  V30 21 1 20 22 CFG=1
M  V30 22 1 20 23
M  V30 23 1 23 24
M  V30 24 2 24 25
M  V30 25 1 24 26 CFG=1
M  V30 26 1 24 27
M  V30 27 1 27 28
M  V30 28 2 28 29
M  V30 29 1 28 30
M  V30 30 1 28 31
M  V30 31 1 17 2
M  V30 32 1 10 6
M  V30 33 1 14 9
M  V30 34 1 1 32
M  V30 35 1 2 33 CFG=1
M  V30 36 1 3 34 CFG=1
M  V30 37 1 4 35
M  V30 38 1 5 36 CFG=3
M  V30 39 1 7 37
M  V30 40 1 12 38
M  V30 41 1 15 39
M  V30 42 1 15 40
M  V30 43 1 17 41 CFG=3
M  V30 44 1 18 42
M  V30 45 1 18 43
M  V30 46 1 27 44
M  V30 END BOND
M  V30 END CTAB
M  END
>  <Dataset>  (113) 
PDB

>  <Ligand_Instance>  (113) 
4DH8_ANP_A_403

>  <PDB_ID>  (113) 
4DH8

>  <Standardized_SMILES>  (113) 
[H]O[C@@]1([H])[C@@]([H])(O[H])[C@]([H])(N2C([H])=NC3=C2N=C([H])N=C3N([H])[H])O[C@]1([H])C([H])([H])O[P@](=O)([O-])O[P@@](=O)([O-])N([H])P(=O)([O-])[O-]

>  <Name>  (113) 
PHOSPHOAMINOPHOSPHONIC ACID-ADENYLATE ESTER

>  <Pocket>  (113) 
A

>  <ATP_Site>  (113) 
1.0

>  <Peripheral>  (113) 
0.0

>  <Num_H_Atoms_ProtBoundConf>  (113) 
13.0

>  <Num_Resolved_Atoms>  (113) 
31.0

>  <Num_Not_Resolved_Atoms>  (113) 
0.0

>  <2D_Mol_H>  (113) 
<rdkit.Chem.rdchem.Mol object at 0x72a238da4ac0>

>  <MW>  (113) 
502.166

>  <HBA>  (113) 
17

>  <HBD>  (113) 
4

>  <LogP>  (113) 
-4.584

>  <NRB>  (113) 
11

>  <TPSA>  (113) 
293.25

>  <Num_Heavy_Atoms>  (113) 
31

>  <Ro5>  (113) 
[False, False, True, True, False, False]

>  <Ro5_Fulfilled>  (113) 
False

>  <Ro3>  (113) 
[False, False, False, True]

>  <Ro3_Fulfilled>  (113) 
False

>  <Fsp3>  (113) 
0.5

>  <Fsp3_0.42>  (113) 
True

>  <Fsp3_0.45>  (113) 
True

>  <Stereogenic_Carbons>  (113) 
4

>  <C_Atoms>  (113) 
10

>  <FCStereo>  (113) 
0.4

>  <SPS>  (113) 
882

>  <nSPS>  (113) 
28.451613

>  <PBF>  (113) 
1.009701

>  <PBF_0.6>  (113) 
True

>  <nPBF>  (113) 
0.032571

>  <nPBF_0.016>  (113) 
True

>  <PMI1>  (113) 
2650.741576

>  <PMI2>  (113) 
9393.551801

>  <PMI3>  (113) 
10259.69058

>  <NPR1>  (113) 
0.258365

>  <NPR2>  (113) 
0.915578

>  <Sum_NPR>  (113) 
1.173943

>  <Sum_NPR_1.07>  (113) 
True

>  <Sum_NPR_1.2>  (113) 
False

>  <MaxAbsEStateIndex>  (113) 
11.631022

>  <MaxEStateIndex>  (113) 
11.631022

>  <MinAbsEStateIndex>  (113) 
0.025434

>  <MinEStateIndex>  (113) 
-5.88789

>  <qed>  (113) 
0.246841

>  <MolWt>  (113) 
502.166

>  <HeavyAtomMolWt>  (113) 
489.062

>  <ExactMolWt>  (113) 
501.982624

>  <NumValenceElectrons>  (113) 
174

>  <NumRadicalElectrons>  (113) 
0

>  <MaxPartialCharge>  (113) 
0.273292

>  <MinPartialCharge>  (113) 
-0.799075

>  <MaxAbsPartialCharge>  (113) 
0.799075

>  <MinAbsPartialCharge>  (113) 
0.273292

>  <FpDensityMorgan1>  (113) 
1.16129

>  <FpDensityMorgan2>  (113) 
1.83871

>  <FpDensityMorgan3>  (113) 
2.483871

>  <BCUT2D_MWHI>  (113) 
31.287813

>  <BCUT2D_MWLOW>  (113) 
10.128388

>  <BCUT2D_CHGHI>  (113) 
2.44611

>  <BCUT2D_CHGLO>  (113) 
-2.388133

>  <BCUT2D_LOGPHI>  (113) 
2.552246

>  <BCUT2D_LOGPLOW>  (113) 
-2.341071

>  <BCUT2D_MRHI>  (113) 
7.684213

>  <BCUT2D_MRLOW>  (113) 
-0.316952

>  <AvgIpc>  (113) 
3.133568

>  <BalabanJ>  (113) 
1.689409

>  <BertzCT>  (113) 
1105.970439

>  <Chi0>  (113) 
23.18987

>  <Chi0n>  (113) 
14.855964

>  <Chi0v>  (113) 
17.539246

>  <Chi1>  (113) 
14.190889

>  <Chi1n>  (113) 
7.931778

>  <Chi1v>  (113) 
12.477689

>  <Chi2n>  (113) 
6.048811

>  <Chi2v>  (113) 
10.644506

>  <Chi3n>  (113) 
3.847795

>  <Chi3v>  (113) 
7.932617

>  <Chi4n>  (113) 
2.641158

>  <Chi4v>  (113) 
5.887109

>  <HallKierAlpha>  (113) 
-1.36

>  <Ipc>  (113) 
3947352.346056

>  <Kappa1>  (113) 
24.285736

>  <Kappa2>  (113) 
8.532213

>  <Kappa3>  (113) 
5.714341

>  <LabuteASA>  (113) 
171.593724

>  <PEOE_VSA1>  (113) 
49.346027

>  <PEOE_VSA10>  (113) 
30.15592

>  <PEOE_VSA11>  (113) 
17.692941

>  <PEOE_VSA12>  (113) 
7.746488

>  <PEOE_VSA13>  (113) 
7.822697

>  <PEOE_VSA14>  (113) 
0.0

>  <PEOE_VSA2>  (113) 
18.007828

>  <PEOE_VSA3>  (113) 
19.809737

>  <PEOE_VSA4>  (113) 
0.0

>  <PEOE_VSA5>  (113) 
0.0

>  <PEOE_VSA6>  (113) 
0.0

>  <PEOE_VSA7>  (113) 
0.0

>  <PEOE_VSA8>  (113) 
7.746488

>  <PEOE_VSA9>  (113) 
12.934202

>  <SMR_VSA1>  (113) 
57.053088

>  <SMR_VSA10>  (113) 
40.297415

>  <SMR_VSA2>  (113) 
0.0

>  <SMR_VSA3>  (113) 
24.376837

>  <SMR_VSA4>  (113) 
0.0

>  <SMR_VSA5>  (113) 
24.5398

>  <SMR_VSA6>  (113) 
12.340549

>  <SMR_VSA7>  (113) 
12.65464

>  <SMR_VSA8>  (113) 
0.0

>  <SMR_VSA9>  (113) 
0.0

>  <SlogP_VSA1>  (113) 
30.165115

>  <SlogP_VSA10>  (113) 
5.817863

>  <SlogP_VSA11>  (113) 
0.0

>  <SlogP_VSA12>  (113) 
23.315674

>  <SlogP_VSA2>  (113) 
54.650871

>  <SlogP_VSA3>  (113) 
27.266386

>  <SlogP_VSA4>  (113) 
0.0

>  <SlogP_VSA5>  (113) 
6.227901

>  <SlogP_VSA6>  (113) 
12.65464

>  <SlogP_VSA7>  (113) 
0.0

>  <SlogP_VSA8>  (113) 
11.163878

>  <SlogP_VSA9>  (113) 
0.0

>  <EState_VSA1>  (113) 
54.462356

>  <EState_VSA10>  (113) 
43.481846

>  <EState_VSA11>  (113) 
0.0

>  <EState_VSA2>  (113) 
16.981741

>  <EState_VSA3>  (113) 
4.857802

>  <EState_VSA4>  (113) 
6.32732

>  <EState_VSA5>  (113) 
10.89442

>  <EState_VSA6>  (113) 
0.0

>  <EState_VSA7>  (113) 
0.0

>  <EState_VSA8>  (113) 
23.786314

>  <EState_VSA9>  (113) 
10.47053

>  <VSA_EState1>  (113) 
47.639432

>  <VSA_EState10>  (113) 
0.0

>  <VSA_EState2>  (113) 
55.77868

>  <VSA_EState3>  (113) 
20.343175

>  <VSA_EState4>  (113) 
5.942789

>  <VSA_EState5>  (113) 
0.025434

>  <VSA_EState6>  (113) 
0.0

>  <VSA_EState7>  (113) 
-3.918472

>  <VSA_EState8>  (113) 
-1.049933

>  <VSA_EState9>  (113) 
-17.511105

>  <FractionCSP3>  (113) 
0.5

>  <HeavyAtomCount>  (113) 
31

>  <NHOHCount>  (113) 
5

>  <NOCount>  (113) 
18

>  <NumAliphaticCarbocycles>  (113) 
0

>  <NumAliphaticHeterocycles>  (113) 
1

>  <NumAliphaticRings>  (113) 
1

>  <NumAromaticCarbocycles>  (113) 
0

>  <NumAromaticHeterocycles>  (113) 
2

>  <NAR>  (113) 
2

>  <NumHAcceptors>  (113) 
17

>  <NumHDonors>  (113) 
4

>  <NumHeteroatoms>  (113) 
21

>  <NumRotatableBonds>  (113) 
8

>  <NumSaturatedCarbocycles>  (113) 
0

>  <NumSaturatedHeterocycles>  (113) 
1

>  <NumSaturatedRings>  (113) 
1

>  <RingCount>  (113) 
3

>  <MolLogP>  (113) 
-4.584

>  <MolMR>  (113) 
88.6512

>  <fr_Al_COO>  (113) 
0

>  <fr_Al_OH>  (113) 
2

>  <fr_Al_OH_noTert>  (113) 
2

>  <fr_ArN>  (113) 
1

>  <fr_Ar_COO>  (113) 
0

>  <fr_Ar_N>  (113) 
4

>  <fr_Ar_NH>  (113) 
0

>  <fr_Ar_OH>  (113) 
0

>  <fr_COO>  (113) 
0

>  <fr_COO2>  (113) 
0

>  <fr_C_O>  (113) 
0

>  <fr_C_O_noCOO>  (113) 
0

>  <fr_C_S>  (113) 
0

>  <fr_HOCCN>  (113) 
0

>  <fr_Imine>  (113) 
0

>  <fr_NH0>  (113) 
4

>  <fr_NH1>  (113) 
1

>  <fr_NH2>  (113) 
1

>  <fr_N_O>  (113) 
0

>  <fr_Ndealkylation1>  (113) 
0

>  <fr_Ndealkylation2>  (113) 
0

>  <fr_Nhpyrrole>  (113) 
0

>  <fr_SH>  (113) 
0

>  <fr_aldehyde>  (113) 
0

>  <fr_alkyl_carbamate>  (113) 
0

>  <fr_alkyl_halide>  (113) 
0

>  <fr_allylic_oxid>  (113) 
0

>  <fr_amide>  (113) 
0

>  <fr_amidine>  (113) 
0

>  <fr_aniline>  (113) 
1

>  <fr_aryl_methyl>  (113) 
0

>  <fr_azide>  (113) 
0

>  <fr_azo>  (113) 
0

>  <fr_barbitur>  (113) 
0

>  <fr_benzene>  (113) 
0

>  <fr_benzodiazepine>  (113) 
0

>  <fr_bicyclic>  (113) 
1

>  <fr_diazo>  (113) 
0

>  <fr_dihydropyridine>  (113) 
0

>  <fr_epoxide>  (113) 
0

>  <fr_ester>  (113) 
0

>  <fr_ether>  (113) 
1

>  <fr_furan>  (113) 
0

>  <fr_guanido>  (113) 
0

>  <fr_halogen>  (113) 
0

>  <fr_hdrzine>  (113) 
0

>  <fr_hdrzone>  (113) 
0

>  <fr_imidazole>  (113) 
1

>  <fr_imide>  (113) 
0

>  <fr_isocyan>  (113) 
0

>  <fr_isothiocyan>  (113) 
0

>  <fr_ketone>  (113) 
0

>  <fr_ketone_Topliss>  (113) 
0

>  <fr_lactam>  (113) 
0

>  <fr_lactone>  (113) 
0

>  <fr_methoxy>  (113) 
0

>  <fr_morpholine>  (113) 
0

>  <fr_nitrile>  (113) 
0

>  <fr_nitro>  (113) 
0

>  <fr_nitro_arom>  (113) 
0

>  <fr_nitro_arom_nonortho>  (113) 
0

>  <fr_nitroso>  (113) 
0

>  <fr_oxazole>  (113) 
0

>  <fr_oxime>  (113) 
0

>  <fr_para_hydroxylation>  (113) 
0

>  <fr_phenol>  (113) 
0

>  <fr_phenol_noOrthoHbond>  (113) 
0

>  <fr_phos_acid>  (113) 
1

>  <fr_phos_ester>  (113) 
1

>  <fr_piperdine>  (113) 
0

>  <fr_piperzine>  (113) 
0

>  <fr_priamide>  (113) 
0

>  <fr_prisulfonamd>  (113) 
0

>  <fr_pyridine>  (113) 
0

>  <fr_quatN>  (113) 
0

>  <fr_sulfide>  (113) 
0

>  <fr_sulfonamd>  (113) 
0

>  <fr_sulfone>  (113) 
0

>  <fr_term_acetylene>  (113) 
0

>  <fr_tetrazole>  (113) 
0

>  <fr_thiazole>  (113) 
0

>  <fr_thiocyan>  (113) 
0

>  <fr_thiophene>  (113) 
0

>  <fr_unbrch_alkane>  (113) 
0

>  <fr_urea>  (113) 
0

>  <NP-Likeness>  (113) 
0.781644

$$$$
ANP
     RDKit          3D

  0  0  0  0  0  0  0  0  0  0999 V3000
M  V30 BEGIN CTAB
M  V30 COUNTS 44 46 0 0 0
M  V30 BEGIN ATOM
M  V30 1 O 3.259756 1.630618 -1.700879 0
M  V30 2 C 2.901748 0.676698 -0.719895 0 CFG=1
M  V30 3 C 2.945545 1.429835 0.606037 0 CFG=1
M  V30 4 O 3.804658 2.522015 0.559956 0
M  V30 5 C 1.499919 1.865249 0.725939 0 CFG=2
M  V30 6 N 1.146552 2.283645 2.042376 0
M  V30 7 C 2.008113 2.702130 2.967629 0
M  V30 8 N 1.327484 3.015604 4.087877 0
M  V30 9 C 0.024749 2.785961 3.847513 0
M  V30 10 C -0.100059 2.322097 2.554486 0
M  V30 11 N -1.335104 2.024423 2.096801 0
M  V30 12 C -2.407632 2.181295 2.893215 0
M  V30 13 N -2.294752 2.639365 4.173435 0
M  V30 14 C -1.073994 2.951554 4.677440 0
M  V30 15 N -0.998031 3.425913 6.016353 0
M  V30 16 O 0.829887 0.708888 0.333851 0
M  V30 17 C 1.459559 0.320481 -0.847252 0 CFG=2
M  V30 18 C 1.234142 -1.168072 -1.009938 0
M  V30 19 O -0.126811 -1.457364 -1.080404 0
M  V30 20 P -0.251471 -3.141221 -1.260998 0 CFG=1 VAL=5
M  V30 21 O -1.653671 -3.503715 -1.639963 0
M  V30 22 O 0.795676 -3.630564 -2.519528 0 CHG=-1 VAL=1
M  V30 23 O 0.187864 -3.984461 0.112201 0
M  V30 24 P -0.656214 -5.454408 0.200026 0 CFG=1 VAL=5
M  V30 25 O -0.011000 -6.263279 1.316083 0
M  V30 26 O -2.263539 -5.114375 0.645644 0 CHG=-1 VAL=1
M  V30 27 N -0.608303 -6.308529 -1.314998 0
M  V30 28 P -2.199442 -6.694221 -1.931928 0
M  V30 29 O -3.253156 -6.106882 -1.020963 0
M  V30 30 O -2.441003 -6.040088 -3.486969 0 CHG=-1 VAL=1
M  V30 31 O -2.427686 -8.369692 -2.024155 0 CHG=-1 VAL=1
M  V30 32 H 2.642483 2.402965 -1.647920 0
M  V30 33 H 3.588542 -0.166370 -0.743582 0
M  V30 34 H 3.218013 0.703734 1.381345 0
M  V30 35 H 3.394981 3.330783 0.213114 0
M  V30 36 H 1.309804 2.665432 -0.015340 0
M  V30 37 H 3.088569 2.814576 2.942748 0
M  V30 38 H -3.434471 1.969103 2.614174 0
M  V30 39 H -0.864193 3.011337 6.960645 0
M  V30 40 H -1.127163 4.464672 5.827992 0
M  V30 41 H 1.021251 0.841302 -1.726940 0
M  V30 42 H 1.662584 -1.512331 -1.980854 0
M  V30 43 H 1.727660 -1.735405 -0.221705 0
M  V30 44 H -0.153957 -5.709518 -2.025080 0
M  V30 END ATOM
M  V30 BEGIN BOND
M  V30 1 1 1 2
M  V30 2 1 2 3
M  V30 3 1 3 4
M  V30 4 1 3 5
M  V30 5 1 5 6
M  V30 6 1 6 7
M  V30 7 2 7 8
M  V30 8 1 8 9
M  V30 9 2 9 10
M  V30 10 1 10 11
M  V30 11 2 11 12
M  V30 12 1 12 13
M  V30 13 2 13 14
M  V30 14 1 14 15
M  V30 15 1 5 16
M  V30 16 1 16 17
M  V30 17 1 17 18
M  V30 18 1 18 19
M  V30 19 1 19 20
M  V30 20 2 20 21
M  V30 21 1 20 22 CFG=3
M  V30 22 1 20 23
M  V30 23 1 23 24
M  V30 24 2 24 25
M  V30 25 1 24 26 CFG=1
M  V30 26 1 24 27
M  V30 27 1 27 28
M  V30 28 2 28 29
M  V30 29 1 28 30
M  V30 30 1 28 31
M  V30 31 1 17 2
M  V30 32 1 10 6
M  V30 33 1 14 9
M  V30 34 1 1 32
M  V30 35 1 2 33 CFG=1
M  V30 36 1 3 34 CFG=1
M  V30 37 1 4 35
M  V30 38 1 5 36 CFG=3
M  V30 39 1 7 37
M  V30 40 1 12 38
M  V30 41 1 15 39
M  V30 42 1 15 40
M  V30 43 1 17 41 CFG=3
M  V30 44 1 18 42
M  V30 45 1 18 43
M  V30 46 1 27 44
M  V30 END BOND
M  V30 END CTAB
M  END
>  <Dataset>  (114) 
PDB

>  <Ligand_Instance>  (114) 
4XW4_ANP_A_403

>  <PDB_ID>  (114) 
4XW4

>  <Standardized_SMILES>  (114) 
[H]O[C@@]1([H])[C@@]([H])(O[H])[C@]([H])(N2C([H])=NC3=C2N=C([H])N=C3N([H])[H])O[C@]1([H])C([H])([H])O[P@@](=O)([O-])O[P@@](=O)([O-])N([H])P(=O)([O-])[O-]

>  <Name>  (114) 
PHOSPHOAMINOPHOSPHONIC ACID-ADENYLATE ESTER

>  <Pocket>  (114) 
A

>  <ATP_Site>  (114) 
1.0

>  <Peripheral>  (114) 
0.0

>  <Num_H_Atoms_ProtBoundConf>  (114) 
13.0

>  <Num_Resolved_Atoms>  (114) 
31.0

>  <Num_Not_Resolved_Atoms>  (114) 
0.0

>  <2D_Mol_H>  (114) 
<rdkit.Chem.rdchem.Mol object at 0x72a238da4ba0>

>  <MW>  (114) 
502.166

>  <HBA>  (114) 
17

>  <HBD>  (114) 
4

>  <LogP>  (114) 
-4.584

>  <NRB>  (114) 
11

>  <TPSA>  (114) 
293.25

>  <Num_Heavy_Atoms>  (114) 
31

>  <Ro5>  (114) 
[False, False, True, True, False, False]

>  <Ro5_Fulfilled>  (114) 
False

>  <Ro3>  (114) 
[False, False, False, True]

>  <Ro3_Fulfilled>  (114) 
False

>  <Fsp3>  (114) 
0.5

>  <Fsp3_0.42>  (114) 
True

>  <Fsp3_0.45>  (114) 
True

>  <Stereogenic_Carbons>  (114) 
4

>  <C_Atoms>  (114) 
10

>  <FCStereo>  (114) 
0.4

>  <SPS>  (114) 
882

>  <nSPS>  (114) 
28.451613

>  <PBF>  (114) 
0.866614

>  <PBF_0.6>  (114) 
True

>  <nPBF>  (114) 
0.027955

>  <nPBF_0.016>  (114) 
True

>  <PMI1>  (114) 
2422.079517

>  <PMI2>  (114) 
9622.82782

>  <PMI3>  (114) 
11060.919068

>  <NPR1>  (114) 
0.218976

>  <NPR2>  (114) 
0.869984

>  <Sum_NPR>  (114) 
1.088961

>  <Sum_NPR_1.07>  (114) 
True

>  <Sum_NPR_1.2>  (114) 
False

>  <MaxAbsEStateIndex>  (114) 
11.631022

>  <MaxEStateIndex>  (114) 
11.631022

>  <MinAbsEStateIndex>  (114) 
0.025434

>  <MinEStateIndex>  (114) 
-5.88789

>  <qed>  (114) 
0.246841

>  <MolWt>  (114) 
502.166

>  <HeavyAtomMolWt>  (114) 
489.062

>  <ExactMolWt>  (114) 
501.982624

>  <NumValenceElectrons>  (114) 
174

>  <NumRadicalElectrons>  (114) 
0

>  <MaxPartialCharge>  (114) 
0.273292

>  <MinPartialCharge>  (114) 
-0.799075

>  <MaxAbsPartialCharge>  (114) 
0.799075

>  <MinAbsPartialCharge>  (114) 
0.273292

>  <FpDensityMorgan1>  (114) 
1.16129

>  <FpDensityMorgan2>  (114) 
1.83871

>  <FpDensityMorgan3>  (114) 
2.483871

>  <BCUT2D_MWHI>  (114) 
31.287813

>  <BCUT2D_MWLOW>  (114) 
10.128388

>  <BCUT2D_CHGHI>  (114) 
2.44611

>  <BCUT2D_CHGLO>  (114) 
-2.388133

>  <BCUT2D_LOGPHI>  (114) 
2.552246

>  <BCUT2D_LOGPLOW>  (114) 
-2.341071

>  <BCUT2D_MRHI>  (114) 
7.684213

>  <BCUT2D_MRLOW>  (114) 
-0.316952

>  <AvgIpc>  (114) 
3.133568

>  <BalabanJ>  (114) 
1.689409

>  <BertzCT>  (114) 
1105.970439

>  <Chi0>  (114) 
23.18987

>  <Chi0n>  (114) 
14.855964

>  <Chi0v>  (114) 
17.539246

>  <Chi1>  (114) 
14.190889

>  <Chi1n>  (114) 
7.931778

>  <Chi1v>  (114) 
12.477689

>  <Chi2n>  (114) 
6.048811

>  <Chi2v>  (114) 
10.644506

>  <Chi3n>  (114) 
3.847795

>  <Chi3v>  (114) 
7.932617

>  <Chi4n>  (114) 
2.641158

>  <Chi4v>  (114) 
5.887109

>  <HallKierAlpha>  (114) 
-1.36

>  <Ipc>  (114) 
3947352.346056

>  <Kappa1>  (114) 
24.285736

>  <Kappa2>  (114) 
8.532213

>  <Kappa3>  (114) 
5.714341

>  <LabuteASA>  (114) 
171.593724

>  <PEOE_VSA1>  (114) 
49.346027

>  <PEOE_VSA10>  (114) 
30.15592

>  <PEOE_VSA11>  (114) 
17.692941

>  <PEOE_VSA12>  (114) 
7.746488

>  <PEOE_VSA13>  (114) 
7.822697

>  <PEOE_VSA14>  (114) 
0.0

>  <PEOE_VSA2>  (114) 
18.007828

>  <PEOE_VSA3>  (114) 
19.809737

>  <PEOE_VSA4>  (114) 
0.0

>  <PEOE_VSA5>  (114) 
0.0

>  <PEOE_VSA6>  (114) 
0.0

>  <PEOE_VSA7>  (114) 
0.0

>  <PEOE_VSA8>  (114) 
7.746488

>  <PEOE_VSA9>  (114) 
12.934202

>  <SMR_VSA1>  (114) 
57.053088

>  <SMR_VSA10>  (114) 
40.297415

>  <SMR_VSA2>  (114) 
0.0

>  <SMR_VSA3>  (114) 
24.376837

>  <SMR_VSA4>  (114) 
0.0

>  <SMR_VSA5>  (114) 
24.5398

>  <SMR_VSA6>  (114) 
12.340549

>  <SMR_VSA7>  (114) 
12.65464

>  <SMR_VSA8>  (114) 
0.0

>  <SMR_VSA9>  (114) 
0.0

>  <SlogP_VSA1>  (114) 
30.165115

>  <SlogP_VSA10>  (114) 
5.817863

>  <SlogP_VSA11>  (114) 
0.0

>  <SlogP_VSA12>  (114) 
23.315674

>  <SlogP_VSA2>  (114) 
54.650871

>  <SlogP_VSA3>  (114) 
27.266386

>  <SlogP_VSA4>  (114) 
0.0

>  <SlogP_VSA5>  (114) 
6.227901

>  <SlogP_VSA6>  (114) 
12.65464

>  <SlogP_VSA7>  (114) 
0.0

>  <SlogP_VSA8>  (114) 
11.163878

>  <SlogP_VSA9>  (114) 
0.0

>  <EState_VSA1>  (114) 
54.462356

>  <EState_VSA10>  (114) 
43.481846

>  <EState_VSA11>  (114) 
0.0

>  <EState_VSA2>  (114) 
16.981741

>  <EState_VSA3>  (114) 
4.857802

>  <EState_VSA4>  (114) 
6.32732

>  <EState_VSA5>  (114) 
10.89442

>  <EState_VSA6>  (114) 
0.0

>  <EState_VSA7>  (114) 
0.0

>  <EState_VSA8>  (114) 
23.786314

>  <EState_VSA9>  (114) 
10.47053

>  <VSA_EState1>  (114) 
47.639432

>  <VSA_EState10>  (114) 
0.0

>  <VSA_EState2>  (114) 
55.77868

>  <VSA_EState3>  (114) 
20.343175

>  <VSA_EState4>  (114) 
5.942789

>  <VSA_EState5>  (114) 
0.025434

>  <VSA_EState6>  (114) 
0.0

>  <VSA_EState7>  (114) 
-3.918472

>  <VSA_EState8>  (114) 
-1.049933

>  <VSA_EState9>  (114) 
-17.511105

>  <FractionCSP3>  (114) 
0.5

>  <HeavyAtomCount>  (114) 
31

>  <NHOHCount>  (114) 
5

>  <NOCount>  (114) 
18

>  <NumAliphaticCarbocycles>  (114) 
0

>  <NumAliphaticHeterocycles>  (114) 
1

>  <NumAliphaticRings>  (114) 
1

>  <NumAromaticCarbocycles>  (114) 
0

>  <NumAromaticHeterocycles>  (114) 
2

>  <NAR>  (114) 
2

>  <NumHAcceptors>  (114) 
17

>  <NumHDonors>  (114) 
4

>  <NumHeteroatoms>  (114) 
21

>  <NumRotatableBonds>  (114) 
8

>  <NumSaturatedCarbocycles>  (114) 
0

>  <NumSaturatedHeterocycles>  (114) 
1

>  <NumSaturatedRings>  (114) 
1

>  <RingCount>  (114) 
3

>  <MolLogP>  (114) 
-4.584

>  <MolMR>  (114) 
88.6512

>  <fr_Al_COO>  (114) 
0

>  <fr_Al_OH>  (114) 
2

>  <fr_Al_OH_noTert>  (114) 
2

>  <fr_ArN>  (114) 
1

>  <fr_Ar_COO>  (114) 
0

>  <fr_Ar_N>  (114) 
4

>  <fr_Ar_NH>  (114) 
0

>  <fr_Ar_OH>  (114) 
0

>  <fr_COO>  (114) 
0

>  <fr_COO2>  (114) 
0

>  <fr_C_O>  (114) 
0

>  <fr_C_O_noCOO>  (114) 
0

>  <fr_C_S>  (114) 
0

>  <fr_HOCCN>  (114) 
0

>  <fr_Imine>  (114) 
0

>  <fr_NH0>  (114) 
4

>  <fr_NH1>  (114) 
1

>  <fr_NH2>  (114) 
1

>  <fr_N_O>  (114) 
0

>  <fr_Ndealkylation1>  (114) 
0

>  <fr_Ndealkylation2>  (114) 
0

>  <fr_Nhpyrrole>  (114) 
0

>  <fr_SH>  (114) 
0

>  <fr_aldehyde>  (114) 
0

>  <fr_alkyl_carbamate>  (114) 
0

>  <fr_alkyl_halide>  (114) 
0

>  <fr_allylic_oxid>  (114) 
0

>  <fr_amide>  (114) 
0

>  <fr_amidine>  (114) 
0

>  <fr_aniline>  (114) 
1

>  <fr_aryl_methyl>  (114) 
0

>  <fr_azide>  (114) 
0

>  <fr_azo>  (114) 
0

>  <fr_barbitur>  (114) 
0

>  <fr_benzene>  (114) 
0

>  <fr_benzodiazepine>  (114) 
0

>  <fr_bicyclic>  (114) 
1

>  <fr_diazo>  (114) 
0

>  <fr_dihydropyridine>  (114) 
0

>  <fr_epoxide>  (114) 
0

>  <fr_ester>  (114) 
0

>  <fr_ether>  (114) 
1

>  <fr_furan>  (114) 
0

>  <fr_guanido>  (114) 
0

>  <fr_halogen>  (114) 
0

>  <fr_hdrzine>  (114) 
0

>  <fr_hdrzone>  (114) 
0

>  <fr_imidazole>  (114) 
1

>  <fr_imide>  (114) 
0

>  <fr_isocyan>  (114) 
0

>  <fr_isothiocyan>  (114) 
0

>  <fr_ketone>  (114) 
0

>  <fr_ketone_Topliss>  (114) 
0

>  <fr_lactam>  (114) 
0

>  <fr_lactone>  (114) 
0

>  <fr_methoxy>  (114) 
0

>  <fr_morpholine>  (114) 
0

>  <fr_nitrile>  (114) 
0

>  <fr_nitro>  (114) 
0

>  <fr_nitro_arom>  (114) 
0

>  <fr_nitro_arom_nonortho>  (114) 
0

>  <fr_nitroso>  (114) 
0

>  <fr_oxazole>  (114) 
0

>  <fr_oxime>  (114) 
0

>  <fr_para_hydroxylation>  (114) 
0

>  <fr_phenol>  (114) 
0

>  <fr_phenol_noOrthoHbond>  (114) 
0

>  <fr_phos_acid>  (114) 
1

>  <fr_phos_ester>  (114) 
1

>  <fr_piperdine>  (114) 
0

>  <fr_piperzine>  (114) 
0

>  <fr_priamide>  (114) 
0

>  <fr_prisulfonamd>  (114) 
0

>  <fr_pyridine>  (114) 
0

>  <fr_quatN>  (114) 
0

>  <fr_sulfide>  (114) 
0

>  <fr_sulfonamd>  (114) 
0

>  <fr_sulfone>  (114) 
0

>  <fr_term_acetylene>  (114) 
0

>  <fr_tetrazole>  (114) 
0

>  <fr_thiazole>  (114) 
0

>  <fr_thiocyan>  (114) 
0

>  <fr_thiophene>  (114) 
0

>  <fr_unbrch_alkane>  (114) 
0

>  <fr_urea>  (114) 
0

>  <NP-Likeness>  (114) 
0.781644

$$$$
ANP
     RDKit          3D

  0  0  0  0  0  0  0  0  0  0999 V3000
M  V30 BEGIN CTAB
M  V30 COUNTS 44 46 0 0 0
M  V30 BEGIN ATOM
M  V30 1 O 3.804972 0.256954 0.199957 0
M  V30 2 C 3.071562 -0.699356 0.920550 0 CFG=1
M  V30 3 C 2.793476 -0.034110 2.276014 0 CFG=1
M  V30 4 O 3.860673 0.729209 2.714109 0
M  V30 5 C 1.609080 0.829414 1.819143 0 CFG=2
M  V30 6 N 0.999910 1.511799 2.929364 0
M  V30 7 C 1.391537 1.566846 4.215518 0
M  V30 8 N 0.497200 2.328062 4.870940 0
M  V30 9 C -0.438095 2.741281 4.005576 0
M  V30 10 C -0.127687 2.225293 2.758228 0
M  V30 11 N -0.936299 2.512619 1.726839 0
M  V30 12 C -2.037811 3.277333 1.833979 0
M  V30 13 N -2.324767 3.770978 3.054492 0
M  V30 14 C -1.574365 3.538385 4.149548 0
M  V30 15 N -1.883559 4.063176 5.435864 0
M  V30 16 O 0.817449 -0.147290 1.265944 0
M  V30 17 C 1.662532 -0.768875 0.348130 0 CFG=2
M  V30 18 C 1.309787 -2.234938 0.170964 0
M  V30 19 O 0.019078 -2.406076 -0.286665 0
M  V30 20 P -0.346050 -4.056956 -0.475479 0 CFG=2 VAL=5
M  V30 21 O -1.830535 -4.254716 -0.233766 0
M  V30 22 O 0.494676 -4.914502 0.738920 0 CHG=-1 VAL=1
M  V30 23 O 0.115221 -4.633660 -1.996434 0
M  V30 24 P -1.264318 -4.755191 -2.995361 0 CFG=1 VAL=5
M  V30 25 O -1.667435 -6.203821 -3.149764 0
M  V30 26 O -2.565210 -3.932456 -2.258537 0 CHG=-1 VAL=1
M  V30 27 N -0.939646 -4.114999 -4.589935 0
M  V30 28 P -1.697966 -2.558248 -4.844712 0
M  V30 29 O -2.758341 -2.369451 -3.768950 0
M  V30 30 O -0.580966 -1.290427 -4.770205 0 CHG=-1 VAL=1
M  V30 31 O -2.485242 -2.506038 -6.334258 0 CHG=-1 VAL=1
M  V30 32 H 4.661309 -0.073356 -0.117656 0
M  V30 33 H 3.563103 -1.667569 1.007388 0
M  V30 34 H 2.460322 -0.797577 3.003953 0
M  V30 35 H 4.271901 0.218109 3.465092 0
M  V30 36 H 1.999913 1.478554 1.031413 0
M  V30 37 H 2.260112 1.076506 4.587367 0
M  V30 38 H -2.671125 3.489463 0.973906 0
M  V30 39 H -1.695810 4.896999 6.038486 0
M  V30 40 H -1.619631 4.947964 5.938005 0
M  V30 41 H 1.585363 -0.287887 -0.643267 0
M  V30 42 H 2.086832 -2.659649 -0.503986 0
M  V30 43 H 1.425899 -2.693440 1.183988 0
M  V30 44 H 0.080834 -4.069179 -4.817113 0
M  V30 END ATOM
M  V30 BEGIN BOND
M  V30 1 1 1 2
M  V30 2 1 2 3
M  V30 3 1 3 4
M  V30 4 1 3 5
M  V30 5 1 5 6
M  V30 6 1 6 7
M  V30 7 2 7 8
M  V30 8 1 8 9
M  V30 9 2 9 10
M  V30 10 1 10 11
M  V30 11 2 11 12
M  V30 12 1 12 13
M  V30 13 2 13 14
M  V30 14 1 14 15
M  V30 15 1 5 16
M  V30 16 1 16 17
M  V30 17 1 17 18
M  V30 18 1 18 19
M  V30 19 1 19 20
M  V30 20 2 20 21
M  V30 21 1 20 22 CFG=1
M  V30 22 1 20 23
M  V30 23 1 23 24
M  V30 24 2 24 25
M  V30 25 1 24 26 CFG=1
M  V30 26 1 24 27
M  V30 27 1 27 28
M  V30 28 2 28 29
M  V30 29 1 28 30
M  V30 30 1 28 31
M  V30 31 1 17 2
M  V30 32 1 10 6
M  V30 33 1 14 9
M  V30 34 1 1 32
M  V30 35 1 2 33 CFG=1
M  V30 36 1 3 34 CFG=1
M  V30 37 1 4 35
M  V30 38 1 5 36 CFG=3
M  V30 39 1 7 37
M  V30 40 1 12 38
M  V30 41 1 15 39
M  V30 42 1 15 40
M  V30 43 1 17 41 CFG=3
M  V30 44 1 18 42
M  V30 45 1 18 43
M  V30 46 1 27 44
M  V30 END BOND
M  V30 END CTAB
M  END
>  <Dataset>  (115) 
PDB

>  <Ligand_Instance>  (115) 
7E0Z_ANP_A_401

>  <PDB_ID>  (115) 
7E0Z

>  <Standardized_SMILES>  (115) 
[H]O[C@@]1([H])[C@@]([H])(O[H])[C@]([H])(N2C([H])=NC3=C2N=C([H])N=C3N([H])[H])O[C@]1([H])C([H])([H])O[P@](=O)([O-])O[P@@](=O)([O-])N([H])P(=O)([O-])[O-]

>  <Name>  (115) 
PHOSPHOAMINOPHOSPHONIC ACID-ADENYLATE ESTER

>  <Pocket>  (115) 
A

>  <ATP_Site>  (115) 
1.0

>  <Peripheral>  (115) 
0.0

>  <Num_H_Atoms_ProtBoundConf>  (115) 
13.0

>  <Num_Resolved_Atoms>  (115) 
31.0

>  <Num_Not_Resolved_Atoms>  (115) 
0.0

>  <2D_Mol_H>  (115) 
<rdkit.Chem.rdchem.Mol object at 0x72a238da4c80>

>  <MW>  (115) 
502.166

>  <HBA>  (115) 
17

>  <HBD>  (115) 
4

>  <LogP>  (115) 
-4.584

>  <NRB>  (115) 
11

>  <TPSA>  (115) 
293.25

>  <Num_Heavy_Atoms>  (115) 
31

>  <Ro5>  (115) 
[False, False, True, True, False, False]

>  <Ro5_Fulfilled>  (115) 
False

>  <Ro3>  (115) 
[False, False, False, True]

>  <Ro3_Fulfilled>  (115) 
False

>  <Fsp3>  (115) 
0.5

>  <Fsp3_0.42>  (115) 
True

>  <Fsp3_0.45>  (115) 
True

>  <Stereogenic_Carbons>  (115) 
4

>  <C_Atoms>  (115) 
10

>  <FCStereo>  (115) 
0.4

>  <SPS>  (115) 
882

>  <nSPS>  (115) 
28.451613

>  <PBF>  (115) 
1.009701

>  <PBF_0.6>  (115) 
True

>  <nPBF>  (115) 
0.032571

>  <nPBF_0.016>  (115) 
True

>  <PMI1>  (115) 
2650.741576

>  <PMI2>  (115) 
9393.551801

>  <PMI3>  (115) 
10259.69058

>  <NPR1>  (115) 
0.258365

>  <NPR2>  (115) 
0.915578

>  <Sum_NPR>  (115) 
1.173943

>  <Sum_NPR_1.07>  (115) 
True

>  <Sum_NPR_1.2>  (115) 
False

>  <MaxAbsEStateIndex>  (115) 
11.631022

>  <MaxEStateIndex>  (115) 
11.631022

>  <MinAbsEStateIndex>  (115) 
0.025434

>  <MinEStateIndex>  (115) 
-5.88789

>  <qed>  (115) 
0.246841

>  <MolWt>  (115) 
502.166

>  <HeavyAtomMolWt>  (115) 
489.062

>  <ExactMolWt>  (115) 
501.982624

>  <NumValenceElectrons>  (115) 
174

>  <NumRadicalElectrons>  (115) 
0

>  <MaxPartialCharge>  (115) 
0.273292

>  <MinPartialCharge>  (115) 
-0.799075

>  <MaxAbsPartialCharge>  (115) 
0.799075

>  <MinAbsPartialCharge>  (115) 
0.273292

>  <FpDensityMorgan1>  (115) 
1.16129

>  <FpDensityMorgan2>  (115) 
1.83871

>  <FpDensityMorgan3>  (115) 
2.483871

>  <BCUT2D_MWHI>  (115) 
31.287813

>  <BCUT2D_MWLOW>  (115) 
10.128388

>  <BCUT2D_CHGHI>  (115) 
2.44611

>  <BCUT2D_CHGLO>  (115) 
-2.388133

>  <BCUT2D_LOGPHI>  (115) 
2.552246

>  <BCUT2D_LOGPLOW>  (115) 
-2.341071

>  <BCUT2D_MRHI>  (115) 
7.684213

>  <BCUT2D_MRLOW>  (115) 
-0.316952

>  <AvgIpc>  (115) 
3.133568

>  <BalabanJ>  (115) 
1.689409

>  <BertzCT>  (115) 
1105.970439

>  <Chi0>  (115) 
23.18987

>  <Chi0n>  (115) 
14.855964

>  <Chi0v>  (115) 
17.539246

>  <Chi1>  (115) 
14.190889

>  <Chi1n>  (115) 
7.931778

>  <Chi1v>  (115) 
12.477689

>  <Chi2n>  (115) 
6.048811

>  <Chi2v>  (115) 
10.644506

>  <Chi3n>  (115) 
3.847795

>  <Chi3v>  (115) 
7.932617

>  <Chi4n>  (115) 
2.641158

>  <Chi4v>  (115) 
5.887109

>  <HallKierAlpha>  (115) 
-1.36

>  <Ipc>  (115) 
3947352.346056

>  <Kappa1>  (115) 
24.285736

>  <Kappa2>  (115) 
8.532213

>  <Kappa3>  (115) 
5.714341

>  <LabuteASA>  (115) 
171.593724

>  <PEOE_VSA1>  (115) 
49.346027

>  <PEOE_VSA10>  (115) 
30.15592

>  <PEOE_VSA11>  (115) 
17.692941

>  <PEOE_VSA12>  (115) 
7.746488

>  <PEOE_VSA13>  (115) 
7.822697

>  <PEOE_VSA14>  (115) 
0.0

>  <PEOE_VSA2>  (115) 
18.007828

>  <PEOE_VSA3>  (115) 
19.809737

>  <PEOE_VSA4>  (115) 
0.0

>  <PEOE_VSA5>  (115) 
0.0

>  <PEOE_VSA6>  (115) 
0.0

>  <PEOE_VSA7>  (115) 
0.0

>  <PEOE_VSA8>  (115) 
7.746488

>  <PEOE_VSA9>  (115) 
12.934202

>  <SMR_VSA1>  (115) 
57.053088

>  <SMR_VSA10>  (115) 
40.297415

>  <SMR_VSA2>  (115) 
0.0

>  <SMR_VSA3>  (115) 
24.376837

>  <SMR_VSA4>  (115) 
0.0

>  <SMR_VSA5>  (115) 
24.5398

>  <SMR_VSA6>  (115) 
12.340549

>  <SMR_VSA7>  (115) 
12.65464

>  <SMR_VSA8>  (115) 
0.0

>  <SMR_VSA9>  (115) 
0.0

>  <SlogP_VSA1>  (115) 
30.165115

>  <SlogP_VSA10>  (115) 
5.817863

>  <SlogP_VSA11>  (115) 
0.0

>  <SlogP_VSA12>  (115) 
23.315674

>  <SlogP_VSA2>  (115) 
54.650871

>  <SlogP_VSA3>  (115) 
27.266386

>  <SlogP_VSA4>  (115) 
0.0

>  <SlogP_VSA5>  (115) 
6.227901

>  <SlogP_VSA6>  (115) 
12.65464

>  <SlogP_VSA7>  (115) 
0.0

>  <SlogP_VSA8>  (115) 
11.163878

>  <SlogP_VSA9>  (115) 
0.0

>  <EState_VSA1>  (115) 
54.462356

>  <EState_VSA10>  (115) 
43.481846

>  <EState_VSA11>  (115) 
0.0

>  <EState_VSA2>  (115) 
16.981741

>  <EState_VSA3>  (115) 
4.857802

>  <EState_VSA4>  (115) 
6.32732

>  <EState_VSA5>  (115) 
10.89442

>  <EState_VSA6>  (115) 
0.0

>  <EState_VSA7>  (115) 
0.0

>  <EState_VSA8>  (115) 
23.786314

>  <EState_VSA9>  (115) 
10.47053

>  <VSA_EState1>  (115) 
47.639432

>  <VSA_EState10>  (115) 
0.0

>  <VSA_EState2>  (115) 
55.77868

>  <VSA_EState3>  (115) 
20.343175

>  <VSA_EState4>  (115) 
5.942789

>  <VSA_EState5>  (115) 
0.025434

>  <VSA_EState6>  (115) 
0.0

>  <VSA_EState7>  (115) 
-3.918472

>  <VSA_EState8>  (115) 
-1.049933

>  <VSA_EState9>  (115) 
-17.511105

>  <FractionCSP3>  (115) 
0.5

>  <HeavyAtomCount>  (115) 
31

>  <NHOHCount>  (115) 
5

>  <NOCount>  (115) 
18

>  <NumAliphaticCarbocycles>  (115) 
0

>  <NumAliphaticHeterocycles>  (115) 
1

>  <NumAliphaticRings>  (115) 
1

>  <NumAromaticCarbocycles>  (115) 
0

>  <NumAromaticHeterocycles>  (115) 
2

>  <NAR>  (115) 
2

>  <NumHAcceptors>  (115) 
17

>  <NumHDonors>  (115) 
4

>  <NumHeteroatoms>  (115) 
21

>  <NumRotatableBonds>  (115) 
8

>  <NumSaturatedCarbocycles>  (115) 
0

>  <NumSaturatedHeterocycles>  (115) 
1

>  <NumSaturatedRings>  (115) 
1

>  <RingCount>  (115) 
3

>  <MolLogP>  (115) 
-4.584

>  <MolMR>  (115) 
88.6512

>  <fr_Al_COO>  (115) 
0

>  <fr_Al_OH>  (115) 
2

>  <fr_Al_OH_noTert>  (115) 
2

>  <fr_ArN>  (115) 
1

>  <fr_Ar_COO>  (115) 
0

>  <fr_Ar_N>  (115) 
4

>  <fr_Ar_NH>  (115) 
0

>  <fr_Ar_OH>  (115) 
0

>  <fr_COO>  (115) 
0

>  <fr_COO2>  (115) 
0

>  <fr_C_O>  (115) 
0

>  <fr_C_O_noCOO>  (115) 
0

>  <fr_C_S>  (115) 
0

>  <fr_HOCCN>  (115) 
0

>  <fr_Imine>  (115) 
0

>  <fr_NH0>  (115) 
4

>  <fr_NH1>  (115) 
1

>  <fr_NH2>  (115) 
1

>  <fr_N_O>  (115) 
0

>  <fr_Ndealkylation1>  (115) 
0

>  <fr_Ndealkylation2>  (115) 
0

>  <fr_Nhpyrrole>  (115) 
0

>  <fr_SH>  (115) 
0

>  <fr_aldehyde>  (115) 
0

>  <fr_alkyl_carbamate>  (115) 
0

>  <fr_alkyl_halide>  (115) 
0

>  <fr_allylic_oxid>  (115) 
0

>  <fr_amide>  (115) 
0

>  <fr_amidine>  (115) 
0

>  <fr_aniline>  (115) 
1

>  <fr_aryl_methyl>  (115) 
0

>  <fr_azide>  (115) 
0

>  <fr_azo>  (115) 
0

>  <fr_barbitur>  (115) 
0

>  <fr_benzene>  (115) 
0

>  <fr_benzodiazepine>  (115) 
0

>  <fr_bicyclic>  (115) 
1

>  <fr_diazo>  (115) 
0

>  <fr_dihydropyridine>  (115) 
0

>  <fr_epoxide>  (115) 
0

>  <fr_ester>  (115) 
0

>  <fr_ether>  (115) 
1

>  <fr_furan>  (115) 
0

>  <fr_guanido>  (115) 
0

>  <fr_halogen>  (115) 
0

>  <fr_hdrzine>  (115) 
0

>  <fr_hdrzone>  (115) 
0

>  <fr_imidazole>  (115) 
1

>  <fr_imide>  (115) 
0

>  <fr_isocyan>  (115) 
0

>  <fr_isothiocyan>  (115) 
0

>  <fr_ketone>  (115) 
0

>  <fr_ketone_Topliss>  (115) 
0

>  <fr_lactam>  (115) 
0

>  <fr_lactone>  (115) 
0

>  <fr_methoxy>  (115) 
0

>  <fr_morpholine>  (115) 
0

>  <fr_nitrile>  (115) 
0

>  <fr_nitro>  (115) 
0

>  <fr_nitro_arom>  (115) 
0

>  <fr_nitro_arom_nonortho>  (115) 
0

>  <fr_nitroso>  (115) 
0

>  <fr_oxazole>  (115) 
0

>  <fr_oxime>  (115) 
0

>  <fr_para_hydroxylation>  (115) 
0

>  <fr_phenol>  (115) 
0

>  <fr_phenol_noOrthoHbond>  (115) 
0

>  <fr_phos_acid>  (115) 
1

>  <fr_phos_ester>  (115) 
1

>  <fr_piperdine>  (115) 
0

>  <fr_piperzine>  (115) 
0

>  <fr_priamide>  (115) 
0

>  <fr_prisulfonamd>  (115) 
0

>  <fr_pyridine>  (115) 
0

>  <fr_quatN>  (115) 
0

>  <fr_sulfide>  (115) 
0

>  <fr_sulfonamd>  (115) 
0

>  <fr_sulfone>  (115) 
0

>  <fr_term_acetylene>  (115) 
0

>  <fr_tetrazole>  (115) 
0

>  <fr_thiazole>  (115) 
0

>  <fr_thiocyan>  (115) 
0

>  <fr_thiophene>  (115) 
0

>  <fr_unbrch_alkane>  (115) 
0

>  <fr_urea>  (115) 
0

>  <NP-Likeness>  (115) 
0.781644

$$$$
ANP
     RDKit          3D

  0  0  0  0  0  0  0  0  0  0999 V3000
M  V30 BEGIN CTAB
M  V30 COUNTS 44 46 0 0 0
M  V30 BEGIN ATOM
M  V30 1 O 3.804972 0.256954 0.199957 0
M  V30 2 C 3.071562 -0.699356 0.920550 0 CFG=1
M  V30 3 C 2.793476 -0.034110 2.276014 0 CFG=1
M  V30 4 O 3.860673 0.729209 2.714109 0
M  V30 5 C 1.609080 0.829414 1.819143 0 CFG=2
M  V30 6 N 0.999910 1.511799 2.929364 0
M  V30 7 C 1.391537 1.566846 4.215518 0
M  V30 8 N 0.497200 2.328062 4.870940 0
M  V30 9 C -0.438095 2.741281 4.005576 0
M  V30 10 C -0.127687 2.225293 2.758228 0
M  V30 11 N -0.936299 2.512619 1.726839 0
M  V30 12 C -2.037811 3.277333 1.833979 0
M  V30 13 N -2.324767 3.770978 3.054492 0
M  V30 14 C -1.574365 3.538385 4.149548 0
M  V30 15 N -1.883559 4.063176 5.435864 0
M  V30 16 O 0.817449 -0.147290 1.265944 0
M  V30 17 C 1.662532 -0.768875 0.348130 0 CFG=2
M  V30 18 C 1.309787 -2.234938 0.170964 0
M  V30 19 O 0.019078 -2.406076 -0.286665 0
M  V30 20 P -0.346050 -4.056956 -0.475479 0 CFG=2 VAL=5
M  V30 21 O -1.830535 -4.254716 -0.233766 0
M  V30 22 O 0.494676 -4.914502 0.738920 0 CHG=-1 VAL=1
M  V30 23 O 0.115221 -4.633660 -1.996434 0
M  V30 24 P -1.264318 -4.755191 -2.995361 0 CFG=1 VAL=5
M  V30 25 O -1.667435 -6.203821 -3.149764 0
M  V30 26 O -2.565210 -3.932456 -2.258537 0 CHG=-1 VAL=1
M  V30 27 N -0.939646 -4.114999 -4.589935 0
M  V30 28 P -1.697966 -2.558248 -4.844712 0
M  V30 29 O -2.758341 -2.369451 -3.768950 0
M  V30 30 O -0.580966 -1.290427 -4.770205 0 CHG=-1 VAL=1
M  V30 31 O -2.485242 -2.506038 -6.334258 0 CHG=-1 VAL=1
M  V30 32 H 4.661309 -0.073356 -0.117656 0
M  V30 33 H 3.563103 -1.667569 1.007388 0
M  V30 34 H 2.460322 -0.797577 3.003953 0
M  V30 35 H 4.271901 0.218109 3.465092 0
M  V30 36 H 1.999913 1.478554 1.031413 0
M  V30 37 H 2.260112 1.076506 4.587367 0
M  V30 38 H -2.671125 3.489463 0.973906 0
M  V30 39 H -1.695810 4.896999 6.038486 0
M  V30 40 H -1.619631 4.947964 5.938005 0
M  V30 41 H 1.585363 -0.287887 -0.643267 0
M  V30 42 H 2.086832 -2.659649 -0.503986 0
M  V30 43 H 1.425899 -2.693440 1.183988 0
M  V30 44 H 0.080834 -4.069179 -4.817113 0
M  V30 END ATOM
M  V30 BEGIN BOND
M  V30 1 1 1 2
M  V30 2 1 2 3
M  V30 3 1 3 4
M  V30 4 1 3 5
M  V30 5 1 5 6
M  V30 6 1 6 7
M  V30 7 2 7 8
M  V30 8 1 8 9
M  V30 9 2 9 10
M  V30 10 1 10 11
M  V30 11 2 11 12
M  V30 12 1 12 13
M  V30 13 2 13 14
M  V30 14 1 14 15
M  V30 15 1 5 16
M  V30 16 1 16 17
M  V30 17 1 17 18
M  V30 18 1 18 19
M  V30 19 1 19 20
M  V30 20 2 20 21
M  V30 21 1 20 22 CFG=1
M  V30 22 1 20 23
M  V30 23 1 23 24
M  V30 24 2 24 25
M  V30 25 1 24 26 CFG=1
M  V30 26 1 24 27
M  V30 27 1 27 28
M  V30 28 2 28 29
M  V30 29 1 28 30
M  V30 30 1 28 31
M  V30 31 1 17 2
M  V30 32 1 10 6
M  V30 33 1 14 9
M  V30 34 1 1 32
M  V30 35 1 2 33 CFG=1
M  V30 36 1 3 34 CFG=1
M  V30 37 1 4 35
M  V30 38 1 5 36 CFG=3
M  V30 39 1 7 37
M  V30 40 1 12 38
M  V30 41 1 15 39
M  V30 42 1 15 40
M  V30 43 1 17 41 CFG=3
M  V30 44 1 18 42
M  V30 45 1 18 43
M  V30 46 1 27 44
M  V30 END BOND
M  V30 END CTAB
M  END
>  <Dataset>  (116) 
PDB

>  <Ligand_Instance>  (116) 
7E11_ANP_A_401

>  <PDB_ID>  (116) 
700000000000.0

>  <Standardized_SMILES>  (116) 
[H]O[C@@]1([H])[C@@]([H])(O[H])[C@]([H])(N2C([H])=NC3=C2N=C([H])N=C3N([H])[H])O[C@]1([H])C([H])([H])O[P@](=O)([O-])O[P@@](=O)([O-])N([H])P(=O)([O-])[O-]

>  <Name>  (116) 
PHOSPHOAMINOPHOSPHONIC ACID-ADENYLATE ESTER

>  <Pocket>  (116) 
A

>  <ATP_Site>  (116) 
1.0

>  <Peripheral>  (116) 
0.0

>  <Num_H_Atoms_ProtBoundConf>  (116) 
13.0

>  <Num_Resolved_Atoms>  (116) 
31.0

>  <Num_Not_Resolved_Atoms>  (116) 
0.0

>  <2D_Mol_H>  (116) 
<rdkit.Chem.rdchem.Mol object at 0x72a238da4d60>

>  <MW>  (116) 
502.166

>  <HBA>  (116) 
17

>  <HBD>  (116) 
4

>  <LogP>  (116) 
-4.584

>  <NRB>  (116) 
11

>  <TPSA>  (116) 
293.25

>  <Num_Heavy_Atoms>  (116) 
31

>  <Ro5>  (116) 
[False, False, True, True, False, False]

>  <Ro5_Fulfilled>  (116) 
False

>  <Ro3>  (116) 
[False, False, False, True]

>  <Ro3_Fulfilled>  (116) 
False

>  <Fsp3>  (116) 
0.5

>  <Fsp3_0.42>  (116) 
True

>  <Fsp3_0.45>  (116) 
True

>  <Stereogenic_Carbons>  (116) 
4

>  <C_Atoms>  (116) 
10

>  <FCStereo>  (116) 
0.4

>  <SPS>  (116) 
882

>  <nSPS>  (116) 
28.451613

>  <PBF>  (116) 
1.009701

>  <PBF_0.6>  (116) 
True

>  <nPBF>  (116) 
0.032571

>  <nPBF_0.016>  (116) 
True

>  <PMI1>  (116) 
2650.741576

>  <PMI2>  (116) 
9393.551801

>  <PMI3>  (116) 
10259.69058

>  <NPR1>  (116) 
0.258365

>  <NPR2>  (116) 
0.915578

>  <Sum_NPR>  (116) 
1.173943

>  <Sum_NPR_1.07>  (116) 
True

>  <Sum_NPR_1.2>  (116) 
False

>  <MaxAbsEStateIndex>  (116) 
11.631022

>  <MaxEStateIndex>  (116) 
11.631022

>  <MinAbsEStateIndex>  (116) 
0.025434

>  <MinEStateIndex>  (116) 
-5.88789

>  <qed>  (116) 
0.246841

>  <MolWt>  (116) 
502.166

>  <HeavyAtomMolWt>  (116) 
489.062

>  <ExactMolWt>  (116) 
501.982624

>  <NumValenceElectrons>  (116) 
174

>  <NumRadicalElectrons>  (116) 
0

>  <MaxPartialCharge>  (116) 
0.273292

>  <MinPartialCharge>  (116) 
-0.799075

>  <MaxAbsPartialCharge>  (116) 
0.799075

>  <MinAbsPartialCharge>  (116) 
0.273292

>  <FpDensityMorgan1>  (116) 
1.16129

>  <FpDensityMorgan2>  (116) 
1.83871

>  <FpDensityMorgan3>  (116) 
2.483871

>  <BCUT2D_MWHI>  (116) 
31.287813

>  <BCUT2D_MWLOW>  (116) 
10.128388

>  <BCUT2D_CHGHI>  (116) 
2.44611

>  <BCUT2D_CHGLO>  (116) 
-2.388133

>  <BCUT2D_LOGPHI>  (116) 
2.552246

>  <BCUT2D_LOGPLOW>  (116) 
-2.341071

>  <BCUT2D_MRHI>  (116) 
7.684213

>  <BCUT2D_MRLOW>  (116) 
-0.316952

>  <AvgIpc>  (116) 
3.133568

>  <BalabanJ>  (116) 
1.689409

>  <BertzCT>  (116) 
1105.970439

>  <Chi0>  (116) 
23.18987

>  <Chi0n>  (116) 
14.855964

>  <Chi0v>  (116) 
17.539246

>  <Chi1>  (116) 
14.190889

>  <Chi1n>  (116) 
7.931778

>  <Chi1v>  (116) 
12.477689

>  <Chi2n>  (116) 
6.048811

>  <Chi2v>  (116) 
10.644506

>  <Chi3n>  (116) 
3.847795

>  <Chi3v>  (116) 
7.932617

>  <Chi4n>  (116) 
2.641158

>  <Chi4v>  (116) 
5.887109

>  <HallKierAlpha>  (116) 
-1.36

>  <Ipc>  (116) 
3947352.346056

>  <Kappa1>  (116) 
24.285736

>  <Kappa2>  (116) 
8.532213

>  <Kappa3>  (116) 
5.714341

>  <LabuteASA>  (116) 
171.593724

>  <PEOE_VSA1>  (116) 
49.346027

>  <PEOE_VSA10>  (116) 
30.15592

>  <PEOE_VSA11>  (116) 
17.692941

>  <PEOE_VSA12>  (116) 
7.746488

>  <PEOE_VSA13>  (116) 
7.822697

>  <PEOE_VSA14>  (116) 
0.0

>  <PEOE_VSA2>  (116) 
18.007828

>  <PEOE_VSA3>  (116) 
19.809737

>  <PEOE_VSA4>  (116) 
0.0

>  <PEOE_VSA5>  (116) 
0.0

>  <PEOE_VSA6>  (116) 
0.0

>  <PEOE_VSA7>  (116) 
0.0

>  <PEOE_VSA8>  (116) 
7.746488

>  <PEOE_VSA9>  (116) 
12.934202

>  <SMR_VSA1>  (116) 
57.053088

>  <SMR_VSA10>  (116) 
40.297415

>  <SMR_VSA2>  (116) 
0.0

>  <SMR_VSA3>  (116) 
24.376837

>  <SMR_VSA4>  (116) 
0.0

>  <SMR_VSA5>  (116) 
24.5398

>  <SMR_VSA6>  (116) 
12.340549

>  <SMR_VSA7>  (116) 
12.65464

>  <SMR_VSA8>  (116) 
0.0

>  <SMR_VSA9>  (116) 
0.0

>  <SlogP_VSA1>  (116) 
30.165115

>  <SlogP_VSA10>  (116) 
5.817863

>  <SlogP_VSA11>  (116) 
0.0

>  <SlogP_VSA12>  (116) 
23.315674

>  <SlogP_VSA2>  (116) 
54.650871

>  <SlogP_VSA3>  (116) 
27.266386

>  <SlogP_VSA4>  (116) 
0.0

>  <SlogP_VSA5>  (116) 
6.227901

>  <SlogP_VSA6>  (116) 
12.65464

>  <SlogP_VSA7>  (116) 
0.0

>  <SlogP_VSA8>  (116) 
11.163878

>  <SlogP_VSA9>  (116) 
0.0

>  <EState_VSA1>  (116) 
54.462356

>  <EState_VSA10>  (116) 
43.481846

>  <EState_VSA11>  (116) 
0.0

>  <EState_VSA2>  (116) 
16.981741

>  <EState_VSA3>  (116) 
4.857802

>  <EState_VSA4>  (116) 
6.32732

>  <EState_VSA5>  (116) 
10.89442

>  <EState_VSA6>  (116) 
0.0

>  <EState_VSA7>  (116) 
0.0

>  <EState_VSA8>  (116) 
23.786314

>  <EState_VSA9>  (116) 
10.47053

>  <VSA_EState1>  (116) 
47.639432

>  <VSA_EState10>  (116) 
0.0

>  <VSA_EState2>  (116) 
55.77868

>  <VSA_EState3>  (116) 
20.343175

>  <VSA_EState4>  (116) 
5.942789

>  <VSA_EState5>  (116) 
0.025434

>  <VSA_EState6>  (116) 
0.0

>  <VSA_EState7>  (116) 
-3.918472

>  <VSA_EState8>  (116) 
-1.049933

>  <VSA_EState9>  (116) 
-17.511105

>  <FractionCSP3>  (116) 
0.5

>  <HeavyAtomCount>  (116) 
31

>  <NHOHCount>  (116) 
5

>  <NOCount>  (116) 
18

>  <NumAliphaticCarbocycles>  (116) 
0

>  <NumAliphaticHeterocycles>  (116) 
1

>  <NumAliphaticRings>  (116) 
1

>  <NumAromaticCarbocycles>  (116) 
0

>  <NumAromaticHeterocycles>  (116) 
2

>  <NAR>  (116) 
2

>  <NumHAcceptors>  (116) 
17

>  <NumHDonors>  (116) 
4

>  <NumHeteroatoms>  (116) 
21

>  <NumRotatableBonds>  (116) 
8

>  <NumSaturatedCarbocycles>  (116) 
0

>  <NumSaturatedHeterocycles>  (116) 
1

>  <NumSaturatedRings>  (116) 
1

>  <RingCount>  (116) 
3

>  <MolLogP>  (116) 
-4.584

>  <MolMR>  (116) 
88.6512

>  <fr_Al_COO>  (116) 
0

>  <fr_Al_OH>  (116) 
2

>  <fr_Al_OH_noTert>  (116) 
2

>  <fr_ArN>  (116) 
1

>  <fr_Ar_COO>  (116) 
0

>  <fr_Ar_N>  (116) 
4

>  <fr_Ar_NH>  (116) 
0

>  <fr_Ar_OH>  (116) 
0

>  <fr_COO>  (116) 
0

>  <fr_COO2>  (116) 
0

>  <fr_C_O>  (116) 
0

>  <fr_C_O_noCOO>  (116) 
0

>  <fr_C_S>  (116) 
0

>  <fr_HOCCN>  (116) 
0

>  <fr_Imine>  (116) 
0

>  <fr_NH0>  (116) 
4

>  <fr_NH1>  (116) 
1

>  <fr_NH2>  (116) 
1

>  <fr_N_O>  (116) 
0

>  <fr_Ndealkylation1>  (116) 
0

>  <fr_Ndealkylation2>  (116) 
0

>  <fr_Nhpyrrole>  (116) 
0

>  <fr_SH>  (116) 
0

>  <fr_aldehyde>  (116) 
0

>  <fr_alkyl_carbamate>  (116) 
0

>  <fr_alkyl_halide>  (116) 
0

>  <fr_allylic_oxid>  (116) 
0

>  <fr_amide>  (116) 
0

>  <fr_amidine>  (116) 
0

>  <fr_aniline>  (116) 
1

>  <fr_aryl_methyl>  (116) 
0

>  <fr_azide>  (116) 
0

>  <fr_azo>  (116) 
0

>  <fr_barbitur>  (116) 
0

>  <fr_benzene>  (116) 
0

>  <fr_benzodiazepine>  (116) 
0

>  <fr_bicyclic>  (116) 
1

>  <fr_diazo>  (116) 
0

>  <fr_dihydropyridine>  (116) 
0

>  <fr_epoxide>  (116) 
0

>  <fr_ester>  (116) 
0

>  <fr_ether>  (116) 
1

>  <fr_furan>  (116) 
0

>  <fr_guanido>  (116) 
0

>  <fr_halogen>  (116) 
0

>  <fr_hdrzine>  (116) 
0

>  <fr_hdrzone>  (116) 
0

>  <fr_imidazole>  (116) 
1

>  <fr_imide>  (116) 
0

>  <fr_isocyan>  (116) 
0

>  <fr_isothiocyan>  (116) 
0

>  <fr_ketone>  (116) 
0

>  <fr_ketone_Topliss>  (116) 
0

>  <fr_lactam>  (116) 
0

>  <fr_lactone>  (116) 
0

>  <fr_methoxy>  (116) 
0

>  <fr_morpholine>  (116) 
0

>  <fr_nitrile>  (116) 
0

>  <fr_nitro>  (116) 
0

>  <fr_nitro_arom>  (116) 
0

>  <fr_nitro_arom_nonortho>  (116) 
0

>  <fr_nitroso>  (116) 
0

>  <fr_oxazole>  (116) 
0

>  <fr_oxime>  (116) 
0

>  <fr_para_hydroxylation>  (116) 
0

>  <fr_phenol>  (116) 
0

>  <fr_phenol_noOrthoHbond>  (116) 
0

>  <fr_phos_acid>  (116) 
1

>  <fr_phos_ester>  (116) 
1

>  <fr_piperdine>  (116) 
0

>  <fr_piperzine>  (116) 
0

>  <fr_priamide>  (116) 
0

>  <fr_prisulfonamd>  (116) 
0

>  <fr_pyridine>  (116) 
0

>  <fr_quatN>  (116) 
0

>  <fr_sulfide>  (116) 
0

>  <fr_sulfonamd>  (116) 
0

>  <fr_sulfone>  (116) 
0

>  <fr_term_acetylene>  (116) 
0

>  <fr_tetrazole>  (116) 
0

>  <fr_thiazole>  (116) 
0

>  <fr_thiocyan>  (116) 
0

>  <fr_thiophene>  (116) 
0

>  <fr_unbrch_alkane>  (116) 
0

>  <fr_urea>  (116) 
0

>  <NP-Likeness>  (116) 
0.781644

$$$$
ANP
     RDKit          3D

  0  0  0  0  0  0  0  0  0  0999 V3000
M  V30 BEGIN CTAB
M  V30 COUNTS 44 46 0 0 0
M  V30 BEGIN ATOM
M  V30 1 O 3.804972 0.256954 0.199957 0
M  V30 2 C 3.071562 -0.699356 0.920550 0 CFG=1
M  V30 3 C 2.793476 -0.034110 2.276014 0 CFG=1
M  V30 4 O 3.860673 0.729209 2.714109 0
M  V30 5 C 1.609080 0.829414 1.819143 0 CFG=2
M  V30 6 N 0.999910 1.511799 2.929364 0
M  V30 7 C 1.391537 1.566846 4.215518 0
M  V30 8 N 0.497200 2.328062 4.870940 0
M  V30 9 C -0.438095 2.741281 4.005576 0
M  V30 10 C -0.127687 2.225293 2.758228 0
M  V30 11 N -0.936299 2.512619 1.726839 0
M  V30 12 C -2.037811 3.277333 1.833979 0
M  V30 13 N -2.324767 3.770978 3.054492 0
M  V30 14 C -1.574365 3.538385 4.149548 0
M  V30 15 N -1.883559 4.063176 5.435864 0
M  V30 16 O 0.817449 -0.147290 1.265944 0
M  V30 17 C 1.662532 -0.768875 0.348130 0 CFG=2
M  V30 18 C 1.309787 -2.234938 0.170964 0
M  V30 19 O 0.019078 -2.406076 -0.286665 0
M  V30 20 P -0.346050 -4.056956 -0.475479 0 CFG=2 VAL=5
M  V30 21 O -1.830535 -4.254716 -0.233766 0
M  V30 22 O 0.494676 -4.914502 0.738920 0 CHG=-1 VAL=1
M  V30 23 O 0.115221 -4.633660 -1.996434 0
M  V30 24 P -1.264318 -4.755191 -2.995361 0 CFG=1 VAL=5
M  V30 25 O -1.667435 -6.203821 -3.149764 0
M  V30 26 O -2.565210 -3.932456 -2.258537 0 CHG=-1 VAL=1
M  V30 27 N -0.939646 -4.114999 -4.589935 0
M  V30 28 P -1.697966 -2.558248 -4.844712 0
M  V30 29 O -2.758341 -2.369451 -3.768950 0
M  V30 30 O -0.580966 -1.290427 -4.770205 0 CHG=-1 VAL=1
M  V30 31 O -2.485242 -2.506038 -6.334258 0 CHG=-1 VAL=1
M  V30 32 H 4.661309 -0.073356 -0.117656 0
M  V30 33 H 3.563103 -1.667569 1.007388 0
M  V30 34 H 2.460322 -0.797577 3.003953 0
M  V30 35 H 4.271901 0.218109 3.465092 0
M  V30 36 H 1.999913 1.478554 1.031413 0
M  V30 37 H 2.260112 1.076506 4.587367 0
M  V30 38 H -2.671125 3.489463 0.973906 0
M  V30 39 H -1.695810 4.896999 6.038486 0
M  V30 40 H -1.619631 4.947964 5.938005 0
M  V30 41 H 1.585363 -0.287887 -0.643267 0
M  V30 42 H 2.086832 -2.659649 -0.503986 0
M  V30 43 H 1.425899 -2.693440 1.183988 0
M  V30 44 H 0.080834 -4.069179 -4.817113 0
M  V30 END ATOM
M  V30 BEGIN BOND
M  V30 1 1 1 2
M  V30 2 1 2 3
M  V30 3 1 3 4
M  V30 4 1 3 5
M  V30 5 1 5 6
M  V30 6 1 6 7
M  V30 7 2 7 8
M  V30 8 1 8 9
M  V30 9 2 9 10
M  V30 10 1 10 11
M  V30 11 2 11 12
M  V30 12 1 12 13
M  V30 13 2 13 14
M  V30 14 1 14 15
M  V30 15 1 5 16
M  V30 16 1 16 17
M  V30 17 1 17 18
M  V30 18 1 18 19
M  V30 19 1 19 20
M  V30 20 2 20 21
M  V30 21 1 20 22 CFG=1
M  V30 22 1 20 23
M  V30 23 1 23 24
M  V30 24 2 24 25
M  V30 25 1 24 26 CFG=1
M  V30 26 1 24 27
M  V30 27 1 27 28
M  V30 28 2 28 29
M  V30 29 1 28 30
M  V30 30 1 28 31
M  V30 31 1 17 2
M  V30 32 1 10 6
M  V30 33 1 14 9
M  V30 34 1 1 32
M  V30 35 1 2 33 CFG=1
M  V30 36 1 3 34 CFG=1
M  V30 37 1 4 35
M  V30 38 1 5 36 CFG=3
M  V30 39 1 7 37
M  V30 40 1 12 38
M  V30 41 1 15 39
M  V30 42 1 15 40
M  V30 43 1 17 41 CFG=3
M  V30 44 1 18 42
M  V30 45 1 18 43
M  V30 46 1 27 44
M  V30 END BOND
M  V30 END CTAB
M  END
>  <Dataset>  (117) 
PDB

>  <Ligand_Instance>  (117) 
7E12_ANP_A_401

>  <PDB_ID>  (117) 
7000000000000.0

>  <Standardized_SMILES>  (117) 
[H]O[C@@]1([H])[C@@]([H])(O[H])[C@]([H])(N2C([H])=NC3=C2N=C([H])N=C3N([H])[H])O[C@]1([H])C([H])([H])O[P@](=O)([O-])O[P@@](=O)([O-])N([H])P(=O)([O-])[O-]

>  <Name>  (117) 
PHOSPHOAMINOPHOSPHONIC ACID-ADENYLATE ESTER

>  <Pocket>  (117) 
A

>  <ATP_Site>  (117) 
1.0

>  <Peripheral>  (117) 
0.0

>  <Num_H_Atoms_ProtBoundConf>  (117) 
13.0

>  <Num_Resolved_Atoms>  (117) 
31.0

>  <Num_Not_Resolved_Atoms>  (117) 
0.0

>  <2D_Mol_H>  (117) 
<rdkit.Chem.rdchem.Mol object at 0x72a238da4e40>

>  <MW>  (117) 
502.166

>  <HBA>  (117) 
17

>  <HBD>  (117) 
4

>  <LogP>  (117) 
-4.584

>  <NRB>  (117) 
11

>  <TPSA>  (117) 
293.25

>  <Num_Heavy_Atoms>  (117) 
31

>  <Ro5>  (117) 
[False, False, True, True, False, False]

>  <Ro5_Fulfilled>  (117) 
False

>  <Ro3>  (117) 
[False, False, False, True]

>  <Ro3_Fulfilled>  (117) 
False

>  <Fsp3>  (117) 
0.5

>  <Fsp3_0.42>  (117) 
True

>  <Fsp3_0.45>  (117) 
True

>  <Stereogenic_Carbons>  (117) 
4

>  <C_Atoms>  (117) 
10

>  <FCStereo>  (117) 
0.4

>  <SPS>  (117) 
882

>  <nSPS>  (117) 
28.451613

>  <PBF>  (117) 
1.009701

>  <PBF_0.6>  (117) 
True

>  <nPBF>  (117) 
0.032571

>  <nPBF_0.016>  (117) 
True

>  <PMI1>  (117) 
2650.741576

>  <PMI2>  (117) 
9393.551801

>  <PMI3>  (117) 
10259.69058

>  <NPR1>  (117) 
0.258365

>  <NPR2>  (117) 
0.915578

>  <Sum_NPR>  (117) 
1.173943

>  <Sum_NPR_1.07>  (117) 
True

>  <Sum_NPR_1.2>  (117) 
False

>  <MaxAbsEStateIndex>  (117) 
11.631022

>  <MaxEStateIndex>  (117) 
11.631022

>  <MinAbsEStateIndex>  (117) 
0.025434

>  <MinEStateIndex>  (117) 
-5.88789

>  <qed>  (117) 
0.246841

>  <MolWt>  (117) 
502.166

>  <HeavyAtomMolWt>  (117) 
489.062

>  <ExactMolWt>  (117) 
501.982624

>  <NumValenceElectrons>  (117) 
174

>  <NumRadicalElectrons>  (117) 
0

>  <MaxPartialCharge>  (117) 
0.273292

>  <MinPartialCharge>  (117) 
-0.799075

>  <MaxAbsPartialCharge>  (117) 
0.799075

>  <MinAbsPartialCharge>  (117) 
0.273292

>  <FpDensityMorgan1>  (117) 
1.16129

>  <FpDensityMorgan2>  (117) 
1.83871

>  <FpDensityMorgan3>  (117) 
2.483871

>  <BCUT2D_MWHI>  (117) 
31.287813

>  <BCUT2D_MWLOW>  (117) 
10.128388

>  <BCUT2D_CHGHI>  (117) 
2.44611

>  <BCUT2D_CHGLO>  (117) 
-2.388133

>  <BCUT2D_LOGPHI>  (117) 
2.552246

>  <BCUT2D_LOGPLOW>  (117) 
-2.341071

>  <BCUT2D_MRHI>  (117) 
7.684213

>  <BCUT2D_MRLOW>  (117) 
-0.316952

>  <AvgIpc>  (117) 
3.133568

>  <BalabanJ>  (117) 
1.689409

>  <BertzCT>  (117) 
1105.970439

>  <Chi0>  (117) 
23.18987

>  <Chi0n>  (117) 
14.855964

>  <Chi0v>  (117) 
17.539246

>  <Chi1>  (117) 
14.190889

>  <Chi1n>  (117) 
7.931778

>  <Chi1v>  (117) 
12.477689

>  <Chi2n>  (117) 
6.048811

>  <Chi2v>  (117) 
10.644506

>  <Chi3n>  (117) 
3.847795

>  <Chi3v>  (117) 
7.932617

>  <Chi4n>  (117) 
2.641158

>  <Chi4v>  (117) 
5.887109

>  <HallKierAlpha>  (117) 
-1.36

>  <Ipc>  (117) 
3947352.346056

>  <Kappa1>  (117) 
24.285736

>  <Kappa2>  (117) 
8.532213

>  <Kappa3>  (117) 
5.714341

>  <LabuteASA>  (117) 
171.593724

>  <PEOE_VSA1>  (117) 
49.346027

>  <PEOE_VSA10>  (117) 
30.15592

>  <PEOE_VSA11>  (117) 
17.692941

>  <PEOE_VSA12>  (117) 
7.746488

>  <PEOE_VSA13>  (117) 
7.822697

>  <PEOE_VSA14>  (117) 
0.0

>  <PEOE_VSA2>  (117) 
18.007828

>  <PEOE_VSA3>  (117) 
19.809737

>  <PEOE_VSA4>  (117) 
0.0

>  <PEOE_VSA5>  (117) 
0.0

>  <PEOE_VSA6>  (117) 
0.0

>  <PEOE_VSA7>  (117) 
0.0

>  <PEOE_VSA8>  (117) 
7.746488

>  <PEOE_VSA9>  (117) 
12.934202

>  <SMR_VSA1>  (117) 
57.053088

>  <SMR_VSA10>  (117) 
40.297415

>  <SMR_VSA2>  (117) 
0.0

>  <SMR_VSA3>  (117) 
24.376837

>  <SMR_VSA4>  (117) 
0.0

>  <SMR_VSA5>  (117) 
24.5398

>  <SMR_VSA6>  (117) 
12.340549

>  <SMR_VSA7>  (117) 
12.65464

>  <SMR_VSA8>  (117) 
0.0

>  <SMR_VSA9>  (117) 
0.0

>  <SlogP_VSA1>  (117) 
30.165115

>  <SlogP_VSA10>  (117) 
5.817863

>  <SlogP_VSA11>  (117) 
0.0

>  <SlogP_VSA12>  (117) 
23.315674

>  <SlogP_VSA2>  (117) 
54.650871

>  <SlogP_VSA3>  (117) 
27.266386

>  <SlogP_VSA4>  (117) 
0.0

>  <SlogP_VSA5>  (117) 
6.227901

>  <SlogP_VSA6>  (117) 
12.65464

>  <SlogP_VSA7>  (117) 
0.0

>  <SlogP_VSA8>  (117) 
11.163878

>  <SlogP_VSA9>  (117) 
0.0

>  <EState_VSA1>  (117) 
54.462356

>  <EState_VSA10>  (117) 
43.481846

>  <EState_VSA11>  (117) 
0.0

>  <EState_VSA2>  (117) 
16.981741

>  <EState_VSA3>  (117) 
4.857802

>  <EState_VSA4>  (117) 
6.32732

>  <EState_VSA5>  (117) 
10.89442

>  <EState_VSA6>  (117) 
0.0

>  <EState_VSA7>  (117) 
0.0

>  <EState_VSA8>  (117) 
23.786314

>  <EState_VSA9>  (117) 
10.47053

>  <VSA_EState1>  (117) 
47.639432

>  <VSA_EState10>  (117) 
0.0

>  <VSA_EState2>  (117) 
55.77868

>  <VSA_EState3>  (117) 
20.343175

>  <VSA_EState4>  (117) 
5.942789

>  <VSA_EState5>  (117) 
0.025434

>  <VSA_EState6>  (117) 
0.0

>  <VSA_EState7>  (117) 
-3.918472

>  <VSA_EState8>  (117) 
-1.049933

>  <VSA_EState9>  (117) 
-17.511105

>  <FractionCSP3>  (117) 
0.5

>  <HeavyAtomCount>  (117) 
31

>  <NHOHCount>  (117) 
5

>  <NOCount>  (117) 
18

>  <NumAliphaticCarbocycles>  (117) 
0

>  <NumAliphaticHeterocycles>  (117) 
1

>  <NumAliphaticRings>  (117) 
1

>  <NumAromaticCarbocycles>  (117) 
0

>  <NumAromaticHeterocycles>  (117) 
2

>  <NAR>  (117) 
2

>  <NumHAcceptors>  (117) 
17

>  <NumHDonors>  (117) 
4

>  <NumHeteroatoms>  (117) 
21

>  <NumRotatableBonds>  (117) 
8

>  <NumSaturatedCarbocycles>  (117) 
0

>  <NumSaturatedHeterocycles>  (117) 
1

>  <NumSaturatedRings>  (117) 
1

>  <RingCount>  (117) 
3

>  <MolLogP>  (117) 
-4.584

>  <MolMR>  (117) 
88.6512

>  <fr_Al_COO>  (117) 
0

>  <fr_Al_OH>  (117) 
2

>  <fr_Al_OH_noTert>  (117) 
2

>  <fr_ArN>  (117) 
1

>  <fr_Ar_COO>  (117) 
0

>  <fr_Ar_N>  (117) 
4

>  <fr_Ar_NH>  (117) 
0

>  <fr_Ar_OH>  (117) 
0

>  <fr_COO>  (117) 
0

>  <fr_COO2>  (117) 
0

>  <fr_C_O>  (117) 
0

>  <fr_C_O_noCOO>  (117) 
0

>  <fr_C_S>  (117) 
0

>  <fr_HOCCN>  (117) 
0

>  <fr_Imine>  (117) 
0

>  <fr_NH0>  (117) 
4

>  <fr_NH1>  (117) 
1

>  <fr_NH2>  (117) 
1

>  <fr_N_O>  (117) 
0

>  <fr_Ndealkylation1>  (117) 
0

>  <fr_Ndealkylation2>  (117) 
0

>  <fr_Nhpyrrole>  (117) 
0

>  <fr_SH>  (117) 
0

>  <fr_aldehyde>  (117) 
0

>  <fr_alkyl_carbamate>  (117) 
0

>  <fr_alkyl_halide>  (117) 
0

>  <fr_allylic_oxid>  (117) 
0

>  <fr_amide>  (117) 
0

>  <fr_amidine>  (117) 
0

>  <fr_aniline>  (117) 
1

>  <fr_aryl_methyl>  (117) 
0

>  <fr_azide>  (117) 
0

>  <fr_azo>  (117) 
0

>  <fr_barbitur>  (117) 
0

>  <fr_benzene>  (117) 
0

>  <fr_benzodiazepine>  (117) 
0

>  <fr_bicyclic>  (117) 
1

>  <fr_diazo>  (117) 
0

>  <fr_dihydropyridine>  (117) 
0

>  <fr_epoxide>  (117) 
0

>  <fr_ester>  (117) 
0

>  <fr_ether>  (117) 
1

>  <fr_furan>  (117) 
0

>  <fr_guanido>  (117) 
0

>  <fr_halogen>  (117) 
0

>  <fr_hdrzine>  (117) 
0

>  <fr_hdrzone>  (117) 
0

>  <fr_imidazole>  (117) 
1

>  <fr_imide>  (117) 
0

>  <fr_isocyan>  (117) 
0

>  <fr_isothiocyan>  (117) 
0

>  <fr_ketone>  (117) 
0

>  <fr_ketone_Topliss>  (117) 
0

>  <fr_lactam>  (117) 
0

>  <fr_lactone>  (117) 
0

>  <fr_methoxy>  (117) 
0

>  <fr_morpholine>  (117) 
0

>  <fr_nitrile>  (117) 
0

>  <fr_nitro>  (117) 
0

>  <fr_nitro_arom>  (117) 
0

>  <fr_nitro_arom_nonortho>  (117) 
0

>  <fr_nitroso>  (117) 
0

>  <fr_oxazole>  (117) 
0

>  <fr_oxime>  (117) 
0

>  <fr_para_hydroxylation>  (117) 
0

>  <fr_phenol>  (117) 
0

>  <fr_phenol_noOrthoHbond>  (117) 
0

>  <fr_phos_acid>  (117) 
1

>  <fr_phos_ester>  (117) 
1

>  <fr_piperdine>  (117) 
0

>  <fr_piperzine>  (117) 
0

>  <fr_priamide>  (117) 
0

>  <fr_prisulfonamd>  (117) 
0

>  <fr_pyridine>  (117) 
0

>  <fr_quatN>  (117) 
0

>  <fr_sulfide>  (117) 
0

>  <fr_sulfonamd>  (117) 
0

>  <fr_sulfone>  (117) 
0

>  <fr_term_acetylene>  (117) 
0

>  <fr_tetrazole>  (117) 
0

>  <fr_thiazole>  (117) 
0

>  <fr_thiocyan>  (117) 
0

>  <fr_thiophene>  (117) 
0

>  <fr_unbrch_alkane>  (117) 
0

>  <fr_urea>  (117) 
0

>  <NP-Likeness>  (117) 
0.781644

$$$$
AO8
     RDKit          3D

  0  0  0  0  0  0  0  0  0  0999 V3000
M  V30 BEGIN CTAB
M  V30 COUNTS 44 46 0 0 0
M  V30 BEGIN ATOM
M  V30 1 C 0.564975 -3.347619 1.207531 0
M  V30 2 N 1.594141 -4.200335 1.402825 0
M  V30 3 C 2.658572 -4.151168 0.566725 0
M  V30 4 C 2.678678 -3.236701 -0.467550 0
M  V30 5 C 3.748732 -3.152994 -1.346300 0
M  V30 6 C 3.803027 -2.251827 -2.390868 0
M  V30 7 C 2.746816 -1.389333 -2.577200 0
M  V30 8 C 1.643498 -1.421541 -1.731455 0
M  V30 9 S 0.243136 -0.381684 -1.862996 0
M  V30 10 O -0.995251 -1.090217 -2.252061 0
M  V30 11 O 0.547568 0.617762 -2.968067 0
M  V30 12 N 0.058384 0.544343 -0.422628 0
M  V30 13 C 1.172198 1.404126 -0.168863 0
M  V30 14 C 1.048333 2.234598 1.087551 0
M  V30 15 N 0.916551 1.439953 2.291381 0 CHG=1 VAL=4
M  V30 16 C -0.156868 1.878619 3.141922 0
M  V30 17 C -1.435186 1.152516 2.907733 0
M  V30 18 C -1.716789 -0.014957 3.625403 0
M  V30 19 C -2.854070 -0.785982 3.512630 0
M  V30 20 C -3.800717 -0.355757 2.600287 0
M  V30 21 C -3.572054 0.790478 1.866175 0
M  V30 22 C -2.419820 1.540599 2.004133 0
M  V30 23 C 1.639160 -2.341021 -0.703137 0
M  V30 24 C 0.574191 -2.425201 0.172384 0
M  V30 25 H -0.306021 -3.372667 1.874745 0
M  V30 26 H 3.503383 -4.830678 0.704230 0
M  V30 27 H 4.579754 -3.841420 -1.188751 0
M  V30 28 H 4.659409 -2.214932 -3.060634 0
M  V30 29 H 2.709786 -0.650184 -3.374091 0
M  V30 30 H -0.857868 0.995611 -0.377404 0
M  V30 31 H 2.119532 0.863384 -0.172560 0
M  V30 32 H 1.219083 2.133157 -1.005231 0
M  V30 33 H 1.952813 2.877256 1.119337 0
M  V30 34 H 0.184824 2.925513 1.035969 0
M  V30 35 H 1.807243 1.541537 2.825133 0
M  V30 36 H 0.807360 0.423118 2.094669 0
M  V30 37 H 0.124175 1.657217 4.190829 0
M  V30 38 H -0.356390 2.962438 3.053871 0
M  V30 39 H -0.943738 -0.325926 4.339626 0
M  V30 40 H -2.930804 -1.673991 4.143295 0
M  V30 41 H -4.699115 -0.956812 2.505121 0
M  V30 42 H -4.341540 1.090845 1.162209 0
M  V30 43 H -2.231078 2.441239 1.432918 0
M  V30 44 H -0.290131 -1.772182 0.078748 0
M  V30 END ATOM
M  V30 BEGIN BOND
M  V30 1 2 1 2
M  V30 2 1 2 3
M  V30 3 2 3 4
M  V30 4 1 4 5
M  V30 5 2 5 6
M  V30 6 1 6 7
M  V30 7 2 7 8
M  V30 8 1 8 9
M  V30 9 2 9 10
M  V30 10 2 9 11
M  V30 11 1 9 12
M  V30 12 1 12 13
M  V30 13 1 13 14
M  V30 14 1 14 15
M  V30 15 1 15 16
M  V30 16 1 16 17
M  V30 17 2 17 18
M  V30 18 1 18 19
M  V30 19 2 19 20
M  V30 20 1 20 21
M  V30 21 2 21 22
M  V30 22 1 8 23
M  V30 23 2 23 24
M  V30 24 1 24 1
M  V30 25 1 23 4
M  V30 26 1 22 17
M  V30 27 1 1 25
M  V30 28 1 3 26
M  V30 29 1 5 27
M  V30 30 1 6 28
M  V30 31 1 7 29
M  V30 32 1 12 30
M  V30 33 1 13 31
M  V30 34 1 13 32
M  V30 35 1 14 33
M  V30 36 1 14 34
M  V30 37 1 15 35
M  V30 38 1 15 36
M  V30 39 1 16 37
M  V30 40 1 16 38
M  V30 41 1 18 39
M  V30 42 1 19 40
M  V30 43 1 20 41
M  V30 44 1 21 42
M  V30 45 1 22 43
M  V30 46 1 24 44
M  V30 END BOND
M  V30 END CTAB
M  END
>  <Dataset>  (118) 
PDB

>  <Ligand_Instance>  (118) 
5OTG_AO8_A_401

>  <PDB_ID>  (118) 
5OTG

>  <Standardized_SMILES>  (118) 
[H]C1=NC([H])=C2C([H])=C([H])C([H])=C(S(=O)(=O)N([H])C([H])([H])C([H])([H])[N+]([H])([H])C([H])([H])C3=C([H])C([H])=C([H])C([H])=C3[H])C2=C1[H]

>  <Name>  (118) 
[2-[[2-(isoquinolin-5-ylsulfonylamino)ethylamino]methyl]phenyl]boronic acid

>  <Pocket>  (118) 
A

>  <ATP_Site>  (118) 
1.0

>  <Peripheral>  (118) 
0.0

>  <Num_H_Atoms_ProtBoundConf>  (118) 
20.0

>  <Num_Resolved_Atoms>  (118) 
24.0

>  <Num_Not_Resolved_Atoms>  (118) 
3.0

>  <2D_Mol_H>  (118) 
<rdkit.Chem.rdchem.Mol object at 0x72a238da4f20>

>  <MW>  (118) 
342.444

>  <HBA>  (118) 
3

>  <HBD>  (118) 
2

>  <LogP>  (118) 
1.2767

>  <NRB>  (118) 
7

>  <TPSA>  (118) 
75.67

>  <Num_Heavy_Atoms>  (118) 
24

>  <Ro5>  (118) 
[True, True, True, True, True, True]

>  <Ro5_Fulfilled>  (118) 
True

>  <Ro3>  (118) 
[False, True, True, True]

>  <Ro3_Fulfilled>  (118) 
True

>  <Fsp3>  (118) 
0.166667

>  <Fsp3_0.42>  (118) 
False

>  <Fsp3_0.45>  (118) 
False

>  <Stereogenic_Carbons>  (118) 
0

>  <C_Atoms>  (118) 
18

>  <FCStereo>  (118) 
0.0

>  <SPS>  (118) 
280

>  <nSPS>  (118) 
11.666667

>  <PBF>  (118) 
1.136659

>  <PBF_0.6>  (118) 
True

>  <nPBF>  (118) 
0.047361

>  <nPBF_0.016>  (118) 
True

>  <PMI1>  (118) 
1519.488463

>  <PMI2>  (118) 
3177.709389

>  <PMI3>  (118) 
3642.679927

>  <NPR1>  (118) 
0.417135

>  <NPR2>  (118) 
0.872355

>  <Sum_NPR>  (118) 
1.28949

>  <Sum_NPR_1.07>  (118) 
True

>  <Sum_NPR_1.2>  (118) 
True

>  <MaxAbsEStateIndex>  (118) 
12.533888

>  <MaxEStateIndex>  (118) 
12.533888

>  <MinAbsEStateIndex>  (118) 
0.296722

>  <MinEStateIndex>  (118) 
-3.529752

>  <qed>  (118) 
0.635191

>  <MolWt>  (118) 
342.444

>  <HeavyAtomMolWt>  (118) 
322.284

>  <ExactMolWt>  (118) 
342.127074

>  <NumValenceElectrons>  (118) 
124

>  <NumRadicalElectrons>  (118) 
0

>  <MaxPartialCharge>  (118) 
0.240888

>  <MinPartialCharge>  (118) 
-0.341417

>  <MaxAbsPartialCharge>  (118) 
0.341417

>  <MinAbsPartialCharge>  (118) 
0.240888

>  <FpDensityMorgan1>  (118) 
1.0

>  <FpDensityMorgan2>  (118) 
1.833333

>  <FpDensityMorgan3>  (118) 
2.666667

>  <BCUT2D_MWHI>  (118) 
32.233271

>  <BCUT2D_MWLOW>  (118) 
10.168343

>  <BCUT2D_CHGHI>  (118) 
2.162105

>  <BCUT2D_CHGLO>  (118) 
-2.087936

>  <BCUT2D_LOGPHI>  (118) 
2.209576

>  <BCUT2D_LOGPLOW>  (118) 
-2.836516

>  <BCUT2D_MRHI>  (118) 
7.893361

>  <BCUT2D_MRLOW>  (118) 
-0.66823

>  <AvgIpc>  (118) 
2.615265

>  <BalabanJ>  (118) 
1.596062

>  <BertzCT>  (118) 
906.459895

>  <Chi0>  (118) 
16.830216

>  <Chi0n>  (118) 
13.221482

>  <Chi0v>  (118) 
14.037979

>  <Chi1>  (118) 
11.666633

>  <Chi1n>  (118) 
7.846967

>  <Chi1v>  (118) 
9.33013

>  <Chi2n>  (118) 
5.517807

>  <Chi2v>  (118) 
7.253182

>  <Chi3n>  (118) 
3.793659

>  <Chi3v>  (118) 
5.312849

>  <Chi4n>  (118) 
2.58309

>  <Chi4v>  (118) 
3.858299

>  <HallKierAlpha>  (118) 
-2.28

>  <Ipc>  (118) 
361638.801905

>  <Kappa1>  (118) 
16.573337

>  <Kappa2>  (118) 
7.526221

>  <Kappa3>  (118) 
3.970361

>  <LabuteASA>  (118) 
141.345136

>  <PEOE_VSA1>  (118) 
5.316789

>  <PEOE_VSA10>  (118) 
6.544756

>  <PEOE_VSA11>  (118) 
0.0

>  <PEOE_VSA12>  (118) 
10.023291

>  <PEOE_VSA13>  (118) 
0.0

>  <PEOE_VSA14>  (118) 
0.0

>  <PEOE_VSA2>  (118) 
4.983979

>  <PEOE_VSA3>  (118) 
13.139892

>  <PEOE_VSA4>  (118) 
0.0

>  <PEOE_VSA5>  (118) 
0.0

>  <PEOE_VSA6>  (118) 
42.464569

>  <PEOE_VSA7>  (118) 
12.132734

>  <PEOE_VSA8>  (118) 
28.729587

>  <PEOE_VSA9>  (118) 
17.984996

>  <SMR_VSA1>  (118) 
13.734586

>  <SMR_VSA10>  (118) 
20.79574

>  <SMR_VSA2>  (118) 
0.0

>  <SMR_VSA3>  (118) 
9.706073

>  <SMR_VSA4>  (118) 
0.0

>  <SMR_VSA5>  (118) 
11.44024

>  <SMR_VSA6>  (118) 
13.089513

>  <SMR_VSA7>  (118) 
72.554442

>  <SMR_VSA8>  (118) 
0.0

>  <SMR_VSA9>  (118) 
0.0

>  <SlogP_VSA1>  (118) 
10.038883

>  <SlogP_VSA10>  (118) 
0.0

>  <SlogP_VSA11>  (118) 
0.0

>  <SlogP_VSA12>  (118) 
0.0

>  <SlogP_VSA2>  (118) 
26.491288

>  <SlogP_VSA3>  (118) 
16.568048

>  <SlogP_VSA4>  (118) 
0.0

>  <SlogP_VSA5>  (118) 
5.563451

>  <SlogP_VSA6>  (118) 
71.886474

>  <SlogP_VSA7>  (118) 
0.0

>  <SlogP_VSA8>  (118) 
10.772448

>  <SlogP_VSA9>  (118) 
0.0

>  <EState_VSA1>  (118) 
10.023291

>  <EState_VSA10>  (118) 
8.417797

>  <EState_VSA11>  (118) 
0.0

>  <EState_VSA2>  (118) 
0.0

>  <EState_VSA3>  (118) 
23.371221

>  <EState_VSA4>  (118) 
11.930981

>  <EState_VSA5>  (118) 
5.563451

>  <EState_VSA6>  (118) 
30.592788

>  <EState_VSA7>  (118) 
24.265468

>  <EState_VSA8>  (118) 
27.155596

>  <EState_VSA9>  (118) 
0.0

>  <VSA_EState1>  (118) 
27.742047

>  <VSA_EState10>  (118) 
0.0

>  <VSA_EState2>  (118) 
4.327829

>  <VSA_EState3>  (118) 
3.592132

>  <VSA_EState4>  (118) 
1.223991

>  <VSA_EState5>  (118) 
0.0

>  <VSA_EState6>  (118) 
17.049933

>  <VSA_EState7>  (118) 
3.274784

>  <VSA_EState8>  (118) 
1.90237

>  <VSA_EState9>  (118) 
-3.529752

>  <FractionCSP3>  (118) 
0.166667

>  <HeavyAtomCount>  (118) 
24

>  <NHOHCount>  (118) 
3

>  <NOCount>  (118) 
5

>  <NumAliphaticCarbocycles>  (118) 
0

>  <NumAliphaticHeterocycles>  (118) 
0

>  <NumAliphaticRings>  (118) 
0

>  <NumAromaticCarbocycles>  (118) 
2

>  <NumAromaticHeterocycles>  (118) 
1

>  <NAR>  (118) 
3

>  <NumHAcceptors>  (118) 
3

>  <NumHDonors>  (118) 
2

>  <NumHeteroatoms>  (118) 
6

>  <NumRotatableBonds>  (118) 
7

>  <NumSaturatedCarbocycles>  (118) 
0

>  <NumSaturatedHeterocycles>  (118) 
0

>  <NumSaturatedRings>  (118) 
0

>  <RingCount>  (118) 
3

>  <MolLogP>  (118) 
1.2767

>  <MolMR>  (118) 
93.8699

>  <fr_Al_COO>  (118) 
0

>  <fr_Al_OH>  (118) 
0

>  <fr_Al_OH_noTert>  (118) 
0

>  <fr_ArN>  (118) 
0

>  <fr_Ar_COO>  (118) 
0

>  <fr_Ar_N>  (118) 
1

>  <fr_Ar_NH>  (118) 
0

>  <fr_Ar_OH>  (118) 
0

>  <fr_COO>  (118) 
0

>  <fr_COO2>  (118) 
0

>  <fr_C_O>  (118) 
0

>  <fr_C_O_noCOO>  (118) 
0

>  <fr_C_S>  (118) 
0

>  <fr_HOCCN>  (118) 
0

>  <fr_Imine>  (118) 
0

>  <fr_NH0>  (118) 
1

>  <fr_NH1>  (118) 
1

>  <fr_NH2>  (118) 
1

>  <fr_N_O>  (118) 
0

>  <fr_Ndealkylation1>  (118) 
0

>  <fr_Ndealkylation2>  (118) 
0

>  <fr_Nhpyrrole>  (118) 
0

>  <fr_SH>  (118) 
0

>  <fr_aldehyde>  (118) 
0

>  <fr_alkyl_carbamate>  (118) 
0

>  <fr_alkyl_halide>  (118) 
0

>  <fr_allylic_oxid>  (118) 
0

>  <fr_amide>  (118) 
0

>  <fr_amidine>  (118) 
0

>  <fr_aniline>  (118) 
0

>  <fr_aryl_methyl>  (118) 
0

>  <fr_azide>  (118) 
0

>  <fr_azo>  (118) 
0

>  <fr_barbitur>  (118) 
0

>  <fr_benzene>  (118) 
2

>  <fr_benzodiazepine>  (118) 
0

>  <fr_bicyclic>  (118) 
1

>  <fr_diazo>  (118) 
0

>  <fr_dihydropyridine>  (118) 
0

>  <fr_epoxide>  (118) 
0

>  <fr_ester>  (118) 
0

>  <fr_ether>  (118) 
0

>  <fr_furan>  (118) 
0

>  <fr_guanido>  (118) 
0

>  <fr_halogen>  (118) 
0

>  <fr_hdrzine>  (118) 
0

>  <fr_hdrzone>  (118) 
0

>  <fr_imidazole>  (118) 
0

>  <fr_imide>  (118) 
0

>  <fr_isocyan>  (118) 
0

>  <fr_isothiocyan>  (118) 
0

>  <fr_ketone>  (118) 
0

>  <fr_ketone_Topliss>  (118) 
0

>  <fr_lactam>  (118) 
0

>  <fr_lactone>  (118) 
0

>  <fr_methoxy>  (118) 
0

>  <fr_morpholine>  (118) 
0

>  <fr_nitrile>  (118) 
0

>  <fr_nitro>  (118) 
0

>  <fr_nitro_arom>  (118) 
0

>  <fr_nitro_arom_nonortho>  (118) 
0

>  <fr_nitroso>  (118) 
0

>  <fr_oxazole>  (118) 
0

>  <fr_oxime>  (118) 
0

>  <fr_para_hydroxylation>  (118) 
0

>  <fr_phenol>  (118) 
0

>  <fr_phenol_noOrthoHbond>  (118) 
0

>  <fr_phos_acid>  (118) 
0

>  <fr_phos_ester>  (118) 
0

>  <fr_piperdine>  (118) 
0

>  <fr_piperzine>  (118) 
0

>  <fr_priamide>  (118) 
0

>  <fr_prisulfonamd>  (118) 
0

>  <fr_pyridine>  (118) 
1

>  <fr_quatN>  (118) 
1

>  <fr_sulfide>  (118) 
0

>  <fr_sulfonamd>  (118) 
1

>  <fr_sulfone>  (118) 
0

>  <fr_term_acetylene>  (118) 
0

>  <fr_tetrazole>  (118) 
0

>  <fr_thiazole>  (118) 
0

>  <fr_thiocyan>  (118) 
0

>  <fr_thiophene>  (118) 
0

>  <fr_unbrch_alkane>  (118) 
0

>  <fr_urea>  (118) 
0

>  <NP-Likeness>  (118) 
-1.113919

$$$$
AO8
     RDKit          3D

  0  0  0  0  0  0  0  0  0  0999 V3000
M  V30 BEGIN CTAB
M  V30 COUNTS 44 46 0 0 0
M  V30 BEGIN ATOM
M  V30 1 C 0.564975 -3.347619 1.207531 0
M  V30 2 N 1.594141 -4.200335 1.402825 0
M  V30 3 C 2.658572 -4.151168 0.566725 0
M  V30 4 C 2.678678 -3.236701 -0.467550 0
M  V30 5 C 3.748732 -3.152994 -1.346300 0
M  V30 6 C 3.803027 -2.251827 -2.390868 0
M  V30 7 C 2.746816 -1.389333 -2.577200 0
M  V30 8 C 1.643498 -1.421541 -1.731455 0
M  V30 9 S 0.243136 -0.381684 -1.862996 0
M  V30 10 O -0.995251 -1.090217 -2.252061 0
M  V30 11 O 0.547568 0.617762 -2.968067 0
M  V30 12 N 0.058384 0.544343 -0.422628 0
M  V30 13 C 1.172198 1.404126 -0.168863 0
M  V30 14 C 1.048333 2.234598 1.087551 0
M  V30 15 N 0.916551 1.439953 2.291381 0 CHG=1 VAL=4
M  V30 16 C -0.156868 1.878619 3.141922 0
M  V30 17 C -1.435186 1.152516 2.907733 0
M  V30 18 C -1.716789 -0.014957 3.625403 0
M  V30 19 C -2.854070 -0.785982 3.512630 0
M  V30 20 C -3.800717 -0.355757 2.600287 0
M  V30 21 C -3.572054 0.790478 1.866175 0
M  V30 22 C -2.419820 1.540599 2.004133 0
M  V30 23 C 1.639160 -2.341021 -0.703137 0
M  V30 24 C 0.574191 -2.425201 0.172384 0
M  V30 25 H -0.306021 -3.372667 1.874745 0
M  V30 26 H 3.503383 -4.830678 0.704230 0
M  V30 27 H 4.579754 -3.841420 -1.188751 0
M  V30 28 H 4.659409 -2.214932 -3.060634 0
M  V30 29 H 2.709786 -0.650184 -3.374091 0
M  V30 30 H -0.857868 0.995611 -0.377404 0
M  V30 31 H 2.119532 0.863384 -0.172560 0
M  V30 32 H 1.219083 2.133157 -1.005231 0
M  V30 33 H 1.952813 2.877256 1.119337 0
M  V30 34 H 0.184824 2.925513 1.035969 0
M  V30 35 H 1.807243 1.541537 2.825133 0
M  V30 36 H 0.807360 0.423118 2.094669 0
M  V30 37 H 0.124175 1.657217 4.190829 0
M  V30 38 H -0.356390 2.962438 3.053871 0
M  V30 39 H -0.943738 -0.325926 4.339626 0
M  V30 40 H -2.930804 -1.673991 4.143295 0
M  V30 41 H -4.699115 -0.956812 2.505121 0
M  V30 42 H -4.341540 1.090845 1.162209 0
M  V30 43 H -2.231078 2.441239 1.432918 0
M  V30 44 H -0.290131 -1.772182 0.078748 0
M  V30 END ATOM
M  V30 BEGIN BOND
M  V30 1 2 1 2
M  V30 2 1 2 3
M  V30 3 2 3 4
M  V30 4 1 4 5
M  V30 5 2 5 6
M  V30 6 1 6 7
M  V30 7 2 7 8
M  V30 8 1 8 9
M  V30 9 2 9 10
M  V30 10 2 9 11
M  V30 11 1 9 12
M  V30 12 1 12 13
M  V30 13 1 13 14
M  V30 14 1 14 15
M  V30 15 1 15 16
M  V30 16 1 16 17
M  V30 17 2 17 18
M  V30 18 1 18 19
M  V30 19 2 19 20
M  V30 20 1 20 21
M  V30 21 2 21 22
M  V30 22 1 8 23
M  V30 23 2 23 24
M  V30 24 1 24 1
M  V30 25 1 23 4
M  V30 26 1 22 17
M  V30 27 1 1 25
M  V30 28 1 3 26
M  V30 29 1 5 27
M  V30 30 1 6 28
M  V30 31 1 7 29
M  V30 32 1 12 30
M  V30 33 1 13 31
M  V30 34 1 13 32
M  V30 35 1 14 33
M  V30 36 1 14 34
M  V30 37 1 15 35
M  V30 38 1 15 36
M  V30 39 1 16 37
M  V30 40 1 16 38
M  V30 41 1 18 39
M  V30 42 1 19 40
M  V30 43 1 20 41
M  V30 44 1 21 42
M  V30 45 1 22 43
M  V30 46 1 24 44
M  V30 END BOND
M  V30 END CTAB
M  END
>  <Dataset>  (119) 
PDB

>  <Ligand_Instance>  (119) 
5OUC_AO8_A_401

>  <PDB_ID>  (119) 
5OUC

>  <Standardized_SMILES>  (119) 
[H]C1=NC([H])=C2C([H])=C([H])C([H])=C(S(=O)(=O)N([H])C([H])([H])C([H])([H])[N+]([H])([H])C([H])([H])C3=C([H])C([H])=C([H])C([H])=C3[H])C2=C1[H]

>  <Name>  (119) 
[2-[[2-(isoquinolin-5-ylsulfonylamino)ethylamino]methyl]phenyl]boronic acid

>  <Pocket>  (119) 
A

>  <ATP_Site>  (119) 
1.0

>  <Peripheral>  (119) 
0.0

>  <Num_H_Atoms_ProtBoundConf>  (119) 
20.0

>  <Num_Resolved_Atoms>  (119) 
24.0

>  <Num_Not_Resolved_Atoms>  (119) 
3.0

>  <2D_Mol_H>  (119) 
<rdkit.Chem.rdchem.Mol object at 0x72a238da5000>

>  <MW>  (119) 
342.444

>  <HBA>  (119) 
3

>  <HBD>  (119) 
2

>  <LogP>  (119) 
1.2767

>  <NRB>  (119) 
7

>  <TPSA>  (119) 
75.67

>  <Num_Heavy_Atoms>  (119) 
24

>  <Ro5>  (119) 
[True, True, True, True, True, True]

>  <Ro5_Fulfilled>  (119) 
True

>  <Ro3>  (119) 
[False, True, True, True]

>  <Ro3_Fulfilled>  (119) 
True

>  <Fsp3>  (119) 
0.166667

>  <Fsp3_0.42>  (119) 
False

>  <Fsp3_0.45>  (119) 
False

>  <Stereogenic_Carbons>  (119) 
0

>  <C_Atoms>  (119) 
18

>  <FCStereo>  (119) 
0.0

>  <SPS>  (119) 
280

>  <nSPS>  (119) 
11.666667

>  <PBF>  (119) 
1.136659

>  <PBF_0.6>  (119) 
True

>  <nPBF>  (119) 
0.047361

>  <nPBF_0.016>  (119) 
True

>  <PMI1>  (119) 
1519.488463

>  <PMI2>  (119) 
3177.709389

>  <PMI3>  (119) 
3642.679927

>  <NPR1>  (119) 
0.417135

>  <NPR2>  (119) 
0.872355

>  <Sum_NPR>  (119) 
1.28949

>  <Sum_NPR_1.07>  (119) 
True

>  <Sum_NPR_1.2>  (119) 
True

>  <MaxAbsEStateIndex>  (119) 
12.533888

>  <MaxEStateIndex>  (119) 
12.533888

>  <MinAbsEStateIndex>  (119) 
0.296722

>  <MinEStateIndex>  (119) 
-3.529752

>  <qed>  (119) 
0.635191

>  <MolWt>  (119) 
342.444

>  <HeavyAtomMolWt>  (119) 
322.284

>  <ExactMolWt>  (119) 
342.127074

>  <NumValenceElectrons>  (119) 
124

>  <NumRadicalElectrons>  (119) 
0

>  <MaxPartialCharge>  (119) 
0.240888

>  <MinPartialCharge>  (119) 
-0.341417

>  <MaxAbsPartialCharge>  (119) 
0.341417

>  <MinAbsPartialCharge>  (119) 
0.240888

>  <FpDensityMorgan1>  (119) 
1.0

>  <FpDensityMorgan2>  (119) 
1.833333

>  <FpDensityMorgan3>  (119) 
2.666667

>  <BCUT2D_MWHI>  (119) 
32.233271

>  <BCUT2D_MWLOW>  (119) 
10.168343

>  <BCUT2D_CHGHI>  (119) 
2.162105

>  <BCUT2D_CHGLO>  (119) 
-2.087936

>  <BCUT2D_LOGPHI>  (119) 
2.209576

>  <BCUT2D_LOGPLOW>  (119) 
-2.836516

>  <BCUT2D_MRHI>  (119) 
7.893361

>  <BCUT2D_MRLOW>  (119) 
-0.66823

>  <AvgIpc>  (119) 
2.615265

>  <BalabanJ>  (119) 
1.596062

>  <BertzCT>  (119) 
906.459895

>  <Chi0>  (119) 
16.830216

>  <Chi0n>  (119) 
13.221482

>  <Chi0v>  (119) 
14.037979

>  <Chi1>  (119) 
11.666633

>  <Chi1n>  (119) 
7.846967

>  <Chi1v>  (119) 
9.33013

>  <Chi2n>  (119) 
5.517807

>  <Chi2v>  (119) 
7.253182

>  <Chi3n>  (119) 
3.793659

>  <Chi3v>  (119) 
5.312849

>  <Chi4n>  (119) 
2.58309

>  <Chi4v>  (119) 
3.858299

>  <HallKierAlpha>  (119) 
-2.28

>  <Ipc>  (119) 
361638.801905

>  <Kappa1>  (119) 
16.573337

>  <Kappa2>  (119) 
7.526221

>  <Kappa3>  (119) 
3.970361

>  <LabuteASA>  (119) 
141.345136

>  <PEOE_VSA1>  (119) 
5.316789

>  <PEOE_VSA10>  (119) 
6.544756

>  <PEOE_VSA11>  (119) 
0.0

>  <PEOE_VSA12>  (119) 
10.023291

>  <PEOE_VSA13>  (119) 
0.0

>  <PEOE_VSA14>  (119) 
0.0

>  <PEOE_VSA2>  (119) 
4.983979

>  <PEOE_VSA3>  (119) 
13.139892

>  <PEOE_VSA4>  (119) 
0.0

>  <PEOE_VSA5>  (119) 
0.0

>  <PEOE_VSA6>  (119) 
42.464569

>  <PEOE_VSA7>  (119) 
12.132734

>  <PEOE_VSA8>  (119) 
28.729587

>  <PEOE_VSA9>  (119) 
17.984996

>  <SMR_VSA1>  (119) 
13.734586

>  <SMR_VSA10>  (119) 
20.79574

>  <SMR_VSA2>  (119) 
0.0

>  <SMR_VSA3>  (119) 
9.706073

>  <SMR_VSA4>  (119) 
0.0

>  <SMR_VSA5>  (119) 
11.44024

>  <SMR_VSA6>  (119) 
13.089513

>  <SMR_VSA7>  (119) 
72.554442

>  <SMR_VSA8>  (119) 
0.0

>  <SMR_VSA9>  (119) 
0.0

>  <SlogP_VSA1>  (119) 
10.038883

>  <SlogP_VSA10>  (119) 
0.0

>  <SlogP_VSA11>  (119) 
0.0

>  <SlogP_VSA12>  (119) 
0.0

>  <SlogP_VSA2>  (119) 
26.491288

>  <SlogP_VSA3>  (119) 
16.568048

>  <SlogP_VSA4>  (119) 
0.0

>  <SlogP_VSA5>  (119) 
5.563451

>  <SlogP_VSA6>  (119) 
71.886474

>  <SlogP_VSA7>  (119) 
0.0

>  <SlogP_VSA8>  (119) 
10.772448

>  <SlogP_VSA9>  (119) 
0.0

>  <EState_VSA1>  (119) 
10.023291

>  <EState_VSA10>  (119) 
8.417797

>  <EState_VSA11>  (119) 
0.0

>  <EState_VSA2>  (119) 
0.0

>  <EState_VSA3>  (119) 
23.371221

>  <EState_VSA4>  (119) 
11.930981

>  <EState_VSA5>  (119) 
5.563451

>  <EState_VSA6>  (119) 
30.592788

>  <EState_VSA7>  (119) 
24.265468

>  <EState_VSA8>  (119) 
27.155596

>  <EState_VSA9>  (119) 
0.0

>  <VSA_EState1>  (119) 
27.742047

>  <VSA_EState10>  (119) 
0.0

>  <VSA_EState2>  (119) 
4.327829

>  <VSA_EState3>  (119) 
3.592132

>  <VSA_EState4>  (119) 
1.223991

>  <VSA_EState5>  (119) 
0.0

>  <VSA_EState6>  (119) 
17.049933

>  <VSA_EState7>  (119) 
3.274784

>  <VSA_EState8>  (119) 
1.90237

>  <VSA_EState9>  (119) 
-3.529752

>  <FractionCSP3>  (119) 
0.166667

>  <HeavyAtomCount>  (119) 
24

>  <NHOHCount>  (119) 
3

>  <NOCount>  (119) 
5

>  <NumAliphaticCarbocycles>  (119) 
0

>  <NumAliphaticHeterocycles>  (119) 
0

>  <NumAliphaticRings>  (119) 
0

>  <NumAromaticCarbocycles>  (119) 
2

>  <NumAromaticHeterocycles>  (119) 
1

>  <NAR>  (119) 
3

>  <NumHAcceptors>  (119) 
3

>  <NumHDonors>  (119) 
2

>  <NumHeteroatoms>  (119) 
6

>  <NumRotatableBonds>  (119) 
7

>  <NumSaturatedCarbocycles>  (119) 
0

>  <NumSaturatedHeterocycles>  (119) 
0

>  <NumSaturatedRings>  (119) 
0

>  <RingCount>  (119) 
3

>  <MolLogP>  (119) 
1.2767

>  <MolMR>  (119) 
93.8699

>  <fr_Al_COO>  (119) 
0

>  <fr_Al_OH>  (119) 
0

>  <fr_Al_OH_noTert>  (119) 
0

>  <fr_ArN>  (119) 
0

>  <fr_Ar_COO>  (119) 
0

>  <fr_Ar_N>  (119) 
1

>  <fr_Ar_NH>  (119) 
0

>  <fr_Ar_OH>  (119) 
0

>  <fr_COO>  (119) 
0

>  <fr_COO2>  (119) 
0

>  <fr_C_O>  (119) 
0

>  <fr_C_O_noCOO>  (119) 
0

>  <fr_C_S>  (119) 
0

>  <fr_HOCCN>  (119) 
0

>  <fr_Imine>  (119) 
0

>  <fr_NH0>  (119) 
1

>  <fr_NH1>  (119) 
1

>  <fr_NH2>  (119) 
1

>  <fr_N_O>  (119) 
0

>  <fr_Ndealkylation1>  (119) 
0

>  <fr_Ndealkylation2>  (119) 
0

>  <fr_Nhpyrrole>  (119) 
0

>  <fr_SH>  (119) 
0

>  <fr_aldehyde>  (119) 
0

>  <fr_alkyl_carbamate>  (119) 
0

>  <fr_alkyl_halide>  (119) 
0

>  <fr_allylic_oxid>  (119) 
0

>  <fr_amide>  (119) 
0

>  <fr_amidine>  (119) 
0

>  <fr_aniline>  (119) 
0

>  <fr_aryl_methyl>  (119) 
0

>  <fr_azide>  (119) 
0

>  <fr_azo>  (119) 
0

>  <fr_barbitur>  (119) 
0

>  <fr_benzene>  (119) 
2

>  <fr_benzodiazepine>  (119) 
0

>  <fr_bicyclic>  (119) 
1

>  <fr_diazo>  (119) 
0

>  <fr_dihydropyridine>  (119) 
0

>  <fr_epoxide>  (119) 
0

>  <fr_ester>  (119) 
0

>  <fr_ether>  (119) 
0

>  <fr_furan>  (119) 
0

>  <fr_guanido>  (119) 
0

>  <fr_halogen>  (119) 
0

>  <fr_hdrzine>  (119) 
0

>  <fr_hdrzone>  (119) 
0

>  <fr_imidazole>  (119) 
0

>  <fr_imide>  (119) 
0

>  <fr_isocyan>  (119) 
0

>  <fr_isothiocyan>  (119) 
0

>  <fr_ketone>  (119) 
0

>  <fr_ketone_Topliss>  (119) 
0

>  <fr_lactam>  (119) 
0

>  <fr_lactone>  (119) 
0

>  <fr_methoxy>  (119) 
0

>  <fr_morpholine>  (119) 
0

>  <fr_nitrile>  (119) 
0

>  <fr_nitro>  (119) 
0

>  <fr_nitro_arom>  (119) 
0

>  <fr_nitro_arom_nonortho>  (119) 
0

>  <fr_nitroso>  (119) 
0

>  <fr_oxazole>  (119) 
0

>  <fr_oxime>  (119) 
0

>  <fr_para_hydroxylation>  (119) 
0

>  <fr_phenol>  (119) 
0

>  <fr_phenol_noOrthoHbond>  (119) 
0

>  <fr_phos_acid>  (119) 
0

>  <fr_phos_ester>  (119) 
0

>  <fr_piperdine>  (119) 
0

>  <fr_piperzine>  (119) 
0

>  <fr_priamide>  (119) 
0

>  <fr_prisulfonamd>  (119) 
0

>  <fr_pyridine>  (119) 
1

>  <fr_quatN>  (119) 
1

>  <fr_sulfide>  (119) 
0

>  <fr_sulfonamd>  (119) 
1

>  <fr_sulfone>  (119) 
0

>  <fr_term_acetylene>  (119) 
0

>  <fr_tetrazole>  (119) 
0

>  <fr_thiazole>  (119) 
0

>  <fr_thiocyan>  (119) 
0

>  <fr_thiophene>  (119) 
0

>  <fr_unbrch_alkane>  (119) 
0

>  <fr_urea>  (119) 
0

>  <NP-Likeness>  (119) 
-1.113919

$$$$
AO8
     RDKit          3D

  0  0  0  0  0  0  0  0  0  0999 V3000
M  V30 BEGIN CTAB
M  V30 COUNTS 44 46 0 0 0
M  V30 BEGIN ATOM
M  V30 1 C 0.564975 -3.347619 1.207531 0
M  V30 2 N 1.594141 -4.200335 1.402825 0
M  V30 3 C 2.658572 -4.151168 0.566725 0
M  V30 4 C 2.678678 -3.236701 -0.467550 0
M  V30 5 C 3.748732 -3.152994 -1.346300 0
M  V30 6 C 3.803027 -2.251827 -2.390868 0
M  V30 7 C 2.746816 -1.389333 -2.577200 0
M  V30 8 C 1.643498 -1.421541 -1.731455 0
M  V30 9 S 0.243136 -0.381684 -1.862996 0
M  V30 10 O -0.995251 -1.090217 -2.252061 0
M  V30 11 O 0.547568 0.617762 -2.968067 0
M  V30 12 N 0.058384 0.544343 -0.422628 0
M  V30 13 C 1.172198 1.404126 -0.168863 0
M  V30 14 C 1.048333 2.234598 1.087551 0
M  V30 15 N 0.916551 1.439953 2.291381 0 CHG=1 VAL=4
M  V30 16 C -0.156868 1.878619 3.141922 0
M  V30 17 C -1.435186 1.152516 2.907733 0
M  V30 18 C -1.716789 -0.014957 3.625403 0
M  V30 19 C -2.854070 -0.785982 3.512630 0
M  V30 20 C -3.800717 -0.355757 2.600287 0
M  V30 21 C -3.572054 0.790478 1.866175 0
M  V30 22 C -2.419820 1.540599 2.004133 0
M  V30 23 C 1.639160 -2.341021 -0.703137 0
M  V30 24 C 0.574191 -2.425201 0.172384 0
M  V30 25 H -0.306021 -3.372667 1.874745 0
M  V30 26 H 3.503383 -4.830678 0.704230 0
M  V30 27 H 4.579754 -3.841420 -1.188751 0
M  V30 28 H 4.659409 -2.214932 -3.060634 0
M  V30 29 H 2.709786 -0.650184 -3.374091 0
M  V30 30 H -0.857868 0.995611 -0.377404 0
M  V30 31 H 2.119532 0.863384 -0.172560 0
M  V30 32 H 1.219083 2.133157 -1.005231 0
M  V30 33 H 1.952813 2.877256 1.119337 0
M  V30 34 H 0.184824 2.925513 1.035969 0
M  V30 35 H 1.807243 1.541537 2.825133 0
M  V30 36 H 0.807360 0.423118 2.094669 0
M  V30 37 H 0.124175 1.657217 4.190829 0
M  V30 38 H -0.356390 2.962438 3.053871 0
M  V30 39 H -0.943738 -0.325926 4.339626 0
M  V30 40 H -2.930804 -1.673991 4.143295 0
M  V30 41 H -4.699115 -0.956812 2.505121 0
M  V30 42 H -4.341540 1.090845 1.162209 0
M  V30 43 H -2.231078 2.441239 1.432918 0
M  V30 44 H -0.290131 -1.772182 0.078748 0
M  V30 END ATOM
M  V30 BEGIN BOND
M  V30 1 2 1 2
M  V30 2 1 2 3
M  V30 3 2 3 4
M  V30 4 1 4 5
M  V30 5 2 5 6
M  V30 6 1 6 7
M  V30 7 2 7 8
M  V30 8 1 8 9
M  V30 9 2 9 10
M  V30 10 2 9 11
M  V30 11 1 9 12
M  V30 12 1 12 13
M  V30 13 1 13 14
M  V30 14 1 14 15
M  V30 15 1 15 16
M  V30 16 1 16 17
M  V30 17 2 17 18
M  V30 18 1 18 19
M  V30 19 2 19 20
M  V30 20 1 20 21
M  V30 21 2 21 22
M  V30 22 1 8 23
M  V30 23 2 23 24
M  V30 24 1 24 1
M  V30 25 1 23 4
M  V30 26 1 22 17
M  V30 27 1 1 25
M  V30 28 1 3 26
M  V30 29 1 5 27
M  V30 30 1 6 28
M  V30 31 1 7 29
M  V30 32 1 12 30
M  V30 33 1 13 31
M  V30 34 1 13 32
M  V30 35 1 14 33
M  V30 36 1 14 34
M  V30 37 1 15 35
M  V30 38 1 15 36
M  V30 39 1 16 37
M  V30 40 1 16 38
M  V30 41 1 18 39
M  V30 42 1 19 40
M  V30 43 1 20 41
M  V30 44 1 21 42
M  V30 45 1 22 43
M  V30 46 1 24 44
M  V30 END BOND
M  V30 END CTAB
M  END
>  <Dataset>  (120) 
PDB

>  <Ligand_Instance>  (120) 
6I2H_AO8_A_401

>  <PDB_ID>  (120) 
6I2H

>  <Standardized_SMILES>  (120) 
[H]C1=NC([H])=C2C([H])=C([H])C([H])=C(S(=O)(=O)N([H])C([H])([H])C([H])([H])[N+]([H])([H])C([H])([H])C3=C([H])C([H])=C([H])C([H])=C3[H])C2=C1[H]

>  <Name>  (120) 
[2-[[2-(isoquinolin-5-ylsulfonylamino)ethylamino]methyl]phenyl]boronic acid

>  <Pocket>  (120) 
A

>  <ATP_Site>  (120) 
1.0

>  <Peripheral>  (120) 
0.0

>  <Num_H_Atoms_ProtBoundConf>  (120) 
20.0

>  <Num_Resolved_Atoms>  (120) 
24.0

>  <Num_Not_Resolved_Atoms>  (120) 
3.0

>  <2D_Mol_H>  (120) 
<rdkit.Chem.rdchem.Mol object at 0x72a238da50e0>

>  <MW>  (120) 
342.444

>  <HBA>  (120) 
3

>  <HBD>  (120) 
2

>  <LogP>  (120) 
1.2767

>  <NRB>  (120) 
7

>  <TPSA>  (120) 
75.67

>  <Num_Heavy_Atoms>  (120) 
24

>  <Ro5>  (120) 
[True, True, True, True, True, True]

>  <Ro5_Fulfilled>  (120) 
True

>  <Ro3>  (120) 
[False, True, True, True]

>  <Ro3_Fulfilled>  (120) 
True

>  <Fsp3>  (120) 
0.166667

>  <Fsp3_0.42>  (120) 
False

>  <Fsp3_0.45>  (120) 
False

>  <Stereogenic_Carbons>  (120) 
0

>  <C_Atoms>  (120) 
18

>  <FCStereo>  (120) 
0.0

>  <SPS>  (120) 
280

>  <nSPS>  (120) 
11.666667

>  <PBF>  (120) 
1.136659

>  <PBF_0.6>  (120) 
True

>  <nPBF>  (120) 
0.047361

>  <nPBF_0.016>  (120) 
True

>  <PMI1>  (120) 
1519.488463

>  <PMI2>  (120) 
3177.709389

>  <PMI3>  (120) 
3642.679927

>  <NPR1>  (120) 
0.417135

>  <NPR2>  (120) 
0.872355

>  <Sum_NPR>  (120) 
1.28949

>  <Sum_NPR_1.07>  (120) 
True

>  <Sum_NPR_1.2>  (120) 
True

>  <MaxAbsEStateIndex>  (120) 
12.533888

>  <MaxEStateIndex>  (120) 
12.533888

>  <MinAbsEStateIndex>  (120) 
0.296722

>  <MinEStateIndex>  (120) 
-3.529752

>  <qed>  (120) 
0.635191

>  <MolWt>  (120) 
342.444

>  <HeavyAtomMolWt>  (120) 
322.284

>  <ExactMolWt>  (120) 
342.127074

>  <NumValenceElectrons>  (120) 
124

>  <NumRadicalElectrons>  (120) 
0

>  <MaxPartialCharge>  (120) 
0.240888

>  <MinPartialCharge>  (120) 
-0.341417

>  <MaxAbsPartialCharge>  (120) 
0.341417

>  <MinAbsPartialCharge>  (120) 
0.240888

>  <FpDensityMorgan1>  (120) 
1.0

>  <FpDensityMorgan2>  (120) 
1.833333

>  <FpDensityMorgan3>  (120) 
2.666667

>  <BCUT2D_MWHI>  (120) 
32.233271

>  <BCUT2D_MWLOW>  (120) 
10.168343

>  <BCUT2D_CHGHI>  (120) 
2.162105

>  <BCUT2D_CHGLO>  (120) 
-2.087936

>  <BCUT2D_LOGPHI>  (120) 
2.209576

>  <BCUT2D_LOGPLOW>  (120) 
-2.836516

>  <BCUT2D_MRHI>  (120) 
7.893361

>  <BCUT2D_MRLOW>  (120) 
-0.66823

>  <AvgIpc>  (120) 
2.615265

>  <BalabanJ>  (120) 
1.596062

>  <BertzCT>  (120) 
906.459895

>  <Chi0>  (120) 
16.830216

>  <Chi0n>  (120) 
13.221482

>  <Chi0v>  (120) 
14.037979

>  <Chi1>  (120) 
11.666633

>  <Chi1n>  (120) 
7.846967

>  <Chi1v>  (120) 
9.33013

>  <Chi2n>  (120) 
5.517807

>  <Chi2v>  (120) 
7.253182

>  <Chi3n>  (120) 
3.793659

>  <Chi3v>  (120) 
5.312849

>  <Chi4n>  (120) 
2.58309

>  <Chi4v>  (120) 
3.858299

>  <HallKierAlpha>  (120) 
-2.28

>  <Ipc>  (120) 
361638.801905

>  <Kappa1>  (120) 
16.573337

>  <Kappa2>  (120) 
7.526221

>  <Kappa3>  (120) 
3.970361

>  <LabuteASA>  (120) 
141.345136

>  <PEOE_VSA1>  (120) 
5.316789

>  <PEOE_VSA10>  (120) 
6.544756

>  <PEOE_VSA11>  (120) 
0.0

>  <PEOE_VSA12>  (120) 
10.023291

>  <PEOE_VSA13>  (120) 
0.0

>  <PEOE_VSA14>  (120) 
0.0

>  <PEOE_VSA2>  (120) 
4.983979

>  <PEOE_VSA3>  (120) 
13.139892

>  <PEOE_VSA4>  (120) 
0.0

>  <PEOE_VSA5>  (120) 
0.0

>  <PEOE_VSA6>  (120) 
42.464569

>  <PEOE_VSA7>  (120) 
12.132734

>  <PEOE_VSA8>  (120) 
28.729587

>  <PEOE_VSA9>  (120) 
17.984996

>  <SMR_VSA1>  (120) 
13.734586

>  <SMR_VSA10>  (120) 
20.79574

>  <SMR_VSA2>  (120) 
0.0

>  <SMR_VSA3>  (120) 
9.706073

>  <SMR_VSA4>  (120) 
0.0

>  <SMR_VSA5>  (120) 
11.44024

>  <SMR_VSA6>  (120) 
13.089513

>  <SMR_VSA7>  (120) 
72.554442

>  <SMR_VSA8>  (120) 
0.0

>  <SMR_VSA9>  (120) 
0.0

>  <SlogP_VSA1>  (120) 
10.038883

>  <SlogP_VSA10>  (120) 
0.0

>  <SlogP_VSA11>  (120) 
0.0

>  <SlogP_VSA12>  (120) 
0.0

>  <SlogP_VSA2>  (120) 
26.491288

>  <SlogP_VSA3>  (120) 
16.568048

>  <SlogP_VSA4>  (120) 
0.0

>  <SlogP_VSA5>  (120) 
5.563451

>  <SlogP_VSA6>  (120) 
71.886474

>  <SlogP_VSA7>  (120) 
0.0

>  <SlogP_VSA8>  (120) 
10.772448

>  <SlogP_VSA9>  (120) 
0.0

>  <EState_VSA1>  (120) 
10.023291

>  <EState_VSA10>  (120) 
8.417797

>  <EState_VSA11>  (120) 
0.0

>  <EState_VSA2>  (120) 
0.0

>  <EState_VSA3>  (120) 
23.371221

>  <EState_VSA4>  (120) 
11.930981

>  <EState_VSA5>  (120) 
5.563451

>  <EState_VSA6>  (120) 
30.592788

>  <EState_VSA7>  (120) 
24.265468

>  <EState_VSA8>  (120) 
27.155596

>  <EState_VSA9>  (120) 
0.0

>  <VSA_EState1>  (120) 
27.742047

>  <VSA_EState10>  (120) 
0.0

>  <VSA_EState2>  (120) 
4.327829

>  <VSA_EState3>  (120) 
3.592132

>  <VSA_EState4>  (120) 
1.223991

>  <VSA_EState5>  (120) 
0.0

>  <VSA_EState6>  (120) 
17.049933

>  <VSA_EState7>  (120) 
3.274784

>  <VSA_EState8>  (120) 
1.90237

>  <VSA_EState9>  (120) 
-3.529752

>  <FractionCSP3>  (120) 
0.166667

>  <HeavyAtomCount>  (120) 
24

>  <NHOHCount>  (120) 
3

>  <NOCount>  (120) 
5

>  <NumAliphaticCarbocycles>  (120) 
0

>  <NumAliphaticHeterocycles>  (120) 
0

>  <NumAliphaticRings>  (120) 
0

>  <NumAromaticCarbocycles>  (120) 
2

>  <NumAromaticHeterocycles>  (120) 
1

>  <NAR>  (120) 
3

>  <NumHAcceptors>  (120) 
3

>  <NumHDonors>  (120) 
2

>  <NumHeteroatoms>  (120) 
6

>  <NumRotatableBonds>  (120) 
7

>  <NumSaturatedCarbocycles>  (120) 
0

>  <NumSaturatedHeterocycles>  (120) 
0

>  <NumSaturatedRings>  (120) 
0

>  <RingCount>  (120) 
3

>  <MolLogP>  (120) 
1.2767

>  <MolMR>  (120) 
93.8699

>  <fr_Al_COO>  (120) 
0

>  <fr_Al_OH>  (120) 
0

>  <fr_Al_OH_noTert>  (120) 
0

>  <fr_ArN>  (120) 
0

>  <fr_Ar_COO>  (120) 
0

>  <fr_Ar_N>  (120) 
1

>  <fr_Ar_NH>  (120) 
0

>  <fr_Ar_OH>  (120) 
0

>  <fr_COO>  (120) 
0

>  <fr_COO2>  (120) 
0

>  <fr_C_O>  (120) 
0

>  <fr_C_O_noCOO>  (120) 
0

>  <fr_C_S>  (120) 
0

>  <fr_HOCCN>  (120) 
0

>  <fr_Imine>  (120) 
0

>  <fr_NH0>  (120) 
1

>  <fr_NH1>  (120) 
1

>  <fr_NH2>  (120) 
1

>  <fr_N_O>  (120) 
0

>  <fr_Ndealkylation1>  (120) 
0

>  <fr_Ndealkylation2>  (120) 
0

>  <fr_Nhpyrrole>  (120) 
0

>  <fr_SH>  (120) 
0

>  <fr_aldehyde>  (120) 
0

>  <fr_alkyl_carbamate>  (120) 
0

>  <fr_alkyl_halide>  (120) 
0

>  <fr_allylic_oxid>  (120) 
0

>  <fr_amide>  (120) 
0

>  <fr_amidine>  (120) 
0

>  <fr_aniline>  (120) 
0

>  <fr_aryl_methyl>  (120) 
0

>  <fr_azide>  (120) 
0

>  <fr_azo>  (120) 
0

>  <fr_barbitur>  (120) 
0

>  <fr_benzene>  (120) 
2

>  <fr_benzodiazepine>  (120) 
0

>  <fr_bicyclic>  (120) 
1

>  <fr_diazo>  (120) 
0

>  <fr_dihydropyridine>  (120) 
0

>  <fr_epoxide>  (120) 
0

>  <fr_ester>  (120) 
0

>  <fr_ether>  (120) 
0

>  <fr_furan>  (120) 
0

>  <fr_guanido>  (120) 
0

>  <fr_halogen>  (120) 
0

>  <fr_hdrzine>  (120) 
0

>  <fr_hdrzone>  (120) 
0

>  <fr_imidazole>  (120) 
0

>  <fr_imide>  (120) 
0

>  <fr_isocyan>  (120) 
0

>  <fr_isothiocyan>  (120) 
0

>  <fr_ketone>  (120) 
0

>  <fr_ketone_Topliss>  (120) 
0

>  <fr_lactam>  (120) 
0

>  <fr_lactone>  (120) 
0

>  <fr_methoxy>  (120) 
0

>  <fr_morpholine>  (120) 
0

>  <fr_nitrile>  (120) 
0

>  <fr_nitro>  (120) 
0

>  <fr_nitro_arom>  (120) 
0

>  <fr_nitro_arom_nonortho>  (120) 
0

>  <fr_nitroso>  (120) 
0

>  <fr_oxazole>  (120) 
0

>  <fr_oxime>  (120) 
0

>  <fr_para_hydroxylation>  (120) 
0

>  <fr_phenol>  (120) 
0

>  <fr_phenol_noOrthoHbond>  (120) 
0

>  <fr_phos_acid>  (120) 
0

>  <fr_phos_ester>  (120) 
0

>  <fr_piperdine>  (120) 
0

>  <fr_piperzine>  (120) 
0

>  <fr_priamide>  (120) 
0

>  <fr_prisulfonamd>  (120) 
0

>  <fr_pyridine>  (120) 
1

>  <fr_quatN>  (120) 
1

>  <fr_sulfide>  (120) 
0

>  <fr_sulfonamd>  (120) 
1

>  <fr_sulfone>  (120) 
0

>  <fr_term_acetylene>  (120) 
0

>  <fr_tetrazole>  (120) 
0

>  <fr_thiazole>  (120) 
0

>  <fr_thiocyan>  (120) 
0

>  <fr_thiophene>  (120) 
0

>  <fr_unbrch_alkane>  (120) 
0

>  <fr_urea>  (120) 
0

>  <NP-Likeness>  (120) 
-1.113919

$$$$
ARX
     RDKit          3D

  0  0  0  0  0  0  0  0  0  0999 V3000
M  V30 BEGIN CTAB
M  V30 COUNTS 99 101 0 0 0
M  V30 BEGIN ATOM
M  V30 1 O 0.521858 -0.288357 4.662820 0
M  V30 2 C 0.925515 -1.601320 4.853025 0 CFG=1
M  V30 3 C 2.220543 -1.607958 5.692294 0 CFG=1
M  V30 4 O 1.981570 -0.836603 6.824457 0
M  V30 5 C 2.160226 -3.093348 6.084293 0 CFG=2
M  V30 6 N 2.372474 -3.855356 4.872175 0
M  V30 7 C 1.627204 -4.918517 4.469013 0
M  V30 8 N 2.082891 -5.420695 3.280006 0
M  V30 9 C 3.119483 -4.681163 2.919014 0
M  V30 10 C 3.297203 -3.722646 3.894055 0
M  V30 11 N 4.290459 -2.852740 3.751864 0
M  V30 12 C 5.123349 -2.873325 2.696278 0
M  V30 13 N 4.947495 -3.808229 1.746926 0
M  V30 14 C 3.955237 -4.719123 1.837529 0
M  V30 15 N 3.848013 -5.667302 0.784330 0
M  V30 16 O 0.835639 -3.272534 6.474527 0
M  V30 17 C 0.046500 -2.362585 5.790564 0 CFG=2
M  V30 18 C -1.202087 -2.883253 5.256144 0
M  V30 19 O -1.540728 -4.072929 5.489363 0
M  V30 20 N -2.031145 -2.061400 4.478882 0
M  V30 21 C -3.271691 -2.652560 3.983367 0
M  V30 22 C -4.032777 -1.638678 3.133462 0
M  V30 23 C -3.210375 -1.234800 1.964863 0
M  V30 24 C -3.933866 -0.227584 1.077925 0
M  V30 25 C -3.006165 0.067696 -0.056939 0
M  V30 26 C -3.492546 1.014225 -1.057912 0
M  V30 27 O -4.534665 1.745904 -1.181302 0
M  V30 28 N -2.591201 1.142699 -2.145326 0
M  V30 29 C -2.183742 1.675842 -3.390114 0 CFG=1
M  V30 30 C -1.014935 2.591137 -3.357739 0
M  V30 31 O -0.694157 2.868697 -4.562644 0
M  V30 32 N -0.256721 3.162428 -2.301345 0
M  V30 33 C 0.844190 4.009483 -2.690065 0 CFG=1
M  V30 34 C 0.471102 5.459397 -2.571872 0
M  V30 35 O -0.464270 6.253914 -2.239843 0
M  V30 36 N 1.574000 6.293209 -2.987198 0
M  V30 37 C 2.055079 3.789465 -1.832544 0
M  V30 38 C 2.567952 2.376682 -1.853076 0
M  V30 39 C 2.965657 1.862687 -3.196505 0
M  V30 40 N 3.441883 0.470199 -3.141716 0
M  V30 41 C 4.628550 0.310182 -2.367758 0
M  V30 42 N 5.288951 -0.947427 -2.151020 0
M  V30 43 N 5.287824 1.204146 -1.750269 0 CHG=1 VAL=4
M  V30 44 C -2.120181 0.702088 -4.545832 0
M  V30 45 C -3.503576 0.133602 -4.752207 0
M  V30 46 C -3.539994 -0.867122 -5.886395 0
M  V30 47 N -4.895053 -1.351035 -6.023021 0
M  V30 48 C -5.666867 -2.049432 -5.061733 0
M  V30 49 N -6.991759 -2.509900 -5.213203 0
M  V30 50 N -5.158644 -2.316444 -3.909303 0 CHG=1 VAL=4
M  V30 51 H 0.687660 -0.064505 3.710628 0
M  V30 52 H 1.210777 -2.129417 3.928772 0
M  V30 53 H 3.101769 -1.341219 5.119874 0
M  V30 54 H 2.291387 -1.393975 7.596215 0
M  V30 55 H 2.876585 -3.350362 6.876776 0
M  V30 56 H 0.782245 -5.402412 4.917182 0
M  V30 57 H 5.948244 -2.156372 2.569843 0
M  V30 58 H 3.827910 -6.730356 0.776565 0
M  V30 59 H 3.776095 -5.180361 -0.158839 0
M  V30 60 H -0.252454 -1.607968 6.586214 0
M  V30 61 H -1.784331 -1.088688 4.267075 0
M  V30 62 H -3.847234 -2.920656 4.891330 0
M  V30 63 H -3.067948 -3.596311 3.436572 0
M  V30 64 H -4.348952 -0.820509 3.785160 0
M  V30 65 H -4.929236 -2.195632 2.756611 0
M  V30 66 H -2.277164 -0.765784 2.321800 0
M  V30 67 H -2.917079 -2.134187 1.395978 0
M  V30 68 H -4.812788 -0.801751 0.670011 0
M  V30 69 H -4.278610 0.623108 1.658565 0
M  V30 70 H -2.808561 -0.934262 -0.545725 0
M  V30 71 H -1.998827 0.394668 0.292709 0
M  V30 72 H -1.682347 0.576347 -2.139340 0
M  V30 73 H -3.037307 2.374261 -3.701540 0
M  V30 74 H -0.650082 2.851176 -1.389307 0
M  V30 75 H 1.089901 3.817144 -3.740973 0
M  V30 76 H 2.575146 6.091585 -3.288127 0
M  V30 77 H 2.580022 6.238795 -3.303322 0
M  V30 78 H 1.811386 4.027855 -0.779302 0
M  V30 79 H 2.911408 4.433069 -2.168252 0
M  V30 80 H 1.748729 1.703948 -1.489206 0
M  V30 81 H 3.370943 2.331239 -1.094167 0
M  V30 82 H 3.883955 2.436188 -3.519043 0
M  V30 83 H 2.191953 1.959134 -3.971010 0
M  V30 84 H 3.136813 -0.427763 -3.520516 0
M  V30 85 H 5.319038 -1.312800 -1.163632 0
M  V30 86 H 5.821218 -1.778048 -2.553335 0
M  V30 87 H 6.060640 1.566694 -1.157146 0
M  V30 88 H 5.767459 1.996715 -1.276605 0
M  V30 89 H -1.885132 1.308501 -5.448577 0
M  V30 90 H -1.338016 -0.050712 -4.479070 0
M  V30 91 H -3.951608 -0.284172 -3.843811 0
M  V30 92 H -4.198544 0.960060 -5.065239 0
M  V30 93 H -2.817879 -1.698215 -5.716956 0
M  V30 94 H -3.271954 -0.403328 -6.847266 0
M  V30 95 H -5.478811 -1.221951 -6.906415 0
M  V30 96 H -7.679012 -1.915664 -4.714098 0
M  V30 97 H -7.634204 -3.218433 -5.624669 0
M  V30 98 H -4.917258 -2.620002 -2.927869 0
M  V30 99 H -4.880703 -2.597938 -2.945665 0
M  V30 END ATOM
M  V30 BEGIN BOND
M  V30 1 1 1 2
M  V30 2 1 2 3
M  V30 3 1 3 4
M  V30 4 1 3 5
M  V30 5 1 5 6
M  V30 6 1 6 7
M  V30 7 2 7 8
M  V30 8 1 8 9
M  V30 9 2 9 10
M  V30 10 1 10 11
M  V30 11 2 11 12
M  V30 12 1 12 13
M  V30 13 2 13 14
M  V30 14 1 14 15
M  V30 15 1 5 16
M  V30 16 1 16 17
M  V30 17 1 17 18
M  V30 18 2 18 19
M  V30 19 1 18 20
M  V30 20 1 20 21
M  V30 21 1 21 22
M  V30 22 1 22 23
M  V30 23 1 23 24
M  V30 24 1 24 25
M  V30 25 1 25 26
M  V30 26 2 26 27
M  V30 27 1 26 28
M  V30 28 1 28 29
M  V30 29 1 29 30
M  V30 30 2 30 31
M  V30 31 1 30 32
M  V30 32 1 32 33
M  V30 33 1 33 34
M  V30 34 2 34 35
M  V30 35 1 34 36
M  V30 36 1 33 37
M  V30 37 1 37 38
M  V30 38 1 38 39
M  V30 39 1 39 40
M  V30 40 1 40 41
M  V30 41 1 41 42
M  V30 42 2 41 43
M  V30 43 1 29 44
M  V30 44 1 44 45
M  V30 45 1 45 46
M  V30 46 1 46 47
M  V30 47 1 47 48
M  V30 48 1 48 49
M  V30 49 2 48 50
M  V30 50 1 17 2
M  V30 51 1 10 6
M  V30 52 1 14 9
M  V30 53 1 1 51
M  V30 54 1 2 52 CFG=3
M  V30 55 1 3 53 CFG=3
M  V30 56 1 4 54
M  V30 57 1 5 55 CFG=1
M  V30 58 1 7 56
M  V30 59 1 12 57
M  V30 60 1 15 58
M  V30 61 1 15 59
M  V30 62 1 17 60 CFG=1
M  V30 63 1 20 61
M  V30 64 1 21 62
M  V30 65 1 21 63
M  V30 66 1 22 64
M  V30 67 1 22 65
M  V30 68 1 23 66
M  V30 69 1 23 67
M  V30 70 1 24 68
M  V30 71 1 24 69
M  V30 72 1 25 70
M  V30 73 1 25 71
M  V30 74 1 28 72
M  V30 75 1 29 73 CFG=3
M  V30 76 1 32 74
M  V30 77 1 33 75 CFG=3
M  V30 78 1 36 76
M  V30 79 1 36 77
M  V30 80 1 37 78
M  V30 81 1 37 79
M  V30 82 1 38 80
M  V30 83 1 38 81
M  V30 84 1 39 82
M  V30 85 1 39 83
M  V30 86 1 40 84
M  V30 87 1 42 85
M  V30 88 1 42 86
M  V30 89 1 43 87
M  V30 90 1 43 88
M  V30 91 1 44 89
M  V30 92 1 44 90
M  V30 93 1 45 91
M  V30 94 1 45 92
M  V30 95 1 46 93
M  V30 96 1 46 94
M  V30 97 1 47 95
M  V30 98 1 49 96
M  V30 99 1 49 97
M  V30 100 1 50 98
M  V30 101 1 50 99
M  V30 END BOND
M  V30 END CTAB
M  END
>  <Dataset>  (121) 
PDB

>  <Ligand_Instance>  (121) 
3BWJ_ARX_A_351

>  <PDB_ID>  (121) 
3BWJ

>  <Standardized_SMILES>  (121) 
[H]O[C@@]1([H])[C@@]([H])(O[H])[C@]([H])(N2C([H])=NC3=C2N=C([H])N=C3N([H])[H])O[C@]1([H])C(=O)N([H])C([H])([H])C([H])([H])C([H])([H])C([H])([H])C([H])([H])C(=O)N([H])[C@@]([H])(C(=O)N([H])[C@@]([H])(C(=O)N([H])[H])C([H])([H])C([H])([H])C([H])([H])N([H])C(N([H])[H])=[N+]([H])[H])C([H])([H])C([H])([H])C([H])([H])N([H])C(N([H])[H])=[N+]([H])[H]

>  <Name>  (121) 
(2S,3S,4R,5R)-5-(6-amino-9H-purin-9-yl)-N-(6-{[(1R)-4-carbamimidamido-1-{[(1R)-4-carbamimidamido-1-carbamoylbutyl]carbamoyl}butyl]amino}-6-oxohexyl)-3,4-dihydroxytetrahydrofuran-2-carboxamide

>  <Pocket>  (121) 
A

>  <ATP_Site>  (121) 
1.0

>  <Peripheral>  (121) 
1.0

>  <Num_H_Atoms_ProtBoundConf>  (121) 
49.0

>  <Num_Resolved_Atoms>  (121) 
50.0

>  <Num_Not_Resolved_Atoms>  (121) 
0.0

>  <2D_Mol_H>  (121) 
<rdkit.Chem.rdchem.Mol object at 0x72a238da51c0>

>  <MW>  (121) 
707.798

>  <HBA>  (121) 
12

>  <HBD>  (121) 
13

>  <LogP>  (121) 
-7.9536

>  <NRB>  (121) 
23

>  <TPSA>  (121) 
376.98

>  <Num_Heavy_Atoms>  (121) 
50

>  <Ro5>  (121) 
[False, False, False, True, False, False]

>  <Ro5_Fulfilled>  (121) 
False

>  <Ro3>  (121) 
[False, False, False, True]

>  <Ro3_Fulfilled>  (121) 
False

>  <Fsp3>  (121) 
0.607143

>  <Fsp3_0.42>  (121) 
True

>  <Fsp3_0.45>  (121) 
True

>  <Stereogenic_Carbons>  (121) 
6

>  <C_Atoms>  (121) 
28

>  <FCStereo>  (121) 
0.214286

>  <SPS>  (121) 
982

>  <nSPS>  (121) 
19.64

>  <PBF>  (121) 
1.817941

>  <PBF_0.6>  (121) 
True

>  <nPBF>  (121) 
0.036359

>  <nPBF_0.016>  (121) 
True

>  <PMI1>  (121) 
10002.980353

>  <PMI2>  (121) 
18075.100024

>  <PMI3>  (121) 
21737.402824

>  <NPR1>  (121) 
0.460174

>  <NPR2>  (121) 
0.831521

>  <Sum_NPR>  (121) 
1.291694

>  <Sum_NPR_1.07>  (121) 
True

>  <Sum_NPR_1.2>  (121) 
True

>  <MaxAbsEStateIndex>  (121) 
13.085002

>  <MaxEStateIndex>  (121) 
13.085002

>  <MinAbsEStateIndex>  (121) 
0.016135

>  <MinEStateIndex>  (121) 
-1.517138

>  <qed>  (121) 
0.034514

>  <MolWt>  (121) 
707.798

>  <HeavyAtomMolWt>  (121) 
658.406

>  <ExactMolWt>  (121) 
707.392842

>  <NumValenceElectrons>  (121) 
276

>  <NumRadicalElectrons>  (121) 
0

>  <MaxPartialCharge>  (121) 
0.338266

>  <MinPartialCharge>  (121) 
-0.386941

>  <MaxAbsPartialCharge>  (121) 
0.386941

>  <MinAbsPartialCharge>  (121) 
0.338266

>  <FpDensityMorgan1>  (121) 
0.84

>  <FpDensityMorgan2>  (121) 
1.48

>  <FpDensityMorgan3>  (121) 
2.12

>  <BCUT2D_MWHI>  (121) 
16.559852

>  <BCUT2D_MWLOW>  (121) 
10.06752

>  <BCUT2D_CHGHI>  (121) 
2.473267

>  <BCUT2D_CHGLO>  (121) 
-2.217129

>  <BCUT2D_LOGPHI>  (121) 
2.316397

>  <BCUT2D_LOGPLOW>  (121) 
-2.553641

>  <BCUT2D_MRHI>  (121) 
5.912602

>  <BCUT2D_MRLOW>  (121) 
-0.137284

>  <AvgIpc>  (121) 
3.617646

>  <BalabanJ>  (121) 
1.429429

>  <BertzCT>  (121) 
1504.807475

>  <Chi0>  (121) 
36.793953

>  <Chi0n>  (121) 
27.585601

>  <Chi0v>  (121) 
27.585601

>  <Chi1>  (121) 
23.793509

>  <Chi1n>  (121) 
16.145857

>  <Chi1v>  (121) 
16.145857

>  <Chi2n>  (121) 
11.745419

>  <Chi2v>  (121) 
11.745419

>  <Chi3n>  (121) 
7.846824

>  <Chi3v>  (121) 
7.846824

>  <Chi4n>  (121) 
5.232756

>  <Chi4v>  (121) 
5.232756

>  <HallKierAlpha>  (121) 
-5.35

>  <Ipc>  (121) 
52531701436.525421

>  <Kappa1>  (121) 
39.09189

>  <Kappa2>  (121) 
18.99701

>  <Kappa3>  (121) 
11.374709

>  <LabuteASA>  (121) 
286.406658

>  <PEOE_VSA1>  (121) 
42.367619

>  <PEOE_VSA10>  (121) 
36.135635

>  <PEOE_VSA11>  (121) 
23.796908

>  <PEOE_VSA12>  (121) 
17.721539

>  <PEOE_VSA13>  (121) 
5.90718

>  <PEOE_VSA14>  (121) 
11.919109

>  <PEOE_VSA2>  (121) 
56.664728

>  <PEOE_VSA3>  (121) 
14.951936

>  <PEOE_VSA4>  (121) 
0.0

>  <PEOE_VSA5>  (121) 
0.0

>  <PEOE_VSA6>  (121) 
6.420822

>  <PEOE_VSA7>  (121) 
38.52493

>  <PEOE_VSA8>  (121) 
12.965578

>  <PEOE_VSA9>  (121) 
19.416833

>  <SMR_VSA1>  (121) 
44.946634

>  <SMR_VSA10>  (121) 
52.529569

>  <SMR_VSA2>  (121) 
0.0

>  <SMR_VSA3>  (121) 
46.102978

>  <SMR_VSA4>  (121) 
17.201002

>  <SMR_VSA5>  (121) 
87.990055

>  <SMR_VSA6>  (121) 
25.367937

>  <SMR_VSA7>  (121) 
12.65464

>  <SMR_VSA8>  (121) 
0.0

>  <SMR_VSA9>  (121) 
0.0

>  <SlogP_VSA1>  (121) 
60.33718

>  <SlogP_VSA10>  (121) 
5.817863

>  <SlogP_VSA11>  (121) 
0.0

>  <SlogP_VSA12>  (121) 
0.0

>  <SlogP_VSA2>  (121) 
115.309768

>  <SlogP_VSA3>  (121) 
23.915012

>  <SlogP_VSA4>  (121) 
0.0

>  <SlogP_VSA5>  (121) 
57.594474

>  <SlogP_VSA6>  (121) 
12.65464

>  <SlogP_VSA7>  (121) 
0.0

>  <SlogP_VSA8>  (121) 
11.163878

>  <SlogP_VSA9>  (121) 
0.0

>  <EState_VSA1>  (121) 
54.345021

>  <EState_VSA10>  (121) 
29.391204

>  <EState_VSA11>  (121) 
0.0

>  <EState_VSA2>  (121) 
60.615251

>  <EState_VSA3>  (121) 
45.193621

>  <EState_VSA4>  (121) 
0.0

>  <EState_VSA5>  (121) 
17.22174

>  <EState_VSA6>  (121) 
0.0

>  <EState_VSA7>  (121) 
0.0

>  <EState_VSA8>  (121) 
41.535879

>  <EState_VSA9>  (121) 
38.4901

>  <VSA_EState1>  (121) 
7.059689

>  <VSA_EState10>  (121) 
0.0

>  <VSA_EState2>  (121) 
62.680611

>  <VSA_EState3>  (121) 
45.340149

>  <VSA_EState4>  (121) 
22.626697

>  <VSA_EState5>  (121) 
-2.148315

>  <VSA_EState6>  (121) 
-1.938542

>  <VSA_EState7>  (121) 
-0.049125

>  <VSA_EState8>  (121) 
0.928835

>  <VSA_EState9>  (121) 
0.0

>  <FractionCSP3>  (121) 
0.607143

>  <HeavyAtomCount>  (121) 
50

>  <NHOHCount>  (121) 
19

>  <NOCount>  (121) 
22

>  <NumAliphaticCarbocycles>  (121) 
0

>  <NumAliphaticHeterocycles>  (121) 
1

>  <NumAliphaticRings>  (121) 
1

>  <NumAromaticCarbocycles>  (121) 
0

>  <NumAromaticHeterocycles>  (121) 
2

>  <NAR>  (121) 
2

>  <NumHAcceptors>  (121) 
12

>  <NumHDonors>  (121) 
13

>  <NumHeteroatoms>  (121) 
22

>  <NumRotatableBonds>  (121) 
20

>  <NumSaturatedCarbocycles>  (121) 
0

>  <NumSaturatedHeterocycles>  (121) 
1

>  <NumSaturatedRings>  (121) 
1

>  <RingCount>  (121) 
3

>  <MolLogP>  (121) 
-7.9536

>  <MolMR>  (121) 
176.9055

>  <fr_Al_COO>  (121) 
0

>  <fr_Al_OH>  (121) 
2

>  <fr_Al_OH_noTert>  (121) 
2

>  <fr_ArN>  (121) 
1

>  <fr_Ar_COO>  (121) 
0

>  <fr_Ar_N>  (121) 
4

>  <fr_Ar_NH>  (121) 
0

>  <fr_Ar_OH>  (121) 
0

>  <fr_COO>  (121) 
0

>  <fr_COO2>  (121) 
0

>  <fr_C_O>  (121) 
4

>  <fr_C_O_noCOO>  (121) 
4

>  <fr_C_S>  (121) 
0

>  <fr_HOCCN>  (121) 
0

>  <fr_Imine>  (121) 
0

>  <fr_NH0>  (121) 
4

>  <fr_NH1>  (121) 
5

>  <fr_NH2>  (121) 
6

>  <fr_N_O>  (121) 
0

>  <fr_Ndealkylation1>  (121) 
0

>  <fr_Ndealkylation2>  (121) 
0

>  <fr_Nhpyrrole>  (121) 
0

>  <fr_SH>  (121) 
0

>  <fr_aldehyde>  (121) 
0

>  <fr_alkyl_carbamate>  (121) 
0

>  <fr_alkyl_halide>  (121) 
0

>  <fr_allylic_oxid>  (121) 
0

>  <fr_amide>  (121) 
4

>  <fr_amidine>  (121) 
0

>  <fr_aniline>  (121) 
1

>  <fr_aryl_methyl>  (121) 
0

>  <fr_azide>  (121) 
0

>  <fr_azo>  (121) 
0

>  <fr_barbitur>  (121) 
0

>  <fr_benzene>  (121) 
0

>  <fr_benzodiazepine>  (121) 
0

>  <fr_bicyclic>  (121) 
1

>  <fr_diazo>  (121) 
0

>  <fr_dihydropyridine>  (121) 
0

>  <fr_epoxide>  (121) 
0

>  <fr_ester>  (121) 
0

>  <fr_ether>  (121) 
1

>  <fr_furan>  (121) 
0

>  <fr_guanido>  (121) 
2

>  <fr_halogen>  (121) 
0

>  <fr_hdrzine>  (121) 
0

>  <fr_hdrzone>  (121) 
0

>  <fr_imidazole>  (121) 
1

>  <fr_imide>  (121) 
0

>  <fr_isocyan>  (121) 
0

>  <fr_isothiocyan>  (121) 
0

>  <fr_ketone>  (121) 
0

>  <fr_ketone_Topliss>  (121) 
0

>  <fr_lactam>  (121) 
0

>  <fr_lactone>  (121) 
0

>  <fr_methoxy>  (121) 
0

>  <fr_morpholine>  (121) 
0

>  <fr_nitrile>  (121) 
0

>  <fr_nitro>  (121) 
0

>  <fr_nitro_arom>  (121) 
0

>  <fr_nitro_arom_nonortho>  (121) 
0

>  <fr_nitroso>  (121) 
0

>  <fr_oxazole>  (121) 
0

>  <fr_oxime>  (121) 
0

>  <fr_para_hydroxylation>  (121) 
0

>  <fr_phenol>  (121) 
0

>  <fr_phenol_noOrthoHbond>  (121) 
0

>  <fr_phos_acid>  (121) 
0

>  <fr_phos_ester>  (121) 
0

>  <fr_piperdine>  (121) 
0

>  <fr_piperzine>  (121) 
0

>  <fr_priamide>  (121) 
1

>  <fr_prisulfonamd>  (121) 
0

>  <fr_pyridine>  (121) 
0

>  <fr_quatN>  (121) 
0

>  <fr_sulfide>  (121) 
0

>  <fr_sulfonamd>  (121) 
0

>  <fr_sulfone>  (121) 
0

>  <fr_term_acetylene>  (121) 
0

>  <fr_tetrazole>  (121) 
0

>  <fr_thiazole>  (121) 
0

>  <fr_thiocyan>  (121) 
0

>  <fr_thiophene>  (121) 
0

>  <fr_unbrch_alkane>  (121) 
2

>  <fr_urea>  (121) 
0

>  <NP-Likeness>  (121) 
0.238602

$$$$
ARX
     RDKit          3D

  0  0  0  0  0  0  0  0  0  0999 V3000
M  V30 BEGIN CTAB
M  V30 COUNTS 99 101 0 0 0
M  V30 BEGIN ATOM
M  V30 1 O 0.521858 -0.288357 4.662820 0
M  V30 2 C 0.925515 -1.601320 4.853025 0 CFG=1
M  V30 3 C 2.220543 -1.607958 5.692294 0 CFG=1
M  V30 4 O 1.981570 -0.836603 6.824457 0
M  V30 5 C 2.160226 -3.093348 6.084293 0 CFG=2
M  V30 6 N 2.372474 -3.855356 4.872175 0
M  V30 7 C 1.627204 -4.918517 4.469013 0
M  V30 8 N 2.082891 -5.420695 3.280006 0
M  V30 9 C 3.119483 -4.681163 2.919014 0
M  V30 10 C 3.297203 -3.722646 3.894055 0
M  V30 11 N 4.290459 -2.852740 3.751864 0
M  V30 12 C 5.123349 -2.873325 2.696278 0
M  V30 13 N 4.947495 -3.808229 1.746926 0
M  V30 14 C 3.955237 -4.719123 1.837529 0
M  V30 15 N 3.848013 -5.667302 0.784330 0
M  V30 16 O 0.835639 -3.272534 6.474527 0
M  V30 17 C 0.046500 -2.362585 5.790564 0 CFG=2
M  V30 18 C -1.202087 -2.883253 5.256144 0
M  V30 19 O -1.540728 -4.072929 5.489363 0
M  V30 20 N -2.031145 -2.061400 4.478882 0
M  V30 21 C -3.271691 -2.652560 3.983367 0
M  V30 22 C -4.032777 -1.638678 3.133462 0
M  V30 23 C -3.210375 -1.234800 1.964863 0
M  V30 24 C -3.933866 -0.227584 1.077925 0
M  V30 25 C -3.006165 0.067696 -0.056939 0
M  V30 26 C -3.492546 1.014225 -1.057912 0
M  V30 27 O -4.534665 1.745904 -1.181302 0
M  V30 28 N -2.591201 1.142699 -2.145326 0
M  V30 29 C -2.183742 1.675842 -3.390114 0 CFG=1
M  V30 30 C -1.014935 2.591137 -3.357739 0
M  V30 31 O -0.694157 2.868697 -4.562644 0
M  V30 32 N -0.256721 3.162428 -2.301345 0
M  V30 33 C 0.844190 4.009483 -2.690065 0 CFG=1
M  V30 34 C 0.471102 5.459397 -2.571872 0
M  V30 35 O -0.464270 6.253914 -2.239843 0
M  V30 36 N 1.574000 6.293209 -2.987198 0
M  V30 37 C 2.055079 3.789465 -1.832544 0
M  V30 38 C 2.567952 2.376682 -1.853076 0
M  V30 39 C 2.965657 1.862687 -3.196505 0
M  V30 40 N 3.441883 0.470199 -3.141716 0
M  V30 41 C 4.628550 0.310182 -2.367758 0
M  V30 42 N 5.288951 -0.947427 -2.151020 0
M  V30 43 N 5.287824 1.204146 -1.750269 0 CHG=1 VAL=4
M  V30 44 C -2.120181 0.702088 -4.545832 0
M  V30 45 C -3.503576 0.133602 -4.752207 0
M  V30 46 C -3.539994 -0.867122 -5.886395 0
M  V30 47 N -4.895053 -1.351035 -6.023021 0
M  V30 48 C -5.666867 -2.049432 -5.061733 0
M  V30 49 N -6.991759 -2.509900 -5.213203 0
M  V30 50 N -5.158644 -2.316444 -3.909303 0 CHG=1 VAL=4
M  V30 51 H 0.687660 -0.064505 3.710628 0
M  V30 52 H 1.210777 -2.129417 3.928772 0
M  V30 53 H 3.101769 -1.341219 5.119874 0
M  V30 54 H 2.291387 -1.393975 7.596215 0
M  V30 55 H 2.876585 -3.350362 6.876776 0
M  V30 56 H 0.782245 -5.402412 4.917182 0
M  V30 57 H 5.948244 -2.156372 2.569843 0
M  V30 58 H 3.827910 -6.730356 0.776565 0
M  V30 59 H 3.776095 -5.180361 -0.158839 0
M  V30 60 H -0.252454 -1.607968 6.586214 0
M  V30 61 H -1.784331 -1.088688 4.267075 0
M  V30 62 H -3.847234 -2.920656 4.891330 0
M  V30 63 H -3.067948 -3.596311 3.436572 0
M  V30 64 H -4.348952 -0.820509 3.785160 0
M  V30 65 H -4.929236 -2.195632 2.756611 0
M  V30 66 H -2.277164 -0.765784 2.321800 0
M  V30 67 H -2.917079 -2.134187 1.395978 0
M  V30 68 H -4.812788 -0.801751 0.670011 0
M  V30 69 H -4.278610 0.623108 1.658565 0
M  V30 70 H -2.808561 -0.934262 -0.545725 0
M  V30 71 H -1.998827 0.394668 0.292709 0
M  V30 72 H -1.682347 0.576347 -2.139340 0
M  V30 73 H -3.037307 2.374261 -3.701540 0
M  V30 74 H -0.650082 2.851176 -1.389307 0
M  V30 75 H 1.089901 3.817144 -3.740973 0
M  V30 76 H 2.575146 6.091585 -3.288127 0
M  V30 77 H 2.580022 6.238795 -3.303322 0
M  V30 78 H 1.811386 4.027855 -0.779302 0
M  V30 79 H 2.911408 4.433069 -2.168252 0
M  V30 80 H 1.748729 1.703948 -1.489206 0
M  V30 81 H 3.370943 2.331239 -1.094167 0
M  V30 82 H 3.883955 2.436188 -3.519043 0
M  V30 83 H 2.191953 1.959134 -3.971010 0
M  V30 84 H 3.136813 -0.427763 -3.520516 0
M  V30 85 H 5.319038 -1.312800 -1.163632 0
M  V30 86 H 5.821218 -1.778048 -2.553335 0
M  V30 87 H 6.060640 1.566694 -1.157146 0
M  V30 88 H 5.767459 1.996715 -1.276605 0
M  V30 89 H -1.885132 1.308501 -5.448577 0
M  V30 90 H -1.338016 -0.050712 -4.479070 0
M  V30 91 H -3.951608 -0.284172 -3.843811 0
M  V30 92 H -4.198544 0.960060 -5.065239 0
M  V30 93 H -2.817879 -1.698215 -5.716956 0
M  V30 94 H -3.271954 -0.403328 -6.847266 0
M  V30 95 H -5.478811 -1.221951 -6.906415 0
M  V30 96 H -7.679012 -1.915664 -4.714098 0
M  V30 97 H -7.634204 -3.218433 -5.624669 0
M  V30 98 H -4.917258 -2.620002 -2.927869 0
M  V30 99 H -4.880703 -2.597938 -2.945665 0
M  V30 END ATOM
M  V30 BEGIN BOND
M  V30 1 1 1 2
M  V30 2 1 2 3
M  V30 3 1 3 4
M  V30 4 1 3 5
M  V30 5 1 5 6
M  V30 6 1 6 7
M  V30 7 2 7 8
M  V30 8 1 8 9
M  V30 9 2 9 10
M  V30 10 1 10 11
M  V30 11 2 11 12
M  V30 12 1 12 13
M  V30 13 2 13 14
M  V30 14 1 14 15
M  V30 15 1 5 16
M  V30 16 1 16 17
M  V30 17 1 17 18
M  V30 18 2 18 19
M  V30 19 1 18 20
M  V30 20 1 20 21
M  V30 21 1 21 22
M  V30 22 1 22 23
M  V30 23 1 23 24
M  V30 24 1 24 25
M  V30 25 1 25 26
M  V30 26 2 26 27
M  V30 27 1 26 28
M  V30 28 1 28 29
M  V30 29 1 29 30
M  V30 30 2 30 31
M  V30 31 1 30 32
M  V30 32 1 32 33
M  V30 33 1 33 34
M  V30 34 2 34 35
M  V30 35 1 34 36
M  V30 36 1 33 37
M  V30 37 1 37 38
M  V30 38 1 38 39
M  V30 39 1 39 40
M  V30 40 1 40 41
M  V30 41 1 41 42
M  V30 42 2 41 43
M  V30 43 1 29 44
M  V30 44 1 44 45
M  V30 45 1 45 46
M  V30 46 1 46 47
M  V30 47 1 47 48
M  V30 48 1 48 49
M  V30 49 2 48 50
M  V30 50 1 17 2
M  V30 51 1 10 6
M  V30 52 1 14 9
M  V30 53 1 1 51
M  V30 54 1 2 52 CFG=3
M  V30 55 1 3 53 CFG=3
M  V30 56 1 4 54
M  V30 57 1 5 55 CFG=1
M  V30 58 1 7 56
M  V30 59 1 12 57
M  V30 60 1 15 58
M  V30 61 1 15 59
M  V30 62 1 17 60 CFG=1
M  V30 63 1 20 61
M  V30 64 1 21 62
M  V30 65 1 21 63
M  V30 66 1 22 64
M  V30 67 1 22 65
M  V30 68 1 23 66
M  V30 69 1 23 67
M  V30 70 1 24 68
M  V30 71 1 24 69
M  V30 72 1 25 70
M  V30 73 1 25 71
M  V30 74 1 28 72
M  V30 75 1 29 73 CFG=3
M  V30 76 1 32 74
M  V30 77 1 33 75 CFG=3
M  V30 78 1 36 76
M  V30 79 1 36 77
M  V30 80 1 37 78
M  V30 81 1 37 79
M  V30 82 1 38 80
M  V30 83 1 38 81
M  V30 84 1 39 82
M  V30 85 1 39 83
M  V30 86 1 40 84
M  V30 87 1 42 85
M  V30 88 1 42 86
M  V30 89 1 43 87
M  V30 90 1 43 88
M  V30 91 1 44 89
M  V30 92 1 44 90
M  V30 93 1 45 91
M  V30 94 1 45 92
M  V30 95 1 46 93
M  V30 96 1 46 94
M  V30 97 1 47 95
M  V30 98 1 49 96
M  V30 99 1 49 97
M  V30 100 1 50 98
M  V30 101 1 50 99
M  V30 END BOND
M  V30 END CTAB
M  END
>  <Dataset>  (122) 
PDB

>  <Ligand_Instance>  (122) 
3BWJ_ARX_A_352

>  <PDB_ID>  (122) 
3BWJ

>  <Standardized_SMILES>  (122) 
[H]O[C@@]1([H])[C@@]([H])(O[H])[C@]([H])(N2C([H])=NC3=C2N=C([H])N=C3N([H])[H])O[C@]1([H])C(=O)N([H])C([H])([H])C([H])([H])C([H])([H])C([H])([H])C([H])([H])C(=O)N([H])[C@@]([H])(C(=O)N([H])[C@@]([H])(C(=O)N([H])[H])C([H])([H])C([H])([H])C([H])([H])N([H])C(N([H])[H])=[N+]([H])[H])C([H])([H])C([H])([H])C([H])([H])N([H])C(N([H])[H])=[N+]([H])[H]

>  <Name>  (122) 
(2S,3S,4R,5R)-5-(6-amino-9H-purin-9-yl)-N-(6-{[(1R)-4-carbamimidamido-1-{[(1R)-4-carbamimidamido-1-carbamoylbutyl]carbamoyl}butyl]amino}-6-oxohexyl)-3,4-dihydroxytetrahydrofuran-2-carboxamide

>  <Pocket>  (122) 
G

>  <ATP_Site>  (122) 
1.0

>  <Peripheral>  (122) 
1.0

>  <Num_H_Atoms_ProtBoundConf>  (122) 
49.0

>  <Num_Resolved_Atoms>  (122) 
50.0

>  <Num_Not_Resolved_Atoms>  (122) 
0.0

>  <2D_Mol_H>  (122) 
<rdkit.Chem.rdchem.Mol object at 0x72a238da52a0>

>  <MW>  (122) 
707.798

>  <HBA>  (122) 
12

>  <HBD>  (122) 
13

>  <LogP>  (122) 
-7.9536

>  <NRB>  (122) 
23

>  <TPSA>  (122) 
376.98

>  <Num_Heavy_Atoms>  (122) 
50

>  <Ro5>  (122) 
[False, False, False, True, False, False]

>  <Ro5_Fulfilled>  (122) 
False

>  <Ro3>  (122) 
[False, False, False, True]

>  <Ro3_Fulfilled>  (122) 
False

>  <Fsp3>  (122) 
0.607143

>  <Fsp3_0.42>  (122) 
True

>  <Fsp3_0.45>  (122) 
True

>  <Stereogenic_Carbons>  (122) 
6

>  <C_Atoms>  (122) 
28

>  <FCStereo>  (122) 
0.214286

>  <SPS>  (122) 
982

>  <nSPS>  (122) 
19.64

>  <PBF>  (122) 
1.817941

>  <PBF_0.6>  (122) 
True

>  <nPBF>  (122) 
0.036359

>  <nPBF_0.016>  (122) 
True

>  <PMI1>  (122) 
10002.980353

>  <PMI2>  (122) 
18075.100024

>  <PMI3>  (122) 
21737.402824

>  <NPR1>  (122) 
0.460174

>  <NPR2>  (122) 
0.831521

>  <Sum_NPR>  (122) 
1.291694

>  <Sum_NPR_1.07>  (122) 
True

>  <Sum_NPR_1.2>  (122) 
True

>  <MaxAbsEStateIndex>  (122) 
13.085002

>  <MaxEStateIndex>  (122) 
13.085002

>  <MinAbsEStateIndex>  (122) 
0.016135

>  <MinEStateIndex>  (122) 
-1.517138

>  <qed>  (122) 
0.034514

>  <MolWt>  (122) 
707.798

>  <HeavyAtomMolWt>  (122) 
658.406

>  <ExactMolWt>  (122) 
707.392842

>  <NumValenceElectrons>  (122) 
276

>  <NumRadicalElectrons>  (122) 
0

>  <MaxPartialCharge>  (122) 
0.338266

>  <MinPartialCharge>  (122) 
-0.386941

>  <MaxAbsPartialCharge>  (122) 
0.386941

>  <MinAbsPartialCharge>  (122) 
0.338266

>  <FpDensityMorgan1>  (122) 
0.84

>  <FpDensityMorgan2>  (122) 
1.48

>  <FpDensityMorgan3>  (122) 
2.12

>  <BCUT2D_MWHI>  (122) 
16.559852

>  <BCUT2D_MWLOW>  (122) 
10.06752

>  <BCUT2D_CHGHI>  (122) 
2.473267

>  <BCUT2D_CHGLO>  (122) 
-2.217129

>  <BCUT2D_LOGPHI>  (122) 
2.316397

>  <BCUT2D_LOGPLOW>  (122) 
-2.553641

>  <BCUT2D_MRHI>  (122) 
5.912602

>  <BCUT2D_MRLOW>  (122) 
-0.137284

>  <AvgIpc>  (122) 
3.617646

>  <BalabanJ>  (122) 
1.429429

>  <BertzCT>  (122) 
1504.807475

>  <Chi0>  (122) 
36.793953

>  <Chi0n>  (122) 
27.585601

>  <Chi0v>  (122) 
27.585601

>  <Chi1>  (122) 
23.793509

>  <Chi1n>  (122) 
16.145857

>  <Chi1v>  (122) 
16.145857

>  <Chi2n>  (122) 
11.745419

>  <Chi2v>  (122) 
11.745419

>  <Chi3n>  (122) 
7.846824

>  <Chi3v>  (122) 
7.846824

>  <Chi4n>  (122) 
5.232756

>  <Chi4v>  (122) 
5.232756

>  <HallKierAlpha>  (122) 
-5.35

>  <Ipc>  (122) 
52531701436.525421

>  <Kappa1>  (122) 
39.09189

>  <Kappa2>  (122) 
18.99701

>  <Kappa3>  (122) 
11.374709

>  <LabuteASA>  (122) 
286.406658

>  <PEOE_VSA1>  (122) 
42.367619

>  <PEOE_VSA10>  (122) 
36.135635

>  <PEOE_VSA11>  (122) 
23.796908

>  <PEOE_VSA12>  (122) 
17.721539

>  <PEOE_VSA13>  (122) 
5.90718

>  <PEOE_VSA14>  (122) 
11.919109

>  <PEOE_VSA2>  (122) 
56.664728

>  <PEOE_VSA3>  (122) 
14.951936

>  <PEOE_VSA4>  (122) 
0.0

>  <PEOE_VSA5>  (122) 
0.0

>  <PEOE_VSA6>  (122) 
6.420822

>  <PEOE_VSA7>  (122) 
38.52493

>  <PEOE_VSA8>  (122) 
12.965578

>  <PEOE_VSA9>  (122) 
19.416833

>  <SMR_VSA1>  (122) 
44.946634

>  <SMR_VSA10>  (122) 
52.529569

>  <SMR_VSA2>  (122) 
0.0

>  <SMR_VSA3>  (122) 
46.102978

>  <SMR_VSA4>  (122) 
17.201002

>  <SMR_VSA5>  (122) 
87.990055

>  <SMR_VSA6>  (122) 
25.367937

>  <SMR_VSA7>  (122) 
12.65464

>  <SMR_VSA8>  (122) 
0.0

>  <SMR_VSA9>  (122) 
0.0

>  <SlogP_VSA1>  (122) 
60.33718

>  <SlogP_VSA10>  (122) 
5.817863

>  <SlogP_VSA11>  (122) 
0.0

>  <SlogP_VSA12>  (122) 
0.0

>  <SlogP_VSA2>  (122) 
115.309768

>  <SlogP_VSA3>  (122) 
23.915012

>  <SlogP_VSA4>  (122) 
0.0

>  <SlogP_VSA5>  (122) 
57.594474

>  <SlogP_VSA6>  (122) 
12.65464

>  <SlogP_VSA7>  (122) 
0.0

>  <SlogP_VSA8>  (122) 
11.163878

>  <SlogP_VSA9>  (122) 
0.0

>  <EState_VSA1>  (122) 
54.345021

>  <EState_VSA10>  (122) 
29.391204

>  <EState_VSA11>  (122) 
0.0

>  <EState_VSA2>  (122) 
60.615251

>  <EState_VSA3>  (122) 
45.193621

>  <EState_VSA4>  (122) 
0.0

>  <EState_VSA5>  (122) 
17.22174

>  <EState_VSA6>  (122) 
0.0

>  <EState_VSA7>  (122) 
0.0

>  <EState_VSA8>  (122) 
41.535879

>  <EState_VSA9>  (122) 
38.4901

>  <VSA_EState1>  (122) 
7.059689

>  <VSA_EState10>  (122) 
0.0

>  <VSA_EState2>  (122) 
62.680611

>  <VSA_EState3>  (122) 
45.340149

>  <VSA_EState4>  (122) 
22.626697

>  <VSA_EState5>  (122) 
-2.148315

>  <VSA_EState6>  (122) 
-1.938542

>  <VSA_EState7>  (122) 
-0.049125

>  <VSA_EState8>  (122) 
0.928835

>  <VSA_EState9>  (122) 
0.0

>  <FractionCSP3>  (122) 
0.607143

>  <HeavyAtomCount>  (122) 
50

>  <NHOHCount>  (122) 
19

>  <NOCount>  (122) 
22

>  <NumAliphaticCarbocycles>  (122) 
0

>  <NumAliphaticHeterocycles>  (122) 
1

>  <NumAliphaticRings>  (122) 
1

>  <NumAromaticCarbocycles>  (122) 
0

>  <NumAromaticHeterocycles>  (122) 
2

>  <NAR>  (122) 
2

>  <NumHAcceptors>  (122) 
12

>  <NumHDonors>  (122) 
13

>  <NumHeteroatoms>  (122) 
22

>  <NumRotatableBonds>  (122) 
20

>  <NumSaturatedCarbocycles>  (122) 
0

>  <NumSaturatedHeterocycles>  (122) 
1

>  <NumSaturatedRings>  (122) 
1

>  <RingCount>  (122) 
3

>  <MolLogP>  (122) 
-7.9536

>  <MolMR>  (122) 
176.9055

>  <fr_Al_COO>  (122) 
0

>  <fr_Al_OH>  (122) 
2

>  <fr_Al_OH_noTert>  (122) 
2

>  <fr_ArN>  (122) 
1

>  <fr_Ar_COO>  (122) 
0

>  <fr_Ar_N>  (122) 
4

>  <fr_Ar_NH>  (122) 
0

>  <fr_Ar_OH>  (122) 
0

>  <fr_COO>  (122) 
0

>  <fr_COO2>  (122) 
0

>  <fr_C_O>  (122) 
4

>  <fr_C_O_noCOO>  (122) 
4

>  <fr_C_S>  (122) 
0

>  <fr_HOCCN>  (122) 
0

>  <fr_Imine>  (122) 
0

>  <fr_NH0>  (122) 
4

>  <fr_NH1>  (122) 
5

>  <fr_NH2>  (122) 
6

>  <fr_N_O>  (122) 
0

>  <fr_Ndealkylation1>  (122) 
0

>  <fr_Ndealkylation2>  (122) 
0

>  <fr_Nhpyrrole>  (122) 
0

>  <fr_SH>  (122) 
0

>  <fr_aldehyde>  (122) 
0

>  <fr_alkyl_carbamate>  (122) 
0

>  <fr_alkyl_halide>  (122) 
0

>  <fr_allylic_oxid>  (122) 
0

>  <fr_amide>  (122) 
4

>  <fr_amidine>  (122) 
0

>  <fr_aniline>  (122) 
1

>  <fr_aryl_methyl>  (122) 
0

>  <fr_azide>  (122) 
0

>  <fr_azo>  (122) 
0

>  <fr_barbitur>  (122) 
0

>  <fr_benzene>  (122) 
0

>  <fr_benzodiazepine>  (122) 
0

>  <fr_bicyclic>  (122) 
1

>  <fr_diazo>  (122) 
0

>  <fr_dihydropyridine>  (122) 
0

>  <fr_epoxide>  (122) 
0

>  <fr_ester>  (122) 
0

>  <fr_ether>  (122) 
1

>  <fr_furan>  (122) 
0

>  <fr_guanido>  (122) 
2

>  <fr_halogen>  (122) 
0

>  <fr_hdrzine>  (122) 
0

>  <fr_hdrzone>  (122) 
0

>  <fr_imidazole>  (122) 
1

>  <fr_imide>  (122) 
0

>  <fr_isocyan>  (122) 
0

>  <fr_isothiocyan>  (122) 
0

>  <fr_ketone>  (122) 
0

>  <fr_ketone_Topliss>  (122) 
0

>  <fr_lactam>  (122) 
0

>  <fr_lactone>  (122) 
0

>  <fr_methoxy>  (122) 
0

>  <fr_morpholine>  (122) 
0

>  <fr_nitrile>  (122) 
0

>  <fr_nitro>  (122) 
0

>  <fr_nitro_arom>  (122) 
0

>  <fr_nitro_arom_nonortho>  (122) 
0

>  <fr_nitroso>  (122) 
0

>  <fr_oxazole>  (122) 
0

>  <fr_oxime>  (122) 
0

>  <fr_para_hydroxylation>  (122) 
0

>  <fr_phenol>  (122) 
0

>  <fr_phenol_noOrthoHbond>  (122) 
0

>  <fr_phos_acid>  (122) 
0

>  <fr_phos_ester>  (122) 
0

>  <fr_piperdine>  (122) 
0

>  <fr_piperzine>  (122) 
0

>  <fr_priamide>  (122) 
1

>  <fr_prisulfonamd>  (122) 
0

>  <fr_pyridine>  (122) 
0

>  <fr_quatN>  (122) 
0

>  <fr_sulfide>  (122) 
0

>  <fr_sulfonamd>  (122) 
0

>  <fr_sulfone>  (122) 
0

>  <fr_term_acetylene>  (122) 
0

>  <fr_tetrazole>  (122) 
0

>  <fr_thiazole>  (122) 
0

>  <fr_thiocyan>  (122) 
0

>  <fr_thiophene>  (122) 
0

>  <fr_unbrch_alkane>  (122) 
2

>  <fr_urea>  (122) 
0

>  <NP-Likeness>  (122) 
0.238602

$$$$
ATP
     RDKit          3D

  0  0  0  0  0  0  0  0  0  0999 V3000
M  V30 BEGIN CTAB
M  V30 COUNTS 43 45 0 0 0
M  V30 BEGIN ATOM
M  V30 1 O 4.458051 -0.549692 2.184329 0
M  V30 2 C 3.185165 -1.018996 1.888478 0 CFG=1
M  V30 3 C 2.151562 -0.289438 2.717447 0 CFG=1
M  V30 4 O 2.587765 -0.093020 4.026809 0
M  V30 5 C 2.012863 0.994439 1.960220 0 CFG=2
M  V30 6 N 0.621929 1.451657 1.965626 0
M  V30 7 C -0.169403 1.186978 3.037074 0
M  V30 8 N -1.408033 1.704809 2.816585 0
M  V30 9 C -1.383197 2.293131 1.602194 0
M  V30 10 C -0.117365 2.131241 1.079767 0
M  V30 11 N 0.252831 2.597842 -0.119282 0
M  V30 12 C -0.628049 3.265687 -0.885944 0
M  V30 13 N -1.893337 3.456926 -0.423632 0
M  V30 14 C -2.259898 2.982870 0.788144 0
M  V30 15 N -3.585743 3.184843 1.269376 0
M  V30 16 O 2.493981 0.812049 0.696272 0
M  V30 17 C 2.837818 -0.498716 0.511604 0 CFG=2
M  V30 18 C 1.632035 -1.302937 0.044525 0
M  V30 19 O 1.135567 -0.813049 -1.161444 0
M  V30 20 P -0.192912 -1.811328 -1.539116 0 CFG=2 VAL=5
M  V30 21 O -0.479320 -1.766350 -3.016702 0
M  V30 22 O -1.522987 -1.243639 -0.662576 0 CHG=-1 VAL=1
M  V30 23 O 0.116073 -3.404873 -1.019809 0
M  V30 24 P -1.297393 -4.300885 -1.271927 0 CFG=1 VAL=5
M  V30 25 O -2.420463 -3.649929 -0.529018 0
M  V30 26 O -1.638508 -4.216146 -2.928774 0 CHG=-1 VAL=1
M  V30 27 O -1.138965 -5.884115 -0.747270 0
M  V30 28 P -0.201850 -6.050086 0.625565 0
M  V30 29 O -1.055306 -6.187062 1.878940 0
M  V30 30 O 0.793174 -7.414355 0.434730 0 CHG=-1 VAL=1
M  V30 31 O 0.828910 -4.738283 0.902796 0 CHG=-1 VAL=1
M  V30 32 H 4.728577 0.198453 1.612977 0
M  V30 33 H 3.108112 -2.120577 1.951419 0
M  V30 34 H 1.196890 -0.858526 2.756759 0
M  V30 35 H 2.564617 0.853133 4.289095 0
M  V30 36 H 2.658567 1.738405 2.513310 0
M  V30 37 H -0.048996 0.681264 3.985546 0
M  V30 38 H -0.327779 3.642252 -1.854626 0
M  V30 39 H -3.478432 4.162317 1.671853 0
M  V30 40 H -4.518688 2.681523 1.321313 0
M  V30 41 H 3.687934 -0.617775 -0.192358 0
M  V30 42 H 1.866396 -2.364644 -0.082443 0
M  V30 43 H 0.822775 -1.204780 0.790958 0
M  V30 END ATOM
M  V30 BEGIN BOND
M  V30 1 1 1 2
M  V30 2 1 2 3
M  V30 3 1 3 4
M  V30 4 1 3 5
M  V30 5 1 5 6
M  V30 6 1 6 7
M  V30 7 2 7 8
M  V30 8 1 8 9
M  V30 9 2 9 10
M  V30 10 1 10 11
M  V30 11 2 11 12
M  V30 12 1 12 13
M  V30 13 2 13 14
M  V30 14 1 14 15
M  V30 15 1 5 16
M  V30 16 1 16 17
M  V30 17 1 17 18
M  V30 18 1 18 19
M  V30 19 1 19 20
M  V30 20 2 20 21
M  V30 21 1 20 22 CFG=1
M  V30 22 1 20 23
M  V30 23 1 23 24
M  V30 24 2 24 25
M  V30 25 1 24 26 CFG=3
M  V30 26 1 24 27
M  V30 27 1 27 28
M  V30 28 2 28 29
M  V30 29 1 28 30
M  V30 30 1 28 31
M  V30 31 1 17 2
M  V30 32 1 10 6
M  V30 33 1 14 9
M  V30 34 1 1 32
M  V30 35 1 2 33 CFG=3
M  V30 36 1 3 34 CFG=1
M  V30 37 1 4 35
M  V30 38 1 5 36 CFG=1
M  V30 39 1 7 37
M  V30 40 1 12 38
M  V30 41 1 15 39
M  V30 42 1 15 40
M  V30 43 1 17 41 CFG=3
M  V30 44 1 18 42
M  V30 45 1 18 43
M  V30 END BOND
M  V30 END CTAB
M  END
>  <Dataset>  (123) 
PDB

>  <Ligand_Instance>  (123) 
3FJQ_ATP_E_403

>  <PDB_ID>  (123) 
3FJQ

>  <Standardized_SMILES>  (123) 
[H]O[C@@]1([H])[C@@]([H])(O[H])[C@]([H])(N2C([H])=NC3=C2N=C([H])N=C3N([H])[H])O[C@]1([H])C([H])([H])O[P@](=O)([O-])O[P@@](=O)([O-])OP(=O)([O-])[O-]

>  <Name>  (123) 
ADENOSINE-5'-TRIPHOSPHATE

>  <Pocket>  (123) 
A

>  <ATP_Site>  (123) 
1.0

>  <Peripheral>  (123) 
0.0

>  <Num_H_Atoms_ProtBoundConf>  (123) 
12.0

>  <Num_Resolved_Atoms>  (123) 
31.0

>  <Num_Not_Resolved_Atoms>  (123) 
0.0

>  <2D_Mol_H>  (123) 
<rdkit.Chem.rdchem.Mol object at 0x72a238da5380>

>  <MW>  (123) 
503.15

>  <HBA>  (123) 
18

>  <HBD>  (123) 
3

>  <LogP>  (123) 
-4.157

>  <NRB>  (123) 
11

>  <TPSA>  (123) 
290.45

>  <Num_Heavy_Atoms>  (123) 
31

>  <Ro5>  (123) 
[False, False, True, True, False, False]

>  <Ro5_Fulfilled>  (123) 
False

>  <Ro3>  (123) 
[False, False, True, True]

>  <Ro3_Fulfilled>  (123) 
False

>  <Fsp3>  (123) 
0.5

>  <Fsp3_0.42>  (123) 
True

>  <Fsp3_0.45>  (123) 
True

>  <Stereogenic_Carbons>  (123) 
4

>  <C_Atoms>  (123) 
10

>  <FCStereo>  (123) 
0.4

>  <SPS>  (123) 
882

>  <nSPS>  (123) 
28.451613

>  <PBF>  (123) 
1.205103

>  <PBF_0.6>  (123) 
True

>  <nPBF>  (123) 
0.038874

>  <nPBF_0.016>  (123) 
True

>  <PMI1>  (123) 
2900.35281

>  <PMI2>  (123) 
5982.47364

>  <PMI3>  (123) 
7182.547833

>  <NPR1>  (123) 
0.403806

>  <NPR2>  (123) 
0.832918

>  <Sum_NPR>  (123) 
1.236724

>  <Sum_NPR_1.07>  (123) 
True

>  <Sum_NPR_1.2>  (123) 
True

>  <MaxAbsEStateIndex>  (123) 
11.591022

>  <MaxEStateIndex>  (123) 
11.591022

>  <MinAbsEStateIndex>  (123) 
0.019517

>  <MinEStateIndex>  (123) 
-6.13789

>  <qed>  (123) 
0.28788

>  <MolWt>  (123) 
503.15

>  <HeavyAtomMolWt>  (123) 
491.054

>  <ExactMolWt>  (123) 
502.96664

>  <NumValenceElectrons>  (123) 
174

>  <NumRadicalElectrons>  (123) 
0

>  <MaxPartialCharge>  (123) 
0.277775

>  <MinPartialCharge>  (123) 
-0.789509

>  <MaxAbsPartialCharge>  (123) 
0.789509

>  <MinAbsPartialCharge>  (123) 
0.277775

>  <FpDensityMorgan1>  (123) 
1.064516

>  <FpDensityMorgan2>  (123) 
1.741935

>  <FpDensityMorgan3>  (123) 
2.387097

>  <BCUT2D_MWHI>  (123) 
31.29809

>  <BCUT2D_MWLOW>  (123) 
10.128388

>  <BCUT2D_CHGHI>  (123) 
2.446414

>  <BCUT2D_CHGLO>  (123) 
-2.372117

>  <BCUT2D_LOGPHI>  (123) 
2.601149

>  <BCUT2D_LOGPLOW>  (123) 
-2.337005

>  <BCUT2D_MRHI>  (123) 
7.643939

>  <BCUT2D_MRLOW>  (123) 
-0.338932

>  <AvgIpc>  (123) 
3.133568

>  <BalabanJ>  (123) 
1.689409

>  <BertzCT>  (123) 
1104.784407

>  <Chi0>  (123) 
23.18987

>  <Chi0n>  (123) 
14.764212

>  <Chi0v>  (123) 
17.447494

>  <Chi1>  (123) 
14.190889

>  <Chi1n>  (123) 
7.849713

>  <Chi1v>  (123) 
12.231493

>  <Chi2n>  (123) 
5.929951

>  <Chi2v>  (123) 
10.177826

>  <Chi3n>  (123) 
3.795354

>  <Chi3v>  (123) 
7.460653

>  <Chi4n>  (123) 
2.601107

>  <Chi4v>  (123) 
5.466344

>  <HallKierAlpha>  (123) 
-1.36

>  <Ipc>  (123) 
3947352.346056

>  <Kappa1>  (123) 
24.285736

>  <Kappa2>  (123) 
8.532213

>  <Kappa3>  (123) 
5.714341

>  <LabuteASA>  (123) 
171.218329

>  <PEOE_VSA1>  (123) 
49.346027

>  <PEOE_VSA10>  (123) 
30.15592

>  <PEOE_VSA11>  (123) 
17.692941

>  <PEOE_VSA12>  (123) 
0.0

>  <PEOE_VSA13>  (123) 
15.645394

>  <PEOE_VSA14>  (123) 
0.0

>  <PEOE_VSA2>  (123) 
18.007828

>  <PEOE_VSA3>  (123) 
19.262567

>  <PEOE_VSA4>  (123) 
0.0

>  <PEOE_VSA5>  (123) 
0.0

>  <PEOE_VSA6>  (123) 
0.0

>  <PEOE_VSA7>  (123) 
0.0

>  <PEOE_VSA8>  (123) 
0.0

>  <PEOE_VSA9>  (123) 
20.756899

>  <SMR_VSA1>  (123) 
61.363719

>  <SMR_VSA10>  (123) 
40.449832

>  <SMR_VSA2>  (123) 
0.0

>  <SMR_VSA3>  (123) 
19.519035

>  <SMR_VSA4>  (123) 
0.0

>  <SMR_VSA5>  (123) 
24.5398

>  <SMR_VSA6>  (123) 
12.340549

>  <SMR_VSA7>  (123) 
12.65464

>  <SMR_VSA8>  (123) 
0.0

>  <SMR_VSA9>  (123) 
0.0

>  <SlogP_VSA1>  (123) 
25.307314

>  <SlogP_VSA10>  (123) 
5.817863

>  <SlogP_VSA11>  (123) 
0.0

>  <SlogP_VSA12>  (123) 
23.468091

>  <SlogP_VSA2>  (123) 
54.650871

>  <SlogP_VSA3>  (123) 
31.577018

>  <SlogP_VSA4>  (123) 
0.0

>  <SlogP_VSA5>  (123) 
6.227901

>  <SlogP_VSA6>  (123) 
12.65464

>  <SlogP_VSA7>  (123) 
0.0

>  <SlogP_VSA8>  (123) 
11.163878

>  <SlogP_VSA9>  (123) 
0.0

>  <EState_VSA1>  (123) 
54.614774

>  <EState_VSA10>  (123) 
43.481846

>  <EState_VSA11>  (123) 
0.0

>  <EState_VSA2>  (123) 
16.981741

>  <EState_VSA3>  (123) 
0.0

>  <EState_VSA4>  (123) 
12.65464

>  <EState_VSA5>  (123) 
4.5671

>  <EState_VSA6>  (123) 
0.0

>  <EState_VSA7>  (123) 
0.0

>  <EState_VSA8>  (123) 
28.096945

>  <EState_VSA9>  (123) 
10.47053

>  <VSA_EState1>  (123) 
50.204863

>  <VSA_EState10>  (123) 
0.0

>  <VSA_EState2>  (123) 
54.927006

>  <VSA_EState3>  (123) 
20.320829

>  <VSA_EState4>  (123) 
5.922478

>  <VSA_EState5>  (123) 
0.019517

>  <VSA_EState6>  (123) 
0.0

>  <VSA_EState7>  (123) 
-3.993378

>  <VSA_EState8>  (123) 
-1.07771

>  <VSA_EState9>  (123) 
-18.073605

>  <FractionCSP3>  (123) 
0.5

>  <HeavyAtomCount>  (123) 
31

>  <NHOHCount>  (123) 
4

>  <NOCount>  (123) 
18

>  <NumAliphaticCarbocycles>  (123) 
0

>  <NumAliphaticHeterocycles>  (123) 
1

>  <NumAliphaticRings>  (123) 
1

>  <NumAromaticCarbocycles>  (123) 
0

>  <NumAromaticHeterocycles>  (123) 
2

>  <NAR>  (123) 
2

>  <NumHAcceptors>  (123) 
18

>  <NumHDonors>  (123) 
3

>  <NumHeteroatoms>  (123) 
21

>  <NumRotatableBonds>  (123) 
8

>  <NumSaturatedCarbocycles>  (123) 
0

>  <NumSaturatedHeterocycles>  (123) 
1

>  <NumSaturatedRings>  (123) 
1

>  <RingCount>  (123) 
3

>  <MolLogP>  (123) 
-4.157

>  <MolMR>  (123) 
86.6005

>  <fr_Al_COO>  (123) 
0

>  <fr_Al_OH>  (123) 
2

>  <fr_Al_OH_noTert>  (123) 
2

>  <fr_ArN>  (123) 
1

>  <fr_Ar_COO>  (123) 
0

>  <fr_Ar_N>  (123) 
4

>  <fr_Ar_NH>  (123) 
0

>  <fr_Ar_OH>  (123) 
0

>  <fr_COO>  (123) 
0

>  <fr_COO2>  (123) 
0

>  <fr_C_O>  (123) 
0

>  <fr_C_O_noCOO>  (123) 
0

>  <fr_C_S>  (123) 
0

>  <fr_HOCCN>  (123) 
0

>  <fr_Imine>  (123) 
0

>  <fr_NH0>  (123) 
4

>  <fr_NH1>  (123) 
0

>  <fr_NH2>  (123) 
1

>  <fr_N_O>  (123) 
0

>  <fr_Ndealkylation1>  (123) 
0

>  <fr_Ndealkylation2>  (123) 
0

>  <fr_Nhpyrrole>  (123) 
0

>  <fr_SH>  (123) 
0

>  <fr_aldehyde>  (123) 
0

>  <fr_alkyl_carbamate>  (123) 
0

>  <fr_alkyl_halide>  (123) 
0

>  <fr_allylic_oxid>  (123) 
0

>  <fr_amide>  (123) 
0

>  <fr_amidine>  (123) 
0

>  <fr_aniline>  (123) 
1

>  <fr_aryl_methyl>  (123) 
0

>  <fr_azide>  (123) 
0

>  <fr_azo>  (123) 
0

>  <fr_barbitur>  (123) 
0

>  <fr_benzene>  (123) 
0

>  <fr_benzodiazepine>  (123) 
0

>  <fr_bicyclic>  (123) 
1

>  <fr_diazo>  (123) 
0

>  <fr_dihydropyridine>  (123) 
0

>  <fr_epoxide>  (123) 
0

>  <fr_ester>  (123) 
0

>  <fr_ether>  (123) 
1

>  <fr_furan>  (123) 
0

>  <fr_guanido>  (123) 
0

>  <fr_halogen>  (123) 
0

>  <fr_hdrzine>  (123) 
0

>  <fr_hdrzone>  (123) 
0

>  <fr_imidazole>  (123) 
1

>  <fr_imide>  (123) 
0

>  <fr_isocyan>  (123) 
0

>  <fr_isothiocyan>  (123) 
0

>  <fr_ketone>  (123) 
0

>  <fr_ketone_Topliss>  (123) 
0

>  <fr_lactam>  (123) 
0

>  <fr_lactone>  (123) 
0

>  <fr_methoxy>  (123) 
0

>  <fr_morpholine>  (123) 
0

>  <fr_nitrile>  (123) 
0

>  <fr_nitro>  (123) 
0

>  <fr_nitro_arom>  (123) 
0

>  <fr_nitro_arom_nonortho>  (123) 
0

>  <fr_nitroso>  (123) 
0

>  <fr_oxazole>  (123) 
0

>  <fr_oxime>  (123) 
0

>  <fr_para_hydroxylation>  (123) 
0

>  <fr_phenol>  (123) 
0

>  <fr_phenol_noOrthoHbond>  (123) 
0

>  <fr_phos_acid>  (123) 
3

>  <fr_phos_ester>  (123) 
1

>  <fr_piperdine>  (123) 
0

>  <fr_piperzine>  (123) 
0

>  <fr_priamide>  (123) 
0

>  <fr_prisulfonamd>  (123) 
0

>  <fr_pyridine>  (123) 
0

>  <fr_quatN>  (123) 
0

>  <fr_sulfide>  (123) 
0

>  <fr_sulfonamd>  (123) 
0

>  <fr_sulfone>  (123) 
0

>  <fr_term_acetylene>  (123) 
0

>  <fr_tetrazole>  (123) 
0

>  <fr_thiazole>  (123) 
0

>  <fr_thiocyan>  (123) 
0

>  <fr_thiophene>  (123) 
0

>  <fr_unbrch_alkane>  (123) 
0

>  <fr_urea>  (123) 
0

>  <NP-Likeness>  (123) 
0.811139

$$$$
ATP
     RDKit          3D

  0  0  0  0  0  0  0  0  0  0999 V3000
M  V30 BEGIN CTAB
M  V30 COUNTS 43 45 0 0 0
M  V30 BEGIN ATOM
M  V30 1 O 4.458051 -0.549692 2.184329 0
M  V30 2 C 3.185165 -1.018996 1.888478 0 CFG=1
M  V30 3 C 2.151562 -0.289438 2.717447 0 CFG=1
M  V30 4 O 2.587765 -0.093020 4.026809 0
M  V30 5 C 2.012863 0.994439 1.960220 0 CFG=2
M  V30 6 N 0.621929 1.451657 1.965626 0
M  V30 7 C -0.169403 1.186978 3.037074 0
M  V30 8 N -1.408033 1.704809 2.816585 0
M  V30 9 C -1.383197 2.293131 1.602194 0
M  V30 10 C -0.117365 2.131241 1.079767 0
M  V30 11 N 0.252831 2.597842 -0.119282 0
M  V30 12 C -0.628049 3.265687 -0.885944 0
M  V30 13 N -1.893337 3.456926 -0.423632 0
M  V30 14 C -2.259898 2.982870 0.788144 0
M  V30 15 N -3.585743 3.184843 1.269376 0
M  V30 16 O 2.493981 0.812049 0.696272 0
M  V30 17 C 2.837818 -0.498716 0.511604 0 CFG=2
M  V30 18 C 1.632035 -1.302937 0.044525 0
M  V30 19 O 1.135567 -0.813049 -1.161444 0
M  V30 20 P -0.192912 -1.811328 -1.539116 0 CFG=2 VAL=5
M  V30 21 O -0.479320 -1.766350 -3.016702 0
M  V30 22 O -1.522987 -1.243639 -0.662576 0 CHG=-1 VAL=1
M  V30 23 O 0.116073 -3.404873 -1.019809 0
M  V30 24 P -1.297393 -4.300885 -1.271927 0 CFG=1 VAL=5
M  V30 25 O -2.420463 -3.649929 -0.529018 0
M  V30 26 O -1.638508 -4.216146 -2.928774 0 CHG=-1 VAL=1
M  V30 27 O -1.138965 -5.884115 -0.747270 0
M  V30 28 P -0.201850 -6.050086 0.625565 0
M  V30 29 O -1.055306 -6.187062 1.878940 0
M  V30 30 O 0.793174 -7.414355 0.434730 0 CHG=-1 VAL=1
M  V30 31 O 0.828910 -4.738283 0.902796 0 CHG=-1 VAL=1
M  V30 32 H 4.728577 0.198453 1.612977 0
M  V30 33 H 3.108112 -2.120577 1.951419 0
M  V30 34 H 1.196890 -0.858526 2.756759 0
M  V30 35 H 2.564617 0.853133 4.289095 0
M  V30 36 H 2.658567 1.738405 2.513310 0
M  V30 37 H -0.048996 0.681264 3.985546 0
M  V30 38 H -0.327779 3.642252 -1.854626 0
M  V30 39 H -3.478432 4.162317 1.671853 0
M  V30 40 H -4.518688 2.681523 1.321313 0
M  V30 41 H 3.687934 -0.617775 -0.192358 0
M  V30 42 H 1.866396 -2.364644 -0.082443 0
M  V30 43 H 0.822775 -1.204780 0.790958 0
M  V30 END ATOM
M  V30 BEGIN BOND
M  V30 1 1 1 2
M  V30 2 1 2 3
M  V30 3 1 3 4
M  V30 4 1 3 5
M  V30 5 1 5 6
M  V30 6 1 6 7
M  V30 7 2 7 8
M  V30 8 1 8 9
M  V30 9 2 9 10
M  V30 10 1 10 11
M  V30 11 2 11 12
M  V30 12 1 12 13
M  V30 13 2 13 14
M  V30 14 1 14 15
M  V30 15 1 5 16
M  V30 16 1 16 17
M  V30 17 1 17 18
M  V30 18 1 18 19
M  V30 19 1 19 20
M  V30 20 2 20 21
M  V30 21 1 20 22 CFG=1
M  V30 22 1 20 23
M  V30 23 1 23 24
M  V30 24 2 24 25
M  V30 25 1 24 26 CFG=3
M  V30 26 1 24 27
M  V30 27 1 27 28
M  V30 28 2 28 29
M  V30 29 1 28 30
M  V30 30 1 28 31
M  V30 31 1 17 2
M  V30 32 1 10 6
M  V30 33 1 14 9
M  V30 34 1 1 32
M  V30 35 1 2 33 CFG=3
M  V30 36 1 3 34 CFG=1
M  V30 37 1 4 35
M  V30 38 1 5 36 CFG=1
M  V30 39 1 7 37
M  V30 40 1 12 38
M  V30 41 1 15 39
M  V30 42 1 15 40
M  V30 43 1 17 41 CFG=3
M  V30 44 1 18 42
M  V30 45 1 18 43
M  V30 END BOND
M  V30 END CTAB
M  END
>  <Dataset>  (124) 
PDB

>  <Ligand_Instance>  (124) 
3QAL_ATP_E_351

>  <PDB_ID>  (124) 
3QAL

>  <Standardized_SMILES>  (124) 
[H]O[C@@]1([H])[C@@]([H])(O[H])[C@]([H])(N2C([H])=NC3=C2N=C([H])N=C3N([H])[H])O[C@]1([H])C([H])([H])O[P@](=O)([O-])O[P@@](=O)([O-])OP(=O)([O-])[O-]

>  <Name>  (124) 
ADENOSINE-5'-TRIPHOSPHATE

>  <Pocket>  (124) 
A

>  <ATP_Site>  (124) 
1.0

>  <Peripheral>  (124) 
0.0

>  <Num_H_Atoms_ProtBoundConf>  (124) 
12.0

>  <Num_Resolved_Atoms>  (124) 
31.0

>  <Num_Not_Resolved_Atoms>  (124) 
0.0

>  <2D_Mol_H>  (124) 
<rdkit.Chem.rdchem.Mol object at 0x72a238da5460>

>  <MW>  (124) 
503.15

>  <HBA>  (124) 
18

>  <HBD>  (124) 
3

>  <LogP>  (124) 
-4.157

>  <NRB>  (124) 
11

>  <TPSA>  (124) 
290.45

>  <Num_Heavy_Atoms>  (124) 
31

>  <Ro5>  (124) 
[False, False, True, True, False, False]

>  <Ro5_Fulfilled>  (124) 
False

>  <Ro3>  (124) 
[False, False, True, True]

>  <Ro3_Fulfilled>  (124) 
False

>  <Fsp3>  (124) 
0.5

>  <Fsp3_0.42>  (124) 
True

>  <Fsp3_0.45>  (124) 
True

>  <Stereogenic_Carbons>  (124) 
4

>  <C_Atoms>  (124) 
10

>  <FCStereo>  (124) 
0.4

>  <SPS>  (124) 
882

>  <nSPS>  (124) 
28.451613

>  <PBF>  (124) 
1.205103

>  <PBF_0.6>  (124) 
True

>  <nPBF>  (124) 
0.038874

>  <nPBF_0.016>  (124) 
True

>  <PMI1>  (124) 
2900.35281

>  <PMI2>  (124) 
5982.47364

>  <PMI3>  (124) 
7182.547833

>  <NPR1>  (124) 
0.403806

>  <NPR2>  (124) 
0.832918

>  <Sum_NPR>  (124) 
1.236724

>  <Sum_NPR_1.07>  (124) 
True

>  <Sum_NPR_1.2>  (124) 
True

>  <MaxAbsEStateIndex>  (124) 
11.591022

>  <MaxEStateIndex>  (124) 
11.591022

>  <MinAbsEStateIndex>  (124) 
0.019517

>  <MinEStateIndex>  (124) 
-6.13789

>  <qed>  (124) 
0.28788

>  <MolWt>  (124) 
503.15

>  <HeavyAtomMolWt>  (124) 
491.054

>  <ExactMolWt>  (124) 
502.96664

>  <NumValenceElectrons>  (124) 
174

>  <NumRadicalElectrons>  (124) 
0

>  <MaxPartialCharge>  (124) 
0.277775

>  <MinPartialCharge>  (124) 
-0.789509

>  <MaxAbsPartialCharge>  (124) 
0.789509

>  <MinAbsPartialCharge>  (124) 
0.277775

>  <FpDensityMorgan1>  (124) 
1.064516

>  <FpDensityMorgan2>  (124) 
1.741935

>  <FpDensityMorgan3>  (124) 
2.387097

>  <BCUT2D_MWHI>  (124) 
31.29809

>  <BCUT2D_MWLOW>  (124) 
10.128388

>  <BCUT2D_CHGHI>  (124) 
2.446414

>  <BCUT2D_CHGLO>  (124) 
-2.372117

>  <BCUT2D_LOGPHI>  (124) 
2.601149

>  <BCUT2D_LOGPLOW>  (124) 
-2.337005

>  <BCUT2D_MRHI>  (124) 
7.643939

>  <BCUT2D_MRLOW>  (124) 
-0.338932

>  <AvgIpc>  (124) 
3.133568

>  <BalabanJ>  (124) 
1.689409

>  <BertzCT>  (124) 
1104.784407

>  <Chi0>  (124) 
23.18987

>  <Chi0n>  (124) 
14.764212

>  <Chi0v>  (124) 
17.447494

>  <Chi1>  (124) 
14.190889

>  <Chi1n>  (124) 
7.849713

>  <Chi1v>  (124) 
12.231493

>  <Chi2n>  (124) 
5.929951

>  <Chi2v>  (124) 
10.177826

>  <Chi3n>  (124) 
3.795354

>  <Chi3v>  (124) 
7.460653

>  <Chi4n>  (124) 
2.601107

>  <Chi4v>  (124) 
5.466344

>  <HallKierAlpha>  (124) 
-1.36

>  <Ipc>  (124) 
3947352.346056

>  <Kappa1>  (124) 
24.285736

>  <Kappa2>  (124) 
8.532213

>  <Kappa3>  (124) 
5.714341

>  <LabuteASA>  (124) 
171.218329

>  <PEOE_VSA1>  (124) 
49.346027

>  <PEOE_VSA10>  (124) 
30.15592

>  <PEOE_VSA11>  (124) 
17.692941

>  <PEOE_VSA12>  (124) 
0.0

>  <PEOE_VSA13>  (124) 
15.645394

>  <PEOE_VSA14>  (124) 
0.0

>  <PEOE_VSA2>  (124) 
18.007828

>  <PEOE_VSA3>  (124) 
19.262567

>  <PEOE_VSA4>  (124) 
0.0

>  <PEOE_VSA5>  (124) 
0.0

>  <PEOE_VSA6>  (124) 
0.0

>  <PEOE_VSA7>  (124) 
0.0

>  <PEOE_VSA8>  (124) 
0.0

>  <PEOE_VSA9>  (124) 
20.756899

>  <SMR_VSA1>  (124) 
61.363719

>  <SMR_VSA10>  (124) 
40.449832

>  <SMR_VSA2>  (124) 
0.0

>  <SMR_VSA3>  (124) 
19.519035

>  <SMR_VSA4>  (124) 
0.0

>  <SMR_VSA5>  (124) 
24.5398

>  <SMR_VSA6>  (124) 
12.340549

>  <SMR_VSA7>  (124) 
12.65464

>  <SMR_VSA8>  (124) 
0.0

>  <SMR_VSA9>  (124) 
0.0

>  <SlogP_VSA1>  (124) 
25.307314

>  <SlogP_VSA10>  (124) 
5.817863

>  <SlogP_VSA11>  (124) 
0.0

>  <SlogP_VSA12>  (124) 
23.468091

>  <SlogP_VSA2>  (124) 
54.650871

>  <SlogP_VSA3>  (124) 
31.577018

>  <SlogP_VSA4>  (124) 
0.0

>  <SlogP_VSA5>  (124) 
6.227901

>  <SlogP_VSA6>  (124) 
12.65464

>  <SlogP_VSA7>  (124) 
0.0

>  <SlogP_VSA8>  (124) 
11.163878

>  <SlogP_VSA9>  (124) 
0.0

>  <EState_VSA1>  (124) 
54.614774

>  <EState_VSA10>  (124) 
43.481846

>  <EState_VSA11>  (124) 
0.0

>  <EState_VSA2>  (124) 
16.981741

>  <EState_VSA3>  (124) 
0.0

>  <EState_VSA4>  (124) 
12.65464

>  <EState_VSA5>  (124) 
4.5671

>  <EState_VSA6>  (124) 
0.0

>  <EState_VSA7>  (124) 
0.0

>  <EState_VSA8>  (124) 
28.096945

>  <EState_VSA9>  (124) 
10.47053

>  <VSA_EState1>  (124) 
50.204863

>  <VSA_EState10>  (124) 
0.0

>  <VSA_EState2>  (124) 
54.927006

>  <VSA_EState3>  (124) 
20.320829

>  <VSA_EState4>  (124) 
5.922478

>  <VSA_EState5>  (124) 
0.019517

>  <VSA_EState6>  (124) 
0.0

>  <VSA_EState7>  (124) 
-3.993378

>  <VSA_EState8>  (124) 
-1.07771

>  <VSA_EState9>  (124) 
-18.073605

>  <FractionCSP3>  (124) 
0.5

>  <HeavyAtomCount>  (124) 
31

>  <NHOHCount>  (124) 
4

>  <NOCount>  (124) 
18

>  <NumAliphaticCarbocycles>  (124) 
0

>  <NumAliphaticHeterocycles>  (124) 
1

>  <NumAliphaticRings>  (124) 
1

>  <NumAromaticCarbocycles>  (124) 
0

>  <NumAromaticHeterocycles>  (124) 
2

>  <NAR>  (124) 
2

>  <NumHAcceptors>  (124) 
18

>  <NumHDonors>  (124) 
3

>  <NumHeteroatoms>  (124) 
21

>  <NumRotatableBonds>  (124) 
8

>  <NumSaturatedCarbocycles>  (124) 
0

>  <NumSaturatedHeterocycles>  (124) 
1

>  <NumSaturatedRings>  (124) 
1

>  <RingCount>  (124) 
3

>  <MolLogP>  (124) 
-4.157

>  <MolMR>  (124) 
86.6005

>  <fr_Al_COO>  (124) 
0

>  <fr_Al_OH>  (124) 
2

>  <fr_Al_OH_noTert>  (124) 
2

>  <fr_ArN>  (124) 
1

>  <fr_Ar_COO>  (124) 
0

>  <fr_Ar_N>  (124) 
4

>  <fr_Ar_NH>  (124) 
0

>  <fr_Ar_OH>  (124) 
0

>  <fr_COO>  (124) 
0

>  <fr_COO2>  (124) 
0

>  <fr_C_O>  (124) 
0

>  <fr_C_O_noCOO>  (124) 
0

>  <fr_C_S>  (124) 
0

>  <fr_HOCCN>  (124) 
0

>  <fr_Imine>  (124) 
0

>  <fr_NH0>  (124) 
4

>  <fr_NH1>  (124) 
0

>  <fr_NH2>  (124) 
1

>  <fr_N_O>  (124) 
0

>  <fr_Ndealkylation1>  (124) 
0

>  <fr_Ndealkylation2>  (124) 
0

>  <fr_Nhpyrrole>  (124) 
0

>  <fr_SH>  (124) 
0

>  <fr_aldehyde>  (124) 
0

>  <fr_alkyl_carbamate>  (124) 
0

>  <fr_alkyl_halide>  (124) 
0

>  <fr_allylic_oxid>  (124) 
0

>  <fr_amide>  (124) 
0

>  <fr_amidine>  (124) 
0

>  <fr_aniline>  (124) 
1

>  <fr_aryl_methyl>  (124) 
0

>  <fr_azide>  (124) 
0

>  <fr_azo>  (124) 
0

>  <fr_barbitur>  (124) 
0

>  <fr_benzene>  (124) 
0

>  <fr_benzodiazepine>  (124) 
0

>  <fr_bicyclic>  (124) 
1

>  <fr_diazo>  (124) 
0

>  <fr_dihydropyridine>  (124) 
0

>  <fr_epoxide>  (124) 
0

>  <fr_ester>  (124) 
0

>  <fr_ether>  (124) 
1

>  <fr_furan>  (124) 
0

>  <fr_guanido>  (124) 
0

>  <fr_halogen>  (124) 
0

>  <fr_hdrzine>  (124) 
0

>  <fr_hdrzone>  (124) 
0

>  <fr_imidazole>  (124) 
1

>  <fr_imide>  (124) 
0

>  <fr_isocyan>  (124) 
0

>  <fr_isothiocyan>  (124) 
0

>  <fr_ketone>  (124) 
0

>  <fr_ketone_Topliss>  (124) 
0

>  <fr_lactam>  (124) 
0

>  <fr_lactone>  (124) 
0

>  <fr_methoxy>  (124) 
0

>  <fr_morpholine>  (124) 
0

>  <fr_nitrile>  (124) 
0

>  <fr_nitro>  (124) 
0

>  <fr_nitro_arom>  (124) 
0

>  <fr_nitro_arom_nonortho>  (124) 
0

>  <fr_nitroso>  (124) 
0

>  <fr_oxazole>  (124) 
0

>  <fr_oxime>  (124) 
0

>  <fr_para_hydroxylation>  (124) 
0

>  <fr_phenol>  (124) 
0

>  <fr_phenol_noOrthoHbond>  (124) 
0

>  <fr_phos_acid>  (124) 
3

>  <fr_phos_ester>  (124) 
1

>  <fr_piperdine>  (124) 
0

>  <fr_piperzine>  (124) 
0

>  <fr_priamide>  (124) 
0

>  <fr_prisulfonamd>  (124) 
0

>  <fr_pyridine>  (124) 
0

>  <fr_quatN>  (124) 
0

>  <fr_sulfide>  (124) 
0

>  <fr_sulfonamd>  (124) 
0

>  <fr_sulfone>  (124) 
0

>  <fr_term_acetylene>  (124) 
0

>  <fr_tetrazole>  (124) 
0

>  <fr_thiazole>  (124) 
0

>  <fr_thiocyan>  (124) 
0

>  <fr_thiophene>  (124) 
0

>  <fr_unbrch_alkane>  (124) 
0

>  <fr_urea>  (124) 
0

>  <NP-Likeness>  (124) 
0.811139

$$$$
ATP
     RDKit          3D

  0  0  0  0  0  0  0  0  0  0999 V3000
M  V30 BEGIN CTAB
M  V30 COUNTS 43 45 0 0 0
M  V30 BEGIN ATOM
M  V30 1 O 4.458051 -0.549692 2.184329 0
M  V30 2 C 3.185165 -1.018996 1.888478 0 CFG=1
M  V30 3 C 2.151562 -0.289438 2.717447 0 CFG=1
M  V30 4 O 2.587765 -0.093020 4.026809 0
M  V30 5 C 2.012863 0.994439 1.960220 0 CFG=2
M  V30 6 N 0.621929 1.451657 1.965626 0
M  V30 7 C -0.169403 1.186978 3.037074 0
M  V30 8 N -1.408033 1.704809 2.816585 0
M  V30 9 C -1.383197 2.293131 1.602194 0
M  V30 10 C -0.117365 2.131241 1.079767 0
M  V30 11 N 0.252831 2.597842 -0.119282 0
M  V30 12 C -0.628049 3.265687 -0.885944 0
M  V30 13 N -1.893337 3.456926 -0.423632 0
M  V30 14 C -2.259898 2.982870 0.788144 0
M  V30 15 N -3.585743 3.184843 1.269376 0
M  V30 16 O 2.493981 0.812049 0.696272 0
M  V30 17 C 2.837818 -0.498716 0.511604 0 CFG=2
M  V30 18 C 1.632035 -1.302937 0.044525 0
M  V30 19 O 1.135567 -0.813049 -1.161444 0
M  V30 20 P -0.192912 -1.811328 -1.539116 0 CFG=2 VAL=5
M  V30 21 O -0.479320 -1.766350 -3.016702 0
M  V30 22 O -1.522987 -1.243639 -0.662576 0 CHG=-1 VAL=1
M  V30 23 O 0.116073 -3.404873 -1.019809 0
M  V30 24 P -1.297393 -4.300885 -1.271927 0 CFG=1 VAL=5
M  V30 25 O -2.420463 -3.649929 -0.529018 0
M  V30 26 O -1.638508 -4.216146 -2.928774 0 CHG=-1 VAL=1
M  V30 27 O -1.138965 -5.884115 -0.747270 0
M  V30 28 P -0.201850 -6.050086 0.625565 0
M  V30 29 O -1.055306 -6.187062 1.878940 0
M  V30 30 O 0.793174 -7.414355 0.434730 0 CHG=-1 VAL=1
M  V30 31 O 0.828910 -4.738283 0.902796 0 CHG=-1 VAL=1
M  V30 32 H 4.728577 0.198453 1.612977 0
M  V30 33 H 3.108112 -2.120577 1.951419 0
M  V30 34 H 1.196890 -0.858526 2.756759 0
M  V30 35 H 2.564617 0.853133 4.289095 0
M  V30 36 H 2.658567 1.738405 2.513310 0
M  V30 37 H -0.048996 0.681264 3.985546 0
M  V30 38 H -0.327779 3.642252 -1.854626 0
M  V30 39 H -3.478432 4.162317 1.671853 0
M  V30 40 H -4.518688 2.681523 1.321313 0
M  V30 41 H 3.687934 -0.617775 -0.192358 0
M  V30 42 H 1.866396 -2.364644 -0.082443 0
M  V30 43 H 0.822775 -1.204780 0.790958 0
M  V30 END ATOM
M  V30 BEGIN BOND
M  V30 1 1 1 2
M  V30 2 1 2 3
M  V30 3 1 3 4
M  V30 4 1 3 5
M  V30 5 1 5 6
M  V30 6 1 6 7
M  V30 7 2 7 8
M  V30 8 1 8 9
M  V30 9 2 9 10
M  V30 10 1 10 11
M  V30 11 2 11 12
M  V30 12 1 12 13
M  V30 13 2 13 14
M  V30 14 1 14 15
M  V30 15 1 5 16
M  V30 16 1 16 17
M  V30 17 1 17 18
M  V30 18 1 18 19
M  V30 19 1 19 20
M  V30 20 2 20 21
M  V30 21 1 20 22 CFG=1
M  V30 22 1 20 23
M  V30 23 1 23 24
M  V30 24 2 24 25
M  V30 25 1 24 26 CFG=3
M  V30 26 1 24 27
M  V30 27 1 27 28
M  V30 28 2 28 29
M  V30 29 1 28 30
M  V30 30 1 28 31
M  V30 31 1 17 2
M  V30 32 1 10 6
M  V30 33 1 14 9
M  V30 34 1 1 32
M  V30 35 1 2 33 CFG=3
M  V30 36 1 3 34 CFG=1
M  V30 37 1 4 35
M  V30 38 1 5 36 CFG=1
M  V30 39 1 7 37
M  V30 40 1 12 38
M  V30 41 1 15 39
M  V30 42 1 15 40
M  V30 43 1 17 41 CFG=3
M  V30 44 1 18 42
M  V30 45 1 18 43
M  V30 END BOND
M  V30 END CTAB
M  END
>  <Dataset>  (125) 
PDB

>  <Ligand_Instance>  (125) 
3QAM_ATP_E_351

>  <PDB_ID>  (125) 
3QAM

>  <Standardized_SMILES>  (125) 
[H]O[C@@]1([H])[C@@]([H])(O[H])[C@]([H])(N2C([H])=NC3=C2N=C([H])N=C3N([H])[H])O[C@]1([H])C([H])([H])O[P@](=O)([O-])O[P@@](=O)([O-])OP(=O)([O-])[O-]

>  <Name>  (125) 
ADENOSINE-5'-TRIPHOSPHATE

>  <Pocket>  (125) 
A

>  <ATP_Site>  (125) 
1.0

>  <Peripheral>  (125) 
0.0

>  <Num_H_Atoms_ProtBoundConf>  (125) 
12.0

>  <Num_Resolved_Atoms>  (125) 
31.0

>  <Num_Not_Resolved_Atoms>  (125) 
0.0

>  <2D_Mol_H>  (125) 
<rdkit.Chem.rdchem.Mol object at 0x72a238da5540>

>  <MW>  (125) 
503.15

>  <HBA>  (125) 
18

>  <HBD>  (125) 
3

>  <LogP>  (125) 
-4.157

>  <NRB>  (125) 
11

>  <TPSA>  (125) 
290.45

>  <Num_Heavy_Atoms>  (125) 
31

>  <Ro5>  (125) 
[False, False, True, True, False, False]

>  <Ro5_Fulfilled>  (125) 
False

>  <Ro3>  (125) 
[False, False, True, True]

>  <Ro3_Fulfilled>  (125) 
False

>  <Fsp3>  (125) 
0.5

>  <Fsp3_0.42>  (125) 
True

>  <Fsp3_0.45>  (125) 
True

>  <Stereogenic_Carbons>  (125) 
4

>  <C_Atoms>  (125) 
10

>  <FCStereo>  (125) 
0.4

>  <SPS>  (125) 
882

>  <nSPS>  (125) 
28.451613

>  <PBF>  (125) 
1.205103

>  <PBF_0.6>  (125) 
True

>  <nPBF>  (125) 
0.038874

>  <nPBF_0.016>  (125) 
True

>  <PMI1>  (125) 
2900.35281

>  <PMI2>  (125) 
5982.47364

>  <PMI3>  (125) 
7182.547833

>  <NPR1>  (125) 
0.403806

>  <NPR2>  (125) 
0.832918

>  <Sum_NPR>  (125) 
1.236724

>  <Sum_NPR_1.07>  (125) 
True

>  <Sum_NPR_1.2>  (125) 
True

>  <MaxAbsEStateIndex>  (125) 
11.591022

>  <MaxEStateIndex>  (125) 
11.591022

>  <MinAbsEStateIndex>  (125) 
0.019517

>  <MinEStateIndex>  (125) 
-6.13789

>  <qed>  (125) 
0.28788

>  <MolWt>  (125) 
503.15

>  <HeavyAtomMolWt>  (125) 
491.054

>  <ExactMolWt>  (125) 
502.96664

>  <NumValenceElectrons>  (125) 
174

>  <NumRadicalElectrons>  (125) 
0

>  <MaxPartialCharge>  (125) 
0.277775

>  <MinPartialCharge>  (125) 
-0.789509

>  <MaxAbsPartialCharge>  (125) 
0.789509

>  <MinAbsPartialCharge>  (125) 
0.277775

>  <FpDensityMorgan1>  (125) 
1.064516

>  <FpDensityMorgan2>  (125) 
1.741935

>  <FpDensityMorgan3>  (125) 
2.387097

>  <BCUT2D_MWHI>  (125) 
31.29809

>  <BCUT2D_MWLOW>  (125) 
10.128388

>  <BCUT2D_CHGHI>  (125) 
2.446414

>  <BCUT2D_CHGLO>  (125) 
-2.372117

>  <BCUT2D_LOGPHI>  (125) 
2.601149

>  <BCUT2D_LOGPLOW>  (125) 
-2.337005

>  <BCUT2D_MRHI>  (125) 
7.643939

>  <BCUT2D_MRLOW>  (125) 
-0.338932

>  <AvgIpc>  (125) 
3.133568

>  <BalabanJ>  (125) 
1.689409

>  <BertzCT>  (125) 
1104.784407

>  <Chi0>  (125) 
23.18987

>  <Chi0n>  (125) 
14.764212

>  <Chi0v>  (125) 
17.447494

>  <Chi1>  (125) 
14.190889

>  <Chi1n>  (125) 
7.849713

>  <Chi1v>  (125) 
12.231493

>  <Chi2n>  (125) 
5.929951

>  <Chi2v>  (125) 
10.177826

>  <Chi3n>  (125) 
3.795354

>  <Chi3v>  (125) 
7.460653

>  <Chi4n>  (125) 
2.601107

>  <Chi4v>  (125) 
5.466344

>  <HallKierAlpha>  (125) 
-1.36

>  <Ipc>  (125) 
3947352.346056

>  <Kappa1>  (125) 
24.285736

>  <Kappa2>  (125) 
8.532213

>  <Kappa3>  (125) 
5.714341

>  <LabuteASA>  (125) 
171.218329

>  <PEOE_VSA1>  (125) 
49.346027

>  <PEOE_VSA10>  (125) 
30.15592

>  <PEOE_VSA11>  (125) 
17.692941

>  <PEOE_VSA12>  (125) 
0.0

>  <PEOE_VSA13>  (125) 
15.645394

>  <PEOE_VSA14>  (125) 
0.0

>  <PEOE_VSA2>  (125) 
18.007828

>  <PEOE_VSA3>  (125) 
19.262567

>  <PEOE_VSA4>  (125) 
0.0

>  <PEOE_VSA5>  (125) 
0.0

>  <PEOE_VSA6>  (125) 
0.0

>  <PEOE_VSA7>  (125) 
0.0

>  <PEOE_VSA8>  (125) 
0.0

>  <PEOE_VSA9>  (125) 
20.756899

>  <SMR_VSA1>  (125) 
61.363719

>  <SMR_VSA10>  (125) 
40.449832

>  <SMR_VSA2>  (125) 
0.0

>  <SMR_VSA3>  (125) 
19.519035

>  <SMR_VSA4>  (125) 
0.0

>  <SMR_VSA5>  (125) 
24.5398

>  <SMR_VSA6>  (125) 
12.340549

>  <SMR_VSA7>  (125) 
12.65464

>  <SMR_VSA8>  (125) 
0.0

>  <SMR_VSA9>  (125) 
0.0

>  <SlogP_VSA1>  (125) 
25.307314

>  <SlogP_VSA10>  (125) 
5.817863

>  <SlogP_VSA11>  (125) 
0.0

>  <SlogP_VSA12>  (125) 
23.468091

>  <SlogP_VSA2>  (125) 
54.650871

>  <SlogP_VSA3>  (125) 
31.577018

>  <SlogP_VSA4>  (125) 
0.0

>  <SlogP_VSA5>  (125) 
6.227901

>  <SlogP_VSA6>  (125) 
12.65464

>  <SlogP_VSA7>  (125) 
0.0

>  <SlogP_VSA8>  (125) 
11.163878

>  <SlogP_VSA9>  (125) 
0.0

>  <EState_VSA1>  (125) 
54.614774

>  <EState_VSA10>  (125) 
43.481846

>  <EState_VSA11>  (125) 
0.0

>  <EState_VSA2>  (125) 
16.981741

>  <EState_VSA3>  (125) 
0.0

>  <EState_VSA4>  (125) 
12.65464

>  <EState_VSA5>  (125) 
4.5671

>  <EState_VSA6>  (125) 
0.0

>  <EState_VSA7>  (125) 
0.0

>  <EState_VSA8>  (125) 
28.096945

>  <EState_VSA9>  (125) 
10.47053

>  <VSA_EState1>  (125) 
50.204863

>  <VSA_EState10>  (125) 
0.0

>  <VSA_EState2>  (125) 
54.927006

>  <VSA_EState3>  (125) 
20.320829

>  <VSA_EState4>  (125) 
5.922478

>  <VSA_EState5>  (125) 
0.019517

>  <VSA_EState6>  (125) 
0.0

>  <VSA_EState7>  (125) 
-3.993378

>  <VSA_EState8>  (125) 
-1.07771

>  <VSA_EState9>  (125) 
-18.073605

>  <FractionCSP3>  (125) 
0.5

>  <HeavyAtomCount>  (125) 
31

>  <NHOHCount>  (125) 
4

>  <NOCount>  (125) 
18

>  <NumAliphaticCarbocycles>  (125) 
0

>  <NumAliphaticHeterocycles>  (125) 
1

>  <NumAliphaticRings>  (125) 
1

>  <NumAromaticCarbocycles>  (125) 
0

>  <NumAromaticHeterocycles>  (125) 
2

>  <NAR>  (125) 
2

>  <NumHAcceptors>  (125) 
18

>  <NumHDonors>  (125) 
3

>  <NumHeteroatoms>  (125) 
21

>  <NumRotatableBonds>  (125) 
8

>  <NumSaturatedCarbocycles>  (125) 
0

>  <NumSaturatedHeterocycles>  (125) 
1

>  <NumSaturatedRings>  (125) 
1

>  <RingCount>  (125) 
3

>  <MolLogP>  (125) 
-4.157

>  <MolMR>  (125) 
86.6005

>  <fr_Al_COO>  (125) 
0

>  <fr_Al_OH>  (125) 
2

>  <fr_Al_OH_noTert>  (125) 
2

>  <fr_ArN>  (125) 
1

>  <fr_Ar_COO>  (125) 
0

>  <fr_Ar_N>  (125) 
4

>  <fr_Ar_NH>  (125) 
0

>  <fr_Ar_OH>  (125) 
0

>  <fr_COO>  (125) 
0

>  <fr_COO2>  (125) 
0

>  <fr_C_O>  (125) 
0

>  <fr_C_O_noCOO>  (125) 
0

>  <fr_C_S>  (125) 
0

>  <fr_HOCCN>  (125) 
0

>  <fr_Imine>  (125) 
0

>  <fr_NH0>  (125) 
4

>  <fr_NH1>  (125) 
0

>  <fr_NH2>  (125) 
1

>  <fr_N_O>  (125) 
0

>  <fr_Ndealkylation1>  (125) 
0

>  <fr_Ndealkylation2>  (125) 
0

>  <fr_Nhpyrrole>  (125) 
0

>  <fr_SH>  (125) 
0

>  <fr_aldehyde>  (125) 
0

>  <fr_alkyl_carbamate>  (125) 
0

>  <fr_alkyl_halide>  (125) 
0

>  <fr_allylic_oxid>  (125) 
0

>  <fr_amide>  (125) 
0

>  <fr_amidine>  (125) 
0

>  <fr_aniline>  (125) 
1

>  <fr_aryl_methyl>  (125) 
0

>  <fr_azide>  (125) 
0

>  <fr_azo>  (125) 
0

>  <fr_barbitur>  (125) 
0

>  <fr_benzene>  (125) 
0

>  <fr_benzodiazepine>  (125) 
0

>  <fr_bicyclic>  (125) 
1

>  <fr_diazo>  (125) 
0

>  <fr_dihydropyridine>  (125) 
0

>  <fr_epoxide>  (125) 
0

>  <fr_ester>  (125) 
0

>  <fr_ether>  (125) 
1

>  <fr_furan>  (125) 
0

>  <fr_guanido>  (125) 
0

>  <fr_halogen>  (125) 
0

>  <fr_hdrzine>  (125) 
0

>  <fr_hdrzone>  (125) 
0

>  <fr_imidazole>  (125) 
1

>  <fr_imide>  (125) 
0

>  <fr_isocyan>  (125) 
0

>  <fr_isothiocyan>  (125) 
0

>  <fr_ketone>  (125) 
0

>  <fr_ketone_Topliss>  (125) 
0

>  <fr_lactam>  (125) 
0

>  <fr_lactone>  (125) 
0

>  <fr_methoxy>  (125) 
0

>  <fr_morpholine>  (125) 
0

>  <fr_nitrile>  (125) 
0

>  <fr_nitro>  (125) 
0

>  <fr_nitro_arom>  (125) 
0

>  <fr_nitro_arom_nonortho>  (125) 
0

>  <fr_nitroso>  (125) 
0

>  <fr_oxazole>  (125) 
0

>  <fr_oxime>  (125) 
0

>  <fr_para_hydroxylation>  (125) 
0

>  <fr_phenol>  (125) 
0

>  <fr_phenol_noOrthoHbond>  (125) 
0

>  <fr_phos_acid>  (125) 
3

>  <fr_phos_ester>  (125) 
1

>  <fr_piperdine>  (125) 
0

>  <fr_piperzine>  (125) 
0

>  <fr_priamide>  (125) 
0

>  <fr_prisulfonamd>  (125) 
0

>  <fr_pyridine>  (125) 
0

>  <fr_quatN>  (125) 
0

>  <fr_sulfide>  (125) 
0

>  <fr_sulfonamd>  (125) 
0

>  <fr_sulfone>  (125) 
0

>  <fr_term_acetylene>  (125) 
0

>  <fr_tetrazole>  (125) 
0

>  <fr_thiazole>  (125) 
0

>  <fr_thiocyan>  (125) 
0

>  <fr_thiophene>  (125) 
0

>  <fr_unbrch_alkane>  (125) 
0

>  <fr_urea>  (125) 
0

>  <NP-Likeness>  (125) 
0.811139

$$$$
ATP
     RDKit          3D

  0  0  0  0  0  0  0  0  0  0999 V3000
M  V30 BEGIN CTAB
M  V30 COUNTS 43 45 0 0 0
M  V30 BEGIN ATOM
M  V30 1 O 4.458051 -0.549692 2.184329 0
M  V30 2 C 3.185165 -1.018996 1.888478 0 CFG=1
M  V30 3 C 2.151562 -0.289438 2.717447 0 CFG=1
M  V30 4 O 2.587765 -0.093020 4.026809 0
M  V30 5 C 2.012863 0.994439 1.960220 0 CFG=2
M  V30 6 N 0.621929 1.451657 1.965626 0
M  V30 7 C -0.169403 1.186978 3.037074 0
M  V30 8 N -1.408033 1.704809 2.816585 0
M  V30 9 C -1.383197 2.293131 1.602194 0
M  V30 10 C -0.117365 2.131241 1.079767 0
M  V30 11 N 0.252831 2.597842 -0.119282 0
M  V30 12 C -0.628049 3.265687 -0.885944 0
M  V30 13 N -1.893337 3.456926 -0.423632 0
M  V30 14 C -2.259898 2.982870 0.788144 0
M  V30 15 N -3.585743 3.184843 1.269376 0
M  V30 16 O 2.493981 0.812049 0.696272 0
M  V30 17 C 2.837818 -0.498716 0.511604 0 CFG=2
M  V30 18 C 1.632035 -1.302937 0.044525 0
M  V30 19 O 1.135567 -0.813049 -1.161444 0
M  V30 20 P -0.192912 -1.811328 -1.539116 0 CFG=2 VAL=5
M  V30 21 O -0.479320 -1.766350 -3.016702 0
M  V30 22 O -1.522987 -1.243639 -0.662576 0 CHG=-1 VAL=1
M  V30 23 O 0.116073 -3.404873 -1.019809 0
M  V30 24 P -1.297393 -4.300885 -1.271927 0 CFG=1 VAL=5
M  V30 25 O -2.420463 -3.649929 -0.529018 0
M  V30 26 O -1.638508 -4.216146 -2.928774 0 CHG=-1 VAL=1
M  V30 27 O -1.138965 -5.884115 -0.747270 0
M  V30 28 P -0.201850 -6.050086 0.625565 0
M  V30 29 O -1.055306 -6.187062 1.878940 0
M  V30 30 O 0.793174 -7.414355 0.434730 0 CHG=-1 VAL=1
M  V30 31 O 0.828910 -4.738283 0.902796 0 CHG=-1 VAL=1
M  V30 32 H 4.728577 0.198453 1.612977 0
M  V30 33 H 3.108112 -2.120577 1.951419 0
M  V30 34 H 1.196890 -0.858526 2.756759 0
M  V30 35 H 2.564617 0.853133 4.289095 0
M  V30 36 H 2.658567 1.738405 2.513310 0
M  V30 37 H -0.048996 0.681264 3.985546 0
M  V30 38 H -0.327779 3.642252 -1.854626 0
M  V30 39 H -3.478432 4.162317 1.671853 0
M  V30 40 H -4.518688 2.681523 1.321313 0
M  V30 41 H 3.687934 -0.617775 -0.192358 0
M  V30 42 H 1.866396 -2.364644 -0.082443 0
M  V30 43 H 0.822775 -1.204780 0.790958 0
M  V30 END ATOM
M  V30 BEGIN BOND
M  V30 1 1 1 2
M  V30 2 1 2 3
M  V30 3 1 3 4
M  V30 4 1 3 5
M  V30 5 1 5 6
M  V30 6 1 6 7
M  V30 7 2 7 8
M  V30 8 1 8 9
M  V30 9 2 9 10
M  V30 10 1 10 11
M  V30 11 2 11 12
M  V30 12 1 12 13
M  V30 13 2 13 14
M  V30 14 1 14 15
M  V30 15 1 5 16
M  V30 16 1 16 17
M  V30 17 1 17 18
M  V30 18 1 18 19
M  V30 19 1 19 20
M  V30 20 2 20 21
M  V30 21 1 20 22 CFG=1
M  V30 22 1 20 23
M  V30 23 1 23 24
M  V30 24 2 24 25
M  V30 25 1 24 26 CFG=3
M  V30 26 1 24 27
M  V30 27 1 27 28
M  V30 28 2 28 29
M  V30 29 1 28 30
M  V30 30 1 28 31
M  V30 31 1 17 2
M  V30 32 1 10 6
M  V30 33 1 14 9
M  V30 34 1 1 32
M  V30 35 1 2 33 CFG=3
M  V30 36 1 3 34 CFG=1
M  V30 37 1 4 35
M  V30 38 1 5 36 CFG=1
M  V30 39 1 7 37
M  V30 40 1 12 38
M  V30 41 1 15 39
M  V30 42 1 15 40
M  V30 43 1 17 41 CFG=3
M  V30 44 1 18 42
M  V30 45 1 18 43
M  V30 END BOND
M  V30 END CTAB
M  END
>  <Dataset>  (126) 
PDB

>  <Ligand_Instance>  (126) 
3X2U_ATP_A_501

>  <PDB_ID>  (126) 
3X2U

>  <Standardized_SMILES>  (126) 
[H]O[C@@]1([H])[C@@]([H])(O[H])[C@]([H])(N2C([H])=NC3=C2N=C([H])N=C3N([H])[H])O[C@]1([H])C([H])([H])O[P@](=O)([O-])O[P@@](=O)([O-])OP(=O)([O-])[O-]

>  <Name>  (126) 
ADENOSINE-5'-TRIPHOSPHATE

>  <Pocket>  (126) 
A

>  <ATP_Site>  (126) 
1.0

>  <Peripheral>  (126) 
0.0

>  <Num_H_Atoms_ProtBoundConf>  (126) 
12.0

>  <Num_Resolved_Atoms>  (126) 
31.0

>  <Num_Not_Resolved_Atoms>  (126) 
0.0

>  <2D_Mol_H>  (126) 
<rdkit.Chem.rdchem.Mol object at 0x72a238da5620>

>  <MW>  (126) 
503.15

>  <HBA>  (126) 
18

>  <HBD>  (126) 
3

>  <LogP>  (126) 
-4.157

>  <NRB>  (126) 
11

>  <TPSA>  (126) 
290.45

>  <Num_Heavy_Atoms>  (126) 
31

>  <Ro5>  (126) 
[False, False, True, True, False, False]

>  <Ro5_Fulfilled>  (126) 
False

>  <Ro3>  (126) 
[False, False, True, True]

>  <Ro3_Fulfilled>  (126) 
False

>  <Fsp3>  (126) 
0.5

>  <Fsp3_0.42>  (126) 
True

>  <Fsp3_0.45>  (126) 
True

>  <Stereogenic_Carbons>  (126) 
4

>  <C_Atoms>  (126) 
10

>  <FCStereo>  (126) 
0.4

>  <SPS>  (126) 
882

>  <nSPS>  (126) 
28.451613

>  <PBF>  (126) 
1.205103

>  <PBF_0.6>  (126) 
True

>  <nPBF>  (126) 
0.038874

>  <nPBF_0.016>  (126) 
True

>  <PMI1>  (126) 
2900.35281

>  <PMI2>  (126) 
5982.47364

>  <PMI3>  (126) 
7182.547833

>  <NPR1>  (126) 
0.403806

>  <NPR2>  (126) 
0.832918

>  <Sum_NPR>  (126) 
1.236724

>  <Sum_NPR_1.07>  (126) 
True

>  <Sum_NPR_1.2>  (126) 
True

>  <MaxAbsEStateIndex>  (126) 
11.591022

>  <MaxEStateIndex>  (126) 
11.591022

>  <MinAbsEStateIndex>  (126) 
0.019517

>  <MinEStateIndex>  (126) 
-6.13789

>  <qed>  (126) 
0.28788

>  <MolWt>  (126) 
503.15

>  <HeavyAtomMolWt>  (126) 
491.054

>  <ExactMolWt>  (126) 
502.96664

>  <NumValenceElectrons>  (126) 
174

>  <NumRadicalElectrons>  (126) 
0

>  <MaxPartialCharge>  (126) 
0.277775

>  <MinPartialCharge>  (126) 
-0.789509

>  <MaxAbsPartialCharge>  (126) 
0.789509

>  <MinAbsPartialCharge>  (126) 
0.277775

>  <FpDensityMorgan1>  (126) 
1.064516

>  <FpDensityMorgan2>  (126) 
1.741935

>  <FpDensityMorgan3>  (126) 
2.387097

>  <BCUT2D_MWHI>  (126) 
31.29809

>  <BCUT2D_MWLOW>  (126) 
10.128388

>  <BCUT2D_CHGHI>  (126) 
2.446414

>  <BCUT2D_CHGLO>  (126) 
-2.372117

>  <BCUT2D_LOGPHI>  (126) 
2.601149

>  <BCUT2D_LOGPLOW>  (126) 
-2.337005

>  <BCUT2D_MRHI>  (126) 
7.643939

>  <BCUT2D_MRLOW>  (126) 
-0.338932

>  <AvgIpc>  (126) 
3.133568

>  <BalabanJ>  (126) 
1.689409

>  <BertzCT>  (126) 
1104.784407

>  <Chi0>  (126) 
23.18987

>  <Chi0n>  (126) 
14.764212

>  <Chi0v>  (126) 
17.447494

>  <Chi1>  (126) 
14.190889

>  <Chi1n>  (126) 
7.849713

>  <Chi1v>  (126) 
12.231493

>  <Chi2n>  (126) 
5.929951

>  <Chi2v>  (126) 
10.177826

>  <Chi3n>  (126) 
3.795354

>  <Chi3v>  (126) 
7.460653

>  <Chi4n>  (126) 
2.601107

>  <Chi4v>  (126) 
5.466344

>  <HallKierAlpha>  (126) 
-1.36

>  <Ipc>  (126) 
3947352.346056

>  <Kappa1>  (126) 
24.285736

>  <Kappa2>  (126) 
8.532213

>  <Kappa3>  (126) 
5.714341

>  <LabuteASA>  (126) 
171.218329

>  <PEOE_VSA1>  (126) 
49.346027

>  <PEOE_VSA10>  (126) 
30.15592

>  <PEOE_VSA11>  (126) 
17.692941

>  <PEOE_VSA12>  (126) 
0.0

>  <PEOE_VSA13>  (126) 
15.645394

>  <PEOE_VSA14>  (126) 
0.0

>  <PEOE_VSA2>  (126) 
18.007828

>  <PEOE_VSA3>  (126) 
19.262567

>  <PEOE_VSA4>  (126) 
0.0

>  <PEOE_VSA5>  (126) 
0.0

>  <PEOE_VSA6>  (126) 
0.0

>  <PEOE_VSA7>  (126) 
0.0

>  <PEOE_VSA8>  (126) 
0.0

>  <PEOE_VSA9>  (126) 
20.756899

>  <SMR_VSA1>  (126) 
61.363719

>  <SMR_VSA10>  (126) 
40.449832

>  <SMR_VSA2>  (126) 
0.0

>  <SMR_VSA3>  (126) 
19.519035

>  <SMR_VSA4>  (126) 
0.0

>  <SMR_VSA5>  (126) 
24.5398

>  <SMR_VSA6>  (126) 
12.340549

>  <SMR_VSA7>  (126) 
12.65464

>  <SMR_VSA8>  (126) 
0.0

>  <SMR_VSA9>  (126) 
0.0

>  <SlogP_VSA1>  (126) 
25.307314

>  <SlogP_VSA10>  (126) 
5.817863

>  <SlogP_VSA11>  (126) 
0.0

>  <SlogP_VSA12>  (126) 
23.468091

>  <SlogP_VSA2>  (126) 
54.650871

>  <SlogP_VSA3>  (126) 
31.577018

>  <SlogP_VSA4>  (126) 
0.0

>  <SlogP_VSA5>  (126) 
6.227901

>  <SlogP_VSA6>  (126) 
12.65464

>  <SlogP_VSA7>  (126) 
0.0

>  <SlogP_VSA8>  (126) 
11.163878

>  <SlogP_VSA9>  (126) 
0.0

>  <EState_VSA1>  (126) 
54.614774

>  <EState_VSA10>  (126) 
43.481846

>  <EState_VSA11>  (126) 
0.0

>  <EState_VSA2>  (126) 
16.981741

>  <EState_VSA3>  (126) 
0.0

>  <EState_VSA4>  (126) 
12.65464

>  <EState_VSA5>  (126) 
4.5671

>  <EState_VSA6>  (126) 
0.0

>  <EState_VSA7>  (126) 
0.0

>  <EState_VSA8>  (126) 
28.096945

>  <EState_VSA9>  (126) 
10.47053

>  <VSA_EState1>  (126) 
50.204863

>  <VSA_EState10>  (126) 
0.0

>  <VSA_EState2>  (126) 
54.927006

>  <VSA_EState3>  (126) 
20.320829

>  <VSA_EState4>  (126) 
5.922478

>  <VSA_EState5>  (126) 
0.019517

>  <VSA_EState6>  (126) 
0.0

>  <VSA_EState7>  (126) 
-3.993378

>  <VSA_EState8>  (126) 
-1.07771

>  <VSA_EState9>  (126) 
-18.073605

>  <FractionCSP3>  (126) 
0.5

>  <HeavyAtomCount>  (126) 
31

>  <NHOHCount>  (126) 
4

>  <NOCount>  (126) 
18

>  <NumAliphaticCarbocycles>  (126) 
0

>  <NumAliphaticHeterocycles>  (126) 
1

>  <NumAliphaticRings>  (126) 
1

>  <NumAromaticCarbocycles>  (126) 
0

>  <NumAromaticHeterocycles>  (126) 
2

>  <NAR>  (126) 
2

>  <NumHAcceptors>  (126) 
18

>  <NumHDonors>  (126) 
3

>  <NumHeteroatoms>  (126) 
21

>  <NumRotatableBonds>  (126) 
8

>  <NumSaturatedCarbocycles>  (126) 
0

>  <NumSaturatedHeterocycles>  (126) 
1

>  <NumSaturatedRings>  (126) 
1

>  <RingCount>  (126) 
3

>  <MolLogP>  (126) 
-4.157

>  <MolMR>  (126) 
86.6005

>  <fr_Al_COO>  (126) 
0

>  <fr_Al_OH>  (126) 
2

>  <fr_Al_OH_noTert>  (126) 
2

>  <fr_ArN>  (126) 
1

>  <fr_Ar_COO>  (126) 
0

>  <fr_Ar_N>  (126) 
4

>  <fr_Ar_NH>  (126) 
0

>  <fr_Ar_OH>  (126) 
0

>  <fr_COO>  (126) 
0

>  <fr_COO2>  (126) 
0

>  <fr_C_O>  (126) 
0

>  <fr_C_O_noCOO>  (126) 
0

>  <fr_C_S>  (126) 
0

>  <fr_HOCCN>  (126) 
0

>  <fr_Imine>  (126) 
0

>  <fr_NH0>  (126) 
4

>  <fr_NH1>  (126) 
0

>  <fr_NH2>  (126) 
1

>  <fr_N_O>  (126) 
0

>  <fr_Ndealkylation1>  (126) 
0

>  <fr_Ndealkylation2>  (126) 
0

>  <fr_Nhpyrrole>  (126) 
0

>  <fr_SH>  (126) 
0

>  <fr_aldehyde>  (126) 
0

>  <fr_alkyl_carbamate>  (126) 
0

>  <fr_alkyl_halide>  (126) 
0

>  <fr_allylic_oxid>  (126) 
0

>  <fr_amide>  (126) 
0

>  <fr_amidine>  (126) 
0

>  <fr_aniline>  (126) 
1

>  <fr_aryl_methyl>  (126) 
0

>  <fr_azide>  (126) 
0

>  <fr_azo>  (126) 
0

>  <fr_barbitur>  (126) 
0

>  <fr_benzene>  (126) 
0

>  <fr_benzodiazepine>  (126) 
0

>  <fr_bicyclic>  (126) 
1

>  <fr_diazo>  (126) 
0

>  <fr_dihydropyridine>  (126) 
0

>  <fr_epoxide>  (126) 
0

>  <fr_ester>  (126) 
0

>  <fr_ether>  (126) 
1

>  <fr_furan>  (126) 
0

>  <fr_guanido>  (126) 
0

>  <fr_halogen>  (126) 
0

>  <fr_hdrzine>  (126) 
0

>  <fr_hdrzone>  (126) 
0

>  <fr_imidazole>  (126) 
1

>  <fr_imide>  (126) 
0

>  <fr_isocyan>  (126) 
0

>  <fr_isothiocyan>  (126) 
0

>  <fr_ketone>  (126) 
0

>  <fr_ketone_Topliss>  (126) 
0

>  <fr_lactam>  (126) 
0

>  <fr_lactone>  (126) 
0

>  <fr_methoxy>  (126) 
0

>  <fr_morpholine>  (126) 
0

>  <fr_nitrile>  (126) 
0

>  <fr_nitro>  (126) 
0

>  <fr_nitro_arom>  (126) 
0

>  <fr_nitro_arom_nonortho>  (126) 
0

>  <fr_nitroso>  (126) 
0

>  <fr_oxazole>  (126) 
0

>  <fr_oxime>  (126) 
0

>  <fr_para_hydroxylation>  (126) 
0

>  <fr_phenol>  (126) 
0

>  <fr_phenol_noOrthoHbond>  (126) 
0

>  <fr_phos_acid>  (126) 
3

>  <fr_phos_ester>  (126) 
1

>  <fr_piperdine>  (126) 
0

>  <fr_piperzine>  (126) 
0

>  <fr_priamide>  (126) 
0

>  <fr_prisulfonamd>  (126) 
0

>  <fr_pyridine>  (126) 
0

>  <fr_quatN>  (126) 
0

>  <fr_sulfide>  (126) 
0

>  <fr_sulfonamd>  (126) 
0

>  <fr_sulfone>  (126) 
0

>  <fr_term_acetylene>  (126) 
0

>  <fr_tetrazole>  (126) 
0

>  <fr_thiazole>  (126) 
0

>  <fr_thiocyan>  (126) 
0

>  <fr_thiophene>  (126) 
0

>  <fr_unbrch_alkane>  (126) 
0

>  <fr_urea>  (126) 
0

>  <NP-Likeness>  (126) 
0.811139

$$$$
ATP
     RDKit          3D

  0  0  0  0  0  0  0  0  0  0999 V3000
M  V30 BEGIN CTAB
M  V30 COUNTS 43 45 0 0 0
M  V30 BEGIN ATOM
M  V30 1 O 4.458051 -0.549692 2.184329 0
M  V30 2 C 3.185165 -1.018996 1.888478 0 CFG=1
M  V30 3 C 2.151562 -0.289438 2.717447 0 CFG=1
M  V30 4 O 2.587765 -0.093020 4.026809 0
M  V30 5 C 2.012863 0.994439 1.960220 0 CFG=2
M  V30 6 N 0.621929 1.451657 1.965626 0
M  V30 7 C -0.169403 1.186978 3.037074 0
M  V30 8 N -1.408033 1.704809 2.816585 0
M  V30 9 C -1.383197 2.293131 1.602194 0
M  V30 10 C -0.117365 2.131241 1.079767 0
M  V30 11 N 0.252831 2.597842 -0.119282 0
M  V30 12 C -0.628049 3.265687 -0.885944 0
M  V30 13 N -1.893337 3.456926 -0.423632 0
M  V30 14 C -2.259898 2.982870 0.788144 0
M  V30 15 N -3.585743 3.184843 1.269376 0
M  V30 16 O 2.493981 0.812049 0.696272 0
M  V30 17 C 2.837818 -0.498716 0.511604 0 CFG=2
M  V30 18 C 1.632035 -1.302937 0.044525 0
M  V30 19 O 1.135567 -0.813049 -1.161444 0
M  V30 20 P -0.192912 -1.811328 -1.539116 0 CFG=2 VAL=5
M  V30 21 O -0.479320 -1.766350 -3.016702 0
M  V30 22 O -1.522987 -1.243639 -0.662576 0 CHG=-1 VAL=1
M  V30 23 O 0.116073 -3.404873 -1.019809 0
M  V30 24 P -1.297393 -4.300885 -1.271927 0 CFG=1 VAL=5
M  V30 25 O -2.420463 -3.649929 -0.529018 0
M  V30 26 O -1.638508 -4.216146 -2.928774 0 CHG=-1 VAL=1
M  V30 27 O -1.138965 -5.884115 -0.747270 0
M  V30 28 P -0.201850 -6.050086 0.625565 0
M  V30 29 O -1.055306 -6.187062 1.878940 0
M  V30 30 O 0.793174 -7.414355 0.434730 0 CHG=-1 VAL=1
M  V30 31 O 0.828910 -4.738283 0.902796 0 CHG=-1 VAL=1
M  V30 32 H 4.728577 0.198453 1.612977 0
M  V30 33 H 3.108112 -2.120577 1.951419 0
M  V30 34 H 1.196890 -0.858526 2.756759 0
M  V30 35 H 2.564617 0.853133 4.289095 0
M  V30 36 H 2.658567 1.738405 2.513310 0
M  V30 37 H -0.048996 0.681264 3.985546 0
M  V30 38 H -0.327779 3.642252 -1.854626 0
M  V30 39 H -3.478432 4.162317 1.671853 0
M  V30 40 H -4.518688 2.681523 1.321313 0
M  V30 41 H 3.687934 -0.617775 -0.192358 0
M  V30 42 H 1.866396 -2.364644 -0.082443 0
M  V30 43 H 0.822775 -1.204780 0.790958 0
M  V30 END ATOM
M  V30 BEGIN BOND
M  V30 1 1 1 2
M  V30 2 1 2 3
M  V30 3 1 3 4
M  V30 4 1 3 5
M  V30 5 1 5 6
M  V30 6 1 6 7
M  V30 7 2 7 8
M  V30 8 1 8 9
M  V30 9 2 9 10
M  V30 10 1 10 11
M  V30 11 2 11 12
M  V30 12 1 12 13
M  V30 13 2 13 14
M  V30 14 1 14 15
M  V30 15 1 5 16
M  V30 16 1 16 17
M  V30 17 1 17 18
M  V30 18 1 18 19
M  V30 19 1 19 20
M  V30 20 2 20 21
M  V30 21 1 20 22 CFG=1
M  V30 22 1 20 23
M  V30 23 1 23 24
M  V30 24 2 24 25
M  V30 25 1 24 26 CFG=3
M  V30 26 1 24 27
M  V30 27 1 27 28
M  V30 28 2 28 29
M  V30 29 1 28 30
M  V30 30 1 28 31
M  V30 31 1 17 2
M  V30 32 1 10 6
M  V30 33 1 14 9
M  V30 34 1 1 32
M  V30 35 1 2 33 CFG=3
M  V30 36 1 3 34 CFG=1
M  V30 37 1 4 35
M  V30 38 1 5 36 CFG=1
M  V30 39 1 7 37
M  V30 40 1 12 38
M  V30 41 1 15 39
M  V30 42 1 15 40
M  V30 43 1 17 41 CFG=3
M  V30 44 1 18 42
M  V30 45 1 18 43
M  V30 END BOND
M  V30 END CTAB
M  END
>  <Dataset>  (127) 
PDB

>  <Ligand_Instance>  (127) 
3X2V_ATP_A_403

>  <PDB_ID>  (127) 
3X2V

>  <Standardized_SMILES>  (127) 
[H]O[C@@]1([H])[C@@]([H])(O[H])[C@]([H])(N2C([H])=NC3=C2N=C([H])N=C3N([H])[H])O[C@]1([H])C([H])([H])O[P@](=O)([O-])O[P@@](=O)([O-])OP(=O)([O-])[O-]

>  <Name>  (127) 
ADENOSINE-5'-TRIPHOSPHATE

>  <Pocket>  (127) 
A

>  <ATP_Site>  (127) 
1.0

>  <Peripheral>  (127) 
0.0

>  <Num_H_Atoms_ProtBoundConf>  (127) 
12.0

>  <Num_Resolved_Atoms>  (127) 
31.0

>  <Num_Not_Resolved_Atoms>  (127) 
0.0

>  <2D_Mol_H>  (127) 
<rdkit.Chem.rdchem.Mol object at 0x72a238da5700>

>  <MW>  (127) 
503.15

>  <HBA>  (127) 
18

>  <HBD>  (127) 
3

>  <LogP>  (127) 
-4.157

>  <NRB>  (127) 
11

>  <TPSA>  (127) 
290.45

>  <Num_Heavy_Atoms>  (127) 
31

>  <Ro5>  (127) 
[False, False, True, True, False, False]

>  <Ro5_Fulfilled>  (127) 
False

>  <Ro3>  (127) 
[False, False, True, True]

>  <Ro3_Fulfilled>  (127) 
False

>  <Fsp3>  (127) 
0.5

>  <Fsp3_0.42>  (127) 
True

>  <Fsp3_0.45>  (127) 
True

>  <Stereogenic_Carbons>  (127) 
4

>  <C_Atoms>  (127) 
10

>  <FCStereo>  (127) 
0.4

>  <SPS>  (127) 
882

>  <nSPS>  (127) 
28.451613

>  <PBF>  (127) 
1.205103

>  <PBF_0.6>  (127) 
True

>  <nPBF>  (127) 
0.038874

>  <nPBF_0.016>  (127) 
True

>  <PMI1>  (127) 
2900.35281

>  <PMI2>  (127) 
5982.47364

>  <PMI3>  (127) 
7182.547833

>  <NPR1>  (127) 
0.403806

>  <NPR2>  (127) 
0.832918

>  <Sum_NPR>  (127) 
1.236724

>  <Sum_NPR_1.07>  (127) 
True

>  <Sum_NPR_1.2>  (127) 
True

>  <MaxAbsEStateIndex>  (127) 
11.591022

>  <MaxEStateIndex>  (127) 
11.591022

>  <MinAbsEStateIndex>  (127) 
0.019517

>  <MinEStateIndex>  (127) 
-6.13789

>  <qed>  (127) 
0.28788

>  <MolWt>  (127) 
503.15

>  <HeavyAtomMolWt>  (127) 
491.054

>  <ExactMolWt>  (127) 
502.96664

>  <NumValenceElectrons>  (127) 
174

>  <NumRadicalElectrons>  (127) 
0

>  <MaxPartialCharge>  (127) 
0.277775

>  <MinPartialCharge>  (127) 
-0.789509

>  <MaxAbsPartialCharge>  (127) 
0.789509

>  <MinAbsPartialCharge>  (127) 
0.277775

>  <FpDensityMorgan1>  (127) 
1.064516

>  <FpDensityMorgan2>  (127) 
1.741935

>  <FpDensityMorgan3>  (127) 
2.387097

>  <BCUT2D_MWHI>  (127) 
31.29809

>  <BCUT2D_MWLOW>  (127) 
10.128388

>  <BCUT2D_CHGHI>  (127) 
2.446414

>  <BCUT2D_CHGLO>  (127) 
-2.372117

>  <BCUT2D_LOGPHI>  (127) 
2.601149

>  <BCUT2D_LOGPLOW>  (127) 
-2.337005

>  <BCUT2D_MRHI>  (127) 
7.643939

>  <BCUT2D_MRLOW>  (127) 
-0.338932

>  <AvgIpc>  (127) 
3.133568

>  <BalabanJ>  (127) 
1.689409

>  <BertzCT>  (127) 
1104.784407

>  <Chi0>  (127) 
23.18987

>  <Chi0n>  (127) 
14.764212

>  <Chi0v>  (127) 
17.447494

>  <Chi1>  (127) 
14.190889

>  <Chi1n>  (127) 
7.849713

>  <Chi1v>  (127) 
12.231493

>  <Chi2n>  (127) 
5.929951

>  <Chi2v>  (127) 
10.177826

>  <Chi3n>  (127) 
3.795354

>  <Chi3v>  (127) 
7.460653

>  <Chi4n>  (127) 
2.601107

>  <Chi4v>  (127) 
5.466344

>  <HallKierAlpha>  (127) 
-1.36

>  <Ipc>  (127) 
3947352.346056

>  <Kappa1>  (127) 
24.285736

>  <Kappa2>  (127) 
8.532213

>  <Kappa3>  (127) 
5.714341

>  <LabuteASA>  (127) 
171.218329

>  <PEOE_VSA1>  (127) 
49.346027

>  <PEOE_VSA10>  (127) 
30.15592

>  <PEOE_VSA11>  (127) 
17.692941

>  <PEOE_VSA12>  (127) 
0.0

>  <PEOE_VSA13>  (127) 
15.645394

>  <PEOE_VSA14>  (127) 
0.0

>  <PEOE_VSA2>  (127) 
18.007828

>  <PEOE_VSA3>  (127) 
19.262567

>  <PEOE_VSA4>  (127) 
0.0

>  <PEOE_VSA5>  (127) 
0.0

>  <PEOE_VSA6>  (127) 
0.0

>  <PEOE_VSA7>  (127) 
0.0

>  <PEOE_VSA8>  (127) 
0.0

>  <PEOE_VSA9>  (127) 
20.756899

>  <SMR_VSA1>  (127) 
61.363719

>  <SMR_VSA10>  (127) 
40.449832

>  <SMR_VSA2>  (127) 
0.0

>  <SMR_VSA3>  (127) 
19.519035

>  <SMR_VSA4>  (127) 
0.0

>  <SMR_VSA5>  (127) 
24.5398

>  <SMR_VSA6>  (127) 
12.340549

>  <SMR_VSA7>  (127) 
12.65464

>  <SMR_VSA8>  (127) 
0.0

>  <SMR_VSA9>  (127) 
0.0

>  <SlogP_VSA1>  (127) 
25.307314

>  <SlogP_VSA10>  (127) 
5.817863

>  <SlogP_VSA11>  (127) 
0.0

>  <SlogP_VSA12>  (127) 
23.468091

>  <SlogP_VSA2>  (127) 
54.650871

>  <SlogP_VSA3>  (127) 
31.577018

>  <SlogP_VSA4>  (127) 
0.0

>  <SlogP_VSA5>  (127) 
6.227901

>  <SlogP_VSA6>  (127) 
12.65464

>  <SlogP_VSA7>  (127) 
0.0

>  <SlogP_VSA8>  (127) 
11.163878

>  <SlogP_VSA9>  (127) 
0.0

>  <EState_VSA1>  (127) 
54.614774

>  <EState_VSA10>  (127) 
43.481846

>  <EState_VSA11>  (127) 
0.0

>  <EState_VSA2>  (127) 
16.981741

>  <EState_VSA3>  (127) 
0.0

>  <EState_VSA4>  (127) 
12.65464

>  <EState_VSA5>  (127) 
4.5671

>  <EState_VSA6>  (127) 
0.0

>  <EState_VSA7>  (127) 
0.0

>  <EState_VSA8>  (127) 
28.096945

>  <EState_VSA9>  (127) 
10.47053

>  <VSA_EState1>  (127) 
50.204863

>  <VSA_EState10>  (127) 
0.0

>  <VSA_EState2>  (127) 
54.927006

>  <VSA_EState3>  (127) 
20.320829

>  <VSA_EState4>  (127) 
5.922478

>  <VSA_EState5>  (127) 
0.019517

>  <VSA_EState6>  (127) 
0.0

>  <VSA_EState7>  (127) 
-3.993378

>  <VSA_EState8>  (127) 
-1.07771

>  <VSA_EState9>  (127) 
-18.073605

>  <FractionCSP3>  (127) 
0.5

>  <HeavyAtomCount>  (127) 
31

>  <NHOHCount>  (127) 
4

>  <NOCount>  (127) 
18

>  <NumAliphaticCarbocycles>  (127) 
0

>  <NumAliphaticHeterocycles>  (127) 
1

>  <NumAliphaticRings>  (127) 
1

>  <NumAromaticCarbocycles>  (127) 
0

>  <NumAromaticHeterocycles>  (127) 
2

>  <NAR>  (127) 
2

>  <NumHAcceptors>  (127) 
18

>  <NumHDonors>  (127) 
3

>  <NumHeteroatoms>  (127) 
21

>  <NumRotatableBonds>  (127) 
8

>  <NumSaturatedCarbocycles>  (127) 
0

>  <NumSaturatedHeterocycles>  (127) 
1

>  <NumSaturatedRings>  (127) 
1

>  <RingCount>  (127) 
3

>  <MolLogP>  (127) 
-4.157

>  <MolMR>  (127) 
86.6005

>  <fr_Al_COO>  (127) 
0

>  <fr_Al_OH>  (127) 
2

>  <fr_Al_OH_noTert>  (127) 
2

>  <fr_ArN>  (127) 
1

>  <fr_Ar_COO>  (127) 
0

>  <fr_Ar_N>  (127) 
4

>  <fr_Ar_NH>  (127) 
0

>  <fr_Ar_OH>  (127) 
0

>  <fr_COO>  (127) 
0

>  <fr_COO2>  (127) 
0

>  <fr_C_O>  (127) 
0

>  <fr_C_O_noCOO>  (127) 
0

>  <fr_C_S>  (127) 
0

>  <fr_HOCCN>  (127) 
0

>  <fr_Imine>  (127) 
0

>  <fr_NH0>  (127) 
4

>  <fr_NH1>  (127) 
0

>  <fr_NH2>  (127) 
1

>  <fr_N_O>  (127) 
0

>  <fr_Ndealkylation1>  (127) 
0

>  <fr_Ndealkylation2>  (127) 
0

>  <fr_Nhpyrrole>  (127) 
0

>  <fr_SH>  (127) 
0

>  <fr_aldehyde>  (127) 
0

>  <fr_alkyl_carbamate>  (127) 
0

>  <fr_alkyl_halide>  (127) 
0

>  <fr_allylic_oxid>  (127) 
0

>  <fr_amide>  (127) 
0

>  <fr_amidine>  (127) 
0

>  <fr_aniline>  (127) 
1

>  <fr_aryl_methyl>  (127) 
0

>  <fr_azide>  (127) 
0

>  <fr_azo>  (127) 
0

>  <fr_barbitur>  (127) 
0

>  <fr_benzene>  (127) 
0

>  <fr_benzodiazepine>  (127) 
0

>  <fr_bicyclic>  (127) 
1

>  <fr_diazo>  (127) 
0

>  <fr_dihydropyridine>  (127) 
0

>  <fr_epoxide>  (127) 
0

>  <fr_ester>  (127) 
0

>  <fr_ether>  (127) 
1

>  <fr_furan>  (127) 
0

>  <fr_guanido>  (127) 
0

>  <fr_halogen>  (127) 
0

>  <fr_hdrzine>  (127) 
0

>  <fr_hdrzone>  (127) 
0

>  <fr_imidazole>  (127) 
1

>  <fr_imide>  (127) 
0

>  <fr_isocyan>  (127) 
0

>  <fr_isothiocyan>  (127) 
0

>  <fr_ketone>  (127) 
0

>  <fr_ketone_Topliss>  (127) 
0

>  <fr_lactam>  (127) 
0

>  <fr_lactone>  (127) 
0

>  <fr_methoxy>  (127) 
0

>  <fr_morpholine>  (127) 
0

>  <fr_nitrile>  (127) 
0

>  <fr_nitro>  (127) 
0

>  <fr_nitro_arom>  (127) 
0

>  <fr_nitro_arom_nonortho>  (127) 
0

>  <fr_nitroso>  (127) 
0

>  <fr_oxazole>  (127) 
0

>  <fr_oxime>  (127) 
0

>  <fr_para_hydroxylation>  (127) 
0

>  <fr_phenol>  (127) 
0

>  <fr_phenol_noOrthoHbond>  (127) 
0

>  <fr_phos_acid>  (127) 
3

>  <fr_phos_ester>  (127) 
1

>  <fr_piperdine>  (127) 
0

>  <fr_piperzine>  (127) 
0

>  <fr_priamide>  (127) 
0

>  <fr_prisulfonamd>  (127) 
0

>  <fr_pyridine>  (127) 
0

>  <fr_quatN>  (127) 
0

>  <fr_sulfide>  (127) 
0

>  <fr_sulfonamd>  (127) 
0

>  <fr_sulfone>  (127) 
0

>  <fr_term_acetylene>  (127) 
0

>  <fr_tetrazole>  (127) 
0

>  <fr_thiazole>  (127) 
0

>  <fr_thiocyan>  (127) 
0

>  <fr_thiophene>  (127) 
0

>  <fr_unbrch_alkane>  (127) 
0

>  <fr_urea>  (127) 
0

>  <NP-Likeness>  (127) 
0.811139

$$$$
ATP
     RDKit          3D

  0  0  0  0  0  0  0  0  0  0999 V3000
M  V30 BEGIN CTAB
M  V30 COUNTS 43 45 0 0 0
M  V30 BEGIN ATOM
M  V30 1 O 4.458051 -0.549692 2.184329 0
M  V30 2 C 3.185165 -1.018996 1.888478 0 CFG=1
M  V30 3 C 2.151562 -0.289438 2.717447 0 CFG=1
M  V30 4 O 2.587765 -0.093020 4.026809 0
M  V30 5 C 2.012863 0.994439 1.960220 0 CFG=2
M  V30 6 N 0.621929 1.451657 1.965626 0
M  V30 7 C -0.169403 1.186978 3.037074 0
M  V30 8 N -1.408033 1.704809 2.816585 0
M  V30 9 C -1.383197 2.293131 1.602194 0
M  V30 10 C -0.117365 2.131241 1.079767 0
M  V30 11 N 0.252831 2.597842 -0.119282 0
M  V30 12 C -0.628049 3.265687 -0.885944 0
M  V30 13 N -1.893337 3.456926 -0.423632 0
M  V30 14 C -2.259898 2.982870 0.788144 0
M  V30 15 N -3.585743 3.184843 1.269376 0
M  V30 16 O 2.493981 0.812049 0.696272 0
M  V30 17 C 2.837818 -0.498716 0.511604 0 CFG=2
M  V30 18 C 1.632035 -1.302937 0.044525 0
M  V30 19 O 1.135567 -0.813049 -1.161444 0
M  V30 20 P -0.192912 -1.811328 -1.539116 0 CFG=2 VAL=5
M  V30 21 O -0.479320 -1.766350 -3.016702 0
M  V30 22 O -1.522987 -1.243639 -0.662576 0 CHG=-1 VAL=1
M  V30 23 O 0.116073 -3.404873 -1.019809 0
M  V30 24 P -1.297393 -4.300885 -1.271927 0 CFG=1 VAL=5
M  V30 25 O -2.420463 -3.649929 -0.529018 0
M  V30 26 O -1.638508 -4.216146 -2.928774 0 CHG=-1 VAL=1
M  V30 27 O -1.138965 -5.884115 -0.747270 0
M  V30 28 P -0.201850 -6.050086 0.625565 0
M  V30 29 O -1.055306 -6.187062 1.878940 0
M  V30 30 O 0.793174 -7.414355 0.434730 0 CHG=-1 VAL=1
M  V30 31 O 0.828910 -4.738283 0.902796 0 CHG=-1 VAL=1
M  V30 32 H 4.728577 0.198453 1.612977 0
M  V30 33 H 3.108112 -2.120577 1.951419 0
M  V30 34 H 1.196890 -0.858526 2.756759 0
M  V30 35 H 2.564617 0.853133 4.289095 0
M  V30 36 H 2.658567 1.738405 2.513310 0
M  V30 37 H -0.048996 0.681264 3.985546 0
M  V30 38 H -0.327779 3.642252 -1.854626 0
M  V30 39 H -3.478432 4.162317 1.671853 0
M  V30 40 H -4.518688 2.681523 1.321313 0
M  V30 41 H 3.687934 -0.617775 -0.192358 0
M  V30 42 H 1.866396 -2.364644 -0.082443 0
M  V30 43 H 0.822775 -1.204780 0.790958 0
M  V30 END ATOM
M  V30 BEGIN BOND
M  V30 1 1 1 2
M  V30 2 1 2 3
M  V30 3 1 3 4
M  V30 4 1 3 5
M  V30 5 1 5 6
M  V30 6 1 6 7
M  V30 7 2 7 8
M  V30 8 1 8 9
M  V30 9 2 9 10
M  V30 10 1 10 11
M  V30 11 2 11 12
M  V30 12 1 12 13
M  V30 13 2 13 14
M  V30 14 1 14 15
M  V30 15 1 5 16
M  V30 16 1 16 17
M  V30 17 1 17 18
M  V30 18 1 18 19
M  V30 19 1 19 20
M  V30 20 2 20 21
M  V30 21 1 20 22 CFG=1
M  V30 22 1 20 23
M  V30 23 1 23 24
M  V30 24 2 24 25
M  V30 25 1 24 26 CFG=3
M  V30 26 1 24 27
M  V30 27 1 27 28
M  V30 28 2 28 29
M  V30 29 1 28 30
M  V30 30 1 28 31
M  V30 31 1 17 2
M  V30 32 1 10 6
M  V30 33 1 14 9
M  V30 34 1 1 32
M  V30 35 1 2 33 CFG=3
M  V30 36 1 3 34 CFG=1
M  V30 37 1 4 35
M  V30 38 1 5 36 CFG=1
M  V30 39 1 7 37
M  V30 40 1 12 38
M  V30 41 1 15 39
M  V30 42 1 15 40
M  V30 43 1 17 41 CFG=3
M  V30 44 1 18 42
M  V30 45 1 18 43
M  V30 END BOND
M  V30 END CTAB
M  END
>  <Dataset>  (128) 
PDB

>  <Ligand_Instance>  (128) 
3X2W_ATP_A_403

>  <PDB_ID>  (128) 
3X2W

>  <Standardized_SMILES>  (128) 
[H]O[C@@]1([H])[C@@]([H])(O[H])[C@]([H])(N2C([H])=NC3=C2N=C([H])N=C3N([H])[H])O[C@]1([H])C([H])([H])O[P@](=O)([O-])O[P@@](=O)([O-])OP(=O)([O-])[O-]

>  <Name>  (128) 
ADENOSINE-5'-TRIPHOSPHATE

>  <Pocket>  (128) 
A

>  <ATP_Site>  (128) 
1.0

>  <Peripheral>  (128) 
0.0

>  <Num_H_Atoms_ProtBoundConf>  (128) 
12.0

>  <Num_Resolved_Atoms>  (128) 
31.0

>  <Num_Not_Resolved_Atoms>  (128) 
0.0

>  <2D_Mol_H>  (128) 
<rdkit.Chem.rdchem.Mol object at 0x72a238da57e0>

>  <MW>  (128) 
503.15

>  <HBA>  (128) 
18

>  <HBD>  (128) 
3

>  <LogP>  (128) 
-4.157

>  <NRB>  (128) 
11

>  <TPSA>  (128) 
290.45

>  <Num_Heavy_Atoms>  (128) 
31

>  <Ro5>  (128) 
[False, False, True, True, False, False]

>  <Ro5_Fulfilled>  (128) 
False

>  <Ro3>  (128) 
[False, False, True, True]

>  <Ro3_Fulfilled>  (128) 
False

>  <Fsp3>  (128) 
0.5

>  <Fsp3_0.42>  (128) 
True

>  <Fsp3_0.45>  (128) 
True

>  <Stereogenic_Carbons>  (128) 
4

>  <C_Atoms>  (128) 
10

>  <FCStereo>  (128) 
0.4

>  <SPS>  (128) 
882

>  <nSPS>  (128) 
28.451613

>  <PBF>  (128) 
1.205103

>  <PBF_0.6>  (128) 
True

>  <nPBF>  (128) 
0.038874

>  <nPBF_0.016>  (128) 
True

>  <PMI1>  (128) 
2900.35281

>  <PMI2>  (128) 
5982.47364

>  <PMI3>  (128) 
7182.547833

>  <NPR1>  (128) 
0.403806

>  <NPR2>  (128) 
0.832918

>  <Sum_NPR>  (128) 
1.236724

>  <Sum_NPR_1.07>  (128) 
True

>  <Sum_NPR_1.2>  (128) 
True

>  <MaxAbsEStateIndex>  (128) 
11.591022

>  <MaxEStateIndex>  (128) 
11.591022

>  <MinAbsEStateIndex>  (128) 
0.019517

>  <MinEStateIndex>  (128) 
-6.13789

>  <qed>  (128) 
0.28788

>  <MolWt>  (128) 
503.15

>  <HeavyAtomMolWt>  (128) 
491.054

>  <ExactMolWt>  (128) 
502.96664

>  <NumValenceElectrons>  (128) 
174

>  <NumRadicalElectrons>  (128) 
0

>  <MaxPartialCharge>  (128) 
0.277775

>  <MinPartialCharge>  (128) 
-0.789509

>  <MaxAbsPartialCharge>  (128) 
0.789509

>  <MinAbsPartialCharge>  (128) 
0.277775

>  <FpDensityMorgan1>  (128) 
1.064516

>  <FpDensityMorgan2>  (128) 
1.741935

>  <FpDensityMorgan3>  (128) 
2.387097

>  <BCUT2D_MWHI>  (128) 
31.29809

>  <BCUT2D_MWLOW>  (128) 
10.128388

>  <BCUT2D_CHGHI>  (128) 
2.446414

>  <BCUT2D_CHGLO>  (128) 
-2.372117

>  <BCUT2D_LOGPHI>  (128) 
2.601149

>  <BCUT2D_LOGPLOW>  (128) 
-2.337005

>  <BCUT2D_MRHI>  (128) 
7.643939

>  <BCUT2D_MRLOW>  (128) 
-0.338932

>  <AvgIpc>  (128) 
3.133568

>  <BalabanJ>  (128) 
1.689409

>  <BertzCT>  (128) 
1104.784407

>  <Chi0>  (128) 
23.18987

>  <Chi0n>  (128) 
14.764212

>  <Chi0v>  (128) 
17.447494

>  <Chi1>  (128) 
14.190889

>  <Chi1n>  (128) 
7.849713

>  <Chi1v>  (128) 
12.231493

>  <Chi2n>  (128) 
5.929951

>  <Chi2v>  (128) 
10.177826

>  <Chi3n>  (128) 
3.795354

>  <Chi3v>  (128) 
7.460653

>  <Chi4n>  (128) 
2.601107

>  <Chi4v>  (128) 
5.466344

>  <HallKierAlpha>  (128) 
-1.36

>  <Ipc>  (128) 
3947352.346056

>  <Kappa1>  (128) 
24.285736

>  <Kappa2>  (128) 
8.532213

>  <Kappa3>  (128) 
5.714341

>  <LabuteASA>  (128) 
171.218329

>  <PEOE_VSA1>  (128) 
49.346027

>  <PEOE_VSA10>  (128) 
30.15592

>  <PEOE_VSA11>  (128) 
17.692941

>  <PEOE_VSA12>  (128) 
0.0

>  <PEOE_VSA13>  (128) 
15.645394

>  <PEOE_VSA14>  (128) 
0.0

>  <PEOE_VSA2>  (128) 
18.007828

>  <PEOE_VSA3>  (128) 
19.262567

>  <PEOE_VSA4>  (128) 
0.0

>  <PEOE_VSA5>  (128) 
0.0

>  <PEOE_VSA6>  (128) 
0.0

>  <PEOE_VSA7>  (128) 
0.0

>  <PEOE_VSA8>  (128) 
0.0

>  <PEOE_VSA9>  (128) 
20.756899

>  <SMR_VSA1>  (128) 
61.363719

>  <SMR_VSA10>  (128) 
40.449832

>  <SMR_VSA2>  (128) 
0.0

>  <SMR_VSA3>  (128) 
19.519035

>  <SMR_VSA4>  (128) 
0.0

>  <SMR_VSA5>  (128) 
24.5398

>  <SMR_VSA6>  (128) 
12.340549

>  <SMR_VSA7>  (128) 
12.65464

>  <SMR_VSA8>  (128) 
0.0

>  <SMR_VSA9>  (128) 
0.0

>  <SlogP_VSA1>  (128) 
25.307314

>  <SlogP_VSA10>  (128) 
5.817863

>  <SlogP_VSA11>  (128) 
0.0

>  <SlogP_VSA12>  (128) 
23.468091

>  <SlogP_VSA2>  (128) 
54.650871

>  <SlogP_VSA3>  (128) 
31.577018

>  <SlogP_VSA4>  (128) 
0.0

>  <SlogP_VSA5>  (128) 
6.227901

>  <SlogP_VSA6>  (128) 
12.65464

>  <SlogP_VSA7>  (128) 
0.0

>  <SlogP_VSA8>  (128) 
11.163878

>  <SlogP_VSA9>  (128) 
0.0

>  <EState_VSA1>  (128) 
54.614774

>  <EState_VSA10>  (128) 
43.481846

>  <EState_VSA11>  (128) 
0.0

>  <EState_VSA2>  (128) 
16.981741

>  <EState_VSA3>  (128) 
0.0

>  <EState_VSA4>  (128) 
12.65464

>  <EState_VSA5>  (128) 
4.5671

>  <EState_VSA6>  (128) 
0.0

>  <EState_VSA7>  (128) 
0.0

>  <EState_VSA8>  (128) 
28.096945

>  <EState_VSA9>  (128) 
10.47053

>  <VSA_EState1>  (128) 
50.204863

>  <VSA_EState10>  (128) 
0.0

>  <VSA_EState2>  (128) 
54.927006

>  <VSA_EState3>  (128) 
20.320829

>  <VSA_EState4>  (128) 
5.922478

>  <VSA_EState5>  (128) 
0.019517

>  <VSA_EState6>  (128) 
0.0

>  <VSA_EState7>  (128) 
-3.993378

>  <VSA_EState8>  (128) 
-1.07771

>  <VSA_EState9>  (128) 
-18.073605

>  <FractionCSP3>  (128) 
0.5

>  <HeavyAtomCount>  (128) 
31

>  <NHOHCount>  (128) 
4

>  <NOCount>  (128) 
18

>  <NumAliphaticCarbocycles>  (128) 
0

>  <NumAliphaticHeterocycles>  (128) 
1

>  <NumAliphaticRings>  (128) 
1

>  <NumAromaticCarbocycles>  (128) 
0

>  <NumAromaticHeterocycles>  (128) 
2

>  <NAR>  (128) 
2

>  <NumHAcceptors>  (128) 
18

>  <NumHDonors>  (128) 
3

>  <NumHeteroatoms>  (128) 
21

>  <NumRotatableBonds>  (128) 
8

>  <NumSaturatedCarbocycles>  (128) 
0

>  <NumSaturatedHeterocycles>  (128) 
1

>  <NumSaturatedRings>  (128) 
1

>  <RingCount>  (128) 
3

>  <MolLogP>  (128) 
-4.157

>  <MolMR>  (128) 
86.6005

>  <fr_Al_COO>  (128) 
0

>  <fr_Al_OH>  (128) 
2

>  <fr_Al_OH_noTert>  (128) 
2

>  <fr_ArN>  (128) 
1

>  <fr_Ar_COO>  (128) 
0

>  <fr_Ar_N>  (128) 
4

>  <fr_Ar_NH>  (128) 
0

>  <fr_Ar_OH>  (128) 
0

>  <fr_COO>  (128) 
0

>  <fr_COO2>  (128) 
0

>  <fr_C_O>  (128) 
0

>  <fr_C_O_noCOO>  (128) 
0

>  <fr_C_S>  (128) 
0

>  <fr_HOCCN>  (128) 
0

>  <fr_Imine>  (128) 
0

>  <fr_NH0>  (128) 
4

>  <fr_NH1>  (128) 
0

>  <fr_NH2>  (128) 
1

>  <fr_N_O>  (128) 
0

>  <fr_Ndealkylation1>  (128) 
0

>  <fr_Ndealkylation2>  (128) 
0

>  <fr_Nhpyrrole>  (128) 
0

>  <fr_SH>  (128) 
0

>  <fr_aldehyde>  (128) 
0

>  <fr_alkyl_carbamate>  (128) 
0

>  <fr_alkyl_halide>  (128) 
0

>  <fr_allylic_oxid>  (128) 
0

>  <fr_amide>  (128) 
0

>  <fr_amidine>  (128) 
0

>  <fr_aniline>  (128) 
1

>  <fr_aryl_methyl>  (128) 
0

>  <fr_azide>  (128) 
0

>  <fr_azo>  (128) 
0

>  <fr_barbitur>  (128) 
0

>  <fr_benzene>  (128) 
0

>  <fr_benzodiazepine>  (128) 
0

>  <fr_bicyclic>  (128) 
1

>  <fr_diazo>  (128) 
0

>  <fr_dihydropyridine>  (128) 
0

>  <fr_epoxide>  (128) 
0

>  <fr_ester>  (128) 
0

>  <fr_ether>  (128) 
1

>  <fr_furan>  (128) 
0

>  <fr_guanido>  (128) 
0

>  <fr_halogen>  (128) 
0

>  <fr_hdrzine>  (128) 
0

>  <fr_hdrzone>  (128) 
0

>  <fr_imidazole>  (128) 
1

>  <fr_imide>  (128) 
0

>  <fr_isocyan>  (128) 
0

>  <fr_isothiocyan>  (128) 
0

>  <fr_ketone>  (128) 
0

>  <fr_ketone_Topliss>  (128) 
0

>  <fr_lactam>  (128) 
0

>  <fr_lactone>  (128) 
0

>  <fr_methoxy>  (128) 
0

>  <fr_morpholine>  (128) 
0

>  <fr_nitrile>  (128) 
0

>  <fr_nitro>  (128) 
0

>  <fr_nitro_arom>  (128) 
0

>  <fr_nitro_arom_nonortho>  (128) 
0

>  <fr_nitroso>  (128) 
0

>  <fr_oxazole>  (128) 
0

>  <fr_oxime>  (128) 
0

>  <fr_para_hydroxylation>  (128) 
0

>  <fr_phenol>  (128) 
0

>  <fr_phenol_noOrthoHbond>  (128) 
0

>  <fr_phos_acid>  (128) 
3

>  <fr_phos_ester>  (128) 
1

>  <fr_piperdine>  (128) 
0

>  <fr_piperzine>  (128) 
0

>  <fr_priamide>  (128) 
0

>  <fr_prisulfonamd>  (128) 
0

>  <fr_pyridine>  (128) 
0

>  <fr_quatN>  (128) 
0

>  <fr_sulfide>  (128) 
0

>  <fr_sulfonamd>  (128) 
0

>  <fr_sulfone>  (128) 
0

>  <fr_term_acetylene>  (128) 
0

>  <fr_tetrazole>  (128) 
0

>  <fr_thiazole>  (128) 
0

>  <fr_thiocyan>  (128) 
0

>  <fr_thiophene>  (128) 
0

>  <fr_unbrch_alkane>  (128) 
0

>  <fr_urea>  (128) 
0

>  <NP-Likeness>  (128) 
0.811139

$$$$
ATP
     RDKit          3D

  0  0  0  0  0  0  0  0  0  0999 V3000
M  V30 BEGIN CTAB
M  V30 COUNTS 43 45 0 0 0
M  V30 BEGIN ATOM
M  V30 1 O 4.458051 -0.549692 2.184329 0
M  V30 2 C 3.185165 -1.018996 1.888478 0 CFG=1
M  V30 3 C 2.151562 -0.289438 2.717447 0 CFG=1
M  V30 4 O 2.587765 -0.093020 4.026809 0
M  V30 5 C 2.012863 0.994439 1.960220 0 CFG=2
M  V30 6 N 0.621929 1.451657 1.965626 0
M  V30 7 C -0.169403 1.186978 3.037074 0
M  V30 8 N -1.408033 1.704809 2.816585 0
M  V30 9 C -1.383197 2.293131 1.602194 0
M  V30 10 C -0.117365 2.131241 1.079767 0
M  V30 11 N 0.252831 2.597842 -0.119282 0
M  V30 12 C -0.628049 3.265687 -0.885944 0
M  V30 13 N -1.893337 3.456926 -0.423632 0
M  V30 14 C -2.259898 2.982870 0.788144 0
M  V30 15 N -3.585743 3.184843 1.269376 0
M  V30 16 O 2.493981 0.812049 0.696272 0
M  V30 17 C 2.837818 -0.498716 0.511604 0 CFG=2
M  V30 18 C 1.632035 -1.302937 0.044525 0
M  V30 19 O 1.135567 -0.813049 -1.161444 0
M  V30 20 P -0.192912 -1.811328 -1.539116 0 CFG=2 VAL=5
M  V30 21 O -0.479320 -1.766350 -3.016702 0
M  V30 22 O -1.522987 -1.243639 -0.662576 0 CHG=-1 VAL=1
M  V30 23 O 0.116073 -3.404873 -1.019809 0
M  V30 24 P -1.297393 -4.300885 -1.271927 0 CFG=1 VAL=5
M  V30 25 O -2.420463 -3.649929 -0.529018 0
M  V30 26 O -1.638508 -4.216146 -2.928774 0 CHG=-1 VAL=1
M  V30 27 O -1.138965 -5.884115 -0.747270 0
M  V30 28 P -0.201850 -6.050086 0.625565 0
M  V30 29 O -1.055306 -6.187062 1.878940 0
M  V30 30 O 0.793174 -7.414355 0.434730 0 CHG=-1 VAL=1
M  V30 31 O 0.828910 -4.738283 0.902796 0 CHG=-1 VAL=1
M  V30 32 H 4.728577 0.198453 1.612977 0
M  V30 33 H 3.108112 -2.120577 1.951419 0
M  V30 34 H 1.196890 -0.858526 2.756759 0
M  V30 35 H 2.564617 0.853133 4.289095 0
M  V30 36 H 2.658567 1.738405 2.513310 0
M  V30 37 H -0.048996 0.681264 3.985546 0
M  V30 38 H -0.327779 3.642252 -1.854626 0
M  V30 39 H -3.478432 4.162317 1.671853 0
M  V30 40 H -4.518688 2.681523 1.321313 0
M  V30 41 H 3.687934 -0.617775 -0.192358 0
M  V30 42 H 1.866396 -2.364644 -0.082443 0
M  V30 43 H 0.822775 -1.204780 0.790958 0
M  V30 END ATOM
M  V30 BEGIN BOND
M  V30 1 1 1 2
M  V30 2 1 2 3
M  V30 3 1 3 4
M  V30 4 1 3 5
M  V30 5 1 5 6
M  V30 6 1 6 7
M  V30 7 2 7 8
M  V30 8 1 8 9
M  V30 9 2 9 10
M  V30 10 1 10 11
M  V30 11 2 11 12
M  V30 12 1 12 13
M  V30 13 2 13 14
M  V30 14 1 14 15
M  V30 15 1 5 16
M  V30 16 1 16 17
M  V30 17 1 17 18
M  V30 18 1 18 19
M  V30 19 1 19 20
M  V30 20 2 20 21
M  V30 21 1 20 22 CFG=1
M  V30 22 1 20 23
M  V30 23 1 23 24
M  V30 24 2 24 25
M  V30 25 1 24 26 CFG=3
M  V30 26 1 24 27
M  V30 27 1 27 28
M  V30 28 2 28 29
M  V30 29 1 28 30
M  V30 30 1 28 31
M  V30 31 1 17 2
M  V30 32 1 10 6
M  V30 33 1 14 9
M  V30 34 1 1 32
M  V30 35 1 2 33 CFG=3
M  V30 36 1 3 34 CFG=1
M  V30 37 1 4 35
M  V30 38 1 5 36 CFG=1
M  V30 39 1 7 37
M  V30 40 1 12 38
M  V30 41 1 15 39
M  V30 42 1 15 40
M  V30 43 1 17 41 CFG=3
M  V30 44 1 18 42
M  V30 45 1 18 43
M  V30 END BOND
M  V30 END CTAB
M  END
>  <Dataset>  (129) 
PDB

>  <Ligand_Instance>  (129) 
4DH1_ATP_A_402

>  <PDB_ID>  (129) 
4DH1

>  <Standardized_SMILES>  (129) 
[H]O[C@@]1([H])[C@@]([H])(O[H])[C@]([H])(N2C([H])=NC3=C2N=C([H])N=C3N([H])[H])O[C@]1([H])C([H])([H])O[P@](=O)([O-])O[P@@](=O)([O-])OP(=O)([O-])[O-]

>  <Name>  (129) 
ADENOSINE-5'-TRIPHOSPHATE

>  <Pocket>  (129) 
A

>  <ATP_Site>  (129) 
1.0

>  <Peripheral>  (129) 
0.0

>  <Num_H_Atoms_ProtBoundConf>  (129) 
12.0

>  <Num_Resolved_Atoms>  (129) 
31.0

>  <Num_Not_Resolved_Atoms>  (129) 
0.0

>  <2D_Mol_H>  (129) 
<rdkit.Chem.rdchem.Mol object at 0x72a238da58c0>

>  <MW>  (129) 
503.15

>  <HBA>  (129) 
18

>  <HBD>  (129) 
3

>  <LogP>  (129) 
-4.157

>  <NRB>  (129) 
11

>  <TPSA>  (129) 
290.45

>  <Num_Heavy_Atoms>  (129) 
31

>  <Ro5>  (129) 
[False, False, True, True, False, False]

>  <Ro5_Fulfilled>  (129) 
False

>  <Ro3>  (129) 
[False, False, True, True]

>  <Ro3_Fulfilled>  (129) 
False

>  <Fsp3>  (129) 
0.5

>  <Fsp3_0.42>  (129) 
True

>  <Fsp3_0.45>  (129) 
True

>  <Stereogenic_Carbons>  (129) 
4

>  <C_Atoms>  (129) 
10

>  <FCStereo>  (129) 
0.4

>  <SPS>  (129) 
882

>  <nSPS>  (129) 
28.451613

>  <PBF>  (129) 
1.205103

>  <PBF_0.6>  (129) 
True

>  <nPBF>  (129) 
0.038874

>  <nPBF_0.016>  (129) 
True

>  <PMI1>  (129) 
2900.35281

>  <PMI2>  (129) 
5982.47364

>  <PMI3>  (129) 
7182.547833

>  <NPR1>  (129) 
0.403806

>  <NPR2>  (129) 
0.832918

>  <Sum_NPR>  (129) 
1.236724

>  <Sum_NPR_1.07>  (129) 
True

>  <Sum_NPR_1.2>  (129) 
True

>  <MaxAbsEStateIndex>  (129) 
11.591022

>  <MaxEStateIndex>  (129) 
11.591022

>  <MinAbsEStateIndex>  (129) 
0.019517

>  <MinEStateIndex>  (129) 
-6.13789

>  <qed>  (129) 
0.28788

>  <MolWt>  (129) 
503.15

>  <HeavyAtomMolWt>  (129) 
491.054

>  <ExactMolWt>  (129) 
502.96664

>  <NumValenceElectrons>  (129) 
174

>  <NumRadicalElectrons>  (129) 
0

>  <MaxPartialCharge>  (129) 
0.277775

>  <MinPartialCharge>  (129) 
-0.789509

>  <MaxAbsPartialCharge>  (129) 
0.789509

>  <MinAbsPartialCharge>  (129) 
0.277775

>  <FpDensityMorgan1>  (129) 
1.064516

>  <FpDensityMorgan2>  (129) 
1.741935

>  <FpDensityMorgan3>  (129) 
2.387097

>  <BCUT2D_MWHI>  (129) 
31.29809

>  <BCUT2D_MWLOW>  (129) 
10.128388

>  <BCUT2D_CHGHI>  (129) 
2.446414

>  <BCUT2D_CHGLO>  (129) 
-2.372117

>  <BCUT2D_LOGPHI>  (129) 
2.601149

>  <BCUT2D_LOGPLOW>  (129) 
-2.337005

>  <BCUT2D_MRHI>  (129) 
7.643939

>  <BCUT2D_MRLOW>  (129) 
-0.338932

>  <AvgIpc>  (129) 
3.133568

>  <BalabanJ>  (129) 
1.689409

>  <BertzCT>  (129) 
1104.784407

>  <Chi0>  (129) 
23.18987

>  <Chi0n>  (129) 
14.764212

>  <Chi0v>  (129) 
17.447494

>  <Chi1>  (129) 
14.190889

>  <Chi1n>  (129) 
7.849713

>  <Chi1v>  (129) 
12.231493

>  <Chi2n>  (129) 
5.929951

>  <Chi2v>  (129) 
10.177826

>  <Chi3n>  (129) 
3.795354

>  <Chi3v>  (129) 
7.460653

>  <Chi4n>  (129) 
2.601107

>  <Chi4v>  (129) 
5.466344

>  <HallKierAlpha>  (129) 
-1.36

>  <Ipc>  (129) 
3947352.346056

>  <Kappa1>  (129) 
24.285736

>  <Kappa2>  (129) 
8.532213

>  <Kappa3>  (129) 
5.714341

>  <LabuteASA>  (129) 
171.218329

>  <PEOE_VSA1>  (129) 
49.346027

>  <PEOE_VSA10>  (129) 
30.15592

>  <PEOE_VSA11>  (129) 
17.692941

>  <PEOE_VSA12>  (129) 
0.0

>  <PEOE_VSA13>  (129) 
15.645394

>  <PEOE_VSA14>  (129) 
0.0

>  <PEOE_VSA2>  (129) 
18.007828

>  <PEOE_VSA3>  (129) 
19.262567

>  <PEOE_VSA4>  (129) 
0.0

>  <PEOE_VSA5>  (129) 
0.0

>  <PEOE_VSA6>  (129) 
0.0

>  <PEOE_VSA7>  (129) 
0.0

>  <PEOE_VSA8>  (129) 
0.0

>  <PEOE_VSA9>  (129) 
20.756899

>  <SMR_VSA1>  (129) 
61.363719

>  <SMR_VSA10>  (129) 
40.449832

>  <SMR_VSA2>  (129) 
0.0

>  <SMR_VSA3>  (129) 
19.519035

>  <SMR_VSA4>  (129) 
0.0

>  <SMR_VSA5>  (129) 
24.5398

>  <SMR_VSA6>  (129) 
12.340549

>  <SMR_VSA7>  (129) 
12.65464

>  <SMR_VSA8>  (129) 
0.0

>  <SMR_VSA9>  (129) 
0.0

>  <SlogP_VSA1>  (129) 
25.307314

>  <SlogP_VSA10>  (129) 
5.817863

>  <SlogP_VSA11>  (129) 
0.0

>  <SlogP_VSA12>  (129) 
23.468091

>  <SlogP_VSA2>  (129) 
54.650871

>  <SlogP_VSA3>  (129) 
31.577018

>  <SlogP_VSA4>  (129) 
0.0

>  <SlogP_VSA5>  (129) 
6.227901

>  <SlogP_VSA6>  (129) 
12.65464

>  <SlogP_VSA7>  (129) 
0.0

>  <SlogP_VSA8>  (129) 
11.163878

>  <SlogP_VSA9>  (129) 
0.0

>  <EState_VSA1>  (129) 
54.614774

>  <EState_VSA10>  (129) 
43.481846

>  <EState_VSA11>  (129) 
0.0

>  <EState_VSA2>  (129) 
16.981741

>  <EState_VSA3>  (129) 
0.0

>  <EState_VSA4>  (129) 
12.65464

>  <EState_VSA5>  (129) 
4.5671

>  <EState_VSA6>  (129) 
0.0

>  <EState_VSA7>  (129) 
0.0

>  <EState_VSA8>  (129) 
28.096945

>  <EState_VSA9>  (129) 
10.47053

>  <VSA_EState1>  (129) 
50.204863

>  <VSA_EState10>  (129) 
0.0

>  <VSA_EState2>  (129) 
54.927006

>  <VSA_EState3>  (129) 
20.320829

>  <VSA_EState4>  (129) 
5.922478

>  <VSA_EState5>  (129) 
0.019517

>  <VSA_EState6>  (129) 
0.0

>  <VSA_EState7>  (129) 
-3.993378

>  <VSA_EState8>  (129) 
-1.07771

>  <VSA_EState9>  (129) 
-18.073605

>  <FractionCSP3>  (129) 
0.5

>  <HeavyAtomCount>  (129) 
31

>  <NHOHCount>  (129) 
4

>  <NOCount>  (129) 
18

>  <NumAliphaticCarbocycles>  (129) 
0

>  <NumAliphaticHeterocycles>  (129) 
1

>  <NumAliphaticRings>  (129) 
1

>  <NumAromaticCarbocycles>  (129) 
0

>  <NumAromaticHeterocycles>  (129) 
2

>  <NAR>  (129) 
2

>  <NumHAcceptors>  (129) 
18

>  <NumHDonors>  (129) 
3

>  <NumHeteroatoms>  (129) 
21

>  <NumRotatableBonds>  (129) 
8

>  <NumSaturatedCarbocycles>  (129) 
0

>  <NumSaturatedHeterocycles>  (129) 
1

>  <NumSaturatedRings>  (129) 
1

>  <RingCount>  (129) 
3

>  <MolLogP>  (129) 
-4.157

>  <MolMR>  (129) 
86.6005

>  <fr_Al_COO>  (129) 
0

>  <fr_Al_OH>  (129) 
2

>  <fr_Al_OH_noTert>  (129) 
2

>  <fr_ArN>  (129) 
1

>  <fr_Ar_COO>  (129) 
0

>  <fr_Ar_N>  (129) 
4

>  <fr_Ar_NH>  (129) 
0

>  <fr_Ar_OH>  (129) 
0

>  <fr_COO>  (129) 
0

>  <fr_COO2>  (129) 
0

>  <fr_C_O>  (129) 
0

>  <fr_C_O_noCOO>  (129) 
0

>  <fr_C_S>  (129) 
0

>  <fr_HOCCN>  (129) 
0

>  <fr_Imine>  (129) 
0

>  <fr_NH0>  (129) 
4

>  <fr_NH1>  (129) 
0

>  <fr_NH2>  (129) 
1

>  <fr_N_O>  (129) 
0

>  <fr_Ndealkylation1>  (129) 
0

>  <fr_Ndealkylation2>  (129) 
0

>  <fr_Nhpyrrole>  (129) 
0

>  <fr_SH>  (129) 
0

>  <fr_aldehyde>  (129) 
0

>  <fr_alkyl_carbamate>  (129) 
0

>  <fr_alkyl_halide>  (129) 
0

>  <fr_allylic_oxid>  (129) 
0

>  <fr_amide>  (129) 
0

>  <fr_amidine>  (129) 
0

>  <fr_aniline>  (129) 
1

>  <fr_aryl_methyl>  (129) 
0

>  <fr_azide>  (129) 
0

>  <fr_azo>  (129) 
0

>  <fr_barbitur>  (129) 
0

>  <fr_benzene>  (129) 
0

>  <fr_benzodiazepine>  (129) 
0

>  <fr_bicyclic>  (129) 
1

>  <fr_diazo>  (129) 
0

>  <fr_dihydropyridine>  (129) 
0

>  <fr_epoxide>  (129) 
0

>  <fr_ester>  (129) 
0

>  <fr_ether>  (129) 
1

>  <fr_furan>  (129) 
0

>  <fr_guanido>  (129) 
0

>  <fr_halogen>  (129) 
0

>  <fr_hdrzine>  (129) 
0

>  <fr_hdrzone>  (129) 
0

>  <fr_imidazole>  (129) 
1

>  <fr_imide>  (129) 
0

>  <fr_isocyan>  (129) 
0

>  <fr_isothiocyan>  (129) 
0

>  <fr_ketone>  (129) 
0

>  <fr_ketone_Topliss>  (129) 
0

>  <fr_lactam>  (129) 
0

>  <fr_lactone>  (129) 
0

>  <fr_methoxy>  (129) 
0

>  <fr_morpholine>  (129) 
0

>  <fr_nitrile>  (129) 
0

>  <fr_nitro>  (129) 
0

>  <fr_nitro_arom>  (129) 
0

>  <fr_nitro_arom_nonortho>  (129) 
0

>  <fr_nitroso>  (129) 
0

>  <fr_oxazole>  (129) 
0

>  <fr_oxime>  (129) 
0

>  <fr_para_hydroxylation>  (129) 
0

>  <fr_phenol>  (129) 
0

>  <fr_phenol_noOrthoHbond>  (129) 
0

>  <fr_phos_acid>  (129) 
3

>  <fr_phos_ester>  (129) 
1

>  <fr_piperdine>  (129) 
0

>  <fr_piperzine>  (129) 
0

>  <fr_priamide>  (129) 
0

>  <fr_prisulfonamd>  (129) 
0

>  <fr_pyridine>  (129) 
0

>  <fr_quatN>  (129) 
0

>  <fr_sulfide>  (129) 
0

>  <fr_sulfonamd>  (129) 
0

>  <fr_sulfone>  (129) 
0

>  <fr_term_acetylene>  (129) 
0

>  <fr_tetrazole>  (129) 
0

>  <fr_thiazole>  (129) 
0

>  <fr_thiocyan>  (129) 
0

>  <fr_thiophene>  (129) 
0

>  <fr_unbrch_alkane>  (129) 
0

>  <fr_urea>  (129) 
0

>  <NP-Likeness>  (129) 
0.811139

$$$$
ATP
     RDKit          3D

  0  0  0  0  0  0  0  0  0  0999 V3000
M  V30 BEGIN CTAB
M  V30 COUNTS 43 45 0 0 0
M  V30 BEGIN ATOM
M  V30 1 O 4.458051 -0.549692 2.184329 0
M  V30 2 C 3.185165 -1.018996 1.888478 0 CFG=1
M  V30 3 C 2.151562 -0.289438 2.717447 0 CFG=1
M  V30 4 O 2.587765 -0.093020 4.026809 0
M  V30 5 C 2.012863 0.994439 1.960220 0 CFG=2
M  V30 6 N 0.621929 1.451657 1.965626 0
M  V30 7 C -0.169403 1.186978 3.037074 0
M  V30 8 N -1.408033 1.704809 2.816585 0
M  V30 9 C -1.383197 2.293131 1.602194 0
M  V30 10 C -0.117365 2.131241 1.079767 0
M  V30 11 N 0.252831 2.597842 -0.119282 0
M  V30 12 C -0.628049 3.265687 -0.885944 0
M  V30 13 N -1.893337 3.456926 -0.423632 0
M  V30 14 C -2.259898 2.982870 0.788144 0
M  V30 15 N -3.585743 3.184843 1.269376 0
M  V30 16 O 2.493981 0.812049 0.696272 0
M  V30 17 C 2.837818 -0.498716 0.511604 0 CFG=2
M  V30 18 C 1.632035 -1.302937 0.044525 0
M  V30 19 O 1.135567 -0.813049 -1.161444 0
M  V30 20 P -0.192912 -1.811328 -1.539116 0 CFG=2 VAL=5
M  V30 21 O -0.479320 -1.766350 -3.016702 0
M  V30 22 O -1.522987 -1.243639 -0.662576 0 CHG=-1 VAL=1
M  V30 23 O 0.116073 -3.404873 -1.019809 0
M  V30 24 P -1.297393 -4.300885 -1.271927 0 CFG=1 VAL=5
M  V30 25 O -2.420463 -3.649929 -0.529018 0
M  V30 26 O -1.638508 -4.216146 -2.928774 0 CHG=-1 VAL=1
M  V30 27 O -1.138965 -5.884115 -0.747270 0
M  V30 28 P -0.201850 -6.050086 0.625565 0
M  V30 29 O -1.055306 -6.187062 1.878940 0
M  V30 30 O 0.793174 -7.414355 0.434730 0 CHG=-1 VAL=1
M  V30 31 O 0.828910 -4.738283 0.902796 0 CHG=-1 VAL=1
M  V30 32 H 4.728577 0.198453 1.612977 0
M  V30 33 H 3.108112 -2.120577 1.951419 0
M  V30 34 H 1.196890 -0.858526 2.756759 0
M  V30 35 H 2.564617 0.853133 4.289095 0
M  V30 36 H 2.658567 1.738405 2.513310 0
M  V30 37 H -0.048996 0.681264 3.985546 0
M  V30 38 H -0.327779 3.642252 -1.854626 0
M  V30 39 H -3.478432 4.162317 1.671853 0
M  V30 40 H -4.518688 2.681523 1.321313 0
M  V30 41 H 3.687934 -0.617775 -0.192358 0
M  V30 42 H 1.866396 -2.364644 -0.082443 0
M  V30 43 H 0.822775 -1.204780 0.790958 0
M  V30 END ATOM
M  V30 BEGIN BOND
M  V30 1 1 1 2
M  V30 2 1 2 3
M  V30 3 1 3 4
M  V30 4 1 3 5
M  V30 5 1 5 6
M  V30 6 1 6 7
M  V30 7 2 7 8
M  V30 8 1 8 9
M  V30 9 2 9 10
M  V30 10 1 10 11
M  V30 11 2 11 12
M  V30 12 1 12 13
M  V30 13 2 13 14
M  V30 14 1 14 15
M  V30 15 1 5 16
M  V30 16 1 16 17
M  V30 17 1 17 18
M  V30 18 1 18 19
M  V30 19 1 19 20
M  V30 20 2 20 21
M  V30 21 1 20 22 CFG=1
M  V30 22 1 20 23
M  V30 23 1 23 24
M  V30 24 2 24 25
M  V30 25 1 24 26 CFG=3
M  V30 26 1 24 27
M  V30 27 1 27 28
M  V30 28 2 28 29
M  V30 29 1 28 30
M  V30 30 1 28 31
M  V30 31 1 17 2
M  V30 32 1 10 6
M  V30 33 1 14 9
M  V30 34 1 1 32
M  V30 35 1 2 33 CFG=3
M  V30 36 1 3 34 CFG=1
M  V30 37 1 4 35
M  V30 38 1 5 36 CFG=1
M  V30 39 1 7 37
M  V30 40 1 12 38
M  V30 41 1 15 39
M  V30 42 1 15 40
M  V30 43 1 17 41 CFG=3
M  V30 44 1 18 42
M  V30 45 1 18 43
M  V30 END BOND
M  V30 END CTAB
M  END
>  <Dataset>  (130) 
PDB

>  <Ligand_Instance>  (130) 
4DH3_ATP_A_403

>  <PDB_ID>  (130) 
4DH3

>  <Standardized_SMILES>  (130) 
[H]O[C@@]1([H])[C@@]([H])(O[H])[C@]([H])(N2C([H])=NC3=C2N=C([H])N=C3N([H])[H])O[C@]1([H])C([H])([H])O[P@](=O)([O-])O[P@@](=O)([O-])OP(=O)([O-])[O-]

>  <Name>  (130) 
ADENOSINE-5'-TRIPHOSPHATE

>  <Pocket>  (130) 
A

>  <ATP_Site>  (130) 
1.0

>  <Peripheral>  (130) 
0.0

>  <Num_H_Atoms_ProtBoundConf>  (130) 
12.0

>  <Num_Resolved_Atoms>  (130) 
31.0

>  <Num_Not_Resolved_Atoms>  (130) 
0.0

>  <2D_Mol_H>  (130) 
<rdkit.Chem.rdchem.Mol object at 0x72a238da59a0>

>  <MW>  (130) 
503.15

>  <HBA>  (130) 
18

>  <HBD>  (130) 
3

>  <LogP>  (130) 
-4.157

>  <NRB>  (130) 
11

>  <TPSA>  (130) 
290.45

>  <Num_Heavy_Atoms>  (130) 
31

>  <Ro5>  (130) 
[False, False, True, True, False, False]

>  <Ro5_Fulfilled>  (130) 
False

>  <Ro3>  (130) 
[False, False, True, True]

>  <Ro3_Fulfilled>  (130) 
False

>  <Fsp3>  (130) 
0.5

>  <Fsp3_0.42>  (130) 
True

>  <Fsp3_0.45>  (130) 
True

>  <Stereogenic_Carbons>  (130) 
4

>  <C_Atoms>  (130) 
10

>  <FCStereo>  (130) 
0.4

>  <SPS>  (130) 
882

>  <nSPS>  (130) 
28.451613

>  <PBF>  (130) 
1.205103

>  <PBF_0.6>  (130) 
True

>  <nPBF>  (130) 
0.038874

>  <nPBF_0.016>  (130) 
True

>  <PMI1>  (130) 
2900.35281

>  <PMI2>  (130) 
5982.47364

>  <PMI3>  (130) 
7182.547833

>  <NPR1>  (130) 
0.403806

>  <NPR2>  (130) 
0.832918

>  <Sum_NPR>  (130) 
1.236724

>  <Sum_NPR_1.07>  (130) 
True

>  <Sum_NPR_1.2>  (130) 
True

>  <MaxAbsEStateIndex>  (130) 
11.591022

>  <MaxEStateIndex>  (130) 
11.591022

>  <MinAbsEStateIndex>  (130) 
0.019517

>  <MinEStateIndex>  (130) 
-6.13789

>  <qed>  (130) 
0.28788

>  <MolWt>  (130) 
503.15

>  <HeavyAtomMolWt>  (130) 
491.054

>  <ExactMolWt>  (130) 
502.96664

>  <NumValenceElectrons>  (130) 
174

>  <NumRadicalElectrons>  (130) 
0

>  <MaxPartialCharge>  (130) 
0.277775

>  <MinPartialCharge>  (130) 
-0.789509

>  <MaxAbsPartialCharge>  (130) 
0.789509

>  <MinAbsPartialCharge>  (130) 
0.277775

>  <FpDensityMorgan1>  (130) 
1.064516

>  <FpDensityMorgan2>  (130) 
1.741935

>  <FpDensityMorgan3>  (130) 
2.387097

>  <BCUT2D_MWHI>  (130) 
31.29809

>  <BCUT2D_MWLOW>  (130) 
10.128388

>  <BCUT2D_CHGHI>  (130) 
2.446414

>  <BCUT2D_CHGLO>  (130) 
-2.372117

>  <BCUT2D_LOGPHI>  (130) 
2.601149

>  <BCUT2D_LOGPLOW>  (130) 
-2.337005

>  <BCUT2D_MRHI>  (130) 
7.643939

>  <BCUT2D_MRLOW>  (130) 
-0.338932

>  <AvgIpc>  (130) 
3.133568

>  <BalabanJ>  (130) 
1.689409

>  <BertzCT>  (130) 
1104.784407

>  <Chi0>  (130) 
23.18987

>  <Chi0n>  (130) 
14.764212

>  <Chi0v>  (130) 
17.447494

>  <Chi1>  (130) 
14.190889

>  <Chi1n>  (130) 
7.849713

>  <Chi1v>  (130) 
12.231493

>  <Chi2n>  (130) 
5.929951

>  <Chi2v>  (130) 
10.177826

>  <Chi3n>  (130) 
3.795354

>  <Chi3v>  (130) 
7.460653

>  <Chi4n>  (130) 
2.601107

>  <Chi4v>  (130) 
5.466344

>  <HallKierAlpha>  (130) 
-1.36

>  <Ipc>  (130) 
3947352.346056

>  <Kappa1>  (130) 
24.285736

>  <Kappa2>  (130) 
8.532213

>  <Kappa3>  (130) 
5.714341

>  <LabuteASA>  (130) 
171.218329

>  <PEOE_VSA1>  (130) 
49.346027

>  <PEOE_VSA10>  (130) 
30.15592

>  <PEOE_VSA11>  (130) 
17.692941

>  <PEOE_VSA12>  (130) 
0.0

>  <PEOE_VSA13>  (130) 
15.645394

>  <PEOE_VSA14>  (130) 
0.0

>  <PEOE_VSA2>  (130) 
18.007828

>  <PEOE_VSA3>  (130) 
19.262567

>  <PEOE_VSA4>  (130) 
0.0

>  <PEOE_VSA5>  (130) 
0.0

>  <PEOE_VSA6>  (130) 
0.0

>  <PEOE_VSA7>  (130) 
0.0

>  <PEOE_VSA8>  (130) 
0.0

>  <PEOE_VSA9>  (130) 
20.756899

>  <SMR_VSA1>  (130) 
61.363719

>  <SMR_VSA10>  (130) 
40.449832

>  <SMR_VSA2>  (130) 
0.0

>  <SMR_VSA3>  (130) 
19.519035

>  <SMR_VSA4>  (130) 
0.0

>  <SMR_VSA5>  (130) 
24.5398

>  <SMR_VSA6>  (130) 
12.340549

>  <SMR_VSA7>  (130) 
12.65464

>  <SMR_VSA8>  (130) 
0.0

>  <SMR_VSA9>  (130) 
0.0

>  <SlogP_VSA1>  (130) 
25.307314

>  <SlogP_VSA10>  (130) 
5.817863

>  <SlogP_VSA11>  (130) 
0.0

>  <SlogP_VSA12>  (130) 
23.468091

>  <SlogP_VSA2>  (130) 
54.650871

>  <SlogP_VSA3>  (130) 
31.577018

>  <SlogP_VSA4>  (130) 
0.0

>  <SlogP_VSA5>  (130) 
6.227901

>  <SlogP_VSA6>  (130) 
12.65464

>  <SlogP_VSA7>  (130) 
0.0

>  <SlogP_VSA8>  (130) 
11.163878

>  <SlogP_VSA9>  (130) 
0.0

>  <EState_VSA1>  (130) 
54.614774

>  <EState_VSA10>  (130) 
43.481846

>  <EState_VSA11>  (130) 
0.0

>  <EState_VSA2>  (130) 
16.981741

>  <EState_VSA3>  (130) 
0.0

>  <EState_VSA4>  (130) 
12.65464

>  <EState_VSA5>  (130) 
4.5671

>  <EState_VSA6>  (130) 
0.0

>  <EState_VSA7>  (130) 
0.0

>  <EState_VSA8>  (130) 
28.096945

>  <EState_VSA9>  (130) 
10.47053

>  <VSA_EState1>  (130) 
50.204863

>  <VSA_EState10>  (130) 
0.0

>  <VSA_EState2>  (130) 
54.927006

>  <VSA_EState3>  (130) 
20.320829

>  <VSA_EState4>  (130) 
5.922478

>  <VSA_EState5>  (130) 
0.019517

>  <VSA_EState6>  (130) 
0.0

>  <VSA_EState7>  (130) 
-3.993378

>  <VSA_EState8>  (130) 
-1.07771

>  <VSA_EState9>  (130) 
-18.073605

>  <FractionCSP3>  (130) 
0.5

>  <HeavyAtomCount>  (130) 
31

>  <NHOHCount>  (130) 
4

>  <NOCount>  (130) 
18

>  <NumAliphaticCarbocycles>  (130) 
0

>  <NumAliphaticHeterocycles>  (130) 
1

>  <NumAliphaticRings>  (130) 
1

>  <NumAromaticCarbocycles>  (130) 
0

>  <NumAromaticHeterocycles>  (130) 
2

>  <NAR>  (130) 
2

>  <NumHAcceptors>  (130) 
18

>  <NumHDonors>  (130) 
3

>  <NumHeteroatoms>  (130) 
21

>  <NumRotatableBonds>  (130) 
8

>  <NumSaturatedCarbocycles>  (130) 
0

>  <NumSaturatedHeterocycles>  (130) 
1

>  <NumSaturatedRings>  (130) 
1

>  <RingCount>  (130) 
3

>  <MolLogP>  (130) 
-4.157

>  <MolMR>  (130) 
86.6005

>  <fr_Al_COO>  (130) 
0

>  <fr_Al_OH>  (130) 
2

>  <fr_Al_OH_noTert>  (130) 
2

>  <fr_ArN>  (130) 
1

>  <fr_Ar_COO>  (130) 
0

>  <fr_Ar_N>  (130) 
4

>  <fr_Ar_NH>  (130) 
0

>  <fr_Ar_OH>  (130) 
0

>  <fr_COO>  (130) 
0

>  <fr_COO2>  (130) 
0

>  <fr_C_O>  (130) 
0

>  <fr_C_O_noCOO>  (130) 
0

>  <fr_C_S>  (130) 
0

>  <fr_HOCCN>  (130) 
0

>  <fr_Imine>  (130) 
0

>  <fr_NH0>  (130) 
4

>  <fr_NH1>  (130) 
0

>  <fr_NH2>  (130) 
1

>  <fr_N_O>  (130) 
0

>  <fr_Ndealkylation1>  (130) 
0

>  <fr_Ndealkylation2>  (130) 
0

>  <fr_Nhpyrrole>  (130) 
0

>  <fr_SH>  (130) 
0

>  <fr_aldehyde>  (130) 
0

>  <fr_alkyl_carbamate>  (130) 
0

>  <fr_alkyl_halide>  (130) 
0

>  <fr_allylic_oxid>  (130) 
0

>  <fr_amide>  (130) 
0

>  <fr_amidine>  (130) 
0

>  <fr_aniline>  (130) 
1

>  <fr_aryl_methyl>  (130) 
0

>  <fr_azide>  (130) 
0

>  <fr_azo>  (130) 
0

>  <fr_barbitur>  (130) 
0

>  <fr_benzene>  (130) 
0

>  <fr_benzodiazepine>  (130) 
0

>  <fr_bicyclic>  (130) 
1

>  <fr_diazo>  (130) 
0

>  <fr_dihydropyridine>  (130) 
0

>  <fr_epoxide>  (130) 
0

>  <fr_ester>  (130) 
0

>  <fr_ether>  (130) 
1

>  <fr_furan>  (130) 
0

>  <fr_guanido>  (130) 
0

>  <fr_halogen>  (130) 
0

>  <fr_hdrzine>  (130) 
0

>  <fr_hdrzone>  (130) 
0

>  <fr_imidazole>  (130) 
1

>  <fr_imide>  (130) 
0

>  <fr_isocyan>  (130) 
0

>  <fr_isothiocyan>  (130) 
0

>  <fr_ketone>  (130) 
0

>  <fr_ketone_Topliss>  (130) 
0

>  <fr_lactam>  (130) 
0

>  <fr_lactone>  (130) 
0

>  <fr_methoxy>  (130) 
0

>  <fr_morpholine>  (130) 
0

>  <fr_nitrile>  (130) 
0

>  <fr_nitro>  (130) 
0

>  <fr_nitro_arom>  (130) 
0

>  <fr_nitro_arom_nonortho>  (130) 
0

>  <fr_nitroso>  (130) 
0

>  <fr_oxazole>  (130) 
0

>  <fr_oxime>  (130) 
0

>  <fr_para_hydroxylation>  (130) 
0

>  <fr_phenol>  (130) 
0

>  <fr_phenol_noOrthoHbond>  (130) 
0

>  <fr_phos_acid>  (130) 
3

>  <fr_phos_ester>  (130) 
1

>  <fr_piperdine>  (130) 
0

>  <fr_piperzine>  (130) 
0

>  <fr_priamide>  (130) 
0

>  <fr_prisulfonamd>  (130) 
0

>  <fr_pyridine>  (130) 
0

>  <fr_quatN>  (130) 
0

>  <fr_sulfide>  (130) 
0

>  <fr_sulfonamd>  (130) 
0

>  <fr_sulfone>  (130) 
0

>  <fr_term_acetylene>  (130) 
0

>  <fr_tetrazole>  (130) 
0

>  <fr_thiazole>  (130) 
0

>  <fr_thiocyan>  (130) 
0

>  <fr_thiophene>  (130) 
0

>  <fr_unbrch_alkane>  (130) 
0

>  <fr_urea>  (130) 
0

>  <NP-Likeness>  (130) 
0.811139

$$$$
ATP
     RDKit          3D

  0  0  0  0  0  0  0  0  0  0999 V3000
M  V30 BEGIN CTAB
M  V30 COUNTS 43 45 0 0 0
M  V30 BEGIN ATOM
M  V30 1 O 3.188255 -1.020957 3.641634 0
M  V30 2 C 2.049785 -0.941570 2.851198 0 CFG=1
M  V30 3 C 1.626283 0.512919 2.808569 0 CFG=1
M  V30 4 O 1.999465 1.195389 3.959427 0
M  V30 5 C 2.432755 0.965317 1.601380 0 CFG=2
M  V30 6 N 2.067511 2.283941 1.165361 0
M  V30 7 C 2.755363 3.446299 0.995372 0
M  V30 8 N 1.951334 4.416447 0.560937 0
M  V30 9 C 0.729727 3.864466 0.451676 0
M  V30 10 C 0.778196 2.519373 0.827654 0
M  V30 11 N -0.374838 1.799566 0.778582 0
M  V30 12 C -1.510205 2.394304 0.375875 0
M  V30 13 N -1.553999 3.705930 0.009989 0
M  V30 14 C -0.441920 4.452111 0.043199 0
M  V30 15 N -0.608737 5.795494 -0.357417 0
M  V30 16 O 2.123741 -0.031057 0.705183 0
M  V30 17 C 2.433345 -1.180169 1.408182 0 CFG=2
M  V30 18 C 1.706107 -2.397716 0.905971 0
M  V30 19 O 0.341839 -2.293678 0.973515 0
M  V30 20 P -0.354247 -3.694349 0.393587 0 CFG=1 VAL=5
M  V30 21 O -1.314362 -3.299812 -0.722496 0
M  V30 22 O 0.812324 -4.749842 -0.268654 0 CHG=-1 VAL=1
M  V30 23 O -1.245256 -4.558767 1.510207 0
M  V30 24 P -2.298706 -5.573228 0.625616 0 CFG=2 VAL=5
M  V30 25 O -3.636302 -4.880345 0.612581 0
M  V30 26 O -2.419120 -7.100945 1.344228 0 CHG=-1 VAL=1
M  V30 27 O -1.679875 -5.801830 -0.933552 0
M  V30 28 P -2.868522 -5.999652 -2.096520 0
M  V30 29 O -3.300016 -4.670685 -2.698696 0
M  V30 30 O -2.195683 -6.959338 -3.330175 0 CHG=-1 VAL=1
M  V30 31 O -4.254911 -6.734769 -1.453516 0 CHG=-1 VAL=1
M  V30 32 H 3.671049 -0.140143 3.700450 0
M  V30 33 H 1.241976 -1.608024 3.199914 0
M  V30 34 H 0.550930 0.558192 2.601148 0
M  V30 35 H 2.151830 2.143272 3.674806 0
M  V30 36 H 3.517084 0.870385 1.856814 0
M  V30 37 H 3.826729 3.477269 1.214380 0
M  V30 38 H -2.335747 1.692011 0.391555 0
M  V30 39 H 0.002940 5.802461 -1.214550 0
M  V30 40 H -1.186607 6.558653 0.089389 0
M  V30 41 H 3.529016 -1.316402 1.305827 0
M  V30 42 H 2.069758 -2.600520 -0.132208 0
M  V30 43 H 1.996678 -3.279381 1.512368 0
M  V30 END ATOM
M  V30 BEGIN BOND
M  V30 1 1 1 2
M  V30 2 1 2 3
M  V30 3 1 3 4
M  V30 4 1 3 5
M  V30 5 1 5 6
M  V30 6 1 6 7
M  V30 7 2 7 8
M  V30 8 1 8 9
M  V30 9 2 9 10
M  V30 10 1 10 11
M  V30 11 2 11 12
M  V30 12 1 12 13
M  V30 13 2 13 14
M  V30 14 1 14 15
M  V30 15 1 5 16
M  V30 16 1 16 17
M  V30 17 1 17 18
M  V30 18 1 18 19
M  V30 19 1 19 20
M  V30 20 2 20 21
M  V30 21 1 20 22 CFG=3
M  V30 22 1 20 23
M  V30 23 1 23 24
M  V30 24 2 24 25
M  V30 25 1 24 26 CFG=1
M  V30 26 1 24 27
M  V30 27 1 27 28
M  V30 28 2 28 29
M  V30 29 1 28 30
M  V30 30 1 28 31
M  V30 31 1 17 2
M  V30 32 1 10 6
M  V30 33 1 14 9
M  V30 34 1 1 32
M  V30 35 1 2 33 CFG=1
M  V30 36 1 3 34 CFG=3
M  V30 37 1 4 35
M  V30 38 1 5 36 CFG=1
M  V30 39 1 7 37
M  V30 40 1 12 38
M  V30 41 1 15 39
M  V30 42 1 15 40
M  V30 43 1 17 41 CFG=1
M  V30 44 1 18 42
M  V30 45 1 18 43
M  V30 END BOND
M  V30 END CTAB
M  END
>  <Dataset>  (131) 
PDB

>  <Ligand_Instance>  (131) 
4WB5_ATP_A_401

>  <PDB_ID>  (131) 
4WB5

>  <Standardized_SMILES>  (131) 
[H]O[C@@]1([H])[C@@]([H])(O[H])[C@]([H])(N2C([H])=NC3=C2N=C([H])N=C3N([H])[H])O[C@]1([H])C([H])([H])O[P@@](=O)([O-])O[P@](=O)([O-])OP(=O)([O-])[O-]

>  <Name>  (131) 
ADENOSINE-5'-TRIPHOSPHATE

>  <Pocket>  (131) 
A

>  <ATP_Site>  (131) 
1.0

>  <Peripheral>  (131) 
0.0

>  <Num_H_Atoms_ProtBoundConf>  (131) 
12.0

>  <Num_Resolved_Atoms>  (131) 
31.0

>  <Num_Not_Resolved_Atoms>  (131) 
0.0

>  <2D_Mol_H>  (131) 
<rdkit.Chem.rdchem.Mol object at 0x72a238da5a80>

>  <MW>  (131) 
503.15

>  <HBA>  (131) 
18

>  <HBD>  (131) 
3

>  <LogP>  (131) 
-4.157

>  <NRB>  (131) 
11

>  <TPSA>  (131) 
290.45

>  <Num_Heavy_Atoms>  (131) 
31

>  <Ro5>  (131) 
[False, False, True, True, False, False]

>  <Ro5_Fulfilled>  (131) 
False

>  <Ro3>  (131) 
[False, False, True, True]

>  <Ro3_Fulfilled>  (131) 
False

>  <Fsp3>  (131) 
0.5

>  <Fsp3_0.42>  (131) 
True

>  <Fsp3_0.45>  (131) 
True

>  <Stereogenic_Carbons>  (131) 
4

>  <C_Atoms>  (131) 
10

>  <FCStereo>  (131) 
0.4

>  <SPS>  (131) 
882

>  <nSPS>  (131) 
28.451613

>  <PBF>  (131) 
0.907674

>  <PBF_0.6>  (131) 
True

>  <nPBF>  (131) 
0.02928

>  <nPBF_0.016>  (131) 
True

>  <PMI1>  (131) 
2253.925528

>  <PMI2>  (131) 
9408.085409

>  <PMI3>  (131) 
10689.805373

>  <NPR1>  (131) 
0.210848

>  <NPR2>  (131) 
0.880099

>  <Sum_NPR>  (131) 
1.090947

>  <Sum_NPR_1.07>  (131) 
True

>  <Sum_NPR_1.2>  (131) 
False

>  <MaxAbsEStateIndex>  (131) 
11.591022

>  <MaxEStateIndex>  (131) 
11.591022

>  <MinAbsEStateIndex>  (131) 
0.019517

>  <MinEStateIndex>  (131) 
-6.13789

>  <qed>  (131) 
0.28788

>  <MolWt>  (131) 
503.15

>  <HeavyAtomMolWt>  (131) 
491.054

>  <ExactMolWt>  (131) 
502.96664

>  <NumValenceElectrons>  (131) 
174

>  <NumRadicalElectrons>  (131) 
0

>  <MaxPartialCharge>  (131) 
0.277775

>  <MinPartialCharge>  (131) 
-0.789509

>  <MaxAbsPartialCharge>  (131) 
0.789509

>  <MinAbsPartialCharge>  (131) 
0.277775

>  <FpDensityMorgan1>  (131) 
1.064516

>  <FpDensityMorgan2>  (131) 
1.741935

>  <FpDensityMorgan3>  (131) 
2.387097

>  <BCUT2D_MWHI>  (131) 
31.29809

>  <BCUT2D_MWLOW>  (131) 
10.128388

>  <BCUT2D_CHGHI>  (131) 
2.446414

>  <BCUT2D_CHGLO>  (131) 
-2.372117

>  <BCUT2D_LOGPHI>  (131) 
2.601149

>  <BCUT2D_LOGPLOW>  (131) 
-2.337005

>  <BCUT2D_MRHI>  (131) 
7.643939

>  <BCUT2D_MRLOW>  (131) 
-0.338932

>  <AvgIpc>  (131) 
3.133568

>  <BalabanJ>  (131) 
1.689409

>  <BertzCT>  (131) 
1104.784407

>  <Chi0>  (131) 
23.18987

>  <Chi0n>  (131) 
14.764212

>  <Chi0v>  (131) 
17.447494

>  <Chi1>  (131) 
14.190889

>  <Chi1n>  (131) 
7.849713

>  <Chi1v>  (131) 
12.231493

>  <Chi2n>  (131) 
5.929951

>  <Chi2v>  (131) 
10.177826

>  <Chi3n>  (131) 
3.795354

>  <Chi3v>  (131) 
7.460653

>  <Chi4n>  (131) 
2.601107

>  <Chi4v>  (131) 
5.466344

>  <HallKierAlpha>  (131) 
-1.36

>  <Ipc>  (131) 
3947352.346056

>  <Kappa1>  (131) 
24.285736

>  <Kappa2>  (131) 
8.532213

>  <Kappa3>  (131) 
5.714341

>  <LabuteASA>  (131) 
171.218329

>  <PEOE_VSA1>  (131) 
49.346027

>  <PEOE_VSA10>  (131) 
30.15592

>  <PEOE_VSA11>  (131) 
17.692941

>  <PEOE_VSA12>  (131) 
0.0

>  <PEOE_VSA13>  (131) 
15.645394

>  <PEOE_VSA14>  (131) 
0.0

>  <PEOE_VSA2>  (131) 
18.007828

>  <PEOE_VSA3>  (131) 
19.262567

>  <PEOE_VSA4>  (131) 
0.0

>  <PEOE_VSA5>  (131) 
0.0

>  <PEOE_VSA6>  (131) 
0.0

>  <PEOE_VSA7>  (131) 
0.0

>  <PEOE_VSA8>  (131) 
0.0

>  <PEOE_VSA9>  (131) 
20.756899

>  <SMR_VSA1>  (131) 
61.363719

>  <SMR_VSA10>  (131) 
40.449832

>  <SMR_VSA2>  (131) 
0.0

>  <SMR_VSA3>  (131) 
19.519035

>  <SMR_VSA4>  (131) 
0.0

>  <SMR_VSA5>  (131) 
24.5398

>  <SMR_VSA6>  (131) 
12.340549

>  <SMR_VSA7>  (131) 
12.65464

>  <SMR_VSA8>  (131) 
0.0

>  <SMR_VSA9>  (131) 
0.0

>  <SlogP_VSA1>  (131) 
25.307314

>  <SlogP_VSA10>  (131) 
5.817863

>  <SlogP_VSA11>  (131) 
0.0

>  <SlogP_VSA12>  (131) 
23.468091

>  <SlogP_VSA2>  (131) 
54.650871

>  <SlogP_VSA3>  (131) 
31.577018

>  <SlogP_VSA4>  (131) 
0.0

>  <SlogP_VSA5>  (131) 
6.227901

>  <SlogP_VSA6>  (131) 
12.65464

>  <SlogP_VSA7>  (131) 
0.0

>  <SlogP_VSA8>  (131) 
11.163878

>  <SlogP_VSA9>  (131) 
0.0

>  <EState_VSA1>  (131) 
54.614774

>  <EState_VSA10>  (131) 
43.481846

>  <EState_VSA11>  (131) 
0.0

>  <EState_VSA2>  (131) 
16.981741

>  <EState_VSA3>  (131) 
0.0

>  <EState_VSA4>  (131) 
12.65464

>  <EState_VSA5>  (131) 
4.5671

>  <EState_VSA6>  (131) 
0.0

>  <EState_VSA7>  (131) 
0.0

>  <EState_VSA8>  (131) 
28.096945

>  <EState_VSA9>  (131) 
10.47053

>  <VSA_EState1>  (131) 
50.204863

>  <VSA_EState10>  (131) 
0.0

>  <VSA_EState2>  (131) 
54.927006

>  <VSA_EState3>  (131) 
20.320829

>  <VSA_EState4>  (131) 
5.922478

>  <VSA_EState5>  (131) 
0.019517

>  <VSA_EState6>  (131) 
0.0

>  <VSA_EState7>  (131) 
-3.993378

>  <VSA_EState8>  (131) 
-1.07771

>  <VSA_EState9>  (131) 
-18.073605

>  <FractionCSP3>  (131) 
0.5

>  <HeavyAtomCount>  (131) 
31

>  <NHOHCount>  (131) 
4

>  <NOCount>  (131) 
18

>  <NumAliphaticCarbocycles>  (131) 
0

>  <NumAliphaticHeterocycles>  (131) 
1

>  <NumAliphaticRings>  (131) 
1

>  <NumAromaticCarbocycles>  (131) 
0

>  <NumAromaticHeterocycles>  (131) 
2

>  <NAR>  (131) 
2

>  <NumHAcceptors>  (131) 
18

>  <NumHDonors>  (131) 
3

>  <NumHeteroatoms>  (131) 
21

>  <NumRotatableBonds>  (131) 
8

>  <NumSaturatedCarbocycles>  (131) 
0

>  <NumSaturatedHeterocycles>  (131) 
1

>  <NumSaturatedRings>  (131) 
1

>  <RingCount>  (131) 
3

>  <MolLogP>  (131) 
-4.157

>  <MolMR>  (131) 
86.6005

>  <fr_Al_COO>  (131) 
0

>  <fr_Al_OH>  (131) 
2

>  <fr_Al_OH_noTert>  (131) 
2

>  <fr_ArN>  (131) 
1

>  <fr_Ar_COO>  (131) 
0

>  <fr_Ar_N>  (131) 
4

>  <fr_Ar_NH>  (131) 
0

>  <fr_Ar_OH>  (131) 
0

>  <fr_COO>  (131) 
0

>  <fr_COO2>  (131) 
0

>  <fr_C_O>  (131) 
0

>  <fr_C_O_noCOO>  (131) 
0

>  <fr_C_S>  (131) 
0

>  <fr_HOCCN>  (131) 
0

>  <fr_Imine>  (131) 
0

>  <fr_NH0>  (131) 
4

>  <fr_NH1>  (131) 
0

>  <fr_NH2>  (131) 
1

>  <fr_N_O>  (131) 
0

>  <fr_Ndealkylation1>  (131) 
0

>  <fr_Ndealkylation2>  (131) 
0

>  <fr_Nhpyrrole>  (131) 
0

>  <fr_SH>  (131) 
0

>  <fr_aldehyde>  (131) 
0

>  <fr_alkyl_carbamate>  (131) 
0

>  <fr_alkyl_halide>  (131) 
0

>  <fr_allylic_oxid>  (131) 
0

>  <fr_amide>  (131) 
0

>  <fr_amidine>  (131) 
0

>  <fr_aniline>  (131) 
1

>  <fr_aryl_methyl>  (131) 
0

>  <fr_azide>  (131) 
0

>  <fr_azo>  (131) 
0

>  <fr_barbitur>  (131) 
0

>  <fr_benzene>  (131) 
0

>  <fr_benzodiazepine>  (131) 
0

>  <fr_bicyclic>  (131) 
1

>  <fr_diazo>  (131) 
0

>  <fr_dihydropyridine>  (131) 
0

>  <fr_epoxide>  (131) 
0

>  <fr_ester>  (131) 
0

>  <fr_ether>  (131) 
1

>  <fr_furan>  (131) 
0

>  <fr_guanido>  (131) 
0

>  <fr_halogen>  (131) 
0

>  <fr_hdrzine>  (131) 
0

>  <fr_hdrzone>  (131) 
0

>  <fr_imidazole>  (131) 
1

>  <fr_imide>  (131) 
0

>  <fr_isocyan>  (131) 
0

>  <fr_isothiocyan>  (131) 
0

>  <fr_ketone>  (131) 
0

>  <fr_ketone_Topliss>  (131) 
0

>  <fr_lactam>  (131) 
0

>  <fr_lactone>  (131) 
0

>  <fr_methoxy>  (131) 
0

>  <fr_morpholine>  (131) 
0

>  <fr_nitrile>  (131) 
0

>  <fr_nitro>  (131) 
0

>  <fr_nitro_arom>  (131) 
0

>  <fr_nitro_arom_nonortho>  (131) 
0

>  <fr_nitroso>  (131) 
0

>  <fr_oxazole>  (131) 
0

>  <fr_oxime>  (131) 
0

>  <fr_para_hydroxylation>  (131) 
0

>  <fr_phenol>  (131) 
0

>  <fr_phenol_noOrthoHbond>  (131) 
0

>  <fr_phos_acid>  (131) 
3

>  <fr_phos_ester>  (131) 
1

>  <fr_piperdine>  (131) 
0

>  <fr_piperzine>  (131) 
0

>  <fr_priamide>  (131) 
0

>  <fr_prisulfonamd>  (131) 
0

>  <fr_pyridine>  (131) 
0

>  <fr_quatN>  (131) 
0

>  <fr_sulfide>  (131) 
0

>  <fr_sulfonamd>  (131) 
0

>  <fr_sulfone>  (131) 
0

>  <fr_term_acetylene>  (131) 
0

>  <fr_tetrazole>  (131) 
0

>  <fr_thiazole>  (131) 
0

>  <fr_thiocyan>  (131) 
0

>  <fr_thiophene>  (131) 
0

>  <fr_unbrch_alkane>  (131) 
0

>  <fr_urea>  (131) 
0

>  <NP-Likeness>  (131) 
0.811139

$$$$
ATP
     RDKit          3D

  0  0  0  0  0  0  0  0  0  0999 V3000
M  V30 BEGIN CTAB
M  V30 COUNTS 43 45 0 0 0
M  V30 BEGIN ATOM
M  V30 1 O 3.188255 -1.020957 3.641634 0
M  V30 2 C 2.049785 -0.941570 2.851198 0 CFG=1
M  V30 3 C 1.626283 0.512919 2.808569 0 CFG=1
M  V30 4 O 1.999465 1.195389 3.959427 0
M  V30 5 C 2.432755 0.965317 1.601380 0 CFG=2
M  V30 6 N 2.067511 2.283941 1.165361 0
M  V30 7 C 2.755363 3.446299 0.995372 0
M  V30 8 N 1.951334 4.416447 0.560937 0
M  V30 9 C 0.729727 3.864466 0.451676 0
M  V30 10 C 0.778196 2.519373 0.827654 0
M  V30 11 N -0.374838 1.799566 0.778582 0
M  V30 12 C -1.510205 2.394304 0.375875 0
M  V30 13 N -1.553999 3.705930 0.009989 0
M  V30 14 C -0.441920 4.452111 0.043199 0
M  V30 15 N -0.608737 5.795494 -0.357417 0
M  V30 16 O 2.123741 -0.031057 0.705183 0
M  V30 17 C 2.433345 -1.180169 1.408182 0 CFG=2
M  V30 18 C 1.706107 -2.397716 0.905971 0
M  V30 19 O 0.341839 -2.293678 0.973515 0
M  V30 20 P -0.354247 -3.694349 0.393587 0 CFG=1 VAL=5
M  V30 21 O -1.314362 -3.299812 -0.722496 0
M  V30 22 O 0.812324 -4.749842 -0.268654 0 CHG=-1 VAL=1
M  V30 23 O -1.245256 -4.558767 1.510207 0
M  V30 24 P -2.298706 -5.573228 0.625616 0 CFG=2 VAL=5
M  V30 25 O -3.636302 -4.880345 0.612581 0
M  V30 26 O -2.419120 -7.100945 1.344228 0 CHG=-1 VAL=1
M  V30 27 O -1.679875 -5.801830 -0.933552 0
M  V30 28 P -2.868522 -5.999652 -2.096520 0
M  V30 29 O -3.300016 -4.670685 -2.698696 0
M  V30 30 O -2.195683 -6.959338 -3.330175 0 CHG=-1 VAL=1
M  V30 31 O -4.254911 -6.734769 -1.453516 0 CHG=-1 VAL=1
M  V30 32 H 3.671049 -0.140143 3.700450 0
M  V30 33 H 1.241976 -1.608024 3.199914 0
M  V30 34 H 0.550930 0.558192 2.601148 0
M  V30 35 H 2.151830 2.143272 3.674806 0
M  V30 36 H 3.517084 0.870385 1.856814 0
M  V30 37 H 3.826729 3.477269 1.214380 0
M  V30 38 H -2.335747 1.692011 0.391555 0
M  V30 39 H 0.002940 5.802461 -1.214550 0
M  V30 40 H -1.186607 6.558653 0.089389 0
M  V30 41 H 3.529016 -1.316402 1.305827 0
M  V30 42 H 2.069758 -2.600520 -0.132208 0
M  V30 43 H 1.996678 -3.279381 1.512368 0
M  V30 END ATOM
M  V30 BEGIN BOND
M  V30 1 1 1 2
M  V30 2 1 2 3
M  V30 3 1 3 4
M  V30 4 1 3 5
M  V30 5 1 5 6
M  V30 6 1 6 7
M  V30 7 2 7 8
M  V30 8 1 8 9
M  V30 9 2 9 10
M  V30 10 1 10 11
M  V30 11 2 11 12
M  V30 12 1 12 13
M  V30 13 2 13 14
M  V30 14 1 14 15
M  V30 15 1 5 16
M  V30 16 1 16 17
M  V30 17 1 17 18
M  V30 18 1 18 19
M  V30 19 1 19 20
M  V30 20 2 20 21
M  V30 21 1 20 22 CFG=3
M  V30 22 1 20 23
M  V30 23 1 23 24
M  V30 24 2 24 25
M  V30 25 1 24 26 CFG=1
M  V30 26 1 24 27
M  V30 27 1 27 28
M  V30 28 2 28 29
M  V30 29 1 28 30
M  V30 30 1 28 31
M  V30 31 1 17 2
M  V30 32 1 10 6
M  V30 33 1 14 9
M  V30 34 1 1 32
M  V30 35 1 2 33 CFG=1
M  V30 36 1 3 34 CFG=3
M  V30 37 1 4 35
M  V30 38 1 5 36 CFG=1
M  V30 39 1 7 37
M  V30 40 1 12 38
M  V30 41 1 15 39
M  V30 42 1 15 40
M  V30 43 1 17 41 CFG=1
M  V30 44 1 18 42
M  V30 45 1 18 43
M  V30 END BOND
M  V30 END CTAB
M  END
>  <Dataset>  (132) 
PDB

>  <Ligand_Instance>  (132) 
4WB6_ATP_A_401

>  <PDB_ID>  (132) 
4WB6

>  <Standardized_SMILES>  (132) 
[H]O[C@@]1([H])[C@@]([H])(O[H])[C@]([H])(N2C([H])=NC3=C2N=C([H])N=C3N([H])[H])O[C@]1([H])C([H])([H])O[P@@](=O)([O-])O[P@](=O)([O-])OP(=O)([O-])[O-]

>  <Name>  (132) 
ADENOSINE-5'-TRIPHOSPHATE

>  <Pocket>  (132) 
A

>  <ATP_Site>  (132) 
1.0

>  <Peripheral>  (132) 
0.0

>  <Num_H_Atoms_ProtBoundConf>  (132) 
12.0

>  <Num_Resolved_Atoms>  (132) 
31.0

>  <Num_Not_Resolved_Atoms>  (132) 
0.0

>  <2D_Mol_H>  (132) 
<rdkit.Chem.rdchem.Mol object at 0x72a238da5b60>

>  <MW>  (132) 
503.15

>  <HBA>  (132) 
18

>  <HBD>  (132) 
3

>  <LogP>  (132) 
-4.157

>  <NRB>  (132) 
11

>  <TPSA>  (132) 
290.45

>  <Num_Heavy_Atoms>  (132) 
31

>  <Ro5>  (132) 
[False, False, True, True, False, False]

>  <Ro5_Fulfilled>  (132) 
False

>  <Ro3>  (132) 
[False, False, True, True]

>  <Ro3_Fulfilled>  (132) 
False

>  <Fsp3>  (132) 
0.5

>  <Fsp3_0.42>  (132) 
True

>  <Fsp3_0.45>  (132) 
True

>  <Stereogenic_Carbons>  (132) 
4

>  <C_Atoms>  (132) 
10

>  <FCStereo>  (132) 
0.4

>  <SPS>  (132) 
882

>  <nSPS>  (132) 
28.451613

>  <PBF>  (132) 
0.907674

>  <PBF_0.6>  (132) 
True

>  <nPBF>  (132) 
0.02928

>  <nPBF_0.016>  (132) 
True

>  <PMI1>  (132) 
2253.925528

>  <PMI2>  (132) 
9408.085409

>  <PMI3>  (132) 
10689.805373

>  <NPR1>  (132) 
0.210848

>  <NPR2>  (132) 
0.880099

>  <Sum_NPR>  (132) 
1.090947

>  <Sum_NPR_1.07>  (132) 
True

>  <Sum_NPR_1.2>  (132) 
False

>  <MaxAbsEStateIndex>  (132) 
11.591022

>  <MaxEStateIndex>  (132) 
11.591022

>  <MinAbsEStateIndex>  (132) 
0.019517

>  <MinEStateIndex>  (132) 
-6.13789

>  <qed>  (132) 
0.28788

>  <MolWt>  (132) 
503.15

>  <HeavyAtomMolWt>  (132) 
491.054

>  <ExactMolWt>  (132) 
502.96664

>  <NumValenceElectrons>  (132) 
174

>  <NumRadicalElectrons>  (132) 
0

>  <MaxPartialCharge>  (132) 
0.277775

>  <MinPartialCharge>  (132) 
-0.789509

>  <MaxAbsPartialCharge>  (132) 
0.789509

>  <MinAbsPartialCharge>  (132) 
0.277775

>  <FpDensityMorgan1>  (132) 
1.064516

>  <FpDensityMorgan2>  (132) 
1.741935

>  <FpDensityMorgan3>  (132) 
2.387097

>  <BCUT2D_MWHI>  (132) 
31.29809

>  <BCUT2D_MWLOW>  (132) 
10.128388

>  <BCUT2D_CHGHI>  (132) 
2.446414

>  <BCUT2D_CHGLO>  (132) 
-2.372117

>  <BCUT2D_LOGPHI>  (132) 
2.601149

>  <BCUT2D_LOGPLOW>  (132) 
-2.337005

>  <BCUT2D_MRHI>  (132) 
7.643939

>  <BCUT2D_MRLOW>  (132) 
-0.338932

>  <AvgIpc>  (132) 
3.133568

>  <BalabanJ>  (132) 
1.689409

>  <BertzCT>  (132) 
1104.784407

>  <Chi0>  (132) 
23.18987

>  <Chi0n>  (132) 
14.764212

>  <Chi0v>  (132) 
17.447494

>  <Chi1>  (132) 
14.190889

>  <Chi1n>  (132) 
7.849713

>  <Chi1v>  (132) 
12.231493

>  <Chi2n>  (132) 
5.929951

>  <Chi2v>  (132) 
10.177826

>  <Chi3n>  (132) 
3.795354

>  <Chi3v>  (132) 
7.460653

>  <Chi4n>  (132) 
2.601107

>  <Chi4v>  (132) 
5.466344

>  <HallKierAlpha>  (132) 
-1.36

>  <Ipc>  (132) 
3947352.346056

>  <Kappa1>  (132) 
24.285736

>  <Kappa2>  (132) 
8.532213

>  <Kappa3>  (132) 
5.714341

>  <LabuteASA>  (132) 
171.218329

>  <PEOE_VSA1>  (132) 
49.346027

>  <PEOE_VSA10>  (132) 
30.15592

>  <PEOE_VSA11>  (132) 
17.692941

>  <PEOE_VSA12>  (132) 
0.0

>  <PEOE_VSA13>  (132) 
15.645394

>  <PEOE_VSA14>  (132) 
0.0

>  <PEOE_VSA2>  (132) 
18.007828

>  <PEOE_VSA3>  (132) 
19.262567

>  <PEOE_VSA4>  (132) 
0.0

>  <PEOE_VSA5>  (132) 
0.0

>  <PEOE_VSA6>  (132) 
0.0

>  <PEOE_VSA7>  (132) 
0.0

>  <PEOE_VSA8>  (132) 
0.0

>  <PEOE_VSA9>  (132) 
20.756899

>  <SMR_VSA1>  (132) 
61.363719

>  <SMR_VSA10>  (132) 
40.449832

>  <SMR_VSA2>  (132) 
0.0

>  <SMR_VSA3>  (132) 
19.519035

>  <SMR_VSA4>  (132) 
0.0

>  <SMR_VSA5>  (132) 
24.5398

>  <SMR_VSA6>  (132) 
12.340549

>  <SMR_VSA7>  (132) 
12.65464

>  <SMR_VSA8>  (132) 
0.0

>  <SMR_VSA9>  (132) 
0.0

>  <SlogP_VSA1>  (132) 
25.307314

>  <SlogP_VSA10>  (132) 
5.817863

>  <SlogP_VSA11>  (132) 
0.0

>  <SlogP_VSA12>  (132) 
23.468091

>  <SlogP_VSA2>  (132) 
54.650871

>  <SlogP_VSA3>  (132) 
31.577018

>  <SlogP_VSA4>  (132) 
0.0

>  <SlogP_VSA5>  (132) 
6.227901

>  <SlogP_VSA6>  (132) 
12.65464

>  <SlogP_VSA7>  (132) 
0.0

>  <SlogP_VSA8>  (132) 
11.163878

>  <SlogP_VSA9>  (132) 
0.0

>  <EState_VSA1>  (132) 
54.614774

>  <EState_VSA10>  (132) 
43.481846

>  <EState_VSA11>  (132) 
0.0

>  <EState_VSA2>  (132) 
16.981741

>  <EState_VSA3>  (132) 
0.0

>  <EState_VSA4>  (132) 
12.65464

>  <EState_VSA5>  (132) 
4.5671

>  <EState_VSA6>  (132) 
0.0

>  <EState_VSA7>  (132) 
0.0

>  <EState_VSA8>  (132) 
28.096945

>  <EState_VSA9>  (132) 
10.47053

>  <VSA_EState1>  (132) 
50.204863

>  <VSA_EState10>  (132) 
0.0

>  <VSA_EState2>  (132) 
54.927006

>  <VSA_EState3>  (132) 
20.320829

>  <VSA_EState4>  (132) 
5.922478

>  <VSA_EState5>  (132) 
0.019517

>  <VSA_EState6>  (132) 
0.0

>  <VSA_EState7>  (132) 
-3.993378

>  <VSA_EState8>  (132) 
-1.07771

>  <VSA_EState9>  (132) 
-18.073605

>  <FractionCSP3>  (132) 
0.5

>  <HeavyAtomCount>  (132) 
31

>  <NHOHCount>  (132) 
4

>  <NOCount>  (132) 
18

>  <NumAliphaticCarbocycles>  (132) 
0

>  <NumAliphaticHeterocycles>  (132) 
1

>  <NumAliphaticRings>  (132) 
1

>  <NumAromaticCarbocycles>  (132) 
0

>  <NumAromaticHeterocycles>  (132) 
2

>  <NAR>  (132) 
2

>  <NumHAcceptors>  (132) 
18

>  <NumHDonors>  (132) 
3

>  <NumHeteroatoms>  (132) 
21

>  <NumRotatableBonds>  (132) 
8

>  <NumSaturatedCarbocycles>  (132) 
0

>  <NumSaturatedHeterocycles>  (132) 
1

>  <NumSaturatedRings>  (132) 
1

>  <RingCount>  (132) 
3

>  <MolLogP>  (132) 
-4.157

>  <MolMR>  (132) 
86.6005

>  <fr_Al_COO>  (132) 
0

>  <fr_Al_OH>  (132) 
2

>  <fr_Al_OH_noTert>  (132) 
2

>  <fr_ArN>  (132) 
1

>  <fr_Ar_COO>  (132) 
0

>  <fr_Ar_N>  (132) 
4

>  <fr_Ar_NH>  (132) 
0

>  <fr_Ar_OH>  (132) 
0

>  <fr_COO>  (132) 
0

>  <fr_COO2>  (132) 
0

>  <fr_C_O>  (132) 
0

>  <fr_C_O_noCOO>  (132) 
0

>  <fr_C_S>  (132) 
0

>  <fr_HOCCN>  (132) 
0

>  <fr_Imine>  (132) 
0

>  <fr_NH0>  (132) 
4

>  <fr_NH1>  (132) 
0

>  <fr_NH2>  (132) 
1

>  <fr_N_O>  (132) 
0

>  <fr_Ndealkylation1>  (132) 
0

>  <fr_Ndealkylation2>  (132) 
0

>  <fr_Nhpyrrole>  (132) 
0

>  <fr_SH>  (132) 
0

>  <fr_aldehyde>  (132) 
0

>  <fr_alkyl_carbamate>  (132) 
0

>  <fr_alkyl_halide>  (132) 
0

>  <fr_allylic_oxid>  (132) 
0

>  <fr_amide>  (132) 
0

>  <fr_amidine>  (132) 
0

>  <fr_aniline>  (132) 
1

>  <fr_aryl_methyl>  (132) 
0

>  <fr_azide>  (132) 
0

>  <fr_azo>  (132) 
0

>  <fr_barbitur>  (132) 
0

>  <fr_benzene>  (132) 
0

>  <fr_benzodiazepine>  (132) 
0

>  <fr_bicyclic>  (132) 
1

>  <fr_diazo>  (132) 
0

>  <fr_dihydropyridine>  (132) 
0

>  <fr_epoxide>  (132) 
0

>  <fr_ester>  (132) 
0

>  <fr_ether>  (132) 
1

>  <fr_furan>  (132) 
0

>  <fr_guanido>  (132) 
0

>  <fr_halogen>  (132) 
0

>  <fr_hdrzine>  (132) 
0

>  <fr_hdrzone>  (132) 
0

>  <fr_imidazole>  (132) 
1

>  <fr_imide>  (132) 
0

>  <fr_isocyan>  (132) 
0

>  <fr_isothiocyan>  (132) 
0

>  <fr_ketone>  (132) 
0

>  <fr_ketone_Topliss>  (132) 
0

>  <fr_lactam>  (132) 
0

>  <fr_lactone>  (132) 
0

>  <fr_methoxy>  (132) 
0

>  <fr_morpholine>  (132) 
0

>  <fr_nitrile>  (132) 
0

>  <fr_nitro>  (132) 
0

>  <fr_nitro_arom>  (132) 
0

>  <fr_nitro_arom_nonortho>  (132) 
0

>  <fr_nitroso>  (132) 
0

>  <fr_oxazole>  (132) 
0

>  <fr_oxime>  (132) 
0

>  <fr_para_hydroxylation>  (132) 
0

>  <fr_phenol>  (132) 
0

>  <fr_phenol_noOrthoHbond>  (132) 
0

>  <fr_phos_acid>  (132) 
3

>  <fr_phos_ester>  (132) 
1

>  <fr_piperdine>  (132) 
0

>  <fr_piperzine>  (132) 
0

>  <fr_priamide>  (132) 
0

>  <fr_prisulfonamd>  (132) 
0

>  <fr_pyridine>  (132) 
0

>  <fr_quatN>  (132) 
0

>  <fr_sulfide>  (132) 
0

>  <fr_sulfonamd>  (132) 
0

>  <fr_sulfone>  (132) 
0

>  <fr_term_acetylene>  (132) 
0

>  <fr_tetrazole>  (132) 
0

>  <fr_thiazole>  (132) 
0

>  <fr_thiocyan>  (132) 
0

>  <fr_thiophene>  (132) 
0

>  <fr_unbrch_alkane>  (132) 
0

>  <fr_urea>  (132) 
0

>  <NP-Likeness>  (132) 
0.811139

$$$$
ATP
     RDKit          3D

  0  0  0  0  0  0  0  0  0  0999 V3000
M  V30 BEGIN CTAB
M  V30 COUNTS 43 45 0 0 0
M  V30 BEGIN ATOM
M  V30 1 O 4.458051 -0.549692 2.184329 0
M  V30 2 C 3.185165 -1.018996 1.888478 0 CFG=1
M  V30 3 C 2.151562 -0.289438 2.717447 0 CFG=1
M  V30 4 O 2.587765 -0.093020 4.026809 0
M  V30 5 C 2.012863 0.994439 1.960220 0 CFG=2
M  V30 6 N 0.621929 1.451657 1.965626 0
M  V30 7 C -0.169403 1.186978 3.037074 0
M  V30 8 N -1.408033 1.704809 2.816585 0
M  V30 9 C -1.383197 2.293131 1.602194 0
M  V30 10 C -0.117365 2.131241 1.079767 0
M  V30 11 N 0.252831 2.597842 -0.119282 0
M  V30 12 C -0.628049 3.265687 -0.885944 0
M  V30 13 N -1.893337 3.456926 -0.423632 0
M  V30 14 C -2.259898 2.982870 0.788144 0
M  V30 15 N -3.585743 3.184843 1.269376 0
M  V30 16 O 2.493981 0.812049 0.696272 0
M  V30 17 C 2.837818 -0.498716 0.511604 0 CFG=2
M  V30 18 C 1.632035 -1.302937 0.044525 0
M  V30 19 O 1.135567 -0.813049 -1.161444 0
M  V30 20 P -0.192912 -1.811328 -1.539116 0 CFG=2 VAL=5
M  V30 21 O -0.479320 -1.766350 -3.016702 0
M  V30 22 O -1.522987 -1.243639 -0.662576 0 CHG=-1 VAL=1
M  V30 23 O 0.116073 -3.404873 -1.019809 0
M  V30 24 P -1.297393 -4.300885 -1.271927 0 CFG=1 VAL=5
M  V30 25 O -2.420463 -3.649929 -0.529018 0
M  V30 26 O -1.638508 -4.216146 -2.928774 0 CHG=-1 VAL=1
M  V30 27 O -1.138965 -5.884115 -0.747270 0
M  V30 28 P -0.201850 -6.050086 0.625565 0
M  V30 29 O -1.055306 -6.187062 1.878940 0
M  V30 30 O 0.793174 -7.414355 0.434730 0 CHG=-1 VAL=1
M  V30 31 O 0.828910 -4.738283 0.902796 0 CHG=-1 VAL=1
M  V30 32 H 4.728577 0.198453 1.612977 0
M  V30 33 H 3.108112 -2.120577 1.951419 0
M  V30 34 H 1.196890 -0.858526 2.756759 0
M  V30 35 H 2.564617 0.853133 4.289095 0
M  V30 36 H 2.658567 1.738405 2.513310 0
M  V30 37 H -0.048996 0.681264 3.985546 0
M  V30 38 H -0.327779 3.642252 -1.854626 0
M  V30 39 H -3.478432 4.162317 1.671853 0
M  V30 40 H -4.518688 2.681523 1.321313 0
M  V30 41 H 3.687934 -0.617775 -0.192358 0
M  V30 42 H 1.866396 -2.364644 -0.082443 0
M  V30 43 H 0.822775 -1.204780 0.790958 0
M  V30 END ATOM
M  V30 BEGIN BOND
M  V30 1 1 1 2
M  V30 2 1 2 3
M  V30 3 1 3 4
M  V30 4 1 3 5
M  V30 5 1 5 6
M  V30 6 1 6 7
M  V30 7 2 7 8
M  V30 8 1 8 9
M  V30 9 2 9 10
M  V30 10 1 10 11
M  V30 11 2 11 12
M  V30 12 1 12 13
M  V30 13 2 13 14
M  V30 14 1 14 15
M  V30 15 1 5 16
M  V30 16 1 16 17
M  V30 17 1 17 18
M  V30 18 1 18 19
M  V30 19 1 19 20
M  V30 20 2 20 21
M  V30 21 1 20 22 CFG=1
M  V30 22 1 20 23
M  V30 23 1 23 24
M  V30 24 2 24 25
M  V30 25 1 24 26 CFG=3
M  V30 26 1 24 27
M  V30 27 1 27 28
M  V30 28 2 28 29
M  V30 29 1 28 30
M  V30 30 1 28 31
M  V30 31 1 17 2
M  V30 32 1 10 6
M  V30 33 1 14 9
M  V30 34 1 1 32
M  V30 35 1 2 33 CFG=3
M  V30 36 1 3 34 CFG=1
M  V30 37 1 4 35
M  V30 38 1 5 36 CFG=1
M  V30 39 1 7 37
M  V30 40 1 12 38
M  V30 41 1 15 39
M  V30 42 1 15 40
M  V30 43 1 17 41 CFG=3
M  V30 44 1 18 42
M  V30 45 1 18 43
M  V30 END BOND
M  V30 END CTAB
M  END
>  <Dataset>  (133) 
PDB

>  <Ligand_Instance>  (133) 
4WB6_ATP_B_401

>  <PDB_ID>  (133) 
4WB6

>  <Standardized_SMILES>  (133) 
[H]O[C@@]1([H])[C@@]([H])(O[H])[C@]([H])(N2C([H])=NC3=C2N=C([H])N=C3N([H])[H])O[C@]1([H])C([H])([H])O[P@](=O)([O-])O[P@@](=O)([O-])OP(=O)([O-])[O-]

>  <Name>  (133) 
ADENOSINE-5'-TRIPHOSPHATE

>  <Pocket>  (133) 
A

>  <ATP_Site>  (133) 
1.0

>  <Peripheral>  (133) 
0.0

>  <Num_H_Atoms_ProtBoundConf>  (133) 
12.0

>  <Num_Resolved_Atoms>  (133) 
31.0

>  <Num_Not_Resolved_Atoms>  (133) 
0.0

>  <2D_Mol_H>  (133) 
<rdkit.Chem.rdchem.Mol object at 0x72a238da5c40>

>  <MW>  (133) 
503.15

>  <HBA>  (133) 
18

>  <HBD>  (133) 
3

>  <LogP>  (133) 
-4.157

>  <NRB>  (133) 
11

>  <TPSA>  (133) 
290.45

>  <Num_Heavy_Atoms>  (133) 
31

>  <Ro5>  (133) 
[False, False, True, True, False, False]

>  <Ro5_Fulfilled>  (133) 
False

>  <Ro3>  (133) 
[False, False, True, True]

>  <Ro3_Fulfilled>  (133) 
False

>  <Fsp3>  (133) 
0.5

>  <Fsp3_0.42>  (133) 
True

>  <Fsp3_0.45>  (133) 
True

>  <Stereogenic_Carbons>  (133) 
4

>  <C_Atoms>  (133) 
10

>  <FCStereo>  (133) 
0.4

>  <SPS>  (133) 
882

>  <nSPS>  (133) 
28.451613

>  <PBF>  (133) 
1.205103

>  <PBF_0.6>  (133) 
True

>  <nPBF>  (133) 
0.038874

>  <nPBF_0.016>  (133) 
True

>  <PMI1>  (133) 
2900.35281

>  <PMI2>  (133) 
5982.47364

>  <PMI3>  (133) 
7182.547833

>  <NPR1>  (133) 
0.403806

>  <NPR2>  (133) 
0.832918

>  <Sum_NPR>  (133) 
1.236724

>  <Sum_NPR_1.07>  (133) 
True

>  <Sum_NPR_1.2>  (133) 
True

>  <MaxAbsEStateIndex>  (133) 
11.591022

>  <MaxEStateIndex>  (133) 
11.591022

>  <MinAbsEStateIndex>  (133) 
0.019517

>  <MinEStateIndex>  (133) 
-6.13789

>  <qed>  (133) 
0.28788

>  <MolWt>  (133) 
503.15

>  <HeavyAtomMolWt>  (133) 
491.054

>  <ExactMolWt>  (133) 
502.96664

>  <NumValenceElectrons>  (133) 
174

>  <NumRadicalElectrons>  (133) 
0

>  <MaxPartialCharge>  (133) 
0.277775

>  <MinPartialCharge>  (133) 
-0.789509

>  <MaxAbsPartialCharge>  (133) 
0.789509

>  <MinAbsPartialCharge>  (133) 
0.277775

>  <FpDensityMorgan1>  (133) 
1.064516

>  <FpDensityMorgan2>  (133) 
1.741935

>  <FpDensityMorgan3>  (133) 
2.387097

>  <BCUT2D_MWHI>  (133) 
31.29809

>  <BCUT2D_MWLOW>  (133) 
10.128388

>  <BCUT2D_CHGHI>  (133) 
2.446414

>  <BCUT2D_CHGLO>  (133) 
-2.372117

>  <BCUT2D_LOGPHI>  (133) 
2.601149

>  <BCUT2D_LOGPLOW>  (133) 
-2.337005

>  <BCUT2D_MRHI>  (133) 
7.643939

>  <BCUT2D_MRLOW>  (133) 
-0.338932

>  <AvgIpc>  (133) 
3.133568

>  <BalabanJ>  (133) 
1.689409

>  <BertzCT>  (133) 
1104.784407

>  <Chi0>  (133) 
23.18987

>  <Chi0n>  (133) 
14.764212

>  <Chi0v>  (133) 
17.447494

>  <Chi1>  (133) 
14.190889

>  <Chi1n>  (133) 
7.849713

>  <Chi1v>  (133) 
12.231493

>  <Chi2n>  (133) 
5.929951

>  <Chi2v>  (133) 
10.177826

>  <Chi3n>  (133) 
3.795354

>  <Chi3v>  (133) 
7.460653

>  <Chi4n>  (133) 
2.601107

>  <Chi4v>  (133) 
5.466344

>  <HallKierAlpha>  (133) 
-1.36

>  <Ipc>  (133) 
3947352.346056

>  <Kappa1>  (133) 
24.285736

>  <Kappa2>  (133) 
8.532213

>  <Kappa3>  (133) 
5.714341

>  <LabuteASA>  (133) 
171.218329

>  <PEOE_VSA1>  (133) 
49.346027

>  <PEOE_VSA10>  (133) 
30.15592

>  <PEOE_VSA11>  (133) 
17.692941

>  <PEOE_VSA12>  (133) 
0.0

>  <PEOE_VSA13>  (133) 
15.645394

>  <PEOE_VSA14>  (133) 
0.0

>  <PEOE_VSA2>  (133) 
18.007828

>  <PEOE_VSA3>  (133) 
19.262567

>  <PEOE_VSA4>  (133) 
0.0

>  <PEOE_VSA5>  (133) 
0.0

>  <PEOE_VSA6>  (133) 
0.0

>  <PEOE_VSA7>  (133) 
0.0

>  <PEOE_VSA8>  (133) 
0.0

>  <PEOE_VSA9>  (133) 
20.756899

>  <SMR_VSA1>  (133) 
61.363719

>  <SMR_VSA10>  (133) 
40.449832

>  <SMR_VSA2>  (133) 
0.0

>  <SMR_VSA3>  (133) 
19.519035

>  <SMR_VSA4>  (133) 
0.0

>  <SMR_VSA5>  (133) 
24.5398

>  <SMR_VSA6>  (133) 
12.340549

>  <SMR_VSA7>  (133) 
12.65464

>  <SMR_VSA8>  (133) 
0.0

>  <SMR_VSA9>  (133) 
0.0

>  <SlogP_VSA1>  (133) 
25.307314

>  <SlogP_VSA10>  (133) 
5.817863

>  <SlogP_VSA11>  (133) 
0.0

>  <SlogP_VSA12>  (133) 
23.468091

>  <SlogP_VSA2>  (133) 
54.650871

>  <SlogP_VSA3>  (133) 
31.577018

>  <SlogP_VSA4>  (133) 
0.0

>  <SlogP_VSA5>  (133) 
6.227901

>  <SlogP_VSA6>  (133) 
12.65464

>  <SlogP_VSA7>  (133) 
0.0

>  <SlogP_VSA8>  (133) 
11.163878

>  <SlogP_VSA9>  (133) 
0.0

>  <EState_VSA1>  (133) 
54.614774

>  <EState_VSA10>  (133) 
43.481846

>  <EState_VSA11>  (133) 
0.0

>  <EState_VSA2>  (133) 
16.981741

>  <EState_VSA3>  (133) 
0.0

>  <EState_VSA4>  (133) 
12.65464

>  <EState_VSA5>  (133) 
4.5671

>  <EState_VSA6>  (133) 
0.0

>  <EState_VSA7>  (133) 
0.0

>  <EState_VSA8>  (133) 
28.096945

>  <EState_VSA9>  (133) 
10.47053

>  <VSA_EState1>  (133) 
50.204863

>  <VSA_EState10>  (133) 
0.0

>  <VSA_EState2>  (133) 
54.927006

>  <VSA_EState3>  (133) 
20.320829

>  <VSA_EState4>  (133) 
5.922478

>  <VSA_EState5>  (133) 
0.019517

>  <VSA_EState6>  (133) 
0.0

>  <VSA_EState7>  (133) 
-3.993378

>  <VSA_EState8>  (133) 
-1.07771

>  <VSA_EState9>  (133) 
-18.073605

>  <FractionCSP3>  (133) 
0.5

>  <HeavyAtomCount>  (133) 
31

>  <NHOHCount>  (133) 
4

>  <NOCount>  (133) 
18

>  <NumAliphaticCarbocycles>  (133) 
0

>  <NumAliphaticHeterocycles>  (133) 
1

>  <NumAliphaticRings>  (133) 
1

>  <NumAromaticCarbocycles>  (133) 
0

>  <NumAromaticHeterocycles>  (133) 
2

>  <NAR>  (133) 
2

>  <NumHAcceptors>  (133) 
18

>  <NumHDonors>  (133) 
3

>  <NumHeteroatoms>  (133) 
21

>  <NumRotatableBonds>  (133) 
8

>  <NumSaturatedCarbocycles>  (133) 
0

>  <NumSaturatedHeterocycles>  (133) 
1

>  <NumSaturatedRings>  (133) 
1

>  <RingCount>  (133) 
3

>  <MolLogP>  (133) 
-4.157

>  <MolMR>  (133) 
86.6005

>  <fr_Al_COO>  (133) 
0

>  <fr_Al_OH>  (133) 
2

>  <fr_Al_OH_noTert>  (133) 
2

>  <fr_ArN>  (133) 
1

>  <fr_Ar_COO>  (133) 
0

>  <fr_Ar_N>  (133) 
4

>  <fr_Ar_NH>  (133) 
0

>  <fr_Ar_OH>  (133) 
0

>  <fr_COO>  (133) 
0

>  <fr_COO2>  (133) 
0

>  <fr_C_O>  (133) 
0

>  <fr_C_O_noCOO>  (133) 
0

>  <fr_C_S>  (133) 
0

>  <fr_HOCCN>  (133) 
0

>  <fr_Imine>  (133) 
0

>  <fr_NH0>  (133) 
4

>  <fr_NH1>  (133) 
0

>  <fr_NH2>  (133) 
1

>  <fr_N_O>  (133) 
0

>  <fr_Ndealkylation1>  (133) 
0

>  <fr_Ndealkylation2>  (133) 
0

>  <fr_Nhpyrrole>  (133) 
0

>  <fr_SH>  (133) 
0

>  <fr_aldehyde>  (133) 
0

>  <fr_alkyl_carbamate>  (133) 
0

>  <fr_alkyl_halide>  (133) 
0

>  <fr_allylic_oxid>  (133) 
0

>  <fr_amide>  (133) 
0

>  <fr_amidine>  (133) 
0

>  <fr_aniline>  (133) 
1

>  <fr_aryl_methyl>  (133) 
0

>  <fr_azide>  (133) 
0

>  <fr_azo>  (133) 
0

>  <fr_barbitur>  (133) 
0

>  <fr_benzene>  (133) 
0

>  <fr_benzodiazepine>  (133) 
0

>  <fr_bicyclic>  (133) 
1

>  <fr_diazo>  (133) 
0

>  <fr_dihydropyridine>  (133) 
0

>  <fr_epoxide>  (133) 
0

>  <fr_ester>  (133) 
0

>  <fr_ether>  (133) 
1

>  <fr_furan>  (133) 
0

>  <fr_guanido>  (133) 
0

>  <fr_halogen>  (133) 
0

>  <fr_hdrzine>  (133) 
0

>  <fr_hdrzone>  (133) 
0

>  <fr_imidazole>  (133) 
1

>  <fr_imide>  (133) 
0

>  <fr_isocyan>  (133) 
0

>  <fr_isothiocyan>  (133) 
0

>  <fr_ketone>  (133) 
0

>  <fr_ketone_Topliss>  (133) 
0

>  <fr_lactam>  (133) 
0

>  <fr_lactone>  (133) 
0

>  <fr_methoxy>  (133) 
0

>  <fr_morpholine>  (133) 
0

>  <fr_nitrile>  (133) 
0

>  <fr_nitro>  (133) 
0

>  <fr_nitro_arom>  (133) 
0

>  <fr_nitro_arom_nonortho>  (133) 
0

>  <fr_nitroso>  (133) 
0

>  <fr_oxazole>  (133) 
0

>  <fr_oxime>  (133) 
0

>  <fr_para_hydroxylation>  (133) 
0

>  <fr_phenol>  (133) 
0

>  <fr_phenol_noOrthoHbond>  (133) 
0

>  <fr_phos_acid>  (133) 
3

>  <fr_phos_ester>  (133) 
1

>  <fr_piperdine>  (133) 
0

>  <fr_piperzine>  (133) 
0

>  <fr_priamide>  (133) 
0

>  <fr_prisulfonamd>  (133) 
0

>  <fr_pyridine>  (133) 
0

>  <fr_quatN>  (133) 
0

>  <fr_sulfide>  (133) 
0

>  <fr_sulfonamd>  (133) 
0

>  <fr_sulfone>  (133) 
0

>  <fr_term_acetylene>  (133) 
0

>  <fr_tetrazole>  (133) 
0

>  <fr_thiazole>  (133) 
0

>  <fr_thiocyan>  (133) 
0

>  <fr_thiophene>  (133) 
0

>  <fr_unbrch_alkane>  (133) 
0

>  <fr_urea>  (133) 
0

>  <NP-Likeness>  (133) 
0.811139

$$$$
ATP
     RDKit          3D

  0  0  0  0  0  0  0  0  0  0999 V3000
M  V30 BEGIN CTAB
M  V30 COUNTS 43 45 0 0 0
M  V30 BEGIN ATOM
M  V30 1 O 4.458051 -0.549692 2.184329 0
M  V30 2 C 3.185165 -1.018996 1.888478 0 CFG=1
M  V30 3 C 2.151562 -0.289438 2.717447 0 CFG=1
M  V30 4 O 2.587765 -0.093020 4.026809 0
M  V30 5 C 2.012863 0.994439 1.960220 0 CFG=2
M  V30 6 N 0.621929 1.451657 1.965626 0
M  V30 7 C -0.169403 1.186978 3.037074 0
M  V30 8 N -1.408033 1.704809 2.816585 0
M  V30 9 C -1.383197 2.293131 1.602194 0
M  V30 10 C -0.117365 2.131241 1.079767 0
M  V30 11 N 0.252831 2.597842 -0.119282 0
M  V30 12 C -0.628049 3.265687 -0.885944 0
M  V30 13 N -1.893337 3.456926 -0.423632 0
M  V30 14 C -2.259898 2.982870 0.788144 0
M  V30 15 N -3.585743 3.184843 1.269376 0
M  V30 16 O 2.493981 0.812049 0.696272 0
M  V30 17 C 2.837818 -0.498716 0.511604 0 CFG=2
M  V30 18 C 1.632035 -1.302937 0.044525 0
M  V30 19 O 1.135567 -0.813049 -1.161444 0
M  V30 20 P -0.192912 -1.811328 -1.539116 0 CFG=2 VAL=5
M  V30 21 O -0.479320 -1.766350 -3.016702 0
M  V30 22 O -1.522987 -1.243639 -0.662576 0 CHG=-1 VAL=1
M  V30 23 O 0.116073 -3.404873 -1.019809 0
M  V30 24 P -1.297393 -4.300885 -1.271927 0 CFG=1 VAL=5
M  V30 25 O -2.420463 -3.649929 -0.529018 0
M  V30 26 O -1.638508 -4.216146 -2.928774 0 CHG=-1 VAL=1
M  V30 27 O -1.138965 -5.884115 -0.747270 0
M  V30 28 P -0.201850 -6.050086 0.625565 0
M  V30 29 O -1.055306 -6.187062 1.878940 0
M  V30 30 O 0.793174 -7.414355 0.434730 0 CHG=-1 VAL=1
M  V30 31 O 0.828910 -4.738283 0.902796 0 CHG=-1 VAL=1
M  V30 32 H 4.728577 0.198453 1.612977 0
M  V30 33 H 3.108112 -2.120577 1.951419 0
M  V30 34 H 1.196890 -0.858526 2.756759 0
M  V30 35 H 2.564617 0.853133 4.289095 0
M  V30 36 H 2.658567 1.738405 2.513310 0
M  V30 37 H -0.048996 0.681264 3.985546 0
M  V30 38 H -0.327779 3.642252 -1.854626 0
M  V30 39 H -3.478432 4.162317 1.671853 0
M  V30 40 H -4.518688 2.681523 1.321313 0
M  V30 41 H 3.687934 -0.617775 -0.192358 0
M  V30 42 H 1.866396 -2.364644 -0.082443 0
M  V30 43 H 0.822775 -1.204780 0.790958 0
M  V30 END ATOM
M  V30 BEGIN BOND
M  V30 1 1 1 2
M  V30 2 1 2 3
M  V30 3 1 3 4
M  V30 4 1 3 5
M  V30 5 1 5 6
M  V30 6 1 6 7
M  V30 7 2 7 8
M  V30 8 1 8 9
M  V30 9 2 9 10
M  V30 10 1 10 11
M  V30 11 2 11 12
M  V30 12 1 12 13
M  V30 13 2 13 14
M  V30 14 1 14 15
M  V30 15 1 5 16
M  V30 16 1 16 17
M  V30 17 1 17 18
M  V30 18 1 18 19
M  V30 19 1 19 20
M  V30 20 2 20 21
M  V30 21 1 20 22 CFG=1
M  V30 22 1 20 23
M  V30 23 1 23 24
M  V30 24 2 24 25
M  V30 25 1 24 26 CFG=3
M  V30 26 1 24 27
M  V30 27 1 27 28
M  V30 28 2 28 29
M  V30 29 1 28 30
M  V30 30 1 28 31
M  V30 31 1 17 2
M  V30 32 1 10 6
M  V30 33 1 14 9
M  V30 34 1 1 32
M  V30 35 1 2 33 CFG=3
M  V30 36 1 3 34 CFG=1
M  V30 37 1 4 35
M  V30 38 1 5 36 CFG=1
M  V30 39 1 7 37
M  V30 40 1 12 38
M  V30 41 1 15 39
M  V30 42 1 15 40
M  V30 43 1 17 41 CFG=3
M  V30 44 1 18 42
M  V30 45 1 18 43
M  V30 END BOND
M  V30 END CTAB
M  END
>  <Dataset>  (134) 
PDB

>  <Ligand_Instance>  (134) 
4WB8_ATP_A_401

>  <PDB_ID>  (134) 
4WB8

>  <Standardized_SMILES>  (134) 
[H]O[C@@]1([H])[C@@]([H])(O[H])[C@]([H])(N2C([H])=NC3=C2N=C([H])N=C3N([H])[H])O[C@]1([H])C([H])([H])O[P@](=O)([O-])O[P@@](=O)([O-])OP(=O)([O-])[O-]

>  <Name>  (134) 
ADENOSINE-5'-TRIPHOSPHATE

>  <Pocket>  (134) 
A

>  <ATP_Site>  (134) 
1.0

>  <Peripheral>  (134) 
0.0

>  <Num_H_Atoms_ProtBoundConf>  (134) 
12.0

>  <Num_Resolved_Atoms>  (134) 
31.0

>  <Num_Not_Resolved_Atoms>  (134) 
0.0

>  <2D_Mol_H>  (134) 
<rdkit.Chem.rdchem.Mol object at 0x72a238da5d20>

>  <MW>  (134) 
503.15

>  <HBA>  (134) 
18

>  <HBD>  (134) 
3

>  <LogP>  (134) 
-4.157

>  <NRB>  (134) 
11

>  <TPSA>  (134) 
290.45

>  <Num_Heavy_Atoms>  (134) 
31

>  <Ro5>  (134) 
[False, False, True, True, False, False]

>  <Ro5_Fulfilled>  (134) 
False

>  <Ro3>  (134) 
[False, False, True, True]

>  <Ro3_Fulfilled>  (134) 
False

>  <Fsp3>  (134) 
0.5

>  <Fsp3_0.42>  (134) 
True

>  <Fsp3_0.45>  (134) 
True

>  <Stereogenic_Carbons>  (134) 
4

>  <C_Atoms>  (134) 
10

>  <FCStereo>  (134) 
0.4

>  <SPS>  (134) 
882

>  <nSPS>  (134) 
28.451613

>  <PBF>  (134) 
1.205103

>  <PBF_0.6>  (134) 
True

>  <nPBF>  (134) 
0.038874

>  <nPBF_0.016>  (134) 
True

>  <PMI1>  (134) 
2900.35281

>  <PMI2>  (134) 
5982.47364

>  <PMI3>  (134) 
7182.547833

>  <NPR1>  (134) 
0.403806

>  <NPR2>  (134) 
0.832918

>  <Sum_NPR>  (134) 
1.236724

>  <Sum_NPR_1.07>  (134) 
True

>  <Sum_NPR_1.2>  (134) 
True

>  <MaxAbsEStateIndex>  (134) 
11.591022

>  <MaxEStateIndex>  (134) 
11.591022

>  <MinAbsEStateIndex>  (134) 
0.019517

>  <MinEStateIndex>  (134) 
-6.13789

>  <qed>  (134) 
0.28788

>  <MolWt>  (134) 
503.15

>  <HeavyAtomMolWt>  (134) 
491.054

>  <ExactMolWt>  (134) 
502.96664

>  <NumValenceElectrons>  (134) 
174

>  <NumRadicalElectrons>  (134) 
0

>  <MaxPartialCharge>  (134) 
0.277775

>  <MinPartialCharge>  (134) 
-0.789509

>  <MaxAbsPartialCharge>  (134) 
0.789509

>  <MinAbsPartialCharge>  (134) 
0.277775

>  <FpDensityMorgan1>  (134) 
1.064516

>  <FpDensityMorgan2>  (134) 
1.741935

>  <FpDensityMorgan3>  (134) 
2.387097

>  <BCUT2D_MWHI>  (134) 
31.29809

>  <BCUT2D_MWLOW>  (134) 
10.128388

>  <BCUT2D_CHGHI>  (134) 
2.446414

>  <BCUT2D_CHGLO>  (134) 
-2.372117

>  <BCUT2D_LOGPHI>  (134) 
2.601149

>  <BCUT2D_LOGPLOW>  (134) 
-2.337005

>  <BCUT2D_MRHI>  (134) 
7.643939

>  <BCUT2D_MRLOW>  (134) 
-0.338932

>  <AvgIpc>  (134) 
3.133568

>  <BalabanJ>  (134) 
1.689409

>  <BertzCT>  (134) 
1104.784407

>  <Chi0>  (134) 
23.18987

>  <Chi0n>  (134) 
14.764212

>  <Chi0v>  (134) 
17.447494

>  <Chi1>  (134) 
14.190889

>  <Chi1n>  (134) 
7.849713

>  <Chi1v>  (134) 
12.231493

>  <Chi2n>  (134) 
5.929951

>  <Chi2v>  (134) 
10.177826

>  <Chi3n>  (134) 
3.795354

>  <Chi3v>  (134) 
7.460653

>  <Chi4n>  (134) 
2.601107

>  <Chi4v>  (134) 
5.466344

>  <HallKierAlpha>  (134) 
-1.36

>  <Ipc>  (134) 
3947352.346056

>  <Kappa1>  (134) 
24.285736

>  <Kappa2>  (134) 
8.532213

>  <Kappa3>  (134) 
5.714341

>  <LabuteASA>  (134) 
171.218329

>  <PEOE_VSA1>  (134) 
49.346027

>  <PEOE_VSA10>  (134) 
30.15592

>  <PEOE_VSA11>  (134) 
17.692941

>  <PEOE_VSA12>  (134) 
0.0

>  <PEOE_VSA13>  (134) 
15.645394

>  <PEOE_VSA14>  (134) 
0.0

>  <PEOE_VSA2>  (134) 
18.007828

>  <PEOE_VSA3>  (134) 
19.262567

>  <PEOE_VSA4>  (134) 
0.0

>  <PEOE_VSA5>  (134) 
0.0

>  <PEOE_VSA6>  (134) 
0.0

>  <PEOE_VSA7>  (134) 
0.0

>  <PEOE_VSA8>  (134) 
0.0

>  <PEOE_VSA9>  (134) 
20.756899

>  <SMR_VSA1>  (134) 
61.363719

>  <SMR_VSA10>  (134) 
40.449832

>  <SMR_VSA2>  (134) 
0.0

>  <SMR_VSA3>  (134) 
19.519035

>  <SMR_VSA4>  (134) 
0.0

>  <SMR_VSA5>  (134) 
24.5398

>  <SMR_VSA6>  (134) 
12.340549

>  <SMR_VSA7>  (134) 
12.65464

>  <SMR_VSA8>  (134) 
0.0

>  <SMR_VSA9>  (134) 
0.0

>  <SlogP_VSA1>  (134) 
25.307314

>  <SlogP_VSA10>  (134) 
5.817863

>  <SlogP_VSA11>  (134) 
0.0

>  <SlogP_VSA12>  (134) 
23.468091

>  <SlogP_VSA2>  (134) 
54.650871

>  <SlogP_VSA3>  (134) 
31.577018

>  <SlogP_VSA4>  (134) 
0.0

>  <SlogP_VSA5>  (134) 
6.227901

>  <SlogP_VSA6>  (134) 
12.65464

>  <SlogP_VSA7>  (134) 
0.0

>  <SlogP_VSA8>  (134) 
11.163878

>  <SlogP_VSA9>  (134) 
0.0

>  <EState_VSA1>  (134) 
54.614774

>  <EState_VSA10>  (134) 
43.481846

>  <EState_VSA11>  (134) 
0.0

>  <EState_VSA2>  (134) 
16.981741

>  <EState_VSA3>  (134) 
0.0

>  <EState_VSA4>  (134) 
12.65464

>  <EState_VSA5>  (134) 
4.5671

>  <EState_VSA6>  (134) 
0.0

>  <EState_VSA7>  (134) 
0.0

>  <EState_VSA8>  (134) 
28.096945

>  <EState_VSA9>  (134) 
10.47053

>  <VSA_EState1>  (134) 
50.204863

>  <VSA_EState10>  (134) 
0.0

>  <VSA_EState2>  (134) 
54.927006

>  <VSA_EState3>  (134) 
20.320829

>  <VSA_EState4>  (134) 
5.922478

>  <VSA_EState5>  (134) 
0.019517

>  <VSA_EState6>  (134) 
0.0

>  <VSA_EState7>  (134) 
-3.993378

>  <VSA_EState8>  (134) 
-1.07771

>  <VSA_EState9>  (134) 
-18.073605

>  <FractionCSP3>  (134) 
0.5

>  <HeavyAtomCount>  (134) 
31

>  <NHOHCount>  (134) 
4

>  <NOCount>  (134) 
18

>  <NumAliphaticCarbocycles>  (134) 
0

>  <NumAliphaticHeterocycles>  (134) 
1

>  <NumAliphaticRings>  (134) 
1

>  <NumAromaticCarbocycles>  (134) 
0

>  <NumAromaticHeterocycles>  (134) 
2

>  <NAR>  (134) 
2

>  <NumHAcceptors>  (134) 
18

>  <NumHDonors>  (134) 
3

>  <NumHeteroatoms>  (134) 
21

>  <NumRotatableBonds>  (134) 
8

>  <NumSaturatedCarbocycles>  (134) 
0

>  <NumSaturatedHeterocycles>  (134) 
1

>  <NumSaturatedRings>  (134) 
1

>  <RingCount>  (134) 
3

>  <MolLogP>  (134) 
-4.157

>  <MolMR>  (134) 
86.6005

>  <fr_Al_COO>  (134) 
0

>  <fr_Al_OH>  (134) 
2

>  <fr_Al_OH_noTert>  (134) 
2

>  <fr_ArN>  (134) 
1

>  <fr_Ar_COO>  (134) 
0

>  <fr_Ar_N>  (134) 
4

>  <fr_Ar_NH>  (134) 
0

>  <fr_Ar_OH>  (134) 
0

>  <fr_COO>  (134) 
0

>  <fr_COO2>  (134) 
0

>  <fr_C_O>  (134) 
0

>  <fr_C_O_noCOO>  (134) 
0

>  <fr_C_S>  (134) 
0

>  <fr_HOCCN>  (134) 
0

>  <fr_Imine>  (134) 
0

>  <fr_NH0>  (134) 
4

>  <fr_NH1>  (134) 
0

>  <fr_NH2>  (134) 
1

>  <fr_N_O>  (134) 
0

>  <fr_Ndealkylation1>  (134) 
0

>  <fr_Ndealkylation2>  (134) 
0

>  <fr_Nhpyrrole>  (134) 
0

>  <fr_SH>  (134) 
0

>  <fr_aldehyde>  (134) 
0

>  <fr_alkyl_carbamate>  (134) 
0

>  <fr_alkyl_halide>  (134) 
0

>  <fr_allylic_oxid>  (134) 
0

>  <fr_amide>  (134) 
0

>  <fr_amidine>  (134) 
0

>  <fr_aniline>  (134) 
1

>  <fr_aryl_methyl>  (134) 
0

>  <fr_azide>  (134) 
0

>  <fr_azo>  (134) 
0

>  <fr_barbitur>  (134) 
0

>  <fr_benzene>  (134) 
0

>  <fr_benzodiazepine>  (134) 
0

>  <fr_bicyclic>  (134) 
1

>  <fr_diazo>  (134) 
0

>  <fr_dihydropyridine>  (134) 
0

>  <fr_epoxide>  (134) 
0

>  <fr_ester>  (134) 
0

>  <fr_ether>  (134) 
1

>  <fr_furan>  (134) 
0

>  <fr_guanido>  (134) 
0

>  <fr_halogen>  (134) 
0

>  <fr_hdrzine>  (134) 
0

>  <fr_hdrzone>  (134) 
0

>  <fr_imidazole>  (134) 
1

>  <fr_imide>  (134) 
0

>  <fr_isocyan>  (134) 
0

>  <fr_isothiocyan>  (134) 
0

>  <fr_ketone>  (134) 
0

>  <fr_ketone_Topliss>  (134) 
0

>  <fr_lactam>  (134) 
0

>  <fr_lactone>  (134) 
0

>  <fr_methoxy>  (134) 
0

>  <fr_morpholine>  (134) 
0

>  <fr_nitrile>  (134) 
0

>  <fr_nitro>  (134) 
0

>  <fr_nitro_arom>  (134) 
0

>  <fr_nitro_arom_nonortho>  (134) 
0

>  <fr_nitroso>  (134) 
0

>  <fr_oxazole>  (134) 
0

>  <fr_oxime>  (134) 
0

>  <fr_para_hydroxylation>  (134) 
0

>  <fr_phenol>  (134) 
0

>  <fr_phenol_noOrthoHbond>  (134) 
0

>  <fr_phos_acid>  (134) 
3

>  <fr_phos_ester>  (134) 
1

>  <fr_piperdine>  (134) 
0

>  <fr_piperzine>  (134) 
0

>  <fr_priamide>  (134) 
0

>  <fr_prisulfonamd>  (134) 
0

>  <fr_pyridine>  (134) 
0

>  <fr_quatN>  (134) 
0

>  <fr_sulfide>  (134) 
0

>  <fr_sulfonamd>  (134) 
0

>  <fr_sulfone>  (134) 
0

>  <fr_term_acetylene>  (134) 
0

>  <fr_tetrazole>  (134) 
0

>  <fr_thiazole>  (134) 
0

>  <fr_thiocyan>  (134) 
0

>  <fr_thiophene>  (134) 
0

>  <fr_unbrch_alkane>  (134) 
0

>  <fr_urea>  (134) 
0

>  <NP-Likeness>  (134) 
0.811139

$$$$
ATP
     RDKit          3D

  0  0  0  0  0  0  0  0  0  0999 V3000
M  V30 BEGIN CTAB
M  V30 COUNTS 43 45 0 0 0
M  V30 BEGIN ATOM
M  V30 1 O -0.752625 -0.645306 4.167924 0
M  V30 2 C -0.287280 -0.130544 2.954110 0 CFG=1
M  V30 3 C 1.062409 0.529233 3.111287 0 CFG=1
M  V30 4 O 1.561324 0.122486 4.358940 0
M  V30 5 C 1.872256 -0.040373 2.001880 0 CFG=2
M  V30 6 N 2.655174 0.936313 1.279840 0
M  V30 7 C 3.991730 0.959673 1.006836 0
M  V30 8 N 4.294013 2.079590 0.294459 0
M  V30 9 C 3.132703 2.759812 0.122762 0
M  V30 10 C 2.111772 2.057986 0.730550 0
M  V30 11 N 0.896743 2.595565 0.652541 0
M  V30 12 C 0.632245 3.759152 0.024661 0
M  V30 13 N 1.675384 4.415601 -0.560952 0
M  V30 14 C 2.919427 3.954683 -0.533322 0
M  V30 15 N 4.014629 4.638066 -1.144753 0
M  V30 16 O 1.072111 -0.825670 1.194142 0
M  V30 17 C -0.060032 -1.162428 1.908048 0 CFG=2
M  V30 18 C -1.225804 -1.290465 0.946144 0
M  V30 19 O -0.929865 -2.285799 0.016639 0
M  V30 20 P -2.182901 -2.482747 -1.083950 0 CFG=1 VAL=5
M  V30 21 O -3.068741 -1.252515 -1.038359 0
M  V30 22 O -1.501053 -2.653926 -2.621840 0 CHG=-1 VAL=1
M  V30 23 O -3.143446 -3.819388 -0.702905 0
M  V30 24 P -2.682365 -5.196341 -1.552725 0 CFG=1 VAL=5
M  V30 25 O -3.773550 -5.515235 -2.549634 0
M  V30 26 O -1.163857 -5.035839 -2.286062 0 CHG=-1 VAL=1
M  V30 27 O -2.564842 -6.481863 -0.462880 0
M  V30 28 P -1.538508 -6.022836 0.825560 0
M  V30 29 O -1.409002 -7.137029 1.813622 0
M  V30 30 O -0.013140 -5.556214 0.258851 0 CHG=-1 VAL=1
M  V30 31 O -2.263221 -4.702310 1.604378 0 CHG=-1 VAL=1
M  V30 32 H -1.166572 0.112565 4.658125 0
M  V30 33 H -1.067513 0.605920 2.617684 0
M  V30 34 H 0.996559 1.646426 3.086282 0
M  V30 35 H 1.544214 -0.883194 4.330834 0
M  V30 36 H 2.628716 -0.750872 2.436167 0
M  V30 37 H 4.687317 0.189577 1.321370 0
M  V30 38 H -0.378896 4.165997 -0.016597 0
M  V30 39 H 4.706207 4.392080 -1.886147 0
M  V30 40 H 4.089756 5.593472 -0.710248 0
M  V30 41 H 0.077916 -2.153603 2.392832 0
M  V30 42 H -2.126972 -1.528746 1.547643 0
M  V30 43 H -1.347455 -0.340337 0.375052 0
M  V30 END ATOM
M  V30 BEGIN BOND
M  V30 1 1 1 2
M  V30 2 1 2 3
M  V30 3 1 3 4
M  V30 4 1 3 5
M  V30 5 1 5 6
M  V30 6 1 6 7
M  V30 7 2 7 8
M  V30 8 1 8 9
M  V30 9 2 9 10
M  V30 10 1 10 11
M  V30 11 2 11 12
M  V30 12 1 12 13
M  V30 13 2 13 14
M  V30 14 1 14 15
M  V30 15 1 5 16
M  V30 16 1 16 17
M  V30 17 1 17 18
M  V30 18 1 18 19
M  V30 19 1 19 20
M  V30 20 2 20 21
M  V30 21 1 20 22 CFG=3
M  V30 22 1 20 23
M  V30 23 1 23 24
M  V30 24 2 24 25
M  V30 25 1 24 26 CFG=3
M  V30 26 1 24 27
M  V30 27 1 27 28
M  V30 28 2 28 29
M  V30 29 1 28 30
M  V30 30 1 28 31
M  V30 31 1 17 2
M  V30 32 1 10 6
M  V30 33 1 14 9
M  V30 34 1 1 32
M  V30 35 1 2 33 CFG=3
M  V30 36 1 3 34 CFG=1
M  V30 37 1 4 35
M  V30 38 1 5 36 CFG=1
M  V30 39 1 7 37
M  V30 40 1 12 38
M  V30 41 1 15 39
M  V30 42 1 15 40
M  V30 43 1 17 41 CFG=1
M  V30 44 1 18 42
M  V30 45 1 18 43
M  V30 END BOND
M  V30 END CTAB
M  END
>  <Dataset>  (135) 
PDB

>  <Ligand_Instance>  (135) 
4XW5_ATP_A_403

>  <PDB_ID>  (135) 
4XW5

>  <Standardized_SMILES>  (135) 
[H]O[C@@]1([H])[C@@]([H])(O[H])[C@]([H])(N2C([H])=NC3=C2N=C([H])N=C3N([H])[H])O[C@]1([H])C([H])([H])O[P@@](=O)([O-])O[P@@](=O)([O-])OP(=O)([O-])[O-]

>  <Name>  (135) 
ADENOSINE-5'-TRIPHOSPHATE

>  <Pocket>  (135) 
A

>  <ATP_Site>  (135) 
1.0

>  <Peripheral>  (135) 
0.0

>  <Num_H_Atoms_ProtBoundConf>  (135) 
12.0

>  <Num_Resolved_Atoms>  (135) 
31.0

>  <Num_Not_Resolved_Atoms>  (135) 
0.0

>  <2D_Mol_H>  (135) 
<rdkit.Chem.rdchem.Mol object at 0x72a238da5e00>

>  <MW>  (135) 
503.15

>  <HBA>  (135) 
18

>  <HBD>  (135) 
3

>  <LogP>  (135) 
-4.157

>  <NRB>  (135) 
11

>  <TPSA>  (135) 
290.45

>  <Num_Heavy_Atoms>  (135) 
31

>  <Ro5>  (135) 
[False, False, True, True, False, False]

>  <Ro5_Fulfilled>  (135) 
False

>  <Ro3>  (135) 
[False, False, True, True]

>  <Ro3_Fulfilled>  (135) 
False

>  <Fsp3>  (135) 
0.5

>  <Fsp3_0.42>  (135) 
True

>  <Fsp3_0.45>  (135) 
True

>  <Stereogenic_Carbons>  (135) 
4

>  <C_Atoms>  (135) 
10

>  <FCStereo>  (135) 
0.4

>  <SPS>  (135) 
882

>  <nSPS>  (135) 
28.451613

>  <PBF>  (135) 
1.129331

>  <PBF_0.6>  (135) 
True

>  <nPBF>  (135) 
0.03643

>  <nPBF_0.016>  (135) 
True

>  <PMI1>  (135) 
2204.597104

>  <PMI2>  (135) 
8542.59284

>  <PMI3>  (135) 
9415.125871

>  <NPR1>  (135) 
0.234155

>  <NPR2>  (135) 
0.907326

>  <Sum_NPR>  (135) 
1.141481

>  <Sum_NPR_1.07>  (135) 
True

>  <Sum_NPR_1.2>  (135) 
False

>  <MaxAbsEStateIndex>  (135) 
11.591022

>  <MaxEStateIndex>  (135) 
11.591022

>  <MinAbsEStateIndex>  (135) 
0.019517

>  <MinEStateIndex>  (135) 
-6.13789

>  <qed>  (135) 
0.28788

>  <MolWt>  (135) 
503.15

>  <HeavyAtomMolWt>  (135) 
491.054

>  <ExactMolWt>  (135) 
502.96664

>  <NumValenceElectrons>  (135) 
174

>  <NumRadicalElectrons>  (135) 
0

>  <MaxPartialCharge>  (135) 
0.277775

>  <MinPartialCharge>  (135) 
-0.789509

>  <MaxAbsPartialCharge>  (135) 
0.789509

>  <MinAbsPartialCharge>  (135) 
0.277775

>  <FpDensityMorgan1>  (135) 
1.064516

>  <FpDensityMorgan2>  (135) 
1.741935

>  <FpDensityMorgan3>  (135) 
2.387097

>  <BCUT2D_MWHI>  (135) 
31.29809

>  <BCUT2D_MWLOW>  (135) 
10.128388

>  <BCUT2D_CHGHI>  (135) 
2.446414

>  <BCUT2D_CHGLO>  (135) 
-2.372117

>  <BCUT2D_LOGPHI>  (135) 
2.601149

>  <BCUT2D_LOGPLOW>  (135) 
-2.337005

>  <BCUT2D_MRHI>  (135) 
7.643939

>  <BCUT2D_MRLOW>  (135) 
-0.338932

>  <AvgIpc>  (135) 
3.133568

>  <BalabanJ>  (135) 
1.689409

>  <BertzCT>  (135) 
1104.784407

>  <Chi0>  (135) 
23.18987

>  <Chi0n>  (135) 
14.764212

>  <Chi0v>  (135) 
17.447494

>  <Chi1>  (135) 
14.190889

>  <Chi1n>  (135) 
7.849713

>  <Chi1v>  (135) 
12.231493

>  <Chi2n>  (135) 
5.929951

>  <Chi2v>  (135) 
10.177826

>  <Chi3n>  (135) 
3.795354

>  <Chi3v>  (135) 
7.460653

>  <Chi4n>  (135) 
2.601107

>  <Chi4v>  (135) 
5.466344

>  <HallKierAlpha>  (135) 
-1.36

>  <Ipc>  (135) 
3947352.346056

>  <Kappa1>  (135) 
24.285736

>  <Kappa2>  (135) 
8.532213

>  <Kappa3>  (135) 
5.714341

>  <LabuteASA>  (135) 
171.218329

>  <PEOE_VSA1>  (135) 
49.346027

>  <PEOE_VSA10>  (135) 
30.15592

>  <PEOE_VSA11>  (135) 
17.692941

>  <PEOE_VSA12>  (135) 
0.0

>  <PEOE_VSA13>  (135) 
15.645394

>  <PEOE_VSA14>  (135) 
0.0

>  <PEOE_VSA2>  (135) 
18.007828

>  <PEOE_VSA3>  (135) 
19.262567

>  <PEOE_VSA4>  (135) 
0.0

>  <PEOE_VSA5>  (135) 
0.0

>  <PEOE_VSA6>  (135) 
0.0

>  <PEOE_VSA7>  (135) 
0.0

>  <PEOE_VSA8>  (135) 
0.0

>  <PEOE_VSA9>  (135) 
20.756899

>  <SMR_VSA1>  (135) 
61.363719

>  <SMR_VSA10>  (135) 
40.449832

>  <SMR_VSA2>  (135) 
0.0

>  <SMR_VSA3>  (135) 
19.519035

>  <SMR_VSA4>  (135) 
0.0

>  <SMR_VSA5>  (135) 
24.5398

>  <SMR_VSA6>  (135) 
12.340549

>  <SMR_VSA7>  (135) 
12.65464

>  <SMR_VSA8>  (135) 
0.0

>  <SMR_VSA9>  (135) 
0.0

>  <SlogP_VSA1>  (135) 
25.307314

>  <SlogP_VSA10>  (135) 
5.817863

>  <SlogP_VSA11>  (135) 
0.0

>  <SlogP_VSA12>  (135) 
23.468091

>  <SlogP_VSA2>  (135) 
54.650871

>  <SlogP_VSA3>  (135) 
31.577018

>  <SlogP_VSA4>  (135) 
0.0

>  <SlogP_VSA5>  (135) 
6.227901

>  <SlogP_VSA6>  (135) 
12.65464

>  <SlogP_VSA7>  (135) 
0.0

>  <SlogP_VSA8>  (135) 
11.163878

>  <SlogP_VSA9>  (135) 
0.0

>  <EState_VSA1>  (135) 
54.614774

>  <EState_VSA10>  (135) 
43.481846

>  <EState_VSA11>  (135) 
0.0

>  <EState_VSA2>  (135) 
16.981741

>  <EState_VSA3>  (135) 
0.0

>  <EState_VSA4>  (135) 
12.65464

>  <EState_VSA5>  (135) 
4.5671

>  <EState_VSA6>  (135) 
0.0

>  <EState_VSA7>  (135) 
0.0

>  <EState_VSA8>  (135) 
28.096945

>  <EState_VSA9>  (135) 
10.47053

>  <VSA_EState1>  (135) 
50.204863

>  <VSA_EState10>  (135) 
0.0

>  <VSA_EState2>  (135) 
54.927006

>  <VSA_EState3>  (135) 
20.320829

>  <VSA_EState4>  (135) 
5.922478

>  <VSA_EState5>  (135) 
0.019517

>  <VSA_EState6>  (135) 
0.0

>  <VSA_EState7>  (135) 
-3.993378

>  <VSA_EState8>  (135) 
-1.07771

>  <VSA_EState9>  (135) 
-18.073605

>  <FractionCSP3>  (135) 
0.5

>  <HeavyAtomCount>  (135) 
31

>  <NHOHCount>  (135) 
4

>  <NOCount>  (135) 
18

>  <NumAliphaticCarbocycles>  (135) 
0

>  <NumAliphaticHeterocycles>  (135) 
1

>  <NumAliphaticRings>  (135) 
1

>  <NumAromaticCarbocycles>  (135) 
0

>  <NumAromaticHeterocycles>  (135) 
2

>  <NAR>  (135) 
2

>  <NumHAcceptors>  (135) 
18

>  <NumHDonors>  (135) 
3

>  <NumHeteroatoms>  (135) 
21

>  <NumRotatableBonds>  (135) 
8

>  <NumSaturatedCarbocycles>  (135) 
0

>  <NumSaturatedHeterocycles>  (135) 
1

>  <NumSaturatedRings>  (135) 
1

>  <RingCount>  (135) 
3

>  <MolLogP>  (135) 
-4.157

>  <MolMR>  (135) 
86.6005

>  <fr_Al_COO>  (135) 
0

>  <fr_Al_OH>  (135) 
2

>  <fr_Al_OH_noTert>  (135) 
2

>  <fr_ArN>  (135) 
1

>  <fr_Ar_COO>  (135) 
0

>  <fr_Ar_N>  (135) 
4

>  <fr_Ar_NH>  (135) 
0

>  <fr_Ar_OH>  (135) 
0

>  <fr_COO>  (135) 
0

>  <fr_COO2>  (135) 
0

>  <fr_C_O>  (135) 
0

>  <fr_C_O_noCOO>  (135) 
0

>  <fr_C_S>  (135) 
0

>  <fr_HOCCN>  (135) 
0

>  <fr_Imine>  (135) 
0

>  <fr_NH0>  (135) 
4

>  <fr_NH1>  (135) 
0

>  <fr_NH2>  (135) 
1

>  <fr_N_O>  (135) 
0

>  <fr_Ndealkylation1>  (135) 
0

>  <fr_Ndealkylation2>  (135) 
0

>  <fr_Nhpyrrole>  (135) 
0

>  <fr_SH>  (135) 
0

>  <fr_aldehyde>  (135) 
0

>  <fr_alkyl_carbamate>  (135) 
0

>  <fr_alkyl_halide>  (135) 
0

>  <fr_allylic_oxid>  (135) 
0

>  <fr_amide>  (135) 
0

>  <fr_amidine>  (135) 
0

>  <fr_aniline>  (135) 
1

>  <fr_aryl_methyl>  (135) 
0

>  <fr_azide>  (135) 
0

>  <fr_azo>  (135) 
0

>  <fr_barbitur>  (135) 
0

>  <fr_benzene>  (135) 
0

>  <fr_benzodiazepine>  (135) 
0

>  <fr_bicyclic>  (135) 
1

>  <fr_diazo>  (135) 
0

>  <fr_dihydropyridine>  (135) 
0

>  <fr_epoxide>  (135) 
0

>  <fr_ester>  (135) 
0

>  <fr_ether>  (135) 
1

>  <fr_furan>  (135) 
0

>  <fr_guanido>  (135) 
0

>  <fr_halogen>  (135) 
0

>  <fr_hdrzine>  (135) 
0

>  <fr_hdrzone>  (135) 
0

>  <fr_imidazole>  (135) 
1

>  <fr_imide>  (135) 
0

>  <fr_isocyan>  (135) 
0

>  <fr_isothiocyan>  (135) 
0

>  <fr_ketone>  (135) 
0

>  <fr_ketone_Topliss>  (135) 
0

>  <fr_lactam>  (135) 
0

>  <fr_lactone>  (135) 
0

>  <fr_methoxy>  (135) 
0

>  <fr_morpholine>  (135) 
0

>  <fr_nitrile>  (135) 
0

>  <fr_nitro>  (135) 
0

>  <fr_nitro_arom>  (135) 
0

>  <fr_nitro_arom_nonortho>  (135) 
0

>  <fr_nitroso>  (135) 
0

>  <fr_oxazole>  (135) 
0

>  <fr_oxime>  (135) 
0

>  <fr_para_hydroxylation>  (135) 
0

>  <fr_phenol>  (135) 
0

>  <fr_phenol_noOrthoHbond>  (135) 
0

>  <fr_phos_acid>  (135) 
3

>  <fr_phos_ester>  (135) 
1

>  <fr_piperdine>  (135) 
0

>  <fr_piperzine>  (135) 
0

>  <fr_priamide>  (135) 
0

>  <fr_prisulfonamd>  (135) 
0

>  <fr_pyridine>  (135) 
0

>  <fr_quatN>  (135) 
0

>  <fr_sulfide>  (135) 
0

>  <fr_sulfonamd>  (135) 
0

>  <fr_sulfone>  (135) 
0

>  <fr_term_acetylene>  (135) 
0

>  <fr_tetrazole>  (135) 
0

>  <fr_thiazole>  (135) 
0

>  <fr_thiocyan>  (135) 
0

>  <fr_thiophene>  (135) 
0

>  <fr_unbrch_alkane>  (135) 
0

>  <fr_urea>  (135) 
0

>  <NP-Likeness>  (135) 
0.811139

$$$$
B4Z
     RDKit          3D

  0  0  0  0  0  0  0  0  0  0999 V3000
M  V30 BEGIN CTAB
M  V30 COUNTS 44 46 0 0 0
M  V30 BEGIN ATOM
M  V30 1 C 0.564975 -3.347619 1.207531 0
M  V30 2 N 1.594141 -4.200335 1.402825 0
M  V30 3 C 2.658572 -4.151168 0.566725 0
M  V30 4 C 2.678678 -3.236701 -0.467550 0
M  V30 5 C 3.748732 -3.152994 -1.346300 0
M  V30 6 C 3.803027 -2.251827 -2.390868 0
M  V30 7 C 2.746816 -1.389333 -2.577200 0
M  V30 8 C 1.643498 -1.421541 -1.731455 0
M  V30 9 S 0.243136 -0.381684 -1.862996 0
M  V30 10 O -0.995251 -1.090217 -2.252061 0
M  V30 11 O 0.547568 0.617762 -2.968067 0
M  V30 12 N 0.058384 0.544343 -0.422628 0
M  V30 13 C 1.172198 1.404126 -0.168863 0
M  V30 14 C 1.048333 2.234598 1.087551 0
M  V30 15 N 0.916551 1.439953 2.291381 0 CHG=1 VAL=4
M  V30 16 C -0.156868 1.878619 3.141922 0
M  V30 17 C -1.435186 1.152516 2.907733 0
M  V30 18 C -1.716789 -0.014957 3.625403 0
M  V30 19 C -2.854070 -0.785982 3.512630 0
M  V30 20 C -3.800717 -0.355757 2.600287 0
M  V30 21 C -3.572054 0.790478 1.866175 0
M  V30 22 C -2.419820 1.540599 2.004133 0
M  V30 23 C 1.639160 -2.341021 -0.703137 0
M  V30 24 C 0.574191 -2.425201 0.172384 0
M  V30 25 H -0.306021 -3.372667 1.874745 0
M  V30 26 H 3.503383 -4.830678 0.704230 0
M  V30 27 H 4.579754 -3.841420 -1.188751 0
M  V30 28 H 4.659409 -2.214932 -3.060634 0
M  V30 29 H 2.709786 -0.650184 -3.374091 0
M  V30 30 H -0.857868 0.995611 -0.377404 0
M  V30 31 H 2.119532 0.863384 -0.172560 0
M  V30 32 H 1.219083 2.133157 -1.005231 0
M  V30 33 H 1.952813 2.877256 1.119337 0
M  V30 34 H 0.184824 2.925513 1.035969 0
M  V30 35 H 1.807243 1.541537 2.825133 0
M  V30 36 H 0.807360 0.423118 2.094669 0
M  V30 37 H 0.124175 1.657217 4.190829 0
M  V30 38 H -0.356390 2.962438 3.053871 0
M  V30 39 H -0.943738 -0.325926 4.339626 0
M  V30 40 H -2.930804 -1.673991 4.143295 0
M  V30 41 H -4.699115 -0.956812 2.505121 0
M  V30 42 H -4.341540 1.090845 1.162209 0
M  V30 43 H -2.231078 2.441239 1.432918 0
M  V30 44 H -0.290131 -1.772182 0.078748 0
M  V30 END ATOM
M  V30 BEGIN BOND
M  V30 1 2 1 2
M  V30 2 1 2 3
M  V30 3 2 3 4
M  V30 4 1 4 5
M  V30 5 2 5 6
M  V30 6 1 6 7
M  V30 7 2 7 8
M  V30 8 1 8 9
M  V30 9 2 9 10
M  V30 10 2 9 11
M  V30 11 1 9 12
M  V30 12 1 12 13
M  V30 13 1 13 14
M  V30 14 1 14 15
M  V30 15 1 15 16
M  V30 16 1 16 17
M  V30 17 2 17 18
M  V30 18 1 18 19
M  V30 19 2 19 20
M  V30 20 1 20 21
M  V30 21 2 21 22
M  V30 22 1 8 23
M  V30 23 2 23 24
M  V30 24 1 24 1
M  V30 25 1 23 4
M  V30 26 1 22 17
M  V30 27 1 1 25
M  V30 28 1 3 26
M  V30 29 1 5 27
M  V30 30 1 6 28
M  V30 31 1 7 29
M  V30 32 1 12 30
M  V30 33 1 13 31
M  V30 34 1 13 32
M  V30 35 1 14 33
M  V30 36 1 14 34
M  V30 37 1 15 35
M  V30 38 1 15 36
M  V30 39 1 16 37
M  V30 40 1 16 38
M  V30 41 1 18 39
M  V30 42 1 19 40
M  V30 43 1 20 41
M  V30 44 1 21 42
M  V30 45 1 22 43
M  V30 46 1 24 44
M  V30 END BOND
M  V30 END CTAB
M  END
>  <Dataset>  (136) 
PDB

>  <Ligand_Instance>  (136) 
6EH3_B4Z_A_401

>  <PDB_ID>  (136) 
6EH3

>  <Standardized_SMILES>  (136) 
[H]C1=NC([H])=C2C([H])=C([H])C([H])=C(S(=O)(=O)N([H])C([H])([H])C([H])([H])[N+]([H])([H])C([H])([H])C3=C([H])C([H])=C([H])C([H])=C3[H])C2=C1[H]

>  <Name>  (136) 
~{N}-[2-[(phenylmethyl)amino]ethyl]isoquinoline-5-sulfonamide

>  <Pocket>  (136) 
A

>  <ATP_Site>  (136) 
1.0

>  <Peripheral>  (136) 
0.0

>  <Num_H_Atoms_ProtBoundConf>  (136) 
20.0

>  <Num_Resolved_Atoms>  (136) 
24.0

>  <Num_Not_Resolved_Atoms>  (136) 
0.0

>  <2D_Mol_H>  (136) 
<rdkit.Chem.rdchem.Mol object at 0x72a238da5ee0>

>  <MW>  (136) 
342.444

>  <HBA>  (136) 
3

>  <HBD>  (136) 
2

>  <LogP>  (136) 
1.2767

>  <NRB>  (136) 
7

>  <TPSA>  (136) 
75.67

>  <Num_Heavy_Atoms>  (136) 
24

>  <Ro5>  (136) 
[True, True, True, True, True, True]

>  <Ro5_Fulfilled>  (136) 
True

>  <Ro3>  (136) 
[False, True, True, True]

>  <Ro3_Fulfilled>  (136) 
True

>  <Fsp3>  (136) 
0.166667

>  <Fsp3_0.42>  (136) 
False

>  <Fsp3_0.45>  (136) 
False

>  <Stereogenic_Carbons>  (136) 
0

>  <C_Atoms>  (136) 
18

>  <FCStereo>  (136) 
0.0

>  <SPS>  (136) 
280

>  <nSPS>  (136) 
11.666667

>  <PBF>  (136) 
1.136659

>  <PBF_0.6>  (136) 
True

>  <nPBF>  (136) 
0.047361

>  <nPBF_0.016>  (136) 
True

>  <PMI1>  (136) 
1519.488463

>  <PMI2>  (136) 
3177.709389

>  <PMI3>  (136) 
3642.679927

>  <NPR1>  (136) 
0.417135

>  <NPR2>  (136) 
0.872355

>  <Sum_NPR>  (136) 
1.28949

>  <Sum_NPR_1.07>  (136) 
True

>  <Sum_NPR_1.2>  (136) 
True

>  <MaxAbsEStateIndex>  (136) 
12.533888

>  <MaxEStateIndex>  (136) 
12.533888

>  <MinAbsEStateIndex>  (136) 
0.296722

>  <MinEStateIndex>  (136) 
-3.529752

>  <qed>  (136) 
0.635191

>  <MolWt>  (136) 
342.444

>  <HeavyAtomMolWt>  (136) 
322.284

>  <ExactMolWt>  (136) 
342.127074

>  <NumValenceElectrons>  (136) 
124

>  <NumRadicalElectrons>  (136) 
0

>  <MaxPartialCharge>  (136) 
0.240888

>  <MinPartialCharge>  (136) 
-0.341417

>  <MaxAbsPartialCharge>  (136) 
0.341417

>  <MinAbsPartialCharge>  (136) 
0.240888

>  <FpDensityMorgan1>  (136) 
1.0

>  <FpDensityMorgan2>  (136) 
1.833333

>  <FpDensityMorgan3>  (136) 
2.666667

>  <BCUT2D_MWHI>  (136) 
32.233271

>  <BCUT2D_MWLOW>  (136) 
10.168343

>  <BCUT2D_CHGHI>  (136) 
2.162105

>  <BCUT2D_CHGLO>  (136) 
-2.087936

>  <BCUT2D_LOGPHI>  (136) 
2.209576

>  <BCUT2D_LOGPLOW>  (136) 
-2.836516

>  <BCUT2D_MRHI>  (136) 
7.893361

>  <BCUT2D_MRLOW>  (136) 
-0.66823

>  <AvgIpc>  (136) 
2.615265

>  <BalabanJ>  (136) 
1.596062

>  <BertzCT>  (136) 
906.459895

>  <Chi0>  (136) 
16.830216

>  <Chi0n>  (136) 
13.221482

>  <Chi0v>  (136) 
14.037979

>  <Chi1>  (136) 
11.666633

>  <Chi1n>  (136) 
7.846967

>  <Chi1v>  (136) 
9.33013

>  <Chi2n>  (136) 
5.517807

>  <Chi2v>  (136) 
7.253182

>  <Chi3n>  (136) 
3.793659

>  <Chi3v>  (136) 
5.312849

>  <Chi4n>  (136) 
2.58309

>  <Chi4v>  (136) 
3.858299

>  <HallKierAlpha>  (136) 
-2.28

>  <Ipc>  (136) 
361638.801905

>  <Kappa1>  (136) 
16.573337

>  <Kappa2>  (136) 
7.526221

>  <Kappa3>  (136) 
3.970361

>  <LabuteASA>  (136) 
141.345136

>  <PEOE_VSA1>  (136) 
5.316789

>  <PEOE_VSA10>  (136) 
6.544756

>  <PEOE_VSA11>  (136) 
0.0

>  <PEOE_VSA12>  (136) 
10.023291

>  <PEOE_VSA13>  (136) 
0.0

>  <PEOE_VSA14>  (136) 
0.0

>  <PEOE_VSA2>  (136) 
4.983979

>  <PEOE_VSA3>  (136) 
13.139892

>  <PEOE_VSA4>  (136) 
0.0

>  <PEOE_VSA5>  (136) 
0.0

>  <PEOE_VSA6>  (136) 
42.464569

>  <PEOE_VSA7>  (136) 
12.132734

>  <PEOE_VSA8>  (136) 
28.729587

>  <PEOE_VSA9>  (136) 
17.984996

>  <SMR_VSA1>  (136) 
13.734586

>  <SMR_VSA10>  (136) 
20.79574

>  <SMR_VSA2>  (136) 
0.0

>  <SMR_VSA3>  (136) 
9.706073

>  <SMR_VSA4>  (136) 
0.0

>  <SMR_VSA5>  (136) 
11.44024

>  <SMR_VSA6>  (136) 
13.089513

>  <SMR_VSA7>  (136) 
72.554442

>  <SMR_VSA8>  (136) 
0.0

>  <SMR_VSA9>  (136) 
0.0

>  <SlogP_VSA1>  (136) 
10.038883

>  <SlogP_VSA10>  (136) 
0.0

>  <SlogP_VSA11>  (136) 
0.0

>  <SlogP_VSA12>  (136) 
0.0

>  <SlogP_VSA2>  (136) 
26.491288

>  <SlogP_VSA3>  (136) 
16.568048

>  <SlogP_VSA4>  (136) 
0.0

>  <SlogP_VSA5>  (136) 
5.563451

>  <SlogP_VSA6>  (136) 
71.886474

>  <SlogP_VSA7>  (136) 
0.0

>  <SlogP_VSA8>  (136) 
10.772448

>  <SlogP_VSA9>  (136) 
0.0

>  <EState_VSA1>  (136) 
10.023291

>  <EState_VSA10>  (136) 
8.417797

>  <EState_VSA11>  (136) 
0.0

>  <EState_VSA2>  (136) 
0.0

>  <EState_VSA3>  (136) 
23.371221

>  <EState_VSA4>  (136) 
11.930981

>  <EState_VSA5>  (136) 
5.563451

>  <EState_VSA6>  (136) 
30.592788

>  <EState_VSA7>  (136) 
24.265468

>  <EState_VSA8>  (136) 
27.155596

>  <EState_VSA9>  (136) 
0.0

>  <VSA_EState1>  (136) 
27.742047

>  <VSA_EState10>  (136) 
0.0

>  <VSA_EState2>  (136) 
4.327829

>  <VSA_EState3>  (136) 
3.592132

>  <VSA_EState4>  (136) 
1.223991

>  <VSA_EState5>  (136) 
0.0

>  <VSA_EState6>  (136) 
17.049933

>  <VSA_EState7>  (136) 
3.274784

>  <VSA_EState8>  (136) 
1.90237

>  <VSA_EState9>  (136) 
-3.529752

>  <FractionCSP3>  (136) 
0.166667

>  <HeavyAtomCount>  (136) 
24

>  <NHOHCount>  (136) 
3

>  <NOCount>  (136) 
5

>  <NumAliphaticCarbocycles>  (136) 
0

>  <NumAliphaticHeterocycles>  (136) 
0

>  <NumAliphaticRings>  (136) 
0

>  <NumAromaticCarbocycles>  (136) 
2

>  <NumAromaticHeterocycles>  (136) 
1

>  <NAR>  (136) 
3

>  <NumHAcceptors>  (136) 
3

>  <NumHDonors>  (136) 
2

>  <NumHeteroatoms>  (136) 
6

>  <NumRotatableBonds>  (136) 
7

>  <NumSaturatedCarbocycles>  (136) 
0

>  <NumSaturatedHeterocycles>  (136) 
0

>  <NumSaturatedRings>  (136) 
0

>  <RingCount>  (136) 
3

>  <MolLogP>  (136) 
1.2767

>  <MolMR>  (136) 
93.8699

>  <fr_Al_COO>  (136) 
0

>  <fr_Al_OH>  (136) 
0

>  <fr_Al_OH_noTert>  (136) 
0

>  <fr_ArN>  (136) 
0

>  <fr_Ar_COO>  (136) 
0

>  <fr_Ar_N>  (136) 
1

>  <fr_Ar_NH>  (136) 
0

>  <fr_Ar_OH>  (136) 
0

>  <fr_COO>  (136) 
0

>  <fr_COO2>  (136) 
0

>  <fr_C_O>  (136) 
0

>  <fr_C_O_noCOO>  (136) 
0

>  <fr_C_S>  (136) 
0

>  <fr_HOCCN>  (136) 
0

>  <fr_Imine>  (136) 
0

>  <fr_NH0>  (136) 
1

>  <fr_NH1>  (136) 
1

>  <fr_NH2>  (136) 
1

>  <fr_N_O>  (136) 
0

>  <fr_Ndealkylation1>  (136) 
0

>  <fr_Ndealkylation2>  (136) 
0

>  <fr_Nhpyrrole>  (136) 
0

>  <fr_SH>  (136) 
0

>  <fr_aldehyde>  (136) 
0

>  <fr_alkyl_carbamate>  (136) 
0

>  <fr_alkyl_halide>  (136) 
0

>  <fr_allylic_oxid>  (136) 
0

>  <fr_amide>  (136) 
0

>  <fr_amidine>  (136) 
0

>  <fr_aniline>  (136) 
0

>  <fr_aryl_methyl>  (136) 
0

>  <fr_azide>  (136) 
0

>  <fr_azo>  (136) 
0

>  <fr_barbitur>  (136) 
0

>  <fr_benzene>  (136) 
2

>  <fr_benzodiazepine>  (136) 
0

>  <fr_bicyclic>  (136) 
1

>  <fr_diazo>  (136) 
0

>  <fr_dihydropyridine>  (136) 
0

>  <fr_epoxide>  (136) 
0

>  <fr_ester>  (136) 
0

>  <fr_ether>  (136) 
0

>  <fr_furan>  (136) 
0

>  <fr_guanido>  (136) 
0

>  <fr_halogen>  (136) 
0

>  <fr_hdrzine>  (136) 
0

>  <fr_hdrzone>  (136) 
0

>  <fr_imidazole>  (136) 
0

>  <fr_imide>  (136) 
0

>  <fr_isocyan>  (136) 
0

>  <fr_isothiocyan>  (136) 
0

>  <fr_ketone>  (136) 
0

>  <fr_ketone_Topliss>  (136) 
0

>  <fr_lactam>  (136) 
0

>  <fr_lactone>  (136) 
0

>  <fr_methoxy>  (136) 
0

>  <fr_morpholine>  (136) 
0

>  <fr_nitrile>  (136) 
0

>  <fr_nitro>  (136) 
0

>  <fr_nitro_arom>  (136) 
0

>  <fr_nitro_arom_nonortho>  (136) 
0

>  <fr_nitroso>  (136) 
0

>  <fr_oxazole>  (136) 
0

>  <fr_oxime>  (136) 
0

>  <fr_para_hydroxylation>  (136) 
0

>  <fr_phenol>  (136) 
0

>  <fr_phenol_noOrthoHbond>  (136) 
0

>  <fr_phos_acid>  (136) 
0

>  <fr_phos_ester>  (136) 
0

>  <fr_piperdine>  (136) 
0

>  <fr_piperzine>  (136) 
0

>  <fr_priamide>  (136) 
0

>  <fr_prisulfonamd>  (136) 
0

>  <fr_pyridine>  (136) 
1

>  <fr_quatN>  (136) 
1

>  <fr_sulfide>  (136) 
0

>  <fr_sulfonamd>  (136) 
1

>  <fr_sulfone>  (136) 
0

>  <fr_term_acetylene>  (136) 
0

>  <fr_tetrazole>  (136) 
0

>  <fr_thiazole>  (136) 
0

>  <fr_thiocyan>  (136) 
0

>  <fr_thiophene>  (136) 
0

>  <fr_unbrch_alkane>  (136) 
0

>  <fr_urea>  (136) 
0

>  <NP-Likeness>  (136) 
-1.113919

$$$$
B99
     RDKit          3D

  0  0  0  0  0  0  0  0  0  0999 V3000
M  V30 BEGIN CTAB
M  V30 COUNTS 61 66 0 0 0
M  V30 BEGIN ATOM
M  V30 1 C -0.992645 -2.002106 3.843679 0
M  V30 2 N -0.254154 -1.194495 4.650347 0
M  V30 3 C 0.661212 -0.371933 4.094921 0
M  V30 4 C 1.574192 0.583105 4.677532 0
M  V30 5 C 2.604565 0.210091 5.506237 0
M  V30 6 O 3.248088 1.273211 5.871042 0
M  V30 7 C 2.755298 2.369824 5.366733 0
M  V30 8 C 1.673531 1.971783 4.589658 0
M  V30 9 C 0.796321 -0.398792 2.720319 0
M  V30 10 C 1.725162 0.418364 1.910046 0
M  V30 11 C 3.101365 0.446614 1.997956 0
M  V30 12 C 3.833080 1.261967 1.164253 0
M  V30 13 C 3.244978 2.077679 0.215886 0
M  V30 14 C 1.870015 2.050104 0.127361 0
M  V30 15 C 1.146679 1.233903 0.962818 0
M  V30 16 C 1.565738 2.943411 -0.884052 0
M  V30 17 C 0.161102 3.203835 -1.294351 0
M  V30 18 N 2.713492 3.464385 -1.358869 0
M  V30 19 N 3.725818 2.935299 -0.687875 0
M  V30 20 C 0.033330 -1.229106 1.922251 0
M  V30 21 C -0.894530 -2.066384 2.457770 0
M  V30 22 O -1.800527 -2.990609 2.016031 0
M  V30 23 C -2.041914 -3.403066 0.695422 0
M  V30 24 C -0.888489 -4.085376 0.033534 0 CFG=2
M  V30 25 C -1.160507 -4.406563 -1.396184 0
M  V30 26 C -1.462619 -3.261740 -2.257985 0
M  V30 27 C -0.457170 -2.643526 -2.994558 0
M  V30 28 N -0.939578 -1.585379 -3.698467 0
M  V30 29 C -2.272744 -1.509474 -3.421570 0
M  V30 30 C -3.215411 -0.613113 -3.898997 0
M  V30 31 C -4.512807 -0.796744 -3.446098 0
M  V30 32 C -4.834838 -1.818655 -2.569451 0
M  V30 33 C -3.891438 -2.702378 -2.101615 0
M  V30 34 C -2.587477 -2.533176 -2.543647 0
M  V30 35 N -0.498247 -5.291317 0.777148 0 CHG=1 VAL=4
M  V30 36 H -1.644542 -2.556700 4.513796 0
M  V30 37 H 2.977095 -0.730755 5.901560 0
M  V30 38 H 2.884853 3.437833 5.339120 0
M  V30 39 H 0.929434 2.454744 3.966060 0
M  V30 40 H 3.522736 -0.208433 2.755731 0
M  V30 41 H 4.901532 1.270521 1.247789 0
M  V30 42 H 0.060998 1.256371 0.843439 0
M  V30 43 H -0.525573 3.126844 -0.420710 0
M  V30 44 H 0.110002 4.223236 -1.692373 0
M  V30 45 H -0.104335 2.448250 -2.052231 0
M  V30 46 H 4.717031 3.180015 -0.871189 0
M  V30 47 H 0.076131 -1.291106 0.851433 0
M  V30 48 H -2.197862 -2.436901 0.108106 0
M  V30 49 H -2.981766 -3.963620 0.644534 0
M  V30 50 H 0.006597 -3.441144 0.082466 0
M  V30 51 H -0.315467 -5.002326 -1.803439 0
M  V30 52 H -2.035807 -5.106639 -1.420704 0
M  V30 53 H 0.607960 -2.908845 -3.055784 0
M  V30 54 H -0.421487 -0.944595 -4.328906 0
M  V30 55 H -2.935324 0.162925 -4.573341 0
M  V30 56 H -5.236377 -0.083607 -3.832483 0
M  V30 57 H -5.872905 -1.930701 -2.235559 0
M  V30 58 H -4.090654 -3.510960 -1.422702 0
M  V30 59 H 0.334631 -5.678503 0.312321 0
M  V30 60 H -1.264166 -5.982953 0.803142 0
M  V30 61 H -0.259418 -4.983212 1.728126 0
M  V30 END ATOM
M  V30 BEGIN BOND
M  V30 1 2 1 2
M  V30 2 1 2 3
M  V30 3 1 3 4
M  V30 4 2 4 5
M  V30 5 1 5 6
M  V30 6 1 6 7
M  V30 7 2 7 8
M  V30 8 2 3 9
M  V30 9 1 9 10
M  V30 10 2 10 11
M  V30 11 1 11 12
M  V30 12 2 12 13
M  V30 13 1 13 14
M  V30 14 2 14 15
M  V30 15 1 14 16
M  V30 16 1 16 17
M  V30 17 2 16 18
M  V30 18 1 18 19
M  V30 19 1 9 20
M  V30 20 2 20 21
M  V30 21 1 21 22
M  V30 22 1 22 23
M  V30 23 1 23 24
M  V30 24 1 24 25
M  V30 25 1 25 26
M  V30 26 2 26 27
M  V30 27 1 27 28
M  V30 28 1 28 29
M  V30 29 2 29 30
M  V30 30 1 30 31
M  V30 31 2 31 32
M  V30 32 1 32 33
M  V30 33 2 33 34
M  V30 34 1 24 35
M  V30 35 1 21 1
M  V30 36 1 34 26
M  V30 37 1 8 4
M  V30 38 1 15 10
M  V30 39 1 34 29
M  V30 40 1 19 13
M  V30 41 1 1 36
M  V30 42 1 5 37
M  V30 43 1 7 38
M  V30 44 1 8 39
M  V30 45 1 11 40
M  V30 46 1 12 41
M  V30 47 1 15 42
M  V30 48 1 17 43
M  V30 49 1 17 44
M  V30 50 1 17 45
M  V30 51 1 19 46
M  V30 52 1 20 47
M  V30 53 1 23 48
M  V30 54 1 23 49
M  V30 55 1 24 50 CFG=3
M  V30 56 1 25 51
M  V30 57 1 25 52
M  V30 58 1 27 53
M  V30 59 1 28 54
M  V30 60 1 30 55
M  V30 61 1 31 56
M  V30 62 1 32 57
M  V30 63 1 33 58
M  V30 64 1 35 59
M  V30 65 1 35 60
M  V30 66 1 35 61
M  V30 END BOND
M  V30 END CTAB
M  END
>  <Dataset>  (137) 
PDB

>  <Ligand_Instance>  (137) 
3KKV_B99_A_351

>  <PDB_ID>  (137) 
3KKV

>  <Standardized_SMILES>  (137) 
[H]C1=NC(C2=C([H])OC([H])=C2[H])=C(C2=C([H])C([H])=C3C(=C2[H])C(C([H])([H])[H])=NN3[H])C([H])=C1OC([H])([H])[C@]([H])(C([H])([H])C1=C([H])N([H])C2=C([H])C([H])=C([H])C([H])=C21)[N+]([H])([H])[H]

>  <Name>  (137) 
(2S)-1-{[6-furan-3-yl-5-(3-methyl-2H-indazol-5-yl)pyridin-3-yl]oxy}-3-(1H-indol-3-yl)propan-2-amine

>  <Pocket>  (137) 
A

>  <ATP_Site>  (137) 
1.0

>  <Peripheral>  (137) 
0.0

>  <Num_H_Atoms_ProtBoundConf>  (137) 
26.0

>  <Num_Resolved_Atoms>  (137) 
35.0

>  <Num_Not_Resolved_Atoms>  (137) 
0.0

>  <2D_Mol_H>  (137) 
<rdkit.Chem.rdchem.Mol object at 0x72a238da5fc0>

>  <MW>  (137) 
464.549

>  <HBA>  (137) 
4

>  <HBD>  (137) 
3

>  <LogP>  (137) 
4.90662

>  <NRB>  (137) 
9

>  <TPSA>  (137) 
107.37

>  <Num_Heavy_Atoms>  (137) 
35

>  <Ro5>  (137) 
[True, True, True, True, True, True]

>  <Ro5_Fulfilled>  (137) 
True

>  <Ro3>  (137) 
[False, False, True, False]

>  <Ro3_Fulfilled>  (137) 
False

>  <Fsp3>  (137) 
0.142857

>  <Fsp3_0.42>  (137) 
False

>  <Fsp3_0.45>  (137) 
False

>  <Stereogenic_Carbons>  (137) 
1

>  <C_Atoms>  (137) 
28

>  <FCStereo>  (137) 
0.035714

>  <SPS>  (137) 
434

>  <nSPS>  (137) 
12.4

>  <PBF>  (137) 
1.274765

>  <PBF_0.6>  (137) 
True

>  <nPBF>  (137) 
0.036422

>  <nPBF_0.016>  (137) 
True

>  <PMI1>  (137) 
3284.197329

>  <PMI2>  (137) 
6628.042223

>  <PMI3>  (137) 
8618.19316

>  <NPR1>  (137) 
0.381077

>  <NPR2>  (137) 
0.769076

>  <Sum_NPR>  (137) 
1.150153

>  <Sum_NPR_1.07>  (137) 
True

>  <Sum_NPR_1.2>  (137) 
False

>  <MaxAbsEStateIndex>  (137) 
6.182189

>  <MaxEStateIndex>  (137) 
6.182189

>  <MinAbsEStateIndex>  (137) 
0.093645

>  <MinEStateIndex>  (137) 
0.093645

>  <qed>  (137) 
0.312056

>  <MolWt>  (137) 
464.549

>  <HeavyAtomMolWt>  (137) 
438.341

>  <ExactMolWt>  (137) 
464.208101

>  <NumValenceElectrons>  (137) 
174

>  <NumRadicalElectrons>  (137) 
0

>  <MaxPartialCharge>  (137) 
0.140113

>  <MinPartialCharge>  (137) 
-0.485746

>  <MaxAbsPartialCharge>  (137) 
0.485746

>  <MinAbsPartialCharge>  (137) 
0.140113

>  <FpDensityMorgan1>  (137) 
1.028571

>  <FpDensityMorgan2>  (137) 
1.942857

>  <FpDensityMorgan3>  (137) 
2.828571

>  <BCUT2D_MWHI>  (137) 
16.478463

>  <BCUT2D_MWLOW>  (137) 
9.987672

>  <BCUT2D_CHGHI>  (137) 
2.160179

>  <BCUT2D_CHGLO>  (137) 
-2.134951

>  <BCUT2D_LOGPHI>  (137) 
2.347644

>  <BCUT2D_LOGPLOW>  (137) 
-2.641612

>  <BCUT2D_MRHI>  (137) 
5.897232

>  <BCUT2D_MRLOW>  (137) 
-0.422665

>  <AvgIpc>  (137) 
3.639395

>  <BalabanJ>  (137) 
1.271554

>  <BertzCT>  (137) 
1613.585406

>  <Chi0>  (137) 
23.777446

>  <Chi0n>  (137) 
19.415148

>  <Chi0v>  (137) 
19.415148

>  <Chi1>  (137) 
17.153

>  <Chi1n>  (137) 
11.640965

>  <Chi1v>  (137) 
11.640965

>  <Chi2n>  (137) 
8.889244

>  <Chi2v>  (137) 
8.889244

>  <Chi3n>  (137) 
6.390849

>  <Chi3v>  (137) 
6.390849

>  <Chi4n>  (137) 
4.571258

>  <Chi4v>  (137) 
4.571258

>  <HallKierAlpha>  (137) 
-4.36

>  <Ipc>  (137) 
237130516.710749

>  <Kappa1>  (137) 
21.191894

>  <Kappa2>  (137) 
8.773896

>  <Kappa3>  (137) 
4.064536

>  <LabuteASA>  (137) 
201.499619

>  <PEOE_VSA1>  (137) 
19.87166

>  <PEOE_VSA10>  (137) 
18.398235

>  <PEOE_VSA11>  (137) 
0.0

>  <PEOE_VSA12>  (137) 
0.0

>  <PEOE_VSA13>  (137) 
0.0

>  <PEOE_VSA14>  (137) 
0.0

>  <PEOE_VSA2>  (137) 
10.08266

>  <PEOE_VSA3>  (137) 
0.0

>  <PEOE_VSA4>  (137) 
5.098682

>  <PEOE_VSA5>  (137) 
0.0

>  <PEOE_VSA6>  (137) 
24.265468

>  <PEOE_VSA7>  (137) 
48.382476

>  <PEOE_VSA8>  (137) 
40.033717

>  <PEOE_VSA9>  (137) 
35.627726

>  <SMR_VSA1>  (137) 
14.887681

>  <SMR_VSA10>  (137) 
21.80585

>  <SMR_VSA2>  (137) 
0.0

>  <SMR_VSA3>  (137) 
20.165321

>  <SMR_VSA4>  (137) 
0.0

>  <SMR_VSA5>  (137) 
19.3864

>  <SMR_VSA6>  (137) 
6.606882

>  <SMR_VSA7>  (137) 
90.774696

>  <SMR_VSA8>  (137) 
0.0

>  <SMR_VSA9>  (137) 
28.133794

>  <SlogP_VSA1>  (137) 
10.47053

>  <SlogP_VSA10>  (137) 
0.0

>  <SlogP_VSA11>  (137) 
5.749512

>  <SlogP_VSA12>  (137) 
0.0

>  <SlogP_VSA2>  (137) 
32.814043

>  <SlogP_VSA3>  (137) 
6.420822

>  <SlogP_VSA4>  (137) 
6.923737

>  <SlogP_VSA5>  (137) 
11.257379

>  <SlogP_VSA6>  (137) 
83.934468

>  <SlogP_VSA7>  (137) 
0.0

>  <SlogP_VSA8>  (137) 
44.190132

>  <SlogP_VSA9>  (137) 
0.0

>  <EState_VSA1>  (137) 
0.0

>  <EState_VSA10>  (137) 
0.0

>  <EState_VSA11>  (137) 
0.0

>  <EState_VSA2>  (137) 
6.041841

>  <EState_VSA3>  (137) 
12.356394

>  <EState_VSA4>  (137) 
50.918658

>  <EState_VSA5>  (137) 
10.949676

>  <EState_VSA6>  (137) 
18.72317

>  <EState_VSA7>  (137) 
31.189205

>  <EState_VSA8>  (137) 
57.443689

>  <EState_VSA9>  (137) 
14.137992

>  <VSA_EState1>  (137) 
11.511502

>  <VSA_EState10>  (137) 
0.0

>  <VSA_EState2>  (137) 
8.082576

>  <VSA_EState3>  (137) 
9.718677

>  <VSA_EState4>  (137) 
12.477912

>  <VSA_EState5>  (137) 
0.711883

>  <VSA_EState6>  (137) 
18.641463

>  <VSA_EState7>  (137) 
8.031547

>  <VSA_EState8>  (137) 
2.491105

>  <VSA_EState9>  (137) 
0.0

>  <FractionCSP3>  (137) 
0.142857

>  <HeavyAtomCount>  (137) 
35

>  <NHOHCount>  (137) 
5

>  <NOCount>  (137) 
7

>  <NumAliphaticCarbocycles>  (137) 
0

>  <NumAliphaticHeterocycles>  (137) 
0

>  <NumAliphaticRings>  (137) 
0

>  <NumAromaticCarbocycles>  (137) 
2

>  <NumAromaticHeterocycles>  (137) 
4

>  <NAR>  (137) 
6

>  <NumHAcceptors>  (137) 
4

>  <NumHDonors>  (137) 
3

>  <NumHeteroatoms>  (137) 
7

>  <NumRotatableBonds>  (137) 
7

>  <NumSaturatedCarbocycles>  (137) 
0

>  <NumSaturatedHeterocycles>  (137) 
0

>  <NumSaturatedRings>  (137) 
0

>  <RingCount>  (137) 
6

>  <MolLogP>  (137) 
4.90662

>  <MolMR>  (137) 
135.9375

>  <fr_Al_COO>  (137) 
0

>  <fr_Al_OH>  (137) 
0

>  <fr_Al_OH_noTert>  (137) 
0

>  <fr_ArN>  (137) 
0

>  <fr_Ar_COO>  (137) 
0

>  <fr_Ar_N>  (137) 
4

>  <fr_Ar_NH>  (137) 
2

>  <fr_Ar_OH>  (137) 
0

>  <fr_COO>  (137) 
0

>  <fr_COO2>  (137) 
0

>  <fr_C_O>  (137) 
0

>  <fr_C_O_noCOO>  (137) 
0

>  <fr_C_S>  (137) 
0

>  <fr_HOCCN>  (137) 
0

>  <fr_Imine>  (137) 
0

>  <fr_NH0>  (137) 
2

>  <fr_NH1>  (137) 
2

>  <fr_NH2>  (137) 
0

>  <fr_N_O>  (137) 
0

>  <fr_Ndealkylation1>  (137) 
0

>  <fr_Ndealkylation2>  (137) 
0

>  <fr_Nhpyrrole>  (137) 
2

>  <fr_SH>  (137) 
0

>  <fr_aldehyde>  (137) 
0

>  <fr_alkyl_carbamate>  (137) 
0

>  <fr_alkyl_halide>  (137) 
0

>  <fr_allylic_oxid>  (137) 
0

>  <fr_amide>  (137) 
0

>  <fr_amidine>  (137) 
0

>  <fr_aniline>  (137) 
0

>  <fr_aryl_methyl>  (137) 
1

>  <fr_azide>  (137) 
0

>  <fr_azo>  (137) 
0

>  <fr_barbitur>  (137) 
0

>  <fr_benzene>  (137) 
2

>  <fr_benzodiazepine>  (137) 
0

>  <fr_bicyclic>  (137) 
2

>  <fr_diazo>  (137) 
0

>  <fr_dihydropyridine>  (137) 
0

>  <fr_epoxide>  (137) 
0

>  <fr_ester>  (137) 
0

>  <fr_ether>  (137) 
1

>  <fr_furan>  (137) 
1

>  <fr_guanido>  (137) 
0

>  <fr_halogen>  (137) 
0

>  <fr_hdrzine>  (137) 
0

>  <fr_hdrzone>  (137) 
0

>  <fr_imidazole>  (137) 
0

>  <fr_imide>  (137) 
0

>  <fr_isocyan>  (137) 
0

>  <fr_isothiocyan>  (137) 
0

>  <fr_ketone>  (137) 
0

>  <fr_ketone_Topliss>  (137) 
0

>  <fr_lactam>  (137) 
0

>  <fr_lactone>  (137) 
0

>  <fr_methoxy>  (137) 
0

>  <fr_morpholine>  (137) 
0

>  <fr_nitrile>  (137) 
0

>  <fr_nitro>  (137) 
0

>  <fr_nitro_arom>  (137) 
0

>  <fr_nitro_arom_nonortho>  (137) 
0

>  <fr_nitroso>  (137) 
0

>  <fr_oxazole>  (137) 
0

>  <fr_oxime>  (137) 
0

>  <fr_para_hydroxylation>  (137) 
1

>  <fr_phenol>  (137) 
0

>  <fr_phenol_noOrthoHbond>  (137) 
0

>  <fr_phos_acid>  (137) 
0

>  <fr_phos_ester>  (137) 
0

>  <fr_piperdine>  (137) 
0

>  <fr_piperzine>  (137) 
0

>  <fr_priamide>  (137) 
0

>  <fr_prisulfonamd>  (137) 
0

>  <fr_pyridine>  (137) 
1

>  <fr_quatN>  (137) 
1

>  <fr_sulfide>  (137) 
0

>  <fr_sulfonamd>  (137) 
0

>  <fr_sulfone>  (137) 
0

>  <fr_term_acetylene>  (137) 
0

>  <fr_tetrazole>  (137) 
0

>  <fr_thiazole>  (137) 
0

>  <fr_thiocyan>  (137) 
0

>  <fr_thiophene>  (137) 
0

>  <fr_unbrch_alkane>  (137) 
0

>  <fr_urea>  (137) 
0

>  <NP-Likeness>  (137) 
-0.42462

$$$$
BEZ
     RDKit          3D

  0  0  0  0  0  0  0  0  0  0999 V3000
M  V30 BEGIN CTAB
M  V30 COUNTS 15 15 0 0 0
M  V30 BEGIN ATOM
M  V30 1 O 0.035442 -2.407413 2.286920 0
M  V30 2 C 0.803090 -1.891866 1.232187 0
M  V30 3 O 1.256360 -2.755723 0.437612 0
M  V30 4 C 1.044091 -0.458760 1.087984 0
M  V30 5 C 1.815287 -0.069953 0.009346 0
M  V30 6 C 2.037033 1.305905 -0.114924 0
M  V30 7 C 1.505754 2.201820 0.799276 0
M  V30 8 C 0.742784 1.752326 1.856878 0
M  V30 9 C 0.497827 0.384010 2.016444 0
M  V30 10 H -0.336037 -3.345259 2.309884 0
M  V30 11 H 2.224440 -0.778175 -0.697397 0
M  V30 12 H 2.641759 1.595965 -0.962916 0
M  V30 13 H 1.757011 3.210932 0.577607 0
M  V30 14 H 0.365967 2.504757 2.522497 0
M  V30 15 H -0.100046 0.050272 2.847922 0
M  V30 END ATOM
M  V30 BEGIN BOND
M  V30 1 1 1 2
M  V30 2 2 2 3
M  V30 3 1 2 4
M  V30 4 2 4 5
M  V30 5 1 5 6
M  V30 6 2 6 7
M  V30 7 1 7 8
M  V30 8 2 8 9
M  V30 9 1 9 4
M  V30 10 1 1 10
M  V30 11 1 5 11
M  V30 12 1 6 12
M  V30 13 1 7 13
M  V30 14 1 8 14
M  V30 15 1 9 15
M  V30 END BOND
M  V30 END CTAB
M  END
>  <Dataset>  (138) 
PDB

>  <Ligand_Instance>  (138) 
6SNN_BEZ_A_401

>  <PDB_ID>  (138) 
6SNN

>  <Standardized_SMILES>  (138) 
[H]OC(=O)C1=C([H])C([H])=C([H])C([H])=C1[H]

>  <Name>  (138) 
BENZOIC ACID

>  <Pocket>  (138) 
A

>  <ATP_Site>  (138) 
1.0

>  <Peripheral>  (138) 
1.0

>  <Num_H_Atoms_ProtBoundConf>  (138) 
6.0

>  <Num_Resolved_Atoms>  (138) 
9.0

>  <Num_Not_Resolved_Atoms>  (138) 
0.0

>  <2D_Mol_H>  (138) 
<rdkit.Chem.rdchem.Mol object at 0x72a238da60a0>

>  <MW>  (138) 
122.123

>  <HBA>  (138) 
2

>  <HBD>  (138) 
1

>  <LogP>  (138) 
1.3848

>  <NRB>  (138) 
1

>  <TPSA>  (138) 
37.3

>  <Num_Heavy_Atoms>  (138) 
9

>  <Ro5>  (138) 
[True, True, True, True, True, True]

>  <Ro5_Fulfilled>  (138) 
True

>  <Ro3>  (138) 
[True, True, True, True]

>  <Ro3_Fulfilled>  (138) 
True

>  <Fsp3>  (138) 
0.0

>  <Fsp3_0.42>  (138) 
False

>  <Fsp3_0.45>  (138) 
False

>  <Stereogenic_Carbons>  (138) 
0

>  <C_Atoms>  (138) 
7

>  <FCStereo>  (138) 
0.0

>  <SPS>  (138) 
80

>  <nSPS>  (138) 
8.888889

>  <PBF>  (138) 
0.03014

>  <PBF_0.6>  (138) 
False

>  <nPBF>  (138) 
0.003349

>  <nPBF_0.016>  (138) 
False

>  <PMI1>  (138) 
130.549213

>  <PMI2>  (138) 
410.660317

>  <PMI3>  (138) 
541.119517

>  <NPR1>  (138) 
0.241258

>  <NPR2>  (138) 
0.758909

>  <Sum_NPR>  (138) 
1.000166

>  <Sum_NPR_1.07>  (138) 
False

>  <Sum_NPR_1.2>  (138) 
False

>  <MaxAbsEStateIndex>  (138) 
10.200926

>  <MaxEStateIndex>  (138) 
10.200926

>  <MinAbsEStateIndex>  (138) 
0.331019

>  <MinEStateIndex>  (138) 
-0.879074

>  <qed>  (138) 
0.610604

>  <MolWt>  (138) 
122.123

>  <HeavyAtomMolWt>  (138) 
116.075

>  <ExactMolWt>  (138) 
122.036779

>  <NumValenceElectrons>  (138) 
46

>  <NumRadicalElectrons>  (138) 
0

>  <MaxPartialCharge>  (138) 
0.335178

>  <MinPartialCharge>  (138) 
-0.477639

>  <MaxAbsPartialCharge>  (138) 
0.477639

>  <MinAbsPartialCharge>  (138) 
0.335178

>  <FpDensityMorgan1>  (138) 
1.222222

>  <FpDensityMorgan2>  (138) 
1.777778

>  <FpDensityMorgan3>  (138) 
2.111111

>  <BCUT2D_MWHI>  (138) 
16.365528

>  <BCUT2D_MWLOW>  (138) 
10.215858

>  <BCUT2D_CHGHI>  (138) 
1.960774

>  <BCUT2D_CHGLO>  (138) 
-1.87656

>  <BCUT2D_LOGPHI>  (138) 
1.955383

>  <BCUT2D_LOGPLOW>  (138) 
-1.930629

>  <BCUT2D_MRHI>  (138) 
5.868349

>  <BCUT2D_MRLOW>  (138) 
0.069667

>  <AvgIpc>  (138) 
1.900373

>  <BalabanJ>  (138) 
2.981455

>  <BertzCT>  (138) 
203.415953

>  <Chi0>  (138) 
6.690234

>  <Chi0n>  (138) 
4.742213

>  <Chi0v>  (138) 
4.742213

>  <Chi1>  (138) 
4.30453

>  <Chi1n>  (138) 
2.588415

>  <Chi1v>  (138) 
2.588415

>  <Chi2n>  (138) 
1.671178

>  <Chi2v>  (138) 
1.671178

>  <Chi3n>  (138) 
1.02074

>  <Chi3v>  (138) 
1.02074

>  <Chi4n>  (138) 
0.58073

>  <Chi4v>  (138) 
0.58073

>  <HallKierAlpha>  (138) 
-1.31

>  <Ipc>  (138) 
129.225339

>  <Kappa1>  (138) 
5.820039

>  <Kappa2>  (138) 
2.306764

>  <Kappa3>  (138) 
1.287705

>  <LabuteASA>  (138) 
52.752101

>  <PEOE_VSA1>  (138) 
5.106527

>  <PEOE_VSA10>  (138) 
0.0

>  <PEOE_VSA11>  (138) 
0.0

>  <PEOE_VSA12>  (138) 
0.0

>  <PEOE_VSA13>  (138) 
0.0

>  <PEOE_VSA14>  (138) 
5.969305

>  <PEOE_VSA2>  (138) 
0.0

>  <PEOE_VSA3>  (138) 
4.794537

>  <PEOE_VSA4>  (138) 
0.0

>  <PEOE_VSA5>  (138) 
0.0

>  <PEOE_VSA6>  (138) 
18.199101

>  <PEOE_VSA7>  (138) 
12.132734

>  <PEOE_VSA8>  (138) 
0.0

>  <PEOE_VSA9>  (138) 
5.563451

>  <SMR_VSA1>  (138) 
9.901065

>  <SMR_VSA10>  (138) 
5.969305

>  <SMR_VSA2>  (138) 
0.0

>  <SMR_VSA3>  (138) 
0.0

>  <SMR_VSA4>  (138) 
0.0

>  <SMR_VSA5>  (138) 
0.0

>  <SMR_VSA6>  (138) 
0.0

>  <SMR_VSA7>  (138) 
35.895287

>  <SMR_VSA8>  (138) 
0.0

>  <SMR_VSA9>  (138) 
0.0

>  <SlogP_VSA1>  (138) 
0.0

>  <SlogP_VSA10>  (138) 
0.0

>  <SlogP_VSA11>  (138) 
0.0

>  <SlogP_VSA12>  (138) 
0.0

>  <SlogP_VSA2>  (138) 
11.075833

>  <SlogP_VSA3>  (138) 
0.0

>  <SlogP_VSA4>  (138) 
0.0

>  <SlogP_VSA5>  (138) 
10.357989

>  <SlogP_VSA6>  (138) 
30.331835

>  <SlogP_VSA7>  (138) 
0.0

>  <SlogP_VSA8>  (138) 
0.0

>  <SlogP_VSA9>  (138) 
0.0

>  <EState_VSA1>  (138) 
5.969305

>  <EState_VSA10>  (138) 
4.794537

>  <EState_VSA11>  (138) 
0.0

>  <EState_VSA2>  (138) 
0.0

>  <EState_VSA3>  (138) 
5.563451

>  <EState_VSA4>  (138) 
0.0

>  <EState_VSA5>  (138) 
0.0

>  <EState_VSA6>  (138) 
30.331835

>  <EState_VSA7>  (138) 
0.0

>  <EState_VSA8>  (138) 
0.0

>  <EState_VSA9>  (138) 
5.106527

>  <VSA_EState1>  (138) 
0.0

>  <VSA_EState10>  (138) 
0.0

>  <VSA_EState2>  (138) 
10.200926

>  <VSA_EState3>  (138) 
8.384815

>  <VSA_EState4>  (138) 
0.331019

>  <VSA_EState5>  (138) 
-0.879074

>  <VSA_EState6>  (138) 
8.295648

>  <VSA_EState7>  (138) 
0.0

>  <VSA_EState8>  (138) 
0.0

>  <VSA_EState9>  (138) 
0.0

>  <FractionCSP3>  (138) 
0.0

>  <HeavyAtomCount>  (138) 
9

>  <NHOHCount>  (138) 
1

>  <NOCount>  (138) 
2

>  <NumAliphaticCarbocycles>  (138) 
0

>  <NumAliphaticHeterocycles>  (138) 
0

>  <NumAliphaticRings>  (138) 
0

>  <NumAromaticCarbocycles>  (138) 
1

>  <NumAromaticHeterocycles>  (138) 
0

>  <NAR>  (138) 
1

>  <NumHAcceptors>  (138) 
1

>  <NumHDonors>  (138) 
1

>  <NumHeteroatoms>  (138) 
2

>  <NumRotatableBonds>  (138) 
1

>  <NumSaturatedCarbocycles>  (138) 
0

>  <NumSaturatedHeterocycles>  (138) 
0

>  <NumSaturatedRings>  (138) 
0

>  <RingCount>  (138) 
1

>  <MolLogP>  (138) 
1.3848

>  <MolMR>  (138) 
33.4013

>  <fr_Al_COO>  (138) 
0

>  <fr_Al_OH>  (138) 
0

>  <fr_Al_OH_noTert>  (138) 
0

>  <fr_ArN>  (138) 
0

>  <fr_Ar_COO>  (138) 
1

>  <fr_Ar_N>  (138) 
0

>  <fr_Ar_NH>  (138) 
0

>  <fr_Ar_OH>  (138) 
0

>  <fr_COO>  (138) 
1

>  <fr_COO2>  (138) 
1

>  <fr_C_O>  (138) 
1

>  <fr_C_O_noCOO>  (138) 
0

>  <fr_C_S>  (138) 
0

>  <fr_HOCCN>  (138) 
0

>  <fr_Imine>  (138) 
0

>  <fr_NH0>  (138) 
0

>  <fr_NH1>  (138) 
0

>  <fr_NH2>  (138) 
0

>  <fr_N_O>  (138) 
0

>  <fr_Ndealkylation1>  (138) 
0

>  <fr_Ndealkylation2>  (138) 
0

>  <fr_Nhpyrrole>  (138) 
0

>  <fr_SH>  (138) 
0

>  <fr_aldehyde>  (138) 
0

>  <fr_alkyl_carbamate>  (138) 
0

>  <fr_alkyl_halide>  (138) 
0

>  <fr_allylic_oxid>  (138) 
0

>  <fr_amide>  (138) 
0

>  <fr_amidine>  (138) 
0

>  <fr_aniline>  (138) 
0

>  <fr_aryl_methyl>  (138) 
0

>  <fr_azide>  (138) 
0

>  <fr_azo>  (138) 
0

>  <fr_barbitur>  (138) 
0

>  <fr_benzene>  (138) 
1

>  <fr_benzodiazepine>  (138) 
0

>  <fr_bicyclic>  (138) 
0

>  <fr_diazo>  (138) 
0

>  <fr_dihydropyridine>  (138) 
0

>  <fr_epoxide>  (138) 
0

>  <fr_ester>  (138) 
0

>  <fr_ether>  (138) 
0

>  <fr_furan>  (138) 
0

>  <fr_guanido>  (138) 
0

>  <fr_halogen>  (138) 
0

>  <fr_hdrzine>  (138) 
0

>  <fr_hdrzone>  (138) 
0

>  <fr_imidazole>  (138) 
0

>  <fr_imide>  (138) 
0

>  <fr_isocyan>  (138) 
0

>  <fr_isothiocyan>  (138) 
0

>  <fr_ketone>  (138) 
0

>  <fr_ketone_Topliss>  (138) 
0

>  <fr_lactam>  (138) 
0

>  <fr_lactone>  (138) 
0

>  <fr_methoxy>  (138) 
0

>  <fr_morpholine>  (138) 
0

>  <fr_nitrile>  (138) 
0

>  <fr_nitro>  (138) 
0

>  <fr_nitro_arom>  (138) 
0

>  <fr_nitro_arom_nonortho>  (138) 
0

>  <fr_nitroso>  (138) 
0

>  <fr_oxazole>  (138) 
0

>  <fr_oxime>  (138) 
0

>  <fr_para_hydroxylation>  (138) 
0

>  <fr_phenol>  (138) 
0

>  <fr_phenol_noOrthoHbond>  (138) 
0

>  <fr_phos_acid>  (138) 
0

>  <fr_phos_ester>  (138) 
0

>  <fr_piperdine>  (138) 
0

>  <fr_piperzine>  (138) 
0

>  <fr_priamide>  (138) 
0

>  <fr_prisulfonamd>  (138) 
0

>  <fr_pyridine>  (138) 
0

>  <fr_quatN>  (138) 
0

>  <fr_sulfide>  (138) 
0

>  <fr_sulfonamd>  (138) 
0

>  <fr_sulfone>  (138) 
0

>  <fr_term_acetylene>  (138) 
0

>  <fr_tetrazole>  (138) 
0

>  <fr_thiazole>  (138) 
0

>  <fr_thiocyan>  (138) 
0

>  <fr_thiophene>  (138) 
0

>  <fr_unbrch_alkane>  (138) 
0

>  <fr_urea>  (138) 
0

>  <NP-Likeness>  (138) 
-0.146167

$$$$
BEZ
     RDKit          3D

  0  0  0  0  0  0  0  0  0  0999 V3000
M  V30 BEGIN CTAB
M  V30 COUNTS 14 14 0 0 0
M  V30 BEGIN ATOM
M  V30 1 C -0.286067 0.910865 0.439891 0
M  V30 2 C -0.337089 -0.262360 1.198416 0
M  V30 3 C 0.878588 -0.870147 1.417131 0
M  V30 4 C 2.110589 -0.439680 0.968630 0
M  V30 5 C 3.287464 -1.231506 1.310653 0
M  V30 6 O 3.208643 -2.294411 2.002403 0
M  V30 7 O 4.549396 -0.861287 0.896566 0 CHG=-1 VAL=1
M  V30 8 C 2.111729 0.728880 0.220092 0
M  V30 9 C 0.930589 1.394932 -0.040783 0
M  V30 10 H -1.228259 1.416215 0.248420 0
M  V30 11 H -1.252666 -0.678647 1.593452 0
M  V30 12 H 0.835857 -1.786925 2.010252 0
M  V30 13 H 3.074556 1.069972 -0.133413 0
M  V30 14 H 0.944525 2.303355 -0.624518 0
M  V30 END ATOM
M  V30 BEGIN BOND
M  V30 1 2 1 2
M  V30 2 1 2 3
M  V30 3 2 3 4
M  V30 4 1 4 5
M  V30 5 2 5 6
M  V30 6 1 5 7
M  V30 7 1 4 8
M  V30 8 2 8 9
M  V30 9 1 9 1
M  V30 10 1 1 10
M  V30 11 1 2 11
M  V30 12 1 3 12
M  V30 13 1 8 13
M  V30 14 1 9 14
M  V30 END BOND
M  V30 END CTAB
M  END
>  <Dataset>  (139) 
PDB

>  <Ligand_Instance>  (139) 
6SNN_BEZ_A_402

>  <PDB_ID>  (139) 
6SNN

>  <Standardized_SMILES>  (139) 
[H]C1=C([H])C([H])=C(C(=O)[O-])C([H])=C1[H]

>  <Name>  (139) 
BENZOIC ACID

>  <Pocket>  (139) 
X

>  <ATP_Site>  (139) 
1.0

>  <Peripheral>  (139) 
1.0

>  <Num_H_Atoms_ProtBoundConf>  (139) 
5.0

>  <Num_Resolved_Atoms>  (139) 
9.0

>  <Num_Not_Resolved_Atoms>  (139) 
0.0

>  <2D_Mol_H>  (139) 
<rdkit.Chem.rdchem.Mol object at 0x72a238da6180>

>  <MW>  (139) 
121.115

>  <HBA>  (139) 
2

>  <HBD>  (139) 
0

>  <LogP>  (139) 
0.0501

>  <NRB>  (139) 
1

>  <TPSA>  (139) 
40.13

>  <Num_Heavy_Atoms>  (139) 
9

>  <Ro5>  (139) 
[True, True, True, True, True, True]

>  <Ro5_Fulfilled>  (139) 
True

>  <Ro3>  (139) 
[True, True, True, True]

>  <Ro3_Fulfilled>  (139) 
True

>  <Fsp3>  (139) 
0.0

>  <Fsp3_0.42>  (139) 
False

>  <Fsp3_0.45>  (139) 
False

>  <Stereogenic_Carbons>  (139) 
0

>  <C_Atoms>  (139) 
7

>  <FCStereo>  (139) 
0.0

>  <SPS>  (139) 
80

>  <nSPS>  (139) 
8.888889

>  <PBF>  (139) 
0.000005

>  <PBF_0.6>  (139) 
False

>  <nPBF>  (139) 
0.000001

>  <nPBF_0.016>  (139) 
False

>  <PMI1>  (139) 
127.304842

>  <PMI2>  (139) 
412.458659

>  <PMI3>  (139) 
539.763501

>  <NPR1>  (139) 
0.235853

>  <NPR2>  (139) 
0.764147

>  <Sum_NPR>  (139) 
1.0

>  <Sum_NPR_1.07>  (139) 
False

>  <Sum_NPR_1.2>  (139) 
False

>  <MaxAbsEStateIndex>  (139) 
10.089815

>  <MaxEStateIndex>  (139) 
10.089815

>  <MinAbsEStateIndex>  (139) 
0.219907

>  <MinEStateIndex>  (139) 
-1.129074

>  <qed>  (139) 
0.526318

>  <MolWt>  (139) 
121.115

>  <HeavyAtomMolWt>  (139) 
116.075

>  <ExactMolWt>  (139) 
121.029503

>  <NumValenceElectrons>  (139) 
46

>  <NumRadicalElectrons>  (139) 
0

>  <MaxPartialCharge>  (139) 
0.071481

>  <MinPartialCharge>  (139) 
-0.544815

>  <MaxAbsPartialCharge>  (139) 
0.544815

>  <MinAbsPartialCharge>  (139) 
0.071481

>  <FpDensityMorgan1>  (139) 
1.222222

>  <FpDensityMorgan2>  (139) 
1.777778

>  <FpDensityMorgan3>  (139) 
2.111111

>  <BCUT2D_MWHI>  (139) 
16.365528

>  <BCUT2D_MWLOW>  (139) 
10.215858

>  <BCUT2D_CHGHI>  (139) 
1.854266

>  <BCUT2D_CHGLO>  (139) 
-1.974019

>  <BCUT2D_LOGPHI>  (139) 
1.93847

>  <BCUT2D_LOGPLOW>  (139) 
-2.212795

>  <BCUT2D_MRHI>  (139) 
5.849678

>  <BCUT2D_MRLOW>  (139) 
-0.254554

>  <AvgIpc>  (139) 
1.900373

>  <BalabanJ>  (139) 
2.981455

>  <BertzCT>  (139) 
203.415953

>  <Chi0>  (139) 
6.690234

>  <Chi0n>  (139) 
4.703248

>  <Chi0v>  (139) 
4.703248

>  <Chi1>  (139) 
4.30453

>  <Chi1n>  (139) 
2.568932

>  <Chi1v>  (139) 
2.568932

>  <Chi2n>  (139) 
1.653483

>  <Chi2v>  (139) 
1.653483

>  <Chi3n>  (139) 
1.009491

>  <Chi3v>  (139) 
1.009491

>  <Chi4n>  (139) 
0.574236

>  <Chi4v>  (139) 
0.574236

>  <HallKierAlpha>  (139) 
-1.31

>  <Ipc>  (139) 
129.225339

>  <Kappa1>  (139) 
5.820039

>  <Kappa2>  (139) 
2.306764

>  <Kappa3>  (139) 
1.287705

>  <LabuteASA>  (139) 
52.752101

>  <PEOE_VSA1>  (139) 
9.901065

>  <PEOE_VSA10>  (139) 
0.0

>  <PEOE_VSA11>  (139) 
0.0

>  <PEOE_VSA12>  (139) 
0.0

>  <PEOE_VSA13>  (139) 
0.0

>  <PEOE_VSA14>  (139) 
0.0

>  <PEOE_VSA2>  (139) 
0.0

>  <PEOE_VSA3>  (139) 
0.0

>  <PEOE_VSA4>  (139) 
0.0

>  <PEOE_VSA5>  (139) 
0.0

>  <PEOE_VSA6>  (139) 
30.331835

>  <PEOE_VSA7>  (139) 
5.563451

>  <PEOE_VSA8>  (139) 
0.0

>  <PEOE_VSA9>  (139) 
5.969305

>  <SMR_VSA1>  (139) 
9.901065

>  <SMR_VSA10>  (139) 
5.969305

>  <SMR_VSA2>  (139) 
0.0

>  <SMR_VSA3>  (139) 
0.0

>  <SMR_VSA4>  (139) 
0.0

>  <SMR_VSA5>  (139) 
0.0

>  <SMR_VSA6>  (139) 
0.0

>  <SMR_VSA7>  (139) 
35.895287

>  <SMR_VSA8>  (139) 
0.0

>  <SMR_VSA9>  (139) 
0.0

>  <SlogP_VSA1>  (139) 
5.106527

>  <SlogP_VSA10>  (139) 
0.0

>  <SlogP_VSA11>  (139) 
0.0

>  <SlogP_VSA12>  (139) 
0.0

>  <SlogP_VSA2>  (139) 
5.969305

>  <SlogP_VSA3>  (139) 
0.0

>  <SlogP_VSA4>  (139) 
0.0

>  <SlogP_VSA5>  (139) 
10.357989

>  <SlogP_VSA6>  (139) 
30.331835

>  <SlogP_VSA7>  (139) 
0.0

>  <SlogP_VSA8>  (139) 
0.0

>  <SlogP_VSA9>  (139) 
0.0

>  <EState_VSA1>  (139) 
5.969305

>  <EState_VSA10>  (139) 
9.901065

>  <EState_VSA11>  (139) 
0.0

>  <EState_VSA2>  (139) 
5.563451

>  <EState_VSA3>  (139) 
0.0

>  <EState_VSA4>  (139) 
0.0

>  <EState_VSA5>  (139) 
12.132734

>  <EState_VSA6>  (139) 
18.199101

>  <EState_VSA7>  (139) 
0.0

>  <EState_VSA8>  (139) 
0.0

>  <EState_VSA9>  (139) 
0.0

>  <VSA_EState1>  (139) 
0.0

>  <VSA_EState10>  (139) 
0.0

>  <VSA_EState2>  (139) 
10.089815

>  <VSA_EState3>  (139) 
10.089815

>  <VSA_EState4>  (139) 
0.219907

>  <VSA_EState5>  (139) 
-1.129074

>  <VSA_EState6>  (139) 
8.06287

>  <VSA_EState7>  (139) 
0.0

>  <VSA_EState8>  (139) 
0.0

>  <VSA_EState9>  (139) 
0.0

>  <FractionCSP3>  (139) 
0.0

>  <HeavyAtomCount>  (139) 
9

>  <NHOHCount>  (139) 
0

>  <NOCount>  (139) 
2

>  <NumAliphaticCarbocycles>  (139) 
0

>  <NumAliphaticHeterocycles>  (139) 
0

>  <NumAliphaticRings>  (139) 
0

>  <NumAromaticCarbocycles>  (139) 
1

>  <NumAromaticHeterocycles>  (139) 
0

>  <NAR>  (139) 
1

>  <NumHAcceptors>  (139) 
2

>  <NumHDonors>  (139) 
0

>  <NumHeteroatoms>  (139) 
2

>  <NumRotatableBonds>  (139) 
1

>  <NumSaturatedCarbocycles>  (139) 
0

>  <NumSaturatedHeterocycles>  (139) 
0

>  <NumSaturatedRings>  (139) 
0

>  <RingCount>  (139) 
1

>  <MolLogP>  (139) 
0.0501

>  <MolMR>  (139) 
30.7725

>  <fr_Al_COO>  (139) 
0

>  <fr_Al_OH>  (139) 
0

>  <fr_Al_OH_noTert>  (139) 
0

>  <fr_ArN>  (139) 
0

>  <fr_Ar_COO>  (139) 
1

>  <fr_Ar_N>  (139) 
0

>  <fr_Ar_NH>  (139) 
0

>  <fr_Ar_OH>  (139) 
0

>  <fr_COO>  (139) 
1

>  <fr_COO2>  (139) 
1

>  <fr_C_O>  (139) 
1

>  <fr_C_O_noCOO>  (139) 
1

>  <fr_C_S>  (139) 
0

>  <fr_HOCCN>  (139) 
0

>  <fr_Imine>  (139) 
0

>  <fr_NH0>  (139) 
0

>  <fr_NH1>  (139) 
0

>  <fr_NH2>  (139) 
0

>  <fr_N_O>  (139) 
0

>  <fr_Ndealkylation1>  (139) 
0

>  <fr_Ndealkylation2>  (139) 
0

>  <fr_Nhpyrrole>  (139) 
0

>  <fr_SH>  (139) 
0

>  <fr_aldehyde>  (139) 
0

>  <fr_alkyl_carbamate>  (139) 
0

>  <fr_alkyl_halide>  (139) 
0

>  <fr_allylic_oxid>  (139) 
0

>  <fr_amide>  (139) 
0

>  <fr_amidine>  (139) 
0

>  <fr_aniline>  (139) 
0

>  <fr_aryl_methyl>  (139) 
0

>  <fr_azide>  (139) 
0

>  <fr_azo>  (139) 
0

>  <fr_barbitur>  (139) 
0

>  <fr_benzene>  (139) 
1

>  <fr_benzodiazepine>  (139) 
0

>  <fr_bicyclic>  (139) 
0

>  <fr_diazo>  (139) 
0

>  <fr_dihydropyridine>  (139) 
0

>  <fr_epoxide>  (139) 
0

>  <fr_ester>  (139) 
0

>  <fr_ether>  (139) 
0

>  <fr_furan>  (139) 
0

>  <fr_guanido>  (139) 
0

>  <fr_halogen>  (139) 
0

>  <fr_hdrzine>  (139) 
0

>  <fr_hdrzone>  (139) 
0

>  <fr_imidazole>  (139) 
0

>  <fr_imide>  (139) 
0

>  <fr_isocyan>  (139) 
0

>  <fr_isothiocyan>  (139) 
0

>  <fr_ketone>  (139) 
0

>  <fr_ketone_Topliss>  (139) 
0

>  <fr_lactam>  (139) 
0

>  <fr_lactone>  (139) 
0

>  <fr_methoxy>  (139) 
0

>  <fr_morpholine>  (139) 
0

>  <fr_nitrile>  (139) 
0

>  <fr_nitro>  (139) 
0

>  <fr_nitro_arom>  (139) 
0

>  <fr_nitro_arom_nonortho>  (139) 
0

>  <fr_nitroso>  (139) 
0

>  <fr_oxazole>  (139) 
0

>  <fr_oxime>  (139) 
0

>  <fr_para_hydroxylation>  (139) 
0

>  <fr_phenol>  (139) 
0

>  <fr_phenol_noOrthoHbond>  (139) 
0

>  <fr_phos_acid>  (139) 
0

>  <fr_phos_ester>  (139) 
0

>  <fr_piperdine>  (139) 
0

>  <fr_piperzine>  (139) 
0

>  <fr_priamide>  (139) 
0

>  <fr_prisulfonamd>  (139) 
0

>  <fr_pyridine>  (139) 
0

>  <fr_quatN>  (139) 
0

>  <fr_sulfide>  (139) 
0

>  <fr_sulfonamd>  (139) 
0

>  <fr_sulfone>  (139) 
0

>  <fr_term_acetylene>  (139) 
0

>  <fr_tetrazole>  (139) 
0

>  <fr_thiazole>  (139) 
0

>  <fr_thiocyan>  (139) 
0

>  <fr_thiophene>  (139) 
0

>  <fr_unbrch_alkane>  (139) 
0

>  <fr_urea>  (139) 
0

>  <NP-Likeness>  (139) 
-0.467339

$$$$
BJK
     RDKit          3D

  0  0  0  0  0  0  0  0  0  0999 V3000
M  V30 BEGIN CTAB
M  V30 COUNTS 23 23 0 0 0
M  V30 BEGIN ATOM
M  V30 1 O -2.109780 0.302041 2.312235 0
M  V30 2 C -0.958960 0.305164 1.546030 0
M  V30 3 C 0.237338 -0.026313 2.154442 0
M  V30 4 C 1.397184 -0.023035 1.381676 0
M  V30 5 C 2.679400 -0.389761 2.081817 0
M  V30 6 N 2.838680 -1.814760 1.966582 0 CHG=1 VAL=4
M  V30 7 C 1.392335 0.298348 0.035939 0
M  V30 8 C 0.174657 0.623437 -0.531668 0
M  V30 9 C -1.002705 0.632026 0.202760 0
M  V30 10 O -2.249384 0.951978 -0.324322 0
M  V30 11 C -2.320422 1.294741 -1.716458 0
M  V30 12 H -2.215447 -0.394916 3.052494 0
M  V30 13 H 0.271202 -0.284769 3.217073 0
M  V30 14 H 3.534177 0.102732 1.577972 0
M  V30 15 H 2.695004 -0.067426 3.138088 0
M  V30 16 H 2.549972 -2.059715 0.972789 0
M  V30 17 H 2.159163 -2.242866 2.652144 0
M  V30 18 H 3.825406 -2.068954 2.151126 0
M  V30 19 H 2.303881 0.295662 -0.549323 0
M  V30 20 H 0.094797 0.886724 -1.584492 0
M  V30 21 H -1.535170 2.095159 -1.843684 0
M  V30 22 H -3.310694 1.641877 -2.001144 0
M  V30 23 H -1.935989 0.419469 -2.282965 0
M  V30 END ATOM
M  V30 BEGIN BOND
M  V30 1 1 1 2
M  V30 2 2 2 3
M  V30 3 1 3 4
M  V30 4 1 4 5
M  V30 5 1 5 6
M  V30 6 2 4 7
M  V30 7 1 7 8
M  V30 8 2 8 9
M  V30 9 1 9 10
M  V30 10 1 10 11
M  V30 11 1 9 2
M  V30 12 1 1 12
M  V30 13 1 3 13
M  V30 14 1 5 14
M  V30 15 1 5 15
M  V30 16 1 6 16
M  V30 17 1 6 17
M  V30 18 1 6 18
M  V30 19 1 7 19
M  V30 20 1 8 20
M  V30 21 1 11 21
M  V30 22 1 11 22
M  V30 23 1 11 23
M  V30 END BOND
M  V30 END CTAB
M  END
>  <Dataset>  (140) 
PDB

>  <Ligand_Instance>  (140) 
5N1M_BJK_A_403

>  <PDB_ID>  (140) 
5N1M

>  <Standardized_SMILES>  (140) 
[H]OC1=C([H])C(C([H])([H])[N+]([H])([H])[H])=C([H])C([H])=C1OC([H])([H])[H]

>  <Name>  (140) 
(4-methoxy-3-oxidanyl-phenyl)methylazanium

>  <Pocket>  (140) 
A

>  <ATP_Site>  (140) 
1.0

>  <Peripheral>  (140) 
0.0

>  <Num_H_Atoms_ProtBoundConf>  (140) 
12.0

>  <Num_Resolved_Atoms>  (140) 
11.0

>  <Num_Not_Resolved_Atoms>  (140) 
0.0

>  <2D_Mol_H>  (140) 
<rdkit.Chem.rdchem.Mol object at 0x72a238da6260>

>  <MW>  (140) 
154.189

>  <HBA>  (140) 
2

>  <HBD>  (140) 
2

>  <LogP>  (140) 
0.1427

>  <NRB>  (140) 
5

>  <TPSA>  (140) 
57.1

>  <Num_Heavy_Atoms>  (140) 
11

>  <Ro5>  (140) 
[True, True, True, True, True, True]

>  <Ro5_Fulfilled>  (140) 
True

>  <Ro3>  (140) 
[True, True, True, True]

>  <Ro3_Fulfilled>  (140) 
True

>  <Fsp3>  (140) 
0.25

>  <Fsp3_0.42>  (140) 
False

>  <Fsp3_0.45>  (140) 
False

>  <Stereogenic_Carbons>  (140) 
0

>  <C_Atoms>  (140) 
8

>  <FCStereo>  (140) 
0.0

>  <SPS>  (140) 
106

>  <nSPS>  (140) 
9.636364

>  <PBF>  (140) 
0.503977

>  <PBF_0.6>  (140) 
False

>  <nPBF>  (140) 
0.045816

>  <nPBF_0.016>  (140) 
True

>  <PMI1>  (140) 
232.988351

>  <PMI2>  (140) 
756.891458

>  <PMI3>  (140) 
940.564595

>  <NPR1>  (140) 
0.247711

>  <NPR2>  (140) 
0.80472

>  <Sum_NPR>  (140) 
1.052432

>  <Sum_NPR_1.07>  (140) 
False

>  <Sum_NPR_1.2>  (140) 
False

>  <MaxAbsEStateIndex>  (140) 
9.269676

>  <MaxEStateIndex>  (140) 
9.269676

>  <MinAbsEStateIndex>  (140) 
0.174676

>  <MinEStateIndex>  (140) 
0.174676

>  <qed>  (140) 
0.636365

>  <MolWt>  (140) 
154.189

>  <HeavyAtomMolWt>  (140) 
142.093

>  <ExactMolWt>  (140) 
154.086255

>  <NumValenceElectrons>  (140) 
60

>  <NumRadicalElectrons>  (140) 
0

>  <MaxPartialCharge>  (140) 
0.160002

>  <MinPartialCharge>  (140) 
-0.504245

>  <MaxAbsPartialCharge>  (140) 
0.504245

>  <MinAbsPartialCharge>  (140) 
0.160002

>  <FpDensityMorgan1>  (140) 
1.545455

>  <FpDensityMorgan2>  (140) 
2.272727

>  <FpDensityMorgan3>  (140) 
2.727273

>  <BCUT2D_MWHI>  (140) 
16.473976

>  <BCUT2D_MWLOW>  (140) 
10.179914

>  <BCUT2D_CHGHI>  (140) 
2.003666

>  <BCUT2D_CHGLO>  (140) 
-2.022728

>  <BCUT2D_LOGPHI>  (140) 
2.250112

>  <BCUT2D_LOGPLOW>  (140) 
-2.46933

>  <BCUT2D_MRHI>  (140) 
5.40783

>  <BCUT2D_MRLOW>  (140) 
-0.385987

>  <AvgIpc>  (140) 
2.041467

>  <BalabanJ>  (140) 
2.992963

>  <BertzCT>  (140) 
247.847416

>  <Chi0>  (140) 
8.267585

>  <Chi0n>  (140) 
6.501726

>  <Chi0v>  (140) 
6.501726

>  <Chi1>  (140) 
5.274387

>  <Chi1n>  (140) 
3.427566

>  <Chi1v>  (140) 
3.427566

>  <Chi2n>  (140) 
2.256201

>  <Chi2v>  (140) 
2.256201

>  <Chi3n>  (140) 
1.531939

>  <Chi3v>  (140) 
1.531939

>  <Chi4n>  (140) 
0.891069

>  <Chi4v>  (140) 
0.891069

>  <HallKierAlpha>  (140) 
-1.22

>  <Ipc>  (140) 
338.883533

>  <Kappa1>  (140) 
7.882249

>  <Kappa2>  (140) 
3.253809

>  <Kappa3>  (140) 
1.620839

>  <LabuteASA>  (140) 
65.408957

>  <PEOE_VSA1>  (140) 
15.577058

>  <PEOE_VSA10>  (140) 
0.0

>  <PEOE_VSA11>  (140) 
11.499024

>  <PEOE_VSA12>  (140) 
0.0

>  <PEOE_VSA13>  (140) 
0.0

>  <PEOE_VSA14>  (140) 
0.0

>  <PEOE_VSA2>  (140) 
0.0

>  <PEOE_VSA3>  (140) 
0.0

>  <PEOE_VSA4>  (140) 
0.0

>  <PEOE_VSA5>  (140) 
0.0

>  <PEOE_VSA6>  (140) 
0.0

>  <PEOE_VSA7>  (140) 
18.199101

>  <PEOE_VSA8>  (140) 
5.563451

>  <PEOE_VSA9>  (140) 
13.654554

>  <SMR_VSA1>  (140) 
15.577058

>  <SMR_VSA10>  (140) 
0.0

>  <SMR_VSA2>  (140) 
0.0

>  <SMR_VSA3>  (140) 
0.0

>  <SMR_VSA4>  (140) 
0.0

>  <SMR_VSA5>  (140) 
6.544756

>  <SMR_VSA6>  (140) 
7.109798

>  <SMR_VSA7>  (140) 
23.762553

>  <SMR_VSA8>  (140) 
0.0

>  <SMR_VSA9>  (140) 
11.499024

>  <SlogP_VSA1>  (140) 
10.47053

>  <SlogP_VSA10>  (140) 
0.0

>  <SlogP_VSA11>  (140) 
11.499024

>  <SlogP_VSA12>  (140) 
0.0

>  <SlogP_VSA2>  (140) 
12.216325

>  <SlogP_VSA3>  (140) 
6.544756

>  <SlogP_VSA4>  (140) 
0.0

>  <SlogP_VSA5>  (140) 
5.563451

>  <SlogP_VSA6>  (140) 
18.199101

>  <SlogP_VSA7>  (140) 
0.0

>  <SlogP_VSA8>  (140) 
0.0

>  <SlogP_VSA9>  (140) 
0.0

>  <EState_VSA1>  (140) 
0.0

>  <EState_VSA10>  (140) 
5.106527

>  <EState_VSA11>  (140) 
0.0

>  <EState_VSA2>  (140) 
5.749512

>  <EState_VSA3>  (140) 
12.294268

>  <EState_VSA4>  (140) 
5.563451

>  <EState_VSA5>  (140) 
7.109798

>  <EState_VSA6>  (140) 
12.132734

>  <EState_VSA7>  (140) 
6.066367

>  <EState_VSA8>  (140) 
5.733667

>  <EState_VSA9>  (140) 
4.736863

>  <VSA_EState1>  (140) 
4.874047

>  <VSA_EState10>  (140) 
0.0

>  <VSA_EState2>  (140) 
0.0

>  <VSA_EState3>  (140) 
9.269676

>  <VSA_EState4>  (140) 
4.703662

>  <VSA_EState5>  (140) 
0.676713

>  <VSA_EState6>  (140) 
5.271065

>  <VSA_EState7>  (140) 
0.0

>  <VSA_EState8>  (140) 
0.678129

>  <VSA_EState9>  (140) 
1.526709

>  <FractionCSP3>  (140) 
0.25

>  <HeavyAtomCount>  (140) 
11

>  <NHOHCount>  (140) 
4

>  <NOCount>  (140) 
3

>  <NumAliphaticCarbocycles>  (140) 
0

>  <NumAliphaticHeterocycles>  (140) 
0

>  <NumAliphaticRings>  (140) 
0

>  <NumAromaticCarbocycles>  (140) 
1

>  <NumAromaticHeterocycles>  (140) 
0

>  <NAR>  (140) 
1

>  <NumHAcceptors>  (140) 
2

>  <NumHDonors>  (140) 
2

>  <NumHeteroatoms>  (140) 
3

>  <NumRotatableBonds>  (140) 
2

>  <NumSaturatedCarbocycles>  (140) 
0

>  <NumSaturatedHeterocycles>  (140) 
0

>  <NumSaturatedRings>  (140) 
0

>  <RingCount>  (140) 
1

>  <MolLogP>  (140) 
0.1427

>  <MolMR>  (140) 
41.2509

>  <fr_Al_COO>  (140) 
0

>  <fr_Al_OH>  (140) 
0

>  <fr_Al_OH_noTert>  (140) 
0

>  <fr_ArN>  (140) 
0

>  <fr_Ar_COO>  (140) 
0

>  <fr_Ar_N>  (140) 
0

>  <fr_Ar_NH>  (140) 
0

>  <fr_Ar_OH>  (140) 
1

>  <fr_COO>  (140) 
0

>  <fr_COO2>  (140) 
0

>  <fr_C_O>  (140) 
0

>  <fr_C_O_noCOO>  (140) 
0

>  <fr_C_S>  (140) 
0

>  <fr_HOCCN>  (140) 
0

>  <fr_Imine>  (140) 
0

>  <fr_NH0>  (140) 
0

>  <fr_NH1>  (140) 
0

>  <fr_NH2>  (140) 
0

>  <fr_N_O>  (140) 
0

>  <fr_Ndealkylation1>  (140) 
0

>  <fr_Ndealkylation2>  (140) 
0

>  <fr_Nhpyrrole>  (140) 
0

>  <fr_SH>  (140) 
0

>  <fr_aldehyde>  (140) 
0

>  <fr_alkyl_carbamate>  (140) 
0

>  <fr_alkyl_halide>  (140) 
0

>  <fr_allylic_oxid>  (140) 
0

>  <fr_amide>  (140) 
0

>  <fr_amidine>  (140) 
0

>  <fr_aniline>  (140) 
0

>  <fr_aryl_methyl>  (140) 
0

>  <fr_azide>  (140) 
0

>  <fr_azo>  (140) 
0

>  <fr_barbitur>  (140) 
0

>  <fr_benzene>  (140) 
1

>  <fr_benzodiazepine>  (140) 
0

>  <fr_bicyclic>  (140) 
0

>  <fr_diazo>  (140) 
0

>  <fr_dihydropyridine>  (140) 
0

>  <fr_epoxide>  (140) 
0

>  <fr_ester>  (140) 
0

>  <fr_ether>  (140) 
1

>  <fr_furan>  (140) 
0

>  <fr_guanido>  (140) 
0

>  <fr_halogen>  (140) 
0

>  <fr_hdrzine>  (140) 
0

>  <fr_hdrzone>  (140) 
0

>  <fr_imidazole>  (140) 
0

>  <fr_imide>  (140) 
0

>  <fr_isocyan>  (140) 
0

>  <fr_isothiocyan>  (140) 
0

>  <fr_ketone>  (140) 
0

>  <fr_ketone_Topliss>  (140) 
0

>  <fr_lactam>  (140) 
0

>  <fr_lactone>  (140) 
0

>  <fr_methoxy>  (140) 
1

>  <fr_morpholine>  (140) 
0

>  <fr_nitrile>  (140) 
0

>  <fr_nitro>  (140) 
0

>  <fr_nitro_arom>  (140) 
0

>  <fr_nitro_arom_nonortho>  (140) 
0

>  <fr_nitroso>  (140) 
0

>  <fr_oxazole>  (140) 
0

>  <fr_oxime>  (140) 
0

>  <fr_para_hydroxylation>  (140) 
0

>  <fr_phenol>  (140) 
1

>  <fr_phenol_noOrthoHbond>  (140) 
1

>  <fr_phos_acid>  (140) 
0

>  <fr_phos_ester>  (140) 
0

>  <fr_piperdine>  (140) 
0

>  <fr_piperzine>  (140) 
0

>  <fr_priamide>  (140) 
0

>  <fr_prisulfonamd>  (140) 
0

>  <fr_pyridine>  (140) 
0

>  <fr_quatN>  (140) 
1

>  <fr_sulfide>  (140) 
0

>  <fr_sulfonamd>  (140) 
0

>  <fr_sulfone>  (140) 
0

>  <fr_term_acetylene>  (140) 
0

>  <fr_tetrazole>  (140) 
0

>  <fr_thiazole>  (140) 
0

>  <fr_thiocyan>  (140) 
0

>  <fr_thiophene>  (140) 
0

>  <fr_unbrch_alkane>  (140) 
0

>  <fr_urea>  (140) 
0

>  <NP-Likeness>  (140) 
0.592178

$$$$
BJN
     RDKit          3D

  0  0  0  0  0  0  0  0  0  0999 V3000
M  V30 BEGIN CTAB
M  V30 COUNTS 20 20 0 0 0
M  V30 BEGIN ATOM
M  V30 1 C -0.859907 -2.690730 -0.158893 0
M  V30 2 N -0.409891 -2.682270 1.117583 0
M  V30 3 C 0.003864 -1.516694 1.689563 0
M  V30 4 C -0.020246 -0.322479 1.000390 0
M  V30 5 C 0.442605 0.906046 1.679536 0
M  V30 6 C 1.925993 1.140412 1.482619 0
M  V30 7 N 2.289774 1.281306 0.104973 0 CHG=1 VAL=4
M  V30 8 C -0.470925 -0.279500 -0.304694 0
M  V30 9 C -0.877611 -1.477722 -0.839610 0
M  V30 10 H -1.180099 -3.612153 -0.591437 0
M  V30 11 H 0.352773 -1.578074 2.714492 0
M  V30 12 H 0.285114 0.887689 2.776456 0
M  V30 13 H -0.094738 1.788192 1.298930 0
M  V30 14 H 2.182972 2.089140 1.992142 0
M  V30 15 H 2.520180 0.304840 1.932211 0
M  V30 16 H 3.332822 1.213688 0.051315 0
M  V30 17 H 1.866947 0.564117 -0.536304 0
M  V30 18 H 2.021257 2.220074 -0.284848 0
M  V30 19 H -0.506670 0.636887 -0.882547 0
M  V30 20 H -1.244120 -1.543888 -1.848441 0
M  V30 END ATOM
M  V30 BEGIN BOND
M  V30 1 2 1 2
M  V30 2 1 2 3
M  V30 3 2 3 4
M  V30 4 1 4 5
M  V30 5 1 5 6
M  V30 6 1 6 7
M  V30 7 1 4 8
M  V30 8 2 8 9
M  V30 9 1 9 1
M  V30 10 1 1 10
M  V30 11 1 3 11
M  V30 12 1 5 12
M  V30 13 1 5 13
M  V30 14 1 6 14
M  V30 15 1 6 15
M  V30 16 1 7 16
M  V30 17 1 7 17
M  V30 18 1 7 18
M  V30 19 1 8 19
M  V30 20 1 9 20
M  V30 END BOND
M  V30 END CTAB
M  END
>  <Dataset>  (141) 
PDB

>  <Ligand_Instance>  (141) 
5N3B_BJN_A_402

>  <PDB_ID>  (141) 
5N3B

>  <Standardized_SMILES>  (141) 
[H]C1=NC([H])=C(C([H])([H])C([H])([H])[N+]([H])([H])[H])C([H])=C1[H]

>  <Name>  (141) 
2-pyridin-3-ylethylazanium

>  <Pocket>  (141) 
A

>  <ATP_Site>  (141) 
1.0

>  <Peripheral>  (141) 
0.0

>  <Num_H_Atoms_ProtBoundConf>  (141) 
11.0

>  <Num_Resolved_Atoms>  (141) 
9.0

>  <Num_Not_Resolved_Atoms>  (141) 
0.0

>  <2D_Mol_H>  (141) 
<rdkit.Chem.rdchem.Mol object at 0x72a238da6340>

>  <MW>  (141) 
123.179

>  <HBA>  (141) 
1

>  <HBD>  (141) 
1

>  <LogP>  (141) 
-0.134

>  <NRB>  (141) 
3

>  <TPSA>  (141) 
40.53

>  <Num_Heavy_Atoms>  (141) 
9

>  <Ro5>  (141) 
[True, True, True, True, True, True]

>  <Ro5_Fulfilled>  (141) 
True

>  <Ro3>  (141) 
[True, True, True, True]

>  <Ro3_Fulfilled>  (141) 
True

>  <Fsp3>  (141) 
0.285714

>  <Fsp3_0.42>  (141) 
False

>  <Fsp3_0.45>  (141) 
False

>  <Stereogenic_Carbons>  (141) 
0

>  <C_Atoms>  (141) 
7

>  <FCStereo>  (141) 
0.0

>  <SPS>  (141) 
85

>  <nSPS>  (141) 
9.444444

>  <PBF>  (141) 
0.665704

>  <PBF_0.6>  (141) 
True

>  <nPBF>  (141) 
0.073967

>  <nPBF_0.016>  (141) 
True

>  <PMI1>  (141) 
147.136862

>  <PMI2>  (141) 
461.483983

>  <PMI3>  (141) 
527.792161

>  <NPR1>  (141) 
0.278778

>  <NPR2>  (141) 
0.874367

>  <Sum_NPR>  (141) 
1.153145

>  <Sum_NPR_1.07>  (141) 
True

>  <Sum_NPR_1.2>  (141) 
False

>  <MaxAbsEStateIndex>  (141) 
3.975509

>  <MaxEStateIndex>  (141) 
3.975509

>  <MinAbsEStateIndex>  (141) 
0.950093

>  <MinEStateIndex>  (141) 
0.950093

>  <qed>  (141) 
0.584196

>  <MolWt>  (141) 
123.179

>  <HeavyAtomMolWt>  (141) 
112.091

>  <ExactMolWt>  (141) 
123.091675

>  <NumValenceElectrons>  (141) 
48

>  <NumRadicalElectrons>  (141) 
0

>  <MaxPartialCharge>  (141) 
0.078089

>  <MinPartialCharge>  (141) 
-0.357284

>  <MaxAbsPartialCharge>  (141) 
0.357284

>  <MinAbsPartialCharge>  (141) 
0.078089

>  <FpDensityMorgan1>  (141) 
1.555556

>  <FpDensityMorgan2>  (141) 
2.444444

>  <FpDensityMorgan3>  (141) 
3.0

>  <BCUT2D_MWHI>  (141) 
14.613267

>  <BCUT2D_MWLOW>  (141) 
10.203559

>  <BCUT2D_CHGHI>  (141) 
1.871192

>  <BCUT2D_CHGLO>  (141) 
-1.910476

>  <BCUT2D_LOGPHI>  (141) 
1.928665

>  <BCUT2D_LOGPLOW>  (141) 
-2.506401

>  <BCUT2D_MRHI>  (141) 
5.074319

>  <BCUT2D_MRLOW>  (141) 
-0.366095

>  <AvgIpc>  (141) 
1.910086

>  <BalabanJ>  (141) 
2.6149

>  <BertzCT>  (141) 
159.826936

>  <Chi0>  (141) 
6.527098

>  <Chi0n>  (141) 
5.377935

>  <Chi0v>  (141) 
5.377935

>  <Chi1>  (141) 
4.431852

>  <Chi1n>  (141) 
3.113968

>  <Chi1v>  (141) 
3.113968

>  <Chi2n>  (141) 
1.964827

>  <Chi2v>  (141) 
1.964827

>  <Chi3n>  (141) 
1.188244

>  <Chi3v>  (141) 
1.188244

>  <Chi4n>  (141) 
0.750132

>  <Chi4v>  (141) 
0.750132

>  <HallKierAlpha>  (141) 
-0.89

>  <Ipc>  (141) 
145.166537

>  <Kappa1>  (141) 
6.233305

>  <Kappa2>  (141) 
3.198271

>  <Kappa3>  (141) 
1.81639

>  <LabuteASA>  (141) 
54.720826

>  <PEOE_VSA1>  (141) 
5.733667

>  <PEOE_VSA10>  (141) 
0.0

>  <PEOE_VSA11>  (141) 
0.0

>  <PEOE_VSA12>  (141) 
0.0

>  <PEOE_VSA13>  (141) 
0.0

>  <PEOE_VSA14>  (141) 
0.0

>  <PEOE_VSA2>  (141) 
4.983979

>  <PEOE_VSA3>  (141) 
0.0

>  <PEOE_VSA4>  (141) 
0.0

>  <PEOE_VSA5>  (141) 
0.0

>  <PEOE_VSA6>  (141) 
6.066367

>  <PEOE_VSA7>  (141) 
11.629819

>  <PEOE_VSA8>  (141) 
18.814509

>  <PEOE_VSA9>  (141) 
6.544756

>  <SMR_VSA1>  (141) 
5.733667

>  <SMR_VSA10>  (141) 
0.0

>  <SMR_VSA2>  (141) 
0.0

>  <SMR_VSA3>  (141) 
4.983979

>  <SMR_VSA4>  (141) 
0.0

>  <SMR_VSA5>  (141) 
6.420822

>  <SMR_VSA6>  (141) 
6.544756

>  <SMR_VSA7>  (141) 
30.089873

>  <SMR_VSA8>  (141) 
0.0

>  <SMR_VSA9>  (141) 
0.0

>  <SlogP_VSA1>  (141) 
5.733667

>  <SlogP_VSA10>  (141) 
0.0

>  <SlogP_VSA11>  (141) 
0.0

>  <SlogP_VSA12>  (141) 
0.0

>  <SlogP_VSA2>  (141) 
11.528735

>  <SlogP_VSA3>  (141) 
6.420822

>  <SlogP_VSA4>  (141) 
0.0

>  <SlogP_VSA5>  (141) 
5.563451

>  <SlogP_VSA6>  (141) 
24.526421

>  <SlogP_VSA7>  (141) 
0.0

>  <SlogP_VSA8>  (141) 
0.0

>  <SlogP_VSA9>  (141) 
0.0

>  <EState_VSA1>  (141) 
0.0

>  <EState_VSA10>  (141) 
0.0

>  <EState_VSA11>  (141) 
0.0

>  <EState_VSA2>  (141) 
0.0

>  <EState_VSA3>  (141) 
0.0

>  <EState_VSA4>  (141) 
12.965578

>  <EState_VSA5>  (141) 
5.563451

>  <EState_VSA6>  (141) 
6.196844

>  <EState_VSA7>  (141) 
12.263211

>  <EState_VSA8>  (141) 
16.784013

>  <EState_VSA9>  (141) 
0.0

>  <VSA_EState1>  (141) 
0.0

>  <VSA_EState10>  (141) 
0.0

>  <VSA_EState2>  (141) 
3.975509

>  <VSA_EState3>  (141) 
0.0

>  <VSA_EState4>  (141) 
5.024019

>  <VSA_EState5>  (141) 
0.0

>  <VSA_EState6>  (141) 
4.017037

>  <VSA_EState7>  (141) 
4.700009

>  <VSA_EState8>  (141) 
0.950093

>  <VSA_EState9>  (141) 
0.0

>  <FractionCSP3>  (141) 
0.285714

>  <HeavyAtomCount>  (141) 
9

>  <NHOHCount>  (141) 
3

>  <NOCount>  (141) 
2

>  <NumAliphaticCarbocycles>  (141) 
0

>  <NumAliphaticHeterocycles>  (141) 
0

>  <NumAliphaticRings>  (141) 
0

>  <NumAromaticCarbocycles>  (141) 
0

>  <NumAromaticHeterocycles>  (141) 
1

>  <NAR>  (141) 
1

>  <NumHAcceptors>  (141) 
1

>  <NumHDonors>  (141) 
1

>  <NumHeteroatoms>  (141) 
2

>  <NumRotatableBonds>  (141) 
2

>  <NumSaturatedCarbocycles>  (141) 
0

>  <NumSaturatedHeterocycles>  (141) 
0

>  <NumSaturatedRings>  (141) 
0

>  <RingCount>  (141) 
1

>  <MolLogP>  (141) 
-0.134

>  <MolMR>  (141) 
35.6961

>  <fr_Al_COO>  (141) 
0

>  <fr_Al_OH>  (141) 
0

>  <fr_Al_OH_noTert>  (141) 
0

>  <fr_ArN>  (141) 
0

>  <fr_Ar_COO>  (141) 
0

>  <fr_Ar_N>  (141) 
1

>  <fr_Ar_NH>  (141) 
0

>  <fr_Ar_OH>  (141) 
0

>  <fr_COO>  (141) 
0

>  <fr_COO2>  (141) 
0

>  <fr_C_O>  (141) 
0

>  <fr_C_O_noCOO>  (141) 
0

>  <fr_C_S>  (141) 
0

>  <fr_HOCCN>  (141) 
0

>  <fr_Imine>  (141) 
0

>  <fr_NH0>  (141) 
1

>  <fr_NH1>  (141) 
0

>  <fr_NH2>  (141) 
0

>  <fr_N_O>  (141) 
0

>  <fr_Ndealkylation1>  (141) 
0

>  <fr_Ndealkylation2>  (141) 
0

>  <fr_Nhpyrrole>  (141) 
0

>  <fr_SH>  (141) 
0

>  <fr_aldehyde>  (141) 
0

>  <fr_alkyl_carbamate>  (141) 
0

>  <fr_alkyl_halide>  (141) 
0

>  <fr_allylic_oxid>  (141) 
0

>  <fr_amide>  (141) 
0

>  <fr_amidine>  (141) 
0

>  <fr_aniline>  (141) 
0

>  <fr_aryl_methyl>  (141) 
0

>  <fr_azide>  (141) 
0

>  <fr_azo>  (141) 
0

>  <fr_barbitur>  (141) 
0

>  <fr_benzene>  (141) 
0

>  <fr_benzodiazepine>  (141) 
0

>  <fr_bicyclic>  (141) 
0

>  <fr_diazo>  (141) 
0

>  <fr_dihydropyridine>  (141) 
0

>  <fr_epoxide>  (141) 
0

>  <fr_ester>  (141) 
0

>  <fr_ether>  (141) 
0

>  <fr_furan>  (141) 
0

>  <fr_guanido>  (141) 
0

>  <fr_halogen>  (141) 
0

>  <fr_hdrzine>  (141) 
0

>  <fr_hdrzone>  (141) 
0

>  <fr_imidazole>  (141) 
0

>  <fr_imide>  (141) 
0

>  <fr_isocyan>  (141) 
0

>  <fr_isothiocyan>  (141) 
0

>  <fr_ketone>  (141) 
0

>  <fr_ketone_Topliss>  (141) 
0

>  <fr_lactam>  (141) 
0

>  <fr_lactone>  (141) 
0

>  <fr_methoxy>  (141) 
0

>  <fr_morpholine>  (141) 
0

>  <fr_nitrile>  (141) 
0

>  <fr_nitro>  (141) 
0

>  <fr_nitro_arom>  (141) 
0

>  <fr_nitro_arom_nonortho>  (141) 
0

>  <fr_nitroso>  (141) 
0

>  <fr_oxazole>  (141) 
0

>  <fr_oxime>  (141) 
0

>  <fr_para_hydroxylation>  (141) 
0

>  <fr_phenol>  (141) 
0

>  <fr_phenol_noOrthoHbond>  (141) 
0

>  <fr_phos_acid>  (141) 
0

>  <fr_phos_ester>  (141) 
0

>  <fr_piperdine>  (141) 
0

>  <fr_piperzine>  (141) 
0

>  <fr_priamide>  (141) 
0

>  <fr_prisulfonamd>  (141) 
0

>  <fr_pyridine>  (141) 
1

>  <fr_quatN>  (141) 
1

>  <fr_sulfide>  (141) 
0

>  <fr_sulfonamd>  (141) 
0

>  <fr_sulfone>  (141) 
0

>  <fr_term_acetylene>  (141) 
0

>  <fr_tetrazole>  (141) 
0

>  <fr_thiazole>  (141) 
0

>  <fr_thiocyan>  (141) 
0

>  <fr_thiophene>  (141) 
0

>  <fr_unbrch_alkane>  (141) 
0

>  <fr_urea>  (141) 
0

>  <NP-Likeness>  (141) 
-0.867239

$$$$
BJQ
     RDKit          3D

  0  0  0  0  0  0  0  0  0  0999 V3000
M  V30 BEGIN CTAB
M  V30 COUNTS 27 27 0 0 0
M  V30 BEGIN ATOM
M  V30 1 C -0.046797 1.130728 3.679809 0
M  V30 2 C 0.676199 -0.063011 3.775524 0
M  V30 3 C 1.231059 -0.637066 2.636182 0
M  V30 4 C 1.090364 -0.054223 1.374732 0
M  V30 5 C 1.746813 -0.797495 0.297442 0
M  V30 6 C 0.861938 -1.839632 -0.303950 0 CFG=1
M  V30 7 C -0.388337 -1.314429 -0.901953 0
M  V30 8 O -0.817973 -1.478846 -2.073586 0
M  V30 9 O -1.354891 -0.533770 -0.311653 0
M  V30 10 C -2.511541 -0.070378 -0.925371 0
M  V30 11 N 1.583984 -2.672573 -1.250816 0 CHG=1 VAL=4
M  V30 12 C 0.381121 1.105426 1.322713 0
M  V30 13 C -0.165224 1.673493 2.433848 0
M  V30 14 H -0.475018 1.571661 4.566041 0
M  V30 15 H 0.769861 -0.491553 4.758984 0
M  V30 16 H 1.775643 -1.568146 2.821497 0
M  V30 17 H 2.684245 -1.290191 0.646432 0
M  V30 18 H 2.002221 -0.060476 -0.512186 0
M  V30 19 H 0.561899 -2.521368 0.544944 0
M  V30 20 H -2.593966 -0.265084 -2.010079 0
M  V30 21 H -2.530248 1.043361 -0.825282 0
M  V30 22 H -3.451751 -0.430302 -0.467236 0
M  V30 23 H 1.841417 -3.606268 -0.836136 0
M  V30 24 H 2.474111 -2.247203 -1.579399 0
M  V30 25 H 0.935262 -2.870926 -2.055526 0
M  V30 26 H 0.289304 1.541618 0.335113 0
M  V30 27 H -0.724034 2.602290 2.338147 0
M  V30 END ATOM
M  V30 BEGIN BOND
M  V30 1 2 1 2
M  V30 2 1 2 3
M  V30 3 2 3 4
M  V30 4 1 4 5
M  V30 5 1 5 6
M  V30 6 1 6 7
M  V30 7 2 7 8
M  V30 8 1 7 9
M  V30 9 1 9 10
M  V30 10 1 6 11
M  V30 11 1 4 12
M  V30 12 2 12 13
M  V30 13 1 13 1
M  V30 14 1 1 14
M  V30 15 1 2 15
M  V30 16 1 3 16
M  V30 17 1 5 17
M  V30 18 1 5 18
M  V30 19 1 6 19 CFG=1
M  V30 20 1 10 20
M  V30 21 1 10 21
M  V30 22 1 10 22
M  V30 23 1 11 23
M  V30 24 1 11 24
M  V30 25 1 11 25
M  V30 26 1 12 26
M  V30 27 1 13 27
M  V30 END BOND
M  V30 END CTAB
M  END
>  <Dataset>  (142) 
PDB

>  <Ligand_Instance>  (142) 
5N3I_BJQ_A_404

>  <PDB_ID>  (142) 
5N3I

>  <Standardized_SMILES>  (142) 
[H]C1=C([H])C([H])=C(C([H])([H])[C@@]([H])(C(=O)OC([H])([H])[H])[N+]([H])([H])[H])C([H])=C1[H]

>  <Name>  (142) 
[(2~{S})-1-methoxy-1-oxidanylidene-3-phenyl-propan-2-yl]azanium

>  <Pocket>  (142) 
X

>  <ATP_Site>  (142) 
0.0

>  <Peripheral>  (142) 
1.0

>  <Num_H_Atoms_ProtBoundConf>  (142) 
14.0

>  <Num_Resolved_Atoms>  (142) 
13.0

>  <Num_Not_Resolved_Atoms>  (142) 
0.0

>  <2D_Mol_H>  (142) 
<rdkit.Chem.rdchem.Mol object at 0x72a238da6420>

>  <MW>  (142) 
180.227

>  <HBA>  (142) 
2

>  <HBD>  (142) 
1

>  <LogP>  (142) 
0.0126

>  <NRB>  (142) 
5

>  <TPSA>  (142) 
53.94

>  <Num_Heavy_Atoms>  (142) 
13

>  <Ro5>  (142) 
[True, True, True, True, True, True]

>  <Ro5_Fulfilled>  (142) 
True

>  <Ro3>  (142) 
[True, True, True, True]

>  <Ro3_Fulfilled>  (142) 
True

>  <Fsp3>  (142) 
0.3

>  <Fsp3_0.42>  (142) 
False

>  <Fsp3_0.45>  (142) 
False

>  <Stereogenic_Carbons>  (142) 
1

>  <C_Atoms>  (142) 
10

>  <FCStereo>  (142) 
0.1

>  <SPS>  (142) 
158

>  <nSPS>  (142) 
12.153846

>  <PBF>  (142) 
0.697447

>  <PBF_0.6>  (142) 
True

>  <nPBF>  (142) 
0.05365

>  <nPBF_0.016>  (142) 
True

>  <PMI1>  (142) 
407.156765

>  <PMI2>  (142) 
868.176224

>  <PMI3>  (142) 
1160.026757

>  <NPR1>  (142) 
0.350989

>  <NPR2>  (142) 
0.748411

>  <Sum_NPR>  (142) 
1.0994

>  <Sum_NPR_1.07>  (142) 
True

>  <Sum_NPR_1.2>  (142) 
False

>  <MaxAbsEStateIndex>  (142) 
11.03142

>  <MaxEStateIndex>  (142) 
11.03142

>  <MinAbsEStateIndex>  (142) 
0.260321

>  <MinEStateIndex>  (142) 
-0.312593

>  <qed>  (142) 
0.66622

>  <MolWt>  (142) 
180.227

>  <HeavyAtomMolWt>  (142) 
166.115

>  <ExactMolWt>  (142) 
180.101905

>  <NumValenceElectrons>  (142) 
70

>  <NumRadicalElectrons>  (142) 
0

>  <MaxPartialCharge>  (142) 
0.364335

>  <MinPartialCharge>  (142) 
-0.464618

>  <MaxAbsPartialCharge>  (142) 
0.464618

>  <MinAbsPartialCharge>  (142) 
0.364335

>  <FpDensityMorgan1>  (142) 
1.461538

>  <FpDensityMorgan2>  (142) 
2.076923

>  <FpDensityMorgan3>  (142) 
2.615385

>  <BCUT2D_MWHI>  (142) 
16.524728

>  <BCUT2D_MWLOW>  (142) 
10.075256

>  <BCUT2D_CHGHI>  (142) 
2.168989

>  <BCUT2D_CHGLO>  (142) 
-2.048658

>  <BCUT2D_LOGPHI>  (142) 
2.008295

>  <BCUT2D_LOGPLOW>  (142) 
-2.657743

>  <BCUT2D_MRHI>  (142) 
5.736545

>  <BCUT2D_MRLOW>  (142) 
-0.407064

>  <AvgIpc>  (142) 
2.17834

>  <BalabanJ>  (142) 
2.547231

>  <BertzCT>  (142) 
271.513052

>  <Chi0>  (142) 
9.681798

>  <Chi0n>  (142) 
7.694812

>  <Chi0v>  (142) 
7.694812

>  <Chi1>  (142) 
6.236382

>  <Chi1n>  (142) 
4.185905

>  <Chi1v>  (142) 
4.185905

>  <Chi2n>  (142) 
2.909806

>  <Chi2v>  (142) 
2.909806

>  <Chi3n>  (142) 
1.859444

>  <Chi3v>  (142) 
1.859444

>  <Chi4n>  (142) 
1.148611

>  <Chi4v>  (142) 
1.148611

>  <HallKierAlpha>  (142) 
-1.35

>  <Ipc>  (142) 
949.756396

>  <Kappa1>  (142) 
9.735837

>  <Kappa2>  (142) 
4.620926

>  <Kappa3>  (142) 
2.874441

>  <LabuteASA>  (142) 
77.50613

>  <PEOE_VSA1>  (142) 
10.47053

>  <PEOE_VSA10>  (142) 
0.0

>  <PEOE_VSA11>  (142) 
6.041841

>  <PEOE_VSA12>  (142) 
0.0

>  <PEOE_VSA13>  (142) 
0.0

>  <PEOE_VSA14>  (142) 
5.969305

>  <PEOE_VSA2>  (142) 
0.0

>  <PEOE_VSA3>  (142) 
4.794537

>  <PEOE_VSA4>  (142) 
0.0

>  <PEOE_VSA5>  (142) 
0.0

>  <PEOE_VSA6>  (142) 
30.331835

>  <PEOE_VSA7>  (142) 
5.563451

>  <PEOE_VSA8>  (142) 
6.420822

>  <PEOE_VSA9>  (142) 
7.109798

>  <SMR_VSA1>  (142) 
15.265068

>  <SMR_VSA10>  (142) 
5.969305

>  <SMR_VSA2>  (142) 
0.0

>  <SMR_VSA3>  (142) 
0.0

>  <SMR_VSA4>  (142) 
0.0

>  <SMR_VSA5>  (142) 
12.462662

>  <SMR_VSA6>  (142) 
7.109798

>  <SMR_VSA7>  (142) 
35.895287

>  <SMR_VSA8>  (142) 
0.0

>  <SMR_VSA9>  (142) 
0.0

>  <SlogP_VSA1>  (142) 
5.733667

>  <SlogP_VSA10>  (142) 
0.0

>  <SlogP_VSA11>  (142) 
0.0

>  <SlogP_VSA12>  (142) 
0.0

>  <SlogP_VSA2>  (142) 
19.120944

>  <SlogP_VSA3>  (142) 
15.952222

>  <SlogP_VSA4>  (142) 
0.0

>  <SlogP_VSA5>  (142) 
5.563451

>  <SlogP_VSA6>  (142) 
30.331835

>  <SlogP_VSA7>  (142) 
0.0

>  <SlogP_VSA8>  (142) 
0.0

>  <SlogP_VSA9>  (142) 
0.0

>  <EState_VSA1>  (142) 
0.0

>  <EState_VSA10>  (142) 
4.794537

>  <EState_VSA11>  (142) 
0.0

>  <EState_VSA2>  (142) 
12.011146

>  <EState_VSA3>  (142) 
6.420822

>  <EState_VSA4>  (142) 
5.563451

>  <EState_VSA5>  (142) 
7.109798

>  <EState_VSA6>  (142) 
0.0

>  <EState_VSA7>  (142) 
30.331835

>  <EState_VSA8>  (142) 
10.47053

>  <EState_VSA9>  (142) 
0.0

>  <VSA_EState1>  (142) 
4.582764

>  <VSA_EState10>  (142) 
0.0

>  <VSA_EState2>  (142) 
11.03142

>  <VSA_EState3>  (142) 
0.0

>  <VSA_EState4>  (142) 
4.834066

>  <VSA_EState5>  (142) 
-0.260321

>  <VSA_EState6>  (142) 
9.465822

>  <VSA_EState7>  (142) 
0.632454

>  <VSA_EState8>  (142) 
0.0

>  <VSA_EState9>  (142) 
1.380463

>  <FractionCSP3>  (142) 
0.3

>  <HeavyAtomCount>  (142) 
13

>  <NHOHCount>  (142) 
3

>  <NOCount>  (142) 
3

>  <NumAliphaticCarbocycles>  (142) 
0

>  <NumAliphaticHeterocycles>  (142) 
0

>  <NumAliphaticRings>  (142) 
0

>  <NumAromaticCarbocycles>  (142) 
1

>  <NumAromaticHeterocycles>  (142) 
0

>  <NAR>  (142) 
1

>  <NumHAcceptors>  (142) 
2

>  <NumHDonors>  (142) 
1

>  <NumHeteroatoms>  (142) 
3

>  <NumRotatableBonds>  (142) 
3

>  <NumSaturatedCarbocycles>  (142) 
0

>  <NumSaturatedHeterocycles>  (142) 
0

>  <NumSaturatedRings>  (142) 
0

>  <RingCount>  (142) 
1

>  <MolLogP>  (142) 
0.0126

>  <MolMR>  (142) 
48.8381

>  <fr_Al_COO>  (142) 
0

>  <fr_Al_OH>  (142) 
0

>  <fr_Al_OH_noTert>  (142) 
0

>  <fr_ArN>  (142) 
0

>  <fr_Ar_COO>  (142) 
0

>  <fr_Ar_N>  (142) 
0

>  <fr_Ar_NH>  (142) 
0

>  <fr_Ar_OH>  (142) 
0

>  <fr_COO>  (142) 
0

>  <fr_COO2>  (142) 
0

>  <fr_C_O>  (142) 
1

>  <fr_C_O_noCOO>  (142) 
1

>  <fr_C_S>  (142) 
0

>  <fr_HOCCN>  (142) 
0

>  <fr_Imine>  (142) 
0

>  <fr_NH0>  (142) 
0

>  <fr_NH1>  (142) 
0

>  <fr_NH2>  (142) 
0

>  <fr_N_O>  (142) 
0

>  <fr_Ndealkylation1>  (142) 
0

>  <fr_Ndealkylation2>  (142) 
0

>  <fr_Nhpyrrole>  (142) 
0

>  <fr_SH>  (142) 
0

>  <fr_aldehyde>  (142) 
0

>  <fr_alkyl_carbamate>  (142) 
0

>  <fr_alkyl_halide>  (142) 
0

>  <fr_allylic_oxid>  (142) 
0

>  <fr_amide>  (142) 
0

>  <fr_amidine>  (142) 
0

>  <fr_aniline>  (142) 
0

>  <fr_aryl_methyl>  (142) 
0

>  <fr_azide>  (142) 
0

>  <fr_azo>  (142) 
0

>  <fr_barbitur>  (142) 
0

>  <fr_benzene>  (142) 
1

>  <fr_benzodiazepine>  (142) 
0

>  <fr_bicyclic>  (142) 
0

>  <fr_diazo>  (142) 
0

>  <fr_dihydropyridine>  (142) 
0

>  <fr_epoxide>  (142) 
0

>  <fr_ester>  (142) 
1

>  <fr_ether>  (142) 
1

>  <fr_furan>  (142) 
0

>  <fr_guanido>  (142) 
0

>  <fr_halogen>  (142) 
0

>  <fr_hdrzine>  (142) 
0

>  <fr_hdrzone>  (142) 
0

>  <fr_imidazole>  (142) 
0

>  <fr_imide>  (142) 
0

>  <fr_isocyan>  (142) 
0

>  <fr_isothiocyan>  (142) 
0

>  <fr_ketone>  (142) 
0

>  <fr_ketone_Topliss>  (142) 
0

>  <fr_lactam>  (142) 
0

>  <fr_lactone>  (142) 
0

>  <fr_methoxy>  (142) 
1

>  <fr_morpholine>  (142) 
0

>  <fr_nitrile>  (142) 
0

>  <fr_nitro>  (142) 
0

>  <fr_nitro_arom>  (142) 
0

>  <fr_nitro_arom_nonortho>  (142) 
0

>  <fr_nitroso>  (142) 
0

>  <fr_oxazole>  (142) 
0

>  <fr_oxime>  (142) 
0

>  <fr_para_hydroxylation>  (142) 
0

>  <fr_phenol>  (142) 
0

>  <fr_phenol_noOrthoHbond>  (142) 
0

>  <fr_phos_acid>  (142) 
0

>  <fr_phos_ester>  (142) 
0

>  <fr_piperdine>  (142) 
0

>  <fr_piperzine>  (142) 
0

>  <fr_priamide>  (142) 
0

>  <fr_prisulfonamd>  (142) 
0

>  <fr_pyridine>  (142) 
0

>  <fr_quatN>  (142) 
1

>  <fr_sulfide>  (142) 
0

>  <fr_sulfonamd>  (142) 
0

>  <fr_sulfone>  (142) 
0

>  <fr_term_acetylene>  (142) 
0

>  <fr_tetrazole>  (142) 
0

>  <fr_thiazole>  (142) 
0

>  <fr_thiocyan>  (142) 
0

>  <fr_thiophene>  (142) 
0

>  <fr_unbrch_alkane>  (142) 
0

>  <fr_urea>  (142) 
0

>  <NP-Likeness>  (142) 
-0.080915

$$$$
BVZ
     RDKit          3D

  0  0  0  0  0  0  0  0  0  0999 V3000
M  V30 BEGIN CTAB
M  V30 COUNTS 56 59 0 0 0
M  V30 BEGIN ATOM
M  V30 1 R 1.632751 1.840608 3.020558 0 MASS=1 VAL=1
M  V30 2 B 2.051338 1.093487 3.251980 0 CHG=-1 VAL=4
M  V30 3 O 2.635072 1.136432 4.578337 0
M  V30 4 O 1.007631 0.031659 3.230515 0
M  V30 5 C 3.100584 0.648892 2.152589 0
M  V30 6 C 4.019694 -0.333249 2.477131 0
M  V30 7 C 4.921765 -0.710739 1.521190 0
M  V30 8 C 4.960318 -0.158909 0.245800 0
M  V30 9 C 4.004781 0.815976 0.008872 0
M  V30 10 C 3.064485 1.252095 0.912672 0
M  V30 11 C 2.106779 2.292644 0.538933 0
M  V30 12 N 0.760899 1.788131 0.263449 0 CFG=2 CHG=1 VAL=4
M  V30 13 C 0.734975 0.382697 -0.042103 0
M  V30 14 C -0.648731 -0.116518 0.399802 0
M  V30 15 N -1.535184 -0.081664 -0.667774 0
M  V30 16 S -1.911779 -1.619949 -1.301230 0
M  V30 17 O -0.576475 -2.193320 -1.681102 0
M  V30 18 O -2.822570 -1.483284 -2.484165 0
M  V30 19 C -2.677690 -2.492442 -0.001932 0
M  V30 20 C -3.000033 -2.098594 1.277923 0
M  V30 21 C -3.620246 -2.943233 2.170793 0
M  V30 22 C -3.948548 -4.238223 1.812240 0
M  V30 23 C -3.634405 -4.648211 0.538710 0
M  V30 24 C -3.991651 -5.951597 0.252011 0
M  V30 25 N -3.711191 -6.419713 -0.985298 0
M  V30 26 C -3.106250 -5.656208 -1.915064 0
M  V30 27 C -2.764508 -4.369279 -1.601385 0
M  V30 28 C -3.006230 -3.797056 -0.369584 0
M  V30 29 C -1.693523 1.013544 -1.476255 0
M  V30 30 C -0.550563 1.883219 -1.842969 0
M  V30 31 C 0.097892 2.601624 -0.700461 0
M  V30 32 H 2.038996 0.690794 5.218400 0
M  V30 33 H 1.470453 -0.843329 3.164389 0
M  V30 34 H 4.033405 -0.795120 3.453624 0
M  V30 35 H 5.650122 -1.486980 1.774161 0
M  V30 36 H 5.673288 -0.454720 -0.515428 0
M  V30 37 H 4.001724 1.273124 -0.978628 0
M  V30 38 H 2.447252 2.802887 -0.385525 0
M  V30 39 H 2.107214 3.082850 1.321009 0
M  V30 40 H 0.259609 1.945585 1.191738 0
M  V30 41 H 0.807880 0.150674 -1.110138 0
M  V30 42 H 1.534667 -0.190102 0.447329 0
M  V30 43 H -0.469485 -1.177858 0.721918 0
M  V30 44 H -0.970371 0.491932 1.250803 0
M  V30 45 H -2.723361 -1.089196 1.481261 0
M  V30 46 H -3.820449 -2.516579 3.144578 0
M  V30 47 H -4.426390 -4.856307 2.533415 0
M  V30 48 H -4.478310 -6.596855 0.969214 0
M  V30 49 H -2.898064 -6.049958 -2.878568 0
M  V30 50 H -2.277979 -3.749213 -2.342292 0
M  V30 51 H -2.481237 1.686404 -1.052159 0
M  V30 52 H -2.148659 0.670929 -2.451404 0
M  V30 53 H -1.014132 2.715185 -2.458189 0
M  V30 54 H 0.180612 1.444370 -2.553641 0
M  V30 55 H -0.642951 3.299185 -0.239026 0
M  V30 56 H 0.870283 3.277616 -1.168180 0
M  V30 END ATOM
M  V30 BEGIN BOND
M  V30 1 1 1 2
M  V30 2 1 2 3
M  V30 3 1 2 4
M  V30 4 1 2 5
M  V30 5 2 5 6
M  V30 6 1 6 7
M  V30 7 2 7 8
M  V30 8 1 8 9
M  V30 9 2 9 10
M  V30 10 1 10 11
M  V30 11 1 11 12
M  V30 12 1 12 13
M  V30 13 1 13 14
M  V30 14 1 14 15
M  V30 15 1 15 16
M  V30 16 2 16 17
M  V30 17 2 16 18
M  V30 18 1 16 19
M  V30 19 2 19 20
M  V30 20 1 20 21
M  V30 21 2 21 22
M  V30 22 1 22 23
M  V30 23 2 23 24
M  V30 24 1 24 25
M  V30 25 2 25 26
M  V30 26 1 26 27
M  V30 27 2 27 28
M  V30 28 1 15 29
M  V30 29 1 29 30
M  V30 30 1 30 31
M  V30 31 1 10 5
M  V30 32 1 31 12
M  V30 33 1 28 19
M  V30 34 1 28 23
M  V30 35 1 3 32
M  V30 36 1 4 33
M  V30 37 1 6 34
M  V30 38 1 7 35
M  V30 39 1 8 36
M  V30 40 1 9 37
M  V30 41 1 11 38
M  V30 42 1 11 39
M  V30 43 1 12 40 CFG=1
M  V30 44 1 13 41
M  V30 45 1 13 42
M  V30 46 1 14 43
M  V30 47 1 14 44
M  V30 48 1 20 45
M  V30 49 1 21 46
M  V30 50 1 22 47
M  V30 51 1 24 48
M  V30 52 1 26 49
M  V30 53 1 27 50
M  V30 54 1 29 51
M  V30 55 1 29 52
M  V30 56 1 30 53
M  V30 57 1 30 54
M  V30 58 1 31 55
M  V30 59 1 31 56
M  V30 END BOND
M  V30 END CTAB
M  END
>  <Dataset>  (143) 
PDB

>  <Ligand_Instance>  (143) 
6ERT_BVZ_A_401

>  <PDB_ID>  (143) 
6ERT

>  <Standardized_SMILES>  (143) 
[1*][B-](O[H])(O[H])C1=C([H])C([H])=C([H])C([H])=C1C([H])([H])[N@+]1([H])C([H])([H])C([H])([H])N(S(=O)(=O)C2=C([H])C([H])=C([H])C3=C([H])N=C([H])C([H])=C32)C([H])([H])C([H])([H])C1([H])[H]

>  <Name>  (143) 
[2-[(4-isoquinolin-5-ylsulfonyl-1,4-diazepan-1-yl)methyl]phenyl]-tris(oxidanyl)boranuide

>  <Pocket>  (143) 
A

>  <ATP_Site>  (143) 
1.0

>  <Peripheral>  (143) 
0.0

>  <Num_H_Atoms_ProtBoundConf>  (143) 
25.0

>  <Num_Resolved_Atoms>  (143) 
30.0

>  <Num_Not_Resolved_Atoms>  (143) 
1.0

>  <2D_Mol_H>  (143) 
<rdkit.Chem.rdchem.Mol object at 0x72a238da6500>

>  <MW>  (143) 
426.327

>  <HBA>  (143) 
5

>  <HBD>  (143) 
3

>  <LogP>  (143) 
-0.6059

>  <NRB>  (143) 
7

>  <TPSA>  (143) 
95.17

>  <Num_Heavy_Atoms>  (143) 
30

>  <Ro5>  (143) 
[True, True, True, True, True, True]

>  <Ro5_Fulfilled>  (143) 
True

>  <Ro3>  (143) 
[False, False, True, True]

>  <Ro3_Fulfilled>  (143) 
False

>  <Fsp3>  (143) 
0.285714

>  <Fsp3_0.42>  (143) 
False

>  <Fsp3_0.45>  (143) 
False

>  <Stereogenic_Carbons>  (143) 
0

>  <C_Atoms>  (143) 
21

>  <FCStereo>  (143) 
0.0

>  <SPS>  (143) 
582

>  <nSPS>  (143) 
19.4

>  <PBF>  (143) 
1.269686

>  <PBF_0.6>  (143) 
True

>  <nPBF>  (143) 
0.042323

>  <nPBF_0.016>  (143) 
True

>  <PMI1>  (143) 
2024.062202

>  <PMI2>  (143) 
6054.056635

>  <PMI3>  (143) 
6625.063546

>  <NPR1>  (143) 
0.305516

>  <NPR2>  (143) 
0.913811

>  <Sum_NPR>  (143) 
1.219327

>  <Sum_NPR_1.07>  (143) 
True

>  <Sum_NPR_1.2>  (143) 
True

>  <MaxAbsEStateIndex>  (143) 
13.445462

>  <MaxEStateIndex>  (143) 
13.445462

>  <MinAbsEStateIndex>  (143) 
0.327916

>  <MinEStateIndex>  (143) 
-3.614345

>  <qed>  (143) 
0.473798

>  <MolWt>  (143) 
426.327

>  <HeavyAtomMolWt>  (143) 
401.127

>  <ExactMolWt>  (143) 
426.165883

>  <NumValenceElectrons>  (143) 
157

>  <NumRadicalElectrons>  (143) 
0

>  <MaxPartialCharge>  (143) 
nan

>  <MinPartialCharge>  (143) 
nan

>  <MaxAbsPartialCharge>  (143) 
nan

>  <MinAbsPartialCharge>  (143) 
nan

>  <FpDensityMorgan1>  (143) 
1.1

>  <FpDensityMorgan2>  (143) 
1.933333

>  <FpDensityMorgan3>  (143) 
2.766667

>  <BCUT2D_MWHI>  (143) 
nan

>  <BCUT2D_MWLOW>  (143) 
nan

>  <BCUT2D_CHGHI>  (143) 
nan

>  <BCUT2D_CHGLO>  (143) 
nan

>  <BCUT2D_LOGPHI>  (143) 
nan

>  <BCUT2D_LOGPLOW>  (143) 
nan

>  <BCUT2D_MRHI>  (143) 
nan

>  <BCUT2D_MRLOW>  (143) 
nan

>  <AvgIpc>  (143) 
2.989164

>  <BalabanJ>  (143) 
1.534043

>  <BertzCT>  (143) 
1181.208442

>  <Chi0>  (143) 
22.062267

>  <Chi0n>  (143) 
16.607093

>  <Chi0v>  (143) 
17.423589

>  <Chi1>  (143) 
14.765005

>  <Chi1n>  (143) 
10.070222

>  <Chi1v>  (143) 
11.510286

>  <Chi2n>  (143) 
7.609858

>  <Chi2v>  (143) 
9.516215

>  <Chi3n>  (143) 
5.684879

>  <Chi3v>  (143) 
7.641672

>  <Chi4n>  (143) 
4.115427

>  <Chi4v>  (143) 
5.809037

>  <HallKierAlpha>  (143) 
-2.295065

>  <Ipc>  (143) 
9885596.298728

>  <Kappa1>  (143) 
19.655607

>  <Kappa2>  (143) 
7.753502

>  <Kappa3>  (143) 
3.99007

>  <LabuteASA>  (143) 
176.335146

>  <PEOE_VSA1>  (143) 
0.0

>  <PEOE_VSA10>  (143) 
0.0

>  <PEOE_VSA11>  (143) 
0.0

>  <PEOE_VSA12>  (143) 
0.0

>  <PEOE_VSA13>  (143) 
0.0

>  <PEOE_VSA14>  (143) 
153.116011

>  <PEOE_VSA2>  (143) 
4.983979

>  <PEOE_VSA3>  (143) 
0.0

>  <PEOE_VSA4>  (143) 
0.0

>  <PEOE_VSA5>  (143) 
0.0

>  <PEOE_VSA6>  (143) 
6.066367

>  <PEOE_VSA7>  (143) 
0.0

>  <PEOE_VSA8>  (143) 
12.393687

>  <PEOE_VSA9>  (143) 
0.0

>  <SMR_VSA1>  (143) 
23.365752

>  <SMR_VSA10>  (143) 
33.376935

>  <SMR_VSA2>  (143) 
0.0

>  <SMR_VSA3>  (143) 
9.289195

>  <SMR_VSA4>  (143) 
0.0

>  <SMR_VSA5>  (143) 
17.861062

>  <SMR_VSA6>  (143) 
26.179026

>  <SMR_VSA7>  (143) 
66.488075

>  <SMR_VSA8>  (143) 
0.0

>  <SMR_VSA9>  (143) 
0.0

>  <SlogP_VSA1>  (143) 
10.362713

>  <SlogP_VSA10>  (143) 
0.0

>  <SlogP_VSA11>  (143) 
0.0

>  <SlogP_VSA12>  (143) 
0.0

>  <SlogP_VSA2>  (143) 
61.052455

>  <SlogP_VSA3>  (143) 
16.568048

>  <SlogP_VSA4>  (143) 
0.0

>  <SlogP_VSA5>  (143) 
11.984273

>  <SlogP_VSA6>  (143) 
65.820107

>  <SlogP_VSA7>  (143) 
0.0

>  <SlogP_VSA8>  (143) 
10.772448

>  <SlogP_VSA9>  (143) 
0.0

>  <EState_VSA1>  (143) 
17.141683

>  <EState_VSA10>  (143) 
18.465842

>  <EState_VSA11>  (143) 
0.0

>  <EState_VSA2>  (143) 
0.0

>  <EState_VSA3>  (143) 
41.923537

>  <EState_VSA4>  (143) 
23.915254

>  <EState_VSA5>  (143) 
4.89991

>  <EState_VSA6>  (143) 
34.898004

>  <EState_VSA7>  (143) 
30.331835

>  <EState_VSA8>  (143) 
4.983979

>  <EState_VSA9>  (143) 
0.0

>  <VSA_EState1>  (143) 
27.834305

>  <VSA_EState10>  (143) 
0.0

>  <VSA_EState2>  (143) 
5.680693

>  <VSA_EState3>  (143) 
21.994116

>  <VSA_EState4>  (143) 
1.614306

>  <VSA_EState5>  (143) 
0.0

>  <VSA_EState6>  (143) 
14.583494

>  <VSA_EState7>  (143) 
4.059625

>  <VSA_EState8>  (143) 
3.096751

>  <VSA_EState9>  (143) 
-5.946623

>  <FractionCSP3>  (143) 
0.285714

>  <HeavyAtomCount>  (143) 
30

>  <NHOHCount>  (143) 
3

>  <NOCount>  (143) 
7

>  <NumAliphaticCarbocycles>  (143) 
0

>  <NumAliphaticHeterocycles>  (143) 
1

>  <NumAliphaticRings>  (143) 
1

>  <NumAromaticCarbocycles>  (143) 
2

>  <NumAromaticHeterocycles>  (143) 
1

>  <NAR>  (143) 
3

>  <NumHAcceptors>  (143) 
5

>  <NumHDonors>  (143) 
3

>  <NumHeteroatoms>  (143) 
10

>  <NumRotatableBonds>  (143) 
5

>  <NumSaturatedCarbocycles>  (143) 
0

>  <NumSaturatedHeterocycles>  (143) 
1

>  <NumSaturatedRings>  (143) 
1

>  <RingCount>  (143) 
4

>  <MolLogP>  (143) 
-0.6059

>  <MolMR>  (143) 
115.7871

>  <fr_Al_COO>  (143) 
0

>  <fr_Al_OH>  (143) 
0

>  <fr_Al_OH_noTert>  (143) 
0

>  <fr_ArN>  (143) 
0

>  <fr_Ar_COO>  (143) 
0

>  <fr_Ar_N>  (143) 
1

>  <fr_Ar_NH>  (143) 
0

>  <fr_Ar_OH>  (143) 
0

>  <fr_COO>  (143) 
0

>  <fr_COO2>  (143) 
0

>  <fr_C_O>  (143) 
0

>  <fr_C_O_noCOO>  (143) 
0

>  <fr_C_S>  (143) 
0

>  <fr_HOCCN>  (143) 
0

>  <fr_Imine>  (143) 
0

>  <fr_NH0>  (143) 
2

>  <fr_NH1>  (143) 
1

>  <fr_NH2>  (143) 
0

>  <fr_N_O>  (143) 
0

>  <fr_Ndealkylation1>  (143) 
0

>  <fr_Ndealkylation2>  (143) 
0

>  <fr_Nhpyrrole>  (143) 
0

>  <fr_SH>  (143) 
0

>  <fr_aldehyde>  (143) 
0

>  <fr_alkyl_carbamate>  (143) 
0

>  <fr_alkyl_halide>  (143) 
0

>  <fr_allylic_oxid>  (143) 
0

>  <fr_amide>  (143) 
0

>  <fr_amidine>  (143) 
0

>  <fr_aniline>  (143) 
0

>  <fr_aryl_methyl>  (143) 
0

>  <fr_azide>  (143) 
0

>  <fr_azo>  (143) 
0

>  <fr_barbitur>  (143) 
0

>  <fr_benzene>  (143) 
2

>  <fr_benzodiazepine>  (143) 
0

>  <fr_bicyclic>  (143) 
1

>  <fr_diazo>  (143) 
0

>  <fr_dihydropyridine>  (143) 
0

>  <fr_epoxide>  (143) 
0

>  <fr_ester>  (143) 
0

>  <fr_ether>  (143) 
0

>  <fr_furan>  (143) 
0

>  <fr_guanido>  (143) 
0

>  <fr_halogen>  (143) 
0

>  <fr_hdrzine>  (143) 
0

>  <fr_hdrzone>  (143) 
0

>  <fr_imidazole>  (143) 
0

>  <fr_imide>  (143) 
0

>  <fr_isocyan>  (143) 
0

>  <fr_isothiocyan>  (143) 
0

>  <fr_ketone>  (143) 
0

>  <fr_ketone_Topliss>  (143) 
0

>  <fr_lactam>  (143) 
0

>  <fr_lactone>  (143) 
0

>  <fr_methoxy>  (143) 
0

>  <fr_morpholine>  (143) 
0

>  <fr_nitrile>  (143) 
0

>  <fr_nitro>  (143) 
0

>  <fr_nitro_arom>  (143) 
0

>  <fr_nitro_arom_nonortho>  (143) 
0

>  <fr_nitroso>  (143) 
0

>  <fr_oxazole>  (143) 
0

>  <fr_oxime>  (143) 
0

>  <fr_para_hydroxylation>  (143) 
0

>  <fr_phenol>  (143) 
0

>  <fr_phenol_noOrthoHbond>  (143) 
0

>  <fr_phos_acid>  (143) 
0

>  <fr_phos_ester>  (143) 
0

>  <fr_piperdine>  (143) 
0

>  <fr_piperzine>  (143) 
0

>  <fr_priamide>  (143) 
0

>  <fr_prisulfonamd>  (143) 
0

>  <fr_pyridine>  (143) 
1

>  <fr_quatN>  (143) 
1

>  <fr_sulfide>  (143) 
0

>  <fr_sulfonamd>  (143) 
1

>  <fr_sulfone>  (143) 
0

>  <fr_term_acetylene>  (143) 
0

>  <fr_tetrazole>  (143) 
0

>  <fr_thiazole>  (143) 
0

>  <fr_thiocyan>  (143) 
0

>  <fr_thiophene>  (143) 
0

>  <fr_unbrch_alkane>  (143) 
0

>  <fr_urea>  (143) 
0

>  <NP-Likeness>  (143) 
-0.998918

$$$$
CDT
     RDKit          3D

  0  0  0  0  0  0  0  0  0  0999 V3000
M  V30 BEGIN CTAB
M  V30 COUNTS 23 22 0 0 0
M  V30 BEGIN ATOM
M  V30 1 N 2.380454 3.521728 -0.674509 0
M  V30 2 C 1.337237 2.754240 -0.083584 0
M  V30 3 O 0.445815 3.238760 0.639263 0
M  V30 4 N 1.355732 1.372514 -0.360698 0
M  V30 5 C 0.353699 0.433070 0.168225 0 CFG=1
M  V30 6 C -0.288324 -0.123932 -1.073978 0
M  V30 7 O -0.008961 -1.321726 -1.397109 0
M  V30 8 O -1.136132 0.744905 -1.752209 0 CHG=-1 VAL=1
M  V30 9 C 1.132272 -0.598922 0.920411 0
M  V30 10 C 0.294762 -1.674236 1.554038 0
M  V30 11 S -0.890977 -1.052888 2.743329 0
M  V30 12 C -1.849465 -2.420392 3.449840 0
M  V30 13 H 2.017539 4.187957 -1.391743 0
M  V30 14 H 3.418882 3.543182 -0.528495 0
M  V30 15 H 2.087088 0.914514 -0.965267 0
M  V30 16 H -0.371687 0.970613 0.783904 0
M  V30 17 H 1.741339 -0.076665 1.663171 0
M  V30 18 H 1.773641 -1.118356 0.157581 0
M  V30 19 H 1.004188 -2.355443 2.072986 0
M  V30 20 H -0.191955 -2.288620 0.775174 0
M  V30 21 H -1.441803 -2.622681 4.473207 0
M  V30 22 H -2.912817 -2.186535 3.553016 0
M  V30 23 H -1.735881 -3.364245 2.882560 0
M  V30 END ATOM
M  V30 BEGIN BOND
M  V30 1 1 1 2
M  V30 2 2 2 3
M  V30 3 1 2 4
M  V30 4 1 4 5
M  V30 5 1 5 6
M  V30 6 2 6 7
M  V30 7 1 6 8
M  V30 8 1 5 9
M  V30 9 1 9 10
M  V30 10 1 10 11
M  V30 11 1 11 12
M  V30 12 1 1 13
M  V30 13 1 1 14
M  V30 14 1 4 15
M  V30 15 1 5 16 CFG=1
M  V30 16 1 9 17
M  V30 17 1 9 18
M  V30 18 1 10 19
M  V30 19 1 10 20
M  V30 20 1 12 21
M  V30 21 1 12 22
M  V30 22 1 12 23
M  V30 END BOND
M  V30 END CTAB
M  END
>  <Dataset>  (144) 
PDB

>  <Ligand_Instance>  (144) 
5N3R_CDT_A_401

>  <PDB_ID>  (144) 
5N3R

>  <Standardized_SMILES>  (144) 
[H]N([H])C(=O)N([H])[C@@]([H])(C(=O)[O-])C([H])([H])C([H])([H])SC([H])([H])[H]

>  <Name>  (144) 
4-METHYLSULFANYL-2-UREIDO-BUTYRIC ACID

>  <Pocket>  (144) 
F

>  <ATP_Site>  (144) 
0.0

>  <Peripheral>  (144) 
1.0

>  <Num_H_Atoms_ProtBoundConf>  (144) 
11.0

>  <Num_Resolved_Atoms>  (144) 
12.0

>  <Num_Not_Resolved_Atoms>  (144) 
0.0

>  <2D_Mol_H>  (144) 
<rdkit.Chem.rdchem.Mol object at 0x72a238da65e0>

>  <MW>  (144) 
191.232

>  <HBA>  (144) 
4

>  <HBD>  (144) 
2

>  <LogP>  (144) 
-1.4737

>  <NRB>  (144) 
6

>  <TPSA>  (144) 
95.25

>  <Num_Heavy_Atoms>  (144) 
12

>  <Ro5>  (144) 
[True, True, True, True, True, True]

>  <Ro5_Fulfilled>  (144) 
True

>  <Ro3>  (144) 
[True, False, True, True]

>  <Ro3_Fulfilled>  (144) 
True

>  <Fsp3>  (144) 
0.666667

>  <Fsp3_0.42>  (144) 
True

>  <Fsp3_0.45>  (144) 
True

>  <Stereogenic_Carbons>  (144) 
1

>  <C_Atoms>  (144) 
6

>  <FCStereo>  (144) 
0.166667

>  <SPS>  (144) 
145

>  <nSPS>  (144) 
12.083333

>  <PBF>  (144) 
0.80462

>  <PBF_0.6>  (144) 
True

>  <nPBF>  (144) 
0.067052

>  <nPBF_0.016>  (144) 
True

>  <PMI1>  (144) 
425.833633

>  <PMI2>  (144) 
1188.40153

>  <PMI3>  (144) 
1373.919726

>  <NPR1>  (144) 
0.309941

>  <NPR2>  (144) 
0.864972

>  <Sum_NPR>  (144) 
1.174912

>  <Sum_NPR_1.07>  (144) 
True

>  <Sum_NPR_1.2>  (144) 
False

>  <MaxAbsEStateIndex>  (144) 
10.350189

>  <MaxEStateIndex>  (144) 
10.350189

>  <MinAbsEStateIndex>  (144) 
0.325833

>  <MinEStateIndex>  (144) 
-1.302917

>  <qed>  (144) 
0.554053

>  <MolWt>  (144) 
191.232

>  <HeavyAtomMolWt>  (144) 
180.144

>  <ExactMolWt>  (144) 
191.049587

>  <NumValenceElectrons>  (144) 
70

>  <NumRadicalElectrons>  (144) 
0

>  <MaxPartialCharge>  (144) 
0.312197

>  <MinPartialCharge>  (144) 
-0.547896

>  <MaxAbsPartialCharge>  (144) 
0.547896

>  <MinAbsPartialCharge>  (144) 
0.312197

>  <FpDensityMorgan1>  (144) 
1.666667

>  <FpDensityMorgan2>  (144) 
2.25

>  <FpDensityMorgan3>  (144) 
2.583333

>  <BCUT2D_MWHI>  (144) 
32.166363

>  <BCUT2D_MWLOW>  (144) 
10.218289

>  <BCUT2D_CHGHI>  (144) 
2.094833

>  <BCUT2D_CHGLO>  (144) 
-2.168396

>  <BCUT2D_LOGPHI>  (144) 
1.98941

>  <BCUT2D_LOGPLOW>  (144) 
-2.493974

>  <BCUT2D_MRHI>  (144) 
7.980978

>  <BCUT2D_MRLOW>  (144) 
-0.307725

>  <AvgIpc>  (144) 
1.963148

>  <BalabanJ>  (144) 
3.865425

>  <BertzCT>  (144) 
174.176133

>  <Chi0>  (144) 
9.560478

>  <Chi0n>  (144) 
6.701907

>  <Chi0v>  (144) 
7.518404

>  <Chi1>  (144) 
5.574586

>  <Chi1n>  (144) 
3.33357

>  <Chi1v>  (144) 
4.727416

>  <Chi2n>  (144) 
2.161684

>  <Chi2v>  (144) 
3.147283

>  <Chi3n>  (144) 
1.211658

>  <Chi3v>  (144) 
1.855609

>  <Chi4n>  (144) 
0.656369

>  <Chi4v>  (144) 
1.127774

>  <HallKierAlpha>  (144) 
-0.91

>  <Ipc>  (144) 
316.066751

>  <Kappa1>  (144) 
11.09

>  <Kappa2>  (144) 
5.703827

>  <Kappa3>  (144) 
4.837242

>  <LabuteASA>  (144) 
74.694102

>  <PEOE_VSA1>  (144) 
20.951521

>  <PEOE_VSA10>  (144) 
0.0

>  <PEOE_VSA11>  (144) 
0.0

>  <PEOE_VSA12>  (144) 
0.0

>  <PEOE_VSA13>  (144) 
0.0

>  <PEOE_VSA14>  (144) 
6.031115

>  <PEOE_VSA2>  (144) 
0.0

>  <PEOE_VSA3>  (144) 
4.794537

>  <PEOE_VSA4>  (144) 
11.761885

>  <PEOE_VSA5>  (144) 
0.0

>  <PEOE_VSA6>  (144) 
0.0

>  <PEOE_VSA7>  (144) 
18.429444

>  <PEOE_VSA8>  (144) 
0.0

>  <PEOE_VSA9>  (144) 
12.011146

>  <SMR_VSA1>  (144) 
14.695602

>  <SMR_VSA10>  (144) 
23.762305

>  <SMR_VSA2>  (144) 
0.0

>  <SMR_VSA3>  (144) 
5.316789

>  <SMR_VSA4>  (144) 
5.733667

>  <SMR_VSA5>  (144) 
12.462662

>  <SMR_VSA6>  (144) 
12.008623

>  <SMR_VSA7>  (144) 
0.0

>  <SMR_VSA8>  (144) 
0.0

>  <SMR_VSA9>  (144) 
0.0

>  <SlogP_VSA1>  (144) 
16.156983

>  <SlogP_VSA10>  (144) 
4.794537

>  <SlogP_VSA11>  (144) 
0.0

>  <SlogP_VSA12>  (144) 
11.761885

>  <SlogP_VSA2>  (144) 
30.050883

>  <SlogP_VSA3>  (144) 
4.794537

>  <SlogP_VSA4>  (144) 
0.0

>  <SlogP_VSA5>  (144) 
6.420822

>  <SlogP_VSA6>  (144) 
0.0

>  <SlogP_VSA7>  (144) 
0.0

>  <SlogP_VSA8>  (144) 
0.0

>  <SlogP_VSA9>  (144) 
0.0

>  <EState_VSA1>  (144) 
18.042261

>  <EState_VSA10>  (144) 
14.695602

>  <EState_VSA11>  (144) 
0.0

>  <EState_VSA2>  (144) 
0.0

>  <EState_VSA3>  (144) 
12.173675

>  <EState_VSA4>  (144) 
0.0

>  <EState_VSA5>  (144) 
11.761885

>  <EState_VSA6>  (144) 
0.0

>  <EState_VSA7>  (144) 
6.255769

>  <EState_VSA8>  (144) 
5.316789

>  <EState_VSA9>  (144) 
5.733667

>  <VSA_EState1>  (144) 
0.0

>  <VSA_EState10>  (144) 
1.49122

>  <VSA_EState2>  (144) 
20.640701

>  <VSA_EState3>  (144) 
12.427782

>  <VSA_EState4>  (144) 
4.754912

>  <VSA_EState5>  (144) 
-0.665093

>  <VSA_EState6>  (144) 
-1.81921

>  <VSA_EState7>  (144) 
2.169689

>  <VSA_EState8>  (144) 
0.0

>  <VSA_EState9>  (144) 
0.0

>  <FractionCSP3>  (144) 
0.666667

>  <HeavyAtomCount>  (144) 
12

>  <NHOHCount>  (144) 
3

>  <NOCount>  (144) 
5

>  <NumAliphaticCarbocycles>  (144) 
0

>  <NumAliphaticHeterocycles>  (144) 
0

>  <NumAliphaticRings>  (144) 
0

>  <NumAromaticCarbocycles>  (144) 
0

>  <NumAromaticHeterocycles>  (144) 
0

>  <NAR>  (144) 
0

>  <NumHAcceptors>  (144) 
4

>  <NumHDonors>  (144) 
2

>  <NumHeteroatoms>  (144) 
6

>  <NumRotatableBonds>  (144) 
5

>  <NumSaturatedCarbocycles>  (144) 
0

>  <NumSaturatedHeterocycles>  (144) 
0

>  <NumSaturatedRings>  (144) 
0

>  <RingCount>  (144) 
0

>  <MolLogP>  (144) 
-1.4737

>  <MolMR>  (144) 
44.5131

>  <fr_Al_COO>  (144) 
1

>  <fr_Al_OH>  (144) 
0

>  <fr_Al_OH_noTert>  (144) 
0

>  <fr_ArN>  (144) 
0

>  <fr_Ar_COO>  (144) 
0

>  <fr_Ar_N>  (144) 
0

>  <fr_Ar_NH>  (144) 
0

>  <fr_Ar_OH>  (144) 
0

>  <fr_COO>  (144) 
1

>  <fr_COO2>  (144) 
1

>  <fr_C_O>  (144) 
2

>  <fr_C_O_noCOO>  (144) 
2

>  <fr_C_S>  (144) 
0

>  <fr_HOCCN>  (144) 
0

>  <fr_Imine>  (144) 
0

>  <fr_NH0>  (144) 
0

>  <fr_NH1>  (144) 
1

>  <fr_NH2>  (144) 
1

>  <fr_N_O>  (144) 
0

>  <fr_Ndealkylation1>  (144) 
0

>  <fr_Ndealkylation2>  (144) 
0

>  <fr_Nhpyrrole>  (144) 
0

>  <fr_SH>  (144) 
0

>  <fr_aldehyde>  (144) 
0

>  <fr_alkyl_carbamate>  (144) 
0

>  <fr_alkyl_halide>  (144) 
0

>  <fr_allylic_oxid>  (144) 
0

>  <fr_amide>  (144) 
2

>  <fr_amidine>  (144) 
0

>  <fr_aniline>  (144) 
0

>  <fr_aryl_methyl>  (144) 
0

>  <fr_azide>  (144) 
0

>  <fr_azo>  (144) 
0

>  <fr_barbitur>  (144) 
0

>  <fr_benzene>  (144) 
0

>  <fr_benzodiazepine>  (144) 
0

>  <fr_bicyclic>  (144) 
0

>  <fr_diazo>  (144) 
0

>  <fr_dihydropyridine>  (144) 
0

>  <fr_epoxide>  (144) 
0

>  <fr_ester>  (144) 
0

>  <fr_ether>  (144) 
0

>  <fr_furan>  (144) 
0

>  <fr_guanido>  (144) 
0

>  <fr_halogen>  (144) 
0

>  <fr_hdrzine>  (144) 
0

>  <fr_hdrzone>  (144) 
0

>  <fr_imidazole>  (144) 
0

>  <fr_imide>  (144) 
0

>  <fr_isocyan>  (144) 
0

>  <fr_isothiocyan>  (144) 
0

>  <fr_ketone>  (144) 
0

>  <fr_ketone_Topliss>  (144) 
0

>  <fr_lactam>  (144) 
0

>  <fr_lactone>  (144) 
0

>  <fr_methoxy>  (144) 
0

>  <fr_morpholine>  (144) 
0

>  <fr_nitrile>  (144) 
0

>  <fr_nitro>  (144) 
0

>  <fr_nitro_arom>  (144) 
0

>  <fr_nitro_arom_nonortho>  (144) 
0

>  <fr_nitroso>  (144) 
0

>  <fr_oxazole>  (144) 
0

>  <fr_oxime>  (144) 
0

>  <fr_para_hydroxylation>  (144) 
0

>  <fr_phenol>  (144) 
0

>  <fr_phenol_noOrthoHbond>  (144) 
0

>  <fr_phos_acid>  (144) 
0

>  <fr_phos_ester>  (144) 
0

>  <fr_piperdine>  (144) 
0

>  <fr_piperzine>  (144) 
0

>  <fr_priamide>  (144) 
1

>  <fr_prisulfonamd>  (144) 
0

>  <fr_pyridine>  (144) 
0

>  <fr_quatN>  (144) 
0

>  <fr_sulfide>  (144) 
1

>  <fr_sulfonamd>  (144) 
0

>  <fr_sulfone>  (144) 
0

>  <fr_term_acetylene>  (144) 
0

>  <fr_tetrazole>  (144) 
0

>  <fr_thiazole>  (144) 
0

>  <fr_thiocyan>  (144) 
0

>  <fr_thiophene>  (144) 
0

>  <fr_unbrch_alkane>  (144) 
0

>  <fr_urea>  (144) 
1

>  <NP-Likeness>  (144) 
-1.308181

$$$$
E3Z
     RDKit          3D

  0  0  0  0  0  0  0  0  0  0999 V3000
M  V30 BEGIN CTAB
M  V30 COUNTS 44 46 0 0 0
M  V30 BEGIN ATOM
M  V30 1 C -3.720861 -1.561565 -0.972519 0
M  V30 2 N -3.003164 -1.864039 -2.086213 0
M  V30 3 C -1.661285 -1.819185 -2.027700 0
M  V30 4 N -0.824990 -2.117797 -3.135945 0
M  V30 5 C -0.340562 -1.210289 -4.117367 0
M  V30 6 C -0.717196 0.110214 -3.989573 0
M  V30 7 C -0.215023 0.950675 -4.975265 0
M  V30 8 C 0.600579 0.478344 -6.000247 0
M  V30 9 C 0.933395 -0.870899 -6.056001 0
M  V30 10 C 0.456999 -1.761151 -5.091803 0
M  V30 11 N -1.062067 -1.483952 -0.896156 0
M  V30 12 C -1.652344 -1.165956 0.262449 0
M  V30 13 N -1.064574 -0.801894 1.497451 0
M  V30 14 C 0.321244 -0.695633 1.771770 0
M  V30 15 C 0.757579 -0.331316 3.030814 0
M  V30 16 C 2.072940 -0.204107 3.384570 0
M  V30 17 N 2.563874 0.165538 4.659144 0
M  V30 18 C 1.872598 0.486973 5.854795 0
M  V30 19 O 0.617752 0.456959 5.846398 0
M  V30 20 C 2.459232 0.862677 7.143486 0
M  V30 21 C 1.297695 1.102799 8.104955 0
M  V30 22 C 3.031548 -0.452926 2.431833 0
M  V30 23 C 2.666283 -0.819624 1.159176 0
M  V30 24 C 1.338839 -0.928098 0.872711 0
M  V30 25 C -3.024768 -1.224710 0.157504 0
M  V30 26 Cl -4.032989 -0.850897 1.542798 0
M  V30 27 H -4.794791 -1.602176 -1.035712 0
M  V30 28 H -0.623541 -3.139472 -3.104490 0
M  V30 29 H -1.350737 0.435542 -3.180413 0
M  V30 30 H -0.475507 2.016850 -4.934821 0
M  V30 31 H 0.993493 1.123104 -6.767540 0
M  V30 32 H 1.564314 -1.274206 -6.836967 0
M  V30 33 H 0.698082 -2.806228 -5.110957 0
M  V30 34 H -1.720480 -0.591864 2.280539 0
M  V30 35 H 0.009724 -0.142425 3.755197 0
M  V30 36 H 3.595632 0.241270 4.847270 0
M  V30 37 H 3.129688 1.727580 7.099288 0
M  V30 38 H 3.013362 -0.010604 7.579039 0
M  V30 39 H 0.478151 0.384566 7.930028 0
M  V30 40 H 0.827053 2.109961 7.921946 0
M  V30 41 H 1.722623 1.003159 9.122033 0
M  V30 42 H 4.109480 -0.370066 2.645873 0
M  V30 43 H 3.442279 -1.008119 0.433920 0
M  V30 44 H 1.108327 -1.217833 -0.137713 0
M  V30 END ATOM
M  V30 BEGIN BOND
M  V30 1 2 1 2
M  V30 2 1 2 3
M  V30 3 1 3 4
M  V30 4 1 4 5
M  V30 5 2 5 6
M  V30 6 1 6 7
M  V30 7 2 7 8
M  V30 8 1 8 9
M  V30 9 2 9 10
M  V30 10 2 3 11
M  V30 11 1 11 12
M  V30 12 1 12 13
M  V30 13 1 13 14
M  V30 14 2 14 15
M  V30 15 1 15 16
M  V30 16 1 16 17
M  V30 17 1 17 18
M  V30 18 2 18 19
M  V30 19 1 18 20
M  V30 20 1 20 21
M  V30 21 2 16 22
M  V30 22 1 22 23
M  V30 23 2 23 24
M  V30 24 2 12 25
M  V30 25 1 25 26
M  V30 26 1 25 1
M  V30 27 1 10 5
M  V30 28 1 24 14
M  V30 29 1 1 27
M  V30 30 1 4 28
M  V30 31 1 6 29
M  V30 32 1 7 30
M  V30 33 1 8 31
M  V30 34 1 9 32
M  V30 35 1 10 33
M  V30 36 1 13 34
M  V30 37 1 15 35
M  V30 38 1 17 36
M  V30 39 1 20 37
M  V30 40 1 20 38
M  V30 41 1 21 39
M  V30 42 1 21 40
M  V30 43 1 21 41
M  V30 44 1 22 42
M  V30 45 1 23 43
M  V30 46 1 24 44
M  V30 END BOND
M  V30 END CTAB
M  END
>  <Dataset>  (145) 
PDB

>  <Ligand_Instance>  (145) 
6FRX_E3Z_A_401

>  <PDB_ID>  (145) 
6FRX

>  <Standardized_SMILES>  (145) 
[H]C1=NC(N([H])C2=C([H])C([H])=C([H])C([H])=C2[H])=NC(N([H])C2=C([H])C(N([H])C(=O)C([H])([H])C([H])([H])[H])=C([H])C([H])=C2[H])=C1Cl

>  <Name>  (145) 
~{N}-[3-[(5-chloranyl-2-phenylazanyl-pyrimidin-4-yl)amino]phenyl]prop-2-enamide

>  <Pocket>  (145) 
A

>  <ATP_Site>  (145) 
1.0

>  <Peripheral>  (145) 
0.0

>  <Num_H_Atoms_ProtBoundConf>  (145) 
18.0

>  <Num_Resolved_Atoms>  (145) 
26.0

>  <Num_Not_Resolved_Atoms>  (145) 
0.0

>  <2D_Mol_H>  (145) 
<rdkit.Chem.rdchem.Mol object at 0x72a238da66c0>

>  <MW>  (145) 
367.84

>  <HBA>  (145) 
5

>  <HBD>  (145) 
3

>  <LogP>  (145) 
4.9657

>  <NRB>  (145) 
7

>  <TPSA>  (145) 
78.94

>  <Num_Heavy_Atoms>  (145) 
26

>  <Ro5>  (145) 
[True, True, True, True, True, True]

>  <Ro5_Fulfilled>  (145) 
True

>  <Ro3>  (145) 
[False, False, True, False]

>  <Ro3_Fulfilled>  (145) 
False

>  <Fsp3>  (145) 
0.105263

>  <Fsp3_0.42>  (145) 
False

>  <Fsp3_0.45>  (145) 
False

>  <Stereogenic_Carbons>  (145) 
0

>  <C_Atoms>  (145) 
19

>  <FCStereo>  (145) 
0.0

>  <SPS>  (145) 
266

>  <nSPS>  (145) 
10.230769

>  <PBF>  (145) 
0.747124

>  <PBF_0.6>  (145) 
True

>  <nPBF>  (145) 
0.028736

>  <nPBF_0.016>  (145) 
True

>  <PMI1>  (145) 
1709.361492

>  <PMI2>  (145) 
6266.934578

>  <PMI3>  (145) 
7581.611985

>  <NPR1>  (145) 
0.225461

>  <NPR2>  (145) 
0.826597

>  <Sum_NPR>  (145) 
1.052058

>  <Sum_NPR_1.07>  (145) 
False

>  <Sum_NPR_1.2>  (145) 
False

>  <MaxAbsEStateIndex>  (145) 
11.541673

>  <MaxEStateIndex>  (145) 
11.541673

>  <MinAbsEStateIndex>  (145) 
0.044846

>  <MinEStateIndex>  (145) 
-0.044846

>  <qed>  (145) 
0.573124

>  <MolWt>  (145) 
367.84

>  <HeavyAtomMolWt>  (145) 
349.696

>  <ExactMolWt>  (145) 
367.119988

>  <NumValenceElectrons>  (145) 
132

>  <NumRadicalElectrons>  (145) 
0

>  <MaxPartialCharge>  (145) 
0.228736

>  <MinPartialCharge>  (145) 
-0.338756

>  <MaxAbsPartialCharge>  (145) 
0.338756

>  <MinAbsPartialCharge>  (145) 
0.228736

>  <FpDensityMorgan1>  (145) 
1.0

>  <FpDensityMorgan2>  (145) 
1.730769

>  <FpDensityMorgan3>  (145) 
2.5

>  <BCUT2D_MWHI>  (145) 
35.495692

>  <BCUT2D_MWLOW>  (145) 
10.238184

>  <BCUT2D_CHGHI>  (145) 
2.073454

>  <BCUT2D_CHGLO>  (145) 
-2.112158

>  <BCUT2D_LOGPHI>  (145) 
2.257684

>  <BCUT2D_LOGPLOW>  (145) 
-2.090771

>  <BCUT2D_MRHI>  (145) 
6.324816

>  <BCUT2D_MRLOW>  (145) 
-0.115421

>  <AvgIpc>  (145) 
2.653683

>  <BalabanJ>  (145) 
1.778297

>  <BertzCT>  (145) 
901.441146

>  <Chi0>  (145) 
18.35516

>  <Chi0n>  (145) 
14.161249

>  <Chi0v>  (145) 
14.917178

>  <Chi1>  (145) 
12.635362

>  <Chi1n>  (145) 
8.153512

>  <Chi1v>  (145) 
8.531476

>  <Chi2n>  (145) 
5.488713

>  <Chi2v>  (145) 
5.895913

>  <Chi3n>  (145) 
3.504218

>  <Chi3v>  (145) 
3.780814

>  <Chi4n>  (145) 
2.2264

>  <Chi4v>  (145) 
2.364698

>  <HallKierAlpha>  (145) 
-3.12

>  <Ipc>  (145) 
903695.739129

>  <Kappa1>  (145) 
17.694973

>  <Kappa2>  (145) 
8.310392

>  <Kappa3>  (145) 
4.704895

>  <LabuteASA>  (145) 
156.194089

>  <PEOE_VSA1>  (145) 
15.950366

>  <PEOE_VSA10>  (145) 
5.022633

>  <PEOE_VSA11>  (145) 
5.817863

>  <PEOE_VSA12>  (145) 
11.855519

>  <PEOE_VSA13>  (145) 
0.0

>  <PEOE_VSA14>  (145) 
0.0

>  <PEOE_VSA2>  (145) 
4.794537

>  <PEOE_VSA3>  (145) 
4.983979

>  <PEOE_VSA4>  (145) 
4.983979

>  <PEOE_VSA5>  (145) 
0.0

>  <PEOE_VSA6>  (145) 
42.790145

>  <PEOE_VSA7>  (145) 
30.331835

>  <PEOE_VSA8>  (145) 
23.48298

>  <PEOE_VSA9>  (145) 
6.196844

>  <SMR_VSA1>  (145) 
4.794537

>  <SMR_VSA10>  (145) 
46.336481

>  <SMR_VSA2>  (145) 
0.0

>  <SMR_VSA3>  (145) 
9.967957

>  <SMR_VSA4>  (145) 
0.0

>  <SMR_VSA5>  (145) 
13.344559

>  <SMR_VSA6>  (145) 
15.950366

>  <SMR_VSA7>  (145) 
65.816781

>  <SMR_VSA8>  (145) 
0.0

>  <SMR_VSA9>  (145) 
0.0

>  <SlogP_VSA1>  (145) 
15.950366

>  <SlogP_VSA10>  (145) 
28.828361

>  <SlogP_VSA11>  (145) 
0.0

>  <SlogP_VSA12>  (145) 
11.60094

>  <SlogP_VSA2>  (145) 
15.875137

>  <SlogP_VSA3>  (145) 
4.794537

>  <SlogP_VSA4>  (145) 
0.0

>  <SlogP_VSA5>  (145) 
13.344559

>  <SlogP_VSA6>  (145) 
60.794147

>  <SlogP_VSA7>  (145) 
5.022633

>  <SlogP_VSA8>  (145) 
0.0

>  <SlogP_VSA9>  (145) 
0.0

>  <EState_VSA1>  (145) 
0.0

>  <EState_VSA10>  (145) 
4.794537

>  <EState_VSA11>  (145) 
0.0

>  <EState_VSA2>  (145) 
5.90718

>  <EState_VSA3>  (145) 
28.897043

>  <EState_VSA4>  (145) 
11.374773

>  <EState_VSA5>  (145) 
6.196844

>  <EState_VSA6>  (145) 
6.923737

>  <EState_VSA7>  (145) 
54.597304

>  <EState_VSA8>  (145) 
25.918323

>  <EState_VSA9>  (145) 
11.60094

>  <VSA_EState1>  (145) 
0.0

>  <VSA_EState10>  (145) 
6.210645

>  <VSA_EState2>  (145) 
20.151351

>  <VSA_EState3>  (145) 
9.494615

>  <VSA_EState4>  (145) 
2.337847

>  <VSA_EState5>  (145) 
0.855715

>  <VSA_EState6>  (145) 
16.969525

>  <VSA_EState7>  (145) 
1.953157

>  <VSA_EState8>  (145) 
1.804922

>  <VSA_EState9>  (145) 
0.0

>  <FractionCSP3>  (145) 
0.105263

>  <HeavyAtomCount>  (145) 
26

>  <NHOHCount>  (145) 
3

>  <NOCount>  (145) 
6

>  <NumAliphaticCarbocycles>  (145) 
0

>  <NumAliphaticHeterocycles>  (145) 
0

>  <NumAliphaticRings>  (145) 
0

>  <NumAromaticCarbocycles>  (145) 
2

>  <NumAromaticHeterocycles>  (145) 
1

>  <NAR>  (145) 
3

>  <NumHAcceptors>  (145) 
5

>  <NumHDonors>  (145) 
3

>  <NumHeteroatoms>  (145) 
7

>  <NumRotatableBonds>  (145) 
6

>  <NumSaturatedCarbocycles>  (145) 
0

>  <NumSaturatedHeterocycles>  (145) 
0

>  <NumSaturatedRings>  (145) 
0

>  <RingCount>  (145) 
3

>  <MolLogP>  (145) 
4.9657

>  <MolMR>  (145) 
105.4121

>  <fr_Al_COO>  (145) 
0

>  <fr_Al_OH>  (145) 
0

>  <fr_Al_OH_noTert>  (145) 
0

>  <fr_ArN>  (145) 
0

>  <fr_Ar_COO>  (145) 
0

>  <fr_Ar_N>  (145) 
2

>  <fr_Ar_NH>  (145) 
0

>  <fr_Ar_OH>  (145) 
0

>  <fr_COO>  (145) 
0

>  <fr_COO2>  (145) 
0

>  <fr_C_O>  (145) 
1

>  <fr_C_O_noCOO>  (145) 
1

>  <fr_C_S>  (145) 
0

>  <fr_HOCCN>  (145) 
0

>  <fr_Imine>  (145) 
0

>  <fr_NH0>  (145) 
2

>  <fr_NH1>  (145) 
3

>  <fr_NH2>  (145) 
0

>  <fr_N_O>  (145) 
0

>  <fr_Ndealkylation1>  (145) 
0

>  <fr_Ndealkylation2>  (145) 
0

>  <fr_Nhpyrrole>  (145) 
0

>  <fr_SH>  (145) 
0

>  <fr_aldehyde>  (145) 
0

>  <fr_alkyl_carbamate>  (145) 
0

>  <fr_alkyl_halide>  (145) 
0

>  <fr_allylic_oxid>  (145) 
0

>  <fr_amide>  (145) 
1

>  <fr_amidine>  (145) 
0

>  <fr_aniline>  (145) 
5

>  <fr_aryl_methyl>  (145) 
0

>  <fr_azide>  (145) 
0

>  <fr_azo>  (145) 
0

>  <fr_barbitur>  (145) 
0

>  <fr_benzene>  (145) 
2

>  <fr_benzodiazepine>  (145) 
0

>  <fr_bicyclic>  (145) 
0

>  <fr_diazo>  (145) 
0

>  <fr_dihydropyridine>  (145) 
0

>  <fr_epoxide>  (145) 
0

>  <fr_ester>  (145) 
0

>  <fr_ether>  (145) 
0

>  <fr_furan>  (145) 
0

>  <fr_guanido>  (145) 
0

>  <fr_halogen>  (145) 
1

>  <fr_hdrzine>  (145) 
0

>  <fr_hdrzone>  (145) 
0

>  <fr_imidazole>  (145) 
0

>  <fr_imide>  (145) 
0

>  <fr_isocyan>  (145) 
0

>  <fr_isothiocyan>  (145) 
0

>  <fr_ketone>  (145) 
0

>  <fr_ketone_Topliss>  (145) 
0

>  <fr_lactam>  (145) 
0

>  <fr_lactone>  (145) 
0

>  <fr_methoxy>  (145) 
0

>  <fr_morpholine>  (145) 
0

>  <fr_nitrile>  (145) 
0

>  <fr_nitro>  (145) 
0

>  <fr_nitro_arom>  (145) 
0

>  <fr_nitro_arom_nonortho>  (145) 
0

>  <fr_nitroso>  (145) 
0

>  <fr_oxazole>  (145) 
0

>  <fr_oxime>  (145) 
0

>  <fr_para_hydroxylation>  (145) 
1

>  <fr_phenol>  (145) 
0

>  <fr_phenol_noOrthoHbond>  (145) 
0

>  <fr_phos_acid>  (145) 
0

>  <fr_phos_ester>  (145) 
0

>  <fr_piperdine>  (145) 
0

>  <fr_piperzine>  (145) 
0

>  <fr_priamide>  (145) 
0

>  <fr_prisulfonamd>  (145) 
0

>  <fr_pyridine>  (145) 
0

>  <fr_quatN>  (145) 
0

>  <fr_sulfide>  (145) 
0

>  <fr_sulfonamd>  (145) 
0

>  <fr_sulfone>  (145) 
0

>  <fr_term_acetylene>  (145) 
0

>  <fr_tetrazole>  (145) 
0

>  <fr_thiazole>  (145) 
0

>  <fr_thiocyan>  (145) 
0

>  <fr_thiophene>  (145) 
0

>  <fr_unbrch_alkane>  (145) 
0

>  <fr_urea>  (145) 
0

>  <NP-Likeness>  (145) 
-1.656229

$$$$
E5E
     RDKit          3D

  0  0  0  0  0  0  0  0  0  0999 V3000
M  V30 BEGIN CTAB
M  V30 COUNTS 24 24 0 0 0
M  V30 BEGIN ATOM
M  V30 1 O 3.034360 2.788942 1.942693 0
M  V30 2 C 2.325610 1.633025 1.635752 0
M  V30 3 C 2.158017 0.675324 2.622146 0
M  V30 4 C 1.442410 -0.479389 2.293062 0
M  V30 5 C 0.908263 -0.675698 1.017512 0
M  V30 6 C 0.197748 -1.963483 0.909185 0 CFG=1
M  V30 7 O -0.615267 -2.153896 2.024284 0
M  V30 8 C -0.739395 -2.013509 -0.294390 0
M  V30 9 N -1.739006 -0.977906 -0.205369 0 CHG=1 VAL=4
M  V30 10 C 1.091890 0.296402 0.056240 0
M  V30 11 C 1.797203 1.437900 0.375329 0
M  V30 12 O 1.963700 2.396870 -0.616281 0
M  V30 13 H 2.546489 3.673544 1.899804 0
M  V30 14 H 2.575607 0.839679 3.602562 0
M  V30 15 H 1.361173 -1.177244 3.132663 0
M  V30 16 H 0.867924 -2.841485 0.872138 0
M  V30 17 H -0.983953 -1.267990 2.277763 0
M  V30 18 H -0.182425 -1.878674 -1.228676 0
M  V30 19 H -1.189384 -3.017283 -0.311442 0
M  V30 20 H -1.995559 -0.686997 -1.175073 0
M  V30 21 H -1.395614 -0.159777 0.344141 0
M  V30 22 H -2.587997 -1.365421 0.283583 0
M  V30 23 H 0.655682 0.068180 -0.880453 0
M  V30 24 H 1.354660 2.440628 -1.423161 0
M  V30 END ATOM
M  V30 BEGIN BOND
M  V30 1 1 1 2
M  V30 2 2 2 3
M  V30 3 1 3 4
M  V30 4 2 4 5
M  V30 5 1 5 6
M  V30 6 1 6 7
M  V30 7 1 6 8
M  V30 8 1 8 9
M  V30 9 1 5 10
M  V30 10 2 10 11
M  V30 11 1 11 12
M  V30 12 1 11 2
M  V30 13 1 1 13
M  V30 14 1 3 14
M  V30 15 1 4 15
M  V30 16 1 6 16 CFG=3
M  V30 17 1 7 17
M  V30 18 1 8 18
M  V30 19 1 8 19
M  V30 20 1 9 20
M  V30 21 1 9 21
M  V30 22 1 9 22
M  V30 23 1 10 23
M  V30 24 1 12 24
M  V30 END BOND
M  V30 END CTAB
M  END
>  <Dataset>  (146) 
PDB

>  <Ligand_Instance>  (146) 
5N3L_E5E_A_403

>  <PDB_ID>  (146) 
5N3L

>  <Standardized_SMILES>  (146) 
[H]OC1=C([H])C([H])=C([C@@]([H])(O[H])C([H])([H])[N+]([H])([H])[H])C([H])=C1O[H]

>  <Name>  (146) 
Noradrenaline

>  <Pocket>  (146) 
A

>  <ATP_Site>  (146) 
1.0

>  <Peripheral>  (146) 
0.0

>  <Num_H_Atoms_ProtBoundConf>  (146) 
12.0

>  <Num_Resolved_Atoms>  (146) 
12.0

>  <Num_Not_Resolved_Atoms>  (146) 
0.0

>  <2D_Mol_H>  (146) 
<rdkit.Chem.rdchem.Mol object at 0x72a238da67a0>

>  <MW>  (146) 
170.188

>  <HBA>  (146) 
3

>  <HBD>  (146) 
4

>  <LogP>  (146) 
-0.6269

>  <NRB>  (146) 
6

>  <TPSA>  (146) 
88.33

>  <Num_Heavy_Atoms>  (146) 
12

>  <Ro5>  (146) 
[True, True, True, True, True, True]

>  <Ro5_Fulfilled>  (146) 
True

>  <Ro3>  (146) 
[True, True, False, True]

>  <Ro3_Fulfilled>  (146) 
True

>  <Fsp3>  (146) 
0.25

>  <Fsp3_0.42>  (146) 
False

>  <Fsp3_0.45>  (146) 
False

>  <Stereogenic_Carbons>  (146) 
1

>  <C_Atoms>  (146) 
8

>  <FCStereo>  (146) 
0.125

>  <SPS>  (146) 
154

>  <nSPS>  (146) 
12.833333

>  <PBF>  (146) 
0.610147

>  <PBF_0.6>  (146) 
True

>  <nPBF>  (146) 
0.050846

>  <nPBF_0.016>  (146) 
True

>  <PMI1>  (146) 
285.100188

>  <PMI2>  (146) 
851.2055

>  <PMI3>  (146) 
1059.77364

>  <NPR1>  (146) 
0.26902

>  <NPR2>  (146) 
0.803196

>  <Sum_NPR>  (146) 
1.072215

>  <Sum_NPR_1.07>  (146) 
True

>  <Sum_NPR_1.2>  (146) 
False

>  <MaxAbsEStateIndex>  (146) 
9.289352

>  <MaxEStateIndex>  (146) 
9.289352

>  <MinAbsEStateIndex>  (146) 
0.185174

>  <MinEStateIndex>  (146) 
-0.683796

>  <qed>  (146) 
0.445603

>  <MolWt>  (146) 
170.188

>  <HeavyAtomMolWt>  (146) 
158.092

>  <ExactMolWt>  (146) 
170.08117

>  <NumValenceElectrons>  (146) 
66

>  <NumRadicalElectrons>  (146) 
0

>  <MaxPartialCharge>  (146) 
0.157265

>  <MinPartialCharge>  (146) 
-0.50426

>  <MaxAbsPartialCharge>  (146) 
0.50426

>  <MinAbsPartialCharge>  (146) 
0.157265

>  <FpDensityMorgan1>  (146) 
1.25

>  <FpDensityMorgan2>  (146) 
1.916667

>  <FpDensityMorgan3>  (146) 
2.416667

>  <BCUT2D_MWHI>  (146) 
16.303568

>  <BCUT2D_MWLOW>  (146) 
10.098342

>  <BCUT2D_CHGHI>  (146) 
2.08465

>  <BCUT2D_CHGLO>  (146) 
-2.061068

>  <BCUT2D_LOGPHI>  (146) 
2.265814

>  <BCUT2D_LOGPLOW>  (146) 
-2.524362

>  <BCUT2D_MRHI>  (146) 
5.406254

>  <BCUT2D_MRLOW>  (146) 
-0.384658

>  <AvgIpc>  (146) 
2.082629

>  <BalabanJ>  (146) 
2.96254

>  <BertzCT>  (146) 
275.005525

>  <Chi0>  (146) 
9.137828

>  <Chi0n>  (146) 
6.565255

>  <Chi0v>  (146) 
6.565255

>  <Chi1>  (146) 
5.647066

>  <Chi1n>  (146) 
3.64037

>  <Chi1v>  (146) 
3.64037

>  <Chi2n>  (146) 
2.552625

>  <Chi2v>  (146) 
2.552625

>  <Chi3n>  (146) 
1.657681

>  <Chi3v>  (146) 
1.657681

>  <Chi4n>  (146) 
0.914397

>  <Chi4v>  (146) 
0.914397

>  <HallKierAlpha>  (146) 
-1.26

>  <Ipc>  (146) 
497.748409

>  <Kappa1>  (146) 
8.83311

>  <Kappa2>  (146) 
3.424419

>  <Kappa3>  (146) 
1.663743

>  <LabuteASA>  (146) 
69.883879

>  <PEOE_VSA1>  (146) 
21.05325

>  <PEOE_VSA10>  (146) 
12.648723

>  <PEOE_VSA11>  (146) 
11.499024

>  <PEOE_VSA12>  (146) 
0.0

>  <PEOE_VSA13>  (146) 
0.0

>  <PEOE_VSA14>  (146) 
0.0

>  <PEOE_VSA2>  (146) 
0.0

>  <PEOE_VSA3>  (146) 
0.0

>  <PEOE_VSA4>  (146) 
0.0

>  <PEOE_VSA5>  (146) 
0.0

>  <PEOE_VSA6>  (146) 
6.066367

>  <PEOE_VSA7>  (146) 
17.696186

>  <PEOE_VSA8>  (146) 
0.0

>  <PEOE_VSA9>  (146) 
0.0

>  <SMR_VSA1>  (146) 
21.05325

>  <SMR_VSA10>  (146) 
0.0

>  <SMR_VSA2>  (146) 
0.0

>  <SMR_VSA3>  (146) 
0.0

>  <SMR_VSA4>  (146) 
0.0

>  <SMR_VSA5>  (146) 
6.103966

>  <SMR_VSA6>  (146) 
6.544756

>  <SMR_VSA7>  (146) 
23.762553

>  <SMR_VSA8>  (146) 
0.0

>  <SMR_VSA9>  (146) 
11.499024

>  <SlogP_VSA1>  (146) 
5.733667

>  <SlogP_VSA10>  (146) 
0.0

>  <SlogP_VSA11>  (146) 
11.499024

>  <SlogP_VSA12>  (146) 
0.0

>  <SlogP_VSA2>  (146) 
21.864339

>  <SlogP_VSA3>  (146) 
0.0

>  <SlogP_VSA4>  (146) 
0.0

>  <SlogP_VSA5>  (146) 
11.667418

>  <SlogP_VSA6>  (146) 
18.199101

>  <SlogP_VSA7>  (146) 
0.0

>  <SlogP_VSA8>  (146) 
0.0

>  <SlogP_VSA9>  (146) 
0.0

>  <EState_VSA1>  (146) 
6.103966

>  <EState_VSA10>  (146) 
5.106527

>  <EState_VSA11>  (146) 
0.0

>  <EState_VSA2>  (146) 
11.499024

>  <EState_VSA3>  (146) 
12.108208

>  <EState_VSA4>  (146) 
0.0

>  <EState_VSA5>  (146) 
12.132734

>  <EState_VSA6>  (146) 
6.066367

>  <EState_VSA7>  (146) 
0.0

>  <EState_VSA8>  (146) 
5.733667

>  <EState_VSA9>  (146) 
10.213055

>  <VSA_EState1>  (146) 
0.0

>  <VSA_EState10>  (146) 
0.0

>  <VSA_EState2>  (146) 
0.0

>  <VSA_EState3>  (146) 
27.30327

>  <VSA_EState4>  (146) 
4.075778

>  <VSA_EState5>  (146) 
-0.407396

>  <VSA_EState6>  (146) 
4.207963

>  <VSA_EState7>  (146) 
-0.683796

>  <VSA_EState8>  (146) 
0.337515

>  <VSA_EState9>  (146) 
0.0

>  <FractionCSP3>  (146) 
0.25

>  <HeavyAtomCount>  (146) 
12

>  <NHOHCount>  (146) 
6

>  <NOCount>  (146) 
4

>  <NumAliphaticCarbocycles>  (146) 
0

>  <NumAliphaticHeterocycles>  (146) 
0

>  <NumAliphaticRings>  (146) 
0

>  <NumAromaticCarbocycles>  (146) 
1

>  <NumAromaticHeterocycles>  (146) 
0

>  <NAR>  (146) 
1

>  <NumHAcceptors>  (146) 
3

>  <NumHDonors>  (146) 
4

>  <NumHeteroatoms>  (146) 
4

>  <NumRotatableBonds>  (146) 
2

>  <NumSaturatedCarbocycles>  (146) 
0

>  <NumSaturatedHeterocycles>  (146) 
0

>  <NumSaturatedRings>  (146) 
0

>  <RingCount>  (146) 
1

>  <MolLogP>  (146) 
-0.6269

>  <MolMR>  (146) 
42.4865

>  <fr_Al_COO>  (146) 
0

>  <fr_Al_OH>  (146) 
1

>  <fr_Al_OH_noTert>  (146) 
1

>  <fr_ArN>  (146) 
0

>  <fr_Ar_COO>  (146) 
0

>  <fr_Ar_N>  (146) 
0

>  <fr_Ar_NH>  (146) 
0

>  <fr_Ar_OH>  (146) 
2

>  <fr_COO>  (146) 
0

>  <fr_COO2>  (146) 
0

>  <fr_C_O>  (146) 
0

>  <fr_C_O_noCOO>  (146) 
0

>  <fr_C_S>  (146) 
0

>  <fr_HOCCN>  (146) 
0

>  <fr_Imine>  (146) 
0

>  <fr_NH0>  (146) 
0

>  <fr_NH1>  (146) 
0

>  <fr_NH2>  (146) 
0

>  <fr_N_O>  (146) 
0

>  <fr_Ndealkylation1>  (146) 
0

>  <fr_Ndealkylation2>  (146) 
0

>  <fr_Nhpyrrole>  (146) 
0

>  <fr_SH>  (146) 
0

>  <fr_aldehyde>  (146) 
0

>  <fr_alkyl_carbamate>  (146) 
0

>  <fr_alkyl_halide>  (146) 
0

>  <fr_allylic_oxid>  (146) 
0

>  <fr_amide>  (146) 
0

>  <fr_amidine>  (146) 
0

>  <fr_aniline>  (146) 
0

>  <fr_aryl_methyl>  (146) 
0

>  <fr_azide>  (146) 
0

>  <fr_azo>  (146) 
0

>  <fr_barbitur>  (146) 
0

>  <fr_benzene>  (146) 
1

>  <fr_benzodiazepine>  (146) 
0

>  <fr_bicyclic>  (146) 
0

>  <fr_diazo>  (146) 
0

>  <fr_dihydropyridine>  (146) 
0

>  <fr_epoxide>  (146) 
0

>  <fr_ester>  (146) 
0

>  <fr_ether>  (146) 
0

>  <fr_furan>  (146) 
0

>  <fr_guanido>  (146) 
0

>  <fr_halogen>  (146) 
0

>  <fr_hdrzine>  (146) 
0

>  <fr_hdrzone>  (146) 
0

>  <fr_imidazole>  (146) 
0

>  <fr_imide>  (146) 
0

>  <fr_isocyan>  (146) 
0

>  <fr_isothiocyan>  (146) 
0

>  <fr_ketone>  (146) 
0

>  <fr_ketone_Topliss>  (146) 
0

>  <fr_lactam>  (146) 
0

>  <fr_lactone>  (146) 
0

>  <fr_methoxy>  (146) 
0

>  <fr_morpholine>  (146) 
0

>  <fr_nitrile>  (146) 
0

>  <fr_nitro>  (146) 
0

>  <fr_nitro_arom>  (146) 
0

>  <fr_nitro_arom_nonortho>  (146) 
0

>  <fr_nitroso>  (146) 
0

>  <fr_oxazole>  (146) 
0

>  <fr_oxime>  (146) 
0

>  <fr_para_hydroxylation>  (146) 
0

>  <fr_phenol>  (146) 
2

>  <fr_phenol_noOrthoHbond>  (146) 
2

>  <fr_phos_acid>  (146) 
0

>  <fr_phos_ester>  (146) 
0

>  <fr_piperdine>  (146) 
0

>  <fr_piperzine>  (146) 
0

>  <fr_priamide>  (146) 
0

>  <fr_prisulfonamd>  (146) 
0

>  <fr_pyridine>  (146) 
0

>  <fr_quatN>  (146) 
1

>  <fr_sulfide>  (146) 
0

>  <fr_sulfonamd>  (146) 
0

>  <fr_sulfone>  (146) 
0

>  <fr_term_acetylene>  (146) 
0

>  <fr_tetrazole>  (146) 
0

>  <fr_thiazole>  (146) 
0

>  <fr_thiocyan>  (146) 
0

>  <fr_thiophene>  (146) 
0

>  <fr_unbrch_alkane>  (146) 
0

>  <fr_urea>  (146) 
0

>  <NP-Likeness>  (146) 
0.797021

$$$$
E9Q
     RDKit          3D

  0  0  0  0  0  0  0  0  0  0999 V3000
M  V30 BEGIN CTAB
M  V30 COUNTS 24 25 0 0 0
M  V30 BEGIN ATOM
M  V30 1 N 3.079660 -0.379708 4.160629 0
M  V30 2 C 2.101551 0.087680 3.244866 0
M  V30 3 C 1.698570 -0.493411 2.042352 0
M  V30 4 C 2.268641 -1.717042 1.556612 0
M  V30 5 N 2.743866 -2.694181 1.174964 0
M  V30 6 C 0.720496 0.262554 1.434653 0
M  V30 7 N 0.050370 0.018806 0.210268 0
M  V30 8 C -0.963156 0.939490 -0.330661 0
M  V30 9 C -1.251590 0.387729 -1.721134 0
M  V30 10 C -1.084591 -1.092359 -1.449337 0
M  V30 11 C 0.217098 -1.104839 -0.687461 0
M  V30 12 N 0.557103 1.284134 2.287940 0
M  V30 13 N 1.352217 1.187753 3.334759 0
M  V30 14 H 4.117647 -0.246898 4.232050 0
M  V30 15 H 2.522888 -0.956056 4.845592 0
M  V30 16 H -0.491063 1.945133 -0.393091 0
M  V30 17 H -1.900983 0.909190 0.238380 0
M  V30 18 H -0.437345 0.702604 -2.371540 0
M  V30 19 H -2.272194 0.644210 -2.064450 0
M  V30 20 H -1.046220 -1.690707 -2.373491 0
M  V30 21 H -1.901735 -1.380544 -0.774334 0
M  V30 22 H 0.380464 -2.055513 -0.147298 0
M  V30 23 H 1.007041 -0.854854 -1.423594 0
M  V30 24 H 1.383403 1.888574 4.127336 0
M  V30 END ATOM
M  V30 BEGIN BOND
M  V30 1 1 1 2
M  V30 2 2 2 3
M  V30 3 1 3 4
M  V30 4 3 4 5
M  V30 5 1 3 6
M  V30 6 1 6 7
M  V30 7 1 7 8
M  V30 8 1 8 9
M  V30 9 1 9 10
M  V30 10 1 10 11
M  V30 11 2 6 12
M  V30 12 1 12 13
M  V30 13 1 13 2
M  V30 14 1 11 7
M  V30 15 1 1 14
M  V30 16 1 1 15
M  V30 17 1 8 16
M  V30 18 1 8 17
M  V30 19 1 9 18
M  V30 20 1 9 19
M  V30 21 1 10 20
M  V30 22 1 10 21
M  V30 23 1 11 22
M  V30 24 1 11 23
M  V30 25 1 13 24
M  V30 END BOND
M  V30 END CTAB
M  END
>  <Dataset>  (147) 
PDB

>  <Ligand_Instance>  (147) 
5N7P_E9Q_A_401

>  <PDB_ID>  (147) 
5N7P

>  <Standardized_SMILES>  (147) 
[H]N([H])C1=C(C#N)C(N2C([H])([H])C([H])([H])C([H])([H])C2([H])[H])=NN1[H]

>  <Name>  (147) 
5-azanyl-3-pyrrolidin-1-yl-1~{H}-pyrazole-4-carbonitrile

>  <Pocket>  (147) 
A

>  <ATP_Site>  (147) 
1.0

>  <Peripheral>  (147) 
0.0

>  <Num_H_Atoms_ProtBoundConf>  (147) 
11.0

>  <Num_Resolved_Atoms>  (147) 
13.0

>  <Num_Not_Resolved_Atoms>  (147) 
0.0

>  <2D_Mol_H>  (147) 
<rdkit.Chem.rdchem.Mol object at 0x72a238da6880>

>  <MW>  (147) 
177.211

>  <HBA>  (147) 
4

>  <HBD>  (147) 
2

>  <LogP>  (147) 
0.46378

>  <NRB>  (147) 
2

>  <TPSA>  (147) 
81.73

>  <Num_Heavy_Atoms>  (147) 
13

>  <Ro5>  (147) 
[True, True, True, True, True, True]

>  <Ro5_Fulfilled>  (147) 
True

>  <Ro3>  (147) 
[True, False, True, True]

>  <Ro3_Fulfilled>  (147) 
True

>  <Fsp3>  (147) 
0.5

>  <Fsp3_0.42>  (147) 
True

>  <Fsp3_0.45>  (147) 
True

>  <Stereogenic_Carbons>  (147) 
0

>  <C_Atoms>  (147) 
8

>  <FCStereo>  (147) 
0.0

>  <SPS>  (147) 
209

>  <nSPS>  (147) 
16.076923

>  <PBF>  (147) 
0.418801

>  <PBF_0.6>  (147) 
False

>  <nPBF>  (147) 
0.032215

>  <nPBF_0.016>  (147) 
True

>  <PMI1>  (147) 
323.300328

>  <PMI2>  (147) 
920.428279

>  <PMI3>  (147) 
1217.381471

>  <NPR1>  (147) 
0.26557

>  <NPR2>  (147) 
0.756072

>  <Sum_NPR>  (147) 
1.021642

>  <Sum_NPR_1.07>  (147) 
False

>  <Sum_NPR_1.2>  (147) 
False

>  <MaxAbsEStateIndex>  (147) 
8.831822

>  <MaxEStateIndex>  (147) 
8.831822

>  <MinAbsEStateIndex>  (147) 
0.365185

>  <MinEStateIndex>  (147) 
0.365185

>  <qed>  (147) 
0.652652

>  <MolWt>  (147) 
177.211

>  <HeavyAtomMolWt>  (147) 
166.123

>  <ExactMolWt>  (147) 
177.101445

>  <NumValenceElectrons>  (147) 
68

>  <NumRadicalElectrons>  (147) 
0

>  <MaxPartialCharge>  (147) 
0.170159

>  <MinPartialCharge>  (147) 
-0.382905

>  <MaxAbsPartialCharge>  (147) 
0.382905

>  <MinAbsPartialCharge>  (147) 
0.170159

>  <FpDensityMorgan1>  (147) 
1.461538

>  <FpDensityMorgan2>  (147) 
2.153846

>  <FpDensityMorgan3>  (147) 
2.769231

>  <BCUT2D_MWHI>  (147) 
15.293808

>  <BCUT2D_MWLOW>  (147) 
10.29321

>  <BCUT2D_CHGHI>  (147) 
2.195737

>  <BCUT2D_CHGLO>  (147) 
-2.128205

>  <BCUT2D_LOGPHI>  (147) 
2.240616

>  <BCUT2D_LOGPLOW>  (147) 
-2.185339

>  <BCUT2D_MRHI>  (147) 
5.638549

>  <BCUT2D_MRLOW>  (147) 
0.91962

>  <AvgIpc>  (147) 
2.71488

>  <BalabanJ>  (147) 
2.341187

>  <BertzCT>  (147) 
341.906626

>  <Chi0>  (147) 
9.259149

>  <Chi0n>  (147) 
7.247418

>  <Chi0v>  (147) 
7.247418

>  <Chi1>  (147) 
6.325699

>  <Chi1n>  (147) 
4.315558

>  <Chi1v>  (147) 
4.315558

>  <Chi2n>  (147) 
3.141847

>  <Chi2v>  (147) 
3.141847

>  <Chi3n>  (147) 
2.2926

>  <Chi3v>  (147) 
2.2926

>  <Chi4n>  (147) 
1.613416

>  <Chi4v>  (147) 
1.613416

>  <HallKierAlpha>  (147) 
-1.7

>  <Ipc>  (147) 
1767.386919

>  <Kappa1>  (147) 
7.923967

>  <Kappa2>  (147) 
2.976534

>  <Kappa3>  (147) 
1.201658

>  <LabuteASA>  (147) 
76.139849

>  <PEOE_VSA1>  (147) 
10.633577

>  <PEOE_VSA10>  (147) 
17.450536

>  <PEOE_VSA11>  (147) 
5.817863

>  <PEOE_VSA12>  (147) 
0.0

>  <PEOE_VSA13>  (147) 
0.0

>  <PEOE_VSA14>  (147) 
0.0

>  <PEOE_VSA2>  (147) 
5.098682

>  <PEOE_VSA3>  (147) 
0.0

>  <PEOE_VSA4>  (147) 
10.360573

>  <PEOE_VSA5>  (147) 
0.0

>  <PEOE_VSA6>  (147) 
0.0

>  <PEOE_VSA7>  (147) 
12.841643

>  <PEOE_VSA8>  (147) 
13.089513

>  <PEOE_VSA9>  (147) 
0.0

>  <SMR_VSA1>  (147) 
0.0

>  <SMR_VSA10>  (147) 
11.635726

>  <SMR_VSA2>  (147) 
5.261892

>  <SMR_VSA3>  (147) 
10.197364

>  <SMR_VSA4>  (147) 
0.0

>  <SMR_VSA5>  (147) 
12.841643

>  <SMR_VSA6>  (147) 
23.72309

>  <SMR_VSA7>  (147) 
5.563451

>  <SMR_VSA8>  (147) 
0.0

>  <SMR_VSA9>  (147) 
6.069221

>  <SlogP_VSA1>  (147) 
10.633577

>  <SlogP_VSA10>  (147) 
11.635726

>  <SlogP_VSA11>  (147) 
0.0

>  <SlogP_VSA12>  (147) 
0.0

>  <SlogP_VSA2>  (147) 
23.286876

>  <SlogP_VSA3>  (147) 
0.0

>  <SlogP_VSA4>  (147) 
11.331113

>  <SlogP_VSA5>  (147) 
18.405095

>  <SlogP_VSA6>  (147) 
0.0

>  <SlogP_VSA7>  (147) 
0.0

>  <SlogP_VSA8>  (147) 
0.0

>  <SlogP_VSA9>  (147) 
0.0

>  <EState_VSA1>  (147) 
0.0

>  <EState_VSA10>  (147) 
0.0

>  <EState_VSA11>  (147) 
0.0

>  <EState_VSA2>  (147) 
0.0

>  <EState_VSA3>  (147) 
17.199177

>  <EState_VSA4>  (147) 
25.931156

>  <EState_VSA5>  (147) 
0.0

>  <EState_VSA6>  (147) 
0.0

>  <EState_VSA7>  (147) 
0.0

>  <EState_VSA8>  (147) 
21.166495

>  <EState_VSA9>  (147) 
10.995559

>  <VSA_EState1>  (147) 
0.0

>  <VSA_EState10>  (147) 
0.0

>  <VSA_EState2>  (147) 
2.088704

>  <VSA_EState3>  (147) 
15.48247

>  <VSA_EState4>  (147) 
6.026254

>  <VSA_EState5>  (147) 
1.071204

>  <VSA_EState6>  (147) 
2.060324

>  <VSA_EState7>  (147) 
2.328638

>  <VSA_EState8>  (147) 
1.942407

>  <VSA_EState9>  (147) 
0.0

>  <FractionCSP3>  (147) 
0.5

>  <HeavyAtomCount>  (147) 
13

>  <NHOHCount>  (147) 
3

>  <NOCount>  (147) 
5

>  <NumAliphaticCarbocycles>  (147) 
0

>  <NumAliphaticHeterocycles>  (147) 
1

>  <NumAliphaticRings>  (147) 
1

>  <NumAromaticCarbocycles>  (147) 
0

>  <NumAromaticHeterocycles>  (147) 
1

>  <NAR>  (147) 
1

>  <NumHAcceptors>  (147) 
4

>  <NumHDonors>  (147) 
2

>  <NumHeteroatoms>  (147) 
5

>  <NumRotatableBonds>  (147) 
1

>  <NumSaturatedCarbocycles>  (147) 
0

>  <NumSaturatedHeterocycles>  (147) 
1

>  <NumSaturatedRings>  (147) 
1

>  <RingCount>  (147) 
2

>  <MolLogP>  (147) 
0.46378

>  <MolMR>  (147) 
49.1621

>  <fr_Al_COO>  (147) 
0

>  <fr_Al_OH>  (147) 
0

>  <fr_Al_OH_noTert>  (147) 
0

>  <fr_ArN>  (147) 
1

>  <fr_Ar_COO>  (147) 
0

>  <fr_Ar_N>  (147) 
2

>  <fr_Ar_NH>  (147) 
1

>  <fr_Ar_OH>  (147) 
0

>  <fr_COO>  (147) 
0

>  <fr_COO2>  (147) 
0

>  <fr_C_O>  (147) 
0

>  <fr_C_O_noCOO>  (147) 
0

>  <fr_C_S>  (147) 
0

>  <fr_HOCCN>  (147) 
0

>  <fr_Imine>  (147) 
0

>  <fr_NH0>  (147) 
3

>  <fr_NH1>  (147) 
1

>  <fr_NH2>  (147) 
1

>  <fr_N_O>  (147) 
0

>  <fr_Ndealkylation1>  (147) 
0

>  <fr_Ndealkylation2>  (147) 
0

>  <fr_Nhpyrrole>  (147) 
1

>  <fr_SH>  (147) 
0

>  <fr_aldehyde>  (147) 
0

>  <fr_alkyl_carbamate>  (147) 
0

>  <fr_alkyl_halide>  (147) 
0

>  <fr_allylic_oxid>  (147) 
0

>  <fr_amide>  (147) 
0

>  <fr_amidine>  (147) 
0

>  <fr_aniline>  (147) 
2

>  <fr_aryl_methyl>  (147) 
0

>  <fr_azide>  (147) 
0

>  <fr_azo>  (147) 
0

>  <fr_barbitur>  (147) 
0

>  <fr_benzene>  (147) 
0

>  <fr_benzodiazepine>  (147) 
0

>  <fr_bicyclic>  (147) 
0

>  <fr_diazo>  (147) 
0

>  <fr_dihydropyridine>  (147) 
0

>  <fr_epoxide>  (147) 
0

>  <fr_ester>  (147) 
0

>  <fr_ether>  (147) 
0

>  <fr_furan>  (147) 
0

>  <fr_guanido>  (147) 
0

>  <fr_halogen>  (147) 
0

>  <fr_hdrzine>  (147) 
0

>  <fr_hdrzone>  (147) 
0

>  <fr_imidazole>  (147) 
0

>  <fr_imide>  (147) 
0

>  <fr_isocyan>  (147) 
0

>  <fr_isothiocyan>  (147) 
0

>  <fr_ketone>  (147) 
0

>  <fr_ketone_Topliss>  (147) 
0

>  <fr_lactam>  (147) 
0

>  <fr_lactone>  (147) 
0

>  <fr_methoxy>  (147) 
0

>  <fr_morpholine>  (147) 
0

>  <fr_nitrile>  (147) 
1

>  <fr_nitro>  (147) 
0

>  <fr_nitro_arom>  (147) 
0

>  <fr_nitro_arom_nonortho>  (147) 
0

>  <fr_nitroso>  (147) 
0

>  <fr_oxazole>  (147) 
0

>  <fr_oxime>  (147) 
0

>  <fr_para_hydroxylation>  (147) 
0

>  <fr_phenol>  (147) 
0

>  <fr_phenol_noOrthoHbond>  (147) 
0

>  <fr_phos_acid>  (147) 
0

>  <fr_phos_ester>  (147) 
0

>  <fr_piperdine>  (147) 
0

>  <fr_piperzine>  (147) 
0

>  <fr_priamide>  (147) 
0

>  <fr_prisulfonamd>  (147) 
0

>  <fr_pyridine>  (147) 
0

>  <fr_quatN>  (147) 
0

>  <fr_sulfide>  (147) 
0

>  <fr_sulfonamd>  (147) 
0

>  <fr_sulfone>  (147) 
0

>  <fr_term_acetylene>  (147) 
0

>  <fr_tetrazole>  (147) 
0

>  <fr_thiazole>  (147) 
0

>  <fr_thiocyan>  (147) 
0

>  <fr_thiophene>  (147) 
0

>  <fr_unbrch_alkane>  (147) 
0

>  <fr_urea>  (147) 
0

>  <NP-Likeness>  (147) 
-1.816974

$$$$
EE4
     RDKit          3D

  0  0  0  0  0  0  0  0  0  0999 V3000
M  V30 BEGIN CTAB
M  V30 COUNTS 69 73 0 0 0
M  V30 BEGIN ATOM
M  V30 1 C 6.979733 4.315920 2.887234 0
M  V30 2 N 7.309761 4.944964 4.028818 0
M  V30 3 N 6.255555 5.625887 4.497568 0
M  V30 4 C 5.197025 5.452580 3.656875 0
M  V30 5 C 3.872351 5.858599 3.556085 0
M  V30 6 C 3.034192 5.488065 2.534341 0
M  V30 7 C 3.501435 4.658613 1.524815 0
M  V30 8 C 2.699854 4.209215 0.394721 0
M  V30 9 O 3.181488 3.393094 -0.447846 0
M  V30 10 N 1.386856 4.563141 0.060936 0
M  V30 11 C 0.625851 4.105180 -1.063596 0 CFG=2
M  V30 12 C 0.628429 5.272385 -2.046758 0
M  V30 13 N -0.498247 5.415504 -2.611693 0
M  V30 14 C -1.430327 4.409801 -2.131882 0
M  V30 15 C -0.823772 3.887195 -0.833406 0 CFG=1
M  V30 16 N -1.183196 2.486971 -0.763944 0
M  V30 17 C -2.098118 1.872713 0.153416 0
M  V30 18 O -2.668583 2.641507 1.004582 0
M  V30 19 C -2.378845 0.435204 0.132285 0
M  V30 20 C -1.725975 -0.468694 -0.711187 0
M  V30 21 C -2.089156 -1.792997 -0.605984 0
M  V30 22 C -3.049213 -2.327124 0.266287 0
M  V30 23 C -3.267701 -3.766500 0.274459 0
M  V30 24 O -4.467916 -4.014621 0.550345 0
M  V30 25 C -2.214400 -4.742806 -0.005549 0
M  V30 26 C -2.374308 -5.993710 -0.552994 0
M  V30 27 O -3.683561 -6.227718 -0.862438 0
M  V30 28 C -4.325887 -7.308401 -1.408316 0
M  V30 29 C -4.284734 -8.604575 -0.661060 0
M  V30 30 C -4.903391 -8.530200 0.721832 0
M  V30 31 C -1.296843 -6.814521 -0.720073 0
M  V30 32 C 0.014801 -6.468340 -0.359822 0
M  V30 33 C 0.161630 -5.193429 0.199396 0
M  V30 34 O 1.405341 -4.857296 0.552515 0
M  V30 35 C 2.657986 -5.322042 0.552684 0
M  V30 36 C -0.934546 -4.325802 0.382135 0
M  V30 37 F -0.534324 -3.160335 0.991678 0
M  V30 38 C -3.670359 -1.398729 1.079274 0
M  V30 39 C -3.328226 -0.062966 0.996894 0
M  V30 40 C 4.807119 4.244919 1.602315 0
M  V30 41 C 5.660780 4.614354 2.628375 0
M  V30 42 H 7.649387 3.687609 2.285254 0
M  V30 43 H 6.080489 6.237375 5.333998 0
M  V30 44 H 3.539061 6.509438 4.378515 0
M  V30 45 H 2.011499 5.821792 2.484127 0
M  V30 46 H 0.904110 5.253386 0.719843 0
M  V30 47 H 1.158572 3.288922 -1.590536 0
M  V30 48 H 1.485113 5.918371 -2.256814 0
M  V30 49 H -2.387956 4.892017 -1.939869 0
M  V30 50 H -1.483640 3.602842 -2.902644 0
M  V30 51 H -1.262173 4.371662 0.042346 0
M  V30 52 H -0.699090 1.906067 -1.480475 0
M  V30 53 H -0.981679 -0.084530 -1.390956 0
M  V30 54 H -1.523742 -2.405536 -1.328194 0
M  V30 55 H -3.852325 -7.515460 -2.405439 0
M  V30 56 H -5.394690 -7.052184 -1.644026 0
M  V30 57 H -4.896216 -9.384658 -1.215218 0
M  V30 58 H -3.308833 -9.062729 -0.531882 0
M  V30 59 H -4.963726 -7.461586 1.016642 0
M  V30 60 H -5.927779 -8.970469 0.702797 0
M  V30 61 H -4.272059 -9.021480 1.496498 0
M  V30 62 H -1.456991 -7.783421 -1.165381 0
M  V30 63 H 0.833031 -7.151348 -0.514264 0
M  V30 64 H 3.117429 -5.195054 -0.472950 0
M  V30 65 H 2.823518 -6.413777 0.763176 0
M  V30 66 H 3.381888 -4.714202 1.196475 0
M  V30 67 H -4.419853 -1.787148 1.759851 0
M  V30 68 H -3.879242 0.585435 1.688933 0
M  V30 69 H 5.186172 3.607884 0.831202 0
M  V30 END ATOM
M  V30 BEGIN BOND
M  V30 1 2 1 2
M  V30 2 1 2 3
M  V30 3 1 3 4
M  V30 4 2 4 5
M  V30 5 1 5 6
M  V30 6 2 6 7
M  V30 7 1 7 8
M  V30 8 2 8 9
M  V30 9 1 8 10
M  V30 10 1 10 11
M  V30 11 1 11 12
M  V30 12 2 12 13
M  V30 13 1 13 14
M  V30 14 1 14 15
M  V30 15 1 15 16
M  V30 16 1 16 17
M  V30 17 2 17 18
M  V30 18 1 17 19
M  V30 19 2 19 20
M  V30 20 1 20 21
M  V30 21 2 21 22
M  V30 22 1 22 23
M  V30 23 2 23 24
M  V30 24 1 23 25
M  V30 25 2 25 26
M  V30 26 1 26 27
M  V30 27 1 27 28
M  V30 28 1 28 29
M  V30 29 1 29 30
M  V30 30 1 26 31
M  V30 31 2 31 32
M  V30 32 1 32 33
M  V30 33 1 33 34
M  V30 34 1 34 35
M  V30 35 2 33 36
M  V30 36 1 36 37
M  V30 37 1 22 38
M  V30 38 2 38 39
M  V30 39 1 7 40
M  V30 40 2 40 41
M  V30 41 1 41 1
M  V30 42 1 41 4
M  V30 43 1 15 11
M  V30 44 1 39 19
M  V30 45 1 36 25
M  V30 46 1 1 42
M  V30 47 1 3 43
M  V30 48 1 5 44
M  V30 49 1 6 45
M  V30 50 1 10 46
M  V30 51 1 11 47 CFG=3
M  V30 52 1 12 48
M  V30 53 1 14 49
M  V30 54 1 14 50
M  V30 55 1 15 51 CFG=1
M  V30 56 1 16 52
M  V30 57 1 20 53
M  V30 58 1 21 54
M  V30 59 1 28 55
M  V30 60 1 28 56
M  V30 61 1 29 57
M  V30 62 1 29 58
M  V30 63 1 30 59
M  V30 64 1 30 60
M  V30 65 1 30 61
M  V30 66 1 31 62
M  V30 67 1 32 63
M  V30 68 1 35 64
M  V30 69 1 35 65
M  V30 70 1 35 66
M  V30 71 1 38 67
M  V30 72 1 39 68
M  V30 73 1 40 69
M  V30 END BOND
M  V30 END CTAB
M  END
>  <Dataset>  (148) 
PDB

>  <Ligand_Instance>  (148) 
6C0U_EE4_A_400

>  <PDB_ID>  (148) 
6C0U

>  <Standardized_SMILES>  (148) 
[H]C1=NN([H])C2=C([H])C([H])=C(C(=O)N([H])[C@]3([H])C([H])=NC([H])([H])[C@@]3([H])N([H])C(=O)C3=C([H])C([H])=C(C(=O)C4=C(OC([H])([H])C([H])([H])C([H])([H])[H])C([H])=C([H])C(OC([H])([H])[H])=C4F)C([H])=C3[H])C([H])=C12

>  <Name>  (148) 
N-[(3R,4R)-4-{[4-(2-fluoro-3-methoxy-6-propoxybenzene-1-carbonyl)benzene-1-carbonyl]amino}pyrrolidin-3-yl]-1H-indazole-5-carboxamide

>  <Pocket>  (148) 
A

>  <ATP_Site>  (148) 
1.0

>  <Peripheral>  (148) 
0.0

>  <Num_H_Atoms_ProtBoundConf>  (148) 
28.0

>  <Num_Resolved_Atoms>  (148) 
41.0

>  <Num_Not_Resolved_Atoms>  (148) 
0.0

>  <2D_Mol_H>  (148) 
<rdkit.Chem.rdchem.Mol object at 0x72a238da6960>

>  <MW>  (148) 
557.582

>  <HBA>  (148) 
7

>  <HBD>  (148) 
3

>  <LogP>  (148) 
3.7118

>  <NRB>  (148) 
12

>  <TPSA>  (148) 
134.77

>  <Num_Heavy_Atoms>  (148) 
41

>  <Ro5>  (148) 
[False, True, True, True, False, True]

>  <Ro5_Fulfilled>  (148) 
False

>  <Ro3>  (148) 
[False, False, True, False]

>  <Ro3_Fulfilled>  (148) 
False

>  <Fsp3>  (148) 
0.233333

>  <Fsp3_0.42>  (148) 
False

>  <Fsp3_0.45>  (148) 
False

>  <Stereogenic_Carbons>  (148) 
2

>  <C_Atoms>  (148) 
30

>  <FCStereo>  (148) 
0.066667

>  <SPS>  (148) 
655

>  <nSPS>  (148) 
15.97561

>  <PBF>  (148) 
1.166777

>  <PBF_0.6>  (148) 
True

>  <nPBF>  (148) 
0.028458

>  <nPBF_0.016>  (148) 
True

>  <PMI1>  (148) 
4122.970149

>  <PMI2>  (148) 
17535.991548

>  <PMI3>  (148) 
20134.880439

>  <NPR1>  (148) 
0.204768

>  <NPR2>  (148) 
0.870926

>  <Sum_NPR>  (148) 
1.075694

>  <Sum_NPR_1.07>  (148) 
True

>  <Sum_NPR_1.2>  (148) 
False

>  <MaxAbsEStateIndex>  (148) 
15.085101

>  <MaxEStateIndex>  (148) 
15.085101

>  <MinAbsEStateIndex>  (148) 
0.07347

>  <MinEStateIndex>  (148) 
-0.813026

>  <qed>  (148) 
0.254606

>  <MolWt>  (148) 
557.582

>  <HeavyAtomMolWt>  (148) 
529.358

>  <ExactMolWt>  (148) 
557.207447

>  <NumValenceElectrons>  (148) 
210

>  <NumRadicalElectrons>  (148) 
0

>  <MaxPartialCharge>  (148) 
0.25139

>  <MinPartialCharge>  (148) 
-0.493656

>  <MaxAbsPartialCharge>  (148) 
0.493656

>  <MinAbsPartialCharge>  (148) 
0.25139

>  <FpDensityMorgan1>  (148) 
0.97561

>  <FpDensityMorgan2>  (148) 
1.682927

>  <FpDensityMorgan3>  (148) 
2.439024

>  <BCUT2D_MWHI>  (148) 
19.142316

>  <BCUT2D_MWLOW>  (148) 
9.995294

>  <BCUT2D_CHGHI>  (148) 
2.283866

>  <BCUT2D_CHGLO>  (148) 
-2.205529

>  <BCUT2D_LOGPHI>  (148) 
2.310737

>  <BCUT2D_LOGPLOW>  (148) 
-2.509701

>  <BCUT2D_MRHI>  (148) 
6.112995

>  <BCUT2D_MRLOW>  (148) 
0.090354

>  <AvgIpc>  (148) 
3.642584

>  <BalabanJ>  (148) 
1.258267

>  <BertzCT>  (148) 
1632.294637

>  <Chi0>  (148) 
28.932146

>  <Chi0n>  (148) 
22.440507

>  <Chi0v>  (148) 
22.440507

>  <Chi1>  (148) 
19.88858

>  <Chi1n>  (148) 
13.080891

>  <Chi1v>  (148) 
13.080891

>  <Chi2n>  (148) 
9.475329

>  <Chi2v>  (148) 
9.475329

>  <Chi3n>  (148) 
6.704496

>  <Chi3v>  (148) 
6.704496

>  <Chi4n>  (148) 
4.507173

>  <Chi4v>  (148) 
4.507173

>  <HallKierAlpha>  (148) 
-5.06

>  <Ipc>  (148) 
2436553992.353698

>  <Kappa1>  (148) 
27.504753

>  <Kappa2>  (148) 
11.989183

>  <Kappa3>  (148) 
5.78687

>  <LabuteASA>  (148) 
234.505289

>  <PEOE_VSA1>  (148) 
20.107303

>  <PEOE_VSA10>  (148) 
11.312963

>  <PEOE_VSA11>  (148) 
17.349978

>  <PEOE_VSA12>  (148) 
0.0

>  <PEOE_VSA13>  (148) 
11.814359

>  <PEOE_VSA14>  (148) 
0.0

>  <PEOE_VSA2>  (148) 
24.474698

>  <PEOE_VSA3>  (148) 
4.390415

>  <PEOE_VSA4>  (148) 
5.098682

>  <PEOE_VSA5>  (148) 
0.0

>  <PEOE_VSA6>  (148) 
19.056471

>  <PEOE_VSA7>  (148) 
48.885391

>  <PEOE_VSA8>  (148) 
28.291179

>  <PEOE_VSA9>  (148) 
44.058662

>  <SMR_VSA1>  (148) 
28.247753

>  <SMR_VSA10>  (148) 
34.71513

>  <SMR_VSA2>  (148) 
0.0

>  <SMR_VSA3>  (148) 
20.830941

>  <SMR_VSA4>  (148) 
4.992405

>  <SMR_VSA5>  (148) 
25.42824

>  <SMR_VSA6>  (148) 
20.261436

>  <SMR_VSA7>  (148) 
88.865174

>  <SMR_VSA8>  (148) 
0.0

>  <SMR_VSA9>  (148) 
11.499024

>  <SlogP_VSA1>  (148) 
20.107303

>  <SlogP_VSA10>  (148) 
4.390415

>  <SlogP_VSA11>  (148) 
11.499024

>  <SlogP_VSA12>  (148) 
0.0

>  <SlogP_VSA2>  (148) 
66.354686

>  <SlogP_VSA3>  (148) 
0.0

>  <SlogP_VSA4>  (148) 
5.817221

>  <SlogP_VSA5>  (148) 
49.981976

>  <SlogP_VSA6>  (148) 
65.786552

>  <SlogP_VSA7>  (148) 
0.0

>  <SlogP_VSA8>  (148) 
10.902925

>  <SlogP_VSA9>  (148) 
0.0

>  <EState_VSA1>  (148) 
29.591327

>  <EState_VSA10>  (148) 
14.383612

>  <EState_VSA11>  (148) 
4.390415

>  <EState_VSA2>  (148) 
34.096558

>  <EState_VSA3>  (148) 
25.135911

>  <EState_VSA4>  (148) 
10.902925

>  <EState_VSA5>  (148) 
43.508

>  <EState_VSA6>  (148) 
30.610545

>  <EState_VSA7>  (148) 
6.923737

>  <EState_VSA8>  (148) 
25.823346

>  <EState_VSA9>  (148) 
9.473726

>  <VSA_EState1>  (148) 
25.72549

>  <VSA_EState10>  (148) 
0.0

>  <VSA_EState2>  (148) 
43.342339

>  <VSA_EState3>  (148) 
13.401733

>  <VSA_EState4>  (148) 
1.514896

>  <VSA_EState5>  (148) 
-2.071926

>  <VSA_EState6>  (148) 
13.002647

>  <VSA_EState7>  (148) 
3.918589

>  <VSA_EState8>  (148) 
2.515407

>  <VSA_EState9>  (148) 
1.317491

>  <FractionCSP3>  (148) 
0.233333

>  <HeavyAtomCount>  (148) 
41

>  <NHOHCount>  (148) 
3

>  <NOCount>  (148) 
10

>  <NumAliphaticCarbocycles>  (148) 
0

>  <NumAliphaticHeterocycles>  (148) 
1

>  <NumAliphaticRings>  (148) 
1

>  <NumAromaticCarbocycles>  (148) 
3

>  <NumAromaticHeterocycles>  (148) 
1

>  <NAR>  (148) 
4

>  <NumHAcceptors>  (148) 
7

>  <NumHDonors>  (148) 
3

>  <NumHeteroatoms>  (148) 
11

>  <NumRotatableBonds>  (148) 
10

>  <NumSaturatedCarbocycles>  (148) 
0

>  <NumSaturatedHeterocycles>  (148) 
0

>  <NumSaturatedRings>  (148) 
0

>  <RingCount>  (148) 
5

>  <MolLogP>  (148) 
3.7118

>  <MolMR>  (148) 
150.5736

>  <fr_Al_COO>  (148) 
0

>  <fr_Al_OH>  (148) 
0

>  <fr_Al_OH_noTert>  (148) 
0

>  <fr_ArN>  (148) 
0

>  <fr_Ar_COO>  (148) 
0

>  <fr_Ar_N>  (148) 
2

>  <fr_Ar_NH>  (148) 
1

>  <fr_Ar_OH>  (148) 
0

>  <fr_COO>  (148) 
0

>  <fr_COO2>  (148) 
0

>  <fr_C_O>  (148) 
3

>  <fr_C_O_noCOO>  (148) 
3

>  <fr_C_S>  (148) 
0

>  <fr_HOCCN>  (148) 
0

>  <fr_Imine>  (148) 
1

>  <fr_NH0>  (148) 
2

>  <fr_NH1>  (148) 
3

>  <fr_NH2>  (148) 
0

>  <fr_N_O>  (148) 
0

>  <fr_Ndealkylation1>  (148) 
0

>  <fr_Ndealkylation2>  (148) 
0

>  <fr_Nhpyrrole>  (148) 
1

>  <fr_SH>  (148) 
0

>  <fr_aldehyde>  (148) 
0

>  <fr_alkyl_carbamate>  (148) 
0

>  <fr_alkyl_halide>  (148) 
0

>  <fr_allylic_oxid>  (148) 
0

>  <fr_amide>  (148) 
2

>  <fr_amidine>  (148) 
0

>  <fr_aniline>  (148) 
0

>  <fr_aryl_methyl>  (148) 
0

>  <fr_azide>  (148) 
0

>  <fr_azo>  (148) 
0

>  <fr_barbitur>  (148) 
0

>  <fr_benzene>  (148) 
3

>  <fr_benzodiazepine>  (148) 
0

>  <fr_bicyclic>  (148) 
1

>  <fr_diazo>  (148) 
0

>  <fr_dihydropyridine>  (148) 
0

>  <fr_epoxide>  (148) 
0

>  <fr_ester>  (148) 
0

>  <fr_ether>  (148) 
2

>  <fr_furan>  (148) 
0

>  <fr_guanido>  (148) 
0

>  <fr_halogen>  (148) 
1

>  <fr_hdrzine>  (148) 
0

>  <fr_hdrzone>  (148) 
0

>  <fr_imidazole>  (148) 
0

>  <fr_imide>  (148) 
0

>  <fr_isocyan>  (148) 
0

>  <fr_isothiocyan>  (148) 
0

>  <fr_ketone>  (148) 
1

>  <fr_ketone_Topliss>  (148) 
0

>  <fr_lactam>  (148) 
0

>  <fr_lactone>  (148) 
0

>  <fr_methoxy>  (148) 
1

>  <fr_morpholine>  (148) 
0

>  <fr_nitrile>  (148) 
0

>  <fr_nitro>  (148) 
0

>  <fr_nitro_arom>  (148) 
0

>  <fr_nitro_arom_nonortho>  (148) 
0

>  <fr_nitroso>  (148) 
0

>  <fr_oxazole>  (148) 
0

>  <fr_oxime>  (148) 
0

>  <fr_para_hydroxylation>  (148) 
0

>  <fr_phenol>  (148) 
0

>  <fr_phenol_noOrthoHbond>  (148) 
0

>  <fr_phos_acid>  (148) 
0

>  <fr_phos_ester>  (148) 
0

>  <fr_piperdine>  (148) 
0

>  <fr_piperzine>  (148) 
0

>  <fr_priamide>  (148) 
0

>  <fr_prisulfonamd>  (148) 
0

>  <fr_pyridine>  (148) 
0

>  <fr_quatN>  (148) 
0

>  <fr_sulfide>  (148) 
0

>  <fr_sulfonamd>  (148) 
0

>  <fr_sulfone>  (148) 
0

>  <fr_term_acetylene>  (148) 
0

>  <fr_tetrazole>  (148) 
0

>  <fr_thiazole>  (148) 
0

>  <fr_thiocyan>  (148) 
0

>  <fr_thiophene>  (148) 
0

>  <fr_unbrch_alkane>  (148) 
0

>  <fr_urea>  (148) 
0

>  <NP-Likeness>  (148) 
-0.749094

$$$$
EMU
     RDKit          3D

  0  0  0  0  0  0  0  0  0  0999 V3000
M  V30 BEGIN CTAB
M  V30 COUNTS 28 30 0 0 0
M  V30 BEGIN ATOM
M  V30 1 C -1.010163 -1.836373 2.901597 0
M  V30 2 N -0.419120 -3.010930 3.194868 0
M  V30 3 C 0.845455 -3.226652 2.830837 0
M  V30 4 C 1.508786 -2.228016 2.160047 0
M  V30 5 N 2.757544 -2.664958 1.897213 0
M  V30 6 C 2.853422 -3.907182 2.398685 0
M  V30 7 N 1.698278 -4.250064 2.964241 0
M  V30 8 C 0.922091 -1.008708 1.845890 0
M  V30 9 N 1.633342 -0.001613 1.156083 0
M  V30 10 C 1.165058 1.299408 0.762992 0
M  V30 11 C 0.018351 1.229524 -0.165004 0
M  V30 12 C -1.333200 1.240908 0.081914 0
M  V30 13 C -2.235479 1.156256 -0.950998 0
M  V30 14 C -1.860916 1.057043 -2.269640 0
M  V30 15 C -0.517459 1.043793 -2.543468 0
M  V30 16 C 0.391463 1.129100 -1.500999 0
M  V30 17 N -0.344756 -0.886707 2.251189 0
M  V30 18 H -2.038174 -1.688032 3.209194 0
M  V30 19 H 3.678417 -4.630266 2.412532 0
M  V30 20 H 1.403897 -5.124619 3.448109 0
M  V30 21 H 2.622598 -0.227461 0.897934 0
M  V30 22 H 0.800768 1.794675 1.694151 0
M  V30 23 H 1.972568 1.915422 0.328464 0
M  V30 24 H -1.579552 1.324969 1.129369 0
M  V30 25 H -3.262409 1.176063 -0.615902 0
M  V30 26 H -2.666659 0.996396 -2.997563 0
M  V30 27 H -0.228534 0.966250 -3.575152 0
M  V30 28 H 1.429987 1.108784 -1.843973 0
M  V30 END ATOM
M  V30 BEGIN BOND
M  V30 1 2 1 2
M  V30 2 1 2 3
M  V30 3 2 3 4
M  V30 4 1 4 5
M  V30 5 2 5 6
M  V30 6 1 6 7
M  V30 7 1 4 8
M  V30 8 1 8 9
M  V30 9 1 9 10
M  V30 10 1 10 11
M  V30 11 2 11 12
M  V30 12 1 12 13
M  V30 13 2 13 14
M  V30 14 1 14 15
M  V30 15 2 15 16
M  V30 16 2 8 17
M  V30 17 1 17 1
M  V30 18 1 7 3
M  V30 19 1 16 11
M  V30 20 1 1 18
M  V30 21 1 6 19
M  V30 22 1 7 20
M  V30 23 1 9 21
M  V30 24 1 10 22
M  V30 25 1 10 23
M  V30 26 1 12 24
M  V30 27 1 13 25
M  V30 28 1 14 26
M  V30 29 1 15 27
M  V30 30 1 16 28
M  V30 END BOND
M  V30 END CTAB
M  END
>  <Dataset>  (149) 
PDB

>  <Ligand_Instance>  (149) 
4YXS_EMU_A_401

>  <PDB_ID>  (149) 
4YXS

>  <Standardized_SMILES>  (149) 
[H]C1=NC2=C(N=C([H])N2[H])C(N([H])C([H])([H])C2=C([H])C([H])=C([H])C([H])=C2[H])=N1

>  <Name>  (149) 
N-BENZYL-9H-PURIN-6-AMINE

>  <Pocket>  (149) 
A

>  <ATP_Site>  (149) 
1.0

>  <Peripheral>  (149) 
0.0

>  <Num_H_Atoms_ProtBoundConf>  (149) 
11.0

>  <Num_Resolved_Atoms>  (149) 
17.0

>  <Num_Not_Resolved_Atoms>  (149) 
0.0

>  <2D_Mol_H>  (149) 
<rdkit.Chem.rdchem.Mol object at 0x72a238da6a40>

>  <MW>  (149) 
225.255

>  <HBA>  (149) 
4

>  <HBD>  (149) 
2

>  <LogP>  (149) 
1.965

>  <NRB>  (149) 
3

>  <TPSA>  (149) 
66.49

>  <Num_Heavy_Atoms>  (149) 
17

>  <Ro5>  (149) 
[True, True, True, True, True, True]

>  <Ro5_Fulfilled>  (149) 
True

>  <Ro3>  (149) 
[True, False, True, True]

>  <Ro3_Fulfilled>  (149) 
True

>  <Fsp3>  (149) 
0.083333

>  <Fsp3_0.42>  (149) 
False

>  <Fsp3_0.45>  (149) 
False

>  <Stereogenic_Carbons>  (149) 
0

>  <C_Atoms>  (149) 
12

>  <FCStereo>  (149) 
0.0

>  <SPS>  (149) 
180

>  <nSPS>  (149) 
10.588235

>  <PBF>  (149) 
0.874022

>  <PBF_0.6>  (149) 
True

>  <nPBF>  (149) 
0.051413

>  <nPBF_0.016>  (149) 
True

>  <PMI1>  (149) 
465.489301

>  <PMI2>  (149) 
1870.977251

>  <PMI3>  (149) 
2052.177583

>  <NPR1>  (149) 
0.226827

>  <NPR2>  (149) 
0.911703

>  <Sum_NPR>  (149) 
1.13853

>  <Sum_NPR_1.07>  (149) 
True

>  <Sum_NPR_1.2>  (149) 
False

>  <MaxAbsEStateIndex>  (149) 
4.189451

>  <MaxEStateIndex>  (149) 
4.189451

>  <MinAbsEStateIndex>  (149) 
0.722037

>  <MinEStateIndex>  (149) 
0.722037

>  <qed>  (149) 
0.714739

>  <MolWt>  (149) 
225.255

>  <HeavyAtomMolWt>  (149) 
214.167

>  <ExactMolWt>  (149) 
225.101445

>  <NumValenceElectrons>  (149) 
84

>  <NumRadicalElectrons>  (149) 
0

>  <MaxPartialCharge>  (149) 
0.162283

>  <MinPartialCharge>  (149) 
-0.364031

>  <MaxAbsPartialCharge>  (149) 
0.364031

>  <MinAbsPartialCharge>  (149) 
0.162283

>  <FpDensityMorgan1>  (149) 
1.058824

>  <FpDensityMorgan2>  (149) 
1.941176

>  <FpDensityMorgan3>  (149) 
2.823529

>  <BCUT2D_MWHI>  (149) 
15.071788

>  <BCUT2D_MWLOW>  (149) 
10.202801

>  <BCUT2D_CHGHI>  (149) 
2.042696

>  <BCUT2D_CHGLO>  (149) 
-2.047442

>  <BCUT2D_LOGPHI>  (149) 
2.146419

>  <BCUT2D_LOGPLOW>  (149) 
-2.017764

>  <BCUT2D_MRHI>  (149) 
5.813283

>  <BCUT2D_MRLOW>  (149) 
1.096849

>  <AvgIpc>  (149) 
2.860897

>  <BalabanJ>  (149) 
1.835033

>  <BertzCT>  (149) 
616.887087

>  <Chi0>  (149) 
11.501789

>  <Chi0n>  (149) 
9.090199

>  <Chi0v>  (149) 
9.090199

>  <Chi1>  (149) 
8.432653

>  <Chi1n>  (149) 
5.351883

>  <Chi1v>  (149) 
5.351883

>  <Chi2n>  (149) 
3.661178

>  <Chi2v>  (149) 
3.661178

>  <Chi3n>  (149) 
2.519976

>  <Chi3v>  (149) 
2.519976

>  <Chi4n>  (149) 
1.675665

>  <Chi4v>  (149) 
1.675665

>  <HallKierAlpha>  (149) 
-2.43

>  <Ipc>  (149) 
18893.36537

>  <Kappa1>  (149) 
9.771792

>  <Kappa2>  (149) 
4.209081

>  <Kappa3>  (149) 
1.943818

>  <LabuteASA>  (149) 
97.953071

>  <PEOE_VSA1>  (149) 
10.300767

>  <PEOE_VSA10>  (149) 
11.844021

>  <PEOE_VSA11>  (149) 
11.46504

>  <PEOE_VSA12>  (149) 
0.0

>  <PEOE_VSA13>  (149) 
0.0

>  <PEOE_VSA14>  (149) 
0.0

>  <PEOE_VSA2>  (149) 
0.0

>  <PEOE_VSA3>  (149) 
14.951936

>  <PEOE_VSA4>  (149) 
0.0

>  <PEOE_VSA5>  (149) 
0.0

>  <PEOE_VSA6>  (149) 
30.331835

>  <PEOE_VSA7>  (149) 
5.563451

>  <PEOE_VSA8>  (149) 
6.544756

>  <PEOE_VSA9>  (149) 
6.32732

>  <SMR_VSA1>  (149) 
0.0

>  <SMR_VSA10>  (149) 
16.981741

>  <SMR_VSA2>  (149) 
0.0

>  <SMR_VSA3>  (149) 
19.935914

>  <SMR_VSA4>  (149) 
0.0

>  <SMR_VSA5>  (149) 
6.544756

>  <SMR_VSA6>  (149) 
5.316789

>  <SMR_VSA7>  (149) 
48.549927

>  <SMR_VSA8>  (149) 
0.0

>  <SMR_VSA9>  (149) 
0.0

>  <SlogP_VSA1>  (149) 
5.316789

>  <SlogP_VSA10>  (149) 
5.817863

>  <SlogP_VSA11>  (149) 
0.0

>  <SlogP_VSA12>  (149) 
0.0

>  <SlogP_VSA2>  (149) 
19.935914

>  <SlogP_VSA3>  (149) 
6.544756

>  <SlogP_VSA4>  (149) 
0.0

>  <SlogP_VSA5>  (149) 
5.563451

>  <SlogP_VSA6>  (149) 
42.986475

>  <SlogP_VSA7>  (149) 
0.0

>  <SlogP_VSA8>  (149) 
11.163878

>  <SlogP_VSA9>  (149) 
0.0

>  <EState_VSA1>  (149) 
0.0

>  <EState_VSA10>  (149) 
0.0

>  <EState_VSA11>  (149) 
0.0

>  <EState_VSA2>  (149) 
0.0

>  <EState_VSA3>  (149) 
0.0

>  <EState_VSA4>  (149) 
23.526497

>  <EState_VSA5>  (149) 
11.890772

>  <EState_VSA6>  (149) 
6.32732

>  <EState_VSA7>  (149) 
18.199101

>  <EState_VSA8>  (149) 
37.385437

>  <EState_VSA9>  (149) 
0.0

>  <VSA_EState1>  (149) 
0.0

>  <VSA_EState10>  (149) 
0.0

>  <VSA_EState2>  (149) 
15.420928

>  <VSA_EState3>  (149) 
3.256435

>  <VSA_EState4>  (149) 
2.716473

>  <VSA_EState5>  (149) 
0.750095

>  <VSA_EState6>  (149) 
10.160933

>  <VSA_EState7>  (149) 
3.139766

>  <VSA_EState8>  (149) 
0.722037

>  <VSA_EState9>  (149) 
0.0

>  <FractionCSP3>  (149) 
0.083333

>  <HeavyAtomCount>  (149) 
17

>  <NHOHCount>  (149) 
2

>  <NOCount>  (149) 
5

>  <NumAliphaticCarbocycles>  (149) 
0

>  <NumAliphaticHeterocycles>  (149) 
0

>  <NumAliphaticRings>  (149) 
0

>  <NumAromaticCarbocycles>  (149) 
1

>  <NumAromaticHeterocycles>  (149) 
2

>  <NAR>  (149) 
3

>  <NumHAcceptors>  (149) 
4

>  <NumHDonors>  (149) 
2

>  <NumHeteroatoms>  (149) 
5

>  <NumRotatableBonds>  (149) 
3

>  <NumSaturatedCarbocycles>  (149) 
0

>  <NumSaturatedHeterocycles>  (149) 
0

>  <NumSaturatedRings>  (149) 
0

>  <RingCount>  (149) 
3

>  <MolLogP>  (149) 
1.965

>  <MolMR>  (149) 
65.4524

>  <fr_Al_COO>  (149) 
0

>  <fr_Al_OH>  (149) 
0

>  <fr_Al_OH_noTert>  (149) 
0

>  <fr_ArN>  (149) 
0

>  <fr_Ar_COO>  (149) 
0

>  <fr_Ar_N>  (149) 
4

>  <fr_Ar_NH>  (149) 
1

>  <fr_Ar_OH>  (149) 
0

>  <fr_COO>  (149) 
0

>  <fr_COO2>  (149) 
0

>  <fr_C_O>  (149) 
0

>  <fr_C_O_noCOO>  (149) 
0

>  <fr_C_S>  (149) 
0

>  <fr_HOCCN>  (149) 
0

>  <fr_Imine>  (149) 
0

>  <fr_NH0>  (149) 
3

>  <fr_NH1>  (149) 
2

>  <fr_NH2>  (149) 
0

>  <fr_N_O>  (149) 
0

>  <fr_Ndealkylation1>  (149) 
0

>  <fr_Ndealkylation2>  (149) 
0

>  <fr_Nhpyrrole>  (149) 
1

>  <fr_SH>  (149) 
0

>  <fr_aldehyde>  (149) 
0

>  <fr_alkyl_carbamate>  (149) 
0

>  <fr_alkyl_halide>  (149) 
0

>  <fr_allylic_oxid>  (149) 
0

>  <fr_amide>  (149) 
0

>  <fr_amidine>  (149) 
0

>  <fr_aniline>  (149) 
1

>  <fr_aryl_methyl>  (149) 
0

>  <fr_azide>  (149) 
0

>  <fr_azo>  (149) 
0

>  <fr_barbitur>  (149) 
0

>  <fr_benzene>  (149) 
1

>  <fr_benzodiazepine>  (149) 
0

>  <fr_bicyclic>  (149) 
1

>  <fr_diazo>  (149) 
0

>  <fr_dihydropyridine>  (149) 
0

>  <fr_epoxide>  (149) 
0

>  <fr_ester>  (149) 
0

>  <fr_ether>  (149) 
0

>  <fr_furan>  (149) 
0

>  <fr_guanido>  (149) 
0

>  <fr_halogen>  (149) 
0

>  <fr_hdrzine>  (149) 
0

>  <fr_hdrzone>  (149) 
0

>  <fr_imidazole>  (149) 
1

>  <fr_imide>  (149) 
0

>  <fr_isocyan>  (149) 
0

>  <fr_isothiocyan>  (149) 
0

>  <fr_ketone>  (149) 
0

>  <fr_ketone_Topliss>  (149) 
0

>  <fr_lactam>  (149) 
0

>  <fr_lactone>  (149) 
0

>  <fr_methoxy>  (149) 
0

>  <fr_morpholine>  (149) 
0

>  <fr_nitrile>  (149) 
0

>  <fr_nitro>  (149) 
0

>  <fr_nitro_arom>  (149) 
0

>  <fr_nitro_arom_nonortho>  (149) 
0

>  <fr_nitroso>  (149) 
0

>  <fr_oxazole>  (149) 
0

>  <fr_oxime>  (149) 
0

>  <fr_para_hydroxylation>  (149) 
0

>  <fr_phenol>  (149) 
0

>  <fr_phenol_noOrthoHbond>  (149) 
0

>  <fr_phos_acid>  (149) 
0

>  <fr_phos_ester>  (149) 
0

>  <fr_piperdine>  (149) 
0

>  <fr_piperzine>  (149) 
0

>  <fr_priamide>  (149) 
0

>  <fr_prisulfonamd>  (149) 
0

>  <fr_pyridine>  (149) 
0

>  <fr_quatN>  (149) 
0

>  <fr_sulfide>  (149) 
0

>  <fr_sulfonamd>  (149) 
0

>  <fr_sulfone>  (149) 
0

>  <fr_term_acetylene>  (149) 
0

>  <fr_tetrazole>  (149) 
0

>  <fr_thiazole>  (149) 
0

>  <fr_thiocyan>  (149) 
0

>  <fr_thiophene>  (149) 
0

>  <fr_unbrch_alkane>  (149) 
0

>  <fr_urea>  (149) 
0

>  <NP-Likeness>  (149) 
-0.947327

$$$$
F05
     RDKit          3D

  0  0  0  0  0  0  0  0  0  0999 V3000
M  V30 BEGIN CTAB
M  V30 COUNTS 18 19 0 0 0
M  V30 BEGIN ATOM
M  V30 1 C 1.193926 -0.681261 3.110954 0
M  V30 2 C 0.685394 -1.833489 2.505202 0
M  V30 3 C 0.429212 -1.790635 1.149941 0
M  V30 4 C 0.665074 -0.651574 0.412212 0
M  V30 5 C 1.167595 0.453789 1.066817 0
M  V30 6 C 1.446063 0.482000 2.413974 0
M  V30 7 C 1.296162 1.458800 0.017557 0
M  V30 8 N 1.768670 2.796724 0.129966 0
M  V30 9 N 0.925220 1.044312 -1.141978 0
M  V30 10 C 0.476150 -0.347382 -1.046455 0
M  V30 11 H 1.384068 -0.744492 4.169814 0
M  V30 12 H 0.506721 -2.718496 3.101303 0
M  V30 13 H 0.028260 -2.689169 0.655576 0
M  V30 14 H 1.839511 1.373501 2.882605 0
M  V30 15 H 1.270305 3.657411 0.505376 0
M  V30 16 H 2.564206 3.418624 -0.035342 0
M  V30 17 H -0.586577 -0.404412 -1.288803 0
M  V30 18 H 1.128016 -1.000859 -1.649263 0
M  V30 END ATOM
M  V30 BEGIN BOND
M  V30 1 2 1 2
M  V30 2 1 2 3
M  V30 3 2 3 4
M  V30 4 1 4 5
M  V30 5 2 5 6
M  V30 6 1 5 7
M  V30 7 1 7 8
M  V30 8 2 7 9
M  V30 9 1 9 10
M  V30 10 1 6 1
M  V30 11 1 10 4
M  V30 12 1 1 11
M  V30 13 1 2 12
M  V30 14 1 3 13
M  V30 15 1 6 14
M  V30 16 1 8 15
M  V30 17 1 8 16
M  V30 18 1 10 17
M  V30 19 1 10 18
M  V30 END BOND
M  V30 END CTAB
M  END
>  <Dataset>  (150) 
PDB

>  <Ligand_Instance>  (150) 
5N36_F05_A_402

>  <PDB_ID>  (150) 
5N36

>  <Standardized_SMILES>  (150) 
[H]C1=C([H])C([H])=C2C(=C1[H])C(N([H])[H])=NC2([H])[H]

>  <Name>  (150) 
1H-isoindol-3-amine

>  <Pocket>  (150) 
A

>  <ATP_Site>  (150) 
1.0

>  <Peripheral>  (150) 
0.0

>  <Num_H_Atoms_ProtBoundConf>  (150) 
8.0

>  <Num_Resolved_Atoms>  (150) 
10.0

>  <Num_Not_Resolved_Atoms>  (150) 
0.0

>  <2D_Mol_H>  (150) 
<rdkit.Chem.rdchem.Mol object at 0x72a238da6b20>

>  <MW>  (150) 
132.166

>  <HBA>  (150) 
2

>  <HBD>  (150) 
1

>  <LogP>  (150) 
0.9055

>  <NRB>  (150) 
0

>  <TPSA>  (150) 
38.38

>  <Num_Heavy_Atoms>  (150) 
10

>  <Ro5>  (150) 
[True, True, True, True, True, True]

>  <Ro5_Fulfilled>  (150) 
True

>  <Ro3>  (150) 
[True, True, True, True]

>  <Ro3_Fulfilled>  (150) 
True

>  <Fsp3>  (150) 
0.125

>  <Fsp3_0.42>  (150) 
False

>  <Fsp3_0.45>  (150) 
False

>  <Stereogenic_Carbons>  (150) 
0

>  <C_Atoms>  (150) 
8

>  <FCStereo>  (150) 
0.0

>  <SPS>  (150) 
146

>  <nSPS>  (150) 
14.6

>  <PBF>  (150) 
0.192969

>  <PBF_0.6>  (150) 
False

>  <nPBF>  (150) 
0.019297

>  <nPBF_0.016>  (150) 
True

>  <PMI1>  (150) 
187.484623

>  <PMI2>  (150) 
406.21624

>  <PMI3>  (150) 
588.280903

>  <NPR1>  (150) 
0.318699

>  <NPR2>  (150) 
0.690514

>  <Sum_NPR>  (150) 
1.009213

>  <Sum_NPR_1.07>  (150) 
False

>  <Sum_NPR_1.2>  (150) 
False

>  <MaxAbsEStateIndex>  (150) 
5.596343

>  <MaxEStateIndex>  (150) 
5.596343

>  <MinAbsEStateIndex>  (150) 
0.676481

>  <MinEStateIndex>  (150) 
0.676481

>  <qed>  (150) 
0.559369

>  <MolWt>  (150) 
132.166

>  <HeavyAtomMolWt>  (150) 
124.102

>  <ExactMolWt>  (150) 
132.068748

>  <NumValenceElectrons>  (150) 
50

>  <NumRadicalElectrons>  (150) 
0

>  <MaxPartialCharge>  (150) 
0.125802

>  <MinPartialCharge>  (150) 
-0.383487

>  <MaxAbsPartialCharge>  (150) 
0.383487

>  <MinAbsPartialCharge>  (150) 
0.125802

>  <FpDensityMorgan1>  (150) 
1.3

>  <FpDensityMorgan2>  (150) 
2.1

>  <FpDensityMorgan3>  (150) 
2.9

>  <BCUT2D_MWHI>  (150) 
14.876495

>  <BCUT2D_MWLOW>  (150) 
10.109781

>  <BCUT2D_CHGHI>  (150) 
2.094082

>  <BCUT2D_CHGLO>  (150) 
-1.943144

>  <BCUT2D_LOGPHI>  (150) 
2.145701

>  <BCUT2D_LOGPLOW>  (150) 
-2.092564

>  <BCUT2D_MRHI>  (150) 
6.001476

>  <BCUT2D_MRLOW>  (150) 
1.105628

>  <AvgIpc>  (150) 
2.340585

>  <BalabanJ>  (150) 
2.605743

>  <BertzCT>  (150) 
289.063995

>  <Chi0>  (150) 
6.974691

>  <Chi0n>  (150) 
5.541072

>  <Chi0v>  (150) 
5.541072

>  <Chi1>  (150) 
4.87701

>  <Chi1n>  (150) 
3.259413

>  <Chi1v>  (150) 
3.259413

>  <Chi2n>  (150) 
2.358615

>  <Chi2v>  (150) 
2.358615

>  <Chi3n>  (150) 
1.713063

>  <Chi3v>  (150) 
1.713063

>  <Chi4n>  (150) 
1.163581

>  <Chi4v>  (150) 
1.163581

>  <HallKierAlpha>  (150) 
-1.31

>  <Ipc>  (150) 
367.471828

>  <Kappa1>  (150) 
5.472993

>  <Kappa2>  (150) 
1.836419

>  <Kappa3>  (150) 
0.620058

>  <LabuteASA>  (150) 
59.390669

>  <PEOE_VSA1>  (150) 
5.733667

>  <PEOE_VSA10>  (150) 
5.83562

>  <PEOE_VSA11>  (150) 
0.0

>  <PEOE_VSA12>  (150) 
0.0

>  <PEOE_VSA13>  (150) 
0.0

>  <PEOE_VSA14>  (150) 
0.0

>  <PEOE_VSA2>  (150) 
4.992405

>  <PEOE_VSA3>  (150) 
0.0

>  <PEOE_VSA4>  (150) 
0.0

>  <PEOE_VSA5>  (150) 
0.0

>  <PEOE_VSA6>  (150) 
24.265468

>  <PEOE_VSA7>  (150) 
5.563451

>  <PEOE_VSA8>  (150) 
5.563451

>  <PEOE_VSA9>  (150) 
6.544756

>  <SMR_VSA1>  (150) 
0.0

>  <SMR_VSA10>  (150) 
5.83562

>  <SMR_VSA2>  (150) 
0.0

>  <SMR_VSA3>  (150) 
0.0

>  <SMR_VSA4>  (150) 
10.726072

>  <SMR_VSA5>  (150) 
6.544756

>  <SMR_VSA6>  (150) 
0.0

>  <SMR_VSA7>  (150) 
35.392371

>  <SMR_VSA8>  (150) 
0.0

>  <SMR_VSA9>  (150) 
0.0

>  <SlogP_VSA1>  (150) 
5.733667

>  <SlogP_VSA10>  (150) 
0.0

>  <SlogP_VSA11>  (150) 
0.0

>  <SlogP_VSA12>  (150) 
0.0

>  <SlogP_VSA2>  (150) 
5.83562

>  <SlogP_VSA3>  (150) 
6.544756

>  <SlogP_VSA4>  (150) 
0.0

>  <SlogP_VSA5>  (150) 
11.126903

>  <SlogP_VSA6>  (150) 
29.257873

>  <SlogP_VSA7>  (150) 
0.0

>  <SlogP_VSA8>  (150) 
0.0

>  <SlogP_VSA9>  (150) 
0.0

>  <EState_VSA1>  (150) 
0.0

>  <EState_VSA10>  (150) 
0.0

>  <EState_VSA11>  (150) 
0.0

>  <EState_VSA2>  (150) 
0.0

>  <EState_VSA3>  (150) 
5.83562

>  <EState_VSA4>  (150) 
12.108208

>  <EState_VSA5>  (150) 
5.563451

>  <EState_VSA6>  (150) 
0.0

>  <EState_VSA7>  (150) 
18.199101

>  <EState_VSA8>  (150) 
11.058772

>  <EState_VSA9>  (150) 
5.733667

>  <VSA_EState1>  (150) 
0.0

>  <VSA_EState10>  (150) 
0.0

>  <VSA_EState2>  (150) 
4.098519

>  <VSA_EState3>  (150) 
0.0

>  <VSA_EState4>  (150) 
7.931991

>  <VSA_EState5>  (150) 
0.676481

>  <VSA_EState6>  (150) 
8.041019

>  <VSA_EState7>  (150) 
0.0

>  <VSA_EState8>  (150) 
0.751991

>  <VSA_EState9>  (150) 
0.0

>  <FractionCSP3>  (150) 
0.125

>  <HeavyAtomCount>  (150) 
10

>  <NHOHCount>  (150) 
2

>  <NOCount>  (150) 
2

>  <NumAliphaticCarbocycles>  (150) 
0

>  <NumAliphaticHeterocycles>  (150) 
1

>  <NumAliphaticRings>  (150) 
1

>  <NumAromaticCarbocycles>  (150) 
1

>  <NumAromaticHeterocycles>  (150) 
0

>  <NAR>  (150) 
1

>  <NumHAcceptors>  (150) 
2

>  <NumHDonors>  (150) 
1

>  <NumHeteroatoms>  (150) 
2

>  <NumRotatableBonds>  (150) 
0

>  <NumSaturatedCarbocycles>  (150) 
0

>  <NumSaturatedHeterocycles>  (150) 
0

>  <NumSaturatedRings>  (150) 
0

>  <RingCount>  (150) 
2

>  <MolLogP>  (150) 
0.9055

>  <MolMR>  (150) 
40.8704

>  <fr_Al_COO>  (150) 
0

>  <fr_Al_OH>  (150) 
0

>  <fr_Al_OH_noTert>  (150) 
0

>  <fr_ArN>  (150) 
0

>  <fr_Ar_COO>  (150) 
0

>  <fr_Ar_N>  (150) 
0

>  <fr_Ar_NH>  (150) 
0

>  <fr_Ar_OH>  (150) 
0

>  <fr_COO>  (150) 
0

>  <fr_COO2>  (150) 
0

>  <fr_C_O>  (150) 
0

>  <fr_C_O_noCOO>  (150) 
0

>  <fr_C_S>  (150) 
0

>  <fr_HOCCN>  (150) 
0

>  <fr_Imine>  (150) 
1

>  <fr_NH0>  (150) 
1

>  <fr_NH1>  (150) 
0

>  <fr_NH2>  (150) 
1

>  <fr_N_O>  (150) 
0

>  <fr_Ndealkylation1>  (150) 
0

>  <fr_Ndealkylation2>  (150) 
0

>  <fr_Nhpyrrole>  (150) 
0

>  <fr_SH>  (150) 
0

>  <fr_aldehyde>  (150) 
0

>  <fr_alkyl_carbamate>  (150) 
0

>  <fr_alkyl_halide>  (150) 
0

>  <fr_allylic_oxid>  (150) 
0

>  <fr_amide>  (150) 
0

>  <fr_amidine>  (150) 
1

>  <fr_aniline>  (150) 
0

>  <fr_aryl_methyl>  (150) 
0

>  <fr_azide>  (150) 
0

>  <fr_azo>  (150) 
0

>  <fr_barbitur>  (150) 
0

>  <fr_benzene>  (150) 
1

>  <fr_benzodiazepine>  (150) 
0

>  <fr_bicyclic>  (150) 
1

>  <fr_diazo>  (150) 
0

>  <fr_dihydropyridine>  (150) 
0

>  <fr_epoxide>  (150) 
0

>  <fr_ester>  (150) 
0

>  <fr_ether>  (150) 
0

>  <fr_furan>  (150) 
0

>  <fr_guanido>  (150) 
0

>  <fr_halogen>  (150) 
0

>  <fr_hdrzine>  (150) 
0

>  <fr_hdrzone>  (150) 
0

>  <fr_imidazole>  (150) 
0

>  <fr_imide>  (150) 
0

>  <fr_isocyan>  (150) 
0

>  <fr_isothiocyan>  (150) 
0

>  <fr_ketone>  (150) 
0

>  <fr_ketone_Topliss>  (150) 
0

>  <fr_lactam>  (150) 
0

>  <fr_lactone>  (150) 
0

>  <fr_methoxy>  (150) 
0

>  <fr_morpholine>  (150) 
0

>  <fr_nitrile>  (150) 
0

>  <fr_nitro>  (150) 
0

>  <fr_nitro_arom>  (150) 
0

>  <fr_nitro_arom_nonortho>  (150) 
0

>  <fr_nitroso>  (150) 
0

>  <fr_oxazole>  (150) 
0

>  <fr_oxime>  (150) 
0

>  <fr_para_hydroxylation>  (150) 
0

>  <fr_phenol>  (150) 
0

>  <fr_phenol_noOrthoHbond>  (150) 
0

>  <fr_phos_acid>  (150) 
0

>  <fr_phos_ester>  (150) 
0

>  <fr_piperdine>  (150) 
0

>  <fr_piperzine>  (150) 
0

>  <fr_priamide>  (150) 
0

>  <fr_prisulfonamd>  (150) 
0

>  <fr_pyridine>  (150) 
0

>  <fr_quatN>  (150) 
0

>  <fr_sulfide>  (150) 
0

>  <fr_sulfonamd>  (150) 
0

>  <fr_sulfone>  (150) 
0

>  <fr_term_acetylene>  (150) 
0

>  <fr_tetrazole>  (150) 
0

>  <fr_thiazole>  (150) 
0

>  <fr_thiocyan>  (150) 
0

>  <fr_thiophene>  (150) 
0

>  <fr_unbrch_alkane>  (150) 
0

>  <fr_urea>  (150) 
0

>  <NP-Likeness>  (150) 
-0.166171

$$$$
G96
     RDKit          3D

  0  0  0  0  0  0  0  0  0  0999 V3000
M  V30 BEGIN CTAB
M  V30 COUNTS 62 65 0 0 0
M  V30 BEGIN ATOM
M  V30 1 O 2.847523 -4.541758 0.128419 0
M  V30 2 C 2.484092 -4.228718 1.436020 0
M  V30 3 C 1.777152 -2.928251 1.331344 0
M  V30 4 C 1.191622 -1.873954 1.260112 0
M  V30 5 C 0.490109 -0.621439 1.196098 0
M  V30 6 C 1.187014 0.555111 1.240014 0
M  V30 7 N 2.498664 0.746099 1.340189 0
M  V30 8 C 2.819483 2.047835 1.355448 0
M  V30 9 C 4.201865 2.454144 1.462802 0
M  V30 10 N 5.237628 1.603464 1.505854 0
M  V30 11 O 6.374373 2.201108 1.579286 0
M  V30 12 N 6.166617 3.506062 1.590348 0
M  V30 13 C 4.814205 3.653171 1.518211 0
M  V30 14 N 4.348998 4.957844 1.538109 0
M  V30 15 N 1.639651 2.657376 1.257574 0
M  V30 16 C 1.380859 4.056667 1.178690 0
M  V30 17 C 1.268320 4.678825 2.549397 0
M  V30 18 C 0.608349 1.796523 1.185507 0
M  V30 19 C -0.758827 1.861377 1.080087 0
M  V30 20 C -1.490153 0.673777 1.033646 0
M  V30 21 O -2.863634 0.770187 0.927530 0
M  V30 22 C -3.719676 -0.332675 0.870872 0
M  V30 23 C -3.451027 -1.248959 -0.311398 0 CFG=1
M  V30 24 C -4.490529 -2.344889 -0.287067 0
M  V30 25 C -4.315808 -3.300803 -1.408831 0
M  V30 26 C -4.951169 -3.084421 -2.614146 0
M  V30 27 C -4.829006 -3.935650 -3.695172 0
M  V30 28 C -4.016930 -5.039233 -3.495633 0
M  V30 29 C -3.346342 -5.331416 -2.326933 0
M  V30 30 C -3.521852 -4.422888 -1.283627 0
M  V30 31 N -3.612802 -0.524494 -1.558035 0 CHG=1 VAL=4
M  V30 32 N -0.858340 -0.528355 1.091876 0
M  V30 33 C 3.691656 -4.082997 2.335488 0
M  V30 34 C 1.575951 -5.271935 2.052889 0
M  V30 35 H 2.762416 -5.522797 0.033621 0
M  V30 36 H 3.837591 5.796980 1.842789 0
M  V30 37 H 4.621281 5.677577 0.821659 0
M  V30 38 H 2.087910 4.557885 0.507111 0
M  V30 39 H 0.384445 4.243374 0.625717 0
M  V30 40 H 0.232482 4.566012 2.965961 0
M  V30 41 H 1.920334 4.172217 3.290134 0
M  V30 42 H 1.552503 5.760059 2.569621 0
M  V30 43 H -1.182374 2.855276 1.039453 0
M  V30 44 H -4.758510 0.046764 0.724569 0
M  V30 45 H -3.709880 -0.866961 1.819898 0
M  V30 46 H -2.430279 -1.648192 -0.313540 0
M  V30 47 H -4.378065 -2.909693 0.645085 0
M  V30 48 H -5.480418 -1.854978 -0.312850 0
M  V30 49 H -5.582889 -2.218087 -2.756825 0
M  V30 50 H -5.325096 -3.770746 -4.642774 0
M  V30 51 H -3.886441 -5.747289 -4.324170 0
M  V30 52 H -2.727385 -6.215524 -2.244603 0
M  V30 53 H -3.000034 -4.635580 -0.350374 0
M  V30 54 H -3.353054 -1.187398 -2.323451 0
M  V30 55 H -3.006805 0.315864 -1.588470 0
M  V30 56 H -4.630197 -0.292793 -1.683568 0
M  V30 57 H 4.618728 -3.875660 1.749892 0
M  V30 58 H 3.791516 -4.965728 2.972258 0
M  V30 59 H 3.542057 -3.172313 2.952780 0
M  V30 60 H 1.040226 -5.833267 1.244862 0
M  V30 61 H 0.766698 -4.735916 2.613821 0
M  V30 62 H 2.114023 -5.938058 2.740134 0
M  V30 END ATOM
M  V30 BEGIN BOND
M  V30 1 1 1 2
M  V30 2 1 2 3
M  V30 3 3 3 4
M  V30 4 1 4 5
M  V30 5 2 5 6
M  V30 6 1 6 7
M  V30 7 2 7 8
M  V30 8 1 8 9
M  V30 9 2 9 10
M  V30 10 1 10 11
M  V30 11 1 11 12
M  V30 12 2 12 13
M  V30 13 1 13 14
M  V30 14 1 8 15
M  V30 15 1 15 16
M  V30 16 1 16 17
M  V30 17 1 15 18
M  V30 18 2 18 19
M  V30 19 1 19 20
M  V30 20 1 20 21
M  V30 21 1 21 22
M  V30 22 1 22 23
M  V30 23 1 23 24
M  V30 24 1 24 25
M  V30 25 2 25 26
M  V30 26 1 26 27
M  V30 27 2 27 28
M  V30 28 1 28 29
M  V30 29 2 29 30
M  V30 30 1 23 31
M  V30 31 2 20 32
M  V30 32 1 2 33
M  V30 33 1 2 34
M  V30 34 1 32 5
M  V30 35 1 18 6
M  V30 36 1 30 25
M  V30 37 1 13 9
M  V30 38 1 1 35
M  V30 39 1 14 36
M  V30 40 1 14 37
M  V30 41 1 16 38
M  V30 42 1 16 39
M  V30 43 1 17 40
M  V30 44 1 17 41
M  V30 45 1 17 42
M  V30 46 1 19 43
M  V30 47 1 22 44
M  V30 48 1 22 45
M  V30 49 1 23 46 CFG=1
M  V30 50 1 24 47
M  V30 51 1 24 48
M  V30 52 1 26 49
M  V30 53 1 27 50
M  V30 54 1 28 51
M  V30 55 1 29 52
M  V30 56 1 30 53
M  V30 57 1 31 54
M  V30 58 1 31 55
M  V30 59 1 31 56
M  V30 60 1 33 57
M  V30 61 1 33 58
M  V30 62 1 33 59
M  V30 63 1 34 60
M  V30 64 1 34 61
M  V30 65 1 34 62
M  V30 END BOND
M  V30 END CTAB
M  END
>  <Dataset>  (151) 
PDB

>  <Ligand_Instance>  (151) 
3E8C_G96_A_351

>  <PDB_ID>  (151) 
3E8C

>  <Standardized_SMILES>  (151) 
[H]OC(C#CC1=C2N=C(C3=NON=C3N([H])[H])N(C([H])([H])C([H])([H])[H])C2=C([H])C(OC([H])([H])[C@@]([H])(C([H])([H])C2=C([H])C([H])=C([H])C([H])=C2[H])[N+]([H])([H])[H])=N1)(C([H])([H])[H])C([H])([H])[H]

>  <Name>  (151) 
4-[2-(4-amino-1,2,5-oxadiazol-3-yl)-6-{[(2R)-2-amino-3-phenylpropyl]oxy}-1-ethyl-1H-imidazo[4,5-c]pyridin-4-yl]-2-methylbut-3-yn-2-ol

>  <Pocket>  (151) 
A, B

>  <ATP_Site>  (151) 
1.0

>  <Peripheral>  (151) 
0.0

>  <Num_H_Atoms_ProtBoundConf>  (151) 
28.0

>  <Num_Resolved_Atoms>  (151) 
34.0

>  <Num_Not_Resolved_Atoms>  (151) 
0.0

>  <2D_Mol_H>  (151) 
<rdkit.Chem.rdchem.Mol object at 0x72a238da6c00>

>  <MW>  (151) 
462.534

>  <HBA>  (151) 
9

>  <HBD>  (151) 
3

>  <LogP>  (151) 
1.4378

>  <NRB>  (151) 
13

>  <TPSA>  (151) 
152.75

>  <Num_Heavy_Atoms>  (151) 
34

>  <Ro5>  (151) 
[True, True, True, True, False, False]

>  <Ro5_Fulfilled>  (151) 
False

>  <Ro3>  (151) 
[False, False, True, True]

>  <Ro3_Fulfilled>  (151) 
False

>  <Fsp3>  (151) 
0.333333

>  <Fsp3_0.42>  (151) 
False

>  <Fsp3_0.45>  (151) 
False

>  <Stereogenic_Carbons>  (151) 
1

>  <C_Atoms>  (151) 
24

>  <FCStereo>  (151) 
0.041667

>  <SPS>  (151) 
421

>  <nSPS>  (151) 
12.382353

>  <PBF>  (151) 
1.01544

>  <PBF_0.6>  (151) 
True

>  <nPBF>  (151) 
0.029866

>  <nPBF_0.016>  (151) 
True

>  <PMI1>  (151) 
3048.249105

>  <PMI2>  (151) 
8759.678263

>  <PMI3>  (151) 
10911.562769

>  <NPR1>  (151) 
0.27936

>  <NPR2>  (151) 
0.802789

>  <Sum_NPR>  (151) 
1.082148

>  <Sum_NPR_1.07>  (151) 
True

>  <Sum_NPR_1.2>  (151) 
False

>  <MaxAbsEStateIndex>  (151) 
10.115531

>  <MaxEStateIndex>  (151) 
10.115531

>  <MinAbsEStateIndex>  (151) 
0.026348

>  <MinEStateIndex>  (151) 
-1.198813

>  <qed>  (151) 
0.34881

>  <MolWt>  (151) 
462.534

>  <HeavyAtomMolWt>  (151) 
434.31

>  <ExactMolWt>  (151) 
462.224814

>  <NumValenceElectrons>  (151) 
176

>  <NumRadicalElectrons>  (151) 
0

>  <MaxPartialCharge>  (151) 
0.216405

>  <MinPartialCharge>  (151) 
-0.471235

>  <MaxAbsPartialCharge>  (151) 
0.471235

>  <MinAbsPartialCharge>  (151) 
0.216405

>  <FpDensityMorgan1>  (151) 
1.235294

>  <FpDensityMorgan2>  (151) 
2.0

>  <FpDensityMorgan3>  (151) 
2.647059

>  <BCUT2D_MWHI>  (151) 
16.564585

>  <BCUT2D_MWLOW>  (151) 
10.079959

>  <BCUT2D_CHGHI>  (151) 
2.217902

>  <BCUT2D_CHGLO>  (151) 
-2.114571

>  <BCUT2D_LOGPHI>  (151) 
2.294627

>  <BCUT2D_LOGPLOW>  (151) 
-2.641859

>  <BCUT2D_MRHI>  (151) 
5.857768

>  <BCUT2D_MRLOW>  (151) 
-0.422797

>  <AvgIpc>  (151) 
3.38418

>  <BalabanJ>  (151) 
1.718732

>  <BertzCT>  (151) 
1344.139623

>  <Chi0>  (151) 
24.294318

>  <Chi0n>  (151) 
19.447007

>  <Chi0v>  (151) 
19.447007

>  <Chi1>  (151) 
16.247333

>  <Chi1n>  (151) 
10.998751

>  <Chi1v>  (151) 
10.998751

>  <Chi2n>  (151) 
8.530342

>  <Chi2v>  (151) 
8.530342

>  <Chi3n>  (151) 
5.076144

>  <Chi3v>  (151) 
5.076144

>  <Chi4n>  (151) 
3.532694

>  <Chi4v>  (151) 
3.532694

>  <HallKierAlpha>  (151) 
-3.94

>  <Ipc>  (151) 
47023446.06636

>  <Kappa1>  (151) 
23.226004

>  <Kappa2>  (151) 
9.506395

>  <Kappa3>  (151) 
5.166963

>  <LabuteASA>  (151) 
196.458229

>  <PEOE_VSA1>  (151) 
25.877825

>  <PEOE_VSA10>  (151) 
29.460402

>  <PEOE_VSA11>  (151) 
17.336195

>  <PEOE_VSA12>  (151) 
5.879988

>  <PEOE_VSA13>  (151) 
0.0

>  <PEOE_VSA14>  (151) 
0.0

>  <PEOE_VSA2>  (151) 
0.0

>  <PEOE_VSA3>  (151) 
14.596996

>  <PEOE_VSA4>  (151) 
0.0

>  <PEOE_VSA5>  (151) 
0.0

>  <PEOE_VSA6>  (151) 
36.25227

>  <PEOE_VSA7>  (151) 
42.568424

>  <PEOE_VSA8>  (151) 
19.031945

>  <PEOE_VSA9>  (151) 
5.516701

>  <SMR_VSA1>  (151) 
20.206097

>  <SMR_VSA10>  (151) 
16.851264

>  <SMR_VSA2>  (151) 
0.0

>  <SMR_VSA3>  (151) 
24.848383

>  <SMR_VSA4>  (151) 
0.0

>  <SMR_VSA5>  (151) 
45.379681

>  <SMR_VSA6>  (151) 
12.340549

>  <SMR_VSA7>  (151) 
47.655582

>  <SMR_VSA8>  (151) 
0.0

>  <SMR_VSA9>  (151) 
29.239189

>  <SlogP_VSA1>  (151) 
16.204198

>  <SlogP_VSA10>  (151) 
5.817863

>  <SlogP_VSA11>  (151) 
5.879988

>  <SlogP_VSA12>  (151) 
0.0

>  <SlogP_VSA2>  (151) 
48.204684

>  <SlogP_VSA3>  (151) 
12.965578

>  <SlogP_VSA4>  (151) 
11.840869

>  <SlogP_VSA5>  (151) 
32.028591

>  <SlogP_VSA6>  (151) 
41.027241

>  <SlogP_VSA7>  (151) 
0.0

>  <SlogP_VSA8>  (151) 
22.551734

>  <SlogP_VSA9>  (151) 
0.0

>  <EState_VSA1>  (151) 
5.601051

>  <EState_VSA10>  (151) 
5.106527

>  <EState_VSA11>  (151) 
0.0

>  <EState_VSA2>  (151) 
11.859704

>  <EState_VSA3>  (151) 
41.760588

>  <EState_VSA4>  (151) 
11.937522

>  <EState_VSA5>  (151) 
5.563451

>  <EState_VSA6>  (151) 
13.847474

>  <EState_VSA7>  (151) 
35.756305

>  <EState_VSA8>  (151) 
49.988554

>  <EState_VSA9>  (151) 
15.099569

>  <VSA_EState1>  (151) 
12.713547

>  <VSA_EState10>  (151) 
0.0

>  <VSA_EState2>  (151) 
9.259729

>  <VSA_EState3>  (151) 
17.672196

>  <VSA_EState4>  (151) 
12.120692

>  <VSA_EState5>  (151) 
6.764835

>  <VSA_EState6>  (151) 
11.972152

>  <VSA_EState7>  (151) 
0.781672

>  <VSA_EState8>  (151) 
6.131844

>  <VSA_EState9>  (151) 
0.0

>  <FractionCSP3>  (151) 
0.333333

>  <HeavyAtomCount>  (151) 
34

>  <NHOHCount>  (151) 
6

>  <NOCount>  (151) 
10

>  <NumAliphaticCarbocycles>  (151) 
0

>  <NumAliphaticHeterocycles>  (151) 
0

>  <NumAliphaticRings>  (151) 
0

>  <NumAromaticCarbocycles>  (151) 
1

>  <NumAromaticHeterocycles>  (151) 
3

>  <NAR>  (151) 
4

>  <NumHAcceptors>  (151) 
9

>  <NumHDonors>  (151) 
3

>  <NumHeteroatoms>  (151) 
10

>  <NumRotatableBonds>  (151) 
7

>  <NumSaturatedCarbocycles>  (151) 
0

>  <NumSaturatedHeterocycles>  (151) 
0

>  <NumSaturatedRings>  (151) 
0

>  <RingCount>  (151) 
4

>  <MolLogP>  (151) 
1.4378

>  <MolMR>  (151) 
126.3993

>  <fr_Al_COO>  (151) 
0

>  <fr_Al_OH>  (151) 
1

>  <fr_Al_OH_noTert>  (151) 
0

>  <fr_ArN>  (151) 
1

>  <fr_Ar_COO>  (151) 
0

>  <fr_Ar_N>  (151) 
5

>  <fr_Ar_NH>  (151) 
0

>  <fr_Ar_OH>  (151) 
0

>  <fr_COO>  (151) 
0

>  <fr_COO2>  (151) 
0

>  <fr_C_O>  (151) 
0

>  <fr_C_O_noCOO>  (151) 
0

>  <fr_C_S>  (151) 
0

>  <fr_HOCCN>  (151) 
0

>  <fr_Imine>  (151) 
0

>  <fr_NH0>  (151) 
5

>  <fr_NH1>  (151) 
0

>  <fr_NH2>  (151) 
1

>  <fr_N_O>  (151) 
0

>  <fr_Ndealkylation1>  (151) 
0

>  <fr_Ndealkylation2>  (151) 
0

>  <fr_Nhpyrrole>  (151) 
0

>  <fr_SH>  (151) 
0

>  <fr_aldehyde>  (151) 
0

>  <fr_alkyl_carbamate>  (151) 
0

>  <fr_alkyl_halide>  (151) 
0

>  <fr_allylic_oxid>  (151) 
0

>  <fr_amide>  (151) 
0

>  <fr_amidine>  (151) 
0

>  <fr_aniline>  (151) 
1

>  <fr_aryl_methyl>  (151) 
1

>  <fr_azide>  (151) 
0

>  <fr_azo>  (151) 
0

>  <fr_barbitur>  (151) 
0

>  <fr_benzene>  (151) 
1

>  <fr_benzodiazepine>  (151) 
0

>  <fr_bicyclic>  (151) 
1

>  <fr_diazo>  (151) 
0

>  <fr_dihydropyridine>  (151) 
0

>  <fr_epoxide>  (151) 
0

>  <fr_ester>  (151) 
0

>  <fr_ether>  (151) 
1

>  <fr_furan>  (151) 
0

>  <fr_guanido>  (151) 
0

>  <fr_halogen>  (151) 
0

>  <fr_hdrzine>  (151) 
0

>  <fr_hdrzone>  (151) 
0

>  <fr_imidazole>  (151) 
1

>  <fr_imide>  (151) 
0

>  <fr_isocyan>  (151) 
0

>  <fr_isothiocyan>  (151) 
0

>  <fr_ketone>  (151) 
0

>  <fr_ketone_Topliss>  (151) 
0

>  <fr_lactam>  (151) 
0

>  <fr_lactone>  (151) 
0

>  <fr_methoxy>  (151) 
0

>  <fr_morpholine>  (151) 
0

>  <fr_nitrile>  (151) 
0

>  <fr_nitro>  (151) 
0

>  <fr_nitro_arom>  (151) 
0

>  <fr_nitro_arom_nonortho>  (151) 
0

>  <fr_nitroso>  (151) 
0

>  <fr_oxazole>  (151) 
0

>  <fr_oxime>  (151) 
0

>  <fr_para_hydroxylation>  (151) 
0

>  <fr_phenol>  (151) 
0

>  <fr_phenol_noOrthoHbond>  (151) 
0

>  <fr_phos_acid>  (151) 
0

>  <fr_phos_ester>  (151) 
0

>  <fr_piperdine>  (151) 
0

>  <fr_piperzine>  (151) 
0

>  <fr_priamide>  (151) 
0

>  <fr_prisulfonamd>  (151) 
0

>  <fr_pyridine>  (151) 
1

>  <fr_quatN>  (151) 
1

>  <fr_sulfide>  (151) 
0

>  <fr_sulfonamd>  (151) 
0

>  <fr_sulfone>  (151) 
0

>  <fr_term_acetylene>  (151) 
0

>  <fr_tetrazole>  (151) 
0

>  <fr_thiazole>  (151) 
0

>  <fr_thiocyan>  (151) 
0

>  <fr_thiophene>  (151) 
0

>  <fr_unbrch_alkane>  (151) 
0

>  <fr_urea>  (151) 
0

>  <NP-Likeness>  (151) 
-0.766942

$$$$
G96
     RDKit          3D

  0  0  0  0  0  0  0  0  0  0999 V3000
M  V30 BEGIN CTAB
M  V30 COUNTS 62 65 0 0 0
M  V30 BEGIN ATOM
M  V30 1 O 2.847523 -4.541758 0.128419 0
M  V30 2 C 2.484092 -4.228718 1.436020 0
M  V30 3 C 1.777152 -2.928251 1.331344 0
M  V30 4 C 1.191622 -1.873954 1.260112 0
M  V30 5 C 0.490109 -0.621439 1.196098 0
M  V30 6 C 1.187014 0.555111 1.240014 0
M  V30 7 N 2.498664 0.746099 1.340189 0
M  V30 8 C 2.819483 2.047835 1.355448 0
M  V30 9 C 4.201865 2.454144 1.462802 0
M  V30 10 N 5.237628 1.603464 1.505854 0
M  V30 11 O 6.374373 2.201108 1.579286 0
M  V30 12 N 6.166617 3.506062 1.590348 0
M  V30 13 C 4.814205 3.653171 1.518211 0
M  V30 14 N 4.348998 4.957844 1.538109 0
M  V30 15 N 1.639651 2.657376 1.257574 0
M  V30 16 C 1.380859 4.056667 1.178690 0
M  V30 17 C 1.268320 4.678825 2.549397 0
M  V30 18 C 0.608349 1.796523 1.185507 0
M  V30 19 C -0.758827 1.861377 1.080087 0
M  V30 20 C -1.490153 0.673777 1.033646 0
M  V30 21 O -2.863634 0.770187 0.927530 0
M  V30 22 C -3.719676 -0.332675 0.870872 0
M  V30 23 C -3.451027 -1.248959 -0.311398 0 CFG=1
M  V30 24 C -4.490529 -2.344889 -0.287067 0
M  V30 25 C -4.315808 -3.300803 -1.408831 0
M  V30 26 C -4.951169 -3.084421 -2.614146 0
M  V30 27 C -4.829006 -3.935650 -3.695172 0
M  V30 28 C -4.016930 -5.039233 -3.495633 0
M  V30 29 C -3.346342 -5.331416 -2.326933 0
M  V30 30 C -3.521852 -4.422888 -1.283627 0
M  V30 31 N -3.612802 -0.524494 -1.558035 0 CHG=1 VAL=4
M  V30 32 N -0.858340 -0.528355 1.091876 0
M  V30 33 C 3.691656 -4.082997 2.335488 0
M  V30 34 C 1.575951 -5.271935 2.052889 0
M  V30 35 H 2.762416 -5.522797 0.033621 0
M  V30 36 H 3.837591 5.796980 1.842789 0
M  V30 37 H 4.621281 5.677577 0.821659 0
M  V30 38 H 2.087910 4.557885 0.507111 0
M  V30 39 H 0.384445 4.243374 0.625717 0
M  V30 40 H 0.232482 4.566012 2.965961 0
M  V30 41 H 1.920334 4.172217 3.290134 0
M  V30 42 H 1.552503 5.760059 2.569621 0
M  V30 43 H -1.182374 2.855276 1.039453 0
M  V30 44 H -4.758510 0.046764 0.724569 0
M  V30 45 H -3.709880 -0.866961 1.819898 0
M  V30 46 H -2.430279 -1.648192 -0.313540 0
M  V30 47 H -4.378065 -2.909693 0.645085 0
M  V30 48 H -5.480418 -1.854978 -0.312850 0
M  V30 49 H -5.582889 -2.218087 -2.756825 0
M  V30 50 H -5.325096 -3.770746 -4.642774 0
M  V30 51 H -3.886441 -5.747289 -4.324170 0
M  V30 52 H -2.727385 -6.215524 -2.244603 0
M  V30 53 H -3.000034 -4.635580 -0.350374 0
M  V30 54 H -3.353054 -1.187398 -2.323451 0
M  V30 55 H -3.006805 0.315864 -1.588470 0
M  V30 56 H -4.630197 -0.292793 -1.683568 0
M  V30 57 H 4.618728 -3.875660 1.749892 0
M  V30 58 H 3.791516 -4.965728 2.972258 0
M  V30 59 H 3.542057 -3.172313 2.952780 0
M  V30 60 H 1.040226 -5.833267 1.244862 0
M  V30 61 H 0.766698 -4.735916 2.613821 0
M  V30 62 H 2.114023 -5.938058 2.740134 0
M  V30 END ATOM
M  V30 BEGIN BOND
M  V30 1 1 1 2
M  V30 2 1 2 3
M  V30 3 3 3 4
M  V30 4 1 4 5
M  V30 5 2 5 6
M  V30 6 1 6 7
M  V30 7 2 7 8
M  V30 8 1 8 9
M  V30 9 2 9 10
M  V30 10 1 10 11
M  V30 11 1 11 12
M  V30 12 2 12 13
M  V30 13 1 13 14
M  V30 14 1 8 15
M  V30 15 1 15 16
M  V30 16 1 16 17
M  V30 17 1 15 18
M  V30 18 2 18 19
M  V30 19 1 19 20
M  V30 20 1 20 21
M  V30 21 1 21 22
M  V30 22 1 22 23
M  V30 23 1 23 24
M  V30 24 1 24 25
M  V30 25 2 25 26
M  V30 26 1 26 27
M  V30 27 2 27 28
M  V30 28 1 28 29
M  V30 29 2 29 30
M  V30 30 1 23 31
M  V30 31 2 20 32
M  V30 32 1 2 33
M  V30 33 1 2 34
M  V30 34 1 32 5
M  V30 35 1 18 6
M  V30 36 1 30 25
M  V30 37 1 13 9
M  V30 38 1 1 35
M  V30 39 1 14 36
M  V30 40 1 14 37
M  V30 41 1 16 38
M  V30 42 1 16 39
M  V30 43 1 17 40
M  V30 44 1 17 41
M  V30 45 1 17 42
M  V30 46 1 19 43
M  V30 47 1 22 44
M  V30 48 1 22 45
M  V30 49 1 23 46 CFG=1
M  V30 50 1 24 47
M  V30 51 1 24 48
M  V30 52 1 26 49
M  V30 53 1 27 50
M  V30 54 1 28 51
M  V30 55 1 29 52
M  V30 56 1 30 53
M  V30 57 1 31 54
M  V30 58 1 31 55
M  V30 59 1 31 56
M  V30 60 1 33 57
M  V30 61 1 33 58
M  V30 62 1 33 59
M  V30 63 1 34 60
M  V30 64 1 34 61
M  V30 65 1 34 62
M  V30 END BOND
M  V30 END CTAB
M  END
>  <Dataset>  (152) 
PDB

>  <Ligand_Instance>  (152) 
3E8C_G96_B_351

>  <PDB_ID>  (152) 
3E8C

>  <Standardized_SMILES>  (152) 
[H]OC(C#CC1=C2N=C(C3=NON=C3N([H])[H])N(C([H])([H])C([H])([H])[H])C2=C([H])C(OC([H])([H])[C@@]([H])(C([H])([H])C2=C([H])C([H])=C([H])C([H])=C2[H])[N+]([H])([H])[H])=N1)(C([H])([H])[H])C([H])([H])[H]

>  <Name>  (152) 
4-[2-(4-amino-1,2,5-oxadiazol-3-yl)-6-{[(2R)-2-amino-3-phenylpropyl]oxy}-1-ethyl-1H-imidazo[4,5-c]pyridin-4-yl]-2-methylbut-3-yn-2-ol

>  <Pocket>  (152) 
A, B

>  <ATP_Site>  (152) 
1.0

>  <Peripheral>  (152) 
0.0

>  <Num_H_Atoms_ProtBoundConf>  (152) 
28.0

>  <Num_Resolved_Atoms>  (152) 
34.0

>  <Num_Not_Resolved_Atoms>  (152) 
0.0

>  <2D_Mol_H>  (152) 
<rdkit.Chem.rdchem.Mol object at 0x72a238da6ce0>

>  <MW>  (152) 
462.534

>  <HBA>  (152) 
9

>  <HBD>  (152) 
3

>  <LogP>  (152) 
1.4378

>  <NRB>  (152) 
13

>  <TPSA>  (152) 
152.75

>  <Num_Heavy_Atoms>  (152) 
34

>  <Ro5>  (152) 
[True, True, True, True, False, False]

>  <Ro5_Fulfilled>  (152) 
False

>  <Ro3>  (152) 
[False, False, True, True]

>  <Ro3_Fulfilled>  (152) 
False

>  <Fsp3>  (152) 
0.333333

>  <Fsp3_0.42>  (152) 
False

>  <Fsp3_0.45>  (152) 
False

>  <Stereogenic_Carbons>  (152) 
1

>  <C_Atoms>  (152) 
24

>  <FCStereo>  (152) 
0.041667

>  <SPS>  (152) 
421

>  <nSPS>  (152) 
12.382353

>  <PBF>  (152) 
1.01544

>  <PBF_0.6>  (152) 
True

>  <nPBF>  (152) 
0.029866

>  <nPBF_0.016>  (152) 
True

>  <PMI1>  (152) 
3048.249105

>  <PMI2>  (152) 
8759.678263

>  <PMI3>  (152) 
10911.562769

>  <NPR1>  (152) 
0.27936

>  <NPR2>  (152) 
0.802789

>  <Sum_NPR>  (152) 
1.082148

>  <Sum_NPR_1.07>  (152) 
True

>  <Sum_NPR_1.2>  (152) 
False

>  <MaxAbsEStateIndex>  (152) 
10.115531

>  <MaxEStateIndex>  (152) 
10.115531

>  <MinAbsEStateIndex>  (152) 
0.026348

>  <MinEStateIndex>  (152) 
-1.198813

>  <qed>  (152) 
0.34881

>  <MolWt>  (152) 
462.534

>  <HeavyAtomMolWt>  (152) 
434.31

>  <ExactMolWt>  (152) 
462.224814

>  <NumValenceElectrons>  (152) 
176

>  <NumRadicalElectrons>  (152) 
0

>  <MaxPartialCharge>  (152) 
0.216405

>  <MinPartialCharge>  (152) 
-0.471235

>  <MaxAbsPartialCharge>  (152) 
0.471235

>  <MinAbsPartialCharge>  (152) 
0.216405

>  <FpDensityMorgan1>  (152) 
1.235294

>  <FpDensityMorgan2>  (152) 
2.0

>  <FpDensityMorgan3>  (152) 
2.647059

>  <BCUT2D_MWHI>  (152) 
16.564585

>  <BCUT2D_MWLOW>  (152) 
10.079959

>  <BCUT2D_CHGHI>  (152) 
2.217902

>  <BCUT2D_CHGLO>  (152) 
-2.114571

>  <BCUT2D_LOGPHI>  (152) 
2.294627

>  <BCUT2D_LOGPLOW>  (152) 
-2.641859

>  <BCUT2D_MRHI>  (152) 
5.857768

>  <BCUT2D_MRLOW>  (152) 
-0.422797

>  <AvgIpc>  (152) 
3.38418

>  <BalabanJ>  (152) 
1.718732

>  <BertzCT>  (152) 
1344.139623

>  <Chi0>  (152) 
24.294318

>  <Chi0n>  (152) 
19.447007

>  <Chi0v>  (152) 
19.447007

>  <Chi1>  (152) 
16.247333

>  <Chi1n>  (152) 
10.998751

>  <Chi1v>  (152) 
10.998751

>  <Chi2n>  (152) 
8.530342

>  <Chi2v>  (152) 
8.530342

>  <Chi3n>  (152) 
5.076144

>  <Chi3v>  (152) 
5.076144

>  <Chi4n>  (152) 
3.532694

>  <Chi4v>  (152) 
3.532694

>  <HallKierAlpha>  (152) 
-3.94

>  <Ipc>  (152) 
47023446.06636

>  <Kappa1>  (152) 
23.226004

>  <Kappa2>  (152) 
9.506395

>  <Kappa3>  (152) 
5.166963

>  <LabuteASA>  (152) 
196.458229

>  <PEOE_VSA1>  (152) 
25.877825

>  <PEOE_VSA10>  (152) 
29.460402

>  <PEOE_VSA11>  (152) 
17.336195

>  <PEOE_VSA12>  (152) 
5.879988

>  <PEOE_VSA13>  (152) 
0.0

>  <PEOE_VSA14>  (152) 
0.0

>  <PEOE_VSA2>  (152) 
0.0

>  <PEOE_VSA3>  (152) 
14.596996

>  <PEOE_VSA4>  (152) 
0.0

>  <PEOE_VSA5>  (152) 
0.0

>  <PEOE_VSA6>  (152) 
36.25227

>  <PEOE_VSA7>  (152) 
42.568424

>  <PEOE_VSA8>  (152) 
19.031945

>  <PEOE_VSA9>  (152) 
5.516701

>  <SMR_VSA1>  (152) 
20.206097

>  <SMR_VSA10>  (152) 
16.851264

>  <SMR_VSA2>  (152) 
0.0

>  <SMR_VSA3>  (152) 
24.848383

>  <SMR_VSA4>  (152) 
0.0

>  <SMR_VSA5>  (152) 
45.379681

>  <SMR_VSA6>  (152) 
12.340549

>  <SMR_VSA7>  (152) 
47.655582

>  <SMR_VSA8>  (152) 
0.0

>  <SMR_VSA9>  (152) 
29.239189

>  <SlogP_VSA1>  (152) 
16.204198

>  <SlogP_VSA10>  (152) 
5.817863

>  <SlogP_VSA11>  (152) 
5.879988

>  <SlogP_VSA12>  (152) 
0.0

>  <SlogP_VSA2>  (152) 
48.204684

>  <SlogP_VSA3>  (152) 
12.965578

>  <SlogP_VSA4>  (152) 
11.840869

>  <SlogP_VSA5>  (152) 
32.028591

>  <SlogP_VSA6>  (152) 
41.027241

>  <SlogP_VSA7>  (152) 
0.0

>  <SlogP_VSA8>  (152) 
22.551734

>  <SlogP_VSA9>  (152) 
0.0

>  <EState_VSA1>  (152) 
5.601051

>  <EState_VSA10>  (152) 
5.106527

>  <EState_VSA11>  (152) 
0.0

>  <EState_VSA2>  (152) 
11.859704

>  <EState_VSA3>  (152) 
41.760588

>  <EState_VSA4>  (152) 
11.937522

>  <EState_VSA5>  (152) 
5.563451

>  <EState_VSA6>  (152) 
13.847474

>  <EState_VSA7>  (152) 
35.756305

>  <EState_VSA8>  (152) 
49.988554

>  <EState_VSA9>  (152) 
15.099569

>  <VSA_EState1>  (152) 
12.713547

>  <VSA_EState10>  (152) 
0.0

>  <VSA_EState2>  (152) 
9.259729

>  <VSA_EState3>  (152) 
17.672196

>  <VSA_EState4>  (152) 
12.120692

>  <VSA_EState5>  (152) 
6.764835

>  <VSA_EState6>  (152) 
11.972152

>  <VSA_EState7>  (152) 
0.781672

>  <VSA_EState8>  (152) 
6.131844

>  <VSA_EState9>  (152) 
0.0

>  <FractionCSP3>  (152) 
0.333333

>  <HeavyAtomCount>  (152) 
34

>  <NHOHCount>  (152) 
6

>  <NOCount>  (152) 
10

>  <NumAliphaticCarbocycles>  (152) 
0

>  <NumAliphaticHeterocycles>  (152) 
0

>  <NumAliphaticRings>  (152) 
0

>  <NumAromaticCarbocycles>  (152) 
1

>  <NumAromaticHeterocycles>  (152) 
3

>  <NAR>  (152) 
4

>  <NumHAcceptors>  (152) 
9

>  <NumHDonors>  (152) 
3

>  <NumHeteroatoms>  (152) 
10

>  <NumRotatableBonds>  (152) 
7

>  <NumSaturatedCarbocycles>  (152) 
0

>  <NumSaturatedHeterocycles>  (152) 
0

>  <NumSaturatedRings>  (152) 
0

>  <RingCount>  (152) 
4

>  <MolLogP>  (152) 
1.4378

>  <MolMR>  (152) 
126.3993

>  <fr_Al_COO>  (152) 
0

>  <fr_Al_OH>  (152) 
1

>  <fr_Al_OH_noTert>  (152) 
0

>  <fr_ArN>  (152) 
1

>  <fr_Ar_COO>  (152) 
0

>  <fr_Ar_N>  (152) 
5

>  <fr_Ar_NH>  (152) 
0

>  <fr_Ar_OH>  (152) 
0

>  <fr_COO>  (152) 
0

>  <fr_COO2>  (152) 
0

>  <fr_C_O>  (152) 
0

>  <fr_C_O_noCOO>  (152) 
0

>  <fr_C_S>  (152) 
0

>  <fr_HOCCN>  (152) 
0

>  <fr_Imine>  (152) 
0

>  <fr_NH0>  (152) 
5

>  <fr_NH1>  (152) 
0

>  <fr_NH2>  (152) 
1

>  <fr_N_O>  (152) 
0

>  <fr_Ndealkylation1>  (152) 
0

>  <fr_Ndealkylation2>  (152) 
0

>  <fr_Nhpyrrole>  (152) 
0

>  <fr_SH>  (152) 
0

>  <fr_aldehyde>  (152) 
0

>  <fr_alkyl_carbamate>  (152) 
0

>  <fr_alkyl_halide>  (152) 
0

>  <fr_allylic_oxid>  (152) 
0

>  <fr_amide>  (152) 
0

>  <fr_amidine>  (152) 
0

>  <fr_aniline>  (152) 
1

>  <fr_aryl_methyl>  (152) 
1

>  <fr_azide>  (152) 
0

>  <fr_azo>  (152) 
0

>  <fr_barbitur>  (152) 
0

>  <fr_benzene>  (152) 
1

>  <fr_benzodiazepine>  (152) 
0

>  <fr_bicyclic>  (152) 
1

>  <fr_diazo>  (152) 
0

>  <fr_dihydropyridine>  (152) 
0

>  <fr_epoxide>  (152) 
0

>  <fr_ester>  (152) 
0

>  <fr_ether>  (152) 
1

>  <fr_furan>  (152) 
0

>  <fr_guanido>  (152) 
0

>  <fr_halogen>  (152) 
0

>  <fr_hdrzine>  (152) 
0

>  <fr_hdrzone>  (152) 
0

>  <fr_imidazole>  (152) 
1

>  <fr_imide>  (152) 
0

>  <fr_isocyan>  (152) 
0

>  <fr_isothiocyan>  (152) 
0

>  <fr_ketone>  (152) 
0

>  <fr_ketone_Topliss>  (152) 
0

>  <fr_lactam>  (152) 
0

>  <fr_lactone>  (152) 
0

>  <fr_methoxy>  (152) 
0

>  <fr_morpholine>  (152) 
0

>  <fr_nitrile>  (152) 
0

>  <fr_nitro>  (152) 
0

>  <fr_nitro_arom>  (152) 
0

>  <fr_nitro_arom_nonortho>  (152) 
0

>  <fr_nitroso>  (152) 
0

>  <fr_oxazole>  (152) 
0

>  <fr_oxime>  (152) 
0

>  <fr_para_hydroxylation>  (152) 
0

>  <fr_phenol>  (152) 
0

>  <fr_phenol_noOrthoHbond>  (152) 
0

>  <fr_phos_acid>  (152) 
0

>  <fr_phos_ester>  (152) 
0

>  <fr_piperdine>  (152) 
0

>  <fr_piperzine>  (152) 
0

>  <fr_priamide>  (152) 
0

>  <fr_prisulfonamd>  (152) 
0

>  <fr_pyridine>  (152) 
1

>  <fr_quatN>  (152) 
1

>  <fr_sulfide>  (152) 
0

>  <fr_sulfonamd>  (152) 
0

>  <fr_sulfone>  (152) 
0

>  <fr_term_acetylene>  (152) 
0

>  <fr_tetrazole>  (152) 
0

>  <fr_thiazole>  (152) 
0

>  <fr_thiocyan>  (152) 
0

>  <fr_thiophene>  (152) 
0

>  <fr_unbrch_alkane>  (152) 
0

>  <fr_urea>  (152) 
0

>  <NP-Likeness>  (152) 
-0.766942

$$$$
G96
     RDKit          3D

  0  0  0  0  0  0  0  0  0  0999 V3000
M  V30 BEGIN CTAB
M  V30 COUNTS 62 65 0 0 0
M  V30 BEGIN ATOM
M  V30 1 O 2.847523 -4.541758 0.128419 0
M  V30 2 C 2.484092 -4.228718 1.436020 0
M  V30 3 C 1.777152 -2.928251 1.331344 0
M  V30 4 C 1.191622 -1.873954 1.260112 0
M  V30 5 C 0.490109 -0.621439 1.196098 0
M  V30 6 C 1.187014 0.555111 1.240014 0
M  V30 7 N 2.498664 0.746099 1.340189 0
M  V30 8 C 2.819483 2.047835 1.355448 0
M  V30 9 C 4.201865 2.454144 1.462802 0
M  V30 10 N 5.237628 1.603464 1.505854 0
M  V30 11 O 6.374373 2.201108 1.579286 0
M  V30 12 N 6.166617 3.506062 1.590348 0
M  V30 13 C 4.814205 3.653171 1.518211 0
M  V30 14 N 4.348998 4.957844 1.538109 0
M  V30 15 N 1.639651 2.657376 1.257574 0
M  V30 16 C 1.380859 4.056667 1.178690 0
M  V30 17 C 1.268320 4.678825 2.549397 0
M  V30 18 C 0.608349 1.796523 1.185507 0
M  V30 19 C -0.758827 1.861377 1.080087 0
M  V30 20 C -1.490153 0.673777 1.033646 0
M  V30 21 O -2.863634 0.770187 0.927530 0
M  V30 22 C -3.719676 -0.332675 0.870872 0
M  V30 23 C -3.451027 -1.248959 -0.311398 0 CFG=1
M  V30 24 C -4.490529 -2.344889 -0.287067 0
M  V30 25 C -4.315808 -3.300803 -1.408831 0
M  V30 26 C -4.951169 -3.084421 -2.614146 0
M  V30 27 C -4.829006 -3.935650 -3.695172 0
M  V30 28 C -4.016930 -5.039233 -3.495633 0
M  V30 29 C -3.346342 -5.331416 -2.326933 0
M  V30 30 C -3.521852 -4.422888 -1.283627 0
M  V30 31 N -3.612802 -0.524494 -1.558035 0 CHG=1 VAL=4
M  V30 32 N -0.858340 -0.528355 1.091876 0
M  V30 33 C 3.691656 -4.082997 2.335488 0
M  V30 34 C 1.575951 -5.271935 2.052889 0
M  V30 35 H 2.762416 -5.522797 0.033621 0
M  V30 36 H 3.837591 5.796980 1.842789 0
M  V30 37 H 4.621281 5.677577 0.821659 0
M  V30 38 H 2.087910 4.557885 0.507111 0
M  V30 39 H 0.384445 4.243374 0.625717 0
M  V30 40 H 0.232482 4.566012 2.965961 0
M  V30 41 H 1.920334 4.172217 3.290134 0
M  V30 42 H 1.552503 5.760059 2.569621 0
M  V30 43 H -1.182374 2.855276 1.039453 0
M  V30 44 H -4.758510 0.046764 0.724569 0
M  V30 45 H -3.709880 -0.866961 1.819898 0
M  V30 46 H -2.430279 -1.648192 -0.313540 0
M  V30 47 H -4.378065 -2.909693 0.645085 0
M  V30 48 H -5.480418 -1.854978 -0.312850 0
M  V30 49 H -5.582889 -2.218087 -2.756825 0
M  V30 50 H -5.325096 -3.770746 -4.642774 0
M  V30 51 H -3.886441 -5.747289 -4.324170 0
M  V30 52 H -2.727385 -6.215524 -2.244603 0
M  V30 53 H -3.000034 -4.635580 -0.350374 0
M  V30 54 H -3.353054 -1.187398 -2.323451 0
M  V30 55 H -3.006805 0.315864 -1.588470 0
M  V30 56 H -4.630197 -0.292793 -1.683568 0
M  V30 57 H 4.618728 -3.875660 1.749892 0
M  V30 58 H 3.791516 -4.965728 2.972258 0
M  V30 59 H 3.542057 -3.172313 2.952780 0
M  V30 60 H 1.040226 -5.833267 1.244862 0
M  V30 61 H 0.766698 -4.735916 2.613821 0
M  V30 62 H 2.114023 -5.938058 2.740134 0
M  V30 END ATOM
M  V30 BEGIN BOND
M  V30 1 1 1 2
M  V30 2 1 2 3
M  V30 3 3 3 4
M  V30 4 1 4 5
M  V30 5 2 5 6
M  V30 6 1 6 7
M  V30 7 2 7 8
M  V30 8 1 8 9
M  V30 9 2 9 10
M  V30 10 1 10 11
M  V30 11 1 11 12
M  V30 12 2 12 13
M  V30 13 1 13 14
M  V30 14 1 8 15
M  V30 15 1 15 16
M  V30 16 1 16 17
M  V30 17 1 15 18
M  V30 18 2 18 19
M  V30 19 1 19 20
M  V30 20 1 20 21
M  V30 21 1 21 22
M  V30 22 1 22 23
M  V30 23 1 23 24
M  V30 24 1 24 25
M  V30 25 2 25 26
M  V30 26 1 26 27
M  V30 27 2 27 28
M  V30 28 1 28 29
M  V30 29 2 29 30
M  V30 30 1 23 31
M  V30 31 2 20 32
M  V30 32 1 2 33
M  V30 33 1 2 34
M  V30 34 1 32 5
M  V30 35 1 18 6
M  V30 36 1 30 25
M  V30 37 1 13 9
M  V30 38 1 1 35
M  V30 39 1 14 36
M  V30 40 1 14 37
M  V30 41 1 16 38
M  V30 42 1 16 39
M  V30 43 1 17 40
M  V30 44 1 17 41
M  V30 45 1 17 42
M  V30 46 1 19 43
M  V30 47 1 22 44
M  V30 48 1 22 45
M  V30 49 1 23 46 CFG=1
M  V30 50 1 24 47
M  V30 51 1 24 48
M  V30 52 1 26 49
M  V30 53 1 27 50
M  V30 54 1 28 51
M  V30 55 1 29 52
M  V30 56 1 30 53
M  V30 57 1 31 54
M  V30 58 1 31 55
M  V30 59 1 31 56
M  V30 60 1 33 57
M  V30 61 1 33 58
M  V30 62 1 33 59
M  V30 63 1 34 60
M  V30 64 1 34 61
M  V30 65 1 34 62
M  V30 END BOND
M  V30 END CTAB
M  END
>  <Dataset>  (153) 
PDB

>  <Ligand_Instance>  (153) 
3E8C_G96_C_351

>  <PDB_ID>  (153) 
3E8C

>  <Standardized_SMILES>  (153) 
[H]OC(C#CC1=C2N=C(C3=NON=C3N([H])[H])N(C([H])([H])C([H])([H])[H])C2=C([H])C(OC([H])([H])[C@@]([H])(C([H])([H])C2=C([H])C([H])=C([H])C([H])=C2[H])[N+]([H])([H])[H])=N1)(C([H])([H])[H])C([H])([H])[H]

>  <Name>  (153) 
4-[2-(4-amino-1,2,5-oxadiazol-3-yl)-6-{[(2R)-2-amino-3-phenylpropyl]oxy}-1-ethyl-1H-imidazo[4,5-c]pyridin-4-yl]-2-methylbut-3-yn-2-ol

>  <Pocket>  (153) 
A, B

>  <ATP_Site>  (153) 
1.0

>  <Peripheral>  (153) 
0.0

>  <Num_H_Atoms_ProtBoundConf>  (153) 
28.0

>  <Num_Resolved_Atoms>  (153) 
34.0

>  <Num_Not_Resolved_Atoms>  (153) 
0.0

>  <2D_Mol_H>  (153) 
<rdkit.Chem.rdchem.Mol object at 0x72a238da6dc0>

>  <MW>  (153) 
462.534

>  <HBA>  (153) 
9

>  <HBD>  (153) 
3

>  <LogP>  (153) 
1.4378

>  <NRB>  (153) 
13

>  <TPSA>  (153) 
152.75

>  <Num_Heavy_Atoms>  (153) 
34

>  <Ro5>  (153) 
[True, True, True, True, False, False]

>  <Ro5_Fulfilled>  (153) 
False

>  <Ro3>  (153) 
[False, False, True, True]

>  <Ro3_Fulfilled>  (153) 
False

>  <Fsp3>  (153) 
0.333333

>  <Fsp3_0.42>  (153) 
False

>  <Fsp3_0.45>  (153) 
False

>  <Stereogenic_Carbons>  (153) 
1

>  <C_Atoms>  (153) 
24

>  <FCStereo>  (153) 
0.041667

>  <SPS>  (153) 
421

>  <nSPS>  (153) 
12.382353

>  <PBF>  (153) 
1.01544

>  <PBF_0.6>  (153) 
True

>  <nPBF>  (153) 
0.029866

>  <nPBF_0.016>  (153) 
True

>  <PMI1>  (153) 
3048.249105

>  <PMI2>  (153) 
8759.678263

>  <PMI3>  (153) 
10911.562769

>  <NPR1>  (153) 
0.27936

>  <NPR2>  (153) 
0.802789

>  <Sum_NPR>  (153) 
1.082148

>  <Sum_NPR_1.07>  (153) 
True

>  <Sum_NPR_1.2>  (153) 
False

>  <MaxAbsEStateIndex>  (153) 
10.115531

>  <MaxEStateIndex>  (153) 
10.115531

>  <MinAbsEStateIndex>  (153) 
0.026348

>  <MinEStateIndex>  (153) 
-1.198813

>  <qed>  (153) 
0.34881

>  <MolWt>  (153) 
462.534

>  <HeavyAtomMolWt>  (153) 
434.31

>  <ExactMolWt>  (153) 
462.224814

>  <NumValenceElectrons>  (153) 
176

>  <NumRadicalElectrons>  (153) 
0

>  <MaxPartialCharge>  (153) 
0.216405

>  <MinPartialCharge>  (153) 
-0.471235

>  <MaxAbsPartialCharge>  (153) 
0.471235

>  <MinAbsPartialCharge>  (153) 
0.216405

>  <FpDensityMorgan1>  (153) 
1.235294

>  <FpDensityMorgan2>  (153) 
2.0

>  <FpDensityMorgan3>  (153) 
2.647059

>  <BCUT2D_MWHI>  (153) 
16.564585

>  <BCUT2D_MWLOW>  (153) 
10.079959

>  <BCUT2D_CHGHI>  (153) 
2.217902

>  <BCUT2D_CHGLO>  (153) 
-2.114571

>  <BCUT2D_LOGPHI>  (153) 
2.294627

>  <BCUT2D_LOGPLOW>  (153) 
-2.641859

>  <BCUT2D_MRHI>  (153) 
5.857768

>  <BCUT2D_MRLOW>  (153) 
-0.422797

>  <AvgIpc>  (153) 
3.38418

>  <BalabanJ>  (153) 
1.718732

>  <BertzCT>  (153) 
1344.139623

>  <Chi0>  (153) 
24.294318

>  <Chi0n>  (153) 
19.447007

>  <Chi0v>  (153) 
19.447007

>  <Chi1>  (153) 
16.247333

>  <Chi1n>  (153) 
10.998751

>  <Chi1v>  (153) 
10.998751

>  <Chi2n>  (153) 
8.530342

>  <Chi2v>  (153) 
8.530342

>  <Chi3n>  (153) 
5.076144

>  <Chi3v>  (153) 
5.076144

>  <Chi4n>  (153) 
3.532694

>  <Chi4v>  (153) 
3.532694

>  <HallKierAlpha>  (153) 
-3.94

>  <Ipc>  (153) 
47023446.06636

>  <Kappa1>  (153) 
23.226004

>  <Kappa2>  (153) 
9.506395

>  <Kappa3>  (153) 
5.166963

>  <LabuteASA>  (153) 
196.458229

>  <PEOE_VSA1>  (153) 
25.877825

>  <PEOE_VSA10>  (153) 
29.460402

>  <PEOE_VSA11>  (153) 
17.336195

>  <PEOE_VSA12>  (153) 
5.879988

>  <PEOE_VSA13>  (153) 
0.0

>  <PEOE_VSA14>  (153) 
0.0

>  <PEOE_VSA2>  (153) 
0.0

>  <PEOE_VSA3>  (153) 
14.596996

>  <PEOE_VSA4>  (153) 
0.0

>  <PEOE_VSA5>  (153) 
0.0

>  <PEOE_VSA6>  (153) 
36.25227

>  <PEOE_VSA7>  (153) 
42.568424

>  <PEOE_VSA8>  (153) 
19.031945

>  <PEOE_VSA9>  (153) 
5.516701

>  <SMR_VSA1>  (153) 
20.206097

>  <SMR_VSA10>  (153) 
16.851264

>  <SMR_VSA2>  (153) 
0.0

>  <SMR_VSA3>  (153) 
24.848383

>  <SMR_VSA4>  (153) 
0.0

>  <SMR_VSA5>  (153) 
45.379681

>  <SMR_VSA6>  (153) 
12.340549

>  <SMR_VSA7>  (153) 
47.655582

>  <SMR_VSA8>  (153) 
0.0

>  <SMR_VSA9>  (153) 
29.239189

>  <SlogP_VSA1>  (153) 
16.204198

>  <SlogP_VSA10>  (153) 
5.817863

>  <SlogP_VSA11>  (153) 
5.879988

>  <SlogP_VSA12>  (153) 
0.0

>  <SlogP_VSA2>  (153) 
48.204684

>  <SlogP_VSA3>  (153) 
12.965578

>  <SlogP_VSA4>  (153) 
11.840869

>  <SlogP_VSA5>  (153) 
32.028591

>  <SlogP_VSA6>  (153) 
41.027241

>  <SlogP_VSA7>  (153) 
0.0

>  <SlogP_VSA8>  (153) 
22.551734

>  <SlogP_VSA9>  (153) 
0.0

>  <EState_VSA1>  (153) 
5.601051

>  <EState_VSA10>  (153) 
5.106527

>  <EState_VSA11>  (153) 
0.0

>  <EState_VSA2>  (153) 
11.859704

>  <EState_VSA3>  (153) 
41.760588

>  <EState_VSA4>  (153) 
11.937522

>  <EState_VSA5>  (153) 
5.563451

>  <EState_VSA6>  (153) 
13.847474

>  <EState_VSA7>  (153) 
35.756305

>  <EState_VSA8>  (153) 
49.988554

>  <EState_VSA9>  (153) 
15.099569

>  <VSA_EState1>  (153) 
12.713547

>  <VSA_EState10>  (153) 
0.0

>  <VSA_EState2>  (153) 
9.259729

>  <VSA_EState3>  (153) 
17.672196

>  <VSA_EState4>  (153) 
12.120692

>  <VSA_EState5>  (153) 
6.764835

>  <VSA_EState6>  (153) 
11.972152

>  <VSA_EState7>  (153) 
0.781672

>  <VSA_EState8>  (153) 
6.131844

>  <VSA_EState9>  (153) 
0.0

>  <FractionCSP3>  (153) 
0.333333

>  <HeavyAtomCount>  (153) 
34

>  <NHOHCount>  (153) 
6

>  <NOCount>  (153) 
10

>  <NumAliphaticCarbocycles>  (153) 
0

>  <NumAliphaticHeterocycles>  (153) 
0

>  <NumAliphaticRings>  (153) 
0

>  <NumAromaticCarbocycles>  (153) 
1

>  <NumAromaticHeterocycles>  (153) 
3

>  <NAR>  (153) 
4

>  <NumHAcceptors>  (153) 
9

>  <NumHDonors>  (153) 
3

>  <NumHeteroatoms>  (153) 
10

>  <NumRotatableBonds>  (153) 
7

>  <NumSaturatedCarbocycles>  (153) 
0

>  <NumSaturatedHeterocycles>  (153) 
0

>  <NumSaturatedRings>  (153) 
0

>  <RingCount>  (153) 
4

>  <MolLogP>  (153) 
1.4378

>  <MolMR>  (153) 
126.3993

>  <fr_Al_COO>  (153) 
0

>  <fr_Al_OH>  (153) 
1

>  <fr_Al_OH_noTert>  (153) 
0

>  <fr_ArN>  (153) 
1

>  <fr_Ar_COO>  (153) 
0

>  <fr_Ar_N>  (153) 
5

>  <fr_Ar_NH>  (153) 
0

>  <fr_Ar_OH>  (153) 
0

>  <fr_COO>  (153) 
0

>  <fr_COO2>  (153) 
0

>  <fr_C_O>  (153) 
0

>  <fr_C_O_noCOO>  (153) 
0

>  <fr_C_S>  (153) 
0

>  <fr_HOCCN>  (153) 
0

>  <fr_Imine>  (153) 
0

>  <fr_NH0>  (153) 
5

>  <fr_NH1>  (153) 
0

>  <fr_NH2>  (153) 
1

>  <fr_N_O>  (153) 
0

>  <fr_Ndealkylation1>  (153) 
0

>  <fr_Ndealkylation2>  (153) 
0

>  <fr_Nhpyrrole>  (153) 
0

>  <fr_SH>  (153) 
0

>  <fr_aldehyde>  (153) 
0

>  <fr_alkyl_carbamate>  (153) 
0

>  <fr_alkyl_halide>  (153) 
0

>  <fr_allylic_oxid>  (153) 
0

>  <fr_amide>  (153) 
0

>  <fr_amidine>  (153) 
0

>  <fr_aniline>  (153) 
1

>  <fr_aryl_methyl>  (153) 
1

>  <fr_azide>  (153) 
0

>  <fr_azo>  (153) 
0

>  <fr_barbitur>  (153) 
0

>  <fr_benzene>  (153) 
1

>  <fr_benzodiazepine>  (153) 
0

>  <fr_bicyclic>  (153) 
1

>  <fr_diazo>  (153) 
0

>  <fr_dihydropyridine>  (153) 
0

>  <fr_epoxide>  (153) 
0

>  <fr_ester>  (153) 
0

>  <fr_ether>  (153) 
1

>  <fr_furan>  (153) 
0

>  <fr_guanido>  (153) 
0

>  <fr_halogen>  (153) 
0

>  <fr_hdrzine>  (153) 
0

>  <fr_hdrzone>  (153) 
0

>  <fr_imidazole>  (153) 
1

>  <fr_imide>  (153) 
0

>  <fr_isocyan>  (153) 
0

>  <fr_isothiocyan>  (153) 
0

>  <fr_ketone>  (153) 
0

>  <fr_ketone_Topliss>  (153) 
0

>  <fr_lactam>  (153) 
0

>  <fr_lactone>  (153) 
0

>  <fr_methoxy>  (153) 
0

>  <fr_morpholine>  (153) 
0

>  <fr_nitrile>  (153) 
0

>  <fr_nitro>  (153) 
0

>  <fr_nitro_arom>  (153) 
0

>  <fr_nitro_arom_nonortho>  (153) 
0

>  <fr_nitroso>  (153) 
0

>  <fr_oxazole>  (153) 
0

>  <fr_oxime>  (153) 
0

>  <fr_para_hydroxylation>  (153) 
0

>  <fr_phenol>  (153) 
0

>  <fr_phenol_noOrthoHbond>  (153) 
0

>  <fr_phos_acid>  (153) 
0

>  <fr_phos_ester>  (153) 
0

>  <fr_piperdine>  (153) 
0

>  <fr_piperzine>  (153) 
0

>  <fr_priamide>  (153) 
0

>  <fr_prisulfonamd>  (153) 
0

>  <fr_pyridine>  (153) 
1

>  <fr_quatN>  (153) 
1

>  <fr_sulfide>  (153) 
0

>  <fr_sulfonamd>  (153) 
0

>  <fr_sulfone>  (153) 
0

>  <fr_term_acetylene>  (153) 
0

>  <fr_tetrazole>  (153) 
0

>  <fr_thiazole>  (153) 
0

>  <fr_thiocyan>  (153) 
0

>  <fr_thiophene>  (153) 
0

>  <fr_unbrch_alkane>  (153) 
0

>  <fr_urea>  (153) 
0

>  <NP-Likeness>  (153) 
-0.766942

$$$$
G96
     RDKit          3D

  0  0  0  0  0  0  0  0  0  0999 V3000
M  V30 BEGIN CTAB
M  V30 COUNTS 62 65 0 0 0
M  V30 BEGIN ATOM
M  V30 1 O 2.847523 -4.541758 0.128419 0
M  V30 2 C 2.484092 -4.228718 1.436020 0
M  V30 3 C 1.777152 -2.928251 1.331344 0
M  V30 4 C 1.191622 -1.873954 1.260112 0
M  V30 5 C 0.490109 -0.621439 1.196098 0
M  V30 6 C 1.187014 0.555111 1.240014 0
M  V30 7 N 2.498664 0.746099 1.340189 0
M  V30 8 C 2.819483 2.047835 1.355448 0
M  V30 9 C 4.201865 2.454144 1.462802 0
M  V30 10 N 5.237628 1.603464 1.505854 0
M  V30 11 O 6.374373 2.201108 1.579286 0
M  V30 12 N 6.166617 3.506062 1.590348 0
M  V30 13 C 4.814205 3.653171 1.518211 0
M  V30 14 N 4.348998 4.957844 1.538109 0
M  V30 15 N 1.639651 2.657376 1.257574 0
M  V30 16 C 1.380859 4.056667 1.178690 0
M  V30 17 C 1.268320 4.678825 2.549397 0
M  V30 18 C 0.608349 1.796523 1.185507 0
M  V30 19 C -0.758827 1.861377 1.080087 0
M  V30 20 C -1.490153 0.673777 1.033646 0
M  V30 21 O -2.863634 0.770187 0.927530 0
M  V30 22 C -3.719676 -0.332675 0.870872 0
M  V30 23 C -3.451027 -1.248959 -0.311398 0 CFG=1
M  V30 24 C -4.490529 -2.344889 -0.287067 0
M  V30 25 C -4.315808 -3.300803 -1.408831 0
M  V30 26 C -4.951169 -3.084421 -2.614146 0
M  V30 27 C -4.829006 -3.935650 -3.695172 0
M  V30 28 C -4.016930 -5.039233 -3.495633 0
M  V30 29 C -3.346342 -5.331416 -2.326933 0
M  V30 30 C -3.521852 -4.422888 -1.283627 0
M  V30 31 N -3.612802 -0.524494 -1.558035 0 CHG=1 VAL=4
M  V30 32 N -0.858340 -0.528355 1.091876 0
M  V30 33 C 3.691656 -4.082997 2.335488 0
M  V30 34 C 1.575951 -5.271935 2.052889 0
M  V30 35 H 2.762416 -5.522797 0.033621 0
M  V30 36 H 3.837591 5.796980 1.842789 0
M  V30 37 H 4.621281 5.677577 0.821659 0
M  V30 38 H 2.087910 4.557885 0.507111 0
M  V30 39 H 0.384445 4.243374 0.625717 0
M  V30 40 H 0.232482 4.566012 2.965961 0
M  V30 41 H 1.920334 4.172217 3.290134 0
M  V30 42 H 1.552503 5.760059 2.569621 0
M  V30 43 H -1.182374 2.855276 1.039453 0
M  V30 44 H -4.758510 0.046764 0.724569 0
M  V30 45 H -3.709880 -0.866961 1.819898 0
M  V30 46 H -2.430279 -1.648192 -0.313540 0
M  V30 47 H -4.378065 -2.909693 0.645085 0
M  V30 48 H -5.480418 -1.854978 -0.312850 0
M  V30 49 H -5.582889 -2.218087 -2.756825 0
M  V30 50 H -5.325096 -3.770746 -4.642774 0
M  V30 51 H -3.886441 -5.747289 -4.324170 0
M  V30 52 H -2.727385 -6.215524 -2.244603 0
M  V30 53 H -3.000034 -4.635580 -0.350374 0
M  V30 54 H -3.353054 -1.187398 -2.323451 0
M  V30 55 H -3.006805 0.315864 -1.588470 0
M  V30 56 H -4.630197 -0.292793 -1.683568 0
M  V30 57 H 4.618728 -3.875660 1.749892 0
M  V30 58 H 3.791516 -4.965728 2.972258 0
M  V30 59 H 3.542057 -3.172313 2.952780 0
M  V30 60 H 1.040226 -5.833267 1.244862 0
M  V30 61 H 0.766698 -4.735916 2.613821 0
M  V30 62 H 2.114023 -5.938058 2.740134 0
M  V30 END ATOM
M  V30 BEGIN BOND
M  V30 1 1 1 2
M  V30 2 1 2 3
M  V30 3 3 3 4
M  V30 4 1 4 5
M  V30 5 2 5 6
M  V30 6 1 6 7
M  V30 7 2 7 8
M  V30 8 1 8 9
M  V30 9 2 9 10
M  V30 10 1 10 11
M  V30 11 1 11 12
M  V30 12 2 12 13
M  V30 13 1 13 14
M  V30 14 1 8 15
M  V30 15 1 15 16
M  V30 16 1 16 17
M  V30 17 1 15 18
M  V30 18 2 18 19
M  V30 19 1 19 20
M  V30 20 1 20 21
M  V30 21 1 21 22
M  V30 22 1 22 23
M  V30 23 1 23 24
M  V30 24 1 24 25
M  V30 25 2 25 26
M  V30 26 1 26 27
M  V30 27 2 27 28
M  V30 28 1 28 29
M  V30 29 2 29 30
M  V30 30 1 23 31
M  V30 31 2 20 32
M  V30 32 1 2 33
M  V30 33 1 2 34
M  V30 34 1 32 5
M  V30 35 1 18 6
M  V30 36 1 30 25
M  V30 37 1 13 9
M  V30 38 1 1 35
M  V30 39 1 14 36
M  V30 40 1 14 37
M  V30 41 1 16 38
M  V30 42 1 16 39
M  V30 43 1 17 40
M  V30 44 1 17 41
M  V30 45 1 17 42
M  V30 46 1 19 43
M  V30 47 1 22 44
M  V30 48 1 22 45
M  V30 49 1 23 46 CFG=1
M  V30 50 1 24 47
M  V30 51 1 24 48
M  V30 52 1 26 49
M  V30 53 1 27 50
M  V30 54 1 28 51
M  V30 55 1 29 52
M  V30 56 1 30 53
M  V30 57 1 31 54
M  V30 58 1 31 55
M  V30 59 1 31 56
M  V30 60 1 33 57
M  V30 61 1 33 58
M  V30 62 1 33 59
M  V30 63 1 34 60
M  V30 64 1 34 61
M  V30 65 1 34 62
M  V30 END BOND
M  V30 END CTAB
M  END
>  <Dataset>  (154) 
PDB

>  <Ligand_Instance>  (154) 
3E8C_G96_D_351

>  <PDB_ID>  (154) 
3E8C

>  <Standardized_SMILES>  (154) 
[H]OC(C#CC1=C2N=C(C3=NON=C3N([H])[H])N(C([H])([H])C([H])([H])[H])C2=C([H])C(OC([H])([H])[C@@]([H])(C([H])([H])C2=C([H])C([H])=C([H])C([H])=C2[H])[N+]([H])([H])[H])=N1)(C([H])([H])[H])C([H])([H])[H]

>  <Name>  (154) 
4-[2-(4-amino-1,2,5-oxadiazol-3-yl)-6-{[(2R)-2-amino-3-phenylpropyl]oxy}-1-ethyl-1H-imidazo[4,5-c]pyridin-4-yl]-2-methylbut-3-yn-2-ol

>  <Pocket>  (154) 
A, B

>  <ATP_Site>  (154) 
1.0

>  <Peripheral>  (154) 
0.0

>  <Num_H_Atoms_ProtBoundConf>  (154) 
28.0

>  <Num_Resolved_Atoms>  (154) 
34.0

>  <Num_Not_Resolved_Atoms>  (154) 
0.0

>  <2D_Mol_H>  (154) 
<rdkit.Chem.rdchem.Mol object at 0x72a238da6ea0>

>  <MW>  (154) 
462.534

>  <HBA>  (154) 
9

>  <HBD>  (154) 
3

>  <LogP>  (154) 
1.4378

>  <NRB>  (154) 
13

>  <TPSA>  (154) 
152.75

>  <Num_Heavy_Atoms>  (154) 
34

>  <Ro5>  (154) 
[True, True, True, True, False, False]

>  <Ro5_Fulfilled>  (154) 
False

>  <Ro3>  (154) 
[False, False, True, True]

>  <Ro3_Fulfilled>  (154) 
False

>  <Fsp3>  (154) 
0.333333

>  <Fsp3_0.42>  (154) 
False

>  <Fsp3_0.45>  (154) 
False

>  <Stereogenic_Carbons>  (154) 
1

>  <C_Atoms>  (154) 
24

>  <FCStereo>  (154) 
0.041667

>  <SPS>  (154) 
421

>  <nSPS>  (154) 
12.382353

>  <PBF>  (154) 
1.01544

>  <PBF_0.6>  (154) 
True

>  <nPBF>  (154) 
0.029866

>  <nPBF_0.016>  (154) 
True

>  <PMI1>  (154) 
3048.249105

>  <PMI2>  (154) 
8759.678263

>  <PMI3>  (154) 
10911.562769

>  <NPR1>  (154) 
0.27936

>  <NPR2>  (154) 
0.802789

>  <Sum_NPR>  (154) 
1.082148

>  <Sum_NPR_1.07>  (154) 
True

>  <Sum_NPR_1.2>  (154) 
False

>  <MaxAbsEStateIndex>  (154) 
10.115531

>  <MaxEStateIndex>  (154) 
10.115531

>  <MinAbsEStateIndex>  (154) 
0.026348

>  <MinEStateIndex>  (154) 
-1.198813

>  <qed>  (154) 
0.34881

>  <MolWt>  (154) 
462.534

>  <HeavyAtomMolWt>  (154) 
434.31

>  <ExactMolWt>  (154) 
462.224814

>  <NumValenceElectrons>  (154) 
176

>  <NumRadicalElectrons>  (154) 
0

>  <MaxPartialCharge>  (154) 
0.216405

>  <MinPartialCharge>  (154) 
-0.471235

>  <MaxAbsPartialCharge>  (154) 
0.471235

>  <MinAbsPartialCharge>  (154) 
0.216405

>  <FpDensityMorgan1>  (154) 
1.235294

>  <FpDensityMorgan2>  (154) 
2.0

>  <FpDensityMorgan3>  (154) 
2.647059

>  <BCUT2D_MWHI>  (154) 
16.564585

>  <BCUT2D_MWLOW>  (154) 
10.079959

>  <BCUT2D_CHGHI>  (154) 
2.217902

>  <BCUT2D_CHGLO>  (154) 
-2.114571

>  <BCUT2D_LOGPHI>  (154) 
2.294627

>  <BCUT2D_LOGPLOW>  (154) 
-2.641859

>  <BCUT2D_MRHI>  (154) 
5.857768

>  <BCUT2D_MRLOW>  (154) 
-0.422797

>  <AvgIpc>  (154) 
3.38418

>  <BalabanJ>  (154) 
1.718732

>  <BertzCT>  (154) 
1344.139623

>  <Chi0>  (154) 
24.294318

>  <Chi0n>  (154) 
19.447007

>  <Chi0v>  (154) 
19.447007

>  <Chi1>  (154) 
16.247333

>  <Chi1n>  (154) 
10.998751

>  <Chi1v>  (154) 
10.998751

>  <Chi2n>  (154) 
8.530342

>  <Chi2v>  (154) 
8.530342

>  <Chi3n>  (154) 
5.076144

>  <Chi3v>  (154) 
5.076144

>  <Chi4n>  (154) 
3.532694

>  <Chi4v>  (154) 
3.532694

>  <HallKierAlpha>  (154) 
-3.94

>  <Ipc>  (154) 
47023446.06636

>  <Kappa1>  (154) 
23.226004

>  <Kappa2>  (154) 
9.506395

>  <Kappa3>  (154) 
5.166963

>  <LabuteASA>  (154) 
196.458229

>  <PEOE_VSA1>  (154) 
25.877825

>  <PEOE_VSA10>  (154) 
29.460402

>  <PEOE_VSA11>  (154) 
17.336195

>  <PEOE_VSA12>  (154) 
5.879988

>  <PEOE_VSA13>  (154) 
0.0

>  <PEOE_VSA14>  (154) 
0.0

>  <PEOE_VSA2>  (154) 
0.0

>  <PEOE_VSA3>  (154) 
14.596996

>  <PEOE_VSA4>  (154) 
0.0

>  <PEOE_VSA5>  (154) 
0.0

>  <PEOE_VSA6>  (154) 
36.25227

>  <PEOE_VSA7>  (154) 
42.568424

>  <PEOE_VSA8>  (154) 
19.031945

>  <PEOE_VSA9>  (154) 
5.516701

>  <SMR_VSA1>  (154) 
20.206097

>  <SMR_VSA10>  (154) 
16.851264

>  <SMR_VSA2>  (154) 
0.0

>  <SMR_VSA3>  (154) 
24.848383

>  <SMR_VSA4>  (154) 
0.0

>  <SMR_VSA5>  (154) 
45.379681

>  <SMR_VSA6>  (154) 
12.340549

>  <SMR_VSA7>  (154) 
47.655582

>  <SMR_VSA8>  (154) 
0.0

>  <SMR_VSA9>  (154) 
29.239189

>  <SlogP_VSA1>  (154) 
16.204198

>  <SlogP_VSA10>  (154) 
5.817863

>  <SlogP_VSA11>  (154) 
5.879988

>  <SlogP_VSA12>  (154) 
0.0

>  <SlogP_VSA2>  (154) 
48.204684

>  <SlogP_VSA3>  (154) 
12.965578

>  <SlogP_VSA4>  (154) 
11.840869

>  <SlogP_VSA5>  (154) 
32.028591

>  <SlogP_VSA6>  (154) 
41.027241

>  <SlogP_VSA7>  (154) 
0.0

>  <SlogP_VSA8>  (154) 
22.551734

>  <SlogP_VSA9>  (154) 
0.0

>  <EState_VSA1>  (154) 
5.601051

>  <EState_VSA10>  (154) 
5.106527

>  <EState_VSA11>  (154) 
0.0

>  <EState_VSA2>  (154) 
11.859704

>  <EState_VSA3>  (154) 
41.760588

>  <EState_VSA4>  (154) 
11.937522

>  <EState_VSA5>  (154) 
5.563451

>  <EState_VSA6>  (154) 
13.847474

>  <EState_VSA7>  (154) 
35.756305

>  <EState_VSA8>  (154) 
49.988554

>  <EState_VSA9>  (154) 
15.099569

>  <VSA_EState1>  (154) 
12.713547

>  <VSA_EState10>  (154) 
0.0

>  <VSA_EState2>  (154) 
9.259729

>  <VSA_EState3>  (154) 
17.672196

>  <VSA_EState4>  (154) 
12.120692

>  <VSA_EState5>  (154) 
6.764835

>  <VSA_EState6>  (154) 
11.972152

>  <VSA_EState7>  (154) 
0.781672

>  <VSA_EState8>  (154) 
6.131844

>  <VSA_EState9>  (154) 
0.0

>  <FractionCSP3>  (154) 
0.333333

>  <HeavyAtomCount>  (154) 
34

>  <NHOHCount>  (154) 
6

>  <NOCount>  (154) 
10

>  <NumAliphaticCarbocycles>  (154) 
0

>  <NumAliphaticHeterocycles>  (154) 
0

>  <NumAliphaticRings>  (154) 
0

>  <NumAromaticCarbocycles>  (154) 
1

>  <NumAromaticHeterocycles>  (154) 
3

>  <NAR>  (154) 
4

>  <NumHAcceptors>  (154) 
9

>  <NumHDonors>  (154) 
3

>  <NumHeteroatoms>  (154) 
10

>  <NumRotatableBonds>  (154) 
7

>  <NumSaturatedCarbocycles>  (154) 
0

>  <NumSaturatedHeterocycles>  (154) 
0

>  <NumSaturatedRings>  (154) 
0

>  <RingCount>  (154) 
4

>  <MolLogP>  (154) 
1.4378

>  <MolMR>  (154) 
126.3993

>  <fr_Al_COO>  (154) 
0

>  <fr_Al_OH>  (154) 
1

>  <fr_Al_OH_noTert>  (154) 
0

>  <fr_ArN>  (154) 
1

>  <fr_Ar_COO>  (154) 
0

>  <fr_Ar_N>  (154) 
5

>  <fr_Ar_NH>  (154) 
0

>  <fr_Ar_OH>  (154) 
0

>  <fr_COO>  (154) 
0

>  <fr_COO2>  (154) 
0

>  <fr_C_O>  (154) 
0

>  <fr_C_O_noCOO>  (154) 
0

>  <fr_C_S>  (154) 
0

>  <fr_HOCCN>  (154) 
0

>  <fr_Imine>  (154) 
0

>  <fr_NH0>  (154) 
5

>  <fr_NH1>  (154) 
0

>  <fr_NH2>  (154) 
1

>  <fr_N_O>  (154) 
0

>  <fr_Ndealkylation1>  (154) 
0

>  <fr_Ndealkylation2>  (154) 
0

>  <fr_Nhpyrrole>  (154) 
0

>  <fr_SH>  (154) 
0

>  <fr_aldehyde>  (154) 
0

>  <fr_alkyl_carbamate>  (154) 
0

>  <fr_alkyl_halide>  (154) 
0

>  <fr_allylic_oxid>  (154) 
0

>  <fr_amide>  (154) 
0

>  <fr_amidine>  (154) 
0

>  <fr_aniline>  (154) 
1

>  <fr_aryl_methyl>  (154) 
1

>  <fr_azide>  (154) 
0

>  <fr_azo>  (154) 
0

>  <fr_barbitur>  (154) 
0

>  <fr_benzene>  (154) 
1

>  <fr_benzodiazepine>  (154) 
0

>  <fr_bicyclic>  (154) 
1

>  <fr_diazo>  (154) 
0

>  <fr_dihydropyridine>  (154) 
0

>  <fr_epoxide>  (154) 
0

>  <fr_ester>  (154) 
0

>  <fr_ether>  (154) 
1

>  <fr_furan>  (154) 
0

>  <fr_guanido>  (154) 
0

>  <fr_halogen>  (154) 
0

>  <fr_hdrzine>  (154) 
0

>  <fr_hdrzone>  (154) 
0

>  <fr_imidazole>  (154) 
1

>  <fr_imide>  (154) 
0

>  <fr_isocyan>  (154) 
0

>  <fr_isothiocyan>  (154) 
0

>  <fr_ketone>  (154) 
0

>  <fr_ketone_Topliss>  (154) 
0

>  <fr_lactam>  (154) 
0

>  <fr_lactone>  (154) 
0

>  <fr_methoxy>  (154) 
0

>  <fr_morpholine>  (154) 
0

>  <fr_nitrile>  (154) 
0

>  <fr_nitro>  (154) 
0

>  <fr_nitro_arom>  (154) 
0

>  <fr_nitro_arom_nonortho>  (154) 
0

>  <fr_nitroso>  (154) 
0

>  <fr_oxazole>  (154) 
0

>  <fr_oxime>  (154) 
0

>  <fr_para_hydroxylation>  (154) 
0

>  <fr_phenol>  (154) 
0

>  <fr_phenol_noOrthoHbond>  (154) 
0

>  <fr_phos_acid>  (154) 
0

>  <fr_phos_ester>  (154) 
0

>  <fr_piperdine>  (154) 
0

>  <fr_piperzine>  (154) 
0

>  <fr_priamide>  (154) 
0

>  <fr_prisulfonamd>  (154) 
0

>  <fr_pyridine>  (154) 
1

>  <fr_quatN>  (154) 
1

>  <fr_sulfide>  (154) 
0

>  <fr_sulfonamd>  (154) 
0

>  <fr_sulfone>  (154) 
0

>  <fr_term_acetylene>  (154) 
0

>  <fr_tetrazole>  (154) 
0

>  <fr_thiazole>  (154) 
0

>  <fr_thiocyan>  (154) 
0

>  <fr_thiophene>  (154) 
0

>  <fr_unbrch_alkane>  (154) 
0

>  <fr_urea>  (154) 
0

>  <NP-Likeness>  (154) 
-0.766942

$$$$
G96
     RDKit          3D

  0  0  0  0  0  0  0  0  0  0999 V3000
M  V30 BEGIN CTAB
M  V30 COUNTS 62 65 0 0 0
M  V30 BEGIN ATOM
M  V30 1 O 2.847523 -4.541758 0.128419 0
M  V30 2 C 2.484092 -4.228718 1.436020 0
M  V30 3 C 1.777152 -2.928251 1.331344 0
M  V30 4 C 1.191622 -1.873954 1.260112 0
M  V30 5 C 0.490109 -0.621439 1.196098 0
M  V30 6 C 1.187014 0.555111 1.240014 0
M  V30 7 N 2.498664 0.746099 1.340189 0
M  V30 8 C 2.819483 2.047835 1.355448 0
M  V30 9 C 4.201865 2.454144 1.462802 0
M  V30 10 N 5.237628 1.603464 1.505854 0
M  V30 11 O 6.374373 2.201108 1.579286 0
M  V30 12 N 6.166617 3.506062 1.590348 0
M  V30 13 C 4.814205 3.653171 1.518211 0
M  V30 14 N 4.348998 4.957844 1.538109 0
M  V30 15 N 1.639651 2.657376 1.257574 0
M  V30 16 C 1.380859 4.056667 1.178690 0
M  V30 17 C 1.268320 4.678825 2.549397 0
M  V30 18 C 0.608349 1.796523 1.185507 0
M  V30 19 C -0.758827 1.861377 1.080087 0
M  V30 20 C -1.490153 0.673777 1.033646 0
M  V30 21 O -2.863634 0.770187 0.927530 0
M  V30 22 C -3.719676 -0.332675 0.870872 0
M  V30 23 C -3.451027 -1.248959 -0.311398 0 CFG=1
M  V30 24 C -4.490529 -2.344889 -0.287067 0
M  V30 25 C -4.315808 -3.300803 -1.408831 0
M  V30 26 C -4.951169 -3.084421 -2.614146 0
M  V30 27 C -4.829006 -3.935650 -3.695172 0
M  V30 28 C -4.016930 -5.039233 -3.495633 0
M  V30 29 C -3.346342 -5.331416 -2.326933 0
M  V30 30 C -3.521852 -4.422888 -1.283627 0
M  V30 31 N -3.612802 -0.524494 -1.558035 0 CHG=1 VAL=4
M  V30 32 N -0.858340 -0.528355 1.091876 0
M  V30 33 C 3.691656 -4.082997 2.335488 0
M  V30 34 C 1.575951 -5.271935 2.052889 0
M  V30 35 H 2.762416 -5.522797 0.033621 0
M  V30 36 H 3.837591 5.796980 1.842789 0
M  V30 37 H 4.621281 5.677577 0.821659 0
M  V30 38 H 2.087910 4.557885 0.507111 0
M  V30 39 H 0.384445 4.243374 0.625717 0
M  V30 40 H 0.232482 4.566012 2.965961 0
M  V30 41 H 1.920334 4.172217 3.290134 0
M  V30 42 H 1.552503 5.760059 2.569621 0
M  V30 43 H -1.182374 2.855276 1.039453 0
M  V30 44 H -4.758510 0.046764 0.724569 0
M  V30 45 H -3.709880 -0.866961 1.819898 0
M  V30 46 H -2.430279 -1.648192 -0.313540 0
M  V30 47 H -4.378065 -2.909693 0.645085 0
M  V30 48 H -5.480418 -1.854978 -0.312850 0
M  V30 49 H -5.582889 -2.218087 -2.756825 0
M  V30 50 H -5.325096 -3.770746 -4.642774 0
M  V30 51 H -3.886441 -5.747289 -4.324170 0
M  V30 52 H -2.727385 -6.215524 -2.244603 0
M  V30 53 H -3.000034 -4.635580 -0.350374 0
M  V30 54 H -3.353054 -1.187398 -2.323451 0
M  V30 55 H -3.006805 0.315864 -1.588470 0
M  V30 56 H -4.630197 -0.292793 -1.683568 0
M  V30 57 H 4.618728 -3.875660 1.749892 0
M  V30 58 H 3.791516 -4.965728 2.972258 0
M  V30 59 H 3.542057 -3.172313 2.952780 0
M  V30 60 H 1.040226 -5.833267 1.244862 0
M  V30 61 H 0.766698 -4.735916 2.613821 0
M  V30 62 H 2.114023 -5.938058 2.740134 0
M  V30 END ATOM
M  V30 BEGIN BOND
M  V30 1 1 1 2
M  V30 2 1 2 3
M  V30 3 3 3 4
M  V30 4 1 4 5
M  V30 5 2 5 6
M  V30 6 1 6 7
M  V30 7 2 7 8
M  V30 8 1 8 9
M  V30 9 2 9 10
M  V30 10 1 10 11
M  V30 11 1 11 12
M  V30 12 2 12 13
M  V30 13 1 13 14
M  V30 14 1 8 15
M  V30 15 1 15 16
M  V30 16 1 16 17
M  V30 17 1 15 18
M  V30 18 2 18 19
M  V30 19 1 19 20
M  V30 20 1 20 21
M  V30 21 1 21 22
M  V30 22 1 22 23
M  V30 23 1 23 24
M  V30 24 1 24 25
M  V30 25 2 25 26
M  V30 26 1 26 27
M  V30 27 2 27 28
M  V30 28 1 28 29
M  V30 29 2 29 30
M  V30 30 1 23 31
M  V30 31 2 20 32
M  V30 32 1 2 33
M  V30 33 1 2 34
M  V30 34 1 32 5
M  V30 35 1 18 6
M  V30 36 1 30 25
M  V30 37 1 13 9
M  V30 38 1 1 35
M  V30 39 1 14 36
M  V30 40 1 14 37
M  V30 41 1 16 38
M  V30 42 1 16 39
M  V30 43 1 17 40
M  V30 44 1 17 41
M  V30 45 1 17 42
M  V30 46 1 19 43
M  V30 47 1 22 44
M  V30 48 1 22 45
M  V30 49 1 23 46 CFG=1
M  V30 50 1 24 47
M  V30 51 1 24 48
M  V30 52 1 26 49
M  V30 53 1 27 50
M  V30 54 1 28 51
M  V30 55 1 29 52
M  V30 56 1 30 53
M  V30 57 1 31 54
M  V30 58 1 31 55
M  V30 59 1 31 56
M  V30 60 1 33 57
M  V30 61 1 33 58
M  V30 62 1 33 59
M  V30 63 1 34 60
M  V30 64 1 34 61
M  V30 65 1 34 62
M  V30 END BOND
M  V30 END CTAB
M  END
>  <Dataset>  (155) 
PDB

>  <Ligand_Instance>  (155) 
3E8C_G96_E_351

>  <PDB_ID>  (155) 
3E8C

>  <Standardized_SMILES>  (155) 
[H]OC(C#CC1=C2N=C(C3=NON=C3N([H])[H])N(C([H])([H])C([H])([H])[H])C2=C([H])C(OC([H])([H])[C@@]([H])(C([H])([H])C2=C([H])C([H])=C([H])C([H])=C2[H])[N+]([H])([H])[H])=N1)(C([H])([H])[H])C([H])([H])[H]

>  <Name>  (155) 
4-[2-(4-amino-1,2,5-oxadiazol-3-yl)-6-{[(2R)-2-amino-3-phenylpropyl]oxy}-1-ethyl-1H-imidazo[4,5-c]pyridin-4-yl]-2-methylbut-3-yn-2-ol

>  <Pocket>  (155) 
A, B

>  <ATP_Site>  (155) 
1.0

>  <Peripheral>  (155) 
0.0

>  <Num_H_Atoms_ProtBoundConf>  (155) 
28.0

>  <Num_Resolved_Atoms>  (155) 
34.0

>  <Num_Not_Resolved_Atoms>  (155) 
0.0

>  <2D_Mol_H>  (155) 
<rdkit.Chem.rdchem.Mol object at 0x72a238da6f80>

>  <MW>  (155) 
462.534

>  <HBA>  (155) 
9

>  <HBD>  (155) 
3

>  <LogP>  (155) 
1.4378

>  <NRB>  (155) 
13

>  <TPSA>  (155) 
152.75

>  <Num_Heavy_Atoms>  (155) 
34

>  <Ro5>  (155) 
[True, True, True, True, False, False]

>  <Ro5_Fulfilled>  (155) 
False

>  <Ro3>  (155) 
[False, False, True, True]

>  <Ro3_Fulfilled>  (155) 
False

>  <Fsp3>  (155) 
0.333333

>  <Fsp3_0.42>  (155) 
False

>  <Fsp3_0.45>  (155) 
False

>  <Stereogenic_Carbons>  (155) 
1

>  <C_Atoms>  (155) 
24

>  <FCStereo>  (155) 
0.041667

>  <SPS>  (155) 
421

>  <nSPS>  (155) 
12.382353

>  <PBF>  (155) 
1.01544

>  <PBF_0.6>  (155) 
True

>  <nPBF>  (155) 
0.029866

>  <nPBF_0.016>  (155) 
True

>  <PMI1>  (155) 
3048.249105

>  <PMI2>  (155) 
8759.678263

>  <PMI3>  (155) 
10911.562769

>  <NPR1>  (155) 
0.27936

>  <NPR2>  (155) 
0.802789

>  <Sum_NPR>  (155) 
1.082148

>  <Sum_NPR_1.07>  (155) 
True

>  <Sum_NPR_1.2>  (155) 
False

>  <MaxAbsEStateIndex>  (155) 
10.115531

>  <MaxEStateIndex>  (155) 
10.115531

>  <MinAbsEStateIndex>  (155) 
0.026348

>  <MinEStateIndex>  (155) 
-1.198813

>  <qed>  (155) 
0.34881

>  <MolWt>  (155) 
462.534

>  <HeavyAtomMolWt>  (155) 
434.31

>  <ExactMolWt>  (155) 
462.224814

>  <NumValenceElectrons>  (155) 
176

>  <NumRadicalElectrons>  (155) 
0

>  <MaxPartialCharge>  (155) 
0.216405

>  <MinPartialCharge>  (155) 
-0.471235

>  <MaxAbsPartialCharge>  (155) 
0.471235

>  <MinAbsPartialCharge>  (155) 
0.216405

>  <FpDensityMorgan1>  (155) 
1.235294

>  <FpDensityMorgan2>  (155) 
2.0

>  <FpDensityMorgan3>  (155) 
2.647059

>  <BCUT2D_MWHI>  (155) 
16.564585

>  <BCUT2D_MWLOW>  (155) 
10.079959

>  <BCUT2D_CHGHI>  (155) 
2.217902

>  <BCUT2D_CHGLO>  (155) 
-2.114571

>  <BCUT2D_LOGPHI>  (155) 
2.294627

>  <BCUT2D_LOGPLOW>  (155) 
-2.641859

>  <BCUT2D_MRHI>  (155) 
5.857768

>  <BCUT2D_MRLOW>  (155) 
-0.422797

>  <AvgIpc>  (155) 
3.38418

>  <BalabanJ>  (155) 
1.718732

>  <BertzCT>  (155) 
1344.139623

>  <Chi0>  (155) 
24.294318

>  <Chi0n>  (155) 
19.447007

>  <Chi0v>  (155) 
19.447007

>  <Chi1>  (155) 
16.247333

>  <Chi1n>  (155) 
10.998751

>  <Chi1v>  (155) 
10.998751

>  <Chi2n>  (155) 
8.530342

>  <Chi2v>  (155) 
8.530342

>  <Chi3n>  (155) 
5.076144

>  <Chi3v>  (155) 
5.076144

>  <Chi4n>  (155) 
3.532694

>  <Chi4v>  (155) 
3.532694

>  <HallKierAlpha>  (155) 
-3.94

>  <Ipc>  (155) 
47023446.06636

>  <Kappa1>  (155) 
23.226004

>  <Kappa2>  (155) 
9.506395

>  <Kappa3>  (155) 
5.166963

>  <LabuteASA>  (155) 
196.458229

>  <PEOE_VSA1>  (155) 
25.877825

>  <PEOE_VSA10>  (155) 
29.460402

>  <PEOE_VSA11>  (155) 
17.336195

>  <PEOE_VSA12>  (155) 
5.879988

>  <PEOE_VSA13>  (155) 
0.0

>  <PEOE_VSA14>  (155) 
0.0

>  <PEOE_VSA2>  (155) 
0.0

>  <PEOE_VSA3>  (155) 
14.596996

>  <PEOE_VSA4>  (155) 
0.0

>  <PEOE_VSA5>  (155) 
0.0

>  <PEOE_VSA6>  (155) 
36.25227

>  <PEOE_VSA7>  (155) 
42.568424

>  <PEOE_VSA8>  (155) 
19.031945

>  <PEOE_VSA9>  (155) 
5.516701

>  <SMR_VSA1>  (155) 
20.206097

>  <SMR_VSA10>  (155) 
16.851264

>  <SMR_VSA2>  (155) 
0.0

>  <SMR_VSA3>  (155) 
24.848383

>  <SMR_VSA4>  (155) 
0.0

>  <SMR_VSA5>  (155) 
45.379681

>  <SMR_VSA6>  (155) 
12.340549

>  <SMR_VSA7>  (155) 
47.655582

>  <SMR_VSA8>  (155) 
0.0

>  <SMR_VSA9>  (155) 
29.239189

>  <SlogP_VSA1>  (155) 
16.204198

>  <SlogP_VSA10>  (155) 
5.817863

>  <SlogP_VSA11>  (155) 
5.879988

>  <SlogP_VSA12>  (155) 
0.0

>  <SlogP_VSA2>  (155) 
48.204684

>  <SlogP_VSA3>  (155) 
12.965578

>  <SlogP_VSA4>  (155) 
11.840869

>  <SlogP_VSA5>  (155) 
32.028591

>  <SlogP_VSA6>  (155) 
41.027241

>  <SlogP_VSA7>  (155) 
0.0

>  <SlogP_VSA8>  (155) 
22.551734

>  <SlogP_VSA9>  (155) 
0.0

>  <EState_VSA1>  (155) 
5.601051

>  <EState_VSA10>  (155) 
5.106527

>  <EState_VSA11>  (155) 
0.0

>  <EState_VSA2>  (155) 
11.859704

>  <EState_VSA3>  (155) 
41.760588

>  <EState_VSA4>  (155) 
11.937522

>  <EState_VSA5>  (155) 
5.563451

>  <EState_VSA6>  (155) 
13.847474

>  <EState_VSA7>  (155) 
35.756305

>  <EState_VSA8>  (155) 
49.988554

>  <EState_VSA9>  (155) 
15.099569

>  <VSA_EState1>  (155) 
12.713547

>  <VSA_EState10>  (155) 
0.0

>  <VSA_EState2>  (155) 
9.259729

>  <VSA_EState3>  (155) 
17.672196

>  <VSA_EState4>  (155) 
12.120692

>  <VSA_EState5>  (155) 
6.764835

>  <VSA_EState6>  (155) 
11.972152

>  <VSA_EState7>  (155) 
0.781672

>  <VSA_EState8>  (155) 
6.131844

>  <VSA_EState9>  (155) 
0.0

>  <FractionCSP3>  (155) 
0.333333

>  <HeavyAtomCount>  (155) 
34

>  <NHOHCount>  (155) 
6

>  <NOCount>  (155) 
10

>  <NumAliphaticCarbocycles>  (155) 
0

>  <NumAliphaticHeterocycles>  (155) 
0

>  <NumAliphaticRings>  (155) 
0

>  <NumAromaticCarbocycles>  (155) 
1

>  <NumAromaticHeterocycles>  (155) 
3

>  <NAR>  (155) 
4

>  <NumHAcceptors>  (155) 
9

>  <NumHDonors>  (155) 
3

>  <NumHeteroatoms>  (155) 
10

>  <NumRotatableBonds>  (155) 
7

>  <NumSaturatedCarbocycles>  (155) 
0

>  <NumSaturatedHeterocycles>  (155) 
0

>  <NumSaturatedRings>  (155) 
0

>  <RingCount>  (155) 
4

>  <MolLogP>  (155) 
1.4378

>  <MolMR>  (155) 
126.3993

>  <fr_Al_COO>  (155) 
0

>  <fr_Al_OH>  (155) 
1

>  <fr_Al_OH_noTert>  (155) 
0

>  <fr_ArN>  (155) 
1

>  <fr_Ar_COO>  (155) 
0

>  <fr_Ar_N>  (155) 
5

>  <fr_Ar_NH>  (155) 
0

>  <fr_Ar_OH>  (155) 
0

>  <fr_COO>  (155) 
0

>  <fr_COO2>  (155) 
0

>  <fr_C_O>  (155) 
0

>  <fr_C_O_noCOO>  (155) 
0

>  <fr_C_S>  (155) 
0

>  <fr_HOCCN>  (155) 
0

>  <fr_Imine>  (155) 
0

>  <fr_NH0>  (155) 
5

>  <fr_NH1>  (155) 
0

>  <fr_NH2>  (155) 
1

>  <fr_N_O>  (155) 
0

>  <fr_Ndealkylation1>  (155) 
0

>  <fr_Ndealkylation2>  (155) 
0

>  <fr_Nhpyrrole>  (155) 
0

>  <fr_SH>  (155) 
0

>  <fr_aldehyde>  (155) 
0

>  <fr_alkyl_carbamate>  (155) 
0

>  <fr_alkyl_halide>  (155) 
0

>  <fr_allylic_oxid>  (155) 
0

>  <fr_amide>  (155) 
0

>  <fr_amidine>  (155) 
0

>  <fr_aniline>  (155) 
1

>  <fr_aryl_methyl>  (155) 
1

>  <fr_azide>  (155) 
0

>  <fr_azo>  (155) 
0

>  <fr_barbitur>  (155) 
0

>  <fr_benzene>  (155) 
1

>  <fr_benzodiazepine>  (155) 
0

>  <fr_bicyclic>  (155) 
1

>  <fr_diazo>  (155) 
0

>  <fr_dihydropyridine>  (155) 
0

>  <fr_epoxide>  (155) 
0

>  <fr_ester>  (155) 
0

>  <fr_ether>  (155) 
1

>  <fr_furan>  (155) 
0

>  <fr_guanido>  (155) 
0

>  <fr_halogen>  (155) 
0

>  <fr_hdrzine>  (155) 
0

>  <fr_hdrzone>  (155) 
0

>  <fr_imidazole>  (155) 
1

>  <fr_imide>  (155) 
0

>  <fr_isocyan>  (155) 
0

>  <fr_isothiocyan>  (155) 
0

>  <fr_ketone>  (155) 
0

>  <fr_ketone_Topliss>  (155) 
0

>  <fr_lactam>  (155) 
0

>  <fr_lactone>  (155) 
0

>  <fr_methoxy>  (155) 
0

>  <fr_morpholine>  (155) 
0

>  <fr_nitrile>  (155) 
0

>  <fr_nitro>  (155) 
0

>  <fr_nitro_arom>  (155) 
0

>  <fr_nitro_arom_nonortho>  (155) 
0

>  <fr_nitroso>  (155) 
0

>  <fr_oxazole>  (155) 
0

>  <fr_oxime>  (155) 
0

>  <fr_para_hydroxylation>  (155) 
0

>  <fr_phenol>  (155) 
0

>  <fr_phenol_noOrthoHbond>  (155) 
0

>  <fr_phos_acid>  (155) 
0

>  <fr_phos_ester>  (155) 
0

>  <fr_piperdine>  (155) 
0

>  <fr_piperzine>  (155) 
0

>  <fr_priamide>  (155) 
0

>  <fr_prisulfonamd>  (155) 
0

>  <fr_pyridine>  (155) 
1

>  <fr_quatN>  (155) 
1

>  <fr_sulfide>  (155) 
0

>  <fr_sulfonamd>  (155) 
0

>  <fr_sulfone>  (155) 
0

>  <fr_term_acetylene>  (155) 
0

>  <fr_tetrazole>  (155) 
0

>  <fr_thiazole>  (155) 
0

>  <fr_thiocyan>  (155) 
0

>  <fr_thiophene>  (155) 
0

>  <fr_unbrch_alkane>  (155) 
0

>  <fr_urea>  (155) 
0

>  <NP-Likeness>  (155) 
-0.766942

$$$$
G96
     RDKit          3D

  0  0  0  0  0  0  0  0  0  0999 V3000
M  V30 BEGIN CTAB
M  V30 COUNTS 62 65 0 0 0
M  V30 BEGIN ATOM
M  V30 1 O 2.847523 -4.541758 0.128419 0
M  V30 2 C 2.484092 -4.228718 1.436020 0
M  V30 3 C 1.777152 -2.928251 1.331344 0
M  V30 4 C 1.191622 -1.873954 1.260112 0
M  V30 5 C 0.490109 -0.621439 1.196098 0
M  V30 6 C 1.187014 0.555111 1.240014 0
M  V30 7 N 2.498664 0.746099 1.340189 0
M  V30 8 C 2.819483 2.047835 1.355448 0
M  V30 9 C 4.201865 2.454144 1.462802 0
M  V30 10 N 5.237628 1.603464 1.505854 0
M  V30 11 O 6.374373 2.201108 1.579286 0
M  V30 12 N 6.166617 3.506062 1.590348 0
M  V30 13 C 4.814205 3.653171 1.518211 0
M  V30 14 N 4.348998 4.957844 1.538109 0
M  V30 15 N 1.639651 2.657376 1.257574 0
M  V30 16 C 1.380859 4.056667 1.178690 0
M  V30 17 C 1.268320 4.678825 2.549397 0
M  V30 18 C 0.608349 1.796523 1.185507 0
M  V30 19 C -0.758827 1.861377 1.080087 0
M  V30 20 C -1.490153 0.673777 1.033646 0
M  V30 21 O -2.863634 0.770187 0.927530 0
M  V30 22 C -3.719676 -0.332675 0.870872 0
M  V30 23 C -3.451027 -1.248959 -0.311398 0 CFG=1
M  V30 24 C -4.490529 -2.344889 -0.287067 0
M  V30 25 C -4.315808 -3.300803 -1.408831 0
M  V30 26 C -4.951169 -3.084421 -2.614146 0
M  V30 27 C -4.829006 -3.935650 -3.695172 0
M  V30 28 C -4.016930 -5.039233 -3.495633 0
M  V30 29 C -3.346342 -5.331416 -2.326933 0
M  V30 30 C -3.521852 -4.422888 -1.283627 0
M  V30 31 N -3.612802 -0.524494 -1.558035 0 CHG=1 VAL=4
M  V30 32 N -0.858340 -0.528355 1.091876 0
M  V30 33 C 3.691656 -4.082997 2.335488 0
M  V30 34 C 1.575951 -5.271935 2.052889 0
M  V30 35 H 2.762416 -5.522797 0.033621 0
M  V30 36 H 3.837591 5.796980 1.842789 0
M  V30 37 H 4.621281 5.677577 0.821659 0
M  V30 38 H 2.087910 4.557885 0.507111 0
M  V30 39 H 0.384445 4.243374 0.625717 0
M  V30 40 H 0.232482 4.566012 2.965961 0
M  V30 41 H 1.920334 4.172217 3.290134 0
M  V30 42 H 1.552503 5.760059 2.569621 0
M  V30 43 H -1.182374 2.855276 1.039453 0
M  V30 44 H -4.758510 0.046764 0.724569 0
M  V30 45 H -3.709880 -0.866961 1.819898 0
M  V30 46 H -2.430279 -1.648192 -0.313540 0
M  V30 47 H -4.378065 -2.909693 0.645085 0
M  V30 48 H -5.480418 -1.854978 -0.312850 0
M  V30 49 H -5.582889 -2.218087 -2.756825 0
M  V30 50 H -5.325096 -3.770746 -4.642774 0
M  V30 51 H -3.886441 -5.747289 -4.324170 0
M  V30 52 H -2.727385 -6.215524 -2.244603 0
M  V30 53 H -3.000034 -4.635580 -0.350374 0
M  V30 54 H -3.353054 -1.187398 -2.323451 0
M  V30 55 H -3.006805 0.315864 -1.588470 0
M  V30 56 H -4.630197 -0.292793 -1.683568 0
M  V30 57 H 4.618728 -3.875660 1.749892 0
M  V30 58 H 3.791516 -4.965728 2.972258 0
M  V30 59 H 3.542057 -3.172313 2.952780 0
M  V30 60 H 1.040226 -5.833267 1.244862 0
M  V30 61 H 0.766698 -4.735916 2.613821 0
M  V30 62 H 2.114023 -5.938058 2.740134 0
M  V30 END ATOM
M  V30 BEGIN BOND
M  V30 1 1 1 2
M  V30 2 1 2 3
M  V30 3 3 3 4
M  V30 4 1 4 5
M  V30 5 2 5 6
M  V30 6 1 6 7
M  V30 7 2 7 8
M  V30 8 1 8 9
M  V30 9 2 9 10
M  V30 10 1 10 11
M  V30 11 1 11 12
M  V30 12 2 12 13
M  V30 13 1 13 14
M  V30 14 1 8 15
M  V30 15 1 15 16
M  V30 16 1 16 17
M  V30 17 1 15 18
M  V30 18 2 18 19
M  V30 19 1 19 20
M  V30 20 1 20 21
M  V30 21 1 21 22
M  V30 22 1 22 23
M  V30 23 1 23 24
M  V30 24 1 24 25
M  V30 25 2 25 26
M  V30 26 1 26 27
M  V30 27 2 27 28
M  V30 28 1 28 29
M  V30 29 2 29 30
M  V30 30 1 23 31
M  V30 31 2 20 32
M  V30 32 1 2 33
M  V30 33 1 2 34
M  V30 34 1 32 5
M  V30 35 1 18 6
M  V30 36 1 30 25
M  V30 37 1 13 9
M  V30 38 1 1 35
M  V30 39 1 14 36
M  V30 40 1 14 37
M  V30 41 1 16 38
M  V30 42 1 16 39
M  V30 43 1 17 40
M  V30 44 1 17 41
M  V30 45 1 17 42
M  V30 46 1 19 43
M  V30 47 1 22 44
M  V30 48 1 22 45
M  V30 49 1 23 46 CFG=1
M  V30 50 1 24 47
M  V30 51 1 24 48
M  V30 52 1 26 49
M  V30 53 1 27 50
M  V30 54 1 28 51
M  V30 55 1 29 52
M  V30 56 1 30 53
M  V30 57 1 31 54
M  V30 58 1 31 55
M  V30 59 1 31 56
M  V30 60 1 33 57
M  V30 61 1 33 58
M  V30 62 1 33 59
M  V30 63 1 34 60
M  V30 64 1 34 61
M  V30 65 1 34 62
M  V30 END BOND
M  V30 END CTAB
M  END
>  <Dataset>  (156) 
PDB

>  <Ligand_Instance>  (156) 
3E8C_G96_F_351

>  <PDB_ID>  (156) 
3E8C

>  <Standardized_SMILES>  (156) 
[H]OC(C#CC1=C2N=C(C3=NON=C3N([H])[H])N(C([H])([H])C([H])([H])[H])C2=C([H])C(OC([H])([H])[C@@]([H])(C([H])([H])C2=C([H])C([H])=C([H])C([H])=C2[H])[N+]([H])([H])[H])=N1)(C([H])([H])[H])C([H])([H])[H]

>  <Name>  (156) 
4-[2-(4-amino-1,2,5-oxadiazol-3-yl)-6-{[(2R)-2-amino-3-phenylpropyl]oxy}-1-ethyl-1H-imidazo[4,5-c]pyridin-4-yl]-2-methylbut-3-yn-2-ol

>  <Pocket>  (156) 
A, B

>  <ATP_Site>  (156) 
1.0

>  <Peripheral>  (156) 
0.0

>  <Num_H_Atoms_ProtBoundConf>  (156) 
28.0

>  <Num_Resolved_Atoms>  (156) 
34.0

>  <Num_Not_Resolved_Atoms>  (156) 
0.0

>  <2D_Mol_H>  (156) 
<rdkit.Chem.rdchem.Mol object at 0x72a238da7060>

>  <MW>  (156) 
462.534

>  <HBA>  (156) 
9

>  <HBD>  (156) 
3

>  <LogP>  (156) 
1.4378

>  <NRB>  (156) 
13

>  <TPSA>  (156) 
152.75

>  <Num_Heavy_Atoms>  (156) 
34

>  <Ro5>  (156) 
[True, True, True, True, False, False]

>  <Ro5_Fulfilled>  (156) 
False

>  <Ro3>  (156) 
[False, False, True, True]

>  <Ro3_Fulfilled>  (156) 
False

>  <Fsp3>  (156) 
0.333333

>  <Fsp3_0.42>  (156) 
False

>  <Fsp3_0.45>  (156) 
False

>  <Stereogenic_Carbons>  (156) 
1

>  <C_Atoms>  (156) 
24

>  <FCStereo>  (156) 
0.041667

>  <SPS>  (156) 
421

>  <nSPS>  (156) 
12.382353

>  <PBF>  (156) 
1.01544

>  <PBF_0.6>  (156) 
True

>  <nPBF>  (156) 
0.029866

>  <nPBF_0.016>  (156) 
True

>  <PMI1>  (156) 
3048.249105

>  <PMI2>  (156) 
8759.678263

>  <PMI3>  (156) 
10911.562769

>  <NPR1>  (156) 
0.27936

>  <NPR2>  (156) 
0.802789

>  <Sum_NPR>  (156) 
1.082148

>  <Sum_NPR_1.07>  (156) 
True

>  <Sum_NPR_1.2>  (156) 
False

>  <MaxAbsEStateIndex>  (156) 
10.115531

>  <MaxEStateIndex>  (156) 
10.115531

>  <MinAbsEStateIndex>  (156) 
0.026348

>  <MinEStateIndex>  (156) 
-1.198813

>  <qed>  (156) 
0.34881

>  <MolWt>  (156) 
462.534

>  <HeavyAtomMolWt>  (156) 
434.31

>  <ExactMolWt>  (156) 
462.224814

>  <NumValenceElectrons>  (156) 
176

>  <NumRadicalElectrons>  (156) 
0

>  <MaxPartialCharge>  (156) 
0.216405

>  <MinPartialCharge>  (156) 
-0.471235

>  <MaxAbsPartialCharge>  (156) 
0.471235

>  <MinAbsPartialCharge>  (156) 
0.216405

>  <FpDensityMorgan1>  (156) 
1.235294

>  <FpDensityMorgan2>  (156) 
2.0

>  <FpDensityMorgan3>  (156) 
2.647059

>  <BCUT2D_MWHI>  (156) 
16.564585

>  <BCUT2D_MWLOW>  (156) 
10.079959

>  <BCUT2D_CHGHI>  (156) 
2.217902

>  <BCUT2D_CHGLO>  (156) 
-2.114571

>  <BCUT2D_LOGPHI>  (156) 
2.294627

>  <BCUT2D_LOGPLOW>  (156) 
-2.641859

>  <BCUT2D_MRHI>  (156) 
5.857768

>  <BCUT2D_MRLOW>  (156) 
-0.422797

>  <AvgIpc>  (156) 
3.38418

>  <BalabanJ>  (156) 
1.718732

>  <BertzCT>  (156) 
1344.139623

>  <Chi0>  (156) 
24.294318

>  <Chi0n>  (156) 
19.447007

>  <Chi0v>  (156) 
19.447007

>  <Chi1>  (156) 
16.247333

>  <Chi1n>  (156) 
10.998751

>  <Chi1v>  (156) 
10.998751

>  <Chi2n>  (156) 
8.530342

>  <Chi2v>  (156) 
8.530342

>  <Chi3n>  (156) 
5.076144

>  <Chi3v>  (156) 
5.076144

>  <Chi4n>  (156) 
3.532694

>  <Chi4v>  (156) 
3.532694

>  <HallKierAlpha>  (156) 
-3.94

>  <Ipc>  (156) 
47023446.06636

>  <Kappa1>  (156) 
23.226004

>  <Kappa2>  (156) 
9.506395

>  <Kappa3>  (156) 
5.166963

>  <LabuteASA>  (156) 
196.458229

>  <PEOE_VSA1>  (156) 
25.877825

>  <PEOE_VSA10>  (156) 
29.460402

>  <PEOE_VSA11>  (156) 
17.336195

>  <PEOE_VSA12>  (156) 
5.879988

>  <PEOE_VSA13>  (156) 
0.0

>  <PEOE_VSA14>  (156) 
0.0

>  <PEOE_VSA2>  (156) 
0.0

>  <PEOE_VSA3>  (156) 
14.596996

>  <PEOE_VSA4>  (156) 
0.0

>  <PEOE_VSA5>  (156) 
0.0

>  <PEOE_VSA6>  (156) 
36.25227

>  <PEOE_VSA7>  (156) 
42.568424

>  <PEOE_VSA8>  (156) 
19.031945

>  <PEOE_VSA9>  (156) 
5.516701

>  <SMR_VSA1>  (156) 
20.206097

>  <SMR_VSA10>  (156) 
16.851264

>  <SMR_VSA2>  (156) 
0.0

>  <SMR_VSA3>  (156) 
24.848383

>  <SMR_VSA4>  (156) 
0.0

>  <SMR_VSA5>  (156) 
45.379681

>  <SMR_VSA6>  (156) 
12.340549

>  <SMR_VSA7>  (156) 
47.655582

>  <SMR_VSA8>  (156) 
0.0

>  <SMR_VSA9>  (156) 
29.239189

>  <SlogP_VSA1>  (156) 
16.204198

>  <SlogP_VSA10>  (156) 
5.817863

>  <SlogP_VSA11>  (156) 
5.879988

>  <SlogP_VSA12>  (156) 
0.0

>  <SlogP_VSA2>  (156) 
48.204684

>  <SlogP_VSA3>  (156) 
12.965578

>  <SlogP_VSA4>  (156) 
11.840869

>  <SlogP_VSA5>  (156) 
32.028591

>  <SlogP_VSA6>  (156) 
41.027241

>  <SlogP_VSA7>  (156) 
0.0

>  <SlogP_VSA8>  (156) 
22.551734

>  <SlogP_VSA9>  (156) 
0.0

>  <EState_VSA1>  (156) 
5.601051

>  <EState_VSA10>  (156) 
5.106527

>  <EState_VSA11>  (156) 
0.0

>  <EState_VSA2>  (156) 
11.859704

>  <EState_VSA3>  (156) 
41.760588

>  <EState_VSA4>  (156) 
11.937522

>  <EState_VSA5>  (156) 
5.563451

>  <EState_VSA6>  (156) 
13.847474

>  <EState_VSA7>  (156) 
35.756305

>  <EState_VSA8>  (156) 
49.988554

>  <EState_VSA9>  (156) 
15.099569

>  <VSA_EState1>  (156) 
12.713547

>  <VSA_EState10>  (156) 
0.0

>  <VSA_EState2>  (156) 
9.259729

>  <VSA_EState3>  (156) 
17.672196

>  <VSA_EState4>  (156) 
12.120692

>  <VSA_EState5>  (156) 
6.764835

>  <VSA_EState6>  (156) 
11.972152

>  <VSA_EState7>  (156) 
0.781672

>  <VSA_EState8>  (156) 
6.131844

>  <VSA_EState9>  (156) 
0.0

>  <FractionCSP3>  (156) 
0.333333

>  <HeavyAtomCount>  (156) 
34

>  <NHOHCount>  (156) 
6

>  <NOCount>  (156) 
10

>  <NumAliphaticCarbocycles>  (156) 
0

>  <NumAliphaticHeterocycles>  (156) 
0

>  <NumAliphaticRings>  (156) 
0

>  <NumAromaticCarbocycles>  (156) 
1

>  <NumAromaticHeterocycles>  (156) 
3

>  <NAR>  (156) 
4

>  <NumHAcceptors>  (156) 
9

>  <NumHDonors>  (156) 
3

>  <NumHeteroatoms>  (156) 
10

>  <NumRotatableBonds>  (156) 
7

>  <NumSaturatedCarbocycles>  (156) 
0

>  <NumSaturatedHeterocycles>  (156) 
0

>  <NumSaturatedRings>  (156) 
0

>  <RingCount>  (156) 
4

>  <MolLogP>  (156) 
1.4378

>  <MolMR>  (156) 
126.3993

>  <fr_Al_COO>  (156) 
0

>  <fr_Al_OH>  (156) 
1

>  <fr_Al_OH_noTert>  (156) 
0

>  <fr_ArN>  (156) 
1

>  <fr_Ar_COO>  (156) 
0

>  <fr_Ar_N>  (156) 
5

>  <fr_Ar_NH>  (156) 
0

>  <fr_Ar_OH>  (156) 
0

>  <fr_COO>  (156) 
0

>  <fr_COO2>  (156) 
0

>  <fr_C_O>  (156) 
0

>  <fr_C_O_noCOO>  (156) 
0

>  <fr_C_S>  (156) 
0

>  <fr_HOCCN>  (156) 
0

>  <fr_Imine>  (156) 
0

>  <fr_NH0>  (156) 
5

>  <fr_NH1>  (156) 
0

>  <fr_NH2>  (156) 
1

>  <fr_N_O>  (156) 
0

>  <fr_Ndealkylation1>  (156) 
0

>  <fr_Ndealkylation2>  (156) 
0

>  <fr_Nhpyrrole>  (156) 
0

>  <fr_SH>  (156) 
0

>  <fr_aldehyde>  (156) 
0

>  <fr_alkyl_carbamate>  (156) 
0

>  <fr_alkyl_halide>  (156) 
0

>  <fr_allylic_oxid>  (156) 
0

>  <fr_amide>  (156) 
0

>  <fr_amidine>  (156) 
0

>  <fr_aniline>  (156) 
1

>  <fr_aryl_methyl>  (156) 
1

>  <fr_azide>  (156) 
0

>  <fr_azo>  (156) 
0

>  <fr_barbitur>  (156) 
0

>  <fr_benzene>  (156) 
1

>  <fr_benzodiazepine>  (156) 
0

>  <fr_bicyclic>  (156) 
1

>  <fr_diazo>  (156) 
0

>  <fr_dihydropyridine>  (156) 
0

>  <fr_epoxide>  (156) 
0

>  <fr_ester>  (156) 
0

>  <fr_ether>  (156) 
1

>  <fr_furan>  (156) 
0

>  <fr_guanido>  (156) 
0

>  <fr_halogen>  (156) 
0

>  <fr_hdrzine>  (156) 
0

>  <fr_hdrzone>  (156) 
0

>  <fr_imidazole>  (156) 
1

>  <fr_imide>  (156) 
0

>  <fr_isocyan>  (156) 
0

>  <fr_isothiocyan>  (156) 
0

>  <fr_ketone>  (156) 
0

>  <fr_ketone_Topliss>  (156) 
0

>  <fr_lactam>  (156) 
0

>  <fr_lactone>  (156) 
0

>  <fr_methoxy>  (156) 
0

>  <fr_morpholine>  (156) 
0

>  <fr_nitrile>  (156) 
0

>  <fr_nitro>  (156) 
0

>  <fr_nitro_arom>  (156) 
0

>  <fr_nitro_arom_nonortho>  (156) 
0

>  <fr_nitroso>  (156) 
0

>  <fr_oxazole>  (156) 
0

>  <fr_oxime>  (156) 
0

>  <fr_para_hydroxylation>  (156) 
0

>  <fr_phenol>  (156) 
0

>  <fr_phenol_noOrthoHbond>  (156) 
0

>  <fr_phos_acid>  (156) 
0

>  <fr_phos_ester>  (156) 
0

>  <fr_piperdine>  (156) 
0

>  <fr_piperzine>  (156) 
0

>  <fr_priamide>  (156) 
0

>  <fr_prisulfonamd>  (156) 
0

>  <fr_pyridine>  (156) 
1

>  <fr_quatN>  (156) 
1

>  <fr_sulfide>  (156) 
0

>  <fr_sulfonamd>  (156) 
0

>  <fr_sulfone>  (156) 
0

>  <fr_term_acetylene>  (156) 
0

>  <fr_tetrazole>  (156) 
0

>  <fr_thiazole>  (156) 
0

>  <fr_thiocyan>  (156) 
0

>  <fr_thiophene>  (156) 
0

>  <fr_unbrch_alkane>  (156) 
0

>  <fr_urea>  (156) 
0

>  <NP-Likeness>  (156) 
-0.766942

$$$$
G98
     RDKit          3D

  0  0  0  0  0  0  0  0  0  0999 V3000
M  V30 BEGIN CTAB
M  V30 COUNTS 62 65 0 0 0
M  V30 BEGIN ATOM
M  V30 1 O 4.662918 -4.008679 3.881011 0
M  V30 2 C 3.507100 -4.571200 3.384953 0
M  V30 3 C 2.690611 -3.594614 2.642678 0
M  V30 4 C 2.018590 -2.795457 2.039620 0
M  V30 5 C 1.210319 -1.862535 1.307245 0
M  V30 6 C 1.603682 -0.547869 1.376980 0
M  V30 7 N 2.593061 0.090096 1.986556 0
M  V30 8 C 2.548416 1.408629 1.742195 0
M  V30 9 C 3.556574 2.265534 2.331898 0
M  V30 10 N 4.588130 1.829537 3.072917 0
M  V30 11 O 5.383776 2.751188 3.476282 0
M  V30 12 N 4.929730 3.884181 3.024900 0
M  V30 13 C 3.814441 3.604806 2.324908 0
M  V30 14 N 3.103682 4.654955 1.744897 0
M  V30 15 N 1.490854 1.583667 0.949951 0
M  V30 16 C 1.030380 2.791996 0.364271 0
M  V30 17 C 0.089167 3.601601 1.228988 0
M  V30 18 C 0.890676 0.409547 0.708773 0
M  V30 19 C -0.203493 0.011041 -0.013625 0
M  V30 20 C -0.612695 -1.288177 -0.097241 0
M  V30 21 O -1.660473 -1.881376 -0.754726 0
M  V30 22 C -2.548129 -1.111685 -1.520199 0 CFG=2
M  V30 23 C -3.887163 -1.256854 -0.888688 0
M  V30 24 C -4.733045 -0.179496 -0.669973 0
M  V30 25 C -5.965840 -0.350494 -0.081961 0
M  V30 26 C -6.380288 -1.612975 0.302022 0
M  V30 27 C -5.572115 -2.688862 0.100254 0
M  V30 28 C -4.341921 -2.510136 -0.487756 0
M  V30 29 C -2.565652 -1.556149 -2.967630 0
M  V30 30 C -3.512270 -0.742239 -3.806390 0
M  V30 31 N -3.450418 -1.250294 -5.165774 0 CHG=1 VAL=4
M  V30 32 N 0.112710 -2.212788 0.574541 0
M  V30 33 C 3.935644 -5.618542 2.360938 0
M  V30 34 C 2.724876 -5.278089 4.441251 0
M  V30 35 H 4.431559 -3.431266 4.649096 0
M  V30 36 H 3.256393 5.382079 1.010543 0
M  V30 37 H 3.197085 5.402140 1.023048 0
M  V30 38 H 1.831610 3.424123 -0.006512 0
M  V30 39 H 0.372737 2.503026 -0.548861 0
M  V30 40 H 0.550678 3.564792 2.260134 0
M  V30 41 H -0.900266 3.131571 1.332301 0
M  V30 42 H 0.065985 4.657882 0.967355 0
M  V30 43 H -0.770527 0.728418 -0.537867 0
M  V30 44 H -2.315691 -0.033302 -1.537122 0
M  V30 45 H -4.398846 0.809142 -0.975026 0
M  V30 46 H -6.637604 0.492252 0.093728 0
M  V30 47 H -7.333714 -1.749776 0.757476 0
M  V30 48 H -5.910129 -3.666655 0.405562 0
M  V30 49 H -3.737639 -3.409027 -0.623915 0
M  V30 50 H -1.543504 -1.330679 -3.364036 0
M  V30 51 H -2.724633 -2.627847 -3.104459 0
M  V30 52 H -4.553111 -0.775493 -3.436050 0
M  V30 53 H -3.199129 0.320059 -3.833641 0
M  V30 54 H -3.055275 -2.214893 -5.184340 0
M  V30 55 H -2.869080 -0.639147 -5.784894 0
M  V30 56 H -4.423560 -1.259074 -5.548534 0
M  V30 57 H 3.046660 -6.100215 1.946108 0
M  V30 58 H 4.485997 -6.395431 2.963379 0
M  V30 59 H 4.593627 -5.177246 1.605473 0
M  V30 60 H 2.987445 -6.369334 4.459840 0
M  V30 61 H 1.628437 -5.144201 4.344138 0
M  V30 62 H 3.071474 -4.882404 5.436720 0
M  V30 END ATOM
M  V30 BEGIN BOND
M  V30 1 1 1 2
M  V30 2 1 2 3
M  V30 3 3 3 4
M  V30 4 1 4 5
M  V30 5 2 5 6
M  V30 6 1 6 7
M  V30 7 2 7 8
M  V30 8 1 8 9
M  V30 9 2 9 10
M  V30 10 1 10 11
M  V30 11 1 11 12
M  V30 12 2 12 13
M  V30 13 1 13 14
M  V30 14 1 8 15
M  V30 15 1 15 16
M  V30 16 1 16 17
M  V30 17 1 15 18
M  V30 18 2 18 19
M  V30 19 1 19 20
M  V30 20 1 20 21
M  V30 21 1 21 22
M  V30 22 1 22 23
M  V30 23 2 23 24
M  V30 24 1 24 25
M  V30 25 2 25 26
M  V30 26 1 26 27
M  V30 27 2 27 28
M  V30 28 1 22 29
M  V30 29 1 29 30
M  V30 30 1 30 31
M  V30 31 2 20 32
M  V30 32 1 2 33
M  V30 33 1 2 34
M  V30 34 1 32 5
M  V30 35 1 18 6
M  V30 36 1 28 23
M  V30 37 1 13 9
M  V30 38 1 1 35
M  V30 39 1 14 36
M  V30 40 1 14 37
M  V30 41 1 16 38
M  V30 42 1 16 39
M  V30 43 1 17 40
M  V30 44 1 17 41
M  V30 45 1 17 42
M  V30 46 1 19 43
M  V30 47 1 22 44 CFG=3
M  V30 48 1 24 45
M  V30 49 1 25 46
M  V30 50 1 26 47
M  V30 51 1 27 48
M  V30 52 1 28 49
M  V30 53 1 29 50
M  V30 54 1 29 51
M  V30 55 1 30 52
M  V30 56 1 30 53
M  V30 57 1 31 54
M  V30 58 1 31 55
M  V30 59 1 31 56
M  V30 60 1 33 57
M  V30 61 1 33 58
M  V30 62 1 33 59
M  V30 63 1 34 60
M  V30 64 1 34 61
M  V30 65 1 34 62
M  V30 END BOND
M  V30 END CTAB
M  END
>  <Dataset>  (157) 
PDB

>  <Ligand_Instance>  (157) 
3E8E_G98_A_351

>  <PDB_ID>  (157) 
3E8E

>  <Standardized_SMILES>  (157) 
[H]OC(C#CC1=C2N=C(C3=NON=C3N([H])[H])N(C([H])([H])C([H])([H])[H])C2=C([H])C(O[C@]([H])(C2=C([H])C([H])=C([H])C([H])=C2[H])C([H])([H])C([H])([H])[N+]([H])([H])[H])=N1)(C([H])([H])[H])C([H])([H])[H]

>  <Name>  (157) 
4-[2-(4-amino-2,5-dihydro-1,2,5-oxadiazol-3-yl)-6-{[(1S)-3-amino-1-phenylpropyl]oxy}-1-ethyl-1H-imidazo[4,5-c]pyridin-4-yl]-2-methylbut-3-yn-2-ol

>  <Pocket>  (157) 
A, B

>  <ATP_Site>  (157) 
1.0

>  <Peripheral>  (157) 
0.0

>  <Num_H_Atoms_ProtBoundConf>  (157) 
28.0

>  <Num_Resolved_Atoms>  (157) 
34.0

>  <Num_Not_Resolved_Atoms>  (157) 
0.0

>  <2D_Mol_H>  (157) 
<rdkit.Chem.rdchem.Mol object at 0x72a238da7140>

>  <MW>  (157) 
462.534

>  <HBA>  (157) 
9

>  <HBD>  (157) 
3

>  <LogP>  (157) 
1.9579

>  <NRB>  (157) 
13

>  <TPSA>  (157) 
152.75

>  <Num_Heavy_Atoms>  (157) 
34

>  <Ro5>  (157) 
[True, True, True, True, False, False]

>  <Ro5_Fulfilled>  (157) 
False

>  <Ro3>  (157) 
[False, False, True, True]

>  <Ro3_Fulfilled>  (157) 
False

>  <Fsp3>  (157) 
0.333333

>  <Fsp3_0.42>  (157) 
False

>  <Fsp3_0.45>  (157) 
False

>  <Stereogenic_Carbons>  (157) 
1

>  <C_Atoms>  (157) 
24

>  <FCStereo>  (157) 
0.041667

>  <SPS>  (157) 
421

>  <nSPS>  (157) 
12.382353

>  <PBF>  (157) 
1.149624

>  <PBF_0.6>  (157) 
True

>  <nPBF>  (157) 
0.033812

>  <nPBF_0.016>  (157) 
True

>  <PMI1>  (157) 
3982.896652

>  <PMI2>  (157) 
7914.312622

>  <PMI3>  (157) 
10544.382082

>  <NPR1>  (157) 
0.377727

>  <NPR2>  (157) 
0.750571

>  <Sum_NPR>  (157) 
1.128298

>  <Sum_NPR_1.07>  (157) 
True

>  <Sum_NPR_1.2>  (157) 
False

>  <MaxAbsEStateIndex>  (157) 
10.164611

>  <MaxEStateIndex>  (157) 
10.164611

>  <MinAbsEStateIndex>  (157) 
0.137178

>  <MinEStateIndex>  (157) 
-1.206416

>  <qed>  (157) 
0.352378

>  <MolWt>  (157) 
462.534

>  <HeavyAtomMolWt>  (157) 
434.31

>  <ExactMolWt>  (157) 
462.224814

>  <NumValenceElectrons>  (157) 
176

>  <NumRadicalElectrons>  (157) 
0

>  <MaxPartialCharge>  (157) 
0.216801

>  <MinPartialCharge>  (157) 
-0.469138

>  <MaxAbsPartialCharge>  (157) 
0.469138

>  <MinAbsPartialCharge>  (157) 
0.216801

>  <FpDensityMorgan1>  (157) 
1.235294

>  <FpDensityMorgan2>  (157) 
2.0

>  <FpDensityMorgan3>  (157) 
2.617647

>  <BCUT2D_MWHI>  (157) 
16.564613

>  <BCUT2D_MWLOW>  (157) 
10.070283

>  <BCUT2D_CHGHI>  (157) 
2.22698

>  <BCUT2D_CHGLO>  (157) 
-2.178144

>  <BCUT2D_LOGPHI>  (157) 
2.313646

>  <BCUT2D_LOGPLOW>  (157) 
-2.504595

>  <BCUT2D_MRHI>  (157) 
5.857963

>  <BCUT2D_MRLOW>  (157) 
-0.370474

>  <AvgIpc>  (157) 
3.395169

>  <BalabanJ>  (157) 
1.887784

>  <BertzCT>  (157) 
1344.139623

>  <Chi0>  (157) 
24.294318

>  <Chi0n>  (157) 
19.447007

>  <Chi0v>  (157) 
19.447007

>  <Chi1>  (157) 
16.302175

>  <Chi1n>  (157) 
11.064403

>  <Chi1v>  (157) 
11.064403

>  <Chi2n>  (157) 
8.322995

>  <Chi2v>  (157) 
8.322995

>  <Chi3n>  (157) 
5.142699

>  <Chi3v>  (157) 
5.142699

>  <Chi4n>  (157) 
3.602013

>  <Chi4v>  (157) 
3.602013

>  <HallKierAlpha>  (157) 
-3.94

>  <Ipc>  (157) 
49735528.899362

>  <Kappa1>  (157) 
23.226004

>  <Kappa2>  (157) 
9.506395

>  <Kappa3>  (157) 
4.854172

>  <LabuteASA>  (157) 
196.458229

>  <PEOE_VSA1>  (157) 
25.877825

>  <PEOE_VSA10>  (157) 
22.915646

>  <PEOE_VSA11>  (157) 
17.336195

>  <PEOE_VSA12>  (157) 
5.879988

>  <PEOE_VSA13>  (157) 
0.0

>  <PEOE_VSA14>  (157) 
0.0

>  <PEOE_VSA2>  (157) 
0.0

>  <PEOE_VSA3>  (157) 
14.596996

>  <PEOE_VSA4>  (157) 
0.0

>  <PEOE_VSA5>  (157) 
0.0

>  <PEOE_VSA6>  (157) 
36.25227

>  <PEOE_VSA7>  (157) 
42.568424

>  <PEOE_VSA8>  (157) 
19.031945

>  <PEOE_VSA9>  (157) 
12.061457

>  <SMR_VSA1>  (157) 
20.206097

>  <SMR_VSA10>  (157) 
16.851264

>  <SMR_VSA2>  (157) 
0.0

>  <SMR_VSA3>  (157) 
24.848383

>  <SMR_VSA4>  (157) 
0.0

>  <SMR_VSA5>  (157) 
45.441807

>  <SMR_VSA6>  (157) 
12.278424

>  <SMR_VSA7>  (157) 
47.655582

>  <SMR_VSA8>  (157) 
0.0

>  <SMR_VSA9>  (157) 
29.239189

>  <SlogP_VSA1>  (157) 
16.204198

>  <SlogP_VSA10>  (157) 
5.817863

>  <SlogP_VSA11>  (157) 
5.879988

>  <SlogP_VSA12>  (157) 
0.0

>  <SlogP_VSA2>  (157) 
42.100718

>  <SlogP_VSA3>  (157) 
6.544756

>  <SlogP_VSA4>  (157) 
11.840869

>  <SlogP_VSA5>  (157) 
44.553379

>  <SlogP_VSA6>  (157) 
41.027241

>  <SlogP_VSA7>  (157) 
0.0

>  <SlogP_VSA8>  (157) 
22.551734

>  <SlogP_VSA9>  (157) 
0.0

>  <EState_VSA1>  (157) 
5.601051

>  <EState_VSA10>  (157) 
5.106527

>  <EState_VSA11>  (157) 
0.0

>  <EState_VSA2>  (157) 
11.921829

>  <EState_VSA3>  (157) 
48.119284

>  <EState_VSA4>  (157) 
11.080152

>  <EState_VSA5>  (157) 
0.0

>  <EState_VSA6>  (157) 
13.847474

>  <EState_VSA7>  (157) 
47.889039

>  <EState_VSA8>  (157) 
32.871841

>  <EState_VSA9>  (157) 
20.083548

>  <VSA_EState1>  (157) 
13.06

>  <VSA_EState10>  (157) 
0.0

>  <VSA_EState2>  (157) 
9.360575

>  <VSA_EState3>  (157) 
17.746839

>  <VSA_EState4>  (157) 
11.73724

>  <VSA_EState5>  (157) 
6.798422

>  <VSA_EState6>  (157) 
11.768439

>  <VSA_EState7>  (157) 
0.486112

>  <VSA_EState8>  (157) 
6.459039

>  <VSA_EState9>  (157) 
0.0

>  <FractionCSP3>  (157) 
0.333333

>  <HeavyAtomCount>  (157) 
34

>  <NHOHCount>  (157) 
6

>  <NOCount>  (157) 
10

>  <NumAliphaticCarbocycles>  (157) 
0

>  <NumAliphaticHeterocycles>  (157) 
0

>  <NumAliphaticRings>  (157) 
0

>  <NumAromaticCarbocycles>  (157) 
1

>  <NumAromaticHeterocycles>  (157) 
3

>  <NAR>  (157) 
4

>  <NumHAcceptors>  (157) 
9

>  <NumHDonors>  (157) 
3

>  <NumHeteroatoms>  (157) 
10

>  <NumRotatableBonds>  (157) 
7

>  <NumSaturatedCarbocycles>  (157) 
0

>  <NumSaturatedHeterocycles>  (157) 
0

>  <NumSaturatedRings>  (157) 
0

>  <RingCount>  (157) 
4

>  <MolLogP>  (157) 
1.9579

>  <MolMR>  (157) 
126.2653

>  <fr_Al_COO>  (157) 
0

>  <fr_Al_OH>  (157) 
1

>  <fr_Al_OH_noTert>  (157) 
0

>  <fr_ArN>  (157) 
1

>  <fr_Ar_COO>  (157) 
0

>  <fr_Ar_N>  (157) 
5

>  <fr_Ar_NH>  (157) 
0

>  <fr_Ar_OH>  (157) 
0

>  <fr_COO>  (157) 
0

>  <fr_COO2>  (157) 
0

>  <fr_C_O>  (157) 
0

>  <fr_C_O_noCOO>  (157) 
0

>  <fr_C_S>  (157) 
0

>  <fr_HOCCN>  (157) 
0

>  <fr_Imine>  (157) 
0

>  <fr_NH0>  (157) 
5

>  <fr_NH1>  (157) 
0

>  <fr_NH2>  (157) 
1

>  <fr_N_O>  (157) 
0

>  <fr_Ndealkylation1>  (157) 
0

>  <fr_Ndealkylation2>  (157) 
0

>  <fr_Nhpyrrole>  (157) 
0

>  <fr_SH>  (157) 
0

>  <fr_aldehyde>  (157) 
0

>  <fr_alkyl_carbamate>  (157) 
0

>  <fr_alkyl_halide>  (157) 
0

>  <fr_allylic_oxid>  (157) 
0

>  <fr_amide>  (157) 
0

>  <fr_amidine>  (157) 
0

>  <fr_aniline>  (157) 
1

>  <fr_aryl_methyl>  (157) 
1

>  <fr_azide>  (157) 
0

>  <fr_azo>  (157) 
0

>  <fr_barbitur>  (157) 
0

>  <fr_benzene>  (157) 
1

>  <fr_benzodiazepine>  (157) 
0

>  <fr_bicyclic>  (157) 
1

>  <fr_diazo>  (157) 
0

>  <fr_dihydropyridine>  (157) 
0

>  <fr_epoxide>  (157) 
0

>  <fr_ester>  (157) 
0

>  <fr_ether>  (157) 
1

>  <fr_furan>  (157) 
0

>  <fr_guanido>  (157) 
0

>  <fr_halogen>  (157) 
0

>  <fr_hdrzine>  (157) 
0

>  <fr_hdrzone>  (157) 
0

>  <fr_imidazole>  (157) 
1

>  <fr_imide>  (157) 
0

>  <fr_isocyan>  (157) 
0

>  <fr_isothiocyan>  (157) 
0

>  <fr_ketone>  (157) 
0

>  <fr_ketone_Topliss>  (157) 
0

>  <fr_lactam>  (157) 
0

>  <fr_lactone>  (157) 
0

>  <fr_methoxy>  (157) 
0

>  <fr_morpholine>  (157) 
0

>  <fr_nitrile>  (157) 
0

>  <fr_nitro>  (157) 
0

>  <fr_nitro_arom>  (157) 
0

>  <fr_nitro_arom_nonortho>  (157) 
0

>  <fr_nitroso>  (157) 
0

>  <fr_oxazole>  (157) 
0

>  <fr_oxime>  (157) 
0

>  <fr_para_hydroxylation>  (157) 
0

>  <fr_phenol>  (157) 
0

>  <fr_phenol_noOrthoHbond>  (157) 
0

>  <fr_phos_acid>  (157) 
0

>  <fr_phos_ester>  (157) 
0

>  <fr_piperdine>  (157) 
0

>  <fr_piperzine>  (157) 
0

>  <fr_priamide>  (157) 
0

>  <fr_prisulfonamd>  (157) 
0

>  <fr_pyridine>  (157) 
1

>  <fr_quatN>  (157) 
1

>  <fr_sulfide>  (157) 
0

>  <fr_sulfonamd>  (157) 
0

>  <fr_sulfone>  (157) 
0

>  <fr_term_acetylene>  (157) 
0

>  <fr_tetrazole>  (157) 
0

>  <fr_thiazole>  (157) 
0

>  <fr_thiocyan>  (157) 
0

>  <fr_thiophene>  (157) 
0

>  <fr_unbrch_alkane>  (157) 
0

>  <fr_urea>  (157) 
0

>  <NP-Likeness>  (157) 
-0.661798

$$$$
G98
     RDKit          3D

  0  0  0  0  0  0  0  0  0  0999 V3000
M  V30 BEGIN CTAB
M  V30 COUNTS 62 65 0 0 0
M  V30 BEGIN ATOM
M  V30 1 O 4.662918 -4.008679 3.881011 0
M  V30 2 C 3.507100 -4.571200 3.384953 0
M  V30 3 C 2.690611 -3.594614 2.642678 0
M  V30 4 C 2.018590 -2.795457 2.039620 0
M  V30 5 C 1.210319 -1.862535 1.307245 0
M  V30 6 C 1.603682 -0.547869 1.376980 0
M  V30 7 N 2.593061 0.090096 1.986556 0
M  V30 8 C 2.548416 1.408629 1.742195 0
M  V30 9 C 3.556574 2.265534 2.331898 0
M  V30 10 N 4.588130 1.829537 3.072917 0
M  V30 11 O 5.383776 2.751188 3.476282 0
M  V30 12 N 4.929730 3.884181 3.024900 0
M  V30 13 C 3.814441 3.604806 2.324908 0
M  V30 14 N 3.103682 4.654955 1.744897 0
M  V30 15 N 1.490854 1.583667 0.949951 0
M  V30 16 C 1.030380 2.791996 0.364271 0
M  V30 17 C 0.089167 3.601601 1.228988 0
M  V30 18 C 0.890676 0.409547 0.708773 0
M  V30 19 C -0.203493 0.011041 -0.013625 0
M  V30 20 C -0.612695 -1.288177 -0.097241 0
M  V30 21 O -1.660473 -1.881376 -0.754726 0
M  V30 22 C -2.548129 -1.111685 -1.520199 0 CFG=2
M  V30 23 C -3.887163 -1.256854 -0.888688 0
M  V30 24 C -4.733045 -0.179496 -0.669973 0
M  V30 25 C -5.965840 -0.350494 -0.081961 0
M  V30 26 C -6.380288 -1.612975 0.302022 0
M  V30 27 C -5.572115 -2.688862 0.100254 0
M  V30 28 C -4.341921 -2.510136 -0.487756 0
M  V30 29 C -2.565652 -1.556149 -2.967630 0
M  V30 30 C -3.512270 -0.742239 -3.806390 0
M  V30 31 N -3.450418 -1.250294 -5.165774 0 CHG=1 VAL=4
M  V30 32 N 0.112710 -2.212788 0.574541 0
M  V30 33 C 3.935644 -5.618542 2.360938 0
M  V30 34 C 2.724876 -5.278089 4.441251 0
M  V30 35 H 4.431559 -3.431266 4.649096 0
M  V30 36 H 3.256393 5.382079 1.010543 0
M  V30 37 H 3.197085 5.402140 1.023048 0
M  V30 38 H 1.831610 3.424123 -0.006512 0
M  V30 39 H 0.372737 2.503026 -0.548861 0
M  V30 40 H 0.550678 3.564792 2.260134 0
M  V30 41 H -0.900266 3.131571 1.332301 0
M  V30 42 H 0.065985 4.657882 0.967355 0
M  V30 43 H -0.770527 0.728418 -0.537867 0
M  V30 44 H -2.315691 -0.033302 -1.537122 0
M  V30 45 H -4.398846 0.809142 -0.975026 0
M  V30 46 H -6.637604 0.492252 0.093728 0
M  V30 47 H -7.333714 -1.749776 0.757476 0
M  V30 48 H -5.910129 -3.666655 0.405562 0
M  V30 49 H -3.737639 -3.409027 -0.623915 0
M  V30 50 H -1.543504 -1.330679 -3.364036 0
M  V30 51 H -2.724633 -2.627847 -3.104459 0
M  V30 52 H -4.553111 -0.775493 -3.436050 0
M  V30 53 H -3.199129 0.320059 -3.833641 0
M  V30 54 H -3.055275 -2.214893 -5.184340 0
M  V30 55 H -2.869080 -0.639147 -5.784894 0
M  V30 56 H -4.423560 -1.259074 -5.548534 0
M  V30 57 H 3.046660 -6.100215 1.946108 0
M  V30 58 H 4.485997 -6.395431 2.963379 0
M  V30 59 H 4.593627 -5.177246 1.605473 0
M  V30 60 H 2.987445 -6.369334 4.459840 0
M  V30 61 H 1.628437 -5.144201 4.344138 0
M  V30 62 H 3.071474 -4.882404 5.436720 0
M  V30 END ATOM
M  V30 BEGIN BOND
M  V30 1 1 1 2
M  V30 2 1 2 3
M  V30 3 3 3 4
M  V30 4 1 4 5
M  V30 5 2 5 6
M  V30 6 1 6 7
M  V30 7 2 7 8
M  V30 8 1 8 9
M  V30 9 2 9 10
M  V30 10 1 10 11
M  V30 11 1 11 12
M  V30 12 2 12 13
M  V30 13 1 13 14
M  V30 14 1 8 15
M  V30 15 1 15 16
M  V30 16 1 16 17
M  V30 17 1 15 18
M  V30 18 2 18 19
M  V30 19 1 19 20
M  V30 20 1 20 21
M  V30 21 1 21 22
M  V30 22 1 22 23
M  V30 23 2 23 24
M  V30 24 1 24 25
M  V30 25 2 25 26
M  V30 26 1 26 27
M  V30 27 2 27 28
M  V30 28 1 22 29
M  V30 29 1 29 30
M  V30 30 1 30 31
M  V30 31 2 20 32
M  V30 32 1 2 33
M  V30 33 1 2 34
M  V30 34 1 32 5
M  V30 35 1 18 6
M  V30 36 1 28 23
M  V30 37 1 13 9
M  V30 38 1 1 35
M  V30 39 1 14 36
M  V30 40 1 14 37
M  V30 41 1 16 38
M  V30 42 1 16 39
M  V30 43 1 17 40
M  V30 44 1 17 41
M  V30 45 1 17 42
M  V30 46 1 19 43
M  V30 47 1 22 44 CFG=3
M  V30 48 1 24 45
M  V30 49 1 25 46
M  V30 50 1 26 47
M  V30 51 1 27 48
M  V30 52 1 28 49
M  V30 53 1 29 50
M  V30 54 1 29 51
M  V30 55 1 30 52
M  V30 56 1 30 53
M  V30 57 1 31 54
M  V30 58 1 31 55
M  V30 59 1 31 56
M  V30 60 1 33 57
M  V30 61 1 33 58
M  V30 62 1 33 59
M  V30 63 1 34 60
M  V30 64 1 34 61
M  V30 65 1 34 62
M  V30 END BOND
M  V30 END CTAB
M  END
>  <Dataset>  (158) 
PDB

>  <Ligand_Instance>  (158) 
3E8E_G98_B_351

>  <PDB_ID>  (158) 
3E8E

>  <Standardized_SMILES>  (158) 
[H]OC(C#CC1=C2N=C(C3=NON=C3N([H])[H])N(C([H])([H])C([H])([H])[H])C2=C([H])C(O[C@]([H])(C2=C([H])C([H])=C([H])C([H])=C2[H])C([H])([H])C([H])([H])[N+]([H])([H])[H])=N1)(C([H])([H])[H])C([H])([H])[H]

>  <Name>  (158) 
4-[2-(4-amino-2,5-dihydro-1,2,5-oxadiazol-3-yl)-6-{[(1S)-3-amino-1-phenylpropyl]oxy}-1-ethyl-1H-imidazo[4,5-c]pyridin-4-yl]-2-methylbut-3-yn-2-ol

>  <Pocket>  (158) 
A, B

>  <ATP_Site>  (158) 
1.0

>  <Peripheral>  (158) 
0.0

>  <Num_H_Atoms_ProtBoundConf>  (158) 
28.0

>  <Num_Resolved_Atoms>  (158) 
34.0

>  <Num_Not_Resolved_Atoms>  (158) 
0.0

>  <2D_Mol_H>  (158) 
<rdkit.Chem.rdchem.Mol object at 0x72a238da7220>

>  <MW>  (158) 
462.534

>  <HBA>  (158) 
9

>  <HBD>  (158) 
3

>  <LogP>  (158) 
1.9579

>  <NRB>  (158) 
13

>  <TPSA>  (158) 
152.75

>  <Num_Heavy_Atoms>  (158) 
34

>  <Ro5>  (158) 
[True, True, True, True, False, False]

>  <Ro5_Fulfilled>  (158) 
False

>  <Ro3>  (158) 
[False, False, True, True]

>  <Ro3_Fulfilled>  (158) 
False

>  <Fsp3>  (158) 
0.333333

>  <Fsp3_0.42>  (158) 
False

>  <Fsp3_0.45>  (158) 
False

>  <Stereogenic_Carbons>  (158) 
1

>  <C_Atoms>  (158) 
24

>  <FCStereo>  (158) 
0.041667

>  <SPS>  (158) 
421

>  <nSPS>  (158) 
12.382353

>  <PBF>  (158) 
1.149624

>  <PBF_0.6>  (158) 
True

>  <nPBF>  (158) 
0.033812

>  <nPBF_0.016>  (158) 
True

>  <PMI1>  (158) 
3982.896652

>  <PMI2>  (158) 
7914.312622

>  <PMI3>  (158) 
10544.382082

>  <NPR1>  (158) 
0.377727

>  <NPR2>  (158) 
0.750571

>  <Sum_NPR>  (158) 
1.128298

>  <Sum_NPR_1.07>  (158) 
True

>  <Sum_NPR_1.2>  (158) 
False

>  <MaxAbsEStateIndex>  (158) 
10.164611

>  <MaxEStateIndex>  (158) 
10.164611

>  <MinAbsEStateIndex>  (158) 
0.137178

>  <MinEStateIndex>  (158) 
-1.206416

>  <qed>  (158) 
0.352378

>  <MolWt>  (158) 
462.534

>  <HeavyAtomMolWt>  (158) 
434.31

>  <ExactMolWt>  (158) 
462.224814

>  <NumValenceElectrons>  (158) 
176

>  <NumRadicalElectrons>  (158) 
0

>  <MaxPartialCharge>  (158) 
0.216801

>  <MinPartialCharge>  (158) 
-0.469138

>  <MaxAbsPartialCharge>  (158) 
0.469138

>  <MinAbsPartialCharge>  (158) 
0.216801

>  <FpDensityMorgan1>  (158) 
1.235294

>  <FpDensityMorgan2>  (158) 
2.0

>  <FpDensityMorgan3>  (158) 
2.617647

>  <BCUT2D_MWHI>  (158) 
16.564613

>  <BCUT2D_MWLOW>  (158) 
10.070283

>  <BCUT2D_CHGHI>  (158) 
2.22698

>  <BCUT2D_CHGLO>  (158) 
-2.178144

>  <BCUT2D_LOGPHI>  (158) 
2.313646

>  <BCUT2D_LOGPLOW>  (158) 
-2.504595

>  <BCUT2D_MRHI>  (158) 
5.857963

>  <BCUT2D_MRLOW>  (158) 
-0.370474

>  <AvgIpc>  (158) 
3.395169

>  <BalabanJ>  (158) 
1.887784

>  <BertzCT>  (158) 
1344.139623

>  <Chi0>  (158) 
24.294318

>  <Chi0n>  (158) 
19.447007

>  <Chi0v>  (158) 
19.447007

>  <Chi1>  (158) 
16.302175

>  <Chi1n>  (158) 
11.064403

>  <Chi1v>  (158) 
11.064403

>  <Chi2n>  (158) 
8.322995

>  <Chi2v>  (158) 
8.322995

>  <Chi3n>  (158) 
5.142699

>  <Chi3v>  (158) 
5.142699

>  <Chi4n>  (158) 
3.602013

>  <Chi4v>  (158) 
3.602013

>  <HallKierAlpha>  (158) 
-3.94

>  <Ipc>  (158) 
49735528.899362

>  <Kappa1>  (158) 
23.226004

>  <Kappa2>  (158) 
9.506395

>  <Kappa3>  (158) 
4.854172

>  <LabuteASA>  (158) 
196.458229

>  <PEOE_VSA1>  (158) 
25.877825

>  <PEOE_VSA10>  (158) 
22.915646

>  <PEOE_VSA11>  (158) 
17.336195

>  <PEOE_VSA12>  (158) 
5.879988

>  <PEOE_VSA13>  (158) 
0.0

>  <PEOE_VSA14>  (158) 
0.0

>  <PEOE_VSA2>  (158) 
0.0

>  <PEOE_VSA3>  (158) 
14.596996

>  <PEOE_VSA4>  (158) 
0.0

>  <PEOE_VSA5>  (158) 
0.0

>  <PEOE_VSA6>  (158) 
36.25227

>  <PEOE_VSA7>  (158) 
42.568424

>  <PEOE_VSA8>  (158) 
19.031945

>  <PEOE_VSA9>  (158) 
12.061457

>  <SMR_VSA1>  (158) 
20.206097

>  <SMR_VSA10>  (158) 
16.851264

>  <SMR_VSA2>  (158) 
0.0

>  <SMR_VSA3>  (158) 
24.848383

>  <SMR_VSA4>  (158) 
0.0

>  <SMR_VSA5>  (158) 
45.441807

>  <SMR_VSA6>  (158) 
12.278424

>  <SMR_VSA7>  (158) 
47.655582

>  <SMR_VSA8>  (158) 
0.0

>  <SMR_VSA9>  (158) 
29.239189

>  <SlogP_VSA1>  (158) 
16.204198

>  <SlogP_VSA10>  (158) 
5.817863

>  <SlogP_VSA11>  (158) 
5.879988

>  <SlogP_VSA12>  (158) 
0.0

>  <SlogP_VSA2>  (158) 
42.100718

>  <SlogP_VSA3>  (158) 
6.544756

>  <SlogP_VSA4>  (158) 
11.840869

>  <SlogP_VSA5>  (158) 
44.553379

>  <SlogP_VSA6>  (158) 
41.027241

>  <SlogP_VSA7>  (158) 
0.0

>  <SlogP_VSA8>  (158) 
22.551734

>  <SlogP_VSA9>  (158) 
0.0

>  <EState_VSA1>  (158) 
5.601051

>  <EState_VSA10>  (158) 
5.106527

>  <EState_VSA11>  (158) 
0.0

>  <EState_VSA2>  (158) 
11.921829

>  <EState_VSA3>  (158) 
48.119284

>  <EState_VSA4>  (158) 
11.080152

>  <EState_VSA5>  (158) 
0.0

>  <EState_VSA6>  (158) 
13.847474

>  <EState_VSA7>  (158) 
47.889039

>  <EState_VSA8>  (158) 
32.871841

>  <EState_VSA9>  (158) 
20.083548

>  <VSA_EState1>  (158) 
13.06

>  <VSA_EState10>  (158) 
0.0

>  <VSA_EState2>  (158) 
9.360575

>  <VSA_EState3>  (158) 
17.746839

>  <VSA_EState4>  (158) 
11.73724

>  <VSA_EState5>  (158) 
6.798422

>  <VSA_EState6>  (158) 
11.768439

>  <VSA_EState7>  (158) 
0.486112

>  <VSA_EState8>  (158) 
6.459039

>  <VSA_EState9>  (158) 
0.0

>  <FractionCSP3>  (158) 
0.333333

>  <HeavyAtomCount>  (158) 
34

>  <NHOHCount>  (158) 
6

>  <NOCount>  (158) 
10

>  <NumAliphaticCarbocycles>  (158) 
0

>  <NumAliphaticHeterocycles>  (158) 
0

>  <NumAliphaticRings>  (158) 
0

>  <NumAromaticCarbocycles>  (158) 
1

>  <NumAromaticHeterocycles>  (158) 
3

>  <NAR>  (158) 
4

>  <NumHAcceptors>  (158) 
9

>  <NumHDonors>  (158) 
3

>  <NumHeteroatoms>  (158) 
10

>  <NumRotatableBonds>  (158) 
7

>  <NumSaturatedCarbocycles>  (158) 
0

>  <NumSaturatedHeterocycles>  (158) 
0

>  <NumSaturatedRings>  (158) 
0

>  <RingCount>  (158) 
4

>  <MolLogP>  (158) 
1.9579

>  <MolMR>  (158) 
126.2653

>  <fr_Al_COO>  (158) 
0

>  <fr_Al_OH>  (158) 
1

>  <fr_Al_OH_noTert>  (158) 
0

>  <fr_ArN>  (158) 
1

>  <fr_Ar_COO>  (158) 
0

>  <fr_Ar_N>  (158) 
5

>  <fr_Ar_NH>  (158) 
0

>  <fr_Ar_OH>  (158) 
0

>  <fr_COO>  (158) 
0

>  <fr_COO2>  (158) 
0

>  <fr_C_O>  (158) 
0

>  <fr_C_O_noCOO>  (158) 
0

>  <fr_C_S>  (158) 
0

>  <fr_HOCCN>  (158) 
0

>  <fr_Imine>  (158) 
0

>  <fr_NH0>  (158) 
5

>  <fr_NH1>  (158) 
0

>  <fr_NH2>  (158) 
1

>  <fr_N_O>  (158) 
0

>  <fr_Ndealkylation1>  (158) 
0

>  <fr_Ndealkylation2>  (158) 
0

>  <fr_Nhpyrrole>  (158) 
0

>  <fr_SH>  (158) 
0

>  <fr_aldehyde>  (158) 
0

>  <fr_alkyl_carbamate>  (158) 
0

>  <fr_alkyl_halide>  (158) 
0

>  <fr_allylic_oxid>  (158) 
0

>  <fr_amide>  (158) 
0

>  <fr_amidine>  (158) 
0

>  <fr_aniline>  (158) 
1

>  <fr_aryl_methyl>  (158) 
1

>  <fr_azide>  (158) 
0

>  <fr_azo>  (158) 
0

>  <fr_barbitur>  (158) 
0

>  <fr_benzene>  (158) 
1

>  <fr_benzodiazepine>  (158) 
0

>  <fr_bicyclic>  (158) 
1

>  <fr_diazo>  (158) 
0

>  <fr_dihydropyridine>  (158) 
0

>  <fr_epoxide>  (158) 
0

>  <fr_ester>  (158) 
0

>  <fr_ether>  (158) 
1

>  <fr_furan>  (158) 
0

>  <fr_guanido>  (158) 
0

>  <fr_halogen>  (158) 
0

>  <fr_hdrzine>  (158) 
0

>  <fr_hdrzone>  (158) 
0

>  <fr_imidazole>  (158) 
1

>  <fr_imide>  (158) 
0

>  <fr_isocyan>  (158) 
0

>  <fr_isothiocyan>  (158) 
0

>  <fr_ketone>  (158) 
0

>  <fr_ketone_Topliss>  (158) 
0

>  <fr_lactam>  (158) 
0

>  <fr_lactone>  (158) 
0

>  <fr_methoxy>  (158) 
0

>  <fr_morpholine>  (158) 
0

>  <fr_nitrile>  (158) 
0

>  <fr_nitro>  (158) 
0

>  <fr_nitro_arom>  (158) 
0

>  <fr_nitro_arom_nonortho>  (158) 
0

>  <fr_nitroso>  (158) 
0

>  <fr_oxazole>  (158) 
0

>  <fr_oxime>  (158) 
0

>  <fr_para_hydroxylation>  (158) 
0

>  <fr_phenol>  (158) 
0

>  <fr_phenol_noOrthoHbond>  (158) 
0

>  <fr_phos_acid>  (158) 
0

>  <fr_phos_ester>  (158) 
0

>  <fr_piperdine>  (158) 
0

>  <fr_piperzine>  (158) 
0

>  <fr_priamide>  (158) 
0

>  <fr_prisulfonamd>  (158) 
0

>  <fr_pyridine>  (158) 
1

>  <fr_quatN>  (158) 
1

>  <fr_sulfide>  (158) 
0

>  <fr_sulfonamd>  (158) 
0

>  <fr_sulfone>  (158) 
0

>  <fr_term_acetylene>  (158) 
0

>  <fr_tetrazole>  (158) 
0

>  <fr_thiazole>  (158) 
0

>  <fr_thiocyan>  (158) 
0

>  <fr_thiophene>  (158) 
0

>  <fr_unbrch_alkane>  (158) 
0

>  <fr_urea>  (158) 
0

>  <NP-Likeness>  (158) 
-0.661798

$$$$
G98
     RDKit          3D

  0  0  0  0  0  0  0  0  0  0999 V3000
M  V30 BEGIN CTAB
M  V30 COUNTS 62 65 0 0 0
M  V30 BEGIN ATOM
M  V30 1 O 4.662918 -4.008679 3.881011 0
M  V30 2 C 3.507100 -4.571200 3.384953 0
M  V30 3 C 2.690611 -3.594614 2.642678 0
M  V30 4 C 2.018590 -2.795457 2.039620 0
M  V30 5 C 1.210319 -1.862535 1.307245 0
M  V30 6 C 1.603682 -0.547869 1.376980 0
M  V30 7 N 2.593061 0.090096 1.986556 0
M  V30 8 C 2.548416 1.408629 1.742195 0
M  V30 9 C 3.556574 2.265534 2.331898 0
M  V30 10 N 4.588130 1.829537 3.072917 0
M  V30 11 O 5.383776 2.751188 3.476282 0
M  V30 12 N 4.929730 3.884181 3.024900 0
M  V30 13 C 3.814441 3.604806 2.324908 0
M  V30 14 N 3.103682 4.654955 1.744897 0
M  V30 15 N 1.490854 1.583667 0.949951 0
M  V30 16 C 1.030380 2.791996 0.364271 0
M  V30 17 C 0.089167 3.601601 1.228988 0
M  V30 18 C 0.890676 0.409547 0.708773 0
M  V30 19 C -0.203493 0.011041 -0.013625 0
M  V30 20 C -0.612695 -1.288177 -0.097241 0
M  V30 21 O -1.660473 -1.881376 -0.754726 0
M  V30 22 C -2.548129 -1.111685 -1.520199 0 CFG=2
M  V30 23 C -3.887163 -1.256854 -0.888688 0
M  V30 24 C -4.733045 -0.179496 -0.669973 0
M  V30 25 C -5.965840 -0.350494 -0.081961 0
M  V30 26 C -6.380288 -1.612975 0.302022 0
M  V30 27 C -5.572115 -2.688862 0.100254 0
M  V30 28 C -4.341921 -2.510136 -0.487756 0
M  V30 29 C -2.565652 -1.556149 -2.967630 0
M  V30 30 C -3.512270 -0.742239 -3.806390 0
M  V30 31 N -3.450418 -1.250294 -5.165774 0 CHG=1 VAL=4
M  V30 32 N 0.112710 -2.212788 0.574541 0
M  V30 33 C 3.935644 -5.618542 2.360938 0
M  V30 34 C 2.724876 -5.278089 4.441251 0
M  V30 35 H 4.431559 -3.431266 4.649096 0
M  V30 36 H 3.256393 5.382079 1.010543 0
M  V30 37 H 3.197085 5.402140 1.023048 0
M  V30 38 H 1.831610 3.424123 -0.006512 0
M  V30 39 H 0.372737 2.503026 -0.548861 0
M  V30 40 H 0.550678 3.564792 2.260134 0
M  V30 41 H -0.900266 3.131571 1.332301 0
M  V30 42 H 0.065985 4.657882 0.967355 0
M  V30 43 H -0.770527 0.728418 -0.537867 0
M  V30 44 H -2.315691 -0.033302 -1.537122 0
M  V30 45 H -4.398846 0.809142 -0.975026 0
M  V30 46 H -6.637604 0.492252 0.093728 0
M  V30 47 H -7.333714 -1.749776 0.757476 0
M  V30 48 H -5.910129 -3.666655 0.405562 0
M  V30 49 H -3.737639 -3.409027 -0.623915 0
M  V30 50 H -1.543504 -1.330679 -3.364036 0
M  V30 51 H -2.724633 -2.627847 -3.104459 0
M  V30 52 H -4.553111 -0.775493 -3.436050 0
M  V30 53 H -3.199129 0.320059 -3.833641 0
M  V30 54 H -3.055275 -2.214893 -5.184340 0
M  V30 55 H -2.869080 -0.639147 -5.784894 0
M  V30 56 H -4.423560 -1.259074 -5.548534 0
M  V30 57 H 3.046660 -6.100215 1.946108 0
M  V30 58 H 4.485997 -6.395431 2.963379 0
M  V30 59 H 4.593627 -5.177246 1.605473 0
M  V30 60 H 2.987445 -6.369334 4.459840 0
M  V30 61 H 1.628437 -5.144201 4.344138 0
M  V30 62 H 3.071474 -4.882404 5.436720 0
M  V30 END ATOM
M  V30 BEGIN BOND
M  V30 1 1 1 2
M  V30 2 1 2 3
M  V30 3 3 3 4
M  V30 4 1 4 5
M  V30 5 2 5 6
M  V30 6 1 6 7
M  V30 7 2 7 8
M  V30 8 1 8 9
M  V30 9 2 9 10
M  V30 10 1 10 11
M  V30 11 1 11 12
M  V30 12 2 12 13
M  V30 13 1 13 14
M  V30 14 1 8 15
M  V30 15 1 15 16
M  V30 16 1 16 17
M  V30 17 1 15 18
M  V30 18 2 18 19
M  V30 19 1 19 20
M  V30 20 1 20 21
M  V30 21 1 21 22
M  V30 22 1 22 23
M  V30 23 2 23 24
M  V30 24 1 24 25
M  V30 25 2 25 26
M  V30 26 1 26 27
M  V30 27 2 27 28
M  V30 28 1 22 29
M  V30 29 1 29 30
M  V30 30 1 30 31
M  V30 31 2 20 32
M  V30 32 1 2 33
M  V30 33 1 2 34
M  V30 34 1 32 5
M  V30 35 1 18 6
M  V30 36 1 28 23
M  V30 37 1 13 9
M  V30 38 1 1 35
M  V30 39 1 14 36
M  V30 40 1 14 37
M  V30 41 1 16 38
M  V30 42 1 16 39
M  V30 43 1 17 40
M  V30 44 1 17 41
M  V30 45 1 17 42
M  V30 46 1 19 43
M  V30 47 1 22 44 CFG=3
M  V30 48 1 24 45
M  V30 49 1 25 46
M  V30 50 1 26 47
M  V30 51 1 27 48
M  V30 52 1 28 49
M  V30 53 1 29 50
M  V30 54 1 29 51
M  V30 55 1 30 52
M  V30 56 1 30 53
M  V30 57 1 31 54
M  V30 58 1 31 55
M  V30 59 1 31 56
M  V30 60 1 33 57
M  V30 61 1 33 58
M  V30 62 1 33 59
M  V30 63 1 34 60
M  V30 64 1 34 61
M  V30 65 1 34 62
M  V30 END BOND
M  V30 END CTAB
M  END
>  <Dataset>  (159) 
PDB

>  <Ligand_Instance>  (159) 
3E8E_G98_E_351

>  <PDB_ID>  (159) 
3E8E

>  <Standardized_SMILES>  (159) 
[H]OC(C#CC1=C2N=C(C3=NON=C3N([H])[H])N(C([H])([H])C([H])([H])[H])C2=C([H])C(O[C@]([H])(C2=C([H])C([H])=C([H])C([H])=C2[H])C([H])([H])C([H])([H])[N+]([H])([H])[H])=N1)(C([H])([H])[H])C([H])([H])[H]

>  <Name>  (159) 
4-[2-(4-amino-2,5-dihydro-1,2,5-oxadiazol-3-yl)-6-{[(1S)-3-amino-1-phenylpropyl]oxy}-1-ethyl-1H-imidazo[4,5-c]pyridin-4-yl]-2-methylbut-3-yn-2-ol

>  <Pocket>  (159) 
A, B

>  <ATP_Site>  (159) 
1.0

>  <Peripheral>  (159) 
0.0

>  <Num_H_Atoms_ProtBoundConf>  (159) 
28.0

>  <Num_Resolved_Atoms>  (159) 
34.0

>  <Num_Not_Resolved_Atoms>  (159) 
0.0

>  <2D_Mol_H>  (159) 
<rdkit.Chem.rdchem.Mol object at 0x72a238da7300>

>  <MW>  (159) 
462.534

>  <HBA>  (159) 
9

>  <HBD>  (159) 
3

>  <LogP>  (159) 
1.9579

>  <NRB>  (159) 
13

>  <TPSA>  (159) 
152.75

>  <Num_Heavy_Atoms>  (159) 
34

>  <Ro5>  (159) 
[True, True, True, True, False, False]

>  <Ro5_Fulfilled>  (159) 
False

>  <Ro3>  (159) 
[False, False, True, True]

>  <Ro3_Fulfilled>  (159) 
False

>  <Fsp3>  (159) 
0.333333

>  <Fsp3_0.42>  (159) 
False

>  <Fsp3_0.45>  (159) 
False

>  <Stereogenic_Carbons>  (159) 
1

>  <C_Atoms>  (159) 
24

>  <FCStereo>  (159) 
0.041667

>  <SPS>  (159) 
421

>  <nSPS>  (159) 
12.382353

>  <PBF>  (159) 
1.149624

>  <PBF_0.6>  (159) 
True

>  <nPBF>  (159) 
0.033812

>  <nPBF_0.016>  (159) 
True

>  <PMI1>  (159) 
3982.896652

>  <PMI2>  (159) 
7914.312622

>  <PMI3>  (159) 
10544.382082

>  <NPR1>  (159) 
0.377727

>  <NPR2>  (159) 
0.750571

>  <Sum_NPR>  (159) 
1.128298

>  <Sum_NPR_1.07>  (159) 
True

>  <Sum_NPR_1.2>  (159) 
False

>  <MaxAbsEStateIndex>  (159) 
10.164611

>  <MaxEStateIndex>  (159) 
10.164611

>  <MinAbsEStateIndex>  (159) 
0.137178

>  <MinEStateIndex>  (159) 
-1.206416

>  <qed>  (159) 
0.352378

>  <MolWt>  (159) 
462.534

>  <HeavyAtomMolWt>  (159) 
434.31

>  <ExactMolWt>  (159) 
462.224814

>  <NumValenceElectrons>  (159) 
176

>  <NumRadicalElectrons>  (159) 
0

>  <MaxPartialCharge>  (159) 
0.216801

>  <MinPartialCharge>  (159) 
-0.469138

>  <MaxAbsPartialCharge>  (159) 
0.469138

>  <MinAbsPartialCharge>  (159) 
0.216801

>  <FpDensityMorgan1>  (159) 
1.235294

>  <FpDensityMorgan2>  (159) 
2.0

>  <FpDensityMorgan3>  (159) 
2.617647

>  <BCUT2D_MWHI>  (159) 
16.564613

>  <BCUT2D_MWLOW>  (159) 
10.070283

>  <BCUT2D_CHGHI>  (159) 
2.22698

>  <BCUT2D_CHGLO>  (159) 
-2.178144

>  <BCUT2D_LOGPHI>  (159) 
2.313646

>  <BCUT2D_LOGPLOW>  (159) 
-2.504595

>  <BCUT2D_MRHI>  (159) 
5.857963

>  <BCUT2D_MRLOW>  (159) 
-0.370474

>  <AvgIpc>  (159) 
3.395169

>  <BalabanJ>  (159) 
1.887784

>  <BertzCT>  (159) 
1344.139623

>  <Chi0>  (159) 
24.294318

>  <Chi0n>  (159) 
19.447007

>  <Chi0v>  (159) 
19.447007

>  <Chi1>  (159) 
16.302175

>  <Chi1n>  (159) 
11.064403

>  <Chi1v>  (159) 
11.064403

>  <Chi2n>  (159) 
8.322995

>  <Chi2v>  (159) 
8.322995

>  <Chi3n>  (159) 
5.142699

>  <Chi3v>  (159) 
5.142699

>  <Chi4n>  (159) 
3.602013

>  <Chi4v>  (159) 
3.602013

>  <HallKierAlpha>  (159) 
-3.94

>  <Ipc>  (159) 
49735528.899362

>  <Kappa1>  (159) 
23.226004

>  <Kappa2>  (159) 
9.506395

>  <Kappa3>  (159) 
4.854172

>  <LabuteASA>  (159) 
196.458229

>  <PEOE_VSA1>  (159) 
25.877825

>  <PEOE_VSA10>  (159) 
22.915646

>  <PEOE_VSA11>  (159) 
17.336195

>  <PEOE_VSA12>  (159) 
5.879988

>  <PEOE_VSA13>  (159) 
0.0

>  <PEOE_VSA14>  (159) 
0.0

>  <PEOE_VSA2>  (159) 
0.0

>  <PEOE_VSA3>  (159) 
14.596996

>  <PEOE_VSA4>  (159) 
0.0

>  <PEOE_VSA5>  (159) 
0.0

>  <PEOE_VSA6>  (159) 
36.25227

>  <PEOE_VSA7>  (159) 
42.568424

>  <PEOE_VSA8>  (159) 
19.031945

>  <PEOE_VSA9>  (159) 
12.061457

>  <SMR_VSA1>  (159) 
20.206097

>  <SMR_VSA10>  (159) 
16.851264

>  <SMR_VSA2>  (159) 
0.0

>  <SMR_VSA3>  (159) 
24.848383

>  <SMR_VSA4>  (159) 
0.0

>  <SMR_VSA5>  (159) 
45.441807

>  <SMR_VSA6>  (159) 
12.278424

>  <SMR_VSA7>  (159) 
47.655582

>  <SMR_VSA8>  (159) 
0.0

>  <SMR_VSA9>  (159) 
29.239189

>  <SlogP_VSA1>  (159) 
16.204198

>  <SlogP_VSA10>  (159) 
5.817863

>  <SlogP_VSA11>  (159) 
5.879988

>  <SlogP_VSA12>  (159) 
0.0

>  <SlogP_VSA2>  (159) 
42.100718

>  <SlogP_VSA3>  (159) 
6.544756

>  <SlogP_VSA4>  (159) 
11.840869

>  <SlogP_VSA5>  (159) 
44.553379

>  <SlogP_VSA6>  (159) 
41.027241

>  <SlogP_VSA7>  (159) 
0.0

>  <SlogP_VSA8>  (159) 
22.551734

>  <SlogP_VSA9>  (159) 
0.0

>  <EState_VSA1>  (159) 
5.601051

>  <EState_VSA10>  (159) 
5.106527

>  <EState_VSA11>  (159) 
0.0

>  <EState_VSA2>  (159) 
11.921829

>  <EState_VSA3>  (159) 
48.119284

>  <EState_VSA4>  (159) 
11.080152

>  <EState_VSA5>  (159) 
0.0

>  <EState_VSA6>  (159) 
13.847474

>  <EState_VSA7>  (159) 
47.889039

>  <EState_VSA8>  (159) 
32.871841

>  <EState_VSA9>  (159) 
20.083548

>  <VSA_EState1>  (159) 
13.06

>  <VSA_EState10>  (159) 
0.0

>  <VSA_EState2>  (159) 
9.360575

>  <VSA_EState3>  (159) 
17.746839

>  <VSA_EState4>  (159) 
11.73724

>  <VSA_EState5>  (159) 
6.798422

>  <VSA_EState6>  (159) 
11.768439

>  <VSA_EState7>  (159) 
0.486112

>  <VSA_EState8>  (159) 
6.459039

>  <VSA_EState9>  (159) 
0.0

>  <FractionCSP3>  (159) 
0.333333

>  <HeavyAtomCount>  (159) 
34

>  <NHOHCount>  (159) 
6

>  <NOCount>  (159) 
10

>  <NumAliphaticCarbocycles>  (159) 
0

>  <NumAliphaticHeterocycles>  (159) 
0

>  <NumAliphaticRings>  (159) 
0

>  <NumAromaticCarbocycles>  (159) 
1

>  <NumAromaticHeterocycles>  (159) 
3

>  <NAR>  (159) 
4

>  <NumHAcceptors>  (159) 
9

>  <NumHDonors>  (159) 
3

>  <NumHeteroatoms>  (159) 
10

>  <NumRotatableBonds>  (159) 
7

>  <NumSaturatedCarbocycles>  (159) 
0

>  <NumSaturatedHeterocycles>  (159) 
0

>  <NumSaturatedRings>  (159) 
0

>  <RingCount>  (159) 
4

>  <MolLogP>  (159) 
1.9579

>  <MolMR>  (159) 
126.2653

>  <fr_Al_COO>  (159) 
0

>  <fr_Al_OH>  (159) 
1

>  <fr_Al_OH_noTert>  (159) 
0

>  <fr_ArN>  (159) 
1

>  <fr_Ar_COO>  (159) 
0

>  <fr_Ar_N>  (159) 
5

>  <fr_Ar_NH>  (159) 
0

>  <fr_Ar_OH>  (159) 
0

>  <fr_COO>  (159) 
0

>  <fr_COO2>  (159) 
0

>  <fr_C_O>  (159) 
0

>  <fr_C_O_noCOO>  (159) 
0

>  <fr_C_S>  (159) 
0

>  <fr_HOCCN>  (159) 
0

>  <fr_Imine>  (159) 
0

>  <fr_NH0>  (159) 
5

>  <fr_NH1>  (159) 
0

>  <fr_NH2>  (159) 
1

>  <fr_N_O>  (159) 
0

>  <fr_Ndealkylation1>  (159) 
0

>  <fr_Ndealkylation2>  (159) 
0

>  <fr_Nhpyrrole>  (159) 
0

>  <fr_SH>  (159) 
0

>  <fr_aldehyde>  (159) 
0

>  <fr_alkyl_carbamate>  (159) 
0

>  <fr_alkyl_halide>  (159) 
0

>  <fr_allylic_oxid>  (159) 
0

>  <fr_amide>  (159) 
0

>  <fr_amidine>  (159) 
0

>  <fr_aniline>  (159) 
1

>  <fr_aryl_methyl>  (159) 
1

>  <fr_azide>  (159) 
0

>  <fr_azo>  (159) 
0

>  <fr_barbitur>  (159) 
0

>  <fr_benzene>  (159) 
1

>  <fr_benzodiazepine>  (159) 
0

>  <fr_bicyclic>  (159) 
1

>  <fr_diazo>  (159) 
0

>  <fr_dihydropyridine>  (159) 
0

>  <fr_epoxide>  (159) 
0

>  <fr_ester>  (159) 
0

>  <fr_ether>  (159) 
1

>  <fr_furan>  (159) 
0

>  <fr_guanido>  (159) 
0

>  <fr_halogen>  (159) 
0

>  <fr_hdrzine>  (159) 
0

>  <fr_hdrzone>  (159) 
0

>  <fr_imidazole>  (159) 
1

>  <fr_imide>  (159) 
0

>  <fr_isocyan>  (159) 
0

>  <fr_isothiocyan>  (159) 
0

>  <fr_ketone>  (159) 
0

>  <fr_ketone_Topliss>  (159) 
0

>  <fr_lactam>  (159) 
0

>  <fr_lactone>  (159) 
0

>  <fr_methoxy>  (159) 
0

>  <fr_morpholine>  (159) 
0

>  <fr_nitrile>  (159) 
0

>  <fr_nitro>  (159) 
0

>  <fr_nitro_arom>  (159) 
0

>  <fr_nitro_arom_nonortho>  (159) 
0

>  <fr_nitroso>  (159) 
0

>  <fr_oxazole>  (159) 
0

>  <fr_oxime>  (159) 
0

>  <fr_para_hydroxylation>  (159) 
0

>  <fr_phenol>  (159) 
0

>  <fr_phenol_noOrthoHbond>  (159) 
0

>  <fr_phos_acid>  (159) 
0

>  <fr_phos_ester>  (159) 
0

>  <fr_piperdine>  (159) 
0

>  <fr_piperzine>  (159) 
0

>  <fr_priamide>  (159) 
0

>  <fr_prisulfonamd>  (159) 
0

>  <fr_pyridine>  (159) 
1

>  <fr_quatN>  (159) 
1

>  <fr_sulfide>  (159) 
0

>  <fr_sulfonamd>  (159) 
0

>  <fr_sulfone>  (159) 
0

>  <fr_term_acetylene>  (159) 
0

>  <fr_tetrazole>  (159) 
0

>  <fr_thiazole>  (159) 
0

>  <fr_thiocyan>  (159) 
0

>  <fr_thiophene>  (159) 
0

>  <fr_unbrch_alkane>  (159) 
0

>  <fr_urea>  (159) 
0

>  <NP-Likeness>  (159) 
-0.661798

$$$$
G98
     RDKit          3D

  0  0  0  0  0  0  0  0  0  0999 V3000
M  V30 BEGIN CTAB
M  V30 COUNTS 62 65 0 0 0
M  V30 BEGIN ATOM
M  V30 1 O 4.662918 -4.008679 3.881011 0
M  V30 2 C 3.507100 -4.571200 3.384953 0
M  V30 3 C 2.690611 -3.594614 2.642678 0
M  V30 4 C 2.018590 -2.795457 2.039620 0
M  V30 5 C 1.210319 -1.862535 1.307245 0
M  V30 6 C 1.603682 -0.547869 1.376980 0
M  V30 7 N 2.593061 0.090096 1.986556 0
M  V30 8 C 2.548416 1.408629 1.742195 0
M  V30 9 C 3.556574 2.265534 2.331898 0
M  V30 10 N 4.588130 1.829537 3.072917 0
M  V30 11 O 5.383776 2.751188 3.476282 0
M  V30 12 N 4.929730 3.884181 3.024900 0
M  V30 13 C 3.814441 3.604806 2.324908 0
M  V30 14 N 3.103682 4.654955 1.744897 0
M  V30 15 N 1.490854 1.583667 0.949951 0
M  V30 16 C 1.030380 2.791996 0.364271 0
M  V30 17 C 0.089167 3.601601 1.228988 0
M  V30 18 C 0.890676 0.409547 0.708773 0
M  V30 19 C -0.203493 0.011041 -0.013625 0
M  V30 20 C -0.612695 -1.288177 -0.097241 0
M  V30 21 O -1.660473 -1.881376 -0.754726 0
M  V30 22 C -2.548129 -1.111685 -1.520199 0 CFG=2
M  V30 23 C -3.887163 -1.256854 -0.888688 0
M  V30 24 C -4.733045 -0.179496 -0.669973 0
M  V30 25 C -5.965840 -0.350494 -0.081961 0
M  V30 26 C -6.380288 -1.612975 0.302022 0
M  V30 27 C -5.572115 -2.688862 0.100254 0
M  V30 28 C -4.341921 -2.510136 -0.487756 0
M  V30 29 C -2.565652 -1.556149 -2.967630 0
M  V30 30 C -3.512270 -0.742239 -3.806390 0
M  V30 31 N -3.450418 -1.250294 -5.165774 0 CHG=1 VAL=4
M  V30 32 N 0.112710 -2.212788 0.574541 0
M  V30 33 C 3.935644 -5.618542 2.360938 0
M  V30 34 C 2.724876 -5.278089 4.441251 0
M  V30 35 H 4.431559 -3.431266 4.649096 0
M  V30 36 H 3.256393 5.382079 1.010543 0
M  V30 37 H 3.197085 5.402140 1.023048 0
M  V30 38 H 1.831610 3.424123 -0.006512 0
M  V30 39 H 0.372737 2.503026 -0.548861 0
M  V30 40 H 0.550678 3.564792 2.260134 0
M  V30 41 H -0.900266 3.131571 1.332301 0
M  V30 42 H 0.065985 4.657882 0.967355 0
M  V30 43 H -0.770527 0.728418 -0.537867 0
M  V30 44 H -2.315691 -0.033302 -1.537122 0
M  V30 45 H -4.398846 0.809142 -0.975026 0
M  V30 46 H -6.637604 0.492252 0.093728 0
M  V30 47 H -7.333714 -1.749776 0.757476 0
M  V30 48 H -5.910129 -3.666655 0.405562 0
M  V30 49 H -3.737639 -3.409027 -0.623915 0
M  V30 50 H -1.543504 -1.330679 -3.364036 0
M  V30 51 H -2.724633 -2.627847 -3.104459 0
M  V30 52 H -4.553111 -0.775493 -3.436050 0
M  V30 53 H -3.199129 0.320059 -3.833641 0
M  V30 54 H -3.055275 -2.214893 -5.184340 0
M  V30 55 H -2.869080 -0.639147 -5.784894 0
M  V30 56 H -4.423560 -1.259074 -5.548534 0
M  V30 57 H 3.046660 -6.100215 1.946108 0
M  V30 58 H 4.485997 -6.395431 2.963379 0
M  V30 59 H 4.593627 -5.177246 1.605473 0
M  V30 60 H 2.987445 -6.369334 4.459840 0
M  V30 61 H 1.628437 -5.144201 4.344138 0
M  V30 62 H 3.071474 -4.882404 5.436720 0
M  V30 END ATOM
M  V30 BEGIN BOND
M  V30 1 1 1 2
M  V30 2 1 2 3
M  V30 3 3 3 4
M  V30 4 1 4 5
M  V30 5 2 5 6
M  V30 6 1 6 7
M  V30 7 2 7 8
M  V30 8 1 8 9
M  V30 9 2 9 10
M  V30 10 1 10 11
M  V30 11 1 11 12
M  V30 12 2 12 13
M  V30 13 1 13 14
M  V30 14 1 8 15
M  V30 15 1 15 16
M  V30 16 1 16 17
M  V30 17 1 15 18
M  V30 18 2 18 19
M  V30 19 1 19 20
M  V30 20 1 20 21
M  V30 21 1 21 22
M  V30 22 1 22 23
M  V30 23 2 23 24
M  V30 24 1 24 25
M  V30 25 2 25 26
M  V30 26 1 26 27
M  V30 27 2 27 28
M  V30 28 1 22 29
M  V30 29 1 29 30
M  V30 30 1 30 31
M  V30 31 2 20 32
M  V30 32 1 2 33
M  V30 33 1 2 34
M  V30 34 1 32 5
M  V30 35 1 18 6
M  V30 36 1 28 23
M  V30 37 1 13 9
M  V30 38 1 1 35
M  V30 39 1 14 36
M  V30 40 1 14 37
M  V30 41 1 16 38
M  V30 42 1 16 39
M  V30 43 1 17 40
M  V30 44 1 17 41
M  V30 45 1 17 42
M  V30 46 1 19 43
M  V30 47 1 22 44 CFG=3
M  V30 48 1 24 45
M  V30 49 1 25 46
M  V30 50 1 26 47
M  V30 51 1 27 48
M  V30 52 1 28 49
M  V30 53 1 29 50
M  V30 54 1 29 51
M  V30 55 1 30 52
M  V30 56 1 30 53
M  V30 57 1 31 54
M  V30 58 1 31 55
M  V30 59 1 31 56
M  V30 60 1 33 57
M  V30 61 1 33 58
M  V30 62 1 33 59
M  V30 63 1 34 60
M  V30 64 1 34 61
M  V30 65 1 34 62
M  V30 END BOND
M  V30 END CTAB
M  END
>  <Dataset>  (160) 
PDB

>  <Ligand_Instance>  (160) 
3E8E_G98_I_351

>  <PDB_ID>  (160) 
3E8E

>  <Standardized_SMILES>  (160) 
[H]OC(C#CC1=C2N=C(C3=NON=C3N([H])[H])N(C([H])([H])C([H])([H])[H])C2=C([H])C(O[C@]([H])(C2=C([H])C([H])=C([H])C([H])=C2[H])C([H])([H])C([H])([H])[N+]([H])([H])[H])=N1)(C([H])([H])[H])C([H])([H])[H]

>  <Name>  (160) 
4-[2-(4-amino-2,5-dihydro-1,2,5-oxadiazol-3-yl)-6-{[(1S)-3-amino-1-phenylpropyl]oxy}-1-ethyl-1H-imidazo[4,5-c]pyridin-4-yl]-2-methylbut-3-yn-2-ol

>  <Pocket>  (160) 
A, B

>  <ATP_Site>  (160) 
1.0

>  <Peripheral>  (160) 
0.0

>  <Num_H_Atoms_ProtBoundConf>  (160) 
28.0

>  <Num_Resolved_Atoms>  (160) 
34.0

>  <Num_Not_Resolved_Atoms>  (160) 
0.0

>  <2D_Mol_H>  (160) 
<rdkit.Chem.rdchem.Mol object at 0x72a238da73e0>

>  <MW>  (160) 
462.534

>  <HBA>  (160) 
9

>  <HBD>  (160) 
3

>  <LogP>  (160) 
1.9579

>  <NRB>  (160) 
13

>  <TPSA>  (160) 
152.75

>  <Num_Heavy_Atoms>  (160) 
34

>  <Ro5>  (160) 
[True, True, True, True, False, False]

>  <Ro5_Fulfilled>  (160) 
False

>  <Ro3>  (160) 
[False, False, True, True]

>  <Ro3_Fulfilled>  (160) 
False

>  <Fsp3>  (160) 
0.333333

>  <Fsp3_0.42>  (160) 
False

>  <Fsp3_0.45>  (160) 
False

>  <Stereogenic_Carbons>  (160) 
1

>  <C_Atoms>  (160) 
24

>  <FCStereo>  (160) 
0.041667

>  <SPS>  (160) 
421

>  <nSPS>  (160) 
12.382353

>  <PBF>  (160) 
1.149624

>  <PBF_0.6>  (160) 
True

>  <nPBF>  (160) 
0.033812

>  <nPBF_0.016>  (160) 
True

>  <PMI1>  (160) 
3982.896652

>  <PMI2>  (160) 
7914.312622

>  <PMI3>  (160) 
10544.382082

>  <NPR1>  (160) 
0.377727

>  <NPR2>  (160) 
0.750571

>  <Sum_NPR>  (160) 
1.128298

>  <Sum_NPR_1.07>  (160) 
True

>  <Sum_NPR_1.2>  (160) 
False

>  <MaxAbsEStateIndex>  (160) 
10.164611

>  <MaxEStateIndex>  (160) 
10.164611

>  <MinAbsEStateIndex>  (160) 
0.137178

>  <MinEStateIndex>  (160) 
-1.206416

>  <qed>  (160) 
0.352378

>  <MolWt>  (160) 
462.534

>  <HeavyAtomMolWt>  (160) 
434.31

>  <ExactMolWt>  (160) 
462.224814

>  <NumValenceElectrons>  (160) 
176

>  <NumRadicalElectrons>  (160) 
0

>  <MaxPartialCharge>  (160) 
0.216801

>  <MinPartialCharge>  (160) 
-0.469138

>  <MaxAbsPartialCharge>  (160) 
0.469138

>  <MinAbsPartialCharge>  (160) 
0.216801

>  <FpDensityMorgan1>  (160) 
1.235294

>  <FpDensityMorgan2>  (160) 
2.0

>  <FpDensityMorgan3>  (160) 
2.617647

>  <BCUT2D_MWHI>  (160) 
16.564613

>  <BCUT2D_MWLOW>  (160) 
10.070283

>  <BCUT2D_CHGHI>  (160) 
2.22698

>  <BCUT2D_CHGLO>  (160) 
-2.178144

>  <BCUT2D_LOGPHI>  (160) 
2.313646

>  <BCUT2D_LOGPLOW>  (160) 
-2.504595

>  <BCUT2D_MRHI>  (160) 
5.857963

>  <BCUT2D_MRLOW>  (160) 
-0.370474

>  <AvgIpc>  (160) 
3.395169

>  <BalabanJ>  (160) 
1.887784

>  <BertzCT>  (160) 
1344.139623

>  <Chi0>  (160) 
24.294318

>  <Chi0n>  (160) 
19.447007

>  <Chi0v>  (160) 
19.447007

>  <Chi1>  (160) 
16.302175

>  <Chi1n>  (160) 
11.064403

>  <Chi1v>  (160) 
11.064403

>  <Chi2n>  (160) 
8.322995

>  <Chi2v>  (160) 
8.322995

>  <Chi3n>  (160) 
5.142699

>  <Chi3v>  (160) 
5.142699

>  <Chi4n>  (160) 
3.602013

>  <Chi4v>  (160) 
3.602013

>  <HallKierAlpha>  (160) 
-3.94

>  <Ipc>  (160) 
49735528.899362

>  <Kappa1>  (160) 
23.226004

>  <Kappa2>  (160) 
9.506395

>  <Kappa3>  (160) 
4.854172

>  <LabuteASA>  (160) 
196.458229

>  <PEOE_VSA1>  (160) 
25.877825

>  <PEOE_VSA10>  (160) 
22.915646

>  <PEOE_VSA11>  (160) 
17.336195

>  <PEOE_VSA12>  (160) 
5.879988

>  <PEOE_VSA13>  (160) 
0.0

>  <PEOE_VSA14>  (160) 
0.0

>  <PEOE_VSA2>  (160) 
0.0

>  <PEOE_VSA3>  (160) 
14.596996

>  <PEOE_VSA4>  (160) 
0.0

>  <PEOE_VSA5>  (160) 
0.0

>  <PEOE_VSA6>  (160) 
36.25227

>  <PEOE_VSA7>  (160) 
42.568424

>  <PEOE_VSA8>  (160) 
19.031945

>  <PEOE_VSA9>  (160) 
12.061457

>  <SMR_VSA1>  (160) 
20.206097

>  <SMR_VSA10>  (160) 
16.851264

>  <SMR_VSA2>  (160) 
0.0

>  <SMR_VSA3>  (160) 
24.848383

>  <SMR_VSA4>  (160) 
0.0

>  <SMR_VSA5>  (160) 
45.441807

>  <SMR_VSA6>  (160) 
12.278424

>  <SMR_VSA7>  (160) 
47.655582

>  <SMR_VSA8>  (160) 
0.0

>  <SMR_VSA9>  (160) 
29.239189

>  <SlogP_VSA1>  (160) 
16.204198

>  <SlogP_VSA10>  (160) 
5.817863

>  <SlogP_VSA11>  (160) 
5.879988

>  <SlogP_VSA12>  (160) 
0.0

>  <SlogP_VSA2>  (160) 
42.100718

>  <SlogP_VSA3>  (160) 
6.544756

>  <SlogP_VSA4>  (160) 
11.840869

>  <SlogP_VSA5>  (160) 
44.553379

>  <SlogP_VSA6>  (160) 
41.027241

>  <SlogP_VSA7>  (160) 
0.0

>  <SlogP_VSA8>  (160) 
22.551734

>  <SlogP_VSA9>  (160) 
0.0

>  <EState_VSA1>  (160) 
5.601051

>  <EState_VSA10>  (160) 
5.106527

>  <EState_VSA11>  (160) 
0.0

>  <EState_VSA2>  (160) 
11.921829

>  <EState_VSA3>  (160) 
48.119284

>  <EState_VSA4>  (160) 
11.080152

>  <EState_VSA5>  (160) 
0.0

>  <EState_VSA6>  (160) 
13.847474

>  <EState_VSA7>  (160) 
47.889039

>  <EState_VSA8>  (160) 
32.871841

>  <EState_VSA9>  (160) 
20.083548

>  <VSA_EState1>  (160) 
13.06

>  <VSA_EState10>  (160) 
0.0

>  <VSA_EState2>  (160) 
9.360575

>  <VSA_EState3>  (160) 
17.746839

>  <VSA_EState4>  (160) 
11.73724

>  <VSA_EState5>  (160) 
6.798422

>  <VSA_EState6>  (160) 
11.768439

>  <VSA_EState7>  (160) 
0.486112

>  <VSA_EState8>  (160) 
6.459039

>  <VSA_EState9>  (160) 
0.0

>  <FractionCSP3>  (160) 
0.333333

>  <HeavyAtomCount>  (160) 
34

>  <NHOHCount>  (160) 
6

>  <NOCount>  (160) 
10

>  <NumAliphaticCarbocycles>  (160) 
0

>  <NumAliphaticHeterocycles>  (160) 
0

>  <NumAliphaticRings>  (160) 
0

>  <NumAromaticCarbocycles>  (160) 
1

>  <NumAromaticHeterocycles>  (160) 
3

>  <NAR>  (160) 
4

>  <NumHAcceptors>  (160) 
9

>  <NumHDonors>  (160) 
3

>  <NumHeteroatoms>  (160) 
10

>  <NumRotatableBonds>  (160) 
7

>  <NumSaturatedCarbocycles>  (160) 
0

>  <NumSaturatedHeterocycles>  (160) 
0

>  <NumSaturatedRings>  (160) 
0

>  <RingCount>  (160) 
4

>  <MolLogP>  (160) 
1.9579

>  <MolMR>  (160) 
126.2653

>  <fr_Al_COO>  (160) 
0

>  <fr_Al_OH>  (160) 
1

>  <fr_Al_OH_noTert>  (160) 
0

>  <fr_ArN>  (160) 
1

>  <fr_Ar_COO>  (160) 
0

>  <fr_Ar_N>  (160) 
5

>  <fr_Ar_NH>  (160) 
0

>  <fr_Ar_OH>  (160) 
0

>  <fr_COO>  (160) 
0

>  <fr_COO2>  (160) 
0

>  <fr_C_O>  (160) 
0

>  <fr_C_O_noCOO>  (160) 
0

>  <fr_C_S>  (160) 
0

>  <fr_HOCCN>  (160) 
0

>  <fr_Imine>  (160) 
0

>  <fr_NH0>  (160) 
5

>  <fr_NH1>  (160) 
0

>  <fr_NH2>  (160) 
1

>  <fr_N_O>  (160) 
0

>  <fr_Ndealkylation1>  (160) 
0

>  <fr_Ndealkylation2>  (160) 
0

>  <fr_Nhpyrrole>  (160) 
0

>  <fr_SH>  (160) 
0

>  <fr_aldehyde>  (160) 
0

>  <fr_alkyl_carbamate>  (160) 
0

>  <fr_alkyl_halide>  (160) 
0

>  <fr_allylic_oxid>  (160) 
0

>  <fr_amide>  (160) 
0

>  <fr_amidine>  (160) 
0

>  <fr_aniline>  (160) 
1

>  <fr_aryl_methyl>  (160) 
1

>  <fr_azide>  (160) 
0

>  <fr_azo>  (160) 
0

>  <fr_barbitur>  (160) 
0

>  <fr_benzene>  (160) 
1

>  <fr_benzodiazepine>  (160) 
0

>  <fr_bicyclic>  (160) 
1

>  <fr_diazo>  (160) 
0

>  <fr_dihydropyridine>  (160) 
0

>  <fr_epoxide>  (160) 
0

>  <fr_ester>  (160) 
0

>  <fr_ether>  (160) 
1

>  <fr_furan>  (160) 
0

>  <fr_guanido>  (160) 
0

>  <fr_halogen>  (160) 
0

>  <fr_hdrzine>  (160) 
0

>  <fr_hdrzone>  (160) 
0

>  <fr_imidazole>  (160) 
1

>  <fr_imide>  (160) 
0

>  <fr_isocyan>  (160) 
0

>  <fr_isothiocyan>  (160) 
0

>  <fr_ketone>  (160) 
0

>  <fr_ketone_Topliss>  (160) 
0

>  <fr_lactam>  (160) 
0

>  <fr_lactone>  (160) 
0

>  <fr_methoxy>  (160) 
0

>  <fr_morpholine>  (160) 
0

>  <fr_nitrile>  (160) 
0

>  <fr_nitro>  (160) 
0

>  <fr_nitro_arom>  (160) 
0

>  <fr_nitro_arom_nonortho>  (160) 
0

>  <fr_nitroso>  (160) 
0

>  <fr_oxazole>  (160) 
0

>  <fr_oxime>  (160) 
0

>  <fr_para_hydroxylation>  (160) 
0

>  <fr_phenol>  (160) 
0

>  <fr_phenol_noOrthoHbond>  (160) 
0

>  <fr_phos_acid>  (160) 
0

>  <fr_phos_ester>  (160) 
0

>  <fr_piperdine>  (160) 
0

>  <fr_piperzine>  (160) 
0

>  <fr_priamide>  (160) 
0

>  <fr_prisulfonamd>  (160) 
0

>  <fr_pyridine>  (160) 
1

>  <fr_quatN>  (160) 
1

>  <fr_sulfide>  (160) 
0

>  <fr_sulfonamd>  (160) 
0

>  <fr_sulfone>  (160) 
0

>  <fr_term_acetylene>  (160) 
0

>  <fr_tetrazole>  (160) 
0

>  <fr_thiazole>  (160) 
0

>  <fr_thiocyan>  (160) 
0

>  <fr_thiophene>  (160) 
0

>  <fr_unbrch_alkane>  (160) 
0

>  <fr_urea>  (160) 
0

>  <NP-Likeness>  (160) 
-0.661798

$$$$
G98
     RDKit          3D

  0  0  0  0  0  0  0  0  0  0999 V3000
M  V30 BEGIN CTAB
M  V30 COUNTS 62 65 0 0 0
M  V30 BEGIN ATOM
M  V30 1 O 4.662918 -4.008679 3.881011 0
M  V30 2 C 3.507100 -4.571200 3.384953 0
M  V30 3 C 2.690611 -3.594614 2.642678 0
M  V30 4 C 2.018590 -2.795457 2.039620 0
M  V30 5 C 1.210319 -1.862535 1.307245 0
M  V30 6 C 1.603682 -0.547869 1.376980 0
M  V30 7 N 2.593061 0.090096 1.986556 0
M  V30 8 C 2.548416 1.408629 1.742195 0
M  V30 9 C 3.556574 2.265534 2.331898 0
M  V30 10 N 4.588130 1.829537 3.072917 0
M  V30 11 O 5.383776 2.751188 3.476282 0
M  V30 12 N 4.929730 3.884181 3.024900 0
M  V30 13 C 3.814441 3.604806 2.324908 0
M  V30 14 N 3.103682 4.654955 1.744897 0
M  V30 15 N 1.490854 1.583667 0.949951 0
M  V30 16 C 1.030380 2.791996 0.364271 0
M  V30 17 C 0.089167 3.601601 1.228988 0
M  V30 18 C 0.890676 0.409547 0.708773 0
M  V30 19 C -0.203493 0.011041 -0.013625 0
M  V30 20 C -0.612695 -1.288177 -0.097241 0
M  V30 21 O -1.660473 -1.881376 -0.754726 0
M  V30 22 C -2.548129 -1.111685 -1.520199 0 CFG=2
M  V30 23 C -3.887163 -1.256854 -0.888688 0
M  V30 24 C -4.733045 -0.179496 -0.669973 0
M  V30 25 C -5.965840 -0.350494 -0.081961 0
M  V30 26 C -6.380288 -1.612975 0.302022 0
M  V30 27 C -5.572115 -2.688862 0.100254 0
M  V30 28 C -4.341921 -2.510136 -0.487756 0
M  V30 29 C -2.565652 -1.556149 -2.967630 0
M  V30 30 C -3.512270 -0.742239 -3.806390 0
M  V30 31 N -3.450418 -1.250294 -5.165774 0 CHG=1 VAL=4
M  V30 32 N 0.112710 -2.212788 0.574541 0
M  V30 33 C 3.935644 -5.618542 2.360938 0
M  V30 34 C 2.724876 -5.278089 4.441251 0
M  V30 35 H 4.431559 -3.431266 4.649096 0
M  V30 36 H 3.256393 5.382079 1.010543 0
M  V30 37 H 3.197085 5.402140 1.023048 0
M  V30 38 H 1.831610 3.424123 -0.006512 0
M  V30 39 H 0.372737 2.503026 -0.548861 0
M  V30 40 H 0.550678 3.564792 2.260134 0
M  V30 41 H -0.900266 3.131571 1.332301 0
M  V30 42 H 0.065985 4.657882 0.967355 0
M  V30 43 H -0.770527 0.728418 -0.537867 0
M  V30 44 H -2.315691 -0.033302 -1.537122 0
M  V30 45 H -4.398846 0.809142 -0.975026 0
M  V30 46 H -6.637604 0.492252 0.093728 0
M  V30 47 H -7.333714 -1.749776 0.757476 0
M  V30 48 H -5.910129 -3.666655 0.405562 0
M  V30 49 H -3.737639 -3.409027 -0.623915 0
M  V30 50 H -1.543504 -1.330679 -3.364036 0
M  V30 51 H -2.724633 -2.627847 -3.104459 0
M  V30 52 H -4.553111 -0.775493 -3.436050 0
M  V30 53 H -3.199129 0.320059 -3.833641 0
M  V30 54 H -3.055275 -2.214893 -5.184340 0
M  V30 55 H -2.869080 -0.639147 -5.784894 0
M  V30 56 H -4.423560 -1.259074 -5.548534 0
M  V30 57 H 3.046660 -6.100215 1.946108 0
M  V30 58 H 4.485997 -6.395431 2.963379 0
M  V30 59 H 4.593627 -5.177246 1.605473 0
M  V30 60 H 2.987445 -6.369334 4.459840 0
M  V30 61 H 1.628437 -5.144201 4.344138 0
M  V30 62 H 3.071474 -4.882404 5.436720 0
M  V30 END ATOM
M  V30 BEGIN BOND
M  V30 1 1 1 2
M  V30 2 1 2 3
M  V30 3 3 3 4
M  V30 4 1 4 5
M  V30 5 2 5 6
M  V30 6 1 6 7
M  V30 7 2 7 8
M  V30 8 1 8 9
M  V30 9 2 9 10
M  V30 10 1 10 11
M  V30 11 1 11 12
M  V30 12 2 12 13
M  V30 13 1 13 14
M  V30 14 1 8 15
M  V30 15 1 15 16
M  V30 16 1 16 17
M  V30 17 1 15 18
M  V30 18 2 18 19
M  V30 19 1 19 20
M  V30 20 1 20 21
M  V30 21 1 21 22
M  V30 22 1 22 23
M  V30 23 2 23 24
M  V30 24 1 24 25
M  V30 25 2 25 26
M  V30 26 1 26 27
M  V30 27 2 27 28
M  V30 28 1 22 29
M  V30 29 1 29 30
M  V30 30 1 30 31
M  V30 31 2 20 32
M  V30 32 1 2 33
M  V30 33 1 2 34
M  V30 34 1 32 5
M  V30 35 1 18 6
M  V30 36 1 28 23
M  V30 37 1 13 9
M  V30 38 1 1 35
M  V30 39 1 14 36
M  V30 40 1 14 37
M  V30 41 1 16 38
M  V30 42 1 16 39
M  V30 43 1 17 40
M  V30 44 1 17 41
M  V30 45 1 17 42
M  V30 46 1 19 43
M  V30 47 1 22 44 CFG=3
M  V30 48 1 24 45
M  V30 49 1 25 46
M  V30 50 1 26 47
M  V30 51 1 27 48
M  V30 52 1 28 49
M  V30 53 1 29 50
M  V30 54 1 29 51
M  V30 55 1 30 52
M  V30 56 1 30 53
M  V30 57 1 31 54
M  V30 58 1 31 55
M  V30 59 1 31 56
M  V30 60 1 33 57
M  V30 61 1 33 58
M  V30 62 1 33 59
M  V30 63 1 34 60
M  V30 64 1 34 61
M  V30 65 1 34 62
M  V30 END BOND
M  V30 END CTAB
M  END
>  <Dataset>  (161) 
PDB

>  <Ligand_Instance>  (161) 
3E8E_G98_L_351

>  <PDB_ID>  (161) 
3E8E

>  <Standardized_SMILES>  (161) 
[H]OC(C#CC1=C2N=C(C3=NON=C3N([H])[H])N(C([H])([H])C([H])([H])[H])C2=C([H])C(O[C@]([H])(C2=C([H])C([H])=C([H])C([H])=C2[H])C([H])([H])C([H])([H])[N+]([H])([H])[H])=N1)(C([H])([H])[H])C([H])([H])[H]

>  <Name>  (161) 
4-[2-(4-amino-2,5-dihydro-1,2,5-oxadiazol-3-yl)-6-{[(1S)-3-amino-1-phenylpropyl]oxy}-1-ethyl-1H-imidazo[4,5-c]pyridin-4-yl]-2-methylbut-3-yn-2-ol

>  <Pocket>  (161) 
A, B

>  <ATP_Site>  (161) 
1.0

>  <Peripheral>  (161) 
0.0

>  <Num_H_Atoms_ProtBoundConf>  (161) 
28.0

>  <Num_Resolved_Atoms>  (161) 
34.0

>  <Num_Not_Resolved_Atoms>  (161) 
0.0

>  <2D_Mol_H>  (161) 
<rdkit.Chem.rdchem.Mol object at 0x72a238da74c0>

>  <MW>  (161) 
462.534

>  <HBA>  (161) 
9

>  <HBD>  (161) 
3

>  <LogP>  (161) 
1.9579

>  <NRB>  (161) 
13

>  <TPSA>  (161) 
152.75

>  <Num_Heavy_Atoms>  (161) 
34

>  <Ro5>  (161) 
[True, True, True, True, False, False]

>  <Ro5_Fulfilled>  (161) 
False

>  <Ro3>  (161) 
[False, False, True, True]

>  <Ro3_Fulfilled>  (161) 
False

>  <Fsp3>  (161) 
0.333333

>  <Fsp3_0.42>  (161) 
False

>  <Fsp3_0.45>  (161) 
False

>  <Stereogenic_Carbons>  (161) 
1

>  <C_Atoms>  (161) 
24

>  <FCStereo>  (161) 
0.041667

>  <SPS>  (161) 
421

>  <nSPS>  (161) 
12.382353

>  <PBF>  (161) 
1.149624

>  <PBF_0.6>  (161) 
True

>  <nPBF>  (161) 
0.033812

>  <nPBF_0.016>  (161) 
True

>  <PMI1>  (161) 
3982.896652

>  <PMI2>  (161) 
7914.312622

>  <PMI3>  (161) 
10544.382082

>  <NPR1>  (161) 
0.377727

>  <NPR2>  (161) 
0.750571

>  <Sum_NPR>  (161) 
1.128298

>  <Sum_NPR_1.07>  (161) 
True

>  <Sum_NPR_1.2>  (161) 
False

>  <MaxAbsEStateIndex>  (161) 
10.164611

>  <MaxEStateIndex>  (161) 
10.164611

>  <MinAbsEStateIndex>  (161) 
0.137178

>  <MinEStateIndex>  (161) 
-1.206416

>  <qed>  (161) 
0.352378

>  <MolWt>  (161) 
462.534

>  <HeavyAtomMolWt>  (161) 
434.31

>  <ExactMolWt>  (161) 
462.224814

>  <NumValenceElectrons>  (161) 
176

>  <NumRadicalElectrons>  (161) 
0

>  <MaxPartialCharge>  (161) 
0.216801

>  <MinPartialCharge>  (161) 
-0.469138

>  <MaxAbsPartialCharge>  (161) 
0.469138

>  <MinAbsPartialCharge>  (161) 
0.216801

>  <FpDensityMorgan1>  (161) 
1.235294

>  <FpDensityMorgan2>  (161) 
2.0

>  <FpDensityMorgan3>  (161) 
2.617647

>  <BCUT2D_MWHI>  (161) 
16.564613

>  <BCUT2D_MWLOW>  (161) 
10.070283

>  <BCUT2D_CHGHI>  (161) 
2.22698

>  <BCUT2D_CHGLO>  (161) 
-2.178144

>  <BCUT2D_LOGPHI>  (161) 
2.313646

>  <BCUT2D_LOGPLOW>  (161) 
-2.504595

>  <BCUT2D_MRHI>  (161) 
5.857963

>  <BCUT2D_MRLOW>  (161) 
-0.370474

>  <AvgIpc>  (161) 
3.395169

>  <BalabanJ>  (161) 
1.887784

>  <BertzCT>  (161) 
1344.139623

>  <Chi0>  (161) 
24.294318

>  <Chi0n>  (161) 
19.447007

>  <Chi0v>  (161) 
19.447007

>  <Chi1>  (161) 
16.302175

>  <Chi1n>  (161) 
11.064403

>  <Chi1v>  (161) 
11.064403

>  <Chi2n>  (161) 
8.322995

>  <Chi2v>  (161) 
8.322995

>  <Chi3n>  (161) 
5.142699

>  <Chi3v>  (161) 
5.142699

>  <Chi4n>  (161) 
3.602013

>  <Chi4v>  (161) 
3.602013

>  <HallKierAlpha>  (161) 
-3.94

>  <Ipc>  (161) 
49735528.899362

>  <Kappa1>  (161) 
23.226004

>  <Kappa2>  (161) 
9.506395

>  <Kappa3>  (161) 
4.854172

>  <LabuteASA>  (161) 
196.458229

>  <PEOE_VSA1>  (161) 
25.877825

>  <PEOE_VSA10>  (161) 
22.915646

>  <PEOE_VSA11>  (161) 
17.336195

>  <PEOE_VSA12>  (161) 
5.879988

>  <PEOE_VSA13>  (161) 
0.0

>  <PEOE_VSA14>  (161) 
0.0

>  <PEOE_VSA2>  (161) 
0.0

>  <PEOE_VSA3>  (161) 
14.596996

>  <PEOE_VSA4>  (161) 
0.0

>  <PEOE_VSA5>  (161) 
0.0

>  <PEOE_VSA6>  (161) 
36.25227

>  <PEOE_VSA7>  (161) 
42.568424

>  <PEOE_VSA8>  (161) 
19.031945

>  <PEOE_VSA9>  (161) 
12.061457

>  <SMR_VSA1>  (161) 
20.206097

>  <SMR_VSA10>  (161) 
16.851264

>  <SMR_VSA2>  (161) 
0.0

>  <SMR_VSA3>  (161) 
24.848383

>  <SMR_VSA4>  (161) 
0.0

>  <SMR_VSA5>  (161) 
45.441807

>  <SMR_VSA6>  (161) 
12.278424

>  <SMR_VSA7>  (161) 
47.655582

>  <SMR_VSA8>  (161) 
0.0

>  <SMR_VSA9>  (161) 
29.239189

>  <SlogP_VSA1>  (161) 
16.204198

>  <SlogP_VSA10>  (161) 
5.817863

>  <SlogP_VSA11>  (161) 
5.879988

>  <SlogP_VSA12>  (161) 
0.0

>  <SlogP_VSA2>  (161) 
42.100718

>  <SlogP_VSA3>  (161) 
6.544756

>  <SlogP_VSA4>  (161) 
11.840869

>  <SlogP_VSA5>  (161) 
44.553379

>  <SlogP_VSA6>  (161) 
41.027241

>  <SlogP_VSA7>  (161) 
0.0

>  <SlogP_VSA8>  (161) 
22.551734

>  <SlogP_VSA9>  (161) 
0.0

>  <EState_VSA1>  (161) 
5.601051

>  <EState_VSA10>  (161) 
5.106527

>  <EState_VSA11>  (161) 
0.0

>  <EState_VSA2>  (161) 
11.921829

>  <EState_VSA3>  (161) 
48.119284

>  <EState_VSA4>  (161) 
11.080152

>  <EState_VSA5>  (161) 
0.0

>  <EState_VSA6>  (161) 
13.847474

>  <EState_VSA7>  (161) 
47.889039

>  <EState_VSA8>  (161) 
32.871841

>  <EState_VSA9>  (161) 
20.083548

>  <VSA_EState1>  (161) 
13.06

>  <VSA_EState10>  (161) 
0.0

>  <VSA_EState2>  (161) 
9.360575

>  <VSA_EState3>  (161) 
17.746839

>  <VSA_EState4>  (161) 
11.73724

>  <VSA_EState5>  (161) 
6.798422

>  <VSA_EState6>  (161) 
11.768439

>  <VSA_EState7>  (161) 
0.486112

>  <VSA_EState8>  (161) 
6.459039

>  <VSA_EState9>  (161) 
0.0

>  <FractionCSP3>  (161) 
0.333333

>  <HeavyAtomCount>  (161) 
34

>  <NHOHCount>  (161) 
6

>  <NOCount>  (161) 
10

>  <NumAliphaticCarbocycles>  (161) 
0

>  <NumAliphaticHeterocycles>  (161) 
0

>  <NumAliphaticRings>  (161) 
0

>  <NumAromaticCarbocycles>  (161) 
1

>  <NumAromaticHeterocycles>  (161) 
3

>  <NAR>  (161) 
4

>  <NumHAcceptors>  (161) 
9

>  <NumHDonors>  (161) 
3

>  <NumHeteroatoms>  (161) 
10

>  <NumRotatableBonds>  (161) 
7

>  <NumSaturatedCarbocycles>  (161) 
0

>  <NumSaturatedHeterocycles>  (161) 
0

>  <NumSaturatedRings>  (161) 
0

>  <RingCount>  (161) 
4

>  <MolLogP>  (161) 
1.9579

>  <MolMR>  (161) 
126.2653

>  <fr_Al_COO>  (161) 
0

>  <fr_Al_OH>  (161) 
1

>  <fr_Al_OH_noTert>  (161) 
0

>  <fr_ArN>  (161) 
1

>  <fr_Ar_COO>  (161) 
0

>  <fr_Ar_N>  (161) 
5

>  <fr_Ar_NH>  (161) 
0

>  <fr_Ar_OH>  (161) 
0

>  <fr_COO>  (161) 
0

>  <fr_COO2>  (161) 
0

>  <fr_C_O>  (161) 
0

>  <fr_C_O_noCOO>  (161) 
0

>  <fr_C_S>  (161) 
0

>  <fr_HOCCN>  (161) 
0

>  <fr_Imine>  (161) 
0

>  <fr_NH0>  (161) 
5

>  <fr_NH1>  (161) 
0

>  <fr_NH2>  (161) 
1

>  <fr_N_O>  (161) 
0

>  <fr_Ndealkylation1>  (161) 
0

>  <fr_Ndealkylation2>  (161) 
0

>  <fr_Nhpyrrole>  (161) 
0

>  <fr_SH>  (161) 
0

>  <fr_aldehyde>  (161) 
0

>  <fr_alkyl_carbamate>  (161) 
0

>  <fr_alkyl_halide>  (161) 
0

>  <fr_allylic_oxid>  (161) 
0

>  <fr_amide>  (161) 
0

>  <fr_amidine>  (161) 
0

>  <fr_aniline>  (161) 
1

>  <fr_aryl_methyl>  (161) 
1

>  <fr_azide>  (161) 
0

>  <fr_azo>  (161) 
0

>  <fr_barbitur>  (161) 
0

>  <fr_benzene>  (161) 
1

>  <fr_benzodiazepine>  (161) 
0

>  <fr_bicyclic>  (161) 
1

>  <fr_diazo>  (161) 
0

>  <fr_dihydropyridine>  (161) 
0

>  <fr_epoxide>  (161) 
0

>  <fr_ester>  (161) 
0

>  <fr_ether>  (161) 
1

>  <fr_furan>  (161) 
0

>  <fr_guanido>  (161) 
0

>  <fr_halogen>  (161) 
0

>  <fr_hdrzine>  (161) 
0

>  <fr_hdrzone>  (161) 
0

>  <fr_imidazole>  (161) 
1

>  <fr_imide>  (161) 
0

>  <fr_isocyan>  (161) 
0

>  <fr_isothiocyan>  (161) 
0

>  <fr_ketone>  (161) 
0

>  <fr_ketone_Topliss>  (161) 
0

>  <fr_lactam>  (161) 
0

>  <fr_lactone>  (161) 
0

>  <fr_methoxy>  (161) 
0

>  <fr_morpholine>  (161) 
0

>  <fr_nitrile>  (161) 
0

>  <fr_nitro>  (161) 
0

>  <fr_nitro_arom>  (161) 
0

>  <fr_nitro_arom_nonortho>  (161) 
0

>  <fr_nitroso>  (161) 
0

>  <fr_oxazole>  (161) 
0

>  <fr_oxime>  (161) 
0

>  <fr_para_hydroxylation>  (161) 
0

>  <fr_phenol>  (161) 
0

>  <fr_phenol_noOrthoHbond>  (161) 
0

>  <fr_phos_acid>  (161) 
0

>  <fr_phos_ester>  (161) 
0

>  <fr_piperdine>  (161) 
0

>  <fr_piperzine>  (161) 
0

>  <fr_priamide>  (161) 
0

>  <fr_prisulfonamd>  (161) 
0

>  <fr_pyridine>  (161) 
1

>  <fr_quatN>  (161) 
1

>  <fr_sulfide>  (161) 
0

>  <fr_sulfonamd>  (161) 
0

>  <fr_sulfone>  (161) 
0

>  <fr_term_acetylene>  (161) 
0

>  <fr_tetrazole>  (161) 
0

>  <fr_thiazole>  (161) 
0

>  <fr_thiocyan>  (161) 
0

>  <fr_thiophene>  (161) 
0

>  <fr_unbrch_alkane>  (161) 
0

>  <fr_urea>  (161) 
0

>  <NP-Likeness>  (161) 
-0.661798

$$$$
G98
     RDKit          3D

  0  0  0  0  0  0  0  0  0  0999 V3000
M  V30 BEGIN CTAB
M  V30 COUNTS 62 65 0 0 0
M  V30 BEGIN ATOM
M  V30 1 O 4.662918 -4.008679 3.881011 0
M  V30 2 C 3.507100 -4.571200 3.384953 0
M  V30 3 C 2.690611 -3.594614 2.642678 0
M  V30 4 C 2.018590 -2.795457 2.039620 0
M  V30 5 C 1.210319 -1.862535 1.307245 0
M  V30 6 C 1.603682 -0.547869 1.376980 0
M  V30 7 N 2.593061 0.090096 1.986556 0
M  V30 8 C 2.548416 1.408629 1.742195 0
M  V30 9 C 3.556574 2.265534 2.331898 0
M  V30 10 N 4.588130 1.829537 3.072917 0
M  V30 11 O 5.383776 2.751188 3.476282 0
M  V30 12 N 4.929730 3.884181 3.024900 0
M  V30 13 C 3.814441 3.604806 2.324908 0
M  V30 14 N 3.103682 4.654955 1.744897 0
M  V30 15 N 1.490854 1.583667 0.949951 0
M  V30 16 C 1.030380 2.791996 0.364271 0
M  V30 17 C 0.089167 3.601601 1.228988 0
M  V30 18 C 0.890676 0.409547 0.708773 0
M  V30 19 C -0.203493 0.011041 -0.013625 0
M  V30 20 C -0.612695 -1.288177 -0.097241 0
M  V30 21 O -1.660473 -1.881376 -0.754726 0
M  V30 22 C -2.548129 -1.111685 -1.520199 0 CFG=2
M  V30 23 C -3.887163 -1.256854 -0.888688 0
M  V30 24 C -4.733045 -0.179496 -0.669973 0
M  V30 25 C -5.965840 -0.350494 -0.081961 0
M  V30 26 C -6.380288 -1.612975 0.302022 0
M  V30 27 C -5.572115 -2.688862 0.100254 0
M  V30 28 C -4.341921 -2.510136 -0.487756 0
M  V30 29 C -2.565652 -1.556149 -2.967630 0
M  V30 30 C -3.512270 -0.742239 -3.806390 0
M  V30 31 N -3.450418 -1.250294 -5.165774 0 CHG=1 VAL=4
M  V30 32 N 0.112710 -2.212788 0.574541 0
M  V30 33 C 3.935644 -5.618542 2.360938 0
M  V30 34 C 2.724876 -5.278089 4.441251 0
M  V30 35 H 4.431559 -3.431266 4.649096 0
M  V30 36 H 3.256393 5.382079 1.010543 0
M  V30 37 H 3.197085 5.402140 1.023048 0
M  V30 38 H 1.831610 3.424123 -0.006512 0
M  V30 39 H 0.372737 2.503026 -0.548861 0
M  V30 40 H 0.550678 3.564792 2.260134 0
M  V30 41 H -0.900266 3.131571 1.332301 0
M  V30 42 H 0.065985 4.657882 0.967355 0
M  V30 43 H -0.770527 0.728418 -0.537867 0
M  V30 44 H -2.315691 -0.033302 -1.537122 0
M  V30 45 H -4.398846 0.809142 -0.975026 0
M  V30 46 H -6.637604 0.492252 0.093728 0
M  V30 47 H -7.333714 -1.749776 0.757476 0
M  V30 48 H -5.910129 -3.666655 0.405562 0
M  V30 49 H -3.737639 -3.409027 -0.623915 0
M  V30 50 H -1.543504 -1.330679 -3.364036 0
M  V30 51 H -2.724633 -2.627847 -3.104459 0
M  V30 52 H -4.553111 -0.775493 -3.436050 0
M  V30 53 H -3.199129 0.320059 -3.833641 0
M  V30 54 H -3.055275 -2.214893 -5.184340 0
M  V30 55 H -2.869080 -0.639147 -5.784894 0
M  V30 56 H -4.423560 -1.259074 -5.548534 0
M  V30 57 H 3.046660 -6.100215 1.946108 0
M  V30 58 H 4.485997 -6.395431 2.963379 0
M  V30 59 H 4.593627 -5.177246 1.605473 0
M  V30 60 H 2.987445 -6.369334 4.459840 0
M  V30 61 H 1.628437 -5.144201 4.344138 0
M  V30 62 H 3.071474 -4.882404 5.436720 0
M  V30 END ATOM
M  V30 BEGIN BOND
M  V30 1 1 1 2
M  V30 2 1 2 3
M  V30 3 3 3 4
M  V30 4 1 4 5
M  V30 5 2 5 6
M  V30 6 1 6 7
M  V30 7 2 7 8
M  V30 8 1 8 9
M  V30 9 2 9 10
M  V30 10 1 10 11
M  V30 11 1 11 12
M  V30 12 2 12 13
M  V30 13 1 13 14
M  V30 14 1 8 15
M  V30 15 1 15 16
M  V30 16 1 16 17
M  V30 17 1 15 18
M  V30 18 2 18 19
M  V30 19 1 19 20
M  V30 20 1 20 21
M  V30 21 1 21 22
M  V30 22 1 22 23
M  V30 23 2 23 24
M  V30 24 1 24 25
M  V30 25 2 25 26
M  V30 26 1 26 27
M  V30 27 2 27 28
M  V30 28 1 22 29
M  V30 29 1 29 30
M  V30 30 1 30 31
M  V30 31 2 20 32
M  V30 32 1 2 33
M  V30 33 1 2 34
M  V30 34 1 32 5
M  V30 35 1 18 6
M  V30 36 1 28 23
M  V30 37 1 13 9
M  V30 38 1 1 35
M  V30 39 1 14 36
M  V30 40 1 14 37
M  V30 41 1 16 38
M  V30 42 1 16 39
M  V30 43 1 17 40
M  V30 44 1 17 41
M  V30 45 1 17 42
M  V30 46 1 19 43
M  V30 47 1 22 44 CFG=3
M  V30 48 1 24 45
M  V30 49 1 25 46
M  V30 50 1 26 47
M  V30 51 1 27 48
M  V30 52 1 28 49
M  V30 53 1 29 50
M  V30 54 1 29 51
M  V30 55 1 30 52
M  V30 56 1 30 53
M  V30 57 1 31 54
M  V30 58 1 31 55
M  V30 59 1 31 56
M  V30 60 1 33 57
M  V30 61 1 33 58
M  V30 62 1 33 59
M  V30 63 1 34 60
M  V30 64 1 34 61
M  V30 65 1 34 62
M  V30 END BOND
M  V30 END CTAB
M  END
>  <Dataset>  (162) 
PDB

>  <Ligand_Instance>  (162) 
3E8E_G98_P_351

>  <PDB_ID>  (162) 
3E8E

>  <Standardized_SMILES>  (162) 
[H]OC(C#CC1=C2N=C(C3=NON=C3N([H])[H])N(C([H])([H])C([H])([H])[H])C2=C([H])C(O[C@]([H])(C2=C([H])C([H])=C([H])C([H])=C2[H])C([H])([H])C([H])([H])[N+]([H])([H])[H])=N1)(C([H])([H])[H])C([H])([H])[H]

>  <Name>  (162) 
4-[2-(4-amino-2,5-dihydro-1,2,5-oxadiazol-3-yl)-6-{[(1S)-3-amino-1-phenylpropyl]oxy}-1-ethyl-1H-imidazo[4,5-c]pyridin-4-yl]-2-methylbut-3-yn-2-ol

>  <Pocket>  (162) 
A, B

>  <ATP_Site>  (162) 
1.0

>  <Peripheral>  (162) 
0.0

>  <Num_H_Atoms_ProtBoundConf>  (162) 
28.0

>  <Num_Resolved_Atoms>  (162) 
34.0

>  <Num_Not_Resolved_Atoms>  (162) 
0.0

>  <2D_Mol_H>  (162) 
<rdkit.Chem.rdchem.Mol object at 0x72a238da75a0>

>  <MW>  (162) 
462.534

>  <HBA>  (162) 
9

>  <HBD>  (162) 
3

>  <LogP>  (162) 
1.9579

>  <NRB>  (162) 
13

>  <TPSA>  (162) 
152.75

>  <Num_Heavy_Atoms>  (162) 
34

>  <Ro5>  (162) 
[True, True, True, True, False, False]

>  <Ro5_Fulfilled>  (162) 
False

>  <Ro3>  (162) 
[False, False, True, True]

>  <Ro3_Fulfilled>  (162) 
False

>  <Fsp3>  (162) 
0.333333

>  <Fsp3_0.42>  (162) 
False

>  <Fsp3_0.45>  (162) 
False

>  <Stereogenic_Carbons>  (162) 
1

>  <C_Atoms>  (162) 
24

>  <FCStereo>  (162) 
0.041667

>  <SPS>  (162) 
421

>  <nSPS>  (162) 
12.382353

>  <PBF>  (162) 
1.149624

>  <PBF_0.6>  (162) 
True

>  <nPBF>  (162) 
0.033812

>  <nPBF_0.016>  (162) 
True

>  <PMI1>  (162) 
3982.896652

>  <PMI2>  (162) 
7914.312622

>  <PMI3>  (162) 
10544.382082

>  <NPR1>  (162) 
0.377727

>  <NPR2>  (162) 
0.750571

>  <Sum_NPR>  (162) 
1.128298

>  <Sum_NPR_1.07>  (162) 
True

>  <Sum_NPR_1.2>  (162) 
False

>  <MaxAbsEStateIndex>  (162) 
10.164611

>  <MaxEStateIndex>  (162) 
10.164611

>  <MinAbsEStateIndex>  (162) 
0.137178

>  <MinEStateIndex>  (162) 
-1.206416

>  <qed>  (162) 
0.352378

>  <MolWt>  (162) 
462.534

>  <HeavyAtomMolWt>  (162) 
434.31

>  <ExactMolWt>  (162) 
462.224814

>  <NumValenceElectrons>  (162) 
176

>  <NumRadicalElectrons>  (162) 
0

>  <MaxPartialCharge>  (162) 
0.216801

>  <MinPartialCharge>  (162) 
-0.469138

>  <MaxAbsPartialCharge>  (162) 
0.469138

>  <MinAbsPartialCharge>  (162) 
0.216801

>  <FpDensityMorgan1>  (162) 
1.235294

>  <FpDensityMorgan2>  (162) 
2.0

>  <FpDensityMorgan3>  (162) 
2.617647

>  <BCUT2D_MWHI>  (162) 
16.564613

>  <BCUT2D_MWLOW>  (162) 
10.070283

>  <BCUT2D_CHGHI>  (162) 
2.22698

>  <BCUT2D_CHGLO>  (162) 
-2.178144

>  <BCUT2D_LOGPHI>  (162) 
2.313646

>  <BCUT2D_LOGPLOW>  (162) 
-2.504595

>  <BCUT2D_MRHI>  (162) 
5.857963

>  <BCUT2D_MRLOW>  (162) 
-0.370474

>  <AvgIpc>  (162) 
3.395169

>  <BalabanJ>  (162) 
1.887784

>  <BertzCT>  (162) 
1344.139623

>  <Chi0>  (162) 
24.294318

>  <Chi0n>  (162) 
19.447007

>  <Chi0v>  (162) 
19.447007

>  <Chi1>  (162) 
16.302175

>  <Chi1n>  (162) 
11.064403

>  <Chi1v>  (162) 
11.064403

>  <Chi2n>  (162) 
8.322995

>  <Chi2v>  (162) 
8.322995

>  <Chi3n>  (162) 
5.142699

>  <Chi3v>  (162) 
5.142699

>  <Chi4n>  (162) 
3.602013

>  <Chi4v>  (162) 
3.602013

>  <HallKierAlpha>  (162) 
-3.94

>  <Ipc>  (162) 
49735528.899362

>  <Kappa1>  (162) 
23.226004

>  <Kappa2>  (162) 
9.506395

>  <Kappa3>  (162) 
4.854172

>  <LabuteASA>  (162) 
196.458229

>  <PEOE_VSA1>  (162) 
25.877825

>  <PEOE_VSA10>  (162) 
22.915646

>  <PEOE_VSA11>  (162) 
17.336195

>  <PEOE_VSA12>  (162) 
5.879988

>  <PEOE_VSA13>  (162) 
0.0

>  <PEOE_VSA14>  (162) 
0.0

>  <PEOE_VSA2>  (162) 
0.0

>  <PEOE_VSA3>  (162) 
14.596996

>  <PEOE_VSA4>  (162) 
0.0

>  <PEOE_VSA5>  (162) 
0.0

>  <PEOE_VSA6>  (162) 
36.25227

>  <PEOE_VSA7>  (162) 
42.568424

>  <PEOE_VSA8>  (162) 
19.031945

>  <PEOE_VSA9>  (162) 
12.061457

>  <SMR_VSA1>  (162) 
20.206097

>  <SMR_VSA10>  (162) 
16.851264

>  <SMR_VSA2>  (162) 
0.0

>  <SMR_VSA3>  (162) 
24.848383

>  <SMR_VSA4>  (162) 
0.0

>  <SMR_VSA5>  (162) 
45.441807

>  <SMR_VSA6>  (162) 
12.278424

>  <SMR_VSA7>  (162) 
47.655582

>  <SMR_VSA8>  (162) 
0.0

>  <SMR_VSA9>  (162) 
29.239189

>  <SlogP_VSA1>  (162) 
16.204198

>  <SlogP_VSA10>  (162) 
5.817863

>  <SlogP_VSA11>  (162) 
5.879988

>  <SlogP_VSA12>  (162) 
0.0

>  <SlogP_VSA2>  (162) 
42.100718

>  <SlogP_VSA3>  (162) 
6.544756

>  <SlogP_VSA4>  (162) 
11.840869

>  <SlogP_VSA5>  (162) 
44.553379

>  <SlogP_VSA6>  (162) 
41.027241

>  <SlogP_VSA7>  (162) 
0.0

>  <SlogP_VSA8>  (162) 
22.551734

>  <SlogP_VSA9>  (162) 
0.0

>  <EState_VSA1>  (162) 
5.601051

>  <EState_VSA10>  (162) 
5.106527

>  <EState_VSA11>  (162) 
0.0

>  <EState_VSA2>  (162) 
11.921829

>  <EState_VSA3>  (162) 
48.119284

>  <EState_VSA4>  (162) 
11.080152

>  <EState_VSA5>  (162) 
0.0

>  <EState_VSA6>  (162) 
13.847474

>  <EState_VSA7>  (162) 
47.889039

>  <EState_VSA8>  (162) 
32.871841

>  <EState_VSA9>  (162) 
20.083548

>  <VSA_EState1>  (162) 
13.06

>  <VSA_EState10>  (162) 
0.0

>  <VSA_EState2>  (162) 
9.360575

>  <VSA_EState3>  (162) 
17.746839

>  <VSA_EState4>  (162) 
11.73724

>  <VSA_EState5>  (162) 
6.798422

>  <VSA_EState6>  (162) 
11.768439

>  <VSA_EState7>  (162) 
0.486112

>  <VSA_EState8>  (162) 
6.459039

>  <VSA_EState9>  (162) 
0.0

>  <FractionCSP3>  (162) 
0.333333

>  <HeavyAtomCount>  (162) 
34

>  <NHOHCount>  (162) 
6

>  <NOCount>  (162) 
10

>  <NumAliphaticCarbocycles>  (162) 
0

>  <NumAliphaticHeterocycles>  (162) 
0

>  <NumAliphaticRings>  (162) 
0

>  <NumAromaticCarbocycles>  (162) 
1

>  <NumAromaticHeterocycles>  (162) 
3

>  <NAR>  (162) 
4

>  <NumHAcceptors>  (162) 
9

>  <NumHDonors>  (162) 
3

>  <NumHeteroatoms>  (162) 
10

>  <NumRotatableBonds>  (162) 
7

>  <NumSaturatedCarbocycles>  (162) 
0

>  <NumSaturatedHeterocycles>  (162) 
0

>  <NumSaturatedRings>  (162) 
0

>  <RingCount>  (162) 
4

>  <MolLogP>  (162) 
1.9579

>  <MolMR>  (162) 
126.2653

>  <fr_Al_COO>  (162) 
0

>  <fr_Al_OH>  (162) 
1

>  <fr_Al_OH_noTert>  (162) 
0

>  <fr_ArN>  (162) 
1

>  <fr_Ar_COO>  (162) 
0

>  <fr_Ar_N>  (162) 
5

>  <fr_Ar_NH>  (162) 
0

>  <fr_Ar_OH>  (162) 
0

>  <fr_COO>  (162) 
0

>  <fr_COO2>  (162) 
0

>  <fr_C_O>  (162) 
0

>  <fr_C_O_noCOO>  (162) 
0

>  <fr_C_S>  (162) 
0

>  <fr_HOCCN>  (162) 
0

>  <fr_Imine>  (162) 
0

>  <fr_NH0>  (162) 
5

>  <fr_NH1>  (162) 
0

>  <fr_NH2>  (162) 
1

>  <fr_N_O>  (162) 
0

>  <fr_Ndealkylation1>  (162) 
0

>  <fr_Ndealkylation2>  (162) 
0

>  <fr_Nhpyrrole>  (162) 
0

>  <fr_SH>  (162) 
0

>  <fr_aldehyde>  (162) 
0

>  <fr_alkyl_carbamate>  (162) 
0

>  <fr_alkyl_halide>  (162) 
0

>  <fr_allylic_oxid>  (162) 
0

>  <fr_amide>  (162) 
0

>  <fr_amidine>  (162) 
0

>  <fr_aniline>  (162) 
1

>  <fr_aryl_methyl>  (162) 
1

>  <fr_azide>  (162) 
0

>  <fr_azo>  (162) 
0

>  <fr_barbitur>  (162) 
0

>  <fr_benzene>  (162) 
1

>  <fr_benzodiazepine>  (162) 
0

>  <fr_bicyclic>  (162) 
1

>  <fr_diazo>  (162) 
0

>  <fr_dihydropyridine>  (162) 
0

>  <fr_epoxide>  (162) 
0

>  <fr_ester>  (162) 
0

>  <fr_ether>  (162) 
1

>  <fr_furan>  (162) 
0

>  <fr_guanido>  (162) 
0

>  <fr_halogen>  (162) 
0

>  <fr_hdrzine>  (162) 
0

>  <fr_hdrzone>  (162) 
0

>  <fr_imidazole>  (162) 
1

>  <fr_imide>  (162) 
0

>  <fr_isocyan>  (162) 
0

>  <fr_isothiocyan>  (162) 
0

>  <fr_ketone>  (162) 
0

>  <fr_ketone_Topliss>  (162) 
0

>  <fr_lactam>  (162) 
0

>  <fr_lactone>  (162) 
0

>  <fr_methoxy>  (162) 
0

>  <fr_morpholine>  (162) 
0

>  <fr_nitrile>  (162) 
0

>  <fr_nitro>  (162) 
0

>  <fr_nitro_arom>  (162) 
0

>  <fr_nitro_arom_nonortho>  (162) 
0

>  <fr_nitroso>  (162) 
0

>  <fr_oxazole>  (162) 
0

>  <fr_oxime>  (162) 
0

>  <fr_para_hydroxylation>  (162) 
0

>  <fr_phenol>  (162) 
0

>  <fr_phenol_noOrthoHbond>  (162) 
0

>  <fr_phos_acid>  (162) 
0

>  <fr_phos_ester>  (162) 
0

>  <fr_piperdine>  (162) 
0

>  <fr_piperzine>  (162) 
0

>  <fr_priamide>  (162) 
0

>  <fr_prisulfonamd>  (162) 
0

>  <fr_pyridine>  (162) 
1

>  <fr_quatN>  (162) 
1

>  <fr_sulfide>  (162) 
0

>  <fr_sulfonamd>  (162) 
0

>  <fr_sulfone>  (162) 
0

>  <fr_term_acetylene>  (162) 
0

>  <fr_tetrazole>  (162) 
0

>  <fr_thiazole>  (162) 
0

>  <fr_thiocyan>  (162) 
0

>  <fr_thiophene>  (162) 
0

>  <fr_unbrch_alkane>  (162) 
0

>  <fr_urea>  (162) 
0

>  <NP-Likeness>  (162) 
-0.661798

$$$$
GAB
     RDKit          3D

  0  0  0  0  0  0  0  0  0  0999 V3000
M  V30 BEGIN CTAB
M  V30 COUNTS 17 17 0 0 0
M  V30 BEGIN ATOM
M  V30 1 O -0.846027 -2.204246 1.009631 0
M  V30 2 C 0.169528 -1.763513 1.867250 0
M  V30 3 O 0.467721 -2.456404 2.874188 0
M  V30 4 C 0.870833 -0.515449 1.592882 0
M  V30 5 C 1.865079 -0.118571 2.464172 0
M  V30 6 C 2.513512 1.066745 2.181708 0
M  V30 7 C 2.229397 1.867865 1.092998 0
M  V30 8 C 1.221795 1.418982 0.252861 0
M  V30 9 N 0.820513 2.152370 -0.919258 0
M  V30 10 C 0.526529 0.227522 0.482755 0
M  V30 11 H -1.266797 -3.136228 1.141169 0
M  V30 12 H 2.172347 -0.671411 3.353683 0
M  V30 13 H 3.296507 1.400764 2.848148 0
M  V30 14 H 2.720283 2.783609 0.862233 0
M  V30 15 H 0.168071 2.832034 -0.508452 0
M  V30 16 H 1.041897 2.113051 -1.922934 0
M  V30 17 H -0.254238 -0.090065 -0.196008 0
M  V30 END ATOM
M  V30 BEGIN BOND
M  V30 1 1 1 2
M  V30 2 2 2 3
M  V30 3 1 2 4
M  V30 4 2 4 5
M  V30 5 1 5 6
M  V30 6 2 6 7
M  V30 7 1 7 8
M  V30 8 1 8 9
M  V30 9 2 8 10
M  V30 10 1 10 4
M  V30 11 1 1 11
M  V30 12 1 5 12
M  V30 13 1 6 13
M  V30 14 1 7 14
M  V30 15 1 9 15
M  V30 16 1 9 16
M  V30 17 1 10 17
M  V30 END BOND
M  V30 END CTAB
M  END
>  <Dataset>  (163) 
PDB

>  <Ligand_Instance>  (163) 
6SPU_GAB_A_405

>  <PDB_ID>  (163) 
6SPU

>  <Standardized_SMILES>  (163) 
[H]OC(=O)C1=C([H])C([H])=C([H])C(N([H])[H])=C1[H]

>  <Name>  (163) 
3-AMINOBENZOIC ACID

>  <Pocket>  (163) 
A

>  <ATP_Site>  (163) 
1.0

>  <Peripheral>  (163) 
0.0

>  <Num_H_Atoms_ProtBoundConf>  (163) 
7.0

>  <Num_Resolved_Atoms>  (163) 
10.0

>  <Num_Not_Resolved_Atoms>  (163) 
0.0

>  <2D_Mol_H>  (163) 
<rdkit.Chem.rdchem.Mol object at 0x72a238da7680>

>  <MW>  (163) 
137.138

>  <HBA>  (163) 
3

>  <HBD>  (163) 
2

>  <LogP>  (163) 
0.967

>  <NRB>  (163) 
2

>  <TPSA>  (163) 
63.32

>  <Num_Heavy_Atoms>  (163) 
10

>  <Ro5>  (163) 
[True, True, True, True, True, True]

>  <Ro5_Fulfilled>  (163) 
True

>  <Ro3>  (163) 
[True, True, True, True]

>  <Ro3_Fulfilled>  (163) 
True

>  <Fsp3>  (163) 
0.0

>  <Fsp3_0.42>  (163) 
False

>  <Fsp3_0.45>  (163) 
False

>  <Stereogenic_Carbons>  (163) 
0

>  <C_Atoms>  (163) 
7

>  <FCStereo>  (163) 
0.0

>  <SPS>  (163) 
92

>  <nSPS>  (163) 
9.2

>  <PBF>  (163) 
0.123438

>  <PBF_0.6>  (163) 
False

>  <nPBF>  (163) 
0.012344

>  <nPBF_0.016>  (163) 
False

>  <PMI1>  (163) 
196.570373

>  <PMI2>  (163) 
523.956597

>  <PMI3>  (163) 
717.451615

>  <NPR1>  (163) 
0.273984

>  <NPR2>  (163) 
0.730302

>  <Sum_NPR>  (163) 
1.004286

>  <Sum_NPR_1.07>  (163) 
False

>  <Sum_NPR_1.2>  (163) 
False

>  <MaxAbsEStateIndex>  (163) 
10.297593

>  <MaxEStateIndex>  (163) 
10.297593

>  <MinAbsEStateIndex>  (163) 
0.222222

>  <MinEStateIndex>  (163) 
-0.951574

>  <qed>  (163) 
0.566589

>  <MolWt>  (163) 
137.138

>  <HeavyAtomMolWt>  (163) 
130.082

>  <ExactMolWt>  (163) 
137.047678

>  <NumValenceElectrons>  (163) 
52

>  <NumRadicalElectrons>  (163) 
0

>  <MaxPartialCharge>  (163) 
0.335256

>  <MinPartialCharge>  (163) 
-0.477638

>  <MaxAbsPartialCharge>  (163) 
0.477638

>  <MinAbsPartialCharge>  (163) 
0.335256

>  <FpDensityMorgan1>  (163) 
1.5

>  <FpDensityMorgan2>  (163) 
2.2

>  <FpDensityMorgan3>  (163) 
2.6

>  <BCUT2D_MWHI>  (163) 
16.36554

>  <BCUT2D_MWLOW>  (163) 
10.187308

>  <BCUT2D_CHGHI>  (163) 
1.991631

>  <BCUT2D_CHGLO>  (163) 
-1.932711

>  <BCUT2D_LOGPHI>  (163) 
2.047724

>  <BCUT2D_LOGPLOW>  (163) 
-1.961071

>  <BCUT2D_MRHI>  (163) 
5.88048

>  <BCUT2D_MRLOW>  (163) 
0.069671

>  <AvgIpc>  (163) 
1.875714

>  <BalabanJ>  (163) 
3.069899

>  <BertzCT>  (163) 
257.537949

>  <Chi0>  (163) 
7.560478

>  <Chi0n>  (163) 
5.242213

>  <Chi0v>  (163) 
5.242213

>  <Chi1>  (163) 
4.698377

>  <Chi1n>  (163) 
2.787773

>  <Chi1v>  (163) 
2.787773

>  <Chi2n>  (163) 
1.930615

>  <Chi2v>  (163) 
1.930615

>  <Chi3n>  (163) 
1.133578

>  <Chi3v>  (163) 
1.133578

>  <Chi4n>  (163) 
0.671701

>  <Chi4v>  (163) 
0.671701

>  <HallKierAlpha>  (163) 
-1.51

>  <Ipc>  (163) 
178.192787

>  <Kappa1>  (163) 
6.607786

>  <Kappa2>  (163) 
2.389633

>  <Kappa3>  (163) 
1.253905

>  <LabuteASA>  (163) 
58.091992

>  <PEOE_VSA1>  (163) 
10.840195

>  <PEOE_VSA10>  (163) 
0.0

>  <PEOE_VSA11>  (163) 
0.0

>  <PEOE_VSA12>  (163) 
0.0

>  <PEOE_VSA13>  (163) 
0.0

>  <PEOE_VSA14>  (163) 
5.969305

>  <PEOE_VSA2>  (163) 
0.0

>  <PEOE_VSA3>  (163) 
4.794537

>  <PEOE_VSA4>  (163) 
0.0

>  <PEOE_VSA5>  (163) 
0.0

>  <PEOE_VSA6>  (163) 
6.066367

>  <PEOE_VSA7>  (163) 
18.199101

>  <PEOE_VSA8>  (163) 
5.687386

>  <PEOE_VSA9>  (163) 
5.563451

>  <SMR_VSA1>  (163) 
9.901065

>  <SMR_VSA10>  (163) 
11.656692

>  <SMR_VSA2>  (163) 
0.0

>  <SMR_VSA3>  (163) 
0.0

>  <SMR_VSA4>  (163) 
0.0

>  <SMR_VSA5>  (163) 
0.0

>  <SMR_VSA6>  (163) 
5.733667

>  <SMR_VSA7>  (163) 
29.82892

>  <SMR_VSA8>  (163) 
0.0

>  <SMR_VSA9>  (163) 
0.0

>  <SlogP_VSA1>  (163) 
5.733667

>  <SlogP_VSA10>  (163) 
5.687386

>  <SlogP_VSA11>  (163) 
0.0

>  <SlogP_VSA12>  (163) 
0.0

>  <SlogP_VSA2>  (163) 
11.075833

>  <SlogP_VSA3>  (163) 
0.0

>  <SlogP_VSA4>  (163) 
0.0

>  <SlogP_VSA5>  (163) 
10.357989

>  <SlogP_VSA6>  (163) 
24.265468

>  <SlogP_VSA7>  (163) 
0.0

>  <SlogP_VSA8>  (163) 
0.0

>  <SlogP_VSA9>  (163) 
0.0

>  <EState_VSA1>  (163) 
5.969305

>  <EState_VSA10>  (163) 
4.794537

>  <EState_VSA11>  (163) 
0.0

>  <EState_VSA2>  (163) 
5.563451

>  <EState_VSA3>  (163) 
5.687386

>  <EState_VSA4>  (163) 
0.0

>  <EState_VSA5>  (163) 
12.132734

>  <EState_VSA6>  (163) 
12.132734

>  <EState_VSA7>  (163) 
0.0

>  <EState_VSA8>  (163) 
0.0

>  <EState_VSA9>  (163) 
10.840195

>  <VSA_EState1>  (163) 
0.0

>  <VSA_EState10>  (163) 
0.0

>  <VSA_EState2>  (163) 
10.297593

>  <VSA_EState3>  (163) 
8.453704

>  <VSA_EState4>  (163) 
6.027407

>  <VSA_EState5>  (163) 
-0.951574

>  <VSA_EState6>  (163) 
6.17287

>  <VSA_EState7>  (163) 
0.0

>  <VSA_EState8>  (163) 
0.0

>  <VSA_EState9>  (163) 
0.0

>  <FractionCSP3>  (163) 
0.0

>  <HeavyAtomCount>  (163) 
10

>  <NHOHCount>  (163) 
3

>  <NOCount>  (163) 
3

>  <NumAliphaticCarbocycles>  (163) 
0

>  <NumAliphaticHeterocycles>  (163) 
0

>  <NumAliphaticRings>  (163) 
0

>  <NumAromaticCarbocycles>  (163) 
1

>  <NumAromaticHeterocycles>  (163) 
0

>  <NAR>  (163) 
1

>  <NumHAcceptors>  (163) 
2

>  <NumHDonors>  (163) 
2

>  <NumHeteroatoms>  (163) 
3

>  <NumRotatableBonds>  (163) 
1

>  <NumSaturatedCarbocycles>  (163) 
0

>  <NumSaturatedHeterocycles>  (163) 
0

>  <NumSaturatedRings>  (163) 
0

>  <RingCount>  (163) 
1

>  <MolLogP>  (163) 
0.967

>  <MolMR>  (163) 
37.8137

>  <fr_Al_COO>  (163) 
0

>  <fr_Al_OH>  (163) 
0

>  <fr_Al_OH_noTert>  (163) 
0

>  <fr_ArN>  (163) 
1

>  <fr_Ar_COO>  (163) 
1

>  <fr_Ar_N>  (163) 
0

>  <fr_Ar_NH>  (163) 
0

>  <fr_Ar_OH>  (163) 
0

>  <fr_COO>  (163) 
1

>  <fr_COO2>  (163) 
1

>  <fr_C_O>  (163) 
1

>  <fr_C_O_noCOO>  (163) 
0

>  <fr_C_S>  (163) 
0

>  <fr_HOCCN>  (163) 
0

>  <fr_Imine>  (163) 
0

>  <fr_NH0>  (163) 
0

>  <fr_NH1>  (163) 
0

>  <fr_NH2>  (163) 
1

>  <fr_N_O>  (163) 
0

>  <fr_Ndealkylation1>  (163) 
0

>  <fr_Ndealkylation2>  (163) 
0

>  <fr_Nhpyrrole>  (163) 
0

>  <fr_SH>  (163) 
0

>  <fr_aldehyde>  (163) 
0

>  <fr_alkyl_carbamate>  (163) 
0

>  <fr_alkyl_halide>  (163) 
0

>  <fr_allylic_oxid>  (163) 
0

>  <fr_amide>  (163) 
0

>  <fr_amidine>  (163) 
0

>  <fr_aniline>  (163) 
1

>  <fr_aryl_methyl>  (163) 
0

>  <fr_azide>  (163) 
0

>  <fr_azo>  (163) 
0

>  <fr_barbitur>  (163) 
0

>  <fr_benzene>  (163) 
1

>  <fr_benzodiazepine>  (163) 
0

>  <fr_bicyclic>  (163) 
0

>  <fr_diazo>  (163) 
0

>  <fr_dihydropyridine>  (163) 
0

>  <fr_epoxide>  (163) 
0

>  <fr_ester>  (163) 
0

>  <fr_ether>  (163) 
0

>  <fr_furan>  (163) 
0

>  <fr_guanido>  (163) 
0

>  <fr_halogen>  (163) 
0

>  <fr_hdrzine>  (163) 
0

>  <fr_hdrzone>  (163) 
0

>  <fr_imidazole>  (163) 
0

>  <fr_imide>  (163) 
0

>  <fr_isocyan>  (163) 
0

>  <fr_isothiocyan>  (163) 
0

>  <fr_ketone>  (163) 
0

>  <fr_ketone_Topliss>  (163) 
0

>  <fr_lactam>  (163) 
0

>  <fr_lactone>  (163) 
0

>  <fr_methoxy>  (163) 
0

>  <fr_morpholine>  (163) 
0

>  <fr_nitrile>  (163) 
0

>  <fr_nitro>  (163) 
0

>  <fr_nitro_arom>  (163) 
0

>  <fr_nitro_arom_nonortho>  (163) 
0

>  <fr_nitroso>  (163) 
0

>  <fr_oxazole>  (163) 
0

>  <fr_oxime>  (163) 
0

>  <fr_para_hydroxylation>  (163) 
0

>  <fr_phenol>  (163) 
0

>  <fr_phenol_noOrthoHbond>  (163) 
0

>  <fr_phos_acid>  (163) 
0

>  <fr_phos_ester>  (163) 
0

>  <fr_piperdine>  (163) 
0

>  <fr_piperzine>  (163) 
0

>  <fr_priamide>  (163) 
0

>  <fr_prisulfonamd>  (163) 
0

>  <fr_pyridine>  (163) 
0

>  <fr_quatN>  (163) 
0

>  <fr_sulfide>  (163) 
0

>  <fr_sulfonamd>  (163) 
0

>  <fr_sulfone>  (163) 
0

>  <fr_term_acetylene>  (163) 
0

>  <fr_tetrazole>  (163) 
0

>  <fr_thiazole>  (163) 
0

>  <fr_thiocyan>  (163) 
0

>  <fr_thiophene>  (163) 
0

>  <fr_unbrch_alkane>  (163) 
0

>  <fr_urea>  (163) 
0

>  <NP-Likeness>  (163) 
-0.386335

$$$$
GGB
     RDKit          3D

  0  0  0  0  0  0  0  0  0  0999 V3000
M  V30 BEGIN CTAB
M  V30 COUNTS 13 12 0 0 0
M  V30 BEGIN ATOM
M  V30 1 H 0.712941 -2.353584 2.711928 0
M  V30 2 N 1.302327 -1.791756 2.054023 0
M  V30 3 C 0.977432 -0.620907 1.615714 0
M  V30 4 N -0.227617 0.053170 1.974741 0
M  V30 5 N 1.890939 0.031387 0.714215 0
M  V30 6 O 2.580850 -0.726137 -0.200427 0
M  V30 7 C 1.928932 -0.469364 -1.416948 0
M  V30 8 H -0.386815 0.133173 3.015680 0
M  V30 9 H -0.949614 0.464979 1.318381 0
M  V30 10 H 2.006490 1.086449 0.782079 0
M  V30 11 H 1.160094 -1.259152 -1.653956 0
M  V30 12 H 2.690966 -0.460270 -2.212431 0
M  V30 13 H 1.355744 0.485716 -1.402853 0
M  V30 END ATOM
M  V30 BEGIN BOND
M  V30 1 1 1 2
M  V30 2 2 2 3
M  V30 3 1 3 4
M  V30 4 1 3 5
M  V30 5 1 5 6
M  V30 6 1 6 7
M  V30 7 1 4 8
M  V30 8 1 4 9
M  V30 9 1 5 10
M  V30 10 1 7 11
M  V30 11 1 7 12
M  V30 12 1 7 13
M  V30 END BOND
M  V30 END CTAB
M  END
>  <Dataset>  (164) 
PDB

>  <Ligand_Instance>  (164) 
5N3K_GGB_A_401

>  <PDB_ID>  (164) 
5N3K

>  <Standardized_SMILES>  (164) 
[H]/N=C(\N([H])[H])N([H])OC([H])([H])[H]

>  <Name>  (164) 
L-CANAVANINE

>  <Pocket>  (164) 
X

>  <ATP_Site>  (164) 
0.0

>  <Peripheral>  (164) 
1.0

>  <Num_H_Atoms_ProtBoundConf>  (164) 
7.0

>  <Num_Resolved_Atoms>  (164) 
6.0

>  <Num_Not_Resolved_Atoms>  (164) 
6.0

>  <2D_Mol_H>  (164) 
<rdkit.Chem.rdchem.Mol object at 0x72a238da7760>

>  <MW>  (164) 
89.098

>  <HBA>  (164) 
2

>  <HBD>  (164) 
3

>  <LogP>  (164) 
-0.96913

>  <NRB>  (164) 
2

>  <TPSA>  (164) 
71.13

>  <Num_Heavy_Atoms>  (164) 
6

>  <Ro5>  (164) 
[True, True, True, True, True, True]

>  <Ro5_Fulfilled>  (164) 
True

>  <Ro3>  (164) 
[True, True, True, True]

>  <Ro3_Fulfilled>  (164) 
True

>  <Fsp3>  (164) 
0.5

>  <Fsp3_0.42>  (164) 
True

>  <Fsp3_0.45>  (164) 
True

>  <Stereogenic_Carbons>  (164) 
0

>  <C_Atoms>  (164) 
2

>  <FCStereo>  (164) 
0.0

>  <SPS>  (164) 
81

>  <nSPS>  (164) 
13.5

>  <PBF>  (164) 
0.514353

>  <PBF_0.6>  (164) 
False

>  <nPBF>  (164) 
0.085725

>  <nPBF_0.016>  (164) 
True

>  <PMI1>  (164) 
73.01051

>  <PMI2>  (164) 
219.499235

>  <PMI3>  (164) 
256.135049

>  <NPR1>  (164) 
0.285047

>  <NPR2>  (164) 
0.856967

>  <Sum_NPR>  (164) 
1.142014

>  <Sum_NPR_1.07>  (164) 
True

>  <Sum_NPR_1.2>  (164) 
False

>  <MaxAbsEStateIndex>  (164) 
6.232454

>  <MaxEStateIndex>  (164) 
6.232454

>  <MinAbsEStateIndex>  (164) 
0.053241

>  <MinEStateIndex>  (164) 
-0.053241

>  <qed>  (164) 
0.21975

>  <MolWt>  (164) 
89.098

>  <HeavyAtomMolWt>  (164) 
82.042

>  <ExactMolWt>  (164) 
89.058912

>  <NumValenceElectrons>  (164) 
36

>  <NumRadicalElectrons>  (164) 
0

>  <MaxPartialCharge>  (164) 
0.209686

>  <MinPartialCharge>  (164) 
-0.368421

>  <MaxAbsPartialCharge>  (164) 
0.368421

>  <MinAbsPartialCharge>  (164) 
0.209686

>  <FpDensityMorgan1>  (164) 
2.333333

>  <FpDensityMorgan2>  (164) 
3.0

>  <FpDensityMorgan3>  (164) 
3.166667

>  <BCUT2D_MWHI>  (164) 
16.635748

>  <BCUT2D_MWLOW>  (164) 
0.931262

>  <BCUT2D_CHGHI>  (164) 
1.78109

>  <BCUT2D_CHGLO>  (164) 
-1.958644

>  <BCUT2D_LOGPHI>  (164) 
1.559553

>  <BCUT2D_LOGPLOW>  (164) 
-2.295984

>  <BCUT2D_MRHI>  (164) 
5.72983

>  <BCUT2D_MRLOW>  (164) 
0.128709

>  <AvgIpc>  (164) 
1.679823

>  <BalabanJ>  (164) 
3.172976

>  <BertzCT>  (164) 
73.335159

>  <Chi0>  (164) 
5.698671

>  <Chi0n>  (164) 
4.432812

>  <Chi0v>  (164) 
3.432812

>  <Chi1>  (164) 
3.30806

>  <Chi1n>  (164) 
1.821868

>  <Chi1v>  (164) 
1.374654

>  <Chi2n>  (164) 
0.691427

>  <Chi2v>  (164) 
0.691427

>  <Chi3n>  (164) 
0.206631

>  <Chi3v>  (164) 
0.206631

>  <Chi4n>  (164) 
0.104569

>  <Chi4v>  (164) 
0.104569

>  <HallKierAlpha>  (164) 
-0.77

>  <Ipc>  (164) 
31.916635

>  <Kappa1>  (164) 
3.421205

>  <Kappa2>  (164) 
2.466407

>  <Kappa3>  (164) 
3.23

>  <LabuteASA>  (164) 
37.209908

>  <PEOE_VSA1>  (164) 
5.733667

>  <PEOE_VSA10>  (164) 
0.0

>  <PEOE_VSA11>  (164) 
1.411842

>  <PEOE_VSA12>  (164) 
5.959555

>  <PEOE_VSA13>  (164) 
0.0

>  <PEOE_VSA14>  (164) 
0.0

>  <PEOE_VSA2>  (164) 
10.239897

>  <PEOE_VSA3>  (164) 
5.480097

>  <PEOE_VSA4>  (164) 
0.0

>  <PEOE_VSA5>  (164) 
0.0

>  <PEOE_VSA6>  (164) 
0.0

>  <PEOE_VSA7>  (164) 
0.0

>  <PEOE_VSA8>  (164) 
0.0

>  <PEOE_VSA9>  (164) 
7.109798

>  <SMR_VSA1>  (164) 
6.249431

>  <SMR_VSA10>  (164) 
5.959555

>  <SMR_VSA2>  (164) 
5.402308

>  <SMR_VSA3>  (164) 
5.480097

>  <SMR_VSA4>  (164) 
5.733667

>  <SMR_VSA5>  (164) 
0.0

>  <SMR_VSA6>  (164) 
7.109798

>  <SMR_VSA7>  (164) 
0.0

>  <SMR_VSA8>  (164) 
0.0

>  <SMR_VSA9>  (164) 
0.0

>  <SlogP_VSA1>  (164) 
11.213764

>  <SlogP_VSA10>  (164) 
0.0

>  <SlogP_VSA11>  (164) 
0.0

>  <SlogP_VSA12>  (164) 
0.0

>  <SlogP_VSA2>  (164) 
13.069352

>  <SlogP_VSA3>  (164) 
4.837589

>  <SlogP_VSA4>  (164) 
5.402308

>  <SlogP_VSA5>  (164) 
0.0

>  <SlogP_VSA6>  (164) 
0.0

>  <SlogP_VSA7>  (164) 
1.411842

>  <SlogP_VSA8>  (164) 
0.0

>  <SlogP_VSA9>  (164) 
0.0

>  <EState_VSA1>  (164) 
0.0

>  <EState_VSA10>  (164) 
0.0

>  <EState_VSA11>  (164) 
0.0

>  <EState_VSA2>  (164) 
5.959555

>  <EState_VSA3>  (164) 
0.0

>  <EState_VSA4>  (164) 
0.0

>  <EState_VSA5>  (164) 
7.109798

>  <EState_VSA6>  (164) 
0.0

>  <EState_VSA7>  (164) 
0.0

>  <EState_VSA8>  (164) 
15.719994

>  <EState_VSA9>  (164) 
7.14551

>  <VSA_EState1>  (164) 
6.232454

>  <VSA_EState10>  (164) 
0.0

>  <VSA_EState2>  (164) 
4.268704

>  <VSA_EState3>  (164) 
2.786528

>  <VSA_EState4>  (164) 
7.045278

>  <VSA_EState5>  (164) 
-0.053241

>  <VSA_EState6>  (164) 
0.0

>  <VSA_EState7>  (164) 
0.0

>  <VSA_EState8>  (164) 
0.0

>  <VSA_EState9>  (164) 
1.386944

>  <FractionCSP3>  (164) 
0.5

>  <HeavyAtomCount>  (164) 
6

>  <NHOHCount>  (164) 
4

>  <NOCount>  (164) 
4

>  <NumAliphaticCarbocycles>  (164) 
0

>  <NumAliphaticHeterocycles>  (164) 
0

>  <NumAliphaticRings>  (164) 
0

>  <NumAromaticCarbocycles>  (164) 
0

>  <NumAromaticHeterocycles>  (164) 
0

>  <NAR>  (164) 
0

>  <NumHAcceptors>  (164) 
2

>  <NumHDonors>  (164) 
3

>  <NumHeteroatoms>  (164) 
4

>  <NumRotatableBonds>  (164) 
1

>  <NumSaturatedCarbocycles>  (164) 
0

>  <NumSaturatedHeterocycles>  (164) 
0

>  <NumSaturatedRings>  (164) 
0

>  <RingCount>  (164) 
0

>  <MolLogP>  (164) 
-0.96913

>  <MolMR>  (164) 
22.0588

>  <fr_Al_COO>  (164) 
0

>  <fr_Al_OH>  (164) 
0

>  <fr_Al_OH_noTert>  (164) 
0

>  <fr_ArN>  (164) 
0

>  <fr_Ar_COO>  (164) 
0

>  <fr_Ar_N>  (164) 
0

>  <fr_Ar_NH>  (164) 
0

>  <fr_Ar_OH>  (164) 
0

>  <fr_COO>  (164) 
0

>  <fr_COO2>  (164) 
0

>  <fr_C_O>  (164) 
0

>  <fr_C_O_noCOO>  (164) 
0

>  <fr_C_S>  (164) 
0

>  <fr_HOCCN>  (164) 
0

>  <fr_Imine>  (164) 
0

>  <fr_NH0>  (164) 
0

>  <fr_NH1>  (164) 
2

>  <fr_NH2>  (164) 
1

>  <fr_N_O>  (164) 
1

>  <fr_Ndealkylation1>  (164) 
0

>  <fr_Ndealkylation2>  (164) 
0

>  <fr_Nhpyrrole>  (164) 
0

>  <fr_SH>  (164) 
0

>  <fr_aldehyde>  (164) 
0

>  <fr_alkyl_carbamate>  (164) 
0

>  <fr_alkyl_halide>  (164) 
0

>  <fr_allylic_oxid>  (164) 
0

>  <fr_amide>  (164) 
0

>  <fr_amidine>  (164) 
0

>  <fr_aniline>  (164) 
0

>  <fr_aryl_methyl>  (164) 
0

>  <fr_azide>  (164) 
0

>  <fr_azo>  (164) 
0

>  <fr_barbitur>  (164) 
0

>  <fr_benzene>  (164) 
0

>  <fr_benzodiazepine>  (164) 
0

>  <fr_bicyclic>  (164) 
0

>  <fr_diazo>  (164) 
0

>  <fr_dihydropyridine>  (164) 
0

>  <fr_epoxide>  (164) 
0

>  <fr_ester>  (164) 
0

>  <fr_ether>  (164) 
0

>  <fr_furan>  (164) 
0

>  <fr_guanido>  (164) 
1

>  <fr_halogen>  (164) 
0

>  <fr_hdrzine>  (164) 
0

>  <fr_hdrzone>  (164) 
0

>  <fr_imidazole>  (164) 
0

>  <fr_imide>  (164) 
0

>  <fr_isocyan>  (164) 
0

>  <fr_isothiocyan>  (164) 
0

>  <fr_ketone>  (164) 
0

>  <fr_ketone_Topliss>  (164) 
0

>  <fr_lactam>  (164) 
0

>  <fr_lactone>  (164) 
0

>  <fr_methoxy>  (164) 
0

>  <fr_morpholine>  (164) 
0

>  <fr_nitrile>  (164) 
0

>  <fr_nitro>  (164) 
0

>  <fr_nitro_arom>  (164) 
0

>  <fr_nitro_arom_nonortho>  (164) 
0

>  <fr_nitroso>  (164) 
0

>  <fr_oxazole>  (164) 
0

>  <fr_oxime>  (164) 
0

>  <fr_para_hydroxylation>  (164) 
0

>  <fr_phenol>  (164) 
0

>  <fr_phenol_noOrthoHbond>  (164) 
0

>  <fr_phos_acid>  (164) 
0

>  <fr_phos_ester>  (164) 
0

>  <fr_piperdine>  (164) 
0

>  <fr_piperzine>  (164) 
0

>  <fr_priamide>  (164) 
0

>  <fr_prisulfonamd>  (164) 
0

>  <fr_pyridine>  (164) 
0

>  <fr_quatN>  (164) 
0

>  <fr_sulfide>  (164) 
0

>  <fr_sulfonamd>  (164) 
0

>  <fr_sulfone>  (164) 
0

>  <fr_term_acetylene>  (164) 
0

>  <fr_tetrazole>  (164) 
0

>  <fr_thiazole>  (164) 
0

>  <fr_thiocyan>  (164) 
0

>  <fr_thiophene>  (164) 
0

>  <fr_unbrch_alkane>  (164) 
0

>  <fr_urea>  (164) 
0

>  <NP-Likeness>  (164) 
-0.183118

$$$$
GVG
     RDKit          3D

  0  0  0  0  0  0  0  0  0  0999 V3000
M  V30 BEGIN CTAB
M  V30 COUNTS 22 23 0 0 0
M  V30 BEGIN ATOM
M  V30 1 C 0.925350 -1.697921 2.431947 0
M  V30 2 N 1.651177 -1.522023 3.533420 0
M  V30 3 N 1.963577 -0.258508 3.668191 0
M  V30 4 C 1.426572 0.404710 2.626635 0
M  V30 5 C 1.569660 1.859184 2.438186 0
M  V30 6 C 0.750772 -0.475827 1.805829 0
M  V30 7 C 0.029519 -0.197592 0.581914 0
M  V30 8 C 0.306276 -1.109077 -0.442392 0
M  V30 9 C -0.273256 -1.028302 -1.690885 0
M  V30 10 C -1.170189 -0.005690 -1.956802 0
M  V30 11 C -1.444490 0.892666 -0.950938 0
M  V30 12 C -0.865210 0.811243 0.295744 0
M  V30 13 H 0.515299 -2.635342 2.049073 0
M  V30 14 H 2.542549 0.089424 4.487503 0
M  V30 15 H 1.215913 2.240882 1.488364 0
M  V30 16 H 0.995999 2.349481 3.276850 0
M  V30 17 H 2.633956 2.175643 2.609130 0
M  V30 18 H 0.997926 -1.959376 -0.351944 0
M  V30 19 H -0.081070 -1.710437 -2.493491 0
M  V30 20 H -1.637928 0.076504 -2.932911 0
M  V30 21 H -2.134707 1.715534 -1.088857 0
M  V30 22 H -1.031169 1.477240 1.131691 0
M  V30 END ATOM
M  V30 BEGIN BOND
M  V30 1 2 1 2
M  V30 2 1 2 3
M  V30 3 1 3 4
M  V30 4 1 4 5
M  V30 5 2 4 6
M  V30 6 1 6 7
M  V30 7 2 7 8
M  V30 8 1 8 9
M  V30 9 2 9 10
M  V30 10 1 10 11
M  V30 11 2 11 12
M  V30 12 1 6 1
M  V30 13 1 12 7
M  V30 14 1 1 13
M  V30 15 1 3 14
M  V30 16 1 5 15
M  V30 17 1 5 16
M  V30 18 1 5 17
M  V30 19 1 8 18
M  V30 20 1 9 19
M  V30 21 1 10 20
M  V30 22 1 11 21
M  V30 23 1 12 22
M  V30 END BOND
M  V30 END CTAB
M  END
>  <Dataset>  (165) 
PDB

>  <Ligand_Instance>  (165) 
2UW3_GVG_A_1351

>  <PDB_ID>  (165) 
2UW3

>  <Standardized_SMILES>  (165) 
[H]C1=NN([H])C(C([H])([H])[H])=C1C1=C([H])C([H])=C([H])C([H])=C1[H]

>  <Name>  (165) 
3-METHYL-4-PHENYL-1H-PYRAZOLE

>  <Pocket>  (165) 
A

>  <ATP_Site>  (165) 
1.0

>  <Peripheral>  (165) 
0.0

>  <Num_H_Atoms_ProtBoundConf>  (165) 
10.0

>  <Num_Resolved_Atoms>  (165) 
12.0

>  <Num_Not_Resolved_Atoms>  (165) 
0.0

>  <2D_Mol_H>  (165) 
<rdkit.Chem.rdchem.Mol object at 0x72a238da7840>

>  <MW>  (165) 
158.204

>  <HBA>  (165) 
1

>  <HBD>  (165) 
1

>  <LogP>  (165) 
2.38512

>  <NRB>  (165) 
2

>  <TPSA>  (165) 
28.68

>  <Num_Heavy_Atoms>  (165) 
12

>  <Ro5>  (165) 
[True, True, True, True, True, True]

>  <Ro5_Fulfilled>  (165) 
True

>  <Ro3>  (165) 
[True, True, True, True]

>  <Ro3_Fulfilled>  (165) 
True

>  <Fsp3>  (165) 
0.1

>  <Fsp3_0.42>  (165) 
False

>  <Fsp3_0.45>  (165) 
False

>  <Stereogenic_Carbons>  (165) 
0

>  <C_Atoms>  (165) 
10

>  <FCStereo>  (165) 
0.0

>  <SPS>  (165) 
121

>  <nSPS>  (165) 
10.083333

>  <PBF>  (165) 
0.535385

>  <PBF_0.6>  (165) 
False

>  <nPBF>  (165) 
0.044615

>  <nPBF_0.016>  (165) 
True

>  <PMI1>  (165) 
221.8165

>  <PMI2>  (165) 
813.523445

>  <PMI3>  (165) 
972.471714

>  <NPR1>  (165) 
0.228096

>  <NPR2>  (165) 
0.836552

>  <Sum_NPR>  (165) 
1.064648

>  <Sum_NPR_1.07>  (165) 
False

>  <Sum_NPR_1.2>  (165) 
False

>  <MaxAbsEStateIndex>  (165) 
3.973093

>  <MaxEStateIndex>  (165) 
3.973093

>  <MinAbsEStateIndex>  (165) 
1.112222

>  <MinEStateIndex>  (165) 
1.112222

>  <qed>  (165) 
0.677799

>  <MolWt>  (165) 
158.204

>  <HeavyAtomMolWt>  (165) 
148.124

>  <ExactMolWt>  (165) 
158.084398

>  <NumValenceElectrons>  (165) 
60

>  <NumRadicalElectrons>  (165) 
0

>  <MaxPartialCharge>  (165) 
0.056812

>  <MinPartialCharge>  (165) 
-0.282219

>  <MaxAbsPartialCharge>  (165) 
0.282219

>  <MinAbsPartialCharge>  (165) 
0.056812

>  <FpDensityMorgan1>  (165) 
1.166667

>  <FpDensityMorgan2>  (165) 
1.916667

>  <FpDensityMorgan3>  (165) 
2.5

>  <BCUT2D_MWHI>  (165) 
15.100338

>  <BCUT2D_MWLOW>  (165) 
10.083004

>  <BCUT2D_CHGHI>  (165) 
2.003297

>  <BCUT2D_CHGLO>  (165) 
-1.960761

>  <BCUT2D_LOGPHI>  (165) 
2.194288

>  <BCUT2D_LOGPLOW>  (165) 
-1.763935

>  <BCUT2D_MRHI>  (165) 
5.639263

>  <BCUT2D_MRLOW>  (165) 
1.046885

>  <AvgIpc>  (165) 
2.530427

>  <BalabanJ>  (165) 
2.51483

>  <BertzCT>  (165) 
362.337422

>  <Chi0>  (165) 
8.388905

>  <Chi0n>  (165) 
6.911315

>  <Chi0v>  (165) 
6.911315

>  <Chi1>  (165) 
5.87701

>  <Chi1n>  (165) 
3.931164

>  <Chi1v>  (165) 
3.931164

>  <Chi2n>  (165) 
2.774703

>  <Chi2v>  (165) 
2.774703

>  <Chi3n>  (165) 
1.914704

>  <Chi3v>  (165) 
1.914704

>  <Chi4n>  (165) 
1.259453

>  <Chi4v>  (165) 
1.259453

>  <HallKierAlpha>  (165) 
-1.57

>  <Ipc>  (165) 
1072.900983

>  <Kappa1>  (165) 
7.099295

>  <Kappa2>  (165) 
2.814719

>  <Kappa3>  (165) 
1.114984

>  <LabuteASA>  (165) 
71.250701

>  <PEOE_VSA1>  (165) 
0.0

>  <PEOE_VSA10>  (165) 
0.0

>  <PEOE_VSA11>  (165) 
0.0

>  <PEOE_VSA12>  (165) 
0.0

>  <PEOE_VSA13>  (165) 
0.0

>  <PEOE_VSA14>  (165) 
0.0

>  <PEOE_VSA2>  (165) 
5.098682

>  <PEOE_VSA3>  (165) 
0.0

>  <PEOE_VSA4>  (165) 
5.098682

>  <PEOE_VSA5>  (165) 
0.0

>  <PEOE_VSA6>  (165) 
30.331835

>  <PEOE_VSA7>  (165) 
12.487189

>  <PEOE_VSA8>  (165) 
11.257379

>  <PEOE_VSA9>  (165) 
6.196844

>  <SMR_VSA1>  (165) 
0.0

>  <SMR_VSA10>  (165) 
0.0

>  <SMR_VSA2>  (165) 
0.0

>  <SMR_VSA3>  (165) 
10.197364

>  <SMR_VSA4>  (165) 
0.0

>  <SMR_VSA5>  (165) 
6.923737

>  <SMR_VSA6>  (165) 
0.0

>  <SMR_VSA7>  (165) 
42.222607

>  <SMR_VSA8>  (165) 
0.0

>  <SMR_VSA9>  (165) 
11.126903

>  <SlogP_VSA1>  (165) 
0.0

>  <SlogP_VSA10>  (165) 
0.0

>  <SlogP_VSA11>  (165) 
0.0

>  <SlogP_VSA12>  (165) 
0.0

>  <SlogP_VSA2>  (165) 
10.197364

>  <SlogP_VSA3>  (165) 
0.0

>  <SlogP_VSA4>  (165) 
6.923737

>  <SlogP_VSA5>  (165) 
5.693928

>  <SlogP_VSA6>  (165) 
36.528679

>  <SlogP_VSA7>  (165) 
0.0

>  <SlogP_VSA8>  (165) 
11.126903

>  <SlogP_VSA9>  (165) 
0.0

>  <EState_VSA1>  (165) 
0.0

>  <EState_VSA10>  (165) 
0.0

>  <EState_VSA11>  (165) 
0.0

>  <EState_VSA2>  (165) 
0.0

>  <EState_VSA3>  (165) 
0.0

>  <EState_VSA4>  (165) 
5.693928

>  <EState_VSA5>  (165) 
11.126903

>  <EState_VSA6>  (165) 
0.0

>  <EState_VSA7>  (165) 
31.319682

>  <EState_VSA8>  (165) 
22.330098

>  <EState_VSA9>  (165) 
0.0

>  <VSA_EState1>  (165) 
0.0

>  <VSA_EState10>  (165) 
0.0

>  <VSA_EState2>  (165) 
0.0

>  <VSA_EState3>  (165) 
6.890196

>  <VSA_EState4>  (165) 
3.500509

>  <VSA_EState5>  (165) 
0.0

>  <VSA_EState6>  (165) 
10.234295

>  <VSA_EState7>  (165) 
1.851852

>  <VSA_EState8>  (165) 
2.023148

>  <VSA_EState9>  (165) 
0.0

>  <FractionCSP3>  (165) 
0.1

>  <HeavyAtomCount>  (165) 
12

>  <NHOHCount>  (165) 
1

>  <NOCount>  (165) 
2

>  <NumAliphaticCarbocycles>  (165) 
0

>  <NumAliphaticHeterocycles>  (165) 
0

>  <NumAliphaticRings>  (165) 
0

>  <NumAromaticCarbocycles>  (165) 
1

>  <NumAromaticHeterocycles>  (165) 
1

>  <NAR>  (165) 
2

>  <NumHAcceptors>  (165) 
1

>  <NumHDonors>  (165) 
1

>  <NumHeteroatoms>  (165) 
2

>  <NumRotatableBonds>  (165) 
1

>  <NumSaturatedCarbocycles>  (165) 
0

>  <NumSaturatedHeterocycles>  (165) 
0

>  <NumSaturatedRings>  (165) 
0

>  <RingCount>  (165) 
2

>  <MolLogP>  (165) 
2.38512

>  <MolMR>  (165) 
48.7607

>  <fr_Al_COO>  (165) 
0

>  <fr_Al_OH>  (165) 
0

>  <fr_Al_OH_noTert>  (165) 
0

>  <fr_ArN>  (165) 
0

>  <fr_Ar_COO>  (165) 
0

>  <fr_Ar_N>  (165) 
2

>  <fr_Ar_NH>  (165) 
1

>  <fr_Ar_OH>  (165) 
0

>  <fr_COO>  (165) 
0

>  <fr_COO2>  (165) 
0

>  <fr_C_O>  (165) 
0

>  <fr_C_O_noCOO>  (165) 
0

>  <fr_C_S>  (165) 
0

>  <fr_HOCCN>  (165) 
0

>  <fr_Imine>  (165) 
0

>  <fr_NH0>  (165) 
1

>  <fr_NH1>  (165) 
1

>  <fr_NH2>  (165) 
0

>  <fr_N_O>  (165) 
0

>  <fr_Ndealkylation1>  (165) 
0

>  <fr_Ndealkylation2>  (165) 
0

>  <fr_Nhpyrrole>  (165) 
1

>  <fr_SH>  (165) 
0

>  <fr_aldehyde>  (165) 
0

>  <fr_alkyl_carbamate>  (165) 
0

>  <fr_alkyl_halide>  (165) 
0

>  <fr_allylic_oxid>  (165) 
0

>  <fr_amide>  (165) 
0

>  <fr_amidine>  (165) 
0

>  <fr_aniline>  (165) 
0

>  <fr_aryl_methyl>  (165) 
1

>  <fr_azide>  (165) 
0

>  <fr_azo>  (165) 
0

>  <fr_barbitur>  (165) 
0

>  <fr_benzene>  (165) 
1

>  <fr_benzodiazepine>  (165) 
0

>  <fr_bicyclic>  (165) 
0

>  <fr_diazo>  (165) 
0

>  <fr_dihydropyridine>  (165) 
0

>  <fr_epoxide>  (165) 
0

>  <fr_ester>  (165) 
0

>  <fr_ether>  (165) 
0

>  <fr_furan>  (165) 
0

>  <fr_guanido>  (165) 
0

>  <fr_halogen>  (165) 
0

>  <fr_hdrzine>  (165) 
0

>  <fr_hdrzone>  (165) 
0

>  <fr_imidazole>  (165) 
0

>  <fr_imide>  (165) 
0

>  <fr_isocyan>  (165) 
0

>  <fr_isothiocyan>  (165) 
0

>  <fr_ketone>  (165) 
0

>  <fr_ketone_Topliss>  (165) 
0

>  <fr_lactam>  (165) 
0

>  <fr_lactone>  (165) 
0

>  <fr_methoxy>  (165) 
0

>  <fr_morpholine>  (165) 
0

>  <fr_nitrile>  (165) 
0

>  <fr_nitro>  (165) 
0

>  <fr_nitro_arom>  (165) 
0

>  <fr_nitro_arom_nonortho>  (165) 
0

>  <fr_nitroso>  (165) 
0

>  <fr_oxazole>  (165) 
0

>  <fr_oxime>  (165) 
0

>  <fr_para_hydroxylation>  (165) 
0

>  <fr_phenol>  (165) 
0

>  <fr_phenol_noOrthoHbond>  (165) 
0

>  <fr_phos_acid>  (165) 
0

>  <fr_phos_ester>  (165) 
0

>  <fr_piperdine>  (165) 
0

>  <fr_piperzine>  (165) 
0

>  <fr_priamide>  (165) 
0

>  <fr_prisulfonamd>  (165) 
0

>  <fr_pyridine>  (165) 
0

>  <fr_quatN>  (165) 
0

>  <fr_sulfide>  (165) 
0

>  <fr_sulfonamd>  (165) 
0

>  <fr_sulfone>  (165) 
0

>  <fr_term_acetylene>  (165) 
0

>  <fr_tetrazole>  (165) 
0

>  <fr_thiazole>  (165) 
0

>  <fr_thiocyan>  (165) 
0

>  <fr_thiophene>  (165) 
0

>  <fr_unbrch_alkane>  (165) 
0

>  <fr_urea>  (165) 
0

>  <NP-Likeness>  (165) 
-1.351778

$$$$
GVN
     RDKit          3D

  0  0  0  0  0  0  0  0  0  0999 V3000
M  V30 BEGIN CTAB
M  V30 COUNTS 38 40 0 0 0
M  V30 BEGIN ATOM
M  V30 1 C -2.152362 -4.165473 3.003250 0
M  V30 2 N -2.026743 -5.012764 4.051433 0
M  V30 3 N -0.821832 -4.930304 4.564884 0
M  V30 4 C -0.062251 -4.039261 3.913405 0
M  V30 5 C -0.902607 -3.542241 2.910876 0
M  V30 6 C -0.536281 -2.532569 1.922803 0
M  V30 7 C 0.806542 -2.511992 1.530166 0
M  V30 8 C 1.209836 -1.576226 0.596825 0
M  V30 9 C 0.344622 -0.658725 0.033415 0
M  V30 10 C 0.769618 0.351200 -0.970508 0 CFG=2
M  V30 11 C 1.185351 1.572685 -0.251328 0
M  V30 12 C 2.519784 1.716220 0.140452 0
M  V30 13 C 2.939117 2.858657 0.819559 0
M  V30 14 C 2.031661 3.867764 1.113914 0
M  V30 15 Cl 2.491092 5.341752 1.970475 0
M  V30 16 C 0.691239 3.756696 0.737185 0
M  V30 17 C 0.332087 2.606587 0.068567 0
M  V30 18 C -0.284730 0.638547 -2.014333 0
M  V30 19 N -0.634526 -0.557159 -2.760701 0 CHG=1 VAL=4
M  V30 20 C -0.986666 -0.696493 0.437901 0
M  V30 21 C -1.430228 -1.631362 1.381657 0
M  V30 22 H -2.999042 -3.979573 2.359065 0
M  V30 23 H -0.513311 -5.497194 5.379894 0
M  V30 24 H 0.971433 -3.729593 4.076239 0
M  V30 25 H 1.561538 -3.179647 1.905295 0
M  V30 26 H 2.246494 -1.535444 0.271712 0
M  V30 27 H 1.663729 -0.025175 -1.546618 0
M  V30 28 H 3.249321 0.926070 -0.085338 0
M  V30 29 H 3.973816 3.004031 1.140549 0
M  V30 30 H -0.021305 4.537193 0.962234 0
M  V30 31 H -0.709274 2.539000 -0.214620 0
M  V30 32 H -1.190569 1.111856 -1.588451 0
M  V30 33 H 0.189199 1.338737 -2.733377 0
M  V30 34 H 0.150209 -0.953067 -3.282689 0
M  V30 35 H -1.379953 -0.311603 -3.448594 0
M  V30 36 H -1.000531 -1.247929 -2.056762 0
M  V30 37 H -1.735835 -0.002714 0.038440 0
M  V30 38 H -2.463920 -1.671621 1.705305 0
M  V30 END ATOM
M  V30 BEGIN BOND
M  V30 1 2 1 2
M  V30 2 1 2 3
M  V30 3 1 3 4
M  V30 4 2 4 5
M  V30 5 1 5 6
M  V30 6 2 6 7
M  V30 7 1 7 8
M  V30 8 2 8 9
M  V30 9 1 9 10
M  V30 10 1 10 11
M  V30 11 2 11 12
M  V30 12 1 12 13
M  V30 13 2 13 14
M  V30 14 1 14 15
M  V30 15 1 14 16
M  V30 16 2 16 17
M  V30 17 1 10 18
M  V30 18 1 18 19
M  V30 19 1 9 20
M  V30 20 2 20 21
M  V30 21 1 5 1
M  V30 22 1 21 6
M  V30 23 1 17 11
M  V30 24 1 1 22
M  V30 25 1 3 23
M  V30 26 1 4 24
M  V30 27 1 7 25
M  V30 28 1 8 26
M  V30 29 1 10 27 CFG=3
M  V30 30 1 12 28
M  V30 31 1 13 29
M  V30 32 1 16 30
M  V30 33 1 17 31
M  V30 34 1 18 32
M  V30 35 1 18 33
M  V30 36 1 19 34
M  V30 37 1 19 35
M  V30 38 1 19 36
M  V30 39 1 20 37
M  V30 40 1 21 38
M  V30 END BOND
M  V30 END CTAB
M  END
>  <Dataset>  (166) 
PDB

>  <Ligand_Instance>  (166) 
2UW5_GVN_A_1351

>  <PDB_ID>  (166) 
2UW5

>  <Standardized_SMILES>  (166) 
[H]C1=NN([H])C([H])=C1C1=C([H])C([H])=C([C@]([H])(C2=C([H])C([H])=C(Cl)C([H])=C2[H])C([H])([H])[N+]([H])([H])[H])C([H])=C1[H]

>  <Name>  (166) 
(2R)-2-(4-CHLOROPHENYL)-2-[4-(1H-PYRAZOL-4-YL)PHENYL]ETHANAMINE

>  <Pocket>  (166) 
A

>  <ATP_Site>  (166) 
1.0

>  <Peripheral>  (166) 
0.0

>  <Num_H_Atoms_ProtBoundConf>  (166) 
17.0

>  <Num_Resolved_Atoms>  (166) 
21.0

>  <Num_Not_Resolved_Atoms>  (166) 
0.0

>  <2D_Mol_H>  (166) 
<rdkit.Chem.rdchem.Mol object at 0x72a238da7920>

>  <MW>  (166) 
298.797

>  <HBA>  (166) 
1

>  <HBD>  (166) 
2

>  <LogP>  (166) 
3.1039

>  <NRB>  (166) 
5

>  <TPSA>  (166) 
56.32

>  <Num_Heavy_Atoms>  (166) 
21

>  <Ro5>  (166) 
[True, True, True, True, True, True]

>  <Ro5_Fulfilled>  (166) 
True

>  <Ro3>  (166) 
[True, True, True, False]

>  <Ro3_Fulfilled>  (166) 
True

>  <Fsp3>  (166) 
0.117647

>  <Fsp3_0.42>  (166) 
False

>  <Fsp3_0.45>  (166) 
False

>  <Stereogenic_Carbons>  (166) 
1

>  <C_Atoms>  (166) 
17

>  <FCStereo>  (166) 
0.058824

>  <SPS>  (166) 
258

>  <nSPS>  (166) 
12.285714

>  <PBF>  (166) 
1.018478

>  <PBF_0.6>  (166) 
True

>  <nPBF>  (166) 
0.048499

>  <nPBF_0.016>  (166) 
True

>  <PMI1>  (166) 
1097.2903

>  <PMI2>  (166) 
4097.767628

>  <PMI3>  (166) 
4754.671644

>  <NPR1>  (166) 
0.230782

>  <NPR2>  (166) 
0.86184

>  <Sum_NPR>  (166) 
1.092622

>  <Sum_NPR_1.07>  (166) 
True

>  <Sum_NPR_1.2>  (166) 
False

>  <MaxAbsEStateIndex>  (166) 
5.958895

>  <MaxEStateIndex>  (166) 
5.958895

>  <MinAbsEStateIndex>  (166) 
0.292284

>  <MinEStateIndex>  (166) 
0.292284

>  <qed>  (166) 
0.763814

>  <MolWt>  (166) 
298.797

>  <HeavyAtomMolWt>  (166) 
281.661

>  <ExactMolWt>  (166) 
298.110552

>  <NumValenceElectrons>  (166) 
106

>  <NumRadicalElectrons>  (166) 
0

>  <MaxPartialCharge>  (166) 
0.085031

>  <MinPartialCharge>  (166) 
-0.356774

>  <MaxAbsPartialCharge>  (166) 
0.356774

>  <MinAbsPartialCharge>  (166) 
0.085031

>  <FpDensityMorgan1>  (166) 
0.952381

>  <FpDensityMorgan2>  (166) 
1.571429

>  <FpDensityMorgan3>  (166) 
2.095238

>  <BCUT2D_MWHI>  (166) 
35.495691

>  <BCUT2D_MWLOW>  (166) 
9.903229

>  <BCUT2D_CHGHI>  (166) 
2.14093

>  <BCUT2D_CHGLO>  (166) 
-2.142612

>  <BCUT2D_LOGPHI>  (166) 
2.265805

>  <BCUT2D_LOGPLOW>  (166) 
-2.5265

>  <BCUT2D_MRHI>  (166) 
6.300904

>  <BCUT2D_MRLOW>  (166) 
-0.369756

>  <AvgIpc>  (166) 
3.04896

>  <BalabanJ>  (166) 
1.889579

>  <BertzCT>  (166) 
687.91486

>  <Chi0>  (166) 
14.65649

>  <Chi0n>  (166) 
11.590245

>  <Chi0v>  (166) 
12.346174

>  <Chi1>  (166) 
10.275188

>  <Chi1n>  (166) 
6.915146

>  <Chi1v>  (166) 
7.293111

>  <Chi2n>  (166) 
5.001798

>  <Chi2v>  (166) 
5.438234

>  <Chi3n>  (166) 
3.705658

>  <Chi3v>  (166) 
3.957634

>  <Chi4n>  (166) 
2.537507

>  <Chi4v>  (166) 
2.663495

>  <HallKierAlpha>  (166) 
-2.1

>  <Ipc>  (166) 
119958.270765

>  <Kappa1>  (166) 
13.863577

>  <Kappa2>  (166) 
6.121118

>  <Kappa3>  (166) 
2.990529

>  <LabuteASA>  (166) 
128.315895

>  <PEOE_VSA1>  (166) 
5.733667

>  <PEOE_VSA10>  (166) 
0.0

>  <PEOE_VSA11>  (166) 
0.0

>  <PEOE_VSA12>  (166) 
0.0

>  <PEOE_VSA13>  (166) 
0.0

>  <PEOE_VSA14>  (166) 
0.0

>  <PEOE_VSA2>  (166) 
5.098682

>  <PEOE_VSA3>  (166) 
0.0

>  <PEOE_VSA4>  (166) 
5.098682

>  <PEOE_VSA5>  (166) 
0.0

>  <PEOE_VSA6>  (166) 
47.999142

>  <PEOE_VSA7>  (166) 
28.823089

>  <PEOE_VSA8>  (166) 
16.782928

>  <PEOE_VSA9>  (166) 
18.659506

>  <SMR_VSA1>  (166) 
5.733667

>  <SMR_VSA10>  (166) 
11.60094

>  <SMR_VSA2>  (166) 
0.0

>  <SMR_VSA3>  (166) 
10.197364

>  <SMR_VSA4>  (166) 
0.0

>  <SMR_VSA5>  (166) 
5.917906

>  <SMR_VSA6>  (166) 
6.544756

>  <SMR_VSA7>  (166) 
77.07416

>  <SMR_VSA8>  (166) 
0.0

>  <SMR_VSA9>  (166) 
11.126903

>  <SlogP_VSA1>  (166) 
5.733667

>  <SlogP_VSA10>  (166) 
0.0

>  <SlogP_VSA11>  (166) 
0.0

>  <SlogP_VSA12>  (166) 
11.60094

>  <SlogP_VSA2>  (166) 
16.74212

>  <SlogP_VSA3>  (166) 
0.0

>  <SlogP_VSA4>  (166) 
0.0

>  <SlogP_VSA5>  (166) 
17.044809

>  <SlogP_VSA6>  (166) 
60.924624

>  <SlogP_VSA7>  (166) 
5.022633

>  <SlogP_VSA8>  (166) 
11.126903

>  <SlogP_VSA9>  (166) 
0.0

>  <EState_VSA1>  (166) 
0.0

>  <EState_VSA10>  (166) 
0.0

>  <EState_VSA11>  (166) 
0.0

>  <EState_VSA2>  (166) 
0.0

>  <EState_VSA3>  (166) 
5.917906

>  <EState_VSA4>  (166) 
22.694293

>  <EState_VSA5>  (166) 
11.126903

>  <EState_VSA6>  (166) 
0.0

>  <EState_VSA7>  (166) 
24.526421

>  <EState_VSA8>  (166) 
52.329234

>  <EState_VSA9>  (166) 
11.60094

>  <VSA_EState1>  (166) 
0.0

>  <VSA_EState10>  (166) 
5.958895

>  <VSA_EState2>  (166) 
0.0

>  <VSA_EState3>  (166) 
7.57698

>  <VSA_EState4>  (166) 
8.845422

>  <VSA_EState5>  (166) 
0.292284

>  <VSA_EState6>  (166) 
16.569664

>  <VSA_EState7>  (166) 
3.722342

>  <VSA_EState8>  (166) 
0.812192

>  <VSA_EState9>  (166) 
0.0

>  <FractionCSP3>  (166) 
0.117647

>  <HeavyAtomCount>  (166) 
21

>  <NHOHCount>  (166) 
4

>  <NOCount>  (166) 
3

>  <NumAliphaticCarbocycles>  (166) 
0

>  <NumAliphaticHeterocycles>  (166) 
0

>  <NumAliphaticRings>  (166) 
0

>  <NumAromaticCarbocycles>  (166) 
2

>  <NumAromaticHeterocycles>  (166) 
1

>  <NAR>  (166) 
3

>  <NumHAcceptors>  (166) 
1

>  <NumHDonors>  (166) 
2

>  <NumHeteroatoms>  (166) 
4

>  <NumRotatableBonds>  (166) 
4

>  <NumSaturatedCarbocycles>  (166) 
0

>  <NumSaturatedHeterocycles>  (166) 
0

>  <NumSaturatedRings>  (166) 
0

>  <RingCount>  (166) 
3

>  <MolLogP>  (166) 
3.1039

>  <MolMR>  (166) 
85.0738

>  <fr_Al_COO>  (166) 
0

>  <fr_Al_OH>  (166) 
0

>  <fr_Al_OH_noTert>  (166) 
0

>  <fr_ArN>  (166) 
0

>  <fr_Ar_COO>  (166) 
0

>  <fr_Ar_N>  (166) 
2

>  <fr_Ar_NH>  (166) 
1

>  <fr_Ar_OH>  (166) 
0

>  <fr_COO>  (166) 
0

>  <fr_COO2>  (166) 
0

>  <fr_C_O>  (166) 
0

>  <fr_C_O_noCOO>  (166) 
0

>  <fr_C_S>  (166) 
0

>  <fr_HOCCN>  (166) 
0

>  <fr_Imine>  (166) 
0

>  <fr_NH0>  (166) 
1

>  <fr_NH1>  (166) 
1

>  <fr_NH2>  (166) 
0

>  <fr_N_O>  (166) 
0

>  <fr_Ndealkylation1>  (166) 
0

>  <fr_Ndealkylation2>  (166) 
0

>  <fr_Nhpyrrole>  (166) 
1

>  <fr_SH>  (166) 
0

>  <fr_aldehyde>  (166) 
0

>  <fr_alkyl_carbamate>  (166) 
0

>  <fr_alkyl_halide>  (166) 
0

>  <fr_allylic_oxid>  (166) 
0

>  <fr_amide>  (166) 
0

>  <fr_amidine>  (166) 
0

>  <fr_aniline>  (166) 
0

>  <fr_aryl_methyl>  (166) 
0

>  <fr_azide>  (166) 
0

>  <fr_azo>  (166) 
0

>  <fr_barbitur>  (166) 
0

>  <fr_benzene>  (166) 
2

>  <fr_benzodiazepine>  (166) 
0

>  <fr_bicyclic>  (166) 
0

>  <fr_diazo>  (166) 
0

>  <fr_dihydropyridine>  (166) 
0

>  <fr_epoxide>  (166) 
0

>  <fr_ester>  (166) 
0

>  <fr_ether>  (166) 
0

>  <fr_furan>  (166) 
0

>  <fr_guanido>  (166) 
0

>  <fr_halogen>  (166) 
1

>  <fr_hdrzine>  (166) 
0

>  <fr_hdrzone>  (166) 
0

>  <fr_imidazole>  (166) 
0

>  <fr_imide>  (166) 
0

>  <fr_isocyan>  (166) 
0

>  <fr_isothiocyan>  (166) 
0

>  <fr_ketone>  (166) 
0

>  <fr_ketone_Topliss>  (166) 
0

>  <fr_lactam>  (166) 
0

>  <fr_lactone>  (166) 
0

>  <fr_methoxy>  (166) 
0

>  <fr_morpholine>  (166) 
0

>  <fr_nitrile>  (166) 
0

>  <fr_nitro>  (166) 
0

>  <fr_nitro_arom>  (166) 
0

>  <fr_nitro_arom_nonortho>  (166) 
0

>  <fr_nitroso>  (166) 
0

>  <fr_oxazole>  (166) 
0

>  <fr_oxime>  (166) 
0

>  <fr_para_hydroxylation>  (166) 
0

>  <fr_phenol>  (166) 
0

>  <fr_phenol_noOrthoHbond>  (166) 
0

>  <fr_phos_acid>  (166) 
0

>  <fr_phos_ester>  (166) 
0

>  <fr_piperdine>  (166) 
0

>  <fr_piperzine>  (166) 
0

>  <fr_priamide>  (166) 
0

>  <fr_prisulfonamd>  (166) 
0

>  <fr_pyridine>  (166) 
0

>  <fr_quatN>  (166) 
1

>  <fr_sulfide>  (166) 
0

>  <fr_sulfonamd>  (166) 
0

>  <fr_sulfone>  (166) 
0

>  <fr_term_acetylene>  (166) 
0

>  <fr_tetrazole>  (166) 
0

>  <fr_thiazole>  (166) 
0

>  <fr_thiocyan>  (166) 
0

>  <fr_thiophene>  (166) 
0

>  <fr_unbrch_alkane>  (166) 
0

>  <fr_urea>  (166) 
0

>  <NP-Likeness>  (166) 
-1.008296

$$$$
GVQ
     RDKit          3D

  0  0  0  0  0  0  0  0  0  0999 V3000
M  V30 BEGIN CTAB
M  V30 COUNTS 31 32 0 0 0
M  V30 BEGIN ATOM
M  V30 1 C -3.039793 0.251890 2.863617 0
M  V30 2 C -1.816065 0.412416 3.497587 0
M  V30 3 C -0.693684 -0.144224 2.906793 0
M  V30 4 C -0.721434 -0.860554 1.705467 0
M  V30 5 C 0.535350 -1.423457 1.144474 0 CFG=2
M  V30 6 C 1.129425 -0.418931 0.267322 0
M  V30 7 C 2.033659 0.569746 0.607960 0
M  V30 8 C 2.507308 1.453364 -0.347971 0
M  V30 9 C 2.113225 1.397481 -1.659521 0
M  V30 10 Cl 2.730023 2.530122 -2.848480 0
M  V30 11 C 1.212539 0.422582 -2.029524 0
M  V30 12 C 0.744881 -0.461208 -1.050484 0
M  V30 13 C 0.341947 -2.771243 0.552590 0
M  V30 14 N 1.584144 -3.294792 0.013619 0 CHG=1 VAL=4
M  V30 15 C -1.950586 -0.997445 1.109232 0
M  V30 16 C -3.089135 -0.451685 1.677066 0
M  V30 17 H -3.955244 0.663418 3.274726 0
M  V30 18 H -1.742677 0.957521 4.427409 0
M  V30 19 H 0.278469 -0.041398 3.369311 0
M  V30 20 H 1.242350 -1.543433 2.013441 0
M  V30 21 H 2.325749 0.584257 1.663488 0
M  V30 22 H 3.214307 2.204331 -0.013202 0
M  V30 23 H 0.911301 0.387981 -3.057272 0
M  V30 24 H 0.046092 -1.188295 -1.428341 0
M  V30 25 H -0.489765 -2.836145 -0.174057 0
M  V30 26 H 0.052115 -3.463872 1.372006 0
M  V30 27 H 2.168318 -2.554723 -0.429145 0
M  V30 28 H 1.407640 -4.085540 -0.653903 0
M  V30 29 H 2.135562 -3.686480 0.804992 0
M  V30 30 H -2.030183 -1.544864 0.173689 0
M  V30 31 H -4.031204 -0.591132 1.162578 0
M  V30 END ATOM
M  V30 BEGIN BOND
M  V30 1 2 1 2
M  V30 2 1 2 3
M  V30 3 2 3 4
M  V30 4 1 4 5
M  V30 5 1 5 6
M  V30 6 2 6 7
M  V30 7 1 7 8
M  V30 8 2 8 9
M  V30 9 1 9 10
M  V30 10 1 9 11
M  V30 11 2 11 12
M  V30 12 1 5 13
M  V30 13 1 13 14
M  V30 14 1 4 15
M  V30 15 2 15 16
M  V30 16 1 16 1
M  V30 17 1 12 6
M  V30 18 1 1 17
M  V30 19 1 2 18
M  V30 20 1 3 19
M  V30 21 1 5 20 CFG=1
M  V30 22 1 7 21
M  V30 23 1 8 22
M  V30 24 1 11 23
M  V30 25 1 12 24
M  V30 26 1 13 25
M  V30 27 1 13 26
M  V30 28 1 14 27
M  V30 29 1 14 28
M  V30 30 1 14 29
M  V30 31 1 15 30
M  V30 32 1 16 31
M  V30 END BOND
M  V30 END CTAB
M  END
>  <Dataset>  (167) 
PDB

>  <Ligand_Instance>  (167) 
2UW8_GVQ_A_1351

>  <PDB_ID>  (167) 
2UW8

>  <Standardized_SMILES>  (167) 
[H]C1=C([H])C([H])=C([C@]([H])(C2=C([H])C([H])=C(Cl)C([H])=C2[H])C([H])([H])[N+]([H])([H])[H])C([H])=C1[H]

>  <Name>  (167) 
(2R)-2-(4-CHLOROPHENYL)-2-PHENYLETHANAMINE

>  <Pocket>  (167) 
A

>  <ATP_Site>  (167) 
1.0

>  <Peripheral>  (167) 
0.0

>  <Num_H_Atoms_ProtBoundConf>  (167) 
15.0

>  <Num_Resolved_Atoms>  (167) 
16.0

>  <Num_Not_Resolved_Atoms>  (167) 
0.0

>  <2D_Mol_H>  (167) 
<rdkit.Chem.rdchem.Mol object at 0x72a238da7a00>

>  <MW>  (167) 
232.734

>  <HBA>  (167) 
0

>  <HBD>  (167) 
1

>  <LogP>  (167) 
2.7138

>  <NRB>  (167) 
4

>  <TPSA>  (167) 
27.64

>  <Num_Heavy_Atoms>  (167) 
16

>  <Ro5>  (167) 
[True, True, True, True, True, True]

>  <Ro5_Fulfilled>  (167) 
True

>  <Ro3>  (167) 
[True, True, True, True]

>  <Ro3_Fulfilled>  (167) 
True

>  <Fsp3>  (167) 
0.142857

>  <Fsp3_0.42>  (167) 
False

>  <Fsp3_0.45>  (167) 
False

>  <Stereogenic_Carbons>  (167) 
1

>  <C_Atoms>  (167) 
14

>  <FCStereo>  (167) 
0.071429

>  <SPS>  (167) 
198

>  <nSPS>  (167) 
12.375

>  <PBF>  (167) 
1.091644

>  <PBF_0.6>  (167) 
True

>  <nPBF>  (167) 
0.068228

>  <nPBF_0.016>  (167) 
True

>  <PMI1>  (167) 
665.881514

>  <PMI2>  (167) 
1921.362086

>  <PMI3>  (167) 
2228.956376

>  <NPR1>  (167) 
0.298741

>  <NPR2>  (167) 
0.862001

>  <Sum_NPR>  (167) 
1.160742

>  <Sum_NPR_1.07>  (167) 
True

>  <Sum_NPR_1.2>  (167) 
False

>  <MaxAbsEStateIndex>  (167) 
5.88993

>  <MaxEStateIndex>  (167) 
5.88993

>  <MinAbsEStateIndex>  (167) 
0.359691

>  <MinEStateIndex>  (167) 
0.359691

>  <qed>  (167) 
0.843054

>  <MolWt>  (167) 
232.734

>  <HeavyAtomMolWt>  (167) 
217.614

>  <ExactMolWt>  (167) 
232.088754

>  <NumValenceElectrons>  (167) 
82

>  <NumRadicalElectrons>  (167) 
0

>  <MaxPartialCharge>  (167) 
0.085031

>  <MinPartialCharge>  (167) 
-0.356774

>  <MaxAbsPartialCharge>  (167) 
0.356774

>  <MinAbsPartialCharge>  (167) 
0.085031

>  <FpDensityMorgan1>  (167) 
0.875

>  <FpDensityMorgan2>  (167) 
1.4375

>  <FpDensityMorgan3>  (167) 
2.0

>  <BCUT2D_MWHI>  (167) 
35.495691

>  <BCUT2D_MWLOW>  (167) 
9.914967

>  <BCUT2D_CHGHI>  (167) 
2.128573

>  <BCUT2D_CHGLO>  (167) 
-2.132889

>  <BCUT2D_LOGPHI>  (167) 
2.236115

>  <BCUT2D_LOGPLOW>  (167) 
-2.526457

>  <BCUT2D_MRHI>  (167) 
6.30088

>  <BCUT2D_MRLOW>  (167) 
-0.369755

>  <AvgIpc>  (167) 
2.338832

>  <BalabanJ>  (167) 
2.330665

>  <BertzCT>  (167) 
436.052338

>  <Chi0>  (167) 
11.380469

>  <Chi0n>  (167) 
9.065681

>  <Chi0v>  (167) 
9.82161

>  <Chi1>  (167) 
7.808862

>  <Chi1n>  (167) 
5.406632

>  <Chi1v>  (167) 
5.784596

>  <Chi2n>  (167) 
3.803496

>  <Chi2v>  (167) 
4.239932

>  <Chi3n>  (167) 
2.762991

>  <Chi3v>  (167) 
3.014967

>  <Chi4n>  (167) 
1.906218

>  <Chi4v>  (167) 
2.032206

>  <HallKierAlpha>  (167) 
-1.31

>  <Ipc>  (167) 
6099.674768

>  <Kappa1>  (167) 
11.18363

>  <Kappa2>  (167) 
5.149982

>  <Kappa3>  (167) 
2.434409

>  <LabuteASA>  (167) 
100.861538

>  <PEOE_VSA1>  (167) 
5.733667

>  <PEOE_VSA10>  (167) 
0.0

>  <PEOE_VSA11>  (167) 
0.0

>  <PEOE_VSA12>  (167) 
0.0

>  <PEOE_VSA13>  (167) 
0.0

>  <PEOE_VSA14>  (167) 
0.0

>  <PEOE_VSA2>  (167) 
0.0

>  <PEOE_VSA3>  (167) 
0.0

>  <PEOE_VSA4>  (167) 
0.0

>  <PEOE_VSA5>  (167) 
0.0

>  <PEOE_VSA6>  (167) 
54.065509

>  <PEOE_VSA7>  (167) 
23.259637

>  <PEOE_VSA8>  (167) 
5.022633

>  <PEOE_VSA9>  (167) 
12.462662

>  <SMR_VSA1>  (167) 
5.733667

>  <SMR_VSA10>  (167) 
11.60094

>  <SMR_VSA2>  (167) 
0.0

>  <SMR_VSA3>  (167) 
0.0

>  <SMR_VSA4>  (167) 
0.0

>  <SMR_VSA5>  (167) 
5.917906

>  <SMR_VSA6>  (167) 
6.544756

>  <SMR_VSA7>  (167) 
70.74684

>  <SMR_VSA8>  (167) 
0.0

>  <SMR_VSA9>  (167) 
0.0

>  <SlogP_VSA1>  (167) 
5.733667

>  <SlogP_VSA10>  (167) 
0.0

>  <SlogP_VSA11>  (167) 
0.0

>  <SlogP_VSA12>  (167) 
11.60094

>  <SlogP_VSA2>  (167) 
6.544756

>  <SlogP_VSA3>  (167) 
0.0

>  <SlogP_VSA4>  (167) 
0.0

>  <SlogP_VSA5>  (167) 
17.044809

>  <SlogP_VSA6>  (167) 
54.597304

>  <SlogP_VSA7>  (167) 
5.022633

>  <SlogP_VSA8>  (167) 
0.0

>  <SlogP_VSA9>  (167) 
0.0

>  <EState_VSA1>  (167) 
0.0

>  <EState_VSA10>  (167) 
0.0

>  <EState_VSA11>  (167) 
0.0

>  <EState_VSA2>  (167) 
0.0

>  <EState_VSA3>  (167) 
5.917906

>  <EState_VSA4>  (167) 
11.56739

>  <EState_VSA5>  (167) 
11.126903

>  <EState_VSA6>  (167) 
0.0

>  <EState_VSA7>  (167) 
18.199101

>  <EState_VSA8>  (167) 
42.13187

>  <EState_VSA9>  (167) 
11.60094

>  <VSA_EState1>  (167) 
0.0

>  <VSA_EState10>  (167) 
5.88993

>  <VSA_EState2>  (167) 
0.0

>  <VSA_EState3>  (167) 
0.77743

>  <VSA_EState4>  (167) 
6.602686

>  <VSA_EState5>  (167) 
0.359691

>  <VSA_EState6>  (167) 
18.461884

>  <VSA_EState7>  (167) 
0.0

>  <VSA_EState8>  (167) 
0.852823

>  <VSA_EState9>  (167) 
0.0

>  <FractionCSP3>  (167) 
0.142857

>  <HeavyAtomCount>  (167) 
16

>  <NHOHCount>  (167) 
3

>  <NOCount>  (167) 
1

>  <NumAliphaticCarbocycles>  (167) 
0

>  <NumAliphaticHeterocycles>  (167) 
0

>  <NumAliphaticRings>  (167) 
0

>  <NumAromaticCarbocycles>  (167) 
2

>  <NumAromaticHeterocycles>  (167) 
0

>  <NAR>  (167) 
2

>  <NumHAcceptors>  (167) 
0

>  <NumHDonors>  (167) 
1

>  <NumHeteroatoms>  (167) 
2

>  <NumRotatableBonds>  (167) 
3

>  <NumSaturatedCarbocycles>  (167) 
0

>  <NumSaturatedHeterocycles>  (167) 
0

>  <NumSaturatedRings>  (167) 
0

>  <RingCount>  (167) 
2

>  <MolLogP>  (167) 
2.7138

>  <MolMR>  (167) 
67.4921

>  <fr_Al_COO>  (167) 
0

>  <fr_Al_OH>  (167) 
0

>  <fr_Al_OH_noTert>  (167) 
0

>  <fr_ArN>  (167) 
0

>  <fr_Ar_COO>  (167) 
0

>  <fr_Ar_N>  (167) 
0

>  <fr_Ar_NH>  (167) 
0

>  <fr_Ar_OH>  (167) 
0

>  <fr_COO>  (167) 
0

>  <fr_COO2>  (167) 
0

>  <fr_C_O>  (167) 
0

>  <fr_C_O_noCOO>  (167) 
0

>  <fr_C_S>  (167) 
0

>  <fr_HOCCN>  (167) 
0

>  <fr_Imine>  (167) 
0

>  <fr_NH0>  (167) 
0

>  <fr_NH1>  (167) 
0

>  <fr_NH2>  (167) 
0

>  <fr_N_O>  (167) 
0

>  <fr_Ndealkylation1>  (167) 
0

>  <fr_Ndealkylation2>  (167) 
0

>  <fr_Nhpyrrole>  (167) 
0

>  <fr_SH>  (167) 
0

>  <fr_aldehyde>  (167) 
0

>  <fr_alkyl_carbamate>  (167) 
0

>  <fr_alkyl_halide>  (167) 
0

>  <fr_allylic_oxid>  (167) 
0

>  <fr_amide>  (167) 
0

>  <fr_amidine>  (167) 
0

>  <fr_aniline>  (167) 
0

>  <fr_aryl_methyl>  (167) 
0

>  <fr_azide>  (167) 
0

>  <fr_azo>  (167) 
0

>  <fr_barbitur>  (167) 
0

>  <fr_benzene>  (167) 
2

>  <fr_benzodiazepine>  (167) 
0

>  <fr_bicyclic>  (167) 
0

>  <fr_diazo>  (167) 
0

>  <fr_dihydropyridine>  (167) 
0

>  <fr_epoxide>  (167) 
0

>  <fr_ester>  (167) 
0

>  <fr_ether>  (167) 
0

>  <fr_furan>  (167) 
0

>  <fr_guanido>  (167) 
0

>  <fr_halogen>  (167) 
1

>  <fr_hdrzine>  (167) 
0

>  <fr_hdrzone>  (167) 
0

>  <fr_imidazole>  (167) 
0

>  <fr_imide>  (167) 
0

>  <fr_isocyan>  (167) 
0

>  <fr_isothiocyan>  (167) 
0

>  <fr_ketone>  (167) 
0

>  <fr_ketone_Topliss>  (167) 
0

>  <fr_lactam>  (167) 
0

>  <fr_lactone>  (167) 
0

>  <fr_methoxy>  (167) 
0

>  <fr_morpholine>  (167) 
0

>  <fr_nitrile>  (167) 
0

>  <fr_nitro>  (167) 
0

>  <fr_nitro_arom>  (167) 
0

>  <fr_nitro_arom_nonortho>  (167) 
0

>  <fr_nitroso>  (167) 
0

>  <fr_oxazole>  (167) 
0

>  <fr_oxime>  (167) 
0

>  <fr_para_hydroxylation>  (167) 
0

>  <fr_phenol>  (167) 
0

>  <fr_phenol_noOrthoHbond>  (167) 
0

>  <fr_phos_acid>  (167) 
0

>  <fr_phos_ester>  (167) 
0

>  <fr_piperdine>  (167) 
0

>  <fr_piperzine>  (167) 
0

>  <fr_priamide>  (167) 
0

>  <fr_prisulfonamd>  (167) 
0

>  <fr_pyridine>  (167) 
0

>  <fr_quatN>  (167) 
1

>  <fr_sulfide>  (167) 
0

>  <fr_sulfonamd>  (167) 
0

>  <fr_sulfone>  (167) 
0

>  <fr_term_acetylene>  (167) 
0

>  <fr_tetrazole>  (167) 
0

>  <fr_thiazole>  (167) 
0

>  <fr_thiocyan>  (167) 
0

>  <fr_thiophene>  (167) 
0

>  <fr_unbrch_alkane>  (167) 
0

>  <fr_urea>  (167) 
0

>  <NP-Likeness>  (167) 
-0.600861

$$$$
H52
     RDKit          3D

  0  0  0  0  0  0  0  0  0  0999 V3000
M  V30 BEGIN CTAB
M  V30 COUNTS 44 46 0 0 0
M  V30 BEGIN ATOM
M  V30 1 C -3.166072 -2.281252 1.496413 0
M  V30 2 N -3.369180 -3.537080 1.991914 0
M  V30 3 C -2.392286 -4.439904 1.820929 0
M  V30 4 C -1.245087 -4.075051 1.166679 0
M  V30 5 C -0.298880 -5.054605 1.016599 0
M  V30 6 C 0.870870 -4.777470 0.362798 0
M  V30 7 C 0.989445 -3.463109 -0.106591 0
M  V30 8 C 0.090491 -2.333472 -0.024916 0
M  V30 9 S 0.606433 -0.867022 -0.675064 0
M  V30 10 O 0.275812 -0.633325 -2.158157 0
M  V30 11 O 2.072828 -1.165273 -1.061215 0
M  V30 12 N 0.957150 0.517724 0.164957 0
M  V30 13 C 0.306022 1.688026 -0.184358 0
M  V30 14 C -0.145103 2.601029 0.937349 0
M  V30 15 C 0.929908 3.637669 1.142430 0
M  V30 16 N 2.236697 2.998541 1.096972 0 CHG=1 VAL=4
M  V30 17 C 2.142393 1.787473 1.855993 0
M  V30 18 C 2.043983 0.526033 1.050852 0 CFG=2
M  V30 19 C 3.382467 0.191690 0.502181 0
M  V30 20 C -0.989886 -2.838956 0.654285 0
M  V30 21 C -2.004743 -1.936927 0.841872 0
M  V30 22 C -1.890468 -0.581475 0.340401 0
M  V30 23 H -3.982895 -1.606312 1.664897 0
M  V30 24 H -2.526235 -5.420607 2.195917 0
M  V30 25 H -0.459261 -6.042964 1.407018 0
M  V30 26 H 1.596508 -5.548322 0.252710 0
M  V30 27 H 1.980181 -3.410702 -0.607454 0
M  V30 28 H 0.956799 2.361718 -0.864721 0
M  V30 29 H -0.559716 1.518780 -0.840166 0
M  V30 30 H -0.444242 2.093910 1.850947 0
M  V30 31 H -1.048217 3.175343 0.603238 0
M  V30 32 H 0.826389 4.429298 0.370780 0
M  V30 33 H 0.764519 4.070704 2.141044 0
M  V30 34 H 2.875941 3.695221 1.586518 0
M  V30 35 H 2.635323 2.892136 0.161597 0
M  V30 36 H 3.128236 1.703579 2.407438 0
M  V30 37 H 1.399791 1.874819 2.671236 0
M  V30 38 H 1.837003 -0.277476 1.823172 0
M  V30 39 H 4.152795 0.708770 1.113862 0
M  V30 40 H 3.644957 -0.897349 0.637155 0
M  V30 41 H 3.562172 0.553362 -0.529278 0
M  V30 42 H -2.989109 -0.223199 0.285850 0
M  V30 43 H -1.758487 -0.471559 -0.734502 0
M  V30 44 H -1.597363 0.186767 1.048008 0
M  V30 END ATOM
M  V30 BEGIN BOND
M  V30 1 2 1 2
M  V30 2 1 2 3
M  V30 3 2 3 4
M  V30 4 1 4 5
M  V30 5 2 5 6
M  V30 6 1 6 7
M  V30 7 2 7 8
M  V30 8 1 8 9
M  V30 9 2 9 10
M  V30 10 2 9 11
M  V30 11 1 9 12
M  V30 12 1 12 13
M  V30 13 1 13 14
M  V30 14 1 14 15
M  V30 15 1 15 16
M  V30 16 1 16 17
M  V30 17 1 17 18
M  V30 18 1 18 19
M  V30 19 1 8 20
M  V30 20 2 20 21
M  V30 21 1 21 22
M  V30 22 1 21 1
M  V30 23 1 20 4
M  V30 24 1 18 12
M  V30 25 1 1 23
M  V30 26 1 3 24
M  V30 27 1 5 25
M  V30 28 1 6 26
M  V30 29 1 7 27
M  V30 30 1 13 28
M  V30 31 1 13 29
M  V30 32 1 14 30
M  V30 33 1 14 31
M  V30 34 1 15 32
M  V30 35 1 15 33
M  V30 36 1 16 34
M  V30 37 1 16 35
M  V30 38 1 17 36
M  V30 39 1 17 37
M  V30 40 1 18 38 CFG=1
M  V30 41 1 19 39
M  V30 42 1 19 40
M  V30 43 1 19 41
M  V30 44 1 22 42
M  V30 45 1 22 43
M  V30 46 1 22 44
M  V30 END BOND
M  V30 END CTAB
M  END
>  <Dataset>  (168) 
PDB

>  <Ligand_Instance>  (168) 
2GNH_H52_A_501

>  <PDB_ID>  (168) 
2GNH

>  <Standardized_SMILES>  (168) 
[H]C1=NC([H])=C2C([H])=C([H])C([H])=C(S(=O)(=O)N3C([H])([H])C([H])([H])C([H])([H])[N+]([H])([H])C([H])([H])[C@]3([H])C([H])([H])[H])C2=C1C([H])([H])[H]

>  <Name>  (168) 
(S)-2-METHYL-1-[(4-METHYL-5-ISOQUINOLINE)SULFONYL]-HOMOPIPERAZINE

>  <Pocket>  (168) 
A

>  <ATP_Site>  (168) 
1.0

>  <Peripheral>  (168) 
1.0

>  <Num_H_Atoms_ProtBoundConf>  (168) 
22.0

>  <Num_Resolved_Atoms>  (168) 
22.0

>  <Num_Not_Resolved_Atoms>  (168) 
0.0

>  <2D_Mol_H>  (168) 
<rdkit.Chem.rdchem.Mol object at 0x72a238da7ae0>

>  <MW>  (168) 
320.438

>  <HBA>  (168) 
3

>  <HBD>  (168) 
1

>  <LogP>  (168) 
0.88952

>  <NRB>  (168) 
4

>  <TPSA>  (168) 
66.88

>  <Num_Heavy_Atoms>  (168) 
22

>  <Ro5>  (168) 
[True, True, True, True, True, True]

>  <Ro5_Fulfilled>  (168) 
True

>  <Ro3>  (168) 
[False, True, True, True]

>  <Ro3_Fulfilled>  (168) 
True

>  <Fsp3>  (168) 
0.4375

>  <Fsp3_0.42>  (168) 
True

>  <Fsp3_0.45>  (168) 
False

>  <Stereogenic_Carbons>  (168) 
1

>  <C_Atoms>  (168) 
16

>  <FCStereo>  (168) 
0.0625

>  <SPS>  (168) 
460

>  <nSPS>  (168) 
20.909091

>  <PBF>  (168) 
0.83332

>  <PBF_0.6>  (168) 
True

>  <nPBF>  (168) 
0.037878

>  <nPBF_0.016>  (168) 
True

>  <PMI1>  (168) 
1005.996894

>  <PMI2>  (168) 
2672.032693

>  <PMI3>  (168) 
3105.250622

>  <NPR1>  (168) 
0.323966

>  <NPR2>  (168) 
0.860489

>  <Sum_NPR>  (168) 
1.184455

>  <Sum_NPR_1.07>  (168) 
True

>  <Sum_NPR_1.2>  (168) 
False

>  <MaxAbsEStateIndex>  (168) 
13.208253

>  <MaxEStateIndex>  (168) 
13.208253

>  <MinAbsEStateIndex>  (168) 
0.004537

>  <MinEStateIndex>  (168) 
-3.498102

>  <qed>  (168) 
0.893472

>  <MolWt>  (168) 
320.438

>  <HeavyAtomMolWt>  (168) 
298.262

>  <ExactMolWt>  (168) 
320.142724

>  <NumValenceElectrons>  (168) 
118

>  <NumRadicalElectrons>  (168) 
0

>  <MaxPartialCharge>  (168) 
0.243653

>  <MinPartialCharge>  (168) 
-0.344891

>  <MaxAbsPartialCharge>  (168) 
0.344891

>  <MinAbsPartialCharge>  (168) 
0.243653

>  <FpDensityMorgan1>  (168) 
1.318182

>  <FpDensityMorgan2>  (168) 
2.136364

>  <FpDensityMorgan3>  (168) 
2.954545

>  <BCUT2D_MWHI>  (168) 
32.233428

>  <BCUT2D_MWLOW>  (168) 
10.102621

>  <BCUT2D_CHGHI>  (168) 
2.3214

>  <BCUT2D_CHGLO>  (168) 
-2.251786

>  <BCUT2D_LOGPHI>  (168) 
2.28428

>  <BCUT2D_LOGPLOW>  (168) 
-2.855537

>  <BCUT2D_MRHI>  (168) 
7.889912

>  <BCUT2D_MRLOW>  (168) 
-0.654222

>  <AvgIpc>  (168) 
2.717475

>  <BalabanJ>  (168) 
2.168145

>  <BertzCT>  (168) 
783.827542

>  <Chi0>  (168) 
15.742276

>  <Chi0n>  (168) 
12.989051

>  <Chi0v>  (168) 
13.805548

>  <Chi1>  (168) 
10.514874

>  <Chi1n>  (168) 
7.684318

>  <Chi1v>  (168) 
9.124382

>  <Chi2n>  (168) 
5.942042

>  <Chi2v>  (168) 
7.801019

>  <Chi3n>  (168) 
4.307383

>  <Chi3v>  (168) 
6.363327

>  <Chi4n>  (168) 
3.158439

>  <Chi4v>  (168) 
5.127734

>  <HallKierAlpha>  (168) 
-1.5

>  <Ipc>  (168) 
114954.624477

>  <Kappa1>  (168) 
15.397778

>  <Kappa2>  (168) 
5.94687

>  <Kappa3>  (168) 
2.620245

>  <LabuteASA>  (168) 
130.951951

>  <PEOE_VSA1>  (168) 
5.316789

>  <PEOE_VSA10>  (168) 
0.0

>  <PEOE_VSA11>  (168) 
0.0

>  <PEOE_VSA12>  (168) 
10.023291

>  <PEOE_VSA13>  (168) 
0.0

>  <PEOE_VSA14>  (168) 
0.0

>  <PEOE_VSA2>  (168) 
4.983979

>  <PEOE_VSA3>  (168) 
8.417797

>  <PEOE_VSA4>  (168) 
4.305216

>  <PEOE_VSA5>  (168) 
0.0

>  <PEOE_VSA6>  (168) 
12.132734

>  <PEOE_VSA7>  (168) 
25.477293

>  <PEOE_VSA8>  (168) 
36.131714

>  <PEOE_VSA9>  (168) 
24.026837

>  <SMR_VSA1>  (168) 
13.734586

>  <SMR_VSA10>  (168) 
20.79574

>  <SMR_VSA2>  (168) 
0.0

>  <SMR_VSA3>  (168) 
9.289195

>  <SMR_VSA4>  (168) 
0.0

>  <SMR_VSA5>  (168) 
31.20562

>  <SMR_VSA6>  (168) 
19.634269

>  <SMR_VSA7>  (168) 
36.15624

>  <SMR_VSA8>  (168) 
0.0

>  <SMR_VSA9>  (168) 
0.0

>  <SlogP_VSA1>  (168) 
5.316789

>  <SlogP_VSA10>  (168) 
0.0

>  <SlogP_VSA11>  (168) 
0.0

>  <SlogP_VSA12>  (168) 
0.0

>  <SlogP_VSA2>  (168) 
43.383102

>  <SlogP_VSA3>  (168) 
10.023291

>  <SlogP_VSA4>  (168) 
6.923737

>  <SlogP_VSA5>  (168) 
18.90801

>  <SlogP_VSA6>  (168) 
35.488272

>  <SlogP_VSA7>  (168) 
0.0

>  <SlogP_VSA8>  (168) 
10.772448

>  <SlogP_VSA9>  (168) 
0.0

>  <EState_VSA1>  (168) 
10.023291

>  <EState_VSA10>  (168) 
8.417797

>  <EState_VSA11>  (168) 
0.0

>  <EState_VSA2>  (168) 
6.041841

>  <EState_VSA3>  (168) 
11.44024

>  <EState_VSA4>  (168) 
35.846234

>  <EState_VSA5>  (168) 
0.0

>  <EState_VSA6>  (168) 
28.831637

>  <EState_VSA7>  (168) 
19.913841

>  <EState_VSA8>  (168) 
10.300767

>  <EState_VSA9>  (168) 
0.0

>  <VSA_EState1>  (168) 
28.074385

>  <VSA_EState10>  (168) 
0.0

>  <VSA_EState2>  (168) 
4.566144

>  <VSA_EState3>  (168) 
3.853135

>  <VSA_EState4>  (168) 
0.894178

>  <VSA_EState5>  (168) 
0.0

>  <VSA_EState6>  (168) 
5.426092

>  <VSA_EState7>  (168) 
4.330203

>  <VSA_EState8>  (168) 
6.270631

>  <VSA_EState9>  (168) 
-3.498102

>  <FractionCSP3>  (168) 
0.4375

>  <HeavyAtomCount>  (168) 
22

>  <NHOHCount>  (168) 
2

>  <NOCount>  (168) 
5

>  <NumAliphaticCarbocycles>  (168) 
0

>  <NumAliphaticHeterocycles>  (168) 
1

>  <NumAliphaticRings>  (168) 
1

>  <NumAromaticCarbocycles>  (168) 
1

>  <NumAromaticHeterocycles>  (168) 
1

>  <NAR>  (168) 
2

>  <NumHAcceptors>  (168) 
3

>  <NumHDonors>  (168) 
1

>  <NumHeteroatoms>  (168) 
6

>  <NumRotatableBonds>  (168) 
2

>  <NumSaturatedCarbocycles>  (168) 
0

>  <NumSaturatedHeterocycles>  (168) 
1

>  <NumSaturatedRings>  (168) 
1

>  <RingCount>  (168) 
3

>  <MolLogP>  (168) 
0.88952

>  <MolMR>  (168) 
86.1102

>  <fr_Al_COO>  (168) 
0

>  <fr_Al_OH>  (168) 
0

>  <fr_Al_OH_noTert>  (168) 
0

>  <fr_ArN>  (168) 
0

>  <fr_Ar_COO>  (168) 
0

>  <fr_Ar_N>  (168) 
1

>  <fr_Ar_NH>  (168) 
0

>  <fr_Ar_OH>  (168) 
0

>  <fr_COO>  (168) 
0

>  <fr_COO2>  (168) 
0

>  <fr_C_O>  (168) 
0

>  <fr_C_O_noCOO>  (168) 
0

>  <fr_C_S>  (168) 
0

>  <fr_HOCCN>  (168) 
0

>  <fr_Imine>  (168) 
0

>  <fr_NH0>  (168) 
2

>  <fr_NH1>  (168) 
0

>  <fr_NH2>  (168) 
1

>  <fr_N_O>  (168) 
0

>  <fr_Ndealkylation1>  (168) 
0

>  <fr_Ndealkylation2>  (168) 
0

>  <fr_Nhpyrrole>  (168) 
0

>  <fr_SH>  (168) 
0

>  <fr_aldehyde>  (168) 
0

>  <fr_alkyl_carbamate>  (168) 
0

>  <fr_alkyl_halide>  (168) 
0

>  <fr_allylic_oxid>  (168) 
0

>  <fr_amide>  (168) 
0

>  <fr_amidine>  (168) 
0

>  <fr_aniline>  (168) 
0

>  <fr_aryl_methyl>  (168) 
1

>  <fr_azide>  (168) 
0

>  <fr_azo>  (168) 
0

>  <fr_barbitur>  (168) 
0

>  <fr_benzene>  (168) 
1

>  <fr_benzodiazepine>  (168) 
0

>  <fr_bicyclic>  (168) 
1

>  <fr_diazo>  (168) 
0

>  <fr_dihydropyridine>  (168) 
0

>  <fr_epoxide>  (168) 
0

>  <fr_ester>  (168) 
0

>  <fr_ether>  (168) 
0

>  <fr_furan>  (168) 
0

>  <fr_guanido>  (168) 
0

>  <fr_halogen>  (168) 
0

>  <fr_hdrzine>  (168) 
0

>  <fr_hdrzone>  (168) 
0

>  <fr_imidazole>  (168) 
0

>  <fr_imide>  (168) 
0

>  <fr_isocyan>  (168) 
0

>  <fr_isothiocyan>  (168) 
0

>  <fr_ketone>  (168) 
0

>  <fr_ketone_Topliss>  (168) 
0

>  <fr_lactam>  (168) 
0

>  <fr_lactone>  (168) 
0

>  <fr_methoxy>  (168) 
0

>  <fr_morpholine>  (168) 
0

>  <fr_nitrile>  (168) 
0

>  <fr_nitro>  (168) 
0

>  <fr_nitro_arom>  (168) 
0

>  <fr_nitro_arom_nonortho>  (168) 
0

>  <fr_nitroso>  (168) 
0

>  <fr_oxazole>  (168) 
0

>  <fr_oxime>  (168) 
0

>  <fr_para_hydroxylation>  (168) 
0

>  <fr_phenol>  (168) 
0

>  <fr_phenol_noOrthoHbond>  (168) 
0

>  <fr_phos_acid>  (168) 
0

>  <fr_phos_ester>  (168) 
0

>  <fr_piperdine>  (168) 
0

>  <fr_piperzine>  (168) 
0

>  <fr_priamide>  (168) 
0

>  <fr_prisulfonamd>  (168) 
0

>  <fr_pyridine>  (168) 
1

>  <fr_quatN>  (168) 
1

>  <fr_sulfide>  (168) 
0

>  <fr_sulfonamd>  (168) 
1

>  <fr_sulfone>  (168) 
0

>  <fr_term_acetylene>  (168) 
0

>  <fr_tetrazole>  (168) 
0

>  <fr_thiazole>  (168) 
0

>  <fr_thiocyan>  (168) 
0

>  <fr_thiophene>  (168) 
0

>  <fr_unbrch_alkane>  (168) 
0

>  <fr_urea>  (168) 
0

>  <NP-Likeness>  (168) 
-0.986159

$$$$
H52
     RDKit          3D

  0  0  0  0  0  0  0  0  0  0999 V3000
M  V30 BEGIN CTAB
M  V30 COUNTS 44 46 0 0 0
M  V30 BEGIN ATOM
M  V30 1 C -3.166072 -2.281252 1.496413 0
M  V30 2 N -3.369180 -3.537080 1.991914 0
M  V30 3 C -2.392286 -4.439904 1.820929 0
M  V30 4 C -1.245087 -4.075051 1.166679 0
M  V30 5 C -0.298880 -5.054605 1.016599 0
M  V30 6 C 0.870870 -4.777470 0.362798 0
M  V30 7 C 0.989445 -3.463109 -0.106591 0
M  V30 8 C 0.090491 -2.333472 -0.024916 0
M  V30 9 S 0.606433 -0.867022 -0.675064 0
M  V30 10 O 0.275812 -0.633325 -2.158157 0
M  V30 11 O 2.072828 -1.165273 -1.061215 0
M  V30 12 N 0.957150 0.517724 0.164957 0
M  V30 13 C 0.306022 1.688026 -0.184358 0
M  V30 14 C -0.145103 2.601029 0.937349 0
M  V30 15 C 0.929908 3.637669 1.142430 0
M  V30 16 N 2.236697 2.998541 1.096972 0 CHG=1 VAL=4
M  V30 17 C 2.142393 1.787473 1.855993 0
M  V30 18 C 2.043983 0.526033 1.050852 0 CFG=2
M  V30 19 C 3.382467 0.191690 0.502181 0
M  V30 20 C -0.989886 -2.838956 0.654285 0
M  V30 21 C -2.004743 -1.936927 0.841872 0
M  V30 22 C -1.890468 -0.581475 0.340401 0
M  V30 23 H -3.982895 -1.606312 1.664897 0
M  V30 24 H -2.526235 -5.420607 2.195917 0
M  V30 25 H -0.459261 -6.042964 1.407018 0
M  V30 26 H 1.596508 -5.548322 0.252710 0
M  V30 27 H 1.980181 -3.410702 -0.607454 0
M  V30 28 H 0.956799 2.361718 -0.864721 0
M  V30 29 H -0.559716 1.518780 -0.840166 0
M  V30 30 H -0.444242 2.093910 1.850947 0
M  V30 31 H -1.048217 3.175343 0.603238 0
M  V30 32 H 0.826389 4.429298 0.370780 0
M  V30 33 H 0.764519 4.070704 2.141044 0
M  V30 34 H 2.875941 3.695221 1.586518 0
M  V30 35 H 2.635323 2.892136 0.161597 0
M  V30 36 H 3.128236 1.703579 2.407438 0
M  V30 37 H 1.399791 1.874819 2.671236 0
M  V30 38 H 1.837003 -0.277476 1.823172 0
M  V30 39 H 4.152795 0.708770 1.113862 0
M  V30 40 H 3.644957 -0.897349 0.637155 0
M  V30 41 H 3.562172 0.553362 -0.529278 0
M  V30 42 H -2.989109 -0.223199 0.285850 0
M  V30 43 H -1.758487 -0.471559 -0.734502 0
M  V30 44 H -1.597363 0.186767 1.048008 0
M  V30 END ATOM
M  V30 BEGIN BOND
M  V30 1 2 1 2
M  V30 2 1 2 3
M  V30 3 2 3 4
M  V30 4 1 4 5
M  V30 5 2 5 6
M  V30 6 1 6 7
M  V30 7 2 7 8
M  V30 8 1 8 9
M  V30 9 2 9 10
M  V30 10 2 9 11
M  V30 11 1 9 12
M  V30 12 1 12 13
M  V30 13 1 13 14
M  V30 14 1 14 15
M  V30 15 1 15 16
M  V30 16 1 16 17
M  V30 17 1 17 18
M  V30 18 1 18 19
M  V30 19 1 8 20
M  V30 20 2 20 21
M  V30 21 1 21 22
M  V30 22 1 21 1
M  V30 23 1 20 4
M  V30 24 1 18 12
M  V30 25 1 1 23
M  V30 26 1 3 24
M  V30 27 1 5 25
M  V30 28 1 6 26
M  V30 29 1 7 27
M  V30 30 1 13 28
M  V30 31 1 13 29
M  V30 32 1 14 30
M  V30 33 1 14 31
M  V30 34 1 15 32
M  V30 35 1 15 33
M  V30 36 1 16 34
M  V30 37 1 16 35
M  V30 38 1 17 36
M  V30 39 1 17 37
M  V30 40 1 18 38 CFG=1
M  V30 41 1 19 39
M  V30 42 1 19 40
M  V30 43 1 19 41
M  V30 44 1 22 42
M  V30 45 1 22 43
M  V30 46 1 22 44
M  V30 END BOND
M  V30 END CTAB
M  END
>  <Dataset>  (169) 
PDB

>  <Ligand_Instance>  (169) 
2GNH_H52_A_502

>  <PDB_ID>  (169) 
2GNH

>  <Standardized_SMILES>  (169) 
[H]C1=NC([H])=C2C([H])=C([H])C([H])=C(S(=O)(=O)N3C([H])([H])C([H])([H])C([H])([H])[N+]([H])([H])C([H])([H])[C@]3([H])C([H])([H])[H])C2=C1C([H])([H])[H]

>  <Name>  (169) 
(S)-2-METHYL-1-[(4-METHYL-5-ISOQUINOLINE)SULFONYL]-HOMOPIPERAZINE

>  <Pocket>  (169) 
X

>  <ATP_Site>  (169) 
1.0

>  <Peripheral>  (169) 
1.0

>  <Num_H_Atoms_ProtBoundConf>  (169) 
22.0

>  <Num_Resolved_Atoms>  (169) 
22.0

>  <Num_Not_Resolved_Atoms>  (169) 
0.0

>  <2D_Mol_H>  (169) 
<rdkit.Chem.rdchem.Mol object at 0x72a238da7bc0>

>  <MW>  (169) 
320.438

>  <HBA>  (169) 
3

>  <HBD>  (169) 
1

>  <LogP>  (169) 
0.88952

>  <NRB>  (169) 
4

>  <TPSA>  (169) 
66.88

>  <Num_Heavy_Atoms>  (169) 
22

>  <Ro5>  (169) 
[True, True, True, True, True, True]

>  <Ro5_Fulfilled>  (169) 
True

>  <Ro3>  (169) 
[False, True, True, True]

>  <Ro3_Fulfilled>  (169) 
True

>  <Fsp3>  (169) 
0.4375

>  <Fsp3_0.42>  (169) 
True

>  <Fsp3_0.45>  (169) 
False

>  <Stereogenic_Carbons>  (169) 
1

>  <C_Atoms>  (169) 
16

>  <FCStereo>  (169) 
0.0625

>  <SPS>  (169) 
460

>  <nSPS>  (169) 
20.909091

>  <PBF>  (169) 
0.83332

>  <PBF_0.6>  (169) 
True

>  <nPBF>  (169) 
0.037878

>  <nPBF_0.016>  (169) 
True

>  <PMI1>  (169) 
1005.996894

>  <PMI2>  (169) 
2672.032693

>  <PMI3>  (169) 
3105.250622

>  <NPR1>  (169) 
0.323966

>  <NPR2>  (169) 
0.860489

>  <Sum_NPR>  (169) 
1.184455

>  <Sum_NPR_1.07>  (169) 
True

>  <Sum_NPR_1.2>  (169) 
False

>  <MaxAbsEStateIndex>  (169) 
13.208253

>  <MaxEStateIndex>  (169) 
13.208253

>  <MinAbsEStateIndex>  (169) 
0.004537

>  <MinEStateIndex>  (169) 
-3.498102

>  <qed>  (169) 
0.893472

>  <MolWt>  (169) 
320.438

>  <HeavyAtomMolWt>  (169) 
298.262

>  <ExactMolWt>  (169) 
320.142724

>  <NumValenceElectrons>  (169) 
118

>  <NumRadicalElectrons>  (169) 
0

>  <MaxPartialCharge>  (169) 
0.243653

>  <MinPartialCharge>  (169) 
-0.344891

>  <MaxAbsPartialCharge>  (169) 
0.344891

>  <MinAbsPartialCharge>  (169) 
0.243653

>  <FpDensityMorgan1>  (169) 
1.318182

>  <FpDensityMorgan2>  (169) 
2.136364

>  <FpDensityMorgan3>  (169) 
2.954545

>  <BCUT2D_MWHI>  (169) 
32.233428

>  <BCUT2D_MWLOW>  (169) 
10.102621

>  <BCUT2D_CHGHI>  (169) 
2.3214

>  <BCUT2D_CHGLO>  (169) 
-2.251786

>  <BCUT2D_LOGPHI>  (169) 
2.28428

>  <BCUT2D_LOGPLOW>  (169) 
-2.855537

>  <BCUT2D_MRHI>  (169) 
7.889912

>  <BCUT2D_MRLOW>  (169) 
-0.654222

>  <AvgIpc>  (169) 
2.717475

>  <BalabanJ>  (169) 
2.168145

>  <BertzCT>  (169) 
783.827542

>  <Chi0>  (169) 
15.742276

>  <Chi0n>  (169) 
12.989051

>  <Chi0v>  (169) 
13.805548

>  <Chi1>  (169) 
10.514874

>  <Chi1n>  (169) 
7.684318

>  <Chi1v>  (169) 
9.124382

>  <Chi2n>  (169) 
5.942042

>  <Chi2v>  (169) 
7.801019

>  <Chi3n>  (169) 
4.307383

>  <Chi3v>  (169) 
6.363327

>  <Chi4n>  (169) 
3.158439

>  <Chi4v>  (169) 
5.127734

>  <HallKierAlpha>  (169) 
-1.5

>  <Ipc>  (169) 
114954.624477

>  <Kappa1>  (169) 
15.397778

>  <Kappa2>  (169) 
5.94687

>  <Kappa3>  (169) 
2.620245

>  <LabuteASA>  (169) 
130.951951

>  <PEOE_VSA1>  (169) 
5.316789

>  <PEOE_VSA10>  (169) 
0.0

>  <PEOE_VSA11>  (169) 
0.0

>  <PEOE_VSA12>  (169) 
10.023291

>  <PEOE_VSA13>  (169) 
0.0

>  <PEOE_VSA14>  (169) 
0.0

>  <PEOE_VSA2>  (169) 
4.983979

>  <PEOE_VSA3>  (169) 
8.417797

>  <PEOE_VSA4>  (169) 
4.305216

>  <PEOE_VSA5>  (169) 
0.0

>  <PEOE_VSA6>  (169) 
12.132734

>  <PEOE_VSA7>  (169) 
25.477293

>  <PEOE_VSA8>  (169) 
36.131714

>  <PEOE_VSA9>  (169) 
24.026837

>  <SMR_VSA1>  (169) 
13.734586

>  <SMR_VSA10>  (169) 
20.79574

>  <SMR_VSA2>  (169) 
0.0

>  <SMR_VSA3>  (169) 
9.289195

>  <SMR_VSA4>  (169) 
0.0

>  <SMR_VSA5>  (169) 
31.20562

>  <SMR_VSA6>  (169) 
19.634269

>  <SMR_VSA7>  (169) 
36.15624

>  <SMR_VSA8>  (169) 
0.0

>  <SMR_VSA9>  (169) 
0.0

>  <SlogP_VSA1>  (169) 
5.316789

>  <SlogP_VSA10>  (169) 
0.0

>  <SlogP_VSA11>  (169) 
0.0

>  <SlogP_VSA12>  (169) 
0.0

>  <SlogP_VSA2>  (169) 
43.383102

>  <SlogP_VSA3>  (169) 
10.023291

>  <SlogP_VSA4>  (169) 
6.923737

>  <SlogP_VSA5>  (169) 
18.90801

>  <SlogP_VSA6>  (169) 
35.488272

>  <SlogP_VSA7>  (169) 
0.0

>  <SlogP_VSA8>  (169) 
10.772448

>  <SlogP_VSA9>  (169) 
0.0

>  <EState_VSA1>  (169) 
10.023291

>  <EState_VSA10>  (169) 
8.417797

>  <EState_VSA11>  (169) 
0.0

>  <EState_VSA2>  (169) 
6.041841

>  <EState_VSA3>  (169) 
11.44024

>  <EState_VSA4>  (169) 
35.846234

>  <EState_VSA5>  (169) 
0.0

>  <EState_VSA6>  (169) 
28.831637

>  <EState_VSA7>  (169) 
19.913841

>  <EState_VSA8>  (169) 
10.300767

>  <EState_VSA9>  (169) 
0.0

>  <VSA_EState1>  (169) 
28.074385

>  <VSA_EState10>  (169) 
0.0

>  <VSA_EState2>  (169) 
4.566144

>  <VSA_EState3>  (169) 
3.853135

>  <VSA_EState4>  (169) 
0.894178

>  <VSA_EState5>  (169) 
0.0

>  <VSA_EState6>  (169) 
5.426092

>  <VSA_EState7>  (169) 
4.330203

>  <VSA_EState8>  (169) 
6.270631

>  <VSA_EState9>  (169) 
-3.498102

>  <FractionCSP3>  (169) 
0.4375

>  <HeavyAtomCount>  (169) 
22

>  <NHOHCount>  (169) 
2

>  <NOCount>  (169) 
5

>  <NumAliphaticCarbocycles>  (169) 
0

>  <NumAliphaticHeterocycles>  (169) 
1

>  <NumAliphaticRings>  (169) 
1

>  <NumAromaticCarbocycles>  (169) 
1

>  <NumAromaticHeterocycles>  (169) 
1

>  <NAR>  (169) 
2

>  <NumHAcceptors>  (169) 
3

>  <NumHDonors>  (169) 
1

>  <NumHeteroatoms>  (169) 
6

>  <NumRotatableBonds>  (169) 
2

>  <NumSaturatedCarbocycles>  (169) 
0

>  <NumSaturatedHeterocycles>  (169) 
1

>  <NumSaturatedRings>  (169) 
1

>  <RingCount>  (169) 
3

>  <MolLogP>  (169) 
0.88952

>  <MolMR>  (169) 
86.1102

>  <fr_Al_COO>  (169) 
0

>  <fr_Al_OH>  (169) 
0

>  <fr_Al_OH_noTert>  (169) 
0

>  <fr_ArN>  (169) 
0

>  <fr_Ar_COO>  (169) 
0

>  <fr_Ar_N>  (169) 
1

>  <fr_Ar_NH>  (169) 
0

>  <fr_Ar_OH>  (169) 
0

>  <fr_COO>  (169) 
0

>  <fr_COO2>  (169) 
0

>  <fr_C_O>  (169) 
0

>  <fr_C_O_noCOO>  (169) 
0

>  <fr_C_S>  (169) 
0

>  <fr_HOCCN>  (169) 
0

>  <fr_Imine>  (169) 
0

>  <fr_NH0>  (169) 
2

>  <fr_NH1>  (169) 
0

>  <fr_NH2>  (169) 
1

>  <fr_N_O>  (169) 
0

>  <fr_Ndealkylation1>  (169) 
0

>  <fr_Ndealkylation2>  (169) 
0

>  <fr_Nhpyrrole>  (169) 
0

>  <fr_SH>  (169) 
0

>  <fr_aldehyde>  (169) 
0

>  <fr_alkyl_carbamate>  (169) 
0

>  <fr_alkyl_halide>  (169) 
0

>  <fr_allylic_oxid>  (169) 
0

>  <fr_amide>  (169) 
0

>  <fr_amidine>  (169) 
0

>  <fr_aniline>  (169) 
0

>  <fr_aryl_methyl>  (169) 
1

>  <fr_azide>  (169) 
0

>  <fr_azo>  (169) 
0

>  <fr_barbitur>  (169) 
0

>  <fr_benzene>  (169) 
1

>  <fr_benzodiazepine>  (169) 
0

>  <fr_bicyclic>  (169) 
1

>  <fr_diazo>  (169) 
0

>  <fr_dihydropyridine>  (169) 
0

>  <fr_epoxide>  (169) 
0

>  <fr_ester>  (169) 
0

>  <fr_ether>  (169) 
0

>  <fr_furan>  (169) 
0

>  <fr_guanido>  (169) 
0

>  <fr_halogen>  (169) 
0

>  <fr_hdrzine>  (169) 
0

>  <fr_hdrzone>  (169) 
0

>  <fr_imidazole>  (169) 
0

>  <fr_imide>  (169) 
0

>  <fr_isocyan>  (169) 
0

>  <fr_isothiocyan>  (169) 
0

>  <fr_ketone>  (169) 
0

>  <fr_ketone_Topliss>  (169) 
0

>  <fr_lactam>  (169) 
0

>  <fr_lactone>  (169) 
0

>  <fr_methoxy>  (169) 
0

>  <fr_morpholine>  (169) 
0

>  <fr_nitrile>  (169) 
0

>  <fr_nitro>  (169) 
0

>  <fr_nitro_arom>  (169) 
0

>  <fr_nitro_arom_nonortho>  (169) 
0

>  <fr_nitroso>  (169) 
0

>  <fr_oxazole>  (169) 
0

>  <fr_oxime>  (169) 
0

>  <fr_para_hydroxylation>  (169) 
0

>  <fr_phenol>  (169) 
0

>  <fr_phenol_noOrthoHbond>  (169) 
0

>  <fr_phos_acid>  (169) 
0

>  <fr_phos_ester>  (169) 
0

>  <fr_piperdine>  (169) 
0

>  <fr_piperzine>  (169) 
0

>  <fr_priamide>  (169) 
0

>  <fr_prisulfonamd>  (169) 
0

>  <fr_pyridine>  (169) 
1

>  <fr_quatN>  (169) 
1

>  <fr_sulfide>  (169) 
0

>  <fr_sulfonamd>  (169) 
1

>  <fr_sulfone>  (169) 
0

>  <fr_term_acetylene>  (169) 
0

>  <fr_tetrazole>  (169) 
0

>  <fr_thiazole>  (169) 
0

>  <fr_thiocyan>  (169) 
0

>  <fr_thiophene>  (169) 
0

>  <fr_unbrch_alkane>  (169) 
0

>  <fr_urea>  (169) 
0

>  <NP-Likeness>  (169) 
-0.986159

$$$$
H52
     RDKit          3D

  0  0  0  0  0  0  0  0  0  0999 V3000
M  V30 BEGIN CTAB
M  V30 COUNTS 44 46 0 0 0
M  V30 BEGIN ATOM
M  V30 1 C -3.166072 -2.281252 1.496413 0
M  V30 2 N -3.369180 -3.537080 1.991914 0
M  V30 3 C -2.392286 -4.439904 1.820929 0
M  V30 4 C -1.245087 -4.075051 1.166679 0
M  V30 5 C -0.298880 -5.054605 1.016599 0
M  V30 6 C 0.870870 -4.777470 0.362798 0
M  V30 7 C 0.989445 -3.463109 -0.106591 0
M  V30 8 C 0.090491 -2.333472 -0.024916 0
M  V30 9 S 0.606433 -0.867022 -0.675064 0
M  V30 10 O 0.275812 -0.633325 -2.158157 0
M  V30 11 O 2.072828 -1.165273 -1.061215 0
M  V30 12 N 0.957150 0.517724 0.164957 0
M  V30 13 C 0.306022 1.688026 -0.184358 0
M  V30 14 C -0.145103 2.601029 0.937349 0
M  V30 15 C 0.929908 3.637669 1.142430 0
M  V30 16 N 2.236697 2.998541 1.096972 0 CHG=1 VAL=4
M  V30 17 C 2.142393 1.787473 1.855993 0
M  V30 18 C 2.043983 0.526033 1.050852 0 CFG=2
M  V30 19 C 3.382467 0.191690 0.502181 0
M  V30 20 C -0.989886 -2.838956 0.654285 0
M  V30 21 C -2.004743 -1.936927 0.841872 0
M  V30 22 C -1.890468 -0.581475 0.340401 0
M  V30 23 H -3.982895 -1.606312 1.664897 0
M  V30 24 H -2.526235 -5.420607 2.195917 0
M  V30 25 H -0.459261 -6.042964 1.407018 0
M  V30 26 H 1.596508 -5.548322 0.252710 0
M  V30 27 H 1.980181 -3.410702 -0.607454 0
M  V30 28 H 0.956799 2.361718 -0.864721 0
M  V30 29 H -0.559716 1.518780 -0.840166 0
M  V30 30 H -0.444242 2.093910 1.850947 0
M  V30 31 H -1.048217 3.175343 0.603238 0
M  V30 32 H 0.826389 4.429298 0.370780 0
M  V30 33 H 0.764519 4.070704 2.141044 0
M  V30 34 H 2.875941 3.695221 1.586518 0
M  V30 35 H 2.635323 2.892136 0.161597 0
M  V30 36 H 3.128236 1.703579 2.407438 0
M  V30 37 H 1.399791 1.874819 2.671236 0
M  V30 38 H 1.837003 -0.277476 1.823172 0
M  V30 39 H 4.152795 0.708770 1.113862 0
M  V30 40 H 3.644957 -0.897349 0.637155 0
M  V30 41 H 3.562172 0.553362 -0.529278 0
M  V30 42 H -2.989109 -0.223199 0.285850 0
M  V30 43 H -1.758487 -0.471559 -0.734502 0
M  V30 44 H -1.597363 0.186767 1.048008 0
M  V30 END ATOM
M  V30 BEGIN BOND
M  V30 1 2 1 2
M  V30 2 1 2 3
M  V30 3 2 3 4
M  V30 4 1 4 5
M  V30 5 2 5 6
M  V30 6 1 6 7
M  V30 7 2 7 8
M  V30 8 1 8 9
M  V30 9 2 9 10
M  V30 10 2 9 11
M  V30 11 1 9 12
M  V30 12 1 12 13
M  V30 13 1 13 14
M  V30 14 1 14 15
M  V30 15 1 15 16
M  V30 16 1 16 17
M  V30 17 1 17 18
M  V30 18 1 18 19
M  V30 19 1 8 20
M  V30 20 2 20 21
M  V30 21 1 21 22
M  V30 22 1 21 1
M  V30 23 1 20 4
M  V30 24 1 18 12
M  V30 25 1 1 23
M  V30 26 1 3 24
M  V30 27 1 5 25
M  V30 28 1 6 26
M  V30 29 1 7 27
M  V30 30 1 13 28
M  V30 31 1 13 29
M  V30 32 1 14 30
M  V30 33 1 14 31
M  V30 34 1 15 32
M  V30 35 1 15 33
M  V30 36 1 16 34
M  V30 37 1 16 35
M  V30 38 1 17 36
M  V30 39 1 17 37
M  V30 40 1 18 38 CFG=1
M  V30 41 1 19 39
M  V30 42 1 19 40
M  V30 43 1 19 41
M  V30 44 1 22 42
M  V30 45 1 22 43
M  V30 46 1 22 44
M  V30 END BOND
M  V30 END CTAB
M  END
>  <Dataset>  (170) 
PDB

>  <Ligand_Instance>  (170) 
2GNL_H52_A_501

>  <PDB_ID>  (170) 
2GNL

>  <Standardized_SMILES>  (170) 
[H]C1=NC([H])=C2C([H])=C([H])C([H])=C(S(=O)(=O)N3C([H])([H])C([H])([H])C([H])([H])[N+]([H])([H])C([H])([H])[C@]3([H])C([H])([H])[H])C2=C1C([H])([H])[H]

>  <Name>  (170) 
(S)-2-METHYL-1-[(4-METHYL-5-ISOQUINOLINE)SULFONYL]-HOMOPIPERAZINE

>  <Pocket>  (170) 
A

>  <ATP_Site>  (170) 
1.0

>  <Peripheral>  (170) 
0.0

>  <Num_H_Atoms_ProtBoundConf>  (170) 
22.0

>  <Num_Resolved_Atoms>  (170) 
22.0

>  <Num_Not_Resolved_Atoms>  (170) 
0.0

>  <2D_Mol_H>  (170) 
<rdkit.Chem.rdchem.Mol object at 0x72a238da7ca0>

>  <MW>  (170) 
320.438

>  <HBA>  (170) 
3

>  <HBD>  (170) 
1

>  <LogP>  (170) 
0.88952

>  <NRB>  (170) 
4

>  <TPSA>  (170) 
66.88

>  <Num_Heavy_Atoms>  (170) 
22

>  <Ro5>  (170) 
[True, True, True, True, True, True]

>  <Ro5_Fulfilled>  (170) 
True

>  <Ro3>  (170) 
[False, True, True, True]

>  <Ro3_Fulfilled>  (170) 
True

>  <Fsp3>  (170) 
0.4375

>  <Fsp3_0.42>  (170) 
True

>  <Fsp3_0.45>  (170) 
False

>  <Stereogenic_Carbons>  (170) 
1

>  <C_Atoms>  (170) 
16

>  <FCStereo>  (170) 
0.0625

>  <SPS>  (170) 
460

>  <nSPS>  (170) 
20.909091

>  <PBF>  (170) 
0.83332

>  <PBF_0.6>  (170) 
True

>  <nPBF>  (170) 
0.037878

>  <nPBF_0.016>  (170) 
True

>  <PMI1>  (170) 
1005.996894

>  <PMI2>  (170) 
2672.032693

>  <PMI3>  (170) 
3105.250622

>  <NPR1>  (170) 
0.323966

>  <NPR2>  (170) 
0.860489

>  <Sum_NPR>  (170) 
1.184455

>  <Sum_NPR_1.07>  (170) 
True

>  <Sum_NPR_1.2>  (170) 
False

>  <MaxAbsEStateIndex>  (170) 
13.208253

>  <MaxEStateIndex>  (170) 
13.208253

>  <MinAbsEStateIndex>  (170) 
0.004537

>  <MinEStateIndex>  (170) 
-3.498102

>  <qed>  (170) 
0.893472

>  <MolWt>  (170) 
320.438

>  <HeavyAtomMolWt>  (170) 
298.262

>  <ExactMolWt>  (170) 
320.142724

>  <NumValenceElectrons>  (170) 
118

>  <NumRadicalElectrons>  (170) 
0

>  <MaxPartialCharge>  (170) 
0.243653

>  <MinPartialCharge>  (170) 
-0.344891

>  <MaxAbsPartialCharge>  (170) 
0.344891

>  <MinAbsPartialCharge>  (170) 
0.243653

>  <FpDensityMorgan1>  (170) 
1.318182

>  <FpDensityMorgan2>  (170) 
2.136364

>  <FpDensityMorgan3>  (170) 
2.954545

>  <BCUT2D_MWHI>  (170) 
32.233428

>  <BCUT2D_MWLOW>  (170) 
10.102621

>  <BCUT2D_CHGHI>  (170) 
2.3214

>  <BCUT2D_CHGLO>  (170) 
-2.251786

>  <BCUT2D_LOGPHI>  (170) 
2.28428

>  <BCUT2D_LOGPLOW>  (170) 
-2.855537

>  <BCUT2D_MRHI>  (170) 
7.889912

>  <BCUT2D_MRLOW>  (170) 
-0.654222

>  <AvgIpc>  (170) 
2.717475

>  <BalabanJ>  (170) 
2.168145

>  <BertzCT>  (170) 
783.827542

>  <Chi0>  (170) 
15.742276

>  <Chi0n>  (170) 
12.989051

>  <Chi0v>  (170) 
13.805548

>  <Chi1>  (170) 
10.514874

>  <Chi1n>  (170) 
7.684318

>  <Chi1v>  (170) 
9.124382

>  <Chi2n>  (170) 
5.942042

>  <Chi2v>  (170) 
7.801019

>  <Chi3n>  (170) 
4.307383

>  <Chi3v>  (170) 
6.363327

>  <Chi4n>  (170) 
3.158439

>  <Chi4v>  (170) 
5.127734

>  <HallKierAlpha>  (170) 
-1.5

>  <Ipc>  (170) 
114954.624477

>  <Kappa1>  (170) 
15.397778

>  <Kappa2>  (170) 
5.94687

>  <Kappa3>  (170) 
2.620245

>  <LabuteASA>  (170) 
130.951951

>  <PEOE_VSA1>  (170) 
5.316789

>  <PEOE_VSA10>  (170) 
0.0

>  <PEOE_VSA11>  (170) 
0.0

>  <PEOE_VSA12>  (170) 
10.023291

>  <PEOE_VSA13>  (170) 
0.0

>  <PEOE_VSA14>  (170) 
0.0

>  <PEOE_VSA2>  (170) 
4.983979

>  <PEOE_VSA3>  (170) 
8.417797

>  <PEOE_VSA4>  (170) 
4.305216

>  <PEOE_VSA5>  (170) 
0.0

>  <PEOE_VSA6>  (170) 
12.132734

>  <PEOE_VSA7>  (170) 
25.477293

>  <PEOE_VSA8>  (170) 
36.131714

>  <PEOE_VSA9>  (170) 
24.026837

>  <SMR_VSA1>  (170) 
13.734586

>  <SMR_VSA10>  (170) 
20.79574

>  <SMR_VSA2>  (170) 
0.0

>  <SMR_VSA3>  (170) 
9.289195

>  <SMR_VSA4>  (170) 
0.0

>  <SMR_VSA5>  (170) 
31.20562

>  <SMR_VSA6>  (170) 
19.634269

>  <SMR_VSA7>  (170) 
36.15624

>  <SMR_VSA8>  (170) 
0.0

>  <SMR_VSA9>  (170) 
0.0

>  <SlogP_VSA1>  (170) 
5.316789

>  <SlogP_VSA10>  (170) 
0.0

>  <SlogP_VSA11>  (170) 
0.0

>  <SlogP_VSA12>  (170) 
0.0

>  <SlogP_VSA2>  (170) 
43.383102

>  <SlogP_VSA3>  (170) 
10.023291

>  <SlogP_VSA4>  (170) 
6.923737

>  <SlogP_VSA5>  (170) 
18.90801

>  <SlogP_VSA6>  (170) 
35.488272

>  <SlogP_VSA7>  (170) 
0.0

>  <SlogP_VSA8>  (170) 
10.772448

>  <SlogP_VSA9>  (170) 
0.0

>  <EState_VSA1>  (170) 
10.023291

>  <EState_VSA10>  (170) 
8.417797

>  <EState_VSA11>  (170) 
0.0

>  <EState_VSA2>  (170) 
6.041841

>  <EState_VSA3>  (170) 
11.44024

>  <EState_VSA4>  (170) 
35.846234

>  <EState_VSA5>  (170) 
0.0

>  <EState_VSA6>  (170) 
28.831637

>  <EState_VSA7>  (170) 
19.913841

>  <EState_VSA8>  (170) 
10.300767

>  <EState_VSA9>  (170) 
0.0

>  <VSA_EState1>  (170) 
28.074385

>  <VSA_EState10>  (170) 
0.0

>  <VSA_EState2>  (170) 
4.566144

>  <VSA_EState3>  (170) 
3.853135

>  <VSA_EState4>  (170) 
0.894178

>  <VSA_EState5>  (170) 
0.0

>  <VSA_EState6>  (170) 
5.426092

>  <VSA_EState7>  (170) 
4.330203

>  <VSA_EState8>  (170) 
6.270631

>  <VSA_EState9>  (170) 
-3.498102

>  <FractionCSP3>  (170) 
0.4375

>  <HeavyAtomCount>  (170) 
22

>  <NHOHCount>  (170) 
2

>  <NOCount>  (170) 
5

>  <NumAliphaticCarbocycles>  (170) 
0

>  <NumAliphaticHeterocycles>  (170) 
1

>  <NumAliphaticRings>  (170) 
1

>  <NumAromaticCarbocycles>  (170) 
1

>  <NumAromaticHeterocycles>  (170) 
1

>  <NAR>  (170) 
2

>  <NumHAcceptors>  (170) 
3

>  <NumHDonors>  (170) 
1

>  <NumHeteroatoms>  (170) 
6

>  <NumRotatableBonds>  (170) 
2

>  <NumSaturatedCarbocycles>  (170) 
0

>  <NumSaturatedHeterocycles>  (170) 
1

>  <NumSaturatedRings>  (170) 
1

>  <RingCount>  (170) 
3

>  <MolLogP>  (170) 
0.88952

>  <MolMR>  (170) 
86.1102

>  <fr_Al_COO>  (170) 
0

>  <fr_Al_OH>  (170) 
0

>  <fr_Al_OH_noTert>  (170) 
0

>  <fr_ArN>  (170) 
0

>  <fr_Ar_COO>  (170) 
0

>  <fr_Ar_N>  (170) 
1

>  <fr_Ar_NH>  (170) 
0

>  <fr_Ar_OH>  (170) 
0

>  <fr_COO>  (170) 
0

>  <fr_COO2>  (170) 
0

>  <fr_C_O>  (170) 
0

>  <fr_C_O_noCOO>  (170) 
0

>  <fr_C_S>  (170) 
0

>  <fr_HOCCN>  (170) 
0

>  <fr_Imine>  (170) 
0

>  <fr_NH0>  (170) 
2

>  <fr_NH1>  (170) 
0

>  <fr_NH2>  (170) 
1

>  <fr_N_O>  (170) 
0

>  <fr_Ndealkylation1>  (170) 
0

>  <fr_Ndealkylation2>  (170) 
0

>  <fr_Nhpyrrole>  (170) 
0

>  <fr_SH>  (170) 
0

>  <fr_aldehyde>  (170) 
0

>  <fr_alkyl_carbamate>  (170) 
0

>  <fr_alkyl_halide>  (170) 
0

>  <fr_allylic_oxid>  (170) 
0

>  <fr_amide>  (170) 
0

>  <fr_amidine>  (170) 
0

>  <fr_aniline>  (170) 
0

>  <fr_aryl_methyl>  (170) 
1

>  <fr_azide>  (170) 
0

>  <fr_azo>  (170) 
0

>  <fr_barbitur>  (170) 
0

>  <fr_benzene>  (170) 
1

>  <fr_benzodiazepine>  (170) 
0

>  <fr_bicyclic>  (170) 
1

>  <fr_diazo>  (170) 
0

>  <fr_dihydropyridine>  (170) 
0

>  <fr_epoxide>  (170) 
0

>  <fr_ester>  (170) 
0

>  <fr_ether>  (170) 
0

>  <fr_furan>  (170) 
0

>  <fr_guanido>  (170) 
0

>  <fr_halogen>  (170) 
0

>  <fr_hdrzine>  (170) 
0

>  <fr_hdrzone>  (170) 
0

>  <fr_imidazole>  (170) 
0

>  <fr_imide>  (170) 
0

>  <fr_isocyan>  (170) 
0

>  <fr_isothiocyan>  (170) 
0

>  <fr_ketone>  (170) 
0

>  <fr_ketone_Topliss>  (170) 
0

>  <fr_lactam>  (170) 
0

>  <fr_lactone>  (170) 
0

>  <fr_methoxy>  (170) 
0

>  <fr_morpholine>  (170) 
0

>  <fr_nitrile>  (170) 
0

>  <fr_nitro>  (170) 
0

>  <fr_nitro_arom>  (170) 
0

>  <fr_nitro_arom_nonortho>  (170) 
0

>  <fr_nitroso>  (170) 
0

>  <fr_oxazole>  (170) 
0

>  <fr_oxime>  (170) 
0

>  <fr_para_hydroxylation>  (170) 
0

>  <fr_phenol>  (170) 
0

>  <fr_phenol_noOrthoHbond>  (170) 
0

>  <fr_phos_acid>  (170) 
0

>  <fr_phos_ester>  (170) 
0

>  <fr_piperdine>  (170) 
0

>  <fr_piperzine>  (170) 
0

>  <fr_priamide>  (170) 
0

>  <fr_prisulfonamd>  (170) 
0

>  <fr_pyridine>  (170) 
1

>  <fr_quatN>  (170) 
1

>  <fr_sulfide>  (170) 
0

>  <fr_sulfonamd>  (170) 
1

>  <fr_sulfone>  (170) 
0

>  <fr_term_acetylene>  (170) 
0

>  <fr_tetrazole>  (170) 
0

>  <fr_thiazole>  (170) 
0

>  <fr_thiocyan>  (170) 
0

>  <fr_thiophene>  (170) 
0

>  <fr_unbrch_alkane>  (170) 
0

>  <fr_urea>  (170) 
0

>  <NP-Likeness>  (170) 
-0.986159

$$$$
H52
     RDKit          3D

  0  0  0  0  0  0  0  0  0  0999 V3000
M  V30 BEGIN CTAB
M  V30 COUNTS 44 46 0 0 0
M  V30 BEGIN ATOM
M  V30 1 C -3.166072 -2.281252 1.496413 0
M  V30 2 N -3.369180 -3.537080 1.991914 0
M  V30 3 C -2.392286 -4.439904 1.820929 0
M  V30 4 C -1.245087 -4.075051 1.166679 0
M  V30 5 C -0.298880 -5.054605 1.016599 0
M  V30 6 C 0.870870 -4.777470 0.362798 0
M  V30 7 C 0.989445 -3.463109 -0.106591 0
M  V30 8 C 0.090491 -2.333472 -0.024916 0
M  V30 9 S 0.606433 -0.867022 -0.675064 0
M  V30 10 O 0.275812 -0.633325 -2.158157 0
M  V30 11 O 2.072828 -1.165273 -1.061215 0
M  V30 12 N 0.957150 0.517724 0.164957 0
M  V30 13 C 0.306022 1.688026 -0.184358 0
M  V30 14 C -0.145103 2.601029 0.937349 0
M  V30 15 C 0.929908 3.637669 1.142430 0
M  V30 16 N 2.236697 2.998541 1.096972 0 CHG=1 VAL=4
M  V30 17 C 2.142393 1.787473 1.855993 0
M  V30 18 C 2.043983 0.526033 1.050852 0 CFG=2
M  V30 19 C 3.382467 0.191690 0.502181 0
M  V30 20 C -0.989886 -2.838956 0.654285 0
M  V30 21 C -2.004743 -1.936927 0.841872 0
M  V30 22 C -1.890468 -0.581475 0.340401 0
M  V30 23 H -3.982895 -1.606312 1.664897 0
M  V30 24 H -2.526235 -5.420607 2.195917 0
M  V30 25 H -0.459261 -6.042964 1.407018 0
M  V30 26 H 1.596508 -5.548322 0.252710 0
M  V30 27 H 1.980181 -3.410702 -0.607454 0
M  V30 28 H 0.956799 2.361718 -0.864721 0
M  V30 29 H -0.559716 1.518780 -0.840166 0
M  V30 30 H -0.444242 2.093910 1.850947 0
M  V30 31 H -1.048217 3.175343 0.603238 0
M  V30 32 H 0.826389 4.429298 0.370780 0
M  V30 33 H 0.764519 4.070704 2.141044 0
M  V30 34 H 2.875941 3.695221 1.586518 0
M  V30 35 H 2.635323 2.892136 0.161597 0
M  V30 36 H 3.128236 1.703579 2.407438 0
M  V30 37 H 1.399791 1.874819 2.671236 0
M  V30 38 H 1.837003 -0.277476 1.823172 0
M  V30 39 H 4.152795 0.708770 1.113862 0
M  V30 40 H 3.644957 -0.897349 0.637155 0
M  V30 41 H 3.562172 0.553362 -0.529278 0
M  V30 42 H -2.989109 -0.223199 0.285850 0
M  V30 43 H -1.758487 -0.471559 -0.734502 0
M  V30 44 H -1.597363 0.186767 1.048008 0
M  V30 END ATOM
M  V30 BEGIN BOND
M  V30 1 2 1 2
M  V30 2 1 2 3
M  V30 3 2 3 4
M  V30 4 1 4 5
M  V30 5 2 5 6
M  V30 6 1 6 7
M  V30 7 2 7 8
M  V30 8 1 8 9
M  V30 9 2 9 10
M  V30 10 2 9 11
M  V30 11 1 9 12
M  V30 12 1 12 13
M  V30 13 1 13 14
M  V30 14 1 14 15
M  V30 15 1 15 16
M  V30 16 1 16 17
M  V30 17 1 17 18
M  V30 18 1 18 19
M  V30 19 1 8 20
M  V30 20 2 20 21
M  V30 21 1 21 22
M  V30 22 1 21 1
M  V30 23 1 20 4
M  V30 24 1 18 12
M  V30 25 1 1 23
M  V30 26 1 3 24
M  V30 27 1 5 25
M  V30 28 1 6 26
M  V30 29 1 7 27
M  V30 30 1 13 28
M  V30 31 1 13 29
M  V30 32 1 14 30
M  V30 33 1 14 31
M  V30 34 1 15 32
M  V30 35 1 15 33
M  V30 36 1 16 34
M  V30 37 1 16 35
M  V30 38 1 17 36
M  V30 39 1 17 37
M  V30 40 1 18 38 CFG=1
M  V30 41 1 19 39
M  V30 42 1 19 40
M  V30 43 1 19 41
M  V30 44 1 22 42
M  V30 45 1 22 43
M  V30 46 1 22 44
M  V30 END BOND
M  V30 END CTAB
M  END
>  <Dataset>  (171) 
PDB

>  <Ligand_Instance>  (171) 
5M6V_H52_A_401

>  <PDB_ID>  (171) 
5M6V

>  <Standardized_SMILES>  (171) 
[H]C1=NC([H])=C2C([H])=C([H])C([H])=C(S(=O)(=O)N3C([H])([H])C([H])([H])C([H])([H])[N+]([H])([H])C([H])([H])[C@]3([H])C([H])([H])[H])C2=C1C([H])([H])[H]

>  <Name>  (171) 
(S)-2-METHYL-1-[(4-METHYL-5-ISOQUINOLINE)SULFONYL]-HOMOPIPERAZINE

>  <Pocket>  (171) 
A

>  <ATP_Site>  (171) 
1.0

>  <Peripheral>  (171) 
0.0

>  <Num_H_Atoms_ProtBoundConf>  (171) 
22.0

>  <Num_Resolved_Atoms>  (171) 
22.0

>  <Num_Not_Resolved_Atoms>  (171) 
0.0

>  <2D_Mol_H>  (171) 
<rdkit.Chem.rdchem.Mol object at 0x72a238da7d80>

>  <MW>  (171) 
320.438

>  <HBA>  (171) 
3

>  <HBD>  (171) 
1

>  <LogP>  (171) 
0.88952

>  <NRB>  (171) 
4

>  <TPSA>  (171) 
66.88

>  <Num_Heavy_Atoms>  (171) 
22

>  <Ro5>  (171) 
[True, True, True, True, True, True]

>  <Ro5_Fulfilled>  (171) 
True

>  <Ro3>  (171) 
[False, True, True, True]

>  <Ro3_Fulfilled>  (171) 
True

>  <Fsp3>  (171) 
0.4375

>  <Fsp3_0.42>  (171) 
True

>  <Fsp3_0.45>  (171) 
False

>  <Stereogenic_Carbons>  (171) 
1

>  <C_Atoms>  (171) 
16

>  <FCStereo>  (171) 
0.0625

>  <SPS>  (171) 
460

>  <nSPS>  (171) 
20.909091

>  <PBF>  (171) 
0.83332

>  <PBF_0.6>  (171) 
True

>  <nPBF>  (171) 
0.037878

>  <nPBF_0.016>  (171) 
True

>  <PMI1>  (171) 
1005.996894

>  <PMI2>  (171) 
2672.032693

>  <PMI3>  (171) 
3105.250622

>  <NPR1>  (171) 
0.323966

>  <NPR2>  (171) 
0.860489

>  <Sum_NPR>  (171) 
1.184455

>  <Sum_NPR_1.07>  (171) 
True

>  <Sum_NPR_1.2>  (171) 
False

>  <MaxAbsEStateIndex>  (171) 
13.208253

>  <MaxEStateIndex>  (171) 
13.208253

>  <MinAbsEStateIndex>  (171) 
0.004537

>  <MinEStateIndex>  (171) 
-3.498102

>  <qed>  (171) 
0.893472

>  <MolWt>  (171) 
320.438

>  <HeavyAtomMolWt>  (171) 
298.262

>  <ExactMolWt>  (171) 
320.142724

>  <NumValenceElectrons>  (171) 
118

>  <NumRadicalElectrons>  (171) 
0

>  <MaxPartialCharge>  (171) 
0.243653

>  <MinPartialCharge>  (171) 
-0.344891

>  <MaxAbsPartialCharge>  (171) 
0.344891

>  <MinAbsPartialCharge>  (171) 
0.243653

>  <FpDensityMorgan1>  (171) 
1.318182

>  <FpDensityMorgan2>  (171) 
2.136364

>  <FpDensityMorgan3>  (171) 
2.954545

>  <BCUT2D_MWHI>  (171) 
32.233428

>  <BCUT2D_MWLOW>  (171) 
10.102621

>  <BCUT2D_CHGHI>  (171) 
2.3214

>  <BCUT2D_CHGLO>  (171) 
-2.251786

>  <BCUT2D_LOGPHI>  (171) 
2.28428

>  <BCUT2D_LOGPLOW>  (171) 
-2.855537

>  <BCUT2D_MRHI>  (171) 
7.889912

>  <BCUT2D_MRLOW>  (171) 
-0.654222

>  <AvgIpc>  (171) 
2.717475

>  <BalabanJ>  (171) 
2.168145

>  <BertzCT>  (171) 
783.827542

>  <Chi0>  (171) 
15.742276

>  <Chi0n>  (171) 
12.989051

>  <Chi0v>  (171) 
13.805548

>  <Chi1>  (171) 
10.514874

>  <Chi1n>  (171) 
7.684318

>  <Chi1v>  (171) 
9.124382

>  <Chi2n>  (171) 
5.942042

>  <Chi2v>  (171) 
7.801019

>  <Chi3n>  (171) 
4.307383

>  <Chi3v>  (171) 
6.363327

>  <Chi4n>  (171) 
3.158439

>  <Chi4v>  (171) 
5.127734

>  <HallKierAlpha>  (171) 
-1.5

>  <Ipc>  (171) 
114954.624477

>  <Kappa1>  (171) 
15.397778

>  <Kappa2>  (171) 
5.94687

>  <Kappa3>  (171) 
2.620245

>  <LabuteASA>  (171) 
130.951951

>  <PEOE_VSA1>  (171) 
5.316789

>  <PEOE_VSA10>  (171) 
0.0

>  <PEOE_VSA11>  (171) 
0.0

>  <PEOE_VSA12>  (171) 
10.023291

>  <PEOE_VSA13>  (171) 
0.0

>  <PEOE_VSA14>  (171) 
0.0

>  <PEOE_VSA2>  (171) 
4.983979

>  <PEOE_VSA3>  (171) 
8.417797

>  <PEOE_VSA4>  (171) 
4.305216

>  <PEOE_VSA5>  (171) 
0.0

>  <PEOE_VSA6>  (171) 
12.132734

>  <PEOE_VSA7>  (171) 
25.477293

>  <PEOE_VSA8>  (171) 
36.131714

>  <PEOE_VSA9>  (171) 
24.026837

>  <SMR_VSA1>  (171) 
13.734586

>  <SMR_VSA10>  (171) 
20.79574

>  <SMR_VSA2>  (171) 
0.0

>  <SMR_VSA3>  (171) 
9.289195

>  <SMR_VSA4>  (171) 
0.0

>  <SMR_VSA5>  (171) 
31.20562

>  <SMR_VSA6>  (171) 
19.634269

>  <SMR_VSA7>  (171) 
36.15624

>  <SMR_VSA8>  (171) 
0.0

>  <SMR_VSA9>  (171) 
0.0

>  <SlogP_VSA1>  (171) 
5.316789

>  <SlogP_VSA10>  (171) 
0.0

>  <SlogP_VSA11>  (171) 
0.0

>  <SlogP_VSA12>  (171) 
0.0

>  <SlogP_VSA2>  (171) 
43.383102

>  <SlogP_VSA3>  (171) 
10.023291

>  <SlogP_VSA4>  (171) 
6.923737

>  <SlogP_VSA5>  (171) 
18.90801

>  <SlogP_VSA6>  (171) 
35.488272

>  <SlogP_VSA7>  (171) 
0.0

>  <SlogP_VSA8>  (171) 
10.772448

>  <SlogP_VSA9>  (171) 
0.0

>  <EState_VSA1>  (171) 
10.023291

>  <EState_VSA10>  (171) 
8.417797

>  <EState_VSA11>  (171) 
0.0

>  <EState_VSA2>  (171) 
6.041841

>  <EState_VSA3>  (171) 
11.44024

>  <EState_VSA4>  (171) 
35.846234

>  <EState_VSA5>  (171) 
0.0

>  <EState_VSA6>  (171) 
28.831637

>  <EState_VSA7>  (171) 
19.913841

>  <EState_VSA8>  (171) 
10.300767

>  <EState_VSA9>  (171) 
0.0

>  <VSA_EState1>  (171) 
28.074385

>  <VSA_EState10>  (171) 
0.0

>  <VSA_EState2>  (171) 
4.566144

>  <VSA_EState3>  (171) 
3.853135

>  <VSA_EState4>  (171) 
0.894178

>  <VSA_EState5>  (171) 
0.0

>  <VSA_EState6>  (171) 
5.426092

>  <VSA_EState7>  (171) 
4.330203

>  <VSA_EState8>  (171) 
6.270631

>  <VSA_EState9>  (171) 
-3.498102

>  <FractionCSP3>  (171) 
0.4375

>  <HeavyAtomCount>  (171) 
22

>  <NHOHCount>  (171) 
2

>  <NOCount>  (171) 
5

>  <NumAliphaticCarbocycles>  (171) 
0

>  <NumAliphaticHeterocycles>  (171) 
1

>  <NumAliphaticRings>  (171) 
1

>  <NumAromaticCarbocycles>  (171) 
1

>  <NumAromaticHeterocycles>  (171) 
1

>  <NAR>  (171) 
2

>  <NumHAcceptors>  (171) 
3

>  <NumHDonors>  (171) 
1

>  <NumHeteroatoms>  (171) 
6

>  <NumRotatableBonds>  (171) 
2

>  <NumSaturatedCarbocycles>  (171) 
0

>  <NumSaturatedHeterocycles>  (171) 
1

>  <NumSaturatedRings>  (171) 
1

>  <RingCount>  (171) 
3

>  <MolLogP>  (171) 
0.88952

>  <MolMR>  (171) 
86.1102

>  <fr_Al_COO>  (171) 
0

>  <fr_Al_OH>  (171) 
0

>  <fr_Al_OH_noTert>  (171) 
0

>  <fr_ArN>  (171) 
0

>  <fr_Ar_COO>  (171) 
0

>  <fr_Ar_N>  (171) 
1

>  <fr_Ar_NH>  (171) 
0

>  <fr_Ar_OH>  (171) 
0

>  <fr_COO>  (171) 
0

>  <fr_COO2>  (171) 
0

>  <fr_C_O>  (171) 
0

>  <fr_C_O_noCOO>  (171) 
0

>  <fr_C_S>  (171) 
0

>  <fr_HOCCN>  (171) 
0

>  <fr_Imine>  (171) 
0

>  <fr_NH0>  (171) 
2

>  <fr_NH1>  (171) 
0

>  <fr_NH2>  (171) 
1

>  <fr_N_O>  (171) 
0

>  <fr_Ndealkylation1>  (171) 
0

>  <fr_Ndealkylation2>  (171) 
0

>  <fr_Nhpyrrole>  (171) 
0

>  <fr_SH>  (171) 
0

>  <fr_aldehyde>  (171) 
0

>  <fr_alkyl_carbamate>  (171) 
0

>  <fr_alkyl_halide>  (171) 
0

>  <fr_allylic_oxid>  (171) 
0

>  <fr_amide>  (171) 
0

>  <fr_amidine>  (171) 
0

>  <fr_aniline>  (171) 
0

>  <fr_aryl_methyl>  (171) 
1

>  <fr_azide>  (171) 
0

>  <fr_azo>  (171) 
0

>  <fr_barbitur>  (171) 
0

>  <fr_benzene>  (171) 
1

>  <fr_benzodiazepine>  (171) 
0

>  <fr_bicyclic>  (171) 
1

>  <fr_diazo>  (171) 
0

>  <fr_dihydropyridine>  (171) 
0

>  <fr_epoxide>  (171) 
0

>  <fr_ester>  (171) 
0

>  <fr_ether>  (171) 
0

>  <fr_furan>  (171) 
0

>  <fr_guanido>  (171) 
0

>  <fr_halogen>  (171) 
0

>  <fr_hdrzine>  (171) 
0

>  <fr_hdrzone>  (171) 
0

>  <fr_imidazole>  (171) 
0

>  <fr_imide>  (171) 
0

>  <fr_isocyan>  (171) 
0

>  <fr_isothiocyan>  (171) 
0

>  <fr_ketone>  (171) 
0

>  <fr_ketone_Topliss>  (171) 
0

>  <fr_lactam>  (171) 
0

>  <fr_lactone>  (171) 
0

>  <fr_methoxy>  (171) 
0

>  <fr_morpholine>  (171) 
0

>  <fr_nitrile>  (171) 
0

>  <fr_nitro>  (171) 
0

>  <fr_nitro_arom>  (171) 
0

>  <fr_nitro_arom_nonortho>  (171) 
0

>  <fr_nitroso>  (171) 
0

>  <fr_oxazole>  (171) 
0

>  <fr_oxime>  (171) 
0

>  <fr_para_hydroxylation>  (171) 
0

>  <fr_phenol>  (171) 
0

>  <fr_phenol_noOrthoHbond>  (171) 
0

>  <fr_phos_acid>  (171) 
0

>  <fr_phos_ester>  (171) 
0

>  <fr_piperdine>  (171) 
0

>  <fr_piperzine>  (171) 
0

>  <fr_priamide>  (171) 
0

>  <fr_prisulfonamd>  (171) 
0

>  <fr_pyridine>  (171) 
1

>  <fr_quatN>  (171) 
1

>  <fr_sulfide>  (171) 
0

>  <fr_sulfonamd>  (171) 
1

>  <fr_sulfone>  (171) 
0

>  <fr_term_acetylene>  (171) 
0

>  <fr_tetrazole>  (171) 
0

>  <fr_thiazole>  (171) 
0

>  <fr_thiocyan>  (171) 
0

>  <fr_thiophene>  (171) 
0

>  <fr_unbrch_alkane>  (171) 
0

>  <fr_urea>  (171) 
0

>  <NP-Likeness>  (171) 
-0.986159

$$$$
HBD
     RDKit          3D

  0  0  0  0  0  0  0  0  0  0999 V3000
M  V30 BEGIN CTAB
M  V30 COUNTS 17 17 0 0 0
M  V30 BEGIN ATOM
M  V30 1 O -0.872605 -0.970196 -1.502265 0
M  V30 2 C -0.057108 -0.430686 -0.490381 0
M  V30 3 C -0.611937 -0.287184 0.758338 0
M  V30 4 C 0.193327 0.243338 1.749103 0
M  V30 5 C 1.506586 0.607013 1.462027 0
M  V30 6 C 2.435932 1.173246 2.430771 0
M  V30 7 O 3.636283 1.505046 2.166300 0
M  V30 8 N 2.171415 1.443792 3.792735 0
M  V30 9 C 2.006620 0.437587 0.184500 0
M  V30 10 C 1.234471 -0.089054 -0.833578 0
M  V30 11 H -0.869829 -1.981939 -1.591362 0
M  V30 12 H -1.618251 -0.565229 0.980703 0
M  V30 13 H -0.154666 0.393672 2.761223 0
M  V30 14 H 2.436867 2.304659 4.305976 0
M  V30 15 H 1.663050 0.651464 4.231540 0
M  V30 16 H 3.024155 0.710480 -0.071659 0
M  V30 17 H 1.592640 -0.238954 -1.856946 0
M  V30 END ATOM
M  V30 BEGIN BOND
M  V30 1 1 1 2
M  V30 2 2 2 3
M  V30 3 1 3 4
M  V30 4 2 4 5
M  V30 5 1 5 6
M  V30 6 2 6 7
M  V30 7 1 6 8
M  V30 8 1 5 9
M  V30 9 2 9 10
M  V30 10 1 10 2
M  V30 11 1 1 11
M  V30 12 1 3 12
M  V30 13 1 4 13
M  V30 14 1 8 14
M  V30 15 1 8 15
M  V30 16 1 9 16
M  V30 17 1 10 17
M  V30 END BOND
M  V30 END CTAB
M  END
>  <Dataset>  (172) 
PDB

>  <Ligand_Instance>  (172) 
5N3S_HBD_A_401

>  <PDB_ID>  (172) 
5N3S

>  <Standardized_SMILES>  (172) 
[H]OC1=C([H])C([H])=C(C(=O)N([H])[H])C([H])=C1[H]

>  <Name>  (172) 
4-HYDROXYBENZAMIDE

>  <Pocket>  (172) 
A

>  <ATP_Site>  (172) 
1.0

>  <Peripheral>  (172) 
0.0

>  <Num_H_Atoms_ProtBoundConf>  (172) 
7.0

>  <Num_Resolved_Atoms>  (172) 
10.0

>  <Num_Not_Resolved_Atoms>  (172) 
0.0

>  <2D_Mol_H>  (172) 
<rdkit.Chem.rdchem.Mol object at 0x72a238da7e60>

>  <MW>  (172) 
137.138

>  <HBA>  (172) 
2

>  <HBD>  (172) 
2

>  <LogP>  (172) 
0.4911

>  <NRB>  (172) 
2

>  <TPSA>  (172) 
63.32

>  <Num_Heavy_Atoms>  (172) 
10

>  <Ro5>  (172) 
[True, True, True, True, True, True]

>  <Ro5_Fulfilled>  (172) 
True

>  <Ro3>  (172) 
[True, True, True, True]

>  <Ro3_Fulfilled>  (172) 
True

>  <Fsp3>  (172) 
0.0

>  <Fsp3_0.42>  (172) 
False

>  <Fsp3_0.45>  (172) 
False

>  <Stereogenic_Carbons>  (172) 
0

>  <C_Atoms>  (172) 
7

>  <FCStereo>  (172) 
0.0

>  <SPS>  (172) 
92

>  <nSPS>  (172) 
9.2

>  <PBF>  (172) 
0.191632

>  <PBF_0.6>  (172) 
False

>  <nPBF>  (172) 
0.019163

>  <nPBF_0.016>  (172) 
True

>  <PMI1>  (172) 
130.936639

>  <PMI2>  (172) 
646.858311

>  <PMI3>  (172) 
774.574444

>  <NPR1>  (172) 
0.169043

>  <NPR2>  (172) 
0.835114

>  <Sum_NPR>  (172) 
1.004158

>  <Sum_NPR_1.07>  (172) 
False

>  <Sum_NPR_1.2>  (172) 
False

>  <MaxAbsEStateIndex>  (172) 
10.452816

>  <MaxEStateIndex>  (172) 
10.452816

>  <MinAbsEStateIndex>  (172) 
0.12963

>  <MinEStateIndex>  (172) 
-0.486111

>  <qed>  (172) 
0.591271

>  <MolWt>  (172) 
137.138

>  <HeavyAtomMolWt>  (172) 
130.082

>  <ExactMolWt>  (172) 
137.047678

>  <NumValenceElectrons>  (172) 
52

>  <NumRadicalElectrons>  (172) 
0

>  <MaxPartialCharge>  (172) 
0.2482

>  <MinPartialCharge>  (172) 
-0.507966

>  <MaxAbsPartialCharge>  (172) 
0.507966

>  <MinAbsPartialCharge>  (172) 
0.2482

>  <FpDensityMorgan1>  (172) 
1.3

>  <FpDensityMorgan2>  (172) 
1.8

>  <FpDensityMorgan3>  (172) 
2.2

>  <BCUT2D_MWHI>  (172) 
16.254692

>  <BCUT2D_MWLOW>  (172) 
10.189756

>  <BCUT2D_CHGHI>  (172) 
1.964152

>  <BCUT2D_CHGLO>  (172) 
-1.926744

>  <BCUT2D_LOGPHI>  (172) 
2.077208

>  <BCUT2D_LOGPLOW>  (172) 
-2.095167

>  <BCUT2D_MRHI>  (172) 
5.922807

>  <BCUT2D_MRLOW>  (172) 
0.100007

>  <AvgIpc>  (172) 
1.884505

>  <BalabanJ>  (172) 
3.003401

>  <BertzCT>  (172) 
240.287949

>  <Chi0>  (172) 
7.560478

>  <Chi0n>  (172) 
5.242213

>  <Chi0v>  (172) 
5.242213

>  <Chi1>  (172) 
4.698377

>  <Chi1n>  (172) 
2.787773

>  <Chi1v>  (172) 
2.787773

>  <Chi2n>  (172) 
1.911125

>  <Chi2v>  (172) 
1.911125

>  <Chi3n>  (172) 
1.151823

>  <Chi3v>  (172) 
1.151823

>  <Chi4n>  (172) 
0.625697

>  <Chi4v>  (172) 
0.625697

>  <HallKierAlpha>  (172) 
-1.51

>  <Ipc>  (172) 
180.912515

>  <Kappa1>  (172) 
6.607786

>  <Kappa2>  (172) 
2.389633

>  <Kappa3>  (172) 
1.253905

>  <LabuteASA>  (172) 
58.091992

>  <PEOE_VSA1>  (172) 
10.840195

>  <PEOE_VSA10>  (172) 
5.749512

>  <PEOE_VSA11>  (172) 
0.0

>  <PEOE_VSA12>  (172) 
5.90718

>  <PEOE_VSA13>  (172) 
0.0

>  <PEOE_VSA14>  (172) 
0.0

>  <PEOE_VSA2>  (172) 
4.794537

>  <PEOE_VSA3>  (172) 
0.0

>  <PEOE_VSA4>  (172) 
0.0

>  <PEOE_VSA5>  (172) 
0.0

>  <PEOE_VSA6>  (172) 
0.0

>  <PEOE_VSA7>  (172) 
24.265468

>  <PEOE_VSA8>  (172) 
5.563451

>  <PEOE_VSA9>  (172) 
0.0

>  <SMR_VSA1>  (172) 
9.901065

>  <SMR_VSA10>  (172) 
5.90718

>  <SMR_VSA2>  (172) 
0.0

>  <SMR_VSA3>  (172) 
0.0

>  <SMR_VSA4>  (172) 
5.733667

>  <SMR_VSA5>  (172) 
0.0

>  <SMR_VSA6>  (172) 
0.0

>  <SMR_VSA7>  (172) 
29.82892

>  <SMR_VSA8>  (172) 
0.0

>  <SMR_VSA9>  (172) 
5.749512

>  <SlogP_VSA1>  (172) 
5.733667

>  <SlogP_VSA10>  (172) 
0.0

>  <SlogP_VSA11>  (172) 
5.749512

>  <SlogP_VSA12>  (172) 
0.0

>  <SlogP_VSA2>  (172) 
11.013707

>  <SlogP_VSA3>  (172) 
0.0

>  <SlogP_VSA4>  (172) 
0.0

>  <SlogP_VSA5>  (172) 
10.357989

>  <SlogP_VSA6>  (172) 
24.265468

>  <SlogP_VSA7>  (172) 
0.0

>  <SlogP_VSA8>  (172) 
0.0

>  <SlogP_VSA9>  (172) 
0.0

>  <EState_VSA1>  (172) 
5.90718

>  <EState_VSA10>  (172) 
4.794537

>  <EState_VSA11>  (172) 
0.0

>  <EState_VSA2>  (172) 
5.749512

>  <EState_VSA3>  (172) 
5.563451

>  <EState_VSA4>  (172) 
0.0

>  <EState_VSA5>  (172) 
24.265468

>  <EState_VSA6>  (172) 
0.0

>  <EState_VSA7>  (172) 
0.0

>  <EState_VSA8>  (172) 
0.0

>  <EState_VSA9>  (172) 
10.840195

>  <VSA_EState1>  (172) 
0.0

>  <VSA_EState10>  (172) 
0.0

>  <VSA_EState2>  (172) 
10.452816

>  <VSA_EState3>  (172) 
8.786334

>  <VSA_EState4>  (172) 
5.343998

>  <VSA_EState5>  (172) 
-0.356481

>  <VSA_EState6>  (172) 
5.773333

>  <VSA_EState7>  (172) 
0.0

>  <VSA_EState8>  (172) 
0.0

>  <VSA_EState9>  (172) 
0.0

>  <FractionCSP3>  (172) 
0.0

>  <HeavyAtomCount>  (172) 
10

>  <NHOHCount>  (172) 
3

>  <NOCount>  (172) 
3

>  <NumAliphaticCarbocycles>  (172) 
0

>  <NumAliphaticHeterocycles>  (172) 
0

>  <NumAliphaticRings>  (172) 
0

>  <NumAromaticCarbocycles>  (172) 
1

>  <NumAromaticHeterocycles>  (172) 
0

>  <NAR>  (172) 
1

>  <NumHAcceptors>  (172) 
2

>  <NumHDonors>  (172) 
2

>  <NumHeteroatoms>  (172) 
3

>  <NumRotatableBonds>  (172) 
1

>  <NumSaturatedCarbocycles>  (172) 
0

>  <NumSaturatedHeterocycles>  (172) 
0

>  <NumSaturatedRings>  (172) 
0

>  <RingCount>  (172) 
1

>  <MolLogP>  (172) 
0.4911

>  <MolMR>  (172) 
36.6247

>  <fr_Al_COO>  (172) 
0

>  <fr_Al_OH>  (172) 
0

>  <fr_Al_OH_noTert>  (172) 
0

>  <fr_ArN>  (172) 
0

>  <fr_Ar_COO>  (172) 
0

>  <fr_Ar_N>  (172) 
0

>  <fr_Ar_NH>  (172) 
0

>  <fr_Ar_OH>  (172) 
1

>  <fr_COO>  (172) 
0

>  <fr_COO2>  (172) 
0

>  <fr_C_O>  (172) 
1

>  <fr_C_O_noCOO>  (172) 
1

>  <fr_C_S>  (172) 
0

>  <fr_HOCCN>  (172) 
0

>  <fr_Imine>  (172) 
0

>  <fr_NH0>  (172) 
0

>  <fr_NH1>  (172) 
0

>  <fr_NH2>  (172) 
1

>  <fr_N_O>  (172) 
0

>  <fr_Ndealkylation1>  (172) 
0

>  <fr_Ndealkylation2>  (172) 
0

>  <fr_Nhpyrrole>  (172) 
0

>  <fr_SH>  (172) 
0

>  <fr_aldehyde>  (172) 
0

>  <fr_alkyl_carbamate>  (172) 
0

>  <fr_alkyl_halide>  (172) 
0

>  <fr_allylic_oxid>  (172) 
0

>  <fr_amide>  (172) 
1

>  <fr_amidine>  (172) 
0

>  <fr_aniline>  (172) 
0

>  <fr_aryl_methyl>  (172) 
0

>  <fr_azide>  (172) 
0

>  <fr_azo>  (172) 
0

>  <fr_barbitur>  (172) 
0

>  <fr_benzene>  (172) 
1

>  <fr_benzodiazepine>  (172) 
0

>  <fr_bicyclic>  (172) 
0

>  <fr_diazo>  (172) 
0

>  <fr_dihydropyridine>  (172) 
0

>  <fr_epoxide>  (172) 
0

>  <fr_ester>  (172) 
0

>  <fr_ether>  (172) 
0

>  <fr_furan>  (172) 
0

>  <fr_guanido>  (172) 
0

>  <fr_halogen>  (172) 
0

>  <fr_hdrzine>  (172) 
0

>  <fr_hdrzone>  (172) 
0

>  <fr_imidazole>  (172) 
0

>  <fr_imide>  (172) 
0

>  <fr_isocyan>  (172) 
0

>  <fr_isothiocyan>  (172) 
0

>  <fr_ketone>  (172) 
0

>  <fr_ketone_Topliss>  (172) 
0

>  <fr_lactam>  (172) 
0

>  <fr_lactone>  (172) 
0

>  <fr_methoxy>  (172) 
0

>  <fr_morpholine>  (172) 
0

>  <fr_nitrile>  (172) 
0

>  <fr_nitro>  (172) 
0

>  <fr_nitro_arom>  (172) 
0

>  <fr_nitro_arom_nonortho>  (172) 
0

>  <fr_nitroso>  (172) 
0

>  <fr_oxazole>  (172) 
0

>  <fr_oxime>  (172) 
0

>  <fr_para_hydroxylation>  (172) 
0

>  <fr_phenol>  (172) 
1

>  <fr_phenol_noOrthoHbond>  (172) 
1

>  <fr_phos_acid>  (172) 
0

>  <fr_phos_ester>  (172) 
0

>  <fr_piperdine>  (172) 
0

>  <fr_piperzine>  (172) 
0

>  <fr_priamide>  (172) 
1

>  <fr_prisulfonamd>  (172) 
0

>  <fr_pyridine>  (172) 
0

>  <fr_quatN>  (172) 
0

>  <fr_sulfide>  (172) 
0

>  <fr_sulfonamd>  (172) 
0

>  <fr_sulfone>  (172) 
0

>  <fr_term_acetylene>  (172) 
0

>  <fr_tetrazole>  (172) 
0

>  <fr_thiazole>  (172) 
0

>  <fr_thiocyan>  (172) 
0

>  <fr_thiophene>  (172) 
0

>  <fr_unbrch_alkane>  (172) 
0

>  <fr_urea>  (172) 
0

>  <NP-Likeness>  (172) 
-0.201333

$$$$
I5G
     RDKit          3D

  0  0  0  0  0  0  0  0  0  0999 V3000
M  V30 BEGIN CTAB
M  V30 COUNTS 53 56 0 0 0
M  V30 BEGIN ATOM
M  V30 1 O 1.912587 2.455993 -3.489973 0
M  V30 2 C 0.869007 1.812154 -2.851863 0 CFG=1
M  V30 3 C 1.419475 1.001902 -1.670651 0
M  V30 4 C 0.772979 1.701040 -0.522882 0 CFG=2
M  V30 5 C 0.765837 0.951391 0.769735 0 CFG=2
M  V30 6 C 2.198310 0.696633 1.140036 0
M  V30 7 C 2.955326 -0.313539 0.586795 0
M  V30 8 C 4.272318 -0.531998 0.940368 0
M  V30 9 C 4.869397 0.281893 1.881401 0
M  V30 10 C 6.240371 0.122525 2.307672 0
M  V30 11 N 7.344855 -0.026050 2.648590 0
M  V30 12 C 4.158921 1.309273 2.468473 0
M  V30 13 Cl 4.812038 2.415686 3.682722 0
M  V30 14 C 2.846726 1.482734 2.078368 0
M  V30 15 N 0.032135 -0.278320 0.720198 0
M  V30 16 C -1.071706 -0.560701 1.559759 0
M  V30 17 O -1.294424 0.412704 2.329904 0
M  V30 18 C -1.905243 -1.744310 1.627966 0
M  V30 19 C -2.926247 -1.752389 2.552032 0
M  V30 20 C -3.772850 -2.825273 2.696658 0
M  V30 21 C -4.774994 -2.766696 3.642452 0
M  V30 22 C -5.645228 -3.830699 3.813779 0
M  V30 23 N -5.493854 -4.937560 3.030755 0
M  V30 24 C -4.525791 -5.002237 2.112372 0
M  V30 25 Cl -4.353897 -6.438105 1.118759 0
M  V30 26 C -3.655547 -3.962052 1.927165 0
M  V30 27 C -2.641627 -3.981411 0.993540 0
M  V30 28 C -1.812994 -2.887896 0.877295 0
M  V30 29 O -0.811531 -2.955738 -0.073270 0
M  V30 30 C -0.587563 -4.046148 -0.913008 0
M  V30 31 N -0.509588 2.140674 -0.978267 0 CHG=1 VAL=4
M  V30 32 C -0.138062 2.787562 -2.240955 0
M  V30 33 H 1.706293 2.446986 -4.472596 0
M  V30 34 H 0.283392 1.189327 -3.549314 0
M  V30 35 H 1.066161 -0.035608 -1.826087 0
M  V30 36 H 2.516182 1.092962 -1.632447 0
M  V30 37 H 1.374782 2.634395 -0.335261 0
M  V30 38 H 0.361339 1.635930 1.537051 0
M  V30 39 H 2.509614 -0.961980 -0.150393 0
M  V30 40 H 4.852923 -1.336720 0.490375 0
M  V30 41 H 2.253150 2.280598 2.517132 0
M  V30 42 H 0.310260 -1.005511 0.043161 0
M  V30 43 H -3.088346 -0.893670 3.200182 0
M  V30 44 H -4.917622 -1.884826 4.286399 0
M  V30 45 H -6.425388 -3.738019 4.577495 0
M  V30 46 H -2.501023 -4.846584 0.361299 0
M  V30 47 H -0.201908 -4.900000 -0.286267 0
M  V30 48 H -1.529028 -4.441816 -1.384306 0
M  V30 49 H 0.172566 -3.841851 -1.668367 0
M  V30 50 H -1.152642 1.368374 -1.229739 0
M  V30 51 H -0.893547 2.827468 -0.307860 0
M  V30 52 H 0.359965 3.746269 -1.993545 0
M  V30 53 H -1.020192 2.919256 -2.875237 0
M  V30 END ATOM
M  V30 BEGIN BOND
M  V30 1 1 1 2
M  V30 2 1 2 3
M  V30 3 1 3 4
M  V30 4 1 4 5
M  V30 5 1 5 6
M  V30 6 2 6 7
M  V30 7 1 7 8
M  V30 8 2 8 9
M  V30 9 1 9 10
M  V30 10 3 10 11
M  V30 11 1 9 12
M  V30 12 1 12 13
M  V30 13 2 12 14
M  V30 14 1 5 15
M  V30 15 1 15 16
M  V30 16 2 16 17
M  V30 17 1 16 18
M  V30 18 2 18 19
M  V30 19 1 19 20
M  V30 20 2 20 21
M  V30 21 1 21 22
M  V30 22 2 22 23
M  V30 23 1 23 24
M  V30 24 1 24 25
M  V30 25 2 24 26
M  V30 26 1 26 27
M  V30 27 2 27 28
M  V30 28 1 28 29
M  V30 29 1 29 30
M  V30 30 1 4 31
M  V30 31 1 31 32
M  V30 32 1 32 2
M  V30 33 1 14 6
M  V30 34 1 28 18
M  V30 35 1 26 20
M  V30 36 1 1 33
M  V30 37 1 2 34 CFG=3
M  V30 38 1 3 35
M  V30 39 1 3 36
M  V30 40 1 4 37 CFG=1
M  V30 41 1 5 38 CFG=1
M  V30 42 1 7 39
M  V30 43 1 8 40
M  V30 44 1 14 41
M  V30 45 1 15 42
M  V30 46 1 19 43
M  V30 47 1 21 44
M  V30 48 1 22 45
M  V30 49 1 27 46
M  V30 50 1 30 47
M  V30 51 1 30 48
M  V30 52 1 30 49
M  V30 53 1 31 50
M  V30 54 1 31 51
M  V30 55 1 32 52
M  V30 56 1 32 53
M  V30 END BOND
M  V30 END CTAB
M  END
>  <Dataset>  (173) 
PDB

>  <Ligand_Instance>  (173) 
7Y1G_I5G_A_500

>  <PDB_ID>  (173) 
7Y1G

>  <Standardized_SMILES>  (173) 
[H]O[C@@]1([H])C([H])([H])[C@]([H])([C@]([H])(C2=C([H])C([H])=C(C#N)C(Cl)=C2[H])N([H])C(=O)C2=C([H])C3=C([H])C([H])=NC(Cl)=C3C([H])=C2OC([H])([H])[H])[N+]([H])([H])C1([H])[H]

>  <Name>  (173) 
1-chloranyl-~{N}-[(~{S})-(3-chloranyl-4-cyano-phenyl)-[(2~{R},4~{S})-4-oxidanylpyrrolidin-2-yl]methyl]-7-methoxy-isoquinoline-6-carboxamide

>  <Pocket>  (173) 
A

>  <ATP_Site>  (173) 
1.0

>  <Peripheral>  (173) 
0.0

>  <Num_H_Atoms_ProtBoundConf>  (173) 
21.0

>  <Num_Resolved_Atoms>  (173) 
32.0

>  <Num_Not_Resolved_Atoms>  (173) 
0.0

>  <2D_Mol_H>  (173) 
<rdkit.Chem.rdchem.Mol object at 0x72a238da7f40>

>  <MW>  (173) 
472.352

>  <HBA>  (173) 
5

>  <HBD>  (173) 
3

>  <LogP>  (173) 
2.58958

>  <NRB>  (173) 
7

>  <TPSA>  (173) 
111.85

>  <Num_Heavy_Atoms>  (173) 
32

>  <Ro5>  (173) 
[True, True, True, True, True, True]

>  <Ro5_Fulfilled>  (173) 
True

>  <Ro3>  (173) 
[False, False, True, True]

>  <Ro3_Fulfilled>  (173) 
False

>  <Fsp3>  (173) 
0.26087

>  <Fsp3_0.42>  (173) 
False

>  <Fsp3_0.45>  (173) 
False

>  <Stereogenic_Carbons>  (173) 
3

>  <C_Atoms>  (173) 
23

>  <FCStereo>  (173) 
0.130435

>  <SPS>  (173) 
603

>  <nSPS>  (173) 
18.84375

>  <PBF>  (173) 
1.462456

>  <PBF_0.6>  (173) 
True

>  <nPBF>  (173) 
0.045702

>  <nPBF_0.016>  (173) 
True

>  <PMI1>  (173) 
2894.808199

>  <PMI2>  (173) 
9422.791933

>  <PMI3>  (173) 
10380.372496

>  <NPR1>  (173) 
0.278873

>  <NPR2>  (173) 
0.907751

>  <Sum_NPR>  (173) 
1.186624

>  <Sum_NPR_1.07>  (173) 
True

>  <Sum_NPR_1.2>  (173) 
False

>  <MaxAbsEStateIndex>  (173) 
13.381581

>  <MaxEStateIndex>  (173) 
13.381581

>  <MinAbsEStateIndex>  (173) 
0.0944

>  <MinEStateIndex>  (173) 
-0.46009

>  <qed>  (173) 
0.494652

>  <MolWt>  (173) 
472.352

>  <HeavyAtomMolWt>  (173) 
451.184

>  <ExactMolWt>  (173) 
471.098522

>  <NumValenceElectrons>  (173) 
164

>  <NumRadicalElectrons>  (173) 
0

>  <MaxPartialCharge>  (173) 
0.25526

>  <MinPartialCharge>  (173) 
-0.495899

>  <MaxAbsPartialCharge>  (173) 
0.495899

>  <MinAbsPartialCharge>  (173) 
0.25526

>  <FpDensityMorgan1>  (173) 
1.34375

>  <FpDensityMorgan2>  (173) 
2.15625

>  <FpDensityMorgan3>  (173) 
2.8125

>  <BCUT2D_MWHI>  (173) 
35.496788

>  <BCUT2D_MWLOW>  (173) 
9.95522

>  <BCUT2D_CHGHI>  (173) 
2.357936

>  <BCUT2D_CHGLO>  (173) 
-2.238099

>  <BCUT2D_LOGPHI>  (173) 
2.308305

>  <BCUT2D_LOGPLOW>  (173) 
-2.88561

>  <BCUT2D_MRHI>  (173) 
6.340095

>  <BCUT2D_MRLOW>  (173) 
-0.67496

>  <AvgIpc>  (173) 
3.222151

>  <BalabanJ>  (173) 
1.715061

>  <BertzCT>  (173) 
1227.822438

>  <Chi0>  (173) 
22.827698

>  <Chi0n>  (173) 
17.179133

>  <Chi0v>  (173) 
18.690991

>  <Chi1>  (173) 
15.405417

>  <Chi1n>  (173) 
10.049825

>  <Chi1v>  (173) 
10.805754

>  <Chi2n>  (173) 
7.702394

>  <Chi2v>  (173) 
8.467607

>  <Chi3n>  (173) 
5.723108

>  <Chi3v>  (173) 
6.337007

>  <Chi4n>  (173) 
4.094672

>  <Chi4v>  (173) 
4.545919

>  <HallKierAlpha>  (173) 
-2.89

>  <Ipc>  (173) 
20408851.118487

>  <Kappa1>  (173) 
22.309163

>  <Kappa2>  (173) 
9.308799

>  <Kappa3>  (173) 
4.359612

>  <LabuteASA>  (173) 
194.471653

>  <PEOE_VSA1>  (173) 
20.476968

>  <PEOE_VSA10>  (173) 
41.704247

>  <PEOE_VSA11>  (173) 
0.0

>  <PEOE_VSA12>  (173) 
0.0

>  <PEOE_VSA13>  (173) 
5.90718

>  <PEOE_VSA14>  (173) 
0.0

>  <PEOE_VSA2>  (173) 
4.794537

>  <PEOE_VSA3>  (173) 
4.983979

>  <PEOE_VSA4>  (173) 
5.261892

>  <PEOE_VSA5>  (173) 
0.0

>  <PEOE_VSA6>  (173) 
29.268247

>  <PEOE_VSA7>  (173) 
41.281511

>  <PEOE_VSA8>  (173) 
18.003889

>  <PEOE_VSA9>  (173) 
23.259334

>  <SMR_VSA1>  (173) 
19.954716

>  <SMR_VSA10>  (173) 
39.881508

>  <SMR_VSA2>  (173) 
5.261892

>  <SMR_VSA3>  (173) 
10.300767

>  <SMR_VSA4>  (173) 
0.0

>  <SMR_VSA5>  (173) 
24.60847

>  <SMR_VSA6>  (173) 
13.654554

>  <SMR_VSA7>  (173) 
69.461144

>  <SMR_VSA8>  (173) 
0.0

>  <SMR_VSA9>  (173) 
11.818733

>  <SlogP_VSA1>  (173) 
15.37044

>  <SlogP_VSA10>  (173) 
0.0

>  <SlogP_VSA11>  (173) 
5.749512

>  <SlogP_VSA12>  (173) 
23.20188

>  <SlogP_VSA2>  (173) 
41.798047

>  <SlogP_VSA3>  (173) 
0.0

>  <SlogP_VSA4>  (173) 
11.331113

>  <SlogP_VSA5>  (173) 
33.947554

>  <SlogP_VSA6>  (173) 
42.595046

>  <SlogP_VSA7>  (173) 
10.175743

>  <SlogP_VSA8>  (173) 
10.772448

>  <SlogP_VSA9>  (173) 
0.0

>  <EState_VSA1>  (173) 
12.145807

>  <EState_VSA10>  (173) 
15.162956

>  <EState_VSA11>  (173) 
0.0

>  <EState_VSA2>  (173) 
11.949021

>  <EState_VSA3>  (173) 
45.40396

>  <EState_VSA4>  (173) 
10.949676

>  <EState_VSA5>  (173) 
7.109798

>  <EState_VSA6>  (173) 
42.595046

>  <EState_VSA7>  (173) 
11.38601

>  <EState_VSA8>  (173) 
10.300767

>  <EState_VSA9>  (173) 
27.938743

>  <VSA_EState1>  (173) 
5.456578

>  <VSA_EState10>  (173) 
12.448243

>  <VSA_EState2>  (173) 
17.454705

>  <VSA_EState3>  (173) 
26.409077

>  <VSA_EState4>  (173) 
1.465621

>  <VSA_EState5>  (173) 
0.036022

>  <VSA_EState6>  (173) 
11.786079

>  <VSA_EState7>  (173) 
1.631135

>  <VSA_EState8>  (173) 
0.547463

>  <VSA_EState9>  (173) 
1.487298

>  <FractionCSP3>  (173) 
0.26087

>  <HeavyAtomCount>  (173) 
32

>  <NHOHCount>  (173) 
4

>  <NOCount>  (173) 
7

>  <NumAliphaticCarbocycles>  (173) 
0

>  <NumAliphaticHeterocycles>  (173) 
1

>  <NumAliphaticRings>  (173) 
1

>  <NumAromaticCarbocycles>  (173) 
2

>  <NumAromaticHeterocycles>  (173) 
1

>  <NAR>  (173) 
3

>  <NumHAcceptors>  (173) 
5

>  <NumHDonors>  (173) 
3

>  <NumHeteroatoms>  (173) 
9

>  <NumRotatableBonds>  (173) 
5

>  <NumSaturatedCarbocycles>  (173) 
0

>  <NumSaturatedHeterocycles>  (173) 
1

>  <NumSaturatedRings>  (173) 
1

>  <RingCount>  (173) 
4

>  <MolLogP>  (173) 
2.58958

>  <MolMR>  (173) 
120.8834

>  <fr_Al_COO>  (173) 
0

>  <fr_Al_OH>  (173) 
1

>  <fr_Al_OH_noTert>  (173) 
1

>  <fr_ArN>  (173) 
0

>  <fr_Ar_COO>  (173) 
0

>  <fr_Ar_N>  (173) 
1

>  <fr_Ar_NH>  (173) 
0

>  <fr_Ar_OH>  (173) 
0

>  <fr_COO>  (173) 
0

>  <fr_COO2>  (173) 
0

>  <fr_C_O>  (173) 
1

>  <fr_C_O_noCOO>  (173) 
1

>  <fr_C_S>  (173) 
0

>  <fr_HOCCN>  (173) 
0

>  <fr_Imine>  (173) 
0

>  <fr_NH0>  (173) 
2

>  <fr_NH1>  (173) 
1

>  <fr_NH2>  (173) 
1

>  <fr_N_O>  (173) 
0

>  <fr_Ndealkylation1>  (173) 
0

>  <fr_Ndealkylation2>  (173) 
0

>  <fr_Nhpyrrole>  (173) 
0

>  <fr_SH>  (173) 
0

>  <fr_aldehyde>  (173) 
0

>  <fr_alkyl_carbamate>  (173) 
0

>  <fr_alkyl_halide>  (173) 
0

>  <fr_allylic_oxid>  (173) 
0

>  <fr_amide>  (173) 
1

>  <fr_amidine>  (173) 
0

>  <fr_aniline>  (173) 
0

>  <fr_aryl_methyl>  (173) 
0

>  <fr_azide>  (173) 
0

>  <fr_azo>  (173) 
0

>  <fr_barbitur>  (173) 
0

>  <fr_benzene>  (173) 
2

>  <fr_benzodiazepine>  (173) 
0

>  <fr_bicyclic>  (173) 
1

>  <fr_diazo>  (173) 
0

>  <fr_dihydropyridine>  (173) 
0

>  <fr_epoxide>  (173) 
0

>  <fr_ester>  (173) 
0

>  <fr_ether>  (173) 
1

>  <fr_furan>  (173) 
0

>  <fr_guanido>  (173) 
0

>  <fr_halogen>  (173) 
2

>  <fr_hdrzine>  (173) 
0

>  <fr_hdrzone>  (173) 
0

>  <fr_imidazole>  (173) 
0

>  <fr_imide>  (173) 
0

>  <fr_isocyan>  (173) 
0

>  <fr_isothiocyan>  (173) 
0

>  <fr_ketone>  (173) 
0

>  <fr_ketone_Topliss>  (173) 
0

>  <fr_lactam>  (173) 
0

>  <fr_lactone>  (173) 
0

>  <fr_methoxy>  (173) 
1

>  <fr_morpholine>  (173) 
0

>  <fr_nitrile>  (173) 
1

>  <fr_nitro>  (173) 
0

>  <fr_nitro_arom>  (173) 
0

>  <fr_nitro_arom_nonortho>  (173) 
0

>  <fr_nitroso>  (173) 
0

>  <fr_oxazole>  (173) 
0

>  <fr_oxime>  (173) 
0

>  <fr_para_hydroxylation>  (173) 
0

>  <fr_phenol>  (173) 
0

>  <fr_phenol_noOrthoHbond>  (173) 
0

>  <fr_phos_acid>  (173) 
0

>  <fr_phos_ester>  (173) 
0

>  <fr_piperdine>  (173) 
0

>  <fr_piperzine>  (173) 
0

>  <fr_priamide>  (173) 
0

>  <fr_prisulfonamd>  (173) 
0

>  <fr_pyridine>  (173) 
1

>  <fr_quatN>  (173) 
1

>  <fr_sulfide>  (173) 
0

>  <fr_sulfonamd>  (173) 
0

>  <fr_sulfone>  (173) 
0

>  <fr_term_acetylene>  (173) 
0

>  <fr_tetrazole>  (173) 
0

>  <fr_thiazole>  (173) 
0

>  <fr_thiocyan>  (173) 
0

>  <fr_thiophene>  (173) 
0

>  <fr_unbrch_alkane>  (173) 
0

>  <fr_urea>  (173) 
0

>  <NP-Likeness>  (173) 
-0.873893

$$$$
I5G
     RDKit          3D

  0  0  0  0  0  0  0  0  0  0999 V3000
M  V30 BEGIN CTAB
M  V30 COUNTS 53 56 0 0 0
M  V30 BEGIN ATOM
M  V30 1 O 1.912587 2.455993 -3.489973 0
M  V30 2 C 0.869007 1.812154 -2.851863 0 CFG=1
M  V30 3 C 1.419475 1.001902 -1.670651 0
M  V30 4 C 0.772979 1.701040 -0.522882 0 CFG=2
M  V30 5 C 0.765837 0.951391 0.769735 0 CFG=2
M  V30 6 C 2.198310 0.696633 1.140036 0
M  V30 7 C 2.955326 -0.313539 0.586795 0
M  V30 8 C 4.272318 -0.531998 0.940368 0
M  V30 9 C 4.869397 0.281893 1.881401 0
M  V30 10 C 6.240371 0.122525 2.307672 0
M  V30 11 N 7.344855 -0.026050 2.648590 0
M  V30 12 C 4.158921 1.309273 2.468473 0
M  V30 13 Cl 4.812038 2.415686 3.682722 0
M  V30 14 C 2.846726 1.482734 2.078368 0
M  V30 15 N 0.032135 -0.278320 0.720198 0
M  V30 16 C -1.071706 -0.560701 1.559759 0
M  V30 17 O -1.294424 0.412704 2.329904 0
M  V30 18 C -1.905243 -1.744310 1.627966 0
M  V30 19 C -2.926247 -1.752389 2.552032 0
M  V30 20 C -3.772850 -2.825273 2.696658 0
M  V30 21 C -4.774994 -2.766696 3.642452 0
M  V30 22 C -5.645228 -3.830699 3.813779 0
M  V30 23 N -5.493854 -4.937560 3.030755 0
M  V30 24 C -4.525791 -5.002237 2.112372 0
M  V30 25 Cl -4.353897 -6.438105 1.118759 0
M  V30 26 C -3.655547 -3.962052 1.927165 0
M  V30 27 C -2.641627 -3.981411 0.993540 0
M  V30 28 C -1.812994 -2.887896 0.877295 0
M  V30 29 O -0.811531 -2.955738 -0.073270 0
M  V30 30 C -0.587563 -4.046148 -0.913008 0
M  V30 31 N -0.509588 2.140674 -0.978267 0 CHG=1 VAL=4
M  V30 32 C -0.138062 2.787562 -2.240955 0
M  V30 33 H 1.706293 2.446986 -4.472596 0
M  V30 34 H 0.283392 1.189327 -3.549314 0
M  V30 35 H 1.066161 -0.035608 -1.826087 0
M  V30 36 H 2.516182 1.092962 -1.632447 0
M  V30 37 H 1.374782 2.634395 -0.335261 0
M  V30 38 H 0.361339 1.635930 1.537051 0
M  V30 39 H 2.509614 -0.961980 -0.150393 0
M  V30 40 H 4.852923 -1.336720 0.490375 0
M  V30 41 H 2.253150 2.280598 2.517132 0
M  V30 42 H 0.310260 -1.005511 0.043161 0
M  V30 43 H -3.088346 -0.893670 3.200182 0
M  V30 44 H -4.917622 -1.884826 4.286399 0
M  V30 45 H -6.425388 -3.738019 4.577495 0
M  V30 46 H -2.501023 -4.846584 0.361299 0
M  V30 47 H -0.201908 -4.900000 -0.286267 0
M  V30 48 H -1.529028 -4.441816 -1.384306 0
M  V30 49 H 0.172566 -3.841851 -1.668367 0
M  V30 50 H -1.152642 1.368374 -1.229739 0
M  V30 51 H -0.893547 2.827468 -0.307860 0
M  V30 52 H 0.359965 3.746269 -1.993545 0
M  V30 53 H -1.020192 2.919256 -2.875237 0
M  V30 END ATOM
M  V30 BEGIN BOND
M  V30 1 1 1 2
M  V30 2 1 2 3
M  V30 3 1 3 4
M  V30 4 1 4 5
M  V30 5 1 5 6
M  V30 6 2 6 7
M  V30 7 1 7 8
M  V30 8 2 8 9
M  V30 9 1 9 10
M  V30 10 3 10 11
M  V30 11 1 9 12
M  V30 12 1 12 13
M  V30 13 2 12 14
M  V30 14 1 5 15
M  V30 15 1 15 16
M  V30 16 2 16 17
M  V30 17 1 16 18
M  V30 18 2 18 19
M  V30 19 1 19 20
M  V30 20 2 20 21
M  V30 21 1 21 22
M  V30 22 2 22 23
M  V30 23 1 23 24
M  V30 24 1 24 25
M  V30 25 2 24 26
M  V30 26 1 26 27
M  V30 27 2 27 28
M  V30 28 1 28 29
M  V30 29 1 29 30
M  V30 30 1 4 31
M  V30 31 1 31 32
M  V30 32 1 32 2
M  V30 33 1 14 6
M  V30 34 1 28 18
M  V30 35 1 26 20
M  V30 36 1 1 33
M  V30 37 1 2 34 CFG=3
M  V30 38 1 3 35
M  V30 39 1 3 36
M  V30 40 1 4 37 CFG=1
M  V30 41 1 5 38 CFG=1
M  V30 42 1 7 39
M  V30 43 1 8 40
M  V30 44 1 14 41
M  V30 45 1 15 42
M  V30 46 1 19 43
M  V30 47 1 21 44
M  V30 48 1 22 45
M  V30 49 1 27 46
M  V30 50 1 30 47
M  V30 51 1 30 48
M  V30 52 1 30 49
M  V30 53 1 31 50
M  V30 54 1 31 51
M  V30 55 1 32 52
M  V30 56 1 32 53
M  V30 END BOND
M  V30 END CTAB
M  END
>  <Dataset>  (174) 
PDB

>  <Ligand_Instance>  (174) 
7Y1G_I5G_B_401

>  <PDB_ID>  (174) 
7Y1G

>  <Standardized_SMILES>  (174) 
[H]O[C@@]1([H])C([H])([H])[C@]([H])([C@]([H])(C2=C([H])C([H])=C(C#N)C(Cl)=C2[H])N([H])C(=O)C2=C([H])C3=C([H])C([H])=NC(Cl)=C3C([H])=C2OC([H])([H])[H])[N+]([H])([H])C1([H])[H]

>  <Name>  (174) 
1-chloranyl-~{N}-[(~{S})-(3-chloranyl-4-cyano-phenyl)-[(2~{R},4~{S})-4-oxidanylpyrrolidin-2-yl]methyl]-7-methoxy-isoquinoline-6-carboxamide

>  <Pocket>  (174) 
A

>  <ATP_Site>  (174) 
1.0

>  <Peripheral>  (174) 
0.0

>  <Num_H_Atoms_ProtBoundConf>  (174) 
21.0

>  <Num_Resolved_Atoms>  (174) 
32.0

>  <Num_Not_Resolved_Atoms>  (174) 
0.0

>  <2D_Mol_H>  (174) 
<rdkit.Chem.rdchem.Mol object at 0x72a238df00b0>

>  <MW>  (174) 
472.352

>  <HBA>  (174) 
5

>  <HBD>  (174) 
3

>  <LogP>  (174) 
2.58958

>  <NRB>  (174) 
7

>  <TPSA>  (174) 
111.85

>  <Num_Heavy_Atoms>  (174) 
32

>  <Ro5>  (174) 
[True, True, True, True, True, True]

>  <Ro5_Fulfilled>  (174) 
True

>  <Ro3>  (174) 
[False, False, True, True]

>  <Ro3_Fulfilled>  (174) 
False

>  <Fsp3>  (174) 
0.26087

>  <Fsp3_0.42>  (174) 
False

>  <Fsp3_0.45>  (174) 
False

>  <Stereogenic_Carbons>  (174) 
3

>  <C_Atoms>  (174) 
23

>  <FCStereo>  (174) 
0.130435

>  <SPS>  (174) 
603

>  <nSPS>  (174) 
18.84375

>  <PBF>  (174) 
1.462456

>  <PBF_0.6>  (174) 
True

>  <nPBF>  (174) 
0.045702

>  <nPBF_0.016>  (174) 
True

>  <PMI1>  (174) 
2894.808199

>  <PMI2>  (174) 
9422.791933

>  <PMI3>  (174) 
10380.372496

>  <NPR1>  (174) 
0.278873

>  <NPR2>  (174) 
0.907751

>  <Sum_NPR>  (174) 
1.186624

>  <Sum_NPR_1.07>  (174) 
True

>  <Sum_NPR_1.2>  (174) 
False

>  <MaxAbsEStateIndex>  (174) 
13.381581

>  <MaxEStateIndex>  (174) 
13.381581

>  <MinAbsEStateIndex>  (174) 
0.0944

>  <MinEStateIndex>  (174) 
-0.46009

>  <qed>  (174) 
0.494652

>  <MolWt>  (174) 
472.352

>  <HeavyAtomMolWt>  (174) 
451.184

>  <ExactMolWt>  (174) 
471.098522

>  <NumValenceElectrons>  (174) 
164

>  <NumRadicalElectrons>  (174) 
0

>  <MaxPartialCharge>  (174) 
0.25526

>  <MinPartialCharge>  (174) 
-0.495899

>  <MaxAbsPartialCharge>  (174) 
0.495899

>  <MinAbsPartialCharge>  (174) 
0.25526

>  <FpDensityMorgan1>  (174) 
1.34375

>  <FpDensityMorgan2>  (174) 
2.15625

>  <FpDensityMorgan3>  (174) 
2.8125

>  <BCUT2D_MWHI>  (174) 
35.496788

>  <BCUT2D_MWLOW>  (174) 
9.95522

>  <BCUT2D_CHGHI>  (174) 
2.357936

>  <BCUT2D_CHGLO>  (174) 
-2.238099

>  <BCUT2D_LOGPHI>  (174) 
2.308305

>  <BCUT2D_LOGPLOW>  (174) 
-2.88561

>  <BCUT2D_MRHI>  (174) 
6.340095

>  <BCUT2D_MRLOW>  (174) 
-0.67496

>  <AvgIpc>  (174) 
3.222151

>  <BalabanJ>  (174) 
1.715061

>  <BertzCT>  (174) 
1227.822438

>  <Chi0>  (174) 
22.827698

>  <Chi0n>  (174) 
17.179133

>  <Chi0v>  (174) 
18.690991

>  <Chi1>  (174) 
15.405417

>  <Chi1n>  (174) 
10.049825

>  <Chi1v>  (174) 
10.805754

>  <Chi2n>  (174) 
7.702394

>  <Chi2v>  (174) 
8.467607

>  <Chi3n>  (174) 
5.723108

>  <Chi3v>  (174) 
6.337007

>  <Chi4n>  (174) 
4.094672

>  <Chi4v>  (174) 
4.545919

>  <HallKierAlpha>  (174) 
-2.89

>  <Ipc>  (174) 
20408851.118487

>  <Kappa1>  (174) 
22.309163

>  <Kappa2>  (174) 
9.308799

>  <Kappa3>  (174) 
4.359612

>  <LabuteASA>  (174) 
194.471653

>  <PEOE_VSA1>  (174) 
20.476968

>  <PEOE_VSA10>  (174) 
41.704247

>  <PEOE_VSA11>  (174) 
0.0

>  <PEOE_VSA12>  (174) 
0.0

>  <PEOE_VSA13>  (174) 
5.90718

>  <PEOE_VSA14>  (174) 
0.0

>  <PEOE_VSA2>  (174) 
4.794537

>  <PEOE_VSA3>  (174) 
4.983979

>  <PEOE_VSA4>  (174) 
5.261892

>  <PEOE_VSA5>  (174) 
0.0

>  <PEOE_VSA6>  (174) 
29.268247

>  <PEOE_VSA7>  (174) 
41.281511

>  <PEOE_VSA8>  (174) 
18.003889

>  <PEOE_VSA9>  (174) 
23.259334

>  <SMR_VSA1>  (174) 
19.954716

>  <SMR_VSA10>  (174) 
39.881508

>  <SMR_VSA2>  (174) 
5.261892

>  <SMR_VSA3>  (174) 
10.300767

>  <SMR_VSA4>  (174) 
0.0

>  <SMR_VSA5>  (174) 
24.60847

>  <SMR_VSA6>  (174) 
13.654554

>  <SMR_VSA7>  (174) 
69.461144

>  <SMR_VSA8>  (174) 
0.0

>  <SMR_VSA9>  (174) 
11.818733

>  <SlogP_VSA1>  (174) 
15.37044

>  <SlogP_VSA10>  (174) 
0.0

>  <SlogP_VSA11>  (174) 
5.749512

>  <SlogP_VSA12>  (174) 
23.20188

>  <SlogP_VSA2>  (174) 
41.798047

>  <SlogP_VSA3>  (174) 
0.0

>  <SlogP_VSA4>  (174) 
11.331113

>  <SlogP_VSA5>  (174) 
33.947554

>  <SlogP_VSA6>  (174) 
42.595046

>  <SlogP_VSA7>  (174) 
10.175743

>  <SlogP_VSA8>  (174) 
10.772448

>  <SlogP_VSA9>  (174) 
0.0

>  <EState_VSA1>  (174) 
12.145807

>  <EState_VSA10>  (174) 
15.162956

>  <EState_VSA11>  (174) 
0.0

>  <EState_VSA2>  (174) 
11.949021

>  <EState_VSA3>  (174) 
45.40396

>  <EState_VSA4>  (174) 
10.949676

>  <EState_VSA5>  (174) 
7.109798

>  <EState_VSA6>  (174) 
42.595046

>  <EState_VSA7>  (174) 
11.38601

>  <EState_VSA8>  (174) 
10.300767

>  <EState_VSA9>  (174) 
27.938743

>  <VSA_EState1>  (174) 
5.456578

>  <VSA_EState10>  (174) 
12.448243

>  <VSA_EState2>  (174) 
17.454705

>  <VSA_EState3>  (174) 
26.409077

>  <VSA_EState4>  (174) 
1.465621

>  <VSA_EState5>  (174) 
0.036022

>  <VSA_EState6>  (174) 
11.786079

>  <VSA_EState7>  (174) 
1.631135

>  <VSA_EState8>  (174) 
0.547463

>  <VSA_EState9>  (174) 
1.487298

>  <FractionCSP3>  (174) 
0.26087

>  <HeavyAtomCount>  (174) 
32

>  <NHOHCount>  (174) 
4

>  <NOCount>  (174) 
7

>  <NumAliphaticCarbocycles>  (174) 
0

>  <NumAliphaticHeterocycles>  (174) 
1

>  <NumAliphaticRings>  (174) 
1

>  <NumAromaticCarbocycles>  (174) 
2

>  <NumAromaticHeterocycles>  (174) 
1

>  <NAR>  (174) 
3

>  <NumHAcceptors>  (174) 
5

>  <NumHDonors>  (174) 
3

>  <NumHeteroatoms>  (174) 
9

>  <NumRotatableBonds>  (174) 
5

>  <NumSaturatedCarbocycles>  (174) 
0

>  <NumSaturatedHeterocycles>  (174) 
1

>  <NumSaturatedRings>  (174) 
1

>  <RingCount>  (174) 
4

>  <MolLogP>  (174) 
2.58958

>  <MolMR>  (174) 
120.8834

>  <fr_Al_COO>  (174) 
0

>  <fr_Al_OH>  (174) 
1

>  <fr_Al_OH_noTert>  (174) 
1

>  <fr_ArN>  (174) 
0

>  <fr_Ar_COO>  (174) 
0

>  <fr_Ar_N>  (174) 
1

>  <fr_Ar_NH>  (174) 
0

>  <fr_Ar_OH>  (174) 
0

>  <fr_COO>  (174) 
0

>  <fr_COO2>  (174) 
0

>  <fr_C_O>  (174) 
1

>  <fr_C_O_noCOO>  (174) 
1

>  <fr_C_S>  (174) 
0

>  <fr_HOCCN>  (174) 
0

>  <fr_Imine>  (174) 
0

>  <fr_NH0>  (174) 
2

>  <fr_NH1>  (174) 
1

>  <fr_NH2>  (174) 
1

>  <fr_N_O>  (174) 
0

>  <fr_Ndealkylation1>  (174) 
0

>  <fr_Ndealkylation2>  (174) 
0

>  <fr_Nhpyrrole>  (174) 
0

>  <fr_SH>  (174) 
0

>  <fr_aldehyde>  (174) 
0

>  <fr_alkyl_carbamate>  (174) 
0

>  <fr_alkyl_halide>  (174) 
0

>  <fr_allylic_oxid>  (174) 
0

>  <fr_amide>  (174) 
1

>  <fr_amidine>  (174) 
0

>  <fr_aniline>  (174) 
0

>  <fr_aryl_methyl>  (174) 
0

>  <fr_azide>  (174) 
0

>  <fr_azo>  (174) 
0

>  <fr_barbitur>  (174) 
0

>  <fr_benzene>  (174) 
2

>  <fr_benzodiazepine>  (174) 
0

>  <fr_bicyclic>  (174) 
1

>  <fr_diazo>  (174) 
0

>  <fr_dihydropyridine>  (174) 
0

>  <fr_epoxide>  (174) 
0

>  <fr_ester>  (174) 
0

>  <fr_ether>  (174) 
1

>  <fr_furan>  (174) 
0

>  <fr_guanido>  (174) 
0

>  <fr_halogen>  (174) 
2

>  <fr_hdrzine>  (174) 
0

>  <fr_hdrzone>  (174) 
0

>  <fr_imidazole>  (174) 
0

>  <fr_imide>  (174) 
0

>  <fr_isocyan>  (174) 
0

>  <fr_isothiocyan>  (174) 
0

>  <fr_ketone>  (174) 
0

>  <fr_ketone_Topliss>  (174) 
0

>  <fr_lactam>  (174) 
0

>  <fr_lactone>  (174) 
0

>  <fr_methoxy>  (174) 
1

>  <fr_morpholine>  (174) 
0

>  <fr_nitrile>  (174) 
1

>  <fr_nitro>  (174) 
0

>  <fr_nitro_arom>  (174) 
0

>  <fr_nitro_arom_nonortho>  (174) 
0

>  <fr_nitroso>  (174) 
0

>  <fr_oxazole>  (174) 
0

>  <fr_oxime>  (174) 
0

>  <fr_para_hydroxylation>  (174) 
0

>  <fr_phenol>  (174) 
0

>  <fr_phenol_noOrthoHbond>  (174) 
0

>  <fr_phos_acid>  (174) 
0

>  <fr_phos_ester>  (174) 
0

>  <fr_piperdine>  (174) 
0

>  <fr_piperzine>  (174) 
0

>  <fr_priamide>  (174) 
0

>  <fr_prisulfonamd>  (174) 
0

>  <fr_pyridine>  (174) 
1

>  <fr_quatN>  (174) 
1

>  <fr_sulfide>  (174) 
0

>  <fr_sulfonamd>  (174) 
0

>  <fr_sulfone>  (174) 
0

>  <fr_term_acetylene>  (174) 
0

>  <fr_tetrazole>  (174) 
0

>  <fr_thiazole>  (174) 
0

>  <fr_thiocyan>  (174) 
0

>  <fr_thiophene>  (174) 
0

>  <fr_unbrch_alkane>  (174) 
0

>  <fr_urea>  (174) 
0

>  <NP-Likeness>  (174) 
-0.873893

$$$$
I5S
     RDKit          3D

  0  0  0  0  0  0  0  0  0  0999 V3000
M  V30 BEGIN CTAB
M  V30 COUNTS 51 53 0 0 0
M  V30 BEGIN ATOM
M  V30 1 C 2.430045 -1.887397 2.947708 0
M  V30 2 N 1.539992 -2.879155 3.015358 0
M  V30 3 C 0.957297 -3.426990 1.941667 0
M  V30 4 C 1.267172 -2.891339 0.702521 0
M  V30 5 C 0.798536 -3.476951 -0.422213 0
M  V30 6 C 0.946950 -2.826045 -1.611021 0
M  V30 7 C 1.540399 -1.602237 -1.648278 0
M  V30 8 C 2.161204 -1.024125 -0.549114 0
M  V30 9 S 2.718643 0.669501 -0.619110 0
M  V30 10 O 4.141347 0.743863 -0.125022 0
M  V30 11 O 2.696501 1.082017 -2.019919 0
M  V30 12 N 1.674926 1.673198 0.342317 0
M  V30 13 C 2.453012 2.391133 1.311947 0
M  V30 14 C 1.725333 2.587958 2.604405 0
M  V30 15 N 0.317673 2.483685 2.557661 0 CHG=1 VAL=4
M  V30 16 C -0.222997 1.162113 2.342500 0
M  V30 17 C -1.440702 1.353478 1.432168 0
M  V30 18 O -2.147882 0.176507 1.336330 0
M  V30 19 C -2.648836 0.077876 0.038678 0
M  V30 20 C -3.002732 -1.347728 -0.222923 0
M  V30 21 C -3.467470 -2.157572 0.787450 0
M  V30 22 C -3.644720 -3.515678 0.541486 0
M  V30 23 C -3.364273 -3.997168 -0.723924 0
M  V30 24 Cl -3.392349 -5.731375 -0.996967 0
M  V30 25 C -2.963499 -3.186987 -1.749938 0
M  V30 26 C -2.785173 -1.836952 -1.490146 0
M  V30 27 C 2.088022 -1.783296 0.624003 0
M  V30 28 C 2.710746 -1.318629 1.719577 0
M  V30 29 H 2.739033 -1.422427 3.863428 0
M  V30 30 H 0.410067 -4.341520 1.995041 0
M  V30 31 H 0.429086 -4.513716 -0.379978 0
M  V30 32 H 0.670942 -3.358793 -2.513091 0
M  V30 33 H 1.616423 -1.103013 -2.609100 0
M  V30 34 H 1.216641 2.405250 -0.334346 0
M  V30 35 H 2.687056 3.447492 0.868729 0
M  V30 36 H 3.413266 1.936892 1.428567 0
M  V30 37 H 2.005407 3.542006 3.054585 0
M  V30 38 H 2.120472 1.803820 3.364795 0
M  V30 39 H -0.061343 3.192584 1.900470 0
M  V30 40 H -0.040799 2.779711 3.514893 0
M  V30 41 H 0.509121 0.448106 1.913281 0
M  V30 42 H -0.612010 0.677107 3.256736 0
M  V30 43 H -1.133029 1.743968 0.422507 0
M  V30 44 H -2.021721 2.164875 1.909202 0
M  V30 45 H -3.479898 0.751434 -0.149788 0
M  V30 46 H -1.814456 0.371369 -0.651333 0
M  V30 47 H -3.587485 -1.796291 1.799883 0
M  V30 48 H -3.908745 -4.186775 1.355806 0
M  V30 49 H -2.660870 -3.570769 -2.719508 0
M  V30 50 H -2.630488 -1.172939 -2.323066 0
M  V30 51 H 3.293865 -0.436786 1.689748 0
M  V30 END ATOM
M  V30 BEGIN BOND
M  V30 1 2 1 2
M  V30 2 1 2 3
M  V30 3 2 3 4
M  V30 4 1 4 5
M  V30 5 2 5 6
M  V30 6 1 6 7
M  V30 7 2 7 8
M  V30 8 1 8 9
M  V30 9 2 9 10
M  V30 10 2 9 11
M  V30 11 1 9 12
M  V30 12 1 12 13
M  V30 13 1 13 14
M  V30 14 1 14 15
M  V30 15 1 15 16
M  V30 16 1 16 17
M  V30 17 1 17 18
M  V30 18 1 18 19
M  V30 19 1 19 20
M  V30 20 2 20 21
M  V30 21 1 21 22
M  V30 22 2 22 23
M  V30 23 1 23 24
M  V30 24 1 23 25
M  V30 25 2 25 26
M  V30 26 1 8 27
M  V30 27 2 27 28
M  V30 28 1 28 1
M  V30 29 1 27 4
M  V30 30 1 26 20
M  V30 31 1 1 29
M  V30 32 1 3 30
M  V30 33 1 5 31
M  V30 34 1 6 32
M  V30 35 1 7 33
M  V30 36 1 12 34
M  V30 37 1 13 35
M  V30 38 1 13 36
M  V30 39 1 14 37
M  V30 40 1 14 38
M  V30 41 1 15 39
M  V30 42 1 15 40
M  V30 43 1 16 41
M  V30 44 1 16 42
M  V30 45 1 17 43
M  V30 46 1 17 44
M  V30 47 1 19 45
M  V30 48 1 19 46
M  V30 49 1 21 47
M  V30 50 1 22 48
M  V30 51 1 25 49
M  V30 52 1 26 50
M  V30 53 1 28 51
M  V30 END BOND
M  V30 END CTAB
M  END
>  <Dataset>  (175) 
PDB

>  <Ligand_Instance>  (175) 
2JDT_I5S_A_1351

>  <PDB_ID>  (175) 
2JDT

>  <Standardized_SMILES>  (175) 
[H]C1=NC([H])=C2C([H])=C([H])C([H])=C(S(=O)(=O)N([H])C([H])([H])C([H])([H])[N+]([H])([H])C([H])([H])C([H])([H])OC([H])([H])C3=C([H])C([H])=C(Cl)C([H])=C3[H])C2=C1[H]

>  <Name>  (175) 
ISOQUINOLINE-5-SULFONIC ACID (2-(2-(4-CHLOROBENZYLOXY)ETHYLAMINO)ETHYL)AMIDE

>  <Pocket>  (175) 
A

>  <ATP_Site>  (175) 
1.0

>  <Peripheral>  (175) 
0.0

>  <Num_H_Atoms_ProtBoundConf>  (175) 
23.0

>  <Num_Resolved_Atoms>  (175) 
28.0

>  <Num_Not_Resolved_Atoms>  (175) 
0.0

>  <2D_Mol_H>  (175) 
<rdkit.Chem.rdchem.Mol object at 0x72a238df0190>

>  <MW>  (175) 
420.942

>  <HBA>  (175) 
4

>  <HBD>  (175) 
2

>  <LogP>  (175) 
1.9467

>  <NRB>  (175) 
10

>  <TPSA>  (175) 
84.9

>  <Num_Heavy_Atoms>  (175) 
28

>  <Ro5>  (175) 
[True, True, True, True, True, True]

>  <Ro5_Fulfilled>  (175) 
True

>  <Ro3>  (175) 
[False, False, True, True]

>  <Ro3_Fulfilled>  (175) 
False

>  <Fsp3>  (175) 
0.25

>  <Fsp3_0.42>  (175) 
False

>  <Fsp3_0.45>  (175) 
False

>  <Stereogenic_Carbons>  (175) 
0

>  <C_Atoms>  (175) 
20

>  <FCStereo>  (175) 
0.0

>  <SPS>  (175) 
329

>  <nSPS>  (175) 
11.75

>  <PBF>  (175) 
1.286346

>  <PBF_0.6>  (175) 
True

>  <nPBF>  (175) 
0.045941

>  <nPBF_0.016>  (175) 
True

>  <PMI1>  (175) 
2102.390957

>  <PMI2>  (175) 
4731.837236

>  <PMI3>  (175) 
5227.094514

>  <NPR1>  (175) 
0.40221

>  <NPR2>  (175) 
0.905252

>  <Sum_NPR>  (175) 
1.307462

>  <Sum_NPR_1.07>  (175) 
True

>  <Sum_NPR_1.2>  (175) 
True

>  <MaxAbsEStateIndex>  (175) 
12.582667

>  <MaxEStateIndex>  (175) 
12.582667

>  <MinAbsEStateIndex>  (175) 
0.276572

>  <MinEStateIndex>  (175) 
-3.563669

>  <qed>  (175) 
0.49078

>  <MolWt>  (175) 
420.942

>  <HeavyAtomMolWt>  (175) 
397.758

>  <ExactMolWt>  (175) 
420.114317

>  <NumValenceElectrons>  (175) 
148

>  <NumRadicalElectrons>  (175) 
0

>  <MaxPartialCharge>  (175) 
0.240888

>  <MinPartialCharge>  (175) 
-0.370926

>  <MaxAbsPartialCharge>  (175) 
0.370926

>  <MinAbsPartialCharge>  (175) 
0.240888

>  <FpDensityMorgan1>  (175) 
1.071429

>  <FpDensityMorgan2>  (175) 
1.892857

>  <FpDensityMorgan3>  (175) 
2.714286

>  <BCUT2D_MWHI>  (175) 
35.495692

>  <BCUT2D_MWLOW>  (175) 
10.168345

>  <BCUT2D_CHGHI>  (175) 
2.162155

>  <BCUT2D_CHGLO>  (175) 
-2.090125

>  <BCUT2D_LOGPHI>  (175) 
2.210181

>  <BCUT2D_LOGPLOW>  (175) 
-2.861624

>  <BCUT2D_MRHI>  (175) 
7.893366

>  <BCUT2D_MRLOW>  (175) 
-0.653971

>  <AvgIpc>  (175) 
2.705538

>  <BalabanJ>  (175) 
1.378547

>  <BertzCT>  (175) 
1005.389465

>  <Chi0>  (175) 
19.82178

>  <Chi0n>  (175) 
15.344558

>  <Chi0v>  (175) 
16.916984

>  <Chi1>  (175) 
13.56048

>  <Chi1n>  (175) 
9.023983

>  <Chi1v>  (175) 
10.885111

>  <Chi2n>  (175) 
6.295811

>  <Chi2v>  (175) 
8.467622

>  <Chi3n>  (175) 
4.219093

>  <Chi3v>  (175) 
5.990259

>  <Chi4n>  (175) 
2.781923

>  <Chi4v>  (175) 
4.183121

>  <HallKierAlpha>  (175) 
-2.03

>  <Ipc>  (175) 
2251072.61801

>  <Kappa1>  (175) 
20.697796

>  <Kappa2>  (175) 
9.951153

>  <Kappa3>  (175) 
5.732564

>  <LabuteASA>  (175) 
169.491832

>  <PEOE_VSA1>  (175) 
10.053652

>  <PEOE_VSA10>  (175) 
0.0

>  <PEOE_VSA11>  (175) 
0.0

>  <PEOE_VSA12>  (175) 
10.023291

>  <PEOE_VSA13>  (175) 
0.0

>  <PEOE_VSA14>  (175) 
0.0

>  <PEOE_VSA2>  (175) 
4.983979

>  <PEOE_VSA3>  (175) 
13.139892

>  <PEOE_VSA4>  (175) 
0.0

>  <PEOE_VSA5>  (175) 
0.0

>  <PEOE_VSA6>  (175) 
35.866408

>  <PEOE_VSA7>  (175) 
29.82892

>  <PEOE_VSA8>  (175) 
28.188769

>  <PEOE_VSA9>  (175) 
37.743517

>  <SMR_VSA1>  (175) 
18.471449

>  <SMR_VSA10>  (175) 
32.396679

>  <SMR_VSA2>  (175) 
0.0

>  <SMR_VSA3>  (175) 
9.706073

>  <SMR_VSA4>  (175) 
0.0

>  <SMR_VSA5>  (175) 
11.502365

>  <SMR_VSA6>  (175) 
26.241151

>  <SMR_VSA7>  (175) 
71.510708

>  <SMR_VSA8>  (175) 
0.0

>  <SMR_VSA9>  (175) 
0.0

>  <SlogP_VSA1>  (175) 
10.038883

>  <SlogP_VSA10>  (175) 
0.0

>  <SlogP_VSA11>  (175) 
0.0

>  <SlogP_VSA12>  (175) 
11.60094

>  <SlogP_VSA2>  (175) 
39.642927

>  <SlogP_VSA3>  (175) 
21.367036

>  <SlogP_VSA4>  (175) 
0.0

>  <SlogP_VSA5>  (175) 
5.563451

>  <SlogP_VSA6>  (175) 
65.820107

>  <SlogP_VSA7>  (175) 
5.022633

>  <SlogP_VSA8>  (175) 
10.772448

>  <SlogP_VSA9>  (175) 
0.0

>  <EState_VSA1>  (175) 
10.023291

>  <EState_VSA10>  (175) 
8.417797

>  <EState_VSA11>  (175) 
0.0

>  <EState_VSA2>  (175) 
4.895483

>  <EState_VSA3>  (175) 
36.712134

>  <EState_VSA4>  (175) 
17.494432

>  <EState_VSA5>  (175) 
0.0

>  <EState_VSA6>  (175) 
30.592788

>  <EState_VSA7>  (175) 
35.648624

>  <EState_VSA8>  (175) 
9.706073

>  <EState_VSA9>  (175) 
16.337803

>  <VSA_EState1>  (175) 
33.42771

>  <VSA_EState10>  (175) 
5.84639

>  <VSA_EState2>  (175) 
4.308745

>  <VSA_EState3>  (175) 
4.204881

>  <VSA_EState4>  (175) 
1.071711

>  <VSA_EState5>  (175) 
0.0

>  <VSA_EState6>  (175) 
14.4436

>  <VSA_EState7>  (175) 
3.255299

>  <VSA_EState8>  (175) 
2.866444

>  <VSA_EState9>  (175) 
-3.563669

>  <FractionCSP3>  (175) 
0.25

>  <HeavyAtomCount>  (175) 
28

>  <NHOHCount>  (175) 
3

>  <NOCount>  (175) 
6

>  <NumAliphaticCarbocycles>  (175) 
0

>  <NumAliphaticHeterocycles>  (175) 
0

>  <NumAliphaticRings>  (175) 
0

>  <NumAromaticCarbocycles>  (175) 
2

>  <NumAromaticHeterocycles>  (175) 
1

>  <NAR>  (175) 
3

>  <NumHAcceptors>  (175) 
4

>  <NumHDonors>  (175) 
2

>  <NumHeteroatoms>  (175) 
8

>  <NumRotatableBonds>  (175) 
10

>  <NumSaturatedCarbocycles>  (175) 
0

>  <NumSaturatedHeterocycles>  (175) 
0

>  <NumSaturatedRings>  (175) 
0

>  <RingCount>  (175) 
3

>  <MolLogP>  (175) 
1.9467

>  <MolMR>  (175) 
109.6989

>  <fr_Al_COO>  (175) 
0

>  <fr_Al_OH>  (175) 
0

>  <fr_Al_OH_noTert>  (175) 
0

>  <fr_ArN>  (175) 
0

>  <fr_Ar_COO>  (175) 
0

>  <fr_Ar_N>  (175) 
1

>  <fr_Ar_NH>  (175) 
0

>  <fr_Ar_OH>  (175) 
0

>  <fr_COO>  (175) 
0

>  <fr_COO2>  (175) 
0

>  <fr_C_O>  (175) 
0

>  <fr_C_O_noCOO>  (175) 
0

>  <fr_C_S>  (175) 
0

>  <fr_HOCCN>  (175) 
0

>  <fr_Imine>  (175) 
0

>  <fr_NH0>  (175) 
1

>  <fr_NH1>  (175) 
1

>  <fr_NH2>  (175) 
1

>  <fr_N_O>  (175) 
0

>  <fr_Ndealkylation1>  (175) 
0

>  <fr_Ndealkylation2>  (175) 
0

>  <fr_Nhpyrrole>  (175) 
0

>  <fr_SH>  (175) 
0

>  <fr_aldehyde>  (175) 
0

>  <fr_alkyl_carbamate>  (175) 
0

>  <fr_alkyl_halide>  (175) 
0

>  <fr_allylic_oxid>  (175) 
0

>  <fr_amide>  (175) 
0

>  <fr_amidine>  (175) 
0

>  <fr_aniline>  (175) 
0

>  <fr_aryl_methyl>  (175) 
0

>  <fr_azide>  (175) 
0

>  <fr_azo>  (175) 
0

>  <fr_barbitur>  (175) 
0

>  <fr_benzene>  (175) 
2

>  <fr_benzodiazepine>  (175) 
0

>  <fr_bicyclic>  (175) 
1

>  <fr_diazo>  (175) 
0

>  <fr_dihydropyridine>  (175) 
0

>  <fr_epoxide>  (175) 
0

>  <fr_ester>  (175) 
0

>  <fr_ether>  (175) 
1

>  <fr_furan>  (175) 
0

>  <fr_guanido>  (175) 
0

>  <fr_halogen>  (175) 
1

>  <fr_hdrzine>  (175) 
0

>  <fr_hdrzone>  (175) 
0

>  <fr_imidazole>  (175) 
0

>  <fr_imide>  (175) 
0

>  <fr_isocyan>  (175) 
0

>  <fr_isothiocyan>  (175) 
0

>  <fr_ketone>  (175) 
0

>  <fr_ketone_Topliss>  (175) 
0

>  <fr_lactam>  (175) 
0

>  <fr_lactone>  (175) 
0

>  <fr_methoxy>  (175) 
0

>  <fr_morpholine>  (175) 
0

>  <fr_nitrile>  (175) 
0

>  <fr_nitro>  (175) 
0

>  <fr_nitro_arom>  (175) 
0

>  <fr_nitro_arom_nonortho>  (175) 
0

>  <fr_nitroso>  (175) 
0

>  <fr_oxazole>  (175) 
0

>  <fr_oxime>  (175) 
0

>  <fr_para_hydroxylation>  (175) 
0

>  <fr_phenol>  (175) 
0

>  <fr_phenol_noOrthoHbond>  (175) 
0

>  <fr_phos_acid>  (175) 
0

>  <fr_phos_ester>  (175) 
0

>  <fr_piperdine>  (175) 
0

>  <fr_piperzine>  (175) 
0

>  <fr_priamide>  (175) 
0

>  <fr_prisulfonamd>  (175) 
0

>  <fr_pyridine>  (175) 
1

>  <fr_quatN>  (175) 
1

>  <fr_sulfide>  (175) 
0

>  <fr_sulfonamd>  (175) 
1

>  <fr_sulfone>  (175) 
0

>  <fr_term_acetylene>  (175) 
0

>  <fr_tetrazole>  (175) 
0

>  <fr_thiazole>  (175) 
0

>  <fr_thiocyan>  (175) 
0

>  <fr_thiophene>  (175) 
0

>  <fr_unbrch_alkane>  (175) 
0

>  <fr_urea>  (175) 
0

>  <NP-Likeness>  (175) 
-1.318912

$$$$
IPH
     RDKit          3D

  0  0  0  0  0  0  0  0  0  0999 V3000
M  V30 BEGIN CTAB
M  V30 COUNTS 13 13 0 0 0
M  V30 BEGIN ATOM
M  V30 1 O -0.454142 -1.483578 2.110497 0
M  V30 2 C 0.479580 -0.914396 1.251783 0
M  V30 3 C 0.127632 -0.886484 -0.088635 0
M  V30 4 C 1.046102 -0.324565 -0.947294 0
M  V30 5 C 2.250248 0.185169 -0.515252 0
M  V30 6 C 2.591455 0.152360 0.823725 0
M  V30 7 C 1.669811 -0.413983 1.702388 0
M  V30 8 H -1.087098 -0.899565 2.655535 0
M  V30 9 H -0.805620 -1.272334 -0.486694 0
M  V30 10 H 0.864439 -0.258777 -1.991873 0
M  V30 11 H 2.950263 0.615989 -1.187223 0
M  V30 12 H 3.504859 0.529840 1.214471 0
M  V30 13 H 1.905136 -0.455971 2.758720 0
M  V30 END ATOM
M  V30 BEGIN BOND
M  V30 1 1 1 2
M  V30 2 2 2 3
M  V30 3 1 3 4
M  V30 4 2 4 5
M  V30 5 1 5 6
M  V30 6 2 6 7
M  V30 7 1 7 2
M  V30 8 1 1 8
M  V30 9 1 3 9
M  V30 10 1 4 10
M  V30 11 1 5 11
M  V30 12 1 6 12
M  V30 13 1 7 13
M  V30 END BOND
M  V30 END CTAB
M  END
>  <Dataset>  (176) 
PDB

>  <Ligand_Instance>  (176) 
3NX8_IPH_A_351

>  <PDB_ID>  (176) 
3NX8

>  <Standardized_SMILES>  (176) 
[H]OC1=C([H])C([H])=C([H])C([H])=C1[H]

>  <Name>  (176) 
PHENOL

>  <Pocket>  (176) 
A

>  <ATP_Site>  (176) 
1.0

>  <Peripheral>  (176) 
1.0

>  <Num_H_Atoms_ProtBoundConf>  (176) 
6.0

>  <Num_Resolved_Atoms>  (176) 
7.0

>  <Num_Not_Resolved_Atoms>  (176) 
0.0

>  <2D_Mol_H>  (176) 
<rdkit.Chem.rdchem.Mol object at 0x72a238df0270>

>  <MW>  (176) 
94.113

>  <HBA>  (176) 
1

>  <HBD>  (176) 
1

>  <LogP>  (176) 
1.3922

>  <NRB>  (176) 
1

>  <TPSA>  (176) 
20.23

>  <Num_Heavy_Atoms>  (176) 
7

>  <Ro5>  (176) 
[True, True, True, True, True, True]

>  <Ro5_Fulfilled>  (176) 
True

>  <Ro3>  (176) 
[True, True, True, True]

>  <Ro3_Fulfilled>  (176) 
True

>  <Fsp3>  (176) 
0.0

>  <Fsp3_0.42>  (176) 
False

>  <Fsp3_0.45>  (176) 
False

>  <Stereogenic_Carbons>  (176) 
0

>  <C_Atoms>  (176) 
6

>  <FCStereo>  (176) 
0.0

>  <SPS>  (176) 
60

>  <nSPS>  (176) 
8.571429

>  <PBF>  (176) 
0.133804

>  <PBF_0.6>  (176) 
False

>  <nPBF>  (176) 
0.019115

>  <nPBF_0.016>  (176) 
True

>  <PMI1>  (176) 
88.420561

>  <PMI2>  (176) 
191.253318

>  <PMI3>  (176) 
278.249689

>  <NPR1>  (176) 
0.317774

>  <NPR2>  (176) 
0.687344

>  <Sum_NPR>  (176) 
1.005118

>  <Sum_NPR_1.07>  (176) 
False

>  <Sum_NPR_1.2>  (176) 
False

>  <MaxAbsEStateIndex>  (176) 
8.632222

>  <MaxEStateIndex>  (176) 
8.632222

>  <MinAbsEStateIndex>  (176) 
0.321759

>  <MinEStateIndex>  (176) 
0.321759

>  <qed>  (176) 
0.51473

>  <MolWt>  (176) 
94.113

>  <HeavyAtomMolWt>  (176) 
88.065

>  <ExactMolWt>  (176) 
94.041865

>  <NumValenceElectrons>  (176) 
36

>  <NumRadicalElectrons>  (176) 
0

>  <MaxPartialCharge>  (176) 
0.115075

>  <MinPartialCharge>  (176) 
-0.507967

>  <MaxAbsPartialCharge>  (176) 
0.507967

>  <MinAbsPartialCharge>  (176) 
0.115075

>  <FpDensityMorgan1>  (176) 
1.0

>  <FpDensityMorgan2>  (176) 
1.571429

>  <FpDensityMorgan3>  (176) 
1.857143

>  <BCUT2D_MWHI>  (176) 
16.25462

>  <BCUT2D_MWLOW>  (176) 
10.346234

>  <BCUT2D_CHGHI>  (176) 
1.743219

>  <BCUT2D_CHGLO>  (176) 
-1.819354

>  <BCUT2D_LOGPHI>  (176) 
2.022574

>  <BCUT2D_LOGPLOW>  (176) 
-1.559499

>  <BCUT2D_MRHI>  (176) 
5.17974

>  <BCUT2D_MRLOW>  (176) 
0.475117

>  <AvgIpc>  (176) 
1.685616

>  <BalabanJ>  (176) 
3.021465

>  <BertzCT>  (176) 
134.10737

>  <Chi0>  (176) 
5.112884

>  <Chi0n>  (176) 
3.833965

>  <Chi0v>  (176) 
3.833965

>  <Chi1>  (176) 
3.393847

>  <Chi1n>  (176) 
2.13429

>  <Chi1v>  (176) 
2.13429

>  <Chi2n>  (176) 
1.335549

>  <Chi2v>  (176) 
1.335549

>  <Chi3n>  (176) 
0.756194

>  <Chi3v>  (176) 
0.756194

>  <Chi4n>  (176) 
0.427994

>  <Chi4v>  (176) 
0.427994

>  <HallKierAlpha>  (176) 
-0.98

>  <Ipc>  (176) 
47.197253

>  <Kappa1>  (176) 
4.186113

>  <Kappa2>  (176) 
1.646196

>  <Kappa3>  (176) 
0.929059

>  <LabuteASA>  (176) 
42.225637

>  <PEOE_VSA1>  (176) 
5.106527

>  <PEOE_VSA10>  (176) 
5.749512

>  <PEOE_VSA11>  (176) 
0.0

>  <PEOE_VSA12>  (176) 
0.0

>  <PEOE_VSA13>  (176) 
0.0

>  <PEOE_VSA14>  (176) 
0.0

>  <PEOE_VSA2>  (176) 
0.0

>  <PEOE_VSA3>  (176) 
0.0

>  <PEOE_VSA4>  (176) 
0.0

>  <PEOE_VSA5>  (176) 
0.0

>  <PEOE_VSA6>  (176) 
18.199101

>  <PEOE_VSA7>  (176) 
12.132734

>  <PEOE_VSA8>  (176) 
0.0

>  <PEOE_VSA9>  (176) 
0.0

>  <SMR_VSA1>  (176) 
5.106527

>  <SMR_VSA10>  (176) 
0.0

>  <SMR_VSA2>  (176) 
0.0

>  <SMR_VSA3>  (176) 
0.0

>  <SMR_VSA4>  (176) 
0.0

>  <SMR_VSA5>  (176) 
0.0

>  <SMR_VSA6>  (176) 
0.0

>  <SMR_VSA7>  (176) 
30.331835

>  <SMR_VSA8>  (176) 
0.0

>  <SMR_VSA9>  (176) 
5.749512

>  <SlogP_VSA1>  (176) 
0.0

>  <SlogP_VSA10>  (176) 
0.0

>  <SlogP_VSA11>  (176) 
5.749512

>  <SlogP_VSA12>  (176) 
0.0

>  <SlogP_VSA2>  (176) 
5.106527

>  <SlogP_VSA3>  (176) 
0.0

>  <SlogP_VSA4>  (176) 
0.0

>  <SlogP_VSA5>  (176) 
0.0

>  <SlogP_VSA6>  (176) 
30.331835

>  <SlogP_VSA7>  (176) 
0.0

>  <SlogP_VSA8>  (176) 
0.0

>  <SlogP_VSA9>  (176) 
0.0

>  <EState_VSA1>  (176) 
0.0

>  <EState_VSA10>  (176) 
0.0

>  <EState_VSA11>  (176) 
0.0

>  <EState_VSA2>  (176) 
0.0

>  <EState_VSA3>  (176) 
5.749512

>  <EState_VSA4>  (176) 
0.0

>  <EState_VSA5>  (176) 
0.0

>  <EState_VSA6>  (176) 
24.265468

>  <EState_VSA7>  (176) 
6.066367

>  <EState_VSA8>  (176) 
0.0

>  <EState_VSA9>  (176) 
5.106527

>  <VSA_EState1>  (176) 
0.0

>  <VSA_EState10>  (176) 
0.0

>  <VSA_EState2>  (176) 
0.0

>  <VSA_EState3>  (176) 
8.632222

>  <VSA_EState4>  (176) 
0.0

>  <VSA_EState5>  (176) 
0.321759

>  <VSA_EState6>  (176) 
8.712685

>  <VSA_EState7>  (176) 
0.0

>  <VSA_EState8>  (176) 
0.0

>  <VSA_EState9>  (176) 
0.0

>  <FractionCSP3>  (176) 
0.0

>  <HeavyAtomCount>  (176) 
7

>  <NHOHCount>  (176) 
1

>  <NOCount>  (176) 
1

>  <NumAliphaticCarbocycles>  (176) 
0

>  <NumAliphaticHeterocycles>  (176) 
0

>  <NumAliphaticRings>  (176) 
0

>  <NumAromaticCarbocycles>  (176) 
1

>  <NumAromaticHeterocycles>  (176) 
0

>  <NAR>  (176) 
1

>  <NumHAcceptors>  (176) 
1

>  <NumHDonors>  (176) 
1

>  <NumHeteroatoms>  (176) 
1

>  <NumRotatableBonds>  (176) 
0

>  <NumSaturatedCarbocycles>  (176) 
0

>  <NumSaturatedHeterocycles>  (176) 
0

>  <NumSaturatedRings>  (176) 
0

>  <RingCount>  (176) 
1

>  <MolLogP>  (176) 
1.3922

>  <MolMR>  (176) 
28.1068

>  <fr_Al_COO>  (176) 
0

>  <fr_Al_OH>  (176) 
0

>  <fr_Al_OH_noTert>  (176) 
0

>  <fr_ArN>  (176) 
0

>  <fr_Ar_COO>  (176) 
0

>  <fr_Ar_N>  (176) 
0

>  <fr_Ar_NH>  (176) 
0

>  <fr_Ar_OH>  (176) 
1

>  <fr_COO>  (176) 
0

>  <fr_COO2>  (176) 
0

>  <fr_C_O>  (176) 
0

>  <fr_C_O_noCOO>  (176) 
0

>  <fr_C_S>  (176) 
0

>  <fr_HOCCN>  (176) 
0

>  <fr_Imine>  (176) 
0

>  <fr_NH0>  (176) 
0

>  <fr_NH1>  (176) 
0

>  <fr_NH2>  (176) 
0

>  <fr_N_O>  (176) 
0

>  <fr_Ndealkylation1>  (176) 
0

>  <fr_Ndealkylation2>  (176) 
0

>  <fr_Nhpyrrole>  (176) 
0

>  <fr_SH>  (176) 
0

>  <fr_aldehyde>  (176) 
0

>  <fr_alkyl_carbamate>  (176) 
0

>  <fr_alkyl_halide>  (176) 
0

>  <fr_allylic_oxid>  (176) 
0

>  <fr_amide>  (176) 
0

>  <fr_amidine>  (176) 
0

>  <fr_aniline>  (176) 
0

>  <fr_aryl_methyl>  (176) 
0

>  <fr_azide>  (176) 
0

>  <fr_azo>  (176) 
0

>  <fr_barbitur>  (176) 
0

>  <fr_benzene>  (176) 
1

>  <fr_benzodiazepine>  (176) 
0

>  <fr_bicyclic>  (176) 
0

>  <fr_diazo>  (176) 
0

>  <fr_dihydropyridine>  (176) 
0

>  <fr_epoxide>  (176) 
0

>  <fr_ester>  (176) 
0

>  <fr_ether>  (176) 
0

>  <fr_furan>  (176) 
0

>  <fr_guanido>  (176) 
0

>  <fr_halogen>  (176) 
0

>  <fr_hdrzine>  (176) 
0

>  <fr_hdrzone>  (176) 
0

>  <fr_imidazole>  (176) 
0

>  <fr_imide>  (176) 
0

>  <fr_isocyan>  (176) 
0

>  <fr_isothiocyan>  (176) 
0

>  <fr_ketone>  (176) 
0

>  <fr_ketone_Topliss>  (176) 
0

>  <fr_lactam>  (176) 
0

>  <fr_lactone>  (176) 
0

>  <fr_methoxy>  (176) 
0

>  <fr_morpholine>  (176) 
0

>  <fr_nitrile>  (176) 
0

>  <fr_nitro>  (176) 
0

>  <fr_nitro_arom>  (176) 
0

>  <fr_nitro_arom_nonortho>  (176) 
0

>  <fr_nitroso>  (176) 
0

>  <fr_oxazole>  (176) 
0

>  <fr_oxime>  (176) 
0

>  <fr_para_hydroxylation>  (176) 
1

>  <fr_phenol>  (176) 
1

>  <fr_phenol_noOrthoHbond>  (176) 
1

>  <fr_phos_acid>  (176) 
0

>  <fr_phos_ester>  (176) 
0

>  <fr_piperdine>  (176) 
0

>  <fr_piperzine>  (176) 
0

>  <fr_priamide>  (176) 
0

>  <fr_prisulfonamd>  (176) 
0

>  <fr_pyridine>  (176) 
0

>  <fr_quatN>  (176) 
0

>  <fr_sulfide>  (176) 
0

>  <fr_sulfonamd>  (176) 
0

>  <fr_sulfone>  (176) 
0

>  <fr_term_acetylene>  (176) 
0

>  <fr_tetrazole>  (176) 
0

>  <fr_thiazole>  (176) 
0

>  <fr_thiocyan>  (176) 
0

>  <fr_thiophene>  (176) 
0

>  <fr_unbrch_alkane>  (176) 
0

>  <fr_urea>  (176) 
0

>  <NP-Likeness>  (176) 
0.416936

$$$$
IPH
     RDKit          3D

  0  0  0  0  0  0  0  0  0  0999 V3000
M  V30 BEGIN CTAB
M  V30 COUNTS 13 13 0 0 0
M  V30 BEGIN ATOM
M  V30 1 O -0.454142 -1.483578 2.110497 0
M  V30 2 C 0.479580 -0.914396 1.251783 0
M  V30 3 C 0.127632 -0.886484 -0.088635 0
M  V30 4 C 1.046102 -0.324565 -0.947294 0
M  V30 5 C 2.250248 0.185169 -0.515252 0
M  V30 6 C 2.591455 0.152360 0.823725 0
M  V30 7 C 1.669811 -0.413983 1.702388 0
M  V30 8 H -1.087098 -0.899565 2.655535 0
M  V30 9 H -0.805620 -1.272334 -0.486694 0
M  V30 10 H 0.864439 -0.258777 -1.991873 0
M  V30 11 H 2.950263 0.615989 -1.187223 0
M  V30 12 H 3.504859 0.529840 1.214471 0
M  V30 13 H 1.905136 -0.455971 2.758720 0
M  V30 END ATOM
M  V30 BEGIN BOND
M  V30 1 1 1 2
M  V30 2 2 2 3
M  V30 3 1 3 4
M  V30 4 2 4 5
M  V30 5 1 5 6
M  V30 6 2 6 7
M  V30 7 1 7 2
M  V30 8 1 1 8
M  V30 9 1 3 9
M  V30 10 1 4 10
M  V30 11 1 5 11
M  V30 12 1 6 12
M  V30 13 1 7 13
M  V30 END BOND
M  V30 END CTAB
M  END
>  <Dataset>  (177) 
PDB

>  <Ligand_Instance>  (177) 
3NX8_IPH_A_352

>  <PDB_ID>  (177) 
3NX8

>  <Standardized_SMILES>  (177) 
[H]OC1=C([H])C([H])=C([H])C([H])=C1[H]

>  <Name>  (177) 
PHENOL

>  <Pocket>  (177) 
X

>  <ATP_Site>  (177) 
1.0

>  <Peripheral>  (177) 
1.0

>  <Num_H_Atoms_ProtBoundConf>  (177) 
6.0

>  <Num_Resolved_Atoms>  (177) 
7.0

>  <Num_Not_Resolved_Atoms>  (177) 
0.0

>  <2D_Mol_H>  (177) 
<rdkit.Chem.rdchem.Mol object at 0x72a238df0350>

>  <MW>  (177) 
94.113

>  <HBA>  (177) 
1

>  <HBD>  (177) 
1

>  <LogP>  (177) 
1.3922

>  <NRB>  (177) 
1

>  <TPSA>  (177) 
20.23

>  <Num_Heavy_Atoms>  (177) 
7

>  <Ro5>  (177) 
[True, True, True, True, True, True]

>  <Ro5_Fulfilled>  (177) 
True

>  <Ro3>  (177) 
[True, True, True, True]

>  <Ro3_Fulfilled>  (177) 
True

>  <Fsp3>  (177) 
0.0

>  <Fsp3_0.42>  (177) 
False

>  <Fsp3_0.45>  (177) 
False

>  <Stereogenic_Carbons>  (177) 
0

>  <C_Atoms>  (177) 
6

>  <FCStereo>  (177) 
0.0

>  <SPS>  (177) 
60

>  <nSPS>  (177) 
8.571429

>  <PBF>  (177) 
0.133804

>  <PBF_0.6>  (177) 
False

>  <nPBF>  (177) 
0.019115

>  <nPBF_0.016>  (177) 
True

>  <PMI1>  (177) 
88.420561

>  <PMI2>  (177) 
191.253318

>  <PMI3>  (177) 
278.249689

>  <NPR1>  (177) 
0.317774

>  <NPR2>  (177) 
0.687344

>  <Sum_NPR>  (177) 
1.005118

>  <Sum_NPR_1.07>  (177) 
False

>  <Sum_NPR_1.2>  (177) 
False

>  <MaxAbsEStateIndex>  (177) 
8.632222

>  <MaxEStateIndex>  (177) 
8.632222

>  <MinAbsEStateIndex>  (177) 
0.321759

>  <MinEStateIndex>  (177) 
0.321759

>  <qed>  (177) 
0.51473

>  <MolWt>  (177) 
94.113

>  <HeavyAtomMolWt>  (177) 
88.065

>  <ExactMolWt>  (177) 
94.041865

>  <NumValenceElectrons>  (177) 
36

>  <NumRadicalElectrons>  (177) 
0

>  <MaxPartialCharge>  (177) 
0.115075

>  <MinPartialCharge>  (177) 
-0.507967

>  <MaxAbsPartialCharge>  (177) 
0.507967

>  <MinAbsPartialCharge>  (177) 
0.115075

>  <FpDensityMorgan1>  (177) 
1.0

>  <FpDensityMorgan2>  (177) 
1.571429

>  <FpDensityMorgan3>  (177) 
1.857143

>  <BCUT2D_MWHI>  (177) 
16.25462

>  <BCUT2D_MWLOW>  (177) 
10.346234

>  <BCUT2D_CHGHI>  (177) 
1.743219

>  <BCUT2D_CHGLO>  (177) 
-1.819354

>  <BCUT2D_LOGPHI>  (177) 
2.022574

>  <BCUT2D_LOGPLOW>  (177) 
-1.559499

>  <BCUT2D_MRHI>  (177) 
5.17974

>  <BCUT2D_MRLOW>  (177) 
0.475117

>  <AvgIpc>  (177) 
1.685616

>  <BalabanJ>  (177) 
3.021465

>  <BertzCT>  (177) 
134.10737

>  <Chi0>  (177) 
5.112884

>  <Chi0n>  (177) 
3.833965

>  <Chi0v>  (177) 
3.833965

>  <Chi1>  (177) 
3.393847

>  <Chi1n>  (177) 
2.13429

>  <Chi1v>  (177) 
2.13429

>  <Chi2n>  (177) 
1.335549

>  <Chi2v>  (177) 
1.335549

>  <Chi3n>  (177) 
0.756194

>  <Chi3v>  (177) 
0.756194

>  <Chi4n>  (177) 
0.427994

>  <Chi4v>  (177) 
0.427994

>  <HallKierAlpha>  (177) 
-0.98

>  <Ipc>  (177) 
47.197253

>  <Kappa1>  (177) 
4.186113

>  <Kappa2>  (177) 
1.646196

>  <Kappa3>  (177) 
0.929059

>  <LabuteASA>  (177) 
42.225637

>  <PEOE_VSA1>  (177) 
5.106527

>  <PEOE_VSA10>  (177) 
5.749512

>  <PEOE_VSA11>  (177) 
0.0

>  <PEOE_VSA12>  (177) 
0.0

>  <PEOE_VSA13>  (177) 
0.0

>  <PEOE_VSA14>  (177) 
0.0

>  <PEOE_VSA2>  (177) 
0.0

>  <PEOE_VSA3>  (177) 
0.0

>  <PEOE_VSA4>  (177) 
0.0

>  <PEOE_VSA5>  (177) 
0.0

>  <PEOE_VSA6>  (177) 
18.199101

>  <PEOE_VSA7>  (177) 
12.132734

>  <PEOE_VSA8>  (177) 
0.0

>  <PEOE_VSA9>  (177) 
0.0

>  <SMR_VSA1>  (177) 
5.106527

>  <SMR_VSA10>  (177) 
0.0

>  <SMR_VSA2>  (177) 
0.0

>  <SMR_VSA3>  (177) 
0.0

>  <SMR_VSA4>  (177) 
0.0

>  <SMR_VSA5>  (177) 
0.0

>  <SMR_VSA6>  (177) 
0.0

>  <SMR_VSA7>  (177) 
30.331835

>  <SMR_VSA8>  (177) 
0.0

>  <SMR_VSA9>  (177) 
5.749512

>  <SlogP_VSA1>  (177) 
0.0

>  <SlogP_VSA10>  (177) 
0.0

>  <SlogP_VSA11>  (177) 
5.749512

>  <SlogP_VSA12>  (177) 
0.0

>  <SlogP_VSA2>  (177) 
5.106527

>  <SlogP_VSA3>  (177) 
0.0

>  <SlogP_VSA4>  (177) 
0.0

>  <SlogP_VSA5>  (177) 
0.0

>  <SlogP_VSA6>  (177) 
30.331835

>  <SlogP_VSA7>  (177) 
0.0

>  <SlogP_VSA8>  (177) 
0.0

>  <SlogP_VSA9>  (177) 
0.0

>  <EState_VSA1>  (177) 
0.0

>  <EState_VSA10>  (177) 
0.0

>  <EState_VSA11>  (177) 
0.0

>  <EState_VSA2>  (177) 
0.0

>  <EState_VSA3>  (177) 
5.749512

>  <EState_VSA4>  (177) 
0.0

>  <EState_VSA5>  (177) 
0.0

>  <EState_VSA6>  (177) 
24.265468

>  <EState_VSA7>  (177) 
6.066367

>  <EState_VSA8>  (177) 
0.0

>  <EState_VSA9>  (177) 
5.106527

>  <VSA_EState1>  (177) 
0.0

>  <VSA_EState10>  (177) 
0.0

>  <VSA_EState2>  (177) 
0.0

>  <VSA_EState3>  (177) 
8.632222

>  <VSA_EState4>  (177) 
0.0

>  <VSA_EState5>  (177) 
0.321759

>  <VSA_EState6>  (177) 
8.712685

>  <VSA_EState7>  (177) 
0.0

>  <VSA_EState8>  (177) 
0.0

>  <VSA_EState9>  (177) 
0.0

>  <FractionCSP3>  (177) 
0.0

>  <HeavyAtomCount>  (177) 
7

>  <NHOHCount>  (177) 
1

>  <NOCount>  (177) 
1

>  <NumAliphaticCarbocycles>  (177) 
0

>  <NumAliphaticHeterocycles>  (177) 
0

>  <NumAliphaticRings>  (177) 
0

>  <NumAromaticCarbocycles>  (177) 
1

>  <NumAromaticHeterocycles>  (177) 
0

>  <NAR>  (177) 
1

>  <NumHAcceptors>  (177) 
1

>  <NumHDonors>  (177) 
1

>  <NumHeteroatoms>  (177) 
1

>  <NumRotatableBonds>  (177) 
0

>  <NumSaturatedCarbocycles>  (177) 
0

>  <NumSaturatedHeterocycles>  (177) 
0

>  <NumSaturatedRings>  (177) 
0

>  <RingCount>  (177) 
1

>  <MolLogP>  (177) 
1.3922

>  <MolMR>  (177) 
28.1068

>  <fr_Al_COO>  (177) 
0

>  <fr_Al_OH>  (177) 
0

>  <fr_Al_OH_noTert>  (177) 
0

>  <fr_ArN>  (177) 
0

>  <fr_Ar_COO>  (177) 
0

>  <fr_Ar_N>  (177) 
0

>  <fr_Ar_NH>  (177) 
0

>  <fr_Ar_OH>  (177) 
1

>  <fr_COO>  (177) 
0

>  <fr_COO2>  (177) 
0

>  <fr_C_O>  (177) 
0

>  <fr_C_O_noCOO>  (177) 
0

>  <fr_C_S>  (177) 
0

>  <fr_HOCCN>  (177) 
0

>  <fr_Imine>  (177) 
0

>  <fr_NH0>  (177) 
0

>  <fr_NH1>  (177) 
0

>  <fr_NH2>  (177) 
0

>  <fr_N_O>  (177) 
0

>  <fr_Ndealkylation1>  (177) 
0

>  <fr_Ndealkylation2>  (177) 
0

>  <fr_Nhpyrrole>  (177) 
0

>  <fr_SH>  (177) 
0

>  <fr_aldehyde>  (177) 
0

>  <fr_alkyl_carbamate>  (177) 
0

>  <fr_alkyl_halide>  (177) 
0

>  <fr_allylic_oxid>  (177) 
0

>  <fr_amide>  (177) 
0

>  <fr_amidine>  (177) 
0

>  <fr_aniline>  (177) 
0

>  <fr_aryl_methyl>  (177) 
0

>  <fr_azide>  (177) 
0

>  <fr_azo>  (177) 
0

>  <fr_barbitur>  (177) 
0

>  <fr_benzene>  (177) 
1

>  <fr_benzodiazepine>  (177) 
0

>  <fr_bicyclic>  (177) 
0

>  <fr_diazo>  (177) 
0

>  <fr_dihydropyridine>  (177) 
0

>  <fr_epoxide>  (177) 
0

>  <fr_ester>  (177) 
0

>  <fr_ether>  (177) 
0

>  <fr_furan>  (177) 
0

>  <fr_guanido>  (177) 
0

>  <fr_halogen>  (177) 
0

>  <fr_hdrzine>  (177) 
0

>  <fr_hdrzone>  (177) 
0

>  <fr_imidazole>  (177) 
0

>  <fr_imide>  (177) 
0

>  <fr_isocyan>  (177) 
0

>  <fr_isothiocyan>  (177) 
0

>  <fr_ketone>  (177) 
0

>  <fr_ketone_Topliss>  (177) 
0

>  <fr_lactam>  (177) 
0

>  <fr_lactone>  (177) 
0

>  <fr_methoxy>  (177) 
0

>  <fr_morpholine>  (177) 
0

>  <fr_nitrile>  (177) 
0

>  <fr_nitro>  (177) 
0

>  <fr_nitro_arom>  (177) 
0

>  <fr_nitro_arom_nonortho>  (177) 
0

>  <fr_nitroso>  (177) 
0

>  <fr_oxazole>  (177) 
0

>  <fr_oxime>  (177) 
0

>  <fr_para_hydroxylation>  (177) 
1

>  <fr_phenol>  (177) 
1

>  <fr_phenol_noOrthoHbond>  (177) 
1

>  <fr_phos_acid>  (177) 
0

>  <fr_phos_ester>  (177) 
0

>  <fr_piperdine>  (177) 
0

>  <fr_piperzine>  (177) 
0

>  <fr_priamide>  (177) 
0

>  <fr_prisulfonamd>  (177) 
0

>  <fr_pyridine>  (177) 
0

>  <fr_quatN>  (177) 
0

>  <fr_sulfide>  (177) 
0

>  <fr_sulfonamd>  (177) 
0

>  <fr_sulfone>  (177) 
0

>  <fr_term_acetylene>  (177) 
0

>  <fr_tetrazole>  (177) 
0

>  <fr_thiazole>  (177) 
0

>  <fr_thiocyan>  (177) 
0

>  <fr_thiophene>  (177) 
0

>  <fr_unbrch_alkane>  (177) 
0

>  <fr_urea>  (177) 
0

>  <NP-Likeness>  (177) 
0.416936

$$$$
IPH
     RDKit          3D

  0  0  0  0  0  0  0  0  0  0999 V3000
M  V30 BEGIN CTAB
M  V30 COUNTS 13 13 0 0 0
M  V30 BEGIN ATOM
M  V30 1 O -0.454142 -1.483578 2.110497 0
M  V30 2 C 0.479580 -0.914396 1.251783 0
M  V30 3 C 0.127632 -0.886484 -0.088635 0
M  V30 4 C 1.046102 -0.324565 -0.947294 0
M  V30 5 C 2.250248 0.185169 -0.515252 0
M  V30 6 C 2.591455 0.152360 0.823725 0
M  V30 7 C 1.669811 -0.413983 1.702388 0
M  V30 8 H -1.087098 -0.899565 2.655535 0
M  V30 9 H -0.805620 -1.272334 -0.486694 0
M  V30 10 H 0.864439 -0.258777 -1.991873 0
M  V30 11 H 2.950263 0.615989 -1.187223 0
M  V30 12 H 3.504859 0.529840 1.214471 0
M  V30 13 H 1.905136 -0.455971 2.758720 0
M  V30 END ATOM
M  V30 BEGIN BOND
M  V30 1 1 1 2
M  V30 2 2 2 3
M  V30 3 1 3 4
M  V30 4 2 4 5
M  V30 5 1 5 6
M  V30 6 2 6 7
M  V30 7 1 7 2
M  V30 8 1 1 8
M  V30 9 1 3 9
M  V30 10 1 4 10
M  V30 11 1 5 11
M  V30 12 1 6 12
M  V30 13 1 7 13
M  V30 END BOND
M  V30 END CTAB
M  END
>  <Dataset>  (178) 
PDB

>  <Ligand_Instance>  (178) 
3NX8_IPH_A_353

>  <PDB_ID>  (178) 
3NX8

>  <Standardized_SMILES>  (178) 
[H]OC1=C([H])C([H])=C([H])C([H])=C1[H]

>  <Name>  (178) 
PHENOL

>  <Pocket>  (178) 
F

>  <ATP_Site>  (178) 
1.0

>  <Peripheral>  (178) 
1.0

>  <Num_H_Atoms_ProtBoundConf>  (178) 
6.0

>  <Num_Resolved_Atoms>  (178) 
7.0

>  <Num_Not_Resolved_Atoms>  (178) 
0.0

>  <2D_Mol_H>  (178) 
<rdkit.Chem.rdchem.Mol object at 0x72a238df0430>

>  <MW>  (178) 
94.113

>  <HBA>  (178) 
1

>  <HBD>  (178) 
1

>  <LogP>  (178) 
1.3922

>  <NRB>  (178) 
1

>  <TPSA>  (178) 
20.23

>  <Num_Heavy_Atoms>  (178) 
7

>  <Ro5>  (178) 
[True, True, True, True, True, True]

>  <Ro5_Fulfilled>  (178) 
True

>  <Ro3>  (178) 
[True, True, True, True]

>  <Ro3_Fulfilled>  (178) 
True

>  <Fsp3>  (178) 
0.0

>  <Fsp3_0.42>  (178) 
False

>  <Fsp3_0.45>  (178) 
False

>  <Stereogenic_Carbons>  (178) 
0

>  <C_Atoms>  (178) 
6

>  <FCStereo>  (178) 
0.0

>  <SPS>  (178) 
60

>  <nSPS>  (178) 
8.571429

>  <PBF>  (178) 
0.133804

>  <PBF_0.6>  (178) 
False

>  <nPBF>  (178) 
0.019115

>  <nPBF_0.016>  (178) 
True

>  <PMI1>  (178) 
88.420561

>  <PMI2>  (178) 
191.253318

>  <PMI3>  (178) 
278.249689

>  <NPR1>  (178) 
0.317774

>  <NPR2>  (178) 
0.687344

>  <Sum_NPR>  (178) 
1.005118

>  <Sum_NPR_1.07>  (178) 
False

>  <Sum_NPR_1.2>  (178) 
False

>  <MaxAbsEStateIndex>  (178) 
8.632222

>  <MaxEStateIndex>  (178) 
8.632222

>  <MinAbsEStateIndex>  (178) 
0.321759

>  <MinEStateIndex>  (178) 
0.321759

>  <qed>  (178) 
0.51473

>  <MolWt>  (178) 
94.113

>  <HeavyAtomMolWt>  (178) 
88.065

>  <ExactMolWt>  (178) 
94.041865

>  <NumValenceElectrons>  (178) 
36

>  <NumRadicalElectrons>  (178) 
0

>  <MaxPartialCharge>  (178) 
0.115075

>  <MinPartialCharge>  (178) 
-0.507967

>  <MaxAbsPartialCharge>  (178) 
0.507967

>  <MinAbsPartialCharge>  (178) 
0.115075

>  <FpDensityMorgan1>  (178) 
1.0

>  <FpDensityMorgan2>  (178) 
1.571429

>  <FpDensityMorgan3>  (178) 
1.857143

>  <BCUT2D_MWHI>  (178) 
16.25462

>  <BCUT2D_MWLOW>  (178) 
10.346234

>  <BCUT2D_CHGHI>  (178) 
1.743219

>  <BCUT2D_CHGLO>  (178) 
-1.819354

>  <BCUT2D_LOGPHI>  (178) 
2.022574

>  <BCUT2D_LOGPLOW>  (178) 
-1.559499

>  <BCUT2D_MRHI>  (178) 
5.17974

>  <BCUT2D_MRLOW>  (178) 
0.475117

>  <AvgIpc>  (178) 
1.685616

>  <BalabanJ>  (178) 
3.021465

>  <BertzCT>  (178) 
134.10737

>  <Chi0>  (178) 
5.112884

>  <Chi0n>  (178) 
3.833965

>  <Chi0v>  (178) 
3.833965

>  <Chi1>  (178) 
3.393847

>  <Chi1n>  (178) 
2.13429

>  <Chi1v>  (178) 
2.13429

>  <Chi2n>  (178) 
1.335549

>  <Chi2v>  (178) 
1.335549

>  <Chi3n>  (178) 
0.756194

>  <Chi3v>  (178) 
0.756194

>  <Chi4n>  (178) 
0.427994

>  <Chi4v>  (178) 
0.427994

>  <HallKierAlpha>  (178) 
-0.98

>  <Ipc>  (178) 
47.197253

>  <Kappa1>  (178) 
4.186113

>  <Kappa2>  (178) 
1.646196

>  <Kappa3>  (178) 
0.929059

>  <LabuteASA>  (178) 
42.225637

>  <PEOE_VSA1>  (178) 
5.106527

>  <PEOE_VSA10>  (178) 
5.749512

>  <PEOE_VSA11>  (178) 
0.0

>  <PEOE_VSA12>  (178) 
0.0

>  <PEOE_VSA13>  (178) 
0.0

>  <PEOE_VSA14>  (178) 
0.0

>  <PEOE_VSA2>  (178) 
0.0

>  <PEOE_VSA3>  (178) 
0.0

>  <PEOE_VSA4>  (178) 
0.0

>  <PEOE_VSA5>  (178) 
0.0

>  <PEOE_VSA6>  (178) 
18.199101

>  <PEOE_VSA7>  (178) 
12.132734

>  <PEOE_VSA8>  (178) 
0.0

>  <PEOE_VSA9>  (178) 
0.0

>  <SMR_VSA1>  (178) 
5.106527

>  <SMR_VSA10>  (178) 
0.0

>  <SMR_VSA2>  (178) 
0.0

>  <SMR_VSA3>  (178) 
0.0

>  <SMR_VSA4>  (178) 
0.0

>  <SMR_VSA5>  (178) 
0.0

>  <SMR_VSA6>  (178) 
0.0

>  <SMR_VSA7>  (178) 
30.331835

>  <SMR_VSA8>  (178) 
0.0

>  <SMR_VSA9>  (178) 
5.749512

>  <SlogP_VSA1>  (178) 
0.0

>  <SlogP_VSA10>  (178) 
0.0

>  <SlogP_VSA11>  (178) 
5.749512

>  <SlogP_VSA12>  (178) 
0.0

>  <SlogP_VSA2>  (178) 
5.106527

>  <SlogP_VSA3>  (178) 
0.0

>  <SlogP_VSA4>  (178) 
0.0

>  <SlogP_VSA5>  (178) 
0.0

>  <SlogP_VSA6>  (178) 
30.331835

>  <SlogP_VSA7>  (178) 
0.0

>  <SlogP_VSA8>  (178) 
0.0

>  <SlogP_VSA9>  (178) 
0.0

>  <EState_VSA1>  (178) 
0.0

>  <EState_VSA10>  (178) 
0.0

>  <EState_VSA11>  (178) 
0.0

>  <EState_VSA2>  (178) 
0.0

>  <EState_VSA3>  (178) 
5.749512

>  <EState_VSA4>  (178) 
0.0

>  <EState_VSA5>  (178) 
0.0

>  <EState_VSA6>  (178) 
24.265468

>  <EState_VSA7>  (178) 
6.066367

>  <EState_VSA8>  (178) 
0.0

>  <EState_VSA9>  (178) 
5.106527

>  <VSA_EState1>  (178) 
0.0

>  <VSA_EState10>  (178) 
0.0

>  <VSA_EState2>  (178) 
0.0

>  <VSA_EState3>  (178) 
8.632222

>  <VSA_EState4>  (178) 
0.0

>  <VSA_EState5>  (178) 
0.321759

>  <VSA_EState6>  (178) 
8.712685

>  <VSA_EState7>  (178) 
0.0

>  <VSA_EState8>  (178) 
0.0

>  <VSA_EState9>  (178) 
0.0

>  <FractionCSP3>  (178) 
0.0

>  <HeavyAtomCount>  (178) 
7

>  <NHOHCount>  (178) 
1

>  <NOCount>  (178) 
1

>  <NumAliphaticCarbocycles>  (178) 
0

>  <NumAliphaticHeterocycles>  (178) 
0

>  <NumAliphaticRings>  (178) 
0

>  <NumAromaticCarbocycles>  (178) 
1

>  <NumAromaticHeterocycles>  (178) 
0

>  <NAR>  (178) 
1

>  <NumHAcceptors>  (178) 
1

>  <NumHDonors>  (178) 
1

>  <NumHeteroatoms>  (178) 
1

>  <NumRotatableBonds>  (178) 
0

>  <NumSaturatedCarbocycles>  (178) 
0

>  <NumSaturatedHeterocycles>  (178) 
0

>  <NumSaturatedRings>  (178) 
0

>  <RingCount>  (178) 
1

>  <MolLogP>  (178) 
1.3922

>  <MolMR>  (178) 
28.1068

>  <fr_Al_COO>  (178) 
0

>  <fr_Al_OH>  (178) 
0

>  <fr_Al_OH_noTert>  (178) 
0

>  <fr_ArN>  (178) 
0

>  <fr_Ar_COO>  (178) 
0

>  <fr_Ar_N>  (178) 
0

>  <fr_Ar_NH>  (178) 
0

>  <fr_Ar_OH>  (178) 
1

>  <fr_COO>  (178) 
0

>  <fr_COO2>  (178) 
0

>  <fr_C_O>  (178) 
0

>  <fr_C_O_noCOO>  (178) 
0

>  <fr_C_S>  (178) 
0

>  <fr_HOCCN>  (178) 
0

>  <fr_Imine>  (178) 
0

>  <fr_NH0>  (178) 
0

>  <fr_NH1>  (178) 
0

>  <fr_NH2>  (178) 
0

>  <fr_N_O>  (178) 
0

>  <fr_Ndealkylation1>  (178) 
0

>  <fr_Ndealkylation2>  (178) 
0

>  <fr_Nhpyrrole>  (178) 
0

>  <fr_SH>  (178) 
0

>  <fr_aldehyde>  (178) 
0

>  <fr_alkyl_carbamate>  (178) 
0

>  <fr_alkyl_halide>  (178) 
0

>  <fr_allylic_oxid>  (178) 
0

>  <fr_amide>  (178) 
0

>  <fr_amidine>  (178) 
0

>  <fr_aniline>  (178) 
0

>  <fr_aryl_methyl>  (178) 
0

>  <fr_azide>  (178) 
0

>  <fr_azo>  (178) 
0

>  <fr_barbitur>  (178) 
0

>  <fr_benzene>  (178) 
1

>  <fr_benzodiazepine>  (178) 
0

>  <fr_bicyclic>  (178) 
0

>  <fr_diazo>  (178) 
0

>  <fr_dihydropyridine>  (178) 
0

>  <fr_epoxide>  (178) 
0

>  <fr_ester>  (178) 
0

>  <fr_ether>  (178) 
0

>  <fr_furan>  (178) 
0

>  <fr_guanido>  (178) 
0

>  <fr_halogen>  (178) 
0

>  <fr_hdrzine>  (178) 
0

>  <fr_hdrzone>  (178) 
0

>  <fr_imidazole>  (178) 
0

>  <fr_imide>  (178) 
0

>  <fr_isocyan>  (178) 
0

>  <fr_isothiocyan>  (178) 
0

>  <fr_ketone>  (178) 
0

>  <fr_ketone_Topliss>  (178) 
0

>  <fr_lactam>  (178) 
0

>  <fr_lactone>  (178) 
0

>  <fr_methoxy>  (178) 
0

>  <fr_morpholine>  (178) 
0

>  <fr_nitrile>  (178) 
0

>  <fr_nitro>  (178) 
0

>  <fr_nitro_arom>  (178) 
0

>  <fr_nitro_arom_nonortho>  (178) 
0

>  <fr_nitroso>  (178) 
0

>  <fr_oxazole>  (178) 
0

>  <fr_oxime>  (178) 
0

>  <fr_para_hydroxylation>  (178) 
1

>  <fr_phenol>  (178) 
1

>  <fr_phenol_noOrthoHbond>  (178) 
1

>  <fr_phos_acid>  (178) 
0

>  <fr_phos_ester>  (178) 
0

>  <fr_piperdine>  (178) 
0

>  <fr_piperzine>  (178) 
0

>  <fr_priamide>  (178) 
0

>  <fr_prisulfonamd>  (178) 
0

>  <fr_pyridine>  (178) 
0

>  <fr_quatN>  (178) 
0

>  <fr_sulfide>  (178) 
0

>  <fr_sulfonamd>  (178) 
0

>  <fr_sulfone>  (178) 
0

>  <fr_term_acetylene>  (178) 
0

>  <fr_tetrazole>  (178) 
0

>  <fr_thiazole>  (178) 
0

>  <fr_thiocyan>  (178) 
0

>  <fr_thiophene>  (178) 
0

>  <fr_unbrch_alkane>  (178) 
0

>  <fr_urea>  (178) 
0

>  <NP-Likeness>  (178) 
0.416936

$$$$
IPH
     RDKit          3D

  0  0  0  0  0  0  0  0  0  0999 V3000
M  V30 BEGIN CTAB
M  V30 COUNTS 13 13 0 0 0
M  V30 BEGIN ATOM
M  V30 1 O -0.454142 -1.483578 2.110497 0
M  V30 2 C 0.479580 -0.914396 1.251783 0
M  V30 3 C 0.127632 -0.886484 -0.088635 0
M  V30 4 C 1.046102 -0.324565 -0.947294 0
M  V30 5 C 2.250248 0.185169 -0.515252 0
M  V30 6 C 2.591455 0.152360 0.823725 0
M  V30 7 C 1.669811 -0.413983 1.702388 0
M  V30 8 H -1.087098 -0.899565 2.655535 0
M  V30 9 H -0.805620 -1.272334 -0.486694 0
M  V30 10 H 0.864439 -0.258777 -1.991873 0
M  V30 11 H 2.950263 0.615989 -1.187223 0
M  V30 12 H 3.504859 0.529840 1.214471 0
M  V30 13 H 1.905136 -0.455971 2.758720 0
M  V30 END ATOM
M  V30 BEGIN BOND
M  V30 1 1 1 2
M  V30 2 2 2 3
M  V30 3 1 3 4
M  V30 4 2 4 5
M  V30 5 1 5 6
M  V30 6 2 6 7
M  V30 7 1 7 2
M  V30 8 1 1 8
M  V30 9 1 3 9
M  V30 10 1 4 10
M  V30 11 1 5 11
M  V30 12 1 6 12
M  V30 13 1 7 13
M  V30 END BOND
M  V30 END CTAB
M  END
>  <Dataset>  (179) 
PDB

>  <Ligand_Instance>  (179) 
6Z44_IPH_A_401

>  <PDB_ID>  (179) 
6Z44

>  <Standardized_SMILES>  (179) 
[H]OC1=C([H])C([H])=C([H])C([H])=C1[H]

>  <Name>  (179) 
PHENOL

>  <Pocket>  (179) 
A

>  <ATP_Site>  (179) 
1.0

>  <Peripheral>  (179) 
0.0

>  <Num_H_Atoms_ProtBoundConf>  (179) 
6.0

>  <Num_Resolved_Atoms>  (179) 
7.0

>  <Num_Not_Resolved_Atoms>  (179) 
0.0

>  <2D_Mol_H>  (179) 
<rdkit.Chem.rdchem.Mol object at 0x72a238df0510>

>  <MW>  (179) 
94.113

>  <HBA>  (179) 
1

>  <HBD>  (179) 
1

>  <LogP>  (179) 
1.3922

>  <NRB>  (179) 
1

>  <TPSA>  (179) 
20.23

>  <Num_Heavy_Atoms>  (179) 
7

>  <Ro5>  (179) 
[True, True, True, True, True, True]

>  <Ro5_Fulfilled>  (179) 
True

>  <Ro3>  (179) 
[True, True, True, True]

>  <Ro3_Fulfilled>  (179) 
True

>  <Fsp3>  (179) 
0.0

>  <Fsp3_0.42>  (179) 
False

>  <Fsp3_0.45>  (179) 
False

>  <Stereogenic_Carbons>  (179) 
0

>  <C_Atoms>  (179) 
6

>  <FCStereo>  (179) 
0.0

>  <SPS>  (179) 
60

>  <nSPS>  (179) 
8.571429

>  <PBF>  (179) 
0.133804

>  <PBF_0.6>  (179) 
False

>  <nPBF>  (179) 
0.019115

>  <nPBF_0.016>  (179) 
True

>  <PMI1>  (179) 
88.420561

>  <PMI2>  (179) 
191.253318

>  <PMI3>  (179) 
278.249689

>  <NPR1>  (179) 
0.317774

>  <NPR2>  (179) 
0.687344

>  <Sum_NPR>  (179) 
1.005118

>  <Sum_NPR_1.07>  (179) 
False

>  <Sum_NPR_1.2>  (179) 
False

>  <MaxAbsEStateIndex>  (179) 
8.632222

>  <MaxEStateIndex>  (179) 
8.632222

>  <MinAbsEStateIndex>  (179) 
0.321759

>  <MinEStateIndex>  (179) 
0.321759

>  <qed>  (179) 
0.51473

>  <MolWt>  (179) 
94.113

>  <HeavyAtomMolWt>  (179) 
88.065

>  <ExactMolWt>  (179) 
94.041865

>  <NumValenceElectrons>  (179) 
36

>  <NumRadicalElectrons>  (179) 
0

>  <MaxPartialCharge>  (179) 
0.115075

>  <MinPartialCharge>  (179) 
-0.507967

>  <MaxAbsPartialCharge>  (179) 
0.507967

>  <MinAbsPartialCharge>  (179) 
0.115075

>  <FpDensityMorgan1>  (179) 
1.0

>  <FpDensityMorgan2>  (179) 
1.571429

>  <FpDensityMorgan3>  (179) 
1.857143

>  <BCUT2D_MWHI>  (179) 
16.25462

>  <BCUT2D_MWLOW>  (179) 
10.346234

>  <BCUT2D_CHGHI>  (179) 
1.743219

>  <BCUT2D_CHGLO>  (179) 
-1.819354

>  <BCUT2D_LOGPHI>  (179) 
2.022574

>  <BCUT2D_LOGPLOW>  (179) 
-1.559499

>  <BCUT2D_MRHI>  (179) 
5.17974

>  <BCUT2D_MRLOW>  (179) 
0.475117

>  <AvgIpc>  (179) 
1.685616

>  <BalabanJ>  (179) 
3.021465

>  <BertzCT>  (179) 
134.10737

>  <Chi0>  (179) 
5.112884

>  <Chi0n>  (179) 
3.833965

>  <Chi0v>  (179) 
3.833965

>  <Chi1>  (179) 
3.393847

>  <Chi1n>  (179) 
2.13429

>  <Chi1v>  (179) 
2.13429

>  <Chi2n>  (179) 
1.335549

>  <Chi2v>  (179) 
1.335549

>  <Chi3n>  (179) 
0.756194

>  <Chi3v>  (179) 
0.756194

>  <Chi4n>  (179) 
0.427994

>  <Chi4v>  (179) 
0.427994

>  <HallKierAlpha>  (179) 
-0.98

>  <Ipc>  (179) 
47.197253

>  <Kappa1>  (179) 
4.186113

>  <Kappa2>  (179) 
1.646196

>  <Kappa3>  (179) 
0.929059

>  <LabuteASA>  (179) 
42.225637

>  <PEOE_VSA1>  (179) 
5.106527

>  <PEOE_VSA10>  (179) 
5.749512

>  <PEOE_VSA11>  (179) 
0.0

>  <PEOE_VSA12>  (179) 
0.0

>  <PEOE_VSA13>  (179) 
0.0

>  <PEOE_VSA14>  (179) 
0.0

>  <PEOE_VSA2>  (179) 
0.0

>  <PEOE_VSA3>  (179) 
0.0

>  <PEOE_VSA4>  (179) 
0.0

>  <PEOE_VSA5>  (179) 
0.0

>  <PEOE_VSA6>  (179) 
18.199101

>  <PEOE_VSA7>  (179) 
12.132734

>  <PEOE_VSA8>  (179) 
0.0

>  <PEOE_VSA9>  (179) 
0.0

>  <SMR_VSA1>  (179) 
5.106527

>  <SMR_VSA10>  (179) 
0.0

>  <SMR_VSA2>  (179) 
0.0

>  <SMR_VSA3>  (179) 
0.0

>  <SMR_VSA4>  (179) 
0.0

>  <SMR_VSA5>  (179) 
0.0

>  <SMR_VSA6>  (179) 
0.0

>  <SMR_VSA7>  (179) 
30.331835

>  <SMR_VSA8>  (179) 
0.0

>  <SMR_VSA9>  (179) 
5.749512

>  <SlogP_VSA1>  (179) 
0.0

>  <SlogP_VSA10>  (179) 
0.0

>  <SlogP_VSA11>  (179) 
5.749512

>  <SlogP_VSA12>  (179) 
0.0

>  <SlogP_VSA2>  (179) 
5.106527

>  <SlogP_VSA3>  (179) 
0.0

>  <SlogP_VSA4>  (179) 
0.0

>  <SlogP_VSA5>  (179) 
0.0

>  <SlogP_VSA6>  (179) 
30.331835

>  <SlogP_VSA7>  (179) 
0.0

>  <SlogP_VSA8>  (179) 
0.0

>  <SlogP_VSA9>  (179) 
0.0

>  <EState_VSA1>  (179) 
0.0

>  <EState_VSA10>  (179) 
0.0

>  <EState_VSA11>  (179) 
0.0

>  <EState_VSA2>  (179) 
0.0

>  <EState_VSA3>  (179) 
5.749512

>  <EState_VSA4>  (179) 
0.0

>  <EState_VSA5>  (179) 
0.0

>  <EState_VSA6>  (179) 
24.265468

>  <EState_VSA7>  (179) 
6.066367

>  <EState_VSA8>  (179) 
0.0

>  <EState_VSA9>  (179) 
5.106527

>  <VSA_EState1>  (179) 
0.0

>  <VSA_EState10>  (179) 
0.0

>  <VSA_EState2>  (179) 
0.0

>  <VSA_EState3>  (179) 
8.632222

>  <VSA_EState4>  (179) 
0.0

>  <VSA_EState5>  (179) 
0.321759

>  <VSA_EState6>  (179) 
8.712685

>  <VSA_EState7>  (179) 
0.0

>  <VSA_EState8>  (179) 
0.0

>  <VSA_EState9>  (179) 
0.0

>  <FractionCSP3>  (179) 
0.0

>  <HeavyAtomCount>  (179) 
7

>  <NHOHCount>  (179) 
1

>  <NOCount>  (179) 
1

>  <NumAliphaticCarbocycles>  (179) 
0

>  <NumAliphaticHeterocycles>  (179) 
0

>  <NumAliphaticRings>  (179) 
0

>  <NumAromaticCarbocycles>  (179) 
1

>  <NumAromaticHeterocycles>  (179) 
0

>  <NAR>  (179) 
1

>  <NumHAcceptors>  (179) 
1

>  <NumHDonors>  (179) 
1

>  <NumHeteroatoms>  (179) 
1

>  <NumRotatableBonds>  (179) 
0

>  <NumSaturatedCarbocycles>  (179) 
0

>  <NumSaturatedHeterocycles>  (179) 
0

>  <NumSaturatedRings>  (179) 
0

>  <RingCount>  (179) 
1

>  <MolLogP>  (179) 
1.3922

>  <MolMR>  (179) 
28.1068

>  <fr_Al_COO>  (179) 
0

>  <fr_Al_OH>  (179) 
0

>  <fr_Al_OH_noTert>  (179) 
0

>  <fr_ArN>  (179) 
0

>  <fr_Ar_COO>  (179) 
0

>  <fr_Ar_N>  (179) 
0

>  <fr_Ar_NH>  (179) 
0

>  <fr_Ar_OH>  (179) 
1

>  <fr_COO>  (179) 
0

>  <fr_COO2>  (179) 
0

>  <fr_C_O>  (179) 
0

>  <fr_C_O_noCOO>  (179) 
0

>  <fr_C_S>  (179) 
0

>  <fr_HOCCN>  (179) 
0

>  <fr_Imine>  (179) 
0

>  <fr_NH0>  (179) 
0

>  <fr_NH1>  (179) 
0

>  <fr_NH2>  (179) 
0

>  <fr_N_O>  (179) 
0

>  <fr_Ndealkylation1>  (179) 
0

>  <fr_Ndealkylation2>  (179) 
0

>  <fr_Nhpyrrole>  (179) 
0

>  <fr_SH>  (179) 
0

>  <fr_aldehyde>  (179) 
0

>  <fr_alkyl_carbamate>  (179) 
0

>  <fr_alkyl_halide>  (179) 
0

>  <fr_allylic_oxid>  (179) 
0

>  <fr_amide>  (179) 
0

>  <fr_amidine>  (179) 
0

>  <fr_aniline>  (179) 
0

>  <fr_aryl_methyl>  (179) 
0

>  <fr_azide>  (179) 
0

>  <fr_azo>  (179) 
0

>  <fr_barbitur>  (179) 
0

>  <fr_benzene>  (179) 
1

>  <fr_benzodiazepine>  (179) 
0

>  <fr_bicyclic>  (179) 
0

>  <fr_diazo>  (179) 
0

>  <fr_dihydropyridine>  (179) 
0

>  <fr_epoxide>  (179) 
0

>  <fr_ester>  (179) 
0

>  <fr_ether>  (179) 
0

>  <fr_furan>  (179) 
0

>  <fr_guanido>  (179) 
0

>  <fr_halogen>  (179) 
0

>  <fr_hdrzine>  (179) 
0

>  <fr_hdrzone>  (179) 
0

>  <fr_imidazole>  (179) 
0

>  <fr_imide>  (179) 
0

>  <fr_isocyan>  (179) 
0

>  <fr_isothiocyan>  (179) 
0

>  <fr_ketone>  (179) 
0

>  <fr_ketone_Topliss>  (179) 
0

>  <fr_lactam>  (179) 
0

>  <fr_lactone>  (179) 
0

>  <fr_methoxy>  (179) 
0

>  <fr_morpholine>  (179) 
0

>  <fr_nitrile>  (179) 
0

>  <fr_nitro>  (179) 
0

>  <fr_nitro_arom>  (179) 
0

>  <fr_nitro_arom_nonortho>  (179) 
0

>  <fr_nitroso>  (179) 
0

>  <fr_oxazole>  (179) 
0

>  <fr_oxime>  (179) 
0

>  <fr_para_hydroxylation>  (179) 
1

>  <fr_phenol>  (179) 
1

>  <fr_phenol_noOrthoHbond>  (179) 
1

>  <fr_phos_acid>  (179) 
0

>  <fr_phos_ester>  (179) 
0

>  <fr_piperdine>  (179) 
0

>  <fr_piperzine>  (179) 
0

>  <fr_priamide>  (179) 
0

>  <fr_prisulfonamd>  (179) 
0

>  <fr_pyridine>  (179) 
0

>  <fr_quatN>  (179) 
0

>  <fr_sulfide>  (179) 
0

>  <fr_sulfonamd>  (179) 
0

>  <fr_sulfone>  (179) 
0

>  <fr_term_acetylene>  (179) 
0

>  <fr_tetrazole>  (179) 
0

>  <fr_thiazole>  (179) 
0

>  <fr_thiocyan>  (179) 
0

>  <fr_thiophene>  (179) 
0

>  <fr_unbrch_alkane>  (179) 
0

>  <fr_urea>  (179) 
0

>  <NP-Likeness>  (179) 
0.416936

$$$$
IQB
     RDKit          3D

  0  0  0  0  0  0  0  0  0  0999 V3000
M  V30 BEGIN CTAB
M  V30 COUNTS 48 50 0 0 0
M  V30 BEGIN ATOM
M  V30 1 C 1.497704 -3.762850 0.287566 0
M  V30 2 N 2.645787 -4.490648 0.266808 0
M  V30 3 C 3.765924 -3.981937 -0.276434 0
M  V30 4 C 3.833633 -2.722876 -0.836348 0
M  V30 5 C 4.975077 -2.188357 -1.396903 0
M  V30 6 C 5.029591 -0.927092 -1.953980 0
M  V30 7 C 3.855296 -0.189507 -1.929814 0
M  V30 8 C 2.669753 -0.665007 -1.381792 0
M  V30 9 S 1.190382 0.244480 -1.342804 0
M  V30 10 O 0.111194 -0.281737 -2.202187 0
M  V30 11 O 1.519306 1.643099 -1.849627 0
M  V30 12 N 0.650993 0.488729 0.299583 0
M  V30 13 C 1.640516 1.247569 1.039201 0
M  V30 14 C 1.244799 1.498395 2.467121 0
M  V30 15 N 0.018597 2.239539 2.599870 0 CHG=1 VAL=4
M  V30 16 C -0.936287 1.555995 3.482665 0
M  V30 17 C -1.789728 0.599860 2.732980 0
M  V30 18 C -3.107125 0.643607 2.645552 0
M  V30 19 C -3.919485 -0.306445 1.903843 0
M  V30 20 C -3.394004 -1.366134 1.204829 0
M  V30 21 C -4.237814 -2.212030 0.533721 0
M  V30 22 C -5.606737 -2.092254 0.495492 0
M  V30 23 Br -6.759738 -3.278860 -0.443143 0
M  V30 24 C -6.117713 -1.024584 1.201430 0
M  V30 25 C -5.287320 -0.159850 1.884580 0
M  V30 26 C 2.668589 -1.947359 -0.831145 0
M  V30 27 C 1.545182 -2.506600 -0.265267 0
M  V30 28 H 0.577034 -4.140059 0.716524 0
M  V30 29 H 4.672023 -4.603407 -0.272616 0
M  V30 30 H 5.882551 -2.800676 -1.397422 0
M  V30 31 H 5.945293 -0.544296 -2.383959 0
M  V30 32 H 3.844980 0.814805 -2.357810 0
M  V30 33 H -0.239488 1.031467 0.282140 0
M  V30 34 H 1.877977 2.216371 0.556851 0
M  V30 35 H 2.580749 0.632450 1.085227 0
M  V30 36 H 1.092641 0.530743 2.986744 0
M  V30 37 H 2.060278 2.056963 2.956910 0
M  V30 38 H -0.400824 2.496318 1.687847 0
M  V30 39 H 0.200626 3.167879 3.087650 0
M  V30 40 H -1.563503 2.300306 4.013482 0
M  V30 41 H -0.303841 0.981558 4.198332 0
M  V30 42 H -1.259325 -0.175820 2.234676 0
M  V30 43 H -3.572170 1.459933 3.178475 0
M  V30 44 H -2.332939 -1.537338 1.179343 0
M  V30 45 H -3.784995 -3.050113 -0.015836 0
M  V30 46 H -7.192169 -0.822672 1.247373 0
M  V30 47 H -5.707767 0.677925 2.436737 0
M  V30 48 H 0.660524 -1.916693 -0.261740 0
M  V30 END ATOM
M  V30 BEGIN BOND
M  V30 1 2 1 2
M  V30 2 1 2 3
M  V30 3 2 3 4
M  V30 4 1 4 5
M  V30 5 2 5 6
M  V30 6 1 6 7
M  V30 7 2 7 8
M  V30 8 1 8 9
M  V30 9 2 9 10
M  V30 10 2 9 11
M  V30 11 1 9 12
M  V30 12 1 12 13
M  V30 13 1 13 14
M  V30 14 1 14 15
M  V30 15 1 15 16
M  V30 16 1 16 17
M  V30 17 2 17 18
M  V30 18 1 18 19
M  V30 19 2 19 20
M  V30 20 1 20 21
M  V30 21 2 21 22
M  V30 22 1 22 23
M  V30 23 1 22 24
M  V30 24 2 24 25
M  V30 25 1 8 26
M  V30 26 2 26 27
M  V30 27 1 27 1
M  V30 28 1 26 4
M  V30 29 1 25 19
M  V30 30 1 1 28
M  V30 31 1 3 29
M  V30 32 1 5 30
M  V30 33 1 6 31
M  V30 34 1 7 32
M  V30 35 1 12 33
M  V30 36 1 13 34
M  V30 37 1 13 35
M  V30 38 1 14 36
M  V30 39 1 14 37
M  V30 40 1 15 38
M  V30 41 1 15 39
M  V30 42 1 16 40
M  V30 43 1 16 41
M  V30 44 1 17 42
M  V30 45 1 18 43
M  V30 46 1 20 44
M  V30 47 1 21 45
M  V30 48 1 24 46
M  V30 49 1 25 47
M  V30 50 1 27 48
M  V30 END BOND
M  V30 END CTAB
M  END
>  <Dataset>  (180) 
PDB

>  <Ligand_Instance>  (180) 
3VQH_IQB_A_401

>  <PDB_ID>  (180) 
3VQH

>  <Standardized_SMILES>  (180) 
[H]C1=NC([H])=C2C([H])=C([H])C([H])=C(S(=O)(=O)N([H])C([H])([H])C([H])([H])[N+]([H])([H])C([H])([H])/C([H])=C(\[H])C3=C([H])C([H])=C(Br)C([H])=C3[H])C2=C1[H]

>  <Name>  (180) 
N-[2-(4-BROMOCINNAMYLAMINO)ETHYL]-5-ISOQUINOLINE SULFONAMIDE

>  <Pocket>  (180) 
A

>  <ATP_Site>  (180) 
1.0

>  <Peripheral>  (180) 
0.0

>  <Num_H_Atoms_ProtBoundConf>  (180) 
21.0

>  <Num_Resolved_Atoms>  (180) 
27.0

>  <Num_Not_Resolved_Atoms>  (180) 
0.0

>  <2D_Mol_H>  (180) 
<rdkit.Chem.rdchem.Mol object at 0x72a238df05f0>

>  <MW>  (180) 
447.378

>  <HBA>  (180) 
3

>  <HBD>  (180) 
2

>  <LogP>  (180) 
2.5524

>  <NRB>  (180) 
8

>  <TPSA>  (180) 
75.67

>  <Num_Heavy_Atoms>  (180) 
27

>  <Ro5>  (180) 
[True, True, True, True, True, True]

>  <Ro5_Fulfilled>  (180) 
True

>  <Ro3>  (180) 
[False, True, True, True]

>  <Ro3_Fulfilled>  (180) 
True

>  <Fsp3>  (180) 
0.15

>  <Fsp3_0.42>  (180) 
False

>  <Fsp3_0.45>  (180) 
False

>  <Stereogenic_Carbons>  (180) 
0

>  <C_Atoms>  (180) 
20

>  <FCStereo>  (180) 
0.0

>  <SPS>  (180) 
325

>  <nSPS>  (180) 
12.037037

>  <PBF>  (180) 
0.956663

>  <PBF_0.6>  (180) 
True

>  <nPBF>  (180) 
0.035432

>  <nPBF_0.016>  (180) 
True

>  <PMI1>  (180) 
2537.020472

>  <PMI2>  (180) 
7757.48238

>  <PMI3>  (180) 
9036.817323

>  <NPR1>  (180) 
0.280743

>  <NPR2>  (180) 
0.858431

>  <Sum_NPR>  (180) 
1.139174

>  <Sum_NPR_1.07>  (180) 
True

>  <Sum_NPR_1.2>  (180) 
False

>  <MaxAbsEStateIndex>  (180) 
12.584293

>  <MaxEStateIndex>  (180) 
12.584293

>  <MinAbsEStateIndex>  (180) 
0.289384

>  <MinEStateIndex>  (180) 
-3.546934

>  <qed>  (180) 
0.521571

>  <MolWt>  (180) 
447.378

>  <HeavyAtomMolWt>  (180) 
426.21

>  <ExactMolWt>  (180) 
446.053236

>  <NumValenceElectrons>  (180) 
140

>  <NumRadicalElectrons>  (180) 
0

>  <MaxPartialCharge>  (180) 
0.240888

>  <MinPartialCharge>  (180) 
-0.341907

>  <MaxAbsPartialCharge>  (180) 
0.341907

>  <MinAbsPartialCharge>  (180) 
0.240888

>  <FpDensityMorgan1>  (180) 
1.111111

>  <FpDensityMorgan2>  (180) 
1.925926

>  <FpDensityMorgan3>  (180) 
2.740741

>  <BCUT2D_MWHI>  (180) 
79.918731

>  <BCUT2D_MWLOW>  (180) 
10.168344

>  <BCUT2D_CHGHI>  (180) 
2.1612

>  <BCUT2D_CHGLO>  (180) 
-2.084034

>  <BCUT2D_LOGPHI>  (180) 
2.210245

>  <BCUT2D_LOGPLOW>  (180) 
-2.849407

>  <BCUT2D_MRHI>  (180) 
9.102999

>  <BCUT2D_MRLOW>  (180) 
-0.643311

>  <AvgIpc>  (180) 
2.678741

>  <BalabanJ>  (180) 
1.486225

>  <BertzCT>  (180) 
1029.285997

>  <Chi0>  (180) 
19.114673

>  <Chi0n>  (180) 
14.676797

>  <Chi0v>  (180) 
17.07929

>  <Chi1>  (180) 
13.06048

>  <Chi1n>  (180) 
8.623336

>  <Chi1v>  (180) 
10.899498

>  <Chi2n>  (180) 
6.017707

>  <Chi2v>  (180) 
8.668757

>  <Chi3n>  (180) 
4.05385

>  <Chi3v>  (180) 
6.101705

>  <Chi4n>  (180) 
2.69236

>  <Chi4v>  (180) 
4.231902

>  <HallKierAlpha>  (180) 
-2.06

>  <Ipc>  (180) 
1377365.659771

>  <Kappa1>  (180) 
19.694709

>  <Kappa2>  (180) 
9.232455

>  <Kappa3>  (180) 
5.460286

>  <LabuteASA>  (180) 
167.252965

>  <PEOE_VSA1>  (180) 
5.316789

>  <PEOE_VSA10>  (180) 
0.0

>  <PEOE_VSA11>  (180) 
0.0

>  <PEOE_VSA12>  (180) 
10.023291

>  <PEOE_VSA13>  (180) 
0.0

>  <PEOE_VSA14>  (180) 
0.0

>  <PEOE_VSA2>  (180) 
4.983979

>  <PEOE_VSA3>  (180) 
13.139892

>  <PEOE_VSA4>  (180) 
0.0

>  <PEOE_VSA5>  (180) 
0.0

>  <PEOE_VSA6>  (180) 
46.271432

>  <PEOE_VSA7>  (180) 
35.90494

>  <PEOE_VSA8>  (180) 
27.638855

>  <PEOE_VSA9>  (180) 
24.529753

>  <SMR_VSA1>  (180) 
13.734586

>  <SMR_VSA10>  (180) 
42.801704

>  <SMR_VSA2>  (180) 
0.0

>  <SMR_VSA3>  (180) 
9.706073

>  <SMR_VSA4>  (180) 
0.0

>  <SMR_VSA5>  (180) 
4.895483

>  <SMR_VSA6>  (180) 
19.634269

>  <SMR_VSA7>  (180) 
77.036815

>  <SMR_VSA8>  (180) 
0.0

>  <SMR_VSA9>  (180) 
0.0

>  <SlogP_VSA1>  (180) 
10.038883

>  <SlogP_VSA10>  (180) 
0.0

>  <SlogP_VSA11>  (180) 
0.0

>  <SlogP_VSA12>  (180) 
15.929944

>  <SlogP_VSA2>  (180) 
33.036045

>  <SlogP_VSA3>  (180) 
10.023291

>  <SlogP_VSA4>  (180) 
0.0

>  <SlogP_VSA5>  (180) 
5.563451

>  <SlogP_VSA6>  (180) 
76.368847

>  <SlogP_VSA7>  (180) 
0.0

>  <SlogP_VSA8>  (180) 
16.848469

>  <SlogP_VSA9>  (180) 
0.0

>  <EState_VSA1>  (180) 
10.023291

>  <EState_VSA10>  (180) 
8.417797

>  <EState_VSA11>  (180) 
0.0

>  <EState_VSA2>  (180) 
4.895483

>  <EState_VSA3>  (180) 
18.475737

>  <EState_VSA4>  (180) 
21.967152

>  <EState_VSA5>  (180) 
0.0

>  <EState_VSA6>  (180) 
30.592788

>  <EState_VSA7>  (180) 
30.331835

>  <EState_VSA8>  (180) 
43.104846

>  <EState_VSA9>  (180) 
0.0

>  <VSA_EState1>  (180) 
28.898552

>  <VSA_EState10>  (180) 
3.412341

>  <VSA_EState2>  (180) 
4.3265

>  <VSA_EState3>  (180) 
3.552476

>  <VSA_EState4>  (180) 
1.136804

>  <VSA_EState5>  (180) 
0.0

>  <VSA_EState6>  (180) 
15.008575

>  <VSA_EState7>  (180) 
7.388385

>  <VSA_EState8>  (180) 
1.8233

>  <VSA_EState9>  (180) 
-3.546934

>  <FractionCSP3>  (180) 
0.15

>  <HeavyAtomCount>  (180) 
27

>  <NHOHCount>  (180) 
3

>  <NOCount>  (180) 
5

>  <NumAliphaticCarbocycles>  (180) 
0

>  <NumAliphaticHeterocycles>  (180) 
0

>  <NumAliphaticRings>  (180) 
0

>  <NumAromaticCarbocycles>  (180) 
2

>  <NumAromaticHeterocycles>  (180) 
1

>  <NAR>  (180) 
3

>  <NumHAcceptors>  (180) 
3

>  <NumHDonors>  (180) 
2

>  <NumHeteroatoms>  (180) 
7

>  <NumRotatableBonds>  (180) 
8

>  <NumSaturatedCarbocycles>  (180) 
0

>  <NumSaturatedHeterocycles>  (180) 
0

>  <NumSaturatedRings>  (180) 
0

>  <RingCount>  (180) 
3

>  <MolLogP>  (180) 
2.5524

>  <MolMR>  (180) 
111.7669

>  <fr_Al_COO>  (180) 
0

>  <fr_Al_OH>  (180) 
0

>  <fr_Al_OH_noTert>  (180) 
0

>  <fr_ArN>  (180) 
0

>  <fr_Ar_COO>  (180) 
0

>  <fr_Ar_N>  (180) 
1

>  <fr_Ar_NH>  (180) 
0

>  <fr_Ar_OH>  (180) 
0

>  <fr_COO>  (180) 
0

>  <fr_COO2>  (180) 
0

>  <fr_C_O>  (180) 
0

>  <fr_C_O_noCOO>  (180) 
0

>  <fr_C_S>  (180) 
0

>  <fr_HOCCN>  (180) 
0

>  <fr_Imine>  (180) 
0

>  <fr_NH0>  (180) 
1

>  <fr_NH1>  (180) 
1

>  <fr_NH2>  (180) 
1

>  <fr_N_O>  (180) 
0

>  <fr_Ndealkylation1>  (180) 
0

>  <fr_Ndealkylation2>  (180) 
0

>  <fr_Nhpyrrole>  (180) 
0

>  <fr_SH>  (180) 
0

>  <fr_aldehyde>  (180) 
0

>  <fr_alkyl_carbamate>  (180) 
0

>  <fr_alkyl_halide>  (180) 
0

>  <fr_allylic_oxid>  (180) 
0

>  <fr_amide>  (180) 
0

>  <fr_amidine>  (180) 
0

>  <fr_aniline>  (180) 
0

>  <fr_aryl_methyl>  (180) 
0

>  <fr_azide>  (180) 
0

>  <fr_azo>  (180) 
0

>  <fr_barbitur>  (180) 
0

>  <fr_benzene>  (180) 
2

>  <fr_benzodiazepine>  (180) 
0

>  <fr_bicyclic>  (180) 
1

>  <fr_diazo>  (180) 
0

>  <fr_dihydropyridine>  (180) 
0

>  <fr_epoxide>  (180) 
0

>  <fr_ester>  (180) 
0

>  <fr_ether>  (180) 
0

>  <fr_furan>  (180) 
0

>  <fr_guanido>  (180) 
0

>  <fr_halogen>  (180) 
1

>  <fr_hdrzine>  (180) 
0

>  <fr_hdrzone>  (180) 
0

>  <fr_imidazole>  (180) 
0

>  <fr_imide>  (180) 
0

>  <fr_isocyan>  (180) 
0

>  <fr_isothiocyan>  (180) 
0

>  <fr_ketone>  (180) 
0

>  <fr_ketone_Topliss>  (180) 
0

>  <fr_lactam>  (180) 
0

>  <fr_lactone>  (180) 
0

>  <fr_methoxy>  (180) 
0

>  <fr_morpholine>  (180) 
0

>  <fr_nitrile>  (180) 
0

>  <fr_nitro>  (180) 
0

>  <fr_nitro_arom>  (180) 
0

>  <fr_nitro_arom_nonortho>  (180) 
0

>  <fr_nitroso>  (180) 
0

>  <fr_oxazole>  (180) 
0

>  <fr_oxime>  (180) 
0

>  <fr_para_hydroxylation>  (180) 
0

>  <fr_phenol>  (180) 
0

>  <fr_phenol_noOrthoHbond>  (180) 
0

>  <fr_phos_acid>  (180) 
0

>  <fr_phos_ester>  (180) 
0

>  <fr_piperdine>  (180) 
0

>  <fr_piperzine>  (180) 
0

>  <fr_priamide>  (180) 
0

>  <fr_prisulfonamd>  (180) 
0

>  <fr_pyridine>  (180) 
1

>  <fr_quatN>  (180) 
1

>  <fr_sulfide>  (180) 
0

>  <fr_sulfonamd>  (180) 
1

>  <fr_sulfone>  (180) 
0

>  <fr_term_acetylene>  (180) 
0

>  <fr_tetrazole>  (180) 
0

>  <fr_thiazole>  (180) 
0

>  <fr_thiocyan>  (180) 
0

>  <fr_thiophene>  (180) 
0

>  <fr_unbrch_alkane>  (180) 
0

>  <fr_urea>  (180) 
0

>  <NP-Likeness>  (180) 
-0.949338

$$$$
IQP
     RDKit          3D

  0  0  0  0  0  0  0  0  0  0999 V3000
M  V30 BEGIN CTAB
M  V30 COUNTS 38 40 0 0 0
M  V30 BEGIN ATOM
M  V30 1 C -1.806493 -1.420815 3.556273 0
M  V30 2 N -1.733037 -2.585746 4.261620 0
M  V30 3 C -1.067367 -3.654766 3.740958 0
M  V30 4 C -0.452723 -3.587898 2.493335 0
M  V30 5 C 0.200221 -4.667403 1.942048 0
M  V30 6 C 0.781937 -4.596110 0.696482 0
M  V30 7 C 0.668652 -3.386050 0.048526 0
M  V30 8 C 0.031697 -2.214748 0.503532 0
M  V30 9 S 0.057420 -0.764664 -0.406490 0
M  V30 10 O 0.601047 -1.151030 -1.790957 0
M  V30 11 O -1.323200 -0.278054 -0.802519 0
M  V30 12 N 1.080691 0.430488 0.122832 0
M  V30 13 C 1.001675 1.061473 1.368530 0
M  V30 14 C 0.038138 2.229096 1.410892 0
M  V30 15 N -0.453786 2.669521 0.161840 0 CHG=1 VAL=4
M  V30 16 C 0.325465 2.441265 -0.999296 0
M  V30 17 C 1.426452 1.440806 -0.851586 0 CFG=2
M  V30 18 C 1.949320 0.928149 -2.140369 0
M  V30 19 C -0.501680 -2.443575 1.758576 0
M  V30 20 C -1.186835 -1.388125 2.324007 0
M  V30 21 H -2.334064 -0.567349 3.963429 0
M  V30 22 H -0.980400 -4.609788 4.266212 0
M  V30 23 H 0.272005 -5.602119 2.477388 0
M  V30 24 H 1.289544 -5.417301 0.252347 0
M  V30 25 H 1.142493 -3.353708 -0.947372 0
M  V30 26 H 0.985132 0.433172 2.277547 0
M  V30 27 H 2.017221 1.579746 1.486989 0
M  V30 28 H 0.429507 3.086868 1.993892 0
M  V30 29 H -0.852751 1.872616 2.005969 0
M  V30 30 H -1.452107 2.348373 -0.037346 0
M  V30 31 H -0.595675 3.727915 0.219264 0
M  V30 32 H 0.829212 3.383918 -1.371752 0
M  V30 33 H -0.334365 2.167189 -1.877272 0
M  V30 34 H 2.281116 1.999503 -0.361780 0
M  V30 35 H 2.637900 1.715547 -2.561109 0
M  V30 36 H 1.190938 0.785566 -2.935817 0
M  V30 37 H 2.592825 0.043387 -1.965215 0
M  V30 38 H -1.281404 -0.476481 1.798571 0
M  V30 END ATOM
M  V30 BEGIN BOND
M  V30 1 2 1 2
M  V30 2 1 2 3
M  V30 3 2 3 4
M  V30 4 1 4 5
M  V30 5 2 5 6
M  V30 6 1 6 7
M  V30 7 2 7 8
M  V30 8 1 8 9
M  V30 9 2 9 10
M  V30 10 2 9 11
M  V30 11 1 9 12
M  V30 12 1 12 13
M  V30 13 1 13 14
M  V30 14 1 14 15
M  V30 15 1 15 16
M  V30 16 1 16 17
M  V30 17 1 17 18
M  V30 18 1 8 19
M  V30 19 2 19 20
M  V30 20 1 20 1
M  V30 21 1 19 4
M  V30 22 1 17 12
M  V30 23 1 1 21
M  V30 24 1 3 22
M  V30 25 1 5 23
M  V30 26 1 6 24
M  V30 27 1 7 25
M  V30 28 1 13 26
M  V30 29 1 13 27
M  V30 30 1 14 28
M  V30 31 1 14 29
M  V30 32 1 15 30
M  V30 33 1 15 31
M  V30 34 1 16 32
M  V30 35 1 16 33
M  V30 36 1 17 34 CFG=1
M  V30 37 1 18 35
M  V30 38 1 18 36
M  V30 39 1 18 37
M  V30 40 1 20 38
M  V30 END BOND
M  V30 END CTAB
M  END
>  <Dataset>  (181) 
PDB

>  <Ligand_Instance>  (181) 
5LCU_IQP_A_401

>  <PDB_ID>  (181) 
5LCU

>  <Standardized_SMILES>  (181) 
[H]C1=NC([H])=C2C([H])=C([H])C([H])=C(S(=O)(=O)N3C([H])([H])C([H])([H])[N+]([H])([H])C([H])([H])[C@]3([H])C([H])([H])[H])C2=C1[H]

>  <Name>  (181) 
1-(5-ISOQUINOLINESULFONYL)-2-METHYLPIPERAZINE

>  <Pocket>  (181) 
A

>  <ATP_Site>  (181) 
1.0

>  <Peripheral>  (181) 
0.0

>  <Num_H_Atoms_ProtBoundConf>  (181) 
18.0

>  <Num_Resolved_Atoms>  (181) 
20.0

>  <Num_Not_Resolved_Atoms>  (181) 
0.0

>  <2D_Mol_H>  (181) 
<rdkit.Chem.rdchem.Mol object at 0x72a238df06d0>

>  <MW>  (181) 
292.384

>  <HBA>  (181) 
3

>  <HBD>  (181) 
1

>  <LogP>  (181) 
0.191

>  <NRB>  (181) 
3

>  <TPSA>  (181) 
66.88

>  <Num_Heavy_Atoms>  (181) 
20

>  <Ro5>  (181) 
[True, True, True, True, True, True]

>  <Ro5_Fulfilled>  (181) 
True

>  <Ro3>  (181) 
[True, True, True, True]

>  <Ro3_Fulfilled>  (181) 
True

>  <Fsp3>  (181) 
0.357143

>  <Fsp3_0.42>  (181) 
False

>  <Fsp3_0.45>  (181) 
False

>  <Stereogenic_Carbons>  (181) 
1

>  <C_Atoms>  (181) 
14

>  <FCStereo>  (181) 
0.071429

>  <SPS>  (181) 
423

>  <nSPS>  (181) 
21.15

>  <PBF>  (181) 
0.653829

>  <PBF_0.6>  (181) 
True

>  <nPBF>  (181) 
0.032691

>  <nPBF_0.016>  (181) 
True

>  <PMI1>  (181) 
830.145052

>  <PMI2>  (181) 
2023.482842

>  <PMI3>  (181) 
2567.420982

>  <NPR1>  (181) 
0.323338

>  <NPR2>  (181) 
0.788138

>  <Sum_NPR>  (181) 
1.111476

>  <Sum_NPR_1.07>  (181) 
True

>  <Sum_NPR_1.2>  (181) 
False

>  <MaxAbsEStateIndex>  (181) 
12.903253

>  <MaxEStateIndex>  (181) 
12.903253

>  <MinAbsEStateIndex>  (181) 
0.019299

>  <MinEStateIndex>  (181) 
-3.452269

>  <qed>  (181) 
0.859119

>  <MolWt>  (181) 
292.384

>  <HeavyAtomMolWt>  (181) 
274.24

>  <ExactMolWt>  (181) 
292.111424

>  <NumValenceElectrons>  (181) 
106

>  <NumRadicalElectrons>  (181) 
0

>  <MaxPartialCharge>  (181) 
0.243846

>  <MinPartialCharge>  (181) 
-0.343838

>  <MaxAbsPartialCharge>  (181) 
0.343838

>  <MinAbsPartialCharge>  (181) 
0.243846

>  <FpDensityMorgan1>  (181) 
1.35

>  <FpDensityMorgan2>  (181) 
2.2

>  <FpDensityMorgan3>  (181) 
3.0

>  <BCUT2D_MWHI>  (181) 
32.233428

>  <BCUT2D_MWLOW>  (181) 
10.168204

>  <BCUT2D_CHGHI>  (181) 
2.33008

>  <BCUT2D_CHGLO>  (181) 
-2.3047

>  <BCUT2D_LOGPHI>  (181) 
2.257115

>  <BCUT2D_LOGPLOW>  (181) 
-2.910992

>  <BCUT2D_MRHI>  (181) 
7.889883

>  <BCUT2D_MRLOW>  (181) 
-0.665891

>  <AvgIpc>  (181) 
2.466246

>  <BalabanJ>  (181) 
2.137974

>  <BertzCT>  (181) 
724.781365

>  <Chi0>  (181) 
14.164926

>  <Chi0n>  (181) 
11.359295

>  <Chi0v>  (181) 
12.175791

>  <Chi1>  (181) 
9.60419

>  <Chi1n>  (181) 
6.767652

>  <Chi1v>  (181) 
8.207715

>  <Chi2n>  (181) 
5.13079

>  <Chi2v>  (181) 
6.989766

>  <Chi3n>  (181) 
3.780379

>  <Chi3v>  (181) 
5.852112

>  <Chi4n>  (181) 
2.716705

>  <Chi4v>  (181) 
4.589316

>  <HallKierAlpha>  (181) 
-1.5

>  <Ipc>  (181) 
45916.573653

>  <Kappa1>  (181) 
13.481559

>  <Kappa2>  (181) 
5.121607

>  <Kappa3>  (181) 
2.194671

>  <LabuteASA>  (181) 
118.222067

>  <PEOE_VSA1>  (181) 
5.316789

>  <PEOE_VSA10>  (181) 
0.0

>  <PEOE_VSA11>  (181) 
0.0

>  <PEOE_VSA12>  (181) 
10.023291

>  <PEOE_VSA13>  (181) 
0.0

>  <PEOE_VSA14>  (181) 
0.0

>  <PEOE_VSA2>  (181) 
4.983979

>  <PEOE_VSA3>  (181) 
8.417797

>  <PEOE_VSA4>  (181) 
4.305216

>  <PEOE_VSA5>  (181) 
0.0

>  <PEOE_VSA6>  (181) 
12.132734

>  <PEOE_VSA7>  (181) 
19.056471

>  <PEOE_VSA8>  (181) 
23.166136

>  <PEOE_VSA9>  (181) 
30.571594

>  <SMR_VSA1>  (181) 
13.734586

>  <SMR_VSA10>  (181) 
20.79574

>  <SMR_VSA2>  (181) 
0.0

>  <SMR_VSA3>  (181) 
9.289195

>  <SMR_VSA4>  (181) 
0.0

>  <SMR_VSA5>  (181) 
17.861062

>  <SMR_VSA6>  (181) 
19.634269

>  <SMR_VSA7>  (181) 
36.659155

>  <SMR_VSA8>  (181) 
0.0

>  <SMR_VSA9>  (181) 
0.0

>  <SlogP_VSA1>  (181) 
5.316789

>  <SlogP_VSA10>  (181) 
0.0

>  <SlogP_VSA11>  (181) 
0.0

>  <SlogP_VSA12>  (181) 
0.0

>  <SlogP_VSA2>  (181) 
43.383102

>  <SlogP_VSA3>  (181) 
10.023291

>  <SlogP_VSA4>  (181) 
0.0

>  <SlogP_VSA5>  (181) 
6.923737

>  <SlogP_VSA6>  (181) 
41.554639

>  <SlogP_VSA7>  (181) 
0.0

>  <SlogP_VSA8>  (181) 
10.772448

>  <SlogP_VSA9>  (181) 
0.0

>  <EState_VSA1>  (181) 
10.023291

>  <EState_VSA10>  (181) 
8.417797

>  <EState_VSA11>  (181) 
0.0

>  <EState_VSA2>  (181) 
6.041841

>  <EState_VSA3>  (181) 
11.44024

>  <EState_VSA4>  (181) 
23.861961

>  <EState_VSA5>  (181) 
0.0

>  <EState_VSA6>  (181) 
34.898004

>  <EState_VSA7>  (181) 
12.990104

>  <EState_VSA8>  (181) 
10.300767

>  <EState_VSA9>  (181) 
0.0

>  <VSA_EState1>  (181) 
27.419802

>  <VSA_EState10>  (181) 
0.0

>  <VSA_EState2>  (181) 
4.430773

>  <VSA_EState3>  (181) 
3.748171

>  <VSA_EState4>  (181) 
0.0

>  <VSA_EState5>  (181) 
0.0

>  <VSA_EState6>  (181) 
7.128485

>  <VSA_EState7>  (181) 
3.329888

>  <VSA_EState8>  (181) 
4.145149

>  <VSA_EState9>  (181) 
-3.452269

>  <FractionCSP3>  (181) 
0.357143

>  <HeavyAtomCount>  (181) 
20

>  <NHOHCount>  (181) 
2

>  <NOCount>  (181) 
5

>  <NumAliphaticCarbocycles>  (181) 
0

>  <NumAliphaticHeterocycles>  (181) 
1

>  <NumAliphaticRings>  (181) 
1

>  <NumAromaticCarbocycles>  (181) 
1

>  <NumAromaticHeterocycles>  (181) 
1

>  <NAR>  (181) 
2

>  <NumHAcceptors>  (181) 
3

>  <NumHDonors>  (181) 
1

>  <NumHeteroatoms>  (181) 
6

>  <NumRotatableBonds>  (181) 
2

>  <NumSaturatedCarbocycles>  (181) 
0

>  <NumSaturatedHeterocycles>  (181) 
1

>  <NumSaturatedRings>  (181) 
1

>  <RingCount>  (181) 
3

>  <MolLogP>  (181) 
0.191

>  <MolMR>  (181) 
76.7562

>  <fr_Al_COO>  (181) 
0

>  <fr_Al_OH>  (181) 
0

>  <fr_Al_OH_noTert>  (181) 
0

>  <fr_ArN>  (181) 
0

>  <fr_Ar_COO>  (181) 
0

>  <fr_Ar_N>  (181) 
1

>  <fr_Ar_NH>  (181) 
0

>  <fr_Ar_OH>  (181) 
0

>  <fr_COO>  (181) 
0

>  <fr_COO2>  (181) 
0

>  <fr_C_O>  (181) 
0

>  <fr_C_O_noCOO>  (181) 
0

>  <fr_C_S>  (181) 
0

>  <fr_HOCCN>  (181) 
0

>  <fr_Imine>  (181) 
0

>  <fr_NH0>  (181) 
2

>  <fr_NH1>  (181) 
0

>  <fr_NH2>  (181) 
1

>  <fr_N_O>  (181) 
0

>  <fr_Ndealkylation1>  (181) 
0

>  <fr_Ndealkylation2>  (181) 
0

>  <fr_Nhpyrrole>  (181) 
0

>  <fr_SH>  (181) 
0

>  <fr_aldehyde>  (181) 
0

>  <fr_alkyl_carbamate>  (181) 
0

>  <fr_alkyl_halide>  (181) 
0

>  <fr_allylic_oxid>  (181) 
0

>  <fr_amide>  (181) 
0

>  <fr_amidine>  (181) 
0

>  <fr_aniline>  (181) 
0

>  <fr_aryl_methyl>  (181) 
0

>  <fr_azide>  (181) 
0

>  <fr_azo>  (181) 
0

>  <fr_barbitur>  (181) 
0

>  <fr_benzene>  (181) 
1

>  <fr_benzodiazepine>  (181) 
0

>  <fr_bicyclic>  (181) 
1

>  <fr_diazo>  (181) 
0

>  <fr_dihydropyridine>  (181) 
0

>  <fr_epoxide>  (181) 
0

>  <fr_ester>  (181) 
0

>  <fr_ether>  (181) 
0

>  <fr_furan>  (181) 
0

>  <fr_guanido>  (181) 
0

>  <fr_halogen>  (181) 
0

>  <fr_hdrzine>  (181) 
0

>  <fr_hdrzone>  (181) 
0

>  <fr_imidazole>  (181) 
0

>  <fr_imide>  (181) 
0

>  <fr_isocyan>  (181) 
0

>  <fr_isothiocyan>  (181) 
0

>  <fr_ketone>  (181) 
0

>  <fr_ketone_Topliss>  (181) 
0

>  <fr_lactam>  (181) 
0

>  <fr_lactone>  (181) 
0

>  <fr_methoxy>  (181) 
0

>  <fr_morpholine>  (181) 
0

>  <fr_nitrile>  (181) 
0

>  <fr_nitro>  (181) 
0

>  <fr_nitro_arom>  (181) 
0

>  <fr_nitro_arom_nonortho>  (181) 
0

>  <fr_nitroso>  (181) 
0

>  <fr_oxazole>  (181) 
0

>  <fr_oxime>  (181) 
0

>  <fr_para_hydroxylation>  (181) 
0

>  <fr_phenol>  (181) 
0

>  <fr_phenol_noOrthoHbond>  (181) 
0

>  <fr_phos_acid>  (181) 
0

>  <fr_phos_ester>  (181) 
0

>  <fr_piperdine>  (181) 
0

>  <fr_piperzine>  (181) 
1

>  <fr_priamide>  (181) 
0

>  <fr_prisulfonamd>  (181) 
0

>  <fr_pyridine>  (181) 
1

>  <fr_quatN>  (181) 
1

>  <fr_sulfide>  (181) 
0

>  <fr_sulfonamd>  (181) 
1

>  <fr_sulfone>  (181) 
0

>  <fr_term_acetylene>  (181) 
0

>  <fr_tetrazole>  (181) 
0

>  <fr_thiazole>  (181) 
0

>  <fr_thiocyan>  (181) 
0

>  <fr_thiophene>  (181) 
0

>  <fr_unbrch_alkane>  (181) 
0

>  <fr_urea>  (181) 
0

>  <NP-Likeness>  (181) 
-1.165265

$$$$
IQU
     RDKit          3D

  0  0  0  0  0  0  0  0  0  0999 V3000
M  V30 BEGIN CTAB
M  V30 COUNTS 31 32 0 0 0
M  V30 BEGIN ATOM
M  V30 1 C 1.137249 -3.378018 1.308501 0
M  V30 2 N 1.989880 -3.542361 2.353073 0
M  V30 3 C 2.700596 -2.484020 2.791919 0
M  V30 4 C 2.622107 -1.208696 2.240792 0
M  V30 5 C 3.355320 -0.156567 2.695201 0
M  V30 6 C 3.235606 1.057786 2.106402 0
M  V30 7 C 2.357022 1.167205 1.054066 0
M  V30 8 C 1.559703 0.141124 0.516922 0
M  V30 9 S 0.467883 0.460002 -0.806730 0
M  V30 10 O 0.931055 -0.321895 -2.008066 0
M  V30 11 O 0.674918 1.916948 -1.206210 0
M  V30 12 N -1.164729 0.293657 -0.474418 0
M  V30 13 C -1.936362 -0.679401 -1.133134 0
M  V30 14 C -3.370926 -0.536497 -0.580351 0
M  V30 15 N -3.367065 -0.759532 0.857792 0 CHG=1 VAL=4
M  V30 16 C 1.757963 -1.044453 1.183821 0
M  V30 17 C 1.045446 -2.122981 0.749247 0
M  V30 18 H 0.547293 -4.194847 0.921719 0
M  V30 19 H 3.380434 -2.645528 3.635567 0
M  V30 20 H 4.017807 -0.337794 3.526026 0
M  V30 21 H 3.795383 1.921744 2.430188 0
M  V30 22 H 2.277346 2.164579 0.591998 0
M  V30 23 H -1.727877 1.157403 -0.358370 0
M  V30 24 H -1.667402 -1.729466 -1.052230 0
M  V30 25 H -2.054092 -0.493554 -2.239754 0
M  V30 26 H -3.778526 0.470982 -0.753431 0
M  V30 27 H -4.015889 -1.337224 -1.019240 0
M  V30 28 H -4.283004 -1.052178 1.212140 0
M  V30 29 H -2.585291 -1.404686 1.141486 0
M  V30 30 H -3.136108 0.166365 1.295982 0
M  V30 31 H 0.388896 -2.012411 -0.065443 0
M  V30 END ATOM
M  V30 BEGIN BOND
M  V30 1 2 1 2
M  V30 2 1 2 3
M  V30 3 2 3 4
M  V30 4 1 4 5
M  V30 5 2 5 6
M  V30 6 1 6 7
M  V30 7 2 7 8
M  V30 8 1 8 9
M  V30 9 2 9 10
M  V30 10 2 9 11
M  V30 11 1 9 12
M  V30 12 1 12 13
M  V30 13 1 13 14
M  V30 14 1 14 15
M  V30 15 1 8 16
M  V30 16 2 16 17
M  V30 17 1 17 1
M  V30 18 1 16 4
M  V30 19 1 1 18
M  V30 20 1 3 19
M  V30 21 1 5 20
M  V30 22 1 6 21
M  V30 23 1 7 22
M  V30 24 1 12 23
M  V30 25 1 13 24
M  V30 26 1 13 25
M  V30 27 1 14 26
M  V30 28 1 14 27
M  V30 29 1 15 28
M  V30 30 1 15 29
M  V30 31 1 15 30
M  V30 32 1 17 31
M  V30 END BOND
M  V30 END CTAB
M  END
>  <Dataset>  (182) 
PDB

>  <Ligand_Instance>  (182) 
5M0B_IQU_A_401

>  <PDB_ID>  (182) 
5M0B

>  <Standardized_SMILES>  (182) 
[H]C1=NC([H])=C2C([H])=C([H])C([H])=C(S(=O)(=O)N([H])C([H])([H])C([H])([H])[N+]([H])([H])[H])C2=C1[H]

>  <Name>  (182) 
N-(2-AMINOETHYL)ISOQUINOLINE-5-SULFONAMIDE

>  <Pocket>  (182) 
A

>  <ATP_Site>  (182) 
1.0

>  <Peripheral>  (182) 
0.0

>  <Num_H_Atoms_ProtBoundConf>  (182) 
14.0

>  <Num_Resolved_Atoms>  (182) 
17.0

>  <Num_Not_Resolved_Atoms>  (182) 
0.0

>  <2D_Mol_H>  (182) 
<rdkit.Chem.rdchem.Mol object at 0x72a238df07b0>

>  <MW>  (182) 
252.319

>  <HBA>  (182) 
3

>  <HBD>  (182) 
2

>  <LogP>  (182) 
-0.245

>  <NRB>  (182) 
5

>  <TPSA>  (182) 
86.7

>  <Num_Heavy_Atoms>  (182) 
17

>  <Ro5>  (182) 
[True, True, True, True, True, True]

>  <Ro5_Fulfilled>  (182) 
True

>  <Ro3>  (182) 
[True, True, True, True]

>  <Ro3_Fulfilled>  (182) 
True

>  <Fsp3>  (182) 
0.181818

>  <Fsp3_0.42>  (182) 
False

>  <Fsp3_0.45>  (182) 
False

>  <Stereogenic_Carbons>  (182) 
0

>  <C_Atoms>  (182) 
11

>  <FCStereo>  (182) 
0.0

>  <SPS>  (182) 
201

>  <nSPS>  (182) 
11.823529

>  <PBF>  (182) 
0.836477

>  <PBF_0.6>  (182) 
True

>  <nPBF>  (182) 
0.049205

>  <nPBF_0.016>  (182) 
True

>  <PMI1>  (182) 
831.83976

>  <PMI2>  (182) 
1524.341916

>  <PMI3>  (182) 
1970.853896

>  <NPR1>  (182) 
0.422071

>  <NPR2>  (182) 
0.773442

>  <Sum_NPR>  (182) 
1.195513

>  <Sum_NPR_1.07>  (182) 
True

>  <Sum_NPR_1.2>  (182) 
False

>  <MaxAbsEStateIndex>  (182) 
12.045753

>  <MaxEStateIndex>  (182) 
12.045753

>  <MinAbsEStateIndex>  (182) 
0.283194

>  <MinEStateIndex>  (182) 
-3.466806

>  <qed>  (182) 
0.786689

>  <MolWt>  (182) 
252.319

>  <HeavyAtomMolWt>  (182) 
238.207

>  <ExactMolWt>  (182) 
252.080124

>  <NumValenceElectrons>  (182) 
90

>  <NumRadicalElectrons>  (182) 
0

>  <MaxPartialCharge>  (182) 
0.240888

>  <MinPartialCharge>  (182) 
-0.356475

>  <MaxAbsPartialCharge>  (182) 
0.356475

>  <MinAbsPartialCharge>  (182) 
0.240888

>  <FpDensityMorgan1>  (182) 
1.294118

>  <FpDensityMorgan2>  (182) 
2.117647

>  <FpDensityMorgan3>  (182) 
2.882353

>  <BCUT2D_MWHI>  (182) 
32.233271

>  <BCUT2D_MWLOW>  (182) 
10.168345

>  <BCUT2D_CHGHI>  (182) 
2.156912

>  <BCUT2D_CHGLO>  (182) 
-2.073012

>  <BCUT2D_LOGPHI>  (182) 
2.209026

>  <BCUT2D_LOGPLOW>  (182) 
-2.543737

>  <BCUT2D_MRHI>  (182) 
7.893353

>  <BCUT2D_MRLOW>  (182) 
-0.363949

>  <AvgIpc>  (182) 
2.355161

>  <BalabanJ>  (182) 
2.554624

>  <BertzCT>  (182) 
620.154078

>  <Chi0>  (182) 
12.303119

>  <Chi0n>  (182) 
9.25738

>  <Chi0v>  (182) 
10.073877

>  <Chi1>  (182) 
8.148995

>  <Chi1n>  (182) 
5.266233

>  <Chi1v>  (182) 
6.749397

>  <Chi2n>  (182) 
3.604287

>  <Chi2v>  (182) 
5.339662

>  <Chi3n>  (182) 
2.399109

>  <Chi3v>  (182) 
3.918299

>  <Chi4n>  (182) 
1.611449

>  <Chi4v>  (182) 
2.913145

>  <HallKierAlpha>  (182) 
-1.5

>  <Ipc>  (182) 
8101.75473

>  <Kappa1>  (182) 
11.970156

>  <Kappa2>  (182) 
4.785197

>  <Kappa3>  (182) 
2.435501

>  <LabuteASA>  (182) 
99.713129

>  <PEOE_VSA1>  (182) 
5.733667

>  <PEOE_VSA10>  (182) 
0.0

>  <PEOE_VSA11>  (182) 
0.0

>  <PEOE_VSA12>  (182) 
10.023291

>  <PEOE_VSA13>  (182) 
0.0

>  <PEOE_VSA14>  (182) 
0.0

>  <PEOE_VSA2>  (182) 
4.983979

>  <PEOE_VSA3>  (182) 
13.139892

>  <PEOE_VSA4>  (182) 
0.0

>  <PEOE_VSA5>  (182) 
0.0

>  <PEOE_VSA6>  (182) 
12.132734

>  <PEOE_VSA7>  (182) 
12.132734

>  <PEOE_VSA8>  (182) 
23.166136

>  <PEOE_VSA9>  (182) 
17.984996

>  <SMR_VSA1>  (182) 
14.151464

>  <SMR_VSA10>  (182) 
20.79574

>  <SMR_VSA2>  (182) 
0.0

>  <SMR_VSA3>  (182) 
9.706073

>  <SMR_VSA4>  (182) 
0.0

>  <SMR_VSA5>  (182) 
4.895483

>  <SMR_VSA6>  (182) 
13.089513

>  <SMR_VSA7>  (182) 
36.659155

>  <SMR_VSA8>  (182) 
0.0

>  <SMR_VSA9>  (182) 
0.0

>  <SlogP_VSA1>  (182) 
10.455762

>  <SlogP_VSA10>  (182) 
0.0

>  <SlogP_VSA11>  (182) 
0.0

>  <SlogP_VSA12>  (182) 
0.0

>  <SlogP_VSA2>  (182) 
26.491288

>  <SlogP_VSA3>  (182) 
10.023291

>  <SlogP_VSA4>  (182) 
0.0

>  <SlogP_VSA5>  (182) 
0.0

>  <SlogP_VSA6>  (182) 
41.554639

>  <SlogP_VSA7>  (182) 
0.0

>  <SlogP_VSA8>  (182) 
10.772448

>  <SlogP_VSA9>  (182) 
0.0

>  <EState_VSA1>  (182) 
10.023291

>  <EState_VSA10>  (182) 
8.417797

>  <EState_VSA11>  (182) 
0.0

>  <EState_VSA2>  (182) 
4.895483

>  <EState_VSA3>  (182) 
18.475737

>  <EState_VSA4>  (182) 
5.386224

>  <EState_VSA5>  (182) 
0.0

>  <EState_VSA6>  (182) 
30.592788

>  <EState_VSA7>  (182) 
6.066367

>  <EState_VSA8>  (182) 
15.439741

>  <EState_VSA9>  (182) 
0.0

>  <VSA_EState1>  (182) 
26.597922

>  <VSA_EState10>  (182) 
0.0

>  <VSA_EState2>  (182) 
4.256163

>  <VSA_EState3>  (182) 
1.489871

>  <VSA_EState4>  (182) 
3.607804

>  <VSA_EState5>  (182) 
0.0

>  <VSA_EState6>  (182) 
6.840625

>  <VSA_EState7>  (182) 
3.234583

>  <VSA_EState8>  (182) 
0.856504

>  <VSA_EState9>  (182) 
-3.466806

>  <FractionCSP3>  (182) 
0.181818

>  <HeavyAtomCount>  (182) 
17

>  <NHOHCount>  (182) 
4

>  <NOCount>  (182) 
5

>  <NumAliphaticCarbocycles>  (182) 
0

>  <NumAliphaticHeterocycles>  (182) 
0

>  <NumAliphaticRings>  (182) 
0

>  <NumAromaticCarbocycles>  (182) 
1

>  <NumAromaticHeterocycles>  (182) 
1

>  <NAR>  (182) 
2

>  <NumHAcceptors>  (182) 
3

>  <NumHDonors>  (182) 
2

>  <NumHeteroatoms>  (182) 
6

>  <NumRotatableBonds>  (182) 
4

>  <NumSaturatedCarbocycles>  (182) 
0

>  <NumSaturatedHeterocycles>  (182) 
0

>  <NumSaturatedRings>  (182) 
0

>  <RingCount>  (182) 
2

>  <MolLogP>  (182) 
-0.245

>  <MolMR>  (182) 
64.6866

>  <fr_Al_COO>  (182) 
0

>  <fr_Al_OH>  (182) 
0

>  <fr_Al_OH_noTert>  (182) 
0

>  <fr_ArN>  (182) 
0

>  <fr_Ar_COO>  (182) 
0

>  <fr_Ar_N>  (182) 
1

>  <fr_Ar_NH>  (182) 
0

>  <fr_Ar_OH>  (182) 
0

>  <fr_COO>  (182) 
0

>  <fr_COO2>  (182) 
0

>  <fr_C_O>  (182) 
0

>  <fr_C_O_noCOO>  (182) 
0

>  <fr_C_S>  (182) 
0

>  <fr_HOCCN>  (182) 
0

>  <fr_Imine>  (182) 
0

>  <fr_NH0>  (182) 
1

>  <fr_NH1>  (182) 
1

>  <fr_NH2>  (182) 
0

>  <fr_N_O>  (182) 
0

>  <fr_Ndealkylation1>  (182) 
0

>  <fr_Ndealkylation2>  (182) 
0

>  <fr_Nhpyrrole>  (182) 
0

>  <fr_SH>  (182) 
0

>  <fr_aldehyde>  (182) 
0

>  <fr_alkyl_carbamate>  (182) 
0

>  <fr_alkyl_halide>  (182) 
0

>  <fr_allylic_oxid>  (182) 
0

>  <fr_amide>  (182) 
0

>  <fr_amidine>  (182) 
0

>  <fr_aniline>  (182) 
0

>  <fr_aryl_methyl>  (182) 
0

>  <fr_azide>  (182) 
0

>  <fr_azo>  (182) 
0

>  <fr_barbitur>  (182) 
0

>  <fr_benzene>  (182) 
1

>  <fr_benzodiazepine>  (182) 
0

>  <fr_bicyclic>  (182) 
1

>  <fr_diazo>  (182) 
0

>  <fr_dihydropyridine>  (182) 
0

>  <fr_epoxide>  (182) 
0

>  <fr_ester>  (182) 
0

>  <fr_ether>  (182) 
0

>  <fr_furan>  (182) 
0

>  <fr_guanido>  (182) 
0

>  <fr_halogen>  (182) 
0

>  <fr_hdrzine>  (182) 
0

>  <fr_hdrzone>  (182) 
0

>  <fr_imidazole>  (182) 
0

>  <fr_imide>  (182) 
0

>  <fr_isocyan>  (182) 
0

>  <fr_isothiocyan>  (182) 
0

>  <fr_ketone>  (182) 
0

>  <fr_ketone_Topliss>  (182) 
0

>  <fr_lactam>  (182) 
0

>  <fr_lactone>  (182) 
0

>  <fr_methoxy>  (182) 
0

>  <fr_morpholine>  (182) 
0

>  <fr_nitrile>  (182) 
0

>  <fr_nitro>  (182) 
0

>  <fr_nitro_arom>  (182) 
0

>  <fr_nitro_arom_nonortho>  (182) 
0

>  <fr_nitroso>  (182) 
0

>  <fr_oxazole>  (182) 
0

>  <fr_oxime>  (182) 
0

>  <fr_para_hydroxylation>  (182) 
0

>  <fr_phenol>  (182) 
0

>  <fr_phenol_noOrthoHbond>  (182) 
0

>  <fr_phos_acid>  (182) 
0

>  <fr_phos_ester>  (182) 
0

>  <fr_piperdine>  (182) 
0

>  <fr_piperzine>  (182) 
0

>  <fr_priamide>  (182) 
0

>  <fr_prisulfonamd>  (182) 
0

>  <fr_pyridine>  (182) 
1

>  <fr_quatN>  (182) 
1

>  <fr_sulfide>  (182) 
0

>  <fr_sulfonamd>  (182) 
1

>  <fr_sulfone>  (182) 
0

>  <fr_term_acetylene>  (182) 
0

>  <fr_tetrazole>  (182) 
0

>  <fr_thiazole>  (182) 
0

>  <fr_thiocyan>  (182) 
0

>  <fr_thiophene>  (182) 
0

>  <fr_unbrch_alkane>  (182) 
0

>  <fr_urea>  (182) 
0

>  <NP-Likeness>  (182) 
-1.492609

$$$$
IQU
     RDKit          3D

  0  0  0  0  0  0  0  0  0  0999 V3000
M  V30 BEGIN CTAB
M  V30 COUNTS 31 32 0 0 0
M  V30 BEGIN ATOM
M  V30 1 C 1.137249 -3.378018 1.308501 0
M  V30 2 N 1.989880 -3.542361 2.353073 0
M  V30 3 C 2.700596 -2.484020 2.791919 0
M  V30 4 C 2.622107 -1.208696 2.240792 0
M  V30 5 C 3.355320 -0.156567 2.695201 0
M  V30 6 C 3.235606 1.057786 2.106402 0
M  V30 7 C 2.357022 1.167205 1.054066 0
M  V30 8 C 1.559703 0.141124 0.516922 0
M  V30 9 S 0.467883 0.460002 -0.806730 0
M  V30 10 O 0.931055 -0.321895 -2.008066 0
M  V30 11 O 0.674918 1.916948 -1.206210 0
M  V30 12 N -1.164729 0.293657 -0.474418 0
M  V30 13 C -1.936362 -0.679401 -1.133134 0
M  V30 14 C -3.370926 -0.536497 -0.580351 0
M  V30 15 N -3.367065 -0.759532 0.857792 0 CHG=1 VAL=4
M  V30 16 C 1.757963 -1.044453 1.183821 0
M  V30 17 C 1.045446 -2.122981 0.749247 0
M  V30 18 H 0.547293 -4.194847 0.921719 0
M  V30 19 H 3.380434 -2.645528 3.635567 0
M  V30 20 H 4.017807 -0.337794 3.526026 0
M  V30 21 H 3.795383 1.921744 2.430188 0
M  V30 22 H 2.277346 2.164579 0.591998 0
M  V30 23 H -1.727877 1.157403 -0.358370 0
M  V30 24 H -1.667402 -1.729466 -1.052230 0
M  V30 25 H -2.054092 -0.493554 -2.239754 0
M  V30 26 H -3.778526 0.470982 -0.753431 0
M  V30 27 H -4.015889 -1.337224 -1.019240 0
M  V30 28 H -4.283004 -1.052178 1.212140 0
M  V30 29 H -2.585291 -1.404686 1.141486 0
M  V30 30 H -3.136108 0.166365 1.295982 0
M  V30 31 H 0.388896 -2.012411 -0.065443 0
M  V30 END ATOM
M  V30 BEGIN BOND
M  V30 1 2 1 2
M  V30 2 1 2 3
M  V30 3 2 3 4
M  V30 4 1 4 5
M  V30 5 2 5 6
M  V30 6 1 6 7
M  V30 7 2 7 8
M  V30 8 1 8 9
M  V30 9 2 9 10
M  V30 10 2 9 11
M  V30 11 1 9 12
M  V30 12 1 12 13
M  V30 13 1 13 14
M  V30 14 1 14 15
M  V30 15 1 8 16
M  V30 16 2 16 17
M  V30 17 1 17 1
M  V30 18 1 16 4
M  V30 19 1 1 18
M  V30 20 1 3 19
M  V30 21 1 5 20
M  V30 22 1 6 21
M  V30 23 1 7 22
M  V30 24 1 12 23
M  V30 25 1 13 24
M  V30 26 1 13 25
M  V30 27 1 14 26
M  V30 28 1 14 27
M  V30 29 1 15 28
M  V30 30 1 15 29
M  V30 31 1 15 30
M  V30 32 1 17 31
M  V30 END BOND
M  V30 END CTAB
M  END
>  <Dataset>  (183) 
PDB

>  <Ligand_Instance>  (183) 
6YNB_IQU_A_401

>  <PDB_ID>  (183) 
6YNB

>  <Standardized_SMILES>  (183) 
[H]C1=NC([H])=C2C([H])=C([H])C([H])=C(S(=O)(=O)N([H])C([H])([H])C([H])([H])[N+]([H])([H])[H])C2=C1[H]

>  <Name>  (183) 
N-(2-AMINOETHYL)ISOQUINOLINE-5-SULFONAMIDE

>  <Pocket>  (183) 
A

>  <ATP_Site>  (183) 
1.0

>  <Peripheral>  (183) 
0.0

>  <Num_H_Atoms_ProtBoundConf>  (183) 
14.0

>  <Num_Resolved_Atoms>  (183) 
17.0

>  <Num_Not_Resolved_Atoms>  (183) 
0.0

>  <2D_Mol_H>  (183) 
<rdkit.Chem.rdchem.Mol object at 0x72a238df0890>

>  <MW>  (183) 
252.319

>  <HBA>  (183) 
3

>  <HBD>  (183) 
2

>  <LogP>  (183) 
-0.245

>  <NRB>  (183) 
5

>  <TPSA>  (183) 
86.7

>  <Num_Heavy_Atoms>  (183) 
17

>  <Ro5>  (183) 
[True, True, True, True, True, True]

>  <Ro5_Fulfilled>  (183) 
True

>  <Ro3>  (183) 
[True, True, True, True]

>  <Ro3_Fulfilled>  (183) 
True

>  <Fsp3>  (183) 
0.181818

>  <Fsp3_0.42>  (183) 
False

>  <Fsp3_0.45>  (183) 
False

>  <Stereogenic_Carbons>  (183) 
0

>  <C_Atoms>  (183) 
11

>  <FCStereo>  (183) 
0.0

>  <SPS>  (183) 
201

>  <nSPS>  (183) 
11.823529

>  <PBF>  (183) 
0.836477

>  <PBF_0.6>  (183) 
True

>  <nPBF>  (183) 
0.049205

>  <nPBF_0.016>  (183) 
True

>  <PMI1>  (183) 
831.83976

>  <PMI2>  (183) 
1524.341916

>  <PMI3>  (183) 
1970.853896

>  <NPR1>  (183) 
0.422071

>  <NPR2>  (183) 
0.773442

>  <Sum_NPR>  (183) 
1.195513

>  <Sum_NPR_1.07>  (183) 
True

>  <Sum_NPR_1.2>  (183) 
False

>  <MaxAbsEStateIndex>  (183) 
12.045753

>  <MaxEStateIndex>  (183) 
12.045753

>  <MinAbsEStateIndex>  (183) 
0.283194

>  <MinEStateIndex>  (183) 
-3.466806

>  <qed>  (183) 
0.786689

>  <MolWt>  (183) 
252.319

>  <HeavyAtomMolWt>  (183) 
238.207

>  <ExactMolWt>  (183) 
252.080124

>  <NumValenceElectrons>  (183) 
90

>  <NumRadicalElectrons>  (183) 
0

>  <MaxPartialCharge>  (183) 
0.240888

>  <MinPartialCharge>  (183) 
-0.356475

>  <MaxAbsPartialCharge>  (183) 
0.356475

>  <MinAbsPartialCharge>  (183) 
0.240888

>  <FpDensityMorgan1>  (183) 
1.294118

>  <FpDensityMorgan2>  (183) 
2.117647

>  <FpDensityMorgan3>  (183) 
2.882353

>  <BCUT2D_MWHI>  (183) 
32.233271

>  <BCUT2D_MWLOW>  (183) 
10.168345

>  <BCUT2D_CHGHI>  (183) 
2.156912

>  <BCUT2D_CHGLO>  (183) 
-2.073012

>  <BCUT2D_LOGPHI>  (183) 
2.209026

>  <BCUT2D_LOGPLOW>  (183) 
-2.543737

>  <BCUT2D_MRHI>  (183) 
7.893353

>  <BCUT2D_MRLOW>  (183) 
-0.363949

>  <AvgIpc>  (183) 
2.355161

>  <BalabanJ>  (183) 
2.554624

>  <BertzCT>  (183) 
620.154078

>  <Chi0>  (183) 
12.303119

>  <Chi0n>  (183) 
9.25738

>  <Chi0v>  (183) 
10.073877

>  <Chi1>  (183) 
8.148995

>  <Chi1n>  (183) 
5.266233

>  <Chi1v>  (183) 
6.749397

>  <Chi2n>  (183) 
3.604287

>  <Chi2v>  (183) 
5.339662

>  <Chi3n>  (183) 
2.399109

>  <Chi3v>  (183) 
3.918299

>  <Chi4n>  (183) 
1.611449

>  <Chi4v>  (183) 
2.913145

>  <HallKierAlpha>  (183) 
-1.5

>  <Ipc>  (183) 
8101.75473

>  <Kappa1>  (183) 
11.970156

>  <Kappa2>  (183) 
4.785197

>  <Kappa3>  (183) 
2.435501

>  <LabuteASA>  (183) 
99.713129

>  <PEOE_VSA1>  (183) 
5.733667

>  <PEOE_VSA10>  (183) 
0.0

>  <PEOE_VSA11>  (183) 
0.0

>  <PEOE_VSA12>  (183) 
10.023291

>  <PEOE_VSA13>  (183) 
0.0

>  <PEOE_VSA14>  (183) 
0.0

>  <PEOE_VSA2>  (183) 
4.983979

>  <PEOE_VSA3>  (183) 
13.139892

>  <PEOE_VSA4>  (183) 
0.0

>  <PEOE_VSA5>  (183) 
0.0

>  <PEOE_VSA6>  (183) 
12.132734

>  <PEOE_VSA7>  (183) 
12.132734

>  <PEOE_VSA8>  (183) 
23.166136

>  <PEOE_VSA9>  (183) 
17.984996

>  <SMR_VSA1>  (183) 
14.151464

>  <SMR_VSA10>  (183) 
20.79574

>  <SMR_VSA2>  (183) 
0.0

>  <SMR_VSA3>  (183) 
9.706073

>  <SMR_VSA4>  (183) 
0.0

>  <SMR_VSA5>  (183) 
4.895483

>  <SMR_VSA6>  (183) 
13.089513

>  <SMR_VSA7>  (183) 
36.659155

>  <SMR_VSA8>  (183) 
0.0

>  <SMR_VSA9>  (183) 
0.0

>  <SlogP_VSA1>  (183) 
10.455762

>  <SlogP_VSA10>  (183) 
0.0

>  <SlogP_VSA11>  (183) 
0.0

>  <SlogP_VSA12>  (183) 
0.0

>  <SlogP_VSA2>  (183) 
26.491288

>  <SlogP_VSA3>  (183) 
10.023291

>  <SlogP_VSA4>  (183) 
0.0

>  <SlogP_VSA5>  (183) 
0.0

>  <SlogP_VSA6>  (183) 
41.554639

>  <SlogP_VSA7>  (183) 
0.0

>  <SlogP_VSA8>  (183) 
10.772448

>  <SlogP_VSA9>  (183) 
0.0

>  <EState_VSA1>  (183) 
10.023291

>  <EState_VSA10>  (183) 
8.417797

>  <EState_VSA11>  (183) 
0.0

>  <EState_VSA2>  (183) 
4.895483

>  <EState_VSA3>  (183) 
18.475737

>  <EState_VSA4>  (183) 
5.386224

>  <EState_VSA5>  (183) 
0.0

>  <EState_VSA6>  (183) 
30.592788

>  <EState_VSA7>  (183) 
6.066367

>  <EState_VSA8>  (183) 
15.439741

>  <EState_VSA9>  (183) 
0.0

>  <VSA_EState1>  (183) 
26.597922

>  <VSA_EState10>  (183) 
0.0

>  <VSA_EState2>  (183) 
4.256163

>  <VSA_EState3>  (183) 
1.489871

>  <VSA_EState4>  (183) 
3.607804

>  <VSA_EState5>  (183) 
0.0

>  <VSA_EState6>  (183) 
6.840625

>  <VSA_EState7>  (183) 
3.234583

>  <VSA_EState8>  (183) 
0.856504

>  <VSA_EState9>  (183) 
-3.466806

>  <FractionCSP3>  (183) 
0.181818

>  <HeavyAtomCount>  (183) 
17

>  <NHOHCount>  (183) 
4

>  <NOCount>  (183) 
5

>  <NumAliphaticCarbocycles>  (183) 
0

>  <NumAliphaticHeterocycles>  (183) 
0

>  <NumAliphaticRings>  (183) 
0

>  <NumAromaticCarbocycles>  (183) 
1

>  <NumAromaticHeterocycles>  (183) 
1

>  <NAR>  (183) 
2

>  <NumHAcceptors>  (183) 
3

>  <NumHDonors>  (183) 
2

>  <NumHeteroatoms>  (183) 
6

>  <NumRotatableBonds>  (183) 
4

>  <NumSaturatedCarbocycles>  (183) 
0

>  <NumSaturatedHeterocycles>  (183) 
0

>  <NumSaturatedRings>  (183) 
0

>  <RingCount>  (183) 
2

>  <MolLogP>  (183) 
-0.245

>  <MolMR>  (183) 
64.6866

>  <fr_Al_COO>  (183) 
0

>  <fr_Al_OH>  (183) 
0

>  <fr_Al_OH_noTert>  (183) 
0

>  <fr_ArN>  (183) 
0

>  <fr_Ar_COO>  (183) 
0

>  <fr_Ar_N>  (183) 
1

>  <fr_Ar_NH>  (183) 
0

>  <fr_Ar_OH>  (183) 
0

>  <fr_COO>  (183) 
0

>  <fr_COO2>  (183) 
0

>  <fr_C_O>  (183) 
0

>  <fr_C_O_noCOO>  (183) 
0

>  <fr_C_S>  (183) 
0

>  <fr_HOCCN>  (183) 
0

>  <fr_Imine>  (183) 
0

>  <fr_NH0>  (183) 
1

>  <fr_NH1>  (183) 
1

>  <fr_NH2>  (183) 
0

>  <fr_N_O>  (183) 
0

>  <fr_Ndealkylation1>  (183) 
0

>  <fr_Ndealkylation2>  (183) 
0

>  <fr_Nhpyrrole>  (183) 
0

>  <fr_SH>  (183) 
0

>  <fr_aldehyde>  (183) 
0

>  <fr_alkyl_carbamate>  (183) 
0

>  <fr_alkyl_halide>  (183) 
0

>  <fr_allylic_oxid>  (183) 
0

>  <fr_amide>  (183) 
0

>  <fr_amidine>  (183) 
0

>  <fr_aniline>  (183) 
0

>  <fr_aryl_methyl>  (183) 
0

>  <fr_azide>  (183) 
0

>  <fr_azo>  (183) 
0

>  <fr_barbitur>  (183) 
0

>  <fr_benzene>  (183) 
1

>  <fr_benzodiazepine>  (183) 
0

>  <fr_bicyclic>  (183) 
1

>  <fr_diazo>  (183) 
0

>  <fr_dihydropyridine>  (183) 
0

>  <fr_epoxide>  (183) 
0

>  <fr_ester>  (183) 
0

>  <fr_ether>  (183) 
0

>  <fr_furan>  (183) 
0

>  <fr_guanido>  (183) 
0

>  <fr_halogen>  (183) 
0

>  <fr_hdrzine>  (183) 
0

>  <fr_hdrzone>  (183) 
0

>  <fr_imidazole>  (183) 
0

>  <fr_imide>  (183) 
0

>  <fr_isocyan>  (183) 
0

>  <fr_isothiocyan>  (183) 
0

>  <fr_ketone>  (183) 
0

>  <fr_ketone_Topliss>  (183) 
0

>  <fr_lactam>  (183) 
0

>  <fr_lactone>  (183) 
0

>  <fr_methoxy>  (183) 
0

>  <fr_morpholine>  (183) 
0

>  <fr_nitrile>  (183) 
0

>  <fr_nitro>  (183) 
0

>  <fr_nitro_arom>  (183) 
0

>  <fr_nitro_arom_nonortho>  (183) 
0

>  <fr_nitroso>  (183) 
0

>  <fr_oxazole>  (183) 
0

>  <fr_oxime>  (183) 
0

>  <fr_para_hydroxylation>  (183) 
0

>  <fr_phenol>  (183) 
0

>  <fr_phenol_noOrthoHbond>  (183) 
0

>  <fr_phos_acid>  (183) 
0

>  <fr_phos_ester>  (183) 
0

>  <fr_piperdine>  (183) 
0

>  <fr_piperzine>  (183) 
0

>  <fr_priamide>  (183) 
0

>  <fr_prisulfonamd>  (183) 
0

>  <fr_pyridine>  (183) 
1

>  <fr_quatN>  (183) 
1

>  <fr_sulfide>  (183) 
0

>  <fr_sulfonamd>  (183) 
1

>  <fr_sulfone>  (183) 
0

>  <fr_term_acetylene>  (183) 
0

>  <fr_tetrazole>  (183) 
0

>  <fr_thiazole>  (183) 
0

>  <fr_thiocyan>  (183) 
0

>  <fr_thiophene>  (183) 
0

>  <fr_unbrch_alkane>  (183) 
0

>  <fr_urea>  (183) 
0

>  <NP-Likeness>  (183) 
-1.492609

$$$$
ISQ
     RDKit          3D

  0  0  0  0  0  0  0  0  0  0999 V3000
M  V30 BEGIN CTAB
M  V30 COUNTS 17 18 0 0 0
M  V30 BEGIN ATOM
M  V30 1 C -0.744409 -1.172683 -0.078020 0
M  V30 2 N -1.124888 -1.309037 1.210016 0
M  V30 3 C -0.405538 -0.664395 2.173183 0
M  V30 4 C 0.671431 0.089191 1.756904 0
M  V30 5 C 1.446224 0.768786 2.664853 0
M  V30 6 C 2.530783 1.543718 2.386530 0
M  V30 7 C 2.878404 1.649573 1.045335 0
M  V30 8 C 2.136159 0.987872 0.081906 0
M  V30 9 C 1.047425 0.218564 0.436904 0
M  V30 10 C 0.316929 -0.435194 -0.533580 0
M  V30 11 H -1.352364 -1.708750 -0.814804 0
M  V30 12 H -0.644381 -0.722126 3.226228 0
M  V30 13 H 1.183817 0.694265 3.724790 0
M  V30 14 H 3.126557 2.068023 3.099920 0
M  V30 15 H 3.709390 2.222893 0.652718 0
M  V30 16 H 2.365668 1.037353 -0.983123 0
M  V30 17 H 0.575742 -0.360997 -1.572736 0
M  V30 END ATOM
M  V30 BEGIN BOND
M  V30 1 2 1 2
M  V30 2 1 2 3
M  V30 3 2 3 4
M  V30 4 1 4 5
M  V30 5 2 5 6
M  V30 6 1 6 7
M  V30 7 2 7 8
M  V30 8 1 8 9
M  V30 9 2 9 10
M  V30 10 1 10 1
M  V30 11 1 9 4
M  V30 12 1 1 11
M  V30 13 1 3 12
M  V30 14 1 5 13
M  V30 15 1 6 14
M  V30 16 1 7 15
M  V30 17 1 8 16
M  V30 18 1 10 17
M  V30 END BOND
M  V30 END CTAB
M  END
>  <Dataset>  (184) 
PDB

>  <Ligand_Instance>  (184) 
6F14_ISQ_A_401

>  <PDB_ID>  (184) 
6F14

>  <Standardized_SMILES>  (184) 
[H]C1=NC([H])=C2C([H])=C([H])C([H])=C([H])C2=C1[H]

>  <Name>  (184) 
ISOQUINOLINE

>  <Pocket>  (184) 
A

>  <ATP_Site>  (184) 
1.0

>  <Peripheral>  (184) 
0.0

>  <Num_H_Atoms_ProtBoundConf>  (184) 
7.0

>  <Num_Resolved_Atoms>  (184) 
10.0

>  <Num_Not_Resolved_Atoms>  (184) 
0.0

>  <2D_Mol_H>  (184) 
<rdkit.Chem.rdchem.Mol object at 0x72a238df0970>

>  <MW>  (184) 
129.162

>  <HBA>  (184) 
1

>  <HBD>  (184) 
0

>  <LogP>  (184) 
2.2348

>  <NRB>  (184) 
0

>  <TPSA>  (184) 
12.89

>  <Num_Heavy_Atoms>  (184) 
10

>  <Ro5>  (184) 
[True, True, True, True, True, True]

>  <Ro5_Fulfilled>  (184) 
True

>  <Ro3>  (184) 
[True, True, True, True]

>  <Ro3_Fulfilled>  (184) 
True

>  <Fsp3>  (184) 
0.0

>  <Fsp3_0.42>  (184) 
False

>  <Fsp3_0.45>  (184) 
False

>  <Stereogenic_Carbons>  (184) 
0

>  <C_Atoms>  (184) 
9

>  <FCStereo>  (184) 
0.0

>  <SPS>  (184) 
100

>  <nSPS>  (184) 
10.0

>  <PBF>  (184) 
0.000008

>  <PBF_0.6>  (184) 
False

>  <nPBF>  (184) 
0.000001

>  <nPBF_0.016>  (184) 
False

>  <PMI1>  (184) 
154.511215

>  <PMI2>  (184) 
390.376065

>  <PMI3>  (184) 
544.887279

>  <NPR1>  (184) 
0.283565

>  <NPR2>  (184) 
0.716435

>  <Sum_NPR>  (184) 
1.0

>  <Sum_NPR_1.07>  (184) 
False

>  <Sum_NPR_1.2>  (184) 
False

>  <MaxAbsEStateIndex>  (184) 
4.01287

>  <MaxEStateIndex>  (184) 
4.01287

>  <MinAbsEStateIndex>  (184) 
1.199074

>  <MinEStateIndex>  (184) 
1.199074

>  <qed>  (184) 
0.531192

>  <MolWt>  (184) 
129.162

>  <HeavyAtomMolWt>  (184) 
122.106

>  <ExactMolWt>  (184) 
129.057849

>  <NumValenceElectrons>  (184) 
48

>  <NumRadicalElectrons>  (184) 
0

>  <MaxPartialCharge>  (184) 
0.034583

>  <MinPartialCharge>  (184) 
-0.264065

>  <MaxAbsPartialCharge>  (184) 
0.264065

>  <MinAbsPartialCharge>  (184) 
0.034583

>  <FpDensityMorgan1>  (184) 
0.9

>  <FpDensityMorgan2>  (184) 
1.7

>  <FpDensityMorgan3>  (184) 
2.5

>  <BCUT2D_MWHI>  (184) 
14.605792

>  <BCUT2D_MWLOW>  (184) 
10.173693

>  <BCUT2D_CHGHI>  (184) 
1.855635

>  <BCUT2D_CHGLO>  (184) 
-1.913294

>  <BCUT2D_LOGPHI>  (184) 
2.08921

>  <BCUT2D_LOGPLOW>  (184) 
-1.711249

>  <BCUT2D_MRHI>  (184) 
5.804471

>  <BCUT2D_MRLOW>  (184) 
1.364311

>  <AvgIpc>  (184) 
2.050414

>  <BalabanJ>  (184) 
2.888052

>  <BertzCT>  (184) 
275.705138

>  <Chi0>  (184) 
6.811555

>  <Chi0n>  (184) 
5.488665

>  <Chi0v>  (184) 
5.488665

>  <Chi1>  (184) 
4.966326

>  <Chi1n>  (184) 
3.254432

>  <Chi1v>  (184) 
3.254432

>  <Chi2n>  (184) 
2.222826

>  <Chi2v>  (184) 
2.222826

>  <Chi3n>  (184) 
1.549792

>  <Chi3v>  (184) 
1.549792

>  <Chi4n>  (184) 
1.026915

>  <Chi4v>  (184) 
1.026915

>  <HallKierAlpha>  (184) 
-1.37

>  <Ipc>  (184) 
348.570462

>  <Kappa1>  (184) 
5.417605

>  <Kappa2>  (184) 
2.102543

>  <Kappa3>  (184) 
0.759881

>  <LabuteASA>  (184) 
59.332716

>  <PEOE_VSA1>  (184) 
0.0

>  <PEOE_VSA10>  (184) 
0.0

>  <PEOE_VSA11>  (184) 
0.0

>  <PEOE_VSA12>  (184) 
0.0

>  <PEOE_VSA13>  (184) 
0.0

>  <PEOE_VSA14>  (184) 
0.0

>  <PEOE_VSA2>  (184) 
4.983979

>  <PEOE_VSA3>  (184) 
0.0

>  <PEOE_VSA4>  (184) 
0.0

>  <PEOE_VSA5>  (184) 
0.0

>  <PEOE_VSA6>  (184) 
24.265468

>  <PEOE_VSA7>  (184) 
16.838815

>  <PEOE_VSA8>  (184) 
12.393687

>  <PEOE_VSA9>  (184) 
0.0

>  <SMR_VSA1>  (184) 
0.0

>  <SMR_VSA10>  (184) 
10.772448

>  <SMR_VSA2>  (184) 
0.0

>  <SMR_VSA3>  (184) 
4.983979

>  <SMR_VSA4>  (184) 
0.0

>  <SMR_VSA5>  (184) 
0.0

>  <SMR_VSA6>  (184) 
0.0

>  <SMR_VSA7>  (184) 
42.725522

>  <SMR_VSA8>  (184) 
0.0

>  <SMR_VSA9>  (184) 
0.0

>  <SlogP_VSA1>  (184) 
0.0

>  <SlogP_VSA10>  (184) 
0.0

>  <SlogP_VSA11>  (184) 
0.0

>  <SlogP_VSA12>  (184) 
0.0

>  <SlogP_VSA2>  (184) 
4.983979

>  <SlogP_VSA3>  (184) 
0.0

>  <SlogP_VSA4>  (184) 
0.0

>  <SlogP_VSA5>  (184) 
0.0

>  <SlogP_VSA6>  (184) 
42.725522

>  <SlogP_VSA7>  (184) 
0.0

>  <SlogP_VSA8>  (184) 
10.772448

>  <SlogP_VSA9>  (184) 
0.0

>  <EState_VSA1>  (184) 
0.0

>  <EState_VSA10>  (184) 
0.0

>  <EState_VSA11>  (184) 
0.0

>  <EState_VSA2>  (184) 
0.0

>  <EState_VSA3>  (184) 
0.0

>  <EState_VSA4>  (184) 
0.0

>  <EState_VSA5>  (184) 
10.772448

>  <EState_VSA6>  (184) 
0.0

>  <EState_VSA7>  (184) 
30.592788

>  <EState_VSA8>  (184) 
17.116713

>  <EState_VSA9>  (184) 
0.0

>  <VSA_EState1>  (184) 
0.0

>  <VSA_EState10>  (184) 
0.0

>  <VSA_EState2>  (184) 
4.01287

>  <VSA_EState3>  (184) 
2.446759

>  <VSA_EState4>  (184) 
0.0

>  <VSA_EState5>  (184) 
0.0

>  <VSA_EState6>  (184) 
10.195463

>  <VSA_EState7>  (184) 
3.678241

>  <VSA_EState8>  (184) 
0.0

>  <VSA_EState9>  (184) 
0.0

>  <FractionCSP3>  (184) 
0.0

>  <HeavyAtomCount>  (184) 
10

>  <NHOHCount>  (184) 
0

>  <NOCount>  (184) 
1

>  <NumAliphaticCarbocycles>  (184) 
0

>  <NumAliphaticHeterocycles>  (184) 
0

>  <NumAliphaticRings>  (184) 
0

>  <NumAromaticCarbocycles>  (184) 
1

>  <NumAromaticHeterocycles>  (184) 
1

>  <NAR>  (184) 
2

>  <NumHAcceptors>  (184) 
1

>  <NumHDonors>  (184) 
0

>  <NumHeteroatoms>  (184) 
1

>  <NumRotatableBonds>  (184) 
0

>  <NumSaturatedCarbocycles>  (184) 
0

>  <NumSaturatedHeterocycles>  (184) 
0

>  <NumSaturatedRings>  (184) 
0

>  <RingCount>  (184) 
2

>  <MolLogP>  (184) 
2.2348

>  <MolMR>  (184) 
41.743

>  <fr_Al_COO>  (184) 
0

>  <fr_Al_OH>  (184) 
0

>  <fr_Al_OH_noTert>  (184) 
0

>  <fr_ArN>  (184) 
0

>  <fr_Ar_COO>  (184) 
0

>  <fr_Ar_N>  (184) 
1

>  <fr_Ar_NH>  (184) 
0

>  <fr_Ar_OH>  (184) 
0

>  <fr_COO>  (184) 
0

>  <fr_COO2>  (184) 
0

>  <fr_C_O>  (184) 
0

>  <fr_C_O_noCOO>  (184) 
0

>  <fr_C_S>  (184) 
0

>  <fr_HOCCN>  (184) 
0

>  <fr_Imine>  (184) 
0

>  <fr_NH0>  (184) 
1

>  <fr_NH1>  (184) 
0

>  <fr_NH2>  (184) 
0

>  <fr_N_O>  (184) 
0

>  <fr_Ndealkylation1>  (184) 
0

>  <fr_Ndealkylation2>  (184) 
0

>  <fr_Nhpyrrole>  (184) 
0

>  <fr_SH>  (184) 
0

>  <fr_aldehyde>  (184) 
0

>  <fr_alkyl_carbamate>  (184) 
0

>  <fr_alkyl_halide>  (184) 
0

>  <fr_allylic_oxid>  (184) 
0

>  <fr_amide>  (184) 
0

>  <fr_amidine>  (184) 
0

>  <fr_aniline>  (184) 
0

>  <fr_aryl_methyl>  (184) 
0

>  <fr_azide>  (184) 
0

>  <fr_azo>  (184) 
0

>  <fr_barbitur>  (184) 
0

>  <fr_benzene>  (184) 
1

>  <fr_benzodiazepine>  (184) 
0

>  <fr_bicyclic>  (184) 
1

>  <fr_diazo>  (184) 
0

>  <fr_dihydropyridine>  (184) 
0

>  <fr_epoxide>  (184) 
0

>  <fr_ester>  (184) 
0

>  <fr_ether>  (184) 
0

>  <fr_furan>  (184) 
0

>  <fr_guanido>  (184) 
0

>  <fr_halogen>  (184) 
0

>  <fr_hdrzine>  (184) 
0

>  <fr_hdrzone>  (184) 
0

>  <fr_imidazole>  (184) 
0

>  <fr_imide>  (184) 
0

>  <fr_isocyan>  (184) 
0

>  <fr_isothiocyan>  (184) 
0

>  <fr_ketone>  (184) 
0

>  <fr_ketone_Topliss>  (184) 
0

>  <fr_lactam>  (184) 
0

>  <fr_lactone>  (184) 
0

>  <fr_methoxy>  (184) 
0

>  <fr_morpholine>  (184) 
0

>  <fr_nitrile>  (184) 
0

>  <fr_nitro>  (184) 
0

>  <fr_nitro_arom>  (184) 
0

>  <fr_nitro_arom_nonortho>  (184) 
0

>  <fr_nitroso>  (184) 
0

>  <fr_oxazole>  (184) 
0

>  <fr_oxime>  (184) 
0

>  <fr_para_hydroxylation>  (184) 
0

>  <fr_phenol>  (184) 
0

>  <fr_phenol_noOrthoHbond>  (184) 
0

>  <fr_phos_acid>  (184) 
0

>  <fr_phos_ester>  (184) 
0

>  <fr_piperdine>  (184) 
0

>  <fr_piperzine>  (184) 
0

>  <fr_priamide>  (184) 
0

>  <fr_prisulfonamd>  (184) 
0

>  <fr_pyridine>  (184) 
1

>  <fr_quatN>  (184) 
0

>  <fr_sulfide>  (184) 
0

>  <fr_sulfonamd>  (184) 
0

>  <fr_sulfone>  (184) 
0

>  <fr_term_acetylene>  (184) 
0

>  <fr_tetrazole>  (184) 
0

>  <fr_thiazole>  (184) 
0

>  <fr_thiocyan>  (184) 
0

>  <fr_thiophene>  (184) 
0

>  <fr_unbrch_alkane>  (184) 
0

>  <fr_urea>  (184) 
0

>  <NP-Likeness>  (184) 
-0.727981

$$$$
ISQ
     RDKit          3D

  0  0  0  0  0  0  0  0  0  0999 V3000
M  V30 BEGIN CTAB
M  V30 COUNTS 17 18 0 0 0
M  V30 BEGIN ATOM
M  V30 1 C -0.744409 -1.172683 -0.078020 0
M  V30 2 N -1.124888 -1.309037 1.210016 0
M  V30 3 C -0.405538 -0.664395 2.173183 0
M  V30 4 C 0.671431 0.089191 1.756904 0
M  V30 5 C 1.446224 0.768786 2.664853 0
M  V30 6 C 2.530783 1.543718 2.386530 0
M  V30 7 C 2.878404 1.649573 1.045335 0
M  V30 8 C 2.136159 0.987872 0.081906 0
M  V30 9 C 1.047425 0.218564 0.436904 0
M  V30 10 C 0.316929 -0.435194 -0.533580 0
M  V30 11 H -1.352364 -1.708750 -0.814804 0
M  V30 12 H -0.644381 -0.722126 3.226228 0
M  V30 13 H 1.183817 0.694265 3.724790 0
M  V30 14 H 3.126557 2.068023 3.099920 0
M  V30 15 H 3.709390 2.222893 0.652718 0
M  V30 16 H 2.365668 1.037353 -0.983123 0
M  V30 17 H 0.575742 -0.360997 -1.572736 0
M  V30 END ATOM
M  V30 BEGIN BOND
M  V30 1 2 1 2
M  V30 2 1 2 3
M  V30 3 2 3 4
M  V30 4 1 4 5
M  V30 5 2 5 6
M  V30 6 1 6 7
M  V30 7 2 7 8
M  V30 8 1 8 9
M  V30 9 2 9 10
M  V30 10 1 10 1
M  V30 11 1 9 4
M  V30 12 1 1 11
M  V30 13 1 3 12
M  V30 14 1 5 13
M  V30 15 1 6 14
M  V30 16 1 7 15
M  V30 17 1 8 16
M  V30 18 1 10 17
M  V30 END BOND
M  V30 END CTAB
M  END
>  <Dataset>  (185) 
PDB

>  <Ligand_Instance>  (185) 
6YPP_ISQ_A_401

>  <PDB_ID>  (185) 
6YPP

>  <Standardized_SMILES>  (185) 
[H]C1=NC([H])=C2C([H])=C([H])C([H])=C([H])C2=C1[H]

>  <Name>  (185) 
ISOQUINOLINE

>  <Pocket>  (185) 
A

>  <ATP_Site>  (185) 
1.0

>  <Peripheral>  (185) 
0.0

>  <Num_H_Atoms_ProtBoundConf>  (185) 
7.0

>  <Num_Resolved_Atoms>  (185) 
10.0

>  <Num_Not_Resolved_Atoms>  (185) 
0.0

>  <2D_Mol_H>  (185) 
<rdkit.Chem.rdchem.Mol object at 0x72a238df0a50>

>  <MW>  (185) 
129.162

>  <HBA>  (185) 
1

>  <HBD>  (185) 
0

>  <LogP>  (185) 
2.2348

>  <NRB>  (185) 
0

>  <TPSA>  (185) 
12.89

>  <Num_Heavy_Atoms>  (185) 
10

>  <Ro5>  (185) 
[True, True, True, True, True, True]

>  <Ro5_Fulfilled>  (185) 
True

>  <Ro3>  (185) 
[True, True, True, True]

>  <Ro3_Fulfilled>  (185) 
True

>  <Fsp3>  (185) 
0.0

>  <Fsp3_0.42>  (185) 
False

>  <Fsp3_0.45>  (185) 
False

>  <Stereogenic_Carbons>  (185) 
0

>  <C_Atoms>  (185) 
9

>  <FCStereo>  (185) 
0.0

>  <SPS>  (185) 
100

>  <nSPS>  (185) 
10.0

>  <PBF>  (185) 
0.000008

>  <PBF_0.6>  (185) 
False

>  <nPBF>  (185) 
0.000001

>  <nPBF_0.016>  (185) 
False

>  <PMI1>  (185) 
154.511215

>  <PMI2>  (185) 
390.376065

>  <PMI3>  (185) 
544.887279

>  <NPR1>  (185) 
0.283565

>  <NPR2>  (185) 
0.716435

>  <Sum_NPR>  (185) 
1.0

>  <Sum_NPR_1.07>  (185) 
False

>  <Sum_NPR_1.2>  (185) 
False

>  <MaxAbsEStateIndex>  (185) 
4.01287

>  <MaxEStateIndex>  (185) 
4.01287

>  <MinAbsEStateIndex>  (185) 
1.199074

>  <MinEStateIndex>  (185) 
1.199074

>  <qed>  (185) 
0.531192

>  <MolWt>  (185) 
129.162

>  <HeavyAtomMolWt>  (185) 
122.106

>  <ExactMolWt>  (185) 
129.057849

>  <NumValenceElectrons>  (185) 
48

>  <NumRadicalElectrons>  (185) 
0

>  <MaxPartialCharge>  (185) 
0.034583

>  <MinPartialCharge>  (185) 
-0.264065

>  <MaxAbsPartialCharge>  (185) 
0.264065

>  <MinAbsPartialCharge>  (185) 
0.034583

>  <FpDensityMorgan1>  (185) 
0.9

>  <FpDensityMorgan2>  (185) 
1.7

>  <FpDensityMorgan3>  (185) 
2.5

>  <BCUT2D_MWHI>  (185) 
14.605792

>  <BCUT2D_MWLOW>  (185) 
10.173693

>  <BCUT2D_CHGHI>  (185) 
1.855635

>  <BCUT2D_CHGLO>  (185) 
-1.913294

>  <BCUT2D_LOGPHI>  (185) 
2.08921

>  <BCUT2D_LOGPLOW>  (185) 
-1.711249

>  <BCUT2D_MRHI>  (185) 
5.804471

>  <BCUT2D_MRLOW>  (185) 
1.364311

>  <AvgIpc>  (185) 
2.050414

>  <BalabanJ>  (185) 
2.888052

>  <BertzCT>  (185) 
275.705138

>  <Chi0>  (185) 
6.811555

>  <Chi0n>  (185) 
5.488665

>  <Chi0v>  (185) 
5.488665

>  <Chi1>  (185) 
4.966326

>  <Chi1n>  (185) 
3.254432

>  <Chi1v>  (185) 
3.254432

>  <Chi2n>  (185) 
2.222826

>  <Chi2v>  (185) 
2.222826

>  <Chi3n>  (185) 
1.549792

>  <Chi3v>  (185) 
1.549792

>  <Chi4n>  (185) 
1.026915

>  <Chi4v>  (185) 
1.026915

>  <HallKierAlpha>  (185) 
-1.37

>  <Ipc>  (185) 
348.570462

>  <Kappa1>  (185) 
5.417605

>  <Kappa2>  (185) 
2.102543

>  <Kappa3>  (185) 
0.759881

>  <LabuteASA>  (185) 
59.332716

>  <PEOE_VSA1>  (185) 
0.0

>  <PEOE_VSA10>  (185) 
0.0

>  <PEOE_VSA11>  (185) 
0.0

>  <PEOE_VSA12>  (185) 
0.0

>  <PEOE_VSA13>  (185) 
0.0

>  <PEOE_VSA14>  (185) 
0.0

>  <PEOE_VSA2>  (185) 
4.983979

>  <PEOE_VSA3>  (185) 
0.0

>  <PEOE_VSA4>  (185) 
0.0

>  <PEOE_VSA5>  (185) 
0.0

>  <PEOE_VSA6>  (185) 
24.265468

>  <PEOE_VSA7>  (185) 
16.838815

>  <PEOE_VSA8>  (185) 
12.393687

>  <PEOE_VSA9>  (185) 
0.0

>  <SMR_VSA1>  (185) 
0.0

>  <SMR_VSA10>  (185) 
10.772448

>  <SMR_VSA2>  (185) 
0.0

>  <SMR_VSA3>  (185) 
4.983979

>  <SMR_VSA4>  (185) 
0.0

>  <SMR_VSA5>  (185) 
0.0

>  <SMR_VSA6>  (185) 
0.0

>  <SMR_VSA7>  (185) 
42.725522

>  <SMR_VSA8>  (185) 
0.0

>  <SMR_VSA9>  (185) 
0.0

>  <SlogP_VSA1>  (185) 
0.0

>  <SlogP_VSA10>  (185) 
0.0

>  <SlogP_VSA11>  (185) 
0.0

>  <SlogP_VSA12>  (185) 
0.0

>  <SlogP_VSA2>  (185) 
4.983979

>  <SlogP_VSA3>  (185) 
0.0

>  <SlogP_VSA4>  (185) 
0.0

>  <SlogP_VSA5>  (185) 
0.0

>  <SlogP_VSA6>  (185) 
42.725522

>  <SlogP_VSA7>  (185) 
0.0

>  <SlogP_VSA8>  (185) 
10.772448

>  <SlogP_VSA9>  (185) 
0.0

>  <EState_VSA1>  (185) 
0.0

>  <EState_VSA10>  (185) 
0.0

>  <EState_VSA11>  (185) 
0.0

>  <EState_VSA2>  (185) 
0.0

>  <EState_VSA3>  (185) 
0.0

>  <EState_VSA4>  (185) 
0.0

>  <EState_VSA5>  (185) 
10.772448

>  <EState_VSA6>  (185) 
0.0

>  <EState_VSA7>  (185) 
30.592788

>  <EState_VSA8>  (185) 
17.116713

>  <EState_VSA9>  (185) 
0.0

>  <VSA_EState1>  (185) 
0.0

>  <VSA_EState10>  (185) 
0.0

>  <VSA_EState2>  (185) 
4.01287

>  <VSA_EState3>  (185) 
2.446759

>  <VSA_EState4>  (185) 
0.0

>  <VSA_EState5>  (185) 
0.0

>  <VSA_EState6>  (185) 
10.195463

>  <VSA_EState7>  (185) 
3.678241

>  <VSA_EState8>  (185) 
0.0

>  <VSA_EState9>  (185) 
0.0

>  <FractionCSP3>  (185) 
0.0

>  <HeavyAtomCount>  (185) 
10

>  <NHOHCount>  (185) 
0

>  <NOCount>  (185) 
1

>  <NumAliphaticCarbocycles>  (185) 
0

>  <NumAliphaticHeterocycles>  (185) 
0

>  <NumAliphaticRings>  (185) 
0

>  <NumAromaticCarbocycles>  (185) 
1

>  <NumAromaticHeterocycles>  (185) 
1

>  <NAR>  (185) 
2

>  <NumHAcceptors>  (185) 
1

>  <NumHDonors>  (185) 
0

>  <NumHeteroatoms>  (185) 
1

>  <NumRotatableBonds>  (185) 
0

>  <NumSaturatedCarbocycles>  (185) 
0

>  <NumSaturatedHeterocycles>  (185) 
0

>  <NumSaturatedRings>  (185) 
0

>  <RingCount>  (185) 
2

>  <MolLogP>  (185) 
2.2348

>  <MolMR>  (185) 
41.743

>  <fr_Al_COO>  (185) 
0

>  <fr_Al_OH>  (185) 
0

>  <fr_Al_OH_noTert>  (185) 
0

>  <fr_ArN>  (185) 
0

>  <fr_Ar_COO>  (185) 
0

>  <fr_Ar_N>  (185) 
1

>  <fr_Ar_NH>  (185) 
0

>  <fr_Ar_OH>  (185) 
0

>  <fr_COO>  (185) 
0

>  <fr_COO2>  (185) 
0

>  <fr_C_O>  (185) 
0

>  <fr_C_O_noCOO>  (185) 
0

>  <fr_C_S>  (185) 
0

>  <fr_HOCCN>  (185) 
0

>  <fr_Imine>  (185) 
0

>  <fr_NH0>  (185) 
1

>  <fr_NH1>  (185) 
0

>  <fr_NH2>  (185) 
0

>  <fr_N_O>  (185) 
0

>  <fr_Ndealkylation1>  (185) 
0

>  <fr_Ndealkylation2>  (185) 
0

>  <fr_Nhpyrrole>  (185) 
0

>  <fr_SH>  (185) 
0

>  <fr_aldehyde>  (185) 
0

>  <fr_alkyl_carbamate>  (185) 
0

>  <fr_alkyl_halide>  (185) 
0

>  <fr_allylic_oxid>  (185) 
0

>  <fr_amide>  (185) 
0

>  <fr_amidine>  (185) 
0

>  <fr_aniline>  (185) 
0

>  <fr_aryl_methyl>  (185) 
0

>  <fr_azide>  (185) 
0

>  <fr_azo>  (185) 
0

>  <fr_barbitur>  (185) 
0

>  <fr_benzene>  (185) 
1

>  <fr_benzodiazepine>  (185) 
0

>  <fr_bicyclic>  (185) 
1

>  <fr_diazo>  (185) 
0

>  <fr_dihydropyridine>  (185) 
0

>  <fr_epoxide>  (185) 
0

>  <fr_ester>  (185) 
0

>  <fr_ether>  (185) 
0

>  <fr_furan>  (185) 
0

>  <fr_guanido>  (185) 
0

>  <fr_halogen>  (185) 
0

>  <fr_hdrzine>  (185) 
0

>  <fr_hdrzone>  (185) 
0

>  <fr_imidazole>  (185) 
0

>  <fr_imide>  (185) 
0

>  <fr_isocyan>  (185) 
0

>  <fr_isothiocyan>  (185) 
0

>  <fr_ketone>  (185) 
0

>  <fr_ketone_Topliss>  (185) 
0

>  <fr_lactam>  (185) 
0

>  <fr_lactone>  (185) 
0

>  <fr_methoxy>  (185) 
0

>  <fr_morpholine>  (185) 
0

>  <fr_nitrile>  (185) 
0

>  <fr_nitro>  (185) 
0

>  <fr_nitro_arom>  (185) 
0

>  <fr_nitro_arom_nonortho>  (185) 
0

>  <fr_nitroso>  (185) 
0

>  <fr_oxazole>  (185) 
0

>  <fr_oxime>  (185) 
0

>  <fr_para_hydroxylation>  (185) 
0

>  <fr_phenol>  (185) 
0

>  <fr_phenol_noOrthoHbond>  (185) 
0

>  <fr_phos_acid>  (185) 
0

>  <fr_phos_ester>  (185) 
0

>  <fr_piperdine>  (185) 
0

>  <fr_piperzine>  (185) 
0

>  <fr_priamide>  (185) 
0

>  <fr_prisulfonamd>  (185) 
0

>  <fr_pyridine>  (185) 
1

>  <fr_quatN>  (185) 
0

>  <fr_sulfide>  (185) 
0

>  <fr_sulfonamd>  (185) 
0

>  <fr_sulfone>  (185) 
0

>  <fr_term_acetylene>  (185) 
0

>  <fr_tetrazole>  (185) 
0

>  <fr_thiazole>  (185) 
0

>  <fr_thiocyan>  (185) 
0

>  <fr_thiophene>  (185) 
0

>  <fr_unbrch_alkane>  (185) 
0

>  <fr_urea>  (185) 
0

>  <NP-Likeness>  (185) 
-0.727981

$$$$
J0G
     RDKit          3D

  0  0  0  0  0  0  0  0  0  0999 V3000
M  V30 BEGIN CTAB
M  V30 COUNTS 56 58 0 0 0
M  V30 BEGIN ATOM
M  V30 1 C 3.365814 -6.187141 1.731727 0
M  V30 2 N 4.547646 -5.907747 2.321549 0
M  V30 3 C 4.937609 -4.614081 2.465298 0
M  V30 4 C 4.140044 -3.560815 2.014657 0
M  V30 5 C 2.924937 -3.827597 1.407371 0
M  V30 6 C 2.150031 -2.682701 0.964389 0
M  V30 7 C 2.185623 -1.477405 1.621488 0
M  V30 8 C 1.452111 -0.391490 1.201242 0
M  V30 9 C 0.653337 -0.484867 0.097911 0
M  V30 10 C -0.108728 0.673934 -0.330801 0
M  V30 11 O -0.889175 0.906756 -1.269992 0
M  V30 12 N -0.045908 1.893034 0.393325 0
M  V30 13 C -0.714684 3.130836 0.128918 0 CFG=1
M  V30 14 C -1.669276 3.322907 1.281439 0
M  V30 15 C -1.855584 4.495927 1.982896 0
M  V30 16 C -2.773562 4.519976 3.021876 0
M  V30 17 C -3.503491 3.386147 3.364181 0
M  V30 18 C -3.330058 2.213636 2.677320 0
M  V30 19 O -4.070090 1.097550 3.037908 0
M  V30 20 C -3.933180 -0.154376 2.358759 0
M  V30 21 C -2.416863 2.223440 1.657594 0
M  V30 22 C 0.179971 4.329257 0.043199 0
M  V30 23 C 0.577669 -1.668221 -0.600878 0
M  V30 24 N -0.221929 -1.870946 -1.758736 0
M  V30 25 C -0.230180 -3.143350 -2.413473 0
M  V30 26 C -1.118993 -3.199365 -3.610487 0
M  V30 27 N -1.091932 -4.502079 -4.236110 0 CHG=1 VAL=4
M  V30 28 C 1.337672 -2.730098 -0.133639 0
M  V30 29 C 2.553509 -5.148855 1.274152 0
M  V30 30 H 3.073088 -7.213886 1.626097 0
M  V30 31 H 5.898962 -4.499094 2.951001 0
M  V30 32 H 4.580741 -2.569005 2.197434 0
M  V30 33 H 2.838315 -1.444483 2.502085 0
M  V30 34 H 1.594769 0.468144 1.824921 0
M  V30 35 H 0.534477 2.058267 1.271124 0
M  V30 36 H -1.344225 3.108368 -0.785913 0
M  V30 37 H -1.267741 5.329145 1.674308 0
M  V30 38 H -2.873833 5.485582 3.538654 0
M  V30 39 H -4.204104 3.454208 4.178009 0
M  V30 40 H -2.887743 -0.389030 2.152562 0
M  V30 41 H -4.581551 -0.137961 1.457488 0
M  V30 42 H -4.341707 -0.962227 3.006662 0
M  V30 43 H -2.298459 1.270687 1.125488 0
M  V30 44 H 0.631748 4.615077 1.005129 0
M  V30 45 H -0.465206 5.187953 -0.247177 0
M  V30 46 H 0.915540 4.188529 -0.764025 0
M  V30 47 H -0.834400 -1.165592 -2.211552 0
M  V30 48 H -0.514908 -3.980353 -1.744560 0
M  V30 49 H 0.817928 -3.397204 -2.736940 0
M  V30 50 H -0.956983 -2.366866 -4.323765 0
M  V30 51 H -2.176856 -3.048162 -3.244996 0
M  V30 52 H -1.611373 -4.398760 -5.148836 0
M  V30 53 H -1.697867 -5.139247 -3.644497 0
M  V30 54 H -0.132384 -4.870177 -4.353596 0
M  V30 55 H 1.294593 -3.686955 -0.673007 0
M  V30 56 H 1.600343 -5.345088 0.797666 0
M  V30 END ATOM
M  V30 BEGIN BOND
M  V30 1 2 1 2
M  V30 2 1 2 3
M  V30 3 2 3 4
M  V30 4 1 4 5
M  V30 5 1 5 6
M  V30 6 2 6 7
M  V30 7 1 7 8
M  V30 8 2 8 9
M  V30 9 1 9 10
M  V30 10 2 10 11
M  V30 11 1 10 12
M  V30 12 1 12 13
M  V30 13 1 13 14
M  V30 14 2 14 15
M  V30 15 1 15 16
M  V30 16 2 16 17
M  V30 17 1 17 18
M  V30 18 1 18 19
M  V30 19 1 19 20
M  V30 20 2 18 21
M  V30 21 1 13 22
M  V30 22 1 9 23
M  V30 23 1 23 24
M  V30 24 1 24 25
M  V30 25 1 25 26
M  V30 26 1 26 27
M  V30 27 2 23 28
M  V30 28 2 5 29
M  V30 29 1 29 1
M  V30 30 1 28 6
M  V30 31 1 21 14
M  V30 32 1 1 30
M  V30 33 1 3 31
M  V30 34 1 4 32
M  V30 35 1 7 33
M  V30 36 1 8 34
M  V30 37 1 12 35
M  V30 38 1 13 36 CFG=3
M  V30 39 1 15 37
M  V30 40 1 16 38
M  V30 41 1 17 39
M  V30 42 1 20 40
M  V30 43 1 20 41
M  V30 44 1 20 42
M  V30 45 1 21 43
M  V30 46 1 22 44
M  V30 47 1 22 45
M  V30 48 1 22 46
M  V30 49 1 24 47
M  V30 50 1 25 48
M  V30 51 1 25 49
M  V30 52 1 26 50
M  V30 53 1 26 51
M  V30 54 1 27 52
M  V30 55 1 27 53
M  V30 56 1 27 54
M  V30 57 1 28 55
M  V30 58 1 29 56
M  V30 END BOND
M  V30 END CTAB
M  END
>  <Dataset>  (186) 
PDB

>  <Ligand_Instance>  (186) 
6E99_J0G_A_601

>  <PDB_ID>  (186) 
6000000000000000289684235881132415372962675820719059498109480439862655388483469610378510512034938880.0

>  <Standardized_SMILES>  (186) 
[H]C1=NC([H])=C([H])C(C2=C([H])C([H])=C(C(=O)N([H])[C@@]([H])(C3=C([H])C([H])=C([H])C(OC([H])([H])[H])=C3[H])C([H])([H])[H])C(N([H])C([H])([H])C([H])([H])[N+]([H])([H])[H])=C2[H])=C1[H]

>  <Name>  (186) 
2-[(2-aminoethyl)amino]-N-[(1R)-1-(3-methoxyphenyl)ethyl]-4-(pyridin-4-yl)benzamide

>  <Pocket>  (186) 
A

>  <ATP_Site>  (186) 
1.0

>  <Peripheral>  (186) 
0.0

>  <Num_H_Atoms_ProtBoundConf>  (186) 
27.0

>  <Num_Resolved_Atoms>  (186) 
29.0

>  <Num_Not_Resolved_Atoms>  (186) 
0.0

>  <2D_Mol_H>  (186) 
<rdkit.Chem.rdchem.Mol object at 0x72a238df0b30>

>  <MW>  (186) 
391.495

>  <HBA>  (186) 
4

>  <HBD>  (186) 
3

>  <LogP>  (186) 
2.902

>  <NRB>  (186) 
11

>  <TPSA>  (186) 
90.89

>  <Num_Heavy_Atoms>  (186) 
29

>  <Ro5>  (186) 
[True, True, True, True, False, True]

>  <Ro5_Fulfilled>  (186) 
True

>  <Ro3>  (186) 
[False, False, True, True]

>  <Ro3_Fulfilled>  (186) 
False

>  <Fsp3>  (186) 
0.217391

>  <Fsp3_0.42>  (186) 
False

>  <Fsp3_0.45>  (186) 
False

>  <Stereogenic_Carbons>  (186) 
1

>  <C_Atoms>  (186) 
23

>  <FCStereo>  (186) 
0.043478

>  <SPS>  (186) 
335

>  <nSPS>  (186) 
11.551724

>  <PBF>  (186) 
1.24958

>  <PBF_0.6>  (186) 
True

>  <nPBF>  (186) 
0.043089

>  <nPBF_0.016>  (186) 
True

>  <PMI1>  (186) 
2451.094628

>  <PMI2>  (186) 
6524.032086

>  <PMI3>  (186) 
7473.433202

>  <NPR1>  (186) 
0.327974

>  <NPR2>  (186) 
0.872963

>  <Sum_NPR>  (186) 
1.200938

>  <Sum_NPR_1.07>  (186) 
True

>  <Sum_NPR_1.2>  (186) 
True

>  <MaxAbsEStateIndex>  (186) 
13.006683

>  <MaxEStateIndex>  (186) 
13.006683

>  <MinAbsEStateIndex>  (186) 
0.131333

>  <MinEStateIndex>  (186) 
-0.154476

>  <qed>  (186) 
0.550636

>  <MolWt>  (186) 
391.495

>  <HeavyAtomMolWt>  (186) 
364.279

>  <ExactMolWt>  (186) 
391.212853

>  <NumValenceElectrons>  (186) 
150

>  <NumRadicalElectrons>  (186) 
0

>  <MaxPartialCharge>  (186) 
0.25335

>  <MinPartialCharge>  (186) 
-0.496757

>  <MaxAbsPartialCharge>  (186) 
0.496757

>  <MinAbsPartialCharge>  (186) 
0.25335

>  <FpDensityMorgan1>  (186) 
1.103448

>  <FpDensityMorgan2>  (186) 
1.896552

>  <FpDensityMorgan3>  (186) 
2.62069

>  <BCUT2D_MWHI>  (186) 
16.465316

>  <BCUT2D_MWLOW>  (186) 
10.016426

>  <BCUT2D_CHGHI>  (186) 
2.161357

>  <BCUT2D_CHGLO>  (186) 
-2.176999

>  <BCUT2D_LOGPHI>  (186) 
2.262937

>  <BCUT2D_LOGPLOW>  (186) 
-2.527192

>  <BCUT2D_MRHI>  (186) 
6.003308

>  <BCUT2D_MRLOW>  (186) 
-0.362426

>  <AvgIpc>  (186) 
2.77573

>  <BalabanJ>  (186) 
1.841855

>  <BertzCT>  (186) 
960.101476

>  <Chi0>  (186) 
20.639617

>  <Chi0n>  (186) 
16.813234

>  <Chi0v>  (186) 
16.813234

>  <Chi1>  (186) 
14.117724

>  <Chi1n>  (186) 
9.644566

>  <Chi1v>  (186) 
9.644566

>  <Chi2n>  (186) 
6.748345

>  <Chi2v>  (186) 
6.748345

>  <Chi3n>  (186) 
4.71147

>  <Chi3v>  (186) 
4.71147

>  <Chi4n>  (186) 
3.104078

>  <Chi4v>  (186) 
3.104078

>  <HallKierAlpha>  (186) 
-3.38

>  <Ipc>  (186) 
4107403.479039

>  <Kappa1>  (186) 
20.356723

>  <Kappa2>  (186) 
9.705329

>  <Kappa3>  (186) 
5.116344

>  <LabuteASA>  (186) 
170.669575

>  <PEOE_VSA1>  (186) 
21.104108

>  <PEOE_VSA10>  (186) 
5.749512

>  <PEOE_VSA11>  (186) 
0.0

>  <PEOE_VSA12>  (186) 
0.0

>  <PEOE_VSA13>  (186) 
5.90718

>  <PEOE_VSA14>  (186) 
0.0

>  <PEOE_VSA2>  (186) 
9.778516

>  <PEOE_VSA3>  (186) 
0.0

>  <PEOE_VSA4>  (186) 
0.0

>  <PEOE_VSA5>  (186) 
0.0

>  <PEOE_VSA6>  (186) 
18.199101

>  <PEOE_VSA7>  (186) 
60.012294

>  <PEOE_VSA8>  (186) 
18.081073

>  <PEOE_VSA9>  (186) 
31.804603

>  <SMR_VSA1>  (186) 
15.265068

>  <SMR_VSA10>  (186) 
11.594566

>  <SMR_VSA2>  (186) 
0.0

>  <SMR_VSA3>  (186) 
10.300767

>  <SMR_VSA4>  (186) 
0.0

>  <SMR_VSA5>  (186) 
12.965578

>  <SMR_VSA6>  (186) 
25.516099

>  <SMR_VSA7>  (186) 
78.117894

>  <SMR_VSA8>  (186) 
0.0

>  <SMR_VSA9>  (186) 
16.876415

>  <SlogP_VSA1>  (186) 
21.104108

>  <SlogP_VSA10>  (186) 
5.687386

>  <SlogP_VSA11>  (186) 
5.749512

>  <SlogP_VSA12>  (186) 
0.0

>  <SlogP_VSA2>  (186) 
31.090469

>  <SlogP_VSA3>  (186) 
0.0

>  <SlogP_VSA4>  (186) 
0.0

>  <SlogP_VSA5>  (186) 
28.887018

>  <SlogP_VSA6>  (186) 
66.990991

>  <SlogP_VSA7>  (186) 
0.0

>  <SlogP_VSA8>  (186) 
11.126903

>  <SlogP_VSA9>  (186) 
0.0

>  <EState_VSA1>  (186) 
0.0

>  <EState_VSA10>  (186) 
4.794537

>  <EState_VSA11>  (186) 
0.0

>  <EState_VSA2>  (186) 
11.949021

>  <EState_VSA3>  (186) 
12.108208

>  <EState_VSA4>  (186) 
34.672009

>  <EState_VSA5>  (186) 
0.0

>  <EState_VSA6>  (186) 
19.503485

>  <EState_VSA7>  (186) 
61.521041

>  <EState_VSA8>  (186) 
21.351223

>  <EState_VSA9>  (186) 
4.736863

>  <VSA_EState1>  (186) 
5.280176

>  <VSA_EState10>  (186) 
0.0

>  <VSA_EState2>  (186) 
17.072218

>  <VSA_EState3>  (186) 
6.406024

>  <VSA_EState4>  (186) 
8.329297

>  <VSA_EState5>  (186) 
0.63543

>  <VSA_EState6>  (186) 
17.258739

>  <VSA_EState7>  (186) 
3.517523

>  <VSA_EState8>  (186) 
3.368402

>  <VSA_EState9>  (186) 
1.632191

>  <FractionCSP3>  (186) 
0.217391

>  <HeavyAtomCount>  (186) 
29

>  <NHOHCount>  (186) 
5

>  <NOCount>  (186) 
6

>  <NumAliphaticCarbocycles>  (186) 
0

>  <NumAliphaticHeterocycles>  (186) 
0

>  <NumAliphaticRings>  (186) 
0

>  <NumAromaticCarbocycles>  (186) 
2

>  <NumAromaticHeterocycles>  (186) 
1

>  <NAR>  (186) 
3

>  <NumHAcceptors>  (186) 
4

>  <NumHDonors>  (186) 
3

>  <NumHeteroatoms>  (186) 
6

>  <NumRotatableBonds>  (186) 
8

>  <NumSaturatedCarbocycles>  (186) 
0

>  <NumSaturatedHeterocycles>  (186) 
0

>  <NumSaturatedRings>  (186) 
0

>  <RingCount>  (186) 
3

>  <MolLogP>  (186) 
2.902

>  <MolMR>  (186) 
114.793

>  <fr_Al_COO>  (186) 
0

>  <fr_Al_OH>  (186) 
0

>  <fr_Al_OH_noTert>  (186) 
0

>  <fr_ArN>  (186) 
0

>  <fr_Ar_COO>  (186) 
0

>  <fr_Ar_N>  (186) 
1

>  <fr_Ar_NH>  (186) 
0

>  <fr_Ar_OH>  (186) 
0

>  <fr_COO>  (186) 
0

>  <fr_COO2>  (186) 
0

>  <fr_C_O>  (186) 
1

>  <fr_C_O_noCOO>  (186) 
1

>  <fr_C_S>  (186) 
0

>  <fr_HOCCN>  (186) 
0

>  <fr_Imine>  (186) 
0

>  <fr_NH0>  (186) 
1

>  <fr_NH1>  (186) 
2

>  <fr_NH2>  (186) 
0

>  <fr_N_O>  (186) 
0

>  <fr_Ndealkylation1>  (186) 
0

>  <fr_Ndealkylation2>  (186) 
0

>  <fr_Nhpyrrole>  (186) 
0

>  <fr_SH>  (186) 
0

>  <fr_aldehyde>  (186) 
0

>  <fr_alkyl_carbamate>  (186) 
0

>  <fr_alkyl_halide>  (186) 
0

>  <fr_allylic_oxid>  (186) 
0

>  <fr_amide>  (186) 
1

>  <fr_amidine>  (186) 
0

>  <fr_aniline>  (186) 
1

>  <fr_aryl_methyl>  (186) 
0

>  <fr_azide>  (186) 
0

>  <fr_azo>  (186) 
0

>  <fr_barbitur>  (186) 
0

>  <fr_benzene>  (186) 
2

>  <fr_benzodiazepine>  (186) 
0

>  <fr_bicyclic>  (186) 
0

>  <fr_diazo>  (186) 
0

>  <fr_dihydropyridine>  (186) 
0

>  <fr_epoxide>  (186) 
0

>  <fr_ester>  (186) 
0

>  <fr_ether>  (186) 
1

>  <fr_furan>  (186) 
0

>  <fr_guanido>  (186) 
0

>  <fr_halogen>  (186) 
0

>  <fr_hdrzine>  (186) 
0

>  <fr_hdrzone>  (186) 
0

>  <fr_imidazole>  (186) 
0

>  <fr_imide>  (186) 
0

>  <fr_isocyan>  (186) 
0

>  <fr_isothiocyan>  (186) 
0

>  <fr_ketone>  (186) 
0

>  <fr_ketone_Topliss>  (186) 
0

>  <fr_lactam>  (186) 
0

>  <fr_lactone>  (186) 
0

>  <fr_methoxy>  (186) 
1

>  <fr_morpholine>  (186) 
0

>  <fr_nitrile>  (186) 
0

>  <fr_nitro>  (186) 
0

>  <fr_nitro_arom>  (186) 
0

>  <fr_nitro_arom_nonortho>  (186) 
0

>  <fr_nitroso>  (186) 
0

>  <fr_oxazole>  (186) 
0

>  <fr_oxime>  (186) 
0

>  <fr_para_hydroxylation>  (186) 
0

>  <fr_phenol>  (186) 
0

>  <fr_phenol_noOrthoHbond>  (186) 
0

>  <fr_phos_acid>  (186) 
0

>  <fr_phos_ester>  (186) 
0

>  <fr_piperdine>  (186) 
0

>  <fr_piperzine>  (186) 
0

>  <fr_priamide>  (186) 
0

>  <fr_prisulfonamd>  (186) 
0

>  <fr_pyridine>  (186) 
1

>  <fr_quatN>  (186) 
1

>  <fr_sulfide>  (186) 
0

>  <fr_sulfonamd>  (186) 
0

>  <fr_sulfone>  (186) 
0

>  <fr_term_acetylene>  (186) 
0

>  <fr_tetrazole>  (186) 
0

>  <fr_thiazole>  (186) 
0

>  <fr_thiocyan>  (186) 
0

>  <fr_thiophene>  (186) 
0

>  <fr_unbrch_alkane>  (186) 
0

>  <fr_urea>  (186) 
0

>  <NP-Likeness>  (186) 
-1.176693

$$$$
J0P
     RDKit          3D

  0  0  0  0  0  0  0  0  0  0999 V3000
M  V30 BEGIN CTAB
M  V30 COUNTS 44 47 0 0 0
M  V30 BEGIN ATOM
M  V30 1 C -0.488483 -7.399197 -0.979689 0
M  V30 2 N 0.342819 -8.067179 -0.153049 0
M  V30 3 C 1.261738 -7.441113 0.604268 0
M  V30 4 C 1.316546 -6.055989 0.494898 0
M  V30 5 C 0.483326 -5.340605 -0.338867 0
M  V30 6 C 0.630441 -3.890619 -0.371850 0
M  V30 7 C -0.499674 -3.141551 -0.623026 0
M  V30 8 C -0.427229 -1.750065 -0.667536 0
M  V30 9 C 0.776390 -1.109142 -0.460713 0
M  V30 10 C 0.993676 0.336338 -0.479057 0
M  V30 11 O 2.142584 0.854792 -0.283189 0
M  V30 12 N -0.024602 1.294680 -0.710940 0
M  V30 13 C 0.184735 2.722046 -0.730467 0
M  V30 14 C 0.717320 3.258160 0.551567 0
M  V30 15 C 2.060477 3.617270 0.647970 0
M  V30 16 C 2.617568 4.118279 1.795697 0
M  V30 17 C 1.836550 4.286447 2.925528 0
M  V30 18 C 0.501920 3.925568 2.816736 0
M  V30 19 C -0.065805 3.423469 1.673631 0
M  V30 20 O -1.410486 3.080870 1.629848 0
M  V30 21 C -2.250829 3.204738 2.778109 0
M  V30 22 C -1.454166 3.279994 4.065456 0
M  V30 23 O -0.299485 4.085295 3.935704 0
M  V30 24 C 1.879437 -1.899989 -0.213057 0
M  V30 25 C 1.849055 -3.277557 -0.160896 0
M  V30 26 C -0.437491 -6.015716 -1.092267 0
M  V30 27 H -1.230642 -7.926622 -1.589051 0
M  V30 28 H 1.918880 -8.004548 1.262006 0
M  V30 29 H 2.052047 -5.563131 1.102111 0
M  V30 30 H -1.506365 -3.530158 -0.802392 0
M  V30 31 H -1.280563 -1.131386 -0.859573 0
M  V30 32 H -0.990856 0.880887 -0.876252 0
M  V30 33 H -0.788044 3.209924 -0.949397 0
M  V30 34 H 0.866021 2.979027 -1.573599 0
M  V30 35 H 2.756333 3.526116 -0.179217 0
M  V30 36 H 3.669231 4.398888 1.869714 0
M  V30 37 H 2.290967 4.681478 3.819251 0
M  V30 38 H -2.873832 4.111907 2.690815 0
M  V30 39 H -2.908026 2.318340 2.782085 0
M  V30 40 H -2.105994 3.763926 4.836356 0
M  V30 41 H -1.205635 2.268243 4.449862 0
M  V30 42 H 2.857948 -1.433801 -0.042606 0
M  V30 43 H 2.740498 -3.858071 0.036537 0
M  V30 44 H -1.100414 -5.461062 -1.753874 0
M  V30 END ATOM
M  V30 BEGIN BOND
M  V30 1 2 1 2
M  V30 2 1 2 3
M  V30 3 2 3 4
M  V30 4 1 4 5
M  V30 5 1 5 6
M  V30 6 2 6 7
M  V30 7 1 7 8
M  V30 8 2 8 9
M  V30 9 1 9 10
M  V30 10 2 10 11
M  V30 11 1 10 12
M  V30 12 1 12 13
M  V30 13 1 13 14
M  V30 14 2 14 15
M  V30 15 1 15 16
M  V30 16 2 16 17
M  V30 17 1 17 18
M  V30 18 2 18 19
M  V30 19 1 19 20
M  V30 20 1 20 21
M  V30 21 1 21 22
M  V30 22 1 22 23
M  V30 23 1 9 24
M  V30 24 2 24 25
M  V30 25 2 5 26
M  V30 26 1 26 1
M  V30 27 1 25 6
M  V30 28 1 19 14
M  V30 29 1 23 18
M  V30 30 1 1 27
M  V30 31 1 3 28
M  V30 32 1 4 29
M  V30 33 1 7 30
M  V30 34 1 8 31
M  V30 35 1 12 32
M  V30 36 1 13 33
M  V30 37 1 13 34
M  V30 38 1 15 35
M  V30 39 1 16 36
M  V30 40 1 17 37
M  V30 41 1 21 38
M  V30 42 1 21 39
M  V30 43 1 22 40
M  V30 44 1 22 41
M  V30 45 1 24 42
M  V30 46 1 25 43
M  V30 47 1 26 44
M  V30 END BOND
M  V30 END CTAB
M  END
>  <Dataset>  (187) 
PDB

>  <Ligand_Instance>  (187) 
6E9L_J0P_A_401

>  <PDB_ID>  (187) 
6E9L

>  <Standardized_SMILES>  (187) 
[H]C1=NC([H])=C([H])C(C2=C([H])C([H])=C(C(=O)N([H])C([H])([H])C3=C([H])C([H])=C([H])C4=C3OC([H])([H])C([H])([H])O4)C([H])=C2[H])=C1[H]

>  <Name>  (187) 
N-[(2,3-dihydro-1,4-benzodioxin-5-yl)methyl]-4-(pyridin-4-yl)benzamide

>  <Pocket>  (187) 
A

>  <ATP_Site>  (187) 
1.0

>  <Peripheral>  (187) 
0.0

>  <Num_H_Atoms_ProtBoundConf>  (187) 
18.0

>  <Num_Resolved_Atoms>  (187) 
26.0

>  <Num_Not_Resolved_Atoms>  (187) 
0.0

>  <2D_Mol_H>  (187) 
<rdkit.Chem.rdchem.Mol object at 0x72a238df0c10>

>  <MW>  (187) 
346.386

>  <HBA>  (187) 
4

>  <HBD>  (187) 
1

>  <LogP>  (187) 
3.4498

>  <NRB>  (187) 
4

>  <TPSA>  (187) 
60.45

>  <Num_Heavy_Atoms>  (187) 
26

>  <Ro5>  (187) 
[True, True, True, True, True, True]

>  <Ro5_Fulfilled>  (187) 
True

>  <Ro3>  (187) 
[False, False, True, False]

>  <Ro3_Fulfilled>  (187) 
False

>  <Fsp3>  (187) 
0.142857

>  <Fsp3_0.42>  (187) 
False

>  <Fsp3_0.45>  (187) 
False

>  <Stereogenic_Carbons>  (187) 
0

>  <C_Atoms>  (187) 
21

>  <FCStereo>  (187) 
0.0

>  <SPS>  (187) 
324

>  <nSPS>  (187) 
12.461538

>  <PBF>  (187) 
1.167761

>  <PBF_0.6>  (187) 
True

>  <nPBF>  (187) 
0.044914

>  <nPBF_0.016>  (187) 
True

>  <PMI1>  (187) 
1051.605417

>  <PMI2>  (187) 
6842.693696

>  <PMI3>  (187) 
7088.773858

>  <NPR1>  (187) 
0.148348

>  <NPR2>  (187) 
0.965286

>  <Sum_NPR>  (187) 
1.113634

>  <Sum_NPR_1.07>  (187) 
True

>  <Sum_NPR_1.2>  (187) 
False

>  <MaxAbsEStateIndex>  (187) 
12.440709

>  <MaxEStateIndex>  (187) 
12.440709

>  <MinAbsEStateIndex>  (187) 
0.124436

>  <MinEStateIndex>  (187) 
-0.124436

>  <qed>  (187) 
0.785973

>  <MolWt>  (187) 
346.386

>  <HeavyAtomMolWt>  (187) 
328.242

>  <ExactMolWt>  (187) 
346.131742

>  <NumValenceElectrons>  (187) 
130

>  <NumRadicalElectrons>  (187) 
0

>  <MaxPartialCharge>  (187) 
0.251047

>  <MinPartialCharge>  (187) 
-0.486135

>  <MaxAbsPartialCharge>  (187) 
0.486135

>  <MinAbsPartialCharge>  (187) 
0.251047

>  <FpDensityMorgan1>  (187) 
0.923077

>  <FpDensityMorgan2>  (187) 
1.653846

>  <FpDensityMorgan3>  (187) 
2.461538

>  <BCUT2D_MWHI>  (187) 
16.562946

>  <BCUT2D_MWLOW>  (187) 
10.04847

>  <BCUT2D_CHGHI>  (187) 
2.157942

>  <BCUT2D_CHGLO>  (187) 
-2.206301

>  <BCUT2D_LOGPHI>  (187) 
2.330118

>  <BCUT2D_LOGPLOW>  (187) 
-2.239192

>  <BCUT2D_MRHI>  (187) 
5.942328

>  <BCUT2D_MRLOW>  (187) 
0.094963

>  <AvgIpc>  (187) 
2.72519

>  <BalabanJ>  (187) 
1.441998

>  <BertzCT>  (187) 
908.299133

>  <Chi0>  (187) 
17.769374

>  <Chi0n>  (187) 
14.144132

>  <Chi0v>  (187) 
14.144132

>  <Chi1>  (187) 
12.809663

>  <Chi1n>  (187) 
8.472628

>  <Chi1v>  (187) 
8.472628

>  <Chi2n>  (187) 
5.937237

>  <Chi2v>  (187) 
5.937237

>  <Chi3n>  (187) 
4.247889

>  <Chi3v>  (187) 
4.247889

>  <Chi4n>  (187) 
2.909308

>  <Chi4v>  (187) 
2.909308

>  <HallKierAlpha>  (187) 
-3.34

>  <Ipc>  (187) 
1580784.843015

>  <Kappa1>  (187) 
16.145946

>  <Kappa2>  (187) 
7.270368

>  <Kappa3>  (187) 
3.372509

>  <LabuteASA>  (187) 
151.157652

>  <PEOE_VSA1>  (187) 
14.790515

>  <PEOE_VSA10>  (187) 
13.213764

>  <PEOE_VSA11>  (187) 
11.499024

>  <PEOE_VSA12>  (187) 
0.0

>  <PEOE_VSA13>  (187) 
5.90718

>  <PEOE_VSA14>  (187) 
0.0

>  <PEOE_VSA2>  (187) 
9.778516

>  <PEOE_VSA3>  (187) 
0.0

>  <PEOE_VSA4>  (187) 
0.0

>  <PEOE_VSA5>  (187) 
0.0

>  <PEOE_VSA6>  (187) 
24.265468

>  <PEOE_VSA7>  (187) 
41.458738

>  <PEOE_VSA8>  (187) 
30.065347

>  <PEOE_VSA9>  (187) 
0.0

>  <SMR_VSA1>  (187) 
14.268263

>  <SMR_VSA10>  (187) 
5.90718

>  <SMR_VSA2>  (187) 
0.0

>  <SMR_VSA3>  (187) 
10.300767

>  <SMR_VSA4>  (187) 
0.0

>  <SMR_VSA5>  (187) 
6.544756

>  <SMR_VSA6>  (187) 
13.213764

>  <SMR_VSA7>  (187) 
78.117894

>  <SMR_VSA8>  (187) 
0.0

>  <SMR_VSA9>  (187) 
22.625927

>  <SlogP_VSA1>  (187) 
14.790515

>  <SlogP_VSA10>  (187) 
0.0

>  <SlogP_VSA11>  (187) 
11.499024

>  <SlogP_VSA12>  (187) 
0.0

>  <SlogP_VSA2>  (187) 
24.104922

>  <SlogP_VSA3>  (187) 
6.544756

>  <SlogP_VSA4>  (187) 
0.0

>  <SlogP_VSA5>  (187) 
15.92144

>  <SlogP_VSA6>  (187) 
66.990991

>  <SlogP_VSA7>  (187) 
0.0

>  <SlogP_VSA8>  (187) 
11.126903

>  <SlogP_VSA9>  (187) 
0.0

>  <EState_VSA1>  (187) 
0.0

>  <EState_VSA10>  (187) 
4.794537

>  <EState_VSA11>  (187) 
0.0

>  <EState_VSA2>  (187) 
5.90718

>  <EState_VSA3>  (187) 
31.071484

>  <EState_VSA4>  (187) 
22.439866

>  <EState_VSA5>  (187) 
0.0

>  <EState_VSA6>  (187) 
12.393687

>  <EState_VSA7>  (187) 
54.597304

>  <EState_VSA8>  (187) 
10.300767

>  <EState_VSA9>  (187) 
9.473726

>  <VSA_EState1>  (187) 
11.244518

>  <VSA_EState10>  (187) 
0.0

>  <VSA_EState2>  (187) 
16.457829

>  <VSA_EState3>  (187) 
2.940108

>  <VSA_EState4>  (187) 
3.639238

>  <VSA_EState5>  (187) 
1.317034

>  <VSA_EState6>  (187) 
17.106523

>  <VSA_EState7>  (187) 
3.504533

>  <VSA_EState8>  (187) 
1.456884

>  <VSA_EState9>  (187) 
0.0

>  <FractionCSP3>  (187) 
0.142857

>  <HeavyAtomCount>  (187) 
26

>  <NHOHCount>  (187) 
1

>  <NOCount>  (187) 
5

>  <NumAliphaticCarbocycles>  (187) 
0

>  <NumAliphaticHeterocycles>  (187) 
1

>  <NumAliphaticRings>  (187) 
1

>  <NumAromaticCarbocycles>  (187) 
2

>  <NumAromaticHeterocycles>  (187) 
1

>  <NAR>  (187) 
3

>  <NumHAcceptors>  (187) 
4

>  <NumHDonors>  (187) 
1

>  <NumHeteroatoms>  (187) 
5

>  <NumRotatableBonds>  (187) 
4

>  <NumSaturatedCarbocycles>  (187) 
0

>  <NumSaturatedHeterocycles>  (187) 
0

>  <NumSaturatedRings>  (187) 
0

>  <RingCount>  (187) 
4

>  <MolLogP>  (187) 
3.4498

>  <MolMR>  (187) 
98.2752

>  <fr_Al_COO>  (187) 
0

>  <fr_Al_OH>  (187) 
0

>  <fr_Al_OH_noTert>  (187) 
0

>  <fr_ArN>  (187) 
0

>  <fr_Ar_COO>  (187) 
0

>  <fr_Ar_N>  (187) 
1

>  <fr_Ar_NH>  (187) 
0

>  <fr_Ar_OH>  (187) 
0

>  <fr_COO>  (187) 
0

>  <fr_COO2>  (187) 
0

>  <fr_C_O>  (187) 
1

>  <fr_C_O_noCOO>  (187) 
1

>  <fr_C_S>  (187) 
0

>  <fr_HOCCN>  (187) 
0

>  <fr_Imine>  (187) 
0

>  <fr_NH0>  (187) 
1

>  <fr_NH1>  (187) 
1

>  <fr_NH2>  (187) 
0

>  <fr_N_O>  (187) 
0

>  <fr_Ndealkylation1>  (187) 
0

>  <fr_Ndealkylation2>  (187) 
0

>  <fr_Nhpyrrole>  (187) 
0

>  <fr_SH>  (187) 
0

>  <fr_aldehyde>  (187) 
0

>  <fr_alkyl_carbamate>  (187) 
0

>  <fr_alkyl_halide>  (187) 
0

>  <fr_allylic_oxid>  (187) 
0

>  <fr_amide>  (187) 
1

>  <fr_amidine>  (187) 
0

>  <fr_aniline>  (187) 
0

>  <fr_aryl_methyl>  (187) 
0

>  <fr_azide>  (187) 
0

>  <fr_azo>  (187) 
0

>  <fr_barbitur>  (187) 
0

>  <fr_benzene>  (187) 
2

>  <fr_benzodiazepine>  (187) 
0

>  <fr_bicyclic>  (187) 
1

>  <fr_diazo>  (187) 
0

>  <fr_dihydropyridine>  (187) 
0

>  <fr_epoxide>  (187) 
0

>  <fr_ester>  (187) 
0

>  <fr_ether>  (187) 
2

>  <fr_furan>  (187) 
0

>  <fr_guanido>  (187) 
0

>  <fr_halogen>  (187) 
0

>  <fr_hdrzine>  (187) 
0

>  <fr_hdrzone>  (187) 
0

>  <fr_imidazole>  (187) 
0

>  <fr_imide>  (187) 
0

>  <fr_isocyan>  (187) 
0

>  <fr_isothiocyan>  (187) 
0

>  <fr_ketone>  (187) 
0

>  <fr_ketone_Topliss>  (187) 
0

>  <fr_lactam>  (187) 
0

>  <fr_lactone>  (187) 
0

>  <fr_methoxy>  (187) 
0

>  <fr_morpholine>  (187) 
0

>  <fr_nitrile>  (187) 
0

>  <fr_nitro>  (187) 
0

>  <fr_nitro_arom>  (187) 
0

>  <fr_nitro_arom_nonortho>  (187) 
0

>  <fr_nitroso>  (187) 
0

>  <fr_oxazole>  (187) 
0

>  <fr_oxime>  (187) 
0

>  <fr_para_hydroxylation>  (187) 
1

>  <fr_phenol>  (187) 
0

>  <fr_phenol_noOrthoHbond>  (187) 
0

>  <fr_phos_acid>  (187) 
0

>  <fr_phos_ester>  (187) 
0

>  <fr_piperdine>  (187) 
0

>  <fr_piperzine>  (187) 
0

>  <fr_priamide>  (187) 
0

>  <fr_prisulfonamd>  (187) 
0

>  <fr_pyridine>  (187) 
1

>  <fr_quatN>  (187) 
0

>  <fr_sulfide>  (187) 
0

>  <fr_sulfonamd>  (187) 
0

>  <fr_sulfone>  (187) 
0

>  <fr_term_acetylene>  (187) 
0

>  <fr_tetrazole>  (187) 
0

>  <fr_thiazole>  (187) 
0

>  <fr_thiocyan>  (187) 
0

>  <fr_thiophene>  (187) 
0

>  <fr_unbrch_alkane>  (187) 
0

>  <fr_urea>  (187) 
0

>  <NP-Likeness>  (187) 
-1.095863

$$$$
J4B
     RDKit          3D

  0  0  0  0  0  0  0  0  0  0999 V3000
M  V30 BEGIN CTAB
M  V30 COUNTS 44 45 0 0 0
M  V30 BEGIN ATOM
M  V30 1 O -0.072775 -5.268150 4.348337 0
M  V30 2 C 0.545971 -4.354056 3.515187 0
M  V30 3 C 1.330489 -4.663473 2.445074 0
M  V30 4 C 1.915734 -3.693212 1.658072 0
M  V30 5 C 1.697483 -2.365116 1.967517 0
M  V30 6 C 2.371342 -1.439003 1.059078 0
M  V30 7 O 3.473898 -0.834487 1.015481 0
M  V30 8 N 1.533947 -1.168623 -0.063547 0
M  V30 9 N 1.611050 -0.387958 -1.236588 0
M  V30 10 C 1.121263 0.941093 -1.090880 0
M  V30 11 O 0.642472 1.435723 -0.013531 0
M  V30 12 C 1.059925 2.016235 -2.128263 0 CFG=1
M  V30 13 O 1.565700 1.545911 -3.339775 0
M  V30 14 C -0.390181 2.370016 -2.369723 0
M  V30 15 C -1.025788 3.521728 -1.937587 0
M  V30 16 C -2.363519 3.683998 -2.249008 0
M  V30 17 F -2.972020 4.825904 -1.814119 0
M  V30 18 C -3.058569 2.724109 -2.974489 0
M  V30 19 C -2.403427 1.564572 -3.405050 0
M  V30 20 F -3.109309 0.626117 -4.122387 0
M  V30 21 C -1.080154 1.410775 -3.093355 0
M  V30 22 C 0.905178 -2.030618 3.048525 0
M  V30 23 C 0.735678 -0.570436 3.295437 0
M  V30 24 C 1.983539 0.005546 3.928303 0
M  V30 25 C 0.325905 -3.011028 3.827168 0
M  V30 26 C -0.520700 -2.619250 4.981882 0
M  V30 27 H -0.837732 -5.861387 4.061980 0
M  V30 28 H 1.467824 -5.715413 2.248545 0
M  V30 29 H 2.529111 -4.036932 0.820335 0
M  V30 30 H 0.565203 -1.546254 -0.268098 0
M  V30 31 H 1.962124 -0.602813 -2.197953 0
M  V30 32 H 1.639654 2.871112 -1.781712 0
M  V30 33 H 2.375114 2.071253 -3.600414 0
M  V30 34 H -0.412187 4.210703 -1.382605 0
M  V30 35 H -4.110810 2.861186 -3.214294 0
M  V30 36 H -0.621098 0.487095 -3.454971 0
M  V30 37 H -0.109060 -0.341826 3.976197 0
M  V30 38 H 0.503290 -0.017365 2.362888 0
M  V30 39 H 1.731204 0.638898 4.778517 0
M  V30 40 H 2.651991 -0.831465 4.274376 0
M  V30 41 H 2.560923 0.600530 3.181850 0
M  V30 42 H -1.154500 -3.521920 5.231995 0
M  V30 43 H 0.099677 -2.362117 5.869768 0
M  V30 44 H -1.265974 -1.840423 4.719424 0
M  V30 END ATOM
M  V30 BEGIN BOND
M  V30 1 1 1 2
M  V30 2 2 2 3
M  V30 3 1 3 4
M  V30 4 2 4 5
M  V30 5 1 5 6
M  V30 6 2 6 7
M  V30 7 1 6 8
M  V30 8 1 8 9
M  V30 9 1 9 10
M  V30 10 2 10 11
M  V30 11 1 10 12
M  V30 12 1 12 13
M  V30 13 1 12 14
M  V30 14 2 14 15
M  V30 15 1 15 16
M  V30 16 1 16 17
M  V30 17 2 16 18
M  V30 18 1 18 19
M  V30 19 1 19 20
M  V30 20 2 19 21
M  V30 21 1 5 22
M  V30 22 1 22 23
M  V30 23 1 23 24
M  V30 24 2 22 25
M  V30 25 1 25 26
M  V30 26 1 25 2
M  V30 27 1 21 14
M  V30 28 1 1 27
M  V30 29 1 3 28
M  V30 30 1 4 29
M  V30 31 1 8 30
M  V30 32 1 9 31
M  V30 33 1 12 32 CFG=1
M  V30 34 1 13 33
M  V30 35 1 15 34
M  V30 36 1 18 35
M  V30 37 1 21 36
M  V30 38 1 23 37
M  V30 39 1 23 38
M  V30 40 1 24 39
M  V30 41 1 24 40
M  V30 42 1 24 41
M  V30 43 1 26 42
M  V30 44 1 26 43
M  V30 45 1 26 44
M  V30 END BOND
M  V30 END CTAB
M  END
>  <Dataset>  (188) 
PDB

>  <Ligand_Instance>  (188) 
6QJ7_J4B_A_401

>  <PDB_ID>  (188) 
6QJ7

>  <Standardized_SMILES>  (188) 
[H]OC1=C([H])C([H])=C(C(=O)N([H])N([H])C(=O)[C@@]([H])(O[H])C2=C([H])C(F)=C([H])C(F)=C2[H])C(C([H])([H])C([H])([H])[H])=C1C([H])([H])[H]

>  <Name>  (188) 
~{N}'-[(2~{S})-2-[3,5-bis(fluoranyl)phenyl]-2-oxidanyl-ethanoyl]-2-ethyl-3-methyl-4-oxidanyl-benzohydrazide

>  <Pocket>  (188) 
A

>  <ATP_Site>  (188) 
1.0

>  <Peripheral>  (188) 
0.0

>  <Num_H_Atoms_ProtBoundConf>  (188) 
18.0

>  <Num_Resolved_Atoms>  (188) 
26.0

>  <Num_Not_Resolved_Atoms>  (188) 
0.0

>  <2D_Mol_H>  (188) 
<rdkit.Chem.rdchem.Mol object at 0x72a238df0cf0>

>  <MW>  (188) 
364.348

>  <HBA>  (188) 
4

>  <HBD>  (188) 
4

>  <LogP>  (188) 
2.03582

>  <NRB>  (188) 
8

>  <TPSA>  (188) 
98.66

>  <Num_Heavy_Atoms>  (188) 
26

>  <Ro5>  (188) 
[True, True, True, True, True, True]

>  <Ro5_Fulfilled>  (188) 
True

>  <Ro3>  (188) 
[False, False, False, True]

>  <Ro3_Fulfilled>  (188) 
False

>  <Fsp3>  (188) 
0.222222

>  <Fsp3_0.42>  (188) 
False

>  <Fsp3_0.45>  (188) 
False

>  <Stereogenic_Carbons>  (188) 
1

>  <C_Atoms>  (188) 
18

>  <FCStereo>  (188) 
0.055556

>  <SPS>  (188) 
305

>  <nSPS>  (188) 
11.730769

>  <PBF>  (188) 
1.261495

>  <PBF_0.6>  (188) 
True

>  <nPBF>  (188) 
0.048519

>  <nPBF_0.016>  (188) 
True

>  <PMI1>  (188) 
1512.236673

>  <PMI2>  (188) 
6042.388549

>  <PMI3>  (188) 
6245.042618

>  <NPR1>  (188) 
0.24215

>  <NPR2>  (188) 
0.96755

>  <Sum_NPR>  (188) 
1.2097

>  <Sum_NPR_1.07>  (188) 
True

>  <Sum_NPR_1.2>  (188) 
True

>  <MaxAbsEStateIndex>  (188) 
13.167995

>  <MaxEStateIndex>  (188) 
13.167995

>  <MinAbsEStateIndex>  (188) 
0.047212

>  <MinEStateIndex>  (188) 
-1.867871

>  <qed>  (188) 
0.624142

>  <MolWt>  (188) 
364.348

>  <HeavyAtomMolWt>  (188) 
346.204

>  <ExactMolWt>  (188) 
364.123463

>  <NumValenceElectrons>  (188) 
138

>  <NumRadicalElectrons>  (188) 
0

>  <MaxPartialCharge>  (188) 
0.271339

>  <MinPartialCharge>  (188) 
-0.507676

>  <MaxAbsPartialCharge>  (188) 
0.507676

>  <MinAbsPartialCharge>  (188) 
0.271339

>  <FpDensityMorgan1>  (188) 
1.115385

>  <FpDensityMorgan2>  (188) 
1.730769

>  <FpDensityMorgan3>  (188) 
2.307692

>  <BCUT2D_MWHI>  (188) 
19.145435

>  <BCUT2D_MWLOW>  (188) 
9.982294

>  <BCUT2D_CHGHI>  (188) 
2.206357

>  <BCUT2D_CHGLO>  (188) 
-2.149782

>  <BCUT2D_LOGPHI>  (188) 
2.237833

>  <BCUT2D_LOGPLOW>  (188) 
-2.438638

>  <BCUT2D_MRHI>  (188) 
5.972623

>  <BCUT2D_MRLOW>  (188) 
-0.129977

>  <AvgIpc>  (188) 
2.594812

>  <BalabanJ>  (188) 
2.094087

>  <BertzCT>  (188) 
835.075005

>  <Chi0>  (188) 
19.430357

>  <Chi0n>  (188) 
14.138061

>  <Chi0v>  (188) 
14.138061

>  <Chi1>  (188) 
12.23929

>  <Chi1n>  (188) 
7.798763

>  <Chi1v>  (188) 
7.798763

>  <Chi2n>  (188) 
5.638049

>  <Chi2v>  (188) 
5.638049

>  <Chi3n>  (188) 
3.916245

>  <Chi3v>  (188) 
3.916245

>  <Chi4n>  (188) 
2.551272

>  <Chi4v>  (188) 
2.551272

>  <HallKierAlpha>  (188) 
-3.0

>  <Ipc>  (188) 
432767.89695

>  <Kappa1>  (188) 
19.326389

>  <Kappa2>  (188) 
7.92

>  <Kappa3>  (188) 
4.148148

>  <LabuteASA>  (188) 
147.990593

>  <PEOE_VSA1>  (188) 
10.213055

>  <PEOE_VSA10>  (188) 
17.383954

>  <PEOE_VSA11>  (188) 
6.103966

>  <PEOE_VSA12>  (188) 
0.0

>  <PEOE_VSA13>  (188) 
11.814359

>  <PEOE_VSA14>  (188) 
0.0

>  <PEOE_VSA2>  (188) 
20.440657

>  <PEOE_VSA3>  (188) 
8.78083

>  <PEOE_VSA4>  (188) 
0.0

>  <PEOE_VSA5>  (188) 
0.0

>  <PEOE_VSA6>  (188) 
6.923737

>  <PEOE_VSA7>  (188) 
54.300382

>  <PEOE_VSA8>  (188) 
11.629819

>  <PEOE_VSA9>  (188) 
0.0

>  <SMR_VSA1>  (188) 
28.582959

>  <SMR_VSA10>  (188) 
11.814359

>  <SMR_VSA2>  (188) 
0.0

>  <SMR_VSA3>  (188) 
10.851583

>  <SMR_VSA4>  (188) 
0.0

>  <SMR_VSA5>  (188) 
26.372262

>  <SMR_VSA6>  (188) 
0.0

>  <SMR_VSA7>  (188) 
64.220083

>  <SMR_VSA8>  (188) 
0.0

>  <SMR_VSA9>  (188) 
5.749512

>  <SlogP_VSA1>  (188) 
10.851583

>  <SlogP_VSA10>  (188) 
8.78083

>  <SlogP_VSA11>  (188) 
5.749512

>  <SlogP_VSA12>  (188) 
0.0

>  <SlogP_VSA2>  (188) 
22.027414

>  <SlogP_VSA3>  (188) 
11.215359

>  <SlogP_VSA4>  (188) 
18.558179

>  <SlogP_VSA5>  (188) 
40.076047

>  <SlogP_VSA6>  (188) 
30.331835

>  <SlogP_VSA7>  (188) 
0.0

>  <SlogP_VSA8>  (188) 
0.0

>  <SlogP_VSA9>  (188) 
0.0

>  <EState_VSA1>  (188) 
29.552768

>  <EState_VSA10>  (188) 
28.582959

>  <EState_VSA11>  (188) 
0.0

>  <EState_VSA2>  (188) 
16.876415

>  <EState_VSA3>  (188) 
23.614092

>  <EState_VSA4>  (188) 
12.132734

>  <EState_VSA5>  (188) 
12.132734

>  <EState_VSA6>  (188) 
13.847474

>  <EState_VSA7>  (188) 
5.425791

>  <EState_VSA8>  (188) 
5.425791

>  <EState_VSA9>  (188) 
0.0

>  <VSA_EState1>  (188) 
26.335991

>  <VSA_EState10>  (188) 
0.0

>  <VSA_EState2>  (188) 
24.167236

>  <VSA_EState3>  (188) 
19.576352

>  <VSA_EState4>  (188) 
5.241511

>  <VSA_EState5>  (188) 
-3.551025

>  <VSA_EState6>  (188) 
4.993353

>  <VSA_EState7>  (188) 
-1.393538

>  <VSA_EState8>  (188) 
3.463454

>  <VSA_EState9>  (188) 
0.0

>  <FractionCSP3>  (188) 
0.222222

>  <HeavyAtomCount>  (188) 
26

>  <NHOHCount>  (188) 
4

>  <NOCount>  (188) 
6

>  <NumAliphaticCarbocycles>  (188) 
0

>  <NumAliphaticHeterocycles>  (188) 
0

>  <NumAliphaticRings>  (188) 
0

>  <NumAromaticCarbocycles>  (188) 
2

>  <NumAromaticHeterocycles>  (188) 
0

>  <NAR>  (188) 
2

>  <NumHAcceptors>  (188) 
4

>  <NumHDonors>  (188) 
4

>  <NumHeteroatoms>  (188) 
8

>  <NumRotatableBonds>  (188) 
4

>  <NumSaturatedCarbocycles>  (188) 
0

>  <NumSaturatedHeterocycles>  (188) 
0

>  <NumSaturatedRings>  (188) 
0

>  <RingCount>  (188) 
2

>  <MolLogP>  (188) 
2.03582

>  <MolMR>  (188) 
89.1485

>  <fr_Al_COO>  (188) 
0

>  <fr_Al_OH>  (188) 
1

>  <fr_Al_OH_noTert>  (188) 
1

>  <fr_ArN>  (188) 
0

>  <fr_Ar_COO>  (188) 
0

>  <fr_Ar_N>  (188) 
0

>  <fr_Ar_NH>  (188) 
0

>  <fr_Ar_OH>  (188) 
1

>  <fr_COO>  (188) 
0

>  <fr_COO2>  (188) 
0

>  <fr_C_O>  (188) 
2

>  <fr_C_O_noCOO>  (188) 
2

>  <fr_C_S>  (188) 
0

>  <fr_HOCCN>  (188) 
0

>  <fr_Imine>  (188) 
0

>  <fr_NH0>  (188) 
0

>  <fr_NH1>  (188) 
2

>  <fr_NH2>  (188) 
0

>  <fr_N_O>  (188) 
0

>  <fr_Ndealkylation1>  (188) 
0

>  <fr_Ndealkylation2>  (188) 
0

>  <fr_Nhpyrrole>  (188) 
0

>  <fr_SH>  (188) 
0

>  <fr_aldehyde>  (188) 
0

>  <fr_alkyl_carbamate>  (188) 
0

>  <fr_alkyl_halide>  (188) 
0

>  <fr_allylic_oxid>  (188) 
0

>  <fr_amide>  (188) 
2

>  <fr_amidine>  (188) 
0

>  <fr_aniline>  (188) 
0

>  <fr_aryl_methyl>  (188) 
0

>  <fr_azide>  (188) 
0

>  <fr_azo>  (188) 
0

>  <fr_barbitur>  (188) 
0

>  <fr_benzene>  (188) 
2

>  <fr_benzodiazepine>  (188) 
0

>  <fr_bicyclic>  (188) 
0

>  <fr_diazo>  (188) 
0

>  <fr_dihydropyridine>  (188) 
0

>  <fr_epoxide>  (188) 
0

>  <fr_ester>  (188) 
0

>  <fr_ether>  (188) 
0

>  <fr_furan>  (188) 
0

>  <fr_guanido>  (188) 
0

>  <fr_halogen>  (188) 
2

>  <fr_hdrzine>  (188) 
1

>  <fr_hdrzone>  (188) 
0

>  <fr_imidazole>  (188) 
0

>  <fr_imide>  (188) 
0

>  <fr_isocyan>  (188) 
0

>  <fr_isothiocyan>  (188) 
0

>  <fr_ketone>  (188) 
0

>  <fr_ketone_Topliss>  (188) 
0

>  <fr_lactam>  (188) 
0

>  <fr_lactone>  (188) 
0

>  <fr_methoxy>  (188) 
0

>  <fr_morpholine>  (188) 
0

>  <fr_nitrile>  (188) 
0

>  <fr_nitro>  (188) 
0

>  <fr_nitro_arom>  (188) 
0

>  <fr_nitro_arom_nonortho>  (188) 
0

>  <fr_nitroso>  (188) 
0

>  <fr_oxazole>  (188) 
0

>  <fr_oxime>  (188) 
0

>  <fr_para_hydroxylation>  (188) 
0

>  <fr_phenol>  (188) 
1

>  <fr_phenol_noOrthoHbond>  (188) 
1

>  <fr_phos_acid>  (188) 
0

>  <fr_phos_ester>  (188) 
0

>  <fr_piperdine>  (188) 
0

>  <fr_piperzine>  (188) 
0

>  <fr_priamide>  (188) 
0

>  <fr_prisulfonamd>  (188) 
0

>  <fr_pyridine>  (188) 
0

>  <fr_quatN>  (188) 
0

>  <fr_sulfide>  (188) 
0

>  <fr_sulfonamd>  (188) 
0

>  <fr_sulfone>  (188) 
0

>  <fr_term_acetylene>  (188) 
0

>  <fr_tetrazole>  (188) 
0

>  <fr_thiazole>  (188) 
0

>  <fr_thiocyan>  (188) 
0

>  <fr_thiophene>  (188) 
0

>  <fr_unbrch_alkane>  (188) 
0

>  <fr_urea>  (188) 
0

>  <NP-Likeness>  (188) 
-0.687334

$$$$
L15
     RDKit          3D

  0  0  0  0  0  0  0  0  0  0999 V3000
M  V30 BEGIN CTAB
M  V30 COUNTS 31 32 0 0 0
M  V30 BEGIN ATOM
M  V30 1 C 1.886958 -0.262188 3.825413 0
M  V30 2 N 1.880407 -0.734167 5.107012 0
M  V30 3 N 0.799953 -1.467218 5.283250 0
M  V30 4 C 0.069372 -1.501808 4.139561 0
M  V30 5 C -1.194367 -2.155391 3.787465 0
M  V30 6 C 0.732478 -0.745423 3.191961 0
M  V30 7 C 0.522025 -0.372076 1.812694 0
M  V30 8 C 1.562104 -0.427805 0.874059 0
M  V30 9 C 1.363995 -0.071370 -0.445915 0
M  V30 10 C 0.142492 0.352546 -0.897121 0
M  V30 11 C -0.156627 0.750425 -2.282273 0
M  V30 12 C -0.614357 -0.443722 -3.088660 0
M  V30 13 N 0.411141 -1.447905 -3.112100 0 CHG=1 VAL=4
M  V30 14 C -0.901129 0.415672 0.013476 0
M  V30 15 C -0.714395 0.061943 1.334627 0
M  V30 16 H 2.700651 0.363929 3.489829 0
M  V30 17 H 0.476017 -1.982681 6.145964 0
M  V30 18 H -1.164376 -2.634332 2.772972 0
M  V30 19 H -1.281764 -3.040073 4.482560 0
M  V30 20 H -2.105506 -1.582958 3.989176 0
M  V30 21 H 2.532428 -0.761483 1.219286 0
M  V30 22 H 2.174888 -0.125513 -1.131326 0
M  V30 23 H -0.951048 1.518328 -2.347055 0
M  V30 24 H 0.752471 1.133535 -2.815086 0
M  V30 25 H -1.544478 -0.889027 -2.680803 0
M  V30 26 H -0.854218 -0.134699 -4.124319 0
M  V30 27 H 0.277638 -2.084821 -3.941972 0
M  V30 28 H 0.379195 -2.058469 -2.263025 0
M  V30 29 H 1.370801 -1.043565 -3.198379 0
M  V30 30 H -1.884559 0.739226 -0.272902 0
M  V30 31 H -1.513552 0.106779 2.047098 0
M  V30 END ATOM
M  V30 BEGIN BOND
M  V30 1 2 1 2
M  V30 2 1 2 3
M  V30 3 1 3 4
M  V30 4 1 4 5
M  V30 5 2 4 6
M  V30 6 1 6 7
M  V30 7 2 7 8
M  V30 8 1 8 9
M  V30 9 2 9 10
M  V30 10 1 10 11
M  V30 11 1 11 12
M  V30 12 1 12 13
M  V30 13 1 10 14
M  V30 14 2 14 15
M  V30 15 1 6 1
M  V30 16 1 15 7
M  V30 17 1 1 16
M  V30 18 1 3 17
M  V30 19 1 5 18
M  V30 20 1 5 19
M  V30 21 1 5 20
M  V30 22 1 8 21
M  V30 23 1 9 22
M  V30 24 1 11 23
M  V30 25 1 11 24
M  V30 26 1 12 25
M  V30 27 1 12 26
M  V30 28 1 13 27
M  V30 29 1 13 28
M  V30 30 1 13 29
M  V30 31 1 14 30
M  V30 32 1 15 31
M  V30 END BOND
M  V30 END CTAB
M  END
>  <Dataset>  (189) 
PDB

>  <Ligand_Instance>  (189) 
2UW4_L15_A_1351

>  <PDB_ID>  (189) 
2UW4

>  <Standardized_SMILES>  (189) 
[H]C1=NN([H])C(C([H])([H])[H])=C1C1=C([H])C([H])=C(C([H])([H])C([H])([H])[N+]([H])([H])[H])C([H])=C1[H]

>  <Name>  (189) 
2-[4-(3-METHYL-1H-PYRAZOL-4-YL)PHENYL]ETHANAMINE

>  <Pocket>  (189) 
A

>  <ATP_Site>  (189) 
1.0

>  <Peripheral>  (189) 
0.0

>  <Num_H_Atoms_ProtBoundConf>  (189) 
16.0

>  <Num_Resolved_Atoms>  (189) 
15.0

>  <Num_Not_Resolved_Atoms>  (189) 
0.0

>  <2D_Mol_H>  (189) 
<rdkit.Chem.rdchem.Mol object at 0x72a238df0dd0>

>  <MW>  (189) 
202.281

>  <HBA>  (189) 
1

>  <HBD>  (189) 
2

>  <LogP>  (189) 
1.16952

>  <NRB>  (189) 
5

>  <TPSA>  (189) 
56.32

>  <Num_Heavy_Atoms>  (189) 
15

>  <Ro5>  (189) 
[True, True, True, True, True, True]

>  <Ro5_Fulfilled>  (189) 
True

>  <Ro3>  (189) 
[True, True, True, True]

>  <Ro3_Fulfilled>  (189) 
True

>  <Fsp3>  (189) 
0.25

>  <Fsp3_0.42>  (189) 
False

>  <Fsp3_0.45>  (189) 
False

>  <Stereogenic_Carbons>  (189) 
0

>  <C_Atoms>  (189) 
12

>  <FCStereo>  (189) 
0.0

>  <SPS>  (189) 
158

>  <nSPS>  (189) 
10.533333

>  <PBF>  (189) 
0.781575

>  <PBF_0.6>  (189) 
True

>  <nPBF>  (189) 
0.052105

>  <nPBF_0.016>  (189) 
True

>  <PMI1>  (189) 
311.007288

>  <PMI2>  (189) 
1842.035369

>  <PMI3>  (189) 
1940.794359

>  <NPR1>  (189) 
0.160247

>  <NPR2>  (189) 
0.949114

>  <Sum_NPR>  (189) 
1.109362

>  <Sum_NPR_1.07>  (189) 
True

>  <Sum_NPR_1.2>  (189) 
False

>  <MaxAbsEStateIndex>  (189) 
4.021852

>  <MaxEStateIndex>  (189) 
4.021852

>  <MinAbsEStateIndex>  (189) 
0.948497

>  <MinEStateIndex>  (189) 
0.948497

>  <qed>  (189) 
0.770896

>  <MolWt>  (189) 
202.281

>  <HeavyAtomMolWt>  (189) 
186.153

>  <ExactMolWt>  (189) 
202.133874

>  <NumValenceElectrons>  (189) 
78

>  <NumRadicalElectrons>  (189) 
0

>  <MaxPartialCharge>  (189) 
0.078032

>  <MinPartialCharge>  (189) 
-0.357285

>  <MaxAbsPartialCharge>  (189) 
0.357285

>  <MinAbsPartialCharge>  (189) 
0.078032

>  <FpDensityMorgan1>  (189) 
1.266667

>  <FpDensityMorgan2>  (189) 
2.0

>  <FpDensityMorgan3>  (189) 
2.533333

>  <BCUT2D_MWHI>  (189) 
15.100376

>  <BCUT2D_MWLOW>  (189) 
10.038059

>  <BCUT2D_CHGHI>  (189) 
2.025808

>  <BCUT2D_CHGLO>  (189) 
-2.010443

>  <BCUT2D_LOGPHI>  (189) 
2.209902

>  <BCUT2D_LOGPLOW>  (189) 
-2.506297

>  <BCUT2D_MRHI>  (189) 
5.645248

>  <BCUT2D_MRLOW>  (189) 
-0.366086

>  <AvgIpc>  (189) 
2.663082

>  <BalabanJ>  (189) 
2.276268

>  <BertzCT>  (189) 
428.382811

>  <Chi0>  (189) 
10.673362

>  <Chi0n>  (189) 
8.955285

>  <Chi0v>  (189) 
8.955285

>  <Chi1>  (189) 
7.308862

>  <Chi1n>  (189) 
5.195401

>  <Chi1v>  (189) 
5.195401

>  <Chi2n>  (189) 
3.709154

>  <Chi2v>  (189) 
3.709154

>  <Chi3n>  (189) 
2.560302

>  <Chi3v>  (189) 
2.560302

>  <Chi4n>  (189) 
1.696836

>  <Chi4v>  (189) 
1.696836

>  <HallKierAlpha>  (189) 
-1.61

>  <Ipc>  (189) 
4324.845391

>  <Kappa1>  (189) 
9.926625

>  <Kappa2>  (189) 
4.275266

>  <Kappa3>  (189) 
2.074804

>  <LabuteASA>  (189) 
89.320476

>  <PEOE_VSA1>  (189) 
5.733667

>  <PEOE_VSA10>  (189) 
0.0

>  <PEOE_VSA11>  (189) 
0.0

>  <PEOE_VSA12>  (189) 
0.0

>  <PEOE_VSA13>  (189) 
0.0

>  <PEOE_VSA14>  (189) 
0.0

>  <PEOE_VSA2>  (189) 
5.098682

>  <PEOE_VSA3>  (189) 
0.0

>  <PEOE_VSA4>  (189) 
5.098682

>  <PEOE_VSA5>  (189) 
0.0

>  <PEOE_VSA6>  (189) 
24.265468

>  <PEOE_VSA7>  (189) 
18.05064

>  <PEOE_VSA8>  (189) 
17.678201

>  <PEOE_VSA9>  (189) 
12.7416

>  <SMR_VSA1>  (189) 
5.733667

>  <SMR_VSA10>  (189) 
0.0

>  <SMR_VSA2>  (189) 
0.0

>  <SMR_VSA3>  (189) 
10.197364

>  <SMR_VSA4>  (189) 
0.0

>  <SMR_VSA5>  (189) 
13.344559

>  <SMR_VSA6>  (189) 
6.544756

>  <SMR_VSA7>  (189) 
41.719691

>  <SMR_VSA8>  (189) 
0.0

>  <SMR_VSA9>  (189) 
11.126903

>  <SlogP_VSA1>  (189) 
5.733667

>  <SlogP_VSA10>  (189) 
0.0

>  <SlogP_VSA11>  (189) 
0.0

>  <SlogP_VSA12>  (189) 
0.0

>  <SlogP_VSA2>  (189) 
16.74212

>  <SlogP_VSA3>  (189) 
6.420822

>  <SlogP_VSA4>  (189) 
6.923737

>  <SlogP_VSA5>  (189) 
11.257379

>  <SlogP_VSA6>  (189) 
30.462312

>  <SlogP_VSA7>  (189) 
0.0

>  <SlogP_VSA8>  (189) 
11.126903

>  <SlogP_VSA9>  (189) 
0.0

>  <EState_VSA1>  (189) 
0.0

>  <EState_VSA10>  (189) 
0.0

>  <EState_VSA11>  (189) 
0.0

>  <EState_VSA2>  (189) 
0.0

>  <EState_VSA3>  (189) 
0.0

>  <EState_VSA4>  (189) 
18.659506

>  <EState_VSA5>  (189) 
16.690354

>  <EState_VSA6>  (189) 
0.0

>  <EState_VSA7>  (189) 
13.120581

>  <EState_VSA8>  (189) 
40.196499

>  <EState_VSA9>  (189) 
0.0

>  <VSA_EState1>  (189) 
0.0

>  <VSA_EState10>  (189) 
0.0

>  <VSA_EState2>  (189) 
0.0

>  <VSA_EState3>  (189) 
6.968728

>  <VSA_EState4>  (189) 
8.699667

>  <VSA_EState5>  (189) 
0.0

>  <VSA_EState6>  (189) 
8.602778

>  <VSA_EState7>  (189) 
2.913061

>  <VSA_EState8>  (189) 
2.982433

>  <VSA_EState9>  (189) 
0.0

>  <FractionCSP3>  (189) 
0.25

>  <HeavyAtomCount>  (189) 
15

>  <NHOHCount>  (189) 
4

>  <NOCount>  (189) 
3

>  <NumAliphaticCarbocycles>  (189) 
0

>  <NumAliphaticHeterocycles>  (189) 
0

>  <NumAliphaticRings>  (189) 
0

>  <NumAromaticCarbocycles>  (189) 
1

>  <NumAromaticHeterocycles>  (189) 
1

>  <NAR>  (189) 
2

>  <NumHAcceptors>  (189) 
1

>  <NumHDonors>  (189) 
2

>  <NumHeteroatoms>  (189) 
3

>  <NumRotatableBonds>  (189) 
3

>  <NumSaturatedCarbocycles>  (189) 
0

>  <NumSaturatedHeterocycles>  (189) 
0

>  <NumSaturatedRings>  (189) 
0

>  <RingCount>  (189) 
2

>  <MolLogP>  (189) 
1.16952

>  <MolMR>  (189) 
60.2198

>  <fr_Al_COO>  (189) 
0

>  <fr_Al_OH>  (189) 
0

>  <fr_Al_OH_noTert>  (189) 
0

>  <fr_ArN>  (189) 
0

>  <fr_Ar_COO>  (189) 
0

>  <fr_Ar_N>  (189) 
2

>  <fr_Ar_NH>  (189) 
1

>  <fr_Ar_OH>  (189) 
0

>  <fr_COO>  (189) 
0

>  <fr_COO2>  (189) 
0

>  <fr_C_O>  (189) 
0

>  <fr_C_O_noCOO>  (189) 
0

>  <fr_C_S>  (189) 
0

>  <fr_HOCCN>  (189) 
0

>  <fr_Imine>  (189) 
0

>  <fr_NH0>  (189) 
1

>  <fr_NH1>  (189) 
1

>  <fr_NH2>  (189) 
0

>  <fr_N_O>  (189) 
0

>  <fr_Ndealkylation1>  (189) 
0

>  <fr_Ndealkylation2>  (189) 
0

>  <fr_Nhpyrrole>  (189) 
1

>  <fr_SH>  (189) 
0

>  <fr_aldehyde>  (189) 
0

>  <fr_alkyl_carbamate>  (189) 
0

>  <fr_alkyl_halide>  (189) 
0

>  <fr_allylic_oxid>  (189) 
0

>  <fr_amide>  (189) 
0

>  <fr_amidine>  (189) 
0

>  <fr_aniline>  (189) 
0

>  <fr_aryl_methyl>  (189) 
1

>  <fr_azide>  (189) 
0

>  <fr_azo>  (189) 
0

>  <fr_barbitur>  (189) 
0

>  <fr_benzene>  (189) 
1

>  <fr_benzodiazepine>  (189) 
0

>  <fr_bicyclic>  (189) 
0

>  <fr_diazo>  (189) 
0

>  <fr_dihydropyridine>  (189) 
0

>  <fr_epoxide>  (189) 
0

>  <fr_ester>  (189) 
0

>  <fr_ether>  (189) 
0

>  <fr_furan>  (189) 
0

>  <fr_guanido>  (189) 
0

>  <fr_halogen>  (189) 
0

>  <fr_hdrzine>  (189) 
0

>  <fr_hdrzone>  (189) 
0

>  <fr_imidazole>  (189) 
0

>  <fr_imide>  (189) 
0

>  <fr_isocyan>  (189) 
0

>  <fr_isothiocyan>  (189) 
0

>  <fr_ketone>  (189) 
0

>  <fr_ketone_Topliss>  (189) 
0

>  <fr_lactam>  (189) 
0

>  <fr_lactone>  (189) 
0

>  <fr_methoxy>  (189) 
0

>  <fr_morpholine>  (189) 
0

>  <fr_nitrile>  (189) 
0

>  <fr_nitro>  (189) 
0

>  <fr_nitro_arom>  (189) 
0

>  <fr_nitro_arom_nonortho>  (189) 
0

>  <fr_nitroso>  (189) 
0

>  <fr_oxazole>  (189) 
0

>  <fr_oxime>  (189) 
0

>  <fr_para_hydroxylation>  (189) 
0

>  <fr_phenol>  (189) 
0

>  <fr_phenol_noOrthoHbond>  (189) 
0

>  <fr_phos_acid>  (189) 
0

>  <fr_phos_ester>  (189) 
0

>  <fr_piperdine>  (189) 
0

>  <fr_piperzine>  (189) 
0

>  <fr_priamide>  (189) 
0

>  <fr_prisulfonamd>  (189) 
0

>  <fr_pyridine>  (189) 
0

>  <fr_quatN>  (189) 
1

>  <fr_sulfide>  (189) 
0

>  <fr_sulfonamd>  (189) 
0

>  <fr_sulfone>  (189) 
0

>  <fr_term_acetylene>  (189) 
0

>  <fr_tetrazole>  (189) 
0

>  <fr_thiazole>  (189) 
0

>  <fr_thiocyan>  (189) 
0

>  <fr_thiophene>  (189) 
0

>  <fr_unbrch_alkane>  (189) 
0

>  <fr_urea>  (189) 
0

>  <NP-Likeness>  (189) 
-1.000882

$$$$
L20
     RDKit          3D

  0  0  0  0  0  0  0  0  0  0999 V3000
M  V30 BEGIN CTAB
M  V30 COUNTS 54 58 0 0 0
M  V30 BEGIN ATOM
M  V30 1 C 1.566964 -2.468779 1.264729 0
M  V30 2 N 2.567178 -2.023078 2.087406 0
M  V30 3 C 3.022542 -0.762678 1.960217 0
M  V30 4 C 2.478563 0.068293 1.003292 0
M  V30 5 C 2.863149 1.457262 0.740378 0
M  V30 6 C 2.818058 2.099758 -0.480320 0
M  V30 7 C 3.227897 3.424137 -0.526968 0
M  V30 8 C 3.665625 4.078123 0.606050 0
M  V30 9 C 3.711056 3.430909 1.835289 0
M  V30 10 C 3.305246 2.113638 1.891108 0
M  V30 11 C 4.187782 4.348070 2.748664 0
M  V30 12 C 4.406492 4.105234 4.199914 0
M  V30 13 N 4.422189 5.503570 2.101862 0
M  V30 14 N 4.108980 5.349565 0.804758 0
M  V30 15 C 1.473069 -0.399201 0.185262 0
M  V30 16 C 0.977739 -1.662057 0.272860 0
M  V30 17 O 0.038105 -2.430424 -0.334447 0
M  V30 18 C -0.850775 -2.195831 -1.351579 0
M  V30 19 C -1.829127 -1.109930 -1.029092 0 CFG=2
M  V30 20 C -2.702357 -1.368084 0.172039 0
M  V30 21 C -3.572047 -2.552558 0.076318 0
M  V30 22 C -4.900593 -2.390333 -0.350187 0
M  V30 23 N -5.564405 -3.554503 -0.424627 0
M  V30 24 C -4.722277 -4.528083 -0.056322 0
M  V30 25 C -4.792517 -5.895546 0.084087 0
M  V30 26 C -3.686676 -6.601855 0.513952 0
M  V30 27 C -2.476566 -5.976183 0.818674 0
M  V30 28 C -2.428599 -4.619275 0.671998 0
M  V30 29 C -3.527838 -3.912546 0.242949 0
M  V30 30 N -2.728829 -0.886393 -2.192774 0 CHG=1 VAL=4
M  V30 31 H 1.371957 -3.513282 1.558498 0
M  V30 32 H 3.802508 -0.336999 2.565122 0
M  V30 33 H 2.462351 1.510848 -1.312463 0
M  V30 34 H 3.187812 3.916583 -1.488563 0
M  V30 35 H 3.372348 1.689784 2.878770 0
M  V30 36 H 3.935225 4.863454 4.837385 0
M  V30 37 H 5.510003 4.021201 4.390123 0
M  V30 38 H 3.983051 3.124959 4.507876 0
M  V30 39 H 4.170597 6.046692 0.022509 0
M  V30 40 H 0.989181 0.150550 -0.587935 0
M  V30 41 H -1.436779 -3.115929 -1.577336 0
M  V30 42 H -0.356915 -1.945955 -2.324099 0
M  V30 43 H -1.306307 -0.159274 -0.850813 0
M  V30 44 H -3.317577 -0.471199 0.429737 0
M  V30 45 H -2.034425 -1.495668 1.077681 0
M  V30 46 H -5.432090 -1.477363 -0.614823 0
M  V30 47 H -6.541282 -3.748551 -0.703887 0
M  V30 48 H -5.732775 -6.364728 -0.153888 0
M  V30 49 H -3.840640 -7.679109 0.592925 0
M  V30 50 H -1.639888 -6.585929 1.152932 0
M  V30 51 H -1.497703 -4.159327 0.922795 0
M  V30 52 H -3.511405 -1.568005 -2.191200 0
M  V30 53 H -3.141084 0.067367 -2.165848 0
M  V30 54 H -2.163234 -0.934797 -3.092287 0
M  V30 END ATOM
M  V30 BEGIN BOND
M  V30 1 2 1 2
M  V30 2 1 2 3
M  V30 3 2 3 4
M  V30 4 1 4 5
M  V30 5 2 5 6
M  V30 6 1 6 7
M  V30 7 2 7 8
M  V30 8 1 8 9
M  V30 9 2 9 10
M  V30 10 1 9 11
M  V30 11 1 11 12
M  V30 12 2 11 13
M  V30 13 1 13 14
M  V30 14 1 4 15
M  V30 15 2 15 16
M  V30 16 1 16 17
M  V30 17 1 17 18
M  V30 18 1 18 19
M  V30 19 1 19 20
M  V30 20 1 20 21
M  V30 21 2 21 22
M  V30 22 1 22 23
M  V30 23 1 23 24
M  V30 24 2 24 25
M  V30 25 1 25 26
M  V30 26 2 26 27
M  V30 27 1 27 28
M  V30 28 2 28 29
M  V30 29 1 19 30
M  V30 30 1 16 1
M  V30 31 1 29 21
M  V30 32 1 10 5
M  V30 33 1 29 24
M  V30 34 1 14 8
M  V30 35 1 1 31
M  V30 36 1 3 32
M  V30 37 1 6 33
M  V30 38 1 7 34
M  V30 39 1 10 35
M  V30 40 1 12 36
M  V30 41 1 12 37
M  V30 42 1 12 38
M  V30 43 1 14 39
M  V30 44 1 15 40
M  V30 45 1 18 41
M  V30 46 1 18 42
M  V30 47 1 19 43 CFG=1
M  V30 48 1 20 44
M  V30 49 1 20 45
M  V30 50 1 22 46
M  V30 51 1 23 47
M  V30 52 1 25 48
M  V30 53 1 26 49
M  V30 54 1 27 50
M  V30 55 1 28 51
M  V30 56 1 30 52
M  V30 57 1 30 53
M  V30 58 1 30 54
M  V30 END BOND
M  V30 END CTAB
M  END
>  <Dataset>  (190) 
PDB

>  <Ligand_Instance>  (190) 
2JDS_L20_A_1351

>  <PDB_ID>  (190) 
2JDS

>  <Standardized_SMILES>  (190) 
[H]C1=NC([H])=C(C2=C([H])C([H])=C3C(=C2[H])C(C([H])([H])[H])=NN3[H])C([H])=C1OC([H])([H])[C@]([H])(C([H])([H])C1=C([H])N([H])C2=C([H])C([H])=C([H])C([H])=C21)[N+]([H])([H])[H]

>  <Name>  (190) 
(2S)-1-(1H-INDOL-3-YL)-3-{[5-(3-METHYL-1H-INDAZOL-5-YL)PYRIDIN-3-YL]OXY}PROPAN-2-AMINE

>  <Pocket>  (190) 
A

>  <ATP_Site>  (190) 
1.0

>  <Peripheral>  (190) 
0.0

>  <Num_H_Atoms_ProtBoundConf>  (190) 
24.0

>  <Num_Resolved_Atoms>  (190) 
30.0

>  <Num_Not_Resolved_Atoms>  (190) 
0.0

>  <2D_Mol_H>  (190) 
<rdkit.Chem.rdchem.Mol object at 0x72a238df0eb0>

>  <MW>  (190) 
398.49

>  <HBA>  (190) 
3

>  <HBD>  (190) 
3

>  <LogP>  (190) 
3.64662

>  <NRB>  (190) 
8

>  <TPSA>  (190) 
94.23

>  <Num_Heavy_Atoms>  (190) 
30

>  <Ro5>  (190) 
[True, True, True, True, True, True]

>  <Ro5_Fulfilled>  (190) 
True

>  <Ro3>  (190) 
[False, True, True, False]

>  <Ro3_Fulfilled>  (190) 
False

>  <Fsp3>  (190) 
0.166667

>  <Fsp3_0.42>  (190) 
False

>  <Fsp3_0.45>  (190) 
False

>  <Stereogenic_Carbons>  (190) 
1

>  <C_Atoms>  (190) 
24

>  <FCStereo>  (190) 
0.041667

>  <SPS>  (190) 
374

>  <nSPS>  (190) 
12.466667

>  <PBF>  (190) 
0.977235

>  <PBF_0.6>  (190) 
True

>  <nPBF>  (190) 
0.032575

>  <nPBF_0.016>  (190) 
True

>  <PMI1>  (190) 
1290.270854

>  <PMI2>  (190) 
9069.192708

>  <PMI3>  (190) 
9630.099685

>  <NPR1>  (190) 
0.133983

>  <NPR2>  (190) 
0.941755

>  <Sum_NPR>  (190) 
1.075738

>  <Sum_NPR_1.07>  (190) 
True

>  <Sum_NPR_1.2>  (190) 
False

>  <MaxAbsEStateIndex>  (190) 
6.033268

>  <MaxEStateIndex>  (190) 
6.033268

>  <MinAbsEStateIndex>  (190) 
0.136845

>  <MinEStateIndex>  (190) 
0.136845

>  <qed>  (190) 
0.407468

>  <MolWt>  (190) 
398.49

>  <HeavyAtomMolWt>  (190) 
374.298

>  <ExactMolWt>  (190) 
398.197537

>  <NumValenceElectrons>  (190) 
150

>  <NumRadicalElectrons>  (190) 
0

>  <MaxPartialCharge>  (190) 
0.140113

>  <MinPartialCharge>  (190) 
-0.485747

>  <MaxAbsPartialCharge>  (190) 
0.485747

>  <MinAbsPartialCharge>  (190) 
0.140113

>  <FpDensityMorgan1>  (190) 
1.0

>  <FpDensityMorgan2>  (190) 
1.9

>  <FpDensityMorgan3>  (190) 
2.833333

>  <BCUT2D_MWHI>  (190) 
16.478404

>  <BCUT2D_MWLOW>  (190) 
10.046878

>  <BCUT2D_CHGHI>  (190) 
2.128654

>  <BCUT2D_CHGLO>  (190) 
-2.111929

>  <BCUT2D_LOGPHI>  (190) 
2.267912

>  <BCUT2D_LOGPLOW>  (190) 
-2.641605

>  <BCUT2D_MRHI>  (190) 
5.861615

>  <BCUT2D_MRLOW>  (190) 
-0.422665

>  <AvgIpc>  (190) 
3.358389

>  <BalabanJ>  (190) 
1.286165

>  <BertzCT>  (190) 
1319.700942

>  <Chi0>  (190) 
20.501425

>  <Chi0n>  (190) 
16.852199

>  <Chi0v>  (190) 
16.852199

>  <Chi1>  (190) 
14.669836

>  <Chi1n>  (190) 
10.082144

>  <Chi1v>  (190) 
10.082144

>  <Chi2n>  (190) 
7.719349

>  <Chi2v>  (190) 
7.719349

>  <Chi3n>  (190) 
5.469118

>  <Chi3v>  (190) 
5.469118

>  <Chi4n>  (190) 
3.865087

>  <Chi4v>  (190) 
3.865087

>  <HallKierAlpha>  (190) 
-3.64

>  <Ipc>  (190) 
14933853.825053

>  <Kappa1>  (190) 
18.392483

>  <Kappa2>  (190) 
7.647522

>  <Kappa3>  (190) 
3.53063

>  <LabuteASA>  (190) 
173.648195

>  <PEOE_VSA1>  (190) 
15.454509

>  <PEOE_VSA10>  (190) 
18.398235

>  <PEOE_VSA11>  (190) 
0.0

>  <PEOE_VSA12>  (190) 
0.0

>  <PEOE_VSA13>  (190) 
0.0

>  <PEOE_VSA14>  (190) 
0.0

>  <PEOE_VSA2>  (190) 
10.08266

>  <PEOE_VSA3>  (190) 
0.0

>  <PEOE_VSA4>  (190) 
5.098682

>  <PEOE_VSA5>  (190) 
0.0

>  <PEOE_VSA6>  (190) 
24.265468

>  <PEOE_VSA7>  (190) 
42.316108

>  <PEOE_VSA8>  (190) 
40.667109

>  <PEOE_VSA9>  (190) 
17.407472

>  <SMR_VSA1>  (190) 
10.47053

>  <SMR_VSA10>  (190) 
21.80585

>  <SMR_VSA2>  (190) 
0.0

>  <SMR_VSA3>  (190) 
20.165321

>  <SMR_VSA4>  (190) 
0.0

>  <SMR_VSA5>  (190) 
19.3864

>  <SMR_VSA6>  (190) 
6.606882

>  <SMR_VSA7>  (190) 
78.378847

>  <SMR_VSA8>  (190) 
0.0

>  <SMR_VSA9>  (190) 
16.876415

>  <SlogP_VSA1>  (190) 
10.47053

>  <SlogP_VSA10>  (190) 
0.0

>  <SlogP_VSA11>  (190) 
5.749512

>  <SlogP_VSA12>  (190) 
0.0

>  <SlogP_VSA2>  (190) 
32.814043

>  <SlogP_VSA3>  (190) 
6.420822

>  <SlogP_VSA4>  (190) 
6.923737

>  <SlogP_VSA5>  (190) 
11.257379

>  <SlogP_VSA6>  (190) 
67.121467

>  <SlogP_VSA7>  (190) 
0.0

>  <SlogP_VSA8>  (190) 
32.932753

>  <SlogP_VSA9>  (190) 
0.0

>  <EState_VSA1>  (190) 
0.0

>  <EState_VSA10>  (190) 
0.0

>  <EState_VSA11>  (190) 
0.0

>  <EState_VSA2>  (190) 
6.041841

>  <EState_VSA3>  (190) 
6.606882

>  <EState_VSA4>  (190) 
45.41079

>  <EState_VSA5>  (190) 
10.949676

>  <EState_VSA6>  (190) 
6.196844

>  <EState_VSA7>  (190) 
31.319682

>  <EState_VSA8>  (190) 
62.427667

>  <EState_VSA9>  (190) 
4.736863

>  <VSA_EState1>  (190) 
6.033268

>  <VSA_EState10>  (190) 
0.0

>  <VSA_EState2>  (190) 
7.694187

>  <VSA_EState3>  (190) 
9.682424

>  <VSA_EState4>  (190) 
10.846148

>  <VSA_EState5>  (190) 
0.753786

>  <VSA_EState6>  (190) 
16.753879

>  <VSA_EState7>  (190) 
6.534915

>  <VSA_EState8>  (190) 
2.534726

>  <VSA_EState9>  (190) 
0.0

>  <FractionCSP3>  (190) 
0.166667

>  <HeavyAtomCount>  (190) 
30

>  <NHOHCount>  (190) 
5

>  <NOCount>  (190) 
6

>  <NumAliphaticCarbocycles>  (190) 
0

>  <NumAliphaticHeterocycles>  (190) 
0

>  <NumAliphaticRings>  (190) 
0

>  <NumAromaticCarbocycles>  (190) 
2

>  <NumAromaticHeterocycles>  (190) 
3

>  <NAR>  (190) 
5

>  <NumHAcceptors>  (190) 
3

>  <NumHDonors>  (190) 
3

>  <NumHeteroatoms>  (190) 
6

>  <NumRotatableBonds>  (190) 
6

>  <NumSaturatedCarbocycles>  (190) 
0

>  <NumSaturatedHeterocycles>  (190) 
0

>  <NumSaturatedRings>  (190) 
0

>  <RingCount>  (190) 
5

>  <MolLogP>  (190) 
3.64662

>  <MolMR>  (190) 
118.2355

>  <fr_Al_COO>  (190) 
0

>  <fr_Al_OH>  (190) 
0

>  <fr_Al_OH_noTert>  (190) 
0

>  <fr_ArN>  (190) 
0

>  <fr_Ar_COO>  (190) 
0

>  <fr_Ar_N>  (190) 
4

>  <fr_Ar_NH>  (190) 
2

>  <fr_Ar_OH>  (190) 
0

>  <fr_COO>  (190) 
0

>  <fr_COO2>  (190) 
0

>  <fr_C_O>  (190) 
0

>  <fr_C_O_noCOO>  (190) 
0

>  <fr_C_S>  (190) 
0

>  <fr_HOCCN>  (190) 
0

>  <fr_Imine>  (190) 
0

>  <fr_NH0>  (190) 
2

>  <fr_NH1>  (190) 
2

>  <fr_NH2>  (190) 
0

>  <fr_N_O>  (190) 
0

>  <fr_Ndealkylation1>  (190) 
0

>  <fr_Ndealkylation2>  (190) 
0

>  <fr_Nhpyrrole>  (190) 
2

>  <fr_SH>  (190) 
0

>  <fr_aldehyde>  (190) 
0

>  <fr_alkyl_carbamate>  (190) 
0

>  <fr_alkyl_halide>  (190) 
0

>  <fr_allylic_oxid>  (190) 
0

>  <fr_amide>  (190) 
0

>  <fr_amidine>  (190) 
0

>  <fr_aniline>  (190) 
0

>  <fr_aryl_methyl>  (190) 
1

>  <fr_azide>  (190) 
0

>  <fr_azo>  (190) 
0

>  <fr_barbitur>  (190) 
0

>  <fr_benzene>  (190) 
2

>  <fr_benzodiazepine>  (190) 
0

>  <fr_bicyclic>  (190) 
2

>  <fr_diazo>  (190) 
0

>  <fr_dihydropyridine>  (190) 
0

>  <fr_epoxide>  (190) 
0

>  <fr_ester>  (190) 
0

>  <fr_ether>  (190) 
1

>  <fr_furan>  (190) 
0

>  <fr_guanido>  (190) 
0

>  <fr_halogen>  (190) 
0

>  <fr_hdrzine>  (190) 
0

>  <fr_hdrzone>  (190) 
0

>  <fr_imidazole>  (190) 
0

>  <fr_imide>  (190) 
0

>  <fr_isocyan>  (190) 
0

>  <fr_isothiocyan>  (190) 
0

>  <fr_ketone>  (190) 
0

>  <fr_ketone_Topliss>  (190) 
0

>  <fr_lactam>  (190) 
0

>  <fr_lactone>  (190) 
0

>  <fr_methoxy>  (190) 
0

>  <fr_morpholine>  (190) 
0

>  <fr_nitrile>  (190) 
0

>  <fr_nitro>  (190) 
0

>  <fr_nitro_arom>  (190) 
0

>  <fr_nitro_arom_nonortho>  (190) 
0

>  <fr_nitroso>  (190) 
0

>  <fr_oxazole>  (190) 
0

>  <fr_oxime>  (190) 
0

>  <fr_para_hydroxylation>  (190) 
1

>  <fr_phenol>  (190) 
0

>  <fr_phenol_noOrthoHbond>  (190) 
0

>  <fr_phos_acid>  (190) 
0

>  <fr_phos_ester>  (190) 
0

>  <fr_piperdine>  (190) 
0

>  <fr_piperzine>  (190) 
0

>  <fr_priamide>  (190) 
0

>  <fr_prisulfonamd>  (190) 
0

>  <fr_pyridine>  (190) 
1

>  <fr_quatN>  (190) 
1

>  <fr_sulfide>  (190) 
0

>  <fr_sulfonamd>  (190) 
0

>  <fr_sulfone>  (190) 
0

>  <fr_term_acetylene>  (190) 
0

>  <fr_tetrazole>  (190) 
0

>  <fr_thiazole>  (190) 
0

>  <fr_thiocyan>  (190) 
0

>  <fr_thiophene>  (190) 
0

>  <fr_unbrch_alkane>  (190) 
0

>  <fr_urea>  (190) 
0

>  <NP-Likeness>  (190) 
-0.851945

$$$$
L20
     RDKit          3D

  0  0  0  0  0  0  0  0  0  0999 V3000
M  V30 BEGIN CTAB
M  V30 COUNTS 54 58 0 0 0
M  V30 BEGIN ATOM
M  V30 1 C 1.566964 -2.468779 1.264729 0
M  V30 2 N 2.567178 -2.023078 2.087406 0
M  V30 3 C 3.022542 -0.762678 1.960217 0
M  V30 4 C 2.478563 0.068293 1.003292 0
M  V30 5 C 2.863149 1.457262 0.740378 0
M  V30 6 C 2.818058 2.099758 -0.480320 0
M  V30 7 C 3.227897 3.424137 -0.526968 0
M  V30 8 C 3.665625 4.078123 0.606050 0
M  V30 9 C 3.711056 3.430909 1.835289 0
M  V30 10 C 3.305246 2.113638 1.891108 0
M  V30 11 C 4.187782 4.348070 2.748664 0
M  V30 12 C 4.406492 4.105234 4.199914 0
M  V30 13 N 4.422189 5.503570 2.101862 0
M  V30 14 N 4.108980 5.349565 0.804758 0
M  V30 15 C 1.473069 -0.399201 0.185262 0
M  V30 16 C 0.977739 -1.662057 0.272860 0
M  V30 17 O 0.038105 -2.430424 -0.334447 0
M  V30 18 C -0.850775 -2.195831 -1.351579 0
M  V30 19 C -1.829127 -1.109930 -1.029092 0 CFG=2
M  V30 20 C -2.702357 -1.368084 0.172039 0
M  V30 21 C -3.572047 -2.552558 0.076318 0
M  V30 22 C -4.900593 -2.390333 -0.350187 0
M  V30 23 N -5.564405 -3.554503 -0.424627 0
M  V30 24 C -4.722277 -4.528083 -0.056322 0
M  V30 25 C -4.792517 -5.895546 0.084087 0
M  V30 26 C -3.686676 -6.601855 0.513952 0
M  V30 27 C -2.476566 -5.976183 0.818674 0
M  V30 28 C -2.428599 -4.619275 0.671998 0
M  V30 29 C -3.527838 -3.912546 0.242949 0
M  V30 30 N -2.728829 -0.886393 -2.192774 0 CHG=1 VAL=4
M  V30 31 H 1.371957 -3.513282 1.558498 0
M  V30 32 H 3.802508 -0.336999 2.565122 0
M  V30 33 H 2.462351 1.510848 -1.312463 0
M  V30 34 H 3.187812 3.916583 -1.488563 0
M  V30 35 H 3.372348 1.689784 2.878770 0
M  V30 36 H 3.935225 4.863454 4.837385 0
M  V30 37 H 5.510003 4.021201 4.390123 0
M  V30 38 H 3.983051 3.124959 4.507876 0
M  V30 39 H 4.170597 6.046692 0.022509 0
M  V30 40 H 0.989181 0.150550 -0.587935 0
M  V30 41 H -1.436779 -3.115929 -1.577336 0
M  V30 42 H -0.356915 -1.945955 -2.324099 0
M  V30 43 H -1.306307 -0.159274 -0.850813 0
M  V30 44 H -3.317577 -0.471199 0.429737 0
M  V30 45 H -2.034425 -1.495668 1.077681 0
M  V30 46 H -5.432090 -1.477363 -0.614823 0
M  V30 47 H -6.541282 -3.748551 -0.703887 0
M  V30 48 H -5.732775 -6.364728 -0.153888 0
M  V30 49 H -3.840640 -7.679109 0.592925 0
M  V30 50 H -1.639888 -6.585929 1.152932 0
M  V30 51 H -1.497703 -4.159327 0.922795 0
M  V30 52 H -3.511405 -1.568005 -2.191200 0
M  V30 53 H -3.141084 0.067367 -2.165848 0
M  V30 54 H -2.163234 -0.934797 -3.092287 0
M  V30 END ATOM
M  V30 BEGIN BOND
M  V30 1 2 1 2
M  V30 2 1 2 3
M  V30 3 2 3 4
M  V30 4 1 4 5
M  V30 5 2 5 6
M  V30 6 1 6 7
M  V30 7 2 7 8
M  V30 8 1 8 9
M  V30 9 2 9 10
M  V30 10 1 9 11
M  V30 11 1 11 12
M  V30 12 2 11 13
M  V30 13 1 13 14
M  V30 14 1 4 15
M  V30 15 2 15 16
M  V30 16 1 16 17
M  V30 17 1 17 18
M  V30 18 1 18 19
M  V30 19 1 19 20
M  V30 20 1 20 21
M  V30 21 2 21 22
M  V30 22 1 22 23
M  V30 23 1 23 24
M  V30 24 2 24 25
M  V30 25 1 25 26
M  V30 26 2 26 27
M  V30 27 1 27 28
M  V30 28 2 28 29
M  V30 29 1 19 30
M  V30 30 1 16 1
M  V30 31 1 29 21
M  V30 32 1 10 5
M  V30 33 1 29 24
M  V30 34 1 14 8
M  V30 35 1 1 31
M  V30 36 1 3 32
M  V30 37 1 6 33
M  V30 38 1 7 34
M  V30 39 1 10 35
M  V30 40 1 12 36
M  V30 41 1 12 37
M  V30 42 1 12 38
M  V30 43 1 14 39
M  V30 44 1 15 40
M  V30 45 1 18 41
M  V30 46 1 18 42
M  V30 47 1 19 43 CFG=1
M  V30 48 1 20 44
M  V30 49 1 20 45
M  V30 50 1 22 46
M  V30 51 1 23 47
M  V30 52 1 25 48
M  V30 53 1 26 49
M  V30 54 1 27 50
M  V30 55 1 28 51
M  V30 56 1 30 52
M  V30 57 1 30 53
M  V30 58 1 30 54
M  V30 END BOND
M  V30 END CTAB
M  END
>  <Dataset>  (191) 
PDB

>  <Ligand_Instance>  (191) 
2JDV_L20_A_1351

>  <PDB_ID>  (191) 
2JDV

>  <Standardized_SMILES>  (191) 
[H]C1=NC([H])=C(C2=C([H])C([H])=C3C(=C2[H])C(C([H])([H])[H])=NN3[H])C([H])=C1OC([H])([H])[C@]([H])(C([H])([H])C1=C([H])N([H])C2=C([H])C([H])=C([H])C([H])=C21)[N+]([H])([H])[H]

>  <Name>  (191) 
(2S)-1-(1H-INDOL-3-YL)-3-{[5-(3-METHYL-1H-INDAZOL-5-YL)PYRIDIN-3-YL]OXY}PROPAN-2-AMINE

>  <Pocket>  (191) 
A

>  <ATP_Site>  (191) 
1.0

>  <Peripheral>  (191) 
0.0

>  <Num_H_Atoms_ProtBoundConf>  (191) 
24.0

>  <Num_Resolved_Atoms>  (191) 
30.0

>  <Num_Not_Resolved_Atoms>  (191) 
0.0

>  <2D_Mol_H>  (191) 
<rdkit.Chem.rdchem.Mol object at 0x72a238df0f90>

>  <MW>  (191) 
398.49

>  <HBA>  (191) 
3

>  <HBD>  (191) 
3

>  <LogP>  (191) 
3.64662

>  <NRB>  (191) 
8

>  <TPSA>  (191) 
94.23

>  <Num_Heavy_Atoms>  (191) 
30

>  <Ro5>  (191) 
[True, True, True, True, True, True]

>  <Ro5_Fulfilled>  (191) 
True

>  <Ro3>  (191) 
[False, True, True, False]

>  <Ro3_Fulfilled>  (191) 
False

>  <Fsp3>  (191) 
0.166667

>  <Fsp3_0.42>  (191) 
False

>  <Fsp3_0.45>  (191) 
False

>  <Stereogenic_Carbons>  (191) 
1

>  <C_Atoms>  (191) 
24

>  <FCStereo>  (191) 
0.041667

>  <SPS>  (191) 
374

>  <nSPS>  (191) 
12.466667

>  <PBF>  (191) 
0.977235

>  <PBF_0.6>  (191) 
True

>  <nPBF>  (191) 
0.032575

>  <nPBF_0.016>  (191) 
True

>  <PMI1>  (191) 
1290.270854

>  <PMI2>  (191) 
9069.192708

>  <PMI3>  (191) 
9630.099685

>  <NPR1>  (191) 
0.133983

>  <NPR2>  (191) 
0.941755

>  <Sum_NPR>  (191) 
1.075738

>  <Sum_NPR_1.07>  (191) 
True

>  <Sum_NPR_1.2>  (191) 
False

>  <MaxAbsEStateIndex>  (191) 
6.033268

>  <MaxEStateIndex>  (191) 
6.033268

>  <MinAbsEStateIndex>  (191) 
0.136845

>  <MinEStateIndex>  (191) 
0.136845

>  <qed>  (191) 
0.407468

>  <MolWt>  (191) 
398.49

>  <HeavyAtomMolWt>  (191) 
374.298

>  <ExactMolWt>  (191) 
398.197537

>  <NumValenceElectrons>  (191) 
150

>  <NumRadicalElectrons>  (191) 
0

>  <MaxPartialCharge>  (191) 
0.140113

>  <MinPartialCharge>  (191) 
-0.485747

>  <MaxAbsPartialCharge>  (191) 
0.485747

>  <MinAbsPartialCharge>  (191) 
0.140113

>  <FpDensityMorgan1>  (191) 
1.0

>  <FpDensityMorgan2>  (191) 
1.9

>  <FpDensityMorgan3>  (191) 
2.833333

>  <BCUT2D_MWHI>  (191) 
16.478404

>  <BCUT2D_MWLOW>  (191) 
10.046878

>  <BCUT2D_CHGHI>  (191) 
2.128654

>  <BCUT2D_CHGLO>  (191) 
-2.111929

>  <BCUT2D_LOGPHI>  (191) 
2.267912

>  <BCUT2D_LOGPLOW>  (191) 
-2.641605

>  <BCUT2D_MRHI>  (191) 
5.861615

>  <BCUT2D_MRLOW>  (191) 
-0.422665

>  <AvgIpc>  (191) 
3.358389

>  <BalabanJ>  (191) 
1.286165

>  <BertzCT>  (191) 
1319.700942

>  <Chi0>  (191) 
20.501425

>  <Chi0n>  (191) 
16.852199

>  <Chi0v>  (191) 
16.852199

>  <Chi1>  (191) 
14.669836

>  <Chi1n>  (191) 
10.082144

>  <Chi1v>  (191) 
10.082144

>  <Chi2n>  (191) 
7.719349

>  <Chi2v>  (191) 
7.719349

>  <Chi3n>  (191) 
5.469118

>  <Chi3v>  (191) 
5.469118

>  <Chi4n>  (191) 
3.865087

>  <Chi4v>  (191) 
3.865087

>  <HallKierAlpha>  (191) 
-3.64

>  <Ipc>  (191) 
14933853.825053

>  <Kappa1>  (191) 
18.392483

>  <Kappa2>  (191) 
7.647522

>  <Kappa3>  (191) 
3.53063

>  <LabuteASA>  (191) 
173.648195

>  <PEOE_VSA1>  (191) 
15.454509

>  <PEOE_VSA10>  (191) 
18.398235

>  <PEOE_VSA11>  (191) 
0.0

>  <PEOE_VSA12>  (191) 
0.0

>  <PEOE_VSA13>  (191) 
0.0

>  <PEOE_VSA14>  (191) 
0.0

>  <PEOE_VSA2>  (191) 
10.08266

>  <PEOE_VSA3>  (191) 
0.0

>  <PEOE_VSA4>  (191) 
5.098682

>  <PEOE_VSA5>  (191) 
0.0

>  <PEOE_VSA6>  (191) 
24.265468

>  <PEOE_VSA7>  (191) 
42.316108

>  <PEOE_VSA8>  (191) 
40.667109

>  <PEOE_VSA9>  (191) 
17.407472

>  <SMR_VSA1>  (191) 
10.47053

>  <SMR_VSA10>  (191) 
21.80585

>  <SMR_VSA2>  (191) 
0.0

>  <SMR_VSA3>  (191) 
20.165321

>  <SMR_VSA4>  (191) 
0.0

>  <SMR_VSA5>  (191) 
19.3864

>  <SMR_VSA6>  (191) 
6.606882

>  <SMR_VSA7>  (191) 
78.378847

>  <SMR_VSA8>  (191) 
0.0

>  <SMR_VSA9>  (191) 
16.876415

>  <SlogP_VSA1>  (191) 
10.47053

>  <SlogP_VSA10>  (191) 
0.0

>  <SlogP_VSA11>  (191) 
5.749512

>  <SlogP_VSA12>  (191) 
0.0

>  <SlogP_VSA2>  (191) 
32.814043

>  <SlogP_VSA3>  (191) 
6.420822

>  <SlogP_VSA4>  (191) 
6.923737

>  <SlogP_VSA5>  (191) 
11.257379

>  <SlogP_VSA6>  (191) 
67.121467

>  <SlogP_VSA7>  (191) 
0.0

>  <SlogP_VSA8>  (191) 
32.932753

>  <SlogP_VSA9>  (191) 
0.0

>  <EState_VSA1>  (191) 
0.0

>  <EState_VSA10>  (191) 
0.0

>  <EState_VSA11>  (191) 
0.0

>  <EState_VSA2>  (191) 
6.041841

>  <EState_VSA3>  (191) 
6.606882

>  <EState_VSA4>  (191) 
45.41079

>  <EState_VSA5>  (191) 
10.949676

>  <EState_VSA6>  (191) 
6.196844

>  <EState_VSA7>  (191) 
31.319682

>  <EState_VSA8>  (191) 
62.427667

>  <EState_VSA9>  (191) 
4.736863

>  <VSA_EState1>  (191) 
6.033268

>  <VSA_EState10>  (191) 
0.0

>  <VSA_EState2>  (191) 
7.694187

>  <VSA_EState3>  (191) 
9.682424

>  <VSA_EState4>  (191) 
10.846148

>  <VSA_EState5>  (191) 
0.753786

>  <VSA_EState6>  (191) 
16.753879

>  <VSA_EState7>  (191) 
6.534915

>  <VSA_EState8>  (191) 
2.534726

>  <VSA_EState9>  (191) 
0.0

>  <FractionCSP3>  (191) 
0.166667

>  <HeavyAtomCount>  (191) 
30

>  <NHOHCount>  (191) 
5

>  <NOCount>  (191) 
6

>  <NumAliphaticCarbocycles>  (191) 
0

>  <NumAliphaticHeterocycles>  (191) 
0

>  <NumAliphaticRings>  (191) 
0

>  <NumAromaticCarbocycles>  (191) 
2

>  <NumAromaticHeterocycles>  (191) 
3

>  <NAR>  (191) 
5

>  <NumHAcceptors>  (191) 
3

>  <NumHDonors>  (191) 
3

>  <NumHeteroatoms>  (191) 
6

>  <NumRotatableBonds>  (191) 
6

>  <NumSaturatedCarbocycles>  (191) 
0

>  <NumSaturatedHeterocycles>  (191) 
0

>  <NumSaturatedRings>  (191) 
0

>  <RingCount>  (191) 
5

>  <MolLogP>  (191) 
3.64662

>  <MolMR>  (191) 
118.2355

>  <fr_Al_COO>  (191) 
0

>  <fr_Al_OH>  (191) 
0

>  <fr_Al_OH_noTert>  (191) 
0

>  <fr_ArN>  (191) 
0

>  <fr_Ar_COO>  (191) 
0

>  <fr_Ar_N>  (191) 
4

>  <fr_Ar_NH>  (191) 
2

>  <fr_Ar_OH>  (191) 
0

>  <fr_COO>  (191) 
0

>  <fr_COO2>  (191) 
0

>  <fr_C_O>  (191) 
0

>  <fr_C_O_noCOO>  (191) 
0

>  <fr_C_S>  (191) 
0

>  <fr_HOCCN>  (191) 
0

>  <fr_Imine>  (191) 
0

>  <fr_NH0>  (191) 
2

>  <fr_NH1>  (191) 
2

>  <fr_NH2>  (191) 
0

>  <fr_N_O>  (191) 
0

>  <fr_Ndealkylation1>  (191) 
0

>  <fr_Ndealkylation2>  (191) 
0

>  <fr_Nhpyrrole>  (191) 
2

>  <fr_SH>  (191) 
0

>  <fr_aldehyde>  (191) 
0

>  <fr_alkyl_carbamate>  (191) 
0

>  <fr_alkyl_halide>  (191) 
0

>  <fr_allylic_oxid>  (191) 
0

>  <fr_amide>  (191) 
0

>  <fr_amidine>  (191) 
0

>  <fr_aniline>  (191) 
0

>  <fr_aryl_methyl>  (191) 
1

>  <fr_azide>  (191) 
0

>  <fr_azo>  (191) 
0

>  <fr_barbitur>  (191) 
0

>  <fr_benzene>  (191) 
2

>  <fr_benzodiazepine>  (191) 
0

>  <fr_bicyclic>  (191) 
2

>  <fr_diazo>  (191) 
0

>  <fr_dihydropyridine>  (191) 
0

>  <fr_epoxide>  (191) 
0

>  <fr_ester>  (191) 
0

>  <fr_ether>  (191) 
1

>  <fr_furan>  (191) 
0

>  <fr_guanido>  (191) 
0

>  <fr_halogen>  (191) 
0

>  <fr_hdrzine>  (191) 
0

>  <fr_hdrzone>  (191) 
0

>  <fr_imidazole>  (191) 
0

>  <fr_imide>  (191) 
0

>  <fr_isocyan>  (191) 
0

>  <fr_isothiocyan>  (191) 
0

>  <fr_ketone>  (191) 
0

>  <fr_ketone_Topliss>  (191) 
0

>  <fr_lactam>  (191) 
0

>  <fr_lactone>  (191) 
0

>  <fr_methoxy>  (191) 
0

>  <fr_morpholine>  (191) 
0

>  <fr_nitrile>  (191) 
0

>  <fr_nitro>  (191) 
0

>  <fr_nitro_arom>  (191) 
0

>  <fr_nitro_arom_nonortho>  (191) 
0

>  <fr_nitroso>  (191) 
0

>  <fr_oxazole>  (191) 
0

>  <fr_oxime>  (191) 
0

>  <fr_para_hydroxylation>  (191) 
1

>  <fr_phenol>  (191) 
0

>  <fr_phenol_noOrthoHbond>  (191) 
0

>  <fr_phos_acid>  (191) 
0

>  <fr_phos_ester>  (191) 
0

>  <fr_piperdine>  (191) 
0

>  <fr_piperzine>  (191) 
0

>  <fr_priamide>  (191) 
0

>  <fr_prisulfonamd>  (191) 
0

>  <fr_pyridine>  (191) 
1

>  <fr_quatN>  (191) 
1

>  <fr_sulfide>  (191) 
0

>  <fr_sulfonamd>  (191) 
0

>  <fr_sulfone>  (191) 
0

>  <fr_term_acetylene>  (191) 
0

>  <fr_tetrazole>  (191) 
0

>  <fr_thiazole>  (191) 
0

>  <fr_thiocyan>  (191) 
0

>  <fr_thiophene>  (191) 
0

>  <fr_unbrch_alkane>  (191) 
0

>  <fr_urea>  (191) 
0

>  <NP-Likeness>  (191) 
-0.851945

$$$$
L20
     RDKit          3D

  0  0  0  0  0  0  0  0  0  0999 V3000
M  V30 BEGIN CTAB
M  V30 COUNTS 54 58 0 0 0
M  V30 BEGIN ATOM
M  V30 1 C 1.566964 -2.468779 1.264729 0
M  V30 2 N 2.567178 -2.023078 2.087406 0
M  V30 3 C 3.022542 -0.762678 1.960217 0
M  V30 4 C 2.478563 0.068293 1.003292 0
M  V30 5 C 2.863149 1.457262 0.740378 0
M  V30 6 C 2.818058 2.099758 -0.480320 0
M  V30 7 C 3.227897 3.424137 -0.526968 0
M  V30 8 C 3.665625 4.078123 0.606050 0
M  V30 9 C 3.711056 3.430909 1.835289 0
M  V30 10 C 3.305246 2.113638 1.891108 0
M  V30 11 C 4.187782 4.348070 2.748664 0
M  V30 12 C 4.406492 4.105234 4.199914 0
M  V30 13 N 4.422189 5.503570 2.101862 0
M  V30 14 N 4.108980 5.349565 0.804758 0
M  V30 15 C 1.473069 -0.399201 0.185262 0
M  V30 16 C 0.977739 -1.662057 0.272860 0
M  V30 17 O 0.038105 -2.430424 -0.334447 0
M  V30 18 C -0.850775 -2.195831 -1.351579 0
M  V30 19 C -1.829127 -1.109930 -1.029092 0 CFG=2
M  V30 20 C -2.702357 -1.368084 0.172039 0
M  V30 21 C -3.572047 -2.552558 0.076318 0
M  V30 22 C -4.900593 -2.390333 -0.350187 0
M  V30 23 N -5.564405 -3.554503 -0.424627 0
M  V30 24 C -4.722277 -4.528083 -0.056322 0
M  V30 25 C -4.792517 -5.895546 0.084087 0
M  V30 26 C -3.686676 -6.601855 0.513952 0
M  V30 27 C -2.476566 -5.976183 0.818674 0
M  V30 28 C -2.428599 -4.619275 0.671998 0
M  V30 29 C -3.527838 -3.912546 0.242949 0
M  V30 30 N -2.728829 -0.886393 -2.192774 0 CHG=1 VAL=4
M  V30 31 H 1.371957 -3.513282 1.558498 0
M  V30 32 H 3.802508 -0.336999 2.565122 0
M  V30 33 H 2.462351 1.510848 -1.312463 0
M  V30 34 H 3.187812 3.916583 -1.488563 0
M  V30 35 H 3.372348 1.689784 2.878770 0
M  V30 36 H 3.935225 4.863454 4.837385 0
M  V30 37 H 5.510003 4.021201 4.390123 0
M  V30 38 H 3.983051 3.124959 4.507876 0
M  V30 39 H 4.170597 6.046692 0.022509 0
M  V30 40 H 0.989181 0.150550 -0.587935 0
M  V30 41 H -1.436779 -3.115929 -1.577336 0
M  V30 42 H -0.356915 -1.945955 -2.324099 0
M  V30 43 H -1.306307 -0.159274 -0.850813 0
M  V30 44 H -3.317577 -0.471199 0.429737 0
M  V30 45 H -2.034425 -1.495668 1.077681 0
M  V30 46 H -5.432090 -1.477363 -0.614823 0
M  V30 47 H -6.541282 -3.748551 -0.703887 0
M  V30 48 H -5.732775 -6.364728 -0.153888 0
M  V30 49 H -3.840640 -7.679109 0.592925 0
M  V30 50 H -1.639888 -6.585929 1.152932 0
M  V30 51 H -1.497703 -4.159327 0.922795 0
M  V30 52 H -3.511405 -1.568005 -2.191200 0
M  V30 53 H -3.141084 0.067367 -2.165848 0
M  V30 54 H -2.163234 -0.934797 -3.092287 0
M  V30 END ATOM
M  V30 BEGIN BOND
M  V30 1 2 1 2
M  V30 2 1 2 3
M  V30 3 2 3 4
M  V30 4 1 4 5
M  V30 5 2 5 6
M  V30 6 1 6 7
M  V30 7 2 7 8
M  V30 8 1 8 9
M  V30 9 2 9 10
M  V30 10 1 9 11
M  V30 11 1 11 12
M  V30 12 2 11 13
M  V30 13 1 13 14
M  V30 14 1 4 15
M  V30 15 2 15 16
M  V30 16 1 16 17
M  V30 17 1 17 18
M  V30 18 1 18 19
M  V30 19 1 19 20
M  V30 20 1 20 21
M  V30 21 2 21 22
M  V30 22 1 22 23
M  V30 23 1 23 24
M  V30 24 2 24 25
M  V30 25 1 25 26
M  V30 26 2 26 27
M  V30 27 1 27 28
M  V30 28 2 28 29
M  V30 29 1 19 30
M  V30 30 1 16 1
M  V30 31 1 29 21
M  V30 32 1 10 5
M  V30 33 1 29 24
M  V30 34 1 14 8
M  V30 35 1 1 31
M  V30 36 1 3 32
M  V30 37 1 6 33
M  V30 38 1 7 34
M  V30 39 1 10 35
M  V30 40 1 12 36
M  V30 41 1 12 37
M  V30 42 1 12 38
M  V30 43 1 14 39
M  V30 44 1 15 40
M  V30 45 1 18 41
M  V30 46 1 18 42
M  V30 47 1 19 43 CFG=1
M  V30 48 1 20 44
M  V30 49 1 20 45
M  V30 50 1 22 46
M  V30 51 1 23 47
M  V30 52 1 25 48
M  V30 53 1 26 49
M  V30 54 1 27 50
M  V30 55 1 28 51
M  V30 56 1 30 52
M  V30 57 1 30 53
M  V30 58 1 30 54
M  V30 END BOND
M  V30 END CTAB
M  END
>  <Dataset>  (192) 
PDB

>  <Ligand_Instance>  (192) 
2UZU_L20_E_1351

>  <PDB_ID>  (192) 
2UZU

>  <Standardized_SMILES>  (192) 
[H]C1=NC([H])=C(C2=C([H])C([H])=C3C(=C2[H])C(C([H])([H])[H])=NN3[H])C([H])=C1OC([H])([H])[C@]([H])(C([H])([H])C1=C([H])N([H])C2=C([H])C([H])=C([H])C([H])=C21)[N+]([H])([H])[H]

>  <Name>  (192) 
(2S)-1-(1H-INDOL-3-YL)-3-{[5-(3-METHYL-1H-INDAZOL-5-YL)PYRIDIN-3-YL]OXY}PROPAN-2-AMINE

>  <Pocket>  (192) 
A

>  <ATP_Site>  (192) 
1.0

>  <Peripheral>  (192) 
0.0

>  <Num_H_Atoms_ProtBoundConf>  (192) 
24.0

>  <Num_Resolved_Atoms>  (192) 
30.0

>  <Num_Not_Resolved_Atoms>  (192) 
0.0

>  <2D_Mol_H>  (192) 
<rdkit.Chem.rdchem.Mol object at 0x72a238df1070>

>  <MW>  (192) 
398.49

>  <HBA>  (192) 
3

>  <HBD>  (192) 
3

>  <LogP>  (192) 
3.64662

>  <NRB>  (192) 
8

>  <TPSA>  (192) 
94.23

>  <Num_Heavy_Atoms>  (192) 
30

>  <Ro5>  (192) 
[True, True, True, True, True, True]

>  <Ro5_Fulfilled>  (192) 
True

>  <Ro3>  (192) 
[False, True, True, False]

>  <Ro3_Fulfilled>  (192) 
False

>  <Fsp3>  (192) 
0.166667

>  <Fsp3_0.42>  (192) 
False

>  <Fsp3_0.45>  (192) 
False

>  <Stereogenic_Carbons>  (192) 
1

>  <C_Atoms>  (192) 
24

>  <FCStereo>  (192) 
0.041667

>  <SPS>  (192) 
374

>  <nSPS>  (192) 
12.466667

>  <PBF>  (192) 
0.977235

>  <PBF_0.6>  (192) 
True

>  <nPBF>  (192) 
0.032575

>  <nPBF_0.016>  (192) 
True

>  <PMI1>  (192) 
1290.270854

>  <PMI2>  (192) 
9069.192708

>  <PMI3>  (192) 
9630.099685

>  <NPR1>  (192) 
0.133983

>  <NPR2>  (192) 
0.941755

>  <Sum_NPR>  (192) 
1.075738

>  <Sum_NPR_1.07>  (192) 
True

>  <Sum_NPR_1.2>  (192) 
False

>  <MaxAbsEStateIndex>  (192) 
6.033268

>  <MaxEStateIndex>  (192) 
6.033268

>  <MinAbsEStateIndex>  (192) 
0.136845

>  <MinEStateIndex>  (192) 
0.136845

>  <qed>  (192) 
0.407468

>  <MolWt>  (192) 
398.49

>  <HeavyAtomMolWt>  (192) 
374.298

>  <ExactMolWt>  (192) 
398.197537

>  <NumValenceElectrons>  (192) 
150

>  <NumRadicalElectrons>  (192) 
0

>  <MaxPartialCharge>  (192) 
0.140113

>  <MinPartialCharge>  (192) 
-0.485747

>  <MaxAbsPartialCharge>  (192) 
0.485747

>  <MinAbsPartialCharge>  (192) 
0.140113

>  <FpDensityMorgan1>  (192) 
1.0

>  <FpDensityMorgan2>  (192) 
1.9

>  <FpDensityMorgan3>  (192) 
2.833333

>  <BCUT2D_MWHI>  (192) 
16.478404

>  <BCUT2D_MWLOW>  (192) 
10.046878

>  <BCUT2D_CHGHI>  (192) 
2.128654

>  <BCUT2D_CHGLO>  (192) 
-2.111929

>  <BCUT2D_LOGPHI>  (192) 
2.267912

>  <BCUT2D_LOGPLOW>  (192) 
-2.641605

>  <BCUT2D_MRHI>  (192) 
5.861615

>  <BCUT2D_MRLOW>  (192) 
-0.422665

>  <AvgIpc>  (192) 
3.358389

>  <BalabanJ>  (192) 
1.286165

>  <BertzCT>  (192) 
1319.700942

>  <Chi0>  (192) 
20.501425

>  <Chi0n>  (192) 
16.852199

>  <Chi0v>  (192) 
16.852199

>  <Chi1>  (192) 
14.669836

>  <Chi1n>  (192) 
10.082144

>  <Chi1v>  (192) 
10.082144

>  <Chi2n>  (192) 
7.719349

>  <Chi2v>  (192) 
7.719349

>  <Chi3n>  (192) 
5.469118

>  <Chi3v>  (192) 
5.469118

>  <Chi4n>  (192) 
3.865087

>  <Chi4v>  (192) 
3.865087

>  <HallKierAlpha>  (192) 
-3.64

>  <Ipc>  (192) 
14933853.825053

>  <Kappa1>  (192) 
18.392483

>  <Kappa2>  (192) 
7.647522

>  <Kappa3>  (192) 
3.53063

>  <LabuteASA>  (192) 
173.648195

>  <PEOE_VSA1>  (192) 
15.454509

>  <PEOE_VSA10>  (192) 
18.398235

>  <PEOE_VSA11>  (192) 
0.0

>  <PEOE_VSA12>  (192) 
0.0

>  <PEOE_VSA13>  (192) 
0.0

>  <PEOE_VSA14>  (192) 
0.0

>  <PEOE_VSA2>  (192) 
10.08266

>  <PEOE_VSA3>  (192) 
0.0

>  <PEOE_VSA4>  (192) 
5.098682

>  <PEOE_VSA5>  (192) 
0.0

>  <PEOE_VSA6>  (192) 
24.265468

>  <PEOE_VSA7>  (192) 
42.316108

>  <PEOE_VSA8>  (192) 
40.667109

>  <PEOE_VSA9>  (192) 
17.407472

>  <SMR_VSA1>  (192) 
10.47053

>  <SMR_VSA10>  (192) 
21.80585

>  <SMR_VSA2>  (192) 
0.0

>  <SMR_VSA3>  (192) 
20.165321

>  <SMR_VSA4>  (192) 
0.0

>  <SMR_VSA5>  (192) 
19.3864

>  <SMR_VSA6>  (192) 
6.606882

>  <SMR_VSA7>  (192) 
78.378847

>  <SMR_VSA8>  (192) 
0.0

>  <SMR_VSA9>  (192) 
16.876415

>  <SlogP_VSA1>  (192) 
10.47053

>  <SlogP_VSA10>  (192) 
0.0

>  <SlogP_VSA11>  (192) 
5.749512

>  <SlogP_VSA12>  (192) 
0.0

>  <SlogP_VSA2>  (192) 
32.814043

>  <SlogP_VSA3>  (192) 
6.420822

>  <SlogP_VSA4>  (192) 
6.923737

>  <SlogP_VSA5>  (192) 
11.257379

>  <SlogP_VSA6>  (192) 
67.121467

>  <SlogP_VSA7>  (192) 
0.0

>  <SlogP_VSA8>  (192) 
32.932753

>  <SlogP_VSA9>  (192) 
0.0

>  <EState_VSA1>  (192) 
0.0

>  <EState_VSA10>  (192) 
0.0

>  <EState_VSA11>  (192) 
0.0

>  <EState_VSA2>  (192) 
6.041841

>  <EState_VSA3>  (192) 
6.606882

>  <EState_VSA4>  (192) 
45.41079

>  <EState_VSA5>  (192) 
10.949676

>  <EState_VSA6>  (192) 
6.196844

>  <EState_VSA7>  (192) 
31.319682

>  <EState_VSA8>  (192) 
62.427667

>  <EState_VSA9>  (192) 
4.736863

>  <VSA_EState1>  (192) 
6.033268

>  <VSA_EState10>  (192) 
0.0

>  <VSA_EState2>  (192) 
7.694187

>  <VSA_EState3>  (192) 
9.682424

>  <VSA_EState4>  (192) 
10.846148

>  <VSA_EState5>  (192) 
0.753786

>  <VSA_EState6>  (192) 
16.753879

>  <VSA_EState7>  (192) 
6.534915

>  <VSA_EState8>  (192) 
2.534726

>  <VSA_EState9>  (192) 
0.0

>  <FractionCSP3>  (192) 
0.166667

>  <HeavyAtomCount>  (192) 
30

>  <NHOHCount>  (192) 
5

>  <NOCount>  (192) 
6

>  <NumAliphaticCarbocycles>  (192) 
0

>  <NumAliphaticHeterocycles>  (192) 
0

>  <NumAliphaticRings>  (192) 
0

>  <NumAromaticCarbocycles>  (192) 
2

>  <NumAromaticHeterocycles>  (192) 
3

>  <NAR>  (192) 
5

>  <NumHAcceptors>  (192) 
3

>  <NumHDonors>  (192) 
3

>  <NumHeteroatoms>  (192) 
6

>  <NumRotatableBonds>  (192) 
6

>  <NumSaturatedCarbocycles>  (192) 
0

>  <NumSaturatedHeterocycles>  (192) 
0

>  <NumSaturatedRings>  (192) 
0

>  <RingCount>  (192) 
5

>  <MolLogP>  (192) 
3.64662

>  <MolMR>  (192) 
118.2355

>  <fr_Al_COO>  (192) 
0

>  <fr_Al_OH>  (192) 
0

>  <fr_Al_OH_noTert>  (192) 
0

>  <fr_ArN>  (192) 
0

>  <fr_Ar_COO>  (192) 
0

>  <fr_Ar_N>  (192) 
4

>  <fr_Ar_NH>  (192) 
2

>  <fr_Ar_OH>  (192) 
0

>  <fr_COO>  (192) 
0

>  <fr_COO2>  (192) 
0

>  <fr_C_O>  (192) 
0

>  <fr_C_O_noCOO>  (192) 
0

>  <fr_C_S>  (192) 
0

>  <fr_HOCCN>  (192) 
0

>  <fr_Imine>  (192) 
0

>  <fr_NH0>  (192) 
2

>  <fr_NH1>  (192) 
2

>  <fr_NH2>  (192) 
0

>  <fr_N_O>  (192) 
0

>  <fr_Ndealkylation1>  (192) 
0

>  <fr_Ndealkylation2>  (192) 
0

>  <fr_Nhpyrrole>  (192) 
2

>  <fr_SH>  (192) 
0

>  <fr_aldehyde>  (192) 
0

>  <fr_alkyl_carbamate>  (192) 
0

>  <fr_alkyl_halide>  (192) 
0

>  <fr_allylic_oxid>  (192) 
0

>  <fr_amide>  (192) 
0

>  <fr_amidine>  (192) 
0

>  <fr_aniline>  (192) 
0

>  <fr_aryl_methyl>  (192) 
1

>  <fr_azide>  (192) 
0

>  <fr_azo>  (192) 
0

>  <fr_barbitur>  (192) 
0

>  <fr_benzene>  (192) 
2

>  <fr_benzodiazepine>  (192) 
0

>  <fr_bicyclic>  (192) 
2

>  <fr_diazo>  (192) 
0

>  <fr_dihydropyridine>  (192) 
0

>  <fr_epoxide>  (192) 
0

>  <fr_ester>  (192) 
0

>  <fr_ether>  (192) 
1

>  <fr_furan>  (192) 
0

>  <fr_guanido>  (192) 
0

>  <fr_halogen>  (192) 
0

>  <fr_hdrzine>  (192) 
0

>  <fr_hdrzone>  (192) 
0

>  <fr_imidazole>  (192) 
0

>  <fr_imide>  (192) 
0

>  <fr_isocyan>  (192) 
0

>  <fr_isothiocyan>  (192) 
0

>  <fr_ketone>  (192) 
0

>  <fr_ketone_Topliss>  (192) 
0

>  <fr_lactam>  (192) 
0

>  <fr_lactone>  (192) 
0

>  <fr_methoxy>  (192) 
0

>  <fr_morpholine>  (192) 
0

>  <fr_nitrile>  (192) 
0

>  <fr_nitro>  (192) 
0

>  <fr_nitro_arom>  (192) 
0

>  <fr_nitro_arom_nonortho>  (192) 
0

>  <fr_nitroso>  (192) 
0

>  <fr_oxazole>  (192) 
0

>  <fr_oxime>  (192) 
0

>  <fr_para_hydroxylation>  (192) 
1

>  <fr_phenol>  (192) 
0

>  <fr_phenol_noOrthoHbond>  (192) 
0

>  <fr_phos_acid>  (192) 
0

>  <fr_phos_ester>  (192) 
0

>  <fr_piperdine>  (192) 
0

>  <fr_piperzine>  (192) 
0

>  <fr_priamide>  (192) 
0

>  <fr_prisulfonamd>  (192) 
0

>  <fr_pyridine>  (192) 
1

>  <fr_quatN>  (192) 
1

>  <fr_sulfide>  (192) 
0

>  <fr_sulfonamd>  (192) 
0

>  <fr_sulfone>  (192) 
0

>  <fr_term_acetylene>  (192) 
0

>  <fr_tetrazole>  (192) 
0

>  <fr_thiazole>  (192) 
0

>  <fr_thiocyan>  (192) 
0

>  <fr_thiophene>  (192) 
0

>  <fr_unbrch_alkane>  (192) 
0

>  <fr_urea>  (192) 
0

>  <NP-Likeness>  (192) 
-0.851945

$$$$
L9L
     RDKit          3D

  0  0  0  0  0  0  0  0  0  0999 V3000
M  V30 BEGIN CTAB
M  V30 COUNTS 50 53 0 0 0
M  V30 BEGIN ATOM
M  V30 1 C 1.264628 2.540280 0.693460 0
M  V30 2 C 2.116900 1.566770 0.392422 0
M  V30 3 C 3.458239 1.630075 -0.349119 0
M  V30 4 C 3.854545 2.857013 -0.832004 0
M  V30 5 C 5.077382 2.848309 -1.469587 0
M  V30 6 C 5.814052 1.691937 -1.594440 0
M  V30 7 C 5.330733 0.510369 -1.076348 0
M  V30 8 C 4.103742 0.419565 -0.415027 0
M  V30 9 C 6.339401 -0.576991 -1.347572 0
M  V30 10 C 7.431316 0.077186 -2.075242 0
M  V30 11 O 8.493312 -0.414856 -2.526409 0
M  V30 12 N 7.078537 1.449214 -2.199623 0
M  V30 13 S 1.345187 0.128486 1.080395 0
M  V30 14 C -0.136545 1.164784 1.721967 0
M  V30 15 N -1.229099 0.453877 2.452134 0
M  V30 16 C -2.527319 0.405462 1.870090 0
M  V30 17 C -2.633853 -0.178194 0.505382 0 CFG=2
M  V30 18 C -2.165450 -1.613423 0.443891 0
M  V30 19 C -2.933006 -2.522598 1.315835 0
M  V30 20 C -4.057230 -3.094385 0.710718 0
M  V30 21 C -4.866057 -3.970193 1.424071 0
M  V30 22 C -4.617915 -4.316356 2.725563 0
M  V30 23 C -5.517671 -5.255776 3.430460 0
M  V30 24 F -4.848752 -6.412305 3.803090 0
M  V30 25 F -6.106085 -4.727296 4.554987 0
M  V30 26 F -6.547008 -5.634790 2.567004 0
M  V30 27 C -3.520576 -3.755195 3.310318 0
M  V30 28 C -2.701764 -2.893119 2.649338 0
M  V30 29 N -1.946253 0.549813 -0.534478 0 CHG=1 VAL=4
M  V30 30 N 0.193480 2.168950 1.357848 0
M  V30 31 H 1.467079 3.582511 0.391680 0
M  V30 32 H 3.223179 3.724354 -0.696902 0
M  V30 33 H 5.449093 3.791592 -1.876956 0
M  V30 34 H 3.684570 -0.480921 0.005971 0
M  V30 35 H 6.711481 -0.967761 -0.376081 0
M  V30 36 H 5.903233 -1.420650 -1.918469 0
M  V30 37 H 7.648259 2.203033 -2.665653 0
M  V30 38 H -0.914155 0.052901 3.344382 0
M  V30 39 H -3.135239 -0.272720 2.542436 0
M  V30 40 H -3.019539 1.384870 1.967043 0
M  V30 41 H -3.735394 -0.111532 0.242769 0
M  V30 42 H -2.145545 -2.040474 -0.574060 0
M  V30 43 H -1.089491 -1.616341 0.782664 0
M  V30 44 H -4.371839 -2.904169 -0.323587 0
M  V30 45 H -5.740266 -4.412870 0.946374 0
M  V30 46 H -3.272293 -3.991362 4.339081 0
M  V30 47 H -1.809611 -2.402319 3.040686 0
M  V30 48 H -2.500087 0.392010 -1.428553 0
M  V30 49 H -1.007606 0.170981 -0.762155 0
M  V30 50 H -1.991183 1.580814 -0.400526 0
M  V30 END ATOM
M  V30 BEGIN BOND
M  V30 1 2 1 2
M  V30 2 1 2 3
M  V30 3 2 3 4
M  V30 4 1 4 5
M  V30 5 2 5 6
M  V30 6 1 6 7
M  V30 7 2 7 8
M  V30 8 1 7 9
M  V30 9 1 9 10
M  V30 10 2 10 11
M  V30 11 1 10 12
M  V30 12 1 2 13
M  V30 13 1 13 14
M  V30 14 1 14 15
M  V30 15 1 15 16
M  V30 16 1 16 17
M  V30 17 1 17 18
M  V30 18 1 18 19
M  V30 19 2 19 20
M  V30 20 1 20 21
M  V30 21 2 21 22
M  V30 22 1 22 23
M  V30 23 1 23 24
M  V30 24 1 23 25
M  V30 25 1 23 26
M  V30 26 1 22 27
M  V30 27 2 27 28
M  V30 28 1 17 29
M  V30 29 2 14 30
M  V30 30 1 30 1
M  V30 31 1 8 3
M  V30 32 1 28 19
M  V30 33 1 12 6
M  V30 34 1 1 31
M  V30 35 1 4 32
M  V30 36 1 5 33
M  V30 37 1 8 34
M  V30 38 1 9 35
M  V30 39 1 9 36
M  V30 40 1 12 37
M  V30 41 1 15 38
M  V30 42 1 16 39
M  V30 43 1 16 40
M  V30 44 1 17 41 CFG=3
M  V30 45 1 18 42
M  V30 46 1 18 43
M  V30 47 1 20 44
M  V30 48 1 21 45
M  V30 49 1 27 46
M  V30 50 1 28 47
M  V30 51 1 29 48
M  V30 52 1 29 49
M  V30 53 1 29 50
M  V30 END BOND
M  V30 END CTAB
M  END
>  <Dataset>  (193) 
PDB

>  <Ligand_Instance>  (193) 
3L9L_L9L_A_351

>  <PDB_ID>  (193) 
3L9L

>  <Standardized_SMILES>  (193) 
[H]C1=C(C2=C([H])C([H])=C3C(=C2[H])C([H])([H])C(=O)N3[H])SC(N([H])C([H])([H])[C@]([H])(C([H])([H])C2=C([H])C([H])=C(C(F)(F)F)C([H])=C2[H])[N+]([H])([H])[H])=N1

>  <Name>  (193) 
5-[2-({(2S)-2-amino-3-[4-(trifluoromethyl)phenyl]propyl}amino)-1,3-thiazol-5-yl]-1,3-dihydro-2H-indol-2-one

>  <Pocket>  (193) 
A

>  <ATP_Site>  (193) 
1.0

>  <Peripheral>  (193) 
0.0

>  <Num_H_Atoms_ProtBoundConf>  (193) 
20.0

>  <Num_Resolved_Atoms>  (193) 
30.0

>  <Num_Not_Resolved_Atoms>  (193) 
0.0

>  <2D_Mol_H>  (193) 
<rdkit.Chem.rdchem.Mol object at 0x72a238df1150>

>  <MW>  (193) 
433.479

>  <HBA>  (193) 
4

>  <HBD>  (193) 
3

>  <LogP>  (193) 
3.5886

>  <NRB>  (193) 
7

>  <TPSA>  (193) 
81.66

>  <Num_Heavy_Atoms>  (193) 
30

>  <Ro5>  (193) 
[True, True, True, True, True, True]

>  <Ro5_Fulfilled>  (193) 
True

>  <Ro3>  (193) 
[False, False, True, False]

>  <Ro3_Fulfilled>  (193) 
False

>  <Fsp3>  (193) 
0.238095

>  <Fsp3_0.42>  (193) 
False

>  <Fsp3_0.45>  (193) 
False

>  <Stereogenic_Carbons>  (193) 
1

>  <C_Atoms>  (193) 
21

>  <FCStereo>  (193) 
0.047619

>  <SPS>  (193) 
430

>  <nSPS>  (193) 
14.333333

>  <PBF>  (193) 
0.922623

>  <PBF_0.6>  (193) 
True

>  <nPBF>  (193) 
0.030754

>  <nPBF_0.016>  (193) 
True

>  <PMI1>  (193) 
1531.14509

>  <PMI2>  (193) 
12411.817835

>  <PMI3>  (193) 
13299.774183

>  <NPR1>  (193) 
0.115126

>  <NPR2>  (193) 
0.933235

>  <Sum_NPR>  (193) 
1.048361

>  <Sum_NPR_1.07>  (193) 
False

>  <Sum_NPR_1.2>  (193) 
False

>  <MaxAbsEStateIndex>  (193) 
12.651313

>  <MaxEStateIndex>  (193) 
12.651313

>  <MinAbsEStateIndex>  (193) 
0.003096

>  <MinEStateIndex>  (193) 
-4.322051

>  <qed>  (193) 
0.555786

>  <MolWt>  (193) 
433.479

>  <HeavyAtomMolWt>  (193) 
413.319

>  <ExactMolWt>  (193) 
433.130443

>  <NumValenceElectrons>  (193) 
156

>  <NumRadicalElectrons>  (193) 
0

>  <MaxPartialCharge>  (193) 
0.41591

>  <MinPartialCharge>  (193) 
-0.355526

>  <MaxAbsPartialCharge>  (193) 
0.41591

>  <MinAbsPartialCharge>  (193) 
0.355526

>  <FpDensityMorgan1>  (193) 
1.2

>  <FpDensityMorgan2>  (193) 
1.966667

>  <FpDensityMorgan3>  (193) 
2.7

>  <BCUT2D_MWHI>  (193) 
32.133578

>  <BCUT2D_MWLOW>  (193) 
10.044973

>  <BCUT2D_CHGHI>  (193) 
2.295823

>  <BCUT2D_CHGLO>  (193) 
-2.10779

>  <BCUT2D_LOGPHI>  (193) 
2.331985

>  <BCUT2D_LOGPLOW>  (193) 
-2.644272

>  <BCUT2D_MRHI>  (193) 
7.184245

>  <BCUT2D_MRLOW>  (193) 
-0.413933

>  <AvgIpc>  (193) 
3.306704

>  <BalabanJ>  (193) 
1.331675

>  <BertzCT>  (193) 
1062.85859

>  <Chi0>  (193) 
21.302754

>  <Chi0n>  (193) 
15.922183

>  <Chi0v>  (193) 
16.73868

>  <Chi1>  (193) 
14.275008

>  <Chi1n>  (193) 
9.398159

>  <Chi1v>  (193) 
10.214656

>  <Chi2n>  (193) 
7.272276

>  <Chi2v>  (193) 
8.302925

>  <Chi3n>  (193) 
4.86815

>  <Chi3v>  (193) 
5.872271

>  <Chi4n>  (193) 
3.338821

>  <Chi4v>  (193) 
4.158264

>  <HallKierAlpha>  (193) 
-2.91

>  <Ipc>  (193) 
7135509.533138

>  <Kappa1>  (193) 
20.366331

>  <Kappa2>  (193) 
8.078206

>  <Kappa3>  (193) 
4.628107

>  <LabuteASA>  (193) 
174.687168

>  <PEOE_VSA1>  (193) 
16.367245

>  <PEOE_VSA10>  (193) 
6.041841

>  <PEOE_VSA11>  (193) 
5.131558

>  <PEOE_VSA12>  (193) 
5.90718

>  <PEOE_VSA13>  (193) 
0.0

>  <PEOE_VSA14>  (193) 
6.176299

>  <PEOE_VSA2>  (193) 
4.794537

>  <PEOE_VSA3>  (193) 
4.983979

>  <PEOE_VSA4>  (193) 
13.171245

>  <PEOE_VSA5>  (193) 
0.0

>  <PEOE_VSA6>  (193) 
29.535887

>  <PEOE_VSA7>  (193) 
40.955823

>  <PEOE_VSA8>  (193) 
18.305051

>  <PEOE_VSA9>  (193) 
23.406177

>  <SMR_VSA1>  (193) 
23.69945

>  <SMR_VSA10>  (193) 
28.06291

>  <SMR_VSA2>  (193) 
0.0

>  <SMR_VSA3>  (193) 
4.983979

>  <SMR_VSA4>  (193) 
0.0

>  <SMR_VSA5>  (193) 
25.059783

>  <SMR_VSA6>  (193) 
17.178334

>  <SMR_VSA7>  (193) 
65.351768

>  <SMR_VSA8>  (193) 
0.0

>  <SMR_VSA9>  (193) 
10.440599

>  <SlogP_VSA1>  (193) 
16.367245

>  <SlogP_VSA10>  (193) 
23.99019

>  <SlogP_VSA11>  (193) 
0.0

>  <SlogP_VSA12>  (193) 
11.336786

>  <SlogP_VSA2>  (193) 
23.477755

>  <SlogP_VSA3>  (193) 
23.812479

>  <SlogP_VSA4>  (193) 
0.0

>  <SlogP_VSA5>  (193) 
16.690354

>  <SlogP_VSA6>  (193) 
48.661413

>  <SlogP_VSA7>  (193) 
0.0

>  <SlogP_VSA8>  (193) 
10.440599

>  <SlogP_VSA9>  (193) 
0.0

>  <EState_VSA1>  (193) 
11.73975

>  <EState_VSA10>  (193) 
17.965782

>  <EState_VSA11>  (193) 
0.0

>  <EState_VSA2>  (193) 
11.949021

>  <EState_VSA3>  (193) 
19.3864

>  <EState_VSA4>  (193) 
44.519181

>  <EState_VSA5>  (193) 
23.46952

>  <EState_VSA6>  (193) 
6.196844

>  <EState_VSA7>  (193) 
18.199101

>  <EState_VSA8>  (193) 
21.351223

>  <EState_VSA9>  (193) 
0.0

>  <VSA_EState1>  (193) 
37.953939

>  <VSA_EState10>  (193) 
1.504864

>  <VSA_EState2>  (193) 
16.885356

>  <VSA_EState3>  (193) 
6.817176

>  <VSA_EState4>  (193) 
7.092733

>  <VSA_EState5>  (193) 
0.003096

>  <VSA_EState6>  (193) 
11.024303

>  <VSA_EState7>  (193) 
-1.583635

>  <VSA_EState8>  (193) 
0.552168

>  <VSA_EState9>  (193) 
0.0

>  <FractionCSP3>  (193) 
0.238095

>  <HeavyAtomCount>  (193) 
30

>  <NHOHCount>  (193) 
5

>  <NOCount>  (193) 
5

>  <NumAliphaticCarbocycles>  (193) 
0

>  <NumAliphaticHeterocycles>  (193) 
1

>  <NumAliphaticRings>  (193) 
1

>  <NumAromaticCarbocycles>  (193) 
2

>  <NumAromaticHeterocycles>  (193) 
1

>  <NAR>  (193) 
3

>  <NumHAcceptors>  (193) 
4

>  <NumHDonors>  (193) 
3

>  <NumHeteroatoms>  (193) 
9

>  <NumRotatableBonds>  (193) 
6

>  <NumSaturatedCarbocycles>  (193) 
0

>  <NumSaturatedHeterocycles>  (193) 
0

>  <NumSaturatedRings>  (193) 
0

>  <RingCount>  (193) 
4

>  <MolLogP>  (193) 
3.5886

>  <MolMR>  (193) 
110.1975

>  <fr_Al_COO>  (193) 
0

>  <fr_Al_OH>  (193) 
0

>  <fr_Al_OH_noTert>  (193) 
0

>  <fr_ArN>  (193) 
0

>  <fr_Ar_COO>  (193) 
0

>  <fr_Ar_N>  (193) 
1

>  <fr_Ar_NH>  (193) 
0

>  <fr_Ar_OH>  (193) 
0

>  <fr_COO>  (193) 
0

>  <fr_COO2>  (193) 
0

>  <fr_C_O>  (193) 
1

>  <fr_C_O_noCOO>  (193) 
1

>  <fr_C_S>  (193) 
0

>  <fr_HOCCN>  (193) 
0

>  <fr_Imine>  (193) 
0

>  <fr_NH0>  (193) 
1

>  <fr_NH1>  (193) 
2

>  <fr_NH2>  (193) 
0

>  <fr_N_O>  (193) 
0

>  <fr_Ndealkylation1>  (193) 
0

>  <fr_Ndealkylation2>  (193) 
0

>  <fr_Nhpyrrole>  (193) 
0

>  <fr_SH>  (193) 
0

>  <fr_aldehyde>  (193) 
0

>  <fr_alkyl_carbamate>  (193) 
0

>  <fr_alkyl_halide>  (193) 
3

>  <fr_allylic_oxid>  (193) 
0

>  <fr_amide>  (193) 
1

>  <fr_amidine>  (193) 
0

>  <fr_aniline>  (193) 
2

>  <fr_aryl_methyl>  (193) 
0

>  <fr_azide>  (193) 
0

>  <fr_azo>  (193) 
0

>  <fr_barbitur>  (193) 
0

>  <fr_benzene>  (193) 
2

>  <fr_benzodiazepine>  (193) 
0

>  <fr_bicyclic>  (193) 
1

>  <fr_diazo>  (193) 
0

>  <fr_dihydropyridine>  (193) 
0

>  <fr_epoxide>  (193) 
0

>  <fr_ester>  (193) 
0

>  <fr_ether>  (193) 
0

>  <fr_furan>  (193) 
0

>  <fr_guanido>  (193) 
0

>  <fr_halogen>  (193) 
3

>  <fr_hdrzine>  (193) 
0

>  <fr_hdrzone>  (193) 
0

>  <fr_imidazole>  (193) 
0

>  <fr_imide>  (193) 
0

>  <fr_isocyan>  (193) 
0

>  <fr_isothiocyan>  (193) 
0

>  <fr_ketone>  (193) 
0

>  <fr_ketone_Topliss>  (193) 
0

>  <fr_lactam>  (193) 
0

>  <fr_lactone>  (193) 
0

>  <fr_methoxy>  (193) 
0

>  <fr_morpholine>  (193) 
0

>  <fr_nitrile>  (193) 
0

>  <fr_nitro>  (193) 
0

>  <fr_nitro_arom>  (193) 
0

>  <fr_nitro_arom_nonortho>  (193) 
0

>  <fr_nitroso>  (193) 
0

>  <fr_oxazole>  (193) 
0

>  <fr_oxime>  (193) 
0

>  <fr_para_hydroxylation>  (193) 
0

>  <fr_phenol>  (193) 
0

>  <fr_phenol_noOrthoHbond>  (193) 
0

>  <fr_phos_acid>  (193) 
0

>  <fr_phos_ester>  (193) 
0

>  <fr_piperdine>  (193) 
0

>  <fr_piperzine>  (193) 
0

>  <fr_priamide>  (193) 
0

>  <fr_prisulfonamd>  (193) 
0

>  <fr_pyridine>  (193) 
0

>  <fr_quatN>  (193) 
1

>  <fr_sulfide>  (193) 
0

>  <fr_sulfonamd>  (193) 
0

>  <fr_sulfone>  (193) 
0

>  <fr_term_acetylene>  (193) 
0

>  <fr_tetrazole>  (193) 
0

>  <fr_thiazole>  (193) 
1

>  <fr_thiocyan>  (193) 
0

>  <fr_thiophene>  (193) 
0

>  <fr_unbrch_alkane>  (193) 
0

>  <fr_urea>  (193) 
0

>  <NP-Likeness>  (193) 
-1.128255

$$$$
L9L
     RDKit          3D

  0  0  0  0  0  0  0  0  0  0999 V3000
M  V30 BEGIN CTAB
M  V30 COUNTS 50 53 0 0 0
M  V30 BEGIN ATOM
M  V30 1 C 1.264628 2.540280 0.693460 0
M  V30 2 C 2.116900 1.566770 0.392422 0
M  V30 3 C 3.458239 1.630075 -0.349119 0
M  V30 4 C 3.854545 2.857013 -0.832004 0
M  V30 5 C 5.077382 2.848309 -1.469587 0
M  V30 6 C 5.814052 1.691937 -1.594440 0
M  V30 7 C 5.330733 0.510369 -1.076348 0
M  V30 8 C 4.103742 0.419565 -0.415027 0
M  V30 9 C 6.339401 -0.576991 -1.347572 0
M  V30 10 C 7.431316 0.077186 -2.075242 0
M  V30 11 O 8.493312 -0.414856 -2.526409 0
M  V30 12 N 7.078537 1.449214 -2.199623 0
M  V30 13 S 1.345187 0.128486 1.080395 0
M  V30 14 C -0.136545 1.164784 1.721967 0
M  V30 15 N -1.229099 0.453877 2.452134 0
M  V30 16 C -2.527319 0.405462 1.870090 0
M  V30 17 C -2.633853 -0.178194 0.505382 0 CFG=2
M  V30 18 C -2.165450 -1.613423 0.443891 0
M  V30 19 C -2.933006 -2.522598 1.315835 0
M  V30 20 C -4.057230 -3.094385 0.710718 0
M  V30 21 C -4.866057 -3.970193 1.424071 0
M  V30 22 C -4.617915 -4.316356 2.725563 0
M  V30 23 C -5.517671 -5.255776 3.430460 0
M  V30 24 F -4.848752 -6.412305 3.803090 0
M  V30 25 F -6.106085 -4.727296 4.554987 0
M  V30 26 F -6.547008 -5.634790 2.567004 0
M  V30 27 C -3.520576 -3.755195 3.310318 0
M  V30 28 C -2.701764 -2.893119 2.649338 0
M  V30 29 N -1.946253 0.549813 -0.534478 0 CHG=1 VAL=4
M  V30 30 N 0.193480 2.168950 1.357848 0
M  V30 31 H 1.467079 3.582511 0.391680 0
M  V30 32 H 3.223179 3.724354 -0.696902 0
M  V30 33 H 5.449093 3.791592 -1.876956 0
M  V30 34 H 3.684570 -0.480921 0.005971 0
M  V30 35 H 6.711481 -0.967761 -0.376081 0
M  V30 36 H 5.903233 -1.420650 -1.918469 0
M  V30 37 H 7.648259 2.203033 -2.665653 0
M  V30 38 H -0.914155 0.052901 3.344382 0
M  V30 39 H -3.135239 -0.272720 2.542436 0
M  V30 40 H -3.019539 1.384870 1.967043 0
M  V30 41 H -3.735394 -0.111532 0.242769 0
M  V30 42 H -2.145545 -2.040474 -0.574060 0
M  V30 43 H -1.089491 -1.616341 0.782664 0
M  V30 44 H -4.371839 -2.904169 -0.323587 0
M  V30 45 H -5.740266 -4.412870 0.946374 0
M  V30 46 H -3.272293 -3.991362 4.339081 0
M  V30 47 H -1.809611 -2.402319 3.040686 0
M  V30 48 H -2.500087 0.392010 -1.428553 0
M  V30 49 H -1.007606 0.170981 -0.762155 0
M  V30 50 H -1.991183 1.580814 -0.400526 0
M  V30 END ATOM
M  V30 BEGIN BOND
M  V30 1 2 1 2
M  V30 2 1 2 3
M  V30 3 2 3 4
M  V30 4 1 4 5
M  V30 5 2 5 6
M  V30 6 1 6 7
M  V30 7 2 7 8
M  V30 8 1 7 9
M  V30 9 1 9 10
M  V30 10 2 10 11
M  V30 11 1 10 12
M  V30 12 1 2 13
M  V30 13 1 13 14
M  V30 14 1 14 15
M  V30 15 1 15 16
M  V30 16 1 16 17
M  V30 17 1 17 18
M  V30 18 1 18 19
M  V30 19 2 19 20
M  V30 20 1 20 21
M  V30 21 2 21 22
M  V30 22 1 22 23
M  V30 23 1 23 24
M  V30 24 1 23 25
M  V30 25 1 23 26
M  V30 26 1 22 27
M  V30 27 2 27 28
M  V30 28 1 17 29
M  V30 29 2 14 30
M  V30 30 1 30 1
M  V30 31 1 8 3
M  V30 32 1 28 19
M  V30 33 1 12 6
M  V30 34 1 1 31
M  V30 35 1 4 32
M  V30 36 1 5 33
M  V30 37 1 8 34
M  V30 38 1 9 35
M  V30 39 1 9 36
M  V30 40 1 12 37
M  V30 41 1 15 38
M  V30 42 1 16 39
M  V30 43 1 16 40
M  V30 44 1 17 41 CFG=3
M  V30 45 1 18 42
M  V30 46 1 18 43
M  V30 47 1 20 44
M  V30 48 1 21 45
M  V30 49 1 27 46
M  V30 50 1 28 47
M  V30 51 1 29 48
M  V30 52 1 29 49
M  V30 53 1 29 50
M  V30 END BOND
M  V30 END CTAB
M  END
>  <Dataset>  (194) 
PDB

>  <Ligand_Instance>  (194) 
3L9L_L9L_B_351

>  <PDB_ID>  (194) 
3L9L

>  <Standardized_SMILES>  (194) 
[H]C1=C(C2=C([H])C([H])=C3C(=C2[H])C([H])([H])C(=O)N3[H])SC(N([H])C([H])([H])[C@]([H])(C([H])([H])C2=C([H])C([H])=C(C(F)(F)F)C([H])=C2[H])[N+]([H])([H])[H])=N1

>  <Name>  (194) 
5-[2-({(2S)-2-amino-3-[4-(trifluoromethyl)phenyl]propyl}amino)-1,3-thiazol-5-yl]-1,3-dihydro-2H-indol-2-one

>  <Pocket>  (194) 
A

>  <ATP_Site>  (194) 
1.0

>  <Peripheral>  (194) 
0.0

>  <Num_H_Atoms_ProtBoundConf>  (194) 
20.0

>  <Num_Resolved_Atoms>  (194) 
30.0

>  <Num_Not_Resolved_Atoms>  (194) 
0.0

>  <2D_Mol_H>  (194) 
<rdkit.Chem.rdchem.Mol object at 0x72a238df1230>

>  <MW>  (194) 
433.479

>  <HBA>  (194) 
4

>  <HBD>  (194) 
3

>  <LogP>  (194) 
3.5886

>  <NRB>  (194) 
7

>  <TPSA>  (194) 
81.66

>  <Num_Heavy_Atoms>  (194) 
30

>  <Ro5>  (194) 
[True, True, True, True, True, True]

>  <Ro5_Fulfilled>  (194) 
True

>  <Ro3>  (194) 
[False, False, True, False]

>  <Ro3_Fulfilled>  (194) 
False

>  <Fsp3>  (194) 
0.238095

>  <Fsp3_0.42>  (194) 
False

>  <Fsp3_0.45>  (194) 
False

>  <Stereogenic_Carbons>  (194) 
1

>  <C_Atoms>  (194) 
21

>  <FCStereo>  (194) 
0.047619

>  <SPS>  (194) 
430

>  <nSPS>  (194) 
14.333333

>  <PBF>  (194) 
0.922623

>  <PBF_0.6>  (194) 
True

>  <nPBF>  (194) 
0.030754

>  <nPBF_0.016>  (194) 
True

>  <PMI1>  (194) 
1531.14509

>  <PMI2>  (194) 
12411.817835

>  <PMI3>  (194) 
13299.774183

>  <NPR1>  (194) 
0.115126

>  <NPR2>  (194) 
0.933235

>  <Sum_NPR>  (194) 
1.048361

>  <Sum_NPR_1.07>  (194) 
False

>  <Sum_NPR_1.2>  (194) 
False

>  <MaxAbsEStateIndex>  (194) 
12.651313

>  <MaxEStateIndex>  (194) 
12.651313

>  <MinAbsEStateIndex>  (194) 
0.003096

>  <MinEStateIndex>  (194) 
-4.322051

>  <qed>  (194) 
0.555786

>  <MolWt>  (194) 
433.479

>  <HeavyAtomMolWt>  (194) 
413.319

>  <ExactMolWt>  (194) 
433.130443

>  <NumValenceElectrons>  (194) 
156

>  <NumRadicalElectrons>  (194) 
0

>  <MaxPartialCharge>  (194) 
0.41591

>  <MinPartialCharge>  (194) 
-0.355526

>  <MaxAbsPartialCharge>  (194) 
0.41591

>  <MinAbsPartialCharge>  (194) 
0.355526

>  <FpDensityMorgan1>  (194) 
1.2

>  <FpDensityMorgan2>  (194) 
1.966667

>  <FpDensityMorgan3>  (194) 
2.7

>  <BCUT2D_MWHI>  (194) 
32.133578

>  <BCUT2D_MWLOW>  (194) 
10.044973

>  <BCUT2D_CHGHI>  (194) 
2.295823

>  <BCUT2D_CHGLO>  (194) 
-2.10779

>  <BCUT2D_LOGPHI>  (194) 
2.331985

>  <BCUT2D_LOGPLOW>  (194) 
-2.644272

>  <BCUT2D_MRHI>  (194) 
7.184245

>  <BCUT2D_MRLOW>  (194) 
-0.413933

>  <AvgIpc>  (194) 
3.306704

>  <BalabanJ>  (194) 
1.331675

>  <BertzCT>  (194) 
1062.85859

>  <Chi0>  (194) 
21.302754

>  <Chi0n>  (194) 
15.922183

>  <Chi0v>  (194) 
16.73868

>  <Chi1>  (194) 
14.275008

>  <Chi1n>  (194) 
9.398159

>  <Chi1v>  (194) 
10.214656

>  <Chi2n>  (194) 
7.272276

>  <Chi2v>  (194) 
8.302925

>  <Chi3n>  (194) 
4.86815

>  <Chi3v>  (194) 
5.872271

>  <Chi4n>  (194) 
3.338821

>  <Chi4v>  (194) 
4.158264

>  <HallKierAlpha>  (194) 
-2.91

>  <Ipc>  (194) 
7135509.533138

>  <Kappa1>  (194) 
20.366331

>  <Kappa2>  (194) 
8.078206

>  <Kappa3>  (194) 
4.628107

>  <LabuteASA>  (194) 
174.687168

>  <PEOE_VSA1>  (194) 
16.367245

>  <PEOE_VSA10>  (194) 
6.041841

>  <PEOE_VSA11>  (194) 
5.131558

>  <PEOE_VSA12>  (194) 
5.90718

>  <PEOE_VSA13>  (194) 
0.0

>  <PEOE_VSA14>  (194) 
6.176299

>  <PEOE_VSA2>  (194) 
4.794537

>  <PEOE_VSA3>  (194) 
4.983979

>  <PEOE_VSA4>  (194) 
13.171245

>  <PEOE_VSA5>  (194) 
0.0

>  <PEOE_VSA6>  (194) 
29.535887

>  <PEOE_VSA7>  (194) 
40.955823

>  <PEOE_VSA8>  (194) 
18.305051

>  <PEOE_VSA9>  (194) 
23.406177

>  <SMR_VSA1>  (194) 
23.69945

>  <SMR_VSA10>  (194) 
28.06291

>  <SMR_VSA2>  (194) 
0.0

>  <SMR_VSA3>  (194) 
4.983979

>  <SMR_VSA4>  (194) 
0.0

>  <SMR_VSA5>  (194) 
25.059783

>  <SMR_VSA6>  (194) 
17.178334

>  <SMR_VSA7>  (194) 
65.351768

>  <SMR_VSA8>  (194) 
0.0

>  <SMR_VSA9>  (194) 
10.440599

>  <SlogP_VSA1>  (194) 
16.367245

>  <SlogP_VSA10>  (194) 
23.99019

>  <SlogP_VSA11>  (194) 
0.0

>  <SlogP_VSA12>  (194) 
11.336786

>  <SlogP_VSA2>  (194) 
23.477755

>  <SlogP_VSA3>  (194) 
23.812479

>  <SlogP_VSA4>  (194) 
0.0

>  <SlogP_VSA5>  (194) 
16.690354

>  <SlogP_VSA6>  (194) 
48.661413

>  <SlogP_VSA7>  (194) 
0.0

>  <SlogP_VSA8>  (194) 
10.440599

>  <SlogP_VSA9>  (194) 
0.0

>  <EState_VSA1>  (194) 
11.73975

>  <EState_VSA10>  (194) 
17.965782

>  <EState_VSA11>  (194) 
0.0

>  <EState_VSA2>  (194) 
11.949021

>  <EState_VSA3>  (194) 
19.3864

>  <EState_VSA4>  (194) 
44.519181

>  <EState_VSA5>  (194) 
23.46952

>  <EState_VSA6>  (194) 
6.196844

>  <EState_VSA7>  (194) 
18.199101

>  <EState_VSA8>  (194) 
21.351223

>  <EState_VSA9>  (194) 
0.0

>  <VSA_EState1>  (194) 
37.953939

>  <VSA_EState10>  (194) 
1.504864

>  <VSA_EState2>  (194) 
16.885356

>  <VSA_EState3>  (194) 
6.817176

>  <VSA_EState4>  (194) 
7.092733

>  <VSA_EState5>  (194) 
0.003096

>  <VSA_EState6>  (194) 
11.024303

>  <VSA_EState7>  (194) 
-1.583635

>  <VSA_EState8>  (194) 
0.552168

>  <VSA_EState9>  (194) 
0.0

>  <FractionCSP3>  (194) 
0.238095

>  <HeavyAtomCount>  (194) 
30

>  <NHOHCount>  (194) 
5

>  <NOCount>  (194) 
5

>  <NumAliphaticCarbocycles>  (194) 
0

>  <NumAliphaticHeterocycles>  (194) 
1

>  <NumAliphaticRings>  (194) 
1

>  <NumAromaticCarbocycles>  (194) 
2

>  <NumAromaticHeterocycles>  (194) 
1

>  <NAR>  (194) 
3

>  <NumHAcceptors>  (194) 
4

>  <NumHDonors>  (194) 
3

>  <NumHeteroatoms>  (194) 
9

>  <NumRotatableBonds>  (194) 
6

>  <NumSaturatedCarbocycles>  (194) 
0

>  <NumSaturatedHeterocycles>  (194) 
0

>  <NumSaturatedRings>  (194) 
0

>  <RingCount>  (194) 
4

>  <MolLogP>  (194) 
3.5886

>  <MolMR>  (194) 
110.1975

>  <fr_Al_COO>  (194) 
0

>  <fr_Al_OH>  (194) 
0

>  <fr_Al_OH_noTert>  (194) 
0

>  <fr_ArN>  (194) 
0

>  <fr_Ar_COO>  (194) 
0

>  <fr_Ar_N>  (194) 
1

>  <fr_Ar_NH>  (194) 
0

>  <fr_Ar_OH>  (194) 
0

>  <fr_COO>  (194) 
0

>  <fr_COO2>  (194) 
0

>  <fr_C_O>  (194) 
1

>  <fr_C_O_noCOO>  (194) 
1

>  <fr_C_S>  (194) 
0

>  <fr_HOCCN>  (194) 
0

>  <fr_Imine>  (194) 
0

>  <fr_NH0>  (194) 
1

>  <fr_NH1>  (194) 
2

>  <fr_NH2>  (194) 
0

>  <fr_N_O>  (194) 
0

>  <fr_Ndealkylation1>  (194) 
0

>  <fr_Ndealkylation2>  (194) 
0

>  <fr_Nhpyrrole>  (194) 
0

>  <fr_SH>  (194) 
0

>  <fr_aldehyde>  (194) 
0

>  <fr_alkyl_carbamate>  (194) 
0

>  <fr_alkyl_halide>  (194) 
3

>  <fr_allylic_oxid>  (194) 
0

>  <fr_amide>  (194) 
1

>  <fr_amidine>  (194) 
0

>  <fr_aniline>  (194) 
2

>  <fr_aryl_methyl>  (194) 
0

>  <fr_azide>  (194) 
0

>  <fr_azo>  (194) 
0

>  <fr_barbitur>  (194) 
0

>  <fr_benzene>  (194) 
2

>  <fr_benzodiazepine>  (194) 
0

>  <fr_bicyclic>  (194) 
1

>  <fr_diazo>  (194) 
0

>  <fr_dihydropyridine>  (194) 
0

>  <fr_epoxide>  (194) 
0

>  <fr_ester>  (194) 
0

>  <fr_ether>  (194) 
0

>  <fr_furan>  (194) 
0

>  <fr_guanido>  (194) 
0

>  <fr_halogen>  (194) 
3

>  <fr_hdrzine>  (194) 
0

>  <fr_hdrzone>  (194) 
0

>  <fr_imidazole>  (194) 
0

>  <fr_imide>  (194) 
0

>  <fr_isocyan>  (194) 
0

>  <fr_isothiocyan>  (194) 
0

>  <fr_ketone>  (194) 
0

>  <fr_ketone_Topliss>  (194) 
0

>  <fr_lactam>  (194) 
0

>  <fr_lactone>  (194) 
0

>  <fr_methoxy>  (194) 
0

>  <fr_morpholine>  (194) 
0

>  <fr_nitrile>  (194) 
0

>  <fr_nitro>  (194) 
0

>  <fr_nitro_arom>  (194) 
0

>  <fr_nitro_arom_nonortho>  (194) 
0

>  <fr_nitroso>  (194) 
0

>  <fr_oxazole>  (194) 
0

>  <fr_oxime>  (194) 
0

>  <fr_para_hydroxylation>  (194) 
0

>  <fr_phenol>  (194) 
0

>  <fr_phenol_noOrthoHbond>  (194) 
0

>  <fr_phos_acid>  (194) 
0

>  <fr_phos_ester>  (194) 
0

>  <fr_piperdine>  (194) 
0

>  <fr_piperzine>  (194) 
0

>  <fr_priamide>  (194) 
0

>  <fr_prisulfonamd>  (194) 
0

>  <fr_pyridine>  (194) 
0

>  <fr_quatN>  (194) 
1

>  <fr_sulfide>  (194) 
0

>  <fr_sulfonamd>  (194) 
0

>  <fr_sulfone>  (194) 
0

>  <fr_term_acetylene>  (194) 
0

>  <fr_tetrazole>  (194) 
0

>  <fr_thiazole>  (194) 
1

>  <fr_thiocyan>  (194) 
0

>  <fr_thiophene>  (194) 
0

>  <fr_unbrch_alkane>  (194) 
0

>  <fr_urea>  (194) 
0

>  <NP-Likeness>  (194) 
-1.128255

$$$$
L9M
     RDKit          3D

  0  0  0  0  0  0  0  0  0  0999 V3000
M  V30 BEGIN CTAB
M  V30 COUNTS 50 53 0 0 0
M  V30 BEGIN ATOM
M  V30 1 C -0.532756 -3.778378 -0.863265 0
M  V30 2 C -1.562140 -2.959925 -0.456137 0
M  V30 3 C -2.256743 -2.152020 -1.330839 0
M  V30 4 C -3.364296 -1.243981 -1.010929 0
M  V30 5 C -2.850788 0.159205 -0.656613 0 CFG=1
M  V30 6 C -2.087638 0.756866 -1.794773 0
M  V30 7 N -1.593306 2.083211 -1.484516 0
M  V30 8 C -0.617991 2.397224 -0.429388 0
M  V30 9 N -0.031947 3.266889 0.092405 0
M  V30 10 N 0.812191 3.133850 1.054171 0
M  V30 11 C 1.146620 2.161349 1.574814 0
M  V30 12 C 2.071665 1.635450 2.685099 0
M  V30 13 C 2.755981 2.632933 3.298572 0
M  V30 14 C 3.608034 2.232797 4.307980 0
M  V30 15 C 3.740759 0.887186 4.657062 0
M  V30 16 C 2.995630 -0.073939 3.970280 0
M  V30 17 C 2.141409 0.300384 2.962413 0
M  V30 18 C 3.327807 -1.294707 4.522846 0
M  V30 19 C 2.717757 -2.576806 4.034587 0
M  V30 20 N 4.234529 -1.065225 5.499012 0
M  V30 21 N 4.479135 0.236733 5.577090 0
M  V30 22 S 0.085998 0.944597 0.576491 0
M  V30 23 N -4.001631 0.995207 -0.360210 0 CHG=1 VAL=4
M  V30 24 C -1.869945 -2.196183 -2.668042 0
M  V30 25 C -0.835340 -3.025800 -3.045626 0
M  V30 26 C -0.131623 -3.838825 -2.184044 0
M  V30 27 C 0.956747 -4.684781 -2.699606 0
M  V30 28 H -0.001138 -4.408629 -0.140566 0
M  V30 29 H -1.883024 -2.908838 0.588955 0
M  V30 30 H -4.052086 -1.162885 -1.854915 0
M  V30 31 H -3.943115 -1.588775 -0.118987 0
M  V30 32 H -2.237111 0.021897 0.251896 0
M  V30 33 H -1.158049 0.114492 -1.894882 0
M  V30 34 H -2.604229 0.732994 -2.747488 0
M  V30 35 H -1.830891 2.992841 -1.931036 0
M  V30 36 H 2.652704 3.673924 3.027767 0
M  V30 37 H 4.177357 3.002026 4.827566 0
M  V30 38 H 1.545943 -0.409410 2.404931 0
M  V30 39 H 1.611677 -2.496616 3.991880 0
M  V30 40 H 3.046215 -2.794668 2.985663 0
M  V30 41 H 3.053716 -3.434996 4.641360 0
M  V30 42 H 5.140069 0.699813 6.244375 0
M  V30 43 H -3.663887 1.987793 -0.275809 0
M  V30 44 H -4.658557 0.977308 -1.165214 0
M  V30 45 H -4.498697 0.680819 0.506763 0
M  V30 46 H -2.373962 -1.584127 -3.418576 0
M  V30 47 H -0.558781 -3.036908 -4.094295 0
M  V30 48 H 1.315484 -4.248385 -3.660675 0
M  V30 49 H 0.683726 -5.742901 -2.861364 0
M  V30 50 H 1.800038 -4.641519 -1.966917 0
M  V30 END ATOM
M  V30 BEGIN BOND
M  V30 1 2 1 2
M  V30 2 1 2 3
M  V30 3 1 3 4
M  V30 4 1 4 5
M  V30 5 1 5 6
M  V30 6 1 6 7
M  V30 7 1 7 8
M  V30 8 2 8 9
M  V30 9 1 9 10
M  V30 10 2 10 11
M  V30 11 1 11 12
M  V30 12 2 12 13
M  V30 13 1 13 14
M  V30 14 2 14 15
M  V30 15 1 15 16
M  V30 16 2 16 17
M  V30 17 1 16 18
M  V30 18 1 18 19
M  V30 19 2 18 20
M  V30 20 1 20 21
M  V30 21 1 11 22
M  V30 22 1 5 23
M  V30 23 2 3 24
M  V30 24 1 24 25
M  V30 25 2 25 26
M  V30 26 1 26 27
M  V30 27 1 26 1
M  V30 28 1 22 8
M  V30 29 1 17 12
M  V30 30 1 21 15
M  V30 31 1 1 28
M  V30 32 1 2 29
M  V30 33 1 4 30
M  V30 34 1 4 31
M  V30 35 1 5 32 CFG=1
M  V30 36 1 6 33
M  V30 37 1 6 34
M  V30 38 1 7 35
M  V30 39 1 13 36
M  V30 40 1 14 37
M  V30 41 1 17 38
M  V30 42 1 19 39
M  V30 43 1 19 40
M  V30 44 1 19 41
M  V30 45 1 21 42
M  V30 46 1 23 43
M  V30 47 1 23 44
M  V30 48 1 23 45
M  V30 49 1 24 46
M  V30 50 1 25 47
M  V30 51 1 27 48
M  V30 52 1 27 49
M  V30 53 1 27 50
M  V30 END BOND
M  V30 END CTAB
M  END
>  <Dataset>  (195) 
PDB

>  <Ligand_Instance>  (195) 
3L9M_L9M_A_351

>  <PDB_ID>  (195) 
3L9M

>  <Standardized_SMILES>  (195) 
[H]C1=C([H])C(C([H])([H])[C@@]([H])(C([H])([H])N([H])C2=NN=C(C3=C([H])C([H])=C4C(=C3[H])C(C([H])([H])[H])=NN4[H])S2)[N+]([H])([H])[H])=C([H])C([H])=C1C([H])([H])[H]

>  <Name>  (195) 
(2S)-N~1~-[5-(3-methyl-1H-indazol-5-yl)-1,3,4-thiadiazol-2-yl]-3-(4-methylphenyl)propane-1,2-diamine

>  <Pocket>  (195) 
A

>  <ATP_Site>  (195) 
1.0

>  <Peripheral>  (195) 
0.0

>  <Num_H_Atoms_ProtBoundConf>  (195) 
23.0

>  <Num_Resolved_Atoms>  (195) 
27.0

>  <Num_Not_Resolved_Atoms>  (195) 
0.0

>  <2D_Mol_H>  (195) 
<rdkit.Chem.rdchem.Mol object at 0x72a238df1310>

>  <MW>  (195) 
379.513

>  <HBA>  (195) 
5

>  <HBD>  (195) 
3

>  <LogP>  (195) 
2.96334

>  <NRB>  (195) 
9

>  <TPSA>  (195) 
94.13

>  <Num_Heavy_Atoms>  (195) 
27

>  <Ro5>  (195) 
[True, True, True, True, True, True]

>  <Ro5_Fulfilled>  (195) 
True

>  <Ro3>  (195) 
[False, False, True, True]

>  <Ro3_Fulfilled>  (195) 
False

>  <Fsp3>  (195) 
0.25

>  <Fsp3_0.42>  (195) 
False

>  <Fsp3_0.45>  (195) 
False

>  <Stereogenic_Carbons>  (195) 
1

>  <C_Atoms>  (195) 
20

>  <FCStereo>  (195) 
0.05

>  <SPS>  (195) 
335

>  <nSPS>  (195) 
12.407407

>  <PBF>  (195) 
1.0703

>  <PBF_0.6>  (195) 
True

>  <nPBF>  (195) 
0.039641

>  <nPBF_0.016>  (195) 
True

>  <PMI1>  (195) 
2176.853117

>  <PMI2>  (195) 
5056.069035

>  <PMI3>  (195) 
6573.064872

>  <NPR1>  (195) 
0.331178

>  <NPR2>  (195) 
0.76921

>  <Sum_NPR>  (195) 
1.100388

>  <Sum_NPR_1.07>  (195) 
True

>  <Sum_NPR_1.2>  (195) 
False

>  <MaxAbsEStateIndex>  (195) 
4.333926

>  <MaxEStateIndex>  (195) 
4.333926

>  <MinAbsEStateIndex>  (195) 
0.268506

>  <MinEStateIndex>  (195) 
0.268506

>  <qed>  (195) 
0.479985

>  <MolWt>  (195) 
379.513

>  <HeavyAtomMolWt>  (195) 
356.329

>  <ExactMolWt>  (195) 
379.169942

>  <NumValenceElectrons>  (195) 
138

>  <NumRadicalElectrons>  (195) 
0

>  <MaxPartialCharge>  (195) 
0.205726

>  <MinPartialCharge>  (195) 
-0.354093

>  <MaxAbsPartialCharge>  (195) 
0.354093

>  <MinAbsPartialCharge>  (195) 
0.205726

>  <FpDensityMorgan1>  (195) 
1.111111

>  <FpDensityMorgan2>  (195) 
1.925926

>  <FpDensityMorgan3>  (195) 
2.740741

>  <BCUT2D_MWHI>  (195) 
32.133584

>  <BCUT2D_MWLOW>  (195) 
10.052744

>  <BCUT2D_CHGHI>  (195) 
2.118006

>  <BCUT2D_CHGLO>  (195) 
-2.089205

>  <BCUT2D_LOGPHI>  (195) 
2.288734

>  <BCUT2D_LOGPLOW>  (195) 
-2.644274

>  <BCUT2D_MRHI>  (195) 
7.179963

>  <BCUT2D_MRLOW>  (195) 
-0.413932

>  <AvgIpc>  (195) 
3.28842

>  <BalabanJ>  (195) 
1.395211

>  <BertzCT>  (195) 
1049.972331

>  <Chi0>  (195) 
18.802754

>  <Chi0n>  (195) 
15.490012

>  <Chi0v>  (195) 
16.306508

>  <Chi1>  (195) 
13.08052

>  <Chi1n>  (195) 
8.993928

>  <Chi1v>  (195) 
9.810425

>  <Chi2n>  (195) 
6.918396

>  <Chi2v>  (195) 
7.895917

>  <Chi3n>  (195) 
4.612308

>  <Chi3v>  (195) 
5.542346

>  <Chi4n>  (195) 
3.051052

>  <Chi4v>  (195) 
3.797815

>  <HallKierAlpha>  (195) 
-2.77

>  <Ipc>  (195) 
2391509.907469

>  <Kappa1>  (195) 
17.634232

>  <Kappa2>  (195) 
7.459187

>  <Kappa3>  (195) 
3.989335

>  <LabuteASA>  (195) 
161.387094

>  <PEOE_VSA1>  (195) 
11.050456

>  <PEOE_VSA10>  (195) 
11.049465

>  <PEOE_VSA11>  (195) 
0.0

>  <PEOE_VSA12>  (195) 
5.131558

>  <PEOE_VSA13>  (195) 
0.0

>  <PEOE_VSA14>  (195) 
0.0

>  <PEOE_VSA2>  (195) 
5.098682

>  <PEOE_VSA3>  (195) 
0.0

>  <PEOE_VSA4>  (195) 
5.098682

>  <PEOE_VSA5>  (195) 
10.197364

>  <PEOE_VSA6>  (195) 
41.165706

>  <PEOE_VSA7>  (195) 
37.610027

>  <PEOE_VSA8>  (195) 
17.370497

>  <PEOE_VSA9>  (195) 
17.755385

>  <SMR_VSA1>  (195) 
5.733667

>  <SMR_VSA10>  (195) 
27.371269

>  <SMR_VSA2>  (195) 
0.0

>  <SMR_VSA3>  (195) 
20.394727

>  <SMR_VSA4>  (195) 
0.0

>  <SMR_VSA5>  (195) 
26.310137

>  <SMR_VSA6>  (195) 
11.861545

>  <SMR_VSA7>  (195) 
59.2854

>  <SMR_VSA8>  (195) 
0.0

>  <SMR_VSA9>  (195) 
10.571075

>  <SlogP_VSA1>  (195) 
11.050456

>  <SlogP_VSA10>  (195) 
5.131558

>  <SlogP_VSA11>  (195) 
0.0

>  <SlogP_VSA12>  (195) 
11.336786

>  <SlogP_VSA2>  (195) 
32.981324

>  <SlogP_VSA3>  (195) 
6.420822

>  <SlogP_VSA4>  (195) 
13.847474

>  <SlogP_VSA5>  (195) 
16.820831

>  <SlogP_VSA6>  (195) 
42.464569

>  <SlogP_VSA7>  (195) 
0.0

>  <SlogP_VSA8>  (195) 
21.474

>  <SlogP_VSA9>  (195) 
0.0

>  <EState_VSA1>  (195) 
0.0

>  <EState_VSA10>  (195) 
0.0

>  <EState_VSA11>  (195) 
0.0

>  <EState_VSA2>  (195) 
6.041841

>  <EState_VSA3>  (195) 
0.0

>  <EState_VSA4>  (195) 
45.265065

>  <EState_VSA5>  (195) 
11.126903

>  <EState_VSA6>  (195) 
11.336786

>  <EState_VSA7>  (195) 
19.056471

>  <EState_VSA8>  (195) 
68.700756

>  <EState_VSA9>  (195) 
0.0

>  <VSA_EState1>  (195) 
0.0

>  <VSA_EState10>  (195) 
1.561514

>  <VSA_EState2>  (195) 
0.0

>  <VSA_EState3>  (195) 
22.105488

>  <VSA_EState4>  (195) 
9.934121

>  <VSA_EState5>  (195) 
0.0

>  <VSA_EState6>  (195) 
15.091757

>  <VSA_EState7>  (195) 
0.939856

>  <VSA_EState8>  (195) 
4.867264

>  <VSA_EState9>  (195) 
0.0

>  <FractionCSP3>  (195) 
0.25

>  <HeavyAtomCount>  (195) 
27

>  <NHOHCount>  (195) 
5

>  <NOCount>  (195) 
6

>  <NumAliphaticCarbocycles>  (195) 
0

>  <NumAliphaticHeterocycles>  (195) 
0

>  <NumAliphaticRings>  (195) 
0

>  <NumAromaticCarbocycles>  (195) 
2

>  <NumAromaticHeterocycles>  (195) 
2

>  <NAR>  (195) 
4

>  <NumHAcceptors>  (195) 
5

>  <NumHDonors>  (195) 
3

>  <NumHeteroatoms>  (195) 
7

>  <NumRotatableBonds>  (195) 
6

>  <NumSaturatedCarbocycles>  (195) 
0

>  <NumSaturatedHeterocycles>  (195) 
0

>  <NumSaturatedRings>  (195) 
0

>  <RingCount>  (195) 
4

>  <MolLogP>  (195) 
2.96334

>  <MolMR>  (195) 
109.7825

>  <fr_Al_COO>  (195) 
0

>  <fr_Al_OH>  (195) 
0

>  <fr_Al_OH_noTert>  (195) 
0

>  <fr_ArN>  (195) 
0

>  <fr_Ar_COO>  (195) 
0

>  <fr_Ar_N>  (195) 
4

>  <fr_Ar_NH>  (195) 
1

>  <fr_Ar_OH>  (195) 
0

>  <fr_COO>  (195) 
0

>  <fr_COO2>  (195) 
0

>  <fr_C_O>  (195) 
0

>  <fr_C_O_noCOO>  (195) 
0

>  <fr_C_S>  (195) 
0

>  <fr_HOCCN>  (195) 
0

>  <fr_Imine>  (195) 
0

>  <fr_NH0>  (195) 
3

>  <fr_NH1>  (195) 
2

>  <fr_NH2>  (195) 
0

>  <fr_N_O>  (195) 
0

>  <fr_Ndealkylation1>  (195) 
0

>  <fr_Ndealkylation2>  (195) 
0

>  <fr_Nhpyrrole>  (195) 
1

>  <fr_SH>  (195) 
0

>  <fr_aldehyde>  (195) 
0

>  <fr_alkyl_carbamate>  (195) 
0

>  <fr_alkyl_halide>  (195) 
0

>  <fr_allylic_oxid>  (195) 
0

>  <fr_amide>  (195) 
0

>  <fr_amidine>  (195) 
0

>  <fr_aniline>  (195) 
1

>  <fr_aryl_methyl>  (195) 
2

>  <fr_azide>  (195) 
0

>  <fr_azo>  (195) 
0

>  <fr_barbitur>  (195) 
0

>  <fr_benzene>  (195) 
2

>  <fr_benzodiazepine>  (195) 
0

>  <fr_bicyclic>  (195) 
1

>  <fr_diazo>  (195) 
0

>  <fr_dihydropyridine>  (195) 
0

>  <fr_epoxide>  (195) 
0

>  <fr_ester>  (195) 
0

>  <fr_ether>  (195) 
0

>  <fr_furan>  (195) 
0

>  <fr_guanido>  (195) 
0

>  <fr_halogen>  (195) 
0

>  <fr_hdrzine>  (195) 
0

>  <fr_hdrzone>  (195) 
0

>  <fr_imidazole>  (195) 
0

>  <fr_imide>  (195) 
0

>  <fr_isocyan>  (195) 
0

>  <fr_isothiocyan>  (195) 
0

>  <fr_ketone>  (195) 
0

>  <fr_ketone_Topliss>  (195) 
0

>  <fr_lactam>  (195) 
0

>  <fr_lactone>  (195) 
0

>  <fr_methoxy>  (195) 
0

>  <fr_morpholine>  (195) 
0

>  <fr_nitrile>  (195) 
0

>  <fr_nitro>  (195) 
0

>  <fr_nitro_arom>  (195) 
0

>  <fr_nitro_arom_nonortho>  (195) 
0

>  <fr_nitroso>  (195) 
0

>  <fr_oxazole>  (195) 
0

>  <fr_oxime>  (195) 
0

>  <fr_para_hydroxylation>  (195) 
0

>  <fr_phenol>  (195) 
0

>  <fr_phenol_noOrthoHbond>  (195) 
0

>  <fr_phos_acid>  (195) 
0

>  <fr_phos_ester>  (195) 
0

>  <fr_piperdine>  (195) 
0

>  <fr_piperzine>  (195) 
0

>  <fr_priamide>  (195) 
0

>  <fr_prisulfonamd>  (195) 
0

>  <fr_pyridine>  (195) 
0

>  <fr_quatN>  (195) 
1

>  <fr_sulfide>  (195) 
0

>  <fr_sulfonamd>  (195) 
0

>  <fr_sulfone>  (195) 
0

>  <fr_term_acetylene>  (195) 
0

>  <fr_tetrazole>  (195) 
0

>  <fr_thiazole>  (195) 
0

>  <fr_thiocyan>  (195) 
0

>  <fr_thiophene>  (195) 
0

>  <fr_unbrch_alkane>  (195) 
0

>  <fr_urea>  (195) 
0

>  <NP-Likeness>  (195) 
-1.616106

$$$$
L9M
     RDKit          3D

  0  0  0  0  0  0  0  0  0  0999 V3000
M  V30 BEGIN CTAB
M  V30 COUNTS 50 53 0 0 0
M  V30 BEGIN ATOM
M  V30 1 C -0.532756 -3.778378 -0.863265 0
M  V30 2 C -1.562140 -2.959925 -0.456137 0
M  V30 3 C -2.256743 -2.152020 -1.330839 0
M  V30 4 C -3.364296 -1.243981 -1.010929 0
M  V30 5 C -2.850788 0.159205 -0.656613 0 CFG=1
M  V30 6 C -2.087638 0.756866 -1.794773 0
M  V30 7 N -1.593306 2.083211 -1.484516 0
M  V30 8 C -0.617991 2.397224 -0.429388 0
M  V30 9 N -0.031947 3.266889 0.092405 0
M  V30 10 N 0.812191 3.133850 1.054171 0
M  V30 11 C 1.146620 2.161349 1.574814 0
M  V30 12 C 2.071665 1.635450 2.685099 0
M  V30 13 C 2.755981 2.632933 3.298572 0
M  V30 14 C 3.608034 2.232797 4.307980 0
M  V30 15 C 3.740759 0.887186 4.657062 0
M  V30 16 C 2.995630 -0.073939 3.970280 0
M  V30 17 C 2.141409 0.300384 2.962413 0
M  V30 18 C 3.327807 -1.294707 4.522846 0
M  V30 19 C 2.717757 -2.576806 4.034587 0
M  V30 20 N 4.234529 -1.065225 5.499012 0
M  V30 21 N 4.479135 0.236733 5.577090 0
M  V30 22 S 0.085998 0.944597 0.576491 0
M  V30 23 N -4.001631 0.995207 -0.360210 0 CHG=1 VAL=4
M  V30 24 C -1.869945 -2.196183 -2.668042 0
M  V30 25 C -0.835340 -3.025800 -3.045626 0
M  V30 26 C -0.131623 -3.838825 -2.184044 0
M  V30 27 C 0.956747 -4.684781 -2.699606 0
M  V30 28 H -0.001138 -4.408629 -0.140566 0
M  V30 29 H -1.883024 -2.908838 0.588955 0
M  V30 30 H -4.052086 -1.162885 -1.854915 0
M  V30 31 H -3.943115 -1.588775 -0.118987 0
M  V30 32 H -2.237111 0.021897 0.251896 0
M  V30 33 H -1.158049 0.114492 -1.894882 0
M  V30 34 H -2.604229 0.732994 -2.747488 0
M  V30 35 H -1.830891 2.992841 -1.931036 0
M  V30 36 H 2.652704 3.673924 3.027767 0
M  V30 37 H 4.177357 3.002026 4.827566 0
M  V30 38 H 1.545943 -0.409410 2.404931 0
M  V30 39 H 1.611677 -2.496616 3.991880 0
M  V30 40 H 3.046215 -2.794668 2.985663 0
M  V30 41 H 3.053716 -3.434996 4.641360 0
M  V30 42 H 5.140069 0.699813 6.244375 0
M  V30 43 H -3.663887 1.987793 -0.275809 0
M  V30 44 H -4.658557 0.977308 -1.165214 0
M  V30 45 H -4.498697 0.680819 0.506763 0
M  V30 46 H -2.373962 -1.584127 -3.418576 0
M  V30 47 H -0.558781 -3.036908 -4.094295 0
M  V30 48 H 1.315484 -4.248385 -3.660675 0
M  V30 49 H 0.683726 -5.742901 -2.861364 0
M  V30 50 H 1.800038 -4.641519 -1.966917 0
M  V30 END ATOM
M  V30 BEGIN BOND
M  V30 1 2 1 2
M  V30 2 1 2 3
M  V30 3 1 3 4
M  V30 4 1 4 5
M  V30 5 1 5 6
M  V30 6 1 6 7
M  V30 7 1 7 8
M  V30 8 2 8 9
M  V30 9 1 9 10
M  V30 10 2 10 11
M  V30 11 1 11 12
M  V30 12 2 12 13
M  V30 13 1 13 14
M  V30 14 2 14 15
M  V30 15 1 15 16
M  V30 16 2 16 17
M  V30 17 1 16 18
M  V30 18 1 18 19
M  V30 19 2 18 20
M  V30 20 1 20 21
M  V30 21 1 11 22
M  V30 22 1 5 23
M  V30 23 2 3 24
M  V30 24 1 24 25
M  V30 25 2 25 26
M  V30 26 1 26 27
M  V30 27 1 26 1
M  V30 28 1 22 8
M  V30 29 1 17 12
M  V30 30 1 21 15
M  V30 31 1 1 28
M  V30 32 1 2 29
M  V30 33 1 4 30
M  V30 34 1 4 31
M  V30 35 1 5 32 CFG=1
M  V30 36 1 6 33
M  V30 37 1 6 34
M  V30 38 1 7 35
M  V30 39 1 13 36
M  V30 40 1 14 37
M  V30 41 1 17 38
M  V30 42 1 19 39
M  V30 43 1 19 40
M  V30 44 1 19 41
M  V30 45 1 21 42
M  V30 46 1 23 43
M  V30 47 1 23 44
M  V30 48 1 23 45
M  V30 49 1 24 46
M  V30 50 1 25 47
M  V30 51 1 27 48
M  V30 52 1 27 49
M  V30 53 1 27 50
M  V30 END BOND
M  V30 END CTAB
M  END
>  <Dataset>  (196) 
PDB

>  <Ligand_Instance>  (196) 
3L9M_L9M_B_351

>  <PDB_ID>  (196) 
3L9M

>  <Standardized_SMILES>  (196) 
[H]C1=C([H])C(C([H])([H])[C@@]([H])(C([H])([H])N([H])C2=NN=C(C3=C([H])C([H])=C4C(=C3[H])C(C([H])([H])[H])=NN4[H])S2)[N+]([H])([H])[H])=C([H])C([H])=C1C([H])([H])[H]

>  <Name>  (196) 
(2S)-N~1~-[5-(3-methyl-1H-indazol-5-yl)-1,3,4-thiadiazol-2-yl]-3-(4-methylphenyl)propane-1,2-diamine

>  <Pocket>  (196) 
A

>  <ATP_Site>  (196) 
1.0

>  <Peripheral>  (196) 
0.0

>  <Num_H_Atoms_ProtBoundConf>  (196) 
23.0

>  <Num_Resolved_Atoms>  (196) 
27.0

>  <Num_Not_Resolved_Atoms>  (196) 
0.0

>  <2D_Mol_H>  (196) 
<rdkit.Chem.rdchem.Mol object at 0x72a238df13f0>

>  <MW>  (196) 
379.513

>  <HBA>  (196) 
5

>  <HBD>  (196) 
3

>  <LogP>  (196) 
2.96334

>  <NRB>  (196) 
9

>  <TPSA>  (196) 
94.13

>  <Num_Heavy_Atoms>  (196) 
27

>  <Ro5>  (196) 
[True, True, True, True, True, True]

>  <Ro5_Fulfilled>  (196) 
True

>  <Ro3>  (196) 
[False, False, True, True]

>  <Ro3_Fulfilled>  (196) 
False

>  <Fsp3>  (196) 
0.25

>  <Fsp3_0.42>  (196) 
False

>  <Fsp3_0.45>  (196) 
False

>  <Stereogenic_Carbons>  (196) 
1

>  <C_Atoms>  (196) 
20

>  <FCStereo>  (196) 
0.05

>  <SPS>  (196) 
335

>  <nSPS>  (196) 
12.407407

>  <PBF>  (196) 
1.0703

>  <PBF_0.6>  (196) 
True

>  <nPBF>  (196) 
0.039641

>  <nPBF_0.016>  (196) 
True

>  <PMI1>  (196) 
2176.853117

>  <PMI2>  (196) 
5056.069035

>  <PMI3>  (196) 
6573.064872

>  <NPR1>  (196) 
0.331178

>  <NPR2>  (196) 
0.76921

>  <Sum_NPR>  (196) 
1.100388

>  <Sum_NPR_1.07>  (196) 
True

>  <Sum_NPR_1.2>  (196) 
False

>  <MaxAbsEStateIndex>  (196) 
4.333926

>  <MaxEStateIndex>  (196) 
4.333926

>  <MinAbsEStateIndex>  (196) 
0.268506

>  <MinEStateIndex>  (196) 
0.268506

>  <qed>  (196) 
0.479985

>  <MolWt>  (196) 
379.513

>  <HeavyAtomMolWt>  (196) 
356.329

>  <ExactMolWt>  (196) 
379.169942

>  <NumValenceElectrons>  (196) 
138

>  <NumRadicalElectrons>  (196) 
0

>  <MaxPartialCharge>  (196) 
0.205726

>  <MinPartialCharge>  (196) 
-0.354093

>  <MaxAbsPartialCharge>  (196) 
0.354093

>  <MinAbsPartialCharge>  (196) 
0.205726

>  <FpDensityMorgan1>  (196) 
1.111111

>  <FpDensityMorgan2>  (196) 
1.925926

>  <FpDensityMorgan3>  (196) 
2.740741

>  <BCUT2D_MWHI>  (196) 
32.133584

>  <BCUT2D_MWLOW>  (196) 
10.052744

>  <BCUT2D_CHGHI>  (196) 
2.118006

>  <BCUT2D_CHGLO>  (196) 
-2.089205

>  <BCUT2D_LOGPHI>  (196) 
2.288734

>  <BCUT2D_LOGPLOW>  (196) 
-2.644274

>  <BCUT2D_MRHI>  (196) 
7.179963

>  <BCUT2D_MRLOW>  (196) 
-0.413932

>  <AvgIpc>  (196) 
3.28842

>  <BalabanJ>  (196) 
1.395211

>  <BertzCT>  (196) 
1049.972331

>  <Chi0>  (196) 
18.802754

>  <Chi0n>  (196) 
15.490012

>  <Chi0v>  (196) 
16.306508

>  <Chi1>  (196) 
13.08052

>  <Chi1n>  (196) 
8.993928

>  <Chi1v>  (196) 
9.810425

>  <Chi2n>  (196) 
6.918396

>  <Chi2v>  (196) 
7.895917

>  <Chi3n>  (196) 
4.612308

>  <Chi3v>  (196) 
5.542346

>  <Chi4n>  (196) 
3.051052

>  <Chi4v>  (196) 
3.797815

>  <HallKierAlpha>  (196) 
-2.77

>  <Ipc>  (196) 
2391509.907469

>  <Kappa1>  (196) 
17.634232

>  <Kappa2>  (196) 
7.459187

>  <Kappa3>  (196) 
3.989335

>  <LabuteASA>  (196) 
161.387094

>  <PEOE_VSA1>  (196) 
11.050456

>  <PEOE_VSA10>  (196) 
11.049465

>  <PEOE_VSA11>  (196) 
0.0

>  <PEOE_VSA12>  (196) 
5.131558

>  <PEOE_VSA13>  (196) 
0.0

>  <PEOE_VSA14>  (196) 
0.0

>  <PEOE_VSA2>  (196) 
5.098682

>  <PEOE_VSA3>  (196) 
0.0

>  <PEOE_VSA4>  (196) 
5.098682

>  <PEOE_VSA5>  (196) 
10.197364

>  <PEOE_VSA6>  (196) 
41.165706

>  <PEOE_VSA7>  (196) 
37.610027

>  <PEOE_VSA8>  (196) 
17.370497

>  <PEOE_VSA9>  (196) 
17.755385

>  <SMR_VSA1>  (196) 
5.733667

>  <SMR_VSA10>  (196) 
27.371269

>  <SMR_VSA2>  (196) 
0.0

>  <SMR_VSA3>  (196) 
20.394727

>  <SMR_VSA4>  (196) 
0.0

>  <SMR_VSA5>  (196) 
26.310137

>  <SMR_VSA6>  (196) 
11.861545

>  <SMR_VSA7>  (196) 
59.2854

>  <SMR_VSA8>  (196) 
0.0

>  <SMR_VSA9>  (196) 
10.571075

>  <SlogP_VSA1>  (196) 
11.050456

>  <SlogP_VSA10>  (196) 
5.131558

>  <SlogP_VSA11>  (196) 
0.0

>  <SlogP_VSA12>  (196) 
11.336786

>  <SlogP_VSA2>  (196) 
32.981324

>  <SlogP_VSA3>  (196) 
6.420822

>  <SlogP_VSA4>  (196) 
13.847474

>  <SlogP_VSA5>  (196) 
16.820831

>  <SlogP_VSA6>  (196) 
42.464569

>  <SlogP_VSA7>  (196) 
0.0

>  <SlogP_VSA8>  (196) 
21.474

>  <SlogP_VSA9>  (196) 
0.0

>  <EState_VSA1>  (196) 
0.0

>  <EState_VSA10>  (196) 
0.0

>  <EState_VSA11>  (196) 
0.0

>  <EState_VSA2>  (196) 
6.041841

>  <EState_VSA3>  (196) 
0.0

>  <EState_VSA4>  (196) 
45.265065

>  <EState_VSA5>  (196) 
11.126903

>  <EState_VSA6>  (196) 
11.336786

>  <EState_VSA7>  (196) 
19.056471

>  <EState_VSA8>  (196) 
68.700756

>  <EState_VSA9>  (196) 
0.0

>  <VSA_EState1>  (196) 
0.0

>  <VSA_EState10>  (196) 
1.561514

>  <VSA_EState2>  (196) 
0.0

>  <VSA_EState3>  (196) 
22.105488

>  <VSA_EState4>  (196) 
9.934121

>  <VSA_EState5>  (196) 
0.0

>  <VSA_EState6>  (196) 
15.091757

>  <VSA_EState7>  (196) 
0.939856

>  <VSA_EState8>  (196) 
4.867264

>  <VSA_EState9>  (196) 
0.0

>  <FractionCSP3>  (196) 
0.25

>  <HeavyAtomCount>  (196) 
27

>  <NHOHCount>  (196) 
5

>  <NOCount>  (196) 
6

>  <NumAliphaticCarbocycles>  (196) 
0

>  <NumAliphaticHeterocycles>  (196) 
0

>  <NumAliphaticRings>  (196) 
0

>  <NumAromaticCarbocycles>  (196) 
2

>  <NumAromaticHeterocycles>  (196) 
2

>  <NAR>  (196) 
4

>  <NumHAcceptors>  (196) 
5

>  <NumHDonors>  (196) 
3

>  <NumHeteroatoms>  (196) 
7

>  <NumRotatableBonds>  (196) 
6

>  <NumSaturatedCarbocycles>  (196) 
0

>  <NumSaturatedHeterocycles>  (196) 
0

>  <NumSaturatedRings>  (196) 
0

>  <RingCount>  (196) 
4

>  <MolLogP>  (196) 
2.96334

>  <MolMR>  (196) 
109.7825

>  <fr_Al_COO>  (196) 
0

>  <fr_Al_OH>  (196) 
0

>  <fr_Al_OH_noTert>  (196) 
0

>  <fr_ArN>  (196) 
0

>  <fr_Ar_COO>  (196) 
0

>  <fr_Ar_N>  (196) 
4

>  <fr_Ar_NH>  (196) 
1

>  <fr_Ar_OH>  (196) 
0

>  <fr_COO>  (196) 
0

>  <fr_COO2>  (196) 
0

>  <fr_C_O>  (196) 
0

>  <fr_C_O_noCOO>  (196) 
0

>  <fr_C_S>  (196) 
0

>  <fr_HOCCN>  (196) 
0

>  <fr_Imine>  (196) 
0

>  <fr_NH0>  (196) 
3

>  <fr_NH1>  (196) 
2

>  <fr_NH2>  (196) 
0

>  <fr_N_O>  (196) 
0

>  <fr_Ndealkylation1>  (196) 
0

>  <fr_Ndealkylation2>  (196) 
0

>  <fr_Nhpyrrole>  (196) 
1

>  <fr_SH>  (196) 
0

>  <fr_aldehyde>  (196) 
0

>  <fr_alkyl_carbamate>  (196) 
0

>  <fr_alkyl_halide>  (196) 
0

>  <fr_allylic_oxid>  (196) 
0

>  <fr_amide>  (196) 
0

>  <fr_amidine>  (196) 
0

>  <fr_aniline>  (196) 
1

>  <fr_aryl_methyl>  (196) 
2

>  <fr_azide>  (196) 
0

>  <fr_azo>  (196) 
0

>  <fr_barbitur>  (196) 
0

>  <fr_benzene>  (196) 
2

>  <fr_benzodiazepine>  (196) 
0

>  <fr_bicyclic>  (196) 
1

>  <fr_diazo>  (196) 
0

>  <fr_dihydropyridine>  (196) 
0

>  <fr_epoxide>  (196) 
0

>  <fr_ester>  (196) 
0

>  <fr_ether>  (196) 
0

>  <fr_furan>  (196) 
0

>  <fr_guanido>  (196) 
0

>  <fr_halogen>  (196) 
0

>  <fr_hdrzine>  (196) 
0

>  <fr_hdrzone>  (196) 
0

>  <fr_imidazole>  (196) 
0

>  <fr_imide>  (196) 
0

>  <fr_isocyan>  (196) 
0

>  <fr_isothiocyan>  (196) 
0

>  <fr_ketone>  (196) 
0

>  <fr_ketone_Topliss>  (196) 
0

>  <fr_lactam>  (196) 
0

>  <fr_lactone>  (196) 
0

>  <fr_methoxy>  (196) 
0

>  <fr_morpholine>  (196) 
0

>  <fr_nitrile>  (196) 
0

>  <fr_nitro>  (196) 
0

>  <fr_nitro_arom>  (196) 
0

>  <fr_nitro_arom_nonortho>  (196) 
0

>  <fr_nitroso>  (196) 
0

>  <fr_oxazole>  (196) 
0

>  <fr_oxime>  (196) 
0

>  <fr_para_hydroxylation>  (196) 
0

>  <fr_phenol>  (196) 
0

>  <fr_phenol_noOrthoHbond>  (196) 
0

>  <fr_phos_acid>  (196) 
0

>  <fr_phos_ester>  (196) 
0

>  <fr_piperdine>  (196) 
0

>  <fr_piperzine>  (196) 
0

>  <fr_priamide>  (196) 
0

>  <fr_prisulfonamd>  (196) 
0

>  <fr_pyridine>  (196) 
0

>  <fr_quatN>  (196) 
1

>  <fr_sulfide>  (196) 
0

>  <fr_sulfonamd>  (196) 
0

>  <fr_sulfone>  (196) 
0

>  <fr_term_acetylene>  (196) 
0

>  <fr_tetrazole>  (196) 
0

>  <fr_thiazole>  (196) 
0

>  <fr_thiocyan>  (196) 
0

>  <fr_thiophene>  (196) 
0

>  <fr_unbrch_alkane>  (196) 
0

>  <fr_urea>  (196) 
0

>  <NP-Likeness>  (196) 
-1.616106

$$$$
L9N
     RDKit          3D

  0  0  0  0  0  0  0  0  0  0999 V3000
M  V30 BEGIN CTAB
M  V30 COUNTS 47 50 0 0 0
M  V30 BEGIN ATOM
M  V30 1 C 0.773587 -6.637424 2.961566 0
M  V30 2 N 1.685926 -7.443226 3.540001 0
M  V30 3 N 2.876773 -7.038944 3.127835 0
M  V30 4 C 2.749545 -5.990142 2.296535 0
M  V30 5 C 3.658287 -5.216820 1.609423 0
M  V30 6 C 3.302686 -4.164501 0.792198 0
M  V30 7 C 1.953358 -3.900190 0.680147 0
M  V30 8 C 1.500325 -2.762064 -0.198546 0
M  V30 9 N 1.919358 -1.912000 -0.910699 0
M  V30 10 N 1.197168 -1.052062 -1.546382 0
M  V30 11 C 0.047340 -0.956740 -1.537571 0
M  V30 12 N -0.838046 -0.042319 -2.198481 0
M  V30 13 C -1.469397 1.236339 -1.994516 0
M  V30 14 C -0.566958 2.392769 -1.794815 0 CFG=2
M  V30 15 C 0.347366 2.371209 -0.626874 0
M  V30 16 C -0.308346 2.305501 0.690117 0
M  V30 17 C -0.660409 1.214255 1.452549 0
M  V30 18 C -1.279813 1.309359 2.678235 0
M  V30 19 C -1.587518 2.536152 3.219692 0
M  V30 20 C -2.253835 2.590007 4.541002 0
M  V30 21 C -1.271633 3.684805 2.526196 0
M  V30 22 C -0.652693 3.519344 1.305333 0
M  V30 23 N -1.408441 3.575857 -1.670173 0 CHG=1 VAL=4
M  V30 24 S -0.357075 -2.392531 -0.357496 0
M  V30 25 C 1.021802 -4.652994 1.352504 0
M  V30 26 C 1.401962 -5.701728 2.165039 0
M  V30 27 H -0.289498 -6.697588 3.088420 0
M  V30 28 H 3.786260 -7.466772 3.403481 0
M  V30 29 H 4.733378 -5.389175 1.668036 0
M  V30 30 H 3.933832 -3.520813 0.229540 0
M  V30 31 H -1.035542 -0.550654 -3.114749 0
M  V30 32 H -2.231158 1.150167 -1.159940 0
M  V30 33 H -2.112032 1.487744 -2.882533 0
M  V30 34 H 0.017748 2.531547 -2.732881 0
M  V30 35 H 0.920253 3.345352 -0.659538 0
M  V30 36 H 1.163583 1.605113 -0.717725 0
M  V30 37 H -0.409721 0.261069 1.014549 0
M  V30 38 H -1.509158 0.379139 3.187253 0
M  V30 39 H -3.333521 2.324218 4.392987 0
M  V30 40 H -2.249890 3.627462 4.945696 0
M  V30 41 H -1.825861 1.905883 5.287815 0
M  V30 42 H -1.490421 4.660206 2.905412 0
M  V30 43 H -0.412666 4.452870 0.776189 0
M  V30 44 H -0.784091 4.396133 -1.592582 0
M  V30 45 H -2.054592 3.636048 -2.497381 0
M  V30 46 H -1.954220 3.494499 -0.791506 0
M  V30 47 H -0.053914 -4.448631 1.268236 0
M  V30 END ATOM
M  V30 BEGIN BOND
M  V30 1 2 1 2
M  V30 2 1 2 3
M  V30 3 1 3 4
M  V30 4 2 4 5
M  V30 5 1 5 6
M  V30 6 2 6 7
M  V30 7 1 7 8
M  V30 8 2 8 9
M  V30 9 1 9 10
M  V30 10 2 10 11
M  V30 11 1 11 12
M  V30 12 1 12 13
M  V30 13 1 13 14
M  V30 14 1 14 15
M  V30 15 1 15 16
M  V30 16 2 16 17
M  V30 17 1 17 18
M  V30 18 2 18 19
M  V30 19 1 19 20
M  V30 20 1 19 21
M  V30 21 2 21 22
M  V30 22 1 14 23
M  V30 23 1 11 24
M  V30 24 1 7 25
M  V30 25 2 25 26
M  V30 26 1 26 1
M  V30 27 1 26 4
M  V30 28 1 24 8
M  V30 29 1 22 16
M  V30 30 1 1 27
M  V30 31 1 3 28
M  V30 32 1 5 29
M  V30 33 1 6 30
M  V30 34 1 12 31
M  V30 35 1 13 32
M  V30 36 1 13 33
M  V30 37 1 14 34 CFG=3
M  V30 38 1 15 35
M  V30 39 1 15 36
M  V30 40 1 17 37
M  V30 41 1 18 38
M  V30 42 1 20 39
M  V30 43 1 20 40
M  V30 44 1 20 41
M  V30 45 1 21 42
M  V30 46 1 22 43
M  V30 47 1 23 44
M  V30 48 1 23 45
M  V30 49 1 23 46
M  V30 50 1 25 47
M  V30 END BOND
M  V30 END CTAB
M  END
>  <Dataset>  (197) 
PDB

>  <Ligand_Instance>  (197) 
3L9N_L9N_A_351

>  <PDB_ID>  (197) 
3L9N

>  <Standardized_SMILES>  (197) 
[H]C1=NN([H])C2=C([H])C([H])=C(C3=NN=C(N([H])C([H])([H])[C@]([H])(C([H])([H])C4=C([H])C([H])=C(C([H])([H])[H])C([H])=C4[H])[N+]([H])([H])[H])S3)C([H])=C12

>  <Name>  (197) 
(2S)-N~1~-[5-(1H-indazol-5-yl)-1,3,4-thiadiazol-2-yl]-3-(4-methylphenyl)propane-1,2-diamine

>  <Pocket>  (197) 
A

>  <ATP_Site>  (197) 
1.0

>  <Peripheral>  (197) 
0.0

>  <Num_H_Atoms_ProtBoundConf>  (197) 
21.0

>  <Num_Resolved_Atoms>  (197) 
26.0

>  <Num_Not_Resolved_Atoms>  (197) 
0.0

>  <2D_Mol_H>  (197) 
<rdkit.Chem.rdchem.Mol object at 0x72a238df14d0>

>  <MW>  (197) 
365.486

>  <HBA>  (197) 
5

>  <HBD>  (197) 
3

>  <LogP>  (197) 
2.65492

>  <NRB>  (197) 
8

>  <TPSA>  (197) 
94.13

>  <Num_Heavy_Atoms>  (197) 
26

>  <Ro5>  (197) 
[True, True, True, True, True, True]

>  <Ro5_Fulfilled>  (197) 
True

>  <Ro3>  (197) 
[False, False, True, True]

>  <Ro3_Fulfilled>  (197) 
False

>  <Fsp3>  (197) 
0.210526

>  <Fsp3_0.42>  (197) 
False

>  <Fsp3_0.45>  (197) 
False

>  <Stereogenic_Carbons>  (197) 
1

>  <C_Atoms>  (197) 
19

>  <FCStereo>  (197) 
0.052632

>  <SPS>  (197) 
322

>  <nSPS>  (197) 
12.384615

>  <PBF>  (197) 
0.933593

>  <PBF_0.6>  (197) 
True

>  <nPBF>  (197) 
0.035907

>  <nPBF_0.016>  (197) 
True

>  <PMI1>  (197) 
1594.544453

>  <PMI2>  (197) 
5873.766431

>  <PMI3>  (197) 
6875.441013

>  <NPR1>  (197) 
0.231919

>  <NPR2>  (197) 
0.854311

>  <Sum_NPR>  (197) 
1.08623

>  <Sum_NPR_1.07>  (197) 
True

>  <Sum_NPR_1.2>  (197) 
False

>  <MaxAbsEStateIndex>  (197) 
4.304258

>  <MaxEStateIndex>  (197) 
4.304258

>  <MinAbsEStateIndex>  (197) 
0.270682

>  <MinEStateIndex>  (197) 
0.270682

>  <qed>  (197) 
0.489529

>  <MolWt>  (197) 
365.486

>  <HeavyAtomMolWt>  (197) 
344.318

>  <ExactMolWt>  (197) 
365.154292

>  <NumValenceElectrons>  (197) 
132

>  <NumRadicalElectrons>  (197) 
0

>  <MaxPartialCharge>  (197) 
0.205726

>  <MinPartialCharge>  (197) 
-0.354093

>  <MaxAbsPartialCharge>  (197) 
0.354093

>  <MinAbsPartialCharge>  (197) 
0.205726

>  <FpDensityMorgan1>  (197) 
1.153846

>  <FpDensityMorgan2>  (197) 
2.0

>  <FpDensityMorgan3>  (197) 
2.846154

>  <BCUT2D_MWHI>  (197) 
32.133584

>  <BCUT2D_MWLOW>  (197) 
10.052744

>  <BCUT2D_CHGHI>  (197) 
2.111778

>  <BCUT2D_CHGLO>  (197) 
-2.089165

>  <BCUT2D_LOGPHI>  (197) 
2.279047

>  <BCUT2D_LOGPLOW>  (197) 
-2.644274

>  <BCUT2D_MRHI>  (197) 
7.179957

>  <BCUT2D_MRLOW>  (197) 
-0.413932

>  <AvgIpc>  (197) 
3.301325

>  <BalabanJ>  (197) 
1.374212

>  <BertzCT>  (197) 
1004.236451

>  <Chi0>  (197) 
17.932511

>  <Chi0n>  (197) 
14.567362

>  <Chi0v>  (197) 
15.383858

>  <Chi1>  (197) 
12.669836

>  <Chi1n>  (197) 
8.567195

>  <Chi1v>  (197) 
9.383692

>  <Chi2n>  (197) 
6.521048

>  <Chi2v>  (197) 
7.498569

>  <Chi3n>  (197) 
4.299095

>  <Chi3v>  (197) 
5.229133

>  <Chi4n>  (197) 
2.848379

>  <Chi4v>  (197) 
3.595141

>  <HallKierAlpha>  (197) 
-2.77

>  <Ipc>  (197) 
1652544.088058

>  <Kappa1>  (197) 
16.685205

>  <Kappa2>  (197) 
7.228586

>  <Kappa3>  (197) 
3.735143

>  <LabuteASA>  (197) 
155.022152

>  <PEOE_VSA1>  (197) 
11.050456

>  <PEOE_VSA10>  (197) 
11.049465

>  <PEOE_VSA11>  (197) 
0.0

>  <PEOE_VSA12>  (197) 
5.131558

>  <PEOE_VSA13>  (197) 
0.0

>  <PEOE_VSA14>  (197) 
0.0

>  <PEOE_VSA2>  (197) 
5.098682

>  <PEOE_VSA3>  (197) 
0.0

>  <PEOE_VSA4>  (197) 
5.098682

>  <PEOE_VSA5>  (197) 
10.197364

>  <PEOE_VSA6>  (197) 
41.165706

>  <PEOE_VSA7>  (197) 
30.68629

>  <PEOE_VSA8>  (197) 
17.370497

>  <PEOE_VSA9>  (197) 
18.258301

>  <SMR_VSA1>  (197) 
5.733667

>  <SMR_VSA10>  (197) 
27.371269

>  <SMR_VSA2>  (197) 
0.0

>  <SMR_VSA3>  (197) 
20.394727

>  <SMR_VSA4>  (197) 
0.0

>  <SMR_VSA5>  (197) 
19.3864

>  <SMR_VSA6>  (197) 
11.861545

>  <SMR_VSA7>  (197) 
59.788316

>  <SMR_VSA8>  (197) 
0.0

>  <SMR_VSA9>  (197) 
10.571075

>  <SlogP_VSA1>  (197) 
11.050456

>  <SlogP_VSA10>  (197) 
5.131558

>  <SlogP_VSA11>  (197) 
0.0

>  <SlogP_VSA12>  (197) 
11.336786

>  <SlogP_VSA2>  (197) 
32.981324

>  <SlogP_VSA3>  (197) 
6.420822

>  <SlogP_VSA4>  (197) 
6.923737

>  <SlogP_VSA5>  (197) 
11.126903

>  <SlogP_VSA6>  (197) 
48.661413

>  <SlogP_VSA7>  (197) 
0.0

>  <SlogP_VSA8>  (197) 
21.474

>  <SlogP_VSA9>  (197) 
0.0

>  <EState_VSA1>  (197) 
0.0

>  <EState_VSA10>  (197) 
0.0

>  <EState_VSA11>  (197) 
0.0

>  <EState_VSA2>  (197) 
6.041841

>  <EState_VSA3>  (197) 
0.0

>  <EState_VSA4>  (197) 
39.571137

>  <EState_VSA5>  (197) 
11.126903

>  <EState_VSA6>  (197) 
11.336786

>  <EState_VSA7>  (197) 
18.329578

>  <EState_VSA8>  (197) 
68.700756

>  <EState_VSA9>  (197) 
0.0

>  <VSA_EState1>  (197) 
0.0

>  <VSA_EState10>  (197) 
1.555656

>  <VSA_EState2>  (197) 
0.0

>  <VSA_EState3>  (197) 
21.727315

>  <VSA_EState4>  (197) 
8.90879

>  <VSA_EState5>  (197) 
0.0

>  <VSA_EState6>  (197) 
15.015384

>  <VSA_EState7>  (197) 
2.757492

>  <VSA_EState8>  (197) 
2.868696

>  <VSA_EState9>  (197) 
0.0

>  <FractionCSP3>  (197) 
0.210526

>  <HeavyAtomCount>  (197) 
26

>  <NHOHCount>  (197) 
5

>  <NOCount>  (197) 
6

>  <NumAliphaticCarbocycles>  (197) 
0

>  <NumAliphaticHeterocycles>  (197) 
0

>  <NumAliphaticRings>  (197) 
0

>  <NumAromaticCarbocycles>  (197) 
2

>  <NumAromaticHeterocycles>  (197) 
2

>  <NAR>  (197) 
4

>  <NumHAcceptors>  (197) 
5

>  <NumHDonors>  (197) 
3

>  <NumHeteroatoms>  (197) 
7

>  <NumRotatableBonds>  (197) 
6

>  <NumSaturatedCarbocycles>  (197) 
0

>  <NumSaturatedHeterocycles>  (197) 
0

>  <NumSaturatedRings>  (197) 
0

>  <RingCount>  (197) 
4

>  <MolLogP>  (197) 
2.65492

>  <MolMR>  (197) 
105.0455

>  <fr_Al_COO>  (197) 
0

>  <fr_Al_OH>  (197) 
0

>  <fr_Al_OH_noTert>  (197) 
0

>  <fr_ArN>  (197) 
0

>  <fr_Ar_COO>  (197) 
0

>  <fr_Ar_N>  (197) 
4

>  <fr_Ar_NH>  (197) 
1

>  <fr_Ar_OH>  (197) 
0

>  <fr_COO>  (197) 
0

>  <fr_COO2>  (197) 
0

>  <fr_C_O>  (197) 
0

>  <fr_C_O_noCOO>  (197) 
0

>  <fr_C_S>  (197) 
0

>  <fr_HOCCN>  (197) 
0

>  <fr_Imine>  (197) 
0

>  <fr_NH0>  (197) 
3

>  <fr_NH1>  (197) 
2

>  <fr_NH2>  (197) 
0

>  <fr_N_O>  (197) 
0

>  <fr_Ndealkylation1>  (197) 
0

>  <fr_Ndealkylation2>  (197) 
0

>  <fr_Nhpyrrole>  (197) 
1

>  <fr_SH>  (197) 
0

>  <fr_aldehyde>  (197) 
0

>  <fr_alkyl_carbamate>  (197) 
0

>  <fr_alkyl_halide>  (197) 
0

>  <fr_allylic_oxid>  (197) 
0

>  <fr_amide>  (197) 
0

>  <fr_amidine>  (197) 
0

>  <fr_aniline>  (197) 
1

>  <fr_aryl_methyl>  (197) 
1

>  <fr_azide>  (197) 
0

>  <fr_azo>  (197) 
0

>  <fr_barbitur>  (197) 
0

>  <fr_benzene>  (197) 
2

>  <fr_benzodiazepine>  (197) 
0

>  <fr_bicyclic>  (197) 
1

>  <fr_diazo>  (197) 
0

>  <fr_dihydropyridine>  (197) 
0

>  <fr_epoxide>  (197) 
0

>  <fr_ester>  (197) 
0

>  <fr_ether>  (197) 
0

>  <fr_furan>  (197) 
0

>  <fr_guanido>  (197) 
0

>  <fr_halogen>  (197) 
0

>  <fr_hdrzine>  (197) 
0

>  <fr_hdrzone>  (197) 
0

>  <fr_imidazole>  (197) 
0

>  <fr_imide>  (197) 
0

>  <fr_isocyan>  (197) 
0

>  <fr_isothiocyan>  (197) 
0

>  <fr_ketone>  (197) 
0

>  <fr_ketone_Topliss>  (197) 
0

>  <fr_lactam>  (197) 
0

>  <fr_lactone>  (197) 
0

>  <fr_methoxy>  (197) 
0

>  <fr_morpholine>  (197) 
0

>  <fr_nitrile>  (197) 
0

>  <fr_nitro>  (197) 
0

>  <fr_nitro_arom>  (197) 
0

>  <fr_nitro_arom_nonortho>  (197) 
0

>  <fr_nitroso>  (197) 
0

>  <fr_oxazole>  (197) 
0

>  <fr_oxime>  (197) 
0

>  <fr_para_hydroxylation>  (197) 
0

>  <fr_phenol>  (197) 
0

>  <fr_phenol_noOrthoHbond>  (197) 
0

>  <fr_phos_acid>  (197) 
0

>  <fr_phos_ester>  (197) 
0

>  <fr_piperdine>  (197) 
0

>  <fr_piperzine>  (197) 
0

>  <fr_priamide>  (197) 
0

>  <fr_prisulfonamd>  (197) 
0

>  <fr_pyridine>  (197) 
0

>  <fr_quatN>  (197) 
1

>  <fr_sulfide>  (197) 
0

>  <fr_sulfonamd>  (197) 
0

>  <fr_sulfone>  (197) 
0

>  <fr_term_acetylene>  (197) 
0

>  <fr_tetrazole>  (197) 
0

>  <fr_thiazole>  (197) 
0

>  <fr_thiocyan>  (197) 
0

>  <fr_thiophene>  (197) 
0

>  <fr_unbrch_alkane>  (197) 
0

>  <fr_urea>  (197) 
0

>  <NP-Likeness>  (197) 
-1.739819

$$$$
LL1
     RDKit          3D

  0  0  0  0  0  0  0  0  0  0999 V3000
M  V30 BEGIN CTAB
M  V30 COUNTS 24 26 0 0 0
M  V30 BEGIN ATOM
M  V30 1 C 2.292995 -0.748191 3.840990 0
M  V30 2 N 1.827499 -1.849641 4.446055 0
M  V30 3 C 0.976201 -2.679762 3.840547 0
M  V30 4 C 0.573967 -2.381242 2.555813 0
M  V30 5 C 1.030484 -1.243230 1.878852 0
M  V30 6 C 0.619065 -0.905404 0.517811 0
M  V30 7 N 0.576092 -1.825405 -0.469557 0
M  V30 8 N 0.173865 -1.272177 -1.602866 0
M  V30 9 C -0.056033 0.035655 -1.373237 0
M  V30 10 C -0.482838 1.071218 -2.179021 0
M  V30 11 C -0.617626 2.332980 -1.606543 0
M  V30 12 C -0.338351 2.544877 -0.292340 0
M  V30 13 C 0.091536 1.537628 0.550930 0
M  V30 14 C 0.218646 0.294427 -0.036093 0
M  V30 15 C 1.910542 -0.420856 2.556556 0
M  V30 16 H 2.984278 -0.109540 4.383930 0
M  V30 17 H 0.582450 -3.583434 4.311842 0
M  V30 18 H -0.124648 -3.015469 1.990945 0
M  V30 19 H 0.067333 -1.798354 -2.498266 0
M  V30 20 H -0.682017 0.818105 -3.206567 0
M  V30 21 H -0.955480 3.085620 -2.303748 0
M  V30 22 H -0.455969 3.540972 0.114346 0
M  V30 23 H 0.317797 1.688845 1.597473 0
M  V30 24 H 2.322351 0.474125 2.136160 0
M  V30 END ATOM
M  V30 BEGIN BOND
M  V30 1 2 1 2
M  V30 2 1 2 3
M  V30 3 2 3 4
M  V30 4 1 4 5
M  V30 5 1 5 6
M  V30 6 2 6 7
M  V30 7 1 7 8
M  V30 8 1 8 9
M  V30 9 2 9 10
M  V30 10 1 10 11
M  V30 11 2 11 12
M  V30 12 1 12 13
M  V30 13 2 13 14
M  V30 14 2 5 15
M  V30 15 1 15 1
M  V30 16 1 14 6
M  V30 17 1 14 9
M  V30 18 1 1 16
M  V30 19 1 3 17
M  V30 20 1 4 18
M  V30 21 1 8 19
M  V30 22 1 10 20
M  V30 23 1 11 21
M  V30 24 1 12 22
M  V30 25 1 13 23
M  V30 26 1 15 24
M  V30 END BOND
M  V30 END CTAB
M  END
>  <Dataset>  (198) 
PDB

>  <Ligand_Instance>  (198) 
3DNE_LL1_A_351

>  <PDB_ID>  (198) 
3DNE

>  <Standardized_SMILES>  (198) 
[H]C1=NC([H])=C([H])C(C2=NN([H])C3=C([H])C([H])=C([H])C([H])=C23)=C1[H]

>  <Name>  (198) 
3-pyridin-4-yl-1H-indazole

>  <Pocket>  (198) 
A

>  <ATP_Site>  (198) 
1.0

>  <Peripheral>  (198) 
0.0

>  <Num_H_Atoms_ProtBoundConf>  (198) 
9.0

>  <Num_Resolved_Atoms>  (198) 
15.0

>  <Num_Not_Resolved_Atoms>  (198) 
0.0

>  <2D_Mol_H>  (198) 
<rdkit.Chem.rdchem.Mol object at 0x72a238df15b0>

>  <MW>  (198) 
195.225

>  <HBA>  (198) 
2

>  <HBD>  (198) 
1

>  <LogP>  (198) 
2.6249

>  <NRB>  (198) 
1

>  <TPSA>  (198) 
41.57

>  <Num_Heavy_Atoms>  (198) 
15

>  <Ro5>  (198) 
[True, True, True, True, True, True]

>  <Ro5_Fulfilled>  (198) 
True

>  <Ro3>  (198) 
[True, True, True, True]

>  <Ro3_Fulfilled>  (198) 
True

>  <Fsp3>  (198) 
0.0

>  <Fsp3_0.42>  (198) 
False

>  <Fsp3_0.45>  (198) 
False

>  <Stereogenic_Carbons>  (198) 
0

>  <C_Atoms>  (198) 
12

>  <FCStereo>  (198) 
0.0

>  <SPS>  (198) 
160

>  <nSPS>  (198) 
10.666667

>  <PBF>  (198) 
0.504896

>  <PBF_0.6>  (198) 
False

>  <nPBF>  (198) 
0.03366

>  <nPBF_0.016>  (198) 
True

>  <PMI1>  (198) 
323.349744

>  <PMI2>  (198) 
1303.562467

>  <PMI3>  (198) 
1555.787108

>  <NPR1>  (198) 
0.207837

>  <NPR2>  (198) 
0.83788

>  <Sum_NPR>  (198) 
1.045716

>  <Sum_NPR_1.07>  (198) 
False

>  <Sum_NPR_1.2>  (198) 
False

>  <MaxAbsEStateIndex>  (198) 
4.312778

>  <MaxEStateIndex>  (198) 
4.312778

>  <MinAbsEStateIndex>  (198) 
0.97963

>  <MinEStateIndex>  (198) 
0.97963

>  <qed>  (198) 
0.648092

>  <MolWt>  (198) 
195.225

>  <HeavyAtomMolWt>  (198) 
186.153

>  <ExactMolWt>  (198) 
195.079647

>  <NumValenceElectrons>  (198) 
72

>  <NumRadicalElectrons>  (198) 
0

>  <MaxPartialCharge>  (198) 
0.100004

>  <MinPartialCharge>  (198) 
-0.2772

>  <MaxAbsPartialCharge>  (198) 
0.2772

>  <MinAbsPartialCharge>  (198) 
0.100004

>  <FpDensityMorgan1>  (198) 
0.933333

>  <FpDensityMorgan2>  (198) 
1.733333

>  <FpDensityMorgan3>  (198) 
2.6

>  <BCUT2D_MWHI>  (198) 
15.11294

>  <BCUT2D_MWLOW>  (198) 
10.104743

>  <BCUT2D_CHGHI>  (198) 
2.053715

>  <BCUT2D_CHGLO>  (198) 
-1.950147

>  <BCUT2D_LOGPHI>  (198) 
2.243177

>  <BCUT2D_LOGPLOW>  (198) 
-1.782619

>  <BCUT2D_MRHI>  (198) 
5.920313

>  <BCUT2D_MRLOW>  (198) 
1.121231

>  <AvgIpc>  (198) 
2.737427

>  <BalabanJ>  (198) 
2.283955

>  <BertzCT>  (198) 
583.884261

>  <Chi0>  (198) 
10.087576

>  <Chi0n>  (198) 
8.013229

>  <Chi0v>  (198) 
8.013229

>  <Chi1>  (198) 
7.44949

>  <Chi1n>  (198) 
4.784979

>  <Chi1v>  (198) 
4.784979

>  <Chi2n>  (198) 
3.353686

>  <Chi2v>  (198) 
3.353686

>  <Chi3n>  (198) 
2.4241

>  <Chi3v>  (198) 
2.4241

>  <Chi4n>  (198) 
1.693296

>  <Chi4v>  (198) 
1.693296

>  <HallKierAlpha>  (198) 
-2.16

>  <Ipc>  (198) 
7018.761652

>  <Kappa1>  (198) 
8.17336

>  <Kappa2>  (198) 
3.203427

>  <Kappa3>  (198) 
1.287491

>  <LabuteASA>  (198) 
86.787072

>  <PEOE_VSA1>  (198) 
0.0

>  <PEOE_VSA10>  (198) 
5.693928

>  <PEOE_VSA11>  (198) 
0.0

>  <PEOE_VSA12>  (198) 
0.0

>  <PEOE_VSA13>  (198) 
0.0

>  <PEOE_VSA14>  (198) 
0.0

>  <PEOE_VSA2>  (198) 
10.08266

>  <PEOE_VSA3>  (198) 
0.0

>  <PEOE_VSA4>  (198) 
5.098682

>  <PEOE_VSA5>  (198) 
0.0

>  <PEOE_VSA6>  (198) 
18.199101

>  <PEOE_VSA7>  (198) 
18.199101

>  <PEOE_VSA8>  (198) 
23.343363

>  <PEOE_VSA9>  (198) 
5.516701

>  <SMR_VSA1>  (198) 
0.0

>  <SMR_VSA10>  (198) 
10.902925

>  <SMR_VSA2>  (198) 
0.0

>  <SMR_VSA3>  (198) 
15.181342

>  <SMR_VSA4>  (198) 
0.0

>  <SMR_VSA5>  (198) 
0.0

>  <SMR_VSA6>  (198) 
0.0

>  <SMR_VSA7>  (198) 
48.79189

>  <SMR_VSA8>  (198) 
0.0

>  <SMR_VSA9>  (198) 
11.257379

>  <SlogP_VSA1>  (198) 
0.0

>  <SlogP_VSA10>  (198) 
0.0

>  <SlogP_VSA11>  (198) 
0.0

>  <SlogP_VSA12>  (198) 
0.0

>  <SlogP_VSA2>  (198) 
15.181342

>  <SlogP_VSA3>  (198) 
0.0

>  <SlogP_VSA4>  (198) 
0.0

>  <SlogP_VSA5>  (198) 
0.0

>  <SlogP_VSA6>  (198) 
48.79189

>  <SlogP_VSA7>  (198) 
0.0

>  <SlogP_VSA8>  (198) 
22.160304

>  <SlogP_VSA9>  (198) 
0.0

>  <EState_VSA1>  (198) 
0.0

>  <EState_VSA10>  (198) 
0.0

>  <EState_VSA11>  (198) 
0.0

>  <EState_VSA2>  (198) 
0.0

>  <EState_VSA3>  (198) 
0.0

>  <EState_VSA4>  (198) 
22.160304

>  <EState_VSA5>  (198) 
0.0

>  <EState_VSA6>  (198) 
12.393687

>  <EState_VSA7>  (198) 
30.331835

>  <EState_VSA8>  (198) 
21.247709

>  <EState_VSA9>  (198) 
0.0

>  <VSA_EState1>  (198) 
0.0

>  <VSA_EState10>  (198) 
0.0

>  <VSA_EState2>  (198) 
3.997345

>  <VSA_EState3>  (198) 
8.471324

>  <VSA_EState4>  (198) 
3.12478

>  <VSA_EState5>  (198) 
0.0

>  <VSA_EState6>  (198) 
12.02007

>  <VSA_EState7>  (198) 
3.553148

>  <VSA_EState8>  (198) 
0.0

>  <VSA_EState9>  (198) 
0.0

>  <FractionCSP3>  (198) 
0.0

>  <HeavyAtomCount>  (198) 
15

>  <NHOHCount>  (198) 
1

>  <NOCount>  (198) 
3

>  <NumAliphaticCarbocycles>  (198) 
0

>  <NumAliphaticHeterocycles>  (198) 
0

>  <NumAliphaticRings>  (198) 
0

>  <NumAromaticCarbocycles>  (198) 
1

>  <NumAromaticHeterocycles>  (198) 
2

>  <NAR>  (198) 
3

>  <NumHAcceptors>  (198) 
2

>  <NumHDonors>  (198) 
1

>  <NumHeteroatoms>  (198) 
3

>  <NumRotatableBonds>  (198) 
1

>  <NumSaturatedCarbocycles>  (198) 
0

>  <NumSaturatedHeterocycles>  (198) 
0

>  <NumSaturatedRings>  (198) 
0

>  <RingCount>  (198) 
3

>  <MolLogP>  (198) 
2.6249

>  <MolMR>  (198) 
59.3247

>  <fr_Al_COO>  (198) 
0

>  <fr_Al_OH>  (198) 
0

>  <fr_Al_OH_noTert>  (198) 
0

>  <fr_ArN>  (198) 
0

>  <fr_Ar_COO>  (198) 
0

>  <fr_Ar_N>  (198) 
3

>  <fr_Ar_NH>  (198) 
1

>  <fr_Ar_OH>  (198) 
0

>  <fr_COO>  (198) 
0

>  <fr_COO2>  (198) 
0

>  <fr_C_O>  (198) 
0

>  <fr_C_O_noCOO>  (198) 
0

>  <fr_C_S>  (198) 
0

>  <fr_HOCCN>  (198) 
0

>  <fr_Imine>  (198) 
0

>  <fr_NH0>  (198) 
2

>  <fr_NH1>  (198) 
1

>  <fr_NH2>  (198) 
0

>  <fr_N_O>  (198) 
0

>  <fr_Ndealkylation1>  (198) 
0

>  <fr_Ndealkylation2>  (198) 
0

>  <fr_Nhpyrrole>  (198) 
1

>  <fr_SH>  (198) 
0

>  <fr_aldehyde>  (198) 
0

>  <fr_alkyl_carbamate>  (198) 
0

>  <fr_alkyl_halide>  (198) 
0

>  <fr_allylic_oxid>  (198) 
0

>  <fr_amide>  (198) 
0

>  <fr_amidine>  (198) 
0

>  <fr_aniline>  (198) 
0

>  <fr_aryl_methyl>  (198) 
0

>  <fr_azide>  (198) 
0

>  <fr_azo>  (198) 
0

>  <fr_barbitur>  (198) 
0

>  <fr_benzene>  (198) 
1

>  <fr_benzodiazepine>  (198) 
0

>  <fr_bicyclic>  (198) 
1

>  <fr_diazo>  (198) 
0

>  <fr_dihydropyridine>  (198) 
0

>  <fr_epoxide>  (198) 
0

>  <fr_ester>  (198) 
0

>  <fr_ether>  (198) 
0

>  <fr_furan>  (198) 
0

>  <fr_guanido>  (198) 
0

>  <fr_halogen>  (198) 
0

>  <fr_hdrzine>  (198) 
0

>  <fr_hdrzone>  (198) 
0

>  <fr_imidazole>  (198) 
0

>  <fr_imide>  (198) 
0

>  <fr_isocyan>  (198) 
0

>  <fr_isothiocyan>  (198) 
0

>  <fr_ketone>  (198) 
0

>  <fr_ketone_Topliss>  (198) 
0

>  <fr_lactam>  (198) 
0

>  <fr_lactone>  (198) 
0

>  <fr_methoxy>  (198) 
0

>  <fr_morpholine>  (198) 
0

>  <fr_nitrile>  (198) 
0

>  <fr_nitro>  (198) 
0

>  <fr_nitro_arom>  (198) 
0

>  <fr_nitro_arom_nonortho>  (198) 
0

>  <fr_nitroso>  (198) 
0

>  <fr_oxazole>  (198) 
0

>  <fr_oxime>  (198) 
0

>  <fr_para_hydroxylation>  (198) 
1

>  <fr_phenol>  (198) 
0

>  <fr_phenol_noOrthoHbond>  (198) 
0

>  <fr_phos_acid>  (198) 
0

>  <fr_phos_ester>  (198) 
0

>  <fr_piperdine>  (198) 
0

>  <fr_piperzine>  (198) 
0

>  <fr_priamide>  (198) 
0

>  <fr_prisulfonamd>  (198) 
0

>  <fr_pyridine>  (198) 
1

>  <fr_quatN>  (198) 
0

>  <fr_sulfide>  (198) 
0

>  <fr_sulfonamd>  (198) 
0

>  <fr_sulfone>  (198) 
0

>  <fr_term_acetylene>  (198) 
0

>  <fr_tetrazole>  (198) 
0

>  <fr_thiazole>  (198) 
0

>  <fr_thiocyan>  (198) 
0

>  <fr_thiophene>  (198) 
0

>  <fr_unbrch_alkane>  (198) 
0

>  <fr_urea>  (198) 
0

>  <NP-Likeness>  (198) 
-1.244296

$$$$
LL2
     RDKit          3D

  0  0  0  0  0  0  0  0  0  0999 V3000
M  V30 BEGIN CTAB
M  V30 COUNTS 23 24 0 0 0
M  V30 BEGIN ATOM
M  V30 1 C -0.058810 2.150927 1.444208 0
M  V30 2 C 0.949254 1.288963 1.217462 0
M  V30 3 C 1.397583 0.057314 2.006357 0
M  V30 4 C 0.702793 -1.157744 1.530300 0
M  V30 5 C 1.329906 -1.850683 0.509989 0
M  V30 6 C 0.695044 -2.997581 0.045249 0
M  V30 7 C -0.506455 -3.469360 0.542129 0
M  V30 8 C -1.117925 -2.754381 1.568856 0
M  V30 9 C -0.495476 -1.600610 2.048250 0
M  V30 10 S 1.712729 1.903393 -0.281662 0
M  V30 11 C 0.444227 3.347339 -0.372688 0
M  V30 12 N 0.366537 4.382408 -1.369836 0
M  V30 13 N -0.154364 3.109683 0.547020 0
M  V30 14 H -0.716200 2.022922 2.314946 0
M  V30 15 H 2.503230 -0.030365 1.856529 0
M  V30 16 H 1.262534 0.277103 3.072681 0
M  V30 17 H 2.273269 -1.537284 0.073660 0
M  V30 18 H 1.207677 -3.534568 -0.764936 0
M  V30 19 H -0.953033 -4.378982 0.131864 0
M  V30 20 H -2.059325 -3.102770 1.975391 0
M  V30 21 H -0.941219 -1.020404 2.844536 0
M  V30 22 H -0.568809 4.404014 -1.833097 0
M  V30 23 H 1.241479 4.967508 -1.498094 0
M  V30 END ATOM
M  V30 BEGIN BOND
M  V30 1 2 1 2
M  V30 2 1 2 3
M  V30 3 1 3 4
M  V30 4 2 4 5
M  V30 5 1 5 6
M  V30 6 2 6 7
M  V30 7 1 7 8
M  V30 8 2 8 9
M  V30 9 1 2 10
M  V30 10 1 10 11
M  V30 11 1 11 12
M  V30 12 2 11 13
M  V30 13 1 13 1
M  V30 14 1 9 4
M  V30 15 1 1 14
M  V30 16 1 3 15
M  V30 17 1 3 16
M  V30 18 1 5 17
M  V30 19 1 6 18
M  V30 20 1 7 19
M  V30 21 1 8 20
M  V30 22 1 9 21
M  V30 23 1 12 22
M  V30 24 1 12 23
M  V30 END BOND
M  V30 END CTAB
M  END
>  <Dataset>  (199) 
PDB

>  <Ligand_Instance>  (199) 
3DND_LL2_A_351

>  <PDB_ID>  (199) 
3DND

>  <Standardized_SMILES>  (199) 
[H]C1=C(C([H])([H])C2=C([H])C([H])=C([H])C([H])=C2[H])SC(N([H])[H])=N1

>  <Name>  (199) 
5-benzyl-1,3-thiazol-2-amine

>  <Pocket>  (199) 
A

>  <ATP_Site>  (199) 
1.0

>  <Peripheral>  (199) 
0.0

>  <Num_H_Atoms_ProtBoundConf>  (199) 
10.0

>  <Num_Resolved_Atoms>  (199) 
13.0

>  <Num_Not_Resolved_Atoms>  (199) 
0.0

>  <2D_Mol_H>  (199) 
<rdkit.Chem.rdchem.Mol object at 0x72a238df1690>

>  <MW>  (199) 
190.271

>  <HBA>  (199) 
3

>  <HBD>  (199) 
1

>  <LogP>  (199) 
2.3161

>  <NRB>  (199) 
3

>  <TPSA>  (199) 
38.91

>  <Num_Heavy_Atoms>  (199) 
13

>  <Ro5>  (199) 
[True, True, True, True, True, True]

>  <Ro5_Fulfilled>  (199) 
True

>  <Ro3>  (199) 
[True, True, True, True]

>  <Ro3_Fulfilled>  (199) 
True

>  <Fsp3>  (199) 
0.1

>  <Fsp3_0.42>  (199) 
False

>  <Fsp3_0.45>  (199) 
False

>  <Stereogenic_Carbons>  (199) 
0

>  <C_Atoms>  (199) 
10

>  <FCStereo>  (199) 
0.0

>  <SPS>  (199) 
132

>  <nSPS>  (199) 
10.153846

>  <PBF>  (199) 
0.874383

>  <PBF_0.6>  (199) 
True

>  <nPBF>  (199) 
0.06726

>  <nPBF_0.016>  (199) 
True

>  <PMI1>  (199) 
292.736553

>  <PMI2>  (199) 
1412.38985

>  <PMI3>  (199) 
1469.41009

>  <NPR1>  (199) 
0.19922

>  <NPR2>  (199) 
0.961195

>  <Sum_NPR>  (199) 
1.160416

>  <Sum_NPR_1.07>  (199) 
True

>  <Sum_NPR_1.2>  (199) 
False

>  <MaxAbsEStateIndex>  (199) 
5.539657

>  <MaxEStateIndex>  (199) 
5.539657

>  <MinAbsEStateIndex>  (199) 
0.644381

>  <MinEStateIndex>  (199) 
0.644381

>  <qed>  (199) 
0.788889

>  <MolWt>  (199) 
190.271

>  <HeavyAtomMolWt>  (199) 
180.191

>  <ExactMolWt>  (199) 
190.056469

>  <NumValenceElectrons>  (199) 
66

>  <NumRadicalElectrons>  (199) 
0

>  <MaxPartialCharge>  (199) 
0.17971

>  <MinPartialCharge>  (199) 
-0.37511

>  <MaxAbsPartialCharge>  (199) 
0.37511

>  <MinAbsPartialCharge>  (199) 
0.17971

>  <FpDensityMorgan1>  (199) 
1.230769

>  <FpDensityMorgan2>  (199) 
2.0

>  <FpDensityMorgan3>  (199) 
2.615385

>  <BCUT2D_MWHI>  (199) 
32.133576

>  <BCUT2D_MWLOW>  (199) 
10.139414

>  <BCUT2D_CHGHI>  (199) 
1.985953

>  <BCUT2D_CHGLO>  (199) 
-1.950473

>  <BCUT2D_LOGPHI>  (199) 
2.17436

>  <BCUT2D_LOGPLOW>  (199) 
-1.816815

>  <BCUT2D_MRHI>  (199) 
7.149011

>  <BCUT2D_MRLOW>  (199) 
1.218283

>  <AvgIpc>  (199) 
2.530684

>  <BalabanJ>  (199) 
2.152484

>  <BertzCT>  (199) 
380.833086

>  <Chi0>  (199) 
9.096012

>  <Chi0n>  (199) 
7.104021

>  <Chi0v>  (199) 
7.920517

>  <Chi1>  (199) 
6.343337

>  <Chi1n>  (199) 
4.085195

>  <Chi1v>  (199) 
4.901691

>  <Chi2n>  (199) 
2.827187

>  <Chi2v>  (199) 
3.973965

>  <Chi3n>  (199) 
1.792625

>  <Chi3v>  (199) 
2.619108

>  <Chi4n>  (199) 
1.201409

>  <Chi4v>  (199) 
1.919692

>  <HallKierAlpha>  (199) 
-1.35

>  <Ipc>  (199) 
1629.760421

>  <Kappa1>  (199) 
8.257415

>  <Kappa2>  (199) 
3.577468

>  <Kappa3>  (199) 
2.063748

>  <LabuteASA>  (199) 
81.053341

>  <PEOE_VSA1>  (199) 
5.733667

>  <PEOE_VSA10>  (199) 
0.0

>  <PEOE_VSA11>  (199) 
5.131558

>  <PEOE_VSA12>  (199) 
0.0

>  <PEOE_VSA13>  (199) 
0.0

>  <PEOE_VSA14>  (199) 
0.0

>  <PEOE_VSA2>  (199) 
0.0

>  <PEOE_VSA3>  (199) 
4.983979

>  <PEOE_VSA4>  (199) 
0.0

>  <PEOE_VSA5>  (199) 
11.336786

>  <PEOE_VSA6>  (199) 
30.331835

>  <PEOE_VSA7>  (199) 
5.563451

>  <PEOE_VSA8>  (199) 
17.494812

>  <PEOE_VSA9>  (199) 
0.0

>  <SMR_VSA1>  (199) 
0.0

>  <SMR_VSA10>  (199) 
16.468344

>  <SMR_VSA2>  (199) 
0.0

>  <SMR_VSA3>  (199) 
4.983979

>  <SMR_VSA4>  (199) 
0.0

>  <SMR_VSA5>  (199) 
6.420822

>  <SMR_VSA6>  (199) 
5.733667

>  <SMR_VSA7>  (199) 
46.969278

>  <SMR_VSA8>  (199) 
0.0

>  <SMR_VSA9>  (199) 
0.0

>  <SlogP_VSA1>  (199) 
5.733667

>  <SlogP_VSA10>  (199) 
5.131558

>  <SlogP_VSA11>  (199) 
0.0

>  <SlogP_VSA12>  (199) 
11.336786

>  <SlogP_VSA2>  (199) 
4.983979

>  <SlogP_VSA3>  (199) 
6.420822

>  <SlogP_VSA4>  (199) 
0.0

>  <SlogP_VSA5>  (199) 
10.440599

>  <SlogP_VSA6>  (199) 
36.528679

>  <SlogP_VSA7>  (199) 
0.0

>  <SlogP_VSA8>  (199) 
0.0

>  <SlogP_VSA9>  (199) 
0.0

>  <EState_VSA1>  (199) 
0.0

>  <EState_VSA10>  (199) 
0.0

>  <EState_VSA11>  (199) 
0.0

>  <EState_VSA2>  (199) 
0.0

>  <EState_VSA3>  (199) 
5.131558

>  <EState_VSA4>  (199) 
6.420822

>  <EState_VSA5>  (199) 
10.440599

>  <EState_VSA6>  (199) 
11.336786

>  <EState_VSA7>  (199) 
24.395945

>  <EState_VSA8>  (199) 
17.116713

>  <EState_VSA9>  (199) 
5.733667

>  <VSA_EState1>  (199) 
0.0

>  <VSA_EState10>  (199) 
1.549238

>  <VSA_EState2>  (199) 
5.220839

>  <VSA_EState3>  (199) 
0.644381

>  <VSA_EState4>  (199) 
6.837018

>  <VSA_EState5>  (199) 
0.0

>  <VSA_EState6>  (199) 
10.315283

>  <VSA_EState7>  (199) 
2.766574

>  <VSA_EState8>  (199) 
0.0

>  <VSA_EState9>  (199) 
0.0

>  <FractionCSP3>  (199) 
0.1

>  <HeavyAtomCount>  (199) 
13

>  <NHOHCount>  (199) 
2

>  <NOCount>  (199) 
2

>  <NumAliphaticCarbocycles>  (199) 
0

>  <NumAliphaticHeterocycles>  (199) 
0

>  <NumAliphaticRings>  (199) 
0

>  <NumAromaticCarbocycles>  (199) 
1

>  <NumAromaticHeterocycles>  (199) 
1

>  <NAR>  (199) 
2

>  <NumHAcceptors>  (199) 
3

>  <NumHDonors>  (199) 
1

>  <NumHeteroatoms>  (199) 
3

>  <NumRotatableBonds>  (199) 
2

>  <NumSaturatedCarbocycles>  (199) 
0

>  <NumSaturatedHeterocycles>  (199) 
0

>  <NumSaturatedRings>  (199) 
0

>  <RingCount>  (199) 
2

>  <MolLogP>  (199) 
2.3161

>  <MolMR>  (199) 
55.7744

>  <fr_Al_COO>  (199) 
0

>  <fr_Al_OH>  (199) 
0

>  <fr_Al_OH_noTert>  (199) 
0

>  <fr_ArN>  (199) 
1

>  <fr_Ar_COO>  (199) 
0

>  <fr_Ar_N>  (199) 
1

>  <fr_Ar_NH>  (199) 
0

>  <fr_Ar_OH>  (199) 
0

>  <fr_COO>  (199) 
0

>  <fr_COO2>  (199) 
0

>  <fr_C_O>  (199) 
0

>  <fr_C_O_noCOO>  (199) 
0

>  <fr_C_S>  (199) 
0

>  <fr_HOCCN>  (199) 
0

>  <fr_Imine>  (199) 
0

>  <fr_NH0>  (199) 
1

>  <fr_NH1>  (199) 
0

>  <fr_NH2>  (199) 
1

>  <fr_N_O>  (199) 
0

>  <fr_Ndealkylation1>  (199) 
0

>  <fr_Ndealkylation2>  (199) 
0

>  <fr_Nhpyrrole>  (199) 
0

>  <fr_SH>  (199) 
0

>  <fr_aldehyde>  (199) 
0

>  <fr_alkyl_carbamate>  (199) 
0

>  <fr_alkyl_halide>  (199) 
0

>  <fr_allylic_oxid>  (199) 
0

>  <fr_amide>  (199) 
0

>  <fr_amidine>  (199) 
0

>  <fr_aniline>  (199) 
1

>  <fr_aryl_methyl>  (199) 
0

>  <fr_azide>  (199) 
0

>  <fr_azo>  (199) 
0

>  <fr_barbitur>  (199) 
0

>  <fr_benzene>  (199) 
1

>  <fr_benzodiazepine>  (199) 
0

>  <fr_bicyclic>  (199) 
0

>  <fr_diazo>  (199) 
0

>  <fr_dihydropyridine>  (199) 
0

>  <fr_epoxide>  (199) 
0

>  <fr_ester>  (199) 
0

>  <fr_ether>  (199) 
0

>  <fr_furan>  (199) 
0

>  <fr_guanido>  (199) 
0

>  <fr_halogen>  (199) 
0

>  <fr_hdrzine>  (199) 
0

>  <fr_hdrzone>  (199) 
0

>  <fr_imidazole>  (199) 
0

>  <fr_imide>  (199) 
0

>  <fr_isocyan>  (199) 
0

>  <fr_isothiocyan>  (199) 
0

>  <fr_ketone>  (199) 
0

>  <fr_ketone_Topliss>  (199) 
0

>  <fr_lactam>  (199) 
0

>  <fr_lactone>  (199) 
0

>  <fr_methoxy>  (199) 
0

>  <fr_morpholine>  (199) 
0

>  <fr_nitrile>  (199) 
0

>  <fr_nitro>  (199) 
0

>  <fr_nitro_arom>  (199) 
0

>  <fr_nitro_arom_nonortho>  (199) 
0

>  <fr_nitroso>  (199) 
0

>  <fr_oxazole>  (199) 
0

>  <fr_oxime>  (199) 
0

>  <fr_para_hydroxylation>  (199) 
0

>  <fr_phenol>  (199) 
0

>  <fr_phenol_noOrthoHbond>  (199) 
0

>  <fr_phos_acid>  (199) 
0

>  <fr_phos_ester>  (199) 
0

>  <fr_piperdine>  (199) 
0

>  <fr_piperzine>  (199) 
0

>  <fr_priamide>  (199) 
0

>  <fr_prisulfonamd>  (199) 
0

>  <fr_pyridine>  (199) 
0

>  <fr_quatN>  (199) 
0

>  <fr_sulfide>  (199) 
0

>  <fr_sulfonamd>  (199) 
0

>  <fr_sulfone>  (199) 
0

>  <fr_term_acetylene>  (199) 
0

>  <fr_tetrazole>  (199) 
0

>  <fr_thiazole>  (199) 
1

>  <fr_thiocyan>  (199) 
0

>  <fr_thiophene>  (199) 
0

>  <fr_unbrch_alkane>  (199) 
0

>  <fr_urea>  (199) 
0

>  <NP-Likeness>  (199) 
-1.257233

$$$$
LQ2
     RDKit          3D

  0  0  0  0  0  0  0  0  0  0999 V3000
M  V30 BEGIN CTAB
M  V30 COUNTS 18 18 0 0 0
M  V30 BEGIN ATOM
M  V30 1 C 0.381157 1.607949 0.166503 0
M  V30 2 C 0.805065 1.422196 1.465053 0
M  V30 3 C 1.260104 0.208431 1.915760 0
M  V30 4 C 1.701446 0.034065 3.285552 0
M  V30 5 O 1.672249 1.002255 4.084534 0
M  V30 6 N 2.166677 -1.213114 3.740656 0
M  V30 7 C 1.279528 -0.829702 1.017876 0
M  V30 8 C 0.864817 -0.710424 -0.310578 0
M  V30 9 C 0.418191 0.526743 -0.710323 0
M  V30 10 C -0.000193 0.581684 -2.111445 0
M  V30 11 O 0.017616 -0.375501 -2.939577 0
M  V30 12 O -0.495738 1.586465 -2.897304 0 CHG=-1 VAL=1
M  V30 13 H 0.020416 2.530296 -0.227871 0
M  V30 14 H 0.781075 2.241757 2.143905 0
M  V30 15 H 2.795177 -1.267519 4.580409 0
M  V30 16 H 1.972684 -2.153379 3.349423 0
M  V30 17 H 1.637306 -1.791607 1.365239 0
M  V30 18 H 0.910401 -1.577202 -0.958355 0
M  V30 END ATOM
M  V30 BEGIN BOND
M  V30 1 2 1 2
M  V30 2 1 2 3
M  V30 3 1 3 4
M  V30 4 2 4 5
M  V30 5 1 4 6
M  V30 6 2 3 7
M  V30 7 1 7 8
M  V30 8 2 8 9
M  V30 9 1 9 10
M  V30 10 2 10 11
M  V30 11 1 10 12
M  V30 12 1 9 1
M  V30 13 1 1 13
M  V30 14 1 2 14
M  V30 15 1 6 15
M  V30 16 1 6 16
M  V30 17 1 7 17
M  V30 18 1 8 18
M  V30 END BOND
M  V30 END CTAB
M  END
>  <Dataset>  (200) 
PDB

>  <Ligand_Instance>  (200) 
6SOX_LQ2_A_401

>  <PDB_ID>  (200) 
6SOX

>  <Standardized_SMILES>  (200) 
[H]C1=C([H])C(C(=O)N([H])[H])=C([H])C([H])=C1C(=O)[O-]

>  <Name>  (200) 
4-aminocarbonylbenzoic acid

>  <Pocket>  (200) 
A

>  <ATP_Site>  (200) 
1.0

>  <Peripheral>  (200) 
0.0

>  <Num_H_Atoms_ProtBoundConf>  (200) 
6.0

>  <Num_Resolved_Atoms>  (200) 
12.0

>  <Num_Not_Resolved_Atoms>  (200) 
0.0

>  <2D_Mol_H>  (200) 
<rdkit.Chem.rdchem.Mol object at 0x72a238df1770>

>  <MW>  (200) 
164.14

>  <HBA>  (200) 
3

>  <HBD>  (200) 
1

>  <LogP>  (200) 
-0.851

>  <NRB>  (200) 
2

>  <TPSA>  (200) 
83.22

>  <Num_Heavy_Atoms>  (200) 
12

>  <Ro5>  (200) 
[True, True, True, True, True, True]

>  <Ro5_Fulfilled>  (200) 
True

>  <Ro3>  (200) 
[True, True, True, True]

>  <Ro3_Fulfilled>  (200) 
True

>  <Fsp3>  (200) 
0.0

>  <Fsp3_0.42>  (200) 
False

>  <Fsp3_0.45>  (200) 
False

>  <Stereogenic_Carbons>  (200) 
0

>  <C_Atoms>  (200) 
8

>  <FCStereo>  (200) 
0.0

>  <SPS>  (200) 
112

>  <nSPS>  (200) 
9.333333

>  <PBF>  (200) 
0.0501

>  <PBF_0.6>  (200) 
False

>  <nPBF>  (200) 
0.004175

>  <nPBF_0.016>  (200) 
False

>  <PMI1>  (200) 
164.423833

>  <PMI2>  (200) 
1106.332307

>  <PMI3>  (200) 
1270.322085

>  <NPR1>  (200) 
0.129435

>  <NPR2>  (200) 
0.870907

>  <Sum_NPR>  (200) 
1.000342

>  <Sum_NPR_1.07>  (200) 
False

>  <Sum_NPR_1.2>  (200) 
False

>  <MaxAbsEStateIndex>  (200) 
10.541251

>  <MaxEStateIndex>  (200) 
10.541251

>  <MinAbsEStateIndex>  (200) 
0.027778

>  <MinEStateIndex>  (200) 
-1.272203

>  <qed>  (200) 
0.617433

>  <MolWt>  (200) 
164.14

>  <HeavyAtomMolWt>  (200) 
158.092

>  <ExactMolWt>  (200) 
164.035317

>  <NumValenceElectrons>  (200) 
62

>  <NumRadicalElectrons>  (200) 
0

>  <MaxPartialCharge>  (200) 
0.248196

>  <MinPartialCharge>  (200) 
-0.544815

>  <MaxAbsPartialCharge>  (200) 
0.544815

>  <MinAbsPartialCharge>  (200) 
0.248196

>  <FpDensityMorgan1>  (200) 
1.083333

>  <FpDensityMorgan2>  (200) 
1.5

>  <FpDensityMorgan3>  (200) 
1.833333

>  <BCUT2D_MWHI>  (200) 
16.365561

>  <BCUT2D_MWLOW>  (200) 
10.129421

>  <BCUT2D_CHGHI>  (200) 
1.984891

>  <BCUT2D_CHGLO>  (200) 
-2.009069

>  <BCUT2D_LOGPHI>  (200) 
2.015786

>  <BCUT2D_LOGPLOW>  (200) 
-2.219311

>  <BCUT2D_MRHI>  (200) 
5.938725

>  <BCUT2D_MRLOW>  (200) 
-0.254558

>  <AvgIpc>  (200) 
2.042911

>  <BalabanJ>  (200) 
3.00615

>  <BertzCT>  (200) 
282.579787

>  <Chi0>  (200) 
9.137828

>  <Chi0n>  (200) 
6.111496

>  <Chi0v>  (200) 
6.111496

>  <Chi1>  (200) 
5.609061

>  <Chi1n>  (200) 
3.222415

>  <Chi1v>  (200) 
3.222415

>  <Chi2n>  (200) 
2.229059

>  <Chi2v>  (200) 
2.229059

>  <Chi3n>  (200) 
1.40512

>  <Chi3v>  (200) 
1.40512

>  <Chi4n>  (200) 
0.770577

>  <Chi4v>  (200) 
0.770577

>  <HallKierAlpha>  (200) 
-1.84

>  <Ipc>  (200) 
473.955341

>  <Kappa1>  (200) 
8.258425

>  <Kappa2>  (200) 
3.04193

>  <Kappa3>  (200) 
1.601893

>  <LabuteASA>  (200) 
68.618456

>  <PEOE_VSA1>  (200) 
15.634732

>  <PEOE_VSA10>  (200) 
0.0

>  <PEOE_VSA11>  (200) 
0.0

>  <PEOE_VSA12>  (200) 
5.90718

>  <PEOE_VSA13>  (200) 
0.0

>  <PEOE_VSA14>  (200) 
0.0

>  <PEOE_VSA2>  (200) 
4.794537

>  <PEOE_VSA3>  (200) 
0.0

>  <PEOE_VSA4>  (200) 
0.0

>  <PEOE_VSA5>  (200) 
0.0

>  <PEOE_VSA6>  (200) 
12.132734

>  <PEOE_VSA7>  (200) 
17.696186

>  <PEOE_VSA8>  (200) 
5.563451

>  <PEOE_VSA9>  (200) 
5.969305

>  <SMR_VSA1>  (200) 
14.695602

>  <SMR_VSA10>  (200) 
11.876485

>  <SMR_VSA2>  (200) 
0.0

>  <SMR_VSA3>  (200) 
0.0

>  <SMR_VSA4>  (200) 
5.733667

>  <SMR_VSA5>  (200) 
0.0

>  <SMR_VSA6>  (200) 
0.0

>  <SMR_VSA7>  (200) 
35.392371

>  <SMR_VSA8>  (200) 
0.0

>  <SMR_VSA9>  (200) 
0.0

>  <SlogP_VSA1>  (200) 
10.840195

>  <SlogP_VSA10>  (200) 
0.0

>  <SlogP_VSA11>  (200) 
0.0

>  <SlogP_VSA12>  (200) 
0.0

>  <SlogP_VSA2>  (200) 
11.876485

>  <SlogP_VSA3>  (200) 
0.0

>  <SlogP_VSA4>  (200) 
0.0

>  <SlogP_VSA5>  (200) 
20.715977

>  <SlogP_VSA6>  (200) 
24.265468

>  <SlogP_VSA7>  (200) 
0.0

>  <SlogP_VSA8>  (200) 
0.0

>  <SlogP_VSA9>  (200) 
0.0

>  <EState_VSA1>  (200) 
11.876485

>  <EState_VSA10>  (200) 
14.695602

>  <EState_VSA11>  (200) 
0.0

>  <EState_VSA2>  (200) 
11.126903

>  <EState_VSA3>  (200) 
0.0

>  <EState_VSA4>  (200) 
0.0

>  <EState_VSA5>  (200) 
24.265468

>  <EState_VSA6>  (200) 
0.0

>  <EState_VSA7>  (200) 
0.0

>  <EState_VSA8>  (200) 
0.0

>  <EState_VSA9>  (200) 
5.733667

>  <VSA_EState1>  (200) 
0.0

>  <VSA_EState10>  (200) 
0.0

>  <VSA_EState2>  (200) 
20.796044

>  <VSA_EState3>  (200) 
10.254793

>  <VSA_EState4>  (200) 
5.243499

>  <VSA_EState5>  (200) 
-1.855631

>  <VSA_EState6>  (200) 
5.227963

>  <VSA_EState7>  (200) 
0.0

>  <VSA_EState8>  (200) 
0.0

>  <VSA_EState9>  (200) 
0.0

>  <FractionCSP3>  (200) 
0.0

>  <HeavyAtomCount>  (200) 
12

>  <NHOHCount>  (200) 
2

>  <NOCount>  (200) 
4

>  <NumAliphaticCarbocycles>  (200) 
0

>  <NumAliphaticHeterocycles>  (200) 
0

>  <NumAliphaticRings>  (200) 
0

>  <NumAromaticCarbocycles>  (200) 
1

>  <NumAromaticHeterocycles>  (200) 
0

>  <NAR>  (200) 
1

>  <NumHAcceptors>  (200) 
3

>  <NumHDonors>  (200) 
1

>  <NumHeteroatoms>  (200) 
4

>  <NumRotatableBonds>  (200) 
2

>  <NumSaturatedCarbocycles>  (200) 
0

>  <NumSaturatedHeterocycles>  (200) 
0

>  <NumSaturatedRings>  (200) 
0

>  <RingCount>  (200) 
1

>  <MolLogP>  (200) 
-0.851

>  <MolMR>  (200) 
39.2904

>  <fr_Al_COO>  (200) 
0

>  <fr_Al_OH>  (200) 
0

>  <fr_Al_OH_noTert>  (200) 
0

>  <fr_ArN>  (200) 
0

>  <fr_Ar_COO>  (200) 
1

>  <fr_Ar_N>  (200) 
0

>  <fr_Ar_NH>  (200) 
0

>  <fr_Ar_OH>  (200) 
0

>  <fr_COO>  (200) 
1

>  <fr_COO2>  (200) 
1

>  <fr_C_O>  (200) 
2

>  <fr_C_O_noCOO>  (200) 
2

>  <fr_C_S>  (200) 
0

>  <fr_HOCCN>  (200) 
0

>  <fr_Imine>  (200) 
0

>  <fr_NH0>  (200) 
0

>  <fr_NH1>  (200) 
0

>  <fr_NH2>  (200) 
1

>  <fr_N_O>  (200) 
0

>  <fr_Ndealkylation1>  (200) 
0

>  <fr_Ndealkylation2>  (200) 
0

>  <fr_Nhpyrrole>  (200) 
0

>  <fr_SH>  (200) 
0

>  <fr_aldehyde>  (200) 
0

>  <fr_alkyl_carbamate>  (200) 
0

>  <fr_alkyl_halide>  (200) 
0

>  <fr_allylic_oxid>  (200) 
0

>  <fr_amide>  (200) 
1

>  <fr_amidine>  (200) 
0

>  <fr_aniline>  (200) 
0

>  <fr_aryl_methyl>  (200) 
0

>  <fr_azide>  (200) 
0

>  <fr_azo>  (200) 
0

>  <fr_barbitur>  (200) 
0

>  <fr_benzene>  (200) 
1

>  <fr_benzodiazepine>  (200) 
0

>  <fr_bicyclic>  (200) 
0

>  <fr_diazo>  (200) 
0

>  <fr_dihydropyridine>  (200) 
0

>  <fr_epoxide>  (200) 
0

>  <fr_ester>  (200) 
0

>  <fr_ether>  (200) 
0

>  <fr_furan>  (200) 
0

>  <fr_guanido>  (200) 
0

>  <fr_halogen>  (200) 
0

>  <fr_hdrzine>  (200) 
0

>  <fr_hdrzone>  (200) 
0

>  <fr_imidazole>  (200) 
0

>  <fr_imide>  (200) 
0

>  <fr_isocyan>  (200) 
0

>  <fr_isothiocyan>  (200) 
0

>  <fr_ketone>  (200) 
0

>  <fr_ketone_Topliss>  (200) 
0

>  <fr_lactam>  (200) 
0

>  <fr_lactone>  (200) 
0

>  <fr_methoxy>  (200) 
0

>  <fr_morpholine>  (200) 
0

>  <fr_nitrile>  (200) 
0

>  <fr_nitro>  (200) 
0

>  <fr_nitro_arom>  (200) 
0

>  <fr_nitro_arom_nonortho>  (200) 
0

>  <fr_nitroso>  (200) 
0

>  <fr_oxazole>  (200) 
0

>  <fr_oxime>  (200) 
0

>  <fr_para_hydroxylation>  (200) 
0

>  <fr_phenol>  (200) 
0

>  <fr_phenol_noOrthoHbond>  (200) 
0

>  <fr_phos_acid>  (200) 
0

>  <fr_phos_ester>  (200) 
0

>  <fr_piperdine>  (200) 
0

>  <fr_piperzine>  (200) 
0

>  <fr_priamide>  (200) 
1

>  <fr_prisulfonamd>  (200) 
0

>  <fr_pyridine>  (200) 
0

>  <fr_quatN>  (200) 
0

>  <fr_sulfide>  (200) 
0

>  <fr_sulfonamd>  (200) 
0

>  <fr_sulfone>  (200) 
0

>  <fr_term_acetylene>  (200) 
0

>  <fr_tetrazole>  (200) 
0

>  <fr_thiazole>  (200) 
0

>  <fr_thiocyan>  (200) 
0

>  <fr_thiophene>  (200) 
0

>  <fr_unbrch_alkane>  (200) 
0

>  <fr_urea>  (200) 
0

>  <NP-Likeness>  (200) 
-0.681488

$$$$
LR5
     RDKit          3D

  0  0  0  0  0  0  0  0  0  0999 V3000
M  V30 BEGIN CTAB
M  V30 COUNTS 19 19 0 0 0
M  V30 BEGIN ATOM
M  V30 1 C 0.094186 -0.635271 0.264268 0
M  V30 2 C 1.046614 -1.373955 0.936947 0
M  V30 3 C 2.029507 -0.811475 1.723763 0
M  V30 4 C 3.003442 -1.716266 2.401195 0
M  V30 5 F 4.154261 -0.968773 2.577027 0
M  V30 6 F 2.467462 -2.105655 3.609197 0
M  V30 7 F 3.326218 -2.807818 1.613215 0
M  V30 8 C 2.045106 0.568687 1.832125 0
M  V30 9 C 1.099834 1.337051 1.166967 0
M  V30 10 C 0.110562 0.745988 0.373293 0
M  V30 11 C -0.801294 1.698106 -0.253673 0
M  V30 12 O -0.773769 2.950345 -0.144914 0
M  V30 13 N -1.792727 1.062615 -1.052524 0
M  V30 14 H -0.687924 -1.019946 -0.357414 0
M  V30 15 H 0.960610 -2.453855 0.796033 0
M  V30 16 H 2.812181 1.019967 2.447096 0
M  V30 17 H 1.176321 2.409420 1.300107 0
M  V30 18 H -1.682909 0.549500 -1.965636 0
M  V30 19 H -2.789183 0.842962 -1.136144 0
M  V30 END ATOM
M  V30 BEGIN BOND
M  V30 1 2 1 2
M  V30 2 1 2 3
M  V30 3 1 3 4
M  V30 4 1 4 5
M  V30 5 1 4 6
M  V30 6 1 4 7
M  V30 7 2 3 8
M  V30 8 1 8 9
M  V30 9 2 9 10
M  V30 10 1 10 11
M  V30 11 2 11 12
M  V30 12 1 11 13
M  V30 13 1 10 1
M  V30 14 1 1 14
M  V30 15 1 2 15
M  V30 16 1 8 16
M  V30 17 1 9 17
M  V30 18 1 13 18
M  V30 19 1 13 19
M  V30 END BOND
M  V30 END CTAB
M  END
>  <Dataset>  (201) 
PDB

>  <Ligand_Instance>  (201) 
6SPS_LR5_A_403

>  <PDB_ID>  (201) 
6SPS

>  <Standardized_SMILES>  (201) 
[H]C1=C([H])C(C(F)(F)F)=C([H])C([H])=C1C(=O)N([H])[H]

>  <Name>  (201) 
4-(trifluoromethyl)benzamide

>  <Pocket>  (201) 
A

>  <ATP_Site>  (201) 
1.0

>  <Peripheral>  (201) 
0.0

>  <Num_H_Atoms_ProtBoundConf>  (201) 
6.0

>  <Num_Resolved_Atoms>  (201) 
13.0

>  <Num_Not_Resolved_Atoms>  (201) 
0.0

>  <2D_Mol_H>  (201) 
<rdkit.Chem.rdchem.Mol object at 0x72a238df1850>

>  <MW>  (201) 
189.136

>  <HBA>  (201) 
1

>  <HBD>  (201) 
1

>  <LogP>  (201) 
1.8043

>  <NRB>  (201) 
1

>  <TPSA>  (201) 
43.09

>  <Num_Heavy_Atoms>  (201) 
13

>  <Ro5>  (201) 
[True, True, True, True, True, True]

>  <Ro5_Fulfilled>  (201) 
True

>  <Ro3>  (201) 
[True, True, True, True]

>  <Ro3_Fulfilled>  (201) 
True

>  <Fsp3>  (201) 
0.125

>  <Fsp3_0.42>  (201) 
False

>  <Fsp3_0.45>  (201) 
False

>  <Stereogenic_Carbons>  (201) 
0

>  <C_Atoms>  (201) 
8

>  <FCStereo>  (201) 
0.0

>  <SPS>  (201) 
147

>  <nSPS>  (201) 
11.307692

>  <PBF>  (201) 
0.221214

>  <PBF_0.6>  (201) 
False

>  <nPBF>  (201) 
0.017016

>  <nPBF_0.016>  (201) 
True

>  <PMI1>  (201) 
232.250272

>  <PMI2>  (201) 
1334.101263

>  <PMI3>  (201) 
1464.286579

>  <NPR1>  (201) 
0.15861

>  <NPR2>  (201) 
0.911093

>  <Sum_NPR>  (201) 
1.069703

>  <Sum_NPR_1.07>  (201) 
False

>  <Sum_NPR_1.2>  (201) 
False

>  <MaxAbsEStateIndex>  (201) 
12.004506

>  <MaxEStateIndex>  (201) 
12.004506

>  <MinAbsEStateIndex>  (201) 
0.062963

>  <MinEStateIndex>  (201) 
-4.378793

>  <qed>  (201) 
0.71869

>  <MolWt>  (201) 
189.136

>  <HeavyAtomMolWt>  (201) 
183.088

>  <ExactMolWt>  (201) 
189.040148

>  <NumValenceElectrons>  (201) 
70

>  <NumRadicalElectrons>  (201) 
0

>  <MaxPartialCharge>  (201) 
0.41591

>  <MinPartialCharge>  (201) 
-0.3656

>  <MaxAbsPartialCharge>  (201) 
0.41591

>  <MinAbsPartialCharge>  (201) 
0.3656

>  <FpDensityMorgan1>  (201) 
1.153846

>  <FpDensityMorgan2>  (201) 
1.615385

>  <FpDensityMorgan3>  (201) 
1.923077

>  <BCUT2D_MWHI>  (201) 
19.41317

>  <BCUT2D_MWLOW>  (201) 
10.123276

>  <BCUT2D_CHGHI>  (201) 
2.295049

>  <BCUT2D_CHGLO>  (201) 
-2.052512

>  <BCUT2D_LOGPHI>  (201) 
2.28382

>  <BCUT2D_LOGPLOW>  (201) 
-2.114741

>  <BCUT2D_MRHI>  (201) 
5.922234

>  <BCUT2D_MRLOW>  (201) 
-0.137141

>  <AvgIpc>  (201) 
2.028259

>  <BalabanJ>  (201) 
3.008741

>  <BertzCT>  (201) 
315.156178

>  <Chi0>  (201) 
10.060478

>  <Chi0n>  (201) 
6.428893

>  <Chi0v>  (201) 
6.428893

>  <Chi1>  (201) 
5.909702

>  <Chi1n>  (201) 
3.381113

>  <Chi1v>  (201) 
3.381113

>  <Chi2n>  (201) 
2.43936

>  <Chi2v>  (201) 
2.43936

>  <Chi3n>  (201) 
1.496745

>  <Chi3v>  (201) 
1.496745

>  <Chi4n>  (201) 
0.823477

>  <Chi4v>  (201) 
0.823477

>  <HallKierAlpha>  (201) 
-1.52

>  <Ipc>  (201) 
608.477849

>  <Kappa1>  (201) 
9.567108

>  <Kappa2>  (201) 
3.082443

>  <Kappa3>  (201) 
2.206729

>  <LabuteASA>  (201) 
72.159306

>  <PEOE_VSA1>  (201) 
5.733667

>  <PEOE_VSA10>  (201) 
0.0

>  <PEOE_VSA11>  (201) 
0.0

>  <PEOE_VSA12>  (201) 
5.90718

>  <PEOE_VSA13>  (201) 
0.0

>  <PEOE_VSA14>  (201) 
6.176299

>  <PEOE_VSA2>  (201) 
4.794537

>  <PEOE_VSA3>  (201) 
0.0

>  <PEOE_VSA4>  (201) 
13.171245

>  <PEOE_VSA5>  (201) 
0.0

>  <PEOE_VSA6>  (201) 
0.0

>  <PEOE_VSA7>  (201) 
24.265468

>  <PEOE_VSA8>  (201) 
5.563451

>  <PEOE_VSA9>  (201) 
5.563451

>  <SMR_VSA1>  (201) 
17.965782

>  <SMR_VSA10>  (201) 
5.90718

>  <SMR_VSA2>  (201) 
0.0

>  <SMR_VSA3>  (201) 
0.0

>  <SMR_VSA4>  (201) 
5.733667

>  <SMR_VSA5>  (201) 
6.176299

>  <SMR_VSA6>  (201) 
0.0

>  <SMR_VSA7>  (201) 
35.392371

>  <SMR_VSA8>  (201) 
0.0

>  <SMR_VSA9>  (201) 
0.0

>  <SlogP_VSA1>  (201) 
5.733667

>  <SlogP_VSA10>  (201) 
13.171245

>  <SlogP_VSA11>  (201) 
0.0

>  <SlogP_VSA12>  (201) 
0.0

>  <SlogP_VSA2>  (201) 
5.90718

>  <SlogP_VSA3>  (201) 
6.176299

>  <SlogP_VSA4>  (201) 
0.0

>  <SlogP_VSA5>  (201) 
15.92144

>  <SlogP_VSA6>  (201) 
24.265468

>  <SlogP_VSA7>  (201) 
0.0

>  <SlogP_VSA8>  (201) 
0.0

>  <SlogP_VSA9>  (201) 
0.0

>  <EState_VSA1>  (201) 
17.64693

>  <EState_VSA10>  (201) 
17.965782

>  <EState_VSA11>  (201) 
0.0

>  <EState_VSA2>  (201) 
5.563451

>  <EState_VSA3>  (201) 
0.0

>  <EState_VSA4>  (201) 
24.265468

>  <EState_VSA5>  (201) 
0.0

>  <EState_VSA6>  (201) 
0.0

>  <EState_VSA7>  (201) 
0.0

>  <EState_VSA8>  (201) 
0.0

>  <EState_VSA9>  (201) 
5.733667

>  <VSA_EState1>  (201) 
36.013519

>  <VSA_EState10>  (201) 
0.0

>  <VSA_EState2>  (201) 
10.502879

>  <VSA_EState3>  (201) 
0.0

>  <VSA_EState4>  (201) 
4.121678

>  <VSA_EState5>  (201) 
-0.741922

>  <VSA_EState6>  (201) 
3.732639

>  <VSA_EState7>  (201) 
-4.378793

>  <VSA_EState8>  (201) 
0.0

>  <VSA_EState9>  (201) 
0.0

>  <FractionCSP3>  (201) 
0.125

>  <HeavyAtomCount>  (201) 
13

>  <NHOHCount>  (201) 
2

>  <NOCount>  (201) 
2

>  <NumAliphaticCarbocycles>  (201) 
0

>  <NumAliphaticHeterocycles>  (201) 
0

>  <NumAliphaticRings>  (201) 
0

>  <NumAromaticCarbocycles>  (201) 
1

>  <NumAromaticHeterocycles>  (201) 
0

>  <NAR>  (201) 
1

>  <NumHAcceptors>  (201) 
1

>  <NumHDonors>  (201) 
1

>  <NumHeteroatoms>  (201) 
5

>  <NumRotatableBonds>  (201) 
1

>  <NumSaturatedCarbocycles>  (201) 
0

>  <NumSaturatedHeterocycles>  (201) 
0

>  <NumSaturatedRings>  (201) 
0

>  <RingCount>  (201) 
1

>  <MolLogP>  (201) 
1.8043

>  <MolMR>  (201) 
39.9619

>  <fr_Al_COO>  (201) 
0

>  <fr_Al_OH>  (201) 
0

>  <fr_Al_OH_noTert>  (201) 
0

>  <fr_ArN>  (201) 
0

>  <fr_Ar_COO>  (201) 
0

>  <fr_Ar_N>  (201) 
0

>  <fr_Ar_NH>  (201) 
0

>  <fr_Ar_OH>  (201) 
0

>  <fr_COO>  (201) 
0

>  <fr_COO2>  (201) 
0

>  <fr_C_O>  (201) 
1

>  <fr_C_O_noCOO>  (201) 
1

>  <fr_C_S>  (201) 
0

>  <fr_HOCCN>  (201) 
0

>  <fr_Imine>  (201) 
0

>  <fr_NH0>  (201) 
0

>  <fr_NH1>  (201) 
0

>  <fr_NH2>  (201) 
1

>  <fr_N_O>  (201) 
0

>  <fr_Ndealkylation1>  (201) 
0

>  <fr_Ndealkylation2>  (201) 
0

>  <fr_Nhpyrrole>  (201) 
0

>  <fr_SH>  (201) 
0

>  <fr_aldehyde>  (201) 
0

>  <fr_alkyl_carbamate>  (201) 
0

>  <fr_alkyl_halide>  (201) 
3

>  <fr_allylic_oxid>  (201) 
0

>  <fr_amide>  (201) 
1

>  <fr_amidine>  (201) 
0

>  <fr_aniline>  (201) 
0

>  <fr_aryl_methyl>  (201) 
0

>  <fr_azide>  (201) 
0

>  <fr_azo>  (201) 
0

>  <fr_barbitur>  (201) 
0

>  <fr_benzene>  (201) 
1

>  <fr_benzodiazepine>  (201) 
0

>  <fr_bicyclic>  (201) 
0

>  <fr_diazo>  (201) 
0

>  <fr_dihydropyridine>  (201) 
0

>  <fr_epoxide>  (201) 
0

>  <fr_ester>  (201) 
0

>  <fr_ether>  (201) 
0

>  <fr_furan>  (201) 
0

>  <fr_guanido>  (201) 
0

>  <fr_halogen>  (201) 
3

>  <fr_hdrzine>  (201) 
0

>  <fr_hdrzone>  (201) 
0

>  <fr_imidazole>  (201) 
0

>  <fr_imide>  (201) 
0

>  <fr_isocyan>  (201) 
0

>  <fr_isothiocyan>  (201) 
0

>  <fr_ketone>  (201) 
0

>  <fr_ketone_Topliss>  (201) 
0

>  <fr_lactam>  (201) 
0

>  <fr_lactone>  (201) 
0

>  <fr_methoxy>  (201) 
0

>  <fr_morpholine>  (201) 
0

>  <fr_nitrile>  (201) 
0

>  <fr_nitro>  (201) 
0

>  <fr_nitro_arom>  (201) 
0

>  <fr_nitro_arom_nonortho>  (201) 
0

>  <fr_nitroso>  (201) 
0

>  <fr_oxazole>  (201) 
0

>  <fr_oxime>  (201) 
0

>  <fr_para_hydroxylation>  (201) 
0

>  <fr_phenol>  (201) 
0

>  <fr_phenol_noOrthoHbond>  (201) 
0

>  <fr_phos_acid>  (201) 
0

>  <fr_phos_ester>  (201) 
0

>  <fr_piperdine>  (201) 
0

>  <fr_piperzine>  (201) 
0

>  <fr_priamide>  (201) 
1

>  <fr_prisulfonamd>  (201) 
0

>  <fr_pyridine>  (201) 
0

>  <fr_quatN>  (201) 
0

>  <fr_sulfide>  (201) 
0

>  <fr_sulfonamd>  (201) 
0

>  <fr_sulfone>  (201) 
0

>  <fr_term_acetylene>  (201) 
0

>  <fr_tetrazole>  (201) 
0

>  <fr_thiazole>  (201) 
0

>  <fr_thiocyan>  (201) 
0

>  <fr_thiophene>  (201) 
0

>  <fr_unbrch_alkane>  (201) 
0

>  <fr_urea>  (201) 
0

>  <NP-Likeness>  (201) 
-1.351617

$$$$
LR8
     RDKit          3D

  0  0  0  0  0  0  0  0  0  0999 V3000
M  V30 BEGIN CTAB
M  V30 COUNTS 28 29 0 0 0
M  V30 BEGIN ATOM
M  V30 1 C 1.444214 -0.624290 2.777970 0
M  V30 2 C 1.480162 -2.003189 2.781663 0
M  V30 3 C 2.229429 -2.706323 3.817359 0
M  V30 4 O 2.470801 -3.904040 4.117820 0
M  V30 5 N 2.921938 -1.970931 4.821927 0
M  V30 6 C 0.851993 -2.822178 1.865185 0
M  V30 7 C 0.121389 -2.234355 0.851929 0
M  V30 8 C 0.080035 -0.856291 0.840558 0
M  V30 9 N -0.639813 -0.112259 -0.152158 0
M  V30 10 C -0.711942 1.337896 -0.204639 0
M  V30 11 C -0.162812 1.786916 -1.532854 0
M  V30 12 O -0.576217 0.984272 -2.580891 0
M  V30 13 C -1.702832 0.232655 -2.257581 0
M  V30 14 C -1.378125 -0.801781 -1.219975 0
M  V30 15 N 0.716467 -0.115239 1.766061 0
M  V30 16 H 1.939259 -0.011685 3.499103 0
M  V30 17 H 3.768481 -1.387203 5.011795 0
M  V30 18 H 3.763976 -1.387572 5.019800 0
M  V30 19 H 0.906195 -3.890942 1.905304 0
M  V30 20 H -0.412087 -2.759658 0.079425 0
M  V30 21 H -0.030835 1.696449 0.611324 0
M  V30 22 H -1.737833 1.715128 -0.040231 0
M  V30 23 H -0.576070 2.800460 -1.738962 0
M  V30 24 H 0.937541 1.898659 -1.486885 0
M  V30 25 H -2.428124 0.930961 -1.818131 0
M  V30 26 H -2.136430 -0.195098 -3.180039 0
M  V30 27 H -0.649578 -1.567520 -1.591679 0
M  V30 28 H -2.283579 -1.285828 -0.860590 0
M  V30 END ATOM
M  V30 BEGIN BOND
M  V30 1 2 1 2
M  V30 2 1 2 3
M  V30 3 2 3 4
M  V30 4 1 3 5
M  V30 5 1 2 6
M  V30 6 2 6 7
M  V30 7 1 7 8
M  V30 8 1 8 9
M  V30 9 1 9 10
M  V30 10 1 10 11
M  V30 11 1 11 12
M  V30 12 1 12 13
M  V30 13 1 13 14
M  V30 14 2 8 15
M  V30 15 1 15 1
M  V30 16 1 14 9
M  V30 17 1 1 16
M  V30 18 1 5 17
M  V30 19 1 5 18
M  V30 20 1 6 19
M  V30 21 1 7 20
M  V30 22 1 10 21
M  V30 23 1 10 22
M  V30 24 1 11 23
M  V30 25 1 11 24
M  V30 26 1 13 25
M  V30 27 1 13 26
M  V30 28 1 14 27
M  V30 29 1 14 28
M  V30 END BOND
M  V30 END CTAB
M  END
>  <Dataset>  (202) 
PDB

>  <Ligand_Instance>  (202) 
6SPY_LR8_A_401

>  <PDB_ID>  (202) 
6SPY

>  <Standardized_SMILES>  (202) 
[H]C1=C(C(=O)N([H])[H])C([H])=C([H])C(N2C([H])([H])C([H])([H])OC([H])([H])C2([H])[H])=N1

>  <Name>  (202) 
6-morpholin-4-ylpyridine-3-carboxamide

>  <Pocket>  (202) 
A

>  <ATP_Site>  (202) 
1.0

>  <Peripheral>  (202) 
0.0

>  <Num_H_Atoms_ProtBoundConf>  (202) 
13.0

>  <Num_Resolved_Atoms>  (202) 
15.0

>  <Num_Not_Resolved_Atoms>  (202) 
0.0

>  <2D_Mol_H>  (202) 
<rdkit.Chem.rdchem.Mol object at 0x72a238df1930>

>  <MW>  (202) 
207.233

>  <HBA>  (202) 
4

>  <HBD>  (202) 
1

>  <LogP>  (202) 
0.0171

>  <NRB>  (202) 
2

>  <TPSA>  (202) 
68.45

>  <Num_Heavy_Atoms>  (202) 
15

>  <Ro5>  (202) 
[True, True, True, True, True, True]

>  <Ro5_Fulfilled>  (202) 
True

>  <Ro3>  (202) 
[True, False, True, True]

>  <Ro3_Fulfilled>  (202) 
True

>  <Fsp3>  (202) 
0.4

>  <Fsp3_0.42>  (202) 
False

>  <Fsp3_0.45>  (202) 
False

>  <Stereogenic_Carbons>  (202) 
0

>  <C_Atoms>  (202) 
10

>  <FCStereo>  (202) 
0.0

>  <SPS>  (202) 
246

>  <nSPS>  (202) 
16.4

>  <PBF>  (202) 
0.438344

>  <PBF_0.6>  (202) 
False

>  <nPBF>  (202) 
0.029223

>  <nPBF_0.016>  (202) 
True

>  <PMI1>  (202) 
251.55786

>  <PMI2>  (202) 
1926.126191

>  <PMI3>  (202) 
2105.038199

>  <NPR1>  (202) 
0.119503

>  <NPR2>  (202) 
0.915008

>  <Sum_NPR>  (202) 
1.03451

>  <Sum_NPR_1.07>  (202) 
False

>  <Sum_NPR_1.2>  (202) 
False

>  <MaxAbsEStateIndex>  (202) 
10.837126

>  <MaxEStateIndex>  (202) 
10.837126

>  <MinAbsEStateIndex>  (202) 
0.437046

>  <MinEStateIndex>  (202) 
-0.448123

>  <qed>  (202) 
0.741769

>  <MolWt>  (202) 
207.233

>  <HeavyAtomMolWt>  (202) 
194.129

>  <ExactMolWt>  (202) 
207.100777

>  <NumValenceElectrons>  (202) 
80

>  <NumRadicalElectrons>  (202) 
0

>  <MaxPartialCharge>  (202) 
0.249765

>  <MinPartialCharge>  (202) 
-0.377776

>  <MaxAbsPartialCharge>  (202) 
0.377776

>  <MinAbsPartialCharge>  (202) 
0.249765

>  <FpDensityMorgan1>  (202) 
1.4

>  <FpDensityMorgan2>  (202) 
2.133333

>  <FpDensityMorgan3>  (202) 
2.666667

>  <BCUT2D_MWHI>  (202) 
16.477517

>  <BCUT2D_MWLOW>  (202) 
10.24112

>  <BCUT2D_CHGHI>  (202) 
2.11824

>  <BCUT2D_CHGLO>  (202) 
-2.27181

>  <BCUT2D_LOGPHI>  (202) 
2.120017

>  <BCUT2D_LOGPLOW>  (202) 
-2.362856

>  <BCUT2D_MRHI>  (202) 
5.920735

>  <BCUT2D_MRLOW>  (202) 
0.099954

>  <AvgIpc>  (202) 
2.302776

>  <BalabanJ>  (202) 
2.114615

>  <BertzCT>  (202) 
344.190063

>  <Chi0>  (202) 
10.673362

>  <Chi0n>  (202) 
8.348752

>  <Chi0v>  (202) 
8.348752

>  <Chi1>  (202) 
7.270857

>  <Chi1n>  (202) 
4.857376

>  <Chi1v>  (202) 
4.857376

>  <Chi2n>  (202) 
3.368744

>  <Chi2v>  (202) 
3.368744

>  <Chi3n>  (202) 
2.367466

>  <Chi3v>  (202) 
2.367466

>  <Chi4n>  (202) 
1.511322

>  <Chi4v>  (202) 
1.511322

>  <HallKierAlpha>  (202) 
-1.62

>  <Ipc>  (202) 
3647.597028

>  <Kappa1>  (202) 
9.916984

>  <Kappa2>  (202) 
4.26872

>  <Kappa3>  (202) 
2.24413

>  <LabuteASA>  (202) 
87.844722

>  <PEOE_VSA1>  (202) 
15.37044

>  <PEOE_VSA10>  (202) 
5.817863

>  <PEOE_VSA11>  (202) 
0.0

>  <PEOE_VSA12>  (202) 
5.90718

>  <PEOE_VSA13>  (202) 
0.0

>  <PEOE_VSA14>  (202) 
0.0

>  <PEOE_VSA2>  (202) 
4.794537

>  <PEOE_VSA3>  (202) 
4.983979

>  <PEOE_VSA4>  (202) 
0.0

>  <PEOE_VSA5>  (202) 
0.0

>  <PEOE_VSA6>  (202) 
0.0

>  <PEOE_VSA7>  (202) 
12.132734

>  <PEOE_VSA8>  (202) 
19.286356

>  <PEOE_VSA9>  (202) 
18.777215

>  <SMR_VSA1>  (202) 
9.5314

>  <SMR_VSA10>  (202) 
11.725043

>  <SMR_VSA2>  (202) 
0.0

>  <SMR_VSA3>  (202) 
4.983979

>  <SMR_VSA4>  (202) 
5.733667

>  <SMR_VSA5>  (202) 
0.0

>  <SMR_VSA6>  (202) 
31.203186

>  <SMR_VSA7>  (202) 
23.893029

>  <SMR_VSA8>  (202) 
0.0

>  <SMR_VSA9>  (202) 
0.0

>  <SlogP_VSA1>  (202) 
10.633577

>  <SlogP_VSA10>  (202) 
5.817863

>  <SlogP_VSA11>  (202) 
0.0

>  <SlogP_VSA12>  (202) 
0.0

>  <SlogP_VSA2>  (202) 
37.194435

>  <SlogP_VSA3>  (202) 
4.736863

>  <SlogP_VSA4>  (202) 
0.0

>  <SlogP_VSA5>  (202) 
10.357989

>  <SlogP_VSA6>  (202) 
18.329578

>  <SlogP_VSA7>  (202) 
0.0

>  <SlogP_VSA8>  (202) 
0.0

>  <SlogP_VSA9>  (202) 
0.0

>  <EState_VSA1>  (202) 
5.90718

>  <EState_VSA10>  (202) 
4.794537

>  <EState_VSA11>  (202) 
0.0

>  <EState_VSA2>  (202) 
0.0

>  <EState_VSA3>  (202) 
5.563451

>  <EState_VSA4>  (202) 
32.12114

>  <EState_VSA5>  (202) 
6.196844

>  <EState_VSA6>  (202) 
6.066367

>  <EState_VSA7>  (202) 
6.066367

>  <EState_VSA8>  (202) 
9.883888

>  <EState_VSA9>  (202) 
10.47053

>  <VSA_EState1>  (202) 
5.239587

>  <VSA_EState10>  (202) 
0.0

>  <VSA_EState2>  (202) 
17.149593

>  <VSA_EState3>  (202) 
0.0

>  <VSA_EState4>  (202) 
5.56679

>  <VSA_EState5>  (202) 
0.416044

>  <VSA_EState6>  (202) 
3.505499

>  <VSA_EState7>  (202) 
1.507073

>  <VSA_EState8>  (202) 
3.115415

>  <VSA_EState9>  (202) 
0.0

>  <FractionCSP3>  (202) 
0.4

>  <HeavyAtomCount>  (202) 
15

>  <NHOHCount>  (202) 
2

>  <NOCount>  (202) 
5

>  <NumAliphaticCarbocycles>  (202) 
0

>  <NumAliphaticHeterocycles>  (202) 
1

>  <NumAliphaticRings>  (202) 
1

>  <NumAromaticCarbocycles>  (202) 
0

>  <NumAromaticHeterocycles>  (202) 
1

>  <NAR>  (202) 
1

>  <NumHAcceptors>  (202) 
4

>  <NumHDonors>  (202) 
1

>  <NumHeteroatoms>  (202) 
5

>  <NumRotatableBonds>  (202) 
2

>  <NumSaturatedCarbocycles>  (202) 
0

>  <NumSaturatedHeterocycles>  (202) 
1

>  <NumSaturatedRings>  (202) 
1

>  <RingCount>  (202) 
2

>  <MolLogP>  (202) 
0.0171

>  <MolMR>  (202) 
55.7869

>  <fr_Al_COO>  (202) 
0

>  <fr_Al_OH>  (202) 
0

>  <fr_Al_OH_noTert>  (202) 
0

>  <fr_ArN>  (202) 
0

>  <fr_Ar_COO>  (202) 
0

>  <fr_Ar_N>  (202) 
1

>  <fr_Ar_NH>  (202) 
0

>  <fr_Ar_OH>  (202) 
0

>  <fr_COO>  (202) 
0

>  <fr_COO2>  (202) 
0

>  <fr_C_O>  (202) 
1

>  <fr_C_O_noCOO>  (202) 
1

>  <fr_C_S>  (202) 
0

>  <fr_HOCCN>  (202) 
0

>  <fr_Imine>  (202) 
0

>  <fr_NH0>  (202) 
2

>  <fr_NH1>  (202) 
0

>  <fr_NH2>  (202) 
1

>  <fr_N_O>  (202) 
0

>  <fr_Ndealkylation1>  (202) 
0

>  <fr_Ndealkylation2>  (202) 
0

>  <fr_Nhpyrrole>  (202) 
0

>  <fr_SH>  (202) 
0

>  <fr_aldehyde>  (202) 
0

>  <fr_alkyl_carbamate>  (202) 
0

>  <fr_alkyl_halide>  (202) 
0

>  <fr_allylic_oxid>  (202) 
0

>  <fr_amide>  (202) 
1

>  <fr_amidine>  (202) 
0

>  <fr_aniline>  (202) 
1

>  <fr_aryl_methyl>  (202) 
0

>  <fr_azide>  (202) 
0

>  <fr_azo>  (202) 
0

>  <fr_barbitur>  (202) 
0

>  <fr_benzene>  (202) 
0

>  <fr_benzodiazepine>  (202) 
0

>  <fr_bicyclic>  (202) 
0

>  <fr_diazo>  (202) 
0

>  <fr_dihydropyridine>  (202) 
0

>  <fr_epoxide>  (202) 
0

>  <fr_ester>  (202) 
0

>  <fr_ether>  (202) 
1

>  <fr_furan>  (202) 
0

>  <fr_guanido>  (202) 
0

>  <fr_halogen>  (202) 
0

>  <fr_hdrzine>  (202) 
0

>  <fr_hdrzone>  (202) 
0

>  <fr_imidazole>  (202) 
0

>  <fr_imide>  (202) 
0

>  <fr_isocyan>  (202) 
0

>  <fr_isothiocyan>  (202) 
0

>  <fr_ketone>  (202) 
0

>  <fr_ketone_Topliss>  (202) 
0

>  <fr_lactam>  (202) 
0

>  <fr_lactone>  (202) 
0

>  <fr_methoxy>  (202) 
0

>  <fr_morpholine>  (202) 
1

>  <fr_nitrile>  (202) 
0

>  <fr_nitro>  (202) 
0

>  <fr_nitro_arom>  (202) 
0

>  <fr_nitro_arom_nonortho>  (202) 
0

>  <fr_nitroso>  (202) 
0

>  <fr_oxazole>  (202) 
0

>  <fr_oxime>  (202) 
0

>  <fr_para_hydroxylation>  (202) 
0

>  <fr_phenol>  (202) 
0

>  <fr_phenol_noOrthoHbond>  (202) 
0

>  <fr_phos_acid>  (202) 
0

>  <fr_phos_ester>  (202) 
0

>  <fr_piperdine>  (202) 
0

>  <fr_piperzine>  (202) 
0

>  <fr_priamide>  (202) 
1

>  <fr_prisulfonamd>  (202) 
0

>  <fr_pyridine>  (202) 
1

>  <fr_quatN>  (202) 
0

>  <fr_sulfide>  (202) 
0

>  <fr_sulfonamd>  (202) 
0

>  <fr_sulfone>  (202) 
0

>  <fr_term_acetylene>  (202) 
0

>  <fr_tetrazole>  (202) 
0

>  <fr_thiazole>  (202) 
0

>  <fr_thiocyan>  (202) 
0

>  <fr_thiophene>  (202) 
0

>  <fr_unbrch_alkane>  (202) 
0

>  <fr_urea>  (202) 
0

>  <NP-Likeness>  (202) 
-2.36623

$$$$
LRT
     RDKit          3D

  0  0  0  0  0  0  0  0  0  0999 V3000
M  V30 BEGIN CTAB
M  V30 COUNTS 40 42 0 0 0
M  V30 BEGIN ATOM
M  V30 1 C -0.315043 -2.726899 4.657255 0
M  V30 2 C 0.012250 -2.010546 3.530594 0
M  V30 3 C -0.868689 -1.222412 2.824830 0
M  V30 4 C -0.487177 -0.511242 1.680284 0
M  V30 5 S 1.186065 -0.690754 1.222560 0
M  V30 6 O 2.042382 -0.202558 2.355522 0
M  V30 7 O 1.542664 -2.119374 0.910064 0
M  V30 8 N 1.463939 0.216971 -0.214123 0
M  V30 9 C 0.674028 -0.246820 -1.319169 0
M  V30 10 C 1.474438 -0.873610 -2.413815 0
M  V30 11 C 2.405802 0.061343 -3.123125 0
M  V30 12 N 2.405331 1.408180 -2.644796 0 CHG=1 VAL=4
M  V30 13 C 3.055494 1.576516 -1.362862 0
M  V30 14 C 2.865675 0.333978 -0.525171 0
M  V30 15 C -1.485298 0.230400 1.086837 0
M  V30 16 C -2.760865 0.252696 1.604375 0
M  V30 17 C -3.127689 -0.449557 2.730423 0
M  V30 18 C -2.141825 -1.196992 3.337236 0
M  V30 19 C -2.516317 -1.898888 4.464284 0
M  V30 20 N -3.847179 -1.839753 4.955184 0
M  V30 21 N -1.599679 -2.648367 5.101626 0
M  V30 22 H 0.391515 -3.341335 5.199044 0
M  V30 23 H 1.032623 -2.109235 3.225327 0
M  V30 24 H 0.158126 0.626419 -1.763038 0
M  V30 25 H -0.041640 -1.010454 -0.957400 0
M  V30 26 H 1.990405 -1.811300 -2.094082 0
M  V30 27 H 0.726901 -1.236246 -3.170026 0
M  V30 28 H 3.462234 -0.310824 -3.032427 0
M  V30 29 H 2.170565 0.121959 -4.228536 0
M  V30 30 H 1.468306 1.874081 -2.650944 0
M  V30 31 H 2.963417 1.965750 -3.356867 0
M  V30 32 H 4.126370 1.788128 -1.555867 0
M  V30 33 H 2.574881 2.461391 -0.881745 0
M  V30 34 H 3.422842 0.518033 0.432496 0
M  V30 35 H 3.317812 -0.524548 -1.018633 0
M  V30 36 H -1.150981 0.764838 0.210707 0
M  V30 37 H -3.457224 0.861076 1.064765 0
M  V30 38 H -4.159683 -0.341492 3.025085 0
M  V30 39 H -4.032634 -1.405821 5.903909 0
M  V30 40 H -4.738665 -2.181174 4.496050 0
M  V30 END ATOM
M  V30 BEGIN BOND
M  V30 1 2 1 2
M  V30 2 1 2 3
M  V30 3 2 3 4
M  V30 4 1 4 5
M  V30 5 2 5 6
M  V30 6 2 5 7
M  V30 7 1 5 8
M  V30 8 1 8 9
M  V30 9 1 9 10
M  V30 10 1 10 11
M  V30 11 1 11 12
M  V30 12 1 12 13
M  V30 13 1 13 14
M  V30 14 1 4 15
M  V30 15 2 15 16
M  V30 16 1 16 17
M  V30 17 2 17 18
M  V30 18 1 18 19
M  V30 19 1 19 20
M  V30 20 2 19 21
M  V30 21 1 21 1
M  V30 22 1 18 3
M  V30 23 1 14 8
M  V30 24 1 1 22
M  V30 25 1 2 23
M  V30 26 1 9 24
M  V30 27 1 9 25
M  V30 28 1 10 26
M  V30 29 1 10 27
M  V30 30 1 11 28
M  V30 31 1 11 29
M  V30 32 1 12 30
M  V30 33 1 12 31
M  V30 34 1 13 32
M  V30 35 1 13 33
M  V30 36 1 14 34
M  V30 37 1 14 35
M  V30 38 1 15 36
M  V30 39 1 16 37
M  V30 40 1 17 38
M  V30 41 1 20 39
M  V30 42 1 20 40
M  V30 END BOND
M  V30 END CTAB
M  END
>  <Dataset>  (203) 
PDB

>  <Ligand_Instance>  (203) 
6SQ1_LRT_A_403

>  <PDB_ID>  (203) 
6SQ1

>  <Standardized_SMILES>  (203) 
[H]C1=C([H])C2=C(S(=O)(=O)N3C([H])([H])C([H])([H])C([H])([H])[N+]([H])([H])C([H])([H])C3([H])[H])C([H])=C([H])C([H])=C2C(N([H])[H])=N1

>  <Name>  (203) 
5-(1,4-diazepan-1-ylsulfonyl)isoquinolin-1-amine

>  <Pocket>  (203) 
A

>  <ATP_Site>  (203) 
1.0

>  <Peripheral>  (203) 
0.0

>  <Num_H_Atoms_ProtBoundConf>  (203) 
19.0

>  <Num_Resolved_Atoms>  (203) 
21.0

>  <Num_Not_Resolved_Atoms>  (203) 
0.0

>  <2D_Mol_H>  (203) 
<rdkit.Chem.rdchem.Mol object at 0x72a238df1a10>

>  <MW>  (203) 
307.399

>  <HBA>  (203) 
4

>  <HBD>  (203) 
2

>  <LogP>  (203) 
-0.2252

>  <NRB>  (203) 
3

>  <TPSA>  (203) 
92.9

>  <Num_Heavy_Atoms>  (203) 
21

>  <Ro5>  (203) 
[True, True, True, True, True, True]

>  <Ro5_Fulfilled>  (203) 
True

>  <Ro3>  (203) 
[False, False, True, True]

>  <Ro3_Fulfilled>  (203) 
False

>  <Fsp3>  (203) 
0.357143

>  <Fsp3_0.42>  (203) 
False

>  <Fsp3_0.45>  (203) 
False

>  <Stereogenic_Carbons>  (203) 
0

>  <C_Atoms>  (203) 
14

>  <FCStereo>  (203) 
0.0

>  <SPS>  (203) 
372

>  <nSPS>  (203) 
17.714286

>  <PBF>  (203) 
0.747395

>  <PBF_0.6>  (203) 
True

>  <nPBF>  (203) 
0.03559

>  <nPBF_0.016>  (203) 
True

>  <PMI1>  (203) 
647.46932

>  <PMI2>  (203) 
3184.146494

>  <PMI3>  (203) 
3511.176688

>  <NPR1>  (203) 
0.184402

>  <NPR2>  (203) 
0.90686

>  <Sum_NPR>  (203) 
1.091263

>  <Sum_NPR_1.07>  (203) 
True

>  <Sum_NPR_1.2>  (203) 
False

>  <MaxAbsEStateIndex>  (203) 
12.916098

>  <MaxEStateIndex>  (203) 
12.916098

>  <MinAbsEStateIndex>  (203) 
0.315741

>  <MinEStateIndex>  (203) 
-3.498727

>  <qed>  (203) 
0.801674

>  <MolWt>  (203) 
307.399

>  <HeavyAtomMolWt>  (203) 
288.247

>  <ExactMolWt>  (203) 
307.122323

>  <NumValenceElectrons>  (203) 
112

>  <NumRadicalElectrons>  (203) 
0

>  <MaxPartialCharge>  (203) 
0.243398

>  <MinPartialCharge>  (203) 
-0.383185

>  <MaxAbsPartialCharge>  (203) 
0.383185

>  <MinAbsPartialCharge>  (203) 
0.243398

>  <FpDensityMorgan1>  (203) 
1.142857

>  <FpDensityMorgan2>  (203) 
2.0

>  <FpDensityMorgan3>  (203) 
2.857143

>  <BCUT2D_MWHI>  (203) 
32.233427

>  <BCUT2D_MWLOW>  (203) 
10.149619

>  <BCUT2D_CHGHI>  (203) 
2.272593

>  <BCUT2D_CHGLO>  (203) 
-2.195025

>  <BCUT2D_LOGPHI>  (203) 
2.274866

>  <BCUT2D_LOGPLOW>  (203) 
-2.843702

>  <BCUT2D_MRHI>  (203) 
7.889655

>  <BCUT2D_MRLOW>  (203) 
-0.650697

>  <AvgIpc>  (203) 
2.765329

>  <BalabanJ>  (203) 
2.122793

>  <BertzCT>  (203) 
752.658101

>  <Chi0>  (203) 
14.872033

>  <Chi0n>  (203) 
11.696158

>  <Chi0v>  (203) 
12.512654

>  <Chi1>  (203) 
10.10419

>  <Chi1n>  (203) 
7.05549

>  <Chi1v>  (203) 
8.495553

>  <Chi2n>  (203) 
5.171127

>  <Chi2v>  (203) 
7.077483

>  <Chi3n>  (203) 
3.81311

>  <Chi3v>  (203) 
5.769903

>  <Chi4n>  (203) 
2.708717

>  <Chi4v>  (203) 
4.408554

>  <HallKierAlpha>  (203) 
-1.7

>  <Ipc>  (203) 
81538.479715

>  <Kappa1>  (203) 
14.246241

>  <Kappa2>  (203) 
5.590551

>  <Kappa3>  (203) 
2.593287

>  <LabuteASA>  (203) 
123.561957

>  <PEOE_VSA1>  (203) 
11.050456

>  <PEOE_VSA10>  (203) 
5.817863

>  <PEOE_VSA11>  (203) 
0.0

>  <PEOE_VSA12>  (203) 
10.023291

>  <PEOE_VSA13>  (203) 
0.0

>  <PEOE_VSA14>  (203) 
0.0

>  <PEOE_VSA2>  (203) 
0.0

>  <PEOE_VSA3>  (203) 
13.401776

>  <PEOE_VSA4>  (203) 
4.305216

>  <PEOE_VSA5>  (203) 
0.0

>  <PEOE_VSA6>  (203) 
12.132734

>  <PEOE_VSA7>  (203) 
12.132734

>  <PEOE_VSA8>  (203) 
29.93487

>  <PEOE_VSA9>  (203) 
24.529753

>  <SMR_VSA1>  (203) 
13.734586

>  <SMR_VSA10>  (203) 
26.613602

>  <SMR_VSA2>  (203) 
0.0

>  <SMR_VSA3>  (203) 
9.289195

>  <SMR_VSA4>  (203) 
0.0

>  <SMR_VSA5>  (203) 
11.316305

>  <SMR_VSA6>  (203) 
31.912693

>  <SMR_VSA7>  (203) 
30.462312

>  <SMR_VSA8>  (203) 
0.0

>  <SMR_VSA9>  (203) 
0.0

>  <SlogP_VSA1>  (203) 
11.050456

>  <SlogP_VSA10>  (203) 
5.817863

>  <SlogP_VSA11>  (203) 
0.0

>  <SlogP_VSA12>  (203) 
0.0

>  <SlogP_VSA2>  (203) 
43.886017

>  <SlogP_VSA3>  (203) 
10.023291

>  <SlogP_VSA4>  (203) 
0.0

>  <SlogP_VSA5>  (203) 
6.420822

>  <SlogP_VSA6>  (203) 
35.357795

>  <SlogP_VSA7>  (203) 
0.0

>  <SlogP_VSA8>  (203) 
10.772448

>  <SlogP_VSA9>  (203) 
0.0

>  <EState_VSA1>  (203) 
10.023291

>  <EState_VSA10>  (203) 
8.417797

>  <EState_VSA11>  (203) 
0.0

>  <EState_VSA2>  (203) 
0.0

>  <EState_VSA3>  (203) 
34.575307

>  <EState_VSA4>  (203) 
19.510334

>  <EState_VSA5>  (203) 
0.0

>  <EState_VSA6>  (203) 
34.767528

>  <EState_VSA7>  (203) 
0.0

>  <EState_VSA8>  (203) 
10.300767

>  <EState_VSA9>  (203) 
5.733667

>  <VSA_EState1>  (203) 
27.403518

>  <VSA_EState10>  (203) 
0.0

>  <VSA_EState2>  (203) 
4.338092

>  <VSA_EState3>  (203) 
3.471067

>  <VSA_EState4>  (203) 
5.847295

>  <VSA_EState5>  (203) 
0.355324

>  <VSA_EState6>  (203) 
6.873342

>  <VSA_EState7>  (203) 
2.417243

>  <VSA_EState8>  (203) 
2.87618

>  <VSA_EState9>  (203) 
-3.498727

>  <FractionCSP3>  (203) 
0.357143

>  <HeavyAtomCount>  (203) 
21

>  <NHOHCount>  (203) 
4

>  <NOCount>  (203) 
6

>  <NumAliphaticCarbocycles>  (203) 
0

>  <NumAliphaticHeterocycles>  (203) 
1

>  <NumAliphaticRings>  (203) 
1

>  <NumAromaticCarbocycles>  (203) 
1

>  <NumAromaticHeterocycles>  (203) 
1

>  <NAR>  (203) 
2

>  <NumHAcceptors>  (203) 
4

>  <NumHDonors>  (203) 
2

>  <NumHeteroatoms>  (203) 
7

>  <NumRotatableBonds>  (203) 
2

>  <NumSaturatedCarbocycles>  (203) 
0

>  <NumSaturatedHeterocycles>  (203) 
1

>  <NumSaturatedRings>  (203) 
1

>  <RingCount>  (203) 
3

>  <MolLogP>  (203) 
-0.2252

>  <MolMR>  (203) 
81.1906

>  <fr_Al_COO>  (203) 
0

>  <fr_Al_OH>  (203) 
0

>  <fr_Al_OH_noTert>  (203) 
0

>  <fr_ArN>  (203) 
1

>  <fr_Ar_COO>  (203) 
0

>  <fr_Ar_N>  (203) 
1

>  <fr_Ar_NH>  (203) 
0

>  <fr_Ar_OH>  (203) 
0

>  <fr_COO>  (203) 
0

>  <fr_COO2>  (203) 
0

>  <fr_C_O>  (203) 
0

>  <fr_C_O_noCOO>  (203) 
0

>  <fr_C_S>  (203) 
0

>  <fr_HOCCN>  (203) 
0

>  <fr_Imine>  (203) 
0

>  <fr_NH0>  (203) 
2

>  <fr_NH1>  (203) 
0

>  <fr_NH2>  (203) 
2

>  <fr_N_O>  (203) 
0

>  <fr_Ndealkylation1>  (203) 
0

>  <fr_Ndealkylation2>  (203) 
0

>  <fr_Nhpyrrole>  (203) 
0

>  <fr_SH>  (203) 
0

>  <fr_aldehyde>  (203) 
0

>  <fr_alkyl_carbamate>  (203) 
0

>  <fr_alkyl_halide>  (203) 
0

>  <fr_allylic_oxid>  (203) 
0

>  <fr_amide>  (203) 
0

>  <fr_amidine>  (203) 
0

>  <fr_aniline>  (203) 
1

>  <fr_aryl_methyl>  (203) 
0

>  <fr_azide>  (203) 
0

>  <fr_azo>  (203) 
0

>  <fr_barbitur>  (203) 
0

>  <fr_benzene>  (203) 
1

>  <fr_benzodiazepine>  (203) 
0

>  <fr_bicyclic>  (203) 
1

>  <fr_diazo>  (203) 
0

>  <fr_dihydropyridine>  (203) 
0

>  <fr_epoxide>  (203) 
0

>  <fr_ester>  (203) 
0

>  <fr_ether>  (203) 
0

>  <fr_furan>  (203) 
0

>  <fr_guanido>  (203) 
0

>  <fr_halogen>  (203) 
0

>  <fr_hdrzine>  (203) 
0

>  <fr_hdrzone>  (203) 
0

>  <fr_imidazole>  (203) 
0

>  <fr_imide>  (203) 
0

>  <fr_isocyan>  (203) 
0

>  <fr_isothiocyan>  (203) 
0

>  <fr_ketone>  (203) 
0

>  <fr_ketone_Topliss>  (203) 
0

>  <fr_lactam>  (203) 
0

>  <fr_lactone>  (203) 
0

>  <fr_methoxy>  (203) 
0

>  <fr_morpholine>  (203) 
0

>  <fr_nitrile>  (203) 
0

>  <fr_nitro>  (203) 
0

>  <fr_nitro_arom>  (203) 
0

>  <fr_nitro_arom_nonortho>  (203) 
0

>  <fr_nitroso>  (203) 
0

>  <fr_oxazole>  (203) 
0

>  <fr_oxime>  (203) 
0

>  <fr_para_hydroxylation>  (203) 
0

>  <fr_phenol>  (203) 
0

>  <fr_phenol_noOrthoHbond>  (203) 
0

>  <fr_phos_acid>  (203) 
0

>  <fr_phos_ester>  (203) 
0

>  <fr_piperdine>  (203) 
0

>  <fr_piperzine>  (203) 
0

>  <fr_priamide>  (203) 
0

>  <fr_prisulfonamd>  (203) 
0

>  <fr_pyridine>  (203) 
1

>  <fr_quatN>  (203) 
1

>  <fr_sulfide>  (203) 
0

>  <fr_sulfonamd>  (203) 
1

>  <fr_sulfone>  (203) 
0

>  <fr_term_acetylene>  (203) 
0

>  <fr_tetrazole>  (203) 
0

>  <fr_thiazole>  (203) 
0

>  <fr_thiocyan>  (203) 
0

>  <fr_thiophene>  (203) 
0

>  <fr_unbrch_alkane>  (203) 
0

>  <fr_urea>  (203) 
0

>  <NP-Likeness>  (203) 
-1.236594

$$$$
LRT
     RDKit          3D

  0  0  0  0  0  0  0  0  0  0999 V3000
M  V30 BEGIN CTAB
M  V30 COUNTS 40 42 0 0 0
M  V30 BEGIN ATOM
M  V30 1 C -0.315043 -2.726899 4.657255 0
M  V30 2 C 0.012250 -2.010546 3.530594 0
M  V30 3 C -0.868689 -1.222412 2.824830 0
M  V30 4 C -0.487177 -0.511242 1.680284 0
M  V30 5 S 1.186065 -0.690754 1.222560 0
M  V30 6 O 2.042382 -0.202558 2.355522 0
M  V30 7 O 1.542664 -2.119374 0.910064 0
M  V30 8 N 1.463939 0.216971 -0.214123 0
M  V30 9 C 0.674028 -0.246820 -1.319169 0
M  V30 10 C 1.474438 -0.873610 -2.413815 0
M  V30 11 C 2.405802 0.061343 -3.123125 0
M  V30 12 N 2.405331 1.408180 -2.644796 0 CHG=1 VAL=4
M  V30 13 C 3.055494 1.576516 -1.362862 0
M  V30 14 C 2.865675 0.333978 -0.525171 0
M  V30 15 C -1.485298 0.230400 1.086837 0
M  V30 16 C -2.760865 0.252696 1.604375 0
M  V30 17 C -3.127689 -0.449557 2.730423 0
M  V30 18 C -2.141825 -1.196992 3.337236 0
M  V30 19 C -2.516317 -1.898888 4.464284 0
M  V30 20 N -3.847179 -1.839753 4.955184 0
M  V30 21 N -1.599679 -2.648367 5.101626 0
M  V30 22 H 0.391515 -3.341335 5.199044 0
M  V30 23 H 1.032623 -2.109235 3.225327 0
M  V30 24 H 0.158126 0.626419 -1.763038 0
M  V30 25 H -0.041640 -1.010454 -0.957400 0
M  V30 26 H 1.990405 -1.811300 -2.094082 0
M  V30 27 H 0.726901 -1.236246 -3.170026 0
M  V30 28 H 3.462234 -0.310824 -3.032427 0
M  V30 29 H 2.170565 0.121959 -4.228536 0
M  V30 30 H 1.468306 1.874081 -2.650944 0
M  V30 31 H 2.963417 1.965750 -3.356867 0
M  V30 32 H 4.126370 1.788128 -1.555867 0
M  V30 33 H 2.574881 2.461391 -0.881745 0
M  V30 34 H 3.422842 0.518033 0.432496 0
M  V30 35 H 3.317812 -0.524548 -1.018633 0
M  V30 36 H -1.150981 0.764838 0.210707 0
M  V30 37 H -3.457224 0.861076 1.064765 0
M  V30 38 H -4.159683 -0.341492 3.025085 0
M  V30 39 H -4.032634 -1.405821 5.903909 0
M  V30 40 H -4.738665 -2.181174 4.496050 0
M  V30 END ATOM
M  V30 BEGIN BOND
M  V30 1 2 1 2
M  V30 2 1 2 3
M  V30 3 2 3 4
M  V30 4 1 4 5
M  V30 5 2 5 6
M  V30 6 2 5 7
M  V30 7 1 5 8
M  V30 8 1 8 9
M  V30 9 1 9 10
M  V30 10 1 10 11
M  V30 11 1 11 12
M  V30 12 1 12 13
M  V30 13 1 13 14
M  V30 14 1 4 15
M  V30 15 2 15 16
M  V30 16 1 16 17
M  V30 17 2 17 18
M  V30 18 1 18 19
M  V30 19 1 19 20
M  V30 20 2 19 21
M  V30 21 1 21 1
M  V30 22 1 18 3
M  V30 23 1 14 8
M  V30 24 1 1 22
M  V30 25 1 2 23
M  V30 26 1 9 24
M  V30 27 1 9 25
M  V30 28 1 10 26
M  V30 29 1 10 27
M  V30 30 1 11 28
M  V30 31 1 11 29
M  V30 32 1 12 30
M  V30 33 1 12 31
M  V30 34 1 13 32
M  V30 35 1 13 33
M  V30 36 1 14 34
M  V30 37 1 14 35
M  V30 38 1 15 36
M  V30 39 1 16 37
M  V30 40 1 17 38
M  V30 41 1 20 39
M  V30 42 1 20 40
M  V30 END BOND
M  V30 END CTAB
M  END
>  <Dataset>  (204) 
PDB

>  <Ligand_Instance>  (204) 
6Y2U_LRT_A_401

>  <PDB_ID>  (204) 
6Y2U

>  <Standardized_SMILES>  (204) 
[H]C1=C([H])C2=C(S(=O)(=O)N3C([H])([H])C([H])([H])C([H])([H])[N+]([H])([H])C([H])([H])C3([H])[H])C([H])=C([H])C([H])=C2C(N([H])[H])=N1

>  <Name>  (204) 
5-(1,4-diazepan-1-ylsulfonyl)isoquinolin-1-amine

>  <Pocket>  (204) 
A

>  <ATP_Site>  (204) 
1.0

>  <Peripheral>  (204) 
0.0

>  <Num_H_Atoms_ProtBoundConf>  (204) 
19.0

>  <Num_Resolved_Atoms>  (204) 
21.0

>  <Num_Not_Resolved_Atoms>  (204) 
0.0

>  <2D_Mol_H>  (204) 
<rdkit.Chem.rdchem.Mol object at 0x72a238df1af0>

>  <MW>  (204) 
307.399

>  <HBA>  (204) 
4

>  <HBD>  (204) 
2

>  <LogP>  (204) 
-0.2252

>  <NRB>  (204) 
3

>  <TPSA>  (204) 
92.9

>  <Num_Heavy_Atoms>  (204) 
21

>  <Ro5>  (204) 
[True, True, True, True, True, True]

>  <Ro5_Fulfilled>  (204) 
True

>  <Ro3>  (204) 
[False, False, True, True]

>  <Ro3_Fulfilled>  (204) 
False

>  <Fsp3>  (204) 
0.357143

>  <Fsp3_0.42>  (204) 
False

>  <Fsp3_0.45>  (204) 
False

>  <Stereogenic_Carbons>  (204) 
0

>  <C_Atoms>  (204) 
14

>  <FCStereo>  (204) 
0.0

>  <SPS>  (204) 
372

>  <nSPS>  (204) 
17.714286

>  <PBF>  (204) 
0.747395

>  <PBF_0.6>  (204) 
True

>  <nPBF>  (204) 
0.03559

>  <nPBF_0.016>  (204) 
True

>  <PMI1>  (204) 
647.46932

>  <PMI2>  (204) 
3184.146494

>  <PMI3>  (204) 
3511.176688

>  <NPR1>  (204) 
0.184402

>  <NPR2>  (204) 
0.90686

>  <Sum_NPR>  (204) 
1.091263

>  <Sum_NPR_1.07>  (204) 
True

>  <Sum_NPR_1.2>  (204) 
False

>  <MaxAbsEStateIndex>  (204) 
12.916098

>  <MaxEStateIndex>  (204) 
12.916098

>  <MinAbsEStateIndex>  (204) 
0.315741

>  <MinEStateIndex>  (204) 
-3.498727

>  <qed>  (204) 
0.801674

>  <MolWt>  (204) 
307.399

>  <HeavyAtomMolWt>  (204) 
288.247

>  <ExactMolWt>  (204) 
307.122323

>  <NumValenceElectrons>  (204) 
112

>  <NumRadicalElectrons>  (204) 
0

>  <MaxPartialCharge>  (204) 
0.243398

>  <MinPartialCharge>  (204) 
-0.383185

>  <MaxAbsPartialCharge>  (204) 
0.383185

>  <MinAbsPartialCharge>  (204) 
0.243398

>  <FpDensityMorgan1>  (204) 
1.142857

>  <FpDensityMorgan2>  (204) 
2.0

>  <FpDensityMorgan3>  (204) 
2.857143

>  <BCUT2D_MWHI>  (204) 
32.233427

>  <BCUT2D_MWLOW>  (204) 
10.149619

>  <BCUT2D_CHGHI>  (204) 
2.272593

>  <BCUT2D_CHGLO>  (204) 
-2.195025

>  <BCUT2D_LOGPHI>  (204) 
2.274866

>  <BCUT2D_LOGPLOW>  (204) 
-2.843702

>  <BCUT2D_MRHI>  (204) 
7.889655

>  <BCUT2D_MRLOW>  (204) 
-0.650697

>  <AvgIpc>  (204) 
2.765329

>  <BalabanJ>  (204) 
2.122793

>  <BertzCT>  (204) 
752.658101

>  <Chi0>  (204) 
14.872033

>  <Chi0n>  (204) 
11.696158

>  <Chi0v>  (204) 
12.512654

>  <Chi1>  (204) 
10.10419

>  <Chi1n>  (204) 
7.05549

>  <Chi1v>  (204) 
8.495553

>  <Chi2n>  (204) 
5.171127

>  <Chi2v>  (204) 
7.077483

>  <Chi3n>  (204) 
3.81311

>  <Chi3v>  (204) 
5.769903

>  <Chi4n>  (204) 
2.708717

>  <Chi4v>  (204) 
4.408554

>  <HallKierAlpha>  (204) 
-1.7

>  <Ipc>  (204) 
81538.479715

>  <Kappa1>  (204) 
14.246241

>  <Kappa2>  (204) 
5.590551

>  <Kappa3>  (204) 
2.593287

>  <LabuteASA>  (204) 
123.561957

>  <PEOE_VSA1>  (204) 
11.050456

>  <PEOE_VSA10>  (204) 
5.817863

>  <PEOE_VSA11>  (204) 
0.0

>  <PEOE_VSA12>  (204) 
10.023291

>  <PEOE_VSA13>  (204) 
0.0

>  <PEOE_VSA14>  (204) 
0.0

>  <PEOE_VSA2>  (204) 
0.0

>  <PEOE_VSA3>  (204) 
13.401776

>  <PEOE_VSA4>  (204) 
4.305216

>  <PEOE_VSA5>  (204) 
0.0

>  <PEOE_VSA6>  (204) 
12.132734

>  <PEOE_VSA7>  (204) 
12.132734

>  <PEOE_VSA8>  (204) 
29.93487

>  <PEOE_VSA9>  (204) 
24.529753

>  <SMR_VSA1>  (204) 
13.734586

>  <SMR_VSA10>  (204) 
26.613602

>  <SMR_VSA2>  (204) 
0.0

>  <SMR_VSA3>  (204) 
9.289195

>  <SMR_VSA4>  (204) 
0.0

>  <SMR_VSA5>  (204) 
11.316305

>  <SMR_VSA6>  (204) 
31.912693

>  <SMR_VSA7>  (204) 
30.462312

>  <SMR_VSA8>  (204) 
0.0

>  <SMR_VSA9>  (204) 
0.0

>  <SlogP_VSA1>  (204) 
11.050456

>  <SlogP_VSA10>  (204) 
5.817863

>  <SlogP_VSA11>  (204) 
0.0

>  <SlogP_VSA12>  (204) 
0.0

>  <SlogP_VSA2>  (204) 
43.886017

>  <SlogP_VSA3>  (204) 
10.023291

>  <SlogP_VSA4>  (204) 
0.0

>  <SlogP_VSA5>  (204) 
6.420822

>  <SlogP_VSA6>  (204) 
35.357795

>  <SlogP_VSA7>  (204) 
0.0

>  <SlogP_VSA8>  (204) 
10.772448

>  <SlogP_VSA9>  (204) 
0.0

>  <EState_VSA1>  (204) 
10.023291

>  <EState_VSA10>  (204) 
8.417797

>  <EState_VSA11>  (204) 
0.0

>  <EState_VSA2>  (204) 
0.0

>  <EState_VSA3>  (204) 
34.575307

>  <EState_VSA4>  (204) 
19.510334

>  <EState_VSA5>  (204) 
0.0

>  <EState_VSA6>  (204) 
34.767528

>  <EState_VSA7>  (204) 
0.0

>  <EState_VSA8>  (204) 
10.300767

>  <EState_VSA9>  (204) 
5.733667

>  <VSA_EState1>  (204) 
27.403518

>  <VSA_EState10>  (204) 
0.0

>  <VSA_EState2>  (204) 
4.338092

>  <VSA_EState3>  (204) 
3.471067

>  <VSA_EState4>  (204) 
5.847295

>  <VSA_EState5>  (204) 
0.355324

>  <VSA_EState6>  (204) 
6.873342

>  <VSA_EState7>  (204) 
2.417243

>  <VSA_EState8>  (204) 
2.87618

>  <VSA_EState9>  (204) 
-3.498727

>  <FractionCSP3>  (204) 
0.357143

>  <HeavyAtomCount>  (204) 
21

>  <NHOHCount>  (204) 
4

>  <NOCount>  (204) 
6

>  <NumAliphaticCarbocycles>  (204) 
0

>  <NumAliphaticHeterocycles>  (204) 
1

>  <NumAliphaticRings>  (204) 
1

>  <NumAromaticCarbocycles>  (204) 
1

>  <NumAromaticHeterocycles>  (204) 
1

>  <NAR>  (204) 
2

>  <NumHAcceptors>  (204) 
4

>  <NumHDonors>  (204) 
2

>  <NumHeteroatoms>  (204) 
7

>  <NumRotatableBonds>  (204) 
2

>  <NumSaturatedCarbocycles>  (204) 
0

>  <NumSaturatedHeterocycles>  (204) 
1

>  <NumSaturatedRings>  (204) 
1

>  <RingCount>  (204) 
3

>  <MolLogP>  (204) 
-0.2252

>  <MolMR>  (204) 
81.1906

>  <fr_Al_COO>  (204) 
0

>  <fr_Al_OH>  (204) 
0

>  <fr_Al_OH_noTert>  (204) 
0

>  <fr_ArN>  (204) 
1

>  <fr_Ar_COO>  (204) 
0

>  <fr_Ar_N>  (204) 
1

>  <fr_Ar_NH>  (204) 
0

>  <fr_Ar_OH>  (204) 
0

>  <fr_COO>  (204) 
0

>  <fr_COO2>  (204) 
0

>  <fr_C_O>  (204) 
0

>  <fr_C_O_noCOO>  (204) 
0

>  <fr_C_S>  (204) 
0

>  <fr_HOCCN>  (204) 
0

>  <fr_Imine>  (204) 
0

>  <fr_NH0>  (204) 
2

>  <fr_NH1>  (204) 
0

>  <fr_NH2>  (204) 
2

>  <fr_N_O>  (204) 
0

>  <fr_Ndealkylation1>  (204) 
0

>  <fr_Ndealkylation2>  (204) 
0

>  <fr_Nhpyrrole>  (204) 
0

>  <fr_SH>  (204) 
0

>  <fr_aldehyde>  (204) 
0

>  <fr_alkyl_carbamate>  (204) 
0

>  <fr_alkyl_halide>  (204) 
0

>  <fr_allylic_oxid>  (204) 
0

>  <fr_amide>  (204) 
0

>  <fr_amidine>  (204) 
0

>  <fr_aniline>  (204) 
1

>  <fr_aryl_methyl>  (204) 
0

>  <fr_azide>  (204) 
0

>  <fr_azo>  (204) 
0

>  <fr_barbitur>  (204) 
0

>  <fr_benzene>  (204) 
1

>  <fr_benzodiazepine>  (204) 
0

>  <fr_bicyclic>  (204) 
1

>  <fr_diazo>  (204) 
0

>  <fr_dihydropyridine>  (204) 
0

>  <fr_epoxide>  (204) 
0

>  <fr_ester>  (204) 
0

>  <fr_ether>  (204) 
0

>  <fr_furan>  (204) 
0

>  <fr_guanido>  (204) 
0

>  <fr_halogen>  (204) 
0

>  <fr_hdrzine>  (204) 
0

>  <fr_hdrzone>  (204) 
0

>  <fr_imidazole>  (204) 
0

>  <fr_imide>  (204) 
0

>  <fr_isocyan>  (204) 
0

>  <fr_isothiocyan>  (204) 
0

>  <fr_ketone>  (204) 
0

>  <fr_ketone_Topliss>  (204) 
0

>  <fr_lactam>  (204) 
0

>  <fr_lactone>  (204) 
0

>  <fr_methoxy>  (204) 
0

>  <fr_morpholine>  (204) 
0

>  <fr_nitrile>  (204) 
0

>  <fr_nitro>  (204) 
0

>  <fr_nitro_arom>  (204) 
0

>  <fr_nitro_arom_nonortho>  (204) 
0

>  <fr_nitroso>  (204) 
0

>  <fr_oxazole>  (204) 
0

>  <fr_oxime>  (204) 
0

>  <fr_para_hydroxylation>  (204) 
0

>  <fr_phenol>  (204) 
0

>  <fr_phenol_noOrthoHbond>  (204) 
0

>  <fr_phos_acid>  (204) 
0

>  <fr_phos_ester>  (204) 
0

>  <fr_piperdine>  (204) 
0

>  <fr_piperzine>  (204) 
0

>  <fr_priamide>  (204) 
0

>  <fr_prisulfonamd>  (204) 
0

>  <fr_pyridine>  (204) 
1

>  <fr_quatN>  (204) 
1

>  <fr_sulfide>  (204) 
0

>  <fr_sulfonamd>  (204) 
1

>  <fr_sulfone>  (204) 
0

>  <fr_term_acetylene>  (204) 
0

>  <fr_tetrazole>  (204) 
0

>  <fr_thiazole>  (204) 
0

>  <fr_thiocyan>  (204) 
0

>  <fr_thiophene>  (204) 
0

>  <fr_unbrch_alkane>  (204) 
0

>  <fr_urea>  (204) 
0

>  <NP-Likeness>  (204) 
-1.236594

$$$$
LRT
     RDKit          3D

  0  0  0  0  0  0  0  0  0  0999 V3000
M  V30 BEGIN CTAB
M  V30 COUNTS 40 42 0 0 0
M  V30 BEGIN ATOM
M  V30 1 C -0.315043 -2.726899 4.657255 0
M  V30 2 C 0.012250 -2.010546 3.530594 0
M  V30 3 C -0.868689 -1.222412 2.824830 0
M  V30 4 C -0.487177 -0.511242 1.680284 0
M  V30 5 S 1.186065 -0.690754 1.222560 0
M  V30 6 O 2.042382 -0.202558 2.355522 0
M  V30 7 O 1.542664 -2.119374 0.910064 0
M  V30 8 N 1.463939 0.216971 -0.214123 0
M  V30 9 C 0.674028 -0.246820 -1.319169 0
M  V30 10 C 1.474438 -0.873610 -2.413815 0
M  V30 11 C 2.405802 0.061343 -3.123125 0
M  V30 12 N 2.405331 1.408180 -2.644796 0 CHG=1 VAL=4
M  V30 13 C 3.055494 1.576516 -1.362862 0
M  V30 14 C 2.865675 0.333978 -0.525171 0
M  V30 15 C -1.485298 0.230400 1.086837 0
M  V30 16 C -2.760865 0.252696 1.604375 0
M  V30 17 C -3.127689 -0.449557 2.730423 0
M  V30 18 C -2.141825 -1.196992 3.337236 0
M  V30 19 C -2.516317 -1.898888 4.464284 0
M  V30 20 N -3.847179 -1.839753 4.955184 0
M  V30 21 N -1.599679 -2.648367 5.101626 0
M  V30 22 H 0.391515 -3.341335 5.199044 0
M  V30 23 H 1.032623 -2.109235 3.225327 0
M  V30 24 H 0.158126 0.626419 -1.763038 0
M  V30 25 H -0.041640 -1.010454 -0.957400 0
M  V30 26 H 1.990405 -1.811300 -2.094082 0
M  V30 27 H 0.726901 -1.236246 -3.170026 0
M  V30 28 H 3.462234 -0.310824 -3.032427 0
M  V30 29 H 2.170565 0.121959 -4.228536 0
M  V30 30 H 1.468306 1.874081 -2.650944 0
M  V30 31 H 2.963417 1.965750 -3.356867 0
M  V30 32 H 4.126370 1.788128 -1.555867 0
M  V30 33 H 2.574881 2.461391 -0.881745 0
M  V30 34 H 3.422842 0.518033 0.432496 0
M  V30 35 H 3.317812 -0.524548 -1.018633 0
M  V30 36 H -1.150981 0.764838 0.210707 0
M  V30 37 H -3.457224 0.861076 1.064765 0
M  V30 38 H -4.159683 -0.341492 3.025085 0
M  V30 39 H -4.032634 -1.405821 5.903909 0
M  V30 40 H -4.738665 -2.181174 4.496050 0
M  V30 END ATOM
M  V30 BEGIN BOND
M  V30 1 2 1 2
M  V30 2 1 2 3
M  V30 3 2 3 4
M  V30 4 1 4 5
M  V30 5 2 5 6
M  V30 6 2 5 7
M  V30 7 1 5 8
M  V30 8 1 8 9
M  V30 9 1 9 10
M  V30 10 1 10 11
M  V30 11 1 11 12
M  V30 12 1 12 13
M  V30 13 1 13 14
M  V30 14 1 4 15
M  V30 15 2 15 16
M  V30 16 1 16 17
M  V30 17 2 17 18
M  V30 18 1 18 19
M  V30 19 1 19 20
M  V30 20 2 19 21
M  V30 21 1 21 1
M  V30 22 1 18 3
M  V30 23 1 14 8
M  V30 24 1 1 22
M  V30 25 1 2 23
M  V30 26 1 9 24
M  V30 27 1 9 25
M  V30 28 1 10 26
M  V30 29 1 10 27
M  V30 30 1 11 28
M  V30 31 1 11 29
M  V30 32 1 12 30
M  V30 33 1 12 31
M  V30 34 1 13 32
M  V30 35 1 13 33
M  V30 36 1 14 34
M  V30 37 1 14 35
M  V30 38 1 15 36
M  V30 39 1 16 37
M  V30 40 1 17 38
M  V30 41 1 20 39
M  V30 42 1 20 40
M  V30 END BOND
M  V30 END CTAB
M  END
>  <Dataset>  (205) 
PDB

>  <Ligand_Instance>  (205) 
6YNT_LRT_A_405

>  <PDB_ID>  (205) 
6YNT

>  <Standardized_SMILES>  (205) 
[H]C1=C([H])C2=C(S(=O)(=O)N3C([H])([H])C([H])([H])C([H])([H])[N+]([H])([H])C([H])([H])C3([H])[H])C([H])=C([H])C([H])=C2C(N([H])[H])=N1

>  <Name>  (205) 
5-(1,4-diazepan-1-ylsulfonyl)isoquinolin-1-amine

>  <Pocket>  (205) 
A

>  <ATP_Site>  (205) 
1.0

>  <Peripheral>  (205) 
0.0

>  <Num_H_Atoms_ProtBoundConf>  (205) 
19.0

>  <Num_Resolved_Atoms>  (205) 
21.0

>  <Num_Not_Resolved_Atoms>  (205) 
0.0

>  <2D_Mol_H>  (205) 
<rdkit.Chem.rdchem.Mol object at 0x72a238df1bd0>

>  <MW>  (205) 
307.399

>  <HBA>  (205) 
4

>  <HBD>  (205) 
2

>  <LogP>  (205) 
-0.2252

>  <NRB>  (205) 
3

>  <TPSA>  (205) 
92.9

>  <Num_Heavy_Atoms>  (205) 
21

>  <Ro5>  (205) 
[True, True, True, True, True, True]

>  <Ro5_Fulfilled>  (205) 
True

>  <Ro3>  (205) 
[False, False, True, True]

>  <Ro3_Fulfilled>  (205) 
False

>  <Fsp3>  (205) 
0.357143

>  <Fsp3_0.42>  (205) 
False

>  <Fsp3_0.45>  (205) 
False

>  <Stereogenic_Carbons>  (205) 
0

>  <C_Atoms>  (205) 
14

>  <FCStereo>  (205) 
0.0

>  <SPS>  (205) 
372

>  <nSPS>  (205) 
17.714286

>  <PBF>  (205) 
0.747395

>  <PBF_0.6>  (205) 
True

>  <nPBF>  (205) 
0.03559

>  <nPBF_0.016>  (205) 
True

>  <PMI1>  (205) 
647.46932

>  <PMI2>  (205) 
3184.146494

>  <PMI3>  (205) 
3511.176688

>  <NPR1>  (205) 
0.184402

>  <NPR2>  (205) 
0.90686

>  <Sum_NPR>  (205) 
1.091263

>  <Sum_NPR_1.07>  (205) 
True

>  <Sum_NPR_1.2>  (205) 
False

>  <MaxAbsEStateIndex>  (205) 
12.916098

>  <MaxEStateIndex>  (205) 
12.916098

>  <MinAbsEStateIndex>  (205) 
0.315741

>  <MinEStateIndex>  (205) 
-3.498727

>  <qed>  (205) 
0.801674

>  <MolWt>  (205) 
307.399

>  <HeavyAtomMolWt>  (205) 
288.247

>  <ExactMolWt>  (205) 
307.122323

>  <NumValenceElectrons>  (205) 
112

>  <NumRadicalElectrons>  (205) 
0

>  <MaxPartialCharge>  (205) 
0.243398

>  <MinPartialCharge>  (205) 
-0.383185

>  <MaxAbsPartialCharge>  (205) 
0.383185

>  <MinAbsPartialCharge>  (205) 
0.243398

>  <FpDensityMorgan1>  (205) 
1.142857

>  <FpDensityMorgan2>  (205) 
2.0

>  <FpDensityMorgan3>  (205) 
2.857143

>  <BCUT2D_MWHI>  (205) 
32.233427

>  <BCUT2D_MWLOW>  (205) 
10.149619

>  <BCUT2D_CHGHI>  (205) 
2.272593

>  <BCUT2D_CHGLO>  (205) 
-2.195025

>  <BCUT2D_LOGPHI>  (205) 
2.274866

>  <BCUT2D_LOGPLOW>  (205) 
-2.843702

>  <BCUT2D_MRHI>  (205) 
7.889655

>  <BCUT2D_MRLOW>  (205) 
-0.650697

>  <AvgIpc>  (205) 
2.765329

>  <BalabanJ>  (205) 
2.122793

>  <BertzCT>  (205) 
752.658101

>  <Chi0>  (205) 
14.872033

>  <Chi0n>  (205) 
11.696158

>  <Chi0v>  (205) 
12.512654

>  <Chi1>  (205) 
10.10419

>  <Chi1n>  (205) 
7.05549

>  <Chi1v>  (205) 
8.495553

>  <Chi2n>  (205) 
5.171127

>  <Chi2v>  (205) 
7.077483

>  <Chi3n>  (205) 
3.81311

>  <Chi3v>  (205) 
5.769903

>  <Chi4n>  (205) 
2.708717

>  <Chi4v>  (205) 
4.408554

>  <HallKierAlpha>  (205) 
-1.7

>  <Ipc>  (205) 
81538.479715

>  <Kappa1>  (205) 
14.246241

>  <Kappa2>  (205) 
5.590551

>  <Kappa3>  (205) 
2.593287

>  <LabuteASA>  (205) 
123.561957

>  <PEOE_VSA1>  (205) 
11.050456

>  <PEOE_VSA10>  (205) 
5.817863

>  <PEOE_VSA11>  (205) 
0.0

>  <PEOE_VSA12>  (205) 
10.023291

>  <PEOE_VSA13>  (205) 
0.0

>  <PEOE_VSA14>  (205) 
0.0

>  <PEOE_VSA2>  (205) 
0.0

>  <PEOE_VSA3>  (205) 
13.401776

>  <PEOE_VSA4>  (205) 
4.305216

>  <PEOE_VSA5>  (205) 
0.0

>  <PEOE_VSA6>  (205) 
12.132734

>  <PEOE_VSA7>  (205) 
12.132734

>  <PEOE_VSA8>  (205) 
29.93487

>  <PEOE_VSA9>  (205) 
24.529753

>  <SMR_VSA1>  (205) 
13.734586

>  <SMR_VSA10>  (205) 
26.613602

>  <SMR_VSA2>  (205) 
0.0

>  <SMR_VSA3>  (205) 
9.289195

>  <SMR_VSA4>  (205) 
0.0

>  <SMR_VSA5>  (205) 
11.316305

>  <SMR_VSA6>  (205) 
31.912693

>  <SMR_VSA7>  (205) 
30.462312

>  <SMR_VSA8>  (205) 
0.0

>  <SMR_VSA9>  (205) 
0.0

>  <SlogP_VSA1>  (205) 
11.050456

>  <SlogP_VSA10>  (205) 
5.817863

>  <SlogP_VSA11>  (205) 
0.0

>  <SlogP_VSA12>  (205) 
0.0

>  <SlogP_VSA2>  (205) 
43.886017

>  <SlogP_VSA3>  (205) 
10.023291

>  <SlogP_VSA4>  (205) 
0.0

>  <SlogP_VSA5>  (205) 
6.420822

>  <SlogP_VSA6>  (205) 
35.357795

>  <SlogP_VSA7>  (205) 
0.0

>  <SlogP_VSA8>  (205) 
10.772448

>  <SlogP_VSA9>  (205) 
0.0

>  <EState_VSA1>  (205) 
10.023291

>  <EState_VSA10>  (205) 
8.417797

>  <EState_VSA11>  (205) 
0.0

>  <EState_VSA2>  (205) 
0.0

>  <EState_VSA3>  (205) 
34.575307

>  <EState_VSA4>  (205) 
19.510334

>  <EState_VSA5>  (205) 
0.0

>  <EState_VSA6>  (205) 
34.767528

>  <EState_VSA7>  (205) 
0.0

>  <EState_VSA8>  (205) 
10.300767

>  <EState_VSA9>  (205) 
5.733667

>  <VSA_EState1>  (205) 
27.403518

>  <VSA_EState10>  (205) 
0.0

>  <VSA_EState2>  (205) 
4.338092

>  <VSA_EState3>  (205) 
3.471067

>  <VSA_EState4>  (205) 
5.847295

>  <VSA_EState5>  (205) 
0.355324

>  <VSA_EState6>  (205) 
6.873342

>  <VSA_EState7>  (205) 
2.417243

>  <VSA_EState8>  (205) 
2.87618

>  <VSA_EState9>  (205) 
-3.498727

>  <FractionCSP3>  (205) 
0.357143

>  <HeavyAtomCount>  (205) 
21

>  <NHOHCount>  (205) 
4

>  <NOCount>  (205) 
6

>  <NumAliphaticCarbocycles>  (205) 
0

>  <NumAliphaticHeterocycles>  (205) 
1

>  <NumAliphaticRings>  (205) 
1

>  <NumAromaticCarbocycles>  (205) 
1

>  <NumAromaticHeterocycles>  (205) 
1

>  <NAR>  (205) 
2

>  <NumHAcceptors>  (205) 
4

>  <NumHDonors>  (205) 
2

>  <NumHeteroatoms>  (205) 
7

>  <NumRotatableBonds>  (205) 
2

>  <NumSaturatedCarbocycles>  (205) 
0

>  <NumSaturatedHeterocycles>  (205) 
1

>  <NumSaturatedRings>  (205) 
1

>  <RingCount>  (205) 
3

>  <MolLogP>  (205) 
-0.2252

>  <MolMR>  (205) 
81.1906

>  <fr_Al_COO>  (205) 
0

>  <fr_Al_OH>  (205) 
0

>  <fr_Al_OH_noTert>  (205) 
0

>  <fr_ArN>  (205) 
1

>  <fr_Ar_COO>  (205) 
0

>  <fr_Ar_N>  (205) 
1

>  <fr_Ar_NH>  (205) 
0

>  <fr_Ar_OH>  (205) 
0

>  <fr_COO>  (205) 
0

>  <fr_COO2>  (205) 
0

>  <fr_C_O>  (205) 
0

>  <fr_C_O_noCOO>  (205) 
0

>  <fr_C_S>  (205) 
0

>  <fr_HOCCN>  (205) 
0

>  <fr_Imine>  (205) 
0

>  <fr_NH0>  (205) 
2

>  <fr_NH1>  (205) 
0

>  <fr_NH2>  (205) 
2

>  <fr_N_O>  (205) 
0

>  <fr_Ndealkylation1>  (205) 
0

>  <fr_Ndealkylation2>  (205) 
0

>  <fr_Nhpyrrole>  (205) 
0

>  <fr_SH>  (205) 
0

>  <fr_aldehyde>  (205) 
0

>  <fr_alkyl_carbamate>  (205) 
0

>  <fr_alkyl_halide>  (205) 
0

>  <fr_allylic_oxid>  (205) 
0

>  <fr_amide>  (205) 
0

>  <fr_amidine>  (205) 
0

>  <fr_aniline>  (205) 
1

>  <fr_aryl_methyl>  (205) 
0

>  <fr_azide>  (205) 
0

>  <fr_azo>  (205) 
0

>  <fr_barbitur>  (205) 
0

>  <fr_benzene>  (205) 
1

>  <fr_benzodiazepine>  (205) 
0

>  <fr_bicyclic>  (205) 
1

>  <fr_diazo>  (205) 
0

>  <fr_dihydropyridine>  (205) 
0

>  <fr_epoxide>  (205) 
0

>  <fr_ester>  (205) 
0

>  <fr_ether>  (205) 
0

>  <fr_furan>  (205) 
0

>  <fr_guanido>  (205) 
0

>  <fr_halogen>  (205) 
0

>  <fr_hdrzine>  (205) 
0

>  <fr_hdrzone>  (205) 
0

>  <fr_imidazole>  (205) 
0

>  <fr_imide>  (205) 
0

>  <fr_isocyan>  (205) 
0

>  <fr_isothiocyan>  (205) 
0

>  <fr_ketone>  (205) 
0

>  <fr_ketone_Topliss>  (205) 
0

>  <fr_lactam>  (205) 
0

>  <fr_lactone>  (205) 
0

>  <fr_methoxy>  (205) 
0

>  <fr_morpholine>  (205) 
0

>  <fr_nitrile>  (205) 
0

>  <fr_nitro>  (205) 
0

>  <fr_nitro_arom>  (205) 
0

>  <fr_nitro_arom_nonortho>  (205) 
0

>  <fr_nitroso>  (205) 
0

>  <fr_oxazole>  (205) 
0

>  <fr_oxime>  (205) 
0

>  <fr_para_hydroxylation>  (205) 
0

>  <fr_phenol>  (205) 
0

>  <fr_phenol_noOrthoHbond>  (205) 
0

>  <fr_phos_acid>  (205) 
0

>  <fr_phos_ester>  (205) 
0

>  <fr_piperdine>  (205) 
0

>  <fr_piperzine>  (205) 
0

>  <fr_priamide>  (205) 
0

>  <fr_prisulfonamd>  (205) 
0

>  <fr_pyridine>  (205) 
1

>  <fr_quatN>  (205) 
1

>  <fr_sulfide>  (205) 
0

>  <fr_sulfonamd>  (205) 
1

>  <fr_sulfone>  (205) 
0

>  <fr_term_acetylene>  (205) 
0

>  <fr_tetrazole>  (205) 
0

>  <fr_thiazole>  (205) 
0

>  <fr_thiocyan>  (205) 
0

>  <fr_thiophene>  (205) 
0

>  <fr_unbrch_alkane>  (205) 
0

>  <fr_urea>  (205) 
0

>  <NP-Likeness>  (205) 
-1.236594

$$$$
M01
     RDKit          3D

  0  0  0  0  0  0  0  0  0  0999 V3000
M  V30 BEGIN CTAB
M  V30 COUNTS 34 36 0 0 0
M  V30 BEGIN ATOM
M  V30 1 C 1.184872 -0.011865 4.575153 0
M  V30 2 N 1.824953 -1.215832 4.522004 0
M  V30 3 C 1.939997 -1.812078 3.326615 0
M  V30 4 C 1.424600 -1.228334 2.165342 0
M  V30 5 N 1.681060 -2.030947 1.144296 0
M  V30 6 C 2.349301 -3.134810 1.566665 0
M  V30 7 N 2.485472 -2.962351 2.893377 0
M  V30 8 C 0.781981 -0.010660 2.246587 0
M  V30 9 N 0.227987 0.661524 1.138149 0
M  V30 10 C 1.016963 1.070447 0.012724 0
M  V30 11 C 0.395253 0.647624 -1.282526 0
M  V30 12 C -0.797906 -0.270581 -0.998479 0
M  V30 13 C -1.396183 -0.797530 -2.259868 0
M  V30 14 N -2.530457 -1.670931 -2.000780 0 CHG=1 VAL=4
M  V30 15 C -1.797120 0.527441 -0.199686 0
M  V30 16 C -1.194984 0.961283 1.115058 0
M  V30 17 N 0.679543 0.563312 3.445413 0
M  V30 18 H 1.079405 0.493128 5.541116 0
M  V30 19 H 2.697001 -3.970042 0.972035 0
M  V30 20 H 2.960866 -3.627060 3.570331 0
M  V30 21 H 2.080498 0.844007 0.098009 0
M  V30 22 H 0.967439 2.199583 0.016364 0
M  V30 23 H -0.052395 1.500269 -1.869033 0
M  V30 24 H 1.100082 0.164588 -1.985610 0
M  V30 25 H -0.493402 -1.122941 -0.367776 0
M  V30 26 H -1.729582 0.004453 -2.940593 0
M  V30 27 H -0.625986 -1.460878 -2.730944 0
M  V30 28 H -2.800765 -2.156304 -2.883870 0
M  V30 29 H -3.337597 -1.106599 -1.632310 0
M  V30 30 H -2.238237 -2.305067 -1.238330 0
M  V30 31 H -2.216017 1.365978 -0.774017 0
M  V30 32 H -2.643077 -0.177147 0.046405 0
M  V30 33 H -1.697477 0.468018 1.989206 0
M  V30 34 H -1.327693 2.056818 1.237216 0
M  V30 END ATOM
M  V30 BEGIN BOND
M  V30 1 2 1 2
M  V30 2 1 2 3
M  V30 3 2 3 4
M  V30 4 1 4 5
M  V30 5 2 5 6
M  V30 6 1 6 7
M  V30 7 1 4 8
M  V30 8 1 8 9
M  V30 9 1 9 10
M  V30 10 1 10 11
M  V30 11 1 11 12
M  V30 12 1 12 13
M  V30 13 1 13 14
M  V30 14 1 12 15
M  V30 15 1 15 16
M  V30 16 2 8 17
M  V30 17 1 17 1
M  V30 18 1 7 3
M  V30 19 1 16 9
M  V30 20 1 1 18
M  V30 21 1 6 19
M  V30 22 1 7 20
M  V30 23 1 10 21
M  V30 24 1 10 22
M  V30 25 1 11 23
M  V30 26 1 11 24
M  V30 27 1 12 25
M  V30 28 1 13 26
M  V30 29 1 13 27
M  V30 30 1 14 28
M  V30 31 1 14 29
M  V30 32 1 14 30
M  V30 33 1 15 31
M  V30 34 1 15 32
M  V30 35 1 16 33
M  V30 36 1 16 34
M  V30 END BOND
M  V30 END CTAB
M  END
>  <Dataset>  (206) 
PDB

>  <Ligand_Instance>  (206) 
2VNW_M01_A_1351

>  <PDB_ID>  (206) 
2VNW

>  <Standardized_SMILES>  (206) 
[H]C1=NC2=C(N=C([H])N2[H])C(N2C([H])([H])C([H])([H])C([H])(C([H])([H])[N+]([H])([H])[H])C([H])([H])C2([H])[H])=N1

>  <Name>  (206) 
1-[1-(9H-purin-6-yl)piperidin-4-yl]methanamine

>  <Pocket>  (206) 
A

>  <ATP_Site>  (206) 
1.0

>  <Peripheral>  (206) 
0.0

>  <Num_H_Atoms_ProtBoundConf>  (206) 
17.0

>  <Num_Resolved_Atoms>  (206) 
17.0

>  <Num_Not_Resolved_Atoms>  (206) 
0.0

>  <2D_Mol_H>  (206) 
<rdkit.Chem.rdchem.Mol object at 0x72a238df1cb0>

>  <MW>  (206) 
233.299

>  <HBA>  (206) 
4

>  <HBD>  (206) 
2

>  <LogP>  (206) 
-0.1888

>  <NRB>  (206) 
3

>  <TPSA>  (206) 
85.34

>  <Num_Heavy_Atoms>  (206) 
17

>  <Ro5>  (206) 
[True, True, True, True, True, True]

>  <Ro5_Fulfilled>  (206) 
True

>  <Ro3>  (206) 
[True, False, True, True]

>  <Ro3_Fulfilled>  (206) 
True

>  <Fsp3>  (206) 
0.545455

>  <Fsp3_0.42>  (206) 
True

>  <Fsp3_0.45>  (206) 
True

>  <Stereogenic_Carbons>  (206) 
0

>  <C_Atoms>  (206) 
11

>  <FCStereo>  (206) 
0.0

>  <SPS>  (206) 
303

>  <nSPS>  (206) 
17.823529

>  <PBF>  (206) 
0.898461

>  <PBF_0.6>  (206) 
True

>  <nPBF>  (206) 
0.052851

>  <nPBF_0.016>  (206) 
True

>  <PMI1>  (206) 
601.516063

>  <PMI2>  (206) 
1604.012288

>  <PMI3>  (206) 
1894.887831

>  <NPR1>  (206) 
0.317442

>  <NPR2>  (206) 
0.846495

>  <Sum_NPR>  (206) 
1.163936

>  <Sum_NPR_1.07>  (206) 
True

>  <Sum_NPR_1.2>  (206) 
False

>  <MaxAbsEStateIndex>  (206) 
4.370334

>  <MaxEStateIndex>  (206) 
4.370334

>  <MinAbsEStateIndex>  (206) 
0.766446

>  <MinEStateIndex>  (206) 
0.766446

>  <qed>  (206) 
0.752637

>  <MolWt>  (206) 
233.299

>  <HeavyAtomMolWt>  (206) 
216.163

>  <ExactMolWt>  (206) 
233.150921

>  <NumValenceElectrons>  (206) 
90

>  <NumRadicalElectrons>  (206) 
0

>  <MaxPartialCharge>  (206) 
0.16229

>  <MinPartialCharge>  (206) 
-0.357329

>  <MaxAbsPartialCharge>  (206) 
0.357329

>  <MinAbsPartialCharge>  (206) 
0.16229

>  <FpDensityMorgan1>  (206) 
1.294118

>  <FpDensityMorgan2>  (206) 
2.117647

>  <FpDensityMorgan3>  (206) 
2.882353

>  <BCUT2D_MWHI>  (206) 
15.213232

>  <BCUT2D_MWLOW>  (206) 
9.970366

>  <BCUT2D_CHGHI>  (206) 
2.217972

>  <BCUT2D_CHGLO>  (206) 
-2.30802

>  <BCUT2D_LOGPHI>  (206) 
2.242981

>  <BCUT2D_LOGPLOW>  (206) 
-2.550782

>  <BCUT2D_MRHI>  (206) 
5.821412

>  <BCUT2D_MRLOW>  (206) 
-0.379448

>  <AvgIpc>  (206) 
2.867477

>  <BalabanJ>  (206) 
1.8682

>  <BertzCT>  (206) 
499.385894

>  <Chi0>  (206) 
11.664926

>  <Chi0n>  (206) 
9.763546

>  <Chi0v>  (206) 
9.763546

>  <Chi1>  (206) 
8.381341

>  <Chi1n>  (206) 
6.064899

>  <Chi1v>  (206) 
6.064899

>  <Chi2n>  (206) 
4.516125

>  <Chi2v>  (206) 
4.516125

>  <Chi3n>  (206) 
3.520192

>  <Chi3v>  (206) 
3.520192

>  <Chi4n>  (206) 
2.416807

>  <Chi4v>  (206) 
2.416807

>  <HallKierAlpha>  (206) 
-1.69

>  <Ipc>  (206) 
17812.766569

>  <Kappa1>  (206) 
10.463099

>  <Kappa2>  (206) 
4.289689

>  <Kappa3>  (206) 
1.842105

>  <LabuteASA>  (206) 
99.264718

>  <PEOE_VSA1>  (206) 
15.617556

>  <PEOE_VSA10>  (206) 
11.844021

>  <PEOE_VSA11>  (206) 
11.46504

>  <PEOE_VSA12>  (206) 
0.0

>  <PEOE_VSA13>  (206) 
0.0

>  <PEOE_VSA14>  (206) 
0.0

>  <PEOE_VSA2>  (206) 
0.0

>  <PEOE_VSA3>  (206) 
14.951936

>  <PEOE_VSA4>  (206) 
0.0

>  <PEOE_VSA5>  (206) 
0.0

>  <PEOE_VSA6>  (206) 
0.0

>  <PEOE_VSA7>  (206) 
12.841643

>  <PEOE_VSA8>  (206) 
19.007419

>  <PEOE_VSA9>  (206) 
12.872076

>  <SMR_VSA1>  (206) 
5.733667

>  <SMR_VSA10>  (206) 
16.981741

>  <SMR_VSA2>  (206) 
0.0

>  <SMR_VSA3>  (206) 
19.935914

>  <SMR_VSA4>  (206) 
5.917906

>  <SMR_VSA5>  (206) 
12.841643

>  <SMR_VSA6>  (206) 
24.534179

>  <SMR_VSA7>  (206) 
12.65464

>  <SMR_VSA8>  (206) 
0.0

>  <SMR_VSA9>  (206) 
0.0

>  <SlogP_VSA1>  (206) 
10.633577

>  <SlogP_VSA10>  (206) 
5.817863

>  <SlogP_VSA11>  (206) 
0.0

>  <SlogP_VSA12>  (206) 
0.0

>  <SlogP_VSA2>  (206) 
39.570183

>  <SlogP_VSA3>  (206) 
0.0

>  <SlogP_VSA4>  (206) 
5.917906

>  <SlogP_VSA5>  (206) 
12.841643

>  <SlogP_VSA6>  (206) 
12.65464

>  <SlogP_VSA7>  (206) 
0.0

>  <SlogP_VSA8>  (206) 
11.163878

>  <SlogP_VSA9>  (206) 
0.0

>  <EState_VSA1>  (206) 
0.0

>  <EState_VSA10>  (206) 
0.0

>  <EState_VSA11>  (206) 
0.0

>  <EState_VSA2>  (206) 
0.0

>  <EState_VSA3>  (206) 
0.0

>  <EState_VSA4>  (206) 
42.533916

>  <EState_VSA5>  (206) 
12.841643

>  <EState_VSA6>  (206) 
12.65464

>  <EState_VSA7>  (206) 
0.0

>  <EState_VSA8>  (206) 
30.569491

>  <EState_VSA9>  (206) 
0.0

>  <VSA_EState1>  (206) 
0.0

>  <VSA_EState10>  (206) 
0.0

>  <VSA_EState2>  (206) 
18.15348

>  <VSA_EState3>  (206) 
0.0

>  <VSA_EState4>  (206) 
5.676994

>  <VSA_EState5>  (206) 
1.723634

>  <VSA_EState6>  (206) 
0.0

>  <VSA_EState7>  (206) 
5.660427

>  <VSA_EState8>  (206) 
3.118799

>  <VSA_EState9>  (206) 
0.0

>  <FractionCSP3>  (206) 
0.545455

>  <HeavyAtomCount>  (206) 
17

>  <NHOHCount>  (206) 
4

>  <NOCount>  (206) 
6

>  <NumAliphaticCarbocycles>  (206) 
0

>  <NumAliphaticHeterocycles>  (206) 
1

>  <NumAliphaticRings>  (206) 
1

>  <NumAromaticCarbocycles>  (206) 
0

>  <NumAromaticHeterocycles>  (206) 
2

>  <NAR>  (206) 
2

>  <NumHAcceptors>  (206) 
4

>  <NumHDonors>  (206) 
2

>  <NumHeteroatoms>  (206) 
6

>  <NumRotatableBonds>  (206) 
2

>  <NumSaturatedCarbocycles>  (206) 
0

>  <NumSaturatedHeterocycles>  (206) 
1

>  <NumSaturatedRings>  (206) 
1

>  <RingCount>  (206) 
3

>  <MolLogP>  (206) 
-0.1888

>  <MolMR>  (206) 
64.3758

>  <fr_Al_COO>  (206) 
0

>  <fr_Al_OH>  (206) 
0

>  <fr_Al_OH_noTert>  (206) 
0

>  <fr_ArN>  (206) 
0

>  <fr_Ar_COO>  (206) 
0

>  <fr_Ar_N>  (206) 
4

>  <fr_Ar_NH>  (206) 
1

>  <fr_Ar_OH>  (206) 
0

>  <fr_COO>  (206) 
0

>  <fr_COO2>  (206) 
0

>  <fr_C_O>  (206) 
0

>  <fr_C_O_noCOO>  (206) 
0

>  <fr_C_S>  (206) 
0

>  <fr_HOCCN>  (206) 
0

>  <fr_Imine>  (206) 
0

>  <fr_NH0>  (206) 
4

>  <fr_NH1>  (206) 
1

>  <fr_NH2>  (206) 
0

>  <fr_N_O>  (206) 
0

>  <fr_Ndealkylation1>  (206) 
0

>  <fr_Ndealkylation2>  (206) 
0

>  <fr_Nhpyrrole>  (206) 
1

>  <fr_SH>  (206) 
0

>  <fr_aldehyde>  (206) 
0

>  <fr_alkyl_carbamate>  (206) 
0

>  <fr_alkyl_halide>  (206) 
0

>  <fr_allylic_oxid>  (206) 
0

>  <fr_amide>  (206) 
0

>  <fr_amidine>  (206) 
0

>  <fr_aniline>  (206) 
1

>  <fr_aryl_methyl>  (206) 
0

>  <fr_azide>  (206) 
0

>  <fr_azo>  (206) 
0

>  <fr_barbitur>  (206) 
0

>  <fr_benzene>  (206) 
0

>  <fr_benzodiazepine>  (206) 
0

>  <fr_bicyclic>  (206) 
1

>  <fr_diazo>  (206) 
0

>  <fr_dihydropyridine>  (206) 
0

>  <fr_epoxide>  (206) 
0

>  <fr_ester>  (206) 
0

>  <fr_ether>  (206) 
0

>  <fr_furan>  (206) 
0

>  <fr_guanido>  (206) 
0

>  <fr_halogen>  (206) 
0

>  <fr_hdrzine>  (206) 
0

>  <fr_hdrzone>  (206) 
0

>  <fr_imidazole>  (206) 
1

>  <fr_imide>  (206) 
0

>  <fr_isocyan>  (206) 
0

>  <fr_isothiocyan>  (206) 
0

>  <fr_ketone>  (206) 
0

>  <fr_ketone_Topliss>  (206) 
0

>  <fr_lactam>  (206) 
0

>  <fr_lactone>  (206) 
0

>  <fr_methoxy>  (206) 
0

>  <fr_morpholine>  (206) 
0

>  <fr_nitrile>  (206) 
0

>  <fr_nitro>  (206) 
0

>  <fr_nitro_arom>  (206) 
0

>  <fr_nitro_arom_nonortho>  (206) 
0

>  <fr_nitroso>  (206) 
0

>  <fr_oxazole>  (206) 
0

>  <fr_oxime>  (206) 
0

>  <fr_para_hydroxylation>  (206) 
0

>  <fr_phenol>  (206) 
0

>  <fr_phenol_noOrthoHbond>  (206) 
0

>  <fr_phos_acid>  (206) 
0

>  <fr_phos_ester>  (206) 
0

>  <fr_piperdine>  (206) 
1

>  <fr_piperzine>  (206) 
0

>  <fr_priamide>  (206) 
0

>  <fr_prisulfonamd>  (206) 
0

>  <fr_pyridine>  (206) 
0

>  <fr_quatN>  (206) 
1

>  <fr_sulfide>  (206) 
0

>  <fr_sulfonamd>  (206) 
0

>  <fr_sulfone>  (206) 
0

>  <fr_term_acetylene>  (206) 
0

>  <fr_tetrazole>  (206) 
0

>  <fr_thiazole>  (206) 
0

>  <fr_thiocyan>  (206) 
0

>  <fr_thiophene>  (206) 
0

>  <fr_unbrch_alkane>  (206) 
0

>  <fr_urea>  (206) 
0

>  <NP-Likeness>  (206) 
-1.100611

$$$$
M02
     RDKit          3D

  0  0  0  0  0  0  0  0  0  0999 V3000
M  V30 BEGIN CTAB
M  V30 COUNTS 31 33 0 0 0
M  V30 BEGIN ATOM
M  V30 1 C 2.245508 0.526064 3.721191 0
M  V30 2 N 3.074807 -0.541307 3.527658 0
M  V30 3 C 2.888842 -1.306514 2.416352 0
M  V30 4 C 1.882232 -0.991331 1.524324 0
M  V30 5 N 1.938989 -1.892517 0.559142 0
M  V30 6 C 2.945719 -2.752456 0.825131 0
M  V30 7 N 3.555355 -2.407289 1.981559 0
M  V30 8 C 1.049725 0.088686 1.728394 0
M  V30 9 N 0.010855 0.461212 0.862155 0
M  V30 10 C 0.194230 0.826415 -0.535499 0
M  V30 11 C -0.786648 -0.016973 -1.303208 0
M  V30 12 C -1.388162 -1.137993 -0.515024 0
M  V30 13 N -2.464720 -1.675233 -1.363454 0 CHG=1 VAL=4
M  V30 14 C -2.026042 -0.741789 0.774151 0
M  V30 15 C -1.369053 0.507449 1.325725 0
M  V30 16 N 1.249616 0.841863 2.843225 0
M  V30 17 H 2.411815 1.120638 4.611864 0
M  V30 18 H 3.256382 -3.602691 0.234896 0
M  V30 19 H 4.361425 -2.851060 2.475855 0
M  V30 20 H -0.123692 1.894351 -0.613028 0
M  V30 21 H 1.231434 0.775945 -0.878727 0
M  V30 22 H -1.633875 0.603430 -1.682964 0
M  V30 23 H -0.329237 -0.487248 -2.206832 0
M  V30 24 H -0.691291 -2.010730 -0.398014 0
M  V30 25 H -2.896329 -2.440419 -0.790996 0
M  V30 26 H -2.041389 -2.160486 -2.192755 0
M  V30 27 H -3.155024 -0.961697 -1.618457 0
M  V30 28 H -1.821519 -1.541933 1.532781 0
M  V30 29 H -3.136408 -0.585253 0.674857 0
M  V30 30 H -1.380078 0.522598 2.433348 0
M  V30 31 H -1.898830 1.411954 0.961816 0
M  V30 END ATOM
M  V30 BEGIN BOND
M  V30 1 2 1 2
M  V30 2 1 2 3
M  V30 3 2 3 4
M  V30 4 1 4 5
M  V30 5 2 5 6
M  V30 6 1 6 7
M  V30 7 1 4 8
M  V30 8 1 8 9
M  V30 9 1 9 10
M  V30 10 1 10 11
M  V30 11 1 11 12
M  V30 12 1 12 13
M  V30 13 1 12 14
M  V30 14 1 14 15
M  V30 15 2 8 16
M  V30 16 1 16 1
M  V30 17 1 7 3
M  V30 18 1 15 9
M  V30 19 1 1 17
M  V30 20 1 6 18
M  V30 21 1 7 19
M  V30 22 1 10 20
M  V30 23 1 10 21
M  V30 24 1 11 22
M  V30 25 1 11 23
M  V30 26 1 12 24
M  V30 27 1 13 25
M  V30 28 1 13 26
M  V30 29 1 13 27
M  V30 30 1 14 28
M  V30 31 1 14 29
M  V30 32 1 15 30
M  V30 33 1 15 31
M  V30 END BOND
M  V30 END CTAB
M  END
>  <Dataset>  (207) 
PDB

>  <Ligand_Instance>  (207) 
2VNY_M02_A_1351

>  <PDB_ID>  (207) 
2VNY

>  <Standardized_SMILES>  (207) 
[H]C1=NC2=C(N=C([H])N2[H])C(N2C([H])([H])C([H])([H])C([H])([N+]([H])([H])[H])C([H])([H])C2([H])[H])=N1

>  <Name>  (207) 
1-(9H-purin-6-yl)piperidin-4-amine

>  <Pocket>  (207) 
A

>  <ATP_Site>  (207) 
1.0

>  <Peripheral>  (207) 
0.0

>  <Num_H_Atoms_ProtBoundConf>  (207) 
15.0

>  <Num_Resolved_Atoms>  (207) 
16.0

>  <Num_Not_Resolved_Atoms>  (207) 
0.0

>  <2D_Mol_H>  (207) 
<rdkit.Chem.rdchem.Mol object at 0x72a238df1d90>

>  <MW>  (207) 
219.272

>  <HBA>  (207) 
4

>  <HBD>  (207) 
2

>  <LogP>  (207) 
-0.4364

>  <NRB>  (207) 
2

>  <TPSA>  (207) 
85.34

>  <Num_Heavy_Atoms>  (207) 
16

>  <Ro5>  (207) 
[True, True, True, True, True, True]

>  <Ro5_Fulfilled>  (207) 
True

>  <Ro3>  (207) 
[True, False, True, True]

>  <Ro3_Fulfilled>  (207) 
True

>  <Fsp3>  (207) 
0.5

>  <Fsp3_0.42>  (207) 
True

>  <Fsp3_0.45>  (207) 
True

>  <Stereogenic_Carbons>  (207) 
0

>  <C_Atoms>  (207) 
10

>  <FCStereo>  (207) 
0.0

>  <SPS>  (207) 
291

>  <nSPS>  (207) 
18.1875

>  <PBF>  (207) 
0.749894

>  <PBF_0.6>  (207) 
True

>  <nPBF>  (207) 
0.046868

>  <nPBF_0.016>  (207) 
True

>  <PMI1>  (207) 
505.750181

>  <PMI2>  (207) 
1298.588444

>  <PMI3>  (207) 
1585.343617

>  <NPR1>  (207) 
0.319016

>  <NPR2>  (207) 
0.819121

>  <Sum_NPR>  (207) 
1.138137

>  <Sum_NPR_1.07>  (207) 
True

>  <Sum_NPR_1.2>  (207) 
False

>  <MaxAbsEStateIndex>  (207) 
4.339722

>  <MaxEStateIndex>  (207) 
4.339722

>  <MinAbsEStateIndex>  (207) 
0.576631

>  <MinEStateIndex>  (207) 
0.576631

>  <qed>  (207) 
0.68081

>  <MolWt>  (207) 
219.272

>  <HeavyAtomMolWt>  (207) 
204.152

>  <ExactMolWt>  (207) 
219.135271

>  <NumValenceElectrons>  (207) 
84

>  <NumRadicalElectrons>  (207) 
0

>  <MaxPartialCharge>  (207) 
0.16229

>  <MinPartialCharge>  (207) 
-0.355017

>  <MaxAbsPartialCharge>  (207) 
0.355017

>  <MinAbsPartialCharge>  (207) 
0.16229

>  <FpDensityMorgan1>  (207) 
1.25

>  <FpDensityMorgan2>  (207) 
2.0625

>  <FpDensityMorgan3>  (207) 
2.875

>  <BCUT2D_MWHI>  (207) 
15.216171

>  <BCUT2D_MWLOW>  (207) 
10.066453

>  <BCUT2D_CHGHI>  (207) 
2.211828

>  <BCUT2D_CHGLO>  (207) 
-2.288536

>  <BCUT2D_LOGPHI>  (207) 
2.21744

>  <BCUT2D_LOGPLOW>  (207) 
-2.639479

>  <BCUT2D_MRHI>  (207) 
5.821441

>  <BCUT2D_MRLOW>  (207) 
-0.422717

>  <AvgIpc>  (207) 
2.77681

>  <BalabanJ>  (207) 
1.959473

>  <BertzCT>  (207) 
484.769841

>  <Chi0>  (207) 
10.957819

>  <Chi0n>  (207) 
9.056439

>  <Chi0v>  (207) 
9.056439

>  <Chi1>  (207) 
7.843337

>  <Chi1n>  (207) 
5.564899

>  <Chi1v>  (207) 
5.564899

>  <Chi2n>  (207) 
4.22745

>  <Chi2v>  (207) 
4.22745

>  <Chi3n>  (207) 
3.111944

>  <Chi3v>  (207) 
3.111944

>  <Chi4n>  (207) 
2.128131

>  <Chi4v>  (207) 
2.128131

>  <HallKierAlpha>  (207) 
-1.69

>  <Ipc>  (207) 
10107.589038

>  <Kappa1>  (207) 
9.529889

>  <Kappa2>  (207) 
3.712014

>  <Kappa3>  (207) 
1.508375

>  <LabuteASA>  (207) 
92.899776

>  <PEOE_VSA1>  (207) 
15.617556

>  <PEOE_VSA10>  (207) 
11.844021

>  <PEOE_VSA11>  (207) 
11.46504

>  <PEOE_VSA12>  (207) 
0.0

>  <PEOE_VSA13>  (207) 
0.0

>  <PEOE_VSA14>  (207) 
0.0

>  <PEOE_VSA2>  (207) 
0.0

>  <PEOE_VSA3>  (207) 
14.951936

>  <PEOE_VSA4>  (207) 
0.0

>  <PEOE_VSA5>  (207) 
0.0

>  <PEOE_VSA6>  (207) 
0.0

>  <PEOE_VSA7>  (207) 
0.0

>  <PEOE_VSA8>  (207) 
25.931156

>  <PEOE_VSA9>  (207) 
12.369161

>  <SMR_VSA1>  (207) 
5.733667

>  <SMR_VSA10>  (207) 
16.981741

>  <SMR_VSA2>  (207) 
0.0

>  <SMR_VSA3>  (207) 
19.935914

>  <SMR_VSA4>  (207) 
0.0

>  <SMR_VSA5>  (207) 
18.883484

>  <SMR_VSA6>  (207) 
17.989423

>  <SMR_VSA7>  (207) 
12.65464

>  <SMR_VSA8>  (207) 
0.0

>  <SMR_VSA9>  (207) 
0.0

>  <SlogP_VSA1>  (207) 
10.633577

>  <SlogP_VSA10>  (207) 
5.817863

>  <SlogP_VSA11>  (207) 
0.0

>  <SlogP_VSA12>  (207) 
0.0

>  <SlogP_VSA2>  (207) 
39.067268

>  <SlogP_VSA3>  (207) 
0.0

>  <SlogP_VSA4>  (207) 
0.0

>  <SlogP_VSA5>  (207) 
12.841643

>  <SlogP_VSA6>  (207) 
12.65464

>  <SlogP_VSA7>  (207) 
0.0

>  <SlogP_VSA8>  (207) 
11.163878

>  <SlogP_VSA9>  (207) 
0.0

>  <EState_VSA1>  (207) 
0.0

>  <EState_VSA10>  (207) 
0.0

>  <EState_VSA11>  (207) 
0.0

>  <EState_VSA2>  (207) 
0.0

>  <EState_VSA3>  (207) 
6.041841

>  <EState_VSA4>  (207) 
42.912897

>  <EState_VSA5>  (207) 
0.0

>  <EState_VSA6>  (207) 
12.65464

>  <EState_VSA7>  (207) 
0.0

>  <EState_VSA8>  (207) 
30.569491

>  <EState_VSA9>  (207) 
0.0

>  <VSA_EState1>  (207) 
0.0

>  <VSA_EState10>  (207) 
0.0

>  <VSA_EState2>  (207) 
18.035171

>  <VSA_EState3>  (207) 
0.0

>  <VSA_EState4>  (207) 
5.76965

>  <VSA_EState5>  (207) 
0.942731

>  <VSA_EState6>  (207) 
0.576631

>  <VSA_EState7>  (207) 
5.494983

>  <VSA_EState8>  (207) 
2.014167

>  <VSA_EState9>  (207) 
0.0

>  <FractionCSP3>  (207) 
0.5

>  <HeavyAtomCount>  (207) 
16

>  <NHOHCount>  (207) 
4

>  <NOCount>  (207) 
6

>  <NumAliphaticCarbocycles>  (207) 
0

>  <NumAliphaticHeterocycles>  (207) 
1

>  <NumAliphaticRings>  (207) 
1

>  <NumAromaticCarbocycles>  (207) 
0

>  <NumAromaticHeterocycles>  (207) 
2

>  <NAR>  (207) 
2

>  <NumHAcceptors>  (207) 
4

>  <NumHDonors>  (207) 
2

>  <NumHeteroatoms>  (207) 
6

>  <NumRotatableBonds>  (207) 
1

>  <NumSaturatedCarbocycles>  (207) 
0

>  <NumSaturatedHeterocycles>  (207) 
1

>  <NumSaturatedRings>  (207) 
1

>  <RingCount>  (207) 
3

>  <MolLogP>  (207) 
-0.4364

>  <MolMR>  (207) 
59.8068

>  <fr_Al_COO>  (207) 
0

>  <fr_Al_OH>  (207) 
0

>  <fr_Al_OH_noTert>  (207) 
0

>  <fr_ArN>  (207) 
0

>  <fr_Ar_COO>  (207) 
0

>  <fr_Ar_N>  (207) 
4

>  <fr_Ar_NH>  (207) 
1

>  <fr_Ar_OH>  (207) 
0

>  <fr_COO>  (207) 
0

>  <fr_COO2>  (207) 
0

>  <fr_C_O>  (207) 
0

>  <fr_C_O_noCOO>  (207) 
0

>  <fr_C_S>  (207) 
0

>  <fr_HOCCN>  (207) 
0

>  <fr_Imine>  (207) 
0

>  <fr_NH0>  (207) 
4

>  <fr_NH1>  (207) 
1

>  <fr_NH2>  (207) 
0

>  <fr_N_O>  (207) 
0

>  <fr_Ndealkylation1>  (207) 
0

>  <fr_Ndealkylation2>  (207) 
0

>  <fr_Nhpyrrole>  (207) 
1

>  <fr_SH>  (207) 
0

>  <fr_aldehyde>  (207) 
0

>  <fr_alkyl_carbamate>  (207) 
0

>  <fr_alkyl_halide>  (207) 
0

>  <fr_allylic_oxid>  (207) 
0

>  <fr_amide>  (207) 
0

>  <fr_amidine>  (207) 
0

>  <fr_aniline>  (207) 
1

>  <fr_aryl_methyl>  (207) 
0

>  <fr_azide>  (207) 
0

>  <fr_azo>  (207) 
0

>  <fr_barbitur>  (207) 
0

>  <fr_benzene>  (207) 
0

>  <fr_benzodiazepine>  (207) 
0

>  <fr_bicyclic>  (207) 
1

>  <fr_diazo>  (207) 
0

>  <fr_dihydropyridine>  (207) 
0

>  <fr_epoxide>  (207) 
0

>  <fr_ester>  (207) 
0

>  <fr_ether>  (207) 
0

>  <fr_furan>  (207) 
0

>  <fr_guanido>  (207) 
0

>  <fr_halogen>  (207) 
0

>  <fr_hdrzine>  (207) 
0

>  <fr_hdrzone>  (207) 
0

>  <fr_imidazole>  (207) 
1

>  <fr_imide>  (207) 
0

>  <fr_isocyan>  (207) 
0

>  <fr_isothiocyan>  (207) 
0

>  <fr_ketone>  (207) 
0

>  <fr_ketone_Topliss>  (207) 
0

>  <fr_lactam>  (207) 
0

>  <fr_lactone>  (207) 
0

>  <fr_methoxy>  (207) 
0

>  <fr_morpholine>  (207) 
0

>  <fr_nitrile>  (207) 
0

>  <fr_nitro>  (207) 
0

>  <fr_nitro_arom>  (207) 
0

>  <fr_nitro_arom_nonortho>  (207) 
0

>  <fr_nitroso>  (207) 
0

>  <fr_oxazole>  (207) 
0

>  <fr_oxime>  (207) 
0

>  <fr_para_hydroxylation>  (207) 
0

>  <fr_phenol>  (207) 
0

>  <fr_phenol_noOrthoHbond>  (207) 
0

>  <fr_phos_acid>  (207) 
0

>  <fr_phos_ester>  (207) 
0

>  <fr_piperdine>  (207) 
1

>  <fr_piperzine>  (207) 
0

>  <fr_priamide>  (207) 
0

>  <fr_prisulfonamd>  (207) 
0

>  <fr_pyridine>  (207) 
0

>  <fr_quatN>  (207) 
1

>  <fr_sulfide>  (207) 
0

>  <fr_sulfonamd>  (207) 
0

>  <fr_sulfone>  (207) 
0

>  <fr_term_acetylene>  (207) 
0

>  <fr_tetrazole>  (207) 
0

>  <fr_thiazole>  (207) 
0

>  <fr_thiocyan>  (207) 
0

>  <fr_thiophene>  (207) 
0

>  <fr_unbrch_alkane>  (207) 
0

>  <fr_urea>  (207) 
0

>  <NP-Likeness>  (207) 
-1.063274

$$$$
M03
     RDKit          3D

  0  0  0  0  0  0  0  0  0  0999 V3000
M  V30 BEGIN CTAB
M  V30 COUNTS 45 48 0 0 0
M  V30 BEGIN ATOM
M  V30 1 C 0.195370 -3.173033 4.655541 0
M  V30 2 N -0.538963 -4.302182 4.449749 0
M  V30 3 C -1.041117 -4.561894 3.205903 0
M  V30 4 C -0.835437 -3.719949 2.131901 0
M  V30 5 C -0.086873 -2.589273 2.385508 0
M  V30 6 N 0.146307 -1.695845 1.299367 0
M  V30 7 C -0.714641 -0.919657 0.420503 0
M  V30 8 C -0.503762 0.523365 0.827736 0
M  V30 9 C 0.856806 0.926479 0.310495 0
M  V30 10 C 0.647365 1.827578 -0.843224 0
M  V30 11 C 0.624053 3.201970 -0.823081 0
M  V30 12 C 0.420038 4.022020 -1.903531 0
M  V30 13 C 0.216387 3.477984 -3.135770 0
M  V30 14 Cl -0.045485 4.505067 -4.525888 0
M  V30 15 C 0.222952 2.119614 -3.250941 0
M  V30 16 C 0.432547 1.343263 -2.132703 0
M  V30 17 C 1.543389 1.734679 1.395039 0
M  V30 18 N 1.774892 1.045738 2.618463 0 CHG=1 VAL=4
M  V30 19 C 1.665737 -0.300585 -0.037797 0
M  V30 20 C 1.515760 -1.434433 0.902347 0
M  V30 21 N 0.423957 -2.311590 3.621811 0
M  V30 22 C -1.479228 -4.302829 1.075222 0
M  V30 23 C -2.042431 -5.466434 1.558026 0
M  V30 24 N -1.779943 -5.630583 2.853829 0
M  V30 25 H 0.631187 -2.885996 5.602388 0
M  V30 26 H -0.464700 -1.083343 -0.645580 0
M  V30 27 H -1.792998 -1.152597 0.620732 0
M  V30 28 H -0.590521 0.618906 1.926584 0
M  V30 29 H -1.309452 1.173369 0.405206 0
M  V30 30 H 0.778316 3.734194 0.099525 0
M  V30 31 H 0.412764 5.102597 -1.823388 0
M  V30 32 H 0.058858 1.716141 -4.240308 0
M  V30 33 H 0.410453 0.288661 -2.361560 0
M  V30 34 H 0.829709 2.586975 1.632524 0
M  V30 35 H 2.464666 2.207282 1.027057 0
M  V30 36 H 2.777181 0.716090 2.639677 0
M  V30 37 H 1.111554 0.337942 2.917064 0
M  V30 38 H 1.760806 1.779717 3.393249 0
M  V30 39 H 1.567507 -0.643543 -1.069119 0
M  V30 40 H 2.742174 0.038940 0.056527 0
M  V30 41 H 2.228404 -1.439322 1.768670 0
M  V30 42 H 1.818781 -2.366645 0.335323 0
M  V30 43 H -1.496347 -3.868183 0.078099 0
M  V30 44 H -2.611027 -6.107772 0.897170 0
M  V30 45 H -2.116160 -6.445888 3.401799 0
M  V30 END ATOM
M  V30 BEGIN BOND
M  V30 1 2 1 2
M  V30 2 1 2 3
M  V30 3 2 3 4
M  V30 4 1 4 5
M  V30 5 1 5 6
M  V30 6 1 6 7
M  V30 7 1 7 8
M  V30 8 1 8 9
M  V30 9 1 9 10
M  V30 10 2 10 11
M  V30 11 1 11 12
M  V30 12 2 12 13
M  V30 13 1 13 14
M  V30 14 1 13 15
M  V30 15 2 15 16
M  V30 16 1 9 17
M  V30 17 1 17 18
M  V30 18 1 9 19
M  V30 19 1 19 20
M  V30 20 2 5 21
M  V30 21 1 4 22
M  V30 22 2 22 23
M  V30 23 1 23 24
M  V30 24 1 21 1
M  V30 25 1 24 3
M  V30 26 1 20 6
M  V30 27 1 16 10
M  V30 28 1 1 25
M  V30 29 1 7 26
M  V30 30 1 7 27
M  V30 31 1 8 28
M  V30 32 1 8 29
M  V30 33 1 11 30
M  V30 34 1 12 31
M  V30 35 1 15 32
M  V30 36 1 16 33
M  V30 37 1 17 34
M  V30 38 1 17 35
M  V30 39 1 18 36
M  V30 40 1 18 37
M  V30 41 1 18 38
M  V30 42 1 19 39
M  V30 43 1 19 40
M  V30 44 1 20 41
M  V30 45 1 20 42
M  V30 46 1 22 43
M  V30 47 1 23 44
M  V30 48 1 24 45
M  V30 END BOND
M  V30 END CTAB
M  END
>  <Dataset>  (208) 
PDB

>  <Ligand_Instance>  (208) 
2VO0_M03_A_1354

>  <PDB_ID>  (208) 
2VO0

>  <Standardized_SMILES>  (208) 
[H]C1=NC2=C(C(N3C([H])([H])C([H])([H])C(C4=C([H])C([H])=C(Cl)C([H])=C4[H])(C([H])([H])[N+]([H])([H])[H])C([H])([H])C3([H])[H])=N1)C([H])=C([H])N2[H]

>  <Name>  (208) 
1-[4-(4-chlorophenyl)-1-(7H-pyrrolo[2,3-d]pyrimidin-4-yl)piperidin-4-yl]methanamine

>  <Pocket>  (208) 
A

>  <ATP_Site>  (208) 
1.0

>  <Peripheral>  (208) 
1.0

>  <Num_H_Atoms_ProtBoundConf>  (208) 
21.0

>  <Num_Resolved_Atoms>  (208) 
24.0

>  <Num_Not_Resolved_Atoms>  (208) 
0.0

>  <2D_Mol_H>  (208) 
<rdkit.Chem.rdchem.Mol object at 0x72a238df1e70>

>  <MW>  (208) 
342.854

>  <HBA>  (208) 
3

>  <HBD>  (208) 
2

>  <LogP>  (208) 
2.3914

>  <NRB>  (208) 
4

>  <TPSA>  (208) 
72.45

>  <Num_Heavy_Atoms>  (208) 
24

>  <Ro5>  (208) 
[True, True, True, True, True, True]

>  <Ro5_Fulfilled>  (208) 
True

>  <Ro3>  (208) 
[False, True, True, True]

>  <Ro3_Fulfilled>  (208) 
True

>  <Fsp3>  (208) 
0.333333

>  <Fsp3_0.42>  (208) 
False

>  <Fsp3_0.45>  (208) 
False

>  <Stereogenic_Carbons>  (208) 
0

>  <C_Atoms>  (208) 
18

>  <FCStereo>  (208) 
0.0

>  <SPS>  (208) 
416

>  <nSPS>  (208) 
17.333333

>  <PBF>  (208) 
0.688765

>  <PBF_0.6>  (208) 
True

>  <nPBF>  (208) 
0.028699

>  <nPBF_0.016>  (208) 
True

>  <PMI1>  (208) 
854.342287

>  <PMI2>  (208) 
5617.528166

>  <PMI3>  (208) 
6228.154179

>  <NPR1>  (208) 
0.137174

>  <NPR2>  (208) 
0.901957

>  <Sum_NPR>  (208) 
1.039131

>  <Sum_NPR_1.07>  (208) 
False

>  <Sum_NPR_1.2>  (208) 
False

>  <MaxAbsEStateIndex>  (208) 
6.04611

>  <MaxEStateIndex>  (208) 
6.04611

>  <MinAbsEStateIndex>  (208) 
0.130338

>  <MinEStateIndex>  (208) 
0.130338

>  <qed>  (208) 
0.767279

>  <MolWt>  (208) 
342.854

>  <HeavyAtomMolWt>  (208) 
321.686

>  <ExactMolWt>  (208) 
342.148

>  <NumValenceElectrons>  (208) 
124

>  <NumRadicalElectrons>  (208) 
0

>  <MaxPartialCharge>  (208) 
0.142343

>  <MinPartialCharge>  (208) 
-0.35682

>  <MaxAbsPartialCharge>  (208) 
0.35682

>  <MinAbsPartialCharge>  (208) 
0.142343

>  <FpDensityMorgan1>  (208) 
1.125

>  <FpDensityMorgan2>  (208) 
1.875

>  <FpDensityMorgan3>  (208) 
2.583333

>  <BCUT2D_MWHI>  (208) 
35.495692

>  <BCUT2D_MWLOW>  (208) 
9.725952

>  <BCUT2D_CHGHI>  (208) 
2.371464

>  <BCUT2D_CHGLO>  (208) 
-2.404586

>  <BCUT2D_LOGPHI>  (208) 
2.365221

>  <BCUT2D_LOGPLOW>  (208) 
-2.621928

>  <BCUT2D_MRHI>  (208) 
6.300949

>  <BCUT2D_MRLOW>  (208) 
-0.384038

>  <AvgIpc>  (208) 
3.111248

>  <BalabanJ>  (208) 
1.591282

>  <BertzCT>  (208) 
833.996222

>  <Chi0>  (208) 
16.570703

>  <Chi0n>  (208) 
13.503698

>  <Chi0v>  (208) 
14.259627

>  <Chi1>  (208) 
11.716275

>  <Chi1n>  (208) 
8.301367

>  <Chi1v>  (208) 
8.679331

>  <Chi2n>  (208) 
6.4615

>  <Chi2v>  (208) 
6.897936

>  <Chi3n>  (208) 
5.28816

>  <Chi3v>  (208) 
5.540136

>  <Chi4n>  (208) 
3.743704

>  <Chi4v>  (208) 
3.869692

>  <HallKierAlpha>  (208) 
-2.11

>  <Ipc>  (208) 
620905.451854

>  <Kappa1>  (208) 
15.419591

>  <Kappa2>  (208) 
6.072824

>  <Kappa3>  (208) 
2.537182

>  <LabuteASA>  (208) 
145.40543

>  <PEOE_VSA1>  (208) 
15.617556

>  <PEOE_VSA10>  (208) 
17.79236

>  <PEOE_VSA11>  (208) 
0.0

>  <PEOE_VSA12>  (208) 
0.0

>  <PEOE_VSA13>  (208) 
0.0

>  <PEOE_VSA14>  (208) 
0.0

>  <PEOE_VSA2>  (208) 
0.0

>  <PEOE_VSA3>  (208) 
9.967957

>  <PEOE_VSA4>  (208) 
0.0

>  <PEOE_VSA5>  (208) 
0.0

>  <PEOE_VSA6>  (208) 
23.733674

>  <PEOE_VSA7>  (208) 
36.604196

>  <PEOE_VSA8>  (208) 
29.72398

>  <PEOE_VSA9>  (208) 
11.930981

>  <SMR_VSA1>  (208) 
5.733667

>  <SMR_VSA10>  (208) 
28.452204

>  <SMR_VSA2>  (208) 
0.0

>  <SMR_VSA3>  (208) 
14.951936

>  <SMR_VSA4>  (208) 
0.0

>  <SMR_VSA5>  (208) 
18.256634

>  <SMR_VSA6>  (208) 
24.534179

>  <SMR_VSA7>  (208) 
53.442084

>  <SMR_VSA8>  (208) 
0.0

>  <SMR_VSA9>  (208) 
0.0

>  <SlogP_VSA1>  (208) 
10.633577

>  <SlogP_VSA10>  (208) 
5.817863

>  <SlogP_VSA11>  (208) 
0.0

>  <SlogP_VSA12>  (208) 
11.60094

>  <SlogP_VSA2>  (208) 
34.586205

>  <SlogP_VSA3>  (208) 
5.41499

>  <SlogP_VSA4>  (208) 
0.0

>  <SlogP_VSA5>  (208) 
18.405095

>  <SlogP_VSA6>  (208) 
42.855999

>  <SlogP_VSA7>  (208) 
5.022633

>  <SlogP_VSA8>  (208) 
11.033401

>  <SlogP_VSA9>  (208) 
0.0

>  <EState_VSA1>  (208) 
0.0

>  <EState_VSA10>  (208) 
0.0

>  <EState_VSA11>  (208) 
0.0

>  <EState_VSA2>  (208) 
5.41499

>  <EState_VSA3>  (208) 
0.0

>  <EState_VSA4>  (208) 
54.34981

>  <EState_VSA5>  (208) 
5.563451

>  <EState_VSA6>  (208) 
6.32732

>  <EState_VSA7>  (208) 
24.395945

>  <EState_VSA8>  (208) 
37.718247

>  <EState_VSA9>  (208) 
11.60094

>  <VSA_EState1>  (208) 
0.0

>  <VSA_EState10>  (208) 
6.04611

>  <VSA_EState2>  (208) 
14.324011

>  <VSA_EState3>  (208) 
1.872546

>  <VSA_EState4>  (208) 
6.60663

>  <VSA_EState5>  (208) 
1.023165

>  <VSA_EState6>  (208) 
10.31191

>  <VSA_EState7>  (208) 
5.68002

>  <VSA_EState8>  (208) 
2.830051

>  <VSA_EState9>  (208) 
0.0

>  <FractionCSP3>  (208) 
0.333333

>  <HeavyAtomCount>  (208) 
24

>  <NHOHCount>  (208) 
4

>  <NOCount>  (208) 
5

>  <NumAliphaticCarbocycles>  (208) 
0

>  <NumAliphaticHeterocycles>  (208) 
1

>  <NumAliphaticRings>  (208) 
1

>  <NumAromaticCarbocycles>  (208) 
1

>  <NumAromaticHeterocycles>  (208) 
2

>  <NAR>  (208) 
3

>  <NumHAcceptors>  (208) 
3

>  <NumHDonors>  (208) 
2

>  <NumHeteroatoms>  (208) 
6

>  <NumRotatableBonds>  (208) 
3

>  <NumSaturatedCarbocycles>  (208) 
0

>  <NumSaturatedHeterocycles>  (208) 
1

>  <NumSaturatedRings>  (208) 
1

>  <RingCount>  (208) 
4

>  <MolLogP>  (208) 
2.3914

>  <MolMR>  (208) 
96.2208

>  <fr_Al_COO>  (208) 
0

>  <fr_Al_OH>  (208) 
0

>  <fr_Al_OH_noTert>  (208) 
0

>  <fr_ArN>  (208) 
0

>  <fr_Ar_COO>  (208) 
0

>  <fr_Ar_N>  (208) 
3

>  <fr_Ar_NH>  (208) 
1

>  <fr_Ar_OH>  (208) 
0

>  <fr_COO>  (208) 
0

>  <fr_COO2>  (208) 
0

>  <fr_C_O>  (208) 
0

>  <fr_C_O_noCOO>  (208) 
0

>  <fr_C_S>  (208) 
0

>  <fr_HOCCN>  (208) 
0

>  <fr_Imine>  (208) 
0

>  <fr_NH0>  (208) 
3

>  <fr_NH1>  (208) 
1

>  <fr_NH2>  (208) 
0

>  <fr_N_O>  (208) 
0

>  <fr_Ndealkylation1>  (208) 
0

>  <fr_Ndealkylation2>  (208) 
0

>  <fr_Nhpyrrole>  (208) 
1

>  <fr_SH>  (208) 
0

>  <fr_aldehyde>  (208) 
0

>  <fr_alkyl_carbamate>  (208) 
0

>  <fr_alkyl_halide>  (208) 
0

>  <fr_allylic_oxid>  (208) 
0

>  <fr_amide>  (208) 
0

>  <fr_amidine>  (208) 
0

>  <fr_aniline>  (208) 
1

>  <fr_aryl_methyl>  (208) 
0

>  <fr_azide>  (208) 
0

>  <fr_azo>  (208) 
0

>  <fr_barbitur>  (208) 
0

>  <fr_benzene>  (208) 
1

>  <fr_benzodiazepine>  (208) 
0

>  <fr_bicyclic>  (208) 
1

>  <fr_diazo>  (208) 
0

>  <fr_dihydropyridine>  (208) 
0

>  <fr_epoxide>  (208) 
0

>  <fr_ester>  (208) 
0

>  <fr_ether>  (208) 
0

>  <fr_furan>  (208) 
0

>  <fr_guanido>  (208) 
0

>  <fr_halogen>  (208) 
1

>  <fr_hdrzine>  (208) 
0

>  <fr_hdrzone>  (208) 
0

>  <fr_imidazole>  (208) 
0

>  <fr_imide>  (208) 
0

>  <fr_isocyan>  (208) 
0

>  <fr_isothiocyan>  (208) 
0

>  <fr_ketone>  (208) 
0

>  <fr_ketone_Topliss>  (208) 
0

>  <fr_lactam>  (208) 
0

>  <fr_lactone>  (208) 
0

>  <fr_methoxy>  (208) 
0

>  <fr_morpholine>  (208) 
0

>  <fr_nitrile>  (208) 
0

>  <fr_nitro>  (208) 
0

>  <fr_nitro_arom>  (208) 
0

>  <fr_nitro_arom_nonortho>  (208) 
0

>  <fr_nitroso>  (208) 
0

>  <fr_oxazole>  (208) 
0

>  <fr_oxime>  (208) 
0

>  <fr_para_hydroxylation>  (208) 
0

>  <fr_phenol>  (208) 
0

>  <fr_phenol_noOrthoHbond>  (208) 
0

>  <fr_phos_acid>  (208) 
0

>  <fr_phos_ester>  (208) 
0

>  <fr_piperdine>  (208) 
1

>  <fr_piperzine>  (208) 
0

>  <fr_priamide>  (208) 
0

>  <fr_prisulfonamd>  (208) 
0

>  <fr_pyridine>  (208) 
0

>  <fr_quatN>  (208) 
1

>  <fr_sulfide>  (208) 
0

>  <fr_sulfonamd>  (208) 
0

>  <fr_sulfone>  (208) 
0

>  <fr_term_acetylene>  (208) 
0

>  <fr_tetrazole>  (208) 
0

>  <fr_thiazole>  (208) 
0

>  <fr_thiocyan>  (208) 
0

>  <fr_thiophene>  (208) 
0

>  <fr_unbrch_alkane>  (208) 
0

>  <fr_urea>  (208) 
0

>  <NP-Likeness>  (208) 
-0.918072

$$$$
M03
     RDKit          3D

  0  0  0  0  0  0  0  0  0  0999 V3000
M  V30 BEGIN CTAB
M  V30 COUNTS 45 48 0 0 0
M  V30 BEGIN ATOM
M  V30 1 C 0.195370 -3.173033 4.655541 0
M  V30 2 N -0.538963 -4.302182 4.449749 0
M  V30 3 C -1.041117 -4.561894 3.205903 0
M  V30 4 C -0.835437 -3.719949 2.131901 0
M  V30 5 C -0.086873 -2.589273 2.385508 0
M  V30 6 N 0.146307 -1.695845 1.299367 0
M  V30 7 C -0.714641 -0.919657 0.420503 0
M  V30 8 C -0.503762 0.523365 0.827736 0
M  V30 9 C 0.856806 0.926479 0.310495 0
M  V30 10 C 0.647365 1.827578 -0.843224 0
M  V30 11 C 0.624053 3.201970 -0.823081 0
M  V30 12 C 0.420038 4.022020 -1.903531 0
M  V30 13 C 0.216387 3.477984 -3.135770 0
M  V30 14 Cl -0.045485 4.505067 -4.525888 0
M  V30 15 C 0.222952 2.119614 -3.250941 0
M  V30 16 C 0.432547 1.343263 -2.132703 0
M  V30 17 C 1.543389 1.734679 1.395039 0
M  V30 18 N 1.774892 1.045738 2.618463 0 CHG=1 VAL=4
M  V30 19 C 1.665737 -0.300585 -0.037797 0
M  V30 20 C 1.515760 -1.434433 0.902347 0
M  V30 21 N 0.423957 -2.311590 3.621811 0
M  V30 22 C -1.479228 -4.302829 1.075222 0
M  V30 23 C -2.042431 -5.466434 1.558026 0
M  V30 24 N -1.779943 -5.630583 2.853829 0
M  V30 25 H 0.631187 -2.885996 5.602388 0
M  V30 26 H -0.464700 -1.083343 -0.645580 0
M  V30 27 H -1.792998 -1.152597 0.620732 0
M  V30 28 H -0.590521 0.618906 1.926584 0
M  V30 29 H -1.309452 1.173369 0.405206 0
M  V30 30 H 0.778316 3.734194 0.099525 0
M  V30 31 H 0.412764 5.102597 -1.823388 0
M  V30 32 H 0.058858 1.716141 -4.240308 0
M  V30 33 H 0.410453 0.288661 -2.361560 0
M  V30 34 H 0.829709 2.586975 1.632524 0
M  V30 35 H 2.464666 2.207282 1.027057 0
M  V30 36 H 2.777181 0.716090 2.639677 0
M  V30 37 H 1.111554 0.337942 2.917064 0
M  V30 38 H 1.760806 1.779717 3.393249 0
M  V30 39 H 1.567507 -0.643543 -1.069119 0
M  V30 40 H 2.742174 0.038940 0.056527 0
M  V30 41 H 2.228404 -1.439322 1.768670 0
M  V30 42 H 1.818781 -2.366645 0.335323 0
M  V30 43 H -1.496347 -3.868183 0.078099 0
M  V30 44 H -2.611027 -6.107772 0.897170 0
M  V30 45 H -2.116160 -6.445888 3.401799 0
M  V30 END ATOM
M  V30 BEGIN BOND
M  V30 1 2 1 2
M  V30 2 1 2 3
M  V30 3 2 3 4
M  V30 4 1 4 5
M  V30 5 1 5 6
M  V30 6 1 6 7
M  V30 7 1 7 8
M  V30 8 1 8 9
M  V30 9 1 9 10
M  V30 10 2 10 11
M  V30 11 1 11 12
M  V30 12 2 12 13
M  V30 13 1 13 14
M  V30 14 1 13 15
M  V30 15 2 15 16
M  V30 16 1 9 17
M  V30 17 1 17 18
M  V30 18 1 9 19
M  V30 19 1 19 20
M  V30 20 2 5 21
M  V30 21 1 4 22
M  V30 22 2 22 23
M  V30 23 1 23 24
M  V30 24 1 21 1
M  V30 25 1 24 3
M  V30 26 1 20 6
M  V30 27 1 16 10
M  V30 28 1 1 25
M  V30 29 1 7 26
M  V30 30 1 7 27
M  V30 31 1 8 28
M  V30 32 1 8 29
M  V30 33 1 11 30
M  V30 34 1 12 31
M  V30 35 1 15 32
M  V30 36 1 16 33
M  V30 37 1 17 34
M  V30 38 1 17 35
M  V30 39 1 18 36
M  V30 40 1 18 37
M  V30 41 1 18 38
M  V30 42 1 19 39
M  V30 43 1 19 40
M  V30 44 1 20 41
M  V30 45 1 20 42
M  V30 46 1 22 43
M  V30 47 1 23 44
M  V30 48 1 24 45
M  V30 END BOND
M  V30 END CTAB
M  END
>  <Dataset>  (209) 
PDB

>  <Ligand_Instance>  (209) 
2VO0_M03_A_1355

>  <PDB_ID>  (209) 
2VO0

>  <Standardized_SMILES>  (209) 
[H]C1=NC2=C(C(N3C([H])([H])C([H])([H])C(C4=C([H])C([H])=C(Cl)C([H])=C4[H])(C([H])([H])[N+]([H])([H])[H])C([H])([H])C3([H])[H])=N1)C([H])=C([H])N2[H]

>  <Name>  (209) 
1-[4-(4-chlorophenyl)-1-(7H-pyrrolo[2,3-d]pyrimidin-4-yl)piperidin-4-yl]methanamine

>  <Pocket>  (209) 
X

>  <ATP_Site>  (209) 
1.0

>  <Peripheral>  (209) 
1.0

>  <Num_H_Atoms_ProtBoundConf>  (209) 
21.0

>  <Num_Resolved_Atoms>  (209) 
24.0

>  <Num_Not_Resolved_Atoms>  (209) 
0.0

>  <2D_Mol_H>  (209) 
<rdkit.Chem.rdchem.Mol object at 0x72a238df1f50>

>  <MW>  (209) 
342.854

>  <HBA>  (209) 
3

>  <HBD>  (209) 
2

>  <LogP>  (209) 
2.3914

>  <NRB>  (209) 
4

>  <TPSA>  (209) 
72.45

>  <Num_Heavy_Atoms>  (209) 
24

>  <Ro5>  (209) 
[True, True, True, True, True, True]

>  <Ro5_Fulfilled>  (209) 
True

>  <Ro3>  (209) 
[False, True, True, True]

>  <Ro3_Fulfilled>  (209) 
True

>  <Fsp3>  (209) 
0.333333

>  <Fsp3_0.42>  (209) 
False

>  <Fsp3_0.45>  (209) 
False

>  <Stereogenic_Carbons>  (209) 
0

>  <C_Atoms>  (209) 
18

>  <FCStereo>  (209) 
0.0

>  <SPS>  (209) 
416

>  <nSPS>  (209) 
17.333333

>  <PBF>  (209) 
0.688765

>  <PBF_0.6>  (209) 
True

>  <nPBF>  (209) 
0.028699

>  <nPBF_0.016>  (209) 
True

>  <PMI1>  (209) 
854.342287

>  <PMI2>  (209) 
5617.528166

>  <PMI3>  (209) 
6228.154179

>  <NPR1>  (209) 
0.137174

>  <NPR2>  (209) 
0.901957

>  <Sum_NPR>  (209) 
1.039131

>  <Sum_NPR_1.07>  (209) 
False

>  <Sum_NPR_1.2>  (209) 
False

>  <MaxAbsEStateIndex>  (209) 
6.04611

>  <MaxEStateIndex>  (209) 
6.04611

>  <MinAbsEStateIndex>  (209) 
0.130338

>  <MinEStateIndex>  (209) 
0.130338

>  <qed>  (209) 
0.767279

>  <MolWt>  (209) 
342.854

>  <HeavyAtomMolWt>  (209) 
321.686

>  <ExactMolWt>  (209) 
342.148

>  <NumValenceElectrons>  (209) 
124

>  <NumRadicalElectrons>  (209) 
0

>  <MaxPartialCharge>  (209) 
0.142343

>  <MinPartialCharge>  (209) 
-0.35682

>  <MaxAbsPartialCharge>  (209) 
0.35682

>  <MinAbsPartialCharge>  (209) 
0.142343

>  <FpDensityMorgan1>  (209) 
1.125

>  <FpDensityMorgan2>  (209) 
1.875

>  <FpDensityMorgan3>  (209) 
2.583333

>  <BCUT2D_MWHI>  (209) 
35.495692

>  <BCUT2D_MWLOW>  (209) 
9.725952

>  <BCUT2D_CHGHI>  (209) 
2.371464

>  <BCUT2D_CHGLO>  (209) 
-2.404586

>  <BCUT2D_LOGPHI>  (209) 
2.365221

>  <BCUT2D_LOGPLOW>  (209) 
-2.621928

>  <BCUT2D_MRHI>  (209) 
6.300949

>  <BCUT2D_MRLOW>  (209) 
-0.384038

>  <AvgIpc>  (209) 
3.111248

>  <BalabanJ>  (209) 
1.591282

>  <BertzCT>  (209) 
833.996222

>  <Chi0>  (209) 
16.570703

>  <Chi0n>  (209) 
13.503698

>  <Chi0v>  (209) 
14.259627

>  <Chi1>  (209) 
11.716275

>  <Chi1n>  (209) 
8.301367

>  <Chi1v>  (209) 
8.679331

>  <Chi2n>  (209) 
6.4615

>  <Chi2v>  (209) 
6.897936

>  <Chi3n>  (209) 
5.28816

>  <Chi3v>  (209) 
5.540136

>  <Chi4n>  (209) 
3.743704

>  <Chi4v>  (209) 
3.869692

>  <HallKierAlpha>  (209) 
-2.11

>  <Ipc>  (209) 
620905.451854

>  <Kappa1>  (209) 
15.419591

>  <Kappa2>  (209) 
6.072824

>  <Kappa3>  (209) 
2.537182

>  <LabuteASA>  (209) 
145.40543

>  <PEOE_VSA1>  (209) 
15.617556

>  <PEOE_VSA10>  (209) 
17.79236

>  <PEOE_VSA11>  (209) 
0.0

>  <PEOE_VSA12>  (209) 
0.0

>  <PEOE_VSA13>  (209) 
0.0

>  <PEOE_VSA14>  (209) 
0.0

>  <PEOE_VSA2>  (209) 
0.0

>  <PEOE_VSA3>  (209) 
9.967957

>  <PEOE_VSA4>  (209) 
0.0

>  <PEOE_VSA5>  (209) 
0.0

>  <PEOE_VSA6>  (209) 
23.733674

>  <PEOE_VSA7>  (209) 
36.604196

>  <PEOE_VSA8>  (209) 
29.72398

>  <PEOE_VSA9>  (209) 
11.930981

>  <SMR_VSA1>  (209) 
5.733667

>  <SMR_VSA10>  (209) 
28.452204

>  <SMR_VSA2>  (209) 
0.0

>  <SMR_VSA3>  (209) 
14.951936

>  <SMR_VSA4>  (209) 
0.0

>  <SMR_VSA5>  (209) 
18.256634

>  <SMR_VSA6>  (209) 
24.534179

>  <SMR_VSA7>  (209) 
53.442084

>  <SMR_VSA8>  (209) 
0.0

>  <SMR_VSA9>  (209) 
0.0

>  <SlogP_VSA1>  (209) 
10.633577

>  <SlogP_VSA10>  (209) 
5.817863

>  <SlogP_VSA11>  (209) 
0.0

>  <SlogP_VSA12>  (209) 
11.60094

>  <SlogP_VSA2>  (209) 
34.586205

>  <SlogP_VSA3>  (209) 
5.41499

>  <SlogP_VSA4>  (209) 
0.0

>  <SlogP_VSA5>  (209) 
18.405095

>  <SlogP_VSA6>  (209) 
42.855999

>  <SlogP_VSA7>  (209) 
5.022633

>  <SlogP_VSA8>  (209) 
11.033401

>  <SlogP_VSA9>  (209) 
0.0

>  <EState_VSA1>  (209) 
0.0

>  <EState_VSA10>  (209) 
0.0

>  <EState_VSA11>  (209) 
0.0

>  <EState_VSA2>  (209) 
5.41499

>  <EState_VSA3>  (209) 
0.0

>  <EState_VSA4>  (209) 
54.34981

>  <EState_VSA5>  (209) 
5.563451

>  <EState_VSA6>  (209) 
6.32732

>  <EState_VSA7>  (209) 
24.395945

>  <EState_VSA8>  (209) 
37.718247

>  <EState_VSA9>  (209) 
11.60094

>  <VSA_EState1>  (209) 
0.0

>  <VSA_EState10>  (209) 
6.04611

>  <VSA_EState2>  (209) 
14.324011

>  <VSA_EState3>  (209) 
1.872546

>  <VSA_EState4>  (209) 
6.60663

>  <VSA_EState5>  (209) 
1.023165

>  <VSA_EState6>  (209) 
10.31191

>  <VSA_EState7>  (209) 
5.68002

>  <VSA_EState8>  (209) 
2.830051

>  <VSA_EState9>  (209) 
0.0

>  <FractionCSP3>  (209) 
0.333333

>  <HeavyAtomCount>  (209) 
24

>  <NHOHCount>  (209) 
4

>  <NOCount>  (209) 
5

>  <NumAliphaticCarbocycles>  (209) 
0

>  <NumAliphaticHeterocycles>  (209) 
1

>  <NumAliphaticRings>  (209) 
1

>  <NumAromaticCarbocycles>  (209) 
1

>  <NumAromaticHeterocycles>  (209) 
2

>  <NAR>  (209) 
3

>  <NumHAcceptors>  (209) 
3

>  <NumHDonors>  (209) 
2

>  <NumHeteroatoms>  (209) 
6

>  <NumRotatableBonds>  (209) 
3

>  <NumSaturatedCarbocycles>  (209) 
0

>  <NumSaturatedHeterocycles>  (209) 
1

>  <NumSaturatedRings>  (209) 
1

>  <RingCount>  (209) 
4

>  <MolLogP>  (209) 
2.3914

>  <MolMR>  (209) 
96.2208

>  <fr_Al_COO>  (209) 
0

>  <fr_Al_OH>  (209) 
0

>  <fr_Al_OH_noTert>  (209) 
0

>  <fr_ArN>  (209) 
0

>  <fr_Ar_COO>  (209) 
0

>  <fr_Ar_N>  (209) 
3

>  <fr_Ar_NH>  (209) 
1

>  <fr_Ar_OH>  (209) 
0

>  <fr_COO>  (209) 
0

>  <fr_COO2>  (209) 
0

>  <fr_C_O>  (209) 
0

>  <fr_C_O_noCOO>  (209) 
0

>  <fr_C_S>  (209) 
0

>  <fr_HOCCN>  (209) 
0

>  <fr_Imine>  (209) 
0

>  <fr_NH0>  (209) 
3

>  <fr_NH1>  (209) 
1

>  <fr_NH2>  (209) 
0

>  <fr_N_O>  (209) 
0

>  <fr_Ndealkylation1>  (209) 
0

>  <fr_Ndealkylation2>  (209) 
0

>  <fr_Nhpyrrole>  (209) 
1

>  <fr_SH>  (209) 
0

>  <fr_aldehyde>  (209) 
0

>  <fr_alkyl_carbamate>  (209) 
0

>  <fr_alkyl_halide>  (209) 
0

>  <fr_allylic_oxid>  (209) 
0

>  <fr_amide>  (209) 
0

>  <fr_amidine>  (209) 
0

>  <fr_aniline>  (209) 
1

>  <fr_aryl_methyl>  (209) 
0

>  <fr_azide>  (209) 
0

>  <fr_azo>  (209) 
0

>  <fr_barbitur>  (209) 
0

>  <fr_benzene>  (209) 
1

>  <fr_benzodiazepine>  (209) 
0

>  <fr_bicyclic>  (209) 
1

>  <fr_diazo>  (209) 
0

>  <fr_dihydropyridine>  (209) 
0

>  <fr_epoxide>  (209) 
0

>  <fr_ester>  (209) 
0

>  <fr_ether>  (209) 
0

>  <fr_furan>  (209) 
0

>  <fr_guanido>  (209) 
0

>  <fr_halogen>  (209) 
1

>  <fr_hdrzine>  (209) 
0

>  <fr_hdrzone>  (209) 
0

>  <fr_imidazole>  (209) 
0

>  <fr_imide>  (209) 
0

>  <fr_isocyan>  (209) 
0

>  <fr_isothiocyan>  (209) 
0

>  <fr_ketone>  (209) 
0

>  <fr_ketone_Topliss>  (209) 
0

>  <fr_lactam>  (209) 
0

>  <fr_lactone>  (209) 
0

>  <fr_methoxy>  (209) 
0

>  <fr_morpholine>  (209) 
0

>  <fr_nitrile>  (209) 
0

>  <fr_nitro>  (209) 
0

>  <fr_nitro_arom>  (209) 
0

>  <fr_nitro_arom_nonortho>  (209) 
0

>  <fr_nitroso>  (209) 
0

>  <fr_oxazole>  (209) 
0

>  <fr_oxime>  (209) 
0

>  <fr_para_hydroxylation>  (209) 
0

>  <fr_phenol>  (209) 
0

>  <fr_phenol_noOrthoHbond>  (209) 
0

>  <fr_phos_acid>  (209) 
0

>  <fr_phos_ester>  (209) 
0

>  <fr_piperdine>  (209) 
1

>  <fr_piperzine>  (209) 
0

>  <fr_priamide>  (209) 
0

>  <fr_prisulfonamd>  (209) 
0

>  <fr_pyridine>  (209) 
0

>  <fr_quatN>  (209) 
1

>  <fr_sulfide>  (209) 
0

>  <fr_sulfonamd>  (209) 
0

>  <fr_sulfone>  (209) 
0

>  <fr_term_acetylene>  (209) 
0

>  <fr_tetrazole>  (209) 
0

>  <fr_thiazole>  (209) 
0

>  <fr_thiocyan>  (209) 
0

>  <fr_thiophene>  (209) 
0

>  <fr_unbrch_alkane>  (209) 
0

>  <fr_urea>  (209) 
0

>  <NP-Likeness>  (209) 
-0.918072

$$$$
M04
     RDKit          3D

  0  0  0  0  0  0  0  0  0  0999 V3000
M  V30 BEGIN CTAB
M  V30 COUNTS 48 51 0 0 0
M  V30 BEGIN ATOM
M  V30 1 C -2.656052 -4.279729 3.345561 0
M  V30 2 N -3.447667 -4.884832 2.413230 0
M  V30 3 C -3.254392 -4.633390 1.108871 0
M  V30 4 C -2.254934 -3.766008 0.757759 0
M  V30 5 C -1.463645 -3.161321 1.690899 0
M  V30 6 N -0.387686 -2.242052 1.477235 0
M  V30 7 C 0.792015 -2.544021 0.742431 0
M  V30 8 C 1.417657 -1.447502 -0.026082 0
M  V30 9 C 1.218652 -0.058165 0.443099 0
M  V30 10 C 1.254798 0.819781 -0.830869 0
M  V30 11 C 1.074889 2.244431 -0.550949 0
M  V30 12 C -0.140620 2.897877 -0.514432 0
M  V30 13 C -0.343864 4.237560 -0.255989 0
M  V30 14 C 0.770429 5.012384 -0.007814 0
M  V30 15 Cl 0.620337 6.721347 0.330638 0
M  V30 16 C 2.034439 4.460349 -0.019758 0
M  V30 17 C 2.144410 3.111183 -0.287587 0
M  V30 18 C 2.282849 0.488091 1.345834 0
M  V30 19 N 2.521578 -0.182788 2.566418 0 CHG=1 VAL=4
M  V30 20 C -0.141585 0.130393 1.018857 0
M  V30 21 C -0.505435 -0.918050 2.043558 0
M  V30 22 N -1.674510 -3.427928 3.001091 0
M  V30 23 C -2.197096 -3.624167 -0.600659 0
M  V30 24 C -3.194841 -4.431164 -1.112546 0
M  V30 25 N -3.816282 -5.027309 -0.064666 0
M  V30 26 H -2.860781 -4.523481 4.394196 0
M  V30 27 H 0.503995 -3.372724 0.024156 0
M  V30 28 H 1.511922 -3.075421 1.429029 0
M  V30 29 H 1.045407 -1.509256 -1.092396 0
M  V30 30 H 2.513346 -1.700721 -0.153396 0
M  V30 31 H 0.468670 0.429587 -1.511151 0
M  V30 32 H 2.238279 0.637716 -1.306659 0
M  V30 33 H -1.044835 2.338692 -0.703872 0
M  V30 34 H -1.322481 4.678143 -0.244051 0
M  V30 35 H 2.899910 5.064290 0.173402 0
M  V30 36 H 3.156023 2.725085 -0.286332 0
M  V30 37 H 3.250762 0.587019 0.790386 0
M  V30 38 H 2.012380 1.545834 1.595498 0
M  V30 39 H 3.562566 -0.085555 2.794447 0
M  V30 40 H 2.356531 -1.191962 2.610133 0
M  V30 41 H 2.082293 0.335884 3.386642 0
M  V30 42 H -0.198654 1.109111 1.576443 0
M  V30 43 H -0.924428 0.144588 0.216606 0
M  V30 44 H 0.032497 -0.800756 2.982507 0
M  V30 45 H -1.593158 -0.702911 2.290256 0
M  V30 46 H -1.531234 -3.021366 -1.185668 0
M  V30 47 H -3.453615 -4.577640 -2.163550 0
M  V30 48 H -4.614818 -5.696339 -0.136033 0
M  V30 END ATOM
M  V30 BEGIN BOND
M  V30 1 2 1 2
M  V30 2 1 2 3
M  V30 3 2 3 4
M  V30 4 1 4 5
M  V30 5 1 5 6
M  V30 6 1 6 7
M  V30 7 1 7 8
M  V30 8 1 8 9
M  V30 9 1 9 10
M  V30 10 1 10 11
M  V30 11 2 11 12
M  V30 12 1 12 13
M  V30 13 2 13 14
M  V30 14 1 14 15
M  V30 15 1 14 16
M  V30 16 2 16 17
M  V30 17 1 9 18
M  V30 18 1 18 19
M  V30 19 1 9 20
M  V30 20 1 20 21
M  V30 21 2 5 22
M  V30 22 1 4 23
M  V30 23 2 23 24
M  V30 24 1 24 25
M  V30 25 1 22 1
M  V30 26 1 25 3
M  V30 27 1 21 6
M  V30 28 1 17 11
M  V30 29 1 1 26
M  V30 30 1 7 27
M  V30 31 1 7 28
M  V30 32 1 8 29
M  V30 33 1 8 30
M  V30 34 1 10 31
M  V30 35 1 10 32
M  V30 36 1 12 33
M  V30 37 1 13 34
M  V30 38 1 16 35
M  V30 39 1 17 36
M  V30 40 1 18 37
M  V30 41 1 18 38
M  V30 42 1 19 39
M  V30 43 1 19 40
M  V30 44 1 19 41
M  V30 45 1 20 42
M  V30 46 1 20 43
M  V30 47 1 21 44
M  V30 48 1 21 45
M  V30 49 1 23 46
M  V30 50 1 24 47
M  V30 51 1 25 48
M  V30 END BOND
M  V30 END CTAB
M  END
>  <Dataset>  (210) 
PDB

>  <Ligand_Instance>  (210) 
2VO3_M04_A_1352

>  <PDB_ID>  (210) 
2VO3

>  <Standardized_SMILES>  (210) 
[H]C1=NC2=C(C(N3C([H])([H])C([H])([H])C(C([H])([H])C4=C([H])C([H])=C(Cl)C([H])=C4[H])(C([H])([H])[N+]([H])([H])[H])C([H])([H])C3([H])[H])=N1)C([H])=C([H])N2[H]

>  <Name>  (210) 
1-[4-(4-chlorobenzyl)-1-(7H-pyrrolo[2,3-d]pyrimidin-4-yl)piperidin-4-yl]methanamine

>  <Pocket>  (210) 
A

>  <ATP_Site>  (210) 
1.0

>  <Peripheral>  (210) 
0.0

>  <Num_H_Atoms_ProtBoundConf>  (210) 
23.0

>  <Num_Resolved_Atoms>  (210) 
25.0

>  <Num_Not_Resolved_Atoms>  (210) 
0.0

>  <2D_Mol_H>  (210) 
<rdkit.Chem.rdchem.Mol object at 0x72a238df2030>

>  <MW>  (210) 
356.881

>  <HBA>  (210) 
3

>  <HBD>  (210) 
2

>  <LogP>  (210) 
2.6825

>  <NRB>  (210) 
5

>  <TPSA>  (210) 
72.45

>  <Num_Heavy_Atoms>  (210) 
25

>  <Ro5>  (210) 
[True, True, True, True, True, True]

>  <Ro5_Fulfilled>  (210) 
True

>  <Ro3>  (210) 
[False, True, True, True]

>  <Ro3_Fulfilled>  (210) 
True

>  <Fsp3>  (210) 
0.368421

>  <Fsp3_0.42>  (210) 
False

>  <Fsp3_0.45>  (210) 
False

>  <Stereogenic_Carbons>  (210) 
0

>  <C_Atoms>  (210) 
19

>  <FCStereo>  (210) 
0.0

>  <SPS>  (210) 
428

>  <nSPS>  (210) 
17.12

>  <PBF>  (210) 
1.081202

>  <PBF_0.6>  (210) 
True

>  <nPBF>  (210) 
0.043248

>  <nPBF_0.016>  (210) 
True

>  <PMI1>  (210) 
1122.101531

>  <PMI2>  (210) 
6218.296182

>  <PMI3>  (210) 
6479.237433

>  <NPR1>  (210) 
0.173184

>  <NPR2>  (210) 
0.959727

>  <Sum_NPR>  (210) 
1.132911

>  <Sum_NPR_1.07>  (210) 
True

>  <Sum_NPR_1.2>  (210) 
False

>  <MaxAbsEStateIndex>  (210) 
6.014643

>  <MaxEStateIndex>  (210) 
6.014643

>  <MinAbsEStateIndex>  (210) 
0.258553

>  <MinEStateIndex>  (210) 
0.258553

>  <qed>  (210) 
0.75448

>  <MolWt>  (210) 
356.881

>  <HeavyAtomMolWt>  (210) 
333.697

>  <ExactMolWt>  (210) 
356.16365

>  <NumValenceElectrons>  (210) 
130

>  <NumRadicalElectrons>  (210) 
0

>  <MaxPartialCharge>  (210) 
0.142343

>  <MinPartialCharge>  (210) 
-0.357089

>  <MaxAbsPartialCharge>  (210) 
0.357089

>  <MinAbsPartialCharge>  (210) 
0.142343

>  <FpDensityMorgan1>  (210) 
1.12

>  <FpDensityMorgan2>  (210) 
1.88

>  <FpDensityMorgan3>  (210) 
2.6

>  <BCUT2D_MWHI>  (210) 
35.495692

>  <BCUT2D_MWLOW>  (210) 
9.735808

>  <BCUT2D_CHGHI>  (210) 
2.357575

>  <BCUT2D_CHGLO>  (210) 
-2.402658

>  <BCUT2D_LOGPHI>  (210) 
2.360699

>  <BCUT2D_LOGPLOW>  (210) 
-2.609951

>  <BCUT2D_MRHI>  (210) 
6.300867

>  <BCUT2D_MRLOW>  (210) 
-0.393878

>  <AvgIpc>  (210) 
3.131237

>  <BalabanJ>  (210) 
1.506045

>  <BertzCT>  (210) 
849.636773

>  <Chi0>  (210) 
17.27781

>  <Chi0n>  (210) 
14.210805

>  <Chi0v>  (210) 
14.966734

>  <Chi1>  (210) 
12.189402

>  <Chi1n>  (210) 
8.758474

>  <Chi1v>  (210) 
9.136438

>  <Chi2n>  (210) 
6.97752

>  <Chi2v>  (210) 
7.413955

>  <Chi3n>  (210) 
5.479277

>  <Chi3v>  (210) 
5.731254

>  <Chi4n>  (210) 
3.853995

>  <Chi4v>  (210) 
3.979983

>  <HallKierAlpha>  (210) 
-2.11

>  <Ipc>  (210) 
965322.664481

>  <Kappa1>  (210) 
16.363387

>  <Kappa2>  (210) 
6.653857

>  <Kappa3>  (210) 
3.216237

>  <LabuteASA>  (210) 
151.770372

>  <PEOE_VSA1>  (210) 
15.617556

>  <PEOE_VSA10>  (210) 
17.79236

>  <PEOE_VSA11>  (210) 
0.0

>  <PEOE_VSA12>  (210) 
0.0

>  <PEOE_VSA13>  (210) 
0.0

>  <PEOE_VSA14>  (210) 
0.0

>  <PEOE_VSA2>  (210) 
0.0

>  <PEOE_VSA3>  (210) 
9.967957

>  <PEOE_VSA4>  (210) 
0.0

>  <PEOE_VSA5>  (210) 
0.0

>  <PEOE_VSA6>  (210) 
23.733674

>  <PEOE_VSA7>  (210) 
43.025018

>  <PEOE_VSA8>  (210) 
29.72398

>  <PEOE_VSA9>  (210) 
11.930981

>  <SMR_VSA1>  (210) 
5.733667

>  <SMR_VSA10>  (210) 
28.452204

>  <SMR_VSA2>  (210) 
0.0

>  <SMR_VSA3>  (210) 
14.951936

>  <SMR_VSA4>  (210) 
5.41499

>  <SMR_VSA5>  (210) 
19.262465

>  <SMR_VSA6>  (210) 
24.534179

>  <SMR_VSA7>  (210) 
53.442084

>  <SMR_VSA8>  (210) 
0.0

>  <SMR_VSA9>  (210) 
0.0

>  <SlogP_VSA1>  (210) 
10.633577

>  <SlogP_VSA10>  (210) 
5.817863

>  <SlogP_VSA11>  (210) 
0.0

>  <SlogP_VSA12>  (210) 
11.60094

>  <SlogP_VSA2>  (210) 
34.586205

>  <SlogP_VSA3>  (210) 
6.420822

>  <SlogP_VSA4>  (210) 
5.41499

>  <SlogP_VSA5>  (210) 
18.405095

>  <SlogP_VSA6>  (210) 
42.855999

>  <SlogP_VSA7>  (210) 
5.022633

>  <SlogP_VSA8>  (210) 
11.033401

>  <SlogP_VSA9>  (210) 
0.0

>  <EState_VSA1>  (210) 
0.0

>  <EState_VSA10>  (210) 
0.0

>  <EState_VSA11>  (210) 
0.0

>  <EState_VSA2>  (210) 
5.41499

>  <EState_VSA3>  (210) 
0.0

>  <EState_VSA4>  (210) 
60.770632

>  <EState_VSA5>  (210) 
5.563451

>  <EState_VSA6>  (210) 
6.32732

>  <EState_VSA7>  (210) 
18.329578

>  <EState_VSA8>  (210) 
43.784614

>  <EState_VSA9>  (210) 
11.60094

>  <VSA_EState1>  (210) 
0.0

>  <VSA_EState10>  (210) 
6.014643

>  <VSA_EState2>  (210) 
14.372541

>  <VSA_EState3>  (210) 
1.892452

>  <VSA_EState4>  (210) 
6.765006

>  <VSA_EState5>  (210) 
1.037412

>  <VSA_EState6>  (210) 
10.291707

>  <VSA_EState7>  (210) 
6.868686

>  <VSA_EState8>  (210) 
2.951996

>  <VSA_EState9>  (210) 
0.0

>  <FractionCSP3>  (210) 
0.368421

>  <HeavyAtomCount>  (210) 
25

>  <NHOHCount>  (210) 
4

>  <NOCount>  (210) 
5

>  <NumAliphaticCarbocycles>  (210) 
0

>  <NumAliphaticHeterocycles>  (210) 
1

>  <NumAliphaticRings>  (210) 
1

>  <NumAromaticCarbocycles>  (210) 
1

>  <NumAromaticHeterocycles>  (210) 
2

>  <NAR>  (210) 
3

>  <NumHAcceptors>  (210) 
3

>  <NumHDonors>  (210) 
2

>  <NumHeteroatoms>  (210) 
6

>  <NumRotatableBonds>  (210) 
4

>  <NumSaturatedCarbocycles>  (210) 
0

>  <NumSaturatedHeterocycles>  (210) 
1

>  <NumSaturatedRings>  (210) 
1

>  <RingCount>  (210) 
4

>  <MolLogP>  (210) 
2.6825

>  <MolMR>  (210) 
100.6798

>  <fr_Al_COO>  (210) 
0

>  <fr_Al_OH>  (210) 
0

>  <fr_Al_OH_noTert>  (210) 
0

>  <fr_ArN>  (210) 
0

>  <fr_Ar_COO>  (210) 
0

>  <fr_Ar_N>  (210) 
3

>  <fr_Ar_NH>  (210) 
1

>  <fr_Ar_OH>  (210) 
0

>  <fr_COO>  (210) 
0

>  <fr_COO2>  (210) 
0

>  <fr_C_O>  (210) 
0

>  <fr_C_O_noCOO>  (210) 
0

>  <fr_C_S>  (210) 
0

>  <fr_HOCCN>  (210) 
0

>  <fr_Imine>  (210) 
0

>  <fr_NH0>  (210) 
3

>  <fr_NH1>  (210) 
1

>  <fr_NH2>  (210) 
0

>  <fr_N_O>  (210) 
0

>  <fr_Ndealkylation1>  (210) 
0

>  <fr_Ndealkylation2>  (210) 
0

>  <fr_Nhpyrrole>  (210) 
1

>  <fr_SH>  (210) 
0

>  <fr_aldehyde>  (210) 
0

>  <fr_alkyl_carbamate>  (210) 
0

>  <fr_alkyl_halide>  (210) 
0

>  <fr_allylic_oxid>  (210) 
0

>  <fr_amide>  (210) 
0

>  <fr_amidine>  (210) 
0

>  <fr_aniline>  (210) 
1

>  <fr_aryl_methyl>  (210) 
0

>  <fr_azide>  (210) 
0

>  <fr_azo>  (210) 
0

>  <fr_barbitur>  (210) 
0

>  <fr_benzene>  (210) 
1

>  <fr_benzodiazepine>  (210) 
0

>  <fr_bicyclic>  (210) 
1

>  <fr_diazo>  (210) 
0

>  <fr_dihydropyridine>  (210) 
0

>  <fr_epoxide>  (210) 
0

>  <fr_ester>  (210) 
0

>  <fr_ether>  (210) 
0

>  <fr_furan>  (210) 
0

>  <fr_guanido>  (210) 
0

>  <fr_halogen>  (210) 
1

>  <fr_hdrzine>  (210) 
0

>  <fr_hdrzone>  (210) 
0

>  <fr_imidazole>  (210) 
0

>  <fr_imide>  (210) 
0

>  <fr_isocyan>  (210) 
0

>  <fr_isothiocyan>  (210) 
0

>  <fr_ketone>  (210) 
0

>  <fr_ketone_Topliss>  (210) 
0

>  <fr_lactam>  (210) 
0

>  <fr_lactone>  (210) 
0

>  <fr_methoxy>  (210) 
0

>  <fr_morpholine>  (210) 
0

>  <fr_nitrile>  (210) 
0

>  <fr_nitro>  (210) 
0

>  <fr_nitro_arom>  (210) 
0

>  <fr_nitro_arom_nonortho>  (210) 
0

>  <fr_nitroso>  (210) 
0

>  <fr_oxazole>  (210) 
0

>  <fr_oxime>  (210) 
0

>  <fr_para_hydroxylation>  (210) 
0

>  <fr_phenol>  (210) 
0

>  <fr_phenol_noOrthoHbond>  (210) 
0

>  <fr_phos_acid>  (210) 
0

>  <fr_phos_ester>  (210) 
0

>  <fr_piperdine>  (210) 
1

>  <fr_piperzine>  (210) 
0

>  <fr_priamide>  (210) 
0

>  <fr_prisulfonamd>  (210) 
0

>  <fr_pyridine>  (210) 
0

>  <fr_quatN>  (210) 
1

>  <fr_sulfide>  (210) 
0

>  <fr_sulfonamd>  (210) 
0

>  <fr_sulfone>  (210) 
0

>  <fr_term_acetylene>  (210) 
0

>  <fr_tetrazole>  (210) 
0

>  <fr_thiazole>  (210) 
0

>  <fr_thiocyan>  (210) 
0

>  <fr_thiophene>  (210) 
0

>  <fr_unbrch_alkane>  (210) 
0

>  <fr_urea>  (210) 
0

>  <NP-Likeness>  (210) 
-0.866724

$$$$
M05
     RDKit          3D

  0  0  0  0  0  0  0  0  0  0999 V3000
M  V30 BEGIN CTAB
M  V30 COUNTS 45 48 0 0 0
M  V30 BEGIN ATOM
M  V30 1 C -0.441075 -2.122550 4.801459 0
M  V30 2 N -1.526228 -2.919744 4.877618 0
M  V30 3 C -1.991719 -3.484866 3.746061 0
M  V30 4 C -1.319379 -3.210160 2.555158 0
M  V30 5 C -0.208131 -2.386819 2.513528 0
M  V30 6 N 0.307227 -2.257268 1.181338 0
M  V30 7 C -0.623728 -1.700950 0.220985 0
M  V30 8 C -0.097883 -0.317008 -0.148532 0
M  V30 9 C 1.386694 -0.231461 -0.153026 0
M  V30 10 C 1.835681 0.714584 -1.239310 0
M  V30 11 C 1.338234 2.088287 -1.100339 0
M  V30 12 C 0.190353 2.640847 -1.624062 0
M  V30 13 C -0.191043 3.950709 -1.429946 0
M  V30 14 C 0.585899 4.805147 -0.674199 0
M  V30 15 Cl 0.019212 6.430624 -0.490552 0
M  V30 16 C 1.745392 4.290649 -0.131194 0
M  V30 17 C 2.102023 2.982536 -0.339828 0
M  V30 18 N 1.811667 0.382770 1.097950 0 CHG=1 VAL=4
M  V30 19 C 2.065601 -1.558971 -0.377913 0
M  V30 20 C 1.629980 -2.600774 0.626275 0
M  V30 21 N 0.222683 -1.843647 3.665934 0
M  V30 22 C -2.073391 -3.950246 1.637474 0
M  V30 23 C -3.101106 -4.604037 2.237880 0
M  V30 24 N -3.035981 -4.304129 3.547974 0
M  V30 25 H 0.010517 -1.618966 5.666199 0
M  V30 26 H -0.619040 -2.357129 -0.678885 0
M  V30 27 H -1.644629 -1.566644 0.590461 0
M  V30 28 H -0.538359 0.395720 0.578764 0
M  V30 29 H -0.564015 -0.104697 -1.132653 0
M  V30 30 H 1.565339 0.274239 -2.222563 0
M  V30 31 H 2.960139 0.731246 -1.165722 0
M  V30 32 H -0.424079 1.993340 -2.218186 0
M  V30 33 H -1.120838 4.268268 -1.896451 0
M  V30 34 H 2.319066 4.993246 0.450158 0
M  V30 35 H 3.045670 2.729023 0.155201 0
M  V30 36 H 2.845674 0.509975 1.032473 0
M  V30 37 H 1.268039 1.258834 1.207344 0
M  V30 38 H 1.644151 -0.181170 1.933538 0
M  V30 39 H 3.157921 -1.399137 -0.305762 0
M  V30 40 H 1.842365 -1.876932 -1.413592 0
M  V30 41 H 2.363499 -2.799554 1.410991 0
M  V30 42 H 1.458072 -3.542995 0.065944 0
M  V30 43 H -1.852395 -3.988865 0.574191 0
M  V30 44 H -3.850908 -5.249013 1.799780 0
M  V30 45 H -3.668338 -4.635320 4.288182 0
M  V30 END ATOM
M  V30 BEGIN BOND
M  V30 1 2 1 2
M  V30 2 1 2 3
M  V30 3 2 3 4
M  V30 4 1 4 5
M  V30 5 1 5 6
M  V30 6 1 6 7
M  V30 7 1 7 8
M  V30 8 1 8 9
M  V30 9 1 9 10
M  V30 10 1 10 11
M  V30 11 2 11 12
M  V30 12 1 12 13
M  V30 13 2 13 14
M  V30 14 1 14 15
M  V30 15 1 14 16
M  V30 16 2 16 17
M  V30 17 1 9 18
M  V30 18 1 9 19
M  V30 19 1 19 20
M  V30 20 2 5 21
M  V30 21 1 4 22
M  V30 22 2 22 23
M  V30 23 1 23 24
M  V30 24 1 21 1
M  V30 25 1 24 3
M  V30 26 1 20 6
M  V30 27 1 17 11
M  V30 28 1 1 25
M  V30 29 1 7 26
M  V30 30 1 7 27
M  V30 31 1 8 28
M  V30 32 1 8 29
M  V30 33 1 10 30
M  V30 34 1 10 31
M  V30 35 1 12 32
M  V30 36 1 13 33
M  V30 37 1 16 34
M  V30 38 1 17 35
M  V30 39 1 18 36
M  V30 40 1 18 37
M  V30 41 1 18 38
M  V30 42 1 19 39
M  V30 43 1 19 40
M  V30 44 1 20 41
M  V30 45 1 20 42
M  V30 46 1 22 43
M  V30 47 1 23 44
M  V30 48 1 24 45
M  V30 END BOND
M  V30 END CTAB
M  END
>  <Dataset>  (211) 
PDB

>  <Ligand_Instance>  (211) 
2VO6_M05_A_1352

>  <PDB_ID>  (211) 
2VO6

>  <Standardized_SMILES>  (211) 
[H]C1=NC2=C(C(N3C([H])([H])C([H])([H])C(C([H])([H])C4=C([H])C([H])=C(Cl)C([H])=C4[H])([N+]([H])([H])[H])C([H])([H])C3([H])[H])=N1)C([H])=C([H])N2[H]

>  <Name>  (211) 
4-(4-chlorobenzyl)-1-(7H-pyrrolo[2,3-d]pyrimidin-4-yl)piperidin-4-aminium

>  <Pocket>  (211) 
A

>  <ATP_Site>  (211) 
1.0

>  <Peripheral>  (211) 
0.0

>  <Num_H_Atoms_ProtBoundConf>  (211) 
21.0

>  <Num_Resolved_Atoms>  (211) 
24.0

>  <Num_Not_Resolved_Atoms>  (211) 
0.0

>  <2D_Mol_H>  (211) 
<rdkit.Chem.rdchem.Mol object at 0x72a238df2110>

>  <MW>  (211) 
342.854

>  <HBA>  (211) 
3

>  <HBD>  (211) 
2

>  <LogP>  (211) 
2.4349

>  <NRB>  (211) 
4

>  <TPSA>  (211) 
72.45

>  <Num_Heavy_Atoms>  (211) 
24

>  <Ro5>  (211) 
[True, True, True, True, True, True]

>  <Ro5_Fulfilled>  (211) 
True

>  <Ro3>  (211) 
[False, True, True, True]

>  <Ro3_Fulfilled>  (211) 
True

>  <Fsp3>  (211) 
0.333333

>  <Fsp3_0.42>  (211) 
False

>  <Fsp3_0.45>  (211) 
False

>  <Stereogenic_Carbons>  (211) 
0

>  <C_Atoms>  (211) 
18

>  <FCStereo>  (211) 
0.0

>  <SPS>  (211) 
416

>  <nSPS>  (211) 
17.333333

>  <PBF>  (211) 
1.180614

>  <PBF_0.6>  (211) 
True

>  <nPBF>  (211) 
0.049192

>  <nPBF_0.016>  (211) 
True

>  <PMI1>  (211) 
1132.78235

>  <PMI2>  (211) 
5432.616883

>  <PMI3>  (211) 
5765.21779

>  <NPR1>  (211) 
0.196486

>  <NPR2>  (211) 
0.942309

>  <Sum_NPR>  (211) 
1.138795

>  <Sum_NPR_1.07>  (211) 
True

>  <Sum_NPR_1.2>  (211) 
False

>  <MaxAbsEStateIndex>  (211) 
5.977488

>  <MaxEStateIndex>  (211) 
5.977488

>  <MinAbsEStateIndex>  (211) 
0.077998

>  <MinEStateIndex>  (211) 
0.077998

>  <qed>  (211) 
0.76749

>  <MolWt>  (211) 
342.854

>  <HeavyAtomMolWt>  (211) 
321.686

>  <ExactMolWt>  (211) 
342.148

>  <NumValenceElectrons>  (211) 
124

>  <NumRadicalElectrons>  (211) 
0

>  <MaxPartialCharge>  (211) 
0.142343

>  <MinPartialCharge>  (211) 
-0.355453

>  <MaxAbsPartialCharge>  (211) 
0.355453

>  <MinAbsPartialCharge>  (211) 
0.142343

>  <FpDensityMorgan1>  (211) 
1.125

>  <FpDensityMorgan2>  (211) 
1.875

>  <FpDensityMorgan3>  (211) 
2.625

>  <BCUT2D_MWHI>  (211) 
35.495692

>  <BCUT2D_MWLOW>  (211) 
9.826108

>  <BCUT2D_CHGHI>  (211) 
2.348412

>  <BCUT2D_CHGLO>  (211) 
-2.371099

>  <BCUT2D_LOGPHI>  (211) 
2.286004

>  <BCUT2D_LOGPLOW>  (211) 
-2.760567

>  <BCUT2D_MRHI>  (211) 
6.300866

>  <BCUT2D_MRLOW>  (211) 
-0.481669

>  <AvgIpc>  (211) 
3.063622

>  <BalabanJ>  (211) 
1.476756

>  <BertzCT>  (211) 
833.996222

>  <Chi0>  (211) 
16.570703

>  <Chi0n>  (211) 
13.503698

>  <Chi0v>  (211) 
14.259627

>  <Chi1>  (211) 
11.628742

>  <Chi1n>  (211) 
8.258474

>  <Chi1v>  (211) 
8.636438

>  <Chi2n>  (211) 
6.72752

>  <Chi2v>  (211) 
7.163955

>  <Chi3n>  (211) 
4.948947

>  <Chi3v>  (211) 
5.200924

>  <Chi4n>  (211) 
3.515607

>  <Chi4v>  (211) 
3.641595

>  <HallKierAlpha>  (211) 
-2.11

>  <Ipc>  (211) 
537677.887813

>  <Kappa1>  (211) 
15.419591

>  <Kappa2>  (211) 
6.072824

>  <Kappa3>  (211) 
2.969331

>  <LabuteASA>  (211) 
145.40543

>  <PEOE_VSA1>  (211) 
15.617556

>  <PEOE_VSA10>  (211) 
23.331285

>  <PEOE_VSA11>  (211) 
0.0

>  <PEOE_VSA12>  (211) 
0.0

>  <PEOE_VSA13>  (211) 
0.0

>  <PEOE_VSA14>  (211) 
0.0

>  <PEOE_VSA2>  (211) 
0.0

>  <PEOE_VSA3>  (211) 
9.967957

>  <PEOE_VSA4>  (211) 
0.0

>  <PEOE_VSA5>  (211) 
0.0

>  <PEOE_VSA6>  (211) 
23.733674

>  <PEOE_VSA7>  (211) 
23.762553

>  <PEOE_VSA8>  (211) 
43.571455

>  <PEOE_VSA9>  (211) 
5.386224

>  <SMR_VSA1>  (211) 
5.733667

>  <SMR_VSA10>  (211) 
28.452204

>  <SMR_VSA2>  (211) 
0.0

>  <SMR_VSA3>  (211) 
14.951936

>  <SMR_VSA4>  (211) 
0.0

>  <SMR_VSA5>  (211) 
24.80139

>  <SMR_VSA6>  (211) 
17.989423

>  <SMR_VSA7>  (211) 
53.442084

>  <SMR_VSA8>  (211) 
0.0

>  <SMR_VSA9>  (211) 
0.0

>  <SlogP_VSA1>  (211) 
10.633577

>  <SlogP_VSA10>  (211) 
5.817863

>  <SlogP_VSA11>  (211) 
0.0

>  <SlogP_VSA12>  (211) 
11.60094

>  <SlogP_VSA2>  (211) 
33.580374

>  <SlogP_VSA3>  (211) 
6.420822

>  <SlogP_VSA4>  (211) 
0.0

>  <SlogP_VSA5>  (211) 
18.405095

>  <SlogP_VSA6>  (211) 
42.855999

>  <SlogP_VSA7>  (211) 
5.022633

>  <SlogP_VSA8>  (211) 
11.033401

>  <SlogP_VSA9>  (211) 
0.0

>  <EState_VSA1>  (211) 
0.0

>  <EState_VSA10>  (211) 
0.0

>  <EState_VSA11>  (211) 
0.0

>  <EState_VSA2>  (211) 
5.538925

>  <EState_VSA3>  (211) 
0.0

>  <EState_VSA4>  (211) 
54.225875

>  <EState_VSA5>  (211) 
5.563451

>  <EState_VSA6>  (211) 
6.32732

>  <EState_VSA7>  (211) 
24.395945

>  <EState_VSA8>  (211) 
37.718247

>  <EState_VSA9>  (211) 
11.60094

>  <VSA_EState1>  (211) 
0.0

>  <VSA_EState10>  (211) 
5.977488

>  <VSA_EState2>  (211) 
14.27767

>  <VSA_EState3>  (211) 
1.872895

>  <VSA_EState4>  (211) 
6.806156

>  <VSA_EState5>  (211) 
1.022956

>  <VSA_EState6>  (211) 
10.173654

>  <VSA_EState7>  (211) 
6.630326

>  <VSA_EState8>  (211) 
1.9333

>  <VSA_EState9>  (211) 
0.0

>  <FractionCSP3>  (211) 
0.333333

>  <HeavyAtomCount>  (211) 
24

>  <NHOHCount>  (211) 
4

>  <NOCount>  (211) 
5

>  <NumAliphaticCarbocycles>  (211) 
0

>  <NumAliphaticHeterocycles>  (211) 
1

>  <NumAliphaticRings>  (211) 
1

>  <NumAromaticCarbocycles>  (211) 
1

>  <NumAromaticHeterocycles>  (211) 
2

>  <NAR>  (211) 
3

>  <NumHAcceptors>  (211) 
3

>  <NumHDonors>  (211) 
2

>  <NumHeteroatoms>  (211) 
6

>  <NumRotatableBonds>  (211) 
3

>  <NumSaturatedCarbocycles>  (211) 
0

>  <NumSaturatedHeterocycles>  (211) 
1

>  <NumSaturatedRings>  (211) 
1

>  <RingCount>  (211) 
4

>  <MolLogP>  (211) 
2.4349

>  <MolMR>  (211) 
96.1108

>  <fr_Al_COO>  (211) 
0

>  <fr_Al_OH>  (211) 
0

>  <fr_Al_OH_noTert>  (211) 
0

>  <fr_ArN>  (211) 
0

>  <fr_Ar_COO>  (211) 
0

>  <fr_Ar_N>  (211) 
3

>  <fr_Ar_NH>  (211) 
1

>  <fr_Ar_OH>  (211) 
0

>  <fr_COO>  (211) 
0

>  <fr_COO2>  (211) 
0

>  <fr_C_O>  (211) 
0

>  <fr_C_O_noCOO>  (211) 
0

>  <fr_C_S>  (211) 
0

>  <fr_HOCCN>  (211) 
0

>  <fr_Imine>  (211) 
0

>  <fr_NH0>  (211) 
3

>  <fr_NH1>  (211) 
1

>  <fr_NH2>  (211) 
0

>  <fr_N_O>  (211) 
0

>  <fr_Ndealkylation1>  (211) 
0

>  <fr_Ndealkylation2>  (211) 
0

>  <fr_Nhpyrrole>  (211) 
1

>  <fr_SH>  (211) 
0

>  <fr_aldehyde>  (211) 
0

>  <fr_alkyl_carbamate>  (211) 
0

>  <fr_alkyl_halide>  (211) 
0

>  <fr_allylic_oxid>  (211) 
0

>  <fr_amide>  (211) 
0

>  <fr_amidine>  (211) 
0

>  <fr_aniline>  (211) 
1

>  <fr_aryl_methyl>  (211) 
0

>  <fr_azide>  (211) 
0

>  <fr_azo>  (211) 
0

>  <fr_barbitur>  (211) 
0

>  <fr_benzene>  (211) 
1

>  <fr_benzodiazepine>  (211) 
0

>  <fr_bicyclic>  (211) 
1

>  <fr_diazo>  (211) 
0

>  <fr_dihydropyridine>  (211) 
0

>  <fr_epoxide>  (211) 
0

>  <fr_ester>  (211) 
0

>  <fr_ether>  (211) 
0

>  <fr_furan>  (211) 
0

>  <fr_guanido>  (211) 
0

>  <fr_halogen>  (211) 
1

>  <fr_hdrzine>  (211) 
0

>  <fr_hdrzone>  (211) 
0

>  <fr_imidazole>  (211) 
0

>  <fr_imide>  (211) 
0

>  <fr_isocyan>  (211) 
0

>  <fr_isothiocyan>  (211) 
0

>  <fr_ketone>  (211) 
0

>  <fr_ketone_Topliss>  (211) 
0

>  <fr_lactam>  (211) 
0

>  <fr_lactone>  (211) 
0

>  <fr_methoxy>  (211) 
0

>  <fr_morpholine>  (211) 
0

>  <fr_nitrile>  (211) 
0

>  <fr_nitro>  (211) 
0

>  <fr_nitro_arom>  (211) 
0

>  <fr_nitro_arom_nonortho>  (211) 
0

>  <fr_nitroso>  (211) 
0

>  <fr_oxazole>  (211) 
0

>  <fr_oxime>  (211) 
0

>  <fr_para_hydroxylation>  (211) 
0

>  <fr_phenol>  (211) 
0

>  <fr_phenol_noOrthoHbond>  (211) 
0

>  <fr_phos_acid>  (211) 
0

>  <fr_phos_ester>  (211) 
0

>  <fr_piperdine>  (211) 
1

>  <fr_piperzine>  (211) 
0

>  <fr_priamide>  (211) 
0

>  <fr_prisulfonamd>  (211) 
0

>  <fr_pyridine>  (211) 
0

>  <fr_quatN>  (211) 
1

>  <fr_sulfide>  (211) 
0

>  <fr_sulfonamd>  (211) 
0

>  <fr_sulfone>  (211) 
0

>  <fr_term_acetylene>  (211) 
0

>  <fr_tetrazole>  (211) 
0

>  <fr_thiazole>  (211) 
0

>  <fr_thiocyan>  (211) 
0

>  <fr_thiophene>  (211) 
0

>  <fr_unbrch_alkane>  (211) 
0

>  <fr_urea>  (211) 
0

>  <NP-Likeness>  (211) 
-0.862214

$$$$
M05
     RDKit          3D

  0  0  0  0  0  0  0  0  0  0999 V3000
M  V30 BEGIN CTAB
M  V30 COUNTS 45 48 0 0 0
M  V30 BEGIN ATOM
M  V30 1 C -0.441075 -2.122550 4.801459 0
M  V30 2 N -1.526228 -2.919744 4.877618 0
M  V30 3 C -1.991719 -3.484866 3.746061 0
M  V30 4 C -1.319379 -3.210160 2.555158 0
M  V30 5 C -0.208131 -2.386819 2.513528 0
M  V30 6 N 0.307227 -2.257268 1.181338 0
M  V30 7 C -0.623728 -1.700950 0.220985 0
M  V30 8 C -0.097883 -0.317008 -0.148532 0
M  V30 9 C 1.386694 -0.231461 -0.153026 0
M  V30 10 C 1.835681 0.714584 -1.239310 0
M  V30 11 C 1.338234 2.088287 -1.100339 0
M  V30 12 C 0.190353 2.640847 -1.624062 0
M  V30 13 C -0.191043 3.950709 -1.429946 0
M  V30 14 C 0.585899 4.805147 -0.674199 0
M  V30 15 Cl 0.019212 6.430624 -0.490552 0
M  V30 16 C 1.745392 4.290649 -0.131194 0
M  V30 17 C 2.102023 2.982536 -0.339828 0
M  V30 18 N 1.811667 0.382770 1.097950 0 CHG=1 VAL=4
M  V30 19 C 2.065601 -1.558971 -0.377913 0
M  V30 20 C 1.629980 -2.600774 0.626275 0
M  V30 21 N 0.222683 -1.843647 3.665934 0
M  V30 22 C -2.073391 -3.950246 1.637474 0
M  V30 23 C -3.101106 -4.604037 2.237880 0
M  V30 24 N -3.035981 -4.304129 3.547974 0
M  V30 25 H 0.010517 -1.618966 5.666199 0
M  V30 26 H -0.619040 -2.357129 -0.678885 0
M  V30 27 H -1.644629 -1.566644 0.590461 0
M  V30 28 H -0.538359 0.395720 0.578764 0
M  V30 29 H -0.564015 -0.104697 -1.132653 0
M  V30 30 H 1.565339 0.274239 -2.222563 0
M  V30 31 H 2.960139 0.731246 -1.165722 0
M  V30 32 H -0.424079 1.993340 -2.218186 0
M  V30 33 H -1.120838 4.268268 -1.896451 0
M  V30 34 H 2.319066 4.993246 0.450158 0
M  V30 35 H 3.045670 2.729023 0.155201 0
M  V30 36 H 2.845674 0.509975 1.032473 0
M  V30 37 H 1.268039 1.258834 1.207344 0
M  V30 38 H 1.644151 -0.181170 1.933538 0
M  V30 39 H 3.157921 -1.399137 -0.305762 0
M  V30 40 H 1.842365 -1.876932 -1.413592 0
M  V30 41 H 2.363499 -2.799554 1.410991 0
M  V30 42 H 1.458072 -3.542995 0.065944 0
M  V30 43 H -1.852395 -3.988865 0.574191 0
M  V30 44 H -3.850908 -5.249013 1.799780 0
M  V30 45 H -3.668338 -4.635320 4.288182 0
M  V30 END ATOM
M  V30 BEGIN BOND
M  V30 1 2 1 2
M  V30 2 1 2 3
M  V30 3 2 3 4
M  V30 4 1 4 5
M  V30 5 1 5 6
M  V30 6 1 6 7
M  V30 7 1 7 8
M  V30 8 1 8 9
M  V30 9 1 9 10
M  V30 10 1 10 11
M  V30 11 2 11 12
M  V30 12 1 12 13
M  V30 13 2 13 14
M  V30 14 1 14 15
M  V30 15 1 14 16
M  V30 16 2 16 17
M  V30 17 1 9 18
M  V30 18 1 9 19
M  V30 19 1 19 20
M  V30 20 2 5 21
M  V30 21 1 4 22
M  V30 22 2 22 23
M  V30 23 1 23 24
M  V30 24 1 21 1
M  V30 25 1 24 3
M  V30 26 1 20 6
M  V30 27 1 17 11
M  V30 28 1 1 25
M  V30 29 1 7 26
M  V30 30 1 7 27
M  V30 31 1 8 28
M  V30 32 1 8 29
M  V30 33 1 10 30
M  V30 34 1 10 31
M  V30 35 1 12 32
M  V30 36 1 13 33
M  V30 37 1 16 34
M  V30 38 1 17 35
M  V30 39 1 18 36
M  V30 40 1 18 37
M  V30 41 1 18 38
M  V30 42 1 19 39
M  V30 43 1 19 40
M  V30 44 1 20 41
M  V30 45 1 20 42
M  V30 46 1 22 43
M  V30 47 1 23 44
M  V30 48 1 24 45
M  V30 END BOND
M  V30 END CTAB
M  END
>  <Dataset>  (212) 
PDB

>  <Ligand_Instance>  (212) 
2VO7_M05_A_1351

>  <PDB_ID>  (212) 
2VO7

>  <Standardized_SMILES>  (212) 
[H]C1=NC2=C(C(N3C([H])([H])C([H])([H])C(C([H])([H])C4=C([H])C([H])=C(Cl)C([H])=C4[H])([N+]([H])([H])[H])C([H])([H])C3([H])[H])=N1)C([H])=C([H])N2[H]

>  <Name>  (212) 
4-(4-chlorobenzyl)-1-(7H-pyrrolo[2,3-d]pyrimidin-4-yl)piperidin-4-aminium

>  <Pocket>  (212) 
X

>  <ATP_Site>  (212) 
1.0

>  <Peripheral>  (212) 
1.0

>  <Num_H_Atoms_ProtBoundConf>  (212) 
21.0

>  <Num_Resolved_Atoms>  (212) 
24.0

>  <Num_Not_Resolved_Atoms>  (212) 
0.0

>  <2D_Mol_H>  (212) 
<rdkit.Chem.rdchem.Mol object at 0x72a238df21f0>

>  <MW>  (212) 
342.854

>  <HBA>  (212) 
3

>  <HBD>  (212) 
2

>  <LogP>  (212) 
2.4349

>  <NRB>  (212) 
4

>  <TPSA>  (212) 
72.45

>  <Num_Heavy_Atoms>  (212) 
24

>  <Ro5>  (212) 
[True, True, True, True, True, True]

>  <Ro5_Fulfilled>  (212) 
True

>  <Ro3>  (212) 
[False, True, True, True]

>  <Ro3_Fulfilled>  (212) 
True

>  <Fsp3>  (212) 
0.333333

>  <Fsp3_0.42>  (212) 
False

>  <Fsp3_0.45>  (212) 
False

>  <Stereogenic_Carbons>  (212) 
0

>  <C_Atoms>  (212) 
18

>  <FCStereo>  (212) 
0.0

>  <SPS>  (212) 
416

>  <nSPS>  (212) 
17.333333

>  <PBF>  (212) 
1.180614

>  <PBF_0.6>  (212) 
True

>  <nPBF>  (212) 
0.049192

>  <nPBF_0.016>  (212) 
True

>  <PMI1>  (212) 
1132.78235

>  <PMI2>  (212) 
5432.616883

>  <PMI3>  (212) 
5765.21779

>  <NPR1>  (212) 
0.196486

>  <NPR2>  (212) 
0.942309

>  <Sum_NPR>  (212) 
1.138795

>  <Sum_NPR_1.07>  (212) 
True

>  <Sum_NPR_1.2>  (212) 
False

>  <MaxAbsEStateIndex>  (212) 
5.977488

>  <MaxEStateIndex>  (212) 
5.977488

>  <MinAbsEStateIndex>  (212) 
0.077998

>  <MinEStateIndex>  (212) 
0.077998

>  <qed>  (212) 
0.76749

>  <MolWt>  (212) 
342.854

>  <HeavyAtomMolWt>  (212) 
321.686

>  <ExactMolWt>  (212) 
342.148

>  <NumValenceElectrons>  (212) 
124

>  <NumRadicalElectrons>  (212) 
0

>  <MaxPartialCharge>  (212) 
0.142343

>  <MinPartialCharge>  (212) 
-0.355453

>  <MaxAbsPartialCharge>  (212) 
0.355453

>  <MinAbsPartialCharge>  (212) 
0.142343

>  <FpDensityMorgan1>  (212) 
1.125

>  <FpDensityMorgan2>  (212) 
1.875

>  <FpDensityMorgan3>  (212) 
2.625

>  <BCUT2D_MWHI>  (212) 
35.495692

>  <BCUT2D_MWLOW>  (212) 
9.826108

>  <BCUT2D_CHGHI>  (212) 
2.348412

>  <BCUT2D_CHGLO>  (212) 
-2.371099

>  <BCUT2D_LOGPHI>  (212) 
2.286004

>  <BCUT2D_LOGPLOW>  (212) 
-2.760567

>  <BCUT2D_MRHI>  (212) 
6.300866

>  <BCUT2D_MRLOW>  (212) 
-0.481669

>  <AvgIpc>  (212) 
3.063622

>  <BalabanJ>  (212) 
1.476756

>  <BertzCT>  (212) 
833.996222

>  <Chi0>  (212) 
16.570703

>  <Chi0n>  (212) 
13.503698

>  <Chi0v>  (212) 
14.259627

>  <Chi1>  (212) 
11.628742

>  <Chi1n>  (212) 
8.258474

>  <Chi1v>  (212) 
8.636438

>  <Chi2n>  (212) 
6.72752

>  <Chi2v>  (212) 
7.163955

>  <Chi3n>  (212) 
4.948947

>  <Chi3v>  (212) 
5.200924

>  <Chi4n>  (212) 
3.515607

>  <Chi4v>  (212) 
3.641595

>  <HallKierAlpha>  (212) 
-2.11

>  <Ipc>  (212) 
537677.887813

>  <Kappa1>  (212) 
15.419591

>  <Kappa2>  (212) 
6.072824

>  <Kappa3>  (212) 
2.969331

>  <LabuteASA>  (212) 
145.40543

>  <PEOE_VSA1>  (212) 
15.617556

>  <PEOE_VSA10>  (212) 
23.331285

>  <PEOE_VSA11>  (212) 
0.0

>  <PEOE_VSA12>  (212) 
0.0

>  <PEOE_VSA13>  (212) 
0.0

>  <PEOE_VSA14>  (212) 
0.0

>  <PEOE_VSA2>  (212) 
0.0

>  <PEOE_VSA3>  (212) 
9.967957

>  <PEOE_VSA4>  (212) 
0.0

>  <PEOE_VSA5>  (212) 
0.0

>  <PEOE_VSA6>  (212) 
23.733674

>  <PEOE_VSA7>  (212) 
23.762553

>  <PEOE_VSA8>  (212) 
43.571455

>  <PEOE_VSA9>  (212) 
5.386224

>  <SMR_VSA1>  (212) 
5.733667

>  <SMR_VSA10>  (212) 
28.452204

>  <SMR_VSA2>  (212) 
0.0

>  <SMR_VSA3>  (212) 
14.951936

>  <SMR_VSA4>  (212) 
0.0

>  <SMR_VSA5>  (212) 
24.80139

>  <SMR_VSA6>  (212) 
17.989423

>  <SMR_VSA7>  (212) 
53.442084

>  <SMR_VSA8>  (212) 
0.0

>  <SMR_VSA9>  (212) 
0.0

>  <SlogP_VSA1>  (212) 
10.633577

>  <SlogP_VSA10>  (212) 
5.817863

>  <SlogP_VSA11>  (212) 
0.0

>  <SlogP_VSA12>  (212) 
11.60094

>  <SlogP_VSA2>  (212) 
33.580374

>  <SlogP_VSA3>  (212) 
6.420822

>  <SlogP_VSA4>  (212) 
0.0

>  <SlogP_VSA5>  (212) 
18.405095

>  <SlogP_VSA6>  (212) 
42.855999

>  <SlogP_VSA7>  (212) 
5.022633

>  <SlogP_VSA8>  (212) 
11.033401

>  <SlogP_VSA9>  (212) 
0.0

>  <EState_VSA1>  (212) 
0.0

>  <EState_VSA10>  (212) 
0.0

>  <EState_VSA11>  (212) 
0.0

>  <EState_VSA2>  (212) 
5.538925

>  <EState_VSA3>  (212) 
0.0

>  <EState_VSA4>  (212) 
54.225875

>  <EState_VSA5>  (212) 
5.563451

>  <EState_VSA6>  (212) 
6.32732

>  <EState_VSA7>  (212) 
24.395945

>  <EState_VSA8>  (212) 
37.718247

>  <EState_VSA9>  (212) 
11.60094

>  <VSA_EState1>  (212) 
0.0

>  <VSA_EState10>  (212) 
5.977488

>  <VSA_EState2>  (212) 
14.27767

>  <VSA_EState3>  (212) 
1.872895

>  <VSA_EState4>  (212) 
6.806156

>  <VSA_EState5>  (212) 
1.022956

>  <VSA_EState6>  (212) 
10.173654

>  <VSA_EState7>  (212) 
6.630326

>  <VSA_EState8>  (212) 
1.9333

>  <VSA_EState9>  (212) 
0.0

>  <FractionCSP3>  (212) 
0.333333

>  <HeavyAtomCount>  (212) 
24

>  <NHOHCount>  (212) 
4

>  <NOCount>  (212) 
5

>  <NumAliphaticCarbocycles>  (212) 
0

>  <NumAliphaticHeterocycles>  (212) 
1

>  <NumAliphaticRings>  (212) 
1

>  <NumAromaticCarbocycles>  (212) 
1

>  <NumAromaticHeterocycles>  (212) 
2

>  <NAR>  (212) 
3

>  <NumHAcceptors>  (212) 
3

>  <NumHDonors>  (212) 
2

>  <NumHeteroatoms>  (212) 
6

>  <NumRotatableBonds>  (212) 
3

>  <NumSaturatedCarbocycles>  (212) 
0

>  <NumSaturatedHeterocycles>  (212) 
1

>  <NumSaturatedRings>  (212) 
1

>  <RingCount>  (212) 
4

>  <MolLogP>  (212) 
2.4349

>  <MolMR>  (212) 
96.1108

>  <fr_Al_COO>  (212) 
0

>  <fr_Al_OH>  (212) 
0

>  <fr_Al_OH_noTert>  (212) 
0

>  <fr_ArN>  (212) 
0

>  <fr_Ar_COO>  (212) 
0

>  <fr_Ar_N>  (212) 
3

>  <fr_Ar_NH>  (212) 
1

>  <fr_Ar_OH>  (212) 
0

>  <fr_COO>  (212) 
0

>  <fr_COO2>  (212) 
0

>  <fr_C_O>  (212) 
0

>  <fr_C_O_noCOO>  (212) 
0

>  <fr_C_S>  (212) 
0

>  <fr_HOCCN>  (212) 
0

>  <fr_Imine>  (212) 
0

>  <fr_NH0>  (212) 
3

>  <fr_NH1>  (212) 
1

>  <fr_NH2>  (212) 
0

>  <fr_N_O>  (212) 
0

>  <fr_Ndealkylation1>  (212) 
0

>  <fr_Ndealkylation2>  (212) 
0

>  <fr_Nhpyrrole>  (212) 
1

>  <fr_SH>  (212) 
0

>  <fr_aldehyde>  (212) 
0

>  <fr_alkyl_carbamate>  (212) 
0

>  <fr_alkyl_halide>  (212) 
0

>  <fr_allylic_oxid>  (212) 
0

>  <fr_amide>  (212) 
0

>  <fr_amidine>  (212) 
0

>  <fr_aniline>  (212) 
1

>  <fr_aryl_methyl>  (212) 
0

>  <fr_azide>  (212) 
0

>  <fr_azo>  (212) 
0

>  <fr_barbitur>  (212) 
0

>  <fr_benzene>  (212) 
1

>  <fr_benzodiazepine>  (212) 
0

>  <fr_bicyclic>  (212) 
1

>  <fr_diazo>  (212) 
0

>  <fr_dihydropyridine>  (212) 
0

>  <fr_epoxide>  (212) 
0

>  <fr_ester>  (212) 
0

>  <fr_ether>  (212) 
0

>  <fr_furan>  (212) 
0

>  <fr_guanido>  (212) 
0

>  <fr_halogen>  (212) 
1

>  <fr_hdrzine>  (212) 
0

>  <fr_hdrzone>  (212) 
0

>  <fr_imidazole>  (212) 
0

>  <fr_imide>  (212) 
0

>  <fr_isocyan>  (212) 
0

>  <fr_isothiocyan>  (212) 
0

>  <fr_ketone>  (212) 
0

>  <fr_ketone_Topliss>  (212) 
0

>  <fr_lactam>  (212) 
0

>  <fr_lactone>  (212) 
0

>  <fr_methoxy>  (212) 
0

>  <fr_morpholine>  (212) 
0

>  <fr_nitrile>  (212) 
0

>  <fr_nitro>  (212) 
0

>  <fr_nitro_arom>  (212) 
0

>  <fr_nitro_arom_nonortho>  (212) 
0

>  <fr_nitroso>  (212) 
0

>  <fr_oxazole>  (212) 
0

>  <fr_oxime>  (212) 
0

>  <fr_para_hydroxylation>  (212) 
0

>  <fr_phenol>  (212) 
0

>  <fr_phenol_noOrthoHbond>  (212) 
0

>  <fr_phos_acid>  (212) 
0

>  <fr_phos_ester>  (212) 
0

>  <fr_piperdine>  (212) 
1

>  <fr_piperzine>  (212) 
0

>  <fr_priamide>  (212) 
0

>  <fr_prisulfonamd>  (212) 
0

>  <fr_pyridine>  (212) 
0

>  <fr_quatN>  (212) 
1

>  <fr_sulfide>  (212) 
0

>  <fr_sulfonamd>  (212) 
0

>  <fr_sulfone>  (212) 
0

>  <fr_term_acetylene>  (212) 
0

>  <fr_tetrazole>  (212) 
0

>  <fr_thiazole>  (212) 
0

>  <fr_thiocyan>  (212) 
0

>  <fr_thiophene>  (212) 
0

>  <fr_unbrch_alkane>  (212) 
0

>  <fr_urea>  (212) 
0

>  <NP-Likeness>  (212) 
-0.862214

$$$$
M05
     RDKit          3D

  0  0  0  0  0  0  0  0  0  0999 V3000
M  V30 BEGIN CTAB
M  V30 COUNTS 45 48 0 0 0
M  V30 BEGIN ATOM
M  V30 1 C -0.441075 -2.122550 4.801459 0
M  V30 2 N -1.526228 -2.919744 4.877618 0
M  V30 3 C -1.991719 -3.484866 3.746061 0
M  V30 4 C -1.319379 -3.210160 2.555158 0
M  V30 5 C -0.208131 -2.386819 2.513528 0
M  V30 6 N 0.307227 -2.257268 1.181338 0
M  V30 7 C -0.623728 -1.700950 0.220985 0
M  V30 8 C -0.097883 -0.317008 -0.148532 0
M  V30 9 C 1.386694 -0.231461 -0.153026 0
M  V30 10 C 1.835681 0.714584 -1.239310 0
M  V30 11 C 1.338234 2.088287 -1.100339 0
M  V30 12 C 0.190353 2.640847 -1.624062 0
M  V30 13 C -0.191043 3.950709 -1.429946 0
M  V30 14 C 0.585899 4.805147 -0.674199 0
M  V30 15 Cl 0.019212 6.430624 -0.490552 0
M  V30 16 C 1.745392 4.290649 -0.131194 0
M  V30 17 C 2.102023 2.982536 -0.339828 0
M  V30 18 N 1.811667 0.382770 1.097950 0 CHG=1 VAL=4
M  V30 19 C 2.065601 -1.558971 -0.377913 0
M  V30 20 C 1.629980 -2.600774 0.626275 0
M  V30 21 N 0.222683 -1.843647 3.665934 0
M  V30 22 C -2.073391 -3.950246 1.637474 0
M  V30 23 C -3.101106 -4.604037 2.237880 0
M  V30 24 N -3.035981 -4.304129 3.547974 0
M  V30 25 H 0.010517 -1.618966 5.666199 0
M  V30 26 H -0.619040 -2.357129 -0.678885 0
M  V30 27 H -1.644629 -1.566644 0.590461 0
M  V30 28 H -0.538359 0.395720 0.578764 0
M  V30 29 H -0.564015 -0.104697 -1.132653 0
M  V30 30 H 1.565339 0.274239 -2.222563 0
M  V30 31 H 2.960139 0.731246 -1.165722 0
M  V30 32 H -0.424079 1.993340 -2.218186 0
M  V30 33 H -1.120838 4.268268 -1.896451 0
M  V30 34 H 2.319066 4.993246 0.450158 0
M  V30 35 H 3.045670 2.729023 0.155201 0
M  V30 36 H 2.845674 0.509975 1.032473 0
M  V30 37 H 1.268039 1.258834 1.207344 0
M  V30 38 H 1.644151 -0.181170 1.933538 0
M  V30 39 H 3.157921 -1.399137 -0.305762 0
M  V30 40 H 1.842365 -1.876932 -1.413592 0
M  V30 41 H 2.363499 -2.799554 1.410991 0
M  V30 42 H 1.458072 -3.542995 0.065944 0
M  V30 43 H -1.852395 -3.988865 0.574191 0
M  V30 44 H -3.850908 -5.249013 1.799780 0
M  V30 45 H -3.668338 -4.635320 4.288182 0
M  V30 END ATOM
M  V30 BEGIN BOND
M  V30 1 2 1 2
M  V30 2 1 2 3
M  V30 3 2 3 4
M  V30 4 1 4 5
M  V30 5 1 5 6
M  V30 6 1 6 7
M  V30 7 1 7 8
M  V30 8 1 8 9
M  V30 9 1 9 10
M  V30 10 1 10 11
M  V30 11 2 11 12
M  V30 12 1 12 13
M  V30 13 2 13 14
M  V30 14 1 14 15
M  V30 15 1 14 16
M  V30 16 2 16 17
M  V30 17 1 9 18
M  V30 18 1 9 19
M  V30 19 1 19 20
M  V30 20 2 5 21
M  V30 21 1 4 22
M  V30 22 2 22 23
M  V30 23 1 23 24
M  V30 24 1 21 1
M  V30 25 1 24 3
M  V30 26 1 20 6
M  V30 27 1 17 11
M  V30 28 1 1 25
M  V30 29 1 7 26
M  V30 30 1 7 27
M  V30 31 1 8 28
M  V30 32 1 8 29
M  V30 33 1 10 30
M  V30 34 1 10 31
M  V30 35 1 12 32
M  V30 36 1 13 33
M  V30 37 1 16 34
M  V30 38 1 17 35
M  V30 39 1 18 36
M  V30 40 1 18 37
M  V30 41 1 18 38
M  V30 42 1 19 39
M  V30 43 1 19 40
M  V30 44 1 20 41
M  V30 45 1 20 42
M  V30 46 1 22 43
M  V30 47 1 23 44
M  V30 48 1 24 45
M  V30 END BOND
M  V30 END CTAB
M  END
>  <Dataset>  (213) 
PDB

>  <Ligand_Instance>  (213) 
2VO7_M05_A_1352

>  <PDB_ID>  (213) 
2VO7

>  <Standardized_SMILES>  (213) 
[H]C1=NC2=C(C(N3C([H])([H])C([H])([H])C(C([H])([H])C4=C([H])C([H])=C(Cl)C([H])=C4[H])([N+]([H])([H])[H])C([H])([H])C3([H])[H])=N1)C([H])=C([H])N2[H]

>  <Name>  (213) 
4-(4-chlorobenzyl)-1-(7H-pyrrolo[2,3-d]pyrimidin-4-yl)piperidin-4-aminium

>  <Pocket>  (213) 
A

>  <ATP_Site>  (213) 
1.0

>  <Peripheral>  (213) 
1.0

>  <Num_H_Atoms_ProtBoundConf>  (213) 
21.0

>  <Num_Resolved_Atoms>  (213) 
24.0

>  <Num_Not_Resolved_Atoms>  (213) 
0.0

>  <2D_Mol_H>  (213) 
<rdkit.Chem.rdchem.Mol object at 0x72a238df22d0>

>  <MW>  (213) 
342.854

>  <HBA>  (213) 
3

>  <HBD>  (213) 
2

>  <LogP>  (213) 
2.4349

>  <NRB>  (213) 
4

>  <TPSA>  (213) 
72.45

>  <Num_Heavy_Atoms>  (213) 
24

>  <Ro5>  (213) 
[True, True, True, True, True, True]

>  <Ro5_Fulfilled>  (213) 
True

>  <Ro3>  (213) 
[False, True, True, True]

>  <Ro3_Fulfilled>  (213) 
True

>  <Fsp3>  (213) 
0.333333

>  <Fsp3_0.42>  (213) 
False

>  <Fsp3_0.45>  (213) 
False

>  <Stereogenic_Carbons>  (213) 
0

>  <C_Atoms>  (213) 
18

>  <FCStereo>  (213) 
0.0

>  <SPS>  (213) 
416

>  <nSPS>  (213) 
17.333333

>  <PBF>  (213) 
1.180614

>  <PBF_0.6>  (213) 
True

>  <nPBF>  (213) 
0.049192

>  <nPBF_0.016>  (213) 
True

>  <PMI1>  (213) 
1132.78235

>  <PMI2>  (213) 
5432.616883

>  <PMI3>  (213) 
5765.21779

>  <NPR1>  (213) 
0.196486

>  <NPR2>  (213) 
0.942309

>  <Sum_NPR>  (213) 
1.138795

>  <Sum_NPR_1.07>  (213) 
True

>  <Sum_NPR_1.2>  (213) 
False

>  <MaxAbsEStateIndex>  (213) 
5.977488

>  <MaxEStateIndex>  (213) 
5.977488

>  <MinAbsEStateIndex>  (213) 
0.077998

>  <MinEStateIndex>  (213) 
0.077998

>  <qed>  (213) 
0.76749

>  <MolWt>  (213) 
342.854

>  <HeavyAtomMolWt>  (213) 
321.686

>  <ExactMolWt>  (213) 
342.148

>  <NumValenceElectrons>  (213) 
124

>  <NumRadicalElectrons>  (213) 
0

>  <MaxPartialCharge>  (213) 
0.142343

>  <MinPartialCharge>  (213) 
-0.355453

>  <MaxAbsPartialCharge>  (213) 
0.355453

>  <MinAbsPartialCharge>  (213) 
0.142343

>  <FpDensityMorgan1>  (213) 
1.125

>  <FpDensityMorgan2>  (213) 
1.875

>  <FpDensityMorgan3>  (213) 
2.625

>  <BCUT2D_MWHI>  (213) 
35.495692

>  <BCUT2D_MWLOW>  (213) 
9.826108

>  <BCUT2D_CHGHI>  (213) 
2.348412

>  <BCUT2D_CHGLO>  (213) 
-2.371099

>  <BCUT2D_LOGPHI>  (213) 
2.286004

>  <BCUT2D_LOGPLOW>  (213) 
-2.760567

>  <BCUT2D_MRHI>  (213) 
6.300866

>  <BCUT2D_MRLOW>  (213) 
-0.481669

>  <AvgIpc>  (213) 
3.063622

>  <BalabanJ>  (213) 
1.476756

>  <BertzCT>  (213) 
833.996222

>  <Chi0>  (213) 
16.570703

>  <Chi0n>  (213) 
13.503698

>  <Chi0v>  (213) 
14.259627

>  <Chi1>  (213) 
11.628742

>  <Chi1n>  (213) 
8.258474

>  <Chi1v>  (213) 
8.636438

>  <Chi2n>  (213) 
6.72752

>  <Chi2v>  (213) 
7.163955

>  <Chi3n>  (213) 
4.948947

>  <Chi3v>  (213) 
5.200924

>  <Chi4n>  (213) 
3.515607

>  <Chi4v>  (213) 
3.641595

>  <HallKierAlpha>  (213) 
-2.11

>  <Ipc>  (213) 
537677.887813

>  <Kappa1>  (213) 
15.419591

>  <Kappa2>  (213) 
6.072824

>  <Kappa3>  (213) 
2.969331

>  <LabuteASA>  (213) 
145.40543

>  <PEOE_VSA1>  (213) 
15.617556

>  <PEOE_VSA10>  (213) 
23.331285

>  <PEOE_VSA11>  (213) 
0.0

>  <PEOE_VSA12>  (213) 
0.0

>  <PEOE_VSA13>  (213) 
0.0

>  <PEOE_VSA14>  (213) 
0.0

>  <PEOE_VSA2>  (213) 
0.0

>  <PEOE_VSA3>  (213) 
9.967957

>  <PEOE_VSA4>  (213) 
0.0

>  <PEOE_VSA5>  (213) 
0.0

>  <PEOE_VSA6>  (213) 
23.733674

>  <PEOE_VSA7>  (213) 
23.762553

>  <PEOE_VSA8>  (213) 
43.571455

>  <PEOE_VSA9>  (213) 
5.386224

>  <SMR_VSA1>  (213) 
5.733667

>  <SMR_VSA10>  (213) 
28.452204

>  <SMR_VSA2>  (213) 
0.0

>  <SMR_VSA3>  (213) 
14.951936

>  <SMR_VSA4>  (213) 
0.0

>  <SMR_VSA5>  (213) 
24.80139

>  <SMR_VSA6>  (213) 
17.989423

>  <SMR_VSA7>  (213) 
53.442084

>  <SMR_VSA8>  (213) 
0.0

>  <SMR_VSA9>  (213) 
0.0

>  <SlogP_VSA1>  (213) 
10.633577

>  <SlogP_VSA10>  (213) 
5.817863

>  <SlogP_VSA11>  (213) 
0.0

>  <SlogP_VSA12>  (213) 
11.60094

>  <SlogP_VSA2>  (213) 
33.580374

>  <SlogP_VSA3>  (213) 
6.420822

>  <SlogP_VSA4>  (213) 
0.0

>  <SlogP_VSA5>  (213) 
18.405095

>  <SlogP_VSA6>  (213) 
42.855999

>  <SlogP_VSA7>  (213) 
5.022633

>  <SlogP_VSA8>  (213) 
11.033401

>  <SlogP_VSA9>  (213) 
0.0

>  <EState_VSA1>  (213) 
0.0

>  <EState_VSA10>  (213) 
0.0

>  <EState_VSA11>  (213) 
0.0

>  <EState_VSA2>  (213) 
5.538925

>  <EState_VSA3>  (213) 
0.0

>  <EState_VSA4>  (213) 
54.225875

>  <EState_VSA5>  (213) 
5.563451

>  <EState_VSA6>  (213) 
6.32732

>  <EState_VSA7>  (213) 
24.395945

>  <EState_VSA8>  (213) 
37.718247

>  <EState_VSA9>  (213) 
11.60094

>  <VSA_EState1>  (213) 
0.0

>  <VSA_EState10>  (213) 
5.977488

>  <VSA_EState2>  (213) 
14.27767

>  <VSA_EState3>  (213) 
1.872895

>  <VSA_EState4>  (213) 
6.806156

>  <VSA_EState5>  (213) 
1.022956

>  <VSA_EState6>  (213) 
10.173654

>  <VSA_EState7>  (213) 
6.630326

>  <VSA_EState8>  (213) 
1.9333

>  <VSA_EState9>  (213) 
0.0

>  <FractionCSP3>  (213) 
0.333333

>  <HeavyAtomCount>  (213) 
24

>  <NHOHCount>  (213) 
4

>  <NOCount>  (213) 
5

>  <NumAliphaticCarbocycles>  (213) 
0

>  <NumAliphaticHeterocycles>  (213) 
1

>  <NumAliphaticRings>  (213) 
1

>  <NumAromaticCarbocycles>  (213) 
1

>  <NumAromaticHeterocycles>  (213) 
2

>  <NAR>  (213) 
3

>  <NumHAcceptors>  (213) 
3

>  <NumHDonors>  (213) 
2

>  <NumHeteroatoms>  (213) 
6

>  <NumRotatableBonds>  (213) 
3

>  <NumSaturatedCarbocycles>  (213) 
0

>  <NumSaturatedHeterocycles>  (213) 
1

>  <NumSaturatedRings>  (213) 
1

>  <RingCount>  (213) 
4

>  <MolLogP>  (213) 
2.4349

>  <MolMR>  (213) 
96.1108

>  <fr_Al_COO>  (213) 
0

>  <fr_Al_OH>  (213) 
0

>  <fr_Al_OH_noTert>  (213) 
0

>  <fr_ArN>  (213) 
0

>  <fr_Ar_COO>  (213) 
0

>  <fr_Ar_N>  (213) 
3

>  <fr_Ar_NH>  (213) 
1

>  <fr_Ar_OH>  (213) 
0

>  <fr_COO>  (213) 
0

>  <fr_COO2>  (213) 
0

>  <fr_C_O>  (213) 
0

>  <fr_C_O_noCOO>  (213) 
0

>  <fr_C_S>  (213) 
0

>  <fr_HOCCN>  (213) 
0

>  <fr_Imine>  (213) 
0

>  <fr_NH0>  (213) 
3

>  <fr_NH1>  (213) 
1

>  <fr_NH2>  (213) 
0

>  <fr_N_O>  (213) 
0

>  <fr_Ndealkylation1>  (213) 
0

>  <fr_Ndealkylation2>  (213) 
0

>  <fr_Nhpyrrole>  (213) 
1

>  <fr_SH>  (213) 
0

>  <fr_aldehyde>  (213) 
0

>  <fr_alkyl_carbamate>  (213) 
0

>  <fr_alkyl_halide>  (213) 
0

>  <fr_allylic_oxid>  (213) 
0

>  <fr_amide>  (213) 
0

>  <fr_amidine>  (213) 
0

>  <fr_aniline>  (213) 
1

>  <fr_aryl_methyl>  (213) 
0

>  <fr_azide>  (213) 
0

>  <fr_azo>  (213) 
0

>  <fr_barbitur>  (213) 
0

>  <fr_benzene>  (213) 
1

>  <fr_benzodiazepine>  (213) 
0

>  <fr_bicyclic>  (213) 
1

>  <fr_diazo>  (213) 
0

>  <fr_dihydropyridine>  (213) 
0

>  <fr_epoxide>  (213) 
0

>  <fr_ester>  (213) 
0

>  <fr_ether>  (213) 
0

>  <fr_furan>  (213) 
0

>  <fr_guanido>  (213) 
0

>  <fr_halogen>  (213) 
1

>  <fr_hdrzine>  (213) 
0

>  <fr_hdrzone>  (213) 
0

>  <fr_imidazole>  (213) 
0

>  <fr_imide>  (213) 
0

>  <fr_isocyan>  (213) 
0

>  <fr_isothiocyan>  (213) 
0

>  <fr_ketone>  (213) 
0

>  <fr_ketone_Topliss>  (213) 
0

>  <fr_lactam>  (213) 
0

>  <fr_lactone>  (213) 
0

>  <fr_methoxy>  (213) 
0

>  <fr_morpholine>  (213) 
0

>  <fr_nitrile>  (213) 
0

>  <fr_nitro>  (213) 
0

>  <fr_nitro_arom>  (213) 
0

>  <fr_nitro_arom_nonortho>  (213) 
0

>  <fr_nitroso>  (213) 
0

>  <fr_oxazole>  (213) 
0

>  <fr_oxime>  (213) 
0

>  <fr_para_hydroxylation>  (213) 
0

>  <fr_phenol>  (213) 
0

>  <fr_phenol_noOrthoHbond>  (213) 
0

>  <fr_phos_acid>  (213) 
0

>  <fr_phos_ester>  (213) 
0

>  <fr_piperdine>  (213) 
1

>  <fr_piperzine>  (213) 
0

>  <fr_priamide>  (213) 
0

>  <fr_prisulfonamd>  (213) 
0

>  <fr_pyridine>  (213) 
0

>  <fr_quatN>  (213) 
1

>  <fr_sulfide>  (213) 
0

>  <fr_sulfonamd>  (213) 
0

>  <fr_sulfone>  (213) 
0

>  <fr_term_acetylene>  (213) 
0

>  <fr_tetrazole>  (213) 
0

>  <fr_thiazole>  (213) 
0

>  <fr_thiocyan>  (213) 
0

>  <fr_thiophene>  (213) 
0

>  <fr_unbrch_alkane>  (213) 
0

>  <fr_urea>  (213) 
0

>  <NP-Likeness>  (213) 
-0.862214

$$$$
M77
     RDKit          3D

  0  0  0  0  0  0  0  0  0  0999 V3000
M  V30 BEGIN CTAB
M  V30 COUNTS 38 40 0 0 0
M  V30 BEGIN ATOM
M  V30 1 C -2.091233 -1.594385 2.906302 0
M  V30 2 N -1.680960 -2.182747 4.052633 0
M  V30 3 C -0.515018 -2.873413 4.068147 0
M  V30 4 C 0.308292 -3.018951 2.949866 0
M  V30 5 C 1.477432 -3.728316 2.977587 0
M  V30 6 C 2.226080 -3.832341 1.825455 0
M  V30 7 C 1.734822 -3.202489 0.708487 0
M  V30 8 C 0.564073 -2.469575 0.608116 0
M  V30 9 S 0.153480 -1.711980 -0.909636 0
M  V30 10 O 1.120955 -2.188711 -1.956254 0
M  V30 11 O -1.213305 -2.211529 -1.356205 0
M  V30 12 N 0.221570 -0.043553 -0.754317 0
M  V30 13 C -0.956161 0.717369 -0.907329 0
M  V30 14 C -1.082648 1.570010 0.352111 0
M  V30 15 C -0.538303 2.937253 0.007692 0
M  V30 16 N 0.781616 2.910681 -0.541566 0 CHG=1 VAL=4
M  V30 17 C 1.606094 1.818971 -0.110650 0
M  V30 18 C 1.458747 0.591858 -1.016364 0
M  V30 19 C -0.119637 -2.417616 1.797989 0
M  V30 20 C -1.299136 -1.726569 1.804330 0
M  V30 21 H -3.021231 -1.072583 2.989308 0
M  V30 22 H -0.125285 -3.374636 4.965651 0
M  V30 23 H 1.804015 -4.198167 3.892934 0
M  V30 24 H 3.142572 -4.382001 1.823371 0
M  V30 25 H 2.368160 -3.315768 -0.181551 0
M  V30 26 H -0.940805 1.393619 -1.811666 0
M  V30 27 H -1.838858 0.072782 -1.071266 0
M  V30 28 H -2.128197 1.691131 0.673260 0
M  V30 29 H -0.525334 1.156236 1.201014 0
M  V30 30 H -0.670020 3.656138 0.820389 0
M  V30 31 H -1.207644 3.306794 -0.823964 0
M  V30 32 H 0.772037 2.858704 -1.603737 0
M  V30 33 H 1.252393 3.816104 -0.240274 0
M  V30 34 H 1.477504 1.565846 0.953541 0
M  V30 35 H 2.673483 2.139389 -0.233128 0
M  V30 36 H 1.670633 0.892209 -2.040332 0
M  V30 37 H 2.266702 -0.105228 -0.649383 0
M  V30 38 H -1.652164 -1.265669 0.911621 0
M  V30 END ATOM
M  V30 BEGIN BOND
M  V30 1 2 1 2
M  V30 2 1 2 3
M  V30 3 2 3 4
M  V30 4 1 4 5
M  V30 5 2 5 6
M  V30 6 1 6 7
M  V30 7 2 7 8
M  V30 8 1 8 9
M  V30 9 2 9 10
M  V30 10 2 9 11
M  V30 11 1 9 12
M  V30 12 1 12 13
M  V30 13 1 13 14
M  V30 14 1 14 15
M  V30 15 1 15 16
M  V30 16 1 16 17
M  V30 17 1 17 18
M  V30 18 1 8 19
M  V30 19 2 19 20
M  V30 20 1 20 1
M  V30 21 1 19 4
M  V30 22 1 18 12
M  V30 23 1 1 21
M  V30 24 1 3 22
M  V30 25 1 5 23
M  V30 26 1 6 24
M  V30 27 1 7 25
M  V30 28 1 13 26
M  V30 29 1 13 27
M  V30 30 1 14 28
M  V30 31 1 14 29
M  V30 32 1 15 30
M  V30 33 1 15 31
M  V30 34 1 16 32
M  V30 35 1 16 33
M  V30 36 1 17 34
M  V30 37 1 17 35
M  V30 38 1 18 36
M  V30 39 1 18 37
M  V30 40 1 20 38
M  V30 END BOND
M  V30 END CTAB
M  END
>  <Dataset>  (214) 
PDB

>  <Ligand_Instance>  (214) 
2GNI_M77_A_601

>  <PDB_ID>  (214) 
2GNI

>  <Standardized_SMILES>  (214) 
[H]C1=NC([H])=C2C([H])=C([H])C([H])=C(S(=O)(=O)N3C([H])([H])C([H])([H])C([H])([H])[N+]([H])([H])C([H])([H])C3([H])[H])C2=C1[H]

>  <Name>  (214) 
5-(1,4-DIAZEPAN-1-SULFONYL)ISOQUINOLINE

>  <Pocket>  (214) 
A

>  <ATP_Site>  (214) 
1.0

>  <Peripheral>  (214) 
0.0

>  <Num_H_Atoms_ProtBoundConf>  (214) 
18.0

>  <Num_Resolved_Atoms>  (214) 
20.0

>  <Num_Not_Resolved_Atoms>  (214) 
0.0

>  <2D_Mol_H>  (214) 
<rdkit.Chem.rdchem.Mol object at 0x72a238df23b0>

>  <MW>  (214) 
292.384

>  <HBA>  (214) 
3

>  <HBD>  (214) 
1

>  <LogP>  (214) 
0.1926

>  <NRB>  (214) 
2

>  <TPSA>  (214) 
66.88

>  <Num_Heavy_Atoms>  (214) 
20

>  <Ro5>  (214) 
[True, True, True, True, True, True]

>  <Ro5_Fulfilled>  (214) 
True

>  <Ro3>  (214) 
[True, True, True, True]

>  <Ro3_Fulfilled>  (214) 
True

>  <Fsp3>  (214) 
0.357143

>  <Fsp3_0.42>  (214) 
False

>  <Fsp3_0.45>  (214) 
False

>  <Stereogenic_Carbons>  (214) 
0

>  <C_Atoms>  (214) 
14

>  <FCStereo>  (214) 
0.0

>  <SPS>  (214) 
360

>  <nSPS>  (214) 
18.0

>  <PBF>  (214) 
0.955979

>  <PBF_0.6>  (214) 
True

>  <nPBF>  (214) 
0.047799

>  <nPBF_0.016>  (214) 
True

>  <PMI1>  (214) 
1047.932543

>  <PMI2>  (214) 
1984.607315

>  <PMI3>  (214) 
2366.363565

>  <NPR1>  (214) 
0.442845

>  <NPR2>  (214) 
0.838674

>  <Sum_NPR>  (214) 
1.281519

>  <Sum_NPR_1.07>  (214) 
True

>  <Sum_NPR_1.2>  (214) 
True

>  <MaxAbsEStateIndex>  (214) 
12.845614

>  <MaxEStateIndex>  (214) 
12.845614

>  <MinAbsEStateIndex>  (214) 
0.388241

>  <MinEStateIndex>  (214) 
-3.426412

>  <qed>  (214) 
0.859215

>  <MolWt>  (214) 
292.384

>  <HeavyAtomMolWt>  (214) 
274.24

>  <ExactMolWt>  (214) 
292.111424

>  <NumValenceElectrons>  (214) 
106

>  <NumRadicalElectrons>  (214) 
0

>  <MaxPartialCharge>  (214) 
0.243397

>  <MinPartialCharge>  (214) 
-0.345118

>  <MaxAbsPartialCharge>  (214) 
0.345118

>  <MinAbsPartialCharge>  (214) 
0.243397

>  <FpDensityMorgan1>  (214) 
1.15

>  <FpDensityMorgan2>  (214) 
2.05

>  <FpDensityMorgan3>  (214) 
2.95

>  <BCUT2D_MWHI>  (214) 
32.233427

>  <BCUT2D_MWLOW>  (214) 
10.168311

>  <BCUT2D_CHGHI>  (214) 
2.268872

>  <BCUT2D_CHGLO>  (214) 
-2.192579

>  <BCUT2D_LOGPHI>  (214) 
2.246607

>  <BCUT2D_LOGPLOW>  (214) 
-2.843702

>  <BCUT2D_MRHI>  (214) 
7.889641

>  <BCUT2D_MRLOW>  (214) 
-0.650697

>  <AvgIpc>  (214) 
2.759566

>  <BalabanJ>  (214) 
2.085841

>  <BertzCT>  (214) 
701.935726

>  <Chi0>  (214) 
14.001789

>  <Chi0n>  (214) 
11.196158

>  <Chi0v>  (214) 
12.012654

>  <Chi1>  (214) 
9.693507

>  <Chi1n>  (214) 
6.840082

>  <Chi1v>  (214) 
8.280145

>  <Chi2n>  (214) 
4.976624

>  <Chi2v>  (214) 
6.882981

>  <Chi3n>  (214) 
3.656948

>  <Chi3v>  (214) 
5.613741

>  <Chi4n>  (214) 
2.60061

>  <Chi4v>  (214) 
4.308342

>  <HallKierAlpha>  (214) 
-1.5

>  <Ipc>  (214) 
56228.921022

>  <Kappa1>  (214) 
13.481559

>  <Kappa2>  (214) 
5.47472

>  <Kappa3>  (214) 
2.416781

>  <LabuteASA>  (214) 
118.222067

>  <PEOE_VSA1>  (214) 
5.316789

>  <PEOE_VSA10>  (214) 
0.0

>  <PEOE_VSA11>  (214) 
0.0

>  <PEOE_VSA12>  (214) 
10.023291

>  <PEOE_VSA13>  (214) 
0.0

>  <PEOE_VSA14>  (214) 
0.0

>  <PEOE_VSA2>  (214) 
4.983979

>  <PEOE_VSA3>  (214) 
8.417797

>  <PEOE_VSA4>  (214) 
4.305216

>  <PEOE_VSA5>  (214) 
0.0

>  <PEOE_VSA6>  (214) 
12.132734

>  <PEOE_VSA7>  (214) 
12.132734

>  <PEOE_VSA8>  (214) 
36.131714

>  <PEOE_VSA9>  (214) 
24.529753

>  <SMR_VSA1>  (214) 
13.734586

>  <SMR_VSA10>  (214) 
20.79574

>  <SMR_VSA2>  (214) 
0.0

>  <SMR_VSA3>  (214) 
9.289195

>  <SMR_VSA4>  (214) 
0.0

>  <SMR_VSA5>  (214) 
11.316305

>  <SMR_VSA6>  (214) 
26.179026

>  <SMR_VSA7>  (214) 
36.659155

>  <SMR_VSA8>  (214) 
0.0

>  <SMR_VSA9>  (214) 
0.0

>  <SlogP_VSA1>  (214) 
5.316789

>  <SlogP_VSA10>  (214) 
0.0

>  <SlogP_VSA11>  (214) 
0.0

>  <SlogP_VSA12>  (214) 
0.0

>  <SlogP_VSA2>  (214) 
43.886017

>  <SlogP_VSA3>  (214) 
10.023291

>  <SlogP_VSA4>  (214) 
0.0

>  <SlogP_VSA5>  (214) 
6.420822

>  <SlogP_VSA6>  (214) 
41.554639

>  <SlogP_VSA7>  (214) 
0.0

>  <SlogP_VSA8>  (214) 
10.772448

>  <SlogP_VSA9>  (214) 
0.0

>  <EState_VSA1>  (214) 
10.023291

>  <EState_VSA10>  (214) 
8.417797

>  <EState_VSA11>  (214) 
0.0

>  <EState_VSA2>  (214) 
0.0

>  <EState_VSA3>  (214) 
17.984996

>  <EState_VSA4>  (214) 
30.282783

>  <EState_VSA5>  (214) 
0.0

>  <EState_VSA6>  (214) 
34.898004

>  <EState_VSA7>  (214) 
6.066367

>  <EState_VSA8>  (214) 
10.300767

>  <EState_VSA9>  (214) 
0.0

>  <VSA_EState1>  (214) 
27.294107

>  <VSA_EState10>  (214) 
0.0

>  <VSA_EState2>  (214) 
4.43837

>  <VSA_EState3>  (214) 
3.771674

>  <VSA_EState4>  (214) 
0.0

>  <VSA_EState5>  (214) 
0.0

>  <VSA_EState6>  (214) 
7.121861

>  <VSA_EState7>  (214) 
4.229827

>  <VSA_EState8>  (214) 
2.98724

>  <VSA_EState9>  (214) 
-3.426412

>  <FractionCSP3>  (214) 
0.357143

>  <HeavyAtomCount>  (214) 
20

>  <NHOHCount>  (214) 
2

>  <NOCount>  (214) 
5

>  <NumAliphaticCarbocycles>  (214) 
0

>  <NumAliphaticHeterocycles>  (214) 
1

>  <NumAliphaticRings>  (214) 
1

>  <NumAromaticCarbocycles>  (214) 
1

>  <NumAromaticHeterocycles>  (214) 
1

>  <NAR>  (214) 
2

>  <NumHAcceptors>  (214) 
3

>  <NumHDonors>  (214) 
1

>  <NumHeteroatoms>  (214) 
6

>  <NumRotatableBonds>  (214) 
2

>  <NumSaturatedCarbocycles>  (214) 
0

>  <NumSaturatedHeterocycles>  (214) 
1

>  <NumSaturatedRings>  (214) 
1

>  <RingCount>  (214) 
3

>  <MolLogP>  (214) 
0.1926

>  <MolMR>  (214) 
76.7782

>  <fr_Al_COO>  (214) 
0

>  <fr_Al_OH>  (214) 
0

>  <fr_Al_OH_noTert>  (214) 
0

>  <fr_ArN>  (214) 
0

>  <fr_Ar_COO>  (214) 
0

>  <fr_Ar_N>  (214) 
1

>  <fr_Ar_NH>  (214) 
0

>  <fr_Ar_OH>  (214) 
0

>  <fr_COO>  (214) 
0

>  <fr_COO2>  (214) 
0

>  <fr_C_O>  (214) 
0

>  <fr_C_O_noCOO>  (214) 
0

>  <fr_C_S>  (214) 
0

>  <fr_HOCCN>  (214) 
0

>  <fr_Imine>  (214) 
0

>  <fr_NH0>  (214) 
2

>  <fr_NH1>  (214) 
0

>  <fr_NH2>  (214) 
1

>  <fr_N_O>  (214) 
0

>  <fr_Ndealkylation1>  (214) 
0

>  <fr_Ndealkylation2>  (214) 
0

>  <fr_Nhpyrrole>  (214) 
0

>  <fr_SH>  (214) 
0

>  <fr_aldehyde>  (214) 
0

>  <fr_alkyl_carbamate>  (214) 
0

>  <fr_alkyl_halide>  (214) 
0

>  <fr_allylic_oxid>  (214) 
0

>  <fr_amide>  (214) 
0

>  <fr_amidine>  (214) 
0

>  <fr_aniline>  (214) 
0

>  <fr_aryl_methyl>  (214) 
0

>  <fr_azide>  (214) 
0

>  <fr_azo>  (214) 
0

>  <fr_barbitur>  (214) 
0

>  <fr_benzene>  (214) 
1

>  <fr_benzodiazepine>  (214) 
0

>  <fr_bicyclic>  (214) 
1

>  <fr_diazo>  (214) 
0

>  <fr_dihydropyridine>  (214) 
0

>  <fr_epoxide>  (214) 
0

>  <fr_ester>  (214) 
0

>  <fr_ether>  (214) 
0

>  <fr_furan>  (214) 
0

>  <fr_guanido>  (214) 
0

>  <fr_halogen>  (214) 
0

>  <fr_hdrzine>  (214) 
0

>  <fr_hdrzone>  (214) 
0

>  <fr_imidazole>  (214) 
0

>  <fr_imide>  (214) 
0

>  <fr_isocyan>  (214) 
0

>  <fr_isothiocyan>  (214) 
0

>  <fr_ketone>  (214) 
0

>  <fr_ketone_Topliss>  (214) 
0

>  <fr_lactam>  (214) 
0

>  <fr_lactone>  (214) 
0

>  <fr_methoxy>  (214) 
0

>  <fr_morpholine>  (214) 
0

>  <fr_nitrile>  (214) 
0

>  <fr_nitro>  (214) 
0

>  <fr_nitro_arom>  (214) 
0

>  <fr_nitro_arom_nonortho>  (214) 
0

>  <fr_nitroso>  (214) 
0

>  <fr_oxazole>  (214) 
0

>  <fr_oxime>  (214) 
0

>  <fr_para_hydroxylation>  (214) 
0

>  <fr_phenol>  (214) 
0

>  <fr_phenol_noOrthoHbond>  (214) 
0

>  <fr_phos_acid>  (214) 
0

>  <fr_phos_ester>  (214) 
0

>  <fr_piperdine>  (214) 
0

>  <fr_piperzine>  (214) 
0

>  <fr_priamide>  (214) 
0

>  <fr_prisulfonamd>  (214) 
0

>  <fr_pyridine>  (214) 
1

>  <fr_quatN>  (214) 
1

>  <fr_sulfide>  (214) 
0

>  <fr_sulfonamd>  (214) 
1

>  <fr_sulfone>  (214) 
0

>  <fr_term_acetylene>  (214) 
0

>  <fr_tetrazole>  (214) 
0

>  <fr_thiazole>  (214) 
0

>  <fr_thiocyan>  (214) 
0

>  <fr_thiophene>  (214) 
0

>  <fr_unbrch_alkane>  (214) 
0

>  <fr_urea>  (214) 
0

>  <NP-Likeness>  (214) 
-1.563087

$$$$
M77
     RDKit          3D

  0  0  0  0  0  0  0  0  0  0999 V3000
M  V30 BEGIN CTAB
M  V30 COUNTS 38 40 0 0 0
M  V30 BEGIN ATOM
M  V30 1 C -2.091233 -1.594385 2.906302 0
M  V30 2 N -1.680960 -2.182747 4.052633 0
M  V30 3 C -0.515018 -2.873413 4.068147 0
M  V30 4 C 0.308292 -3.018951 2.949866 0
M  V30 5 C 1.477432 -3.728316 2.977587 0
M  V30 6 C 2.226080 -3.832341 1.825455 0
M  V30 7 C 1.734822 -3.202489 0.708487 0
M  V30 8 C 0.564073 -2.469575 0.608116 0
M  V30 9 S 0.153480 -1.711980 -0.909636 0
M  V30 10 O 1.120955 -2.188711 -1.956254 0
M  V30 11 O -1.213305 -2.211529 -1.356205 0
M  V30 12 N 0.221570 -0.043553 -0.754317 0
M  V30 13 C -0.956161 0.717369 -0.907329 0
M  V30 14 C -1.082648 1.570010 0.352111 0
M  V30 15 C -0.538303 2.937253 0.007692 0
M  V30 16 N 0.781616 2.910681 -0.541566 0 CHG=1 VAL=4
M  V30 17 C 1.606094 1.818971 -0.110650 0
M  V30 18 C 1.458747 0.591858 -1.016364 0
M  V30 19 C -0.119637 -2.417616 1.797989 0
M  V30 20 C -1.299136 -1.726569 1.804330 0
M  V30 21 H -3.021231 -1.072583 2.989308 0
M  V30 22 H -0.125285 -3.374636 4.965651 0
M  V30 23 H 1.804015 -4.198167 3.892934 0
M  V30 24 H 3.142572 -4.382001 1.823371 0
M  V30 25 H 2.368160 -3.315768 -0.181551 0
M  V30 26 H -0.940805 1.393619 -1.811666 0
M  V30 27 H -1.838858 0.072782 -1.071266 0
M  V30 28 H -2.128197 1.691131 0.673260 0
M  V30 29 H -0.525334 1.156236 1.201014 0
M  V30 30 H -0.670020 3.656138 0.820389 0
M  V30 31 H -1.207644 3.306794 -0.823964 0
M  V30 32 H 0.772037 2.858704 -1.603737 0
M  V30 33 H 1.252393 3.816104 -0.240274 0
M  V30 34 H 1.477504 1.565846 0.953541 0
M  V30 35 H 2.673483 2.139389 -0.233128 0
M  V30 36 H 1.670633 0.892209 -2.040332 0
M  V30 37 H 2.266702 -0.105228 -0.649383 0
M  V30 38 H -1.652164 -1.265669 0.911621 0
M  V30 END ATOM
M  V30 BEGIN BOND
M  V30 1 2 1 2
M  V30 2 1 2 3
M  V30 3 2 3 4
M  V30 4 1 4 5
M  V30 5 2 5 6
M  V30 6 1 6 7
M  V30 7 2 7 8
M  V30 8 1 8 9
M  V30 9 2 9 10
M  V30 10 2 9 11
M  V30 11 1 9 12
M  V30 12 1 12 13
M  V30 13 1 13 14
M  V30 14 1 14 15
M  V30 15 1 15 16
M  V30 16 1 16 17
M  V30 17 1 17 18
M  V30 18 1 8 19
M  V30 19 2 19 20
M  V30 20 1 20 1
M  V30 21 1 19 4
M  V30 22 1 18 12
M  V30 23 1 1 21
M  V30 24 1 3 22
M  V30 25 1 5 23
M  V30 26 1 6 24
M  V30 27 1 7 25
M  V30 28 1 13 26
M  V30 29 1 13 27
M  V30 30 1 14 28
M  V30 31 1 14 29
M  V30 32 1 15 30
M  V30 33 1 15 31
M  V30 34 1 16 32
M  V30 35 1 16 33
M  V30 36 1 17 34
M  V30 37 1 17 35
M  V30 38 1 18 36
M  V30 39 1 18 37
M  V30 40 1 20 38
M  V30 END BOND
M  V30 END CTAB
M  END
>  <Dataset>  (215) 
PDB

>  <Ligand_Instance>  (215) 
5LCP_M77_A_401

>  <PDB_ID>  (215) 
5LCP

>  <Standardized_SMILES>  (215) 
[H]C1=NC([H])=C2C([H])=C([H])C([H])=C(S(=O)(=O)N3C([H])([H])C([H])([H])C([H])([H])[N+]([H])([H])C([H])([H])C3([H])[H])C2=C1[H]

>  <Name>  (215) 
5-(1,4-DIAZEPAN-1-SULFONYL)ISOQUINOLINE

>  <Pocket>  (215) 
A

>  <ATP_Site>  (215) 
1.0

>  <Peripheral>  (215) 
0.0

>  <Num_H_Atoms_ProtBoundConf>  (215) 
18.0

>  <Num_Resolved_Atoms>  (215) 
20.0

>  <Num_Not_Resolved_Atoms>  (215) 
0.0

>  <2D_Mol_H>  (215) 
<rdkit.Chem.rdchem.Mol object at 0x72a238df2490>

>  <MW>  (215) 
292.384

>  <HBA>  (215) 
3

>  <HBD>  (215) 
1

>  <LogP>  (215) 
0.1926

>  <NRB>  (215) 
2

>  <TPSA>  (215) 
66.88

>  <Num_Heavy_Atoms>  (215) 
20

>  <Ro5>  (215) 
[True, True, True, True, True, True]

>  <Ro5_Fulfilled>  (215) 
True

>  <Ro3>  (215) 
[True, True, True, True]

>  <Ro3_Fulfilled>  (215) 
True

>  <Fsp3>  (215) 
0.357143

>  <Fsp3_0.42>  (215) 
False

>  <Fsp3_0.45>  (215) 
False

>  <Stereogenic_Carbons>  (215) 
0

>  <C_Atoms>  (215) 
14

>  <FCStereo>  (215) 
0.0

>  <SPS>  (215) 
360

>  <nSPS>  (215) 
18.0

>  <PBF>  (215) 
0.955979

>  <PBF_0.6>  (215) 
True

>  <nPBF>  (215) 
0.047799

>  <nPBF_0.016>  (215) 
True

>  <PMI1>  (215) 
1047.932543

>  <PMI2>  (215) 
1984.607315

>  <PMI3>  (215) 
2366.363565

>  <NPR1>  (215) 
0.442845

>  <NPR2>  (215) 
0.838674

>  <Sum_NPR>  (215) 
1.281519

>  <Sum_NPR_1.07>  (215) 
True

>  <Sum_NPR_1.2>  (215) 
True

>  <MaxAbsEStateIndex>  (215) 
12.845614

>  <MaxEStateIndex>  (215) 
12.845614

>  <MinAbsEStateIndex>  (215) 
0.388241

>  <MinEStateIndex>  (215) 
-3.426412

>  <qed>  (215) 
0.859215

>  <MolWt>  (215) 
292.384

>  <HeavyAtomMolWt>  (215) 
274.24

>  <ExactMolWt>  (215) 
292.111424

>  <NumValenceElectrons>  (215) 
106

>  <NumRadicalElectrons>  (215) 
0

>  <MaxPartialCharge>  (215) 
0.243397

>  <MinPartialCharge>  (215) 
-0.345118

>  <MaxAbsPartialCharge>  (215) 
0.345118

>  <MinAbsPartialCharge>  (215) 
0.243397

>  <FpDensityMorgan1>  (215) 
1.15

>  <FpDensityMorgan2>  (215) 
2.05

>  <FpDensityMorgan3>  (215) 
2.95

>  <BCUT2D_MWHI>  (215) 
32.233427

>  <BCUT2D_MWLOW>  (215) 
10.168311

>  <BCUT2D_CHGHI>  (215) 
2.268872

>  <BCUT2D_CHGLO>  (215) 
-2.192579

>  <BCUT2D_LOGPHI>  (215) 
2.246607

>  <BCUT2D_LOGPLOW>  (215) 
-2.843702

>  <BCUT2D_MRHI>  (215) 
7.889641

>  <BCUT2D_MRLOW>  (215) 
-0.650697

>  <AvgIpc>  (215) 
2.759566

>  <BalabanJ>  (215) 
2.085841

>  <BertzCT>  (215) 
701.935726

>  <Chi0>  (215) 
14.001789

>  <Chi0n>  (215) 
11.196158

>  <Chi0v>  (215) 
12.012654

>  <Chi1>  (215) 
9.693507

>  <Chi1n>  (215) 
6.840082

>  <Chi1v>  (215) 
8.280145

>  <Chi2n>  (215) 
4.976624

>  <Chi2v>  (215) 
6.882981

>  <Chi3n>  (215) 
3.656948

>  <Chi3v>  (215) 
5.613741

>  <Chi4n>  (215) 
2.60061

>  <Chi4v>  (215) 
4.308342

>  <HallKierAlpha>  (215) 
-1.5

>  <Ipc>  (215) 
56228.921022

>  <Kappa1>  (215) 
13.481559

>  <Kappa2>  (215) 
5.47472

>  <Kappa3>  (215) 
2.416781

>  <LabuteASA>  (215) 
118.222067

>  <PEOE_VSA1>  (215) 
5.316789

>  <PEOE_VSA10>  (215) 
0.0

>  <PEOE_VSA11>  (215) 
0.0

>  <PEOE_VSA12>  (215) 
10.023291

>  <PEOE_VSA13>  (215) 
0.0

>  <PEOE_VSA14>  (215) 
0.0

>  <PEOE_VSA2>  (215) 
4.983979

>  <PEOE_VSA3>  (215) 
8.417797

>  <PEOE_VSA4>  (215) 
4.305216

>  <PEOE_VSA5>  (215) 
0.0

>  <PEOE_VSA6>  (215) 
12.132734

>  <PEOE_VSA7>  (215) 
12.132734

>  <PEOE_VSA8>  (215) 
36.131714

>  <PEOE_VSA9>  (215) 
24.529753

>  <SMR_VSA1>  (215) 
13.734586

>  <SMR_VSA10>  (215) 
20.79574

>  <SMR_VSA2>  (215) 
0.0

>  <SMR_VSA3>  (215) 
9.289195

>  <SMR_VSA4>  (215) 
0.0

>  <SMR_VSA5>  (215) 
11.316305

>  <SMR_VSA6>  (215) 
26.179026

>  <SMR_VSA7>  (215) 
36.659155

>  <SMR_VSA8>  (215) 
0.0

>  <SMR_VSA9>  (215) 
0.0

>  <SlogP_VSA1>  (215) 
5.316789

>  <SlogP_VSA10>  (215) 
0.0

>  <SlogP_VSA11>  (215) 
0.0

>  <SlogP_VSA12>  (215) 
0.0

>  <SlogP_VSA2>  (215) 
43.886017

>  <SlogP_VSA3>  (215) 
10.023291

>  <SlogP_VSA4>  (215) 
0.0

>  <SlogP_VSA5>  (215) 
6.420822

>  <SlogP_VSA6>  (215) 
41.554639

>  <SlogP_VSA7>  (215) 
0.0

>  <SlogP_VSA8>  (215) 
10.772448

>  <SlogP_VSA9>  (215) 
0.0

>  <EState_VSA1>  (215) 
10.023291

>  <EState_VSA10>  (215) 
8.417797

>  <EState_VSA11>  (215) 
0.0

>  <EState_VSA2>  (215) 
0.0

>  <EState_VSA3>  (215) 
17.984996

>  <EState_VSA4>  (215) 
30.282783

>  <EState_VSA5>  (215) 
0.0

>  <EState_VSA6>  (215) 
34.898004

>  <EState_VSA7>  (215) 
6.066367

>  <EState_VSA8>  (215) 
10.300767

>  <EState_VSA9>  (215) 
0.0

>  <VSA_EState1>  (215) 
27.294107

>  <VSA_EState10>  (215) 
0.0

>  <VSA_EState2>  (215) 
4.43837

>  <VSA_EState3>  (215) 
3.771674

>  <VSA_EState4>  (215) 
0.0

>  <VSA_EState5>  (215) 
0.0

>  <VSA_EState6>  (215) 
7.121861

>  <VSA_EState7>  (215) 
4.229827

>  <VSA_EState8>  (215) 
2.98724

>  <VSA_EState9>  (215) 
-3.426412

>  <FractionCSP3>  (215) 
0.357143

>  <HeavyAtomCount>  (215) 
20

>  <NHOHCount>  (215) 
2

>  <NOCount>  (215) 
5

>  <NumAliphaticCarbocycles>  (215) 
0

>  <NumAliphaticHeterocycles>  (215) 
1

>  <NumAliphaticRings>  (215) 
1

>  <NumAromaticCarbocycles>  (215) 
1

>  <NumAromaticHeterocycles>  (215) 
1

>  <NAR>  (215) 
2

>  <NumHAcceptors>  (215) 
3

>  <NumHDonors>  (215) 
1

>  <NumHeteroatoms>  (215) 
6

>  <NumRotatableBonds>  (215) 
2

>  <NumSaturatedCarbocycles>  (215) 
0

>  <NumSaturatedHeterocycles>  (215) 
1

>  <NumSaturatedRings>  (215) 
1

>  <RingCount>  (215) 
3

>  <MolLogP>  (215) 
0.1926

>  <MolMR>  (215) 
76.7782

>  <fr_Al_COO>  (215) 
0

>  <fr_Al_OH>  (215) 
0

>  <fr_Al_OH_noTert>  (215) 
0

>  <fr_ArN>  (215) 
0

>  <fr_Ar_COO>  (215) 
0

>  <fr_Ar_N>  (215) 
1

>  <fr_Ar_NH>  (215) 
0

>  <fr_Ar_OH>  (215) 
0

>  <fr_COO>  (215) 
0

>  <fr_COO2>  (215) 
0

>  <fr_C_O>  (215) 
0

>  <fr_C_O_noCOO>  (215) 
0

>  <fr_C_S>  (215) 
0

>  <fr_HOCCN>  (215) 
0

>  <fr_Imine>  (215) 
0

>  <fr_NH0>  (215) 
2

>  <fr_NH1>  (215) 
0

>  <fr_NH2>  (215) 
1

>  <fr_N_O>  (215) 
0

>  <fr_Ndealkylation1>  (215) 
0

>  <fr_Ndealkylation2>  (215) 
0

>  <fr_Nhpyrrole>  (215) 
0

>  <fr_SH>  (215) 
0

>  <fr_aldehyde>  (215) 
0

>  <fr_alkyl_carbamate>  (215) 
0

>  <fr_alkyl_halide>  (215) 
0

>  <fr_allylic_oxid>  (215) 
0

>  <fr_amide>  (215) 
0

>  <fr_amidine>  (215) 
0

>  <fr_aniline>  (215) 
0

>  <fr_aryl_methyl>  (215) 
0

>  <fr_azide>  (215) 
0

>  <fr_azo>  (215) 
0

>  <fr_barbitur>  (215) 
0

>  <fr_benzene>  (215) 
1

>  <fr_benzodiazepine>  (215) 
0

>  <fr_bicyclic>  (215) 
1

>  <fr_diazo>  (215) 
0

>  <fr_dihydropyridine>  (215) 
0

>  <fr_epoxide>  (215) 
0

>  <fr_ester>  (215) 
0

>  <fr_ether>  (215) 
0

>  <fr_furan>  (215) 
0

>  <fr_guanido>  (215) 
0

>  <fr_halogen>  (215) 
0

>  <fr_hdrzine>  (215) 
0

>  <fr_hdrzone>  (215) 
0

>  <fr_imidazole>  (215) 
0

>  <fr_imide>  (215) 
0

>  <fr_isocyan>  (215) 
0

>  <fr_isothiocyan>  (215) 
0

>  <fr_ketone>  (215) 
0

>  <fr_ketone_Topliss>  (215) 
0

>  <fr_lactam>  (215) 
0

>  <fr_lactone>  (215) 
0

>  <fr_methoxy>  (215) 
0

>  <fr_morpholine>  (215) 
0

>  <fr_nitrile>  (215) 
0

>  <fr_nitro>  (215) 
0

>  <fr_nitro_arom>  (215) 
0

>  <fr_nitro_arom_nonortho>  (215) 
0

>  <fr_nitroso>  (215) 
0

>  <fr_oxazole>  (215) 
0

>  <fr_oxime>  (215) 
0

>  <fr_para_hydroxylation>  (215) 
0

>  <fr_phenol>  (215) 
0

>  <fr_phenol_noOrthoHbond>  (215) 
0

>  <fr_phos_acid>  (215) 
0

>  <fr_phos_ester>  (215) 
0

>  <fr_piperdine>  (215) 
0

>  <fr_piperzine>  (215) 
0

>  <fr_priamide>  (215) 
0

>  <fr_prisulfonamd>  (215) 
0

>  <fr_pyridine>  (215) 
1

>  <fr_quatN>  (215) 
1

>  <fr_sulfide>  (215) 
0

>  <fr_sulfonamd>  (215) 
1

>  <fr_sulfone>  (215) 
0

>  <fr_term_acetylene>  (215) 
0

>  <fr_tetrazole>  (215) 
0

>  <fr_thiazole>  (215) 
0

>  <fr_thiocyan>  (215) 
0

>  <fr_thiophene>  (215) 
0

>  <fr_unbrch_alkane>  (215) 
0

>  <fr_urea>  (215) 
0

>  <NP-Likeness>  (215) 
-1.563087

$$$$
M77
     RDKit          3D

  0  0  0  0  0  0  0  0  0  0999 V3000
M  V30 BEGIN CTAB
M  V30 COUNTS 38 40 0 0 0
M  V30 BEGIN ATOM
M  V30 1 C -2.091233 -1.594385 2.906302 0
M  V30 2 N -1.680960 -2.182747 4.052633 0
M  V30 3 C -0.515018 -2.873413 4.068147 0
M  V30 4 C 0.308292 -3.018951 2.949866 0
M  V30 5 C 1.477432 -3.728316 2.977587 0
M  V30 6 C 2.226080 -3.832341 1.825455 0
M  V30 7 C 1.734822 -3.202489 0.708487 0
M  V30 8 C 0.564073 -2.469575 0.608116 0
M  V30 9 S 0.153480 -1.711980 -0.909636 0
M  V30 10 O 1.120955 -2.188711 -1.956254 0
M  V30 11 O -1.213305 -2.211529 -1.356205 0
M  V30 12 N 0.221570 -0.043553 -0.754317 0
M  V30 13 C -0.956161 0.717369 -0.907329 0
M  V30 14 C -1.082648 1.570010 0.352111 0
M  V30 15 C -0.538303 2.937253 0.007692 0
M  V30 16 N 0.781616 2.910681 -0.541566 0 CHG=1 VAL=4
M  V30 17 C 1.606094 1.818971 -0.110650 0
M  V30 18 C 1.458747 0.591858 -1.016364 0
M  V30 19 C -0.119637 -2.417616 1.797989 0
M  V30 20 C -1.299136 -1.726569 1.804330 0
M  V30 21 H -3.021231 -1.072583 2.989308 0
M  V30 22 H -0.125285 -3.374636 4.965651 0
M  V30 23 H 1.804015 -4.198167 3.892934 0
M  V30 24 H 3.142572 -4.382001 1.823371 0
M  V30 25 H 2.368160 -3.315768 -0.181551 0
M  V30 26 H -0.940805 1.393619 -1.811666 0
M  V30 27 H -1.838858 0.072782 -1.071266 0
M  V30 28 H -2.128197 1.691131 0.673260 0
M  V30 29 H -0.525334 1.156236 1.201014 0
M  V30 30 H -0.670020 3.656138 0.820389 0
M  V30 31 H -1.207644 3.306794 -0.823964 0
M  V30 32 H 0.772037 2.858704 -1.603737 0
M  V30 33 H 1.252393 3.816104 -0.240274 0
M  V30 34 H 1.477504 1.565846 0.953541 0
M  V30 35 H 2.673483 2.139389 -0.233128 0
M  V30 36 H 1.670633 0.892209 -2.040332 0
M  V30 37 H 2.266702 -0.105228 -0.649383 0
M  V30 38 H -1.652164 -1.265669 0.911621 0
M  V30 END ATOM
M  V30 BEGIN BOND
M  V30 1 2 1 2
M  V30 2 1 2 3
M  V30 3 2 3 4
M  V30 4 1 4 5
M  V30 5 2 5 6
M  V30 6 1 6 7
M  V30 7 2 7 8
M  V30 8 1 8 9
M  V30 9 2 9 10
M  V30 10 2 9 11
M  V30 11 1 9 12
M  V30 12 1 12 13
M  V30 13 1 13 14
M  V30 14 1 14 15
M  V30 15 1 15 16
M  V30 16 1 16 17
M  V30 17 1 17 18
M  V30 18 1 8 19
M  V30 19 2 19 20
M  V30 20 1 20 1
M  V30 21 1 19 4
M  V30 22 1 18 12
M  V30 23 1 1 21
M  V30 24 1 3 22
M  V30 25 1 5 23
M  V30 26 1 6 24
M  V30 27 1 7 25
M  V30 28 1 13 26
M  V30 29 1 13 27
M  V30 30 1 14 28
M  V30 31 1 14 29
M  V30 32 1 15 30
M  V30 33 1 15 31
M  V30 34 1 16 32
M  V30 35 1 16 33
M  V30 36 1 17 34
M  V30 37 1 17 35
M  V30 38 1 18 36
M  V30 39 1 18 37
M  V30 40 1 20 38
M  V30 END BOND
M  V30 END CTAB
M  END
>  <Dataset>  (216) 
PDB

>  <Ligand_Instance>  (216) 
5NW8_M77_A_402

>  <PDB_ID>  (216) 
5NW8

>  <Standardized_SMILES>  (216) 
[H]C1=NC([H])=C2C([H])=C([H])C([H])=C(S(=O)(=O)N3C([H])([H])C([H])([H])C([H])([H])[N+]([H])([H])C([H])([H])C3([H])[H])C2=C1[H]

>  <Name>  (216) 
5-(1,4-DIAZEPAN-1-SULFONYL)ISOQUINOLINE

>  <Pocket>  (216) 
A

>  <ATP_Site>  (216) 
1.0

>  <Peripheral>  (216) 
0.0

>  <Num_H_Atoms_ProtBoundConf>  (216) 
18.0

>  <Num_Resolved_Atoms>  (216) 
20.0

>  <Num_Not_Resolved_Atoms>  (216) 
0.0

>  <2D_Mol_H>  (216) 
<rdkit.Chem.rdchem.Mol object at 0x72a238df2570>

>  <MW>  (216) 
292.384

>  <HBA>  (216) 
3

>  <HBD>  (216) 
1

>  <LogP>  (216) 
0.1926

>  <NRB>  (216) 
2

>  <TPSA>  (216) 
66.88

>  <Num_Heavy_Atoms>  (216) 
20

>  <Ro5>  (216) 
[True, True, True, True, True, True]

>  <Ro5_Fulfilled>  (216) 
True

>  <Ro3>  (216) 
[True, True, True, True]

>  <Ro3_Fulfilled>  (216) 
True

>  <Fsp3>  (216) 
0.357143

>  <Fsp3_0.42>  (216) 
False

>  <Fsp3_0.45>  (216) 
False

>  <Stereogenic_Carbons>  (216) 
0

>  <C_Atoms>  (216) 
14

>  <FCStereo>  (216) 
0.0

>  <SPS>  (216) 
360

>  <nSPS>  (216) 
18.0

>  <PBF>  (216) 
0.955979

>  <PBF_0.6>  (216) 
True

>  <nPBF>  (216) 
0.047799

>  <nPBF_0.016>  (216) 
True

>  <PMI1>  (216) 
1047.932543

>  <PMI2>  (216) 
1984.607315

>  <PMI3>  (216) 
2366.363565

>  <NPR1>  (216) 
0.442845

>  <NPR2>  (216) 
0.838674

>  <Sum_NPR>  (216) 
1.281519

>  <Sum_NPR_1.07>  (216) 
True

>  <Sum_NPR_1.2>  (216) 
True

>  <MaxAbsEStateIndex>  (216) 
12.845614

>  <MaxEStateIndex>  (216) 
12.845614

>  <MinAbsEStateIndex>  (216) 
0.388241

>  <MinEStateIndex>  (216) 
-3.426412

>  <qed>  (216) 
0.859215

>  <MolWt>  (216) 
292.384

>  <HeavyAtomMolWt>  (216) 
274.24

>  <ExactMolWt>  (216) 
292.111424

>  <NumValenceElectrons>  (216) 
106

>  <NumRadicalElectrons>  (216) 
0

>  <MaxPartialCharge>  (216) 
0.243397

>  <MinPartialCharge>  (216) 
-0.345118

>  <MaxAbsPartialCharge>  (216) 
0.345118

>  <MinAbsPartialCharge>  (216) 
0.243397

>  <FpDensityMorgan1>  (216) 
1.15

>  <FpDensityMorgan2>  (216) 
2.05

>  <FpDensityMorgan3>  (216) 
2.95

>  <BCUT2D_MWHI>  (216) 
32.233427

>  <BCUT2D_MWLOW>  (216) 
10.168311

>  <BCUT2D_CHGHI>  (216) 
2.268872

>  <BCUT2D_CHGLO>  (216) 
-2.192579

>  <BCUT2D_LOGPHI>  (216) 
2.246607

>  <BCUT2D_LOGPLOW>  (216) 
-2.843702

>  <BCUT2D_MRHI>  (216) 
7.889641

>  <BCUT2D_MRLOW>  (216) 
-0.650697

>  <AvgIpc>  (216) 
2.759566

>  <BalabanJ>  (216) 
2.085841

>  <BertzCT>  (216) 
701.935726

>  <Chi0>  (216) 
14.001789

>  <Chi0n>  (216) 
11.196158

>  <Chi0v>  (216) 
12.012654

>  <Chi1>  (216) 
9.693507

>  <Chi1n>  (216) 
6.840082

>  <Chi1v>  (216) 
8.280145

>  <Chi2n>  (216) 
4.976624

>  <Chi2v>  (216) 
6.882981

>  <Chi3n>  (216) 
3.656948

>  <Chi3v>  (216) 
5.613741

>  <Chi4n>  (216) 
2.60061

>  <Chi4v>  (216) 
4.308342

>  <HallKierAlpha>  (216) 
-1.5

>  <Ipc>  (216) 
56228.921022

>  <Kappa1>  (216) 
13.481559

>  <Kappa2>  (216) 
5.47472

>  <Kappa3>  (216) 
2.416781

>  <LabuteASA>  (216) 
118.222067

>  <PEOE_VSA1>  (216) 
5.316789

>  <PEOE_VSA10>  (216) 
0.0

>  <PEOE_VSA11>  (216) 
0.0

>  <PEOE_VSA12>  (216) 
10.023291

>  <PEOE_VSA13>  (216) 
0.0

>  <PEOE_VSA14>  (216) 
0.0

>  <PEOE_VSA2>  (216) 
4.983979

>  <PEOE_VSA3>  (216) 
8.417797

>  <PEOE_VSA4>  (216) 
4.305216

>  <PEOE_VSA5>  (216) 
0.0

>  <PEOE_VSA6>  (216) 
12.132734

>  <PEOE_VSA7>  (216) 
12.132734

>  <PEOE_VSA8>  (216) 
36.131714

>  <PEOE_VSA9>  (216) 
24.529753

>  <SMR_VSA1>  (216) 
13.734586

>  <SMR_VSA10>  (216) 
20.79574

>  <SMR_VSA2>  (216) 
0.0

>  <SMR_VSA3>  (216) 
9.289195

>  <SMR_VSA4>  (216) 
0.0

>  <SMR_VSA5>  (216) 
11.316305

>  <SMR_VSA6>  (216) 
26.179026

>  <SMR_VSA7>  (216) 
36.659155

>  <SMR_VSA8>  (216) 
0.0

>  <SMR_VSA9>  (216) 
0.0

>  <SlogP_VSA1>  (216) 
5.316789

>  <SlogP_VSA10>  (216) 
0.0

>  <SlogP_VSA11>  (216) 
0.0

>  <SlogP_VSA12>  (216) 
0.0

>  <SlogP_VSA2>  (216) 
43.886017

>  <SlogP_VSA3>  (216) 
10.023291

>  <SlogP_VSA4>  (216) 
0.0

>  <SlogP_VSA5>  (216) 
6.420822

>  <SlogP_VSA6>  (216) 
41.554639

>  <SlogP_VSA7>  (216) 
0.0

>  <SlogP_VSA8>  (216) 
10.772448

>  <SlogP_VSA9>  (216) 
0.0

>  <EState_VSA1>  (216) 
10.023291

>  <EState_VSA10>  (216) 
8.417797

>  <EState_VSA11>  (216) 
0.0

>  <EState_VSA2>  (216) 
0.0

>  <EState_VSA3>  (216) 
17.984996

>  <EState_VSA4>  (216) 
30.282783

>  <EState_VSA5>  (216) 
0.0

>  <EState_VSA6>  (216) 
34.898004

>  <EState_VSA7>  (216) 
6.066367

>  <EState_VSA8>  (216) 
10.300767

>  <EState_VSA9>  (216) 
0.0

>  <VSA_EState1>  (216) 
27.294107

>  <VSA_EState10>  (216) 
0.0

>  <VSA_EState2>  (216) 
4.43837

>  <VSA_EState3>  (216) 
3.771674

>  <VSA_EState4>  (216) 
0.0

>  <VSA_EState5>  (216) 
0.0

>  <VSA_EState6>  (216) 
7.121861

>  <VSA_EState7>  (216) 
4.229827

>  <VSA_EState8>  (216) 
2.98724

>  <VSA_EState9>  (216) 
-3.426412

>  <FractionCSP3>  (216) 
0.357143

>  <HeavyAtomCount>  (216) 
20

>  <NHOHCount>  (216) 
2

>  <NOCount>  (216) 
5

>  <NumAliphaticCarbocycles>  (216) 
0

>  <NumAliphaticHeterocycles>  (216) 
1

>  <NumAliphaticRings>  (216) 
1

>  <NumAromaticCarbocycles>  (216) 
1

>  <NumAromaticHeterocycles>  (216) 
1

>  <NAR>  (216) 
2

>  <NumHAcceptors>  (216) 
3

>  <NumHDonors>  (216) 
1

>  <NumHeteroatoms>  (216) 
6

>  <NumRotatableBonds>  (216) 
2

>  <NumSaturatedCarbocycles>  (216) 
0

>  <NumSaturatedHeterocycles>  (216) 
1

>  <NumSaturatedRings>  (216) 
1

>  <RingCount>  (216) 
3

>  <MolLogP>  (216) 
0.1926

>  <MolMR>  (216) 
76.7782

>  <fr_Al_COO>  (216) 
0

>  <fr_Al_OH>  (216) 
0

>  <fr_Al_OH_noTert>  (216) 
0

>  <fr_ArN>  (216) 
0

>  <fr_Ar_COO>  (216) 
0

>  <fr_Ar_N>  (216) 
1

>  <fr_Ar_NH>  (216) 
0

>  <fr_Ar_OH>  (216) 
0

>  <fr_COO>  (216) 
0

>  <fr_COO2>  (216) 
0

>  <fr_C_O>  (216) 
0

>  <fr_C_O_noCOO>  (216) 
0

>  <fr_C_S>  (216) 
0

>  <fr_HOCCN>  (216) 
0

>  <fr_Imine>  (216) 
0

>  <fr_NH0>  (216) 
2

>  <fr_NH1>  (216) 
0

>  <fr_NH2>  (216) 
1

>  <fr_N_O>  (216) 
0

>  <fr_Ndealkylation1>  (216) 
0

>  <fr_Ndealkylation2>  (216) 
0

>  <fr_Nhpyrrole>  (216) 
0

>  <fr_SH>  (216) 
0

>  <fr_aldehyde>  (216) 
0

>  <fr_alkyl_carbamate>  (216) 
0

>  <fr_alkyl_halide>  (216) 
0

>  <fr_allylic_oxid>  (216) 
0

>  <fr_amide>  (216) 
0

>  <fr_amidine>  (216) 
0

>  <fr_aniline>  (216) 
0

>  <fr_aryl_methyl>  (216) 
0

>  <fr_azide>  (216) 
0

>  <fr_azo>  (216) 
0

>  <fr_barbitur>  (216) 
0

>  <fr_benzene>  (216) 
1

>  <fr_benzodiazepine>  (216) 
0

>  <fr_bicyclic>  (216) 
1

>  <fr_diazo>  (216) 
0

>  <fr_dihydropyridine>  (216) 
0

>  <fr_epoxide>  (216) 
0

>  <fr_ester>  (216) 
0

>  <fr_ether>  (216) 
0

>  <fr_furan>  (216) 
0

>  <fr_guanido>  (216) 
0

>  <fr_halogen>  (216) 
0

>  <fr_hdrzine>  (216) 
0

>  <fr_hdrzone>  (216) 
0

>  <fr_imidazole>  (216) 
0

>  <fr_imide>  (216) 
0

>  <fr_isocyan>  (216) 
0

>  <fr_isothiocyan>  (216) 
0

>  <fr_ketone>  (216) 
0

>  <fr_ketone_Topliss>  (216) 
0

>  <fr_lactam>  (216) 
0

>  <fr_lactone>  (216) 
0

>  <fr_methoxy>  (216) 
0

>  <fr_morpholine>  (216) 
0

>  <fr_nitrile>  (216) 
0

>  <fr_nitro>  (216) 
0

>  <fr_nitro_arom>  (216) 
0

>  <fr_nitro_arom_nonortho>  (216) 
0

>  <fr_nitroso>  (216) 
0

>  <fr_oxazole>  (216) 
0

>  <fr_oxime>  (216) 
0

>  <fr_para_hydroxylation>  (216) 
0

>  <fr_phenol>  (216) 
0

>  <fr_phenol_noOrthoHbond>  (216) 
0

>  <fr_phos_acid>  (216) 
0

>  <fr_phos_ester>  (216) 
0

>  <fr_piperdine>  (216) 
0

>  <fr_piperzine>  (216) 
0

>  <fr_priamide>  (216) 
0

>  <fr_prisulfonamd>  (216) 
0

>  <fr_pyridine>  (216) 
1

>  <fr_quatN>  (216) 
1

>  <fr_sulfide>  (216) 
0

>  <fr_sulfonamd>  (216) 
1

>  <fr_sulfone>  (216) 
0

>  <fr_term_acetylene>  (216) 
0

>  <fr_tetrazole>  (216) 
0

>  <fr_thiazole>  (216) 
0

>  <fr_thiocyan>  (216) 
0

>  <fr_thiophene>  (216) 
0

>  <fr_unbrch_alkane>  (216) 
0

>  <fr_urea>  (216) 
0

>  <NP-Likeness>  (216) 
-1.563087

$$$$
M77
     RDKit          3D

  0  0  0  0  0  0  0  0  0  0999 V3000
M  V30 BEGIN CTAB
M  V30 COUNTS 38 40 0 0 0
M  V30 BEGIN ATOM
M  V30 1 C -2.091233 -1.594385 2.906302 0
M  V30 2 N -1.680960 -2.182747 4.052633 0
M  V30 3 C -0.515018 -2.873413 4.068147 0
M  V30 4 C 0.308292 -3.018951 2.949866 0
M  V30 5 C 1.477432 -3.728316 2.977587 0
M  V30 6 C 2.226080 -3.832341 1.825455 0
M  V30 7 C 1.734822 -3.202489 0.708487 0
M  V30 8 C 0.564073 -2.469575 0.608116 0
M  V30 9 S 0.153480 -1.711980 -0.909636 0
M  V30 10 O 1.120955 -2.188711 -1.956254 0
M  V30 11 O -1.213305 -2.211529 -1.356205 0
M  V30 12 N 0.221570 -0.043553 -0.754317 0
M  V30 13 C -0.956161 0.717369 -0.907329 0
M  V30 14 C -1.082648 1.570010 0.352111 0
M  V30 15 C -0.538303 2.937253 0.007692 0
M  V30 16 N 0.781616 2.910681 -0.541566 0 CHG=1 VAL=4
M  V30 17 C 1.606094 1.818971 -0.110650 0
M  V30 18 C 1.458747 0.591858 -1.016364 0
M  V30 19 C -0.119637 -2.417616 1.797989 0
M  V30 20 C -1.299136 -1.726569 1.804330 0
M  V30 21 H -3.021231 -1.072583 2.989308 0
M  V30 22 H -0.125285 -3.374636 4.965651 0
M  V30 23 H 1.804015 -4.198167 3.892934 0
M  V30 24 H 3.142572 -4.382001 1.823371 0
M  V30 25 H 2.368160 -3.315768 -0.181551 0
M  V30 26 H -0.940805 1.393619 -1.811666 0
M  V30 27 H -1.838858 0.072782 -1.071266 0
M  V30 28 H -2.128197 1.691131 0.673260 0
M  V30 29 H -0.525334 1.156236 1.201014 0
M  V30 30 H -0.670020 3.656138 0.820389 0
M  V30 31 H -1.207644 3.306794 -0.823964 0
M  V30 32 H 0.772037 2.858704 -1.603737 0
M  V30 33 H 1.252393 3.816104 -0.240274 0
M  V30 34 H 1.477504 1.565846 0.953541 0
M  V30 35 H 2.673483 2.139389 -0.233128 0
M  V30 36 H 1.670633 0.892209 -2.040332 0
M  V30 37 H 2.266702 -0.105228 -0.649383 0
M  V30 38 H -1.652164 -1.265669 0.911621 0
M  V30 END ATOM
M  V30 BEGIN BOND
M  V30 1 2 1 2
M  V30 2 1 2 3
M  V30 3 2 3 4
M  V30 4 1 4 5
M  V30 5 2 5 6
M  V30 6 1 6 7
M  V30 7 2 7 8
M  V30 8 1 8 9
M  V30 9 2 9 10
M  V30 10 2 9 11
M  V30 11 1 9 12
M  V30 12 1 12 13
M  V30 13 1 13 14
M  V30 14 1 14 15
M  V30 15 1 15 16
M  V30 16 1 16 17
M  V30 17 1 17 18
M  V30 18 1 8 19
M  V30 19 2 19 20
M  V30 20 1 20 1
M  V30 21 1 19 4
M  V30 22 1 18 12
M  V30 23 1 1 21
M  V30 24 1 3 22
M  V30 25 1 5 23
M  V30 26 1 6 24
M  V30 27 1 7 25
M  V30 28 1 13 26
M  V30 29 1 13 27
M  V30 30 1 14 28
M  V30 31 1 14 29
M  V30 32 1 15 30
M  V30 33 1 15 31
M  V30 34 1 16 32
M  V30 35 1 16 33
M  V30 36 1 17 34
M  V30 37 1 17 35
M  V30 38 1 18 36
M  V30 39 1 18 37
M  V30 40 1 20 38
M  V30 END BOND
M  V30 END CTAB
M  END
>  <Dataset>  (217) 
PDB

>  <Ligand_Instance>  (217) 
5O0E_M77_A_401

>  <PDB_ID>  (217) 
5O0E

>  <Standardized_SMILES>  (217) 
[H]C1=NC([H])=C2C([H])=C([H])C([H])=C(S(=O)(=O)N3C([H])([H])C([H])([H])C([H])([H])[N+]([H])([H])C([H])([H])C3([H])[H])C2=C1[H]

>  <Name>  (217) 
5-(1,4-DIAZEPAN-1-SULFONYL)ISOQUINOLINE

>  <Pocket>  (217) 
A

>  <ATP_Site>  (217) 
1.0

>  <Peripheral>  (217) 
0.0

>  <Num_H_Atoms_ProtBoundConf>  (217) 
18.0

>  <Num_Resolved_Atoms>  (217) 
20.0

>  <Num_Not_Resolved_Atoms>  (217) 
0.0

>  <2D_Mol_H>  (217) 
<rdkit.Chem.rdchem.Mol object at 0x72a238df2650>

>  <MW>  (217) 
292.384

>  <HBA>  (217) 
3

>  <HBD>  (217) 
1

>  <LogP>  (217) 
0.1926

>  <NRB>  (217) 
2

>  <TPSA>  (217) 
66.88

>  <Num_Heavy_Atoms>  (217) 
20

>  <Ro5>  (217) 
[True, True, True, True, True, True]

>  <Ro5_Fulfilled>  (217) 
True

>  <Ro3>  (217) 
[True, True, True, True]

>  <Ro3_Fulfilled>  (217) 
True

>  <Fsp3>  (217) 
0.357143

>  <Fsp3_0.42>  (217) 
False

>  <Fsp3_0.45>  (217) 
False

>  <Stereogenic_Carbons>  (217) 
0

>  <C_Atoms>  (217) 
14

>  <FCStereo>  (217) 
0.0

>  <SPS>  (217) 
360

>  <nSPS>  (217) 
18.0

>  <PBF>  (217) 
0.955979

>  <PBF_0.6>  (217) 
True

>  <nPBF>  (217) 
0.047799

>  <nPBF_0.016>  (217) 
True

>  <PMI1>  (217) 
1047.932543

>  <PMI2>  (217) 
1984.607315

>  <PMI3>  (217) 
2366.363565

>  <NPR1>  (217) 
0.442845

>  <NPR2>  (217) 
0.838674

>  <Sum_NPR>  (217) 
1.281519

>  <Sum_NPR_1.07>  (217) 
True

>  <Sum_NPR_1.2>  (217) 
True

>  <MaxAbsEStateIndex>  (217) 
12.845614

>  <MaxEStateIndex>  (217) 
12.845614

>  <MinAbsEStateIndex>  (217) 
0.388241

>  <MinEStateIndex>  (217) 
-3.426412

>  <qed>  (217) 
0.859215

>  <MolWt>  (217) 
292.384

>  <HeavyAtomMolWt>  (217) 
274.24

>  <ExactMolWt>  (217) 
292.111424

>  <NumValenceElectrons>  (217) 
106

>  <NumRadicalElectrons>  (217) 
0

>  <MaxPartialCharge>  (217) 
0.243397

>  <MinPartialCharge>  (217) 
-0.345118

>  <MaxAbsPartialCharge>  (217) 
0.345118

>  <MinAbsPartialCharge>  (217) 
0.243397

>  <FpDensityMorgan1>  (217) 
1.15

>  <FpDensityMorgan2>  (217) 
2.05

>  <FpDensityMorgan3>  (217) 
2.95

>  <BCUT2D_MWHI>  (217) 
32.233427

>  <BCUT2D_MWLOW>  (217) 
10.168311

>  <BCUT2D_CHGHI>  (217) 
2.268872

>  <BCUT2D_CHGLO>  (217) 
-2.192579

>  <BCUT2D_LOGPHI>  (217) 
2.246607

>  <BCUT2D_LOGPLOW>  (217) 
-2.843702

>  <BCUT2D_MRHI>  (217) 
7.889641

>  <BCUT2D_MRLOW>  (217) 
-0.650697

>  <AvgIpc>  (217) 
2.759566

>  <BalabanJ>  (217) 
2.085841

>  <BertzCT>  (217) 
701.935726

>  <Chi0>  (217) 
14.001789

>  <Chi0n>  (217) 
11.196158

>  <Chi0v>  (217) 
12.012654

>  <Chi1>  (217) 
9.693507

>  <Chi1n>  (217) 
6.840082

>  <Chi1v>  (217) 
8.280145

>  <Chi2n>  (217) 
4.976624

>  <Chi2v>  (217) 
6.882981

>  <Chi3n>  (217) 
3.656948

>  <Chi3v>  (217) 
5.613741

>  <Chi4n>  (217) 
2.60061

>  <Chi4v>  (217) 
4.308342

>  <HallKierAlpha>  (217) 
-1.5

>  <Ipc>  (217) 
56228.921022

>  <Kappa1>  (217) 
13.481559

>  <Kappa2>  (217) 
5.47472

>  <Kappa3>  (217) 
2.416781

>  <LabuteASA>  (217) 
118.222067

>  <PEOE_VSA1>  (217) 
5.316789

>  <PEOE_VSA10>  (217) 
0.0

>  <PEOE_VSA11>  (217) 
0.0

>  <PEOE_VSA12>  (217) 
10.023291

>  <PEOE_VSA13>  (217) 
0.0

>  <PEOE_VSA14>  (217) 
0.0

>  <PEOE_VSA2>  (217) 
4.983979

>  <PEOE_VSA3>  (217) 
8.417797

>  <PEOE_VSA4>  (217) 
4.305216

>  <PEOE_VSA5>  (217) 
0.0

>  <PEOE_VSA6>  (217) 
12.132734

>  <PEOE_VSA7>  (217) 
12.132734

>  <PEOE_VSA8>  (217) 
36.131714

>  <PEOE_VSA9>  (217) 
24.529753

>  <SMR_VSA1>  (217) 
13.734586

>  <SMR_VSA10>  (217) 
20.79574

>  <SMR_VSA2>  (217) 
0.0

>  <SMR_VSA3>  (217) 
9.289195

>  <SMR_VSA4>  (217) 
0.0

>  <SMR_VSA5>  (217) 
11.316305

>  <SMR_VSA6>  (217) 
26.179026

>  <SMR_VSA7>  (217) 
36.659155

>  <SMR_VSA8>  (217) 
0.0

>  <SMR_VSA9>  (217) 
0.0

>  <SlogP_VSA1>  (217) 
5.316789

>  <SlogP_VSA10>  (217) 
0.0

>  <SlogP_VSA11>  (217) 
0.0

>  <SlogP_VSA12>  (217) 
0.0

>  <SlogP_VSA2>  (217) 
43.886017

>  <SlogP_VSA3>  (217) 
10.023291

>  <SlogP_VSA4>  (217) 
0.0

>  <SlogP_VSA5>  (217) 
6.420822

>  <SlogP_VSA6>  (217) 
41.554639

>  <SlogP_VSA7>  (217) 
0.0

>  <SlogP_VSA8>  (217) 
10.772448

>  <SlogP_VSA9>  (217) 
0.0

>  <EState_VSA1>  (217) 
10.023291

>  <EState_VSA10>  (217) 
8.417797

>  <EState_VSA11>  (217) 
0.0

>  <EState_VSA2>  (217) 
0.0

>  <EState_VSA3>  (217) 
17.984996

>  <EState_VSA4>  (217) 
30.282783

>  <EState_VSA5>  (217) 
0.0

>  <EState_VSA6>  (217) 
34.898004

>  <EState_VSA7>  (217) 
6.066367

>  <EState_VSA8>  (217) 
10.300767

>  <EState_VSA9>  (217) 
0.0

>  <VSA_EState1>  (217) 
27.294107

>  <VSA_EState10>  (217) 
0.0

>  <VSA_EState2>  (217) 
4.43837

>  <VSA_EState3>  (217) 
3.771674

>  <VSA_EState4>  (217) 
0.0

>  <VSA_EState5>  (217) 
0.0

>  <VSA_EState6>  (217) 
7.121861

>  <VSA_EState7>  (217) 
4.229827

>  <VSA_EState8>  (217) 
2.98724

>  <VSA_EState9>  (217) 
-3.426412

>  <FractionCSP3>  (217) 
0.357143

>  <HeavyAtomCount>  (217) 
20

>  <NHOHCount>  (217) 
2

>  <NOCount>  (217) 
5

>  <NumAliphaticCarbocycles>  (217) 
0

>  <NumAliphaticHeterocycles>  (217) 
1

>  <NumAliphaticRings>  (217) 
1

>  <NumAromaticCarbocycles>  (217) 
1

>  <NumAromaticHeterocycles>  (217) 
1

>  <NAR>  (217) 
2

>  <NumHAcceptors>  (217) 
3

>  <NumHDonors>  (217) 
1

>  <NumHeteroatoms>  (217) 
6

>  <NumRotatableBonds>  (217) 
2

>  <NumSaturatedCarbocycles>  (217) 
0

>  <NumSaturatedHeterocycles>  (217) 
1

>  <NumSaturatedRings>  (217) 
1

>  <RingCount>  (217) 
3

>  <MolLogP>  (217) 
0.1926

>  <MolMR>  (217) 
76.7782

>  <fr_Al_COO>  (217) 
0

>  <fr_Al_OH>  (217) 
0

>  <fr_Al_OH_noTert>  (217) 
0

>  <fr_ArN>  (217) 
0

>  <fr_Ar_COO>  (217) 
0

>  <fr_Ar_N>  (217) 
1

>  <fr_Ar_NH>  (217) 
0

>  <fr_Ar_OH>  (217) 
0

>  <fr_COO>  (217) 
0

>  <fr_COO2>  (217) 
0

>  <fr_C_O>  (217) 
0

>  <fr_C_O_noCOO>  (217) 
0

>  <fr_C_S>  (217) 
0

>  <fr_HOCCN>  (217) 
0

>  <fr_Imine>  (217) 
0

>  <fr_NH0>  (217) 
2

>  <fr_NH1>  (217) 
0

>  <fr_NH2>  (217) 
1

>  <fr_N_O>  (217) 
0

>  <fr_Ndealkylation1>  (217) 
0

>  <fr_Ndealkylation2>  (217) 
0

>  <fr_Nhpyrrole>  (217) 
0

>  <fr_SH>  (217) 
0

>  <fr_aldehyde>  (217) 
0

>  <fr_alkyl_carbamate>  (217) 
0

>  <fr_alkyl_halide>  (217) 
0

>  <fr_allylic_oxid>  (217) 
0

>  <fr_amide>  (217) 
0

>  <fr_amidine>  (217) 
0

>  <fr_aniline>  (217) 
0

>  <fr_aryl_methyl>  (217) 
0

>  <fr_azide>  (217) 
0

>  <fr_azo>  (217) 
0

>  <fr_barbitur>  (217) 
0

>  <fr_benzene>  (217) 
1

>  <fr_benzodiazepine>  (217) 
0

>  <fr_bicyclic>  (217) 
1

>  <fr_diazo>  (217) 
0

>  <fr_dihydropyridine>  (217) 
0

>  <fr_epoxide>  (217) 
0

>  <fr_ester>  (217) 
0

>  <fr_ether>  (217) 
0

>  <fr_furan>  (217) 
0

>  <fr_guanido>  (217) 
0

>  <fr_halogen>  (217) 
0

>  <fr_hdrzine>  (217) 
0

>  <fr_hdrzone>  (217) 
0

>  <fr_imidazole>  (217) 
0

>  <fr_imide>  (217) 
0

>  <fr_isocyan>  (217) 
0

>  <fr_isothiocyan>  (217) 
0

>  <fr_ketone>  (217) 
0

>  <fr_ketone_Topliss>  (217) 
0

>  <fr_lactam>  (217) 
0

>  <fr_lactone>  (217) 
0

>  <fr_methoxy>  (217) 
0

>  <fr_morpholine>  (217) 
0

>  <fr_nitrile>  (217) 
0

>  <fr_nitro>  (217) 
0

>  <fr_nitro_arom>  (217) 
0

>  <fr_nitro_arom_nonortho>  (217) 
0

>  <fr_nitroso>  (217) 
0

>  <fr_oxazole>  (217) 
0

>  <fr_oxime>  (217) 
0

>  <fr_para_hydroxylation>  (217) 
0

>  <fr_phenol>  (217) 
0

>  <fr_phenol_noOrthoHbond>  (217) 
0

>  <fr_phos_acid>  (217) 
0

>  <fr_phos_ester>  (217) 
0

>  <fr_piperdine>  (217) 
0

>  <fr_piperzine>  (217) 
0

>  <fr_priamide>  (217) 
0

>  <fr_prisulfonamd>  (217) 
0

>  <fr_pyridine>  (217) 
1

>  <fr_quatN>  (217) 
1

>  <fr_sulfide>  (217) 
0

>  <fr_sulfonamd>  (217) 
1

>  <fr_sulfone>  (217) 
0

>  <fr_term_acetylene>  (217) 
0

>  <fr_tetrazole>  (217) 
0

>  <fr_thiazole>  (217) 
0

>  <fr_thiocyan>  (217) 
0

>  <fr_thiophene>  (217) 
0

>  <fr_unbrch_alkane>  (217) 
0

>  <fr_urea>  (217) 
0

>  <NP-Likeness>  (217) 
-1.563087

$$$$
M77
     RDKit          3D

  0  0  0  0  0  0  0  0  0  0999 V3000
M  V30 BEGIN CTAB
M  V30 COUNTS 38 40 0 0 0
M  V30 BEGIN ATOM
M  V30 1 C -2.091233 -1.594385 2.906302 0
M  V30 2 N -1.680960 -2.182747 4.052633 0
M  V30 3 C -0.515018 -2.873413 4.068147 0
M  V30 4 C 0.308292 -3.018951 2.949866 0
M  V30 5 C 1.477432 -3.728316 2.977587 0
M  V30 6 C 2.226080 -3.832341 1.825455 0
M  V30 7 C 1.734822 -3.202489 0.708487 0
M  V30 8 C 0.564073 -2.469575 0.608116 0
M  V30 9 S 0.153480 -1.711980 -0.909636 0
M  V30 10 O 1.120955 -2.188711 -1.956254 0
M  V30 11 O -1.213305 -2.211529 -1.356205 0
M  V30 12 N 0.221570 -0.043553 -0.754317 0
M  V30 13 C -0.956161 0.717369 -0.907329 0
M  V30 14 C -1.082648 1.570010 0.352111 0
M  V30 15 C -0.538303 2.937253 0.007692 0
M  V30 16 N 0.781616 2.910681 -0.541566 0 CHG=1 VAL=4
M  V30 17 C 1.606094 1.818971 -0.110650 0
M  V30 18 C 1.458747 0.591858 -1.016364 0
M  V30 19 C -0.119637 -2.417616 1.797989 0
M  V30 20 C -1.299136 -1.726569 1.804330 0
M  V30 21 H -3.021231 -1.072583 2.989308 0
M  V30 22 H -0.125285 -3.374636 4.965651 0
M  V30 23 H 1.804015 -4.198167 3.892934 0
M  V30 24 H 3.142572 -4.382001 1.823371 0
M  V30 25 H 2.368160 -3.315768 -0.181551 0
M  V30 26 H -0.940805 1.393619 -1.811666 0
M  V30 27 H -1.838858 0.072782 -1.071266 0
M  V30 28 H -2.128197 1.691131 0.673260 0
M  V30 29 H -0.525334 1.156236 1.201014 0
M  V30 30 H -0.670020 3.656138 0.820389 0
M  V30 31 H -1.207644 3.306794 -0.823964 0
M  V30 32 H 0.772037 2.858704 -1.603737 0
M  V30 33 H 1.252393 3.816104 -0.240274 0
M  V30 34 H 1.477504 1.565846 0.953541 0
M  V30 35 H 2.673483 2.139389 -0.233128 0
M  V30 36 H 1.670633 0.892209 -2.040332 0
M  V30 37 H 2.266702 -0.105228 -0.649383 0
M  V30 38 H -1.652164 -1.265669 0.911621 0
M  V30 END ATOM
M  V30 BEGIN BOND
M  V30 1 2 1 2
M  V30 2 1 2 3
M  V30 3 2 3 4
M  V30 4 1 4 5
M  V30 5 2 5 6
M  V30 6 1 6 7
M  V30 7 2 7 8
M  V30 8 1 8 9
M  V30 9 2 9 10
M  V30 10 2 9 11
M  V30 11 1 9 12
M  V30 12 1 12 13
M  V30 13 1 13 14
M  V30 14 1 14 15
M  V30 15 1 15 16
M  V30 16 1 16 17
M  V30 17 1 17 18
M  V30 18 1 8 19
M  V30 19 2 19 20
M  V30 20 1 20 1
M  V30 21 1 19 4
M  V30 22 1 18 12
M  V30 23 1 1 21
M  V30 24 1 3 22
M  V30 25 1 5 23
M  V30 26 1 6 24
M  V30 27 1 7 25
M  V30 28 1 13 26
M  V30 29 1 13 27
M  V30 30 1 14 28
M  V30 31 1 14 29
M  V30 32 1 15 30
M  V30 33 1 15 31
M  V30 34 1 16 32
M  V30 35 1 16 33
M  V30 36 1 17 34
M  V30 37 1 17 35
M  V30 38 1 18 36
M  V30 39 1 18 37
M  V30 40 1 20 38
M  V30 END BOND
M  V30 END CTAB
M  END
>  <Dataset>  (218) 
PDB

>  <Ligand_Instance>  (218) 
5OK3_M77_A_401

>  <PDB_ID>  (218) 
5OK3

>  <Standardized_SMILES>  (218) 
[H]C1=NC([H])=C2C([H])=C([H])C([H])=C(S(=O)(=O)N3C([H])([H])C([H])([H])C([H])([H])[N+]([H])([H])C([H])([H])C3([H])[H])C2=C1[H]

>  <Name>  (218) 
5-(1,4-DIAZEPAN-1-SULFONYL)ISOQUINOLINE

>  <Pocket>  (218) 
A

>  <ATP_Site>  (218) 
1.0

>  <Peripheral>  (218) 
0.0

>  <Num_H_Atoms_ProtBoundConf>  (218) 
18.0

>  <Num_Resolved_Atoms>  (218) 
20.0

>  <Num_Not_Resolved_Atoms>  (218) 
0.0

>  <2D_Mol_H>  (218) 
<rdkit.Chem.rdchem.Mol object at 0x72a238df2730>

>  <MW>  (218) 
292.384

>  <HBA>  (218) 
3

>  <HBD>  (218) 
1

>  <LogP>  (218) 
0.1926

>  <NRB>  (218) 
2

>  <TPSA>  (218) 
66.88

>  <Num_Heavy_Atoms>  (218) 
20

>  <Ro5>  (218) 
[True, True, True, True, True, True]

>  <Ro5_Fulfilled>  (218) 
True

>  <Ro3>  (218) 
[True, True, True, True]

>  <Ro3_Fulfilled>  (218) 
True

>  <Fsp3>  (218) 
0.357143

>  <Fsp3_0.42>  (218) 
False

>  <Fsp3_0.45>  (218) 
False

>  <Stereogenic_Carbons>  (218) 
0

>  <C_Atoms>  (218) 
14

>  <FCStereo>  (218) 
0.0

>  <SPS>  (218) 
360

>  <nSPS>  (218) 
18.0

>  <PBF>  (218) 
0.955979

>  <PBF_0.6>  (218) 
True

>  <nPBF>  (218) 
0.047799

>  <nPBF_0.016>  (218) 
True

>  <PMI1>  (218) 
1047.932543

>  <PMI2>  (218) 
1984.607315

>  <PMI3>  (218) 
2366.363565

>  <NPR1>  (218) 
0.442845

>  <NPR2>  (218) 
0.838674

>  <Sum_NPR>  (218) 
1.281519

>  <Sum_NPR_1.07>  (218) 
True

>  <Sum_NPR_1.2>  (218) 
True

>  <MaxAbsEStateIndex>  (218) 
12.845614

>  <MaxEStateIndex>  (218) 
12.845614

>  <MinAbsEStateIndex>  (218) 
0.388241

>  <MinEStateIndex>  (218) 
-3.426412

>  <qed>  (218) 
0.859215

>  <MolWt>  (218) 
292.384

>  <HeavyAtomMolWt>  (218) 
274.24

>  <ExactMolWt>  (218) 
292.111424

>  <NumValenceElectrons>  (218) 
106

>  <NumRadicalElectrons>  (218) 
0

>  <MaxPartialCharge>  (218) 
0.243397

>  <MinPartialCharge>  (218) 
-0.345118

>  <MaxAbsPartialCharge>  (218) 
0.345118

>  <MinAbsPartialCharge>  (218) 
0.243397

>  <FpDensityMorgan1>  (218) 
1.15

>  <FpDensityMorgan2>  (218) 
2.05

>  <FpDensityMorgan3>  (218) 
2.95

>  <BCUT2D_MWHI>  (218) 
32.233427

>  <BCUT2D_MWLOW>  (218) 
10.168311

>  <BCUT2D_CHGHI>  (218) 
2.268872

>  <BCUT2D_CHGLO>  (218) 
-2.192579

>  <BCUT2D_LOGPHI>  (218) 
2.246607

>  <BCUT2D_LOGPLOW>  (218) 
-2.843702

>  <BCUT2D_MRHI>  (218) 
7.889641

>  <BCUT2D_MRLOW>  (218) 
-0.650697

>  <AvgIpc>  (218) 
2.759566

>  <BalabanJ>  (218) 
2.085841

>  <BertzCT>  (218) 
701.935726

>  <Chi0>  (218) 
14.001789

>  <Chi0n>  (218) 
11.196158

>  <Chi0v>  (218) 
12.012654

>  <Chi1>  (218) 
9.693507

>  <Chi1n>  (218) 
6.840082

>  <Chi1v>  (218) 
8.280145

>  <Chi2n>  (218) 
4.976624

>  <Chi2v>  (218) 
6.882981

>  <Chi3n>  (218) 
3.656948

>  <Chi3v>  (218) 
5.613741

>  <Chi4n>  (218) 
2.60061

>  <Chi4v>  (218) 
4.308342

>  <HallKierAlpha>  (218) 
-1.5

>  <Ipc>  (218) 
56228.921022

>  <Kappa1>  (218) 
13.481559

>  <Kappa2>  (218) 
5.47472

>  <Kappa3>  (218) 
2.416781

>  <LabuteASA>  (218) 
118.222067

>  <PEOE_VSA1>  (218) 
5.316789

>  <PEOE_VSA10>  (218) 
0.0

>  <PEOE_VSA11>  (218) 
0.0

>  <PEOE_VSA12>  (218) 
10.023291

>  <PEOE_VSA13>  (218) 
0.0

>  <PEOE_VSA14>  (218) 
0.0

>  <PEOE_VSA2>  (218) 
4.983979

>  <PEOE_VSA3>  (218) 
8.417797

>  <PEOE_VSA4>  (218) 
4.305216

>  <PEOE_VSA5>  (218) 
0.0

>  <PEOE_VSA6>  (218) 
12.132734

>  <PEOE_VSA7>  (218) 
12.132734

>  <PEOE_VSA8>  (218) 
36.131714

>  <PEOE_VSA9>  (218) 
24.529753

>  <SMR_VSA1>  (218) 
13.734586

>  <SMR_VSA10>  (218) 
20.79574

>  <SMR_VSA2>  (218) 
0.0

>  <SMR_VSA3>  (218) 
9.289195

>  <SMR_VSA4>  (218) 
0.0

>  <SMR_VSA5>  (218) 
11.316305

>  <SMR_VSA6>  (218) 
26.179026

>  <SMR_VSA7>  (218) 
36.659155

>  <SMR_VSA8>  (218) 
0.0

>  <SMR_VSA9>  (218) 
0.0

>  <SlogP_VSA1>  (218) 
5.316789

>  <SlogP_VSA10>  (218) 
0.0

>  <SlogP_VSA11>  (218) 
0.0

>  <SlogP_VSA12>  (218) 
0.0

>  <SlogP_VSA2>  (218) 
43.886017

>  <SlogP_VSA3>  (218) 
10.023291

>  <SlogP_VSA4>  (218) 
0.0

>  <SlogP_VSA5>  (218) 
6.420822

>  <SlogP_VSA6>  (218) 
41.554639

>  <SlogP_VSA7>  (218) 
0.0

>  <SlogP_VSA8>  (218) 
10.772448

>  <SlogP_VSA9>  (218) 
0.0

>  <EState_VSA1>  (218) 
10.023291

>  <EState_VSA10>  (218) 
8.417797

>  <EState_VSA11>  (218) 
0.0

>  <EState_VSA2>  (218) 
0.0

>  <EState_VSA3>  (218) 
17.984996

>  <EState_VSA4>  (218) 
30.282783

>  <EState_VSA5>  (218) 
0.0

>  <EState_VSA6>  (218) 
34.898004

>  <EState_VSA7>  (218) 
6.066367

>  <EState_VSA8>  (218) 
10.300767

>  <EState_VSA9>  (218) 
0.0

>  <VSA_EState1>  (218) 
27.294107

>  <VSA_EState10>  (218) 
0.0

>  <VSA_EState2>  (218) 
4.43837

>  <VSA_EState3>  (218) 
3.771674

>  <VSA_EState4>  (218) 
0.0

>  <VSA_EState5>  (218) 
0.0

>  <VSA_EState6>  (218) 
7.121861

>  <VSA_EState7>  (218) 
4.229827

>  <VSA_EState8>  (218) 
2.98724

>  <VSA_EState9>  (218) 
-3.426412

>  <FractionCSP3>  (218) 
0.357143

>  <HeavyAtomCount>  (218) 
20

>  <NHOHCount>  (218) 
2

>  <NOCount>  (218) 
5

>  <NumAliphaticCarbocycles>  (218) 
0

>  <NumAliphaticHeterocycles>  (218) 
1

>  <NumAliphaticRings>  (218) 
1

>  <NumAromaticCarbocycles>  (218) 
1

>  <NumAromaticHeterocycles>  (218) 
1

>  <NAR>  (218) 
2

>  <NumHAcceptors>  (218) 
3

>  <NumHDonors>  (218) 
1

>  <NumHeteroatoms>  (218) 
6

>  <NumRotatableBonds>  (218) 
2

>  <NumSaturatedCarbocycles>  (218) 
0

>  <NumSaturatedHeterocycles>  (218) 
1

>  <NumSaturatedRings>  (218) 
1

>  <RingCount>  (218) 
3

>  <MolLogP>  (218) 
0.1926

>  <MolMR>  (218) 
76.7782

>  <fr_Al_COO>  (218) 
0

>  <fr_Al_OH>  (218) 
0

>  <fr_Al_OH_noTert>  (218) 
0

>  <fr_ArN>  (218) 
0

>  <fr_Ar_COO>  (218) 
0

>  <fr_Ar_N>  (218) 
1

>  <fr_Ar_NH>  (218) 
0

>  <fr_Ar_OH>  (218) 
0

>  <fr_COO>  (218) 
0

>  <fr_COO2>  (218) 
0

>  <fr_C_O>  (218) 
0

>  <fr_C_O_noCOO>  (218) 
0

>  <fr_C_S>  (218) 
0

>  <fr_HOCCN>  (218) 
0

>  <fr_Imine>  (218) 
0

>  <fr_NH0>  (218) 
2

>  <fr_NH1>  (218) 
0

>  <fr_NH2>  (218) 
1

>  <fr_N_O>  (218) 
0

>  <fr_Ndealkylation1>  (218) 
0

>  <fr_Ndealkylation2>  (218) 
0

>  <fr_Nhpyrrole>  (218) 
0

>  <fr_SH>  (218) 
0

>  <fr_aldehyde>  (218) 
0

>  <fr_alkyl_carbamate>  (218) 
0

>  <fr_alkyl_halide>  (218) 
0

>  <fr_allylic_oxid>  (218) 
0

>  <fr_amide>  (218) 
0

>  <fr_amidine>  (218) 
0

>  <fr_aniline>  (218) 
0

>  <fr_aryl_methyl>  (218) 
0

>  <fr_azide>  (218) 
0

>  <fr_azo>  (218) 
0

>  <fr_barbitur>  (218) 
0

>  <fr_benzene>  (218) 
1

>  <fr_benzodiazepine>  (218) 
0

>  <fr_bicyclic>  (218) 
1

>  <fr_diazo>  (218) 
0

>  <fr_dihydropyridine>  (218) 
0

>  <fr_epoxide>  (218) 
0

>  <fr_ester>  (218) 
0

>  <fr_ether>  (218) 
0

>  <fr_furan>  (218) 
0

>  <fr_guanido>  (218) 
0

>  <fr_halogen>  (218) 
0

>  <fr_hdrzine>  (218) 
0

>  <fr_hdrzone>  (218) 
0

>  <fr_imidazole>  (218) 
0

>  <fr_imide>  (218) 
0

>  <fr_isocyan>  (218) 
0

>  <fr_isothiocyan>  (218) 
0

>  <fr_ketone>  (218) 
0

>  <fr_ketone_Topliss>  (218) 
0

>  <fr_lactam>  (218) 
0

>  <fr_lactone>  (218) 
0

>  <fr_methoxy>  (218) 
0

>  <fr_morpholine>  (218) 
0

>  <fr_nitrile>  (218) 
0

>  <fr_nitro>  (218) 
0

>  <fr_nitro_arom>  (218) 
0

>  <fr_nitro_arom_nonortho>  (218) 
0

>  <fr_nitroso>  (218) 
0

>  <fr_oxazole>  (218) 
0

>  <fr_oxime>  (218) 
0

>  <fr_para_hydroxylation>  (218) 
0

>  <fr_phenol>  (218) 
0

>  <fr_phenol_noOrthoHbond>  (218) 
0

>  <fr_phos_acid>  (218) 
0

>  <fr_phos_ester>  (218) 
0

>  <fr_piperdine>  (218) 
0

>  <fr_piperzine>  (218) 
0

>  <fr_priamide>  (218) 
0

>  <fr_prisulfonamd>  (218) 
0

>  <fr_pyridine>  (218) 
1

>  <fr_quatN>  (218) 
1

>  <fr_sulfide>  (218) 
0

>  <fr_sulfonamd>  (218) 
1

>  <fr_sulfone>  (218) 
0

>  <fr_term_acetylene>  (218) 
0

>  <fr_tetrazole>  (218) 
0

>  <fr_thiazole>  (218) 
0

>  <fr_thiocyan>  (218) 
0

>  <fr_thiophene>  (218) 
0

>  <fr_unbrch_alkane>  (218) 
0

>  <fr_urea>  (218) 
0

>  <NP-Likeness>  (218) 
-1.563087

$$$$
M77
     RDKit          3D

  0  0  0  0  0  0  0  0  0  0999 V3000
M  V30 BEGIN CTAB
M  V30 COUNTS 38 40 0 0 0
M  V30 BEGIN ATOM
M  V30 1 C -2.091233 -1.594385 2.906302 0
M  V30 2 N -1.680960 -2.182747 4.052633 0
M  V30 3 C -0.515018 -2.873413 4.068147 0
M  V30 4 C 0.308292 -3.018951 2.949866 0
M  V30 5 C 1.477432 -3.728316 2.977587 0
M  V30 6 C 2.226080 -3.832341 1.825455 0
M  V30 7 C 1.734822 -3.202489 0.708487 0
M  V30 8 C 0.564073 -2.469575 0.608116 0
M  V30 9 S 0.153480 -1.711980 -0.909636 0
M  V30 10 O 1.120955 -2.188711 -1.956254 0
M  V30 11 O -1.213305 -2.211529 -1.356205 0
M  V30 12 N 0.221570 -0.043553 -0.754317 0
M  V30 13 C -0.956161 0.717369 -0.907329 0
M  V30 14 C -1.082648 1.570010 0.352111 0
M  V30 15 C -0.538303 2.937253 0.007692 0
M  V30 16 N 0.781616 2.910681 -0.541566 0 CHG=1 VAL=4
M  V30 17 C 1.606094 1.818971 -0.110650 0
M  V30 18 C 1.458747 0.591858 -1.016364 0
M  V30 19 C -0.119637 -2.417616 1.797989 0
M  V30 20 C -1.299136 -1.726569 1.804330 0
M  V30 21 H -3.021231 -1.072583 2.989308 0
M  V30 22 H -0.125285 -3.374636 4.965651 0
M  V30 23 H 1.804015 -4.198167 3.892934 0
M  V30 24 H 3.142572 -4.382001 1.823371 0
M  V30 25 H 2.368160 -3.315768 -0.181551 0
M  V30 26 H -0.940805 1.393619 -1.811666 0
M  V30 27 H -1.838858 0.072782 -1.071266 0
M  V30 28 H -2.128197 1.691131 0.673260 0
M  V30 29 H -0.525334 1.156236 1.201014 0
M  V30 30 H -0.670020 3.656138 0.820389 0
M  V30 31 H -1.207644 3.306794 -0.823964 0
M  V30 32 H 0.772037 2.858704 -1.603737 0
M  V30 33 H 1.252393 3.816104 -0.240274 0
M  V30 34 H 1.477504 1.565846 0.953541 0
M  V30 35 H 2.673483 2.139389 -0.233128 0
M  V30 36 H 1.670633 0.892209 -2.040332 0
M  V30 37 H 2.266702 -0.105228 -0.649383 0
M  V30 38 H -1.652164 -1.265669 0.911621 0
M  V30 END ATOM
M  V30 BEGIN BOND
M  V30 1 2 1 2
M  V30 2 1 2 3
M  V30 3 2 3 4
M  V30 4 1 4 5
M  V30 5 2 5 6
M  V30 6 1 6 7
M  V30 7 2 7 8
M  V30 8 1 8 9
M  V30 9 2 9 10
M  V30 10 2 9 11
M  V30 11 1 9 12
M  V30 12 1 12 13
M  V30 13 1 13 14
M  V30 14 1 14 15
M  V30 15 1 15 16
M  V30 16 1 16 17
M  V30 17 1 17 18
M  V30 18 1 8 19
M  V30 19 2 19 20
M  V30 20 1 20 1
M  V30 21 1 19 4
M  V30 22 1 18 12
M  V30 23 1 1 21
M  V30 24 1 3 22
M  V30 25 1 5 23
M  V30 26 1 6 24
M  V30 27 1 7 25
M  V30 28 1 13 26
M  V30 29 1 13 27
M  V30 30 1 14 28
M  V30 31 1 14 29
M  V30 32 1 15 30
M  V30 33 1 15 31
M  V30 34 1 16 32
M  V30 35 1 16 33
M  V30 36 1 17 34
M  V30 37 1 17 35
M  V30 38 1 18 36
M  V30 39 1 18 37
M  V30 40 1 20 38
M  V30 END BOND
M  V30 END CTAB
M  END
>  <Dataset>  (219) 
PDB

>  <Ligand_Instance>  (219) 
6EM2_M77_A_401

>  <PDB_ID>  (219) 
6EM2

>  <Standardized_SMILES>  (219) 
[H]C1=NC([H])=C2C([H])=C([H])C([H])=C(S(=O)(=O)N3C([H])([H])C([H])([H])C([H])([H])[N+]([H])([H])C([H])([H])C3([H])[H])C2=C1[H]

>  <Name>  (219) 
5-(1,4-DIAZEPAN-1-SULFONYL)ISOQUINOLINE

>  <Pocket>  (219) 
A

>  <ATP_Site>  (219) 
1.0

>  <Peripheral>  (219) 
0.0

>  <Num_H_Atoms_ProtBoundConf>  (219) 
18.0

>  <Num_Resolved_Atoms>  (219) 
20.0

>  <Num_Not_Resolved_Atoms>  (219) 
0.0

>  <2D_Mol_H>  (219) 
<rdkit.Chem.rdchem.Mol object at 0x72a238df2810>

>  <MW>  (219) 
292.384

>  <HBA>  (219) 
3

>  <HBD>  (219) 
1

>  <LogP>  (219) 
0.1926

>  <NRB>  (219) 
2

>  <TPSA>  (219) 
66.88

>  <Num_Heavy_Atoms>  (219) 
20

>  <Ro5>  (219) 
[True, True, True, True, True, True]

>  <Ro5_Fulfilled>  (219) 
True

>  <Ro3>  (219) 
[True, True, True, True]

>  <Ro3_Fulfilled>  (219) 
True

>  <Fsp3>  (219) 
0.357143

>  <Fsp3_0.42>  (219) 
False

>  <Fsp3_0.45>  (219) 
False

>  <Stereogenic_Carbons>  (219) 
0

>  <C_Atoms>  (219) 
14

>  <FCStereo>  (219) 
0.0

>  <SPS>  (219) 
360

>  <nSPS>  (219) 
18.0

>  <PBF>  (219) 
0.955979

>  <PBF_0.6>  (219) 
True

>  <nPBF>  (219) 
0.047799

>  <nPBF_0.016>  (219) 
True

>  <PMI1>  (219) 
1047.932543

>  <PMI2>  (219) 
1984.607315

>  <PMI3>  (219) 
2366.363565

>  <NPR1>  (219) 
0.442845

>  <NPR2>  (219) 
0.838674

>  <Sum_NPR>  (219) 
1.281519

>  <Sum_NPR_1.07>  (219) 
True

>  <Sum_NPR_1.2>  (219) 
True

>  <MaxAbsEStateIndex>  (219) 
12.845614

>  <MaxEStateIndex>  (219) 
12.845614

>  <MinAbsEStateIndex>  (219) 
0.388241

>  <MinEStateIndex>  (219) 
-3.426412

>  <qed>  (219) 
0.859215

>  <MolWt>  (219) 
292.384

>  <HeavyAtomMolWt>  (219) 
274.24

>  <ExactMolWt>  (219) 
292.111424

>  <NumValenceElectrons>  (219) 
106

>  <NumRadicalElectrons>  (219) 
0

>  <MaxPartialCharge>  (219) 
0.243397

>  <MinPartialCharge>  (219) 
-0.345118

>  <MaxAbsPartialCharge>  (219) 
0.345118

>  <MinAbsPartialCharge>  (219) 
0.243397

>  <FpDensityMorgan1>  (219) 
1.15

>  <FpDensityMorgan2>  (219) 
2.05

>  <FpDensityMorgan3>  (219) 
2.95

>  <BCUT2D_MWHI>  (219) 
32.233427

>  <BCUT2D_MWLOW>  (219) 
10.168311

>  <BCUT2D_CHGHI>  (219) 
2.268872

>  <BCUT2D_CHGLO>  (219) 
-2.192579

>  <BCUT2D_LOGPHI>  (219) 
2.246607

>  <BCUT2D_LOGPLOW>  (219) 
-2.843702

>  <BCUT2D_MRHI>  (219) 
7.889641

>  <BCUT2D_MRLOW>  (219) 
-0.650697

>  <AvgIpc>  (219) 
2.759566

>  <BalabanJ>  (219) 
2.085841

>  <BertzCT>  (219) 
701.935726

>  <Chi0>  (219) 
14.001789

>  <Chi0n>  (219) 
11.196158

>  <Chi0v>  (219) 
12.012654

>  <Chi1>  (219) 
9.693507

>  <Chi1n>  (219) 
6.840082

>  <Chi1v>  (219) 
8.280145

>  <Chi2n>  (219) 
4.976624

>  <Chi2v>  (219) 
6.882981

>  <Chi3n>  (219) 
3.656948

>  <Chi3v>  (219) 
5.613741

>  <Chi4n>  (219) 
2.60061

>  <Chi4v>  (219) 
4.308342

>  <HallKierAlpha>  (219) 
-1.5

>  <Ipc>  (219) 
56228.921022

>  <Kappa1>  (219) 
13.481559

>  <Kappa2>  (219) 
5.47472

>  <Kappa3>  (219) 
2.416781

>  <LabuteASA>  (219) 
118.222067

>  <PEOE_VSA1>  (219) 
5.316789

>  <PEOE_VSA10>  (219) 
0.0

>  <PEOE_VSA11>  (219) 
0.0

>  <PEOE_VSA12>  (219) 
10.023291

>  <PEOE_VSA13>  (219) 
0.0

>  <PEOE_VSA14>  (219) 
0.0

>  <PEOE_VSA2>  (219) 
4.983979

>  <PEOE_VSA3>  (219) 
8.417797

>  <PEOE_VSA4>  (219) 
4.305216

>  <PEOE_VSA5>  (219) 
0.0

>  <PEOE_VSA6>  (219) 
12.132734

>  <PEOE_VSA7>  (219) 
12.132734

>  <PEOE_VSA8>  (219) 
36.131714

>  <PEOE_VSA9>  (219) 
24.529753

>  <SMR_VSA1>  (219) 
13.734586

>  <SMR_VSA10>  (219) 
20.79574

>  <SMR_VSA2>  (219) 
0.0

>  <SMR_VSA3>  (219) 
9.289195

>  <SMR_VSA4>  (219) 
0.0

>  <SMR_VSA5>  (219) 
11.316305

>  <SMR_VSA6>  (219) 
26.179026

>  <SMR_VSA7>  (219) 
36.659155

>  <SMR_VSA8>  (219) 
0.0

>  <SMR_VSA9>  (219) 
0.0

>  <SlogP_VSA1>  (219) 
5.316789

>  <SlogP_VSA10>  (219) 
0.0

>  <SlogP_VSA11>  (219) 
0.0

>  <SlogP_VSA12>  (219) 
0.0

>  <SlogP_VSA2>  (219) 
43.886017

>  <SlogP_VSA3>  (219) 
10.023291

>  <SlogP_VSA4>  (219) 
0.0

>  <SlogP_VSA5>  (219) 
6.420822

>  <SlogP_VSA6>  (219) 
41.554639

>  <SlogP_VSA7>  (219) 
0.0

>  <SlogP_VSA8>  (219) 
10.772448

>  <SlogP_VSA9>  (219) 
0.0

>  <EState_VSA1>  (219) 
10.023291

>  <EState_VSA10>  (219) 
8.417797

>  <EState_VSA11>  (219) 
0.0

>  <EState_VSA2>  (219) 
0.0

>  <EState_VSA3>  (219) 
17.984996

>  <EState_VSA4>  (219) 
30.282783

>  <EState_VSA5>  (219) 
0.0

>  <EState_VSA6>  (219) 
34.898004

>  <EState_VSA7>  (219) 
6.066367

>  <EState_VSA8>  (219) 
10.300767

>  <EState_VSA9>  (219) 
0.0

>  <VSA_EState1>  (219) 
27.294107

>  <VSA_EState10>  (219) 
0.0

>  <VSA_EState2>  (219) 
4.43837

>  <VSA_EState3>  (219) 
3.771674

>  <VSA_EState4>  (219) 
0.0

>  <VSA_EState5>  (219) 
0.0

>  <VSA_EState6>  (219) 
7.121861

>  <VSA_EState7>  (219) 
4.229827

>  <VSA_EState8>  (219) 
2.98724

>  <VSA_EState9>  (219) 
-3.426412

>  <FractionCSP3>  (219) 
0.357143

>  <HeavyAtomCount>  (219) 
20

>  <NHOHCount>  (219) 
2

>  <NOCount>  (219) 
5

>  <NumAliphaticCarbocycles>  (219) 
0

>  <NumAliphaticHeterocycles>  (219) 
1

>  <NumAliphaticRings>  (219) 
1

>  <NumAromaticCarbocycles>  (219) 
1

>  <NumAromaticHeterocycles>  (219) 
1

>  <NAR>  (219) 
2

>  <NumHAcceptors>  (219) 
3

>  <NumHDonors>  (219) 
1

>  <NumHeteroatoms>  (219) 
6

>  <NumRotatableBonds>  (219) 
2

>  <NumSaturatedCarbocycles>  (219) 
0

>  <NumSaturatedHeterocycles>  (219) 
1

>  <NumSaturatedRings>  (219) 
1

>  <RingCount>  (219) 
3

>  <MolLogP>  (219) 
0.1926

>  <MolMR>  (219) 
76.7782

>  <fr_Al_COO>  (219) 
0

>  <fr_Al_OH>  (219) 
0

>  <fr_Al_OH_noTert>  (219) 
0

>  <fr_ArN>  (219) 
0

>  <fr_Ar_COO>  (219) 
0

>  <fr_Ar_N>  (219) 
1

>  <fr_Ar_NH>  (219) 
0

>  <fr_Ar_OH>  (219) 
0

>  <fr_COO>  (219) 
0

>  <fr_COO2>  (219) 
0

>  <fr_C_O>  (219) 
0

>  <fr_C_O_noCOO>  (219) 
0

>  <fr_C_S>  (219) 
0

>  <fr_HOCCN>  (219) 
0

>  <fr_Imine>  (219) 
0

>  <fr_NH0>  (219) 
2

>  <fr_NH1>  (219) 
0

>  <fr_NH2>  (219) 
1

>  <fr_N_O>  (219) 
0

>  <fr_Ndealkylation1>  (219) 
0

>  <fr_Ndealkylation2>  (219) 
0

>  <fr_Nhpyrrole>  (219) 
0

>  <fr_SH>  (219) 
0

>  <fr_aldehyde>  (219) 
0

>  <fr_alkyl_carbamate>  (219) 
0

>  <fr_alkyl_halide>  (219) 
0

>  <fr_allylic_oxid>  (219) 
0

>  <fr_amide>  (219) 
0

>  <fr_amidine>  (219) 
0

>  <fr_aniline>  (219) 
0

>  <fr_aryl_methyl>  (219) 
0

>  <fr_azide>  (219) 
0

>  <fr_azo>  (219) 
0

>  <fr_barbitur>  (219) 
0

>  <fr_benzene>  (219) 
1

>  <fr_benzodiazepine>  (219) 
0

>  <fr_bicyclic>  (219) 
1

>  <fr_diazo>  (219) 
0

>  <fr_dihydropyridine>  (219) 
0

>  <fr_epoxide>  (219) 
0

>  <fr_ester>  (219) 
0

>  <fr_ether>  (219) 
0

>  <fr_furan>  (219) 
0

>  <fr_guanido>  (219) 
0

>  <fr_halogen>  (219) 
0

>  <fr_hdrzine>  (219) 
0

>  <fr_hdrzone>  (219) 
0

>  <fr_imidazole>  (219) 
0

>  <fr_imide>  (219) 
0

>  <fr_isocyan>  (219) 
0

>  <fr_isothiocyan>  (219) 
0

>  <fr_ketone>  (219) 
0

>  <fr_ketone_Topliss>  (219) 
0

>  <fr_lactam>  (219) 
0

>  <fr_lactone>  (219) 
0

>  <fr_methoxy>  (219) 
0

>  <fr_morpholine>  (219) 
0

>  <fr_nitrile>  (219) 
0

>  <fr_nitro>  (219) 
0

>  <fr_nitro_arom>  (219) 
0

>  <fr_nitro_arom_nonortho>  (219) 
0

>  <fr_nitroso>  (219) 
0

>  <fr_oxazole>  (219) 
0

>  <fr_oxime>  (219) 
0

>  <fr_para_hydroxylation>  (219) 
0

>  <fr_phenol>  (219) 
0

>  <fr_phenol_noOrthoHbond>  (219) 
0

>  <fr_phos_acid>  (219) 
0

>  <fr_phos_ester>  (219) 
0

>  <fr_piperdine>  (219) 
0

>  <fr_piperzine>  (219) 
0

>  <fr_priamide>  (219) 
0

>  <fr_prisulfonamd>  (219) 
0

>  <fr_pyridine>  (219) 
1

>  <fr_quatN>  (219) 
1

>  <fr_sulfide>  (219) 
0

>  <fr_sulfonamd>  (219) 
1

>  <fr_sulfone>  (219) 
0

>  <fr_term_acetylene>  (219) 
0

>  <fr_tetrazole>  (219) 
0

>  <fr_thiazole>  (219) 
0

>  <fr_thiocyan>  (219) 
0

>  <fr_thiophene>  (219) 
0

>  <fr_unbrch_alkane>  (219) 
0

>  <fr_urea>  (219) 
0

>  <NP-Likeness>  (219) 
-1.563087

$$$$
M77
     RDKit          3D

  0  0  0  0  0  0  0  0  0  0999 V3000
M  V30 BEGIN CTAB
M  V30 COUNTS 38 40 0 0 0
M  V30 BEGIN ATOM
M  V30 1 C -2.091233 -1.594385 2.906302 0
M  V30 2 N -1.680960 -2.182747 4.052633 0
M  V30 3 C -0.515018 -2.873413 4.068147 0
M  V30 4 C 0.308292 -3.018951 2.949866 0
M  V30 5 C 1.477432 -3.728316 2.977587 0
M  V30 6 C 2.226080 -3.832341 1.825455 0
M  V30 7 C 1.734822 -3.202489 0.708487 0
M  V30 8 C 0.564073 -2.469575 0.608116 0
M  V30 9 S 0.153480 -1.711980 -0.909636 0
M  V30 10 O 1.120955 -2.188711 -1.956254 0
M  V30 11 O -1.213305 -2.211529 -1.356205 0
M  V30 12 N 0.221570 -0.043553 -0.754317 0
M  V30 13 C -0.956161 0.717369 -0.907329 0
M  V30 14 C -1.082648 1.570010 0.352111 0
M  V30 15 C -0.538303 2.937253 0.007692 0
M  V30 16 N 0.781616 2.910681 -0.541566 0 CHG=1 VAL=4
M  V30 17 C 1.606094 1.818971 -0.110650 0
M  V30 18 C 1.458747 0.591858 -1.016364 0
M  V30 19 C -0.119637 -2.417616 1.797989 0
M  V30 20 C -1.299136 -1.726569 1.804330 0
M  V30 21 H -3.021231 -1.072583 2.989308 0
M  V30 22 H -0.125285 -3.374636 4.965651 0
M  V30 23 H 1.804015 -4.198167 3.892934 0
M  V30 24 H 3.142572 -4.382001 1.823371 0
M  V30 25 H 2.368160 -3.315768 -0.181551 0
M  V30 26 H -0.940805 1.393619 -1.811666 0
M  V30 27 H -1.838858 0.072782 -1.071266 0
M  V30 28 H -2.128197 1.691131 0.673260 0
M  V30 29 H -0.525334 1.156236 1.201014 0
M  V30 30 H -0.670020 3.656138 0.820389 0
M  V30 31 H -1.207644 3.306794 -0.823964 0
M  V30 32 H 0.772037 2.858704 -1.603737 0
M  V30 33 H 1.252393 3.816104 -0.240274 0
M  V30 34 H 1.477504 1.565846 0.953541 0
M  V30 35 H 2.673483 2.139389 -0.233128 0
M  V30 36 H 1.670633 0.892209 -2.040332 0
M  V30 37 H 2.266702 -0.105228 -0.649383 0
M  V30 38 H -1.652164 -1.265669 0.911621 0
M  V30 END ATOM
M  V30 BEGIN BOND
M  V30 1 2 1 2
M  V30 2 1 2 3
M  V30 3 2 3 4
M  V30 4 1 4 5
M  V30 5 2 5 6
M  V30 6 1 6 7
M  V30 7 2 7 8
M  V30 8 1 8 9
M  V30 9 2 9 10
M  V30 10 2 9 11
M  V30 11 1 9 12
M  V30 12 1 12 13
M  V30 13 1 13 14
M  V30 14 1 14 15
M  V30 15 1 15 16
M  V30 16 1 16 17
M  V30 17 1 17 18
M  V30 18 1 8 19
M  V30 19 2 19 20
M  V30 20 1 20 1
M  V30 21 1 19 4
M  V30 22 1 18 12
M  V30 23 1 1 21
M  V30 24 1 3 22
M  V30 25 1 5 23
M  V30 26 1 6 24
M  V30 27 1 7 25
M  V30 28 1 13 26
M  V30 29 1 13 27
M  V30 30 1 14 28
M  V30 31 1 14 29
M  V30 32 1 15 30
M  V30 33 1 15 31
M  V30 34 1 16 32
M  V30 35 1 16 33
M  V30 36 1 17 34
M  V30 37 1 17 35
M  V30 38 1 18 36
M  V30 39 1 18 37
M  V30 40 1 20 38
M  V30 END BOND
M  V30 END CTAB
M  END
>  <Dataset>  (220) 
PDB

>  <Ligand_Instance>  (220) 
6ERW_M77_A_401

>  <PDB_ID>  (220) 
6ERW

>  <Standardized_SMILES>  (220) 
[H]C1=NC([H])=C2C([H])=C([H])C([H])=C(S(=O)(=O)N3C([H])([H])C([H])([H])C([H])([H])[N+]([H])([H])C([H])([H])C3([H])[H])C2=C1[H]

>  <Name>  (220) 
5-(1,4-DIAZEPAN-1-SULFONYL)ISOQUINOLINE

>  <Pocket>  (220) 
A

>  <ATP_Site>  (220) 
1.0

>  <Peripheral>  (220) 
0.0

>  <Num_H_Atoms_ProtBoundConf>  (220) 
18.0

>  <Num_Resolved_Atoms>  (220) 
20.0

>  <Num_Not_Resolved_Atoms>  (220) 
0.0

>  <2D_Mol_H>  (220) 
<rdkit.Chem.rdchem.Mol object at 0x72a238df28f0>

>  <MW>  (220) 
292.384

>  <HBA>  (220) 
3

>  <HBD>  (220) 
1

>  <LogP>  (220) 
0.1926

>  <NRB>  (220) 
2

>  <TPSA>  (220) 
66.88

>  <Num_Heavy_Atoms>  (220) 
20

>  <Ro5>  (220) 
[True, True, True, True, True, True]

>  <Ro5_Fulfilled>  (220) 
True

>  <Ro3>  (220) 
[True, True, True, True]

>  <Ro3_Fulfilled>  (220) 
True

>  <Fsp3>  (220) 
0.357143

>  <Fsp3_0.42>  (220) 
False

>  <Fsp3_0.45>  (220) 
False

>  <Stereogenic_Carbons>  (220) 
0

>  <C_Atoms>  (220) 
14

>  <FCStereo>  (220) 
0.0

>  <SPS>  (220) 
360

>  <nSPS>  (220) 
18.0

>  <PBF>  (220) 
0.955979

>  <PBF_0.6>  (220) 
True

>  <nPBF>  (220) 
0.047799

>  <nPBF_0.016>  (220) 
True

>  <PMI1>  (220) 
1047.932543

>  <PMI2>  (220) 
1984.607315

>  <PMI3>  (220) 
2366.363565

>  <NPR1>  (220) 
0.442845

>  <NPR2>  (220) 
0.838674

>  <Sum_NPR>  (220) 
1.281519

>  <Sum_NPR_1.07>  (220) 
True

>  <Sum_NPR_1.2>  (220) 
True

>  <MaxAbsEStateIndex>  (220) 
12.845614

>  <MaxEStateIndex>  (220) 
12.845614

>  <MinAbsEStateIndex>  (220) 
0.388241

>  <MinEStateIndex>  (220) 
-3.426412

>  <qed>  (220) 
0.859215

>  <MolWt>  (220) 
292.384

>  <HeavyAtomMolWt>  (220) 
274.24

>  <ExactMolWt>  (220) 
292.111424

>  <NumValenceElectrons>  (220) 
106

>  <NumRadicalElectrons>  (220) 
0

>  <MaxPartialCharge>  (220) 
0.243397

>  <MinPartialCharge>  (220) 
-0.345118

>  <MaxAbsPartialCharge>  (220) 
0.345118

>  <MinAbsPartialCharge>  (220) 
0.243397

>  <FpDensityMorgan1>  (220) 
1.15

>  <FpDensityMorgan2>  (220) 
2.05

>  <FpDensityMorgan3>  (220) 
2.95

>  <BCUT2D_MWHI>  (220) 
32.233427

>  <BCUT2D_MWLOW>  (220) 
10.168311

>  <BCUT2D_CHGHI>  (220) 
2.268872

>  <BCUT2D_CHGLO>  (220) 
-2.192579

>  <BCUT2D_LOGPHI>  (220) 
2.246607

>  <BCUT2D_LOGPLOW>  (220) 
-2.843702

>  <BCUT2D_MRHI>  (220) 
7.889641

>  <BCUT2D_MRLOW>  (220) 
-0.650697

>  <AvgIpc>  (220) 
2.759566

>  <BalabanJ>  (220) 
2.085841

>  <BertzCT>  (220) 
701.935726

>  <Chi0>  (220) 
14.001789

>  <Chi0n>  (220) 
11.196158

>  <Chi0v>  (220) 
12.012654

>  <Chi1>  (220) 
9.693507

>  <Chi1n>  (220) 
6.840082

>  <Chi1v>  (220) 
8.280145

>  <Chi2n>  (220) 
4.976624

>  <Chi2v>  (220) 
6.882981

>  <Chi3n>  (220) 
3.656948

>  <Chi3v>  (220) 
5.613741

>  <Chi4n>  (220) 
2.60061

>  <Chi4v>  (220) 
4.308342

>  <HallKierAlpha>  (220) 
-1.5

>  <Ipc>  (220) 
56228.921022

>  <Kappa1>  (220) 
13.481559

>  <Kappa2>  (220) 
5.47472

>  <Kappa3>  (220) 
2.416781

>  <LabuteASA>  (220) 
118.222067

>  <PEOE_VSA1>  (220) 
5.316789

>  <PEOE_VSA10>  (220) 
0.0

>  <PEOE_VSA11>  (220) 
0.0

>  <PEOE_VSA12>  (220) 
10.023291

>  <PEOE_VSA13>  (220) 
0.0

>  <PEOE_VSA14>  (220) 
0.0

>  <PEOE_VSA2>  (220) 
4.983979

>  <PEOE_VSA3>  (220) 
8.417797

>  <PEOE_VSA4>  (220) 
4.305216

>  <PEOE_VSA5>  (220) 
0.0

>  <PEOE_VSA6>  (220) 
12.132734

>  <PEOE_VSA7>  (220) 
12.132734

>  <PEOE_VSA8>  (220) 
36.131714

>  <PEOE_VSA9>  (220) 
24.529753

>  <SMR_VSA1>  (220) 
13.734586

>  <SMR_VSA10>  (220) 
20.79574

>  <SMR_VSA2>  (220) 
0.0

>  <SMR_VSA3>  (220) 
9.289195

>  <SMR_VSA4>  (220) 
0.0

>  <SMR_VSA5>  (220) 
11.316305

>  <SMR_VSA6>  (220) 
26.179026

>  <SMR_VSA7>  (220) 
36.659155

>  <SMR_VSA8>  (220) 
0.0

>  <SMR_VSA9>  (220) 
0.0

>  <SlogP_VSA1>  (220) 
5.316789

>  <SlogP_VSA10>  (220) 
0.0

>  <SlogP_VSA11>  (220) 
0.0

>  <SlogP_VSA12>  (220) 
0.0

>  <SlogP_VSA2>  (220) 
43.886017

>  <SlogP_VSA3>  (220) 
10.023291

>  <SlogP_VSA4>  (220) 
0.0

>  <SlogP_VSA5>  (220) 
6.420822

>  <SlogP_VSA6>  (220) 
41.554639

>  <SlogP_VSA7>  (220) 
0.0

>  <SlogP_VSA8>  (220) 
10.772448

>  <SlogP_VSA9>  (220) 
0.0

>  <EState_VSA1>  (220) 
10.023291

>  <EState_VSA10>  (220) 
8.417797

>  <EState_VSA11>  (220) 
0.0

>  <EState_VSA2>  (220) 
0.0

>  <EState_VSA3>  (220) 
17.984996

>  <EState_VSA4>  (220) 
30.282783

>  <EState_VSA5>  (220) 
0.0

>  <EState_VSA6>  (220) 
34.898004

>  <EState_VSA7>  (220) 
6.066367

>  <EState_VSA8>  (220) 
10.300767

>  <EState_VSA9>  (220) 
0.0

>  <VSA_EState1>  (220) 
27.294107

>  <VSA_EState10>  (220) 
0.0

>  <VSA_EState2>  (220) 
4.43837

>  <VSA_EState3>  (220) 
3.771674

>  <VSA_EState4>  (220) 
0.0

>  <VSA_EState5>  (220) 
0.0

>  <VSA_EState6>  (220) 
7.121861

>  <VSA_EState7>  (220) 
4.229827

>  <VSA_EState8>  (220) 
2.98724

>  <VSA_EState9>  (220) 
-3.426412

>  <FractionCSP3>  (220) 
0.357143

>  <HeavyAtomCount>  (220) 
20

>  <NHOHCount>  (220) 
2

>  <NOCount>  (220) 
5

>  <NumAliphaticCarbocycles>  (220) 
0

>  <NumAliphaticHeterocycles>  (220) 
1

>  <NumAliphaticRings>  (220) 
1

>  <NumAromaticCarbocycles>  (220) 
1

>  <NumAromaticHeterocycles>  (220) 
1

>  <NAR>  (220) 
2

>  <NumHAcceptors>  (220) 
3

>  <NumHDonors>  (220) 
1

>  <NumHeteroatoms>  (220) 
6

>  <NumRotatableBonds>  (220) 
2

>  <NumSaturatedCarbocycles>  (220) 
0

>  <NumSaturatedHeterocycles>  (220) 
1

>  <NumSaturatedRings>  (220) 
1

>  <RingCount>  (220) 
3

>  <MolLogP>  (220) 
0.1926

>  <MolMR>  (220) 
76.7782

>  <fr_Al_COO>  (220) 
0

>  <fr_Al_OH>  (220) 
0

>  <fr_Al_OH_noTert>  (220) 
0

>  <fr_ArN>  (220) 
0

>  <fr_Ar_COO>  (220) 
0

>  <fr_Ar_N>  (220) 
1

>  <fr_Ar_NH>  (220) 
0

>  <fr_Ar_OH>  (220) 
0

>  <fr_COO>  (220) 
0

>  <fr_COO2>  (220) 
0

>  <fr_C_O>  (220) 
0

>  <fr_C_O_noCOO>  (220) 
0

>  <fr_C_S>  (220) 
0

>  <fr_HOCCN>  (220) 
0

>  <fr_Imine>  (220) 
0

>  <fr_NH0>  (220) 
2

>  <fr_NH1>  (220) 
0

>  <fr_NH2>  (220) 
1

>  <fr_N_O>  (220) 
0

>  <fr_Ndealkylation1>  (220) 
0

>  <fr_Ndealkylation2>  (220) 
0

>  <fr_Nhpyrrole>  (220) 
0

>  <fr_SH>  (220) 
0

>  <fr_aldehyde>  (220) 
0

>  <fr_alkyl_carbamate>  (220) 
0

>  <fr_alkyl_halide>  (220) 
0

>  <fr_allylic_oxid>  (220) 
0

>  <fr_amide>  (220) 
0

>  <fr_amidine>  (220) 
0

>  <fr_aniline>  (220) 
0

>  <fr_aryl_methyl>  (220) 
0

>  <fr_azide>  (220) 
0

>  <fr_azo>  (220) 
0

>  <fr_barbitur>  (220) 
0

>  <fr_benzene>  (220) 
1

>  <fr_benzodiazepine>  (220) 
0

>  <fr_bicyclic>  (220) 
1

>  <fr_diazo>  (220) 
0

>  <fr_dihydropyridine>  (220) 
0

>  <fr_epoxide>  (220) 
0

>  <fr_ester>  (220) 
0

>  <fr_ether>  (220) 
0

>  <fr_furan>  (220) 
0

>  <fr_guanido>  (220) 
0

>  <fr_halogen>  (220) 
0

>  <fr_hdrzine>  (220) 
0

>  <fr_hdrzone>  (220) 
0

>  <fr_imidazole>  (220) 
0

>  <fr_imide>  (220) 
0

>  <fr_isocyan>  (220) 
0

>  <fr_isothiocyan>  (220) 
0

>  <fr_ketone>  (220) 
0

>  <fr_ketone_Topliss>  (220) 
0

>  <fr_lactam>  (220) 
0

>  <fr_lactone>  (220) 
0

>  <fr_methoxy>  (220) 
0

>  <fr_morpholine>  (220) 
0

>  <fr_nitrile>  (220) 
0

>  <fr_nitro>  (220) 
0

>  <fr_nitro_arom>  (220) 
0

>  <fr_nitro_arom_nonortho>  (220) 
0

>  <fr_nitroso>  (220) 
0

>  <fr_oxazole>  (220) 
0

>  <fr_oxime>  (220) 
0

>  <fr_para_hydroxylation>  (220) 
0

>  <fr_phenol>  (220) 
0

>  <fr_phenol_noOrthoHbond>  (220) 
0

>  <fr_phos_acid>  (220) 
0

>  <fr_phos_ester>  (220) 
0

>  <fr_piperdine>  (220) 
0

>  <fr_piperzine>  (220) 
0

>  <fr_priamide>  (220) 
0

>  <fr_prisulfonamd>  (220) 
0

>  <fr_pyridine>  (220) 
1

>  <fr_quatN>  (220) 
1

>  <fr_sulfide>  (220) 
0

>  <fr_sulfonamd>  (220) 
1

>  <fr_sulfone>  (220) 
0

>  <fr_term_acetylene>  (220) 
0

>  <fr_tetrazole>  (220) 
0

>  <fr_thiazole>  (220) 
0

>  <fr_thiocyan>  (220) 
0

>  <fr_thiophene>  (220) 
0

>  <fr_unbrch_alkane>  (220) 
0

>  <fr_urea>  (220) 
0

>  <NP-Likeness>  (220) 
-1.563087

$$$$
M77
     RDKit          3D

  0  0  0  0  0  0  0  0  0  0999 V3000
M  V30 BEGIN CTAB
M  V30 COUNTS 38 40 0 0 0
M  V30 BEGIN ATOM
M  V30 1 C -2.091233 -1.594385 2.906302 0
M  V30 2 N -1.680960 -2.182747 4.052633 0
M  V30 3 C -0.515018 -2.873413 4.068147 0
M  V30 4 C 0.308292 -3.018951 2.949866 0
M  V30 5 C 1.477432 -3.728316 2.977587 0
M  V30 6 C 2.226080 -3.832341 1.825455 0
M  V30 7 C 1.734822 -3.202489 0.708487 0
M  V30 8 C 0.564073 -2.469575 0.608116 0
M  V30 9 S 0.153480 -1.711980 -0.909636 0
M  V30 10 O 1.120955 -2.188711 -1.956254 0
M  V30 11 O -1.213305 -2.211529 -1.356205 0
M  V30 12 N 0.221570 -0.043553 -0.754317 0
M  V30 13 C -0.956161 0.717369 -0.907329 0
M  V30 14 C -1.082648 1.570010 0.352111 0
M  V30 15 C -0.538303 2.937253 0.007692 0
M  V30 16 N 0.781616 2.910681 -0.541566 0 CHG=1 VAL=4
M  V30 17 C 1.606094 1.818971 -0.110650 0
M  V30 18 C 1.458747 0.591858 -1.016364 0
M  V30 19 C -0.119637 -2.417616 1.797989 0
M  V30 20 C -1.299136 -1.726569 1.804330 0
M  V30 21 H -3.021231 -1.072583 2.989308 0
M  V30 22 H -0.125285 -3.374636 4.965651 0
M  V30 23 H 1.804015 -4.198167 3.892934 0
M  V30 24 H 3.142572 -4.382001 1.823371 0
M  V30 25 H 2.368160 -3.315768 -0.181551 0
M  V30 26 H -0.940805 1.393619 -1.811666 0
M  V30 27 H -1.838858 0.072782 -1.071266 0
M  V30 28 H -2.128197 1.691131 0.673260 0
M  V30 29 H -0.525334 1.156236 1.201014 0
M  V30 30 H -0.670020 3.656138 0.820389 0
M  V30 31 H -1.207644 3.306794 -0.823964 0
M  V30 32 H 0.772037 2.858704 -1.603737 0
M  V30 33 H 1.252393 3.816104 -0.240274 0
M  V30 34 H 1.477504 1.565846 0.953541 0
M  V30 35 H 2.673483 2.139389 -0.233128 0
M  V30 36 H 1.670633 0.892209 -2.040332 0
M  V30 37 H 2.266702 -0.105228 -0.649383 0
M  V30 38 H -1.652164 -1.265669 0.911621 0
M  V30 END ATOM
M  V30 BEGIN BOND
M  V30 1 2 1 2
M  V30 2 1 2 3
M  V30 3 2 3 4
M  V30 4 1 4 5
M  V30 5 2 5 6
M  V30 6 1 6 7
M  V30 7 2 7 8
M  V30 8 1 8 9
M  V30 9 2 9 10
M  V30 10 2 9 11
M  V30 11 1 9 12
M  V30 12 1 12 13
M  V30 13 1 13 14
M  V30 14 1 14 15
M  V30 15 1 15 16
M  V30 16 1 16 17
M  V30 17 1 17 18
M  V30 18 1 8 19
M  V30 19 2 19 20
M  V30 20 1 20 1
M  V30 21 1 19 4
M  V30 22 1 18 12
M  V30 23 1 1 21
M  V30 24 1 3 22
M  V30 25 1 5 23
M  V30 26 1 6 24
M  V30 27 1 7 25
M  V30 28 1 13 26
M  V30 29 1 13 27
M  V30 30 1 14 28
M  V30 31 1 14 29
M  V30 32 1 15 30
M  V30 33 1 15 31
M  V30 34 1 16 32
M  V30 35 1 16 33
M  V30 36 1 17 34
M  V30 37 1 17 35
M  V30 38 1 18 36
M  V30 39 1 18 37
M  V30 40 1 20 38
M  V30 END BOND
M  V30 END CTAB
M  END
>  <Dataset>  (221) 
PDB

>  <Ligand_Instance>  (221) 
6I2A_M77_A_401

>  <PDB_ID>  (221) 
6I2A

>  <Standardized_SMILES>  (221) 
[H]C1=NC([H])=C2C([H])=C([H])C([H])=C(S(=O)(=O)N3C([H])([H])C([H])([H])C([H])([H])[N+]([H])([H])C([H])([H])C3([H])[H])C2=C1[H]

>  <Name>  (221) 
5-(1,4-DIAZEPAN-1-SULFONYL)ISOQUINOLINE

>  <Pocket>  (221) 
A

>  <ATP_Site>  (221) 
1.0

>  <Peripheral>  (221) 
0.0

>  <Num_H_Atoms_ProtBoundConf>  (221) 
18.0

>  <Num_Resolved_Atoms>  (221) 
20.0

>  <Num_Not_Resolved_Atoms>  (221) 
0.0

>  <2D_Mol_H>  (221) 
<rdkit.Chem.rdchem.Mol object at 0x72a238df29d0>

>  <MW>  (221) 
292.384

>  <HBA>  (221) 
3

>  <HBD>  (221) 
1

>  <LogP>  (221) 
0.1926

>  <NRB>  (221) 
2

>  <TPSA>  (221) 
66.88

>  <Num_Heavy_Atoms>  (221) 
20

>  <Ro5>  (221) 
[True, True, True, True, True, True]

>  <Ro5_Fulfilled>  (221) 
True

>  <Ro3>  (221) 
[True, True, True, True]

>  <Ro3_Fulfilled>  (221) 
True

>  <Fsp3>  (221) 
0.357143

>  <Fsp3_0.42>  (221) 
False

>  <Fsp3_0.45>  (221) 
False

>  <Stereogenic_Carbons>  (221) 
0

>  <C_Atoms>  (221) 
14

>  <FCStereo>  (221) 
0.0

>  <SPS>  (221) 
360

>  <nSPS>  (221) 
18.0

>  <PBF>  (221) 
0.955979

>  <PBF_0.6>  (221) 
True

>  <nPBF>  (221) 
0.047799

>  <nPBF_0.016>  (221) 
True

>  <PMI1>  (221) 
1047.932543

>  <PMI2>  (221) 
1984.607315

>  <PMI3>  (221) 
2366.363565

>  <NPR1>  (221) 
0.442845

>  <NPR2>  (221) 
0.838674

>  <Sum_NPR>  (221) 
1.281519

>  <Sum_NPR_1.07>  (221) 
True

>  <Sum_NPR_1.2>  (221) 
True

>  <MaxAbsEStateIndex>  (221) 
12.845614

>  <MaxEStateIndex>  (221) 
12.845614

>  <MinAbsEStateIndex>  (221) 
0.388241

>  <MinEStateIndex>  (221) 
-3.426412

>  <qed>  (221) 
0.859215

>  <MolWt>  (221) 
292.384

>  <HeavyAtomMolWt>  (221) 
274.24

>  <ExactMolWt>  (221) 
292.111424

>  <NumValenceElectrons>  (221) 
106

>  <NumRadicalElectrons>  (221) 
0

>  <MaxPartialCharge>  (221) 
0.243397

>  <MinPartialCharge>  (221) 
-0.345118

>  <MaxAbsPartialCharge>  (221) 
0.345118

>  <MinAbsPartialCharge>  (221) 
0.243397

>  <FpDensityMorgan1>  (221) 
1.15

>  <FpDensityMorgan2>  (221) 
2.05

>  <FpDensityMorgan3>  (221) 
2.95

>  <BCUT2D_MWHI>  (221) 
32.233427

>  <BCUT2D_MWLOW>  (221) 
10.168311

>  <BCUT2D_CHGHI>  (221) 
2.268872

>  <BCUT2D_CHGLO>  (221) 
-2.192579

>  <BCUT2D_LOGPHI>  (221) 
2.246607

>  <BCUT2D_LOGPLOW>  (221) 
-2.843702

>  <BCUT2D_MRHI>  (221) 
7.889641

>  <BCUT2D_MRLOW>  (221) 
-0.650697

>  <AvgIpc>  (221) 
2.759566

>  <BalabanJ>  (221) 
2.085841

>  <BertzCT>  (221) 
701.935726

>  <Chi0>  (221) 
14.001789

>  <Chi0n>  (221) 
11.196158

>  <Chi0v>  (221) 
12.012654

>  <Chi1>  (221) 
9.693507

>  <Chi1n>  (221) 
6.840082

>  <Chi1v>  (221) 
8.280145

>  <Chi2n>  (221) 
4.976624

>  <Chi2v>  (221) 
6.882981

>  <Chi3n>  (221) 
3.656948

>  <Chi3v>  (221) 
5.613741

>  <Chi4n>  (221) 
2.60061

>  <Chi4v>  (221) 
4.308342

>  <HallKierAlpha>  (221) 
-1.5

>  <Ipc>  (221) 
56228.921022

>  <Kappa1>  (221) 
13.481559

>  <Kappa2>  (221) 
5.47472

>  <Kappa3>  (221) 
2.416781

>  <LabuteASA>  (221) 
118.222067

>  <PEOE_VSA1>  (221) 
5.316789

>  <PEOE_VSA10>  (221) 
0.0

>  <PEOE_VSA11>  (221) 
0.0

>  <PEOE_VSA12>  (221) 
10.023291

>  <PEOE_VSA13>  (221) 
0.0

>  <PEOE_VSA14>  (221) 
0.0

>  <PEOE_VSA2>  (221) 
4.983979

>  <PEOE_VSA3>  (221) 
8.417797

>  <PEOE_VSA4>  (221) 
4.305216

>  <PEOE_VSA5>  (221) 
0.0

>  <PEOE_VSA6>  (221) 
12.132734

>  <PEOE_VSA7>  (221) 
12.132734

>  <PEOE_VSA8>  (221) 
36.131714

>  <PEOE_VSA9>  (221) 
24.529753

>  <SMR_VSA1>  (221) 
13.734586

>  <SMR_VSA10>  (221) 
20.79574

>  <SMR_VSA2>  (221) 
0.0

>  <SMR_VSA3>  (221) 
9.289195

>  <SMR_VSA4>  (221) 
0.0

>  <SMR_VSA5>  (221) 
11.316305

>  <SMR_VSA6>  (221) 
26.179026

>  <SMR_VSA7>  (221) 
36.659155

>  <SMR_VSA8>  (221) 
0.0

>  <SMR_VSA9>  (221) 
0.0

>  <SlogP_VSA1>  (221) 
5.316789

>  <SlogP_VSA10>  (221) 
0.0

>  <SlogP_VSA11>  (221) 
0.0

>  <SlogP_VSA12>  (221) 
0.0

>  <SlogP_VSA2>  (221) 
43.886017

>  <SlogP_VSA3>  (221) 
10.023291

>  <SlogP_VSA4>  (221) 
0.0

>  <SlogP_VSA5>  (221) 
6.420822

>  <SlogP_VSA6>  (221) 
41.554639

>  <SlogP_VSA7>  (221) 
0.0

>  <SlogP_VSA8>  (221) 
10.772448

>  <SlogP_VSA9>  (221) 
0.0

>  <EState_VSA1>  (221) 
10.023291

>  <EState_VSA10>  (221) 
8.417797

>  <EState_VSA11>  (221) 
0.0

>  <EState_VSA2>  (221) 
0.0

>  <EState_VSA3>  (221) 
17.984996

>  <EState_VSA4>  (221) 
30.282783

>  <EState_VSA5>  (221) 
0.0

>  <EState_VSA6>  (221) 
34.898004

>  <EState_VSA7>  (221) 
6.066367

>  <EState_VSA8>  (221) 
10.300767

>  <EState_VSA9>  (221) 
0.0

>  <VSA_EState1>  (221) 
27.294107

>  <VSA_EState10>  (221) 
0.0

>  <VSA_EState2>  (221) 
4.43837

>  <VSA_EState3>  (221) 
3.771674

>  <VSA_EState4>  (221) 
0.0

>  <VSA_EState5>  (221) 
0.0

>  <VSA_EState6>  (221) 
7.121861

>  <VSA_EState7>  (221) 
4.229827

>  <VSA_EState8>  (221) 
2.98724

>  <VSA_EState9>  (221) 
-3.426412

>  <FractionCSP3>  (221) 
0.357143

>  <HeavyAtomCount>  (221) 
20

>  <NHOHCount>  (221) 
2

>  <NOCount>  (221) 
5

>  <NumAliphaticCarbocycles>  (221) 
0

>  <NumAliphaticHeterocycles>  (221) 
1

>  <NumAliphaticRings>  (221) 
1

>  <NumAromaticCarbocycles>  (221) 
1

>  <NumAromaticHeterocycles>  (221) 
1

>  <NAR>  (221) 
2

>  <NumHAcceptors>  (221) 
3

>  <NumHDonors>  (221) 
1

>  <NumHeteroatoms>  (221) 
6

>  <NumRotatableBonds>  (221) 
2

>  <NumSaturatedCarbocycles>  (221) 
0

>  <NumSaturatedHeterocycles>  (221) 
1

>  <NumSaturatedRings>  (221) 
1

>  <RingCount>  (221) 
3

>  <MolLogP>  (221) 
0.1926

>  <MolMR>  (221) 
76.7782

>  <fr_Al_COO>  (221) 
0

>  <fr_Al_OH>  (221) 
0

>  <fr_Al_OH_noTert>  (221) 
0

>  <fr_ArN>  (221) 
0

>  <fr_Ar_COO>  (221) 
0

>  <fr_Ar_N>  (221) 
1

>  <fr_Ar_NH>  (221) 
0

>  <fr_Ar_OH>  (221) 
0

>  <fr_COO>  (221) 
0

>  <fr_COO2>  (221) 
0

>  <fr_C_O>  (221) 
0

>  <fr_C_O_noCOO>  (221) 
0

>  <fr_C_S>  (221) 
0

>  <fr_HOCCN>  (221) 
0

>  <fr_Imine>  (221) 
0

>  <fr_NH0>  (221) 
2

>  <fr_NH1>  (221) 
0

>  <fr_NH2>  (221) 
1

>  <fr_N_O>  (221) 
0

>  <fr_Ndealkylation1>  (221) 
0

>  <fr_Ndealkylation2>  (221) 
0

>  <fr_Nhpyrrole>  (221) 
0

>  <fr_SH>  (221) 
0

>  <fr_aldehyde>  (221) 
0

>  <fr_alkyl_carbamate>  (221) 
0

>  <fr_alkyl_halide>  (221) 
0

>  <fr_allylic_oxid>  (221) 
0

>  <fr_amide>  (221) 
0

>  <fr_amidine>  (221) 
0

>  <fr_aniline>  (221) 
0

>  <fr_aryl_methyl>  (221) 
0

>  <fr_azide>  (221) 
0

>  <fr_azo>  (221) 
0

>  <fr_barbitur>  (221) 
0

>  <fr_benzene>  (221) 
1

>  <fr_benzodiazepine>  (221) 
0

>  <fr_bicyclic>  (221) 
1

>  <fr_diazo>  (221) 
0

>  <fr_dihydropyridine>  (221) 
0

>  <fr_epoxide>  (221) 
0

>  <fr_ester>  (221) 
0

>  <fr_ether>  (221) 
0

>  <fr_furan>  (221) 
0

>  <fr_guanido>  (221) 
0

>  <fr_halogen>  (221) 
0

>  <fr_hdrzine>  (221) 
0

>  <fr_hdrzone>  (221) 
0

>  <fr_imidazole>  (221) 
0

>  <fr_imide>  (221) 
0

>  <fr_isocyan>  (221) 
0

>  <fr_isothiocyan>  (221) 
0

>  <fr_ketone>  (221) 
0

>  <fr_ketone_Topliss>  (221) 
0

>  <fr_lactam>  (221) 
0

>  <fr_lactone>  (221) 
0

>  <fr_methoxy>  (221) 
0

>  <fr_morpholine>  (221) 
0

>  <fr_nitrile>  (221) 
0

>  <fr_nitro>  (221) 
0

>  <fr_nitro_arom>  (221) 
0

>  <fr_nitro_arom_nonortho>  (221) 
0

>  <fr_nitroso>  (221) 
0

>  <fr_oxazole>  (221) 
0

>  <fr_oxime>  (221) 
0

>  <fr_para_hydroxylation>  (221) 
0

>  <fr_phenol>  (221) 
0

>  <fr_phenol_noOrthoHbond>  (221) 
0

>  <fr_phos_acid>  (221) 
0

>  <fr_phos_ester>  (221) 
0

>  <fr_piperdine>  (221) 
0

>  <fr_piperzine>  (221) 
0

>  <fr_priamide>  (221) 
0

>  <fr_prisulfonamd>  (221) 
0

>  <fr_pyridine>  (221) 
1

>  <fr_quatN>  (221) 
1

>  <fr_sulfide>  (221) 
0

>  <fr_sulfonamd>  (221) 
1

>  <fr_sulfone>  (221) 
0

>  <fr_term_acetylene>  (221) 
0

>  <fr_tetrazole>  (221) 
0

>  <fr_thiazole>  (221) 
0

>  <fr_thiocyan>  (221) 
0

>  <fr_thiophene>  (221) 
0

>  <fr_unbrch_alkane>  (221) 
0

>  <fr_urea>  (221) 
0

>  <NP-Likeness>  (221) 
-1.563087

$$$$
M77
     RDKit          3D

  0  0  0  0  0  0  0  0  0  0999 V3000
M  V30 BEGIN CTAB
M  V30 COUNTS 38 40 0 0 0
M  V30 BEGIN ATOM
M  V30 1 C -2.091233 -1.594385 2.906302 0
M  V30 2 N -1.680960 -2.182747 4.052633 0
M  V30 3 C -0.515018 -2.873413 4.068147 0
M  V30 4 C 0.308292 -3.018951 2.949866 0
M  V30 5 C 1.477432 -3.728316 2.977587 0
M  V30 6 C 2.226080 -3.832341 1.825455 0
M  V30 7 C 1.734822 -3.202489 0.708487 0
M  V30 8 C 0.564073 -2.469575 0.608116 0
M  V30 9 S 0.153480 -1.711980 -0.909636 0
M  V30 10 O 1.120955 -2.188711 -1.956254 0
M  V30 11 O -1.213305 -2.211529 -1.356205 0
M  V30 12 N 0.221570 -0.043553 -0.754317 0
M  V30 13 C -0.956161 0.717369 -0.907329 0
M  V30 14 C -1.082648 1.570010 0.352111 0
M  V30 15 C -0.538303 2.937253 0.007692 0
M  V30 16 N 0.781616 2.910681 -0.541566 0 CHG=1 VAL=4
M  V30 17 C 1.606094 1.818971 -0.110650 0
M  V30 18 C 1.458747 0.591858 -1.016364 0
M  V30 19 C -0.119637 -2.417616 1.797989 0
M  V30 20 C -1.299136 -1.726569 1.804330 0
M  V30 21 H -3.021231 -1.072583 2.989308 0
M  V30 22 H -0.125285 -3.374636 4.965651 0
M  V30 23 H 1.804015 -4.198167 3.892934 0
M  V30 24 H 3.142572 -4.382001 1.823371 0
M  V30 25 H 2.368160 -3.315768 -0.181551 0
M  V30 26 H -0.940805 1.393619 -1.811666 0
M  V30 27 H -1.838858 0.072782 -1.071266 0
M  V30 28 H -2.128197 1.691131 0.673260 0
M  V30 29 H -0.525334 1.156236 1.201014 0
M  V30 30 H -0.670020 3.656138 0.820389 0
M  V30 31 H -1.207644 3.306794 -0.823964 0
M  V30 32 H 0.772037 2.858704 -1.603737 0
M  V30 33 H 1.252393 3.816104 -0.240274 0
M  V30 34 H 1.477504 1.565846 0.953541 0
M  V30 35 H 2.673483 2.139389 -0.233128 0
M  V30 36 H 1.670633 0.892209 -2.040332 0
M  V30 37 H 2.266702 -0.105228 -0.649383 0
M  V30 38 H -1.652164 -1.265669 0.911621 0
M  V30 END ATOM
M  V30 BEGIN BOND
M  V30 1 2 1 2
M  V30 2 1 2 3
M  V30 3 2 3 4
M  V30 4 1 4 5
M  V30 5 2 5 6
M  V30 6 1 6 7
M  V30 7 2 7 8
M  V30 8 1 8 9
M  V30 9 2 9 10
M  V30 10 2 9 11
M  V30 11 1 9 12
M  V30 12 1 12 13
M  V30 13 1 13 14
M  V30 14 1 14 15
M  V30 15 1 15 16
M  V30 16 1 16 17
M  V30 17 1 17 18
M  V30 18 1 8 19
M  V30 19 2 19 20
M  V30 20 1 20 1
M  V30 21 1 19 4
M  V30 22 1 18 12
M  V30 23 1 1 21
M  V30 24 1 3 22
M  V30 25 1 5 23
M  V30 26 1 6 24
M  V30 27 1 7 25
M  V30 28 1 13 26
M  V30 29 1 13 27
M  V30 30 1 14 28
M  V30 31 1 14 29
M  V30 32 1 15 30
M  V30 33 1 15 31
M  V30 34 1 16 32
M  V30 35 1 16 33
M  V30 36 1 17 34
M  V30 37 1 17 35
M  V30 38 1 18 36
M  V30 39 1 18 37
M  V30 40 1 20 38
M  V30 END BOND
M  V30 END CTAB
M  END
>  <Dataset>  (222) 
PDB

>  <Ligand_Instance>  (222) 
6I2C_M77_A_401

>  <PDB_ID>  (222) 
6I2C

>  <Standardized_SMILES>  (222) 
[H]C1=NC([H])=C2C([H])=C([H])C([H])=C(S(=O)(=O)N3C([H])([H])C([H])([H])C([H])([H])[N+]([H])([H])C([H])([H])C3([H])[H])C2=C1[H]

>  <Name>  (222) 
5-(1,4-DIAZEPAN-1-SULFONYL)ISOQUINOLINE

>  <Pocket>  (222) 
A

>  <ATP_Site>  (222) 
1.0

>  <Peripheral>  (222) 
0.0

>  <Num_H_Atoms_ProtBoundConf>  (222) 
18.0

>  <Num_Resolved_Atoms>  (222) 
20.0

>  <Num_Not_Resolved_Atoms>  (222) 
0.0

>  <2D_Mol_H>  (222) 
<rdkit.Chem.rdchem.Mol object at 0x72a238df2ab0>

>  <MW>  (222) 
292.384

>  <HBA>  (222) 
3

>  <HBD>  (222) 
1

>  <LogP>  (222) 
0.1926

>  <NRB>  (222) 
2

>  <TPSA>  (222) 
66.88

>  <Num_Heavy_Atoms>  (222) 
20

>  <Ro5>  (222) 
[True, True, True, True, True, True]

>  <Ro5_Fulfilled>  (222) 
True

>  <Ro3>  (222) 
[True, True, True, True]

>  <Ro3_Fulfilled>  (222) 
True

>  <Fsp3>  (222) 
0.357143

>  <Fsp3_0.42>  (222) 
False

>  <Fsp3_0.45>  (222) 
False

>  <Stereogenic_Carbons>  (222) 
0

>  <C_Atoms>  (222) 
14

>  <FCStereo>  (222) 
0.0

>  <SPS>  (222) 
360

>  <nSPS>  (222) 
18.0

>  <PBF>  (222) 
0.955979

>  <PBF_0.6>  (222) 
True

>  <nPBF>  (222) 
0.047799

>  <nPBF_0.016>  (222) 
True

>  <PMI1>  (222) 
1047.932543

>  <PMI2>  (222) 
1984.607315

>  <PMI3>  (222) 
2366.363565

>  <NPR1>  (222) 
0.442845

>  <NPR2>  (222) 
0.838674

>  <Sum_NPR>  (222) 
1.281519

>  <Sum_NPR_1.07>  (222) 
True

>  <Sum_NPR_1.2>  (222) 
True

>  <MaxAbsEStateIndex>  (222) 
12.845614

>  <MaxEStateIndex>  (222) 
12.845614

>  <MinAbsEStateIndex>  (222) 
0.388241

>  <MinEStateIndex>  (222) 
-3.426412

>  <qed>  (222) 
0.859215

>  <MolWt>  (222) 
292.384

>  <HeavyAtomMolWt>  (222) 
274.24

>  <ExactMolWt>  (222) 
292.111424

>  <NumValenceElectrons>  (222) 
106

>  <NumRadicalElectrons>  (222) 
0

>  <MaxPartialCharge>  (222) 
0.243397

>  <MinPartialCharge>  (222) 
-0.345118

>  <MaxAbsPartialCharge>  (222) 
0.345118

>  <MinAbsPartialCharge>  (222) 
0.243397

>  <FpDensityMorgan1>  (222) 
1.15

>  <FpDensityMorgan2>  (222) 
2.05

>  <FpDensityMorgan3>  (222) 
2.95

>  <BCUT2D_MWHI>  (222) 
32.233427

>  <BCUT2D_MWLOW>  (222) 
10.168311

>  <BCUT2D_CHGHI>  (222) 
2.268872

>  <BCUT2D_CHGLO>  (222) 
-2.192579

>  <BCUT2D_LOGPHI>  (222) 
2.246607

>  <BCUT2D_LOGPLOW>  (222) 
-2.843702

>  <BCUT2D_MRHI>  (222) 
7.889641

>  <BCUT2D_MRLOW>  (222) 
-0.650697

>  <AvgIpc>  (222) 
2.759566

>  <BalabanJ>  (222) 
2.085841

>  <BertzCT>  (222) 
701.935726

>  <Chi0>  (222) 
14.001789

>  <Chi0n>  (222) 
11.196158

>  <Chi0v>  (222) 
12.012654

>  <Chi1>  (222) 
9.693507

>  <Chi1n>  (222) 
6.840082

>  <Chi1v>  (222) 
8.280145

>  <Chi2n>  (222) 
4.976624

>  <Chi2v>  (222) 
6.882981

>  <Chi3n>  (222) 
3.656948

>  <Chi3v>  (222) 
5.613741

>  <Chi4n>  (222) 
2.60061

>  <Chi4v>  (222) 
4.308342

>  <HallKierAlpha>  (222) 
-1.5

>  <Ipc>  (222) 
56228.921022

>  <Kappa1>  (222) 
13.481559

>  <Kappa2>  (222) 
5.47472

>  <Kappa3>  (222) 
2.416781

>  <LabuteASA>  (222) 
118.222067

>  <PEOE_VSA1>  (222) 
5.316789

>  <PEOE_VSA10>  (222) 
0.0

>  <PEOE_VSA11>  (222) 
0.0

>  <PEOE_VSA12>  (222) 
10.023291

>  <PEOE_VSA13>  (222) 
0.0

>  <PEOE_VSA14>  (222) 
0.0

>  <PEOE_VSA2>  (222) 
4.983979

>  <PEOE_VSA3>  (222) 
8.417797

>  <PEOE_VSA4>  (222) 
4.305216

>  <PEOE_VSA5>  (222) 
0.0

>  <PEOE_VSA6>  (222) 
12.132734

>  <PEOE_VSA7>  (222) 
12.132734

>  <PEOE_VSA8>  (222) 
36.131714

>  <PEOE_VSA9>  (222) 
24.529753

>  <SMR_VSA1>  (222) 
13.734586

>  <SMR_VSA10>  (222) 
20.79574

>  <SMR_VSA2>  (222) 
0.0

>  <SMR_VSA3>  (222) 
9.289195

>  <SMR_VSA4>  (222) 
0.0

>  <SMR_VSA5>  (222) 
11.316305

>  <SMR_VSA6>  (222) 
26.179026

>  <SMR_VSA7>  (222) 
36.659155

>  <SMR_VSA8>  (222) 
0.0

>  <SMR_VSA9>  (222) 
0.0

>  <SlogP_VSA1>  (222) 
5.316789

>  <SlogP_VSA10>  (222) 
0.0

>  <SlogP_VSA11>  (222) 
0.0

>  <SlogP_VSA12>  (222) 
0.0

>  <SlogP_VSA2>  (222) 
43.886017

>  <SlogP_VSA3>  (222) 
10.023291

>  <SlogP_VSA4>  (222) 
0.0

>  <SlogP_VSA5>  (222) 
6.420822

>  <SlogP_VSA6>  (222) 
41.554639

>  <SlogP_VSA7>  (222) 
0.0

>  <SlogP_VSA8>  (222) 
10.772448

>  <SlogP_VSA9>  (222) 
0.0

>  <EState_VSA1>  (222) 
10.023291

>  <EState_VSA10>  (222) 
8.417797

>  <EState_VSA11>  (222) 
0.0

>  <EState_VSA2>  (222) 
0.0

>  <EState_VSA3>  (222) 
17.984996

>  <EState_VSA4>  (222) 
30.282783

>  <EState_VSA5>  (222) 
0.0

>  <EState_VSA6>  (222) 
34.898004

>  <EState_VSA7>  (222) 
6.066367

>  <EState_VSA8>  (222) 
10.300767

>  <EState_VSA9>  (222) 
0.0

>  <VSA_EState1>  (222) 
27.294107

>  <VSA_EState10>  (222) 
0.0

>  <VSA_EState2>  (222) 
4.43837

>  <VSA_EState3>  (222) 
3.771674

>  <VSA_EState4>  (222) 
0.0

>  <VSA_EState5>  (222) 
0.0

>  <VSA_EState6>  (222) 
7.121861

>  <VSA_EState7>  (222) 
4.229827

>  <VSA_EState8>  (222) 
2.98724

>  <VSA_EState9>  (222) 
-3.426412

>  <FractionCSP3>  (222) 
0.357143

>  <HeavyAtomCount>  (222) 
20

>  <NHOHCount>  (222) 
2

>  <NOCount>  (222) 
5

>  <NumAliphaticCarbocycles>  (222) 
0

>  <NumAliphaticHeterocycles>  (222) 
1

>  <NumAliphaticRings>  (222) 
1

>  <NumAromaticCarbocycles>  (222) 
1

>  <NumAromaticHeterocycles>  (222) 
1

>  <NAR>  (222) 
2

>  <NumHAcceptors>  (222) 
3

>  <NumHDonors>  (222) 
1

>  <NumHeteroatoms>  (222) 
6

>  <NumRotatableBonds>  (222) 
2

>  <NumSaturatedCarbocycles>  (222) 
0

>  <NumSaturatedHeterocycles>  (222) 
1

>  <NumSaturatedRings>  (222) 
1

>  <RingCount>  (222) 
3

>  <MolLogP>  (222) 
0.1926

>  <MolMR>  (222) 
76.7782

>  <fr_Al_COO>  (222) 
0

>  <fr_Al_OH>  (222) 
0

>  <fr_Al_OH_noTert>  (222) 
0

>  <fr_ArN>  (222) 
0

>  <fr_Ar_COO>  (222) 
0

>  <fr_Ar_N>  (222) 
1

>  <fr_Ar_NH>  (222) 
0

>  <fr_Ar_OH>  (222) 
0

>  <fr_COO>  (222) 
0

>  <fr_COO2>  (222) 
0

>  <fr_C_O>  (222) 
0

>  <fr_C_O_noCOO>  (222) 
0

>  <fr_C_S>  (222) 
0

>  <fr_HOCCN>  (222) 
0

>  <fr_Imine>  (222) 
0

>  <fr_NH0>  (222) 
2

>  <fr_NH1>  (222) 
0

>  <fr_NH2>  (222) 
1

>  <fr_N_O>  (222) 
0

>  <fr_Ndealkylation1>  (222) 
0

>  <fr_Ndealkylation2>  (222) 
0

>  <fr_Nhpyrrole>  (222) 
0

>  <fr_SH>  (222) 
0

>  <fr_aldehyde>  (222) 
0

>  <fr_alkyl_carbamate>  (222) 
0

>  <fr_alkyl_halide>  (222) 
0

>  <fr_allylic_oxid>  (222) 
0

>  <fr_amide>  (222) 
0

>  <fr_amidine>  (222) 
0

>  <fr_aniline>  (222) 
0

>  <fr_aryl_methyl>  (222) 
0

>  <fr_azide>  (222) 
0

>  <fr_azo>  (222) 
0

>  <fr_barbitur>  (222) 
0

>  <fr_benzene>  (222) 
1

>  <fr_benzodiazepine>  (222) 
0

>  <fr_bicyclic>  (222) 
1

>  <fr_diazo>  (222) 
0

>  <fr_dihydropyridine>  (222) 
0

>  <fr_epoxide>  (222) 
0

>  <fr_ester>  (222) 
0

>  <fr_ether>  (222) 
0

>  <fr_furan>  (222) 
0

>  <fr_guanido>  (222) 
0

>  <fr_halogen>  (222) 
0

>  <fr_hdrzine>  (222) 
0

>  <fr_hdrzone>  (222) 
0

>  <fr_imidazole>  (222) 
0

>  <fr_imide>  (222) 
0

>  <fr_isocyan>  (222) 
0

>  <fr_isothiocyan>  (222) 
0

>  <fr_ketone>  (222) 
0

>  <fr_ketone_Topliss>  (222) 
0

>  <fr_lactam>  (222) 
0

>  <fr_lactone>  (222) 
0

>  <fr_methoxy>  (222) 
0

>  <fr_morpholine>  (222) 
0

>  <fr_nitrile>  (222) 
0

>  <fr_nitro>  (222) 
0

>  <fr_nitro_arom>  (222) 
0

>  <fr_nitro_arom_nonortho>  (222) 
0

>  <fr_nitroso>  (222) 
0

>  <fr_oxazole>  (222) 
0

>  <fr_oxime>  (222) 
0

>  <fr_para_hydroxylation>  (222) 
0

>  <fr_phenol>  (222) 
0

>  <fr_phenol_noOrthoHbond>  (222) 
0

>  <fr_phos_acid>  (222) 
0

>  <fr_phos_ester>  (222) 
0

>  <fr_piperdine>  (222) 
0

>  <fr_piperzine>  (222) 
0

>  <fr_priamide>  (222) 
0

>  <fr_prisulfonamd>  (222) 
0

>  <fr_pyridine>  (222) 
1

>  <fr_quatN>  (222) 
1

>  <fr_sulfide>  (222) 
0

>  <fr_sulfonamd>  (222) 
1

>  <fr_sulfone>  (222) 
0

>  <fr_term_acetylene>  (222) 
0

>  <fr_tetrazole>  (222) 
0

>  <fr_thiazole>  (222) 
0

>  <fr_thiocyan>  (222) 
0

>  <fr_thiophene>  (222) 
0

>  <fr_unbrch_alkane>  (222) 
0

>  <fr_urea>  (222) 
0

>  <NP-Likeness>  (222) 
-1.563087

$$$$
M77
     RDKit          3D

  0  0  0  0  0  0  0  0  0  0999 V3000
M  V30 BEGIN CTAB
M  V30 COUNTS 38 40 0 0 0
M  V30 BEGIN ATOM
M  V30 1 C -2.091233 -1.594385 2.906302 0
M  V30 2 N -1.680960 -2.182747 4.052633 0
M  V30 3 C -0.515018 -2.873413 4.068147 0
M  V30 4 C 0.308292 -3.018951 2.949866 0
M  V30 5 C 1.477432 -3.728316 2.977587 0
M  V30 6 C 2.226080 -3.832341 1.825455 0
M  V30 7 C 1.734822 -3.202489 0.708487 0
M  V30 8 C 0.564073 -2.469575 0.608116 0
M  V30 9 S 0.153480 -1.711980 -0.909636 0
M  V30 10 O 1.120955 -2.188711 -1.956254 0
M  V30 11 O -1.213305 -2.211529 -1.356205 0
M  V30 12 N 0.221570 -0.043553 -0.754317 0
M  V30 13 C -0.956161 0.717369 -0.907329 0
M  V30 14 C -1.082648 1.570010 0.352111 0
M  V30 15 C -0.538303 2.937253 0.007692 0
M  V30 16 N 0.781616 2.910681 -0.541566 0 CHG=1 VAL=4
M  V30 17 C 1.606094 1.818971 -0.110650 0
M  V30 18 C 1.458747 0.591858 -1.016364 0
M  V30 19 C -0.119637 -2.417616 1.797989 0
M  V30 20 C -1.299136 -1.726569 1.804330 0
M  V30 21 H -3.021231 -1.072583 2.989308 0
M  V30 22 H -0.125285 -3.374636 4.965651 0
M  V30 23 H 1.804015 -4.198167 3.892934 0
M  V30 24 H 3.142572 -4.382001 1.823371 0
M  V30 25 H 2.368160 -3.315768 -0.181551 0
M  V30 26 H -0.940805 1.393619 -1.811666 0
M  V30 27 H -1.838858 0.072782 -1.071266 0
M  V30 28 H -2.128197 1.691131 0.673260 0
M  V30 29 H -0.525334 1.156236 1.201014 0
M  V30 30 H -0.670020 3.656138 0.820389 0
M  V30 31 H -1.207644 3.306794 -0.823964 0
M  V30 32 H 0.772037 2.858704 -1.603737 0
M  V30 33 H 1.252393 3.816104 -0.240274 0
M  V30 34 H 1.477504 1.565846 0.953541 0
M  V30 35 H 2.673483 2.139389 -0.233128 0
M  V30 36 H 1.670633 0.892209 -2.040332 0
M  V30 37 H 2.266702 -0.105228 -0.649383 0
M  V30 38 H -1.652164 -1.265669 0.911621 0
M  V30 END ATOM
M  V30 BEGIN BOND
M  V30 1 2 1 2
M  V30 2 1 2 3
M  V30 3 2 3 4
M  V30 4 1 4 5
M  V30 5 2 5 6
M  V30 6 1 6 7
M  V30 7 2 7 8
M  V30 8 1 8 9
M  V30 9 2 9 10
M  V30 10 2 9 11
M  V30 11 1 9 12
M  V30 12 1 12 13
M  V30 13 1 13 14
M  V30 14 1 14 15
M  V30 15 1 15 16
M  V30 16 1 16 17
M  V30 17 1 17 18
M  V30 18 1 8 19
M  V30 19 2 19 20
M  V30 20 1 20 1
M  V30 21 1 19 4
M  V30 22 1 18 12
M  V30 23 1 1 21
M  V30 24 1 3 22
M  V30 25 1 5 23
M  V30 26 1 6 24
M  V30 27 1 7 25
M  V30 28 1 13 26
M  V30 29 1 13 27
M  V30 30 1 14 28
M  V30 31 1 14 29
M  V30 32 1 15 30
M  V30 33 1 15 31
M  V30 34 1 16 32
M  V30 35 1 16 33
M  V30 36 1 17 34
M  V30 37 1 17 35
M  V30 38 1 18 36
M  V30 39 1 18 37
M  V30 40 1 20 38
M  V30 END BOND
M  V30 END CTAB
M  END
>  <Dataset>  (223) 
PDB

>  <Ligand_Instance>  (223) 
6YNA_M77_A_402

>  <PDB_ID>  (223) 
6YNA

>  <Standardized_SMILES>  (223) 
[H]C1=NC([H])=C2C([H])=C([H])C([H])=C(S(=O)(=O)N3C([H])([H])C([H])([H])C([H])([H])[N+]([H])([H])C([H])([H])C3([H])[H])C2=C1[H]

>  <Name>  (223) 
5-(1,4-DIAZEPAN-1-SULFONYL)ISOQUINOLINE

>  <Pocket>  (223) 
A

>  <ATP_Site>  (223) 
1.0

>  <Peripheral>  (223) 
0.0

>  <Num_H_Atoms_ProtBoundConf>  (223) 
18.0

>  <Num_Resolved_Atoms>  (223) 
20.0

>  <Num_Not_Resolved_Atoms>  (223) 
0.0

>  <2D_Mol_H>  (223) 
<rdkit.Chem.rdchem.Mol object at 0x72a238df2b90>

>  <MW>  (223) 
292.384

>  <HBA>  (223) 
3

>  <HBD>  (223) 
1

>  <LogP>  (223) 
0.1926

>  <NRB>  (223) 
2

>  <TPSA>  (223) 
66.88

>  <Num_Heavy_Atoms>  (223) 
20

>  <Ro5>  (223) 
[True, True, True, True, True, True]

>  <Ro5_Fulfilled>  (223) 
True

>  <Ro3>  (223) 
[True, True, True, True]

>  <Ro3_Fulfilled>  (223) 
True

>  <Fsp3>  (223) 
0.357143

>  <Fsp3_0.42>  (223) 
False

>  <Fsp3_0.45>  (223) 
False

>  <Stereogenic_Carbons>  (223) 
0

>  <C_Atoms>  (223) 
14

>  <FCStereo>  (223) 
0.0

>  <SPS>  (223) 
360

>  <nSPS>  (223) 
18.0

>  <PBF>  (223) 
0.955979

>  <PBF_0.6>  (223) 
True

>  <nPBF>  (223) 
0.047799

>  <nPBF_0.016>  (223) 
True

>  <PMI1>  (223) 
1047.932543

>  <PMI2>  (223) 
1984.607315

>  <PMI3>  (223) 
2366.363565

>  <NPR1>  (223) 
0.442845

>  <NPR2>  (223) 
0.838674

>  <Sum_NPR>  (223) 
1.281519

>  <Sum_NPR_1.07>  (223) 
True

>  <Sum_NPR_1.2>  (223) 
True

>  <MaxAbsEStateIndex>  (223) 
12.845614

>  <MaxEStateIndex>  (223) 
12.845614

>  <MinAbsEStateIndex>  (223) 
0.388241

>  <MinEStateIndex>  (223) 
-3.426412

>  <qed>  (223) 
0.859215

>  <MolWt>  (223) 
292.384

>  <HeavyAtomMolWt>  (223) 
274.24

>  <ExactMolWt>  (223) 
292.111424

>  <NumValenceElectrons>  (223) 
106

>  <NumRadicalElectrons>  (223) 
0

>  <MaxPartialCharge>  (223) 
0.243397

>  <MinPartialCharge>  (223) 
-0.345118

>  <MaxAbsPartialCharge>  (223) 
0.345118

>  <MinAbsPartialCharge>  (223) 
0.243397

>  <FpDensityMorgan1>  (223) 
1.15

>  <FpDensityMorgan2>  (223) 
2.05

>  <FpDensityMorgan3>  (223) 
2.95

>  <BCUT2D_MWHI>  (223) 
32.233427

>  <BCUT2D_MWLOW>  (223) 
10.168311

>  <BCUT2D_CHGHI>  (223) 
2.268872

>  <BCUT2D_CHGLO>  (223) 
-2.192579

>  <BCUT2D_LOGPHI>  (223) 
2.246607

>  <BCUT2D_LOGPLOW>  (223) 
-2.843702

>  <BCUT2D_MRHI>  (223) 
7.889641

>  <BCUT2D_MRLOW>  (223) 
-0.650697

>  <AvgIpc>  (223) 
2.759566

>  <BalabanJ>  (223) 
2.085841

>  <BertzCT>  (223) 
701.935726

>  <Chi0>  (223) 
14.001789

>  <Chi0n>  (223) 
11.196158

>  <Chi0v>  (223) 
12.012654

>  <Chi1>  (223) 
9.693507

>  <Chi1n>  (223) 
6.840082

>  <Chi1v>  (223) 
8.280145

>  <Chi2n>  (223) 
4.976624

>  <Chi2v>  (223) 
6.882981

>  <Chi3n>  (223) 
3.656948

>  <Chi3v>  (223) 
5.613741

>  <Chi4n>  (223) 
2.60061

>  <Chi4v>  (223) 
4.308342

>  <HallKierAlpha>  (223) 
-1.5

>  <Ipc>  (223) 
56228.921022

>  <Kappa1>  (223) 
13.481559

>  <Kappa2>  (223) 
5.47472

>  <Kappa3>  (223) 
2.416781

>  <LabuteASA>  (223) 
118.222067

>  <PEOE_VSA1>  (223) 
5.316789

>  <PEOE_VSA10>  (223) 
0.0

>  <PEOE_VSA11>  (223) 
0.0

>  <PEOE_VSA12>  (223) 
10.023291

>  <PEOE_VSA13>  (223) 
0.0

>  <PEOE_VSA14>  (223) 
0.0

>  <PEOE_VSA2>  (223) 
4.983979

>  <PEOE_VSA3>  (223) 
8.417797

>  <PEOE_VSA4>  (223) 
4.305216

>  <PEOE_VSA5>  (223) 
0.0

>  <PEOE_VSA6>  (223) 
12.132734

>  <PEOE_VSA7>  (223) 
12.132734

>  <PEOE_VSA8>  (223) 
36.131714

>  <PEOE_VSA9>  (223) 
24.529753

>  <SMR_VSA1>  (223) 
13.734586

>  <SMR_VSA10>  (223) 
20.79574

>  <SMR_VSA2>  (223) 
0.0

>  <SMR_VSA3>  (223) 
9.289195

>  <SMR_VSA4>  (223) 
0.0

>  <SMR_VSA5>  (223) 
11.316305

>  <SMR_VSA6>  (223) 
26.179026

>  <SMR_VSA7>  (223) 
36.659155

>  <SMR_VSA8>  (223) 
0.0

>  <SMR_VSA9>  (223) 
0.0

>  <SlogP_VSA1>  (223) 
5.316789

>  <SlogP_VSA10>  (223) 
0.0

>  <SlogP_VSA11>  (223) 
0.0

>  <SlogP_VSA12>  (223) 
0.0

>  <SlogP_VSA2>  (223) 
43.886017

>  <SlogP_VSA3>  (223) 
10.023291

>  <SlogP_VSA4>  (223) 
0.0

>  <SlogP_VSA5>  (223) 
6.420822

>  <SlogP_VSA6>  (223) 
41.554639

>  <SlogP_VSA7>  (223) 
0.0

>  <SlogP_VSA8>  (223) 
10.772448

>  <SlogP_VSA9>  (223) 
0.0

>  <EState_VSA1>  (223) 
10.023291

>  <EState_VSA10>  (223) 
8.417797

>  <EState_VSA11>  (223) 
0.0

>  <EState_VSA2>  (223) 
0.0

>  <EState_VSA3>  (223) 
17.984996

>  <EState_VSA4>  (223) 
30.282783

>  <EState_VSA5>  (223) 
0.0

>  <EState_VSA6>  (223) 
34.898004

>  <EState_VSA7>  (223) 
6.066367

>  <EState_VSA8>  (223) 
10.300767

>  <EState_VSA9>  (223) 
0.0

>  <VSA_EState1>  (223) 
27.294107

>  <VSA_EState10>  (223) 
0.0

>  <VSA_EState2>  (223) 
4.43837

>  <VSA_EState3>  (223) 
3.771674

>  <VSA_EState4>  (223) 
0.0

>  <VSA_EState5>  (223) 
0.0

>  <VSA_EState6>  (223) 
7.121861

>  <VSA_EState7>  (223) 
4.229827

>  <VSA_EState8>  (223) 
2.98724

>  <VSA_EState9>  (223) 
-3.426412

>  <FractionCSP3>  (223) 
0.357143

>  <HeavyAtomCount>  (223) 
20

>  <NHOHCount>  (223) 
2

>  <NOCount>  (223) 
5

>  <NumAliphaticCarbocycles>  (223) 
0

>  <NumAliphaticHeterocycles>  (223) 
1

>  <NumAliphaticRings>  (223) 
1

>  <NumAromaticCarbocycles>  (223) 
1

>  <NumAromaticHeterocycles>  (223) 
1

>  <NAR>  (223) 
2

>  <NumHAcceptors>  (223) 
3

>  <NumHDonors>  (223) 
1

>  <NumHeteroatoms>  (223) 
6

>  <NumRotatableBonds>  (223) 
2

>  <NumSaturatedCarbocycles>  (223) 
0

>  <NumSaturatedHeterocycles>  (223) 
1

>  <NumSaturatedRings>  (223) 
1

>  <RingCount>  (223) 
3

>  <MolLogP>  (223) 
0.1926

>  <MolMR>  (223) 
76.7782

>  <fr_Al_COO>  (223) 
0

>  <fr_Al_OH>  (223) 
0

>  <fr_Al_OH_noTert>  (223) 
0

>  <fr_ArN>  (223) 
0

>  <fr_Ar_COO>  (223) 
0

>  <fr_Ar_N>  (223) 
1

>  <fr_Ar_NH>  (223) 
0

>  <fr_Ar_OH>  (223) 
0

>  <fr_COO>  (223) 
0

>  <fr_COO2>  (223) 
0

>  <fr_C_O>  (223) 
0

>  <fr_C_O_noCOO>  (223) 
0

>  <fr_C_S>  (223) 
0

>  <fr_HOCCN>  (223) 
0

>  <fr_Imine>  (223) 
0

>  <fr_NH0>  (223) 
2

>  <fr_NH1>  (223) 
0

>  <fr_NH2>  (223) 
1

>  <fr_N_O>  (223) 
0

>  <fr_Ndealkylation1>  (223) 
0

>  <fr_Ndealkylation2>  (223) 
0

>  <fr_Nhpyrrole>  (223) 
0

>  <fr_SH>  (223) 
0

>  <fr_aldehyde>  (223) 
0

>  <fr_alkyl_carbamate>  (223) 
0

>  <fr_alkyl_halide>  (223) 
0

>  <fr_allylic_oxid>  (223) 
0

>  <fr_amide>  (223) 
0

>  <fr_amidine>  (223) 
0

>  <fr_aniline>  (223) 
0

>  <fr_aryl_methyl>  (223) 
0

>  <fr_azide>  (223) 
0

>  <fr_azo>  (223) 
0

>  <fr_barbitur>  (223) 
0

>  <fr_benzene>  (223) 
1

>  <fr_benzodiazepine>  (223) 
0

>  <fr_bicyclic>  (223) 
1

>  <fr_diazo>  (223) 
0

>  <fr_dihydropyridine>  (223) 
0

>  <fr_epoxide>  (223) 
0

>  <fr_ester>  (223) 
0

>  <fr_ether>  (223) 
0

>  <fr_furan>  (223) 
0

>  <fr_guanido>  (223) 
0

>  <fr_halogen>  (223) 
0

>  <fr_hdrzine>  (223) 
0

>  <fr_hdrzone>  (223) 
0

>  <fr_imidazole>  (223) 
0

>  <fr_imide>  (223) 
0

>  <fr_isocyan>  (223) 
0

>  <fr_isothiocyan>  (223) 
0

>  <fr_ketone>  (223) 
0

>  <fr_ketone_Topliss>  (223) 
0

>  <fr_lactam>  (223) 
0

>  <fr_lactone>  (223) 
0

>  <fr_methoxy>  (223) 
0

>  <fr_morpholine>  (223) 
0

>  <fr_nitrile>  (223) 
0

>  <fr_nitro>  (223) 
0

>  <fr_nitro_arom>  (223) 
0

>  <fr_nitro_arom_nonortho>  (223) 
0

>  <fr_nitroso>  (223) 
0

>  <fr_oxazole>  (223) 
0

>  <fr_oxime>  (223) 
0

>  <fr_para_hydroxylation>  (223) 
0

>  <fr_phenol>  (223) 
0

>  <fr_phenol_noOrthoHbond>  (223) 
0

>  <fr_phos_acid>  (223) 
0

>  <fr_phos_ester>  (223) 
0

>  <fr_piperdine>  (223) 
0

>  <fr_piperzine>  (223) 
0

>  <fr_priamide>  (223) 
0

>  <fr_prisulfonamd>  (223) 
0

>  <fr_pyridine>  (223) 
1

>  <fr_quatN>  (223) 
1

>  <fr_sulfide>  (223) 
0

>  <fr_sulfonamd>  (223) 
1

>  <fr_sulfone>  (223) 
0

>  <fr_term_acetylene>  (223) 
0

>  <fr_tetrazole>  (223) 
0

>  <fr_thiazole>  (223) 
0

>  <fr_thiocyan>  (223) 
0

>  <fr_thiophene>  (223) 
0

>  <fr_unbrch_alkane>  (223) 
0

>  <fr_urea>  (223) 
0

>  <NP-Likeness>  (223) 
-1.563087

$$$$
NCA
     RDKit          3D

  0  0  0  0  0  0  0  0  0  0999 V3000
M  V30 BEGIN CTAB
M  V30 COUNTS 15 15 0 0 0
M  V30 BEGIN ATOM
M  V30 1 C -1.327100 -0.554178 1.331263 0
M  V30 2 N -0.510117 -1.629947 1.347181 0
M  V30 3 C 0.834099 -1.520230 1.234807 0
M  V30 4 C 1.368933 -0.256732 1.100174 0
M  V30 5 C 2.811944 -0.117485 0.977958 0
M  V30 6 O 3.549951 -1.146520 0.996544 0
M  V30 7 N 3.464813 1.121511 0.835986 0
M  V30 8 C 0.576325 0.872556 1.078421 0
M  V30 9 C -0.799178 0.730764 1.195586 0
M  V30 10 H -2.402619 -0.691949 1.424862 0
M  V30 11 H 1.511911 -2.364378 1.244450 0
M  V30 12 H 4.080309 1.317983 0.022357 0
M  V30 13 H 3.619275 2.072167 1.262427 0
M  V30 14 H 0.974802 1.873396 0.973732 0
M  V30 15 H -1.462589 1.591879 1.183573 0
M  V30 END ATOM
M  V30 BEGIN BOND
M  V30 1 2 1 2
M  V30 2 1 2 3
M  V30 3 2 3 4
M  V30 4 1 4 5
M  V30 5 2 5 6
M  V30 6 1 5 7
M  V30 7 1 4 8
M  V30 8 2 8 9
M  V30 9 1 9 1
M  V30 10 1 1 10
M  V30 11 1 3 11
M  V30 12 1 7 12
M  V30 13 1 7 13
M  V30 14 1 8 14
M  V30 15 1 9 15
M  V30 END BOND
M  V30 END CTAB
M  END
>  <Dataset>  (224) 
PDB

>  <Ligand_Instance>  (224) 
5N3H_NCA_A_401

>  <PDB_ID>  (224) 
5N3H

>  <Standardized_SMILES>  (224) 
[H]C1=NC([H])=C(C(=O)N([H])[H])C([H])=C1[H]

>  <Name>  (224) 
NICOTINAMIDE

>  <Pocket>  (224) 
A

>  <ATP_Site>  (224) 
1.0

>  <Peripheral>  (224) 
0.0

>  <Num_H_Atoms_ProtBoundConf>  (224) 
6.0

>  <Num_Resolved_Atoms>  (224) 
9.0

>  <Num_Not_Resolved_Atoms>  (224) 
0.0

>  <2D_Mol_H>  (224) 
<rdkit.Chem.rdchem.Mol object at 0x72a238df2c70>

>  <MW>  (224) 
122.127

>  <HBA>  (224) 
2

>  <HBD>  (224) 
1

>  <LogP>  (224) 
0.1805

>  <NRB>  (224) 
1

>  <TPSA>  (224) 
55.98

>  <Num_Heavy_Atoms>  (224) 
9

>  <Ro5>  (224) 
[True, True, True, True, True, True]

>  <Ro5_Fulfilled>  (224) 
True

>  <Ro3>  (224) 
[True, True, True, True]

>  <Ro3_Fulfilled>  (224) 
True

>  <Fsp3>  (224) 
0.0

>  <Fsp3_0.42>  (224) 
False

>  <Fsp3_0.45>  (224) 
False

>  <Stereogenic_Carbons>  (224) 
0

>  <C_Atoms>  (224) 
6

>  <FCStereo>  (224) 
0.0

>  <SPS>  (224) 
80

>  <nSPS>  (224) 
8.888889

>  <PBF>  (224) 
0.107975

>  <PBF_0.6>  (224) 
False

>  <nPBF>  (224) 
0.011997

>  <nPBF_0.016>  (224) 
False

>  <PMI1>  (224) 
130.861739

>  <PMI2>  (224) 
406.626094

>  <PMI3>  (224) 
535.85314

>  <NPR1>  (224) 
0.244212

>  <NPR2>  (224) 
0.758839

>  <Sum_NPR>  (224) 
1.003051

>  <Sum_NPR_1.07>  (224) 
False

>  <Sum_NPR_1.2>  (224) 
False

>  <MaxAbsEStateIndex>  (224) 
10.383148

>  <MaxEStateIndex>  (224) 
10.383148

>  <MinAbsEStateIndex>  (224) 
0.441574

>  <MinEStateIndex>  (224) 
-0.441574

>  <qed>  (224) 
0.577263

>  <MolWt>  (224) 
122.127

>  <HeavyAtomMolWt>  (224) 
116.079

>  <ExactMolWt>  (224) 
122.048013

>  <NumValenceElectrons>  (224) 
46

>  <NumRadicalElectrons>  (224) 
0

>  <MaxPartialCharge>  (224) 
0.249762

>  <MinPartialCharge>  (224) 
-0.365551

>  <MaxAbsPartialCharge>  (224) 
0.365551

>  <MinAbsPartialCharge>  (224) 
0.249762

>  <FpDensityMorgan1>  (224) 
1.666667

>  <FpDensityMorgan2>  (224) 
2.444444

>  <FpDensityMorgan3>  (224) 
2.777778

>  <BCUT2D_MWHI>  (224) 
16.146291

>  <BCUT2D_MWLOW>  (224) 
10.272057

>  <BCUT2D_CHGHI>  (224) 
1.943739

>  <BCUT2D_CHGLO>  (224) 
-1.882815

>  <BCUT2D_LOGPHI>  (224) 
1.907964

>  <BCUT2D_LOGPLOW>  (224) 
-2.099762

>  <BCUT2D_MRHI>  (224) 
5.91746

>  <BCUT2D_MRLOW>  (224) 
0.099973

>  <AvgIpc>  (224) 
1.900373

>  <BalabanJ>  (224) 
2.981455

>  <BertzCT>  (224) 
207.557662

>  <Chi0>  (224) 
6.690234

>  <Chi0n>  (224) 
4.742213

>  <Chi0v>  (224) 
4.742213

>  <Chi1>  (224) 
4.30453

>  <Chi1n>  (224) 
2.503214

>  <Chi1v>  (224) 
2.503214

>  <Chi2n>  (224) 
1.605951

>  <Chi2v>  (224) 
1.605951

>  <Chi3n>  (224) 
0.946055

>  <Chi3v>  (224) 
0.946055

>  <Chi4n>  (224) 
0.508512

>  <Chi4v>  (224) 
0.508512

>  <HallKierAlpha>  (224) 
-1.38

>  <Ipc>  (224) 
129.225339

>  <Kappa1>  (224) 
5.751234

>  <Kappa2>  (224) 
2.259334

>  <Kappa3>  (224) 
1.252832

>  <LabuteASA>  (224) 
52.517406

>  <PEOE_VSA1>  (224) 
5.733667

>  <PEOE_VSA10>  (224) 
0.0

>  <PEOE_VSA11>  (224) 
0.0

>  <PEOE_VSA12>  (224) 
5.90718

>  <PEOE_VSA13>  (224) 
0.0

>  <PEOE_VSA14>  (224) 
0.0

>  <PEOE_VSA2>  (224) 
9.778516

>  <PEOE_VSA3>  (224) 
0.0

>  <PEOE_VSA4>  (224) 
0.0

>  <PEOE_VSA5>  (224) 
0.0

>  <PEOE_VSA6>  (224) 
0.0

>  <PEOE_VSA7>  (224) 
12.132734

>  <PEOE_VSA8>  (224) 
12.393687

>  <PEOE_VSA9>  (224) 
5.563451

>  <SMR_VSA1>  (224) 
4.794537

>  <SMR_VSA10>  (224) 
5.90718

>  <SMR_VSA2>  (224) 
0.0

>  <SMR_VSA3>  (224) 
4.983979

>  <SMR_VSA4>  (224) 
5.733667

>  <SMR_VSA5>  (224) 
0.0

>  <SMR_VSA6>  (224) 
0.0

>  <SMR_VSA7>  (224) 
30.089873

>  <SMR_VSA8>  (224) 
0.0

>  <SMR_VSA9>  (224) 
0.0

>  <SlogP_VSA1>  (224) 
5.733667

>  <SlogP_VSA10>  (224) 
0.0

>  <SlogP_VSA11>  (224) 
0.0

>  <SlogP_VSA12>  (224) 
0.0

>  <SlogP_VSA2>  (224) 
10.891158

>  <SlogP_VSA3>  (224) 
0.0

>  <SlogP_VSA4>  (224) 
0.0

>  <SlogP_VSA5>  (224) 
10.357989

>  <SlogP_VSA6>  (224) 
24.526421

>  <SlogP_VSA7>  (224) 
0.0

>  <SlogP_VSA8>  (224) 
0.0

>  <SlogP_VSA9>  (224) 
0.0

>  <EState_VSA1>  (224) 
5.90718

>  <EState_VSA10>  (224) 
4.794537

>  <EState_VSA11>  (224) 
0.0

>  <EState_VSA2>  (224) 
0.0

>  <EState_VSA3>  (224) 
5.563451

>  <EState_VSA4>  (224) 
0.0

>  <EState_VSA5>  (224) 
6.196844

>  <EState_VSA6>  (224) 
18.329578

>  <EState_VSA7>  (224) 
0.0

>  <EState_VSA8>  (224) 
4.983979

>  <EState_VSA9>  (224) 
5.733667

>  <VSA_EState1>  (224) 
0.0

>  <VSA_EState10>  (224) 
0.0

>  <VSA_EState2>  (224) 
14.088241

>  <VSA_EState3>  (224) 
0.0

>  <VSA_EState4>  (224) 
5.376944

>  <VSA_EState5>  (224) 
-0.441574

>  <VSA_EState6>  (224) 
3.28713

>  <VSA_EState7>  (224) 
3.022593

>  <VSA_EState8>  (224) 
0.0

>  <VSA_EState9>  (224) 
0.0

>  <FractionCSP3>  (224) 
0.0

>  <HeavyAtomCount>  (224) 
9

>  <NHOHCount>  (224) 
2

>  <NOCount>  (224) 
3

>  <NumAliphaticCarbocycles>  (224) 
0

>  <NumAliphaticHeterocycles>  (224) 
0

>  <NumAliphaticRings>  (224) 
0

>  <NumAromaticCarbocycles>  (224) 
0

>  <NumAromaticHeterocycles>  (224) 
1

>  <NAR>  (224) 
1

>  <NumHAcceptors>  (224) 
2

>  <NumHDonors>  (224) 
1

>  <NumHeteroatoms>  (224) 
3

>  <NumRotatableBonds>  (224) 
1

>  <NumSaturatedCarbocycles>  (224) 
0

>  <NumSaturatedHeterocycles>  (224) 
0

>  <NumSaturatedRings>  (224) 
0

>  <RingCount>  (224) 
1

>  <MolLogP>  (224) 
0.1805

>  <MolMR>  (224) 
32.7549

>  <fr_Al_COO>  (224) 
0

>  <fr_Al_OH>  (224) 
0

>  <fr_Al_OH_noTert>  (224) 
0

>  <fr_ArN>  (224) 
0

>  <fr_Ar_COO>  (224) 
0

>  <fr_Ar_N>  (224) 
1

>  <fr_Ar_NH>  (224) 
0

>  <fr_Ar_OH>  (224) 
0

>  <fr_COO>  (224) 
0

>  <fr_COO2>  (224) 
0

>  <fr_C_O>  (224) 
1

>  <fr_C_O_noCOO>  (224) 
1

>  <fr_C_S>  (224) 
0

>  <fr_HOCCN>  (224) 
0

>  <fr_Imine>  (224) 
0

>  <fr_NH0>  (224) 
1

>  <fr_NH1>  (224) 
0

>  <fr_NH2>  (224) 
1

>  <fr_N_O>  (224) 
0

>  <fr_Ndealkylation1>  (224) 
0

>  <fr_Ndealkylation2>  (224) 
0

>  <fr_Nhpyrrole>  (224) 
0

>  <fr_SH>  (224) 
0

>  <fr_aldehyde>  (224) 
0

>  <fr_alkyl_carbamate>  (224) 
0

>  <fr_alkyl_halide>  (224) 
0

>  <fr_allylic_oxid>  (224) 
0

>  <fr_amide>  (224) 
1

>  <fr_amidine>  (224) 
0

>  <fr_aniline>  (224) 
0

>  <fr_aryl_methyl>  (224) 
0

>  <fr_azide>  (224) 
0

>  <fr_azo>  (224) 
0

>  <fr_barbitur>  (224) 
0

>  <fr_benzene>  (224) 
0

>  <fr_benzodiazepine>  (224) 
0

>  <fr_bicyclic>  (224) 
0

>  <fr_diazo>  (224) 
0

>  <fr_dihydropyridine>  (224) 
0

>  <fr_epoxide>  (224) 
0

>  <fr_ester>  (224) 
0

>  <fr_ether>  (224) 
0

>  <fr_furan>  (224) 
0

>  <fr_guanido>  (224) 
0

>  <fr_halogen>  (224) 
0

>  <fr_hdrzine>  (224) 
0

>  <fr_hdrzone>  (224) 
0

>  <fr_imidazole>  (224) 
0

>  <fr_imide>  (224) 
0

>  <fr_isocyan>  (224) 
0

>  <fr_isothiocyan>  (224) 
0

>  <fr_ketone>  (224) 
0

>  <fr_ketone_Topliss>  (224) 
0

>  <fr_lactam>  (224) 
0

>  <fr_lactone>  (224) 
0

>  <fr_methoxy>  (224) 
0

>  <fr_morpholine>  (224) 
0

>  <fr_nitrile>  (224) 
0

>  <fr_nitro>  (224) 
0

>  <fr_nitro_arom>  (224) 
0

>  <fr_nitro_arom_nonortho>  (224) 
0

>  <fr_nitroso>  (224) 
0

>  <fr_oxazole>  (224) 
0

>  <fr_oxime>  (224) 
0

>  <fr_para_hydroxylation>  (224) 
0

>  <fr_phenol>  (224) 
0

>  <fr_phenol_noOrthoHbond>  (224) 
0

>  <fr_phos_acid>  (224) 
0

>  <fr_phos_ester>  (224) 
0

>  <fr_piperdine>  (224) 
0

>  <fr_piperzine>  (224) 
0

>  <fr_priamide>  (224) 
1

>  <fr_prisulfonamd>  (224) 
0

>  <fr_pyridine>  (224) 
1

>  <fr_quatN>  (224) 
0

>  <fr_sulfide>  (224) 
0

>  <fr_sulfonamd>  (224) 
0

>  <fr_sulfone>  (224) 
0

>  <fr_term_acetylene>  (224) 
0

>  <fr_tetrazole>  (224) 
0

>  <fr_thiazole>  (224) 
0

>  <fr_thiocyan>  (224) 
0

>  <fr_thiophene>  (224) 
0

>  <fr_unbrch_alkane>  (224) 
0

>  <fr_urea>  (224) 
0

>  <NP-Likeness>  (224) 
-1.299059

$$$$
NPO
     RDKit          3D

  0  0  0  0  0  0  0  0  0  0999 V3000
M  V30 BEGIN CTAB
M  V30 COUNTS 15 15 0 0 0
M  V30 BEGIN ATOM
M  V30 1 O -1.519276 -1.024233 0.076164 0
M  V30 2 C -0.318872 -0.520363 0.534121 0
M  V30 3 C -0.365018 0.664197 1.274372 0
M  V30 4 C 0.820891 1.172837 1.733634 0
M  V30 5 C 2.029243 0.546002 1.480757 0
M  V30 6 N 3.228859 1.110572 1.976881 0 CHG=1 VAL=4
M  V30 7 O 4.325141 0.561822 1.760125 0
M  V30 8 O 3.201844 2.276114 2.707291 0 CHG=-1 VAL=1
M  V30 9 C 2.079086 -0.633429 0.744164 0
M  V30 10 C 0.893217 -1.127202 0.294272 0
M  V30 11 H -1.532905 -1.875456 -0.466344 0
M  V30 12 H -1.277180 1.185758 1.495697 0
M  V30 13 H 0.787170 2.105642 2.316878 0
M  V30 14 H 3.038849 -1.113665 0.554396 0
M  V30 15 H 0.899712 -2.029757 -0.273089 0
M  V30 END ATOM
M  V30 BEGIN BOND
M  V30 1 1 1 2
M  V30 2 2 2 3
M  V30 3 1 3 4
M  V30 4 2 4 5
M  V30 5 1 5 6
M  V30 6 2 6 7
M  V30 7 1 6 8
M  V30 8 1 5 9
M  V30 9 2 9 10
M  V30 10 1 10 2
M  V30 11 1 1 11
M  V30 12 1 3 12
M  V30 13 1 4 13
M  V30 14 1 9 14
M  V30 15 1 10 15
M  V30 END BOND
M  V30 END CTAB
M  END
>  <Dataset>  (225) 
PDB

>  <Ligand_Instance>  (225) 
6Z08_NPO_A_401

>  <PDB_ID>  (225) 
6Z08

>  <Standardized_SMILES>  (225) 
[H]OC1=C([H])C([H])=C([N+](=O)[O-])C([H])=C1[H]

>  <Name>  (225) 
P-NITROPHENOL

>  <Pocket>  (225) 
A

>  <ATP_Site>  (225) 
1.0

>  <Peripheral>  (225) 
0.0

>  <Num_H_Atoms_ProtBoundConf>  (225) 
5.0

>  <Num_Resolved_Atoms>  (225) 
10.0

>  <Num_Not_Resolved_Atoms>  (225) 
0.0

>  <2D_Mol_H>  (225) 
<rdkit.Chem.rdchem.Mol object at 0x72a238df2d50>

>  <MW>  (225) 
139.11

>  <HBA>  (225) 
3

>  <HBD>  (225) 
1

>  <LogP>  (225) 
1.3004

>  <NRB>  (225) 
2

>  <TPSA>  (225) 
63.37

>  <Num_Heavy_Atoms>  (225) 
10

>  <Ro5>  (225) 
[True, True, True, True, True, True]

>  <Ro5_Fulfilled>  (225) 
True

>  <Ro3>  (225) 
[True, True, True, True]

>  <Ro3_Fulfilled>  (225) 
True

>  <Fsp3>  (225) 
0.0

>  <Fsp3_0.42>  (225) 
False

>  <Fsp3_0.45>  (225) 
False

>  <Stereogenic_Carbons>  (225) 
0

>  <C_Atoms>  (225) 
6

>  <FCStereo>  (225) 
0.0

>  <SPS>  (225) 
92

>  <nSPS>  (225) 
9.2

>  <PBF>  (225) 
0.000601

>  <PBF_0.6>  (225) 
False

>  <nPBF>  (225) 
0.00006

>  <nPBF_0.016>  (225) 
False

>  <PMI1>  (225) 
129.582669

>  <PMI2>  (225) 
621.036039

>  <PMI3>  (225) 
750.618672

>  <NPR1>  (225) 
0.172634

>  <NPR2>  (225) 
0.827366

>  <Sum_NPR>  (225) 
1.0

>  <Sum_NPR_1.07>  (225) 
False

>  <Sum_NPR_1.2>  (225) 
False

>  <MaxAbsEStateIndex>  (225) 
10.036149

>  <MaxEStateIndex>  (225) 
10.036149

>  <MinAbsEStateIndex>  (225) 
0.015926

>  <MinEStateIndex>  (225) 
-0.514444

>  <qed>  (225) 
0.470728

>  <MolWt>  (225) 
139.11

>  <HeavyAtomMolWt>  (225) 
134.07

>  <ExactMolWt>  (225) 
139.026943

>  <NumValenceElectrons>  (225) 
52

>  <NumRadicalElectrons>  (225) 
0

>  <MaxPartialCharge>  (225) 
0.269195

>  <MinPartialCharge>  (225) 
-0.507958

>  <MaxAbsPartialCharge>  (225) 
0.507958

>  <MinAbsPartialCharge>  (225) 
0.269195

>  <FpDensityMorgan1>  (225) 
1.3

>  <FpDensityMorgan2>  (225) 
1.8

>  <FpDensityMorgan3>  (225) 
2.2

>  <BCUT2D_MWHI>  (225) 
16.628234

>  <BCUT2D_MWLOW>  (225) 
10.295264

>  <BCUT2D_CHGHI>  (225) 
2.010976

>  <BCUT2D_CHGLO>  (225) 
-1.889975

>  <BCUT2D_LOGPHI>  (225) 
2.144289

>  <BCUT2D_LOGPLOW>  (225) 
-1.847536

>  <BCUT2D_MRHI>  (225) 
5.344731

>  <BCUT2D_MRLOW>  (225) 
-0.384452

>  <AvgIpc>  (225) 
1.884505

>  <BalabanJ>  (225) 
3.003401

>  <BertzCT>  (225) 
241.674771

>  <Chi0>  (225) 
7.560478

>  <Chi0n>  (225) 
5.020325

>  <Chi0v>  (225) 
5.020325

>  <Chi1>  (225) 
4.698377

>  <Chi1n>  (225) 
2.633729

>  <Chi1v>  (225) 
2.633729

>  <Chi2n>  (225) 
1.773508

>  <Chi2v>  (225) 
1.773508

>  <Chi3n>  (225) 
1.060528

>  <Chi3v>  (225) 
1.060528

>  <Chi4n>  (225) 
0.574349

>  <Chi4v>  (225) 
0.574349

>  <HallKierAlpha>  (225) 
-1.58

>  <Ipc>  (225) 
180.912515

>  <Kappa1>  (225) 
6.538765

>  <Kappa2>  (225) 
2.344994

>  <Kappa3>  (225) 
1.222617

>  <LabuteASA>  (225) 
56.878613

>  <PEOE_VSA1>  (225) 
5.106527

>  <PEOE_VSA10>  (225) 
5.749512

>  <PEOE_VSA11>  (225) 
0.0

>  <PEOE_VSA12>  (225) 
0.0

>  <PEOE_VSA13>  (225) 
5.687386

>  <PEOE_VSA14>  (225) 
0.0

>  <PEOE_VSA2>  (225) 
10.114318

>  <PEOE_VSA3>  (225) 
0.0

>  <PEOE_VSA4>  (225) 
0.0

>  <PEOE_VSA5>  (225) 
0.0

>  <PEOE_VSA6>  (225) 
0.0

>  <PEOE_VSA7>  (225) 
12.132734

>  <PEOE_VSA8>  (225) 
12.132734

>  <PEOE_VSA9>  (225) 
4.923311

>  <SMR_VSA1>  (225) 
10.029838

>  <SMR_VSA10>  (225) 
5.687386

>  <SMR_VSA2>  (225) 
0.0

>  <SMR_VSA3>  (225) 
0.0

>  <SMR_VSA4>  (225) 
0.0

>  <SMR_VSA5>  (225) 
0.0

>  <SMR_VSA6>  (225) 
0.0

>  <SMR_VSA7>  (225) 
34.379787

>  <SMR_VSA8>  (225) 
0.0

>  <SMR_VSA9>  (225) 
5.749512

>  <SlogP_VSA1>  (225) 
0.0

>  <SlogP_VSA10>  (225) 
5.687386

>  <SlogP_VSA11>  (225) 
5.749512

>  <SlogP_VSA12>  (225) 
0.0

>  <SlogP_VSA2>  (225) 
10.029838

>  <SlogP_VSA3>  (225) 
0.0

>  <SlogP_VSA4>  (225) 
10.114318

>  <SlogP_VSA5>  (225) 
0.0

>  <SlogP_VSA6>  (225) 
24.265468

>  <SlogP_VSA7>  (225) 
0.0

>  <SlogP_VSA8>  (225) 
0.0

>  <SlogP_VSA9>  (225) 
0.0

>  <EState_VSA1>  (225) 
4.923311

>  <EState_VSA10>  (225) 
10.114318

>  <EState_VSA11>  (225) 
0.0

>  <EState_VSA2>  (225) 
11.436898

>  <EState_VSA3>  (225) 
0.0

>  <EState_VSA4>  (225) 
0.0

>  <EState_VSA5>  (225) 
24.265468

>  <EState_VSA6>  (225) 
0.0

>  <EState_VSA7>  (225) 
0.0

>  <EState_VSA8>  (225) 
0.0

>  <EState_VSA9>  (225) 
5.106527

>  <VSA_EState1>  (225) 
0.0

>  <VSA_EState10>  (225) 
0.0

>  <VSA_EState2>  (225) 
9.521704

>  <VSA_EState3>  (225) 
18.751999

>  <VSA_EState4>  (225) 
-0.015926

>  <VSA_EState5>  (225) 
0.032963

>  <VSA_EState6>  (225) 
5.042593

>  <VSA_EState7>  (225) 
0.0

>  <VSA_EState8>  (225) 
0.0

>  <VSA_EState9>  (225) 
0.0

>  <FractionCSP3>  (225) 
0.0

>  <HeavyAtomCount>  (225) 
10

>  <NHOHCount>  (225) 
1

>  <NOCount>  (225) 
4

>  <NumAliphaticCarbocycles>  (225) 
0

>  <NumAliphaticHeterocycles>  (225) 
0

>  <NumAliphaticRings>  (225) 
0

>  <NumAromaticCarbocycles>  (225) 
1

>  <NumAromaticHeterocycles>  (225) 
0

>  <NAR>  (225) 
1

>  <NumHAcceptors>  (225) 
3

>  <NumHDonors>  (225) 
1

>  <NumHeteroatoms>  (225) 
4

>  <NumRotatableBonds>  (225) 
1

>  <NumSaturatedCarbocycles>  (225) 
0

>  <NumSaturatedHeterocycles>  (225) 
0

>  <NumSaturatedRings>  (225) 
0

>  <RingCount>  (225) 
1

>  <MolLogP>  (225) 
1.3004

>  <MolMR>  (225) 
34.7612

>  <fr_Al_COO>  (225) 
0

>  <fr_Al_OH>  (225) 
0

>  <fr_Al_OH_noTert>  (225) 
0

>  <fr_ArN>  (225) 
0

>  <fr_Ar_COO>  (225) 
0

>  <fr_Ar_N>  (225) 
0

>  <fr_Ar_NH>  (225) 
0

>  <fr_Ar_OH>  (225) 
1

>  <fr_COO>  (225) 
0

>  <fr_COO2>  (225) 
0

>  <fr_C_O>  (225) 
0

>  <fr_C_O_noCOO>  (225) 
0

>  <fr_C_S>  (225) 
0

>  <fr_HOCCN>  (225) 
0

>  <fr_Imine>  (225) 
0

>  <fr_NH0>  (225) 
1

>  <fr_NH1>  (225) 
0

>  <fr_NH2>  (225) 
0

>  <fr_N_O>  (225) 
0

>  <fr_Ndealkylation1>  (225) 
0

>  <fr_Ndealkylation2>  (225) 
0

>  <fr_Nhpyrrole>  (225) 
0

>  <fr_SH>  (225) 
0

>  <fr_aldehyde>  (225) 
0

>  <fr_alkyl_carbamate>  (225) 
0

>  <fr_alkyl_halide>  (225) 
0

>  <fr_allylic_oxid>  (225) 
0

>  <fr_amide>  (225) 
0

>  <fr_amidine>  (225) 
0

>  <fr_aniline>  (225) 
0

>  <fr_aryl_methyl>  (225) 
0

>  <fr_azide>  (225) 
0

>  <fr_azo>  (225) 
0

>  <fr_barbitur>  (225) 
0

>  <fr_benzene>  (225) 
1

>  <fr_benzodiazepine>  (225) 
0

>  <fr_bicyclic>  (225) 
0

>  <fr_diazo>  (225) 
0

>  <fr_dihydropyridine>  (225) 
0

>  <fr_epoxide>  (225) 
0

>  <fr_ester>  (225) 
0

>  <fr_ether>  (225) 
0

>  <fr_furan>  (225) 
0

>  <fr_guanido>  (225) 
0

>  <fr_halogen>  (225) 
0

>  <fr_hdrzine>  (225) 
0

>  <fr_hdrzone>  (225) 
0

>  <fr_imidazole>  (225) 
0

>  <fr_imide>  (225) 
0

>  <fr_isocyan>  (225) 
0

>  <fr_isothiocyan>  (225) 
0

>  <fr_ketone>  (225) 
0

>  <fr_ketone_Topliss>  (225) 
0

>  <fr_lactam>  (225) 
0

>  <fr_lactone>  (225) 
0

>  <fr_methoxy>  (225) 
0

>  <fr_morpholine>  (225) 
0

>  <fr_nitrile>  (225) 
0

>  <fr_nitro>  (225) 
1

>  <fr_nitro_arom>  (225) 
1

>  <fr_nitro_arom_nonortho>  (225) 
1

>  <fr_nitroso>  (225) 
0

>  <fr_oxazole>  (225) 
0

>  <fr_oxime>  (225) 
0

>  <fr_para_hydroxylation>  (225) 
0

>  <fr_phenol>  (225) 
1

>  <fr_phenol_noOrthoHbond>  (225) 
1

>  <fr_phos_acid>  (225) 
0

>  <fr_phos_ester>  (225) 
0

>  <fr_piperdine>  (225) 
0

>  <fr_piperzine>  (225) 
0

>  <fr_priamide>  (225) 
0

>  <fr_prisulfonamd>  (225) 
0

>  <fr_pyridine>  (225) 
0

>  <fr_quatN>  (225) 
0

>  <fr_sulfide>  (225) 
0

>  <fr_sulfonamd>  (225) 
0

>  <fr_sulfone>  (225) 
0

>  <fr_term_acetylene>  (225) 
0

>  <fr_tetrazole>  (225) 
0

>  <fr_thiazole>  (225) 
0

>  <fr_thiocyan>  (225) 
0

>  <fr_thiophene>  (225) 
0

>  <fr_unbrch_alkane>  (225) 
0

>  <fr_urea>  (225) 
0

>  <NP-Likeness>  (225) 
-0.666415

$$$$
NTN
     RDKit          3D

  0  0  0  0  0  0  0  0  0  0999 V3000
M  V30 BEGIN CTAB
M  V30 COUNTS 17 17 0 0 0
M  V30 BEGIN ATOM
M  V30 1 C -1.285363 -0.411966 1.572353 0
M  V30 2 N -1.241294 -1.389449 0.623749 0
M  V30 3 C -0.087136 -1.529837 -0.080920 0
M  V30 4 C 0.993615 -0.708639 0.162466 0
M  V30 5 C 0.936274 0.283711 1.131738 0
M  V30 6 C 2.106496 1.100942 1.327032 0
M  V30 7 N 3.008853 1.391490 0.287110 0
M  V30 8 N 2.352171 1.593005 2.491510 0 CHG=1 VAL=4
M  V30 9 C -0.241687 0.418811 1.843181 0
M  V30 10 H -2.210373 -0.298714 2.137833 0
M  V30 11 H -0.047204 -2.305144 -0.835787 0
M  V30 12 H 1.890356 -0.866796 -0.431587 0
M  V30 13 H 3.476942 2.195175 -0.182986 0
M  V30 14 H 3.378603 0.560593 -0.239908 0
M  V30 15 H 1.804191 1.485235 3.363779 0
M  V30 16 H 3.180300 2.190761 2.697846 0
M  V30 17 H -0.297795 1.197878 2.609615 0
M  V30 END ATOM
M  V30 BEGIN BOND
M  V30 1 2 1 2
M  V30 2 1 2 3
M  V30 3 2 3 4
M  V30 4 1 4 5
M  V30 5 1 5 6
M  V30 6 1 6 7
M  V30 7 2 6 8
M  V30 8 2 5 9
M  V30 9 1 9 1
M  V30 10 1 1 10
M  V30 11 1 3 11
M  V30 12 1 4 12
M  V30 13 1 7 13
M  V30 14 1 7 14
M  V30 15 1 8 15
M  V30 16 1 8 16
M  V30 17 1 9 17
M  V30 END BOND
M  V30 END CTAB
M  END
>  <Dataset>  (226) 
PDB

>  <Ligand_Instance>  (226) 
6ZN0_NTN_A_404

>  <PDB_ID>  (226) 
6ZN0

>  <Standardized_SMILES>  (226) 
[H]C1=NC([H])=C([H])C(C(N([H])[H])=[N+]([H])[H])=C1[H]

>  <Name>  (226) 
ISONICOTINAMIDINE

>  <Pocket>  (226) 
A

>  <ATP_Site>  (226) 
1.0

>  <Peripheral>  (226) 
1.0

>  <Num_H_Atoms_ProtBoundConf>  (226) 
8.0

>  <Num_Resolved_Atoms>  (226) 
9.0

>  <Num_Not_Resolved_Atoms>  (226) 
0.0

>  <2D_Mol_H>  (226) 
<rdkit.Chem.rdchem.Mol object at 0x72a238df2e30>

>  <MW>  (226) 
122.151

>  <HBA>  (226) 
1

>  <HBD>  (226) 
2

>  <LogP>  (226) 
-1.454

>  <NRB>  (226) 
1

>  <TPSA>  (226) 
64.5

>  <Num_Heavy_Atoms>  (226) 
9

>  <Ro5>  (226) 
[True, True, True, True, True, True]

>  <Ro5_Fulfilled>  (226) 
True

>  <Ro3>  (226) 
[True, True, True, True]

>  <Ro3_Fulfilled>  (226) 
True

>  <Fsp3>  (226) 
0.0

>  <Fsp3_0.42>  (226) 
False

>  <Fsp3_0.45>  (226) 
False

>  <Stereogenic_Carbons>  (226) 
0

>  <C_Atoms>  (226) 
6

>  <FCStereo>  (226) 
0.0

>  <SPS>  (226) 
80

>  <nSPS>  (226) 
8.888889

>  <PBF>  (226) 
0.315677

>  <PBF_0.6>  (226) 
False

>  <nPBF>  (226) 
0.035075

>  <nPBF_0.016>  (226) 
True

>  <PMI1>  (226) 
134.711006

>  <PMI2>  (226) 
421.696428

>  <PMI3>  (226) 
539.054268

>  <NPR1>  (226) 
0.249902

>  <NPR2>  (226) 
0.782289

>  <Sum_NPR>  (226) 
1.032192

>  <Sum_NPR_1.07>  (226) 
False

>  <Sum_NPR_1.2>  (226) 
False

>  <MaxAbsEStateIndex>  (226) 
5.28037

>  <MaxEStateIndex>  (226) 
5.28037

>  <MinAbsEStateIndex>  (226) 
0.330926

>  <MinEStateIndex>  (226) 
0.330926

>  <qed>  (226) 
0.353189

>  <MolWt>  (226) 
122.151

>  <HeavyAtomMolWt>  (226) 
114.087

>  <ExactMolWt>  (226) 
122.071274

>  <NumValenceElectrons>  (226) 
46

>  <NumRadicalElectrons>  (226) 
0

>  <MaxPartialCharge>  (226) 
0.270286

>  <MinPartialCharge>  (226) 
-0.287039

>  <MaxAbsPartialCharge>  (226) 
0.287039

>  <MinAbsPartialCharge>  (226) 
0.270286

>  <FpDensityMorgan1>  (226) 
1.444444

>  <FpDensityMorgan2>  (226) 
2.0

>  <FpDensityMorgan3>  (226) 
2.333333

>  <BCUT2D_MWHI>  (226) 
14.701126

>  <BCUT2D_MWLOW>  (226) 
10.247592

>  <BCUT2D_CHGHI>  (226) 
1.957723

>  <BCUT2D_CHGLO>  (226) 
-1.868376

>  <BCUT2D_LOGPHI>  (226) 
1.895404

>  <BCUT2D_LOGPLOW>  (226) 
-2.456272

>  <BCUT2D_MRHI>  (226) 
5.917158

>  <BCUT2D_MRLOW>  (226) 
-0.113735

>  <AvgIpc>  (226) 
1.900373

>  <BalabanJ>  (226) 
2.981455

>  <BertzCT>  (226) 
204.802775

>  <Chi0>  (226) 
6.690234

>  <Chi0n>  (226) 
4.911315

>  <Chi0v>  (226) 
4.911315

>  <Chi1>  (226) 
4.30453

>  <Chi1n>  (226) 
2.587765

>  <Chi1v>  (226) 
2.587765

>  <Chi2n>  (226) 
1.691231

>  <Chi2v>  (226) 
1.691231

>  <Chi3n>  (226) 
1.013654

>  <Chi3v>  (226) 
1.013654

>  <Chi4n>  (226) 
0.544364

>  <Chi4v>  (226) 
0.544364

>  <HallKierAlpha>  (226) 
-1.38

>  <Ipc>  (226) 
129.225339

>  <Kappa1>  (226) 
5.751234

>  <Kappa2>  (226) 
2.259334

>  <Kappa3>  (226) 
1.252832

>  <LabuteASA>  (226) 
53.041235

>  <PEOE_VSA1>  (226) 
0.0

>  <PEOE_VSA10>  (226) 
0.0

>  <PEOE_VSA11>  (226) 
0.0

>  <PEOE_VSA12>  (226) 
0.0

>  <PEOE_VSA13>  (226) 
5.83562

>  <PEOE_VSA14>  (226) 
0.0

>  <PEOE_VSA2>  (226) 
16.12693

>  <PEOE_VSA3>  (226) 
0.0

>  <PEOE_VSA4>  (226) 
0.0

>  <PEOE_VSA5>  (226) 
0.0

>  <PEOE_VSA6>  (226) 
0.0

>  <PEOE_VSA7>  (226) 
12.132734

>  <PEOE_VSA8>  (226) 
12.393687

>  <PEOE_VSA9>  (226) 
5.563451

>  <SMR_VSA1>  (226) 
5.409284

>  <SMR_VSA10>  (226) 
5.83562

>  <SMR_VSA2>  (226) 
0.0

>  <SMR_VSA3>  (226) 
4.983979

>  <SMR_VSA4>  (226) 
5.733667

>  <SMR_VSA5>  (226) 
0.0

>  <SMR_VSA6>  (226) 
0.0

>  <SMR_VSA7>  (226) 
30.089873

>  <SMR_VSA8>  (226) 
0.0

>  <SMR_VSA9>  (226) 
0.0

>  <SlogP_VSA1>  (226) 
11.142951

>  <SlogP_VSA10>  (226) 
0.0

>  <SlogP_VSA11>  (226) 
0.0

>  <SlogP_VSA12>  (226) 
0.0

>  <SlogP_VSA2>  (226) 
10.819598

>  <SlogP_VSA3>  (226) 
0.0

>  <SlogP_VSA4>  (226) 
0.0

>  <SlogP_VSA5>  (226) 
5.563451

>  <SlogP_VSA6>  (226) 
24.526421

>  <SlogP_VSA7>  (226) 
0.0

>  <SlogP_VSA8>  (226) 
0.0

>  <SlogP_VSA9>  (226) 
0.0

>  <EState_VSA1>  (226) 
0.0

>  <EState_VSA10>  (226) 
0.0

>  <EState_VSA11>  (226) 
0.0

>  <EState_VSA2>  (226) 
0.0

>  <EState_VSA3>  (226) 
5.83562

>  <EState_VSA4>  (226) 
5.563451

>  <EState_VSA5>  (226) 
0.0

>  <EState_VSA6>  (226) 
24.526421

>  <EState_VSA7>  (226) 
0.0

>  <EState_VSA8>  (226) 
4.983979

>  <EState_VSA9>  (226) 
11.142951

>  <VSA_EState1>  (226) 
0.0

>  <VSA_EState10>  (226) 
0.0

>  <VSA_EState2>  (226) 
3.803333

>  <VSA_EState3>  (226) 
5.28037

>  <VSA_EState4>  (226) 
6.104444

>  <VSA_EState5>  (226) 
0.330926

>  <VSA_EState6>  (226) 
3.518519

>  <VSA_EState7>  (226) 
3.295741

>  <VSA_EState8>  (226) 
0.0

>  <VSA_EState9>  (226) 
0.0

>  <FractionCSP3>  (226) 
0.0

>  <HeavyAtomCount>  (226) 
9

>  <NHOHCount>  (226) 
4

>  <NOCount>  (226) 
3

>  <NumAliphaticCarbocycles>  (226) 
0

>  <NumAliphaticHeterocycles>  (226) 
0

>  <NumAliphaticRings>  (226) 
0

>  <NumAromaticCarbocycles>  (226) 
0

>  <NumAromaticHeterocycles>  (226) 
1

>  <NAR>  (226) 
1

>  <NumHAcceptors>  (226) 
1

>  <NumHDonors>  (226) 
2

>  <NumHeteroatoms>  (226) 
3

>  <NumRotatableBonds>  (226) 
1

>  <NumSaturatedCarbocycles>  (226) 
0

>  <NumSaturatedHeterocycles>  (226) 
0

>  <NumSaturatedRings>  (226) 
0

>  <RingCount>  (226) 
1

>  <MolLogP>  (226) 
-1.454

>  <MolMR>  (226) 
34.4588

>  <fr_Al_COO>  (226) 
0

>  <fr_Al_OH>  (226) 
0

>  <fr_Al_OH_noTert>  (226) 
0

>  <fr_ArN>  (226) 
0

>  <fr_Ar_COO>  (226) 
0

>  <fr_Ar_N>  (226) 
1

>  <fr_Ar_NH>  (226) 
0

>  <fr_Ar_OH>  (226) 
0

>  <fr_COO>  (226) 
0

>  <fr_COO2>  (226) 
0

>  <fr_C_O>  (226) 
0

>  <fr_C_O_noCOO>  (226) 
0

>  <fr_C_S>  (226) 
0

>  <fr_HOCCN>  (226) 
0

>  <fr_Imine>  (226) 
0

>  <fr_NH0>  (226) 
1

>  <fr_NH1>  (226) 
0

>  <fr_NH2>  (226) 
2

>  <fr_N_O>  (226) 
0

>  <fr_Ndealkylation1>  (226) 
0

>  <fr_Ndealkylation2>  (226) 
0

>  <fr_Nhpyrrole>  (226) 
0

>  <fr_SH>  (226) 
0

>  <fr_aldehyde>  (226) 
0

>  <fr_alkyl_carbamate>  (226) 
0

>  <fr_alkyl_halide>  (226) 
0

>  <fr_allylic_oxid>  (226) 
0

>  <fr_amide>  (226) 
0

>  <fr_amidine>  (226) 
1

>  <fr_aniline>  (226) 
0

>  <fr_aryl_methyl>  (226) 
0

>  <fr_azide>  (226) 
0

>  <fr_azo>  (226) 
0

>  <fr_barbitur>  (226) 
0

>  <fr_benzene>  (226) 
0

>  <fr_benzodiazepine>  (226) 
0

>  <fr_bicyclic>  (226) 
0

>  <fr_diazo>  (226) 
0

>  <fr_dihydropyridine>  (226) 
0

>  <fr_epoxide>  (226) 
0

>  <fr_ester>  (226) 
0

>  <fr_ether>  (226) 
0

>  <fr_furan>  (226) 
0

>  <fr_guanido>  (226) 
0

>  <fr_halogen>  (226) 
0

>  <fr_hdrzine>  (226) 
0

>  <fr_hdrzone>  (226) 
0

>  <fr_imidazole>  (226) 
0

>  <fr_imide>  (226) 
0

>  <fr_isocyan>  (226) 
0

>  <fr_isothiocyan>  (226) 
0

>  <fr_ketone>  (226) 
0

>  <fr_ketone_Topliss>  (226) 
0

>  <fr_lactam>  (226) 
0

>  <fr_lactone>  (226) 
0

>  <fr_methoxy>  (226) 
0

>  <fr_morpholine>  (226) 
0

>  <fr_nitrile>  (226) 
0

>  <fr_nitro>  (226) 
0

>  <fr_nitro_arom>  (226) 
0

>  <fr_nitro_arom_nonortho>  (226) 
0

>  <fr_nitroso>  (226) 
0

>  <fr_oxazole>  (226) 
0

>  <fr_oxime>  (226) 
0

>  <fr_para_hydroxylation>  (226) 
0

>  <fr_phenol>  (226) 
0

>  <fr_phenol_noOrthoHbond>  (226) 
0

>  <fr_phos_acid>  (226) 
0

>  <fr_phos_ester>  (226) 
0

>  <fr_piperdine>  (226) 
0

>  <fr_piperzine>  (226) 
0

>  <fr_priamide>  (226) 
0

>  <fr_prisulfonamd>  (226) 
0

>  <fr_pyridine>  (226) 
1

>  <fr_quatN>  (226) 
0

>  <fr_sulfide>  (226) 
0

>  <fr_sulfonamd>  (226) 
0

>  <fr_sulfone>  (226) 
0

>  <fr_term_acetylene>  (226) 
0

>  <fr_tetrazole>  (226) 
0

>  <fr_thiazole>  (226) 
0

>  <fr_thiocyan>  (226) 
0

>  <fr_thiophene>  (226) 
0

>  <fr_unbrch_alkane>  (226) 
0

>  <fr_urea>  (226) 
0

>  <NP-Likeness>  (226) 
-0.787814

$$$$
NTN
     RDKit          3D

  0  0  0  0  0  0  0  0  0  0999 V3000
M  V30 BEGIN CTAB
M  V30 COUNTS 17 17 0 0 0
M  V30 BEGIN ATOM
M  V30 1 C -1.285363 -0.411966 1.572353 0
M  V30 2 N -1.241294 -1.389449 0.623749 0
M  V30 3 C -0.087136 -1.529837 -0.080920 0
M  V30 4 C 0.993615 -0.708639 0.162466 0
M  V30 5 C 0.936274 0.283711 1.131738 0
M  V30 6 C 2.106496 1.100942 1.327032 0
M  V30 7 N 3.008853 1.391490 0.287110 0
M  V30 8 N 2.352171 1.593005 2.491510 0 CHG=1 VAL=4
M  V30 9 C -0.241687 0.418811 1.843181 0
M  V30 10 H -2.210373 -0.298714 2.137833 0
M  V30 11 H -0.047204 -2.305144 -0.835787 0
M  V30 12 H 1.890356 -0.866796 -0.431587 0
M  V30 13 H 3.476942 2.195175 -0.182986 0
M  V30 14 H 3.378603 0.560593 -0.239908 0
M  V30 15 H 1.804191 1.485235 3.363779 0
M  V30 16 H 3.180300 2.190761 2.697846 0
M  V30 17 H -0.297795 1.197878 2.609615 0
M  V30 END ATOM
M  V30 BEGIN BOND
M  V30 1 2 1 2
M  V30 2 1 2 3
M  V30 3 2 3 4
M  V30 4 1 4 5
M  V30 5 1 5 6
M  V30 6 1 6 7
M  V30 7 2 6 8
M  V30 8 2 5 9
M  V30 9 1 9 1
M  V30 10 1 1 10
M  V30 11 1 3 11
M  V30 12 1 4 12
M  V30 13 1 7 13
M  V30 14 1 7 14
M  V30 15 1 8 15
M  V30 16 1 8 16
M  V30 17 1 9 17
M  V30 END BOND
M  V30 END CTAB
M  END
>  <Dataset>  (227) 
PDB

>  <Ligand_Instance>  (227) 
6ZN0_NTN_A_405

>  <PDB_ID>  (227) 
6ZN0

>  <Standardized_SMILES>  (227) 
[H]C1=NC([H])=C([H])C(C(N([H])[H])=[N+]([H])[H])=C1[H]

>  <Name>  (227) 
ISONICOTINAMIDINE

>  <Pocket>  (227) 
X

>  <ATP_Site>  (227) 
1.0

>  <Peripheral>  (227) 
1.0

>  <Num_H_Atoms_ProtBoundConf>  (227) 
8.0

>  <Num_Resolved_Atoms>  (227) 
9.0

>  <Num_Not_Resolved_Atoms>  (227) 
0.0

>  <2D_Mol_H>  (227) 
<rdkit.Chem.rdchem.Mol object at 0x72a238df2f10>

>  <MW>  (227) 
122.151

>  <HBA>  (227) 
1

>  <HBD>  (227) 
2

>  <LogP>  (227) 
-1.454

>  <NRB>  (227) 
1

>  <TPSA>  (227) 
64.5

>  <Num_Heavy_Atoms>  (227) 
9

>  <Ro5>  (227) 
[True, True, True, True, True, True]

>  <Ro5_Fulfilled>  (227) 
True

>  <Ro3>  (227) 
[True, True, True, True]

>  <Ro3_Fulfilled>  (227) 
True

>  <Fsp3>  (227) 
0.0

>  <Fsp3_0.42>  (227) 
False

>  <Fsp3_0.45>  (227) 
False

>  <Stereogenic_Carbons>  (227) 
0

>  <C_Atoms>  (227) 
6

>  <FCStereo>  (227) 
0.0

>  <SPS>  (227) 
80

>  <nSPS>  (227) 
8.888889

>  <PBF>  (227) 
0.315677

>  <PBF_0.6>  (227) 
False

>  <nPBF>  (227) 
0.035075

>  <nPBF_0.016>  (227) 
True

>  <PMI1>  (227) 
134.711006

>  <PMI2>  (227) 
421.696428

>  <PMI3>  (227) 
539.054268

>  <NPR1>  (227) 
0.249902

>  <NPR2>  (227) 
0.782289

>  <Sum_NPR>  (227) 
1.032192

>  <Sum_NPR_1.07>  (227) 
False

>  <Sum_NPR_1.2>  (227) 
False

>  <MaxAbsEStateIndex>  (227) 
5.28037

>  <MaxEStateIndex>  (227) 
5.28037

>  <MinAbsEStateIndex>  (227) 
0.330926

>  <MinEStateIndex>  (227) 
0.330926

>  <qed>  (227) 
0.353189

>  <MolWt>  (227) 
122.151

>  <HeavyAtomMolWt>  (227) 
114.087

>  <ExactMolWt>  (227) 
122.071274

>  <NumValenceElectrons>  (227) 
46

>  <NumRadicalElectrons>  (227) 
0

>  <MaxPartialCharge>  (227) 
0.270286

>  <MinPartialCharge>  (227) 
-0.287039

>  <MaxAbsPartialCharge>  (227) 
0.287039

>  <MinAbsPartialCharge>  (227) 
0.270286

>  <FpDensityMorgan1>  (227) 
1.444444

>  <FpDensityMorgan2>  (227) 
2.0

>  <FpDensityMorgan3>  (227) 
2.333333

>  <BCUT2D_MWHI>  (227) 
14.701126

>  <BCUT2D_MWLOW>  (227) 
10.247592

>  <BCUT2D_CHGHI>  (227) 
1.957723

>  <BCUT2D_CHGLO>  (227) 
-1.868376

>  <BCUT2D_LOGPHI>  (227) 
1.895404

>  <BCUT2D_LOGPLOW>  (227) 
-2.456272

>  <BCUT2D_MRHI>  (227) 
5.917158

>  <BCUT2D_MRLOW>  (227) 
-0.113735

>  <AvgIpc>  (227) 
1.900373

>  <BalabanJ>  (227) 
2.981455

>  <BertzCT>  (227) 
204.802775

>  <Chi0>  (227) 
6.690234

>  <Chi0n>  (227) 
4.911315

>  <Chi0v>  (227) 
4.911315

>  <Chi1>  (227) 
4.30453

>  <Chi1n>  (227) 
2.587765

>  <Chi1v>  (227) 
2.587765

>  <Chi2n>  (227) 
1.691231

>  <Chi2v>  (227) 
1.691231

>  <Chi3n>  (227) 
1.013654

>  <Chi3v>  (227) 
1.013654

>  <Chi4n>  (227) 
0.544364

>  <Chi4v>  (227) 
0.544364

>  <HallKierAlpha>  (227) 
-1.38

>  <Ipc>  (227) 
129.225339

>  <Kappa1>  (227) 
5.751234

>  <Kappa2>  (227) 
2.259334

>  <Kappa3>  (227) 
1.252832

>  <LabuteASA>  (227) 
53.041235

>  <PEOE_VSA1>  (227) 
0.0

>  <PEOE_VSA10>  (227) 
0.0

>  <PEOE_VSA11>  (227) 
0.0

>  <PEOE_VSA12>  (227) 
0.0

>  <PEOE_VSA13>  (227) 
5.83562

>  <PEOE_VSA14>  (227) 
0.0

>  <PEOE_VSA2>  (227) 
16.12693

>  <PEOE_VSA3>  (227) 
0.0

>  <PEOE_VSA4>  (227) 
0.0

>  <PEOE_VSA5>  (227) 
0.0

>  <PEOE_VSA6>  (227) 
0.0

>  <PEOE_VSA7>  (227) 
12.132734

>  <PEOE_VSA8>  (227) 
12.393687

>  <PEOE_VSA9>  (227) 
5.563451

>  <SMR_VSA1>  (227) 
5.409284

>  <SMR_VSA10>  (227) 
5.83562

>  <SMR_VSA2>  (227) 
0.0

>  <SMR_VSA3>  (227) 
4.983979

>  <SMR_VSA4>  (227) 
5.733667

>  <SMR_VSA5>  (227) 
0.0

>  <SMR_VSA6>  (227) 
0.0

>  <SMR_VSA7>  (227) 
30.089873

>  <SMR_VSA8>  (227) 
0.0

>  <SMR_VSA9>  (227) 
0.0

>  <SlogP_VSA1>  (227) 
11.142951

>  <SlogP_VSA10>  (227) 
0.0

>  <SlogP_VSA11>  (227) 
0.0

>  <SlogP_VSA12>  (227) 
0.0

>  <SlogP_VSA2>  (227) 
10.819598

>  <SlogP_VSA3>  (227) 
0.0

>  <SlogP_VSA4>  (227) 
0.0

>  <SlogP_VSA5>  (227) 
5.563451

>  <SlogP_VSA6>  (227) 
24.526421

>  <SlogP_VSA7>  (227) 
0.0

>  <SlogP_VSA8>  (227) 
0.0

>  <SlogP_VSA9>  (227) 
0.0

>  <EState_VSA1>  (227) 
0.0

>  <EState_VSA10>  (227) 
0.0

>  <EState_VSA11>  (227) 
0.0

>  <EState_VSA2>  (227) 
0.0

>  <EState_VSA3>  (227) 
5.83562

>  <EState_VSA4>  (227) 
5.563451

>  <EState_VSA5>  (227) 
0.0

>  <EState_VSA6>  (227) 
24.526421

>  <EState_VSA7>  (227) 
0.0

>  <EState_VSA8>  (227) 
4.983979

>  <EState_VSA9>  (227) 
11.142951

>  <VSA_EState1>  (227) 
0.0

>  <VSA_EState10>  (227) 
0.0

>  <VSA_EState2>  (227) 
3.803333

>  <VSA_EState3>  (227) 
5.28037

>  <VSA_EState4>  (227) 
6.104444

>  <VSA_EState5>  (227) 
0.330926

>  <VSA_EState6>  (227) 
3.518519

>  <VSA_EState7>  (227) 
3.295741

>  <VSA_EState8>  (227) 
0.0

>  <VSA_EState9>  (227) 
0.0

>  <FractionCSP3>  (227) 
0.0

>  <HeavyAtomCount>  (227) 
9

>  <NHOHCount>  (227) 
4

>  <NOCount>  (227) 
3

>  <NumAliphaticCarbocycles>  (227) 
0

>  <NumAliphaticHeterocycles>  (227) 
0

>  <NumAliphaticRings>  (227) 
0

>  <NumAromaticCarbocycles>  (227) 
0

>  <NumAromaticHeterocycles>  (227) 
1

>  <NAR>  (227) 
1

>  <NumHAcceptors>  (227) 
1

>  <NumHDonors>  (227) 
2

>  <NumHeteroatoms>  (227) 
3

>  <NumRotatableBonds>  (227) 
1

>  <NumSaturatedCarbocycles>  (227) 
0

>  <NumSaturatedHeterocycles>  (227) 
0

>  <NumSaturatedRings>  (227) 
0

>  <RingCount>  (227) 
1

>  <MolLogP>  (227) 
-1.454

>  <MolMR>  (227) 
34.4588

>  <fr_Al_COO>  (227) 
0

>  <fr_Al_OH>  (227) 
0

>  <fr_Al_OH_noTert>  (227) 
0

>  <fr_ArN>  (227) 
0

>  <fr_Ar_COO>  (227) 
0

>  <fr_Ar_N>  (227) 
1

>  <fr_Ar_NH>  (227) 
0

>  <fr_Ar_OH>  (227) 
0

>  <fr_COO>  (227) 
0

>  <fr_COO2>  (227) 
0

>  <fr_C_O>  (227) 
0

>  <fr_C_O_noCOO>  (227) 
0

>  <fr_C_S>  (227) 
0

>  <fr_HOCCN>  (227) 
0

>  <fr_Imine>  (227) 
0

>  <fr_NH0>  (227) 
1

>  <fr_NH1>  (227) 
0

>  <fr_NH2>  (227) 
2

>  <fr_N_O>  (227) 
0

>  <fr_Ndealkylation1>  (227) 
0

>  <fr_Ndealkylation2>  (227) 
0

>  <fr_Nhpyrrole>  (227) 
0

>  <fr_SH>  (227) 
0

>  <fr_aldehyde>  (227) 
0

>  <fr_alkyl_carbamate>  (227) 
0

>  <fr_alkyl_halide>  (227) 
0

>  <fr_allylic_oxid>  (227) 
0

>  <fr_amide>  (227) 
0

>  <fr_amidine>  (227) 
1

>  <fr_aniline>  (227) 
0

>  <fr_aryl_methyl>  (227) 
0

>  <fr_azide>  (227) 
0

>  <fr_azo>  (227) 
0

>  <fr_barbitur>  (227) 
0

>  <fr_benzene>  (227) 
0

>  <fr_benzodiazepine>  (227) 
0

>  <fr_bicyclic>  (227) 
0

>  <fr_diazo>  (227) 
0

>  <fr_dihydropyridine>  (227) 
0

>  <fr_epoxide>  (227) 
0

>  <fr_ester>  (227) 
0

>  <fr_ether>  (227) 
0

>  <fr_furan>  (227) 
0

>  <fr_guanido>  (227) 
0

>  <fr_halogen>  (227) 
0

>  <fr_hdrzine>  (227) 
0

>  <fr_hdrzone>  (227) 
0

>  <fr_imidazole>  (227) 
0

>  <fr_imide>  (227) 
0

>  <fr_isocyan>  (227) 
0

>  <fr_isothiocyan>  (227) 
0

>  <fr_ketone>  (227) 
0

>  <fr_ketone_Topliss>  (227) 
0

>  <fr_lactam>  (227) 
0

>  <fr_lactone>  (227) 
0

>  <fr_methoxy>  (227) 
0

>  <fr_morpholine>  (227) 
0

>  <fr_nitrile>  (227) 
0

>  <fr_nitro>  (227) 
0

>  <fr_nitro_arom>  (227) 
0

>  <fr_nitro_arom_nonortho>  (227) 
0

>  <fr_nitroso>  (227) 
0

>  <fr_oxazole>  (227) 
0

>  <fr_oxime>  (227) 
0

>  <fr_para_hydroxylation>  (227) 
0

>  <fr_phenol>  (227) 
0

>  <fr_phenol_noOrthoHbond>  (227) 
0

>  <fr_phos_acid>  (227) 
0

>  <fr_phos_ester>  (227) 
0

>  <fr_piperdine>  (227) 
0

>  <fr_piperzine>  (227) 
0

>  <fr_priamide>  (227) 
0

>  <fr_prisulfonamd>  (227) 
0

>  <fr_pyridine>  (227) 
1

>  <fr_quatN>  (227) 
0

>  <fr_sulfide>  (227) 
0

>  <fr_sulfonamd>  (227) 
0

>  <fr_sulfone>  (227) 
0

>  <fr_term_acetylene>  (227) 
0

>  <fr_tetrazole>  (227) 
0

>  <fr_thiazole>  (227) 
0

>  <fr_thiocyan>  (227) 
0

>  <fr_thiophene>  (227) 
0

>  <fr_unbrch_alkane>  (227) 
0

>  <fr_urea>  (227) 
0

>  <NP-Likeness>  (227) 
-0.787814

$$$$
NU3
     RDKit          3D

  0  0  0  0  0  0  0  0  0  0999 V3000
M  V30 BEGIN CTAB
M  V30 COUNTS 30 32 0 0 0
M  V30 BEGIN ATOM
M  V30 1 O -3.355318 -4.711730 3.131738 0
M  V30 2 C -2.500846 -3.714353 2.624127 0
M  V30 3 C -2.260324 -2.623492 3.435141 0
M  V30 4 C -1.413731 -1.616744 2.954080 0
M  V30 5 C -0.863312 -1.763887 1.697339 0
M  V30 6 C 0.018897 -0.713619 1.197469 0
M  V30 7 N 0.657840 -0.645292 0.020217 0
M  V30 8 C 1.377035 0.487099 -0.062052 0
M  V30 9 C 2.202322 1.058730 -1.013466 0
M  V30 10 C 2.432791 0.363940 -2.285232 0
M  V30 11 O 3.147134 0.756659 -3.228982 0
M  V30 12 N 1.818446 -0.876849 -2.536907 0
M  V30 13 C 2.840589 2.287079 -0.823451 0
M  V30 14 C 2.584159 2.881225 0.380926 0
M  V30 15 C 1.786914 2.409424 1.394694 0
M  V30 16 C 1.201517 1.189863 1.110955 0
M  V30 17 N 0.359470 0.411296 1.851687 0
M  V30 18 C -1.096666 -2.850081 0.877712 0
M  V30 19 C -1.942236 -3.850117 1.364662 0
M  V30 20 H -4.347435 -4.530472 3.039337 0
M  V30 21 H -2.706909 -2.536743 4.416362 0
M  V30 22 H -1.229987 -0.764780 3.595562 0
M  V30 23 H 2.203414 -1.848484 -2.523693 0
M  V30 24 H 0.903946 -1.285170 -2.792693 0
M  V30 25 H 3.478305 2.717033 -1.572480 0
M  V30 26 H 3.086093 3.848335 0.531676 0
M  V30 27 H 1.638865 2.940115 2.311009 0
M  V30 28 H 0.015391 0.647790 2.807461 0
M  V30 29 H -0.654996 -2.948999 -0.108192 0
M  V30 30 H -2.178493 -4.734914 0.787896 0
M  V30 END ATOM
M  V30 BEGIN BOND
M  V30 1 1 1 2
M  V30 2 2 2 3
M  V30 3 1 3 4
M  V30 4 2 4 5
M  V30 5 1 5 6
M  V30 6 2 6 7
M  V30 7 1 7 8
M  V30 8 2 8 9
M  V30 9 1 9 10
M  V30 10 2 10 11
M  V30 11 1 10 12
M  V30 12 1 9 13
M  V30 13 2 13 14
M  V30 14 1 14 15
M  V30 15 2 15 16
M  V30 16 1 16 17
M  V30 17 1 5 18
M  V30 18 2 18 19
M  V30 19 1 19 2
M  V30 20 1 17 6
M  V30 21 1 16 8
M  V30 22 1 1 20
M  V30 23 1 3 21
M  V30 24 1 4 22
M  V30 25 1 12 23
M  V30 26 1 12 24
M  V30 27 1 13 25
M  V30 28 1 14 26
M  V30 29 1 15 27
M  V30 30 1 17 28
M  V30 31 1 18 29
M  V30 32 1 19 30
M  V30 END BOND
M  V30 END CTAB
M  END
>  <Dataset>  (228) 
PDB

>  <Ligand_Instance>  (228) 
4C35_NU3_A_1351

>  <PDB_ID>  (228) 
4C35

>  <Standardized_SMILES>  (228) 
[H]OC1=C([H])C([H])=C(C2=NC3=C(C(=O)N([H])[H])C([H])=C([H])C([H])=C3N2[H])C([H])=C1[H]

>  <Name>  (228) 
2-(4-hydroxyphenyl)-1H-benzimidazole-4-carboxamide

>  <Pocket>  (228) 
A, B

>  <ATP_Site>  (228) 
1.0

>  <Peripheral>  (228) 
0.0

>  <Num_H_Atoms_ProtBoundConf>  (228) 
11.0

>  <Num_Resolved_Atoms>  (228) 
19.0

>  <Num_Not_Resolved_Atoms>  (228) 
0.0

>  <2D_Mol_H>  (228) 
<rdkit.Chem.rdchem.Mol object at 0x72a238df2ff0>

>  <MW>  (228) 
253.261

>  <HBA>  (228) 
3

>  <HBD>  (228) 
3

>  <LogP>  (228) 
2.0344

>  <NRB>  (228) 
3

>  <TPSA>  (228) 
92.0

>  <Num_Heavy_Atoms>  (228) 
19

>  <Ro5>  (228) 
[True, True, True, True, True, True]

>  <Ro5_Fulfilled>  (228) 
True

>  <Ro3>  (228) 
[True, True, True, True]

>  <Ro3_Fulfilled>  (228) 
True

>  <Fsp3>  (228) 
0.0

>  <Fsp3_0.42>  (228) 
False

>  <Fsp3_0.45>  (228) 
False

>  <Stereogenic_Carbons>  (228) 
0

>  <C_Atoms>  (228) 
14

>  <FCStereo>  (228) 
0.0

>  <SPS>  (228) 
204

>  <nSPS>  (228) 
10.736842

>  <PBF>  (228) 
0.12094

>  <PBF_0.6>  (228) 
False

>  <nPBF>  (228) 
0.006365

>  <nPBF_0.016>  (228) 
False

>  <PMI1>  (228) 
545.824754

>  <PMI2>  (228) 
2709.727636

>  <PMI3>  (228) 
3251.964718

>  <NPR1>  (228) 
0.167845

>  <NPR2>  (228) 
0.833259

>  <Sum_NPR>  (228) 
1.001103

>  <Sum_NPR_1.07>  (228) 
False

>  <Sum_NPR_1.2>  (228) 
False

>  <MaxAbsEStateIndex>  (228) 
11.340611

>  <MaxEStateIndex>  (228) 
11.340611

>  <MinAbsEStateIndex>  (228) 
0.192302

>  <MinEStateIndex>  (228) 
-0.505226

>  <qed>  (228) 
0.652094

>  <MolWt>  (228) 
253.261

>  <HeavyAtomMolWt>  (228) 
242.173

>  <ExactMolWt>  (228) 
253.085127

>  <NumValenceElectrons>  (228) 
94

>  <NumRadicalElectrons>  (228) 
0

>  <MaxPartialCharge>  (228) 
0.250474

>  <MinPartialCharge>  (228) 
-0.507966

>  <MaxAbsPartialCharge>  (228) 
0.507966

>  <MinAbsPartialCharge>  (228) 
0.250474

>  <FpDensityMorgan1>  (228) 
1.157895

>  <FpDensityMorgan2>  (228) 
1.894737

>  <FpDensityMorgan3>  (228) 
2.578947

>  <BCUT2D_MWHI>  (228) 
16.254676

>  <BCUT2D_MWLOW>  (228) 
10.156869

>  <BCUT2D_CHGHI>  (228) 
2.113071

>  <BCUT2D_CHGLO>  (228) 
-1.957364

>  <BCUT2D_LOGPHI>  (228) 
2.23547

>  <BCUT2D_LOGPLOW>  (228) 
-2.10735

>  <BCUT2D_MRHI>  (228) 
6.040911

>  <BCUT2D_MRLOW>  (228) 
0.100147

>  <AvgIpc>  (228) 
2.823013

>  <BalabanJ>  (228) 
2.188042

>  <BertzCT>  (228) 
759.962054

>  <Chi0>  (228) 
13.405413

>  <Chi0n>  (228) 
9.921478

>  <Chi0v>  (228) 
9.921478

>  <Chi1>  (228) 
9.147867

>  <Chi1n>  (228) 
5.729004

>  <Chi1v>  (228) 
5.729004

>  <Chi2n>  (228) 
4.198275

>  <Chi2v>  (228) 
4.198275

>  <Chi3n>  (228) 
2.918902

>  <Chi3v>  (228) 
2.918902

>  <Chi4n>  (228) 
1.986998

>  <Chi4v>  (228) 
1.986998

>  <HallKierAlpha>  (228) 
-2.82

>  <Ipc>  (228) 
34531.092749

>  <Kappa1>  (228) 
11.280655

>  <Kappa2>  (228) 
4.131667

>  <Kappa3>  (228) 
1.907585

>  <LabuteASA>  (228) 
108.259559

>  <PEOE_VSA1>  (228) 
15.824173

>  <PEOE_VSA10>  (228) 
17.090617

>  <PEOE_VSA11>  (228) 
0.0

>  <PEOE_VSA12>  (228) 
0.0

>  <PEOE_VSA13>  (228) 
5.90718

>  <PEOE_VSA14>  (228) 
0.0

>  <PEOE_VSA2>  (228) 
4.794537

>  <PEOE_VSA3>  (228) 
4.983979

>  <PEOE_VSA4>  (228) 
0.0

>  <PEOE_VSA5>  (228) 
0.0

>  <PEOE_VSA6>  (228) 
6.066367

>  <PEOE_VSA7>  (228) 
36.398202

>  <PEOE_VSA8>  (228) 
5.563451

>  <PEOE_VSA9>  (228) 
11.080152

>  <SMR_VSA1>  (228) 
9.901065

>  <SMR_VSA10>  (228) 
16.940581

>  <SMR_VSA2>  (228) 
0.0

>  <SMR_VSA3>  (228) 
9.967957

>  <SMR_VSA4>  (228) 
5.733667

>  <SMR_VSA5>  (228) 
0.0

>  <SMR_VSA6>  (228) 
0.0

>  <SMR_VSA7>  (228) 
48.028021

>  <SMR_VSA8>  (228) 
0.0

>  <SMR_VSA9>  (228) 
17.137368

>  <SlogP_VSA1>  (228) 
5.733667

>  <SlogP_VSA10>  (228) 
0.0

>  <SlogP_VSA11>  (228) 
5.749512

>  <SlogP_VSA12>  (228) 
0.0

>  <SlogP_VSA2>  (228) 
20.981664

>  <SlogP_VSA3>  (228) 
0.0

>  <SlogP_VSA4>  (228) 
0.0

>  <SlogP_VSA5>  (228) 
10.357989

>  <SlogP_VSA6>  (228) 
42.464569

>  <SlogP_VSA7>  (228) 
0.0

>  <SlogP_VSA8>  (228) 
22.421257

>  <SlogP_VSA9>  (228) 
0.0

>  <EState_VSA1>  (228) 
5.90718

>  <EState_VSA10>  (228) 
9.901065

>  <EState_VSA11>  (228) 
0.0

>  <EState_VSA2>  (228) 
5.749512

>  <EState_VSA3>  (228) 
16.904557

>  <EState_VSA4>  (228) 
11.080152

>  <EState_VSA5>  (228) 
0.0

>  <EState_VSA6>  (228) 
36.398202

>  <EState_VSA7>  (228) 
6.066367

>  <EState_VSA8>  (228) 
9.967957

>  <EState_VSA9>  (228) 
5.733667

>  <VSA_EState1>  (228) 
0.0

>  <VSA_EState10>  (228) 
0.0

>  <VSA_EState2>  (228) 
18.862495

>  <VSA_EState3>  (228) 
9.268474

>  <VSA_EState4>  (228) 
7.836259

>  <VSA_EState5>  (228) 
0.315502

>  <VSA_EState6>  (228) 
11.883937

>  <VSA_EState7>  (228) 
0.0

>  <VSA_EState8>  (228) 
0.0

>  <VSA_EState9>  (228) 
0.0

>  <FractionCSP3>  (228) 
0.0

>  <HeavyAtomCount>  (228) 
19

>  <NHOHCount>  (228) 
4

>  <NOCount>  (228) 
5

>  <NumAliphaticCarbocycles>  (228) 
0

>  <NumAliphaticHeterocycles>  (228) 
0

>  <NumAliphaticRings>  (228) 
0

>  <NumAromaticCarbocycles>  (228) 
2

>  <NumAromaticHeterocycles>  (228) 
1

>  <NAR>  (228) 
3

>  <NumHAcceptors>  (228) 
3

>  <NumHDonors>  (228) 
3

>  <NumHeteroatoms>  (228) 
5

>  <NumRotatableBonds>  (228) 
2

>  <NumSaturatedCarbocycles>  (228) 
0

>  <NumSaturatedHeterocycles>  (228) 
0

>  <NumSaturatedRings>  (228) 
0

>  <RingCount>  (228) 
3

>  <MolLogP>  (228) 
2.0344

>  <MolMR>  (228) 
71.7124

>  <fr_Al_COO>  (228) 
0

>  <fr_Al_OH>  (228) 
0

>  <fr_Al_OH_noTert>  (228) 
0

>  <fr_ArN>  (228) 
0

>  <fr_Ar_COO>  (228) 
0

>  <fr_Ar_N>  (228) 
2

>  <fr_Ar_NH>  (228) 
1

>  <fr_Ar_OH>  (228) 
1

>  <fr_COO>  (228) 
0

>  <fr_COO2>  (228) 
0

>  <fr_C_O>  (228) 
1

>  <fr_C_O_noCOO>  (228) 
1

>  <fr_C_S>  (228) 
0

>  <fr_HOCCN>  (228) 
0

>  <fr_Imine>  (228) 
0

>  <fr_NH0>  (228) 
1

>  <fr_NH1>  (228) 
1

>  <fr_NH2>  (228) 
1

>  <fr_N_O>  (228) 
0

>  <fr_Ndealkylation1>  (228) 
0

>  <fr_Ndealkylation2>  (228) 
0

>  <fr_Nhpyrrole>  (228) 
1

>  <fr_SH>  (228) 
0

>  <fr_aldehyde>  (228) 
0

>  <fr_alkyl_carbamate>  (228) 
0

>  <fr_alkyl_halide>  (228) 
0

>  <fr_allylic_oxid>  (228) 
0

>  <fr_amide>  (228) 
1

>  <fr_amidine>  (228) 
0

>  <fr_aniline>  (228) 
0

>  <fr_aryl_methyl>  (228) 
0

>  <fr_azide>  (228) 
0

>  <fr_azo>  (228) 
0

>  <fr_barbitur>  (228) 
0

>  <fr_benzene>  (228) 
2

>  <fr_benzodiazepine>  (228) 
0

>  <fr_bicyclic>  (228) 
1

>  <fr_diazo>  (228) 
0

>  <fr_dihydropyridine>  (228) 
0

>  <fr_epoxide>  (228) 
0

>  <fr_ester>  (228) 
0

>  <fr_ether>  (228) 
0

>  <fr_furan>  (228) 
0

>  <fr_guanido>  (228) 
0

>  <fr_halogen>  (228) 
0

>  <fr_hdrzine>  (228) 
0

>  <fr_hdrzone>  (228) 
0

>  <fr_imidazole>  (228) 
1

>  <fr_imide>  (228) 
0

>  <fr_isocyan>  (228) 
0

>  <fr_isothiocyan>  (228) 
0

>  <fr_ketone>  (228) 
0

>  <fr_ketone_Topliss>  (228) 
0

>  <fr_lactam>  (228) 
0

>  <fr_lactone>  (228) 
0

>  <fr_methoxy>  (228) 
0

>  <fr_morpholine>  (228) 
0

>  <fr_nitrile>  (228) 
0

>  <fr_nitro>  (228) 
0

>  <fr_nitro_arom>  (228) 
0

>  <fr_nitro_arom_nonortho>  (228) 
0

>  <fr_nitroso>  (228) 
0

>  <fr_oxazole>  (228) 
0

>  <fr_oxime>  (228) 
0

>  <fr_para_hydroxylation>  (228) 
1

>  <fr_phenol>  (228) 
1

>  <fr_phenol_noOrthoHbond>  (228) 
1

>  <fr_phos_acid>  (228) 
0

>  <fr_phos_ester>  (228) 
0

>  <fr_piperdine>  (228) 
0

>  <fr_piperzine>  (228) 
0

>  <fr_priamide>  (228) 
1

>  <fr_prisulfonamd>  (228) 
0

>  <fr_pyridine>  (228) 
0

>  <fr_quatN>  (228) 
0

>  <fr_sulfide>  (228) 
0

>  <fr_sulfonamd>  (228) 
0

>  <fr_sulfone>  (228) 
0

>  <fr_term_acetylene>  (228) 
0

>  <fr_tetrazole>  (228) 
0

>  <fr_thiazole>  (228) 
0

>  <fr_thiocyan>  (228) 
0

>  <fr_thiophene>  (228) 
0

>  <fr_unbrch_alkane>  (228) 
0

>  <fr_urea>  (228) 
0

>  <NP-Likeness>  (228) 
-0.414792

$$$$
NVV
     RDKit          3D

  0  0  0  0  0  0  0  0  0  0999 V3000
M  V30 BEGIN CTAB
M  V30 COUNTS 42 45 0 0 0
M  V30 BEGIN ATOM
M  V30 1 C -5.046879 -1.743108 0.712734 0
M  V30 2 N -3.754263 -1.756864 1.102184 0
M  V30 3 C -2.970296 -0.672903 0.957452 0
M  V30 4 C -1.652270 -0.700507 1.360607 0
M  V30 5 C -0.833663 0.399712 1.221876 0
M  V30 6 C 0.612184 0.458001 1.639566 0 CFG=1
M  V30 7 C 0.749972 0.393419 3.137462 0
M  V30 8 N 1.060038 -0.966353 3.424556 0 CHG=1 VAL=4
M  V30 9 C 1.799961 -1.471539 2.309060 0
M  V30 10 C 1.405755 -0.679572 1.103994 0 CFG=2
M  V30 11 C 2.561707 -0.111655 0.357725 0
M  V30 12 O 2.633910 1.164338 0.343916 0
M  V30 13 C 3.563613 -0.919276 -0.323701 0
M  V30 14 C 3.602477 -2.294175 -0.386824 0
M  V30 15 C 4.568143 -3.012640 -1.041918 0
M  V30 16 C 5.575909 -2.299245 -1.685677 0
M  V30 17 C 5.594273 -0.912826 -1.659982 0
M  V30 18 I 7.113407 0.176778 -2.629795 0
M  V30 19 C 4.590554 -0.275531 -0.982040 0
M  V30 20 C -1.447318 1.519317 0.648559 0
M  V30 21 C -2.759290 1.590519 0.232097 0
M  V30 22 C -3.528757 0.457969 0.396916 0
M  V30 23 C -4.853531 0.452003 0.004798 0
M  V30 24 O -5.379544 1.483995 -0.511500 0
M  V30 25 N -5.634708 -0.647413 0.155818 0
M  V30 26 H -5.711266 -2.587681 0.809384 0
M  V30 27 H -1.238836 -1.580313 1.788350 0
M  V30 28 H 0.995320 1.449086 1.298197 0
M  V30 29 H 1.620011 1.025060 3.421328 0
M  V30 30 H -0.186903 0.744759 3.640217 0
M  V30 31 H 0.210209 -1.541648 3.680829 0
M  V30 32 H 1.634409 -1.007910 4.325961 0
M  V30 33 H 2.898293 -1.332790 2.530399 0
M  V30 34 H 1.597467 -2.565940 2.163758 0
M  V30 35 H 0.797592 -1.336017 0.419779 0
M  V30 36 H 2.809124 -2.825722 0.119733 0
M  V30 37 H 4.522112 -4.110445 -1.041588 0
M  V30 38 H 6.350534 -2.852069 -2.210692 0
M  V30 39 H 4.623253 0.824546 -0.974346 0
M  V30 40 H -0.849802 2.398126 0.520553 0
M  V30 41 H -3.144340 2.503605 -0.200869 0
M  V30 42 H -6.633671 -0.629640 -0.147164 0
M  V30 END ATOM
M  V30 BEGIN BOND
M  V30 1 2 1 2
M  V30 2 1 2 3
M  V30 3 2 3 4
M  V30 4 1 4 5
M  V30 5 1 5 6
M  V30 6 1 6 7
M  V30 7 1 7 8
M  V30 8 1 8 9
M  V30 9 1 9 10
M  V30 10 1 10 11
M  V30 11 2 11 12
M  V30 12 1 11 13
M  V30 13 2 13 14
M  V30 14 1 14 15
M  V30 15 2 15 16
M  V30 16 1 16 17
M  V30 17 1 17 18
M  V30 18 2 17 19
M  V30 19 2 5 20
M  V30 20 1 20 21
M  V30 21 2 21 22
M  V30 22 1 22 23
M  V30 23 2 23 24
M  V30 24 1 23 25
M  V30 25 1 25 1
M  V30 26 1 22 3
M  V30 27 1 10 6
M  V30 28 1 19 13
M  V30 29 1 1 26
M  V30 30 1 4 27
M  V30 31 1 6 28 CFG=3
M  V30 32 1 7 29
M  V30 33 1 7 30
M  V30 34 1 8 31
M  V30 35 1 8 32
M  V30 36 1 9 33
M  V30 37 1 9 34
M  V30 38 1 10 35 CFG=3
M  V30 39 1 14 36
M  V30 40 1 15 37
M  V30 41 1 16 38
M  V30 42 1 19 39
M  V30 43 1 20 40
M  V30 44 1 21 41
M  V30 45 1 25 42
M  V30 END BOND
M  V30 END CTAB
M  END
>  <Dataset>  (229) 
PDB

>  <Ligand_Instance>  (229) 
4UJ2_NVV_A_1351

>  <PDB_ID>  (229) 
4UJ2

>  <Standardized_SMILES>  (229) 
[H]C1=NC2=C([H])C([C@@]3([H])C([H])([H])[N+]([H])([H])C([H])([H])[C@]3([H])C(=O)C3=C([H])C([H])=C([H])C(I)=C3[H])=C([H])C([H])=C2C(=O)N1[H]

>  <Name>  (229) 
7-[(3S,4R)-4-(3-iodanylphenyl)carbonylpyrrolidin-3-yl]-3H-quinazolin-4-one

>  <Pocket>  (229) 
A

>  <ATP_Site>  (229) 
1.0

>  <Peripheral>  (229) 
0.0

>  <Num_H_Atoms_ProtBoundConf>  (229) 
17.0

>  <Num_Resolved_Atoms>  (229) 
25.0

>  <Num_Not_Resolved_Atoms>  (229) 
0.0

>  <2D_Mol_H>  (229) 
<rdkit.Chem.rdchem.Mol object at 0x72a238df30d0>

>  <MW>  (229) 
446.268

>  <HBA>  (229) 
3

>  <HBD>  (229) 
2

>  <LogP>  (229) 
1.6874

>  <NRB>  (229) 
3

>  <TPSA>  (229) 
79.43

>  <Num_Heavy_Atoms>  (229) 
25

>  <Ro5>  (229) 
[True, True, True, True, True, True]

>  <Ro5_Fulfilled>  (229) 
True

>  <Ro3>  (229) 
[False, True, True, True]

>  <Ro3_Fulfilled>  (229) 
True

>  <Fsp3>  (229) 
0.210526

>  <Fsp3_0.42>  (229) 
False

>  <Fsp3_0.45>  (229) 
False

>  <Stereogenic_Carbons>  (229) 
2

>  <C_Atoms>  (229) 
19

>  <FCStereo>  (229) 
0.105263

>  <SPS>  (229) 
501

>  <nSPS>  (229) 
20.04

>  <PBF>  (229) 
1.273637

>  <PBF_0.6>  (229) 
True

>  <nPBF>  (229) 
0.050945

>  <nPBF_0.016>  (229) 
True

>  <PMI1>  (229) 
1321.411295

>  <PMI2>  (229) 
10016.374894

>  <PMI3>  (229) 
10354.585174

>  <NPR1>  (229) 
0.127616

>  <NPR2>  (229) 
0.967337

>  <Sum_NPR>  (229) 
1.094953

>  <Sum_NPR_1.07>  (229) 
True

>  <Sum_NPR_1.2>  (229) 
False

>  <MaxAbsEStateIndex>  (229) 
13.006651

>  <MaxEStateIndex>  (229) 
13.006651

>  <MinAbsEStateIndex>  (229) 
0.057735

>  <MinEStateIndex>  (229) 
-0.137943

>  <qed>  (229) 
0.475032

>  <MolWt>  (229) 
446.268

>  <HeavyAtomMolWt>  (229) 
429.132

>  <ExactMolWt>  (229) 
446.036001

>  <NumValenceElectrons>  (229) 
126

>  <NumRadicalElectrons>  (229) 
0

>  <MaxPartialCharge>  (229) 
0.258052

>  <MinPartialCharge>  (229) 
-0.345089

>  <MaxAbsPartialCharge>  (229) 
0.345089

>  <MinAbsPartialCharge>  (229) 
0.258052

>  <FpDensityMorgan1>  (229) 
1.2

>  <FpDensityMorgan2>  (229) 
2.08

>  <FpDensityMorgan3>  (229) 
2.92

>  <BCUT2D_MWHI>  (229) 
126.912704

>  <BCUT2D_MWLOW>  (229) 
9.833772

>  <BCUT2D_CHGHI>  (229) 
2.373644

>  <BCUT2D_CHGLO>  (229) 
-2.156853

>  <BCUT2D_LOGPHI>  (229) 
2.294726

>  <BCUT2D_LOGPLOW>  (229) 
-2.813073

>  <BCUT2D_MRHI>  (229) 
14.111918

>  <BCUT2D_MRLOW>  (229) 
-0.637601

>  <AvgIpc>  (229) 
3.105067

>  <BalabanJ>  (229) 
1.696008

>  <BertzCT>  (229) 
1014.72188

>  <Chi0>  (229) 
17.388541

>  <Chi0n>  (229) 
13.406741

>  <Chi0v>  (229) 
15.564239

>  <Chi1>  (229) 
12.13103

>  <Chi1n>  (229) 
8.220789

>  <Chi1v>  (229) 
9.299538

>  <Chi2n>  (229) 
6.355911

>  <Chi2v>  (229) 
7.601543

>  <Chi3n>  (229) 
4.866654

>  <Chi3v>  (229) 
5.537646

>  <Chi4n>  (229) 
3.614172

>  <Chi4v>  (229) 
4.157272

>  <HallKierAlpha>  (229) 
-2.06

>  <Ipc>  (229) 
901050.141588

>  <Kappa1>  (229) 
16.410685

>  <Kappa2>  (229) 
6.683367

>  <Kappa3>  (229) 
3.112569

>  <LabuteASA>  (229) 
157.563082

>  <PEOE_VSA1>  (229) 
10.300767

>  <PEOE_VSA10>  (229) 
0.0

>  <PEOE_VSA11>  (229) 
5.783245

>  <PEOE_VSA12>  (229) 
0.0

>  <PEOE_VSA13>  (229) 
5.559267

>  <PEOE_VSA14>  (229) 
0.0

>  <PEOE_VSA2>  (229) 
9.589074

>  <PEOE_VSA3>  (229) 
4.983979

>  <PEOE_VSA4>  (229) 
0.0

>  <PEOE_VSA5>  (229) 
0.0

>  <PEOE_VSA6>  (229) 
18.199101

>  <PEOE_VSA7>  (229) 
52.41979

>  <PEOE_VSA8>  (229) 
15.05154

>  <PEOE_VSA9>  (229) 
36.237664

>  <SMR_VSA1>  (229) 
10.111326

>  <SMR_VSA10>  (229) 
39.277041

>  <SMR_VSA2>  (229) 
0.0

>  <SMR_VSA3>  (229) 
9.967957

>  <SMR_VSA4>  (229) 
5.917906

>  <SMR_VSA5>  (229) 
5.917906

>  <SMR_VSA6>  (229) 
13.089513

>  <SMR_VSA7>  (229) 
73.842779

>  <SMR_VSA8>  (229) 
0.0

>  <SMR_VSA9>  (229) 
0.0

>  <SlogP_VSA1>  (229) 
10.876055

>  <SlogP_VSA10>  (229) 
0.0

>  <SlogP_VSA11>  (229) 
0.0

>  <SlogP_VSA12>  (229) 
22.590871

>  <SlogP_VSA2>  (229) 
28.840715

>  <SlogP_VSA3>  (229) 
0.0

>  <SlogP_VSA4>  (229) 
9.488088

>  <SlogP_VSA5>  (229) 
21.839346

>  <SlogP_VSA6>  (229) 
53.586427

>  <SlogP_VSA7>  (229) 
0.0

>  <SlogP_VSA8>  (229) 
10.902925

>  <SlogP_VSA9>  (229) 
0.0

>  <EState_VSA1>  (229) 
0.0

>  <EState_VSA10>  (229) 
9.589074

>  <EState_VSA11>  (229) 
0.0

>  <EState_VSA2>  (229) 
23.178324

>  <EState_VSA3>  (229) 
10.902925

>  <EState_VSA4>  (229) 
27.786598

>  <EState_VSA5>  (229) 
6.32732

>  <EState_VSA6>  (229) 
0.0

>  <EState_VSA7>  (229) 
42.464569

>  <EState_VSA8>  (229) 
37.875616

>  <EState_VSA9>  (229) 
0.0

>  <VSA_EState1>  (229) 
1.06584

>  <VSA_EState10>  (229) 
2.230444

>  <VSA_EState2>  (229) 
31.702313

>  <VSA_EState3>  (229) 
2.768552

>  <VSA_EState4>  (229) 
2.380108

>  <VSA_EState5>  (229) 
0.268271

>  <VSA_EState6>  (229) 
13.459827

>  <VSA_EState7>  (229) 
1.420398

>  <VSA_EState8>  (229) 
1.657581

>  <VSA_EState9>  (229) 
0.0

>  <FractionCSP3>  (229) 
0.210526

>  <HeavyAtomCount>  (229) 
25

>  <NHOHCount>  (229) 
3

>  <NOCount>  (229) 
5

>  <NumAliphaticCarbocycles>  (229) 
0

>  <NumAliphaticHeterocycles>  (229) 
1

>  <NumAliphaticRings>  (229) 
1

>  <NumAromaticCarbocycles>  (229) 
2

>  <NumAromaticHeterocycles>  (229) 
1

>  <NAR>  (229) 
3

>  <NumHAcceptors>  (229) 
3

>  <NumHDonors>  (229) 
2

>  <NumHeteroatoms>  (229) 
6

>  <NumRotatableBonds>  (229) 
3

>  <NumSaturatedCarbocycles>  (229) 
0

>  <NumSaturatedHeterocycles>  (229) 
1

>  <NumSaturatedRings>  (229) 
1

>  <RingCount>  (229) 
4

>  <MolLogP>  (229) 
1.6874

>  <MolMR>  (229) 
103.7436

>  <fr_Al_COO>  (229) 
0

>  <fr_Al_OH>  (229) 
0

>  <fr_Al_OH_noTert>  (229) 
0

>  <fr_ArN>  (229) 
0

>  <fr_Ar_COO>  (229) 
0

>  <fr_Ar_N>  (229) 
2

>  <fr_Ar_NH>  (229) 
1

>  <fr_Ar_OH>  (229) 
0

>  <fr_COO>  (229) 
0

>  <fr_COO2>  (229) 
0

>  <fr_C_O>  (229) 
1

>  <fr_C_O_noCOO>  (229) 
1

>  <fr_C_S>  (229) 
0

>  <fr_HOCCN>  (229) 
0

>  <fr_Imine>  (229) 
0

>  <fr_NH0>  (229) 
1

>  <fr_NH1>  (229) 
1

>  <fr_NH2>  (229) 
1

>  <fr_N_O>  (229) 
0

>  <fr_Ndealkylation1>  (229) 
0

>  <fr_Ndealkylation2>  (229) 
0

>  <fr_Nhpyrrole>  (229) 
1

>  <fr_SH>  (229) 
0

>  <fr_aldehyde>  (229) 
0

>  <fr_alkyl_carbamate>  (229) 
0

>  <fr_alkyl_halide>  (229) 
0

>  <fr_allylic_oxid>  (229) 
0

>  <fr_amide>  (229) 
0

>  <fr_amidine>  (229) 
0

>  <fr_aniline>  (229) 
0

>  <fr_aryl_methyl>  (229) 
0

>  <fr_azide>  (229) 
0

>  <fr_azo>  (229) 
0

>  <fr_barbitur>  (229) 
0

>  <fr_benzene>  (229) 
2

>  <fr_benzodiazepine>  (229) 
0

>  <fr_bicyclic>  (229) 
1

>  <fr_diazo>  (229) 
0

>  <fr_dihydropyridine>  (229) 
0

>  <fr_epoxide>  (229) 
0

>  <fr_ester>  (229) 
0

>  <fr_ether>  (229) 
0

>  <fr_furan>  (229) 
0

>  <fr_guanido>  (229) 
0

>  <fr_halogen>  (229) 
1

>  <fr_hdrzine>  (229) 
0

>  <fr_hdrzone>  (229) 
0

>  <fr_imidazole>  (229) 
0

>  <fr_imide>  (229) 
0

>  <fr_isocyan>  (229) 
0

>  <fr_isothiocyan>  (229) 
0

>  <fr_ketone>  (229) 
1

>  <fr_ketone_Topliss>  (229) 
1

>  <fr_lactam>  (229) 
0

>  <fr_lactone>  (229) 
0

>  <fr_methoxy>  (229) 
0

>  <fr_morpholine>  (229) 
0

>  <fr_nitrile>  (229) 
0

>  <fr_nitro>  (229) 
0

>  <fr_nitro_arom>  (229) 
0

>  <fr_nitro_arom_nonortho>  (229) 
0

>  <fr_nitroso>  (229) 
0

>  <fr_oxazole>  (229) 
0

>  <fr_oxime>  (229) 
0

>  <fr_para_hydroxylation>  (229) 
0

>  <fr_phenol>  (229) 
0

>  <fr_phenol_noOrthoHbond>  (229) 
0

>  <fr_phos_acid>  (229) 
0

>  <fr_phos_ester>  (229) 
0

>  <fr_piperdine>  (229) 
0

>  <fr_piperzine>  (229) 
0

>  <fr_priamide>  (229) 
0

>  <fr_prisulfonamd>  (229) 
0

>  <fr_pyridine>  (229) 
0

>  <fr_quatN>  (229) 
1

>  <fr_sulfide>  (229) 
0

>  <fr_sulfonamd>  (229) 
0

>  <fr_sulfone>  (229) 
0

>  <fr_term_acetylene>  (229) 
0

>  <fr_tetrazole>  (229) 
0

>  <fr_thiazole>  (229) 
0

>  <fr_thiocyan>  (229) 
0

>  <fr_thiophene>  (229) 
0

>  <fr_unbrch_alkane>  (229) 
0

>  <fr_urea>  (229) 
0

>  <NP-Likeness>  (229) 
-0.652532

$$$$
NVX
     RDKit          3D

  0  0  0  0  0  0  0  0  0  0999 V3000
M  V30 BEGIN CTAB
M  V30 COUNTS 42 45 0 0 0
M  V30 BEGIN ATOM
M  V30 1 C -4.975832 -3.064031 0.326970 0
M  V30 2 N -3.654206 -3.033288 0.003027 0
M  V30 3 C -2.982853 -1.892902 0.050920 0
M  V30 4 C -1.623568 -1.772629 -0.265471 0
M  V30 5 C -0.932305 -0.552353 -0.207443 0
M  V30 6 C 0.503740 -0.664290 -0.591566 0 CFG=1
M  V30 7 C 0.953764 0.355793 -1.589806 0
M  V30 8 N 1.334517 1.512294 -0.853169 0 CHG=1 VAL=4
M  V30 9 C 1.629297 1.097113 0.491777 0
M  V30 10 C 1.353270 -0.373410 0.608512 0 CFG=2
M  V30 11 C 2.683735 -1.061175 0.506880 0
M  V30 12 O 3.020972 -1.756334 -0.485751 0
M  V30 13 C 3.662509 -0.949441 1.579342 0
M  V30 14 C 4.875422 -1.590247 1.433408 0
M  V30 15 C 5.869343 -1.535443 2.417899 0
M  V30 16 C 5.659810 -0.826476 3.582141 0
M  V30 17 C 4.453707 -0.184771 3.735936 0
M  V30 18 Cl 4.199621 0.705421 5.205769 0
M  V30 19 C 3.487579 -0.250917 2.754562 0
M  V30 20 C -1.687133 0.515134 0.182346 0
M  V30 21 C -3.006893 0.424435 0.494539 0
M  V30 22 C -3.685297 -0.774628 0.437406 0
M  V30 23 C -5.022206 -0.801911 0.765820 0
M  V30 24 O -5.660007 0.218458 1.117689 0
M  V30 25 N -5.680449 -1.979443 0.707636 0
M  V30 26 H -5.513246 -4.013960 0.281618 0
M  V30 27 H -1.198962 -2.723953 -0.551001 0
M  V30 28 H 0.702555 -1.713485 -0.970412 0
M  V30 29 H 1.820661 -0.104232 -2.136359 0
M  V30 30 H 0.196768 0.555614 -2.378017 0
M  V30 31 H 0.708010 2.337444 -0.930920 0
M  V30 32 H 2.255767 1.857361 -1.277534 0
M  V30 33 H 2.679311 1.350455 0.784254 0
M  V30 34 H 0.965977 1.617962 1.240672 0
M  V30 35 H 0.849116 -0.637847 1.564156 0
M  V30 36 H 5.130872 -2.164262 0.566823 0
M  V30 37 H 6.821194 -2.056934 2.267921 0
M  V30 38 H 6.463737 -0.821158 4.304087 0
M  V30 39 H 2.557273 0.257171 2.903012 0
M  V30 40 H -1.154584 1.435987 0.220328 0
M  V30 41 H -3.489630 1.348980 0.789578 0
M  V30 42 H -6.706465 -2.082648 0.944136 0
M  V30 END ATOM
M  V30 BEGIN BOND
M  V30 1 2 1 2
M  V30 2 1 2 3
M  V30 3 2 3 4
M  V30 4 1 4 5
M  V30 5 1 5 6
M  V30 6 1 6 7
M  V30 7 1 7 8
M  V30 8 1 8 9
M  V30 9 1 9 10
M  V30 10 1 10 11
M  V30 11 2 11 12
M  V30 12 1 11 13
M  V30 13 2 13 14
M  V30 14 1 14 15
M  V30 15 2 15 16
M  V30 16 1 16 17
M  V30 17 1 17 18
M  V30 18 2 17 19
M  V30 19 2 5 20
M  V30 20 1 20 21
M  V30 21 2 21 22
M  V30 22 1 22 23
M  V30 23 2 23 24
M  V30 24 1 23 25
M  V30 25 1 25 1
M  V30 26 1 22 3
M  V30 27 1 10 6
M  V30 28 1 19 13
M  V30 29 1 1 26
M  V30 30 1 4 27
M  V30 31 1 6 28 CFG=3
M  V30 32 1 7 29
M  V30 33 1 7 30
M  V30 34 1 8 31
M  V30 35 1 8 32
M  V30 36 1 9 33
M  V30 37 1 9 34
M  V30 38 1 10 35 CFG=1
M  V30 39 1 14 36
M  V30 40 1 15 37
M  V30 41 1 16 38
M  V30 42 1 19 39
M  V30 43 1 20 40
M  V30 44 1 21 41
M  V30 45 1 25 42
M  V30 END BOND
M  V30 END CTAB
M  END
>  <Dataset>  (230) 
PDB

>  <Ligand_Instance>  (230) 
4UJ1_NVX_A_1351

>  <PDB_ID>  (230) 
4UJ1

>  <Standardized_SMILES>  (230) 
[H]C1=NC2=C([H])C([C@@]3([H])C([H])([H])[N+]([H])([H])C([H])([H])[C@]3([H])C(=O)C3=C([H])C([H])=C([H])C(Cl)=C3[H])=C([H])C([H])=C2C(=O)N1[H]

>  <Name>  (230) 
7-[(3S,4R)-4-(3-chlorophenyl)carbonylpyrrolidin-3-yl]-3H-quinazolin-4-one

>  <Pocket>  (230) 
A

>  <ATP_Site>  (230) 
1.0

>  <Peripheral>  (230) 
0.0

>  <Num_H_Atoms_ProtBoundConf>  (230) 
17.0

>  <Num_Resolved_Atoms>  (230) 
25.0

>  <Num_Not_Resolved_Atoms>  (230) 
0.0

>  <2D_Mol_H>  (230) 
<rdkit.Chem.rdchem.Mol object at 0x72a238df31b0>

>  <MW>  (230) 
354.817

>  <HBA>  (230) 
3

>  <HBD>  (230) 
2

>  <LogP>  (230) 
1.7362

>  <NRB>  (230) 
3

>  <TPSA>  (230) 
79.43

>  <Num_Heavy_Atoms>  (230) 
25

>  <Ro5>  (230) 
[True, True, True, True, True, True]

>  <Ro5_Fulfilled>  (230) 
True

>  <Ro3>  (230) 
[False, True, True, True]

>  <Ro3_Fulfilled>  (230) 
True

>  <Fsp3>  (230) 
0.210526

>  <Fsp3_0.42>  (230) 
False

>  <Fsp3_0.45>  (230) 
False

>  <Stereogenic_Carbons>  (230) 
2

>  <C_Atoms>  (230) 
19

>  <FCStereo>  (230) 
0.105263

>  <SPS>  (230) 
501

>  <nSPS>  (230) 
20.04

>  <PBF>  (230) 
1.146781

>  <PBF_0.6>  (230) 
True

>  <nPBF>  (230) 
0.045871

>  <nPBF_0.016>  (230) 
True

>  <PMI1>  (230) 
1308.985609

>  <PMI2>  (230) 
5870.329871

>  <PMI3>  (230) 
6216.737997

>  <NPR1>  (230) 
0.210558

>  <NPR2>  (230) 
0.944278

>  <Sum_NPR>  (230) 
1.154836

>  <Sum_NPR_1.07>  (230) 
True

>  <Sum_NPR_1.2>  (230) 
False

>  <MaxAbsEStateIndex>  (230) 
12.951342

>  <MaxEStateIndex>  (230) 
12.951342

>  <MinAbsEStateIndex>  (230) 
0.094416

>  <MinEStateIndex>  (230) 
-0.15177

>  <qed>  (230) 
0.703

>  <MolWt>  (230) 
354.817

>  <HeavyAtomMolWt>  (230) 
337.681

>  <ExactMolWt>  (230) 
354.100381

>  <NumValenceElectrons>  (230) 
126

>  <NumRadicalElectrons>  (230) 
0

>  <MaxPartialCharge>  (230) 
0.258052

>  <MinPartialCharge>  (230) 
-0.345089

>  <MaxAbsPartialCharge>  (230) 
0.345089

>  <MinAbsPartialCharge>  (230) 
0.258052

>  <FpDensityMorgan1>  (230) 
1.2

>  <FpDensityMorgan2>  (230) 
2.08

>  <FpDensityMorgan3>  (230) 
2.92

>  <BCUT2D_MWHI>  (230) 
35.495692

>  <BCUT2D_MWLOW>  (230) 
9.833661

>  <BCUT2D_CHGHI>  (230) 
2.37378

>  <BCUT2D_CHGLO>  (230) 
-2.156539

>  <BCUT2D_LOGPHI>  (230) 
2.296717

>  <BCUT2D_LOGPLOW>  (230) 
-2.813071

>  <BCUT2D_MRHI>  (230) 
6.305385

>  <BCUT2D_MRLOW>  (230) 
-0.637601

>  <AvgIpc>  (230) 
3.105067

>  <BalabanJ>  (230) 
1.696008

>  <BertzCT>  (230) 
1014.72188

>  <Chi0>  (230) 
17.388541

>  <Chi0n>  (230) 
13.406741

>  <Chi0v>  (230) 
14.16267

>  <Chi1>  (230) 
12.13103

>  <Chi1n>  (230) 
8.220789

>  <Chi1v>  (230) 
8.598754

>  <Chi2n>  (230) 
6.355911

>  <Chi2v>  (230) 
6.792347

>  <Chi3n>  (230) 
4.866654

>  <Chi3v>  (230) 
5.101752

>  <Chi4n>  (230) 
3.614172

>  <Chi4v>  (230) 
3.804459

>  <HallKierAlpha>  (230) 
-2.5

>  <Ipc>  (230) 
901050.141588

>  <Kappa1>  (230) 
15.99481

>  <Kappa2>  (230) 
6.425156

>  <Kappa3>  (230) 
2.966122

>  <LabuteASA>  (230) 
148.60451

>  <PEOE_VSA1>  (230) 
10.300767

>  <PEOE_VSA10>  (230) 
0.0

>  <PEOE_VSA11>  (230) 
5.783245

>  <PEOE_VSA12>  (230) 
0.0

>  <PEOE_VSA13>  (230) 
5.559267

>  <PEOE_VSA14>  (230) 
0.0

>  <PEOE_VSA2>  (230) 
9.589074

>  <PEOE_VSA3>  (230) 
4.983979

>  <PEOE_VSA4>  (230) 
0.0

>  <PEOE_VSA5>  (230) 
0.0

>  <PEOE_VSA6>  (230) 
29.800041

>  <PEOE_VSA7>  (230) 
29.82892

>  <PEOE_VSA8>  (230) 
16.503991

>  <PEOE_VSA9>  (230) 
36.237664

>  <SMR_VSA1>  (230) 
10.111326

>  <SMR_VSA10>  (230) 
28.28711

>  <SMR_VSA2>  (230) 
0.0

>  <SMR_VSA3>  (230) 
9.967957

>  <SMR_VSA4>  (230) 
5.917906

>  <SMR_VSA5>  (230) 
5.917906

>  <SMR_VSA6>  (230) 
13.089513

>  <SMR_VSA7>  (230) 
75.29523

>  <SMR_VSA8>  (230) 
0.0

>  <SMR_VSA9>  (230) 
0.0

>  <SlogP_VSA1>  (230) 
10.876055

>  <SlogP_VSA10>  (230) 
0.0

>  <SlogP_VSA11>  (230) 
0.0

>  <SlogP_VSA12>  (230) 
11.60094

>  <SlogP_VSA2>  (230) 
28.840715

>  <SlogP_VSA3>  (230) 
0.0

>  <SlogP_VSA4>  (230) 
5.917906

>  <SlogP_VSA5>  (230) 
21.839346

>  <SlogP_VSA6>  (230) 
53.586427

>  <SlogP_VSA7>  (230) 
5.022633

>  <SlogP_VSA8>  (230) 
10.902925

>  <SlogP_VSA9>  (230) 
0.0

>  <EState_VSA1>  (230) 
0.0

>  <EState_VSA10>  (230) 
9.589074

>  <EState_VSA11>  (230) 
0.0

>  <EState_VSA2>  (230) 
23.178324

>  <EState_VSA3>  (230) 
21.48901

>  <EState_VSA4>  (230) 
18.652964

>  <EState_VSA5>  (230) 
6.32732

>  <EState_VSA6>  (230) 
24.265468

>  <EState_VSA7>  (230) 
18.199101

>  <EState_VSA8>  (230) 
15.284746

>  <EState_VSA9>  (230) 
11.60094

>  <VSA_EState1>  (230) 
0.0

>  <VSA_EState10>  (230) 
6.028314

>  <VSA_EState2>  (230) 
31.606985

>  <VSA_EState3>  (230) 
3.289047

>  <VSA_EState4>  (230) 
2.190814

>  <VSA_EState5>  (230) 
0.092683

>  <VSA_EState6>  (230) 
12.744195

>  <VSA_EState7>  (230) 
1.406571

>  <VSA_EState8>  (230) 
1.585835

>  <VSA_EState9>  (230) 
0.0

>  <FractionCSP3>  (230) 
0.210526

>  <HeavyAtomCount>  (230) 
25

>  <NHOHCount>  (230) 
3

>  <NOCount>  (230) 
5

>  <NumAliphaticCarbocycles>  (230) 
0

>  <NumAliphaticHeterocycles>  (230) 
1

>  <NumAliphaticRings>  (230) 
1

>  <NumAromaticCarbocycles>  (230) 
2

>  <NumAromaticHeterocycles>  (230) 
1

>  <NAR>  (230) 
3

>  <NumHAcceptors>  (230) 
3

>  <NumHDonors>  (230) 
2

>  <NumHeteroatoms>  (230) 
6

>  <NumRotatableBonds>  (230) 
3

>  <NumSaturatedCarbocycles>  (230) 
0

>  <NumSaturatedHeterocycles>  (230) 
1

>  <NumSaturatedRings>  (230) 
1

>  <RingCount>  (230) 
4

>  <MolLogP>  (230) 
1.7362

>  <MolMR>  (230) 
96.0366

>  <fr_Al_COO>  (230) 
0

>  <fr_Al_OH>  (230) 
0

>  <fr_Al_OH_noTert>  (230) 
0

>  <fr_ArN>  (230) 
0

>  <fr_Ar_COO>  (230) 
0

>  <fr_Ar_N>  (230) 
2

>  <fr_Ar_NH>  (230) 
1

>  <fr_Ar_OH>  (230) 
0

>  <fr_COO>  (230) 
0

>  <fr_COO2>  (230) 
0

>  <fr_C_O>  (230) 
1

>  <fr_C_O_noCOO>  (230) 
1

>  <fr_C_S>  (230) 
0

>  <fr_HOCCN>  (230) 
0

>  <fr_Imine>  (230) 
0

>  <fr_NH0>  (230) 
1

>  <fr_NH1>  (230) 
1

>  <fr_NH2>  (230) 
1

>  <fr_N_O>  (230) 
0

>  <fr_Ndealkylation1>  (230) 
0

>  <fr_Ndealkylation2>  (230) 
0

>  <fr_Nhpyrrole>  (230) 
1

>  <fr_SH>  (230) 
0

>  <fr_aldehyde>  (230) 
0

>  <fr_alkyl_carbamate>  (230) 
0

>  <fr_alkyl_halide>  (230) 
0

>  <fr_allylic_oxid>  (230) 
0

>  <fr_amide>  (230) 
0

>  <fr_amidine>  (230) 
0

>  <fr_aniline>  (230) 
0

>  <fr_aryl_methyl>  (230) 
0

>  <fr_azide>  (230) 
0

>  <fr_azo>  (230) 
0

>  <fr_barbitur>  (230) 
0

>  <fr_benzene>  (230) 
2

>  <fr_benzodiazepine>  (230) 
0

>  <fr_bicyclic>  (230) 
1

>  <fr_diazo>  (230) 
0

>  <fr_dihydropyridine>  (230) 
0

>  <fr_epoxide>  (230) 
0

>  <fr_ester>  (230) 
0

>  <fr_ether>  (230) 
0

>  <fr_furan>  (230) 
0

>  <fr_guanido>  (230) 
0

>  <fr_halogen>  (230) 
1

>  <fr_hdrzine>  (230) 
0

>  <fr_hdrzone>  (230) 
0

>  <fr_imidazole>  (230) 
0

>  <fr_imide>  (230) 
0

>  <fr_isocyan>  (230) 
0

>  <fr_isothiocyan>  (230) 
0

>  <fr_ketone>  (230) 
1

>  <fr_ketone_Topliss>  (230) 
1

>  <fr_lactam>  (230) 
0

>  <fr_lactone>  (230) 
0

>  <fr_methoxy>  (230) 
0

>  <fr_morpholine>  (230) 
0

>  <fr_nitrile>  (230) 
0

>  <fr_nitro>  (230) 
0

>  <fr_nitro_arom>  (230) 
0

>  <fr_nitro_arom_nonortho>  (230) 
0

>  <fr_nitroso>  (230) 
0

>  <fr_oxazole>  (230) 
0

>  <fr_oxime>  (230) 
0

>  <fr_para_hydroxylation>  (230) 
0

>  <fr_phenol>  (230) 
0

>  <fr_phenol_noOrthoHbond>  (230) 
0

>  <fr_phos_acid>  (230) 
0

>  <fr_phos_ester>  (230) 
0

>  <fr_piperdine>  (230) 
0

>  <fr_piperzine>  (230) 
0

>  <fr_priamide>  (230) 
0

>  <fr_prisulfonamd>  (230) 
0

>  <fr_pyridine>  (230) 
0

>  <fr_quatN>  (230) 
1

>  <fr_sulfide>  (230) 
0

>  <fr_sulfonamd>  (230) 
0

>  <fr_sulfone>  (230) 
0

>  <fr_term_acetylene>  (230) 
0

>  <fr_tetrazole>  (230) 
0

>  <fr_thiazole>  (230) 
0

>  <fr_thiocyan>  (230) 
0

>  <fr_thiophene>  (230) 
0

>  <fr_unbrch_alkane>  (230) 
0

>  <fr_urea>  (230) 
0

>  <NP-Likeness>  (230) 
-0.601661

$$$$
NVX
     RDKit          3D

  0  0  0  0  0  0  0  0  0  0999 V3000
M  V30 BEGIN CTAB
M  V30 COUNTS 42 45 0 0 0
M  V30 BEGIN ATOM
M  V30 1 C -4.975832 -3.064031 0.326970 0
M  V30 2 N -3.654206 -3.033288 0.003027 0
M  V30 3 C -2.982853 -1.892902 0.050920 0
M  V30 4 C -1.623568 -1.772629 -0.265471 0
M  V30 5 C -0.932305 -0.552353 -0.207443 0
M  V30 6 C 0.503740 -0.664290 -0.591566 0 CFG=1
M  V30 7 C 0.953764 0.355793 -1.589806 0
M  V30 8 N 1.334517 1.512294 -0.853169 0 CHG=1 VAL=4
M  V30 9 C 1.629297 1.097113 0.491777 0
M  V30 10 C 1.353270 -0.373410 0.608512 0 CFG=2
M  V30 11 C 2.683735 -1.061175 0.506880 0
M  V30 12 O 3.020972 -1.756334 -0.485751 0
M  V30 13 C 3.662509 -0.949441 1.579342 0
M  V30 14 C 4.875422 -1.590247 1.433408 0
M  V30 15 C 5.869343 -1.535443 2.417899 0
M  V30 16 C 5.659810 -0.826476 3.582141 0
M  V30 17 C 4.453707 -0.184771 3.735936 0
M  V30 18 Cl 4.199621 0.705421 5.205769 0
M  V30 19 C 3.487579 -0.250917 2.754562 0
M  V30 20 C -1.687133 0.515134 0.182346 0
M  V30 21 C -3.006893 0.424435 0.494539 0
M  V30 22 C -3.685297 -0.774628 0.437406 0
M  V30 23 C -5.022206 -0.801911 0.765820 0
M  V30 24 O -5.660007 0.218458 1.117689 0
M  V30 25 N -5.680449 -1.979443 0.707636 0
M  V30 26 H -5.513246 -4.013960 0.281618 0
M  V30 27 H -1.198962 -2.723953 -0.551001 0
M  V30 28 H 0.702555 -1.713485 -0.970412 0
M  V30 29 H 1.820661 -0.104232 -2.136359 0
M  V30 30 H 0.196768 0.555614 -2.378017 0
M  V30 31 H 0.708010 2.337444 -0.930920 0
M  V30 32 H 2.255767 1.857361 -1.277534 0
M  V30 33 H 2.679311 1.350455 0.784254 0
M  V30 34 H 0.965977 1.617962 1.240672 0
M  V30 35 H 0.849116 -0.637847 1.564156 0
M  V30 36 H 5.130872 -2.164262 0.566823 0
M  V30 37 H 6.821194 -2.056934 2.267921 0
M  V30 38 H 6.463737 -0.821158 4.304087 0
M  V30 39 H 2.557273 0.257171 2.903012 0
M  V30 40 H -1.154584 1.435987 0.220328 0
M  V30 41 H -3.489630 1.348980 0.789578 0
M  V30 42 H -6.706465 -2.082648 0.944136 0
M  V30 END ATOM
M  V30 BEGIN BOND
M  V30 1 2 1 2
M  V30 2 1 2 3
M  V30 3 2 3 4
M  V30 4 1 4 5
M  V30 5 1 5 6
M  V30 6 1 6 7
M  V30 7 1 7 8
M  V30 8 1 8 9
M  V30 9 1 9 10
M  V30 10 1 10 11
M  V30 11 2 11 12
M  V30 12 1 11 13
M  V30 13 2 13 14
M  V30 14 1 14 15
M  V30 15 2 15 16
M  V30 16 1 16 17
M  V30 17 1 17 18
M  V30 18 2 17 19
M  V30 19 2 5 20
M  V30 20 1 20 21
M  V30 21 2 21 22
M  V30 22 1 22 23
M  V30 23 2 23 24
M  V30 24 1 23 25
M  V30 25 1 25 1
M  V30 26 1 22 3
M  V30 27 1 10 6
M  V30 28 1 19 13
M  V30 29 1 1 26
M  V30 30 1 4 27
M  V30 31 1 6 28 CFG=3
M  V30 32 1 7 29
M  V30 33 1 7 30
M  V30 34 1 8 31
M  V30 35 1 8 32
M  V30 36 1 9 33
M  V30 37 1 9 34
M  V30 38 1 10 35 CFG=1
M  V30 39 1 14 36
M  V30 40 1 15 37
M  V30 41 1 16 38
M  V30 42 1 19 39
M  V30 43 1 20 40
M  V30 44 1 21 41
M  V30 45 1 25 42
M  V30 END BOND
M  V30 END CTAB
M  END
>  <Dataset>  (231) 
PDB

>  <Ligand_Instance>  (231) 
4Z84_NVX_A_401

>  <PDB_ID>  (231) 
4Z84

>  <Standardized_SMILES>  (231) 
[H]C1=NC2=C([H])C([C@@]3([H])C([H])([H])[N+]([H])([H])C([H])([H])[C@]3([H])C(=O)C3=C([H])C([H])=C([H])C(Cl)=C3[H])=C([H])C([H])=C2C(=O)N1[H]

>  <Name>  (231) 
7-[(3S,4R)-4-(3-chlorophenyl)carbonylpyrrolidin-3-yl]-3H-quinazolin-4-one

>  <Pocket>  (231) 
A

>  <ATP_Site>  (231) 
1.0

>  <Peripheral>  (231) 
0.0

>  <Num_H_Atoms_ProtBoundConf>  (231) 
17.0

>  <Num_Resolved_Atoms>  (231) 
25.0

>  <Num_Not_Resolved_Atoms>  (231) 
0.0

>  <2D_Mol_H>  (231) 
<rdkit.Chem.rdchem.Mol object at 0x72a238df3290>

>  <MW>  (231) 
354.817

>  <HBA>  (231) 
3

>  <HBD>  (231) 
2

>  <LogP>  (231) 
1.7362

>  <NRB>  (231) 
3

>  <TPSA>  (231) 
79.43

>  <Num_Heavy_Atoms>  (231) 
25

>  <Ro5>  (231) 
[True, True, True, True, True, True]

>  <Ro5_Fulfilled>  (231) 
True

>  <Ro3>  (231) 
[False, True, True, True]

>  <Ro3_Fulfilled>  (231) 
True

>  <Fsp3>  (231) 
0.210526

>  <Fsp3_0.42>  (231) 
False

>  <Fsp3_0.45>  (231) 
False

>  <Stereogenic_Carbons>  (231) 
2

>  <C_Atoms>  (231) 
19

>  <FCStereo>  (231) 
0.105263

>  <SPS>  (231) 
501

>  <nSPS>  (231) 
20.04

>  <PBF>  (231) 
1.146781

>  <PBF_0.6>  (231) 
True

>  <nPBF>  (231) 
0.045871

>  <nPBF_0.016>  (231) 
True

>  <PMI1>  (231) 
1308.985609

>  <PMI2>  (231) 
5870.329871

>  <PMI3>  (231) 
6216.737997

>  <NPR1>  (231) 
0.210558

>  <NPR2>  (231) 
0.944278

>  <Sum_NPR>  (231) 
1.154836

>  <Sum_NPR_1.07>  (231) 
True

>  <Sum_NPR_1.2>  (231) 
False

>  <MaxAbsEStateIndex>  (231) 
12.951342

>  <MaxEStateIndex>  (231) 
12.951342

>  <MinAbsEStateIndex>  (231) 
0.094416

>  <MinEStateIndex>  (231) 
-0.15177

>  <qed>  (231) 
0.703

>  <MolWt>  (231) 
354.817

>  <HeavyAtomMolWt>  (231) 
337.681

>  <ExactMolWt>  (231) 
354.100381

>  <NumValenceElectrons>  (231) 
126

>  <NumRadicalElectrons>  (231) 
0

>  <MaxPartialCharge>  (231) 
0.258052

>  <MinPartialCharge>  (231) 
-0.345089

>  <MaxAbsPartialCharge>  (231) 
0.345089

>  <MinAbsPartialCharge>  (231) 
0.258052

>  <FpDensityMorgan1>  (231) 
1.2

>  <FpDensityMorgan2>  (231) 
2.08

>  <FpDensityMorgan3>  (231) 
2.92

>  <BCUT2D_MWHI>  (231) 
35.495692

>  <BCUT2D_MWLOW>  (231) 
9.833661

>  <BCUT2D_CHGHI>  (231) 
2.37378

>  <BCUT2D_CHGLO>  (231) 
-2.156539

>  <BCUT2D_LOGPHI>  (231) 
2.296717

>  <BCUT2D_LOGPLOW>  (231) 
-2.813071

>  <BCUT2D_MRHI>  (231) 
6.305385

>  <BCUT2D_MRLOW>  (231) 
-0.637601

>  <AvgIpc>  (231) 
3.105067

>  <BalabanJ>  (231) 
1.696008

>  <BertzCT>  (231) 
1014.72188

>  <Chi0>  (231) 
17.388541

>  <Chi0n>  (231) 
13.406741

>  <Chi0v>  (231) 
14.16267

>  <Chi1>  (231) 
12.13103

>  <Chi1n>  (231) 
8.220789

>  <Chi1v>  (231) 
8.598754

>  <Chi2n>  (231) 
6.355911

>  <Chi2v>  (231) 
6.792347

>  <Chi3n>  (231) 
4.866654

>  <Chi3v>  (231) 
5.101752

>  <Chi4n>  (231) 
3.614172

>  <Chi4v>  (231) 
3.804459

>  <HallKierAlpha>  (231) 
-2.5

>  <Ipc>  (231) 
901050.141588

>  <Kappa1>  (231) 
15.99481

>  <Kappa2>  (231) 
6.425156

>  <Kappa3>  (231) 
2.966122

>  <LabuteASA>  (231) 
148.60451

>  <PEOE_VSA1>  (231) 
10.300767

>  <PEOE_VSA10>  (231) 
0.0

>  <PEOE_VSA11>  (231) 
5.783245

>  <PEOE_VSA12>  (231) 
0.0

>  <PEOE_VSA13>  (231) 
5.559267

>  <PEOE_VSA14>  (231) 
0.0

>  <PEOE_VSA2>  (231) 
9.589074

>  <PEOE_VSA3>  (231) 
4.983979

>  <PEOE_VSA4>  (231) 
0.0

>  <PEOE_VSA5>  (231) 
0.0

>  <PEOE_VSA6>  (231) 
29.800041

>  <PEOE_VSA7>  (231) 
29.82892

>  <PEOE_VSA8>  (231) 
16.503991

>  <PEOE_VSA9>  (231) 
36.237664

>  <SMR_VSA1>  (231) 
10.111326

>  <SMR_VSA10>  (231) 
28.28711

>  <SMR_VSA2>  (231) 
0.0

>  <SMR_VSA3>  (231) 
9.967957

>  <SMR_VSA4>  (231) 
5.917906

>  <SMR_VSA5>  (231) 
5.917906

>  <SMR_VSA6>  (231) 
13.089513

>  <SMR_VSA7>  (231) 
75.29523

>  <SMR_VSA8>  (231) 
0.0

>  <SMR_VSA9>  (231) 
0.0

>  <SlogP_VSA1>  (231) 
10.876055

>  <SlogP_VSA10>  (231) 
0.0

>  <SlogP_VSA11>  (231) 
0.0

>  <SlogP_VSA12>  (231) 
11.60094

>  <SlogP_VSA2>  (231) 
28.840715

>  <SlogP_VSA3>  (231) 
0.0

>  <SlogP_VSA4>  (231) 
5.917906

>  <SlogP_VSA5>  (231) 
21.839346

>  <SlogP_VSA6>  (231) 
53.586427

>  <SlogP_VSA7>  (231) 
5.022633

>  <SlogP_VSA8>  (231) 
10.902925

>  <SlogP_VSA9>  (231) 
0.0

>  <EState_VSA1>  (231) 
0.0

>  <EState_VSA10>  (231) 
9.589074

>  <EState_VSA11>  (231) 
0.0

>  <EState_VSA2>  (231) 
23.178324

>  <EState_VSA3>  (231) 
21.48901

>  <EState_VSA4>  (231) 
18.652964

>  <EState_VSA5>  (231) 
6.32732

>  <EState_VSA6>  (231) 
24.265468

>  <EState_VSA7>  (231) 
18.199101

>  <EState_VSA8>  (231) 
15.284746

>  <EState_VSA9>  (231) 
11.60094

>  <VSA_EState1>  (231) 
0.0

>  <VSA_EState10>  (231) 
6.028314

>  <VSA_EState2>  (231) 
31.606985

>  <VSA_EState3>  (231) 
3.289047

>  <VSA_EState4>  (231) 
2.190814

>  <VSA_EState5>  (231) 
0.092683

>  <VSA_EState6>  (231) 
12.744195

>  <VSA_EState7>  (231) 
1.406571

>  <VSA_EState8>  (231) 
1.585835

>  <VSA_EState9>  (231) 
0.0

>  <FractionCSP3>  (231) 
0.210526

>  <HeavyAtomCount>  (231) 
25

>  <NHOHCount>  (231) 
3

>  <NOCount>  (231) 
5

>  <NumAliphaticCarbocycles>  (231) 
0

>  <NumAliphaticHeterocycles>  (231) 
1

>  <NumAliphaticRings>  (231) 
1

>  <NumAromaticCarbocycles>  (231) 
2

>  <NumAromaticHeterocycles>  (231) 
1

>  <NAR>  (231) 
3

>  <NumHAcceptors>  (231) 
3

>  <NumHDonors>  (231) 
2

>  <NumHeteroatoms>  (231) 
6

>  <NumRotatableBonds>  (231) 
3

>  <NumSaturatedCarbocycles>  (231) 
0

>  <NumSaturatedHeterocycles>  (231) 
1

>  <NumSaturatedRings>  (231) 
1

>  <RingCount>  (231) 
4

>  <MolLogP>  (231) 
1.7362

>  <MolMR>  (231) 
96.0366

>  <fr_Al_COO>  (231) 
0

>  <fr_Al_OH>  (231) 
0

>  <fr_Al_OH_noTert>  (231) 
0

>  <fr_ArN>  (231) 
0

>  <fr_Ar_COO>  (231) 
0

>  <fr_Ar_N>  (231) 
2

>  <fr_Ar_NH>  (231) 
1

>  <fr_Ar_OH>  (231) 
0

>  <fr_COO>  (231) 
0

>  <fr_COO2>  (231) 
0

>  <fr_C_O>  (231) 
1

>  <fr_C_O_noCOO>  (231) 
1

>  <fr_C_S>  (231) 
0

>  <fr_HOCCN>  (231) 
0

>  <fr_Imine>  (231) 
0

>  <fr_NH0>  (231) 
1

>  <fr_NH1>  (231) 
1

>  <fr_NH2>  (231) 
1

>  <fr_N_O>  (231) 
0

>  <fr_Ndealkylation1>  (231) 
0

>  <fr_Ndealkylation2>  (231) 
0

>  <fr_Nhpyrrole>  (231) 
1

>  <fr_SH>  (231) 
0

>  <fr_aldehyde>  (231) 
0

>  <fr_alkyl_carbamate>  (231) 
0

>  <fr_alkyl_halide>  (231) 
0

>  <fr_allylic_oxid>  (231) 
0

>  <fr_amide>  (231) 
0

>  <fr_amidine>  (231) 
0

>  <fr_aniline>  (231) 
0

>  <fr_aryl_methyl>  (231) 
0

>  <fr_azide>  (231) 
0

>  <fr_azo>  (231) 
0

>  <fr_barbitur>  (231) 
0

>  <fr_benzene>  (231) 
2

>  <fr_benzodiazepine>  (231) 
0

>  <fr_bicyclic>  (231) 
1

>  <fr_diazo>  (231) 
0

>  <fr_dihydropyridine>  (231) 
0

>  <fr_epoxide>  (231) 
0

>  <fr_ester>  (231) 
0

>  <fr_ether>  (231) 
0

>  <fr_furan>  (231) 
0

>  <fr_guanido>  (231) 
0

>  <fr_halogen>  (231) 
1

>  <fr_hdrzine>  (231) 
0

>  <fr_hdrzone>  (231) 
0

>  <fr_imidazole>  (231) 
0

>  <fr_imide>  (231) 
0

>  <fr_isocyan>  (231) 
0

>  <fr_isothiocyan>  (231) 
0

>  <fr_ketone>  (231) 
1

>  <fr_ketone_Topliss>  (231) 
1

>  <fr_lactam>  (231) 
0

>  <fr_lactone>  (231) 
0

>  <fr_methoxy>  (231) 
0

>  <fr_morpholine>  (231) 
0

>  <fr_nitrile>  (231) 
0

>  <fr_nitro>  (231) 
0

>  <fr_nitro_arom>  (231) 
0

>  <fr_nitro_arom_nonortho>  (231) 
0

>  <fr_nitroso>  (231) 
0

>  <fr_oxazole>  (231) 
0

>  <fr_oxime>  (231) 
0

>  <fr_para_hydroxylation>  (231) 
0

>  <fr_phenol>  (231) 
0

>  <fr_phenol_noOrthoHbond>  (231) 
0

>  <fr_phos_acid>  (231) 
0

>  <fr_phos_ester>  (231) 
0

>  <fr_piperdine>  (231) 
0

>  <fr_piperzine>  (231) 
0

>  <fr_priamide>  (231) 
0

>  <fr_prisulfonamd>  (231) 
0

>  <fr_pyridine>  (231) 
0

>  <fr_quatN>  (231) 
1

>  <fr_sulfide>  (231) 
0

>  <fr_sulfonamd>  (231) 
0

>  <fr_sulfone>  (231) 
0

>  <fr_term_acetylene>  (231) 
0

>  <fr_tetrazole>  (231) 
0

>  <fr_thiazole>  (231) 
0

>  <fr_thiocyan>  (231) 
0

>  <fr_thiophene>  (231) 
0

>  <fr_unbrch_alkane>  (231) 
0

>  <fr_urea>  (231) 
0

>  <NP-Likeness>  (231) 
-0.601661

$$$$
O72
     RDKit          3D

  0  0  0  0  0  0  0  0  0  0999 V3000
M  V30 BEGIN CTAB
M  V30 COUNTS 18 19 0 0 0
M  V30 BEGIN ATOM
M  V30 1 C 0.026719 -0.586707 2.963988 0
M  V30 2 C 0.158885 -1.848415 2.405481 0
M  V30 3 C 0.728437 -1.883192 1.142142 0
M  V30 4 C 1.116499 -0.710070 0.534698 0
M  V30 5 C 0.959173 0.520369 1.142075 0
M  V30 6 N 0.401374 0.549768 2.378354 0
M  V30 7 C 1.315022 1.735512 0.614556 0
M  V30 8 N 1.115261 2.948427 1.311756 0
M  V30 9 N 1.873706 1.739049 -0.616708 0
M  V30 10 C 2.046325 0.552578 -1.248498 0
M  V30 11 C 1.690385 -0.671311 -0.722630 0
M  V30 12 H -0.420721 -0.527370 3.963229 0
M  V30 13 H -0.159204 -2.752286 2.915611 0
M  V30 14 H 0.873504 -2.820844 0.623777 0
M  V30 15 H 1.450854 2.896896 2.309122 0
M  V30 16 H 0.667688 3.718550 0.747466 0
M  V30 17 H 2.493377 0.552679 -2.234316 0
M  V30 18 H 1.850694 -1.590239 -1.270646 0
M  V30 END ATOM
M  V30 BEGIN BOND
M  V30 1 2 1 2
M  V30 2 1 2 3
M  V30 3 2 3 4
M  V30 4 1 4 5
M  V30 5 2 5 6
M  V30 6 1 5 7
M  V30 7 1 7 8
M  V30 8 2 7 9
M  V30 9 1 9 10
M  V30 10 2 10 11
M  V30 11 1 6 1
M  V30 12 1 11 4
M  V30 13 1 1 12
M  V30 14 1 2 13
M  V30 15 1 3 14
M  V30 16 1 8 15
M  V30 17 1 8 16
M  V30 18 1 10 17
M  V30 19 1 11 18
M  V30 END BOND
M  V30 END CTAB
M  END
>  <Dataset>  (232) 
PDB

>  <Ligand_Instance>  (232) 
6Y2O_O72_A_406

>  <PDB_ID>  (232) 
6Y2O

>  <Standardized_SMILES>  (232) 
[H]C1=C([H])C([H])=C2C(=N1)C(N([H])[H])=NC([H])=C2[H]

>  <Name>  (232) 
1,7-naphthyridin-8-amine

>  <Pocket>  (232) 
A

>  <ATP_Site>  (232) 
1.0

>  <Peripheral>  (232) 
0.0

>  <Num_H_Atoms_ProtBoundConf>  (232) 
7.0

>  <Num_Resolved_Atoms>  (232) 
11.0

>  <Num_Not_Resolved_Atoms>  (232) 
0.0

>  <2D_Mol_H>  (232) 
<rdkit.Chem.rdchem.Mol object at 0x72a238df3370>

>  <MW>  (232) 
145.165

>  <HBA>  (232) 
3

>  <HBD>  (232) 
1

>  <LogP>  (232) 
1.212

>  <NRB>  (232) 
1

>  <TPSA>  (232) 
51.8

>  <Num_Heavy_Atoms>  (232) 
11

>  <Ro5>  (232) 
[True, True, True, True, True, True]

>  <Ro5_Fulfilled>  (232) 
True

>  <Ro3>  (232) 
[True, True, True, True]

>  <Ro3_Fulfilled>  (232) 
True

>  <Fsp3>  (232) 
0.0

>  <Fsp3_0.42>  (232) 
False

>  <Fsp3_0.45>  (232) 
False

>  <Stereogenic_Carbons>  (232) 
0

>  <C_Atoms>  (232) 
8

>  <FCStereo>  (232) 
0.0

>  <SPS>  (232) 
112

>  <nSPS>  (232) 
10.181818

>  <PBF>  (232) 
0.099192

>  <PBF_0.6>  (232) 
False

>  <nPBF>  (232) 
0.009017

>  <nPBF_0.016>  (232) 
False

>  <PMI1>  (232) 
248.951919

>  <PMI2>  (232) 
422.280789

>  <PMI3>  (232) 
669.19109

>  <NPR1>  (232) 
0.372019

>  <NPR2>  (232) 
0.631032

>  <Sum_NPR>  (232) 
1.003051

>  <Sum_NPR_1.07>  (232) 
False

>  <Sum_NPR_1.2>  (232) 
False

>  <MaxAbsEStateIndex>  (232) 
5.582593

>  <MaxEStateIndex>  (232) 
5.582593

>  <MinAbsEStateIndex>  (232) 
0.488981

>  <MinEStateIndex>  (232) 
0.488981

>  <qed>  (232) 
0.605817

>  <MolWt>  (232) 
145.165

>  <HeavyAtomMolWt>  (232) 
138.109

>  <ExactMolWt>  (232) 
145.063997

>  <NumValenceElectrons>  (232) 
54

>  <NumRadicalElectrons>  (232) 
0

>  <MaxPartialCharge>  (232) 
0.149416

>  <MinPartialCharge>  (232) 
-0.381888

>  <MaxAbsPartialCharge>  (232) 
0.381888

>  <MinAbsPartialCharge>  (232) 
0.149416

>  <FpDensityMorgan1>  (232) 
1.090909

>  <FpDensityMorgan2>  (232) 
2.0

>  <FpDensityMorgan3>  (232) 
2.818182

>  <BCUT2D_MWHI>  (232) 
14.856649

>  <BCUT2D_MWLOW>  (232) 
10.244142

>  <BCUT2D_CHGHI>  (232) 
1.95405

>  <BCUT2D_CHGLO>  (232) 
-1.962342

>  <BCUT2D_LOGPHI>  (232) 
2.13178

>  <BCUT2D_LOGPLOW>  (232) 
-1.912584

>  <BCUT2D_MRHI>  (232) 
5.858843

>  <BCUT2D_MRLOW>  (232) 
1.317797

>  <AvgIpc>  (232) 
2.05595

>  <BalabanJ>  (232) 
2.913161

>  <BertzCT>  (232) 
378.498884

>  <Chi0>  (232) 
7.681798

>  <Chi0n>  (232) 
5.858529

>  <Chi0v>  (232) 
5.858529

>  <Chi1>  (232) 
5.37701

>  <Chi1n>  (232) 
3.329637

>  <Chi1v>  (232) 
3.329637

>  <Chi2n>  (232) 
2.271314

>  <Chi2v>  (232) 
2.271314

>  <Chi3n>  (232) 
1.549257

>  <Chi3v>  (232) 
1.549257

>  <Chi4n>  (232) 
1.025261

>  <Chi4v>  (232) 
1.025261

>  <HallKierAlpha>  (232) 
-1.64

>  <Ipc>  (232) 
505.763735

>  <Kappa1>  (232) 
6.094932

>  <Kappa2>  (232) 
2.196105

>  <Kappa3>  (232) 
0.902215

>  <LabuteASA>  (232) 
63.892254

>  <PEOE_VSA1>  (232) 
5.733667

>  <PEOE_VSA10>  (232) 
11.334563

>  <PEOE_VSA11>  (232) 
0.0

>  <PEOE_VSA12>  (232) 
0.0

>  <PEOE_VSA13>  (232) 
0.0

>  <PEOE_VSA14>  (232) 
0.0

>  <PEOE_VSA2>  (232) 
4.983979

>  <PEOE_VSA3>  (232) 
4.983979

>  <PEOE_VSA4>  (232) 
0.0

>  <PEOE_VSA5>  (232) 
0.0

>  <PEOE_VSA6>  (232) 
6.066367

>  <PEOE_VSA7>  (232) 
12.132734

>  <PEOE_VSA8>  (232) 
17.779911

>  <PEOE_VSA9>  (232) 
0.0

>  <SMR_VSA1>  (232) 
0.0

>  <SMR_VSA10>  (232) 
16.720788

>  <SMR_VSA2>  (232) 
0.0

>  <SMR_VSA3>  (232) 
9.967957

>  <SMR_VSA4>  (232) 
0.0

>  <SMR_VSA5>  (232) 
0.0

>  <SMR_VSA6>  (232) 
5.733667

>  <SMR_VSA7>  (232) 
30.592788

>  <SMR_VSA8>  (232) 
0.0

>  <SMR_VSA9>  (232) 
0.0

>  <SlogP_VSA1>  (232) 
5.733667

>  <SlogP_VSA10>  (232) 
5.817863

>  <SlogP_VSA11>  (232) 
0.0

>  <SlogP_VSA12>  (232) 
0.0

>  <SlogP_VSA2>  (232) 
9.967957

>  <SlogP_VSA3>  (232) 
0.0

>  <SlogP_VSA4>  (232) 
0.0

>  <SlogP_VSA5>  (232) 
0.0

>  <SlogP_VSA6>  (232) 
30.592788

>  <SlogP_VSA7>  (232) 
0.0

>  <SlogP_VSA8>  (232) 
10.902925

>  <SlogP_VSA9>  (232) 
0.0

>  <EState_VSA1>  (232) 
0.0

>  <EState_VSA10>  (232) 
0.0

>  <EState_VSA11>  (232) 
0.0

>  <EState_VSA2>  (232) 
0.0

>  <EState_VSA3>  (232) 
5.817863

>  <EState_VSA4>  (232) 
10.902925

>  <EState_VSA5>  (232) 
0.0

>  <EState_VSA6>  (232) 
12.393687

>  <EState_VSA7>  (232) 
18.199101

>  <EState_VSA8>  (232) 
9.967957

>  <EState_VSA9>  (232) 
5.733667

>  <VSA_EState1>  (232) 
0.0

>  <VSA_EState10>  (232) 
0.0

>  <VSA_EState2>  (232) 
8.015833

>  <VSA_EState3>  (232) 
1.027778

>  <VSA_EState4>  (232) 
6.355741

>  <VSA_EState5>  (232) 
0.488981

>  <VSA_EState6>  (232) 
5.723056

>  <VSA_EState7>  (232) 
3.388611

>  <VSA_EState8>  (232) 
0.0

>  <VSA_EState9>  (232) 
0.0

>  <FractionCSP3>  (232) 
0.0

>  <HeavyAtomCount>  (232) 
11

>  <NHOHCount>  (232) 
2

>  <NOCount>  (232) 
3

>  <NumAliphaticCarbocycles>  (232) 
0

>  <NumAliphaticHeterocycles>  (232) 
0

>  <NumAliphaticRings>  (232) 
0

>  <NumAromaticCarbocycles>  (232) 
0

>  <NumAromaticHeterocycles>  (232) 
2

>  <NAR>  (232) 
2

>  <NumHAcceptors>  (232) 
3

>  <NumHDonors>  (232) 
1

>  <NumHeteroatoms>  (232) 
3

>  <NumRotatableBonds>  (232) 
0

>  <NumSaturatedCarbocycles>  (232) 
0

>  <NumSaturatedHeterocycles>  (232) 
0

>  <NumSaturatedRings>  (232) 
0

>  <RingCount>  (232) 
2

>  <MolLogP>  (232) 
1.212

>  <MolMR>  (232) 
43.9504

>  <fr_Al_COO>  (232) 
0

>  <fr_Al_OH>  (232) 
0

>  <fr_Al_OH_noTert>  (232) 
0

>  <fr_ArN>  (232) 
1

>  <fr_Ar_COO>  (232) 
0

>  <fr_Ar_N>  (232) 
2

>  <fr_Ar_NH>  (232) 
0

>  <fr_Ar_OH>  (232) 
0

>  <fr_COO>  (232) 
0

>  <fr_COO2>  (232) 
0

>  <fr_C_O>  (232) 
0

>  <fr_C_O_noCOO>  (232) 
0

>  <fr_C_S>  (232) 
0

>  <fr_HOCCN>  (232) 
0

>  <fr_Imine>  (232) 
0

>  <fr_NH0>  (232) 
2

>  <fr_NH1>  (232) 
0

>  <fr_NH2>  (232) 
1

>  <fr_N_O>  (232) 
0

>  <fr_Ndealkylation1>  (232) 
0

>  <fr_Ndealkylation2>  (232) 
0

>  <fr_Nhpyrrole>  (232) 
0

>  <fr_SH>  (232) 
0

>  <fr_aldehyde>  (232) 
0

>  <fr_alkyl_carbamate>  (232) 
0

>  <fr_alkyl_halide>  (232) 
0

>  <fr_allylic_oxid>  (232) 
0

>  <fr_amide>  (232) 
0

>  <fr_amidine>  (232) 
0

>  <fr_aniline>  (232) 
1

>  <fr_aryl_methyl>  (232) 
0

>  <fr_azide>  (232) 
0

>  <fr_azo>  (232) 
0

>  <fr_barbitur>  (232) 
0

>  <fr_benzene>  (232) 
0

>  <fr_benzodiazepine>  (232) 
0

>  <fr_bicyclic>  (232) 
1

>  <fr_diazo>  (232) 
0

>  <fr_dihydropyridine>  (232) 
0

>  <fr_epoxide>  (232) 
0

>  <fr_ester>  (232) 
0

>  <fr_ether>  (232) 
0

>  <fr_furan>  (232) 
0

>  <fr_guanido>  (232) 
0

>  <fr_halogen>  (232) 
0

>  <fr_hdrzine>  (232) 
0

>  <fr_hdrzone>  (232) 
0

>  <fr_imidazole>  (232) 
0

>  <fr_imide>  (232) 
0

>  <fr_isocyan>  (232) 
0

>  <fr_isothiocyan>  (232) 
0

>  <fr_ketone>  (232) 
0

>  <fr_ketone_Topliss>  (232) 
0

>  <fr_lactam>  (232) 
0

>  <fr_lactone>  (232) 
0

>  <fr_methoxy>  (232) 
0

>  <fr_morpholine>  (232) 
0

>  <fr_nitrile>  (232) 
0

>  <fr_nitro>  (232) 
0

>  <fr_nitro_arom>  (232) 
0

>  <fr_nitro_arom_nonortho>  (232) 
0

>  <fr_nitroso>  (232) 
0

>  <fr_oxazole>  (232) 
0

>  <fr_oxime>  (232) 
0

>  <fr_para_hydroxylation>  (232) 
0

>  <fr_phenol>  (232) 
0

>  <fr_phenol_noOrthoHbond>  (232) 
0

>  <fr_phos_acid>  (232) 
0

>  <fr_phos_ester>  (232) 
0

>  <fr_piperdine>  (232) 
0

>  <fr_piperzine>  (232) 
0

>  <fr_priamide>  (232) 
0

>  <fr_prisulfonamd>  (232) 
0

>  <fr_pyridine>  (232) 
2

>  <fr_quatN>  (232) 
0

>  <fr_sulfide>  (232) 
0

>  <fr_sulfonamd>  (232) 
0

>  <fr_sulfone>  (232) 
0

>  <fr_term_acetylene>  (232) 
0

>  <fr_tetrazole>  (232) 
0

>  <fr_thiazole>  (232) 
0

>  <fr_thiocyan>  (232) 
0

>  <fr_thiophene>  (232) 
0

>  <fr_unbrch_alkane>  (232) 
0

>  <fr_urea>  (232) 
0

>  <NP-Likeness>  (232) 
-0.610374

$$$$
O72
     RDKit          3D

  0  0  0  0  0  0  0  0  0  0999 V3000
M  V30 BEGIN CTAB
M  V30 COUNTS 18 19 0 0 0
M  V30 BEGIN ATOM
M  V30 1 C 0.026719 -0.586707 2.963988 0
M  V30 2 C 0.158885 -1.848415 2.405481 0
M  V30 3 C 0.728437 -1.883192 1.142142 0
M  V30 4 C 1.116499 -0.710070 0.534698 0
M  V30 5 C 0.959173 0.520369 1.142075 0
M  V30 6 N 0.401374 0.549768 2.378354 0
M  V30 7 C 1.315022 1.735512 0.614556 0
M  V30 8 N 1.115261 2.948427 1.311756 0
M  V30 9 N 1.873706 1.739049 -0.616708 0
M  V30 10 C 2.046325 0.552578 -1.248498 0
M  V30 11 C 1.690385 -0.671311 -0.722630 0
M  V30 12 H -0.420721 -0.527370 3.963229 0
M  V30 13 H -0.159204 -2.752286 2.915611 0
M  V30 14 H 0.873504 -2.820844 0.623777 0
M  V30 15 H 1.450854 2.896896 2.309122 0
M  V30 16 H 0.667688 3.718550 0.747466 0
M  V30 17 H 2.493377 0.552679 -2.234316 0
M  V30 18 H 1.850694 -1.590239 -1.270646 0
M  V30 END ATOM
M  V30 BEGIN BOND
M  V30 1 2 1 2
M  V30 2 1 2 3
M  V30 3 2 3 4
M  V30 4 1 4 5
M  V30 5 2 5 6
M  V30 6 1 5 7
M  V30 7 1 7 8
M  V30 8 2 7 9
M  V30 9 1 9 10
M  V30 10 2 10 11
M  V30 11 1 6 1
M  V30 12 1 11 4
M  V30 13 1 1 12
M  V30 14 1 2 13
M  V30 15 1 3 14
M  V30 16 1 8 15
M  V30 17 1 8 16
M  V30 18 1 10 17
M  V30 19 1 11 18
M  V30 END BOND
M  V30 END CTAB
M  END
>  <Dataset>  (233) 
PDB

>  <Ligand_Instance>  (233) 
6YNR_O72_A_403

>  <PDB_ID>  (233) 
6YNR

>  <Standardized_SMILES>  (233) 
[H]C1=C([H])C([H])=C2C(=N1)C(N([H])[H])=NC([H])=C2[H]

>  <Name>  (233) 
1,7-naphthyridin-8-amine

>  <Pocket>  (233) 
A

>  <ATP_Site>  (233) 
1.0

>  <Peripheral>  (233) 
0.0

>  <Num_H_Atoms_ProtBoundConf>  (233) 
7.0

>  <Num_Resolved_Atoms>  (233) 
11.0

>  <Num_Not_Resolved_Atoms>  (233) 
0.0

>  <2D_Mol_H>  (233) 
<rdkit.Chem.rdchem.Mol object at 0x72a238df3450>

>  <MW>  (233) 
145.165

>  <HBA>  (233) 
3

>  <HBD>  (233) 
1

>  <LogP>  (233) 
1.212

>  <NRB>  (233) 
1

>  <TPSA>  (233) 
51.8

>  <Num_Heavy_Atoms>  (233) 
11

>  <Ro5>  (233) 
[True, True, True, True, True, True]

>  <Ro5_Fulfilled>  (233) 
True

>  <Ro3>  (233) 
[True, True, True, True]

>  <Ro3_Fulfilled>  (233) 
True

>  <Fsp3>  (233) 
0.0

>  <Fsp3_0.42>  (233) 
False

>  <Fsp3_0.45>  (233) 
False

>  <Stereogenic_Carbons>  (233) 
0

>  <C_Atoms>  (233) 
8

>  <FCStereo>  (233) 
0.0

>  <SPS>  (233) 
112

>  <nSPS>  (233) 
10.181818

>  <PBF>  (233) 
0.099192

>  <PBF_0.6>  (233) 
False

>  <nPBF>  (233) 
0.009017

>  <nPBF_0.016>  (233) 
False

>  <PMI1>  (233) 
248.951919

>  <PMI2>  (233) 
422.280789

>  <PMI3>  (233) 
669.19109

>  <NPR1>  (233) 
0.372019

>  <NPR2>  (233) 
0.631032

>  <Sum_NPR>  (233) 
1.003051

>  <Sum_NPR_1.07>  (233) 
False

>  <Sum_NPR_1.2>  (233) 
False

>  <MaxAbsEStateIndex>  (233) 
5.582593

>  <MaxEStateIndex>  (233) 
5.582593

>  <MinAbsEStateIndex>  (233) 
0.488981

>  <MinEStateIndex>  (233) 
0.488981

>  <qed>  (233) 
0.605817

>  <MolWt>  (233) 
145.165

>  <HeavyAtomMolWt>  (233) 
138.109

>  <ExactMolWt>  (233) 
145.063997

>  <NumValenceElectrons>  (233) 
54

>  <NumRadicalElectrons>  (233) 
0

>  <MaxPartialCharge>  (233) 
0.149416

>  <MinPartialCharge>  (233) 
-0.381888

>  <MaxAbsPartialCharge>  (233) 
0.381888

>  <MinAbsPartialCharge>  (233) 
0.149416

>  <FpDensityMorgan1>  (233) 
1.090909

>  <FpDensityMorgan2>  (233) 
2.0

>  <FpDensityMorgan3>  (233) 
2.818182

>  <BCUT2D_MWHI>  (233) 
14.856649

>  <BCUT2D_MWLOW>  (233) 
10.244142

>  <BCUT2D_CHGHI>  (233) 
1.95405

>  <BCUT2D_CHGLO>  (233) 
-1.962342

>  <BCUT2D_LOGPHI>  (233) 
2.13178

>  <BCUT2D_LOGPLOW>  (233) 
-1.912584

>  <BCUT2D_MRHI>  (233) 
5.858843

>  <BCUT2D_MRLOW>  (233) 
1.317797

>  <AvgIpc>  (233) 
2.05595

>  <BalabanJ>  (233) 
2.913161

>  <BertzCT>  (233) 
378.498884

>  <Chi0>  (233) 
7.681798

>  <Chi0n>  (233) 
5.858529

>  <Chi0v>  (233) 
5.858529

>  <Chi1>  (233) 
5.37701

>  <Chi1n>  (233) 
3.329637

>  <Chi1v>  (233) 
3.329637

>  <Chi2n>  (233) 
2.271314

>  <Chi2v>  (233) 
2.271314

>  <Chi3n>  (233) 
1.549257

>  <Chi3v>  (233) 
1.549257

>  <Chi4n>  (233) 
1.025261

>  <Chi4v>  (233) 
1.025261

>  <HallKierAlpha>  (233) 
-1.64

>  <Ipc>  (233) 
505.763735

>  <Kappa1>  (233) 
6.094932

>  <Kappa2>  (233) 
2.196105

>  <Kappa3>  (233) 
0.902215

>  <LabuteASA>  (233) 
63.892254

>  <PEOE_VSA1>  (233) 
5.733667

>  <PEOE_VSA10>  (233) 
11.334563

>  <PEOE_VSA11>  (233) 
0.0

>  <PEOE_VSA12>  (233) 
0.0

>  <PEOE_VSA13>  (233) 
0.0

>  <PEOE_VSA14>  (233) 
0.0

>  <PEOE_VSA2>  (233) 
4.983979

>  <PEOE_VSA3>  (233) 
4.983979

>  <PEOE_VSA4>  (233) 
0.0

>  <PEOE_VSA5>  (233) 
0.0

>  <PEOE_VSA6>  (233) 
6.066367

>  <PEOE_VSA7>  (233) 
12.132734

>  <PEOE_VSA8>  (233) 
17.779911

>  <PEOE_VSA9>  (233) 
0.0

>  <SMR_VSA1>  (233) 
0.0

>  <SMR_VSA10>  (233) 
16.720788

>  <SMR_VSA2>  (233) 
0.0

>  <SMR_VSA3>  (233) 
9.967957

>  <SMR_VSA4>  (233) 
0.0

>  <SMR_VSA5>  (233) 
0.0

>  <SMR_VSA6>  (233) 
5.733667

>  <SMR_VSA7>  (233) 
30.592788

>  <SMR_VSA8>  (233) 
0.0

>  <SMR_VSA9>  (233) 
0.0

>  <SlogP_VSA1>  (233) 
5.733667

>  <SlogP_VSA10>  (233) 
5.817863

>  <SlogP_VSA11>  (233) 
0.0

>  <SlogP_VSA12>  (233) 
0.0

>  <SlogP_VSA2>  (233) 
9.967957

>  <SlogP_VSA3>  (233) 
0.0

>  <SlogP_VSA4>  (233) 
0.0

>  <SlogP_VSA5>  (233) 
0.0

>  <SlogP_VSA6>  (233) 
30.592788

>  <SlogP_VSA7>  (233) 
0.0

>  <SlogP_VSA8>  (233) 
10.902925

>  <SlogP_VSA9>  (233) 
0.0

>  <EState_VSA1>  (233) 
0.0

>  <EState_VSA10>  (233) 
0.0

>  <EState_VSA11>  (233) 
0.0

>  <EState_VSA2>  (233) 
0.0

>  <EState_VSA3>  (233) 
5.817863

>  <EState_VSA4>  (233) 
10.902925

>  <EState_VSA5>  (233) 
0.0

>  <EState_VSA6>  (233) 
12.393687

>  <EState_VSA7>  (233) 
18.199101

>  <EState_VSA8>  (233) 
9.967957

>  <EState_VSA9>  (233) 
5.733667

>  <VSA_EState1>  (233) 
0.0

>  <VSA_EState10>  (233) 
0.0

>  <VSA_EState2>  (233) 
8.015833

>  <VSA_EState3>  (233) 
1.027778

>  <VSA_EState4>  (233) 
6.355741

>  <VSA_EState5>  (233) 
0.488981

>  <VSA_EState6>  (233) 
5.723056

>  <VSA_EState7>  (233) 
3.388611

>  <VSA_EState8>  (233) 
0.0

>  <VSA_EState9>  (233) 
0.0

>  <FractionCSP3>  (233) 
0.0

>  <HeavyAtomCount>  (233) 
11

>  <NHOHCount>  (233) 
2

>  <NOCount>  (233) 
3

>  <NumAliphaticCarbocycles>  (233) 
0

>  <NumAliphaticHeterocycles>  (233) 
0

>  <NumAliphaticRings>  (233) 
0

>  <NumAromaticCarbocycles>  (233) 
0

>  <NumAromaticHeterocycles>  (233) 
2

>  <NAR>  (233) 
2

>  <NumHAcceptors>  (233) 
3

>  <NumHDonors>  (233) 
1

>  <NumHeteroatoms>  (233) 
3

>  <NumRotatableBonds>  (233) 
0

>  <NumSaturatedCarbocycles>  (233) 
0

>  <NumSaturatedHeterocycles>  (233) 
0

>  <NumSaturatedRings>  (233) 
0

>  <RingCount>  (233) 
2

>  <MolLogP>  (233) 
1.212

>  <MolMR>  (233) 
43.9504

>  <fr_Al_COO>  (233) 
0

>  <fr_Al_OH>  (233) 
0

>  <fr_Al_OH_noTert>  (233) 
0

>  <fr_ArN>  (233) 
1

>  <fr_Ar_COO>  (233) 
0

>  <fr_Ar_N>  (233) 
2

>  <fr_Ar_NH>  (233) 
0

>  <fr_Ar_OH>  (233) 
0

>  <fr_COO>  (233) 
0

>  <fr_COO2>  (233) 
0

>  <fr_C_O>  (233) 
0

>  <fr_C_O_noCOO>  (233) 
0

>  <fr_C_S>  (233) 
0

>  <fr_HOCCN>  (233) 
0

>  <fr_Imine>  (233) 
0

>  <fr_NH0>  (233) 
2

>  <fr_NH1>  (233) 
0

>  <fr_NH2>  (233) 
1

>  <fr_N_O>  (233) 
0

>  <fr_Ndealkylation1>  (233) 
0

>  <fr_Ndealkylation2>  (233) 
0

>  <fr_Nhpyrrole>  (233) 
0

>  <fr_SH>  (233) 
0

>  <fr_aldehyde>  (233) 
0

>  <fr_alkyl_carbamate>  (233) 
0

>  <fr_alkyl_halide>  (233) 
0

>  <fr_allylic_oxid>  (233) 
0

>  <fr_amide>  (233) 
0

>  <fr_amidine>  (233) 
0

>  <fr_aniline>  (233) 
1

>  <fr_aryl_methyl>  (233) 
0

>  <fr_azide>  (233) 
0

>  <fr_azo>  (233) 
0

>  <fr_barbitur>  (233) 
0

>  <fr_benzene>  (233) 
0

>  <fr_benzodiazepine>  (233) 
0

>  <fr_bicyclic>  (233) 
1

>  <fr_diazo>  (233) 
0

>  <fr_dihydropyridine>  (233) 
0

>  <fr_epoxide>  (233) 
0

>  <fr_ester>  (233) 
0

>  <fr_ether>  (233) 
0

>  <fr_furan>  (233) 
0

>  <fr_guanido>  (233) 
0

>  <fr_halogen>  (233) 
0

>  <fr_hdrzine>  (233) 
0

>  <fr_hdrzone>  (233) 
0

>  <fr_imidazole>  (233) 
0

>  <fr_imide>  (233) 
0

>  <fr_isocyan>  (233) 
0

>  <fr_isothiocyan>  (233) 
0

>  <fr_ketone>  (233) 
0

>  <fr_ketone_Topliss>  (233) 
0

>  <fr_lactam>  (233) 
0

>  <fr_lactone>  (233) 
0

>  <fr_methoxy>  (233) 
0

>  <fr_morpholine>  (233) 
0

>  <fr_nitrile>  (233) 
0

>  <fr_nitro>  (233) 
0

>  <fr_nitro_arom>  (233) 
0

>  <fr_nitro_arom_nonortho>  (233) 
0

>  <fr_nitroso>  (233) 
0

>  <fr_oxazole>  (233) 
0

>  <fr_oxime>  (233) 
0

>  <fr_para_hydroxylation>  (233) 
0

>  <fr_phenol>  (233) 
0

>  <fr_phenol_noOrthoHbond>  (233) 
0

>  <fr_phos_acid>  (233) 
0

>  <fr_phos_ester>  (233) 
0

>  <fr_piperdine>  (233) 
0

>  <fr_piperzine>  (233) 
0

>  <fr_priamide>  (233) 
0

>  <fr_prisulfonamd>  (233) 
0

>  <fr_pyridine>  (233) 
2

>  <fr_quatN>  (233) 
0

>  <fr_sulfide>  (233) 
0

>  <fr_sulfonamd>  (233) 
0

>  <fr_sulfone>  (233) 
0

>  <fr_term_acetylene>  (233) 
0

>  <fr_tetrazole>  (233) 
0

>  <fr_thiazole>  (233) 
0

>  <fr_thiocyan>  (233) 
0

>  <fr_thiophene>  (233) 
0

>  <fr_unbrch_alkane>  (233) 
0

>  <fr_urea>  (233) 
0

>  <NP-Likeness>  (233) 
-0.610374

$$$$
OGB
     RDKit          3D

  0  0  0  0  0  0  0  0  0  0999 V3000
M  V30 BEGIN CTAB
M  V30 COUNTS 23 24 0 0 0
M  V30 BEGIN ATOM
M  V30 1 C 0.871006 0.705204 3.583623 0
M  V30 2 N 1.959173 -0.030165 3.862860 0
M  V30 3 C 2.562041 -0.835565 2.966449 0
M  V30 4 C 2.062304 -0.934454 1.685113 0
M  V30 5 C 2.566972 -1.710619 0.665489 0
M  V30 6 C 2.021817 -1.765645 -0.592681 0
M  V30 7 C 0.917685 -1.008123 -0.846017 0
M  V30 8 C 0.368052 -0.205549 0.151556 0
M  V30 9 C -0.796726 0.514693 -0.324034 0
M  V30 10 O -1.327673 0.502701 -1.439553 0
M  V30 11 O -1.732979 1.405208 0.116691 0
M  V30 12 C -2.761168 1.894168 -0.689871 0
M  V30 13 C 0.945421 -0.177980 1.402996 0
M  V30 14 C 0.326469 0.646651 2.317359 0
M  V30 15 H 0.393813 1.353293 4.321135 0
M  V30 16 H 3.441621 -1.432469 3.185517 0
M  V30 17 H 3.441617 -2.295889 0.905248 0
M  V30 18 H 2.510438 -2.415271 -1.310888 0
M  V30 19 H 0.537007 -1.103420 -1.874775 0
M  V30 20 H -3.375787 1.045695 -1.082785 0
M  V30 21 H -2.451084 2.598947 -1.478890 0
M  V30 22 H -3.421868 2.495106 0.001695 0
M  V30 23 H -0.543505 1.230324 2.082874 0
M  V30 END ATOM
M  V30 BEGIN BOND
M  V30 1 2 1 2
M  V30 2 1 2 3
M  V30 3 2 3 4
M  V30 4 1 4 5
M  V30 5 2 5 6
M  V30 6 1 6 7
M  V30 7 2 7 8
M  V30 8 1 8 9
M  V30 9 2 9 10
M  V30 10 1 9 11
M  V30 11 1 11 12
M  V30 12 1 8 13
M  V30 13 2 13 14
M  V30 14 1 14 1
M  V30 15 1 13 4
M  V30 16 1 1 15
M  V30 17 1 3 16
M  V30 18 1 5 17
M  V30 19 1 6 18
M  V30 20 1 7 19
M  V30 21 1 12 20
M  V30 22 1 12 21
M  V30 23 1 12 22
M  V30 24 1 14 23
M  V30 END BOND
M  V30 END CTAB
M  END
>  <Dataset>  (234) 
PDB

>  <Ligand_Instance>  (234) 
6Y89_OGB_A_401

>  <PDB_ID>  (234) 
6Y89

>  <Standardized_SMILES>  (234) 
[H]C1=NC([H])=C2C([H])=C([H])C([H])=C(C(=O)OC([H])([H])[H])C2=C1[H]

>  <Name>  (234) 
methyl isoquinoline-5-carboxylate

>  <Pocket>  (234) 
A

>  <ATP_Site>  (234) 
1.0

>  <Peripheral>  (234) 
0.0

>  <Num_H_Atoms_ProtBoundConf>  (234) 
9.0

>  <Num_Resolved_Atoms>  (234) 
14.0

>  <Num_Not_Resolved_Atoms>  (234) 
0.0

>  <2D_Mol_H>  (234) 
<rdkit.Chem.rdchem.Mol object at 0x72a238df3530>

>  <MW>  (234) 
187.198

>  <HBA>  (234) 
3

>  <HBD>  (234) 
0

>  <LogP>  (234) 
2.0214

>  <NRB>  (234) 
2

>  <TPSA>  (234) 
39.19

>  <Num_Heavy_Atoms>  (234) 
14

>  <Ro5>  (234) 
[True, True, True, True, True, True]

>  <Ro5_Fulfilled>  (234) 
True

>  <Ro3>  (234) 
[True, True, True, True]

>  <Ro3_Fulfilled>  (234) 
True

>  <Fsp3>  (234) 
0.090909

>  <Fsp3_0.42>  (234) 
False

>  <Fsp3_0.45>  (234) 
False

>  <Stereogenic_Carbons>  (234) 
0

>  <C_Atoms>  (234) 
11

>  <FCStereo>  (234) 
0.0

>  <SPS>  (234) 
141

>  <nSPS>  (234) 
10.071429

>  <PBF>  (234) 
0.087714

>  <PBF_0.6>  (234) 
False

>  <nPBF>  (234) 
0.006265

>  <nPBF_0.016>  (234) 
False

>  <PMI1>  (234) 
400.868505

>  <PMI2>  (234) 
922.641807

>  <PMI3>  (234) 
1320.088201

>  <NPR1>  (234) 
0.303668

>  <NPR2>  (234) 
0.698924

>  <Sum_NPR>  (234) 
1.002592

>  <Sum_NPR_1.07>  (234) 
False

>  <Sum_NPR_1.2>  (234) 
False

>  <MaxAbsEStateIndex>  (234) 
11.384781

>  <MaxEStateIndex>  (234) 
11.384781

>  <MinAbsEStateIndex>  (234) 
0.317778

>  <MinEStateIndex>  (234) 
-0.317778

>  <qed>  (234) 
0.640962

>  <MolWt>  (234) 
187.198

>  <HeavyAtomMolWt>  (234) 
178.126

>  <ExactMolWt>  (234) 
187.063329

>  <NumValenceElectrons>  (234) 
70

>  <NumRadicalElectrons>  (234) 
0

>  <MaxPartialCharge>  (234) 
0.337981

>  <MinPartialCharge>  (234) 
-0.465402

>  <MaxAbsPartialCharge>  (234) 
0.465402

>  <MinAbsPartialCharge>  (234) 
0.337981

>  <FpDensityMorgan1>  (234) 
1.357143

>  <FpDensityMorgan2>  (234) 
2.214286

>  <FpDensityMorgan3>  (234) 
3.0

>  <BCUT2D_MWHI>  (234) 
16.5233

>  <BCUT2D_MWLOW>  (234) 
10.075019

>  <BCUT2D_CHGHI>  (234) 
2.080636

>  <BCUT2D_CHGLO>  (234) 
-2.025269

>  <BCUT2D_LOGPHI>  (234) 
2.172159

>  <BCUT2D_LOGPLOW>  (234) 
-2.011277

>  <BCUT2D_MRHI>  (234) 
6.035786

>  <BCUT2D_MRLOW>  (234) 
0.060278

>  <AvgIpc>  (234) 
2.271051

>  <BalabanJ>  (234) 
2.707628

>  <BertzCT>  (234) 
474.176155

>  <Chi0>  (234) 
9.966255

>  <Chi0n>  (234) 
7.727812

>  <Chi0v>  (234) 
7.727812

>  <Chi1>  (234) 
6.825699

>  <Chi1n>  (234) 
4.237595

>  <Chi1v>  (234) 
4.237595

>  <Chi2n>  (234) 
2.893966

>  <Chi2v>  (234) 
2.893966

>  <Chi3n>  (234) 
2.086048

>  <Chi3v>  (234) 
2.086048

>  <Chi4n>  (234) 
1.410504

>  <Chi4v>  (234) 
1.410504

>  <HallKierAlpha>  (234) 
-1.9

>  <Ipc>  (234) 
2275.593347

>  <Kappa1>  (234) 
8.687378

>  <Kappa2>  (234) 
3.456277

>  <Kappa3>  (234) 
1.327568

>  <LabuteASA>  (234) 
81.337667

>  <PEOE_VSA1>  (234) 
4.736863

>  <PEOE_VSA10>  (234) 
0.0

>  <PEOE_VSA11>  (234) 
0.0

>  <PEOE_VSA12>  (234) 
0.0

>  <PEOE_VSA13>  (234) 
0.0

>  <PEOE_VSA14>  (234) 
5.969305

>  <PEOE_VSA2>  (234) 
4.983979

>  <PEOE_VSA3>  (234) 
4.794537

>  <PEOE_VSA4>  (234) 
0.0

>  <PEOE_VSA5>  (234) 
0.0

>  <PEOE_VSA6>  (234) 
12.132734

>  <PEOE_VSA7>  (234) 
17.518958

>  <PEOE_VSA8>  (234) 
17.779911

>  <PEOE_VSA9>  (234) 
12.673249

>  <SMR_VSA1>  (234) 
9.5314

>  <SMR_VSA10>  (234) 
16.741754

>  <SMR_VSA2>  (234) 
0.0

>  <SMR_VSA3>  (234) 
4.983979

>  <SMR_VSA4>  (234) 
0.0

>  <SMR_VSA5>  (234) 
0.0

>  <SMR_VSA6>  (234) 
7.109798

>  <SMR_VSA7>  (234) 
42.222607

>  <SMR_VSA8>  (234) 
0.0

>  <SMR_VSA9>  (234) 
0.0

>  <SlogP_VSA1>  (234) 
0.0

>  <SlogP_VSA10>  (234) 
0.0

>  <SlogP_VSA11>  (234) 
0.0

>  <SlogP_VSA12>  (234) 
0.0

>  <SlogP_VSA2>  (234) 
18.063081

>  <SlogP_VSA3>  (234) 
4.736863

>  <SlogP_VSA4>  (234) 
0.0

>  <SlogP_VSA5>  (234) 
10.357989

>  <SlogP_VSA6>  (234) 
36.659155

>  <SlogP_VSA7>  (234) 
0.0

>  <SlogP_VSA8>  (234) 
10.772448

>  <SlogP_VSA9>  (234) 
0.0

>  <EState_VSA1>  (234) 
0.0

>  <EState_VSA10>  (234) 
4.794537

>  <EState_VSA11>  (234) 
0.0

>  <EState_VSA2>  (234) 
5.969305

>  <EState_VSA3>  (234) 
5.563451

>  <EState_VSA4>  (234) 
10.772448

>  <EState_VSA5>  (234) 
7.109798

>  <EState_VSA6>  (234) 
18.460054

>  <EState_VSA7>  (234) 
18.199101

>  <EState_VSA8>  (234) 
9.720841

>  <EState_VSA9>  (234) 
0.0

>  <VSA_EState1>  (234) 
4.685019

>  <VSA_EState10>  (234) 
0.0

>  <VSA_EState2>  (234) 
15.37181

>  <VSA_EState3>  (234) 
1.809954

>  <VSA_EState4>  (234) 
0.576296

>  <VSA_EState5>  (234) 
-0.317778

>  <VSA_EState6>  (234) 
7.278565

>  <VSA_EState7>  (234) 
3.385463

>  <VSA_EState8>  (234) 
0.0

>  <VSA_EState9>  (234) 
1.377338

>  <FractionCSP3>  (234) 
0.090909

>  <HeavyAtomCount>  (234) 
14

>  <NHOHCount>  (234) 
0

>  <NOCount>  (234) 
3

>  <NumAliphaticCarbocycles>  (234) 
0

>  <NumAliphaticHeterocycles>  (234) 
0

>  <NumAliphaticRings>  (234) 
0

>  <NumAromaticCarbocycles>  (234) 
1

>  <NumAromaticHeterocycles>  (234) 
1

>  <NAR>  (234) 
2

>  <NumHAcceptors>  (234) 
3

>  <NumHDonors>  (234) 
0

>  <NumHeteroatoms>  (234) 
3

>  <NumRotatableBonds>  (234) 
1

>  <NumSaturatedCarbocycles>  (234) 
0

>  <NumSaturatedHeterocycles>  (234) 
0

>  <NumSaturatedRings>  (234) 
0

>  <RingCount>  (234) 
2

>  <MolLogP>  (234) 
2.0214

>  <MolMR>  (234) 
53.0825

>  <fr_Al_COO>  (234) 
0

>  <fr_Al_OH>  (234) 
0

>  <fr_Al_OH_noTert>  (234) 
0

>  <fr_ArN>  (234) 
0

>  <fr_Ar_COO>  (234) 
0

>  <fr_Ar_N>  (234) 
1

>  <fr_Ar_NH>  (234) 
0

>  <fr_Ar_OH>  (234) 
0

>  <fr_COO>  (234) 
0

>  <fr_COO2>  (234) 
0

>  <fr_C_O>  (234) 
1

>  <fr_C_O_noCOO>  (234) 
1

>  <fr_C_S>  (234) 
0

>  <fr_HOCCN>  (234) 
0

>  <fr_Imine>  (234) 
0

>  <fr_NH0>  (234) 
1

>  <fr_NH1>  (234) 
0

>  <fr_NH2>  (234) 
0

>  <fr_N_O>  (234) 
0

>  <fr_Ndealkylation1>  (234) 
0

>  <fr_Ndealkylation2>  (234) 
0

>  <fr_Nhpyrrole>  (234) 
0

>  <fr_SH>  (234) 
0

>  <fr_aldehyde>  (234) 
0

>  <fr_alkyl_carbamate>  (234) 
0

>  <fr_alkyl_halide>  (234) 
0

>  <fr_allylic_oxid>  (234) 
0

>  <fr_amide>  (234) 
0

>  <fr_amidine>  (234) 
0

>  <fr_aniline>  (234) 
0

>  <fr_aryl_methyl>  (234) 
0

>  <fr_azide>  (234) 
0

>  <fr_azo>  (234) 
0

>  <fr_barbitur>  (234) 
0

>  <fr_benzene>  (234) 
1

>  <fr_benzodiazepine>  (234) 
0

>  <fr_bicyclic>  (234) 
1

>  <fr_diazo>  (234) 
0

>  <fr_dihydropyridine>  (234) 
0

>  <fr_epoxide>  (234) 
0

>  <fr_ester>  (234) 
1

>  <fr_ether>  (234) 
1

>  <fr_furan>  (234) 
0

>  <fr_guanido>  (234) 
0

>  <fr_halogen>  (234) 
0

>  <fr_hdrzine>  (234) 
0

>  <fr_hdrzone>  (234) 
0

>  <fr_imidazole>  (234) 
0

>  <fr_imide>  (234) 
0

>  <fr_isocyan>  (234) 
0

>  <fr_isothiocyan>  (234) 
0

>  <fr_ketone>  (234) 
0

>  <fr_ketone_Topliss>  (234) 
0

>  <fr_lactam>  (234) 
0

>  <fr_lactone>  (234) 
0

>  <fr_methoxy>  (234) 
1

>  <fr_morpholine>  (234) 
0

>  <fr_nitrile>  (234) 
0

>  <fr_nitro>  (234) 
0

>  <fr_nitro_arom>  (234) 
0

>  <fr_nitro_arom_nonortho>  (234) 
0

>  <fr_nitroso>  (234) 
0

>  <fr_oxazole>  (234) 
0

>  <fr_oxime>  (234) 
0

>  <fr_para_hydroxylation>  (234) 
0

>  <fr_phenol>  (234) 
0

>  <fr_phenol_noOrthoHbond>  (234) 
0

>  <fr_phos_acid>  (234) 
0

>  <fr_phos_ester>  (234) 
0

>  <fr_piperdine>  (234) 
0

>  <fr_piperzine>  (234) 
0

>  <fr_priamide>  (234) 
0

>  <fr_prisulfonamd>  (234) 
0

>  <fr_pyridine>  (234) 
1

>  <fr_quatN>  (234) 
0

>  <fr_sulfide>  (234) 
0

>  <fr_sulfonamd>  (234) 
0

>  <fr_sulfone>  (234) 
0

>  <fr_term_acetylene>  (234) 
0

>  <fr_tetrazole>  (234) 
0

>  <fr_thiazole>  (234) 
0

>  <fr_thiocyan>  (234) 
0

>  <fr_thiophene>  (234) 
0

>  <fr_unbrch_alkane>  (234) 
0

>  <fr_urea>  (234) 
0

>  <NP-Likeness>  (234) 
-0.810897

$$$$
P4Q
     RDKit          3D

  0  0  0  0  0  0  0  0  0  0999 V3000
M  V30 BEGIN CTAB
M  V30 COUNTS 17 18 0 0 0
M  V30 BEGIN ATOM
M  V30 1 C -1.366302 -0.623400 0.607545 0
M  V30 2 N -0.682742 -0.658835 1.767547 0
M  V30 3 C 0.552880 -0.154117 1.916904 0
M  V30 4 C 1.242716 -0.201061 3.125849 0
M  V30 5 C 2.520123 0.367765 3.119199 0
M  V30 6 C 3.093941 0.946455 2.009662 0
M  V30 7 N 2.418428 0.987972 0.841058 0
M  V30 8 C 1.179283 0.444001 0.820751 0
M  V30 9 C 0.479636 0.480803 -0.368381 0
M  V30 10 N 0.991110 1.056929 -1.564022 0
M  V30 11 N -0.752534 -0.041562 -0.452063 0
M  V30 12 H -2.362104 -1.053508 0.567113 0
M  V30 13 H 0.781493 -0.652080 3.969271 0
M  V30 14 H 3.016745 0.306323 4.084235 0
M  V30 15 H 4.098329 1.361389 2.115174 0
M  V30 16 H 1.623188 0.369331 -2.004650 0
M  V30 17 H 0.882759 1.970650 -2.078166 0
M  V30 END ATOM
M  V30 BEGIN BOND
M  V30 1 2 1 2
M  V30 2 1 2 3
M  V30 3 2 3 4
M  V30 4 1 4 5
M  V30 5 2 5 6
M  V30 6 1 6 7
M  V30 7 2 7 8
M  V30 8 1 8 9
M  V30 9 1 9 10
M  V30 10 2 9 11
M  V30 11 1 11 1
M  V30 12 1 8 3
M  V30 13 1 1 12
M  V30 14 1 4 13
M  V30 15 1 5 14
M  V30 16 1 6 15
M  V30 17 1 10 16
M  V30 18 1 10 17
M  V30 END BOND
M  V30 END CTAB
M  END
>  <Dataset>  (235) 
PDB

>  <Ligand_Instance>  (235) 
6YOU_P4Q_A_401

>  <PDB_ID>  (235) 
6YOU

>  <Standardized_SMILES>  (235) 
[H]C1=NC2=C([H])C([H])=C([H])N=C2C(N([H])[H])=N1

>  <Name>  (235) 
pyrido[3,2-d]pyrimidin-4-amine

>  <Pocket>  (235) 
A

>  <ATP_Site>  (235) 
1.0

>  <Peripheral>  (235) 
0.0

>  <Num_H_Atoms_ProtBoundConf>  (235) 
6.0

>  <Num_Resolved_Atoms>  (235) 
11.0

>  <Num_Not_Resolved_Atoms>  (235) 
0.0

>  <2D_Mol_H>  (235) 
<rdkit.Chem.rdchem.Mol object at 0x72a238df3610>

>  <MW>  (235) 
146.153

>  <HBA>  (235) 
4

>  <HBD>  (235) 
1

>  <LogP>  (235) 
0.607

>  <NRB>  (235) 
1

>  <TPSA>  (235) 
64.69

>  <Num_Heavy_Atoms>  (235) 
11

>  <Ro5>  (235) 
[True, True, True, True, True, True]

>  <Ro5_Fulfilled>  (235) 
True

>  <Ro3>  (235) 
[True, False, True, True]

>  <Ro3_Fulfilled>  (235) 
True

>  <Fsp3>  (235) 
0.0

>  <Fsp3_0.42>  (235) 
False

>  <Fsp3_0.45>  (235) 
False

>  <Stereogenic_Carbons>  (235) 
0

>  <C_Atoms>  (235) 
7

>  <FCStereo>  (235) 
0.0

>  <SPS>  (235) 
112

>  <nSPS>  (235) 
10.181818

>  <PBF>  (235) 
0.110527

>  <PBF_0.6>  (235) 
False

>  <nPBF>  (235) 
0.010048

>  <nPBF_0.016>  (235) 
False

>  <PMI1>  (235) 
250.621477

>  <PMI2>  (235) 
420.489249

>  <PMI3>  (235) 
668.185767

>  <NPR1>  (235) 
0.375078

>  <NPR2>  (235) 
0.6293

>  <Sum_NPR>  (235) 
1.004377

>  <Sum_NPR_1.07>  (235) 
False

>  <Sum_NPR_1.2>  (235) 
False

>  <MaxAbsEStateIndex>  (235) 
5.542593

>  <MaxEStateIndex>  (235) 
5.542593

>  <MinAbsEStateIndex>  (235) 
0.426481

>  <MinEStateIndex>  (235) 
0.426481

>  <qed>  (235) 
0.590891

>  <MolWt>  (235) 
146.153

>  <HeavyAtomMolWt>  (235) 
140.105

>  <ExactMolWt>  (235) 
146.059246

>  <NumValenceElectrons>  (235) 
54

>  <NumRadicalElectrons>  (235) 
0

>  <MaxPartialCharge>  (235) 
0.152933

>  <MinPartialCharge>  (235) 
-0.381782

>  <MaxAbsPartialCharge>  (235) 
0.381782

>  <MinAbsPartialCharge>  (235) 
0.152933

>  <FpDensityMorgan1>  (235) 
1.181818

>  <FpDensityMorgan2>  (235) 
2.090909

>  <FpDensityMorgan3>  (235) 
2.909091

>  <BCUT2D_MWHI>  (235) 
14.935309

>  <BCUT2D_MWLOW>  (235) 
10.341774

>  <BCUT2D_CHGHI>  (235) 
1.969096

>  <BCUT2D_CHGLO>  (235) 
-1.95271

>  <BCUT2D_LOGPHI>  (235) 
2.103495

>  <BCUT2D_LOGPLOW>  (235) 
-1.935755

>  <BCUT2D_MRHI>  (235) 
5.823601

>  <BCUT2D_MRLOW>  (235) 
1.204764

>  <AvgIpc>  (235) 
2.05595

>  <BalabanJ>  (235) 
2.913161

>  <BertzCT>  (235) 
379.602287

>  <Chi0>  (235) 
7.681798

>  <Chi0n>  (235) 
5.728392

>  <Chi0v>  (235) 
5.728392

>  <Chi1>  (235) 
5.37701

>  <Chi1n>  (235) 
3.189434

>  <Chi1v>  (235) 
3.189434

>  <Chi2n>  (235) 
2.130044

>  <Chi2v>  (235) 
2.130044

>  <Chi3n>  (235) 
1.422676

>  <Chi3v>  (235) 
1.422676

>  <Chi4n>  (235) 
0.912756

>  <Chi4v>  (235) 
0.912756

>  <HallKierAlpha>  (235) 
-1.71

>  <Ipc>  (235) 
505.763735

>  <Kappa1>  (235) 
6.029677

>  <Kappa2>  (235) 
2.157472

>  <Kappa3>  (235) 
0.881437

>  <LabuteASA>  (235) 
63.111902

>  <PEOE_VSA1>  (235) 
5.733667

>  <PEOE_VSA10>  (235) 
11.844021

>  <PEOE_VSA11>  (235) 
5.817863

>  <PEOE_VSA12>  (235) 
0.0

>  <PEOE_VSA13>  (235) 
0.0

>  <PEOE_VSA14>  (235) 
0.0

>  <PEOE_VSA2>  (235) 
4.983979

>  <PEOE_VSA3>  (235) 
9.967957

>  <PEOE_VSA4>  (235) 
0.0

>  <PEOE_VSA5>  (235) 
0.0

>  <PEOE_VSA6>  (235) 
0.0

>  <PEOE_VSA7>  (235) 
12.132734

>  <PEOE_VSA8>  (235) 
6.196844

>  <PEOE_VSA9>  (235) 
5.516701

>  <SMR_VSA1>  (235) 
0.0

>  <SMR_VSA10>  (235) 
16.851264

>  <SMR_VSA2>  (235) 
0.0

>  <SMR_VSA3>  (235) 
14.951936

>  <SMR_VSA4>  (235) 
0.0

>  <SMR_VSA5>  (235) 
0.0

>  <SMR_VSA6>  (235) 
5.733667

>  <SMR_VSA7>  (235) 
24.656898

>  <SMR_VSA8>  (235) 
0.0

>  <SMR_VSA9>  (235) 
0.0

>  <SlogP_VSA1>  (235) 
5.733667

>  <SlogP_VSA10>  (235) 
5.817863

>  <SlogP_VSA11>  (235) 
0.0

>  <SlogP_VSA12>  (235) 
0.0

>  <SlogP_VSA2>  (235) 
14.951936

>  <SlogP_VSA3>  (235) 
0.0

>  <SlogP_VSA4>  (235) 
0.0

>  <SlogP_VSA5>  (235) 
0.0

>  <SlogP_VSA6>  (235) 
24.656898

>  <SlogP_VSA7>  (235) 
0.0

>  <SlogP_VSA8>  (235) 
11.033401

>  <SlogP_VSA9>  (235) 
0.0

>  <EState_VSA1>  (235) 
0.0

>  <EState_VSA10>  (235) 
0.0

>  <EState_VSA11>  (235) 
0.0

>  <EState_VSA2>  (235) 
0.0

>  <EState_VSA3>  (235) 
11.334563

>  <EState_VSA4>  (235) 
5.516701

>  <EState_VSA5>  (235) 
6.32732

>  <EState_VSA6>  (235) 
6.196844

>  <EState_VSA7>  (235) 
12.132734

>  <EState_VSA8>  (235) 
14.951936

>  <EState_VSA9>  (235) 
5.733667

>  <VSA_EState1>  (235) 
0.0

>  <VSA_EState10>  (235) 
0.0

>  <VSA_EState2>  (235) 
11.830648

>  <VSA_EState3>  (235) 
0.0

>  <VSA_EState4>  (235) 
6.982407

>  <VSA_EState5>  (235) 
0.426481

>  <VSA_EState6>  (235) 
3.661852

>  <VSA_EState7>  (235) 
3.098611

>  <VSA_EState8>  (235) 
0.0

>  <VSA_EState9>  (235) 
0.0

>  <FractionCSP3>  (235) 
0.0

>  <HeavyAtomCount>  (235) 
11

>  <NHOHCount>  (235) 
2

>  <NOCount>  (235) 
4

>  <NumAliphaticCarbocycles>  (235) 
0

>  <NumAliphaticHeterocycles>  (235) 
0

>  <NumAliphaticRings>  (235) 
0

>  <NumAromaticCarbocycles>  (235) 
0

>  <NumAromaticHeterocycles>  (235) 
2

>  <NAR>  (235) 
2

>  <NumHAcceptors>  (235) 
4

>  <NumHDonors>  (235) 
1

>  <NumHeteroatoms>  (235) 
4

>  <NumRotatableBonds>  (235) 
0

>  <NumSaturatedCarbocycles>  (235) 
0

>  <NumSaturatedHeterocycles>  (235) 
0

>  <NumSaturatedRings>  (235) 
0

>  <RingCount>  (235) 
2

>  <MolLogP>  (235) 
0.607

>  <MolMR>  (235) 
41.7454

>  <fr_Al_COO>  (235) 
0

>  <fr_Al_OH>  (235) 
0

>  <fr_Al_OH_noTert>  (235) 
0

>  <fr_ArN>  (235) 
1

>  <fr_Ar_COO>  (235) 
0

>  <fr_Ar_N>  (235) 
3

>  <fr_Ar_NH>  (235) 
0

>  <fr_Ar_OH>  (235) 
0

>  <fr_COO>  (235) 
0

>  <fr_COO2>  (235) 
0

>  <fr_C_O>  (235) 
0

>  <fr_C_O_noCOO>  (235) 
0

>  <fr_C_S>  (235) 
0

>  <fr_HOCCN>  (235) 
0

>  <fr_Imine>  (235) 
0

>  <fr_NH0>  (235) 
3

>  <fr_NH1>  (235) 
0

>  <fr_NH2>  (235) 
1

>  <fr_N_O>  (235) 
0

>  <fr_Ndealkylation1>  (235) 
0

>  <fr_Ndealkylation2>  (235) 
0

>  <fr_Nhpyrrole>  (235) 
0

>  <fr_SH>  (235) 
0

>  <fr_aldehyde>  (235) 
0

>  <fr_alkyl_carbamate>  (235) 
0

>  <fr_alkyl_halide>  (235) 
0

>  <fr_allylic_oxid>  (235) 
0

>  <fr_amide>  (235) 
0

>  <fr_amidine>  (235) 
0

>  <fr_aniline>  (235) 
1

>  <fr_aryl_methyl>  (235) 
0

>  <fr_azide>  (235) 
0

>  <fr_azo>  (235) 
0

>  <fr_barbitur>  (235) 
0

>  <fr_benzene>  (235) 
0

>  <fr_benzodiazepine>  (235) 
0

>  <fr_bicyclic>  (235) 
1

>  <fr_diazo>  (235) 
0

>  <fr_dihydropyridine>  (235) 
0

>  <fr_epoxide>  (235) 
0

>  <fr_ester>  (235) 
0

>  <fr_ether>  (235) 
0

>  <fr_furan>  (235) 
0

>  <fr_guanido>  (235) 
0

>  <fr_halogen>  (235) 
0

>  <fr_hdrzine>  (235) 
0

>  <fr_hdrzone>  (235) 
0

>  <fr_imidazole>  (235) 
0

>  <fr_imide>  (235) 
0

>  <fr_isocyan>  (235) 
0

>  <fr_isothiocyan>  (235) 
0

>  <fr_ketone>  (235) 
0

>  <fr_ketone_Topliss>  (235) 
0

>  <fr_lactam>  (235) 
0

>  <fr_lactone>  (235) 
0

>  <fr_methoxy>  (235) 
0

>  <fr_morpholine>  (235) 
0

>  <fr_nitrile>  (235) 
0

>  <fr_nitro>  (235) 
0

>  <fr_nitro_arom>  (235) 
0

>  <fr_nitro_arom_nonortho>  (235) 
0

>  <fr_nitroso>  (235) 
0

>  <fr_oxazole>  (235) 
0

>  <fr_oxime>  (235) 
0

>  <fr_para_hydroxylation>  (235) 
0

>  <fr_phenol>  (235) 
0

>  <fr_phenol_noOrthoHbond>  (235) 
0

>  <fr_phos_acid>  (235) 
0

>  <fr_phos_ester>  (235) 
0

>  <fr_piperdine>  (235) 
0

>  <fr_piperzine>  (235) 
0

>  <fr_priamide>  (235) 
0

>  <fr_prisulfonamd>  (235) 
0

>  <fr_pyridine>  (235) 
1

>  <fr_quatN>  (235) 
0

>  <fr_sulfide>  (235) 
0

>  <fr_sulfonamd>  (235) 
0

>  <fr_sulfone>  (235) 
0

>  <fr_term_acetylene>  (235) 
0

>  <fr_tetrazole>  (235) 
0

>  <fr_thiazole>  (235) 
0

>  <fr_thiocyan>  (235) 
0

>  <fr_thiophene>  (235) 
0

>  <fr_unbrch_alkane>  (235) 
0

>  <fr_urea>  (235) 
0

>  <NP-Likeness>  (235) 
-0.959625

$$$$
P4W
     RDKit          3D

  0  0  0  0  0  0  0  0  0  0999 V3000
M  V30 BEGIN CTAB
M  V30 COUNTS 28 29 0 0 0
M  V30 BEGIN ATOM
M  V30 1 C 0.162423 -2.260350 3.360073 0
M  V30 2 N 0.920052 -3.374228 3.187798 0
M  V30 3 C 1.754222 -3.512579 2.141067 0
M  V30 4 C 1.898321 -2.537741 1.173563 0
M  V30 5 C 2.763998 -2.690752 0.094745 0
M  V30 6 C 2.826031 -1.654204 -0.807661 0
M  V30 7 C 2.095444 -0.494162 -0.709218 0
M  V30 8 C 1.223981 -0.335872 0.373458 0
M  V30 9 S 0.247732 1.060586 0.626057 0
M  V30 10 O 0.417359 1.929207 -0.608534 0
M  V30 11 O 0.690834 1.945918 1.753395 0
M  V30 12 N -1.435028 0.716934 0.657695 0
M  V30 13 C -1.796371 0.166800 -0.635497 0
M  V30 14 C -2.266280 1.818486 0.967491 0
M  V30 15 C 1.142568 -1.367392 1.298758 0
M  V30 16 C 0.301679 -1.272524 2.389044 0
M  V30 17 H -0.521668 -2.120114 4.197403 0
M  V30 18 H 2.344729 -4.414618 2.033472 0
M  V30 19 H 3.348039 -3.597300 -0.000334 0
M  V30 20 H 3.494393 -1.750150 -1.658048 0
M  V30 21 H 2.158123 0.316335 -1.434456 0
M  V30 22 H -1.254900 0.759452 -1.402843 0
M  V30 23 H -1.508537 -0.911724 -0.714431 0
M  V30 24 H -2.882513 0.280575 -0.760975 0
M  V30 25 H -1.772947 2.804164 0.756751 0
M  V30 26 H -2.677006 1.811455 1.998263 0
M  V30 27 H -3.165256 1.791856 0.315580 0
M  V30 28 H -0.303817 -0.361045 2.509992 0
M  V30 END ATOM
M  V30 BEGIN BOND
M  V30 1 2 1 2
M  V30 2 1 2 3
M  V30 3 2 3 4
M  V30 4 1 4 5
M  V30 5 2 5 6
M  V30 6 1 6 7
M  V30 7 2 7 8
M  V30 8 1 8 9
M  V30 9 2 9 10
M  V30 10 2 9 11
M  V30 11 1 9 12
M  V30 12 1 12 13
M  V30 13 1 12 14
M  V30 14 1 8 15
M  V30 15 2 15 16
M  V30 16 1 16 1
M  V30 17 1 15 4
M  V30 18 1 1 17
M  V30 19 1 3 18
M  V30 20 1 5 19
M  V30 21 1 6 20
M  V30 22 1 7 21
M  V30 23 1 13 22
M  V30 24 1 13 23
M  V30 25 1 13 24
M  V30 26 1 14 25
M  V30 27 1 14 26
M  V30 28 1 14 27
M  V30 29 1 16 28
M  V30 END BOND
M  V30 END CTAB
M  END
>  <Dataset>  (236) 
PDB

>  <Ligand_Instance>  (236) 
6YOT_P4W_A_401

>  <PDB_ID>  (236) 
6YOT

>  <Standardized_SMILES>  (236) 
[H]C1=NC([H])=C2C([H])=C([H])C([H])=C(S(=O)(=O)N(C([H])([H])[H])C([H])([H])[H])C2=C1[H]

>  <Name>  (236) 
~{N},~{N}-dimethylisoquinoline-5-sulfonamide

>  <Pocket>  (236) 
A

>  <ATP_Site>  (236) 
1.0

>  <Peripheral>  (236) 
1.0

>  <Num_H_Atoms_ProtBoundConf>  (236) 
12.0

>  <Num_Resolved_Atoms>  (236) 
16.0

>  <Num_Not_Resolved_Atoms>  (236) 
0.0

>  <2D_Mol_H>  (236) 
<rdkit.Chem.rdchem.Mol object at 0x72a238df36f0>

>  <MW>  (236) 
236.296

>  <HBA>  (236) 
3

>  <HBD>  (236) 
0

>  <LogP>  (236) 
1.4851

>  <NRB>  (236) 
4

>  <TPSA>  (236) 
50.27

>  <Num_Heavy_Atoms>  (236) 
16

>  <Ro5>  (236) 
[True, True, True, True, True, True]

>  <Ro5_Fulfilled>  (236) 
True

>  <Ro3>  (236) 
[True, True, True, True]

>  <Ro3_Fulfilled>  (236) 
True

>  <Fsp3>  (236) 
0.181818

>  <Fsp3_0.42>  (236) 
False

>  <Fsp3_0.45>  (236) 
False

>  <Stereogenic_Carbons>  (236) 
0

>  <C_Atoms>  (236) 
11

>  <FCStereo>  (236) 
0.0

>  <SPS>  (236) 
195

>  <nSPS>  (236) 
12.1875

>  <PBF>  (236) 
0.665096

>  <PBF_0.6>  (236) 
True

>  <nPBF>  (236) 
0.041569

>  <nPBF_0.016>  (236) 
True

>  <PMI1>  (236) 
601.673539

>  <PMI2>  (236) 
1247.271494

>  <PMI3>  (236) 
1556.31328

>  <NPR1>  (236) 
0.386602

>  <NPR2>  (236) 
0.801427

>  <Sum_NPR>  (236) 
1.188029

>  <Sum_NPR_1.07>  (236) 
True

>  <Sum_NPR_1.2>  (236) 
False

>  <MaxAbsEStateIndex>  (236) 
12.051447

>  <MaxEStateIndex>  (236) 
12.051447

>  <MinAbsEStateIndex>  (236) 
0.317037

>  <MinEStateIndex>  (236) 
-3.39794

>  <qed>  (236) 
0.793335

>  <MolWt>  (236) 
236.296

>  <HeavyAtomMolWt>  (236) 
224.2

>  <ExactMolWt>  (236) 
236.061949

>  <NumValenceElectrons>  (236) 
84

>  <NumRadicalElectrons>  (236) 
0

>  <MaxPartialCharge>  (236) 
0.24268

>  <MinPartialCharge>  (236) 
-0.264064

>  <MaxAbsPartialCharge>  (236) 
0.264064

>  <MinAbsPartialCharge>  (236) 
0.24268

>  <FpDensityMorgan1>  (236) 
1.1875

>  <FpDensityMorgan2>  (236) 
1.9375

>  <FpDensityMorgan3>  (236) 
2.625

>  <BCUT2D_MWHI>  (236) 
32.233425

>  <BCUT2D_MWLOW>  (236) 
10.168338

>  <BCUT2D_CHGHI>  (236) 
2.188381

>  <BCUT2D_CHGLO>  (236) 
-2.125463

>  <BCUT2D_LOGPHI>  (236) 
2.230424

>  <BCUT2D_LOGPLOW>  (236) 
-2.21905

>  <BCUT2D_MRHI>  (236) 
7.889132

>  <BCUT2D_MRLOW>  (236) 
0.521471

>  <AvgIpc>  (236) 
2.277009

>  <BalabanJ>  (236) 
2.803917

>  <BertzCT>  (236) 
615.422097

>  <Chi0>  (236) 
11.759149

>  <Chi0n>  (236) 
9.083274

>  <Chi0v>  (236) 
9.89977

>  <Chi1>  (236) 
7.531711

>  <Chi1n>  (236) 
4.785557

>  <Chi1v>  (236) 
6.225621

>  <Chi2n>  (236) 
3.640388

>  <Chi2v>  (236) 
5.760644

>  <Chi3n>  (236) 
2.399359

>  <Chi3v>  (236) 
4.272601

>  <Chi4n>  (236) 
1.514465

>  <Chi4v>  (236) 
2.622194

>  <HallKierAlpha>  (236) 
-1.46

>  <Ipc>  (236) 
4390.072449

>  <Kappa1>  (236) 
11.038237

>  <Kappa2>  (236) 
3.842384

>  <Kappa3>  (236) 
1.678749

>  <LabuteASA>  (236) 
94.583209

>  <PEOE_VSA1>  (236) 
0.0

>  <PEOE_VSA10>  (236) 
0.0

>  <PEOE_VSA11>  (236) 
0.0

>  <PEOE_VSA12>  (236) 
10.023291

>  <PEOE_VSA13>  (236) 
0.0

>  <PEOE_VSA14>  (236) 
0.0

>  <PEOE_VSA2>  (236) 
4.983979

>  <PEOE_VSA3>  (236) 
12.723013

>  <PEOE_VSA4>  (236) 
0.0

>  <PEOE_VSA5>  (236) 
0.0

>  <PEOE_VSA6>  (236) 
12.132734

>  <PEOE_VSA7>  (236) 
12.132734

>  <PEOE_VSA8>  (236) 
37.26148

>  <PEOE_VSA9>  (236) 
4.895483

>  <SMR_VSA1>  (236) 
8.417797

>  <SMR_VSA10>  (236) 
20.79574

>  <SMR_VSA2>  (236) 
0.0

>  <SMR_VSA3>  (236) 
9.289195

>  <SMR_VSA4>  (236) 
0.0

>  <SMR_VSA5>  (236) 
4.895483

>  <SMR_VSA6>  (236) 
14.095344

>  <SMR_VSA7>  (236) 
36.659155

>  <SMR_VSA8>  (236) 
0.0

>  <SMR_VSA9>  (236) 
0.0

>  <SlogP_VSA1>  (236) 
0.0

>  <SlogP_VSA10>  (236) 
0.0

>  <SlogP_VSA11>  (236) 
0.0

>  <SlogP_VSA12>  (236) 
0.0

>  <SlogP_VSA2>  (236) 
31.802335

>  <SlogP_VSA3>  (236) 
10.023291

>  <SlogP_VSA4>  (236) 
0.0

>  <SlogP_VSA5>  (236) 
0.0

>  <SlogP_VSA6>  (236) 
41.554639

>  <SlogP_VSA7>  (236) 
0.0

>  <SlogP_VSA8>  (236) 
10.772448

>  <SlogP_VSA9>  (236) 
0.0

>  <EState_VSA1>  (236) 
10.023291

>  <EState_VSA10>  (236) 
8.417797

>  <EState_VSA11>  (236) 
0.0

>  <EState_VSA2>  (236) 
0.0

>  <EState_VSA3>  (236) 
10.281708

>  <EState_VSA4>  (236) 
5.386224

>  <EState_VSA5>  (236) 
18.40056

>  <EState_VSA6>  (236) 
30.592788

>  <EState_VSA7>  (236) 
6.066367

>  <EState_VSA8>  (236) 
4.983979

>  <EState_VSA9>  (236) 
0.0

>  <VSA_EState1>  (236) 
25.313413

>  <VSA_EState10>  (236) 
0.0

>  <VSA_EState2>  (236) 
4.289504

>  <VSA_EState3>  (236) 
1.524653

>  <VSA_EState4>  (236) 
0.0

>  <VSA_EState5>  (236) 
0.0

>  <VSA_EState6>  (236) 
6.889676

>  <VSA_EState7>  (236) 
3.251019

>  <VSA_EState8>  (236) 
0.0

>  <VSA_EState9>  (236) 
-0.351597

>  <FractionCSP3>  (236) 
0.181818

>  <HeavyAtomCount>  (236) 
16

>  <NHOHCount>  (236) 
0

>  <NOCount>  (236) 
4

>  <NumAliphaticCarbocycles>  (236) 
0

>  <NumAliphaticHeterocycles>  (236) 
0

>  <NumAliphaticRings>  (236) 
0

>  <NumAromaticCarbocycles>  (236) 
1

>  <NumAromaticHeterocycles>  (236) 
1

>  <NAR>  (236) 
2

>  <NumHAcceptors>  (236) 
3

>  <NumHDonors>  (236) 
0

>  <NumHeteroatoms>  (236) 
5

>  <NumRotatableBonds>  (236) 
2

>  <NumSaturatedCarbocycles>  (236) 
0

>  <NumSaturatedHeterocycles>  (236) 
0

>  <NumSaturatedRings>  (236) 
0

>  <RingCount>  (236) 
2

>  <MolLogP>  (236) 
1.4851

>  <MolMR>  (236) 
62.6158

>  <fr_Al_COO>  (236) 
0

>  <fr_Al_OH>  (236) 
0

>  <fr_Al_OH_noTert>  (236) 
0

>  <fr_ArN>  (236) 
0

>  <fr_Ar_COO>  (236) 
0

>  <fr_Ar_N>  (236) 
1

>  <fr_Ar_NH>  (236) 
0

>  <fr_Ar_OH>  (236) 
0

>  <fr_COO>  (236) 
0

>  <fr_COO2>  (236) 
0

>  <fr_C_O>  (236) 
0

>  <fr_C_O_noCOO>  (236) 
0

>  <fr_C_S>  (236) 
0

>  <fr_HOCCN>  (236) 
0

>  <fr_Imine>  (236) 
0

>  <fr_NH0>  (236) 
2

>  <fr_NH1>  (236) 
0

>  <fr_NH2>  (236) 
0

>  <fr_N_O>  (236) 
0

>  <fr_Ndealkylation1>  (236) 
0

>  <fr_Ndealkylation2>  (236) 
0

>  <fr_Nhpyrrole>  (236) 
0

>  <fr_SH>  (236) 
0

>  <fr_aldehyde>  (236) 
0

>  <fr_alkyl_carbamate>  (236) 
0

>  <fr_alkyl_halide>  (236) 
0

>  <fr_allylic_oxid>  (236) 
0

>  <fr_amide>  (236) 
0

>  <fr_amidine>  (236) 
0

>  <fr_aniline>  (236) 
0

>  <fr_aryl_methyl>  (236) 
0

>  <fr_azide>  (236) 
0

>  <fr_azo>  (236) 
0

>  <fr_barbitur>  (236) 
0

>  <fr_benzene>  (236) 
1

>  <fr_benzodiazepine>  (236) 
0

>  <fr_bicyclic>  (236) 
1

>  <fr_diazo>  (236) 
0

>  <fr_dihydropyridine>  (236) 
0

>  <fr_epoxide>  (236) 
0

>  <fr_ester>  (236) 
0

>  <fr_ether>  (236) 
0

>  <fr_furan>  (236) 
0

>  <fr_guanido>  (236) 
0

>  <fr_halogen>  (236) 
0

>  <fr_hdrzine>  (236) 
0

>  <fr_hdrzone>  (236) 
0

>  <fr_imidazole>  (236) 
0

>  <fr_imide>  (236) 
0

>  <fr_isocyan>  (236) 
0

>  <fr_isothiocyan>  (236) 
0

>  <fr_ketone>  (236) 
0

>  <fr_ketone_Topliss>  (236) 
0

>  <fr_lactam>  (236) 
0

>  <fr_lactone>  (236) 
0

>  <fr_methoxy>  (236) 
0

>  <fr_morpholine>  (236) 
0

>  <fr_nitrile>  (236) 
0

>  <fr_nitro>  (236) 
0

>  <fr_nitro_arom>  (236) 
0

>  <fr_nitro_arom_nonortho>  (236) 
0

>  <fr_nitroso>  (236) 
0

>  <fr_oxazole>  (236) 
0

>  <fr_oxime>  (236) 
0

>  <fr_para_hydroxylation>  (236) 
0

>  <fr_phenol>  (236) 
0

>  <fr_phenol_noOrthoHbond>  (236) 
0

>  <fr_phos_acid>  (236) 
0

>  <fr_phos_ester>  (236) 
0

>  <fr_piperdine>  (236) 
0

>  <fr_piperzine>  (236) 
0

>  <fr_priamide>  (236) 
0

>  <fr_prisulfonamd>  (236) 
0

>  <fr_pyridine>  (236) 
1

>  <fr_quatN>  (236) 
0

>  <fr_sulfide>  (236) 
0

>  <fr_sulfonamd>  (236) 
1

>  <fr_sulfone>  (236) 
0

>  <fr_term_acetylene>  (236) 
0

>  <fr_tetrazole>  (236) 
0

>  <fr_thiazole>  (236) 
0

>  <fr_thiocyan>  (236) 
0

>  <fr_thiophene>  (236) 
0

>  <fr_unbrch_alkane>  (236) 
0

>  <fr_urea>  (236) 
0

>  <NP-Likeness>  (236) 
-1.715011

$$$$
P4W
     RDKit          3D

  0  0  0  0  0  0  0  0  0  0999 V3000
M  V30 BEGIN CTAB
M  V30 COUNTS 28 29 0 0 0
M  V30 BEGIN ATOM
M  V30 1 C 0.162423 -2.260350 3.360073 0
M  V30 2 N 0.920052 -3.374228 3.187798 0
M  V30 3 C 1.754222 -3.512579 2.141067 0
M  V30 4 C 1.898321 -2.537741 1.173563 0
M  V30 5 C 2.763998 -2.690752 0.094745 0
M  V30 6 C 2.826031 -1.654204 -0.807661 0
M  V30 7 C 2.095444 -0.494162 -0.709218 0
M  V30 8 C 1.223981 -0.335872 0.373458 0
M  V30 9 S 0.247732 1.060586 0.626057 0
M  V30 10 O 0.417359 1.929207 -0.608534 0
M  V30 11 O 0.690834 1.945918 1.753395 0
M  V30 12 N -1.435028 0.716934 0.657695 0
M  V30 13 C -1.796371 0.166800 -0.635497 0
M  V30 14 C -2.266280 1.818486 0.967491 0
M  V30 15 C 1.142568 -1.367392 1.298758 0
M  V30 16 C 0.301679 -1.272524 2.389044 0
M  V30 17 H -0.521668 -2.120114 4.197403 0
M  V30 18 H 2.344729 -4.414618 2.033472 0
M  V30 19 H 3.348039 -3.597300 -0.000334 0
M  V30 20 H 3.494393 -1.750150 -1.658048 0
M  V30 21 H 2.158123 0.316335 -1.434456 0
M  V30 22 H -1.254900 0.759452 -1.402843 0
M  V30 23 H -1.508537 -0.911724 -0.714431 0
M  V30 24 H -2.882513 0.280575 -0.760975 0
M  V30 25 H -1.772947 2.804164 0.756751 0
M  V30 26 H -2.677006 1.811455 1.998263 0
M  V30 27 H -3.165256 1.791856 0.315580 0
M  V30 28 H -0.303817 -0.361045 2.509992 0
M  V30 END ATOM
M  V30 BEGIN BOND
M  V30 1 2 1 2
M  V30 2 1 2 3
M  V30 3 2 3 4
M  V30 4 1 4 5
M  V30 5 2 5 6
M  V30 6 1 6 7
M  V30 7 2 7 8
M  V30 8 1 8 9
M  V30 9 2 9 10
M  V30 10 2 9 11
M  V30 11 1 9 12
M  V30 12 1 12 13
M  V30 13 1 12 14
M  V30 14 1 8 15
M  V30 15 2 15 16
M  V30 16 1 16 1
M  V30 17 1 15 4
M  V30 18 1 1 17
M  V30 19 1 3 18
M  V30 20 1 5 19
M  V30 21 1 6 20
M  V30 22 1 7 21
M  V30 23 1 13 22
M  V30 24 1 13 23
M  V30 25 1 13 24
M  V30 26 1 14 25
M  V30 27 1 14 26
M  V30 28 1 14 27
M  V30 29 1 16 28
M  V30 END BOND
M  V30 END CTAB
M  END
>  <Dataset>  (237) 
PDB

>  <Ligand_Instance>  (237) 
6YOT_P4W_A_402

>  <PDB_ID>  (237) 
6YOT

>  <Standardized_SMILES>  (237) 
[H]C1=NC([H])=C2C([H])=C([H])C([H])=C(S(=O)(=O)N(C([H])([H])[H])C([H])([H])[H])C2=C1[H]

>  <Name>  (237) 
~{N},~{N}-dimethylisoquinoline-5-sulfonamide

>  <Pocket>  (237) 
X

>  <ATP_Site>  (237) 
1.0

>  <Peripheral>  (237) 
1.0

>  <Num_H_Atoms_ProtBoundConf>  (237) 
12.0

>  <Num_Resolved_Atoms>  (237) 
16.0

>  <Num_Not_Resolved_Atoms>  (237) 
0.0

>  <2D_Mol_H>  (237) 
<rdkit.Chem.rdchem.Mol object at 0x72a238df37d0>

>  <MW>  (237) 
236.296

>  <HBA>  (237) 
3

>  <HBD>  (237) 
0

>  <LogP>  (237) 
1.4851

>  <NRB>  (237) 
4

>  <TPSA>  (237) 
50.27

>  <Num_Heavy_Atoms>  (237) 
16

>  <Ro5>  (237) 
[True, True, True, True, True, True]

>  <Ro5_Fulfilled>  (237) 
True

>  <Ro3>  (237) 
[True, True, True, True]

>  <Ro3_Fulfilled>  (237) 
True

>  <Fsp3>  (237) 
0.181818

>  <Fsp3_0.42>  (237) 
False

>  <Fsp3_0.45>  (237) 
False

>  <Stereogenic_Carbons>  (237) 
0

>  <C_Atoms>  (237) 
11

>  <FCStereo>  (237) 
0.0

>  <SPS>  (237) 
195

>  <nSPS>  (237) 
12.1875

>  <PBF>  (237) 
0.665096

>  <PBF_0.6>  (237) 
True

>  <nPBF>  (237) 
0.041569

>  <nPBF_0.016>  (237) 
True

>  <PMI1>  (237) 
601.673539

>  <PMI2>  (237) 
1247.271494

>  <PMI3>  (237) 
1556.31328

>  <NPR1>  (237) 
0.386602

>  <NPR2>  (237) 
0.801427

>  <Sum_NPR>  (237) 
1.188029

>  <Sum_NPR_1.07>  (237) 
True

>  <Sum_NPR_1.2>  (237) 
False

>  <MaxAbsEStateIndex>  (237) 
12.051447

>  <MaxEStateIndex>  (237) 
12.051447

>  <MinAbsEStateIndex>  (237) 
0.317037

>  <MinEStateIndex>  (237) 
-3.39794

>  <qed>  (237) 
0.793335

>  <MolWt>  (237) 
236.296

>  <HeavyAtomMolWt>  (237) 
224.2

>  <ExactMolWt>  (237) 
236.061949

>  <NumValenceElectrons>  (237) 
84

>  <NumRadicalElectrons>  (237) 
0

>  <MaxPartialCharge>  (237) 
0.24268

>  <MinPartialCharge>  (237) 
-0.264064

>  <MaxAbsPartialCharge>  (237) 
0.264064

>  <MinAbsPartialCharge>  (237) 
0.24268

>  <FpDensityMorgan1>  (237) 
1.1875

>  <FpDensityMorgan2>  (237) 
1.9375

>  <FpDensityMorgan3>  (237) 
2.625

>  <BCUT2D_MWHI>  (237) 
32.233425

>  <BCUT2D_MWLOW>  (237) 
10.168338

>  <BCUT2D_CHGHI>  (237) 
2.188381

>  <BCUT2D_CHGLO>  (237) 
-2.125463

>  <BCUT2D_LOGPHI>  (237) 
2.230424

>  <BCUT2D_LOGPLOW>  (237) 
-2.21905

>  <BCUT2D_MRHI>  (237) 
7.889132

>  <BCUT2D_MRLOW>  (237) 
0.521471

>  <AvgIpc>  (237) 
2.277009

>  <BalabanJ>  (237) 
2.803917

>  <BertzCT>  (237) 
615.422097

>  <Chi0>  (237) 
11.759149

>  <Chi0n>  (237) 
9.083274

>  <Chi0v>  (237) 
9.89977

>  <Chi1>  (237) 
7.531711

>  <Chi1n>  (237) 
4.785557

>  <Chi1v>  (237) 
6.225621

>  <Chi2n>  (237) 
3.640388

>  <Chi2v>  (237) 
5.760644

>  <Chi3n>  (237) 
2.399359

>  <Chi3v>  (237) 
4.272601

>  <Chi4n>  (237) 
1.514465

>  <Chi4v>  (237) 
2.622194

>  <HallKierAlpha>  (237) 
-1.46

>  <Ipc>  (237) 
4390.072449

>  <Kappa1>  (237) 
11.038237

>  <Kappa2>  (237) 
3.842384

>  <Kappa3>  (237) 
1.678749

>  <LabuteASA>  (237) 
94.583209

>  <PEOE_VSA1>  (237) 
0.0

>  <PEOE_VSA10>  (237) 
0.0

>  <PEOE_VSA11>  (237) 
0.0

>  <PEOE_VSA12>  (237) 
10.023291

>  <PEOE_VSA13>  (237) 
0.0

>  <PEOE_VSA14>  (237) 
0.0

>  <PEOE_VSA2>  (237) 
4.983979

>  <PEOE_VSA3>  (237) 
12.723013

>  <PEOE_VSA4>  (237) 
0.0

>  <PEOE_VSA5>  (237) 
0.0

>  <PEOE_VSA6>  (237) 
12.132734

>  <PEOE_VSA7>  (237) 
12.132734

>  <PEOE_VSA8>  (237) 
37.26148

>  <PEOE_VSA9>  (237) 
4.895483

>  <SMR_VSA1>  (237) 
8.417797

>  <SMR_VSA10>  (237) 
20.79574

>  <SMR_VSA2>  (237) 
0.0

>  <SMR_VSA3>  (237) 
9.289195

>  <SMR_VSA4>  (237) 
0.0

>  <SMR_VSA5>  (237) 
4.895483

>  <SMR_VSA6>  (237) 
14.095344

>  <SMR_VSA7>  (237) 
36.659155

>  <SMR_VSA8>  (237) 
0.0

>  <SMR_VSA9>  (237) 
0.0

>  <SlogP_VSA1>  (237) 
0.0

>  <SlogP_VSA10>  (237) 
0.0

>  <SlogP_VSA11>  (237) 
0.0

>  <SlogP_VSA12>  (237) 
0.0

>  <SlogP_VSA2>  (237) 
31.802335

>  <SlogP_VSA3>  (237) 
10.023291

>  <SlogP_VSA4>  (237) 
0.0

>  <SlogP_VSA5>  (237) 
0.0

>  <SlogP_VSA6>  (237) 
41.554639

>  <SlogP_VSA7>  (237) 
0.0

>  <SlogP_VSA8>  (237) 
10.772448

>  <SlogP_VSA9>  (237) 
0.0

>  <EState_VSA1>  (237) 
10.023291

>  <EState_VSA10>  (237) 
8.417797

>  <EState_VSA11>  (237) 
0.0

>  <EState_VSA2>  (237) 
0.0

>  <EState_VSA3>  (237) 
10.281708

>  <EState_VSA4>  (237) 
5.386224

>  <EState_VSA5>  (237) 
18.40056

>  <EState_VSA6>  (237) 
30.592788

>  <EState_VSA7>  (237) 
6.066367

>  <EState_VSA8>  (237) 
4.983979

>  <EState_VSA9>  (237) 
0.0

>  <VSA_EState1>  (237) 
25.313413

>  <VSA_EState10>  (237) 
0.0

>  <VSA_EState2>  (237) 
4.289504

>  <VSA_EState3>  (237) 
1.524653

>  <VSA_EState4>  (237) 
0.0

>  <VSA_EState5>  (237) 
0.0

>  <VSA_EState6>  (237) 
6.889676

>  <VSA_EState7>  (237) 
3.251019

>  <VSA_EState8>  (237) 
0.0

>  <VSA_EState9>  (237) 
-0.351597

>  <FractionCSP3>  (237) 
0.181818

>  <HeavyAtomCount>  (237) 
16

>  <NHOHCount>  (237) 
0

>  <NOCount>  (237) 
4

>  <NumAliphaticCarbocycles>  (237) 
0

>  <NumAliphaticHeterocycles>  (237) 
0

>  <NumAliphaticRings>  (237) 
0

>  <NumAromaticCarbocycles>  (237) 
1

>  <NumAromaticHeterocycles>  (237) 
1

>  <NAR>  (237) 
2

>  <NumHAcceptors>  (237) 
3

>  <NumHDonors>  (237) 
0

>  <NumHeteroatoms>  (237) 
5

>  <NumRotatableBonds>  (237) 
2

>  <NumSaturatedCarbocycles>  (237) 
0

>  <NumSaturatedHeterocycles>  (237) 
0

>  <NumSaturatedRings>  (237) 
0

>  <RingCount>  (237) 
2

>  <MolLogP>  (237) 
1.4851

>  <MolMR>  (237) 
62.6158

>  <fr_Al_COO>  (237) 
0

>  <fr_Al_OH>  (237) 
0

>  <fr_Al_OH_noTert>  (237) 
0

>  <fr_ArN>  (237) 
0

>  <fr_Ar_COO>  (237) 
0

>  <fr_Ar_N>  (237) 
1

>  <fr_Ar_NH>  (237) 
0

>  <fr_Ar_OH>  (237) 
0

>  <fr_COO>  (237) 
0

>  <fr_COO2>  (237) 
0

>  <fr_C_O>  (237) 
0

>  <fr_C_O_noCOO>  (237) 
0

>  <fr_C_S>  (237) 
0

>  <fr_HOCCN>  (237) 
0

>  <fr_Imine>  (237) 
0

>  <fr_NH0>  (237) 
2

>  <fr_NH1>  (237) 
0

>  <fr_NH2>  (237) 
0

>  <fr_N_O>  (237) 
0

>  <fr_Ndealkylation1>  (237) 
0

>  <fr_Ndealkylation2>  (237) 
0

>  <fr_Nhpyrrole>  (237) 
0

>  <fr_SH>  (237) 
0

>  <fr_aldehyde>  (237) 
0

>  <fr_alkyl_carbamate>  (237) 
0

>  <fr_alkyl_halide>  (237) 
0

>  <fr_allylic_oxid>  (237) 
0

>  <fr_amide>  (237) 
0

>  <fr_amidine>  (237) 
0

>  <fr_aniline>  (237) 
0

>  <fr_aryl_methyl>  (237) 
0

>  <fr_azide>  (237) 
0

>  <fr_azo>  (237) 
0

>  <fr_barbitur>  (237) 
0

>  <fr_benzene>  (237) 
1

>  <fr_benzodiazepine>  (237) 
0

>  <fr_bicyclic>  (237) 
1

>  <fr_diazo>  (237) 
0

>  <fr_dihydropyridine>  (237) 
0

>  <fr_epoxide>  (237) 
0

>  <fr_ester>  (237) 
0

>  <fr_ether>  (237) 
0

>  <fr_furan>  (237) 
0

>  <fr_guanido>  (237) 
0

>  <fr_halogen>  (237) 
0

>  <fr_hdrzine>  (237) 
0

>  <fr_hdrzone>  (237) 
0

>  <fr_imidazole>  (237) 
0

>  <fr_imide>  (237) 
0

>  <fr_isocyan>  (237) 
0

>  <fr_isothiocyan>  (237) 
0

>  <fr_ketone>  (237) 
0

>  <fr_ketone_Topliss>  (237) 
0

>  <fr_lactam>  (237) 
0

>  <fr_lactone>  (237) 
0

>  <fr_methoxy>  (237) 
0

>  <fr_morpholine>  (237) 
0

>  <fr_nitrile>  (237) 
0

>  <fr_nitro>  (237) 
0

>  <fr_nitro_arom>  (237) 
0

>  <fr_nitro_arom_nonortho>  (237) 
0

>  <fr_nitroso>  (237) 
0

>  <fr_oxazole>  (237) 
0

>  <fr_oxime>  (237) 
0

>  <fr_para_hydroxylation>  (237) 
0

>  <fr_phenol>  (237) 
0

>  <fr_phenol_noOrthoHbond>  (237) 
0

>  <fr_phos_acid>  (237) 
0

>  <fr_phos_ester>  (237) 
0

>  <fr_piperdine>  (237) 
0

>  <fr_piperzine>  (237) 
0

>  <fr_priamide>  (237) 
0

>  <fr_prisulfonamd>  (237) 
0

>  <fr_pyridine>  (237) 
1

>  <fr_quatN>  (237) 
0

>  <fr_sulfide>  (237) 
0

>  <fr_sulfonamd>  (237) 
1

>  <fr_sulfone>  (237) 
0

>  <fr_term_acetylene>  (237) 
0

>  <fr_tetrazole>  (237) 
0

>  <fr_thiazole>  (237) 
0

>  <fr_thiocyan>  (237) 
0

>  <fr_thiophene>  (237) 
0

>  <fr_unbrch_alkane>  (237) 
0

>  <fr_urea>  (237) 
0

>  <NP-Likeness>  (237) 
-1.715011

$$$$
P72
     RDKit          3D

  0  0  0  0  0  0  0  0  0  0999 V3000
M  V30 BEGIN CTAB
M  V30 COUNTS 19 19 0 0 0
M  V30 BEGIN ATOM
M  V30 1 O -0.767867 -3.353339 -0.218941 0
M  V30 2 C -0.191479 -2.125994 0.162550 0
M  V30 3 C -0.883667 -1.237591 0.982254 0
M  V30 4 C -0.316505 -0.021738 1.362106 0
M  V30 5 C 0.963873 0.290206 0.903545 0
M  V30 6 C 1.521718 1.564069 1.318751 0
M  V30 7 N 2.934041 1.650550 1.465257 0
M  V30 8 N 0.711891 2.542039 1.531005 0 CHG=1 VAL=4
M  V30 9 C 1.620046 -0.609261 0.095468 0
M  V30 10 C 1.074832 -1.819239 -0.291938 0
M  V30 11 H -1.176567 -3.962545 0.493696 0
M  V30 12 H -1.885731 -1.474783 1.344857 0
M  V30 13 H -0.854022 0.669626 1.999448 0
M  V30 14 H 3.911235 1.839174 1.780428 0
M  V30 15 H 3.604650 1.231536 0.771089 0
M  V30 16 H 1.149166 3.456171 1.832149 0
M  V30 17 H 0.129191 3.384287 1.723667 0
M  V30 18 H 2.597817 -0.259080 -0.194512 0
M  V30 19 H 1.655878 -2.472459 -0.929949 0
M  V30 END ATOM
M  V30 BEGIN BOND
M  V30 1 1 1 2
M  V30 2 2 2 3
M  V30 3 1 3 4
M  V30 4 2 4 5
M  V30 5 1 5 6
M  V30 6 1 6 7
M  V30 7 2 6 8
M  V30 8 1 5 9
M  V30 9 2 9 10
M  V30 10 1 10 2
M  V30 11 1 1 11
M  V30 12 1 3 12
M  V30 13 1 4 13
M  V30 14 1 7 14
M  V30 15 1 7 15
M  V30 16 1 8 16
M  V30 17 1 8 17
M  V30 18 1 9 18
M  V30 19 1 10 19
M  V30 END BOND
M  V30 END CTAB
M  END
>  <Dataset>  (238) 
PDB

>  <Ligand_Instance>  (238) 
6YPS_P72_A_402

>  <PDB_ID>  (238) 
6YPS

>  <Standardized_SMILES>  (238) 
[H]OC1=C([H])C([H])=C(C(N([H])[H])=[N+]([H])[H])C([H])=C1[H]

>  <Name>  (238) 
4-oxidanylbenzenecarboximidamide

>  <Pocket>  (238) 
A

>  <ATP_Site>  (238) 
1.0

>  <Peripheral>  (238) 
0.0

>  <Num_H_Atoms_ProtBoundConf>  (238) 
9.0

>  <Num_Resolved_Atoms>  (238) 
10.0

>  <Num_Not_Resolved_Atoms>  (238) 
0.0

>  <2D_Mol_H>  (238) 
<rdkit.Chem.rdchem.Mol object at 0x72a238df38b0>

>  <MW>  (238) 
137.162

>  <HBA>  (238) 
1

>  <HBD>  (238) 
3

>  <LogP>  (238) 
-1.1434

>  <NRB>  (238) 
2

>  <TPSA>  (238) 
71.84

>  <Num_Heavy_Atoms>  (238) 
10

>  <Ro5>  (238) 
[True, True, True, True, True, True]

>  <Ro5_Fulfilled>  (238) 
True

>  <Ro3>  (238) 
[True, True, True, True]

>  <Ro3_Fulfilled>  (238) 
True

>  <Fsp3>  (238) 
0.0

>  <Fsp3_0.42>  (238) 
False

>  <Fsp3_0.45>  (238) 
False

>  <Stereogenic_Carbons>  (238) 
0

>  <C_Atoms>  (238) 
7

>  <FCStereo>  (238) 
0.0

>  <SPS>  (238) 
92

>  <nSPS>  (238) 
9.2

>  <PBF>  (238) 
0.32713

>  <PBF_0.6>  (238) 
False

>  <nPBF>  (238) 
0.032713

>  <nPBF_0.016>  (238) 
True

>  <PMI1>  (238) 
142.487226

>  <PMI2>  (238) 
649.765697

>  <PMI3>  (238) 
773.032755

>  <NPR1>  (238) 
0.184322

>  <NPR2>  (238) 
0.840541

>  <Sum_NPR>  (238) 
1.024863

>  <Sum_NPR_1.07>  (238) 
False

>  <Sum_NPR_1.2>  (238) 
False

>  <MaxAbsEStateIndex>  (238) 
8.847559

>  <MaxEStateIndex>  (238) 
8.847559

>  <MinAbsEStateIndex>  (238) 
0.212963

>  <MinEStateIndex>  (238) 
0.212963

>  <qed>  (238) 
0.337853

>  <MolWt>  (238) 
137.162

>  <HeavyAtomMolWt>  (238) 
128.09

>  <ExactMolWt>  (238) 
137.070939

>  <NumValenceElectrons>  (238) 
52

>  <NumRadicalElectrons>  (238) 
0

>  <MaxPartialCharge>  (238) 
0.270176

>  <MinPartialCharge>  (238) 
-0.507966

>  <MaxAbsPartialCharge>  (238) 
0.507966

>  <MinAbsPartialCharge>  (238) 
0.270176

>  <FpDensityMorgan1>  (238) 
1.3

>  <FpDensityMorgan2>  (238) 
1.8

>  <FpDensityMorgan3>  (238) 
2.2

>  <BCUT2D_MWHI>  (238) 
16.254636

>  <BCUT2D_MWLOW>  (238) 
10.183582

>  <BCUT2D_CHGHI>  (238) 
1.980153

>  <BCUT2D_CHGLO>  (238) 
-1.914734

>  <BCUT2D_LOGPHI>  (238) 
2.071566

>  <BCUT2D_LOGPLOW>  (238) 
-2.455985

>  <BCUT2D_MRHI>  (238) 
5.920618

>  <BCUT2D_MRLOW>  (238) 
-0.113728

>  <AvgIpc>  (238) 
1.884505

>  <BalabanJ>  (238) 
3.003401

>  <BertzCT>  (238) 
240.287949

>  <Chi0>  (238) 
7.560478

>  <Chi0n>  (238) 
5.411315

>  <Chi0v>  (238) 
5.411315

>  <Chi1>  (238) 
4.698377

>  <Chi1n>  (238) 
2.872324

>  <Chi1v>  (238) 
2.872324

>  <Chi2n>  (238) 
2.002216

>  <Chi2v>  (238) 
2.002216

>  <Chi3n>  (238) 
1.200638

>  <Chi3v>  (238) 
1.200638

>  <Chi4n>  (238) 
0.65388

>  <Chi4v>  (238) 
0.65388

>  <HallKierAlpha>  (238) 
-1.51

>  <Ipc>  (238) 
180.912515

>  <Kappa1>  (238) 
6.607786

>  <Kappa2>  (238) 
2.389633

>  <Kappa3>  (238) 
1.253905

>  <LabuteASA>  (238) 
58.615821

>  <PEOE_VSA1>  (238) 
5.106527

>  <PEOE_VSA10>  (238) 
5.749512

>  <PEOE_VSA11>  (238) 
0.0

>  <PEOE_VSA12>  (238) 
0.0

>  <PEOE_VSA13>  (238) 
5.83562

>  <PEOE_VSA14>  (238) 
0.0

>  <PEOE_VSA2>  (238) 
11.142951

>  <PEOE_VSA3>  (238) 
0.0

>  <PEOE_VSA4>  (238) 
0.0

>  <PEOE_VSA5>  (238) 
0.0

>  <PEOE_VSA6>  (238) 
0.0

>  <PEOE_VSA7>  (238) 
24.265468

>  <PEOE_VSA8>  (238) 
0.0

>  <PEOE_VSA9>  (238) 
5.563451

>  <SMR_VSA1>  (238) 
10.515811

>  <SMR_VSA10>  (238) 
5.83562

>  <SMR_VSA2>  (238) 
0.0

>  <SMR_VSA3>  (238) 
0.0

>  <SMR_VSA4>  (238) 
5.733667

>  <SMR_VSA5>  (238) 
0.0

>  <SMR_VSA6>  (238) 
0.0

>  <SMR_VSA7>  (238) 
29.82892

>  <SMR_VSA8>  (238) 
0.0

>  <SMR_VSA9>  (238) 
5.749512

>  <SlogP_VSA1>  (238) 
11.142951

>  <SlogP_VSA10>  (238) 
0.0

>  <SlogP_VSA11>  (238) 
5.749512

>  <SlogP_VSA12>  (238) 
0.0

>  <SlogP_VSA2>  (238) 
10.942147

>  <SlogP_VSA3>  (238) 
0.0

>  <SlogP_VSA4>  (238) 
0.0

>  <SlogP_VSA5>  (238) 
5.563451

>  <SlogP_VSA6>  (238) 
24.265468

>  <SlogP_VSA7>  (238) 
0.0

>  <SlogP_VSA8>  (238) 
0.0

>  <SlogP_VSA9>  (238) 
0.0

>  <EState_VSA1>  (238) 
0.0

>  <EState_VSA10>  (238) 
0.0

>  <EState_VSA11>  (238) 
0.0

>  <EState_VSA2>  (238) 
11.585132

>  <EState_VSA3>  (238) 
0.0

>  <EState_VSA4>  (238) 
5.563451

>  <EState_VSA5>  (238) 
12.132734

>  <EState_VSA6>  (238) 
12.132734

>  <EState_VSA7>  (238) 
0.0

>  <EState_VSA8>  (238) 
0.0

>  <EState_VSA9>  (238) 
16.249478

>  <VSA_EState1>  (238) 
0.0

>  <VSA_EState10>  (238) 
0.0

>  <VSA_EState2>  (238) 
0.0

>  <VSA_EState3>  (238) 
14.12415

>  <VSA_EState4>  (238) 
6.010665

>  <VSA_EState5>  (238) 
0.476852

>  <VSA_EState6>  (238) 
6.388333

>  <VSA_EState7>  (238) 
0.0

>  <VSA_EState8>  (238) 
0.0

>  <VSA_EState9>  (238) 
0.0

>  <FractionCSP3>  (238) 
0.0

>  <HeavyAtomCount>  (238) 
10

>  <NHOHCount>  (238) 
5

>  <NOCount>  (238) 
3

>  <NumAliphaticCarbocycles>  (238) 
0

>  <NumAliphaticHeterocycles>  (238) 
0

>  <NumAliphaticRings>  (238) 
0

>  <NumAromaticCarbocycles>  (238) 
1

>  <NumAromaticHeterocycles>  (238) 
0

>  <NAR>  (238) 
1

>  <NumHAcceptors>  (238) 
1

>  <NumHDonors>  (238) 
3

>  <NumHeteroatoms>  (238) 
3

>  <NumRotatableBonds>  (238) 
1

>  <NumSaturatedCarbocycles>  (238) 
0

>  <NumSaturatedHeterocycles>  (238) 
0

>  <NumSaturatedRings>  (238) 
0

>  <RingCount>  (238) 
1

>  <MolLogP>  (238) 
-1.1434

>  <MolMR>  (238) 
38.3286

>  <fr_Al_COO>  (238) 
0

>  <fr_Al_OH>  (238) 
0

>  <fr_Al_OH_noTert>  (238) 
0

>  <fr_ArN>  (238) 
0

>  <fr_Ar_COO>  (238) 
0

>  <fr_Ar_N>  (238) 
0

>  <fr_Ar_NH>  (238) 
0

>  <fr_Ar_OH>  (238) 
1

>  <fr_COO>  (238) 
0

>  <fr_COO2>  (238) 
0

>  <fr_C_O>  (238) 
0

>  <fr_C_O_noCOO>  (238) 
0

>  <fr_C_S>  (238) 
0

>  <fr_HOCCN>  (238) 
0

>  <fr_Imine>  (238) 
0

>  <fr_NH0>  (238) 
0

>  <fr_NH1>  (238) 
0

>  <fr_NH2>  (238) 
2

>  <fr_N_O>  (238) 
0

>  <fr_Ndealkylation1>  (238) 
0

>  <fr_Ndealkylation2>  (238) 
0

>  <fr_Nhpyrrole>  (238) 
0

>  <fr_SH>  (238) 
0

>  <fr_aldehyde>  (238) 
0

>  <fr_alkyl_carbamate>  (238) 
0

>  <fr_alkyl_halide>  (238) 
0

>  <fr_allylic_oxid>  (238) 
0

>  <fr_amide>  (238) 
0

>  <fr_amidine>  (238) 
1

>  <fr_aniline>  (238) 
0

>  <fr_aryl_methyl>  (238) 
0

>  <fr_azide>  (238) 
0

>  <fr_azo>  (238) 
0

>  <fr_barbitur>  (238) 
0

>  <fr_benzene>  (238) 
1

>  <fr_benzodiazepine>  (238) 
0

>  <fr_bicyclic>  (238) 
0

>  <fr_diazo>  (238) 
0

>  <fr_dihydropyridine>  (238) 
0

>  <fr_epoxide>  (238) 
0

>  <fr_ester>  (238) 
0

>  <fr_ether>  (238) 
0

>  <fr_furan>  (238) 
0

>  <fr_guanido>  (238) 
0

>  <fr_halogen>  (238) 
0

>  <fr_hdrzine>  (238) 
0

>  <fr_hdrzone>  (238) 
0

>  <fr_imidazole>  (238) 
0

>  <fr_imide>  (238) 
0

>  <fr_isocyan>  (238) 
0

>  <fr_isothiocyan>  (238) 
0

>  <fr_ketone>  (238) 
0

>  <fr_ketone_Topliss>  (238) 
0

>  <fr_lactam>  (238) 
0

>  <fr_lactone>  (238) 
0

>  <fr_methoxy>  (238) 
0

>  <fr_morpholine>  (238) 
0

>  <fr_nitrile>  (238) 
0

>  <fr_nitro>  (238) 
0

>  <fr_nitro_arom>  (238) 
0

>  <fr_nitro_arom_nonortho>  (238) 
0

>  <fr_nitroso>  (238) 
0

>  <fr_oxazole>  (238) 
0

>  <fr_oxime>  (238) 
0

>  <fr_para_hydroxylation>  (238) 
0

>  <fr_phenol>  (238) 
1

>  <fr_phenol_noOrthoHbond>  (238) 
1

>  <fr_phos_acid>  (238) 
0

>  <fr_phos_ester>  (238) 
0

>  <fr_piperdine>  (238) 
0

>  <fr_piperzine>  (238) 
0

>  <fr_priamide>  (238) 
0

>  <fr_prisulfonamd>  (238) 
0

>  <fr_pyridine>  (238) 
0

>  <fr_quatN>  (238) 
0

>  <fr_sulfide>  (238) 
0

>  <fr_sulfonamd>  (238) 
0

>  <fr_sulfone>  (238) 
0

>  <fr_term_acetylene>  (238) 
0

>  <fr_tetrazole>  (238) 
0

>  <fr_thiazole>  (238) 
0

>  <fr_thiocyan>  (238) 
0

>  <fr_thiophene>  (238) 
0

>  <fr_unbrch_alkane>  (238) 
0

>  <fr_urea>  (238) 
0

>  <NP-Likeness>  (238) 
0.272127

$$$$
PTV
     RDKit          3D

  0  0  0  0  0  0  0  0  0  0999 V3000
M  V30 BEGIN CTAB
M  V30 COUNTS 31 33 0 0 0
M  V30 BEGIN ATOM
M  V30 1 C -2.733449 -3.180792 -0.243078 0
M  V30 2 C -1.892171 -2.397658 0.411229 0
M  V30 3 C -0.642476 -2.936816 0.949408 0
M  V30 4 C 0.250188 -2.221348 1.613128 0
M  V30 5 N 1.498521 -2.521664 2.211371 0
M  V30 6 N 2.020157 -1.365845 2.785252 0
M  V30 7 C 1.232713 -0.367757 2.612364 0
M  V30 8 S 1.444393 1.344153 3.159254 0
M  V30 9 C 0.008929 2.315115 2.626341 0
M  V30 10 C -0.030305 2.473260 1.184665 0
M  V30 11 O -1.107960 3.067178 0.910612 0
M  V30 12 C 0.802524 2.148275 0.004094 0
M  V30 13 C 2.061420 1.534536 -0.185541 0
M  V30 14 C 2.482364 1.439251 -1.462315 0
M  V30 15 C 1.675765 1.939542 -2.517043 0
M  V30 16 S 0.203276 2.595631 -1.611298 0
M  V30 17 N 0.088121 -0.819849 1.879922 0
M  V30 18 C -0.394558 -4.366413 0.719114 0
M  V30 19 C -1.274259 -5.114338 0.052887 0
M  V30 20 N -2.481262 -4.568594 -0.460466 0 CHG=-1 VAL=2
M  V30 21 H -3.636584 -2.700586 -0.608779 0
M  V30 22 H -2.112154 -1.349376 0.559429 0
M  V30 23 H 1.902281 -3.494463 2.183069 0
M  V30 24 H 0.076062 3.308816 3.161756 0
M  V30 25 H -0.925462 1.794421 2.976804 0
M  V30 26 H 2.602551 1.193110 0.676878 0
M  V30 27 H 3.430052 0.987672 -1.724462 0
M  V30 28 H 1.876031 1.932257 -3.541053 0
M  V30 29 H -0.733491 -0.243840 1.581806 0
M  V30 30 H 0.513925 -4.767646 1.108107 0
M  V30 31 H -1.050505 -6.180544 -0.097990 0
M  V30 END ATOM
M  V30 BEGIN BOND
M  V30 1 2 1 2
M  V30 2 1 2 3
M  V30 3 2 3 4 CFG=2
M  V30 4 1 4 5
M  V30 5 1 5 6
M  V30 6 2 6 7
M  V30 7 1 7 8
M  V30 8 1 8 9
M  V30 9 1 9 10
M  V30 10 2 10 11
M  V30 11 1 10 12
M  V30 12 2 12 13
M  V30 13 1 13 14
M  V30 14 2 14 15
M  V30 15 1 15 16
M  V30 16 1 7 17
M  V30 17 1 3 18
M  V30 18 2 18 19
M  V30 19 1 19 20
M  V30 20 1 20 1
M  V30 21 1 17 4
M  V30 22 1 16 12
M  V30 23 1 1 21
M  V30 24 1 2 22
M  V30 25 1 5 23
M  V30 26 1 9 24
M  V30 27 1 9 25
M  V30 28 1 13 26
M  V30 29 1 14 27
M  V30 30 1 15 28
M  V30 31 1 17 29
M  V30 32 1 18 30
M  V30 33 1 19 31
M  V30 END BOND
M  V30 END CTAB
M  END
>  <Dataset>  (239) 
PDB

>  <Ligand_Instance>  (239) 
4IJ9_PTV_A_401

>  <PDB_ID>  (239) 
4IJ9

>  <Standardized_SMILES>  (239) 
[H]C1=C([H])C(=C2N([H])N=C(SC([H])([H])C(=O)C3=C([H])C([H])=C([H])S3)N2[H])C([H])=C([H])[N-]1

>  <Name>  (239) 
2-[[5-(4-pyridyl)-1H-1,2,4-triazol-3-yl]sulfanyl]-1-(2-thiophenyl)ethanone

>  <Pocket>  (239) 
A

>  <ATP_Site>  (239) 
1.0

>  <Peripheral>  (239) 
0.0

>  <Num_H_Atoms_ProtBoundConf>  (239) 
11.0

>  <Num_Resolved_Atoms>  (239) 
20.0

>  <Num_Not_Resolved_Atoms>  (239) 
0.0

>  <2D_Mol_H>  (239) 
<rdkit.Chem.rdchem.Mol object at 0x72a238df3990>

>  <MW>  (239) 
303.392

>  <HBA>  (239) 
6

>  <HBD>  (239) 
2

>  <LogP>  (239) 
2.7541

>  <NRB>  (239) 
3

>  <TPSA>  (239) 
67.59

>  <Num_Heavy_Atoms>  (239) 
20

>  <Ro5>  (239) 
[True, True, True, True, True, True]

>  <Ro5_Fulfilled>  (239) 
True

>  <Ro3>  (239) 
[False, False, True, True]

>  <Ro3_Fulfilled>  (239) 
False

>  <Fsp3>  (239) 
0.076923

>  <Fsp3_0.42>  (239) 
False

>  <Fsp3_0.45>  (239) 
False

>  <Stereogenic_Carbons>  (239) 
0

>  <C_Atoms>  (239) 
13

>  <FCStereo>  (239) 
0.0

>  <SPS>  (239) 
330

>  <nSPS>  (239) 
16.5

>  <PBF>  (239) 
1.250379

>  <PBF_0.6>  (239) 
True

>  <nPBF>  (239) 
0.062519

>  <nPBF_0.016>  (239) 
True

>  <PMI1>  (239) 
1310.121475

>  <PMI2>  (239) 
2698.460809

>  <PMI3>  (239) 
3207.100718

>  <NPR1>  (239) 
0.408506

>  <NPR2>  (239) 
0.841402

>  <Sum_NPR>  (239) 
1.249908

>  <Sum_NPR_1.07>  (239) 
True

>  <Sum_NPR_1.2>  (239) 
True

>  <MaxAbsEStateIndex>  (239) 
11.885343

>  <MaxEStateIndex>  (239) 
11.885343

>  <MinAbsEStateIndex>  (239) 
0.117464

>  <MinEStateIndex>  (239) 
0.117464

>  <qed>  (239) 
0.84261

>  <MolWt>  (239) 
303.392

>  <HeavyAtomMolWt>  (239) 
292.304

>  <ExactMolWt>  (239) 
303.037977

>  <NumValenceElectrons>  (239) 
102

>  <NumRadicalElectrons>  (239) 
0

>  <MaxPartialCharge>  (239) 
0.186347

>  <MinPartialCharge>  (239) 
-0.670313

>  <MaxAbsPartialCharge>  (239) 
0.670313

>  <MinAbsPartialCharge>  (239) 
0.186347

>  <FpDensityMorgan1>  (239) 
1.4

>  <FpDensityMorgan2>  (239) 
2.25

>  <FpDensityMorgan3>  (239) 
3.0

>  <BCUT2D_MWHI>  (239) 
32.166629

>  <BCUT2D_MWLOW>  (239) 
10.200885

>  <BCUT2D_CHGHI>  (239) 
2.153903

>  <BCUT2D_CHGLO>  (239) 
-2.142954

>  <BCUT2D_LOGPHI>  (239) 
2.174692

>  <BCUT2D_LOGPLOW>  (239) 
-2.191149

>  <BCUT2D_MRHI>  (239) 
8.139514

>  <BCUT2D_MRLOW>  (239) 
0.102166

>  <AvgIpc>  (239) 
3.17064

>  <BalabanJ>  (239) 
1.55627

>  <BertzCT>  (239) 
614.806163

>  <Chi0>  (239) 
13.786246

>  <Chi0n>  (239) 
10.367731

>  <Chi0v>  (239) 
12.000724

>  <Chi1>  (239) 
9.8265

>  <Chi1n>  (239) 
5.903273

>  <Chi1v>  (239) 
7.768525

>  <Chi2n>  (239) 
3.953801

>  <Chi2v>  (239) 
5.865544

>  <Chi3n>  (239) 
2.606159

>  <Chi3v>  (239) 
4.390377

>  <Chi4n>  (239) 
1.635424

>  <Chi4v>  (239) 
3.099021

>  <HallKierAlpha>  (239) 
-1.99

>  <Ipc>  (239) 
85087.295482

>  <Kappa1>  (239) 
13.01452

>  <Kappa2>  (239) 
5.976375

>  <Kappa3>  (239) 
2.942852

>  <LabuteASA>  (239) 
124.075451

>  <PEOE_VSA1>  (239) 
10.633577

>  <PEOE_VSA10>  (239) 
5.820974

>  <PEOE_VSA11>  (239) 
10.950897

>  <PEOE_VSA12>  (239) 
0.0

>  <PEOE_VSA13>  (239) 
0.0

>  <PEOE_VSA14>  (239) 
0.0

>  <PEOE_VSA2>  (239) 
10.220329

>  <PEOE_VSA3>  (239) 
0.0

>  <PEOE_VSA4>  (239) 
12.39991

>  <PEOE_VSA5>  (239) 
16.438193

>  <PEOE_VSA6>  (239) 
29.980292

>  <PEOE_VSA7>  (239) 
11.44643

>  <PEOE_VSA8>  (239) 
5.573105

>  <PEOE_VSA9>  (239) 
10.630001

>  <SMR_VSA1>  (239) 
4.794537

>  <SMR_VSA10>  (239) 
34.049568

>  <SMR_VSA2>  (239) 
0.0

>  <SMR_VSA3>  (239) 
10.74258

>  <SMR_VSA4>  (239) 
5.101408

>  <SMR_VSA5>  (239) 
0.0

>  <SMR_VSA6>  (239) 
5.752854

>  <SMR_VSA7>  (239) 
63.652761

>  <SMR_VSA8>  (239) 
0.0

>  <SMR_VSA9>  (239) 
0.0

>  <SlogP_VSA1>  (239) 
10.74258

>  <SlogP_VSA10>  (239) 
0.0

>  <SlogP_VSA11>  (239) 
0.0

>  <SlogP_VSA12>  (239) 
23.098671

>  <SlogP_VSA2>  (239) 
16.70375

>  <SlogP_VSA3>  (239) 
0.0

>  <SlogP_VSA4>  (239) 
0.0

>  <SlogP_VSA5>  (239) 
9.671684

>  <SlogP_VSA6>  (239) 
58.560233

>  <SlogP_VSA7>  (239) 
0.0

>  <SlogP_VSA8>  (239) 
5.316789

>  <SlogP_VSA9>  (239) 
0.0

>  <EState_VSA1>  (239) 
0.0

>  <EState_VSA10>  (239) 
4.794537

>  <EState_VSA11>  (239) 
0.0

>  <EState_VSA2>  (239) 
5.783245

>  <EState_VSA3>  (239) 
10.920505

>  <EState_VSA4>  (239) 
16.271226

>  <EState_VSA5>  (239) 
23.098671

>  <EState_VSA6>  (239) 
12.39991

>  <EState_VSA7>  (239) 
29.664837

>  <EState_VSA8>  (239) 
21.160776

>  <EState_VSA9>  (239) 
0.0

>  <VSA_EState1>  (239) 
0.0

>  <VSA_EState10>  (239) 
2.845849

>  <VSA_EState2>  (239) 
12.665337

>  <VSA_EState3>  (239) 
13.876564

>  <VSA_EState4>  (239) 
3.893554

>  <VSA_EState5>  (239) 
1.294276

>  <VSA_EState6>  (239) 
3.717261

>  <VSA_EState7>  (239) 
7.20716

>  <VSA_EState8>  (239) 
0.0

>  <VSA_EState9>  (239) 
0.0

>  <FractionCSP3>  (239) 
0.076923

>  <HeavyAtomCount>  (239) 
20

>  <NHOHCount>  (239) 
2

>  <NOCount>  (239) 
5

>  <NumAliphaticCarbocycles>  (239) 
0

>  <NumAliphaticHeterocycles>  (239) 
2

>  <NumAliphaticRings>  (239) 
2

>  <NumAromaticCarbocycles>  (239) 
0

>  <NumAromaticHeterocycles>  (239) 
1

>  <NAR>  (239) 
1

>  <NumHAcceptors>  (239) 
6

>  <NumHDonors>  (239) 
2

>  <NumHeteroatoms>  (239) 
7

>  <NumRotatableBonds>  (239) 
3

>  <NumSaturatedCarbocycles>  (239) 
0

>  <NumSaturatedHeterocycles>  (239) 
0

>  <NumSaturatedRings>  (239) 
0

>  <RingCount>  (239) 
3

>  <MolLogP>  (239) 
2.7541

>  <MolMR>  (239) 
83.4789

>  <fr_Al_COO>  (239) 
0

>  <fr_Al_OH>  (239) 
0

>  <fr_Al_OH_noTert>  (239) 
0

>  <fr_ArN>  (239) 
0

>  <fr_Ar_COO>  (239) 
0

>  <fr_Ar_N>  (239) 
0

>  <fr_Ar_NH>  (239) 
0

>  <fr_Ar_OH>  (239) 
0

>  <fr_COO>  (239) 
0

>  <fr_COO2>  (239) 
0

>  <fr_C_O>  (239) 
1

>  <fr_C_O_noCOO>  (239) 
1

>  <fr_C_S>  (239) 
0

>  <fr_HOCCN>  (239) 
0

>  <fr_Imine>  (239) 
0

>  <fr_NH0>  (239) 
2

>  <fr_NH1>  (239) 
2

>  <fr_NH2>  (239) 
0

>  <fr_N_O>  (239) 
0

>  <fr_Ndealkylation1>  (239) 
0

>  <fr_Ndealkylation2>  (239) 
0

>  <fr_Nhpyrrole>  (239) 
0

>  <fr_SH>  (239) 
0

>  <fr_aldehyde>  (239) 
0

>  <fr_alkyl_carbamate>  (239) 
0

>  <fr_alkyl_halide>  (239) 
0

>  <fr_allylic_oxid>  (239) 
3

>  <fr_amide>  (239) 
0

>  <fr_amidine>  (239) 
1

>  <fr_aniline>  (239) 
0

>  <fr_aryl_methyl>  (239) 
0

>  <fr_azide>  (239) 
0

>  <fr_azo>  (239) 
0

>  <fr_barbitur>  (239) 
0

>  <fr_benzene>  (239) 
0

>  <fr_benzodiazepine>  (239) 
0

>  <fr_bicyclic>  (239) 
0

>  <fr_diazo>  (239) 
0

>  <fr_dihydropyridine>  (239) 
0

>  <fr_epoxide>  (239) 
0

>  <fr_ester>  (239) 
0

>  <fr_ether>  (239) 
0

>  <fr_furan>  (239) 
0

>  <fr_guanido>  (239) 
0

>  <fr_halogen>  (239) 
0

>  <fr_hdrzine>  (239) 
0

>  <fr_hdrzone>  (239) 
1

>  <fr_imidazole>  (239) 
0

>  <fr_imide>  (239) 
0

>  <fr_isocyan>  (239) 
0

>  <fr_isothiocyan>  (239) 
0

>  <fr_ketone>  (239) 
1

>  <fr_ketone_Topliss>  (239) 
1

>  <fr_lactam>  (239) 
0

>  <fr_lactone>  (239) 
0

>  <fr_methoxy>  (239) 
0

>  <fr_morpholine>  (239) 
0

>  <fr_nitrile>  (239) 
0

>  <fr_nitro>  (239) 
0

>  <fr_nitro_arom>  (239) 
0

>  <fr_nitro_arom_nonortho>  (239) 
0

>  <fr_nitroso>  (239) 
0

>  <fr_oxazole>  (239) 
0

>  <fr_oxime>  (239) 
0

>  <fr_para_hydroxylation>  (239) 
0

>  <fr_phenol>  (239) 
0

>  <fr_phenol_noOrthoHbond>  (239) 
0

>  <fr_phos_acid>  (239) 
0

>  <fr_phos_ester>  (239) 
0

>  <fr_piperdine>  (239) 
0

>  <fr_piperzine>  (239) 
0

>  <fr_priamide>  (239) 
0

>  <fr_prisulfonamd>  (239) 
0

>  <fr_pyridine>  (239) 
0

>  <fr_quatN>  (239) 
0

>  <fr_sulfide>  (239) 
1

>  <fr_sulfonamd>  (239) 
0

>  <fr_sulfone>  (239) 
0

>  <fr_term_acetylene>  (239) 
0

>  <fr_tetrazole>  (239) 
0

>  <fr_thiazole>  (239) 
0

>  <fr_thiocyan>  (239) 
0

>  <fr_thiophene>  (239) 
1

>  <fr_unbrch_alkane>  (239) 
0

>  <fr_urea>  (239) 
0

>  <NP-Likeness>  (239) 
-1.410021

$$$$
PZX
     RDKit          3D

  0  0  0  0  0  0  0  0  0  0999 V3000
M  V30 BEGIN CTAB
M  V30 COUNTS 27 28 0 0 0
M  V30 BEGIN ATOM
M  V30 1 C -1.057430 -3.692634 4.000913 0
M  V30 2 N 0.132976 -3.077226 4.087870 0
M  V30 3 C 0.884526 -2.770365 3.020516 0
M  V30 4 C 0.502042 -3.060127 1.725384 0
M  V30 5 C 1.226360 -2.773871 0.484464 0
M  V30 6 O 0.929929 -1.566551 -0.134134 0
M  V30 7 C 1.064793 -0.296949 0.348390 0
M  V30 8 O 1.513693 -0.114068 1.506525 0
M  V30 9 C 0.685929 0.850683 -0.484795 0
M  V30 10 N 0.189970 0.785696 -1.749147 0
M  V30 11 N -0.046172 2.016431 -2.211340 0
M  V30 12 C 0.291426 2.904178 -1.257232 0
M  V30 13 C 0.203638 4.396296 -1.314414 0
M  V30 14 C 0.754078 2.190837 -0.163552 0
M  V30 15 C -0.738478 -3.700768 1.645493 0
M  V30 16 C -1.546896 -4.035110 2.736360 0
M  V30 17 H -1.698489 -3.960332 4.829480 0
M  V30 18 H 1.836901 -2.278974 3.134508 0
M  V30 19 H 0.962613 -3.578688 -0.242277 0
M  V30 20 H 2.341043 -2.882285 0.649183 0
M  V30 21 H -0.428520 2.239185 -3.155823 0
M  V30 22 H -0.740874 4.624427 -1.874454 0
M  V30 23 H 1.062818 4.850405 -1.810303 0
M  V30 24 H 0.001632 4.763706 -0.283560 0
M  V30 25 H 1.112781 2.512964 0.781372 0
M  V30 26 H -1.108761 -3.961730 0.663093 0
M  V30 27 H -2.485868 -4.529492 2.545711 0
M  V30 END ATOM
M  V30 BEGIN BOND
M  V30 1 2 1 2
M  V30 2 1 2 3
M  V30 3 2 3 4
M  V30 4 1 4 5
M  V30 5 1 5 6
M  V30 6 1 6 7
M  V30 7 2 7 8
M  V30 8 1 7 9
M  V30 9 2 9 10
M  V30 10 1 10 11
M  V30 11 1 11 12
M  V30 12 1 12 13
M  V30 13 2 12 14
M  V30 14 1 4 15
M  V30 15 2 15 16
M  V30 16 1 16 1
M  V30 17 1 14 9
M  V30 18 1 1 17
M  V30 19 1 3 18
M  V30 20 1 5 19
M  V30 21 1 5 20
M  V30 22 1 11 21
M  V30 23 1 13 22
M  V30 24 1 13 23
M  V30 25 1 13 24
M  V30 26 1 14 25
M  V30 27 1 15 26
M  V30 28 1 16 27
M  V30 END BOND
M  V30 END CTAB
M  END
>  <Dataset>  (240) 
PDB

>  <Ligand_Instance>  (240) 
4IE9_PZX_A_401

>  <PDB_ID>  (240) 
4IE9

>  <Standardized_SMILES>  (240) 
[H]C1=NC([H])=C(C([H])([H])OC(=O)C2=NN([H])C(C([H])([H])[H])=C2[H])C([H])=C1[H]

>  <Name>  (240) 
pyridin-3-ylmethyl 5-methyl-1H-pyrazole-3-carboxylate

>  <Pocket>  (240) 
A

>  <ATP_Site>  (240) 
1.0

>  <Peripheral>  (240) 
0.0

>  <Num_H_Atoms_ProtBoundConf>  (240) 
11.0

>  <Num_Resolved_Atoms>  (240) 
16.0

>  <Num_Not_Resolved_Atoms>  (240) 
0.0

>  <2D_Mol_H>  (240) 
<rdkit.Chem.rdchem.Mol object at 0x72a238df3a70>

>  <MW>  (240) 
217.228

>  <HBA>  (240) 
4

>  <HBD>  (240) 
1

>  <LogP>  (240) 
1.47012

>  <NRB>  (240) 
4

>  <TPSA>  (240) 
67.87

>  <Num_Heavy_Atoms>  (240) 
16

>  <Ro5>  (240) 
[True, True, True, True, True, True]

>  <Ro5_Fulfilled>  (240) 
True

>  <Ro3>  (240) 
[True, False, True, True]

>  <Ro3_Fulfilled>  (240) 
True

>  <Fsp3>  (240) 
0.181818

>  <Fsp3_0.42>  (240) 
False

>  <Fsp3_0.45>  (240) 
False

>  <Stereogenic_Carbons>  (240) 
0

>  <C_Atoms>  (240) 
11

>  <FCStereo>  (240) 
0.0

>  <SPS>  (240) 
161

>  <nSPS>  (240) 
10.0625

>  <PBF>  (240) 
0.920783

>  <PBF_0.6>  (240) 
True

>  <nPBF>  (240) 
0.057549

>  <nPBF_0.016>  (240) 
True

>  <PMI1>  (240) 
354.559604

>  <PMI2>  (240) 
2290.226864

>  <PMI3>  (240) 
2357.441125

>  <NPR1>  (240) 
0.1504

>  <NPR2>  (240) 
0.971488

>  <Sum_NPR>  (240) 
1.121889

>  <Sum_NPR_1.07>  (240) 
True

>  <Sum_NPR_1.2>  (240) 
False

>  <MaxAbsEStateIndex>  (240) 
11.506197

>  <MaxEStateIndex>  (240) 
11.506197

>  <MinAbsEStateIndex>  (240) 
0.206926

>  <MinEStateIndex>  (240) 
-0.436849

>  <qed>  (240) 
0.79032

>  <MolWt>  (240) 
217.228

>  <HeavyAtomMolWt>  (240) 
206.14

>  <ExactMolWt>  (240) 
217.085127

>  <NumValenceElectrons>  (240) 
82

>  <NumRadicalElectrons>  (240) 
0

>  <MaxPartialCharge>  (240) 
0.358674

>  <MinPartialCharge>  (240) 
-0.455986

>  <MaxAbsPartialCharge>  (240) 
0.455986

>  <MinAbsPartialCharge>  (240) 
0.358674

>  <FpDensityMorgan1>  (240) 
1.5625

>  <FpDensityMorgan2>  (240) 
2.4375

>  <FpDensityMorgan3>  (240) 
3.0625

>  <BCUT2D_MWHI>  (240) 
16.53358

>  <BCUT2D_MWLOW>  (240) 
10.290743

>  <BCUT2D_CHGHI>  (240) 
2.099466

>  <BCUT2D_CHGLO>  (240) 
-2.010795

>  <BCUT2D_LOGPHI>  (240) 
2.035829

>  <BCUT2D_LOGPLOW>  (240) 
-2.052915

>  <BCUT2D_MRHI>  (240) 
5.867129

>  <BCUT2D_MRLOW>  (240) 
0.04651

>  <AvgIpc>  (240) 
2.741526

>  <BalabanJ>  (240) 
1.940125

>  <BertzCT>  (240) 
478.984714

>  <Chi0>  (240) 
11.380469

>  <Chi0n>  (240) 
8.804782

>  <Chi0v>  (240) 
8.804782

>  <Chi1>  (240) 
7.75402

>  <Chi1n>  (240) 
4.835455

>  <Chi1v>  (240) 
4.835455

>  <Chi2n>  (240) 
3.373604

>  <Chi2v>  (240) 
3.373604

>  <Chi3n>  (240) 
2.007791

>  <Chi3v>  (240) 
2.007791

>  <Chi4n>  (240) 
1.228926

>  <Chi4v>  (240) 
1.228926

>  <HallKierAlpha>  (240) 
-2.17

>  <Ipc>  (240) 
7040.237916

>  <Kappa1>  (240) 
10.351259

>  <Kappa2>  (240) 
4.566156

>  <Kappa3>  (240) 
2.443394

>  <LabuteASA>  (240) 
92.475301

>  <PEOE_VSA1>  (240) 
4.736863

>  <PEOE_VSA10>  (240) 
6.606882

>  <PEOE_VSA11>  (240) 
5.693928

>  <PEOE_VSA12>  (240) 
0.0

>  <PEOE_VSA13>  (240) 
0.0

>  <PEOE_VSA14>  (240) 
5.969305

>  <PEOE_VSA2>  (240) 
10.08266

>  <PEOE_VSA3>  (240) 
4.794537

>  <PEOE_VSA4>  (240) 
5.098682

>  <PEOE_VSA5>  (240) 
0.0

>  <PEOE_VSA6>  (240) 
6.066367

>  <PEOE_VSA7>  (240) 
19.056471

>  <PEOE_VSA8>  (240) 
23.651067

>  <PEOE_VSA9>  (240) 
0.0

>  <SMR_VSA1>  (240) 
9.5314

>  <SMR_VSA10>  (240) 
5.969305

>  <SMR_VSA2>  (240) 
0.0

>  <SMR_VSA3>  (240) 
15.181342

>  <SMR_VSA4>  (240) 
0.0

>  <SMR_VSA5>  (240) 
13.530619

>  <SMR_VSA6>  (240) 
0.0

>  <SMR_VSA7>  (240) 
47.544096

>  <SMR_VSA8>  (240) 
0.0

>  <SMR_VSA9>  (240) 
0.0

>  <SlogP_VSA1>  (240) 
0.0

>  <SlogP_VSA10>  (240) 
0.0

>  <SlogP_VSA11>  (240) 
0.0

>  <SlogP_VSA12>  (240) 
0.0

>  <SlogP_VSA2>  (240) 
21.150647

>  <SlogP_VSA3>  (240) 
11.343745

>  <SlogP_VSA4>  (240) 
6.923737

>  <SlogP_VSA5>  (240) 
21.745845

>  <SlogP_VSA6>  (240) 
30.592788

>  <SlogP_VSA7>  (240) 
0.0

>  <SlogP_VSA8>  (240) 
0.0

>  <SlogP_VSA9>  (240) 
0.0

>  <EState_VSA1>  (240) 
5.969305

>  <EState_VSA10>  (240) 
4.794537

>  <EState_VSA11>  (240) 
0.0

>  <EState_VSA2>  (240) 
6.606882

>  <EState_VSA3>  (240) 
5.693928

>  <EState_VSA4>  (240) 
11.257379

>  <EState_VSA5>  (240) 
0.0

>  <EState_VSA6>  (240) 
24.526421

>  <EState_VSA7>  (240) 
12.990104

>  <EState_VSA8>  (240) 
15.181342

>  <EState_VSA9>  (240) 
4.736863

>  <VSA_EState1>  (240) 
5.066019

>  <VSA_EState10>  (240) 
0.0

>  <VSA_EState2>  (240) 
15.43258

>  <VSA_EState3>  (240) 
6.497345

>  <VSA_EState4>  (240) 
1.970209

>  <VSA_EState5>  (240) 
-0.436849

>  <VSA_EState6>  (240) 
5.281266

>  <VSA_EState7>  (240) 
3.324871

>  <VSA_EState8>  (240) 
2.031227

>  <VSA_EState9>  (240) 
0.0

>  <FractionCSP3>  (240) 
0.181818

>  <HeavyAtomCount>  (240) 
16

>  <NHOHCount>  (240) 
1

>  <NOCount>  (240) 
5

>  <NumAliphaticCarbocycles>  (240) 
0

>  <NumAliphaticHeterocycles>  (240) 
0

>  <NumAliphaticRings>  (240) 
0

>  <NumAromaticCarbocycles>  (240) 
0

>  <NumAromaticHeterocycles>  (240) 
2

>  <NAR>  (240) 
2

>  <NumHAcceptors>  (240) 
4

>  <NumHDonors>  (240) 
1

>  <NumHeteroatoms>  (240) 
5

>  <NumRotatableBonds>  (240) 
3

>  <NumSaturatedCarbocycles>  (240) 
0

>  <NumSaturatedHeterocycles>  (240) 
0

>  <NumSaturatedRings>  (240) 
0

>  <RingCount>  (240) 
2

>  <MolLogP>  (240) 
1.47012

>  <MolMR>  (240) 
56.6812

>  <fr_Al_COO>  (240) 
0

>  <fr_Al_OH>  (240) 
0

>  <fr_Al_OH_noTert>  (240) 
0

>  <fr_ArN>  (240) 
0

>  <fr_Ar_COO>  (240) 
0

>  <fr_Ar_N>  (240) 
3

>  <fr_Ar_NH>  (240) 
1

>  <fr_Ar_OH>  (240) 
0

>  <fr_COO>  (240) 
0

>  <fr_COO2>  (240) 
0

>  <fr_C_O>  (240) 
1

>  <fr_C_O_noCOO>  (240) 
1

>  <fr_C_S>  (240) 
0

>  <fr_HOCCN>  (240) 
0

>  <fr_Imine>  (240) 
0

>  <fr_NH0>  (240) 
2

>  <fr_NH1>  (240) 
1

>  <fr_NH2>  (240) 
0

>  <fr_N_O>  (240) 
0

>  <fr_Ndealkylation1>  (240) 
0

>  <fr_Ndealkylation2>  (240) 
0

>  <fr_Nhpyrrole>  (240) 
1

>  <fr_SH>  (240) 
0

>  <fr_aldehyde>  (240) 
0

>  <fr_alkyl_carbamate>  (240) 
0

>  <fr_alkyl_halide>  (240) 
0

>  <fr_allylic_oxid>  (240) 
0

>  <fr_amide>  (240) 
0

>  <fr_amidine>  (240) 
0

>  <fr_aniline>  (240) 
0

>  <fr_aryl_methyl>  (240) 
1

>  <fr_azide>  (240) 
0

>  <fr_azo>  (240) 
0

>  <fr_barbitur>  (240) 
0

>  <fr_benzene>  (240) 
0

>  <fr_benzodiazepine>  (240) 
0

>  <fr_bicyclic>  (240) 
0

>  <fr_diazo>  (240) 
0

>  <fr_dihydropyridine>  (240) 
0

>  <fr_epoxide>  (240) 
0

>  <fr_ester>  (240) 
1

>  <fr_ether>  (240) 
1

>  <fr_furan>  (240) 
0

>  <fr_guanido>  (240) 
0

>  <fr_halogen>  (240) 
0

>  <fr_hdrzine>  (240) 
0

>  <fr_hdrzone>  (240) 
0

>  <fr_imidazole>  (240) 
0

>  <fr_imide>  (240) 
0

>  <fr_isocyan>  (240) 
0

>  <fr_isothiocyan>  (240) 
0

>  <fr_ketone>  (240) 
0

>  <fr_ketone_Topliss>  (240) 
0

>  <fr_lactam>  (240) 
0

>  <fr_lactone>  (240) 
0

>  <fr_methoxy>  (240) 
0

>  <fr_morpholine>  (240) 
0

>  <fr_nitrile>  (240) 
0

>  <fr_nitro>  (240) 
0

>  <fr_nitro_arom>  (240) 
0

>  <fr_nitro_arom_nonortho>  (240) 
0

>  <fr_nitroso>  (240) 
0

>  <fr_oxazole>  (240) 
0

>  <fr_oxime>  (240) 
0

>  <fr_para_hydroxylation>  (240) 
0

>  <fr_phenol>  (240) 
0

>  <fr_phenol_noOrthoHbond>  (240) 
0

>  <fr_phos_acid>  (240) 
0

>  <fr_phos_ester>  (240) 
0

>  <fr_piperdine>  (240) 
0

>  <fr_piperzine>  (240) 
0

>  <fr_priamide>  (240) 
0

>  <fr_prisulfonamd>  (240) 
0

>  <fr_pyridine>  (240) 
1

>  <fr_quatN>  (240) 
0

>  <fr_sulfide>  (240) 
0

>  <fr_sulfonamd>  (240) 
0

>  <fr_sulfone>  (240) 
0

>  <fr_term_acetylene>  (240) 
0

>  <fr_tetrazole>  (240) 
0

>  <fr_thiazole>  (240) 
0

>  <fr_thiocyan>  (240) 
0

>  <fr_thiophene>  (240) 
0

>  <fr_unbrch_alkane>  (240) 
0

>  <fr_urea>  (240) 
0

>  <NP-Likeness>  (240) 
-1.696472

$$$$
QNI
     RDKit          3D

  0  0  0  0  0  0  0  0  0  0999 V3000
M  V30 BEGIN CTAB
M  V30 COUNTS 41 44 0 0 0
M  V30 BEGIN ATOM
M  V30 1 C 0.106336 -2.975014 3.800591 0
M  V30 2 N 0.983588 -3.978297 3.764609 0
M  V30 3 C 1.727249 -4.176293 2.660585 0
M  V30 4 C 1.603458 -3.356273 1.549470 0
M  V30 5 N 2.450214 -3.757309 0.581279 0
M  V30 6 C 3.125888 -4.837942 1.060104 0
M  V30 7 N 2.664539 -5.067000 2.323952 0
M  V30 8 C 0.693121 -2.328895 1.609421 0
M  V30 9 N 0.540832 -1.458090 0.469640 0
M  V30 10 C 0.130925 -1.978960 -0.843194 0
M  V30 11 C -1.094613 -1.278469 -1.291653 0
M  V30 12 C -1.511315 -0.086399 -0.508366 0
M  V30 13 C -0.480944 0.687616 0.197564 0
M  V30 14 C 0.781512 -0.012666 0.542235 0
M  V30 15 C -0.159399 1.902408 -0.682251 0
M  V30 16 C 0.904292 2.777945 -0.119931 0
M  V30 17 N 0.752095 3.032711 1.288973 0 CHG=1 VAL=4
M  V30 18 C -0.625046 2.746237 1.639451 0
M  V30 19 C -1.007589 1.311043 1.490430 0
M  V30 20 N -0.028280 -2.171843 2.738007 0
M  V30 21 H -0.536368 -2.715470 4.609212 0
M  V30 22 H 3.884683 -5.412928 0.547236 0
M  V30 23 H 2.984786 -5.833284 2.968968 0
M  V30 24 H 0.998109 -1.904062 -1.562700 0
M  V30 25 H -0.008556 -3.077039 -0.715929 0
M  V30 26 H -0.912214 -1.005464 -2.359154 0
M  V30 27 H -1.907915 -2.035447 -1.343667 0
M  V30 28 H -2.242922 -0.453439 0.270785 0
M  V30 29 H -2.142206 0.552952 -1.168646 0
M  V30 30 H 1.125951 0.171762 1.566293 0
M  V30 31 H 1.593737 0.197854 -0.184686 0
M  V30 32 H 0.065923 1.635433 -1.712892 0
M  V30 33 H -1.129391 2.472302 -0.708381 0
M  V30 34 H 0.771818 3.780274 -0.627268 0
M  V30 35 H 1.928258 2.462300 -0.416841 0
M  V30 36 H 0.877280 4.060071 1.525381 0
M  V30 37 H 1.424203 2.535268 1.883870 0
M  V30 38 H -1.299326 3.464149 1.146566 0
M  V30 39 H -0.707785 2.993537 2.737527 0
M  V30 40 H -0.656573 0.765037 2.382048 0
M  V30 41 H -2.115519 1.255636 1.446443 0
M  V30 END ATOM
M  V30 BEGIN BOND
M  V30 1 2 1 2
M  V30 2 1 2 3
M  V30 3 2 3 4
M  V30 4 1 4 5
M  V30 5 2 5 6
M  V30 6 1 6 7
M  V30 7 1 4 8
M  V30 8 1 8 9
M  V30 9 1 9 10
M  V30 10 1 10 11
M  V30 11 1 11 12
M  V30 12 1 12 13
M  V30 13 1 13 14
M  V30 14 1 13 15
M  V30 15 1 15 16
M  V30 16 1 16 17
M  V30 17 1 17 18
M  V30 18 1 18 19
M  V30 19 2 8 20
M  V30 20 1 20 1
M  V30 21 1 7 3
M  V30 22 1 14 9
M  V30 23 1 19 13
M  V30 24 1 1 21
M  V30 25 1 6 22
M  V30 26 1 7 23
M  V30 27 1 10 24
M  V30 28 1 10 25
M  V30 29 1 11 26
M  V30 30 1 11 27
M  V30 31 1 12 28
M  V30 32 1 12 29
M  V30 33 1 14 30
M  V30 34 1 14 31
M  V30 35 1 15 32
M  V30 36 1 15 33
M  V30 37 1 16 34
M  V30 38 1 16 35
M  V30 39 1 17 36
M  V30 40 1 17 37
M  V30 41 1 18 38
M  V30 42 1 18 39
M  V30 43 1 19 40
M  V30 44 1 19 41
M  V30 END BOND
M  V30 END CTAB
M  END
>  <Dataset>  (241) 
PDB

>  <Ligand_Instance>  (241) 
3ZO3_QNI_A_1351

>  <PDB_ID>  (241) 
3ZO3

>  <Standardized_SMILES>  (241) 
[H]C1=NC2=C(N=C([H])N2[H])C(N2C([H])([H])C([H])([H])C([H])([H])C3(C2([H])[H])C([H])([H])C([H])([H])[N+]([H])([H])C([H])([H])C3([H])[H])=N1

>  <Name>  (241) 
6-(2,9-DIAZASPIRO[5.5]UNDECAN-2-YL)-9H-PURINE

>  <Pocket>  (241) 
A

>  <ATP_Site>  (241) 
1.0

>  <Peripheral>  (241) 
0.0

>  <Num_H_Atoms_ProtBoundConf>  (241) 
21.0

>  <Num_Resolved_Atoms>  (241) 
20.0

>  <Num_Not_Resolved_Atoms>  (241) 
0.0

>  <2D_Mol_H>  (241) 
<rdkit.Chem.rdchem.Mol object at 0x72a238df3b50>

>  <MW>  (241) 
273.364

>  <HBA>  (241) 
4

>  <HBD>  (241) 
2

>  <LogP>  (241) 
0.2967

>  <NRB>  (241) 
1

>  <TPSA>  (241) 
74.31

>  <Num_Heavy_Atoms>  (241) 
20

>  <Ro5>  (241) 
[True, True, True, True, True, True]

>  <Ro5_Fulfilled>  (241) 
True

>  <Ro3>  (241) 
[True, False, True, True]

>  <Ro3_Fulfilled>  (241) 
True

>  <Fsp3>  (241) 
0.642857

>  <Fsp3_0.42>  (241) 
True

>  <Fsp3_0.45>  (241) 
True

>  <Stereogenic_Carbons>  (241) 
0

>  <C_Atoms>  (241) 
14

>  <FCStereo>  (241) 
0.0

>  <SPS>  (241) 
450

>  <nSPS>  (241) 
22.5

>  <PBF>  (241) 
1.065403

>  <PBF_0.6>  (241) 
True

>  <nPBF>  (241) 
0.05327

>  <nPBF_0.016>  (241) 
True

>  <PMI1>  (241) 
718.399537

>  <PMI2>  (241) 
2481.95856

>  <PMI3>  (241) 
2676.79575

>  <NPR1>  (241) 
0.26838

>  <NPR2>  (241) 
0.927213

>  <Sum_NPR>  (241) 
1.195593

>  <Sum_NPR_1.07>  (241) 
True

>  <Sum_NPR_1.2>  (241) 
False

>  <MaxAbsEStateIndex>  (241) 
4.505275

>  <MaxEStateIndex>  (241) 
4.505275

>  <MinAbsEStateIndex>  (241) 
0.500576

>  <MinEStateIndex>  (241) 
0.500576

>  <qed>  (241) 
0.783339

>  <MolWt>  (241) 
273.364

>  <HeavyAtomMolWt>  (241) 
252.196

>  <ExactMolWt>  (241) 
273.182221

>  <NumValenceElectrons>  (241) 
106

>  <NumRadicalElectrons>  (241) 
0

>  <MaxPartialCharge>  (241) 
0.16229

>  <MinPartialCharge>  (241) 
-0.354094

>  <MaxAbsPartialCharge>  (241) 
0.354094

>  <MinAbsPartialCharge>  (241) 
0.16229

>  <FpDensityMorgan1>  (241) 
1.15

>  <FpDensityMorgan2>  (241) 
2.05

>  <FpDensityMorgan3>  (241) 
2.95

>  <BCUT2D_MWHI>  (241) 
15.223329

>  <BCUT2D_MWLOW>  (241) 
9.727085

>  <BCUT2D_CHGHI>  (241) 
2.383232

>  <BCUT2D_CHGLO>  (241) 
-2.441904

>  <BCUT2D_LOGPHI>  (241) 
2.3845

>  <BCUT2D_LOGPLOW>  (241) 
-2.871311

>  <BCUT2D_MRHI>  (241) 
5.822208

>  <BCUT2D_MRLOW>  (241) 
-0.667482

>  <AvgIpc>  (241) 
2.962006

>  <BalabanJ>  (241) 
1.659547

>  <BertzCT>  (241) 
594.97509

>  <Chi0>  (241) 
13.416003

>  <Chi0n>  (241) 
11.677759

>  <Chi0v>  (241) 
11.677759

>  <Chi1>  (241) 
9.863703

>  <Chi1n>  (241) 
7.570865

>  <Chi1v>  (241) 
7.570865

>  <Chi2n>  (241) 
6.18816

>  <Chi2v>  (241) 
6.18816

>  <Chi3n>  (241) 
4.916406

>  <Chi3v>  (241) 
4.916406

>  <Chi4n>  (241) 
3.866006

>  <Chi4v>  (241) 
3.866006

>  <HallKierAlpha>  (241) 
-1.69

>  <Ipc>  (241) 
97165.631401

>  <Kappa1>  (241) 
12.081353

>  <Kappa2>  (241) 
4.697198

>  <Kappa3>  (241) 
1.947156

>  <LabuteASA>  (241) 
117.563685

>  <PEOE_VSA1>  (241) 
15.200677

>  <PEOE_VSA10>  (241) 
11.844021

>  <PEOE_VSA11>  (241) 
11.46504

>  <PEOE_VSA12>  (241) 
0.0

>  <PEOE_VSA13>  (241) 
0.0

>  <PEOE_VSA14>  (241) 
0.0

>  <PEOE_VSA2>  (241) 
0.0

>  <PEOE_VSA3>  (241) 
14.951936

>  <PEOE_VSA4>  (241) 
0.0

>  <PEOE_VSA5>  (241) 
0.0

>  <PEOE_VSA6>  (241) 
0.0

>  <PEOE_VSA7>  (241) 
18.256634

>  <PEOE_VSA8>  (241) 
25.931156

>  <PEOE_VSA9>  (241) 
19.416833

>  <SMR_VSA1>  (241) 
5.316789

>  <SMR_VSA10>  (241) 
16.981741

>  <SMR_VSA2>  (241) 
0.0

>  <SMR_VSA3>  (241) 
19.935914

>  <SMR_VSA4>  (241) 
5.41499

>  <SMR_VSA5>  (241) 
25.683286

>  <SMR_VSA6>  (241) 
31.078935

>  <SMR_VSA7>  (241) 
12.65464

>  <SMR_VSA8>  (241) 
0.0

>  <SMR_VSA9>  (241) 
0.0

>  <SlogP_VSA1>  (241) 
10.216698

>  <SlogP_VSA10>  (241) 
5.817863

>  <SlogP_VSA11>  (241) 
0.0

>  <SlogP_VSA12>  (241) 
0.0

>  <SlogP_VSA2>  (241) 
46.11494

>  <SlogP_VSA3>  (241) 
0.0

>  <SlogP_VSA4>  (241) 
5.41499

>  <SlogP_VSA5>  (241) 
25.683286

>  <SlogP_VSA6>  (241) 
12.65464

>  <SlogP_VSA7>  (241) 
0.0

>  <SlogP_VSA8>  (241) 
11.163878

>  <SlogP_VSA9>  (241) 
0.0

>  <EState_VSA1>  (241) 
0.0

>  <EState_VSA10>  (241) 
0.0

>  <EState_VSA11>  (241) 
0.0

>  <EState_VSA2>  (241) 
0.0

>  <EState_VSA3>  (241) 
5.41499

>  <EState_VSA4>  (241) 
30.071254

>  <EState_VSA5>  (241) 
38.772799

>  <EState_VSA6>  (241) 
12.65464

>  <EState_VSA7>  (241) 
0.0

>  <EState_VSA8>  (241) 
30.152612

>  <EState_VSA9>  (241) 
0.0

>  <VSA_EState1>  (241) 
0.0

>  <VSA_EState10>  (241) 
0.0

>  <VSA_EState2>  (241) 
18.650595

>  <VSA_EState3>  (241) 
2.445235

>  <VSA_EState4>  (241) 
2.249208

>  <VSA_EState5>  (241) 
1.004517

>  <VSA_EState6>  (241) 
0.0

>  <VSA_EState7>  (241) 
8.641408

>  <VSA_EState8>  (241) 
4.759037

>  <VSA_EState9>  (241) 
0.0

>  <FractionCSP3>  (241) 
0.642857

>  <HeavyAtomCount>  (241) 
20

>  <NHOHCount>  (241) 
3

>  <NOCount>  (241) 
6

>  <NumAliphaticCarbocycles>  (241) 
0

>  <NumAliphaticHeterocycles>  (241) 
2

>  <NumAliphaticRings>  (241) 
2

>  <NumAromaticCarbocycles>  (241) 
0

>  <NumAromaticHeterocycles>  (241) 
2

>  <NAR>  (241) 
2

>  <NumHAcceptors>  (241) 
4

>  <NumHDonors>  (241) 
2

>  <NumHeteroatoms>  (241) 
6

>  <NumRotatableBonds>  (241) 
1

>  <NumSaturatedCarbocycles>  (241) 
0

>  <NumSaturatedHeterocycles>  (241) 
2

>  <NumSaturatedRings>  (241) 
2

>  <RingCount>  (241) 
4

>  <MolLogP>  (241) 
0.2967

>  <MolMR>  (241) 
76.4571

>  <fr_Al_COO>  (241) 
0

>  <fr_Al_OH>  (241) 
0

>  <fr_Al_OH_noTert>  (241) 
0

>  <fr_ArN>  (241) 
0

>  <fr_Ar_COO>  (241) 
0

>  <fr_Ar_N>  (241) 
4

>  <fr_Ar_NH>  (241) 
1

>  <fr_Ar_OH>  (241) 
0

>  <fr_COO>  (241) 
0

>  <fr_COO2>  (241) 
0

>  <fr_C_O>  (241) 
0

>  <fr_C_O_noCOO>  (241) 
0

>  <fr_C_S>  (241) 
0

>  <fr_HOCCN>  (241) 
0

>  <fr_Imine>  (241) 
0

>  <fr_NH0>  (241) 
4

>  <fr_NH1>  (241) 
1

>  <fr_NH2>  (241) 
1

>  <fr_N_O>  (241) 
0

>  <fr_Ndealkylation1>  (241) 
0

>  <fr_Ndealkylation2>  (241) 
0

>  <fr_Nhpyrrole>  (241) 
1

>  <fr_SH>  (241) 
0

>  <fr_aldehyde>  (241) 
0

>  <fr_alkyl_carbamate>  (241) 
0

>  <fr_alkyl_halide>  (241) 
0

>  <fr_allylic_oxid>  (241) 
0

>  <fr_amide>  (241) 
0

>  <fr_amidine>  (241) 
0

>  <fr_aniline>  (241) 
1

>  <fr_aryl_methyl>  (241) 
0

>  <fr_azide>  (241) 
0

>  <fr_azo>  (241) 
0

>  <fr_barbitur>  (241) 
0

>  <fr_benzene>  (241) 
0

>  <fr_benzodiazepine>  (241) 
0

>  <fr_bicyclic>  (241) 
1

>  <fr_diazo>  (241) 
0

>  <fr_dihydropyridine>  (241) 
0

>  <fr_epoxide>  (241) 
0

>  <fr_ester>  (241) 
0

>  <fr_ether>  (241) 
0

>  <fr_furan>  (241) 
0

>  <fr_guanido>  (241) 
0

>  <fr_halogen>  (241) 
0

>  <fr_hdrzine>  (241) 
0

>  <fr_hdrzone>  (241) 
0

>  <fr_imidazole>  (241) 
1

>  <fr_imide>  (241) 
0

>  <fr_isocyan>  (241) 
0

>  <fr_isothiocyan>  (241) 
0

>  <fr_ketone>  (241) 
0

>  <fr_ketone_Topliss>  (241) 
0

>  <fr_lactam>  (241) 
0

>  <fr_lactone>  (241) 
0

>  <fr_methoxy>  (241) 
0

>  <fr_morpholine>  (241) 
0

>  <fr_nitrile>  (241) 
0

>  <fr_nitro>  (241) 
0

>  <fr_nitro_arom>  (241) 
0

>  <fr_nitro_arom_nonortho>  (241) 
0

>  <fr_nitroso>  (241) 
0

>  <fr_oxazole>  (241) 
0

>  <fr_oxime>  (241) 
0

>  <fr_para_hydroxylation>  (241) 
0

>  <fr_phenol>  (241) 
0

>  <fr_phenol_noOrthoHbond>  (241) 
0

>  <fr_phos_acid>  (241) 
0

>  <fr_phos_ester>  (241) 
0

>  <fr_piperdine>  (241) 
2

>  <fr_piperzine>  (241) 
0

>  <fr_priamide>  (241) 
0

>  <fr_prisulfonamd>  (241) 
0

>  <fr_pyridine>  (241) 
0

>  <fr_quatN>  (241) 
1

>  <fr_sulfide>  (241) 
0

>  <fr_sulfonamd>  (241) 
0

>  <fr_sulfone>  (241) 
0

>  <fr_term_acetylene>  (241) 
0

>  <fr_tetrazole>  (241) 
0

>  <fr_thiazole>  (241) 
0

>  <fr_thiocyan>  (241) 
0

>  <fr_thiophene>  (241) 
0

>  <fr_unbrch_alkane>  (241) 
0

>  <fr_urea>  (241) 
0

>  <NP-Likeness>  (241) 
-0.557885

$$$$
QWI
     RDKit          3D

  0  0  0  0  0  0  0  0  0  0999 V3000
M  V30 BEGIN CTAB
M  V30 COUNTS 51 55 0 0 0
M  V30 BEGIN ATOM
M  V30 1 C 3.643552 -4.603515 -0.489388 0
M  V30 2 N 4.341025 -5.007741 0.587791 0
M  V30 3 C 4.444419 -4.128276 1.595181 0
M  V30 4 C 3.859892 -2.881786 1.511539 0
M  V30 5 N 4.122550 -2.231533 2.642078 0
M  V30 6 C 4.854707 -3.041729 3.425041 0
M  V30 7 N 5.057465 -4.210425 2.789150 0
M  V30 8 C 3.146196 -2.473768 0.404204 0
M  V30 9 N 2.515107 -1.215515 0.233561 0
M  V30 10 C 1.780477 -0.936919 -1.012942 0
M  V30 11 C 0.662600 0.020562 -0.711824 0
M  V30 12 C 0.086648 -0.193896 0.679095 0
M  V30 13 C 1.109387 -0.049590 1.754669 0
M  V30 14 C 2.507641 -0.138328 1.170494 0
M  V30 15 C -0.967597 0.880592 0.868994 0
M  V30 16 C -2.250101 0.282312 0.311908 0 CFG=2
M  V30 17 C -3.258784 1.291623 -0.047820 0
M  V30 18 C -3.718718 1.323369 -1.361894 0
M  V30 19 C -4.673550 2.270975 -1.723352 0
M  V30 20 C -5.110339 3.131038 -0.743717 0
M  V30 21 C -4.688781 3.144116 0.573910 0
M  V30 22 C -3.740977 2.184814 0.882595 0
M  V30 23 C -2.743186 -0.658994 1.396564 0
M  V30 24 C -1.601356 -1.571617 1.727705 0
M  V30 25 N -0.505553 -1.516566 0.784766 0 CHG=1 VAL=4
M  V30 26 N 3.068743 -3.391128 -0.583712 0
M  V30 27 H 3.487917 -5.227518 -1.374236 0
M  V30 28 H 5.202018 -2.752923 4.404300 0
M  V30 29 H 5.591294 -5.047905 3.137206 0
M  V30 30 H 2.517456 -0.427139 -1.677547 0
M  V30 31 H 1.398166 -1.839202 -1.493128 0
M  V30 32 H 1.050323 1.057656 -0.735010 0
M  V30 33 H -0.164052 -0.080251 -1.425445 0
M  V30 34 H 1.045604 -0.836751 2.537943 0
M  V30 35 H 1.075214 0.968602 2.239726 0
M  V30 36 H 2.667875 0.818546 0.590647 0
M  V30 37 H 3.280583 -0.136168 1.932130 0
M  V30 38 H -0.682582 1.829932 0.401801 0
M  V30 39 H -1.105496 1.117494 1.963990 0
M  V30 40 H -2.004617 -0.326239 -0.574578 0
M  V30 41 H -3.363616 0.638660 -2.119396 0
M  V30 42 H -5.018373 2.287289 -2.728621 0
M  V30 43 H -5.854064 3.852483 -1.069920 0
M  V30 44 H -5.121162 3.874896 1.219945 0
M  V30 45 H -3.396164 2.183040 1.926863 0
M  V30 46 H -3.667267 -1.195142 1.106316 0
M  V30 47 H -2.934083 -0.021024 2.293887 0
M  V30 48 H -1.974645 -2.617807 1.688100 0
M  V30 49 H -1.220436 -1.424826 2.751864 0
M  V30 50 H -0.734993 -1.947668 -0.131141 0
M  V30 51 H 0.231334 -2.152815 1.194368 0
M  V30 END ATOM
M  V30 BEGIN BOND
M  V30 1 2 1 2
M  V30 2 1 2 3
M  V30 3 2 3 4
M  V30 4 1 4 5
M  V30 5 2 5 6
M  V30 6 1 6 7
M  V30 7 1 4 8
M  V30 8 1 8 9
M  V30 9 1 9 10
M  V30 10 1 10 11
M  V30 11 1 11 12
M  V30 12 1 12 13
M  V30 13 1 13 14
M  V30 14 1 12 15
M  V30 15 1 15 16
M  V30 16 1 16 17
M  V30 17 2 17 18
M  V30 18 1 18 19
M  V30 19 2 19 20
M  V30 20 1 20 21
M  V30 21 2 21 22
M  V30 22 1 16 23
M  V30 23 1 23 24
M  V30 24 1 24 25
M  V30 25 2 8 26
M  V30 26 1 26 1
M  V30 27 1 7 3
M  V30 28 1 14 9
M  V30 29 1 22 17
M  V30 30 1 25 12
M  V30 31 1 1 27
M  V30 32 1 6 28
M  V30 33 1 7 29
M  V30 34 1 10 30
M  V30 35 1 10 31
M  V30 36 1 11 32
M  V30 37 1 11 33
M  V30 38 1 13 34
M  V30 39 1 13 35
M  V30 40 1 14 36
M  V30 41 1 14 37
M  V30 42 1 15 38
M  V30 43 1 15 39
M  V30 44 1 16 40 CFG=3
M  V30 45 1 18 41
M  V30 46 1 19 42
M  V30 47 1 20 43
M  V30 48 1 21 44
M  V30 49 1 22 45
M  V30 50 1 23 46
M  V30 51 1 23 47
M  V30 52 1 24 48
M  V30 53 1 24 49
M  V30 54 1 25 50
M  V30 55 1 25 51
M  V30 END BOND
M  V30 END CTAB
M  END
>  <Dataset>  (242) 
PDB

>  <Ligand_Instance>  (242) 
3ZO4_QWI_A_1352

>  <PDB_ID>  (242) 
3ZO4

>  <Standardized_SMILES>  (242) 
[H]C1=NC2=C(N=C([H])N2[H])C(N2C([H])([H])C([H])([H])C3(C([H])([H])C2([H])[H])C([H])([H])[C@]([H])(C2=C([H])C([H])=C([H])C([H])=C2[H])C([H])([H])C([H])([H])[N+]3([H])[H])=N1

>  <Name>  (242) 
6-(4-PHENYL-1,9-DIAZASPIRO[5.5]UNDECAN-9-YL)-9H-PURINE

>  <Pocket>  (242) 
A

>  <ATP_Site>  (242) 
1.0

>  <Peripheral>  (242) 
0.0

>  <Num_H_Atoms_ProtBoundConf>  (242) 
25.0

>  <Num_Resolved_Atoms>  (242) 
26.0

>  <Num_Not_Resolved_Atoms>  (242) 
0.0

>  <2D_Mol_H>  (242) 
<rdkit.Chem.rdchem.Mol object at 0x72a238df3c30>

>  <MW>  (242) 
349.462

>  <HBA>  (242) 
4

>  <HBD>  (242) 
2

>  <LogP>  (242) 
1.8329

>  <NRB>  (242) 
2

>  <TPSA>  (242) 
74.31

>  <Num_Heavy_Atoms>  (242) 
26

>  <Ro5>  (242) 
[True, True, True, True, True, True]

>  <Ro5_Fulfilled>  (242) 
True

>  <Ro3>  (242) 
[False, False, True, True]

>  <Ro3_Fulfilled>  (242) 
False

>  <Fsp3>  (242) 
0.45

>  <Fsp3_0.42>  (242) 
True

>  <Fsp3_0.45>  (242) 
True

>  <Stereogenic_Carbons>  (242) 
1

>  <C_Atoms>  (242) 
20

>  <FCStereo>  (242) 
0.05

>  <SPS>  (242) 
592

>  <nSPS>  (242) 
22.769231

>  <PBF>  (242) 
0.936487

>  <PBF_0.6>  (242) 
True

>  <nPBF>  (242) 
0.036019

>  <nPBF_0.016>  (242) 
True

>  <PMI1>  (242) 
767.219715

>  <PMI2>  (242) 
5878.726683

>  <PMI3>  (242) 
6068.199631

>  <NPR1>  (242) 
0.126433

>  <NPR2>  (242) 
0.968776

>  <Sum_NPR>  (242) 
1.095209

>  <Sum_NPR_1.07>  (242) 
True

>  <Sum_NPR_1.2>  (242) 
False

>  <MaxAbsEStateIndex>  (242) 
4.520989

>  <MaxEStateIndex>  (242) 
4.520989

>  <MinAbsEStateIndex>  (242) 
0.381924

>  <MinEStateIndex>  (242) 
0.381924

>  <qed>  (242) 
0.740214

>  <MolWt>  (242) 
349.462

>  <HeavyAtomMolWt>  (242) 
324.262

>  <ExactMolWt>  (242) 
349.213521

>  <NumValenceElectrons>  (242) 
134

>  <NumRadicalElectrons>  (242) 
0

>  <MaxPartialCharge>  (242) 
0.16229

>  <MinPartialCharge>  (242) 
-0.354156

>  <MaxAbsPartialCharge>  (242) 
0.354156

>  <MinAbsPartialCharge>  (242) 
0.16229

>  <FpDensityMorgan1>  (242) 
1.076923

>  <FpDensityMorgan2>  (242) 
1.923077

>  <FpDensityMorgan3>  (242) 
2.769231

>  <BCUT2D_MWHI>  (242) 
15.228635

>  <BCUT2D_MWLOW>  (242) 
9.735052

>  <BCUT2D_CHGHI>  (242) 
2.427315

>  <BCUT2D_CHGLO>  (242) 
-2.442994

>  <BCUT2D_LOGPHI>  (242) 
2.357943

>  <BCUT2D_LOGPLOW>  (242) 
-2.991625

>  <BCUT2D_MRHI>  (242) 
5.82191

>  <BCUT2D_MRLOW>  (242) 
-0.738532

>  <AvgIpc>  (242) 
3.18492

>  <BalabanJ>  (242) 
1.324279

>  <BertzCT>  (242) 
881.467502

>  <Chi0>  (242) 
17.39913

>  <Chi0n>  (242) 
14.934754

>  <Chi0v>  (242) 
14.934754

>  <Chi1>  (242) 
12.83003

>  <Chi1n>  (242) 
9.613593

>  <Chi1v>  (242) 
9.613593

>  <Chi2n>  (242) 
7.739652

>  <Chi2v>  (242) 
7.739652

>  <Chi3n>  (242) 
6.273019

>  <Chi3v>  (242) 
6.273019

>  <Chi4n>  (242) 
4.832007

>  <Chi4v>  (242) 
4.832007

>  <HallKierAlpha>  (242) 
-2.47

>  <Ipc>  (242) 
2459675.349764

>  <Kappa1>  (242) 
15.759117

>  <Kappa2>  (242) 
6.357642

>  <Kappa3>  (242) 
2.741784

>  <LabuteASA>  (242) 
152.620779

>  <PEOE_VSA1>  (242) 
15.200677

>  <PEOE_VSA10>  (242) 
17.382946

>  <PEOE_VSA11>  (242) 
11.46504

>  <PEOE_VSA12>  (242) 
0.0

>  <PEOE_VSA13>  (242) 
0.0

>  <PEOE_VSA14>  (242) 
0.0

>  <PEOE_VSA2>  (242) 
0.0

>  <PEOE_VSA3>  (242) 
14.951936

>  <PEOE_VSA4>  (242) 
0.0

>  <PEOE_VSA5>  (242) 
0.0

>  <PEOE_VSA6>  (242) 
30.331835

>  <PEOE_VSA7>  (242) 
11.481358

>  <PEOE_VSA8>  (242) 
38.772799

>  <PEOE_VSA9>  (242) 
12.872076

>  <SMR_VSA1>  (242) 
5.316789

>  <SMR_VSA10>  (242) 
16.981741

>  <SMR_VSA2>  (242) 
0.0

>  <SMR_VSA3>  (242) 
19.935914

>  <SMR_VSA4>  (242) 
0.0

>  <SMR_VSA5>  (242) 
37.140118

>  <SMR_VSA6>  (242) 
24.534179

>  <SMR_VSA7>  (242) 
48.549927

>  <SMR_VSA8>  (242) 
0.0

>  <SMR_VSA9>  (242) 
0.0

>  <SlogP_VSA1>  (242) 
10.216698

>  <SlogP_VSA10>  (242) 
5.817863

>  <SlogP_VSA11>  (242) 
0.0

>  <SlogP_VSA12>  (242) 
0.0

>  <SlogP_VSA2>  (242) 
45.109109

>  <SlogP_VSA3>  (242) 
0.0

>  <SlogP_VSA4>  (242) 
0.0

>  <SlogP_VSA5>  (242) 
37.164644

>  <SlogP_VSA6>  (242) 
42.986475

>  <SlogP_VSA7>  (242) 
0.0

>  <SlogP_VSA8>  (242) 
11.163878

>  <SlogP_VSA9>  (242) 
0.0

>  <EState_VSA1>  (242) 
0.0

>  <EState_VSA10>  (242) 
0.0

>  <EState_VSA11>  (242) 
0.0

>  <EState_VSA2>  (242) 
0.0

>  <EState_VSA3>  (242) 
11.456831

>  <EState_VSA4>  (242) 
30.071254

>  <EState_VSA5>  (242) 
37.791494

>  <EState_VSA6>  (242) 
12.65464

>  <EState_VSA7>  (242) 
0.0

>  <EState_VSA8>  (242) 
60.484448

>  <EState_VSA9>  (242) 
0.0

>  <VSA_EState1>  (242) 
0.0

>  <VSA_EState10>  (242) 
0.0

>  <VSA_EState2>  (242) 
18.671885

>  <VSA_EState3>  (242) 
2.618941

>  <VSA_EState4>  (242) 
3.602599

>  <VSA_EState5>  (242) 
1.672561

>  <VSA_EState6>  (242) 
11.062072

>  <VSA_EState7>  (242) 
8.311778

>  <VSA_EState8>  (242) 
3.310164

>  <VSA_EState9>  (242) 
0.0

>  <FractionCSP3>  (242) 
0.45

>  <HeavyAtomCount>  (242) 
26

>  <NHOHCount>  (242) 
3

>  <NOCount>  (242) 
6

>  <NumAliphaticCarbocycles>  (242) 
0

>  <NumAliphaticHeterocycles>  (242) 
2

>  <NumAliphaticRings>  (242) 
2

>  <NumAromaticCarbocycles>  (242) 
1

>  <NumAromaticHeterocycles>  (242) 
2

>  <NAR>  (242) 
3

>  <NumHAcceptors>  (242) 
4

>  <NumHDonors>  (242) 
2

>  <NumHeteroatoms>  (242) 
6

>  <NumRotatableBonds>  (242) 
2

>  <NumSaturatedCarbocycles>  (242) 
0

>  <NumSaturatedHeterocycles>  (242) 
2

>  <NumSaturatedRings>  (242) 
2

>  <RingCount>  (242) 
5

>  <MolLogP>  (242) 
1.8329

>  <MolMR>  (242) 
101.0711

>  <fr_Al_COO>  (242) 
0

>  <fr_Al_OH>  (242) 
0

>  <fr_Al_OH_noTert>  (242) 
0

>  <fr_ArN>  (242) 
0

>  <fr_Ar_COO>  (242) 
0

>  <fr_Ar_N>  (242) 
4

>  <fr_Ar_NH>  (242) 
1

>  <fr_Ar_OH>  (242) 
0

>  <fr_COO>  (242) 
0

>  <fr_COO2>  (242) 
0

>  <fr_C_O>  (242) 
0

>  <fr_C_O_noCOO>  (242) 
0

>  <fr_C_S>  (242) 
0

>  <fr_HOCCN>  (242) 
0

>  <fr_Imine>  (242) 
0

>  <fr_NH0>  (242) 
4

>  <fr_NH1>  (242) 
1

>  <fr_NH2>  (242) 
1

>  <fr_N_O>  (242) 
0

>  <fr_Ndealkylation1>  (242) 
0

>  <fr_Ndealkylation2>  (242) 
0

>  <fr_Nhpyrrole>  (242) 
1

>  <fr_SH>  (242) 
0

>  <fr_aldehyde>  (242) 
0

>  <fr_alkyl_carbamate>  (242) 
0

>  <fr_alkyl_halide>  (242) 
0

>  <fr_allylic_oxid>  (242) 
0

>  <fr_amide>  (242) 
0

>  <fr_amidine>  (242) 
0

>  <fr_aniline>  (242) 
1

>  <fr_aryl_methyl>  (242) 
0

>  <fr_azide>  (242) 
0

>  <fr_azo>  (242) 
0

>  <fr_barbitur>  (242) 
0

>  <fr_benzene>  (242) 
1

>  <fr_benzodiazepine>  (242) 
0

>  <fr_bicyclic>  (242) 
1

>  <fr_diazo>  (242) 
0

>  <fr_dihydropyridine>  (242) 
0

>  <fr_epoxide>  (242) 
0

>  <fr_ester>  (242) 
0

>  <fr_ether>  (242) 
0

>  <fr_furan>  (242) 
0

>  <fr_guanido>  (242) 
0

>  <fr_halogen>  (242) 
0

>  <fr_hdrzine>  (242) 
0

>  <fr_hdrzone>  (242) 
0

>  <fr_imidazole>  (242) 
1

>  <fr_imide>  (242) 
0

>  <fr_isocyan>  (242) 
0

>  <fr_isothiocyan>  (242) 
0

>  <fr_ketone>  (242) 
0

>  <fr_ketone_Topliss>  (242) 
0

>  <fr_lactam>  (242) 
0

>  <fr_lactone>  (242) 
0

>  <fr_methoxy>  (242) 
0

>  <fr_morpholine>  (242) 
0

>  <fr_nitrile>  (242) 
0

>  <fr_nitro>  (242) 
0

>  <fr_nitro_arom>  (242) 
0

>  <fr_nitro_arom_nonortho>  (242) 
0

>  <fr_nitroso>  (242) 
0

>  <fr_oxazole>  (242) 
0

>  <fr_oxime>  (242) 
0

>  <fr_para_hydroxylation>  (242) 
0

>  <fr_phenol>  (242) 
0

>  <fr_phenol_noOrthoHbond>  (242) 
0

>  <fr_phos_acid>  (242) 
0

>  <fr_phos_ester>  (242) 
0

>  <fr_piperdine>  (242) 
2

>  <fr_piperzine>  (242) 
0

>  <fr_priamide>  (242) 
0

>  <fr_prisulfonamd>  (242) 
0

>  <fr_pyridine>  (242) 
0

>  <fr_quatN>  (242) 
1

>  <fr_sulfide>  (242) 
0

>  <fr_sulfonamd>  (242) 
0

>  <fr_sulfone>  (242) 
0

>  <fr_term_acetylene>  (242) 
0

>  <fr_tetrazole>  (242) 
0

>  <fr_thiazole>  (242) 
0

>  <fr_thiocyan>  (242) 
0

>  <fr_thiophene>  (242) 
0

>  <fr_unbrch_alkane>  (242) 
0

>  <fr_urea>  (242) 
0

>  <NP-Likeness>  (242) 
-0.459803

$$$$
RKD
     RDKit          3D

  0  0  0  0  0  0  0  0  0  0999 V3000
M  V30 BEGIN CTAB
M  V30 COUNTS 39 41 0 0 0
M  V30 BEGIN ATOM
M  V30 1 O 2.691198 -1.480372 -0.561158 0
M  V30 2 C 1.919735 -1.474535 0.620458 0 CFG=2
M  V30 3 C 1.187418 -2.763217 0.676726 0
M  V30 4 C 1.193630 -3.814714 1.557269 0
M  V30 5 C 0.373340 -4.887778 1.318537 0
M  V30 6 C -0.480034 -5.009148 0.244033 0
M  V30 7 Cl -1.466746 -6.423753 0.058359 0
M  V30 8 C -0.489323 -3.939628 -0.656128 0
M  V30 9 C 0.334586 -2.853712 -0.422575 0
M  V30 10 C 1.005814 -0.304038 0.577436 0
M  V30 11 C 1.511661 0.891106 0.078304 0
M  V30 12 C 0.685018 1.998937 0.021798 0
M  V30 13 C -0.629165 1.902068 0.461446 0
M  V30 14 C -1.568856 3.044716 0.435559 0
M  V30 15 C -2.951707 3.011978 0.259781 0
M  V30 16 N -3.420552 4.280020 0.307060 0
M  V30 17 N -2.396500 5.092276 0.502925 0
M  V30 18 C -1.239109 4.397586 0.589545 0
M  V30 19 C -1.150631 0.707641 0.964961 0
M  V30 20 C -0.301519 -0.376852 1.007429 0
M  V30 21 C 2.850960 -1.277535 1.758675 0
M  V30 22 N 2.144153 -1.242880 2.996795 0 CHG=1 VAL=4
M  V30 23 H 2.102798 -1.372572 -1.364080 0
M  V30 24 H 1.876866 -3.652974 2.356917 0
M  V30 25 H 0.439609 -5.686409 2.074012 0
M  V30 26 H -1.171154 -4.074947 -1.485051 0
M  V30 27 H 0.188050 -2.121336 -1.230501 0
M  V30 28 H 2.545778 0.937328 -0.257985 0
M  V30 29 H 1.041471 2.966103 -0.365271 0
M  V30 30 H -3.470605 2.055033 0.113856 0
M  V30 31 H -4.443893 4.475919 0.196075 0
M  V30 32 H -0.245708 4.801140 0.747179 0
M  V30 33 H -2.188288 0.635920 1.311514 0
M  V30 34 H -0.713754 -1.307651 1.394577 0
M  V30 35 H 3.309245 -0.251952 1.610201 0
M  V30 36 H 3.729409 -1.953696 1.763332 0
M  V30 37 H 2.527564 -1.837297 3.757560 0
M  V30 38 H 1.112690 -1.466450 2.898499 0
M  V30 39 H 2.143516 -0.265132 3.428046 0
M  V30 END ATOM
M  V30 BEGIN BOND
M  V30 1 1 2 1 CFG=3
M  V30 2 1 2 3
M  V30 3 2 3 4
M  V30 4 1 4 5
M  V30 5 2 5 6
M  V30 6 1 6 7
M  V30 7 1 6 8
M  V30 8 2 8 9
M  V30 9 1 2 10
M  V30 10 2 10 11
M  V30 11 1 11 12
M  V30 12 2 12 13
M  V30 13 1 13 14
M  V30 14 2 14 15
M  V30 15 1 15 16
M  V30 16 1 16 17
M  V30 17 2 17 18
M  V30 18 1 13 19
M  V30 19 2 19 20
M  V30 20 1 2 21
M  V30 21 1 21 22
M  V30 22 1 9 3
M  V30 23 1 20 10
M  V30 24 1 18 14
M  V30 25 1 1 23
M  V30 26 1 4 24
M  V30 27 1 5 25
M  V30 28 1 8 26
M  V30 29 1 9 27
M  V30 30 1 11 28
M  V30 31 1 12 29
M  V30 32 1 15 30
M  V30 33 1 16 31
M  V30 34 1 18 32
M  V30 35 1 19 33
M  V30 36 1 20 34
M  V30 37 1 21 35
M  V30 38 1 21 36
M  V30 39 1 22 37
M  V30 40 1 22 38
M  V30 41 1 22 39
M  V30 END BOND
M  V30 END CTAB
M  END
>  <Dataset>  (243) 
PDB

>  <Ligand_Instance>  (243) 
4AXA_RKD_A_1351

>  <PDB_ID>  (243) 
4AXA

>  <Standardized_SMILES>  (243) 
[H]O[C@](C1=C([H])C([H])=C(Cl)C([H])=C1[H])(C1=C([H])C([H])=C(C2=C([H])N([H])N=C2[H])C([H])=C1[H])C([H])([H])[N+]([H])([H])[H]

>  <Name>  (243) 
(2S)-2-(4-chlorophenyl)-2-hydroxy-2-[4-(1H-pyrazol-4-yl)phenyl]ethanaminium

>  <Pocket>  (243) 
A

>  <ATP_Site>  (243) 
1.0

>  <Peripheral>  (243) 
0.0

>  <Num_H_Atoms_ProtBoundConf>  (243) 
17.0

>  <Num_Resolved_Atoms>  (243) 
22.0

>  <Num_Not_Resolved_Atoms>  (243) 
0.0

>  <2D_Mol_H>  (243) 
<rdkit.Chem.rdchem.Mol object at 0x72a238df3d10>

>  <MW>  (243) 
314.796

>  <HBA>  (243) 
2

>  <HBD>  (243) 
3

>  <LogP>  (243) 
2.2079

>  <NRB>  (243) 
6

>  <TPSA>  (243) 
76.55

>  <Num_Heavy_Atoms>  (243) 
22

>  <Ro5>  (243) 
[True, True, True, True, True, True]

>  <Ro5_Fulfilled>  (243) 
True

>  <Ro3>  (243) 
[False, True, True, True]

>  <Ro3_Fulfilled>  (243) 
True

>  <Fsp3>  (243) 
0.117647

>  <Fsp3_0.42>  (243) 
False

>  <Fsp3_0.45>  (243) 
False

>  <Stereogenic_Carbons>  (243) 
1

>  <C_Atoms>  (243) 
17

>  <FCStereo>  (243) 
0.058824

>  <SPS>  (243) 
303

>  <nSPS>  (243) 
13.772727

>  <PBF>  (243) 
0.885426

>  <PBF_0.6>  (243) 
True

>  <nPBF>  (243) 
0.040247

>  <nPBF_0.016>  (243) 
True

>  <PMI1>  (243) 
1115.284246

>  <PMI2>  (243) 
4108.01984

>  <PMI3>  (243) 
4814.657852

>  <NPR1>  (243) 
0.231644

>  <NPR2>  (243) 
0.853232

>  <Sum_NPR>  (243) 
1.084875

>  <Sum_NPR_1.07>  (243) 
True

>  <Sum_NPR_1.2>  (243) 
False

>  <MaxAbsEStateIndex>  (243) 
11.050935

>  <MaxEStateIndex>  (243) 
11.050935

>  <MinAbsEStateIndex>  (243) 
0.333025

>  <MinEStateIndex>  (243) 
-1.125481

>  <qed>  (243) 
0.690264

>  <MolWt>  (243) 
314.796

>  <HeavyAtomMolWt>  (243) 
297.66

>  <ExactMolWt>  (243) 
314.105466

>  <NumValenceElectrons>  (243) 
112

>  <NumRadicalElectrons>  (243) 
0

>  <MaxPartialCharge>  (243) 
0.163222

>  <MinPartialCharge>  (243) 
-0.374678

>  <MaxAbsPartialCharge>  (243) 
0.374678

>  <MinAbsPartialCharge>  (243) 
0.163222

>  <FpDensityMorgan1>  (243) 
1.0

>  <FpDensityMorgan2>  (243) 
1.590909

>  <FpDensityMorgan3>  (243) 
2.090909

>  <BCUT2D_MWHI>  (243) 
35.495691

>  <BCUT2D_MWLOW>  (243) 
9.855888

>  <BCUT2D_CHGHI>  (243) 
2.317788

>  <BCUT2D_CHGLO>  (243) 
-2.256146

>  <BCUT2D_LOGPHI>  (243) 
2.303271

>  <BCUT2D_LOGPLOW>  (243) 
-2.600414

>  <BCUT2D_MRHI>  (243) 
6.300936

>  <BCUT2D_MRLOW>  (243) 
-0.396692

>  <AvgIpc>  (243) 
3.093014

>  <BalabanJ>  (243) 
1.977146

>  <BertzCT>  (243) 
738.589932

>  <Chi0>  (243) 
15.57914

>  <Chi0n>  (243) 
11.960108

>  <Chi0v>  (243) 
12.716037

>  <Chi1>  (243) 
10.631177

>  <Chi1n>  (243) 
7.006708

>  <Chi1v>  (243) 
7.384672

>  <Chi2n>  (243) 
5.181495

>  <Chi2v>  (243) 
5.617931

>  <Chi3n>  (243) 
3.877603

>  <Chi3v>  (243) 
4.12958

>  <Chi4n>  (243) 
2.528106

>  <Chi4v>  (243) 
2.654094

>  <HallKierAlpha>  (243) 
-2.14

>  <Ipc>  (243) 
173654.206016

>  <Kappa1>  (243) 
14.782991

>  <Kappa2>  (243) 
5.926702

>  <Kappa3>  (243) 
2.639121

>  <LabuteASA>  (243) 
133.110128

>  <PEOE_VSA1>  (243) 
10.840195

>  <PEOE_VSA10>  (243) 
6.544756

>  <PEOE_VSA11>  (243) 
5.601051

>  <PEOE_VSA12>  (243) 
0.0

>  <PEOE_VSA13>  (243) 
0.0

>  <PEOE_VSA14>  (243) 
0.0

>  <PEOE_VSA2>  (243) 
5.098682

>  <PEOE_VSA3>  (243) 
0.0

>  <PEOE_VSA4>  (243) 
5.098682

>  <PEOE_VSA5>  (243) 
0.0

>  <PEOE_VSA6>  (243) 
47.999142

>  <PEOE_VSA7>  (243) 
28.823089

>  <PEOE_VSA8>  (243) 
16.782928

>  <PEOE_VSA9>  (243) 
6.196844

>  <SMR_VSA1>  (243) 
10.840195

>  <SMR_VSA10>  (243) 
11.60094

>  <SMR_VSA2>  (243) 
0.0

>  <SMR_VSA3>  (243) 
10.197364

>  <SMR_VSA4>  (243) 
0.0

>  <SMR_VSA5>  (243) 
5.601051

>  <SMR_VSA6>  (243) 
6.544756

>  <SMR_VSA7>  (243) 
77.07416

>  <SMR_VSA8>  (243) 
0.0

>  <SMR_VSA9>  (243) 
11.126903

>  <SlogP_VSA1>  (243) 
5.733667

>  <SlogP_VSA10>  (243) 
0.0

>  <SlogP_VSA11>  (243) 
0.0

>  <SlogP_VSA12>  (243) 
11.60094

>  <SlogP_VSA2>  (243) 
21.848647

>  <SlogP_VSA3>  (243) 
5.601051

>  <SlogP_VSA4>  (243) 
0.0

>  <SlogP_VSA5>  (243) 
11.126903

>  <SlogP_VSA6>  (243) 
60.924624

>  <SlogP_VSA7>  (243) 
5.022633

>  <SlogP_VSA8>  (243) 
11.126903

>  <SlogP_VSA9>  (243) 
0.0

>  <EState_VSA1>  (243) 
5.601051

>  <EState_VSA10>  (243) 
5.106527

>  <EState_VSA11>  (243) 
0.0

>  <EState_VSA2>  (243) 
0.0

>  <EState_VSA3>  (243) 
11.56739

>  <EState_VSA4>  (243) 
22.253806

>  <EState_VSA5>  (243) 
0.0

>  <EState_VSA6>  (243) 
18.329578

>  <EState_VSA7>  (243) 
42.595046

>  <EState_VSA8>  (243) 
15.931031

>  <EState_VSA9>  (243) 
11.60094

>  <VSA_EState1>  (243) 
0.0

>  <VSA_EState10>  (243) 
5.922661

>  <VSA_EState2>  (243) 
0.0

>  <VSA_EState3>  (243) 
18.433235

>  <VSA_EState4>  (243) 
6.417246

>  <VSA_EState5>  (243) 
0.0

>  <VSA_EState6>  (243) 
14.987534

>  <VSA_EState7>  (243) 
3.600744

>  <VSA_EState8>  (243) 
0.333025

>  <VSA_EState9>  (243) 
0.0

>  <FractionCSP3>  (243) 
0.117647

>  <HeavyAtomCount>  (243) 
22

>  <NHOHCount>  (243) 
5

>  <NOCount>  (243) 
4

>  <NumAliphaticCarbocycles>  (243) 
0

>  <NumAliphaticHeterocycles>  (243) 
0

>  <NumAliphaticRings>  (243) 
0

>  <NumAromaticCarbocycles>  (243) 
2

>  <NumAromaticHeterocycles>  (243) 
1

>  <NAR>  (243) 
3

>  <NumHAcceptors>  (243) 
2

>  <NumHDonors>  (243) 
3

>  <NumHeteroatoms>  (243) 
5

>  <NumRotatableBonds>  (243) 
4

>  <NumSaturatedCarbocycles>  (243) 
0

>  <NumSaturatedHeterocycles>  (243) 
0

>  <NumSaturatedRings>  (243) 
0

>  <RingCount>  (243) 
3

>  <MolLogP>  (243) 
2.2079

>  <MolMR>  (243) 
86.2296

>  <fr_Al_COO>  (243) 
0

>  <fr_Al_OH>  (243) 
1

>  <fr_Al_OH_noTert>  (243) 
0

>  <fr_ArN>  (243) 
0

>  <fr_Ar_COO>  (243) 
0

>  <fr_Ar_N>  (243) 
2

>  <fr_Ar_NH>  (243) 
1

>  <fr_Ar_OH>  (243) 
0

>  <fr_COO>  (243) 
0

>  <fr_COO2>  (243) 
0

>  <fr_C_O>  (243) 
0

>  <fr_C_O_noCOO>  (243) 
0

>  <fr_C_S>  (243) 
0

>  <fr_HOCCN>  (243) 
0

>  <fr_Imine>  (243) 
0

>  <fr_NH0>  (243) 
1

>  <fr_NH1>  (243) 
1

>  <fr_NH2>  (243) 
0

>  <fr_N_O>  (243) 
0

>  <fr_Ndealkylation1>  (243) 
0

>  <fr_Ndealkylation2>  (243) 
0

>  <fr_Nhpyrrole>  (243) 
1

>  <fr_SH>  (243) 
0

>  <fr_aldehyde>  (243) 
0

>  <fr_alkyl_carbamate>  (243) 
0

>  <fr_alkyl_halide>  (243) 
0

>  <fr_allylic_oxid>  (243) 
0

>  <fr_amide>  (243) 
0

>  <fr_amidine>  (243) 
0

>  <fr_aniline>  (243) 
0

>  <fr_aryl_methyl>  (243) 
0

>  <fr_azide>  (243) 
0

>  <fr_azo>  (243) 
0

>  <fr_barbitur>  (243) 
0

>  <fr_benzene>  (243) 
2

>  <fr_benzodiazepine>  (243) 
0

>  <fr_bicyclic>  (243) 
0

>  <fr_diazo>  (243) 
0

>  <fr_dihydropyridine>  (243) 
0

>  <fr_epoxide>  (243) 
0

>  <fr_ester>  (243) 
0

>  <fr_ether>  (243) 
0

>  <fr_furan>  (243) 
0

>  <fr_guanido>  (243) 
0

>  <fr_halogen>  (243) 
1

>  <fr_hdrzine>  (243) 
0

>  <fr_hdrzone>  (243) 
0

>  <fr_imidazole>  (243) 
0

>  <fr_imide>  (243) 
0

>  <fr_isocyan>  (243) 
0

>  <fr_isothiocyan>  (243) 
0

>  <fr_ketone>  (243) 
0

>  <fr_ketone_Topliss>  (243) 
0

>  <fr_lactam>  (243) 
0

>  <fr_lactone>  (243) 
0

>  <fr_methoxy>  (243) 
0

>  <fr_morpholine>  (243) 
0

>  <fr_nitrile>  (243) 
0

>  <fr_nitro>  (243) 
0

>  <fr_nitro_arom>  (243) 
0

>  <fr_nitro_arom_nonortho>  (243) 
0

>  <fr_nitroso>  (243) 
0

>  <fr_oxazole>  (243) 
0

>  <fr_oxime>  (243) 
0

>  <fr_para_hydroxylation>  (243) 
0

>  <fr_phenol>  (243) 
0

>  <fr_phenol_noOrthoHbond>  (243) 
0

>  <fr_phos_acid>  (243) 
0

>  <fr_phos_ester>  (243) 
0

>  <fr_piperdine>  (243) 
0

>  <fr_piperzine>  (243) 
0

>  <fr_priamide>  (243) 
0

>  <fr_prisulfonamd>  (243) 
0

>  <fr_pyridine>  (243) 
0

>  <fr_quatN>  (243) 
1

>  <fr_sulfide>  (243) 
0

>  <fr_sulfonamd>  (243) 
0

>  <fr_sulfone>  (243) 
0

>  <fr_term_acetylene>  (243) 
0

>  <fr_tetrazole>  (243) 
0

>  <fr_thiazole>  (243) 
0

>  <fr_thiocyan>  (243) 
0

>  <fr_thiophene>  (243) 
0

>  <fr_unbrch_alkane>  (243) 
0

>  <fr_urea>  (243) 
0

>  <NP-Likeness>  (243) 
-1.019823

$$$$
S3N
     RDKit          3D

  0  0  0  0  0  0  0  0  0  0999 V3000
M  V30 BEGIN CTAB
M  V30 COUNTS 45 48 0 0 0
M  V30 BEGIN ATOM
M  V30 1 C 2.417041 -6.654805 -0.358037 0
M  V30 2 N 2.551368 -5.300824 -0.415742 0
M  V30 3 C 1.478820 -4.494369 -0.319046 0
M  V30 4 C 1.586521 -3.098411 -0.375152 0
M  V30 5 C 0.457332 -2.271466 -0.272699 0
M  V30 6 C 0.792131 -0.830775 -0.347566 0 CFG=1
M  V30 7 C 0.399551 -0.251059 -1.679994 0
M  V30 8 N -0.978959 0.102077 -1.513032 0 CHG=1 VAL=4
M  V30 9 C -1.150955 0.492097 -0.133583 0
M  V30 10 C 0.050243 0.038522 0.618349 0 CFG=2
M  V30 11 C 0.907407 1.210326 0.951977 0
M  V30 12 O 2.009154 1.220501 0.383551 0
M  V30 13 C 0.533864 2.285072 1.863380 0
M  V30 14 C 1.482258 3.275043 2.027512 0
M  V30 15 C 1.145459 4.315853 2.897070 0
M  V30 16 C -0.063455 4.352565 3.553230 0
M  V30 17 C -0.291093 5.528935 4.455903 0
M  V30 18 F -1.627672 5.576617 4.848086 0
M  V30 19 F 0.467987 5.408542 5.605941 0
M  V30 20 F -0.045007 6.717938 3.802931 0
M  V30 21 C -1.007683 3.339031 3.371234 0
M  V30 22 C -0.685414 2.297190 2.508572 0
M  V30 23 C -0.740694 -2.918492 -0.115845 0
M  V30 24 C -0.855312 -4.290317 -0.059870 0
M  V30 25 C 0.252383 -5.104945 -0.160448 0
M  V30 26 C 0.093840 -6.473597 -0.099537 0
M  V30 27 O -1.077052 -6.923884 0.047719 0
M  V30 28 N 1.213980 -7.244584 -0.202752 0
M  V30 29 H 3.281695 -7.286670 -0.436523 0
M  V30 30 H 2.604505 -2.763045 -0.501579 0
M  V30 31 H 1.911674 -0.695386 -0.229837 0
M  V30 32 H 1.039582 0.611086 -1.960178 0
M  V30 33 H 0.474457 -0.990431 -2.504123 0
M  V30 34 H -1.275506 0.887182 -2.148618 0
M  V30 35 H -1.561194 -0.717394 -1.808498 0
M  V30 36 H -2.102686 0.024350 0.230772 0
M  V30 37 H -1.284455 1.602780 -0.107238 0
M  V30 38 H -0.190391 -0.473393 1.573356 0
M  V30 39 H 2.445603 3.295719 1.537937 0
M  V30 40 H 1.887438 5.097196 3.029920 0
M  V30 41 H -1.933776 3.433435 3.918060 0
M  V30 42 H -1.406503 1.518072 2.366270 0
M  V30 43 H -1.584934 -2.271139 -0.034351 0
M  V30 44 H -1.862654 -4.670535 0.066645 0
M  V30 45 H 1.069935 -8.277611 -0.154021 0
M  V30 END ATOM
M  V30 BEGIN BOND
M  V30 1 2 1 2
M  V30 2 1 2 3
M  V30 3 2 3 4
M  V30 4 1 4 5
M  V30 5 1 5 6
M  V30 6 1 6 7
M  V30 7 1 7 8
M  V30 8 1 8 9
M  V30 9 1 9 10
M  V30 10 1 10 11
M  V30 11 2 11 12
M  V30 12 1 11 13
M  V30 13 2 13 14
M  V30 14 1 14 15
M  V30 15 2 15 16
M  V30 16 1 16 17
M  V30 17 1 17 18
M  V30 18 1 17 19
M  V30 19 1 17 20
M  V30 20 1 16 21
M  V30 21 2 21 22
M  V30 22 2 5 23
M  V30 23 1 23 24
M  V30 24 2 24 25
M  V30 25 1 25 26
M  V30 26 2 26 27
M  V30 27 1 26 28
M  V30 28 1 28 1
M  V30 29 1 25 3
M  V30 30 1 10 6
M  V30 31 1 22 13
M  V30 32 1 1 29
M  V30 33 1 4 30
M  V30 34 1 6 31 CFG=1
M  V30 35 1 7 32
M  V30 36 1 7 33
M  V30 37 1 8 34
M  V30 38 1 8 35
M  V30 39 1 9 36
M  V30 40 1 9 37
M  V30 41 1 10 38 CFG=1
M  V30 42 1 14 39
M  V30 43 1 15 40
M  V30 44 1 21 41
M  V30 45 1 22 42
M  V30 46 1 23 43
M  V30 47 1 24 44
M  V30 48 1 28 45
M  V30 END BOND
M  V30 END CTAB
M  END
>  <Dataset>  (244) 
PDB

>  <Ligand_Instance>  (244) 
4UJ9_S3N_A_1351

>  <PDB_ID>  (244) 
4UJ9

>  <Standardized_SMILES>  (244) 
[H]C1=NC2=C([H])C([C@@]3([H])C([H])([H])[N+]([H])([H])C([H])([H])[C@]3([H])C(=O)C3=C([H])C([H])=C(C(F)(F)F)C([H])=C3[H])=C([H])C([H])=C2C(=O)N1[H]

>  <Name>  (244) 
7-[(3S,4R)-4-[4-(trifluoromethyl)phenyl]carbonylpyrrolidin-3-yl]-3H-quinazolin-4-one

>  <Pocket>  (244) 
A

>  <ATP_Site>  (244) 
1.0

>  <Peripheral>  (244) 
0.0

>  <Num_H_Atoms_ProtBoundConf>  (244) 
17.0

>  <Num_Resolved_Atoms>  (244) 
28.0

>  <Num_Not_Resolved_Atoms>  (244) 
0.0

>  <2D_Mol_H>  (244) 
<rdkit.Chem.rdchem.Mol object at 0x72a238df3df0>

>  <MW>  (244) 
388.369

>  <HBA>  (244) 
3

>  <HBD>  (244) 
2

>  <LogP>  (244) 
2.1016

>  <NRB>  (244) 
3

>  <TPSA>  (244) 
79.43

>  <Num_Heavy_Atoms>  (244) 
28

>  <Ro5>  (244) 
[True, True, True, True, True, True]

>  <Ro5_Fulfilled>  (244) 
True

>  <Ro3>  (244) 
[False, True, True, True]

>  <Ro3_Fulfilled>  (244) 
True

>  <Fsp3>  (244) 
0.25

>  <Fsp3_0.42>  (244) 
False

>  <Fsp3_0.45>  (244) 
False

>  <Stereogenic_Carbons>  (244) 
2

>  <C_Atoms>  (244) 
20

>  <FCStereo>  (244) 
0.1

>  <SPS>  (244) 
555

>  <nSPS>  (244) 
19.821429

>  <PBF>  (244) 
1.140975

>  <PBF_0.6>  (244) 
True

>  <nPBF>  (244) 
0.040749

>  <nPBF_0.016>  (244) 
True

>  <PMI1>  (244) 
1031.242509

>  <PMI2>  (244) 
9127.130752

>  <PMI3>  (244) 
9201.317322

>  <NPR1>  (244) 
0.112076

>  <NPR2>  (244) 
0.991937

>  <Sum_NPR>  (244) 
1.104013

>  <Sum_NPR_1.07>  (244) 
True

>  <Sum_NPR_1.2>  (244) 
False

>  <MaxAbsEStateIndex>  (244) 
12.937493

>  <MaxEStateIndex>  (244) 
12.937493

>  <MinAbsEStateIndex>  (244) 
0.096963

>  <MinEStateIndex>  (244) 
-4.429376

>  <qed>  (244) 
0.674773

>  <MolWt>  (244) 
388.369

>  <HeavyAtomMolWt>  (244) 
371.233

>  <ExactMolWt>  (244) 
388.126738

>  <NumValenceElectrons>  (244) 
144

>  <NumRadicalElectrons>  (244) 
0

>  <MaxPartialCharge>  (244) 
0.41591

>  <MinPartialCharge>  (244) 
-0.345089

>  <MaxAbsPartialCharge>  (244) 
0.41591

>  <MinAbsPartialCharge>  (244) 
0.345089

>  <FpDensityMorgan1>  (244) 
1.107143

>  <FpDensityMorgan2>  (244) 
1.857143

>  <FpDensityMorgan3>  (244) 
2.571429

>  <BCUT2D_MWHI>  (244) 
19.413182

>  <BCUT2D_MWLOW>  (244) 
9.832069

>  <BCUT2D_CHGHI>  (244) 
2.379947

>  <BCUT2D_CHGLO>  (244) 
-2.160334

>  <BCUT2D_LOGPHI>  (244) 
2.31771

>  <BCUT2D_LOGPLOW>  (244) 
-2.813071

>  <BCUT2D_MRHI>  (244) 
5.984014

>  <BCUT2D_MRLOW>  (244) 
-0.637602

>  <AvgIpc>  (244) 
3.164226

>  <BalabanJ>  (244) 
1.628591

>  <BertzCT>  (244) 
1090.286489

>  <Chi0>  (244) 
19.888541

>  <Chi0n>  (244) 
14.66267

>  <Chi0v>  (244) 
14.66267

>  <Chi1>  (244) 
13.342355

>  <Chi1n>  (244) 
8.848754

>  <Chi1v>  (244) 
8.848754

>  <Chi2n>  (244) 
6.920673

>  <Chi2v>  (244) 
6.920673

>  <Chi3n>  (244) 
5.254264

>  <Chi3v>  (244) 
5.254264

>  <Chi4n>  (244) 
3.795901

>  <Chi4v>  (244) 
3.795901

>  <HallKierAlpha>  (244) 
-3.0

>  <Ipc>  (244) 
2902518.918634

>  <Kappa1>  (244) 
18.367347

>  <Kappa2>  (244) 
6.866414

>  <Kappa3>  (244) 
3.309156

>  <LabuteASA>  (244) 
157.162792

>  <PEOE_VSA1>  (244) 
10.300767

>  <PEOE_VSA10>  (244) 
0.0

>  <PEOE_VSA11>  (244) 
5.783245

>  <PEOE_VSA12>  (244) 
0.0

>  <PEOE_VSA13>  (244) 
5.559267

>  <PEOE_VSA14>  (244) 
6.176299

>  <PEOE_VSA2>  (244) 
9.589074

>  <PEOE_VSA3>  (244) 
4.983979

>  <PEOE_VSA4>  (244) 
13.171245

>  <PEOE_VSA5>  (244) 
0.0

>  <PEOE_VSA6>  (244) 
18.199101

>  <PEOE_VSA7>  (244) 
29.82892

>  <PEOE_VSA8>  (244) 
11.481358

>  <PEOE_VSA9>  (244) 
41.801115

>  <SMR_VSA1>  (244) 
23.282571

>  <SMR_VSA10>  (244) 
16.68617

>  <SMR_VSA2>  (244) 
0.0

>  <SMR_VSA3>  (244) 
9.967957

>  <SMR_VSA4>  (244) 
5.917906

>  <SMR_VSA5>  (244) 
12.094205

>  <SMR_VSA6>  (244) 
13.089513

>  <SMR_VSA7>  (244) 
75.836048

>  <SMR_VSA8>  (244) 
0.0

>  <SMR_VSA9>  (244) 
0.0

>  <SlogP_VSA1>  (244) 
10.876055

>  <SlogP_VSA10>  (244) 
13.171245

>  <SlogP_VSA11>  (244) 
0.0

>  <SlogP_VSA12>  (244) 
0.0

>  <SlogP_VSA2>  (244) 
28.840715

>  <SlogP_VSA3>  (244) 
6.176299

>  <SlogP_VSA4>  (244) 
5.917906

>  <SlogP_VSA5>  (244) 
27.402798

>  <SlogP_VSA6>  (244) 
53.586427

>  <SlogP_VSA7>  (244) 
0.0

>  <SlogP_VSA8>  (244) 
10.902925

>  <SlogP_VSA9>  (244) 
0.0

>  <EState_VSA1>  (244) 
11.73975

>  <EState_VSA10>  (244) 
22.76032

>  <EState_VSA11>  (244) 
0.0

>  <EState_VSA2>  (244) 
28.741775

>  <EState_VSA3>  (244) 
23.992438

>  <EState_VSA4>  (244) 
17.696186

>  <EState_VSA5>  (244) 
18.460054

>  <EState_VSA6>  (244) 
12.132734

>  <EState_VSA7>  (244) 
11.383156

>  <EState_VSA8>  (244) 
9.967957

>  <EState_VSA9>  (244) 
0.0

>  <VSA_EState1>  (244) 
38.222264

>  <VSA_EState10>  (244) 
0.0

>  <VSA_EState2>  (244) 
31.465938

>  <VSA_EState3>  (244) 
2.491727

>  <VSA_EState4>  (244) 
0.71155

>  <VSA_EState5>  (244) 
-0.622312

>  <VSA_EState6>  (244) 
9.663026

>  <VSA_EState7>  (244) 
-3.095983

>  <VSA_EState8>  (244) 
1.247123

>  <VSA_EState9>  (244) 
0.0

>  <FractionCSP3>  (244) 
0.25

>  <HeavyAtomCount>  (244) 
28

>  <NHOHCount>  (244) 
3

>  <NOCount>  (244) 
5

>  <NumAliphaticCarbocycles>  (244) 
0

>  <NumAliphaticHeterocycles>  (244) 
1

>  <NumAliphaticRings>  (244) 
1

>  <NumAromaticCarbocycles>  (244) 
2

>  <NumAromaticHeterocycles>  (244) 
1

>  <NAR>  (244) 
3

>  <NumHAcceptors>  (244) 
3

>  <NumHDonors>  (244) 
2

>  <NumHeteroatoms>  (244) 
8

>  <NumRotatableBonds>  (244) 
3

>  <NumSaturatedCarbocycles>  (244) 
0

>  <NumSaturatedHeterocycles>  (244) 
1

>  <NumSaturatedRings>  (244) 
1

>  <RingCount>  (244) 
4

>  <MolLogP>  (244) 
2.1016

>  <MolMR>  (244) 
96.0286

>  <fr_Al_COO>  (244) 
0

>  <fr_Al_OH>  (244) 
0

>  <fr_Al_OH_noTert>  (244) 
0

>  <fr_ArN>  (244) 
0

>  <fr_Ar_COO>  (244) 
0

>  <fr_Ar_N>  (244) 
2

>  <fr_Ar_NH>  (244) 
1

>  <fr_Ar_OH>  (244) 
0

>  <fr_COO>  (244) 
0

>  <fr_COO2>  (244) 
0

>  <fr_C_O>  (244) 
1

>  <fr_C_O_noCOO>  (244) 
1

>  <fr_C_S>  (244) 
0

>  <fr_HOCCN>  (244) 
0

>  <fr_Imine>  (244) 
0

>  <fr_NH0>  (244) 
1

>  <fr_NH1>  (244) 
1

>  <fr_NH2>  (244) 
1

>  <fr_N_O>  (244) 
0

>  <fr_Ndealkylation1>  (244) 
0

>  <fr_Ndealkylation2>  (244) 
0

>  <fr_Nhpyrrole>  (244) 
1

>  <fr_SH>  (244) 
0

>  <fr_aldehyde>  (244) 
0

>  <fr_alkyl_carbamate>  (244) 
0

>  <fr_alkyl_halide>  (244) 
3

>  <fr_allylic_oxid>  (244) 
0

>  <fr_amide>  (244) 
0

>  <fr_amidine>  (244) 
0

>  <fr_aniline>  (244) 
0

>  <fr_aryl_methyl>  (244) 
0

>  <fr_azide>  (244) 
0

>  <fr_azo>  (244) 
0

>  <fr_barbitur>  (244) 
0

>  <fr_benzene>  (244) 
2

>  <fr_benzodiazepine>  (244) 
0

>  <fr_bicyclic>  (244) 
1

>  <fr_diazo>  (244) 
0

>  <fr_dihydropyridine>  (244) 
0

>  <fr_epoxide>  (244) 
0

>  <fr_ester>  (244) 
0

>  <fr_ether>  (244) 
0

>  <fr_furan>  (244) 
0

>  <fr_guanido>  (244) 
0

>  <fr_halogen>  (244) 
3

>  <fr_hdrzine>  (244) 
0

>  <fr_hdrzone>  (244) 
0

>  <fr_imidazole>  (244) 
0

>  <fr_imide>  (244) 
0

>  <fr_isocyan>  (244) 
0

>  <fr_isothiocyan>  (244) 
0

>  <fr_ketone>  (244) 
1

>  <fr_ketone_Topliss>  (244) 
1

>  <fr_lactam>  (244) 
0

>  <fr_lactone>  (244) 
0

>  <fr_methoxy>  (244) 
0

>  <fr_morpholine>  (244) 
0

>  <fr_nitrile>  (244) 
0

>  <fr_nitro>  (244) 
0

>  <fr_nitro_arom>  (244) 
0

>  <fr_nitro_arom_nonortho>  (244) 
0

>  <fr_nitroso>  (244) 
0

>  <fr_oxazole>  (244) 
0

>  <fr_oxime>  (244) 
0

>  <fr_para_hydroxylation>  (244) 
0

>  <fr_phenol>  (244) 
0

>  <fr_phenol_noOrthoHbond>  (244) 
0

>  <fr_phos_acid>  (244) 
0

>  <fr_phos_ester>  (244) 
0

>  <fr_piperdine>  (244) 
0

>  <fr_piperzine>  (244) 
0

>  <fr_priamide>  (244) 
0

>  <fr_prisulfonamd>  (244) 
0

>  <fr_pyridine>  (244) 
0

>  <fr_quatN>  (244) 
1

>  <fr_sulfide>  (244) 
0

>  <fr_sulfonamd>  (244) 
0

>  <fr_sulfone>  (244) 
0

>  <fr_term_acetylene>  (244) 
0

>  <fr_tetrazole>  (244) 
0

>  <fr_thiazole>  (244) 
0

>  <fr_thiocyan>  (244) 
0

>  <fr_thiophene>  (244) 
0

>  <fr_unbrch_alkane>  (244) 
0

>  <fr_urea>  (244) 
0

>  <NP-Likeness>  (244) 
-0.602094

$$$$
S69
     RDKit          3D

  0  0  0  0  0  0  0  0  0  0999 V3000
M  V30 BEGIN CTAB
M  V30 COUNTS 43 44 0 0 0
M  V30 BEGIN ATOM
M  V30 1 O -0.127520 -3.409146 4.229978 0
M  V30 2 C 0.550880 -3.206116 3.036758 0
M  V30 3 C -0.120652 -3.558235 1.880009 0
M  V30 4 C 0.524373 -3.367726 0.689100 0
M  V30 5 O -0.145608 -3.727200 -0.463434 0
M  V30 6 C 1.781507 -2.854267 0.547222 0
M  V30 7 C 2.533683 -2.518170 -0.679350 0
M  V30 8 N 2.200645 -1.181907 -1.072566 0
M  V30 9 N 0.873516 -0.919024 -1.324801 0
M  V30 10 C 0.692558 0.488166 -1.560323 0
M  V30 11 O 1.534700 1.435963 -1.572445 0
M  V30 12 C -0.642181 1.132704 -1.848613 0
M  V30 13 C -0.843334 2.106545 -0.706713 0
M  V30 14 C -0.641731 3.470716 -0.702763 0
M  V30 15 C -0.871834 4.147688 0.480110 0
M  V30 16 C -1.288110 3.524462 1.639423 0
M  V30 17 C -1.492838 2.152814 1.642486 0
M  V30 18 O -1.911035 1.555376 2.822978 0
M  V30 19 C -2.112442 0.140695 2.809479 0
M  V30 20 C -1.266806 1.475307 0.472619 0
M  V30 21 C 2.477835 -2.494650 1.701249 0
M  V30 22 C 3.815712 -1.928050 1.915795 0
M  V30 23 C 1.821002 -2.688156 2.924931 0
M  V30 24 H 0.083456 -4.135150 4.868921 0
M  V30 25 H -1.115377 -3.966376 1.918120 0
M  V30 26 H -1.141556 -3.587132 -0.515348 0
M  V30 27 H 2.231707 -3.271425 -1.454671 0
M  V30 28 H 3.614492 -2.675377 -0.548963 0
M  V30 29 H 2.611762 -0.460004 -0.441393 0
M  V30 30 H -0.081823 -1.306112 -1.426875 0
M  V30 31 H -1.470606 0.411663 -1.795303 0
M  V30 32 H -0.590543 1.656003 -2.817853 0
M  V30 33 H -0.322023 3.858904 -1.643398 0
M  V30 34 H -0.702399 5.223439 0.450502 0
M  V30 35 H -1.442685 4.148039 2.536445 0
M  V30 36 H -1.124008 -0.273876 2.464568 0
M  V30 37 H -2.861004 -0.081154 2.026320 0
M  V30 38 H -2.347604 -0.273814 3.798546 0
M  V30 39 H -1.444341 0.420128 0.543404 0
M  V30 40 H 4.390504 -1.699316 1.022080 0
M  V30 41 H 4.407429 -2.660318 2.536739 0
M  V30 42 H 3.710255 -1.032103 2.591405 0
M  V30 43 H 2.227009 -2.453191 3.914416 0
M  V30 END ATOM
M  V30 BEGIN BOND
M  V30 1 1 1 2
M  V30 2 2 2 3
M  V30 3 1 3 4
M  V30 4 1 4 5
M  V30 5 2 4 6
M  V30 6 1 6 7
M  V30 7 1 7 8
M  V30 8 1 8 9
M  V30 9 1 9 10
M  V30 10 2 10 11
M  V30 11 1 10 12
M  V30 12 1 12 13
M  V30 13 2 13 14
M  V30 14 1 14 15
M  V30 15 2 15 16
M  V30 16 1 16 17
M  V30 17 1 17 18
M  V30 18 1 18 19
M  V30 19 2 17 20
M  V30 20 1 6 21
M  V30 21 1 21 22
M  V30 22 2 21 23
M  V30 23 1 23 2
M  V30 24 1 20 13
M  V30 25 1 1 24
M  V30 26 1 3 25
M  V30 27 1 5 26
M  V30 28 1 7 27
M  V30 29 1 7 28
M  V30 30 1 8 29
M  V30 31 1 9 30
M  V30 32 1 12 31
M  V30 33 1 12 32
M  V30 34 1 14 33
M  V30 35 1 15 34
M  V30 36 1 16 35
M  V30 37 1 19 36
M  V30 38 1 19 37
M  V30 39 1 19 38
M  V30 40 1 20 39
M  V30 41 1 22 40
M  V30 42 1 22 41
M  V30 43 1 22 42
M  V30 44 1 23 43
M  V30 END BOND
M  V30 END CTAB
M  END
>  <Dataset>  (245) 
PDB

>  <Ligand_Instance>  (245) 
3POO_S69_A_2001

>  <PDB_ID>  (245) 
3POO

>  <Standardized_SMILES>  (245) 
[H]OC1=C([H])C(O[H])=C(C([H])([H])N([H])N([H])C(=O)C([H])([H])C2=C([H])C([H])=C([H])C(OC([H])([H])[H])=C2[H])C(C([H])([H])[H])=C1[H]

>  <Name>  (245) 
N'-[(E)-(2,4-dihydroxy-6-methylphenyl)methylidene]-2-(3-methoxyphenyl)acetohydrazide

>  <Pocket>  (245) 
A

>  <ATP_Site>  (245) 
1.0

>  <Peripheral>  (245) 
0.0

>  <Num_H_Atoms_ProtBoundConf>  (245) 
20.0

>  <Num_Resolved_Atoms>  (245) 
23.0

>  <Num_Not_Resolved_Atoms>  (245) 
0.0

>  <2D_Mol_H>  (245) 
<rdkit.Chem.rdchem.Mol object at 0x72a238df3ed0>

>  <MW>  (245) 
316.357

>  <HBA>  (245) 
5

>  <HBD>  (245) 
4

>  <LogP>  (245) 
1.77832

>  <NRB>  (245) 
10

>  <TPSA>  (245) 
90.82

>  <Num_Heavy_Atoms>  (245) 
23

>  <Ro5>  (245) 
[True, True, True, True, True, True]

>  <Ro5_Fulfilled>  (245) 
True

>  <Ro3>  (245) 
[False, False, False, True]

>  <Ro3_Fulfilled>  (245) 
False

>  <Fsp3>  (245) 
0.235294

>  <Fsp3_0.42>  (245) 
False

>  <Fsp3_0.45>  (245) 
False

>  <Stereogenic_Carbons>  (245) 
0

>  <C_Atoms>  (245) 
17

>  <FCStereo>  (245) 
0.0

>  <SPS>  (245) 
238

>  <nSPS>  (245) 
10.347826

>  <PBF>  (245) 
1.144631

>  <PBF_0.6>  (245) 
True

>  <nPBF>  (245) 
0.049767

>  <nPBF_0.016>  (245) 
True

>  <PMI1>  (245) 
1481.871199

>  <PMI2>  (245) 
2759.594968

>  <PMI3>  (245) 
3495.415724

>  <NPR1>  (245) 
0.423947

>  <NPR2>  (245) 
0.78949

>  <Sum_NPR>  (245) 
1.213437

>  <Sum_NPR_1.07>  (245) 
True

>  <Sum_NPR_1.2>  (245) 
True

>  <MaxAbsEStateIndex>  (245) 
11.909338

>  <MaxEStateIndex>  (245) 
11.909338

>  <MinAbsEStateIndex>  (245) 
0.00538

>  <MinEStateIndex>  (245) 
-0.199839

>  <qed>  (245) 
0.60993

>  <MolWt>  (245) 
316.357

>  <HeavyAtomMolWt>  (245) 
296.197

>  <ExactMolWt>  (245) 
316.142307

>  <NumValenceElectrons>  (245) 
122

>  <NumRadicalElectrons>  (245) 
0

>  <MaxPartialCharge>  (245) 
0.238008

>  <MinPartialCharge>  (245) 
-0.507813

>  <MaxAbsPartialCharge>  (245) 
0.507813

>  <MinAbsPartialCharge>  (245) 
0.238008

>  <FpDensityMorgan1>  (245) 
1.217391

>  <FpDensityMorgan2>  (245) 
2.0

>  <FpDensityMorgan3>  (245) 
2.695652

>  <BCUT2D_MWHI>  (245) 
16.465345

>  <BCUT2D_MWLOW>  (245) 
10.077378

>  <BCUT2D_CHGHI>  (245) 
2.082474

>  <BCUT2D_CHGLO>  (245) 
-2.115311

>  <BCUT2D_LOGPHI>  (245) 
2.257794

>  <BCUT2D_LOGPLOW>  (245) 
-2.374984

>  <BCUT2D_MRHI>  (245) 
5.777106

>  <BCUT2D_MRLOW>  (245) 
-0.120993

>  <AvgIpc>  (245) 
2.496712

>  <BalabanJ>  (245) 
1.875348

>  <BertzCT>  (245) 
677.737877

>  <Chi0>  (245) 
16.819626

>  <Chi0n>  (245) 
13.089239

>  <Chi0v>  (245) 
13.089239

>  <Chi1>  (245) 
10.990402

>  <Chi1n>  (245) 
7.153991

>  <Chi1v>  (245) 
7.153991

>  <Chi2n>  (245) 
5.190383

>  <Chi2v>  (245) 
5.190383

>  <Chi3n>  (245) 
3.425991

>  <Chi3v>  (245) 
3.425991

>  <Chi4n>  (245) 
2.252969

>  <Chi4v>  (245) 
2.252969

>  <HallKierAlpha>  (245) 
-2.73

>  <Ipc>  (245) 
123961.763239

>  <Kappa1>  (245) 
16.637275

>  <Kappa2>  (245) 
7.507812

>  <Kappa3>  (245) 
4.620144

>  <LabuteASA>  (245) 
134.246603

>  <PEOE_VSA1>  (245) 
14.949918

>  <PEOE_VSA10>  (245) 
17.248535

>  <PEOE_VSA11>  (245) 
0.0

>  <PEOE_VSA12>  (245) 
5.90718

>  <PEOE_VSA13>  (245) 
0.0

>  <PEOE_VSA14>  (245) 
0.0

>  <PEOE_VSA2>  (245) 
10.220329

>  <PEOE_VSA3>  (245) 
5.425791

>  <PEOE_VSA4>  (245) 
0.0

>  <PEOE_VSA5>  (245) 
0.0

>  <PEOE_VSA6>  (245) 
12.132734

>  <PEOE_VSA7>  (245) 
36.249741

>  <PEOE_VSA8>  (245) 
18.174575

>  <PEOE_VSA9>  (245) 
13.530619

>  <SMR_VSA1>  (245) 
19.744455

>  <SMR_VSA10>  (245) 
5.90718

>  <SMR_VSA2>  (245) 
0.0

>  <SMR_VSA3>  (245) 
10.851583

>  <SMR_VSA4>  (245) 
0.0

>  <SMR_VSA5>  (245) 
19.889315

>  <SMR_VSA6>  (245) 
7.109798

>  <SMR_VSA7>  (245) 
53.088557

>  <SMR_VSA8>  (245) 
0.0

>  <SMR_VSA9>  (245) 
17.248535

>  <SlogP_VSA1>  (245) 
15.588446

>  <SlogP_VSA10>  (245) 
0.0

>  <SlogP_VSA11>  (245) 
17.248535

>  <SlogP_VSA12>  (245) 
0.0

>  <SlogP_VSA2>  (245) 
23.230032

>  <SlogP_VSA3>  (245) 
17.760115

>  <SlogP_VSA4>  (245) 
6.923737

>  <SlogP_VSA5>  (245) 
16.690354

>  <SlogP_VSA6>  (245) 
36.398202

>  <SlogP_VSA7>  (245) 
0.0

>  <SlogP_VSA8>  (245) 
0.0

>  <SlogP_VSA9>  (245) 
0.0

>  <EState_VSA1>  (245) 
0.0

>  <EState_VSA10>  (245) 
15.007592

>  <EState_VSA11>  (245) 
0.0

>  <EState_VSA2>  (245) 
30.371781

>  <EState_VSA3>  (245) 
11.312963

>  <EState_VSA4>  (245) 
11.126903

>  <EState_VSA5>  (245) 
6.066367

>  <EState_VSA6>  (245) 
26.166269

>  <EState_VSA7>  (245) 
18.199101

>  <EState_VSA8>  (245) 
10.851583

>  <EState_VSA9>  (245) 
4.736863

>  <VSA_EState1>  (245) 
5.11584

>  <VSA_EState10>  (245) 
0.0

>  <VSA_EState2>  (245) 
11.909338

>  <VSA_EState3>  (245) 
19.182152

>  <VSA_EState4>  (245) 
7.550539

>  <VSA_EState5>  (245) 
0.490675

>  <VSA_EState6>  (245) 
10.104369

>  <VSA_EState7>  (245) 
0.213038

>  <VSA_EState8>  (245) 
2.024125

>  <VSA_EState9>  (245) 
1.57659

>  <FractionCSP3>  (245) 
0.235294

>  <HeavyAtomCount>  (245) 
23

>  <NHOHCount>  (245) 
4

>  <NOCount>  (245) 
6

>  <NumAliphaticCarbocycles>  (245) 
0

>  <NumAliphaticHeterocycles>  (245) 
0

>  <NumAliphaticRings>  (245) 
0

>  <NumAromaticCarbocycles>  (245) 
2

>  <NumAromaticHeterocycles>  (245) 
0

>  <NAR>  (245) 
2

>  <NumHAcceptors>  (245) 
5

>  <NumHDonors>  (245) 
4

>  <NumHeteroatoms>  (245) 
6

>  <NumRotatableBonds>  (245) 
6

>  <NumSaturatedCarbocycles>  (245) 
0

>  <NumSaturatedHeterocycles>  (245) 
0

>  <NumSaturatedRings>  (245) 
0

>  <RingCount>  (245) 
2

>  <MolLogP>  (245) 
1.77832

>  <MolMR>  (245) 
86.189

>  <fr_Al_COO>  (245) 
0

>  <fr_Al_OH>  (245) 
0

>  <fr_Al_OH_noTert>  (245) 
0

>  <fr_ArN>  (245) 
0

>  <fr_Ar_COO>  (245) 
0

>  <fr_Ar_N>  (245) 
0

>  <fr_Ar_NH>  (245) 
0

>  <fr_Ar_OH>  (245) 
2

>  <fr_COO>  (245) 
0

>  <fr_COO2>  (245) 
0

>  <fr_C_O>  (245) 
1

>  <fr_C_O_noCOO>  (245) 
1

>  <fr_C_S>  (245) 
0

>  <fr_HOCCN>  (245) 
0

>  <fr_Imine>  (245) 
0

>  <fr_NH0>  (245) 
0

>  <fr_NH1>  (245) 
2

>  <fr_NH2>  (245) 
0

>  <fr_N_O>  (245) 
0

>  <fr_Ndealkylation1>  (245) 
0

>  <fr_Ndealkylation2>  (245) 
0

>  <fr_Nhpyrrole>  (245) 
0

>  <fr_SH>  (245) 
0

>  <fr_aldehyde>  (245) 
0

>  <fr_alkyl_carbamate>  (245) 
0

>  <fr_alkyl_halide>  (245) 
0

>  <fr_allylic_oxid>  (245) 
0

>  <fr_amide>  (245) 
1

>  <fr_amidine>  (245) 
0

>  <fr_aniline>  (245) 
0

>  <fr_aryl_methyl>  (245) 
1

>  <fr_azide>  (245) 
0

>  <fr_azo>  (245) 
0

>  <fr_barbitur>  (245) 
0

>  <fr_benzene>  (245) 
2

>  <fr_benzodiazepine>  (245) 
0

>  <fr_bicyclic>  (245) 
0

>  <fr_diazo>  (245) 
0

>  <fr_dihydropyridine>  (245) 
0

>  <fr_epoxide>  (245) 
0

>  <fr_ester>  (245) 
0

>  <fr_ether>  (245) 
1

>  <fr_furan>  (245) 
0

>  <fr_guanido>  (245) 
0

>  <fr_halogen>  (245) 
0

>  <fr_hdrzine>  (245) 
1

>  <fr_hdrzone>  (245) 
0

>  <fr_imidazole>  (245) 
0

>  <fr_imide>  (245) 
0

>  <fr_isocyan>  (245) 
0

>  <fr_isothiocyan>  (245) 
0

>  <fr_ketone>  (245) 
0

>  <fr_ketone_Topliss>  (245) 
0

>  <fr_lactam>  (245) 
0

>  <fr_lactone>  (245) 
0

>  <fr_methoxy>  (245) 
1

>  <fr_morpholine>  (245) 
0

>  <fr_nitrile>  (245) 
0

>  <fr_nitro>  (245) 
0

>  <fr_nitro_arom>  (245) 
0

>  <fr_nitro_arom_nonortho>  (245) 
0

>  <fr_nitroso>  (245) 
0

>  <fr_oxazole>  (245) 
0

>  <fr_oxime>  (245) 
0

>  <fr_para_hydroxylation>  (245) 
0

>  <fr_phenol>  (245) 
2

>  <fr_phenol_noOrthoHbond>  (245) 
2

>  <fr_phos_acid>  (245) 
0

>  <fr_phos_ester>  (245) 
0

>  <fr_piperdine>  (245) 
0

>  <fr_piperzine>  (245) 
0

>  <fr_priamide>  (245) 
0

>  <fr_prisulfonamd>  (245) 
0

>  <fr_pyridine>  (245) 
0

>  <fr_quatN>  (245) 
0

>  <fr_sulfide>  (245) 
0

>  <fr_sulfonamd>  (245) 
0

>  <fr_sulfone>  (245) 
0

>  <fr_term_acetylene>  (245) 
0

>  <fr_tetrazole>  (245) 
0

>  <fr_thiazole>  (245) 
0

>  <fr_thiocyan>  (245) 
0

>  <fr_thiophene>  (245) 
0

>  <fr_unbrch_alkane>  (245) 
0

>  <fr_urea>  (245) 
0

>  <NP-Likeness>  (245) 
-0.306508

$$$$
S95
     RDKit          3D

  0  0  0  0  0  0  0  0  0  0999 V3000
M  V30 BEGIN CTAB
M  V30 COUNTS 20 21 0 0 0
M  V30 BEGIN ATOM
M  V30 1 C -0.959751 0.980591 2.591795 0
M  V30 2 N -0.268939 0.251291 3.513522 0
M  V30 3 C 0.733095 -0.595154 3.133168 0
M  V30 4 C 1.032719 -0.698254 1.800985 0
M  V30 5 C 2.050130 -1.558941 1.424962 0
M  V30 6 C 2.376983 -1.684000 0.073989 0
M  V30 7 C 1.690451 -0.953853 -0.885609 0
M  V30 8 C 0.659903 -0.077833 -0.539024 0
M  V30 9 S -0.232463 0.860761 -1.701404 0
M  V30 10 O -1.642732 0.407682 -1.879378 0
M  V30 11 O 0.448132 0.624193 -3.044234 0
M  V30 12 O -0.100824 2.517139 -1.442331 0 CHG=-1 VAL=1
M  V30 13 C 0.387281 -0.000041 0.803198 0
M  V30 14 C -0.616852 0.840649 1.245490 0
M  V30 15 H -1.746348 1.641036 2.922991 0
M  V30 16 H 1.286825 -1.176509 3.845887 0
M  V30 17 H 2.585290 -2.127683 2.169620 0
M  V30 18 H 3.152208 -2.332230 -0.274191 0
M  V30 19 H 1.939680 -1.046837 -1.934999 0
M  V30 20 H -1.214693 1.456875 0.568998 0
M  V30 END ATOM
M  V30 BEGIN BOND
M  V30 1 2 1 2
M  V30 2 1 2 3
M  V30 3 2 3 4
M  V30 4 1 4 5
M  V30 5 2 5 6
M  V30 6 1 6 7
M  V30 7 2 7 8
M  V30 8 1 8 9
M  V30 9 2 9 10
M  V30 10 2 9 11
M  V30 11 1 9 12
M  V30 12 1 8 13
M  V30 13 2 13 14
M  V30 14 1 14 1
M  V30 15 1 13 4
M  V30 16 1 1 15
M  V30 17 1 3 16
M  V30 18 1 5 17
M  V30 19 1 6 18
M  V30 20 1 7 19
M  V30 21 1 14 20
M  V30 END BOND
M  V30 END CTAB
M  END
>  <Dataset>  (246) 
PDB

>  <Ligand_Instance>  (246) 
7AXV_S95_A_401

>  <PDB_ID>  (246) 
7AXV

>  <Standardized_SMILES>  (246) 
[H]C1=NC([H])=C2C([H])=C([H])C([H])=C(S(=O)(=O)[O-])C2=C1[H]

>  <Name>  (246) 
isoquinoline-5-sulfonic acid

>  <Pocket>  (246) 
X

>  <ATP_Site>  (246) 
1.0

>  <Peripheral>  (246) 
1.0

>  <Num_H_Atoms_ProtBoundConf>  (246) 
6.0

>  <Num_Resolved_Atoms>  (246) 
14.0

>  <Num_Not_Resolved_Atoms>  (246) 
0.0

>  <2D_Mol_H>  (246) 
<rdkit.Chem.rdchem.Mol object at 0x72a239100040>

>  <MW>  (246) 
208.218

>  <HBA>  (246) 
4

>  <HBD>  (246) 
0

>  <LogP>  (246) 
1.1389

>  <NRB>  (246) 
1

>  <TPSA>  (246) 
70.09

>  <Num_Heavy_Atoms>  (246) 
14

>  <Ro5>  (246) 
[True, True, True, True, True, True]

>  <Ro5_Fulfilled>  (246) 
True

>  <Ro3>  (246) 
[True, False, True, True]

>  <Ro3_Fulfilled>  (246) 
True

>  <Fsp3>  (246) 
0.0

>  <Fsp3_0.42>  (246) 
False

>  <Fsp3_0.45>  (246) 
False

>  <Stereogenic_Carbons>  (246) 
0

>  <C_Atoms>  (246) 
9

>  <FCStereo>  (246) 
0.0

>  <SPS>  (246) 
165

>  <nSPS>  (246) 
11.785714

>  <PBF>  (246) 
0.149447

>  <PBF_0.6>  (246) 
False

>  <nPBF>  (246) 
0.010675

>  <nPBF_0.016>  (246) 
False

>  <PMI1>  (246) 
448.74508

>  <PMI2>  (246) 
944.318503

>  <PMI3>  (246) 
1282.02807

>  <NPR1>  (246) 
0.350027

>  <NPR2>  (246) 
0.736582

>  <Sum_NPR>  (246) 
1.086609

>  <Sum_NPR_1.07>  (246) 
True

>  <Sum_NPR_1.2>  (246) 
False

>  <MaxAbsEStateIndex>  (246) 
10.870892

>  <MaxEStateIndex>  (246) 
10.870892

>  <MinAbsEStateIndex>  (246) 
0.196852

>  <MinEStateIndex>  (246) 
-4.407199

>  <qed>  (246) 
0.658687

>  <MolWt>  (246) 
208.218

>  <HeavyAtomMolWt>  (246) 
202.17

>  <ExactMolWt>  (246) 
208.007388

>  <NumValenceElectrons>  (246) 
72

>  <NumRadicalElectrons>  (246) 
0

>  <MaxPartialCharge>  (246) 
0.124547

>  <MinPartialCharge>  (246) 
-0.744019

>  <MaxAbsPartialCharge>  (246) 
0.744019

>  <MinAbsPartialCharge>  (246) 
0.124547

>  <FpDensityMorgan1>  (246) 
1.214286

>  <FpDensityMorgan2>  (246) 
2.0

>  <FpDensityMorgan3>  (246) 
2.714286

>  <BCUT2D_MWHI>  (246) 
32.239783

>  <BCUT2D_MWLOW>  (246) 
10.168386

>  <BCUT2D_CHGHI>  (246) 
2.051038

>  <BCUT2D_CHGLO>  (246) 
-2.088928

>  <BCUT2D_LOGPHI>  (246) 
2.205855

>  <BCUT2D_LOGPLOW>  (246) 
-1.987169

>  <BCUT2D_MRHI>  (246) 
7.855758

>  <BCUT2D_MRLOW>  (246) 
0.463778

>  <AvgIpc>  (246) 
2.153976

>  <BalabanJ>  (246) 
2.916803

>  <BertzCT>  (246) 
572.13169

>  <Chi0>  (246) 
10.181798

>  <Chi0n>  (246) 
7.044308

>  <Chi0v>  (246) 
7.860805

>  <Chi1>  (246) 
6.588335

>  <Chi1n>  (246) 
3.875222

>  <Chi1v>  (246) 
5.283471

>  <Chi2n>  (246) 
2.807084

>  <Chi2v>  (246) 
4.155158

>  <Chi3n>  (246) 
1.910073

>  <Chi3v>  (246) 
2.804744

>  <Chi4n>  (246) 
1.310833

>  <Chi4v>  (246) 
2.011297

>  <HallKierAlpha>  (246) 
-1.46

>  <Ipc>  (246) 
1628.40582

>  <Kappa1>  (246) 
9.109024

>  <Kappa2>  (246) 
3.038688

>  <Kappa3>  (246) 
1.470603

>  <LabuteASA>  (246) 
80.961352

>  <PEOE_VSA1>  (246) 
4.55275

>  <PEOE_VSA10>  (246) 
10.118127

>  <PEOE_VSA11>  (246) 
0.0

>  <PEOE_VSA12>  (246) 
0.0

>  <PEOE_VSA13>  (246) 
0.0

>  <PEOE_VSA14>  (246) 
0.0

>  <PEOE_VSA2>  (246) 
4.983979

>  <PEOE_VSA3>  (246) 
8.417797

>  <PEOE_VSA4>  (246) 
0.0

>  <PEOE_VSA5>  (246) 
0.0

>  <PEOE_VSA6>  (246) 
12.132734

>  <PEOE_VSA7>  (246) 
12.132734

>  <PEOE_VSA8>  (246) 
23.166136

>  <PEOE_VSA9>  (246) 
4.895483

>  <SMR_VSA1>  (246) 
12.970547

>  <SMR_VSA10>  (246) 
20.890575

>  <SMR_VSA2>  (246) 
0.0

>  <SMR_VSA3>  (246) 
4.983979

>  <SMR_VSA4>  (246) 
0.0

>  <SMR_VSA5>  (246) 
4.895483

>  <SMR_VSA6>  (246) 
0.0

>  <SMR_VSA7>  (246) 
36.659155

>  <SMR_VSA8>  (246) 
0.0

>  <SMR_VSA9>  (246) 
0.0

>  <SlogP_VSA1>  (246) 
0.0

>  <SlogP_VSA10>  (246) 
0.0

>  <SlogP_VSA11>  (246) 
0.0

>  <SlogP_VSA12>  (246) 
0.0

>  <SlogP_VSA2>  (246) 
17.954525

>  <SlogP_VSA3>  (246) 
10.118127

>  <SlogP_VSA4>  (246) 
0.0

>  <SlogP_VSA5>  (246) 
0.0

>  <SlogP_VSA6>  (246) 
41.554639

>  <SlogP_VSA7>  (246) 
0.0

>  <SlogP_VSA8>  (246) 
10.772448

>  <SlogP_VSA9>  (246) 
0.0

>  <EState_VSA1>  (246) 
10.118127

>  <EState_VSA10>  (246) 
12.970547

>  <EState_VSA11>  (246) 
0.0

>  <EState_VSA2>  (246) 
4.895483

>  <EState_VSA3>  (246) 
10.772448

>  <EState_VSA4>  (246) 
0.0

>  <EState_VSA5>  (246) 
30.592788

>  <EState_VSA6>  (246) 
6.066367

>  <EState_VSA7>  (246) 
0.0

>  <EState_VSA8>  (246) 
4.983979

>  <EState_VSA9>  (246) 
0.0

>  <VSA_EState1>  (246) 
32.612676

>  <VSA_EState10>  (246) 
0.0

>  <VSA_EState2>  (246) 
3.642324

>  <VSA_EState3>  (246) 
1.057338

>  <VSA_EState4>  (246) 
0.0

>  <VSA_EState5>  (246) 
0.0

>  <VSA_EState6>  (246) 
6.038287

>  <VSA_EState7>  (246) 
2.973241

>  <VSA_EState8>  (246) 
0.0

>  <VSA_EState9>  (246) 
-4.407199

>  <FractionCSP3>  (246) 
0.0

>  <HeavyAtomCount>  (246) 
14

>  <NHOHCount>  (246) 
0

>  <NOCount>  (246) 
4

>  <NumAliphaticCarbocycles>  (246) 
0

>  <NumAliphaticHeterocycles>  (246) 
0

>  <NumAliphaticRings>  (246) 
0

>  <NumAromaticCarbocycles>  (246) 
1

>  <NumAromaticHeterocycles>  (246) 
1

>  <NAR>  (246) 
2

>  <NumHAcceptors>  (246) 
4

>  <NumHDonors>  (246) 
0

>  <NumHeteroatoms>  (246) 
5

>  <NumRotatableBonds>  (246) 
1

>  <NumSaturatedCarbocycles>  (246) 
0

>  <NumSaturatedHeterocycles>  (246) 
0

>  <NumSaturatedRings>  (246) 
0

>  <RingCount>  (246) 
2

>  <MolLogP>  (246) 
1.1389

>  <MolMR>  (246) 
49.7062

>  <fr_Al_COO>  (246) 
0

>  <fr_Al_OH>  (246) 
0

>  <fr_Al_OH_noTert>  (246) 
0

>  <fr_ArN>  (246) 
0

>  <fr_Ar_COO>  (246) 
0

>  <fr_Ar_N>  (246) 
1

>  <fr_Ar_NH>  (246) 
0

>  <fr_Ar_OH>  (246) 
0

>  <fr_COO>  (246) 
0

>  <fr_COO2>  (246) 
0

>  <fr_C_O>  (246) 
0

>  <fr_C_O_noCOO>  (246) 
0

>  <fr_C_S>  (246) 
0

>  <fr_HOCCN>  (246) 
0

>  <fr_Imine>  (246) 
0

>  <fr_NH0>  (246) 
1

>  <fr_NH1>  (246) 
0

>  <fr_NH2>  (246) 
0

>  <fr_N_O>  (246) 
0

>  <fr_Ndealkylation1>  (246) 
0

>  <fr_Ndealkylation2>  (246) 
0

>  <fr_Nhpyrrole>  (246) 
0

>  <fr_SH>  (246) 
0

>  <fr_aldehyde>  (246) 
0

>  <fr_alkyl_carbamate>  (246) 
0

>  <fr_alkyl_halide>  (246) 
0

>  <fr_allylic_oxid>  (246) 
0

>  <fr_amide>  (246) 
0

>  <fr_amidine>  (246) 
0

>  <fr_aniline>  (246) 
0

>  <fr_aryl_methyl>  (246) 
0

>  <fr_azide>  (246) 
0

>  <fr_azo>  (246) 
0

>  <fr_barbitur>  (246) 
0

>  <fr_benzene>  (246) 
1

>  <fr_benzodiazepine>  (246) 
0

>  <fr_bicyclic>  (246) 
1

>  <fr_diazo>  (246) 
0

>  <fr_dihydropyridine>  (246) 
0

>  <fr_epoxide>  (246) 
0

>  <fr_ester>  (246) 
0

>  <fr_ether>  (246) 
0

>  <fr_furan>  (246) 
0

>  <fr_guanido>  (246) 
0

>  <fr_halogen>  (246) 
0

>  <fr_hdrzine>  (246) 
0

>  <fr_hdrzone>  (246) 
0

>  <fr_imidazole>  (246) 
0

>  <fr_imide>  (246) 
0

>  <fr_isocyan>  (246) 
0

>  <fr_isothiocyan>  (246) 
0

>  <fr_ketone>  (246) 
0

>  <fr_ketone_Topliss>  (246) 
0

>  <fr_lactam>  (246) 
0

>  <fr_lactone>  (246) 
0

>  <fr_methoxy>  (246) 
0

>  <fr_morpholine>  (246) 
0

>  <fr_nitrile>  (246) 
0

>  <fr_nitro>  (246) 
0

>  <fr_nitro_arom>  (246) 
0

>  <fr_nitro_arom_nonortho>  (246) 
0

>  <fr_nitroso>  (246) 
0

>  <fr_oxazole>  (246) 
0

>  <fr_oxime>  (246) 
0

>  <fr_para_hydroxylation>  (246) 
0

>  <fr_phenol>  (246) 
0

>  <fr_phenol_noOrthoHbond>  (246) 
0

>  <fr_phos_acid>  (246) 
0

>  <fr_phos_ester>  (246) 
0

>  <fr_piperdine>  (246) 
0

>  <fr_piperzine>  (246) 
0

>  <fr_priamide>  (246) 
0

>  <fr_prisulfonamd>  (246) 
0

>  <fr_pyridine>  (246) 
1

>  <fr_quatN>  (246) 
0

>  <fr_sulfide>  (246) 
0

>  <fr_sulfonamd>  (246) 
0

>  <fr_sulfone>  (246) 
0

>  <fr_term_acetylene>  (246) 
0

>  <fr_tetrazole>  (246) 
0

>  <fr_thiazole>  (246) 
0

>  <fr_thiocyan>  (246) 
0

>  <fr_thiophene>  (246) 
0

>  <fr_unbrch_alkane>  (246) 
0

>  <fr_urea>  (246) 
0

>  <NP-Likeness>  (246) 
-1.091596

$$$$
S95
     RDKit          3D

  0  0  0  0  0  0  0  0  0  0999 V3000
M  V30 BEGIN CTAB
M  V30 COUNTS 20 21 0 0 0
M  V30 BEGIN ATOM
M  V30 1 C -0.959751 0.980591 2.591795 0
M  V30 2 N -0.268939 0.251291 3.513522 0
M  V30 3 C 0.733095 -0.595154 3.133168 0
M  V30 4 C 1.032719 -0.698254 1.800985 0
M  V30 5 C 2.050130 -1.558941 1.424962 0
M  V30 6 C 2.376983 -1.684000 0.073989 0
M  V30 7 C 1.690451 -0.953853 -0.885609 0
M  V30 8 C 0.659903 -0.077833 -0.539024 0
M  V30 9 S -0.232463 0.860761 -1.701404 0
M  V30 10 O -1.642732 0.407682 -1.879378 0
M  V30 11 O 0.448132 0.624193 -3.044234 0
M  V30 12 O -0.100824 2.517139 -1.442331 0 CHG=-1 VAL=1
M  V30 13 C 0.387281 -0.000041 0.803198 0
M  V30 14 C -0.616852 0.840649 1.245490 0
M  V30 15 H -1.746348 1.641036 2.922991 0
M  V30 16 H 1.286825 -1.176509 3.845887 0
M  V30 17 H 2.585290 -2.127683 2.169620 0
M  V30 18 H 3.152208 -2.332230 -0.274191 0
M  V30 19 H 1.939680 -1.046837 -1.934999 0
M  V30 20 H -1.214693 1.456875 0.568998 0
M  V30 END ATOM
M  V30 BEGIN BOND
M  V30 1 2 1 2
M  V30 2 1 2 3
M  V30 3 2 3 4
M  V30 4 1 4 5
M  V30 5 2 5 6
M  V30 6 1 6 7
M  V30 7 2 7 8
M  V30 8 1 8 9
M  V30 9 2 9 10
M  V30 10 2 9 11
M  V30 11 1 9 12
M  V30 12 1 8 13
M  V30 13 2 13 14
M  V30 14 1 14 1
M  V30 15 1 13 4
M  V30 16 1 1 15
M  V30 17 1 3 16
M  V30 18 1 5 17
M  V30 19 1 6 18
M  V30 20 1 7 19
M  V30 21 1 14 20
M  V30 END BOND
M  V30 END CTAB
M  END
>  <Dataset>  (247) 
PDB

>  <Ligand_Instance>  (247) 
7AXV_S95_A_402

>  <PDB_ID>  (247) 
7AXV

>  <Standardized_SMILES>  (247) 
[H]C1=NC([H])=C2C([H])=C([H])C([H])=C(S(=O)(=O)[O-])C2=C1[H]

>  <Name>  (247) 
isoquinoline-5-sulfonic acid

>  <Pocket>  (247) 
A

>  <ATP_Site>  (247) 
1.0

>  <Peripheral>  (247) 
1.0

>  <Num_H_Atoms_ProtBoundConf>  (247) 
6.0

>  <Num_Resolved_Atoms>  (247) 
14.0

>  <Num_Not_Resolved_Atoms>  (247) 
0.0

>  <2D_Mol_H>  (247) 
<rdkit.Chem.rdchem.Mol object at 0x72a239100120>

>  <MW>  (247) 
208.218

>  <HBA>  (247) 
4

>  <HBD>  (247) 
0

>  <LogP>  (247) 
1.1389

>  <NRB>  (247) 
1

>  <TPSA>  (247) 
70.09

>  <Num_Heavy_Atoms>  (247) 
14

>  <Ro5>  (247) 
[True, True, True, True, True, True]

>  <Ro5_Fulfilled>  (247) 
True

>  <Ro3>  (247) 
[True, False, True, True]

>  <Ro3_Fulfilled>  (247) 
True

>  <Fsp3>  (247) 
0.0

>  <Fsp3_0.42>  (247) 
False

>  <Fsp3_0.45>  (247) 
False

>  <Stereogenic_Carbons>  (247) 
0

>  <C_Atoms>  (247) 
9

>  <FCStereo>  (247) 
0.0

>  <SPS>  (247) 
165

>  <nSPS>  (247) 
11.785714

>  <PBF>  (247) 
0.149447

>  <PBF_0.6>  (247) 
False

>  <nPBF>  (247) 
0.010675

>  <nPBF_0.016>  (247) 
False

>  <PMI1>  (247) 
448.74508

>  <PMI2>  (247) 
944.318503

>  <PMI3>  (247) 
1282.02807

>  <NPR1>  (247) 
0.350027

>  <NPR2>  (247) 
0.736582

>  <Sum_NPR>  (247) 
1.086609

>  <Sum_NPR_1.07>  (247) 
True

>  <Sum_NPR_1.2>  (247) 
False

>  <MaxAbsEStateIndex>  (247) 
10.870892

>  <MaxEStateIndex>  (247) 
10.870892

>  <MinAbsEStateIndex>  (247) 
0.196852

>  <MinEStateIndex>  (247) 
-4.407199

>  <qed>  (247) 
0.658687

>  <MolWt>  (247) 
208.218

>  <HeavyAtomMolWt>  (247) 
202.17

>  <ExactMolWt>  (247) 
208.007388

>  <NumValenceElectrons>  (247) 
72

>  <NumRadicalElectrons>  (247) 
0

>  <MaxPartialCharge>  (247) 
0.124547

>  <MinPartialCharge>  (247) 
-0.744019

>  <MaxAbsPartialCharge>  (247) 
0.744019

>  <MinAbsPartialCharge>  (247) 
0.124547

>  <FpDensityMorgan1>  (247) 
1.214286

>  <FpDensityMorgan2>  (247) 
2.0

>  <FpDensityMorgan3>  (247) 
2.714286

>  <BCUT2D_MWHI>  (247) 
32.239783

>  <BCUT2D_MWLOW>  (247) 
10.168386

>  <BCUT2D_CHGHI>  (247) 
2.051038

>  <BCUT2D_CHGLO>  (247) 
-2.088928

>  <BCUT2D_LOGPHI>  (247) 
2.205855

>  <BCUT2D_LOGPLOW>  (247) 
-1.987169

>  <BCUT2D_MRHI>  (247) 
7.855758

>  <BCUT2D_MRLOW>  (247) 
0.463778

>  <AvgIpc>  (247) 
2.153976

>  <BalabanJ>  (247) 
2.916803

>  <BertzCT>  (247) 
572.13169

>  <Chi0>  (247) 
10.181798

>  <Chi0n>  (247) 
7.044308

>  <Chi0v>  (247) 
7.860805

>  <Chi1>  (247) 
6.588335

>  <Chi1n>  (247) 
3.875222

>  <Chi1v>  (247) 
5.283471

>  <Chi2n>  (247) 
2.807084

>  <Chi2v>  (247) 
4.155158

>  <Chi3n>  (247) 
1.910073

>  <Chi3v>  (247) 
2.804744

>  <Chi4n>  (247) 
1.310833

>  <Chi4v>  (247) 
2.011297

>  <HallKierAlpha>  (247) 
-1.46

>  <Ipc>  (247) 
1628.40582

>  <Kappa1>  (247) 
9.109024

>  <Kappa2>  (247) 
3.038688

>  <Kappa3>  (247) 
1.470603

>  <LabuteASA>  (247) 
80.961352

>  <PEOE_VSA1>  (247) 
4.55275

>  <PEOE_VSA10>  (247) 
10.118127

>  <PEOE_VSA11>  (247) 
0.0

>  <PEOE_VSA12>  (247) 
0.0

>  <PEOE_VSA13>  (247) 
0.0

>  <PEOE_VSA14>  (247) 
0.0

>  <PEOE_VSA2>  (247) 
4.983979

>  <PEOE_VSA3>  (247) 
8.417797

>  <PEOE_VSA4>  (247) 
0.0

>  <PEOE_VSA5>  (247) 
0.0

>  <PEOE_VSA6>  (247) 
12.132734

>  <PEOE_VSA7>  (247) 
12.132734

>  <PEOE_VSA8>  (247) 
23.166136

>  <PEOE_VSA9>  (247) 
4.895483

>  <SMR_VSA1>  (247) 
12.970547

>  <SMR_VSA10>  (247) 
20.890575

>  <SMR_VSA2>  (247) 
0.0

>  <SMR_VSA3>  (247) 
4.983979

>  <SMR_VSA4>  (247) 
0.0

>  <SMR_VSA5>  (247) 
4.895483

>  <SMR_VSA6>  (247) 
0.0

>  <SMR_VSA7>  (247) 
36.659155

>  <SMR_VSA8>  (247) 
0.0

>  <SMR_VSA9>  (247) 
0.0

>  <SlogP_VSA1>  (247) 
0.0

>  <SlogP_VSA10>  (247) 
0.0

>  <SlogP_VSA11>  (247) 
0.0

>  <SlogP_VSA12>  (247) 
0.0

>  <SlogP_VSA2>  (247) 
17.954525

>  <SlogP_VSA3>  (247) 
10.118127

>  <SlogP_VSA4>  (247) 
0.0

>  <SlogP_VSA5>  (247) 
0.0

>  <SlogP_VSA6>  (247) 
41.554639

>  <SlogP_VSA7>  (247) 
0.0

>  <SlogP_VSA8>  (247) 
10.772448

>  <SlogP_VSA9>  (247) 
0.0

>  <EState_VSA1>  (247) 
10.118127

>  <EState_VSA10>  (247) 
12.970547

>  <EState_VSA11>  (247) 
0.0

>  <EState_VSA2>  (247) 
4.895483

>  <EState_VSA3>  (247) 
10.772448

>  <EState_VSA4>  (247) 
0.0

>  <EState_VSA5>  (247) 
30.592788

>  <EState_VSA6>  (247) 
6.066367

>  <EState_VSA7>  (247) 
0.0

>  <EState_VSA8>  (247) 
4.983979

>  <EState_VSA9>  (247) 
0.0

>  <VSA_EState1>  (247) 
32.612676

>  <VSA_EState10>  (247) 
0.0

>  <VSA_EState2>  (247) 
3.642324

>  <VSA_EState3>  (247) 
1.057338

>  <VSA_EState4>  (247) 
0.0

>  <VSA_EState5>  (247) 
0.0

>  <VSA_EState6>  (247) 
6.038287

>  <VSA_EState7>  (247) 
2.973241

>  <VSA_EState8>  (247) 
0.0

>  <VSA_EState9>  (247) 
-4.407199

>  <FractionCSP3>  (247) 
0.0

>  <HeavyAtomCount>  (247) 
14

>  <NHOHCount>  (247) 
0

>  <NOCount>  (247) 
4

>  <NumAliphaticCarbocycles>  (247) 
0

>  <NumAliphaticHeterocycles>  (247) 
0

>  <NumAliphaticRings>  (247) 
0

>  <NumAromaticCarbocycles>  (247) 
1

>  <NumAromaticHeterocycles>  (247) 
1

>  <NAR>  (247) 
2

>  <NumHAcceptors>  (247) 
4

>  <NumHDonors>  (247) 
0

>  <NumHeteroatoms>  (247) 
5

>  <NumRotatableBonds>  (247) 
1

>  <NumSaturatedCarbocycles>  (247) 
0

>  <NumSaturatedHeterocycles>  (247) 
0

>  <NumSaturatedRings>  (247) 
0

>  <RingCount>  (247) 
2

>  <MolLogP>  (247) 
1.1389

>  <MolMR>  (247) 
49.7062

>  <fr_Al_COO>  (247) 
0

>  <fr_Al_OH>  (247) 
0

>  <fr_Al_OH_noTert>  (247) 
0

>  <fr_ArN>  (247) 
0

>  <fr_Ar_COO>  (247) 
0

>  <fr_Ar_N>  (247) 
1

>  <fr_Ar_NH>  (247) 
0

>  <fr_Ar_OH>  (247) 
0

>  <fr_COO>  (247) 
0

>  <fr_COO2>  (247) 
0

>  <fr_C_O>  (247) 
0

>  <fr_C_O_noCOO>  (247) 
0

>  <fr_C_S>  (247) 
0

>  <fr_HOCCN>  (247) 
0

>  <fr_Imine>  (247) 
0

>  <fr_NH0>  (247) 
1

>  <fr_NH1>  (247) 
0

>  <fr_NH2>  (247) 
0

>  <fr_N_O>  (247) 
0

>  <fr_Ndealkylation1>  (247) 
0

>  <fr_Ndealkylation2>  (247) 
0

>  <fr_Nhpyrrole>  (247) 
0

>  <fr_SH>  (247) 
0

>  <fr_aldehyde>  (247) 
0

>  <fr_alkyl_carbamate>  (247) 
0

>  <fr_alkyl_halide>  (247) 
0

>  <fr_allylic_oxid>  (247) 
0

>  <fr_amide>  (247) 
0

>  <fr_amidine>  (247) 
0

>  <fr_aniline>  (247) 
0

>  <fr_aryl_methyl>  (247) 
0

>  <fr_azide>  (247) 
0

>  <fr_azo>  (247) 
0

>  <fr_barbitur>  (247) 
0

>  <fr_benzene>  (247) 
1

>  <fr_benzodiazepine>  (247) 
0

>  <fr_bicyclic>  (247) 
1

>  <fr_diazo>  (247) 
0

>  <fr_dihydropyridine>  (247) 
0

>  <fr_epoxide>  (247) 
0

>  <fr_ester>  (247) 
0

>  <fr_ether>  (247) 
0

>  <fr_furan>  (247) 
0

>  <fr_guanido>  (247) 
0

>  <fr_halogen>  (247) 
0

>  <fr_hdrzine>  (247) 
0

>  <fr_hdrzone>  (247) 
0

>  <fr_imidazole>  (247) 
0

>  <fr_imide>  (247) 
0

>  <fr_isocyan>  (247) 
0

>  <fr_isothiocyan>  (247) 
0

>  <fr_ketone>  (247) 
0

>  <fr_ketone_Topliss>  (247) 
0

>  <fr_lactam>  (247) 
0

>  <fr_lactone>  (247) 
0

>  <fr_methoxy>  (247) 
0

>  <fr_morpholine>  (247) 
0

>  <fr_nitrile>  (247) 
0

>  <fr_nitro>  (247) 
0

>  <fr_nitro_arom>  (247) 
0

>  <fr_nitro_arom_nonortho>  (247) 
0

>  <fr_nitroso>  (247) 
0

>  <fr_oxazole>  (247) 
0

>  <fr_oxime>  (247) 
0

>  <fr_para_hydroxylation>  (247) 
0

>  <fr_phenol>  (247) 
0

>  <fr_phenol_noOrthoHbond>  (247) 
0

>  <fr_phos_acid>  (247) 
0

>  <fr_phos_ester>  (247) 
0

>  <fr_piperdine>  (247) 
0

>  <fr_piperzine>  (247) 
0

>  <fr_priamide>  (247) 
0

>  <fr_prisulfonamd>  (247) 
0

>  <fr_pyridine>  (247) 
1

>  <fr_quatN>  (247) 
0

>  <fr_sulfide>  (247) 
0

>  <fr_sulfonamd>  (247) 
0

>  <fr_sulfone>  (247) 
0

>  <fr_term_acetylene>  (247) 
0

>  <fr_tetrazole>  (247) 
0

>  <fr_thiazole>  (247) 
0

>  <fr_thiocyan>  (247) 
0

>  <fr_thiophene>  (247) 
0

>  <fr_unbrch_alkane>  (247) 
0

>  <fr_urea>  (247) 
0

>  <NP-Likeness>  (247) 
-1.091596

$$$$
S9B
     RDKit          3D

  0  0  0  0  0  0  0  0  0  0999 V3000
M  V30 BEGIN CTAB
M  V30 COUNTS 19 20 0 0 0
M  V30 BEGIN ATOM
M  V30 1 C -1.387748 1.261278 1.645108 0
M  V30 2 N -0.820433 1.392919 2.860350 0
M  V30 3 C 0.421142 0.871960 3.043943 0
M  V30 4 C 1.079285 0.231732 2.027072 0
M  V30 5 C 2.339274 -0.323137 2.133277 0
M  V30 6 C 2.983137 -0.962881 1.097456 0
M  V30 7 C 2.351418 -1.066529 -0.124344 0
M  V30 8 C 1.093509 -0.516632 -0.242785 0
M  V30 9 C 0.538276 -0.690620 -1.570309 0
M  V30 10 O 1.028924 -1.244717 -2.563394 0
M  V30 11 O -0.569663 -0.421149 -2.332190 0 CHG=-1 VAL=1
M  V30 12 C 0.483022 0.108079 0.794815 0
M  V30 13 C -0.763545 0.630433 0.608347 0
M  V30 14 H -2.372165 1.699887 1.577740 0
M  V30 15 H 0.928335 0.945644 3.995721 0
M  V30 16 H 2.828293 -0.234723 3.104135 0
M  V30 17 H 3.975075 -1.360736 1.300335 0
M  V30 18 H 2.912984 -1.580984 -0.894582 0
M  V30 19 H -1.250621 0.551803 -0.329766 0
M  V30 END ATOM
M  V30 BEGIN BOND
M  V30 1 2 1 2
M  V30 2 1 2 3
M  V30 3 2 3 4
M  V30 4 1 4 5
M  V30 5 2 5 6
M  V30 6 1 6 7
M  V30 7 2 7 8
M  V30 8 1 8 9
M  V30 9 2 9 10
M  V30 10 1 9 11
M  V30 11 1 8 12
M  V30 12 2 12 13
M  V30 13 1 13 1
M  V30 14 1 12 4
M  V30 15 1 1 14
M  V30 16 1 3 15
M  V30 17 1 5 16
M  V30 18 1 6 17
M  V30 19 1 7 18
M  V30 20 1 13 19
M  V30 END BOND
M  V30 END CTAB
M  END
>  <Dataset>  (248) 
PDB

>  <Ligand_Instance>  (248) 
7AXT_S9B_A_401

>  <PDB_ID>  (248) 
7AXT

>  <Standardized_SMILES>  (248) 
[H]C1=NC([H])=C2C([H])=C([H])C([H])=C(C(=O)[O-])C2=C1[H]

>  <Name>  (248) 
isoquinoline-5-carboxylic acid

>  <Pocket>  (248) 
A

>  <ATP_Site>  (248) 
1.0

>  <Peripheral>  (248) 
0.0

>  <Num_H_Atoms_ProtBoundConf>  (248) 
6.0

>  <Num_Resolved_Atoms>  (248) 
13.0

>  <Num_Not_Resolved_Atoms>  (248) 
0.0

>  <2D_Mol_H>  (248) 
<rdkit.Chem.rdchem.Mol object at 0x72a239100200>

>  <MW>  (248) 
172.163

>  <HBA>  (248) 
3

>  <HBD>  (248) 
0

>  <LogP>  (248) 
0.5983

>  <NRB>  (248) 
1

>  <TPSA>  (248) 
53.02

>  <Num_Heavy_Atoms>  (248) 
13

>  <Ro5>  (248) 
[True, True, True, True, True, True]

>  <Ro5_Fulfilled>  (248) 
True

>  <Ro3>  (248) 
[True, True, True, True]

>  <Ro3_Fulfilled>  (248) 
True

>  <Fsp3>  (248) 
0.0

>  <Fsp3_0.42>  (248) 
False

>  <Fsp3_0.45>  (248) 
False

>  <Stereogenic_Carbons>  (248) 
0

>  <C_Atoms>  (248) 
10

>  <FCStereo>  (248) 
0.0

>  <SPS>  (248) 
132

>  <nSPS>  (248) 
10.153846

>  <PBF>  (248) 
0.000003

>  <PBF_0.6>  (248) 
False

>  <nPBF>  (248) 
0.0

>  <nPBF_0.016>  (248) 
False

>  <PMI1>  (248) 
356.814076

>  <PMI2>  (248) 
680.690739

>  <PMI3>  (248) 
1037.504815

>  <NPR1>  (248) 
0.343916

>  <NPR2>  (248) 
0.656084

>  <Sum_NPR>  (248) 
1.0

>  <Sum_NPR_1.07>  (248) 
False

>  <Sum_NPR_1.2>  (248) 
False

>  <MaxAbsEStateIndex>  (248) 
10.683392

>  <MaxEStateIndex>  (248) 
10.683392

>  <MinAbsEStateIndex>  (248) 
0.208241

>  <MinEStateIndex>  (248) 
-1.155741

>  <qed>  (248) 
0.632437

>  <MolWt>  (248) 
172.163

>  <HeavyAtomMolWt>  (248) 
166.115

>  <ExactMolWt>  (248) 
172.040402

>  <NumValenceElectrons>  (248) 
64

>  <NumRadicalElectrons>  (248) 
0

>  <MaxPartialCharge>  (248) 
0.072108

>  <MinPartialCharge>  (248) 
-0.544792

>  <MaxAbsPartialCharge>  (248) 
0.544792

>  <MinAbsPartialCharge>  (248) 
0.072108

>  <FpDensityMorgan1>  (248) 
1.307692

>  <FpDensityMorgan2>  (248) 
2.153846

>  <FpDensityMorgan3>  (248) 
2.923077

>  <BCUT2D_MWHI>  (248) 
16.365587

>  <BCUT2D_MWLOW>  (248) 
10.076245

>  <BCUT2D_CHGHI>  (248) 
1.990568

>  <BCUT2D_CHGLO>  (248) 
-2.050974

>  <BCUT2D_LOGPHI>  (248) 
2.156552

>  <BCUT2D_LOGPLOW>  (248) 
-2.218857

>  <BCUT2D_MRHI>  (248) 
6.017856

>  <BCUT2D_MRLOW>  (248) 
-0.254366

>  <AvgIpc>  (248) 
2.165908

>  <BalabanJ>  (248) 
2.830976

>  <BertzCT>  (248) 
459.936329

>  <Chi0>  (248) 
9.259149

>  <Chi0n>  (248) 
6.727812

>  <Chi0v>  (248) 
6.727812

>  <Chi1>  (248) 
6.287694

>  <Chi1n>  (248) 
3.829347

>  <Chi1v>  (248) 
3.829347

>  <Chi2n>  (248) 
2.689841

>  <Chi2v>  (248) 
2.689841

>  <Chi3n>  (248) 
1.900653

>  <Chi3v>  (248) 
1.900653

>  <Chi4n>  (248) 
1.300547

>  <Chi4v>  (248) 
1.300547

>  <HallKierAlpha>  (248) 
-1.9

>  <Ipc>  (248) 
1269.222327

>  <Kappa1>  (248) 
7.733836

>  <Kappa2>  (248) 
2.860302

>  <Kappa3>  (248) 
1.241845

>  <LabuteASA>  (248) 
74.653414

>  <PEOE_VSA1>  (248) 
9.901065

>  <PEOE_VSA10>  (248) 
0.0

>  <PEOE_VSA11>  (248) 
0.0

>  <PEOE_VSA12>  (248) 
0.0

>  <PEOE_VSA13>  (248) 
0.0

>  <PEOE_VSA14>  (248) 
0.0

>  <PEOE_VSA2>  (248) 
4.983979

>  <PEOE_VSA3>  (248) 
0.0

>  <PEOE_VSA4>  (248) 
0.0

>  <PEOE_VSA5>  (248) 
0.0

>  <PEOE_VSA6>  (248) 
18.199101

>  <PEOE_VSA7>  (248) 
11.452591

>  <PEOE_VSA8>  (248) 
23.343363

>  <PEOE_VSA9>  (248) 
5.969305

>  <SMR_VSA1>  (248) 
9.901065

>  <SMR_VSA10>  (248) 
16.741754

>  <SMR_VSA2>  (248) 
0.0

>  <SMR_VSA3>  (248) 
4.983979

>  <SMR_VSA4>  (248) 
0.0

>  <SMR_VSA5>  (248) 
0.0

>  <SMR_VSA6>  (248) 
0.0

>  <SMR_VSA7>  (248) 
42.222607

>  <SMR_VSA8>  (248) 
0.0

>  <SMR_VSA9>  (248) 
0.0

>  <SlogP_VSA1>  (248) 
5.106527

>  <SlogP_VSA10>  (248) 
0.0

>  <SlogP_VSA11>  (248) 
0.0

>  <SlogP_VSA12>  (248) 
0.0

>  <SlogP_VSA2>  (248) 
10.953284

>  <SlogP_VSA3>  (248) 
0.0

>  <SlogP_VSA4>  (248) 
0.0

>  <SlogP_VSA5>  (248) 
10.357989

>  <SlogP_VSA6>  (248) 
36.659155

>  <SlogP_VSA7>  (248) 
0.0

>  <SlogP_VSA8>  (248) 
10.772448

>  <SlogP_VSA9>  (248) 
0.0

>  <EState_VSA1>  (248) 
5.969305

>  <EState_VSA10>  (248) 
9.901065

>  <EState_VSA11>  (248) 
0.0

>  <EState_VSA2>  (248) 
5.563451

>  <EState_VSA3>  (248) 
5.386224

>  <EState_VSA4>  (248) 
5.386224

>  <EState_VSA5>  (248) 
6.066367

>  <EState_VSA6>  (248) 
24.526421

>  <EState_VSA7>  (248) 
6.066367

>  <EState_VSA8>  (248) 
4.983979

>  <EState_VSA9>  (248) 
0.0

>  <VSA_EState1>  (248) 
0.0

>  <VSA_EState10>  (248) 
0.0

>  <VSA_EState2>  (248) 
14.583367

>  <VSA_EState3>  (248) 
12.157188

>  <VSA_EState4>  (248) 
0.208241

>  <VSA_EState5>  (248) 
-1.155741

>  <VSA_EState6>  (248) 
6.682593

>  <VSA_EState7>  (248) 
3.191019

>  <VSA_EState8>  (248) 
0.0

>  <VSA_EState9>  (248) 
0.0

>  <FractionCSP3>  (248) 
0.0

>  <HeavyAtomCount>  (248) 
13

>  <NHOHCount>  (248) 
0

>  <NOCount>  (248) 
3

>  <NumAliphaticCarbocycles>  (248) 
0

>  <NumAliphaticHeterocycles>  (248) 
0

>  <NumAliphaticRings>  (248) 
0

>  <NumAromaticCarbocycles>  (248) 
1

>  <NumAromaticHeterocycles>  (248) 
1

>  <NAR>  (248) 
2

>  <NumHAcceptors>  (248) 
3

>  <NumHDonors>  (248) 
0

>  <NumHeteroatoms>  (248) 
3

>  <NumRotatableBonds>  (248) 
1

>  <NumSaturatedCarbocycles>  (248) 
0

>  <NumSaturatedHeterocycles>  (248) 
0

>  <NumSaturatedRings>  (248) 
0

>  <RingCount>  (248) 
2

>  <MolLogP>  (248) 
0.5983

>  <MolMR>  (248) 
46.0735

>  <fr_Al_COO>  (248) 
0

>  <fr_Al_OH>  (248) 
0

>  <fr_Al_OH_noTert>  (248) 
0

>  <fr_ArN>  (248) 
0

>  <fr_Ar_COO>  (248) 
1

>  <fr_Ar_N>  (248) 
1

>  <fr_Ar_NH>  (248) 
0

>  <fr_Ar_OH>  (248) 
0

>  <fr_COO>  (248) 
1

>  <fr_COO2>  (248) 
1

>  <fr_C_O>  (248) 
1

>  <fr_C_O_noCOO>  (248) 
1

>  <fr_C_S>  (248) 
0

>  <fr_HOCCN>  (248) 
0

>  <fr_Imine>  (248) 
0

>  <fr_NH0>  (248) 
1

>  <fr_NH1>  (248) 
0

>  <fr_NH2>  (248) 
0

>  <fr_N_O>  (248) 
0

>  <fr_Ndealkylation1>  (248) 
0

>  <fr_Ndealkylation2>  (248) 
0

>  <fr_Nhpyrrole>  (248) 
0

>  <fr_SH>  (248) 
0

>  <fr_aldehyde>  (248) 
0

>  <fr_alkyl_carbamate>  (248) 
0

>  <fr_alkyl_halide>  (248) 
0

>  <fr_allylic_oxid>  (248) 
0

>  <fr_amide>  (248) 
0

>  <fr_amidine>  (248) 
0

>  <fr_aniline>  (248) 
0

>  <fr_aryl_methyl>  (248) 
0

>  <fr_azide>  (248) 
0

>  <fr_azo>  (248) 
0

>  <fr_barbitur>  (248) 
0

>  <fr_benzene>  (248) 
1

>  <fr_benzodiazepine>  (248) 
0

>  <fr_bicyclic>  (248) 
1

>  <fr_diazo>  (248) 
0

>  <fr_dihydropyridine>  (248) 
0

>  <fr_epoxide>  (248) 
0

>  <fr_ester>  (248) 
0

>  <fr_ether>  (248) 
0

>  <fr_furan>  (248) 
0

>  <fr_guanido>  (248) 
0

>  <fr_halogen>  (248) 
0

>  <fr_hdrzine>  (248) 
0

>  <fr_hdrzone>  (248) 
0

>  <fr_imidazole>  (248) 
0

>  <fr_imide>  (248) 
0

>  <fr_isocyan>  (248) 
0

>  <fr_isothiocyan>  (248) 
0

>  <fr_ketone>  (248) 
0

>  <fr_ketone_Topliss>  (248) 
0

>  <fr_lactam>  (248) 
0

>  <fr_lactone>  (248) 
0

>  <fr_methoxy>  (248) 
0

>  <fr_morpholine>  (248) 
0

>  <fr_nitrile>  (248) 
0

>  <fr_nitro>  (248) 
0

>  <fr_nitro_arom>  (248) 
0

>  <fr_nitro_arom_nonortho>  (248) 
0

>  <fr_nitroso>  (248) 
0

>  <fr_oxazole>  (248) 
0

>  <fr_oxime>  (248) 
0

>  <fr_para_hydroxylation>  (248) 
0

>  <fr_phenol>  (248) 
0

>  <fr_phenol_noOrthoHbond>  (248) 
0

>  <fr_phos_acid>  (248) 
0

>  <fr_phos_ester>  (248) 
0

>  <fr_piperdine>  (248) 
0

>  <fr_piperzine>  (248) 
0

>  <fr_priamide>  (248) 
0

>  <fr_prisulfonamd>  (248) 
0

>  <fr_pyridine>  (248) 
1

>  <fr_quatN>  (248) 
0

>  <fr_sulfide>  (248) 
0

>  <fr_sulfonamd>  (248) 
0

>  <fr_sulfone>  (248) 
0

>  <fr_term_acetylene>  (248) 
0

>  <fr_tetrazole>  (248) 
0

>  <fr_thiazole>  (248) 
0

>  <fr_thiocyan>  (248) 
0

>  <fr_thiophene>  (248) 
0

>  <fr_unbrch_alkane>  (248) 
0

>  <fr_urea>  (248) 
0

>  <NP-Likeness>  (248) 
-0.898153

$$$$
SIJ
     RDKit          3D

  0  0  0  0  0  0  0  0  0  0999 V3000
M  V30 BEGIN CTAB
M  V30 COUNTS 41 44 0 0 0
M  V30 BEGIN ATOM
M  V30 1 C -1.626465 -4.937313 2.115892 0
M  V30 2 N -0.421112 -5.282370 2.628462 0
M  V30 3 C 0.648337 -4.503851 2.410434 0
M  V30 4 C 0.538725 -3.332720 1.656849 0
M  V30 5 N 1.756228 -2.778311 1.614508 0
M  V30 6 C 2.603117 -3.569159 2.314817 0
M  V30 7 N 1.932014 -4.629877 2.806545 0
M  V30 8 C -0.710708 -2.990311 1.135006 0
M  V30 9 N -0.751450 -1.802250 0.387976 0
M  V30 10 C 0.016756 -1.555456 -0.810854 0
M  V30 11 C 0.015288 -0.096452 -1.162462 0
M  V30 12 C 0.146945 0.834465 0.014230 0
M  V30 13 C -0.602786 0.384381 1.239944 0
M  V30 14 C -1.605637 -0.680634 0.778846 0
M  V30 15 C -0.408470 2.178728 -0.363163 0
M  V30 16 C 0.507789 3.329112 -0.154698 0
M  V30 17 C 1.426223 3.210000 1.020890 0
M  V30 18 C 1.716854 1.811497 1.439090 0
M  V30 19 N 1.550917 0.902007 0.348148 0 CHG=1 VAL=4
M  V30 20 N -1.767037 -3.811658 1.382848 0
M  V30 21 H -2.534031 -5.537571 2.263441 0
M  V30 22 H 3.652548 -3.324149 2.422764 0
M  V30 23 H 2.380727 -5.365852 3.374203 0
M  V30 24 H 1.038880 -1.919852 -0.801933 0
M  V30 25 H -0.525135 -2.096935 -1.636756 0
M  V30 26 H -0.870653 0.136525 -1.760405 0
M  V30 27 H 0.912334 0.093320 -1.812149 0
M  V30 28 H -1.209067 1.190570 1.700860 0
M  V30 29 H 0.053862 -0.138943 1.966787 0
M  V30 30 H -2.122935 -0.333056 -0.139022 0
M  V30 31 H -2.300133 -0.960461 1.585666 0
M  V30 32 H -1.379564 2.406383 0.160965 0
M  V30 33 H -0.701260 2.199129 -1.448575 0
M  V30 34 H -0.107893 4.261928 0.003408 0
M  V30 35 H 1.068920 3.563406 -1.103569 0
M  V30 36 H 2.380119 3.703648 0.739421 0
M  V30 37 H 1.039710 3.786186 1.887747 0
M  V30 38 H 2.777733 1.762996 1.821045 0
M  V30 39 H 1.104569 1.570608 2.334635 0
M  V30 40 H 2.081722 1.274453 -0.455714 0
M  V30 41 H 1.846860 -0.048214 0.648958 0
M  V30 END ATOM
M  V30 BEGIN BOND
M  V30 1 2 1 2
M  V30 2 1 2 3
M  V30 3 2 3 4
M  V30 4 1 4 5
M  V30 5 2 5 6
M  V30 6 1 6 7
M  V30 7 1 4 8
M  V30 8 1 8 9
M  V30 9 1 9 10
M  V30 10 1 10 11
M  V30 11 1 11 12
M  V30 12 1 12 13
M  V30 13 1 13 14
M  V30 14 1 12 15
M  V30 15 1 15 16
M  V30 16 1 16 17
M  V30 17 1 17 18
M  V30 18 1 18 19
M  V30 19 2 8 20
M  V30 20 1 20 1
M  V30 21 1 7 3
M  V30 22 1 14 9
M  V30 23 1 19 12
M  V30 24 1 1 21
M  V30 25 1 6 22
M  V30 26 1 7 23
M  V30 27 1 10 24
M  V30 28 1 10 25
M  V30 29 1 11 26
M  V30 30 1 11 27
M  V30 31 1 13 28
M  V30 32 1 13 29
M  V30 33 1 14 30
M  V30 34 1 14 31
M  V30 35 1 15 32
M  V30 36 1 15 33
M  V30 37 1 16 34
M  V30 38 1 16 35
M  V30 39 1 17 36
M  V30 40 1 17 37
M  V30 41 1 18 38
M  V30 42 1 18 39
M  V30 43 1 19 40
M  V30 44 1 19 41
M  V30 END BOND
M  V30 END CTAB
M  END
>  <Dataset>  (249) 
PDB

>  <Ligand_Instance>  (249) 
3ZO1_SIJ_A_1351

>  <PDB_ID>  (249) 
3ZO1

>  <Standardized_SMILES>  (249) 
[H]C1=NC2=C(N=C([H])N2[H])C(N2C([H])([H])C([H])([H])C3(C([H])([H])C2([H])[H])C([H])([H])C([H])([H])C([H])([H])C([H])([H])[N+]3([H])[H])=N1

>  <Name>  (249) 
6-(1,9-DIAZASPIRO[5.5]UNDECAN-9-YL)-9H-PURINE

>  <Pocket>  (249) 
A

>  <ATP_Site>  (249) 
1.0

>  <Peripheral>  (249) 
0.0

>  <Num_H_Atoms_ProtBoundConf>  (249) 
21.0

>  <Num_Resolved_Atoms>  (249) 
20.0

>  <Num_Not_Resolved_Atoms>  (249) 
0.0

>  <2D_Mol_H>  (249) 
<rdkit.Chem.rdchem.Mol object at 0x72a2391002e0>

>  <MW>  (249) 
273.364

>  <HBA>  (249) 
4

>  <HBD>  (249) 
2

>  <LogP>  (249) 
0.4392

>  <NRB>  (249) 
1

>  <TPSA>  (249) 
74.31

>  <Num_Heavy_Atoms>  (249) 
20

>  <Ro5>  (249) 
[True, True, True, True, True, True]

>  <Ro5_Fulfilled>  (249) 
True

>  <Ro3>  (249) 
[True, False, True, True]

>  <Ro3_Fulfilled>  (249) 
True

>  <Fsp3>  (249) 
0.642857

>  <Fsp3_0.42>  (249) 
True

>  <Fsp3_0.45>  (249) 
True

>  <Stereogenic_Carbons>  (249) 
0

>  <C_Atoms>  (249) 
14

>  <FCStereo>  (249) 
0.0

>  <SPS>  (249) 
450

>  <nSPS>  (249) 
22.5

>  <PBF>  (249) 
0.856556

>  <PBF_0.6>  (249) 
True

>  <nPBF>  (249) 
0.042828

>  <nPBF_0.016>  (249) 
True

>  <PMI1>  (249) 
651.881396

>  <PMI2>  (249) 
2409.959723

>  <PMI3>  (249) 
2763.83184

>  <NPR1>  (249) 
0.235861

>  <NPR2>  (249) 
0.871963

>  <Sum_NPR>  (249) 
1.107825

>  <Sum_NPR_1.07>  (249) 
True

>  <Sum_NPR_1.2>  (249) 
False

>  <MaxAbsEStateIndex>  (249) 
4.458451

>  <MaxEStateIndex>  (249) 
4.458451

>  <MinAbsEStateIndex>  (249) 
0.506419

>  <MinEStateIndex>  (249) 
0.506419

>  <qed>  (249) 
0.790422

>  <MolWt>  (249) 
273.364

>  <HeavyAtomMolWt>  (249) 
252.196

>  <ExactMolWt>  (249) 
273.182221

>  <NumValenceElectrons>  (249) 
106

>  <NumRadicalElectrons>  (249) 
0

>  <MaxPartialCharge>  (249) 
0.16229

>  <MinPartialCharge>  (249) 
-0.354156

>  <MaxAbsPartialCharge>  (249) 
0.354156

>  <MinAbsPartialCharge>  (249) 
0.16229

>  <FpDensityMorgan1>  (249) 
1.1

>  <FpDensityMorgan2>  (249) 
2.0

>  <FpDensityMorgan3>  (249) 
2.8

>  <BCUT2D_MWHI>  (249) 
15.228073

>  <BCUT2D_MWLOW>  (249) 
9.803211

>  <BCUT2D_CHGHI>  (249) 
2.391145

>  <BCUT2D_CHGLO>  (249) 
-2.418664

>  <BCUT2D_LOGPHI>  (249) 
2.293586

>  <BCUT2D_LOGPLOW>  (249) 
-2.987069

>  <BCUT2D_MRHI>  (249) 
5.821769

>  <BCUT2D_MRLOW>  (249) 
-0.737509

>  <AvgIpc>  (249) 
2.974442

>  <BalabanJ>  (249) 
1.55189

>  <BertzCT>  (249) 
590.484865

>  <Chi0>  (249) 
13.416003

>  <Chi0n>  (249) 
11.677759

>  <Chi0v>  (249) 
11.677759

>  <Chi1>  (249) 
9.863703

>  <Chi1n>  (249) 
7.597738

>  <Chi1v>  (249) 
7.597738

>  <Chi2n>  (249) 
6.096352

>  <Chi2v>  (249) 
6.096352

>  <Chi3n>  (249) 
4.962779

>  <Chi3v>  (249) 
4.962779

>  <Chi4n>  (249) 
3.733051

>  <Chi4v>  (249) 
3.733051

>  <HallKierAlpha>  (249) 
-1.69

>  <Ipc>  (249) 
99322.572112

>  <Kappa1>  (249) 
12.081353

>  <Kappa2>  (249) 
4.697198

>  <Kappa3>  (249) 
1.947156

>  <LabuteASA>  (249) 
117.563685

>  <PEOE_VSA1>  (249) 
15.200677

>  <PEOE_VSA10>  (249) 
11.844021

>  <PEOE_VSA11>  (249) 
11.46504

>  <PEOE_VSA12>  (249) 
0.0

>  <PEOE_VSA13>  (249) 
0.0

>  <PEOE_VSA14>  (249) 
0.0

>  <PEOE_VSA2>  (249) 
0.0

>  <PEOE_VSA3>  (249) 
14.951936

>  <PEOE_VSA4>  (249) 
0.0

>  <PEOE_VSA5>  (249) 
0.0

>  <PEOE_VSA6>  (249) 
0.0

>  <PEOE_VSA7>  (249) 
12.841643

>  <PEOE_VSA8>  (249) 
32.351978

>  <PEOE_VSA9>  (249) 
18.411002

>  <SMR_VSA1>  (249) 
5.316789

>  <SMR_VSA10>  (249) 
16.981741

>  <SMR_VSA2>  (249) 
0.0

>  <SMR_VSA3>  (249) 
19.935914

>  <SMR_VSA4>  (249) 
0.0

>  <SMR_VSA5>  (249) 
37.643033

>  <SMR_VSA6>  (249) 
24.534179

>  <SMR_VSA7>  (249) 
12.65464

>  <SMR_VSA8>  (249) 
0.0

>  <SMR_VSA9>  (249) 
0.0

>  <SlogP_VSA1>  (249) 
10.216698

>  <SlogP_VSA10>  (249) 
5.817863

>  <SlogP_VSA11>  (249) 
0.0

>  <SlogP_VSA12>  (249) 
0.0

>  <SlogP_VSA2>  (249) 
45.109109

>  <SlogP_VSA3>  (249) 
0.0

>  <SlogP_VSA4>  (249) 
0.0

>  <SlogP_VSA5>  (249) 
32.104108

>  <SlogP_VSA6>  (249) 
12.65464

>  <SlogP_VSA7>  (249) 
0.0

>  <SlogP_VSA8>  (249) 
11.163878

>  <SlogP_VSA9>  (249) 
0.0

>  <EState_VSA1>  (249) 
0.0

>  <EState_VSA10>  (249) 
0.0

>  <EState_VSA11>  (249) 
0.0

>  <EState_VSA2>  (249) 
0.0

>  <EState_VSA3>  (249) 
5.538925

>  <EState_VSA4>  (249) 
30.071254

>  <EState_VSA5>  (249) 
38.648865

>  <EState_VSA6>  (249) 
12.65464

>  <EState_VSA7>  (249) 
0.0

>  <EState_VSA8>  (249) 
30.152612

>  <EState_VSA9>  (249) 
0.0

>  <VSA_EState1>  (249) 
0.0

>  <VSA_EState10>  (249) 
0.0

>  <VSA_EState2>  (249) 
18.478711

>  <VSA_EState3>  (249) 
2.595191

>  <VSA_EState4>  (249) 
2.238447

>  <VSA_EState5>  (249) 
0.987879

>  <VSA_EState6>  (249) 
0.0

>  <VSA_EState7>  (249) 
9.98939

>  <VSA_EState8>  (249) 
3.460382

>  <VSA_EState9>  (249) 
0.0

>  <FractionCSP3>  (249) 
0.642857

>  <HeavyAtomCount>  (249) 
20

>  <NHOHCount>  (249) 
3

>  <NOCount>  (249) 
6

>  <NumAliphaticCarbocycles>  (249) 
0

>  <NumAliphaticHeterocycles>  (249) 
2

>  <NumAliphaticRings>  (249) 
2

>  <NumAromaticCarbocycles>  (249) 
0

>  <NumAromaticHeterocycles>  (249) 
2

>  <NAR>  (249) 
2

>  <NumHAcceptors>  (249) 
4

>  <NumHDonors>  (249) 
2

>  <NumHeteroatoms>  (249) 
6

>  <NumRotatableBonds>  (249) 
1

>  <NumSaturatedCarbocycles>  (249) 
0

>  <NumSaturatedHeterocycles>  (249) 
2

>  <NumSaturatedRings>  (249) 
2

>  <RingCount>  (249) 
4

>  <MolLogP>  (249) 
0.4392

>  <MolMR>  (249) 
76.5051

>  <fr_Al_COO>  (249) 
0

>  <fr_Al_OH>  (249) 
0

>  <fr_Al_OH_noTert>  (249) 
0

>  <fr_ArN>  (249) 
0

>  <fr_Ar_COO>  (249) 
0

>  <fr_Ar_N>  (249) 
4

>  <fr_Ar_NH>  (249) 
1

>  <fr_Ar_OH>  (249) 
0

>  <fr_COO>  (249) 
0

>  <fr_COO2>  (249) 
0

>  <fr_C_O>  (249) 
0

>  <fr_C_O_noCOO>  (249) 
0

>  <fr_C_S>  (249) 
0

>  <fr_HOCCN>  (249) 
0

>  <fr_Imine>  (249) 
0

>  <fr_NH0>  (249) 
4

>  <fr_NH1>  (249) 
1

>  <fr_NH2>  (249) 
1

>  <fr_N_O>  (249) 
0

>  <fr_Ndealkylation1>  (249) 
0

>  <fr_Ndealkylation2>  (249) 
0

>  <fr_Nhpyrrole>  (249) 
1

>  <fr_SH>  (249) 
0

>  <fr_aldehyde>  (249) 
0

>  <fr_alkyl_carbamate>  (249) 
0

>  <fr_alkyl_halide>  (249) 
0

>  <fr_allylic_oxid>  (249) 
0

>  <fr_amide>  (249) 
0

>  <fr_amidine>  (249) 
0

>  <fr_aniline>  (249) 
1

>  <fr_aryl_methyl>  (249) 
0

>  <fr_azide>  (249) 
0

>  <fr_azo>  (249) 
0

>  <fr_barbitur>  (249) 
0

>  <fr_benzene>  (249) 
0

>  <fr_benzodiazepine>  (249) 
0

>  <fr_bicyclic>  (249) 
1

>  <fr_diazo>  (249) 
0

>  <fr_dihydropyridine>  (249) 
0

>  <fr_epoxide>  (249) 
0

>  <fr_ester>  (249) 
0

>  <fr_ether>  (249) 
0

>  <fr_furan>  (249) 
0

>  <fr_guanido>  (249) 
0

>  <fr_halogen>  (249) 
0

>  <fr_hdrzine>  (249) 
0

>  <fr_hdrzone>  (249) 
0

>  <fr_imidazole>  (249) 
1

>  <fr_imide>  (249) 
0

>  <fr_isocyan>  (249) 
0

>  <fr_isothiocyan>  (249) 
0

>  <fr_ketone>  (249) 
0

>  <fr_ketone_Topliss>  (249) 
0

>  <fr_lactam>  (249) 
0

>  <fr_lactone>  (249) 
0

>  <fr_methoxy>  (249) 
0

>  <fr_morpholine>  (249) 
0

>  <fr_nitrile>  (249) 
0

>  <fr_nitro>  (249) 
0

>  <fr_nitro_arom>  (249) 
0

>  <fr_nitro_arom_nonortho>  (249) 
0

>  <fr_nitroso>  (249) 
0

>  <fr_oxazole>  (249) 
0

>  <fr_oxime>  (249) 
0

>  <fr_para_hydroxylation>  (249) 
0

>  <fr_phenol>  (249) 
0

>  <fr_phenol_noOrthoHbond>  (249) 
0

>  <fr_phos_acid>  (249) 
0

>  <fr_phos_ester>  (249) 
0

>  <fr_piperdine>  (249) 
2

>  <fr_piperzine>  (249) 
0

>  <fr_priamide>  (249) 
0

>  <fr_prisulfonamd>  (249) 
0

>  <fr_pyridine>  (249) 
0

>  <fr_quatN>  (249) 
1

>  <fr_sulfide>  (249) 
0

>  <fr_sulfonamd>  (249) 
0

>  <fr_sulfone>  (249) 
0

>  <fr_term_acetylene>  (249) 
0

>  <fr_tetrazole>  (249) 
0

>  <fr_thiazole>  (249) 
0

>  <fr_thiocyan>  (249) 
0

>  <fr_thiophene>  (249) 
0

>  <fr_unbrch_alkane>  (249) 
0

>  <fr_urea>  (249) 
0

>  <NP-Likeness>  (249) 
-0.713281

$$$$
SKE
     RDKit          3D

  0  0  0  0  0  0  0  0  0  0999 V3000
M  V30 BEGIN CTAB
M  V30 COUNTS 39 41 0 0 0
M  V30 BEGIN ATOM
M  V30 1 C 3.003021 -6.652258 1.051244 0
M  V30 2 C 3.649066 -5.936541 0.073042 0
M  V30 3 C 3.332615 -4.572699 0.019438 0
M  V30 4 F 4.010625 -3.908074 -0.977170 0
M  V30 5 C 2.417315 -4.001415 0.913431 0
M  V30 6 C 2.182235 -2.605779 0.721816 0
M  V30 7 O 2.357962 -2.309835 -0.509378 0
M  V30 8 N 1.837027 -1.395402 1.315216 0
M  V30 9 N 1.649850 -0.265578 0.668186 0
M  V30 10 C 1.373516 0.725348 1.569917 0
M  V30 11 N 1.142442 2.025073 1.039557 0
M  V30 12 C -0.159427 2.453059 0.657940 0
M  V30 13 C -1.240580 1.607848 0.784022 0
M  V30 14 C -2.475286 2.071190 0.400969 0
M  V30 15 C -2.656082 3.359889 -0.105484 0
M  V30 16 S -4.268213 3.858453 -0.567067 0
M  V30 17 O -4.513093 5.312271 -0.327246 0
M  V30 18 O -5.307448 3.120172 0.265757 0
M  V30 19 N -4.585409 3.502528 -2.216129 0
M  V30 20 C -1.569947 4.218087 -0.235463 0
M  V30 21 C -0.330217 3.728092 0.158237 0
M  V30 22 N 1.405229 0.131301 2.788916 0
M  V30 23 C 1.692708 -1.178082 2.623030 0
M  V30 24 N 1.767321 -1.855141 3.853652 0
M  V30 25 C 1.845244 -4.838316 1.839778 0
M  V30 26 F 0.919491 -4.376654 2.704848 0
M  V30 27 C 2.092047 -6.185444 1.970545 0
M  V30 28 H 3.260197 -7.710095 1.082338 0
M  V30 29 H 4.351271 -6.400946 -0.604058 0
M  V30 30 H 1.962491 2.659960 0.937948 0
M  V30 31 H -1.067903 0.622375 1.177019 0
M  V30 32 H -3.300010 1.394038 0.509101 0
M  V30 33 H -4.491699 2.504876 -2.457856 0
M  V30 34 H -5.588392 3.762133 -2.397098 0
M  V30 35 H -1.712310 5.208417 -0.625270 0
M  V30 36 H 0.489502 4.441857 0.035791 0
M  V30 37 H 2.529610 -2.329124 4.412900 0
M  V30 38 H 0.951429 -2.009012 4.487482 0
M  V30 39 H 1.630764 -6.817377 2.706212 0
M  V30 END ATOM
M  V30 BEGIN BOND
M  V30 1 2 1 2
M  V30 2 1 2 3
M  V30 3 1 3 4
M  V30 4 2 3 5
M  V30 5 1 5 6
M  V30 6 2 6 7
M  V30 7 1 6 8
M  V30 8 1 8 9
M  V30 9 2 9 10
M  V30 10 1 10 11
M  V30 11 1 11 12
M  V30 12 2 12 13
M  V30 13 1 13 14
M  V30 14 2 14 15
M  V30 15 1 15 16
M  V30 16 2 16 17
M  V30 17 2 16 18
M  V30 18 1 16 19
M  V30 19 1 15 20
M  V30 20 2 20 21
M  V30 21 1 10 22
M  V30 22 2 22 23
M  V30 23 1 23 24
M  V30 24 1 5 25
M  V30 25 1 25 26
M  V30 26 2 25 27
M  V30 27 1 27 1
M  V30 28 1 23 8
M  V30 29 1 21 12
M  V30 30 1 1 28
M  V30 31 1 2 29
M  V30 32 1 11 30
M  V30 33 1 13 31
M  V30 34 1 14 32
M  V30 35 1 19 33
M  V30 36 1 19 34
M  V30 37 1 20 35
M  V30 38 1 21 36
M  V30 39 1 24 37
M  V30 40 1 24 38
M  V30 41 1 27 39
M  V30 END BOND
M  V30 END CTAB
M  END
>  <Dataset>  (250) 
PDB

>  <Ligand_Instance>  (250) 
3AMA_SKE_A_351

>  <PDB_ID>  (250) 
3AMA

>  <Standardized_SMILES>  (250) 
[H]C1=C([H])C(F)=C(C(=O)N2N=C(N([H])C3=C([H])C([H])=C(S(=O)(=O)N([H])[H])C([H])=C3[H])N=C2N([H])[H])C(F)=C1[H]

>  <Name>  (250) 
4-({5-amino-1-[(2,6-difluorophenyl)carbonyl]-1H-1,2,4-triazol-3-yl}amino)benzenesulfonamide

>  <Pocket>  (250) 
A

>  <ATP_Site>  (250) 
1.0

>  <Peripheral>  (250) 
0.0

>  <Num_H_Atoms_ProtBoundConf>  (250) 
12.0

>  <Num_Resolved_Atoms>  (250) 
27.0

>  <Num_Not_Resolved_Atoms>  (250) 
0.0

>  <2D_Mol_H>  (250) 
<rdkit.Chem.rdchem.Mol object at 0x72a2391003c0>

>  <MW>  (250) 
394.363

>  <HBA>  (250) 
8

>  <HBD>  (250) 
3

>  <LogP>  (250) 
1.218

>  <NRB>  (250) 
6

>  <TPSA>  (250) 
145.99

>  <Num_Heavy_Atoms>  (250) 
27

>  <Ro5>  (250) 
[True, True, True, True, True, False]

>  <Ro5_Fulfilled>  (250) 
True

>  <Ro3>  (250) 
[False, False, True, True]

>  <Ro3_Fulfilled>  (250) 
False

>  <Fsp3>  (250) 
0.0

>  <Fsp3_0.42>  (250) 
False

>  <Fsp3_0.45>  (250) 
False

>  <Stereogenic_Carbons>  (250) 
0

>  <C_Atoms>  (250) 
15

>  <FCStereo>  (250) 
0.0

>  <SPS>  (250) 
307

>  <nSPS>  (250) 
11.37037

>  <PBF>  (250) 
1.077794

>  <PBF_0.6>  (250) 
True

>  <nPBF>  (250) 
0.039918

>  <nPBF_0.016>  (250) 
True

>  <PMI1>  (250) 
1232.863191

>  <PMI2>  (250) 
8538.37112

>  <PMI3>  (250) 
8643.026269

>  <NPR1>  (250) 
0.142643

>  <NPR2>  (250) 
0.987891

>  <Sum_NPR>  (250) 
1.130534

>  <Sum_NPR_1.07>  (250) 
True

>  <Sum_NPR_1.2>  (250) 
False

>  <MaxAbsEStateIndex>  (250) 
13.767918

>  <MaxEStateIndex>  (250) 
13.767918

>  <MinAbsEStateIndex>  (250) 
0.100687

>  <MinEStateIndex>  (250) 
-3.843914

>  <qed>  (250) 
0.602789

>  <MolWt>  (250) 
394.363

>  <HeavyAtomMolWt>  (250) 
382.267

>  <ExactMolWt>  (250) 
394.065966

>  <NumValenceElectrons>  (250) 
140

>  <NumRadicalElectrons>  (250) 
0

>  <MaxPartialCharge>  (250) 
0.286935

>  <MinPartialCharge>  (250) 
-0.367547

>  <MaxAbsPartialCharge>  (250) 
0.367547

>  <MinAbsPartialCharge>  (250) 
0.286935

>  <FpDensityMorgan1>  (250) 
1.074074

>  <FpDensityMorgan2>  (250) 
1.666667

>  <FpDensityMorgan3>  (250) 
2.222222

>  <BCUT2D_MWHI>  (250) 
32.233117

>  <BCUT2D_MWLOW>  (250) 
10.161666

>  <BCUT2D_CHGHI>  (250) 
2.225331

>  <BCUT2D_CHGLO>  (250) 
-2.042489

>  <BCUT2D_LOGPHI>  (250) 
2.190032

>  <BCUT2D_LOGPLOW>  (250) 
-2.18941

>  <BCUT2D_MRHI>  (250) 
7.887609

>  <BCUT2D_MRLOW>  (250) 
0.093923

>  <AvgIpc>  (250) 
2.942983

>  <BalabanJ>  (250) 
1.875941

>  <BertzCT>  (250) 
1108.704064

>  <Chi0>  (250) 
19.76722

>  <Chi0n>  (250) 
13.426715

>  <Chi0v>  (250) 
14.243212

>  <Chi1>  (250) 
12.663722

>  <Chi1n>  (250) 
7.277342

>  <Chi1v>  (250) 
8.823661

>  <Chi2n>  (250) 
5.30161

>  <Chi2v>  (250) 
6.863033

>  <Chi3n>  (250) 
3.440167

>  <Chi3v>  (250) 
4.369398

>  <Chi4n>  (250) 
2.191656

>  <Chi4v>  (250) 
2.707096

>  <HallKierAlpha>  (250) 
-3.38

>  <Ipc>  (250) 
973939.012545

>  <Kappa1>  (250) 
18.412249

>  <Kappa2>  (250) 
6.735581

>  <Kappa3>  (250) 
3.753407

>  <LabuteASA>  (250) 
151.220427

>  <PEOE_VSA1>  (250) 
11.050456

>  <PEOE_VSA10>  (250) 
17.197893

>  <PEOE_VSA11>  (250) 
0.0

>  <PEOE_VSA12>  (250) 
21.91997

>  <PEOE_VSA13>  (250) 
5.90718

>  <PEOE_VSA14>  (250) 
0.0

>  <PEOE_VSA2>  (250) 
4.794537

>  <PEOE_VSA3>  (250) 
22.337601

>  <PEOE_VSA4>  (250) 
9.665781

>  <PEOE_VSA5>  (250) 
5.098682

>  <PEOE_VSA6>  (250) 
6.066367

>  <PEOE_VSA7>  (250) 
36.398202

>  <PEOE_VSA8>  (250) 
5.687386

>  <PEOE_VSA9>  (250) 
4.895483

>  <SMR_VSA1>  (250) 
21.993164

>  <SMR_VSA10>  (250) 
33.514536

>  <SMR_VSA2>  (250) 
0.0

>  <SMR_VSA3>  (250) 
14.764463

>  <SMR_VSA4>  (250) 
5.138974

>  <SMR_VSA5>  (250) 
4.895483

>  <SMR_VSA6>  (250) 
11.050456

>  <SMR_VSA7>  (250) 
59.662463

>  <SMR_VSA8>  (250) 
0.0

>  <SMR_VSA9>  (250) 
0.0

>  <SlogP_VSA1>  (250) 
16.18943

>  <SlogP_VSA10>  (250) 
26.364895

>  <SlogP_VSA11>  (250) 
0.0

>  <SlogP_VSA12>  (250) 
0.0

>  <SlogP_VSA2>  (250) 
29.08944

>  <SlogP_VSA3>  (250) 
10.023291

>  <SlogP_VSA4>  (250) 
11.634442

>  <SlogP_VSA5>  (250) 
10.357989

>  <SlogP_VSA6>  (250) 
47.360053

>  <SlogP_VSA7>  (250) 
0.0

>  <SlogP_VSA8>  (250) 
0.0

>  <SlogP_VSA9>  (250) 
0.0

>  <EState_VSA1>  (250) 
39.076703

>  <EState_VSA10>  (250) 
21.993164

>  <EState_VSA11>  (250) 
0.0

>  <EState_VSA2>  (250) 
10.843823

>  <EState_VSA3>  (250) 
10.369189

>  <EState_VSA4>  (250) 
18.199101

>  <EState_VSA5>  (250) 
24.265468

>  <EState_VSA6>  (250) 
0.0

>  <EState_VSA7>  (250) 
0.0

>  <EState_VSA8>  (250) 
15.399449

>  <EState_VSA9>  (250) 
10.872641

>  <VSA_EState1>  (250) 
50.538497

>  <VSA_EState10>  (250) 
0.0

>  <VSA_EState2>  (250) 
16.013873

>  <VSA_EState3>  (250) 
11.463443

>  <VSA_EState4>  (250) 
5.146143

>  <VSA_EState5>  (250) 
-3.799566

>  <VSA_EState6>  (250) 
8.231524

>  <VSA_EState7>  (250) 
0.0

>  <VSA_EState8>  (250) 
0.0

>  <VSA_EState9>  (250) 
-3.843914

>  <FractionCSP3>  (250) 
0.0

>  <HeavyAtomCount>  (250) 
27

>  <NHOHCount>  (250) 
5

>  <NOCount>  (250) 
9

>  <NumAliphaticCarbocycles>  (250) 
0

>  <NumAliphaticHeterocycles>  (250) 
0

>  <NumAliphaticRings>  (250) 
0

>  <NumAromaticCarbocycles>  (250) 
2

>  <NumAromaticHeterocycles>  (250) 
1

>  <NAR>  (250) 
3

>  <NumHAcceptors>  (250) 
8

>  <NumHDonors>  (250) 
3

>  <NumHeteroatoms>  (250) 
12

>  <NumRotatableBonds>  (250) 
4

>  <NumSaturatedCarbocycles>  (250) 
0

>  <NumSaturatedHeterocycles>  (250) 
0

>  <NumSaturatedRings>  (250) 
0

>  <RingCount>  (250) 
3

>  <MolLogP>  (250) 
1.218

>  <MolMR>  (250) 
91.6188

>  <fr_Al_COO>  (250) 
0

>  <fr_Al_OH>  (250) 
0

>  <fr_Al_OH_noTert>  (250) 
0

>  <fr_ArN>  (250) 
1

>  <fr_Ar_COO>  (250) 
0

>  <fr_Ar_N>  (250) 
3

>  <fr_Ar_NH>  (250) 
0

>  <fr_Ar_OH>  (250) 
0

>  <fr_COO>  (250) 
0

>  <fr_COO2>  (250) 
0

>  <fr_C_O>  (250) 
1

>  <fr_C_O_noCOO>  (250) 
1

>  <fr_C_S>  (250) 
0

>  <fr_HOCCN>  (250) 
0

>  <fr_Imine>  (250) 
0

>  <fr_NH0>  (250) 
3

>  <fr_NH1>  (250) 
1

>  <fr_NH2>  (250) 
2

>  <fr_N_O>  (250) 
0

>  <fr_Ndealkylation1>  (250) 
0

>  <fr_Ndealkylation2>  (250) 
0

>  <fr_Nhpyrrole>  (250) 
0

>  <fr_SH>  (250) 
0

>  <fr_aldehyde>  (250) 
0

>  <fr_alkyl_carbamate>  (250) 
0

>  <fr_alkyl_halide>  (250) 
0

>  <fr_allylic_oxid>  (250) 
0

>  <fr_amide>  (250) 
0

>  <fr_amidine>  (250) 
0

>  <fr_aniline>  (250) 
3

>  <fr_aryl_methyl>  (250) 
0

>  <fr_azide>  (250) 
0

>  <fr_azo>  (250) 
0

>  <fr_barbitur>  (250) 
0

>  <fr_benzene>  (250) 
2

>  <fr_benzodiazepine>  (250) 
0

>  <fr_bicyclic>  (250) 
0

>  <fr_diazo>  (250) 
0

>  <fr_dihydropyridine>  (250) 
0

>  <fr_epoxide>  (250) 
0

>  <fr_ester>  (250) 
0

>  <fr_ether>  (250) 
0

>  <fr_furan>  (250) 
0

>  <fr_guanido>  (250) 
0

>  <fr_halogen>  (250) 
2

>  <fr_hdrzine>  (250) 
0

>  <fr_hdrzone>  (250) 
0

>  <fr_imidazole>  (250) 
0

>  <fr_imide>  (250) 
0

>  <fr_isocyan>  (250) 
0

>  <fr_isothiocyan>  (250) 
0

>  <fr_ketone>  (250) 
0

>  <fr_ketone_Topliss>  (250) 
0

>  <fr_lactam>  (250) 
0

>  <fr_lactone>  (250) 
0

>  <fr_methoxy>  (250) 
0

>  <fr_morpholine>  (250) 
0

>  <fr_nitrile>  (250) 
0

>  <fr_nitro>  (250) 
0

>  <fr_nitro_arom>  (250) 
0

>  <fr_nitro_arom_nonortho>  (250) 
0

>  <fr_nitroso>  (250) 
0

>  <fr_oxazole>  (250) 
0

>  <fr_oxime>  (250) 
0

>  <fr_para_hydroxylation>  (250) 
0

>  <fr_phenol>  (250) 
0

>  <fr_phenol_noOrthoHbond>  (250) 
0

>  <fr_phos_acid>  (250) 
0

>  <fr_phos_ester>  (250) 
0

>  <fr_piperdine>  (250) 
0

>  <fr_piperzine>  (250) 
0

>  <fr_priamide>  (250) 
0

>  <fr_prisulfonamd>  (250) 
0

>  <fr_pyridine>  (250) 
0

>  <fr_quatN>  (250) 
0

>  <fr_sulfide>  (250) 
0

>  <fr_sulfonamd>  (250) 
1

>  <fr_sulfone>  (250) 
0

>  <fr_term_acetylene>  (250) 
0

>  <fr_tetrazole>  (250) 
0

>  <fr_thiazole>  (250) 
0

>  <fr_thiocyan>  (250) 
0

>  <fr_thiophene>  (250) 
0

>  <fr_unbrch_alkane>  (250) 
0

>  <fr_urea>  (250) 
0

>  <NP-Likeness>  (250) 
-1.744004

$$$$
SMY
     RDKit          3D

  0  0  0  0  0  0  0  0  0  0999 V3000
M  V30 BEGIN CTAB
M  V30 COUNTS 57 61 0 0 0
M  V30 BEGIN ATOM
M  V30 1 C 0.643483 -4.571929 1.356043 0
M  V30 2 N 0.990885 -3.592288 0.548301 0
M  V30 3 C 0.559869 -3.355479 -0.699844 0
M  V30 4 N 1.159597 -2.173156 -1.271667 0
M  V30 5 C 2.164447 -1.406394 -0.499181 0
M  V30 6 C 1.628519 -0.023588 -0.335310 0
M  V30 7 N 0.268680 0.099996 -0.856238 0
M  V30 8 C -0.907275 0.469385 -0.172998 0
M  V30 9 O -1.975002 0.487464 -0.836616 0
M  V30 10 C -1.848140 0.889460 0.878663 0 CFG=1
M  V30 11 C -1.539470 2.316828 1.274822 0
M  V30 12 C -0.159809 2.406346 1.781542 0
M  V30 13 C 0.849003 2.976406 1.023160 0
M  V30 14 N 1.954252 2.890729 1.811109 0
M  V30 15 C 1.643121 2.304609 2.979963 0
M  V30 16 C 2.404495 1.994538 4.094899 0
M  V30 17 C 1.830794 1.374065 5.201741 0
M  V30 18 C 0.480585 1.065760 5.180649 0
M  V30 19 C -0.291987 1.361893 4.091206 0
M  V30 20 C 0.294980 1.977770 3.002196 0
M  V30 21 N -3.230660 0.804265 0.430787 0 CHG=1 VAL=4
M  V30 22 C 0.228264 -0.212639 -2.263594 0
M  V30 23 C 1.042062 -1.445228 -2.514704 0
M  V30 24 C -0.380189 -4.244762 -1.243905 0
M  V30 25 C -0.740083 -5.247775 -0.424028 0
M  V30 26 N -0.256190 -5.408370 0.813861 0
M  V30 27 C -1.716783 -6.178907 -0.958074 0
M  V30 28 S -1.911369 -5.683137 -2.680400 0
M  V30 29 C -0.949630 -4.128815 -2.600748 0 CFG=1
M  V30 30 C -1.954917 -3.018269 -2.749028 0
M  V30 31 H 1.055800 -4.667024 2.345320 0
M  V30 32 H 2.369651 -1.918660 0.462588 0
M  V30 33 H 3.096954 -1.448193 -1.086710 0
M  V30 34 H 1.544682 0.196480 0.759510 0
M  V30 35 H 2.271823 0.739150 -0.813572 0
M  V30 36 H -1.663953 0.274865 1.771980 0
M  V30 37 H -2.261860 2.621204 2.084959 0
M  V30 38 H -1.752433 3.026026 0.448305 0
M  V30 39 H 0.864166 3.410045 0.042735 0
M  V30 40 H 2.910502 3.213460 1.588062 0
M  V30 41 H 3.456491 2.212438 4.161870 0
M  V30 42 H 2.440046 1.139136 6.064037 0
M  V30 43 H 0.022729 0.589881 6.020408 0
M  V30 44 H -1.343322 1.148370 4.014058 0
M  V30 45 H -3.829728 1.088295 1.266629 0
M  V30 46 H -3.516444 -0.108258 0.072636 0
M  V30 47 H -3.424583 1.551255 -0.266938 0
M  V30 48 H 0.671350 0.670900 -2.784921 0
M  V30 49 H -0.834651 -0.362058 -2.564801 0
M  V30 50 H 2.053735 -1.086951 -2.897051 0
M  V30 51 H 0.657799 -2.043501 -3.365655 0
M  V30 52 H -1.454744 -7.248010 -0.846337 0
M  V30 53 H -2.705206 -5.949997 -0.467399 0
M  V30 54 H -0.180548 -4.170775 -3.395045 0
M  V30 55 H -1.956516 -2.402812 -1.811176 0
M  V30 56 H -2.991486 -3.377318 -2.885747 0
M  V30 57 H -1.719775 -2.340483 -3.589261 0
M  V30 END ATOM
M  V30 BEGIN BOND
M  V30 1 2 1 2
M  V30 2 1 2 3
M  V30 3 1 3 4
M  V30 4 1 4 5
M  V30 5 1 5 6
M  V30 6 1 6 7
M  V30 7 1 7 8
M  V30 8 2 8 9
M  V30 9 1 8 10
M  V30 10 1 10 11
M  V30 11 1 11 12
M  V30 12 2 12 13
M  V30 13 1 13 14
M  V30 14 1 14 15
M  V30 15 2 15 16
M  V30 16 1 16 17
M  V30 17 2 17 18
M  V30 18 1 18 19
M  V30 19 2 19 20
M  V30 20 1 10 21
M  V30 21 1 7 22
M  V30 22 1 22 23
M  V30 23 2 3 24
M  V30 24 1 24 25
M  V30 25 2 25 26
M  V30 26 1 25 27
M  V30 27 1 27 28
M  V30 28 1 28 29
M  V30 29 1 29 30
M  V30 30 1 26 1
M  V30 31 1 23 4
M  V30 32 1 29 24
M  V30 33 1 20 12
M  V30 34 1 20 15
M  V30 35 1 1 31
M  V30 36 1 5 32
M  V30 37 1 5 33
M  V30 38 1 6 34
M  V30 39 1 6 35
M  V30 40 1 10 36 CFG=1
M  V30 41 1 11 37
M  V30 42 1 11 38
M  V30 43 1 13 39
M  V30 44 1 14 40
M  V30 45 1 16 41
M  V30 46 1 17 42
M  V30 47 1 18 43
M  V30 48 1 19 44
M  V30 49 1 21 45
M  V30 50 1 21 46
M  V30 51 1 21 47
M  V30 52 1 22 48
M  V30 53 1 22 49
M  V30 54 1 23 50
M  V30 55 1 23 51
M  V30 56 1 27 52
M  V30 57 1 27 53
M  V30 58 1 29 54 CFG=3
M  V30 59 1 30 55
M  V30 60 1 30 56
M  V30 61 1 30 57
M  V30 END BOND
M  V30 END CTAB
M  END
>  <Dataset>  (251) 
PDB

>  <Ligand_Instance>  (251) 
3OW3_SMY_A_401

>  <PDB_ID>  (251) 
3OW3

>  <Standardized_SMILES>  (251) 
[H]C1=NC(N2C([H])([H])C([H])([H])N(C(=O)[C@@]([H])(C([H])([H])C3=C([H])N([H])C4=C([H])C([H])=C([H])C([H])=C43)[N+]([H])([H])[H])C([H])([H])C2([H])[H])=C2C(=N1)C([H])([H])S[C@@]2([H])C([H])([H])[H]

>  <Name>  (251) 
(2R)-3-(1H-indol-3-yl)-1-{4-[(5S)-5-methyl-5,7-dihydrothieno[3,4-d]pyrimidin-4-yl]piperazin-1-yl}-1-oxopropan-2-amine

>  <Pocket>  (251) 
A

>  <ATP_Site>  (251) 
1.0

>  <Peripheral>  (251) 
0.0

>  <Num_H_Atoms_ProtBoundConf>  (251) 
27.0

>  <Num_Resolved_Atoms>  (251) 
30.0

>  <Num_Not_Resolved_Atoms>  (251) 
0.0

>  <2D_Mol_H>  (251) 
<rdkit.Chem.rdchem.Mol object at 0x72a2391004a0>

>  <MW>  (251) 
423.566

>  <HBA>  (251) 
5

>  <HBD>  (251) 
2

>  <LogP>  (251) 
1.7675

>  <NRB>  (251) 
6

>  <TPSA>  (251) 
92.76

>  <Num_Heavy_Atoms>  (251) 
30

>  <Ro5>  (251) 
[True, True, True, True, True, True]

>  <Ro5_Fulfilled>  (251) 
True

>  <Ro3>  (251) 
[False, False, True, True]

>  <Ro3_Fulfilled>  (251) 
False

>  <Fsp3>  (251) 
0.409091

>  <Fsp3_0.42>  (251) 
False

>  <Fsp3_0.45>  (251) 
False

>  <Stereogenic_Carbons>  (251) 
2

>  <C_Atoms>  (251) 
22

>  <FCStereo>  (251) 
0.090909

>  <SPS>  (251) 
596

>  <nSPS>  (251) 
19.866667

>  <PBF>  (251) 
1.460129

>  <PBF_0.6>  (251) 
True

>  <nPBF>  (251) 
0.048671

>  <nPBF_0.016>  (251) 
True

>  <PMI1>  (251) 
1910.831376

>  <PMI2>  (251) 
5770.80588

>  <PMI3>  (251) 
6213.79278

>  <NPR1>  (251) 
0.307514

>  <NPR2>  (251) 
0.928709

>  <Sum_NPR>  (251) 
1.236224

>  <Sum_NPR_1.07>  (251) 
True

>  <Sum_NPR_1.2>  (251) 
True

>  <MaxAbsEStateIndex>  (251) 
13.048602

>  <MaxEStateIndex>  (251) 
13.048602

>  <MinAbsEStateIndex>  (251) 
0.135899

>  <MinEStateIndex>  (251) 
-0.281967

>  <qed>  (251) 
0.667184

>  <MolWt>  (251) 
423.566

>  <HeavyAtomMolWt>  (251) 
396.35

>  <ExactMolWt>  (251) 
423.196157

>  <NumValenceElectrons>  (251) 
156

>  <NumRadicalElectrons>  (251) 
0

>  <MaxPartialCharge>  (251) 
0.2807

>  <MinPartialCharge>  (251) 
-0.360886

>  <MaxAbsPartialCharge>  (251) 
0.360886

>  <MinAbsPartialCharge>  (251) 
0.2807

>  <FpDensityMorgan1>  (251) 
1.266667

>  <FpDensityMorgan2>  (251) 
2.066667

>  <FpDensityMorgan3>  (251) 
2.9

>  <BCUT2D_MWHI>  (251) 
32.16663

>  <BCUT2D_MWLOW>  (251) 
10.041069

>  <BCUT2D_CHGHI>  (251) 
2.315927

>  <BCUT2D_CHGLO>  (251) 
-2.36346

>  <BCUT2D_LOGPHI>  (251) 
2.436151

>  <BCUT2D_LOGPLOW>  (251) 
-2.695714

>  <BCUT2D_MRHI>  (251) 
7.985964

>  <BCUT2D_MRLOW>  (251) 
-0.404822

>  <AvgIpc>  (251) 
3.369793

>  <BalabanJ>  (251) 
1.235323

>  <BertzCT>  (251) 
1074.429936

>  <Chi0>  (251) 
20.664561

>  <Chi0n>  (251) 
17.173901

>  <Chi0v>  (251) 
17.990397

>  <Chi1>  (251) 
14.614194

>  <Chi1n>  (251) 
10.487242

>  <Chi1v>  (251) 
11.535997

>  <Chi2n>  (251) 
8.083756

>  <Chi2v>  (251) 
9.412872

>  <Chi3n>  (251) 
6.203326

>  <Chi3v>  (251) 
7.379132

>  <Chi4n>  (251) 
4.542209

>  <Chi4v>  (251) 
5.58823

>  <HallKierAlpha>  (251) 
-2.58

>  <Ipc>  (251) 
14437446.12774

>  <Kappa1>  (251) 
19.387451

>  <Kappa2>  (251) 
7.922708

>  <Kappa3>  (251) 
3.436126

>  <LabuteASA>  (251) 
179.600567

>  <PEOE_VSA1>  (251) 
20.517465

>  <PEOE_VSA10>  (251) 
12.145183

>  <PEOE_VSA11>  (251) 
6.041841

>  <PEOE_VSA12>  (251) 
0.0

>  <PEOE_VSA13>  (251) 
5.90718

>  <PEOE_VSA14>  (251) 
0.0

>  <PEOE_VSA2>  (251) 
4.794537

>  <PEOE_VSA3>  (251) 
9.967957

>  <PEOE_VSA4>  (251) 
0.0

>  <PEOE_VSA5>  (251) 
11.761885

>  <PEOE_VSA6>  (251) 
18.199101

>  <PEOE_VSA7>  (251) 
18.553556

>  <PEOE_VSA8>  (251) 
66.265859

>  <PEOE_VSA9>  (251) 
5.693928

>  <SMR_VSA1>  (251) 
10.528205

>  <SMR_VSA10>  (251) 
34.389852

>  <SMR_VSA2>  (251) 
0.0

>  <SMR_VSA3>  (251) 
19.851845

>  <SMR_VSA4>  (251) 
0.0

>  <SMR_VSA5>  (251) 
30.389191

>  <SMR_VSA6>  (251) 
31.078935

>  <SMR_VSA7>  (251) 
53.610463

>  <SMR_VSA8>  (251) 
0.0

>  <SMR_VSA9>  (251) 
0.0

>  <SlogP_VSA1>  (251) 
10.633577

>  <SlogP_VSA10>  (251) 
5.817863

>  <SlogP_VSA11>  (251) 
0.0

>  <SlogP_VSA12>  (251) 
11.761885

>  <SlogP_VSA2>  (251) 
57.979891

>  <SlogP_VSA3>  (251) 
16.968212

>  <SlogP_VSA4>  (251) 
0.0

>  <SlogP_VSA5>  (251) 
28.994506

>  <SlogP_VSA6>  (251) 
36.789632

>  <SlogP_VSA7>  (251) 
0.0

>  <SlogP_VSA8>  (251) 
10.902925

>  <SlogP_VSA9>  (251) 
0.0

>  <EState_VSA1>  (251) 
0.0

>  <EState_VSA10>  (251) 
4.794537

>  <EState_VSA11>  (251) 
0.0

>  <EState_VSA2>  (251) 
11.949021

>  <EState_VSA3>  (251) 
24.760272

>  <EState_VSA4>  (251) 
41.434309

>  <EState_VSA5>  (251) 
10.949676

>  <EState_VSA6>  (251) 
6.32732

>  <EState_VSA7>  (251) 
34.991372

>  <EState_VSA8>  (251) 
44.641984

>  <EState_VSA9>  (251) 
0.0

>  <VSA_EState1>  (251) 
0.0

>  <VSA_EState10>  (251) 
1.911332

>  <VSA_EState2>  (251) 
29.651406

>  <VSA_EState3>  (251) 
1.601512

>  <VSA_EState4>  (251) 
8.877284

>  <VSA_EState5>  (251) 
2.146236

>  <VSA_EState6>  (251) 
7.913742

>  <VSA_EState7>  (251) 
4.330982

>  <VSA_EState8>  (251) 
5.234172

>  <VSA_EState9>  (251) 
0.0

>  <FractionCSP3>  (251) 
0.409091

>  <HeavyAtomCount>  (251) 
30

>  <NHOHCount>  (251) 
4

>  <NOCount>  (251) 
7

>  <NumAliphaticCarbocycles>  (251) 
0

>  <NumAliphaticHeterocycles>  (251) 
2

>  <NumAliphaticRings>  (251) 
2

>  <NumAromaticCarbocycles>  (251) 
1

>  <NumAromaticHeterocycles>  (251) 
2

>  <NAR>  (251) 
3

>  <NumHAcceptors>  (251) 
5

>  <NumHDonors>  (251) 
2

>  <NumHeteroatoms>  (251) 
8

>  <NumRotatableBonds>  (251) 
4

>  <NumSaturatedCarbocycles>  (251) 
0

>  <NumSaturatedHeterocycles>  (251) 
1

>  <NumSaturatedRings>  (251) 
1

>  <RingCount>  (251) 
5

>  <MolLogP>  (251) 
1.7675

>  <MolMR>  (251) 
119.2138

>  <fr_Al_COO>  (251) 
0

>  <fr_Al_OH>  (251) 
0

>  <fr_Al_OH_noTert>  (251) 
0

>  <fr_ArN>  (251) 
0

>  <fr_Ar_COO>  (251) 
0

>  <fr_Ar_N>  (251) 
3

>  <fr_Ar_NH>  (251) 
1

>  <fr_Ar_OH>  (251) 
0

>  <fr_COO>  (251) 
0

>  <fr_COO2>  (251) 
0

>  <fr_C_O>  (251) 
1

>  <fr_C_O_noCOO>  (251) 
1

>  <fr_C_S>  (251) 
0

>  <fr_HOCCN>  (251) 
0

>  <fr_Imine>  (251) 
0

>  <fr_NH0>  (251) 
4

>  <fr_NH1>  (251) 
1

>  <fr_NH2>  (251) 
0

>  <fr_N_O>  (251) 
0

>  <fr_Ndealkylation1>  (251) 
0

>  <fr_Ndealkylation2>  (251) 
0

>  <fr_Nhpyrrole>  (251) 
1

>  <fr_SH>  (251) 
0

>  <fr_aldehyde>  (251) 
0

>  <fr_alkyl_carbamate>  (251) 
0

>  <fr_alkyl_halide>  (251) 
0

>  <fr_allylic_oxid>  (251) 
0

>  <fr_amide>  (251) 
1

>  <fr_amidine>  (251) 
0

>  <fr_aniline>  (251) 
1

>  <fr_aryl_methyl>  (251) 
0

>  <fr_azide>  (251) 
0

>  <fr_azo>  (251) 
0

>  <fr_barbitur>  (251) 
0

>  <fr_benzene>  (251) 
1

>  <fr_benzodiazepine>  (251) 
0

>  <fr_bicyclic>  (251) 
2

>  <fr_diazo>  (251) 
0

>  <fr_dihydropyridine>  (251) 
0

>  <fr_epoxide>  (251) 
0

>  <fr_ester>  (251) 
0

>  <fr_ether>  (251) 
0

>  <fr_furan>  (251) 
0

>  <fr_guanido>  (251) 
0

>  <fr_halogen>  (251) 
0

>  <fr_hdrzine>  (251) 
0

>  <fr_hdrzone>  (251) 
0

>  <fr_imidazole>  (251) 
0

>  <fr_imide>  (251) 
0

>  <fr_isocyan>  (251) 
0

>  <fr_isothiocyan>  (251) 
0

>  <fr_ketone>  (251) 
0

>  <fr_ketone_Topliss>  (251) 
0

>  <fr_lactam>  (251) 
0

>  <fr_lactone>  (251) 
0

>  <fr_methoxy>  (251) 
0

>  <fr_morpholine>  (251) 
0

>  <fr_nitrile>  (251) 
0

>  <fr_nitro>  (251) 
0

>  <fr_nitro_arom>  (251) 
0

>  <fr_nitro_arom_nonortho>  (251) 
0

>  <fr_nitroso>  (251) 
0

>  <fr_oxazole>  (251) 
0

>  <fr_oxime>  (251) 
0

>  <fr_para_hydroxylation>  (251) 
1

>  <fr_phenol>  (251) 
0

>  <fr_phenol_noOrthoHbond>  (251) 
0

>  <fr_phos_acid>  (251) 
0

>  <fr_phos_ester>  (251) 
0

>  <fr_piperdine>  (251) 
0

>  <fr_piperzine>  (251) 
1

>  <fr_priamide>  (251) 
0

>  <fr_prisulfonamd>  (251) 
0

>  <fr_pyridine>  (251) 
0

>  <fr_quatN>  (251) 
1

>  <fr_sulfide>  (251) 
1

>  <fr_sulfonamd>  (251) 
0

>  <fr_sulfone>  (251) 
0

>  <fr_term_acetylene>  (251) 
0

>  <fr_tetrazole>  (251) 
0

>  <fr_thiazole>  (251) 
0

>  <fr_thiocyan>  (251) 
0

>  <fr_thiophene>  (251) 
0

>  <fr_unbrch_alkane>  (251) 
0

>  <fr_urea>  (251) 
0

>  <NP-Likeness>  (251) 
-0.855624

$$$$
SS3
     RDKit          3D

  0  0  0  0  0  0  0  0  0  0999 V3000
M  V30 BEGIN CTAB
M  V30 COUNTS 50 53 0 0 0
M  V30 BEGIN ATOM
M  V30 1 C -0.009126 -1.040020 3.009082 0
M  V30 2 N 1.258072 -0.952985 3.540353 0
M  V30 3 C 2.233830 -0.351390 2.793751 0
M  V30 4 C 1.926652 0.144612 1.547276 0
M  V30 5 C 2.832613 0.813491 0.617241 0
M  V30 6 C 2.667164 0.712219 -0.759342 0
M  V30 7 C 3.496904 1.326823 -1.673419 0
M  V30 8 C 4.554911 2.088501 -1.221449 0
M  V30 9 C 4.753106 2.213487 0.157643 0
M  V30 10 C 3.906460 1.586987 1.041550 0
M  V30 11 C 5.864483 3.018421 0.307510 0
M  V30 12 C 6.497109 3.461003 1.571845 0
M  V30 13 N 6.322953 3.367886 -0.899898 0
M  V30 14 N 5.534242 2.807996 -1.831224 0
M  V30 15 C 0.638700 0.019962 1.086049 0
M  V30 16 C -0.402189 -0.552935 1.732501 0
M  V30 17 O -1.685372 -0.882412 1.719225 0
M  V30 18 C -2.702937 -0.753980 0.826437 0
M  V30 19 C -2.589625 -1.481643 -0.478163 0 CFG=2
M  V30 20 C -2.529079 -2.967241 -0.143912 0
M  V30 21 C -3.725109 -3.437564 0.573803 0
M  V30 22 C -4.799542 -3.904917 -0.177919 0
M  V30 23 C -5.951319 -4.362221 0.421013 0
M  V30 24 C -6.097908 -4.379730 1.802519 0
M  V30 25 C -5.037175 -3.917716 2.563007 0
M  V30 26 C -3.888933 -3.462599 1.942830 0
M  V30 27 N -1.480309 -1.110893 -1.302622 0 CHG=1 VAL=4
M  V30 28 H -0.526474 -1.561334 3.842483 0
M  V30 29 H 3.265743 -0.201968 3.055632 0
M  V30 30 H 1.836719 0.115336 -1.169193 0
M  V30 31 H 3.360047 1.242033 -2.741141 0
M  V30 32 H 4.087482 1.703798 2.104593 0
M  V30 33 H 5.829991 3.307130 2.462855 0
M  V30 34 H 7.438940 2.922758 1.805259 0
M  V30 35 H 6.692763 4.559854 1.527391 0
M  V30 36 H 5.656089 2.910709 -2.876163 0
M  V30 37 H 0.303163 0.379788 0.152027 0
M  V30 38 H -2.884179 0.335320 0.518187 0
M  V30 39 H -3.720647 -1.014374 1.293358 0
M  V30 40 H -3.508420 -1.269030 -1.096636 0
M  V30 41 H -1.594774 -3.201877 0.403621 0
M  V30 42 H -2.460099 -3.512860 -1.101844 0
M  V30 43 H -4.773455 -3.927866 -1.258914 0
M  V30 44 H -6.779079 -4.724136 -0.207415 0
M  V30 45 H -7.029523 -4.752333 2.202627 0
M  V30 46 H -5.135875 -3.925413 3.635111 0
M  V30 47 H -3.068538 -3.105622 2.549561 0
M  V30 48 H -1.434537 -0.057999 -1.353947 0
M  V30 49 H -1.673409 -1.361866 -2.332091 0
M  V30 50 H -0.568982 -1.504627 -1.011785 0
M  V30 END ATOM
M  V30 BEGIN BOND
M  V30 1 2 1 2
M  V30 2 1 2 3
M  V30 3 2 3 4
M  V30 4 1 4 5
M  V30 5 2 5 6
M  V30 6 1 6 7
M  V30 7 2 7 8
M  V30 8 1 8 9
M  V30 9 2 9 10
M  V30 10 1 9 11
M  V30 11 1 11 12
M  V30 12 2 11 13
M  V30 13 1 13 14
M  V30 14 1 4 15
M  V30 15 2 15 16
M  V30 16 1 16 17
M  V30 17 1 17 18
M  V30 18 1 18 19
M  V30 19 1 19 20
M  V30 20 1 20 21
M  V30 21 2 21 22
M  V30 22 1 22 23
M  V30 23 2 23 24
M  V30 24 1 24 25
M  V30 25 2 25 26
M  V30 26 1 19 27
M  V30 27 1 16 1
M  V30 28 1 26 21
M  V30 29 1 10 5
M  V30 30 1 14 8
M  V30 31 1 1 28
M  V30 32 1 3 29
M  V30 33 1 6 30
M  V30 34 1 7 31
M  V30 35 1 10 32
M  V30 36 1 12 33
M  V30 37 1 12 34
M  V30 38 1 12 35
M  V30 39 1 14 36
M  V30 40 1 15 37
M  V30 41 1 18 38
M  V30 42 1 18 39
M  V30 43 1 19 40 CFG=3
M  V30 44 1 20 41
M  V30 45 1 20 42
M  V30 46 1 22 43
M  V30 47 1 23 44
M  V30 48 1 24 45
M  V30 49 1 25 46
M  V30 50 1 26 47
M  V30 51 1 27 48
M  V30 52 1 27 49
M  V30 53 1 27 50
M  V30 END BOND
M  V30 END CTAB
M  END
>  <Dataset>  (252) 
PDB

>  <Ligand_Instance>  (252) 
2UZT_SS3_A_1351

>  <PDB_ID>  (252) 
2UZT

>  <Standardized_SMILES>  (252) 
[H]C1=NC([H])=C(C2=C([H])C([H])=C3C(=C2[H])C(C([H])([H])[H])=NN3[H])C([H])=C1OC([H])([H])[C@]([H])(C([H])([H])C1=C([H])C([H])=C([H])C([H])=C1[H])[N+]([H])([H])[H]

>  <Name>  (252) 
(2S)-1-{[5-(3-METHYL-1H-INDAZOL-5-YL)PYRIDIN-3-YL]OXY}-3-PHENYLPROPAN-2-AMINE

>  <Pocket>  (252) 
A

>  <ATP_Site>  (252) 
1.0

>  <Peripheral>  (252) 
0.0

>  <Num_H_Atoms_ProtBoundConf>  (252) 
23.0

>  <Num_Resolved_Atoms>  (252) 
27.0

>  <Num_Not_Resolved_Atoms>  (252) 
0.0

>  <2D_Mol_H>  (252) 
<rdkit.Chem.rdchem.Mol object at 0x72a239100580>

>  <MW>  (252) 
359.453

>  <HBA>  (252) 
3

>  <HBD>  (252) 
2

>  <LogP>  (252) 
3.16532

>  <NRB>  (252) 
8

>  <TPSA>  (252) 
78.44

>  <Num_Heavy_Atoms>  (252) 
27

>  <Ro5>  (252) 
[True, True, True, True, True, True]

>  <Ro5_Fulfilled>  (252) 
True

>  <Ro3>  (252) 
[False, True, True, False]

>  <Ro3_Fulfilled>  (252) 
False

>  <Fsp3>  (252) 
0.181818

>  <Fsp3_0.42>  (252) 
False

>  <Fsp3_0.45>  (252) 
False

>  <Stereogenic_Carbons>  (252) 
1

>  <C_Atoms>  (252) 
22

>  <FCStereo>  (252) 
0.045455

>  <SPS>  (252) 
330

>  <nSPS>  (252) 
12.222222

>  <PBF>  (252) 
0.504419

>  <PBF_0.6>  (252) 
False

>  <nPBF>  (252) 
0.018682

>  <nPBF_0.016>  (252) 
True

>  <PMI1>  (252) 
835.161769

>  <PMI2>  (252) 
7724.661451

>  <PMI3>  (252) 
8390.684365

>  <NPR1>  (252) 
0.099534

>  <NPR2>  (252) 
0.920624

>  <Sum_NPR>  (252) 
1.020158

>  <Sum_NPR_1.07>  (252) 
False

>  <Sum_NPR_1.2>  (252) 
False

>  <MaxAbsEStateIndex>  (252) 
5.954842

>  <MaxEStateIndex>  (252) 
5.954842

>  <MinAbsEStateIndex>  (252) 
0.181469

>  <MinEStateIndex>  (252) 
0.181469

>  <qed>  (252) 
0.554951

>  <MolWt>  (252) 
359.453

>  <HeavyAtomMolWt>  (252) 
336.269

>  <ExactMolWt>  (252) 
359.186638

>  <NumValenceElectrons>  (252) 
136

>  <NumRadicalElectrons>  (252) 
0

>  <MaxPartialCharge>  (252) 
0.140112

>  <MinPartialCharge>  (252) 
-0.485747

>  <MaxAbsPartialCharge>  (252) 
0.485747

>  <MinAbsPartialCharge>  (252) 
0.140112

>  <FpDensityMorgan1>  (252) 
1.037037

>  <FpDensityMorgan2>  (252) 
1.888889

>  <FpDensityMorgan3>  (252) 
2.740741

>  <BCUT2D_MWHI>  (252) 
16.478397

>  <BCUT2D_MWLOW>  (252) 
10.047579

>  <BCUT2D_CHGHI>  (252) 
2.09997

>  <BCUT2D_CHGLO>  (252) 
-2.114134

>  <BCUT2D_LOGPHI>  (252) 
2.265115

>  <BCUT2D_LOGPLOW>  (252) 
-2.641643

>  <BCUT2D_MRHI>  (252) 
5.859562

>  <BCUT2D_MRLOW>  (252) 
-0.422718

>  <AvgIpc>  (252) 
3.076927

>  <BalabanJ>  (252) 
1.458361

>  <BertzCT>  (252) 
1042.568588

>  <Chi0>  (252) 
18.639617

>  <Chi0n>  (252) 
15.352199

>  <Chi0v>  (252) 
15.352199

>  <Chi1>  (252) 
13.186673

>  <Chi1n>  (252) 
9.088127

>  <Chi1v>  (252) 
9.088127

>  <Chi2n>  (252) 
6.845451

>  <Chi2v>  (252) 
6.845451

>  <Chi3n>  (252) 
4.652812

>  <Chi3v>  (252) 
4.652812

>  <Chi4n>  (252) 
3.201012

>  <Chi4v>  (252) 
3.201012

>  <HallKierAlpha>  (252) 
-3.18

>  <Ipc>  (252) 
2486009.665688

>  <Kappa1>  (252) 
17.244694

>  <Kappa2>  (252) 
7.59595

>  <Kappa3>  (252) 
3.985379

>  <LabuteASA>  (252) 
157.75737

>  <PEOE_VSA1>  (252) 
10.47053

>  <PEOE_VSA10>  (252) 
18.398235

>  <PEOE_VSA11>  (252) 
0.0

>  <PEOE_VSA12>  (252) 
0.0

>  <PEOE_VSA13>  (252) 
0.0

>  <PEOE_VSA14>  (252) 
0.0

>  <PEOE_VSA2>  (252) 
10.08266

>  <PEOE_VSA3>  (252) 
0.0

>  <PEOE_VSA4>  (252) 
5.098682

>  <PEOE_VSA5>  (252) 
0.0

>  <PEOE_VSA6>  (252) 
36.398202

>  <PEOE_VSA7>  (252) 
36.249741

>  <PEOE_VSA8>  (252) 
23.567341

>  <PEOE_VSA9>  (252) 
17.407472

>  <SMR_VSA1>  (252) 
10.47053

>  <SMR_VSA10>  (252) 
10.902925

>  <SMR_VSA2>  (252) 
0.0

>  <SMR_VSA3>  (252) 
15.181342

>  <SMR_VSA4>  (252) 
0.0

>  <SMR_VSA5>  (252) 
19.3864

>  <SMR_VSA6>  (252) 
6.606882

>  <SMR_VSA7>  (252) 
78.24837

>  <SMR_VSA8>  (252) 
0.0

>  <SMR_VSA9>  (252) 
16.876415

>  <SlogP_VSA1>  (252) 
10.47053

>  <SlogP_VSA10>  (252) 
0.0

>  <SlogP_VSA11>  (252) 
5.749512

>  <SlogP_VSA12>  (252) 
0.0

>  <SlogP_VSA2>  (252) 
27.830065

>  <SlogP_VSA3>  (252) 
6.420822

>  <SlogP_VSA4>  (252) 
6.923737

>  <SlogP_VSA5>  (252) 
11.257379

>  <SlogP_VSA6>  (252) 
66.990991

>  <SlogP_VSA7>  (252) 
0.0

>  <SlogP_VSA8>  (252) 
22.029828

>  <SlogP_VSA9>  (252) 
0.0

>  <EState_VSA1>  (252) 
0.0

>  <EState_VSA10>  (252) 
0.0

>  <EState_VSA11>  (252) 
0.0

>  <EState_VSA2>  (252) 
6.041841

>  <EState_VSA3>  (252) 
6.606882

>  <EState_VSA4>  (252) 
39.894089

>  <EState_VSA5>  (252) 
5.563451

>  <EState_VSA6>  (252) 
6.196844

>  <EState_VSA7>  (252) 
31.319682

>  <EState_VSA8>  (252) 
57.313212

>  <EState_VSA9>  (252) 
4.736863

>  <VSA_EState1>  (252) 
5.954842

>  <VSA_EState10>  (252) 
0.0

>  <VSA_EState2>  (252) 
4.344251

>  <VSA_EState3>  (252) 
8.416848

>  <VSA_EState4>  (252) 
9.642836

>  <VSA_EState5>  (252) 
0.762245

>  <VSA_EState6>  (252) 
18.822158

>  <VSA_EState7>  (252) 
4.499852

>  <VSA_EState8>  (252) 
2.556968

>  <VSA_EState9>  (252) 
0.0

>  <FractionCSP3>  (252) 
0.181818

>  <HeavyAtomCount>  (252) 
27

>  <NHOHCount>  (252) 
4

>  <NOCount>  (252) 
5

>  <NumAliphaticCarbocycles>  (252) 
0

>  <NumAliphaticHeterocycles>  (252) 
0

>  <NumAliphaticRings>  (252) 
0

>  <NumAromaticCarbocycles>  (252) 
2

>  <NumAromaticHeterocycles>  (252) 
2

>  <NAR>  (252) 
4

>  <NumHAcceptors>  (252) 
3

>  <NumHDonors>  (252) 
2

>  <NumHeteroatoms>  (252) 
5

>  <NumRotatableBonds>  (252) 
6

>  <NumSaturatedCarbocycles>  (252) 
0

>  <NumSaturatedHeterocycles>  (252) 
0

>  <NumSaturatedRings>  (252) 
0

>  <RingCount>  (252) 
4

>  <MolLogP>  (252) 
3.16532

>  <MolMR>  (252) 
106.3788

>  <fr_Al_COO>  (252) 
0

>  <fr_Al_OH>  (252) 
0

>  <fr_Al_OH_noTert>  (252) 
0

>  <fr_ArN>  (252) 
0

>  <fr_Ar_COO>  (252) 
0

>  <fr_Ar_N>  (252) 
3

>  <fr_Ar_NH>  (252) 
1

>  <fr_Ar_OH>  (252) 
0

>  <fr_COO>  (252) 
0

>  <fr_COO2>  (252) 
0

>  <fr_C_O>  (252) 
0

>  <fr_C_O_noCOO>  (252) 
0

>  <fr_C_S>  (252) 
0

>  <fr_HOCCN>  (252) 
0

>  <fr_Imine>  (252) 
0

>  <fr_NH0>  (252) 
2

>  <fr_NH1>  (252) 
1

>  <fr_NH2>  (252) 
0

>  <fr_N_O>  (252) 
0

>  <fr_Ndealkylation1>  (252) 
0

>  <fr_Ndealkylation2>  (252) 
0

>  <fr_Nhpyrrole>  (252) 
1

>  <fr_SH>  (252) 
0

>  <fr_aldehyde>  (252) 
0

>  <fr_alkyl_carbamate>  (252) 
0

>  <fr_alkyl_halide>  (252) 
0

>  <fr_allylic_oxid>  (252) 
0

>  <fr_amide>  (252) 
0

>  <fr_amidine>  (252) 
0

>  <fr_aniline>  (252) 
0

>  <fr_aryl_methyl>  (252) 
1

>  <fr_azide>  (252) 
0

>  <fr_azo>  (252) 
0

>  <fr_barbitur>  (252) 
0

>  <fr_benzene>  (252) 
2

>  <fr_benzodiazepine>  (252) 
0

>  <fr_bicyclic>  (252) 
1

>  <fr_diazo>  (252) 
0

>  <fr_dihydropyridine>  (252) 
0

>  <fr_epoxide>  (252) 
0

>  <fr_ester>  (252) 
0

>  <fr_ether>  (252) 
1

>  <fr_furan>  (252) 
0

>  <fr_guanido>  (252) 
0

>  <fr_halogen>  (252) 
0

>  <fr_hdrzine>  (252) 
0

>  <fr_hdrzone>  (252) 
0

>  <fr_imidazole>  (252) 
0

>  <fr_imide>  (252) 
0

>  <fr_isocyan>  (252) 
0

>  <fr_isothiocyan>  (252) 
0

>  <fr_ketone>  (252) 
0

>  <fr_ketone_Topliss>  (252) 
0

>  <fr_lactam>  (252) 
0

>  <fr_lactone>  (252) 
0

>  <fr_methoxy>  (252) 
0

>  <fr_morpholine>  (252) 
0

>  <fr_nitrile>  (252) 
0

>  <fr_nitro>  (252) 
0

>  <fr_nitro_arom>  (252) 
0

>  <fr_nitro_arom_nonortho>  (252) 
0

>  <fr_nitroso>  (252) 
0

>  <fr_oxazole>  (252) 
0

>  <fr_oxime>  (252) 
0

>  <fr_para_hydroxylation>  (252) 
0

>  <fr_phenol>  (252) 
0

>  <fr_phenol_noOrthoHbond>  (252) 
0

>  <fr_phos_acid>  (252) 
0

>  <fr_phos_ester>  (252) 
0

>  <fr_piperdine>  (252) 
0

>  <fr_piperzine>  (252) 
0

>  <fr_priamide>  (252) 
0

>  <fr_prisulfonamd>  (252) 
0

>  <fr_pyridine>  (252) 
1

>  <fr_quatN>  (252) 
1

>  <fr_sulfide>  (252) 
0

>  <fr_sulfonamd>  (252) 
0

>  <fr_sulfone>  (252) 
0

>  <fr_term_acetylene>  (252) 
0

>  <fr_tetrazole>  (252) 
0

>  <fr_thiazole>  (252) 
0

>  <fr_thiocyan>  (252) 
0

>  <fr_thiophene>  (252) 
0

>  <fr_unbrch_alkane>  (252) 
0

>  <fr_urea>  (252) 
0

>  <NP-Likeness>  (252) 
-0.962362

$$$$
SS4
     RDKit          3D

  0  0  0  0  0  0  0  0  0  0999 V3000
M  V30 BEGIN CTAB
M  V30 COUNTS 50 53 0 0 0
M  V30 BEGIN ATOM
M  V30 1 C 0.228281 -1.809224 2.694735 0
M  V30 2 N 0.976346 -1.322478 3.700803 0
M  V30 3 C 1.952217 -0.415284 3.500607 0
M  V30 4 C 2.244912 0.071665 2.247305 0
M  V30 5 C 3.311500 1.058608 2.054710 0
M  V30 6 C 4.450969 1.149953 2.796830 0
M  V30 7 C 5.409154 2.128714 2.534193 0
M  V30 8 C 5.240585 3.049671 1.506067 0
M  V30 9 C 4.090138 2.970208 0.744352 0
M  V30 10 C 3.156727 1.993939 1.022417 0
M  V30 11 C 4.154775 3.979160 -0.199451 0
M  V30 12 C 3.141537 4.292063 -1.246320 0
M  V30 13 N 5.323057 4.625432 0.018380 0
M  V30 14 N 5.968273 4.065505 1.039399 0
M  V30 15 C 1.491592 -0.410809 1.190578 0
M  V30 16 C 0.480675 -1.352873 1.410471 0
M  V30 17 O -0.154126 -1.706150 0.225762 0
M  V30 18 C -1.197222 -2.642027 0.267244 0
M  V30 19 C -1.785232 -2.925081 -1.090292 0 CFG=2
M  V30 20 C -2.936529 -3.868800 -1.053280 0
M  V30 21 C -4.069079 -3.381990 -0.233983 0
M  V30 22 C -4.993411 -2.623437 -0.963230 0
M  V30 23 C -6.122674 -2.079849 -0.370252 0
M  V30 24 C -6.307009 -2.318757 0.995624 0
M  V30 25 Br -7.865760 -1.565416 1.804074 0
M  V30 26 C -5.396702 -3.068869 1.725340 0
M  V30 27 C -4.280821 -3.599052 1.112137 0
M  V30 28 N -0.762253 -3.452020 -1.956836 0 CHG=1 VAL=4
M  V30 29 H -0.565300 -2.523238 2.725838 0
M  V30 30 H 2.509894 -0.071091 4.356496 0
M  V30 31 H 4.582883 0.439666 3.592373 0
M  V30 32 H 6.300637 2.180663 3.133094 0
M  V30 33 H 2.274549 2.007158 0.366286 0
M  V30 34 H 2.796803 5.350199 -1.149660 0
M  V30 35 H 2.225888 3.687880 -1.024904 0
M  V30 36 H 3.452466 4.023328 -2.265021 0
M  V30 37 H 6.900316 4.394549 1.396947 0
M  V30 38 H 1.760130 0.003083 0.222050 0
M  V30 39 H -1.949760 -2.251627 0.975601 0
M  V30 40 H -0.875375 -3.621017 0.693720 0
M  V30 41 H -2.110771 -1.938719 -1.500855 0
M  V30 42 H -2.653647 -4.859241 -0.596822 0
M  V30 43 H -3.252885 -4.114595 -2.081842 0
M  V30 44 H -4.893745 -2.410491 -2.025527 0
M  V30 45 H -6.835844 -1.488140 -0.955795 0
M  V30 46 H -5.555778 -3.244061 2.785440 0
M  V30 47 H -3.535324 -4.186618 1.606511 0
M  V30 48 H -0.236011 -4.240047 -1.492121 0
M  V30 49 H -1.150279 -3.858928 -2.838444 0
M  V30 50 H -0.037244 -2.762952 -2.231483 0
M  V30 END ATOM
M  V30 BEGIN BOND
M  V30 1 2 1 2
M  V30 2 1 2 3
M  V30 3 2 3 4
M  V30 4 1 4 5
M  V30 5 2 5 6
M  V30 6 1 6 7
M  V30 7 2 7 8
M  V30 8 1 8 9
M  V30 9 2 9 10
M  V30 10 1 9 11
M  V30 11 1 11 12
M  V30 12 2 11 13
M  V30 13 1 13 14
M  V30 14 1 4 15
M  V30 15 2 15 16
M  V30 16 1 16 17
M  V30 17 1 17 18
M  V30 18 1 18 19
M  V30 19 1 19 20
M  V30 20 1 20 21
M  V30 21 2 21 22
M  V30 22 1 22 23
M  V30 23 2 23 24
M  V30 24 1 24 25
M  V30 25 1 24 26
M  V30 26 2 26 27
M  V30 27 1 19 28
M  V30 28 1 16 1
M  V30 29 1 27 21
M  V30 30 1 10 5
M  V30 31 1 14 8
M  V30 32 1 1 29
M  V30 33 1 3 30
M  V30 34 1 6 31
M  V30 35 1 7 32
M  V30 36 1 10 33
M  V30 37 1 12 34
M  V30 38 1 12 35
M  V30 39 1 12 36
M  V30 40 1 14 37
M  V30 41 1 15 38
M  V30 42 1 18 39
M  V30 43 1 18 40
M  V30 44 1 19 41 CFG=3
M  V30 45 1 20 42
M  V30 46 1 20 43
M  V30 47 1 22 44
M  V30 48 1 23 45
M  V30 49 1 26 46
M  V30 50 1 27 47
M  V30 51 1 28 48
M  V30 52 1 28 49
M  V30 53 1 28 50
M  V30 END BOND
M  V30 END CTAB
M  END
>  <Dataset>  (253) 
PDB

>  <Ligand_Instance>  (253) 
2UZW_SS4_E_1351

>  <PDB_ID>  (253) 
2UZW

>  <Standardized_SMILES>  (253) 
[H]C1=NC([H])=C(C2=C([H])C([H])=C3C(=C2[H])C(C([H])([H])[H])=NN3[H])C([H])=C1OC([H])([H])[C@]([H])(C([H])([H])C1=C([H])C([H])=C(Br)C([H])=C1[H])[N+]([H])([H])[H]

>  <Name>  (253) 
3-PYRIDIN-4-YL-2,4-DIHYDRO-INDENO[1,2-.C.] PYRAZOLE

>  <Pocket>  (253) 
A

>  <ATP_Site>  (253) 
1.0

>  <Peripheral>  (253) 
0.0

>  <Num_H_Atoms_ProtBoundConf>  (253) 
22.0

>  <Num_Resolved_Atoms>  (253) 
28.0

>  <Num_Not_Resolved_Atoms>  (253) 
0.0

>  <2D_Mol_H>  (253) 
<rdkit.Chem.rdchem.Mol object at 0x72a239100660>

>  <MW>  (253) 
438.349

>  <HBA>  (253) 
3

>  <HBD>  (253) 
2

>  <LogP>  (253) 
3.92782

>  <NRB>  (253) 
8

>  <TPSA>  (253) 
78.44

>  <Num_Heavy_Atoms>  (253) 
28

>  <Ro5>  (253) 
[True, True, True, True, True, True]

>  <Ro5_Fulfilled>  (253) 
True

>  <Ro3>  (253) 
[False, True, True, False]

>  <Ro3_Fulfilled>  (253) 
False

>  <Fsp3>  (253) 
0.181818

>  <Fsp3_0.42>  (253) 
False

>  <Fsp3_0.45>  (253) 
False

>  <Stereogenic_Carbons>  (253) 
1

>  <C_Atoms>  (253) 
22

>  <FCStereo>  (253) 
0.045455

>  <SPS>  (253) 
343

>  <nSPS>  (253) 
12.25

>  <PBF>  (253) 
1.01293

>  <PBF_0.6>  (253) 
True

>  <nPBF>  (253) 
0.036176

>  <nPBF_0.016>  (253) 
True

>  <PMI1>  (253) 
2004.674843

>  <PMI2>  (253) 
12341.200881

>  <PMI3>  (253) 
12601.91499

>  <NPR1>  (253) 
0.159077

>  <NPR2>  (253) 
0.979312

>  <Sum_NPR>  (253) 
1.138389

>  <Sum_NPR_1.07>  (253) 
True

>  <Sum_NPR_1.2>  (253) 
False

>  <MaxAbsEStateIndex>  (253) 
5.96931

>  <MaxEStateIndex>  (253) 
5.96931

>  <MinAbsEStateIndex>  (253) 
0.161816

>  <MinEStateIndex>  (253) 
0.161816

>  <qed>  (253) 
0.479027

>  <MolWt>  (253) 
438.349

>  <HeavyAtomMolWt>  (253) 
416.173

>  <ExactMolWt>  (253) 
437.09715

>  <NumValenceElectrons>  (253) 
142

>  <NumRadicalElectrons>  (253) 
0

>  <MaxPartialCharge>  (253) 
0.140112

>  <MinPartialCharge>  (253) 
-0.485747

>  <MaxAbsPartialCharge>  (253) 
0.485747

>  <MinAbsPartialCharge>  (253) 
0.140112

>  <FpDensityMorgan1>  (253) 
1.071429

>  <FpDensityMorgan2>  (253) 
1.892857

>  <FpDensityMorgan3>  (253) 
2.714286

>  <BCUT2D_MWHI>  (253) 
79.918731

>  <BCUT2D_MWLOW>  (253) 
10.04757

>  <BCUT2D_CHGHI>  (253) 
2.103203

>  <BCUT2D_CHGLO>  (253) 
-2.115822

>  <BCUT2D_LOGPHI>  (253) 
2.265815

>  <BCUT2D_LOGPLOW>  (253) 
-2.641659

>  <BCUT2D_MRHI>  (253) 
9.102997

>  <BCUT2D_MRLOW>  (253) 
-0.422719

>  <AvgIpc>  (253) 
3.086531

>  <BalabanJ>  (253) 
1.439279

>  <BertzCT>  (253) 
1091.351078

>  <Chi0>  (253) 
19.509861

>  <Chi0n>  (253) 
15.652813

>  <Chi0v>  (253) 
17.23881

>  <Chi1>  (253) 
13.58052

>  <Chi1n>  (253) 
9.187793

>  <Chi1v>  (253) 
9.980791

>  <Chi2n>  (253) 
6.986318

>  <Chi2v>  (253) 
7.901994

>  <Chi3n>  (253) 
4.723244

>  <Chi3v>  (253) 
5.25191

>  <Chi4n>  (253) 
3.207408

>  <Chi4v>  (253) 
3.471741

>  <HallKierAlpha>  (253) 
-2.7

>  <Ipc>  (253) 
3547090.371751

>  <Kappa1>  (253) 
18.653494

>  <Kappa2>  (253) 
8.122842

>  <Kappa3>  (253) 
4.236062

>  <LabuteASA>  (253) 
171.624918

>  <PEOE_VSA1>  (253) 
10.47053

>  <PEOE_VSA10>  (253) 
18.398235

>  <PEOE_VSA11>  (253) 
0.0

>  <PEOE_VSA12>  (253) 
0.0

>  <PEOE_VSA13>  (253) 
0.0

>  <PEOE_VSA14>  (253) 
0.0

>  <PEOE_VSA2>  (253) 
10.08266

>  <PEOE_VSA3>  (253) 
0.0

>  <PEOE_VSA4>  (253) 
5.098682

>  <PEOE_VSA5>  (253) 
0.0

>  <PEOE_VSA6>  (253) 
34.129045

>  <PEOE_VSA7>  (253) 
48.382476

>  <PEOE_VSA8>  (253) 
28.04006

>  <PEOE_VSA9>  (253) 
17.407472

>  <SMR_VSA1>  (253) 
10.47053

>  <SMR_VSA10>  (253) 
26.832869

>  <SMR_VSA2>  (253) 
0.0

>  <SMR_VSA3>  (253) 
15.181342

>  <SMR_VSA4>  (253) 
0.0

>  <SMR_VSA5>  (253) 
19.3864

>  <SMR_VSA6>  (253) 
6.606882

>  <SMR_VSA7>  (253) 
76.654723

>  <SMR_VSA8>  (253) 
0.0

>  <SMR_VSA9>  (253) 
16.876415

>  <SlogP_VSA1>  (253) 
10.47053

>  <SlogP_VSA10>  (253) 
0.0

>  <SlogP_VSA11>  (253) 
5.749512

>  <SlogP_VSA12>  (253) 
15.929944

>  <SlogP_VSA2>  (253) 
27.830065

>  <SlogP_VSA3>  (253) 
6.420822

>  <SlogP_VSA4>  (253) 
6.923737

>  <SlogP_VSA5>  (253) 
11.257379

>  <SlogP_VSA6>  (253) 
65.397343

>  <SlogP_VSA7>  (253) 
0.0

>  <SlogP_VSA8>  (253) 
22.029828

>  <SlogP_VSA9>  (253) 
0.0

>  <EState_VSA1>  (253) 
0.0

>  <EState_VSA10>  (253) 
0.0

>  <EState_VSA11>  (253) 
0.0

>  <EState_VSA2>  (253) 
6.041841

>  <EState_VSA3>  (253) 
6.606882

>  <EState_VSA4>  (253) 
44.366809

>  <EState_VSA5>  (253) 
5.563451

>  <EState_VSA6>  (253) 
6.196844

>  <EState_VSA7>  (253) 
25.253315

>  <EState_VSA8>  (253) 
73.243156

>  <EState_VSA9>  (253) 
4.736863

>  <VSA_EState1>  (253) 
7.052461

>  <VSA_EState10>  (253) 
3.461308

>  <VSA_EState2>  (253) 
4.348742

>  <VSA_EState3>  (253) 
8.416339

>  <VSA_EState4>  (253) 
9.61668

>  <VSA_EState5>  (253) 
0.755527

>  <VSA_EState6>  (253) 
16.749189

>  <VSA_EState7>  (253) 
4.473475

>  <VSA_EState8>  (253) 
2.542946

>  <VSA_EState9>  (253) 
0.0

>  <FractionCSP3>  (253) 
0.181818

>  <HeavyAtomCount>  (253) 
28

>  <NHOHCount>  (253) 
4

>  <NOCount>  (253) 
5

>  <NumAliphaticCarbocycles>  (253) 
0

>  <NumAliphaticHeterocycles>  (253) 
0

>  <NumAliphaticRings>  (253) 
0

>  <NumAromaticCarbocycles>  (253) 
2

>  <NumAromaticHeterocycles>  (253) 
2

>  <NAR>  (253) 
4

>  <NumHAcceptors>  (253) 
3

>  <NumHDonors>  (253) 
2

>  <NumHeteroatoms>  (253) 
6

>  <NumRotatableBonds>  (253) 
6

>  <NumSaturatedCarbocycles>  (253) 
0

>  <NumSaturatedHeterocycles>  (253) 
0

>  <NumSaturatedRings>  (253) 
0

>  <RingCount>  (253) 
4

>  <MolLogP>  (253) 
3.92782

>  <MolMR>  (253) 
114.0788

>  <fr_Al_COO>  (253) 
0

>  <fr_Al_OH>  (253) 
0

>  <fr_Al_OH_noTert>  (253) 
0

>  <fr_ArN>  (253) 
0

>  <fr_Ar_COO>  (253) 
0

>  <fr_Ar_N>  (253) 
3

>  <fr_Ar_NH>  (253) 
1

>  <fr_Ar_OH>  (253) 
0

>  <fr_COO>  (253) 
0

>  <fr_COO2>  (253) 
0

>  <fr_C_O>  (253) 
0

>  <fr_C_O_noCOO>  (253) 
0

>  <fr_C_S>  (253) 
0

>  <fr_HOCCN>  (253) 
0

>  <fr_Imine>  (253) 
0

>  <fr_NH0>  (253) 
2

>  <fr_NH1>  (253) 
1

>  <fr_NH2>  (253) 
0

>  <fr_N_O>  (253) 
0

>  <fr_Ndealkylation1>  (253) 
0

>  <fr_Ndealkylation2>  (253) 
0

>  <fr_Nhpyrrole>  (253) 
1

>  <fr_SH>  (253) 
0

>  <fr_aldehyde>  (253) 
0

>  <fr_alkyl_carbamate>  (253) 
0

>  <fr_alkyl_halide>  (253) 
0

>  <fr_allylic_oxid>  (253) 
0

>  <fr_amide>  (253) 
0

>  <fr_amidine>  (253) 
0

>  <fr_aniline>  (253) 
0

>  <fr_aryl_methyl>  (253) 
1

>  <fr_azide>  (253) 
0

>  <fr_azo>  (253) 
0

>  <fr_barbitur>  (253) 
0

>  <fr_benzene>  (253) 
2

>  <fr_benzodiazepine>  (253) 
0

>  <fr_bicyclic>  (253) 
1

>  <fr_diazo>  (253) 
0

>  <fr_dihydropyridine>  (253) 
0

>  <fr_epoxide>  (253) 
0

>  <fr_ester>  (253) 
0

>  <fr_ether>  (253) 
1

>  <fr_furan>  (253) 
0

>  <fr_guanido>  (253) 
0

>  <fr_halogen>  (253) 
1

>  <fr_hdrzine>  (253) 
0

>  <fr_hdrzone>  (253) 
0

>  <fr_imidazole>  (253) 
0

>  <fr_imide>  (253) 
0

>  <fr_isocyan>  (253) 
0

>  <fr_isothiocyan>  (253) 
0

>  <fr_ketone>  (253) 
0

>  <fr_ketone_Topliss>  (253) 
0

>  <fr_lactam>  (253) 
0

>  <fr_lactone>  (253) 
0

>  <fr_methoxy>  (253) 
0

>  <fr_morpholine>  (253) 
0

>  <fr_nitrile>  (253) 
0

>  <fr_nitro>  (253) 
0

>  <fr_nitro_arom>  (253) 
0

>  <fr_nitro_arom_nonortho>  (253) 
0

>  <fr_nitroso>  (253) 
0

>  <fr_oxazole>  (253) 
0

>  <fr_oxime>  (253) 
0

>  <fr_para_hydroxylation>  (253) 
0

>  <fr_phenol>  (253) 
0

>  <fr_phenol_noOrthoHbond>  (253) 
0

>  <fr_phos_acid>  (253) 
0

>  <fr_phos_ester>  (253) 
0

>  <fr_piperdine>  (253) 
0

>  <fr_piperzine>  (253) 
0

>  <fr_priamide>  (253) 
0

>  <fr_prisulfonamd>  (253) 
0

>  <fr_pyridine>  (253) 
1

>  <fr_quatN>  (253) 
1

>  <fr_sulfide>  (253) 
0

>  <fr_sulfonamd>  (253) 
0

>  <fr_sulfone>  (253) 
0

>  <fr_term_acetylene>  (253) 
0

>  <fr_tetrazole>  (253) 
0

>  <fr_thiazole>  (253) 
0

>  <fr_thiocyan>  (253) 
0

>  <fr_thiophene>  (253) 
0

>  <fr_unbrch_alkane>  (253) 
0

>  <fr_urea>  (253) 
0

>  <NP-Likeness>  (253) 
-1.019966

$$$$
SS5
     RDKit          3D

  0  0  0  0  0  0  0  0  0  0999 V3000
M  V30 BEGIN CTAB
M  V30 COUNTS 70 74 0 0 0
M  V30 BEGIN ATOM
M  V30 1 C -2.436007 -0.931308 4.623844 0
M  V30 2 N -1.636758 -0.546612 5.622914 0
M  V30 3 C -0.364540 -0.207093 5.347202 0
M  V30 4 C 0.193385 -0.226313 4.076014 0
M  V30 5 C 1.581406 0.154256 3.830750 0
M  V30 6 C 2.221886 1.114379 4.596088 0
M  V30 7 C 3.531203 1.425772 4.312294 0
M  V30 8 C 4.222017 0.809178 3.288612 0
M  V30 9 C 3.565570 -0.150573 2.531375 0
M  V30 10 C 2.240952 -0.484285 2.797433 0
M  V30 11 C 4.471358 -0.598590 1.592416 0
M  V30 12 C 4.207991 -1.621421 0.574858 0
M  V30 13 N 5.611105 0.072127 1.792833 0
M  V30 14 N 5.481030 0.918251 2.802841 0
M  V30 15 C -0.665692 -0.632755 3.050979 0
M  V30 16 C -1.990597 -0.989902 3.314473 0
M  V30 17 O -2.636550 -1.350645 2.165760 0
M  V30 18 C -3.955219 -1.763049 2.032760 0
M  V30 19 C -4.354139 -2.087437 0.622100 0 CFG=2
M  V30 20 C -3.656357 -3.299633 0.050112 0
M  V30 21 C -2.184275 -3.143090 0.023635 0
M  V30 22 C -1.423364 -3.567733 1.091383 0
M  V30 23 C -0.048220 -3.406360 1.038969 0
M  V30 24 C 0.511763 -2.816678 -0.099999 0
M  V30 25 C -0.271897 -2.386440 -1.183895 0
M  V30 26 O 0.590814 -1.868059 -2.107581 0
M  V30 27 C 0.396235 -1.298601 -3.338881 0
M  V30 28 C -0.434825 -0.039627 -3.297063 0
M  V30 29 C 0.294454 0.951604 -2.412538 0
M  V30 30 C -0.387537 2.280560 -2.342265 0
M  V30 31 C -0.908495 2.754868 -3.661522 0
M  V30 32 C -0.106485 2.005747 -4.731112 0
M  V30 33 C -0.549932 0.560733 -4.682442 0
M  V30 34 C -1.630480 -2.573650 -1.074132 0
M  V30 35 N -4.216974 -0.980823 -0.297438 0 CHG=1 VAL=4
M  V30 36 H -3.458852 -1.222479 4.721965 0
M  V30 37 H 0.246453 0.097454 6.180458 0
M  V30 38 H 1.671644 1.596748 5.401388 0
M  V30 39 H 4.067303 2.164011 4.879764 0
M  V30 40 H 1.776340 -1.237854 2.177967 0
M  V30 41 H 3.800419 -2.531987 1.058468 0
M  V30 42 H 5.126638 -1.890342 0.016233 0
M  V30 43 H 3.504065 -1.191376 -0.176147 0
M  V30 44 H 6.188436 1.592592 3.216282 0
M  V30 45 H -0.179326 -0.630006 2.075474 0
M  V30 46 H -4.134818 -2.668098 2.634540 0
M  V30 47 H -4.708172 -1.003585 2.384840 0
M  V30 48 H -5.454997 -2.354531 0.572964 0
M  V30 49 H -3.895600 -4.144680 0.736247 0
M  V30 50 H -4.071857 -3.513102 -0.949987 0
M  V30 51 H -1.942844 -4.011002 1.927405 0
M  V30 52 H 0.457397 -3.762864 1.906425 0
M  V30 53 H 1.603862 -2.779399 0.051151 0
M  V30 54 H 0.001278 -2.021099 -4.098398 0
M  V30 55 H 1.412170 -0.954103 -3.705424 0
M  V30 56 H -1.444904 -0.251828 -2.960624 0
M  V30 57 H 1.324929 1.037852 -2.784759 0
M  V30 58 H 0.349022 0.565351 -1.373051 0
M  V30 59 H 0.375748 3.029032 -2.002402 0
M  V30 60 H -1.167709 2.317098 -1.533709 0
M  V30 61 H -1.999719 2.501007 -3.755694 0
M  V30 62 H -0.746595 3.836809 -3.782198 0
M  V30 63 H -0.374969 2.454598 -5.691990 0
M  V30 64 H 0.966964 2.119760 -4.473036 0
M  V30 65 H -1.593450 0.545795 -5.059880 0
M  V30 66 H 0.127750 -0.000005 -5.353581 0
M  V30 67 H -2.134827 -2.227528 -1.938391 0
M  V30 68 H -4.506930 -1.366499 -1.236861 0
M  V30 69 H -4.905113 -0.208499 -0.095862 0
M  V30 70 H -3.260797 -0.598360 -0.301852 0
M  V30 END ATOM
M  V30 BEGIN BOND
M  V30 1 2 1 2
M  V30 2 1 2 3
M  V30 3 2 3 4
M  V30 4 1 4 5
M  V30 5 2 5 6
M  V30 6 1 6 7
M  V30 7 2 7 8
M  V30 8 1 8 9
M  V30 9 2 9 10
M  V30 10 1 9 11
M  V30 11 1 11 12
M  V30 12 2 11 13
M  V30 13 1 13 14
M  V30 14 1 4 15
M  V30 15 2 15 16
M  V30 16 1 16 17
M  V30 17 1 17 18
M  V30 18 1 18 19
M  V30 19 1 19 20
M  V30 20 1 20 21
M  V30 21 2 21 22
M  V30 22 1 22 23
M  V30 23 2 23 24
M  V30 24 1 24 25
M  V30 25 1 25 26
M  V30 26 1 26 27
M  V30 27 1 27 28
M  V30 28 1 28 29
M  V30 29 1 29 30
M  V30 30 1 30 31
M  V30 31 1 31 32
M  V30 32 1 32 33
M  V30 33 2 25 34
M  V30 34 1 19 35
M  V30 35 1 16 1
M  V30 36 1 34 21
M  V30 37 1 10 5
M  V30 38 1 33 28
M  V30 39 1 14 8
M  V30 40 1 1 36
M  V30 41 1 3 37
M  V30 42 1 6 38
M  V30 43 1 7 39
M  V30 44 1 10 40
M  V30 45 1 12 41
M  V30 46 1 12 42
M  V30 47 1 12 43
M  V30 48 1 14 44
M  V30 49 1 15 45
M  V30 50 1 18 46
M  V30 51 1 18 47
M  V30 52 1 19 48 CFG=1
M  V30 53 1 20 49
M  V30 54 1 20 50
M  V30 55 1 22 51
M  V30 56 1 23 52
M  V30 57 1 24 53
M  V30 58 1 27 54
M  V30 59 1 27 55
M  V30 60 1 28 56
M  V30 61 1 29 57
M  V30 62 1 29 58
M  V30 63 1 30 59
M  V30 64 1 30 60
M  V30 65 1 31 61
M  V30 66 1 31 62
M  V30 67 1 32 63
M  V30 68 1 32 64
M  V30 69 1 33 65
M  V30 70 1 33 66
M  V30 71 1 34 67
M  V30 72 1 35 68
M  V30 73 1 35 69
M  V30 74 1 35 70
M  V30 END BOND
M  V30 END CTAB
M  END
>  <Dataset>  (254) 
PDB

>  <Ligand_Instance>  (254) 
2UZV_SS5_A_1351

>  <PDB_ID>  (254) 
2UZV

>  <Standardized_SMILES>  (254) 
[H]C1=NC([H])=C(C2=C([H])C([H])=C3C(=C2[H])C(C([H])([H])[H])=NN3[H])C([H])=C1OC([H])([H])[C@]([H])(C([H])([H])C1=C([H])C([H])=C([H])C(OC([H])([H])C2([H])C([H])([H])C([H])([H])C([H])([H])C([H])([H])C2([H])[H])=C1[H])[N+]([H])([H])[H]

>  <Name>  (254) 
(2S)-1-[3-(CYCLOHEXYLMETHOXY)PHENYL]-3-{[5-(3-METHYL-1H-INDAZOL-5-YL)PYRIDIN-3-YL]OXY}PROPAN-2-AMINE

>  <Pocket>  (254) 
A

>  <ATP_Site>  (254) 
1.0

>  <Peripheral>  (254) 
0.0

>  <Num_H_Atoms_ProtBoundConf>  (254) 
35.0

>  <Num_Resolved_Atoms>  (254) 
35.0

>  <Num_Not_Resolved_Atoms>  (254) 
0.0

>  <2D_Mol_H>  (254) 
<rdkit.Chem.rdchem.Mol object at 0x72a239100740>

>  <MW>  (254) 
471.625

>  <HBA>  (254) 
4

>  <HBD>  (254) 
2

>  <LogP>  (254) 
5.12442

>  <NRB>  (254) 
11

>  <TPSA>  (254) 
87.67

>  <Num_Heavy_Atoms>  (254) 
35

>  <Ro5>  (254) 
[True, True, True, False, False, True]

>  <Ro5_Fulfilled>  (254) 
False

>  <Ro3>  (254) 
[False, False, True, False]

>  <Ro3_Fulfilled>  (254) 
False

>  <Fsp3>  (254) 
0.37931

>  <Fsp3_0.42>  (254) 
False

>  <Fsp3_0.45>  (254) 
False

>  <Stereogenic_Carbons>  (254) 
1

>  <C_Atoms>  (254) 
29

>  <FCStereo>  (254) 
0.034483

>  <SPS>  (254) 
534

>  <nSPS>  (254) 
15.257143

>  <PBF>  (254) 
1.39768

>  <PBF_0.6>  (254) 
True

>  <nPBF>  (254) 
0.039934

>  <nPBF_0.016>  (254) 
True

>  <PMI1>  (254) 
4309.84308

>  <PMI2>  (254) 
5504.815556

>  <PMI3>  (254) 
7855.906626

>  <NPR1>  (254) 
0.548612

>  <NPR2>  (254) 
0.700723

>  <Sum_NPR>  (254) 
1.249335

>  <Sum_NPR_1.07>  (254) 
True

>  <Sum_NPR_1.2>  (254) 
True

>  <MaxAbsEStateIndex>  (254) 
6.115341

>  <MaxEStateIndex>  (254) 
6.115341

>  <MinAbsEStateIndex>  (254) 
0.12239

>  <MinEStateIndex>  (254) 
0.12239

>  <qed>  (254) 
0.354455

>  <MolWt>  (254) 
471.625

>  <HeavyAtomMolWt>  (254) 
436.345

>  <ExactMolWt>  (254) 
471.275453

>  <NumValenceElectrons>  (254) 
182

>  <NumRadicalElectrons>  (254) 
0

>  <MaxPartialCharge>  (254) 
0.140112

>  <MinPartialCharge>  (254) 
-0.493302

>  <MaxAbsPartialCharge>  (254) 
0.493302

>  <MinAbsPartialCharge>  (254) 
0.140112

>  <FpDensityMorgan1>  (254) 
0.971429

>  <FpDensityMorgan2>  (254) 
1.857143

>  <FpDensityMorgan3>  (254) 
2.742857

>  <BCUT2D_MWHI>  (254) 
16.480723

>  <BCUT2D_MWLOW>  (254) 
9.899229

>  <BCUT2D_CHGHI>  (254) 
2.147782

>  <BCUT2D_CHGLO>  (254) 
-2.214145

>  <BCUT2D_LOGPHI>  (254) 
2.273757

>  <BCUT2D_LOGPLOW>  (254) 
-2.641673

>  <BCUT2D_MRHI>  (254) 
5.859664

>  <BCUT2D_MRLOW>  (254) 
-0.422719

>  <AvgIpc>  (254) 
3.270752

>  <BalabanJ>  (254) 
1.15888

>  <BertzCT>  (254) 
1262.524118

>  <Chi0>  (254) 
24.036959

>  <Chi0n>  (254) 
20.503088

>  <Chi0v>  (254) 
20.503088

>  <Chi1>  (254) 
17.136163

>  <Chi1n>  (254) 
12.716355

>  <Chi1v>  (254) 
12.716355

>  <Chi2n>  (254) 
9.822297

>  <Chi2v>  (254) 
9.822297

>  <Chi3n>  (254) 
6.918881

>  <Chi3v>  (254) 
6.918881

>  <Chi4n>  (254) 
4.917047

>  <Chi4v>  (254) 
4.917047

>  <HallKierAlpha>  (254) 
-3.38

>  <Ipc>  (254) 
156028516.540848

>  <Kappa1>  (254) 
23.366002

>  <Kappa2>  (254) 
10.91093

>  <Kappa3>  (254) 
6.006349

>  <LabuteASA>  (254) 
206.419679

>  <PEOE_VSA1>  (254) 
15.207393

>  <PEOE_VSA10>  (254) 
24.147746

>  <PEOE_VSA11>  (254) 
0.0

>  <PEOE_VSA12>  (254) 
0.0

>  <PEOE_VSA13>  (254) 
0.0

>  <PEOE_VSA14>  (254) 
0.0

>  <PEOE_VSA2>  (254) 
10.08266

>  <PEOE_VSA3>  (254) 
0.0

>  <PEOE_VSA4>  (254) 
5.098682

>  <PEOE_VSA5>  (254) 
0.0

>  <PEOE_VSA6>  (254) 
37.461566

>  <PEOE_VSA7>  (254) 
67.142025

>  <PEOE_VSA8>  (254) 
23.567341

>  <PEOE_VSA9>  (254) 
24.014354

>  <SMR_VSA1>  (254) 
15.207393

>  <SMR_VSA10>  (254) 
10.902925

>  <SMR_VSA2>  (254) 
0.0

>  <SMR_VSA3>  (254) 
15.181342

>  <SMR_VSA4>  (254) 
5.917906

>  <SMR_VSA5>  (254) 
51.490508

>  <SMR_VSA6>  (254) 
13.213764

>  <SMR_VSA7>  (254) 
72.182003

>  <SMR_VSA8>  (254) 
0.0

>  <SMR_VSA9>  (254) 
22.625927

>  <SlogP_VSA1>  (254) 
15.207393

>  <SlogP_VSA10>  (254) 
0.0

>  <SlogP_VSA11>  (254) 
11.499024

>  <SlogP_VSA12>  (254) 
0.0

>  <SlogP_VSA2>  (254) 
34.436947

>  <SlogP_VSA3>  (254) 
6.420822

>  <SlogP_VSA4>  (254) 
12.841643

>  <SlogP_VSA5>  (254) 
43.361488

>  <SlogP_VSA6>  (254) 
60.924624

>  <SlogP_VSA7>  (254) 
0.0

>  <SlogP_VSA8>  (254) 
22.029828

>  <SlogP_VSA9>  (254) 
0.0

>  <EState_VSA1>  (254) 
0.0

>  <EState_VSA10>  (254) 
0.0

>  <EState_VSA11>  (254) 
0.0

>  <EState_VSA2>  (254) 
6.041841

>  <EState_VSA3>  (254) 
12.524788

>  <EState_VSA4>  (254) 
52.250483

>  <EState_VSA5>  (254) 
37.66756

>  <EState_VSA6>  (254) 
6.196844

>  <EState_VSA7>  (254) 
19.186948

>  <EState_VSA8>  (254) 
63.379579

>  <EState_VSA9>  (254) 
9.473726

>  <VSA_EState1>  (254) 
12.196014

>  <VSA_EState10>  (254) 
0.0

>  <VSA_EState2>  (254) 
4.39823

>  <VSA_EState3>  (254) 
8.460672

>  <VSA_EState4>  (254) 
9.69023

>  <VSA_EState5>  (254) 
2.420412

>  <VSA_EState6>  (254) 
16.853018

>  <VSA_EState7>  (254) 
11.117976

>  <VSA_EState8>  (254) 
3.363449

>  <VSA_EState9>  (254) 
0.0

>  <FractionCSP3>  (254) 
0.37931

>  <HeavyAtomCount>  (254) 
35

>  <NHOHCount>  (254) 
4

>  <NOCount>  (254) 
6

>  <NumAliphaticCarbocycles>  (254) 
1

>  <NumAliphaticHeterocycles>  (254) 
0

>  <NumAliphaticRings>  (254) 
1

>  <NumAromaticCarbocycles>  (254) 
2

>  <NumAromaticHeterocycles>  (254) 
2

>  <NAR>  (254) 
4

>  <NumHAcceptors>  (254) 
4

>  <NumHDonors>  (254) 
2

>  <NumHeteroatoms>  (254) 
6

>  <NumRotatableBonds>  (254) 
9

>  <NumSaturatedCarbocycles>  (254) 
1

>  <NumSaturatedHeterocycles>  (254) 
0

>  <NumSaturatedRings>  (254) 
1

>  <RingCount>  (254) 
5

>  <MolLogP>  (254) 
5.12442

>  <MolMR>  (254) 
138.4488

>  <fr_Al_COO>  (254) 
0

>  <fr_Al_OH>  (254) 
0

>  <fr_Al_OH_noTert>  (254) 
0

>  <fr_ArN>  (254) 
0

>  <fr_Ar_COO>  (254) 
0

>  <fr_Ar_N>  (254) 
3

>  <fr_Ar_NH>  (254) 
1

>  <fr_Ar_OH>  (254) 
0

>  <fr_COO>  (254) 
0

>  <fr_COO2>  (254) 
0

>  <fr_C_O>  (254) 
0

>  <fr_C_O_noCOO>  (254) 
0

>  <fr_C_S>  (254) 
0

>  <fr_HOCCN>  (254) 
0

>  <fr_Imine>  (254) 
0

>  <fr_NH0>  (254) 
2

>  <fr_NH1>  (254) 
1

>  <fr_NH2>  (254) 
0

>  <fr_N_O>  (254) 
0

>  <fr_Ndealkylation1>  (254) 
0

>  <fr_Ndealkylation2>  (254) 
0

>  <fr_Nhpyrrole>  (254) 
1

>  <fr_SH>  (254) 
0

>  <fr_aldehyde>  (254) 
0

>  <fr_alkyl_carbamate>  (254) 
0

>  <fr_alkyl_halide>  (254) 
0

>  <fr_allylic_oxid>  (254) 
0

>  <fr_amide>  (254) 
0

>  <fr_amidine>  (254) 
0

>  <fr_aniline>  (254) 
0

>  <fr_aryl_methyl>  (254) 
1

>  <fr_azide>  (254) 
0

>  <fr_azo>  (254) 
0

>  <fr_barbitur>  (254) 
0

>  <fr_benzene>  (254) 
2

>  <fr_benzodiazepine>  (254) 
0

>  <fr_bicyclic>  (254) 
1

>  <fr_diazo>  (254) 
0

>  <fr_dihydropyridine>  (254) 
0

>  <fr_epoxide>  (254) 
0

>  <fr_ester>  (254) 
0

>  <fr_ether>  (254) 
2

>  <fr_furan>  (254) 
0

>  <fr_guanido>  (254) 
0

>  <fr_halogen>  (254) 
0

>  <fr_hdrzine>  (254) 
0

>  <fr_hdrzone>  (254) 
0

>  <fr_imidazole>  (254) 
0

>  <fr_imide>  (254) 
0

>  <fr_isocyan>  (254) 
0

>  <fr_isothiocyan>  (254) 
0

>  <fr_ketone>  (254) 
0

>  <fr_ketone_Topliss>  (254) 
0

>  <fr_lactam>  (254) 
0

>  <fr_lactone>  (254) 
0

>  <fr_methoxy>  (254) 
0

>  <fr_morpholine>  (254) 
0

>  <fr_nitrile>  (254) 
0

>  <fr_nitro>  (254) 
0

>  <fr_nitro_arom>  (254) 
0

>  <fr_nitro_arom_nonortho>  (254) 
0

>  <fr_nitroso>  (254) 
0

>  <fr_oxazole>  (254) 
0

>  <fr_oxime>  (254) 
0

>  <fr_para_hydroxylation>  (254) 
0

>  <fr_phenol>  (254) 
0

>  <fr_phenol_noOrthoHbond>  (254) 
0

>  <fr_phos_acid>  (254) 
0

>  <fr_phos_ester>  (254) 
0

>  <fr_piperdine>  (254) 
0

>  <fr_piperzine>  (254) 
0

>  <fr_priamide>  (254) 
0

>  <fr_prisulfonamd>  (254) 
0

>  <fr_pyridine>  (254) 
1

>  <fr_quatN>  (254) 
1

>  <fr_sulfide>  (254) 
0

>  <fr_sulfonamd>  (254) 
0

>  <fr_sulfone>  (254) 
0

>  <fr_term_acetylene>  (254) 
0

>  <fr_tetrazole>  (254) 
0

>  <fr_thiazole>  (254) 
0

>  <fr_thiocyan>  (254) 
0

>  <fr_thiophene>  (254) 
0

>  <fr_unbrch_alkane>  (254) 
0

>  <fr_urea>  (254) 
0

>  <NP-Likeness>  (254) 
-0.907711

$$$$
STU
     RDKit          3D

  0  0  0  0  0  0  0  0  0  0999 V3000
M  V30 BEGIN CTAB
M  V30 COUNTS 62 69 0 0 0
M  V30 BEGIN ATOM
M  V30 1 C -5.720375 -1.672273 1.082646 0
M  V30 2 C -5.070978 -2.895293 1.250274 0
M  V30 3 C -3.692109 -2.901294 1.295857 0
M  V30 4 C -2.984295 -1.726161 1.178122 0
M  V30 5 C -3.581858 -0.498072 1.011582 0
M  V30 6 C -4.942247 -0.542438 0.972637 0
M  V30 7 C -2.561883 0.401199 0.936976 0
M  V30 8 C -1.370542 -0.272285 1.057396 0
M  V30 9 C -0.156709 0.384696 1.005815 0
M  V30 10 C -0.192070 1.729295 0.825945 0
M  V30 11 C 1.113995 2.123103 0.804347 0
M  V30 12 C 1.715055 3.350292 0.646510 0
M  V30 13 C 3.086288 3.460854 0.654634 0
M  V30 14 C 3.849473 2.304004 0.825671 0
M  V30 15 C 3.223155 1.101313 0.979644 0
M  V30 16 C 1.862236 0.981043 0.973832 0
M  V30 17 N 1.116915 -0.113151 1.104719 0
M  V30 18 C 1.445974 -1.508002 1.335046 0 CFG=1
M  V30 19 C 2.615116 -1.553500 2.337787 0
M  V30 20 O 0.429780 -2.163614 2.021505 0
M  V30 21 C -0.621388 -2.641955 1.340301 0 CFG=1
M  V30 22 N -1.626531 -1.584667 1.205108 0
M  V30 23 C -0.313185 -3.231837 -0.008746 0
M  V30 24 C 1.164386 -3.557507 -0.034911 0 CFG=1
M  V30 25 N 1.479989 -4.236054 -1.251285 0 CHG=1 VAL=4
M  V30 26 C 0.687240 -5.466514 -1.260163 0
M  V30 27 C 1.871014 -2.209500 0.065416 0 CFG=1
M  V30 28 O 1.445612 -1.507025 -1.081226 0
M  V30 29 C 2.469668 -1.209151 -1.951252 0
M  V30 30 C -1.376954 2.415224 0.703866 0
M  V30 31 C -2.576959 1.748096 0.759909 0
M  V30 32 C -3.611406 2.720513 0.605387 0
M  V30 33 O -4.843708 2.694959 0.576569 0
M  V30 34 N -3.041270 4.007160 0.451604 0
M  V30 35 C -1.579990 3.881741 0.504890 0
M  V30 36 H -6.798406 -1.666416 1.046881 0
M  V30 37 H -5.652842 -3.801958 1.339935 0
M  V30 38 H -3.186904 -3.847318 1.425610 0
M  V30 39 H -5.502291 0.350680 0.847507 0
M  V30 40 H 1.098651 4.246704 0.513331 0
M  V30 41 H 3.580227 4.418463 0.532132 0
M  V30 42 H 4.943300 2.377044 0.834063 0
M  V30 43 H 3.830961 0.247424 1.093809 0
M  V30 44 H 2.691306 -0.629898 2.933607 0
M  V30 45 H 2.423212 -2.341134 3.141117 0
M  V30 46 H 3.545119 -1.918695 1.879180 0
M  V30 47 H -1.077015 -3.469901 1.960675 0
M  V30 48 H -0.958918 -4.095585 -0.247506 0
M  V30 49 H -0.561472 -2.442174 -0.776130 0
M  V30 50 H 1.380043 -4.229198 0.803243 0
M  V30 51 H 2.474169 -4.535972 -1.205022 0
M  V30 52 H 1.232626 -3.732925 -2.114192 0
M  V30 53 H 1.215351 -6.299234 -1.789406 0
M  V30 54 H -0.279211 -5.344576 -1.800514 0
M  V30 55 H 0.512486 -5.837783 -0.218015 0
M  V30 56 H 2.968036 -2.394663 0.053898 0
M  V30 57 H 2.087195 -0.648386 -2.853015 0
M  V30 58 H 3.262505 -0.553158 -1.524978 0
M  V30 59 H 3.034607 -2.123667 -2.290766 0
M  V30 60 H -3.418933 4.968207 0.316448 0
M  V30 61 H -1.207264 4.205988 -0.484162 0
M  V30 62 H -1.149159 4.462692 1.339568 0
M  V30 END ATOM
M  V30 BEGIN BOND
M  V30 1 2 1 2
M  V30 2 1 2 3
M  V30 3 2 3 4
M  V30 4 1 4 5
M  V30 5 2 5 6
M  V30 6 1 5 7
M  V30 7 2 7 8
M  V30 8 1 8 9
M  V30 9 2 9 10
M  V30 10 1 10 11
M  V30 11 2 11 12
M  V30 12 1 12 13
M  V30 13 2 13 14
M  V30 14 1 14 15
M  V30 15 2 15 16
M  V30 16 1 16 17
M  V30 17 1 17 18
M  V30 18 1 18 19 CFG=1
M  V30 19 1 18 20
M  V30 20 1 20 21
M  V30 21 1 21 22
M  V30 22 1 21 23
M  V30 23 1 23 24
M  V30 24 1 24 25
M  V30 25 1 25 26
M  V30 26 1 24 27
M  V30 27 1 27 28
M  V30 28 1 28 29
M  V30 29 1 10 30
M  V30 30 2 30 31
M  V30 31 1 31 32
M  V30 32 2 32 33
M  V30 33 1 32 34
M  V30 34 1 34 35
M  V30 35 1 6 1
M  V30 36 1 31 7
M  V30 37 1 22 4
M  V30 38 1 35 30
M  V30 39 1 22 8
M  V30 40 1 17 9
M  V30 41 1 27 18
M  V30 42 1 16 11
M  V30 43 1 1 36
M  V30 44 1 2 37
M  V30 45 1 3 38
M  V30 46 1 6 39
M  V30 47 1 12 40
M  V30 48 1 13 41
M  V30 49 1 14 42
M  V30 50 1 15 43
M  V30 51 1 19 44
M  V30 52 1 19 45
M  V30 53 1 19 46
M  V30 54 1 21 47 CFG=1
M  V30 55 1 23 48
M  V30 56 1 23 49
M  V30 57 1 24 50 CFG=1
M  V30 58 1 25 51
M  V30 59 1 25 52
M  V30 60 1 26 53
M  V30 61 1 26 54
M  V30 62 1 26 55
M  V30 63 1 27 56 CFG=1
M  V30 64 1 29 57
M  V30 65 1 29 58
M  V30 66 1 29 59
M  V30 67 1 34 60
M  V30 68 1 35 61
M  V30 69 1 35 62
M  V30 END BOND
M  V30 END CTAB
M  END
>  <Dataset>  (255) 
PDB

>  <Ligand_Instance>  (255) 
4C34_STU_A_1351

>  <PDB_ID>  (255) 
4C34

>  <Standardized_SMILES>  (255) 
[H]C1=C([H])C([H])=C2C(=C1[H])C1=C3C4=C(C5=C([H])C([H])=C([H])C([H])=C5N4[C@@]4(C([H])([H])[H])O[C@@]([H])(N23)C([H])([H])[C@@]([H])([N+]([H])([H])C([H])([H])[H])[C@@]4([H])OC([H])([H])[H])C2=C1C(=O)N([H])C2([H])[H]

>  <Name>  (255) 
STAUROSPORINE

>  <Pocket>  (255) 
A

>  <ATP_Site>  (255) 
1.0

>  <Peripheral>  (255) 
0.0

>  <Num_H_Atoms_ProtBoundConf>  (255) 
27.0

>  <Num_Resolved_Atoms>  (255) 
35.0

>  <Num_Not_Resolved_Atoms>  (255) 
0.0

>  <2D_Mol_H>  (255) 
<rdkit.Chem.rdchem.Mol object at 0x72a239100820>

>  <MW>  (255) 
467.549

>  <HBA>  (255) 
5

>  <HBD>  (255) 
2

>  <LogP>  (255) 
3.3278

>  <NRB>  (255) 
5

>  <TPSA>  (255) 
74.03

>  <Num_Heavy_Atoms>  (255) 
35

>  <Ro5>  (255) 
[True, True, True, True, True, True]

>  <Ro5_Fulfilled>  (255) 
True

>  <Ro3>  (255) 
[False, False, True, False]

>  <Ro3_Fulfilled>  (255) 
False

>  <Fsp3>  (255) 
0.321429

>  <Fsp3_0.42>  (255) 
False

>  <Fsp3_0.45>  (255) 
False

>  <Stereogenic_Carbons>  (255) 
4

>  <C_Atoms>  (255) 
28

>  <FCStereo>  (255) 
0.142857

>  <SPS>  (255) 
955

>  <nSPS>  (255) 
27.285714

>  <PBF>  (255) 
0.86249

>  <PBF_0.6>  (255) 
True

>  <nPBF>  (255) 
0.024643

>  <nPBF_0.016>  (255) 
True

>  <PMI1>  (255) 
3333.313896

>  <PMI2>  (255) 
3801.5943

>  <PMI3>  (255) 
6388.936505

>  <NPR1>  (255) 
0.521732

>  <NPR2>  (255) 
0.595028

>  <Sum_NPR>  (255) 
1.11676

>  <Sum_NPR_1.07>  (255) 
True

>  <Sum_NPR_1.2>  (255) 
False

>  <MaxAbsEStateIndex>  (255) 
13.327081

>  <MaxEStateIndex>  (255) 
13.327081

>  <MinAbsEStateIndex>  (255) 
0.00974

>  <MinEStateIndex>  (255) 
-0.728642

>  <qed>  (255) 
0.418357

>  <MolWt>  (255) 
467.549

>  <HeavyAtomMolWt>  (255) 
440.333

>  <ExactMolWt>  (255) 
467.207767

>  <NumValenceElectrons>  (255) 
176

>  <NumRadicalElectrons>  (255) 
0

>  <MaxPartialCharge>  (255) 
0.252133

>  <MinPartialCharge>  (255) 
-0.370162

>  <MaxAbsPartialCharge>  (255) 
0.370162

>  <MinAbsPartialCharge>  (255) 
0.252133

>  <FpDensityMorgan1>  (255) 
1.057143

>  <FpDensityMorgan2>  (255) 
1.771429

>  <FpDensityMorgan3>  (255) 
2.514286

>  <BCUT2D_MWHI>  (255) 
16.577317

>  <BCUT2D_MWLOW>  (255) 
9.926623

>  <BCUT2D_CHGHI>  (255) 
2.541862

>  <BCUT2D_CHGLO>  (255) 
-2.463188

>  <BCUT2D_LOGPHI>  (255) 
2.528041

>  <BCUT2D_LOGPLOW>  (255) 
-2.912364

>  <BCUT2D_MRHI>  (255) 
6.305056

>  <BCUT2D_MRLOW>  (255) 
-0.683015

>  <AvgIpc>  (255) 
3.508144

>  <BalabanJ>  (255) 
1.722908

>  <BertzCT>  (255) 
1748.012575

>  <Chi0>  (255) 
23.637099

>  <Chi0n>  (255) 
19.961589

>  <Chi0v>  (255) 
19.961589

>  <Chi1>  (255) 
17.079865

>  <Chi1n>  (255) 
12.37513

>  <Chi1v>  (255) 
12.37513

>  <Chi2n>  (255) 
10.239493

>  <Chi2v>  (255) 
10.239493

>  <Chi3n>  (255) 
8.695251

>  <Chi3v>  (255) 
8.695251

>  <Chi4n>  (255) 
7.425979

>  <Chi4v>  (255) 
7.425979

>  <HallKierAlpha>  (255) 
-3.39

>  <Ipc>  (255) 
283668581.964229

>  <Kappa1>  (255) 
19.867881

>  <Kappa2>  (255) 
6.428959

>  <Kappa3>  (255) 
2.124024

>  <LabuteASA>  (255) 
201.11659

>  <PEOE_VSA1>  (255) 
29.241502

>  <PEOE_VSA10>  (255) 
12.269742

>  <PEOE_VSA11>  (255) 
11.828952

>  <PEOE_VSA12>  (255) 
0.0

>  <PEOE_VSA13>  (255) 
5.90718

>  <PEOE_VSA14>  (255) 
0.0

>  <PEOE_VSA2>  (255) 
4.794537

>  <PEOE_VSA3>  (255) 
0.0

>  <PEOE_VSA4>  (255) 
0.0

>  <PEOE_VSA5>  (255) 
0.0

>  <PEOE_VSA6>  (255) 
36.398202

>  <PEOE_VSA7>  (255) 
24.619923

>  <PEOE_VSA8>  (255) 
41.620272

>  <PEOE_VSA9>  (255) 
34.677926

>  <SMR_VSA1>  (255) 
19.585052

>  <SMR_VSA10>  (255) 
49.518879

>  <SMR_VSA2>  (255) 
0.0

>  <SMR_VSA3>  (255) 
14.450988

>  <SMR_VSA4>  (255) 
0.0

>  <SMR_VSA5>  (255) 
43.988009

>  <SMR_VSA6>  (255) 
14.15747

>  <SMR_VSA7>  (255) 
59.65784

>  <SMR_VSA8>  (255) 
0.0

>  <SMR_VSA9>  (255) 
0.0

>  <SlogP_VSA1>  (255) 
10.633577

>  <SlogP_VSA10>  (255) 
0.0

>  <SlogP_VSA11>  (255) 
0.0

>  <SlogP_VSA12>  (255) 
0.0

>  <SlogP_VSA2>  (255) 
41.344656

>  <SlogP_VSA3>  (255) 
21.743468

>  <SlogP_VSA4>  (255) 
0.0

>  <SlogP_VSA5>  (255) 
35.4939

>  <SlogP_VSA6>  (255) 
48.530937

>  <SlogP_VSA7>  (255) 
0.0

>  <SlogP_VSA8>  (255) 
43.6117

>  <SlogP_VSA9>  (255) 
0.0

>  <EState_VSA1>  (255) 
5.724986

>  <EState_VSA10>  (255) 
4.794537

>  <EState_VSA11>  (255) 
0.0

>  <EState_VSA2>  (255) 
24.280888

>  <EState_VSA3>  (255) 
6.544756

>  <EState_VSA4>  (255) 
61.159424

>  <EState_VSA5>  (255) 
0.0

>  <EState_VSA6>  (255) 
7.109798

>  <EState_VSA7>  (255) 
0.0

>  <EState_VSA8>  (255) 
82.270122

>  <EState_VSA9>  (255) 
9.473726

>  <VSA_EState1>  (255) 
18.049047

>  <VSA_EState10>  (255) 
0.0

>  <VSA_EState2>  (255) 
13.327081

>  <VSA_EState3>  (255) 
9.827044

>  <VSA_EState4>  (255) 
5.61005

>  <VSA_EState5>  (255) 
0.00974

>  <VSA_EState6>  (255) 
17.158739

>  <VSA_EState7>  (255) 
0.479073

>  <VSA_EState8>  (255) 
2.709315

>  <VSA_EState9>  (255) 
3.913244

>  <FractionCSP3>  (255) 
0.321429

>  <HeavyAtomCount>  (255) 
35

>  <NHOHCount>  (255) 
3

>  <NOCount>  (255) 
7

>  <NumAliphaticCarbocycles>  (255) 
0

>  <NumAliphaticHeterocycles>  (255) 
3

>  <NumAliphaticRings>  (255) 
3

>  <NumAromaticCarbocycles>  (255) 
3

>  <NumAromaticHeterocycles>  (255) 
2

>  <NAR>  (255) 
5

>  <NumHAcceptors>  (255) 
5

>  <NumHDonors>  (255) 
2

>  <NumHeteroatoms>  (255) 
7

>  <NumRotatableBonds>  (255) 
2

>  <NumSaturatedCarbocycles>  (255) 
0

>  <NumSaturatedHeterocycles>  (255) 
1

>  <NumSaturatedRings>  (255) 
1

>  <RingCount>  (255) 
8

>  <MolLogP>  (255) 
3.3278

>  <MolMR>  (255) 
134.4376

>  <fr_Al_COO>  (255) 
0

>  <fr_Al_OH>  (255) 
0

>  <fr_Al_OH_noTert>  (255) 
0

>  <fr_ArN>  (255) 
0

>  <fr_Ar_COO>  (255) 
0

>  <fr_Ar_N>  (255) 
2

>  <fr_Ar_NH>  (255) 
0

>  <fr_Ar_OH>  (255) 
0

>  <fr_COO>  (255) 
0

>  <fr_COO2>  (255) 
0

>  <fr_C_O>  (255) 
1

>  <fr_C_O_noCOO>  (255) 
1

>  <fr_C_S>  (255) 
0

>  <fr_HOCCN>  (255) 
0

>  <fr_Imine>  (255) 
0

>  <fr_NH0>  (255) 
2

>  <fr_NH1>  (255) 
1

>  <fr_NH2>  (255) 
1

>  <fr_N_O>  (255) 
0

>  <fr_Ndealkylation1>  (255) 
1

>  <fr_Ndealkylation2>  (255) 
0

>  <fr_Nhpyrrole>  (255) 
0

>  <fr_SH>  (255) 
0

>  <fr_aldehyde>  (255) 
0

>  <fr_alkyl_carbamate>  (255) 
0

>  <fr_alkyl_halide>  (255) 
0

>  <fr_allylic_oxid>  (255) 
0

>  <fr_amide>  (255) 
1

>  <fr_amidine>  (255) 
0

>  <fr_aniline>  (255) 
0

>  <fr_aryl_methyl>  (255) 
0

>  <fr_azide>  (255) 
0

>  <fr_azo>  (255) 
0

>  <fr_barbitur>  (255) 
0

>  <fr_benzene>  (255) 
3

>  <fr_benzodiazepine>  (255) 
0

>  <fr_bicyclic>  (255) 
13

>  <fr_diazo>  (255) 
0

>  <fr_dihydropyridine>  (255) 
0

>  <fr_epoxide>  (255) 
0

>  <fr_ester>  (255) 
0

>  <fr_ether>  (255) 
2

>  <fr_furan>  (255) 
0

>  <fr_guanido>  (255) 
0

>  <fr_halogen>  (255) 
0

>  <fr_hdrzine>  (255) 
0

>  <fr_hdrzone>  (255) 
0

>  <fr_imidazole>  (255) 
0

>  <fr_imide>  (255) 
0

>  <fr_isocyan>  (255) 
0

>  <fr_isothiocyan>  (255) 
0

>  <fr_ketone>  (255) 
0

>  <fr_ketone_Topliss>  (255) 
0

>  <fr_lactam>  (255) 
0

>  <fr_lactone>  (255) 
0

>  <fr_methoxy>  (255) 
1

>  <fr_morpholine>  (255) 
0

>  <fr_nitrile>  (255) 
0

>  <fr_nitro>  (255) 
0

>  <fr_nitro_arom>  (255) 
0

>  <fr_nitro_arom_nonortho>  (255) 
0

>  <fr_nitroso>  (255) 
0

>  <fr_oxazole>  (255) 
0

>  <fr_oxime>  (255) 
0

>  <fr_para_hydroxylation>  (255) 
2

>  <fr_phenol>  (255) 
0

>  <fr_phenol_noOrthoHbond>  (255) 
0

>  <fr_phos_acid>  (255) 
0

>  <fr_phos_ester>  (255) 
0

>  <fr_piperdine>  (255) 
0

>  <fr_piperzine>  (255) 
0

>  <fr_priamide>  (255) 
0

>  <fr_prisulfonamd>  (255) 
0

>  <fr_pyridine>  (255) 
0

>  <fr_quatN>  (255) 
1

>  <fr_sulfide>  (255) 
0

>  <fr_sulfonamd>  (255) 
0

>  <fr_sulfone>  (255) 
0

>  <fr_term_acetylene>  (255) 
0

>  <fr_tetrazole>  (255) 
0

>  <fr_thiazole>  (255) 
0

>  <fr_thiocyan>  (255) 
0

>  <fr_thiophene>  (255) 
0

>  <fr_unbrch_alkane>  (255) 
0

>  <fr_urea>  (255) 
0

>  <NP-Likeness>  (255) 
1.062346

$$$$
T7W
     RDKit          3D

  0  0  0  0  0  0  0  0  0  0999 V3000
M  V30 BEGIN CTAB
M  V30 COUNTS 52 55 0 0 0
M  V30 BEGIN ATOM
M  V30 1 C -4.821303 -2.959647 1.833188 0
M  V30 2 N -4.419419 -4.228143 1.863352 0
M  V30 3 C -3.152129 -4.607615 2.011634 0
M  V30 4 C -2.166565 -3.672837 2.144879 0
M  V30 5 C -2.497003 -2.326392 2.124485 0
M  V30 6 C -1.655706 -1.141328 2.243791 0
M  V30 7 N -1.038306 -0.402747 3.183577 0
M  V30 8 O -0.406718 0.587367 2.623514 0
M  V30 9 C -0.572328 0.554246 1.302983 0
M  V30 10 C 0.006668 1.531665 0.339742 0 CFG=2
M  V30 11 N 0.583205 0.878677 -0.808653 0
M  V30 12 C -0.198092 0.310543 -1.833962 0
M  V30 13 O -1.313747 0.603277 -1.338851 0
M  V30 14 C 0.481396 -0.347392 -2.986614 0
M  V30 15 C -0.525992 -0.890158 -3.968517 0
M  V30 16 C 0.169459 -1.557344 -5.138171 0
M  V30 17 C -1.376577 0.278901 -4.455128 0
M  V30 18 C -1.400014 -1.895739 -3.275412 0
M  V30 19 C -0.579405 -3.007414 -2.754542 0
M  V30 20 O 0.107980 -3.064165 -1.719316 0
M  V30 21 O -0.498630 -4.217452 -3.456658 0 CHG=-1 VAL=1
M  V30 22 C 2.042046 0.837307 -0.853318 0
M  V30 23 C 2.490206 2.254399 -0.941847 0
M  V30 24 C 1.920340 3.012724 0.057978 0
M  V30 25 N 2.358162 4.284560 -0.067448 0
M  V30 26 C 3.190821 4.326361 -1.129823 0
M  V30 27 N 3.264009 3.078729 -1.656815 0 CHG=1 VAL=4
M  V30 28 C 0.990642 2.412114 1.051787 0
M  V30 29 N -1.348334 -0.522979 1.088299 0
M  V30 30 C -3.841138 -1.974552 1.966568 0
M  V30 31 H -5.875406 -2.750412 1.708129 0
M  V30 32 H -2.778587 -5.626842 2.042257 0
M  V30 33 H -1.083020 -3.777658 2.274835 0
M  V30 34 H -0.856964 2.184974 0.045534 0
M  V30 35 H 1.151056 0.385847 -3.494426 0
M  V30 36 H 1.122490 -1.170309 -2.632927 0
M  V30 37 H -0.521066 -2.291335 -5.608689 0
M  V30 38 H 0.474598 -0.777714 -5.862269 0
M  V30 39 H 1.092488 -2.070964 -4.781907 0
M  V30 40 H -0.806868 1.207744 -4.309458 0
M  V30 41 H -2.332285 0.297388 -3.884385 0
M  V30 42 H -1.578389 0.181550 -5.553180 0
M  V30 43 H -1.922059 -1.367439 -2.432572 0
M  V30 44 H -2.197469 -2.282412 -3.939877 0
M  V30 45 H 2.401767 0.228099 -1.710898 0
M  V30 46 H 2.386655 0.385765 0.089959 0
M  V30 47 H 2.119583 5.118368 0.530385 0
M  V30 48 H 3.746214 5.158253 -1.559698 0
M  V30 49 H 3.786043 2.669630 -2.473793 0
M  V30 50 H 0.436909 3.201854 1.587599 0
M  V30 51 H 1.558114 1.785355 1.787903 0
M  V30 52 H -4.239641 -0.957014 1.932668 0
M  V30 END ATOM
M  V30 BEGIN BOND
M  V30 1 2 1 2
M  V30 2 1 2 3
M  V30 3 2 3 4
M  V30 4 1 4 5
M  V30 5 1 5 6
M  V30 6 2 6 7
M  V30 7 1 7 8
M  V30 8 1 8 9
M  V30 9 1 9 10
M  V30 10 1 10 11
M  V30 11 1 11 12
M  V30 12 2 12 13
M  V30 13 1 12 14
M  V30 14 1 14 15
M  V30 15 1 15 16
M  V30 16 1 15 17
M  V30 17 1 15 18
M  V30 18 1 18 19
M  V30 19 2 19 20
M  V30 20 1 19 21
M  V30 21 1 11 22
M  V30 22 1 22 23
M  V30 23 2 23 24
M  V30 24 1 24 25
M  V30 25 1 25 26
M  V30 26 2 26 27
M  V30 27 1 24 28
M  V30 28 2 9 29
M  V30 29 2 5 30
M  V30 30 1 30 1
M  V30 31 1 29 6
M  V30 32 1 28 10
M  V30 33 1 27 23
M  V30 34 1 1 31
M  V30 35 1 3 32
M  V30 36 1 4 33
M  V30 37 1 10 34 CFG=3
M  V30 38 1 14 35
M  V30 39 1 14 36
M  V30 40 1 16 37
M  V30 41 1 16 38
M  V30 42 1 16 39
M  V30 43 1 17 40
M  V30 44 1 17 41
M  V30 45 1 17 42
M  V30 46 1 18 43
M  V30 47 1 18 44
M  V30 48 1 22 45
M  V30 49 1 22 46
M  V30 50 1 25 47
M  V30 51 1 26 48
M  V30 52 1 27 49
M  V30 53 1 28 50
M  V30 54 1 28 51
M  V30 55 1 30 52
M  V30 END BOND
M  V30 END CTAB
M  END
>  <Dataset>  (256) 
PDB

>  <Ligand_Instance>  (256) 
7BB0_T7W_A_401

>  <PDB_ID>  (256) 
7BB0

>  <Standardized_SMILES>  (256) 
[H]C1=NC([H])=C([H])C(C2=NOC([C@]3([H])N(C(=O)C([H])([H])C(C([H])([H])[H])(C([H])([H])[H])C([H])([H])C(=O)[O-])C([H])([H])C4=C(N([H])C([H])=[N+]4[H])C3([H])[H])=N2)=C1[H]

>  <Name>  (256) 
(R)-3,3-dimethyl-5-oxo-5-(6-(3-(pyridin-4-yl)-1,2,4-oxadiazol-5-yl)-1,4,6,7-tetrahydro-5H-imidazo[4,5-c]pyridin-5-yl)pentanoic acid

>  <Pocket>  (256) 
A

>  <ATP_Site>  (256) 
1.0

>  <Peripheral>  (256) 
0.0

>  <Num_H_Atoms_ProtBoundConf>  (256) 
22.0

>  <Num_Resolved_Atoms>  (256) 
30.0

>  <Num_Not_Resolved_Atoms>  (256) 
0.0

>  <2D_Mol_H>  (256) 
<rdkit.Chem.rdchem.Mol object at 0x72a239100900>

>  <MW>  (256) 
410.434

>  <HBA>  (256) 
7

>  <HBD>  (256) 
1

>  <LogP>  (256) 
0.4561

>  <NRB>  (256) 
8

>  <TPSA>  (256) 
142.18

>  <Num_Heavy_Atoms>  (256) 
30

>  <Ro5>  (256) 
[True, True, True, True, True, False]

>  <Ro5_Fulfilled>  (256) 
True

>  <Ro3>  (256) 
[False, False, True, True]

>  <Ro3_Fulfilled>  (256) 
False

>  <Fsp3>  (256) 
0.4

>  <Fsp3_0.42>  (256) 
False

>  <Fsp3_0.45>  (256) 
False

>  <Stereogenic_Carbons>  (256) 
1

>  <C_Atoms>  (256) 
20

>  <FCStereo>  (256) 
0.05

>  <SPS>  (256) 
490

>  <nSPS>  (256) 
16.333333

>  <PBF>  (256) 
0.939124

>  <PBF_0.6>  (256) 
True

>  <nPBF>  (256) 
0.031304

>  <nPBF_0.016>  (256) 
True

>  <PMI1>  (256) 
2558.070795

>  <PMI2>  (256) 
4315.219938

>  <PMI3>  (256) 
6190.767974

>  <NPR1>  (256) 
0.413207

>  <NPR2>  (256) 
0.697041

>  <Sum_NPR>  (256) 
1.110248

>  <Sum_NPR_1.07>  (256) 
True

>  <Sum_NPR_1.2>  (256) 
False

>  <MaxAbsEStateIndex>  (256) 
13.17779

>  <MaxEStateIndex>  (256) 
13.17779

>  <MinAbsEStateIndex>  (256) 
0.05812

>  <MinEStateIndex>  (256) 
-1.177646

>  <qed>  (256) 
0.621661

>  <MolWt>  (256) 
410.434

>  <HeavyAtomMolWt>  (256) 
388.258

>  <ExactMolWt>  (256) 
410.170253

>  <NumValenceElectrons>  (256) 
156

>  <NumRadicalElectrons>  (256) 
0

>  <MaxPartialCharge>  (256) 
0.249777

>  <MinPartialCharge>  (256) 
-0.55015

>  <MaxAbsPartialCharge>  (256) 
0.55015

>  <MinAbsPartialCharge>  (256) 
0.249777

>  <FpDensityMorgan1>  (256) 
1.333333

>  <FpDensityMorgan2>  (256) 
2.1

>  <FpDensityMorgan3>  (256) 
2.833333

>  <BCUT2D_MWHI>  (256) 
16.47045

>  <BCUT2D_MWLOW>  (256) 
9.84374

>  <BCUT2D_CHGHI>  (256) 
2.391518

>  <BCUT2D_CHGLO>  (256) 
-2.339333

>  <BCUT2D_LOGPHI>  (256) 
2.341338

>  <BCUT2D_LOGPLOW>  (256) 
-2.423556

>  <BCUT2D_MRHI>  (256) 
5.782213

>  <BCUT2D_MRLOW>  (256) 
-0.391112

>  <AvgIpc>  (256) 
3.34965

>  <BalabanJ>  (256) 
1.619756

>  <BertzCT>  (256) 
1058.203328

>  <Chi0>  (256) 
21.302754

>  <Chi0n>  (256) 
16.714376

>  <Chi0v>  (256) 
16.714376

>  <Chi1>  (256) 
14.3213

>  <Chi1n>  (256) 
9.623933

>  <Chi1v>  (256) 
9.623933

>  <Chi2n>  (256) 
8.213568

>  <Chi2v>  (256) 
8.213568

>  <Chi3n>  (256) 
5.197561

>  <Chi3v>  (256) 
5.197561

>  <Chi4n>  (256) 
3.727393

>  <Chi4v>  (256) 
3.727393

>  <HallKierAlpha>  (256) 
-3.56

>  <Ipc>  (256) 
7556207.809083

>  <Kappa1>  (256) 
19.743314

>  <Kappa2>  (256) 
7.694341

>  <Kappa3>  (256) 
4.069936

>  <LabuteASA>  (256) 
171.899731

>  <PEOE_VSA1>  (256) 
19.324069

>  <PEOE_VSA10>  (256) 
11.735769

>  <PEOE_VSA11>  (256) 
5.693928

>  <PEOE_VSA12>  (256) 
23.949628

>  <PEOE_VSA13>  (256) 
0.0

>  <PEOE_VSA14>  (256) 
0.0

>  <PEOE_VSA2>  (256) 
9.778516

>  <PEOE_VSA3>  (256) 
9.967957

>  <PEOE_VSA4>  (256) 
4.983979

>  <PEOE_VSA5>  (256) 
0.0

>  <PEOE_VSA6>  (256) 
19.004138

>  <PEOE_VSA7>  (256) 
23.968546

>  <PEOE_VSA8>  (256) 
36.768087

>  <PEOE_VSA9>  (256) 
6.544756

>  <SMR_VSA1>  (256) 
24.202675

>  <SMR_VSA10>  (256) 
11.876485

>  <SMR_VSA2>  (256) 
0.0

>  <SMR_VSA3>  (256) 
25.008509

>  <SMR_VSA4>  (256) 
5.41499

>  <SMR_VSA5>  (256) 
45.696537

>  <SMR_VSA6>  (256) 
0.0

>  <SMR_VSA7>  (256) 
48.132321

>  <SMR_VSA8>  (256) 
0.0

>  <SMR_VSA9>  (256) 
11.387856

>  <SlogP_VSA1>  (256) 
10.090506

>  <SlogP_VSA10>  (256) 
0.0

>  <SlogP_VSA11>  (256) 
0.0

>  <SlogP_VSA12>  (256) 
0.0

>  <SlogP_VSA2>  (256) 
36.884994

>  <SlogP_VSA3>  (256) 
22.554652

>  <SlogP_VSA4>  (256) 
5.41499

>  <SlogP_VSA5>  (256) 
50.009538

>  <SlogP_VSA6>  (256) 
35.376836

>  <SlogP_VSA7>  (256) 
0.0

>  <SlogP_VSA8>  (256) 
11.387856

>  <SlogP_VSA9>  (256) 
0.0

>  <EState_VSA1>  (256) 
17.426137

>  <EState_VSA10>  (256) 
14.695602

>  <EState_VSA11>  (256) 
0.0

>  <EState_VSA2>  (256) 
18.748823

>  <EState_VSA3>  (256) 
24.680706

>  <EState_VSA4>  (256) 
16.951307

>  <EState_VSA5>  (256) 
0.0

>  <EState_VSA6>  (256) 
49.601125

>  <EState_VSA7>  (256) 
0.0

>  <EState_VSA8>  (256) 
25.092577

>  <EState_VSA9>  (256) 
4.523095

>  <VSA_EState1>  (256) 
5.521605

>  <VSA_EState10>  (256) 
0.0

>  <VSA_EState2>  (256) 
40.640409

>  <VSA_EState3>  (256) 
15.099204

>  <VSA_EState4>  (256) 
1.879797

>  <VSA_EState5>  (256) 
-0.618196

>  <VSA_EState6>  (256) 
3.094052

>  <VSA_EState7>  (256) 
5.327381

>  <VSA_EState8>  (256) 
3.805746

>  <VSA_EState9>  (256) 
0.0

>  <FractionCSP3>  (256) 
0.4

>  <HeavyAtomCount>  (256) 
30

>  <NHOHCount>  (256) 
2

>  <NOCount>  (256) 
10

>  <NumAliphaticCarbocycles>  (256) 
0

>  <NumAliphaticHeterocycles>  (256) 
1

>  <NumAliphaticRings>  (256) 
1

>  <NumAromaticCarbocycles>  (256) 
0

>  <NumAromaticHeterocycles>  (256) 
3

>  <NAR>  (256) 
3

>  <NumHAcceptors>  (256) 
7

>  <NumHDonors>  (256) 
1

>  <NumHeteroatoms>  (256) 
10

>  <NumRotatableBonds>  (256) 
6

>  <NumSaturatedCarbocycles>  (256) 
0

>  <NumSaturatedHeterocycles>  (256) 
0

>  <NumSaturatedRings>  (256) 
0

>  <RingCount>  (256) 
4

>  <MolLogP>  (256) 
0.4561

>  <MolMR>  (256) 
99.8944

>  <fr_Al_COO>  (256) 
1

>  <fr_Al_OH>  (256) 
0

>  <fr_Al_OH_noTert>  (256) 
0

>  <fr_ArN>  (256) 
0

>  <fr_Ar_COO>  (256) 
0

>  <fr_Ar_N>  (256) 
5

>  <fr_Ar_NH>  (256) 
2

>  <fr_Ar_OH>  (256) 
0

>  <fr_COO>  (256) 
1

>  <fr_COO2>  (256) 
1

>  <fr_C_O>  (256) 
2

>  <fr_C_O_noCOO>  (256) 
2

>  <fr_C_S>  (256) 
0

>  <fr_HOCCN>  (256) 
0

>  <fr_Imine>  (256) 
0

>  <fr_NH0>  (256) 
4

>  <fr_NH1>  (256) 
2

>  <fr_NH2>  (256) 
0

>  <fr_N_O>  (256) 
0

>  <fr_Ndealkylation1>  (256) 
0

>  <fr_Ndealkylation2>  (256) 
0

>  <fr_Nhpyrrole>  (256) 
2

>  <fr_SH>  (256) 
0

>  <fr_aldehyde>  (256) 
0

>  <fr_alkyl_carbamate>  (256) 
0

>  <fr_alkyl_halide>  (256) 
0

>  <fr_allylic_oxid>  (256) 
0

>  <fr_amide>  (256) 
1

>  <fr_amidine>  (256) 
0

>  <fr_aniline>  (256) 
0

>  <fr_aryl_methyl>  (256) 
0

>  <fr_azide>  (256) 
0

>  <fr_azo>  (256) 
0

>  <fr_barbitur>  (256) 
0

>  <fr_benzene>  (256) 
0

>  <fr_benzodiazepine>  (256) 
0

>  <fr_bicyclic>  (256) 
1

>  <fr_diazo>  (256) 
0

>  <fr_dihydropyridine>  (256) 
0

>  <fr_epoxide>  (256) 
0

>  <fr_ester>  (256) 
0

>  <fr_ether>  (256) 
0

>  <fr_furan>  (256) 
0

>  <fr_guanido>  (256) 
0

>  <fr_halogen>  (256) 
0

>  <fr_hdrzine>  (256) 
0

>  <fr_hdrzone>  (256) 
0

>  <fr_imidazole>  (256) 
1

>  <fr_imide>  (256) 
0

>  <fr_isocyan>  (256) 
0

>  <fr_isothiocyan>  (256) 
0

>  <fr_ketone>  (256) 
0

>  <fr_ketone_Topliss>  (256) 
0

>  <fr_lactam>  (256) 
0

>  <fr_lactone>  (256) 
0

>  <fr_methoxy>  (256) 
0

>  <fr_morpholine>  (256) 
0

>  <fr_nitrile>  (256) 
0

>  <fr_nitro>  (256) 
0

>  <fr_nitro_arom>  (256) 
0

>  <fr_nitro_arom_nonortho>  (256) 
0

>  <fr_nitroso>  (256) 
0

>  <fr_oxazole>  (256) 
0

>  <fr_oxime>  (256) 
0

>  <fr_para_hydroxylation>  (256) 
0

>  <fr_phenol>  (256) 
0

>  <fr_phenol_noOrthoHbond>  (256) 
0

>  <fr_phos_acid>  (256) 
0

>  <fr_phos_ester>  (256) 
0

>  <fr_piperdine>  (256) 
0

>  <fr_piperzine>  (256) 
0

>  <fr_priamide>  (256) 
0

>  <fr_prisulfonamd>  (256) 
0

>  <fr_pyridine>  (256) 
1

>  <fr_quatN>  (256) 
0

>  <fr_sulfide>  (256) 
0

>  <fr_sulfonamd>  (256) 
0

>  <fr_sulfone>  (256) 
0

>  <fr_term_acetylene>  (256) 
0

>  <fr_tetrazole>  (256) 
0

>  <fr_thiazole>  (256) 
0

>  <fr_thiocyan>  (256) 
0

>  <fr_thiophene>  (256) 
0

>  <fr_unbrch_alkane>  (256) 
0

>  <fr_urea>  (256) 
0

>  <NP-Likeness>  (256) 
-1.085378

$$$$
T82
     RDKit          3D

  0  0  0  0  0  0  0  0  0  0999 V3000
M  V30 BEGIN CTAB
M  V30 COUNTS 39 40 0 0 0
M  V30 BEGIN ATOM
M  V30 1 O 3.942834 -6.996671 2.147797 0
M  V30 2 C 3.232763 -5.787237 2.106635 0
M  V30 3 C 3.661470 -4.670584 2.796689 0
M  V30 4 C 2.952737 -3.483623 2.748343 0
M  V30 5 C 1.785305 -3.383025 2.000709 0
M  V30 6 C 1.030250 -2.131877 1.944283 0
M  V30 7 N -0.042556 -1.948179 1.290064 0
M  V30 8 N -0.779739 -0.763367 1.221770 0
M  V30 9 C -1.112958 -0.265690 -0.070515 0
M  V30 10 O -0.641656 -1.051026 -0.954247 0
M  V30 11 C -1.886293 0.977300 -0.140108 0 CFG=1
M  V30 12 C -1.221386 2.146637 0.487270 0
M  V30 13 C -1.849759 2.820205 1.538226 0
M  V30 14 C -1.331068 3.918861 2.201403 0
M  V30 15 C -0.093779 4.363664 1.770423 0
M  V30 16 C 0.576882 3.754078 0.749929 0
M  V30 17 Cl 2.144015 4.335720 0.221002 0
M  V30 18 C 0.005011 2.663562 0.130534 0
M  V30 19 C -2.335035 1.306797 -1.546800 0
M  V30 20 N -1.246975 1.475048 -2.473873 0 CHG=1 VAL=4
M  V30 21 C 1.363252 -4.502788 1.314011 0
M  V30 22 C 2.061999 -5.694655 1.353898 0
M  V30 23 Br 1.496496 -7.244038 0.416121 0
M  V30 24 H 3.897026 -7.607277 1.319617 0
M  V30 25 H 4.568616 -4.741064 3.380403 0
M  V30 26 H 3.329746 -2.643753 3.303988 0
M  V30 27 H 1.405129 -1.284367 2.501139 0
M  V30 28 H -1.062083 -0.281931 2.118233 0
M  V30 29 H -2.845536 0.850334 0.443043 0
M  V30 30 H -2.834774 2.492925 1.906253 0
M  V30 31 H -1.859003 4.393591 3.000027 0
M  V30 32 H 0.329787 5.234410 2.287463 0
M  V30 33 H 0.530601 2.175021 -0.677853 0
M  V30 34 H -3.033181 0.537213 -1.925044 0
M  V30 35 H -2.912906 2.252873 -1.540073 0
M  V30 36 H -0.469236 0.804361 -2.370775 0
M  V30 37 H -0.946344 2.485125 -2.539589 0
M  V30 38 H -1.666355 1.288121 -3.435156 0
M  V30 39 H 0.443671 -4.435497 0.720873 0
M  V30 END ATOM
M  V30 BEGIN BOND
M  V30 1 1 1 2
M  V30 2 2 2 3
M  V30 3 1 3 4
M  V30 4 2 4 5
M  V30 5 1 5 6
M  V30 6 2 6 7
M  V30 7 1 7 8
M  V30 8 1 8 9
M  V30 9 2 9 10
M  V30 10 1 9 11
M  V30 11 1 11 12
M  V30 12 2 12 13
M  V30 13 1 13 14
M  V30 14 2 14 15
M  V30 15 1 15 16
M  V30 16 1 16 17
M  V30 17 2 16 18
M  V30 18 1 11 19
M  V30 19 1 19 20
M  V30 20 1 5 21
M  V30 21 2 21 22
M  V30 22 1 22 23
M  V30 23 1 22 2
M  V30 24 1 18 12
M  V30 25 1 1 24
M  V30 26 1 3 25
M  V30 27 1 4 26
M  V30 28 1 6 27
M  V30 29 1 8 28
M  V30 30 1 11 29 CFG=1
M  V30 31 1 13 30
M  V30 32 1 14 31
M  V30 33 1 15 32
M  V30 34 1 18 33
M  V30 35 1 19 34
M  V30 36 1 19 35
M  V30 37 1 20 36
M  V30 38 1 20 37
M  V30 39 1 20 38
M  V30 40 1 21 39
M  V30 END BOND
M  V30 END CTAB
M  END
>  <Dataset>  (257) 
PDB

>  <Ligand_Instance>  (257) 
7BAQ_T82_A_401

>  <PDB_ID>  (257) 
7BAQ

>  <Standardized_SMILES>  (257) 
[H]OC1=C([H])C([H])=C(/C([H])=N/N([H])C(=O)[C@@]([H])(C2=C([H])C([H])=C([H])C(Cl)=C2[H])C([H])([H])[N+]([H])([H])[H])C([H])=C1Br

>  <Name>  (257) 
(S,E)-3-(2-(3-bromo-4-hydroxybenzylidene)hydrazineyl)-2-(3-chlorophenyl)-3-oxopropan-1-aminium

>  <Pocket>  (257) 
A

>  <ATP_Site>  (257) 
1.0

>  <Peripheral>  (257) 
0.0

>  <Num_H_Atoms_ProtBoundConf>  (257) 
16.0

>  <Num_Resolved_Atoms>  (257) 
23.0

>  <Num_Not_Resolved_Atoms>  (257) 
0.0

>  <2D_Mol_H>  (257) 
<rdkit.Chem.rdchem.Mol object at 0x72a2391009e0>

>  <MW>  (257) 
397.68

>  <HBA>  (257) 
3

>  <HBD>  (257) 
3

>  <LogP>  (257) 
2.2839

>  <NRB>  (257) 
7

>  <TPSA>  (257) 
89.33

>  <Num_Heavy_Atoms>  (257) 
23

>  <Ro5>  (257) 
[True, True, True, True, True, True]

>  <Ro5_Fulfilled>  (257) 
True

>  <Ro3>  (257) 
[False, True, True, True]

>  <Ro3_Fulfilled>  (257) 
True

>  <Fsp3>  (257) 
0.125

>  <Fsp3_0.42>  (257) 
False

>  <Fsp3_0.45>  (257) 
False

>  <Stereogenic_Carbons>  (257) 
1

>  <C_Atoms>  (257) 
16

>  <FCStereo>  (257) 
0.0625

>  <SPS>  (257) 
283

>  <nSPS>  (257) 
12.304348

>  <PBF>  (257) 
0.894555

>  <PBF_0.6>  (257) 
True

>  <nPBF>  (257) 
0.038894

>  <nPBF_0.016>  (257) 
True

>  <PMI1>  (257) 
1385.680138

>  <PMI2>  (257) 
8122.109442

>  <PMI3>  (257) 
8799.406122

>  <NPR1>  (257) 
0.157474

>  <NPR2>  (257) 
0.923029

>  <Sum_NPR>  (257) 
1.080504

>  <Sum_NPR_1.07>  (257) 
True

>  <Sum_NPR_1.2>  (257) 
False

>  <MaxAbsEStateIndex>  (257) 
12.240082

>  <MaxEStateIndex>  (257) 
12.240082

>  <MinAbsEStateIndex>  (257) 
0.142836

>  <MinEStateIndex>  (257) 
-0.41907

>  <qed>  (257) 
0.533605

>  <MolWt>  (257) 
397.68

>  <HeavyAtomMolWt>  (257) 
381.552

>  <ExactMolWt>  (257) 
396.010893

>  <NumValenceElectrons>  (257) 
120

>  <NumRadicalElectrons>  (257) 
0

>  <MaxPartialCharge>  (257) 
0.252841

>  <MinPartialCharge>  (257) 
-0.506775

>  <MaxAbsPartialCharge>  (257) 
0.506775

>  <MinAbsPartialCharge>  (257) 
0.252841

>  <FpDensityMorgan1>  (257) 
1.391304

>  <FpDensityMorgan2>  (257) 
2.173913

>  <FpDensityMorgan3>  (257) 
2.826087

>  <BCUT2D_MWHI>  (257) 
79.918731

>  <BCUT2D_MWLOW>  (257) 
9.986562

>  <BCUT2D_CHGHI>  (257) 
2.203683

>  <BCUT2D_CHGLO>  (257) 
-2.112569

>  <BCUT2D_LOGPHI>  (257) 
2.231931

>  <BCUT2D_LOGPLOW>  (257) 
-2.549751

>  <BCUT2D_MRHI>  (257) 
9.103463

>  <BCUT2D_MRLOW>  (257) 
-0.369546

>  <AvgIpc>  (257) 
2.515329

>  <BalabanJ>  (257) 
2.045914

>  <BertzCT>  (257) 
737.015329

>  <Chi0>  (257) 
16.819626

>  <Chi0n>  (257) 
12.16897

>  <Chi0v>  (257) 
14.510896

>  <Chi1>  (257) 
11.007239

>  <Chi1n>  (257) 
6.871176

>  <Chi1v>  (257) 
8.042139

>  <Chi2n>  (257) 
4.841369

>  <Chi2v>  (257) 
6.132141

>  <Chi3n>  (257) 
3.216309

>  <Chi3v>  (257) 
4.086564

>  <Chi4n>  (257) 
2.024275

>  <Chi4v>  (257) 
2.619502

>  <HallKierAlpha>  (257) 
-1.89

>  <Ipc>  (257) 
132230.855394

>  <Kappa1>  (257) 
17.463645

>  <Kappa2>  (257) 
8.100502

>  <Kappa3>  (257) 
4.789245

>  <LabuteASA>  (257) 
146.830047

>  <PEOE_VSA1>  (257) 
10.840195

>  <PEOE_VSA10>  (257) 
11.667418

>  <PEOE_VSA11>  (257) 
0.0

>  <PEOE_VSA12>  (257) 
0.0

>  <PEOE_VSA13>  (257) 
5.90718

>  <PEOE_VSA14>  (257) 
0.0

>  <PEOE_VSA2>  (257) 
4.794537

>  <PEOE_VSA3>  (257) 
5.425791

>  <PEOE_VSA4>  (257) 
5.101408

>  <PEOE_VSA5>  (257) 
0.0

>  <PEOE_VSA6>  (257) 
23.733674

>  <PEOE_VSA7>  (257) 
57.388682

>  <PEOE_VSA8>  (257) 
5.022633

>  <PEOE_VSA9>  (257) 
17.232077

>  <SMR_VSA1>  (257) 
15.634732

>  <SMR_VSA10>  (257) 
39.652664

>  <SMR_VSA2>  (257) 
0.0

>  <SMR_VSA3>  (257) 
5.425791

>  <SMR_VSA4>  (257) 
5.101408

>  <SMR_VSA5>  (257) 
5.917906

>  <SMR_VSA6>  (257) 
6.544756

>  <SMR_VSA7>  (257) 
63.086825

>  <SMR_VSA8>  (257) 
0.0

>  <SMR_VSA9>  (257) 
5.749512

>  <SlogP_VSA1>  (257) 
11.159459

>  <SlogP_VSA10>  (257) 
0.0

>  <SlogP_VSA11>  (257) 
5.749512

>  <SlogP_VSA12>  (257) 
27.530884

>  <SlogP_VSA2>  (257) 
23.773064

>  <SlogP_VSA3>  (257) 
4.794537

>  <SlogP_VSA4>  (257) 
0.0

>  <SlogP_VSA5>  (257) 
17.044809

>  <SlogP_VSA6>  (257) 
52.038697

>  <SlogP_VSA7>  (257) 
5.022633

>  <SlogP_VSA8>  (257) 
0.0

>  <SlogP_VSA9>  (257) 
0.0

>  <EState_VSA1>  (257) 
5.917906

>  <EState_VSA10>  (257) 
9.901065

>  <EState_VSA11>  (257) 
0.0

>  <EState_VSA2>  (257) 
11.656692

>  <EState_VSA3>  (257) 
16.040109

>  <EState_VSA4>  (257) 
11.126903

>  <EState_VSA5>  (257) 
12.280968

>  <EState_VSA6>  (257) 
30.331835

>  <EState_VSA7>  (257) 
6.066367

>  <EState_VSA8>  (257) 
32.19081

>  <EState_VSA9>  (257) 
11.60094

>  <VSA_EState1>  (257) 
0.557721

>  <VSA_EState10>  (257) 
9.174826

>  <VSA_EState2>  (257) 
12.240082

>  <VSA_EState3>  (257) 
13.948157

>  <VSA_EState4>  (257) 
7.853127

>  <VSA_EState5>  (257) 
-0.529604

>  <VSA_EState6>  (257) 
12.054625

>  <VSA_EState7>  (257) 
1.500219

>  <VSA_EState8>  (257) 
0.395291

>  <VSA_EState9>  (257) 
0.0

>  <FractionCSP3>  (257) 
0.125

>  <HeavyAtomCount>  (257) 
23

>  <NHOHCount>  (257) 
5

>  <NOCount>  (257) 
5

>  <NumAliphaticCarbocycles>  (257) 
0

>  <NumAliphaticHeterocycles>  (257) 
0

>  <NumAliphaticRings>  (257) 
0

>  <NumAromaticCarbocycles>  (257) 
2

>  <NumAromaticHeterocycles>  (257) 
0

>  <NAR>  (257) 
2

>  <NumHAcceptors>  (257) 
3

>  <NumHDonors>  (257) 
3

>  <NumHeteroatoms>  (257) 
7

>  <NumRotatableBonds>  (257) 
5

>  <NumSaturatedCarbocycles>  (257) 
0

>  <NumSaturatedHeterocycles>  (257) 
0

>  <NumSaturatedRings>  (257) 
0

>  <RingCount>  (257) 
2

>  <MolLogP>  (257) 
2.2839

>  <MolMR>  (257) 
93.4916

>  <fr_Al_COO>  (257) 
0

>  <fr_Al_OH>  (257) 
0

>  <fr_Al_OH_noTert>  (257) 
0

>  <fr_ArN>  (257) 
0

>  <fr_Ar_COO>  (257) 
0

>  <fr_Ar_N>  (257) 
0

>  <fr_Ar_NH>  (257) 
0

>  <fr_Ar_OH>  (257) 
1

>  <fr_COO>  (257) 
0

>  <fr_COO2>  (257) 
0

>  <fr_C_O>  (257) 
1

>  <fr_C_O_noCOO>  (257) 
1

>  <fr_C_S>  (257) 
0

>  <fr_HOCCN>  (257) 
0

>  <fr_Imine>  (257) 
0

>  <fr_NH0>  (257) 
1

>  <fr_NH1>  (257) 
1

>  <fr_NH2>  (257) 
0

>  <fr_N_O>  (257) 
0

>  <fr_Ndealkylation1>  (257) 
0

>  <fr_Ndealkylation2>  (257) 
0

>  <fr_Nhpyrrole>  (257) 
0

>  <fr_SH>  (257) 
0

>  <fr_aldehyde>  (257) 
0

>  <fr_alkyl_carbamate>  (257) 
0

>  <fr_alkyl_halide>  (257) 
0

>  <fr_allylic_oxid>  (257) 
0

>  <fr_amide>  (257) 
1

>  <fr_amidine>  (257) 
0

>  <fr_aniline>  (257) 
0

>  <fr_aryl_methyl>  (257) 
0

>  <fr_azide>  (257) 
0

>  <fr_azo>  (257) 
0

>  <fr_barbitur>  (257) 
0

>  <fr_benzene>  (257) 
2

>  <fr_benzodiazepine>  (257) 
0

>  <fr_bicyclic>  (257) 
0

>  <fr_diazo>  (257) 
0

>  <fr_dihydropyridine>  (257) 
0

>  <fr_epoxide>  (257) 
0

>  <fr_ester>  (257) 
0

>  <fr_ether>  (257) 
0

>  <fr_furan>  (257) 
0

>  <fr_guanido>  (257) 
0

>  <fr_halogen>  (257) 
2

>  <fr_hdrzine>  (257) 
0

>  <fr_hdrzone>  (257) 
1

>  <fr_imidazole>  (257) 
0

>  <fr_imide>  (257) 
0

>  <fr_isocyan>  (257) 
0

>  <fr_isothiocyan>  (257) 
0

>  <fr_ketone>  (257) 
0

>  <fr_ketone_Topliss>  (257) 
0

>  <fr_lactam>  (257) 
0

>  <fr_lactone>  (257) 
0

>  <fr_methoxy>  (257) 
0

>  <fr_morpholine>  (257) 
0

>  <fr_nitrile>  (257) 
0

>  <fr_nitro>  (257) 
0

>  <fr_nitro_arom>  (257) 
0

>  <fr_nitro_arom_nonortho>  (257) 
0

>  <fr_nitroso>  (257) 
0

>  <fr_oxazole>  (257) 
0

>  <fr_oxime>  (257) 
0

>  <fr_para_hydroxylation>  (257) 
0

>  <fr_phenol>  (257) 
1

>  <fr_phenol_noOrthoHbond>  (257) 
1

>  <fr_phos_acid>  (257) 
0

>  <fr_phos_ester>  (257) 
0

>  <fr_piperdine>  (257) 
0

>  <fr_piperzine>  (257) 
0

>  <fr_priamide>  (257) 
0

>  <fr_prisulfonamd>  (257) 
0

>  <fr_pyridine>  (257) 
0

>  <fr_quatN>  (257) 
1

>  <fr_sulfide>  (257) 
0

>  <fr_sulfonamd>  (257) 
0

>  <fr_sulfone>  (257) 
0

>  <fr_term_acetylene>  (257) 
0

>  <fr_tetrazole>  (257) 
0

>  <fr_thiazole>  (257) 
0

>  <fr_thiocyan>  (257) 
0

>  <fr_thiophene>  (257) 
0

>  <fr_unbrch_alkane>  (257) 
0

>  <fr_urea>  (257) 
0

>  <NP-Likeness>  (257) 
-0.96257

$$$$
T82
     RDKit          3D

  0  0  0  0  0  0  0  0  0  0999 V3000
M  V30 BEGIN CTAB
M  V30 COUNTS 39 40 0 0 0
M  V30 BEGIN ATOM
M  V30 1 C 1.509392 -4.199476 1.433162 0
M  V30 2 C 0.361818 -4.725081 1.967474 0
M  V30 3 C -0.533159 -3.909177 2.623287 0
M  V30 4 Cl -1.996241 -4.562846 3.307851 0
M  V30 5 C -0.237475 -2.543988 2.725366 0
M  V30 6 C 0.920731 -1.955511 2.197296 0
M  V30 7 C 1.116342 -0.519130 2.375746 0 CFG=2
M  V30 8 C 0.927309 0.308151 1.165093 0
M  V30 9 O 0.033085 1.220788 1.081205 0
M  V30 10 N 1.660811 0.232660 -0.030658 0
M  V30 11 N 1.405039 1.062928 -1.126776 0
M  V30 12 C 0.378027 2.047803 -1.106943 0
M  V30 13 C -0.874037 1.869297 -1.529937 0
M  V30 14 C -1.846982 2.938444 -1.467021 0
M  V30 15 C -3.092143 2.699913 -1.907479 0
M  V30 16 C -3.421769 1.378433 -2.432069 0
M  V30 17 O -4.596587 1.131792 -2.854650 0
M  V30 18 C -2.415898 0.303107 -2.487379 0
M  V30 19 Br -2.874803 -1.427574 -3.182315 0
M  V30 20 C -1.167017 0.520163 -2.052797 0
M  V30 21 C 2.415837 -0.153868 3.017748 0
M  V30 22 N 2.491652 -0.768355 4.346500 0 CHG=1 VAL=4
M  V30 23 C 1.740461 -2.865918 1.565043 0
M  V30 24 H 2.206906 -4.848059 0.919566 0
M  V30 25 H 0.110734 -5.770994 1.902783 0
M  V30 26 H -0.998982 -1.954967 3.262797 0
M  V30 27 H 0.297258 -0.188837 3.086301 0
M  V30 28 H 2.428743 -0.468053 -0.107421 0
M  V30 29 H 1.955655 0.993320 -2.000106 0
M  V30 30 H 0.616718 3.038003 -0.716294 0
M  V30 31 H -1.571385 3.913722 -1.070452 0
M  V30 32 H -3.850138 3.482732 -1.874664 0
M  V30 33 H -0.406808 -0.254624 -2.082297 0
M  V30 34 H 2.443109 0.938397 3.208056 0
M  V30 35 H 3.288888 -0.387235 2.399269 0
M  V30 36 H 1.873677 -1.607379 4.405578 0
M  V30 37 H 2.152789 -0.117926 5.081863 0
M  V30 38 H 3.483843 -1.021894 4.561454 0
M  V30 39 H 2.651564 -2.469567 1.141936 0
M  V30 END ATOM
M  V30 BEGIN BOND
M  V30 1 2 1 2
M  V30 2 1 2 3
M  V30 3 1 3 4
M  V30 4 2 3 5
M  V30 5 1 5 6
M  V30 6 1 6 7
M  V30 7 1 7 8
M  V30 8 2 8 9
M  V30 9 1 8 10
M  V30 10 1 10 11
M  V30 11 1 11 12
M  V30 12 2 12 13
M  V30 13 1 13 14
M  V30 14 2 14 15
M  V30 15 1 15 16
M  V30 16 2 16 17
M  V30 17 1 16 18
M  V30 18 1 18 19
M  V30 19 2 18 20
M  V30 20 1 7 21
M  V30 21 1 21 22
M  V30 22 2 6 23
M  V30 23 1 23 1
M  V30 24 1 20 13
M  V30 25 1 1 24
M  V30 26 1 2 25
M  V30 27 1 5 26
M  V30 28 1 7 27 CFG=1
M  V30 29 1 10 28
M  V30 30 1 11 29
M  V30 31 1 12 30
M  V30 32 1 14 31
M  V30 33 1 15 32
M  V30 34 1 20 33
M  V30 35 1 21 34
M  V30 36 1 21 35
M  V30 37 1 22 36
M  V30 38 1 22 37
M  V30 39 1 22 38
M  V30 40 1 23 39
M  V30 END BOND
M  V30 END CTAB
M  END
>  <Dataset>  (258) 
PDB

>  <Ligand_Instance>  (258) 
7BAR_T82_A_401

>  <PDB_ID>  (258) 
7BAR

>  <Standardized_SMILES>  (258) 
[H]C1=C([H])C(Cl)=C([H])C([C@]([H])(C(=O)N([H])N([H])/C([H])=C2/C([H])=C([H])C(=O)C(Br)=C2[H])C([H])([H])[N+]([H])([H])[H])=C1[H]

>  <Name>  (258) 
(S,E)-3-(2-(3-bromo-4-hydroxybenzylidene)hydrazineyl)-2-(3-chlorophenyl)-3-oxopropan-1-aminium

>  <Pocket>  (258) 
A

>  <ATP_Site>  (258) 
1.0

>  <Peripheral>  (258) 
0.0

>  <Num_H_Atoms_ProtBoundConf>  (258) 
16.0

>  <Num_Resolved_Atoms>  (258) 
23.0

>  <Num_Not_Resolved_Atoms>  (258) 
0.0

>  <2D_Mol_H>  (258) 
<rdkit.Chem.rdchem.Mol object at 0x72a239100ac0>

>  <MW>  (258) 
397.68

>  <HBA>  (258) 
3

>  <HBD>  (258) 
3

>  <LogP>  (258) 
1.5879

>  <NRB>  (258) 
6

>  <TPSA>  (258) 
85.84

>  <Num_Heavy_Atoms>  (258) 
23

>  <Ro5>  (258) 
[True, True, True, True, True, True]

>  <Ro5_Fulfilled>  (258) 
True

>  <Ro3>  (258) 
[False, True, True, True]

>  <Ro3_Fulfilled>  (258) 
True

>  <Fsp3>  (258) 
0.125

>  <Fsp3_0.42>  (258) 
False

>  <Fsp3_0.45>  (258) 
False

>  <Stereogenic_Carbons>  (258) 
1

>  <C_Atoms>  (258) 
16

>  <FCStereo>  (258) 
0.0625

>  <SPS>  (258) 
389

>  <nSPS>  (258) 
16.913043

>  <PBF>  (258) 
1.082834

>  <PBF_0.6>  (258) 
True

>  <nPBF>  (258) 
0.04708

>  <nPBF_0.016>  (258) 
True

>  <PMI1>  (258) 
2172.71038

>  <PMI2>  (258) 
4512.247812

>  <PMI3>  (258) 
5783.041979

>  <NPR1>  (258) 
0.375704

>  <NPR2>  (258) 
0.780255

>  <Sum_NPR>  (258) 
1.155959

>  <Sum_NPR_1.07>  (258) 
True

>  <Sum_NPR_1.2>  (258) 
False

>  <MaxAbsEStateIndex>  (258) 
12.261332

>  <MaxEStateIndex>  (258) 
12.261332

>  <MinAbsEStateIndex>  (258) 
0.093275

>  <MinEStateIndex>  (258) 
-0.39782

>  <qed>  (258) 
0.659587

>  <MolWt>  (258) 
397.68

>  <HeavyAtomMolWt>  (258) 
381.552

>  <ExactMolWt>  (258) 
396.010893

>  <NumValenceElectrons>  (258) 
120

>  <NumRadicalElectrons>  (258) 
0

>  <MaxPartialCharge>  (258) 
0.251069

>  <MinPartialCharge>  (258) 
-0.356616

>  <MaxAbsPartialCharge>  (258) 
0.356616

>  <MinAbsPartialCharge>  (258) 
0.251069

>  <FpDensityMorgan1>  (258) 
1.391304

>  <FpDensityMorgan2>  (258) 
2.173913

>  <FpDensityMorgan3>  (258) 
2.826087

>  <BCUT2D_MWHI>  (258) 
79.918732

>  <BCUT2D_MWLOW>  (258) 
9.986335

>  <BCUT2D_CHGHI>  (258) 
2.204818

>  <BCUT2D_CHGLO>  (258) 
-2.140067

>  <BCUT2D_LOGPHI>  (258) 
2.189102

>  <BCUT2D_LOGPLOW>  (258) 
-2.5602

>  <BCUT2D_MRHI>  (258) 
9.117547

>  <BCUT2D_MRLOW>  (258) 
-0.369571

>  <AvgIpc>  (258) 
2.515329

>  <BalabanJ>  (258) 
1.98442

>  <BertzCT>  (258) 
713.031829

>  <Chi0>  (258) 
16.819626

>  <Chi0n>  (258) 
12.182792

>  <Chi0v>  (258) 
14.524717

>  <Chi1>  (258) 
11.007239

>  <Chi1n>  (258) 
6.908563

>  <Chi1v>  (258) 
8.079525

>  <Chi2n>  (258) 
4.864052

>  <Chi2v>  (258) 
6.154824

>  <Chi3n>  (258) 
3.246349

>  <Chi3v>  (258) 
4.101154

>  <Chi4n>  (258) 
2.057008

>  <Chi4v>  (258) 
2.652235

>  <HallKierAlpha>  (258) 
-1.89

>  <Ipc>  (258) 
132230.855394

>  <Kappa1>  (258) 
17.463645

>  <Kappa2>  (258) 
8.100502

>  <Kappa3>  (258) 
4.789245

>  <LabuteASA>  (258) 
146.909793

>  <PEOE_VSA1>  (258) 
11.159459

>  <PEOE_VSA10>  (258) 
5.917906

>  <PEOE_VSA11>  (258) 
5.783245

>  <PEOE_VSA12>  (258) 
0.0

>  <PEOE_VSA13>  (258) 
5.90718

>  <PEOE_VSA14>  (258) 
0.0

>  <PEOE_VSA2>  (258) 
15.014866

>  <PEOE_VSA3>  (258) 
0.0

>  <PEOE_VSA4>  (258) 
0.0

>  <PEOE_VSA5>  (258) 
0.0

>  <PEOE_VSA6>  (258) 
23.733674

>  <PEOE_VSA7>  (258) 
57.427294

>  <PEOE_VSA8>  (258) 
11.222588

>  <PEOE_VSA9>  (258) 
11.027129

>  <SMR_VSA1>  (258) 
15.322742

>  <SMR_VSA10>  (258) 
39.221308

>  <SMR_VSA2>  (258) 
0.0

>  <SMR_VSA3>  (258) 
10.851583

>  <SMR_VSA4>  (258) 
0.0

>  <SMR_VSA5>  (258) 
5.917906

>  <SMR_VSA6>  (258) 
6.544756

>  <SMR_VSA7>  (258) 
69.335045

>  <SMR_VSA8>  (258) 
0.0

>  <SMR_VSA9>  (258) 
0.0

>  <SlogP_VSA1>  (258) 
16.58525

>  <SlogP_VSA10>  (258) 
0.0

>  <SlogP_VSA11>  (258) 
0.0

>  <SlogP_VSA12>  (258) 
27.530884

>  <SlogP_VSA2>  (258) 
18.235181

>  <SlogP_VSA3>  (258) 
9.589074

>  <SlogP_VSA4>  (258) 
0.0

>  <SlogP_VSA5>  (258) 
11.481358

>  <SlogP_VSA6>  (258) 
58.748961

>  <SlogP_VSA7>  (258) 
5.022633

>  <SlogP_VSA8>  (258) 
0.0

>  <SlogP_VSA9>  (258) 
0.0

>  <EState_VSA1>  (258) 
5.917906

>  <EState_VSA10>  (258) 
9.589074

>  <EState_VSA11>  (258) 
0.0

>  <EState_VSA2>  (258) 
11.690425

>  <EState_VSA3>  (258) 
16.049762

>  <EState_VSA4>  (258) 
11.136556

>  <EState_VSA5>  (258) 
6.07602

>  <EState_VSA6>  (258) 
36.551096

>  <EState_VSA7>  (258) 
6.066367

>  <EState_VSA8>  (258) 
32.515194

>  <EState_VSA9>  (258) 
11.60094

>  <VSA_EState1>  (258) 
0.46661

>  <VSA_EState10>  (258) 
9.128926

>  <VSA_EState2>  (258) 
23.558467

>  <VSA_EState3>  (258) 
0.579467

>  <VSA_EState4>  (258) 
10.735862

>  <VSA_EState5>  (258) 
-0.701255

>  <VSA_EState6>  (258) 
7.154491

>  <VSA_EState7>  (258) 
6.36485

>  <VSA_EState8>  (258) 
0.407026

>  <VSA_EState9>  (258) 
0.0

>  <FractionCSP3>  (258) 
0.125

>  <HeavyAtomCount>  (258) 
23

>  <NHOHCount>  (258) 
5

>  <NOCount>  (258) 
5

>  <NumAliphaticCarbocycles>  (258) 
1

>  <NumAliphaticHeterocycles>  (258) 
0

>  <NumAliphaticRings>  (258) 
1

>  <NumAromaticCarbocycles>  (258) 
1

>  <NumAromaticHeterocycles>  (258) 
0

>  <NAR>  (258) 
1

>  <NumHAcceptors>  (258) 
3

>  <NumHDonors>  (258) 
3

>  <NumHeteroatoms>  (258) 
7

>  <NumRotatableBonds>  (258) 
5

>  <NumSaturatedCarbocycles>  (258) 
0

>  <NumSaturatedHeterocycles>  (258) 
0

>  <NumSaturatedRings>  (258) 
0

>  <RingCount>  (258) 
2

>  <MolLogP>  (258) 
1.5879

>  <MolMR>  (258) 
92.4665

>  <fr_Al_COO>  (258) 
0

>  <fr_Al_OH>  (258) 
0

>  <fr_Al_OH_noTert>  (258) 
0

>  <fr_ArN>  (258) 
0

>  <fr_Ar_COO>  (258) 
0

>  <fr_Ar_N>  (258) 
0

>  <fr_Ar_NH>  (258) 
0

>  <fr_Ar_OH>  (258) 
0

>  <fr_COO>  (258) 
0

>  <fr_COO2>  (258) 
0

>  <fr_C_O>  (258) 
2

>  <fr_C_O_noCOO>  (258) 
2

>  <fr_C_S>  (258) 
0

>  <fr_HOCCN>  (258) 
0

>  <fr_Imine>  (258) 
0

>  <fr_NH0>  (258) 
0

>  <fr_NH1>  (258) 
2

>  <fr_NH2>  (258) 
0

>  <fr_N_O>  (258) 
0

>  <fr_Ndealkylation1>  (258) 
0

>  <fr_Ndealkylation2>  (258) 
0

>  <fr_Nhpyrrole>  (258) 
0

>  <fr_SH>  (258) 
0

>  <fr_aldehyde>  (258) 
0

>  <fr_alkyl_carbamate>  (258) 
0

>  <fr_alkyl_halide>  (258) 
0

>  <fr_allylic_oxid>  (258) 
5

>  <fr_amide>  (258) 
1

>  <fr_amidine>  (258) 
0

>  <fr_aniline>  (258) 
0

>  <fr_aryl_methyl>  (258) 
0

>  <fr_azide>  (258) 
0

>  <fr_azo>  (258) 
0

>  <fr_barbitur>  (258) 
0

>  <fr_benzene>  (258) 
1

>  <fr_benzodiazepine>  (258) 
0

>  <fr_bicyclic>  (258) 
0

>  <fr_diazo>  (258) 
0

>  <fr_dihydropyridine>  (258) 
0

>  <fr_epoxide>  (258) 
0

>  <fr_ester>  (258) 
0

>  <fr_ether>  (258) 
0

>  <fr_furan>  (258) 
0

>  <fr_guanido>  (258) 
0

>  <fr_halogen>  (258) 
2

>  <fr_hdrzine>  (258) 
1

>  <fr_hdrzone>  (258) 
0

>  <fr_imidazole>  (258) 
0

>  <fr_imide>  (258) 
0

>  <fr_isocyan>  (258) 
0

>  <fr_isothiocyan>  (258) 
0

>  <fr_ketone>  (258) 
1

>  <fr_ketone_Topliss>  (258) 
0

>  <fr_lactam>  (258) 
0

>  <fr_lactone>  (258) 
0

>  <fr_methoxy>  (258) 
0

>  <fr_morpholine>  (258) 
0

>  <fr_nitrile>  (258) 
0

>  <fr_nitro>  (258) 
0

>  <fr_nitro_arom>  (258) 
0

>  <fr_nitro_arom_nonortho>  (258) 
0

>  <fr_nitroso>  (258) 
0

>  <fr_oxazole>  (258) 
0

>  <fr_oxime>  (258) 
0

>  <fr_para_hydroxylation>  (258) 
0

>  <fr_phenol>  (258) 
0

>  <fr_phenol_noOrthoHbond>  (258) 
0

>  <fr_phos_acid>  (258) 
0

>  <fr_phos_ester>  (258) 
0

>  <fr_piperdine>  (258) 
0

>  <fr_piperzine>  (258) 
0

>  <fr_priamide>  (258) 
0

>  <fr_prisulfonamd>  (258) 
0

>  <fr_pyridine>  (258) 
0

>  <fr_quatN>  (258) 
1

>  <fr_sulfide>  (258) 
0

>  <fr_sulfonamd>  (258) 
0

>  <fr_sulfone>  (258) 
0

>  <fr_term_acetylene>  (258) 
0

>  <fr_tetrazole>  (258) 
0

>  <fr_thiazole>  (258) 
0

>  <fr_thiocyan>  (258) 
0

>  <fr_thiophene>  (258) 
0

>  <fr_unbrch_alkane>  (258) 
0

>  <fr_urea>  (258) 
0

>  <NP-Likeness>  (258) 
-0.586272

$$$$
UNU
     RDKit          3D

  0  0  0  0  0  0  0  0  0  0999 V3000
M  V30 BEGIN CTAB
M  V30 COUNTS 16 16 0 0 0
M  V30 BEGIN ATOM
M  V30 1 C -0.532898 -0.866664 -0.321976 0
M  V30 2 C -0.126521 -1.572858 0.799265 0
M  V30 3 C 0.930746 -1.112701 1.579238 0
M  V30 4 C 1.587665 0.055298 1.243326 0
M  V30 5 C 2.693847 0.527008 2.068446 0
M  V30 6 O 3.030774 -0.143871 3.077359 0
M  V30 7 N 3.370772 1.729803 1.723154 0
M  V30 8 C 1.198705 0.779712 0.125033 0
M  V30 9 C 0.139420 0.296645 -0.635936 0
M  V30 10 H -1.353049 -1.256211 -0.896697 0
M  V30 11 H -0.591502 -2.496943 1.127593 0
M  V30 12 H 1.275248 -1.639287 2.462697 0
M  V30 13 H 3.390905 2.764544 1.950940 0
M  V30 14 H 4.152780 1.904395 1.034742 0
M  V30 15 H 1.693239 1.701238 -0.167154 0
M  V30 16 H -0.152221 0.865673 -1.498481 0
M  V30 END ATOM
M  V30 BEGIN BOND
M  V30 1 2 1 2
M  V30 2 1 2 3
M  V30 3 2 3 4
M  V30 4 1 4 5
M  V30 5 2 5 6
M  V30 6 1 5 7
M  V30 7 1 4 8
M  V30 8 2 8 9
M  V30 9 1 9 1
M  V30 10 1 1 10
M  V30 11 1 2 11
M  V30 12 1 3 12
M  V30 13 1 7 13
M  V30 14 1 7 14
M  V30 15 1 8 15
M  V30 16 1 9 16
M  V30 END BOND
M  V30 END CTAB
M  END
>  <Dataset>  (259) 
PDB

>  <Ligand_Instance>  (259) 
6SNX_UNU_A_401

>  <PDB_ID>  (259) 
6SNX

>  <Standardized_SMILES>  (259) 
[H]C1=C([H])C([H])=C(C(=O)N([H])[H])C([H])=C1[H]

>  <Name>  (259) 
BENZAMIDE

>  <Pocket>  (259) 
A

>  <ATP_Site>  (259) 
1.0

>  <Peripheral>  (259) 
1.0

>  <Num_H_Atoms_ProtBoundConf>  (259) 
7.0

>  <Num_Resolved_Atoms>  (259) 
9.0

>  <Num_Not_Resolved_Atoms>  (259) 
0.0

>  <2D_Mol_H>  (259) 
<rdkit.Chem.rdchem.Mol object at 0x72a239100ba0>

>  <MW>  (259) 
121.139

>  <HBA>  (259) 
1

>  <HBD>  (259) 
1

>  <LogP>  (259) 
0.7855

>  <NRB>  (259) 
1

>  <TPSA>  (259) 
43.09

>  <Num_Heavy_Atoms>  (259) 
9

>  <Ro5>  (259) 
[True, True, True, True, True, True]

>  <Ro5_Fulfilled>  (259) 
True

>  <Ro3>  (259) 
[True, True, True, True]

>  <Ro3_Fulfilled>  (259) 
True

>  <Fsp3>  (259) 
0.0

>  <Fsp3_0.42>  (259) 
False

>  <Fsp3_0.45>  (259) 
False

>  <Stereogenic_Carbons>  (259) 
0

>  <C_Atoms>  (259) 
7

>  <FCStereo>  (259) 
0.0

>  <SPS>  (259) 
80

>  <nSPS>  (259) 
8.888889

>  <PBF>  (259) 
0.09887

>  <PBF_0.6>  (259) 
False

>  <nPBF>  (259) 
0.010986

>  <nPBF_0.016>  (259) 
False

>  <PMI1>  (259) 
135.248471

>  <PMI2>  (259) 
407.388402

>  <PMI3>  (259) 
540.490789

>  <NPR1>  (259) 
0.250233

>  <NPR2>  (259) 
0.753738

>  <Sum_NPR>  (259) 
1.003971

>  <Sum_NPR_1.07>  (259) 
False

>  <Sum_NPR_1.2>  (259) 
False

>  <MaxAbsEStateIndex>  (259) 
10.423148

>  <MaxEStateIndex>  (259) 
10.423148

>  <MinAbsEStateIndex>  (259) 
0.379074

>  <MinEStateIndex>  (259) 
-0.379074

>  <qed>  (259) 
0.585937

>  <MolWt>  (259) 
121.139

>  <HeavyAtomMolWt>  (259) 
114.083

>  <ExactMolWt>  (259) 
121.052764

>  <NumValenceElectrons>  (259) 
46

>  <NumRadicalElectrons>  (259) 
0

>  <MaxPartialCharge>  (259) 
0.248195

>  <MinPartialCharge>  (259) 
-0.3656

>  <MaxAbsPartialCharge>  (259) 
0.3656

>  <MinAbsPartialCharge>  (259) 
0.248195

>  <FpDensityMorgan1>  (259) 
1.222222

>  <FpDensityMorgan2>  (259) 
1.777778

>  <FpDensityMorgan3>  (259) 
2.111111

>  <BCUT2D_MWHI>  (259) 
16.146256

>  <BCUT2D_MWLOW>  (259) 
10.203416

>  <BCUT2D_CHGHI>  (259) 
1.932353

>  <BCUT2D_CHGLO>  (259) 
-1.889749

>  <BCUT2D_LOGPHI>  (259) 
1.942031

>  <BCUT2D_LOGPLOW>  (259) 
-2.094426

>  <BCUT2D_MRHI>  (259) 
5.920744

>  <BCUT2D_MRLOW>  (259) 
0.100007

>  <AvgIpc>  (259) 
1.900373

>  <BalabanJ>  (259) 
2.981455

>  <BertzCT>  (259) 
205.415953

>  <Chi0>  (259) 
6.690234

>  <Chi0n>  (259) 
4.87235

>  <Chi0v>  (259) 
4.87235

>  <Chi1>  (259) 
4.30453

>  <Chi1n>  (259) 
2.653483

>  <Chi1v>  (259) 
2.653483

>  <Chi2n>  (259) 
1.730276

>  <Chi2v>  (259) 
1.730276

>  <Chi3n>  (259) 
1.058307

>  <Chi3v>  (259) 
1.058307

>  <Chi4n>  (259) 
0.602419

>  <Chi4v>  (259) 
0.602419

>  <HallKierAlpha>  (259) 
-1.31

>  <Ipc>  (259) 
129.225339

>  <Kappa1>  (259) 
5.820039

>  <Kappa2>  (259) 
2.306764

>  <Kappa3>  (259) 
1.287705

>  <LabuteASA>  (259) 
53.297758

>  <PEOE_VSA1>  (259) 
5.733667

>  <PEOE_VSA10>  (259) 
0.0

>  <PEOE_VSA11>  (259) 
0.0

>  <PEOE_VSA12>  (259) 
5.90718

>  <PEOE_VSA13>  (259) 
0.0

>  <PEOE_VSA14>  (259) 
0.0

>  <PEOE_VSA2>  (259) 
4.794537

>  <PEOE_VSA3>  (259) 
0.0

>  <PEOE_VSA4>  (259) 
0.0

>  <PEOE_VSA5>  (259) 
0.0

>  <PEOE_VSA6>  (259) 
18.199101

>  <PEOE_VSA7>  (259) 
12.132734

>  <PEOE_VSA8>  (259) 
5.563451

>  <PEOE_VSA9>  (259) 
0.0

>  <SMR_VSA1>  (259) 
4.794537

>  <SMR_VSA10>  (259) 
5.90718

>  <SMR_VSA2>  (259) 
0.0

>  <SMR_VSA3>  (259) 
0.0

>  <SMR_VSA4>  (259) 
5.733667

>  <SMR_VSA5>  (259) 
0.0

>  <SMR_VSA6>  (259) 
0.0

>  <SMR_VSA7>  (259) 
35.895287

>  <SMR_VSA8>  (259) 
0.0

>  <SMR_VSA9>  (259) 
0.0

>  <SlogP_VSA1>  (259) 
5.733667

>  <SlogP_VSA10>  (259) 
0.0

>  <SlogP_VSA11>  (259) 
0.0

>  <SlogP_VSA12>  (259) 
0.0

>  <SlogP_VSA2>  (259) 
5.90718

>  <SlogP_VSA3>  (259) 
0.0

>  <SlogP_VSA4>  (259) 
0.0

>  <SlogP_VSA5>  (259) 
10.357989

>  <SlogP_VSA6>  (259) 
30.331835

>  <SlogP_VSA7>  (259) 
0.0

>  <SlogP_VSA8>  (259) 
0.0

>  <SlogP_VSA9>  (259) 
0.0

>  <EState_VSA1>  (259) 
0.0

>  <EState_VSA10>  (259) 
4.794537

>  <EState_VSA11>  (259) 
0.0

>  <EState_VSA2>  (259) 
5.90718

>  <EState_VSA3>  (259) 
5.563451

>  <EState_VSA4>  (259) 
0.0

>  <EState_VSA5>  (259) 
0.0

>  <EState_VSA6>  (259) 
24.265468

>  <EState_VSA7>  (259) 
6.066367

>  <EState_VSA8>  (259) 
0.0

>  <EState_VSA9>  (259) 
5.733667

>  <VSA_EState1>  (259) 
0.0

>  <VSA_EState10>  (259) 
0.0

>  <VSA_EState2>  (259) 
10.423148

>  <VSA_EState3>  (259) 
0.0

>  <VSA_EState4>  (259) 
5.528056

>  <VSA_EState5>  (259) 
-0.379074

>  <VSA_EState6>  (259) 
8.761204

>  <VSA_EState7>  (259) 
0.0

>  <VSA_EState8>  (259) 
0.0

>  <VSA_EState9>  (259) 
0.0

>  <FractionCSP3>  (259) 
0.0

>  <HeavyAtomCount>  (259) 
9

>  <NHOHCount>  (259) 
2

>  <NOCount>  (259) 
2

>  <NumAliphaticCarbocycles>  (259) 
0

>  <NumAliphaticHeterocycles>  (259) 
0

>  <NumAliphaticRings>  (259) 
0

>  <NumAromaticCarbocycles>  (259) 
1

>  <NumAromaticHeterocycles>  (259) 
0

>  <NAR>  (259) 
1

>  <NumHAcceptors>  (259) 
1

>  <NumHDonors>  (259) 
1

>  <NumHeteroatoms>  (259) 
2

>  <NumRotatableBonds>  (259) 
1

>  <NumSaturatedCarbocycles>  (259) 
0

>  <NumSaturatedHeterocycles>  (259) 
0

>  <NumSaturatedRings>  (259) 
0

>  <RingCount>  (259) 
1

>  <MolLogP>  (259) 
0.7855

>  <MolMR>  (259) 
34.9599

>  <fr_Al_COO>  (259) 
0

>  <fr_Al_OH>  (259) 
0

>  <fr_Al_OH_noTert>  (259) 
0

>  <fr_ArN>  (259) 
0

>  <fr_Ar_COO>  (259) 
0

>  <fr_Ar_N>  (259) 
0

>  <fr_Ar_NH>  (259) 
0

>  <fr_Ar_OH>  (259) 
0

>  <fr_COO>  (259) 
0

>  <fr_COO2>  (259) 
0

>  <fr_C_O>  (259) 
1

>  <fr_C_O_noCOO>  (259) 
1

>  <fr_C_S>  (259) 
0

>  <fr_HOCCN>  (259) 
0

>  <fr_Imine>  (259) 
0

>  <fr_NH0>  (259) 
0

>  <fr_NH1>  (259) 
0

>  <fr_NH2>  (259) 
1

>  <fr_N_O>  (259) 
0

>  <fr_Ndealkylation1>  (259) 
0

>  <fr_Ndealkylation2>  (259) 
0

>  <fr_Nhpyrrole>  (259) 
0

>  <fr_SH>  (259) 
0

>  <fr_aldehyde>  (259) 
0

>  <fr_alkyl_carbamate>  (259) 
0

>  <fr_alkyl_halide>  (259) 
0

>  <fr_allylic_oxid>  (259) 
0

>  <fr_amide>  (259) 
1

>  <fr_amidine>  (259) 
0

>  <fr_aniline>  (259) 
0

>  <fr_aryl_methyl>  (259) 
0

>  <fr_azide>  (259) 
0

>  <fr_azo>  (259) 
0

>  <fr_barbitur>  (259) 
0

>  <fr_benzene>  (259) 
1

>  <fr_benzodiazepine>  (259) 
0

>  <fr_bicyclic>  (259) 
0

>  <fr_diazo>  (259) 
0

>  <fr_dihydropyridine>  (259) 
0

>  <fr_epoxide>  (259) 
0

>  <fr_ester>  (259) 
0

>  <fr_ether>  (259) 
0

>  <fr_furan>  (259) 
0

>  <fr_guanido>  (259) 
0

>  <fr_halogen>  (259) 
0

>  <fr_hdrzine>  (259) 
0

>  <fr_hdrzone>  (259) 
0

>  <fr_imidazole>  (259) 
0

>  <fr_imide>  (259) 
0

>  <fr_isocyan>  (259) 
0

>  <fr_isothiocyan>  (259) 
0

>  <fr_ketone>  (259) 
0

>  <fr_ketone_Topliss>  (259) 
0

>  <fr_lactam>  (259) 
0

>  <fr_lactone>  (259) 
0

>  <fr_methoxy>  (259) 
0

>  <fr_morpholine>  (259) 
0

>  <fr_nitrile>  (259) 
0

>  <fr_nitro>  (259) 
0

>  <fr_nitro_arom>  (259) 
0

>  <fr_nitro_arom_nonortho>  (259) 
0

>  <fr_nitroso>  (259) 
0

>  <fr_oxazole>  (259) 
0

>  <fr_oxime>  (259) 
0

>  <fr_para_hydroxylation>  (259) 
0

>  <fr_phenol>  (259) 
0

>  <fr_phenol_noOrthoHbond>  (259) 
0

>  <fr_phos_acid>  (259) 
0

>  <fr_phos_ester>  (259) 
0

>  <fr_piperdine>  (259) 
0

>  <fr_piperzine>  (259) 
0

>  <fr_priamide>  (259) 
1

>  <fr_prisulfonamd>  (259) 
0

>  <fr_pyridine>  (259) 
0

>  <fr_quatN>  (259) 
0

>  <fr_sulfide>  (259) 
0

>  <fr_sulfonamd>  (259) 
0

>  <fr_sulfone>  (259) 
0

>  <fr_term_acetylene>  (259) 
0

>  <fr_tetrazole>  (259) 
0

>  <fr_thiazole>  (259) 
0

>  <fr_thiocyan>  (259) 
0

>  <fr_thiophene>  (259) 
0

>  <fr_unbrch_alkane>  (259) 
0

>  <fr_urea>  (259) 
0

>  <NP-Likeness>  (259) 
-0.889778

$$$$
UNU
     RDKit          3D

  0  0  0  0  0  0  0  0  0  0999 V3000
M  V30 BEGIN CTAB
M  V30 COUNTS 16 16 0 0 0
M  V30 BEGIN ATOM
M  V30 1 C -0.532898 -0.866664 -0.321976 0
M  V30 2 C -0.126521 -1.572858 0.799265 0
M  V30 3 C 0.930746 -1.112701 1.579238 0
M  V30 4 C 1.587665 0.055298 1.243326 0
M  V30 5 C 2.693847 0.527008 2.068446 0
M  V30 6 O 3.030774 -0.143871 3.077359 0
M  V30 7 N 3.370772 1.729803 1.723154 0
M  V30 8 C 1.198705 0.779712 0.125033 0
M  V30 9 C 0.139420 0.296645 -0.635936 0
M  V30 10 H -1.353049 -1.256211 -0.896697 0
M  V30 11 H -0.591502 -2.496943 1.127593 0
M  V30 12 H 1.275248 -1.639287 2.462697 0
M  V30 13 H 3.390905 2.764544 1.950940 0
M  V30 14 H 4.152780 1.904395 1.034742 0
M  V30 15 H 1.693239 1.701238 -0.167154 0
M  V30 16 H -0.152221 0.865673 -1.498481 0
M  V30 END ATOM
M  V30 BEGIN BOND
M  V30 1 2 1 2
M  V30 2 1 2 3
M  V30 3 2 3 4
M  V30 4 1 4 5
M  V30 5 2 5 6
M  V30 6 1 5 7
M  V30 7 1 4 8
M  V30 8 2 8 9
M  V30 9 1 9 1
M  V30 10 1 1 10
M  V30 11 1 2 11
M  V30 12 1 3 12
M  V30 13 1 7 13
M  V30 14 1 7 14
M  V30 15 1 8 15
M  V30 16 1 9 16
M  V30 END BOND
M  V30 END CTAB
M  END
>  <Dataset>  (260) 
PDB

>  <Ligand_Instance>  (260) 
6SNX_UNU_A_402

>  <PDB_ID>  (260) 
6SNX

>  <Standardized_SMILES>  (260) 
[H]C1=C([H])C([H])=C(C(=O)N([H])[H])C([H])=C1[H]

>  <Name>  (260) 
BENZAMIDE

>  <Pocket>  (260) 
F

>  <ATP_Site>  (260) 
1.0

>  <Peripheral>  (260) 
1.0

>  <Num_H_Atoms_ProtBoundConf>  (260) 
7.0

>  <Num_Resolved_Atoms>  (260) 
9.0

>  <Num_Not_Resolved_Atoms>  (260) 
0.0

>  <2D_Mol_H>  (260) 
<rdkit.Chem.rdchem.Mol object at 0x72a239100c80>

>  <MW>  (260) 
121.139

>  <HBA>  (260) 
1

>  <HBD>  (260) 
1

>  <LogP>  (260) 
0.7855

>  <NRB>  (260) 
1

>  <TPSA>  (260) 
43.09

>  <Num_Heavy_Atoms>  (260) 
9

>  <Ro5>  (260) 
[True, True, True, True, True, True]

>  <Ro5_Fulfilled>  (260) 
True

>  <Ro3>  (260) 
[True, True, True, True]

>  <Ro3_Fulfilled>  (260) 
True

>  <Fsp3>  (260) 
0.0

>  <Fsp3_0.42>  (260) 
False

>  <Fsp3_0.45>  (260) 
False

>  <Stereogenic_Carbons>  (260) 
0

>  <C_Atoms>  (260) 
7

>  <FCStereo>  (260) 
0.0

>  <SPS>  (260) 
80

>  <nSPS>  (260) 
8.888889

>  <PBF>  (260) 
0.09887

>  <PBF_0.6>  (260) 
False

>  <nPBF>  (260) 
0.010986

>  <nPBF_0.016>  (260) 
False

>  <PMI1>  (260) 
135.248471

>  <PMI2>  (260) 
407.388402

>  <PMI3>  (260) 
540.490789

>  <NPR1>  (260) 
0.250233

>  <NPR2>  (260) 
0.753738

>  <Sum_NPR>  (260) 
1.003971

>  <Sum_NPR_1.07>  (260) 
False

>  <Sum_NPR_1.2>  (260) 
False

>  <MaxAbsEStateIndex>  (260) 
10.423148

>  <MaxEStateIndex>  (260) 
10.423148

>  <MinAbsEStateIndex>  (260) 
0.379074

>  <MinEStateIndex>  (260) 
-0.379074

>  <qed>  (260) 
0.585937

>  <MolWt>  (260) 
121.139

>  <HeavyAtomMolWt>  (260) 
114.083

>  <ExactMolWt>  (260) 
121.052764

>  <NumValenceElectrons>  (260) 
46

>  <NumRadicalElectrons>  (260) 
0

>  <MaxPartialCharge>  (260) 
0.248195

>  <MinPartialCharge>  (260) 
-0.3656

>  <MaxAbsPartialCharge>  (260) 
0.3656

>  <MinAbsPartialCharge>  (260) 
0.248195

>  <FpDensityMorgan1>  (260) 
1.222222

>  <FpDensityMorgan2>  (260) 
1.777778

>  <FpDensityMorgan3>  (260) 
2.111111

>  <BCUT2D_MWHI>  (260) 
16.146256

>  <BCUT2D_MWLOW>  (260) 
10.203416

>  <BCUT2D_CHGHI>  (260) 
1.932353

>  <BCUT2D_CHGLO>  (260) 
-1.889749

>  <BCUT2D_LOGPHI>  (260) 
1.942031

>  <BCUT2D_LOGPLOW>  (260) 
-2.094426

>  <BCUT2D_MRHI>  (260) 
5.920744

>  <BCUT2D_MRLOW>  (260) 
0.100007

>  <AvgIpc>  (260) 
1.900373

>  <BalabanJ>  (260) 
2.981455

>  <BertzCT>  (260) 
205.415953

>  <Chi0>  (260) 
6.690234

>  <Chi0n>  (260) 
4.87235

>  <Chi0v>  (260) 
4.87235

>  <Chi1>  (260) 
4.30453

>  <Chi1n>  (260) 
2.653483

>  <Chi1v>  (260) 
2.653483

>  <Chi2n>  (260) 
1.730276

>  <Chi2v>  (260) 
1.730276

>  <Chi3n>  (260) 
1.058307

>  <Chi3v>  (260) 
1.058307

>  <Chi4n>  (260) 
0.602419

>  <Chi4v>  (260) 
0.602419

>  <HallKierAlpha>  (260) 
-1.31

>  <Ipc>  (260) 
129.225339

>  <Kappa1>  (260) 
5.820039

>  <Kappa2>  (260) 
2.306764

>  <Kappa3>  (260) 
1.287705

>  <LabuteASA>  (260) 
53.297758

>  <PEOE_VSA1>  (260) 
5.733667

>  <PEOE_VSA10>  (260) 
0.0

>  <PEOE_VSA11>  (260) 
0.0

>  <PEOE_VSA12>  (260) 
5.90718

>  <PEOE_VSA13>  (260) 
0.0

>  <PEOE_VSA14>  (260) 
0.0

>  <PEOE_VSA2>  (260) 
4.794537

>  <PEOE_VSA3>  (260) 
0.0

>  <PEOE_VSA4>  (260) 
0.0

>  <PEOE_VSA5>  (260) 
0.0

>  <PEOE_VSA6>  (260) 
18.199101

>  <PEOE_VSA7>  (260) 
12.132734

>  <PEOE_VSA8>  (260) 
5.563451

>  <PEOE_VSA9>  (260) 
0.0

>  <SMR_VSA1>  (260) 
4.794537

>  <SMR_VSA10>  (260) 
5.90718

>  <SMR_VSA2>  (260) 
0.0

>  <SMR_VSA3>  (260) 
0.0

>  <SMR_VSA4>  (260) 
5.733667

>  <SMR_VSA5>  (260) 
0.0

>  <SMR_VSA6>  (260) 
0.0

>  <SMR_VSA7>  (260) 
35.895287

>  <SMR_VSA8>  (260) 
0.0

>  <SMR_VSA9>  (260) 
0.0

>  <SlogP_VSA1>  (260) 
5.733667

>  <SlogP_VSA10>  (260) 
0.0

>  <SlogP_VSA11>  (260) 
0.0

>  <SlogP_VSA12>  (260) 
0.0

>  <SlogP_VSA2>  (260) 
5.90718

>  <SlogP_VSA3>  (260) 
0.0

>  <SlogP_VSA4>  (260) 
0.0

>  <SlogP_VSA5>  (260) 
10.357989

>  <SlogP_VSA6>  (260) 
30.331835

>  <SlogP_VSA7>  (260) 
0.0

>  <SlogP_VSA8>  (260) 
0.0

>  <SlogP_VSA9>  (260) 
0.0

>  <EState_VSA1>  (260) 
0.0

>  <EState_VSA10>  (260) 
4.794537

>  <EState_VSA11>  (260) 
0.0

>  <EState_VSA2>  (260) 
5.90718

>  <EState_VSA3>  (260) 
5.563451

>  <EState_VSA4>  (260) 
0.0

>  <EState_VSA5>  (260) 
0.0

>  <EState_VSA6>  (260) 
24.265468

>  <EState_VSA7>  (260) 
6.066367

>  <EState_VSA8>  (260) 
0.0

>  <EState_VSA9>  (260) 
5.733667

>  <VSA_EState1>  (260) 
0.0

>  <VSA_EState10>  (260) 
0.0

>  <VSA_EState2>  (260) 
10.423148

>  <VSA_EState3>  (260) 
0.0

>  <VSA_EState4>  (260) 
5.528056

>  <VSA_EState5>  (260) 
-0.379074

>  <VSA_EState6>  (260) 
8.761204

>  <VSA_EState7>  (260) 
0.0

>  <VSA_EState8>  (260) 
0.0

>  <VSA_EState9>  (260) 
0.0

>  <FractionCSP3>  (260) 
0.0

>  <HeavyAtomCount>  (260) 
9

>  <NHOHCount>  (260) 
2

>  <NOCount>  (260) 
2

>  <NumAliphaticCarbocycles>  (260) 
0

>  <NumAliphaticHeterocycles>  (260) 
0

>  <NumAliphaticRings>  (260) 
0

>  <NumAromaticCarbocycles>  (260) 
1

>  <NumAromaticHeterocycles>  (260) 
0

>  <NAR>  (260) 
1

>  <NumHAcceptors>  (260) 
1

>  <NumHDonors>  (260) 
1

>  <NumHeteroatoms>  (260) 
2

>  <NumRotatableBonds>  (260) 
1

>  <NumSaturatedCarbocycles>  (260) 
0

>  <NumSaturatedHeterocycles>  (260) 
0

>  <NumSaturatedRings>  (260) 
0

>  <RingCount>  (260) 
1

>  <MolLogP>  (260) 
0.7855

>  <MolMR>  (260) 
34.9599

>  <fr_Al_COO>  (260) 
0

>  <fr_Al_OH>  (260) 
0

>  <fr_Al_OH_noTert>  (260) 
0

>  <fr_ArN>  (260) 
0

>  <fr_Ar_COO>  (260) 
0

>  <fr_Ar_N>  (260) 
0

>  <fr_Ar_NH>  (260) 
0

>  <fr_Ar_OH>  (260) 
0

>  <fr_COO>  (260) 
0

>  <fr_COO2>  (260) 
0

>  <fr_C_O>  (260) 
1

>  <fr_C_O_noCOO>  (260) 
1

>  <fr_C_S>  (260) 
0

>  <fr_HOCCN>  (260) 
0

>  <fr_Imine>  (260) 
0

>  <fr_NH0>  (260) 
0

>  <fr_NH1>  (260) 
0

>  <fr_NH2>  (260) 
1

>  <fr_N_O>  (260) 
0

>  <fr_Ndealkylation1>  (260) 
0

>  <fr_Ndealkylation2>  (260) 
0

>  <fr_Nhpyrrole>  (260) 
0

>  <fr_SH>  (260) 
0

>  <fr_aldehyde>  (260) 
0

>  <fr_alkyl_carbamate>  (260) 
0

>  <fr_alkyl_halide>  (260) 
0

>  <fr_allylic_oxid>  (260) 
0

>  <fr_amide>  (260) 
1

>  <fr_amidine>  (260) 
0

>  <fr_aniline>  (260) 
0

>  <fr_aryl_methyl>  (260) 
0

>  <fr_azide>  (260) 
0

>  <fr_azo>  (260) 
0

>  <fr_barbitur>  (260) 
0

>  <fr_benzene>  (260) 
1

>  <fr_benzodiazepine>  (260) 
0

>  <fr_bicyclic>  (260) 
0

>  <fr_diazo>  (260) 
0

>  <fr_dihydropyridine>  (260) 
0

>  <fr_epoxide>  (260) 
0

>  <fr_ester>  (260) 
0

>  <fr_ether>  (260) 
0

>  <fr_furan>  (260) 
0

>  <fr_guanido>  (260) 
0

>  <fr_halogen>  (260) 
0

>  <fr_hdrzine>  (260) 
0

>  <fr_hdrzone>  (260) 
0

>  <fr_imidazole>  (260) 
0

>  <fr_imide>  (260) 
0

>  <fr_isocyan>  (260) 
0

>  <fr_isothiocyan>  (260) 
0

>  <fr_ketone>  (260) 
0

>  <fr_ketone_Topliss>  (260) 
0

>  <fr_lactam>  (260) 
0

>  <fr_lactone>  (260) 
0

>  <fr_methoxy>  (260) 
0

>  <fr_morpholine>  (260) 
0

>  <fr_nitrile>  (260) 
0

>  <fr_nitro>  (260) 
0

>  <fr_nitro_arom>  (260) 
0

>  <fr_nitro_arom_nonortho>  (260) 
0

>  <fr_nitroso>  (260) 
0

>  <fr_oxazole>  (260) 
0

>  <fr_oxime>  (260) 
0

>  <fr_para_hydroxylation>  (260) 
0

>  <fr_phenol>  (260) 
0

>  <fr_phenol_noOrthoHbond>  (260) 
0

>  <fr_phos_acid>  (260) 
0

>  <fr_phos_ester>  (260) 
0

>  <fr_piperdine>  (260) 
0

>  <fr_piperzine>  (260) 
0

>  <fr_priamide>  (260) 
1

>  <fr_prisulfonamd>  (260) 
0

>  <fr_pyridine>  (260) 
0

>  <fr_quatN>  (260) 
0

>  <fr_sulfide>  (260) 
0

>  <fr_sulfonamd>  (260) 
0

>  <fr_sulfone>  (260) 
0

>  <fr_term_acetylene>  (260) 
0

>  <fr_tetrazole>  (260) 
0

>  <fr_thiazole>  (260) 
0

>  <fr_thiocyan>  (260) 
0

>  <fr_thiophene>  (260) 
0

>  <fr_unbrch_alkane>  (260) 
0

>  <fr_urea>  (260) 
0

>  <NP-Likeness>  (260) 
-0.889778

$$$$
VUP
     RDKit          3D

  0  0  0  0  0  0  0  0  0  0999 V3000
M  V30 BEGIN CTAB
M  V30 COUNTS 30 32 0 0 0
M  V30 BEGIN ATOM
M  V30 1 C 1.456144 -2.371155 3.287759 0
M  V30 2 C 1.288537 -1.589522 2.171671 0
M  V30 3 N 2.198267 -1.168013 1.299402 0
M  V30 4 C 1.685016 -0.413059 0.313715 0
M  V30 5 C 2.521209 0.136954 -0.733745 0
M  V30 6 N 3.850328 -0.023918 -0.751907 0
M  V30 7 O 4.387029 0.563308 -1.744047 0
M  V30 8 N 3.484380 1.150815 -2.454609 0
M  V30 9 C 2.327315 0.886855 -1.829909 0
M  V30 10 N 1.144936 1.370294 -2.374966 0
M  V30 11 N 0.385288 -0.378649 0.616331 0
M  V30 12 C -0.663539 0.318865 -0.039777 0
M  V30 13 C -1.279545 -0.441074 -1.187486 0
M  V30 14 C 0.095457 -1.078797 1.733590 0
M  V30 15 C -1.026923 -1.376364 2.477186 0
M  V30 16 C -0.877761 -2.161311 3.603144 0
M  V30 17 C -2.088098 -2.484023 4.407704 0
M  V30 18 N 0.327401 -2.642493 3.994127 0
M  V30 19 H 2.445551 -2.721892 3.542850 0
M  V30 20 H 0.509470 0.901263 -3.034477 0
M  V30 21 H 0.382737 2.058377 -2.537015 0
M  V30 22 H -1.538740 0.509033 0.675774 0
M  V30 23 H -0.356739 1.315245 -0.378285 0
M  V30 24 H -0.551556 -1.018064 -1.775185 0
M  V30 25 H -2.083124 -1.128867 -0.856557 0
M  V30 26 H -1.768260 0.313388 -1.862540 0
M  V30 27 H -1.964697 -0.968940 2.123887 0
M  V30 28 H -1.761259 -2.516259 5.486780 0
M  V30 29 H -2.775171 -1.619168 4.317981 0
M  V30 30 H -2.550777 -3.439967 4.091508 0
M  V30 END ATOM
M  V30 BEGIN BOND
M  V30 1 2 1 2
M  V30 2 1 2 3
M  V30 3 2 3 4
M  V30 4 1 4 5
M  V30 5 2 5 6
M  V30 6 1 6 7
M  V30 7 1 7 8
M  V30 8 2 8 9
M  V30 9 1 9 10
M  V30 10 1 4 11
M  V30 11 1 11 12
M  V30 12 1 12 13
M  V30 13 1 11 14
M  V30 14 2 14 15
M  V30 15 1 15 16
M  V30 16 1 16 17
M  V30 17 2 16 18
M  V30 18 1 18 1
M  V30 19 1 14 2
M  V30 20 1 9 5
M  V30 21 1 1 19
M  V30 22 1 10 20
M  V30 23 1 10 21
M  V30 24 1 12 22
M  V30 25 1 12 23
M  V30 26 1 13 24
M  V30 27 1 13 25
M  V30 28 1 13 26
M  V30 29 1 15 27
M  V30 30 1 17 28
M  V30 31 1 17 29
M  V30 32 1 17 30
M  V30 END BOND
M  V30 END CTAB
M  END
>  <Dataset>  (261) 
PDB

>  <Ligand_Instance>  (261) 
4C38_VUP_A_1351

>  <PDB_ID>  (261) 
4C38

>  <Standardized_SMILES>  (261) 
[H]C1=C2N=C(C3=NON=C3N([H])[H])N(C([H])([H])C([H])([H])[H])C2=C([H])C(C([H])([H])[H])=N1

>  <Name>  (261) 
4-(1-ethyl-6-methyl-imidazo[4,5-c]pyridin-2-yl)-1,2,5-oxadiazol-3-amine

>  <Pocket>  (261) 
A

>  <ATP_Site>  (261) 
1.0

>  <Peripheral>  (261) 
0.0

>  <Num_H_Atoms_ProtBoundConf>  (261) 
12.0

>  <Num_Resolved_Atoms>  (261) 
18.0

>  <Num_Not_Resolved_Atoms>  (261) 
0.0

>  <2D_Mol_H>  (261) 
<rdkit.Chem.rdchem.Mol object at 0x72a239100d60>

>  <MW>  (261) 
244.258

>  <HBA>  (261) 
7

>  <HBD>  (261) 
1

>  <LogP>  (261) 
1.39182

>  <NRB>  (261) 
5

>  <TPSA>  (261) 
95.65

>  <Num_Heavy_Atoms>  (261) 
18

>  <Ro5>  (261) 
[True, True, True, True, True, True]

>  <Ro5_Fulfilled>  (261) 
True

>  <Ro3>  (261) 
[True, False, True, True]

>  <Ro3_Fulfilled>  (261) 
True

>  <Fsp3>  (261) 
0.272727

>  <Fsp3_0.42>  (261) 
False

>  <Fsp3_0.45>  (261) 
False

>  <Stereogenic_Carbons>  (261) 
0

>  <C_Atoms>  (261) 
11

>  <FCStereo>  (261) 
0.0

>  <SPS>  (261) 
202

>  <nSPS>  (261) 
11.222222

>  <PBF>  (261) 
0.432356

>  <PBF_0.6>  (261) 
False

>  <nPBF>  (261) 
0.02402

>  <nPBF_0.016>  (261) 
True

>  <PMI1>  (261) 
498.968956

>  <PMI2>  (261) 
2007.822857

>  <PMI3>  (261) 
2460.255038

>  <NPR1>  (261) 
0.202812

>  <NPR2>  (261) 
0.816104

>  <Sum_NPR>  (261) 
1.018915

>  <Sum_NPR_1.07>  (261) 
False

>  <Sum_NPR_1.2>  (261) 
False

>  <MaxAbsEStateIndex>  (261) 
5.711585

>  <MaxEStateIndex>  (261) 
5.711585

>  <MinAbsEStateIndex>  (261) 
0.240451

>  <MinEStateIndex>  (261) 
0.240451

>  <qed>  (261) 
0.731401

>  <MolWt>  (261) 
244.258

>  <HeavyAtomMolWt>  (261) 
232.162

>  <ExactMolWt>  (261) 
244.107259

>  <NumValenceElectrons>  (261) 
92

>  <NumRadicalElectrons>  (261) 
0

>  <MaxPartialCharge>  (261) 
0.199153

>  <MinPartialCharge>  (261) 
-0.378861

>  <MaxAbsPartialCharge>  (261) 
0.378861

>  <MinAbsPartialCharge>  (261) 
0.199153

>  <FpDensityMorgan1>  (261) 
1.388889

>  <FpDensityMorgan2>  (261) 
2.222222

>  <FpDensityMorgan3>  (261) 
2.888889

>  <BCUT2D_MWHI>  (261) 
16.564437

>  <BCUT2D_MWLOW>  (261) 
10.311046

>  <BCUT2D_CHGHI>  (261) 
2.178368

>  <BCUT2D_CHGLO>  (261) 
-2.02845

>  <BCUT2D_LOGPHI>  (261) 
2.257472

>  <BCUT2D_LOGPLOW>  (261) 
-1.996305

>  <BCUT2D_MRHI>  (261) 
5.806924

>  <BCUT2D_MRLOW>  (261) 
0.309783

>  <AvgIpc>  (261) 
2.911524

>  <BalabanJ>  (261) 
2.330373

>  <BertzCT>  (261) 
713.468242

>  <Chi0>  (261) 
12.698306

>  <Chi0n>  (261) 
10.083474

>  <Chi0v>  (261) 
10.083474

>  <Chi1>  (261) 
8.702709

>  <Chi1n>  (261) 
5.61663

>  <Chi1v>  (261) 
5.61663

>  <Chi2n>  (261) 
3.992139

>  <Chi2v>  (261) 
3.992139

>  <Chi3n>  (261) 
2.813262

>  <Chi3v>  (261) 
2.813262

>  <Chi4n>  (261) 
1.980532

>  <Chi4v>  (261) 
1.980532

>  <HallKierAlpha>  (261) 
-2.44

>  <Ipc>  (261) 
22861.286895

>  <Kappa1>  (261) 
10.697525

>  <Kappa2>  (261) 
3.795112

>  <Kappa3>  (261) 
1.438682

>  <LabuteASA>  (261) 
102.599645

>  <PEOE_VSA1>  (261) 
10.300767

>  <PEOE_VSA10>  (261) 
5.516701

>  <PEOE_VSA11>  (261) 
17.336195

>  <PEOE_VSA12>  (261) 
0.0

>  <PEOE_VSA13>  (261) 
0.0

>  <PEOE_VSA14>  (261) 
0.0

>  <PEOE_VSA2>  (261) 
4.983979

>  <PEOE_VSA3>  (261) 
9.613017

>  <PEOE_VSA4>  (261) 
0.0

>  <PEOE_VSA5>  (261) 
0.0

>  <PEOE_VSA6>  (261) 
0.0

>  <PEOE_VSA7>  (261) 
30.227168

>  <PEOE_VSA8>  (261) 
12.238684

>  <PEOE_VSA9>  (261) 
11.713544

>  <SMR_VSA1>  (261) 
4.629039

>  <SMR_VSA10>  (261) 
16.851264

>  <SMR_VSA2>  (261) 
0.0

>  <SMR_VSA3>  (261) 
24.848383

>  <SMR_VSA4>  (261) 
0.0

>  <SMR_VSA5>  (261) 
20.392231

>  <SMR_VSA6>  (261) 
5.733667

>  <SMR_VSA7>  (261) 
17.957139

>  <SMR_VSA8>  (261) 
0.0

>  <SMR_VSA9>  (261) 
11.518332

>  <SlogP_VSA1>  (261) 
5.733667

>  <SlogP_VSA10>  (261) 
5.817863

>  <SlogP_VSA11>  (261) 
0.0

>  <SlogP_VSA12>  (261) 
0.0

>  <SlogP_VSA2>  (261) 
24.848383

>  <SlogP_VSA3>  (261) 
6.544756

>  <SlogP_VSA4>  (261) 
6.923737

>  <SlogP_VSA5>  (261) 
12.617665

>  <SlogP_VSA6>  (261) 
16.89225

>  <SlogP_VSA7>  (261) 
0.0

>  <SlogP_VSA8>  (261) 
22.551734

>  <SlogP_VSA9>  (261) 
0.0

>  <EState_VSA1>  (261) 
0.0

>  <EState_VSA10>  (261) 
0.0

>  <EState_VSA11>  (261) 
0.0

>  <EState_VSA2>  (261) 
5.817863

>  <EState_VSA3>  (261) 
11.518332

>  <EState_VSA4>  (261) 
23.272086

>  <EState_VSA5>  (261) 
0.0

>  <EState_VSA6>  (261) 
6.196844

>  <EState_VSA7>  (261) 
24.480941

>  <EState_VSA8>  (261) 
24.910322

>  <EState_VSA9>  (261) 
5.733667

>  <VSA_EState1>  (261) 
6.638758

>  <VSA_EState10>  (261) 
0.0

>  <VSA_EState2>  (261) 
8.719135

>  <VSA_EState3>  (261) 
7.376313

>  <VSA_EState4>  (261) 
8.92256

>  <VSA_EState5>  (261) 
0.891979

>  <VSA_EState6>  (261) 
1.985154

>  <VSA_EState7>  (261) 
1.740108

>  <VSA_EState8>  (261) 
4.725993

>  <VSA_EState9>  (261) 
0.0

>  <FractionCSP3>  (261) 
0.272727

>  <HeavyAtomCount>  (261) 
18

>  <NHOHCount>  (261) 
2

>  <NOCount>  (261) 
7

>  <NumAliphaticCarbocycles>  (261) 
0

>  <NumAliphaticHeterocycles>  (261) 
0

>  <NumAliphaticRings>  (261) 
0

>  <NumAromaticCarbocycles>  (261) 
0

>  <NumAromaticHeterocycles>  (261) 
3

>  <NAR>  (261) 
3

>  <NumHAcceptors>  (261) 
7

>  <NumHDonors>  (261) 
1

>  <NumHeteroatoms>  (261) 
7

>  <NumRotatableBonds>  (261) 
2

>  <NumSaturatedCarbocycles>  (261) 
0

>  <NumSaturatedHeterocycles>  (261) 
0

>  <NumSaturatedRings>  (261) 
0

>  <RingCount>  (261) 
3

>  <MolLogP>  (261) 
1.39182

>  <MolMR>  (261) 
65.6434

>  <fr_Al_COO>  (261) 
0

>  <fr_Al_OH>  (261) 
0

>  <fr_Al_OH_noTert>  (261) 
0

>  <fr_ArN>  (261) 
1

>  <fr_Ar_COO>  (261) 
0

>  <fr_Ar_N>  (261) 
5

>  <fr_Ar_NH>  (261) 
0

>  <fr_Ar_OH>  (261) 
0

>  <fr_COO>  (261) 
0

>  <fr_COO2>  (261) 
0

>  <fr_C_O>  (261) 
0

>  <fr_C_O_noCOO>  (261) 
0

>  <fr_C_S>  (261) 
0

>  <fr_HOCCN>  (261) 
0

>  <fr_Imine>  (261) 
0

>  <fr_NH0>  (261) 
5

>  <fr_NH1>  (261) 
0

>  <fr_NH2>  (261) 
1

>  <fr_N_O>  (261) 
0

>  <fr_Ndealkylation1>  (261) 
0

>  <fr_Ndealkylation2>  (261) 
0

>  <fr_Nhpyrrole>  (261) 
0

>  <fr_SH>  (261) 
0

>  <fr_aldehyde>  (261) 
0

>  <fr_alkyl_carbamate>  (261) 
0

>  <fr_alkyl_halide>  (261) 
0

>  <fr_allylic_oxid>  (261) 
0

>  <fr_amide>  (261) 
0

>  <fr_amidine>  (261) 
0

>  <fr_aniline>  (261) 
1

>  <fr_aryl_methyl>  (261) 
2

>  <fr_azide>  (261) 
0

>  <fr_azo>  (261) 
0

>  <fr_barbitur>  (261) 
0

>  <fr_benzene>  (261) 
0

>  <fr_benzodiazepine>  (261) 
0

>  <fr_bicyclic>  (261) 
1

>  <fr_diazo>  (261) 
0

>  <fr_dihydropyridine>  (261) 
0

>  <fr_epoxide>  (261) 
0

>  <fr_ester>  (261) 
0

>  <fr_ether>  (261) 
0

>  <fr_furan>  (261) 
0

>  <fr_guanido>  (261) 
0

>  <fr_halogen>  (261) 
0

>  <fr_hdrzine>  (261) 
0

>  <fr_hdrzone>  (261) 
0

>  <fr_imidazole>  (261) 
1

>  <fr_imide>  (261) 
0

>  <fr_isocyan>  (261) 
0

>  <fr_isothiocyan>  (261) 
0

>  <fr_ketone>  (261) 
0

>  <fr_ketone_Topliss>  (261) 
0

>  <fr_lactam>  (261) 
0

>  <fr_lactone>  (261) 
0

>  <fr_methoxy>  (261) 
0

>  <fr_morpholine>  (261) 
0

>  <fr_nitrile>  (261) 
0

>  <fr_nitro>  (261) 
0

>  <fr_nitro_arom>  (261) 
0

>  <fr_nitro_arom_nonortho>  (261) 
0

>  <fr_nitroso>  (261) 
0

>  <fr_oxazole>  (261) 
0

>  <fr_oxime>  (261) 
0

>  <fr_para_hydroxylation>  (261) 
0

>  <fr_phenol>  (261) 
0

>  <fr_phenol_noOrthoHbond>  (261) 
0

>  <fr_phos_acid>  (261) 
0

>  <fr_phos_ester>  (261) 
0

>  <fr_piperdine>  (261) 
0

>  <fr_piperzine>  (261) 
0

>  <fr_priamide>  (261) 
0

>  <fr_prisulfonamd>  (261) 
0

>  <fr_pyridine>  (261) 
1

>  <fr_quatN>  (261) 
0

>  <fr_sulfide>  (261) 
0

>  <fr_sulfonamd>  (261) 
0

>  <fr_sulfone>  (261) 
0

>  <fr_term_acetylene>  (261) 
0

>  <fr_tetrazole>  (261) 
0

>  <fr_thiazole>  (261) 
0

>  <fr_thiocyan>  (261) 
0

>  <fr_thiophene>  (261) 
0

>  <fr_unbrch_alkane>  (261) 
0

>  <fr_urea>  (261) 
0

>  <NP-Likeness>  (261) 
-1.471822

$$$$
VX6
     RDKit          3D

  0  0  0  0  0  0  0  0  0  0999 V3000
M  V30 BEGIN CTAB
M  V30 COUNTS 62 66 0 0 0
M  V30 BEGIN ATOM
M  V30 1 C 3.227500 -1.103378 -0.515471 0
M  V30 2 C 3.929111 -0.637298 -1.634564 0
M  V30 3 C 3.633785 -1.224834 -2.857197 0
M  V30 4 N 4.278414 -0.819204 -4.055729 0
M  V30 5 C 5.489710 -1.251726 -4.630709 0
M  V30 6 O 6.151491 -2.143156 -4.032485 0
M  V30 7 C 5.962783 -0.654034 -5.921137 0
M  V30 8 C 6.677871 -1.517449 -6.896464 0
M  V30 9 C 7.442556 -0.469250 -6.119251 0
M  V30 10 C 2.685415 -2.241167 -3.017551 0
M  V30 11 C 2.006085 -2.679178 -1.877297 0
M  V30 12 C 2.276945 -2.115330 -0.646902 0
M  V30 13 S 1.446301 -2.650863 0.840963 0
M  V30 14 C -0.009089 -1.646390 1.100512 0
M  V30 15 N 0.158441 -0.539631 1.821768 0
M  V30 16 C -0.817298 0.341436 2.139812 0
M  V30 17 N -0.501109 1.478815 2.914359 0
M  V30 18 C -1.177309 2.638744 3.335875 0
M  V30 19 N -0.673993 3.579083 4.150587 0
M  V30 20 N -1.524061 4.545450 4.351898 0
M  V30 21 C -2.665020 4.349750 3.699976 0
M  V30 22 C -3.828823 5.237623 3.703833 0
M  V30 23 C -2.428475 3.149879 3.069134 0
M  V30 24 C -2.039939 -0.009803 1.642275 0
M  V30 25 C -2.295597 -1.135657 0.888335 0
M  V30 26 N -3.571697 -1.486339 0.406783 0
M  V30 27 C -3.631081 -2.282752 -0.803006 0
M  V30 28 C -4.584542 -1.585676 -1.752191 0
M  V30 29 N -4.970985 -0.267811 -1.322085 0 CHG=1 VAL=4
M  V30 30 C -5.830232 0.315653 -2.312219 0
M  V30 31 C -5.596815 -0.254464 -0.016778 0
M  V30 32 C -4.891333 -1.203203 0.928800 0
M  V30 33 N -1.241490 -1.931073 0.639845 0
M  V30 34 H 3.487006 -0.617308 0.434487 0
M  V30 35 H 4.670330 0.142729 -1.560777 0
M  V30 36 H 3.667462 -0.083954 -4.490138 0
M  V30 37 H 5.339031 0.131207 -6.393713 0
M  V30 38 H 6.540926 -1.327501 -7.995943 0
M  V30 39 H 6.967534 -2.558278 -6.688613 0
M  V30 40 H 8.145846 -0.815214 -5.329921 0
M  V30 41 H 7.821439 0.417399 -6.668425 0
M  V30 42 H 2.473834 -2.682617 -3.980819 0
M  V30 43 H 1.264210 -3.459364 -1.944890 0
M  V30 44 H 0.505884 1.452869 3.271354 0
M  V30 45 H -1.200733 5.321047 4.981116 0
M  V30 46 H -4.125624 5.420318 2.656918 0
M  V30 47 H -4.675540 4.721412 4.232455 0
M  V30 48 H -3.574174 6.191691 4.217988 0
M  V30 49 H -3.201188 2.730321 2.446598 0
M  V30 50 H -2.887596 0.584145 1.822960 0
M  V30 51 H -4.050746 -3.272101 -0.549845 0
M  V30 52 H -2.642002 -2.373593 -1.306072 0
M  V30 53 H -5.494266 -2.196847 -1.968960 0
M  V30 54 H -4.081463 -1.428846 -2.755060 0
M  V30 55 H -4.100524 0.310529 -1.222752 0
M  V30 56 H -5.234143 1.048052 -2.912855 0
M  V30 57 H -6.188807 -0.458275 -2.988670 0
M  V30 58 H -6.660030 0.905473 -1.862373 0
M  V30 59 H -5.563314 0.767306 0.411300 0
M  V30 60 H -6.653553 -0.571165 -0.151281 0
M  V30 61 H -4.893394 -0.799677 1.947617 0
M  V30 62 H -5.455216 -2.184711 0.993123 0
M  V30 END ATOM
M  V30 BEGIN BOND
M  V30 1 2 1 2
M  V30 2 1 2 3
M  V30 3 1 3 4
M  V30 4 1 4 5
M  V30 5 2 5 6
M  V30 6 1 5 7
M  V30 7 1 7 8
M  V30 8 1 8 9
M  V30 9 2 3 10
M  V30 10 1 10 11
M  V30 11 2 11 12
M  V30 12 1 12 13
M  V30 13 1 13 14
M  V30 14 2 14 15
M  V30 15 1 15 16
M  V30 16 1 16 17
M  V30 17 1 17 18
M  V30 18 2 18 19
M  V30 19 1 19 20
M  V30 20 1 20 21
M  V30 21 1 21 22
M  V30 22 2 21 23
M  V30 23 2 16 24
M  V30 24 1 24 25
M  V30 25 1 25 26
M  V30 26 1 26 27
M  V30 27 1 27 28
M  V30 28 1 28 29
M  V30 29 1 29 30
M  V30 30 1 29 31
M  V30 31 1 31 32
M  V30 32 2 25 33
M  V30 33 1 12 1
M  V30 34 1 33 14
M  V30 35 1 9 7
M  V30 36 1 23 18
M  V30 37 1 32 26
M  V30 38 1 1 34
M  V30 39 1 2 35
M  V30 40 1 4 36
M  V30 41 1 7 37
M  V30 42 1 8 38
M  V30 43 1 8 39
M  V30 44 1 9 40
M  V30 45 1 9 41
M  V30 46 1 10 42
M  V30 47 1 11 43
M  V30 48 1 17 44
M  V30 49 1 20 45
M  V30 50 1 22 46
M  V30 51 1 22 47
M  V30 52 1 22 48
M  V30 53 1 23 49
M  V30 54 1 24 50
M  V30 55 1 27 51
M  V30 56 1 27 52
M  V30 57 1 28 53
M  V30 58 1 28 54
M  V30 59 1 29 55
M  V30 60 1 30 56
M  V30 61 1 30 57
M  V30 62 1 30 58
M  V30 63 1 31 59
M  V30 64 1 31 60
M  V30 65 1 32 61
M  V30 66 1 32 62
M  V30 END BOND
M  V30 END CTAB
M  END
>  <Dataset>  (262) 
PDB

>  <Ligand_Instance>  (262) 
3AMB_VX6_A_351

>  <PDB_ID>  (262) 
3AMB

>  <Standardized_SMILES>  (262) 
[H]C1=C([H])C(N([H])C(=O)C2([H])C([H])([H])C2([H])[H])=C([H])C([H])=C1SC1=NC(N([H])C2=NN([H])C(C([H])([H])[H])=C2[H])=C([H])C(N2C([H])([H])C([H])([H])[N+]([H])(C([H])([H])[H])C([H])([H])C2([H])[H])=N1

>  <Name>  (262) 
CYCLOPROPANECARBOXYLIC ACID {4-[4-(4-METHYL-PIPERAZIN-1-YL)-6-(5-METHYL-2H-PYRAZOL-3-YLAMINO)-PYRIMIDIN-2-YLSULFANYL]-PHENYL}-AMIDE

>  <Pocket>  (262) 
A

>  <ATP_Site>  (262) 
1.0

>  <Peripheral>  (262) 
0.0

>  <Num_H_Atoms_ProtBoundConf>  (262) 
29.0

>  <Num_Resolved_Atoms>  (262) 
33.0

>  <Num_Not_Resolved_Atoms>  (262) 
0.0

>  <2D_Mol_H>  (262) 
<rdkit.Chem.rdchem.Mol object at 0x72a239100e40>

>  <MW>  (262) 
465.607

>  <HBA>  (262) 
7

>  <HBD>  (262) 
4

>  <LogP>  (262) 
2.08612

>  <NRB>  (262) 
9

>  <TPSA>  (262) 
103.27

>  <Num_Heavy_Atoms>  (262) 
33

>  <Ro5>  (262) 
[True, True, True, True, True, True]

>  <Ro5_Fulfilled>  (262) 
True

>  <Ro3>  (262) 
[False, False, False, True]

>  <Ro3_Fulfilled>  (262) 
False

>  <Fsp3>  (262) 
0.391304

>  <Fsp3_0.42>  (262) 
False

>  <Fsp3_0.45>  (262) 
False

>  <Stereogenic_Carbons>  (262) 
0

>  <C_Atoms>  (262) 
23

>  <FCStereo>  (262) 
0.0

>  <SPS>  (262) 
548

>  <nSPS>  (262) 
16.606061

>  <PBF>  (262) 
1.331018

>  <PBF_0.6>  (262) 
True

>  <nPBF>  (262) 
0.040334

>  <nPBF_0.016>  (262) 
True

>  <PMI1>  (262) 
3597.824422

>  <PMI2>  (262) 
10874.20154

>  <PMI3>  (262) 
12420.172027

>  <NPR1>  (262) 
0.289676

>  <NPR2>  (262) 
0.875527

>  <Sum_NPR>  (262) 
1.165203

>  <Sum_NPR_1.07>  (262) 
True

>  <Sum_NPR_1.2>  (262) 
False

>  <MaxAbsEStateIndex>  (262) 
11.990997

>  <MaxEStateIndex>  (262) 
11.990997

>  <MinAbsEStateIndex>  (262) 
0.115528

>  <MinEStateIndex>  (262) 
0.115528

>  <qed>  (262) 
0.396314

>  <MolWt>  (262) 
465.607

>  <HeavyAtomMolWt>  (262) 
436.375

>  <ExactMolWt>  (262) 
465.217955

>  <NumValenceElectrons>  (262) 
172

>  <NumRadicalElectrons>  (262) 
0

>  <MaxPartialCharge>  (262) 
0.226983

>  <MinPartialCharge>  (262) 
-0.345119

>  <MaxAbsPartialCharge>  (262) 
0.345119

>  <MinAbsPartialCharge>  (262) 
0.226983

>  <FpDensityMorgan1>  (262) 
1.121212

>  <FpDensityMorgan2>  (262) 
1.878788

>  <FpDensityMorgan3>  (262) 
2.545455

>  <BCUT2D_MWHI>  (262) 
32.166599

>  <BCUT2D_MWLOW>  (262) 
10.273881

>  <BCUT2D_CHGHI>  (262) 
2.290816

>  <BCUT2D_CHGLO>  (262) 
-2.306927

>  <BCUT2D_LOGPHI>  (262) 
2.317936

>  <BCUT2D_LOGPLOW>  (262) 
-3.116065

>  <BCUT2D_MRHI>  (262) 
7.987844

>  <BCUT2D_MRLOW>  (262) 
-0.879626

>  <AvgIpc>  (262) 
3.579565

>  <BalabanJ>  (262) 
1.346604

>  <BertzCT>  (262) 
1119.745005

>  <Chi0>  (262) 
22.785882

>  <Chi0n>  (262) 
18.889444

>  <Chi0v>  (262) 
19.70594

>  <Chi1>  (262) 
16.013173

>  <Chi1n>  (262) 
11.348422

>  <Chi1v>  (262) 
12.164918

>  <Chi2n>  (262) 
8.789274

>  <Chi2v>  (262) 
9.829951

>  <Chi3n>  (262) 
5.874302

>  <Chi3v>  (262) 
6.747318

>  <Chi4n>  (262) 
3.716931

>  <Chi4v>  (262) 
4.483079

>  <HallKierAlpha>  (262) 
-3.11

>  <Ipc>  (262) 
61462440.921375

>  <Kappa1>  (262) 
21.720902

>  <Kappa2>  (262) 
9.401659

>  <Kappa3>  (262) 
5.634264

>  <LabuteASA>  (262) 
196.923932

>  <PEOE_VSA1>  (262) 
20.433397

>  <PEOE_VSA10>  (262) 
11.635726

>  <PEOE_VSA11>  (262) 
10.974299

>  <PEOE_VSA12>  (262) 
5.90718

>  <PEOE_VSA13>  (262) 
0.0

>  <PEOE_VSA14>  (262) 
0.0

>  <PEOE_VSA2>  (262) 
9.893219

>  <PEOE_VSA3>  (262) 
9.967957

>  <PEOE_VSA4>  (262) 
5.098682

>  <PEOE_VSA5>  (262) 
0.0

>  <PEOE_VSA6>  (262) 
0.0

>  <PEOE_VSA7>  (262) 
55.792734

>  <PEOE_VSA8>  (262) 
34.327438

>  <PEOE_VSA9>  (262) 
33.226698

>  <SMR_VSA1>  (262) 
9.694447

>  <SMR_VSA10>  (262) 
40.810039

>  <SMR_VSA2>  (262) 
0.0

>  <SMR_VSA3>  (262) 
20.165321

>  <SMR_VSA4>  (262) 
5.917906

>  <SMR_VSA5>  (262) 
29.8173

>  <SMR_VSA6>  (262) 
48.760185

>  <SMR_VSA7>  (262) 
42.09213

>  <SMR_VSA8>  (262) 
0.0

>  <SMR_VSA9>  (262) 
0.0

>  <SlogP_VSA1>  (262) 
20.433397

>  <SlogP_VSA10>  (262) 
23.140975

>  <SlogP_VSA11>  (262) 
0.0

>  <SlogP_VSA12>  (262) 
11.761885

>  <SlogP_VSA2>  (262) 
59.299198

>  <SlogP_VSA3>  (262) 
4.794537

>  <SlogP_VSA4>  (262) 
12.841643

>  <SlogP_VSA5>  (262) 
18.535571

>  <SlogP_VSA6>  (262) 
46.450122

>  <SlogP_VSA7>  (262) 
0.0

>  <SlogP_VSA8>  (262) 
0.0

>  <SlogP_VSA9>  (262) 
0.0

>  <EState_VSA1>  (262) 
0.0

>  <EState_VSA10>  (262) 
4.794537

>  <EState_VSA11>  (262) 
0.0

>  <EState_VSA2>  (262) 
11.825086

>  <EState_VSA3>  (262) 
10.974299

>  <EState_VSA4>  (262) 
66.933192

>  <EState_VSA5>  (262) 
16.661795

>  <EState_VSA6>  (262) 
0.0

>  <EState_VSA7>  (262) 
43.32194

>  <EState_VSA8>  (262) 
32.778523

>  <EState_VSA9>  (262) 
9.967957

>  <VSA_EState1>  (262) 
0.0

>  <VSA_EState10>  (262) 
1.507453

>  <VSA_EState2>  (262) 
26.445293

>  <VSA_EState3>  (262) 
14.174456

>  <VSA_EState4>  (262) 
1.805001

>  <VSA_EState5>  (262) 
2.670099

>  <VSA_EState6>  (262) 
11.78735

>  <VSA_EState7>  (262) 
1.992618

>  <VSA_EState8>  (262) 
6.059964

>  <VSA_EState9>  (262) 
2.224432

>  <FractionCSP3>  (262) 
0.391304

>  <HeavyAtomCount>  (262) 
33

>  <NHOHCount>  (262) 
4

>  <NOCount>  (262) 
9

>  <NumAliphaticCarbocycles>  (262) 
1

>  <NumAliphaticHeterocycles>  (262) 
1

>  <NumAliphaticRings>  (262) 
2

>  <NumAromaticCarbocycles>  (262) 
1

>  <NumAromaticHeterocycles>  (262) 
2

>  <NAR>  (262) 
3

>  <NumHAcceptors>  (262) 
7

>  <NumHDonors>  (262) 
4

>  <NumHeteroatoms>  (262) 
10

>  <NumRotatableBonds>  (262) 
7

>  <NumSaturatedCarbocycles>  (262) 
1

>  <NumSaturatedHeterocycles>  (262) 
1

>  <NumSaturatedRings>  (262) 
2

>  <RingCount>  (262) 
5

>  <MolLogP>  (262) 
2.08612

>  <MolMR>  (262) 
129.3918

>  <fr_Al_COO>  (262) 
0

>  <fr_Al_OH>  (262) 
0

>  <fr_Al_OH_noTert>  (262) 
0

>  <fr_ArN>  (262) 
0

>  <fr_Ar_COO>  (262) 
0

>  <fr_Ar_N>  (262) 
4

>  <fr_Ar_NH>  (262) 
1

>  <fr_Ar_OH>  (262) 
0

>  <fr_COO>  (262) 
0

>  <fr_COO2>  (262) 
0

>  <fr_C_O>  (262) 
1

>  <fr_C_O_noCOO>  (262) 
1

>  <fr_C_S>  (262) 
0

>  <fr_HOCCN>  (262) 
0

>  <fr_Imine>  (262) 
0

>  <fr_NH0>  (262) 
4

>  <fr_NH1>  (262) 
4

>  <fr_NH2>  (262) 
0

>  <fr_N_O>  (262) 
0

>  <fr_Ndealkylation1>  (262) 
1

>  <fr_Ndealkylation2>  (262) 
0

>  <fr_Nhpyrrole>  (262) 
1

>  <fr_SH>  (262) 
0

>  <fr_aldehyde>  (262) 
0

>  <fr_alkyl_carbamate>  (262) 
0

>  <fr_alkyl_halide>  (262) 
0

>  <fr_allylic_oxid>  (262) 
0

>  <fr_amide>  (262) 
1

>  <fr_amidine>  (262) 
0

>  <fr_aniline>  (262) 
4

>  <fr_aryl_methyl>  (262) 
1

>  <fr_azide>  (262) 
0

>  <fr_azo>  (262) 
0

>  <fr_barbitur>  (262) 
0

>  <fr_benzene>  (262) 
1

>  <fr_benzodiazepine>  (262) 
0

>  <fr_bicyclic>  (262) 
0

>  <fr_diazo>  (262) 
0

>  <fr_dihydropyridine>  (262) 
0

>  <fr_epoxide>  (262) 
0

>  <fr_ester>  (262) 
0

>  <fr_ether>  (262) 
0

>  <fr_furan>  (262) 
0

>  <fr_guanido>  (262) 
0

>  <fr_halogen>  (262) 
0

>  <fr_hdrzine>  (262) 
0

>  <fr_hdrzone>  (262) 
0

>  <fr_imidazole>  (262) 
0

>  <fr_imide>  (262) 
0

>  <fr_isocyan>  (262) 
0

>  <fr_isothiocyan>  (262) 
0

>  <fr_ketone>  (262) 
0

>  <fr_ketone_Topliss>  (262) 
0

>  <fr_lactam>  (262) 
0

>  <fr_lactone>  (262) 
0

>  <fr_methoxy>  (262) 
0

>  <fr_morpholine>  (262) 
0

>  <fr_nitrile>  (262) 
0

>  <fr_nitro>  (262) 
0

>  <fr_nitro_arom>  (262) 
0

>  <fr_nitro_arom_nonortho>  (262) 
0

>  <fr_nitroso>  (262) 
0

>  <fr_oxazole>  (262) 
0

>  <fr_oxime>  (262) 
0

>  <fr_para_hydroxylation>  (262) 
0

>  <fr_phenol>  (262) 
0

>  <fr_phenol_noOrthoHbond>  (262) 
0

>  <fr_phos_acid>  (262) 
0

>  <fr_phos_ester>  (262) 
0

>  <fr_piperdine>  (262) 
0

>  <fr_piperzine>  (262) 
1

>  <fr_priamide>  (262) 
0

>  <fr_prisulfonamd>  (262) 
0

>  <fr_pyridine>  (262) 
0

>  <fr_quatN>  (262) 
1

>  <fr_sulfide>  (262) 
0

>  <fr_sulfonamd>  (262) 
0

>  <fr_sulfone>  (262) 
0

>  <fr_term_acetylene>  (262) 
0

>  <fr_tetrazole>  (262) 
0

>  <fr_thiazole>  (262) 
0

>  <fr_thiocyan>  (262) 
0

>  <fr_thiophene>  (262) 
0

>  <fr_unbrch_alkane>  (262) 
0

>  <fr_urea>  (262) 
0

>  <NP-Likeness>  (262) 
-1.813171

$$$$
XFE
     RDKit          3D

  0  0  0  0  0  0  0  0  0  0999 V3000
M  V30 BEGIN CTAB
M  V30 COUNTS 32 34 0 0 0
M  V30 BEGIN ATOM
M  V30 1 C 0.498406 -1.169403 4.288807 0
M  V30 2 N 0.223681 0.135254 4.577175 0
M  V30 3 C 0.047811 1.024766 3.584617 0
M  V30 4 C 0.148753 0.601658 2.283174 0
M  V30 5 C 0.425237 -0.706651 1.959842 0
M  V30 6 N 0.600441 -1.377925 0.717956 0
M  V30 7 C 1.602117 -1.275973 -0.324402 0
M  V30 8 C 0.811920 -1.550611 -1.580134 0
M  V30 9 C -0.508117 -2.139515 -1.141095 0 CFG=1
M  V30 10 N -0.762734 -3.383117 -1.872938 0 CHG=1 VAL=4
M  V30 11 C -0.365543 -2.395251 0.327809 0
M  V30 12 N 0.597752 -1.584350 2.992007 0
M  V30 13 C -0.055203 1.596278 1.360436 0
M  V30 14 C -0.046056 1.560754 -0.111007 0
M  V30 15 C -0.298808 2.715474 2.161726 0
M  V30 16 N -0.229581 2.338841 3.467413 0
M  V30 17 H 0.638582 -1.881261 5.110148 0
M  V30 18 H 2.145209 -0.315574 -0.336063 0
M  V30 19 H 2.348335 -2.103715 -0.202682 0
M  V30 20 H 1.351494 -2.282508 -2.231046 0
M  V30 21 H 0.658778 -0.577494 -2.126830 0
M  V30 22 H -1.365838 -1.440605 -1.313408 0
M  V30 23 H -1.708680 -3.716567 -1.647336 0
M  V30 24 H 0.008845 -4.034200 -1.623300 0
M  V30 25 H -0.695620 -3.174118 -2.875214 0
M  V30 26 H 0.166207 -3.371584 0.525773 0
M  V30 27 H -1.307385 -2.362315 0.880097 0
M  V30 28 H 0.926179 1.705693 -0.578498 0
M  V30 29 H -0.665516 2.443298 -0.463265 0
M  V30 30 H -0.614024 0.685880 -0.496889 0
M  V30 31 H -0.507745 3.716081 1.786172 0
M  V30 32 H -0.371009 2.974462 4.308329 0
M  V30 END ATOM
M  V30 BEGIN BOND
M  V30 1 2 1 2
M  V30 2 1 2 3
M  V30 3 2 3 4
M  V30 4 1 4 5
M  V30 5 1 5 6
M  V30 6 1 6 7
M  V30 7 1 7 8
M  V30 8 1 8 9
M  V30 9 1 9 10
M  V30 10 1 9 11
M  V30 11 2 5 12
M  V30 12 1 4 13
M  V30 13 1 13 14
M  V30 14 2 13 15
M  V30 15 1 15 16
M  V30 16 1 12 1
M  V30 17 1 16 3
M  V30 18 1 11 6
M  V30 19 1 1 17
M  V30 20 1 7 18
M  V30 21 1 7 19
M  V30 22 1 8 20
M  V30 23 1 8 21
M  V30 24 1 9 22 CFG=1
M  V30 25 1 10 23
M  V30 26 1 10 24
M  V30 27 1 10 25
M  V30 28 1 11 26
M  V30 29 1 11 27
M  V30 30 1 14 28
M  V30 31 1 14 29
M  V30 32 1 14 30
M  V30 33 1 15 31
M  V30 34 1 16 32
M  V30 END BOND
M  V30 END CTAB
M  END
>  <Dataset>  (263) 
PDB

>  <Ligand_Instance>  (263) 
3MVJ_XFE_A_351

>  <PDB_ID>  (263) 
3MVJ

>  <Standardized_SMILES>  (263) 
[H]C1=NC2=C(C(N3C([H])([H])C([H])([H])[C@@]([H])([N+]([H])([H])[H])C3([H])[H])=N1)C(C([H])([H])[H])=C([H])N2[H]

>  <Name>  (263) 
(3R)-1-(5-methyl-7H-pyrrolo[2,3-d]pyrimidin-4-yl)pyrrolidin-3-amine

>  <Pocket>  (263) 
A

>  <ATP_Site>  (263) 
1.0

>  <Peripheral>  (263) 
0.0

>  <Num_H_Atoms_ProtBoundConf>  (263) 
16.0

>  <Num_Resolved_Atoms>  (263) 
16.0

>  <Num_Not_Resolved_Atoms>  (263) 
0.0

>  <2D_Mol_H>  (263) 
<rdkit.Chem.rdchem.Mol object at 0x72a239100f20>

>  <MW>  (263) 
218.284

>  <HBA>  (263) 
3

>  <HBD>  (263) 
2

>  <LogP>  (263) 
0.08692

>  <NRB>  (263) 
3

>  <TPSA>  (263) 
72.45

>  <Num_Heavy_Atoms>  (263) 
16

>  <Ro5>  (263) 
[True, True, True, True, True, True]

>  <Ro5_Fulfilled>  (263) 
True

>  <Ro3>  (263) 
[True, True, True, True]

>  <Ro3_Fulfilled>  (263) 
True

>  <Fsp3>  (263) 
0.454545

>  <Fsp3_0.42>  (263) 
True

>  <Fsp3_0.45>  (263) 
True

>  <Stereogenic_Carbons>  (263) 
1

>  <C_Atoms>  (263) 
11

>  <FCStereo>  (263) 
0.090909

>  <SPS>  (263) 
334

>  <nSPS>  (263) 
20.875

>  <PBF>  (263) 
0.687344

>  <PBF_0.6>  (263) 
True

>  <nPBF>  (263) 
0.042959

>  <nPBF_0.016>  (263) 
True

>  <PMI1>  (263) 
491.734601

>  <PMI2>  (263) 
1348.050116

>  <PMI3>  (263) 
1673.378242

>  <NPR1>  (263) 
0.293857

>  <NPR2>  (263) 
0.805586

>  <Sum_NPR>  (263) 
1.099443

>  <Sum_NPR_1.07>  (263) 
True

>  <Sum_NPR_1.2>  (263) 
False

>  <MaxAbsEStateIndex>  (263) 
4.423426

>  <MaxEStateIndex>  (263) 
4.423426

>  <MinAbsEStateIndex>  (263) 
0.517836

>  <MinEStateIndex>  (263) 
0.517836

>  <qed>  (263) 
0.712056

>  <MolWt>  (263) 
218.284

>  <HeavyAtomMolWt>  (263) 
202.156

>  <ExactMolWt>  (263) 
218.140022

>  <NumValenceElectrons>  (263) 
84

>  <NumRadicalElectrons>  (263) 
0

>  <MaxPartialCharge>  (263) 
0.142625

>  <MinPartialCharge>  (263) 
-0.353604

>  <MaxAbsPartialCharge>  (263) 
0.353604

>  <MinAbsPartialCharge>  (263) 
0.142625

>  <FpDensityMorgan1>  (263) 
1.5

>  <FpDensityMorgan2>  (263) 
2.375

>  <FpDensityMorgan3>  (263) 
3.125

>  <BCUT2D_MWHI>  (263) 
15.225946

>  <BCUT2D_MWLOW>  (263) 
10.223823

>  <BCUT2D_CHGHI>  (263) 
2.246257

>  <BCUT2D_CHGLO>  (263) 
-2.162619

>  <BCUT2D_LOGPHI>  (263) 
2.269821

>  <BCUT2D_LOGPLOW>  (263) 
-2.614533

>  <BCUT2D_MRHI>  (263) 
5.901635

>  <BCUT2D_MRLOW>  (263) 
-0.411732

>  <AvgIpc>  (263) 
2.859732

>  <BalabanJ>  (263) 
2.11915

>  <BertzCT>  (263) 
518.069321

>  <Chi0>  (263) 
11.120956

>  <Chi0n>  (263) 
9.402119

>  <Chi0v>  (263) 
9.402119

>  <Chi1>  (263) 
7.75402

>  <Chi1n>  (263) 
5.621769

>  <Chi1v>  (263) 
5.621769

>  <Chi2n>  (263) 
4.493286

>  <Chi2v>  (263) 
4.493286

>  <Chi3n>  (263) 
3.232381

>  <Chi3v>  (263) 
3.232381

>  <Chi4n>  (263) 
2.362415

>  <Chi4v>  (263) 
2.362415

>  <HallKierAlpha>  (263) 
-1.62

>  <Ipc>  (263) 
9305.566665

>  <Kappa1>  (263) 
9.594963

>  <Kappa2>  (263) 
3.450087

>  <Kappa3>  (263) 
1.356418

>  <LabuteASA>  (263) 
93.680128

>  <PEOE_VSA1>  (263) 
15.617556

>  <PEOE_VSA10>  (263) 
23.834201

>  <PEOE_VSA11>  (263) 
0.0

>  <PEOE_VSA12>  (263) 
0.0

>  <PEOE_VSA13>  (263) 
0.0

>  <PEOE_VSA14>  (263) 
0.0

>  <PEOE_VSA2>  (263) 
0.0

>  <PEOE_VSA3>  (263) 
9.967957

>  <PEOE_VSA4>  (263) 
0.0

>  <PEOE_VSA5>  (263) 
0.0

>  <PEOE_VSA6>  (263) 
0.0

>  <PEOE_VSA7>  (263) 
12.487189

>  <PEOE_VSA8>  (263) 
19.162422

>  <PEOE_VSA9>  (263) 
11.930981

>  <SMR_VSA1>  (263) 
5.733667

>  <SMR_VSA10>  (263) 
16.851264

>  <SMR_VSA2>  (263) 
0.0

>  <SMR_VSA3>  (263) 
14.951936

>  <SMR_VSA4>  (263) 
0.0

>  <SMR_VSA5>  (263) 
19.3864

>  <SMR_VSA6>  (263) 
17.989423

>  <SMR_VSA7>  (263) 
18.087615

>  <SMR_VSA8>  (263) 
0.0

>  <SMR_VSA9>  (263) 
0.0

>  <SlogP_VSA1>  (263) 
10.633577

>  <SlogP_VSA10>  (263) 
5.817863

>  <SlogP_VSA11>  (263) 
0.0

>  <SlogP_VSA12>  (263) 
0.0

>  <SlogP_VSA2>  (263) 
34.083289

>  <SlogP_VSA3>  (263) 
0.0

>  <SlogP_VSA4>  (263) 
6.923737

>  <SlogP_VSA5>  (263) 
11.984273

>  <SlogP_VSA6>  (263) 
12.524164

>  <SlogP_VSA7>  (263) 
0.0

>  <SlogP_VSA8>  (263) 
11.033401

>  <SlogP_VSA9>  (263) 
0.0

>  <EState_VSA1>  (263) 
0.0

>  <EState_VSA10>  (263) 
0.0

>  <EState_VSA11>  (263) 
0.0

>  <EState_VSA2>  (263) 
0.0

>  <EState_VSA3>  (263) 
6.041841

>  <EState_VSA4>  (263) 
36.361599

>  <EState_VSA5>  (263) 
5.563451

>  <EState_VSA6>  (263) 
6.32732

>  <EState_VSA7>  (263) 
6.196844

>  <EState_VSA8>  (263) 
32.50925

>  <EState_VSA9>  (263) 
0.0

>  <VSA_EState1>  (263) 
0.0

>  <VSA_EState10>  (263) 
0.0

>  <VSA_EState2>  (263) 
14.145151

>  <VSA_EState3>  (263) 
1.14963

>  <VSA_EState4>  (263) 
6.243035

>  <VSA_EState5>  (263) 
1.050833

>  <VSA_EState6>  (263) 
0.517836

>  <VSA_EState7>  (263) 
4.763477

>  <VSA_EState8>  (263) 
4.130036

>  <VSA_EState9>  (263) 
0.0

>  <FractionCSP3>  (263) 
0.454545

>  <HeavyAtomCount>  (263) 
16

>  <NHOHCount>  (263) 
4

>  <NOCount>  (263) 
5

>  <NumAliphaticCarbocycles>  (263) 
0

>  <NumAliphaticHeterocycles>  (263) 
1

>  <NumAliphaticRings>  (263) 
1

>  <NumAromaticCarbocycles>  (263) 
0

>  <NumAromaticHeterocycles>  (263) 
2

>  <NAR>  (263) 
2

>  <NumHAcceptors>  (263) 
3

>  <NumHDonors>  (263) 
2

>  <NumHeteroatoms>  (263) 
5

>  <NumRotatableBonds>  (263) 
1

>  <NumSaturatedCarbocycles>  (263) 
0

>  <NumSaturatedHeterocycles>  (263) 
1

>  <NumSaturatedRings>  (263) 
1

>  <RingCount>  (263) 
3

>  <MolLogP>  (263) 
0.08692

>  <MolMR>  (263) 
62.1318

>  <fr_Al_COO>  (263) 
0

>  <fr_Al_OH>  (263) 
0

>  <fr_Al_OH_noTert>  (263) 
0

>  <fr_ArN>  (263) 
0

>  <fr_Ar_COO>  (263) 
0

>  <fr_Ar_N>  (263) 
3

>  <fr_Ar_NH>  (263) 
1

>  <fr_Ar_OH>  (263) 
0

>  <fr_COO>  (263) 
0

>  <fr_COO2>  (263) 
0

>  <fr_C_O>  (263) 
0

>  <fr_C_O_noCOO>  (263) 
0

>  <fr_C_S>  (263) 
0

>  <fr_HOCCN>  (263) 
0

>  <fr_Imine>  (263) 
0

>  <fr_NH0>  (263) 
3

>  <fr_NH1>  (263) 
1

>  <fr_NH2>  (263) 
0

>  <fr_N_O>  (263) 
0

>  <fr_Ndealkylation1>  (263) 
0

>  <fr_Ndealkylation2>  (263) 
0

>  <fr_Nhpyrrole>  (263) 
1

>  <fr_SH>  (263) 
0

>  <fr_aldehyde>  (263) 
0

>  <fr_alkyl_carbamate>  (263) 
0

>  <fr_alkyl_halide>  (263) 
0

>  <fr_allylic_oxid>  (263) 
0

>  <fr_amide>  (263) 
0

>  <fr_amidine>  (263) 
0

>  <fr_aniline>  (263) 
1

>  <fr_aryl_methyl>  (263) 
1

>  <fr_azide>  (263) 
0

>  <fr_azo>  (263) 
0

>  <fr_barbitur>  (263) 
0

>  <fr_benzene>  (263) 
0

>  <fr_benzodiazepine>  (263) 
0

>  <fr_bicyclic>  (263) 
1

>  <fr_diazo>  (263) 
0

>  <fr_dihydropyridine>  (263) 
0

>  <fr_epoxide>  (263) 
0

>  <fr_ester>  (263) 
0

>  <fr_ether>  (263) 
0

>  <fr_furan>  (263) 
0

>  <fr_guanido>  (263) 
0

>  <fr_halogen>  (263) 
0

>  <fr_hdrzine>  (263) 
0

>  <fr_hdrzone>  (263) 
0

>  <fr_imidazole>  (263) 
0

>  <fr_imide>  (263) 
0

>  <fr_isocyan>  (263) 
0

>  <fr_isothiocyan>  (263) 
0

>  <fr_ketone>  (263) 
0

>  <fr_ketone_Topliss>  (263) 
0

>  <fr_lactam>  (263) 
0

>  <fr_lactone>  (263) 
0

>  <fr_methoxy>  (263) 
0

>  <fr_morpholine>  (263) 
0

>  <fr_nitrile>  (263) 
0

>  <fr_nitro>  (263) 
0

>  <fr_nitro_arom>  (263) 
0

>  <fr_nitro_arom_nonortho>  (263) 
0

>  <fr_nitroso>  (263) 
0

>  <fr_oxazole>  (263) 
0

>  <fr_oxime>  (263) 
0

>  <fr_para_hydroxylation>  (263) 
0

>  <fr_phenol>  (263) 
0

>  <fr_phenol_noOrthoHbond>  (263) 
0

>  <fr_phos_acid>  (263) 
0

>  <fr_phos_ester>  (263) 
0

>  <fr_piperdine>  (263) 
0

>  <fr_piperzine>  (263) 
0

>  <fr_priamide>  (263) 
0

>  <fr_prisulfonamd>  (263) 
0

>  <fr_pyridine>  (263) 
0

>  <fr_quatN>  (263) 
1

>  <fr_sulfide>  (263) 
0

>  <fr_sulfonamd>  (263) 
0

>  <fr_sulfone>  (263) 
0

>  <fr_term_acetylene>  (263) 
0

>  <fr_tetrazole>  (263) 
0

>  <fr_thiazole>  (263) 
0

>  <fr_thiocyan>  (263) 
0

>  <fr_thiophene>  (263) 
0

>  <fr_unbrch_alkane>  (263) 
0

>  <fr_urea>  (263) 
0

>  <NP-Likeness>  (263) 
-0.920582

$$$$
XFE
     RDKit          3D

  0  0  0  0  0  0  0  0  0  0999 V3000
M  V30 BEGIN CTAB
M  V30 COUNTS 32 34 0 0 0
M  V30 BEGIN ATOM
M  V30 1 C 0.498406 -1.169403 4.288807 0
M  V30 2 N 0.223681 0.135254 4.577175 0
M  V30 3 C 0.047811 1.024766 3.584617 0
M  V30 4 C 0.148753 0.601658 2.283174 0
M  V30 5 C 0.425237 -0.706651 1.959842 0
M  V30 6 N 0.600441 -1.377925 0.717956 0
M  V30 7 C 1.602117 -1.275973 -0.324402 0
M  V30 8 C 0.811920 -1.550611 -1.580134 0
M  V30 9 C -0.508117 -2.139515 -1.141095 0 CFG=1
M  V30 10 N -0.762734 -3.383117 -1.872938 0 CHG=1 VAL=4
M  V30 11 C -0.365543 -2.395251 0.327809 0
M  V30 12 N 0.597752 -1.584350 2.992007 0
M  V30 13 C -0.055203 1.596278 1.360436 0
M  V30 14 C -0.046056 1.560754 -0.111007 0
M  V30 15 C -0.298808 2.715474 2.161726 0
M  V30 16 N -0.229581 2.338841 3.467413 0
M  V30 17 H 0.638582 -1.881261 5.110148 0
M  V30 18 H 2.145209 -0.315574 -0.336063 0
M  V30 19 H 2.348335 -2.103715 -0.202682 0
M  V30 20 H 1.351494 -2.282508 -2.231046 0
M  V30 21 H 0.658778 -0.577494 -2.126830 0
M  V30 22 H -1.365838 -1.440605 -1.313408 0
M  V30 23 H -1.708680 -3.716567 -1.647336 0
M  V30 24 H 0.008845 -4.034200 -1.623300 0
M  V30 25 H -0.695620 -3.174118 -2.875214 0
M  V30 26 H 0.166207 -3.371584 0.525773 0
M  V30 27 H -1.307385 -2.362315 0.880097 0
M  V30 28 H 0.926179 1.705693 -0.578498 0
M  V30 29 H -0.665516 2.443298 -0.463265 0
M  V30 30 H -0.614024 0.685880 -0.496889 0
M  V30 31 H -0.507745 3.716081 1.786172 0
M  V30 32 H -0.371009 2.974462 4.308329 0
M  V30 END ATOM
M  V30 BEGIN BOND
M  V30 1 2 1 2
M  V30 2 1 2 3
M  V30 3 2 3 4
M  V30 4 1 4 5
M  V30 5 1 5 6
M  V30 6 1 6 7
M  V30 7 1 7 8
M  V30 8 1 8 9
M  V30 9 1 9 10
M  V30 10 1 9 11
M  V30 11 2 5 12
M  V30 12 1 4 13
M  V30 13 1 13 14
M  V30 14 2 13 15
M  V30 15 1 15 16
M  V30 16 1 12 1
M  V30 17 1 16 3
M  V30 18 1 11 6
M  V30 19 1 1 17
M  V30 20 1 7 18
M  V30 21 1 7 19
M  V30 22 1 8 20
M  V30 23 1 8 21
M  V30 24 1 9 22 CFG=1
M  V30 25 1 10 23
M  V30 26 1 10 24
M  V30 27 1 10 25
M  V30 28 1 11 26
M  V30 29 1 11 27
M  V30 30 1 14 28
M  V30 31 1 14 29
M  V30 32 1 14 30
M  V30 33 1 15 31
M  V30 34 1 16 32
M  V30 END BOND
M  V30 END CTAB
M  END
>  <Dataset>  (264) 
PDB

>  <Ligand_Instance>  (264) 
3MVJ_XFE_E_351

>  <PDB_ID>  (264) 
3MVJ

>  <Standardized_SMILES>  (264) 
[H]C1=NC2=C(C(N3C([H])([H])C([H])([H])[C@@]([H])([N+]([H])([H])[H])C3([H])[H])=N1)C(C([H])([H])[H])=C([H])N2[H]

>  <Name>  (264) 
(3R)-1-(5-methyl-7H-pyrrolo[2,3-d]pyrimidin-4-yl)pyrrolidin-3-amine

>  <Pocket>  (264) 
A

>  <ATP_Site>  (264) 
1.0

>  <Peripheral>  (264) 
0.0

>  <Num_H_Atoms_ProtBoundConf>  (264) 
16.0

>  <Num_Resolved_Atoms>  (264) 
16.0

>  <Num_Not_Resolved_Atoms>  (264) 
0.0

>  <2D_Mol_H>  (264) 
<rdkit.Chem.rdchem.Mol object at 0x72a239101000>

>  <MW>  (264) 
218.284

>  <HBA>  (264) 
3

>  <HBD>  (264) 
2

>  <LogP>  (264) 
0.08692

>  <NRB>  (264) 
3

>  <TPSA>  (264) 
72.45

>  <Num_Heavy_Atoms>  (264) 
16

>  <Ro5>  (264) 
[True, True, True, True, True, True]

>  <Ro5_Fulfilled>  (264) 
True

>  <Ro3>  (264) 
[True, True, True, True]

>  <Ro3_Fulfilled>  (264) 
True

>  <Fsp3>  (264) 
0.454545

>  <Fsp3_0.42>  (264) 
True

>  <Fsp3_0.45>  (264) 
True

>  <Stereogenic_Carbons>  (264) 
1

>  <C_Atoms>  (264) 
11

>  <FCStereo>  (264) 
0.090909

>  <SPS>  (264) 
334

>  <nSPS>  (264) 
20.875

>  <PBF>  (264) 
0.687344

>  <PBF_0.6>  (264) 
True

>  <nPBF>  (264) 
0.042959

>  <nPBF_0.016>  (264) 
True

>  <PMI1>  (264) 
491.734601

>  <PMI2>  (264) 
1348.050116

>  <PMI3>  (264) 
1673.378242

>  <NPR1>  (264) 
0.293857

>  <NPR2>  (264) 
0.805586

>  <Sum_NPR>  (264) 
1.099443

>  <Sum_NPR_1.07>  (264) 
True

>  <Sum_NPR_1.2>  (264) 
False

>  <MaxAbsEStateIndex>  (264) 
4.423426

>  <MaxEStateIndex>  (264) 
4.423426

>  <MinAbsEStateIndex>  (264) 
0.517836

>  <MinEStateIndex>  (264) 
0.517836

>  <qed>  (264) 
0.712056

>  <MolWt>  (264) 
218.284

>  <HeavyAtomMolWt>  (264) 
202.156

>  <ExactMolWt>  (264) 
218.140022

>  <NumValenceElectrons>  (264) 
84

>  <NumRadicalElectrons>  (264) 
0

>  <MaxPartialCharge>  (264) 
0.142625

>  <MinPartialCharge>  (264) 
-0.353604

>  <MaxAbsPartialCharge>  (264) 
0.353604

>  <MinAbsPartialCharge>  (264) 
0.142625

>  <FpDensityMorgan1>  (264) 
1.5

>  <FpDensityMorgan2>  (264) 
2.375

>  <FpDensityMorgan3>  (264) 
3.125

>  <BCUT2D_MWHI>  (264) 
15.225946

>  <BCUT2D_MWLOW>  (264) 
10.223823

>  <BCUT2D_CHGHI>  (264) 
2.246257

>  <BCUT2D_CHGLO>  (264) 
-2.162619

>  <BCUT2D_LOGPHI>  (264) 
2.269821

>  <BCUT2D_LOGPLOW>  (264) 
-2.614533

>  <BCUT2D_MRHI>  (264) 
5.901635

>  <BCUT2D_MRLOW>  (264) 
-0.411732

>  <AvgIpc>  (264) 
2.859732

>  <BalabanJ>  (264) 
2.11915

>  <BertzCT>  (264) 
518.069321

>  <Chi0>  (264) 
11.120956

>  <Chi0n>  (264) 
9.402119

>  <Chi0v>  (264) 
9.402119

>  <Chi1>  (264) 
7.75402

>  <Chi1n>  (264) 
5.621769

>  <Chi1v>  (264) 
5.621769

>  <Chi2n>  (264) 
4.493286

>  <Chi2v>  (264) 
4.493286

>  <Chi3n>  (264) 
3.232381

>  <Chi3v>  (264) 
3.232381

>  <Chi4n>  (264) 
2.362415

>  <Chi4v>  (264) 
2.362415

>  <HallKierAlpha>  (264) 
-1.62

>  <Ipc>  (264) 
9305.566665

>  <Kappa1>  (264) 
9.594963

>  <Kappa2>  (264) 
3.450087

>  <Kappa3>  (264) 
1.356418

>  <LabuteASA>  (264) 
93.680128

>  <PEOE_VSA1>  (264) 
15.617556

>  <PEOE_VSA10>  (264) 
23.834201

>  <PEOE_VSA11>  (264) 
0.0

>  <PEOE_VSA12>  (264) 
0.0

>  <PEOE_VSA13>  (264) 
0.0

>  <PEOE_VSA14>  (264) 
0.0

>  <PEOE_VSA2>  (264) 
0.0

>  <PEOE_VSA3>  (264) 
9.967957

>  <PEOE_VSA4>  (264) 
0.0

>  <PEOE_VSA5>  (264) 
0.0

>  <PEOE_VSA6>  (264) 
0.0

>  <PEOE_VSA7>  (264) 
12.487189

>  <PEOE_VSA8>  (264) 
19.162422

>  <PEOE_VSA9>  (264) 
11.930981

>  <SMR_VSA1>  (264) 
5.733667

>  <SMR_VSA10>  (264) 
16.851264

>  <SMR_VSA2>  (264) 
0.0

>  <SMR_VSA3>  (264) 
14.951936

>  <SMR_VSA4>  (264) 
0.0

>  <SMR_VSA5>  (264) 
19.3864

>  <SMR_VSA6>  (264) 
17.989423

>  <SMR_VSA7>  (264) 
18.087615

>  <SMR_VSA8>  (264) 
0.0

>  <SMR_VSA9>  (264) 
0.0

>  <SlogP_VSA1>  (264) 
10.633577

>  <SlogP_VSA10>  (264) 
5.817863

>  <SlogP_VSA11>  (264) 
0.0

>  <SlogP_VSA12>  (264) 
0.0

>  <SlogP_VSA2>  (264) 
34.083289

>  <SlogP_VSA3>  (264) 
0.0

>  <SlogP_VSA4>  (264) 
6.923737

>  <SlogP_VSA5>  (264) 
11.984273

>  <SlogP_VSA6>  (264) 
12.524164

>  <SlogP_VSA7>  (264) 
0.0

>  <SlogP_VSA8>  (264) 
11.033401

>  <SlogP_VSA9>  (264) 
0.0

>  <EState_VSA1>  (264) 
0.0

>  <EState_VSA10>  (264) 
0.0

>  <EState_VSA11>  (264) 
0.0

>  <EState_VSA2>  (264) 
0.0

>  <EState_VSA3>  (264) 
6.041841

>  <EState_VSA4>  (264) 
36.361599

>  <EState_VSA5>  (264) 
5.563451

>  <EState_VSA6>  (264) 
6.32732

>  <EState_VSA7>  (264) 
6.196844

>  <EState_VSA8>  (264) 
32.50925

>  <EState_VSA9>  (264) 
0.0

>  <VSA_EState1>  (264) 
0.0

>  <VSA_EState10>  (264) 
0.0

>  <VSA_EState2>  (264) 
14.145151

>  <VSA_EState3>  (264) 
1.14963

>  <VSA_EState4>  (264) 
6.243035

>  <VSA_EState5>  (264) 
1.050833

>  <VSA_EState6>  (264) 
0.517836

>  <VSA_EState7>  (264) 
4.763477

>  <VSA_EState8>  (264) 
4.130036

>  <VSA_EState9>  (264) 
0.0

>  <FractionCSP3>  (264) 
0.454545

>  <HeavyAtomCount>  (264) 
16

>  <NHOHCount>  (264) 
4

>  <NOCount>  (264) 
5

>  <NumAliphaticCarbocycles>  (264) 
0

>  <NumAliphaticHeterocycles>  (264) 
1

>  <NumAliphaticRings>  (264) 
1

>  <NumAromaticCarbocycles>  (264) 
0

>  <NumAromaticHeterocycles>  (264) 
2

>  <NAR>  (264) 
2

>  <NumHAcceptors>  (264) 
3

>  <NumHDonors>  (264) 
2

>  <NumHeteroatoms>  (264) 
5

>  <NumRotatableBonds>  (264) 
1

>  <NumSaturatedCarbocycles>  (264) 
0

>  <NumSaturatedHeterocycles>  (264) 
1

>  <NumSaturatedRings>  (264) 
1

>  <RingCount>  (264) 
3

>  <MolLogP>  (264) 
0.08692

>  <MolMR>  (264) 
62.1318

>  <fr_Al_COO>  (264) 
0

>  <fr_Al_OH>  (264) 
0

>  <fr_Al_OH_noTert>  (264) 
0

>  <fr_ArN>  (264) 
0

>  <fr_Ar_COO>  (264) 
0

>  <fr_Ar_N>  (264) 
3

>  <fr_Ar_NH>  (264) 
1

>  <fr_Ar_OH>  (264) 
0

>  <fr_COO>  (264) 
0

>  <fr_COO2>  (264) 
0

>  <fr_C_O>  (264) 
0

>  <fr_C_O_noCOO>  (264) 
0

>  <fr_C_S>  (264) 
0

>  <fr_HOCCN>  (264) 
0

>  <fr_Imine>  (264) 
0

>  <fr_NH0>  (264) 
3

>  <fr_NH1>  (264) 
1

>  <fr_NH2>  (264) 
0

>  <fr_N_O>  (264) 
0

>  <fr_Ndealkylation1>  (264) 
0

>  <fr_Ndealkylation2>  (264) 
0

>  <fr_Nhpyrrole>  (264) 
1

>  <fr_SH>  (264) 
0

>  <fr_aldehyde>  (264) 
0

>  <fr_alkyl_carbamate>  (264) 
0

>  <fr_alkyl_halide>  (264) 
0

>  <fr_allylic_oxid>  (264) 
0

>  <fr_amide>  (264) 
0

>  <fr_amidine>  (264) 
0

>  <fr_aniline>  (264) 
1

>  <fr_aryl_methyl>  (264) 
1

>  <fr_azide>  (264) 
0

>  <fr_azo>  (264) 
0

>  <fr_barbitur>  (264) 
0

>  <fr_benzene>  (264) 
0

>  <fr_benzodiazepine>  (264) 
0

>  <fr_bicyclic>  (264) 
1

>  <fr_diazo>  (264) 
0

>  <fr_dihydropyridine>  (264) 
0

>  <fr_epoxide>  (264) 
0

>  <fr_ester>  (264) 
0

>  <fr_ether>  (264) 
0

>  <fr_furan>  (264) 
0

>  <fr_guanido>  (264) 
0

>  <fr_halogen>  (264) 
0

>  <fr_hdrzine>  (264) 
0

>  <fr_hdrzone>  (264) 
0

>  <fr_imidazole>  (264) 
0

>  <fr_imide>  (264) 
0

>  <fr_isocyan>  (264) 
0

>  <fr_isothiocyan>  (264) 
0

>  <fr_ketone>  (264) 
0

>  <fr_ketone_Topliss>  (264) 
0

>  <fr_lactam>  (264) 
0

>  <fr_lactone>  (264) 
0

>  <fr_methoxy>  (264) 
0

>  <fr_morpholine>  (264) 
0

>  <fr_nitrile>  (264) 
0

>  <fr_nitro>  (264) 
0

>  <fr_nitro_arom>  (264) 
0

>  <fr_nitro_arom_nonortho>  (264) 
0

>  <fr_nitroso>  (264) 
0

>  <fr_oxazole>  (264) 
0

>  <fr_oxime>  (264) 
0

>  <fr_para_hydroxylation>  (264) 
0

>  <fr_phenol>  (264) 
0

>  <fr_phenol_noOrthoHbond>  (264) 
0

>  <fr_phos_acid>  (264) 
0

>  <fr_phos_ester>  (264) 
0

>  <fr_piperdine>  (264) 
0

>  <fr_piperzine>  (264) 
0

>  <fr_priamide>  (264) 
0

>  <fr_prisulfonamd>  (264) 
0

>  <fr_pyridine>  (264) 
0

>  <fr_quatN>  (264) 
1

>  <fr_sulfide>  (264) 
0

>  <fr_sulfonamd>  (264) 
0

>  <fr_sulfone>  (264) 
0

>  <fr_term_acetylene>  (264) 
0

>  <fr_tetrazole>  (264) 
0

>  <fr_thiazole>  (264) 
0

>  <fr_thiocyan>  (264) 
0

>  <fr_thiophene>  (264) 
0

>  <fr_unbrch_alkane>  (264) 
0

>  <fr_urea>  (264) 
0

>  <NP-Likeness>  (264) 
-0.920582

$$$$
Y27
     RDKit          3D

  0  0  0  0  0  0  0  0  0  0999 V3000
M  V30 BEGIN CTAB
M  V30 COUNTS 40 41 0 0 0
M  V30 BEGIN ATOM
M  V30 1 C -0.034709 -5.807143 3.542106 0
M  V30 2 N -1.326924 -6.128903 3.440990 0
M  V30 3 C -2.263652 -5.239884 3.095278 0
M  V30 4 C -1.866461 -3.959143 2.839486 0
M  V30 5 C -0.526609 -3.575969 2.932303 0
M  V30 6 N -0.336717 -2.185136 2.621039 0
M  V30 7 C -0.086324 -1.887790 1.267237 0
M  V30 8 O -0.006681 -2.697319 0.281645 0
M  V30 9 C 0.148401 -0.534296 0.657912 0 CFG=2
M  V30 10 C 0.362347 -0.783157 -0.807449 0
M  V30 11 C 0.734886 0.424511 -1.592427 0
M  V30 12 C 1.323792 1.534351 -0.794553 0 CFG=1
M  V30 13 C 0.296641 2.637520 -0.639910 0 CFG=1
M  V30 14 C 0.837277 3.803867 0.167739 0
M  V30 15 N -0.059845 3.189351 -1.934531 0 CHG=1 VAL=4
M  V30 16 C 2.000804 1.166803 0.467236 0
M  V30 17 C 1.409374 0.041331 1.228953 0
M  V30 18 C 0.408296 -4.524168 3.292125 0
M  V30 19 H 0.748427 -6.498346 3.818501 0
M  V30 20 H -3.291842 -5.560534 3.030512 0
M  V30 21 H -2.681831 -3.277109 2.560845 0
M  V30 22 H -0.352586 -1.337875 3.238565 0
M  V30 23 H -0.674210 0.157541 0.888859 0
M  V30 24 H 1.156355 -1.560797 -0.885638 0
M  V30 25 H -0.546674 -1.241304 -1.287545 0
M  V30 26 H -0.166933 0.806022 -2.152104 0
M  V30 27 H 1.414476 0.075223 -2.415354 0
M  V30 28 H 2.109352 1.997797 -1.464201 0
M  V30 29 H -0.640206 2.314389 -0.163055 0
M  V30 30 H 0.144275 4.668824 -0.056913 0
M  V30 31 H 1.835970 4.132295 -0.194836 0
M  V30 32 H 0.765273 3.664850 1.251287 0
M  V30 33 H -0.947294 2.739649 -2.307364 0
M  V30 34 H 0.684755 2.942340 -2.638489 0
M  V30 35 H -0.250651 4.205364 -1.907847 0
M  V30 36 H 2.068243 2.102326 1.090152 0
M  V30 37 H 3.064151 0.910631 0.264539 0
M  V30 38 H 1.213986 0.383915 2.280133 0
M  V30 39 H 2.123009 -0.824554 1.356206 0
M  V30 40 H 1.413540 -4.123918 3.334395 0
M  V30 END ATOM
M  V30 BEGIN BOND
M  V30 1 2 1 2
M  V30 2 1 2 3
M  V30 3 2 3 4
M  V30 4 1 4 5
M  V30 5 1 5 6
M  V30 6 1 6 7
M  V30 7 2 7 8
M  V30 8 1 7 9
M  V30 9 1 9 10
M  V30 10 1 10 11
M  V30 11 1 11 12
M  V30 12 1 12 13
M  V30 13 1 13 14
M  V30 14 1 13 15
M  V30 15 1 12 16
M  V30 16 1 16 17
M  V30 17 2 5 18
M  V30 18 1 18 1
M  V30 19 1 17 9
M  V30 20 1 1 19
M  V30 21 1 3 20
M  V30 22 1 4 21
M  V30 23 1 6 22
M  V30 24 1 9 23 CFG=3
M  V30 25 1 10 24
M  V30 26 1 10 25
M  V30 27 1 11 26
M  V30 28 1 11 27
M  V30 29 1 12 28 CFG=3
M  V30 30 1 13 29 CFG=1
M  V30 31 1 14 30
M  V30 32 1 14 31
M  V30 33 1 14 32
M  V30 34 1 15 33
M  V30 35 1 15 34
M  V30 36 1 15 35
M  V30 37 1 16 36
M  V30 38 1 16 37
M  V30 39 1 17 38
M  V30 40 1 17 39
M  V30 41 1 18 40
M  V30 END BOND
M  V30 END CTAB
M  END
>  <Dataset>  (265) 
PDB

>  <Ligand_Instance>  (265) 
2GNF_Y27_A_501

>  <PDB_ID>  (265) 
2GNF

>  <Standardized_SMILES>  (265) 
[H]C1=NC([H])=C([H])C(N([H])C(=O)[C@]2([H])C([H])([H])C([H])([H])[C@@]([H])([C@@]([H])(C([H])([H])[H])[N+]([H])([H])[H])C([H])([H])C2([H])[H])=C1[H]

>  <Name>  (265) 
(R)-TRANS-4-(1-AMINOETHYL)-N-(4-PYRIDYL) CYCLOHEXANECARBOXAMIDE

>  <Pocket>  (265) 
A

>  <ATP_Site>  (265) 
1.0

>  <Peripheral>  (265) 
0.0

>  <Num_H_Atoms_ProtBoundConf>  (265) 
22.0

>  <Num_Resolved_Atoms>  (265) 
18.0

>  <Num_Not_Resolved_Atoms>  (265) 
0.0

>  <2D_Mol_H>  (265) 
<rdkit.Chem.rdchem.Mol object at 0x72a2391010e0>

>  <MW>  (265) 
248.35

>  <HBA>  (265) 
2

>  <HBD>  (265) 
2

>  <LogP>  (265) 
1.4569

>  <NRB>  (265) 
5

>  <TPSA>  (265) 
69.63

>  <Num_Heavy_Atoms>  (265) 
18

>  <Ro5>  (265) 
[True, True, True, True, True, True]

>  <Ro5_Fulfilled>  (265) 
True

>  <Ro3>  (265) 
[True, True, True, True]

>  <Ro3_Fulfilled>  (265) 
True

>  <Fsp3>  (265) 
0.571429

>  <Fsp3_0.42>  (265) 
True

>  <Fsp3_0.45>  (265) 
True

>  <Stereogenic_Carbons>  (265) 
3

>  <C_Atoms>  (265) 
14

>  <FCStereo>  (265) 
0.214286

>  <SPS>  (265) 
458

>  <nSPS>  (265) 
25.444444

>  <PBF>  (265) 
0.945689

>  <PBF_0.6>  (265) 
True

>  <nPBF>  (265) 
0.052538

>  <nPBF_0.016>  (265) 
True

>  <PMI1>  (265) 
378.939705

>  <PMI2>  (265) 
3278.486721

>  <PMI3>  (265) 
3328.525581

>  <NPR1>  (265) 
0.113846

>  <NPR2>  (265) 
0.984967

>  <Sum_NPR>  (265) 
1.098813

>  <Sum_NPR_1.07>  (265) 
True

>  <Sum_NPR_1.2>  (265) 
False

>  <MaxAbsEStateIndex>  (265) 
12.096885

>  <MaxEStateIndex>  (265) 
12.096885

>  <MinAbsEStateIndex>  (265) 
0.149412

>  <MinEStateIndex>  (265) 
0.149412

>  <qed>  (265) 
0.849822

>  <MolWt>  (265) 
248.35

>  <HeavyAtomMolWt>  (265) 
226.174

>  <ExactMolWt>  (265) 
248.175739

>  <NumValenceElectrons>  (265) 
98

>  <NumRadicalElectrons>  (265) 
0

>  <MaxPartialCharge>  (265) 
0.226985

>  <MinPartialCharge>  (265) 
-0.35513

>  <MaxAbsPartialCharge>  (265) 
0.35513

>  <MinAbsPartialCharge>  (265) 
0.226985

>  <FpDensityMorgan1>  (265) 
1.333333

>  <FpDensityMorgan2>  (265) 
1.944444

>  <FpDensityMorgan3>  (265) 
2.5

>  <BCUT2D_MWHI>  (265) 
16.149739

>  <BCUT2D_MWLOW>  (265) 
9.785787

>  <BCUT2D_CHGHI>  (265) 
2.28551

>  <BCUT2D_CHGLO>  (265) 
-2.279162

>  <BCUT2D_LOGPHI>  (265) 
2.300703

>  <BCUT2D_LOGPLOW>  (265) 
-2.625591

>  <BCUT2D_MRHI>  (265) 
5.919535

>  <BCUT2D_MRLOW>  (265) 
-0.428413

>  <AvgIpc>  (265) 
2.397096

>  <BalabanJ>  (265) 
1.845511

>  <BertzCT>  (265) 
383.285394

>  <Chi0>  (265) 
12.957819

>  <Chi0n>  (265) 
10.932448

>  <Chi0v>  (265) 
10.932448

>  <Chi1>  (265) 
8.664704

>  <Chi1n>  (265) 
6.705139

>  <Chi1v>  (265) 
6.705139

>  <Chi2n>  (265) 
5.314127

>  <Chi2v>  (265) 
5.314127

>  <Chi3n>  (265) 
3.895225

>  <Chi3v>  (265) 
3.895225

>  <Chi4n>  (265) 
2.629989

>  <Chi4v>  (265) 
2.629989

>  <HallKierAlpha>  (265) 
-1.42

>  <Ipc>  (265) 
14267.517678

>  <Kappa1>  (265) 
13.02212

>  <Kappa2>  (265) 
5.956551

>  <Kappa3>  (265) 
3.291794

>  <LabuteASA>  (265) 
107.980974

>  <PEOE_VSA1>  (265) 
11.050456

>  <PEOE_VSA10>  (265) 
0.0

>  <PEOE_VSA11>  (265) 
0.0

>  <PEOE_VSA12>  (265) 
5.90718

>  <PEOE_VSA13>  (265) 
0.0

>  <PEOE_VSA14>  (265) 
0.0

>  <PEOE_VSA2>  (265) 
9.778516

>  <PEOE_VSA3>  (265) 
0.0

>  <PEOE_VSA4>  (265) 
0.0

>  <PEOE_VSA5>  (265) 
0.0

>  <PEOE_VSA6>  (265) 
0.0

>  <PEOE_VSA7>  (265) 
44.739758

>  <PEOE_VSA8>  (265) 
29.916886

>  <PEOE_VSA9>  (265) 
6.041841

>  <SMR_VSA1>  (265) 
10.528205

>  <SMR_VSA10>  (265) 
11.594566

>  <SMR_VSA2>  (265) 
0.0

>  <SMR_VSA3>  (265) 
4.983979

>  <SMR_VSA4>  (265) 
11.835812

>  <SMR_VSA5>  (265) 
38.648865

>  <SMR_VSA6>  (265) 
5.316789

>  <SMR_VSA7>  (265) 
24.526421

>  <SMR_VSA8>  (265) 
0.0

>  <SMR_VSA9>  (265) 
0.0

>  <SlogP_VSA1>  (265) 
11.050456

>  <SlogP_VSA10>  (265) 
5.687386

>  <SlogP_VSA11>  (265) 
0.0

>  <SlogP_VSA12>  (265) 
0.0

>  <SlogP_VSA2>  (265) 
16.932999

>  <SlogP_VSA3>  (265) 
4.794537

>  <SlogP_VSA4>  (265) 
11.835812

>  <SlogP_VSA5>  (265) 
32.607024

>  <SlogP_VSA6>  (265) 
24.526421

>  <SlogP_VSA7>  (265) 
0.0

>  <SlogP_VSA8>  (265) 
0.0

>  <SlogP_VSA9>  (265) 
0.0

>  <EState_VSA1>  (265) 
0.0

>  <EState_VSA10>  (265) 
4.794537

>  <EState_VSA11>  (265) 
0.0

>  <EState_VSA2>  (265) 
11.825086

>  <EState_VSA3>  (265) 
11.959747

>  <EState_VSA4>  (265) 
31.370673

>  <EState_VSA5>  (265) 
0.0

>  <EState_VSA6>  (265) 
12.393687

>  <EState_VSA7>  (265) 
12.132734

>  <EState_VSA8>  (265) 
22.958172

>  <EState_VSA9>  (265) 
0.0

>  <VSA_EState1>  (265) 
0.0

>  <VSA_EState10>  (265) 
0.0

>  <VSA_EState2>  (265) 
16.033156

>  <VSA_EState3>  (265) 
2.961124

>  <VSA_EState4>  (265) 
4.928059

>  <VSA_EState5>  (265) 
0.999542

>  <VSA_EState6>  (265) 
4.136637

>  <VSA_EState7>  (265) 
7.60613

>  <VSA_EState8>  (265) 
2.168684

>  <VSA_EState9>  (265) 
0.0

>  <FractionCSP3>  (265) 
0.571429

>  <HeavyAtomCount>  (265) 
18

>  <NHOHCount>  (265) 
4

>  <NOCount>  (265) 
4

>  <NumAliphaticCarbocycles>  (265) 
1

>  <NumAliphaticHeterocycles>  (265) 
0

>  <NumAliphaticRings>  (265) 
1

>  <NumAromaticCarbocycles>  (265) 
0

>  <NumAromaticHeterocycles>  (265) 
1

>  <NAR>  (265) 
1

>  <NumHAcceptors>  (265) 
2

>  <NumHDonors>  (265) 
2

>  <NumHeteroatoms>  (265) 
4

>  <NumRotatableBonds>  (265) 
3

>  <NumSaturatedCarbocycles>  (265) 
1

>  <NumSaturatedHeterocycles>  (265) 
0

>  <NumSaturatedRings>  (265) 
1

>  <RingCount>  (265) 
2

>  <MolLogP>  (265) 
1.4569

>  <MolMR>  (265) 
70.6648

>  <fr_Al_COO>  (265) 
0

>  <fr_Al_OH>  (265) 
0

>  <fr_Al_OH_noTert>  (265) 
0

>  <fr_ArN>  (265) 
0

>  <fr_Ar_COO>  (265) 
0

>  <fr_Ar_N>  (265) 
1

>  <fr_Ar_NH>  (265) 
0

>  <fr_Ar_OH>  (265) 
0

>  <fr_COO>  (265) 
0

>  <fr_COO2>  (265) 
0

>  <fr_C_O>  (265) 
1

>  <fr_C_O_noCOO>  (265) 
1

>  <fr_C_S>  (265) 
0

>  <fr_HOCCN>  (265) 
0

>  <fr_Imine>  (265) 
0

>  <fr_NH0>  (265) 
1

>  <fr_NH1>  (265) 
1

>  <fr_NH2>  (265) 
0

>  <fr_N_O>  (265) 
0

>  <fr_Ndealkylation1>  (265) 
0

>  <fr_Ndealkylation2>  (265) 
0

>  <fr_Nhpyrrole>  (265) 
0

>  <fr_SH>  (265) 
0

>  <fr_aldehyde>  (265) 
0

>  <fr_alkyl_carbamate>  (265) 
0

>  <fr_alkyl_halide>  (265) 
0

>  <fr_allylic_oxid>  (265) 
0

>  <fr_amide>  (265) 
1

>  <fr_amidine>  (265) 
0

>  <fr_aniline>  (265) 
1

>  <fr_aryl_methyl>  (265) 
0

>  <fr_azide>  (265) 
0

>  <fr_azo>  (265) 
0

>  <fr_barbitur>  (265) 
0

>  <fr_benzene>  (265) 
0

>  <fr_benzodiazepine>  (265) 
0

>  <fr_bicyclic>  (265) 
0

>  <fr_diazo>  (265) 
0

>  <fr_dihydropyridine>  (265) 
0

>  <fr_epoxide>  (265) 
0

>  <fr_ester>  (265) 
0

>  <fr_ether>  (265) 
0

>  <fr_furan>  (265) 
0

>  <fr_guanido>  (265) 
0

>  <fr_halogen>  (265) 
0

>  <fr_hdrzine>  (265) 
0

>  <fr_hdrzone>  (265) 
0

>  <fr_imidazole>  (265) 
0

>  <fr_imide>  (265) 
0

>  <fr_isocyan>  (265) 
0

>  <fr_isothiocyan>  (265) 
0

>  <fr_ketone>  (265) 
0

>  <fr_ketone_Topliss>  (265) 
0

>  <fr_lactam>  (265) 
0

>  <fr_lactone>  (265) 
0

>  <fr_methoxy>  (265) 
0

>  <fr_morpholine>  (265) 
0

>  <fr_nitrile>  (265) 
0

>  <fr_nitro>  (265) 
0

>  <fr_nitro_arom>  (265) 
0

>  <fr_nitro_arom_nonortho>  (265) 
0

>  <fr_nitroso>  (265) 
0

>  <fr_oxazole>  (265) 
0

>  <fr_oxime>  (265) 
0

>  <fr_para_hydroxylation>  (265) 
0

>  <fr_phenol>  (265) 
0

>  <fr_phenol_noOrthoHbond>  (265) 
0

>  <fr_phos_acid>  (265) 
0

>  <fr_phos_ester>  (265) 
0

>  <fr_piperdine>  (265) 
0

>  <fr_piperzine>  (265) 
0

>  <fr_priamide>  (265) 
0

>  <fr_prisulfonamd>  (265) 
0

>  <fr_pyridine>  (265) 
1

>  <fr_quatN>  (265) 
1

>  <fr_sulfide>  (265) 
0

>  <fr_sulfonamd>  (265) 
0

>  <fr_sulfone>  (265) 
0

>  <fr_term_acetylene>  (265) 
0

>  <fr_tetrazole>  (265) 
0

>  <fr_thiazole>  (265) 
0

>  <fr_thiocyan>  (265) 
0

>  <fr_thiophene>  (265) 
0

>  <fr_unbrch_alkane>  (265) 
0

>  <fr_urea>  (265) 
0

>  <NP-Likeness>  (265) 
-1.378858

$$$$
Y27
     RDKit          3D

  0  0  0  0  0  0  0  0  0  0999 V3000
M  V30 BEGIN CTAB
M  V30 COUNTS 40 41 0 0 0
M  V30 BEGIN ATOM
M  V30 1 C -0.034709 -5.807143 3.542106 0
M  V30 2 N -1.326924 -6.128903 3.440990 0
M  V30 3 C -2.263652 -5.239884 3.095278 0
M  V30 4 C -1.866461 -3.959143 2.839486 0
M  V30 5 C -0.526609 -3.575969 2.932303 0
M  V30 6 N -0.336717 -2.185136 2.621039 0
M  V30 7 C -0.086324 -1.887790 1.267237 0
M  V30 8 O -0.006681 -2.697319 0.281645 0
M  V30 9 C 0.148401 -0.534296 0.657912 0 CFG=2
M  V30 10 C 0.362347 -0.783157 -0.807449 0
M  V30 11 C 0.734886 0.424511 -1.592427 0
M  V30 12 C 1.323792 1.534351 -0.794553 0 CFG=1
M  V30 13 C 0.296641 2.637520 -0.639910 0 CFG=1
M  V30 14 C 0.837277 3.803867 0.167739 0
M  V30 15 N -0.059845 3.189351 -1.934531 0 CHG=1 VAL=4
M  V30 16 C 2.000804 1.166803 0.467236 0
M  V30 17 C 1.409374 0.041331 1.228953 0
M  V30 18 C 0.408296 -4.524168 3.292125 0
M  V30 19 H 0.748427 -6.498346 3.818501 0
M  V30 20 H -3.291842 -5.560534 3.030512 0
M  V30 21 H -2.681831 -3.277109 2.560845 0
M  V30 22 H -0.352586 -1.337875 3.238565 0
M  V30 23 H -0.674210 0.157541 0.888859 0
M  V30 24 H 1.156355 -1.560797 -0.885638 0
M  V30 25 H -0.546674 -1.241304 -1.287545 0
M  V30 26 H -0.166933 0.806022 -2.152104 0
M  V30 27 H 1.414476 0.075223 -2.415354 0
M  V30 28 H 2.109352 1.997797 -1.464201 0
M  V30 29 H -0.640206 2.314389 -0.163055 0
M  V30 30 H 0.144275 4.668824 -0.056913 0
M  V30 31 H 1.835970 4.132295 -0.194836 0
M  V30 32 H 0.765273 3.664850 1.251287 0
M  V30 33 H -0.947294 2.739649 -2.307364 0
M  V30 34 H 0.684755 2.942340 -2.638489 0
M  V30 35 H -0.250651 4.205364 -1.907847 0
M  V30 36 H 2.068243 2.102326 1.090152 0
M  V30 37 H 3.064151 0.910631 0.264539 0
M  V30 38 H 1.213986 0.383915 2.280133 0
M  V30 39 H 2.123009 -0.824554 1.356206 0
M  V30 40 H 1.413540 -4.123918 3.334395 0
M  V30 END ATOM
M  V30 BEGIN BOND
M  V30 1 2 1 2
M  V30 2 1 2 3
M  V30 3 2 3 4
M  V30 4 1 4 5
M  V30 5 1 5 6
M  V30 6 1 6 7
M  V30 7 2 7 8
M  V30 8 1 7 9
M  V30 9 1 9 10
M  V30 10 1 10 11
M  V30 11 1 11 12
M  V30 12 1 12 13
M  V30 13 1 13 14
M  V30 14 1 13 15
M  V30 15 1 12 16
M  V30 16 1 16 17
M  V30 17 2 5 18
M  V30 18 1 18 1
M  V30 19 1 17 9
M  V30 20 1 1 19
M  V30 21 1 3 20
M  V30 22 1 4 21
M  V30 23 1 6 22
M  V30 24 1 9 23 CFG=3
M  V30 25 1 10 24
M  V30 26 1 10 25
M  V30 27 1 11 26
M  V30 28 1 11 27
M  V30 29 1 12 28 CFG=3
M  V30 30 1 13 29 CFG=1
M  V30 31 1 14 30
M  V30 32 1 14 31
M  V30 33 1 14 32
M  V30 34 1 15 33
M  V30 35 1 15 34
M  V30 36 1 15 35
M  V30 37 1 16 36
M  V30 38 1 16 37
M  V30 39 1 17 38
M  V30 40 1 17 39
M  V30 41 1 18 40
M  V30 END BOND
M  V30 END CTAB
M  END
>  <Dataset>  (266) 
PDB

>  <Ligand_Instance>  (266) 
2GNJ_Y27_A_501

>  <PDB_ID>  (266) 
2GNJ

>  <Standardized_SMILES>  (266) 
[H]C1=NC([H])=C([H])C(N([H])C(=O)[C@]2([H])C([H])([H])C([H])([H])[C@@]([H])([C@@]([H])(C([H])([H])[H])[N+]([H])([H])[H])C([H])([H])C2([H])[H])=C1[H]

>  <Name>  (266) 
(R)-TRANS-4-(1-AMINOETHYL)-N-(4-PYRIDYL) CYCLOHEXANECARBOXAMIDE

>  <Pocket>  (266) 
A

>  <ATP_Site>  (266) 
1.0

>  <Peripheral>  (266) 
0.0

>  <Num_H_Atoms_ProtBoundConf>  (266) 
22.0

>  <Num_Resolved_Atoms>  (266) 
18.0

>  <Num_Not_Resolved_Atoms>  (266) 
0.0

>  <2D_Mol_H>  (266) 
<rdkit.Chem.rdchem.Mol object at 0x72a2391011c0>

>  <MW>  (266) 
248.35

>  <HBA>  (266) 
2

>  <HBD>  (266) 
2

>  <LogP>  (266) 
1.4569

>  <NRB>  (266) 
5

>  <TPSA>  (266) 
69.63

>  <Num_Heavy_Atoms>  (266) 
18

>  <Ro5>  (266) 
[True, True, True, True, True, True]

>  <Ro5_Fulfilled>  (266) 
True

>  <Ro3>  (266) 
[True, True, True, True]

>  <Ro3_Fulfilled>  (266) 
True

>  <Fsp3>  (266) 
0.571429

>  <Fsp3_0.42>  (266) 
True

>  <Fsp3_0.45>  (266) 
True

>  <Stereogenic_Carbons>  (266) 
3

>  <C_Atoms>  (266) 
14

>  <FCStereo>  (266) 
0.214286

>  <SPS>  (266) 
458

>  <nSPS>  (266) 
25.444444

>  <PBF>  (266) 
0.945689

>  <PBF_0.6>  (266) 
True

>  <nPBF>  (266) 
0.052538

>  <nPBF_0.016>  (266) 
True

>  <PMI1>  (266) 
378.939705

>  <PMI2>  (266) 
3278.486721

>  <PMI3>  (266) 
3328.525581

>  <NPR1>  (266) 
0.113846

>  <NPR2>  (266) 
0.984967

>  <Sum_NPR>  (266) 
1.098813

>  <Sum_NPR_1.07>  (266) 
True

>  <Sum_NPR_1.2>  (266) 
False

>  <MaxAbsEStateIndex>  (266) 
12.096885

>  <MaxEStateIndex>  (266) 
12.096885

>  <MinAbsEStateIndex>  (266) 
0.149412

>  <MinEStateIndex>  (266) 
0.149412

>  <qed>  (266) 
0.849822

>  <MolWt>  (266) 
248.35

>  <HeavyAtomMolWt>  (266) 
226.174

>  <ExactMolWt>  (266) 
248.175739

>  <NumValenceElectrons>  (266) 
98

>  <NumRadicalElectrons>  (266) 
0

>  <MaxPartialCharge>  (266) 
0.226985

>  <MinPartialCharge>  (266) 
-0.35513

>  <MaxAbsPartialCharge>  (266) 
0.35513

>  <MinAbsPartialCharge>  (266) 
0.226985

>  <FpDensityMorgan1>  (266) 
1.333333

>  <FpDensityMorgan2>  (266) 
1.944444

>  <FpDensityMorgan3>  (266) 
2.5

>  <BCUT2D_MWHI>  (266) 
16.149739

>  <BCUT2D_MWLOW>  (266) 
9.785787

>  <BCUT2D_CHGHI>  (266) 
2.28551

>  <BCUT2D_CHGLO>  (266) 
-2.279162

>  <BCUT2D_LOGPHI>  (266) 
2.300703

>  <BCUT2D_LOGPLOW>  (266) 
-2.625591

>  <BCUT2D_MRHI>  (266) 
5.919535

>  <BCUT2D_MRLOW>  (266) 
-0.428413

>  <AvgIpc>  (266) 
2.397096

>  <BalabanJ>  (266) 
1.845511

>  <BertzCT>  (266) 
383.285394

>  <Chi0>  (266) 
12.957819

>  <Chi0n>  (266) 
10.932448

>  <Chi0v>  (266) 
10.932448

>  <Chi1>  (266) 
8.664704

>  <Chi1n>  (266) 
6.705139

>  <Chi1v>  (266) 
6.705139

>  <Chi2n>  (266) 
5.314127

>  <Chi2v>  (266) 
5.314127

>  <Chi3n>  (266) 
3.895225

>  <Chi3v>  (266) 
3.895225

>  <Chi4n>  (266) 
2.629989

>  <Chi4v>  (266) 
2.629989

>  <HallKierAlpha>  (266) 
-1.42

>  <Ipc>  (266) 
14267.517678

>  <Kappa1>  (266) 
13.02212

>  <Kappa2>  (266) 
5.956551

>  <Kappa3>  (266) 
3.291794

>  <LabuteASA>  (266) 
107.980974

>  <PEOE_VSA1>  (266) 
11.050456

>  <PEOE_VSA10>  (266) 
0.0

>  <PEOE_VSA11>  (266) 
0.0

>  <PEOE_VSA12>  (266) 
5.90718

>  <PEOE_VSA13>  (266) 
0.0

>  <PEOE_VSA14>  (266) 
0.0

>  <PEOE_VSA2>  (266) 
9.778516

>  <PEOE_VSA3>  (266) 
0.0

>  <PEOE_VSA4>  (266) 
0.0

>  <PEOE_VSA5>  (266) 
0.0

>  <PEOE_VSA6>  (266) 
0.0

>  <PEOE_VSA7>  (266) 
44.739758

>  <PEOE_VSA8>  (266) 
29.916886

>  <PEOE_VSA9>  (266) 
6.041841

>  <SMR_VSA1>  (266) 
10.528205

>  <SMR_VSA10>  (266) 
11.594566

>  <SMR_VSA2>  (266) 
0.0

>  <SMR_VSA3>  (266) 
4.983979

>  <SMR_VSA4>  (266) 
11.835812

>  <SMR_VSA5>  (266) 
38.648865

>  <SMR_VSA6>  (266) 
5.316789

>  <SMR_VSA7>  (266) 
24.526421

>  <SMR_VSA8>  (266) 
0.0

>  <SMR_VSA9>  (266) 
0.0

>  <SlogP_VSA1>  (266) 
11.050456

>  <SlogP_VSA10>  (266) 
5.687386

>  <SlogP_VSA11>  (266) 
0.0

>  <SlogP_VSA12>  (266) 
0.0

>  <SlogP_VSA2>  (266) 
16.932999

>  <SlogP_VSA3>  (266) 
4.794537

>  <SlogP_VSA4>  (266) 
11.835812

>  <SlogP_VSA5>  (266) 
32.607024

>  <SlogP_VSA6>  (266) 
24.526421

>  <SlogP_VSA7>  (266) 
0.0

>  <SlogP_VSA8>  (266) 
0.0

>  <SlogP_VSA9>  (266) 
0.0

>  <EState_VSA1>  (266) 
0.0

>  <EState_VSA10>  (266) 
4.794537

>  <EState_VSA11>  (266) 
0.0

>  <EState_VSA2>  (266) 
11.825086

>  <EState_VSA3>  (266) 
11.959747

>  <EState_VSA4>  (266) 
31.370673

>  <EState_VSA5>  (266) 
0.0

>  <EState_VSA6>  (266) 
12.393687

>  <EState_VSA7>  (266) 
12.132734

>  <EState_VSA8>  (266) 
22.958172

>  <EState_VSA9>  (266) 
0.0

>  <VSA_EState1>  (266) 
0.0

>  <VSA_EState10>  (266) 
0.0

>  <VSA_EState2>  (266) 
16.033156

>  <VSA_EState3>  (266) 
2.961124

>  <VSA_EState4>  (266) 
4.928059

>  <VSA_EState5>  (266) 
0.999542

>  <VSA_EState6>  (266) 
4.136637

>  <VSA_EState7>  (266) 
7.60613

>  <VSA_EState8>  (266) 
2.168684

>  <VSA_EState9>  (266) 
0.0

>  <FractionCSP3>  (266) 
0.571429

>  <HeavyAtomCount>  (266) 
18

>  <NHOHCount>  (266) 
4

>  <NOCount>  (266) 
4

>  <NumAliphaticCarbocycles>  (266) 
1

>  <NumAliphaticHeterocycles>  (266) 
0

>  <NumAliphaticRings>  (266) 
1

>  <NumAromaticCarbocycles>  (266) 
0

>  <NumAromaticHeterocycles>  (266) 
1

>  <NAR>  (266) 
1

>  <NumHAcceptors>  (266) 
2

>  <NumHDonors>  (266) 
2

>  <NumHeteroatoms>  (266) 
4

>  <NumRotatableBonds>  (266) 
3

>  <NumSaturatedCarbocycles>  (266) 
1

>  <NumSaturatedHeterocycles>  (266) 
0

>  <NumSaturatedRings>  (266) 
1

>  <RingCount>  (266) 
2

>  <MolLogP>  (266) 
1.4569

>  <MolMR>  (266) 
70.6648

>  <fr_Al_COO>  (266) 
0

>  <fr_Al_OH>  (266) 
0

>  <fr_Al_OH_noTert>  (266) 
0

>  <fr_ArN>  (266) 
0

>  <fr_Ar_COO>  (266) 
0

>  <fr_Ar_N>  (266) 
1

>  <fr_Ar_NH>  (266) 
0

>  <fr_Ar_OH>  (266) 
0

>  <fr_COO>  (266) 
0

>  <fr_COO2>  (266) 
0

>  <fr_C_O>  (266) 
1

>  <fr_C_O_noCOO>  (266) 
1

>  <fr_C_S>  (266) 
0

>  <fr_HOCCN>  (266) 
0

>  <fr_Imine>  (266) 
0

>  <fr_NH0>  (266) 
1

>  <fr_NH1>  (266) 
1

>  <fr_NH2>  (266) 
0

>  <fr_N_O>  (266) 
0

>  <fr_Ndealkylation1>  (266) 
0

>  <fr_Ndealkylation2>  (266) 
0

>  <fr_Nhpyrrole>  (266) 
0

>  <fr_SH>  (266) 
0

>  <fr_aldehyde>  (266) 
0

>  <fr_alkyl_carbamate>  (266) 
0

>  <fr_alkyl_halide>  (266) 
0

>  <fr_allylic_oxid>  (266) 
0

>  <fr_amide>  (266) 
1

>  <fr_amidine>  (266) 
0

>  <fr_aniline>  (266) 
1

>  <fr_aryl_methyl>  (266) 
0

>  <fr_azide>  (266) 
0

>  <fr_azo>  (266) 
0

>  <fr_barbitur>  (266) 
0

>  <fr_benzene>  (266) 
0

>  <fr_benzodiazepine>  (266) 
0

>  <fr_bicyclic>  (266) 
0

>  <fr_diazo>  (266) 
0

>  <fr_dihydropyridine>  (266) 
0

>  <fr_epoxide>  (266) 
0

>  <fr_ester>  (266) 
0

>  <fr_ether>  (266) 
0

>  <fr_furan>  (266) 
0

>  <fr_guanido>  (266) 
0

>  <fr_halogen>  (266) 
0

>  <fr_hdrzine>  (266) 
0

>  <fr_hdrzone>  (266) 
0

>  <fr_imidazole>  (266) 
0

>  <fr_imide>  (266) 
0

>  <fr_isocyan>  (266) 
0

>  <fr_isothiocyan>  (266) 
0

>  <fr_ketone>  (266) 
0

>  <fr_ketone_Topliss>  (266) 
0

>  <fr_lactam>  (266) 
0

>  <fr_lactone>  (266) 
0

>  <fr_methoxy>  (266) 
0

>  <fr_morpholine>  (266) 
0

>  <fr_nitrile>  (266) 
0

>  <fr_nitro>  (266) 
0

>  <fr_nitro_arom>  (266) 
0

>  <fr_nitro_arom_nonortho>  (266) 
0

>  <fr_nitroso>  (266) 
0

>  <fr_oxazole>  (266) 
0

>  <fr_oxime>  (266) 
0

>  <fr_para_hydroxylation>  (266) 
0

>  <fr_phenol>  (266) 
0

>  <fr_phenol_noOrthoHbond>  (266) 
0

>  <fr_phos_acid>  (266) 
0

>  <fr_phos_ester>  (266) 
0

>  <fr_piperdine>  (266) 
0

>  <fr_piperzine>  (266) 
0

>  <fr_priamide>  (266) 
0

>  <fr_prisulfonamd>  (266) 
0

>  <fr_pyridine>  (266) 
1

>  <fr_quatN>  (266) 
1

>  <fr_sulfide>  (266) 
0

>  <fr_sulfonamd>  (266) 
0

>  <fr_sulfone>  (266) 
0

>  <fr_term_acetylene>  (266) 
0

>  <fr_tetrazole>  (266) 
0

>  <fr_thiazole>  (266) 
0

>  <fr_thiocyan>  (266) 
0

>  <fr_thiophene>  (266) 
0

>  <fr_unbrch_alkane>  (266) 
0

>  <fr_urea>  (266) 
0

>  <NP-Likeness>  (266) 
-1.378858

$$$$
YTP
     RDKit          3D

  0  0  0  0  0  0  0  0  0  0999 V3000
M  V30 BEGIN CTAB
M  V30 COUNTS 21 21 0 0 0
M  V30 BEGIN ATOM
M  V30 1 O -1.686205 -2.283259 0.176777 0
M  V30 2 C -0.733997 -1.321558 0.430149 0
M  V30 3 C -0.267959 -1.230531 1.739878 0
M  V30 4 C 0.685011 -0.309871 2.124059 0
M  V30 5 C 1.219313 0.568087 1.209601 0
M  V30 6 C 2.227035 1.597272 1.441999 0
M  V30 7 O 2.690377 2.382760 0.573781 0
M  V30 8 C 2.795661 1.777589 2.823366 0
M  V30 9 C 0.767874 0.494673 -0.105208 0
M  V30 10 C -0.187066 -0.433255 -0.473423 0
M  V30 11 C -0.693994 -0.541179 -1.870545 0
M  V30 12 H -2.642924 -2.196621 0.502347 0
M  V30 13 H -0.615004 -1.868511 2.545330 0
M  V30 14 H 1.068593 -0.210708 3.126312 0
M  V30 15 H 2.830033 0.795933 3.339425 0
M  V30 16 H 2.062631 2.423785 3.349743 0
M  V30 17 H 3.785830 2.268007 2.802007 0
M  V30 18 H 1.120512 1.140971 -0.917492 0
M  V30 19 H -0.276162 -1.479221 -2.288727 0
M  V30 20 H -1.791335 -0.586605 -1.889115 0
M  V30 21 H -0.310382 0.297407 -2.471707 0
M  V30 END ATOM
M  V30 BEGIN BOND
M  V30 1 1 1 2
M  V30 2 2 2 3
M  V30 3 1 3 4
M  V30 4 2 4 5
M  V30 5 1 5 6
M  V30 6 2 6 7
M  V30 7 1 6 8
M  V30 8 1 5 9
M  V30 9 2 9 10
M  V30 10 1 10 11
M  V30 11 1 10 2
M  V30 12 1 1 12
M  V30 13 1 3 13
M  V30 14 1 4 14
M  V30 15 1 8 15
M  V30 16 1 8 16
M  V30 17 1 8 17
M  V30 18 1 9 18
M  V30 19 1 11 19
M  V30 20 1 11 20
M  V30 21 1 11 21
M  V30 END BOND
M  V30 END CTAB
M  END
>  <Dataset>  (267) 
PDB

>  <Ligand_Instance>  (267) 
3OOG_YTP_A_2001

>  <PDB_ID>  (267) 
3OOG

>  <Standardized_SMILES>  (267) 
[H]OC1=C([H])C([H])=C(C(=O)C([H])([H])[H])C([H])=C1C([H])([H])[H]

>  <Name>  (267) 
1-(4-hydroxy-3-methylphenyl)ethanone

>  <Pocket>  (267) 
A

>  <ATP_Site>  (267) 
1.0

>  <Peripheral>  (267) 
0.0

>  <Num_H_Atoms_ProtBoundConf>  (267) 
10.0

>  <Num_Resolved_Atoms>  (267) 
11.0

>  <Num_Not_Resolved_Atoms>  (267) 
0.0

>  <2D_Mol_H>  (267) 
<rdkit.Chem.rdchem.Mol object at 0x72a2391012a0>

>  <MW>  (267) 
150.177

>  <HBA>  (267) 
2

>  <HBD>  (267) 
1

>  <LogP>  (267) 
1.90322

>  <NRB>  (267) 
4

>  <TPSA>  (267) 
37.3

>  <Num_Heavy_Atoms>  (267) 
11

>  <Ro5>  (267) 
[True, True, True, True, True, True]

>  <Ro5_Fulfilled>  (267) 
True

>  <Ro3>  (267) 
[True, True, True, True]

>  <Ro3_Fulfilled>  (267) 
True

>  <Fsp3>  (267) 
0.222222

>  <Fsp3_0.42>  (267) 
False

>  <Fsp3_0.45>  (267) 
False

>  <Stereogenic_Carbons>  (267) 
0

>  <C_Atoms>  (267) 
9

>  <FCStereo>  (267) 
0.0

>  <SPS>  (267) 
106

>  <nSPS>  (267) 
9.636364

>  <PBF>  (267) 
0.26478

>  <PBF_0.6>  (267) 
False

>  <nPBF>  (267) 
0.024071

>  <nPBF_0.016>  (267) 
True

>  <PMI1>  (267) 
209.001939

>  <PMI2>  (267) 
724.641116

>  <PMI3>  (267) 
925.841104

>  <NPR1>  (267) 
0.225743

>  <NPR2>  (267) 
0.782684

>  <Sum_NPR>  (267) 
1.008427

>  <Sum_NPR_1.07>  (267) 
False

>  <Sum_NPR_1.2>  (267) 
False

>  <MaxAbsEStateIndex>  (267) 
10.82726

>  <MaxEStateIndex>  (267) 
10.82726

>  <MinAbsEStateIndex>  (267) 
0.021389

>  <MinEStateIndex>  (267) 
0.021389

>  <qed>  (267) 
0.620631

>  <MolWt>  (267) 
150.177

>  <HeavyAtomMolWt>  (267) 
140.097

>  <ExactMolWt>  (267) 
150.06808

>  <NumValenceElectrons>  (267) 
58

>  <NumRadicalElectrons>  (267) 
0

>  <MaxPartialCharge>  (267) 
0.159313

>  <MinPartialCharge>  (267) 
-0.507687

>  <MaxAbsPartialCharge>  (267) 
0.507687

>  <MinAbsPartialCharge>  (267) 
0.159313

>  <FpDensityMorgan1>  (267) 
1.454545

>  <FpDensityMorgan2>  (267) 
2.090909

>  <FpDensityMorgan3>  (267) 
2.545455

>  <BCUT2D_MWHI>  (267) 
16.255338

>  <BCUT2D_MWLOW>  (267) 
10.088069

>  <BCUT2D_CHGHI>  (267) 
2.003013

>  <BCUT2D_CHGLO>  (267) 
-1.989344

>  <BCUT2D_LOGPHI>  (267) 
2.162754

>  <BCUT2D_LOGPLOW>  (267) 
-1.90995

>  <BCUT2D_MRHI>  (267) 
5.938805

>  <BCUT2D_MRLOW>  (267) 
0.101289

>  <AvgIpc>  (267) 
1.941518

>  <BalabanJ>  (267) 
3.15155

>  <BertzCT>  (267) 
289.614249

>  <Chi0>  (267) 
8.430721

>  <Chi0n>  (267) 
6.587513

>  <Chi0v>  (267) 
6.587513

>  <Chi1>  (267) 
5.109061

>  <Chi1n>  (267) 
3.415765

>  <Chi1v>  (267) 
3.415765

>  <Chi2n>  (267) 
2.557452

>  <Chi2v>  (267) 
2.557452

>  <Chi3n>  (267) 
1.603319

>  <Chi3v>  (267) 
1.603319

>  <Chi4n>  (267) 
0.874452

>  <Chi4v>  (267) 
0.874452

>  <HallKierAlpha>  (267) 
-1.31

>  <Ipc>  (267) 
271.812571

>  <Kappa1>  (267) 
7.793199

>  <Kappa2>  (267) 
2.741988

>  <Kappa3>  (267) 
1.579887

>  <LabuteASA>  (267) 
65.481985

>  <PEOE_VSA1>  (267) 
5.106527

>  <PEOE_VSA10>  (267) 
5.749512

>  <PEOE_VSA11>  (267) 
5.783245

>  <PEOE_VSA12>  (267) 
0.0

>  <PEOE_VSA13>  (267) 
0.0

>  <PEOE_VSA14>  (267) 
0.0

>  <PEOE_VSA2>  (267) 
4.794537

>  <PEOE_VSA3>  (267) 
0.0

>  <PEOE_VSA4>  (267) 
0.0

>  <PEOE_VSA5>  (267) 
0.0

>  <PEOE_VSA6>  (267) 
0.0

>  <PEOE_VSA7>  (267) 
37.610027

>  <PEOE_VSA8>  (267) 
5.563451

>  <PEOE_VSA9>  (267) 
0.0

>  <SMR_VSA1>  (267) 
9.901065

>  <SMR_VSA10>  (267) 
5.783245

>  <SMR_VSA2>  (267) 
0.0

>  <SMR_VSA3>  (267) 
0.0

>  <SMR_VSA4>  (267) 
0.0

>  <SMR_VSA5>  (267) 
13.847474

>  <SMR_VSA6>  (267) 
0.0

>  <SMR_VSA7>  (267) 
29.326004

>  <SMR_VSA8>  (267) 
0.0

>  <SMR_VSA9>  (267) 
5.749512

>  <SlogP_VSA1>  (267) 
0.0

>  <SlogP_VSA10>  (267) 
0.0

>  <SlogP_VSA11>  (267) 
5.749512

>  <SlogP_VSA12>  (267) 
0.0

>  <SlogP_VSA2>  (267) 
10.889772

>  <SlogP_VSA3>  (267) 
0.0

>  <SlogP_VSA4>  (267) 
6.923737

>  <SlogP_VSA5>  (267) 
22.845177

>  <SlogP_VSA6>  (267) 
18.199101

>  <SlogP_VSA7>  (267) 
0.0

>  <SlogP_VSA8>  (267) 
0.0

>  <SlogP_VSA9>  (267) 
0.0

>  <EState_VSA1>  (267) 
0.0

>  <EState_VSA10>  (267) 
4.794537

>  <EState_VSA11>  (267) 
0.0

>  <EState_VSA2>  (267) 
11.532757

>  <EState_VSA3>  (267) 
5.563451

>  <EState_VSA4>  (267) 
5.563451

>  <EState_VSA5>  (267) 
12.990104

>  <EState_VSA6>  (267) 
19.056471

>  <EState_VSA7>  (267) 
0.0

>  <EState_VSA8>  (267) 
0.0

>  <EState_VSA9>  (267) 
5.106527

>  <VSA_EState1>  (267) 
0.0

>  <VSA_EState10>  (267) 
0.0

>  <VSA_EState2>  (267) 
10.82726

>  <VSA_EState3>  (267) 
9.114187

>  <VSA_EState4>  (267) 
1.373148

>  <VSA_EState5>  (267) 
0.25287

>  <VSA_EState6>  (267) 
4.827778

>  <VSA_EState7>  (267) 
0.0

>  <VSA_EState8>  (267) 
3.271423

>  <VSA_EState9>  (267) 
0.0

>  <FractionCSP3>  (267) 
0.222222

>  <HeavyAtomCount>  (267) 
11

>  <NHOHCount>  (267) 
1

>  <NOCount>  (267) 
2

>  <NumAliphaticCarbocycles>  (267) 
0

>  <NumAliphaticHeterocycles>  (267) 
0

>  <NumAliphaticRings>  (267) 
0

>  <NumAromaticCarbocycles>  (267) 
1

>  <NumAromaticHeterocycles>  (267) 
0

>  <NAR>  (267) 
1

>  <NumHAcceptors>  (267) 
2

>  <NumHDonors>  (267) 
1

>  <NumHeteroatoms>  (267) 
2

>  <NumRotatableBonds>  (267) 
1

>  <NumSaturatedCarbocycles>  (267) 
0

>  <NumSaturatedHeterocycles>  (267) 
0

>  <NumSaturatedRings>  (267) 
0

>  <RingCount>  (267) 
1

>  <MolLogP>  (267) 
1.90322

>  <MolMR>  (267) 
42.8483

>  <fr_Al_COO>  (267) 
0

>  <fr_Al_OH>  (267) 
0

>  <fr_Al_OH_noTert>  (267) 
0

>  <fr_ArN>  (267) 
0

>  <fr_Ar_COO>  (267) 
0

>  <fr_Ar_N>  (267) 
0

>  <fr_Ar_NH>  (267) 
0

>  <fr_Ar_OH>  (267) 
1

>  <fr_COO>  (267) 
0

>  <fr_COO2>  (267) 
0

>  <fr_C_O>  (267) 
1

>  <fr_C_O_noCOO>  (267) 
1

>  <fr_C_S>  (267) 
0

>  <fr_HOCCN>  (267) 
0

>  <fr_Imine>  (267) 
0

>  <fr_NH0>  (267) 
0

>  <fr_NH1>  (267) 
0

>  <fr_NH2>  (267) 
0

>  <fr_N_O>  (267) 
0

>  <fr_Ndealkylation1>  (267) 
0

>  <fr_Ndealkylation2>  (267) 
0

>  <fr_Nhpyrrole>  (267) 
0

>  <fr_SH>  (267) 
0

>  <fr_aldehyde>  (267) 
0

>  <fr_alkyl_carbamate>  (267) 
0

>  <fr_alkyl_halide>  (267) 
0

>  <fr_allylic_oxid>  (267) 
0

>  <fr_amide>  (267) 
0

>  <fr_amidine>  (267) 
0

>  <fr_aniline>  (267) 
0

>  <fr_aryl_methyl>  (267) 
1

>  <fr_azide>  (267) 
0

>  <fr_azo>  (267) 
0

>  <fr_barbitur>  (267) 
0

>  <fr_benzene>  (267) 
1

>  <fr_benzodiazepine>  (267) 
0

>  <fr_bicyclic>  (267) 
0

>  <fr_diazo>  (267) 
0

>  <fr_dihydropyridine>  (267) 
0

>  <fr_epoxide>  (267) 
0

>  <fr_ester>  (267) 
0

>  <fr_ether>  (267) 
0

>  <fr_furan>  (267) 
0

>  <fr_guanido>  (267) 
0

>  <fr_halogen>  (267) 
0

>  <fr_hdrzine>  (267) 
0

>  <fr_hdrzone>  (267) 
0

>  <fr_imidazole>  (267) 
0

>  <fr_imide>  (267) 
0

>  <fr_isocyan>  (267) 
0

>  <fr_isothiocyan>  (267) 
0

>  <fr_ketone>  (267) 
1

>  <fr_ketone_Topliss>  (267) 
1

>  <fr_lactam>  (267) 
0

>  <fr_lactone>  (267) 
0

>  <fr_methoxy>  (267) 
0

>  <fr_morpholine>  (267) 
0

>  <fr_nitrile>  (267) 
0

>  <fr_nitro>  (267) 
0

>  <fr_nitro_arom>  (267) 
0

>  <fr_nitro_arom_nonortho>  (267) 
0

>  <fr_nitroso>  (267) 
0

>  <fr_oxazole>  (267) 
0

>  <fr_oxime>  (267) 
0

>  <fr_para_hydroxylation>  (267) 
0

>  <fr_phenol>  (267) 
1

>  <fr_phenol_noOrthoHbond>  (267) 
1

>  <fr_phos_acid>  (267) 
0

>  <fr_phos_ester>  (267) 
0

>  <fr_piperdine>  (267) 
0

>  <fr_piperzine>  (267) 
0

>  <fr_priamide>  (267) 
0

>  <fr_prisulfonamd>  (267) 
0

>  <fr_pyridine>  (267) 
0

>  <fr_quatN>  (267) 
0

>  <fr_sulfide>  (267) 
0

>  <fr_sulfonamd>  (267) 
0

>  <fr_sulfone>  (267) 
0

>  <fr_term_acetylene>  (267) 
0

>  <fr_tetrazole>  (267) 
0

>  <fr_thiazole>  (267) 
0

>  <fr_thiocyan>  (267) 
0

>  <fr_thiophene>  (267) 
0

>  <fr_unbrch_alkane>  (267) 
0

>  <fr_urea>  (267) 
0

>  <NP-Likeness>  (267) 
0.118484

$$$$
Z21
     RDKit          3D

  0  0  0  0  0  0  0  0  0  0999 V3000
M  V30 BEGIN CTAB
M  V30 COUNTS 27 29 0 0 0
M  V30 BEGIN ATOM
M  V30 1 C 0.418797 -2.149410 3.896340 0
M  V30 2 C 0.545921 -1.543416 2.670991 0
M  V30 3 N 1.555954 -1.539062 1.811289 0
M  V30 4 C 1.306242 -0.823973 0.699147 0
M  V30 5 C 2.310612 -0.725493 -0.333086 0
M  V30 6 N 3.541767 -1.265274 -0.243963 0
M  V30 7 O 4.272222 -1.021274 -1.276830 0
M  V30 8 N 3.610109 -0.304220 -2.146964 0
M  V30 9 C 2.413314 -0.130908 -1.558897 0
M  V30 10 N 1.439088 0.584420 -2.244359 0
M  V30 11 N 0.087411 -0.371927 0.895475 0
M  V30 12 C -0.671525 0.488919 0.059751 0
M  V30 13 C -1.432878 -0.287500 -0.989630 0
M  V30 14 C -0.430854 -0.781809 2.087144 0
M  V30 15 C -1.617371 -0.609530 2.767321 0
M  V30 16 C -1.752323 -1.212821 3.994246 0
M  V30 17 Br -3.392920 -0.978152 4.941219 0
M  V30 18 N -0.759315 -1.956620 4.531615 0
M  V30 19 H 1.238354 -2.723878 4.267022 0
M  V30 20 H 1.480428 1.619967 -2.194097 0
M  V30 21 H 0.592077 0.639317 -2.851576 0
M  V30 22 H -1.520236 0.973176 0.674414 0
M  V30 23 H -0.125919 1.302369 -0.430245 0
M  V30 24 H -0.769774 -1.008566 -1.521808 0
M  V30 25 H -2.320142 -0.801420 -0.576576 0
M  V30 26 H -1.798050 0.479241 -1.723310 0
M  V30 27 H -2.375328 0.003484 2.273600 0
M  V30 END ATOM
M  V30 BEGIN BOND
M  V30 1 2 1 2
M  V30 2 1 2 3
M  V30 3 2 3 4
M  V30 4 1 4 5
M  V30 5 2 5 6
M  V30 6 1 6 7
M  V30 7 1 7 8
M  V30 8 2 8 9
M  V30 9 1 9 10
M  V30 10 1 4 11
M  V30 11 1 11 12
M  V30 12 1 12 13
M  V30 13 1 11 14
M  V30 14 2 14 15
M  V30 15 1 15 16
M  V30 16 1 16 17
M  V30 17 2 16 18
M  V30 18 1 18 1
M  V30 19 1 14 2
M  V30 20 1 9 5
M  V30 21 1 1 19
M  V30 22 1 10 20
M  V30 23 1 10 21
M  V30 24 1 12 22
M  V30 25 1 12 23
M  V30 26 1 13 24
M  V30 27 1 13 25
M  V30 28 1 13 26
M  V30 29 1 15 27
M  V30 END BOND
M  V30 END CTAB
M  END
>  <Dataset>  (268) 
PDB

>  <Ligand_Instance>  (268) 
4C37_Z21_A_1351

>  <PDB_ID>  (268) 
4C37

>  <Standardized_SMILES>  (268) 
[H]C1=C2N=C(C3=NON=C3N([H])[H])N(C([H])([H])C([H])([H])[H])C2=C([H])C(Br)=N1

>  <Name>  (268) 
4-(6-bromo-1-ethyl-1H-imidazo[4,5-c]pyridin-2-yl)-1,2,5-oxadiazol-3-amine

>  <Pocket>  (268) 
A

>  <ATP_Site>  (268) 
1.0

>  <Peripheral>  (268) 
0.0

>  <Num_H_Atoms_ProtBoundConf>  (268) 
9.0

>  <Num_Resolved_Atoms>  (268) 
18.0

>  <Num_Not_Resolved_Atoms>  (268) 
0.0

>  <2D_Mol_H>  (268) 
<rdkit.Chem.rdchem.Mol object at 0x72a239101380>

>  <MW>  (268) 
309.127

>  <HBA>  (268) 
7

>  <HBD>  (268) 
1

>  <LogP>  (268) 
1.8459

>  <NRB>  (268) 
4

>  <TPSA>  (268) 
95.65

>  <Num_Heavy_Atoms>  (268) 
18

>  <Ro5>  (268) 
[True, True, True, True, True, True]

>  <Ro5_Fulfilled>  (268) 
True

>  <Ro3>  (268) 
[False, False, True, True]

>  <Ro3_Fulfilled>  (268) 
False

>  <Fsp3>  (268) 
0.2

>  <Fsp3_0.42>  (268) 
False

>  <Fsp3_0.45>  (268) 
False

>  <Stereogenic_Carbons>  (268) 
0

>  <C_Atoms>  (268) 
10

>  <FCStereo>  (268) 
0.0

>  <SPS>  (268) 
202

>  <nSPS>  (268) 
11.222222

>  <PBF>  (268) 
0.402767

>  <PBF_0.6>  (268) 
False

>  <nPBF>  (268) 
0.022376

>  <nPBF_0.016>  (268) 
True

>  <PMI1>  (268) 
507.333751

>  <PMI2>  (268) 
3681.557651

>  <PMI3>  (268) 
4141.302694

>  <NPR1>  (268) 
0.122506

>  <NPR2>  (268) 
0.888985

>  <Sum_NPR>  (268) 
1.011491

>  <Sum_NPR_1.07>  (268) 
False

>  <Sum_NPR_1.2>  (268) 
False

>  <MaxAbsEStateIndex>  (268) 
5.702326

>  <MaxEStateIndex>  (268) 
5.702326

>  <MinAbsEStateIndex>  (268) 
0.228732

>  <MinEStateIndex>  (268) 
0.228732

>  <qed>  (268) 
0.725735

>  <MolWt>  (268) 
309.127

>  <HeavyAtomMolWt>  (268) 
300.055

>  <ExactMolWt>  (268) 
308.002121

>  <NumValenceElectrons>  (268) 
92

>  <NumRadicalElectrons>  (268) 
0

>  <MaxPartialCharge>  (268) 
0.199153

>  <MinPartialCharge>  (268) 
-0.378861

>  <MaxAbsPartialCharge>  (268) 
0.378861

>  <MinAbsPartialCharge>  (268) 
0.199153

>  <FpDensityMorgan1>  (268) 
1.444444

>  <FpDensityMorgan2>  (268) 
2.277778

>  <FpDensityMorgan3>  (268) 
2.944444

>  <BCUT2D_MWHI>  (268) 
79.918731

>  <BCUT2D_MWLOW>  (268) 
10.363099

>  <BCUT2D_CHGHI>  (268) 
2.179819

>  <BCUT2D_CHGLO>  (268) 
-2.025743

>  <BCUT2D_LOGPHI>  (268) 
2.266532

>  <BCUT2D_LOGPLOW>  (268) 
-1.99479

>  <BCUT2D_MRHI>  (268) 
9.10241

>  <BCUT2D_MRLOW>  (268) 
0.309783

>  <AvgIpc>  (268) 
2.911524

>  <BalabanJ>  (268) 
2.330373

>  <BertzCT>  (268) 
718.302709

>  <Chi0>  (268) 
12.698306

>  <Chi0n>  (268) 
9.461438

>  <Chi0v>  (268) 
11.047435

>  <Chi1>  (268) 
8.702709

>  <Chi1n>  (268) 
5.305612

>  <Chi1v>  (268) 
6.09861

>  <Chi2n>  (268) 
3.673481

>  <Chi2v>  (268) 
4.485959

>  <Chi3n>  (268) 
2.643175

>  <Chi3v>  (268) 
3.076845

>  <Chi4n>  (268) 
1.855336

>  <Chi4v>  (268) 
2.174547

>  <HallKierAlpha>  (268) 
-1.96

>  <Ipc>  (268) 
22861.286895

>  <Kappa1>  (268) 
11.14877

>  <Kappa2>  (268) 
4.054793

>  <Kappa3>  (268) 
1.5664

>  <LabuteASA>  (268) 
110.10225

>  <PEOE_VSA1>  (268) 
10.300767

>  <PEOE_VSA10>  (268) 
10.119897

>  <PEOE_VSA11>  (268) 
17.336195

>  <PEOE_VSA12>  (268) 
0.0

>  <PEOE_VSA13>  (268) 
0.0

>  <PEOE_VSA14>  (268) 
0.0

>  <PEOE_VSA2>  (268) 
0.0

>  <PEOE_VSA3>  (268) 
14.596996

>  <PEOE_VSA4>  (268) 
0.0

>  <PEOE_VSA5>  (268) 
0.0

>  <PEOE_VSA6>  (268) 
0.0

>  <PEOE_VSA7>  (268) 
39.233375

>  <PEOE_VSA8>  (268) 
6.544756

>  <PEOE_VSA9>  (268) 
11.713544

>  <SMR_VSA1>  (268) 
4.629039

>  <SMR_VSA10>  (268) 
32.781208

>  <SMR_VSA2>  (268) 
0.0

>  <SMR_VSA3>  (268) 
24.848383

>  <SMR_VSA4>  (268) 
0.0

>  <SMR_VSA5>  (268) 
13.468494

>  <SMR_VSA6>  (268) 
5.733667

>  <SMR_VSA7>  (268) 
16.866407

>  <SMR_VSA8>  (268) 
0.0

>  <SMR_VSA9>  (268) 
11.518332

>  <SlogP_VSA1>  (268) 
5.733667

>  <SlogP_VSA10>  (268) 
5.817863

>  <SlogP_VSA11>  (268) 
0.0

>  <SlogP_VSA12>  (268) 
15.929944

>  <SlogP_VSA2>  (268) 
24.848383

>  <SlogP_VSA3>  (268) 
6.544756

>  <SlogP_VSA4>  (268) 
0.0

>  <SlogP_VSA5>  (268) 
6.923737

>  <SlogP_VSA6>  (268) 
21.495446

>  <SlogP_VSA7>  (268) 
0.0

>  <SlogP_VSA8>  (268) 
22.551734

>  <SlogP_VSA9>  (268) 
0.0

>  <EState_VSA1>  (268) 
0.0

>  <EState_VSA10>  (268) 
0.0

>  <EState_VSA11>  (268) 
0.0

>  <EState_VSA2>  (268) 
5.817863

>  <EState_VSA3>  (268) 
11.518332

>  <EState_VSA4>  (268) 
22.181354

>  <EState_VSA5>  (268) 
0.0

>  <EState_VSA6>  (268) 
6.196844

>  <EState_VSA7>  (268) 
17.557204

>  <EState_VSA8>  (268) 
40.840266

>  <EState_VSA9>  (268) 
5.733667

>  <VSA_EState1>  (268) 
7.351721

>  <VSA_EState10>  (268) 
3.344834

>  <VSA_EState2>  (268) 
8.614969

>  <VSA_EState3>  (268) 
7.355335

>  <VSA_EState4>  (268) 
7.881397

>  <VSA_EState5>  (268) 
0.859427

>  <VSA_EState6>  (268) 
1.901821

>  <VSA_EState7>  (268) 
1.693233

>  <VSA_EState8>  (268) 
2.747264

>  <VSA_EState9>  (268) 
0.0

>  <FractionCSP3>  (268) 
0.2

>  <HeavyAtomCount>  (268) 
18

>  <NHOHCount>  (268) 
2

>  <NOCount>  (268) 
7

>  <NumAliphaticCarbocycles>  (268) 
0

>  <NumAliphaticHeterocycles>  (268) 
0

>  <NumAliphaticRings>  (268) 
0

>  <NumAromaticCarbocycles>  (268) 
0

>  <NumAromaticHeterocycles>  (268) 
3

>  <NAR>  (268) 
3

>  <NumHAcceptors>  (268) 
7

>  <NumHDonors>  (268) 
1

>  <NumHeteroatoms>  (268) 
8

>  <NumRotatableBonds>  (268) 
2

>  <NumSaturatedCarbocycles>  (268) 
0

>  <NumSaturatedHeterocycles>  (268) 
0

>  <NumSaturatedRings>  (268) 
0

>  <RingCount>  (268) 
3

>  <MolLogP>  (268) 
1.8459

>  <MolMR>  (268) 
68.6064

>  <fr_Al_COO>  (268) 
0

>  <fr_Al_OH>  (268) 
0

>  <fr_Al_OH_noTert>  (268) 
0

>  <fr_ArN>  (268) 
1

>  <fr_Ar_COO>  (268) 
0

>  <fr_Ar_N>  (268) 
5

>  <fr_Ar_NH>  (268) 
0

>  <fr_Ar_OH>  (268) 
0

>  <fr_COO>  (268) 
0

>  <fr_COO2>  (268) 
0

>  <fr_C_O>  (268) 
0

>  <fr_C_O_noCOO>  (268) 
0

>  <fr_C_S>  (268) 
0

>  <fr_HOCCN>  (268) 
0

>  <fr_Imine>  (268) 
0

>  <fr_NH0>  (268) 
5

>  <fr_NH1>  (268) 
0

>  <fr_NH2>  (268) 
1

>  <fr_N_O>  (268) 
0

>  <fr_Ndealkylation1>  (268) 
0

>  <fr_Ndealkylation2>  (268) 
0

>  <fr_Nhpyrrole>  (268) 
0

>  <fr_SH>  (268) 
0

>  <fr_aldehyde>  (268) 
0

>  <fr_alkyl_carbamate>  (268) 
0

>  <fr_alkyl_halide>  (268) 
0

>  <fr_allylic_oxid>  (268) 
0

>  <fr_amide>  (268) 
0

>  <fr_amidine>  (268) 
0

>  <fr_aniline>  (268) 
1

>  <fr_aryl_methyl>  (268) 
1

>  <fr_azide>  (268) 
0

>  <fr_azo>  (268) 
0

>  <fr_barbitur>  (268) 
0

>  <fr_benzene>  (268) 
0

>  <fr_benzodiazepine>  (268) 
0

>  <fr_bicyclic>  (268) 
1

>  <fr_diazo>  (268) 
0

>  <fr_dihydropyridine>  (268) 
0

>  <fr_epoxide>  (268) 
0

>  <fr_ester>  (268) 
0

>  <fr_ether>  (268) 
0

>  <fr_furan>  (268) 
0

>  <fr_guanido>  (268) 
0

>  <fr_halogen>  (268) 
1

>  <fr_hdrzine>  (268) 
0

>  <fr_hdrzone>  (268) 
0

>  <fr_imidazole>  (268) 
1

>  <fr_imide>  (268) 
0

>  <fr_isocyan>  (268) 
0

>  <fr_isothiocyan>  (268) 
0

>  <fr_ketone>  (268) 
0

>  <fr_ketone_Topliss>  (268) 
0

>  <fr_lactam>  (268) 
0

>  <fr_lactone>  (268) 
0

>  <fr_methoxy>  (268) 
0

>  <fr_morpholine>  (268) 
0

>  <fr_nitrile>  (268) 
0

>  <fr_nitro>  (268) 
0

>  <fr_nitro_arom>  (268) 
0

>  <fr_nitro_arom_nonortho>  (268) 
0

>  <fr_nitroso>  (268) 
0

>  <fr_oxazole>  (268) 
0

>  <fr_oxime>  (268) 
0

>  <fr_para_hydroxylation>  (268) 
0

>  <fr_phenol>  (268) 
0

>  <fr_phenol_noOrthoHbond>  (268) 
0

>  <fr_phos_acid>  (268) 
0

>  <fr_phos_ester>  (268) 
0

>  <fr_piperdine>  (268) 
0

>  <fr_piperzine>  (268) 
0

>  <fr_priamide>  (268) 
0

>  <fr_prisulfonamd>  (268) 
0

>  <fr_pyridine>  (268) 
1

>  <fr_quatN>  (268) 
0

>  <fr_sulfide>  (268) 
0

>  <fr_sulfonamd>  (268) 
0

>  <fr_sulfone>  (268) 
0

>  <fr_term_acetylene>  (268) 
0

>  <fr_tetrazole>  (268) 
0

>  <fr_thiazole>  (268) 
0

>  <fr_thiocyan>  (268) 
0

>  <fr_thiophene>  (268) 
0

>  <fr_unbrch_alkane>  (268) 
0

>  <fr_urea>  (268) 
0

>  <NP-Likeness>  (268) 
-1.512424

$$$$
ZO9
     RDKit          3D

  0  0  0  0  0  0  0  0  0  0999 V3000
M  V30 BEGIN CTAB
M  V30 COUNTS 32 35 0 0 0
M  V30 BEGIN ATOM
M  V30 1 C 1.588106 -1.436025 4.739216 0
M  V30 2 C 0.207346 -1.420333 4.516074 0
M  V30 3 C -0.314717 -1.054164 3.297598 0
M  V30 4 C 0.526007 -0.693256 2.267176 0
M  V30 5 C 1.872591 -0.717930 2.514190 0
M  V30 6 C 2.457558 -1.073258 3.706505 0
M  V30 7 N 2.473980 -0.338825 1.393251 0
M  V30 8 C 1.595026 -0.065549 0.418393 0
M  V30 9 C 2.063847 0.362670 -0.885575 0
M  V30 10 N 3.345632 0.562752 -1.186990 0
M  V30 11 O 3.516865 0.963382 -2.389891 0
M  V30 12 N 2.356271 1.067732 -3.006095 0
M  V30 13 C 1.466704 0.694312 -2.069594 0
M  V30 14 N 0.116573 0.670709 -2.419639 0
M  V30 15 N 0.412571 -0.292128 0.991057 0
M  V30 16 C -0.889414 -0.115418 0.439955 0
M  V30 17 C -1.433297 -1.270906 -0.332534 0
M  V30 18 C -2.825375 -1.142391 -0.948563 0
M  V30 19 C -2.626371 -1.970388 0.269233 0
M  V30 20 H 2.011466 -1.725615 5.704131 0
M  V30 21 H -0.472338 -1.698437 5.306129 0
M  V30 22 H -1.372860 -1.026240 3.076450 0
M  V30 23 H 3.532981 -1.063601 3.811163 0
M  V30 24 H -0.262687 0.307225 -3.313397 0
M  V30 25 H -0.259728 0.309953 -3.306665 0
M  V30 26 H -1.637773 0.149015 1.292485 0
M  V30 27 H -0.933578 0.805307 -0.149556 0
M  V30 28 H -0.740128 -1.869866 -0.955271 0
M  V30 29 H -3.022255 -1.564727 -1.940163 0
M  V30 30 H -3.266605 -0.110943 -0.845734 0
M  V30 31 H -3.067256 -1.528992 1.187188 0
M  V30 32 H -2.721253 -3.058362 0.226847 0
M  V30 END ATOM
M  V30 BEGIN BOND
M  V30 1 2 1 2
M  V30 2 1 2 3
M  V30 3 2 3 4
M  V30 4 1 4 5
M  V30 5 2 5 6
M  V30 6 1 5 7
M  V30 7 2 7 8
M  V30 8 1 8 9
M  V30 9 2 9 10
M  V30 10 1 10 11
M  V30 11 1 11 12
M  V30 12 2 12 13
M  V30 13 1 13 14
M  V30 14 1 8 15
M  V30 15 1 15 16
M  V30 16 1 16 17
M  V30 17 1 17 18
M  V30 18 1 18 19
M  V30 19 1 6 1
M  V30 20 1 13 9
M  V30 21 1 19 17
M  V30 22 1 15 4
M  V30 23 1 1 20
M  V30 24 1 2 21
M  V30 25 1 3 22
M  V30 26 1 6 23
M  V30 27 1 14 24
M  V30 28 1 14 25
M  V30 29 1 16 26
M  V30 30 1 16 27
M  V30 31 1 17 28
M  V30 32 1 18 29
M  V30 33 1 18 30
M  V30 34 1 19 31
M  V30 35 1 19 32
M  V30 END BOND
M  V30 END CTAB
M  END
>  <Dataset>  (269) 
PDB

>  <Ligand_Instance>  (269) 
4C36_ZO9_A_1351

>  <PDB_ID>  (269) 
4C36

>  <Standardized_SMILES>  (269) 
[H]C1=C([H])C([H])=C2C(=C1[H])N=C(C1=NON=C1N([H])[H])N2C([H])([H])C1([H])C([H])([H])C1([H])[H]

>  <Name>  (269) 
4-[1-(cyclopropylmethyl)-1H-benzimidazol-2-yl]-1,2,5-oxadiazol-3-amine

>  <Pocket>  (269) 
A

>  <ATP_Site>  (269) 
1.0

>  <Peripheral>  (269) 
0.0

>  <Num_H_Atoms_ProtBoundConf>  (269) 
13.0

>  <Num_Resolved_Atoms>  (269) 
19.0

>  <Num_Not_Resolved_Atoms>  (269) 
0.0

>  <2D_Mol_H>  (269) 
<rdkit.Chem.rdchem.Mol object at 0x72a239101460>

>  <MW>  (269) 
255.281

>  <HBA>  (269) 
6

>  <HBD>  (269) 
1

>  <LogP>  (269) 
2.0785

>  <NRB>  (269) 
4

>  <TPSA>  (269) 
82.76

>  <Num_Heavy_Atoms>  (269) 
19

>  <Ro5>  (269) 
[True, True, True, True, True, True]

>  <Ro5_Fulfilled>  (269) 
True

>  <Ro3>  (269) 
[True, False, True, True]

>  <Ro3_Fulfilled>  (269) 
True

>  <Fsp3>  (269) 
0.307692

>  <Fsp3_0.42>  (269) 
False

>  <Fsp3_0.45>  (269) 
False

>  <Stereogenic_Carbons>  (269) 
0

>  <C_Atoms>  (269) 
13

>  <FCStereo>  (269) 
0.0

>  <SPS>  (269) 
288

>  <nSPS>  (269) 
15.157895

>  <PBF>  (269) 
0.441712

>  <PBF_0.6>  (269) 
False

>  <nPBF>  (269) 
0.023248

>  <nPBF_0.016>  (269) 
True

>  <PMI1>  (269) 
939.910313

>  <PMI2>  (269) 
1625.591883

>  <PMI3>  (269) 
2498.540903

>  <NPR1>  (269) 
0.376184

>  <NPR2>  (269) 
0.650616

>  <Sum_NPR>  (269) 
1.0268

>  <Sum_NPR_1.07>  (269) 
False

>  <Sum_NPR_1.2>  (269) 
False

>  <MaxAbsEStateIndex>  (269) 
5.789041

>  <MaxEStateIndex>  (269) 
5.789041

>  <MinAbsEStateIndex>  (269) 
0.284586

>  <MinEStateIndex>  (269) 
0.284586

>  <qed>  (269) 
0.774276

>  <MolWt>  (269) 
255.281

>  <HeavyAtomMolWt>  (269) 
242.177

>  <ExactMolWt>  (269) 
255.11201

>  <NumValenceElectrons>  (269) 
96

>  <NumRadicalElectrons>  (269) 
0

>  <MaxPartialCharge>  (269) 
0.199153

>  <MinPartialCharge>  (269) 
-0.378861

>  <MaxAbsPartialCharge>  (269) 
0.378861

>  <MinAbsPartialCharge>  (269) 
0.199153

>  <FpDensityMorgan1>  (269) 
1.263158

>  <FpDensityMorgan2>  (269) 
2.105263

>  <FpDensityMorgan3>  (269) 
2.842105

>  <BCUT2D_MWHI>  (269) 
16.564438

>  <BCUT2D_MWLOW>  (269) 
10.277649

>  <BCUT2D_CHGHI>  (269) 
2.258626

>  <BCUT2D_CHGLO>  (269) 
-2.056563

>  <BCUT2D_LOGPHI>  (269) 
2.343976

>  <BCUT2D_LOGPLOW>  (269) 
-2.032953

>  <BCUT2D_MRHI>  (269) 
5.810419

>  <BCUT2D_MRLOW>  (269) 
0.309741

>  <AvgIpc>  (269) 
3.029763

>  <BalabanJ>  (269) 
1.948221

>  <BertzCT>  (269) 
740.414365

>  <Chi0>  (269) 
12.819626

>  <Chi0n>  (269) 
10.282525

>  <Chi0v>  (269) 
10.282525

>  <Chi1>  (269) 
9.3265

>  <Chi1n>  (269) 
6.363787

>  <Chi1v>  (269) 
6.363787

>  <Chi2n>  (269) 
4.976177

>  <Chi2v>  (269) 
4.976177

>  <Chi3n>  (269) 
3.517955

>  <Chi3v>  (269) 
3.517955

>  <Chi4n>  (269) 
2.350313

>  <Chi4v>  (269) 
2.350313

>  <HallKierAlpha>  (269) 
-2.37

>  <Ipc>  (269) 
57759.407346

>  <Kappa1>  (269) 
10.543131

>  <Kappa2>  (269) 
3.810521

>  <Kappa3>  (269) 
1.675475

>  <LabuteASA>  (269) 
108.739108

>  <PEOE_VSA1>  (269) 
10.300767

>  <PEOE_VSA10>  (269) 
0.0

>  <PEOE_VSA11>  (269) 
17.336195

>  <PEOE_VSA12>  (269) 
0.0

>  <PEOE_VSA13>  (269) 
0.0

>  <PEOE_VSA14>  (269) 
0.0

>  <PEOE_VSA2>  (269) 
0.0

>  <PEOE_VSA3>  (269) 
9.613017

>  <PEOE_VSA4>  (269) 
0.0

>  <PEOE_VSA5>  (269) 
0.0

>  <PEOE_VSA6>  (269) 
12.132734

>  <PEOE_VSA7>  (269) 
41.20561

>  <PEOE_VSA8>  (269) 
6.544756

>  <PEOE_VSA9>  (269) 
11.033401

>  <SMR_VSA1>  (269) 
4.629039

>  <SMR_VSA10>  (269) 
16.851264

>  <SMR_VSA2>  (269) 
0.0

>  <SMR_VSA3>  (269) 
19.864405

>  <SMR_VSA4>  (269) 
5.917906

>  <SMR_VSA5>  (269) 
19.3864

>  <SMR_VSA6>  (269) 
5.733667

>  <SMR_VSA7>  (269) 
24.265468

>  <SMR_VSA8>  (269) 
0.0

>  <SMR_VSA9>  (269) 
11.518332

>  <SlogP_VSA1>  (269) 
5.733667

>  <SlogP_VSA10>  (269) 
5.817863

>  <SlogP_VSA11>  (269) 
0.0

>  <SlogP_VSA12>  (269) 
0.0

>  <SlogP_VSA2>  (269) 
19.864405

>  <SlogP_VSA3>  (269) 
6.544756

>  <SlogP_VSA4>  (269) 
5.917906

>  <SlogP_VSA5>  (269) 
12.841643

>  <SlogP_VSA6>  (269) 
28.894507

>  <SlogP_VSA7>  (269) 
0.0

>  <SlogP_VSA8>  (269) 
22.551734

>  <SlogP_VSA9>  (269) 
0.0

>  <EState_VSA1>  (269) 
0.0

>  <EState_VSA10>  (269) 
0.0

>  <EState_VSA11>  (269) 
0.0

>  <EState_VSA2>  (269) 
5.817863

>  <EState_VSA3>  (269) 
5.693928

>  <EState_VSA4>  (269) 
29.320468

>  <EState_VSA5>  (269) 
12.841643

>  <EState_VSA6>  (269) 
0.0

>  <EState_VSA7>  (269) 
18.199101

>  <EState_VSA8>  (269) 
25.930772

>  <EState_VSA9>  (269) 
10.362706

>  <VSA_EState1>  (269) 
6.862502

>  <VSA_EState10>  (269) 
0.0

>  <VSA_EState2>  (269) 
4.617269

>  <VSA_EState3>  (269) 
7.512588

>  <VSA_EState4>  (269) 
8.362374

>  <VSA_EState5>  (269) 
1.760781

>  <VSA_EState6>  (269) 
8.05201

>  <VSA_EState7>  (269) 
2.552568

>  <VSA_EState8>  (269) 
0.946574

>  <VSA_EState9>  (269) 
0.0

>  <FractionCSP3>  (269) 
0.307692

>  <HeavyAtomCount>  (269) 
19

>  <NHOHCount>  (269) 
2

>  <NOCount>  (269) 
6

>  <NumAliphaticCarbocycles>  (269) 
1

>  <NumAliphaticHeterocycles>  (269) 
0

>  <NumAliphaticRings>  (269) 
1

>  <NumAromaticCarbocycles>  (269) 
1

>  <NumAromaticHeterocycles>  (269) 
2

>  <NAR>  (269) 
3

>  <NumHAcceptors>  (269) 
6

>  <NumHDonors>  (269) 
1

>  <NumHeteroatoms>  (269) 
6

>  <NumRotatableBonds>  (269) 
3

>  <NumSaturatedCarbocycles>  (269) 
1

>  <NumSaturatedHeterocycles>  (269) 
0

>  <NumSaturatedRings>  (269) 
1

>  <RingCount>  (269) 
4

>  <MolLogP>  (269) 
2.0785

>  <MolMR>  (269) 
70.1614

>  <fr_Al_COO>  (269) 
0

>  <fr_Al_OH>  (269) 
0

>  <fr_Al_OH_noTert>  (269) 
0

>  <fr_ArN>  (269) 
1

>  <fr_Ar_COO>  (269) 
0

>  <fr_Ar_N>  (269) 
4

>  <fr_Ar_NH>  (269) 
0

>  <fr_Ar_OH>  (269) 
0

>  <fr_COO>  (269) 
0

>  <fr_COO2>  (269) 
0

>  <fr_C_O>  (269) 
0

>  <fr_C_O_noCOO>  (269) 
0

>  <fr_C_S>  (269) 
0

>  <fr_HOCCN>  (269) 
0

>  <fr_Imine>  (269) 
0

>  <fr_NH0>  (269) 
4

>  <fr_NH1>  (269) 
0

>  <fr_NH2>  (269) 
1

>  <fr_N_O>  (269) 
0

>  <fr_Ndealkylation1>  (269) 
0

>  <fr_Ndealkylation2>  (269) 
0

>  <fr_Nhpyrrole>  (269) 
0

>  <fr_SH>  (269) 
0

>  <fr_aldehyde>  (269) 
0

>  <fr_alkyl_carbamate>  (269) 
0

>  <fr_alkyl_halide>  (269) 
0

>  <fr_allylic_oxid>  (269) 
0

>  <fr_amide>  (269) 
0

>  <fr_amidine>  (269) 
0

>  <fr_aniline>  (269) 
1

>  <fr_aryl_methyl>  (269) 
0

>  <fr_azide>  (269) 
0

>  <fr_azo>  (269) 
0

>  <fr_barbitur>  (269) 
0

>  <fr_benzene>  (269) 
1

>  <fr_benzodiazepine>  (269) 
0

>  <fr_bicyclic>  (269) 
1

>  <fr_diazo>  (269) 
0

>  <fr_dihydropyridine>  (269) 
0

>  <fr_epoxide>  (269) 
0

>  <fr_ester>  (269) 
0

>  <fr_ether>  (269) 
0

>  <fr_furan>  (269) 
0

>  <fr_guanido>  (269) 
0

>  <fr_halogen>  (269) 
0

>  <fr_hdrzine>  (269) 
0

>  <fr_hdrzone>  (269) 
0

>  <fr_imidazole>  (269) 
1

>  <fr_imide>  (269) 
0

>  <fr_isocyan>  (269) 
0

>  <fr_isothiocyan>  (269) 
0

>  <fr_ketone>  (269) 
0

>  <fr_ketone_Topliss>  (269) 
0

>  <fr_lactam>  (269) 
0

>  <fr_lactone>  (269) 
0

>  <fr_methoxy>  (269) 
0

>  <fr_morpholine>  (269) 
0

>  <fr_nitrile>  (269) 
0

>  <fr_nitro>  (269) 
0

>  <fr_nitro_arom>  (269) 
0

>  <fr_nitro_arom_nonortho>  (269) 
0

>  <fr_nitroso>  (269) 
0

>  <fr_oxazole>  (269) 
0

>  <fr_oxime>  (269) 
0

>  <fr_para_hydroxylation>  (269) 
2

>  <fr_phenol>  (269) 
0

>  <fr_phenol_noOrthoHbond>  (269) 
0

>  <fr_phos_acid>  (269) 
0

>  <fr_phos_ester>  (269) 
0

>  <fr_piperdine>  (269) 
0

>  <fr_piperzine>  (269) 
0

>  <fr_priamide>  (269) 
0

>  <fr_prisulfonamd>  (269) 
0

>  <fr_pyridine>  (269) 
0

>  <fr_quatN>  (269) 
0

>  <fr_sulfide>  (269) 
0

>  <fr_sulfonamd>  (269) 
0

>  <fr_sulfone>  (269) 
0

>  <fr_term_acetylene>  (269) 
0

>  <fr_tetrazole>  (269) 
0

>  <fr_thiazole>  (269) 
0

>  <fr_thiocyan>  (269) 
0

>  <fr_thiophene>  (269) 
0

>  <fr_unbrch_alkane>  (269) 
0

>  <fr_urea>  (269) 
0

>  <NP-Likeness>  (269) 
-1.557716

$$$$
ZWG
     RDKit          3D

  0  0  0  0  0  0  0  0  0  0999 V3000
M  V30 BEGIN CTAB
M  V30 COUNTS 47 49 0 0 0
M  V30 BEGIN ATOM
M  V30 1 C -4.721671 -4.735234 2.974710 0
M  V30 2 N -3.973373 -5.823440 3.263250 0
M  V30 3 C -2.662071 -5.850332 2.952948 0
M  V30 4 C -2.094676 -4.753265 2.337508 0
M  V30 5 C -0.762989 -5.069323 2.147783 0
M  V30 6 C -0.508049 -6.335599 2.634785 0
M  V30 7 N -1.696211 -6.781862 3.120145 0
M  V30 8 C -2.785164 -3.602261 2.007515 0
M  V30 9 C -2.216603 -2.444702 1.365339 0
M  V30 10 C -1.364260 -2.370556 0.281497 0
M  V30 11 C -0.924801 -1.147648 -0.190641 0
M  V30 12 C -1.354169 0.005544 0.442442 0
M  V30 13 N -0.829704 1.194586 -0.140820 0
M  V30 14 C 0.390145 1.561235 0.458100 0
M  V30 15 O 0.863971 0.833978 1.398930 0
M  V30 16 C 1.337215 2.710892 0.218494 0 CFG=1
M  V30 17 C 2.720790 2.206918 0.125952 0
M  V30 18 C 3.824528 3.165300 -0.108365 0
M  V30 19 C 5.096232 2.290710 -0.138362 0
M  V30 20 C 3.805766 3.876429 -1.433844 0
M  V30 21 N 0.884109 3.595455 -0.795476 0 CHG=1 VAL=4
M  V30 22 C -2.206529 -0.012696 1.530394 0
M  V30 23 C -2.637710 -1.262534 1.989989 0
M  V30 24 C -4.139324 -3.641895 2.357217 0
M  V30 25 H -5.770486 -4.754154 3.240445 0
M  V30 26 H -0.002563 -4.448648 1.691789 0
M  V30 27 H 0.412770 -6.906245 2.656413 0
M  V30 28 H -1.822665 -7.738968 3.566587 0
M  V30 29 H -1.102227 -3.329587 -0.123683 0
M  V30 30 H -0.266308 -1.194752 -1.035618 0
M  V30 31 H -1.087814 1.876611 -0.887647 0
M  V30 32 H 1.281576 3.292123 1.188253 0
M  V30 33 H 2.750144 1.462562 -0.715394 0
M  V30 34 H 2.997990 1.598046 1.021092 0
M  V30 35 H 4.008188 3.855701 0.741434 0
M  V30 36 H 4.832135 1.482649 -0.879134 0
M  V30 37 H 5.954882 2.820257 -0.553128 0
M  V30 38 H 5.267604 1.780983 0.819907 0
M  V30 39 H 3.352314 3.234308 -2.199728 0
M  V30 40 H 3.410109 4.911622 -1.396187 0
M  V30 41 H 4.876886 4.026210 -1.766195 0
M  V30 42 H 0.998470 3.298685 -1.769967 0
M  V30 43 H -0.173680 3.671542 -0.669607 0
M  V30 44 H 1.206248 4.562016 -0.565697 0
M  V30 45 H -2.499274 0.918443 1.972645 0
M  V30 46 H -3.298984 -1.184007 2.840823 0
M  V30 47 H -4.780681 -2.789369 2.144704 0
M  V30 END ATOM
M  V30 BEGIN BOND
M  V30 1 2 1 2
M  V30 2 1 2 3
M  V30 3 2 3 4
M  V30 4 1 4 5
M  V30 5 2 5 6
M  V30 6 1 6 7
M  V30 7 1 4 8
M  V30 8 1 8 9
M  V30 9 2 9 10
M  V30 10 1 10 11
M  V30 11 2 11 12
M  V30 12 1 12 13
M  V30 13 1 13 14
M  V30 14 2 14 15
M  V30 15 1 14 16
M  V30 16 1 16 17
M  V30 17 1 17 18
M  V30 18 1 18 19
M  V30 19 1 18 20
M  V30 20 1 16 21
M  V30 21 1 12 22
M  V30 22 2 22 23
M  V30 23 2 8 24
M  V30 24 1 24 1
M  V30 25 1 7 3
M  V30 26 1 23 9
M  V30 27 1 1 25
M  V30 28 1 5 26
M  V30 29 1 6 27
M  V30 30 1 7 28
M  V30 31 1 10 29
M  V30 32 1 11 30
M  V30 33 1 13 31
M  V30 34 1 16 32 CFG=1
M  V30 35 1 17 33
M  V30 36 1 17 34
M  V30 37 1 18 35
M  V30 38 1 19 36
M  V30 39 1 19 37
M  V30 40 1 19 38
M  V30 41 1 20 39
M  V30 42 1 20 40
M  V30 43 1 20 41
M  V30 44 1 21 42
M  V30 45 1 21 43
M  V30 46 1 21 44
M  V30 47 1 22 45
M  V30 48 1 23 46
M  V30 49 1 24 47
M  V30 END BOND
M  V30 END CTAB
M  END
>  <Dataset>  (270) 
PDB

>  <Ligand_Instance>  (270) 
8SF8_ZWG_A_401

>  <PDB_ID>  (270) 
8SF8

>  <Standardized_SMILES>  (270) 
[H]C1=NC2=C(C([H])=C([H])N2[H])C(C2=C([H])C([H])=C(N([H])C(=O)[C@@]([H])(C([H])([H])C([H])(C([H])([H])[H])C([H])([H])[H])[N+]([H])([H])[H])C([H])=C2[H])=C1[H]

>  <Name>  (270) 
N-[4-(1H-pyrrolo[2,3-b]pyridin-4-yl)phenyl]-D-leucinamide

>  <Pocket>  (270) 
A

>  <ATP_Site>  (270) 
1.0

>  <Peripheral>  (270) 
0.0

>  <Num_H_Atoms_ProtBoundConf>  (270) 
23.0

>  <Num_Resolved_Atoms>  (270) 
24.0

>  <Num_Not_Resolved_Atoms>  (270) 
0.0

>  <2D_Mol_H>  (270) 
<rdkit.Chem.rdchem.Mol object at 0x72a239101540>

>  <MW>  (270) 
323.42

>  <HBA>  (270) 
2

>  <HBD>  (270) 
3

>  <LogP>  (270) 
2.825

>  <NRB>  (270) 
8

>  <TPSA>  (270) 
85.42

>  <Num_Heavy_Atoms>  (270) 
24

>  <Ro5>  (270) 
[True, True, True, True, True, True]

>  <Ro5_Fulfilled>  (270) 
True

>  <Ro3>  (270) 
[False, True, True, True]

>  <Ro3_Fulfilled>  (270) 
True

>  <Fsp3>  (270) 
0.263158

>  <Fsp3_0.42>  (270) 
False

>  <Fsp3_0.45>  (270) 
False

>  <Stereogenic_Carbons>  (270) 
1

>  <C_Atoms>  (270) 
19

>  <FCStereo>  (270) 
0.052632

>  <SPS>  (270) 
300

>  <nSPS>  (270) 
12.5

>  <PBF>  (270) 
0.63356

>  <PBF_0.6>  (270) 
True

>  <nPBF>  (270) 
0.026398

>  <nPBF_0.016>  (270) 
True

>  <PMI1>  (270) 
828.347222

>  <PMI2>  (270) 
6054.206217

>  <PMI3>  (270) 
6658.68687

>  <NPR1>  (270) 
0.124401

>  <NPR2>  (270) 
0.909219

>  <Sum_NPR>  (270) 
1.03362

>  <Sum_NPR_1.07>  (270) 
False

>  <Sum_NPR_1.2>  (270) 
False

>  <MaxAbsEStateIndex>  (270) 
12.156921

>  <MaxEStateIndex>  (270) 
12.156921

>  <MinAbsEStateIndex>  (270) 
0.033902

>  <MinEStateIndex>  (270) 
-0.232079

>  <qed>  (270) 
0.674207

>  <MolWt>  (270) 
323.42

>  <HeavyAtomMolWt>  (270) 
300.236

>  <ExactMolWt>  (270) 
323.186638

>  <NumValenceElectrons>  (270) 
124

>  <NumRadicalElectrons>  (270) 
0

>  <MaxPartialCharge>  (270) 
0.282027

>  <MinPartialCharge>  (270) 
-0.347315

>  <MaxAbsPartialCharge>  (270) 
0.347315

>  <MinAbsPartialCharge>  (270) 
0.282027

>  <FpDensityMorgan1>  (270) 
1.208333

>  <FpDensityMorgan2>  (270) 
1.958333

>  <FpDensityMorgan3>  (270) 
2.666667

>  <BCUT2D_MWHI>  (270) 
16.150494

>  <BCUT2D_MWLOW>  (270) 
10.025944

>  <BCUT2D_CHGHI>  (270) 
2.1816

>  <BCUT2D_CHGLO>  (270) 
-2.117837

>  <BCUT2D_LOGPHI>  (270) 
2.273906

>  <BCUT2D_LOGPLOW>  (270) 
-2.66189

>  <BCUT2D_MRHI>  (270) 
5.951779

>  <BCUT2D_MRLOW>  (270) 
-0.404986

>  <AvgIpc>  (270) 
3.032311

>  <BalabanJ>  (270) 
1.762855

>  <BertzCT>  (270) 
835.95389

>  <Chi0>  (270) 
17.104084

>  <Chi0n>  (270) 
14.043178

>  <Chi0v>  (270) 
14.043178

>  <Chi1>  (270) 
11.541714

>  <Chi1n>  (270) 
8.20811

>  <Chi1v>  (270) 
8.20811

>  <Chi2n>  (270) 
6.491539

>  <Chi2v>  (270) 
6.491539

>  <Chi3n>  (270) 
4.050335

>  <Chi3v>  (270) 
4.050335

>  <Chi4n>  (270) 
2.866129

>  <Chi4v>  (270) 
2.866129

>  <HallKierAlpha>  (270) 
-2.66

>  <Ipc>  (270) 
372768.033292

>  <Kappa1>  (270) 
16.206701

>  <Kappa2>  (270) 
6.844358

>  <Kappa3>  (270) 
3.463198

>  <LabuteASA>  (270) 
140.839898

>  <PEOE_VSA1>  (270) 
16.034435

>  <PEOE_VSA10>  (270) 
5.647177

>  <PEOE_VSA11>  (270) 
6.041841

>  <PEOE_VSA12>  (270) 
0.0

>  <PEOE_VSA13>  (270) 
5.90718

>  <PEOE_VSA14>  (270) 
0.0

>  <PEOE_VSA2>  (270) 
4.794537

>  <PEOE_VSA3>  (270) 
4.983979

>  <PEOE_VSA4>  (270) 
0.0

>  <PEOE_VSA5>  (270) 
0.0

>  <PEOE_VSA6>  (270) 
25.980209

>  <PEOE_VSA7>  (270) 
41.310277

>  <PEOE_VSA8>  (270) 
29.888119

>  <PEOE_VSA9>  (270) 
0.0

>  <SMR_VSA1>  (270) 
10.528205

>  <SMR_VSA10>  (270) 
22.627967

>  <SMR_VSA2>  (270) 
0.0

>  <SMR_VSA3>  (270) 
9.967957

>  <SMR_VSA4>  (270) 
5.917906

>  <SMR_VSA5>  (270) 
26.310137

>  <SMR_VSA6>  (270) 
5.316789

>  <SMR_VSA7>  (270) 
48.79189

>  <SMR_VSA8>  (270) 
0.0

>  <SMR_VSA9>  (270) 
11.126903

>  <SlogP_VSA1>  (270) 
11.050456

>  <SlogP_VSA10>  (270) 
5.687386

>  <SlogP_VSA11>  (270) 
0.0

>  <SlogP_VSA12>  (270) 
0.0

>  <SlogP_VSA2>  (270) 
21.916978

>  <SlogP_VSA3>  (270) 
4.794537

>  <SlogP_VSA4>  (270) 
5.917906

>  <SlogP_VSA5>  (270) 
20.268296

>  <SlogP_VSA6>  (270) 
48.79189

>  <SlogP_VSA7>  (270) 
0.0

>  <SlogP_VSA8>  (270) 
22.160304

>  <SlogP_VSA9>  (270) 
0.0

>  <EState_VSA1>  (270) 
0.0

>  <EState_VSA10>  (270) 
4.794537

>  <EState_VSA11>  (270) 
0.0

>  <EState_VSA2>  (270) 
11.949021

>  <EState_VSA3>  (270) 
5.917906

>  <EState_VSA4>  (270) 
34.268512

>  <EState_VSA5>  (270) 
0.0

>  <EState_VSA6>  (270) 
6.196844

>  <EState_VSA7>  (270) 
42.595046

>  <EState_VSA8>  (270) 
34.865888

>  <EState_VSA9>  (270) 
0.0

>  <VSA_EState1>  (270) 
0.0

>  <VSA_EState10>  (270) 
0.0

>  <VSA_EState2>  (270) 
19.584708

>  <VSA_EState3>  (270) 
4.025015

>  <VSA_EState4>  (270) 
7.821409

>  <VSA_EState5>  (270) 
0.420798

>  <VSA_EState6>  (270) 
11.660137

>  <VSA_EState7>  (270) 
4.46666

>  <VSA_EState8>  (270) 
4.187939

>  <VSA_EState9>  (270) 
0.0

>  <FractionCSP3>  (270) 
0.263158

>  <HeavyAtomCount>  (270) 
24

>  <NHOHCount>  (270) 
5

>  <NOCount>  (270) 
5

>  <NumAliphaticCarbocycles>  (270) 
0

>  <NumAliphaticHeterocycles>  (270) 
0

>  <NumAliphaticRings>  (270) 
0

>  <NumAromaticCarbocycles>  (270) 
1

>  <NumAromaticHeterocycles>  (270) 
2

>  <NAR>  (270) 
3

>  <NumHAcceptors>  (270) 
2

>  <NumHDonors>  (270) 
3

>  <NumHeteroatoms>  (270) 
5

>  <NumRotatableBonds>  (270) 
5

>  <NumSaturatedCarbocycles>  (270) 
0

>  <NumSaturatedHeterocycles>  (270) 
0

>  <NumSaturatedRings>  (270) 
0

>  <RingCount>  (270) 
3

>  <MolLogP>  (270) 
2.825

>  <MolMR>  (270) 
96.2905

>  <fr_Al_COO>  (270) 
0

>  <fr_Al_OH>  (270) 
0

>  <fr_Al_OH_noTert>  (270) 
0

>  <fr_ArN>  (270) 
0

>  <fr_Ar_COO>  (270) 
0

>  <fr_Ar_N>  (270) 
2

>  <fr_Ar_NH>  (270) 
1

>  <fr_Ar_OH>  (270) 
0

>  <fr_COO>  (270) 
0

>  <fr_COO2>  (270) 
0

>  <fr_C_O>  (270) 
1

>  <fr_C_O_noCOO>  (270) 
1

>  <fr_C_S>  (270) 
0

>  <fr_HOCCN>  (270) 
0

>  <fr_Imine>  (270) 
0

>  <fr_NH0>  (270) 
1

>  <fr_NH1>  (270) 
2

>  <fr_NH2>  (270) 
0

>  <fr_N_O>  (270) 
0

>  <fr_Ndealkylation1>  (270) 
0

>  <fr_Ndealkylation2>  (270) 
0

>  <fr_Nhpyrrole>  (270) 
1

>  <fr_SH>  (270) 
0

>  <fr_aldehyde>  (270) 
0

>  <fr_alkyl_carbamate>  (270) 
0

>  <fr_alkyl_halide>  (270) 
0

>  <fr_allylic_oxid>  (270) 
0

>  <fr_amide>  (270) 
1

>  <fr_amidine>  (270) 
0

>  <fr_aniline>  (270) 
1

>  <fr_aryl_methyl>  (270) 
0

>  <fr_azide>  (270) 
0

>  <fr_azo>  (270) 
0

>  <fr_barbitur>  (270) 
0

>  <fr_benzene>  (270) 
1

>  <fr_benzodiazepine>  (270) 
0

>  <fr_bicyclic>  (270) 
1

>  <fr_diazo>  (270) 
0

>  <fr_dihydropyridine>  (270) 
0

>  <fr_epoxide>  (270) 
0

>  <fr_ester>  (270) 
0

>  <fr_ether>  (270) 
0

>  <fr_furan>  (270) 
0

>  <fr_guanido>  (270) 
0

>  <fr_halogen>  (270) 
0

>  <fr_hdrzine>  (270) 
0

>  <fr_hdrzone>  (270) 
0

>  <fr_imidazole>  (270) 
0

>  <fr_imide>  (270) 
0

>  <fr_isocyan>  (270) 
0

>  <fr_isothiocyan>  (270) 
0

>  <fr_ketone>  (270) 
0

>  <fr_ketone_Topliss>  (270) 
0

>  <fr_lactam>  (270) 
0

>  <fr_lactone>  (270) 
0

>  <fr_methoxy>  (270) 
0

>  <fr_morpholine>  (270) 
0

>  <fr_nitrile>  (270) 
0

>  <fr_nitro>  (270) 
0

>  <fr_nitro_arom>  (270) 
0

>  <fr_nitro_arom_nonortho>  (270) 
0

>  <fr_nitroso>  (270) 
0

>  <fr_oxazole>  (270) 
0

>  <fr_oxime>  (270) 
0

>  <fr_para_hydroxylation>  (270) 
0

>  <fr_phenol>  (270) 
0

>  <fr_phenol_noOrthoHbond>  (270) 
0

>  <fr_phos_acid>  (270) 
0

>  <fr_phos_ester>  (270) 
0

>  <fr_piperdine>  (270) 
0

>  <fr_piperzine>  (270) 
0

>  <fr_priamide>  (270) 
0

>  <fr_prisulfonamd>  (270) 
0

>  <fr_pyridine>  (270) 
1

>  <fr_quatN>  (270) 
1

>  <fr_sulfide>  (270) 
0

>  <fr_sulfonamd>  (270) 
0

>  <fr_sulfone>  (270) 
0

>  <fr_term_acetylene>  (270) 
0

>  <fr_tetrazole>  (270) 
0

>  <fr_thiazole>  (270) 
0

>  <fr_thiocyan>  (270) 
0

>  <fr_thiophene>  (270) 
0

>  <fr_unbrch_alkane>  (270) 
0

>  <fr_urea>  (270) 
0

>  <NP-Likeness>  (270) 
-0.689369

$$$$
